data_crystal

_cell_length_a 11.03600
_cell_length_b 12.05600
_cell_length_c 19.56100
_cell_angle_alpha 90.00000
_cell_angle_beta  90.00000
_cell_angle_gamma 90.00000

_symmetry_space_group_name_	'P 1'
_symmetry_space_group_name_H-M	'P 1'

loop_
_symmetry_equiv_pos_as_xyz
  x,y,z

loop_
_atom_site_label
_atom_site_type_symbol
_atom_site_fract_x
_atom_site_fract_y
_atom_site_fract_z
_atom_site_charge
Ce	Ce	0.36431 0.84017 0.87879 2.10000
Ce	Ce	0.88269 0.02071 0.66444 2.12800
Ce	Ce	0.63569 0.15983 0.37879 2.09900
Ce	Ce	0.11731 0.97929 0.16444 2.12800
Ce	Ce	0.13569 0.34017 0.87879 2.10000
Ce	Ce	0.61731 0.52071 0.66444 2.13100
Ce	Ce	0.86431 0.65983 0.37879 2.10000
Ce	Ce	0.38269 0.47929 0.16444 2.13100
H 	H 	0.15340 0.98990 0.76990 -0.03800
H 	H 	0.26860 0.73580 0.61160 0.06500
H 	H 	0.63010 0.89930 0.76770 -0.02700
H 	H 	0.49310 0.25320 0.77800 0.02900
H 	H 	0.84660 0.01010 0.26990 -0.03900
H 	H 	0.73140 0.26420 0.11160 0.06500
H 	H 	0.36990 0.10070 0.26770 -0.02700
H 	H 	0.50690 0.74680 0.27800 0.02900
H 	H 	0.34660 0.48990 0.76990 -0.03700
H 	H 	0.23140 0.23580 0.61160 0.06500
H 	H 	0.86990 0.39930 0.76770 -0.02600
H 	H 	0.00690 0.75320 0.77800 0.02500
H 	H 	0.65340 0.51010 0.26990 -0.03700
H 	H 	0.76860 0.76420 0.11160 0.06500
H 	H 	0.13010 0.60070 0.26770 -0.02600
H 	H 	0.99310 0.24680 0.27800 0.02300
C 	C 	0.17410 0.93520 0.73850 0.09800
C 	C 	0.13730 0.84750 0.63680 -0.02700
C 	C 	0.24270 0.78550 0.64490 -0.01400
C 	C 	0.30710 0.80100 0.70460 -0.03800
C 	C 	0.41450 0.72590 0.72240 0.39200
C 	C 	0.05440 0.82720 0.57600 0.31700
C 	C 	0.60170 0.97190 0.76900 0.10100
C 	C 	0.62530 0.15280 0.73980 -0.08300
C 	C 	0.52010 0.18030 0.77480 0.01600
C 	C 	0.45820 0.09450 0.80420 -0.06100
C 	C 	0.34000 0.11360 0.84250 0.36500
C 	C 	0.70300 0.24270 0.70550 0.41000
C 	C 	0.82150 0.11590 0.51020 0.20900
C 	C 	0.70020 0.06340 0.53280 0.25800
C 	C 	0.82590 0.06480 0.23850 0.09800
C 	C 	0.86270 0.15250 0.13680 -0.02700
C 	C 	0.75730 0.21450 0.14490 -0.01400
C 	C 	0.69290 0.19900 0.20460 -0.03800
C 	C 	0.58550 0.27410 0.22240 0.39200
C 	C 	0.94560 0.17280 0.07600 0.31900
C 	C 	0.39830 0.02810 0.26900 0.10000
C 	C 	0.37470 0.84720 0.23980 -0.08300
C 	C 	0.47990 0.81970 0.27480 0.01500
C 	C 	0.54180 0.90550 0.30420 -0.06000
C 	C 	0.66000 0.88640 0.34250 0.36500
C 	C 	0.29700 0.75730 0.20550 0.41000
C 	C 	0.17850 0.88410 0.01020 0.20500
C 	C 	0.29980 0.93660 0.03280 0.25600
C 	C 	0.32590 0.43520 0.73850 0.09800
C 	C 	0.36270 0.34750 0.63680 -0.02800
C 	C 	0.25730 0.28550 0.64490 -0.01300
C 	C 	0.19290 0.30100 0.70460 -0.03700
C 	C 	0.08550 0.22590 0.72240 0.39200
C 	C 	0.44560 0.32720 0.57600 0.32600
C 	C 	0.89830 0.47190 0.76900 0.09300
C 	C 	0.87470 0.65280 0.73980 -0.08500
C 	C 	0.97990 0.68030 0.77480 0.02400
C 	C 	0.04180 0.59450 0.80420 -0.06400
C 	C 	0.16000 0.61360 0.84250 0.36700
C 	C 	0.79700 0.74270 0.70550 0.41100
C 	C 	0.67850 0.61590 0.51020 0.20900
C 	C 	0.79980 0.56340 0.53280 0.25900
C 	C 	0.67410 0.56480 0.23850 0.09800
C 	C 	0.63730 0.65250 0.13680 -0.02800
C 	C 	0.74270 0.71450 0.14490 -0.01300
C 	C 	0.80710 0.69900 0.20460 -0.03700
C 	C 	0.91450 0.77410 0.22240 0.39200
C 	C 	0.55440 0.67280 0.07600 0.32600
C 	C 	0.10170 0.52810 0.26900 0.09400
C 	C 	0.12530 0.34720 0.23980 -0.08600
C 	C 	0.02010 0.31970 0.27480 0.02700
C 	C 	0.95820 0.40550 0.30420 -0.06600
C 	C 	0.84000 0.38640 0.34250 0.36700
C 	C 	0.20300 0.25730 0.20550 0.41100
C 	C 	0.32150 0.38410 0.01020 0.20900
C 	C 	0.20020 0.43660 0.03280 0.25700
N 	N 	0.27420 0.87520 0.75100 -0.20700
N 	N 	0.10170 0.92200 0.68370 -0.22400
N 	N 	0.49950 0.99050 0.80410 -0.22300
N 	N 	0.66600 0.04730 0.73600 -0.21100
N 	N 	0.72580 0.12480 0.25100 -0.20700
N 	N 	0.89830 0.07800 0.18370 -0.22400
N 	N 	0.50050 0.00950 0.30410 -0.22400
N 	N 	0.33400 0.95270 0.23600 -0.21100
N 	N 	0.22580 0.37520 0.75100 -0.20700
N 	N 	0.39830 0.42200 0.68370 -0.22200
N 	N 	0.00050 0.49050 0.80410 -0.22200
N 	N 	0.83400 0.54730 0.73600 -0.20800
N 	N 	0.77420 0.62480 0.25100 -0.20700
N 	N 	0.60170 0.57800 0.18370 -0.22200
N 	N 	0.99950 0.50950 0.30410 -0.22200
N 	N 	0.16600 0.45270 0.23600 -0.20800
O 	O 	0.45570 0.73620 0.78160 -0.53700
O 	O 	0.44940 0.65980 0.67740 -0.46600
O 	O 	0.95950 0.88880 0.57360 -0.43000
O 	O 	0.08600 0.75830 0.53530 -0.30200
O 	O 	0.29120 0.03370 0.87330 -0.49600
O 	O 	0.29590 0.21030 0.83620 -0.46400
O 	O 	0.79910 0.21180 0.67710 -0.47600
O 	O 	0.66590 0.33910 0.70890 -0.53000
O 	O 	0.82570 0.15150 0.44910 -0.40500
O 	O 	0.90740 0.11770 0.55220 -0.38200
O 	O 	0.61080 0.07780 0.49530 -0.44000
O 	O 	0.70490 0.00930 0.58780 -0.41500
O 	O 	0.54430 0.26380 0.28160 -0.53700
O 	O 	0.55060 0.34020 0.17740 -0.46600
O 	O 	0.04050 0.11120 0.07360 -0.43100
O 	O 	0.91400 0.24170 0.03530 -0.30200
O 	O 	0.70880 0.96630 0.37330 -0.49500
O 	O 	0.70410 0.78970 0.33620 -0.46400
O 	O 	0.20090 0.78820 0.17710 -0.47700
O 	O 	0.33410 0.66090 0.20890 -0.53000
O 	O 	0.17430 0.84850 0.94910 -0.40200
O 	O 	0.09260 0.88230 0.05220 -0.38200
O 	O 	0.38920 0.92220 0.99530 -0.43800
O 	O 	0.29510 0.99070 0.08780 -0.41500
O 	O 	0.04430 0.23620 0.78160 -0.53500
O 	O 	0.05060 0.15980 0.67740 -0.46200
O 	O 	0.54050 0.38880 0.57360 -0.43800
O 	O 	0.41400 0.25830 0.53530 -0.30200
O 	O 	0.20880 0.53370 0.87330 -0.49800
O 	O 	0.20410 0.71030 0.83620 -0.46500
O 	O 	0.70090 0.71180 0.67710 -0.47500
O 	O 	0.83410 0.83910 0.70890 -0.52700
O 	O 	0.67430 0.65150 0.44910 -0.40400
O 	O 	0.59260 0.61770 0.55220 -0.37800
O 	O 	0.88920 0.57780 0.49530 -0.44000
O 	O 	0.79510 0.50930 0.58780 -0.41400
O 	O 	0.95570 0.76380 0.28160 -0.53500
O 	O 	0.94940 0.84020 0.17740 -0.46200
O 	O 	0.45950 0.61120 0.07360 -0.43900
O 	O 	0.58600 0.74170 0.03530 -0.30300
O 	O 	0.79120 0.46630 0.37330 -0.49800
O 	O 	0.79590 0.28970 0.33620 -0.46600
O 	O 	0.29910 0.28820 0.17710 -0.47500
O 	O 	0.16590 0.16090 0.20890 -0.52700
O 	O 	0.32570 0.34850 0.94910 -0.40400
O 	O 	0.40740 0.38230 0.05220 -0.37900
O 	O 	0.11080 0.42220 0.99530 -0.43900
O 	O 	0.20490 0.49070 0.08780 -0.41400
