data_crystal

_cell_length_a 10.96200
_cell_length_b 11.86800
_cell_length_c 19.30700
_cell_angle_alpha 90.00000
_cell_angle_beta  90.00000
_cell_angle_gamma 90.00000

_symmetry_space_group_name_	'P 1'
_symmetry_space_group_name_H-M	'P 1'

loop_
_symmetry_equiv_pos_as_xyz
  x,y,z

loop_
_atom_site_label
_atom_site_type_symbol
_atom_site_fract_x
_atom_site_fract_y
_atom_site_fract_z
_atom_site_charge
Sm	Sm	0.36276 0.65766 0.60119 1.85300
Sm	Sm	0.88120 0.47292 0.81564 2.00500
Sm	Sm	0.63724 0.34234 0.10119 1.78800
Sm	Sm	0.11880 0.52708 0.31564 1.99300
Sm	Sm	0.13724 0.15766 0.60119 1.85100
Sm	Sm	0.61880 0.97292 0.81564 2.00100
Sm	Sm	0.86276 0.84234 0.10119 1.79000
Sm	Sm	0.38120 0.02708 0.31564 1.99500
H 	H 	0.14800 0.50470 0.70710 -0.05300
H 	H 	0.27090 0.75260 0.86980 0.07000
H 	H 	0.62770 0.60160 0.71510 -0.03100
H 	H 	0.49510 0.24200 0.70150 0.02300
H 	H 	0.85200 0.49530 0.20710 -0.05300
H 	H 	0.72910 0.24740 0.36980 0.06400
H 	H 	0.37230 0.39840 0.21510 -0.03200
H 	H 	0.50490 0.75800 0.20150 0.02100
H 	H 	0.35200 0.00470 0.70710 -0.05200
H 	H 	0.22910 0.25260 0.86980 0.07000
H 	H 	0.87230 0.10160 0.71510 -0.03300
H 	H 	0.00490 0.74200 0.70150 0.02400
H 	H 	0.64800 0.99530 0.20710 -0.05300
H 	H 	0.77090 0.74740 0.36980 0.06400
H 	H 	0.12770 0.89840 0.21510 -0.03300
H 	H 	0.99510 0.25800 0.20150 0.02700
C 	C 	0.16980 0.55920 0.73940 0.15100
C 	C 	0.13560 0.64410 0.84250 -0.01600
C 	C 	0.24310 0.70490 0.83500 -0.02800
C 	C 	0.30640 0.69200 0.77480 -0.03100
C 	C 	0.41300 0.76870 0.75650 0.40700
C 	C 	0.05170 0.66280 0.90430 0.34200
C 	C 	0.60070 0.52750 0.71230 0.12900
C 	C 	0.62650 0.34290 0.74000 -0.08900
C 	C 	0.52210 0.31610 0.70470 0.02100
C 	C 	0.45870 0.40280 0.67420 -0.06600
C 	C 	0.33900 0.38350 0.63610 0.40900
C 	C 	0.70360 0.25310 0.77540 0.44600
C 	C 	0.82210 0.38020 0.97100 0.32300
C 	C 	0.70050 0.43250 0.94690 0.25700
C 	C 	0.83020 0.44080 0.23940 0.15000
C 	C 	0.86440 0.35590 0.34250 -0.02100
C 	C 	0.75690 0.29510 0.33500 -0.02600
C 	C 	0.69360 0.30800 0.27480 -0.03300
C 	C 	0.58700 0.23130 0.25650 0.40700
C 	C 	0.94830 0.33720 0.40430 0.34500
C 	C 	0.39930 0.47250 0.21230 0.12400
C 	C 	0.37350 0.65710 0.24000 -0.09200
C 	C 	0.47790 0.68390 0.20470 0.01900
C 	C 	0.54130 0.59720 0.17420 -0.06900
C 	C 	0.66100 0.61650 0.13610 0.40400
C 	C 	0.29640 0.74690 0.27540 0.44500
C 	C 	0.17790 0.61980 0.47100 0.24600
C 	C 	0.29950 0.56750 0.44690 0.27400
C 	C 	0.33020 0.05920 0.73940 0.15100
C 	C 	0.36440 0.14410 0.84250 -0.01600
C 	C 	0.25690 0.20490 0.83500 -0.02900
C 	C 	0.19360 0.19200 0.77480 -0.03100
C 	C 	0.08700 0.26870 0.75650 0.40700
C 	C 	0.44830 0.16280 0.90430 0.34100
C 	C 	0.89930 0.02750 0.71230 0.13500
C 	C 	0.87350 0.84290 0.74000 -0.08800
C 	C 	0.97790 0.81610 0.70470 0.01700
C 	C 	0.04130 0.90280 0.67420 -0.06300
C 	C 	0.16100 0.88350 0.63610 0.40900
C 	C 	0.79640 0.75310 0.77540 0.44600
C 	C 	0.67790 0.88020 0.97100 0.32100
C 	C 	0.79950 0.93250 0.94690 0.25700
C 	C 	0.66980 0.94080 0.23940 0.15000
C 	C 	0.63560 0.85590 0.34250 -0.02100
C 	C 	0.74310 0.79510 0.33500 -0.02600
C 	C 	0.80640 0.80800 0.27480 -0.03300
C 	C 	0.91300 0.73130 0.25650 0.40700
C 	C 	0.55170 0.83720 0.40430 0.34300
C 	C 	0.10070 0.97250 0.21230 0.12800
C 	C 	0.12650 0.15710 0.24000 -0.08800
C 	C 	0.02210 0.18390 0.20470 0.00700
C 	C 	0.95870 0.09720 0.17420 -0.06200
C 	C 	0.83900 0.11650 0.13610 0.40100
C 	C 	0.20360 0.24690 0.27540 0.44400
C 	C 	0.32210 0.11980 0.47100 0.24600
C 	C 	0.20050 0.06750 0.44690 0.27400
N 	N 	0.27040 0.61890 0.72620 -0.20300
N 	N 	0.09840 0.57040 0.79400 -0.22200
N 	N 	0.49890 0.50910 0.67570 -0.20800
N 	N 	0.66700 0.45040 0.74520 -0.20100
N 	N 	0.72960 0.38110 0.22620 -0.19900
N 	N 	0.90160 0.42960 0.29400 -0.22100
N 	N 	0.50110 0.49090 0.17570 -0.20800
N 	N 	0.33300 0.54960 0.24520 -0.20100
N 	N 	0.22960 0.11890 0.72620 -0.20300
N 	N 	0.40160 0.07040 0.79400 -0.22200
N 	N 	0.00110 0.00910 0.67570 -0.21000
N 	N 	0.83300 0.95040 0.74520 -0.20300
N 	N 	0.77040 0.88110 0.22620 -0.19900
N 	N 	0.59840 0.92960 0.29400 -0.22100
N 	N 	0.99890 0.99090 0.17570 -0.21000
N 	N 	0.16700 0.04960 0.24520 -0.20400
O 	O 	0.45450 0.76010 0.69620 -0.51000
O 	O 	0.44980 0.83430 0.80310 -0.44500
O 	O 	0.95580 0.60450 0.90560 -0.42200
O 	O 	0.08450 0.73320 0.94650 -0.27900
O 	O 	0.29400 0.46560 0.60330 -0.48000
O 	O 	0.29190 0.28850 0.64360 -0.45800
O 	O 	0.79980 0.28390 0.80430 -0.47600
O 	O 	0.66600 0.15390 0.77200 -0.52400
O 	O 	0.82530 0.34650 0.03230 -0.45100
O 	O 	0.90860 0.37680 0.92710 -0.38100
O 	O 	0.60950 0.41860 0.98460 -0.37600
O 	O 	0.70420 0.48680 0.89010 -0.39500
O 	O 	0.54550 0.23990 0.19620 -0.50900
O 	O 	0.55020 0.16570 0.30310 -0.44700
O 	O 	0.04420 0.39550 0.40560 -0.43200
O 	O 	0.91550 0.26680 0.44650 -0.29700
O 	O 	0.70600 0.53440 0.10330 -0.48700
O 	O 	0.70810 0.71150 0.14360 -0.45500
O 	O 	0.20020 0.71610 0.30430 -0.47800
O 	O 	0.33400 0.84610 0.27200 -0.52600
O 	O 	0.17470 0.65350 0.53230 -0.39200
O 	O 	0.09140 0.62320 0.42710 -0.37300
O 	O 	0.39050 0.58140 0.48460 -0.41600
O 	O 	0.29580 0.51320 0.39010 -0.40300
O 	O 	0.04550 0.26010 0.69620 -0.51000
O 	O 	0.05020 0.33430 0.80310 -0.44500
O 	O 	0.54420 0.10450 0.90560 -0.41900
O 	O 	0.41550 0.23320 0.94650 -0.27900
O 	O 	0.20600 0.96560 0.60330 -0.47900
O 	O 	0.20810 0.78850 0.64360 -0.45800
O 	O 	0.70020 0.78390 0.80430 -0.47600
O 	O 	0.83400 0.65390 0.77200 -0.52500
O 	O 	0.67470 0.84650 0.03230 -0.44900
O 	O 	0.59140 0.87680 0.92710 -0.38100
O 	O 	0.89050 0.91860 0.98460 -0.37900
O 	O 	0.79580 0.98680 0.89010 -0.39600
O 	O 	0.95450 0.73990 0.19620 -0.50800
O 	O 	0.94980 0.66570 0.30310 -0.44700
O 	O 	0.45580 0.89550 0.40560 -0.43000
O 	O 	0.58450 0.76680 0.44650 -0.29800
O 	O 	0.79400 0.03440 0.10330 -0.48600
O 	O 	0.79190 0.21150 0.14360 -0.45400
O 	O 	0.29980 0.21610 0.30430 -0.47700
O 	O 	0.16600 0.34610 0.27200 -0.52600
O 	O 	0.32530 0.15350 0.53230 -0.39100
O 	O 	0.40860 0.12320 0.42710 -0.37300
O 	O 	0.10950 0.08140 0.48460 -0.41700
O 	O 	0.20420 0.01320 0.39010 -0.40400
