data_crystal

_cell_length_a 10.94300
_cell_length_b 11.82800
_cell_length_c 19.26100
_cell_angle_alpha 90.00000
_cell_angle_beta  90.00000
_cell_angle_gamma 90.00000

_symmetry_space_group_name_	'P 1'
_symmetry_space_group_name_H-M	'P 1'

loop_
_symmetry_equiv_pos_as_xyz
  x,y,z

loop_
_atom_site_label
_atom_site_type_symbol
_atom_site_fract_x
_atom_site_fract_y
_atom_site_fract_z
_atom_site_charge
Eu	Eu	0.86245 0.84249 0.10301 1.70500
Eu	Eu	0.38106 0.02847 0.31746 1.90800
Eu	Eu	0.13755 0.15751 0.60301 1.76000
Eu	Eu	0.61894 0.97153 0.81746 1.91300
Eu	Eu	0.63755 0.34249 0.10301 1.70200
Eu	Eu	0.11894 0.52847 0.31746 1.90600
Eu	Eu	0.36245 0.65751 0.60301 1.76100
Eu	Eu	0.88106 0.47153 0.81746 1.91600
H 	H 	0.64560 0.99450 0.20770 -0.05000
H 	H 	0.77050 0.75010 0.37250 0.06600
H 	H 	0.12960 0.89850 0.21670 -0.02700
H 	H 	0.99360 0.25890 0.20290 0.03500
H 	H 	0.35440 0.00550 0.70770 -0.04900
H 	H 	0.22950 0.24990 0.87250 0.07200
H 	H 	0.87040 0.10150 0.71670 -0.02600
H 	H 	0.00640 0.74110 0.70290 0.03300
H 	H 	0.85440 0.49450 0.20770 -0.05000
H 	H 	0.72950 0.25010 0.37250 0.06600
H 	H 	0.37040 0.39850 0.21670 -0.02600
H 	H 	0.50640 0.75890 0.20290 0.03000
H 	H 	0.14560 0.50550 0.70770 -0.05000
H 	H 	0.27050 0.74990 0.87250 0.07100
H 	H 	0.62960 0.60150 0.71670 -0.02500
H 	H 	0.49360 0.24110 0.70290 0.03100
C 	C 	0.66870 0.94160 0.24090 0.15200
C 	C 	0.63560 0.85790 0.34400 -0.01400
C 	C 	0.74270 0.79690 0.33710 -0.02800
C 	C 	0.80580 0.80780 0.27680 -0.03500
C 	C 	0.91350 0.73270 0.25880 0.40900
C 	C 	0.55150 0.84000 0.40620 0.32900
C 	C 	0.10170 0.97260 0.21410 0.12300
C 	C 	0.12660 0.15620 0.24220 -0.06700
C 	C 	0.02080 0.18460 0.20630 -0.01000
C 	C 	0.95950 0.09730 0.17630 -0.05000
C 	C 	0.83970 0.11600 0.13760 0.39500
C 	C 	0.20380 0.24920 0.27740 0.42600
C 	C 	0.32280 0.12050 0.47310 0.24800
C 	C 	0.20110 0.06820 0.44860 0.27600
C 	C 	0.33130 0.05840 0.74090 0.15400
C 	C 	0.36440 0.14210 0.84400 -0.00900
C 	C 	0.25730 0.20310 0.83710 -0.03000
C 	C 	0.19420 0.19220 0.77680 -0.03400
C 	C 	0.08650 0.26730 0.75880 0.40900
C 	C 	0.44850 0.16000 0.90620 0.32800
C 	C 	0.89830 0.02740 0.71410 0.12900
C 	C 	0.87340 0.84380 0.74220 -0.06700
C 	C 	0.97920 0.81540 0.70630 -0.00000
C 	C 	0.04050 0.90270 0.67630 -0.05200
C 	C 	0.16030 0.88400 0.63760 0.40100
C 	C 	0.79620 0.75080 0.77740 0.42900
C 	C 	0.67720 0.87950 0.97310 0.31900
C 	C 	0.79890 0.93180 0.94860 0.25900
C 	C 	0.83130 0.44160 0.24090 0.15200
C 	C 	0.86440 0.35790 0.34400 -0.01400
C 	C 	0.75730 0.29690 0.33710 -0.02700
C 	C 	0.69420 0.30780 0.27680 -0.03600
C 	C 	0.58650 0.23270 0.25880 0.40900
C 	C 	0.94850 0.34000 0.40620 0.33100
C 	C 	0.39830 0.47260 0.21410 0.12000
C 	C 	0.37340 0.65620 0.24220 -0.07000
C 	C 	0.47920 0.68460 0.20630 0.00200
C 	C 	0.54050 0.59730 0.17630 -0.05700
C 	C 	0.66030 0.61600 0.13760 0.39700
C 	C 	0.29620 0.74920 0.27740 0.42800
C 	C 	0.17720 0.62050 0.47310 0.24800
C 	C 	0.29890 0.56820 0.44860 0.27600
C 	C 	0.16870 0.55840 0.74090 0.15400
C 	C 	0.13560 0.64210 0.84400 -0.01000
C 	C 	0.24270 0.70310 0.83710 -0.03000
C 	C 	0.30580 0.69220 0.77680 -0.03400
C 	C 	0.41350 0.76730 0.75880 0.40900
C 	C 	0.05150 0.66000 0.90620 0.32800
C 	C 	0.60170 0.52740 0.71410 0.12400
C 	C 	0.62660 0.34380 0.74220 -0.06700
C 	C 	0.52080 0.31540 0.70630 0.00300
C 	C 	0.45950 0.40270 0.67630 -0.05400
C 	C 	0.33970 0.38400 0.63760 0.40200
C 	C 	0.70380 0.25080 0.77740 0.42900
C 	C 	0.82280 0.37950 0.97310 0.32100
C 	C 	0.70110 0.43180 0.94860 0.25900
N 	N 	0.76990 0.88390 0.22830 -0.19400
N 	N 	0.59740 0.93160 0.29570 -0.21800
N 	N 	0.99890 0.99070 0.17730 -0.20400
N 	N 	0.16750 0.05110 0.24730 -0.19900
N 	N 	0.23010 0.11610 0.72830 -0.19700
N 	N 	0.40260 0.06840 0.79570 -0.21800
N 	N 	0.00110 0.00930 0.67730 -0.20500
N 	N 	0.83250 0.94890 0.74730 -0.19900
N 	N 	0.73010 0.38390 0.22830 -0.19300
N 	N 	0.90260 0.43160 0.29570 -0.21700
N 	N 	0.50110 0.49070 0.17730 -0.20300
N 	N 	0.33250 0.55110 0.24730 -0.19700
N 	N 	0.26990 0.61610 0.72830 -0.19700
N 	N 	0.09740 0.56840 0.79570 -0.21800
N 	N 	0.49890 0.50930 0.67730 -0.20300
N 	N 	0.66750 0.44890 0.74730 -0.19700
O 	O 	0.95440 0.74050 0.19840 -0.49500
O 	O 	0.95080 0.66670 0.30500 -0.43800
O 	O 	0.45390 0.89650 0.40700 -0.41400
O 	O 	0.58540 0.76920 0.44940 -0.28600
O 	O 	0.79500 0.03530 0.10430 -0.47300
O 	O 	0.79250 0.21170 0.14580 -0.43800
O 	O 	0.30050 0.21740 0.30650 -0.45900
O 	O 	0.16650 0.34860 0.27360 -0.51100
O 	O 	0.40820 0.12410 0.42900 -0.36300
O 	O 	0.32660 0.15330 0.53470 -0.37900
O 	O 	0.20470 0.01460 0.39190 -0.39400
O 	O 	0.10980 0.08180 0.48640 -0.40400
O 	O 	0.04560 0.25950 0.69840 -0.49600
O 	O 	0.04920 0.33330 0.80500 -0.43700
O 	O 	0.54610 0.10350 0.90700 -0.40500
O 	O 	0.41460 0.23080 0.94940 -0.26800
O 	O 	0.20500 0.96470 0.60430 -0.46600
O 	O 	0.20750 0.78830 0.64580 -0.44100
O 	O 	0.69950 0.78260 0.80650 -0.45800
O 	O 	0.83350 0.65140 0.77360 -0.51000
O 	O 	0.59180 0.87590 0.92900 -0.37200
O 	O 	0.67340 0.84670 0.03470 -0.43400
O 	O 	0.79530 0.98540 0.89190 -0.38700
O 	O 	0.89020 0.91820 0.98640 -0.36900
O 	O 	0.54560 0.24050 0.19840 -0.49500
O 	O 	0.54920 0.16670 0.30500 -0.43900
O 	O 	0.04610 0.39650 0.40700 -0.41600
O 	O 	0.91460 0.26920 0.44940 -0.28500
O 	O 	0.70500 0.53530 0.10430 -0.47400
O 	O 	0.70750 0.71170 0.14580 -0.43900
O 	O 	0.19950 0.71740 0.30650 -0.45900
O 	O 	0.33350 0.84860 0.27360 -0.51000
O 	O 	0.09180 0.62410 0.42900 -0.36300
O 	O 	0.17340 0.65330 0.53470 -0.37900
O 	O 	0.29530 0.51460 0.39190 -0.39400
O 	O 	0.39020 0.58180 0.48640 -0.40400
O 	O 	0.45440 0.75950 0.69840 -0.49500
O 	O 	0.45080 0.83330 0.80500 -0.43600
O 	O 	0.95390 0.60350 0.90700 -0.40700
O 	O 	0.08540 0.73080 0.94940 -0.26900
O 	O 	0.29500 0.46470 0.60430 -0.46700
O 	O 	0.29250 0.28830 0.64580 -0.44100
O 	O 	0.80050 0.28260 0.80650 -0.45800
O 	O 	0.66650 0.15140 0.77360 -0.50900
O 	O 	0.90820 0.37590 0.92900 -0.37200
O 	O 	0.82660 0.34670 0.03470 -0.43500
O 	O 	0.70470 0.48540 0.89190 -0.38600
O 	O 	0.60980 0.41820 0.98640 -0.36700
