data_crystal

_cell_length_a 14.78430
_cell_length_b 15.95390
_cell_length_c 15.95390
_cell_angle_alpha 120.00000
_cell_angle_beta  90.00000
_cell_angle_gamma 90.00000

_symmetry_space_group_name_	'P 1'
_symmetry_space_group_name_H-M	'P 1'

loop_
_symmetry_equiv_pos_as_xyz
  x,y,z

loop_
_atom_site_label
_atom_site_type_symbol
_atom_site_fract_x
_atom_site_fract_y
_atom_site_fract_z
_atom_site_charge
Zn	Zn	0.98510 0.38554 0.63348 1.19300
Zn	Zn	0.65177 0.24794 0.61446 1.20200
Zn	Zn	0.48510 0.61446 0.36652 1.20200
Zn	Zn	0.15177 0.75206 0.38554 1.20300
Zn	Zn	0.31843 0.36652 0.75206 1.20200
Zn	Zn	0.81843 0.63348 0.24794 1.20200
H 	H 	0.51280 0.71430 0.07010 0.60400
H 	H 	0.12997 0.70190 0.17190 0.05900
H 	H 	0.33267 0.55720 0.10970 0.10700
H 	H 	0.06440 0.20270 0.47360 0.02400
H 	H 	0.90660 0.24280 0.78580 0.28400
H 	H 	0.99933 0.55250 0.44280 0.07000
H 	H 	0.94880 0.00280 0.38490 0.06500
H 	H 	0.62997 0.29810 0.82810 0.05400
H 	H 	0.12587 0.54170 0.32810 0.29700
H 	H 	0.23167 0.61200 0.24400 0.14000
H 	H 	0.84613 0.92990 0.64420 0.58600
H 	H 	0.76377 0.67560 0.89720 0.56100
H 	H 	0.43043 0.22160 0.32440 0.57200
H 	H 	0.77533 0.61930 0.47730 -0.03600
H 	H 	0.10867 0.52270 0.14200 -0.03400
H 	H 	0.73107 0.27090 0.79730 0.04500
H 	H 	0.78213 0.38490 0.38210 0.09400
H 	H 	0.34613 0.07010 0.35580 0.61400
H 	H 	0.28367 0.35830 0.26880 0.63000
H 	H 	0.45033 0.08950 0.35830 0.62300
H 	H 	0.59710 0.89720 0.22160 0.56300
H 	H 	0.27533 0.38070 0.52270 -0.04000
H 	H 	0.79663 0.47000 0.29810 0.04700
H 	H 	0.79253 0.78640 0.45830 0.27800
H 	H 	0.40303 0.09160 0.44730 0.64300
H 	H 	0.76187 0.51810 0.76320 -0.39700
H 	H 	0.07327 0.45700 0.24280 0.29800
H 	H 	0.61700 0.73120 0.08950 0.61300
H 	H 	0.89833 0.63200 0.38800 0.13400
H 	H 	0.73167 0.38800 0.75600 0.14000
H 	H 	0.09710 0.10280 0.77840 0.53100
H 	H 	0.70890 0.04310 0.49540 -0.02900
H 	H 	0.60867 0.47730 0.85800 -0.03800
H 	H 	0.16600 0.10970 0.55250 0.09300
H 	H 	0.29663 0.53000 0.70190 0.05700
H 	H 	0.39833 0.36800 0.61200 0.14000
H 	H 	0.90303 0.90840 0.55270 0.61000
H 	H 	0.65807 0.67990 0.89280 0.53300
H 	H 	0.66197 0.49230 0.14690 -0.01300
H 	H 	0.78367 0.64170 0.73120 0.61200
H 	H 	0.26377 0.32440 0.10280 0.57900
H 	H 	0.62587 0.45830 0.67190 0.28500
H 	H 	0.73993 0.78580 0.54300 0.27600
H 	H 	0.49140 0.89280 0.21290 0.53400
H 	H 	0.17947 0.35580 0.28570 0.62400
H 	H 	0.83267 0.44280 0.89030 0.10500
H 	H 	0.11700 0.26880 0.91050 0.61700
H 	H 	0.20890 0.95690 0.50460 -0.02100
H 	H 	0.28213 0.61510 0.61790 0.10700
H 	H 	0.32473 0.21290 0.32010 0.54300
H 	H 	0.54223 0.49540 0.45230 -0.02900
H 	H 	0.49933 0.44750 0.55720 0.10700
H 	H 	0.09520 0.23680 0.75490 -0.39300
H 	H 	0.06500 0.24400 0.63200 0.14300
H 	H 	0.99140 0.10720 0.78710 0.47000
H 	H 	0.23637 0.44730 0.35570 0.65000
H 	H 	0.04223 0.50460 0.54770 0.03200
H 	H 	0.44200 0.85800 0.38070 -0.03900
H 	H 	0.29253 0.21360 0.54170 0.29000
H 	H 	0.70417 0.60660 0.91780 0.57500
H 	H 	0.40660 0.75720 0.21420 0.28200
H 	H 	0.45920 0.67190 0.21360 0.28600
H 	H 	0.37083 0.31120 0.39340 0.58400
H 	H 	0.66600 0.89030 0.44750 0.10600
H 	H 	0.73637 0.55270 0.64430 0.63300
H 	H 	0.67947 0.64420 0.71430 0.60300
H 	H 	0.06970 0.35570 0.90840 0.64300
H 	H 	0.99530 0.85310 0.34540 -0.04600
H 	H 	0.82473 0.78710 0.67990 0.52000
H 	H 	0.59520 0.76320 0.24510 -0.39800
H 	H 	0.23107 0.72910 0.20270 0.04600
H 	H 	0.61547 0.38210 0.99720 0.10500
H 	H 	0.96330 0.17190 0.47000 0.00500
H 	H 	0.11547 0.61790 0.00280 0.10700
H 	H 	0.95033 0.91050 0.64170 0.58800
H 	H 	0.42853 0.24510 0.48190 -0.40400
H 	H 	0.39773 0.52640 0.72910 0.04600
H 	H 	0.53750 0.91780 0.31120 0.57500
H 	H 	0.37557 0.45230 0.95690 -0.02900
H 	H 	0.26187 0.48190 0.23680 -0.41000
H 	H 	0.15807 0.32010 0.10720 0.55200
H 	H 	0.94200 0.14200 0.61930 -0.04400
H 	H 	0.82863 0.34540 0.49230 -0.00600
H 	H 	0.44880 0.99720 0.61510 0.09800
H 	H 	0.03750 0.08220 0.68880 0.54900
H 	H 	0.56970 0.64430 0.09160 0.63400
H 	H 	0.92853 0.75490 0.51810 -0.39300
H 	H 	0.56500 0.75600 0.36800 0.14000
H 	H 	0.16197 0.50770 0.85310 -0.00400
H 	H 	0.87083 0.68880 0.60660 0.56100
H 	H 	0.23993 0.21420 0.45700 0.28800
H 	H 	0.89773 0.47360 0.27090 0.03200
H 	H 	0.32863 0.65460 0.50770 -0.01300
H 	H 	0.87557 0.54770 0.04310 -0.03400
H 	H 	0.57327 0.54300 0.75720 0.28200
H 	H 	0.20417 0.39340 0.08220 0.59100
H 	H 	0.56440 0.79730 0.52640 0.04400
H 	H 	0.95920 0.32810 0.78640 0.28200
H 	H 	0.93043 0.77840 0.67560 0.54400
H 	H 	0.46330 0.82810 0.53000 0.05300
H 	H 	0.49530 0.14690 0.65460 -0.01000
H 	H 	0.01280 0.28570 0.92990 0.61900
C 	C 	0.66917 0.41550 0.00460 -0.23500
C 	C 	0.16917 0.58450 0.99540 -0.22300
C 	C 	0.15520 0.96650 0.48030 0.08600
C 	C 	0.10947 0.56290 0.21270 0.17800
C 	C 	0.68553 0.63190 0.38300 0.25300
C 	C 	0.69777 0.48120 0.09440 0.10100
C 	C 	0.60947 0.43710 0.78730 0.17900
C 	C 	0.37813 0.21070 0.43830 1.42900
C 	C 	0.79707 0.45070 0.94180 -0.24800
C 	C 	0.63040 0.94180 0.49110 -0.24400
C 	C 	0.62467 0.50000 0.74170 -0.93500
C 	C 	0.13040 0.05820 0.50890 -0.20600
C 	C 	0.19777 0.51880 0.90560 0.09700
C 	C 	0.96373 0.50890 0.45070 -0.17900
C 	C 	0.89593 0.89360 0.60370 -2.01000
C 	C 	0.70917 0.63810 0.88010 -1.86600
C 	C 	0.01887 0.61700 0.24890 0.29000
C 	C 	0.29133 0.24170 0.50000 -0.95100
C 	C 	0.71147 0.56170 0.77240 1.40400
C 	C 	0.77613 0.64980 0.43710 0.17200
C 	C 	0.33583 0.58910 0.58450 -0.23600
C 	C 	0.35483 0.50010 0.67600 -0.16900
C 	C 	0.50250 0.00460 0.58910 -0.22000
C 	C 	0.00250 0.99540 0.41090 -0.16900
C 	C 	0.54480 0.77240 0.21070 1.40700
C 	C 	0.51887 0.38300 0.75110 0.25000
C 	C 	0.86443 0.38680 0.48120 0.08000
C 	C 	0.29707 0.54930 0.05820 -0.24500
C 	C 	0.94280 0.21270 0.64980 0.16200
C 	C 	0.21147 0.43830 0.22760 1.44600
C 	C 	0.38463 0.52740 0.60250 0.15300
C 	C 	0.88463 0.47260 0.39750 0.11100
C 	C 	0.45800 0.74170 0.24170 -0.93800
C 	C 	0.02150 0.17590 0.49990 -0.07100
C 	C 	0.37583 0.24200 0.36190 -1.89600
C 	C 	0.71797 0.39750 0.92490 0.15200
C 	C 	0.72927 0.60370 0.71010 -2.06500
C 	C 	0.65520 0.03350 0.51970 0.10900
C 	C 	0.36443 0.61320 0.51880 0.10200
C 	C 	0.22927 0.39630 0.28990 -2.12000
C 	C 	0.03110 0.90560 0.38680 0.13000
C 	C 	0.87583 0.75800 0.63810 -1.82500
C 	C 	0.53110 0.09440 0.61320 0.09400
C 	C 	0.21797 0.60250 0.07510 0.14800
C 	C 	0.54250 0.88010 0.24200 -1.87000
C 	C 	0.20917 0.36190 0.11990 -1.91700
C 	C 	0.12467 0.50000 0.25830 -0.95900
C 	C 	0.85220 0.24890 0.63190 0.25200
C 	C 	0.18553 0.36810 0.61700 0.24600
C 	C 	0.52150 0.82410 0.50010 -0.16300
C 	C 	0.32187 0.48620 0.96650 0.10900
C 	C 	0.05130 0.07510 0.47260 0.11000
C 	C 	0.87813 0.78930 0.56170 1.36800
C 	C 	0.98853 0.48030 0.51380 0.00500
C 	C 	0.95800 0.25830 0.75830 -0.95900
C 	C 	0.35220 0.75110 0.36810 0.25000
C 	C 	0.18817 0.67600 0.17590 -0.16700
C 	C 	0.04480 0.22760 0.78930 1.40400
C 	C 	0.06260 0.28990 0.89360 -2.07200
C 	C 	0.56260 0.71010 0.10640 -2.06900
C 	C 	0.83583 0.41090 0.41550 -0.20500
C 	C 	0.04250 0.11990 0.75800 -1.73600
C 	C 	0.48853 0.51970 0.48620 0.10700
C 	C 	0.82187 0.51380 0.03350 0.10800
C 	C 	0.39593 0.10640 0.39630 -2.09700
C 	C 	0.44280 0.78730 0.35020 0.18000
C 	C 	0.55130 0.92490 0.52740 0.14400
C 	C 	0.79133 0.75830 0.50000 -0.91500
C 	C 	0.46373 0.49110 0.54930 -0.24500
C 	C 	0.68817 0.32400 0.82410 -0.16700
C 	C 	0.85483 0.49990 0.32400 -0.14400
C 	C 	0.27613 0.35020 0.56290 0.18600
Br	Br	0.47936 0.47523 0.20879 -0.52600
Br	Br	0.31269 0.20879 0.73356 -0.52300
Br	Br	0.14603 0.73356 0.52477 -0.50800
Br	Br	0.64603 0.26644 0.47523 -0.52700
Br	Br	0.97936 0.52477 0.79121 -0.55200
Br	Br	0.81269 0.79121 0.26644 -0.53300
N 	N 	0.01340 0.24290 0.60530 -0.28900
N 	N 	0.60750 0.11160 0.58070 -0.27900
N 	N 	0.18007 0.63760 0.24290 -0.29700
N 	N 	0.51340 0.75710 0.39470 -0.29800
N 	N 	0.10750 0.88840 0.41930 -0.27800
N 	N 	0.44083 0.58070 0.46910 -0.28100
N 	N 	0.94083 0.41930 0.53090 -0.26500
N 	N 	0.84673 0.60530 0.36240 -0.29900
N 	N 	0.34673 0.39470 0.63760 -0.29800
N 	N 	0.27417 0.46910 0.88840 -0.27900
N 	N 	0.68007 0.36240 0.75710 -0.29700
N 	N 	0.77417 0.53090 0.11160 -0.28100
O 	O 	0.44997 0.42280 0.80180 -0.41700
O 	O 	0.61663 0.62100 0.42280 -0.41800
O 	O 	0.28330 0.80180 0.37900 -0.41700
O 	O 	0.85250 0.32880 0.63610 -0.42700
O 	O 	0.11663 0.37900 0.57720 -0.40400
O 	O 	0.51917 0.30730 0.67120 -0.42300
O 	O 	0.68583 0.63610 0.30730 -0.42400
O 	O 	0.94997 0.57720 0.19820 -0.45100
O 	O 	0.78330 0.19820 0.62100 -0.41800
O 	O 	0.01917 0.69270 0.32880 -0.41600
O 	O 	0.35250 0.67120 0.36390 -0.42300
O 	O 	0.18583 0.36390 0.69270 -0.41800
