data_crystal

_cell_length_a 8.67700
_cell_length_b 13.04200
_cell_length_c 28.20100
_cell_angle_alpha 90.00000
_cell_angle_beta  90.00000
_cell_angle_gamma 90.00000

_symmetry_space_group_name_	'P 1'
_symmetry_space_group_name_H-M	'P 1'

loop_
_symmetry_equiv_pos_as_xyz
  x,y,z

loop_
_atom_site_label
_atom_site_type_symbol
_atom_site_fract_x
_atom_site_fract_y
_atom_site_fract_z
_atom_site_charge
Cu	Cu	0.94926 0.95344 0.46123 0.91600
Cu	Cu	0.94926 0.54656 0.03877 0.91800
Cu	Cu	0.55074 0.04656 0.96123 0.91900
Cu	Cu	0.55074 0.45344 0.53877 0.91800
Cu	Cu	0.05074 0.04656 0.53877 0.91500
Cu	Cu	0.05074 0.45344 0.96123 0.91700
Cu	Cu	0.44926 0.95344 0.03877 0.91900
Cu	Cu	0.44926 0.54656 0.46123 0.91800
H 	H 	0.12160 0.73300 0.59030 0.20900
H 	H 	0.21680 0.70940 0.54450 0.22300
H 	H 	0.91380 0.64240 0.56180 -0.08100
H 	H 	0.99420 0.62790 0.51240 -0.05900
H 	H 	0.01640 0.47550 0.55740 0.22700
H 	H 	0.09990 0.53580 0.59810 0.20900
H 	H 	0.78490 0.75300 0.42830 -0.00300
H 	H 	0.61840 0.69250 0.37190 0.13100
H 	H 	0.64810 0.96430 0.30680 0.11100
H 	H 	0.81380 0.01620 0.36480 -0.00700
H 	H 	0.44750 0.72820 0.30370 0.14800
H 	H 	0.44260 0.84010 0.28320 0.14300
H 	H 	0.67150 0.69390 0.25980 -0.03500
H 	H 	0.12160 0.76700 0.90970 0.20800
H 	H 	0.21680 0.79060 0.95550 0.22200
H 	H 	0.91380 0.85760 0.93820 -0.08100
H 	H 	0.99420 0.87210 0.98760 -0.06000
H 	H 	0.01640 0.02450 0.94260 0.22000
H 	H 	0.09990 0.96420 0.90190 0.20700
H 	H 	0.78490 0.74700 0.07170 -0.00300
H 	H 	0.61840 0.80750 0.12810 0.13100
H 	H 	0.64810 0.53570 0.19320 0.11300
H 	H 	0.81380 0.48380 0.13520 -0.01200
H 	H 	0.44750 0.77180 0.19630 0.14900
H 	H 	0.44260 0.65990 0.21680 0.14300
H 	H 	0.67150 0.80610 0.24020 -0.03500
H 	H 	0.37840 0.26700 0.09030 0.21000
H 	H 	0.28320 0.29060 0.04450 0.22300
H 	H 	0.58620 0.35760 0.06180 -0.08200
H 	H 	0.50580 0.37210 0.01240 -0.06000
H 	H 	0.48360 0.52450 0.05740 0.22900
H 	H 	0.40010 0.46420 0.09810 0.21100
H 	H 	0.71510 0.24700 0.92830 0.00100
H 	H 	0.88160 0.30750 0.87190 0.12600
H 	H 	0.85190 0.03570 0.80680 0.11000
H 	H 	0.68620 0.98380 0.86480 -0.01200
H 	H 	0.05250 0.27180 0.80370 0.11900
H 	H 	0.05740 0.15990 0.78320 0.11300
H 	H 	0.82850 0.30610 0.75980 -0.01500
H 	H 	0.37840 0.23300 0.40970 0.20900
H 	H 	0.28320 0.20940 0.45550 0.22200
H 	H 	0.58620 0.14240 0.43820 -0.08000
H 	H 	0.50580 0.12790 0.48760 -0.05800
H 	H 	0.48360 0.97550 0.44260 0.22800
H 	H 	0.40010 0.03580 0.40190 0.20900
H 	H 	0.71510 0.25300 0.57170 0.00100
H 	H 	0.88160 0.19250 0.62810 0.12600
H 	H 	0.85190 0.46430 0.69320 0.10700
H 	H 	0.68620 0.51620 0.63520 -0.00800
H 	H 	0.05250 0.22820 0.69630 0.12000
H 	H 	0.05740 0.34010 0.71680 0.11600
H 	H 	0.82850 0.19390 0.74020 -0.01500
H 	H 	0.87840 0.26700 0.40970 0.20900
H 	H 	0.78320 0.29060 0.45550 0.22300
H 	H 	0.08620 0.35760 0.43820 -0.08100
H 	H 	0.00580 0.37210 0.48760 -0.05900
H 	H 	0.98360 0.52450 0.44260 0.22700
H 	H 	0.90010 0.46420 0.40190 0.20900
H 	H 	0.21510 0.24700 0.57170 -0.00300
H 	H 	0.38160 0.30750 0.62810 0.13100
H 	H 	0.35190 0.03570 0.69320 0.11100
H 	H 	0.18620 0.98380 0.63520 -0.00700
H 	H 	0.55250 0.27180 0.69630 0.14800
H 	H 	0.55740 0.15990 0.71680 0.14300
H 	H 	0.32850 0.30610 0.74020 -0.03500
H 	H 	0.87840 0.23300 0.09030 0.20800
H 	H 	0.78320 0.20940 0.04450 0.22200
H 	H 	0.08620 0.14240 0.06180 -0.08100
H 	H 	0.00580 0.12790 0.01240 -0.06000
H 	H 	0.98360 0.97550 0.05740 0.22000
H 	H 	0.90010 0.03580 0.09810 0.20700
H 	H 	0.21510 0.25300 0.92830 -0.00300
H 	H 	0.38160 0.19250 0.87190 0.13100
H 	H 	0.35190 0.46430 0.80680 0.11300
H 	H 	0.18620 0.51620 0.86480 -0.01200
H 	H 	0.55250 0.22820 0.80370 0.14900
H 	H 	0.55740 0.34010 0.78320 0.14300
H 	H 	0.32850 0.19390 0.75980 -0.03500
H 	H 	0.62160 0.73300 0.90970 0.21000
H 	H 	0.71680 0.70940 0.95550 0.22300
H 	H 	0.41380 0.64240 0.93820 -0.08200
H 	H 	0.49420 0.62790 0.98760 -0.06000
H 	H 	0.51640 0.47550 0.94260 0.22900
H 	H 	0.59990 0.53580 0.90190 0.21100
H 	H 	0.28490 0.75300 0.07170 0.00100
H 	H 	0.11840 0.69250 0.12810 0.12600
H 	H 	0.14810 0.96430 0.19320 0.11000
H 	H 	0.31380 0.01620 0.13520 -0.01200
H 	H 	0.94750 0.72820 0.19630 0.11900
H 	H 	0.94260 0.84010 0.21680 0.11300
H 	H 	0.17150 0.69390 0.24020 -0.01500
H 	H 	0.62160 0.76700 0.59030 0.20900
H 	H 	0.71680 0.79060 0.54450 0.22200
H 	H 	0.41380 0.85760 0.56180 -0.08000
H 	H 	0.49420 0.87210 0.51240 -0.05800
H 	H 	0.51640 0.02450 0.55740 0.22800
H 	H 	0.59990 0.96420 0.59810 0.20900
H 	H 	0.28490 0.74700 0.42830 0.00100
H 	H 	0.11840 0.80750 0.37190 0.12600
H 	H 	0.14810 0.53570 0.30680 0.10700
H 	H 	0.31380 0.48380 0.36480 -0.00800
H 	H 	0.94750 0.77180 0.30370 0.12000
H 	H 	0.94260 0.65990 0.28320 0.11600
H 	H 	0.17150 0.80610 0.25980 -0.01500
C 	C 	0.06200 0.82520 0.53484 0.50200
C 	C 	0.11410 0.72440 0.55622 -0.58500
C 	C 	0.01250 0.63280 0.54630 0.37200
C 	C 	0.08610 0.53190 0.56397 -0.58900
C 	C 	0.23940 0.51040 0.54100 0.50400
C 	C 	0.75750 0.79610 0.40340 0.13900
C 	C 	0.65670 0.75890 0.36956 -0.26600
C 	C 	0.61390 0.82090 0.33250 0.24000
C 	C 	0.67460 0.91960 0.33117 -0.26000
C 	C 	0.77420 0.95000 0.36630 0.12300
C 	C 	0.51070 0.78470 0.29266 -0.39900
C 	C 	0.06200 0.67480 0.96516 0.49900
C 	C 	0.11410 0.77560 0.94378 -0.58300
C 	C 	0.01250 0.86720 0.95370 0.37000
C 	C 	0.08610 0.96810 0.93603 -0.57800
C 	C 	0.23940 0.98960 0.95900 0.50100
C 	C 	0.75750 0.70390 0.09660 0.14100
C 	C 	0.65670 0.74110 0.13044 -0.26800
C 	C 	0.61390 0.67910 0.16750 0.24300
C 	C 	0.67460 0.58040 0.16883 -0.26500
C 	C 	0.77420 0.55000 0.13370 0.13100
C 	C 	0.51070 0.71530 0.20734 -0.40000
C 	C 	0.43800 0.17480 0.03484 0.50200
C 	C 	0.38590 0.27560 0.05622 -0.58700
C 	C 	0.48750 0.36720 0.04630 0.37400
C 	C 	0.41390 0.46810 0.06397 -0.59200
C 	C 	0.26060 0.48960 0.04100 0.50500
C 	C 	0.74250 0.20390 0.90340 0.13100
C 	C 	0.84330 0.24110 0.86956 -0.24700
C 	C 	0.88610 0.17910 0.83250 0.21300
C 	C 	0.82540 0.08040 0.83117 -0.24800
C 	C 	0.72580 0.05000 0.86630 0.12700
C 	C 	0.98930 0.21530 0.79266 -0.31800
C 	C 	0.43800 0.32520 0.46516 0.50200
C 	C 	0.38590 0.22440 0.44378 -0.58500
C 	C 	0.48750 0.13280 0.45370 0.37100
C 	C 	0.41390 0.03190 0.43603 -0.58800
C 	C 	0.26060 0.01040 0.45900 0.49900
C 	C 	0.74250 0.29610 0.59660 0.13000
C 	C 	0.84330 0.25890 0.63044 -0.24600
C 	C 	0.88610 0.32090 0.66750 0.21200
C 	C 	0.82540 0.41960 0.66883 -0.24500
C 	C 	0.72580 0.45000 0.63370 0.12100
C 	C 	0.98930 0.28470 0.70734 -0.32100
C 	C 	0.93800 0.17480 0.46516 0.50200
C 	C 	0.88590 0.27560 0.44378 -0.58500
C 	C 	0.98750 0.36720 0.45370 0.37200
C 	C 	0.91390 0.46810 0.43603 -0.58900
C 	C 	0.76060 0.48960 0.45900 0.50400
C 	C 	0.24250 0.20390 0.59660 0.13900
C 	C 	0.34330 0.24110 0.63044 -0.26600
C 	C 	0.38610 0.17910 0.66750 0.24000
C 	C 	0.32540 0.08040 0.66883 -0.26000
C 	C 	0.22580 0.05000 0.63370 0.12300
C 	C 	0.48930 0.21530 0.70734 -0.39900
C 	C 	0.93800 0.32520 0.03484 0.49900
C 	C 	0.88590 0.22440 0.05622 -0.58300
C 	C 	0.98750 0.13280 0.04630 0.37000
C 	C 	0.91390 0.03190 0.06397 -0.57800
C 	C 	0.76060 0.01040 0.04100 0.50100
C 	C 	0.24250 0.29610 0.90340 0.14100
C 	C 	0.34330 0.25890 0.86956 -0.26800
C 	C 	0.38610 0.32090 0.83250 0.24300
C 	C 	0.32540 0.41960 0.83117 -0.26500
C 	C 	0.22580 0.45000 0.86630 0.13100
C 	C 	0.48930 0.28470 0.79266 -0.40000
C 	C 	0.56200 0.82520 0.96516 0.50200
C 	C 	0.61410 0.72440 0.94378 -0.58700
C 	C 	0.51250 0.63280 0.95370 0.37400
C 	C 	0.58610 0.53190 0.93603 -0.59200
C 	C 	0.73940 0.51040 0.95900 0.50500
C 	C 	0.25750 0.79610 0.09660 0.13100
C 	C 	0.15670 0.75890 0.13044 -0.24700
C 	C 	0.11390 0.82090 0.16750 0.21300
C 	C 	0.17460 0.91960 0.16883 -0.24800
C 	C 	0.27420 0.95000 0.13370 0.12700
C 	C 	0.01070 0.78470 0.20734 -0.31800
C 	C 	0.56200 0.67480 0.53484 0.50200
C 	C 	0.61410 0.77560 0.55622 -0.58500
C 	C 	0.51250 0.86720 0.54630 0.37100
C 	C 	0.58610 0.96810 0.56397 -0.58800
C 	C 	0.73940 0.98960 0.54100 0.49900
C 	C 	0.25750 0.70390 0.40340 0.13000
C 	C 	0.15670 0.74110 0.36956 -0.24600
C 	C 	0.11390 0.67910 0.33250 0.21200
C 	C 	0.17460 0.58040 0.33117 -0.24500
C 	C 	0.27420 0.55000 0.36630 0.12100
C 	C 	0.01070 0.71530 0.29266 -0.32100
C 	C 	0.60550 0.75000 0.25000 0.18600
C 	C 	0.89450 0.25000 0.75000 0.11900
C 	C 	0.39450 0.25000 0.75000 0.18600
C 	C 	0.10550 0.75000 0.25000 0.11900
N 	N 	0.81780 0.89030 0.40253 -0.21500
N 	N 	0.81780 0.60970 0.09747 -0.21600
N 	N 	0.68220 0.10970 0.90253 -0.21200
N 	N 	0.68220 0.39030 0.59747 -0.21200
N 	N 	0.18220 0.10970 0.59747 -0.21500
N 	N 	0.18220 0.39030 0.90253 -0.21600
N 	N 	0.31780 0.89030 0.09747 -0.21200
N 	N 	0.31780 0.60970 0.40253 -0.21200
O 	O 	0.00580 0.82469 0.49426 -0.44200
O 	O 	0.08490 0.90401 0.55974 -0.45000
O 	O 	0.25770 0.54032 0.49924 -0.45200
O 	O 	0.33990 0.46400 0.56487 -0.44800
O 	O 	0.00580 0.67531 0.00574 -0.44000
O 	O 	0.08490 0.59599 0.94026 -0.45100
O 	O 	0.25770 0.95968 0.00076 -0.44900
O 	O 	0.33990 0.03600 0.93513 -0.44900
O 	O 	0.49420 0.17531 0.99426 -0.44500
O 	O 	0.41510 0.09599 0.05974 -0.45200
O 	O 	0.24230 0.45968 0.99924 -0.45400
O 	O 	0.16010 0.53600 0.06487 -0.44700
O 	O 	0.49420 0.32469 0.50574 -0.44500
O 	O 	0.41510 0.40401 0.44026 -0.45100
O 	O 	0.24230 0.04032 0.50076 -0.45200
O 	O 	0.16010 0.96400 0.43513 -0.44300
O 	O 	0.99420 0.17531 0.50574 -0.44200
O 	O 	0.91510 0.09599 0.44026 -0.45000
O 	O 	0.74230 0.45968 0.50076 -0.45200
O 	O 	0.66010 0.53600 0.43513 -0.44800
O 	O 	0.99420 0.32469 0.99426 -0.44000
O 	O 	0.91510 0.40401 0.05974 -0.45100
O 	O 	0.74230 0.04032 0.99924 -0.44900
O 	O 	0.66010 0.96400 0.06487 -0.44900
O 	O 	0.50580 0.82469 0.00574 -0.44500
O 	O 	0.58490 0.90401 0.94026 -0.45200
O 	O 	0.75770 0.54032 0.00076 -0.45400
O 	O 	0.83990 0.46400 0.93513 -0.44700
O 	O 	0.50580 0.67531 0.49426 -0.44500
O 	O 	0.58490 0.59599 0.55974 -0.45100
O 	O 	0.75770 0.95968 0.49924 -0.45200
O 	O 	0.83990 0.03600 0.56487 -0.44300
