data_crystal

_cell_length_a 10.39500
_cell_length_b 10.77900
_cell_length_c 21.44500
_cell_angle_alpha 90.00000
_cell_angle_beta  90.00000
_cell_angle_gamma 112.06000

_symmetry_space_group_name_	'P 1'
_symmetry_space_group_name_H-M	'P 1'

loop_
_symmetry_equiv_pos_as_xyz
  x,y,z

loop_
_atom_site_label
_atom_site_type_symbol
_atom_site_fract_x
_atom_site_fract_y
_atom_site_fract_z
_atom_site_charge
La	La	0.76694 0.75943 0.52780 1.53800
La	La	0.73306 0.24057 0.02780 1.53800
La	La	0.23306 0.24057 0.47220 1.53800
La	La	0.26694 0.75943 0.97220 1.53800
H 	H 	0.22890 0.80490 0.67350 0.28400
H 	H 	0.78250 0.17840 0.84080 0.04100
H 	H 	0.28700 0.48660 0.63400 0.02600
H 	H 	0.66740 0.07200 0.66350 0.06700
H 	H 	0.39980 0.90880 0.80400 0.05700
H 	H 	0.01160 0.29990 0.80150 0.03500
H 	H 	0.21420 0.49590 0.81790 0.04000
H 	H 	0.59020 0.71490 0.74870 0.06500
H 	H 	0.27110 0.19510 0.17350 0.28200
H 	H 	0.71750 0.82160 0.34080 0.03900
H 	H 	0.21300 0.51340 0.13400 0.02600
H 	H 	0.83260 0.92800 0.16350 0.06700
H 	H 	0.10020 0.09120 0.30400 0.05700
H 	H 	0.48840 0.70010 0.30150 0.03700
H 	H 	0.28580 0.50410 0.31790 0.04000
H 	H 	0.90980 0.28510 0.24870 0.06500
H 	H 	0.77110 0.19510 0.32650 0.28300
H 	H 	0.21750 0.82160 0.15920 0.04000
H 	H 	0.71300 0.51340 0.36600 0.02600
H 	H 	0.33260 0.92800 0.33650 0.06700
H 	H 	0.60020 0.09120 0.19600 0.05700
H 	H 	0.98840 0.70010 0.19850 0.03500
H 	H 	0.78580 0.50410 0.18210 0.04000
H 	H 	0.40980 0.28510 0.25130 0.06500
H 	H 	0.72890 0.80490 0.82650 0.28200
H 	H 	0.28250 0.17840 0.65920 0.03900
H 	H 	0.78700 0.48660 0.86600 0.02600
H 	H 	0.16740 0.07200 0.83650 0.06700
H 	H 	0.89980 0.90880 0.69600 0.05700
H 	H 	0.51160 0.29990 0.69850 0.03700
H 	H 	0.71420 0.49590 0.68210 0.04000
H 	H 	0.09020 0.71490 0.75130 0.06500
C 	C 	0.55290 0.66130 0.62945 0.31200
C 	C 	0.74550 0.14130 0.74900 0.07300
C 	C 	0.71640 0.12770 0.81220 -0.03200
C 	C 	0.55990 0.02140 0.90246 0.41400
C 	C 	0.58840 0.03840 0.83311 -0.10000
C 	C 	0.51760 0.98030 0.72691 -0.06900
C 	C 	0.08800 0.38340 0.71593 0.06100
C 	C 	0.22910 0.47640 0.72493 -0.01500
C 	C 	0.31770 0.51860 0.67378 -0.00200
C 	C 	0.41120 0.90580 0.67891 0.37000
C 	C 	0.64680 0.06550 0.70586 -0.04700
C 	C 	0.45880 0.66190 0.85908 0.35300
C 	C 	0.48680 0.96590 0.79034 0.03000
C 	C 	0.99630 0.30530 0.75902 -0.01000
C 	C 	0.45290 0.60930 0.68313 -0.07700
C 	C 	0.27470 0.52360 0.78427 0.00100
C 	C 	0.49930 0.65520 0.74288 0.01800
C 	C 	0.41140 0.61280 0.79378 -0.08100
C 	C 	0.94710 0.33870 0.12945 0.31200
C 	C 	0.75450 0.85870 0.24900 0.07300
C 	C 	0.78360 0.87230 0.31220 -0.03200
C 	C 	0.94010 0.97860 0.40246 0.41300
C 	C 	0.91160 0.96160 0.33311 -0.10100
C 	C 	0.98240 0.01970 0.22691 -0.06800
C 	C 	0.41200 0.61660 0.21593 0.06400
C 	C 	0.27090 0.52360 0.22493 -0.01600
C 	C 	0.18230 0.48140 0.17378 -0.00200
C 	C 	0.08880 0.09420 0.17891 0.36900
C 	C 	0.85320 0.93450 0.20586 -0.04900
C 	C 	0.04120 0.33810 0.35908 0.35400
C 	C 	0.01320 0.03410 0.29034 0.03000
C 	C 	0.50370 0.69470 0.25902 -0.01400
C 	C 	0.04710 0.39070 0.18313 -0.07600
C 	C 	0.22530 0.47640 0.28427 0.00100
C 	C 	0.00070 0.34480 0.24288 0.01900
C 	C 	0.08860 0.38720 0.29378 -0.08100
C 	C 	0.44710 0.33870 0.37055 0.31200
C 	C 	0.25450 0.85870 0.25100 0.07300
C 	C 	0.28360 0.87230 0.18780 -0.03200
C 	C 	0.44010 0.97860 0.09754 0.41400
C 	C 	0.41160 0.96160 0.16689 -0.10000
C 	C 	0.48240 0.01970 0.27309 -0.06900
C 	C 	0.91200 0.61660 0.28407 0.06100
C 	C 	0.77090 0.52360 0.27507 -0.01500
C 	C 	0.68230 0.48140 0.32622 -0.00200
C 	C 	0.58880 0.09420 0.32109 0.37000
C 	C 	0.35320 0.93450 0.29414 -0.04700
C 	C 	0.54120 0.33810 0.14092 0.35300
C 	C 	0.51320 0.03410 0.20966 0.03000
C 	C 	0.00370 0.69470 0.24098 -0.01000
C 	C 	0.54710 0.39070 0.31687 -0.07700
C 	C 	0.72530 0.47640 0.21573 0.00100
C 	C 	0.50070 0.34480 0.25712 0.01800
C 	C 	0.58860 0.38720 0.20622 -0.08100
C 	C 	0.05290 0.66130 0.87055 0.31200
C 	C 	0.24550 0.14130 0.75100 0.07300
C 	C 	0.21640 0.12770 0.68780 -0.03200
C 	C 	0.05990 0.02140 0.59754 0.41300
C 	C 	0.08840 0.03840 0.66689 -0.10100
C 	C 	0.01760 0.98030 0.77309 -0.06800
C 	C 	0.58800 0.38340 0.78407 0.06400
C 	C 	0.72910 0.47640 0.77507 -0.01600
C 	C 	0.81770 0.51860 0.82622 -0.00200
C 	C 	0.91120 0.90580 0.82109 0.36900
C 	C 	0.14680 0.06550 0.79414 -0.04900
C 	C 	0.95880 0.66190 0.64092 0.35400
C 	C 	0.98680 0.96590 0.70966 0.03000
C 	C 	0.49630 0.30530 0.74098 -0.01400
C 	C 	0.95290 0.60930 0.81687 -0.07600
C 	C 	0.77470 0.52360 0.71573 0.00100
C 	C 	0.99930 0.65520 0.75712 0.01900
C 	C 	0.91140 0.61280 0.70622 -0.08100
N 	N 	0.87780 0.23710 0.72669 -0.08700
N 	N 	0.89790 0.27500 0.66625 -0.05400
N 	N 	0.02580 0.36250 0.65950 -0.09500
N 	N 	0.62220 0.76290 0.22669 -0.08600
N 	N 	0.60210 0.72500 0.16625 -0.05400
N 	N 	0.47420 0.63750 0.15950 -0.09500
N 	N 	0.12220 0.76290 0.27331 -0.08700
N 	N 	0.10210 0.72500 0.33375 -0.05400
N 	N 	0.97420 0.63750 0.34050 -0.09500
N 	N 	0.37780 0.23710 0.77331 -0.08600
N 	N 	0.39790 0.27500 0.83375 -0.05400
N 	N 	0.52580 0.36250 0.84050 -0.09500
O 	O 	0.58510 0.72350 0.86989 -0.30000
O 	O 	0.52390 0.60100 0.57676 -0.40300
O 	O 	0.29000 0.83860 0.70297 -0.44100
O 	O 	0.65750 0.08450 0.93828 -0.46300
O 	O 	0.66230 0.75970 0.63792 -0.35700
O 	O 	0.43770 0.90950 0.62362 -0.29200
O 	O 	0.36560 0.63520 0.90033 -0.41000
O 	O 	0.44160 0.94640 0.91962 -0.44700
O 	O 	0.91490 0.27650 0.36989 -0.30000
O 	O 	0.97610 0.39900 0.07676 -0.40300
O 	O 	0.21000 0.16140 0.20297 -0.44100
O 	O 	0.84250 0.91550 0.43828 -0.46400
O 	O 	0.83770 0.24030 0.13792 -0.35700
O 	O 	0.06230 0.09050 0.12362 -0.29200
O 	O 	0.13440 0.36480 0.40033 -0.41000
O 	O 	0.05840 0.05360 0.41962 -0.44700
O 	O 	0.41490 0.27650 0.13011 -0.30000
O 	O 	0.47610 0.39900 0.42324 -0.40300
O 	O 	0.71000 0.16140 0.29703 -0.44100
O 	O 	0.34250 0.91550 0.06172 -0.46300
O 	O 	0.33770 0.24030 0.36208 -0.35700
O 	O 	0.56230 0.09050 0.37638 -0.29200
O 	O 	0.63440 0.36480 0.09967 -0.41000
O 	O 	0.55840 0.05360 0.08038 -0.44700
O 	O 	0.08510 0.72350 0.63011 -0.30000
O 	O 	0.02390 0.60100 0.92324 -0.40300
O 	O 	0.79000 0.83860 0.79703 -0.44100
O 	O 	0.15750 0.08450 0.56172 -0.46400
O 	O 	0.16230 0.75970 0.86208 -0.35700
O 	O 	0.93770 0.90950 0.87638 -0.29200
O 	O 	0.86560 0.63520 0.59967 -0.41000
O 	O 	0.94160 0.94640 0.58038 -0.44700
