data_crystal

_cell_length_a 9.74940
_cell_length_b 11.04840
_cell_length_c 20.48450
_cell_angle_alpha 90.00000
_cell_angle_beta  90.00000
_cell_angle_gamma 108.89800

_symmetry_space_group_name_	'P 1'
_symmetry_space_group_name_H-M	'P 1'

loop_
_symmetry_equiv_pos_as_xyz
  x,y,z

loop_
_atom_site_label
_atom_site_type_symbol
_atom_site_fract_x
_atom_site_fract_y
_atom_site_fract_z
_atom_site_charge
Er	Er	0.30016 0.31522 0.96534 1.54100
Er	Er	0.19984 0.68478 0.46534 1.54000
Er	Er	0.69984 0.68478 0.03466 1.54000
Er	Er	0.80016 0.31522 0.53466 1.53900
H 	H 	0.75040 0.66280 0.34310 0.29300
H 	H 	0.19280 0.29360 0.17080 0.02500
H 	H 	0.99290 0.13090 0.20770 0.04500
H 	H 	0.32030 0.36680 0.35810 0.03800
H 	H 	0.77140 0.98230 0.18580 0.07500
H 	H 	0.58040 0.55120 0.21190 0.04400
H 	H 	0.38940 0.74390 0.24890 0.07900
H 	H 	0.68540 0.94790 0.37770 0.08000
H 	H 	0.74960 0.33720 0.84310 0.29300
H 	H 	0.30720 0.70640 0.67080 0.02500
H 	H 	0.50710 0.86910 0.70770 0.04500
H 	H 	0.17970 0.63320 0.85810 0.03800
H 	H 	0.72860 0.01770 0.68580 0.07400
H 	H 	0.91960 0.44880 0.71190 0.04400
H 	H 	0.11060 0.25610 0.74890 0.07800
H 	H 	0.81460 0.05210 0.87770 0.07900
H 	H 	0.24960 0.33720 0.65690 0.29300
H 	H 	0.80720 0.70640 0.82920 0.02500
H 	H 	0.00710 0.86910 0.79230 0.04500
H 	H 	0.67970 0.63320 0.64190 0.03800
H 	H 	0.22860 0.01770 0.81420 0.07500
H 	H 	0.41960 0.44880 0.78810 0.04400
H 	H 	0.61060 0.25610 0.75110 0.07900
H 	H 	0.31460 0.05210 0.62230 0.08000
H 	H 	0.25040 0.66280 0.15690 0.29300
H 	H 	0.69280 0.29360 0.32920 0.02500
H 	H 	0.49290 0.13090 0.29230 0.04500
H 	H 	0.82030 0.36680 0.14190 0.03800
H 	H 	0.27140 0.98230 0.31420 0.07400
H 	H 	0.08040 0.55120 0.28810 0.04400
H 	H 	0.88940 0.74390 0.25110 0.07800
H 	H 	0.18540 0.94790 0.12230 0.07900
C 	C 	0.74800 0.98270 0.28330 0.09700
C 	C 	0.52310 0.83560 0.32160 -0.02300
C 	C 	0.57400 0.85600 0.20650 -0.04300
C 	C 	0.26080 0.33870 0.20140 0.04600
C 	C 	0.99280 0.14250 0.25270 -0.02300
C 	C 	0.33740 0.38270 0.31380 0.02700
C 	C 	0.42060 0.77320 0.37550 0.29700
C 	C 	0.23370 0.31680 0.26800 -0.04100
C 	C 	0.70820 0.94630 0.21980 -0.07200
C 	C 	0.41980 0.45130 0.10910 0.48000
C 	C 	0.53550 0.81300 0.13680 0.35700
C 	C 	0.46620 0.47240 0.29270 -0.12000
C 	C 	0.39020 0.42830 0.18090 -0.15100
C 	C 	0.49300 0.49330 0.22600 0.08200
C 	C 	0.57410 0.54220 0.34160 0.39700
C 	C 	0.09810 0.22510 0.28900 0.07700
C 	C 	0.48050 0.80220 0.25760 -0.02400
C 	C 	0.65690 0.92580 0.33490 -0.08200
C 	C 	0.75200 0.01730 0.78330 0.09500
C 	C 	0.97690 0.16440 0.82160 -0.02500
C 	C 	0.92600 0.14400 0.70650 -0.04400
C 	C 	0.23920 0.66130 0.70140 0.04500
C 	C 	0.50720 0.85750 0.75270 -0.02100
C 	C 	0.16260 0.61730 0.81380 0.02700
C 	C 	0.07940 0.22680 0.87550 0.29800
C 	C 	0.26630 0.68320 0.76800 -0.04000
C 	C 	0.79180 0.05370 0.71980 -0.07100
C 	C 	0.08020 0.54870 0.60910 0.48000
C 	C 	0.96450 0.18700 0.63680 0.35700
C 	C 	0.03380 0.52760 0.79270 -0.12000
C 	C 	0.10980 0.57170 0.68090 -0.15100
C 	C 	0.00700 0.50670 0.72600 0.08100
C 	C 	0.92590 0.45780 0.84160 0.39700
C 	C 	0.40190 0.77490 0.78900 0.07500
C 	C 	0.01950 0.19780 0.75760 -0.02200
C 	C 	0.84310 0.07420 0.83490 -0.08100
C 	C 	0.25200 0.01730 0.71670 0.09700
C 	C 	0.47690 0.16440 0.67840 -0.02300
C 	C 	0.42600 0.14400 0.79350 -0.04300
C 	C 	0.73920 0.66130 0.79860 0.04600
C 	C 	0.00720 0.85750 0.74730 -0.02300
C 	C 	0.66260 0.61730 0.68620 0.02700
C 	C 	0.57940 0.22680 0.62450 0.29700
C 	C 	0.76630 0.68320 0.73200 -0.04100
C 	C 	0.29180 0.05370 0.78020 -0.07200
C 	C 	0.58020 0.54870 0.89090 0.48000
C 	C 	0.46450 0.18700 0.86320 0.35700
C 	C 	0.53380 0.52760 0.70730 -0.12000
C 	C 	0.60980 0.57170 0.81910 -0.15100
C 	C 	0.50700 0.50670 0.77400 0.08200
C 	C 	0.42590 0.45780 0.65840 0.39700
C 	C 	0.90190 0.77490 0.71100 0.07700
C 	C 	0.51950 0.19780 0.74240 -0.02400
C 	C 	0.34310 0.07420 0.66510 -0.08200
C 	C 	0.24800 0.98270 0.21670 0.09500
C 	C 	0.02310 0.83560 0.17840 -0.02500
C 	C 	0.07400 0.85600 0.29350 -0.04400
C 	C 	0.76080 0.33870 0.29860 0.04500
C 	C 	0.49280 0.14250 0.24730 -0.02100
C 	C 	0.83740 0.38270 0.18620 0.02700
C 	C 	0.92060 0.77320 0.12450 0.29800
C 	C 	0.73370 0.31680 0.23200 -0.04000
C 	C 	0.20820 0.94630 0.28020 -0.07100
C 	C 	0.91980 0.45130 0.39090 0.48000
C 	C 	0.03550 0.81300 0.36320 0.35700
C 	C 	0.96620 0.47240 0.20730 -0.12000
C 	C 	0.89020 0.42830 0.31910 -0.15100
C 	C 	0.99300 0.49330 0.27400 0.08100
C 	C 	0.07410 0.54220 0.15840 0.39700
C 	C 	0.59810 0.22510 0.21100 0.07500
C 	C 	0.98050 0.80220 0.24240 -0.02200
C 	C 	0.15690 0.92580 0.16510 -0.08100
N 	N 	0.92900 0.12560 0.35680 -0.05900
N 	N 	0.05650 0.21360 0.35320 -0.09200
N 	N 	0.88660 0.07970 0.29570 -0.08900
N 	N 	0.57100 0.87440 0.85680 -0.05900
N 	N 	0.44350 0.78640 0.85320 -0.09200
N 	N 	0.61340 0.92030 0.79570 -0.08800
N 	N 	0.07100 0.87440 0.64320 -0.05900
N 	N 	0.94350 0.78640 0.64680 -0.09200
N 	N 	0.11340 0.92030 0.70430 -0.08900
N 	N 	0.42900 0.12560 0.14320 -0.05900
N 	N 	0.55650 0.21360 0.14680 -0.09200
N 	N 	0.38660 0.07970 0.20430 -0.08800
O 	O 	0.32160 0.39360 0.07010 -0.50800
O 	O 	0.68950 0.62170 0.31420 -0.46000
O 	O 	0.40630 0.76170 0.12000 -0.30500
O 	O 	0.43880 0.82050 0.43230 -0.38600
O 	O 	0.31600 0.67410 0.36310 -0.36200
O 	O 	0.54100 0.52570 0.09170 -0.50600
O 	O 	0.64110 0.83220 0.09860 -0.43400
O 	O 	0.55960 0.53010 0.40000 -0.29700
O 	O 	0.17840 0.60640 0.57010 -0.50800
O 	O 	0.81050 0.37830 0.81420 -0.46000
O 	O 	0.09370 0.23830 0.62000 -0.30500
O 	O 	0.06120 0.17950 0.93230 -0.38700
O 	O 	0.18400 0.32590 0.86310 -0.36200
O 	O 	0.95900 0.47430 0.59170 -0.50600
O 	O 	0.85890 0.16780 0.59860 -0.43400
O 	O 	0.94040 0.46990 0.90000 -0.29700
O 	O 	0.67840 0.60640 0.92990 -0.50800
O 	O 	0.31050 0.37830 0.68580 -0.46000
O 	O 	0.59370 0.23830 0.88000 -0.30500
O 	O 	0.56120 0.17950 0.56770 -0.38600
O 	O 	0.68400 0.32590 0.63690 -0.36200
O 	O 	0.45900 0.47430 0.90830 -0.50600
O 	O 	0.35890 0.16780 0.90140 -0.43400
O 	O 	0.44040 0.46990 0.60000 -0.29700
O 	O 	0.82160 0.39360 0.42990 -0.50800
O 	O 	0.18950 0.62170 0.18580 -0.46000
O 	O 	0.90630 0.76170 0.38000 -0.30500
O 	O 	0.93880 0.82050 0.06770 -0.38700
O 	O 	0.81600 0.67410 0.13690 -0.36200
O 	O 	0.04100 0.52570 0.40830 -0.50600
O 	O 	0.14110 0.83220 0.40140 -0.43400
O 	O 	0.05960 0.53010 0.10000 -0.29700
