data_crystal

_cell_length_a 46.80600
_cell_length_b 46.80600
_cell_length_c 46.80600
_cell_angle_alpha 90.00000
_cell_angle_beta  90.00000
_cell_angle_gamma 90.00000

_symmetry_space_group_name_	'P 1'
_symmetry_space_group_name_H-M	'P 1'

loop_
_symmetry_equiv_pos_as_xyz
  x,y,z

loop_
_atom_site_label
_atom_site_type_symbol
_atom_site_fract_x
_atom_site_fract_y
_atom_site_fract_z
_atom_site_charge
C 	C 	0.30217 0.97813 0.78431 -0.08500
H 	H 	0.31510 0.96310 0.78520 0.05800
C 	C 	0.28008 0.97950 0.76294 -0.01600
H 	H 	0.27930 0.96480 0.74960 0.02700
C 	C 	0.30217 0.47813 0.28431 -0.08600
H 	H 	0.31510 0.46310 0.28520 0.05800
C 	C 	0.28008 0.47950 0.26294 -0.01700
H 	H 	0.27930 0.46480 0.24960 0.02700
C 	C 	0.80217 0.97813 0.28431 -0.08500
H 	H 	0.81510 0.96310 0.28520 0.05800
C 	C 	0.78008 0.97950 0.26294 -0.01600
H 	H 	0.77930 0.96480 0.24960 0.02800
C 	C 	0.80217 0.47813 0.78431 -0.08700
H 	H 	0.81510 0.46310 0.78520 0.05800
C 	C 	0.78008 0.47950 0.76294 -0.01700
H 	H 	0.77930 0.46480 0.74960 0.02800
C 	C 	0.69783 0.02187 0.78431 -0.08600
H 	H 	0.68490 0.03690 0.78520 0.05800
C 	C 	0.71992 0.02050 0.76294 -0.01600
H 	H 	0.72070 0.03520 0.74960 0.02800
C 	C 	0.69783 0.52187 0.28431 -0.08500
H 	H 	0.68490 0.53690 0.28520 0.05900
C 	C 	0.71992 0.52050 0.26294 -0.01600
H 	H 	0.72070 0.53520 0.24960 0.02800
C 	C 	0.19783 0.02187 0.28431 -0.08500
H 	H 	0.18490 0.03690 0.28520 0.05900
C 	C 	0.21992 0.02050 0.26294 -0.01600
H 	H 	0.22070 0.03520 0.24960 0.02800
C 	C 	0.19783 0.52187 0.78431 -0.08500
H 	H 	0.18490 0.53690 0.78520 0.05900
C 	C 	0.21992 0.52050 0.76294 -0.01600
H 	H 	0.22070 0.53520 0.74960 0.02800
C 	C 	0.69783 0.97813 0.21569 -0.08400
H 	H 	0.68490 0.96310 0.21480 0.05900
C 	C 	0.71992 0.97950 0.23706 -0.01500
H 	H 	0.72070 0.96480 0.25040 0.02800
C 	C 	0.69783 0.47813 0.71569 -0.08500
H 	H 	0.68490 0.46310 0.71480 0.05900
C 	C 	0.71992 0.47950 0.73706 -0.01600
H 	H 	0.72070 0.46480 0.75040 0.02900
C 	C 	0.19783 0.97813 0.71569 -0.08400
H 	H 	0.18490 0.96310 0.71480 0.05900
C 	C 	0.21992 0.97950 0.73706 -0.01500
H 	H 	0.22070 0.96480 0.75040 0.02900
C 	C 	0.19783 0.47813 0.21569 -0.08500
H 	H 	0.18490 0.46310 0.21480 0.05900
C 	C 	0.21992 0.47950 0.23706 -0.01600
H 	H 	0.22070 0.46480 0.25040 0.02800
C 	C 	0.30217 0.02187 0.21569 -0.08500
H 	H 	0.31510 0.03690 0.21480 0.05900
C 	C 	0.28008 0.02050 0.23706 -0.01600
H 	H 	0.27930 0.03520 0.25040 0.02800
C 	C 	0.30217 0.52187 0.71569 -0.08500
H 	H 	0.31510 0.53690 0.71480 0.05900
C 	C 	0.28008 0.52050 0.73706 -0.01600
H 	H 	0.27930 0.53520 0.75040 0.02900
C 	C 	0.80217 0.02187 0.71569 -0.08500
H 	H 	0.81510 0.03690 0.71480 0.05900
C 	C 	0.78008 0.02050 0.73706 -0.01600
H 	H 	0.77930 0.03520 0.75040 0.02900
C 	C 	0.80217 0.52187 0.21569 -0.08500
H 	H 	0.81510 0.53690 0.21480 0.05900
C 	C 	0.78008 0.52050 0.23706 -0.01600
H 	H 	0.77930 0.53520 0.25040 0.02900
C 	C 	0.78431 0.30217 0.97813 -0.08400
H 	H 	0.78520 0.31510 0.96310 0.05900
C 	C 	0.76294 0.28008 0.97950 -0.01500
H 	H 	0.74960 0.27930 0.96480 0.02800
C 	C 	0.78431 0.80217 0.47813 -0.08600
H 	H 	0.78520 0.81510 0.46310 0.05900
C 	C 	0.76294 0.78008 0.47950 -0.01600
H 	H 	0.74960 0.77930 0.46480 0.02900
C 	C 	0.28431 0.30217 0.47813 -0.08500
H 	H 	0.28520 0.31510 0.46310 0.05900
C 	C 	0.26294 0.28008 0.47950 -0.01600
H 	H 	0.24960 0.27930 0.46480 0.02800
C 	C 	0.28431 0.80217 0.97813 -0.08400
H 	H 	0.28520 0.81510 0.96310 0.05900
C 	C 	0.26294 0.78008 0.97950 -0.01500
H 	H 	0.24960 0.77930 0.96480 0.02900
C 	C 	0.78431 0.69783 0.02187 -0.08500
H 	H 	0.78520 0.68490 0.03690 0.05900
C 	C 	0.76294 0.71992 0.02050 -0.01600
H 	H 	0.74960 0.72070 0.03520 0.02800
C 	C 	0.78431 0.19783 0.52187 -0.08500
H 	H 	0.78520 0.18490 0.53690 0.05900
C 	C 	0.76294 0.21992 0.52050 -0.01600
H 	H 	0.74960 0.22070 0.53520 0.02800
C 	C 	0.28431 0.69783 0.52187 -0.08500
H 	H 	0.28520 0.68490 0.53690 0.05900
C 	C 	0.26294 0.71992 0.52050 -0.01600
H 	H 	0.24960 0.72070 0.53520 0.02800
C 	C 	0.28431 0.19783 0.02187 -0.08500
H 	H 	0.28520 0.18490 0.03690 0.05900
C 	C 	0.26294 0.21992 0.02050 -0.01600
H 	H 	0.24960 0.22070 0.03520 0.02800
C 	C 	0.21569 0.69783 0.97813 -0.08400
H 	H 	0.21480 0.68490 0.96310 0.05900
C 	C 	0.23706 0.71992 0.97950 -0.01500
H 	H 	0.25040 0.72070 0.96480 0.02800
C 	C 	0.21569 0.19783 0.47813 -0.08500
H 	H 	0.21480 0.18490 0.46310 0.05900
C 	C 	0.23706 0.21992 0.47950 -0.01600
H 	H 	0.25040 0.22070 0.46480 0.02800
C 	C 	0.71569 0.69783 0.47813 -0.08500
H 	H 	0.71480 0.68490 0.46310 0.05900
C 	C 	0.73706 0.71992 0.47950 -0.01600
H 	H 	0.75040 0.72070 0.46480 0.02900
C 	C 	0.71569 0.19783 0.97813 -0.08400
H 	H 	0.71480 0.18490 0.96310 0.05900
C 	C 	0.73706 0.21992 0.97950 -0.01500
H 	H 	0.75040 0.22070 0.96480 0.02900
C 	C 	0.21569 0.30217 0.02187 -0.08500
H 	H 	0.21480 0.31510 0.03690 0.05900
C 	C 	0.23706 0.28008 0.02050 -0.01600
H 	H 	0.25040 0.27930 0.03520 0.02800
C 	C 	0.21569 0.80217 0.52187 -0.08500
H 	H 	0.21480 0.81510 0.53690 0.05900
C 	C 	0.23706 0.78008 0.52050 -0.01600
H 	H 	0.25040 0.77930 0.53520 0.02900
C 	C 	0.71569 0.30217 0.52187 -0.08500
H 	H 	0.71480 0.31510 0.53690 0.05900
C 	C 	0.73706 0.28008 0.52050 -0.01600
H 	H 	0.75040 0.27930 0.53520 0.02900
C 	C 	0.71569 0.80217 0.02187 -0.08500
H 	H 	0.71480 0.81510 0.03690 0.05900
C 	C 	0.73706 0.78008 0.02050 -0.01600
H 	H 	0.75040 0.77930 0.03520 0.02900
C 	C 	0.97813 0.78431 0.30217 -0.08400
H 	H 	0.96310 0.78520 0.31510 0.05900
C 	C 	0.97950 0.76294 0.28008 -0.01500
H 	H 	0.96480 0.74960 0.27930 0.02800
C 	C 	0.97813 0.28431 0.80217 -0.08400
H 	H 	0.96310 0.28520 0.81510 0.05900
C 	C 	0.97950 0.26294 0.78008 -0.01500
H 	H 	0.96480 0.24960 0.77930 0.02900
C 	C 	0.47813 0.78431 0.80217 -0.08600
H 	H 	0.46310 0.78520 0.81510 0.05900
C 	C 	0.47950 0.76294 0.78008 -0.01600
H 	H 	0.46480 0.74960 0.77930 0.02900
C 	C 	0.47813 0.28431 0.30217 -0.08500
H 	H 	0.46310 0.28520 0.31510 0.05900
C 	C 	0.47950 0.26294 0.28008 -0.01600
H 	H 	0.46480 0.24960 0.27930 0.02800
C 	C 	0.02187 0.78431 0.69783 -0.08500
H 	H 	0.03690 0.78520 0.68490 0.05900
C 	C 	0.02050 0.76294 0.71992 -0.01600
H 	H 	0.03520 0.74960 0.72070 0.02800
C 	C 	0.02187 0.28431 0.19783 -0.08500
H 	H 	0.03690 0.28520 0.18490 0.05900
C 	C 	0.02050 0.26294 0.21992 -0.01600
H 	H 	0.03520 0.24960 0.22070 0.02800
C 	C 	0.52187 0.78431 0.19783 -0.08500
H 	H 	0.53690 0.78520 0.18490 0.05900
C 	C 	0.52050 0.76294 0.21992 -0.01600
H 	H 	0.53520 0.74960 0.22070 0.02800
C 	C 	0.52187 0.28431 0.69783 -0.08500
H 	H 	0.53690 0.28520 0.68490 0.05900
C 	C 	0.52050 0.26294 0.71992 -0.01600
H 	H 	0.53520 0.24960 0.72070 0.02800
C 	C 	0.97813 0.21569 0.69783 -0.08400
H 	H 	0.96310 0.21480 0.68490 0.05900
C 	C 	0.97950 0.23706 0.71992 -0.01500
H 	H 	0.96480 0.25040 0.72070 0.02800
C 	C 	0.97813 0.71569 0.19783 -0.08400
H 	H 	0.96310 0.71480 0.18490 0.05900
C 	C 	0.97950 0.73706 0.21992 -0.01500
H 	H 	0.96480 0.75040 0.22070 0.02900
C 	C 	0.47813 0.21569 0.19783 -0.08500
H 	H 	0.46310 0.21480 0.18490 0.05900
C 	C 	0.47950 0.23706 0.21992 -0.01600
H 	H 	0.46480 0.25040 0.22070 0.02800
C 	C 	0.47813 0.71569 0.69783 -0.08500
H 	H 	0.46310 0.71480 0.68490 0.05900
C 	C 	0.47950 0.73706 0.71992 -0.01600
H 	H 	0.46480 0.75040 0.72070 0.02900
C 	C 	0.02187 0.21569 0.30217 -0.08500
H 	H 	0.03690 0.21480 0.31510 0.05900
C 	C 	0.02050 0.23706 0.28008 -0.01600
H 	H 	0.03520 0.25040 0.27930 0.02800
C 	C 	0.02187 0.71569 0.80217 -0.08500
H 	H 	0.03690 0.71480 0.81510 0.05900
C 	C 	0.02050 0.73706 0.78008 -0.01600
H 	H 	0.03520 0.75040 0.77930 0.02900
C 	C 	0.52187 0.21569 0.80217 -0.08500
H 	H 	0.53690 0.21480 0.81510 0.05900
C 	C 	0.52050 0.23706 0.78008 -0.01600
H 	H 	0.53520 0.25040 0.77930 0.02900
C 	C 	0.52187 0.71569 0.30217 -0.08500
H 	H 	0.53690 0.71480 0.31510 0.05900
C 	C 	0.52050 0.73706 0.28008 -0.01600
H 	H 	0.53520 0.75040 0.27930 0.02900
C 	C 	0.97813 0.30217 0.21569 -0.08400
H 	H 	0.96310 0.31510 0.21480 0.05900
C 	C 	0.97950 0.28008 0.23706 -0.01500
H 	H 	0.96480 0.27930 0.25040 0.02800
C 	C 	0.97813 0.80217 0.71569 -0.08400
H 	H 	0.96310 0.81510 0.71480 0.05900
C 	C 	0.97950 0.78008 0.73706 -0.01500
H 	H 	0.96480 0.77930 0.75040 0.02900
C 	C 	0.47813 0.30217 0.71569 -0.08500
H 	H 	0.46310 0.31510 0.71480 0.05900
C 	C 	0.47950 0.28008 0.73706 -0.01600
H 	H 	0.46480 0.27930 0.75040 0.02900
C 	C 	0.47813 0.80217 0.21569 -0.08500
H 	H 	0.46310 0.81510 0.21480 0.05900
C 	C 	0.47950 0.78008 0.23706 -0.01600
H 	H 	0.46480 0.77930 0.25040 0.02900
C 	C 	0.02187 0.69783 0.21569 -0.08500
H 	H 	0.03690 0.68490 0.21480 0.05900
C 	C 	0.02050 0.71992 0.23706 -0.01600
H 	H 	0.03520 0.72070 0.25040 0.02800
C 	C 	0.02187 0.19783 0.71569 -0.08500
H 	H 	0.03690 0.18490 0.71480 0.05900
C 	C 	0.02050 0.21992 0.73706 -0.01600
H 	H 	0.03520 0.22070 0.75040 0.02800
C 	C 	0.52187 0.69783 0.71569 -0.08500
H 	H 	0.53690 0.68490 0.71480 0.05900
C 	C 	0.52050 0.71992 0.73706 -0.01600
H 	H 	0.53520 0.72070 0.75040 0.02900
C 	C 	0.52187 0.19783 0.21569 -0.08500
H 	H 	0.53690 0.18490 0.21480 0.05900
C 	C 	0.52050 0.21992 0.23706 -0.01600
H 	H 	0.53520 0.22070 0.25040 0.02800
C 	C 	0.97813 0.69783 0.78431 -0.08400
H 	H 	0.96310 0.68490 0.78520 0.05900
C 	C 	0.97950 0.71992 0.76294 -0.01500
H 	H 	0.96480 0.72070 0.74960 0.02900
C 	C 	0.97813 0.19783 0.28431 -0.08400
H 	H 	0.96310 0.18490 0.28520 0.05900
C 	C 	0.97950 0.21992 0.26294 -0.01500
H 	H 	0.96480 0.22070 0.24960 0.02800
C 	C 	0.47813 0.69783 0.28431 -0.08500
H 	H 	0.46310 0.68490 0.28520 0.05900
C 	C 	0.47950 0.71992 0.26294 -0.01600
H 	H 	0.46480 0.72070 0.24960 0.02800
C 	C 	0.47813 0.19783 0.78431 -0.08500
H 	H 	0.46310 0.18490 0.78520 0.05900
C 	C 	0.47950 0.21992 0.76294 -0.01600
H 	H 	0.46480 0.22070 0.74960 0.02800
C 	C 	0.02187 0.30217 0.78431 -0.08500
H 	H 	0.03690 0.31510 0.78520 0.05900
C 	C 	0.02050 0.28008 0.76294 -0.01600
H 	H 	0.03520 0.27930 0.74960 0.02800
C 	C 	0.02187 0.80217 0.28431 -0.08500
H 	H 	0.03690 0.81510 0.28520 0.05900
C 	C 	0.02050 0.78008 0.26294 -0.01600
H 	H 	0.03520 0.77930 0.24960 0.02800
C 	C 	0.52187 0.30217 0.28431 -0.08500
H 	H 	0.53690 0.31510 0.28520 0.05900
C 	C 	0.52050 0.28008 0.26294 -0.01600
H 	H 	0.53520 0.27930 0.24960 0.02800
C 	C 	0.52187 0.80217 0.78431 -0.08600
H 	H 	0.53690 0.81510 0.78520 0.05900
C 	C 	0.52050 0.78008 0.76294 -0.01600
H 	H 	0.53520 0.77930 0.74960 0.02900
C 	C 	0.30217 0.78431 0.02187 -0.08500
H 	H 	0.31510 0.78520 0.03690 0.05900
C 	C 	0.28008 0.76294 0.02050 -0.01600
H 	H 	0.27930 0.74960 0.03520 0.02800
C 	C 	0.30217 0.28431 0.52187 -0.08500
H 	H 	0.31510 0.28520 0.53690 0.05900
C 	C 	0.28008 0.26294 0.52050 -0.01600
H 	H 	0.27930 0.24960 0.53520 0.02800
C 	C 	0.80217 0.78431 0.52187 -0.08600
H 	H 	0.81510 0.78520 0.53690 0.05900
C 	C 	0.78008 0.76294 0.52050 -0.01600
H 	H 	0.77930 0.74960 0.53520 0.02900
C 	C 	0.80217 0.28431 0.02187 -0.08500
H 	H 	0.81510 0.28520 0.03690 0.05900
C 	C 	0.78008 0.26294 0.02050 -0.01600
H 	H 	0.77930 0.24960 0.03520 0.02800
C 	C 	0.69783 0.78431 0.97813 -0.08400
H 	H 	0.68490 0.78520 0.96310 0.05900
C 	C 	0.71992 0.76294 0.97950 -0.01500
H 	H 	0.72070 0.74960 0.96480 0.02900
C 	C 	0.69783 0.28431 0.47813 -0.08500
H 	H 	0.68490 0.28520 0.46310 0.05900
C 	C 	0.71992 0.26294 0.47950 -0.01600
H 	H 	0.72070 0.24960 0.46480 0.02800
C 	C 	0.19783 0.78431 0.47813 -0.08500
H 	H 	0.18490 0.78520 0.46310 0.05900
C 	C 	0.21992 0.76294 0.47950 -0.01600
H 	H 	0.22070 0.74960 0.46480 0.02800
C 	C 	0.19783 0.28431 0.97813 -0.08400
H 	H 	0.18490 0.28520 0.96310 0.05900
C 	C 	0.21992 0.26294 0.97950 -0.01500
H 	H 	0.22070 0.24960 0.96480 0.02800
C 	C 	0.69783 0.21569 0.02187 -0.08500
H 	H 	0.68490 0.21480 0.03690 0.05900
C 	C 	0.71992 0.23706 0.02050 -0.01600
H 	H 	0.72070 0.25040 0.03520 0.02800
C 	C 	0.69783 0.71569 0.52187 -0.08500
H 	H 	0.68490 0.71480 0.53690 0.05900
C 	C 	0.71992 0.73706 0.52050 -0.01600
H 	H 	0.72070 0.75040 0.53520 0.02900
C 	C 	0.19783 0.21569 0.52187 -0.08500
H 	H 	0.18490 0.21480 0.53690 0.05900
C 	C 	0.21992 0.23706 0.52050 -0.01600
H 	H 	0.22070 0.25040 0.53520 0.02800
C 	C 	0.19783 0.71569 0.02187 -0.08500
H 	H 	0.18490 0.71480 0.03690 0.05900
C 	C 	0.21992 0.73706 0.02050 -0.01600
H 	H 	0.22070 0.75040 0.03520 0.02800
C 	C 	0.30217 0.21569 0.97813 -0.08400
H 	H 	0.31510 0.21480 0.96310 0.05900
C 	C 	0.28008 0.23706 0.97950 -0.01500
H 	H 	0.27930 0.25040 0.96480 0.02800
C 	C 	0.30217 0.71569 0.47813 -0.08500
H 	H 	0.31510 0.71480 0.46310 0.05900
C 	C 	0.28008 0.73706 0.47950 -0.01600
H 	H 	0.27930 0.75040 0.46480 0.02900
C 	C 	0.80217 0.21569 0.47813 -0.08500
H 	H 	0.81510 0.21480 0.46310 0.05900
C 	C 	0.78008 0.23706 0.47950 -0.01600
H 	H 	0.77930 0.25040 0.46480 0.02900
C 	C 	0.80217 0.71569 0.97813 -0.08400
H 	H 	0.81510 0.71480 0.96310 0.05900
C 	C 	0.78008 0.73706 0.97950 -0.01500
H 	H 	0.77930 0.75040 0.96480 0.02900
C 	C 	0.78431 0.97813 0.69783 -0.08400
H 	H 	0.78520 0.96310 0.68490 0.05900
C 	C 	0.76294 0.97950 0.71992 -0.01500
H 	H 	0.74960 0.96480 0.72070 0.02900
C 	C 	0.78431 0.47813 0.19783 -0.08500
H 	H 	0.78520 0.46310 0.18490 0.05900
C 	C 	0.76294 0.47950 0.21992 -0.01600
H 	H 	0.74960 0.46480 0.22070 0.02800
C 	C 	0.28431 0.97813 0.19783 -0.08400
H 	H 	0.28520 0.96310 0.18490 0.05900
C 	C 	0.26294 0.97950 0.21992 -0.01500
H 	H 	0.24960 0.96480 0.22070 0.02800
C 	C 	0.28431 0.47813 0.69783 -0.08500
H 	H 	0.28520 0.46310 0.68490 0.05900
C 	C 	0.26294 0.47950 0.71992 -0.01600
H 	H 	0.24960 0.46480 0.72070 0.02800
C 	C 	0.78431 0.02187 0.30217 -0.08500
H 	H 	0.78520 0.03690 0.31510 0.05900
C 	C 	0.76294 0.02050 0.28008 -0.01600
H 	H 	0.74960 0.03520 0.27930 0.02800
C 	C 	0.78431 0.52187 0.80217 -0.08600
H 	H 	0.78520 0.53690 0.81510 0.05900
C 	C 	0.76294 0.52050 0.78008 -0.01600
H 	H 	0.74960 0.53520 0.77930 0.02900
C 	C 	0.28431 0.02187 0.80217 -0.08500
H 	H 	0.28520 0.03690 0.81510 0.05900
C 	C 	0.26294 0.02050 0.78008 -0.01600
H 	H 	0.24960 0.03520 0.77930 0.02800
C 	C 	0.28431 0.52187 0.30217 -0.08500
H 	H 	0.28520 0.53690 0.31510 0.05900
C 	C 	0.26294 0.52050 0.28008 -0.01600
H 	H 	0.24960 0.53520 0.27930 0.02800
C 	C 	0.21569 0.97813 0.30217 -0.08400
H 	H 	0.21480 0.96310 0.31510 0.05900
C 	C 	0.23706 0.97950 0.28008 -0.01500
H 	H 	0.25040 0.96480 0.27930 0.02800
C 	C 	0.21569 0.47813 0.80217 -0.08500
H 	H 	0.21480 0.46310 0.81510 0.05900
C 	C 	0.23706 0.47950 0.78008 -0.01600
H 	H 	0.25040 0.46480 0.77930 0.02900
C 	C 	0.71569 0.97813 0.80217 -0.08400
H 	H 	0.71480 0.96310 0.81510 0.05900
C 	C 	0.73706 0.97950 0.78008 -0.01500
H 	H 	0.75040 0.96480 0.77930 0.02900
C 	C 	0.71569 0.47813 0.30217 -0.08500
H 	H 	0.71480 0.46310 0.31510 0.05900
C 	C 	0.73706 0.47950 0.28008 -0.01600
H 	H 	0.75040 0.46480 0.27930 0.02900
C 	C 	0.21569 0.02187 0.69783 -0.08500
H 	H 	0.21480 0.03690 0.68490 0.05900
C 	C 	0.23706 0.02050 0.71992 -0.01600
H 	H 	0.25040 0.03520 0.72070 0.02800
C 	C 	0.21569 0.52187 0.19783 -0.08500
H 	H 	0.21480 0.53690 0.18490 0.05900
C 	C 	0.23706 0.52050 0.21992 -0.01600
H 	H 	0.25040 0.53520 0.22070 0.02800
C 	C 	0.71569 0.02187 0.19783 -0.08500
H 	H 	0.71480 0.03690 0.18490 0.05900
C 	C 	0.73706 0.02050 0.21992 -0.01600
H 	H 	0.75040 0.03520 0.22070 0.02800
C 	C 	0.71569 0.52187 0.69783 -0.08500
H 	H 	0.71480 0.53690 0.68490 0.05900
C 	C 	0.73706 0.52050 0.71992 -0.01600
H 	H 	0.75040 0.53520 0.72070 0.02900
C 	C 	0.69783 0.02187 0.21569 -0.08500
H 	H 	0.68490 0.03690 0.21480 0.05900
C 	C 	0.71992 0.02050 0.23706 -0.01600
H 	H 	0.72070 0.03520 0.25040 0.02800
C 	C 	0.69783 0.52187 0.71569 -0.08500
H 	H 	0.68490 0.53690 0.71480 0.05900
C 	C 	0.71992 0.52050 0.73706 -0.01600
H 	H 	0.72070 0.53520 0.75040 0.02900
C 	C 	0.19783 0.02187 0.71569 -0.08500
H 	H 	0.18490 0.03690 0.71480 0.05900
C 	C 	0.21992 0.02050 0.73706 -0.01600
H 	H 	0.22070 0.03520 0.75040 0.02800
C 	C 	0.19783 0.52187 0.21569 -0.08500
H 	H 	0.18490 0.53690 0.21480 0.05900
C 	C 	0.21992 0.52050 0.23706 -0.01600
H 	H 	0.22070 0.53520 0.25040 0.02800
C 	C 	0.30217 0.97813 0.21569 -0.08400
H 	H 	0.31510 0.96310 0.21480 0.05900
C 	C 	0.28008 0.97950 0.23706 -0.01500
H 	H 	0.27930 0.96480 0.25040 0.02800
C 	C 	0.30217 0.47813 0.71569 -0.08500
H 	H 	0.31510 0.46310 0.71480 0.05900
C 	C 	0.28008 0.47950 0.73706 -0.01600
H 	H 	0.27930 0.46480 0.75040 0.02900
C 	C 	0.80217 0.97813 0.71569 -0.08400
H 	H 	0.81510 0.96310 0.71480 0.05900
C 	C 	0.78008 0.97950 0.73706 -0.01500
H 	H 	0.77930 0.96480 0.75040 0.02900
C 	C 	0.80217 0.47813 0.21569 -0.08500
H 	H 	0.81510 0.46310 0.21480 0.05900
C 	C 	0.78008 0.47950 0.23706 -0.01600
H 	H 	0.77930 0.46480 0.25040 0.02900
C 	C 	0.30217 0.02187 0.78431 -0.08500
H 	H 	0.31510 0.03690 0.78520 0.05900
C 	C 	0.28008 0.02050 0.76294 -0.01600
H 	H 	0.27930 0.03520 0.74960 0.02800
C 	C 	0.30217 0.52187 0.28431 -0.08500
H 	H 	0.31510 0.53690 0.28520 0.05900
C 	C 	0.28008 0.52050 0.26294 -0.01600
H 	H 	0.27930 0.53520 0.24960 0.02800
C 	C 	0.80217 0.02187 0.28431 -0.08500
H 	H 	0.81510 0.03690 0.28520 0.05900
C 	C 	0.78008 0.02050 0.26294 -0.01600
H 	H 	0.77930 0.03520 0.24960 0.02800
C 	C 	0.80217 0.52187 0.78431 -0.08600
H 	H 	0.81510 0.53690 0.78520 0.05900
C 	C 	0.78008 0.52050 0.76294 -0.01600
H 	H 	0.77930 0.53520 0.74960 0.02900
C 	C 	0.69783 0.97813 0.78431 -0.08400
H 	H 	0.68490 0.96310 0.78520 0.05900
C 	C 	0.71992 0.97950 0.76294 -0.01500
H 	H 	0.72070 0.96480 0.74960 0.02900
C 	C 	0.69783 0.47813 0.28431 -0.08500
H 	H 	0.68490 0.46310 0.28520 0.05900
C 	C 	0.71992 0.47950 0.26294 -0.01600
H 	H 	0.72070 0.46480 0.24960 0.02800
C 	C 	0.19783 0.97813 0.28431 -0.08400
H 	H 	0.18490 0.96310 0.28520 0.05900
C 	C 	0.21992 0.97950 0.26294 -0.01500
H 	H 	0.22070 0.96480 0.24960 0.02800
C 	C 	0.19783 0.47813 0.78431 -0.08500
H 	H 	0.18490 0.46310 0.78520 0.05900
C 	C 	0.21992 0.47950 0.76294 -0.01600
H 	H 	0.22070 0.46480 0.74960 0.02800
C 	C 	0.21569 0.69783 0.02187 -0.08500
H 	H 	0.21480 0.68490 0.03690 0.05900
C 	C 	0.23706 0.71992 0.02050 -0.01600
H 	H 	0.25040 0.72070 0.03520 0.02800
C 	C 	0.21569 0.19783 0.52187 -0.08500
H 	H 	0.21480 0.18490 0.53690 0.05900
C 	C 	0.23706 0.21992 0.52050 -0.01600
H 	H 	0.25040 0.22070 0.53520 0.02800
C 	C 	0.71569 0.69783 0.52187 -0.08500
H 	H 	0.71480 0.68490 0.53690 0.05900
C 	C 	0.73706 0.71992 0.52050 -0.01600
H 	H 	0.75040 0.72070 0.53520 0.02900
C 	C 	0.71569 0.19783 0.02187 -0.08500
H 	H 	0.71480 0.18490 0.03690 0.05900
C 	C 	0.73706 0.21992 0.02050 -0.01600
H 	H 	0.75040 0.22070 0.03520 0.02800
C 	C 	0.21569 0.30217 0.97813 -0.08400
H 	H 	0.21480 0.31510 0.96310 0.05900
C 	C 	0.23706 0.28008 0.97950 -0.01500
H 	H 	0.25040 0.27930 0.96480 0.02800
C 	C 	0.21569 0.80217 0.47813 -0.08500
H 	H 	0.21480 0.81510 0.46310 0.05900
C 	C 	0.23706 0.78008 0.47950 -0.01600
H 	H 	0.25040 0.77930 0.46480 0.02900
C 	C 	0.71569 0.30217 0.47813 -0.08500
H 	H 	0.71480 0.31510 0.46310 0.05900
C 	C 	0.73706 0.28008 0.47950 -0.01600
H 	H 	0.75040 0.27930 0.46480 0.02900
C 	C 	0.71569 0.80217 0.97813 -0.08400
H 	H 	0.71480 0.81510 0.96310 0.05900
C 	C 	0.73706 0.78008 0.97950 -0.01500
H 	H 	0.75040 0.77930 0.96480 0.02900
C 	C 	0.78431 0.30217 0.02187 -0.08500
H 	H 	0.78520 0.31510 0.03690 0.05900
C 	C 	0.76294 0.28008 0.02050 -0.01600
H 	H 	0.74960 0.27930 0.03520 0.02800
C 	C 	0.78431 0.80217 0.52187 -0.08600
H 	H 	0.78520 0.81510 0.53690 0.05900
C 	C 	0.76294 0.78008 0.52050 -0.01600
H 	H 	0.74960 0.77930 0.53520 0.02900
C 	C 	0.28431 0.30217 0.52187 -0.08500
H 	H 	0.28520 0.31510 0.53690 0.05900
C 	C 	0.26294 0.28008 0.52050 -0.01600
H 	H 	0.24960 0.27930 0.53520 0.02800
C 	C 	0.28431 0.80217 0.02187 -0.08500
H 	H 	0.28520 0.81510 0.03690 0.05900
C 	C 	0.26294 0.78008 0.02050 -0.01600
H 	H 	0.24960 0.77930 0.03520 0.02800
C 	C 	0.78431 0.69783 0.97813 -0.08400
H 	H 	0.78520 0.68490 0.96310 0.05900
C 	C 	0.76294 0.71992 0.97950 -0.01500
H 	H 	0.74960 0.72070 0.96480 0.02900
C 	C 	0.78431 0.19783 0.47813 -0.08500
H 	H 	0.78520 0.18490 0.46310 0.05900
C 	C 	0.76294 0.21992 0.47950 -0.01600
H 	H 	0.74960 0.22070 0.46480 0.02800
C 	C 	0.28431 0.69783 0.47813 -0.08500
H 	H 	0.28520 0.68490 0.46310 0.05900
C 	C 	0.26294 0.71992 0.47950 -0.01600
H 	H 	0.24960 0.72070 0.46480 0.02800
C 	C 	0.28431 0.19783 0.97813 -0.08400
H 	H 	0.28520 0.18490 0.96310 0.05900
C 	C 	0.26294 0.21992 0.97950 -0.01500
H 	H 	0.24960 0.22070 0.96480 0.02800
C 	C 	0.02187 0.21569 0.69783 -0.08500
H 	H 	0.03690 0.21480 0.68490 0.05900
C 	C 	0.02050 0.23706 0.71992 -0.01600
H 	H 	0.03520 0.25040 0.72070 0.02800
C 	C 	0.02187 0.71569 0.19783 -0.08500
H 	H 	0.03690 0.71480 0.18490 0.05900
C 	C 	0.02050 0.73706 0.21992 -0.01600
H 	H 	0.03520 0.75040 0.22070 0.02800
C 	C 	0.52187 0.21569 0.19783 -0.08500
H 	H 	0.53690 0.21480 0.18490 0.05900
C 	C 	0.52050 0.23706 0.21992 -0.01600
H 	H 	0.53520 0.25040 0.22070 0.02800
C 	C 	0.52187 0.71569 0.69783 -0.08500
H 	H 	0.53690 0.71480 0.68490 0.05900
C 	C 	0.52050 0.73706 0.71992 -0.01600
H 	H 	0.53520 0.75040 0.72070 0.02900
C 	C 	0.97813 0.21569 0.30217 -0.08400
H 	H 	0.96310 0.21480 0.31510 0.05900
C 	C 	0.97950 0.23706 0.28008 -0.01500
H 	H 	0.96480 0.25040 0.27930 0.02800
C 	C 	0.97813 0.71569 0.80217 -0.08400
H 	H 	0.96310 0.71480 0.81510 0.05900
C 	C 	0.97950 0.73706 0.78008 -0.01500
H 	H 	0.96480 0.75040 0.77930 0.02900
C 	C 	0.47813 0.21569 0.80217 -0.08500
H 	H 	0.46310 0.21480 0.81510 0.05900
C 	C 	0.47950 0.23706 0.78008 -0.01600
H 	H 	0.46480 0.25040 0.77930 0.02900
C 	C 	0.47813 0.71569 0.30217 -0.08500
H 	H 	0.46310 0.71480 0.31510 0.05900
C 	C 	0.47950 0.73706 0.28008 -0.01600
H 	H 	0.46480 0.75040 0.27930 0.02900
C 	C 	0.02187 0.78431 0.30217 -0.08500
H 	H 	0.03690 0.78520 0.31510 0.05900
C 	C 	0.02050 0.76294 0.28008 -0.01600
H 	H 	0.03520 0.74960 0.27930 0.02800
C 	C 	0.02187 0.28431 0.80217 -0.08500
H 	H 	0.03690 0.28520 0.81510 0.05900
C 	C 	0.02050 0.26294 0.78008 -0.01600
H 	H 	0.03520 0.24960 0.77930 0.02800
C 	C 	0.52187 0.78431 0.80217 -0.08600
H 	H 	0.53690 0.78520 0.81510 0.05900
C 	C 	0.52050 0.76294 0.78008 -0.01600
H 	H 	0.53520 0.74960 0.77930 0.02900
C 	C 	0.52187 0.28431 0.30217 -0.08500
H 	H 	0.53690 0.28520 0.31510 0.05900
C 	C 	0.52050 0.26294 0.28008 -0.01600
H 	H 	0.53520 0.24960 0.27930 0.02800
C 	C 	0.97813 0.78431 0.69783 -0.08400
H 	H 	0.96310 0.78520 0.68490 0.05900
C 	C 	0.97950 0.76294 0.71992 -0.01500
H 	H 	0.96480 0.74960 0.72070 0.02900
C 	C 	0.97813 0.28431 0.19783 -0.08400
H 	H 	0.96310 0.28520 0.18490 0.05900
C 	C 	0.97950 0.26294 0.21992 -0.01500
H 	H 	0.96480 0.24960 0.22070 0.02800
C 	C 	0.47813 0.78431 0.19783 -0.08500
H 	H 	0.46310 0.78520 0.18490 0.05900
C 	C 	0.47950 0.76294 0.21992 -0.01600
H 	H 	0.46480 0.74960 0.22070 0.02800
C 	C 	0.47813 0.28431 0.69783 -0.08500
H 	H 	0.46310 0.28520 0.68490 0.05900
C 	C 	0.47950 0.26294 0.71992 -0.01600
H 	H 	0.46480 0.24960 0.72070 0.02800
C 	C 	0.02187 0.69783 0.78431 -0.08500
H 	H 	0.03690 0.68490 0.78520 0.05900
C 	C 	0.02050 0.71992 0.76294 -0.01600
H 	H 	0.03520 0.72070 0.74960 0.02800
C 	C 	0.02187 0.19783 0.28431 -0.08500
H 	H 	0.03690 0.18490 0.28520 0.05900
C 	C 	0.02050 0.21992 0.26294 -0.01600
H 	H 	0.03520 0.22070 0.24960 0.02800
C 	C 	0.52187 0.69783 0.28431 -0.08500
H 	H 	0.53690 0.68490 0.28520 0.05900
C 	C 	0.52050 0.71992 0.26294 -0.01600
H 	H 	0.53520 0.72070 0.24960 0.02800
C 	C 	0.52187 0.19783 0.78431 -0.08500
H 	H 	0.53690 0.18490 0.78520 0.05900
C 	C 	0.52050 0.21992 0.76294 -0.01600
H 	H 	0.53520 0.22070 0.74960 0.02800
C 	C 	0.97813 0.30217 0.78431 -0.08400
H 	H 	0.96310 0.31510 0.78520 0.05900
C 	C 	0.97950 0.28008 0.76294 -0.01500
H 	H 	0.96480 0.27930 0.74960 0.02800
C 	C 	0.97813 0.80217 0.28431 -0.08400
H 	H 	0.96310 0.81510 0.28520 0.05900
C 	C 	0.97950 0.78008 0.26294 -0.01500
H 	H 	0.96480 0.77930 0.24960 0.02900
C 	C 	0.47813 0.30217 0.28431 -0.08500
H 	H 	0.46310 0.31510 0.28520 0.05900
C 	C 	0.47950 0.28008 0.26294 -0.01600
H 	H 	0.46480 0.27930 0.24960 0.02800
C 	C 	0.47813 0.80217 0.78431 -0.08600
H 	H 	0.46310 0.81510 0.78520 0.05900
C 	C 	0.47950 0.78008 0.76294 -0.01600
H 	H 	0.46480 0.77930 0.74960 0.02900
C 	C 	0.02187 0.30217 0.21569 -0.08500
H 	H 	0.03690 0.31510 0.21480 0.05900
C 	C 	0.02050 0.28008 0.23706 -0.01600
H 	H 	0.03520 0.27930 0.25040 0.02800
C 	C 	0.02187 0.80217 0.71569 -0.08500
H 	H 	0.03690 0.81510 0.71480 0.05900
C 	C 	0.02050 0.78008 0.73706 -0.01600
H 	H 	0.03520 0.77930 0.75040 0.02900
C 	C 	0.52187 0.30217 0.71569 -0.08500
H 	H 	0.53690 0.31510 0.71480 0.05900
C 	C 	0.52050 0.28008 0.73706 -0.01600
H 	H 	0.53520 0.27930 0.75040 0.02900
C 	C 	0.52187 0.80217 0.21569 -0.08500
H 	H 	0.53690 0.81510 0.21480 0.05900
C 	C 	0.52050 0.78008 0.23706 -0.01600
H 	H 	0.53520 0.77930 0.25040 0.02900
C 	C 	0.97813 0.69783 0.21569 -0.08400
H 	H 	0.96310 0.68490 0.21480 0.05900
C 	C 	0.97950 0.71992 0.23706 -0.01500
H 	H 	0.96480 0.72070 0.25040 0.02800
C 	C 	0.97813 0.19783 0.71569 -0.08400
H 	H 	0.96310 0.18490 0.71480 0.05900
C 	C 	0.97950 0.21992 0.73706 -0.01500
H 	H 	0.96480 0.22070 0.75040 0.02900
C 	C 	0.47813 0.69783 0.71569 -0.08500
H 	H 	0.46310 0.68490 0.71480 0.05900
C 	C 	0.47950 0.71992 0.73706 -0.01600
H 	H 	0.46480 0.72070 0.75040 0.02900
C 	C 	0.47813 0.19783 0.21569 -0.08500
H 	H 	0.46310 0.18490 0.21480 0.05900
C 	C 	0.47950 0.21992 0.23706 -0.01600
H 	H 	0.46480 0.22070 0.25040 0.02800
C 	C 	0.69783 0.21569 0.97813 -0.08400
H 	H 	0.68490 0.21480 0.96310 0.05900
C 	C 	0.71992 0.23706 0.97950 -0.01500
H 	H 	0.72070 0.25040 0.96480 0.02800
C 	C 	0.69783 0.71569 0.47813 -0.08500
H 	H 	0.68490 0.71480 0.46310 0.05900
C 	C 	0.71992 0.73706 0.47950 -0.01600
H 	H 	0.72070 0.75040 0.46480 0.02900
C 	C 	0.19783 0.21569 0.47813 -0.08500
H 	H 	0.18490 0.21480 0.46310 0.05900
C 	C 	0.21992 0.23706 0.47950 -0.01600
H 	H 	0.22070 0.25040 0.46480 0.02800
C 	C 	0.19783 0.71569 0.97813 -0.08400
H 	H 	0.18490 0.71480 0.96310 0.05900
C 	C 	0.21992 0.73706 0.97950 -0.01500
H 	H 	0.22070 0.75040 0.96480 0.02900
C 	C 	0.30217 0.21569 0.02187 -0.08500
H 	H 	0.31510 0.21480 0.03690 0.05900
C 	C 	0.28008 0.23706 0.02050 -0.01600
H 	H 	0.27930 0.25040 0.03520 0.02800
C 	C 	0.30217 0.71569 0.52187 -0.08500
H 	H 	0.31510 0.71480 0.53690 0.05900
C 	C 	0.28008 0.73706 0.52050 -0.01600
H 	H 	0.27930 0.75040 0.53520 0.02900
C 	C 	0.80217 0.21569 0.52187 -0.08500
H 	H 	0.81510 0.21480 0.53690 0.05900
C 	C 	0.78008 0.23706 0.52050 -0.01600
H 	H 	0.77930 0.25040 0.53520 0.02900
C 	C 	0.80217 0.71569 0.02187 -0.08500
H 	H 	0.81510 0.71480 0.03690 0.05900
C 	C 	0.78008 0.73706 0.02050 -0.01600
H 	H 	0.77930 0.75040 0.03520 0.02900
C 	C 	0.30217 0.78431 0.97813 -0.08400
H 	H 	0.31510 0.78520 0.96310 0.05900
C 	C 	0.28008 0.76294 0.97950 -0.01500
H 	H 	0.27930 0.74960 0.96480 0.02800
C 	C 	0.30217 0.28431 0.47813 -0.08500
H 	H 	0.31510 0.28520 0.46310 0.05900
C 	C 	0.28008 0.26294 0.47950 -0.01600
H 	H 	0.27930 0.24960 0.46480 0.02800
C 	C 	0.80217 0.78431 0.47813 -0.08600
H 	H 	0.81510 0.78520 0.46310 0.05900
C 	C 	0.78008 0.76294 0.47950 -0.01600
H 	H 	0.77930 0.74960 0.46480 0.02900
C 	C 	0.80217 0.28431 0.97813 -0.08400
H 	H 	0.81510 0.28520 0.96310 0.05900
C 	C 	0.78008 0.26294 0.97950 -0.01500
H 	H 	0.77930 0.24960 0.96480 0.02900
C 	C 	0.69783 0.78431 0.02187 -0.08500
H 	H 	0.68490 0.78520 0.03690 0.05900
C 	C 	0.71992 0.76294 0.02050 -0.01600
H 	H 	0.72070 0.74960 0.03520 0.02800
C 	C 	0.69783 0.28431 0.52187 -0.08500
H 	H 	0.68490 0.28520 0.53690 0.05900
C 	C 	0.71992 0.26294 0.52050 -0.01600
H 	H 	0.72070 0.24960 0.53520 0.02800
C 	C 	0.19783 0.78431 0.52187 -0.08500
H 	H 	0.18490 0.78520 0.53690 0.05900
C 	C 	0.21992 0.76294 0.52050 -0.01600
H 	H 	0.22070 0.74960 0.53520 0.02800
C 	C 	0.19783 0.28431 0.02187 -0.08500
H 	H 	0.18490 0.28520 0.03690 0.05900
C 	C 	0.21992 0.26294 0.02050 -0.01600
H 	H 	0.22070 0.24960 0.03520 0.02800
C 	C 	0.21569 0.02187 0.30217 -0.08500
H 	H 	0.21480 0.03690 0.31510 0.05900
C 	C 	0.23706 0.02050 0.28008 -0.01600
H 	H 	0.25040 0.03520 0.27930 0.02800
C 	C 	0.21569 0.52187 0.80217 -0.08500
H 	H 	0.21480 0.53690 0.81510 0.05900
C 	C 	0.23706 0.52050 0.78008 -0.01600
H 	H 	0.25040 0.53520 0.77930 0.02900
C 	C 	0.71569 0.02187 0.80217 -0.08500
H 	H 	0.71480 0.03690 0.81510 0.05900
C 	C 	0.73706 0.02050 0.78008 -0.01600
H 	H 	0.75040 0.03520 0.77930 0.02900
C 	C 	0.71569 0.52187 0.30217 -0.08500
H 	H 	0.71480 0.53690 0.31510 0.05900
C 	C 	0.73706 0.52050 0.28008 -0.01600
H 	H 	0.75040 0.53520 0.27930 0.02900
C 	C 	0.21569 0.97813 0.69783 -0.08400
H 	H 	0.21480 0.96310 0.68490 0.05900
C 	C 	0.23706 0.97950 0.71992 -0.01500
H 	H 	0.25040 0.96480 0.72070 0.02800
C 	C 	0.21569 0.47813 0.19783 -0.08500
H 	H 	0.21480 0.46310 0.18490 0.05900
C 	C 	0.23706 0.47950 0.21992 -0.01600
H 	H 	0.25040 0.46480 0.22070 0.02800
C 	C 	0.71569 0.97813 0.19783 -0.08400
H 	H 	0.71480 0.96310 0.18490 0.05900
C 	C 	0.73706 0.97950 0.21992 -0.01500
H 	H 	0.75040 0.96480 0.22070 0.02900
C 	C 	0.71569 0.47813 0.69783 -0.08500
H 	H 	0.71480 0.46310 0.68490 0.05900
C 	C 	0.73706 0.47950 0.71992 -0.01600
H 	H 	0.75040 0.46480 0.72070 0.02900
C 	C 	0.78431 0.02187 0.69783 -0.08500
H 	H 	0.78520 0.03690 0.68490 0.05900
C 	C 	0.76294 0.02050 0.71992 -0.01600
H 	H 	0.74960 0.03520 0.72070 0.02800
C 	C 	0.78431 0.52187 0.19783 -0.08500
H 	H 	0.78520 0.53690 0.18490 0.05900
C 	C 	0.76294 0.52050 0.21992 -0.01600
H 	H 	0.74960 0.53520 0.22070 0.02800
C 	C 	0.28431 0.02187 0.19783 -0.08500
H 	H 	0.28520 0.03690 0.18490 0.05900
C 	C 	0.26294 0.02050 0.21992 -0.01600
H 	H 	0.24960 0.03520 0.22070 0.02800
C 	C 	0.28431 0.52187 0.69783 -0.08500
H 	H 	0.28520 0.53690 0.68490 0.05900
C 	C 	0.26294 0.52050 0.71992 -0.01600
H 	H 	0.24960 0.53520 0.72070 0.02800
C 	C 	0.78431 0.97813 0.30217 -0.08400
H 	H 	0.78520 0.96310 0.31510 0.05900
C 	C 	0.76294 0.97950 0.28008 -0.01500
H 	H 	0.74960 0.96480 0.27930 0.02800
C 	C 	0.78431 0.47813 0.80217 -0.08600
H 	H 	0.78520 0.46310 0.81510 0.05900
C 	C 	0.76294 0.47950 0.78008 -0.01600
H 	H 	0.74960 0.46480 0.77930 0.02900
C 	C 	0.28431 0.97813 0.80217 -0.08400
H 	H 	0.28520 0.96310 0.81510 0.05900
C 	C 	0.26294 0.97950 0.78008 -0.01500
H 	H 	0.24960 0.96480 0.77930 0.02900
C 	C 	0.28431 0.47813 0.30217 -0.08500
H 	H 	0.28520 0.46310 0.31510 0.05900
C 	C 	0.26294 0.47950 0.28008 -0.01600
H 	H 	0.24960 0.46480 0.27930 0.02800
Zn	Zn	0.50000 -0.00000 0.85370 1.19600
Zn	Zn	0.50000 -0.00000 0.79030 1.19900
Zn	Zn	0.50000 0.50000 0.35370 1.19700
Zn	Zn	0.50000 0.50000 0.29030 1.19900
Zn	Zn	0.50000 0.00000 0.14630 1.19600
Zn	Zn	0.50000 0.00000 0.20970 1.19900
Zn	Zn	0.50000 0.50000 0.64630 1.19700
Zn	Zn	0.50000 0.50000 0.70970 1.19900
Zn	Zn	0.85370 0.50000 -0.00000 1.19600
Zn	Zn	0.79030 0.50000 -0.00000 1.19900
Zn	Zn	0.35370 0.50000 0.50000 1.19700
Zn	Zn	0.29030 0.50000 0.50000 1.19900
Zn	Zn	0.14630 0.50000 -0.00000 1.19600
Zn	Zn	0.20970 0.50000 -0.00000 1.19900
Zn	Zn	0.64630 0.50000 0.50000 1.19700
Zn	Zn	0.70970 0.50000 0.50000 1.19900
Zn	Zn	-0.00000 0.85370 0.50000 1.19600
Zn	Zn	-0.00000 0.79030 0.50000 1.19900
Zn	Zn	-0.00000 0.35370 -0.00000 1.19600
Zn	Zn	-0.00000 0.29030 -0.00000 1.19800
Zn	Zn	0.00000 0.14630 0.50000 1.19600
Zn	Zn	-0.00000 0.20970 0.50000 1.19900
Zn	Zn	-0.00000 0.64630 -0.00000 1.19600
Zn	Zn	-0.00000 0.70970 -0.00000 1.19800
Zn	Zn	0.00000 0.50000 0.14630 1.19600
Zn	Zn	-0.00000 0.50000 0.20970 1.19900
Zn	Zn	0.00000 0.00000 0.64630 1.19600
Zn	Zn	0.00000 0.00000 0.70970 1.19800
Zn	Zn	-0.00000 0.50000 0.85370 1.19600
Zn	Zn	-0.00000 0.50000 0.79030 1.19900
Zn	Zn	0.00000 0.00000 0.35370 1.19600
Zn	Zn	-0.00000 -0.00000 0.29030 1.19800
Zn	Zn	0.50000 0.85370 -0.00000 1.19600
Zn	Zn	0.50000 0.79030 -0.00000 1.19900
Zn	Zn	0.50000 0.35370 0.50000 1.19700
Zn	Zn	0.50000 0.29030 0.50000 1.19900
Zn	Zn	0.50000 0.14630 -0.00000 1.19600
Zn	Zn	0.50000 0.20970 -0.00000 1.19900
Zn	Zn	0.50000 0.64630 0.50000 1.19700
Zn	Zn	0.50000 0.70970 0.50000 1.19900
Zn	Zn	0.85370 0.00000 0.50000 1.19600
Zn	Zn	0.79030 0.00000 0.50000 1.19900
Zn	Zn	0.35370 0.00000 -0.00000 1.19600
Zn	Zn	0.29030 0.00000 -0.00000 1.19800
Zn	Zn	0.14630 0.00000 0.50000 1.19600
Zn	Zn	0.20970 0.00000 0.50000 1.19900
Zn	Zn	0.64630 0.00000 -0.00000 1.19600
Zn	Zn	0.70970 0.00000 -0.00000 1.19800
O 	O 	0.45731 0.00000 0.84603 -0.48200
O 	O 	0.45752 0.00000 0.79821 -0.48700
C 	C 	0.44530 -0.00000 0.82190 0.40600
C 	C 	0.41310 0.00000 0.82180 -0.12500
C 	C 	0.39810 -0.00000 0.84760 0.00900
H 	H 	0.40770 0.00000 0.86490 0.03800
C 	C 	0.36870 -0.00000 0.84660 -0.03500
C 	C 	0.35430 -0.00000 0.81990 0.11000
C 	C 	0.36920 -0.00000 0.79430 -0.16200
H 	H 	0.35970 0.00000 0.77680 0.08500
C 	C 	0.39820 0.00000 0.79580 0.06700
H 	H 	0.40860 0.00000 0.77890 0.01500
O 	O 	0.45731 0.50000 0.34603 -0.48200
O 	O 	0.45752 0.50000 0.29821 -0.48700
C 	C 	0.44530 0.50000 0.32190 0.40600
C 	C 	0.41310 0.50000 0.32180 -0.12500
C 	C 	0.39810 0.50000 0.34760 0.00900
H 	H 	0.40770 0.50000 0.36490 0.03800
C 	C 	0.36870 0.50000 0.34660 -0.03400
C 	C 	0.35430 0.50000 0.31990 0.11000
C 	C 	0.36920 0.50000 0.29430 -0.16200
H 	H 	0.35970 0.50000 0.27680 0.08600
C 	C 	0.39820 0.50000 0.29580 0.06800
H 	H 	0.40860 0.50000 0.27890 0.01500
O 	O 	0.95731 -0.00000 0.34603 -0.48100
O 	O 	0.95752 0.00000 0.29821 -0.48600
C 	C 	0.94530 -0.00000 0.32190 0.40600
C 	C 	0.91310 -0.00000 0.32180 -0.12500
C 	C 	0.89810 0.00000 0.34760 0.00900
H 	H 	0.90770 0.00000 0.36490 0.03800
C 	C 	0.86870 0.00000 0.34660 -0.03400
C 	C 	0.85430 -0.00000 0.31990 0.10900
C 	C 	0.86920 0.00000 0.29430 -0.16200
H 	H 	0.85970 0.00000 0.27680 0.08500
C 	C 	0.89820 0.00000 0.29580 0.06700
H 	H 	0.90860 0.00000 0.27890 0.01600
O 	O 	0.95731 0.50000 0.84603 -0.48000
O 	O 	0.95752 0.50000 0.79821 -0.48500
C 	C 	0.94530 0.50000 0.82190 0.40600
C 	C 	0.91310 0.50000 0.82180 -0.12500
C 	C 	0.89810 0.50000 0.84760 0.00900
H 	H 	0.90770 0.50000 0.86490 0.03900
C 	C 	0.86870 0.50000 0.84660 -0.03400
C 	C 	0.85430 0.50000 0.81990 0.11000
C 	C 	0.86920 0.50000 0.79430 -0.16200
H 	H 	0.85970 0.50000 0.77680 0.08600
C 	C 	0.89820 0.50000 0.79580 0.06700
H 	H 	0.90860 0.50000 0.77890 0.01600
O 	O 	0.54269 0.00000 0.84603 -0.48200
O 	O 	0.54248 0.00000 0.79821 -0.48700
C 	C 	0.55470 -0.00000 0.82190 0.40600
C 	C 	0.58690 0.00000 0.82180 -0.12500
C 	C 	0.60190 -0.00000 0.84760 0.00900
H 	H 	0.59230 0.00000 0.86490 0.03800
C 	C 	0.63130 -0.00000 0.84660 -0.03500
C 	C 	0.64570 -0.00000 0.81990 0.11000
C 	C 	0.63080 -0.00000 0.79430 -0.16200
H 	H 	0.64030 0.00000 0.77680 0.08500
C 	C 	0.60180 0.00000 0.79580 0.06700
H 	H 	0.59140 0.00000 0.77890 0.01500
O 	O 	0.54269 0.50000 0.34603 -0.48200
O 	O 	0.54248 0.50000 0.29821 -0.48700
C 	C 	0.55470 0.50000 0.32190 0.40600
C 	C 	0.58690 0.50000 0.32180 -0.12500
C 	C 	0.60190 0.50000 0.34760 0.00900
H 	H 	0.59230 0.50000 0.36490 0.03800
C 	C 	0.63130 0.50000 0.34660 -0.03400
C 	C 	0.64570 0.50000 0.31990 0.11000
C 	C 	0.63080 0.50000 0.29430 -0.16200
H 	H 	0.64030 0.50000 0.27680 0.08600
C 	C 	0.60180 0.50000 0.29580 0.06800
H 	H 	0.59140 0.50000 0.27890 0.01500
O 	O 	0.04269 -0.00000 0.34603 -0.48200
O 	O 	0.04248 0.00000 0.29821 -0.48700
C 	C 	0.05470 -0.00000 0.32190 0.40600
C 	C 	0.08690 -0.00000 0.32180 -0.12600
C 	C 	0.10190 0.00000 0.34760 0.00900
H 	H 	0.09230 0.00000 0.36490 0.03800
C 	C 	0.13130 0.00000 0.34660 -0.03500
C 	C 	0.14570 -0.00000 0.31990 0.11000
C 	C 	0.13080 0.00000 0.29430 -0.16200
H 	H 	0.14030 0.00000 0.27680 0.08500
C 	C 	0.10180 0.00000 0.29580 0.06700
H 	H 	0.09140 0.00000 0.27890 0.01500
O 	O 	0.04269 0.50000 0.84603 -0.48200
O 	O 	0.04248 0.50000 0.79821 -0.48700
C 	C 	0.05470 0.50000 0.82190 0.40600
C 	C 	0.08690 0.50000 0.82180 -0.12500
C 	C 	0.10190 0.50000 0.84760 0.00900
H 	H 	0.09230 0.50000 0.86490 0.03800
C 	C 	0.13130 0.50000 0.84660 -0.03400
C 	C 	0.14570 0.50000 0.81990 0.11000
C 	C 	0.13080 0.50000 0.79430 -0.16200
H 	H 	0.14030 0.50000 0.77680 0.08500
C 	C 	0.10180 0.50000 0.79580 0.06800
H 	H 	0.09140 0.50000 0.77890 0.01500
O 	O 	0.54269 0.00000 0.15397 -0.48200
O 	O 	0.54248 0.00000 0.20179 -0.48700
C 	C 	0.55470 0.00000 0.17810 0.40600
C 	C 	0.58690 0.00000 0.17820 -0.12600
C 	C 	0.60190 -0.00000 0.15240 0.00900
H 	H 	0.59230 0.00000 0.13510 0.03800
C 	C 	0.63130 0.00000 0.15340 -0.03500
C 	C 	0.64570 -0.00000 0.18010 0.11000
C 	C 	0.63080 0.00000 0.20570 -0.16200
H 	H 	0.64030 -0.00000 0.22320 0.08500
C 	C 	0.60180 0.00000 0.20420 0.06700
H 	H 	0.59140 -0.00000 0.22110 0.01500
O 	O 	0.54269 0.50000 0.65397 -0.48200
O 	O 	0.54248 0.50000 0.70179 -0.48600
C 	C 	0.55470 0.50000 0.67810 0.40600
C 	C 	0.58690 0.50000 0.67820 -0.12500
C 	C 	0.60190 0.50000 0.65240 0.00900
H 	H 	0.59230 0.50000 0.63510 0.03800
C 	C 	0.63130 0.50000 0.65340 -0.03400
C 	C 	0.64570 0.50000 0.68010 0.11000
C 	C 	0.63080 0.50000 0.70570 -0.16200
H 	H 	0.64030 0.50000 0.72320 0.08600
C 	C 	0.60180 0.50000 0.70420 0.06800
H 	H 	0.59140 0.50000 0.72110 0.01600
O 	O 	0.04269 0.00000 0.65397 -0.48200
O 	O 	0.04248 0.00000 0.70179 -0.48700
C 	C 	0.05470 0.00000 0.67810 0.40600
C 	C 	0.08690 -0.00000 0.67820 -0.12600
C 	C 	0.10190 0.00000 0.65240 0.00900
H 	H 	0.09230 0.00000 0.63510 0.03800
C 	C 	0.13130 0.00000 0.65340 -0.03500
C 	C 	0.14570 0.00000 0.68010 0.11000
C 	C 	0.13080 0.00000 0.70570 -0.16200
H 	H 	0.14030 0.00000 0.72320 0.08500
C 	C 	0.10180 0.00000 0.70420 0.06700
H 	H 	0.09140 0.00000 0.72110 0.01500
O 	O 	0.04269 0.50000 0.15397 -0.48200
O 	O 	0.04248 0.50000 0.20179 -0.48700
C 	C 	0.05470 0.50000 0.17810 0.40600
C 	C 	0.08690 0.50000 0.17820 -0.12500
C 	C 	0.10190 0.50000 0.15240 0.00900
H 	H 	0.09230 0.50000 0.13510 0.03800
C 	C 	0.13130 0.50000 0.15340 -0.03400
C 	C 	0.14570 0.50000 0.18010 0.11000
C 	C 	0.13080 0.50000 0.20570 -0.16200
H 	H 	0.14030 0.50000 0.22320 0.08600
C 	C 	0.10180 0.50000 0.20420 0.06800
H 	H 	0.09140 0.50000 0.22110 0.01500
O 	O 	0.45731 0.00000 0.15397 -0.48200
O 	O 	0.45752 0.00000 0.20179 -0.48700
C 	C 	0.44530 0.00000 0.17810 0.40600
C 	C 	0.41310 0.00000 0.17820 -0.12600
C 	C 	0.39810 -0.00000 0.15240 0.00900
H 	H 	0.40770 0.00000 0.13510 0.03800
C 	C 	0.36870 0.00000 0.15340 -0.03500
C 	C 	0.35430 -0.00000 0.18010 0.11000
C 	C 	0.36920 0.00000 0.20570 -0.16200
H 	H 	0.35970 -0.00000 0.22320 0.08500
C 	C 	0.39820 0.00000 0.20420 0.06700
H 	H 	0.40860 -0.00000 0.22110 0.01500
O 	O 	0.45731 0.50000 0.65397 -0.48200
O 	O 	0.45752 0.50000 0.70179 -0.48600
C 	C 	0.44530 0.50000 0.67810 0.40600
C 	C 	0.41310 0.50000 0.67820 -0.12500
C 	C 	0.39810 0.50000 0.65240 0.00900
H 	H 	0.40770 0.50000 0.63510 0.03800
C 	C 	0.36870 0.50000 0.65340 -0.03400
C 	C 	0.35430 0.50000 0.68010 0.11000
C 	C 	0.36920 0.50000 0.70570 -0.16200
H 	H 	0.35970 0.50000 0.72320 0.08600
C 	C 	0.39820 0.50000 0.70420 0.06800
H 	H 	0.40860 0.50000 0.72110 0.01600
O 	O 	0.95731 0.00000 0.65397 -0.48100
O 	O 	0.95752 0.00000 0.70179 -0.48600
C 	C 	0.94530 0.00000 0.67810 0.40600
C 	C 	0.91310 -0.00000 0.67820 -0.12500
C 	C 	0.89810 0.00000 0.65240 0.00900
H 	H 	0.90770 0.00000 0.63510 0.03800
C 	C 	0.86870 0.00000 0.65340 -0.03400
C 	C 	0.85430 0.00000 0.68010 0.10900
C 	C 	0.86920 0.00000 0.70570 -0.16200
H 	H 	0.85970 0.00000 0.72320 0.08500
C 	C 	0.89820 0.00000 0.70420 0.06700
H 	H 	0.90860 0.00000 0.72110 0.01600
O 	O 	0.95731 0.50000 0.15397 -0.48100
O 	O 	0.95752 0.50000 0.20179 -0.48500
C 	C 	0.94530 0.50000 0.17810 0.40600
C 	C 	0.91310 0.50000 0.17820 -0.12500
C 	C 	0.89810 0.50000 0.15240 0.00900
H 	H 	0.90770 0.50000 0.13510 0.03900
C 	C 	0.86870 0.50000 0.15340 -0.03400
C 	C 	0.85430 0.50000 0.18010 0.11000
C 	C 	0.86920 0.50000 0.20570 -0.16200
H 	H 	0.85970 0.50000 0.22320 0.08600
C 	C 	0.89820 0.50000 0.20420 0.06700
H 	H 	0.90860 0.50000 0.22110 0.01600
O 	O 	0.84603 0.45731 -0.00000 -0.48200
O 	O 	0.79821 0.45752 -0.00000 -0.48700
C 	C 	0.82190 0.44530 -0.00000 0.40600
C 	C 	0.82180 0.41310 -0.00000 -0.12500
C 	C 	0.84760 0.39810 -0.00000 0.00900
H 	H 	0.86490 0.40770 -0.00000 0.03800
C 	C 	0.84660 0.36870 -0.00000 -0.03500
C 	C 	0.81990 0.35430 -0.00000 0.11000
C 	C 	0.79430 0.36920 -0.00000 -0.16200
H 	H 	0.77680 0.35970 -0.00000 0.08500
C 	C 	0.79580 0.39820 -0.00000 0.06700
H 	H 	0.77890 0.40860 -0.00000 0.01500
O 	O 	0.84603 0.95731 0.50000 -0.48000
O 	O 	0.79821 0.95752 0.50000 -0.48500
C 	C 	0.82190 0.94530 0.50000 0.40600
C 	C 	0.82180 0.91310 0.50000 -0.12500
C 	C 	0.84760 0.89810 0.50000 0.00900
H 	H 	0.86490 0.90770 0.50000 0.03900
C 	C 	0.84660 0.86870 0.50000 -0.03400
C 	C 	0.81990 0.85430 0.50000 0.11000
C 	C 	0.79430 0.86920 0.50000 -0.16200
H 	H 	0.77680 0.85970 0.50000 0.08600
C 	C 	0.79580 0.89820 0.50000 0.06700
H 	H 	0.77890 0.90860 0.50000 0.01600
O 	O 	0.34603 0.45731 0.50000 -0.48200
O 	O 	0.29821 0.45752 0.50000 -0.48700
C 	C 	0.32190 0.44530 0.50000 0.40600
C 	C 	0.32180 0.41310 0.50000 -0.12500
C 	C 	0.34760 0.39810 0.50000 0.00900
H 	H 	0.36490 0.40770 0.50000 0.03800
C 	C 	0.34660 0.36870 0.50000 -0.03400
C 	C 	0.31990 0.35430 0.50000 0.11000
C 	C 	0.29430 0.36920 0.50000 -0.16200
H 	H 	0.27680 0.35970 0.50000 0.08600
C 	C 	0.29580 0.39820 0.50000 0.06800
H 	H 	0.27890 0.40860 0.50000 0.01500
O 	O 	0.34603 0.95731 -0.00000 -0.48100
O 	O 	0.29821 0.95752 -0.00000 -0.48600
C 	C 	0.32190 0.94530 -0.00000 0.40600
C 	C 	0.32180 0.91310 -0.00000 -0.12500
C 	C 	0.34760 0.89810 -0.00000 0.00900
H 	H 	0.36490 0.90770 -0.00000 0.03800
C 	C 	0.34660 0.86870 -0.00000 -0.03400
C 	C 	0.31990 0.85430 -0.00000 0.10900
C 	C 	0.29430 0.86920 -0.00000 -0.16200
H 	H 	0.27680 0.85970 -0.00000 0.08500
C 	C 	0.29580 0.89820 -0.00000 0.06700
H 	H 	0.27890 0.90860 -0.00000 0.01600
O 	O 	0.84603 0.54269 -0.00000 -0.48200
O 	O 	0.79821 0.54248 -0.00000 -0.48700
C 	C 	0.82190 0.55470 -0.00000 0.40600
C 	C 	0.82180 0.58690 -0.00000 -0.12500
C 	C 	0.84760 0.60190 -0.00000 0.00900
H 	H 	0.86490 0.59230 -0.00000 0.03800
C 	C 	0.84660 0.63130 -0.00000 -0.03500
C 	C 	0.81990 0.64570 -0.00000 0.11000
C 	C 	0.79430 0.63080 -0.00000 -0.16200
H 	H 	0.77680 0.64030 -0.00000 0.08500
C 	C 	0.79580 0.60180 -0.00000 0.06700
H 	H 	0.77890 0.59140 -0.00000 0.01500
O 	O 	0.84603 0.04269 0.50000 -0.48200
O 	O 	0.79821 0.04248 0.50000 -0.48700
C 	C 	0.82190 0.05470 0.50000 0.40600
C 	C 	0.82180 0.08690 0.50000 -0.12500
C 	C 	0.84760 0.10190 0.50000 0.00900
H 	H 	0.86490 0.09230 0.50000 0.03800
C 	C 	0.84660 0.13130 0.50000 -0.03400
C 	C 	0.81990 0.14570 0.50000 0.11000
C 	C 	0.79430 0.13080 0.50000 -0.16200
H 	H 	0.77680 0.14030 0.50000 0.08500
C 	C 	0.79580 0.10180 0.50000 0.06800
H 	H 	0.77890 0.09140 0.50000 0.01500
O 	O 	0.34603 0.54269 0.50000 -0.48200
O 	O 	0.29821 0.54248 0.50000 -0.48700
C 	C 	0.32190 0.55470 0.50000 0.40600
C 	C 	0.32180 0.58690 0.50000 -0.12500
C 	C 	0.34760 0.60190 0.50000 0.00900
H 	H 	0.36490 0.59230 0.50000 0.03800
C 	C 	0.34660 0.63130 0.50000 -0.03400
C 	C 	0.31990 0.64570 0.50000 0.11000
C 	C 	0.29430 0.63080 0.50000 -0.16200
H 	H 	0.27680 0.64030 0.50000 0.08600
C 	C 	0.29580 0.60180 0.50000 0.06800
H 	H 	0.27890 0.59140 0.50000 0.01500
O 	O 	0.34603 0.04269 -0.00000 -0.48200
O 	O 	0.29821 0.04248 -0.00000 -0.48700
C 	C 	0.32190 0.05470 -0.00000 0.40600
C 	C 	0.32180 0.08690 -0.00000 -0.12600
C 	C 	0.34760 0.10190 -0.00000 0.00900
H 	H 	0.36490 0.09230 -0.00000 0.03800
C 	C 	0.34660 0.13130 -0.00000 -0.03500
C 	C 	0.31990 0.14570 -0.00000 0.11000
C 	C 	0.29430 0.13080 -0.00000 -0.16200
H 	H 	0.27680 0.14030 -0.00000 0.08500
C 	C 	0.29580 0.10180 -0.00000 0.06700
H 	H 	0.27890 0.09140 -0.00000 0.01500
O 	O 	0.15397 0.54269 -0.00000 -0.48200
O 	O 	0.20179 0.54248 -0.00000 -0.48700
C 	C 	0.17810 0.55470 -0.00000 0.40600
C 	C 	0.17820 0.58690 -0.00000 -0.12600
C 	C 	0.15240 0.60190 -0.00000 0.00900
H 	H 	0.13510 0.59230 -0.00000 0.03800
C 	C 	0.15340 0.63130 -0.00000 -0.03500
C 	C 	0.18010 0.64570 -0.00000 0.11000
C 	C 	0.20570 0.63080 -0.00000 -0.16200
H 	H 	0.22320 0.64030 -0.00000 0.08500
C 	C 	0.20420 0.60180 -0.00000 0.06700
H 	H 	0.22110 0.59140 -0.00000 0.01500
O 	O 	0.15397 0.04269 0.50000 -0.48200
O 	O 	0.20179 0.04248 0.50000 -0.48700
C 	C 	0.17810 0.05470 0.50000 0.40600
C 	C 	0.17820 0.08690 0.50000 -0.12500
C 	C 	0.15240 0.10190 0.50000 0.00900
H 	H 	0.13510 0.09230 0.50000 0.03800
C 	C 	0.15340 0.13130 0.50000 -0.03400
C 	C 	0.18010 0.14570 0.50000 0.11000
C 	C 	0.20570 0.13080 0.50000 -0.16200
H 	H 	0.22320 0.14030 0.50000 0.08600
C 	C 	0.20420 0.10180 0.50000 0.06800
H 	H 	0.22110 0.09140 0.50000 0.01500
O 	O 	0.65397 0.54269 0.50000 -0.48200
O 	O 	0.70179 0.54248 0.50000 -0.48600
C 	C 	0.67810 0.55470 0.50000 0.40600
C 	C 	0.67820 0.58690 0.50000 -0.12500
C 	C 	0.65240 0.60190 0.50000 0.00900
H 	H 	0.63510 0.59230 0.50000 0.03800
C 	C 	0.65340 0.63130 0.50000 -0.03400
C 	C 	0.68010 0.64570 0.50000 0.11000
C 	C 	0.70570 0.63080 0.50000 -0.16200
H 	H 	0.72320 0.64030 0.50000 0.08600
C 	C 	0.70420 0.60180 0.50000 0.06800
H 	H 	0.72110 0.59140 0.50000 0.01600
O 	O 	0.65397 0.04269 -0.00000 -0.48200
O 	O 	0.70179 0.04248 -0.00000 -0.48700
C 	C 	0.67810 0.05470 -0.00000 0.40600
C 	C 	0.67820 0.08690 -0.00000 -0.12600
C 	C 	0.65240 0.10190 -0.00000 0.00900
H 	H 	0.63510 0.09230 -0.00000 0.03800
C 	C 	0.65340 0.13130 -0.00000 -0.03500
C 	C 	0.68010 0.14570 -0.00000 0.11000
C 	C 	0.70570 0.13080 -0.00000 -0.16200
H 	H 	0.72320 0.14030 -0.00000 0.08500
C 	C 	0.70420 0.10180 -0.00000 0.06700
H 	H 	0.72110 0.09140 -0.00000 0.01500
O 	O 	0.15397 0.45731 -0.00000 -0.48200
O 	O 	0.20179 0.45752 -0.00000 -0.48700
C 	C 	0.17810 0.44530 -0.00000 0.40600
C 	C 	0.17820 0.41310 -0.00000 -0.12600
C 	C 	0.15240 0.39810 -0.00000 0.00900
H 	H 	0.13510 0.40770 -0.00000 0.03800
C 	C 	0.15340 0.36870 -0.00000 -0.03500
C 	C 	0.18010 0.35430 -0.00000 0.11000
C 	C 	0.20570 0.36920 -0.00000 -0.16200
H 	H 	0.22320 0.35970 -0.00000 0.08500
C 	C 	0.20420 0.39820 -0.00000 0.06700
H 	H 	0.22110 0.40860 -0.00000 0.01500
O 	O 	0.15397 0.95731 0.50000 -0.48100
O 	O 	0.20179 0.95752 0.50000 -0.48500
C 	C 	0.17810 0.94530 0.50000 0.40600
C 	C 	0.17820 0.91310 0.50000 -0.12500
C 	C 	0.15240 0.89810 0.50000 0.00900
H 	H 	0.13510 0.90770 0.50000 0.03900
C 	C 	0.15340 0.86870 0.50000 -0.03400
C 	C 	0.18010 0.85430 0.50000 0.11000
C 	C 	0.20570 0.86920 0.50000 -0.16200
H 	H 	0.22320 0.85970 0.50000 0.08600
C 	C 	0.20420 0.89820 0.50000 0.06700
H 	H 	0.22110 0.90860 0.50000 0.01600
O 	O 	0.65397 0.45731 0.50000 -0.48200
O 	O 	0.70179 0.45752 0.50000 -0.48600
C 	C 	0.67810 0.44530 0.50000 0.40600
C 	C 	0.67820 0.41310 0.50000 -0.12500
C 	C 	0.65240 0.39810 0.50000 0.00900
H 	H 	0.63510 0.40770 0.50000 0.03800
C 	C 	0.65340 0.36870 0.50000 -0.03400
C 	C 	0.68010 0.35430 0.50000 0.11000
C 	C 	0.70570 0.36920 0.50000 -0.16200
H 	H 	0.72320 0.35970 0.50000 0.08600
C 	C 	0.70420 0.39820 0.50000 0.06800
H 	H 	0.72110 0.40860 0.50000 0.01600
O 	O 	0.65397 0.95731 -0.00000 -0.48100
O 	O 	0.70179 0.95752 -0.00000 -0.48600
C 	C 	0.67810 0.94530 -0.00000 0.40600
C 	C 	0.67820 0.91310 -0.00000 -0.12500
C 	C 	0.65240 0.89810 -0.00000 0.00900
H 	H 	0.63510 0.90770 -0.00000 0.03800
C 	C 	0.65340 0.86870 -0.00000 -0.03400
C 	C 	0.68010 0.85430 -0.00000 0.10900
C 	C 	0.70570 0.86920 -0.00000 -0.16200
H 	H 	0.72320 0.85970 -0.00000 0.08500
C 	C 	0.70420 0.89820 -0.00000 0.06700
H 	H 	0.72110 0.90860 -0.00000 0.01600
O 	O 	-0.00000 0.84603 0.45731 -0.48200
O 	O 	0.00000 0.79821 0.45752 -0.48700
C 	C 	0.00000 0.82190 0.44530 0.40600
C 	C 	-0.00000 0.82180 0.41310 -0.12500
C 	C 	-0.00000 0.84760 0.39810 0.00900
H 	H 	-0.00000 0.86490 0.40770 0.03800
C 	C 	-0.00000 0.84660 0.36870 -0.03500
C 	C 	0.00000 0.81990 0.35430 0.11000
C 	C 	0.00000 0.79430 0.36920 -0.16200
H 	H 	0.00000 0.77680 0.35970 0.08500
C 	C 	0.00000 0.79580 0.39820 0.06700
H 	H 	-0.00000 0.77890 0.40860 0.01500
O 	O 	-0.00000 0.34603 0.95731 -0.48100
O 	O 	-0.00000 0.29821 0.95752 -0.48600
C 	C 	-0.00000 0.32190 0.94530 0.40600
C 	C 	-0.00000 0.32180 0.91310 -0.12500
C 	C 	-0.00000 0.34760 0.89810 0.00900
H 	H 	0.00000 0.36490 0.90770 0.03800
C 	C 	-0.00000 0.34660 0.86870 -0.03400
C 	C 	-0.00000 0.31990 0.85430 0.10900
C 	C 	0.00000 0.29430 0.86920 -0.16200
H 	H 	0.00000 0.27680 0.85970 0.08500
C 	C 	-0.00000 0.29580 0.89820 0.06700
H 	H 	0.00000 0.27890 0.90860 0.01600
O 	O 	0.50000 0.84603 0.95731 -0.48000
O 	O 	0.50000 0.79821 0.95752 -0.48500
C 	C 	0.50000 0.82190 0.94530 0.40600
C 	C 	0.50000 0.82180 0.91310 -0.12500
C 	C 	0.50000 0.84760 0.89810 0.00900
H 	H 	0.50000 0.86490 0.90770 0.03900
C 	C 	0.50000 0.84660 0.86870 -0.03400
C 	C 	0.50000 0.81990 0.85430 0.11000
C 	C 	0.50000 0.79430 0.86920 -0.16200
H 	H 	0.50000 0.77680 0.85970 0.08600
C 	C 	0.50000 0.79580 0.89820 0.06700
H 	H 	0.50000 0.77890 0.90860 0.01600
O 	O 	0.50000 0.34603 0.45731 -0.48200
O 	O 	0.50000 0.29821 0.45752 -0.48700
C 	C 	0.50000 0.32190 0.44530 0.40600
C 	C 	0.50000 0.32180 0.41310 -0.12500
C 	C 	0.50000 0.34760 0.39810 0.00900
H 	H 	0.50000 0.36490 0.40770 0.03800
C 	C 	0.50000 0.34660 0.36870 -0.03400
C 	C 	0.50000 0.31990 0.35430 0.11000
C 	C 	0.50000 0.29430 0.36920 -0.16200
H 	H 	0.50000 0.27680 0.35970 0.08600
C 	C 	0.50000 0.29580 0.39820 0.06800
H 	H 	0.50000 0.27890 0.40860 0.01500
O 	O 	-0.00000 0.84603 0.54269 -0.48200
O 	O 	-0.00000 0.79821 0.54248 -0.48700
C 	C 	-0.00000 0.82190 0.55470 0.40600
C 	C 	-0.00000 0.82180 0.58690 -0.12500
C 	C 	-0.00000 0.84760 0.60190 0.00900
H 	H 	0.00000 0.86490 0.59230 0.03800
C 	C 	-0.00000 0.84660 0.63130 -0.03500
C 	C 	-0.00000 0.81990 0.64570 0.11000
C 	C 	0.00000 0.79430 0.63080 -0.16200
H 	H 	0.00000 0.77680 0.64030 0.08500
C 	C 	-0.00000 0.79580 0.60180 0.06700
H 	H 	0.00000 0.77890 0.59140 0.01500
O 	O 	-0.00000 0.34603 0.04269 -0.48200
O 	O 	0.00000 0.29821 0.04248 -0.48700
C 	C 	-0.00000 0.32190 0.05470 0.40600
C 	C 	-0.00000 0.32180 0.08690 -0.12600
C 	C 	-0.00000 0.34760 0.10190 0.00900
H 	H 	0.00000 0.36490 0.09230 0.03800
C 	C 	-0.00000 0.34660 0.13130 -0.03500
C 	C 	-0.00000 0.31990 0.14570 0.11000
C 	C 	0.00000 0.29430 0.13080 -0.16200
H 	H 	0.00000 0.27680 0.14030 0.08500
C 	C 	0.00000 0.29580 0.10180 0.06700
H 	H 	-0.00000 0.27890 0.09140 0.01500
O 	O 	0.50000 0.84603 0.04269 -0.48200
O 	O 	0.50000 0.79821 0.04248 -0.48700
C 	C 	0.50000 0.82190 0.05470 0.40600
C 	C 	0.50000 0.82180 0.08690 -0.12500
C 	C 	0.50000 0.84760 0.10190 0.00900
H 	H 	0.50000 0.86490 0.09230 0.03800
C 	C 	0.50000 0.84660 0.13130 -0.03400
C 	C 	0.50000 0.81990 0.14570 0.11000
C 	C 	0.50000 0.79430 0.13080 -0.16200
H 	H 	0.50000 0.77680 0.14030 0.08500
C 	C 	0.50000 0.79580 0.10180 0.06800
H 	H 	0.50000 0.77890 0.09140 0.01500
O 	O 	0.50000 0.34603 0.54269 -0.48200
O 	O 	0.50000 0.29821 0.54248 -0.48700
C 	C 	0.50000 0.32190 0.55470 0.40600
C 	C 	0.50000 0.32180 0.58690 -0.12500
C 	C 	0.50000 0.34760 0.60190 0.00900
H 	H 	0.50000 0.36490 0.59230 0.03800
C 	C 	0.50000 0.34660 0.63130 -0.03400
C 	C 	0.50000 0.31990 0.64570 0.11000
C 	C 	0.50000 0.29430 0.63080 -0.16200
H 	H 	0.50000 0.27680 0.64030 0.08600
C 	C 	0.50000 0.29580 0.60180 0.06800
H 	H 	0.50000 0.27890 0.59140 0.01500
O 	O 	-0.00000 0.15397 0.54269 -0.48200
O 	O 	0.00000 0.20179 0.54248 -0.48700
C 	C 	-0.00000 0.17810 0.55470 0.40600
C 	C 	-0.00000 0.17820 0.58690 -0.12600
C 	C 	0.00000 0.15240 0.60190 0.00900
H 	H 	0.00000 0.13510 0.59230 0.03800
C 	C 	-0.00000 0.15340 0.63130 -0.03500
C 	C 	-0.00000 0.18010 0.64570 0.11000
C 	C 	-0.00000 0.20570 0.63080 -0.16200
H 	H 	0.00000 0.22320 0.64030 0.08500
C 	C 	-0.00000 0.20420 0.60180 0.06700
H 	H 	-0.00000 0.22110 0.59140 0.01500
O 	O 	0.00000 0.65397 0.04269 -0.48200
O 	O 	0.00000 0.70179 0.04248 -0.48700
C 	C 	-0.00000 0.67810 0.05470 0.40600
C 	C 	-0.00000 0.67820 0.08690 -0.12600
C 	C 	-0.00000 0.65240 0.10190 0.00900
H 	H 	0.00000 0.63510 0.09230 0.03800
C 	C 	-0.00000 0.65340 0.13130 -0.03500
C 	C 	-0.00000 0.68010 0.14570 0.11000
C 	C 	-0.00000 0.70570 0.13080 -0.16200
H 	H 	0.00000 0.72320 0.14030 0.08500
C 	C 	-0.00000 0.70420 0.10180 0.06700
H 	H 	0.00000 0.72110 0.09140 0.01500
O 	O 	0.50000 0.15397 0.04269 -0.48200
O 	O 	0.50000 0.20179 0.04248 -0.48700
C 	C 	0.50000 0.17810 0.05470 0.40600
C 	C 	0.50000 0.17820 0.08690 -0.12500
C 	C 	0.50000 0.15240 0.10190 0.00900
H 	H 	0.50000 0.13510 0.09230 0.03800
C 	C 	0.50000 0.15340 0.13130 -0.03400
C 	C 	0.50000 0.18010 0.14570 0.11000
C 	C 	0.50000 0.20570 0.13080 -0.16200
H 	H 	0.50000 0.22320 0.14030 0.08600
C 	C 	0.50000 0.20420 0.10180 0.06800
H 	H 	0.50000 0.22110 0.09140 0.01500
O 	O 	0.50000 0.65397 0.54269 -0.48200
O 	O 	0.50000 0.70179 0.54248 -0.48600
C 	C 	0.50000 0.67810 0.55470 0.40600
C 	C 	0.50000 0.67820 0.58690 -0.12500
C 	C 	0.50000 0.65240 0.60190 0.00900
H 	H 	0.50000 0.63510 0.59230 0.03800
C 	C 	0.50000 0.65340 0.63130 -0.03400
C 	C 	0.50000 0.68010 0.64570 0.11000
C 	C 	0.50000 0.70570 0.63080 -0.16200
H 	H 	0.50000 0.72320 0.64030 0.08600
C 	C 	0.50000 0.70420 0.60180 0.06800
H 	H 	0.50000 0.72110 0.59140 0.01600
O 	O 	0.00000 0.15397 0.45731 -0.48200
O 	O 	-0.00000 0.20179 0.45752 -0.48700
C 	C 	0.00000 0.17810 0.44530 0.40600
C 	C 	-0.00000 0.17820 0.41310 -0.12600
C 	C 	-0.00000 0.15240 0.39810 0.00900
H 	H 	-0.00000 0.13510 0.40770 0.03800
C 	C 	0.00000 0.15340 0.36870 -0.03500
C 	C 	-0.00000 0.18010 0.35430 0.11000
C 	C 	0.00000 0.20570 0.36920 -0.16200
H 	H 	-0.00000 0.22320 0.35970 0.08500
C 	C 	0.00000 0.20420 0.39820 0.06700
H 	H 	0.00000 0.22110 0.40860 0.01500
O 	O 	-0.00000 0.65397 0.95731 -0.48100
O 	O 	0.00000 0.70179 0.95752 -0.48600
C 	C 	-0.00000 0.67810 0.94530 0.40600
C 	C 	0.00000 0.67820 0.91310 -0.12500
C 	C 	-0.00000 0.65240 0.89810 0.00900
H 	H 	-0.00000 0.63510 0.90770 0.03800
C 	C 	-0.00000 0.65340 0.86870 -0.03400
C 	C 	-0.00000 0.68010 0.85430 0.10900
C 	C 	-0.00000 0.70570 0.86920 -0.16200
H 	H 	0.00000 0.72320 0.85970 0.08500
C 	C 	-0.00000 0.70420 0.89820 0.06700
H 	H 	0.00000 0.72110 0.90860 0.01600
O 	O 	0.50000 0.15397 0.95731 -0.48100
O 	O 	0.50000 0.20179 0.95752 -0.48500
C 	C 	0.50000 0.17810 0.94530 0.40600
C 	C 	0.50000 0.17820 0.91310 -0.12500
C 	C 	0.50000 0.15240 0.89810 0.00900
H 	H 	0.50000 0.13510 0.90770 0.03900
C 	C 	0.50000 0.15340 0.86870 -0.03400
C 	C 	0.50000 0.18010 0.85430 0.11000
C 	C 	0.50000 0.20570 0.86920 -0.16200
H 	H 	0.50000 0.22320 0.85970 0.08600
C 	C 	0.50000 0.20420 0.89820 0.06700
H 	H 	0.50000 0.22110 0.90860 0.01600
O 	O 	0.50000 0.65397 0.45731 -0.48200
O 	O 	0.50000 0.70179 0.45752 -0.48600
C 	C 	0.50000 0.67810 0.44530 0.40600
C 	C 	0.50000 0.67820 0.41310 -0.12500
C 	C 	0.50000 0.65240 0.39810 0.00900
H 	H 	0.50000 0.63510 0.40770 0.03800
C 	C 	0.50000 0.65340 0.36870 -0.03400
C 	C 	0.50000 0.68010 0.35430 0.11000
C 	C 	0.50000 0.70570 0.36920 -0.16200
H 	H 	0.50000 0.72320 0.35970 0.08600
C 	C 	0.50000 0.70420 0.39820 0.06800
H 	H 	0.50000 0.72110 0.40860 0.01600
O 	O 	0.00000 0.45731 0.15397 -0.48200
O 	O 	0.00000 0.45752 0.20179 -0.48700
C 	C 	0.00000 0.44530 0.17810 0.40600
C 	C 	0.00000 0.41310 0.17820 -0.12600
C 	C 	-0.00000 0.39810 0.15240 0.00900
H 	H 	-0.00000 0.40770 0.13510 0.03800
C 	C 	0.00000 0.36870 0.15340 -0.03500
C 	C 	-0.00000 0.35430 0.18010 0.11000
C 	C 	0.00000 0.36920 0.20570 -0.16200
H 	H 	-0.00000 0.35970 0.22320 0.08500
C 	C 	0.00000 0.39820 0.20420 0.06700
H 	H 	0.00000 0.40860 0.22110 0.01500
O 	O 	-0.00000 0.95731 0.65397 -0.48100
O 	O 	0.00000 0.95752 0.70179 -0.48600
C 	C 	0.00000 0.94530 0.67810 0.40600
C 	C 	0.00000 0.91310 0.67820 -0.12500
C 	C 	0.00000 0.89810 0.65240 0.00900
H 	H 	0.00000 0.90770 0.63510 0.03800
C 	C 	-0.00000 0.86870 0.65340 -0.03400
C 	C 	-0.00000 0.85430 0.68010 0.10900
C 	C 	-0.00000 0.86920 0.70570 -0.16200
H 	H 	0.00000 0.85970 0.72320 0.08500
C 	C 	-0.00000 0.89820 0.70420 0.06700
H 	H 	0.00000 0.90860 0.72110 0.01600
O 	O 	0.50000 0.45731 0.65397 -0.48200
O 	O 	0.50000 0.45752 0.70179 -0.48600
C 	C 	0.50000 0.44530 0.67810 0.40600
C 	C 	0.50000 0.41310 0.67820 -0.12500
C 	C 	0.50000 0.39810 0.65240 0.00900
H 	H 	0.50000 0.40770 0.63510 0.03800
C 	C 	0.50000 0.36870 0.65340 -0.03400
C 	C 	0.50000 0.35430 0.68010 0.11000
C 	C 	0.50000 0.36920 0.70570 -0.16200
H 	H 	0.50000 0.35970 0.72320 0.08600
C 	C 	0.50000 0.39820 0.70420 0.06800
H 	H 	0.50000 0.40860 0.72110 0.01600
O 	O 	0.50000 0.95731 0.15397 -0.48100
O 	O 	0.50000 0.95752 0.20179 -0.48500
C 	C 	0.50000 0.94530 0.17810 0.40600
C 	C 	0.50000 0.91310 0.17820 -0.12500
C 	C 	0.50000 0.89810 0.15240 0.00900
H 	H 	0.50000 0.90770 0.13510 0.03900
C 	C 	0.50000 0.86870 0.15340 -0.03400
C 	C 	0.50000 0.85430 0.18010 0.11000
C 	C 	0.50000 0.86920 0.20570 -0.16200
H 	H 	0.50000 0.85970 0.22320 0.08600
C 	C 	0.50000 0.89820 0.20420 0.06700
H 	H 	0.50000 0.90860 0.22110 0.01600
O 	O 	0.00000 0.54269 0.15397 -0.48200
O 	O 	0.00000 0.54248 0.20179 -0.48700
C 	C 	-0.00000 0.55470 0.17810 0.40600
C 	C 	-0.00000 0.58690 0.17820 -0.12600
C 	C 	0.00000 0.60190 0.15240 0.00900
H 	H 	0.00000 0.59230 0.13510 0.03800
C 	C 	-0.00000 0.63130 0.15340 -0.03500
C 	C 	-0.00000 0.64570 0.18010 0.11000
C 	C 	-0.00000 0.63080 0.20570 -0.16200
H 	H 	0.00000 0.64030 0.22320 0.08500
C 	C 	-0.00000 0.60180 0.20420 0.06700
H 	H 	-0.00000 0.59140 0.22110 0.01500
O 	O 	0.00000 0.04269 0.65397 -0.48200
O 	O 	0.00000 0.04248 0.70179 -0.48700
C 	C 	-0.00000 0.05470 0.67810 0.40600
C 	C 	-0.00000 0.08690 0.67820 -0.12600
C 	C 	0.00000 0.10190 0.65240 0.00900
H 	H 	0.00000 0.09230 0.63510 0.03800
C 	C 	-0.00000 0.13130 0.65340 -0.03500
C 	C 	-0.00000 0.14570 0.68010 0.11000
C 	C 	-0.00000 0.13080 0.70570 -0.16200
H 	H 	0.00000 0.14030 0.72320 0.08500
C 	C 	-0.00000 0.10180 0.70420 0.06700
H 	H 	0.00000 0.09140 0.72110 0.01500
O 	O 	0.50000 0.54269 0.65397 -0.48200
O 	O 	0.50000 0.54248 0.70179 -0.48600
C 	C 	0.50000 0.55470 0.67810 0.40600
C 	C 	0.50000 0.58690 0.67820 -0.12500
C 	C 	0.50000 0.60190 0.65240 0.00900
H 	H 	0.50000 0.59230 0.63510 0.03800
C 	C 	0.50000 0.63130 0.65340 -0.03400
C 	C 	0.50000 0.64570 0.68010 0.11000
C 	C 	0.50000 0.63080 0.70570 -0.16200
H 	H 	0.50000 0.64030 0.72320 0.08600
C 	C 	0.50000 0.60180 0.70420 0.06800
H 	H 	0.50000 0.59140 0.72110 0.01600
O 	O 	0.50000 0.04269 0.15397 -0.48200
O 	O 	0.50000 0.04248 0.20179 -0.48700
C 	C 	0.50000 0.05470 0.17810 0.40600
C 	C 	0.50000 0.08690 0.17820 -0.12500
C 	C 	0.50000 0.10190 0.15240 0.00900
H 	H 	0.50000 0.09230 0.13510 0.03800
C 	C 	0.50000 0.13130 0.15340 -0.03400
C 	C 	0.50000 0.14570 0.18010 0.11000
C 	C 	0.50000 0.13080 0.20570 -0.16200
H 	H 	0.50000 0.14030 0.22320 0.08600
C 	C 	0.50000 0.10180 0.20420 0.06800
H 	H 	0.50000 0.09140 0.22110 0.01500
O 	O 	-0.00000 0.54269 0.84603 -0.48200
O 	O 	-0.00000 0.54248 0.79821 -0.48700
C 	C 	-0.00000 0.55470 0.82190 0.40600
C 	C 	-0.00000 0.58690 0.82180 -0.12500
C 	C 	-0.00000 0.60190 0.84760 0.00900
H 	H 	0.00000 0.59230 0.86490 0.03800
C 	C 	-0.00000 0.63130 0.84660 -0.03500
C 	C 	-0.00000 0.64570 0.81990 0.11000
C 	C 	0.00000 0.63080 0.79430 -0.16200
H 	H 	0.00000 0.64030 0.77680 0.08500
C 	C 	-0.00000 0.60180 0.79580 0.06700
H 	H 	-0.00000 0.59140 0.77890 0.01500
O 	O 	-0.00000 0.04269 0.34603 -0.48200
O 	O 	0.00000 0.04248 0.29821 -0.48700
C 	C 	-0.00000 0.05470 0.32190 0.40600
C 	C 	-0.00000 0.08690 0.32180 -0.12600
C 	C 	-0.00000 0.10190 0.34760 0.00900
H 	H 	0.00000 0.09230 0.36490 0.03800
C 	C 	-0.00000 0.13130 0.34660 -0.03500
C 	C 	-0.00000 0.14570 0.31990 0.11000
C 	C 	0.00000 0.13080 0.29430 -0.16200
H 	H 	0.00000 0.14030 0.27680 0.08500
C 	C 	0.00000 0.10180 0.29580 0.06700
H 	H 	-0.00000 0.09140 0.27890 0.01500
O 	O 	0.50000 0.54269 0.34603 -0.48200
O 	O 	0.50000 0.54248 0.29821 -0.48700
C 	C 	0.50000 0.55470 0.32190 0.40600
C 	C 	0.50000 0.58690 0.32180 -0.12500
C 	C 	0.50000 0.60190 0.34760 0.00900
H 	H 	0.50000 0.59230 0.36490 0.03800
C 	C 	0.50000 0.63130 0.34660 -0.03400
C 	C 	0.50000 0.64570 0.31990 0.11000
C 	C 	0.50000 0.63080 0.29430 -0.16200
H 	H 	0.50000 0.64030 0.27680 0.08600
C 	C 	0.50000 0.60180 0.29580 0.06800
H 	H 	0.50000 0.59140 0.27890 0.01500
O 	O 	0.50000 0.04269 0.84603 -0.48200
O 	O 	0.50000 0.04248 0.79821 -0.48700
C 	C 	0.50000 0.05470 0.82190 0.40600
C 	C 	0.50000 0.08690 0.82180 -0.12500
C 	C 	0.50000 0.10190 0.84760 0.00900
H 	H 	0.50000 0.09230 0.86490 0.03800
C 	C 	0.50000 0.13130 0.84660 -0.03400
C 	C 	0.50000 0.14570 0.81990 0.11000
C 	C 	0.50000 0.13080 0.79430 -0.16200
H 	H 	0.50000 0.14030 0.77680 0.08500
C 	C 	0.50000 0.10180 0.79580 0.06800
H 	H 	0.50000 0.09140 0.77890 0.01500
O 	O 	-0.00000 0.45731 0.84603 -0.48200
O 	O 	0.00000 0.45752 0.79821 -0.48700
C 	C 	0.00000 0.44530 0.82190 0.40600
C 	C 	-0.00000 0.41310 0.82180 -0.12500
C 	C 	-0.00000 0.39810 0.84760 0.00900
H 	H 	-0.00000 0.40770 0.86490 0.03800
C 	C 	-0.00000 0.36870 0.84660 -0.03500
C 	C 	0.00000 0.35430 0.81990 0.11000
C 	C 	0.00000 0.36920 0.79430 -0.16200
H 	H 	0.00000 0.35970 0.77680 0.08500
C 	C 	0.00000 0.39820 0.79580 0.06700
H 	H 	-0.00000 0.40860 0.77890 0.01500
O 	O 	-0.00000 0.95731 0.34603 -0.48100
O 	O 	-0.00000 0.95752 0.29821 -0.48600
C 	C 	-0.00000 0.94530 0.32190 0.40600
C 	C 	-0.00000 0.91310 0.32180 -0.12500
C 	C 	-0.00000 0.89810 0.34760 0.00900
H 	H 	0.00000 0.90770 0.36490 0.03800
C 	C 	-0.00000 0.86870 0.34660 -0.03400
C 	C 	-0.00000 0.85430 0.31990 0.10900
C 	C 	0.00000 0.86920 0.29430 -0.16200
H 	H 	0.00000 0.85970 0.27680 0.08500
C 	C 	-0.00000 0.89820 0.29580 0.06700
H 	H 	0.00000 0.90860 0.27890 0.01600
O 	O 	0.50000 0.45731 0.34603 -0.48200
O 	O 	0.50000 0.45752 0.29821 -0.48700
C 	C 	0.50000 0.44530 0.32190 0.40600
C 	C 	0.50000 0.41310 0.32180 -0.12500
C 	C 	0.50000 0.39810 0.34760 0.00900
H 	H 	0.50000 0.40770 0.36490 0.03800
C 	C 	0.50000 0.36870 0.34660 -0.03400
C 	C 	0.50000 0.35430 0.31990 0.11000
C 	C 	0.50000 0.36920 0.29430 -0.16200
H 	H 	0.50000 0.35970 0.27680 0.08600
C 	C 	0.50000 0.39820 0.29580 0.06800
H 	H 	0.50000 0.40860 0.27890 0.01500
O 	O 	0.50000 0.95731 0.84603 -0.48000
O 	O 	0.50000 0.95752 0.79821 -0.48500
C 	C 	0.50000 0.94530 0.82190 0.40600
C 	C 	0.50000 0.91310 0.82180 -0.12500
C 	C 	0.50000 0.89810 0.84760 0.00900
H 	H 	0.50000 0.90770 0.86490 0.03900
C 	C 	0.50000 0.86870 0.84660 -0.03400
C 	C 	0.50000 0.85430 0.81990 0.11000
C 	C 	0.50000 0.86920 0.79430 -0.16200
H 	H 	0.50000 0.85970 0.77680 0.08600
C 	C 	0.50000 0.89820 0.79580 0.06700
H 	H 	0.50000 0.90860 0.77890 0.01600
O 	O 	0.45731 0.84603 -0.00000 -0.48200
O 	O 	0.45752 0.79821 -0.00000 -0.48700
C 	C 	0.44530 0.82190 -0.00000 0.40600
C 	C 	0.41310 0.82180 -0.00000 -0.12500
C 	C 	0.39810 0.84760 -0.00000 0.00900
H 	H 	0.40770 0.86490 -0.00000 0.03800
C 	C 	0.36870 0.84660 -0.00000 -0.03500
C 	C 	0.35430 0.81990 -0.00000 0.11000
C 	C 	0.36920 0.79430 -0.00000 -0.16200
H 	H 	0.35970 0.77680 -0.00000 0.08500
C 	C 	0.39820 0.79580 -0.00000 0.06700
H 	H 	0.40860 0.77890 -0.00000 0.01500
O 	O 	0.45731 0.34603 0.50000 -0.48200
O 	O 	0.45752 0.29821 0.50000 -0.48700
C 	C 	0.44530 0.32190 0.50000 0.40600
C 	C 	0.41310 0.32180 0.50000 -0.12500
C 	C 	0.39810 0.34760 0.50000 0.00900
H 	H 	0.40770 0.36490 0.50000 0.03800
C 	C 	0.36870 0.34660 0.50000 -0.03400
C 	C 	0.35430 0.31990 0.50000 0.11000
C 	C 	0.36920 0.29430 0.50000 -0.16200
H 	H 	0.35970 0.27680 0.50000 0.08600
C 	C 	0.39820 0.29580 0.50000 0.06800
H 	H 	0.40860 0.27890 0.50000 0.01500
O 	O 	0.95731 0.84603 0.50000 -0.48000
O 	O 	0.95752 0.79821 0.50000 -0.48500
C 	C 	0.94530 0.82190 0.50000 0.40600
C 	C 	0.91310 0.82180 0.50000 -0.12500
C 	C 	0.89810 0.84760 0.50000 0.00900
H 	H 	0.90770 0.86490 0.50000 0.03900
C 	C 	0.86870 0.84660 0.50000 -0.03400
C 	C 	0.85430 0.81990 0.50000 0.11000
C 	C 	0.86920 0.79430 0.50000 -0.16200
H 	H 	0.85970 0.77680 0.50000 0.08600
C 	C 	0.89820 0.79580 0.50000 0.06700
H 	H 	0.90860 0.77890 0.50000 0.01600
O 	O 	0.95731 0.34603 -0.00000 -0.48100
O 	O 	0.95752 0.29821 -0.00000 -0.48600
C 	C 	0.94530 0.32190 -0.00000 0.40600
C 	C 	0.91310 0.32180 -0.00000 -0.12500
C 	C 	0.89810 0.34760 -0.00000 0.00900
H 	H 	0.90770 0.36490 -0.00000 0.03800
C 	C 	0.86870 0.34660 -0.00000 -0.03400
C 	C 	0.85430 0.31990 -0.00000 0.10900
C 	C 	0.86920 0.29430 -0.00000 -0.16200
H 	H 	0.85970 0.27680 -0.00000 0.08500
C 	C 	0.89820 0.29580 -0.00000 0.06700
H 	H 	0.90860 0.27890 -0.00000 0.01600
O 	O 	0.54269 0.84603 -0.00000 -0.48200
O 	O 	0.54248 0.79821 -0.00000 -0.48700
C 	C 	0.55470 0.82190 -0.00000 0.40600
C 	C 	0.58690 0.82180 -0.00000 -0.12500
C 	C 	0.60190 0.84760 -0.00000 0.00900
H 	H 	0.59230 0.86490 -0.00000 0.03800
C 	C 	0.63130 0.84660 -0.00000 -0.03500
C 	C 	0.64570 0.81990 -0.00000 0.11000
C 	C 	0.63080 0.79430 -0.00000 -0.16200
H 	H 	0.64030 0.77680 -0.00000 0.08500
C 	C 	0.60180 0.79580 -0.00000 0.06700
H 	H 	0.59140 0.77890 -0.00000 0.01500
O 	O 	0.54269 0.34603 0.50000 -0.48200
O 	O 	0.54248 0.29821 0.50000 -0.48700
C 	C 	0.55470 0.32190 0.50000 0.40600
C 	C 	0.58690 0.32180 0.50000 -0.12500
C 	C 	0.60190 0.34760 0.50000 0.00900
H 	H 	0.59230 0.36490 0.50000 0.03800
C 	C 	0.63130 0.34660 0.50000 -0.03400
C 	C 	0.64570 0.31990 0.50000 0.11000
C 	C 	0.63080 0.29430 0.50000 -0.16200
H 	H 	0.64030 0.27680 0.50000 0.08600
C 	C 	0.60180 0.29580 0.50000 0.06800
H 	H 	0.59140 0.27890 0.50000 0.01500
O 	O 	0.04269 0.84603 0.50000 -0.48200
O 	O 	0.04248 0.79821 0.50000 -0.48700
C 	C 	0.05470 0.82190 0.50000 0.40600
C 	C 	0.08690 0.82180 0.50000 -0.12500
C 	C 	0.10190 0.84760 0.50000 0.00900
H 	H 	0.09230 0.86490 0.50000 0.03800
C 	C 	0.13130 0.84660 0.50000 -0.03400
C 	C 	0.14570 0.81990 0.50000 0.11000
C 	C 	0.13080 0.79430 0.50000 -0.16200
H 	H 	0.14030 0.77680 0.50000 0.08500
C 	C 	0.10180 0.79580 0.50000 0.06800
H 	H 	0.09140 0.77890 0.50000 0.01500
O 	O 	0.04269 0.34603 -0.00000 -0.48200
O 	O 	0.04248 0.29821 -0.00000 -0.48700
C 	C 	0.05470 0.32190 -0.00000 0.40600
C 	C 	0.08690 0.32180 -0.00000 -0.12600
C 	C 	0.10190 0.34760 -0.00000 0.00900
H 	H 	0.09230 0.36490 -0.00000 0.03800
C 	C 	0.13130 0.34660 -0.00000 -0.03500
C 	C 	0.14570 0.31990 -0.00000 0.11000
C 	C 	0.13080 0.29430 -0.00000 -0.16200
H 	H 	0.14030 0.27680 -0.00000 0.08500
C 	C 	0.10180 0.29580 -0.00000 0.06700
H 	H 	0.09140 0.27890 -0.00000 0.01500
O 	O 	0.54269 0.15397 -0.00000 -0.48200
O 	O 	0.54248 0.20179 -0.00000 -0.48700
C 	C 	0.55470 0.17810 -0.00000 0.40600
C 	C 	0.58690 0.17820 -0.00000 -0.12600
C 	C 	0.60190 0.15240 -0.00000 0.00900
H 	H 	0.59230 0.13510 -0.00000 0.03800
C 	C 	0.63130 0.15340 -0.00000 -0.03500
C 	C 	0.64570 0.18010 -0.00000 0.11000
C 	C 	0.63080 0.20570 -0.00000 -0.16200
H 	H 	0.64030 0.22320 -0.00000 0.08500
C 	C 	0.60180 0.20420 -0.00000 0.06700
H 	H 	0.59140 0.22110 -0.00000 0.01500
O 	O 	0.54269 0.65397 0.50000 -0.48200
O 	O 	0.54248 0.70179 0.50000 -0.48600
C 	C 	0.55470 0.67810 0.50000 0.40600
C 	C 	0.58690 0.67820 0.50000 -0.12500
C 	C 	0.60190 0.65240 0.50000 0.00900
H 	H 	0.59230 0.63510 0.50000 0.03800
C 	C 	0.63130 0.65340 0.50000 -0.03400
C 	C 	0.64570 0.68010 0.50000 0.11000
C 	C 	0.63080 0.70570 0.50000 -0.16200
H 	H 	0.64030 0.72320 0.50000 0.08600
C 	C 	0.60180 0.70420 0.50000 0.06800
H 	H 	0.59140 0.72110 0.50000 0.01600
O 	O 	0.04269 0.15397 0.50000 -0.48200
O 	O 	0.04248 0.20179 0.50000 -0.48700
C 	C 	0.05470 0.17810 0.50000 0.40600
C 	C 	0.08690 0.17820 0.50000 -0.12500
C 	C 	0.10190 0.15240 0.50000 0.00900
H 	H 	0.09230 0.13510 0.50000 0.03800
C 	C 	0.13130 0.15340 0.50000 -0.03400
C 	C 	0.14570 0.18010 0.50000 0.11000
C 	C 	0.13080 0.20570 0.50000 -0.16200
H 	H 	0.14030 0.22320 0.50000 0.08600
C 	C 	0.10180 0.20420 0.50000 0.06800
H 	H 	0.09140 0.22110 0.50000 0.01500
O 	O 	0.04269 0.65397 -0.00000 -0.48200
O 	O 	0.04248 0.70179 -0.00000 -0.48700
C 	C 	0.05470 0.67810 -0.00000 0.40600
C 	C 	0.08690 0.67820 -0.00000 -0.12600
C 	C 	0.10190 0.65240 -0.00000 0.00900
H 	H 	0.09230 0.63510 -0.00000 0.03800
C 	C 	0.13130 0.65340 -0.00000 -0.03500
C 	C 	0.14570 0.68010 -0.00000 0.11000
C 	C 	0.13080 0.70570 -0.00000 -0.16200
H 	H 	0.14030 0.72320 -0.00000 0.08500
C 	C 	0.10180 0.70420 -0.00000 0.06700
H 	H 	0.09140 0.72110 -0.00000 0.01500
O 	O 	0.45731 0.15397 -0.00000 -0.48200
O 	O 	0.45752 0.20179 -0.00000 -0.48700
C 	C 	0.44530 0.17810 -0.00000 0.40600
C 	C 	0.41310 0.17820 -0.00000 -0.12600
C 	C 	0.39810 0.15240 -0.00000 0.00900
H 	H 	0.40770 0.13510 -0.00000 0.03800
C 	C 	0.36870 0.15340 -0.00000 -0.03500
C 	C 	0.35430 0.18010 -0.00000 0.11000
C 	C 	0.36920 0.20570 -0.00000 -0.16200
H 	H 	0.35970 0.22320 -0.00000 0.08500
C 	C 	0.39820 0.20420 -0.00000 0.06700
H 	H 	0.40860 0.22110 -0.00000 0.01500
O 	O 	0.45731 0.65397 0.50000 -0.48200
O 	O 	0.45752 0.70179 0.50000 -0.48600
C 	C 	0.44530 0.67810 0.50000 0.40600
C 	C 	0.41310 0.67820 0.50000 -0.12500
C 	C 	0.39810 0.65240 0.50000 0.00900
H 	H 	0.40770 0.63510 0.50000 0.03800
C 	C 	0.36870 0.65340 0.50000 -0.03400
C 	C 	0.35430 0.68010 0.50000 0.11000
C 	C 	0.36920 0.70570 0.50000 -0.16200
H 	H 	0.35970 0.72320 0.50000 0.08600
C 	C 	0.39820 0.70420 0.50000 0.06800
H 	H 	0.40860 0.72110 0.50000 0.01600
O 	O 	0.95731 0.15397 0.50000 -0.48100
O 	O 	0.95752 0.20179 0.50000 -0.48500
C 	C 	0.94530 0.17810 0.50000 0.40600
C 	C 	0.91310 0.17820 0.50000 -0.12500
C 	C 	0.89810 0.15240 0.50000 0.00900
H 	H 	0.90770 0.13510 0.50000 0.03900
C 	C 	0.86870 0.15340 0.50000 -0.03400
C 	C 	0.85430 0.18010 0.50000 0.11000
C 	C 	0.86920 0.20570 0.50000 -0.16200
H 	H 	0.85970 0.22320 0.50000 0.08600
C 	C 	0.89820 0.20420 0.50000 0.06700
H 	H 	0.90860 0.22110 0.50000 0.01600
O 	O 	0.95731 0.65397 -0.00000 -0.48100
O 	O 	0.95752 0.70179 -0.00000 -0.48600
C 	C 	0.94530 0.67810 -0.00000 0.40600
C 	C 	0.91310 0.67820 -0.00000 -0.12500
C 	C 	0.89810 0.65240 -0.00000 0.00900
H 	H 	0.90770 0.63510 -0.00000 0.03800
C 	C 	0.86870 0.65340 -0.00000 -0.03400
C 	C 	0.85430 0.68010 -0.00000 0.10900
C 	C 	0.86920 0.70570 -0.00000 -0.16200
H 	H 	0.85970 0.72320 -0.00000 0.08500
C 	C 	0.89820 0.70420 -0.00000 0.06700
H 	H 	0.90860 0.72110 -0.00000 0.01600
O 	O 	0.84603 -0.00000 0.54269 -0.48200
O 	O 	0.79821 0.00000 0.54248 -0.48700
C 	C 	0.82190 0.00000 0.55470 0.40600
C 	C 	0.82180 0.00000 0.58690 -0.12500
C 	C 	0.84760 0.00000 0.60190 0.00900
H 	H 	0.86490 0.00000 0.59230 0.03800
C 	C 	0.84660 -0.00000 0.63130 -0.03500
C 	C 	0.81990 0.00000 0.64570 0.11000
C 	C 	0.79430 0.00000 0.63080 -0.16200
H 	H 	0.77680 0.00000 0.64030 0.08500
C 	C 	0.79580 -0.00000 0.60180 0.06700
H 	H 	0.77890 0.00000 0.59140 0.01500
O 	O 	0.84603 0.50000 0.04269 -0.48200
O 	O 	0.79821 0.50000 0.04248 -0.48700
C 	C 	0.82190 0.50000 0.05470 0.40600
C 	C 	0.82180 0.50000 0.08690 -0.12500
C 	C 	0.84760 0.50000 0.10190 0.00900
H 	H 	0.86490 0.50000 0.09230 0.03800
C 	C 	0.84660 0.50000 0.13130 -0.03400
C 	C 	0.81990 0.50000 0.14570 0.11000
C 	C 	0.79430 0.50000 0.13080 -0.16200
H 	H 	0.77680 0.50000 0.14030 0.08500
C 	C 	0.79580 0.50000 0.10180 0.06800
H 	H 	0.77890 0.50000 0.09140 0.01500
O 	O 	0.34603 -0.00000 0.04269 -0.48200
O 	O 	0.29821 -0.00000 0.04248 -0.48700
C 	C 	0.32190 -0.00000 0.05470 0.40600
C 	C 	0.32180 0.00000 0.08690 -0.12600
C 	C 	0.34760 0.00000 0.10190 0.00900
H 	H 	0.36490 0.00000 0.09230 0.03800
C 	C 	0.34660 0.00000 0.13130 -0.03500
C 	C 	0.31990 0.00000 0.14570 0.11000
C 	C 	0.29430 0.00000 0.13080 -0.16200
H 	H 	0.27680 0.00000 0.14030 0.08500
C 	C 	0.29580 0.00000 0.10180 0.06700
H 	H 	0.27890 -0.00000 0.09140 0.01500
O 	O 	0.34603 0.50000 0.54269 -0.48200
O 	O 	0.29821 0.50000 0.54248 -0.48700
C 	C 	0.32190 0.50000 0.55470 0.40600
C 	C 	0.32180 0.50000 0.58690 -0.12500
C 	C 	0.34760 0.50000 0.60190 0.00900
H 	H 	0.36490 0.50000 0.59230 0.03800
C 	C 	0.34660 0.50000 0.63130 -0.03400
C 	C 	0.31990 0.50000 0.64570 0.11000
C 	C 	0.29430 0.50000 0.63080 -0.16200
H 	H 	0.27680 0.50000 0.64030 0.08600
C 	C 	0.29580 0.50000 0.60180 0.06800
H 	H 	0.27890 0.50000 0.59140 0.01500
O 	O 	0.84603 0.00000 0.45731 -0.48200
O 	O 	0.79821 0.00000 0.45752 -0.48700
C 	C 	0.82190 0.00000 0.44530 0.40600
C 	C 	0.82180 0.00000 0.41310 -0.12500
C 	C 	0.84760 0.00000 0.39810 0.00900
H 	H 	0.86490 0.00000 0.40770 0.03800
C 	C 	0.84660 0.00000 0.36870 -0.03500
C 	C 	0.81990 0.00000 0.35430 0.11000
C 	C 	0.79430 0.00000 0.36920 -0.16200
H 	H 	0.77680 -0.00000 0.35970 0.08500
C 	C 	0.79580 0.00000 0.39820 0.06700
H 	H 	0.77890 0.00000 0.40860 0.01500
O 	O 	0.84603 0.50000 0.95731 -0.48000
O 	O 	0.79821 0.50000 0.95752 -0.48500
C 	C 	0.82190 0.50000 0.94530 0.40600
C 	C 	0.82180 0.50000 0.91310 -0.12500
C 	C 	0.84760 0.50000 0.89810 0.00900
H 	H 	0.86490 0.50000 0.90770 0.03900
C 	C 	0.84660 0.50000 0.86870 -0.03400
C 	C 	0.81990 0.50000 0.85430 0.11000
C 	C 	0.79430 0.50000 0.86920 -0.16200
H 	H 	0.77680 0.50000 0.85970 0.08600
C 	C 	0.79580 0.50000 0.89820 0.06700
H 	H 	0.77890 0.50000 0.90860 0.01600
O 	O 	0.34603 -0.00000 0.95731 -0.48100
O 	O 	0.29821 0.00000 0.95752 -0.48600
C 	C 	0.32190 -0.00000 0.94530 0.40600
C 	C 	0.32180 0.00000 0.91310 -0.12500
C 	C 	0.34760 0.00000 0.89810 0.00900
H 	H 	0.36490 0.00000 0.90770 0.03800
C 	C 	0.34660 0.00000 0.86870 -0.03400
C 	C 	0.31990 -0.00000 0.85430 0.10900
C 	C 	0.29430 -0.00000 0.86920 -0.16200
H 	H 	0.27680 0.00000 0.85970 0.08500
C 	C 	0.29580 -0.00000 0.89820 0.06700
H 	H 	0.27890 0.00000 0.90860 0.01600
O 	O 	0.34603 0.50000 0.45731 -0.48200
O 	O 	0.29821 0.50000 0.45752 -0.48700
C 	C 	0.32190 0.50000 0.44530 0.40600
C 	C 	0.32180 0.50000 0.41310 -0.12500
C 	C 	0.34760 0.50000 0.39810 0.00900
H 	H 	0.36490 0.50000 0.40770 0.03800
C 	C 	0.34660 0.50000 0.36870 -0.03400
C 	C 	0.31990 0.50000 0.35430 0.11000
C 	C 	0.29430 0.50000 0.36920 -0.16200
H 	H 	0.27680 0.50000 0.35970 0.08600
C 	C 	0.29580 0.50000 0.39820 0.06800
H 	H 	0.27890 0.50000 0.40860 0.01500
O 	O 	0.15397 0.00000 0.45731 -0.48200
O 	O 	0.20179 0.00000 0.45752 -0.48700
C 	C 	0.17810 0.00000 0.44530 0.40600
C 	C 	0.17820 0.00000 0.41310 -0.12600
C 	C 	0.15240 0.00000 0.39810 0.00900
H 	H 	0.13510 0.00000 0.40770 0.03800
C 	C 	0.15340 0.00000 0.36870 -0.03500
C 	C 	0.18010 0.00000 0.35430 0.11000
C 	C 	0.20570 0.00000 0.36920 -0.16200
H 	H 	0.22320 -0.00000 0.35970 0.08500
C 	C 	0.20420 0.00000 0.39820 0.06700
H 	H 	0.22110 0.00000 0.40860 0.01500
O 	O 	0.15397 0.50000 0.95731 -0.48100
O 	O 	0.20179 0.50000 0.95752 -0.48500
C 	C 	0.17810 0.50000 0.94530 0.40600
C 	C 	0.17820 0.50000 0.91310 -0.12500
C 	C 	0.15240 0.50000 0.89810 0.00900
H 	H 	0.13510 0.50000 0.90770 0.03900
C 	C 	0.15340 0.50000 0.86870 -0.03400
C 	C 	0.18010 0.50000 0.85430 0.11000
C 	C 	0.20570 0.50000 0.86920 -0.16200
H 	H 	0.22320 0.50000 0.85970 0.08600
C 	C 	0.20420 0.50000 0.89820 0.06700
H 	H 	0.22110 0.50000 0.90860 0.01600
O 	O 	0.65397 -0.00000 0.95731 -0.48100
O 	O 	0.70179 0.00000 0.95752 -0.48600
C 	C 	0.67810 -0.00000 0.94530 0.40600
C 	C 	0.67820 0.00000 0.91310 -0.12500
C 	C 	0.65240 0.00000 0.89810 0.00900
H 	H 	0.63510 0.00000 0.90770 0.03800
C 	C 	0.65340 0.00000 0.86870 -0.03400
C 	C 	0.68010 -0.00000 0.85430 0.10900
C 	C 	0.70570 -0.00000 0.86920 -0.16200
H 	H 	0.72320 0.00000 0.85970 0.08500
C 	C 	0.70420 -0.00000 0.89820 0.06700
H 	H 	0.72110 0.00000 0.90860 0.01600
O 	O 	0.65397 0.50000 0.45731 -0.48200
O 	O 	0.70179 0.50000 0.45752 -0.48600
C 	C 	0.67810 0.50000 0.44530 0.40600
C 	C 	0.67820 0.50000 0.41310 -0.12500
C 	C 	0.65240 0.50000 0.39810 0.00900
H 	H 	0.63510 0.50000 0.40770 0.03800
C 	C 	0.65340 0.50000 0.36870 -0.03400
C 	C 	0.68010 0.50000 0.35430 0.11000
C 	C 	0.70570 0.50000 0.36920 -0.16200
H 	H 	0.72320 0.50000 0.35970 0.08600
C 	C 	0.70420 0.50000 0.39820 0.06800
H 	H 	0.72110 0.50000 0.40860 0.01600
O 	O 	0.15397 -0.00000 0.54269 -0.48200
O 	O 	0.20179 0.00000 0.54248 -0.48700
C 	C 	0.17810 0.00000 0.55470 0.40600
C 	C 	0.17820 0.00000 0.58690 -0.12600
C 	C 	0.15240 0.00000 0.60190 0.00900
H 	H 	0.13510 0.00000 0.59230 0.03800
C 	C 	0.15340 -0.00000 0.63130 -0.03500
C 	C 	0.18010 0.00000 0.64570 0.11000
C 	C 	0.20570 0.00000 0.63080 -0.16200
H 	H 	0.22320 0.00000 0.64030 0.08500
C 	C 	0.20420 -0.00000 0.60180 0.06700
H 	H 	0.22110 0.00000 0.59140 0.01500
O 	O 	0.15397 0.50000 0.04269 -0.48200
O 	O 	0.20179 0.50000 0.04248 -0.48700
C 	C 	0.17810 0.50000 0.05470 0.40600
C 	C 	0.17820 0.50000 0.08690 -0.12500
C 	C 	0.15240 0.50000 0.10190 0.00900
H 	H 	0.13510 0.50000 0.09230 0.03800
C 	C 	0.15340 0.50000 0.13130 -0.03400
C 	C 	0.18010 0.50000 0.14570 0.11000
C 	C 	0.20570 0.50000 0.13080 -0.16200
H 	H 	0.22320 0.50000 0.14030 0.08600
C 	C 	0.20420 0.50000 0.10180 0.06800
H 	H 	0.22110 0.50000 0.09140 0.01500
O 	O 	0.65397 -0.00000 0.04269 -0.48200
O 	O 	0.70179 -0.00000 0.04248 -0.48700
C 	C 	0.67810 -0.00000 0.05470 0.40600
C 	C 	0.67820 0.00000 0.08690 -0.12600
C 	C 	0.65240 0.00000 0.10190 0.00900
H 	H 	0.63510 0.00000 0.09230 0.03800
C 	C 	0.65340 0.00000 0.13130 -0.03500
C 	C 	0.68010 0.00000 0.14570 0.11000
C 	C 	0.70570 0.00000 0.13080 -0.16200
H 	H 	0.72320 0.00000 0.14030 0.08500
C 	C 	0.70420 0.00000 0.10180 0.06700
H 	H 	0.72110 -0.00000 0.09140 0.01500
O 	O 	0.65397 0.50000 0.54269 -0.48200
O 	O 	0.70179 0.50000 0.54248 -0.48600
C 	C 	0.67810 0.50000 0.55470 0.40600
C 	C 	0.67820 0.50000 0.58690 -0.12500
C 	C 	0.65240 0.50000 0.60190 0.00900
H 	H 	0.63510 0.50000 0.59230 0.03800
C 	C 	0.65340 0.50000 0.63130 -0.03400
C 	C 	0.68010 0.50000 0.64570 0.11000
C 	C 	0.70570 0.50000 0.63080 -0.16200
H 	H 	0.72320 0.50000 0.64030 0.08600
C 	C 	0.70420 0.50000 0.60180 0.06800
H 	H 	0.72110 0.50000 0.59140 0.01600
N 	N 	0.32520 0.00000 0.82520 -0.16800
C 	C 	0.30300 0.00000 0.80300 0.14700
C 	C 	0.26100 0.00000 0.76100 -0.00800
N 	N 	0.32520 0.50000 0.32520 -0.16900
C 	C 	0.30300 0.50000 0.30300 0.15000
C 	C 	0.26100 0.50000 0.26100 -0.00600
N 	N 	0.67480 0.00000 0.82520 -0.16800
C 	C 	0.69700 0.00000 0.80300 0.14700
C 	C 	0.73900 0.00000 0.76100 -0.00800
N 	N 	0.67480 0.50000 0.32520 -0.16900
C 	C 	0.69700 0.50000 0.30300 0.15000
C 	C 	0.73900 0.50000 0.26100 -0.00600
N 	N 	0.67480 -0.00000 0.17480 -0.16900
C 	C 	0.69700 0.00000 0.19700 0.14700
C 	C 	0.73900 -0.00000 0.23900 -0.00800
N 	N 	0.67480 0.50000 0.67480 -0.16900
C 	C 	0.69700 0.50000 0.69700 0.15000
C 	C 	0.73900 0.50000 0.73900 -0.00600
N 	N 	0.32520 -0.00000 0.17480 -0.16900
C 	C 	0.30300 0.00000 0.19700 0.14700
C 	C 	0.26100 -0.00000 0.23900 -0.00800
N 	N 	0.32520 0.50000 0.67480 -0.16900
C 	C 	0.30300 0.50000 0.69700 0.15000
C 	C 	0.26100 0.50000 0.73900 -0.00600
N 	N 	0.82520 0.32520 -0.00000 -0.16800
C 	C 	0.80300 0.30300 -0.00000 0.14700
C 	C 	0.76100 0.26100 -0.00000 -0.00800
N 	N 	0.82520 0.82520 0.50000 -0.16900
C 	C 	0.80300 0.80300 0.50000 0.15000
C 	C 	0.76100 0.76100 0.50000 -0.00600
N 	N 	0.82520 0.67480 -0.00000 -0.16800
C 	C 	0.80300 0.69700 -0.00000 0.14700
C 	C 	0.76100 0.73900 -0.00000 -0.00800
N 	N 	0.82520 0.17480 0.50000 -0.16900
C 	C 	0.80300 0.19700 0.50000 0.15000
C 	C 	0.76100 0.23900 0.50000 -0.00600
N 	N 	0.17480 0.67480 -0.00000 -0.16900
C 	C 	0.19700 0.69700 -0.00000 0.14700
C 	C 	0.23900 0.73900 -0.00000 -0.00800
N 	N 	0.17480 0.17480 0.50000 -0.16900
C 	C 	0.19700 0.19700 0.50000 0.15000
C 	C 	0.23900 0.23900 0.50000 -0.00600
N 	N 	0.17480 0.32520 -0.00000 -0.16900
C 	C 	0.19700 0.30300 -0.00000 0.14700
C 	C 	0.23900 0.26100 -0.00000 -0.00800
N 	N 	0.17480 0.82520 0.50000 -0.16900
C 	C 	0.19700 0.80300 0.50000 0.15000
C 	C 	0.23900 0.76100 0.50000 -0.00600
N 	N 	0.00000 0.82520 0.32520 -0.16800
C 	C 	-0.00000 0.80300 0.30300 0.14700
C 	C 	0.00000 0.76100 0.26100 -0.00800
N 	N 	0.50000 0.82520 0.82520 -0.16900
C 	C 	0.50000 0.80300 0.80300 0.15000
C 	C 	0.50000 0.76100 0.76100 -0.00600
N 	N 	0.00000 0.82520 0.67480 -0.16800
C 	C 	-0.00000 0.80300 0.69700 0.14700
C 	C 	0.00000 0.76100 0.73900 -0.00800
N 	N 	0.50000 0.82520 0.17480 -0.16900
C 	C 	0.50000 0.80300 0.19700 0.15000
C 	C 	0.50000 0.76100 0.23900 -0.00600
N 	N 	-0.00000 0.17480 0.67480 -0.16900
C 	C 	-0.00000 0.19700 0.69700 0.14700
C 	C 	-0.00000 0.23900 0.73900 -0.00800
N 	N 	0.50000 0.17480 0.17480 -0.16900
C 	C 	0.50000 0.19700 0.19700 0.15000
C 	C 	0.50000 0.23900 0.23900 -0.00600
N 	N 	-0.00000 0.17480 0.32520 -0.16900
C 	C 	0.00000 0.19700 0.30300 0.14700
C 	C 	0.00000 0.23900 0.26100 -0.00800
N 	N 	0.50000 0.17480 0.82520 -0.16900
C 	C 	0.50000 0.19700 0.80300 0.15000
C 	C 	0.50000 0.23900 0.76100 -0.00600
N 	N 	-0.00000 0.32520 0.17480 -0.16900
C 	C 	0.00000 0.30300 0.19700 0.14700
C 	C 	0.00000 0.26100 0.23900 -0.00800
N 	N 	0.50000 0.32520 0.67480 -0.16900
C 	C 	0.50000 0.30300 0.69700 0.15000
C 	C 	0.50000 0.26100 0.73900 -0.00600
N 	N 	-0.00000 0.67480 0.17480 -0.16900
C 	C 	-0.00000 0.69700 0.19700 0.14700
C 	C 	-0.00000 0.73900 0.23900 -0.00800
N 	N 	0.50000 0.67480 0.67480 -0.16900
C 	C 	0.50000 0.69700 0.69700 0.15000
C 	C 	0.50000 0.73900 0.73900 -0.00600
N 	N 	0.00000 0.67480 0.82520 -0.16800
C 	C 	-0.00000 0.69700 0.80300 0.14700
C 	C 	0.00000 0.73900 0.76100 -0.00800
N 	N 	0.50000 0.67480 0.32520 -0.16900
C 	C 	0.50000 0.69700 0.30300 0.15000
C 	C 	0.50000 0.73900 0.26100 -0.00600
N 	N 	0.00000 0.32520 0.82520 -0.16800
C 	C 	-0.00000 0.30300 0.80300 0.14700
C 	C 	0.00000 0.26100 0.76100 -0.00800
N 	N 	0.50000 0.32520 0.32520 -0.16900
C 	C 	0.50000 0.30300 0.30300 0.15000
C 	C 	0.50000 0.26100 0.26100 -0.00600
N 	N 	0.32520 0.82520 -0.00000 -0.16800
C 	C 	0.30300 0.80300 -0.00000 0.14700
C 	C 	0.26100 0.76100 -0.00000 -0.00800
N 	N 	0.32520 0.32520 0.50000 -0.16900
C 	C 	0.30300 0.30300 0.50000 0.15000
C 	C 	0.26100 0.26100 0.50000 -0.00600
N 	N 	0.67480 0.82520 -0.00000 -0.16800
C 	C 	0.69700 0.80300 -0.00000 0.14700
C 	C 	0.73900 0.76100 -0.00000 -0.00800
N 	N 	0.67480 0.32520 0.50000 -0.16900
C 	C 	0.69700 0.30300 0.50000 0.15000
C 	C 	0.73900 0.26100 0.50000 -0.00600
N 	N 	0.67480 0.17480 -0.00000 -0.16900
C 	C 	0.69700 0.19700 -0.00000 0.14700
C 	C 	0.73900 0.23900 -0.00000 -0.00800
N 	N 	0.67480 0.67480 0.50000 -0.16900
C 	C 	0.69700 0.69700 0.50000 0.15000
C 	C 	0.73900 0.73900 0.50000 -0.00600
N 	N 	0.32520 0.17480 -0.00000 -0.16900
C 	C 	0.30300 0.19700 -0.00000 0.14700
C 	C 	0.26100 0.23900 -0.00000 -0.00800
N 	N 	0.32520 0.67480 0.50000 -0.16900
C 	C 	0.30300 0.69700 0.50000 0.15000
C 	C 	0.26100 0.73900 0.50000 -0.00600
N 	N 	0.82520 0.00000 0.67480 -0.16800
C 	C 	0.80300 -0.00000 0.69700 0.14700
C 	C 	0.76100 0.00000 0.73900 -0.00800
N 	N 	0.82520 0.50000 0.17480 -0.16900
C 	C 	0.80300 0.50000 0.19700 0.15000
C 	C 	0.76100 0.50000 0.23900 -0.00600
N 	N 	0.82520 0.00000 0.32520 -0.16800
C 	C 	0.80300 0.00000 0.30300 0.14700
C 	C 	0.76100 0.00000 0.26100 -0.00800
N 	N 	0.82520 0.50000 0.82520 -0.16900
C 	C 	0.80300 0.50000 0.80300 0.15000
C 	C 	0.76100 0.50000 0.76100 -0.00600
N 	N 	0.17480 0.00000 0.32520 -0.16900
C 	C 	0.19700 0.00000 0.30300 0.14700
C 	C 	0.23900 0.00000 0.26100 -0.00800
N 	N 	0.17480 0.50000 0.82520 -0.16900
C 	C 	0.19700 0.50000 0.80300 0.15000
C 	C 	0.23900 0.50000 0.76100 -0.00600
N 	N 	0.17480 0.00000 0.67480 -0.16900
C 	C 	0.19700 -0.00000 0.69700 0.14700
C 	C 	0.23900 0.00000 0.73900 -0.00800
N 	N 	0.17480 0.50000 0.17480 -0.16900
C 	C 	0.19700 0.50000 0.19700 0.15000
C 	C 	0.23900 0.50000 0.23900 -0.00600
