data_crystal

_cell_length_a 46.58800
_cell_length_b 46.58800
_cell_length_c 46.58800
_cell_angle_alpha 90.00000
_cell_angle_beta  90.00000
_cell_angle_gamma 90.00000

_symmetry_space_group_name_	'P 1'
_symmetry_space_group_name_H-M	'P 1'

loop_
_symmetry_equiv_pos_as_xyz
  x,y,z

loop_
_atom_site_label
_atom_site_type_symbol
_atom_site_fract_x
_atom_site_fract_y
_atom_site_fract_z
_atom_site_charge
C 	C 	0.69850 0.02349 0.78532 -0.07100
H 	H 	0.68640 0.03920 0.78740 0.05500
C 	C 	0.71988 0.02236 0.76347 -0.02200
H 	H 	0.72120 0.03730 0.75020 0.03100
C 	C 	0.69850 0.52349 0.28532 -0.07100
H 	H 	0.68640 0.53920 0.28740 0.05500
C 	C 	0.71988 0.52236 0.26347 -0.02200
H 	H 	0.72120 0.53730 0.25020 0.03100
C 	C 	0.19850 0.02349 0.28532 -0.07100
H 	H 	0.18640 0.03920 0.28740 0.05500
C 	C 	0.21988 0.02236 0.26347 -0.02200
H 	H 	0.22120 0.03730 0.25020 0.03100
C 	C 	0.19850 0.52349 0.78532 -0.07100
H 	H 	0.18640 0.53920 0.78740 0.05500
C 	C 	0.21988 0.52236 0.76347 -0.02200
H 	H 	0.22120 0.53730 0.75020 0.03100
C 	C 	0.30150 0.97651 0.78532 -0.07000
H 	H 	0.31360 0.96080 0.78740 0.05500
C 	C 	0.28012 0.97764 0.76347 -0.02100
H 	H 	0.27880 0.96270 0.75020 0.03100
C 	C 	0.30150 0.47651 0.28532 -0.07100
H 	H 	0.31360 0.46080 0.28740 0.05500
C 	C 	0.28012 0.47764 0.26347 -0.02200
H 	H 	0.27880 0.46270 0.25020 0.03100
C 	C 	0.80150 0.97651 0.28532 -0.07000
H 	H 	0.81360 0.96080 0.28740 0.05500
C 	C 	0.78012 0.97764 0.26347 -0.02100
H 	H 	0.77880 0.96270 0.25020 0.03100
C 	C 	0.80150 0.47651 0.78532 -0.07100
H 	H 	0.81360 0.46080 0.78740 0.05500
C 	C 	0.78012 0.47764 0.76347 -0.02200
H 	H 	0.77880 0.46270 0.75020 0.03100
C 	C 	0.30150 0.02349 0.21468 -0.07100
H 	H 	0.31360 0.03920 0.21260 0.05500
C 	C 	0.28012 0.02236 0.23653 -0.02200
H 	H 	0.27880 0.03730 0.24980 0.03100
C 	C 	0.30150 0.52349 0.71468 -0.07100
H 	H 	0.31360 0.53920 0.71260 0.05500
C 	C 	0.28012 0.52236 0.73653 -0.02200
H 	H 	0.27880 0.53730 0.74980 0.03100
C 	C 	0.80150 0.02349 0.71468 -0.07100
H 	H 	0.81360 0.03920 0.71260 0.05500
C 	C 	0.78012 0.02236 0.73653 -0.02200
H 	H 	0.77880 0.03730 0.74980 0.03100
C 	C 	0.80150 0.52349 0.21468 -0.07200
H 	H 	0.81360 0.53920 0.21260 0.05500
C 	C 	0.78012 0.52236 0.23653 -0.02200
H 	H 	0.77880 0.53730 0.24980 0.03100
C 	C 	0.69850 0.97651 0.21468 -0.07000
H 	H 	0.68640 0.96080 0.21260 0.05500
C 	C 	0.71988 0.97764 0.23653 -0.02100
H 	H 	0.72120 0.96270 0.24980 0.03100
C 	C 	0.69850 0.47651 0.71468 -0.07100
H 	H 	0.68640 0.46080 0.71260 0.05500
C 	C 	0.71988 0.47764 0.73653 -0.02200
H 	H 	0.72120 0.46270 0.74980 0.03100
C 	C 	0.19850 0.97651 0.71468 -0.07000
H 	H 	0.18640 0.96080 0.71260 0.05500
C 	C 	0.21988 0.97764 0.73653 -0.02100
H 	H 	0.22120 0.96270 0.74980 0.03100
C 	C 	0.19850 0.47651 0.21468 -0.07100
H 	H 	0.18640 0.46080 0.21260 0.05500
C 	C 	0.21988 0.47764 0.23653 -0.02200
H 	H 	0.22120 0.46270 0.24980 0.03100
C 	C 	0.78532 0.69850 0.02349 -0.07100
H 	H 	0.78740 0.68640 0.03920 0.05500
C 	C 	0.76347 0.71988 0.02236 -0.02200
H 	H 	0.75020 0.72120 0.03730 0.03100
C 	C 	0.78532 0.19850 0.52349 -0.07100
H 	H 	0.78740 0.18640 0.53920 0.05500
C 	C 	0.76347 0.21988 0.52236 -0.02200
H 	H 	0.75020 0.22120 0.53730 0.03100
C 	C 	0.28532 0.69850 0.52349 -0.07100
H 	H 	0.28740 0.68640 0.53920 0.05500
C 	C 	0.26347 0.71988 0.52236 -0.02200
H 	H 	0.25020 0.72120 0.53730 0.03100
C 	C 	0.28532 0.19850 0.02349 -0.07100
H 	H 	0.28740 0.18640 0.03920 0.05500
C 	C 	0.26347 0.21988 0.02236 -0.02200
H 	H 	0.25020 0.22120 0.03730 0.03100
C 	C 	0.78532 0.30150 0.97651 -0.07000
H 	H 	0.78740 0.31360 0.96080 0.05500
C 	C 	0.76347 0.28012 0.97764 -0.02100
H 	H 	0.75020 0.27880 0.96270 0.03100
C 	C 	0.78532 0.80150 0.47651 -0.07100
H 	H 	0.78740 0.81360 0.46080 0.05500
C 	C 	0.76347 0.78012 0.47764 -0.02200
H 	H 	0.75020 0.77880 0.46270 0.03100
C 	C 	0.28532 0.30150 0.47651 -0.07100
H 	H 	0.28740 0.31360 0.46080 0.05500
C 	C 	0.26347 0.28012 0.47764 -0.02200
H 	H 	0.25020 0.27880 0.46270 0.03100
C 	C 	0.28532 0.80150 0.97651 -0.07000
H 	H 	0.28740 0.81360 0.96080 0.05500
C 	C 	0.26347 0.78012 0.97764 -0.02100
H 	H 	0.25020 0.77880 0.96270 0.03100
C 	C 	0.21468 0.30150 0.02349 -0.07100
H 	H 	0.21260 0.31360 0.03920 0.05500
C 	C 	0.23653 0.28012 0.02236 -0.02200
H 	H 	0.24980 0.27880 0.03730 0.03100
C 	C 	0.21468 0.80150 0.52349 -0.07100
H 	H 	0.21260 0.81360 0.53920 0.05500
C 	C 	0.23653 0.78012 0.52236 -0.02200
H 	H 	0.24980 0.77880 0.53730 0.03100
C 	C 	0.71468 0.30150 0.52349 -0.07200
H 	H 	0.71260 0.31360 0.53920 0.05500
C 	C 	0.73653 0.28012 0.52236 -0.02200
H 	H 	0.74980 0.27880 0.53730 0.03100
C 	C 	0.71468 0.80150 0.02349 -0.07100
H 	H 	0.71260 0.81360 0.03920 0.05500
C 	C 	0.73653 0.78012 0.02236 -0.02200
H 	H 	0.74980 0.77880 0.03730 0.03100
C 	C 	0.21468 0.69850 0.97651 -0.07000
H 	H 	0.21260 0.68640 0.96080 0.05500
C 	C 	0.23653 0.71988 0.97764 -0.02100
H 	H 	0.24980 0.72120 0.96270 0.03100
C 	C 	0.21468 0.19850 0.47651 -0.07100
H 	H 	0.21260 0.18640 0.46080 0.05500
C 	C 	0.23653 0.21988 0.47764 -0.02200
H 	H 	0.24980 0.22120 0.46270 0.03100
C 	C 	0.71468 0.69850 0.47651 -0.07100
H 	H 	0.71260 0.68640 0.46080 0.05500
C 	C 	0.73653 0.71988 0.47764 -0.02200
H 	H 	0.74980 0.72120 0.46270 0.03100
C 	C 	0.71468 0.19850 0.97651 -0.07000
H 	H 	0.71260 0.18640 0.96080 0.05500
C 	C 	0.73653 0.21988 0.97764 -0.02100
H 	H 	0.74980 0.22120 0.96270 0.03100
C 	C 	0.02349 0.78532 0.69850 -0.07100
H 	H 	0.03920 0.78740 0.68640 0.05500
C 	C 	0.02236 0.76347 0.71988 -0.02200
H 	H 	0.03730 0.75020 0.72120 0.03100
C 	C 	0.02349 0.28532 0.19850 -0.07100
H 	H 	0.03920 0.28740 0.18640 0.05500
C 	C 	0.02236 0.26347 0.21988 -0.02200
H 	H 	0.03730 0.25020 0.22120 0.03100
C 	C 	0.52349 0.78532 0.19850 -0.07100
H 	H 	0.53920 0.78740 0.18640 0.05500
C 	C 	0.52236 0.76347 0.21988 -0.02200
H 	H 	0.53730 0.75020 0.22120 0.03100
C 	C 	0.52349 0.28532 0.69850 -0.07100
H 	H 	0.53920 0.28740 0.68640 0.05500
C 	C 	0.52236 0.26347 0.71988 -0.02200
H 	H 	0.53730 0.25020 0.72120 0.03100
C 	C 	0.97651 0.78532 0.30150 -0.07000
H 	H 	0.96080 0.78740 0.31360 0.05500
C 	C 	0.97764 0.76347 0.28012 -0.02100
H 	H 	0.96270 0.75020 0.27880 0.03100
C 	C 	0.97651 0.28532 0.80150 -0.07000
H 	H 	0.96080 0.28740 0.81360 0.05500
C 	C 	0.97764 0.26347 0.78012 -0.02100
H 	H 	0.96270 0.25020 0.77880 0.03100
C 	C 	0.47651 0.78532 0.80150 -0.07100
H 	H 	0.46080 0.78740 0.81360 0.05500
C 	C 	0.47764 0.76347 0.78012 -0.02200
H 	H 	0.46270 0.75020 0.77880 0.03100
C 	C 	0.47651 0.28532 0.30150 -0.07100
H 	H 	0.46080 0.28740 0.31360 0.05500
C 	C 	0.47764 0.26347 0.28012 -0.02200
H 	H 	0.46270 0.25020 0.27880 0.03100
C 	C 	0.02349 0.21468 0.30150 -0.07100
H 	H 	0.03920 0.21260 0.31360 0.05500
C 	C 	0.02236 0.23653 0.28012 -0.02200
H 	H 	0.03730 0.24980 0.27880 0.03100
C 	C 	0.02349 0.71468 0.80150 -0.07100
H 	H 	0.03920 0.71260 0.81360 0.05500
C 	C 	0.02236 0.73653 0.78012 -0.02200
H 	H 	0.03730 0.74980 0.77880 0.03100
C 	C 	0.52349 0.21468 0.80150 -0.07100
H 	H 	0.53920 0.21260 0.81360 0.05500
C 	C 	0.52236 0.23653 0.78012 -0.02200
H 	H 	0.53730 0.24980 0.77880 0.03100
C 	C 	0.52349 0.71468 0.30150 -0.07200
H 	H 	0.53920 0.71260 0.31360 0.05500
C 	C 	0.52236 0.73653 0.28012 -0.02200
H 	H 	0.53730 0.74980 0.27880 0.03100
C 	C 	0.97651 0.21468 0.69850 -0.07000
H 	H 	0.96080 0.21260 0.68640 0.05500
C 	C 	0.97764 0.23653 0.71988 -0.02100
H 	H 	0.96270 0.24980 0.72120 0.03100
C 	C 	0.97651 0.71468 0.19850 -0.07000
H 	H 	0.96080 0.71260 0.18640 0.05500
C 	C 	0.97764 0.73653 0.21988 -0.02100
H 	H 	0.96270 0.74980 0.22120 0.03100
C 	C 	0.47651 0.21468 0.19850 -0.07100
H 	H 	0.46080 0.21260 0.18640 0.05500
C 	C 	0.47764 0.23653 0.21988 -0.02200
H 	H 	0.46270 0.24980 0.22120 0.03100
C 	C 	0.47651 0.71468 0.69850 -0.07100
H 	H 	0.46080 0.71260 0.68640 0.05500
C 	C 	0.47764 0.73653 0.71988 -0.02200
H 	H 	0.46270 0.74980 0.72120 0.03100
C 	C 	0.02349 0.69850 0.21468 -0.07100
H 	H 	0.03920 0.68640 0.21260 0.05500
C 	C 	0.02236 0.71988 0.23653 -0.02200
H 	H 	0.03730 0.72120 0.24980 0.03100
C 	C 	0.02349 0.19850 0.71468 -0.07100
H 	H 	0.03920 0.18640 0.71260 0.05500
C 	C 	0.02236 0.21988 0.73653 -0.02200
H 	H 	0.03730 0.22120 0.74980 0.03100
C 	C 	0.52349 0.69850 0.71468 -0.07100
H 	H 	0.53920 0.68640 0.71260 0.05500
C 	C 	0.52236 0.71988 0.73653 -0.02200
H 	H 	0.53730 0.72120 0.74980 0.03100
C 	C 	0.52349 0.19850 0.21468 -0.07100
H 	H 	0.53920 0.18640 0.21260 0.05500
C 	C 	0.52236 0.21988 0.23653 -0.02200
H 	H 	0.53730 0.22120 0.24980 0.03100
C 	C 	0.97651 0.30150 0.21468 -0.07000
H 	H 	0.96080 0.31360 0.21260 0.05500
C 	C 	0.97764 0.28012 0.23653 -0.02100
H 	H 	0.96270 0.27880 0.24980 0.03100
C 	C 	0.97651 0.80150 0.71468 -0.07100
H 	H 	0.96080 0.81360 0.71260 0.05500
C 	C 	0.97764 0.78012 0.73653 -0.02100
H 	H 	0.96270 0.77880 0.74980 0.03100
C 	C 	0.47651 0.30150 0.71468 -0.07100
H 	H 	0.46080 0.31360 0.71260 0.05500
C 	C 	0.47764 0.28012 0.73653 -0.02200
H 	H 	0.46270 0.27880 0.74980 0.03100
C 	C 	0.47651 0.80150 0.21468 -0.07200
H 	H 	0.46080 0.81360 0.21260 0.05500
C 	C 	0.47764 0.78012 0.23653 -0.02200
H 	H 	0.46270 0.77880 0.24980 0.03100
C 	C 	0.02349 0.30150 0.78532 -0.07100
H 	H 	0.03920 0.31360 0.78740 0.05500
C 	C 	0.02236 0.28012 0.76347 -0.02200
H 	H 	0.03730 0.27880 0.75020 0.03100
C 	C 	0.02349 0.80150 0.28532 -0.07100
H 	H 	0.03920 0.81360 0.28740 0.05500
C 	C 	0.02236 0.78012 0.26347 -0.02200
H 	H 	0.03730 0.77880 0.25020 0.03100
C 	C 	0.52349 0.30150 0.28532 -0.07100
H 	H 	0.53920 0.31360 0.28740 0.05500
C 	C 	0.52236 0.28012 0.26347 -0.02200
H 	H 	0.53730 0.27880 0.25020 0.03100
C 	C 	0.52349 0.80150 0.78532 -0.07100
H 	H 	0.53920 0.81360 0.78740 0.05500
C 	C 	0.52236 0.78012 0.76347 -0.02200
H 	H 	0.53730 0.77880 0.75020 0.03100
C 	C 	0.97651 0.69850 0.78532 -0.07000
H 	H 	0.96080 0.68640 0.78740 0.05500
C 	C 	0.97764 0.71988 0.76347 -0.02100
H 	H 	0.96270 0.72120 0.75020 0.03100
C 	C 	0.97651 0.19850 0.28532 -0.07000
H 	H 	0.96080 0.18640 0.28740 0.05500
C 	C 	0.97764 0.21988 0.26347 -0.02100
H 	H 	0.96270 0.22120 0.25020 0.03100
C 	C 	0.47651 0.69850 0.28532 -0.07100
H 	H 	0.46080 0.68640 0.28740 0.05500
C 	C 	0.47764 0.71988 0.26347 -0.02200
H 	H 	0.46270 0.72120 0.25020 0.03100
C 	C 	0.47651 0.19850 0.78532 -0.07100
H 	H 	0.46080 0.18640 0.78740 0.05500
C 	C 	0.47764 0.21988 0.76347 -0.02200
H 	H 	0.46270 0.22120 0.75020 0.03100
C 	C 	0.69850 0.78532 0.97651 -0.07000
H 	H 	0.68640 0.78740 0.96080 0.05500
C 	C 	0.71988 0.76347 0.97764 -0.02100
H 	H 	0.72120 0.75020 0.96270 0.03100
C 	C 	0.69850 0.28532 0.47651 -0.07100
H 	H 	0.68640 0.28740 0.46080 0.05500
C 	C 	0.71988 0.26347 0.47764 -0.02200
H 	H 	0.72120 0.25020 0.46270 0.03100
C 	C 	0.19850 0.78532 0.47651 -0.07100
H 	H 	0.18640 0.78740 0.46080 0.05500
C 	C 	0.21988 0.76347 0.47764 -0.02200
H 	H 	0.22120 0.75020 0.46270 0.03100
C 	C 	0.19850 0.28532 0.97651 -0.07000
H 	H 	0.18640 0.28740 0.96080 0.05500
C 	C 	0.21988 0.26347 0.97764 -0.02100
H 	H 	0.22120 0.25020 0.96270 0.03100
C 	C 	0.30150 0.78532 0.02349 -0.07100
H 	H 	0.31360 0.78740 0.03920 0.05500
C 	C 	0.28012 0.76347 0.02236 -0.02200
H 	H 	0.27880 0.75020 0.03730 0.03100
C 	C 	0.30150 0.28532 0.52349 -0.07100
H 	H 	0.31360 0.28740 0.53920 0.05500
C 	C 	0.28012 0.26347 0.52236 -0.02200
H 	H 	0.27880 0.25020 0.53730 0.03100
C 	C 	0.80150 0.78532 0.52349 -0.07100
H 	H 	0.81360 0.78740 0.53920 0.05500
C 	C 	0.78012 0.76347 0.52236 -0.02200
H 	H 	0.77880 0.75020 0.53730 0.03100
C 	C 	0.80150 0.28532 0.02349 -0.07100
H 	H 	0.81360 0.28740 0.03920 0.05500
C 	C 	0.78012 0.26347 0.02236 -0.02200
H 	H 	0.77880 0.25020 0.03730 0.03100
C 	C 	0.30150 0.21468 0.97651 -0.07000
H 	H 	0.31360 0.21260 0.96080 0.05500
C 	C 	0.28012 0.23653 0.97764 -0.02100
H 	H 	0.27880 0.24980 0.96270 0.03100
C 	C 	0.30150 0.71468 0.47651 -0.07100
H 	H 	0.31360 0.71260 0.46080 0.05500
C 	C 	0.28012 0.73653 0.47764 -0.02200
H 	H 	0.27880 0.74980 0.46270 0.03100
C 	C 	0.80150 0.21468 0.47651 -0.07200
H 	H 	0.81360 0.21260 0.46080 0.05500
C 	C 	0.78012 0.23653 0.47764 -0.02200
H 	H 	0.77880 0.24980 0.46270 0.03100
C 	C 	0.80150 0.71468 0.97651 -0.07100
H 	H 	0.81360 0.71260 0.96080 0.05500
C 	C 	0.78012 0.73653 0.97764 -0.02100
H 	H 	0.77880 0.74980 0.96270 0.03100
C 	C 	0.69850 0.21468 0.02349 -0.07100
H 	H 	0.68640 0.21260 0.03920 0.05500
C 	C 	0.71988 0.23653 0.02236 -0.02200
H 	H 	0.72120 0.24980 0.03730 0.03100
C 	C 	0.69850 0.71468 0.52349 -0.07100
H 	H 	0.68640 0.71260 0.53920 0.05500
C 	C 	0.71988 0.73653 0.52236 -0.02200
H 	H 	0.72120 0.74980 0.53730 0.03100
C 	C 	0.19850 0.21468 0.52349 -0.07100
H 	H 	0.18640 0.21260 0.53920 0.05500
C 	C 	0.21988 0.23653 0.52236 -0.02200
H 	H 	0.22120 0.24980 0.53730 0.03100
C 	C 	0.19850 0.71468 0.02349 -0.07100
H 	H 	0.18640 0.71260 0.03920 0.05500
C 	C 	0.21988 0.73653 0.02236 -0.02200
H 	H 	0.22120 0.74980 0.03730 0.03100
C 	C 	0.78532 0.02349 0.30150 -0.07100
H 	H 	0.78740 0.03920 0.31360 0.05500
C 	C 	0.76347 0.02236 0.28012 -0.02200
H 	H 	0.75020 0.03730 0.27880 0.03100
C 	C 	0.78532 0.52349 0.80150 -0.07100
H 	H 	0.78740 0.53920 0.81360 0.05500
C 	C 	0.76347 0.52236 0.78012 -0.02200
H 	H 	0.75020 0.53730 0.77880 0.03100
C 	C 	0.28532 0.02349 0.80150 -0.07100
H 	H 	0.28740 0.03920 0.81360 0.05500
C 	C 	0.26347 0.02236 0.78012 -0.02200
H 	H 	0.25020 0.03730 0.77880 0.03100
C 	C 	0.28532 0.52349 0.30150 -0.07100
H 	H 	0.28740 0.53920 0.31360 0.05500
C 	C 	0.26347 0.52236 0.28012 -0.02200
H 	H 	0.25020 0.53730 0.27880 0.03100
C 	C 	0.78532 0.97651 0.69850 -0.07000
H 	H 	0.78740 0.96080 0.68640 0.05500
C 	C 	0.76347 0.97764 0.71988 -0.02100
H 	H 	0.75020 0.96270 0.72120 0.03100
C 	C 	0.78532 0.47651 0.19850 -0.07100
H 	H 	0.78740 0.46080 0.18640 0.05500
C 	C 	0.76347 0.47764 0.21988 -0.02200
H 	H 	0.75020 0.46270 0.22120 0.03100
C 	C 	0.28532 0.97651 0.19850 -0.07000
H 	H 	0.28740 0.96080 0.18640 0.05500
C 	C 	0.26347 0.97764 0.21988 -0.02100
H 	H 	0.25020 0.96270 0.22120 0.03100
C 	C 	0.28532 0.47651 0.69850 -0.07100
H 	H 	0.28740 0.46080 0.68640 0.05500
C 	C 	0.26347 0.47764 0.71988 -0.02200
H 	H 	0.25020 0.46270 0.72120 0.03100
C 	C 	0.21468 0.02349 0.69850 -0.07100
H 	H 	0.21260 0.03920 0.68640 0.05500
C 	C 	0.23653 0.02236 0.71988 -0.02200
H 	H 	0.24980 0.03730 0.72120 0.03100
C 	C 	0.21468 0.52349 0.19850 -0.07100
H 	H 	0.21260 0.53920 0.18640 0.05500
C 	C 	0.23653 0.52236 0.21988 -0.02200
H 	H 	0.24980 0.53730 0.22120 0.03100
C 	C 	0.71468 0.02349 0.19850 -0.07100
H 	H 	0.71260 0.03920 0.18640 0.05500
C 	C 	0.73653 0.02236 0.21988 -0.02200
H 	H 	0.74980 0.03730 0.22120 0.03100
C 	C 	0.71468 0.52349 0.69850 -0.07100
H 	H 	0.71260 0.53920 0.68640 0.05500
C 	C 	0.73653 0.52236 0.71988 -0.02200
H 	H 	0.74980 0.53730 0.72120 0.03100
C 	C 	0.21468 0.97651 0.30150 -0.07000
H 	H 	0.21260 0.96080 0.31360 0.05500
C 	C 	0.23653 0.97764 0.28012 -0.02100
H 	H 	0.24980 0.96270 0.27880 0.03100
C 	C 	0.21468 0.47651 0.80150 -0.07100
H 	H 	0.21260 0.46080 0.81360 0.05500
C 	C 	0.23653 0.47764 0.78012 -0.02200
H 	H 	0.24980 0.46270 0.77880 0.03100
C 	C 	0.71468 0.97651 0.80150 -0.07100
H 	H 	0.71260 0.96080 0.81360 0.05500
C 	C 	0.73653 0.97764 0.78012 -0.02100
H 	H 	0.74980 0.96270 0.77880 0.03100
C 	C 	0.71468 0.47651 0.30150 -0.07200
H 	H 	0.71260 0.46080 0.31360 0.05500
C 	C 	0.73653 0.47764 0.28012 -0.02200
H 	H 	0.74980 0.46270 0.27880 0.03100
C 	C 	0.30150 0.97651 0.21468 -0.07000
H 	H 	0.31360 0.96080 0.21260 0.05500
C 	C 	0.28012 0.97764 0.23653 -0.02100
H 	H 	0.27880 0.96270 0.24980 0.03100
C 	C 	0.30150 0.47651 0.71468 -0.07100
H 	H 	0.31360 0.46080 0.71260 0.05500
C 	C 	0.28012 0.47764 0.73653 -0.02200
H 	H 	0.27880 0.46270 0.74980 0.03100
C 	C 	0.80150 0.97651 0.71468 -0.07100
H 	H 	0.81360 0.96080 0.71260 0.05500
C 	C 	0.78012 0.97764 0.73653 -0.02100
H 	H 	0.77880 0.96270 0.74980 0.03100
C 	C 	0.80150 0.47651 0.21468 -0.07200
H 	H 	0.81360 0.46080 0.21260 0.05500
C 	C 	0.78012 0.47764 0.23653 -0.02200
H 	H 	0.77880 0.46270 0.24980 0.03100
C 	C 	0.69850 0.02349 0.21468 -0.07100
H 	H 	0.68640 0.03920 0.21260 0.05500
C 	C 	0.71988 0.02236 0.23653 -0.02200
H 	H 	0.72120 0.03730 0.24980 0.03100
C 	C 	0.69850 0.52349 0.71468 -0.07100
H 	H 	0.68640 0.53920 0.71260 0.05500
C 	C 	0.71988 0.52236 0.73653 -0.02200
H 	H 	0.72120 0.53730 0.74980 0.03100
C 	C 	0.19850 0.02349 0.71468 -0.07100
H 	H 	0.18640 0.03920 0.71260 0.05500
C 	C 	0.21988 0.02236 0.73653 -0.02200
H 	H 	0.22120 0.03730 0.74980 0.03100
C 	C 	0.19850 0.52349 0.21468 -0.07100
H 	H 	0.18640 0.53920 0.21260 0.05500
C 	C 	0.21988 0.52236 0.23653 -0.02200
H 	H 	0.22120 0.53730 0.24980 0.03100
C 	C 	0.69850 0.97651 0.78532 -0.07000
H 	H 	0.68640 0.96080 0.78740 0.05500
C 	C 	0.71988 0.97764 0.76347 -0.02100
H 	H 	0.72120 0.96270 0.75020 0.03100
C 	C 	0.69850 0.47651 0.28532 -0.07100
H 	H 	0.68640 0.46080 0.28740 0.05500
C 	C 	0.71988 0.47764 0.26347 -0.02200
H 	H 	0.72120 0.46270 0.25020 0.03100
C 	C 	0.19850 0.97651 0.28532 -0.07000
H 	H 	0.18640 0.96080 0.28740 0.05500
C 	C 	0.21988 0.97764 0.26347 -0.02100
H 	H 	0.22120 0.96270 0.25020 0.03100
C 	C 	0.19850 0.47651 0.78532 -0.07100
H 	H 	0.18640 0.46080 0.78740 0.05500
C 	C 	0.21988 0.47764 0.76347 -0.02200
H 	H 	0.22120 0.46270 0.75020 0.03100
C 	C 	0.30150 0.02349 0.78532 -0.07100
H 	H 	0.31360 0.03920 0.78740 0.05500
C 	C 	0.28012 0.02236 0.76347 -0.02200
H 	H 	0.27880 0.03730 0.75020 0.03100
C 	C 	0.30150 0.52349 0.28532 -0.07100
H 	H 	0.31360 0.53920 0.28740 0.05500
C 	C 	0.28012 0.52236 0.26347 -0.02200
H 	H 	0.27880 0.53730 0.25020 0.03100
C 	C 	0.80150 0.02349 0.28532 -0.07100
H 	H 	0.81360 0.03920 0.28740 0.05500
C 	C 	0.78012 0.02236 0.26347 -0.02200
H 	H 	0.77880 0.03730 0.25020 0.03100
C 	C 	0.80150 0.52349 0.78532 -0.07100
H 	H 	0.81360 0.53920 0.78740 0.05500
C 	C 	0.78012 0.52236 0.76347 -0.02200
H 	H 	0.77880 0.53730 0.75020 0.03100
C 	C 	0.21468 0.30150 0.97651 -0.07000
H 	H 	0.21260 0.31360 0.96080 0.05500
C 	C 	0.23653 0.28012 0.97764 -0.02100
H 	H 	0.24980 0.27880 0.96270 0.03100
C 	C 	0.21468 0.80150 0.47651 -0.07100
H 	H 	0.21260 0.81360 0.46080 0.05500
C 	C 	0.23653 0.78012 0.47764 -0.02200
H 	H 	0.24980 0.77880 0.46270 0.03100
C 	C 	0.71468 0.30150 0.47651 -0.07200
H 	H 	0.71260 0.31360 0.46080 0.05500
C 	C 	0.73653 0.28012 0.47764 -0.02200
H 	H 	0.74980 0.27880 0.46270 0.03100
C 	C 	0.71468 0.80150 0.97651 -0.07100
H 	H 	0.71260 0.81360 0.96080 0.05500
C 	C 	0.73653 0.78012 0.97764 -0.02100
H 	H 	0.74980 0.77880 0.96270 0.03100
C 	C 	0.21468 0.69850 0.02349 -0.07100
H 	H 	0.21260 0.68640 0.03920 0.05500
C 	C 	0.23653 0.71988 0.02236 -0.02200
H 	H 	0.24980 0.72120 0.03730 0.03100
C 	C 	0.21468 0.19850 0.52349 -0.07100
H 	H 	0.21260 0.18640 0.53920 0.05500
C 	C 	0.23653 0.21988 0.52236 -0.02200
H 	H 	0.24980 0.22120 0.53730 0.03100
C 	C 	0.71468 0.69850 0.52349 -0.07100
H 	H 	0.71260 0.68640 0.53920 0.05500
C 	C 	0.73653 0.71988 0.52236 -0.02200
H 	H 	0.74980 0.72120 0.53730 0.03100
C 	C 	0.71468 0.19850 0.02349 -0.07100
H 	H 	0.71260 0.18640 0.03920 0.05500
C 	C 	0.73653 0.21988 0.02236 -0.02200
H 	H 	0.74980 0.22120 0.03730 0.03100
C 	C 	0.78532 0.69850 0.97651 -0.07000
H 	H 	0.78740 0.68640 0.96080 0.05500
C 	C 	0.76347 0.71988 0.97764 -0.02100
H 	H 	0.75020 0.72120 0.96270 0.03100
C 	C 	0.78532 0.19850 0.47651 -0.07100
H 	H 	0.78740 0.18640 0.46080 0.05500
C 	C 	0.76347 0.21988 0.47764 -0.02200
H 	H 	0.75020 0.22120 0.46270 0.03100
C 	C 	0.28532 0.69850 0.47651 -0.07100
H 	H 	0.28740 0.68640 0.46080 0.05500
C 	C 	0.26347 0.71988 0.47764 -0.02200
H 	H 	0.25020 0.72120 0.46270 0.03100
C 	C 	0.28532 0.19850 0.97651 -0.07000
H 	H 	0.28740 0.18640 0.96080 0.05500
C 	C 	0.26347 0.21988 0.97764 -0.02100
H 	H 	0.25020 0.22120 0.96270 0.03100
C 	C 	0.78532 0.30150 0.02349 -0.07100
H 	H 	0.78740 0.31360 0.03920 0.05500
C 	C 	0.76347 0.28012 0.02236 -0.02200
H 	H 	0.75020 0.27880 0.03730 0.03100
C 	C 	0.78532 0.80150 0.52349 -0.07100
H 	H 	0.78740 0.81360 0.53920 0.05500
C 	C 	0.76347 0.78012 0.52236 -0.02200
H 	H 	0.75020 0.77880 0.53730 0.03100
C 	C 	0.28532 0.30150 0.52349 -0.07100
H 	H 	0.28740 0.31360 0.53920 0.05500
C 	C 	0.26347 0.28012 0.52236 -0.02200
H 	H 	0.25020 0.27880 0.53730 0.03100
C 	C 	0.28532 0.80150 0.02349 -0.07100
H 	H 	0.28740 0.81360 0.03920 0.05500
C 	C 	0.26347 0.78012 0.02236 -0.02200
H 	H 	0.25020 0.77880 0.03730 0.03100
C 	C 	0.97651 0.21468 0.30150 -0.07000
H 	H 	0.96080 0.21260 0.31360 0.05500
C 	C 	0.97764 0.23653 0.28012 -0.02100
H 	H 	0.96270 0.24980 0.27880 0.03100
C 	C 	0.97651 0.71468 0.80150 -0.07100
H 	H 	0.96080 0.71260 0.81360 0.05500
C 	C 	0.97764 0.73653 0.78012 -0.02100
H 	H 	0.96270 0.74980 0.77880 0.03100
C 	C 	0.47651 0.21468 0.80150 -0.07100
H 	H 	0.46080 0.21260 0.81360 0.05500
C 	C 	0.47764 0.23653 0.78012 -0.02200
H 	H 	0.46270 0.24980 0.77880 0.03100
C 	C 	0.47651 0.71468 0.30150 -0.07200
H 	H 	0.46080 0.71260 0.31360 0.05500
C 	C 	0.47764 0.73653 0.28012 -0.02200
H 	H 	0.46270 0.74980 0.27880 0.03100
C 	C 	0.02349 0.21468 0.69850 -0.07100
H 	H 	0.03920 0.21260 0.68640 0.05500
C 	C 	0.02236 0.23653 0.71988 -0.02200
H 	H 	0.03730 0.24980 0.72120 0.03100
C 	C 	0.02349 0.71468 0.19850 -0.07100
H 	H 	0.03920 0.71260 0.18640 0.05500
C 	C 	0.02236 0.73653 0.21988 -0.02200
H 	H 	0.03730 0.74980 0.22120 0.03100
C 	C 	0.52349 0.21468 0.19850 -0.07100
H 	H 	0.53920 0.21260 0.18640 0.05500
C 	C 	0.52236 0.23653 0.21988 -0.02200
H 	H 	0.53730 0.24980 0.22120 0.03100
C 	C 	0.52349 0.71468 0.69850 -0.07100
H 	H 	0.53920 0.71260 0.68640 0.05500
C 	C 	0.52236 0.73653 0.71988 -0.02200
H 	H 	0.53730 0.74980 0.72120 0.03100
C 	C 	0.97651 0.78532 0.69850 -0.07000
H 	H 	0.96080 0.78740 0.68640 0.05500
C 	C 	0.97764 0.76347 0.71988 -0.02100
H 	H 	0.96270 0.75020 0.72120 0.03100
C 	C 	0.97651 0.28532 0.19850 -0.07000
H 	H 	0.96080 0.28740 0.18640 0.05500
C 	C 	0.97764 0.26347 0.21988 -0.02100
H 	H 	0.96270 0.25020 0.22120 0.03100
C 	C 	0.47651 0.78532 0.19850 -0.07100
H 	H 	0.46080 0.78740 0.18640 0.05500
C 	C 	0.47764 0.76347 0.21988 -0.02200
H 	H 	0.46270 0.75020 0.22120 0.03100
C 	C 	0.47651 0.28532 0.69850 -0.07100
H 	H 	0.46080 0.28740 0.68640 0.05500
C 	C 	0.47764 0.26347 0.71988 -0.02200
H 	H 	0.46270 0.25020 0.72120 0.03100
C 	C 	0.02349 0.78532 0.30150 -0.07100
H 	H 	0.03920 0.78740 0.31360 0.05500
C 	C 	0.02236 0.76347 0.28012 -0.02200
H 	H 	0.03730 0.75020 0.27880 0.03100
C 	C 	0.02349 0.28532 0.80150 -0.07100
H 	H 	0.03920 0.28740 0.81360 0.05500
C 	C 	0.02236 0.26347 0.78012 -0.02200
H 	H 	0.03730 0.25020 0.77880 0.03100
C 	C 	0.52349 0.78532 0.80150 -0.07100
H 	H 	0.53920 0.78740 0.81360 0.05500
C 	C 	0.52236 0.76347 0.78012 -0.02200
H 	H 	0.53730 0.75020 0.77880 0.03100
C 	C 	0.52349 0.28532 0.30150 -0.07100
H 	H 	0.53920 0.28740 0.31360 0.05500
C 	C 	0.52236 0.26347 0.28012 -0.02200
H 	H 	0.53730 0.25020 0.27880 0.03100
C 	C 	0.97651 0.30150 0.78532 -0.07000
H 	H 	0.96080 0.31360 0.78740 0.05500
C 	C 	0.97764 0.28012 0.76347 -0.02100
H 	H 	0.96270 0.27880 0.75020 0.03100
C 	C 	0.97651 0.80150 0.28532 -0.07000
H 	H 	0.96080 0.81360 0.28740 0.05500
C 	C 	0.97764 0.78012 0.26347 -0.02100
H 	H 	0.96270 0.77880 0.25020 0.03100
C 	C 	0.47651 0.30150 0.28532 -0.07100
H 	H 	0.46080 0.31360 0.28740 0.05500
C 	C 	0.47764 0.28012 0.26347 -0.02200
H 	H 	0.46270 0.27880 0.25020 0.03100
C 	C 	0.47651 0.80150 0.78532 -0.07100
H 	H 	0.46080 0.81360 0.78740 0.05500
C 	C 	0.47764 0.78012 0.76347 -0.02200
H 	H 	0.46270 0.77880 0.75020 0.03100
C 	C 	0.02349 0.69850 0.78532 -0.07100
H 	H 	0.03920 0.68640 0.78740 0.05500
C 	C 	0.02236 0.71988 0.76347 -0.02200
H 	H 	0.03730 0.72120 0.75020 0.03100
C 	C 	0.02349 0.19850 0.28532 -0.07100
H 	H 	0.03920 0.18640 0.28740 0.05500
C 	C 	0.02236 0.21988 0.26347 -0.02200
H 	H 	0.03730 0.22120 0.25020 0.03100
C 	C 	0.52349 0.69850 0.28532 -0.07100
H 	H 	0.53920 0.68640 0.28740 0.05500
C 	C 	0.52236 0.71988 0.26347 -0.02200
H 	H 	0.53730 0.72120 0.25020 0.03100
C 	C 	0.52349 0.19850 0.78532 -0.07100
H 	H 	0.53920 0.18640 0.78740 0.05500
C 	C 	0.52236 0.21988 0.76347 -0.02200
H 	H 	0.53730 0.22120 0.75020 0.03100
C 	C 	0.97651 0.69850 0.21468 -0.07000
H 	H 	0.96080 0.68640 0.21260 0.05500
C 	C 	0.97764 0.71988 0.23653 -0.02100
H 	H 	0.96270 0.72120 0.24980 0.03100
C 	C 	0.97651 0.19850 0.71468 -0.07000
H 	H 	0.96080 0.18640 0.71260 0.05500
C 	C 	0.97764 0.21988 0.73653 -0.02100
H 	H 	0.96270 0.22120 0.74980 0.03100
C 	C 	0.47651 0.69850 0.71468 -0.07100
H 	H 	0.46080 0.68640 0.71260 0.05500
C 	C 	0.47764 0.71988 0.73653 -0.02200
H 	H 	0.46270 0.72120 0.74980 0.03100
C 	C 	0.47651 0.19850 0.21468 -0.07100
H 	H 	0.46080 0.18640 0.21260 0.05500
C 	C 	0.47764 0.21988 0.23653 -0.02200
H 	H 	0.46270 0.22120 0.24980 0.03100
C 	C 	0.02349 0.30150 0.21468 -0.07100
H 	H 	0.03920 0.31360 0.21260 0.05500
C 	C 	0.02236 0.28012 0.23653 -0.02200
H 	H 	0.03730 0.27880 0.24980 0.03100
C 	C 	0.02349 0.80150 0.71468 -0.07100
H 	H 	0.03920 0.81360 0.71260 0.05500
C 	C 	0.02236 0.78012 0.73653 -0.02200
H 	H 	0.03730 0.77880 0.74980 0.03100
C 	C 	0.52349 0.30150 0.71468 -0.07100
H 	H 	0.53920 0.31360 0.71260 0.05500
C 	C 	0.52236 0.28012 0.73653 -0.02200
H 	H 	0.53730 0.27880 0.74980 0.03100
C 	C 	0.52349 0.80150 0.21468 -0.07200
H 	H 	0.53920 0.81360 0.21260 0.05500
C 	C 	0.52236 0.78012 0.23653 -0.02200
H 	H 	0.53730 0.77880 0.24980 0.03100
C 	C 	0.30150 0.21468 0.02349 -0.07100
H 	H 	0.31360 0.21260 0.03920 0.05500
C 	C 	0.28012 0.23653 0.02236 -0.02200
H 	H 	0.27880 0.24980 0.03730 0.03100
C 	C 	0.30150 0.71468 0.52349 -0.07100
H 	H 	0.31360 0.71260 0.53920 0.05500
C 	C 	0.28012 0.73653 0.52236 -0.02200
H 	H 	0.27880 0.74980 0.53730 0.03100
C 	C 	0.80150 0.21468 0.52349 -0.07200
H 	H 	0.81360 0.21260 0.53920 0.05500
C 	C 	0.78012 0.23653 0.52236 -0.02200
H 	H 	0.77880 0.24980 0.53730 0.03100
C 	C 	0.80150 0.71468 0.02349 -0.07100
H 	H 	0.81360 0.71260 0.03920 0.05500
C 	C 	0.78012 0.73653 0.02236 -0.02200
H 	H 	0.77880 0.74980 0.03730 0.03100
C 	C 	0.69850 0.21468 0.97651 -0.07000
H 	H 	0.68640 0.21260 0.96080 0.05500
C 	C 	0.71988 0.23653 0.97764 -0.02100
H 	H 	0.72120 0.24980 0.96270 0.03100
C 	C 	0.69850 0.71468 0.47651 -0.07100
H 	H 	0.68640 0.71260 0.46080 0.05500
C 	C 	0.71988 0.73653 0.47764 -0.02200
H 	H 	0.72120 0.74980 0.46270 0.03100
C 	C 	0.19850 0.21468 0.47651 -0.07100
H 	H 	0.18640 0.21260 0.46080 0.05500
C 	C 	0.21988 0.23653 0.47764 -0.02200
H 	H 	0.22120 0.24980 0.46270 0.03100
C 	C 	0.19850 0.71468 0.97651 -0.07000
H 	H 	0.18640 0.71260 0.96080 0.05500
C 	C 	0.21988 0.73653 0.97764 -0.02100
H 	H 	0.22120 0.74980 0.96270 0.03100
C 	C 	0.69850 0.78532 0.02349 -0.07100
H 	H 	0.68640 0.78740 0.03920 0.05500
C 	C 	0.71988 0.76347 0.02236 -0.02200
H 	H 	0.72120 0.75020 0.03730 0.03100
C 	C 	0.69850 0.28532 0.52349 -0.07100
H 	H 	0.68640 0.28740 0.53920 0.05500
C 	C 	0.71988 0.26347 0.52236 -0.02200
H 	H 	0.72120 0.25020 0.53730 0.03100
C 	C 	0.19850 0.78532 0.52349 -0.07100
H 	H 	0.18640 0.78740 0.53920 0.05500
C 	C 	0.21988 0.76347 0.52236 -0.02200
H 	H 	0.22120 0.75020 0.53730 0.03100
C 	C 	0.19850 0.28532 0.02349 -0.07100
H 	H 	0.18640 0.28740 0.03920 0.05500
C 	C 	0.21988 0.26347 0.02236 -0.02200
H 	H 	0.22120 0.25020 0.03730 0.03100
C 	C 	0.30150 0.78532 0.97651 -0.07000
H 	H 	0.31360 0.78740 0.96080 0.05500
C 	C 	0.28012 0.76347 0.97764 -0.02100
H 	H 	0.27880 0.75020 0.96270 0.03100
C 	C 	0.30150 0.28532 0.47651 -0.07100
H 	H 	0.31360 0.28740 0.46080 0.05500
C 	C 	0.28012 0.26347 0.47764 -0.02200
H 	H 	0.27880 0.25020 0.46270 0.03100
C 	C 	0.80150 0.78532 0.47651 -0.07100
H 	H 	0.81360 0.78740 0.46080 0.05500
C 	C 	0.78012 0.76347 0.47764 -0.02200
H 	H 	0.77880 0.75020 0.46270 0.03100
C 	C 	0.80150 0.28532 0.97651 -0.07000
H 	H 	0.81360 0.28740 0.96080 0.05500
C 	C 	0.78012 0.26347 0.97764 -0.02100
H 	H 	0.77880 0.25020 0.96270 0.03100
C 	C 	0.21468 0.97651 0.69850 -0.07000
H 	H 	0.21260 0.96080 0.68640 0.05500
C 	C 	0.23653 0.97764 0.71988 -0.02100
H 	H 	0.24980 0.96270 0.72120 0.03100
C 	C 	0.21468 0.47651 0.19850 -0.07100
H 	H 	0.21260 0.46080 0.18640 0.05500
C 	C 	0.23653 0.47764 0.21988 -0.02200
H 	H 	0.24980 0.46270 0.22120 0.03100
C 	C 	0.71468 0.97651 0.19850 -0.07000
H 	H 	0.71260 0.96080 0.18640 0.05500
C 	C 	0.73653 0.97764 0.21988 -0.02100
H 	H 	0.74980 0.96270 0.22120 0.03100
C 	C 	0.71468 0.47651 0.69850 -0.07100
H 	H 	0.71260 0.46080 0.68640 0.05500
C 	C 	0.73653 0.47764 0.71988 -0.02200
H 	H 	0.74980 0.46270 0.72120 0.03100
C 	C 	0.21468 0.02349 0.30150 -0.07100
H 	H 	0.21260 0.03920 0.31360 0.05500
C 	C 	0.23653 0.02236 0.28012 -0.02200
H 	H 	0.24980 0.03730 0.27880 0.03100
C 	C 	0.21468 0.52349 0.80150 -0.07100
H 	H 	0.21260 0.53920 0.81360 0.05500
C 	C 	0.23653 0.52236 0.78012 -0.02200
H 	H 	0.24980 0.53730 0.77880 0.03100
C 	C 	0.71468 0.02349 0.80150 -0.07100
H 	H 	0.71260 0.03920 0.81360 0.05500
C 	C 	0.73653 0.02236 0.78012 -0.02200
H 	H 	0.74980 0.03730 0.77880 0.03100
C 	C 	0.71468 0.52349 0.30150 -0.07200
H 	H 	0.71260 0.53920 0.31360 0.05500
C 	C 	0.73653 0.52236 0.28012 -0.02200
H 	H 	0.74980 0.53730 0.27880 0.03100
C 	C 	0.78532 0.97651 0.30150 -0.07000
H 	H 	0.78740 0.96080 0.31360 0.05500
C 	C 	0.76347 0.97764 0.28012 -0.02100
H 	H 	0.75020 0.96270 0.27880 0.03100
C 	C 	0.78532 0.47651 0.80150 -0.07100
H 	H 	0.78740 0.46080 0.81360 0.05500
C 	C 	0.76347 0.47764 0.78012 -0.02200
H 	H 	0.75020 0.46270 0.77880 0.03100
C 	C 	0.28532 0.97651 0.80150 -0.07000
H 	H 	0.28740 0.96080 0.81360 0.05500
C 	C 	0.26347 0.97764 0.78012 -0.02100
H 	H 	0.25020 0.96270 0.77880 0.03100
C 	C 	0.28532 0.47651 0.30150 -0.07100
H 	H 	0.28740 0.46080 0.31360 0.05500
C 	C 	0.26347 0.47764 0.28012 -0.02200
H 	H 	0.25020 0.46270 0.27880 0.03100
C 	C 	0.78532 0.02349 0.69850 -0.07100
H 	H 	0.78740 0.03920 0.68640 0.05500
C 	C 	0.76347 0.02236 0.71988 -0.02200
H 	H 	0.75020 0.03730 0.72120 0.03100
C 	C 	0.78532 0.52349 0.19850 -0.07100
H 	H 	0.78740 0.53920 0.18640 0.05500
C 	C 	0.76347 0.52236 0.21988 -0.02200
H 	H 	0.75020 0.53730 0.22120 0.03100
C 	C 	0.28532 0.02349 0.19850 -0.07100
H 	H 	0.28740 0.03920 0.18640 0.05500
C 	C 	0.26347 0.02236 0.21988 -0.02200
H 	H 	0.25020 0.03730 0.22120 0.03100
C 	C 	0.28532 0.52349 0.69850 -0.07100
H 	H 	0.28740 0.53920 0.68640 0.05500
C 	C 	0.26347 0.52236 0.71988 -0.02200
H 	H 	0.25020 0.53730 0.72120 0.03100
Cu	Cu	0.50000 0.00000 0.85050 0.90100
Cu	Cu	0.50000 0.00000 0.79400 0.90100
Cu	Cu	0.50000 0.50000 0.35050 0.90100
Cu	Cu	0.50000 0.50000 0.29400 0.90100
Cu	Cu	0.50000 0.00000 0.14950 0.90100
Cu	Cu	0.50000 0.00000 0.20600 0.90100
Cu	Cu	0.50000 0.50000 0.64950 0.90100
Cu	Cu	0.50000 0.50000 0.70600 0.90100
Cu	Cu	0.85050 0.50000 -0.00000 0.90100
Cu	Cu	0.79400 0.50000 -0.00000 0.90100
Cu	Cu	0.35050 0.50000 0.50000 0.90100
Cu	Cu	0.29400 0.50000 0.50000 0.90100
Cu	Cu	0.14950 0.50000 -0.00000 0.90100
Cu	Cu	0.20600 0.50000 -0.00000 0.90100
Cu	Cu	0.64950 0.50000 0.50000 0.90100
Cu	Cu	0.70600 0.50000 0.50000 0.90100
Cu	Cu	0.00000 0.85050 0.50000 0.90100
Cu	Cu	0.00000 0.79400 0.50000 0.90100
Cu	Cu	0.00000 0.35050 -0.00000 0.90100
Cu	Cu	-0.00000 0.29400 -0.00000 0.90100
Cu	Cu	0.00000 0.14950 0.50000 0.90100
Cu	Cu	0.00000 0.20600 0.50000 0.90100
Cu	Cu	-0.00000 0.64950 -0.00000 0.90100
Cu	Cu	0.00000 0.70600 -0.00000 0.90100
Cu	Cu	0.00000 0.50000 0.14950 0.90100
Cu	Cu	0.00000 0.50000 0.20600 0.90100
Cu	Cu	0.00000 0.00000 0.64950 0.90100
Cu	Cu	0.00000 0.00000 0.70600 0.90100
Cu	Cu	-0.00000 0.50000 0.85050 0.90100
Cu	Cu	-0.00000 0.50000 0.79400 0.90100
Cu	Cu	0.00000 0.00000 0.35050 0.90100
Cu	Cu	0.00000 0.00000 0.29400 0.90100
Cu	Cu	0.50000 0.85050 -0.00000 0.90100
Cu	Cu	0.50000 0.79400 -0.00000 0.90100
Cu	Cu	0.50000 0.35050 0.50000 0.90100
Cu	Cu	0.50000 0.29400 0.50000 0.90100
Cu	Cu	0.50000 0.14950 -0.00000 0.90100
Cu	Cu	0.50000 0.20600 -0.00000 0.90100
Cu	Cu	0.50000 0.64950 0.50000 0.90100
Cu	Cu	0.50000 0.70600 0.50000 0.90100
Cu	Cu	0.85050 0.00000 0.50000 0.90100
Cu	Cu	0.79400 0.00000 0.50000 0.90100
Cu	Cu	0.35050 0.00000 -0.00000 0.90100
Cu	Cu	0.29400 0.00000 -0.00000 0.90100
Cu	Cu	0.14950 0.00000 0.50000 0.90100
Cu	Cu	0.20600 0.00000 0.50000 0.90100
Cu	Cu	0.64950 0.00000 -0.00000 0.90100
Cu	Cu	0.70600 0.00000 -0.00000 0.90100
O 	O 	0.54211 0.00000 0.84618 -0.41600
O 	O 	0.54195 0.00000 0.79804 -0.41000
C 	C 	0.55388 0.00000 0.82250 0.37100
C 	C 	0.58593 0.00000 0.82180 -0.10700
C 	C 	0.60171 0.00000 0.84740 -0.00100
H 	H 	0.59200 0.00000 0.86480 0.05000
C 	C 	0.63079 0.00000 0.84720 -0.02800
C 	C 	0.64526 0.00000 0.82020 0.10400
C 	C 	0.62960 -0.00000 0.79450 -0.15400
H 	H 	0.63900 0.00000 0.77690 0.08600
C 	C 	0.60105 0.00000 0.79560 0.06100
H 	H 	0.59070 0.00000 0.77850 0.02400
O 	O 	0.54211 0.50000 0.34618 -0.41500
O 	O 	0.54195 0.50000 0.29804 -0.41000
C 	C 	0.55388 0.50000 0.32250 0.37100
C 	C 	0.58593 0.50000 0.32180 -0.10700
C 	C 	0.60171 0.50000 0.34740 -0.00100
H 	H 	0.59200 0.50000 0.36480 0.05000
C 	C 	0.63079 0.50000 0.34720 -0.02800
C 	C 	0.64526 0.50000 0.32020 0.10500
C 	C 	0.62960 0.50000 0.29450 -0.15400
H 	H 	0.63900 0.50000 0.27690 0.08600
C 	C 	0.60105 0.50000 0.29560 0.06100
H 	H 	0.59070 0.50000 0.27850 0.02400
O 	O 	0.04211 0.00000 0.34618 -0.41600
O 	O 	0.04195 0.00000 0.29804 -0.41000
C 	C 	0.05388 0.00000 0.32250 0.37100
C 	C 	0.08593 0.00000 0.32180 -0.10700
C 	C 	0.10171 0.00000 0.34740 -0.00000
H 	H 	0.09200 0.00000 0.36480 0.05000
C 	C 	0.13079 0.00000 0.34720 -0.02800
C 	C 	0.14526 0.00000 0.32020 0.10400
C 	C 	0.12960 0.00000 0.29450 -0.15400
H 	H 	0.13900 0.00000 0.27690 0.08600
C 	C 	0.10105 0.00000 0.29560 0.06100
H 	H 	0.09070 0.00000 0.27850 0.02300
O 	O 	0.04211 0.50000 0.84618 -0.41500
O 	O 	0.04195 0.50000 0.79804 -0.41000
C 	C 	0.05388 0.50000 0.82250 0.37100
C 	C 	0.08593 0.50000 0.82180 -0.10700
C 	C 	0.10171 0.50000 0.84740 -0.00000
H 	H 	0.09200 0.50000 0.86480 0.05000
C 	C 	0.13079 0.50000 0.84720 -0.02800
C 	C 	0.14526 0.50000 0.82020 0.10500
C 	C 	0.12960 0.50000 0.79450 -0.15400
H 	H 	0.13900 0.50000 0.77690 0.08600
C 	C 	0.10105 0.50000 0.79560 0.06100
H 	H 	0.09070 0.50000 0.77850 0.02400
O 	O 	0.45789 0.00000 0.84618 -0.41600
O 	O 	0.45805 0.00000 0.79804 -0.41000
C 	C 	0.44612 0.00000 0.82250 0.37100
C 	C 	0.41407 0.00000 0.82180 -0.10700
C 	C 	0.39829 0.00000 0.84740 -0.00100
H 	H 	0.40800 0.00000 0.86480 0.05000
C 	C 	0.36921 0.00000 0.84720 -0.02800
C 	C 	0.35474 0.00000 0.82020 0.10400
C 	C 	0.37040 -0.00000 0.79450 -0.15400
H 	H 	0.36100 0.00000 0.77690 0.08600
C 	C 	0.39895 0.00000 0.79560 0.06100
H 	H 	0.40930 0.00000 0.77850 0.02400
O 	O 	0.45789 0.50000 0.34618 -0.41500
O 	O 	0.45805 0.50000 0.29804 -0.41000
C 	C 	0.44612 0.50000 0.32250 0.37100
C 	C 	0.41407 0.50000 0.32180 -0.10700
C 	C 	0.39829 0.50000 0.34740 -0.00000
H 	H 	0.40800 0.50000 0.36480 0.05000
C 	C 	0.36921 0.50000 0.34720 -0.02800
C 	C 	0.35474 0.50000 0.32020 0.10500
C 	C 	0.37040 0.50000 0.29450 -0.15400
H 	H 	0.36100 0.50000 0.27690 0.08600
C 	C 	0.39895 0.50000 0.29560 0.06100
H 	H 	0.40930 0.50000 0.27850 0.02400
O 	O 	0.95789 0.00000 0.34618 -0.41500
O 	O 	0.95805 0.00000 0.29804 -0.40900
C 	C 	0.94612 0.00000 0.32250 0.37100
C 	C 	0.91407 0.00000 0.32180 -0.10600
C 	C 	0.89829 0.00000 0.34740 -0.00100
H 	H 	0.90800 0.00000 0.36480 0.05000
C 	C 	0.86921 0.00000 0.34720 -0.02800
C 	C 	0.85474 0.00000 0.32020 0.10400
C 	C 	0.87040 0.00000 0.29450 -0.15400
H 	H 	0.86100 0.00000 0.27690 0.08600
C 	C 	0.89895 0.00000 0.29560 0.06100
H 	H 	0.90930 0.00000 0.27850 0.02400
O 	O 	0.95789 0.50000 0.84618 -0.41400
O 	O 	0.95805 0.50000 0.79804 -0.40900
C 	C 	0.94612 0.50000 0.82250 0.37100
C 	C 	0.91407 0.50000 0.82180 -0.10600
C 	C 	0.89829 0.50000 0.84740 -0.00100
H 	H 	0.90800 0.50000 0.86480 0.05000
C 	C 	0.86921 0.50000 0.84720 -0.02700
C 	C 	0.85474 0.50000 0.82020 0.10500
C 	C 	0.87040 0.50000 0.79450 -0.15400
H 	H 	0.86100 0.50000 0.77690 0.08600
C 	C 	0.89895 0.50000 0.79560 0.06100
H 	H 	0.90930 0.50000 0.77850 0.02400
O 	O 	0.45789 0.00000 0.15382 -0.41600
O 	O 	0.45805 0.00000 0.20196 -0.41000
C 	C 	0.44612 0.00000 0.17750 0.37100
C 	C 	0.41407 0.00000 0.17820 -0.10700
C 	C 	0.39829 0.00000 0.15260 -0.00100
H 	H 	0.40800 0.00000 0.13520 0.05000
C 	C 	0.36921 0.00000 0.15280 -0.02800
C 	C 	0.35474 0.00000 0.17980 0.10400
C 	C 	0.37040 0.00000 0.20550 -0.15400
H 	H 	0.36100 0.00000 0.22310 0.08600
C 	C 	0.39895 0.00000 0.20440 0.06100
H 	H 	0.40930 0.00000 0.22150 0.02400
O 	O 	0.45789 0.50000 0.65382 -0.41500
O 	O 	0.45805 0.50000 0.70196 -0.41000
C 	C 	0.44612 0.50000 0.67750 0.37100
C 	C 	0.41407 0.50000 0.67820 -0.10700
C 	C 	0.39829 0.50000 0.65260 -0.00000
H 	H 	0.40800 0.50000 0.63520 0.05000
C 	C 	0.36921 0.50000 0.65280 -0.02800
C 	C 	0.35474 0.50000 0.67980 0.10500
C 	C 	0.37040 0.50000 0.70550 -0.15400
H 	H 	0.36100 0.50000 0.72310 0.08600
C 	C 	0.39895 0.50000 0.70440 0.06100
H 	H 	0.40930 0.50000 0.72150 0.02400
O 	O 	0.95789 0.00000 0.65382 -0.41500
O 	O 	0.95805 0.00000 0.70196 -0.40900
C 	C 	0.94612 0.00000 0.67750 0.37100
C 	C 	0.91407 0.00000 0.67820 -0.10600
C 	C 	0.89829 0.00000 0.65260 -0.00100
H 	H 	0.90800 0.00000 0.63520 0.05000
C 	C 	0.86921 0.00000 0.65280 -0.02800
C 	C 	0.85474 0.00000 0.67980 0.10400
C 	C 	0.87040 0.00000 0.70550 -0.15400
H 	H 	0.86100 0.00000 0.72310 0.08600
C 	C 	0.89895 0.00000 0.70440 0.06100
H 	H 	0.90930 0.00000 0.72150 0.02400
O 	O 	0.95789 0.50000 0.15382 -0.41500
O 	O 	0.95805 0.50000 0.20196 -0.40900
C 	C 	0.94612 0.50000 0.17750 0.37100
C 	C 	0.91407 0.50000 0.17820 -0.10600
C 	C 	0.89829 0.50000 0.15260 -0.00100
H 	H 	0.90800 0.50000 0.13520 0.05000
C 	C 	0.86921 0.50000 0.15280 -0.02800
C 	C 	0.85474 0.50000 0.17980 0.10500
C 	C 	0.87040 0.50000 0.20550 -0.15400
H 	H 	0.86100 0.50000 0.22310 0.08600
C 	C 	0.89895 0.50000 0.20440 0.06100
H 	H 	0.90930 0.50000 0.22150 0.02400
O 	O 	0.54211 0.00000 0.15382 -0.41600
O 	O 	0.54195 0.00000 0.20196 -0.41000
C 	C 	0.55388 0.00000 0.17750 0.37100
C 	C 	0.58593 0.00000 0.17820 -0.10700
C 	C 	0.60171 0.00000 0.15260 -0.00100
H 	H 	0.59200 0.00000 0.13520 0.05000
C 	C 	0.63079 0.00000 0.15280 -0.02800
C 	C 	0.64526 0.00000 0.17980 0.10400
C 	C 	0.62960 0.00000 0.20550 -0.15400
H 	H 	0.63900 0.00000 0.22310 0.08600
C 	C 	0.60105 0.00000 0.20440 0.06100
H 	H 	0.59070 0.00000 0.22150 0.02400
O 	O 	0.54211 0.50000 0.65382 -0.41500
O 	O 	0.54195 0.50000 0.70196 -0.41000
C 	C 	0.55388 0.50000 0.67750 0.37100
C 	C 	0.58593 0.50000 0.67820 -0.10700
C 	C 	0.60171 0.50000 0.65260 -0.00100
H 	H 	0.59200 0.50000 0.63520 0.05000
C 	C 	0.63079 0.50000 0.65280 -0.02800
C 	C 	0.64526 0.50000 0.67980 0.10500
C 	C 	0.62960 0.50000 0.70550 -0.15400
H 	H 	0.63900 0.50000 0.72310 0.08600
C 	C 	0.60105 0.50000 0.70440 0.06100
H 	H 	0.59070 0.50000 0.72150 0.02400
O 	O 	0.04211 0.00000 0.65382 -0.41600
O 	O 	0.04195 0.00000 0.70196 -0.41000
C 	C 	0.05388 0.00000 0.67750 0.37100
C 	C 	0.08593 0.00000 0.67820 -0.10700
C 	C 	0.10171 0.00000 0.65260 -0.00000
H 	H 	0.09200 0.00000 0.63520 0.05000
C 	C 	0.13079 0.00000 0.65280 -0.02800
C 	C 	0.14526 0.00000 0.67980 0.10400
C 	C 	0.12960 0.00000 0.70550 -0.15400
H 	H 	0.13900 0.00000 0.72310 0.08600
C 	C 	0.10105 0.00000 0.70440 0.06100
H 	H 	0.09070 0.00000 0.72150 0.02400
O 	O 	0.04211 0.50000 0.15382 -0.41600
O 	O 	0.04195 0.50000 0.20196 -0.41000
C 	C 	0.05388 0.50000 0.17750 0.37100
C 	C 	0.08593 0.50000 0.17820 -0.10700
C 	C 	0.10171 0.50000 0.15260 -0.00000
H 	H 	0.09200 0.50000 0.13520 0.05000
C 	C 	0.13079 0.50000 0.15280 -0.02800
C 	C 	0.14526 0.50000 0.17980 0.10500
C 	C 	0.12960 0.50000 0.20550 -0.15400
H 	H 	0.13900 0.50000 0.22310 0.08600
C 	C 	0.10105 0.50000 0.20440 0.06100
H 	H 	0.09070 0.50000 0.22150 0.02400
O 	O 	0.84618 0.54211 -0.00000 -0.41600
O 	O 	0.79804 0.54195 -0.00000 -0.41000
C 	C 	0.82250 0.55388 -0.00000 0.37100
C 	C 	0.82180 0.58593 -0.00000 -0.10700
C 	C 	0.84740 0.60171 -0.00000 -0.00100
H 	H 	0.86480 0.59200 -0.00000 0.05000
C 	C 	0.84720 0.63079 -0.00000 -0.02800
C 	C 	0.82020 0.64526 -0.00000 0.10400
C 	C 	0.79450 0.62960 -0.00000 -0.15400
H 	H 	0.77690 0.63900 -0.00000 0.08600
C 	C 	0.79560 0.60105 -0.00000 0.06100
H 	H 	0.77850 0.59070 -0.00000 0.02400
O 	O 	0.84618 0.04211 0.50000 -0.41500
O 	O 	0.79804 0.04195 0.50000 -0.41000
C 	C 	0.82250 0.05388 0.50000 0.37100
C 	C 	0.82180 0.08593 0.50000 -0.10700
C 	C 	0.84740 0.10171 0.50000 -0.00000
H 	H 	0.86480 0.09200 0.50000 0.05000
C 	C 	0.84720 0.13079 0.50000 -0.02800
C 	C 	0.82020 0.14526 0.50000 0.10500
C 	C 	0.79450 0.12960 0.50000 -0.15400
H 	H 	0.77690 0.13900 0.50000 0.08600
C 	C 	0.79560 0.10105 0.50000 0.06100
H 	H 	0.77850 0.09070 0.50000 0.02400
O 	O 	0.34618 0.54211 0.50000 -0.41500
O 	O 	0.29804 0.54195 0.50000 -0.41000
C 	C 	0.32250 0.55388 0.50000 0.37100
C 	C 	0.32180 0.58593 0.50000 -0.10700
C 	C 	0.34740 0.60171 0.50000 -0.00000
H 	H 	0.36480 0.59200 0.50000 0.05000
C 	C 	0.34720 0.63079 0.50000 -0.02800
C 	C 	0.32020 0.64526 0.50000 0.10500
C 	C 	0.29450 0.62960 0.50000 -0.15400
H 	H 	0.27690 0.63900 0.50000 0.08600
C 	C 	0.29560 0.60105 0.50000 0.06100
H 	H 	0.27850 0.59070 0.50000 0.02400
O 	O 	0.34618 0.04211 -0.00000 -0.41600
O 	O 	0.29804 0.04195 -0.00000 -0.41000
C 	C 	0.32250 0.05388 -0.00000 0.37100
C 	C 	0.32180 0.08593 -0.00000 -0.10700
C 	C 	0.34740 0.10171 -0.00000 -0.00000
H 	H 	0.36480 0.09200 -0.00000 0.05000
C 	C 	0.34720 0.13079 -0.00000 -0.02800
C 	C 	0.32020 0.14526 -0.00000 0.10400
C 	C 	0.29450 0.12960 -0.00000 -0.15400
H 	H 	0.27690 0.13900 -0.00000 0.08600
C 	C 	0.29560 0.10105 -0.00000 0.06100
H 	H 	0.27850 0.09070 -0.00000 0.02300
O 	O 	0.84618 0.45789 -0.00000 -0.41600
O 	O 	0.79804 0.45805 -0.00000 -0.41000
C 	C 	0.82250 0.44612 -0.00000 0.37100
C 	C 	0.82180 0.41407 -0.00000 -0.10700
C 	C 	0.84740 0.39829 -0.00000 -0.00100
H 	H 	0.86480 0.40800 -0.00000 0.05000
C 	C 	0.84720 0.36921 -0.00000 -0.02800
C 	C 	0.82020 0.35474 -0.00000 0.10400
C 	C 	0.79450 0.37040 -0.00000 -0.15400
H 	H 	0.77690 0.36100 -0.00000 0.08600
C 	C 	0.79560 0.39895 -0.00000 0.06100
H 	H 	0.77850 0.40930 -0.00000 0.02400
O 	O 	0.84618 0.95789 0.50000 -0.41400
O 	O 	0.79804 0.95805 0.50000 -0.40900
C 	C 	0.82250 0.94612 0.50000 0.37100
C 	C 	0.82180 0.91407 0.50000 -0.10600
C 	C 	0.84740 0.89829 0.50000 -0.00100
H 	H 	0.86480 0.90800 0.50000 0.05000
C 	C 	0.84720 0.86921 0.50000 -0.02700
C 	C 	0.82020 0.85474 0.50000 0.10500
C 	C 	0.79450 0.87040 0.50000 -0.15400
H 	H 	0.77690 0.86100 0.50000 0.08600
C 	C 	0.79560 0.89895 0.50000 0.06100
H 	H 	0.77850 0.90930 0.50000 0.02400
O 	O 	0.34618 0.45789 0.50000 -0.41500
O 	O 	0.29804 0.45805 0.50000 -0.41000
C 	C 	0.32250 0.44612 0.50000 0.37100
C 	C 	0.32180 0.41407 0.50000 -0.10700
C 	C 	0.34740 0.39829 0.50000 -0.00000
H 	H 	0.36480 0.40800 0.50000 0.05000
C 	C 	0.34720 0.36921 0.50000 -0.02800
C 	C 	0.32020 0.35474 0.50000 0.10500
C 	C 	0.29450 0.37040 0.50000 -0.15400
H 	H 	0.27690 0.36100 0.50000 0.08600
C 	C 	0.29560 0.39895 0.50000 0.06100
H 	H 	0.27850 0.40930 0.50000 0.02400
O 	O 	0.34618 0.95789 -0.00000 -0.41500
O 	O 	0.29804 0.95805 -0.00000 -0.40900
C 	C 	0.32250 0.94612 -0.00000 0.37100
C 	C 	0.32180 0.91407 -0.00000 -0.10600
C 	C 	0.34740 0.89829 -0.00000 -0.00100
H 	H 	0.36480 0.90800 -0.00000 0.05000
C 	C 	0.34720 0.86921 -0.00000 -0.02800
C 	C 	0.32020 0.85474 -0.00000 0.10400
C 	C 	0.29450 0.87040 -0.00000 -0.15400
H 	H 	0.27690 0.86100 -0.00000 0.08600
C 	C 	0.29560 0.89895 -0.00000 0.06100
H 	H 	0.27850 0.90930 -0.00000 0.02400
O 	O 	0.15382 0.45789 -0.00000 -0.41600
O 	O 	0.20196 0.45805 -0.00000 -0.41000
C 	C 	0.17750 0.44612 -0.00000 0.37100
C 	C 	0.17820 0.41407 -0.00000 -0.10700
C 	C 	0.15260 0.39829 -0.00000 -0.00100
H 	H 	0.13520 0.40800 -0.00000 0.05000
C 	C 	0.15280 0.36921 -0.00000 -0.02800
C 	C 	0.17980 0.35474 -0.00000 0.10400
C 	C 	0.20550 0.37040 -0.00000 -0.15400
H 	H 	0.22310 0.36100 -0.00000 0.08600
C 	C 	0.20440 0.39895 -0.00000 0.06100
H 	H 	0.22150 0.40930 -0.00000 0.02400
O 	O 	0.15382 0.95789 0.50000 -0.41500
O 	O 	0.20196 0.95805 0.50000 -0.40900
C 	C 	0.17750 0.94612 0.50000 0.37100
C 	C 	0.17820 0.91407 0.50000 -0.10600
C 	C 	0.15260 0.89829 0.50000 -0.00100
H 	H 	0.13520 0.90800 0.50000 0.05000
C 	C 	0.15280 0.86921 0.50000 -0.02800
C 	C 	0.17980 0.85474 0.50000 0.10500
C 	C 	0.20550 0.87040 0.50000 -0.15400
H 	H 	0.22310 0.86100 0.50000 0.08600
C 	C 	0.20440 0.89895 0.50000 0.06100
H 	H 	0.22150 0.90930 0.50000 0.02400
O 	O 	0.65382 0.45789 0.50000 -0.41500
O 	O 	0.70196 0.45805 0.50000 -0.41000
C 	C 	0.67750 0.44612 0.50000 0.37100
C 	C 	0.67820 0.41407 0.50000 -0.10700
C 	C 	0.65260 0.39829 0.50000 -0.00000
H 	H 	0.63520 0.40800 0.50000 0.05000
C 	C 	0.65280 0.36921 0.50000 -0.02800
C 	C 	0.67980 0.35474 0.50000 0.10500
C 	C 	0.70550 0.37040 0.50000 -0.15400
H 	H 	0.72310 0.36100 0.50000 0.08600
C 	C 	0.70440 0.39895 0.50000 0.06100
H 	H 	0.72150 0.40930 0.50000 0.02400
O 	O 	0.65382 0.95789 -0.00000 -0.41500
O 	O 	0.70196 0.95805 -0.00000 -0.40900
C 	C 	0.67750 0.94612 -0.00000 0.37100
C 	C 	0.67820 0.91407 -0.00000 -0.10600
C 	C 	0.65260 0.89829 -0.00000 -0.00100
H 	H 	0.63520 0.90800 -0.00000 0.05000
C 	C 	0.65280 0.86921 -0.00000 -0.02800
C 	C 	0.67980 0.85474 -0.00000 0.10400
C 	C 	0.70550 0.87040 -0.00000 -0.15400
H 	H 	0.72310 0.86100 -0.00000 0.08600
C 	C 	0.70440 0.89895 -0.00000 0.06100
H 	H 	0.72150 0.90930 -0.00000 0.02400
O 	O 	0.15382 0.54211 -0.00000 -0.41600
O 	O 	0.20196 0.54195 -0.00000 -0.41000
C 	C 	0.17750 0.55388 -0.00000 0.37100
C 	C 	0.17820 0.58593 -0.00000 -0.10700
C 	C 	0.15260 0.60171 -0.00000 -0.00100
H 	H 	0.13520 0.59200 -0.00000 0.05000
C 	C 	0.15280 0.63079 -0.00000 -0.02800
C 	C 	0.17980 0.64526 -0.00000 0.10400
C 	C 	0.20550 0.62960 -0.00000 -0.15400
H 	H 	0.22310 0.63900 -0.00000 0.08600
C 	C 	0.20440 0.60105 -0.00000 0.06100
H 	H 	0.22150 0.59070 -0.00000 0.02400
O 	O 	0.15382 0.04211 0.50000 -0.41600
O 	O 	0.20196 0.04195 0.50000 -0.41000
C 	C 	0.17750 0.05388 0.50000 0.37100
C 	C 	0.17820 0.08593 0.50000 -0.10700
C 	C 	0.15260 0.10171 0.50000 -0.00000
H 	H 	0.13520 0.09200 0.50000 0.05000
C 	C 	0.15280 0.13079 0.50000 -0.02800
C 	C 	0.17980 0.14526 0.50000 0.10500
C 	C 	0.20550 0.12960 0.50000 -0.15400
H 	H 	0.22310 0.13900 0.50000 0.08600
C 	C 	0.20440 0.10105 0.50000 0.06100
H 	H 	0.22150 0.09070 0.50000 0.02400
O 	O 	0.65382 0.54211 0.50000 -0.41500
O 	O 	0.70196 0.54195 0.50000 -0.41000
C 	C 	0.67750 0.55388 0.50000 0.37100
C 	C 	0.67820 0.58593 0.50000 -0.10700
C 	C 	0.65260 0.60171 0.50000 -0.00000
H 	H 	0.63520 0.59200 0.50000 0.05000
C 	C 	0.65280 0.63079 0.50000 -0.02800
C 	C 	0.67980 0.64526 0.50000 0.10500
C 	C 	0.70550 0.62960 0.50000 -0.15400
H 	H 	0.72310 0.63900 0.50000 0.08600
C 	C 	0.70440 0.60105 0.50000 0.06100
H 	H 	0.72150 0.59070 0.50000 0.02400
O 	O 	0.65382 0.04211 -0.00000 -0.41600
O 	O 	0.70196 0.04195 -0.00000 -0.41000
C 	C 	0.67750 0.05388 -0.00000 0.37100
C 	C 	0.67820 0.08593 -0.00000 -0.10700
C 	C 	0.65260 0.10171 -0.00000 -0.00000
H 	H 	0.63520 0.09200 -0.00000 0.05000
C 	C 	0.65280 0.13079 -0.00000 -0.02800
C 	C 	0.67980 0.14526 -0.00000 0.10400
C 	C 	0.70550 0.12960 -0.00000 -0.15400
H 	H 	0.72310 0.13900 -0.00000 0.08600
C 	C 	0.70440 0.10105 -0.00000 0.06100
H 	H 	0.72150 0.09070 -0.00000 0.02400
O 	O 	-0.00000 0.84618 0.54211 -0.41600
O 	O 	0.00000 0.79804 0.54195 -0.41000
C 	C 	0.00000 0.82250 0.55388 0.37100
C 	C 	0.00000 0.82180 0.58593 -0.10700
C 	C 	0.00000 0.84740 0.60171 -0.00100
H 	H 	0.00000 0.86480 0.59200 0.05000
C 	C 	-0.00000 0.84720 0.63079 -0.02800
C 	C 	0.00000 0.82020 0.64526 0.10400
C 	C 	-0.00000 0.79450 0.62960 -0.15400
H 	H 	0.00000 0.77690 0.63900 0.08600
C 	C 	0.00000 0.79560 0.60105 0.06100
H 	H 	0.00000 0.77850 0.59070 0.02400
O 	O 	0.00000 0.34618 0.04211 -0.41600
O 	O 	0.00000 0.29804 0.04195 -0.41000
C 	C 	0.00000 0.32250 0.05388 0.37100
C 	C 	0.00000 0.32180 0.08593 -0.10700
C 	C 	0.00000 0.34740 0.10171 -0.00000
H 	H 	0.00000 0.36480 0.09200 0.05000
C 	C 	0.00000 0.34720 0.13079 -0.02800
C 	C 	0.00000 0.32020 0.14526 0.10400
C 	C 	0.00000 0.29450 0.12960 -0.15400
H 	H 	0.00000 0.27690 0.13900 0.08600
C 	C 	0.00000 0.29560 0.10105 0.06100
H 	H 	0.00000 0.27850 0.09070 0.02300
O 	O 	0.50000 0.84618 0.04211 -0.41500
O 	O 	0.50000 0.79804 0.04195 -0.41000
C 	C 	0.50000 0.82250 0.05388 0.37100
C 	C 	0.50000 0.82180 0.08593 -0.10700
C 	C 	0.50000 0.84740 0.10171 -0.00000
H 	H 	0.50000 0.86480 0.09200 0.05000
C 	C 	0.50000 0.84720 0.13079 -0.02800
C 	C 	0.50000 0.82020 0.14526 0.10500
C 	C 	0.50000 0.79450 0.12960 -0.15400
H 	H 	0.50000 0.77690 0.13900 0.08600
C 	C 	0.50000 0.79560 0.10105 0.06100
H 	H 	0.50000 0.77850 0.09070 0.02400
O 	O 	0.50000 0.34618 0.54211 -0.41500
O 	O 	0.50000 0.29804 0.54195 -0.41000
C 	C 	0.50000 0.32250 0.55388 0.37100
C 	C 	0.50000 0.32180 0.58593 -0.10700
C 	C 	0.50000 0.34740 0.60171 -0.00000
H 	H 	0.50000 0.36480 0.59200 0.05000
C 	C 	0.50000 0.34720 0.63079 -0.02800
C 	C 	0.50000 0.32020 0.64526 0.10500
C 	C 	0.50000 0.29450 0.62960 -0.15400
H 	H 	0.50000 0.27690 0.63900 0.08600
C 	C 	0.50000 0.29560 0.60105 0.06100
H 	H 	0.50000 0.27850 0.59070 0.02400
O 	O 	-0.00000 0.84618 0.45789 -0.41600
O 	O 	0.00000 0.79804 0.45805 -0.41000
C 	C 	0.00000 0.82250 0.44612 0.37100
C 	C 	0.00000 0.82180 0.41407 -0.10700
C 	C 	0.00000 0.84740 0.39829 -0.00100
H 	H 	0.00000 0.86480 0.40800 0.05000
C 	C 	-0.00000 0.84720 0.36921 -0.02800
C 	C 	0.00000 0.82020 0.35474 0.10400
C 	C 	0.00000 0.79450 0.37040 -0.15400
H 	H 	0.00000 0.77690 0.36100 0.08600
C 	C 	0.00000 0.79560 0.39895 0.06100
H 	H 	0.00000 0.77850 0.40930 0.02400
O 	O 	-0.00000 0.34618 0.95789 -0.41500
O 	O 	0.00000 0.29804 0.95805 -0.40900
C 	C 	0.00000 0.32250 0.94612 0.37100
C 	C 	0.00000 0.32180 0.91407 -0.10600
C 	C 	0.00000 0.34740 0.89829 -0.00100
H 	H 	0.00000 0.36480 0.90800 0.05000
C 	C 	0.00000 0.34720 0.86921 -0.02800
C 	C 	0.00000 0.32020 0.85474 0.10400
C 	C 	0.00000 0.29450 0.87040 -0.15400
H 	H 	0.00000 0.27690 0.86100 0.08600
C 	C 	0.00000 0.29560 0.89895 0.06100
H 	H 	0.00000 0.27850 0.90930 0.02400
O 	O 	0.50000 0.84618 0.95789 -0.41400
O 	O 	0.50000 0.79804 0.95805 -0.40900
C 	C 	0.50000 0.82250 0.94612 0.37100
C 	C 	0.50000 0.82180 0.91407 -0.10600
C 	C 	0.50000 0.84740 0.89829 -0.00100
H 	H 	0.50000 0.86480 0.90800 0.05000
C 	C 	0.50000 0.84720 0.86921 -0.02700
C 	C 	0.50000 0.82020 0.85474 0.10500
C 	C 	0.50000 0.79450 0.87040 -0.15400
H 	H 	0.50000 0.77690 0.86100 0.08600
C 	C 	0.50000 0.79560 0.89895 0.06100
H 	H 	0.50000 0.77850 0.90930 0.02400
O 	O 	0.50000 0.34618 0.45789 -0.41500
O 	O 	0.50000 0.29804 0.45805 -0.41000
C 	C 	0.50000 0.32250 0.44612 0.37100
C 	C 	0.50000 0.32180 0.41407 -0.10700
C 	C 	0.50000 0.34740 0.39829 -0.00000
H 	H 	0.50000 0.36480 0.40800 0.05000
C 	C 	0.50000 0.34720 0.36921 -0.02800
C 	C 	0.50000 0.32020 0.35474 0.10500
C 	C 	0.50000 0.29450 0.37040 -0.15400
H 	H 	0.50000 0.27690 0.36100 0.08600
C 	C 	0.50000 0.29560 0.39895 0.06100
H 	H 	0.50000 0.27850 0.40930 0.02400
O 	O 	0.00000 0.15382 0.45789 -0.41600
O 	O 	0.00000 0.20196 0.45805 -0.41000
C 	C 	0.00000 0.17750 0.44612 0.37100
C 	C 	0.00000 0.17820 0.41407 -0.10700
C 	C 	0.00000 0.15260 0.39829 -0.00100
H 	H 	0.00000 0.13520 0.40800 0.05000
C 	C 	0.00000 0.15280 0.36921 -0.02800
C 	C 	0.00000 0.17980 0.35474 0.10400
C 	C 	0.00000 0.20550 0.37040 -0.15400
H 	H 	0.00000 0.22310 0.36100 0.08600
C 	C 	-0.00000 0.20440 0.39895 0.06100
H 	H 	0.00000 0.22150 0.40930 0.02400
O 	O 	-0.00000 0.65382 0.95789 -0.41500
O 	O 	-0.00000 0.70196 0.95805 -0.40900
C 	C 	-0.00000 0.67750 0.94612 0.37100
C 	C 	-0.00000 0.67820 0.91407 -0.10600
C 	C 	0.00000 0.65260 0.89829 -0.00100
H 	H 	0.00000 0.63520 0.90800 0.05000
C 	C 	0.00000 0.65280 0.86921 -0.02800
C 	C 	0.00000 0.67980 0.85474 0.10400
C 	C 	0.00000 0.70550 0.87040 -0.15400
H 	H 	0.00000 0.72310 0.86100 0.08600
C 	C 	0.00000 0.70440 0.89895 0.06100
H 	H 	0.00000 0.72150 0.90930 0.02400
O 	O 	0.50000 0.15382 0.95789 -0.41500
O 	O 	0.50000 0.20196 0.95805 -0.40900
C 	C 	0.50000 0.17750 0.94612 0.37100
C 	C 	0.50000 0.17820 0.91407 -0.10600
C 	C 	0.50000 0.15260 0.89829 -0.00100
H 	H 	0.50000 0.13520 0.90800 0.05000
C 	C 	0.50000 0.15280 0.86921 -0.02800
C 	C 	0.50000 0.17980 0.85474 0.10500
C 	C 	0.50000 0.20550 0.87040 -0.15400
H 	H 	0.50000 0.22310 0.86100 0.08600
C 	C 	0.50000 0.20440 0.89895 0.06100
H 	H 	0.50000 0.22150 0.90930 0.02400
O 	O 	0.50000 0.65382 0.45789 -0.41500
O 	O 	0.50000 0.70196 0.45805 -0.41000
C 	C 	0.50000 0.67750 0.44612 0.37100
C 	C 	0.50000 0.67820 0.41407 -0.10700
C 	C 	0.50000 0.65260 0.39829 -0.00000
H 	H 	0.50000 0.63520 0.40800 0.05000
C 	C 	0.50000 0.65280 0.36921 -0.02800
C 	C 	0.50000 0.67980 0.35474 0.10500
C 	C 	0.50000 0.70550 0.37040 -0.15400
H 	H 	0.50000 0.72310 0.36100 0.08600
C 	C 	0.50000 0.70440 0.39895 0.06100
H 	H 	0.50000 0.72150 0.40930 0.02400
O 	O 	0.00000 0.15382 0.54211 -0.41600
O 	O 	-0.00000 0.20196 0.54195 -0.41000
C 	C 	0.00000 0.17750 0.55388 0.37100
C 	C 	0.00000 0.17820 0.58593 -0.10700
C 	C 	0.00000 0.15260 0.60171 -0.00100
H 	H 	0.00000 0.13520 0.59200 0.05000
C 	C 	0.00000 0.15280 0.63079 -0.02800
C 	C 	0.00000 0.17980 0.64526 0.10400
C 	C 	0.00000 0.20550 0.62960 -0.15400
H 	H 	0.00000 0.22310 0.63900 0.08600
C 	C 	-0.00000 0.20440 0.60105 0.06100
H 	H 	0.00000 0.22150 0.59070 0.02400
O 	O 	0.00000 0.65382 0.04211 -0.41600
O 	O 	0.00000 0.70196 0.04195 -0.41000
C 	C 	0.00000 0.67750 0.05388 0.37100
C 	C 	0.00000 0.67820 0.08593 -0.10700
C 	C 	0.00000 0.65260 0.10171 -0.00000
H 	H 	-0.00000 0.63520 0.09200 0.05000
C 	C 	0.00000 0.65280 0.13079 -0.02800
C 	C 	0.00000 0.67980 0.14526 0.10400
C 	C 	0.00000 0.70550 0.12960 -0.15400
H 	H 	0.00000 0.72310 0.13900 0.08600
C 	C 	0.00000 0.70440 0.10105 0.06100
H 	H 	0.00000 0.72150 0.09070 0.02400
O 	O 	0.50000 0.15382 0.04211 -0.41600
O 	O 	0.50000 0.20196 0.04195 -0.41000
C 	C 	0.50000 0.17750 0.05388 0.37100
C 	C 	0.50000 0.17820 0.08593 -0.10700
C 	C 	0.50000 0.15260 0.10171 -0.00000
H 	H 	0.50000 0.13520 0.09200 0.05000
C 	C 	0.50000 0.15280 0.13079 -0.02800
C 	C 	0.50000 0.17980 0.14526 0.10500
C 	C 	0.50000 0.20550 0.12960 -0.15400
H 	H 	0.50000 0.22310 0.13900 0.08600
C 	C 	0.50000 0.20440 0.10105 0.06100
H 	H 	0.50000 0.22150 0.09070 0.02400
O 	O 	0.50000 0.65382 0.54211 -0.41500
O 	O 	0.50000 0.70196 0.54195 -0.41000
C 	C 	0.50000 0.67750 0.55388 0.37100
C 	C 	0.50000 0.67820 0.58593 -0.10700
C 	C 	0.50000 0.65260 0.60171 -0.00000
H 	H 	0.50000 0.63520 0.59200 0.05000
C 	C 	0.50000 0.65280 0.63079 -0.02800
C 	C 	0.50000 0.67980 0.64526 0.10500
C 	C 	0.50000 0.70550 0.62960 -0.15400
H 	H 	0.50000 0.72310 0.63900 0.08600
C 	C 	0.50000 0.70440 0.60105 0.06100
H 	H 	0.50000 0.72150 0.59070 0.02400
O 	O 	0.00000 0.54211 0.15382 -0.41600
O 	O 	-0.00000 0.54195 0.20196 -0.41000
C 	C 	0.00000 0.55388 0.17750 0.37100
C 	C 	0.00000 0.58593 0.17820 -0.10700
C 	C 	0.00000 0.60171 0.15260 -0.00100
H 	H 	0.00000 0.59200 0.13520 0.05000
C 	C 	0.00000 0.63079 0.15280 -0.02800
C 	C 	0.00000 0.64526 0.17980 0.10400
C 	C 	0.00000 0.62960 0.20550 -0.15400
H 	H 	0.00000 0.63900 0.22310 0.08600
C 	C 	-0.00000 0.60105 0.20440 0.06100
H 	H 	0.00000 0.59070 0.22150 0.02400
O 	O 	0.00000 0.04211 0.65382 -0.41600
O 	O 	0.00000 0.04195 0.70196 -0.41000
C 	C 	0.00000 0.05388 0.67750 0.37100
C 	C 	0.00000 0.08593 0.67820 -0.10700
C 	C 	0.00000 0.10171 0.65260 -0.00000
H 	H 	-0.00000 0.09200 0.63520 0.05000
C 	C 	0.00000 0.13079 0.65280 -0.02800
C 	C 	0.00000 0.14526 0.67980 0.10400
C 	C 	0.00000 0.12960 0.70550 -0.15400
H 	H 	0.00000 0.13900 0.72310 0.08600
C 	C 	0.00000 0.10105 0.70440 0.06100
H 	H 	0.00000 0.09070 0.72150 0.02400
O 	O 	0.50000 0.54211 0.65382 -0.41500
O 	O 	0.50000 0.54195 0.70196 -0.41000
C 	C 	0.50000 0.55388 0.67750 0.37100
C 	C 	0.50000 0.58593 0.67820 -0.10700
C 	C 	0.50000 0.60171 0.65260 -0.00100
H 	H 	0.50000 0.59200 0.63520 0.05000
C 	C 	0.50000 0.63079 0.65280 -0.02800
C 	C 	0.50000 0.64526 0.67980 0.10500
C 	C 	0.50000 0.62960 0.70550 -0.15400
H 	H 	0.50000 0.63900 0.72310 0.08600
C 	C 	0.50000 0.60105 0.70440 0.06100
H 	H 	0.50000 0.59070 0.72150 0.02400
O 	O 	0.50000 0.04211 0.15382 -0.41600
O 	O 	0.50000 0.04195 0.20196 -0.41000
C 	C 	0.50000 0.05388 0.17750 0.37100
C 	C 	0.50000 0.08593 0.17820 -0.10700
C 	C 	0.50000 0.10171 0.15260 -0.00000
H 	H 	0.50000 0.09200 0.13520 0.05000
C 	C 	0.50000 0.13079 0.15280 -0.02800
C 	C 	0.50000 0.14526 0.17980 0.10500
C 	C 	0.50000 0.12960 0.20550 -0.15400
H 	H 	0.50000 0.13900 0.22310 0.08600
C 	C 	0.50000 0.10105 0.20440 0.06100
H 	H 	0.50000 0.09070 0.22150 0.02400
O 	O 	0.00000 0.45789 0.15382 -0.41600
O 	O 	0.00000 0.45805 0.20196 -0.41000
C 	C 	0.00000 0.44612 0.17750 0.37100
C 	C 	0.00000 0.41407 0.17820 -0.10700
C 	C 	0.00000 0.39829 0.15260 -0.00100
H 	H 	0.00000 0.40800 0.13520 0.05000
C 	C 	0.00000 0.36921 0.15280 -0.02800
C 	C 	0.00000 0.35474 0.17980 0.10400
C 	C 	0.00000 0.37040 0.20550 -0.15400
H 	H 	0.00000 0.36100 0.22310 0.08600
C 	C 	0.00000 0.39895 0.20440 0.06100
H 	H 	0.00000 0.40930 0.22150 0.02400
O 	O 	0.00000 0.95789 0.65382 -0.41500
O 	O 	-0.00000 0.95805 0.70196 -0.40900
C 	C 	0.00000 0.94612 0.67750 0.37100
C 	C 	0.00000 0.91407 0.67820 -0.10600
C 	C 	0.00000 0.89829 0.65260 -0.00100
H 	H 	0.00000 0.90800 0.63520 0.05000
C 	C 	0.00000 0.86921 0.65280 -0.02800
C 	C 	0.00000 0.85474 0.67980 0.10400
C 	C 	0.00000 0.87040 0.70550 -0.15400
H 	H 	0.00000 0.86100 0.72310 0.08600
C 	C 	0.00000 0.89895 0.70440 0.06100
H 	H 	0.00000 0.90930 0.72150 0.02400
O 	O 	0.50000 0.45789 0.65382 -0.41500
O 	O 	0.50000 0.45805 0.70196 -0.41000
C 	C 	0.50000 0.44612 0.67750 0.37100
C 	C 	0.50000 0.41407 0.67820 -0.10700
C 	C 	0.50000 0.39829 0.65260 -0.00000
H 	H 	0.50000 0.40800 0.63520 0.05000
C 	C 	0.50000 0.36921 0.65280 -0.02800
C 	C 	0.50000 0.35474 0.67980 0.10500
C 	C 	0.50000 0.37040 0.70550 -0.15400
H 	H 	0.50000 0.36100 0.72310 0.08600
C 	C 	0.50000 0.39895 0.70440 0.06100
H 	H 	0.50000 0.40930 0.72150 0.02400
O 	O 	0.50000 0.95789 0.15382 -0.41500
O 	O 	0.50000 0.95805 0.20196 -0.40900
C 	C 	0.50000 0.94612 0.17750 0.37100
C 	C 	0.50000 0.91407 0.17820 -0.10600
C 	C 	0.50000 0.89829 0.15260 -0.00100
H 	H 	0.50000 0.90800 0.13520 0.05000
C 	C 	0.50000 0.86921 0.15280 -0.02800
C 	C 	0.50000 0.85474 0.17980 0.10500
C 	C 	0.50000 0.87040 0.20550 -0.15400
H 	H 	0.50000 0.86100 0.22310 0.08600
C 	C 	0.50000 0.89895 0.20440 0.06100
H 	H 	0.50000 0.90930 0.22150 0.02400
O 	O 	-0.00000 0.45789 0.84618 -0.41600
O 	O 	0.00000 0.45805 0.79804 -0.41000
C 	C 	0.00000 0.44612 0.82250 0.37100
C 	C 	0.00000 0.41407 0.82180 -0.10700
C 	C 	0.00000 0.39829 0.84740 -0.00100
H 	H 	0.00000 0.40800 0.86480 0.05000
C 	C 	-0.00000 0.36921 0.84720 -0.02800
C 	C 	0.00000 0.35474 0.82020 0.10400
C 	C 	0.00000 0.37040 0.79450 -0.15400
H 	H 	0.00000 0.36100 0.77690 0.08600
C 	C 	0.00000 0.39895 0.79560 0.06100
H 	H 	0.00000 0.40930 0.77850 0.02400
O 	O 	0.00000 0.95789 0.34618 -0.41500
O 	O 	0.00000 0.95805 0.29804 -0.40900
C 	C 	0.00000 0.94612 0.32250 0.37100
C 	C 	0.00000 0.91407 0.32180 -0.10600
C 	C 	0.00000 0.89829 0.34740 -0.00100
H 	H 	0.00000 0.90800 0.36480 0.05000
C 	C 	0.00000 0.86921 0.34720 -0.02800
C 	C 	0.00000 0.85474 0.32020 0.10400
C 	C 	0.00000 0.87040 0.29450 -0.15400
H 	H 	0.00000 0.86100 0.27690 0.08600
C 	C 	0.00000 0.89895 0.29560 0.06100
H 	H 	0.00000 0.90930 0.27850 0.02400
O 	O 	0.50000 0.45789 0.34618 -0.41500
O 	O 	0.50000 0.45805 0.29804 -0.41000
C 	C 	0.50000 0.44612 0.32250 0.37100
C 	C 	0.50000 0.41407 0.32180 -0.10700
C 	C 	0.50000 0.39829 0.34740 -0.00000
H 	H 	0.50000 0.40800 0.36480 0.05000
C 	C 	0.50000 0.36921 0.34720 -0.02800
C 	C 	0.50000 0.35474 0.32020 0.10500
C 	C 	0.50000 0.37040 0.29450 -0.15400
H 	H 	0.50000 0.36100 0.27690 0.08600
C 	C 	0.50000 0.39895 0.29560 0.06100
H 	H 	0.50000 0.40930 0.27850 0.02400
O 	O 	0.50000 0.95789 0.84618 -0.41400
O 	O 	0.50000 0.95805 0.79804 -0.40900
C 	C 	0.50000 0.94612 0.82250 0.37100
C 	C 	0.50000 0.91407 0.82180 -0.10600
C 	C 	0.50000 0.89829 0.84740 -0.00100
H 	H 	0.50000 0.90800 0.86480 0.05000
C 	C 	0.50000 0.86921 0.84720 -0.02700
C 	C 	0.50000 0.85474 0.82020 0.10500
C 	C 	0.50000 0.87040 0.79450 -0.15400
H 	H 	0.50000 0.86100 0.77690 0.08600
C 	C 	0.50000 0.89895 0.79560 0.06100
H 	H 	0.50000 0.90930 0.77850 0.02400
O 	O 	-0.00000 0.54211 0.84618 -0.41600
O 	O 	0.00000 0.54195 0.79804 -0.41000
C 	C 	-0.00000 0.55388 0.82250 0.37100
C 	C 	0.00000 0.58593 0.82180 -0.10700
C 	C 	-0.00000 0.60171 0.84740 -0.00100
H 	H 	-0.00000 0.59200 0.86480 0.05000
C 	C 	-0.00000 0.63079 0.84720 -0.02800
C 	C 	0.00000 0.64526 0.82020 0.10400
C 	C 	-0.00000 0.62960 0.79450 -0.15400
H 	H 	0.00000 0.63900 0.77690 0.08600
C 	C 	0.00000 0.60105 0.79560 0.06100
H 	H 	0.00000 0.59070 0.77850 0.02400
O 	O 	0.00000 0.04211 0.34618 -0.41600
O 	O 	0.00000 0.04195 0.29804 -0.41000
C 	C 	0.00000 0.05388 0.32250 0.37100
C 	C 	0.00000 0.08593 0.32180 -0.10700
C 	C 	0.00000 0.10171 0.34740 -0.00000
H 	H 	0.00000 0.09200 0.36480 0.05000
C 	C 	0.00000 0.13079 0.34720 -0.02800
C 	C 	0.00000 0.14526 0.32020 0.10400
C 	C 	0.00000 0.12960 0.29450 -0.15400
H 	H 	-0.00000 0.13900 0.27690 0.08600
C 	C 	-0.00000 0.10105 0.29560 0.06100
H 	H 	0.00000 0.09070 0.27850 0.02300
O 	O 	0.50000 0.54211 0.34618 -0.41500
O 	O 	0.50000 0.54195 0.29804 -0.41000
C 	C 	0.50000 0.55388 0.32250 0.37100
C 	C 	0.50000 0.58593 0.32180 -0.10700
C 	C 	0.50000 0.60171 0.34740 -0.00100
H 	H 	0.50000 0.59200 0.36480 0.05000
C 	C 	0.50000 0.63079 0.34720 -0.02800
C 	C 	0.50000 0.64526 0.32020 0.10500
C 	C 	0.50000 0.62960 0.29450 -0.15400
H 	H 	0.50000 0.63900 0.27690 0.08600
C 	C 	0.50000 0.60105 0.29560 0.06100
H 	H 	0.50000 0.59070 0.27850 0.02400
O 	O 	0.50000 0.04211 0.84618 -0.41500
O 	O 	0.50000 0.04195 0.79804 -0.41000
C 	C 	0.50000 0.05388 0.82250 0.37100
C 	C 	0.50000 0.08593 0.82180 -0.10700
C 	C 	0.50000 0.10171 0.84740 -0.00000
H 	H 	0.50000 0.09200 0.86480 0.05000
C 	C 	0.50000 0.13079 0.84720 -0.02800
C 	C 	0.50000 0.14526 0.82020 0.10500
C 	C 	0.50000 0.12960 0.79450 -0.15400
H 	H 	0.50000 0.13900 0.77690 0.08600
C 	C 	0.50000 0.10105 0.79560 0.06100
H 	H 	0.50000 0.09070 0.77850 0.02400
O 	O 	0.54211 0.84618 -0.00000 -0.41600
O 	O 	0.54195 0.79804 -0.00000 -0.41000
C 	C 	0.55388 0.82250 -0.00000 0.37100
C 	C 	0.58593 0.82180 -0.00000 -0.10700
C 	C 	0.60171 0.84740 -0.00000 -0.00100
H 	H 	0.59200 0.86480 -0.00000 0.05000
C 	C 	0.63079 0.84720 -0.00000 -0.02800
C 	C 	0.64526 0.82020 -0.00000 0.10400
C 	C 	0.62960 0.79450 -0.00000 -0.15400
H 	H 	0.63900 0.77690 -0.00000 0.08600
C 	C 	0.60105 0.79560 -0.00000 0.06100
H 	H 	0.59070 0.77850 -0.00000 0.02400
O 	O 	0.54211 0.34618 0.50000 -0.41500
O 	O 	0.54195 0.29804 0.50000 -0.41000
C 	C 	0.55388 0.32250 0.50000 0.37100
C 	C 	0.58593 0.32180 0.50000 -0.10700
C 	C 	0.60171 0.34740 0.50000 -0.00100
H 	H 	0.59200 0.36480 0.50000 0.05000
C 	C 	0.63079 0.34720 0.50000 -0.02800
C 	C 	0.64526 0.32020 0.50000 0.10500
C 	C 	0.62960 0.29450 0.50000 -0.15400
H 	H 	0.63900 0.27690 0.50000 0.08600
C 	C 	0.60105 0.29560 0.50000 0.06100
H 	H 	0.59070 0.27850 0.50000 0.02400
O 	O 	0.04211 0.84618 0.50000 -0.41500
O 	O 	0.04195 0.79804 0.50000 -0.41000
C 	C 	0.05388 0.82250 0.50000 0.37100
C 	C 	0.08593 0.82180 0.50000 -0.10700
C 	C 	0.10171 0.84740 0.50000 -0.00000
H 	H 	0.09200 0.86480 0.50000 0.05000
C 	C 	0.13079 0.84720 0.50000 -0.02800
C 	C 	0.14526 0.82020 0.50000 0.10500
C 	C 	0.12960 0.79450 0.50000 -0.15400
H 	H 	0.13900 0.77690 0.50000 0.08600
C 	C 	0.10105 0.79560 0.50000 0.06100
H 	H 	0.09070 0.77850 0.50000 0.02400
O 	O 	0.04211 0.34618 -0.00000 -0.41600
O 	O 	0.04195 0.29804 -0.00000 -0.41000
C 	C 	0.05388 0.32250 -0.00000 0.37100
C 	C 	0.08593 0.32180 -0.00000 -0.10700
C 	C 	0.10171 0.34740 -0.00000 -0.00000
H 	H 	0.09200 0.36480 -0.00000 0.05000
C 	C 	0.13079 0.34720 -0.00000 -0.02800
C 	C 	0.14526 0.32020 -0.00000 0.10400
C 	C 	0.12960 0.29450 -0.00000 -0.15400
H 	H 	0.13900 0.27690 -0.00000 0.08600
C 	C 	0.10105 0.29560 -0.00000 0.06100
H 	H 	0.09070 0.27850 -0.00000 0.02300
O 	O 	0.45789 0.84618 -0.00000 -0.41600
O 	O 	0.45805 0.79804 -0.00000 -0.41000
C 	C 	0.44612 0.82250 -0.00000 0.37100
C 	C 	0.41407 0.82180 -0.00000 -0.10700
C 	C 	0.39829 0.84740 -0.00000 -0.00100
H 	H 	0.40800 0.86480 -0.00000 0.05000
C 	C 	0.36921 0.84720 -0.00000 -0.02800
C 	C 	0.35474 0.82020 -0.00000 0.10400
C 	C 	0.37040 0.79450 -0.00000 -0.15400
H 	H 	0.36100 0.77690 -0.00000 0.08600
C 	C 	0.39895 0.79560 -0.00000 0.06100
H 	H 	0.40930 0.77850 -0.00000 0.02400
O 	O 	0.45789 0.34618 0.50000 -0.41500
O 	O 	0.45805 0.29804 0.50000 -0.41000
C 	C 	0.44612 0.32250 0.50000 0.37100
C 	C 	0.41407 0.32180 0.50000 -0.10700
C 	C 	0.39829 0.34740 0.50000 -0.00000
H 	H 	0.40800 0.36480 0.50000 0.05000
C 	C 	0.36921 0.34720 0.50000 -0.02800
C 	C 	0.35474 0.32020 0.50000 0.10500
C 	C 	0.37040 0.29450 0.50000 -0.15400
H 	H 	0.36100 0.27690 0.50000 0.08600
C 	C 	0.39895 0.29560 0.50000 0.06100
H 	H 	0.40930 0.27850 0.50000 0.02400
O 	O 	0.95789 0.84618 0.50000 -0.41400
O 	O 	0.95805 0.79804 0.50000 -0.40900
C 	C 	0.94612 0.82250 0.50000 0.37100
C 	C 	0.91407 0.82180 0.50000 -0.10600
C 	C 	0.89829 0.84740 0.50000 -0.00100
H 	H 	0.90800 0.86480 0.50000 0.05000
C 	C 	0.86921 0.84720 0.50000 -0.02700
C 	C 	0.85474 0.82020 0.50000 0.10500
C 	C 	0.87040 0.79450 0.50000 -0.15400
H 	H 	0.86100 0.77690 0.50000 0.08600
C 	C 	0.89895 0.79560 0.50000 0.06100
H 	H 	0.90930 0.77850 0.50000 0.02400
O 	O 	0.95789 0.34618 -0.00000 -0.41500
O 	O 	0.95805 0.29804 -0.00000 -0.40900
C 	C 	0.94612 0.32250 -0.00000 0.37100
C 	C 	0.91407 0.32180 -0.00000 -0.10600
C 	C 	0.89829 0.34740 -0.00000 -0.00100
H 	H 	0.90800 0.36480 -0.00000 0.05000
C 	C 	0.86921 0.34720 -0.00000 -0.02800
C 	C 	0.85474 0.32020 -0.00000 0.10400
C 	C 	0.87040 0.29450 -0.00000 -0.15400
H 	H 	0.86100 0.27690 -0.00000 0.08600
C 	C 	0.89895 0.29560 -0.00000 0.06100
H 	H 	0.90930 0.27850 -0.00000 0.02400
O 	O 	0.45789 0.15382 -0.00000 -0.41600
O 	O 	0.45805 0.20196 -0.00000 -0.41000
C 	C 	0.44612 0.17750 -0.00000 0.37100
C 	C 	0.41407 0.17820 -0.00000 -0.10700
C 	C 	0.39829 0.15260 -0.00000 -0.00100
H 	H 	0.40800 0.13520 -0.00000 0.05000
C 	C 	0.36921 0.15280 -0.00000 -0.02800
C 	C 	0.35474 0.17980 -0.00000 0.10400
C 	C 	0.37040 0.20550 -0.00000 -0.15400
H 	H 	0.36100 0.22310 -0.00000 0.08600
C 	C 	0.39895 0.20440 -0.00000 0.06100
H 	H 	0.40930 0.22150 -0.00000 0.02400
O 	O 	0.45789 0.65382 0.50000 -0.41500
O 	O 	0.45805 0.70196 0.50000 -0.41000
C 	C 	0.44612 0.67750 0.50000 0.37100
C 	C 	0.41407 0.67820 0.50000 -0.10700
C 	C 	0.39829 0.65260 0.50000 -0.00000
H 	H 	0.40800 0.63520 0.50000 0.05000
C 	C 	0.36921 0.65280 0.50000 -0.02800
C 	C 	0.35474 0.67980 0.50000 0.10500
C 	C 	0.37040 0.70550 0.50000 -0.15400
H 	H 	0.36100 0.72310 0.50000 0.08600
C 	C 	0.39895 0.70440 0.50000 0.06100
H 	H 	0.40930 0.72150 0.50000 0.02400
O 	O 	0.95789 0.15382 0.50000 -0.41500
O 	O 	0.95805 0.20196 0.50000 -0.40900
C 	C 	0.94612 0.17750 0.50000 0.37100
C 	C 	0.91407 0.17820 0.50000 -0.10600
C 	C 	0.89829 0.15260 0.50000 -0.00100
H 	H 	0.90800 0.13520 0.50000 0.05000
C 	C 	0.86921 0.15280 0.50000 -0.02800
C 	C 	0.85474 0.17980 0.50000 0.10500
C 	C 	0.87040 0.20550 0.50000 -0.15400
H 	H 	0.86100 0.22310 0.50000 0.08600
C 	C 	0.89895 0.20440 0.50000 0.06100
H 	H 	0.90930 0.22150 0.50000 0.02400
O 	O 	0.95789 0.65382 -0.00000 -0.41500
O 	O 	0.95805 0.70196 -0.00000 -0.40900
C 	C 	0.94612 0.67750 -0.00000 0.37100
C 	C 	0.91407 0.67820 -0.00000 -0.10600
C 	C 	0.89829 0.65260 -0.00000 -0.00100
H 	H 	0.90800 0.63520 -0.00000 0.05000
C 	C 	0.86921 0.65280 -0.00000 -0.02800
C 	C 	0.85474 0.67980 -0.00000 0.10400
C 	C 	0.87040 0.70550 -0.00000 -0.15400
H 	H 	0.86100 0.72310 -0.00000 0.08600
C 	C 	0.89895 0.70440 -0.00000 0.06100
H 	H 	0.90930 0.72150 -0.00000 0.02400
O 	O 	0.54211 0.15382 -0.00000 -0.41600
O 	O 	0.54195 0.20196 -0.00000 -0.41000
C 	C 	0.55388 0.17750 -0.00000 0.37100
C 	C 	0.58593 0.17820 -0.00000 -0.10700
C 	C 	0.60171 0.15260 -0.00000 -0.00100
H 	H 	0.59200 0.13520 -0.00000 0.05000
C 	C 	0.63079 0.15280 -0.00000 -0.02800
C 	C 	0.64526 0.17980 -0.00000 0.10400
C 	C 	0.62960 0.20550 -0.00000 -0.15400
H 	H 	0.63900 0.22310 -0.00000 0.08600
C 	C 	0.60105 0.20440 -0.00000 0.06100
H 	H 	0.59070 0.22150 -0.00000 0.02400
O 	O 	0.54211 0.65382 0.50000 -0.41500
O 	O 	0.54195 0.70196 0.50000 -0.41000
C 	C 	0.55388 0.67750 0.50000 0.37100
C 	C 	0.58593 0.67820 0.50000 -0.10700
C 	C 	0.60171 0.65260 0.50000 -0.00100
H 	H 	0.59200 0.63520 0.50000 0.05000
C 	C 	0.63079 0.65280 0.50000 -0.02800
C 	C 	0.64526 0.67980 0.50000 0.10500
C 	C 	0.62960 0.70550 0.50000 -0.15400
H 	H 	0.63900 0.72310 0.50000 0.08600
C 	C 	0.60105 0.70440 0.50000 0.06100
H 	H 	0.59070 0.72150 0.50000 0.02400
O 	O 	0.04211 0.15382 0.50000 -0.41600
O 	O 	0.04195 0.20196 0.50000 -0.41000
C 	C 	0.05388 0.17750 0.50000 0.37100
C 	C 	0.08593 0.17820 0.50000 -0.10700
C 	C 	0.10171 0.15260 0.50000 -0.00000
H 	H 	0.09200 0.13520 0.50000 0.05000
C 	C 	0.13079 0.15280 0.50000 -0.02800
C 	C 	0.14526 0.17980 0.50000 0.10500
C 	C 	0.12960 0.20550 0.50000 -0.15400
H 	H 	0.13900 0.22310 0.50000 0.08600
C 	C 	0.10105 0.20440 0.50000 0.06100
H 	H 	0.09070 0.22150 0.50000 0.02400
O 	O 	0.04211 0.65382 -0.00000 -0.41600
O 	O 	0.04195 0.70196 -0.00000 -0.41000
C 	C 	0.05388 0.67750 -0.00000 0.37100
C 	C 	0.08593 0.67820 -0.00000 -0.10700
C 	C 	0.10171 0.65260 -0.00000 -0.00000
H 	H 	0.09200 0.63520 -0.00000 0.05000
C 	C 	0.13079 0.65280 -0.00000 -0.02800
C 	C 	0.14526 0.67980 -0.00000 0.10400
C 	C 	0.12960 0.70550 -0.00000 -0.15400
H 	H 	0.13900 0.72310 -0.00000 0.08600
C 	C 	0.10105 0.70440 -0.00000 0.06100
H 	H 	0.09070 0.72150 -0.00000 0.02400
O 	O 	0.84618 0.00000 0.45789 -0.41600
O 	O 	0.79804 0.00000 0.45805 -0.41000
C 	C 	0.82250 0.00000 0.44612 0.37100
C 	C 	0.82180 0.00000 0.41407 -0.10700
C 	C 	0.84740 0.00000 0.39829 -0.00100
H 	H 	0.86480 0.00000 0.40800 0.05000
C 	C 	0.84720 0.00000 0.36921 -0.02800
C 	C 	0.82020 0.00000 0.35474 0.10400
C 	C 	0.79450 0.00000 0.37040 -0.15400
H 	H 	0.77690 0.00000 0.36100 0.08600
C 	C 	0.79560 0.00000 0.39895 0.06100
H 	H 	0.77850 0.00000 0.40930 0.02400
O 	O 	0.84618 0.50000 0.95789 -0.41400
O 	O 	0.79804 0.50000 0.95805 -0.40900
C 	C 	0.82250 0.50000 0.94612 0.37100
C 	C 	0.82180 0.50000 0.91407 -0.10600
C 	C 	0.84740 0.50000 0.89829 -0.00100
H 	H 	0.86480 0.50000 0.90800 0.05000
C 	C 	0.84720 0.50000 0.86921 -0.02700
C 	C 	0.82020 0.50000 0.85474 0.10500
C 	C 	0.79450 0.50000 0.87040 -0.15400
H 	H 	0.77690 0.50000 0.86100 0.08600
C 	C 	0.79560 0.50000 0.89895 0.06100
H 	H 	0.77850 0.50000 0.90930 0.02400
O 	O 	0.34618 0.00000 0.95789 -0.41500
O 	O 	0.29804 0.00000 0.95805 -0.40900
C 	C 	0.32250 0.00000 0.94612 0.37100
C 	C 	0.32180 0.00000 0.91407 -0.10600
C 	C 	0.34740 0.00000 0.89829 -0.00100
H 	H 	0.36480 0.00000 0.90800 0.05000
C 	C 	0.34720 0.00000 0.86921 -0.02800
C 	C 	0.32020 0.00000 0.85474 0.10400
C 	C 	0.29450 0.00000 0.87040 -0.15400
H 	H 	0.27690 0.00000 0.86100 0.08600
C 	C 	0.29560 0.00000 0.89895 0.06100
H 	H 	0.27850 0.00000 0.90930 0.02400
O 	O 	0.34618 0.50000 0.45789 -0.41500
O 	O 	0.29804 0.50000 0.45805 -0.41000
C 	C 	0.32250 0.50000 0.44612 0.37100
C 	C 	0.32180 0.50000 0.41407 -0.10700
C 	C 	0.34740 0.50000 0.39829 -0.00000
H 	H 	0.36480 0.50000 0.40800 0.05000
C 	C 	0.34720 0.50000 0.36921 -0.02800
C 	C 	0.32020 0.50000 0.35474 0.10500
C 	C 	0.29450 0.50000 0.37040 -0.15400
H 	H 	0.27690 0.50000 0.36100 0.08600
C 	C 	0.29560 0.50000 0.39895 0.06100
H 	H 	0.27850 0.50000 0.40930 0.02400
O 	O 	0.84618 0.00000 0.54211 -0.41600
O 	O 	0.79804 0.00000 0.54195 -0.41000
C 	C 	0.82250 0.00000 0.55388 0.37100
C 	C 	0.82180 0.00000 0.58593 -0.10700
C 	C 	0.84740 0.00000 0.60171 -0.00100
H 	H 	0.86480 0.00000 0.59200 0.05000
C 	C 	0.84720 0.00000 0.63079 -0.02800
C 	C 	0.82020 0.00000 0.64526 0.10400
C 	C 	0.79450 0.00000 0.62960 -0.15400
H 	H 	0.77690 0.00000 0.63900 0.08600
C 	C 	0.79560 -0.00000 0.60105 0.06100
H 	H 	0.77850 0.00000 0.59070 0.02400
O 	O 	0.84618 0.50000 0.04211 -0.41500
O 	O 	0.79804 0.50000 0.04195 -0.41000
C 	C 	0.82250 0.50000 0.05388 0.37100
C 	C 	0.82180 0.50000 0.08593 -0.10700
C 	C 	0.84740 0.50000 0.10171 -0.00000
H 	H 	0.86480 0.50000 0.09200 0.05000
C 	C 	0.84720 0.50000 0.13079 -0.02800
C 	C 	0.82020 0.50000 0.14526 0.10500
C 	C 	0.79450 0.50000 0.12960 -0.15400
H 	H 	0.77690 0.50000 0.13900 0.08600
C 	C 	0.79560 0.50000 0.10105 0.06100
H 	H 	0.77850 0.50000 0.09070 0.02400
O 	O 	0.34618 0.00000 0.04211 -0.41600
O 	O 	0.29804 0.00000 0.04195 -0.41000
C 	C 	0.32250 -0.00000 0.05388 0.37100
C 	C 	0.32180 0.00000 0.08593 -0.10700
C 	C 	0.34740 0.00000 0.10171 -0.00000
H 	H 	0.36480 0.00000 0.09200 0.05000
C 	C 	0.34720 0.00000 0.13079 -0.02800
C 	C 	0.32020 0.00000 0.14526 0.10400
C 	C 	0.29450 0.00000 0.12960 -0.15400
H 	H 	0.27690 0.00000 0.13900 0.08600
C 	C 	0.29560 0.00000 0.10105 0.06100
H 	H 	0.27850 0.00000 0.09070 0.02300
O 	O 	0.34618 0.50000 0.54211 -0.41500
O 	O 	0.29804 0.50000 0.54195 -0.41000
C 	C 	0.32250 0.50000 0.55388 0.37100
C 	C 	0.32180 0.50000 0.58593 -0.10700
C 	C 	0.34740 0.50000 0.60171 -0.00000
H 	H 	0.36480 0.50000 0.59200 0.05000
C 	C 	0.34720 0.50000 0.63079 -0.02800
C 	C 	0.32020 0.50000 0.64526 0.10500
C 	C 	0.29450 0.50000 0.62960 -0.15400
H 	H 	0.27690 0.50000 0.63900 0.08600
C 	C 	0.29560 0.50000 0.60105 0.06100
H 	H 	0.27850 0.50000 0.59070 0.02400
O 	O 	0.15382 0.00000 0.54211 -0.41600
O 	O 	0.20196 0.00000 0.54195 -0.41000
C 	C 	0.17750 0.00000 0.55388 0.37100
C 	C 	0.17820 0.00000 0.58593 -0.10700
C 	C 	0.15260 0.00000 0.60171 -0.00100
H 	H 	0.13520 0.00000 0.59200 0.05000
C 	C 	0.15280 0.00000 0.63079 -0.02800
C 	C 	0.17980 0.00000 0.64526 0.10400
C 	C 	0.20550 0.00000 0.62960 -0.15400
H 	H 	0.22310 0.00000 0.63900 0.08600
C 	C 	0.20440 -0.00000 0.60105 0.06100
H 	H 	0.22150 0.00000 0.59070 0.02400
O 	O 	0.15382 0.50000 0.04211 -0.41600
O 	O 	0.20196 0.50000 0.04195 -0.41000
C 	C 	0.17750 0.50000 0.05388 0.37100
C 	C 	0.17820 0.50000 0.08593 -0.10700
C 	C 	0.15260 0.50000 0.10171 -0.00000
H 	H 	0.13520 0.50000 0.09200 0.05000
C 	C 	0.15280 0.50000 0.13079 -0.02800
C 	C 	0.17980 0.50000 0.14526 0.10500
C 	C 	0.20550 0.50000 0.12960 -0.15400
H 	H 	0.22310 0.50000 0.13900 0.08600
C 	C 	0.20440 0.50000 0.10105 0.06100
H 	H 	0.22150 0.50000 0.09070 0.02400
O 	O 	0.65382 0.00000 0.04211 -0.41600
O 	O 	0.70196 0.00000 0.04195 -0.41000
C 	C 	0.67750 -0.00000 0.05388 0.37100
C 	C 	0.67820 0.00000 0.08593 -0.10700
C 	C 	0.65260 0.00000 0.10171 -0.00000
H 	H 	0.63520 0.00000 0.09200 0.05000
C 	C 	0.65280 0.00000 0.13079 -0.02800
C 	C 	0.67980 0.00000 0.14526 0.10400
C 	C 	0.70550 0.00000 0.12960 -0.15400
H 	H 	0.72310 0.00000 0.13900 0.08600
C 	C 	0.70440 0.00000 0.10105 0.06100
H 	H 	0.72150 0.00000 0.09070 0.02400
O 	O 	0.65382 0.50000 0.54211 -0.41500
O 	O 	0.70196 0.50000 0.54195 -0.41000
C 	C 	0.67750 0.50000 0.55388 0.37100
C 	C 	0.67820 0.50000 0.58593 -0.10700
C 	C 	0.65260 0.50000 0.60171 -0.00000
H 	H 	0.63520 0.50000 0.59200 0.05000
C 	C 	0.65280 0.50000 0.63079 -0.02800
C 	C 	0.67980 0.50000 0.64526 0.10500
C 	C 	0.70550 0.50000 0.62960 -0.15400
H 	H 	0.72310 0.50000 0.63900 0.08600
C 	C 	0.70440 0.50000 0.60105 0.06100
H 	H 	0.72150 0.50000 0.59070 0.02400
O 	O 	0.15382 0.00000 0.45789 -0.41600
O 	O 	0.20196 0.00000 0.45805 -0.41000
C 	C 	0.17750 0.00000 0.44612 0.37100
C 	C 	0.17820 0.00000 0.41407 -0.10700
C 	C 	0.15260 0.00000 0.39829 -0.00100
H 	H 	0.13520 0.00000 0.40800 0.05000
C 	C 	0.15280 0.00000 0.36921 -0.02800
C 	C 	0.17980 0.00000 0.35474 0.10400
C 	C 	0.20550 0.00000 0.37040 -0.15400
H 	H 	0.22310 0.00000 0.36100 0.08600
C 	C 	0.20440 0.00000 0.39895 0.06100
H 	H 	0.22150 0.00000 0.40930 0.02400
O 	O 	0.15382 0.50000 0.95789 -0.41500
O 	O 	0.20196 0.50000 0.95805 -0.40900
C 	C 	0.17750 0.50000 0.94612 0.37100
C 	C 	0.17820 0.50000 0.91407 -0.10600
C 	C 	0.15260 0.50000 0.89829 -0.00100
H 	H 	0.13520 0.50000 0.90800 0.05000
C 	C 	0.15280 0.50000 0.86921 -0.02800
C 	C 	0.17980 0.50000 0.85474 0.10500
C 	C 	0.20550 0.50000 0.87040 -0.15400
H 	H 	0.22310 0.50000 0.86100 0.08600
C 	C 	0.20440 0.50000 0.89895 0.06100
H 	H 	0.22150 0.50000 0.90930 0.02400
O 	O 	0.65382 0.00000 0.95789 -0.41500
O 	O 	0.70196 0.00000 0.95805 -0.40900
C 	C 	0.67750 0.00000 0.94612 0.37100
C 	C 	0.67820 0.00000 0.91407 -0.10600
C 	C 	0.65260 0.00000 0.89829 -0.00100
H 	H 	0.63520 0.00000 0.90800 0.05000
C 	C 	0.65280 0.00000 0.86921 -0.02800
C 	C 	0.67980 0.00000 0.85474 0.10400
C 	C 	0.70550 0.00000 0.87040 -0.15400
H 	H 	0.72310 0.00000 0.86100 0.08600
C 	C 	0.70440 0.00000 0.89895 0.06100
H 	H 	0.72150 0.00000 0.90930 0.02400
O 	O 	0.65382 0.50000 0.45789 -0.41500
O 	O 	0.70196 0.50000 0.45805 -0.41000
C 	C 	0.67750 0.50000 0.44612 0.37100
C 	C 	0.67820 0.50000 0.41407 -0.10700
C 	C 	0.65260 0.50000 0.39829 -0.00000
H 	H 	0.63520 0.50000 0.40800 0.05000
C 	C 	0.65280 0.50000 0.36921 -0.02800
C 	C 	0.67980 0.50000 0.35474 0.10500
C 	C 	0.70550 0.50000 0.37040 -0.15400
H 	H 	0.72310 0.50000 0.36100 0.08600
C 	C 	0.70440 0.50000 0.39895 0.06100
H 	H 	0.72150 0.50000 0.40930 0.02400
N 	N 	0.67452 0.00000 0.82549 -0.16200
C 	C 	0.69679 0.00000 0.80321 0.12200
C 	C 	0.73840 0.00000 0.76160 -0.00000
N 	N 	0.67452 0.50000 0.32549 -0.16300
C 	C 	0.69679 0.50000 0.30321 0.12400
C 	C 	0.73840 0.50000 0.26160 0.00200
N 	N 	0.32549 0.00000 0.82549 -0.16200
C 	C 	0.30321 0.00000 0.80321 0.12200
C 	C 	0.26160 0.00000 0.76160 -0.00000
N 	N 	0.32549 0.50000 0.32549 -0.16300
C 	C 	0.30321 0.50000 0.30321 0.12400
C 	C 	0.26160 0.50000 0.26160 0.00200
N 	N 	0.32549 -0.00000 0.17451 -0.16200
C 	C 	0.30321 0.00000 0.19679 0.12200
C 	C 	0.26160 0.00000 0.23840 -0.00000
N 	N 	0.32549 0.50000 0.67451 -0.16300
C 	C 	0.30321 0.50000 0.69679 0.12400
C 	C 	0.26160 0.50000 0.73840 0.00200
N 	N 	0.67452 -0.00000 0.17451 -0.16200
C 	C 	0.69679 0.00000 0.19679 0.12200
C 	C 	0.73840 0.00000 0.23840 -0.00000
N 	N 	0.67452 0.50000 0.67451 -0.16300
C 	C 	0.69679 0.50000 0.69679 0.12400
C 	C 	0.73840 0.50000 0.73840 0.00200
N 	N 	0.82549 0.67452 -0.00000 -0.16200
C 	C 	0.80321 0.69679 -0.00000 0.12200
C 	C 	0.76160 0.73840 -0.00000 -0.00000
N 	N 	0.82549 0.17452 0.50000 -0.16300
C 	C 	0.80321 0.19679 0.50000 0.12400
C 	C 	0.76160 0.23840 0.50000 0.00100
N 	N 	0.82549 0.32549 -0.00000 -0.16200
C 	C 	0.80321 0.30321 -0.00000 0.12200
C 	C 	0.76160 0.26160 -0.00000 -0.00000
N 	N 	0.82549 0.82549 0.50000 -0.16300
C 	C 	0.80321 0.80321 0.50000 0.12400
C 	C 	0.76160 0.76160 0.50000 0.00100
N 	N 	0.17451 0.32549 -0.00000 -0.16200
C 	C 	0.19679 0.30321 -0.00000 0.12200
C 	C 	0.23840 0.26160 -0.00000 -0.00000
N 	N 	0.17451 0.82549 0.50000 -0.16300
C 	C 	0.19679 0.80321 0.50000 0.12400
C 	C 	0.23840 0.76160 0.50000 0.00100
N 	N 	0.17451 0.67452 -0.00000 -0.16200
C 	C 	0.19679 0.69679 -0.00000 0.12200
C 	C 	0.23840 0.73840 -0.00000 -0.00000
N 	N 	0.17451 0.17452 0.50000 -0.16300
C 	C 	0.19679 0.19679 0.50000 0.12400
C 	C 	0.23840 0.23840 0.50000 0.00100
N 	N 	0.00000 0.82549 0.67452 -0.16200
C 	C 	0.00000 0.80321 0.69679 0.12200
C 	C 	0.00000 0.76160 0.73840 -0.00000
N 	N 	0.50000 0.82549 0.17452 -0.16300
C 	C 	0.50000 0.80321 0.19679 0.12400
C 	C 	0.50000 0.76160 0.23840 0.00100
N 	N 	-0.00000 0.82549 0.32549 -0.16200
C 	C 	0.00000 0.80321 0.30321 0.12200
C 	C 	0.00000 0.76160 0.26160 -0.00000
N 	N 	0.50000 0.82549 0.82549 -0.16300
C 	C 	0.50000 0.80321 0.80321 0.12400
C 	C 	0.50000 0.76160 0.76160 0.00100
N 	N 	0.00000 0.17451 0.32549 -0.16200
C 	C 	0.00000 0.19679 0.30321 0.12200
C 	C 	0.00000 0.23840 0.26160 -0.00000
N 	N 	0.50000 0.17451 0.82549 -0.16300
C 	C 	0.50000 0.19679 0.80321 0.12400
C 	C 	0.50000 0.23840 0.76160 0.00100
N 	N 	0.00000 0.17451 0.67452 -0.16200
C 	C 	0.00000 0.19679 0.69679 0.12200
C 	C 	0.00000 0.23840 0.73840 -0.00000
N 	N 	0.50000 0.17451 0.17452 -0.16300
C 	C 	0.50000 0.19679 0.19679 0.12400
C 	C 	0.50000 0.23840 0.23840 0.00100
N 	N 	0.00000 0.67452 0.17451 -0.16200
C 	C 	0.00000 0.69679 0.19679 0.12200
C 	C 	0.00000 0.73840 0.23840 -0.00000
N 	N 	0.50000 0.67452 0.67451 -0.16300
C 	C 	0.50000 0.69679 0.69679 0.12400
C 	C 	0.50000 0.73840 0.73840 0.00200
N 	N 	0.00000 0.32549 0.17451 -0.16200
C 	C 	0.00000 0.30321 0.19679 0.12200
C 	C 	0.00000 0.26160 0.23840 -0.00000
N 	N 	0.50000 0.32549 0.67451 -0.16300
C 	C 	0.50000 0.30321 0.69679 0.12400
C 	C 	0.50000 0.26160 0.73840 0.00200
N 	N 	-0.00000 0.32549 0.82549 -0.16200
C 	C 	0.00000 0.30321 0.80321 0.12200
C 	C 	0.00000 0.26160 0.76160 -0.00000
N 	N 	0.50000 0.32549 0.32549 -0.16300
C 	C 	0.50000 0.30321 0.30321 0.12400
C 	C 	0.50000 0.26160 0.26160 0.00200
N 	N 	-0.00000 0.67452 0.82549 -0.16200
C 	C 	0.00000 0.69679 0.80321 0.12200
C 	C 	0.00000 0.73840 0.76160 -0.00000
N 	N 	0.50000 0.67452 0.32549 -0.16300
C 	C 	0.50000 0.69679 0.30321 0.12400
C 	C 	0.50000 0.73840 0.26160 0.00200
N 	N 	0.67452 0.82549 -0.00000 -0.16200
C 	C 	0.69679 0.80321 -0.00000 0.12200
C 	C 	0.73840 0.76160 -0.00000 -0.00000
N 	N 	0.67452 0.32549 0.50000 -0.16300
C 	C 	0.69679 0.30321 0.50000 0.12400
C 	C 	0.73840 0.26160 0.50000 0.00200
N 	N 	0.32549 0.82549 -0.00000 -0.16200
C 	C 	0.30321 0.80321 -0.00000 0.12200
C 	C 	0.26160 0.76160 -0.00000 -0.00000
N 	N 	0.32549 0.32549 0.50000 -0.16300
C 	C 	0.30321 0.30321 0.50000 0.12400
C 	C 	0.26160 0.26160 0.50000 0.00200
N 	N 	0.32549 0.17451 -0.00000 -0.16200
C 	C 	0.30321 0.19679 -0.00000 0.12200
C 	C 	0.26160 0.23840 -0.00000 -0.00000
N 	N 	0.32549 0.67451 0.50000 -0.16300
C 	C 	0.30321 0.69679 0.50000 0.12400
C 	C 	0.26160 0.73840 0.50000 0.00200
N 	N 	0.67452 0.17451 -0.00000 -0.16200
C 	C 	0.69679 0.19679 -0.00000 0.12200
C 	C 	0.73840 0.23840 -0.00000 -0.00000
N 	N 	0.67452 0.67451 0.50000 -0.16300
C 	C 	0.69679 0.69679 0.50000 0.12400
C 	C 	0.73840 0.73840 0.50000 0.00200
N 	N 	0.82549 0.00000 0.32549 -0.16200
C 	C 	0.80321 0.00000 0.30321 0.12200
C 	C 	0.76160 0.00000 0.26160 -0.00000
N 	N 	0.82549 0.50000 0.82549 -0.16300
C 	C 	0.80321 0.50000 0.80321 0.12400
C 	C 	0.76160 0.50000 0.76160 0.00100
N 	N 	0.82549 0.00000 0.67452 -0.16200
C 	C 	0.80321 0.00000 0.69679 0.12200
C 	C 	0.76160 0.00000 0.73840 -0.00000
N 	N 	0.82549 0.50000 0.17452 -0.16300
C 	C 	0.80321 0.50000 0.19679 0.12400
C 	C 	0.76160 0.50000 0.23840 0.00100
N 	N 	0.17451 0.00000 0.67452 -0.16200
C 	C 	0.19679 0.00000 0.69679 0.12200
C 	C 	0.23840 0.00000 0.73840 -0.00000
N 	N 	0.17451 0.50000 0.17452 -0.16300
C 	C 	0.19679 0.50000 0.19679 0.12400
C 	C 	0.23840 0.50000 0.23840 0.00100
N 	N 	0.17451 0.00000 0.32549 -0.16200
C 	C 	0.19679 0.00000 0.30321 0.12200
C 	C 	0.23840 0.00000 0.26160 -0.00000
N 	N 	0.17451 0.50000 0.82549 -0.16300
C 	C 	0.19679 0.50000 0.80321 0.12400
C 	C 	0.23840 0.50000 0.76160 0.00100
