data_crystal

_cell_length_a 46.73000
_cell_length_b 46.73000
_cell_length_c 46.73000
_cell_angle_alpha 90.00000
_cell_angle_beta  90.00000
_cell_angle_gamma 90.00000

_symmetry_space_group_name_	'P 1'
_symmetry_space_group_name_H-M	'P 1'

loop_
_symmetry_equiv_pos_as_xyz
  x,y,z

loop_
_atom_site_label
_atom_site_type_symbol
_atom_site_fract_x
_atom_site_fract_y
_atom_site_fract_z
_atom_site_charge
C 	C 	0.69750 0.21560 0.02040 -0.09700
H 	H 	0.68370 0.21500 0.03480 0.06400
C 	C 	0.71920 0.23722 0.02101 -0.01000
H 	H 	0.71970 0.25020 0.03600 0.02800
C 	C 	0.69750 0.71560 0.52040 -0.09800
H 	H 	0.68370 0.71500 0.53480 0.06400
C 	C 	0.71920 0.73722 0.52101 -0.01000
H 	H 	0.71970 0.75020 0.53600 0.02800
C 	C 	0.19750 0.21560 0.52040 -0.09800
H 	H 	0.18370 0.21500 0.53480 0.06400
C 	C 	0.21920 0.23722 0.52101 -0.01000
H 	H 	0.21970 0.25020 0.53600 0.02800
C 	C 	0.19750 0.71560 0.02040 -0.09700
H 	H 	0.18370 0.71500 0.03480 0.06400
C 	C 	0.21920 0.73722 0.02101 -0.01000
H 	H 	0.21970 0.75020 0.03600 0.02800
C 	C 	0.30250 0.78440 0.02040 -0.09700
H 	H 	0.31630 0.78500 0.03480 0.06400
C 	C 	0.28080 0.76278 0.02101 -0.01000
H 	H 	0.28030 0.74980 0.03600 0.02800
C 	C 	0.30250 0.28440 0.52040 -0.09800
H 	H 	0.31630 0.28500 0.53480 0.06400
C 	C 	0.28080 0.26278 0.52101 -0.01000
H 	H 	0.28030 0.24980 0.53600 0.02800
C 	C 	0.80250 0.78440 0.52040 -0.09800
H 	H 	0.81630 0.78500 0.53480 0.06400
C 	C 	0.78080 0.76278 0.52101 -0.00900
H 	H 	0.78030 0.74980 0.53600 0.02800
C 	C 	0.80250 0.28440 0.02040 -0.09700
H 	H 	0.81630 0.28500 0.03480 0.06400
C 	C 	0.78080 0.26278 0.02101 -0.01000
H 	H 	0.78030 0.24980 0.03600 0.02800
C 	C 	0.30250 0.21560 0.97960 -0.09600
H 	H 	0.31630 0.21500 0.96520 0.06400
C 	C 	0.28080 0.23722 0.97899 -0.00900
H 	H 	0.28030 0.25020 0.96400 0.02800
C 	C 	0.30250 0.71560 0.47960 -0.09800
H 	H 	0.31630 0.71500 0.46520 0.06400
C 	C 	0.28080 0.73722 0.47899 -0.01000
H 	H 	0.28030 0.75020 0.46400 0.02800
C 	C 	0.80250 0.21560 0.47960 -0.09800
H 	H 	0.81630 0.21500 0.46520 0.06400
C 	C 	0.78080 0.23722 0.47899 -0.00900
H 	H 	0.78030 0.25020 0.46400 0.02800
C 	C 	0.80250 0.71560 0.97960 -0.09600
H 	H 	0.81630 0.71500 0.96520 0.06400
C 	C 	0.78080 0.73722 0.97899 -0.00900
H 	H 	0.78030 0.75020 0.96400 0.02800
C 	C 	0.69750 0.78440 0.97960 -0.09600
H 	H 	0.68370 0.78500 0.96520 0.06400
C 	C 	0.71920 0.76278 0.97899 -0.00900
H 	H 	0.71970 0.74980 0.96400 0.02800
C 	C 	0.69750 0.28440 0.47960 -0.09800
H 	H 	0.68370 0.28500 0.46520 0.06400
C 	C 	0.71920 0.26278 0.47899 -0.01000
H 	H 	0.71970 0.24980 0.46400 0.02800
C 	C 	0.19750 0.78440 0.47960 -0.09800
H 	H 	0.18370 0.78500 0.46520 0.06400
C 	C 	0.21920 0.76278 0.47899 -0.01000
H 	H 	0.21970 0.74980 0.46400 0.02800
C 	C 	0.19750 0.28440 0.97960 -0.09600
H 	H 	0.18370 0.28500 0.96520 0.06400
C 	C 	0.21920 0.26278 0.97899 -0.00900
H 	H 	0.21970 0.24980 0.96400 0.02800
C 	C 	0.02040 0.69750 0.21560 -0.09700
H 	H 	0.03480 0.68370 0.21500 0.06400
C 	C 	0.02101 0.71920 0.23722 -0.01000
H 	H 	0.03600 0.71970 0.25020 0.02800
C 	C 	0.02040 0.19750 0.71560 -0.09700
H 	H 	0.03480 0.18370 0.71500 0.06400
C 	C 	0.02101 0.21920 0.73722 -0.01000
H 	H 	0.03600 0.21970 0.75020 0.02800
C 	C 	0.52040 0.69750 0.71560 -0.09800
H 	H 	0.53480 0.68370 0.71500 0.06400
C 	C 	0.52101 0.71920 0.73722 -0.01000
H 	H 	0.53600 0.71970 0.75020 0.02800
C 	C 	0.52040 0.19750 0.21560 -0.09800
H 	H 	0.53480 0.18370 0.21500 0.06400
C 	C 	0.52101 0.21920 0.23722 -0.01000
H 	H 	0.53600 0.21970 0.25020 0.02800
C 	C 	0.02040 0.30250 0.78440 -0.09700
H 	H 	0.03480 0.31630 0.78500 0.06400
C 	C 	0.02101 0.28080 0.76278 -0.01000
H 	H 	0.03600 0.28030 0.74980 0.02800
C 	C 	0.02040 0.80250 0.28440 -0.09700
H 	H 	0.03480 0.81630 0.28500 0.06400
C 	C 	0.02101 0.78080 0.26278 -0.01000
H 	H 	0.03600 0.78030 0.24980 0.02800
C 	C 	0.52040 0.30250 0.28440 -0.09800
H 	H 	0.53480 0.31630 0.28500 0.06400
C 	C 	0.52101 0.28080 0.26278 -0.01000
H 	H 	0.53600 0.28030 0.24980 0.02800
C 	C 	0.52040 0.80250 0.78440 -0.09800
H 	H 	0.53480 0.81630 0.78500 0.06400
C 	C 	0.52101 0.78080 0.76278 -0.00900
H 	H 	0.53600 0.78030 0.74980 0.02800
C 	C 	0.97960 0.30250 0.21560 -0.09600
H 	H 	0.96520 0.31630 0.21500 0.06400
C 	C 	0.97899 0.28080 0.23722 -0.00900
H 	H 	0.96400 0.28030 0.25020 0.02800
C 	C 	0.97960 0.80250 0.71560 -0.09600
H 	H 	0.96520 0.81630 0.71500 0.06400
C 	C 	0.97899 0.78080 0.73722 -0.00900
H 	H 	0.96400 0.78030 0.75020 0.02800
C 	C 	0.47960 0.30250 0.71560 -0.09800
H 	H 	0.46520 0.31630 0.71500 0.06400
C 	C 	0.47899 0.28080 0.73722 -0.01000
H 	H 	0.46400 0.28030 0.75020 0.02800
C 	C 	0.47960 0.80250 0.21560 -0.09800
H 	H 	0.46520 0.81630 0.21500 0.06400
C 	C 	0.47899 0.78080 0.23722 -0.00900
H 	H 	0.46400 0.78030 0.25020 0.02800
C 	C 	0.97960 0.69750 0.78440 -0.09600
H 	H 	0.96520 0.68370 0.78500 0.06400
C 	C 	0.97899 0.71920 0.76278 -0.00900
H 	H 	0.96400 0.71970 0.74980 0.02800
C 	C 	0.97960 0.19750 0.28440 -0.09600
H 	H 	0.96520 0.18370 0.28500 0.06400
C 	C 	0.97899 0.21920 0.26278 -0.00900
H 	H 	0.96400 0.21970 0.24980 0.02800
C 	C 	0.47960 0.69750 0.28440 -0.09800
H 	H 	0.46520 0.68370 0.28500 0.06400
C 	C 	0.47899 0.71920 0.26278 -0.01000
H 	H 	0.46400 0.71970 0.24980 0.02800
C 	C 	0.47960 0.19750 0.78440 -0.09800
H 	H 	0.46520 0.18370 0.78500 0.06400
C 	C 	0.47899 0.21920 0.76278 -0.01000
H 	H 	0.46400 0.21970 0.74980 0.02800
C 	C 	0.21560 0.02040 0.69750 -0.09700
H 	H 	0.21500 0.03480 0.68370 0.06400
C 	C 	0.23722 0.02101 0.71920 -0.01000
H 	H 	0.25020 0.03600 0.71970 0.02800
C 	C 	0.21560 0.52040 0.19750 -0.09800
H 	H 	0.21500 0.53480 0.18370 0.06400
C 	C 	0.23722 0.52101 0.21920 -0.01000
H 	H 	0.25020 0.53600 0.21970 0.02800
C 	C 	0.71560 0.02040 0.19750 -0.09700
H 	H 	0.71500 0.03480 0.18370 0.06400
C 	C 	0.73722 0.02101 0.21920 -0.01000
H 	H 	0.75020 0.03600 0.21970 0.02800
C 	C 	0.71560 0.52040 0.69750 -0.09800
H 	H 	0.71500 0.53480 0.68370 0.06400
C 	C 	0.73722 0.52101 0.71920 -0.01000
H 	H 	0.75020 0.53600 0.71970 0.02800
C 	C 	0.78440 0.02040 0.30250 -0.09700
H 	H 	0.78500 0.03480 0.31630 0.06400
C 	C 	0.76278 0.02101 0.28080 -0.01000
H 	H 	0.74980 0.03600 0.28030 0.02800
C 	C 	0.78440 0.52040 0.80250 -0.09800
H 	H 	0.78500 0.53480 0.81630 0.06400
C 	C 	0.76278 0.52101 0.78080 -0.00900
H 	H 	0.74980 0.53600 0.78030 0.02800
C 	C 	0.28440 0.02040 0.80250 -0.09700
H 	H 	0.28500 0.03480 0.81630 0.06400
C 	C 	0.26278 0.02101 0.78080 -0.01000
H 	H 	0.24980 0.03600 0.78030 0.02800
C 	C 	0.28440 0.52040 0.30250 -0.09800
H 	H 	0.28500 0.53480 0.31630 0.06400
C 	C 	0.26278 0.52101 0.28080 -0.01000
H 	H 	0.24980 0.53600 0.28030 0.02800
C 	C 	0.21560 0.97960 0.30250 -0.09600
H 	H 	0.21500 0.96520 0.31630 0.06400
C 	C 	0.23722 0.97899 0.28080 -0.00900
H 	H 	0.25020 0.96400 0.28030 0.02800
C 	C 	0.21560 0.47960 0.80250 -0.09800
H 	H 	0.21500 0.46520 0.81630 0.06400
C 	C 	0.23722 0.47899 0.78080 -0.00900
H 	H 	0.25020 0.46400 0.78030 0.02800
C 	C 	0.71560 0.97960 0.80250 -0.09600
H 	H 	0.71500 0.96520 0.81630 0.06400
C 	C 	0.73722 0.97899 0.78080 -0.00900
H 	H 	0.75020 0.96400 0.78030 0.02800
C 	C 	0.71560 0.47960 0.30250 -0.09800
H 	H 	0.71500 0.46520 0.31630 0.06400
C 	C 	0.73722 0.47899 0.28080 -0.01000
H 	H 	0.75020 0.46400 0.28030 0.02800
C 	C 	0.78440 0.97960 0.69750 -0.09600
H 	H 	0.78500 0.96520 0.68370 0.06400
C 	C 	0.76278 0.97899 0.71920 -0.00900
H 	H 	0.74980 0.96400 0.71970 0.02800
C 	C 	0.78440 0.47960 0.19750 -0.09800
H 	H 	0.78500 0.46520 0.18370 0.06400
C 	C 	0.76278 0.47899 0.21920 -0.01000
H 	H 	0.74980 0.46400 0.21970 0.02800
C 	C 	0.28440 0.97960 0.19750 -0.09600
H 	H 	0.28500 0.96520 0.18370 0.06400
C 	C 	0.26278 0.97899 0.21920 -0.00900
H 	H 	0.24980 0.96400 0.21970 0.02800
C 	C 	0.28440 0.47960 0.69750 -0.09800
H 	H 	0.28500 0.46520 0.68370 0.06400
C 	C 	0.26278 0.47899 0.71920 -0.01000
H 	H 	0.24980 0.46400 0.71970 0.02800
C 	C 	0.21560 0.69750 0.97960 -0.09600
H 	H 	0.21500 0.68370 0.96520 0.06400
C 	C 	0.23722 0.71920 0.97899 -0.00900
H 	H 	0.25020 0.71970 0.96400 0.02800
C 	C 	0.21560 0.19750 0.47960 -0.09800
H 	H 	0.21500 0.18370 0.46520 0.06400
C 	C 	0.23722 0.21920 0.47899 -0.01000
H 	H 	0.25020 0.21970 0.46400 0.02800
C 	C 	0.71560 0.69750 0.47960 -0.09800
H 	H 	0.71500 0.68370 0.46520 0.06400
C 	C 	0.73722 0.71920 0.47899 -0.01000
H 	H 	0.75020 0.71970 0.46400 0.02800
C 	C 	0.71560 0.19750 0.97960 -0.09600
H 	H 	0.71500 0.18370 0.96520 0.06400
C 	C 	0.73722 0.21920 0.97899 -0.00900
H 	H 	0.75020 0.21970 0.96400 0.02800
C 	C 	0.78440 0.30250 0.97960 -0.09600
H 	H 	0.78500 0.31630 0.96520 0.06400
C 	C 	0.76278 0.28080 0.97899 -0.00900
H 	H 	0.74980 0.28030 0.96400 0.02800
C 	C 	0.78440 0.80250 0.47960 -0.09800
H 	H 	0.78500 0.81630 0.46520 0.06400
C 	C 	0.76278 0.78080 0.47899 -0.00900
H 	H 	0.74980 0.78030 0.46400 0.02800
C 	C 	0.28440 0.30250 0.47960 -0.09800
H 	H 	0.28500 0.31630 0.46520 0.06400
C 	C 	0.26278 0.28080 0.47899 -0.01000
H 	H 	0.24980 0.28030 0.46400 0.02800
C 	C 	0.28440 0.80250 0.97960 -0.09600
H 	H 	0.28500 0.81630 0.96520 0.06400
C 	C 	0.26278 0.78080 0.97899 -0.00900
H 	H 	0.24980 0.78030 0.96400 0.02800
C 	C 	0.21560 0.30250 0.02040 -0.09700
H 	H 	0.21500 0.31630 0.03480 0.06400
C 	C 	0.23722 0.28080 0.02101 -0.01000
H 	H 	0.25020 0.28030 0.03600 0.02800
C 	C 	0.21560 0.80250 0.52040 -0.09800
H 	H 	0.21500 0.81630 0.53480 0.06400
C 	C 	0.23722 0.78080 0.52101 -0.00900
H 	H 	0.25020 0.78030 0.53600 0.02800
C 	C 	0.71560 0.30250 0.52040 -0.09800
H 	H 	0.71500 0.31630 0.53480 0.06400
C 	C 	0.73722 0.28080 0.52101 -0.01000
H 	H 	0.75020 0.28030 0.53600 0.02800
C 	C 	0.71560 0.80250 0.02040 -0.09700
H 	H 	0.71500 0.81630 0.03480 0.06400
C 	C 	0.73722 0.78080 0.02101 -0.01000
H 	H 	0.75020 0.78030 0.03600 0.02800
C 	C 	0.78440 0.69750 0.02040 -0.09700
H 	H 	0.78500 0.68370 0.03480 0.06400
C 	C 	0.76278 0.71920 0.02101 -0.01000
H 	H 	0.74980 0.71970 0.03600 0.02800
C 	C 	0.78440 0.19750 0.52040 -0.09800
H 	H 	0.78500 0.18370 0.53480 0.06400
C 	C 	0.76278 0.21920 0.52101 -0.01000
H 	H 	0.74980 0.21970 0.53600 0.02800
C 	C 	0.28440 0.69750 0.52040 -0.09800
H 	H 	0.28500 0.68370 0.53480 0.06400
C 	C 	0.26278 0.71920 0.52101 -0.01000
H 	H 	0.24980 0.71970 0.53600 0.02800
C 	C 	0.28440 0.19750 0.02040 -0.09700
H 	H 	0.28500 0.18370 0.03480 0.06400
C 	C 	0.26278 0.21920 0.02101 -0.01000
H 	H 	0.24980 0.21970 0.03600 0.02800
C 	C 	0.69750 0.02040 0.78440 -0.09700
H 	H 	0.68370 0.03480 0.78500 0.06400
C 	C 	0.71920 0.02101 0.76278 -0.01000
H 	H 	0.71970 0.03600 0.74980 0.02800
C 	C 	0.69750 0.52040 0.28440 -0.09800
H 	H 	0.68370 0.53480 0.28500 0.06400
C 	C 	0.71920 0.52101 0.26278 -0.01000
H 	H 	0.71970 0.53600 0.24980 0.02800
C 	C 	0.19750 0.02040 0.28440 -0.09700
H 	H 	0.18370 0.03480 0.28500 0.06400
C 	C 	0.21920 0.02101 0.26278 -0.01000
H 	H 	0.21970 0.03600 0.24980 0.02800
C 	C 	0.19750 0.52040 0.78440 -0.09800
H 	H 	0.18370 0.53480 0.78500 0.06400
C 	C 	0.21920 0.52101 0.76278 -0.01000
H 	H 	0.21970 0.53600 0.74980 0.02800
C 	C 	0.30250 0.02040 0.21560 -0.09700
H 	H 	0.31630 0.03480 0.21500 0.06400
C 	C 	0.28080 0.02101 0.23722 -0.01000
H 	H 	0.28030 0.03600 0.25020 0.02800
C 	C 	0.30250 0.52040 0.71560 -0.09800
H 	H 	0.31630 0.53480 0.71500 0.06400
C 	C 	0.28080 0.52101 0.73722 -0.01000
H 	H 	0.28030 0.53600 0.75020 0.02800
C 	C 	0.80250 0.02040 0.71560 -0.09700
H 	H 	0.81630 0.03480 0.71500 0.06400
C 	C 	0.78080 0.02101 0.73722 -0.01100
H 	H 	0.78030 0.03600 0.75020 0.02700
C 	C 	0.80250 0.52040 0.21560 -0.09900
H 	H 	0.81630 0.53480 0.21500 0.06300
C 	C 	0.78080 0.52101 0.23722 -0.01000
H 	H 	0.78030 0.53600 0.25020 0.02700
C 	C 	0.30250 0.97960 0.78440 -0.09700
H 	H 	0.31630 0.96520 0.78500 0.06300
C 	C 	0.28080 0.97899 0.76278 -0.01000
H 	H 	0.28030 0.96400 0.74980 0.02700
C 	C 	0.30250 0.47960 0.28440 -0.09900
H 	H 	0.31630 0.46520 0.28500 0.06300
C 	C 	0.28080 0.47899 0.26278 -0.01100
H 	H 	0.28030 0.46400 0.24980 0.02700
C 	C 	0.80250 0.97960 0.28440 -0.09700
H 	H 	0.81630 0.96520 0.28500 0.06300
C 	C 	0.78080 0.97899 0.26278 -0.01000
H 	H 	0.78030 0.96400 0.24980 0.02700
C 	C 	0.80250 0.47960 0.78440 -0.09900
H 	H 	0.81630 0.46520 0.78500 0.06300
C 	C 	0.78080 0.47899 0.76278 -0.01000
H 	H 	0.78030 0.46400 0.74980 0.02700
C 	C 	0.69750 0.97960 0.21560 -0.09700
H 	H 	0.68370 0.96520 0.21500 0.06300
C 	C 	0.71920 0.97899 0.23722 -0.01000
H 	H 	0.71970 0.96400 0.25020 0.02700
C 	C 	0.69750 0.47960 0.71560 -0.09900
H 	H 	0.68370 0.46520 0.71500 0.06300
C 	C 	0.71920 0.47899 0.73722 -0.01100
H 	H 	0.71970 0.46400 0.75020 0.02700
C 	C 	0.19750 0.97960 0.71560 -0.09700
H 	H 	0.18370 0.96520 0.71500 0.06300
C 	C 	0.21920 0.97899 0.73722 -0.01000
H 	H 	0.21970 0.96400 0.75020 0.02700
C 	C 	0.19750 0.47960 0.21560 -0.09900
H 	H 	0.18370 0.46520 0.21500 0.06300
C 	C 	0.21920 0.47899 0.23722 -0.01100
H 	H 	0.21970 0.46400 0.25020 0.02700
C 	C 	0.02040 0.21560 0.30250 -0.09800
H 	H 	0.03480 0.21500 0.31630 0.06300
C 	C 	0.02101 0.23722 0.28080 -0.01100
H 	H 	0.03600 0.25020 0.28030 0.02700
C 	C 	0.02040 0.71560 0.80250 -0.09800
H 	H 	0.03480 0.71500 0.81630 0.06300
C 	C 	0.02101 0.73722 0.78080 -0.01100
H 	H 	0.03600 0.75020 0.78030 0.02700
C 	C 	0.52040 0.21560 0.80250 -0.09900
H 	H 	0.53480 0.21500 0.81630 0.06300
C 	C 	0.52101 0.23722 0.78080 -0.01000
H 	H 	0.53600 0.25020 0.78030 0.02700
C 	C 	0.52040 0.71560 0.30250 -0.09900
H 	H 	0.53480 0.71500 0.31630 0.06300
C 	C 	0.52101 0.73722 0.28080 -0.01100
H 	H 	0.53600 0.75020 0.28030 0.02700
C 	C 	0.02040 0.78440 0.69750 -0.09800
H 	H 	0.03480 0.78500 0.68370 0.06300
C 	C 	0.02101 0.76278 0.71920 -0.01100
H 	H 	0.03600 0.74980 0.71970 0.02700
C 	C 	0.02040 0.28440 0.19750 -0.09800
H 	H 	0.03480 0.28500 0.18370 0.06300
C 	C 	0.02101 0.26278 0.21920 -0.01100
H 	H 	0.03600 0.24980 0.21970 0.02700
C 	C 	0.52040 0.78440 0.19750 -0.09900
H 	H 	0.53480 0.78500 0.18370 0.06300
C 	C 	0.52101 0.76278 0.21920 -0.01100
H 	H 	0.53600 0.74980 0.21970 0.02700
C 	C 	0.52040 0.28440 0.69750 -0.09900
H 	H 	0.53480 0.28500 0.68370 0.06300
C 	C 	0.52101 0.26278 0.71920 -0.01100
H 	H 	0.53600 0.24980 0.71970 0.02700
C 	C 	0.97960 0.21560 0.69750 -0.09700
H 	H 	0.96520 0.21500 0.68370 0.06300
C 	C 	0.97899 0.23722 0.71920 -0.01000
H 	H 	0.96400 0.25020 0.71970 0.02700
C 	C 	0.97960 0.71560 0.19750 -0.09700
H 	H 	0.96520 0.71500 0.18370 0.06300
C 	C 	0.97899 0.73722 0.21920 -0.01000
H 	H 	0.96400 0.75020 0.21970 0.02700
C 	C 	0.47960 0.21560 0.19750 -0.09900
H 	H 	0.46520 0.21500 0.18370 0.06300
C 	C 	0.47899 0.23722 0.21920 -0.01100
H 	H 	0.46400 0.25020 0.21970 0.02700
C 	C 	0.47960 0.71560 0.69750 -0.09900
H 	H 	0.46520 0.71500 0.68370 0.06300
C 	C 	0.47899 0.73722 0.71920 -0.01100
H 	H 	0.46400 0.75020 0.71970 0.02700
C 	C 	0.97960 0.78440 0.30250 -0.09700
H 	H 	0.96520 0.78500 0.31630 0.06300
C 	C 	0.97899 0.76278 0.28080 -0.01000
H 	H 	0.96400 0.74980 0.28030 0.02700
C 	C 	0.97960 0.28440 0.80250 -0.09700
H 	H 	0.96520 0.28500 0.81630 0.06300
C 	C 	0.97899 0.26278 0.78080 -0.01000
H 	H 	0.96400 0.24980 0.78030 0.02700
C 	C 	0.47960 0.78440 0.80250 -0.09900
H 	H 	0.46520 0.78500 0.81630 0.06300
C 	C 	0.47899 0.76278 0.78080 -0.01000
H 	H 	0.46400 0.74980 0.78030 0.02700
C 	C 	0.47960 0.28440 0.30250 -0.09900
H 	H 	0.46520 0.28500 0.31630 0.06300
C 	C 	0.47899 0.26278 0.28080 -0.01100
H 	H 	0.46400 0.24980 0.28030 0.02700
C 	C 	0.30250 0.78440 0.97960 -0.09700
H 	H 	0.31630 0.78500 0.96520 0.06300
C 	C 	0.28080 0.76278 0.97899 -0.01000
H 	H 	0.28030 0.74980 0.96400 0.02700
C 	C 	0.30250 0.28440 0.47960 -0.09900
H 	H 	0.31630 0.28500 0.46520 0.06300
C 	C 	0.28080 0.26278 0.47899 -0.01100
H 	H 	0.28030 0.24980 0.46400 0.02700
C 	C 	0.80250 0.78440 0.47960 -0.09900
H 	H 	0.81630 0.78500 0.46520 0.06300
C 	C 	0.78080 0.76278 0.47899 -0.01000
H 	H 	0.78030 0.74980 0.46400 0.02700
C 	C 	0.80250 0.28440 0.97960 -0.09700
H 	H 	0.81630 0.28500 0.96520 0.06300
C 	C 	0.78080 0.26278 0.97899 -0.01000
H 	H 	0.78030 0.24980 0.96400 0.02700
C 	C 	0.69750 0.21560 0.97960 -0.09700
H 	H 	0.68370 0.21500 0.96520 0.06300
C 	C 	0.71920 0.23722 0.97899 -0.01000
H 	H 	0.71970 0.25020 0.96400 0.02700
C 	C 	0.69750 0.71560 0.47960 -0.09900
H 	H 	0.68370 0.71500 0.46520 0.06300
C 	C 	0.71920 0.73722 0.47899 -0.01100
H 	H 	0.71970 0.75020 0.46400 0.02700
C 	C 	0.19750 0.21560 0.47960 -0.09900
H 	H 	0.18370 0.21500 0.46520 0.06300
C 	C 	0.21920 0.23722 0.47899 -0.01100
H 	H 	0.21970 0.25020 0.46400 0.02700
C 	C 	0.19750 0.71560 0.97960 -0.09700
H 	H 	0.18370 0.71500 0.96520 0.06300
C 	C 	0.21920 0.73722 0.97899 -0.01000
H 	H 	0.21970 0.75020 0.96400 0.02700
C 	C 	0.69750 0.78440 0.02040 -0.09800
H 	H 	0.68370 0.78500 0.03480 0.06300
C 	C 	0.71920 0.76278 0.02101 -0.01100
H 	H 	0.71970 0.74980 0.03600 0.02700
C 	C 	0.69750 0.28440 0.52040 -0.09900
H 	H 	0.68370 0.28500 0.53480 0.06300
C 	C 	0.71920 0.26278 0.52101 -0.01100
H 	H 	0.71970 0.24980 0.53600 0.02700
C 	C 	0.19750 0.78440 0.52040 -0.09900
H 	H 	0.18370 0.78500 0.53480 0.06300
C 	C 	0.21920 0.76278 0.52101 -0.01100
H 	H 	0.21970 0.74980 0.53600 0.02700
C 	C 	0.19750 0.28440 0.02040 -0.09800
H 	H 	0.18370 0.28500 0.03480 0.06300
C 	C 	0.21920 0.26278 0.02101 -0.01100
H 	H 	0.21970 0.24980 0.03600 0.02700
C 	C 	0.30250 0.21560 0.02040 -0.09800
H 	H 	0.31630 0.21500 0.03480 0.06300
C 	C 	0.28080 0.23722 0.02101 -0.01100
H 	H 	0.28030 0.25020 0.03600 0.02700
C 	C 	0.30250 0.71560 0.52040 -0.09900
H 	H 	0.31630 0.71500 0.53480 0.06300
C 	C 	0.28080 0.73722 0.52101 -0.01100
H 	H 	0.28030 0.75020 0.53600 0.02700
C 	C 	0.80250 0.21560 0.52040 -0.09900
H 	H 	0.81630 0.21500 0.53480 0.06300
C 	C 	0.78080 0.23722 0.52101 -0.01000
H 	H 	0.78030 0.25020 0.53600 0.02700
C 	C 	0.80250 0.71560 0.02040 -0.09800
H 	H 	0.81630 0.71500 0.03480 0.06300
C 	C 	0.78080 0.73722 0.02101 -0.01100
H 	H 	0.78030 0.75020 0.03600 0.02700
C 	C 	0.97960 0.30250 0.78440 -0.09700
H 	H 	0.96520 0.31630 0.78500 0.06300
C 	C 	0.97899 0.28080 0.76278 -0.01000
H 	H 	0.96400 0.28030 0.74980 0.02700
C 	C 	0.97960 0.80250 0.28440 -0.09700
H 	H 	0.96520 0.81630 0.28500 0.06300
C 	C 	0.97899 0.78080 0.26278 -0.01000
H 	H 	0.96400 0.78030 0.24980 0.02700
C 	C 	0.47960 0.30250 0.28440 -0.09900
H 	H 	0.46520 0.31630 0.28500 0.06300
C 	C 	0.47899 0.28080 0.26278 -0.01100
H 	H 	0.46400 0.28030 0.24980 0.02700
C 	C 	0.47960 0.80250 0.78440 -0.09900
H 	H 	0.46520 0.81630 0.78500 0.06300
C 	C 	0.47899 0.78080 0.76278 -0.01000
H 	H 	0.46400 0.78030 0.74980 0.02700
C 	C 	0.97960 0.69750 0.21560 -0.09700
H 	H 	0.96520 0.68370 0.21500 0.06300
C 	C 	0.97899 0.71920 0.23722 -0.01000
H 	H 	0.96400 0.71970 0.25020 0.02700
C 	C 	0.97960 0.19750 0.71560 -0.09700
H 	H 	0.96520 0.18370 0.71500 0.06300
C 	C 	0.97899 0.21920 0.73722 -0.01000
H 	H 	0.96400 0.21970 0.75020 0.02700
C 	C 	0.47960 0.69750 0.71560 -0.09900
H 	H 	0.46520 0.68370 0.71500 0.06300
C 	C 	0.47899 0.71920 0.73722 -0.01100
H 	H 	0.46400 0.71970 0.75020 0.02700
C 	C 	0.47960 0.19750 0.21560 -0.09900
H 	H 	0.46520 0.18370 0.21500 0.06300
C 	C 	0.47899 0.21920 0.23722 -0.01100
H 	H 	0.46400 0.21970 0.25020 0.02700
C 	C 	0.02040 0.69750 0.78440 -0.09800
H 	H 	0.03480 0.68370 0.78500 0.06300
C 	C 	0.02101 0.71920 0.76278 -0.01100
H 	H 	0.03600 0.71970 0.74980 0.02700
C 	C 	0.02040 0.19750 0.28440 -0.09800
H 	H 	0.03480 0.18370 0.28500 0.06300
C 	C 	0.02101 0.21920 0.26278 -0.01100
H 	H 	0.03600 0.21970 0.24980 0.02700
C 	C 	0.52040 0.69750 0.28440 -0.09900
H 	H 	0.53480 0.68370 0.28500 0.06300
C 	C 	0.52101 0.71920 0.26278 -0.01100
H 	H 	0.53600 0.71970 0.24980 0.02700
C 	C 	0.52040 0.19750 0.78440 -0.09900
H 	H 	0.53480 0.18370 0.78500 0.06300
C 	C 	0.52101 0.21920 0.76278 -0.01100
H 	H 	0.53600 0.21970 0.74980 0.02700
C 	C 	0.02040 0.30250 0.21560 -0.09800
H 	H 	0.03480 0.31630 0.21500 0.06300
C 	C 	0.02101 0.28080 0.23722 -0.01100
H 	H 	0.03600 0.28030 0.25020 0.02700
C 	C 	0.02040 0.80250 0.71560 -0.09800
H 	H 	0.03480 0.81630 0.71500 0.06300
C 	C 	0.02101 0.78080 0.73722 -0.01100
H 	H 	0.03600 0.78030 0.75020 0.02700
C 	C 	0.52040 0.30250 0.71560 -0.09900
H 	H 	0.53480 0.31630 0.71500 0.06300
C 	C 	0.52101 0.28080 0.73722 -0.01100
H 	H 	0.53600 0.28030 0.75020 0.02700
C 	C 	0.52040 0.80250 0.21560 -0.09900
H 	H 	0.53480 0.81630 0.21500 0.06300
C 	C 	0.52101 0.78080 0.23722 -0.01000
H 	H 	0.53600 0.78030 0.25020 0.02700
C 	C 	0.78440 0.97960 0.30250 -0.09700
H 	H 	0.78500 0.96520 0.31630 0.06300
C 	C 	0.76278 0.97899 0.28080 -0.01000
H 	H 	0.74980 0.96400 0.28030 0.02700
C 	C 	0.78440 0.47960 0.80250 -0.09900
H 	H 	0.78500 0.46520 0.81630 0.06300
C 	C 	0.76278 0.47899 0.78080 -0.01000
H 	H 	0.74980 0.46400 0.78030 0.02700
C 	C 	0.28440 0.97960 0.80250 -0.09700
H 	H 	0.28500 0.96520 0.81630 0.06300
C 	C 	0.26278 0.97899 0.78080 -0.01000
H 	H 	0.24980 0.96400 0.78030 0.02700
C 	C 	0.28440 0.47960 0.30250 -0.09900
H 	H 	0.28500 0.46520 0.31630 0.06300
C 	C 	0.26278 0.47899 0.28080 -0.01100
H 	H 	0.24980 0.46400 0.28030 0.02700
C 	C 	0.21560 0.97960 0.69750 -0.09700
H 	H 	0.21500 0.96520 0.68370 0.06300
C 	C 	0.23722 0.97899 0.71920 -0.01000
H 	H 	0.25020 0.96400 0.71970 0.02700
C 	C 	0.21560 0.47960 0.19750 -0.09900
H 	H 	0.21500 0.46520 0.18370 0.06300
C 	C 	0.23722 0.47899 0.21920 -0.01100
H 	H 	0.25020 0.46400 0.21970 0.02700
C 	C 	0.71560 0.97960 0.19750 -0.09700
H 	H 	0.71500 0.96520 0.18370 0.06300
C 	C 	0.73722 0.97899 0.21920 -0.01000
H 	H 	0.75020 0.96400 0.21970 0.02700
C 	C 	0.71560 0.47960 0.69750 -0.09900
H 	H 	0.71500 0.46520 0.68370 0.06300
C 	C 	0.73722 0.47899 0.71920 -0.01100
H 	H 	0.75020 0.46400 0.71970 0.02700
C 	C 	0.78440 0.02040 0.69750 -0.09800
H 	H 	0.78500 0.03480 0.68370 0.06300
C 	C 	0.76278 0.02101 0.71920 -0.01100
H 	H 	0.74980 0.03600 0.71970 0.02700
C 	C 	0.78440 0.52040 0.19750 -0.09900
H 	H 	0.78500 0.53480 0.18370 0.06300
C 	C 	0.76278 0.52101 0.21920 -0.01100
H 	H 	0.74980 0.53600 0.21970 0.02700
C 	C 	0.28440 0.02040 0.19750 -0.09800
H 	H 	0.28500 0.03480 0.18370 0.06300
C 	C 	0.26278 0.02101 0.21920 -0.01100
H 	H 	0.24980 0.03600 0.21970 0.02700
C 	C 	0.28440 0.52040 0.69750 -0.09900
H 	H 	0.28500 0.53480 0.68370 0.06300
C 	C 	0.26278 0.52101 0.71920 -0.01100
H 	H 	0.24980 0.53600 0.71970 0.02700
C 	C 	0.21560 0.02040 0.30250 -0.09800
H 	H 	0.21500 0.03480 0.31630 0.06300
C 	C 	0.23722 0.02101 0.28080 -0.01100
H 	H 	0.25020 0.03600 0.28030 0.02700
C 	C 	0.21560 0.52040 0.80250 -0.09900
H 	H 	0.21500 0.53480 0.81630 0.06300
C 	C 	0.23722 0.52101 0.78080 -0.01000
H 	H 	0.25020 0.53600 0.78030 0.02700
C 	C 	0.71560 0.02040 0.80250 -0.09800
H 	H 	0.71500 0.03480 0.81630 0.06300
C 	C 	0.73722 0.02101 0.78080 -0.01100
H 	H 	0.75020 0.03600 0.78030 0.02700
C 	C 	0.71560 0.52040 0.30250 -0.09900
H 	H 	0.71500 0.53480 0.31630 0.06300
C 	C 	0.73722 0.52101 0.28080 -0.01100
H 	H 	0.75020 0.53600 0.28030 0.02700
C 	C 	0.78440 0.30250 0.02040 -0.09800
H 	H 	0.78500 0.31630 0.03480 0.06300
C 	C 	0.76278 0.28080 0.02101 -0.01100
H 	H 	0.74980 0.28030 0.03600 0.02700
C 	C 	0.78440 0.80250 0.52040 -0.09900
H 	H 	0.78500 0.81630 0.53480 0.06300
C 	C 	0.76278 0.78080 0.52101 -0.01000
H 	H 	0.74980 0.78030 0.53600 0.02700
C 	C 	0.28440 0.30250 0.52040 -0.09900
H 	H 	0.28500 0.31630 0.53480 0.06300
C 	C 	0.26278 0.28080 0.52101 -0.01100
H 	H 	0.24980 0.28030 0.53600 0.02700
C 	C 	0.28440 0.80250 0.02040 -0.09800
H 	H 	0.28500 0.81630 0.03480 0.06300
C 	C 	0.26278 0.78080 0.02101 -0.01100
H 	H 	0.24980 0.78030 0.03600 0.02700
C 	C 	0.21560 0.69750 0.02040 -0.09800
H 	H 	0.21500 0.68370 0.03480 0.06300
C 	C 	0.23722 0.71920 0.02101 -0.01100
H 	H 	0.25020 0.71970 0.03600 0.02700
C 	C 	0.21560 0.19750 0.52040 -0.09900
H 	H 	0.21500 0.18370 0.53480 0.06300
C 	C 	0.23722 0.21920 0.52101 -0.01100
H 	H 	0.25020 0.21970 0.53600 0.02700
C 	C 	0.71560 0.69750 0.52040 -0.09900
H 	H 	0.71500 0.68370 0.53480 0.06300
C 	C 	0.73722 0.71920 0.52101 -0.01100
H 	H 	0.75020 0.71970 0.53600 0.02700
C 	C 	0.71560 0.19750 0.02040 -0.09800
H 	H 	0.71500 0.18370 0.03480 0.06300
C 	C 	0.73722 0.21920 0.02101 -0.01100
H 	H 	0.75020 0.21970 0.03600 0.02700
C 	C 	0.78440 0.69750 0.97960 -0.09700
H 	H 	0.78500 0.68370 0.96520 0.06300
C 	C 	0.76278 0.71920 0.97899 -0.01000
H 	H 	0.74980 0.71970 0.96400 0.02700
C 	C 	0.78440 0.19750 0.47960 -0.09900
H 	H 	0.78500 0.18370 0.46520 0.06300
C 	C 	0.76278 0.21920 0.47899 -0.01100
H 	H 	0.74980 0.21970 0.46400 0.02700
C 	C 	0.28440 0.69750 0.47960 -0.09900
H 	H 	0.28500 0.68370 0.46520 0.06300
C 	C 	0.26278 0.71920 0.47899 -0.01100
H 	H 	0.24980 0.71970 0.46400 0.02700
C 	C 	0.28440 0.19750 0.97960 -0.09700
H 	H 	0.28500 0.18370 0.96520 0.06300
C 	C 	0.26278 0.21920 0.97899 -0.01000
H 	H 	0.24980 0.21970 0.96400 0.02700
C 	C 	0.21560 0.30250 0.97960 -0.09700
H 	H 	0.21500 0.31630 0.96520 0.06300
C 	C 	0.23722 0.28080 0.97899 -0.01000
H 	H 	0.25020 0.28030 0.96400 0.02700
C 	C 	0.21560 0.80250 0.47960 -0.09900
H 	H 	0.21500 0.81630 0.46520 0.06300
C 	C 	0.23722 0.78080 0.47899 -0.01000
H 	H 	0.25020 0.78030 0.46400 0.02700
C 	C 	0.71560 0.30250 0.47960 -0.09900
H 	H 	0.71500 0.31630 0.46520 0.06300
C 	C 	0.73722 0.28080 0.47899 -0.01100
H 	H 	0.75020 0.28030 0.46400 0.02700
C 	C 	0.71560 0.80250 0.97960 -0.09700
H 	H 	0.71500 0.81630 0.96520 0.06300
C 	C 	0.73722 0.78080 0.97899 -0.01000
H 	H 	0.75020 0.78030 0.96400 0.02700
C 	C 	0.30250 0.97960 0.21560 -0.09700
H 	H 	0.31630 0.96520 0.21500 0.06300
C 	C 	0.28080 0.97899 0.23722 -0.01000
H 	H 	0.28030 0.96400 0.25020 0.02700
C 	C 	0.30250 0.47960 0.71560 -0.09900
H 	H 	0.31630 0.46520 0.71500 0.06300
C 	C 	0.28080 0.47899 0.73722 -0.01100
H 	H 	0.28030 0.46400 0.75020 0.02700
C 	C 	0.80250 0.97960 0.71560 -0.09700
H 	H 	0.81630 0.96520 0.71500 0.06300
C 	C 	0.78080 0.97899 0.73722 -0.01000
H 	H 	0.78030 0.96400 0.75020 0.02700
C 	C 	0.80250 0.47960 0.21560 -0.09900
H 	H 	0.81630 0.46520 0.21500 0.06300
C 	C 	0.78080 0.47899 0.23722 -0.01000
H 	H 	0.78030 0.46400 0.25020 0.02700
C 	C 	0.69750 0.97960 0.78440 -0.09700
H 	H 	0.68370 0.96520 0.78500 0.06300
C 	C 	0.71920 0.97899 0.76278 -0.01000
H 	H 	0.71970 0.96400 0.74980 0.02700
C 	C 	0.69750 0.47960 0.28440 -0.09900
H 	H 	0.68370 0.46520 0.28500 0.06300
C 	C 	0.71920 0.47899 0.26278 -0.01100
H 	H 	0.71970 0.46400 0.24980 0.02700
C 	C 	0.19750 0.97960 0.28440 -0.09700
H 	H 	0.18370 0.96520 0.28500 0.06300
C 	C 	0.21920 0.97899 0.26278 -0.01000
H 	H 	0.21970 0.96400 0.24980 0.02700
C 	C 	0.19750 0.47960 0.78440 -0.09900
H 	H 	0.18370 0.46520 0.78500 0.06300
C 	C 	0.21920 0.47899 0.76278 -0.01100
H 	H 	0.21970 0.46400 0.74980 0.02700
C 	C 	0.69750 0.02040 0.21560 -0.09800
H 	H 	0.68370 0.03480 0.21500 0.06300
C 	C 	0.71920 0.02101 0.23722 -0.01100
H 	H 	0.71970 0.03600 0.25020 0.02700
C 	C 	0.69750 0.52040 0.71560 -0.09900
H 	H 	0.68370 0.53480 0.71500 0.06300
C 	C 	0.71920 0.52101 0.73722 -0.01100
H 	H 	0.71970 0.53600 0.75020 0.02700
C 	C 	0.19750 0.02040 0.71560 -0.09800
H 	H 	0.18370 0.03480 0.71500 0.06300
C 	C 	0.21920 0.02101 0.73722 -0.01100
H 	H 	0.21970 0.03600 0.75020 0.02700
C 	C 	0.19750 0.52040 0.21560 -0.09900
H 	H 	0.18370 0.53480 0.21500 0.06300
C 	C 	0.21920 0.52101 0.23722 -0.01100
H 	H 	0.21970 0.53600 0.25020 0.02700
C 	C 	0.30250 0.02040 0.78440 -0.09800
H 	H 	0.31630 0.03480 0.78500 0.06300
C 	C 	0.28080 0.02101 0.76278 -0.01100
H 	H 	0.28030 0.03600 0.74980 0.02700
C 	C 	0.30250 0.52040 0.28440 -0.09900
H 	H 	0.31630 0.53480 0.28500 0.06300
C 	C 	0.28080 0.52101 0.26278 -0.01100
H 	H 	0.28030 0.53600 0.24980 0.02700
C 	C 	0.80250 0.02040 0.28440 -0.09800
H 	H 	0.81630 0.03480 0.28500 0.06300
C 	C 	0.78080 0.02101 0.26278 -0.01100
H 	H 	0.78030 0.03600 0.24980 0.02700
C 	C 	0.80250 0.52040 0.78440 -0.09900
H 	H 	0.81630 0.53480 0.78500 0.06300
C 	C 	0.78080 0.52101 0.76278 -0.01000
H 	H 	0.78030 0.53600 0.74980 0.02700
C 	C 	0.97960 0.78440 0.69750 -0.09700
H 	H 	0.96520 0.78500 0.68370 0.06300
C 	C 	0.97899 0.76278 0.71920 -0.01000
H 	H 	0.96400 0.74980 0.71970 0.02700
C 	C 	0.97960 0.28440 0.19750 -0.09700
H 	H 	0.96520 0.28500 0.18370 0.06300
C 	C 	0.97899 0.26278 0.21920 -0.01000
H 	H 	0.96400 0.24980 0.21970 0.02700
C 	C 	0.47960 0.78440 0.19750 -0.09900
H 	H 	0.46520 0.78500 0.18370 0.06300
C 	C 	0.47899 0.76278 0.21920 -0.01100
H 	H 	0.46400 0.74980 0.21970 0.02700
C 	C 	0.47960 0.28440 0.69750 -0.09900
H 	H 	0.46520 0.28500 0.68370 0.06300
C 	C 	0.47899 0.26278 0.71920 -0.01100
H 	H 	0.46400 0.24980 0.71970 0.02700
C 	C 	0.97960 0.21560 0.30250 -0.09700
H 	H 	0.96520 0.21500 0.31630 0.06300
C 	C 	0.97899 0.23722 0.28080 -0.01000
H 	H 	0.96400 0.25020 0.28030 0.02700
C 	C 	0.97960 0.71560 0.80250 -0.09700
H 	H 	0.96520 0.71500 0.81630 0.06300
C 	C 	0.97899 0.73722 0.78080 -0.01000
H 	H 	0.96400 0.75020 0.78030 0.02700
C 	C 	0.47960 0.21560 0.80250 -0.09900
H 	H 	0.46520 0.21500 0.81630 0.06300
C 	C 	0.47899 0.23722 0.78080 -0.01000
H 	H 	0.46400 0.25020 0.78030 0.02700
C 	C 	0.47960 0.71560 0.30250 -0.09900
H 	H 	0.46520 0.71500 0.31630 0.06300
C 	C 	0.47899 0.73722 0.28080 -0.01100
H 	H 	0.46400 0.75020 0.28030 0.02700
C 	C 	0.02040 0.78440 0.30250 -0.09800
H 	H 	0.03480 0.78500 0.31630 0.06300
C 	C 	0.02101 0.76278 0.28080 -0.01100
H 	H 	0.03600 0.74980 0.28030 0.02700
C 	C 	0.02040 0.28440 0.80250 -0.09800
H 	H 	0.03480 0.28500 0.81630 0.06300
C 	C 	0.02101 0.26278 0.78080 -0.01100
H 	H 	0.03600 0.24980 0.78030 0.02700
C 	C 	0.52040 0.78440 0.80250 -0.09900
H 	H 	0.53480 0.78500 0.81630 0.06300
C 	C 	0.52101 0.76278 0.78080 -0.01000
H 	H 	0.53600 0.74980 0.78030 0.02700
C 	C 	0.52040 0.28440 0.30250 -0.09900
H 	H 	0.53480 0.28500 0.31630 0.06300
C 	C 	0.52101 0.26278 0.28080 -0.01100
H 	H 	0.53600 0.24980 0.28030 0.02700
C 	C 	0.02040 0.21560 0.69750 -0.09800
H 	H 	0.03480 0.21500 0.68370 0.06300
C 	C 	0.02101 0.23722 0.71920 -0.01100
H 	H 	0.03600 0.25020 0.71970 0.02700
C 	C 	0.02040 0.71560 0.19750 -0.09800
H 	H 	0.03480 0.71500 0.18370 0.06300
C 	C 	0.02101 0.73722 0.21920 -0.01100
H 	H 	0.03600 0.75020 0.21970 0.02700
C 	C 	0.52040 0.21560 0.19750 -0.09900
H 	H 	0.53480 0.21500 0.18370 0.06300
C 	C 	0.52101 0.23722 0.21920 -0.01100
H 	H 	0.53600 0.25020 0.21970 0.02700
C 	C 	0.52040 0.71560 0.69750 -0.09900
H 	H 	0.53480 0.71500 0.68370 0.06300
C 	C 	0.52101 0.73722 0.71920 -0.01100
H 	H 	0.53600 0.75020 0.71970 0.02700
Co	Co	0.50000 0.14780 -0.00000 1.13000
Co	Co	0.50000 0.20840 -0.00000 1.13300
Co	Co	0.50000 0.64780 0.50000 1.13100
Co	Co	0.50000 0.70840 0.50000 1.13400
Co	Co	0.50000 0.85220 -0.00000 1.13000
Co	Co	0.50000 0.79160 -0.00000 1.13300
Co	Co	0.50000 0.35220 0.50000 1.13100
Co	Co	0.50000 0.29160 0.50000 1.13400
Co	Co	-0.00000 0.85220 0.50000 1.13000
Co	Co	0.00000 0.79160 0.50000 1.13300
Co	Co	-0.00000 0.64780 -0.00000 1.13000
Co	Co	-0.00000 0.70840 -0.00000 1.13300
Co	Co	0.00000 0.50000 0.14780 1.13000
Co	Co	-0.00000 0.50000 0.20840 1.13300
Co	Co	0.00000 -0.00000 0.64780 1.13000
Co	Co	-0.00000 -0.00000 0.70840 1.13300
Co	Co	-0.00000 0.50000 0.85220 1.13000
Co	Co	-0.00000 0.50000 0.79160 1.13300
Co	Co	0.00000 -0.00000 0.35220 1.13000
Co	Co	0.00000 0.00000 0.29160 1.13300
Co	Co	0.50000 -0.00000 0.85220 1.13000
Co	Co	0.50000 0.00000 0.79160 1.13300
Co	Co	0.50000 0.50000 0.35220 1.13100
Co	Co	0.50000 0.50000 0.29160 1.13400
Co	Co	0.14780 -0.00000 0.50000 1.13000
Co	Co	0.20840 -0.00000 0.50000 1.13300
Co	Co	0.64780 0.00000 -0.00000 1.13000
Co	Co	0.70840 0.00000 -0.00000 1.13300
Co	Co	0.64780 0.50000 0.50000 1.13100
Co	Co	0.70840 0.50000 0.50000 1.13400
Co	Co	0.85220 -0.00000 0.50000 1.13000
Co	Co	0.79160 -0.00000 0.50000 1.13300
Co	Co	0.35220 0.00000 -0.00000 1.13000
Co	Co	0.29160 0.00000 -0.00000 1.13300
Co	Co	0.14780 0.50000 -0.00000 1.13000
Co	Co	0.20840 0.50000 -0.00000 1.13300
Co	Co	0.85220 0.50000 -0.00000 1.13000
Co	Co	0.79160 0.50000 -0.00000 1.13300
Co	Co	0.35220 0.50000 0.50000 1.13100
Co	Co	0.29160 0.50000 0.50000 1.13400
Co	Co	0.50000 -0.00000 0.14780 1.13000
Co	Co	0.50000 -0.00000 0.20840 1.13300
Co	Co	0.50000 0.50000 0.64780 1.13100
Co	Co	0.50000 0.50000 0.70840 1.13400
Co	Co	0.00000 0.14780 0.50000 1.13000
Co	Co	-0.00000 0.20840 0.50000 1.13300
Co	Co	-0.00000 0.35220 -0.00000 1.13000
Co	Co	-0.00000 0.29160 -0.00000 1.13300
O 	O 	0.54290 0.15340 -0.00000 -0.46200
O 	O 	0.54250 0.20200 -0.00000 -0.46700
C 	C 	0.55390 0.17780 -0.00000 0.37700
C 	C 	0.58670 0.17790 -0.00000 -0.10000
C 	C 	0.60180 0.15280 -0.00000 -0.00100
H 	H 	0.59220 0.13530 -0.00000 0.04500
C 	C 	0.63140 0.15340 -0.00000 -0.03100
C 	C 	0.64560 0.18020 -0.00000 0.10900
C 	C 	0.63140 0.20560 -0.00000 -0.15700
H 	H 	0.64120 0.22290 -0.00000 0.08400
C 	C 	0.60220 0.20460 -0.00000 0.04900
H 	H 	0.59190 0.22160 -0.00000 0.02300
O 	O 	0.54290 0.65340 0.50000 -0.46200
O 	O 	0.54250 0.70200 0.50000 -0.46600
C 	C 	0.55390 0.67780 0.50000 0.37700
C 	C 	0.58670 0.67790 0.50000 -0.10000
C 	C 	0.60180 0.65280 0.50000 -0.00100
H 	H 	0.59220 0.63530 0.50000 0.04500
C 	C 	0.63140 0.65340 0.50000 -0.03100
C 	C 	0.64560 0.68020 0.50000 0.10900
C 	C 	0.63140 0.70560 0.50000 -0.15700
H 	H 	0.64120 0.72290 0.50000 0.08400
C 	C 	0.60220 0.70460 0.50000 0.04900
H 	H 	0.59190 0.72160 0.50000 0.02300
O 	O 	0.04290 0.15340 0.50000 -0.46200
O 	O 	0.04250 0.20200 0.50000 -0.46600
C 	C 	0.05390 0.17780 0.50000 0.37700
C 	C 	0.08670 0.17790 0.50000 -0.10000
C 	C 	0.10180 0.15280 0.50000 -0.00100
H 	H 	0.09220 0.13530 0.50000 0.04500
C 	C 	0.13140 0.15340 0.50000 -0.03100
C 	C 	0.14560 0.18020 0.50000 0.10900
C 	C 	0.13140 0.20560 0.50000 -0.15700
H 	H 	0.14120 0.22290 0.50000 0.08400
C 	C 	0.10220 0.20460 0.50000 0.05000
H 	H 	0.09190 0.22160 0.50000 0.02300
O 	O 	0.04290 0.65340 -0.00000 -0.46200
O 	O 	0.04250 0.70200 -0.00000 -0.46700
C 	C 	0.05390 0.67780 -0.00000 0.37700
C 	C 	0.08670 0.67790 -0.00000 -0.10000
C 	C 	0.10180 0.65280 -0.00000 -0.00100
H 	H 	0.09220 0.63530 -0.00000 0.04500
C 	C 	0.13140 0.65340 -0.00000 -0.03100
C 	C 	0.14560 0.68020 -0.00000 0.10900
C 	C 	0.13140 0.70560 -0.00000 -0.15700
H 	H 	0.14120 0.72290 -0.00000 0.08400
C 	C 	0.10220 0.70460 -0.00000 0.04900
H 	H 	0.09190 0.72160 -0.00000 0.02300
O 	O 	0.45710 0.84660 -0.00000 -0.46200
O 	O 	0.45750 0.79800 -0.00000 -0.46700
C 	C 	0.44610 0.82220 -0.00000 0.37700
C 	C 	0.41330 0.82210 -0.00000 -0.10000
C 	C 	0.39820 0.84720 -0.00000 -0.00100
H 	H 	0.40780 0.86470 -0.00000 0.04500
C 	C 	0.36860 0.84660 -0.00000 -0.03100
C 	C 	0.35440 0.81980 -0.00000 0.10900
C 	C 	0.36860 0.79440 -0.00000 -0.15700
H 	H 	0.35880 0.77710 -0.00000 0.08400
C 	C 	0.39780 0.79540 -0.00000 0.04900
H 	H 	0.40810 0.77840 -0.00000 0.02300
O 	O 	0.45710 0.34660 0.50000 -0.46200
O 	O 	0.45750 0.29800 0.50000 -0.46600
C 	C 	0.44610 0.32220 0.50000 0.37700
C 	C 	0.41330 0.32210 0.50000 -0.10000
C 	C 	0.39820 0.34720 0.50000 -0.00100
H 	H 	0.40780 0.36470 0.50000 0.04500
C 	C 	0.36860 0.34660 0.50000 -0.03100
C 	C 	0.35440 0.31980 0.50000 0.10900
C 	C 	0.36860 0.29440 0.50000 -0.15700
H 	H 	0.35880 0.27710 0.50000 0.08400
C 	C 	0.39780 0.29540 0.50000 0.04900
H 	H 	0.40810 0.27840 0.50000 0.02300
O 	O 	0.95710 0.84660 0.50000 -0.46000
O 	O 	0.95750 0.79800 0.50000 -0.46500
C 	C 	0.94610 0.82220 0.50000 0.37700
C 	C 	0.91330 0.82210 0.50000 -0.09900
C 	C 	0.89820 0.84720 0.50000 -0.00100
H 	H 	0.90780 0.86470 0.50000 0.04600
C 	C 	0.86860 0.84660 0.50000 -0.03100
C 	C 	0.85440 0.81980 0.50000 0.10900
C 	C 	0.86860 0.79440 0.50000 -0.15700
H 	H 	0.85880 0.77710 0.50000 0.08400
C 	C 	0.89780 0.79540 0.50000 0.04900
H 	H 	0.90810 0.77840 0.50000 0.02400
O 	O 	0.95710 0.34660 -0.00000 -0.46100
O 	O 	0.95750 0.29800 -0.00000 -0.46600
C 	C 	0.94610 0.32220 -0.00000 0.37700
C 	C 	0.91330 0.32210 -0.00000 -0.10000
C 	C 	0.89820 0.34720 -0.00000 -0.00100
H 	H 	0.90780 0.36470 -0.00000 0.04500
C 	C 	0.86860 0.34660 -0.00000 -0.03100
C 	C 	0.85440 0.31980 -0.00000 0.10900
C 	C 	0.86860 0.29440 -0.00000 -0.15700
H 	H 	0.85880 0.27710 -0.00000 0.08400
C 	C 	0.89780 0.29540 -0.00000 0.04900
H 	H 	0.90810 0.27840 -0.00000 0.02300
O 	O 	0.45710 0.15340 -0.00000 -0.46200
O 	O 	0.45750 0.20200 -0.00000 -0.46700
C 	C 	0.44610 0.17780 -0.00000 0.37700
C 	C 	0.41330 0.17790 -0.00000 -0.10000
C 	C 	0.39820 0.15280 -0.00000 -0.00100
H 	H 	0.40780 0.13530 -0.00000 0.04500
C 	C 	0.36860 0.15340 -0.00000 -0.03100
C 	C 	0.35440 0.18020 -0.00000 0.10900
C 	C 	0.36860 0.20560 -0.00000 -0.15700
H 	H 	0.35880 0.22290 -0.00000 0.08400
C 	C 	0.39780 0.20460 -0.00000 0.04900
H 	H 	0.40810 0.22160 -0.00000 0.02300
O 	O 	0.45710 0.65340 0.50000 -0.46200
O 	O 	0.45750 0.70200 0.50000 -0.46600
C 	C 	0.44610 0.67780 0.50000 0.37700
C 	C 	0.41330 0.67790 0.50000 -0.10000
C 	C 	0.39820 0.65280 0.50000 -0.00100
H 	H 	0.40780 0.63530 0.50000 0.04500
C 	C 	0.36860 0.65340 0.50000 -0.03100
C 	C 	0.35440 0.68020 0.50000 0.10900
C 	C 	0.36860 0.70560 0.50000 -0.15700
H 	H 	0.35880 0.72290 0.50000 0.08400
C 	C 	0.39780 0.70460 0.50000 0.04900
H 	H 	0.40810 0.72160 0.50000 0.02300
O 	O 	0.95710 0.15340 0.50000 -0.46100
O 	O 	0.95750 0.20200 0.50000 -0.46500
C 	C 	0.94610 0.17780 0.50000 0.37700
C 	C 	0.91330 0.17790 0.50000 -0.09900
C 	C 	0.89820 0.15280 0.50000 -0.00100
H 	H 	0.90780 0.13530 0.50000 0.04500
C 	C 	0.86860 0.15340 0.50000 -0.03100
C 	C 	0.85440 0.18020 0.50000 0.10900
C 	C 	0.86860 0.20560 0.50000 -0.15700
H 	H 	0.85880 0.22290 0.50000 0.08400
C 	C 	0.89780 0.20460 0.50000 0.04900
H 	H 	0.90810 0.22160 0.50000 0.02400
O 	O 	0.95710 0.65340 -0.00000 -0.46100
O 	O 	0.95750 0.70200 -0.00000 -0.46600
C 	C 	0.94610 0.67780 -0.00000 0.37700
C 	C 	0.91330 0.67790 -0.00000 -0.10000
C 	C 	0.89820 0.65280 -0.00000 -0.00100
H 	H 	0.90780 0.63530 -0.00000 0.04500
C 	C 	0.86860 0.65340 -0.00000 -0.03100
C 	C 	0.85440 0.68020 -0.00000 0.10900
C 	C 	0.86860 0.70560 -0.00000 -0.15700
H 	H 	0.85880 0.72290 -0.00000 0.08400
C 	C 	0.89780 0.70460 -0.00000 0.04900
H 	H 	0.90810 0.72160 -0.00000 0.02300
O 	O 	0.54290 0.84660 -0.00000 -0.46200
O 	O 	0.54250 0.79800 -0.00000 -0.46700
C 	C 	0.55390 0.82220 -0.00000 0.37700
C 	C 	0.58670 0.82210 -0.00000 -0.10000
C 	C 	0.60180 0.84720 -0.00000 -0.00100
H 	H 	0.59220 0.86470 -0.00000 0.04500
C 	C 	0.63140 0.84660 -0.00000 -0.03100
C 	C 	0.64560 0.81980 -0.00000 0.10900
C 	C 	0.63140 0.79440 -0.00000 -0.15700
H 	H 	0.64120 0.77710 -0.00000 0.08400
C 	C 	0.60220 0.79540 -0.00000 0.04900
H 	H 	0.59190 0.77840 -0.00000 0.02300
O 	O 	0.54290 0.34660 0.50000 -0.46200
O 	O 	0.54250 0.29800 0.50000 -0.46600
C 	C 	0.55390 0.32220 0.50000 0.37700
C 	C 	0.58670 0.32210 0.50000 -0.10000
C 	C 	0.60180 0.34720 0.50000 -0.00100
H 	H 	0.59220 0.36470 0.50000 0.04500
C 	C 	0.63140 0.34660 0.50000 -0.03100
C 	C 	0.64560 0.31980 0.50000 0.10900
C 	C 	0.63140 0.29440 0.50000 -0.15700
H 	H 	0.64120 0.27710 0.50000 0.08400
C 	C 	0.60220 0.29540 0.50000 0.04900
H 	H 	0.59190 0.27840 0.50000 0.02300
O 	O 	0.04290 0.84660 0.50000 -0.46200
O 	O 	0.04250 0.79800 0.50000 -0.46600
C 	C 	0.05390 0.82220 0.50000 0.37700
C 	C 	0.08670 0.82210 0.50000 -0.10000
C 	C 	0.10180 0.84720 0.50000 -0.00100
H 	H 	0.09220 0.86470 0.50000 0.04500
C 	C 	0.13140 0.84660 0.50000 -0.03100
C 	C 	0.14560 0.81980 0.50000 0.10900
C 	C 	0.13140 0.79440 0.50000 -0.15700
H 	H 	0.14120 0.77710 0.50000 0.08400
C 	C 	0.10220 0.79540 0.50000 0.05000
H 	H 	0.09190 0.77840 0.50000 0.02300
O 	O 	0.04290 0.34660 -0.00000 -0.46200
O 	O 	0.04250 0.29800 -0.00000 -0.46700
C 	C 	0.05390 0.32220 -0.00000 0.37700
C 	C 	0.08670 0.32210 -0.00000 -0.10000
C 	C 	0.10180 0.34720 -0.00000 -0.00100
H 	H 	0.09220 0.36470 -0.00000 0.04500
C 	C 	0.13140 0.34660 -0.00000 -0.03100
C 	C 	0.14560 0.31980 -0.00000 0.10900
C 	C 	0.13140 0.29440 -0.00000 -0.15700
H 	H 	0.14120 0.27710 -0.00000 0.08400
C 	C 	0.10220 0.29540 -0.00000 0.04900
H 	H 	0.09190 0.27840 -0.00000 0.02300
O 	O 	0.00000 0.54290 0.15340 -0.46200
O 	O 	-0.00000 0.54250 0.20200 -0.46700
C 	C 	0.00000 0.55390 0.17780 0.37700
C 	C 	0.00000 0.58670 0.17790 -0.10000
C 	C 	0.00000 0.60180 0.15280 -0.00100
H 	H 	0.00000 0.59220 0.13530 0.04500
C 	C 	0.00000 0.63140 0.15340 -0.03100
C 	C 	0.00000 0.64560 0.18020 0.10900
C 	C 	-0.00000 0.63140 0.20560 -0.15700
H 	H 	0.00000 0.64120 0.22290 0.08400
C 	C 	0.00000 0.60220 0.20460 0.04900
H 	H 	0.00000 0.59190 0.22160 0.02300
O 	O 	-0.00000 0.04290 0.65340 -0.46200
O 	O 	-0.00000 0.04250 0.70200 -0.46700
C 	C 	0.00000 0.05390 0.67780 0.37700
C 	C 	0.00000 0.08670 0.67790 -0.10000
C 	C 	0.00000 0.10180 0.65280 -0.00100
H 	H 	0.00000 0.09220 0.63530 0.04500
C 	C 	-0.00000 0.13140 0.65340 -0.03100
C 	C 	0.00000 0.14560 0.68020 0.10900
C 	C 	-0.00000 0.13140 0.70560 -0.15700
H 	H 	0.00000 0.14120 0.72290 0.08400
C 	C 	-0.00000 0.10220 0.70460 0.04900
H 	H 	0.00000 0.09190 0.72160 0.02300
O 	O 	0.50000 0.54290 0.65340 -0.46200
O 	O 	0.50000 0.54250 0.70200 -0.46600
C 	C 	0.50000 0.55390 0.67780 0.37700
C 	C 	0.50000 0.58670 0.67790 -0.10000
C 	C 	0.50000 0.60180 0.65280 -0.00100
H 	H 	0.50000 0.59220 0.63530 0.04500
C 	C 	0.50000 0.63140 0.65340 -0.03100
C 	C 	0.50000 0.64560 0.68020 0.10900
C 	C 	0.50000 0.63140 0.70560 -0.15700
H 	H 	0.50000 0.64120 0.72290 0.08400
C 	C 	0.50000 0.60220 0.70460 0.04900
H 	H 	0.50000 0.59190 0.72160 0.02300
O 	O 	0.50000 0.04290 0.15340 -0.46200
O 	O 	0.50000 0.04250 0.20200 -0.46600
C 	C 	0.50000 0.05390 0.17780 0.37700
C 	C 	0.50000 0.08670 0.17790 -0.10000
C 	C 	0.50000 0.10180 0.15280 -0.00100
H 	H 	0.50000 0.09220 0.13530 0.04500
C 	C 	0.50000 0.13140 0.15340 -0.03100
C 	C 	0.50000 0.14560 0.18020 0.10900
C 	C 	0.50000 0.13140 0.20560 -0.15700
H 	H 	0.50000 0.14120 0.22290 0.08400
C 	C 	0.50000 0.10220 0.20460 0.05000
H 	H 	0.50000 0.09190 0.22160 0.02300
O 	O 	0.00000 0.45710 0.84660 -0.46200
O 	O 	-0.00000 0.45750 0.79800 -0.46700
C 	C 	0.00000 0.44610 0.82220 0.37700
C 	C 	-0.00000 0.41330 0.82210 -0.10000
C 	C 	0.00000 0.39820 0.84720 -0.00100
H 	H 	-0.00000 0.40780 0.86470 0.04500
C 	C 	0.00000 0.36860 0.84660 -0.03100
C 	C 	-0.00000 0.35440 0.81980 0.10900
C 	C 	0.00000 0.36860 0.79440 -0.15700
H 	H 	0.00000 0.35880 0.77710 0.08400
C 	C 	-0.00000 0.39780 0.79540 0.04900
H 	H 	-0.00000 0.40810 0.77840 0.02300
O 	O 	-0.00000 0.95710 0.34660 -0.46100
O 	O 	-0.00000 0.95750 0.29800 -0.46600
C 	C 	0.00000 0.94610 0.32220 0.37700
C 	C 	0.00000 0.91330 0.32210 -0.10000
C 	C 	0.00000 0.89820 0.34720 -0.00100
H 	H 	-0.00000 0.90780 0.36470 0.04500
C 	C 	0.00000 0.86860 0.34660 -0.03100
C 	C 	0.00000 0.85440 0.31980 0.10900
C 	C 	0.00000 0.86860 0.29440 -0.15700
H 	H 	0.00000 0.85880 0.27710 0.08400
C 	C 	-0.00000 0.89780 0.29540 0.04900
H 	H 	-0.00000 0.90810 0.27840 0.02300
O 	O 	0.50000 0.45710 0.34660 -0.46200
O 	O 	0.50000 0.45750 0.29800 -0.46600
C 	C 	0.50000 0.44610 0.32220 0.37700
C 	C 	0.50000 0.41330 0.32210 -0.10000
C 	C 	0.50000 0.39820 0.34720 -0.00100
H 	H 	0.50000 0.40780 0.36470 0.04500
C 	C 	0.50000 0.36860 0.34660 -0.03100
C 	C 	0.50000 0.35440 0.31980 0.10900
C 	C 	0.50000 0.36860 0.29440 -0.15700
H 	H 	0.50000 0.35880 0.27710 0.08400
C 	C 	0.50000 0.39780 0.29540 0.04900
H 	H 	0.50000 0.40810 0.27840 0.02300
O 	O 	0.50000 0.95710 0.84660 -0.46000
O 	O 	0.50000 0.95750 0.79800 -0.46500
C 	C 	0.50000 0.94610 0.82220 0.37700
C 	C 	0.50000 0.91330 0.82210 -0.09900
C 	C 	0.50000 0.89820 0.84720 -0.00100
H 	H 	0.50000 0.90780 0.86470 0.04600
C 	C 	0.50000 0.86860 0.84660 -0.03100
C 	C 	0.50000 0.85440 0.81980 0.10900
C 	C 	0.50000 0.86860 0.79440 -0.15700
H 	H 	0.50000 0.85880 0.77710 0.08400
C 	C 	0.50000 0.89780 0.79540 0.04900
H 	H 	0.50000 0.90810 0.77840 0.02400
O 	O 	-0.00000 0.45710 0.15340 -0.46200
O 	O 	-0.00000 0.45750 0.20200 -0.46700
C 	C 	0.00000 0.44610 0.17780 0.37700
C 	C 	0.00000 0.41330 0.17790 -0.10000
C 	C 	0.00000 0.39820 0.15280 -0.00100
H 	H 	0.00000 0.40780 0.13530 0.04500
C 	C 	0.00000 0.36860 0.15340 -0.03100
C 	C 	0.00000 0.35440 0.18020 0.10900
C 	C 	0.00000 0.36860 0.20560 -0.15700
H 	H 	-0.00000 0.35880 0.22290 0.08400
C 	C 	0.00000 0.39780 0.20460 0.04900
H 	H 	-0.00000 0.40810 0.22160 0.02300
O 	O 	-0.00000 0.95710 0.65340 -0.46100
O 	O 	0.00000 0.95750 0.70200 -0.46600
C 	C 	0.00000 0.94610 0.67780 0.37700
C 	C 	0.00000 0.91330 0.67790 -0.10000
C 	C 	0.00000 0.89820 0.65280 -0.00100
H 	H 	0.00000 0.90780 0.63530 0.04500
C 	C 	-0.00000 0.86860 0.65340 -0.03100
C 	C 	0.00000 0.85440 0.68020 0.10900
C 	C 	0.00000 0.86860 0.70560 -0.15700
H 	H 	0.00000 0.85880 0.72290 0.08400
C 	C 	0.00000 0.89780 0.70460 0.04900
H 	H 	-0.00000 0.90810 0.72160 0.02300
O 	O 	0.50000 0.45710 0.65340 -0.46200
O 	O 	0.50000 0.45750 0.70200 -0.46600
C 	C 	0.50000 0.44610 0.67780 0.37700
C 	C 	0.50000 0.41330 0.67790 -0.10000
C 	C 	0.50000 0.39820 0.65280 -0.00100
H 	H 	0.50000 0.40780 0.63530 0.04500
C 	C 	0.50000 0.36860 0.65340 -0.03100
C 	C 	0.50000 0.35440 0.68020 0.10900
C 	C 	0.50000 0.36860 0.70560 -0.15700
H 	H 	0.50000 0.35880 0.72290 0.08400
C 	C 	0.50000 0.39780 0.70460 0.04900
H 	H 	0.50000 0.40810 0.72160 0.02300
O 	O 	0.50000 0.95710 0.15340 -0.46100
O 	O 	0.50000 0.95750 0.20200 -0.46500
C 	C 	0.50000 0.94610 0.17780 0.37700
C 	C 	0.50000 0.91330 0.17790 -0.09900
C 	C 	0.50000 0.89820 0.15280 -0.00100
H 	H 	0.50000 0.90780 0.13530 0.04500
C 	C 	0.50000 0.86860 0.15340 -0.03100
C 	C 	0.50000 0.85440 0.18020 0.10900
C 	C 	0.50000 0.86860 0.20560 -0.15700
H 	H 	0.50000 0.85880 0.22290 0.08400
C 	C 	0.50000 0.89780 0.20460 0.04900
H 	H 	0.50000 0.90810 0.22160 0.02400
O 	O 	0.00000 0.54290 0.84660 -0.46200
O 	O 	0.00000 0.54250 0.79800 -0.46700
C 	C 	-0.00000 0.55390 0.82220 0.37700
C 	C 	0.00000 0.58670 0.82210 -0.10000
C 	C 	-0.00000 0.60180 0.84720 -0.00100
H 	H 	-0.00000 0.59220 0.86470 0.04500
C 	C 	0.00000 0.63140 0.84660 -0.03100
C 	C 	-0.00000 0.64560 0.81980 0.10900
C 	C 	-0.00000 0.63140 0.79440 -0.15700
H 	H 	-0.00000 0.64120 0.77710 0.08400
C 	C 	-0.00000 0.60220 0.79540 0.04900
H 	H 	-0.00000 0.59190 0.77840 0.02300
O 	O 	0.00000 0.04290 0.34660 -0.46200
O 	O 	0.00000 0.04250 0.29800 -0.46700
C 	C 	0.00000 0.05390 0.32220 0.37700
C 	C 	0.00000 0.08670 0.32210 -0.10000
C 	C 	0.00000 0.10180 0.34720 -0.00100
H 	H 	-0.00000 0.09220 0.36470 0.04500
C 	C 	0.00000 0.13140 0.34660 -0.03100
C 	C 	0.00000 0.14560 0.31980 0.10900
C 	C 	-0.00000 0.13140 0.29440 -0.15700
H 	H 	-0.00000 0.14120 0.27710 0.08400
C 	C 	-0.00000 0.10220 0.29540 0.04900
H 	H 	0.00000 0.09190 0.27840 0.02300
O 	O 	0.50000 0.54290 0.34660 -0.46200
O 	O 	0.50000 0.54250 0.29800 -0.46600
C 	C 	0.50000 0.55390 0.32220 0.37700
C 	C 	0.50000 0.58670 0.32210 -0.10000
C 	C 	0.50000 0.60180 0.34720 -0.00100
H 	H 	0.50000 0.59220 0.36470 0.04500
C 	C 	0.50000 0.63140 0.34660 -0.03100
C 	C 	0.50000 0.64560 0.31980 0.10900
C 	C 	0.50000 0.63140 0.29440 -0.15700
H 	H 	0.50000 0.64120 0.27710 0.08400
C 	C 	0.50000 0.60220 0.29540 0.04900
H 	H 	0.50000 0.59190 0.27840 0.02300
O 	O 	0.50000 0.04290 0.84660 -0.46200
O 	O 	0.50000 0.04250 0.79800 -0.46600
C 	C 	0.50000 0.05390 0.82220 0.37700
C 	C 	0.50000 0.08670 0.82210 -0.10000
C 	C 	0.50000 0.10180 0.84720 -0.00100
H 	H 	0.50000 0.09220 0.86470 0.04500
C 	C 	0.50000 0.13140 0.84660 -0.03100
C 	C 	0.50000 0.14560 0.81980 0.10900
C 	C 	0.50000 0.13140 0.79440 -0.15700
H 	H 	0.50000 0.14120 0.77710 0.08400
C 	C 	0.50000 0.10220 0.79540 0.05000
H 	H 	0.50000 0.09190 0.77840 0.02300
O 	O 	0.15340 -0.00000 0.54290 -0.46200
O 	O 	0.20200 0.00000 0.54250 -0.46700
C 	C 	0.17780 -0.00000 0.55390 0.37700
C 	C 	0.17790 -0.00000 0.58670 -0.10000
C 	C 	0.15280 -0.00000 0.60180 -0.00100
H 	H 	0.13530 -0.00000 0.59220 0.04500
C 	C 	0.15340 0.00000 0.63140 -0.03100
C 	C 	0.18020 0.00000 0.64560 0.10900
C 	C 	0.20560 0.00000 0.63140 -0.15700
H 	H 	0.22290 0.00000 0.64120 0.08400
C 	C 	0.20460 -0.00000 0.60220 0.04900
H 	H 	0.22160 0.00000 0.59190 0.02300
O 	O 	0.15340 0.50000 0.04290 -0.46200
O 	O 	0.20200 0.50000 0.04250 -0.46600
C 	C 	0.17780 0.50000 0.05390 0.37700
C 	C 	0.17790 0.50000 0.08670 -0.10000
C 	C 	0.15280 0.50000 0.10180 -0.00100
H 	H 	0.13530 0.50000 0.09220 0.04500
C 	C 	0.15340 0.50000 0.13140 -0.03100
C 	C 	0.18020 0.50000 0.14560 0.10900
C 	C 	0.20560 0.50000 0.13140 -0.15700
H 	H 	0.22290 0.50000 0.14120 0.08400
C 	C 	0.20460 0.50000 0.10220 0.05000
H 	H 	0.22160 0.50000 0.09190 0.02300
O 	O 	0.65340 -0.00000 0.04290 -0.46200
O 	O 	0.70200 0.00000 0.04250 -0.46700
C 	C 	0.67780 0.00000 0.05390 0.37700
C 	C 	0.67790 0.00000 0.08670 -0.10000
C 	C 	0.65280 -0.00000 0.10180 -0.00100
H 	H 	0.63530 0.00000 0.09220 0.04500
C 	C 	0.65340 -0.00000 0.13140 -0.03100
C 	C 	0.68020 0.00000 0.14560 0.10900
C 	C 	0.70560 -0.00000 0.13140 -0.15700
H 	H 	0.72290 -0.00000 0.14120 0.08400
C 	C 	0.70460 0.00000 0.10220 0.04900
H 	H 	0.72160 -0.00000 0.09190 0.02300
O 	O 	0.65340 0.50000 0.54290 -0.46200
O 	O 	0.70200 0.50000 0.54250 -0.46600
C 	C 	0.67780 0.50000 0.55390 0.37700
C 	C 	0.67790 0.50000 0.58670 -0.10000
C 	C 	0.65280 0.50000 0.60180 -0.00100
H 	H 	0.63530 0.50000 0.59220 0.04500
C 	C 	0.65340 0.50000 0.63140 -0.03100
C 	C 	0.68020 0.50000 0.64560 0.10900
C 	C 	0.70560 0.50000 0.63140 -0.15700
H 	H 	0.72290 0.50000 0.64120 0.08400
C 	C 	0.70460 0.50000 0.60220 0.04900
H 	H 	0.72160 0.50000 0.59190 0.02300
O 	O 	0.84660 -0.00000 0.45710 -0.46200
O 	O 	0.79800 -0.00000 0.45750 -0.46700
C 	C 	0.82220 -0.00000 0.44610 0.37700
C 	C 	0.82210 -0.00000 0.41330 -0.10000
C 	C 	0.84720 0.00000 0.39820 -0.00100
H 	H 	0.86470 0.00000 0.40780 0.04500
C 	C 	0.84660 0.00000 0.36860 -0.03100
C 	C 	0.81980 0.00000 0.35440 0.10900
C 	C 	0.79440 0.00000 0.36860 -0.15700
H 	H 	0.77710 -0.00000 0.35880 0.08400
C 	C 	0.79540 -0.00000 0.39780 0.04900
H 	H 	0.77840 -0.00000 0.40810 0.02300
O 	O 	0.84660 0.50000 0.95710 -0.46000
O 	O 	0.79800 0.50000 0.95750 -0.46500
C 	C 	0.82220 0.50000 0.94610 0.37700
C 	C 	0.82210 0.50000 0.91330 -0.09900
C 	C 	0.84720 0.50000 0.89820 -0.00100
H 	H 	0.86470 0.50000 0.90780 0.04600
C 	C 	0.84660 0.50000 0.86860 -0.03100
C 	C 	0.81980 0.50000 0.85440 0.10900
C 	C 	0.79440 0.50000 0.86860 -0.15700
H 	H 	0.77710 0.50000 0.85880 0.08400
C 	C 	0.79540 0.50000 0.89780 0.04900
H 	H 	0.77840 0.50000 0.90810 0.02400
O 	O 	0.34660 -0.00000 0.95710 -0.46100
O 	O 	0.29800 -0.00000 0.95750 -0.46600
C 	C 	0.32220 -0.00000 0.94610 0.37700
C 	C 	0.32210 -0.00000 0.91330 -0.10000
C 	C 	0.34720 -0.00000 0.89820 -0.00100
H 	H 	0.36470 -0.00000 0.90780 0.04500
C 	C 	0.34660 -0.00000 0.86860 -0.03100
C 	C 	0.31980 0.00000 0.85440 0.10900
C 	C 	0.29440 -0.00000 0.86860 -0.15700
H 	H 	0.27710 -0.00000 0.85880 0.08400
C 	C 	0.29540 -0.00000 0.89780 0.04900
H 	H 	0.27840 -0.00000 0.90810 0.02300
O 	O 	0.34660 0.50000 0.45710 -0.46200
O 	O 	0.29800 0.50000 0.45750 -0.46600
C 	C 	0.32220 0.50000 0.44610 0.37700
C 	C 	0.32210 0.50000 0.41330 -0.10000
C 	C 	0.34720 0.50000 0.39820 -0.00100
H 	H 	0.36470 0.50000 0.40780 0.04500
C 	C 	0.34660 0.50000 0.36860 -0.03100
C 	C 	0.31980 0.50000 0.35440 0.10900
C 	C 	0.29440 0.50000 0.36860 -0.15700
H 	H 	0.27710 0.50000 0.35880 0.08400
C 	C 	0.29540 0.50000 0.39780 0.04900
H 	H 	0.27840 0.50000 0.40810 0.02300
O 	O 	0.15340 -0.00000 0.45710 -0.46200
O 	O 	0.20200 -0.00000 0.45750 -0.46700
C 	C 	0.17780 -0.00000 0.44610 0.37700
C 	C 	0.17790 -0.00000 0.41330 -0.10000
C 	C 	0.15280 0.00000 0.39820 -0.00100
H 	H 	0.13530 0.00000 0.40780 0.04500
C 	C 	0.15340 0.00000 0.36860 -0.03100
C 	C 	0.18020 0.00000 0.35440 0.10900
C 	C 	0.20560 0.00000 0.36860 -0.15700
H 	H 	0.22290 -0.00000 0.35880 0.08400
C 	C 	0.20460 -0.00000 0.39780 0.04900
H 	H 	0.22160 -0.00000 0.40810 0.02300
O 	O 	0.15340 0.50000 0.95710 -0.46100
O 	O 	0.20200 0.50000 0.95750 -0.46500
C 	C 	0.17780 0.50000 0.94610 0.37700
C 	C 	0.17790 0.50000 0.91330 -0.09900
C 	C 	0.15280 0.50000 0.89820 -0.00100
H 	H 	0.13530 0.50000 0.90780 0.04500
C 	C 	0.15340 0.50000 0.86860 -0.03100
C 	C 	0.18020 0.50000 0.85440 0.10900
C 	C 	0.20560 0.50000 0.86860 -0.15700
H 	H 	0.22290 0.50000 0.85880 0.08400
C 	C 	0.20460 0.50000 0.89780 0.04900
H 	H 	0.22160 0.50000 0.90810 0.02400
O 	O 	0.65340 -0.00000 0.95710 -0.46100
O 	O 	0.70200 -0.00000 0.95750 -0.46600
C 	C 	0.67780 -0.00000 0.94610 0.37700
C 	C 	0.67790 -0.00000 0.91330 -0.10000
C 	C 	0.65280 -0.00000 0.89820 -0.00100
H 	H 	0.63530 -0.00000 0.90780 0.04500
C 	C 	0.65340 -0.00000 0.86860 -0.03100
C 	C 	0.68020 0.00000 0.85440 0.10900
C 	C 	0.70560 -0.00000 0.86860 -0.15700
H 	H 	0.72290 -0.00000 0.85880 0.08400
C 	C 	0.70460 -0.00000 0.89780 0.04900
H 	H 	0.72160 -0.00000 0.90810 0.02300
O 	O 	0.65340 0.50000 0.45710 -0.46200
O 	O 	0.70200 0.50000 0.45750 -0.46600
C 	C 	0.67780 0.50000 0.44610 0.37700
C 	C 	0.67790 0.50000 0.41330 -0.10000
C 	C 	0.65280 0.50000 0.39820 -0.00100
H 	H 	0.63530 0.50000 0.40780 0.04500
C 	C 	0.65340 0.50000 0.36860 -0.03100
C 	C 	0.68020 0.50000 0.35440 0.10900
C 	C 	0.70560 0.50000 0.36860 -0.15700
H 	H 	0.72290 0.50000 0.35880 0.08400
C 	C 	0.70460 0.50000 0.39780 0.04900
H 	H 	0.72160 0.50000 0.40810 0.02300
O 	O 	0.84660 -0.00000 0.54290 -0.46200
O 	O 	0.79800 0.00000 0.54250 -0.46700
C 	C 	0.82220 -0.00000 0.55390 0.37700
C 	C 	0.82210 -0.00000 0.58670 -0.10000
C 	C 	0.84720 -0.00000 0.60180 -0.00100
H 	H 	0.86470 -0.00000 0.59220 0.04500
C 	C 	0.84660 0.00000 0.63140 -0.03100
C 	C 	0.81980 0.00000 0.64560 0.10900
C 	C 	0.79440 0.00000 0.63140 -0.15700
H 	H 	0.77710 0.00000 0.64120 0.08400
C 	C 	0.79540 -0.00000 0.60220 0.04900
H 	H 	0.77840 0.00000 0.59190 0.02300
O 	O 	0.84660 0.50000 0.04290 -0.46200
O 	O 	0.79800 0.50000 0.04250 -0.46600
C 	C 	0.82220 0.50000 0.05390 0.37700
C 	C 	0.82210 0.50000 0.08670 -0.10000
C 	C 	0.84720 0.50000 0.10180 -0.00100
H 	H 	0.86470 0.50000 0.09220 0.04500
C 	C 	0.84660 0.50000 0.13140 -0.03100
C 	C 	0.81980 0.50000 0.14560 0.10900
C 	C 	0.79440 0.50000 0.13140 -0.15700
H 	H 	0.77710 0.50000 0.14120 0.08400
C 	C 	0.79540 0.50000 0.10220 0.05000
H 	H 	0.77840 0.50000 0.09190 0.02300
O 	O 	0.34660 -0.00000 0.04290 -0.46200
O 	O 	0.29800 0.00000 0.04250 -0.46700
C 	C 	0.32220 0.00000 0.05390 0.37700
C 	C 	0.32210 0.00000 0.08670 -0.10000
C 	C 	0.34720 -0.00000 0.10180 -0.00100
H 	H 	0.36470 0.00000 0.09220 0.04500
C 	C 	0.34660 -0.00000 0.13140 -0.03100
C 	C 	0.31980 0.00000 0.14560 0.10900
C 	C 	0.29440 -0.00000 0.13140 -0.15700
H 	H 	0.27710 -0.00000 0.14120 0.08400
C 	C 	0.29540 0.00000 0.10220 0.04900
H 	H 	0.27840 -0.00000 0.09190 0.02300
O 	O 	0.34660 0.50000 0.54290 -0.46200
O 	O 	0.29800 0.50000 0.54250 -0.46600
C 	C 	0.32220 0.50000 0.55390 0.37700
C 	C 	0.32210 0.50000 0.58670 -0.10000
C 	C 	0.34720 0.50000 0.60180 -0.00100
H 	H 	0.36470 0.50000 0.59220 0.04500
C 	C 	0.34660 0.50000 0.63140 -0.03100
C 	C 	0.31980 0.50000 0.64560 0.10900
C 	C 	0.29440 0.50000 0.63140 -0.15700
H 	H 	0.27710 0.50000 0.64120 0.08400
C 	C 	0.29540 0.50000 0.60220 0.04900
H 	H 	0.27840 0.50000 0.59190 0.02300
O 	O 	0.15340 0.54290 -0.00000 -0.46200
O 	O 	0.20200 0.54250 -0.00000 -0.46700
C 	C 	0.17780 0.55390 -0.00000 0.37700
C 	C 	0.17790 0.58670 -0.00000 -0.10000
C 	C 	0.15280 0.60180 -0.00000 -0.00100
H 	H 	0.13530 0.59220 -0.00000 0.04500
C 	C 	0.15340 0.63140 -0.00000 -0.03100
C 	C 	0.18020 0.64560 -0.00000 0.10900
C 	C 	0.20560 0.63140 -0.00000 -0.15700
H 	H 	0.22290 0.64120 -0.00000 0.08400
C 	C 	0.20460 0.60220 -0.00000 0.04900
H 	H 	0.22160 0.59190 -0.00000 0.02300
O 	O 	0.15340 0.04290 0.50000 -0.46200
O 	O 	0.20200 0.04250 0.50000 -0.46600
C 	C 	0.17780 0.05390 0.50000 0.37700
C 	C 	0.17790 0.08670 0.50000 -0.10000
C 	C 	0.15280 0.10180 0.50000 -0.00100
H 	H 	0.13530 0.09220 0.50000 0.04500
C 	C 	0.15340 0.13140 0.50000 -0.03100
C 	C 	0.18020 0.14560 0.50000 0.10900
C 	C 	0.20560 0.13140 0.50000 -0.15700
H 	H 	0.22290 0.14120 0.50000 0.08400
C 	C 	0.20460 0.10220 0.50000 0.05000
H 	H 	0.22160 0.09190 0.50000 0.02300
O 	O 	0.65340 0.54290 0.50000 -0.46200
O 	O 	0.70200 0.54250 0.50000 -0.46600
C 	C 	0.67780 0.55390 0.50000 0.37700
C 	C 	0.67790 0.58670 0.50000 -0.10000
C 	C 	0.65280 0.60180 0.50000 -0.00100
H 	H 	0.63530 0.59220 0.50000 0.04500
C 	C 	0.65340 0.63140 0.50000 -0.03100
C 	C 	0.68020 0.64560 0.50000 0.10900
C 	C 	0.70560 0.63140 0.50000 -0.15700
H 	H 	0.72290 0.64120 0.50000 0.08400
C 	C 	0.70460 0.60220 0.50000 0.04900
H 	H 	0.72160 0.59190 0.50000 0.02300
O 	O 	0.65340 0.04290 -0.00000 -0.46200
O 	O 	0.70200 0.04250 -0.00000 -0.46700
C 	C 	0.67780 0.05390 -0.00000 0.37700
C 	C 	0.67790 0.08670 -0.00000 -0.10000
C 	C 	0.65280 0.10180 -0.00000 -0.00100
H 	H 	0.63530 0.09220 -0.00000 0.04500
C 	C 	0.65340 0.13140 -0.00000 -0.03100
C 	C 	0.68020 0.14560 -0.00000 0.10900
C 	C 	0.70560 0.13140 -0.00000 -0.15700
H 	H 	0.72290 0.14120 -0.00000 0.08400
C 	C 	0.70460 0.10220 -0.00000 0.04900
H 	H 	0.72160 0.09190 -0.00000 0.02300
O 	O 	0.84660 0.45710 -0.00000 -0.46200
O 	O 	0.79800 0.45750 -0.00000 -0.46700
C 	C 	0.82220 0.44610 -0.00000 0.37700
C 	C 	0.82210 0.41330 -0.00000 -0.10000
C 	C 	0.84720 0.39820 -0.00000 -0.00100
H 	H 	0.86470 0.40780 -0.00000 0.04500
C 	C 	0.84660 0.36860 -0.00000 -0.03100
C 	C 	0.81980 0.35440 -0.00000 0.10900
C 	C 	0.79440 0.36860 -0.00000 -0.15700
H 	H 	0.77710 0.35880 -0.00000 0.08400
C 	C 	0.79540 0.39780 -0.00000 0.04900
H 	H 	0.77840 0.40810 -0.00000 0.02300
O 	O 	0.84660 0.95710 0.50000 -0.46000
O 	O 	0.79800 0.95750 0.50000 -0.46500
C 	C 	0.82220 0.94610 0.50000 0.37700
C 	C 	0.82210 0.91330 0.50000 -0.09900
C 	C 	0.84720 0.89820 0.50000 -0.00100
H 	H 	0.86470 0.90780 0.50000 0.04600
C 	C 	0.84660 0.86860 0.50000 -0.03100
C 	C 	0.81980 0.85440 0.50000 0.10900
C 	C 	0.79440 0.86860 0.50000 -0.15700
H 	H 	0.77710 0.85880 0.50000 0.08400
C 	C 	0.79540 0.89780 0.50000 0.04900
H 	H 	0.77840 0.90810 0.50000 0.02400
O 	O 	0.34660 0.45710 0.50000 -0.46200
O 	O 	0.29800 0.45750 0.50000 -0.46600
C 	C 	0.32220 0.44610 0.50000 0.37700
C 	C 	0.32210 0.41330 0.50000 -0.10000
C 	C 	0.34720 0.39820 0.50000 -0.00100
H 	H 	0.36470 0.40780 0.50000 0.04500
C 	C 	0.34660 0.36860 0.50000 -0.03100
C 	C 	0.31980 0.35440 0.50000 0.10900
C 	C 	0.29440 0.36860 0.50000 -0.15700
H 	H 	0.27710 0.35880 0.50000 0.08400
C 	C 	0.29540 0.39780 0.50000 0.04900
H 	H 	0.27840 0.40810 0.50000 0.02300
O 	O 	0.34660 0.95710 -0.00000 -0.46100
O 	O 	0.29800 0.95750 -0.00000 -0.46600
C 	C 	0.32220 0.94610 -0.00000 0.37700
C 	C 	0.32210 0.91330 -0.00000 -0.10000
C 	C 	0.34720 0.89820 -0.00000 -0.00100
H 	H 	0.36470 0.90780 -0.00000 0.04500
C 	C 	0.34660 0.86860 -0.00000 -0.03100
C 	C 	0.31980 0.85440 -0.00000 0.10900
C 	C 	0.29440 0.86860 -0.00000 -0.15700
H 	H 	0.27710 0.85880 -0.00000 0.08400
C 	C 	0.29540 0.89780 -0.00000 0.04900
H 	H 	0.27840 0.90810 -0.00000 0.02300
O 	O 	0.15340 0.45710 -0.00000 -0.46200
O 	O 	0.20200 0.45750 -0.00000 -0.46700
C 	C 	0.17780 0.44610 -0.00000 0.37700
C 	C 	0.17790 0.41330 -0.00000 -0.10000
C 	C 	0.15280 0.39820 -0.00000 -0.00100
H 	H 	0.13530 0.40780 -0.00000 0.04500
C 	C 	0.15340 0.36860 -0.00000 -0.03100
C 	C 	0.18020 0.35440 -0.00000 0.10900
C 	C 	0.20560 0.36860 -0.00000 -0.15700
H 	H 	0.22290 0.35880 -0.00000 0.08400
C 	C 	0.20460 0.39780 -0.00000 0.04900
H 	H 	0.22160 0.40810 -0.00000 0.02300
O 	O 	0.15340 0.95710 0.50000 -0.46100
O 	O 	0.20200 0.95750 0.50000 -0.46500
C 	C 	0.17780 0.94610 0.50000 0.37700
C 	C 	0.17790 0.91330 0.50000 -0.09900
C 	C 	0.15280 0.89820 0.50000 -0.00100
H 	H 	0.13530 0.90780 0.50000 0.04500
C 	C 	0.15340 0.86860 0.50000 -0.03100
C 	C 	0.18020 0.85440 0.50000 0.10900
C 	C 	0.20560 0.86860 0.50000 -0.15700
H 	H 	0.22290 0.85880 0.50000 0.08400
C 	C 	0.20460 0.89780 0.50000 0.04900
H 	H 	0.22160 0.90810 0.50000 0.02400
O 	O 	0.65340 0.45710 0.50000 -0.46200
O 	O 	0.70200 0.45750 0.50000 -0.46600
C 	C 	0.67780 0.44610 0.50000 0.37700
C 	C 	0.67790 0.41330 0.50000 -0.10000
C 	C 	0.65280 0.39820 0.50000 -0.00100
H 	H 	0.63530 0.40780 0.50000 0.04500
C 	C 	0.65340 0.36860 0.50000 -0.03100
C 	C 	0.68020 0.35440 0.50000 0.10900
C 	C 	0.70560 0.36860 0.50000 -0.15700
H 	H 	0.72290 0.35880 0.50000 0.08400
C 	C 	0.70460 0.39780 0.50000 0.04900
H 	H 	0.72160 0.40810 0.50000 0.02300
O 	O 	0.65340 0.95710 -0.00000 -0.46100
O 	O 	0.70200 0.95750 -0.00000 -0.46600
C 	C 	0.67780 0.94610 -0.00000 0.37700
C 	C 	0.67790 0.91330 -0.00000 -0.10000
C 	C 	0.65280 0.89820 -0.00000 -0.00100
H 	H 	0.63530 0.90780 -0.00000 0.04500
C 	C 	0.65340 0.86860 -0.00000 -0.03100
C 	C 	0.68020 0.85440 -0.00000 0.10900
C 	C 	0.70560 0.86860 -0.00000 -0.15700
H 	H 	0.72290 0.85880 -0.00000 0.08400
C 	C 	0.70460 0.89780 -0.00000 0.04900
H 	H 	0.72160 0.90810 -0.00000 0.02300
O 	O 	0.84660 0.54290 -0.00000 -0.46200
O 	O 	0.79800 0.54250 -0.00000 -0.46700
C 	C 	0.82220 0.55390 -0.00000 0.37700
C 	C 	0.82210 0.58670 -0.00000 -0.10000
C 	C 	0.84720 0.60180 -0.00000 -0.00100
H 	H 	0.86470 0.59220 -0.00000 0.04500
C 	C 	0.84660 0.63140 -0.00000 -0.03100
C 	C 	0.81980 0.64560 -0.00000 0.10900
C 	C 	0.79440 0.63140 -0.00000 -0.15700
H 	H 	0.77710 0.64120 -0.00000 0.08400
C 	C 	0.79540 0.60220 -0.00000 0.04900
H 	H 	0.77840 0.59190 -0.00000 0.02300
O 	O 	0.84660 0.04290 0.50000 -0.46200
O 	O 	0.79800 0.04250 0.50000 -0.46600
C 	C 	0.82220 0.05390 0.50000 0.37700
C 	C 	0.82210 0.08670 0.50000 -0.10000
C 	C 	0.84720 0.10180 0.50000 -0.00100
H 	H 	0.86470 0.09220 0.50000 0.04500
C 	C 	0.84660 0.13140 0.50000 -0.03100
C 	C 	0.81980 0.14560 0.50000 0.10900
C 	C 	0.79440 0.13140 0.50000 -0.15700
H 	H 	0.77710 0.14120 0.50000 0.08400
C 	C 	0.79540 0.10220 0.50000 0.05000
H 	H 	0.77840 0.09190 0.50000 0.02300
O 	O 	0.34660 0.54290 0.50000 -0.46200
O 	O 	0.29800 0.54250 0.50000 -0.46600
C 	C 	0.32220 0.55390 0.50000 0.37700
C 	C 	0.32210 0.58670 0.50000 -0.10000
C 	C 	0.34720 0.60180 0.50000 -0.00100
H 	H 	0.36470 0.59220 0.50000 0.04500
C 	C 	0.34660 0.63140 0.50000 -0.03100
C 	C 	0.31980 0.64560 0.50000 0.10900
C 	C 	0.29440 0.63140 0.50000 -0.15700
H 	H 	0.27710 0.64120 0.50000 0.08400
C 	C 	0.29540 0.60220 0.50000 0.04900
H 	H 	0.27840 0.59190 0.50000 0.02300
O 	O 	0.34660 0.04290 -0.00000 -0.46200
O 	O 	0.29800 0.04250 -0.00000 -0.46700
C 	C 	0.32220 0.05390 -0.00000 0.37700
C 	C 	0.32210 0.08670 -0.00000 -0.10000
C 	C 	0.34720 0.10180 -0.00000 -0.00100
H 	H 	0.36470 0.09220 -0.00000 0.04500
C 	C 	0.34660 0.13140 -0.00000 -0.03100
C 	C 	0.31980 0.14560 -0.00000 0.10900
C 	C 	0.29440 0.13140 -0.00000 -0.15700
H 	H 	0.27710 0.14120 -0.00000 0.08400
C 	C 	0.29540 0.10220 -0.00000 0.04900
H 	H 	0.27840 0.09190 -0.00000 0.02300
O 	O 	0.54290 0.00000 0.84660 -0.46200
O 	O 	0.54250 -0.00000 0.79800 -0.46700
C 	C 	0.55390 -0.00000 0.82220 0.37700
C 	C 	0.58670 -0.00000 0.82210 -0.10000
C 	C 	0.60180 -0.00000 0.84720 -0.00100
H 	H 	0.59220 -0.00000 0.86470 0.04500
C 	C 	0.63140 0.00000 0.84660 -0.03100
C 	C 	0.64560 -0.00000 0.81980 0.10900
C 	C 	0.63140 0.00000 0.79440 -0.15700
H 	H 	0.64120 0.00000 0.77710 0.08400
C 	C 	0.60220 -0.00000 0.79540 0.04900
H 	H 	0.59190 -0.00000 0.77840 0.02300
O 	O 	0.54290 0.50000 0.34660 -0.46200
O 	O 	0.54250 0.50000 0.29800 -0.46600
C 	C 	0.55390 0.50000 0.32220 0.37700
C 	C 	0.58670 0.50000 0.32210 -0.10000
C 	C 	0.60180 0.50000 0.34720 -0.00100
H 	H 	0.59220 0.50000 0.36470 0.04500
C 	C 	0.63140 0.50000 0.34660 -0.03100
C 	C 	0.64560 0.50000 0.31980 0.10900
C 	C 	0.63140 0.50000 0.29440 -0.15700
H 	H 	0.64120 0.50000 0.27710 0.08400
C 	C 	0.60220 0.50000 0.29540 0.04900
H 	H 	0.59190 0.50000 0.27840 0.02300
O 	O 	0.04290 -0.00000 0.34660 -0.46200
O 	O 	0.04250 0.00000 0.29800 -0.46700
C 	C 	0.05390 -0.00000 0.32220 0.37700
C 	C 	0.08670 -0.00000 0.32210 -0.10000
C 	C 	0.10180 -0.00000 0.34720 -0.00100
H 	H 	0.09220 0.00000 0.36470 0.04500
C 	C 	0.13140 -0.00000 0.34660 -0.03100
C 	C 	0.14560 0.00000 0.31980 0.10900
C 	C 	0.13140 -0.00000 0.29440 -0.15700
H 	H 	0.14120 -0.00000 0.27710 0.08400
C 	C 	0.10220 -0.00000 0.29540 0.04900
H 	H 	0.09190 -0.00000 0.27840 0.02300
O 	O 	0.04290 0.50000 0.84660 -0.46200
O 	O 	0.04250 0.50000 0.79800 -0.46600
C 	C 	0.05390 0.50000 0.82220 0.37700
C 	C 	0.08670 0.50000 0.82210 -0.10000
C 	C 	0.10180 0.50000 0.84720 -0.00100
H 	H 	0.09220 0.50000 0.86470 0.04500
C 	C 	0.13140 0.50000 0.84660 -0.03100
C 	C 	0.14560 0.50000 0.81980 0.10900
C 	C 	0.13140 0.50000 0.79440 -0.15700
H 	H 	0.14120 0.50000 0.77710 0.08400
C 	C 	0.10220 0.50000 0.79540 0.05000
H 	H 	0.09190 0.50000 0.77840 0.02300
O 	O 	0.45710 0.00000 0.15340 -0.46200
O 	O 	0.45750 -0.00000 0.20200 -0.46700
C 	C 	0.44610 0.00000 0.17780 0.37700
C 	C 	0.41330 -0.00000 0.17790 -0.10000
C 	C 	0.39820 0.00000 0.15280 -0.00100
H 	H 	0.40780 -0.00000 0.13530 0.04500
C 	C 	0.36860 0.00000 0.15340 -0.03100
C 	C 	0.35440 -0.00000 0.18020 0.10900
C 	C 	0.36860 -0.00000 0.20560 -0.15700
H 	H 	0.35880 0.00000 0.22290 0.08400
C 	C 	0.39780 0.00000 0.20460 0.04900
H 	H 	0.40810 -0.00000 0.22160 0.02300
O 	O 	0.45710 0.50000 0.65340 -0.46200
O 	O 	0.45750 0.50000 0.70200 -0.46600
C 	C 	0.44610 0.50000 0.67780 0.37700
C 	C 	0.41330 0.50000 0.67790 -0.10000
C 	C 	0.39820 0.50000 0.65280 -0.00100
H 	H 	0.40780 0.50000 0.63530 0.04500
C 	C 	0.36860 0.50000 0.65340 -0.03100
C 	C 	0.35440 0.50000 0.68020 0.10900
C 	C 	0.36860 0.50000 0.70560 -0.15700
H 	H 	0.35880 0.50000 0.72290 0.08400
C 	C 	0.39780 0.50000 0.70460 0.04900
H 	H 	0.40810 0.50000 0.72160 0.02300
O 	O 	0.95710 -0.00000 0.65340 -0.46100
O 	O 	0.95750 -0.00000 0.70200 -0.46600
C 	C 	0.94610 -0.00000 0.67780 0.37700
C 	C 	0.91330 0.00000 0.67790 -0.10000
C 	C 	0.89820 -0.00000 0.65280 -0.00100
H 	H 	0.90780 -0.00000 0.63530 0.04500
C 	C 	0.86860 -0.00000 0.65340 -0.03100
C 	C 	0.85440 -0.00000 0.68020 0.10900
C 	C 	0.86860 -0.00000 0.70560 -0.15700
H 	H 	0.85880 0.00000 0.72290 0.08400
C 	C 	0.89780 -0.00000 0.70460 0.04900
H 	H 	0.90810 -0.00000 0.72160 0.02300
O 	O 	0.95710 0.50000 0.15340 -0.46100
O 	O 	0.95750 0.50000 0.20200 -0.46500
C 	C 	0.94610 0.50000 0.17780 0.37700
C 	C 	0.91330 0.50000 0.17790 -0.09900
C 	C 	0.89820 0.50000 0.15280 -0.00100
H 	H 	0.90780 0.50000 0.13530 0.04500
C 	C 	0.86860 0.50000 0.15340 -0.03100
C 	C 	0.85440 0.50000 0.18020 0.10900
C 	C 	0.86860 0.50000 0.20560 -0.15700
H 	H 	0.85880 0.50000 0.22290 0.08400
C 	C 	0.89780 0.50000 0.20460 0.04900
H 	H 	0.90810 0.50000 0.22160 0.02400
O 	O 	0.45710 0.00000 0.84660 -0.46200
O 	O 	0.45750 -0.00000 0.79800 -0.46700
C 	C 	0.44610 -0.00000 0.82220 0.37700
C 	C 	0.41330 -0.00000 0.82210 -0.10000
C 	C 	0.39820 -0.00000 0.84720 -0.00100
H 	H 	0.40780 -0.00000 0.86470 0.04500
C 	C 	0.36860 0.00000 0.84660 -0.03100
C 	C 	0.35440 -0.00000 0.81980 0.10900
C 	C 	0.36860 0.00000 0.79440 -0.15700
H 	H 	0.35880 0.00000 0.77710 0.08400
C 	C 	0.39780 -0.00000 0.79540 0.04900
H 	H 	0.40810 -0.00000 0.77840 0.02300
O 	O 	0.45710 0.50000 0.34660 -0.46200
O 	O 	0.45750 0.50000 0.29800 -0.46600
C 	C 	0.44610 0.50000 0.32220 0.37700
C 	C 	0.41330 0.50000 0.32210 -0.10000
C 	C 	0.39820 0.50000 0.34720 -0.00100
H 	H 	0.40780 0.50000 0.36470 0.04500
C 	C 	0.36860 0.50000 0.34660 -0.03100
C 	C 	0.35440 0.50000 0.31980 0.10900
C 	C 	0.36860 0.50000 0.29440 -0.15700
H 	H 	0.35880 0.50000 0.27710 0.08400
C 	C 	0.39780 0.50000 0.29540 0.04900
H 	H 	0.40810 0.50000 0.27840 0.02300
O 	O 	0.95710 -0.00000 0.34660 -0.46100
O 	O 	0.95750 0.00000 0.29800 -0.46600
C 	C 	0.94610 -0.00000 0.32220 0.37700
C 	C 	0.91330 -0.00000 0.32210 -0.10000
C 	C 	0.89820 -0.00000 0.34720 -0.00100
H 	H 	0.90780 0.00000 0.36470 0.04500
C 	C 	0.86860 -0.00000 0.34660 -0.03100
C 	C 	0.85440 0.00000 0.31980 0.10900
C 	C 	0.86860 -0.00000 0.29440 -0.15700
H 	H 	0.85880 -0.00000 0.27710 0.08400
C 	C 	0.89780 -0.00000 0.29540 0.04900
H 	H 	0.90810 -0.00000 0.27840 0.02300
O 	O 	0.95710 0.50000 0.84660 -0.46000
O 	O 	0.95750 0.50000 0.79800 -0.46500
C 	C 	0.94610 0.50000 0.82220 0.37700
C 	C 	0.91330 0.50000 0.82210 -0.09900
C 	C 	0.89820 0.50000 0.84720 -0.00100
H 	H 	0.90780 0.50000 0.86470 0.04600
C 	C 	0.86860 0.50000 0.84660 -0.03100
C 	C 	0.85440 0.50000 0.81980 0.10900
C 	C 	0.86860 0.50000 0.79440 -0.15700
H 	H 	0.85880 0.50000 0.77710 0.08400
C 	C 	0.89780 0.50000 0.79540 0.04900
H 	H 	0.90810 0.50000 0.77840 0.02400
O 	O 	0.54290 0.00000 0.15340 -0.46200
O 	O 	0.54250 -0.00000 0.20200 -0.46700
C 	C 	0.55390 0.00000 0.17780 0.37700
C 	C 	0.58670 -0.00000 0.17790 -0.10000
C 	C 	0.60180 0.00000 0.15280 -0.00100
H 	H 	0.59220 -0.00000 0.13530 0.04500
C 	C 	0.63140 0.00000 0.15340 -0.03100
C 	C 	0.64560 -0.00000 0.18020 0.10900
C 	C 	0.63140 -0.00000 0.20560 -0.15700
H 	H 	0.64120 0.00000 0.22290 0.08400
C 	C 	0.60220 0.00000 0.20460 0.04900
H 	H 	0.59190 -0.00000 0.22160 0.02300
O 	O 	0.54290 0.50000 0.65340 -0.46200
O 	O 	0.54250 0.50000 0.70200 -0.46600
C 	C 	0.55390 0.50000 0.67780 0.37700
C 	C 	0.58670 0.50000 0.67790 -0.10000
C 	C 	0.60180 0.50000 0.65280 -0.00100
H 	H 	0.59220 0.50000 0.63530 0.04500
C 	C 	0.63140 0.50000 0.65340 -0.03100
C 	C 	0.64560 0.50000 0.68020 0.10900
C 	C 	0.63140 0.50000 0.70560 -0.15700
H 	H 	0.64120 0.50000 0.72290 0.08400
C 	C 	0.60220 0.50000 0.70460 0.04900
H 	H 	0.59190 0.50000 0.72160 0.02300
O 	O 	0.04290 -0.00000 0.65340 -0.46200
O 	O 	0.04250 -0.00000 0.70200 -0.46700
C 	C 	0.05390 -0.00000 0.67780 0.37700
C 	C 	0.08670 0.00000 0.67790 -0.10000
C 	C 	0.10180 -0.00000 0.65280 -0.00100
H 	H 	0.09220 -0.00000 0.63530 0.04500
C 	C 	0.13140 -0.00000 0.65340 -0.03100
C 	C 	0.14560 -0.00000 0.68020 0.10900
C 	C 	0.13140 -0.00000 0.70560 -0.15700
H 	H 	0.14120 0.00000 0.72290 0.08400
C 	C 	0.10220 -0.00000 0.70460 0.04900
H 	H 	0.09190 -0.00000 0.72160 0.02300
O 	O 	0.04290 0.50000 0.15340 -0.46200
O 	O 	0.04250 0.50000 0.20200 -0.46600
C 	C 	0.05390 0.50000 0.17780 0.37700
C 	C 	0.08670 0.50000 0.17790 -0.10000
C 	C 	0.10180 0.50000 0.15280 -0.00100
H 	H 	0.09220 0.50000 0.13530 0.04500
C 	C 	0.13140 0.50000 0.15340 -0.03100
C 	C 	0.14560 0.50000 0.18020 0.10900
C 	C 	0.13140 0.50000 0.20560 -0.15700
H 	H 	0.14120 0.50000 0.22290 0.08400
C 	C 	0.10220 0.50000 0.20460 0.05000
H 	H 	0.09190 0.50000 0.22160 0.02300
O 	O 	-0.00000 0.15340 0.45710 -0.46200
O 	O 	-0.00000 0.20200 0.45750 -0.46700
C 	C 	0.00000 0.17780 0.44610 0.37700
C 	C 	0.00000 0.17790 0.41330 -0.10000
C 	C 	0.00000 0.15280 0.39820 -0.00100
H 	H 	0.00000 0.13530 0.40780 0.04500
C 	C 	0.00000 0.15340 0.36860 -0.03100
C 	C 	0.00000 0.18020 0.35440 0.10900
C 	C 	0.00000 0.20560 0.36860 -0.15700
H 	H 	-0.00000 0.22290 0.35880 0.08400
C 	C 	-0.00000 0.20460 0.39780 0.04900
H 	H 	-0.00000 0.22160 0.40810 0.02300
O 	O 	-0.00000 0.65340 0.95710 -0.46100
O 	O 	0.00000 0.70200 0.95750 -0.46600
C 	C 	-0.00000 0.67780 0.94610 0.37700
C 	C 	0.00000 0.67790 0.91330 -0.10000
C 	C 	0.00000 0.65280 0.89820 -0.00100
H 	H 	0.00000 0.63530 0.90780 0.04500
C 	C 	-0.00000 0.65340 0.86860 -0.03100
C 	C 	0.00000 0.68020 0.85440 0.10900
C 	C 	0.00000 0.70560 0.86860 -0.15700
H 	H 	0.00000 0.72290 0.85880 0.08400
C 	C 	0.00000 0.70460 0.89780 0.04900
H 	H 	-0.00000 0.72160 0.90810 0.02300
O 	O 	0.50000 0.15340 0.95710 -0.46100
O 	O 	0.50000 0.20200 0.95750 -0.46500
C 	C 	0.50000 0.17780 0.94610 0.37700
C 	C 	0.50000 0.17790 0.91330 -0.09900
C 	C 	0.50000 0.15280 0.89820 -0.00100
H 	H 	0.50000 0.13530 0.90780 0.04500
C 	C 	0.50000 0.15340 0.86860 -0.03100
C 	C 	0.50000 0.18020 0.85440 0.10900
C 	C 	0.50000 0.20560 0.86860 -0.15700
H 	H 	0.50000 0.22290 0.85880 0.08400
C 	C 	0.50000 0.20460 0.89780 0.04900
H 	H 	0.50000 0.22160 0.90810 0.02400
O 	O 	0.50000 0.65340 0.45710 -0.46200
O 	O 	0.50000 0.70200 0.45750 -0.46600
C 	C 	0.50000 0.67780 0.44610 0.37700
C 	C 	0.50000 0.67790 0.41330 -0.10000
C 	C 	0.50000 0.65280 0.39820 -0.00100
H 	H 	0.50000 0.63530 0.40780 0.04500
C 	C 	0.50000 0.65340 0.36860 -0.03100
C 	C 	0.50000 0.68020 0.35440 0.10900
C 	C 	0.50000 0.70560 0.36860 -0.15700
H 	H 	0.50000 0.72290 0.35880 0.08400
C 	C 	0.50000 0.70460 0.39780 0.04900
H 	H 	0.50000 0.72160 0.40810 0.02300
O 	O 	0.00000 0.84660 0.54290 -0.46200
O 	O 	0.00000 0.79800 0.54250 -0.46700
C 	C 	0.00000 0.82220 0.55390 0.37700
C 	C 	0.00000 0.82210 0.58670 -0.10000
C 	C 	0.00000 0.84720 0.60180 -0.00100
H 	H 	0.00000 0.86470 0.59220 0.04500
C 	C 	0.00000 0.84660 0.63140 -0.03100
C 	C 	-0.00000 0.81980 0.64560 0.10900
C 	C 	0.00000 0.79440 0.63140 -0.15700
H 	H 	-0.00000 0.77710 0.64120 0.08400
C 	C 	-0.00000 0.79540 0.60220 0.04900
H 	H 	-0.00000 0.77840 0.59190 0.02300
O 	O 	0.00000 0.34660 0.04290 -0.46200
O 	O 	0.00000 0.29800 0.04250 -0.46700
C 	C 	0.00000 0.32220 0.05390 0.37700
C 	C 	0.00000 0.32210 0.08670 -0.10000
C 	C 	-0.00000 0.34720 0.10180 -0.00100
H 	H 	-0.00000 0.36470 0.09220 0.04500
C 	C 	0.00000 0.34660 0.13140 -0.03100
C 	C 	0.00000 0.31980 0.14560 0.10900
C 	C 	-0.00000 0.29440 0.13140 -0.15700
H 	H 	-0.00000 0.27710 0.14120 0.08400
C 	C 	-0.00000 0.29540 0.10220 0.04900
H 	H 	0.00000 0.27840 0.09190 0.02300
O 	O 	0.50000 0.84660 0.04290 -0.46200
O 	O 	0.50000 0.79800 0.04250 -0.46600
C 	C 	0.50000 0.82220 0.05390 0.37700
C 	C 	0.50000 0.82210 0.08670 -0.10000
C 	C 	0.50000 0.84720 0.10180 -0.00100
H 	H 	0.50000 0.86470 0.09220 0.04500
C 	C 	0.50000 0.84660 0.13140 -0.03100
C 	C 	0.50000 0.81980 0.14560 0.10900
C 	C 	0.50000 0.79440 0.13140 -0.15700
H 	H 	0.50000 0.77710 0.14120 0.08400
C 	C 	0.50000 0.79540 0.10220 0.05000
H 	H 	0.50000 0.77840 0.09190 0.02300
O 	O 	0.50000 0.34660 0.54290 -0.46200
O 	O 	0.50000 0.29800 0.54250 -0.46600
C 	C 	0.50000 0.32220 0.55390 0.37700
C 	C 	0.50000 0.32210 0.58670 -0.10000
C 	C 	0.50000 0.34720 0.60180 -0.00100
H 	H 	0.50000 0.36470 0.59220 0.04500
C 	C 	0.50000 0.34660 0.63140 -0.03100
C 	C 	0.50000 0.31980 0.64560 0.10900
C 	C 	0.50000 0.29440 0.63140 -0.15700
H 	H 	0.50000 0.27710 0.64120 0.08400
C 	C 	0.50000 0.29540 0.60220 0.04900
H 	H 	0.50000 0.27840 0.59190 0.02300
O 	O 	-0.00000 0.15340 0.54290 -0.46200
O 	O 	-0.00000 0.20200 0.54250 -0.46700
C 	C 	0.00000 0.17780 0.55390 0.37700
C 	C 	0.00000 0.17790 0.58670 -0.10000
C 	C 	0.00000 0.15280 0.60180 -0.00100
H 	H 	0.00000 0.13530 0.59220 0.04500
C 	C 	0.00000 0.15340 0.63140 -0.03100
C 	C 	0.00000 0.18020 0.64560 0.10900
C 	C 	-0.00000 0.20560 0.63140 -0.15700
H 	H 	0.00000 0.22290 0.64120 0.08400
C 	C 	0.00000 0.20460 0.60220 0.04900
H 	H 	0.00000 0.22160 0.59190 0.02300
O 	O 	-0.00000 0.65340 0.04290 -0.46200
O 	O 	-0.00000 0.70200 0.04250 -0.46700
C 	C 	0.00000 0.67780 0.05390 0.37700
C 	C 	0.00000 0.67790 0.08670 -0.10000
C 	C 	-0.00000 0.65280 0.10180 -0.00100
H 	H 	0.00000 0.63530 0.09220 0.04500
C 	C 	-0.00000 0.65340 0.13140 -0.03100
C 	C 	0.00000 0.68020 0.14560 0.10900
C 	C 	-0.00000 0.70560 0.13140 -0.15700
H 	H 	0.00000 0.72290 0.14120 0.08400
C 	C 	-0.00000 0.70460 0.10220 0.04900
H 	H 	0.00000 0.72160 0.09190 0.02300
O 	O 	0.50000 0.15340 0.04290 -0.46200
O 	O 	0.50000 0.20200 0.04250 -0.46600
C 	C 	0.50000 0.17780 0.05390 0.37700
C 	C 	0.50000 0.17790 0.08670 -0.10000
C 	C 	0.50000 0.15280 0.10180 -0.00100
H 	H 	0.50000 0.13530 0.09220 0.04500
C 	C 	0.50000 0.15340 0.13140 -0.03100
C 	C 	0.50000 0.18020 0.14560 0.10900
C 	C 	0.50000 0.20560 0.13140 -0.15700
H 	H 	0.50000 0.22290 0.14120 0.08400
C 	C 	0.50000 0.20460 0.10220 0.05000
H 	H 	0.50000 0.22160 0.09190 0.02300
O 	O 	0.50000 0.65340 0.54290 -0.46200
O 	O 	0.50000 0.70200 0.54250 -0.46600
C 	C 	0.50000 0.67780 0.55390 0.37700
C 	C 	0.50000 0.67790 0.58670 -0.10000
C 	C 	0.50000 0.65280 0.60180 -0.00100
H 	H 	0.50000 0.63530 0.59220 0.04500
C 	C 	0.50000 0.65340 0.63140 -0.03100
C 	C 	0.50000 0.68020 0.64560 0.10900
C 	C 	0.50000 0.70560 0.63140 -0.15700
H 	H 	0.50000 0.72290 0.64120 0.08400
C 	C 	0.50000 0.70460 0.60220 0.04900
H 	H 	0.50000 0.72160 0.59190 0.02300
O 	O 	0.00000 0.84660 0.45710 -0.46200
O 	O 	-0.00000 0.79800 0.45750 -0.46700
C 	C 	0.00000 0.82220 0.44610 0.37700
C 	C 	0.00000 0.82210 0.41330 -0.10000
C 	C 	0.00000 0.84720 0.39820 -0.00100
H 	H 	-0.00000 0.86470 0.40780 0.04500
C 	C 	0.00000 0.84660 0.36860 -0.03100
C 	C 	0.00000 0.81980 0.35440 0.10900
C 	C 	0.00000 0.79440 0.36860 -0.15700
H 	H 	0.00000 0.77710 0.35880 0.08400
C 	C 	-0.00000 0.79540 0.39780 0.04900
H 	H 	-0.00000 0.77840 0.40810 0.02300
O 	O 	-0.00000 0.34660 0.95710 -0.46100
O 	O 	-0.00000 0.29800 0.95750 -0.46600
C 	C 	0.00000 0.32220 0.94610 0.37700
C 	C 	0.00000 0.32210 0.91330 -0.10000
C 	C 	0.00000 0.34720 0.89820 -0.00100
H 	H 	-0.00000 0.36470 0.90780 0.04500
C 	C 	-0.00000 0.34660 0.86860 -0.03100
C 	C 	0.00000 0.31980 0.85440 0.10900
C 	C 	0.00000 0.29440 0.86860 -0.15700
H 	H 	0.00000 0.27710 0.85880 0.08400
C 	C 	-0.00000 0.29540 0.89780 0.04900
H 	H 	-0.00000 0.27840 0.90810 0.02300
O 	O 	0.50000 0.84660 0.95710 -0.46000
O 	O 	0.50000 0.79800 0.95750 -0.46500
C 	C 	0.50000 0.82220 0.94610 0.37700
C 	C 	0.50000 0.82210 0.91330 -0.09900
C 	C 	0.50000 0.84720 0.89820 -0.00100
H 	H 	0.50000 0.86470 0.90780 0.04600
C 	C 	0.50000 0.84660 0.86860 -0.03100
C 	C 	0.50000 0.81980 0.85440 0.10900
C 	C 	0.50000 0.79440 0.86860 -0.15700
H 	H 	0.50000 0.77710 0.85880 0.08400
C 	C 	0.50000 0.79540 0.89780 0.04900
H 	H 	0.50000 0.77840 0.90810 0.02400
O 	O 	0.50000 0.34660 0.45710 -0.46200
O 	O 	0.50000 0.29800 0.45750 -0.46600
C 	C 	0.50000 0.32220 0.44610 0.37700
C 	C 	0.50000 0.32210 0.41330 -0.10000
C 	C 	0.50000 0.34720 0.39820 -0.00100
H 	H 	0.50000 0.36470 0.40780 0.04500
C 	C 	0.50000 0.34660 0.36860 -0.03100
C 	C 	0.50000 0.31980 0.35440 0.10900
C 	C 	0.50000 0.29440 0.36860 -0.15700
H 	H 	0.50000 0.27710 0.35880 0.08400
C 	C 	0.50000 0.29540 0.39780 0.04900
H 	H 	0.50000 0.27840 0.40810 0.02300
N 	N 	0.67490 0.17490 -0.00000 -0.17400
C 	C 	0.69690 0.19690 -0.00000 0.18000
C 	C 	0.73890 0.23890 -0.00000 -0.01100
N 	N 	0.67490 0.67490 0.50000 -0.17500
C 	C 	0.69690 0.69690 0.50000 0.18400
C 	C 	0.73890 0.73890 0.50000 -0.01000
N 	N 	0.32510 0.82510 -0.00000 -0.17400
C 	C 	0.30310 0.80310 -0.00000 0.18000
C 	C 	0.26110 0.76110 -0.00000 -0.01200
N 	N 	0.32510 0.32510 0.50000 -0.17500
C 	C 	0.30310 0.30310 0.50000 0.18400
C 	C 	0.26110 0.26110 0.50000 -0.01000
N 	N 	0.82510 0.82510 0.50000 -0.17500
C 	C 	0.80310 0.80310 0.50000 0.18400
C 	C 	0.76110 0.76110 0.50000 -0.01000
N 	N 	0.32510 0.17490 -0.00000 -0.17400
C 	C 	0.30310 0.19690 -0.00000 0.18000
C 	C 	0.26110 0.23890 -0.00000 -0.01100
N 	N 	0.32510 0.67490 0.50000 -0.17500
C 	C 	0.30310 0.69690 0.50000 0.18400
C 	C 	0.26110 0.73890 0.50000 -0.01000
N 	N 	0.82510 0.67490 -0.00000 -0.17400
C 	C 	0.80310 0.69690 -0.00000 0.18000
C 	C 	0.76110 0.73890 -0.00000 -0.01100
N 	N 	0.67490 0.82510 -0.00000 -0.17400
C 	C 	0.69690 0.80310 -0.00000 0.18000
C 	C 	0.73890 0.76110 -0.00000 -0.01100
N 	N 	0.67490 0.32510 0.50000 -0.17500
C 	C 	0.69690 0.30310 0.50000 0.18400
C 	C 	0.73890 0.26110 0.50000 -0.01000
N 	N 	0.00000 0.67490 0.17490 -0.17400
C 	C 	0.00000 0.69690 0.19690 0.18000
C 	C 	-0.00000 0.73890 0.23890 -0.01100
N 	N 	0.50000 0.67490 0.67490 -0.17500
C 	C 	0.50000 0.69690 0.69690 0.18400
C 	C 	0.50000 0.73890 0.73890 -0.01000
N 	N 	-0.00000 0.32510 0.82510 -0.17400
C 	C 	-0.00000 0.30310 0.80310 0.18000
C 	C 	0.00000 0.26110 0.76110 -0.01200
N 	N 	0.50000 0.32510 0.32510 -0.17500
C 	C 	0.50000 0.30310 0.30310 0.18400
C 	C 	0.50000 0.26110 0.26110 -0.01000
N 	N 	0.50000 0.82510 0.82510 -0.17500
C 	C 	0.50000 0.80310 0.80310 0.18400
C 	C 	0.50000 0.76110 0.76110 -0.01000
N 	N 	0.00000 0.32510 0.17490 -0.17400
C 	C 	0.00000 0.30310 0.19690 0.18000
C 	C 	0.00000 0.26110 0.23890 -0.01100
N 	N 	-0.00000 0.82510 0.67490 -0.17400
C 	C 	-0.00000 0.80310 0.69690 0.18000
C 	C 	0.00000 0.76110 0.73890 -0.01100
N 	N 	0.50000 0.32510 0.67490 -0.17500
C 	C 	0.50000 0.30310 0.69690 0.18400
C 	C 	0.50000 0.26110 0.73890 -0.01000
N 	N 	-0.00000 0.67490 0.82510 -0.17400
C 	C 	-0.00000 0.69690 0.80310 0.18000
C 	C 	0.00000 0.73890 0.76110 -0.01100
N 	N 	0.50000 0.67490 0.32510 -0.17500
C 	C 	0.50000 0.69690 0.30310 0.18400
C 	C 	0.50000 0.73890 0.26110 -0.01000
N 	N 	0.17490 0.00000 0.67490 -0.17400
C 	C 	0.19690 -0.00000 0.69690 0.18000
C 	C 	0.23890 -0.00000 0.73890 -0.01100
N 	N 	0.17490 0.50000 0.17490 -0.17500
C 	C 	0.19690 0.50000 0.19690 0.18400
C 	C 	0.23890 0.50000 0.23890 -0.01000
N 	N 	0.67490 0.50000 0.67490 -0.17500
C 	C 	0.69690 0.50000 0.69690 0.18400
C 	C 	0.73890 0.50000 0.73890 -0.01000
N 	N 	0.82510 -0.00000 0.32510 -0.17400
C 	C 	0.80310 0.00000 0.30310 0.18000
C 	C 	0.76110 -0.00000 0.26110 -0.01200
N 	N 	0.82510 0.50000 0.82510 -0.17500
C 	C 	0.80310 0.50000 0.80310 0.18400
C 	C 	0.76110 0.50000 0.76110 -0.01000
N 	N 	0.17490 -0.00000 0.32510 -0.17400
C 	C 	0.19690 0.00000 0.30310 0.18000
C 	C 	0.23890 -0.00000 0.26110 -0.01100
N 	N 	0.17490 0.50000 0.82510 -0.17500
C 	C 	0.19690 0.50000 0.80310 0.18400
C 	C 	0.23890 0.50000 0.76110 -0.01000
N 	N 	0.67490 -0.00000 0.82510 -0.17400
C 	C 	0.69690 -0.00000 0.80310 0.18000
C 	C 	0.73890 0.00000 0.76110 -0.01100
N 	N 	0.82510 0.00000 0.67490 -0.17400
C 	C 	0.80310 -0.00000 0.69690 0.18000
C 	C 	0.76110 -0.00000 0.73890 -0.01100
N 	N 	0.82510 0.50000 0.17490 -0.17500
C 	C 	0.80310 0.50000 0.19690 0.18400
C 	C 	0.76110 0.50000 0.23890 -0.01000
N 	N 	0.17490 0.67490 -0.00000 -0.17400
C 	C 	0.19690 0.69690 -0.00000 0.18000
C 	C 	0.23890 0.73890 -0.00000 -0.01100
N 	N 	0.17490 0.17490 0.50000 -0.17500
C 	C 	0.19690 0.19690 0.50000 0.18400
C 	C 	0.23890 0.23890 0.50000 -0.01000
N 	N 	0.82510 0.32510 -0.00000 -0.17400
C 	C 	0.80310 0.30310 -0.00000 0.18000
C 	C 	0.76110 0.26110 -0.00000 -0.01200
N 	N 	0.17490 0.32510 -0.00000 -0.17400
C 	C 	0.19690 0.30310 -0.00000 0.18000
C 	C 	0.23890 0.26110 -0.00000 -0.01100
N 	N 	0.17490 0.82510 0.50000 -0.17500
C 	C 	0.19690 0.80310 0.50000 0.18400
C 	C 	0.23890 0.76110 0.50000 -0.01000
N 	N 	0.82510 0.17490 0.50000 -0.17500
C 	C 	0.80310 0.19690 0.50000 0.18400
C 	C 	0.76110 0.23890 0.50000 -0.01000
N 	N 	0.67490 0.50000 0.32510 -0.17500
C 	C 	0.69690 0.50000 0.30310 0.18400
C 	C 	0.73890 0.50000 0.26110 -0.01000
N 	N 	0.32510 0.00000 0.17490 -0.17400
C 	C 	0.30310 -0.00000 0.19690 0.18000
C 	C 	0.26110 -0.00000 0.23890 -0.01100
N 	N 	0.32510 0.50000 0.67490 -0.17500
C 	C 	0.30310 0.50000 0.69690 0.18400
C 	C 	0.26110 0.50000 0.73890 -0.01000
N 	N 	0.32510 -0.00000 0.82510 -0.17400
C 	C 	0.30310 -0.00000 0.80310 0.18000
C 	C 	0.26110 0.00000 0.76110 -0.01200
N 	N 	0.32510 0.50000 0.32510 -0.17500
C 	C 	0.30310 0.50000 0.30310 0.18400
C 	C 	0.26110 0.50000 0.26110 -0.01000
N 	N 	0.67490 0.00000 0.17490 -0.17400
C 	C 	0.69690 -0.00000 0.19690 0.18000
C 	C 	0.73890 -0.00000 0.23890 -0.01100
N 	N 	0.00000 0.17490 0.32510 -0.17400
C 	C 	0.00000 0.19690 0.30310 0.18000
C 	C 	0.00000 0.23890 0.26110 -0.01100
N 	N 	0.50000 0.17490 0.82510 -0.17500
C 	C 	0.50000 0.19690 0.80310 0.18400
C 	C 	0.50000 0.23890 0.76110 -0.01000
N 	N 	0.50000 0.82510 0.17490 -0.17500
C 	C 	0.50000 0.80310 0.19690 0.18400
C 	C 	0.50000 0.76110 0.23890 -0.01000
N 	N 	0.00000 0.17490 0.67490 -0.17400
C 	C 	0.00000 0.19690 0.69690 0.18000
C 	C 	-0.00000 0.23890 0.73890 -0.01100
N 	N 	0.50000 0.17490 0.17490 -0.17500
C 	C 	0.50000 0.19690 0.19690 0.18400
C 	C 	0.50000 0.23890 0.23890 -0.01000
N 	N 	0.00000 0.82510 0.32510 -0.17400
C 	C 	0.00000 0.80310 0.30310 0.18000
C 	C 	0.00000 0.76110 0.26110 -0.01200
