data_crystal

_cell_length_a 25.18300
_cell_length_b 24.17300
_cell_length_c 19.29200
_cell_angle_alpha 90.00000
_cell_angle_beta  118.28300
_cell_angle_gamma 90.00000

_symmetry_space_group_name_	'P 1'
_symmetry_space_group_name_H-M	'P 1'

loop_
_symmetry_equiv_pos_as_xyz
  x,y,z

loop_
_atom_site_label
_atom_site_type_symbol
_atom_site_fract_x
_atom_site_fract_y
_atom_site_fract_z
_atom_site_charge
Zn	Zn	0.05440 0.99893 0.57986 1.19700
Fe	Fe	0.23757 0.28361 0.27476 1.16500
C 	C 	0.13280 0.20110 0.38900 -0.67400
C 	C 	0.07450 0.18090 0.34330 0.35400
H 	H 	0.05320 0.19050 0.28910 -0.08500
C 	C 	0.04680 0.14730 0.37460 -0.26300
H 	H 	0.00690 0.13450 0.34190 0.12400
C 	C 	0.07670 0.13200 0.45340 0.08800
C 	C 	0.13350 0.15390 0.50200 -0.25000
H 	H 	0.15340 0.14580 0.55670 0.12300
C 	C 	0.16080 0.18780 0.46960 0.33800
H 	H 	0.19970 0.20250 0.50320 -0.07500
B 	B 	0.16880 0.23190 0.35150 1.53600
O 	O 	0.12980 0.23140 0.26340 -0.50500
N 	N 	0.16120 0.24860 0.22420 -0.18300
C 	C 	0.13870 0.23310 0.15160 0.05900
C 	C 	0.17570 0.25150 0.11810 0.06600
N 	N 	0.22500 0.27380 0.17060 -0.18300
O 	O 	0.26450 0.29437 0.14460 -0.52500
B 	B 	0.30690 0.33580 0.19950 1.56600
N 	N 	0.26220 0.22460 0.34920 -0.17600
O 	O 	0.22427 0.20023 0.37370 -0.52700
C 	C 	0.31950 0.21280 0.38940 0.05900
C 	C 	0.35490 0.24300 0.36130 0.06600
N 	N 	0.32170 0.27890 0.30830 -0.18000
O 	O 	0.34998 0.30810 0.27300 -0.53000
O 	O 	0.18422 0.28927 0.37990 -0.52600
N 	N 	0.21070 0.31780 0.34210 -0.17700
C 	C 	0.21230 0.37160 0.34840 0.06400
C 	C 	0.23880 0.39670 0.30380 0.05200
N 	N 	0.24640 0.36030 0.25950 -0.17700
O 	O 	0.27430 0.37974 0.21660 -0.53600
C 	C 	0.34250 0.36290 0.15840 -0.70100
C 	C 	0.31240 0.38610 0.08400 0.37900
H 	H 	0.26960 0.38390 0.05600 -0.10100
C 	C 	0.25220 0.48260 0.37970 -0.08500
H 	H 	0.25270 0.52330 0.37490 0.04300
H 	H 	0.28870 0.47180 0.42860 0.05700
C 	C 	0.25520 0.45690 0.31090 -0.12200
H 	H 	0.29660 0.46090 0.31770 0.06200
H 	H 	0.22720 0.47640 0.26200 0.07200
C 	C 	0.19730 0.46610 0.38670 -0.04800
H 	H 	0.16090 0.47840 0.33870 0.04000
H 	H 	0.19800 0.48590 0.43200 0.03600
C 	C 	0.19230 0.40450 0.39740 -0.15900
H 	H 	0.21760 0.39470 0.45350 0.08900
H 	H 	0.15000 0.39510 0.38240 0.08600
C 	C 	0.34260 0.41230 0.04910 -0.28200
H 	H 	0.32030 0.42730 0.99770 0.12700
C 	C 	0.40440 0.41690 0.08760 0.09800
C 	C 	0.43630 0.39010 0.15990 -0.27400
H 	H 	0.47910 0.38970 0.18550 0.12800
C 	C 	0.40560 0.36410 0.19460 0.35900
H 	H 	0.42810 0.34670 0.24430 -0.09200
C 	C 	0.43860 0.44800 0.05380 0.32000
C 	C 	0.44280 0.18680 0.45220 -0.05300
H 	H 	0.43870 0.15280 0.42150 0.04000
H 	H 	0.48640 0.19210 0.48810 0.03500
C 	C 	0.42150 0.23480 0.39530 -0.15700
H 	H 	0.44270 0.26890 0.42300 0.08700
H 	H 	0.43150 0.22770 0.35230 0.08700
C 	C 	0.41430 0.17740 0.49880 -0.06300
H 	H 	0.42650 0.20740 0.53830 0.05100
H 	H 	0.43040 0.14240 0.52800 0.04000
C 	C 	0.34640 0.17380 0.45780 -0.15200
H 	H 	0.33370 0.13550 0.43910 0.08300
H 	H 	0.33140 0.18310 0.49550 0.10000
C 	C 	0.09170 0.22660 0.98680 -0.05500
H 	H 	0.06560 0.25910 0.97910 0.04100
H 	H 	0.08340 0.21310 0.93410 0.04500
C 	C 	0.15800 0.24450 0.03250 -0.15600
H 	H 	0.18400 0.21620 0.02650 0.09000
H 	H 	0.16380 0.27980 0.01100 0.09200
C 	C 	0.07620 0.18190 0.02830 -0.07600
H 	H 	0.10300 0.14980 0.03710 0.05700
H 	H 	0.03420 0.16960 0.99410 0.05200
C 	C 	0.08220 0.20060 0.10640 -0.14100
H 	H 	0.04700 0.22370 0.09730 0.08200
H 	H 	0.08260 0.16790 0.13750 0.08300
O 	O 	0.99820 0.07052 0.43570 -0.46900
O 	O 	0.08135 0.07060 0.55230 -0.44300
C 	C 	0.04980 0.08860 0.48340 0.31800
O 	O 	0.49350 0.45827 0.09920 -0.46200
O 	O 	0.41020 0.46089 0.98240 -0.46300
Zn	Zn	0.44560 0.49893 0.92014 1.19600
Fe	Fe	0.26243 0.78361 0.22524 1.16400
C 	C 	0.36720 0.70110 0.11100 -0.67900
C 	C 	0.42550 0.68090 0.15670 0.35600
H 	H 	0.44680 0.69050 0.21090 -0.08700
C 	C 	0.45320 0.64730 0.12540 -0.26700
H 	H 	0.49310 0.63450 0.15810 0.12400
C 	C 	0.42330 0.63200 0.04660 0.09100
C 	C 	0.36650 0.65390 0.99800 -0.25700
H 	H 	0.34660 0.64580 0.94330 0.12400
C 	C 	0.33920 0.68780 0.03040 0.34500
H 	H 	0.30030 0.70250 0.99680 -0.07900
B 	B 	0.33120 0.73190 0.14850 1.53700
O 	O 	0.37020 0.73140 0.23660 -0.50600
N 	N 	0.33880 0.74860 0.27580 -0.18400
C 	C 	0.36130 0.73310 0.34840 0.05900
C 	C 	0.32430 0.75150 0.38190 0.06500
N 	N 	0.27500 0.77380 0.32940 -0.18300
O 	O 	0.23550 0.79437 0.35540 -0.52500
B 	B 	0.19310 0.83580 0.30050 1.56600
N 	N 	0.23780 0.72460 0.15080 -0.17600
O 	O 	0.27573 0.70023 0.12630 -0.52700
C 	C 	0.18050 0.71280 0.11060 0.06200
C 	C 	0.14510 0.74300 0.13870 0.06400
N 	N 	0.17830 0.77890 0.19170 -0.17900
O 	O 	0.15002 0.80810 0.22700 -0.53000
O 	O 	0.31578 0.78927 0.12010 -0.52700
N 	N 	0.28930 0.81780 0.15790 -0.17700
C 	C 	0.28770 0.87160 0.15160 0.06300
C 	C 	0.26120 0.89670 0.19620 0.05300
N 	N 	0.25360 0.86030 0.24050 -0.17700
O 	O 	0.22570 0.87974 0.28340 -0.53600
C 	C 	0.15750 0.86290 0.34160 -0.70100
C 	C 	0.18760 0.88610 0.41600 0.38000
H 	H 	0.23040 0.88390 0.44400 -0.10100
C 	C 	0.24780 0.98260 0.12030 -0.08000
H 	H 	0.24730 0.02330 0.12510 0.04000
H 	H 	0.21130 0.97180 0.07140 0.05600
C 	C 	0.24480 0.95690 0.18910 -0.12500
H 	H 	0.20340 0.96090 0.18230 0.06400
H 	H 	0.27280 0.97640 0.23800 0.07300
C 	C 	0.30270 0.96610 0.11330 -0.05100
H 	H 	0.33910 0.97840 0.16130 0.04100
H 	H 	0.30200 0.98590 0.06800 0.03700
C 	C 	0.30770 0.90450 0.10260 -0.15700
H 	H 	0.28240 0.89470 0.04650 0.09000
H 	H 	0.35000 0.89510 0.11760 0.08600
C 	C 	0.15740 0.91230 0.45090 -0.28200
H 	H 	0.17970 0.92730 0.50230 0.12700
C 	C 	0.09560 0.91690 0.41240 0.09900
C 	C 	0.06370 0.89010 0.34010 -0.27400
H 	H 	0.02090 0.88970 0.31450 0.12800
C 	C 	0.09440 0.86410 0.30540 0.36000
H 	H 	0.07190 0.84670 0.25570 -0.09200
C 	C 	0.06140 0.94800 0.44620 0.32000
C 	C 	0.05720 0.68680 0.04780 -0.06400
H 	H 	0.06130 0.65280 0.07850 0.04400
H 	H 	0.01360 0.69210 0.01190 0.03900
C 	C 	0.07850 0.73480 0.10470 -0.15000
H 	H 	0.05730 0.76890 0.07700 0.08600
H 	H 	0.06850 0.72770 0.14770 0.08600
C 	C 	0.08570 0.67740 0.00120 -0.04600
H 	H 	0.07350 0.70740 0.96170 0.04500
H 	H 	0.06960 0.64240 0.97200 0.03400
C 	C 	0.15360 0.67380 0.04220 -0.16100
H 	H 	0.16630 0.63550 0.06090 0.08600
H 	H 	0.16860 0.68310 0.00450 0.10400
C 	C 	0.40830 0.72660 0.51320 -0.05700
H 	H 	0.43440 0.75910 0.52090 0.04200
H 	H 	0.41660 0.71310 0.56590 0.04500
C 	C 	0.34200 0.74450 0.46750 -0.15500
H 	H 	0.31600 0.71620 0.47350 0.09000
H 	H 	0.33620 0.77980 0.48900 0.09200
C 	C 	0.42380 0.68190 0.47170 -0.07400
H 	H 	0.39700 0.64980 0.46290 0.05600
H 	H 	0.46580 0.66960 0.50590 0.05200
C 	C 	0.41780 0.70060 0.39360 -0.14200
H 	H 	0.45300 0.72370 0.40270 0.08200
H 	H 	0.41740 0.66790 0.36250 0.08300
O 	O 	0.50180 0.57052 0.06430 -0.46800
O 	O 	0.41865 0.57060 0.94770 -0.44300
C 	C 	0.45020 0.58860 0.01660 0.31600
O 	O 	0.00650 0.95827 0.40080 -0.46200
O 	O 	0.08980 0.96089 0.51760 -0.46300
Zn	Zn	0.94560 0.00107 0.42014 1.19600
Fe	Fe	0.76243 0.71639 0.72524 1.16400
C 	C 	0.86720 0.79890 0.61100 -0.67500
C 	C 	0.92550 0.81910 0.65670 0.35300
H 	H 	0.94680 0.80950 0.71090 -0.08600
C 	C 	0.95320 0.85270 0.62540 -0.26400
H 	H 	0.99310 0.86550 0.65810 0.12300
C 	C 	0.92330 0.86800 0.54660 0.08700
C 	C 	0.86650 0.84610 0.49800 -0.25100
H 	H 	0.84660 0.85420 0.44330 0.12200
C 	C 	0.83920 0.81220 0.53040 0.33700
H 	H 	0.80030 0.79750 0.49680 -0.07600
B 	B 	0.83120 0.76810 0.64850 1.53500
O 	O 	0.87020 0.76860 0.73660 -0.50600
N 	N 	0.83880 0.75140 0.77580 -0.18400
C 	C 	0.86130 0.76690 0.84840 0.05800
C 	C 	0.82430 0.74850 0.88190 0.06500
N 	N 	0.77500 0.72620 0.82940 -0.18400
O 	O 	0.73550 0.70563 0.85540 -0.52500
B 	B 	0.69310 0.66420 0.80050 1.56600
N 	N 	0.73780 0.77540 0.65080 -0.17600
O 	O 	0.77573 0.79977 0.62630 -0.52700
C 	C 	0.68050 0.78720 0.61060 0.05900
C 	C 	0.64510 0.75700 0.63870 0.06600
N 	N 	0.67830 0.72110 0.69170 -0.18000
O 	O 	0.65002 0.69190 0.72700 -0.53000
O 	O 	0.81578 0.71073 0.62010 -0.52600
N 	N 	0.78930 0.68220 0.65790 -0.17700
C 	C 	0.78770 0.62840 0.65160 0.06400
C 	C 	0.76120 0.60330 0.69620 0.05200
N 	N 	0.75360 0.63970 0.74050 -0.17700
O 	O 	0.72570 0.62026 0.78340 -0.53600
C 	C 	0.65750 0.63710 0.84160 -0.70100
C 	C 	0.68760 0.61390 0.91600 0.37900
H 	H 	0.73040 0.61610 0.94400 -0.10100
C 	C 	0.74780 0.51740 0.62030 -0.08500
H 	H 	0.74730 0.47670 0.62510 0.04300
H 	H 	0.71130 0.52820 0.57140 0.05700
C 	C 	0.74480 0.54310 0.68910 -0.12200
H 	H 	0.70340 0.53910 0.68230 0.06200
H 	H 	0.77280 0.52360 0.73800 0.07200
C 	C 	0.80270 0.53390 0.61330 -0.04800
H 	H 	0.83910 0.52160 0.66130 0.04000
H 	H 	0.80200 0.51410 0.56800 0.03600
C 	C 	0.80770 0.59550 0.60260 -0.15900
H 	H 	0.78240 0.60530 0.54650 0.08900
H 	H 	0.85000 0.60490 0.61760 0.08600
C 	C 	0.65740 0.58770 0.95090 -0.28200
H 	H 	0.67970 0.57270 0.00230 0.12700
C 	C 	0.59560 0.58310 0.91240 0.09800
C 	C 	0.56370 0.60990 0.84010 -0.27400
H 	H 	0.52090 0.61030 0.81450 0.12800
C 	C 	0.59440 0.63590 0.80540 0.35900
H 	H 	0.57190 0.65330 0.75570 -0.09200
C 	C 	0.56140 0.55200 0.94620 0.32000
C 	C 	0.55720 0.81320 0.54780 -0.05300
H 	H 	0.56130 0.84720 0.57850 0.04000
H 	H 	0.51360 0.80790 0.51190 0.03500
C 	C 	0.57850 0.76520 0.60470 -0.15700
H 	H 	0.55730 0.73110 0.57700 0.08700
H 	H 	0.56850 0.77230 0.64770 0.08700
C 	C 	0.58570 0.82260 0.50120 -0.06300
H 	H 	0.57350 0.79260 0.46170 0.05100
H 	H 	0.56960 0.85760 0.47200 0.04000
C 	C 	0.65360 0.82620 0.54220 -0.15200
H 	H 	0.66630 0.86450 0.56090 0.08300
H 	H 	0.66860 0.81690 0.50450 0.10000
C 	C 	0.90830 0.77340 0.01320 -0.05500
H 	H 	0.93440 0.74090 0.02090 0.04100
H 	H 	0.91660 0.78690 0.06590 0.04500
C 	C 	0.84200 0.75550 0.96750 -0.15600
H 	H 	0.81600 0.78380 0.97350 0.09000
H 	H 	0.83620 0.72020 0.98900 0.09200
C 	C 	0.92380 0.81810 0.97170 -0.07600
H 	H 	0.89700 0.85020 0.96290 0.05700
H 	H 	0.96580 0.83040 0.00590 0.05200
C 	C 	0.91780 0.79940 0.89360 -0.14100
H 	H 	0.95300 0.77630 0.90270 0.08200
H 	H 	0.91740 0.83210 0.86250 0.08300
O 	O 	0.00180 0.92948 0.56430 -0.46900
O 	O 	0.91865 0.92940 0.44770 -0.44300
C 	C 	0.95020 0.91140 0.51660 0.31800
O 	O 	0.50650 0.54173 0.90080 -0.46200
O 	O 	0.58980 0.53911 0.01760 -0.46300
Zn	Zn	0.55440 0.50107 0.07986 1.19600
Fe	Fe	0.73757 0.21639 0.77476 1.16400
C 	C 	0.63280 0.29890 0.88900 -0.67900
C 	C 	0.57450 0.31910 0.84330 0.35600
H 	H 	0.55320 0.30950 0.78910 -0.08700
C 	C 	0.54680 0.35270 0.87460 -0.26700
H 	H 	0.50690 0.36550 0.84190 0.12400
C 	C 	0.57670 0.36800 0.95340 0.09100
C 	C 	0.63350 0.34610 0.00200 -0.25700
H 	H 	0.65340 0.35420 0.05670 0.12400
C 	C 	0.66080 0.31220 0.96960 0.34500
H 	H 	0.69970 0.29750 0.00320 -0.07900
B 	B 	0.66880 0.26810 0.85150 1.53700
O 	O 	0.62980 0.26860 0.76340 -0.50600
N 	N 	0.66120 0.25140 0.72420 -0.18400
C 	C 	0.63870 0.26690 0.65160 0.05900
C 	C 	0.67570 0.24850 0.61810 0.06500
N 	N 	0.72500 0.22620 0.67060 -0.18300
O 	O 	0.76450 0.20563 0.64460 -0.52500
B 	B 	0.80690 0.16420 0.69950 1.56600
N 	N 	0.76220 0.27540 0.84920 -0.17600
O 	O 	0.72427 0.29977 0.87370 -0.52700
C 	C 	0.81950 0.28720 0.88940 0.06200
C 	C 	0.85490 0.25700 0.86130 0.06400
N 	N 	0.82170 0.22110 0.80830 -0.17900
O 	O 	0.84998 0.19190 0.77300 -0.53000
O 	O 	0.68422 0.21073 0.87990 -0.52700
N 	N 	0.71070 0.18220 0.84210 -0.17700
C 	C 	0.71230 0.12840 0.84840 0.06300
C 	C 	0.73880 0.10330 0.80380 0.05300
N 	N 	0.74640 0.13970 0.75950 -0.17700
O 	O 	0.77430 0.12026 0.71660 -0.53600
C 	C 	0.84250 0.13710 0.65840 -0.70100
C 	C 	0.81240 0.11390 0.58400 0.38000
H 	H 	0.76960 0.11610 0.55600 -0.10100
C 	C 	0.75220 0.01740 0.87970 -0.08000
H 	H 	0.75270 0.97670 0.87490 0.04000
H 	H 	0.78870 0.02820 0.92860 0.05600
C 	C 	0.75520 0.04310 0.81090 -0.12500
H 	H 	0.79660 0.03910 0.81770 0.06400
H 	H 	0.72720 0.02360 0.76200 0.07300
C 	C 	0.69730 0.03390 0.88670 -0.05100
H 	H 	0.66090 0.02160 0.83870 0.04100
H 	H 	0.69800 0.01410 0.93200 0.03700
C 	C 	0.69230 0.09550 0.89740 -0.15700
H 	H 	0.71760 0.10530 0.95350 0.09000
H 	H 	0.65000 0.10490 0.88240 0.08600
C 	C 	0.84260 0.08770 0.54910 -0.28200
H 	H 	0.82030 0.07270 0.49770 0.12700
C 	C 	0.90440 0.08310 0.58760 0.09900
C 	C 	0.93630 0.10990 0.65990 -0.27400
H 	H 	0.97910 0.11030 0.68550 0.12800
C 	C 	0.90560 0.13590 0.69460 0.36000
H 	H 	0.92810 0.15330 0.74430 -0.09200
C 	C 	0.93860 0.05200 0.55380 0.32000
C 	C 	0.94280 0.31320 0.95220 -0.06400
H 	H 	0.93870 0.34720 0.92150 0.04400
H 	H 	0.98640 0.30790 0.98810 0.03900
C 	C 	0.92150 0.26520 0.89530 -0.15000
H 	H 	0.94270 0.23110 0.92300 0.08600
H 	H 	0.93150 0.27230 0.85230 0.08600
C 	C 	0.91430 0.32260 0.99880 -0.04600
H 	H 	0.92650 0.29260 0.03830 0.04500
H 	H 	0.93040 0.35760 0.02800 0.03400
C 	C 	0.84640 0.32620 0.95780 -0.16100
H 	H 	0.83370 0.36450 0.93910 0.08600
H 	H 	0.83140 0.31690 0.99550 0.10400
C 	C 	0.59170 0.27340 0.48680 -0.05700
H 	H 	0.56560 0.24090 0.47910 0.04200
H 	H 	0.58340 0.28690 0.43410 0.04500
C 	C 	0.65800 0.25550 0.53250 -0.15500
H 	H 	0.68400 0.28380 0.52650 0.09000
H 	H 	0.66380 0.22020 0.51100 0.09200
C 	C 	0.57620 0.31810 0.52830 -0.07400
H 	H 	0.60300 0.35020 0.53710 0.05600
H 	H 	0.53420 0.33040 0.49410 0.05200
C 	C 	0.58220 0.29940 0.60640 -0.14200
H 	H 	0.54700 0.27630 0.59730 0.08200
H 	H 	0.58260 0.33210 0.63750 0.08300
O 	O 	0.49820 0.42948 0.93570 -0.46800
O 	O 	0.58135 0.42940 0.05230 -0.44300
C 	C 	0.54980 0.41140 0.98340 0.31600
O 	O 	0.99350 0.04173 0.59920 -0.46200
O 	O 	0.91020 0.03911 0.48240 -0.46300
Zn	Zn	0.55440 0.49893 0.57986 1.19600
Fe	Fe	0.73757 0.78361 0.27476 1.16400
C 	C 	0.63280 0.70110 0.38900 -0.67600
C 	C 	0.57450 0.68090 0.34330 0.35300
H 	H 	0.55320 0.69050 0.28910 -0.08600
C 	C 	0.54680 0.64730 0.37460 -0.26400
H 	H 	0.50690 0.63450 0.34190 0.12300
C 	C 	0.57670 0.63200 0.45340 0.08700
C 	C 	0.63350 0.65390 0.50200 -0.25100
H 	H 	0.65340 0.64580 0.55670 0.12200
C 	C 	0.66080 0.68780 0.46960 0.33800
H 	H 	0.69970 0.70250 0.50320 -0.07600
B 	B 	0.66880 0.73190 0.35150 1.53500
O 	O 	0.62980 0.73140 0.26340 -0.50600
N 	N 	0.66120 0.74860 0.22420 -0.18500
C 	C 	0.63870 0.73310 0.15160 0.06000
C 	C 	0.67570 0.75150 0.11810 0.06400
N 	N 	0.72500 0.77380 0.17060 -0.18300
O 	O 	0.76450 0.79437 0.14460 -0.52500
B 	B 	0.80690 0.83580 0.19950 1.56600
N 	N 	0.76220 0.72460 0.34920 -0.17600
O 	O 	0.72427 0.70023 0.37370 -0.52700
C 	C 	0.81950 0.71280 0.38940 0.05900
C 	C 	0.85490 0.74300 0.36130 0.06600
N 	N 	0.82170 0.77890 0.30830 -0.18000
O 	O 	0.84998 0.80810 0.27300 -0.53000
O 	O 	0.68422 0.78927 0.37990 -0.52600
N 	N 	0.71070 0.81780 0.34210 -0.17700
C 	C 	0.71230 0.87160 0.34840 0.06300
C 	C 	0.73880 0.89670 0.30380 0.05300
N 	N 	0.74640 0.86030 0.25950 -0.17700
O 	O 	0.77430 0.87974 0.21660 -0.53500
C 	C 	0.84250 0.86290 0.15840 -0.70000
C 	C 	0.81240 0.88610 0.08400 0.37800
H 	H 	0.76960 0.88390 0.05600 -0.10000
C 	C 	0.75220 0.98260 0.37970 -0.08200
H 	H 	0.75270 0.02330 0.37490 0.04100
H 	H 	0.78870 0.97180 0.42860 0.05600
C 	C 	0.75520 0.95690 0.31090 -0.12400
H 	H 	0.79660 0.96090 0.31770 0.06300
H 	H 	0.72720 0.97640 0.26200 0.07300
C 	C 	0.69730 0.96610 0.38670 -0.05000
H 	H 	0.66090 0.97840 0.33870 0.04100
H 	H 	0.69800 0.98590 0.43200 0.03700
C 	C 	0.69230 0.90450 0.39740 -0.15700
H 	H 	0.71760 0.89470 0.45350 0.08900
H 	H 	0.65000 0.89510 0.38240 0.08600
C 	C 	0.84260 0.91230 0.04910 -0.27900
H 	H 	0.82030 0.92730 0.99770 0.12500
C 	C 	0.90440 0.91690 0.08760 0.09700
C 	C 	0.93630 0.89010 0.15990 -0.27300
H 	H 	0.97910 0.88970 0.18550 0.12700
C 	C 	0.90560 0.86410 0.19460 0.35800
H 	H 	0.92810 0.84670 0.24430 -0.09100
C 	C 	0.93860 0.94800 0.05380 0.32200
C 	C 	0.94280 0.68680 0.45220 -0.05300
H 	H 	0.93870 0.65280 0.42150 0.04000
H 	H 	0.98640 0.69210 0.48810 0.03500
C 	C 	0.92150 0.73480 0.39530 -0.15700
H 	H 	0.94270 0.76890 0.42300 0.08700
H 	H 	0.93150 0.72770 0.35230 0.08700
C 	C 	0.91430 0.67740 0.49880 -0.06300
H 	H 	0.92650 0.70740 0.53830 0.05100
H 	H 	0.93040 0.64240 0.52800 0.04000
C 	C 	0.84640 0.67380 0.45780 -0.15200
H 	H 	0.83370 0.63550 0.43910 0.08300
H 	H 	0.83140 0.68310 0.49550 0.10000
C 	C 	0.59170 0.72660 0.98680 -0.06100
H 	H 	0.56560 0.75910 0.97910 0.04300
H 	H 	0.58340 0.71310 0.93410 0.04600
C 	C 	0.65800 0.74450 0.03250 -0.15300
H 	H 	0.68400 0.71620 0.02650 0.08900
H 	H 	0.66380 0.77980 0.01100 0.09100
C 	C 	0.57620 0.68190 0.02830 -0.07000
H 	H 	0.60300 0.64980 0.03710 0.05500
H 	H 	0.53420 0.66960 0.99410 0.05000
C 	C 	0.58220 0.70060 0.10640 -0.14400
H 	H 	0.54700 0.72370 0.09730 0.08300
H 	H 	0.58260 0.66790 0.13750 0.08300
O 	O 	0.49820 0.57052 0.43570 -0.46800
O 	O 	0.58135 0.57060 0.55230 -0.44300
C 	C 	0.54980 0.58860 0.48340 0.31700
O 	O 	0.99350 0.95827 0.09920 -0.46200
O 	O 	0.91020 0.96089 0.98240 -0.46400
Zn	Zn	0.94560 0.99893 0.92014 1.19600
Fe	Fe	0.76243 0.28361 0.22524 1.16400
C 	C 	0.86720 0.20110 0.11100 -0.66900
C 	C 	0.92550 0.18090 0.15670 0.34800
H 	H 	0.94680 0.19050 0.21090 -0.08500
C 	C 	0.95320 0.14730 0.12540 -0.25900
H 	H 	0.99310 0.13450 0.15810 0.12100
C 	C 	0.92330 0.13200 0.04660 0.08000
C 	C 	0.86650 0.15390 0.99800 -0.23900
H 	H 	0.84660 0.14580 0.94330 0.11800
C 	C 	0.83920 0.18780 0.03040 0.32500
H 	H 	0.80030 0.20250 0.99680 -0.07000
B 	B 	0.83120 0.23190 0.14850 1.53200
O 	O 	0.87020 0.23140 0.23660 -0.50600
N 	N 	0.83880 0.24860 0.27580 -0.18400
C 	C 	0.86130 0.23310 0.34840 0.05800
C 	C 	0.82430 0.25150 0.38190 0.06500
N 	N 	0.77500 0.27380 0.32940 -0.18300
O 	O 	0.73550 0.29437 0.35540 -0.52500
B 	B 	0.69310 0.33580 0.30050 1.56700
N 	N 	0.73780 0.22460 0.15080 -0.17500
O 	O 	0.77573 0.20023 0.12630 -0.52700
C 	C 	0.68050 0.21280 0.11060 0.05500
C 	C 	0.64510 0.24300 0.13870 0.06900
N 	N 	0.67830 0.27890 0.19170 -0.18000
O 	O 	0.65002 0.30810 0.22700 -0.53000
O 	O 	0.81578 0.28927 0.12010 -0.52600
N 	N 	0.78930 0.31780 0.15790 -0.17700
C 	C 	0.78770 0.37160 0.15160 0.06400
C 	C 	0.76120 0.39670 0.19620 0.05200
N 	N 	0.75360 0.36030 0.24050 -0.17700
O 	O 	0.72570 0.37974 0.28340 -0.53600
C 	C 	0.65750 0.36290 0.34160 -0.70100
C 	C 	0.68760 0.38610 0.41600 0.38000
H 	H 	0.73040 0.38390 0.44400 -0.10100
C 	C 	0.74780 0.48260 0.12030 -0.08500
H 	H 	0.74730 0.52330 0.12510 0.04300
H 	H 	0.71130 0.47180 0.07140 0.05700
C 	C 	0.74480 0.45690 0.18910 -0.12200
H 	H 	0.70340 0.46090 0.18230 0.06200
H 	H 	0.77280 0.47640 0.23800 0.07200
C 	C 	0.80270 0.46610 0.11330 -0.04800
H 	H 	0.83910 0.47840 0.16130 0.03900
H 	H 	0.80200 0.48590 0.06800 0.03500
C 	C 	0.80770 0.40450 0.10260 -0.15800
H 	H 	0.78240 0.39470 0.04650 0.08900
H 	H 	0.85000 0.39510 0.11760 0.08600
C 	C 	0.65740 0.41230 0.45090 -0.28200
H 	H 	0.67970 0.42730 0.50230 0.12700
C 	C 	0.59560 0.41690 0.41240 0.09900
C 	C 	0.56370 0.39010 0.34010 -0.27400
H 	H 	0.52090 0.38970 0.31450 0.12800
C 	C 	0.59440 0.36410 0.30540 0.36000
H 	H 	0.57190 0.34670 0.25570 -0.09200
C 	C 	0.56140 0.44800 0.44620 0.32000
C 	C 	0.55720 0.18680 0.04780 -0.04100
H 	H 	0.56130 0.15280 0.07850 0.03700
H 	H 	0.51360 0.19210 0.01190 0.03100
C 	C 	0.57850 0.23480 0.10470 -0.16300
H 	H 	0.55730 0.26890 0.07700 0.08900
H 	H 	0.56850 0.22770 0.14770 0.08900
C 	C 	0.58570 0.17740 0.00120 -0.07800
H 	H 	0.57350 0.20740 0.96170 0.05600
H 	H 	0.56960 0.14240 0.97200 0.04600
C 	C 	0.65360 0.17380 0.04220 -0.14300
H 	H 	0.66630 0.13550 0.06090 0.08000
H 	H 	0.66860 0.18310 0.00450 0.09700
C 	C 	0.90830 0.22660 0.51320 -0.05700
H 	H 	0.93440 0.25910 0.52090 0.04200
H 	H 	0.91660 0.21310 0.56590 0.04500
C 	C 	0.84200 0.24450 0.46750 -0.15500
H 	H 	0.81600 0.21620 0.47350 0.09000
H 	H 	0.83620 0.27980 0.48900 0.09200
C 	C 	0.92380 0.18190 0.47170 -0.07400
H 	H 	0.89700 0.14980 0.46290 0.05600
H 	H 	0.96580 0.16960 0.50590 0.05200
C 	C 	0.91780 0.20060 0.39360 -0.14200
H 	H 	0.95300 0.22370 0.40270 0.08200
H 	H 	0.91740 0.16790 0.36250 0.08200
O 	O 	0.00180 0.07052 0.06430 -0.46700
O 	O 	0.91865 0.07060 0.94770 -0.44000
C 	C 	0.95020 0.08860 0.01660 0.31400
O 	O 	0.50650 0.45827 0.40080 -0.46200
O 	O 	0.58980 0.46089 0.51760 -0.46300
Zn	Zn	0.44560 0.50107 0.42014 1.19600
Fe	Fe	0.26243 0.21639 0.72524 1.16400
C 	C 	0.36720 0.29890 0.61100 -0.67600
C 	C 	0.42550 0.31910 0.65670 0.35300
H 	H 	0.44680 0.30950 0.71090 -0.08600
C 	C 	0.45320 0.35270 0.62540 -0.26400
H 	H 	0.49310 0.36550 0.65810 0.12300
C 	C 	0.42330 0.36800 0.54660 0.08700
C 	C 	0.36650 0.34610 0.49800 -0.25100
H 	H 	0.34660 0.35420 0.44330 0.12200
C 	C 	0.33920 0.31220 0.53040 0.33800
H 	H 	0.30030 0.29750 0.49680 -0.07600
B 	B 	0.33120 0.26810 0.64850 1.53500
O 	O 	0.37020 0.26860 0.73660 -0.50600
N 	N 	0.33880 0.25140 0.77580 -0.18500
C 	C 	0.36130 0.26690 0.84840 0.06000
C 	C 	0.32430 0.24850 0.88190 0.06400
N 	N 	0.27500 0.22620 0.82940 -0.18300
O 	O 	0.23550 0.20563 0.85540 -0.52500
B 	B 	0.19310 0.16420 0.80050 1.56600
N 	N 	0.23780 0.27540 0.65080 -0.17600
O 	O 	0.27573 0.29977 0.62630 -0.52700
C 	C 	0.18050 0.28720 0.61060 0.05900
C 	C 	0.14510 0.25700 0.63870 0.06600
N 	N 	0.17830 0.22110 0.69170 -0.18000
O 	O 	0.15002 0.19190 0.72700 -0.53000
O 	O 	0.31578 0.21073 0.62010 -0.52600
N 	N 	0.28930 0.18220 0.65790 -0.17700
C 	C 	0.28770 0.12840 0.65160 0.06300
C 	C 	0.26120 0.10330 0.69620 0.05300
N 	N 	0.25360 0.13970 0.74050 -0.17700
O 	O 	0.22570 0.12026 0.78340 -0.53500
C 	C 	0.15750 0.13710 0.84160 -0.70000
C 	C 	0.18760 0.11390 0.91600 0.37800
H 	H 	0.23040 0.11610 0.94400 -0.10000
C 	C 	0.24780 0.01740 0.62030 -0.08200
H 	H 	0.24730 0.97670 0.62510 0.04100
H 	H 	0.21130 0.02820 0.57140 0.05600
C 	C 	0.24480 0.04310 0.68910 -0.12400
H 	H 	0.20340 0.03910 0.68230 0.06300
H 	H 	0.27280 0.02360 0.73800 0.07300
C 	C 	0.30270 0.03390 0.61330 -0.05000
H 	H 	0.33910 0.02160 0.66130 0.04100
H 	H 	0.30200 0.01410 0.56800 0.03700
C 	C 	0.30770 0.09550 0.60260 -0.15700
H 	H 	0.28240 0.10530 0.54650 0.08900
H 	H 	0.35000 0.10490 0.61760 0.08600
C 	C 	0.15740 0.08770 0.95090 -0.27900
H 	H 	0.17970 0.07270 0.00230 0.12500
C 	C 	0.09560 0.08310 0.91240 0.09700
C 	C 	0.06370 0.10990 0.84010 -0.27300
H 	H 	0.02090 0.11030 0.81450 0.12700
C 	C 	0.09440 0.13590 0.80540 0.35800
H 	H 	0.07190 0.15330 0.75570 -0.09100
C 	C 	0.06140 0.05200 0.94620 0.32200
C 	C 	0.05720 0.31320 0.54780 -0.05300
H 	H 	0.06130 0.34720 0.57850 0.04000
H 	H 	0.01360 0.30790 0.51190 0.03500
C 	C 	0.07850 0.26520 0.60470 -0.15700
H 	H 	0.05730 0.23110 0.57700 0.08700
H 	H 	0.06850 0.27230 0.64770 0.08700
C 	C 	0.08570 0.32260 0.50120 -0.06300
H 	H 	0.07350 0.29260 0.46170 0.05100
H 	H 	0.06960 0.35760 0.47200 0.04000
C 	C 	0.15360 0.32620 0.54220 -0.15200
H 	H 	0.16630 0.36450 0.56090 0.08300
H 	H 	0.16860 0.31690 0.50450 0.10000
C 	C 	0.40830 0.27340 0.01320 -0.06100
H 	H 	0.43440 0.24090 0.02090 0.04300
H 	H 	0.41660 0.28690 0.06590 0.04600
C 	C 	0.34200 0.25550 0.96750 -0.15300
H 	H 	0.31600 0.28380 0.97350 0.08900
H 	H 	0.33620 0.22020 0.98900 0.09100
C 	C 	0.42380 0.31810 0.97170 -0.07000
H 	H 	0.39700 0.35020 0.96290 0.05500
H 	H 	0.46580 0.33040 0.00590 0.05000
C 	C 	0.41780 0.29940 0.89360 -0.14400
H 	H 	0.45300 0.27630 0.90270 0.08300
H 	H 	0.41740 0.33210 0.86250 0.08300
O 	O 	0.50180 0.42948 0.56430 -0.46800
O 	O 	0.41865 0.42940 0.44770 -0.44300
C 	C 	0.45020 0.41140 0.51660 0.31700
O 	O 	0.00650 0.04173 0.90080 -0.46200
O 	O 	0.08980 0.03911 0.01760 -0.46400
Zn	Zn	0.05440 0.00107 0.07986 1.19600
Fe	Fe	0.23757 0.71639 0.77476 1.16400
C 	C 	0.13280 0.79890 0.88900 -0.66900
C 	C 	0.07450 0.81910 0.84330 0.34800
H 	H 	0.05320 0.80950 0.78910 -0.08500
C 	C 	0.04680 0.85270 0.87460 -0.25900
H 	H 	0.00690 0.86550 0.84190 0.12100
C 	C 	0.07670 0.86800 0.95340 0.08000
C 	C 	0.13350 0.84610 0.00200 -0.23900
H 	H 	0.15340 0.85420 0.05670 0.11800
C 	C 	0.16080 0.81220 0.96960 0.32500
H 	H 	0.19970 0.79750 0.00320 -0.07000
B 	B 	0.16880 0.76810 0.85150 1.53200
O 	O 	0.12980 0.76860 0.76340 -0.50600
N 	N 	0.16120 0.75140 0.72420 -0.18400
C 	C 	0.13870 0.76690 0.65160 0.05800
C 	C 	0.17570 0.74850 0.61810 0.06500
N 	N 	0.22500 0.72620 0.67060 -0.18300
O 	O 	0.26450 0.70563 0.64460 -0.52500
B 	B 	0.30690 0.66420 0.69950 1.56700
N 	N 	0.26220 0.77540 0.84920 -0.17500
O 	O 	0.22427 0.79977 0.87370 -0.52700
C 	C 	0.31950 0.78720 0.88940 0.05500
C 	C 	0.35490 0.75700 0.86130 0.06900
N 	N 	0.32170 0.72110 0.80830 -0.18000
O 	O 	0.34998 0.69190 0.77300 -0.53000
O 	O 	0.18422 0.71073 0.87990 -0.52600
N 	N 	0.21070 0.68220 0.84210 -0.17700
C 	C 	0.21230 0.62840 0.84840 0.06400
C 	C 	0.23880 0.60330 0.80380 0.05200
N 	N 	0.24640 0.63970 0.75950 -0.17700
O 	O 	0.27430 0.62026 0.71660 -0.53600
C 	C 	0.34250 0.63710 0.65840 -0.70100
C 	C 	0.31240 0.61390 0.58400 0.38000
H 	H 	0.26960 0.61610 0.55600 -0.10100
C 	C 	0.25220 0.51740 0.87970 -0.08500
H 	H 	0.25270 0.47670 0.87490 0.04300
H 	H 	0.28870 0.52820 0.92860 0.05700
C 	C 	0.25520 0.54310 0.81090 -0.12200
H 	H 	0.29660 0.53910 0.81770 0.06200
H 	H 	0.22720 0.52360 0.76200 0.07200
C 	C 	0.19730 0.53390 0.88670 -0.04800
H 	H 	0.16090 0.52160 0.83870 0.03900
H 	H 	0.19800 0.51410 0.93200 0.03500
C 	C 	0.19230 0.59550 0.89740 -0.15800
H 	H 	0.21760 0.60530 0.95350 0.08900
H 	H 	0.15000 0.60490 0.88240 0.08600
C 	C 	0.34260 0.58770 0.54910 -0.28200
H 	H 	0.32030 0.57270 0.49770 0.12700
C 	C 	0.40440 0.58310 0.58760 0.09900
C 	C 	0.43630 0.60990 0.65990 -0.27400
H 	H 	0.47910 0.61030 0.68550 0.12800
C 	C 	0.40560 0.63590 0.69460 0.36000
H 	H 	0.42810 0.65330 0.74430 -0.09200
C 	C 	0.43860 0.55200 0.55380 0.32000
C 	C 	0.44280 0.81320 0.95220 -0.04100
H 	H 	0.43870 0.84720 0.92150 0.03700
H 	H 	0.48640 0.80790 0.98810 0.03100
C 	C 	0.42150 0.76520 0.89530 -0.16300
H 	H 	0.44270 0.73110 0.92300 0.08900
H 	H 	0.43150 0.77230 0.85230 0.08900
C 	C 	0.41430 0.82260 0.99880 -0.07800
H 	H 	0.42650 0.79260 0.03830 0.05600
H 	H 	0.43040 0.85760 0.02800 0.04600
C 	C 	0.34640 0.82620 0.95780 -0.14300
H 	H 	0.33370 0.86450 0.93910 0.08000
H 	H 	0.33140 0.81690 0.99550 0.09700
C 	C 	0.09170 0.77340 0.48680 -0.05700
H 	H 	0.06560 0.74090 0.47910 0.04200
H 	H 	0.08340 0.78690 0.43410 0.04500
C 	C 	0.15800 0.75550 0.53250 -0.15500
H 	H 	0.18400 0.78380 0.52650 0.09000
H 	H 	0.16380 0.72020 0.51100 0.09200
C 	C 	0.07620 0.81810 0.52830 -0.07400
H 	H 	0.10300 0.85020 0.53710 0.05600
H 	H 	0.03420 0.83040 0.49410 0.05200
C 	C 	0.08220 0.79940 0.60640 -0.14200
H 	H 	0.04700 0.77630 0.59730 0.08200
H 	H 	0.08260 0.83210 0.63750 0.08200
O 	O 	0.99820 0.92948 0.93570 -0.46700
O 	O 	0.08135 0.92940 0.05230 -0.44000
C 	C 	0.04980 0.91140 0.98340 0.31400
O 	O 	0.49350 0.54173 0.59920 -0.46200
O 	O 	0.41020 0.53911 0.48240 -0.46300
