data_crystal

_cell_length_a 30.59400
_cell_length_b 30.59400
_cell_length_c 15.96460
_cell_angle_alpha 90.00000
_cell_angle_beta  90.00000
_cell_angle_gamma 120.00000

_symmetry_space_group_name_	'P 1'
_symmetry_space_group_name_H-M	'P 1'

loop_
_symmetry_equiv_pos_as_xyz
  x,y,z

loop_
_atom_site_label
_atom_site_type_symbol
_atom_site_fract_x
_atom_site_fract_y
_atom_site_fract_z
_atom_site_charge
N 	N 	0.51850 0.45410 0.57150 -0.23600
C 	C 	0.56460 0.46120 0.55720 0.06000
C 	C 	0.58260 0.43170 0.59580 -0.12000
H 	H 	0.61490 0.43740 0.58480 0.07800
C 	C 	0.55110 0.39450 0.64970 0.04500
H 	H 	0.56050 0.37300 0.67460 0.01600
C 	C 	0.50390 0.39000 0.66580 -0.13200
H 	H 	0.48280 0.36680 0.70550 0.08100
C 	C 	0.48790 0.41890 0.62500 0.07800
H 	H 	0.45570 0.41390 0.63470 -0.00300
N 	N 	0.56990 0.52450 0.45690 -0.20500
N 	N 	0.60490 0.55823 0.40500 -0.09600
N 	N 	0.64040 0.51660 0.47030 -0.12000
C 	C 	0.64410 0.55200 0.41310 0.07500
C 	C 	0.59160 0.49920 0.49530 0.05200
N 	N 	0.77514 0.63810 0.25930 -0.24500
C 	C 	0.73270 0.63850 0.24760 0.09900
H 	H 	0.73060 0.65630 0.20190 -0.00800
C 	C 	0.69130 0.61420 0.29870 -0.16600
H 	H 	0.66350 0.61840 0.29180 0.09200
C 	C 	0.69210 0.58330 0.36050 0.09400
C 	C 	0.73550 0.58470 0.37810 -0.17700
H 	H 	0.73870 0.56780 0.42390 0.10300
C 	C 	0.77500 0.61240 0.32520 0.11100
H 	H 	0.80510 0.61310 0.33720 -0.01300
N 	N 	0.18517 0.78743 0.90483 -0.23300
C 	C 	0.23127 0.79453 0.89053 0.06800
C 	C 	0.24927 0.76503 0.92913 -0.13400
H 	H 	0.28157 0.77073 0.91813 0.08700
C 	C 	0.21777 0.72783 0.98303 0.07900
H 	H 	0.22717 0.70633 0.00793 -0.01200
C 	C 	0.17057 0.72333 0.99913 -0.10500
H 	H 	0.14947 0.70013 0.03883 0.05800
C 	C 	0.15457 0.75223 0.95833 0.06900
H 	H 	0.12237 0.74723 0.96803 0.00500
N 	N 	0.23657 0.85783 0.79023 -0.20400
N 	N 	0.27157 0.89156 0.73833 -0.09500
N 	N 	0.30707 0.84993 0.80363 -0.11800
C 	C 	0.31077 0.88533 0.74643 0.07700
C 	C 	0.25827 0.83253 0.82863 0.05200
N 	N 	0.44181 0.97143 0.59263 -0.24000
C 	C 	0.39937 0.97183 0.58093 0.09900
H 	H 	0.39727 0.98963 0.53523 -0.00100
C 	C 	0.35797 0.94753 0.63203 -0.16300
H 	H 	0.33017 0.95173 0.62513 0.09400
C 	C 	0.35877 0.91663 0.69383 0.09400
C 	C 	0.40217 0.91803 0.71143 -0.17400
H 	H 	0.40537 0.90113 0.75723 0.10400
C 	C 	0.44167 0.94573 0.65853 0.11300
H 	H 	0.47177 0.94643 0.67053 -0.01000
N 	N 	0.85183 0.12077 0.23817 -0.23500
C 	C 	0.89793 0.12787 0.22387 0.06100
C 	C 	0.91593 0.09837 0.26247 -0.12100
H 	H 	0.94823 0.10407 0.25147 0.08000
C 	C 	0.88443 0.06117 0.31637 0.04500
H 	H 	0.89383 0.03967 0.34127 0.01200
C 	C 	0.83723 0.05667 0.33247 -0.13300
H 	H 	0.81613 0.03347 0.37217 0.07600
C 	C 	0.82123 0.08557 0.29167 0.07600
H 	H 	0.78903 0.08057 0.30137 -0.00500
N 	N 	0.90323 0.19117 0.12357 -0.20600
N 	N 	0.93823 0.22490 0.07167 -0.10000
N 	N 	0.97373 0.18327 0.13697 -0.11700
C 	C 	0.97743 0.21867 0.07977 0.08300
C 	C 	0.92493 0.16587 0.16197 0.05100
N 	N 	0.10847 0.30477 0.92597 -0.26200
C 	C 	0.06603 0.30517 0.91427 0.11700
H 	H 	0.06393 0.32297 0.86857 -0.01600
C 	C 	0.02463 0.28087 0.96537 -0.18900
H 	H 	0.99683 0.28507 0.95847 0.11700
C 	C 	0.02543 0.24997 0.02717 0.08800
C 	C 	0.06883 0.25137 0.04477 -0.24200
H 	H 	0.07203 0.23447 0.09057 0.12000
C 	C 	0.10833 0.27907 0.99187 0.19900
H 	H 	0.13843 0.27977 0.00387 -0.05900
N 	N 	0.54590 0.06440 0.57150 -0.23700
C 	C 	0.53880 0.10340 0.55720 0.06000
C 	C 	0.56830 0.15090 0.59580 -0.11900
H 	H 	0.56260 0.17750 0.58480 0.07800
C 	C 	0.60550 0.15660 0.64970 0.04600
H 	H 	0.62700 0.18750 0.67460 0.01600
C 	C 	0.61000 0.11390 0.66580 -0.13300
H 	H 	0.63320 0.11600 0.70550 0.08100
C 	C 	0.58110 0.06900 0.62500 0.07800
H 	H 	0.58610 0.04180 0.63470 -0.00800
N 	N 	0.47550 0.04540 0.45690 -0.20800
N 	N 	0.44177 0.04667 0.40500 -0.10000
N 	N 	0.48340 0.12380 0.47030 -0.12000
C 	C 	0.44800 0.09210 0.41310 0.07400
C 	C 	0.50080 0.09240 0.49530 0.05100
N 	N 	0.36190 0.13704 0.25930 -0.24500
C 	C 	0.36150 0.09420 0.24760 0.09700
H 	H 	0.34370 0.07430 0.20190 -0.01000
C 	C 	0.38580 0.07710 0.29870 -0.16500
H 	H 	0.38160 0.04510 0.29180 0.08700
C 	C 	0.41670 0.10880 0.36050 0.09200
C 	C 	0.41530 0.15080 0.37810 -0.17500
H 	H 	0.43220 0.17090 0.42390 0.10300
C 	C 	0.38760 0.16260 0.32520 0.11000
H 	H 	0.38690 0.19200 0.33720 -0.01200
N 	N 	0.21257 0.39773 0.90483 -0.23300
C 	C 	0.20547 0.43673 0.89053 0.06800
C 	C 	0.23497 0.48423 0.92913 -0.13400
H 	H 	0.22927 0.51083 0.91813 0.08700
C 	C 	0.27217 0.48993 0.98303 0.07900
H 	H 	0.29367 0.52083 0.00793 -0.01200
C 	C 	0.27667 0.44723 0.99913 -0.10500
H 	H 	0.29987 0.44933 0.03883 0.05800
C 	C 	0.24777 0.40233 0.95833 0.06900
H 	H 	0.25277 0.37513 0.96803 0.00600
N 	N 	0.14217 0.37873 0.79023 -0.20400
N 	N 	0.10844 0.38000 0.73833 -0.09700
N 	N 	0.15007 0.45713 0.80363 -0.11900
C 	C 	0.11467 0.42543 0.74643 0.07400
C 	C 	0.16747 0.42573 0.82863 0.05100
N 	N 	0.02857 0.47037 0.59263 -0.24800
C 	C 	0.02817 0.42753 0.58093 0.09800
H 	H 	0.01037 0.40763 0.53523 -0.01300
C 	C 	0.05247 0.41043 0.63203 -0.16800
H 	H 	0.04827 0.37843 0.62513 0.09100
C 	C 	0.08337 0.44213 0.69383 0.09300
C 	C 	0.08197 0.48413 0.71143 -0.17800
H 	H 	0.09887 0.50423 0.75723 0.10300
C 	C 	0.05427 0.49593 0.65853 0.11000
H 	H 	0.05357 0.52533 0.67053 -0.01500
N 	N 	0.87923 0.73107 0.23817 -0.23500
C 	C 	0.87213 0.77007 0.22387 0.06100
C 	C 	0.90163 0.81757 0.26247 -0.11800
H 	H 	0.89593 0.84417 0.25147 0.07900
C 	C 	0.93883 0.82327 0.31637 0.04700
H 	H 	0.96033 0.85417 0.34127 0.02000
C 	C 	0.94333 0.78057 0.33247 -0.13100
H 	H 	0.96653 0.78267 0.37217 0.08600
C 	C 	0.91443 0.73567 0.29167 0.08000
H 	H 	0.91943 0.70847 0.30137 -0.00200
N 	N 	0.80883 0.71207 0.12357 -0.20600
N 	N 	0.77510 0.71334 0.07167 -0.10000
N 	N 	0.81673 0.79047 0.13697 -0.11900
C 	C 	0.78133 0.75877 0.07977 0.07000
C 	C 	0.83413 0.75907 0.16197 0.05100
N 	N 	0.69523 0.80371 0.92597 -0.25700
C 	C 	0.69483 0.76087 0.91427 0.09900
H 	H 	0.67703 0.74097 0.86857 -0.00600
C 	C 	0.71913 0.74377 0.96537 -0.15000
H 	H 	0.71493 0.71177 0.95847 0.09200
C 	C 	0.75003 0.77547 0.02717 0.09300
C 	C 	0.74863 0.81747 0.04477 -0.23600
H 	H 	0.76553 0.83757 0.09057 0.12300
C 	C 	0.72093 0.82927 0.99187 0.19400
H 	H 	0.72023 0.85867 0.00387 -0.05500
N 	N 	0.93560 0.48150 0.57150 -0.23100
C 	C 	0.89660 0.43540 0.55720 0.06100
C 	C 	0.84910 0.41740 0.59580 -0.11800
H 	H 	0.82250 0.38510 0.58480 0.07700
C 	C 	0.84340 0.44890 0.64970 0.04400
H 	H 	0.81250 0.43950 0.67460 0.01600
C 	C 	0.88610 0.49610 0.66580 -0.13000
H 	H 	0.88400 0.51720 0.70550 0.08100
C 	C 	0.93100 0.51210 0.62500 0.07800
H 	H 	0.95820 0.54430 0.63470 0.00200
N 	N 	0.95460 0.43010 0.45690 -0.19900
N 	N 	0.95333 0.39510 0.40500 -0.09100
N 	N 	0.87620 0.35960 0.47030 -0.12000
C 	C 	0.90790 0.35590 0.41310 0.07600
C 	C 	0.90760 0.40840 0.49530 0.05400
N 	N 	0.86296 0.22486 0.25930 -0.24500
C 	C 	0.90580 0.26730 0.24760 0.10100
H 	H 	0.92570 0.26940 0.20190 -0.00600
C 	C 	0.92290 0.30870 0.29870 -0.16700
H 	H 	0.95490 0.33650 0.29180 0.09700
C 	C 	0.89120 0.30790 0.36050 0.09600
C 	C 	0.84920 0.26450 0.37810 -0.17800
H 	H 	0.82910 0.26130 0.42390 0.10400
C 	C 	0.83740 0.22500 0.32520 0.11300
H 	H 	0.80800 0.19490 0.33720 -0.01300
N 	N 	0.60227 0.81483 0.90483 -0.23300
C 	C 	0.56327 0.76873 0.89053 0.06800
C 	C 	0.51577 0.75073 0.92913 -0.13400
H 	H 	0.48917 0.71843 0.91813 0.08700
C 	C 	0.51007 0.78223 0.98303 0.07900
H 	H 	0.47917 0.77283 0.00793 -0.01100
C 	C 	0.55277 0.82943 0.99913 -0.10600
H 	H 	0.55067 0.85053 0.03883 0.05900
C 	C 	0.59767 0.84543 0.95833 0.07000
H 	H 	0.62487 0.87763 0.96803 0.00600
N 	N 	0.62127 0.76343 0.79023 -0.20400
N 	N 	0.62000 0.72843 0.73833 -0.09600
N 	N 	0.54287 0.69293 0.80363 -0.11800
C 	C 	0.57457 0.68923 0.74643 0.07600
C 	C 	0.57427 0.74173 0.82863 0.05100
N 	N 	0.52963 0.55819 0.59263 -0.24500
C 	C 	0.57247 0.60063 0.58093 0.09900
H 	H 	0.59237 0.60273 0.53523 -0.00700
C 	C 	0.58957 0.64203 0.63203 -0.16600
H 	H 	0.62157 0.66983 0.62513 0.09200
C 	C 	0.55787 0.64123 0.69383 0.09400
C 	C 	0.51587 0.59783 0.71143 -0.17600
H 	H 	0.49577 0.59463 0.75723 0.10400
C 	C 	0.50407 0.55833 0.65853 0.11100
H 	H 	0.47467 0.52823 0.67053 -0.01300
N 	N 	0.26893 0.14817 0.23817 -0.23500
C 	C 	0.22993 0.10207 0.22387 0.05800
C 	C 	0.18243 0.08407 0.26247 -0.11900
H 	H 	0.15583 0.05177 0.25147 0.07000
C 	C 	0.17673 0.11557 0.31637 0.04300
H 	H 	0.14583 0.10617 0.34127 0.01200
C 	C 	0.21943 0.16277 0.33247 -0.13200
H 	H 	0.21733 0.18387 0.37217 0.08000
C 	C 	0.26433 0.17877 0.29167 0.07700
H 	H 	0.29153 0.21097 0.30137 -0.00300
N 	N 	0.28793 0.09677 0.12357 -0.20700
N 	N 	0.28666 0.06177 0.07167 -0.10000
N 	N 	0.20953 0.02627 0.13697 -0.12400
C 	C 	0.24123 0.02257 0.07977 0.05600
C 	C 	0.24093 0.07507 0.16197 0.04900
N 	N 	0.19629 0.89153 0.92597 -0.25300
C 	C 	0.23913 0.93397 0.91427 0.08100
H 	H 	0.25903 0.93607 0.86857 0.00400
C 	C 	0.25623 0.97537 0.96537 -0.10800
H 	H 	0.28823 0.00317 0.95847 0.06600
C 	C 	0.22453 0.97457 0.02717 0.09700
C 	C 	0.18253 0.93117 0.04477 -0.23700
H 	H 	0.16243 0.92797 0.09057 0.12600
C 	C 	0.17073 0.89167 0.99187 0.19500
H 	H 	0.14133 0.86157 0.00387 -0.05700
N 	N 	0.48150 0.54590 0.42850 -0.23500
C 	C 	0.43540 0.53880 0.44280 0.06100
C 	C 	0.41740 0.56830 0.40420 -0.11900
H 	H 	0.38510 0.56260 0.41520 0.07700
C 	C 	0.44890 0.60550 0.35030 0.04500
H 	H 	0.43950 0.62700 0.32540 0.01400
C 	C 	0.49610 0.61000 0.33420 -0.13300
H 	H 	0.51720 0.63320 0.29450 0.08000
C 	C 	0.51210 0.58110 0.37500 0.07800
H 	H 	0.54430 0.58610 0.36530 -0.00400
N 	N 	0.43010 0.47550 0.54310 -0.20500
N 	N 	0.39510 0.44177 0.59500 -0.09600
N 	N 	0.35960 0.48340 0.52970 -0.12000
C 	C 	0.35590 0.44800 0.58690 0.07500
C 	C 	0.40840 0.50080 0.50470 0.05200
N 	N 	0.22486 0.36190 0.74070 -0.24500
C 	C 	0.26730 0.36150 0.75240 0.09800
H 	H 	0.26940 0.34370 0.79810 -0.00600
C 	C 	0.30870 0.38580 0.70130 -0.16500
H 	H 	0.33650 0.38160 0.70820 0.09200
C 	C 	0.30790 0.41670 0.63950 0.09400
C 	C 	0.26450 0.41530 0.62190 -0.17600
H 	H 	0.26130 0.43220 0.57610 0.10300
C 	C 	0.22500 0.38760 0.67480 0.11100
H 	H 	0.19490 0.38690 0.66280 -0.01300
N 	N 	0.14817 0.87923 0.76183 -0.23400
C 	C 	0.10207 0.87213 0.77613 0.06000
C 	C 	0.08407 0.90163 0.73753 -0.11700
H 	H 	0.05177 0.89593 0.74853 0.07500
C 	C 	0.11557 0.93883 0.68363 0.04600
H 	H 	0.10617 0.96033 0.65873 0.01800
C 	C 	0.16277 0.94333 0.66753 -0.13100
H 	H 	0.18387 0.96653 0.62783 0.08500
C 	C 	0.17877 0.91443 0.70833 0.08000
H 	H 	0.21097 0.91943 0.69863 -0.00200
N 	N 	0.09677 0.80883 0.87643 -0.20300
N 	N 	0.06177 0.77510 0.92833 -0.09200
N 	N 	0.02627 0.81673 0.86303 -0.12200
C 	C 	0.02257 0.78133 0.92023 0.06900
C 	C 	0.07507 0.83413 0.83803 0.05300
N 	N 	0.89153 0.69523 0.07403 -0.22800
C 	C 	0.93397 0.69483 0.08573 0.07800
H 	H 	0.93607 0.67703 0.13143 0.00200
C 	C 	0.97537 0.71913 0.03463 -0.13600
H 	H 	0.00317 0.71493 0.04153 0.06400
C 	C 	0.97457 0.75003 0.97283 0.09600
C 	C 	0.93117 0.74863 0.95523 -0.11300
H 	H 	0.92797 0.76553 0.90943 0.08600
C 	C 	0.89167 0.72093 0.00813 0.02800
H 	H 	0.86157 0.72023 0.99613 0.03100
N 	N 	0.81483 0.21257 0.09517 -0.23600
C 	C 	0.76873 0.20547 0.10947 0.05300
C 	C 	0.75073 0.23497 0.07087 -0.10400
H 	H 	0.71843 0.22927 0.08187 0.06800
C 	C 	0.78223 0.27217 0.01697 0.01100
H 	H 	0.77283 0.29367 0.99207 0.04100
C 	C 	0.82943 0.27667 0.00087 -0.15800
H 	H 	0.85053 0.29987 0.96117 0.10200
C 	C 	0.84543 0.24777 0.04167 0.08600
H 	H 	0.87763 0.25277 0.03197 -0.01200
N 	N 	0.76343 0.14217 0.20977 -0.20500
N 	N 	0.72843 0.10844 0.26167 -0.09700
N 	N 	0.69293 0.15007 0.19637 -0.12100
C 	C 	0.68923 0.11467 0.25357 0.07300
C 	C 	0.74173 0.16747 0.17137 0.05200
N 	N 	0.55819 0.02857 0.40737 -0.24800
C 	C 	0.60063 0.02817 0.41907 0.09700
H 	H 	0.60273 0.01037 0.46477 -0.01300
C 	C 	0.64203 0.05247 0.36797 -0.16800
H 	H 	0.66983 0.04827 0.37487 0.09100
C 	C 	0.64123 0.08337 0.30617 0.09300
C 	C 	0.59783 0.08197 0.28857 -0.17900
H 	H 	0.59463 0.09887 0.24277 0.10200
C 	C 	0.55833 0.05427 0.34147 0.11000
H 	H 	0.52823 0.05357 0.32947 -0.01500
N 	N 	0.45410 0.93560 0.42850 -0.23100
C 	C 	0.46120 0.89660 0.44280 0.06100
C 	C 	0.43170 0.84910 0.40420 -0.11900
H 	H 	0.43740 0.82250 0.41520 0.07700
C 	C 	0.39450 0.84340 0.35030 0.04500
H 	H 	0.37300 0.81250 0.32540 0.01400
C 	C 	0.39000 0.88610 0.33420 -0.13100
H 	H 	0.36680 0.88400 0.29450 0.08100
C 	C 	0.41890 0.93100 0.37500 0.07800
H 	H 	0.41390 0.95820 0.36530 0.00200
N 	N 	0.52450 0.95460 0.54310 -0.19900
N 	N 	0.55823 0.95333 0.59500 -0.09100
N 	N 	0.51660 0.87620 0.52970 -0.12000
C 	C 	0.55200 0.90790 0.58690 0.07600
C 	C 	0.49920 0.90760 0.50470 0.05400
N 	N 	0.63810 0.86296 0.74070 -0.24500
C 	C 	0.63850 0.90580 0.75240 0.10000
H 	H 	0.65630 0.92570 0.79810 -0.00500
C 	C 	0.61420 0.92290 0.70130 -0.16600
H 	H 	0.61840 0.95490 0.70820 0.09800
C 	C 	0.58330 0.89120 0.63950 0.09600
C 	C 	0.58470 0.84920 0.62190 -0.17800
H 	H 	0.56780 0.82910 0.57610 0.10400
C 	C 	0.61240 0.83740 0.67480 0.11200
H 	H 	0.61310 0.80800 0.66280 -0.01300
N 	N 	0.12077 0.26893 0.76183 -0.23500
C 	C 	0.12787 0.22993 0.77613 0.06000
C 	C 	0.09837 0.18243 0.73753 -0.12000
H 	H 	0.10407 0.15583 0.74853 0.07600
C 	C 	0.06117 0.17673 0.68363 0.04300
H 	H 	0.03967 0.14583 0.65873 0.01000
C 	C 	0.05667 0.21943 0.66753 -0.13300
H 	H 	0.03347 0.21733 0.62783 0.07600
C 	C 	0.08557 0.26433 0.70833 0.07600
H 	H 	0.08057 0.29153 0.69863 -0.00500
N 	N 	0.19117 0.28793 0.87643 -0.20300
N 	N 	0.22490 0.28666 0.92833 -0.09200
N 	N 	0.18327 0.20953 0.86303 -0.12000
C 	C 	0.21867 0.24123 0.92023 0.08100
C 	C 	0.16587 0.24093 0.83803 0.05300
N 	N 	0.30477 0.19629 0.07403 -0.23200
C 	C 	0.30517 0.23913 0.08573 0.09800
H 	H 	0.32297 0.25903 0.13143 -0.00800
C 	C 	0.28087 0.25623 0.03463 -0.18200
H 	H 	0.28507 0.28823 0.04153 0.09200
C 	C 	0.24997 0.22453 0.97283 0.09500
C 	C 	0.25137 0.18253 0.95523 -0.11400
H 	H 	0.23447 0.16243 0.90943 0.08300
C 	C 	0.27907 0.17073 0.00813 0.02500
H 	H 	0.27977 0.14133 0.99613 0.03200
N 	N 	0.78743 0.60227 0.09517 -0.23600
C 	C 	0.79453 0.56327 0.10947 0.05400
C 	C 	0.76503 0.51577 0.07087 -0.10400
H 	H 	0.77073 0.48917 0.08187 0.06800
C 	C 	0.72783 0.51007 0.01697 0.01200
H 	H 	0.70633 0.47917 0.99207 0.04100
C 	C 	0.72333 0.55277 0.00087 -0.15900
H 	H 	0.70013 0.55067 0.96117 0.10300
C 	C 	0.75223 0.59767 0.04167 0.08700
H 	H 	0.74723 0.62487 0.03197 -0.01300
N 	N 	0.85783 0.62127 0.20977 -0.20500
N 	N 	0.89156 0.62000 0.26167 -0.09500
N 	N 	0.84993 0.54287 0.19637 -0.12100
C 	C 	0.88533 0.57457 0.25357 0.07600
C 	C 	0.83253 0.57427 0.17137 0.05300
N 	N 	0.97143 0.52963 0.40737 -0.24000
C 	C 	0.97183 0.57247 0.41907 0.09900
H 	H 	0.98963 0.59237 0.46477 -0.00200
C 	C 	0.94753 0.58957 0.36797 -0.16300
H 	H 	0.95173 0.62157 0.37487 0.09400
C 	C 	0.91663 0.55787 0.30617 0.09400
C 	C 	0.91803 0.51587 0.28857 -0.17400
H 	H 	0.90113 0.49577 0.24277 0.10300
C 	C 	0.94573 0.50407 0.34147 0.11300
H 	H 	0.94643 0.47467 0.32947 -0.01000
N 	N 	0.06440 0.51850 0.42850 -0.23700
C 	C 	0.10340 0.56460 0.44280 0.06000
C 	C 	0.15090 0.58260 0.40420 -0.12000
H 	H 	0.17750 0.61490 0.41520 0.07700
C 	C 	0.15660 0.55110 0.35030 0.04600
H 	H 	0.18750 0.56050 0.32540 0.01400
C 	C 	0.11390 0.50390 0.33420 -0.13400
H 	H 	0.11600 0.48280 0.29450 0.08000
C 	C 	0.06900 0.48790 0.37500 0.07900
H 	H 	0.04180 0.45570 0.36530 -0.00900
N 	N 	0.04540 0.56990 0.54310 -0.20800
N 	N 	0.04667 0.60490 0.59500 -0.10000
N 	N 	0.12380 0.64040 0.52970 -0.12000
C 	C 	0.09210 0.64410 0.58690 0.07400
C 	C 	0.09240 0.59160 0.50470 0.05100
N 	N 	0.13704 0.77514 0.74070 -0.24500
C 	C 	0.09420 0.73270 0.75240 0.09600
H 	H 	0.07430 0.73060 0.79810 -0.00800
C 	C 	0.07710 0.69130 0.70130 -0.16400
H 	H 	0.04510 0.66350 0.70820 0.08700
C 	C 	0.10880 0.69210 0.63950 0.09100
C 	C 	0.15080 0.73550 0.62190 -0.17500
H 	H 	0.17090 0.73870 0.57610 0.10300
C 	C 	0.16260 0.77500 0.67480 0.11000
H 	H 	0.19200 0.80510 0.66280 -0.01200
N 	N 	0.73107 0.85183 0.76183 -0.23500
C 	C 	0.77007 0.89793 0.77613 0.06300
C 	C 	0.81757 0.91593 0.73753 -0.11900
H 	H 	0.84417 0.94823 0.74853 0.08400
C 	C 	0.82327 0.88443 0.68363 0.04700
H 	H 	0.85417 0.89383 0.65873 0.01800
C 	C 	0.78057 0.83723 0.66753 -0.13300
H 	H 	0.78267 0.81613 0.62783 0.08100
C 	C 	0.73567 0.82123 0.70833 0.07900
H 	H 	0.70847 0.78903 0.69863 -0.00400
N 	N 	0.71207 0.90323 0.87643 -0.20300
N 	N 	0.71334 0.93823 0.92833 -0.09200
N 	N 	0.79047 0.97373 0.86303 -0.11600
C 	C 	0.75877 0.97743 0.92023 0.09300
C 	C 	0.75907 0.92493 0.83803 0.05400
N 	N 	0.80371 0.10847 0.07403 -0.23700
C 	C 	0.76087 0.06603 0.08573 0.11800
H 	H 	0.74097 0.06393 0.13143 -0.01900
C 	C 	0.74377 0.02463 0.03463 -0.22600
H 	H 	0.71177 0.99683 0.04153 0.12000
C 	C 	0.77547 0.02543 0.97283 0.09300
C 	C 	0.81747 0.06883 0.95523 -0.11900
H 	H 	0.83757 0.07203 0.90943 0.08200
C 	C 	0.82927 0.10833 0.00813 0.03000
H 	H 	0.85867 0.13843 0.99613 0.03000
N 	N 	0.39773 0.18517 0.09517 -0.23700
C 	C 	0.43673 0.23127 0.10947 0.05300
C 	C 	0.48423 0.24927 0.07087 -0.10400
H 	H 	0.51083 0.28157 0.08187 0.06800
C 	C 	0.48993 0.21777 0.01697 0.01200
H 	H 	0.52083 0.22717 0.99207 0.04200
C 	C 	0.44723 0.17057 0.00087 -0.16000
H 	H 	0.44933 0.14947 0.96117 0.10300
C 	C 	0.40233 0.15457 0.04167 0.08700
H 	H 	0.37513 0.12237 0.03197 -0.01300
N 	N 	0.37873 0.23657 0.20977 -0.20500
N 	N 	0.38000 0.27157 0.26167 -0.09600
N 	N 	0.45713 0.30707 0.19637 -0.12100
C 	C 	0.42543 0.31077 0.25357 0.07500
C 	C 	0.42573 0.25827 0.17137 0.05300
N 	N 	0.47037 0.44181 0.40737 -0.24500
C 	C 	0.42753 0.39937 0.41907 0.09800
H 	H 	0.40763 0.39727 0.46477 -0.00700
C 	C 	0.41043 0.35797 0.36797 -0.16500
H 	H 	0.37843 0.33017 0.37487 0.09200
C 	C 	0.44213 0.35877 0.30617 0.09300
C 	C 	0.48413 0.40217 0.28857 -0.17700
H 	H 	0.50423 0.40537 0.24277 0.10300
C 	C 	0.49593 0.44167 0.34147 0.11100
H 	H 	0.52533 0.47177 0.32947 -0.01300
Ni	Ni	0.50000 0.50000 0.50000 1.06800
Ni	Ni	0.16667 0.83333 0.83333 1.06900
Ni	Ni	0.83333 0.16667 0.16667 1.06700
Ni	Ni	0.50000 0.00000 0.50000 1.06000
Ni	Ni	0.16667 0.33333 0.83333 1.06900
Ni	Ni	0.83333 0.66667 0.16667 1.06700
Ni	Ni	0.00000 0.50000 0.50000 1.06000
Ni	Ni	0.66667 0.83333 0.83333 1.06900
Ni	Ni	0.33333 0.16667 0.16667 1.06700
N 	N 	0.45410 0.51850 0.92850 -0.23500
C 	C 	0.46120 0.56460 0.94280 0.08800
C 	C 	0.43170 0.58260 0.90420 -0.13300
H 	H 	0.43740 0.61490 0.91520 0.08700
C 	C 	0.39450 0.55110 0.85030 0.05700
H 	H 	0.37300 0.56050 0.82540 0.01200
C 	C 	0.39000 0.50390 0.83420 -0.13900
H 	H 	0.36680 0.48280 0.79450 0.08300
C 	C 	0.41890 0.48790 0.87500 0.08500
H 	H 	0.41390 0.45570 0.86530 -0.00300
N 	N 	0.52450 0.56990 0.04310 -0.20500
N 	N 	0.55823 0.60490 0.09500 -0.09800
N 	N 	0.51660 0.64040 0.02970 -0.12200
C 	C 	0.55200 0.64410 0.08690 0.07400
C 	C 	0.49920 0.59160 0.00470 0.02700
N 	N 	0.63810 0.77514 0.24070 -0.24500
C 	C 	0.63850 0.73270 0.25240 0.09700
H 	H 	0.65630 0.73060 0.29810 -0.00700
C 	C 	0.61420 0.69130 0.20130 -0.16400
H 	H 	0.61840 0.66350 0.20820 0.09100
C 	C 	0.58330 0.69210 0.13950 0.09000
C 	C 	0.58470 0.73550 0.12190 -0.17500
H 	H 	0.56780 0.73870 0.07610 0.09600
C 	C 	0.61240 0.77500 0.17480 0.10800
H 	H 	0.61310 0.80510 0.16280 -0.01400
N 	N 	0.12077 0.85183 0.26183 -0.23500
C 	C 	0.12787 0.89793 0.27613 0.06100
C 	C 	0.09837 0.91593 0.23753 -0.12100
H 	H 	0.10407 0.94823 0.24853 0.08000
C 	C 	0.06117 0.88443 0.18363 0.04300
H 	H 	0.03967 0.89383 0.15873 0.01000
C 	C 	0.05667 0.83723 0.16753 -0.13400
H 	H 	0.03347 0.81613 0.12783 0.07300
C 	C 	0.08557 0.82123 0.20833 0.07600
H 	H 	0.08057 0.78903 0.19863 -0.00600
N 	N 	0.19117 0.90323 0.37643 -0.20500
N 	N 	0.22490 0.93823 0.42833 -0.09600
N 	N 	0.18327 0.97373 0.36303 -0.11700
C 	C 	0.21867 0.97743 0.42023 0.08800
C 	C 	0.16587 0.92493 0.33803 0.05200
N 	N 	0.30477 0.10847 0.57403 -0.24900
C 	C 	0.30517 0.06603 0.58573 0.11800
H 	H 	0.32297 0.06393 0.63143 -0.01800
C 	C 	0.28087 0.02463 0.53463 -0.20900
H 	H 	0.28507 0.99683 0.54153 0.12000
C 	C 	0.24997 0.02543 0.47283 0.09100
C 	C 	0.25137 0.06883 0.45523 -0.17900
H 	H 	0.23447 0.07203 0.40943 0.10100
C 	C 	0.27907 0.10833 0.50813 0.11300
H 	H 	0.27977 0.13843 0.49613 -0.01400
N 	N 	0.78743 0.18517 0.59517 -0.23500
C 	C 	0.79453 0.23127 0.60947 0.06100
C 	C 	0.76503 0.24927 0.57087 -0.11900
H 	H 	0.77073 0.28157 0.58187 0.07800
C 	C 	0.72783 0.21777 0.51697 0.04600
H 	H 	0.70633 0.22717 0.49207 0.01500
C 	C 	0.72333 0.17057 0.50087 -0.13300
H 	H 	0.70013 0.14947 0.46117 0.08100
C 	C 	0.75223 0.15457 0.54167 0.07800
H 	H 	0.74723 0.12237 0.53197 -0.00400
N 	N 	0.85783 0.23657 0.70977 -0.20500
N 	N 	0.89156 0.27157 0.76167 -0.09500
N 	N 	0.84993 0.30707 0.69637 -0.11900
C 	C 	0.88533 0.31077 0.75357 0.07700
C 	C 	0.83253 0.25827 0.67137 0.05300
N 	N 	0.97143 0.44181 0.90737 -0.23600
C 	C 	0.97183 0.39937 0.91907 0.10000
H 	H 	0.98963 0.39727 0.96477 0.00600
C 	C 	0.94753 0.35797 0.86797 -0.16100
H 	H 	0.95173 0.33017 0.87487 0.09500
C 	C 	0.91663 0.35877 0.80617 0.09400
C 	C 	0.91803 0.40217 0.78857 -0.17300
H 	H 	0.90113 0.40537 0.74277 0.10400
C 	C 	0.94573 0.44167 0.84147 0.11300
H 	H 	0.94643 0.47177 0.82947 -0.00900
N 	N 	0.06440 0.54590 0.92850 -0.23700
C 	C 	0.10340 0.53880 0.94280 0.08800
C 	C 	0.15090 0.56830 0.90420 -0.13400
H 	H 	0.17750 0.56260 0.91520 0.08700
C 	C 	0.15660 0.60550 0.85030 0.05800
H 	H 	0.18750 0.62700 0.82540 0.01200
C 	C 	0.11390 0.61000 0.83420 -0.14100
H 	H 	0.11600 0.63320 0.79450 0.08300
C 	C 	0.06900 0.58110 0.87500 0.08500
H 	H 	0.04180 0.58610 0.86530 -0.00800
N 	N 	0.04540 0.47550 0.04310 -0.20900
N 	N 	0.04667 0.44177 0.09500 -0.10200
N 	N 	0.12380 0.48340 0.02970 -0.12200
C 	C 	0.09210 0.44800 0.08690 0.07300
C 	C 	0.09240 0.50080 0.00470 0.02500
N 	N 	0.13704 0.36190 0.24070 -0.24400
C 	C 	0.09420 0.36150 0.25240 0.09500
H 	H 	0.07430 0.34370 0.29810 -0.00900
C 	C 	0.07710 0.38580 0.20130 -0.16300
H 	H 	0.04510 0.38160 0.20820 0.08600
C 	C 	0.10880 0.41670 0.13950 0.08700
C 	C 	0.15080 0.41530 0.12190 -0.17400
H 	H 	0.17090 0.43220 0.07610 0.09600
C 	C 	0.16260 0.38760 0.17480 0.10700
H 	H 	0.19200 0.38690 0.16280 -0.01400
N 	N 	0.73107 0.87923 0.26183 -0.23500
C 	C 	0.77007 0.87213 0.27613 0.06100
C 	C 	0.81757 0.90163 0.23753 -0.11800
H 	H 	0.84417 0.89593 0.24853 0.07900
C 	C 	0.82327 0.93883 0.18363 0.04600
H 	H 	0.85417 0.96033 0.15873 0.01800
C 	C 	0.78057 0.94333 0.16753 -0.13200
H 	H 	0.78267 0.96653 0.12783 0.08300
C 	C 	0.73567 0.91443 0.20833 0.07900
H 	H 	0.70847 0.91943 0.19863 -0.00300
N 	N 	0.71207 0.80883 0.37643 -0.20500
N 	N 	0.71334 0.77510 0.42833 -0.09600
N 	N 	0.79047 0.81673 0.36303 -0.11900
C 	C 	0.75877 0.78133 0.42023 0.07500
C 	C 	0.75907 0.83413 0.33803 0.05200
N 	N 	0.80371 0.69523 0.57403 -0.24500
C 	C 	0.76087 0.69483 0.58573 0.09900
H 	H 	0.74097 0.67703 0.63143 -0.00700
C 	C 	0.74377 0.71913 0.53463 -0.16500
H 	H 	0.71177 0.71493 0.54153 0.09200
C 	C 	0.77547 0.75003 0.47283 0.09400
C 	C 	0.81747 0.74863 0.45523 -0.17600
H 	H 	0.83757 0.76553 0.40943 0.10400
C 	C 	0.82927 0.72093 0.50813 0.11200
H 	H 	0.85867 0.72023 0.49613 -0.01200
N 	N 	0.39773 0.21257 0.59517 -0.23500
C 	C 	0.43673 0.20547 0.60947 0.06100
C 	C 	0.48423 0.23497 0.57087 -0.11900
H 	H 	0.51083 0.22927 0.58187 0.07800
C 	C 	0.48993 0.27217 0.51697 0.04500
H 	H 	0.52083 0.29367 0.49207 0.01500
C 	C 	0.44723 0.27667 0.50087 -0.13200
H 	H 	0.44933 0.29987 0.46117 0.08100
C 	C 	0.40233 0.24777 0.54167 0.07800
H 	H 	0.37513 0.25277 0.53197 -0.00400
N 	N 	0.37873 0.14217 0.70977 -0.20500
N 	N 	0.38000 0.10844 0.76167 -0.09600
N 	N 	0.45713 0.15007 0.69637 -0.12000
C 	C 	0.42543 0.11467 0.75357 0.07500
C 	C 	0.42573 0.16747 0.67137 0.05200
N 	N 	0.47037 0.02857 0.90737 -0.24300
C 	C 	0.42753 0.02817 0.91907 0.09800
H 	H 	0.40763 0.01037 0.96477 -0.00500
C 	C 	0.41043 0.05247 0.86797 -0.16600
H 	H 	0.37843 0.04827 0.87487 0.09200
C 	C 	0.44213 0.08337 0.80617 0.09300
C 	C 	0.48413 0.08197 0.78857 -0.17700
H 	H 	0.50423 0.09887 0.74277 0.10300
C 	C 	0.49593 0.05427 0.84147 0.11100
H 	H 	0.52533 0.05357 0.82947 -0.01400
N 	N 	0.48150 0.93560 0.92850 -0.23100
C 	C 	0.43540 0.89660 0.94280 0.08800
C 	C 	0.41740 0.84910 0.90420 -0.13200
H 	H 	0.38510 0.82250 0.91520 0.08700
C 	C 	0.44890 0.84340 0.85030 0.05600
H 	H 	0.43950 0.81250 0.82540 0.01200
C 	C 	0.49610 0.88610 0.83420 -0.13800
H 	H 	0.51720 0.88400 0.79450 0.08300
C 	C 	0.51210 0.93100 0.87500 0.08400
H 	H 	0.54430 0.95820 0.86530 0.00200
N 	N 	0.43010 0.95460 0.04310 -0.20000
N 	N 	0.39510 0.95333 0.09500 -0.09300
N 	N 	0.35960 0.87620 0.02970 -0.12100
C 	C 	0.35590 0.90790 0.08690 0.07400
C 	C 	0.40840 0.90760 0.00470 0.02900
N 	N 	0.22486 0.86296 0.24070 -0.24500
C 	C 	0.26730 0.90580 0.25240 0.09900
H 	H 	0.26940 0.92570 0.29810 -0.00500
C 	C 	0.30870 0.92290 0.20130 -0.16500
H 	H 	0.33650 0.95490 0.20820 0.09600
C 	C 	0.30790 0.89120 0.13950 0.09200
C 	C 	0.26450 0.84920 0.12190 -0.17600
H 	H 	0.26130 0.82910 0.07610 0.09700
C 	C 	0.22500 0.83740 0.17480 0.10900
H 	H 	0.19490 0.80800 0.16280 -0.01500
N 	N 	0.14817 0.26893 0.26183 -0.23500
C 	C 	0.10207 0.22993 0.27613 0.05800
C 	C 	0.08407 0.18243 0.23753 -0.11900
H 	H 	0.05177 0.15583 0.24853 0.07100
C 	C 	0.11557 0.17673 0.18363 0.04200
H 	H 	0.10617 0.14583 0.15873 0.00900
C 	C 	0.16277 0.21943 0.16753 -0.13200
H 	H 	0.18387 0.21733 0.12783 0.07700
C 	C 	0.17877 0.26433 0.20833 0.07700
H 	H 	0.21097 0.29153 0.19863 -0.00400
N 	N 	0.09677 0.28793 0.37643 -0.20500
N 	N 	0.06177 0.28666 0.42833 -0.09600
N 	N 	0.02627 0.20953 0.36303 -0.12300
C 	C 	0.02257 0.24123 0.42023 0.06200
C 	C 	0.07507 0.24093 0.33803 0.05100
N 	N 	0.89153 0.19629 0.57403 -0.24100
C 	C 	0.93397 0.23913 0.58573 0.08000
H 	H 	0.93607 0.25903 0.63143 0.00300
C 	C 	0.97537 0.25623 0.53463 -0.12200
H 	H 	0.00317 0.28823 0.54153 0.06600
C 	C 	0.97457 0.22453 0.47283 0.09700
C 	C 	0.93117 0.18253 0.45523 -0.17400
H 	H 	0.92797 0.16243 0.40943 0.10600
C 	C 	0.89167 0.17073 0.50813 0.11000
H 	H 	0.86157 0.14133 0.49613 -0.01200
N 	N 	0.81483 0.60227 0.59517 -0.23500
C 	C 	0.76873 0.56327 0.60947 0.06100
C 	C 	0.75073 0.51577 0.57087 -0.11900
H 	H 	0.71843 0.48917 0.58187 0.07800
C 	C 	0.78223 0.51007 0.51697 0.04500
H 	H 	0.77283 0.47917 0.49207 0.01500
C 	C 	0.82943 0.55277 0.50087 -0.13200
H 	H 	0.85053 0.55067 0.46117 0.08000
C 	C 	0.84543 0.59767 0.54167 0.07800
H 	H 	0.87763 0.62487 0.53197 -0.00300
N 	N 	0.76343 0.62127 0.70977 -0.20500
N 	N 	0.72843 0.62000 0.76167 -0.09500
N 	N 	0.69293 0.54287 0.69637 -0.11900
C 	C 	0.68923 0.57457 0.75357 0.07600
C 	C 	0.74173 0.57427 0.67137 0.05200
N 	N 	0.55819 0.52963 0.90737 -0.24000
C 	C 	0.60063 0.57247 0.91907 0.09900
H 	H 	0.60273 0.59237 0.96477 -0.00000
C 	C 	0.64203 0.58957 0.86797 -0.16400
H 	H 	0.66983 0.62157 0.87487 0.09400
C 	C 	0.64123 0.55787 0.80617 0.09400
C 	C 	0.59783 0.51587 0.78857 -0.17600
H 	H 	0.59463 0.49577 0.74277 0.10300
C 	C 	0.55833 0.50407 0.84147 0.11200
H 	H 	0.52823 0.47467 0.82947 -0.01200
N 	N 	0.54590 0.48150 0.07150 -0.23300
C 	C 	0.53880 0.43540 0.05720 0.03400
C 	C 	0.56830 0.41740 0.09580 -0.10500
H 	H 	0.56260 0.38510 0.08480 0.06800
C 	C 	0.60550 0.44890 0.14970 0.03300
H 	H 	0.62700 0.43950 0.17460 0.01800
C 	C 	0.61000 0.49610 0.16580 -0.12500
H 	H 	0.63320 0.51720 0.20550 0.07800
C 	C 	0.58110 0.51210 0.12500 0.07100
H 	H 	0.58610 0.54430 0.13470 -0.00300
N 	N 	0.47550 0.43010 0.95690 -0.20200
N 	N 	0.44177 0.39510 0.90500 -0.09400
N 	N 	0.48340 0.35960 0.97030 -0.11800
C 	C 	0.44800 0.35590 0.91310 0.07700
C 	C 	0.50080 0.40840 0.99530 0.07800
N 	N 	0.36190 0.22486 0.75930 -0.24500
C 	C 	0.36150 0.26730 0.74760 0.10000
H 	H 	0.34370 0.26940 0.70190 -0.00800
C 	C 	0.38580 0.30870 0.79870 -0.16700
H 	H 	0.38160 0.33650 0.79180 0.09400
C 	C 	0.41670 0.30790 0.86050 0.09800
C 	C 	0.41530 0.26450 0.87810 -0.17800
H 	H 	0.43220 0.26130 0.92390 0.11000
C 	C 	0.38760 0.22500 0.82520 0.11500
H 	H 	0.38690 0.19490 0.83720 -0.01100
N 	N 	0.21257 0.81483 0.40483 -0.23500
C 	C 	0.20547 0.76873 0.39053 0.06000
C 	C 	0.23497 0.75073 0.42913 -0.11900
H 	H 	0.22927 0.71843 0.41813 0.07700
C 	C 	0.27217 0.78223 0.48303 0.04500
H 	H 	0.29367 0.77283 0.50793 0.01500
C 	C 	0.27667 0.82943 0.49913 -0.13200
H 	H 	0.29987 0.85053 0.53883 0.08000
C 	C 	0.24777 0.84543 0.45833 0.07800
H 	H 	0.25277 0.87763 0.46803 -0.00300
N 	N 	0.14217 0.76343 0.29023 -0.20500
N 	N 	0.10844 0.72843 0.23833 -0.09700
N 	N 	0.15007 0.69293 0.30363 -0.12000
C 	C 	0.11467 0.68923 0.24643 0.07300
C 	C 	0.16747 0.74173 0.32863 0.05100
N 	N 	0.02857 0.55819 0.09263 -0.25100
C 	C 	0.02817 0.60063 0.08093 0.09700
H 	H 	0.01037 0.60273 0.03523 -0.01900
C 	C 	0.05247 0.64203 0.13203 -0.17000
H 	H 	0.04827 0.66983 0.12513 0.08900
C 	C 	0.08337 0.64123 0.19383 0.09300
C 	C 	0.08197 0.59783 0.21143 -0.17900
H 	H 	0.09887 0.59463 0.25723 0.10300
C 	C 	0.05427 0.55833 0.15853 0.10900
H 	H 	0.05357 0.52823 0.17053 -0.01500
N 	N 	0.87923 0.14817 0.73817 -0.23400
C 	C 	0.87213 0.10207 0.72387 0.06000
C 	C 	0.90163 0.08407 0.76247 -0.11700
H 	H 	0.89593 0.05177 0.75147 0.07500
C 	C 	0.93883 0.11557 0.81637 0.04700
H 	H 	0.96033 0.10617 0.84127 0.01900
C 	C 	0.94333 0.16277 0.83247 -0.13100
H 	H 	0.96653 0.18387 0.87217 0.08800
C 	C 	0.91443 0.17877 0.79167 0.08100
H 	H 	0.91943 0.21097 0.80137 -0.00200
N 	N 	0.80883 0.09677 0.62357 -0.20500
N 	N 	0.77510 0.06177 0.57167 -0.09600
N 	N 	0.81673 0.02627 0.63697 -0.12300
C 	C 	0.78133 0.02257 0.57977 0.06200
C 	C 	0.83413 0.07507 0.66197 0.05200
N 	N 	0.69523 0.89153 0.42597 -0.24100
C 	C 	0.69483 0.93397 0.41427 0.07900
H 	H 	0.67703 0.93607 0.36857 0.00300
C 	C 	0.71913 0.97537 0.46537 -0.12100
H 	H 	0.71493 0.00317 0.45847 0.06500
C 	C 	0.75003 0.97457 0.52717 0.09700
C 	C 	0.74863 0.93117 0.54477 -0.17400
H 	H 	0.76553 0.92797 0.59057 0.10600
C 	C 	0.72093 0.89167 0.49187 0.11000
H 	H 	0.72023 0.86157 0.50387 -0.01200
N 	N 	0.93560 0.45410 0.07150 -0.22900
C 	C 	0.89660 0.46120 0.05720 0.03500
C 	C 	0.84910 0.43170 0.09580 -0.10500
H 	H 	0.82250 0.43740 0.08480 0.06800
C 	C 	0.84340 0.39450 0.14970 0.03300
H 	H 	0.81250 0.37300 0.17460 0.01800
C 	C 	0.88610 0.39000 0.16580 -0.12400
H 	H 	0.88400 0.36680 0.20550 0.07800
C 	C 	0.93100 0.41890 0.12500 0.07100
H 	H 	0.95820 0.41390 0.13470 0.00200
N 	N 	0.95460 0.52450 0.95690 -0.19700
N 	N 	0.95333 0.55823 0.90500 -0.09000
N 	N 	0.87620 0.51660 0.97030 -0.11800
C 	C 	0.90790 0.55200 0.91310 0.07700
C 	C 	0.90760 0.49920 0.99530 0.07900
N 	N 	0.86296 0.63810 0.75930 -0.24600
C 	C 	0.90580 0.63850 0.74760 0.10200
H 	H 	0.92570 0.65630 0.70190 -0.00600
C 	C 	0.92290 0.61420 0.79870 -0.16800
H 	H 	0.95490 0.61840 0.79180 0.09900
C 	C 	0.89120 0.58330 0.86050 0.10000
C 	C 	0.84920 0.58470 0.87810 -0.17900
H 	H 	0.82910 0.56780 0.92390 0.11100
C 	C 	0.83740 0.61240 0.82520 0.11500
H 	H 	0.80800 0.61310 0.83720 -0.01100
N 	N 	0.60227 0.78743 0.40483 -0.23500
C 	C 	0.56327 0.79453 0.39053 0.06100
C 	C 	0.51577 0.76503 0.42913 -0.11900
H 	H 	0.48917 0.77073 0.41813 0.07700
C 	C 	0.51007 0.72783 0.48303 0.04500
H 	H 	0.47917 0.70633 0.50793 0.01500
C 	C 	0.55277 0.72333 0.49913 -0.13200
H 	H 	0.55067 0.70013 0.53883 0.08100
C 	C 	0.59767 0.75223 0.45833 0.07800
H 	H 	0.62487 0.74723 0.46803 -0.00400
N 	N 	0.62127 0.85783 0.29023 -0.20500
N 	N 	0.62000 0.89156 0.23833 -0.09600
N 	N 	0.54287 0.84993 0.30363 -0.12000
C 	C 	0.57457 0.88533 0.24643 0.07600
C 	C 	0.57427 0.83253 0.32863 0.05200
N 	N 	0.52963 0.97143 0.09263 -0.24300
C 	C 	0.57247 0.97183 0.08093 0.09900
H 	H 	0.59237 0.98963 0.03523 -0.00800
C 	C 	0.58957 0.94753 0.13203 -0.16400
H 	H 	0.62157 0.95173 0.12513 0.09200
C 	C 	0.55787 0.91663 0.19383 0.09400
C 	C 	0.51587 0.91803 0.21143 -0.17500
H 	H 	0.49577 0.90113 0.25723 0.10400
C 	C 	0.50407 0.94573 0.15853 0.11200
H 	H 	0.47467 0.94643 0.17053 -0.01000
N 	N 	0.26893 0.12077 0.73817 -0.23500
C 	C 	0.22993 0.12787 0.72387 0.06000
C 	C 	0.18243 0.09837 0.76247 -0.12000
H 	H 	0.15583 0.10407 0.75147 0.07600
C 	C 	0.17673 0.06117 0.81637 0.04400
H 	H 	0.14583 0.03967 0.84127 0.01200
C 	C 	0.21943 0.05667 0.83247 -0.13300
H 	H 	0.21733 0.03347 0.87217 0.07800
C 	C 	0.26433 0.08557 0.79167 0.07700
H 	H 	0.29153 0.08057 0.80137 -0.00400
N 	N 	0.28793 0.19117 0.62357 -0.20500
N 	N 	0.28666 0.22490 0.57167 -0.09600
N 	N 	0.20953 0.18327 0.63697 -0.12000
C 	C 	0.24123 0.21867 0.57977 0.07500
C 	C 	0.24093 0.16587 0.66197 0.05100
N 	N 	0.19629 0.30477 0.42597 -0.24500
C 	C 	0.23913 0.30517 0.41427 0.09800
H 	H 	0.25903 0.32297 0.36857 -0.00700
C 	C 	0.25623 0.28087 0.46537 -0.16500
H 	H 	0.28823 0.28507 0.45847 0.09200
C 	C 	0.22453 0.24997 0.52717 0.09300
C 	C 	0.18253 0.25137 0.54477 -0.17700
H 	H 	0.16243 0.23447 0.59057 0.10300
C 	C 	0.17073 0.27907 0.49187 0.11100
H 	H 	0.14133 0.27977 0.50387 -0.01300
N 	N 	0.51850 0.06440 0.07150 -0.23600
C 	C 	0.56460 0.10340 0.05720 0.03300
C 	C 	0.58260 0.15090 0.09580 -0.10600
H 	H 	0.61490 0.17750 0.08480 0.06800
C 	C 	0.55110 0.15660 0.14970 0.03400
H 	H 	0.56050 0.18750 0.17460 0.01800
C 	C 	0.50390 0.11390 0.16580 -0.12700
H 	H 	0.48280 0.11600 0.20550 0.07800
C 	C 	0.48790 0.06900 0.12500 0.07200
H 	H 	0.45570 0.04180 0.13470 -0.00800
N 	N 	0.56990 0.04540 0.95690 -0.20600
N 	N 	0.60490 0.04667 0.90500 -0.09800
N 	N 	0.64040 0.12380 0.97030 -0.11800
C 	C 	0.64410 0.09210 0.91310 0.07600
C 	C 	0.59160 0.09240 0.99530 0.07700
N 	N 	0.77514 0.13704 0.75930 -0.24500
C 	C 	0.73270 0.09420 0.74760 0.09800
H 	H 	0.73060 0.07430 0.70190 -0.00900
C 	C 	0.69130 0.07710 0.79870 -0.16600
H 	H 	0.66350 0.04510 0.79180 0.08800
C 	C 	0.69210 0.10880 0.86050 0.09600
C 	C 	0.73550 0.15080 0.87810 -0.17700
H 	H 	0.73870 0.17090 0.92390 0.11000
C 	C 	0.77500 0.16260 0.82520 0.11300
H 	H 	0.80510 0.19200 0.83720 -0.01100
N 	N 	0.18517 0.39773 0.40483 -0.23500
C 	C 	0.23127 0.43673 0.39053 0.06100
C 	C 	0.24927 0.48423 0.42913 -0.11900
H 	H 	0.28157 0.51083 0.41813 0.07700
C 	C 	0.21777 0.48993 0.48303 0.04500
H 	H 	0.22717 0.52083 0.50793 0.01500
C 	C 	0.17057 0.44723 0.49913 -0.13300
H 	H 	0.14947 0.44933 0.53883 0.08100
C 	C 	0.15457 0.40233 0.45833 0.07800
H 	H 	0.12237 0.37513 0.46803 -0.00400
N 	N 	0.23657 0.37873 0.29023 -0.20500
N 	N 	0.27157 0.38000 0.23833 -0.09700
N 	N 	0.30707 0.45713 0.30363 -0.12000
C 	C 	0.31077 0.42543 0.24643 0.07400
C 	C 	0.25827 0.42573 0.32863 0.05200
N 	N 	0.44181 0.47037 0.09263 -0.24800
C 	C 	0.39937 0.42753 0.08093 0.09800
H 	H 	0.39727 0.40763 0.03523 -0.01400
C 	C 	0.35797 0.41043 0.13203 -0.16700
H 	H 	0.33017 0.37843 0.12513 0.09000
C 	C 	0.35877 0.44213 0.19383 0.09300
C 	C 	0.40217 0.48413 0.21143 -0.17700
H 	H 	0.40537 0.50423 0.25723 0.10300
C 	C 	0.44167 0.49593 0.15853 0.11000
H 	H 	0.47177 0.52533 0.17053 -0.01300
N 	N 	0.85183 0.73107 0.73817 -0.23500
C 	C 	0.89793 0.77007 0.72387 0.06300
C 	C 	0.91593 0.81757 0.76247 -0.11900
H 	H 	0.94823 0.84417 0.75147 0.08400
C 	C 	0.88443 0.82327 0.81637 0.04900
H 	H 	0.89383 0.85417 0.84127 0.02000
C 	C 	0.83723 0.78057 0.83247 -0.13200
H 	H 	0.81613 0.78267 0.87217 0.08400
C 	C 	0.82123 0.73567 0.79167 0.08000
H 	H 	0.78903 0.70847 0.80137 -0.00300
N 	N 	0.90323 0.71207 0.62357 -0.20500
N 	N 	0.93823 0.71334 0.57167 -0.09600
N 	N 	0.97373 0.79047 0.63697 -0.11600
C 	C 	0.97743 0.75877 0.57977 0.08800
C 	C 	0.92493 0.75907 0.66197 0.05300
N 	N 	0.10847 0.80371 0.42597 -0.24900
C 	C 	0.06603 0.76087 0.41427 0.11800
H 	H 	0.06393 0.74097 0.36857 -0.01800
C 	C 	0.02463 0.74377 0.46537 -0.20900
H 	H 	0.99683 0.71177 0.45847 0.11900
C 	C 	0.02543 0.77547 0.52717 0.09100
C 	C 	0.06883 0.81747 0.54477 -0.17900
H 	H 	0.07203 0.83757 0.59057 0.10100
C 	C 	0.10833 0.82927 0.49187 0.11300
H 	H 	0.13843 0.85867 0.50387 -0.01300
Ni	Ni	0.50000 0.50000 -0.00000 1.05900
Ni	Ni	0.16667 0.83333 0.33333 1.06800
Ni	Ni	0.83333 0.16667 0.66667 1.06800
Ni	Ni	-0.00000 0.50000 -0.00000 1.05200
Ni	Ni	0.66667 0.83333 0.33333 1.06800
Ni	Ni	0.33333 0.16667 0.66667 1.06800
Ni	Ni	0.50000 0.00000 -0.00000 1.05200
Ni	Ni	0.16667 0.33333 0.33333 1.06800
Ni	Ni	0.83333 0.66667 0.66667 1.06800
