data_crystal

_cell_length_a 15.57050
_cell_length_b 22.38230
_cell_length_c 27.29690
_cell_angle_alpha 90.00000
_cell_angle_beta  101.10200
_cell_angle_gamma 90.00000

_symmetry_space_group_name_	'P 1'
_symmetry_space_group_name_H-M	'P 1'

loop_
_symmetry_equiv_pos_as_xyz
  x,y,z

loop_
_atom_site_label
_atom_site_type_symbol
_atom_site_fract_x
_atom_site_fract_y
_atom_site_fract_z
_atom_site_charge
Cu	Cu	0.00328 0.00062 0.38883 0.83400
Cu	Cu	0.83525 0.04576 0.42438 0.84500
Cu	Cu	0.83299 0.04742 0.53721 0.84500
O 	O 	0.07750 0.01900 0.45230 -0.77100
H 	H 	0.10410 0.05180 0.45530 0.23800
O 	O 	0.92450 0.98120 0.43530 -0.77700
H 	H 	0.89720 0.95110 0.43160 0.29400
O 	O 	0.90690 0.06960 0.48950 -0.81500
H 	H 	0.91530 0.10410 0.49020 0.32000
N 	N 	0.66550 0.98120 0.29720 -0.13400
C 	C 	0.69750 0.00960 0.33760 0.10700
H 	H 	0.65850 0.02810 0.35460 -0.03600
N 	N 	0.78050 0.01410 0.35630 -0.30700
C 	C 	0.82550 0.98570 0.32540 0.25500
C 	C 	0.80200 0.95030 0.28280 -0.19900
C 	C 	0.72100 0.94900 0.26500 0.22900
N 	N 	0.65900 0.92800 0.22550 -0.22600
H 	H 	0.67480 0.90690 0.20250 0.73800
H 	H 	0.60480 0.93640 0.22410 0.10700
C 	C 	0.76700 0.96300 0.28620 -0.23700
C 	C 	0.78300 0.93300 0.25400 0.45600
N 	N 	0.71100 0.91100 0.21300 -0.76800
H 	H 	0.65780 0.91970 0.21360 -0.10900
H 	H 	0.72370 0.88920 0.18930 0.11400
N 	N 	0.85630 0.92950 0.25720 -0.21100
C 	C 	0.92850 0.94160 0.29240 0.15000
H 	H 	0.98300 0.92550 0.29080 -0.02100
N 	N 	0.91680 0.97860 0.33000 -0.27900
N 	N 	0.66450 0.19520 0.53180 -0.17600
C 	C 	0.71120 0.14990 0.54190 0.14100
H 	H 	0.72290 0.13940 0.57550 -0.04600
N 	N 	0.74630 0.11470 0.51300 -0.28500
C 	C 	0.73120 0.13490 0.46620 0.14400
C 	C 	0.67740 0.18400 0.45780 -0.12300
C 	C 	0.64100 0.21660 0.48060 0.19700
N 	N 	0.59320 0.26590 0.47400 -0.31900
H 	H 	0.58090 0.28230 0.44500 0.12400
H 	H 	0.57410 0.28130 0.49870 0.11700
N 	N 	0.67160 0.19960 0.39950 -0.11400
C 	C 	0.71870 0.14920 0.38750 0.07300
H 	H 	0.72500 0.14110 0.35500 -0.01900
N 	N 	0.75360 0.11380 0.42590 -0.27600
N 	N 	0.14010 0.07760 0.28630 -0.16500
C 	C 	0.07980 0.05380 0.30920 0.09200
H 	H 	0.02140 0.05960 0.29450 -0.03900
N 	N 	0.09630 0.02270 0.35090 -0.26900
C 	C 	0.18350 0.01470 0.36740 0.06000
C 	C 	0.25400 0.03710 0.34700 -0.04200
C 	C 	0.23100 0.06890 0.30280 0.15400
N 	N 	0.28960 0.09130 0.28090 -0.32300
H 	H 	0.34410 0.08670 0.29370 0.15000
H 	H 	0.27420 0.11090 0.25350 0.14300
N 	N 	0.33320 0.02150 0.37250 -0.14800
C 	C 	0.30790 0.99240 0.40920 0.11900
H 	H 	0.35040 0.97770 0.43500 -0.03200
N 	N 	0.22470 0.98330 0.41090 -0.26400
Cu	Cu	0.99672 0.99938 0.61117 0.88500
Cu	Cu	0.16475 0.95424 0.57562 0.85200
Cu	Cu	0.16701 0.95258 0.46279 0.85400
O 	O 	0.92250 0.98100 0.54770 -0.72400
H 	H 	0.89590 0.94820 0.54470 0.24300
O 	O 	0.07550 0.01880 0.56470 -0.84700
H 	H 	0.10280 0.04890 0.56840 0.29900
O 	O 	0.09310 0.93040 0.51050 -0.81200
H 	H 	0.08470 0.89590 0.50980 0.30800
N 	N 	0.33450 0.01880 0.70280 -0.16500
C 	C 	0.30250 0.99040 0.66240 0.15900
H 	H 	0.34150 0.97190 0.64540 -0.04400
N 	N 	0.21950 0.98590 0.64370 -0.29000
C 	C 	0.17450 0.01430 0.67460 0.20000
C 	C 	0.19800 0.04970 0.71720 -0.20000
C 	C 	0.27900 0.05100 0.73500 0.20500
N 	N 	0.34100 0.07200 0.77450 -0.22400
H 	H 	0.32520 0.09310 0.79750 0.72900
H 	H 	0.39520 0.06360 0.77590 0.09900
C 	C 	0.23300 0.03700 0.71380 -0.21600
C 	C 	0.21700 0.06700 0.74600 0.44400
N 	N 	0.28900 0.08900 0.78700 -0.76300
H 	H 	0.34220 0.08030 0.78640 -0.10700
H 	H 	0.27630 0.11080 0.81070 0.10700
N 	N 	0.14370 0.07050 0.74280 -0.22000
C 	C 	0.07150 0.05840 0.70760 0.13300
H 	H 	0.01700 0.07450 0.70920 -0.05300
N 	N 	0.08320 0.02140 0.67000 -0.30600
N 	N 	0.33550 0.80480 0.46820 -0.17500
C 	C 	0.28880 0.85010 0.45810 0.14200
H 	H 	0.27710 0.86060 0.42450 -0.04600
N 	N 	0.25370 0.88530 0.48700 -0.28500
C 	C 	0.26880 0.86510 0.53380 0.14600
C 	C 	0.32260 0.81600 0.54220 -0.12300
C 	C 	0.35900 0.78340 0.51940 0.20000
N 	N 	0.40680 0.73410 0.52600 -0.32000
H 	H 	0.41910 0.71770 0.55500 0.12600
H 	H 	0.42590 0.71870 0.50130 0.12000
N 	N 	0.32840 0.80040 0.60050 -0.11300
C 	C 	0.28130 0.85080 0.61250 0.07300
H 	H 	0.27500 0.85890 0.64500 -0.02000
N 	N 	0.24640 0.88620 0.57410 -0.27600
N 	N 	0.85990 0.92240 0.71370 -0.15400
C 	C 	0.92020 0.94620 0.69080 0.10400
H 	H 	0.97860 0.94040 0.70550 -0.00600
N 	N 	0.90370 0.97730 0.64910 -0.25800
C 	C 	0.81650 0.98530 0.63260 0.10300
C 	C 	0.74600 0.96290 0.65300 -0.04100
C 	C 	0.76900 0.93110 0.69720 0.17000
N 	N 	0.71040 0.90870 0.71910 -0.32800
H 	H 	0.65590 0.91330 0.70630 0.15900
H 	H 	0.72580 0.88910 0.74650 0.15400
N 	N 	0.66680 0.97850 0.62750 -0.11400
C 	C 	0.69210 0.00760 0.59080 0.06500
H 	H 	0.64960 0.02230 0.56500 -0.02400
N 	N 	0.77530 0.01670 0.58910 -0.27900
Cu	Cu	0.00000 0.00000 0.50000 0.92400
Cu	Cu	0.50328 0.50062 0.38883 0.86000
Cu	Cu	0.33525 0.54576 0.42438 0.84800
Cu	Cu	0.33299 0.54742 0.53721 0.84900
O 	O 	0.57750 0.51900 0.45230 -0.75200
H 	H 	0.60410 0.55180 0.45530 0.24400
O 	O 	0.42450 0.48120 0.43530 -0.81600
H 	H 	0.39720 0.45110 0.43160 0.29700
O 	O 	0.40690 0.56960 0.48950 -0.81900
H 	H 	0.41530 0.60410 0.49020 0.31600
N 	N 	0.16550 0.48120 0.29720 -0.15400
C 	C 	0.19750 0.50960 0.33760 0.13100
H 	H 	0.15850 0.52810 0.35460 -0.04500
N 	N 	0.28050 0.51410 0.35630 -0.29900
C 	C 	0.32550 0.48570 0.32540 0.22500
C 	C 	0.30200 0.45030 0.28280 -0.19500
C 	C 	0.22100 0.44900 0.26500 0.21300
N 	N 	0.15900 0.42800 0.22550 -0.22100
H 	H 	0.17480 0.40690 0.20250 0.72600
H 	H 	0.10480 0.43640 0.22410 0.09400
C 	C 	0.26700 0.46300 0.28620 -0.22600
C 	C 	0.28300 0.43300 0.25400 0.44600
N 	N 	0.21100 0.41100 0.21300 -0.76100
H 	H 	0.15780 0.41970 0.21360 -0.10800
H 	H 	0.22370 0.38920 0.18930 0.10700
N 	N 	0.35630 0.42950 0.25720 -0.21500
C 	C 	0.42850 0.44160 0.29240 0.14000
H 	H 	0.48300 0.42550 0.29080 -0.03700
N 	N 	0.41680 0.47860 0.33000 -0.29200
N 	N 	0.16450 0.69520 0.53180 -0.17700
C 	C 	0.21120 0.64990 0.54190 0.14000
H 	H 	0.22290 0.63940 0.57550 -0.04700
N 	N 	0.24630 0.61470 0.51300 -0.28500
C 	C 	0.23120 0.63490 0.46620 0.14200
C 	C 	0.17740 0.68400 0.45780 -0.12300
C 	C 	0.14100 0.71660 0.48060 0.19300
N 	N 	0.09320 0.76590 0.47400 -0.31700
H 	H 	0.08090 0.78230 0.44500 0.11900
H 	H 	0.07410 0.78130 0.49870 0.11300
N 	N 	0.17160 0.69960 0.39950 -0.11700
C 	C 	0.21870 0.64920 0.38750 0.07100
H 	H 	0.22500 0.64110 0.35500 -0.02100
N 	N 	0.25360 0.61380 0.42590 -0.27700
N 	N 	0.64010 0.57760 0.28630 -0.15900
C 	C 	0.57980 0.55380 0.30920 0.09900
H 	H 	0.52140 0.55960 0.29450 -0.02300
N 	N 	0.59630 0.52270 0.35090 -0.26400
C 	C 	0.68350 0.51470 0.36740 0.08300
C 	C 	0.75400 0.53710 0.34700 -0.04100
C 	C 	0.73100 0.56890 0.30280 0.16600
N 	N 	0.78960 0.59130 0.28090 -0.32800
H 	H 	0.84410 0.58670 0.29370 0.16100
H 	H 	0.77420 0.61090 0.25350 0.15200
N 	N 	0.83320 0.52150 0.37250 -0.12600
C 	C 	0.80790 0.49240 0.40920 0.09200
H 	H 	0.85040 0.47770 0.43500 -0.02200
N 	N 	0.72470 0.48330 0.41090 -0.27200
Cu	Cu	0.49672 0.49938 0.61117 0.86000
Cu	Cu	0.66475 0.45424 0.57562 0.84900
Cu	Cu	0.66701 0.45258 0.46279 0.85000
O 	O 	0.42250 0.48100 0.54770 -0.75100
H 	H 	0.39590 0.44820 0.54470 0.24000
O 	O 	0.57550 0.51880 0.56470 -0.81600
H 	H 	0.60280 0.54890 0.56840 0.30000
O 	O 	0.59310 0.43040 0.51050 -0.81800
H 	H 	0.58470 0.39590 0.50980 0.31500
N 	N 	0.83450 0.51880 0.70280 -0.14500
C 	C 	0.80250 0.49040 0.66240 0.13400
H 	H 	0.84150 0.47190 0.64540 -0.03400
N 	N 	0.71950 0.48590 0.64370 -0.29900
C 	C 	0.67450 0.51430 0.67460 0.23000
C 	C 	0.69800 0.54970 0.71720 -0.20300
C 	C 	0.77900 0.55100 0.73500 0.22200
N 	N 	0.84100 0.57200 0.77450 -0.22900
H 	H 	0.82520 0.59310 0.79750 0.74100
H 	H 	0.89520 0.56360 0.77590 0.11300
C 	C 	0.73300 0.53700 0.71380 -0.22700
C 	C 	0.71700 0.56700 0.74600 0.45400
N 	N 	0.78900 0.58900 0.78700 -0.77100
H 	H 	0.84220 0.58030 0.78640 -0.10700
H 	H 	0.77630 0.61080 0.81070 0.11400
N 	N 	0.64370 0.57050 0.74280 -0.21600
C 	C 	0.57150 0.55840 0.70760 0.14300
H 	H 	0.51700 0.57450 0.70920 -0.03700
N 	N 	0.58320 0.52140 0.67000 -0.29300
N 	N 	0.83550 0.30480 0.46820 -0.17300
C 	C 	0.78880 0.35010 0.45810 0.14300
H 	H 	0.77710 0.36060 0.42450 -0.04500
N 	N 	0.75370 0.38530 0.48700 -0.28400
C 	C 	0.76880 0.36510 0.53380 0.14700
C 	C 	0.82260 0.31600 0.54220 -0.12400
C 	C 	0.85900 0.28340 0.51940 0.20500
N 	N 	0.90680 0.23410 0.52600 -0.32300
H 	H 	0.91910 0.21770 0.55500 0.13200
H 	H 	0.92590 0.21870 0.50130 0.12600
N 	N 	0.82840 0.30040 0.60050 -0.11000
C 	C 	0.78130 0.35080 0.61250 0.07500
H 	H 	0.77500 0.35890 0.64500 -0.01800
N 	N 	0.74640 0.38620 0.57410 -0.27600
N 	N 	0.35990 0.42240 0.71370 -0.15900
C 	C 	0.42020 0.44620 0.69080 0.09800
H 	H 	0.47860 0.44040 0.70550 -0.02200
N 	N 	0.40370 0.47730 0.64910 -0.26400
C 	C 	0.31650 0.48530 0.63260 0.08200
C 	C 	0.24600 0.46290 0.65300 -0.04200
C 	C 	0.26900 0.43110 0.69720 0.16000
N 	N 	0.21040 0.40870 0.71910 -0.32300
H 	H 	0.15590 0.41330 0.70630 0.14800
H 	H 	0.22580 0.38910 0.74650 0.14500
N 	N 	0.16680 0.47850 0.62750 -0.13500
C 	C 	0.19210 0.50760 0.59080 0.09000
H 	H 	0.14960 0.52230 0.56500 -0.03400
N 	N 	0.27530 0.51670 0.58910 -0.27300
Cu	Cu	0.50000 0.50000 0.50000 0.95000
Cu	Cu	0.99672 0.00062 0.11117 0.86500
Cu	Cu	0.16475 0.04576 0.07562 0.83900
Cu	Cu	0.16701 0.04742 0.96279 0.84900
O 	O 	0.92250 0.01900 0.04770 -0.75300
H 	H 	0.89590 0.05180 0.04470 0.24100
O 	O 	0.07550 0.98120 0.06470 -0.81100
H 	H 	0.10280 0.95110 0.06840 0.29200
O 	O 	0.09310 0.06960 0.01050 -0.83900
H 	H 	0.08470 0.10410 0.00980 0.30900
N 	N 	0.33450 0.98120 0.20280 -0.13400
C 	C 	0.30250 0.00960 0.16240 0.10300
H 	H 	0.34150 0.02810 0.14540 -0.03700
N 	N 	0.21950 0.01410 0.14370 -0.31100
C 	C 	0.17450 0.98570 0.17460 0.24900
C 	C 	0.19800 0.95030 0.21720 -0.19900
C 	C 	0.27900 0.94900 0.23500 0.22700
N 	N 	0.34100 0.92800 0.27450 -0.22700
H 	H 	0.32520 0.90690 0.29750 0.73800
H 	H 	0.39520 0.93640 0.27590 0.10700
C 	C 	0.23300 0.96300 0.21380 -0.23600
C 	C 	0.21700 0.93300 0.24600 0.45200
N 	N 	0.28900 0.91100 0.28700 -0.76800
H 	H 	0.34220 0.91970 0.28640 -0.10800
H 	H 	0.27630 0.88920 0.31070 0.11100
N 	N 	0.14370 0.92950 0.24280 -0.21700
C 	C 	0.07150 0.94160 0.20760 0.14200
H 	H 	0.01700 0.92550 0.20920 -0.04800
N 	N 	0.08320 0.97860 0.17000 -0.29800
N 	N 	0.33550 0.19520 0.96820 -0.16100
C 	C 	0.28880 0.14990 0.95810 0.14200
H 	H 	0.27710 0.13940 0.92450 -0.04700
N 	N 	0.25370 0.11470 0.98700 -0.27000
C 	C 	0.26880 0.13490 0.03380 0.11600
C 	C 	0.32260 0.18400 0.04220 -0.11100
C 	C 	0.35900 0.21660 0.01940 0.17100
N 	N 	0.40680 0.26590 0.02600 -0.31200
H 	H 	0.41910 0.28230 0.05500 0.12000
H 	H 	0.42590 0.28130 0.00130 0.10800
N 	N 	0.32840 0.19960 0.10050 -0.11600
C 	C 	0.28130 0.14920 0.11250 0.06800
H 	H 	0.27500 0.14110 0.14500 -0.02100
N 	N 	0.24640 0.11380 0.07410 -0.27500
N 	N 	0.85990 0.07760 0.21370 -0.15600
C 	C 	0.92020 0.05380 0.19080 0.09600
H 	H 	0.97860 0.05960 0.20550 -0.01200
N 	N 	0.90370 0.02270 0.14910 -0.26000
C 	C 	0.81650 0.01470 0.13260 0.06500
C 	C 	0.74600 0.03710 0.15300 -0.04200
C 	C 	0.76900 0.06890 0.19720 0.15900
N 	N 	0.71040 0.09130 0.21910 -0.32500
H 	H 	0.65590 0.08670 0.20630 0.15100
H 	H 	0.72580 0.11090 0.24650 0.14800
N 	N 	0.66680 0.02150 0.12750 -0.14800
C 	C 	0.69210 0.99240 0.09080 0.11900
H 	H 	0.64960 0.97770 0.06500 -0.03600
N 	N 	0.77530 0.98330 0.08910 -0.26500
Cu	Cu	0.00328 0.99938 0.88883 0.85500
Cu	Cu	0.83525 0.95424 0.92438 0.85800
Cu	Cu	0.83299 0.95258 0.03721 0.85100
O 	O 	0.07750 0.98100 0.95230 -0.73700
H 	H 	0.10410 0.94820 0.95530 0.24100
O 	O 	0.92450 0.01880 0.93530 -0.80400
H 	H 	0.89720 0.04890 0.93160 0.30200
O 	O 	0.90690 0.93040 0.98950 -0.78800
H 	H 	0.91530 0.89590 0.99020 0.31900
N 	N 	0.66550 0.01880 0.79720 -0.16400
C 	C 	0.69750 0.99040 0.83760 0.16000
H 	H 	0.65850 0.97190 0.85460 -0.04200
N 	N 	0.78050 0.98590 0.85630 -0.28900
C 	C 	0.82550 0.01430 0.82540 0.21000
C 	C 	0.80200 0.04970 0.78280 -0.20000
C 	C 	0.72100 0.05100 0.76500 0.20900
N 	N 	0.65900 0.07200 0.72550 -0.22300
H 	H 	0.67480 0.09310 0.70250 0.72900
H 	H 	0.60480 0.06360 0.72410 0.09900
C 	C 	0.76700 0.03700 0.78620 -0.21900
C 	C 	0.78300 0.06700 0.75400 0.44900
N 	N 	0.71100 0.08900 0.71300 -0.76300
H 	H 	0.65780 0.08030 0.71360 -0.10700
H 	H 	0.72370 0.11080 0.68930 0.11100
N 	N 	0.85630 0.07050 0.75720 -0.21300
C 	C 	0.92850 0.05840 0.79240 0.14300
H 	H 	0.98300 0.07450 0.79080 -0.02500
N 	N 	0.91680 0.02140 0.83000 -0.28600
N 	N 	0.66450 0.80480 0.03180 -0.18800
C 	C 	0.71120 0.85010 0.04190 0.14100
H 	H 	0.72290 0.86060 0.07550 -0.04500
N 	N 	0.74630 0.88530 0.01300 -0.29900
C 	C 	0.73120 0.86510 0.96620 0.17200
C 	C 	0.67740 0.81600 0.95780 -0.13500
C 	C 	0.64100 0.78340 0.98060 0.22600
N 	N 	0.59320 0.73410 0.97400 -0.32700
H 	H 	0.58090 0.71770 0.94500 0.13000
H 	H 	0.57410 0.71870 0.99870 0.12900
N 	N 	0.67160 0.80040 0.89950 -0.11100
C 	C 	0.71870 0.85080 0.88750 0.07700
H 	H 	0.72500 0.85890 0.85500 -0.01700
N 	N 	0.75360 0.88620 0.92590 -0.27800
N 	N 	0.14010 0.92240 0.78630 -0.16200
C 	C 	0.07980 0.94620 0.80920 0.10100
H 	H 	0.02140 0.94040 0.79450 -0.03300
N 	N 	0.09630 0.97730 0.85090 -0.26700
C 	C 	0.18350 0.98530 0.86740 0.10000
C 	C 	0.25400 0.96290 0.84700 -0.04100
C 	C 	0.23100 0.93110 0.80280 0.16700
N 	N 	0.28960 0.90870 0.78090 -0.32600
H 	H 	0.34410 0.91330 0.79370 0.15900
H 	H 	0.27420 0.88910 0.75350 0.15000
N 	N 	0.33320 0.97850 0.87250 -0.11300
C 	C 	0.30790 0.00760 0.90920 0.06400
H 	H 	0.35040 0.02230 0.93500 -0.02000
N 	N 	0.22470 0.01670 0.91090 -0.28000
Cu	Cu	-0.00000 0.00000 -0.00000 0.91400
Cu	Cu	0.49672 0.50062 0.11117 0.85900
Cu	Cu	0.66475 0.54576 0.07562 0.84700
Cu	Cu	0.66701 0.54742 0.96279 0.85600
O 	O 	0.42250 0.51900 0.04770 -0.75500
H 	H 	0.39590 0.55180 0.04470 0.23800
O 	O 	0.57550 0.48120 0.06470 -0.81800
H 	H 	0.60280 0.45110 0.06840 0.29600
O 	O 	0.59310 0.56960 0.01050 -0.82800
H 	H 	0.58470 0.60410 0.00980 0.31100
N 	N 	0.83450 0.48120 0.20280 -0.14600
C 	C 	0.80250 0.50960 0.16240 0.13300
H 	H 	0.84150 0.52810 0.14540 -0.03600
N 	N 	0.71950 0.51410 0.14370 -0.29900
C 	C 	0.67450 0.48570 0.17460 0.22900
C 	C 	0.69800 0.45030 0.21720 -0.20300
C 	C 	0.77900 0.44900 0.23500 0.22100
N 	N 	0.84100 0.42800 0.27450 -0.22800
H 	H 	0.82520 0.40690 0.29750 0.73900
H 	H 	0.89520 0.43640 0.27590 0.11200
C 	C 	0.73300 0.46300 0.21380 -0.22700
C 	C 	0.71700 0.43300 0.24600 0.45300
N 	N 	0.78900 0.41100 0.28700 -0.77000
H 	H 	0.84220 0.41970 0.28640 -0.10700
H 	H 	0.77630 0.38920 0.31070 0.11200
N 	N 	0.64370 0.42950 0.24280 -0.21600
C 	C 	0.57150 0.44160 0.20760 0.14200
H 	H 	0.51700 0.42550 0.20920 -0.03800
N 	N 	0.58320 0.47860 0.17000 -0.29300
N 	N 	0.83550 0.69520 0.96820 -0.15900
C 	C 	0.78880 0.64990 0.95810 0.14500
H 	H 	0.77710 0.63940 0.92450 -0.04400
N 	N 	0.75370 0.61470 0.98700 -0.26900
C 	C 	0.76880 0.63490 0.03380 0.12100
C 	C 	0.82260 0.68400 0.04220 -0.11100
C 	C 	0.85900 0.71660 0.01940 0.17900
N 	N 	0.90680 0.76590 0.02600 -0.31600
H 	H 	0.91910 0.78230 0.05500 0.12800
H 	H 	0.92590 0.78130 0.00130 0.11600
N 	N 	0.82840 0.69960 0.10050 -0.11100
C 	C 	0.78130 0.64920 0.11250 0.07300
H 	H 	0.77500 0.64110 0.14500 -0.01700
N 	N 	0.74640 0.61380 0.07410 -0.27300
N 	N 	0.35990 0.57760 0.21370 -0.15900
C 	C 	0.42020 0.55380 0.19080 0.09700
H 	H 	0.47860 0.55960 0.20550 -0.02200
N 	N 	0.40370 0.52270 0.14910 -0.26400
C 	C 	0.31650 0.51470 0.13260 0.08100
C 	C 	0.24600 0.53710 0.15300 -0.04300
C 	C 	0.26900 0.56890 0.19720 0.16000
N 	N 	0.21040 0.59130 0.21910 -0.32300
H 	H 	0.15590 0.58670 0.20630 0.14700
H 	H 	0.22580 0.61090 0.24650 0.14500
N 	N 	0.16680 0.52150 0.12750 -0.13600
C 	C 	0.19210 0.49240 0.09080 0.09000
H 	H 	0.14960 0.47770 0.06500 -0.03700
N 	N 	0.27530 0.48330 0.08910 -0.27400
Cu	Cu	0.50328 0.49938 0.88883 0.86100
Cu	Cu	0.33525 0.45424 0.92438 0.85000
Cu	Cu	0.33299 0.45258 0.03721 0.84300
O 	O 	0.57750 0.48100 0.95230 -0.74400
H 	H 	0.60410 0.44820 0.95530 0.24600
O 	O 	0.42450 0.51880 0.93530 -0.81000
H 	H 	0.39720 0.54890 0.93160 0.30000
O 	O 	0.40690 0.43040 0.98950 -0.80600
H 	H 	0.41530 0.39590 0.99020 0.31900
N 	N 	0.16550 0.51880 0.79720 -0.15300
C 	C 	0.19750 0.49040 0.83760 0.13200
H 	H 	0.15850 0.47190 0.85460 -0.04400
N 	N 	0.28050 0.48590 0.85630 -0.29900
C 	C 	0.32550 0.51430 0.82540 0.22600
C 	C 	0.30200 0.54970 0.78280 -0.19600
C 	C 	0.22100 0.55100 0.76500 0.21400
N 	N 	0.15900 0.57200 0.72550 -0.22200
H 	H 	0.17480 0.59310 0.70250 0.72800
H 	H 	0.10480 0.56360 0.72410 0.09500
C 	C 	0.26700 0.53700 0.78620 -0.22600
C 	C 	0.28300 0.56700 0.75400 0.44700
N 	N 	0.21100 0.58900 0.71300 -0.76200
H 	H 	0.15780 0.58030 0.71360 -0.10800
H 	H 	0.22370 0.61080 0.68930 0.10900
N 	N 	0.35630 0.57050 0.75720 -0.21500
C 	C 	0.42850 0.55840 0.79240 0.14100
H 	H 	0.48300 0.57450 0.79080 -0.03700
N 	N 	0.41680 0.52140 0.83000 -0.29200
N 	N 	0.16450 0.30480 0.03180 -0.19100
C 	C 	0.21120 0.35010 0.04190 0.13800
H 	H 	0.22290 0.36060 0.07550 -0.04800
N 	N 	0.24630 0.38530 0.01300 -0.30100
C 	C 	0.23120 0.36510 0.96620 0.16900
C 	C 	0.17740 0.31600 0.95780 -0.13600
C 	C 	0.14100 0.28340 0.98060 0.21900
N 	N 	0.09320 0.23410 0.97400 -0.32400
H 	H 	0.08090 0.21770 0.94500 0.12200
H 	H 	0.07410 0.21870 0.99870 0.12200
N 	N 	0.17160 0.30040 0.89950 -0.11500
C 	C 	0.21870 0.35080 0.88750 0.07300
H 	H 	0.22500 0.35890 0.85500 -0.02100
N 	N 	0.25360 0.38620 0.92590 -0.28000
N 	N 	0.64010 0.42240 0.78630 -0.15900
C 	C 	0.57980 0.44620 0.80920 0.09900
H 	H 	0.52140 0.44040 0.79450 -0.02300
N 	N 	0.59630 0.47730 0.85090 -0.26300
C 	C 	0.68350 0.48530 0.86740 0.08400
C 	C 	0.75400 0.46290 0.84700 -0.04000
C 	C 	0.73100 0.43110 0.80280 0.16600
N 	N 	0.78960 0.40870 0.78090 -0.32800
H 	H 	0.84410 0.41330 0.79370 0.16200
H 	H 	0.77420 0.38910 0.75350 0.15200
N 	N 	0.83320 0.47850 0.87250 -0.12400
C 	C 	0.80790 0.50760 0.90920 0.09300
H 	H 	0.85040 0.52230 0.93500 -0.01800
N 	N 	0.72470 0.51670 0.91090 -0.27000
Cu	Cu	0.50000 0.50000 -0.00000 0.94000
