data_crystal

_cell_length_a 32.76700
_cell_length_b 32.76700
_cell_length_c 32.76700
_cell_angle_alpha 90.00000
_cell_angle_beta  90.00000
_cell_angle_gamma 90.00000

_symmetry_space_group_name_	'P 1'
_symmetry_space_group_name_H-M	'P 1'

loop_
_symmetry_equiv_pos_as_xyz
  x,y,z

loop_
_atom_site_label
_atom_site_type_symbol
_atom_site_fract_x
_atom_site_fract_y
_atom_site_fract_z
_atom_site_charge
Zn	Zn	0.29392 0.12430 0.16432 1.16400
C 	C 	0.28400 0.09420 0.03710 -0.13800
C 	C 	0.30550 0.10060 0.07710 0.43700
O 	O 	0.34370 0.10438 0.07580 -0.50200
O 	O 	0.28370 0.10295 0.10735 -0.52200
C 	C 	0.24220 0.08840 0.03610 0.06200
H 	H 	0.22830 0.08460 0.06060 0.03300
C 	C 	0.30310 0.03650 0.25430 -0.10700
C 	C 	0.30270 0.07580 0.23190 0.34200
O 	O 	0.30325 0.07300 0.19320 -0.48600
O 	O 	0.30190 0.10950 0.25050 -0.41400
C 	C 	0.30060 0.03560 0.29780 0.01700
H 	H 	0.30040 0.06010 0.31210 0.02300
Zn	Zn	0.70608 0.87570 0.16432 1.16400
C 	C 	0.71600 0.90580 0.03710 -0.13800
C 	C 	0.69450 0.89940 0.07710 0.43700
O 	O 	0.65630 0.89562 0.07580 -0.50200
O 	O 	0.71630 0.89705 0.10735 -0.52200
C 	C 	0.75780 0.91160 0.03610 0.06200
H 	H 	0.77170 0.91540 0.06060 0.03300
C 	C 	0.69690 0.96350 0.25430 -0.10600
C 	C 	0.69730 0.92420 0.23190 0.34200
O 	O 	0.69675 0.92700 0.19320 -0.48500
O 	O 	0.69810 0.89050 0.25050 -0.41400
C 	C 	0.69940 0.96440 0.29780 0.01800
H 	H 	0.69960 0.93990 0.31210 0.02300
Zn	Zn	0.70608 0.12430 0.83568 1.16300
C 	C 	0.71600 0.09420 0.96290 -0.13800
C 	C 	0.69450 0.10060 0.92290 0.43600
O 	O 	0.65630 0.10438 0.92420 -0.50300
O 	O 	0.71630 0.10295 0.89265 -0.52300
C 	C 	0.75780 0.08840 0.96390 0.06200
H 	H 	0.77170 0.08460 0.93940 0.03100
C 	C 	0.69690 0.03650 0.74570 -0.10800
C 	C 	0.69730 0.07580 0.76810 0.34100
O 	O 	0.69675 0.07300 0.80680 -0.48700
O 	O 	0.69810 0.10950 0.74950 -0.41500
C 	C 	0.69940 0.03560 0.70220 0.01600
H 	H 	0.69960 0.06010 0.68790 0.02200
Zn	Zn	0.29392 0.87570 0.83568 1.16300
C 	C 	0.28400 0.90580 0.96290 -0.13800
C 	C 	0.30550 0.89940 0.92290 0.43600
O 	O 	0.34370 0.89562 0.92420 -0.50200
O 	O 	0.28370 0.89705 0.89265 -0.52300
C 	C 	0.24220 0.91160 0.96390 0.06200
H 	H 	0.22830 0.91540 0.93940 0.03200
C 	C 	0.30310 0.96350 0.74570 -0.10700
C 	C 	0.30270 0.92420 0.76810 0.34100
O 	O 	0.30325 0.92700 0.80680 -0.48600
O 	O 	0.30190 0.89050 0.74950 -0.41500
C 	C 	0.30060 0.96440 0.70220 0.01700
H 	H 	0.30040 0.93990 0.68790 0.02200
Zn	Zn	0.66432 0.79392 0.12430 1.16300
C 	C 	0.53710 0.78400 0.09420 -0.13900
C 	C 	0.57710 0.80550 0.10060 0.43600
O 	O 	0.57580 0.84370 0.10438 -0.50300
O 	O 	0.60735 0.78370 0.10295 -0.52300
C 	C 	0.53610 0.74220 0.08840 0.06000
H 	H 	0.56060 0.72830 0.08460 0.03200
C 	C 	0.75430 0.80310 0.03650 -0.10800
C 	C 	0.73190 0.80270 0.07580 0.34100
O 	O 	0.69320 0.80325 0.07300 -0.48700
O 	O 	0.75050 0.80190 0.10950 -0.41500
C 	C 	0.79780 0.80060 0.03560 0.01600
H 	H 	0.81210 0.80040 0.06010 0.02200
Zn	Zn	0.66432 0.20608 0.87570 1.16300
C 	C 	0.53710 0.21600 0.90580 -0.13900
C 	C 	0.57710 0.19450 0.89940 0.43600
O 	O 	0.57580 0.15630 0.89562 -0.50300
O 	O 	0.60735 0.21630 0.89705 -0.52300
C 	C 	0.53610 0.25780 0.91160 0.06000
H 	H 	0.56060 0.27170 0.91540 0.03200
C 	C 	0.75430 0.19690 0.96350 -0.10700
C 	C 	0.73190 0.19730 0.92420 0.34100
O 	O 	0.69320 0.19675 0.92700 -0.48600
O 	O 	0.75050 0.19810 0.89050 -0.41500
C 	C 	0.79780 0.19940 0.96440 0.01700
H 	H 	0.81210 0.19960 0.93990 0.02200
Zn	Zn	0.33568 0.20608 0.12430 1.16300
C 	C 	0.46290 0.21600 0.09420 -0.13900
C 	C 	0.42290 0.19450 0.10060 0.43600
O 	O 	0.42420 0.15630 0.10438 -0.50300
O 	O 	0.39265 0.21630 0.10295 -0.52300
C 	C 	0.46390 0.25780 0.08840 0.06000
H 	H 	0.43940 0.27170 0.08460 0.03200
C 	C 	0.24570 0.19690 0.03650 -0.10800
C 	C 	0.26810 0.19730 0.07580 0.34100
O 	O 	0.30680 0.19675 0.07300 -0.48700
O 	O 	0.24950 0.19810 0.10950 -0.41500
C 	C 	0.20220 0.19940 0.03560 0.01600
H 	H 	0.18790 0.19960 0.06010 0.02200
Zn	Zn	0.33568 0.79392 0.87570 1.16300
C 	C 	0.46290 0.78400 0.90580 -0.13900
C 	C 	0.42290 0.80550 0.89940 0.43600
O 	O 	0.42420 0.84370 0.89562 -0.50300
O 	O 	0.39265 0.78370 0.89705 -0.52300
C 	C 	0.46390 0.74220 0.91160 0.06000
H 	H 	0.43940 0.72830 0.91540 0.03200
C 	C 	0.24570 0.80310 0.96350 -0.10700
C 	C 	0.26810 0.80270 0.92420 0.34100
O 	O 	0.30680 0.80325 0.92700 -0.48600
O 	O 	0.24950 0.80190 0.89050 -0.41500
C 	C 	0.20220 0.80060 0.96440 0.01700
H 	H 	0.18790 0.80040 0.93990 0.02200
Zn	Zn	0.62430 0.16432 0.79392 1.16300
C 	C 	0.59420 0.03710 0.78400 -0.13900
C 	C 	0.60060 0.07710 0.80550 0.43600
O 	O 	0.60438 0.07580 0.84370 -0.50300
O 	O 	0.60295 0.10735 0.78370 -0.52300
C 	C 	0.58840 0.03610 0.74220 0.06100
H 	H 	0.58460 0.06060 0.72830 0.03200
C 	C 	0.53650 0.25430 0.80310 -0.10900
C 	C 	0.57580 0.23190 0.80270 0.34100
O 	O 	0.57300 0.19320 0.80325 -0.48700
O 	O 	0.60950 0.25050 0.80190 -0.41500
C 	C 	0.53560 0.29780 0.80060 0.01500
H 	H 	0.56010 0.31210 0.80040 0.02200
Zn	Zn	0.37570 0.16432 0.20608 1.16300
C 	C 	0.40580 0.03710 0.21600 -0.13900
C 	C 	0.39940 0.07710 0.19450 0.43600
O 	O 	0.39562 0.07580 0.15630 -0.50300
O 	O 	0.39705 0.10735 0.21630 -0.52300
C 	C 	0.41160 0.03610 0.25780 0.06100
H 	H 	0.41540 0.06060 0.27170 0.03200
C 	C 	0.46350 0.25430 0.19690 -0.10900
C 	C 	0.42420 0.23190 0.19730 0.34100
O 	O 	0.42700 0.19320 0.19675 -0.48700
O 	O 	0.39050 0.25050 0.19810 -0.41500
C 	C 	0.46440 0.29780 0.19940 0.01500
H 	H 	0.43990 0.31210 0.19960 0.02200
Zn	Zn	0.62430 0.83568 0.20608 1.16300
C 	C 	0.59420 0.96290 0.21600 -0.13800
C 	C 	0.60060 0.92290 0.19450 0.43600
O 	O 	0.60438 0.92420 0.15630 -0.50300
O 	O 	0.60295 0.89265 0.21630 -0.52300
C 	C 	0.58840 0.96390 0.25780 0.06200
H 	H 	0.58460 0.93940 0.27170 0.03200
C 	C 	0.53650 0.74570 0.19690 -0.10900
C 	C 	0.57580 0.76810 0.19730 0.34100
O 	O 	0.57300 0.80680 0.19675 -0.48700
O 	O 	0.60950 0.74950 0.19810 -0.41500
C 	C 	0.53560 0.70220 0.19940 0.01500
H 	H 	0.56010 0.68790 0.19960 0.02200
Zn	Zn	0.37570 0.83568 0.79392 1.16300
C 	C 	0.40580 0.96290 0.78400 -0.13800
C 	C 	0.39940 0.92290 0.80550 0.43600
O 	O 	0.39562 0.92420 0.84370 -0.50200
O 	O 	0.39705 0.89265 0.78370 -0.52300
C 	C 	0.41160 0.96390 0.74220 0.06200
H 	H 	0.41540 0.93940 0.72830 0.03200
C 	C 	0.46350 0.74570 0.80310 -0.10900
C 	C 	0.42420 0.76810 0.80270 0.34100
O 	O 	0.42700 0.80680 0.80325 -0.48700
O 	O 	0.39050 0.74950 0.80190 -0.41500
C 	C 	0.46440 0.70220 0.80060 0.01500
H 	H 	0.43990 0.68790 0.80040 0.02200
Zn	Zn	0.70608 0.87570 0.83568 1.16300
C 	C 	0.71600 0.90580 0.96290 -0.13800
C 	C 	0.69450 0.89940 0.92290 0.43600
O 	O 	0.65630 0.89562 0.92420 -0.50200
O 	O 	0.71630 0.89705 0.89265 -0.52300
C 	C 	0.75780 0.91160 0.96390 0.06200
H 	H 	0.77170 0.91540 0.93940 0.03200
C 	C 	0.69690 0.96350 0.74570 -0.10700
C 	C 	0.69730 0.92420 0.76810 0.34100
O 	O 	0.69675 0.92700 0.80680 -0.48600
O 	O 	0.69810 0.89050 0.74950 -0.41500
C 	C 	0.69940 0.96440 0.70220 0.01700
H 	H 	0.69960 0.93990 0.68790 0.02200
Zn	Zn	0.29392 0.12430 0.83568 1.16300
C 	C 	0.28400 0.09420 0.96290 -0.13800
C 	C 	0.30550 0.10060 0.92290 0.43600
O 	O 	0.34370 0.10438 0.92420 -0.50300
O 	O 	0.28370 0.10295 0.89265 -0.52300
C 	C 	0.24220 0.08840 0.96390 0.06200
H 	H 	0.22830 0.08460 0.93940 0.03100
C 	C 	0.30310 0.03650 0.74570 -0.10800
C 	C 	0.30270 0.07580 0.76810 0.34100
O 	O 	0.30325 0.07300 0.80680 -0.48700
O 	O 	0.30190 0.10950 0.74950 -0.41500
C 	C 	0.30060 0.03560 0.70220 0.01600
H 	H 	0.30040 0.06010 0.68790 0.02200
Zn	Zn	0.29392 0.87570 0.16432 1.16300
C 	C 	0.28400 0.90580 0.03710 -0.13900
C 	C 	0.30550 0.89940 0.07710 0.43600
O 	O 	0.34370 0.89562 0.07580 -0.50300
O 	O 	0.28370 0.89705 0.10735 -0.52300
C 	C 	0.24220 0.91160 0.03610 0.06100
H 	H 	0.22830 0.91540 0.06060 0.03200
C 	C 	0.30310 0.96350 0.25430 -0.10700
C 	C 	0.30270 0.92420 0.23190 0.34100
O 	O 	0.30325 0.92700 0.19320 -0.48600
O 	O 	0.30190 0.89050 0.25050 -0.41500
C 	C 	0.30060 0.96440 0.29780 0.01700
H 	H 	0.30040 0.93990 0.31210 0.02200
Zn	Zn	0.70608 0.12430 0.16432 1.16300
C 	C 	0.71600 0.09420 0.03710 -0.13900
C 	C 	0.69450 0.10060 0.07710 0.43600
O 	O 	0.65630 0.10438 0.07580 -0.50300
O 	O 	0.71630 0.10295 0.10735 -0.52300
C 	C 	0.75780 0.08840 0.03610 0.06100
H 	H 	0.77170 0.08460 0.06060 0.03200
C 	C 	0.69690 0.03650 0.25430 -0.10800
C 	C 	0.69730 0.07580 0.23190 0.34100
O 	O 	0.69675 0.07300 0.19320 -0.48700
O 	O 	0.69810 0.10950 0.25050 -0.41500
C 	C 	0.69940 0.03560 0.29780 0.01600
H 	H 	0.69960 0.06010 0.31210 0.02200
Zn	Zn	0.33568 0.20608 0.87570 1.16300
C 	C 	0.46290 0.21600 0.90580 -0.13900
C 	C 	0.42290 0.19450 0.89940 0.43600
O 	O 	0.42420 0.15630 0.89562 -0.50300
O 	O 	0.39265 0.21630 0.89705 -0.52300
C 	C 	0.46390 0.25780 0.91160 0.06000
H 	H 	0.43940 0.27170 0.91540 0.03200
C 	C 	0.24570 0.19690 0.96350 -0.10700
C 	C 	0.26810 0.19730 0.92420 0.34100
O 	O 	0.30680 0.19675 0.92700 -0.48600
O 	O 	0.24950 0.19810 0.89050 -0.41500
C 	C 	0.20220 0.19940 0.96440 0.01700
H 	H 	0.18790 0.19960 0.93990 0.02200
Zn	Zn	0.33568 0.79392 0.12430 1.16300
C 	C 	0.46290 0.78400 0.09420 -0.13900
C 	C 	0.42290 0.80550 0.10060 0.43600
O 	O 	0.42420 0.84370 0.10438 -0.50300
O 	O 	0.39265 0.78370 0.10295 -0.52300
C 	C 	0.46390 0.74220 0.08840 0.06000
H 	H 	0.43940 0.72830 0.08460 0.03200
C 	C 	0.24570 0.80310 0.03650 -0.10800
C 	C 	0.26810 0.80270 0.07580 0.34100
O 	O 	0.30680 0.80325 0.07300 -0.48700
O 	O 	0.24950 0.80190 0.10950 -0.41500
C 	C 	0.20220 0.80060 0.03560 0.01600
H 	H 	0.18790 0.80040 0.06010 0.02200
Zn	Zn	0.66432 0.79392 0.87570 1.16300
C 	C 	0.53710 0.78400 0.90580 -0.13900
C 	C 	0.57710 0.80550 0.89940 0.43600
O 	O 	0.57580 0.84370 0.89562 -0.50300
O 	O 	0.60735 0.78370 0.89705 -0.52300
C 	C 	0.53610 0.74220 0.91160 0.06000
H 	H 	0.56060 0.72830 0.91540 0.03200
C 	C 	0.75430 0.80310 0.96350 -0.10700
C 	C 	0.73190 0.80270 0.92420 0.34100
O 	O 	0.69320 0.80325 0.92700 -0.48600
O 	O 	0.75050 0.80190 0.89050 -0.41500
C 	C 	0.79780 0.80060 0.96440 0.01700
H 	H 	0.81210 0.80040 0.93990 0.02200
Zn	Zn	0.66432 0.20608 0.12430 1.16300
C 	C 	0.53710 0.21600 0.09420 -0.13900
C 	C 	0.57710 0.19450 0.10060 0.43600
O 	O 	0.57580 0.15630 0.10438 -0.50300
O 	O 	0.60735 0.21630 0.10295 -0.52300
C 	C 	0.53610 0.25780 0.08840 0.06000
H 	H 	0.56060 0.27170 0.08460 0.03200
C 	C 	0.75430 0.19690 0.03650 -0.10800
C 	C 	0.73190 0.19730 0.07580 0.34100
O 	O 	0.69320 0.19675 0.07300 -0.48700
O 	O 	0.75050 0.19810 0.10950 -0.41500
C 	C 	0.79780 0.19940 0.03560 0.01600
H 	H 	0.81210 0.19960 0.06010 0.02200
Zn	Zn	0.37570 0.83568 0.20608 1.16300
C 	C 	0.40580 0.96290 0.21600 -0.13800
C 	C 	0.39940 0.92290 0.19450 0.43600
O 	O 	0.39562 0.92420 0.15630 -0.50300
O 	O 	0.39705 0.89265 0.21630 -0.52300
C 	C 	0.41160 0.96390 0.25780 0.06200
H 	H 	0.41540 0.93940 0.27170 0.03200
C 	C 	0.46350 0.74570 0.19690 -0.10900
C 	C 	0.42420 0.76810 0.19730 0.34100
O 	O 	0.42700 0.80680 0.19675 -0.48700
O 	O 	0.39050 0.74950 0.19810 -0.41500
C 	C 	0.46440 0.70220 0.19940 0.01500
H 	H 	0.43990 0.68790 0.19960 0.02200
Zn	Zn	0.62430 0.83568 0.79392 1.16300
C 	C 	0.59420 0.96290 0.78400 -0.13800
C 	C 	0.60060 0.92290 0.80550 0.43600
O 	O 	0.60438 0.92420 0.84370 -0.50200
O 	O 	0.60295 0.89265 0.78370 -0.52300
C 	C 	0.58840 0.96390 0.74220 0.06200
H 	H 	0.58460 0.93940 0.72830 0.03200
C 	C 	0.53650 0.74570 0.80310 -0.10900
C 	C 	0.57580 0.76810 0.80270 0.34100
O 	O 	0.57300 0.80680 0.80325 -0.48700
O 	O 	0.60950 0.74950 0.80190 -0.41500
C 	C 	0.53560 0.70220 0.80060 0.01500
H 	H 	0.56010 0.68790 0.80040 0.02200
Zn	Zn	0.37570 0.16432 0.79392 1.16300
C 	C 	0.40580 0.03710 0.78400 -0.13900
C 	C 	0.39940 0.07710 0.80550 0.43600
O 	O 	0.39562 0.07580 0.84370 -0.50300
O 	O 	0.39705 0.10735 0.78370 -0.52300
C 	C 	0.41160 0.03610 0.74220 0.06100
H 	H 	0.41540 0.06060 0.72830 0.03200
C 	C 	0.46350 0.25430 0.80310 -0.10900
C 	C 	0.42420 0.23190 0.80270 0.34100
O 	O 	0.42700 0.19320 0.80325 -0.48700
O 	O 	0.39050 0.25050 0.80190 -0.41500
C 	C 	0.46440 0.29780 0.80060 0.01500
H 	H 	0.43990 0.31210 0.80040 0.02200
Zn	Zn	0.62430 0.16432 0.20608 1.16300
C 	C 	0.59420 0.03710 0.21600 -0.13900
C 	C 	0.60060 0.07710 0.19450 0.43600
O 	O 	0.60438 0.07580 0.15630 -0.50300
O 	O 	0.60295 0.10735 0.21630 -0.52300
C 	C 	0.58840 0.03610 0.25780 0.06100
H 	H 	0.58460 0.06060 0.27170 0.03200
C 	C 	0.53650 0.25430 0.19690 -0.10900
C 	C 	0.57580 0.23190 0.19730 0.34100
O 	O 	0.57300 0.19320 0.19675 -0.48700
O 	O 	0.60950 0.25050 0.19810 -0.41500
C 	C 	0.53560 0.29780 0.19940 0.01500
H 	H 	0.56010 0.31210 0.19960 0.02200
Zn	Zn	0.37806 0.12194 0.12194 1.20900
O 	O 	0.34383 0.15617 0.15617 -0.98200
Zn	Zn	0.62194 0.87806 0.12194 1.20900
O 	O 	0.65617 0.84383 0.15617 -0.98200
Zn	Zn	0.62194 0.12194 0.87806 1.20900
O 	O 	0.65617 0.15617 0.84383 -0.98200
Zn	Zn	0.37806 0.87806 0.87806 1.20900
O 	O 	0.34383 0.84383 0.84383 -0.98200
Zn	Zn	0.62194 0.87806 0.87806 1.20900
O 	O 	0.65617 0.84383 0.84383 -0.98200
Zn	Zn	0.37806 0.12194 0.87806 1.20900
O 	O 	0.34383 0.15617 0.84383 -0.98200
Zn	Zn	0.37806 0.87806 0.12194 1.20900
O 	O 	0.34383 0.84383 0.15617 -0.98200
Zn	Zn	0.62194 0.12194 0.12194 1.20900
O 	O 	0.65617 0.15617 0.15617 -0.98200
C 	C 	0.30560 0.09760 -0.00000 0.07700
H 	H 	0.33360 0.10200 -0.00000 0.03500
C 	C 	0.22030 0.08800 -0.00000 -0.09900
C 	C 	0.17990 0.08470 -0.00000 0.15300
N 	N 	0.14830 0.08180 -0.00000 -0.13800
C 	C 	0.69440 0.90240 -0.00000 0.07700
H 	H 	0.66640 0.89800 -0.00000 0.03600
C 	C 	0.77970 0.91200 -0.00000 -0.09900
C 	C 	0.82010 0.91530 -0.00000 0.15300
N 	N 	0.85170 0.91820 -0.00000 -0.13700
C 	C 	0.69440 0.09760 -0.00000 0.07700
H 	H 	0.66640 0.10200 -0.00000 0.03500
C 	C 	0.77970 0.08800 -0.00000 -0.09900
C 	C 	0.82010 0.08470 -0.00000 0.15300
N 	N 	0.85170 0.08180 -0.00000 -0.13800
C 	C 	0.30560 0.90240 -0.00000 0.07700
H 	H 	0.33360 0.89800 -0.00000 0.03600
C 	C 	0.22030 0.91200 -0.00000 -0.09900
C 	C 	0.17990 0.91530 -0.00000 0.15300
N 	N 	0.14830 0.91820 -0.00000 -0.13800
C 	C 	0.50000 0.80560 0.09760 0.07900
H 	H 	0.50000 0.83360 0.10200 0.03500
C 	C 	0.50000 0.72030 0.08800 -0.09700
C 	C 	0.50000 0.67990 0.08470 0.15200
N 	N 	0.50000 0.64830 0.08180 -0.13700
C 	C 	0.50000 0.19440 0.90240 0.07900
H 	H 	0.50000 0.16640 0.89800 0.03600
C 	C 	0.50000 0.27970 0.91200 -0.09700
C 	C 	0.50000 0.32010 0.91530 0.15300
N 	N 	0.50000 0.35170 0.91820 -0.13700
C 	C 	0.50000 0.19440 0.09760 0.07900
H 	H 	0.50000 0.16640 0.10200 0.03500
C 	C 	0.50000 0.27970 0.08800 -0.09700
C 	C 	0.50000 0.32010 0.08470 0.15300
N 	N 	0.50000 0.35170 0.08180 -0.13700
C 	C 	0.50000 0.80560 0.90240 0.07900
H 	H 	0.50000 0.83360 0.89800 0.03600
C 	C 	0.50000 0.72030 0.91200 -0.09700
C 	C 	0.50000 0.67990 0.91530 0.15300
N 	N 	0.50000 0.64830 0.91820 -0.13700
C 	C 	0.59760 0.00000 0.80560 0.07700
H 	H 	0.60200 0.00000 0.83360 0.03600
C 	C 	0.58800 0.00000 0.72030 -0.09900
C 	C 	0.58470 0.00000 0.67990 0.15300
N 	N 	0.58180 0.00000 0.64830 -0.13800
C 	C 	0.40240 0.00000 0.19440 0.07700
H 	H 	0.39800 0.00000 0.16640 0.03500
C 	C 	0.41200 0.00000 0.27970 -0.09900
C 	C 	0.41530 0.00000 0.32010 0.15300
N 	N 	0.41820 0.00000 0.35170 -0.13800
C 	C 	0.59760 0.00000 0.19440 0.07700
H 	H 	0.60200 0.00000 0.16640 0.03500
C 	C 	0.58800 0.00000 0.27970 -0.09900
C 	C 	0.58470 0.00000 0.32010 0.15300
N 	N 	0.58180 0.00000 0.35170 -0.13800
C 	C 	0.40240 0.00000 0.80560 0.07700
H 	H 	0.39800 0.00000 0.83360 0.03600
C 	C 	0.41200 0.00000 0.72030 -0.09900
C 	C 	0.41530 0.00000 0.67990 0.15300
N 	N 	0.41820 0.00000 0.64830 -0.13800
C 	C 	0.30340 0.00000 0.23390 0.05000
H 	H 	0.30370 0.00000 0.20550 0.04900
C 	C 	0.29840 0.00000 0.31900 -0.04800
C 	C 	0.29620 0.00000 0.36330 0.09000
N 	N 	0.29270 0.00000 0.39770 -0.11800
C 	C 	0.69660 0.00000 0.23390 0.05000
H 	H 	0.69630 0.00000 0.20550 0.04900
C 	C 	0.70160 0.00000 0.31900 -0.04800
C 	C 	0.70380 0.00000 0.36330 0.09000
N 	N 	0.70730 0.00000 0.39770 -0.11800
C 	C 	0.69660 0.00000 0.76610 0.05000
H 	H 	0.69630 0.00000 0.79450 0.04900
C 	C 	0.70160 0.00000 0.68100 -0.04800
C 	C 	0.70380 0.00000 0.63670 0.09000
N 	N 	0.70730 0.00000 0.60230 -0.11800
C 	C 	0.30340 0.00000 0.76610 0.05000
H 	H 	0.30370 0.00000 0.79450 0.04900
C 	C 	0.29840 0.00000 0.68100 -0.04800
C 	C 	0.29620 0.00000 0.63670 0.09000
N 	N 	0.29270 0.00000 0.60230 -0.11800
C 	C 	0.73390 0.80340 -0.00000 0.05000
H 	H 	0.70550 0.80370 -0.00000 0.04900
C 	C 	0.81900 0.79840 -0.00000 -0.04800
C 	C 	0.86330 0.79620 -0.00000 0.09000
N 	N 	0.89770 0.79270 -0.00000 -0.11700
C 	C 	0.73390 0.19660 -0.00000 0.05000
H 	H 	0.70550 0.19630 -0.00000 0.04900
C 	C 	0.81900 0.20160 -0.00000 -0.04800
C 	C 	0.86330 0.20380 -0.00000 0.09000
N 	N 	0.89770 0.20730 -0.00000 -0.11700
C 	C 	0.26610 0.19660 -0.00000 0.05000
H 	H 	0.29450 0.19630 -0.00000 0.04900
C 	C 	0.18100 0.20160 -0.00000 -0.04800
C 	C 	0.13670 0.20380 -0.00000 0.09000
N 	N 	0.10230 0.20730 -0.00000 -0.11800
C 	C 	0.26610 0.80340 -0.00000 0.05000
H 	H 	0.29450 0.80370 -0.00000 0.04900
C 	C 	0.18100 0.79840 -0.00000 -0.04800
C 	C 	0.13670 0.79620 -0.00000 0.09000
N 	N 	0.10230 0.79270 -0.00000 -0.11800
C 	C 	0.50000 0.23390 0.80340 0.05200
H 	H 	0.50000 0.20550 0.80370 0.04900
C 	C 	0.50000 0.31900 0.79840 -0.04600
C 	C 	0.50000 0.36330 0.79620 0.09000
N 	N 	0.50000 0.39770 0.79270 -0.11700
C 	C 	0.50000 0.23390 0.19660 0.05200
H 	H 	0.50000 0.20550 0.19630 0.04900
C 	C 	0.50000 0.31900 0.20160 -0.04600
C 	C 	0.50000 0.36330 0.20380 0.09000
N 	N 	0.50000 0.39770 0.20730 -0.11700
C 	C 	0.50000 0.76610 0.19660 0.05200
H 	H 	0.50000 0.79450 0.19630 0.04900
C 	C 	0.50000 0.68100 0.20160 -0.04600
C 	C 	0.50000 0.63670 0.20380 0.09000
N 	N 	0.50000 0.60230 0.20730 -0.11700
C 	C 	0.50000 0.76610 0.80340 0.05200
H 	H 	0.50000 0.79450 0.80370 0.04900
C 	C 	0.50000 0.68100 0.79840 -0.04600
C 	C 	0.50000 0.63670 0.79620 0.09000
N 	N 	0.50000 0.60230 0.79270 -0.11700
Zn	Zn	0.29392 0.62430 0.66432 1.16300
C 	C 	0.28400 0.59420 0.53710 -0.13900
C 	C 	0.30550 0.60060 0.57710 0.43600
O 	O 	0.34370 0.60438 0.57580 -0.50300
O 	O 	0.28370 0.60295 0.60735 -0.52300
C 	C 	0.24220 0.58840 0.53610 0.06000
H 	H 	0.22830 0.58460 0.56060 0.03200
C 	C 	0.30310 0.53650 0.75430 -0.10900
C 	C 	0.30270 0.57580 0.73190 0.34100
O 	O 	0.30325 0.57300 0.69320 -0.48700
O 	O 	0.30190 0.60950 0.75050 -0.41500
C 	C 	0.30060 0.53560 0.79780 0.01500
H 	H 	0.30040 0.56010 0.81210 0.02200
Zn	Zn	0.70608 0.37570 0.66432 1.16300
C 	C 	0.71600 0.40580 0.53710 -0.13900
C 	C 	0.69450 0.39940 0.57710 0.43600
O 	O 	0.65630 0.39562 0.57580 -0.50300
O 	O 	0.71630 0.39705 0.60735 -0.52300
C 	C 	0.75780 0.41160 0.53610 0.06000
H 	H 	0.77170 0.41540 0.56060 0.03200
C 	C 	0.69690 0.46350 0.75430 -0.10900
C 	C 	0.69730 0.42420 0.73190 0.34100
O 	O 	0.69675 0.42700 0.69320 -0.48700
O 	O 	0.69810 0.39050 0.75050 -0.41500
C 	C 	0.69940 0.46440 0.79780 0.01500
H 	H 	0.69960 0.43990 0.81210 0.02200
Zn	Zn	0.70608 0.62430 0.33568 1.16300
C 	C 	0.71600 0.59420 0.46290 -0.13900
C 	C 	0.69450 0.60060 0.42290 0.43600
O 	O 	0.65630 0.60438 0.42420 -0.50300
O 	O 	0.71630 0.60295 0.39265 -0.52300
C 	C 	0.75780 0.58840 0.46390 0.06000
H 	H 	0.77170 0.58460 0.43940 0.03200
C 	C 	0.69690 0.53650 0.24570 -0.10900
C 	C 	0.69730 0.57580 0.26810 0.34100
O 	O 	0.69675 0.57300 0.30680 -0.48700
O 	O 	0.69810 0.60950 0.24950 -0.41500
C 	C 	0.69940 0.53560 0.20220 0.01500
H 	H 	0.69960 0.56010 0.18790 0.02200
Zn	Zn	0.29392 0.37570 0.33568 1.16300
C 	C 	0.28400 0.40580 0.46290 -0.13900
C 	C 	0.30550 0.39940 0.42290 0.43600
O 	O 	0.34370 0.39562 0.42420 -0.50300
O 	O 	0.28370 0.39705 0.39265 -0.52300
C 	C 	0.24220 0.41160 0.46390 0.06000
H 	H 	0.22830 0.41540 0.43940 0.03200
C 	C 	0.30310 0.46350 0.24570 -0.10900
C 	C 	0.30270 0.42420 0.26810 0.34100
O 	O 	0.30325 0.42700 0.30680 -0.48700
O 	O 	0.30190 0.39050 0.24950 -0.41500
C 	C 	0.30060 0.46440 0.20220 0.01500
H 	H 	0.30040 0.43990 0.18790 0.02200
Zn	Zn	0.66432 0.29392 0.62430 1.16300
C 	C 	0.53710 0.28400 0.59420 -0.13900
C 	C 	0.57710 0.30550 0.60060 0.43600
O 	O 	0.57580 0.34370 0.60438 -0.50300
O 	O 	0.60735 0.28370 0.60295 -0.52300
C 	C 	0.53610 0.24220 0.58840 0.06000
H 	H 	0.56060 0.22830 0.58460 0.03200
C 	C 	0.75430 0.30310 0.53650 -0.10900
C 	C 	0.73190 0.30270 0.57580 0.34100
O 	O 	0.69320 0.30325 0.57300 -0.48700
O 	O 	0.75050 0.30190 0.60950 -0.41500
C 	C 	0.79780 0.30060 0.53560 0.01500
H 	H 	0.81210 0.30040 0.56010 0.02200
Zn	Zn	0.66432 0.70608 0.37570 1.16300
C 	C 	0.53710 0.71600 0.40580 -0.13900
C 	C 	0.57710 0.69450 0.39940 0.43600
O 	O 	0.57580 0.65630 0.39562 -0.50300
O 	O 	0.60735 0.71630 0.39705 -0.52300
C 	C 	0.53610 0.75780 0.41160 0.06000
H 	H 	0.56060 0.77170 0.41540 0.03200
C 	C 	0.75430 0.69690 0.46350 -0.10900
C 	C 	0.73190 0.69730 0.42420 0.34100
O 	O 	0.69320 0.69675 0.42700 -0.48700
O 	O 	0.75050 0.69810 0.39050 -0.41500
C 	C 	0.79780 0.69940 0.46440 0.01500
H 	H 	0.81210 0.69960 0.43990 0.02200
Zn	Zn	0.33568 0.70608 0.62430 1.16300
C 	C 	0.46290 0.71600 0.59420 -0.13900
C 	C 	0.42290 0.69450 0.60060 0.43600
O 	O 	0.42420 0.65630 0.60438 -0.50300
O 	O 	0.39265 0.71630 0.60295 -0.52300
C 	C 	0.46390 0.75780 0.58840 0.06000
H 	H 	0.43940 0.77170 0.58460 0.03200
C 	C 	0.24570 0.69690 0.53650 -0.10900
C 	C 	0.26810 0.69730 0.57580 0.34100
O 	O 	0.30680 0.69675 0.57300 -0.48700
O 	O 	0.24950 0.69810 0.60950 -0.41500
C 	C 	0.20220 0.69940 0.53560 0.01500
H 	H 	0.18790 0.69960 0.56010 0.02200
Zn	Zn	0.33568 0.29392 0.37570 1.16300
C 	C 	0.46290 0.28400 0.40580 -0.13900
C 	C 	0.42290 0.30550 0.39940 0.43600
O 	O 	0.42420 0.34370 0.39562 -0.50300
O 	O 	0.39265 0.28370 0.39705 -0.52300
C 	C 	0.46390 0.24220 0.41160 0.06000
H 	H 	0.43940 0.22830 0.41540 0.03200
C 	C 	0.24570 0.30310 0.46350 -0.10900
C 	C 	0.26810 0.30270 0.42420 0.34100
O 	O 	0.30680 0.30325 0.42700 -0.48700
O 	O 	0.24950 0.30190 0.39050 -0.41500
C 	C 	0.20220 0.30060 0.46440 0.01500
H 	H 	0.18790 0.30040 0.43990 0.02200
Zn	Zn	0.62430 0.66432 0.29392 1.16300
C 	C 	0.59420 0.53710 0.28400 -0.13900
C 	C 	0.60060 0.57710 0.30550 0.43600
O 	O 	0.60438 0.57580 0.34370 -0.50300
O 	O 	0.60295 0.60735 0.28370 -0.52300
C 	C 	0.58840 0.53610 0.24220 0.06000
H 	H 	0.58460 0.56060 0.22830 0.03200
C 	C 	0.53650 0.75430 0.30310 -0.10900
C 	C 	0.57580 0.73190 0.30270 0.34100
O 	O 	0.57300 0.69320 0.30325 -0.48700
O 	O 	0.60950 0.75050 0.30190 -0.41500
C 	C 	0.53560 0.79780 0.30060 0.01500
H 	H 	0.56010 0.81210 0.30040 0.02200
Zn	Zn	0.37570 0.66432 0.70608 1.16300
C 	C 	0.40580 0.53710 0.71600 -0.13900
C 	C 	0.39940 0.57710 0.69450 0.43600
O 	O 	0.39562 0.57580 0.65630 -0.50300
O 	O 	0.39705 0.60735 0.71630 -0.52300
C 	C 	0.41160 0.53610 0.75780 0.06000
H 	H 	0.41540 0.56060 0.77170 0.03200
C 	C 	0.46350 0.75430 0.69690 -0.10900
C 	C 	0.42420 0.73190 0.69730 0.34100
O 	O 	0.42700 0.69320 0.69675 -0.48700
O 	O 	0.39050 0.75050 0.69810 -0.41500
C 	C 	0.46440 0.79780 0.69940 0.01500
H 	H 	0.43990 0.81210 0.69960 0.02200
Zn	Zn	0.62430 0.33568 0.70608 1.16300
C 	C 	0.59420 0.46290 0.71600 -0.13900
C 	C 	0.60060 0.42290 0.69450 0.43600
O 	O 	0.60438 0.42420 0.65630 -0.50300
O 	O 	0.60295 0.39265 0.71630 -0.52300
C 	C 	0.58840 0.46390 0.75780 0.06000
H 	H 	0.58460 0.43940 0.77170 0.03200
C 	C 	0.53650 0.24570 0.69690 -0.10900
C 	C 	0.57580 0.26810 0.69730 0.34100
O 	O 	0.57300 0.30680 0.69675 -0.48700
O 	O 	0.60950 0.24950 0.69810 -0.41500
C 	C 	0.53560 0.20220 0.69940 0.01500
H 	H 	0.56010 0.18790 0.69960 0.02200
Zn	Zn	0.37570 0.33568 0.29392 1.16300
C 	C 	0.40580 0.46290 0.28400 -0.13900
C 	C 	0.39940 0.42290 0.30550 0.43600
O 	O 	0.39562 0.42420 0.34370 -0.50300
O 	O 	0.39705 0.39265 0.28370 -0.52300
C 	C 	0.41160 0.46390 0.24220 0.06000
H 	H 	0.41540 0.43940 0.22830 0.03200
C 	C 	0.46350 0.24570 0.30310 -0.10900
C 	C 	0.42420 0.26810 0.30270 0.34100
O 	O 	0.42700 0.30680 0.30325 -0.48700
O 	O 	0.39050 0.24950 0.30190 -0.41500
C 	C 	0.46440 0.20220 0.30060 0.01500
H 	H 	0.43990 0.18790 0.30040 0.02200
Zn	Zn	0.70608 0.37570 0.33568 1.16300
C 	C 	0.71600 0.40580 0.46290 -0.13900
C 	C 	0.69450 0.39940 0.42290 0.43600
O 	O 	0.65630 0.39562 0.42420 -0.50300
O 	O 	0.71630 0.39705 0.39265 -0.52300
C 	C 	0.75780 0.41160 0.46390 0.06000
H 	H 	0.77170 0.41540 0.43940 0.03200
C 	C 	0.69690 0.46350 0.24570 -0.10900
C 	C 	0.69730 0.42420 0.26810 0.34100
O 	O 	0.69675 0.42700 0.30680 -0.48700
O 	O 	0.69810 0.39050 0.24950 -0.41500
C 	C 	0.69940 0.46440 0.20220 0.01500
H 	H 	0.69960 0.43990 0.18790 0.02200
Zn	Zn	0.29392 0.62430 0.33568 1.16300
C 	C 	0.28400 0.59420 0.46290 -0.13900
C 	C 	0.30550 0.60060 0.42290 0.43600
O 	O 	0.34370 0.60438 0.42420 -0.50300
O 	O 	0.28370 0.60295 0.39265 -0.52300
C 	C 	0.24220 0.58840 0.46390 0.06000
H 	H 	0.22830 0.58460 0.43940 0.03200
C 	C 	0.30310 0.53650 0.24570 -0.10900
C 	C 	0.30270 0.57580 0.26810 0.34100
O 	O 	0.30325 0.57300 0.30680 -0.48700
O 	O 	0.30190 0.60950 0.24950 -0.41500
C 	C 	0.30060 0.53560 0.20220 0.01500
H 	H 	0.30040 0.56010 0.18790 0.02200
Zn	Zn	0.29392 0.37570 0.66432 1.16300
C 	C 	0.28400 0.40580 0.53710 -0.13900
C 	C 	0.30550 0.39940 0.57710 0.43600
O 	O 	0.34370 0.39562 0.57580 -0.50300
O 	O 	0.28370 0.39705 0.60735 -0.52300
C 	C 	0.24220 0.41160 0.53610 0.06000
H 	H 	0.22830 0.41540 0.56060 0.03200
C 	C 	0.30310 0.46350 0.75430 -0.10900
C 	C 	0.30270 0.42420 0.73190 0.34100
O 	O 	0.30325 0.42700 0.69320 -0.48700
O 	O 	0.30190 0.39050 0.75050 -0.41500
C 	C 	0.30060 0.46440 0.79780 0.01500
H 	H 	0.30040 0.43990 0.81210 0.02200
Zn	Zn	0.70608 0.62430 0.66432 1.16300
C 	C 	0.71600 0.59420 0.53710 -0.13900
C 	C 	0.69450 0.60060 0.57710 0.43600
O 	O 	0.65630 0.60438 0.57580 -0.50300
O 	O 	0.71630 0.60295 0.60735 -0.52300
C 	C 	0.75780 0.58840 0.53610 0.06000
H 	H 	0.77170 0.58460 0.56060 0.03200
C 	C 	0.69690 0.53650 0.75430 -0.10900
C 	C 	0.69730 0.57580 0.73190 0.34100
O 	O 	0.69675 0.57300 0.69320 -0.48700
O 	O 	0.69810 0.60950 0.75050 -0.41500
C 	C 	0.69940 0.53560 0.79780 0.01500
H 	H 	0.69960 0.56010 0.81210 0.02200
Zn	Zn	0.33568 0.70608 0.37570 1.16300
C 	C 	0.46290 0.71600 0.40580 -0.13900
C 	C 	0.42290 0.69450 0.39940 0.43600
O 	O 	0.42420 0.65630 0.39562 -0.50300
O 	O 	0.39265 0.71630 0.39705 -0.52300
C 	C 	0.46390 0.75780 0.41160 0.06000
H 	H 	0.43940 0.77170 0.41540 0.03200
C 	C 	0.24570 0.69690 0.46350 -0.10900
C 	C 	0.26810 0.69730 0.42420 0.34100
O 	O 	0.30680 0.69675 0.42700 -0.48700
O 	O 	0.24950 0.69810 0.39050 -0.41500
C 	C 	0.20220 0.69940 0.46440 0.01500
H 	H 	0.18790 0.69960 0.43990 0.02200
Zn	Zn	0.33568 0.29392 0.62430 1.16300
C 	C 	0.46290 0.28400 0.59420 -0.13900
C 	C 	0.42290 0.30550 0.60060 0.43600
O 	O 	0.42420 0.34370 0.60438 -0.50300
O 	O 	0.39265 0.28370 0.60295 -0.52300
C 	C 	0.46390 0.24220 0.58840 0.06000
H 	H 	0.43940 0.22830 0.58460 0.03200
C 	C 	0.24570 0.30310 0.53650 -0.10900
C 	C 	0.26810 0.30270 0.57580 0.34100
O 	O 	0.30680 0.30325 0.57300 -0.48700
O 	O 	0.24950 0.30190 0.60950 -0.41500
C 	C 	0.20220 0.30060 0.53560 0.01500
H 	H 	0.18790 0.30040 0.56010 0.02200
Zn	Zn	0.66432 0.29392 0.37570 1.16300
C 	C 	0.53710 0.28400 0.40580 -0.13900
C 	C 	0.57710 0.30550 0.39940 0.43600
O 	O 	0.57580 0.34370 0.39562 -0.50300
O 	O 	0.60735 0.28370 0.39705 -0.52300
C 	C 	0.53610 0.24220 0.41160 0.06000
H 	H 	0.56060 0.22830 0.41540 0.03200
C 	C 	0.75430 0.30310 0.46350 -0.10900
C 	C 	0.73190 0.30270 0.42420 0.34100
O 	O 	0.69320 0.30325 0.42700 -0.48700
O 	O 	0.75050 0.30190 0.39050 -0.41500
C 	C 	0.79780 0.30060 0.46440 0.01500
H 	H 	0.81210 0.30040 0.43990 0.02200
Zn	Zn	0.66432 0.70608 0.62430 1.16300
C 	C 	0.53710 0.71600 0.59420 -0.13900
C 	C 	0.57710 0.69450 0.60060 0.43600
O 	O 	0.57580 0.65630 0.60438 -0.50300
O 	O 	0.60735 0.71630 0.60295 -0.52300
C 	C 	0.53610 0.75780 0.58840 0.06000
H 	H 	0.56060 0.77170 0.58460 0.03200
C 	C 	0.75430 0.69690 0.53650 -0.10900
C 	C 	0.73190 0.69730 0.57580 0.34100
O 	O 	0.69320 0.69675 0.57300 -0.48700
O 	O 	0.75050 0.69810 0.60950 -0.41500
C 	C 	0.79780 0.69940 0.53560 0.01500
H 	H 	0.81210 0.69960 0.56010 0.02200
Zn	Zn	0.37570 0.33568 0.70608 1.16300
C 	C 	0.40580 0.46290 0.71600 -0.13900
C 	C 	0.39940 0.42290 0.69450 0.43600
O 	O 	0.39562 0.42420 0.65630 -0.50300
O 	O 	0.39705 0.39265 0.71630 -0.52300
C 	C 	0.41160 0.46390 0.75780 0.06000
H 	H 	0.41540 0.43940 0.77170 0.03200
C 	C 	0.46350 0.24570 0.69690 -0.10900
C 	C 	0.42420 0.26810 0.69730 0.34100
O 	O 	0.42700 0.30680 0.69675 -0.48700
O 	O 	0.39050 0.24950 0.69810 -0.41500
C 	C 	0.46440 0.20220 0.69940 0.01500
H 	H 	0.43990 0.18790 0.69960 0.02200
Zn	Zn	0.62430 0.33568 0.29392 1.16300
C 	C 	0.59420 0.46290 0.28400 -0.13900
C 	C 	0.60060 0.42290 0.30550 0.43600
O 	O 	0.60438 0.42420 0.34370 -0.50300
O 	O 	0.60295 0.39265 0.28370 -0.52300
C 	C 	0.58840 0.46390 0.24220 0.06000
H 	H 	0.58460 0.43940 0.22830 0.03200
C 	C 	0.53650 0.24570 0.30310 -0.10900
C 	C 	0.57580 0.26810 0.30270 0.34100
O 	O 	0.57300 0.30680 0.30325 -0.48700
O 	O 	0.60950 0.24950 0.30190 -0.41500
C 	C 	0.53560 0.20220 0.30060 0.01500
H 	H 	0.56010 0.18790 0.30040 0.02200
Zn	Zn	0.37570 0.66432 0.29392 1.16300
C 	C 	0.40580 0.53710 0.28400 -0.13900
C 	C 	0.39940 0.57710 0.30550 0.43600
O 	O 	0.39562 0.57580 0.34370 -0.50300
O 	O 	0.39705 0.60735 0.28370 -0.52300
C 	C 	0.41160 0.53610 0.24220 0.06000
H 	H 	0.41540 0.56060 0.22830 0.03200
C 	C 	0.46350 0.75430 0.30310 -0.10900
C 	C 	0.42420 0.73190 0.30270 0.34100
O 	O 	0.42700 0.69320 0.30325 -0.48700
O 	O 	0.39050 0.75050 0.30190 -0.41500
C 	C 	0.46440 0.79780 0.30060 0.01500
H 	H 	0.43990 0.81210 0.30040 0.02200
Zn	Zn	0.62430 0.66432 0.70608 1.16300
C 	C 	0.59420 0.53710 0.71600 -0.13900
C 	C 	0.60060 0.57710 0.69450 0.43600
O 	O 	0.60438 0.57580 0.65630 -0.50300
O 	O 	0.60295 0.60735 0.71630 -0.52300
C 	C 	0.58840 0.53610 0.75780 0.06000
H 	H 	0.58460 0.56060 0.77170 0.03200
C 	C 	0.53650 0.75430 0.69690 -0.10900
C 	C 	0.57580 0.73190 0.69730 0.34100
O 	O 	0.57300 0.69320 0.69675 -0.48700
O 	O 	0.60950 0.75050 0.69810 -0.41500
C 	C 	0.53560 0.79780 0.69940 0.01500
H 	H 	0.56010 0.81210 0.69960 0.02200
Zn	Zn	0.37806 0.62194 0.62194 1.20900
O 	O 	0.34383 0.65617 0.65617 -0.98200
Zn	Zn	0.62194 0.37806 0.62194 1.20900
O 	O 	0.65617 0.34383 0.65617 -0.98200
Zn	Zn	0.62194 0.62194 0.37806 1.20900
O 	O 	0.65617 0.65617 0.34383 -0.98200
Zn	Zn	0.37806 0.37806 0.37806 1.20900
O 	O 	0.34383 0.34383 0.34383 -0.98200
Zn	Zn	0.62194 0.37806 0.37806 1.20900
O 	O 	0.65617 0.34383 0.34383 -0.98200
Zn	Zn	0.37806 0.62194 0.37806 1.20900
O 	O 	0.34383 0.65617 0.34383 -0.98200
Zn	Zn	0.37806 0.37806 0.62194 1.20900
O 	O 	0.34383 0.34383 0.65617 -0.98200
Zn	Zn	0.62194 0.62194 0.62194 1.20900
O 	O 	0.65617 0.65617 0.65617 -0.98200
C 	C 	0.30560 0.59760 0.50000 0.07900
H 	H 	0.33360 0.60200 0.50000 0.03500
C 	C 	0.22030 0.58800 0.50000 -0.09700
C 	C 	0.17990 0.58470 0.50000 0.15300
N 	N 	0.14830 0.58180 0.50000 -0.13700
C 	C 	0.69440 0.40240 0.50000 0.07900
H 	H 	0.66640 0.39800 0.50000 0.03500
C 	C 	0.77970 0.41200 0.50000 -0.09700
C 	C 	0.82010 0.41530 0.50000 0.15300
N 	N 	0.85170 0.41820 0.50000 -0.13700
C 	C 	0.69440 0.59760 0.50000 0.07900
H 	H 	0.66640 0.60200 0.50000 0.03500
C 	C 	0.77970 0.58800 0.50000 -0.09700
C 	C 	0.82010 0.58470 0.50000 0.15300
N 	N 	0.85170 0.58180 0.50000 -0.13700
C 	C 	0.30560 0.40240 0.50000 0.07900
H 	H 	0.33360 0.39800 0.50000 0.03500
C 	C 	0.22030 0.41200 0.50000 -0.09700
C 	C 	0.17990 0.41530 0.50000 0.15300
N 	N 	0.14830 0.41820 0.50000 -0.13700
C 	C 	0.50000 0.30560 0.59760 0.07900
H 	H 	0.50000 0.33360 0.60200 0.03500
C 	C 	0.50000 0.22030 0.58800 -0.09700
C 	C 	0.50000 0.17990 0.58470 0.15300
N 	N 	0.50000 0.14830 0.58180 -0.13700
C 	C 	0.50000 0.69440 0.40240 0.07900
H 	H 	0.50000 0.66640 0.39800 0.03500
C 	C 	0.50000 0.77970 0.41200 -0.09700
C 	C 	0.50000 0.82010 0.41530 0.15300
N 	N 	0.50000 0.85170 0.41820 -0.13700
C 	C 	0.50000 0.69440 0.59760 0.07900
H 	H 	0.50000 0.66640 0.60200 0.03500
C 	C 	0.50000 0.77970 0.58800 -0.09700
C 	C 	0.50000 0.82010 0.58470 0.15300
N 	N 	0.50000 0.85170 0.58180 -0.13700
C 	C 	0.50000 0.30560 0.40240 0.07900
H 	H 	0.50000 0.33360 0.39800 0.03500
C 	C 	0.50000 0.22030 0.41200 -0.09700
C 	C 	0.50000 0.17990 0.41530 0.15300
N 	N 	0.50000 0.14830 0.41820 -0.13700
C 	C 	0.59760 0.50000 0.30560 0.07900
H 	H 	0.60200 0.50000 0.33360 0.03500
C 	C 	0.58800 0.50000 0.22030 -0.09700
C 	C 	0.58470 0.50000 0.17990 0.15300
N 	N 	0.58180 0.50000 0.14830 -0.13700
C 	C 	0.40240 0.50000 0.69440 0.07900
H 	H 	0.39800 0.50000 0.66640 0.03500
C 	C 	0.41200 0.50000 0.77970 -0.09700
C 	C 	0.41530 0.50000 0.82010 0.15300
N 	N 	0.41820 0.50000 0.85170 -0.13700
C 	C 	0.59760 0.50000 0.69440 0.07900
H 	H 	0.60200 0.50000 0.66640 0.03500
C 	C 	0.58800 0.50000 0.77970 -0.09700
C 	C 	0.58470 0.50000 0.82010 0.15300
N 	N 	0.58180 0.50000 0.85170 -0.13700
C 	C 	0.40240 0.50000 0.30560 0.07900
H 	H 	0.39800 0.50000 0.33360 0.03500
C 	C 	0.41200 0.50000 0.22030 -0.09700
C 	C 	0.41530 0.50000 0.17990 0.15300
N 	N 	0.41820 0.50000 0.14830 -0.13700
C 	C 	0.30340 0.50000 0.73390 0.05200
H 	H 	0.30370 0.50000 0.70550 0.04900
C 	C 	0.29840 0.50000 0.81900 -0.04600
C 	C 	0.29620 0.50000 0.86330 0.09000
N 	N 	0.29270 0.50000 0.89770 -0.11700
C 	C 	0.69660 0.50000 0.73390 0.05200
H 	H 	0.69630 0.50000 0.70550 0.04900
C 	C 	0.70160 0.50000 0.81900 -0.04600
C 	C 	0.70380 0.50000 0.86330 0.09000
N 	N 	0.70730 0.50000 0.89770 -0.11700
C 	C 	0.69660 0.50000 0.26610 0.05200
H 	H 	0.69630 0.50000 0.29450 0.04900
C 	C 	0.70160 0.50000 0.18100 -0.04600
C 	C 	0.70380 0.50000 0.13670 0.09000
N 	N 	0.70730 0.50000 0.10230 -0.11700
C 	C 	0.30340 0.50000 0.26610 0.05200
H 	H 	0.30370 0.50000 0.29450 0.04900
C 	C 	0.29840 0.50000 0.18100 -0.04600
C 	C 	0.29620 0.50000 0.13670 0.09000
N 	N 	0.29270 0.50000 0.10230 -0.11700
C 	C 	0.73390 0.30340 0.50000 0.05200
H 	H 	0.70550 0.30370 0.50000 0.04900
C 	C 	0.81900 0.29840 0.50000 -0.04600
C 	C 	0.86330 0.29620 0.50000 0.09000
N 	N 	0.89770 0.29270 0.50000 -0.11700
C 	C 	0.73390 0.69660 0.50000 0.05200
H 	H 	0.70550 0.69630 0.50000 0.04900
C 	C 	0.81900 0.70160 0.50000 -0.04600
C 	C 	0.86330 0.70380 0.50000 0.09000
N 	N 	0.89770 0.70730 0.50000 -0.11700
C 	C 	0.26610 0.69660 0.50000 0.05200
H 	H 	0.29450 0.69630 0.50000 0.04900
C 	C 	0.18100 0.70160 0.50000 -0.04600
C 	C 	0.13670 0.70380 0.50000 0.09000
N 	N 	0.10230 0.70730 0.50000 -0.11700
C 	C 	0.26610 0.30340 0.50000 0.05200
H 	H 	0.29450 0.30370 0.50000 0.04900
C 	C 	0.18100 0.29840 0.50000 -0.04600
C 	C 	0.13670 0.29620 0.50000 0.09000
N 	N 	0.10230 0.29270 0.50000 -0.11700
C 	C 	0.50000 0.73390 0.30340 0.05200
H 	H 	0.50000 0.70550 0.30370 0.04900
C 	C 	0.50000 0.81900 0.29840 -0.04600
C 	C 	0.50000 0.86330 0.29620 0.09000
N 	N 	0.50000 0.89770 0.29270 -0.11700
C 	C 	0.50000 0.73390 0.69660 0.05200
H 	H 	0.50000 0.70550 0.69630 0.04900
C 	C 	0.50000 0.81900 0.70160 -0.04600
C 	C 	0.50000 0.86330 0.70380 0.09000
N 	N 	0.50000 0.89770 0.70730 -0.11700
C 	C 	0.50000 0.26610 0.69660 0.05200
H 	H 	0.50000 0.29450 0.69630 0.04900
C 	C 	0.50000 0.18100 0.70160 -0.04600
C 	C 	0.50000 0.13670 0.70380 0.09000
N 	N 	0.50000 0.10230 0.70730 -0.11700
C 	C 	0.50000 0.26610 0.30340 0.05200
H 	H 	0.50000 0.29450 0.30370 0.04900
C 	C 	0.50000 0.18100 0.29840 -0.04600
C 	C 	0.50000 0.13670 0.29620 0.09000
N 	N 	0.50000 0.10230 0.29270 -0.11700
Zn	Zn	0.79392 0.12430 0.66432 1.16300
C 	C 	0.78400 0.09420 0.53710 -0.13900
C 	C 	0.80550 0.10060 0.57710 0.43600
O 	O 	0.84370 0.10438 0.57580 -0.50300
O 	O 	0.78370 0.10295 0.60735 -0.52300
C 	C 	0.74220 0.08840 0.53610 0.06000
H 	H 	0.72830 0.08460 0.56060 0.03200
C 	C 	0.80310 0.03650 0.75430 -0.10800
C 	C 	0.80270 0.07580 0.73190 0.34100
O 	O 	0.80325 0.07300 0.69320 -0.48700
O 	O 	0.80190 0.10950 0.75050 -0.41500
C 	C 	0.80060 0.03560 0.79780 0.01600
H 	H 	0.80040 0.06010 0.81210 0.02200
Zn	Zn	0.20608 0.87570 0.66432 1.16300
C 	C 	0.21600 0.90580 0.53710 -0.13900
C 	C 	0.19450 0.89940 0.57710 0.43600
O 	O 	0.15630 0.89562 0.57580 -0.50300
O 	O 	0.21630 0.89705 0.60735 -0.52300
C 	C 	0.25780 0.91160 0.53610 0.06000
H 	H 	0.27170 0.91540 0.56060 0.03200
C 	C 	0.19690 0.96350 0.75430 -0.10700
C 	C 	0.19730 0.92420 0.73190 0.34100
O 	O 	0.19675 0.92700 0.69320 -0.48600
O 	O 	0.19810 0.89050 0.75050 -0.41500
C 	C 	0.19940 0.96440 0.79780 0.01700
H 	H 	0.19960 0.93990 0.81210 0.02200
Zn	Zn	0.20608 0.12430 0.33568 1.16300
C 	C 	0.21600 0.09420 0.46290 -0.13900
C 	C 	0.19450 0.10060 0.42290 0.43600
O 	O 	0.15630 0.10438 0.42420 -0.50300
O 	O 	0.21630 0.10295 0.39265 -0.52300
C 	C 	0.25780 0.08840 0.46390 0.06000
H 	H 	0.27170 0.08460 0.43940 0.03200
C 	C 	0.19690 0.03650 0.24570 -0.10800
C 	C 	0.19730 0.07580 0.26810 0.34100
O 	O 	0.19675 0.07300 0.30680 -0.48700
O 	O 	0.19810 0.10950 0.24950 -0.41500
C 	C 	0.19940 0.03560 0.20220 0.01600
H 	H 	0.19960 0.06010 0.18790 0.02200
Zn	Zn	0.79392 0.87570 0.33568 1.16300
C 	C 	0.78400 0.90580 0.46290 -0.13900
C 	C 	0.80550 0.89940 0.42290 0.43600
O 	O 	0.84370 0.89562 0.42420 -0.50300
O 	O 	0.78370 0.89705 0.39265 -0.52300
C 	C 	0.74220 0.91160 0.46390 0.06000
H 	H 	0.72830 0.91540 0.43940 0.03200
C 	C 	0.80310 0.96350 0.24570 -0.10700
C 	C 	0.80270 0.92420 0.26810 0.34100
O 	O 	0.80325 0.92700 0.30680 -0.48600
O 	O 	0.80190 0.89050 0.24950 -0.41500
C 	C 	0.80060 0.96440 0.20220 0.01700
H 	H 	0.80040 0.93990 0.18790 0.02200
Zn	Zn	0.16432 0.79392 0.62430 1.16300
C 	C 	0.03710 0.78400 0.59420 -0.13900
C 	C 	0.07710 0.80550 0.60060 0.43600
O 	O 	0.07580 0.84370 0.60438 -0.50300
O 	O 	0.10735 0.78370 0.60295 -0.52300
C 	C 	0.03610 0.74220 0.58840 0.06100
H 	H 	0.06060 0.72830 0.58460 0.03200
C 	C 	0.25430 0.80310 0.53650 -0.10900
C 	C 	0.23190 0.80270 0.57580 0.34100
O 	O 	0.19320 0.80325 0.57300 -0.48700
O 	O 	0.25050 0.80190 0.60950 -0.41500
C 	C 	0.29780 0.80060 0.53560 0.01500
H 	H 	0.31210 0.80040 0.56010 0.02200
Zn	Zn	0.16432 0.20608 0.37570 1.16300
C 	C 	0.03710 0.21600 0.40580 -0.13900
C 	C 	0.07710 0.19450 0.39940 0.43600
O 	O 	0.07580 0.15630 0.39562 -0.50300
O 	O 	0.10735 0.21630 0.39705 -0.52300
C 	C 	0.03610 0.25780 0.41160 0.06100
H 	H 	0.06060 0.27170 0.41540 0.03200
C 	C 	0.25430 0.19690 0.46350 -0.10900
C 	C 	0.23190 0.19730 0.42420 0.34100
O 	O 	0.19320 0.19675 0.42700 -0.48700
O 	O 	0.25050 0.19810 0.39050 -0.41500
C 	C 	0.29780 0.19940 0.46440 0.01500
H 	H 	0.31210 0.19960 0.43990 0.02200
Zn	Zn	0.83568 0.20608 0.62430 1.16300
C 	C 	0.96290 0.21600 0.59420 -0.13800
C 	C 	0.92290 0.19450 0.60060 0.43600
O 	O 	0.92420 0.15630 0.60438 -0.50300
O 	O 	0.89265 0.21630 0.60295 -0.52300
C 	C 	0.96390 0.25780 0.58840 0.06200
H 	H 	0.93940 0.27170 0.58460 0.03200
C 	C 	0.74570 0.19690 0.53650 -0.10900
C 	C 	0.76810 0.19730 0.57580 0.34100
O 	O 	0.80680 0.19675 0.57300 -0.48700
O 	O 	0.74950 0.19810 0.60950 -0.41500
C 	C 	0.70220 0.19940 0.53560 0.01500
H 	H 	0.68790 0.19960 0.56010 0.02200
Zn	Zn	0.83568 0.79392 0.37570 1.16300
C 	C 	0.96290 0.78400 0.40580 -0.13800
C 	C 	0.92290 0.80550 0.39940 0.43600
O 	O 	0.92420 0.84370 0.39562 -0.50200
O 	O 	0.89265 0.78370 0.39705 -0.52300
C 	C 	0.96390 0.74220 0.41160 0.06200
H 	H 	0.93940 0.72830 0.41540 0.03200
C 	C 	0.74570 0.80310 0.46350 -0.10900
C 	C 	0.76810 0.80270 0.42420 0.34100
O 	O 	0.80680 0.80325 0.42700 -0.48700
O 	O 	0.74950 0.80190 0.39050 -0.41500
C 	C 	0.70220 0.80060 0.46440 0.01500
H 	H 	0.68790 0.80040 0.43990 0.02200
Zn	Zn	0.12430 0.16432 0.29392 1.16300
C 	C 	0.09420 0.03710 0.28400 -0.13900
C 	C 	0.10060 0.07710 0.30550 0.43600
O 	O 	0.10438 0.07580 0.34370 -0.50300
O 	O 	0.10295 0.10735 0.28370 -0.52300
C 	C 	0.08840 0.03610 0.24220 0.06100
H 	H 	0.08460 0.06060 0.22830 0.03200
C 	C 	0.03650 0.25430 0.30310 -0.10800
C 	C 	0.07580 0.23190 0.30270 0.34100
O 	O 	0.07300 0.19320 0.30325 -0.48700
O 	O 	0.10950 0.25050 0.30190 -0.41500
C 	C 	0.03560 0.29780 0.30060 0.01600
H 	H 	0.06010 0.31210 0.30040 0.02200
Zn	Zn	0.87570 0.16432 0.70608 1.16300
C 	C 	0.90580 0.03710 0.71600 -0.13900
C 	C 	0.89940 0.07710 0.69450 0.43600
O 	O 	0.89562 0.07580 0.65630 -0.50300
O 	O 	0.89705 0.10735 0.71630 -0.52300
C 	C 	0.91160 0.03610 0.75780 0.06100
H 	H 	0.91540 0.06060 0.77170 0.03200
C 	C 	0.96350 0.25430 0.69690 -0.10700
C 	C 	0.92420 0.23190 0.69730 0.34100
O 	O 	0.92700 0.19320 0.69675 -0.48600
O 	O 	0.89050 0.25050 0.69810 -0.41500
C 	C 	0.96440 0.29780 0.69940 0.01700
H 	H 	0.93990 0.31210 0.69960 0.02200
Zn	Zn	0.12430 0.83568 0.70608 1.16300
C 	C 	0.09420 0.96290 0.71600 -0.13800
C 	C 	0.10060 0.92290 0.69450 0.43600
O 	O 	0.10438 0.92420 0.65630 -0.50300
O 	O 	0.10295 0.89265 0.71630 -0.52300
C 	C 	0.08840 0.96390 0.75780 0.06200
H 	H 	0.08460 0.93940 0.77170 0.03100
C 	C 	0.03650 0.74570 0.69690 -0.10800
C 	C 	0.07580 0.76810 0.69730 0.34100
O 	O 	0.07300 0.80680 0.69675 -0.48700
O 	O 	0.10950 0.74950 0.69810 -0.41500
C 	C 	0.03560 0.70220 0.69940 0.01600
H 	H 	0.06010 0.68790 0.69960 0.02200
Zn	Zn	0.87570 0.83568 0.29392 1.16300
C 	C 	0.90580 0.96290 0.28400 -0.13800
C 	C 	0.89940 0.92290 0.30550 0.43600
O 	O 	0.89562 0.92420 0.34370 -0.50200
O 	O 	0.89705 0.89265 0.28370 -0.52300
C 	C 	0.91160 0.96390 0.24220 0.06200
H 	H 	0.91540 0.93940 0.22830 0.03200
C 	C 	0.96350 0.74570 0.30310 -0.10700
C 	C 	0.92420 0.76810 0.30270 0.34100
O 	O 	0.92700 0.80680 0.30325 -0.48600
O 	O 	0.89050 0.74950 0.30190 -0.41500
C 	C 	0.96440 0.70220 0.30060 0.01700
H 	H 	0.93990 0.68790 0.30040 0.02200
Zn	Zn	0.20608 0.87570 0.33568 1.16300
C 	C 	0.21600 0.90580 0.46290 -0.13900
C 	C 	0.19450 0.89940 0.42290 0.43600
O 	O 	0.15630 0.89562 0.42420 -0.50300
O 	O 	0.21630 0.89705 0.39265 -0.52300
C 	C 	0.25780 0.91160 0.46390 0.06000
H 	H 	0.27170 0.91540 0.43940 0.03200
C 	C 	0.19690 0.96350 0.24570 -0.10700
C 	C 	0.19730 0.92420 0.26810 0.34100
O 	O 	0.19675 0.92700 0.30680 -0.48600
O 	O 	0.19810 0.89050 0.24950 -0.41500
C 	C 	0.19940 0.96440 0.20220 0.01700
H 	H 	0.19960 0.93990 0.18790 0.02200
Zn	Zn	0.79392 0.12430 0.33568 1.16300
C 	C 	0.78400 0.09420 0.46290 -0.13900
C 	C 	0.80550 0.10060 0.42290 0.43600
O 	O 	0.84370 0.10438 0.42420 -0.50300
O 	O 	0.78370 0.10295 0.39265 -0.52300
C 	C 	0.74220 0.08840 0.46390 0.06000
H 	H 	0.72830 0.08460 0.43940 0.03200
C 	C 	0.80310 0.03650 0.24570 -0.10800
C 	C 	0.80270 0.07580 0.26810 0.34100
O 	O 	0.80325 0.07300 0.30680 -0.48700
O 	O 	0.80190 0.10950 0.24950 -0.41500
C 	C 	0.80060 0.03560 0.20220 0.01600
H 	H 	0.80040 0.06010 0.18790 0.02200
Zn	Zn	0.79392 0.87570 0.66432 1.16300
C 	C 	0.78400 0.90580 0.53710 -0.13900
C 	C 	0.80550 0.89940 0.57710 0.43600
O 	O 	0.84370 0.89562 0.57580 -0.50300
O 	O 	0.78370 0.89705 0.60735 -0.52300
C 	C 	0.74220 0.91160 0.53610 0.06000
H 	H 	0.72830 0.91540 0.56060 0.03200
C 	C 	0.80310 0.96350 0.75430 -0.10700
C 	C 	0.80270 0.92420 0.73190 0.34100
O 	O 	0.80325 0.92700 0.69320 -0.48600
O 	O 	0.80190 0.89050 0.75050 -0.41500
C 	C 	0.80060 0.96440 0.79780 0.01700
H 	H 	0.80040 0.93990 0.81210 0.02200
Zn	Zn	0.20608 0.12430 0.66432 1.16300
C 	C 	0.21600 0.09420 0.53710 -0.13900
C 	C 	0.19450 0.10060 0.57710 0.43600
O 	O 	0.15630 0.10438 0.57580 -0.50300
O 	O 	0.21630 0.10295 0.60735 -0.52300
C 	C 	0.25780 0.08840 0.53610 0.06000
H 	H 	0.27170 0.08460 0.56060 0.03200
C 	C 	0.19690 0.03650 0.75430 -0.10800
C 	C 	0.19730 0.07580 0.73190 0.34100
O 	O 	0.19675 0.07300 0.69320 -0.48700
O 	O 	0.19810 0.10950 0.75050 -0.41500
C 	C 	0.19940 0.03560 0.79780 0.01600
H 	H 	0.19960 0.06010 0.81210 0.02200
Zn	Zn	0.83568 0.20608 0.37570 1.16300
C 	C 	0.96290 0.21600 0.40580 -0.13800
C 	C 	0.92290 0.19450 0.39940 0.43600
O 	O 	0.92420 0.15630 0.39562 -0.50300
O 	O 	0.89265 0.21630 0.39705 -0.52300
C 	C 	0.96390 0.25780 0.41160 0.06200
H 	H 	0.93940 0.27170 0.41540 0.03200
C 	C 	0.74570 0.19690 0.46350 -0.10900
C 	C 	0.76810 0.19730 0.42420 0.34100
O 	O 	0.80680 0.19675 0.42700 -0.48700
O 	O 	0.74950 0.19810 0.39050 -0.41500
C 	C 	0.70220 0.19940 0.46440 0.01500
H 	H 	0.68790 0.19960 0.43990 0.02200
Zn	Zn	0.83568 0.79392 0.62430 1.16300
C 	C 	0.96290 0.78400 0.59420 -0.13800
C 	C 	0.92290 0.80550 0.60060 0.43600
O 	O 	0.92420 0.84370 0.60438 -0.50200
O 	O 	0.89265 0.78370 0.60295 -0.52300
C 	C 	0.96390 0.74220 0.58840 0.06200
H 	H 	0.93940 0.72830 0.58460 0.03200
C 	C 	0.74570 0.80310 0.53650 -0.10900
C 	C 	0.76810 0.80270 0.57580 0.34100
O 	O 	0.80680 0.80325 0.57300 -0.48700
O 	O 	0.74950 0.80190 0.60950 -0.41500
C 	C 	0.70220 0.80060 0.53560 0.01500
H 	H 	0.68790 0.80040 0.56010 0.02200
Zn	Zn	0.16432 0.79392 0.37570 1.16300
C 	C 	0.03710 0.78400 0.40580 -0.13900
C 	C 	0.07710 0.80550 0.39940 0.43600
O 	O 	0.07580 0.84370 0.39562 -0.50300
O 	O 	0.10735 0.78370 0.39705 -0.52300
C 	C 	0.03610 0.74220 0.41160 0.06100
H 	H 	0.06060 0.72830 0.41540 0.03200
C 	C 	0.25430 0.80310 0.46350 -0.10900
C 	C 	0.23190 0.80270 0.42420 0.34100
O 	O 	0.19320 0.80325 0.42700 -0.48700
O 	O 	0.25050 0.80190 0.39050 -0.41500
C 	C 	0.29780 0.80060 0.46440 0.01500
H 	H 	0.31210 0.80040 0.43990 0.02200
Zn	Zn	0.16432 0.20608 0.62430 1.16300
C 	C 	0.03710 0.21600 0.59420 -0.13900
C 	C 	0.07710 0.19450 0.60060 0.43600
O 	O 	0.07580 0.15630 0.60438 -0.50300
O 	O 	0.10735 0.21630 0.60295 -0.52300
C 	C 	0.03610 0.25780 0.58840 0.06100
H 	H 	0.06060 0.27170 0.58460 0.03200
C 	C 	0.25430 0.19690 0.53650 -0.10900
C 	C 	0.23190 0.19730 0.57580 0.34100
O 	O 	0.19320 0.19675 0.57300 -0.48700
O 	O 	0.25050 0.19810 0.60950 -0.41500
C 	C 	0.29780 0.19940 0.53560 0.01500
H 	H 	0.31210 0.19960 0.56010 0.02200
Zn	Zn	0.87570 0.83568 0.70608 1.16300
C 	C 	0.90580 0.96290 0.71600 -0.13800
C 	C 	0.89940 0.92290 0.69450 0.43600
O 	O 	0.89562 0.92420 0.65630 -0.50200
O 	O 	0.89705 0.89265 0.71630 -0.52300
C 	C 	0.91160 0.96390 0.75780 0.06200
H 	H 	0.91540 0.93940 0.77170 0.03200
C 	C 	0.96350 0.74570 0.69690 -0.10700
C 	C 	0.92420 0.76810 0.69730 0.34100
O 	O 	0.92700 0.80680 0.69675 -0.48600
O 	O 	0.89050 0.74950 0.69810 -0.41500
C 	C 	0.96440 0.70220 0.69940 0.01700
H 	H 	0.93990 0.68790 0.69960 0.02200
Zn	Zn	0.12430 0.83568 0.29392 1.16300
C 	C 	0.09420 0.96290 0.28400 -0.13800
C 	C 	0.10060 0.92290 0.30550 0.43600
O 	O 	0.10438 0.92420 0.34370 -0.50300
O 	O 	0.10295 0.89265 0.28370 -0.52300
C 	C 	0.08840 0.96390 0.24220 0.06200
H 	H 	0.08460 0.93940 0.22830 0.03100
C 	C 	0.03650 0.74570 0.30310 -0.10800
C 	C 	0.07580 0.76810 0.30270 0.34100
O 	O 	0.07300 0.80680 0.30325 -0.48700
O 	O 	0.10950 0.74950 0.30190 -0.41500
C 	C 	0.03560 0.70220 0.30060 0.01600
H 	H 	0.06010 0.68790 0.30040 0.02200
Zn	Zn	0.87570 0.16432 0.29392 1.16300
C 	C 	0.90580 0.03710 0.28400 -0.13900
C 	C 	0.89940 0.07710 0.30550 0.43600
O 	O 	0.89562 0.07580 0.34370 -0.50300
O 	O 	0.89705 0.10735 0.28370 -0.52300
C 	C 	0.91160 0.03610 0.24220 0.06100
H 	H 	0.91540 0.06060 0.22830 0.03200
C 	C 	0.96350 0.25430 0.30310 -0.10700
C 	C 	0.92420 0.23190 0.30270 0.34100
O 	O 	0.92700 0.19320 0.30325 -0.48600
O 	O 	0.89050 0.25050 0.30190 -0.41500
C 	C 	0.96440 0.29780 0.30060 0.01700
H 	H 	0.93990 0.31210 0.30040 0.02200
Zn	Zn	0.12430 0.16432 0.70608 1.16300
C 	C 	0.09420 0.03710 0.71600 -0.13900
C 	C 	0.10060 0.07710 0.69450 0.43600
O 	O 	0.10438 0.07580 0.65630 -0.50300
O 	O 	0.10295 0.10735 0.71630 -0.52300
C 	C 	0.08840 0.03610 0.75780 0.06100
H 	H 	0.08460 0.06060 0.77170 0.03200
C 	C 	0.03650 0.25430 0.69690 -0.10800
C 	C 	0.07580 0.23190 0.69730 0.34100
O 	O 	0.07300 0.19320 0.69675 -0.48700
O 	O 	0.10950 0.25050 0.69810 -0.41500
C 	C 	0.03560 0.29780 0.69940 0.01600
H 	H 	0.06010 0.31210 0.69960 0.02200
Zn	Zn	0.12194 0.12194 0.37806 1.20900
O 	O 	0.15617 0.15617 0.34383 -0.98200
Zn	Zn	0.87806 0.12194 0.62194 1.20900
O 	O 	0.84383 0.15617 0.65617 -0.98200
Zn	Zn	0.12194 0.87806 0.62194 1.20900
O 	O 	0.15617 0.84383 0.65617 -0.98200
Zn	Zn	0.87806 0.87806 0.37806 1.20900
O 	O 	0.84383 0.84383 0.34383 -0.98200
Zn	Zn	0.12194 0.87806 0.37806 1.20900
O 	O 	0.15617 0.84383 0.34383 -0.98200
Zn	Zn	0.87806 0.12194 0.37806 1.20900
O 	O 	0.84383 0.15617 0.34383 -0.98200
Zn	Zn	0.87806 0.87806 0.62194 1.20900
O 	O 	0.84383 0.84383 0.65617 -0.98200
Zn	Zn	0.12194 0.12194 0.62194 1.20900
O 	O 	0.15617 0.15617 0.65617 -0.98200
C 	C 	0.80560 0.09760 0.50000 0.07900
H 	H 	0.83360 0.10200 0.50000 0.03500
C 	C 	0.72030 0.08800 0.50000 -0.09700
C 	C 	0.67990 0.08470 0.50000 0.15200
N 	N 	0.64830 0.08180 0.50000 -0.13700
C 	C 	0.19440 0.90240 0.50000 0.07900
H 	H 	0.16640 0.89800 0.50000 0.03600
C 	C 	0.27970 0.91200 0.50000 -0.09700
C 	C 	0.32010 0.91530 0.50000 0.15300
N 	N 	0.35170 0.91820 0.50000 -0.13700
C 	C 	0.19440 0.09760 0.50000 0.07900
H 	H 	0.16640 0.10200 0.50000 0.03500
C 	C 	0.27970 0.08800 0.50000 -0.09700
C 	C 	0.32010 0.08470 0.50000 0.15300
N 	N 	0.35170 0.08180 0.50000 -0.13700
C 	C 	0.80560 0.90240 0.50000 0.07900
H 	H 	0.83360 0.89800 0.50000 0.03600
C 	C 	0.72030 0.91200 0.50000 -0.09700
C 	C 	0.67990 0.91530 0.50000 0.15300
N 	N 	0.64830 0.91820 0.50000 -0.13700
C 	C 	0.00000 0.80560 0.59760 0.07700
H 	H 	0.00000 0.83360 0.60200 0.03600
C 	C 	0.00000 0.72030 0.58800 -0.09900
C 	C 	0.00000 0.67990 0.58470 0.15300
N 	N 	0.00000 0.64830 0.58180 -0.13800
C 	C 	0.00000 0.19440 0.40240 0.07700
H 	H 	0.00000 0.16640 0.39800 0.03500
C 	C 	0.00000 0.27970 0.41200 -0.09900
C 	C 	0.00000 0.32010 0.41530 0.15300
N 	N 	0.00000 0.35170 0.41820 -0.13800
C 	C 	0.00000 0.19440 0.59760 0.07700
H 	H 	-0.00000 0.16640 0.60200 0.03500
C 	C 	-0.00000 0.27970 0.58800 -0.09900
C 	C 	0.00000 0.32010 0.58470 0.15300
N 	N 	-0.00000 0.35170 0.58180 -0.13800
C 	C 	0.00000 0.80560 0.40240 0.07700
H 	H 	0.00000 0.83360 0.39800 0.03600
C 	C 	0.00000 0.72030 0.41200 -0.09900
C 	C 	0.00000 0.67990 0.41530 0.15300
N 	N 	0.00000 0.64830 0.41820 -0.13800
C 	C 	0.09760 -0.00000 0.30560 0.07700
H 	H 	0.10200 0.00000 0.33360 0.03500
C 	C 	0.08800 0.00000 0.22030 -0.09900
C 	C 	0.08470 0.00000 0.17990 0.15300
N 	N 	0.08180 0.00000 0.14830 -0.13800
C 	C 	0.90240 0.00000 0.69440 0.07700
H 	H 	0.89800 0.00000 0.66640 0.03600
C 	C 	0.91200 0.00000 0.77970 -0.09900
C 	C 	0.91530 0.00000 0.82010 0.15300
N 	N 	0.91820 0.00000 0.85170 -0.13700
C 	C 	0.09760 0.00000 0.69440 0.07700
H 	H 	0.10200 0.00000 0.66640 0.03500
C 	C 	0.08800 0.00000 0.77970 -0.09900
C 	C 	0.08470 0.00000 0.82010 0.15300
N 	N 	0.08180 0.00000 0.85170 -0.13800
C 	C 	0.90240 -0.00000 0.30560 0.07700
H 	H 	0.89800 0.00000 0.33360 0.03600
C 	C 	0.91200 0.00000 0.22030 -0.09900
C 	C 	0.91530 0.00000 0.17990 0.15300
N 	N 	0.91820 0.00000 0.14830 -0.13800
C 	C 	0.80340 0.00000 0.73390 0.05000
H 	H 	0.80370 -0.00000 0.70550 0.04900
C 	C 	0.79840 0.00000 0.81900 -0.04800
C 	C 	0.79620 0.00000 0.86330 0.09000
N 	N 	0.79270 0.00000 0.89770 -0.11700
C 	C 	0.19660 0.00000 0.73390 0.05000
H 	H 	0.19630 -0.00000 0.70550 0.04900
C 	C 	0.20160 0.00000 0.81900 -0.04800
C 	C 	0.20380 0.00000 0.86330 0.09000
N 	N 	0.20730 0.00000 0.89770 -0.11700
C 	C 	0.19660 0.00000 0.26610 0.05000
H 	H 	0.19630 0.00000 0.29450 0.04900
C 	C 	0.20160 0.00000 0.18100 -0.04800
C 	C 	0.20380 0.00000 0.13670 0.09000
N 	N 	0.20730 0.00000 0.10230 -0.11800
C 	C 	0.80340 0.00000 0.26610 0.05000
H 	H 	0.80370 0.00000 0.29450 0.04900
C 	C 	0.79840 0.00000 0.18100 -0.04800
C 	C 	0.79620 0.00000 0.13670 0.09000
N 	N 	0.79270 0.00000 0.10230 -0.11800
C 	C 	0.23390 0.80340 0.50000 0.05200
H 	H 	0.20550 0.80370 0.50000 0.04900
C 	C 	0.31900 0.79840 0.50000 -0.04600
C 	C 	0.36330 0.79620 0.50000 0.09000
N 	N 	0.39770 0.79270 0.50000 -0.11700
C 	C 	0.23390 0.19660 0.50000 0.05200
H 	H 	0.20550 0.19630 0.50000 0.04900
C 	C 	0.31900 0.20160 0.50000 -0.04600
C 	C 	0.36330 0.20380 0.50000 0.09000
N 	N 	0.39770 0.20730 0.50000 -0.11700
C 	C 	0.76610 0.19660 0.50000 0.05200
H 	H 	0.79450 0.19630 0.50000 0.04900
C 	C 	0.68100 0.20160 0.50000 -0.04600
C 	C 	0.63670 0.20380 0.50000 0.09000
N 	N 	0.60230 0.20730 0.50000 -0.11700
C 	C 	0.76610 0.80340 0.50000 0.05200
H 	H 	0.79450 0.80370 0.50000 0.04900
C 	C 	0.68100 0.79840 0.50000 -0.04600
C 	C 	0.63670 0.79620 0.50000 0.09000
N 	N 	0.60230 0.79270 0.50000 -0.11700
C 	C 	0.00000 0.23390 0.30340 0.05000
H 	H 	-0.00000 0.20550 0.30370 0.04900
C 	C 	0.00000 0.31900 0.29840 -0.04800
C 	C 	0.00000 0.36330 0.29620 0.09000
N 	N 	0.00000 0.39770 0.29270 -0.11800
C 	C 	0.00000 0.23390 0.69660 0.05000
H 	H 	-0.00000 0.20550 0.69630 0.04900
C 	C 	0.00000 0.31900 0.70160 -0.04800
C 	C 	0.00000 0.36330 0.70380 0.09000
N 	N 	0.00000 0.39770 0.70730 -0.11800
C 	C 	0.00000 0.76610 0.69660 0.05000
H 	H 	0.00000 0.79450 0.69630 0.04900
C 	C 	0.00000 0.68100 0.70160 -0.04800
C 	C 	0.00000 0.63670 0.70380 0.09000
N 	N 	0.00000 0.60230 0.70730 -0.11800
C 	C 	0.00000 0.76610 0.30340 0.05000
H 	H 	0.00000 0.79450 0.30370 0.04900
C 	C 	-0.00000 0.68100 0.29840 -0.04800
C 	C 	0.00000 0.63670 0.29620 0.09000
N 	N 	0.00000 0.60230 0.29270 -0.11800
Zn	Zn	0.79392 0.62430 0.16432 1.16300
C 	C 	0.78400 0.59420 0.03710 -0.13900
C 	C 	0.80550 0.60060 0.07710 0.43600
O 	O 	0.84370 0.60438 0.07580 -0.50300
O 	O 	0.78370 0.60295 0.10735 -0.52300
C 	C 	0.74220 0.58840 0.03610 0.06100
H 	H 	0.72830 0.58460 0.06060 0.03200
C 	C 	0.80310 0.53650 0.25430 -0.10900
C 	C 	0.80270 0.57580 0.23190 0.34100
O 	O 	0.80325 0.57300 0.19320 -0.48700
O 	O 	0.80190 0.60950 0.25050 -0.41500
C 	C 	0.80060 0.53560 0.29780 0.01500
H 	H 	0.80040 0.56010 0.31210 0.02200
Zn	Zn	0.20608 0.37570 0.16432 1.16300
C 	C 	0.21600 0.40580 0.03710 -0.13900
C 	C 	0.19450 0.39940 0.07710 0.43600
O 	O 	0.15630 0.39562 0.07580 -0.50300
O 	O 	0.21630 0.39705 0.10735 -0.52300
C 	C 	0.25780 0.41160 0.03610 0.06100
H 	H 	0.27170 0.41540 0.06060 0.03200
C 	C 	0.19690 0.46350 0.25430 -0.10900
C 	C 	0.19730 0.42420 0.23190 0.34100
O 	O 	0.19675 0.42700 0.19320 -0.48700
O 	O 	0.19810 0.39050 0.25050 -0.41500
C 	C 	0.19940 0.46440 0.29780 0.01500
H 	H 	0.19960 0.43990 0.31210 0.02200
Zn	Zn	0.20608 0.62430 0.83568 1.16300
C 	C 	0.21600 0.59420 0.96290 -0.13800
C 	C 	0.19450 0.60060 0.92290 0.43600
O 	O 	0.15630 0.60438 0.92420 -0.50300
O 	O 	0.21630 0.60295 0.89265 -0.52300
C 	C 	0.25780 0.58840 0.96390 0.06200
H 	H 	0.27170 0.58460 0.93940 0.03200
C 	C 	0.19690 0.53650 0.74570 -0.10900
C 	C 	0.19730 0.57580 0.76810 0.34100
O 	O 	0.19675 0.57300 0.80680 -0.48700
O 	O 	0.19810 0.60950 0.74950 -0.41500
C 	C 	0.19940 0.53560 0.70220 0.01500
H 	H 	0.19960 0.56010 0.68790 0.02200
Zn	Zn	0.79392 0.37570 0.83568 1.16300
C 	C 	0.78400 0.40580 0.96290 -0.13800
C 	C 	0.80550 0.39940 0.92290 0.43600
O 	O 	0.84370 0.39562 0.92420 -0.50200
O 	O 	0.78370 0.39705 0.89265 -0.52300
C 	C 	0.74220 0.41160 0.96390 0.06200
H 	H 	0.72830 0.41540 0.93940 0.03200
C 	C 	0.80310 0.46350 0.74570 -0.10900
C 	C 	0.80270 0.42420 0.76810 0.34100
O 	O 	0.80325 0.42700 0.80680 -0.48700
O 	O 	0.80190 0.39050 0.74950 -0.41500
C 	C 	0.80060 0.46440 0.70220 0.01500
H 	H 	0.80040 0.43990 0.68790 0.02200
Zn	Zn	0.16432 0.29392 0.12430 1.16300
C 	C 	0.03710 0.28400 0.09420 -0.13900
C 	C 	0.07710 0.30550 0.10060 0.43600
O 	O 	0.07580 0.34370 0.10438 -0.50300
O 	O 	0.10735 0.28370 0.10295 -0.52300
C 	C 	0.03610 0.24220 0.08840 0.06100
H 	H 	0.06060 0.22830 0.08460 0.03200
C 	C 	0.25430 0.30310 0.03650 -0.10800
C 	C 	0.23190 0.30270 0.07580 0.34100
O 	O 	0.19320 0.30325 0.07300 -0.48700
O 	O 	0.25050 0.30190 0.10950 -0.41500
C 	C 	0.29780 0.30060 0.03560 0.01600
H 	H 	0.31210 0.30040 0.06010 0.02200
Zn	Zn	0.16432 0.70608 0.87570 1.16300
C 	C 	0.03710 0.71600 0.90580 -0.13900
C 	C 	0.07710 0.69450 0.89940 0.43600
O 	O 	0.07580 0.65630 0.89562 -0.50300
O 	O 	0.10735 0.71630 0.89705 -0.52300
C 	C 	0.03610 0.75780 0.91160 0.06100
H 	H 	0.06060 0.77170 0.91540 0.03200
C 	C 	0.25430 0.69690 0.96350 -0.10700
C 	C 	0.23190 0.69730 0.92420 0.34100
O 	O 	0.19320 0.69675 0.92700 -0.48600
O 	O 	0.25050 0.69810 0.89050 -0.41500
C 	C 	0.29780 0.69940 0.96440 0.01700
H 	H 	0.31210 0.69960 0.93990 0.02200
Zn	Zn	0.83568 0.70608 0.12430 1.16300
C 	C 	0.96290 0.71600 0.09420 -0.13800
C 	C 	0.92290 0.69450 0.10060 0.43600
O 	O 	0.92420 0.65630 0.10438 -0.50300
O 	O 	0.89265 0.71630 0.10295 -0.52300
C 	C 	0.96390 0.75780 0.08840 0.06200
H 	H 	0.93940 0.77170 0.08460 0.03100
C 	C 	0.74570 0.69690 0.03650 -0.10800
C 	C 	0.76810 0.69730 0.07580 0.34100
O 	O 	0.80680 0.69675 0.07300 -0.48700
O 	O 	0.74950 0.69810 0.10950 -0.41500
C 	C 	0.70220 0.69940 0.03560 0.01600
H 	H 	0.68790 0.69960 0.06010 0.02200
Zn	Zn	0.83568 0.29392 0.87570 1.16300
C 	C 	0.96290 0.28400 0.90580 -0.13800
C 	C 	0.92290 0.30550 0.89940 0.43600
O 	O 	0.92420 0.34370 0.89562 -0.50200
O 	O 	0.89265 0.28370 0.89705 -0.52300
C 	C 	0.96390 0.24220 0.91160 0.06200
H 	H 	0.93940 0.22830 0.91540 0.03200
C 	C 	0.74570 0.30310 0.96350 -0.10700
C 	C 	0.76810 0.30270 0.92420 0.34100
O 	O 	0.80680 0.30325 0.92700 -0.48600
O 	O 	0.74950 0.30190 0.89050 -0.41500
C 	C 	0.70220 0.30060 0.96440 0.01700
H 	H 	0.68790 0.30040 0.93990 0.02200
Zn	Zn	0.12430 0.66432 0.79392 1.16300
C 	C 	0.09420 0.53710 0.78400 -0.13900
C 	C 	0.10060 0.57710 0.80550 0.43600
O 	O 	0.10438 0.57580 0.84370 -0.50300
O 	O 	0.10295 0.60735 0.78370 -0.52300
C 	C 	0.08840 0.53610 0.74220 0.06000
H 	H 	0.08460 0.56060 0.72830 0.03200
C 	C 	0.03650 0.75430 0.80310 -0.10800
C 	C 	0.07580 0.73190 0.80270 0.34100
O 	O 	0.07300 0.69320 0.80325 -0.48700
O 	O 	0.10950 0.75050 0.80190 -0.41500
C 	C 	0.03560 0.79780 0.80060 0.01600
H 	H 	0.06010 0.81210 0.80040 0.02200
Zn	Zn	0.87570 0.66432 0.20608 1.16300
C 	C 	0.90580 0.53710 0.21600 -0.13900
C 	C 	0.89940 0.57710 0.19450 0.43600
O 	O 	0.89562 0.57580 0.15630 -0.50300
O 	O 	0.89705 0.60735 0.21630 -0.52300
C 	C 	0.91160 0.53610 0.25780 0.06000
H 	H 	0.91540 0.56060 0.27170 0.03200
C 	C 	0.96350 0.75430 0.19690 -0.10700
C 	C 	0.92420 0.73190 0.19730 0.34100
O 	O 	0.92700 0.69320 0.19675 -0.48600
O 	O 	0.89050 0.75050 0.19810 -0.41500
C 	C 	0.96440 0.79780 0.19940 0.01700
H 	H 	0.93990 0.81210 0.19960 0.02200
Zn	Zn	0.12430 0.33568 0.20608 1.16300
C 	C 	0.09420 0.46290 0.21600 -0.13900
C 	C 	0.10060 0.42290 0.19450 0.43600
O 	O 	0.10438 0.42420 0.15630 -0.50300
O 	O 	0.10295 0.39265 0.21630 -0.52300
C 	C 	0.08840 0.46390 0.25780 0.06000
H 	H 	0.08460 0.43940 0.27170 0.03200
C 	C 	0.03650 0.24570 0.19690 -0.10800
C 	C 	0.07580 0.26810 0.19730 0.34100
O 	O 	0.07300 0.30680 0.19675 -0.48700
O 	O 	0.10950 0.24950 0.19810 -0.41500
C 	C 	0.03560 0.20220 0.19940 0.01600
H 	H 	0.06010 0.18790 0.19960 0.02200
Zn	Zn	0.87570 0.33568 0.79392 1.16300
C 	C 	0.90580 0.46290 0.78400 -0.13900
C 	C 	0.89940 0.42290 0.80550 0.43600
O 	O 	0.89562 0.42420 0.84370 -0.50300
O 	O 	0.89705 0.39265 0.78370 -0.52300
C 	C 	0.91160 0.46390 0.74220 0.06000
H 	H 	0.91540 0.43940 0.72830 0.03200
C 	C 	0.96350 0.24570 0.80310 -0.10700
C 	C 	0.92420 0.26810 0.80270 0.34100
O 	O 	0.92700 0.30680 0.80325 -0.48600
O 	O 	0.89050 0.24950 0.80190 -0.41500
C 	C 	0.96440 0.20220 0.80060 0.01700
H 	H 	0.93990 0.18790 0.80040 0.02200
Zn	Zn	0.20608 0.37570 0.83568 1.16300
C 	C 	0.21600 0.40580 0.96290 -0.13800
C 	C 	0.19450 0.39940 0.92290 0.43600
O 	O 	0.15630 0.39562 0.92420 -0.50300
O 	O 	0.21630 0.39705 0.89265 -0.52300
C 	C 	0.25780 0.41160 0.96390 0.06200
H 	H 	0.27170 0.41540 0.93940 0.03200
C 	C 	0.19690 0.46350 0.74570 -0.10900
C 	C 	0.19730 0.42420 0.76810 0.34100
O 	O 	0.19675 0.42700 0.80680 -0.48700
O 	O 	0.19810 0.39050 0.74950 -0.41500
C 	C 	0.19940 0.46440 0.70220 0.01500
H 	H 	0.19960 0.43990 0.68790 0.02200
Zn	Zn	0.79392 0.62430 0.83568 1.16300
C 	C 	0.78400 0.59420 0.96290 -0.13800
C 	C 	0.80550 0.60060 0.92290 0.43600
O 	O 	0.84370 0.60438 0.92420 -0.50200
O 	O 	0.78370 0.60295 0.89265 -0.52300
C 	C 	0.74220 0.58840 0.96390 0.06200
H 	H 	0.72830 0.58460 0.93940 0.03200
C 	C 	0.80310 0.53650 0.74570 -0.10900
C 	C 	0.80270 0.57580 0.76810 0.34100
O 	O 	0.80325 0.57300 0.80680 -0.48700
O 	O 	0.80190 0.60950 0.74950 -0.41500
C 	C 	0.80060 0.53560 0.70220 0.01500
H 	H 	0.80040 0.56010 0.68790 0.02200
Zn	Zn	0.79392 0.37570 0.16432 1.16300
C 	C 	0.78400 0.40580 0.03710 -0.13900
C 	C 	0.80550 0.39940 0.07710 0.43600
O 	O 	0.84370 0.39562 0.07580 -0.50300
O 	O 	0.78370 0.39705 0.10735 -0.52300
C 	C 	0.74220 0.41160 0.03610 0.06100
H 	H 	0.72830 0.41540 0.06060 0.03200
C 	C 	0.80310 0.46350 0.25430 -0.10900
C 	C 	0.80270 0.42420 0.23190 0.34100
O 	O 	0.80325 0.42700 0.19320 -0.48700
O 	O 	0.80190 0.39050 0.25050 -0.41500
C 	C 	0.80060 0.46440 0.29780 0.01500
H 	H 	0.80040 0.43990 0.31210 0.02200
Zn	Zn	0.20608 0.62430 0.16432 1.16300
C 	C 	0.21600 0.59420 0.03710 -0.13900
C 	C 	0.19450 0.60060 0.07710 0.43600
O 	O 	0.15630 0.60438 0.07580 -0.50300
O 	O 	0.21630 0.60295 0.10735 -0.52300
C 	C 	0.25780 0.58840 0.03610 0.06100
H 	H 	0.27170 0.58460 0.06060 0.03200
C 	C 	0.19690 0.53650 0.25430 -0.10900
C 	C 	0.19730 0.57580 0.23190 0.34100
O 	O 	0.19675 0.57300 0.19320 -0.48700
O 	O 	0.19810 0.60950 0.25050 -0.41500
C 	C 	0.19940 0.53560 0.29780 0.01500
H 	H 	0.19960 0.56010 0.31210 0.02200
Zn	Zn	0.83568 0.70608 0.87570 1.16300
C 	C 	0.96290 0.71600 0.90580 -0.13800
C 	C 	0.92290 0.69450 0.89940 0.43600
O 	O 	0.92420 0.65630 0.89562 -0.50200
O 	O 	0.89265 0.71630 0.89705 -0.52300
C 	C 	0.96390 0.75780 0.91160 0.06200
H 	H 	0.93940 0.77170 0.91540 0.03200
C 	C 	0.74570 0.69690 0.96350 -0.10700
C 	C 	0.76810 0.69730 0.92420 0.34100
O 	O 	0.80680 0.69675 0.92700 -0.48600
O 	O 	0.74950 0.69810 0.89050 -0.41500
C 	C 	0.70220 0.69940 0.96440 0.01700
H 	H 	0.68790 0.69960 0.93990 0.02200
Zn	Zn	0.83568 0.29392 0.12430 1.16300
C 	C 	0.96290 0.28400 0.09420 -0.13800
C 	C 	0.92290 0.30550 0.10060 0.43600
O 	O 	0.92420 0.34370 0.10438 -0.50300
O 	O 	0.89265 0.28370 0.10295 -0.52300
C 	C 	0.96390 0.24220 0.08840 0.06200
H 	H 	0.93940 0.22830 0.08460 0.03100
C 	C 	0.74570 0.30310 0.03650 -0.10800
C 	C 	0.76810 0.30270 0.07580 0.34100
O 	O 	0.80680 0.30325 0.07300 -0.48700
O 	O 	0.74950 0.30190 0.10950 -0.41500
C 	C 	0.70220 0.30060 0.03560 0.01600
H 	H 	0.68790 0.30040 0.06010 0.02200
Zn	Zn	0.16432 0.29392 0.87570 1.16300
C 	C 	0.03710 0.28400 0.90580 -0.13900
C 	C 	0.07710 0.30550 0.89940 0.43600
O 	O 	0.07580 0.34370 0.89562 -0.50300
O 	O 	0.10735 0.28370 0.89705 -0.52300
C 	C 	0.03610 0.24220 0.91160 0.06100
H 	H 	0.06060 0.22830 0.91540 0.03200
C 	C 	0.25430 0.30310 0.96350 -0.10700
C 	C 	0.23190 0.30270 0.92420 0.34100
O 	O 	0.19320 0.30325 0.92700 -0.48600
O 	O 	0.25050 0.30190 0.89050 -0.41500
C 	C 	0.29780 0.30060 0.96440 0.01700
H 	H 	0.31210 0.30040 0.93990 0.02200
Zn	Zn	0.16432 0.70608 0.12430 1.16300
C 	C 	0.03710 0.71600 0.09420 -0.13900
C 	C 	0.07710 0.69450 0.10060 0.43600
O 	O 	0.07580 0.65630 0.10438 -0.50300
O 	O 	0.10735 0.71630 0.10295 -0.52300
C 	C 	0.03610 0.75780 0.08840 0.06100
H 	H 	0.06060 0.77170 0.08460 0.03200
C 	C 	0.25430 0.69690 0.03650 -0.10800
C 	C 	0.23190 0.69730 0.07580 0.34100
O 	O 	0.19320 0.69675 0.07300 -0.48700
O 	O 	0.25050 0.69810 0.10950 -0.41500
C 	C 	0.29780 0.69940 0.03560 0.01600
H 	H 	0.31210 0.69960 0.06010 0.02200
Zn	Zn	0.87570 0.33568 0.20608 1.16300
C 	C 	0.90580 0.46290 0.21600 -0.13900
C 	C 	0.89940 0.42290 0.19450 0.43600
O 	O 	0.89562 0.42420 0.15630 -0.50300
O 	O 	0.89705 0.39265 0.21630 -0.52300
C 	C 	0.91160 0.46390 0.25780 0.06000
H 	H 	0.91540 0.43940 0.27170 0.03200
C 	C 	0.96350 0.24570 0.19690 -0.10700
C 	C 	0.92420 0.26810 0.19730 0.34100
O 	O 	0.92700 0.30680 0.19675 -0.48600
O 	O 	0.89050 0.24950 0.19810 -0.41500
C 	C 	0.96440 0.20220 0.19940 0.01700
H 	H 	0.93990 0.18790 0.19960 0.02200
Zn	Zn	0.12430 0.33568 0.79392 1.16300
C 	C 	0.09420 0.46290 0.78400 -0.13900
C 	C 	0.10060 0.42290 0.80550 0.43600
O 	O 	0.10438 0.42420 0.84370 -0.50300
O 	O 	0.10295 0.39265 0.78370 -0.52300
C 	C 	0.08840 0.46390 0.74220 0.06000
H 	H 	0.08460 0.43940 0.72830 0.03200
C 	C 	0.03650 0.24570 0.80310 -0.10800
C 	C 	0.07580 0.26810 0.80270 0.34100
O 	O 	0.07300 0.30680 0.80325 -0.48700
O 	O 	0.10950 0.24950 0.80190 -0.41500
C 	C 	0.03560 0.20220 0.80060 0.01600
H 	H 	0.06010 0.18790 0.80040 0.02200
Zn	Zn	0.87570 0.66432 0.79392 1.16300
C 	C 	0.90580 0.53710 0.78400 -0.13900
C 	C 	0.89940 0.57710 0.80550 0.43600
O 	O 	0.89562 0.57580 0.84370 -0.50300
O 	O 	0.89705 0.60735 0.78370 -0.52300
C 	C 	0.91160 0.53610 0.74220 0.06000
H 	H 	0.91540 0.56060 0.72830 0.03200
C 	C 	0.96350 0.75430 0.80310 -0.10700
C 	C 	0.92420 0.73190 0.80270 0.34100
O 	O 	0.92700 0.69320 0.80325 -0.48600
O 	O 	0.89050 0.75050 0.80190 -0.41500
C 	C 	0.96440 0.79780 0.80060 0.01700
H 	H 	0.93990 0.81210 0.80040 0.02200
Zn	Zn	0.12430 0.66432 0.20608 1.16300
C 	C 	0.09420 0.53710 0.21600 -0.13900
C 	C 	0.10060 0.57710 0.19450 0.43600
O 	O 	0.10438 0.57580 0.15630 -0.50300
O 	O 	0.10295 0.60735 0.21630 -0.52300
C 	C 	0.08840 0.53610 0.25780 0.06000
H 	H 	0.08460 0.56060 0.27170 0.03200
C 	C 	0.03650 0.75430 0.19690 -0.10800
C 	C 	0.07580 0.73190 0.19730 0.34100
O 	O 	0.07300 0.69320 0.19675 -0.48700
O 	O 	0.10950 0.75050 0.19810 -0.41500
C 	C 	0.03560 0.79780 0.19940 0.01600
H 	H 	0.06010 0.81210 0.19960 0.02200
Zn	Zn	0.12194 0.37806 0.12194 1.20900
O 	O 	0.15617 0.34383 0.15617 -0.98200
Zn	Zn	0.12194 0.62194 0.87806 1.20900
O 	O 	0.15617 0.65617 0.84383 -0.98200
Zn	Zn	0.87806 0.62194 0.12194 1.20900
O 	O 	0.84383 0.65617 0.15617 -0.98200
Zn	Zn	0.87806 0.37806 0.87806 1.20900
O 	O 	0.84383 0.34383 0.84383 -0.98200
Zn	Zn	0.12194 0.37806 0.87806 1.20900
O 	O 	0.15617 0.34383 0.84383 -0.98200
Zn	Zn	0.87806 0.62194 0.87806 1.20900
O 	O 	0.84383 0.65617 0.84383 -0.98200
Zn	Zn	0.87806 0.37806 0.12194 1.20900
O 	O 	0.84383 0.34383 0.15617 -0.98200
Zn	Zn	0.12194 0.62194 0.12194 1.20900
O 	O 	0.15617 0.65617 0.15617 -0.98200
C 	C 	0.80560 0.59760 -0.00000 0.07700
H 	H 	0.83360 0.60200 -0.00000 0.03600
C 	C 	0.72030 0.58800 -0.00000 -0.09900
C 	C 	0.67990 0.58470 -0.00000 0.15300
N 	N 	0.64830 0.58180 -0.00000 -0.13800
C 	C 	0.19440 0.40240 -0.00000 0.07700
H 	H 	0.16640 0.39800 -0.00000 0.03500
C 	C 	0.27970 0.41200 -0.00000 -0.09900
C 	C 	0.32010 0.41530 -0.00000 0.15300
N 	N 	0.35170 0.41820 -0.00000 -0.13800
C 	C 	0.19440 0.59760 -0.00000 0.07700
H 	H 	0.16640 0.60200 -0.00000 0.03500
C 	C 	0.27970 0.58800 -0.00000 -0.09900
C 	C 	0.32010 0.58470 -0.00000 0.15300
N 	N 	0.35170 0.58180 -0.00000 -0.13800
C 	C 	0.80560 0.40240 -0.00000 0.07700
H 	H 	0.83360 0.39800 -0.00000 0.03600
C 	C 	0.72030 0.41200 -0.00000 -0.09900
C 	C 	0.67990 0.41530 -0.00000 0.15300
N 	N 	0.64830 0.41820 -0.00000 -0.13800
C 	C 	-0.00000 0.30560 0.09760 0.07700
H 	H 	-0.00000 0.33360 0.10200 0.03500
C 	C 	0.00000 0.22030 0.08800 -0.09900
C 	C 	0.00000 0.17990 0.08470 0.15300
N 	N 	-0.00000 0.14830 0.08180 -0.13800
C 	C 	0.00000 0.69440 0.90240 0.07700
H 	H 	0.00000 0.66640 0.89800 0.03600
C 	C 	0.00000 0.77970 0.91200 -0.09900
C 	C 	0.00000 0.82010 0.91530 0.15300
N 	N 	-0.00000 0.85170 0.91820 -0.13700
C 	C 	0.00000 0.69440 0.09760 0.07700
H 	H 	0.00000 0.66640 0.10200 0.03500
C 	C 	-0.00000 0.77970 0.08800 -0.09900
C 	C 	-0.00000 0.82010 0.08470 0.15300
N 	N 	0.00000 0.85170 0.08180 -0.13800
C 	C 	0.00000 0.30560 0.90240 0.07700
H 	H 	0.00000 0.33360 0.89800 0.03600
C 	C 	0.00000 0.22030 0.91200 -0.09900
C 	C 	0.00000 0.17990 0.91530 0.15300
N 	N 	0.00000 0.14830 0.91820 -0.13800
C 	C 	0.09760 0.50000 0.80560 0.07900
H 	H 	0.10200 0.50000 0.83360 0.03500
C 	C 	0.08800 0.50000 0.72030 -0.09700
C 	C 	0.08470 0.50000 0.67990 0.15200
N 	N 	0.08180 0.50000 0.64830 -0.13700
C 	C 	0.90240 0.50000 0.19440 0.07900
H 	H 	0.89800 0.50000 0.16640 0.03600
C 	C 	0.91200 0.50000 0.27970 -0.09700
C 	C 	0.91530 0.50000 0.32010 0.15300
N 	N 	0.91820 0.50000 0.35170 -0.13700
C 	C 	0.09760 0.50000 0.19440 0.07900
H 	H 	0.10200 0.50000 0.16640 0.03500
C 	C 	0.08800 0.50000 0.27970 -0.09700
C 	C 	0.08470 0.50000 0.32010 0.15300
N 	N 	0.08180 0.50000 0.35170 -0.13700
C 	C 	0.90240 0.50000 0.80560 0.07900
H 	H 	0.89800 0.50000 0.83360 0.03600
C 	C 	0.91200 0.50000 0.72030 -0.09700
C 	C 	0.91530 0.50000 0.67990 0.15300
N 	N 	0.91820 0.50000 0.64830 -0.13700
C 	C 	0.80340 0.50000 0.23390 0.05200
H 	H 	0.80370 0.50000 0.20550 0.04900
C 	C 	0.79840 0.50000 0.31900 -0.04600
C 	C 	0.79620 0.50000 0.36330 0.09000
N 	N 	0.79270 0.50000 0.39770 -0.11700
C 	C 	0.19660 0.50000 0.23390 0.05200
H 	H 	0.19630 0.50000 0.20550 0.04900
C 	C 	0.20160 0.50000 0.31900 -0.04600
C 	C 	0.20380 0.50000 0.36330 0.09000
N 	N 	0.20730 0.50000 0.39770 -0.11700
C 	C 	0.19660 0.50000 0.76610 0.05200
H 	H 	0.19630 0.50000 0.79450 0.04900
C 	C 	0.20160 0.50000 0.68100 -0.04600
C 	C 	0.20380 0.50000 0.63670 0.09000
N 	N 	0.20730 0.50000 0.60230 -0.11700
C 	C 	0.80340 0.50000 0.76610 0.05200
H 	H 	0.80370 0.50000 0.79450 0.04900
C 	C 	0.79840 0.50000 0.68100 -0.04600
C 	C 	0.79620 0.50000 0.63670 0.09000
N 	N 	0.79270 0.50000 0.60230 -0.11700
C 	C 	0.23390 0.30340 -0.00000 0.05000
H 	H 	0.20550 0.30370 -0.00000 0.04900
C 	C 	0.31900 0.29840 -0.00000 -0.04800
C 	C 	0.36330 0.29620 -0.00000 0.09000
N 	N 	0.39770 0.29270 -0.00000 -0.11800
C 	C 	0.23390 0.69660 -0.00000 0.05000
H 	H 	0.20550 0.69630 -0.00000 0.04900
C 	C 	0.31900 0.70160 -0.00000 -0.04800
C 	C 	0.36330 0.70380 -0.00000 0.09000
N 	N 	0.39770 0.70730 -0.00000 -0.11800
C 	C 	0.76610 0.69660 -0.00000 0.05000
H 	H 	0.79450 0.69630 -0.00000 0.04900
C 	C 	0.68100 0.70160 -0.00000 -0.04800
C 	C 	0.63670 0.70380 -0.00000 0.09000
N 	N 	0.60230 0.70730 -0.00000 -0.11800
C 	C 	0.76610 0.30340 -0.00000 0.05000
H 	H 	0.79450 0.30370 -0.00000 0.04900
C 	C 	0.68100 0.29840 -0.00000 -0.04800
C 	C 	0.63670 0.29620 -0.00000 0.09000
N 	N 	0.60230 0.29270 -0.00000 -0.11800
C 	C 	0.00000 0.73390 0.80340 0.05000
H 	H 	0.00000 0.70550 0.80370 0.04900
C 	C 	0.00000 0.81900 0.79840 -0.04800
C 	C 	0.00000 0.86330 0.79620 0.09000
N 	N 	0.00000 0.89770 0.79270 -0.11700
C 	C 	0.00000 0.73390 0.19660 0.05000
H 	H 	-0.00000 0.70550 0.19630 0.04900
C 	C 	0.00000 0.81900 0.20160 -0.04800
C 	C 	-0.00000 0.86330 0.20380 0.09000
N 	N 	0.00000 0.89770 0.20730 -0.11700
C 	C 	0.00000 0.26610 0.19660 0.05000
H 	H 	-0.00000 0.29450 0.19630 0.04900
C 	C 	0.00000 0.18100 0.20160 -0.04800
C 	C 	-0.00000 0.13670 0.20380 0.09000
N 	N 	-0.00000 0.10230 0.20730 -0.11800
C 	C 	0.00000 0.26610 0.80340 0.05000
H 	H 	0.00000 0.29450 0.80370 0.04900
C 	C 	-0.00000 0.18100 0.79840 -0.04800
C 	C 	0.00000 0.13670 0.79620 0.09000
N 	N 	0.00000 0.10230 0.79270 -0.11800
