data_crystal

_cell_length_a 31.46700
_cell_length_b 16.34410
_cell_length_c 23.63970
_cell_angle_alpha 90.00000
_cell_angle_beta  90.00000
_cell_angle_gamma 90.00000

_symmetry_space_group_name_	'P 1'
_symmetry_space_group_name_H-M	'P 1'

loop_
_symmetry_equiv_pos_as_xyz
  x,y,z

loop_
_atom_site_label
_atom_site_type_symbol
_atom_site_fract_x
_atom_site_fract_y
_atom_site_fract_z
_atom_site_charge
C 	C 	0.22590 0.47150 0.40680 0.09400
H 	H 	0.23760 0.51800 0.42340 -0.03200
C 	C 	0.18510 0.36810 0.38990 -0.00800
H 	H 	0.16280 0.33080 0.39270 0.00600
C 	C 	0.21650 0.36550 0.35140 -0.00900
H 	H 	0.22010 0.32620 0.32340 0.01700
C 	C 	0.27880 0.45770 0.33080 0.30200
C 	C 	0.28120 0.43790 0.27380 -0.49800
H 	H 	0.25920 0.40920 0.25660 0.19000
C 	C 	0.31660 0.46100 0.24210 0.53200
C 	C 	0.34810 0.50760 0.26840 -0.50400
H 	H 	0.37150 0.52530 0.24760 0.18500
C 	C 	0.34500 0.52740 0.32470 0.30000
C 	C 	0.31050 0.50180 0.35810 -0.37400
H 	H 	0.30900 0.51360 0.39650 0.15100
C 	C 	0.32050 0.43640 0.18110 -1.09600
H 	H 	0.29580 0.40570 0.17010 0.34000
H 	H 	0.34540 0.40320 0.17620 0.34600
H 	H 	0.32280 0.48440 0.15790 0.35300
C 	C 	0.37060 0.62770 0.39480 0.10900
H 	H 	0.34440 0.63610 0.41220 -0.03600
C 	C 	0.41870 0.58110 0.33720 -0.01500
H 	H 	0.43220 0.55300 0.30800 -0.01900
C 	C 	0.43690 0.63490 0.37360 -0.02600
H 	H 	0.46540 0.64950 0.37440 -0.04600
C 	C 	0.37740 0.62430 0.54830 0.09500
H 	H 	0.35110 0.62590 0.53020 -0.03200
C 	C 	0.44300 0.64600 0.56990 -0.01400
H 	H 	0.47070 0.66560 0.56870 -0.02100
C 	C 	0.42730 0.59440 0.60980 -0.00400
H 	H 	0.44190 0.57300 0.64070 -0.01300
C 	C 	0.35490 0.53530 0.62700 0.31500
C 	C 	0.31980 0.50480 0.59780 -0.38300
H 	H 	0.31680 0.51150 0.55890 0.15400
C 	C 	0.28940 0.46390 0.62990 0.31700
C 	C 	0.29420 0.45250 0.68710 -0.52500
H 	H 	0.27270 0.42680 0.70750 0.20500
C 	C 	0.33060 0.47900 0.71500 0.56500
C 	C 	0.36080 0.52180 0.68430 -0.52000
H 	H 	0.38500 0.54150 0.70220 0.18800
C 	C 	0.33690 0.46410 0.77690 -1.13900
H 	H 	0.36380 0.48630 0.78840 0.35600
H 	H 	0.33650 0.40630 0.78420 0.35300
H 	H 	0.31450 0.49010 0.79780 0.36500
C 	C 	0.22660 0.37110 0.61720 0.00000
H 	H 	0.23210 0.33370 0.64590 0.01600
C 	C 	0.19280 0.37180 0.58190 -0.01000
H 	H 	0.17080 0.33360 0.58210 0.00600
C 	C 	0.23080 0.47660 0.55930 0.08100
H 	H 	0.24040 0.52440 0.54220 -0.03000
C 	C 	0.07210 0.52700 0.62230 0.02900
H 	H 	0.05280 0.51400 0.65090 -0.00600
C 	C 	0.11440 0.59350 0.56570 0.09700
H 	H 	0.12970 0.63590 0.54920 -0.04100
C 	C 	0.08170 0.67690 0.63960 0.60500
C 	C 	0.07300 0.67660 0.69830 -1.20400
H 	H 	0.07000 0.62760 0.71790 0.41000
H 	H 	0.06370 0.80530 0.80340 0.64000
H 	H 	0.08690 0.72070 0.80680 0.64300
H 	H 	0.03740 0.72400 0.79960 0.63500
C 	C 	0.08170 0.47590 0.39890 -0.02100
H 	H 	0.07500 0.42080 0.40320 0.01000
C 	C 	0.06290 0.52650 0.36370 0.01700
H 	H 	0.04140 0.51370 0.33820 -0.00500
C 	C 	0.11160 0.59230 0.41050 0.11100
H 	H 	0.12950 0.63380 0.42300 -0.04800
C 	C 	0.07130 0.67810 0.34480 0.58400
C 	C 	0.05250 0.67730 0.29120 -1.00400
H 	H 	0.04790 0.62770 0.27290 0.34500
H 	H 	0.00990 0.69490 0.19910 0.50900
H 	H 	0.03510 0.77300 0.18030 0.51000
H 	H 	0.99190 0.78210 0.21260 0.51500
C 	C 	0.09000 0.47370 0.58520 -0.02500
H 	H 	0.08530 0.41750 0.58430 0.01200
N 	N 	0.19119 0.43520 0.42440 -0.21900
N 	N 	0.24262 0.43280 0.36170 -0.18500
N 	N 	0.37649 0.57640 0.35160 -0.18600
N 	N 	0.40523 0.66470 0.41000 -0.22400
N 	N 	0.41150 0.66500 0.53110 -0.22000
N 	N 	0.38560 0.58020 0.59560 -0.18200
N 	N 	0.25087 0.43620 0.60220 -0.17800
N 	N 	0.19567 0.43680 0.54600 -0.21700
N 	N 	0.11600 0.51630 0.54940 -0.21700
N 	N 	0.08731 0.60240 0.61020 -0.23900
N 	N 	0.11262 0.51660 0.42850 -0.21800
N 	N 	0.08116 0.60170 0.37170 -0.23200
Pd	Pd	0.15347 0.47404 0.48745 0.73200
C 	C 	0.22590 0.02850 0.40680 0.09200
H 	H 	0.23760 0.98200 0.42340 -0.03200
C 	C 	0.18510 0.13190 0.38990 -0.00900
H 	H 	0.16280 0.16920 0.39270 0.00500
C 	C 	0.21650 0.13450 0.35140 -0.01000
H 	H 	0.22010 0.17380 0.32340 0.01600
C 	C 	0.27880 0.04230 0.33080 0.30000
C 	C 	0.28120 0.06210 0.27380 -0.49800
H 	H 	0.25920 0.09080 0.25660 0.18900
C 	C 	0.31660 0.03900 0.24210 0.52900
C 	C 	0.34810 0.99240 0.26840 -0.50400
H 	H 	0.37150 0.97470 0.24760 0.18400
C 	C 	0.34500 0.97260 0.32470 0.29800
C 	C 	0.31050 0.99820 0.35810 -0.37400
H 	H 	0.30900 0.98640 0.39650 0.15000
C 	C 	0.32050 0.06360 0.18110 -1.09500
H 	H 	0.29580 0.09430 0.17010 0.34000
H 	H 	0.34540 0.09680 0.17620 0.34600
H 	H 	0.32280 0.01560 0.15790 0.35200
C 	C 	0.37060 0.87230 0.39480 0.10900
H 	H 	0.34440 0.86390 0.41220 -0.03600
C 	C 	0.41870 0.91890 0.33720 -0.01500
H 	H 	0.43220 0.94700 0.30800 -0.01900
C 	C 	0.43690 0.86510 0.37360 -0.02600
H 	H 	0.46540 0.85050 0.37440 -0.04600
C 	C 	0.37740 0.87570 0.54830 0.09500
H 	H 	0.35110 0.87410 0.53020 -0.03200
C 	C 	0.44300 0.85400 0.56990 -0.01400
H 	H 	0.47070 0.83440 0.56870 -0.02100
C 	C 	0.42730 0.90560 0.60980 -0.00400
H 	H 	0.44190 0.92700 0.64070 -0.01300
C 	C 	0.35490 0.96470 0.62700 0.31500
C 	C 	0.31980 0.99520 0.59780 -0.38400
H 	H 	0.31680 0.98850 0.55890 0.15400
C 	C 	0.28940 0.03610 0.62990 0.31700
C 	C 	0.29420 0.04750 0.68710 -0.52500
H 	H 	0.27270 0.07320 0.70750 0.20500
C 	C 	0.33060 0.02100 0.71500 0.56500
C 	C 	0.36080 0.97820 0.68430 -0.52000
H 	H 	0.38500 0.95850 0.70220 0.18800
C 	C 	0.33690 0.03590 0.77690 -1.14000
H 	H 	0.36380 0.01370 0.78840 0.35600
H 	H 	0.33650 0.09370 0.78420 0.35400
H 	H 	0.31450 0.00990 0.79780 0.36500
C 	C 	0.22660 0.12890 0.61720 0.00000
H 	H 	0.23210 0.16630 0.64590 0.01600
C 	C 	0.19280 0.12820 0.58190 -0.01000
H 	H 	0.17080 0.16640 0.58210 0.00600
C 	C 	0.23080 0.02340 0.55930 0.08100
H 	H 	0.24040 0.97560 0.54220 -0.03000
C 	C 	0.07210 0.97300 0.62230 0.02900
H 	H 	0.05280 0.98600 0.65090 -0.00700
C 	C 	0.11440 0.90650 0.56570 0.09700
H 	H 	0.12970 0.86410 0.54920 -0.04100
C 	C 	0.08170 0.82310 0.63960 0.60500
C 	C 	0.07300 0.82340 0.69830 -1.20400
H 	H 	0.07000 0.87240 0.71790 0.41000
H 	H 	0.06370 0.69470 0.80340 0.64000
H 	H 	0.08690 0.77930 0.80680 0.64300
H 	H 	0.03740 0.77600 0.79960 0.63500
C 	C 	0.08170 0.02410 0.39890 -0.02200
H 	H 	0.07500 0.07920 0.40320 0.01100
C 	C 	0.06290 0.97350 0.36370 0.01800
H 	H 	0.04140 0.98630 0.33820 -0.00600
C 	C 	0.11160 0.90770 0.41050 0.11100
H 	H 	0.12950 0.86620 0.42300 -0.04800
C 	C 	0.07130 0.82190 0.34480 0.58400
C 	C 	0.05250 0.82270 0.29120 -1.00400
H 	H 	0.04790 0.87230 0.27290 0.34500
H 	H 	0.00990 0.80510 0.19910 0.50900
H 	H 	0.03510 0.72700 0.18030 0.51000
H 	H 	0.99190 0.71790 0.21260 0.51500
C 	C 	0.09000 0.02630 0.58520 -0.02500
H 	H 	0.08530 0.08250 0.58430 0.01200
N 	N 	0.19119 0.06480 0.42440 -0.21900
N 	N 	0.24262 0.06720 0.36170 -0.18500
N 	N 	0.37649 0.92360 0.35160 -0.18500
N 	N 	0.40523 0.83530 0.41000 -0.22400
N 	N 	0.41150 0.83500 0.53110 -0.22000
N 	N 	0.38560 0.91980 0.59560 -0.18300
N 	N 	0.25087 0.06380 0.60220 -0.17800
N 	N 	0.19567 0.06320 0.54600 -0.21700
N 	N 	0.11600 0.98370 0.54940 -0.21700
N 	N 	0.08731 0.89760 0.61020 -0.23900
N 	N 	0.11262 0.98340 0.42850 -0.21800
N 	N 	0.08116 0.89830 0.37170 -0.23200
Pd	Pd	0.15347 0.02596 0.48745 0.73200
C 	C 	0.08460 0.75000 0.60950 -0.66900
H 	H 	0.08830 0.75000 0.57050 0.25200
C 	C 	0.06900 0.75000 0.72560 1.59300
C 	C 	0.06380 0.75000 0.78980 -3.87300
C 	C 	0.08100 0.75000 0.36970 -0.68200
H 	H 	0.09460 0.75000 0.40460 0.25200
C 	C 	0.04080 0.75000 0.26500 1.28900
C 	C 	0.01730 0.75000 0.20910 -3.11000
Pd	Pd	0.41047 0.75000 0.47056 0.72900
C 	C 	0.27410 0.52850 0.90680 0.09300
H 	H 	0.26240 0.48200 0.92340 -0.03300
C 	C 	0.31490 0.63190 0.88990 -0.00900
H 	H 	0.33720 0.66920 0.89270 0.00500
C 	C 	0.28350 0.63450 0.85140 -0.01000
H 	H 	0.27990 0.67380 0.82340 0.01600
C 	C 	0.22120 0.54230 0.83080 0.30100
C 	C 	0.21880 0.56210 0.77380 -0.49900
H 	H 	0.24080 0.59080 0.75660 0.18900
C 	C 	0.18340 0.53900 0.74210 0.53100
C 	C 	0.15190 0.49240 0.76840 -0.50500
H 	H 	0.12850 0.47470 0.74760 0.18400
C 	C 	0.15500 0.47260 0.82470 0.29900
C 	C 	0.18950 0.49820 0.85810 -0.37500
H 	H 	0.19100 0.48640 0.89650 0.15000
C 	C 	0.17950 0.56360 0.68110 -1.09700
H 	H 	0.20420 0.59430 0.67010 0.34000
H 	H 	0.15460 0.59680 0.67620 0.34600
H 	H 	0.17720 0.51560 0.65790 0.35300
C 	C 	0.12940 0.37230 0.89480 0.10900
H 	H 	0.15560 0.36390 0.91220 -0.03600
C 	C 	0.08130 0.41890 0.83720 -0.01500
H 	H 	0.06780 0.44700 0.80800 -0.01900
C 	C 	0.06310 0.36510 0.87360 -0.02600
H 	H 	0.03460 0.35050 0.87440 -0.04600
C 	C 	0.12260 0.37570 0.04830 0.09500
H 	H 	0.14890 0.37410 0.03020 -0.03200
C 	C 	0.05700 0.35400 0.06990 -0.01400
H 	H 	0.02930 0.33440 0.06870 -0.02100
C 	C 	0.07270 0.40560 0.10980 -0.00400
H 	H 	0.05810 0.42700 0.14070 -0.01200
C 	C 	0.14510 0.46470 0.12700 0.31500
C 	C 	0.18020 0.49520 0.09780 -0.38300
H 	H 	0.18320 0.48850 0.05890 0.15400
C 	C 	0.21060 0.53610 0.12990 0.31700
C 	C 	0.20580 0.54750 0.18710 -0.52500
H 	H 	0.22730 0.57320 0.20750 0.20500
C 	C 	0.16940 0.52100 0.21500 0.56500
C 	C 	0.13920 0.47820 0.18430 -0.52000
H 	H 	0.11500 0.45850 0.20220 0.18800
C 	C 	0.16310 0.53590 0.27690 -1.13900
H 	H 	0.13620 0.51370 0.28840 0.35600
H 	H 	0.16350 0.59370 0.28420 0.35400
H 	H 	0.18550 0.50990 0.29780 0.36500
C 	C 	0.27340 0.62890 0.11720 0.00000
H 	H 	0.26790 0.66630 0.14590 0.01600
C 	C 	0.30720 0.62820 0.08190 -0.01000
H 	H 	0.32920 0.66640 0.08210 0.00600
C 	C 	0.26920 0.52340 0.05930 0.08200
H 	H 	0.25960 0.47560 0.04220 -0.03000
C 	C 	0.42790 0.47300 0.12230 0.02900
H 	H 	0.44720 0.48600 0.15090 -0.00600
C 	C 	0.38560 0.40650 0.06570 0.09700
H 	H 	0.37030 0.36410 0.04920 -0.04100
C 	C 	0.41830 0.32310 0.13960 0.60600
C 	C 	0.42700 0.32340 0.19830 -1.20400
H 	H 	0.43000 0.37240 0.21790 0.41000
H 	H 	0.43630 0.19470 0.30340 0.64100
H 	H 	0.41310 0.27930 0.30680 0.64400
H 	H 	0.46260 0.27600 0.29960 0.63600
C 	C 	0.41830 0.52410 0.89890 -0.02100
H 	H 	0.42500 0.57920 0.90320 0.01000
C 	C 	0.43710 0.47350 0.86370 0.01700
H 	H 	0.45860 0.48630 0.83820 -0.00600
C 	C 	0.38840 0.40770 0.91050 0.11100
H 	H 	0.37050 0.36620 0.92300 -0.04800
C 	C 	0.42870 0.32190 0.84480 0.58600
C 	C 	0.44750 0.32270 0.79120 -1.00700
H 	H 	0.45210 0.37230 0.77290 0.34600
H 	H 	0.49010 0.30510 0.69910 0.51000
H 	H 	0.46490 0.22700 0.68030 0.51200
H 	H 	0.50810 0.21790 0.71260 0.51800
C 	C 	0.41000 0.52630 0.08520 -0.02500
H 	H 	0.41470 0.58250 0.08430 0.01200
N 	N 	0.30881 0.56480 0.92440 -0.21900
N 	N 	0.25738 0.56720 0.86170 -0.18500
N 	N 	0.12351 0.42360 0.85160 -0.18600
N 	N 	0.09477 0.33530 0.91000 -0.22400
N 	N 	0.08850 0.33500 0.03110 -0.21900
N 	N 	0.11440 0.41980 0.09560 -0.18200
N 	N 	0.24913 0.56380 0.10220 -0.17800
N 	N 	0.30433 0.56320 0.04600 -0.21700
N 	N 	0.38400 0.48370 0.04940 -0.21700
N 	N 	0.41269 0.39760 0.11020 -0.23900
N 	N 	0.38738 0.48340 0.92850 -0.21800
N 	N 	0.41884 0.39830 0.87170 -0.23200
Pd	Pd	0.34653 0.52596 0.98745 0.73200
C 	C 	0.27410 0.97150 0.90680 0.09200
H 	H 	0.26240 0.01800 0.92340 -0.03200
C 	C 	0.31490 0.86810 0.88990 -0.00900
H 	H 	0.33720 0.83080 0.89270 0.00500
C 	C 	0.28350 0.86550 0.85140 -0.01000
H 	H 	0.27990 0.82620 0.82340 0.01600
C 	C 	0.22120 0.95770 0.83080 0.30100
C 	C 	0.21880 0.93790 0.77380 -0.49900
H 	H 	0.24080 0.90920 0.75660 0.18900
C 	C 	0.18340 0.96100 0.74210 0.53000
C 	C 	0.15190 0.00760 0.76840 -0.50500
H 	H 	0.12850 0.02530 0.74760 0.18400
C 	C 	0.15500 0.02740 0.82470 0.29800
C 	C 	0.18950 0.00180 0.85810 -0.37400
H 	H 	0.19100 0.01360 0.89650 0.15000
C 	C 	0.17950 0.93640 0.68110 -1.09700
H 	H 	0.20420 0.90570 0.67010 0.34000
H 	H 	0.15460 0.90320 0.67620 0.34600
H 	H 	0.17720 0.98440 0.65790 0.35300
C 	C 	0.12940 0.12770 0.89480 0.10900
H 	H 	0.15560 0.13610 0.91220 -0.03600
C 	C 	0.08130 0.08110 0.83720 -0.01500
H 	H 	0.06780 0.05300 0.80800 -0.01900
C 	C 	0.06310 0.13490 0.87360 -0.02600
H 	H 	0.03460 0.14950 0.87440 -0.04600
C 	C 	0.12260 0.12430 0.04830 0.09500
H 	H 	0.14890 0.12590 0.03020 -0.03200
C 	C 	0.05700 0.14600 0.06990 -0.01400
H 	H 	0.02930 0.16560 0.06870 -0.02100
C 	C 	0.07270 0.09440 0.10980 -0.00400
H 	H 	0.05810 0.07300 0.14070 -0.01300
C 	C 	0.14510 0.03530 0.12700 0.31600
C 	C 	0.18020 0.00480 0.09780 -0.38500
H 	H 	0.18320 0.01150 0.05890 0.15500
C 	C 	0.21060 0.96390 0.12990 0.31900
C 	C 	0.20580 0.95250 0.18710 -0.52600
H 	H 	0.22730 0.92680 0.20750 0.20600
C 	C 	0.16940 0.97900 0.21500 0.56700
C 	C 	0.13920 0.02180 0.18430 -0.52200
H 	H 	0.11500 0.04150 0.20220 0.18800
C 	C 	0.16310 0.96410 0.27690 -1.14200
H 	H 	0.13620 0.98630 0.28840 0.35700
H 	H 	0.16350 0.90630 0.28420 0.35400
H 	H 	0.18550 0.99010 0.29780 0.36600
C 	C 	0.27340 0.87110 0.11720 0.00100
H 	H 	0.26790 0.83370 0.14590 0.01600
C 	C 	0.30720 0.87180 0.08190 -0.01000
H 	H 	0.32920 0.83360 0.08210 0.00600
C 	C 	0.26920 0.97660 0.05930 0.08300
H 	H 	0.25960 0.02440 0.04220 -0.03100
C 	C 	0.42790 0.02700 0.12230 0.02800
H 	H 	0.44720 0.01400 0.15090 -0.00600
C 	C 	0.38560 0.09350 0.06570 0.09700
H 	H 	0.37030 0.13590 0.04920 -0.04100
C 	C 	0.41830 0.17690 0.13960 0.60600
C 	C 	0.42700 0.17660 0.19830 -1.20400
H 	H 	0.43000 0.12760 0.21790 0.41000
H 	H 	0.43630 0.30530 0.30340 0.64100
H 	H 	0.41310 0.22070 0.30680 0.64400
H 	H 	0.46260 0.22400 0.29960 0.63600
C 	C 	0.41830 0.97590 0.89890 -0.02200
H 	H 	0.42500 0.92080 0.90320 0.01100
C 	C 	0.43710 0.02650 0.86370 0.01800
H 	H 	0.45860 0.01370 0.83820 -0.00600
C 	C 	0.38840 0.09230 0.91050 0.11100
H 	H 	0.37050 0.13380 0.92300 -0.04800
C 	C 	0.42870 0.17810 0.84480 0.58600
C 	C 	0.44750 0.17730 0.79120 -1.00700
H 	H 	0.45210 0.12770 0.77290 0.34600
H 	H 	0.49010 0.19490 0.69910 0.51000
H 	H 	0.46490 0.27300 0.68030 0.51200
H 	H 	0.50810 0.28210 0.71260 0.51800
C 	C 	0.41000 0.97370 0.08520 -0.02300
H 	H 	0.41470 0.91750 0.08430 0.01100
N 	N 	0.30881 0.93520 0.92440 -0.21900
N 	N 	0.25738 0.93280 0.86170 -0.18500
N 	N 	0.12351 0.07640 0.85160 -0.18500
N 	N 	0.09477 0.16470 0.91000 -0.22400
N 	N 	0.08850 0.16500 0.03110 -0.21900
N 	N 	0.11440 0.08020 0.09560 -0.18300
N 	N 	0.24913 0.93620 0.10220 -0.17800
N 	N 	0.30433 0.93680 0.04600 -0.21700
N 	N 	0.38400 0.01630 0.04940 -0.21700
N 	N 	0.41269 0.10240 0.11020 -0.23900
N 	N 	0.38738 0.01660 0.92850 -0.21700
N 	N 	0.41884 0.10170 0.87170 -0.23300
Pd	Pd	0.34653 0.97404 0.98745 0.73200
C 	C 	0.41540 0.25000 0.10950 -0.67000
H 	H 	0.41170 0.25000 0.07050 0.25200
C 	C 	0.43100 0.25000 0.22560 1.59500
C 	C 	0.43620 0.25000 0.28980 -3.87600
C 	C 	0.41900 0.25000 0.86970 -0.68400
H 	H 	0.40540 0.25000 0.90460 0.25300
C 	C 	0.45920 0.25000 0.76500 1.29400
C 	C 	0.48270 0.25000 0.70910 -3.12300
Pd	Pd	0.08953 0.25000 0.97056 0.72900
C 	C 	0.77410 0.97150 0.59320 0.09200
H 	H 	0.76240 0.01800 0.57660 -0.03200
C 	C 	0.81490 0.86810 0.61010 -0.00900
H 	H 	0.83720 0.83080 0.60730 0.00500
C 	C 	0.78350 0.86550 0.64860 -0.01000
H 	H 	0.77990 0.82620 0.67660 0.01600
C 	C 	0.72120 0.95770 0.66920 0.30000
C 	C 	0.71880 0.93790 0.72620 -0.49800
H 	H 	0.74080 0.90920 0.74340 0.18900
C 	C 	0.68340 0.96100 0.75790 0.52900
C 	C 	0.65190 0.00760 0.73160 -0.50400
H 	H 	0.62850 0.02530 0.75240 0.18400
C 	C 	0.65500 0.02740 0.67530 0.29800
C 	C 	0.68950 0.00180 0.64190 -0.37400
H 	H 	0.69100 0.01360 0.60350 0.15000
C 	C 	0.67950 0.93640 0.81890 -1.09500
H 	H 	0.70420 0.90570 0.82990 0.34000
H 	H 	0.65460 0.90320 0.82380 0.34600
H 	H 	0.67720 0.98440 0.84210 0.35200
C 	C 	0.62940 0.12770 0.60520 0.10900
H 	H 	0.65560 0.13610 0.58780 -0.03600
C 	C 	0.58130 0.08110 0.66280 -0.01500
H 	H 	0.56780 0.05300 0.69200 -0.01900
C 	C 	0.56310 0.13490 0.62640 -0.02600
H 	H 	0.53460 0.14950 0.62560 -0.04600
C 	C 	0.62260 0.12430 0.45170 0.09500
H 	H 	0.64890 0.12590 0.46980 -0.03200
C 	C 	0.55700 0.14600 0.43010 -0.01400
H 	H 	0.52930 0.16560 0.43130 -0.02100
C 	C 	0.57270 0.09440 0.39020 -0.00400
H 	H 	0.55810 0.07300 0.35930 -0.01300
C 	C 	0.64510 0.03530 0.37300 0.31500
C 	C 	0.68020 0.00480 0.40220 -0.38400
H 	H 	0.68320 0.01150 0.44110 0.15400
C 	C 	0.71060 0.96390 0.37010 0.31700
C 	C 	0.70580 0.95250 0.31290 -0.52500
H 	H 	0.72730 0.92680 0.29250 0.20500
C 	C 	0.66940 0.97900 0.28500 0.56500
C 	C 	0.63920 0.02180 0.31570 -0.52000
H 	H 	0.61500 0.04150 0.29780 0.18800
C 	C 	0.66310 0.96410 0.22310 -1.14000
H 	H 	0.63620 0.98630 0.21160 0.35600
H 	H 	0.66350 0.90630 0.21580 0.35400
H 	H 	0.68550 0.99010 0.20220 0.36500
C 	C 	0.77340 0.87110 0.38280 0.00000
H 	H 	0.76790 0.83370 0.35410 0.01600
C 	C 	0.80720 0.87180 0.41810 -0.01000
H 	H 	0.82920 0.83360 0.41790 0.00600
C 	C 	0.76920 0.97660 0.44070 0.08100
H 	H 	0.75960 0.02440 0.45780 -0.03000
C 	C 	0.92790 0.02700 0.37770 0.02900
H 	H 	0.94720 0.01400 0.34910 -0.00700
C 	C 	0.88560 0.09350 0.43430 0.09700
H 	H 	0.87030 0.13590 0.45080 -0.04100
C 	C 	0.91830 0.17690 0.36040 0.60500
C 	C 	0.92700 0.17660 0.30170 -1.20400
H 	H 	0.93000 0.12760 0.28210 0.41000
H 	H 	0.93630 0.30530 0.19660 0.64000
H 	H 	0.91310 0.22070 0.19320 0.64300
H 	H 	0.96260 0.22400 0.20040 0.63500
C 	C 	0.91830 0.97590 0.60110 -0.02200
H 	H 	0.92500 0.92080 0.59680 0.01100
C 	C 	0.93710 0.02650 0.63630 0.01800
H 	H 	0.95860 0.01370 0.66180 -0.00600
C 	C 	0.88840 0.09230 0.58950 0.11100
H 	H 	0.87050 0.13380 0.57700 -0.04800
C 	C 	0.92870 0.17810 0.65520 0.58400
C 	C 	0.94750 0.17730 0.70880 -1.00400
H 	H 	0.95210 0.12770 0.72710 0.34500
H 	H 	0.99010 0.19490 0.80090 0.50900
H 	H 	0.96490 0.27300 0.81970 0.51000
H 	H 	0.00810 0.28210 0.78740 0.51500
C 	C 	0.91000 0.97370 0.41480 -0.02500
H 	H 	0.91470 0.91750 0.41570 0.01200
N 	N 	0.80881 0.93520 0.57560 -0.21900
N 	N 	0.75738 0.93280 0.63830 -0.18500
N 	N 	0.62351 0.07640 0.64840 -0.18500
N 	N 	0.59477 0.16470 0.59000 -0.22400
N 	N 	0.58850 0.16500 0.46890 -0.22000
N 	N 	0.61440 0.08020 0.40440 -0.18300
N 	N 	0.74913 0.93620 0.39780 -0.17800
N 	N 	0.80433 0.93680 0.45400 -0.21700
N 	N 	0.88400 0.01630 0.45060 -0.21700
N 	N 	0.91269 0.10240 0.38980 -0.23900
N 	N 	0.88738 0.01660 0.57150 -0.21800
N 	N 	0.91884 0.10170 0.62830 -0.23200
Pd	Pd	0.84653 0.97404 0.51255 0.73200
C 	C 	0.77410 0.52850 0.59320 0.09300
H 	H 	0.76240 0.48200 0.57660 -0.03300
C 	C 	0.81490 0.63190 0.61010 -0.00900
H 	H 	0.83720 0.66920 0.60730 0.00500
C 	C 	0.78350 0.63450 0.64860 -0.01000
H 	H 	0.77990 0.67380 0.67660 0.01600
C 	C 	0.72120 0.54230 0.66920 0.30100
C 	C 	0.71880 0.56210 0.72620 -0.49900
H 	H 	0.74080 0.59080 0.74340 0.18900
C 	C 	0.68340 0.53900 0.75790 0.53100
C 	C 	0.65190 0.49240 0.73160 -0.50500
H 	H 	0.62850 0.47470 0.75240 0.18400
C 	C 	0.65500 0.47260 0.67530 0.29900
C 	C 	0.68950 0.49820 0.64190 -0.37500
H 	H 	0.69100 0.48640 0.60350 0.15000
C 	C 	0.67950 0.56360 0.81890 -1.09700
H 	H 	0.70420 0.59430 0.82990 0.34000
H 	H 	0.65460 0.59680 0.82380 0.34600
H 	H 	0.67720 0.51560 0.84210 0.35300
C 	C 	0.62940 0.37230 0.60520 0.10900
H 	H 	0.65560 0.36390 0.58780 -0.03600
C 	C 	0.58130 0.41890 0.66280 -0.01500
H 	H 	0.56780 0.44700 0.69200 -0.01900
C 	C 	0.56310 0.36510 0.62640 -0.02600
H 	H 	0.53460 0.35050 0.62560 -0.04600
C 	C 	0.62260 0.37570 0.45170 0.09500
H 	H 	0.64890 0.37410 0.46980 -0.03200
C 	C 	0.55700 0.35400 0.43010 -0.01400
H 	H 	0.52930 0.33440 0.43130 -0.02100
C 	C 	0.57270 0.40560 0.39020 -0.00400
H 	H 	0.55810 0.42700 0.35930 -0.01300
C 	C 	0.64510 0.46470 0.37300 0.31500
C 	C 	0.68020 0.49520 0.40220 -0.38300
H 	H 	0.68320 0.48850 0.44110 0.15400
C 	C 	0.71060 0.53610 0.37010 0.31700
C 	C 	0.70580 0.54750 0.31290 -0.52500
H 	H 	0.72730 0.57320 0.29250 0.20500
C 	C 	0.66940 0.52100 0.28500 0.56500
C 	C 	0.63920 0.47820 0.31570 -0.52000
H 	H 	0.61500 0.45850 0.29780 0.18800
C 	C 	0.66310 0.53590 0.22310 -1.13900
H 	H 	0.63620 0.51370 0.21160 0.35600
H 	H 	0.66350 0.59370 0.21580 0.35300
H 	H 	0.68550 0.50990 0.20220 0.36500
C 	C 	0.77340 0.62890 0.38280 0.00000
H 	H 	0.76790 0.66630 0.35410 0.01600
C 	C 	0.80720 0.62820 0.41810 -0.01000
H 	H 	0.82920 0.66640 0.41790 0.00600
C 	C 	0.76920 0.52340 0.44070 0.08100
H 	H 	0.75960 0.47560 0.45780 -0.03000
C 	C 	0.92790 0.47300 0.37770 0.02900
H 	H 	0.94720 0.48600 0.34910 -0.00600
C 	C 	0.88560 0.40650 0.43430 0.09700
H 	H 	0.87030 0.36410 0.45080 -0.04100
C 	C 	0.91830 0.32310 0.36040 0.60500
C 	C 	0.92700 0.32340 0.30170 -1.20400
H 	H 	0.93000 0.37240 0.28210 0.41000
H 	H 	0.93630 0.19470 0.19660 0.64000
H 	H 	0.91310 0.27930 0.19320 0.64300
H 	H 	0.96260 0.27600 0.20040 0.63500
C 	C 	0.91830 0.52410 0.60110 -0.02100
H 	H 	0.92500 0.57920 0.59680 0.01000
C 	C 	0.93710 0.47350 0.63630 0.01700
H 	H 	0.95860 0.48630 0.66180 -0.00500
C 	C 	0.88840 0.40770 0.58950 0.11100
H 	H 	0.87050 0.36620 0.57700 -0.04800
C 	C 	0.92870 0.32190 0.65520 0.58400
C 	C 	0.94750 0.32270 0.70880 -1.00400
H 	H 	0.95210 0.37230 0.72710 0.34500
H 	H 	0.99010 0.30510 0.80090 0.50900
H 	H 	0.96490 0.22700 0.81970 0.51000
H 	H 	0.00810 0.21790 0.78740 0.51500
C 	C 	0.91000 0.52630 0.41480 -0.02500
H 	H 	0.91470 0.58250 0.41570 0.01200
N 	N 	0.80881 0.56480 0.57560 -0.21900
N 	N 	0.75738 0.56720 0.63830 -0.18500
N 	N 	0.62351 0.42360 0.64840 -0.18600
N 	N 	0.59477 0.33530 0.59000 -0.22400
N 	N 	0.58850 0.33500 0.46890 -0.22000
N 	N 	0.61440 0.41980 0.40440 -0.18200
N 	N 	0.74913 0.56380 0.39780 -0.17800
N 	N 	0.80433 0.56320 0.45400 -0.21700
N 	N 	0.88400 0.48370 0.45060 -0.21700
N 	N 	0.91269 0.39760 0.38980 -0.23900
N 	N 	0.88738 0.48340 0.57150 -0.21800
N 	N 	0.91884 0.39830 0.62830 -0.23200
Pd	Pd	0.84653 0.52596 0.51255 0.73200
C 	C 	0.91540 0.25000 0.39050 -0.66900
H 	H 	0.91170 0.25000 0.42950 0.25200
C 	C 	0.93100 0.25000 0.27440 1.59300
C 	C 	0.93620 0.25000 0.21020 -3.87300
C 	C 	0.91900 0.25000 0.63030 -0.68200
H 	H 	0.90540 0.25000 0.59540 0.25200
C 	C 	0.95920 0.25000 0.73500 1.28900
C 	C 	0.98270 0.25000 0.79090 -3.11000
Pd	Pd	0.58953 0.25000 0.52944 0.72900
C 	C 	0.72590 0.02850 0.09320 0.09200
H 	H 	0.73760 0.98200 0.07660 -0.03200
C 	C 	0.68510 0.13190 0.11010 -0.00900
H 	H 	0.66280 0.16920 0.10730 0.00500
C 	C 	0.71650 0.13450 0.14860 -0.01000
H 	H 	0.72010 0.17380 0.17660 0.01600
C 	C 	0.77880 0.04230 0.16920 0.30100
C 	C 	0.78120 0.06210 0.22620 -0.49900
H 	H 	0.75920 0.09080 0.24340 0.18900
C 	C 	0.81660 0.03900 0.25790 0.53000
C 	C 	0.84810 0.99240 0.23160 -0.50500
H 	H 	0.87150 0.97470 0.25240 0.18400
C 	C 	0.84500 0.97260 0.17530 0.29800
C 	C 	0.81050 0.99820 0.14190 -0.37400
H 	H 	0.80900 0.98640 0.10350 0.15000
C 	C 	0.82050 0.06360 0.31890 -1.09700
H 	H 	0.79580 0.09430 0.32990 0.34000
H 	H 	0.84540 0.09680 0.32380 0.34600
H 	H 	0.82280 0.01560 0.34210 0.35300
C 	C 	0.87060 0.87230 0.10520 0.10900
H 	H 	0.84440 0.86390 0.08780 -0.03600
C 	C 	0.91870 0.91890 0.16280 -0.01500
H 	H 	0.93220 0.94700 0.19200 -0.01900
C 	C 	0.93690 0.86510 0.12640 -0.02600
H 	H 	0.96540 0.85050 0.12560 -0.04600
C 	C 	0.87740 0.87570 0.95170 0.09500
H 	H 	0.85110 0.87410 0.96980 -0.03200
C 	C 	0.94300 0.85400 0.93010 -0.01400
H 	H 	0.97070 0.83440 0.93130 -0.02100
C 	C 	0.92730 0.90560 0.89020 -0.00400
H 	H 	0.94190 0.92700 0.85930 -0.01300
C 	C 	0.85490 0.96470 0.87300 0.31600
C 	C 	0.81980 0.99520 0.90220 -0.38500
H 	H 	0.81680 0.98850 0.94110 0.15500
C 	C 	0.78940 0.03610 0.87010 0.31900
C 	C 	0.79420 0.04750 0.81290 -0.52600
H 	H 	0.77270 0.07320 0.79250 0.20600
C 	C 	0.83060 0.02100 0.78500 0.56700
C 	C 	0.86080 0.97820 0.81570 -0.52200
H 	H 	0.88500 0.95850 0.79780 0.18800
C 	C 	0.83690 0.03590 0.72310 -1.14200
H 	H 	0.86380 0.01370 0.71160 0.35700
H 	H 	0.83650 0.09370 0.71580 0.35400
H 	H 	0.81450 0.00990 0.70220 0.36600
C 	C 	0.72660 0.12890 0.88280 0.00100
H 	H 	0.73210 0.16630 0.85410 0.01600
C 	C 	0.69280 0.12820 0.91810 -0.01000
H 	H 	0.67080 0.16640 0.91790 0.00600
C 	C 	0.73080 0.02340 0.94070 0.08300
H 	H 	0.74040 0.97560 0.95780 -0.03100
C 	C 	0.57210 0.97300 0.87770 0.02800
H 	H 	0.55280 0.98600 0.84910 -0.00600
C 	C 	0.61440 0.90650 0.93430 0.09700
H 	H 	0.62970 0.86410 0.95080 -0.04100
C 	C 	0.58170 0.82310 0.86040 0.60600
C 	C 	0.57300 0.82340 0.80170 -1.20400
H 	H 	0.57000 0.87240 0.78210 0.41000
H 	H 	0.56370 0.69470 0.69660 0.64100
H 	H 	0.58690 0.77930 0.69320 0.64400
H 	H 	0.53740 0.77600 0.70040 0.63600
C 	C 	0.58170 0.02410 0.10110 -0.02200
H 	H 	0.57500 0.07920 0.09680 0.01100
C 	C 	0.56290 0.97350 0.13630 0.01800
H 	H 	0.54140 0.98630 0.16180 -0.00600
C 	C 	0.61160 0.90770 0.08950 0.11100
H 	H 	0.62950 0.86620 0.07700 -0.04800
C 	C 	0.57130 0.82190 0.15520 0.58600
C 	C 	0.55250 0.82270 0.20880 -1.00700
H 	H 	0.54790 0.87230 0.22710 0.34600
H 	H 	0.50990 0.80510 0.30090 0.51000
H 	H 	0.53510 0.72700 0.31970 0.51200
H 	H 	0.49190 0.71790 0.28740 0.51800
C 	C 	0.59000 0.02630 0.91480 -0.02300
H 	H 	0.58530 0.08250 0.91570 0.01100
N 	N 	0.69119 0.06480 0.07560 -0.21900
N 	N 	0.74262 0.06720 0.13830 -0.18500
N 	N 	0.87649 0.92360 0.14840 -0.18500
N 	N 	0.90523 0.83530 0.09000 -0.22400
N 	N 	0.91150 0.83500 0.96890 -0.21900
N 	N 	0.88560 0.91980 0.90440 -0.18300
N 	N 	0.75087 0.06380 0.89780 -0.17800
N 	N 	0.69567 0.06320 0.95400 -0.21700
N 	N 	0.61600 0.98370 0.95060 -0.21700
N 	N 	0.58731 0.89760 0.88980 -0.23900
N 	N 	0.61262 0.98340 0.07150 -0.21700
N 	N 	0.58116 0.89830 0.12830 -0.23300
Pd	Pd	0.65347 0.02596 0.01255 0.73200
C 	C 	0.72590 0.47150 0.09320 0.09300
H 	H 	0.73760 0.51800 0.07660 -0.03300
C 	C 	0.68510 0.36810 0.11010 -0.00900
H 	H 	0.66280 0.33080 0.10730 0.00500
C 	C 	0.71650 0.36550 0.14860 -0.01000
H 	H 	0.72010 0.32620 0.17660 0.01600
C 	C 	0.77880 0.45770 0.16920 0.30100
C 	C 	0.78120 0.43790 0.22620 -0.49900
H 	H 	0.75920 0.40920 0.24340 0.18900
C 	C 	0.81660 0.46100 0.25790 0.53100
C 	C 	0.84810 0.50760 0.23160 -0.50500
H 	H 	0.87150 0.52530 0.25240 0.18400
C 	C 	0.84500 0.52740 0.17530 0.29900
C 	C 	0.81050 0.50180 0.14190 -0.37500
H 	H 	0.80900 0.51360 0.10350 0.15000
C 	C 	0.82050 0.43640 0.31890 -1.09700
H 	H 	0.79580 0.40570 0.32990 0.34000
H 	H 	0.84540 0.40320 0.32380 0.34600
H 	H 	0.82280 0.48440 0.34210 0.35300
C 	C 	0.87060 0.62770 0.10520 0.10900
H 	H 	0.84440 0.63610 0.08780 -0.03600
C 	C 	0.91870 0.58110 0.16280 -0.01500
H 	H 	0.93220 0.55300 0.19200 -0.01900
C 	C 	0.93690 0.63490 0.12640 -0.02600
H 	H 	0.96540 0.64950 0.12560 -0.04600
C 	C 	0.87740 0.62430 0.95170 0.09500
H 	H 	0.85110 0.62590 0.96980 -0.03200
C 	C 	0.94300 0.64600 0.93010 -0.01400
H 	H 	0.97070 0.66560 0.93130 -0.02100
C 	C 	0.92730 0.59440 0.89020 -0.00400
H 	H 	0.94190 0.57300 0.85930 -0.01200
C 	C 	0.85490 0.53530 0.87300 0.31500
C 	C 	0.81980 0.50480 0.90220 -0.38300
H 	H 	0.81680 0.51150 0.94110 0.15400
C 	C 	0.78940 0.46390 0.87010 0.31700
C 	C 	0.79420 0.45250 0.81290 -0.52500
H 	H 	0.77270 0.42680 0.79250 0.20500
C 	C 	0.83060 0.47900 0.78500 0.56500
C 	C 	0.86080 0.52180 0.81570 -0.52000
H 	H 	0.88500 0.54150 0.79780 0.18800
C 	C 	0.83690 0.46410 0.72310 -1.13900
H 	H 	0.86380 0.48630 0.71160 0.35600
H 	H 	0.83650 0.40630 0.71580 0.35400
H 	H 	0.81450 0.49010 0.70220 0.36500
C 	C 	0.72660 0.37110 0.88280 0.00000
H 	H 	0.73210 0.33370 0.85410 0.01600
C 	C 	0.69280 0.37180 0.91810 -0.01000
H 	H 	0.67080 0.33360 0.91790 0.00600
C 	C 	0.73080 0.47660 0.94070 0.08200
H 	H 	0.74040 0.52440 0.95780 -0.03000
C 	C 	0.57210 0.52700 0.87770 0.02900
H 	H 	0.55280 0.51400 0.84910 -0.00600
C 	C 	0.61440 0.59350 0.93430 0.09700
H 	H 	0.62970 0.63590 0.95080 -0.04100
C 	C 	0.58170 0.67690 0.86040 0.60600
C 	C 	0.57300 0.67660 0.80170 -1.20400
H 	H 	0.57000 0.62760 0.78210 0.41000
H 	H 	0.56370 0.80530 0.69660 0.64100
H 	H 	0.58690 0.72070 0.69320 0.64400
H 	H 	0.53740 0.72400 0.70040 0.63600
C 	C 	0.58170 0.47590 0.10110 -0.02100
H 	H 	0.57500 0.42080 0.09680 0.01000
C 	C 	0.56290 0.52650 0.13630 0.01700
H 	H 	0.54140 0.51370 0.16180 -0.00600
C 	C 	0.61160 0.59230 0.08950 0.11100
H 	H 	0.62950 0.63380 0.07700 -0.04800
C 	C 	0.57130 0.67810 0.15520 0.58600
C 	C 	0.55250 0.67730 0.20880 -1.00700
H 	H 	0.54790 0.62770 0.22710 0.34600
H 	H 	0.50990 0.69490 0.30090 0.51000
H 	H 	0.53510 0.77300 0.31970 0.51200
H 	H 	0.49190 0.78210 0.28740 0.51800
C 	C 	0.59000 0.47370 0.91480 -0.02500
H 	H 	0.58530 0.41750 0.91570 0.01200
N 	N 	0.69119 0.43520 0.07560 -0.21900
N 	N 	0.74262 0.43280 0.13830 -0.18500
N 	N 	0.87649 0.57640 0.14840 -0.18600
N 	N 	0.90523 0.66470 0.09000 -0.22400
N 	N 	0.91150 0.66500 0.96890 -0.21900
N 	N 	0.88560 0.58020 0.90440 -0.18200
N 	N 	0.75087 0.43620 0.89780 -0.17800
N 	N 	0.69567 0.43680 0.95400 -0.21700
N 	N 	0.61600 0.51630 0.95060 -0.21700
N 	N 	0.58731 0.60240 0.88980 -0.23900
N 	N 	0.61262 0.51660 0.07150 -0.21800
N 	N 	0.58116 0.60170 0.12830 -0.23200
Pd	Pd	0.65347 0.47404 0.01255 0.73200
C 	C 	0.58460 0.75000 0.89050 -0.67000
H 	H 	0.58830 0.75000 0.92950 0.25200
C 	C 	0.56900 0.75000 0.77440 1.59500
C 	C 	0.56380 0.75000 0.71020 -3.87600
C 	C 	0.58100 0.75000 0.13030 -0.68400
H 	H 	0.59460 0.75000 0.09540 0.25300
C 	C 	0.54080 0.75000 0.23500 1.29400
C 	C 	0.51730 0.75000 0.29090 -3.12300
Pd	Pd	0.91047 0.75000 0.02944 0.72900
