data_crystal

_cell_length_a 21.88150
_cell_length_b 21.88150
_cell_length_c 75.31000
_cell_angle_alpha 90.00000
_cell_angle_beta  90.00000
_cell_angle_gamma 120.00000

_symmetry_space_group_name_	'P 1'
_symmetry_space_group_name_H-M	'P 1'

loop_
_symmetry_equiv_pos_as_xyz
  x,y,z

loop_
_atom_site_label
_atom_site_type_symbol
_atom_site_fract_x
_atom_site_fract_y
_atom_site_fract_z
_atom_site_charge
Ag	Ag	0.43243 0.74044 0.00547 0.43400
Ag	Ag	0.43175 0.69276 0.85749 0.42200
Ca	Ca	0.63054 0.86750 0.90621 1.47800
S 	S 	0.45857 0.75814 0.96130 -0.37300
S 	S 	0.36471 0.79051 0.01944 -0.31100
N 	N 	0.53420 0.81550 0.99093 -0.22600
N 	N 	0.53480 0.71930 0.84314 -0.22600
O 	O 	0.58130 0.89160 0.93484 -0.65500
O 	O 	0.62880 0.82600 0.93689 -0.51500
O 	O 	0.67460 0.89380 0.87767 -0.53400
O 	O 	0.77950 0.98600 0.87929 -0.33900
C 	C 	0.53540 0.81530 0.97354 0.14400
C 	C 	0.59810 0.85940 0.96350 -0.22000
C 	C 	0.65920 0.90510 0.97324 0.11800
H 	H 	0.70090 0.93590 0.96740 -0.02900
C 	C 	0.65600 0.90330 0.99155 -0.18800
H 	H 	0.69610 0.93190 0.99820 0.08500
C 	C 	0.59290 0.85880 0.99986 0.10400
H 	H 	0.59120 0.85890 0.01220 -0.02800
C 	C 	0.60310 0.85940 0.94375 0.45900
C 	C 	0.72990 0.93450 0.87096 0.41200
C 	C 	0.73460 0.92930 0.85070 -0.17500
C 	C 	0.79800 0.94760 0.84114 0.12600
C 	C 	0.59420 0.73700 0.85192 0.11600
H 	H 	0.59300 0.73810 0.86430 -0.05400
C 	C 	0.65690 0.75370 0.84397 -0.18700
H 	H 	0.69650 0.76350 0.85070 0.08200
C 	C 	0.65910 0.75520 0.82607 0.10600
H 	H 	0.70150 0.76850 0.82030 0.00100
Ag	Ag	0.09910 0.07377 0.33880 0.43400
Ag	Ag	0.09842 0.02609 0.19083 0.42200
Ca	Ca	0.29721 0.20083 0.23954 1.47800
S 	S 	0.12524 0.09147 0.29463 -0.37300
S 	S 	0.03138 0.12384 0.35277 -0.31100
N 	N 	0.20087 0.14883 0.32426 -0.22600
N 	N 	0.20147 0.05263 0.17647 -0.22600
O 	O 	0.24797 0.22493 0.26817 -0.65500
O 	O 	0.29547 0.15933 0.27022 -0.51500
O 	O 	0.34127 0.22713 0.21100 -0.53400
O 	O 	0.44617 0.31933 0.21262 -0.33900
C 	C 	0.20207 0.14863 0.30687 0.14400
C 	C 	0.26477 0.19273 0.29683 -0.22000
C 	C 	0.32587 0.23843 0.30657 0.11800
H 	H 	0.36757 0.26923 0.30073 -0.02900
C 	C 	0.32267 0.23663 0.32488 -0.18800
H 	H 	0.36277 0.26523 0.33153 0.08500
C 	C 	0.25957 0.19213 0.33319 0.10400
H 	H 	0.25787 0.19223 0.34553 -0.02800
C 	C 	0.26977 0.19273 0.27708 0.45900
C 	C 	0.39657 0.26783 0.20429 0.41200
C 	C 	0.40127 0.26263 0.18403 -0.17500
C 	C 	0.46467 0.28093 0.17447 0.12600
C 	C 	0.26087 0.07033 0.18525 0.11600
H 	H 	0.25967 0.07143 0.19763 -0.05400
C 	C 	0.32357 0.08703 0.17730 -0.18700
H 	H 	0.36317 0.09683 0.18403 0.08200
C 	C 	0.32577 0.08853 0.15940 0.10600
H 	H 	0.36817 0.10183 0.15363 0.00100
Ag	Ag	0.76576 0.40711 0.67213 0.43400
Ag	Ag	0.76508 0.35943 0.52416 0.42200
Ca	Ca	0.96387 0.53417 0.57288 1.47800
S 	S 	0.79190 0.42481 0.62797 -0.37300
S 	S 	0.69804 0.45718 0.68611 -0.31100
N 	N 	0.86753 0.48217 0.65760 -0.22600
N 	N 	0.86813 0.38597 0.50981 -0.22600
O 	O 	0.91463 0.55827 0.60151 -0.65500
O 	O 	0.96213 0.49267 0.60356 -0.51500
O 	O 	0.00793 0.56047 0.54434 -0.53400
O 	O 	0.11283 0.65267 0.54596 -0.34000
C 	C 	0.86873 0.48197 0.64021 0.14300
C 	C 	0.93143 0.52607 0.63017 -0.22100
C 	C 	0.99253 0.57177 0.63991 0.11700
H 	H 	0.03423 0.60257 0.63407 -0.03000
C 	C 	0.98933 0.56997 0.65822 -0.18900
H 	H 	0.02943 0.59857 0.66487 0.08400
C 	C 	0.92623 0.52547 0.66653 0.10300
H 	H 	0.92453 0.52557 0.67887 -0.02900
C 	C 	0.93643 0.52607 0.61042 0.45800
C 	C 	0.06323 0.60117 0.53763 0.41100
C 	C 	0.06793 0.59597 0.51737 -0.17600
C 	C 	0.13133 0.61427 0.50781 0.12500
C 	C 	0.92753 0.40367 0.51859 0.11500
H 	H 	0.92633 0.40477 0.53097 -0.05500
C 	C 	0.99023 0.42037 0.51064 -0.18800
H 	H 	0.02983 0.43017 0.51737 0.08100
C 	C 	0.99243 0.42187 0.49274 0.10500
H 	H 	0.03483 0.43517 0.48697 0.00000
Ag	Ag	0.25956 0.69199 0.00547 0.43300
Ag	Ag	0.30724 0.73899 0.85749 0.42100
Ca	Ca	0.13250 0.76304 0.90621 1.47700
S 	S 	0.24186 0.70043 0.96130 -0.37400
S 	S 	0.20949 0.57420 0.01944 -0.31200
N 	N 	0.18450 0.71870 0.99093 -0.22700
N 	N 	0.28070 0.81550 0.84314 -0.22700
O 	O 	0.10840 0.68970 0.93484 -0.65600
O 	O 	0.17400 0.80280 0.93689 -0.51600
O 	O 	0.10620 0.78080 0.87767 -0.53500
O 	O 	0.01400 0.79350 0.87929 -0.34000
C 	C 	0.18470 0.72010 0.97354 0.14300
C 	C 	0.14060 0.73870 0.96350 -0.22100
C 	C 	0.09490 0.75410 0.97324 0.11700
H 	H 	0.06410 0.76500 0.96740 -0.03000
C 	C 	0.09670 0.75270 0.99155 -0.18900
H 	H 	0.06810 0.76420 0.99820 0.08400
C 	C 	0.14120 0.73410 0.99986 0.10300
H 	H 	0.14110 0.73230 0.01220 -0.02900
C 	C 	0.14060 0.74370 0.94375 0.45800
C 	C 	0.06550 0.79540 0.87096 0.41100
C 	C 	0.07070 0.80530 0.85070 -0.17600
C 	C 	0.05240 0.85040 0.84114 0.12500
C 	C 	0.26300 0.85720 0.85192 0.11500
H 	H 	0.26190 0.85490 0.86430 -0.05500
C 	C 	0.24630 0.90320 0.84397 -0.18800
H 	H 	0.23650 0.93300 0.85070 0.08100
C 	C 	0.24480 0.90390 0.82607 0.10500
H 	H 	0.23150 0.93300 0.82030 0.00000
Ag	Ag	0.92623 0.02532 0.33880 0.43300
Ag	Ag	0.97391 0.07232 0.19083 0.42100
Ca	Ca	0.79917 0.09637 0.23954 1.47700
S 	S 	0.90853 0.03376 0.29463 -0.37400
S 	S 	0.87616 0.90753 0.35277 -0.31200
N 	N 	0.85117 0.05203 0.32426 -0.22700
N 	N 	0.94737 0.14883 0.17647 -0.22700
O 	O 	0.77507 0.02303 0.26817 -0.65600
O 	O 	0.84067 0.13613 0.27022 -0.51600
O 	O 	0.77287 0.11413 0.21100 -0.53500
O 	O 	0.68067 0.12683 0.21262 -0.34000
C 	C 	0.85137 0.05343 0.30687 0.14300
C 	C 	0.80727 0.07203 0.29683 -0.22100
C 	C 	0.76157 0.08743 0.30657 0.11700
H 	H 	0.73077 0.09833 0.30073 -0.03000
C 	C 	0.76337 0.08603 0.32488 -0.18900
H 	H 	0.73477 0.09753 0.33153 0.08400
C 	C 	0.80787 0.06743 0.33319 0.10300
H 	H 	0.80777 0.06563 0.34553 -0.02800
C 	C 	0.80727 0.07703 0.27708 0.45800
C 	C 	0.73217 0.12873 0.20429 0.41100
C 	C 	0.73737 0.13863 0.18403 -0.17600
C 	C 	0.71907 0.18373 0.17447 0.12500
C 	C 	0.92967 0.19053 0.18525 0.11500
H 	H 	0.92857 0.18823 0.19763 -0.05500
C 	C 	0.91297 0.23653 0.17730 -0.18800
H 	H 	0.90317 0.26633 0.18403 0.08100
C 	C 	0.91147 0.23723 0.15940 0.10500
H 	H 	0.89817 0.26633 0.15363 0.00000
Ag	Ag	0.59289 0.35866 0.67213 0.43300
Ag	Ag	0.64057 0.40566 0.52416 0.42100
Ca	Ca	0.46583 0.42971 0.57288 1.47700
S 	S 	0.57519 0.36710 0.62797 -0.37400
S 	S 	0.54282 0.24087 0.68611 -0.31200
N 	N 	0.51783 0.38537 0.65760 -0.22700
N 	N 	0.61403 0.48217 0.50981 -0.22600
O 	O 	0.44173 0.35637 0.60151 -0.65600
O 	O 	0.50733 0.46947 0.60356 -0.51600
O 	O 	0.43953 0.44747 0.54434 -0.53500
O 	O 	0.34733 0.46017 0.54596 -0.34000
C 	C 	0.51803 0.38677 0.64021 0.14300
C 	C 	0.47393 0.40537 0.63017 -0.22100
C 	C 	0.42823 0.42077 0.63991 0.11700
H 	H 	0.39743 0.43167 0.63407 -0.03000
C 	C 	0.43003 0.41937 0.65822 -0.18900
H 	H 	0.40143 0.43087 0.66487 0.08400
C 	C 	0.47453 0.40077 0.66653 0.10300
H 	H 	0.47443 0.39897 0.67887 -0.02900
C 	C 	0.47393 0.41037 0.61042 0.45800
C 	C 	0.39883 0.46207 0.53763 0.41100
C 	C 	0.40403 0.47197 0.51737 -0.17600
C 	C 	0.38573 0.51707 0.50781 0.12500
C 	C 	0.59633 0.52387 0.51859 0.11500
H 	H 	0.59523 0.52157 0.53097 -0.05500
C 	C 	0.57963 0.56987 0.51064 -0.18800
H 	H 	0.56983 0.59967 0.51737 0.08100
C 	C 	0.57813 0.57057 0.49274 0.10500
H 	H 	0.56483 0.59967 0.48697 0.00000
Ag	Ag	0.30801 0.56757 0.00547 0.43300
Ag	Ag	0.26101 0.56825 0.85749 0.42100
Ca	Ca	0.23696 0.36946 0.90621 1.47700
S 	S 	0.29957 0.54143 0.96130 -0.37400
S 	S 	0.42580 0.63529 0.01944 -0.31200
N 	N 	0.28130 0.46580 0.99093 -0.22700
N 	N 	0.18450 0.46520 0.84314 -0.22700
O 	O 	0.31030 0.41870 0.93484 -0.65600
O 	O 	0.19720 0.37120 0.93689 -0.51600
O 	O 	0.21920 0.32540 0.87767 -0.53500
O 	O 	0.20650 0.22050 0.87929 -0.34000
C 	C 	0.27990 0.46460 0.97354 0.14300
C 	C 	0.26130 0.40190 0.96350 -0.22100
C 	C 	0.24590 0.34080 0.97324 0.11700
H 	H 	0.23500 0.29910 0.96740 -0.03000
C 	C 	0.24730 0.34400 0.99155 -0.18900
H 	H 	0.23580 0.30390 0.99820 0.08400
C 	C 	0.26590 0.40710 0.99986 0.10300
H 	H 	0.26770 0.40880 0.01220 -0.02900
C 	C 	0.25630 0.39690 0.94375 0.45800
C 	C 	0.20460 0.27010 0.87096 0.41100
C 	C 	0.19470 0.26540 0.85070 -0.17600
C 	C 	0.14960 0.20200 0.84114 0.12500
C 	C 	0.14280 0.40580 0.85192 0.11500
H 	H 	0.14510 0.40700 0.86430 -0.05500
C 	C 	0.09680 0.34310 0.84397 -0.18800
H 	H 	0.06700 0.30350 0.85070 0.08100
C 	C 	0.09610 0.34090 0.82607 0.10500
H 	H 	0.06700 0.29850 0.82030 0.00000
Ag	Ag	0.97468 0.90090 0.33880 0.43300
Ag	Ag	0.92768 0.90158 0.19083 0.42100
Ca	Ca	0.90363 0.70279 0.23954 1.47700
S 	S 	0.96624 0.87476 0.29463 -0.37400
S 	S 	0.09247 0.96862 0.35277 -0.31300
N 	N 	0.94797 0.79913 0.32426 -0.22700
N 	N 	0.85117 0.79853 0.17647 -0.22700
O 	O 	0.97697 0.75203 0.26817 -0.65600
O 	O 	0.86387 0.70453 0.27022 -0.51600
O 	O 	0.88587 0.65873 0.21100 -0.53500
O 	O 	0.87317 0.55383 0.21262 -0.34000
C 	C 	0.94657 0.79793 0.30687 0.14300
C 	C 	0.92797 0.73523 0.29683 -0.22100
C 	C 	0.91257 0.67413 0.30657 0.11700
H 	H 	0.90167 0.63243 0.30073 -0.03000
C 	C 	0.91397 0.67733 0.32488 -0.18900
H 	H 	0.90247 0.63723 0.33153 0.08400
C 	C 	0.93257 0.74043 0.33319 0.10300
H 	H 	0.93437 0.74213 0.34553 -0.02900
C 	C 	0.92297 0.73023 0.27708 0.45800
C 	C 	0.87127 0.60343 0.20429 0.41100
C 	C 	0.86137 0.59873 0.18403 -0.17600
C 	C 	0.81627 0.53533 0.17447 0.12500
C 	C 	0.80947 0.73913 0.18525 0.11500
H 	H 	0.81177 0.74033 0.19763 -0.05500
C 	C 	0.76347 0.67643 0.17730 -0.18800
H 	H 	0.73367 0.63683 0.18403 0.08100
C 	C 	0.76277 0.67423 0.15940 0.10500
H 	H 	0.73367 0.63183 0.15363 0.00000
Ag	Ag	0.64134 0.23424 0.67213 0.43300
Ag	Ag	0.59434 0.23492 0.52416 0.42100
Ca	Ca	0.57029 0.03613 0.57288 1.47700
S 	S 	0.63290 0.20810 0.62797 -0.37400
S 	S 	0.75913 0.30196 0.68611 -0.31200
N 	N 	0.61463 0.13247 0.65760 -0.22700
N 	N 	0.51783 0.13187 0.50981 -0.22700
O 	O 	0.64363 0.08537 0.60151 -0.65600
O 	O 	0.53053 0.03787 0.60356 -0.51600
O 	O 	0.55253 0.99207 0.54434 -0.53500
O 	O 	0.53983 0.88717 0.54596 -0.34000
C 	C 	0.61323 0.13127 0.64021 0.14300
C 	C 	0.59463 0.06857 0.63017 -0.22100
C 	C 	0.57923 0.00747 0.63991 0.11700
H 	H 	0.56833 0.96577 0.63407 -0.03000
C 	C 	0.58063 0.01067 0.65822 -0.18900
H 	H 	0.56913 0.97057 0.66487 0.08400
C 	C 	0.59923 0.07377 0.66653 0.10300
H 	H 	0.60103 0.07547 0.67887 -0.02900
C 	C 	0.58963 0.06357 0.61042 0.45800
C 	C 	0.53793 0.93677 0.53763 0.41100
C 	C 	0.52803 0.93207 0.51737 -0.17600
C 	C 	0.48293 0.86867 0.50781 0.12500
C 	C 	0.47613 0.07247 0.51859 0.11500
H 	H 	0.47843 0.07367 0.53097 -0.05500
C 	C 	0.43013 0.00977 0.51064 -0.18800
H 	H 	0.40033 0.97017 0.51737 0.08100
C 	C 	0.42943 0.00757 0.49274 0.10500
H 	H 	0.40033 0.96517 0.48697 0.00000
Ag	Ag	0.74044 0.43243 0.49453 0.43300
Ag	Ag	0.69276 0.43175 0.64251 0.42100
Ca	Ca	0.86750 0.63054 0.59379 1.47700
S 	S 	0.75814 0.45857 0.53870 -0.37400
S 	S 	0.79051 0.36471 0.48056 -0.31200
N 	N 	0.81550 0.53420 0.50907 -0.22700
N 	N 	0.71930 0.53480 0.65686 -0.22700
O 	O 	0.89160 0.58130 0.56516 -0.65600
O 	O 	0.82600 0.62880 0.56311 -0.51600
O 	O 	0.89380 0.67460 0.62233 -0.53500
O 	O 	0.98600 0.77950 0.62071 -0.34000
C 	C 	0.81530 0.53540 0.52646 0.14300
C 	C 	0.85940 0.59810 0.53650 -0.22100
C 	C 	0.90510 0.65920 0.52676 0.11700
H 	H 	0.93590 0.70090 0.53260 -0.03000
C 	C 	0.90330 0.65600 0.50845 -0.18900
H 	H 	0.93190 0.69610 0.50180 0.08400
C 	C 	0.85880 0.59290 0.50014 0.10300
H 	H 	0.85890 0.59120 0.48780 -0.02900
C 	C 	0.85940 0.60310 0.55625 0.45800
C 	C 	0.93450 0.72990 0.62904 0.41100
C 	C 	0.92930 0.73460 0.64930 -0.17600
C 	C 	0.94760 0.79800 0.65886 0.12500
C 	C 	0.73700 0.59420 0.64808 0.11500
H 	H 	0.73810 0.59300 0.63570 -0.05500
C 	C 	0.75370 0.65690 0.65603 -0.18800
H 	H 	0.76350 0.69650 0.64930 0.08100
C 	C 	0.75520 0.65910 0.67393 0.10500
H 	H 	0.76850 0.70150 0.67970 0.00000
Ag	Ag	0.40711 0.76576 0.82787 0.43300
Ag	Ag	0.35943 0.76508 0.97584 0.42100
Ca	Ca	0.53417 0.96387 0.92712 1.47700
S 	S 	0.42481 0.79190 0.87203 -0.37400
S 	S 	0.45718 0.69804 0.81389 -0.31200
N 	N 	0.48217 0.86753 0.84240 -0.22700
N 	N 	0.38597 0.86813 0.99019 -0.22700
O 	O 	0.55827 0.91463 0.89849 -0.65600
O 	O 	0.49267 0.96213 0.89644 -0.51600
O 	O 	0.56047 0.00793 0.95566 -0.53500
O 	O 	0.65267 0.11283 0.95404 -0.34000
C 	C 	0.48197 0.86873 0.85979 0.14300
C 	C 	0.52607 0.93143 0.86983 -0.22100
C 	C 	0.57177 0.99253 0.86009 0.11700
H 	H 	0.60257 0.03423 0.86593 -0.03000
C 	C 	0.56997 0.98933 0.84178 -0.18900
H 	H 	0.59857 0.02943 0.83513 0.08400
C 	C 	0.52547 0.92623 0.83347 0.10300
H 	H 	0.52557 0.92453 0.82113 -0.02900
C 	C 	0.52607 0.93643 0.88958 0.45800
C 	C 	0.60117 0.06323 0.96237 0.41100
C 	C 	0.59597 0.06793 0.98263 -0.17600
C 	C 	0.61427 0.13133 0.99219 0.12500
C 	C 	0.40367 0.92753 0.98141 0.11500
H 	H 	0.40477 0.92633 0.96903 -0.05500
C 	C 	0.42037 0.99023 0.98936 -0.18800
H 	H 	0.43017 0.02983 0.98263 0.08100
C 	C 	0.42187 0.99243 0.00726 0.10500
H 	H 	0.43517 0.03483 0.01303 0.00000
Ag	Ag	0.07377 0.09910 0.16120 0.43300
Ag	Ag	0.02609 0.09842 0.30917 0.42100
Ca	Ca	0.20083 0.29721 0.26046 1.47700
S 	S 	0.09147 0.12524 0.20537 -0.37400
S 	S 	0.12384 0.03138 0.14723 -0.31200
N 	N 	0.14883 0.20087 0.17574 -0.22700
N 	N 	0.05263 0.20147 0.32353 -0.22700
O 	O 	0.22493 0.24797 0.23183 -0.65600
O 	O 	0.15933 0.29547 0.22978 -0.51600
O 	O 	0.22713 0.34127 0.28900 -0.53500
O 	O 	0.31933 0.44617 0.28738 -0.34000
C 	C 	0.14863 0.20207 0.19313 0.14300
C 	C 	0.19273 0.26477 0.20317 -0.22100
C 	C 	0.23843 0.32587 0.19343 0.11700
H 	H 	0.26923 0.36757 0.19927 -0.03000
C 	C 	0.23663 0.32267 0.17512 -0.18900
H 	H 	0.26523 0.36277 0.16847 0.08400
C 	C 	0.19213 0.25957 0.16681 0.10300
H 	H 	0.19223 0.25787 0.15447 -0.02900
C 	C 	0.19273 0.26977 0.22292 0.45800
C 	C 	0.26783 0.39657 0.29571 0.41100
C 	C 	0.26263 0.40127 0.31597 -0.17600
C 	C 	0.28093 0.46467 0.32553 0.12500
C 	C 	0.07033 0.26087 0.31475 0.11500
H 	H 	0.07143 0.25967 0.30237 -0.05500
C 	C 	0.08703 0.32357 0.32270 -0.18800
H 	H 	0.09683 0.36317 0.31597 0.08100
C 	C 	0.08853 0.32577 0.34060 0.10500
H 	H 	0.10183 0.36817 0.34637 0.00000
Ag	Ag	0.69199 0.25956 0.49453 0.43300
Ag	Ag	0.73899 0.30724 0.64251 0.42100
Ca	Ca	0.76304 0.13250 0.59379 1.47700
S 	S 	0.70043 0.24186 0.53870 -0.37400
S 	S 	0.57420 0.20949 0.48056 -0.31200
N 	N 	0.71870 0.18450 0.50907 -0.22700
N 	N 	0.81550 0.28070 0.65686 -0.22700
O 	O 	0.68970 0.10840 0.56516 -0.65600
O 	O 	0.80280 0.17400 0.56311 -0.51600
O 	O 	0.78080 0.10620 0.62233 -0.53500
O 	O 	0.79350 0.01400 0.62071 -0.34000
C 	C 	0.72010 0.18470 0.52646 0.14300
C 	C 	0.73870 0.14060 0.53650 -0.22100
C 	C 	0.75410 0.09490 0.52676 0.11700
H 	H 	0.76500 0.06410 0.53260 -0.03000
C 	C 	0.75270 0.09670 0.50845 -0.18900
H 	H 	0.76420 0.06810 0.50180 0.08400
C 	C 	0.73410 0.14120 0.50014 0.10300
H 	H 	0.73230 0.14110 0.48780 -0.02900
C 	C 	0.74370 0.14060 0.55625 0.45800
C 	C 	0.79540 0.06550 0.62904 0.41100
C 	C 	0.80530 0.07070 0.64930 -0.17600
C 	C 	0.85040 0.05240 0.65886 0.12500
C 	C 	0.85720 0.26300 0.64808 0.11500
H 	H 	0.85490 0.26190 0.63570 -0.05500
C 	C 	0.90320 0.24630 0.65603 -0.18800
H 	H 	0.93300 0.23650 0.64930 0.08100
C 	C 	0.90390 0.24480 0.67393 0.10500
H 	H 	0.93300 0.23150 0.67970 0.00000
Ag	Ag	0.35866 0.59289 0.82787 0.43300
Ag	Ag	0.40566 0.64057 0.97584 0.42100
Ca	Ca	0.42971 0.46583 0.92712 1.47700
S 	S 	0.36710 0.57519 0.87203 -0.37400
S 	S 	0.24087 0.54282 0.81389 -0.31200
N 	N 	0.38537 0.51783 0.84240 -0.22700
N 	N 	0.48217 0.61403 0.99019 -0.22600
O 	O 	0.35637 0.44173 0.89849 -0.65600
O 	O 	0.46947 0.50733 0.89644 -0.51600
O 	O 	0.44747 0.43953 0.95566 -0.53500
O 	O 	0.46017 0.34733 0.95404 -0.34000
C 	C 	0.38677 0.51803 0.85979 0.14300
C 	C 	0.40537 0.47393 0.86983 -0.22100
C 	C 	0.42077 0.42823 0.86009 0.11700
H 	H 	0.43167 0.39743 0.86593 -0.03000
C 	C 	0.41937 0.43003 0.84178 -0.18900
H 	H 	0.43087 0.40143 0.83513 0.08400
C 	C 	0.40077 0.47453 0.83347 0.10300
H 	H 	0.39897 0.47443 0.82113 -0.02900
C 	C 	0.41037 0.47393 0.88958 0.45800
C 	C 	0.46207 0.39883 0.96237 0.41100
C 	C 	0.47197 0.40403 0.98263 -0.17600
C 	C 	0.51707 0.38573 0.99219 0.12500
C 	C 	0.52387 0.59633 0.98141 0.11500
H 	H 	0.52157 0.59523 0.96903 -0.05500
C 	C 	0.56987 0.57963 0.98936 -0.18800
H 	H 	0.59967 0.56983 0.98263 0.08100
C 	C 	0.57057 0.57813 0.00726 0.10500
H 	H 	0.59967 0.56483 0.01303 0.00000
Ag	Ag	0.02532 0.92623 0.16120 0.43300
Ag	Ag	0.07232 0.97391 0.30917 0.42100
Ca	Ca	0.09637 0.79917 0.26046 1.47700
S 	S 	0.03376 0.90853 0.20537 -0.37400
S 	S 	0.90753 0.87616 0.14723 -0.31200
N 	N 	0.05203 0.85117 0.17574 -0.22700
N 	N 	0.14883 0.94737 0.32353 -0.22700
O 	O 	0.02303 0.77507 0.23183 -0.65600
O 	O 	0.13613 0.84067 0.22978 -0.51600
O 	O 	0.11413 0.77287 0.28900 -0.53500
O 	O 	0.12683 0.68067 0.28738 -0.34000
C 	C 	0.05343 0.85137 0.19313 0.14300
C 	C 	0.07203 0.80727 0.20317 -0.22100
C 	C 	0.08743 0.76157 0.19343 0.11700
H 	H 	0.09833 0.73077 0.19927 -0.03000
C 	C 	0.08603 0.76337 0.17512 -0.18900
H 	H 	0.09753 0.73477 0.16847 0.08400
C 	C 	0.06743 0.80787 0.16681 0.10300
H 	H 	0.06563 0.80777 0.15447 -0.02800
C 	C 	0.07703 0.80727 0.22292 0.45800
C 	C 	0.12873 0.73217 0.29571 0.41100
C 	C 	0.13863 0.73737 0.31597 -0.17600
C 	C 	0.18373 0.71907 0.32553 0.12500
C 	C 	0.19053 0.92967 0.31475 0.11500
H 	H 	0.18823 0.92857 0.30237 -0.05500
C 	C 	0.23653 0.91297 0.32270 -0.18800
H 	H 	0.26633 0.90317 0.31597 0.08100
C 	C 	0.23723 0.91147 0.34060 0.10500
H 	H 	0.26633 0.89817 0.34637 0.00000
Ag	Ag	0.56757 0.30801 0.49453 0.43300
Ag	Ag	0.56825 0.26101 0.64251 0.42100
Ca	Ca	0.36946 0.23696 0.59379 1.47700
S 	S 	0.54143 0.29957 0.53870 -0.37400
S 	S 	0.63529 0.42580 0.48056 -0.31200
N 	N 	0.46580 0.28130 0.50907 -0.22700
N 	N 	0.46520 0.18450 0.65686 -0.22700
O 	O 	0.41870 0.31030 0.56516 -0.65600
O 	O 	0.37120 0.19720 0.56311 -0.51600
O 	O 	0.32540 0.21920 0.62233 -0.53500
O 	O 	0.22050 0.20650 0.62071 -0.34000
C 	C 	0.46460 0.27990 0.52646 0.14300
C 	C 	0.40190 0.26130 0.53650 -0.22100
C 	C 	0.34080 0.24590 0.52676 0.11700
H 	H 	0.29910 0.23500 0.53260 -0.03000
C 	C 	0.34400 0.24730 0.50845 -0.18900
H 	H 	0.30390 0.23580 0.50180 0.08400
C 	C 	0.40710 0.26590 0.50014 0.10300
H 	H 	0.40880 0.26770 0.48780 -0.02900
C 	C 	0.39690 0.25630 0.55625 0.45800
C 	C 	0.27010 0.20460 0.62904 0.41100
C 	C 	0.26540 0.19470 0.64930 -0.17600
C 	C 	0.20200 0.14960 0.65886 0.12500
C 	C 	0.40580 0.14280 0.64808 0.11500
H 	H 	0.40700 0.14510 0.63570 -0.05500
C 	C 	0.34310 0.09680 0.65603 -0.18800
H 	H 	0.30350 0.06700 0.64930 0.08100
C 	C 	0.34090 0.09610 0.67393 0.10500
H 	H 	0.29850 0.06700 0.67970 0.00000
Ag	Ag	0.23424 0.64134 0.82787 0.43300
Ag	Ag	0.23492 0.59434 0.97584 0.42100
Ca	Ca	0.03613 0.57029 0.92712 1.47700
S 	S 	0.20810 0.63290 0.87203 -0.37400
S 	S 	0.30196 0.75913 0.81389 -0.31200
N 	N 	0.13247 0.61463 0.84240 -0.22700
N 	N 	0.13187 0.51783 0.99019 -0.22700
O 	O 	0.08537 0.64363 0.89849 -0.65600
O 	O 	0.03787 0.53053 0.89644 -0.51600
O 	O 	0.99207 0.55253 0.95566 -0.53500
O 	O 	0.88717 0.53983 0.95404 -0.34000
C 	C 	0.13127 0.61323 0.85979 0.14300
C 	C 	0.06857 0.59463 0.86983 -0.22100
C 	C 	0.00747 0.57923 0.86009 0.11700
H 	H 	0.96577 0.56833 0.86593 -0.03000
C 	C 	0.01067 0.58063 0.84178 -0.18900
H 	H 	0.97057 0.56913 0.83513 0.08400
C 	C 	0.07377 0.59923 0.83347 0.10300
H 	H 	0.07547 0.60103 0.82113 -0.02900
C 	C 	0.06357 0.58963 0.88958 0.45800
C 	C 	0.93677 0.53793 0.96237 0.41100
C 	C 	0.93207 0.52803 0.98263 -0.17600
C 	C 	0.86867 0.48293 0.99219 0.12500
C 	C 	0.07247 0.47613 0.98141 0.11500
H 	H 	0.07367 0.47843 0.96903 -0.05500
C 	C 	0.00977 0.43013 0.98936 -0.18800
H 	H 	0.97017 0.40033 0.98263 0.08100
C 	C 	0.00757 0.42943 0.00726 0.10500
H 	H 	0.96517 0.40033 0.01303 0.00000
Ag	Ag	0.90090 0.97468 0.16120 0.43300
Ag	Ag	0.90158 0.92768 0.30917 0.42100
Ca	Ca	0.70279 0.90363 0.26046 1.47700
S 	S 	0.87476 0.96624 0.20537 -0.37400
S 	S 	0.96862 0.09247 0.14723 -0.31300
N 	N 	0.79913 0.94797 0.17574 -0.22700
N 	N 	0.79853 0.85117 0.32353 -0.22700
O 	O 	0.75203 0.97697 0.23183 -0.65600
O 	O 	0.70453 0.86387 0.22978 -0.51600
O 	O 	0.65873 0.88587 0.28900 -0.53500
O 	O 	0.55383 0.87317 0.28738 -0.34000
C 	C 	0.79793 0.94657 0.19313 0.14300
C 	C 	0.73523 0.92797 0.20317 -0.22100
C 	C 	0.67413 0.91257 0.19343 0.11700
H 	H 	0.63243 0.90167 0.19927 -0.03000
C 	C 	0.67733 0.91397 0.17512 -0.18900
H 	H 	0.63723 0.90247 0.16847 0.08400
C 	C 	0.74043 0.93257 0.16681 0.10300
H 	H 	0.74213 0.93437 0.15447 -0.02900
C 	C 	0.73023 0.92297 0.22292 0.45800
C 	C 	0.60343 0.87127 0.29571 0.41100
C 	C 	0.59873 0.86137 0.31597 -0.17600
C 	C 	0.53533 0.81627 0.32553 0.12500
C 	C 	0.73913 0.80947 0.31475 0.11500
H 	H 	0.74033 0.81177 0.30237 -0.05500
C 	C 	0.67643 0.76347 0.32270 -0.18800
H 	H 	0.63683 0.73367 0.31597 0.08100
C 	C 	0.67423 0.76277 0.34060 0.10500
H 	H 	0.63183 0.73367 0.34637 0.00000
Ag	Ag	0.56757 0.25956 0.99453 0.43300
Ag	Ag	0.56825 0.30724 0.14251 0.42100
Ca	Ca	0.36946 0.13250 0.09379 1.47700
S 	S 	0.54143 0.24186 0.03870 -0.37400
S 	S 	0.63529 0.20949 0.98056 -0.31200
N 	N 	0.46580 0.18450 0.00907 -0.22700
N 	N 	0.46520 0.28070 0.15686 -0.22700
O 	O 	0.41870 0.10840 0.06516 -0.65600
O 	O 	0.37120 0.17400 0.06311 -0.51600
O 	O 	0.32540 0.10620 0.12233 -0.53500
O 	O 	0.22050 0.01400 0.12071 -0.34000
C 	C 	0.46460 0.18470 0.02646 0.14300
C 	C 	0.40190 0.14060 0.03650 -0.22100
C 	C 	0.34080 0.09490 0.02676 0.11700
H 	H 	0.29910 0.06410 0.03260 -0.03000
C 	C 	0.34400 0.09670 0.00845 -0.18900
H 	H 	0.30390 0.06810 0.00180 0.08400
C 	C 	0.40710 0.14120 0.00014 0.10300
H 	H 	0.40880 0.14110 0.98780 -0.02900
C 	C 	0.39690 0.14060 0.05625 0.45800
C 	C 	0.27010 0.06550 0.12904 0.41100
C 	C 	0.26540 0.07070 0.14930 -0.17600
C 	C 	0.20200 0.05240 0.15886 0.12500
C 	C 	0.40580 0.26300 0.14808 0.11500
H 	H 	0.40700 0.26190 0.13570 -0.05500
C 	C 	0.34310 0.24630 0.15603 -0.18800
H 	H 	0.30350 0.23650 0.14930 0.08100
C 	C 	0.34090 0.24480 0.17393 0.10500
H 	H 	0.29850 0.23150 0.17970 0.00000
Ag	Ag	0.23424 0.59289 0.32787 0.43300
Ag	Ag	0.23492 0.64057 0.47584 0.42100
Ca	Ca	0.03613 0.46583 0.42712 1.47700
S 	S 	0.20810 0.57519 0.37203 -0.37400
S 	S 	0.30196 0.54282 0.31389 -0.31200
N 	N 	0.13247 0.51783 0.34240 -0.22700
N 	N 	0.13187 0.61403 0.49019 -0.22700
O 	O 	0.08537 0.44173 0.39849 -0.65600
O 	O 	0.03787 0.50733 0.39644 -0.51600
O 	O 	0.99207 0.43953 0.45566 -0.53500
O 	O 	0.88717 0.34733 0.45404 -0.34000
C 	C 	0.13127 0.51803 0.35979 0.14300
C 	C 	0.06857 0.47393 0.36983 -0.22100
C 	C 	0.00747 0.42823 0.36009 0.11700
H 	H 	0.96577 0.39743 0.36593 -0.03000
C 	C 	0.01067 0.43003 0.34178 -0.18900
H 	H 	0.97057 0.40143 0.33513 0.08400
C 	C 	0.07377 0.47453 0.33347 0.10300
H 	H 	0.07547 0.47443 0.32113 -0.02900
C 	C 	0.06357 0.47393 0.38958 0.45800
C 	C 	0.93677 0.39883 0.46237 0.41100
C 	C 	0.93207 0.40403 0.48263 -0.17600
C 	C 	0.86867 0.38573 0.49219 0.12500
C 	C 	0.07247 0.59633 0.48141 0.11500
H 	H 	0.07367 0.59523 0.46903 -0.05500
C 	C 	0.00977 0.57963 0.48936 -0.18800
H 	H 	0.97017 0.56983 0.48263 0.08100
C 	C 	0.00757 0.57813 0.50726 0.10500
H 	H 	0.96517 0.56483 0.51303 0.00000
Ag	Ag	0.90090 0.92623 0.66120 0.43300
Ag	Ag	0.90158 0.97391 0.80917 0.42100
Ca	Ca	0.70279 0.79917 0.76046 1.47700
S 	S 	0.87476 0.90853 0.70537 -0.37400
S 	S 	0.96862 0.87616 0.64723 -0.31200
N 	N 	0.79913 0.85117 0.67574 -0.22700
N 	N 	0.79853 0.94737 0.82353 -0.22700
O 	O 	0.75203 0.77507 0.73183 -0.65600
O 	O 	0.70453 0.84067 0.72978 -0.51600
O 	O 	0.65873 0.77287 0.78900 -0.53500
O 	O 	0.55383 0.68067 0.78738 -0.34000
C 	C 	0.79793 0.85137 0.69313 0.14300
C 	C 	0.73523 0.80727 0.70317 -0.22100
C 	C 	0.67413 0.76157 0.69343 0.11700
H 	H 	0.63243 0.73077 0.69927 -0.03000
C 	C 	0.67733 0.76337 0.67512 -0.18900
H 	H 	0.63723 0.73477 0.66847 0.08400
C 	C 	0.74043 0.80787 0.66681 0.10300
H 	H 	0.74213 0.80777 0.65447 -0.02900
C 	C 	0.73023 0.80727 0.72292 0.45800
C 	C 	0.60343 0.73217 0.79571 0.41100
C 	C 	0.59873 0.73737 0.81597 -0.17600
C 	C 	0.53533 0.71907 0.82553 0.12500
C 	C 	0.73913 0.92967 0.81475 0.11500
H 	H 	0.74033 0.92857 0.80237 -0.05500
C 	C 	0.67643 0.91297 0.82270 -0.18800
H 	H 	0.63683 0.90317 0.81597 0.08100
C 	C 	0.67423 0.91147 0.84060 0.10500
H 	H 	0.63183 0.89817 0.84637 0.00000
Ag	Ag	0.74044 0.30801 0.99453 0.43300
Ag	Ag	0.69276 0.26101 0.14251 0.42100
Ca	Ca	0.86750 0.23696 0.09379 1.47700
S 	S 	0.75814 0.29957 0.03870 -0.37400
S 	S 	0.79051 0.42580 0.98056 -0.31200
N 	N 	0.81550 0.28130 0.00907 -0.22700
N 	N 	0.71930 0.18450 0.15686 -0.22700
O 	O 	0.89160 0.31030 0.06516 -0.65600
O 	O 	0.82600 0.19720 0.06311 -0.51600
O 	O 	0.89380 0.21920 0.12233 -0.53500
O 	O 	0.98600 0.20650 0.12071 -0.34000
C 	C 	0.81530 0.27990 0.02646 0.14300
C 	C 	0.85940 0.26130 0.03650 -0.22100
C 	C 	0.90510 0.24590 0.02676 0.11700
H 	H 	0.93590 0.23500 0.03260 -0.03000
C 	C 	0.90330 0.24730 0.00845 -0.18900
H 	H 	0.93190 0.23580 0.00180 0.08400
C 	C 	0.85880 0.26590 0.00014 0.10300
H 	H 	0.85890 0.26770 0.98780 -0.02900
C 	C 	0.85940 0.25630 0.05625 0.45800
C 	C 	0.93450 0.20460 0.12904 0.41100
C 	C 	0.92930 0.19470 0.14930 -0.17600
C 	C 	0.94760 0.14960 0.15886 0.12500
C 	C 	0.73700 0.14280 0.14808 0.11500
H 	H 	0.73810 0.14510 0.13570 -0.05500
C 	C 	0.75370 0.09680 0.15603 -0.18800
H 	H 	0.76350 0.06700 0.14930 0.08100
C 	C 	0.75520 0.09610 0.17393 0.10500
H 	H 	0.76850 0.06700 0.17970 0.00000
Ag	Ag	0.40711 0.64134 0.32787 0.43300
Ag	Ag	0.35943 0.59434 0.47584 0.42100
Ca	Ca	0.53417 0.57029 0.42712 1.47700
S 	S 	0.42481 0.63290 0.37203 -0.37400
S 	S 	0.45718 0.75913 0.31389 -0.31200
N 	N 	0.48217 0.61463 0.34240 -0.22700
N 	N 	0.38597 0.51783 0.49019 -0.22600
O 	O 	0.55827 0.64363 0.39849 -0.65600
O 	O 	0.49267 0.53053 0.39644 -0.51600
O 	O 	0.56047 0.55253 0.45566 -0.53500
O 	O 	0.65267 0.53983 0.45404 -0.34000
C 	C 	0.48197 0.61323 0.35979 0.14300
C 	C 	0.52607 0.59463 0.36983 -0.22100
C 	C 	0.57177 0.57923 0.36009 0.11700
H 	H 	0.60257 0.56833 0.36593 -0.03000
C 	C 	0.56997 0.58063 0.34178 -0.18900
H 	H 	0.59857 0.56913 0.33513 0.08400
C 	C 	0.52547 0.59923 0.33347 0.10300
H 	H 	0.52557 0.60103 0.32113 -0.02900
C 	C 	0.52607 0.58963 0.38958 0.45800
C 	C 	0.60117 0.53793 0.46237 0.41100
C 	C 	0.59597 0.52803 0.48263 -0.17600
C 	C 	0.61427 0.48293 0.49219 0.12500
C 	C 	0.40367 0.47613 0.48141 0.11500
H 	H 	0.40477 0.47843 0.46903 -0.05500
C 	C 	0.42037 0.43013 0.48936 -0.18800
H 	H 	0.43017 0.40033 0.48263 0.08100
C 	C 	0.42187 0.42943 0.50726 0.10500
H 	H 	0.43517 0.40033 0.51303 0.00000
Ag	Ag	0.07377 0.97468 0.66120 0.43300
Ag	Ag	0.02609 0.92768 0.80917 0.42100
Ca	Ca	0.20083 0.90363 0.76046 1.47700
S 	S 	0.09147 0.96624 0.70537 -0.37400
S 	S 	0.12384 0.09247 0.64723 -0.31200
N 	N 	0.14883 0.94797 0.67574 -0.22700
N 	N 	0.05263 0.85117 0.82353 -0.22700
O 	O 	0.22493 0.97697 0.73183 -0.65600
O 	O 	0.15933 0.86387 0.72978 -0.51600
O 	O 	0.22713 0.88587 0.78900 -0.53500
O 	O 	0.31933 0.87317 0.78738 -0.34000
C 	C 	0.14863 0.94657 0.69313 0.14300
C 	C 	0.19273 0.92797 0.70317 -0.22100
C 	C 	0.23843 0.91257 0.69343 0.11700
H 	H 	0.26923 0.90167 0.69927 -0.03000
C 	C 	0.23663 0.91397 0.67512 -0.18900
H 	H 	0.26523 0.90247 0.66847 0.08400
C 	C 	0.19213 0.93257 0.66681 0.10300
H 	H 	0.19223 0.93437 0.65447 -0.02800
C 	C 	0.19273 0.92297 0.72292 0.45800
C 	C 	0.26783 0.87127 0.79571 0.41100
C 	C 	0.26263 0.86137 0.81597 -0.17600
C 	C 	0.28093 0.81627 0.82553 0.12500
C 	C 	0.07033 0.80947 0.81475 0.11500
H 	H 	0.07143 0.81177 0.80237 -0.05500
C 	C 	0.08703 0.76347 0.82270 -0.18800
H 	H 	0.09683 0.73367 0.81597 0.08100
C 	C 	0.08853 0.76277 0.84060 0.10500
H 	H 	0.10183 0.73367 0.84637 0.00000
Ag	Ag	0.69199 0.43243 0.99453 0.43300
Ag	Ag	0.73899 0.43175 0.14251 0.42100
Ca	Ca	0.76304 0.63054 0.09379 1.47700
S 	S 	0.70043 0.45857 0.03870 -0.37400
S 	S 	0.57420 0.36471 0.98056 -0.31200
N 	N 	0.71870 0.53420 0.00907 -0.22700
N 	N 	0.81550 0.53480 0.15686 -0.22700
O 	O 	0.68970 0.58130 0.06516 -0.65600
O 	O 	0.80280 0.62880 0.06311 -0.51600
O 	O 	0.78080 0.67460 0.12233 -0.53500
O 	O 	0.79350 0.77950 0.12071 -0.34000
C 	C 	0.72010 0.53540 0.02646 0.14300
C 	C 	0.73870 0.59810 0.03650 -0.22100
C 	C 	0.75410 0.65920 0.02676 0.11700
H 	H 	0.76500 0.70090 0.03260 -0.03000
C 	C 	0.75270 0.65600 0.00845 -0.18900
H 	H 	0.76420 0.69610 0.00180 0.08400
C 	C 	0.73410 0.59290 0.00014 0.10300
H 	H 	0.73230 0.59120 0.98780 -0.02900
C 	C 	0.74370 0.60310 0.05625 0.45800
C 	C 	0.79540 0.72990 0.12904 0.41100
C 	C 	0.80530 0.73460 0.14930 -0.17600
C 	C 	0.85040 0.79800 0.15886 0.12500
C 	C 	0.85720 0.59420 0.14808 0.11500
H 	H 	0.85490 0.59300 0.13570 -0.05500
C 	C 	0.90320 0.65690 0.15603 -0.18800
H 	H 	0.93300 0.69650 0.14930 0.08100
C 	C 	0.90390 0.65910 0.17393 0.10500
H 	H 	0.93300 0.70150 0.17970 0.00000
Ag	Ag	0.35866 0.76576 0.32787 0.43300
Ag	Ag	0.40566 0.76508 0.47584 0.42100
Ca	Ca	0.42971 0.96387 0.42712 1.47700
S 	S 	0.36710 0.79190 0.37203 -0.37400
S 	S 	0.24087 0.69804 0.31389 -0.31200
N 	N 	0.38537 0.86753 0.34240 -0.22700
N 	N 	0.48217 0.86813 0.49019 -0.22700
O 	O 	0.35637 0.91463 0.39849 -0.65600
O 	O 	0.46947 0.96213 0.39644 -0.51600
O 	O 	0.44747 0.00793 0.45566 -0.53500
O 	O 	0.46017 0.11283 0.45404 -0.34000
C 	C 	0.38677 0.86873 0.35979 0.14300
C 	C 	0.40537 0.93143 0.36983 -0.22100
C 	C 	0.42077 0.99253 0.36009 0.11700
H 	H 	0.43167 0.03423 0.36593 -0.03000
C 	C 	0.41937 0.98933 0.34178 -0.18900
H 	H 	0.43087 0.02943 0.33513 0.08400
C 	C 	0.40077 0.92623 0.33347 0.10300
H 	H 	0.39897 0.92453 0.32113 -0.02900
C 	C 	0.41037 0.93643 0.38958 0.45800
C 	C 	0.46207 0.06323 0.46237 0.41100
C 	C 	0.47197 0.06793 0.48263 -0.17600
C 	C 	0.51707 0.13133 0.49219 0.12500
C 	C 	0.52387 0.92753 0.48141 0.11500
H 	H 	0.52157 0.92633 0.46903 -0.05500
C 	C 	0.56987 0.99023 0.48936 -0.18800
H 	H 	0.59967 0.02983 0.48263 0.08100
C 	C 	0.57057 0.99243 0.50726 0.10500
H 	H 	0.59967 0.03483 0.51303 0.00000
Ag	Ag	0.02532 0.09910 0.66120 0.43300
Ag	Ag	0.07232 0.09842 0.80917 0.42100
Ca	Ca	0.09637 0.29721 0.76046 1.47700
S 	S 	0.03376 0.12524 0.70537 -0.37400
S 	S 	0.90753 0.03138 0.64723 -0.31300
N 	N 	0.05203 0.20087 0.67574 -0.22700
N 	N 	0.14883 0.20147 0.82353 -0.22700
O 	O 	0.02303 0.24797 0.73183 -0.65600
O 	O 	0.13613 0.29547 0.72978 -0.51600
O 	O 	0.11413 0.34127 0.78900 -0.53500
O 	O 	0.12683 0.44617 0.78738 -0.34000
C 	C 	0.05343 0.20207 0.69313 0.14300
C 	C 	0.07203 0.26477 0.70317 -0.22100
C 	C 	0.08743 0.32587 0.69343 0.11700
H 	H 	0.09833 0.36757 0.69927 -0.03000
C 	C 	0.08603 0.32267 0.67512 -0.18900
H 	H 	0.09753 0.36277 0.66847 0.08400
C 	C 	0.06743 0.25957 0.66681 0.10300
H 	H 	0.06563 0.25787 0.65447 -0.02900
C 	C 	0.07703 0.26977 0.72292 0.45800
C 	C 	0.12873 0.39657 0.79571 0.41100
C 	C 	0.13863 0.40127 0.81597 -0.17600
C 	C 	0.18373 0.46467 0.82553 0.12500
C 	C 	0.19053 0.26087 0.81475 0.11500
H 	H 	0.18823 0.25967 0.80237 -0.05500
C 	C 	0.23653 0.32357 0.82270 -0.18800
H 	H 	0.26633 0.36317 0.81597 0.08100
C 	C 	0.23723 0.32577 0.84060 0.10500
H 	H 	0.26633 0.36817 0.84637 0.00000
Ag	Ag	0.25956 0.56757 0.50547 0.43300
Ag	Ag	0.30724 0.56825 0.35749 0.42100
Ca	Ca	0.13250 0.36946 0.40621 1.47700
S 	S 	0.24186 0.54143 0.46130 -0.37400
S 	S 	0.20949 0.63529 0.51944 -0.31200
N 	N 	0.18450 0.46580 0.49093 -0.22700
N 	N 	0.28070 0.46520 0.34314 -0.22700
O 	O 	0.10840 0.41870 0.43484 -0.65600
O 	O 	0.17400 0.37120 0.43689 -0.51600
O 	O 	0.10620 0.32540 0.37767 -0.53500
O 	O 	0.01400 0.22050 0.37929 -0.34000
C 	C 	0.18470 0.46460 0.47354 0.14300
C 	C 	0.14060 0.40190 0.46350 -0.22100
C 	C 	0.09490 0.34080 0.47324 0.11700
H 	H 	0.06410 0.29910 0.46740 -0.03000
C 	C 	0.09670 0.34400 0.49155 -0.18900
H 	H 	0.06810 0.30390 0.49820 0.08400
C 	C 	0.14120 0.40710 0.49986 0.10300
H 	H 	0.14110 0.40880 0.51220 -0.02900
C 	C 	0.14060 0.39690 0.44375 0.45800
C 	C 	0.06550 0.27010 0.37096 0.41100
C 	C 	0.07070 0.26540 0.35070 -0.17600
C 	C 	0.05240 0.20200 0.34114 0.12500
C 	C 	0.26300 0.40580 0.35192 0.11500
H 	H 	0.26190 0.40700 0.36430 -0.05500
C 	C 	0.24630 0.34310 0.34397 -0.18800
H 	H 	0.23650 0.30350 0.35070 0.08100
C 	C 	0.24480 0.34090 0.32607 0.10500
H 	H 	0.23150 0.29850 0.32030 0.00000
Ag	Ag	0.92623 0.90090 0.83880 0.43300
Ag	Ag	0.97391 0.90158 0.69083 0.42100
Ca	Ca	0.79917 0.70279 0.73954 1.47700
S 	S 	0.90853 0.87476 0.79463 -0.37400
S 	S 	0.87616 0.96862 0.85277 -0.31200
N 	N 	0.85117 0.79913 0.82426 -0.22700
N 	N 	0.94737 0.79853 0.67647 -0.22700
O 	O 	0.77507 0.75203 0.76817 -0.65600
O 	O 	0.84067 0.70453 0.77022 -0.51600
O 	O 	0.77287 0.65873 0.71100 -0.53500
O 	O 	0.68067 0.55383 0.71262 -0.34000
C 	C 	0.85137 0.79793 0.80687 0.14300
C 	C 	0.80727 0.73523 0.79683 -0.22100
C 	C 	0.76157 0.67413 0.80657 0.11700
H 	H 	0.73077 0.63243 0.80073 -0.03000
C 	C 	0.76337 0.67733 0.82488 -0.18900
H 	H 	0.73477 0.63723 0.83153 0.08400
C 	C 	0.80787 0.74043 0.83319 0.10300
H 	H 	0.80777 0.74213 0.84553 -0.02900
C 	C 	0.80727 0.73023 0.77708 0.45800
C 	C 	0.73217 0.60343 0.70429 0.41100
C 	C 	0.73737 0.59873 0.68403 -0.17600
C 	C 	0.71907 0.53533 0.67447 0.12500
C 	C 	0.92967 0.73913 0.68525 0.11500
H 	H 	0.92857 0.74033 0.69763 -0.05500
C 	C 	0.91297 0.67643 0.67730 -0.18800
H 	H 	0.90317 0.63683 0.68403 0.08100
C 	C 	0.91147 0.67423 0.65940 0.10500
H 	H 	0.89817 0.63183 0.65363 0.00000
Ag	Ag	0.59289 0.23424 0.17213 0.43300
Ag	Ag	0.64057 0.23492 0.02416 0.42100
Ca	Ca	0.46583 0.03613 0.07288 1.47700
S 	S 	0.57519 0.20810 0.12797 -0.37400
S 	S 	0.54282 0.30196 0.18611 -0.31200
N 	N 	0.51783 0.13247 0.15760 -0.22700
N 	N 	0.61403 0.13187 0.00981 -0.22700
O 	O 	0.44173 0.08537 0.10151 -0.65600
O 	O 	0.50733 0.03787 0.10356 -0.51600
O 	O 	0.43953 0.99207 0.04434 -0.53500
O 	O 	0.34733 0.88717 0.04596 -0.34000
C 	C 	0.51803 0.13127 0.14021 0.14300
C 	C 	0.47393 0.06857 0.13017 -0.22100
C 	C 	0.42823 0.00747 0.13991 0.11700
H 	H 	0.39743 0.96577 0.13407 -0.03000
C 	C 	0.43003 0.01067 0.15822 -0.18900
H 	H 	0.40143 0.97057 0.16487 0.08400
C 	C 	0.47453 0.07377 0.16653 0.10300
H 	H 	0.47443 0.07547 0.17887 -0.02900
C 	C 	0.47393 0.06357 0.11042 0.45800
C 	C 	0.39883 0.93677 0.03763 0.41100
C 	C 	0.40403 0.93207 0.01737 -0.17600
C 	C 	0.38573 0.86867 0.00781 0.12500
C 	C 	0.59633 0.07247 0.01859 0.11500
H 	H 	0.59523 0.07367 0.03097 -0.05500
C 	C 	0.57963 0.00977 0.01064 -0.18800
H 	H 	0.56983 0.97017 0.01737 0.08100
C 	C 	0.57813 0.00757 0.99274 0.10500
H 	H 	0.56483 0.96517 0.98697 0.00000
Ag	Ag	0.30801 0.74044 0.50547 0.43300
Ag	Ag	0.26101 0.69276 0.35749 0.42100
Ca	Ca	0.23696 0.86750 0.40621 1.47700
S 	S 	0.29957 0.75814 0.46130 -0.37400
S 	S 	0.42580 0.79051 0.51944 -0.31200
N 	N 	0.28130 0.81550 0.49093 -0.22700
N 	N 	0.18450 0.71930 0.34314 -0.22700
O 	O 	0.31030 0.89160 0.43484 -0.65600
O 	O 	0.19720 0.82600 0.43689 -0.51600
O 	O 	0.21920 0.89380 0.37767 -0.53500
O 	O 	0.20650 0.98600 0.37929 -0.34000
C 	C 	0.27990 0.81530 0.47354 0.14300
C 	C 	0.26130 0.85940 0.46350 -0.22100
C 	C 	0.24590 0.90510 0.47324 0.11700
H 	H 	0.23500 0.93590 0.46740 -0.03000
C 	C 	0.24730 0.90330 0.49155 -0.18900
H 	H 	0.23580 0.93190 0.49820 0.08400
C 	C 	0.26590 0.85880 0.49986 0.10300
H 	H 	0.26770 0.85890 0.51220 -0.02900
C 	C 	0.25630 0.85940 0.44375 0.45800
C 	C 	0.20460 0.93450 0.37096 0.41100
C 	C 	0.19470 0.92930 0.35070 -0.17600
C 	C 	0.14960 0.94760 0.34114 0.12500
C 	C 	0.14280 0.73700 0.35192 0.11500
H 	H 	0.14510 0.73810 0.36430 -0.05500
C 	C 	0.09680 0.75370 0.34397 -0.18800
H 	H 	0.06700 0.76350 0.35070 0.08100
C 	C 	0.09610 0.75520 0.32607 0.10500
H 	H 	0.06700 0.76850 0.32030 0.00000
Ag	Ag	0.97468 0.07377 0.83880 0.43300
Ag	Ag	0.92768 0.02609 0.69083 0.42100
Ca	Ca	0.90363 0.20083 0.73954 1.47700
S 	S 	0.96624 0.09147 0.79463 -0.37400
S 	S 	0.09247 0.12384 0.85277 -0.31200
N 	N 	0.94797 0.14883 0.82426 -0.22700
N 	N 	0.85117 0.05263 0.67647 -0.22700
O 	O 	0.97697 0.22493 0.76817 -0.65600
O 	O 	0.86387 0.15933 0.77022 -0.51600
O 	O 	0.88587 0.22713 0.71100 -0.53500
O 	O 	0.87317 0.31933 0.71262 -0.34000
C 	C 	0.94657 0.14863 0.80687 0.14300
C 	C 	0.92797 0.19273 0.79683 -0.22100
C 	C 	0.91257 0.23843 0.80657 0.11700
H 	H 	0.90167 0.26923 0.80073 -0.03000
C 	C 	0.91397 0.23663 0.82488 -0.18900
H 	H 	0.90247 0.26523 0.83153 0.08400
C 	C 	0.93257 0.19213 0.83319 0.10300
H 	H 	0.93437 0.19223 0.84553 -0.02800
C 	C 	0.92297 0.19273 0.77708 0.45800
C 	C 	0.87127 0.26783 0.70429 0.41100
C 	C 	0.86137 0.26263 0.68403 -0.17600
C 	C 	0.81627 0.28093 0.67447 0.12500
C 	C 	0.80947 0.07033 0.68525 0.11500
H 	H 	0.81177 0.07143 0.69763 -0.05500
C 	C 	0.76347 0.08703 0.67730 -0.18800
H 	H 	0.73367 0.09683 0.68403 0.08100
C 	C 	0.76277 0.08853 0.65940 0.10500
H 	H 	0.73367 0.10183 0.65363 0.00000
Ag	Ag	0.64134 0.40711 0.17213 0.43300
Ag	Ag	0.59434 0.35943 0.02416 0.42100
Ca	Ca	0.57029 0.53417 0.07288 1.47700
S 	S 	0.63290 0.42481 0.12797 -0.37400
S 	S 	0.75913 0.45718 0.18611 -0.31200
N 	N 	0.61463 0.48217 0.15760 -0.22700
N 	N 	0.51783 0.38597 0.00981 -0.22600
O 	O 	0.64363 0.55827 0.10151 -0.65600
O 	O 	0.53053 0.49267 0.10356 -0.51600
O 	O 	0.55253 0.56047 0.04434 -0.53500
O 	O 	0.53983 0.65267 0.04596 -0.34000
C 	C 	0.61323 0.48197 0.14021 0.14300
C 	C 	0.59463 0.52607 0.13017 -0.22100
C 	C 	0.57923 0.57177 0.13991 0.11700
H 	H 	0.56833 0.60257 0.13407 -0.03000
C 	C 	0.58063 0.56997 0.15822 -0.18900
H 	H 	0.56913 0.59857 0.16487 0.08400
C 	C 	0.59923 0.52547 0.16653 0.10300
H 	H 	0.60103 0.52557 0.17887 -0.02900
C 	C 	0.58963 0.52607 0.11042 0.45800
C 	C 	0.53793 0.60117 0.03763 0.41100
C 	C 	0.52803 0.59597 0.01737 -0.17600
C 	C 	0.48293 0.61427 0.00781 0.12500
C 	C 	0.47613 0.40367 0.01859 0.11500
H 	H 	0.47843 0.40477 0.03097 -0.05500
C 	C 	0.43013 0.42037 0.01064 -0.18800
H 	H 	0.40033 0.43017 0.01737 0.08100
C 	C 	0.42943 0.42187 0.99274 0.10500
H 	H 	0.40033 0.43517 0.98697 0.00000
Ag	Ag	0.43243 0.69199 0.50547 0.43300
Ag	Ag	0.43175 0.73899 0.35749 0.42100
Ca	Ca	0.63054 0.76304 0.40621 1.47700
S 	S 	0.45857 0.70043 0.46130 -0.37400
S 	S 	0.36471 0.57420 0.51944 -0.31200
N 	N 	0.53420 0.71870 0.49093 -0.22700
N 	N 	0.53480 0.81550 0.34314 -0.22700
O 	O 	0.58130 0.68970 0.43484 -0.65600
O 	O 	0.62880 0.80280 0.43689 -0.51600
O 	O 	0.67460 0.78080 0.37767 -0.53500
O 	O 	0.77950 0.79350 0.37929 -0.34000
C 	C 	0.53540 0.72010 0.47354 0.14300
C 	C 	0.59810 0.73870 0.46350 -0.22100
C 	C 	0.65920 0.75410 0.47324 0.11700
H 	H 	0.70090 0.76500 0.46740 -0.03000
C 	C 	0.65600 0.75270 0.49155 -0.18900
H 	H 	0.69610 0.76420 0.49820 0.08400
C 	C 	0.59290 0.73410 0.49986 0.10300
H 	H 	0.59120 0.73230 0.51220 -0.02900
C 	C 	0.60310 0.74370 0.44375 0.45800
C 	C 	0.72990 0.79540 0.37096 0.41100
C 	C 	0.73460 0.80530 0.35070 -0.17600
C 	C 	0.79800 0.85040 0.34114 0.12500
C 	C 	0.59420 0.85720 0.35192 0.11500
H 	H 	0.59300 0.85490 0.36430 -0.05500
C 	C 	0.65690 0.90320 0.34397 -0.18800
H 	H 	0.69650 0.93300 0.35070 0.08100
C 	C 	0.65910 0.90390 0.32607 0.10500
H 	H 	0.70150 0.93300 0.32030 0.00000
Ag	Ag	0.09910 0.02532 0.83880 0.43300
Ag	Ag	0.09842 0.07232 0.69083 0.42100
Ca	Ca	0.29721 0.09637 0.73954 1.47700
S 	S 	0.12524 0.03376 0.79463 -0.37400
S 	S 	0.03138 0.90753 0.85277 -0.31300
N 	N 	0.20087 0.05203 0.82426 -0.22700
N 	N 	0.20147 0.14883 0.67647 -0.22700
O 	O 	0.24797 0.02303 0.76817 -0.65600
O 	O 	0.29547 0.13613 0.77022 -0.51600
O 	O 	0.34127 0.11413 0.71100 -0.53500
O 	O 	0.44617 0.12683 0.71262 -0.34000
C 	C 	0.20207 0.05343 0.80687 0.14300
C 	C 	0.26477 0.07203 0.79683 -0.22100
C 	C 	0.32587 0.08743 0.80657 0.11700
H 	H 	0.36757 0.09833 0.80073 -0.03000
C 	C 	0.32267 0.08603 0.82488 -0.18900
H 	H 	0.36277 0.09753 0.83153 0.08400
C 	C 	0.25957 0.06743 0.83319 0.10300
H 	H 	0.25787 0.06563 0.84553 -0.02900
C 	C 	0.26977 0.07703 0.77708 0.45800
C 	C 	0.39657 0.12873 0.70429 0.41100
C 	C 	0.40127 0.13863 0.68403 -0.17600
C 	C 	0.46467 0.18373 0.67447 0.12500
C 	C 	0.26087 0.19053 0.68525 0.11500
H 	H 	0.25967 0.18823 0.69763 -0.05500
C 	C 	0.32357 0.23653 0.67730 -0.18800
H 	H 	0.36317 0.26633 0.68403 0.08100
C 	C 	0.32577 0.23723 0.65940 0.10500
H 	H 	0.36817 0.26633 0.65363 0.00000
Ag	Ag	0.76576 0.35866 0.17213 0.43300
Ag	Ag	0.76508 0.40566 0.02416 0.42100
Ca	Ca	0.96387 0.42971 0.07288 1.47700
S 	S 	0.79190 0.36710 0.12797 -0.37400
S 	S 	0.69804 0.24087 0.18611 -0.31200
N 	N 	0.86753 0.38537 0.15760 -0.22700
N 	N 	0.86813 0.48217 0.00981 -0.22700
O 	O 	0.91463 0.35637 0.10151 -0.65600
O 	O 	0.96213 0.46947 0.10356 -0.51600
O 	O 	0.00793 0.44747 0.04434 -0.53500
O 	O 	0.11283 0.46017 0.04596 -0.34000
C 	C 	0.86873 0.38677 0.14021 0.14300
C 	C 	0.93143 0.40537 0.13017 -0.22100
C 	C 	0.99253 0.42077 0.13991 0.11700
H 	H 	0.03423 0.43167 0.13407 -0.03000
C 	C 	0.98933 0.41937 0.15822 -0.18900
H 	H 	0.02943 0.43087 0.16487 0.08400
C 	C 	0.92623 0.40077 0.16653 0.10300
H 	H 	0.92453 0.39897 0.17887 -0.02900
C 	C 	0.93643 0.41037 0.11042 0.45800
C 	C 	0.06323 0.46207 0.03763 0.41100
C 	C 	0.06793 0.47197 0.01737 -0.17600
C 	C 	0.13133 0.51707 0.00781 0.12500
C 	C 	0.92753 0.52387 0.01859 0.11500
H 	H 	0.92633 0.52157 0.03097 -0.05500
C 	C 	0.99023 0.56987 0.01064 -0.18800
H 	H 	0.02983 0.59967 0.01737 0.08100
C 	C 	0.99243 0.57057 0.99274 0.10500
H 	H 	0.03483 0.59967 0.98697 0.00000
