data_crystal

_cell_length_a 40.80760
_cell_length_b 20.37100
_cell_length_c 29.89480
_cell_angle_alpha 90.00000
_cell_angle_beta  109.96300
_cell_angle_gamma 90.00000

_symmetry_space_group_name_	'P 1'
_symmetry_space_group_name_H-M	'P 1'

loop_
_symmetry_equiv_pos_as_xyz
  x,y,z

loop_
_atom_site_label
_atom_site_type_symbol
_atom_site_fract_x
_atom_site_fract_y
_atom_site_fract_z
_atom_site_charge
Th	Th	0.22719 0.59822 0.21182 0.05300
Th	Th	0.12683 0.60172 0.13650 0.05400
Th	Th	0.19622 0.65139 0.07715 0.05500
Th	Th	0.24386 0.48077 0.11588 0.05600
Th	Th	0.14332 0.48580 0.04000 0.05600
Th	Th	0.17424 0.43079 0.17475 0.05400
Th	Th	0.17945 0.86962 0.20149 0.07200
Th	Th	0.97838 0.61075 0.92720 0.06900
Th	Th	0.23272 0.46891 0.41941 0.03900
Th	Th	0.21007 0.47643 0.40534 0.03800
Th	Th	0.03408 0.51690 0.25820 0.04600
S 	S 	0.31543 0.52653 0.22939 0.59400
S 	S 	0.24544 0.76389 0.17256 0.60300
S 	S 	0.23749 0.46315 0.29503 0.59700
S 	S 	0.12965 0.77129 0.08972 0.59100
S 	S 	0.25042 0.32546 0.18241 0.61200
S 	S 	0.16391 0.70214 0.24231 0.59500
S 	S 	0.20817 0.40135 0.99602 0.60200
S 	S 	0.11094 0.33070 0.08064 0.62100
S 	S 	0.05445 0.54347 0.03131 0.61800
S 	S 	0.08783 0.46539 0.18403 0.62100
S 	S 	0.15486 0.39661 0.45227 0.74500
S 	S 	0.27062 0.40492 0.53950 0.65900
S 	S 	0.01070 0.46330 0.87560 0.57300
O 	O 	0.22195 0.49380 0.17770 -0.02100
O 	O 	0.18287 0.63470 0.14580 -0.02100
O 	O 	0.13914 0.49760 0.11470 -0.02100
O 	O 	0.19636 0.53900 0.06680 -0.02300
O 	O 	0.17018 0.54310 0.20510 -0.01000
O 	O 	0.24659 0.59860 0.14100 -0.01300
O 	O 	0.13664 0.60490 0.05870 -0.01200
O 	O 	0.18777 0.41800 0.10020 -0.01300
O 	O 	0.28944 0.56770 0.24040 -0.15700
O 	O 	0.29979 0.49630 0.18180 -0.15300
O 	O 	0.32713 0.47380 0.26520 -0.15400
O 	O 	0.34523 0.56700 0.23050 -0.15400
O 	O 	0.23581 0.73630 0.12430 -0.15700
O 	O 	0.21830 0.81190 0.17210 -0.15900
O 	O 	0.24677 0.71170 0.20700 -0.16200
O 	O 	0.27925 0.79580 0.18470 -0.16100
O 	O 	0.23992 0.45150 0.34490 -0.15800
O 	O 	0.23433 0.53470 0.28620 -0.15300
O 	O 	0.20610 0.43060 0.26290 -0.15600
O 	O 	0.26859 0.43870 0.28710 -0.16400
O 	O 	0.11635 0.71680 0.11110 -0.15500
O 	O 	0.15721 0.74640 0.07260 -0.15300
O 	O 	0.14426 0.82350 0.12520 -0.15100
O 	O 	0.10082 0.79820 0.04970 -0.15200
O 	O 	0.25831 0.37080 0.14910 -0.15900
O 	O 	0.21614 0.34090 0.18520 -0.16300
O 	O 	0.25060 0.25860 0.16550 -0.16100
O 	O 	0.27680 0.33320 0.22950 -0.16800
O 	O 	0.13505 0.65990 0.21300 -0.15300
O 	O 	0.16606 0.75940 0.21320 -0.15800
O 	O 	0.19699 0.66510 0.25550 -0.15300
O 	O 	0.15745 0.72460 0.28470 -0.15900
O 	O 	0.23440 0.41720 0.04250 -0.15800
O 	O 	0.17337 0.42010 0.99610 -0.15800
O 	O 	0.21580 0.43940 0.95860 -0.16000
O 	O 	0.20940 0.33200 0.98580 -0.15800
O 	O 	0.13573 0.34230 0.12850 -0.16300
O 	O 	0.11550 0.37980 0.04710 -0.16300
O 	O 	0.11670 0.26560 0.06540 -0.16200
O 	O 	0.07560 0.33200 0.08100 -0.16700
O 	O 	0.07075 0.59050 0.06950 -0.16300
O 	O 	0.08038 0.51540 0.01290 -0.16400
O 	O 	0.03840 0.49090 0.04920 -0.17200
O 	O 	0.02770 0.57820 0.99350 -0.16500
O 	O 	0.12195 0.43360 0.20080 -0.16200
O 	O 	0.09110 0.53340 0.17050 -0.16600
O 	O 	0.07370 0.46450 0.22240 -0.16800
O 	O 	0.06550 0.42900 0.14270 -0.16700
O 	O 	0.16534 0.34640 0.48960 -0.19100
O 	O 	0.13790 0.45160 0.46740 -0.19000
O 	O 	0.19220 0.42610 0.45380 -0.06800
O 	O 	0.16920 0.40600 0.42160 -0.19900
O 	O 	0.13680 0.37300 0.40770 -0.16700
O 	O 	0.24475 0.35820 0.54430 -0.17400
O 	O 	0.27570 0.45900 0.57350 -0.16900
O 	O 	0.30440 0.37070 0.55140 -0.15700
O 	O 	0.26510 0.42990 0.49520 -0.20700
O 	O 	0.23660 0.43920 0.48570 0.01100
O 	O 	0.00470 0.52570 0.89340 -0.16500
O 	O 	0.21970 0.57410 0.36650 0.00200
O 	O 	0.21850 0.35980 0.39320 0.01100
O 	O 	0.17280 0.48040 0.36230 0.00000
O 	O 	0.16730 0.43900 0.32810 0.01000
O 	O 	0.28620 0.54090 0.44750 0.00600
O 	O 	0.27220 0.51350 0.43290 -0.00000
O 	O 	0.99670 0.40280 0.89930 -0.12100
O 	O 	0.98900 0.45760 0.82420 -0.15400
O 	O 	0.04660 0.45510 0.88070 -0.16200
Th	Th	0.72719 0.09822 0.21182 0.05200
Th	Th	0.62683 0.10172 0.13650 0.05200
Th	Th	0.69622 0.15139 0.07715 0.05400
Th	Th	0.74386 0.98077 0.11588 0.05500
Th	Th	0.64332 0.98580 0.04000 0.05500
Th	Th	0.67424 0.93079 0.17475 0.05300
Th	Th	0.67945 0.36962 0.20149 0.07100
Th	Th	0.47838 0.11075 0.92720 0.06800
Th	Th	0.73272 0.96891 0.41941 0.03800
Th	Th	0.71007 0.97643 0.40534 0.03700
Th	Th	0.53408 0.01690 0.25820 0.04500
S 	S 	0.81543 0.02653 0.22939 0.59200
S 	S 	0.74544 0.26389 0.17256 0.60300
S 	S 	0.73749 0.96315 0.29503 0.59800
S 	S 	0.62965 0.27129 0.08972 0.59100
S 	S 	0.75042 0.82546 0.18241 0.61200
S 	S 	0.66391 0.20214 0.24231 0.59500
S 	S 	0.70817 0.90135 0.99602 0.60100
S 	S 	0.61094 0.83070 0.08064 0.62100
S 	S 	0.55445 0.04347 0.03131 0.61700
S 	S 	0.58783 0.96539 0.18403 0.62100
S 	S 	0.65486 0.89661 0.45227 0.74500
S 	S 	0.77062 0.90492 0.53950 0.65900
S 	S 	0.51070 0.96330 0.87560 0.57200
O 	O 	0.72195 0.99380 0.17770 -0.02100
O 	O 	0.68287 0.13470 0.14580 -0.02100
O 	O 	0.63914 0.99760 0.11470 -0.02100
O 	O 	0.69636 0.03900 0.06680 -0.02300
O 	O 	0.67018 0.04310 0.20510 -0.01100
O 	O 	0.74659 0.09860 0.14100 -0.01300
O 	O 	0.63664 0.10490 0.05870 -0.01300
O 	O 	0.68777 0.91800 0.10020 -0.01300
O 	O 	0.78944 0.06770 0.24040 -0.15700
O 	O 	0.79979 0.99630 0.18180 -0.15200
O 	O 	0.82713 0.97380 0.26520 -0.15300
O 	O 	0.84523 0.06700 0.23050 -0.15400
O 	O 	0.73581 0.23630 0.12430 -0.15700
O 	O 	0.71830 0.31190 0.17210 -0.15900
O 	O 	0.74677 0.21170 0.20700 -0.16200
O 	O 	0.77925 0.29580 0.18470 -0.16100
O 	O 	0.73992 0.95150 0.34490 -0.15800
O 	O 	0.73433 0.03470 0.28620 -0.15400
O 	O 	0.70610 0.93060 0.26290 -0.15600
O 	O 	0.76859 0.93870 0.28710 -0.16400
O 	O 	0.61635 0.21680 0.11110 -0.15600
O 	O 	0.65721 0.24640 0.07260 -0.15400
O 	O 	0.64426 0.32350 0.12520 -0.15200
O 	O 	0.60082 0.29820 0.04970 -0.15200
O 	O 	0.75831 0.87080 0.14910 -0.15900
O 	O 	0.71614 0.84090 0.18520 -0.16300
O 	O 	0.75060 0.75860 0.16550 -0.16100
O 	O 	0.77680 0.83320 0.22950 -0.16800
O 	O 	0.63505 0.15990 0.21300 -0.15300
O 	O 	0.66606 0.25940 0.21320 -0.15800
O 	O 	0.69699 0.16510 0.25550 -0.15300
O 	O 	0.65745 0.22460 0.28470 -0.15900
O 	O 	0.73440 0.91720 0.04250 -0.15700
O 	O 	0.67337 0.92010 0.99610 -0.15800
O 	O 	0.71580 0.93940 0.95860 -0.16000
O 	O 	0.70940 0.83200 0.98580 -0.15800
O 	O 	0.63573 0.84230 0.12850 -0.16300
O 	O 	0.61550 0.87980 0.04710 -0.16300
O 	O 	0.61670 0.76560 0.06540 -0.16200
O 	O 	0.57560 0.83200 0.08100 -0.16700
O 	O 	0.57075 0.09050 0.06950 -0.16300
O 	O 	0.58038 0.01540 0.01290 -0.16500
O 	O 	0.53840 0.99090 0.04920 -0.17200
O 	O 	0.52770 0.07820 0.99350 -0.16400
O 	O 	0.62195 0.93360 0.20080 -0.16200
O 	O 	0.59110 0.03340 0.17050 -0.16700
O 	O 	0.57370 0.96450 0.22240 -0.16800
O 	O 	0.56550 0.92900 0.14270 -0.16700
O 	O 	0.66534 0.84640 0.48960 -0.19100
O 	O 	0.63790 0.95160 0.46740 -0.19000
O 	O 	0.69220 0.92610 0.45380 -0.06700
O 	O 	0.66920 0.90600 0.42160 -0.19900
O 	O 	0.63680 0.87300 0.40770 -0.16700
O 	O 	0.74475 0.85820 0.54430 -0.17400
O 	O 	0.77570 0.95900 0.57350 -0.16900
O 	O 	0.80440 0.87070 0.55140 -0.15700
O 	O 	0.76510 0.92990 0.49520 -0.20700
O 	O 	0.73660 0.93920 0.48570 0.01100
O 	O 	0.50470 0.02570 0.89340 -0.16500
O 	O 	0.71970 0.07410 0.36650 0.00200
O 	O 	0.71850 0.85980 0.39320 0.01100
O 	O 	0.67280 0.98040 0.36230 0.00100
O 	O 	0.66730 0.93900 0.32810 0.01000
O 	O 	0.78620 0.04090 0.44750 0.00600
O 	O 	0.77220 0.01350 0.43290 -0.00000
O 	O 	0.49670 0.90280 0.89930 -0.12100
O 	O 	0.48900 0.95760 0.82420 -0.15400
O 	O 	0.54660 0.95510 0.88070 -0.16200
Th	Th	0.77281 0.59822 0.28818 0.05200
Th	Th	0.87317 0.60172 0.36350 0.05300
Th	Th	0.80378 0.65139 0.42285 0.05400
Th	Th	0.75614 0.48077 0.38412 0.05500
Th	Th	0.85668 0.48580 0.46000 0.05500
Th	Th	0.82576 0.43079 0.32525 0.05300
Th	Th	0.82055 0.86962 0.29851 0.07100
Th	Th	0.02162 0.61075 0.57280 0.06800
Th	Th	0.76728 0.46891 0.08059 0.03800
Th	Th	0.78993 0.47643 0.09466 0.03700
Th	Th	0.96592 0.51690 0.24180 0.04500
S 	S 	0.68457 0.52653 0.27061 0.59300
S 	S 	0.75456 0.76389 0.32744 0.60300
S 	S 	0.76251 0.46315 0.20497 0.59700
S 	S 	0.87035 0.77129 0.41028 0.59100
S 	S 	0.74958 0.32546 0.31759 0.61200
S 	S 	0.83609 0.70214 0.25769 0.59500
S 	S 	0.79183 0.40135 0.50398 0.60100
S 	S 	0.88906 0.33070 0.41936 0.62100
S 	S 	0.94555 0.54347 0.46869 0.61800
S 	S 	0.91217 0.46539 0.31597 0.62100
S 	S 	0.84514 0.39661 0.04773 0.74500
S 	S 	0.72938 0.40492 0.96050 0.65900
S 	S 	0.98930 0.46330 0.62440 0.57300
O 	O 	0.77805 0.49380 0.32230 -0.02100
O 	O 	0.81713 0.63470 0.35420 -0.02100
O 	O 	0.86086 0.49760 0.38530 -0.02100
O 	O 	0.80364 0.53900 0.43320 -0.02300
O 	O 	0.82982 0.54310 0.29490 -0.01000
O 	O 	0.75341 0.59860 0.35900 -0.01300
O 	O 	0.86336 0.60490 0.44130 -0.01200
O 	O 	0.81223 0.41800 0.39980 -0.01300
O 	O 	0.71056 0.56770 0.25960 -0.15700
O 	O 	0.70021 0.49630 0.31820 -0.15300
O 	O 	0.67287 0.47380 0.23480 -0.15400
O 	O 	0.65477 0.56700 0.26950 -0.15400
O 	O 	0.76419 0.73630 0.37570 -0.15700
O 	O 	0.78170 0.81190 0.32790 -0.15900
O 	O 	0.75323 0.71170 0.29300 -0.16200
O 	O 	0.72075 0.79580 0.31530 -0.16100
O 	O 	0.76008 0.45150 0.15510 -0.15800
O 	O 	0.76567 0.53470 0.21380 -0.15300
O 	O 	0.79390 0.43060 0.23710 -0.15600
O 	O 	0.73141 0.43870 0.21290 -0.16400
O 	O 	0.88365 0.71680 0.38890 -0.15500
O 	O 	0.84279 0.74640 0.42740 -0.15400
O 	O 	0.85574 0.82350 0.37480 -0.15200
O 	O 	0.89918 0.79820 0.45030 -0.15200
O 	O 	0.74169 0.37080 0.35090 -0.15900
O 	O 	0.78386 0.34090 0.31480 -0.16300
O 	O 	0.74940 0.25860 0.33450 -0.16100
O 	O 	0.72320 0.33320 0.27050 -0.16800
O 	O 	0.86495 0.65990 0.28700 -0.15300
O 	O 	0.83394 0.75940 0.28680 -0.15800
O 	O 	0.80301 0.66510 0.24450 -0.15300
O 	O 	0.84255 0.72460 0.21530 -0.15900
O 	O 	0.76560 0.41720 0.45750 -0.15800
O 	O 	0.82663 0.42010 0.50390 -0.15800
O 	O 	0.78420 0.43940 0.54140 -0.16000
O 	O 	0.79060 0.33200 0.51420 -0.15800
O 	O 	0.86427 0.34230 0.37150 -0.16300
O 	O 	0.88450 0.37980 0.45290 -0.16300
O 	O 	0.88330 0.26560 0.43460 -0.16200
O 	O 	0.92440 0.33200 0.41900 -0.16700
O 	O 	0.92925 0.59050 0.43050 -0.16300
O 	O 	0.91962 0.51540 0.48710 -0.16400
O 	O 	0.96160 0.49090 0.45080 -0.17200
O 	O 	0.97230 0.57820 0.50650 -0.16500
O 	O 	0.87805 0.43360 0.29920 -0.16200
O 	O 	0.90890 0.53340 0.32950 -0.16600
O 	O 	0.92630 0.46450 0.27760 -0.16800
O 	O 	0.93450 0.42900 0.35730 -0.16700
O 	O 	0.83466 0.34640 0.01040 -0.19100
O 	O 	0.86210 0.45160 0.03260 -0.19000
O 	O 	0.80780 0.42610 0.04620 -0.06800
O 	O 	0.83080 0.40600 0.07840 -0.19900
O 	O 	0.86320 0.37300 0.09230 -0.16700
O 	O 	0.75525 0.35820 0.95570 -0.17400
O 	O 	0.72430 0.45900 0.92650 -0.16900
O 	O 	0.69560 0.37070 0.94860 -0.15700
O 	O 	0.73490 0.42990 0.00480 -0.20700
O 	O 	0.76340 0.43920 0.01430 0.01100
O 	O 	0.99530 0.52570 0.60660 -0.16500
O 	O 	0.78030 0.57410 0.13350 0.00200
O 	O 	0.78150 0.35980 0.10680 0.01100
O 	O 	0.82720 0.48040 0.13770 0.00000
O 	O 	0.83270 0.43900 0.17190 0.01000
O 	O 	0.71380 0.54090 0.05250 0.00600
O 	O 	0.72780 0.51350 0.06710 -0.00000
O 	O 	0.00330 0.40280 0.60070 -0.12100
O 	O 	0.01100 0.45760 0.67580 -0.15400
O 	O 	0.95340 0.45510 0.61930 -0.16200
Th	Th	0.27281 0.09822 0.28818 0.05200
Th	Th	0.37317 0.10172 0.36350 0.05300
Th	Th	0.30378 0.15139 0.42285 0.05400
Th	Th	0.25614 0.98077 0.38412 0.05500
Th	Th	0.35668 0.98580 0.46000 0.05500
Th	Th	0.32576 0.93079 0.32525 0.05300
Th	Th	0.32055 0.36962 0.29851 0.07100
Th	Th	0.52162 0.11075 0.57280 0.06800
Th	Th	0.26728 0.96891 0.08059 0.03800
Th	Th	0.28993 0.97643 0.09466 0.03700
Th	Th	0.46592 0.01690 0.24180 0.04500
S 	S 	0.18457 0.02653 0.27061 0.59200
S 	S 	0.25456 0.26389 0.32744 0.60300
S 	S 	0.26251 0.96315 0.20497 0.59800
S 	S 	0.37035 0.27129 0.41028 0.59100
S 	S 	0.24958 0.82546 0.31759 0.61200
S 	S 	0.33609 0.20214 0.25769 0.59500
S 	S 	0.29183 0.90135 0.50398 0.60100
S 	S 	0.38906 0.83070 0.41936 0.62100
S 	S 	0.44555 0.04347 0.46869 0.61800
S 	S 	0.41217 0.96539 0.31597 0.62100
S 	S 	0.34514 0.89661 0.04773 0.74500
S 	S 	0.22938 0.90492 0.96050 0.65800
S 	S 	0.48930 0.96330 0.62440 0.57300
O 	O 	0.27805 0.99380 0.32230 -0.02100
O 	O 	0.31713 0.13470 0.35420 -0.02100
O 	O 	0.36086 0.99760 0.38530 -0.02100
O 	O 	0.30364 0.03900 0.43320 -0.02300
O 	O 	0.32982 0.04310 0.29490 -0.01000
O 	O 	0.25341 0.09860 0.35900 -0.01300
O 	O 	0.36336 0.10490 0.44130 -0.01200
O 	O 	0.31223 0.91800 0.39980 -0.01300
O 	O 	0.21056 0.06770 0.25960 -0.15700
O 	O 	0.20021 0.99630 0.31820 -0.15300
O 	O 	0.17287 0.97380 0.23480 -0.15300
O 	O 	0.15477 0.06700 0.26950 -0.15400
O 	O 	0.26419 0.23630 0.37570 -0.15700
O 	O 	0.28170 0.31190 0.32790 -0.15900
O 	O 	0.25323 0.21170 0.29300 -0.16200
O 	O 	0.22075 0.29580 0.31530 -0.16100
O 	O 	0.26008 0.95150 0.15510 -0.15800
O 	O 	0.26567 0.03470 0.21380 -0.15400
O 	O 	0.29390 0.93060 0.23710 -0.15600
O 	O 	0.23141 0.93870 0.21290 -0.16400
O 	O 	0.38365 0.21680 0.38890 -0.15500
O 	O 	0.34279 0.24640 0.42740 -0.15400
O 	O 	0.35574 0.32350 0.37480 -0.15200
O 	O 	0.39918 0.29820 0.45030 -0.15200
O 	O 	0.24169 0.87080 0.35090 -0.15900
O 	O 	0.28386 0.84090 0.31480 -0.16300
O 	O 	0.24940 0.75860 0.33450 -0.16100
O 	O 	0.22320 0.83320 0.27050 -0.16800
O 	O 	0.36495 0.15990 0.28700 -0.15300
O 	O 	0.33394 0.25940 0.28680 -0.15800
O 	O 	0.30301 0.16510 0.24450 -0.15300
O 	O 	0.34255 0.22460 0.21530 -0.15900
O 	O 	0.26560 0.91720 0.45750 -0.15800
O 	O 	0.32663 0.92010 0.50390 -0.15800
O 	O 	0.28420 0.93940 0.54140 -0.16000
O 	O 	0.29060 0.83200 0.51420 -0.15800
O 	O 	0.36427 0.84230 0.37150 -0.16300
O 	O 	0.38450 0.87980 0.45290 -0.16300
O 	O 	0.38330 0.76560 0.43460 -0.16200
O 	O 	0.42440 0.83200 0.41900 -0.16700
O 	O 	0.42925 0.09050 0.43050 -0.16300
O 	O 	0.41962 0.01540 0.48710 -0.16400
O 	O 	0.46160 0.99090 0.45080 -0.17200
O 	O 	0.47230 0.07820 0.50650 -0.16500
O 	O 	0.37805 0.93360 0.29920 -0.16200
O 	O 	0.40890 0.03340 0.32950 -0.16700
O 	O 	0.42630 0.96450 0.27760 -0.16800
O 	O 	0.43450 0.92900 0.35730 -0.16700
O 	O 	0.33466 0.84640 0.01040 -0.19100
O 	O 	0.36210 0.95160 0.03260 -0.19000
O 	O 	0.30780 0.92610 0.04620 -0.06700
O 	O 	0.33080 0.90600 0.07840 -0.19900
O 	O 	0.36320 0.87300 0.09230 -0.16700
O 	O 	0.25525 0.85820 0.95570 -0.17400
O 	O 	0.22430 0.95900 0.92650 -0.17000
O 	O 	0.19560 0.87070 0.94860 -0.15700
O 	O 	0.23490 0.92990 0.00480 -0.20700
O 	O 	0.26340 0.93920 0.01430 0.01100
O 	O 	0.49530 0.02570 0.60660 -0.16500
O 	O 	0.28030 0.07410 0.13350 0.00100
O 	O 	0.28150 0.85980 0.10680 0.01100
O 	O 	0.32720 0.98040 0.13770 0.00100
O 	O 	0.33270 0.93900 0.17190 0.01000
O 	O 	0.21380 0.04090 0.05250 0.00600
O 	O 	0.22780 0.01350 0.06710 -0.00000
O 	O 	0.50330 0.90280 0.60070 -0.12100
O 	O 	0.51100 0.95760 0.67580 -0.15400
O 	O 	0.45340 0.95510 0.61930 -0.16200
Th	Th	0.77281 0.40178 0.78818 0.05200
Th	Th	0.87317 0.39828 0.86350 0.05300
Th	Th	0.80378 0.34861 0.92285 0.05400
Th	Th	0.75614 0.51923 0.88412 0.05500
Th	Th	0.85668 0.51420 0.96000 0.05500
Th	Th	0.82576 0.56921 0.82525 0.05300
Th	Th	0.82055 0.13038 0.79851 0.07100
Th	Th	0.02162 0.38925 0.07280 0.06800
Th	Th	0.76728 0.53109 0.58059 0.03800
Th	Th	0.78993 0.52357 0.59466 0.03700
Th	Th	0.96592 0.48310 0.74180 0.04500
S 	S 	0.68457 0.47347 0.77061 0.59300
S 	S 	0.75456 0.23611 0.82744 0.60300
S 	S 	0.76251 0.53685 0.70497 0.59700
S 	S 	0.87035 0.22871 0.91028 0.59100
S 	S 	0.74958 0.67454 0.81759 0.61200
S 	S 	0.83609 0.29786 0.75769 0.59500
S 	S 	0.79183 0.59865 0.00398 0.60200
S 	S 	0.88906 0.66930 0.91936 0.62100
S 	S 	0.94555 0.45653 0.96869 0.61800
S 	S 	0.91217 0.53461 0.81597 0.62100
S 	S 	0.84514 0.60339 0.54773 0.74500
S 	S 	0.72938 0.59508 0.46050 0.65900
S 	S 	0.98930 0.53670 0.12440 0.57300
O 	O 	0.77805 0.50620 0.82230 -0.02100
O 	O 	0.81713 0.36530 0.85420 -0.02100
O 	O 	0.86086 0.50240 0.88530 -0.02100
O 	O 	0.80364 0.46100 0.93320 -0.02300
O 	O 	0.82982 0.45690 0.79490 -0.01000
O 	O 	0.75341 0.40140 0.85900 -0.01300
O 	O 	0.86336 0.39510 0.94130 -0.01200
O 	O 	0.81223 0.58200 0.89980 -0.01300
O 	O 	0.71056 0.43230 0.75960 -0.15700
O 	O 	0.70021 0.50370 0.81820 -0.15300
O 	O 	0.67287 0.52620 0.73480 -0.15400
O 	O 	0.65477 0.43300 0.76950 -0.15400
O 	O 	0.76419 0.26370 0.87570 -0.15700
O 	O 	0.78170 0.18810 0.82790 -0.15900
O 	O 	0.75323 0.28830 0.79300 -0.16200
O 	O 	0.72075 0.20420 0.81530 -0.16100
O 	O 	0.76008 0.54850 0.65510 -0.15800
O 	O 	0.76567 0.46530 0.71380 -0.15300
O 	O 	0.79390 0.56940 0.73710 -0.15600
O 	O 	0.73141 0.56130 0.71290 -0.16400
O 	O 	0.88365 0.28320 0.88890 -0.15500
O 	O 	0.84279 0.25360 0.92740 -0.15300
O 	O 	0.85574 0.17650 0.87480 -0.15100
O 	O 	0.89918 0.20180 0.95030 -0.15200
O 	O 	0.74169 0.62920 0.85090 -0.15900
O 	O 	0.78386 0.65910 0.81480 -0.16300
O 	O 	0.74940 0.74140 0.83450 -0.16100
O 	O 	0.72320 0.66680 0.77050 -0.16800
O 	O 	0.86495 0.34010 0.78700 -0.15300
O 	O 	0.83394 0.24060 0.78680 -0.15800
O 	O 	0.80301 0.33490 0.74450 -0.15300
O 	O 	0.84255 0.27540 0.71530 -0.15900
O 	O 	0.76560 0.58280 0.95750 -0.15800
O 	O 	0.82663 0.57990 0.00390 -0.15800
O 	O 	0.78420 0.56060 0.04140 -0.16000
O 	O 	0.79060 0.66800 0.01420 -0.15800
O 	O 	0.86427 0.65770 0.87150 -0.16300
O 	O 	0.88450 0.62020 0.95290 -0.16300
O 	O 	0.88330 0.73440 0.93460 -0.16200
O 	O 	0.92440 0.66800 0.91900 -0.16700
O 	O 	0.92925 0.40950 0.93050 -0.16300
O 	O 	0.91962 0.48460 0.98710 -0.16400
O 	O 	0.96160 0.50910 0.95080 -0.17200
O 	O 	0.97230 0.42180 0.00650 -0.16500
O 	O 	0.87805 0.56640 0.79920 -0.16200
O 	O 	0.90890 0.46660 0.82950 -0.16600
O 	O 	0.92630 0.53550 0.77760 -0.16800
O 	O 	0.93450 0.57100 0.85730 -0.16700
O 	O 	0.83466 0.65360 0.51040 -0.19100
O 	O 	0.86210 0.54840 0.53260 -0.19000
O 	O 	0.80780 0.57390 0.54620 -0.06800
O 	O 	0.83080 0.59400 0.57840 -0.19900
O 	O 	0.86320 0.62700 0.59230 -0.16700
O 	O 	0.75525 0.64180 0.45570 -0.17400
O 	O 	0.72430 0.54100 0.42650 -0.16900
O 	O 	0.69560 0.62930 0.44860 -0.15700
O 	O 	0.73490 0.57010 0.50480 -0.20700
O 	O 	0.76340 0.56080 0.51430 0.01100
O 	O 	0.99530 0.47430 0.10660 -0.16500
O 	O 	0.78030 0.42590 0.63350 0.00200
O 	O 	0.78150 0.64020 0.60680 0.01100
O 	O 	0.82720 0.51960 0.63770 0.00000
O 	O 	0.83270 0.56100 0.67190 0.01000
O 	O 	0.71380 0.45910 0.55250 0.00600
O 	O 	0.72780 0.48650 0.56710 -0.00000
O 	O 	0.00330 0.59720 0.10070 -0.12100
O 	O 	0.01100 0.54240 0.17580 -0.15400
O 	O 	0.95340 0.54490 0.11930 -0.16200
Th	Th	0.27281 0.90178 0.78818 0.05200
Th	Th	0.37317 0.89828 0.86350 0.05200
Th	Th	0.30378 0.84861 0.92285 0.05400
Th	Th	0.25614 0.01923 0.88412 0.05500
Th	Th	0.35668 0.01420 0.96000 0.05500
Th	Th	0.32576 0.06921 0.82525 0.05300
Th	Th	0.32055 0.63038 0.79851 0.07100
Th	Th	0.52162 0.88925 0.07280 0.06800
Th	Th	0.26728 0.03109 0.58059 0.03800
Th	Th	0.28993 0.02357 0.59466 0.03700
Th	Th	0.46592 0.98310 0.74180 0.04500
S 	S 	0.18457 0.97347 0.77061 0.59200
S 	S 	0.25456 0.73611 0.82744 0.60300
S 	S 	0.26251 0.03685 0.70497 0.59800
S 	S 	0.37035 0.72871 0.91028 0.59100
S 	S 	0.24958 0.17454 0.81759 0.61200
S 	S 	0.33609 0.79786 0.75769 0.59500
S 	S 	0.29183 0.09865 0.00398 0.60100
S 	S 	0.38906 0.16930 0.91936 0.62100
S 	S 	0.44555 0.95653 0.96869 0.61700
S 	S 	0.41217 0.03461 0.81597 0.62100
S 	S 	0.34514 0.10339 0.54773 0.74500
S 	S 	0.22938 0.09508 0.46050 0.65900
S 	S 	0.48930 0.03670 0.12440 0.57200
O 	O 	0.27805 0.00620 0.82230 -0.02100
O 	O 	0.31713 0.86530 0.85420 -0.02100
O 	O 	0.36086 0.00240 0.88530 -0.02100
O 	O 	0.30364 0.96100 0.93320 -0.02300
O 	O 	0.32982 0.95690 0.79490 -0.01100
O 	O 	0.25341 0.90140 0.85900 -0.01300
O 	O 	0.36336 0.89510 0.94130 -0.01300
O 	O 	0.31223 0.08200 0.89980 -0.01300
O 	O 	0.21056 0.93230 0.75960 -0.15700
O 	O 	0.20021 0.00370 0.81820 -0.15200
O 	O 	0.17287 0.02620 0.73480 -0.15300
O 	O 	0.15477 0.93300 0.76950 -0.15400
O 	O 	0.26419 0.76370 0.87570 -0.15700
O 	O 	0.28170 0.68810 0.82790 -0.15900
O 	O 	0.25323 0.78830 0.79300 -0.16200
O 	O 	0.22075 0.70420 0.81530 -0.16100
O 	O 	0.26008 0.04850 0.65510 -0.15800
O 	O 	0.26567 0.96530 0.71380 -0.15400
O 	O 	0.29390 0.06940 0.73710 -0.15600
O 	O 	0.23141 0.06130 0.71290 -0.16400
O 	O 	0.38365 0.78320 0.88890 -0.15600
O 	O 	0.34279 0.75360 0.92740 -0.15400
O 	O 	0.35574 0.67650 0.87480 -0.15200
O 	O 	0.39918 0.70180 0.95030 -0.15200
O 	O 	0.24169 0.12920 0.85090 -0.15900
O 	O 	0.28386 0.15910 0.81480 -0.16300
O 	O 	0.24940 0.24140 0.83450 -0.16100
O 	O 	0.22320 0.16680 0.77050 -0.16800
O 	O 	0.36495 0.84010 0.78700 -0.15300
O 	O 	0.33394 0.74060 0.78680 -0.15800
O 	O 	0.30301 0.83490 0.74450 -0.15300
O 	O 	0.34255 0.77540 0.71530 -0.15900
O 	O 	0.26560 0.08280 0.95750 -0.15700
O 	O 	0.32663 0.07990 0.00390 -0.15800
O 	O 	0.28420 0.06060 0.04140 -0.16000
O 	O 	0.29060 0.16800 0.01420 -0.15800
O 	O 	0.36427 0.15770 0.87150 -0.16300
O 	O 	0.38450 0.12020 0.95290 -0.16300
O 	O 	0.38330 0.23440 0.93460 -0.16200
O 	O 	0.42440 0.16800 0.91900 -0.16700
O 	O 	0.42925 0.90950 0.93050 -0.16300
O 	O 	0.41962 0.98460 0.98710 -0.16500
O 	O 	0.46160 0.00910 0.95080 -0.17200
O 	O 	0.47230 0.92180 0.00650 -0.16400
O 	O 	0.37805 0.06640 0.79920 -0.16200
O 	O 	0.40890 0.96660 0.82950 -0.16700
O 	O 	0.42630 0.03550 0.77760 -0.16800
O 	O 	0.43450 0.07100 0.85730 -0.16700
O 	O 	0.33466 0.15360 0.51040 -0.19100
O 	O 	0.36210 0.04840 0.53260 -0.19000
O 	O 	0.30780 0.07390 0.54620 -0.06700
O 	O 	0.33080 0.09400 0.57840 -0.19900
O 	O 	0.36320 0.12700 0.59230 -0.16700
O 	O 	0.25525 0.14180 0.45570 -0.17400
O 	O 	0.22430 0.04100 0.42650 -0.16900
O 	O 	0.19560 0.12930 0.44860 -0.15700
O 	O 	0.23490 0.07010 0.50480 -0.20700
O 	O 	0.26340 0.06080 0.51430 0.01100
O 	O 	0.49530 0.97430 0.10660 -0.16500
O 	O 	0.28030 0.92590 0.63350 0.00200
O 	O 	0.28150 0.14020 0.60680 0.01100
O 	O 	0.32720 0.01960 0.63770 0.00100
O 	O 	0.33270 0.06100 0.67190 0.01000
O 	O 	0.21380 0.95910 0.55250 0.00600
O 	O 	0.22780 0.98650 0.56710 -0.00000
O 	O 	0.50330 0.09720 0.10070 -0.12100
O 	O 	0.51100 0.04240 0.17580 -0.15400
O 	O 	0.45340 0.04490 0.11930 -0.16200
Th	Th	0.22719 0.40178 0.71182 0.05200
Th	Th	0.12683 0.39828 0.63650 0.05300
Th	Th	0.19622 0.34861 0.57715 0.05400
Th	Th	0.24386 0.51923 0.61588 0.05500
Th	Th	0.14332 0.51420 0.54000 0.05500
Th	Th	0.17424 0.56921 0.67475 0.05300
Th	Th	0.17945 0.13038 0.70149 0.07100
Th	Th	0.97838 0.38925 0.42720 0.06800
Th	Th	0.23272 0.53109 0.91941 0.03800
Th	Th	0.21007 0.52357 0.90534 0.03700
Th	Th	0.03408 0.48310 0.75820 0.04500
S 	S 	0.31543 0.47347 0.72939 0.59300
S 	S 	0.24544 0.23611 0.67256 0.60300
S 	S 	0.23749 0.53685 0.79503 0.59700
S 	S 	0.12965 0.22871 0.58972 0.59100
S 	S 	0.25042 0.67454 0.68241 0.61200
S 	S 	0.16391 0.29786 0.74231 0.59500
S 	S 	0.20817 0.59865 0.49602 0.60100
S 	S 	0.11094 0.66930 0.58064 0.62100
S 	S 	0.05445 0.45653 0.53131 0.61800
S 	S 	0.08783 0.53461 0.68403 0.62100
S 	S 	0.15486 0.60339 0.95227 0.74500
S 	S 	0.27062 0.59508 0.03950 0.65900
S 	S 	0.01070 0.53670 0.37560 0.57300
O 	O 	0.22195 0.50620 0.67770 -0.02100
O 	O 	0.18287 0.36530 0.64580 -0.02100
O 	O 	0.13914 0.50240 0.61470 -0.02100
O 	O 	0.19636 0.46100 0.56680 -0.02300
O 	O 	0.17018 0.45690 0.70510 -0.01000
O 	O 	0.24659 0.40140 0.64100 -0.01300
O 	O 	0.13664 0.39510 0.55870 -0.01200
O 	O 	0.18777 0.58200 0.60020 -0.01300
O 	O 	0.28944 0.43230 0.74040 -0.15700
O 	O 	0.29979 0.50370 0.68180 -0.15300
O 	O 	0.32713 0.52620 0.76520 -0.15400
O 	O 	0.34523 0.43300 0.73050 -0.15400
O 	O 	0.23581 0.26370 0.62430 -0.15700
O 	O 	0.21830 0.18810 0.67210 -0.15900
O 	O 	0.24677 0.28830 0.70700 -0.16200
O 	O 	0.27925 0.20420 0.68470 -0.16100
O 	O 	0.23992 0.54850 0.84490 -0.15800
O 	O 	0.23433 0.46530 0.78620 -0.15300
O 	O 	0.20610 0.56940 0.76290 -0.15600
O 	O 	0.26859 0.56130 0.78710 -0.16400
O 	O 	0.11635 0.28320 0.61110 -0.15500
O 	O 	0.15721 0.25360 0.57260 -0.15400
O 	O 	0.14426 0.17650 0.62520 -0.15200
O 	O 	0.10082 0.20180 0.54970 -0.15200
O 	O 	0.25831 0.62920 0.64910 -0.15900
O 	O 	0.21614 0.65910 0.68520 -0.16300
O 	O 	0.25060 0.74140 0.66550 -0.16100
O 	O 	0.27680 0.66680 0.72950 -0.16800
O 	O 	0.13505 0.34010 0.71300 -0.15300
O 	O 	0.16606 0.24060 0.71320 -0.15800
O 	O 	0.19699 0.33490 0.75550 -0.15300
O 	O 	0.15745 0.27540 0.78470 -0.15900
O 	O 	0.23440 0.58280 0.54250 -0.15800
O 	O 	0.17337 0.57990 0.49610 -0.15800
O 	O 	0.21580 0.56060 0.45860 -0.16000
O 	O 	0.20940 0.66800 0.48580 -0.15800
O 	O 	0.13573 0.65770 0.62850 -0.16300
O 	O 	0.11550 0.62020 0.54710 -0.16300
O 	O 	0.11670 0.73440 0.56540 -0.16200
O 	O 	0.07560 0.66800 0.58100 -0.16700
O 	O 	0.07075 0.40950 0.56950 -0.16300
O 	O 	0.08038 0.48460 0.51290 -0.16400
O 	O 	0.03840 0.50910 0.54920 -0.17200
O 	O 	0.02770 0.42180 0.49350 -0.16500
O 	O 	0.12195 0.56640 0.70080 -0.16200
O 	O 	0.09110 0.46660 0.67050 -0.16600
O 	O 	0.07370 0.53550 0.72240 -0.16800
O 	O 	0.06550 0.57100 0.64270 -0.16700
O 	O 	0.16534 0.65360 0.98960 -0.19100
O 	O 	0.13790 0.54840 0.96740 -0.19000
O 	O 	0.19220 0.57390 0.95380 -0.06800
O 	O 	0.16920 0.59400 0.92160 -0.19900
O 	O 	0.13680 0.62700 0.90770 -0.16700
O 	O 	0.24475 0.64180 0.04430 -0.17400
O 	O 	0.27570 0.54100 0.07350 -0.16900
O 	O 	0.30440 0.62930 0.05140 -0.15700
O 	O 	0.26510 0.57010 0.99520 -0.20700
O 	O 	0.23660 0.56080 0.98570 0.01100
O 	O 	0.00470 0.47430 0.39340 -0.16500
O 	O 	0.21970 0.42590 0.86650 0.00200
O 	O 	0.21850 0.64020 0.89320 0.01100
O 	O 	0.17280 0.51960 0.86230 0.00000
O 	O 	0.16730 0.56100 0.82810 0.01000
O 	O 	0.28620 0.45910 0.94750 0.00600
O 	O 	0.27220 0.48650 0.93290 -0.00000
O 	O 	0.99670 0.59720 0.39930 -0.12100
O 	O 	0.98900 0.54240 0.32420 -0.15400
O 	O 	0.04660 0.54490 0.38070 -0.16200
Th	Th	0.72719 0.90178 0.71182 0.05200
Th	Th	0.62683 0.89828 0.63650 0.05300
Th	Th	0.69622 0.84861 0.57715 0.05400
Th	Th	0.74386 0.01923 0.61588 0.05500
Th	Th	0.64332 0.01420 0.54000 0.05500
Th	Th	0.67424 0.06921 0.67475 0.05300
Th	Th	0.67945 0.63038 0.70149 0.07100
Th	Th	0.47838 0.88925 0.42720 0.06800
Th	Th	0.73272 0.03109 0.91941 0.03800
Th	Th	0.71007 0.02357 0.90534 0.03700
Th	Th	0.53408 0.98310 0.75820 0.04500
S 	S 	0.81543 0.97347 0.72939 0.59200
S 	S 	0.74544 0.73611 0.67256 0.60300
S 	S 	0.73749 0.03685 0.79503 0.59800
S 	S 	0.62965 0.72871 0.58972 0.59100
S 	S 	0.75042 0.17454 0.68241 0.61200
S 	S 	0.66391 0.79786 0.74231 0.59500
S 	S 	0.70817 0.09865 0.49602 0.60100
S 	S 	0.61094 0.16930 0.58064 0.62100
S 	S 	0.55445 0.95653 0.53131 0.61800
S 	S 	0.58783 0.03461 0.68403 0.62100
S 	S 	0.65486 0.10339 0.95227 0.74500
S 	S 	0.77062 0.09508 0.03950 0.65800
S 	S 	0.51070 0.03670 0.37560 0.57300
O 	O 	0.72195 0.00620 0.67770 -0.02100
O 	O 	0.68287 0.86530 0.64580 -0.02100
O 	O 	0.63914 0.00240 0.61470 -0.02100
O 	O 	0.69636 0.96100 0.56680 -0.02300
O 	O 	0.67018 0.95690 0.70510 -0.01000
O 	O 	0.74659 0.90140 0.64100 -0.01300
O 	O 	0.63664 0.89510 0.55870 -0.01200
O 	O 	0.68777 0.08200 0.60020 -0.01300
O 	O 	0.78944 0.93230 0.74040 -0.15700
O 	O 	0.79979 0.00370 0.68180 -0.15300
O 	O 	0.82713 0.02620 0.76520 -0.15300
O 	O 	0.84523 0.93300 0.73050 -0.15400
O 	O 	0.73581 0.76370 0.62430 -0.15700
O 	O 	0.71830 0.68810 0.67210 -0.15900
O 	O 	0.74677 0.78830 0.70700 -0.16200
O 	O 	0.77925 0.70420 0.68470 -0.16100
O 	O 	0.73992 0.04850 0.84490 -0.15800
O 	O 	0.73433 0.96530 0.78620 -0.15400
O 	O 	0.70610 0.06940 0.76290 -0.15600
O 	O 	0.76859 0.06130 0.78710 -0.16400
O 	O 	0.61635 0.78320 0.61110 -0.15500
O 	O 	0.65721 0.75360 0.57260 -0.15400
O 	O 	0.64426 0.67650 0.62520 -0.15200
O 	O 	0.60082 0.70180 0.54970 -0.15200
O 	O 	0.75831 0.12920 0.64910 -0.15900
O 	O 	0.71614 0.15910 0.68520 -0.16300
O 	O 	0.75060 0.24140 0.66550 -0.16100
O 	O 	0.77680 0.16680 0.72950 -0.16800
O 	O 	0.63505 0.84010 0.71300 -0.15300
O 	O 	0.66606 0.74060 0.71320 -0.15800
O 	O 	0.69699 0.83490 0.75550 -0.15300
O 	O 	0.65745 0.77540 0.78470 -0.15900
O 	O 	0.73440 0.08280 0.54250 -0.15800
O 	O 	0.67337 0.07990 0.49610 -0.15800
O 	O 	0.71580 0.06060 0.45860 -0.16000
O 	O 	0.70940 0.16800 0.48580 -0.15800
O 	O 	0.63573 0.15770 0.62850 -0.16300
O 	O 	0.61550 0.12020 0.54710 -0.16300
O 	O 	0.61670 0.23440 0.56540 -0.16200
O 	O 	0.57560 0.16800 0.58100 -0.16700
O 	O 	0.57075 0.90950 0.56950 -0.16300
O 	O 	0.58038 0.98460 0.51290 -0.16400
O 	O 	0.53840 0.00910 0.54920 -0.17200
O 	O 	0.52770 0.92180 0.49350 -0.16500
O 	O 	0.62195 0.06640 0.70080 -0.16200
O 	O 	0.59110 0.96660 0.67050 -0.16700
O 	O 	0.57370 0.03550 0.72240 -0.16800
O 	O 	0.56550 0.07100 0.64270 -0.16700
O 	O 	0.66534 0.15360 0.98960 -0.19100
O 	O 	0.63790 0.04840 0.96740 -0.19000
O 	O 	0.69220 0.07390 0.95380 -0.06700
O 	O 	0.66920 0.09400 0.92160 -0.19900
O 	O 	0.63680 0.12700 0.90770 -0.16700
O 	O 	0.74475 0.14180 0.04430 -0.17400
O 	O 	0.77570 0.04100 0.07350 -0.17000
O 	O 	0.80440 0.12930 0.05140 -0.15700
O 	O 	0.76510 0.07010 0.99520 -0.20700
O 	O 	0.73660 0.06080 0.98570 0.01100
O 	O 	0.50470 0.97430 0.39340 -0.16500
O 	O 	0.71970 0.92590 0.86650 0.00100
O 	O 	0.71850 0.14020 0.89320 0.01100
O 	O 	0.67280 0.01960 0.86230 0.00100
O 	O 	0.66730 0.06100 0.82810 0.01000
O 	O 	0.78620 0.95910 0.94750 0.00600
O 	O 	0.77220 0.98650 0.93290 -0.00000
O 	O 	0.49670 0.09720 0.39930 -0.12100
O 	O 	0.48900 0.04240 0.32420 -0.15400
O 	O 	0.54660 0.04490 0.38070 -0.16200
O 	O 	0.00000 0.62130 0.25000 -0.00400
O 	O 	0.50000 0.12130 0.25000 -0.00400
O 	O 	0.00000 0.37870 0.75000 -0.00400
O 	O 	0.50000 0.87870 0.75000 -0.00400
