data_crystal

_cell_length_a 37.91600
_cell_length_b 21.03900
_cell_length_c 28.44700
_cell_angle_alpha 90.00000
_cell_angle_beta  113.69200
_cell_angle_gamma 90.00000

_symmetry_space_group_name_	'P 1'
_symmetry_space_group_name_H-M	'P 1'

loop_
_symmetry_equiv_pos_as_xyz
  x,y,z

loop_
_atom_site_label
_atom_site_type_symbol
_atom_site_fract_x
_atom_site_fract_y
_atom_site_fract_z
_atom_site_charge
Mo	Mo	0.13963 0.81998 0.55926 1.09700
Mo	Mo	0.22697 0.64898 0.73740 1.10100
Mo	Mo	0.23944 0.74536 0.68985 1.09700
Mo	Mo	0.06186 0.82485 0.88543 1.10300
Mo	Mo	0.07653 0.75934 0.54575 1.10500
Mo	Mo	0.07030 0.92143 0.83439 1.10200
Co	Co	0.14353 0.79555 0.84206 1.17600
Co	Co	0.10536 0.87176 0.65748 1.14400
Co	Co	0.18089 0.80480 0.75787 1.13000
Co	Co	0.21304 0.60859 0.60097 1.13300
Co	Co	0.14460 0.65451 0.51497 1.13000
Co	Co	0.96469 0.90435 0.80559 1.18900
P 	P 	0.12808 0.92409 0.77032 0.52800
P 	P 	0.15084 0.68166 0.62969 0.46700
P 	P 	0.05579 0.78121 0.76947 0.48100
P 	P 	0.19424 0.88593 0.67070 0.52100
P 	P 	0.01731 0.81218 0.59587 0.50000
P 	P 	0.12545 0.70301 0.92577 0.54400
P 	P 	0.22039 0.75351 0.56411 0.60800
P 	P 	0.22628 0.50207 0.69226 0.50500
P 	P 	0.20367 0.68236 0.83146 0.51500
P 	P 	0.05176 0.62675 0.47673 0.52300
O 	O 	0.11590 0.63236 0.92512 -0.41300
H 	H 	0.13560 0.62130 0.94780 0.27200
O 	O 	0.18688 0.64370 0.86498 -0.20100
O 	O 	0.24549 0.70057 0.86402 -0.50300
H 	H 	0.25320 0.66500 0.87040 0.27700
O 	O 	0.10525 0.82535 0.59496 -0.64300
O 	O 	0.09654 0.76135 0.77937 -0.37700
O 	O 	0.09740 0.91777 0.71549 -0.52600
O 	O 	0.10336 0.84713 0.86299 -0.61100
O 	O 	0.16734 0.86970 0.69736 -0.53200
O 	O 	0.05019 0.85375 0.76009 -0.47700
O 	O 	0.17376 0.74419 0.63062 -0.42500
O 	O 	0.02468 0.88441 0.83903 -0.60100
O 	O 	0.11923 0.73936 0.52482 -0.62000
O 	O 	0.20107 0.63645 0.78833 -0.35900
O 	O 	0.21666 0.74078 0.73992 -0.62400
O 	O 	0.10997 0.94933 0.80515 -0.40800
O 	O 	0.15651 0.63272 0.59221 -0.50000
O 	O 	0.04491 0.85500 0.63834 -0.52500
O 	O 	0.18768 0.80248 0.54601 -0.41100
O 	O 	0.23480 0.65505 0.67249 -0.61600
O 	O 	0.16479 0.65174 0.68341 -0.31500
O 	O 	0.15745 0.97771 0.77013 -0.22400
O 	O 	0.17328 0.88405 0.61206 -0.39800
O 	O 	0.24762 0.76922 0.53813 -0.51300
H 	H 	0.26829 0.76900 0.53610 0.32100
O 	O 	0.20868 0.95584 0.68315 -0.20200
O 	O 	0.15017 0.86293 0.78980 -0.54100
O 	O 	0.03854 0.75805 0.58299 -0.34000
O 	O 	0.17830 0.74145 0.81111 -0.50500
O 	O 	0.20270 0.68650 0.55060 -0.55800
O 	O 	0.04335 0.76341 0.81327 -0.28100
O 	O 	0.24493 0.76139 0.62167 -0.40500
O 	O 	0.22938 0.84234 0.68938 -0.38800
O 	O 	0.14274 0.71888 0.88784 -0.36500
O 	O 	0.99831 0.85599 0.54708 -0.28600
O 	O 	0.98588 0.78193 0.60917 -0.33700
O 	O 	0.10805 0.69780 0.61270 -0.31700
O 	O 	0.21826 0.52424 0.63758 -0.40200
O 	O 	0.05000 0.67481 0.51577 -0.35600
O 	O 	0.03047 0.74420 0.71926 -0.17100
O 	O 	0.08905 0.73916 0.91652 -0.35500
O 	O 	0.26604 0.47459 0.71913 -0.22400
O 	O 	0.21728 0.55253 0.72404 -0.35200
O 	O 	0.15659 0.72050 0.98042 -0.24800
O 	O 	0.09232 0.60696 0.48644 -0.39100
O 	O 	0.19666 0.44585 0.68571 -0.18700
O 	O 	0.03037 0.56680 0.48219 -0.16100
O 	O 	0.03126 0.65200 0.42375 -0.23300
C 	C 	0.12100 0.63370 0.40120 0.07600
H 	H 	0.10990 0.59750 0.40820 0.01100
C 	C 	0.11720 0.64480 0.35050 -0.13200
H 	H 	0.10230 0.61800 0.32390 0.10000
C 	C 	0.13590 0.69520 0.34120 0.07000
H 	H 	0.13410 0.70260 0.30800 0.00900
C 	C 	0.15740 0.73530 0.38030 -0.14000
H 	H 	0.17110 0.76900 0.37460 0.08100
C 	C 	0.15792 0.72370 0.42840 0.06700
H 	H 	0.17130 0.75180 0.45480 -0.00300
C 	C 	0.11892 0.01100 0.63870 0.07800
H 	H 	0.13610 0.00850 0.67290 0.01600
C 	C 	0.11570 0.06850 0.61310 -0.14600
H 	H 	0.13000 0.10350 0.63040 0.07800
C 	C 	0.09200 0.07340 0.56360 0.08200
H 	H 	0.08950 0.11140 0.54590 -0.00400
C 	C 	0.07190 0.02150 0.54020 -0.16300
H 	H 	0.05520 0.02380 0.50580 0.07600
C 	C 	0.07535 0.96490 0.56630 0.08100
H 	H 	0.06130 0.92980 0.54870 -0.02900
C 	C 	0.19464 0.90130 0.90753 0.08300
H 	H 	0.17510 0.92720 0.88560 -0.00600
C 	C 	0.22653 0.92900 0.94530 -0.15500
H 	H 	0.22800 0.97300 0.94860 0.08400
C 	C 	0.25570 0.89230 0.97770 0.09300
H 	H 	0.27710 0.91050 0.00350 0.00400
C 	C 	0.25257 0.82880 0.97140 -0.15600
H 	H 	0.27240 0.80260 0.99250 0.11000
C 	C 	0.22040 0.80240 0.93398 0.09400
H 	H 	0.21880 0.75840 0.93090 0.01200
C 	C 	0.29791 0.57610 0.63360 0.09600
H 	H 	0.29640 0.56700 0.66470 0.00000
C 	C 	0.33288 0.56720 0.62910 -0.17900
H 	H 	0.35400 0.55100 0.65660 0.10700
C 	C 	0.33594 0.58240 0.58450 0.09800
H 	H 	0.35930 0.57770 0.58130 -0.03000
C 	C 	0.30399 0.60470 0.54430 -0.18100
H 	H 	0.30510 0.61480 0.51310 0.10300
C 	C 	0.27013 0.61170 0.55110 0.09900
H 	H 	0.24860 0.62740 0.52390 -0.01300
O 	O 	0.96372 0.98050 0.71686 -0.45300
P 	P 	0.99397 0.00674 0.76245 0.30700
O 	O 	0.97948 0.98800 0.80370 -0.36900
C 	C 	0.95270 0.04840 0.81900 0.11700
H 	H 	0.93470 0.04360 0.78540 0.01600
C 	C 	0.95560 0.10580 0.84090 -0.14100
H 	H 	0.94000 0.13980 0.82410 0.08800
C 	C 	0.98340 0.11090 0.89000 0.04100
H 	H 	0.98740 0.15000 0.90660 0.01300
C 	C 	0.00530 0.06060 0.91510 -0.08500
H 	H 	0.02380 0.06750 0.94810 0.04000
C 	C 	0.00200 0.99950 0.89500 -0.00700
H 	H 	0.01590 0.96460 0.91310 0.00500
N 	N 	0.97413 0.99720 0.84210 -0.10600
N 	N 	0.13991 0.67370 0.43925 -0.24200
N 	N 	0.09838 0.95880 0.61634 -0.23500
N 	N 	0.19110 0.83773 0.90162 -0.23900
N 	N 	0.26658 0.59734 0.59457 -0.25200
Mo	Mo	0.86037 0.81998 0.94074 1.09800
Mo	Mo	0.77303 0.64898 0.76260 1.10200
Mo	Mo	0.76056 0.74536 0.81015 1.09800
Mo	Mo	0.93814 0.82485 0.61457 1.10400
Mo	Mo	0.92347 0.75934 0.95425 1.10600
Mo	Mo	0.92970 0.92143 0.66561 1.10300
Co	Co	0.85647 0.79555 0.65794 1.17700
Co	Co	0.89464 0.87176 0.84252 1.14500
Co	Co	0.81911 0.80480 0.74213 1.13100
Co	Co	0.78696 0.60859 0.89903 1.13400
Co	Co	0.85540 0.65451 0.98503 1.13100
Co	Co	0.03531 0.90435 0.69441 1.18900
P 	P 	0.87192 0.92409 0.72968 0.52800
P 	P 	0.84916 0.68166 0.87031 0.46700
P 	P 	0.94421 0.78121 0.73053 0.48100
P 	P 	0.80576 0.88593 0.82930 0.52100
P 	P 	0.98269 0.81218 0.90413 0.49600
P 	P 	0.87455 0.70301 0.57423 0.54400
P 	P 	0.77961 0.75351 0.93589 0.60800
P 	P 	0.77372 0.50207 0.80774 0.50500
P 	P 	0.79633 0.68236 0.66854 0.51500
P 	P 	0.94824 0.62675 0.02327 0.52300
O 	O 	0.88410 0.63236 0.57488 -0.41300
H 	H 	0.86440 0.62130 0.55220 0.27200
O 	O 	0.81312 0.64370 0.63502 -0.20200
O 	O 	0.75451 0.70057 0.63598 -0.50300
H 	H 	0.74680 0.66500 0.62960 0.27700
O 	O 	0.89475 0.82535 0.90504 -0.64400
O 	O 	0.90346 0.76135 0.72063 -0.37800
O 	O 	0.90260 0.91777 0.78451 -0.52600
O 	O 	0.89664 0.84713 0.63701 -0.61100
O 	O 	0.83266 0.86970 0.80264 -0.53200
O 	O 	0.94981 0.85375 0.73991 -0.47800
O 	O 	0.82624 0.74419 0.86938 -0.42500
O 	O 	0.97532 0.88441 0.66097 -0.60200
O 	O 	0.88077 0.73936 0.97518 -0.62000
O 	O 	0.79893 0.63645 0.71167 -0.35900
O 	O 	0.78334 0.74078 0.76008 -0.62400
O 	O 	0.89003 0.94933 0.69485 -0.40900
O 	O 	0.84349 0.63272 0.90779 -0.50000
O 	O 	0.95509 0.85500 0.86166 -0.52500
O 	O 	0.81232 0.80248 0.95399 -0.41100
O 	O 	0.76520 0.65505 0.82751 -0.61600
O 	O 	0.83521 0.65174 0.81659 -0.31500
O 	O 	0.84255 0.97771 0.72987 -0.22400
O 	O 	0.82672 0.88405 0.88794 -0.39800
O 	O 	0.75238 0.76922 0.96187 -0.51300
H 	H 	0.73171 0.76900 0.96390 0.32100
O 	O 	0.79132 0.95584 0.81685 -0.20200
O 	O 	0.84983 0.86293 0.71020 -0.54100
O 	O 	0.96146 0.75805 0.91701 -0.34000
O 	O 	0.82170 0.74145 0.68889 -0.50500
O 	O 	0.79730 0.68650 0.94940 -0.55800
O 	O 	0.95665 0.76341 0.68673 -0.28100
O 	O 	0.75507 0.76139 0.87833 -0.40500
O 	O 	0.77062 0.84234 0.81062 -0.38800
O 	O 	0.85726 0.71888 0.61216 -0.36500
O 	O 	0.00169 0.85599 0.95292 -0.28300
O 	O 	0.01412 0.78193 0.89083 -0.33400
O 	O 	0.89195 0.69780 0.88730 -0.31800
O 	O 	0.78174 0.52424 0.86242 -0.40200
O 	O 	0.95000 0.67481 0.98423 -0.35700
O 	O 	0.96953 0.74420 0.78074 -0.17300
O 	O 	0.91095 0.73916 0.58348 -0.35500
O 	O 	0.73396 0.47459 0.78087 -0.22400
O 	O 	0.78272 0.55253 0.77596 -0.35200
O 	O 	0.84341 0.72050 0.51958 -0.24800
O 	O 	0.90768 0.60696 0.01356 -0.39200
O 	O 	0.80334 0.44585 0.81429 -0.18700
O 	O 	0.96963 0.56680 0.01781 -0.16200
O 	O 	0.96874 0.65200 0.07625 -0.23400
C 	C 	0.87900 0.63370 0.09880 0.07500
H 	H 	0.89010 0.59750 0.09180 0.01100
C 	C 	0.88280 0.64480 0.14950 -0.13200
H 	H 	0.89770 0.61800 0.17610 0.10000
C 	C 	0.86410 0.69520 0.15880 0.07000
H 	H 	0.86590 0.70260 0.19200 0.00900
C 	C 	0.84260 0.73530 0.11970 -0.14000
H 	H 	0.82890 0.76900 0.12540 0.08100
C 	C 	0.84208 0.72370 0.07160 0.06700
H 	H 	0.82870 0.75180 0.04520 -0.00300
C 	C 	0.88108 0.01100 0.86130 0.07800
H 	H 	0.86390 0.00850 0.82710 0.01600
C 	C 	0.88430 0.06850 0.88690 -0.14700
H 	H 	0.87000 0.10350 0.86960 0.07800
C 	C 	0.90800 0.07340 0.93640 0.08300
H 	H 	0.91050 0.11140 0.95410 -0.00500
C 	C 	0.92810 0.02150 0.95980 -0.16600
H 	H 	0.94480 0.02380 0.99420 0.07700
C 	C 	0.92465 0.96490 0.93370 0.08300
H 	H 	0.93870 0.92980 0.95130 -0.03000
C 	C 	0.80536 0.90130 0.59247 0.08100
H 	H 	0.82490 0.92720 0.61440 -0.00600
C 	C 	0.77347 0.92900 0.55470 -0.15200
H 	H 	0.77200 0.97300 0.55140 0.08300
C 	C 	0.74430 0.89230 0.52230 0.08800
H 	H 	0.72290 0.91050 0.49650 0.00600
C 	C 	0.74743 0.82880 0.52860 -0.15200
H 	H 	0.72760 0.80260 0.50750 0.10900
C 	C 	0.77960 0.80240 0.56602 0.09200
H 	H 	0.78120 0.75840 0.56910 0.01300
C 	C 	0.70209 0.57610 0.86640 0.09600
H 	H 	0.70360 0.56700 0.83530 0.00000
C 	C 	0.66712 0.56720 0.87090 -0.17900
H 	H 	0.64600 0.55100 0.84340 0.10700
C 	C 	0.66406 0.58240 0.91550 0.09800
H 	H 	0.64070 0.57770 0.91870 -0.03000
C 	C 	0.69601 0.60470 0.95570 -0.18100
H 	H 	0.69490 0.61480 0.98690 0.10400
C 	C 	0.72987 0.61170 0.94890 0.09900
H 	H 	0.75140 0.62740 0.97610 -0.01300
O 	O 	0.03628 0.98050 0.78314 -0.45200
P 	P 	0.00603 0.00674 0.73755 0.32100
O 	O 	0.02052 0.98800 0.69630 -0.37200
C 	C 	0.04730 0.04840 0.68100 0.12000
H 	H 	0.06530 0.04360 0.71460 0.01500
C 	C 	0.04440 0.10580 0.65910 -0.14600
H 	H 	0.06000 0.13980 0.67590 0.09000
C 	C 	0.01660 0.11090 0.61000 0.05000
H 	H 	0.01260 0.15000 0.59340 0.01100
C 	C 	0.99470 0.06060 0.58490 -0.09200
H 	H 	0.97620 0.06750 0.55190 0.04200
C 	C 	0.99800 0.99950 0.60500 -0.00900
H 	H 	0.98410 0.96460 0.58690 0.00400
N 	N 	0.02587 0.99720 0.65790 -0.10500
N 	N 	0.86009 0.67370 0.06075 -0.24200
N 	N 	0.90162 0.95880 0.88366 -0.23500
N 	N 	0.80890 0.83773 0.59838 -0.23800
N 	N 	0.73342 0.59734 0.90543 -0.25200
O 	O 	-0.00000 0.07590 0.75000 -0.23500
Mo	Mo	0.63963 0.31998 0.55926 1.09800
Mo	Mo	0.72697 0.14898 0.73740 1.10200
Mo	Mo	0.73944 0.24536 0.68985 1.09800
Mo	Mo	0.56186 0.32485 0.88543 1.10400
Mo	Mo	0.57653 0.25934 0.54575 1.10600
Mo	Mo	0.57030 0.42143 0.83439 1.10300
Co	Co	0.64353 0.29555 0.84206 1.17700
Co	Co	0.60536 0.37176 0.65748 1.14500
Co	Co	0.68089 0.30480 0.75787 1.13100
Co	Co	0.71304 0.10859 0.60097 1.13400
Co	Co	0.64460 0.15451 0.51497 1.13100
Co	Co	0.46469 0.40435 0.80559 1.18900
P 	P 	0.62808 0.42409 0.77032 0.52800
P 	P 	0.65084 0.18166 0.62969 0.46700
P 	P 	0.55579 0.28121 0.76947 0.48100
P 	P 	0.69424 0.38593 0.67070 0.52100
P 	P 	0.51731 0.31218 0.59587 0.49800
P 	P 	0.62545 0.20301 0.92577 0.54400
P 	P 	0.72039 0.25351 0.56411 0.60800
P 	P 	0.72628 0.00207 0.69226 0.50400
P 	P 	0.70367 0.18236 0.83146 0.51500
P 	P 	0.55176 0.12675 0.47673 0.52300
O 	O 	0.61590 0.13236 0.92512 -0.41300
H 	H 	0.63560 0.12130 0.94780 0.27200
O 	O 	0.68688 0.14370 0.86498 -0.20200
O 	O 	0.74549 0.20057 0.86402 -0.50300
H 	H 	0.75320 0.16500 0.87040 0.27700
O 	O 	0.60525 0.32535 0.59496 -0.64400
O 	O 	0.59654 0.26135 0.77937 -0.37800
O 	O 	0.59740 0.41777 0.71549 -0.52600
O 	O 	0.60336 0.34713 0.86299 -0.61100
O 	O 	0.66734 0.36970 0.69736 -0.53200
O 	O 	0.55019 0.35375 0.76009 -0.47800
O 	O 	0.67376 0.24419 0.63062 -0.42500
O 	O 	0.52468 0.38441 0.83903 -0.60200
O 	O 	0.61923 0.23936 0.52482 -0.62000
O 	O 	0.70107 0.13645 0.78833 -0.35900
O 	O 	0.71666 0.24078 0.73992 -0.62400
O 	O 	0.60997 0.44933 0.80515 -0.40900
O 	O 	0.65651 0.13272 0.59221 -0.50000
O 	O 	0.54491 0.35500 0.63834 -0.52500
O 	O 	0.68768 0.30248 0.54601 -0.41100
O 	O 	0.73480 0.15505 0.67249 -0.61600
O 	O 	0.66479 0.15174 0.68341 -0.31500
O 	O 	0.65745 0.47771 0.77013 -0.22400
O 	O 	0.67328 0.38405 0.61206 -0.39800
O 	O 	0.74762 0.26922 0.53813 -0.51300
H 	H 	0.76829 0.26900 0.53610 0.32100
O 	O 	0.70868 0.45584 0.68315 -0.20200
O 	O 	0.65017 0.36293 0.78980 -0.54100
O 	O 	0.53854 0.25805 0.58299 -0.34000
O 	O 	0.67830 0.24145 0.81111 -0.50500
O 	O 	0.70270 0.18650 0.55060 -0.55800
O 	O 	0.54335 0.26341 0.81327 -0.28100
O 	O 	0.74493 0.26139 0.62167 -0.40500
O 	O 	0.72938 0.34234 0.68938 -0.38800
O 	O 	0.64274 0.21888 0.88784 -0.36500
O 	O 	0.49831 0.35599 0.54708 -0.28500
O 	O 	0.48588 0.28193 0.60917 -0.33500
O 	O 	0.60805 0.19780 0.61270 -0.31800
O 	O 	0.71826 0.02424 0.63758 -0.40300
O 	O 	0.55000 0.17481 0.51577 -0.35600
O 	O 	0.53047 0.24420 0.71926 -0.17200
O 	O 	0.58905 0.23916 0.91652 -0.35500
O 	O 	0.76604 0.97459 0.71913 -0.22300
O 	O 	0.71728 0.05253 0.72404 -0.35200
O 	O 	0.65659 0.22050 0.98042 -0.24800
O 	O 	0.59232 0.10696 0.48644 -0.39200
O 	O 	0.69666 0.94585 0.68571 -0.18700
O 	O 	0.53037 0.06680 0.48219 -0.16100
O 	O 	0.53126 0.15200 0.42375 -0.23400
C 	C 	0.62100 0.13370 0.40120 0.07600
H 	H 	0.60990 0.09750 0.40820 0.01100
C 	C 	0.61720 0.14480 0.35050 -0.13200
H 	H 	0.60230 0.11800 0.32390 0.10000
C 	C 	0.63590 0.19520 0.34120 0.07000
H 	H 	0.63410 0.20260 0.30800 0.00900
C 	C 	0.65740 0.23530 0.38030 -0.14000
H 	H 	0.67110 0.26900 0.37460 0.08100
C 	C 	0.65792 0.22370 0.42840 0.06700
H 	H 	0.67130 0.25180 0.45480 -0.00300
C 	C 	0.61892 0.51100 0.63870 0.07800
H 	H 	0.63610 0.50850 0.67290 0.01600
C 	C 	0.61570 0.56850 0.61310 -0.14600
H 	H 	0.63000 0.60350 0.63040 0.07800
C 	C 	0.59200 0.57340 0.56360 0.08200
H 	H 	0.58950 0.61140 0.54590 -0.00400
C 	C 	0.57190 0.52150 0.54020 -0.16300
H 	H 	0.55520 0.52380 0.50580 0.07600
C 	C 	0.57535 0.46490 0.56630 0.08100
H 	H 	0.56130 0.42980 0.54870 -0.02900
C 	C 	0.69464 0.40130 0.90753 0.08000
H 	H 	0.67510 0.42720 0.88560 -0.00600
C 	C 	0.72653 0.42900 0.94530 -0.15100
H 	H 	0.72800 0.47300 0.94860 0.08300
C 	C 	0.75570 0.39230 0.97770 0.08600
H 	H 	0.77710 0.41050 0.00350 0.00700
C 	C 	0.75257 0.32880 0.97140 -0.15200
H 	H 	0.77240 0.30260 0.99250 0.10800
C 	C 	0.72040 0.30240 0.93398 0.09200
H 	H 	0.71880 0.25840 0.93090 0.01300
C 	C 	0.79791 0.07610 0.63360 0.09600
H 	H 	0.79640 0.06700 0.66470 0.00000
C 	C 	0.83288 0.06720 0.62910 -0.17900
H 	H 	0.85400 0.05100 0.65660 0.10700
C 	C 	0.83594 0.08240 0.58450 0.09800
H 	H 	0.85930 0.07770 0.58130 -0.03000
C 	C 	0.80399 0.10470 0.54430 -0.18100
H 	H 	0.80510 0.11480 0.51310 0.10300
C 	C 	0.77013 0.11170 0.55110 0.09900
H 	H 	0.74860 0.12740 0.52390 -0.01300
O 	O 	0.46372 0.48050 0.71686 -0.45300
P 	P 	0.49397 0.50674 0.76245 0.31500
O 	O 	0.47948 0.48800 0.80370 -0.37100
C 	C 	0.45270 0.54840 0.81900 0.11900
H 	H 	0.43470 0.54360 0.78540 0.01600
C 	C 	0.45560 0.60580 0.84090 -0.14400
H 	H 	0.44000 0.63980 0.82410 0.08900
C 	C 	0.48340 0.61090 0.89000 0.04500
H 	H 	0.48740 0.65000 0.90660 0.01200
C 	C 	0.50530 0.56060 0.91510 -0.08800
H 	H 	0.52380 0.56750 0.94810 0.04100
C 	C 	0.50200 0.49950 0.89500 -0.00800
H 	H 	0.51590 0.46460 0.91310 0.00500
N 	N 	0.47413 0.49720 0.84210 -0.10500
N 	N 	0.63991 0.17370 0.43925 -0.24200
N 	N 	0.59838 0.45880 0.61634 -0.23500
N 	N 	0.69110 0.33773 0.90162 -0.23800
N 	N 	0.76658 0.09734 0.59457 -0.25200
Mo	Mo	0.36037 0.31998 0.94074 1.09800
Mo	Mo	0.27303 0.14898 0.76260 1.10200
Mo	Mo	0.26056 0.24536 0.81015 1.09800
Mo	Mo	0.43814 0.32485 0.61457 1.10400
Mo	Mo	0.42347 0.25934 0.95425 1.10600
Mo	Mo	0.42970 0.42143 0.66561 1.10300
Co	Co	0.35647 0.29555 0.65794 1.17700
Co	Co	0.39464 0.37176 0.84252 1.14500
Co	Co	0.31911 0.30480 0.74213 1.13100
Co	Co	0.28696 0.10859 0.89903 1.13400
Co	Co	0.35540 0.15451 0.98503 1.13000
Co	Co	0.53531 0.40435 0.69441 1.18900
P 	P 	0.37192 0.42409 0.72968 0.52800
P 	P 	0.34916 0.18166 0.87031 0.46700
P 	P 	0.44421 0.28121 0.73053 0.48100
P 	P 	0.30576 0.38593 0.82930 0.52100
P 	P 	0.48269 0.31218 0.90413 0.49800
P 	P 	0.37455 0.20301 0.57423 0.54400
P 	P 	0.27961 0.25351 0.93589 0.60800
P 	P 	0.27372 0.00207 0.80774 0.50400
P 	P 	0.29633 0.18236 0.66854 0.51500
P 	P 	0.44824 0.12675 0.02327 0.52400
O 	O 	0.38410 0.13236 0.57488 -0.41300
H 	H 	0.36440 0.12130 0.55220 0.27200
O 	O 	0.31312 0.14370 0.63502 -0.20200
O 	O 	0.25451 0.20057 0.63598 -0.50300
H 	H 	0.24680 0.16500 0.62960 0.27700
O 	O 	0.39475 0.32535 0.90504 -0.64400
O 	O 	0.40346 0.26135 0.72063 -0.37800
O 	O 	0.40260 0.41777 0.78451 -0.52600
O 	O 	0.39664 0.34713 0.63701 -0.61100
O 	O 	0.33266 0.36970 0.80264 -0.53200
O 	O 	0.44981 0.35375 0.73991 -0.47800
O 	O 	0.32624 0.24419 0.86938 -0.42500
O 	O 	0.47532 0.38441 0.66097 -0.60200
O 	O 	0.38077 0.23936 0.97518 -0.62000
O 	O 	0.29893 0.13645 0.71167 -0.35900
O 	O 	0.28334 0.24078 0.76008 -0.62400
O 	O 	0.39003 0.44933 0.69485 -0.40900
O 	O 	0.34349 0.13272 0.90779 -0.50000
O 	O 	0.45509 0.35500 0.86166 -0.52500
O 	O 	0.31232 0.30248 0.95399 -0.41100
O 	O 	0.26520 0.15505 0.82751 -0.61600
O 	O 	0.33521 0.15174 0.81659 -0.31500
O 	O 	0.34255 0.47771 0.72987 -0.22400
O 	O 	0.32672 0.38405 0.88794 -0.39800
O 	O 	0.25238 0.26922 0.96187 -0.51300
H 	H 	0.23171 0.26900 0.96390 0.32100
O 	O 	0.29132 0.45584 0.81685 -0.20200
O 	O 	0.34983 0.36293 0.71020 -0.54100
O 	O 	0.46146 0.25805 0.91701 -0.34000
O 	O 	0.32170 0.24145 0.68889 -0.50500
O 	O 	0.29730 0.18650 0.94940 -0.55800
O 	O 	0.45665 0.26341 0.68673 -0.28100
O 	O 	0.25507 0.26139 0.87833 -0.40500
O 	O 	0.27062 0.34234 0.81062 -0.38800
O 	O 	0.35726 0.21888 0.61216 -0.36500
O 	O 	0.50169 0.35599 0.95292 -0.28500
O 	O 	0.51412 0.28193 0.89083 -0.33500
O 	O 	0.39195 0.19780 0.88730 -0.31800
O 	O 	0.28174 0.02424 0.86242 -0.40300
O 	O 	0.45000 0.17481 0.98423 -0.35700
O 	O 	0.46953 0.24420 0.78074 -0.17200
O 	O 	0.41095 0.23916 0.58348 -0.35500
O 	O 	0.23396 0.97459 0.78087 -0.22300
O 	O 	0.28272 0.05253 0.77596 -0.35200
O 	O 	0.34341 0.22050 0.51958 -0.24800
O 	O 	0.40768 0.10696 0.01356 -0.39100
O 	O 	0.30334 0.94585 0.81429 -0.18700
O 	O 	0.46963 0.06680 0.01781 -0.16100
O 	O 	0.46874 0.15200 0.07625 -0.23400
C 	C 	0.37900 0.13370 0.09880 0.07600
H 	H 	0.39010 0.09750 0.09180 0.01100
C 	C 	0.38280 0.14480 0.14950 -0.13200
H 	H 	0.39770 0.11800 0.17610 0.10000
C 	C 	0.36410 0.19520 0.15880 0.07000
H 	H 	0.36590 0.20260 0.19200 0.00900
C 	C 	0.34260 0.23530 0.11970 -0.14000
H 	H 	0.32890 0.26900 0.12540 0.08100
C 	C 	0.34208 0.22370 0.07160 0.06700
H 	H 	0.32870 0.25180 0.04520 -0.00300
C 	C 	0.38108 0.51100 0.86130 0.07800
H 	H 	0.36390 0.50850 0.82710 0.01600
C 	C 	0.38430 0.56850 0.88690 -0.14600
H 	H 	0.37000 0.60350 0.86960 0.07800
C 	C 	0.40800 0.57340 0.93640 0.08200
H 	H 	0.41050 0.61140 0.95410 -0.00400
C 	C 	0.42810 0.52150 0.95980 -0.16300
H 	H 	0.44480 0.52380 0.99420 0.07600
C 	C 	0.42465 0.46490 0.93370 0.08100
H 	H 	0.43870 0.42980 0.95130 -0.02900
C 	C 	0.30536 0.40130 0.59247 0.08100
H 	H 	0.32490 0.42720 0.61440 -0.00600
C 	C 	0.27347 0.42900 0.55470 -0.15200
H 	H 	0.27200 0.47300 0.55140 0.08300
C 	C 	0.24430 0.39230 0.52230 0.08800
H 	H 	0.22290 0.41050 0.49650 0.00600
C 	C 	0.24743 0.32880 0.52860 -0.15200
H 	H 	0.22760 0.30260 0.50750 0.10900
C 	C 	0.27960 0.30240 0.56602 0.09200
H 	H 	0.28120 0.25840 0.56910 0.01300
C 	C 	0.20209 0.07610 0.86640 0.09600
H 	H 	0.20360 0.06700 0.83530 0.00000
C 	C 	0.16712 0.06720 0.87090 -0.17900
H 	H 	0.14600 0.05100 0.84340 0.10700
C 	C 	0.16406 0.08240 0.91550 0.09800
H 	H 	0.14070 0.07770 0.91870 -0.03000
C 	C 	0.19601 0.10470 0.95570 -0.18100
H 	H 	0.19490 0.11480 0.98690 0.10300
C 	C 	0.22987 0.11170 0.94890 0.09800
H 	H 	0.25140 0.12740 0.97610 -0.01300
O 	O 	0.53628 0.48050 0.78314 -0.45300
P 	P 	0.50603 0.50674 0.73755 0.31500
O 	O 	0.52052 0.48800 0.69630 -0.37100
C 	C 	0.54730 0.54840 0.68100 0.11900
H 	H 	0.56530 0.54360 0.71460 0.01600
C 	C 	0.54440 0.60580 0.65910 -0.14400
H 	H 	0.56000 0.63980 0.67590 0.08900
C 	C 	0.51660 0.61090 0.61000 0.04500
H 	H 	0.51260 0.65000 0.59340 0.01200
C 	C 	0.49470 0.56060 0.58490 -0.08800
H 	H 	0.47620 0.56750 0.55190 0.04100
C 	C 	0.49800 0.49950 0.60500 -0.00800
H 	H 	0.48410 0.46460 0.58690 0.00500
N 	N 	0.52587 0.49720 0.65790 -0.10500
N 	N 	0.36009 0.17370 0.06075 -0.24200
N 	N 	0.40162 0.45880 0.88366 -0.23500
N 	N 	0.30890 0.33773 0.59838 -0.23800
N 	N 	0.23342 0.09734 0.90543 -0.25200
O 	O 	0.50000 0.57590 0.75000 -0.23600
Mo	Mo	0.86037 0.18002 0.44074 1.09800
Mo	Mo	0.77303 0.35102 0.26260 1.10200
Mo	Mo	0.76056 0.25464 0.31015 1.09800
Mo	Mo	0.93814 0.17515 0.11457 1.10400
Mo	Mo	0.92347 0.24066 0.45425 1.10600
Mo	Mo	0.92970 0.07857 0.16561 1.10300
Co	Co	0.85647 0.20445 0.15794 1.17700
Co	Co	0.89464 0.12824 0.34252 1.14500
Co	Co	0.81911 0.19520 0.24213 1.13100
Co	Co	0.78696 0.39141 0.39903 1.13400
Co	Co	0.85540 0.34549 0.48503 1.13100
Co	Co	0.03531 0.09565 0.19441 1.18900
P 	P 	0.87192 0.07591 0.22968 0.52800
P 	P 	0.84916 0.31834 0.37031 0.46700
P 	P 	0.94421 0.21879 0.23053 0.48100
P 	P 	0.80576 0.11407 0.32930 0.52100
P 	P 	0.98269 0.18782 0.40413 0.49600
P 	P 	0.87455 0.29699 0.07423 0.54400
P 	P 	0.77961 0.24649 0.43589 0.60800
P 	P 	0.77372 0.49793 0.30774 0.50500
P 	P 	0.79633 0.31764 0.16854 0.51500
P 	P 	0.94824 0.37325 0.52327 0.52300
O 	O 	0.88410 0.36764 0.07488 -0.41300
H 	H 	0.86440 0.37870 0.05220 0.27200
O 	O 	0.81312 0.35630 0.13502 -0.20100
O 	O 	0.75451 0.29943 0.13598 -0.50300
H 	H 	0.74680 0.33500 0.12960 0.27700
O 	O 	0.89475 0.17465 0.40504 -0.64400
O 	O 	0.90346 0.23865 0.22063 -0.37800
O 	O 	0.90260 0.08223 0.28451 -0.52600
O 	O 	0.89664 0.15287 0.13701 -0.61100
O 	O 	0.83266 0.13030 0.30264 -0.53200
O 	O 	0.94981 0.14625 0.23991 -0.47800
O 	O 	0.82624 0.25581 0.36938 -0.42500
O 	O 	0.97532 0.11559 0.16097 -0.60200
O 	O 	0.88077 0.26064 0.47518 -0.62000
O 	O 	0.79893 0.36355 0.21167 -0.35900
O 	O 	0.78334 0.25922 0.26008 -0.62400
O 	O 	0.89003 0.05067 0.19485 -0.40800
O 	O 	0.84349 0.36728 0.40779 -0.50000
O 	O 	0.95509 0.14500 0.36166 -0.52500
O 	O 	0.81232 0.19752 0.45399 -0.41100
O 	O 	0.76520 0.34495 0.32751 -0.61600
O 	O 	0.83521 0.34826 0.31659 -0.31500
O 	O 	0.84255 0.02229 0.22987 -0.22400
O 	O 	0.82672 0.11595 0.38794 -0.39800
O 	O 	0.75238 0.23078 0.46187 -0.51300
H 	H 	0.73171 0.23100 0.46390 0.32100
O 	O 	0.79132 0.04416 0.31685 -0.20200
O 	O 	0.84983 0.13707 0.21020 -0.54100
O 	O 	0.96146 0.24195 0.41701 -0.34000
O 	O 	0.82170 0.25855 0.18889 -0.50500
O 	O 	0.79730 0.31350 0.44940 -0.55800
O 	O 	0.95665 0.23659 0.18673 -0.28100
O 	O 	0.75507 0.23861 0.37833 -0.40500
O 	O 	0.77062 0.15766 0.31062 -0.38800
O 	O 	0.85726 0.28112 0.11216 -0.36500
O 	O 	0.00169 0.14401 0.45292 -0.28400
O 	O 	0.01412 0.21807 0.39083 -0.33400
O 	O 	0.89195 0.30220 0.38730 -0.31800
O 	O 	0.78174 0.47576 0.36242 -0.40200
O 	O 	0.95000 0.32519 0.48423 -0.35700
O 	O 	0.96953 0.25580 0.28074 -0.17200
O 	O 	0.91095 0.26084 0.08348 -0.35500
O 	O 	0.73396 0.52541 0.28087 -0.22400
O 	O 	0.78272 0.44747 0.27596 -0.35200
O 	O 	0.84341 0.27950 0.01958 -0.24800
O 	O 	0.90768 0.39304 0.51356 -0.39200
O 	O 	0.80334 0.55415 0.31429 -0.18700
O 	O 	0.96963 0.43320 0.51781 -0.16200
O 	O 	0.96874 0.34800 0.57625 -0.23400
C 	C 	0.87900 0.36630 0.59880 0.07500
H 	H 	0.89010 0.40250 0.59180 0.01100
C 	C 	0.88280 0.35520 0.64950 -0.13200
H 	H 	0.89770 0.38200 0.67610 0.10000
C 	C 	0.86410 0.30480 0.65880 0.07000
H 	H 	0.86590 0.29740 0.69200 0.00900
C 	C 	0.84260 0.26470 0.61970 -0.14000
H 	H 	0.82890 0.23100 0.62540 0.08100
C 	C 	0.84208 0.27630 0.57160 0.06700
H 	H 	0.82870 0.24820 0.54520 -0.00300
C 	C 	0.88108 0.98900 0.36130 0.07800
H 	H 	0.86390 0.99150 0.32710 0.01600
C 	C 	0.88430 0.93150 0.38690 -0.14600
H 	H 	0.87000 0.89650 0.36960 0.07800
C 	C 	0.90800 0.92660 0.43640 0.08200
H 	H 	0.91050 0.88860 0.45410 -0.00400
C 	C 	0.92810 0.97850 0.45980 -0.16400
H 	H 	0.94480 0.97620 0.49420 0.07600
C 	C 	0.92465 0.03510 0.43370 0.08100
H 	H 	0.93870 0.07020 0.45130 -0.03000
C 	C 	0.80536 0.09870 0.09247 0.08300
H 	H 	0.82490 0.07280 0.11440 -0.00600
C 	C 	0.77347 0.07100 0.05470 -0.15500
H 	H 	0.77200 0.02700 0.05140 0.08400
C 	C 	0.74430 0.10770 0.02230 0.09300
H 	H 	0.72290 0.08950 0.99650 0.00400
C 	C 	0.74743 0.17120 0.02860 -0.15600
H 	H 	0.72760 0.19740 0.00750 0.11000
C 	C 	0.77960 0.19760 0.06602 0.09400
H 	H 	0.78120 0.24160 0.06910 0.01200
C 	C 	0.70209 0.42390 0.36640 0.09600
H 	H 	0.70360 0.43300 0.33530 0.00000
C 	C 	0.66712 0.43280 0.37090 -0.17900
H 	H 	0.64600 0.44900 0.34340 0.10700
C 	C 	0.66406 0.41760 0.41550 0.09800
H 	H 	0.64070 0.42230 0.41870 -0.03000
C 	C 	0.69601 0.39530 0.45570 -0.18100
H 	H 	0.69490 0.38520 0.48690 0.10300
C 	C 	0.72987 0.38830 0.44890 0.09900
H 	H 	0.75140 0.37260 0.47610 -0.01300
O 	O 	0.03628 0.01950 0.28314 -0.45200
P 	P 	0.00603 0.99326 0.23755 0.32000
O 	O 	0.02052 0.01200 0.19630 -0.37100
C 	C 	0.04730 0.95160 0.18100 0.12000
H 	H 	0.06530 0.95640 0.21460 0.01500
C 	C 	0.04440 0.89420 0.15910 -0.14700
H 	H 	0.06000 0.86020 0.17590 0.09000
C 	C 	0.01660 0.88910 0.11000 0.05000
H 	H 	0.01260 0.85000 0.09340 0.01000
C 	C 	0.99470 0.93940 0.08490 -0.09300
H 	H 	0.97620 0.93250 0.05190 0.04200
C 	C 	0.99800 0.00050 0.10500 -0.00700
H 	H 	0.98410 0.03540 0.08690 0.00400
N 	N 	0.02587 0.00280 0.15790 -0.10500
N 	N 	0.86009 0.32630 0.56075 -0.24200
N 	N 	0.90162 0.04120 0.38366 -0.23500
N 	N 	0.80890 0.16227 0.09838 -0.23900
N 	N 	0.73342 0.40266 0.40543 -0.25200
Mo	Mo	0.13963 0.18002 0.05926 1.09900
Mo	Mo	0.22697 0.35102 0.23740 1.10200
Mo	Mo	0.23944 0.25464 0.18985 1.09800
Mo	Mo	0.06186 0.17515 0.38543 1.10400
Mo	Mo	0.07653 0.24066 0.04575 1.10600
Mo	Mo	0.07030 0.07857 0.33439 1.10300
Co	Co	0.14353 0.20445 0.34206 1.17700
Co	Co	0.10536 0.12824 0.15748 1.14500
Co	Co	0.18089 0.19520 0.25787 1.13100
Co	Co	0.21304 0.39141 0.10097 1.13400
Co	Co	0.14460 0.34549 0.01497 1.13100
Co	Co	0.96469 0.09565 0.30559 1.18900
P 	P 	0.12808 0.07591 0.27032 0.52800
P 	P 	0.15084 0.31834 0.12969 0.46700
P 	P 	0.05579 0.21879 0.26947 0.48100
P 	P 	0.19424 0.11407 0.17070 0.52100
P 	P 	0.01731 0.18782 0.09587 0.50000
P 	P 	0.12545 0.29699 0.42577 0.54400
P 	P 	0.22039 0.24649 0.06411 0.60800
P 	P 	0.22628 0.49793 0.19226 0.50500
P 	P 	0.20367 0.31764 0.33146 0.51500
P 	P 	0.05176 0.37325 0.97673 0.52300
O 	O 	0.11590 0.36764 0.42512 -0.41300
H 	H 	0.13560 0.37870 0.44780 0.27200
O 	O 	0.18688 0.35630 0.36498 -0.20100
O 	O 	0.24549 0.29943 0.36402 -0.50300
H 	H 	0.25320 0.33500 0.37040 0.27700
O 	O 	0.10525 0.17465 0.09496 -0.64300
O 	O 	0.09654 0.23865 0.27937 -0.37700
O 	O 	0.09740 0.08223 0.21549 -0.52600
O 	O 	0.10336 0.15287 0.36299 -0.61100
O 	O 	0.16734 0.13030 0.19736 -0.53200
O 	O 	0.05019 0.14625 0.26009 -0.47700
O 	O 	0.17376 0.25581 0.13062 -0.42500
O 	O 	0.02468 0.11559 0.33903 -0.60100
O 	O 	0.11923 0.26064 0.02482 -0.62000
O 	O 	0.20107 0.36355 0.28833 -0.35900
O 	O 	0.21666 0.25922 0.23992 -0.62400
O 	O 	0.10997 0.05067 0.30515 -0.40900
O 	O 	0.15651 0.36728 0.09221 -0.50000
O 	O 	0.04491 0.14500 0.13834 -0.52500
O 	O 	0.18768 0.19752 0.04601 -0.41100
O 	O 	0.23480 0.34495 0.17249 -0.61600
O 	O 	0.16479 0.34826 0.18341 -0.31500
O 	O 	0.15745 0.02229 0.27013 -0.22400
O 	O 	0.17328 0.11595 0.11206 -0.39800
O 	O 	0.24762 0.23078 0.03813 -0.51300
H 	H 	0.26829 0.23100 0.03610 0.32100
O 	O 	0.20868 0.04416 0.18315 -0.20200
O 	O 	0.15017 0.13707 0.28980 -0.54100
O 	O 	0.03854 0.24195 0.08299 -0.34000
O 	O 	0.17830 0.25855 0.31111 -0.50500
O 	O 	0.20270 0.31350 0.05060 -0.55800
O 	O 	0.04335 0.23659 0.31327 -0.28100
O 	O 	0.24493 0.23861 0.12167 -0.40500
O 	O 	0.22938 0.15766 0.18938 -0.38800
O 	O 	0.14274 0.28112 0.38784 -0.36500
O 	O 	0.99831 0.14401 0.04708 -0.28600
O 	O 	0.98588 0.21807 0.10917 -0.33600
O 	O 	0.10805 0.30220 0.11270 -0.31800
O 	O 	0.21826 0.47576 0.13758 -0.40200
O 	O 	0.05000 0.32519 0.01577 -0.35600
O 	O 	0.03047 0.25580 0.21926 -0.17100
O 	O 	0.08905 0.26084 0.41652 -0.35500
O 	O 	0.26604 0.52541 0.21913 -0.22400
O 	O 	0.21728 0.44747 0.22404 -0.35200
O 	O 	0.15659 0.27950 0.48042 -0.24800
O 	O 	0.09232 0.39304 0.98644 -0.39100
O 	O 	0.19666 0.55415 0.18571 -0.18700
O 	O 	0.03037 0.43320 0.98219 -0.16100
O 	O 	0.03126 0.34800 0.92375 -0.23300
C 	C 	0.12100 0.36630 0.90120 0.07600
H 	H 	0.10990 0.40250 0.90820 0.01100
C 	C 	0.11720 0.35520 0.85050 -0.13200
H 	H 	0.10230 0.38200 0.82390 0.10000
C 	C 	0.13590 0.30480 0.84120 0.07000
H 	H 	0.13410 0.29740 0.80800 0.01000
C 	C 	0.15740 0.26470 0.88030 -0.14000
H 	H 	0.17110 0.23100 0.87460 0.08100
C 	C 	0.15792 0.27630 0.92840 0.06700
H 	H 	0.17130 0.24820 0.95480 -0.00300
C 	C 	0.11892 0.98900 0.13870 0.07800
H 	H 	0.13610 0.99150 0.17290 0.01600
C 	C 	0.11570 0.93150 0.11310 -0.14700
H 	H 	0.13000 0.89650 0.13040 0.07800
C 	C 	0.09200 0.92660 0.06360 0.08300
H 	H 	0.08950 0.88860 0.04590 -0.00500
C 	C 	0.07190 0.97850 0.04020 -0.16600
H 	H 	0.05520 0.97620 0.00580 0.07700
C 	C 	0.07535 0.03510 0.06630 0.08300
H 	H 	0.06130 0.07020 0.04870 -0.03000
C 	C 	0.19464 0.09870 0.40753 0.08100
H 	H 	0.17510 0.07280 0.38560 -0.00600
C 	C 	0.22653 0.07100 0.44530 -0.15200
H 	H 	0.22800 0.02700 0.44860 0.08300
C 	C 	0.25570 0.10770 0.47770 0.08800
H 	H 	0.27710 0.08950 0.50350 0.00600
C 	C 	0.25257 0.17120 0.47140 -0.15200
H 	H 	0.27240 0.19740 0.49250 0.10900
C 	C 	0.22040 0.19760 0.43398 0.09200
H 	H 	0.21880 0.24160 0.43090 0.01300
C 	C 	0.29791 0.42390 0.13360 0.09600
H 	H 	0.29640 0.43300 0.16470 0.00000
C 	C 	0.33288 0.43280 0.12910 -0.17900
H 	H 	0.35400 0.44900 0.15660 0.10700
C 	C 	0.33594 0.41760 0.08450 0.09800
H 	H 	0.35930 0.42230 0.08130 -0.03000
C 	C 	0.30399 0.39530 0.04430 -0.18100
H 	H 	0.30510 0.38520 0.01310 0.10400
C 	C 	0.27013 0.38830 0.05110 0.09900
H 	H 	0.24860 0.37260 0.02390 -0.01300
O 	O 	0.96372 0.01950 0.21686 -0.45300
P 	P 	0.99397 0.99326 0.26245 0.30800
O 	O 	0.97948 0.01200 0.30370 -0.37000
C 	C 	0.95270 0.95160 0.31900 0.11700
H 	H 	0.93470 0.95640 0.28540 0.01600
C 	C 	0.95560 0.89420 0.34090 -0.14100
H 	H 	0.94000 0.86020 0.32410 0.08800
C 	C 	0.98340 0.88910 0.39000 0.04100
H 	H 	0.98740 0.85000 0.40660 0.01300
C 	C 	0.00530 0.93940 0.41510 -0.08400
H 	H 	0.02380 0.93250 0.44810 0.04000
C 	C 	0.00200 0.00050 0.39500 -0.00900
H 	H 	0.01590 0.03540 0.41310 0.00500
N 	N 	0.97413 0.00280 0.34210 -0.10500
N 	N 	0.13991 0.32630 0.93925 -0.24200
N 	N 	0.09838 0.04120 0.11634 -0.23500
N 	N 	0.19110 0.16227 0.40162 -0.23800
N 	N 	0.26658 0.40266 0.09457 -0.25200
O 	O 	-0.00000 0.92410 0.25000 -0.23500
Mo	Mo	0.36037 0.68002 0.44074 1.09800
Mo	Mo	0.27303 0.85102 0.26260 1.10200
Mo	Mo	0.26056 0.75464 0.31015 1.09800
Mo	Mo	0.43814 0.67515 0.11457 1.10400
Mo	Mo	0.42347 0.74066 0.45425 1.10600
Mo	Mo	0.42970 0.57857 0.16561 1.10300
Co	Co	0.35647 0.70445 0.15794 1.17700
Co	Co	0.39464 0.62824 0.34252 1.14500
Co	Co	0.31911 0.69520 0.24213 1.13100
Co	Co	0.28696 0.89141 0.39903 1.13400
Co	Co	0.35540 0.84549 0.48503 1.13100
Co	Co	0.53531 0.59565 0.19441 1.18900
P 	P 	0.37192 0.57591 0.22968 0.52800
P 	P 	0.34916 0.81834 0.37031 0.46700
P 	P 	0.44421 0.71879 0.23053 0.48100
P 	P 	0.30576 0.61407 0.32930 0.52100
P 	P 	0.48269 0.68782 0.40413 0.49800
P 	P 	0.37455 0.79699 0.07423 0.54400
P 	P 	0.27961 0.74649 0.43589 0.60800
P 	P 	0.27372 0.99793 0.30774 0.50400
P 	P 	0.29633 0.81764 0.16854 0.51500
P 	P 	0.44824 0.87325 0.52327 0.52300
O 	O 	0.38410 0.86764 0.07488 -0.41300
H 	H 	0.36440 0.87870 0.05220 0.27200
O 	O 	0.31312 0.85630 0.13502 -0.20200
O 	O 	0.25451 0.79943 0.13598 -0.50300
H 	H 	0.24680 0.83500 0.12960 0.27700
O 	O 	0.39475 0.67465 0.40504 -0.64400
O 	O 	0.40346 0.73865 0.22063 -0.37800
O 	O 	0.40260 0.58223 0.28451 -0.52600
O 	O 	0.39664 0.65287 0.13701 -0.61100
O 	O 	0.33266 0.63030 0.30264 -0.53200
O 	O 	0.44981 0.64625 0.23991 -0.47800
O 	O 	0.32624 0.75581 0.36938 -0.42500
O 	O 	0.47532 0.61559 0.16097 -0.60200
O 	O 	0.38077 0.76064 0.47518 -0.62000
O 	O 	0.29893 0.86355 0.21167 -0.35900
O 	O 	0.28334 0.75922 0.26008 -0.62400
O 	O 	0.39003 0.55067 0.19485 -0.40900
O 	O 	0.34349 0.86728 0.40779 -0.50000
O 	O 	0.45509 0.64500 0.36166 -0.52500
O 	O 	0.31232 0.69752 0.45399 -0.41100
O 	O 	0.26520 0.84495 0.32751 -0.61600
O 	O 	0.33521 0.84826 0.31659 -0.31500
O 	O 	0.34255 0.52229 0.22987 -0.22400
O 	O 	0.32672 0.61595 0.38794 -0.39800
O 	O 	0.25238 0.73078 0.46187 -0.51300
H 	H 	0.23171 0.73100 0.46390 0.32100
O 	O 	0.29132 0.54416 0.31685 -0.20200
O 	O 	0.34983 0.63707 0.21020 -0.54100
O 	O 	0.46146 0.74195 0.41701 -0.34000
O 	O 	0.32170 0.75855 0.18889 -0.50500
O 	O 	0.29730 0.81350 0.44940 -0.55800
O 	O 	0.45665 0.73659 0.18673 -0.28100
O 	O 	0.25507 0.73861 0.37833 -0.40500
O 	O 	0.27062 0.65766 0.31062 -0.38800
O 	O 	0.35726 0.78112 0.11216 -0.36500
O 	O 	0.50169 0.64401 0.45292 -0.28500
O 	O 	0.51412 0.71807 0.39083 -0.33500
O 	O 	0.39195 0.80220 0.38730 -0.31800
O 	O 	0.28174 0.97576 0.36242 -0.40300
O 	O 	0.45000 0.82519 0.48423 -0.35600
O 	O 	0.46953 0.75580 0.28074 -0.17200
O 	O 	0.41095 0.76084 0.08348 -0.35500
O 	O 	0.23396 0.02541 0.28087 -0.22300
O 	O 	0.28272 0.94747 0.27596 -0.35200
O 	O 	0.34341 0.77950 0.01958 -0.24800
O 	O 	0.40768 0.89304 0.51356 -0.39200
O 	O 	0.30334 0.05415 0.31429 -0.18700
O 	O 	0.46963 0.93320 0.51781 -0.16100
O 	O 	0.46874 0.84800 0.57625 -0.23400
C 	C 	0.37900 0.86630 0.59880 0.07600
H 	H 	0.39010 0.90250 0.59180 0.01100
C 	C 	0.38280 0.85520 0.64950 -0.13200
H 	H 	0.39770 0.88200 0.67610 0.10000
C 	C 	0.36410 0.80480 0.65880 0.07000
H 	H 	0.36590 0.79740 0.69200 0.00900
C 	C 	0.34260 0.76470 0.61970 -0.14000
H 	H 	0.32890 0.73100 0.62540 0.08100
C 	C 	0.34208 0.77630 0.57160 0.06700
H 	H 	0.32870 0.74820 0.54520 -0.00300
C 	C 	0.38108 0.48900 0.36130 0.07800
H 	H 	0.36390 0.49150 0.32710 0.01600
C 	C 	0.38430 0.43150 0.38690 -0.14600
H 	H 	0.37000 0.39650 0.36960 0.07800
C 	C 	0.40800 0.42660 0.43640 0.08200
H 	H 	0.41050 0.38860 0.45410 -0.00400
C 	C 	0.42810 0.47850 0.45980 -0.16300
H 	H 	0.44480 0.47620 0.49420 0.07600
C 	C 	0.42465 0.53510 0.43370 0.08100
H 	H 	0.43870 0.57020 0.45130 -0.02900
C 	C 	0.30536 0.59870 0.09247 0.08000
H 	H 	0.32490 0.57280 0.11440 -0.00600
C 	C 	0.27347 0.57100 0.05470 -0.15100
H 	H 	0.27200 0.52700 0.05140 0.08200
C 	C 	0.24430 0.60770 0.02230 0.08600
H 	H 	0.22290 0.58950 0.99650 0.00700
C 	C 	0.24743 0.67120 0.02860 -0.15100
H 	H 	0.22760 0.69740 0.00750 0.10800
C 	C 	0.27960 0.69760 0.06602 0.09100
H 	H 	0.28120 0.74160 0.06910 0.01300
C 	C 	0.20209 0.92390 0.36640 0.09600
H 	H 	0.20360 0.93300 0.33530 0.00000
C 	C 	0.16712 0.93280 0.37090 -0.17900
H 	H 	0.14600 0.94900 0.34340 0.10700
C 	C 	0.16406 0.91760 0.41550 0.09800
H 	H 	0.14070 0.92230 0.41870 -0.03000
C 	C 	0.19601 0.89530 0.45570 -0.18100
H 	H 	0.19490 0.88520 0.48690 0.10300
C 	C 	0.22987 0.88830 0.44890 0.09900
H 	H 	0.25140 0.87260 0.47610 -0.01300
O 	O 	0.53628 0.51950 0.28314 -0.45300
P 	P 	0.50603 0.49326 0.23755 0.31500
O 	O 	0.52052 0.51200 0.19630 -0.37100
C 	C 	0.54730 0.45160 0.18100 0.11900
H 	H 	0.56530 0.45640 0.21460 0.01600
C 	C 	0.54440 0.39420 0.15910 -0.14400
H 	H 	0.56000 0.36020 0.17590 0.08900
C 	C 	0.51660 0.38910 0.11000 0.04500
H 	H 	0.51260 0.35000 0.09340 0.01200
C 	C 	0.49470 0.43940 0.08490 -0.08800
H 	H 	0.47620 0.43250 0.05190 0.04100
C 	C 	0.49800 0.50050 0.10500 -0.00800
H 	H 	0.48410 0.53540 0.08690 0.00500
N 	N 	0.52587 0.50280 0.15790 -0.10500
N 	N 	0.36009 0.82630 0.56075 -0.24200
N 	N 	0.40162 0.54120 0.38366 -0.23500
N 	N 	0.30890 0.66227 0.09838 -0.23800
N 	N 	0.23342 0.90266 0.40543 -0.25200
Mo	Mo	0.63963 0.68002 0.05926 1.09800
Mo	Mo	0.72697 0.85102 0.23740 1.10200
Mo	Mo	0.73944 0.75464 0.18985 1.09800
Mo	Mo	0.56186 0.67515 0.38543 1.10400
Mo	Mo	0.57653 0.74066 0.04575 1.10600
Mo	Mo	0.57030 0.57857 0.33439 1.10300
Co	Co	0.64353 0.70445 0.34206 1.17700
Co	Co	0.60536 0.62824 0.15748 1.14500
Co	Co	0.68089 0.69520 0.25787 1.13100
Co	Co	0.71304 0.89141 0.10097 1.13400
Co	Co	0.64460 0.84549 0.01497 1.13000
Co	Co	0.46469 0.59565 0.30559 1.18900
P 	P 	0.62808 0.57591 0.27032 0.52800
P 	P 	0.65084 0.81834 0.12969 0.46700
P 	P 	0.55579 0.71879 0.26947 0.48100
P 	P 	0.69424 0.61407 0.17070 0.52100
P 	P 	0.51731 0.68782 0.09587 0.49800
P 	P 	0.62545 0.79699 0.42577 0.54400
P 	P 	0.72039 0.74649 0.06411 0.60800
P 	P 	0.72628 0.99793 0.19226 0.50400
P 	P 	0.70367 0.81764 0.33146 0.51500
P 	P 	0.55176 0.87325 0.97673 0.52400
O 	O 	0.61590 0.86764 0.42512 -0.41300
H 	H 	0.63560 0.87870 0.44780 0.27200
O 	O 	0.68688 0.85630 0.36498 -0.20200
O 	O 	0.74549 0.79943 0.36402 -0.50300
H 	H 	0.75320 0.83500 0.37040 0.27700
O 	O 	0.60525 0.67465 0.09496 -0.64400
O 	O 	0.59654 0.73865 0.27937 -0.37800
O 	O 	0.59740 0.58223 0.21549 -0.52600
O 	O 	0.60336 0.65287 0.36299 -0.61100
O 	O 	0.66734 0.63030 0.19736 -0.53200
O 	O 	0.55019 0.64625 0.26009 -0.47800
O 	O 	0.67376 0.75581 0.13062 -0.42500
O 	O 	0.52468 0.61559 0.33903 -0.60200
O 	O 	0.61923 0.76064 0.02482 -0.62000
O 	O 	0.70107 0.86355 0.28833 -0.35900
O 	O 	0.71666 0.75922 0.23992 -0.62400
O 	O 	0.60997 0.55067 0.30515 -0.40900
O 	O 	0.65651 0.86728 0.09221 -0.50000
O 	O 	0.54491 0.64500 0.13834 -0.52500
O 	O 	0.68768 0.69752 0.04601 -0.41100
O 	O 	0.73480 0.84495 0.17249 -0.61600
O 	O 	0.66479 0.84826 0.18341 -0.31500
O 	O 	0.65745 0.52229 0.27013 -0.22400
O 	O 	0.67328 0.61595 0.11206 -0.39800
O 	O 	0.74762 0.73078 0.03813 -0.51300
H 	H 	0.76829 0.73100 0.03610 0.32100
O 	O 	0.70868 0.54416 0.18315 -0.20200
O 	O 	0.65017 0.63707 0.28980 -0.54100
O 	O 	0.53854 0.74195 0.08299 -0.34000
O 	O 	0.67830 0.75855 0.31111 -0.50500
O 	O 	0.70270 0.81350 0.05060 -0.55800
O 	O 	0.54335 0.73659 0.31327 -0.28100
O 	O 	0.74493 0.73861 0.12167 -0.40500
O 	O 	0.72938 0.65766 0.18938 -0.38800
O 	O 	0.64274 0.78112 0.38784 -0.36500
O 	O 	0.49831 0.64401 0.04708 -0.28500
O 	O 	0.48588 0.71807 0.10917 -0.33500
O 	O 	0.60805 0.80220 0.11270 -0.31800
O 	O 	0.71826 0.97576 0.13758 -0.40300
O 	O 	0.55000 0.82519 0.01577 -0.35700
O 	O 	0.53047 0.75580 0.21926 -0.17200
O 	O 	0.58905 0.76084 0.41652 -0.35500
O 	O 	0.76604 0.02541 0.21913 -0.22300
O 	O 	0.71728 0.94747 0.22404 -0.35200
O 	O 	0.65659 0.77950 0.48042 -0.24800
O 	O 	0.59232 0.89304 0.98644 -0.39100
O 	O 	0.69666 0.05415 0.18571 -0.18700
O 	O 	0.53037 0.93320 0.98219 -0.16100
O 	O 	0.53126 0.84800 0.92375 -0.23400
C 	C 	0.62100 0.86630 0.90120 0.07600
H 	H 	0.60990 0.90250 0.90820 0.01100
C 	C 	0.61720 0.85520 0.85050 -0.13200
H 	H 	0.60230 0.88200 0.82390 0.10000
C 	C 	0.63590 0.80480 0.84120 0.07000
H 	H 	0.63410 0.79740 0.80800 0.00900
C 	C 	0.65740 0.76470 0.88030 -0.14000
H 	H 	0.67110 0.73100 0.87460 0.08100
C 	C 	0.65792 0.77630 0.92840 0.06700
H 	H 	0.67130 0.74820 0.95480 -0.00300
C 	C 	0.61892 0.48900 0.13870 0.07800
H 	H 	0.63610 0.49150 0.17290 0.01600
C 	C 	0.61570 0.43150 0.11310 -0.14600
H 	H 	0.63000 0.39650 0.13040 0.07800
C 	C 	0.59200 0.42660 0.06360 0.08200
H 	H 	0.58950 0.38860 0.04590 -0.00400
C 	C 	0.57190 0.47850 0.04020 -0.16300
H 	H 	0.55520 0.47620 0.00580 0.07600
C 	C 	0.57535 0.53510 0.06630 0.08100
H 	H 	0.56130 0.57020 0.04870 -0.02900
C 	C 	0.69464 0.59870 0.40753 0.08100
H 	H 	0.67510 0.57280 0.38560 -0.00600
C 	C 	0.72653 0.57100 0.44530 -0.15200
H 	H 	0.72800 0.52700 0.44860 0.08300
C 	C 	0.75570 0.60770 0.47770 0.08800
H 	H 	0.77710 0.58950 0.50350 0.00600
C 	C 	0.75257 0.67120 0.47140 -0.15200
H 	H 	0.77240 0.69740 0.49250 0.10900
C 	C 	0.72040 0.69760 0.43398 0.09200
H 	H 	0.71880 0.74160 0.43090 0.01300
C 	C 	0.79791 0.92390 0.13360 0.09600
H 	H 	0.79640 0.93300 0.16470 0.00000
C 	C 	0.83288 0.93280 0.12910 -0.17900
H 	H 	0.85400 0.94900 0.15660 0.10700
C 	C 	0.83594 0.91760 0.08450 0.09800
H 	H 	0.85930 0.92230 0.08130 -0.03000
C 	C 	0.80399 0.89530 0.04430 -0.18100
H 	H 	0.80510 0.88520 0.01310 0.10300
C 	C 	0.77013 0.88830 0.05110 0.09800
H 	H 	0.74860 0.87260 0.02390 -0.01300
O 	O 	0.46372 0.51950 0.21686 -0.45300
P 	P 	0.49397 0.49326 0.26245 0.31500
O 	O 	0.47948 0.51200 0.30370 -0.37100
C 	C 	0.45270 0.45160 0.31900 0.11900
H 	H 	0.43470 0.45640 0.28540 0.01600
C 	C 	0.45560 0.39420 0.34090 -0.14400
H 	H 	0.44000 0.36020 0.32410 0.08900
C 	C 	0.48340 0.38910 0.39000 0.04500
H 	H 	0.48740 0.35000 0.40660 0.01200
C 	C 	0.50530 0.43940 0.41510 -0.08800
H 	H 	0.52380 0.43250 0.44810 0.04100
C 	C 	0.50200 0.50050 0.39500 -0.00800
H 	H 	0.51590 0.53540 0.41310 0.00500
N 	N 	0.47413 0.50280 0.34210 -0.10500
N 	N 	0.63991 0.82630 0.93925 -0.24200
N 	N 	0.59838 0.54120 0.11634 -0.23500
N 	N 	0.69110 0.66227 0.40162 -0.23800
N 	N 	0.76658 0.90266 0.09457 -0.25200
O 	O 	0.50000 0.42410 0.25000 -0.23600
