data_crystal

_cell_length_a 11.62740
_cell_length_b 19.66300
_cell_length_c 32.67800
_cell_angle_alpha 90.00000
_cell_angle_beta  90.00000
_cell_angle_gamma 90.00000

_symmetry_space_group_name_	'P 1'
_symmetry_space_group_name_H-M	'P 1'

loop_
_symmetry_equiv_pos_as_xyz
  x,y,z

loop_
_atom_site_label
_atom_site_type_symbol
_atom_site_fract_x
_atom_site_fract_y
_atom_site_fract_z
_atom_site_charge
C 	C 	0.94020 0.46220 0.44170 0.41500
C 	C 	0.91420 0.53460 0.97630 0.11800
C 	C 	0.00170 0.61410 0.02560 0.05900
H 	H 	0.05620 0.58070 0.03130 0.01100
C 	C 	0.79950 0.92870 0.19970 -0.18500
H 	H 	0.78510 0.97190 0.21010 0.09600
C 	C 	0.86340 0.45630 0.92220 0.14100
H 	H 	0.82880 0.45030 0.89680 -0.03500
C 	C 	0.96480 0.11430 0.20770 -0.13200
C 	C 	0.84200 0.80730 0.16940 0.13900
H 	H 	0.85010 0.76400 0.15830 -0.02800
C 	C 	0.06540 0.09130 0.23030 0.46800
C 	C 	0.42130 0.14070 0.29910 0.31400
C 	C 	0.17300 0.90590 0.29960 0.14500
C 	C 	0.92810 0.72510 0.03650 0.17000
C 	C 	0.85230 0.65020 0.98830 0.06000
H 	H 	0.79660 0.64390 0.96820 0.03200
C 	C 	0.94430 0.09570 0.16370 0.00200
H 	H 	0.99760 0.06940 0.14960 0.05000
C 	C 	0.47350 0.85030 0.28070 -0.09400
H 	H 	0.42240 0.81520 0.28640 0.07400
C 	C 	0.87930 0.91920 0.16780 0.08700
H 	H 	0.91590 0.95670 0.15630 0.00300
C 	C 	0.35520 0.92610 0.32470 -0.00000
H 	H 	0.37440 0.96470 0.34230 0.03100
C 	C 	0.74390 0.87330 0.21500 0.14900
C 	C 	0.01240 0.67570 0.04800 -0.19300
H 	H 	0.06800 0.68300 0.06800 0.09000
C 	C 	0.64880 0.88590 0.24930 -0.04800
C 	C 	0.75970 0.14980 0.16380 -0.06000
C 	C 	0.47280 0.03820 0.19260 0.12000
H 	H 	0.49540 0.07910 0.20440 -0.01300
C 	C 	0.69090 0.23500 0.35280 -0.20600
C 	C 	0.60430 0.21000 0.37800 0.04600
H 	H 	0.60940 0.21560 0.40620 0.02400
C 	C 	0.51020 0.17680 0.36110 -0.04200
H 	H 	0.45220 0.16010 0.37790 0.05600
C 	C 	0.50270 0.16850 0.31890 -0.09700
C 	C 	0.58930 0.19340 0.29370 -0.05700
H 	H 	0.58430 0.18790 0.26550 0.06100
C 	C 	0.68340 0.22670 0.31070 0.05500
H 	H 	0.74140 0.24330 0.29380 0.02200
C 	C 	0.64020 0.94450 0.26890 -0.00400
H 	H 	0.69690 0.97720 0.26480 0.03100
C 	C 	0.92130 0.59780 0.99690 -0.09300
C 	C 	0.76360 0.81430 0.20160 -0.22800
H 	H 	0.72720 0.77660 0.21290 0.11600
C 	C 	0.77610 0.77380 0.99850 -0.12700
H 	H 	0.77970 0.78970 0.97040 0.08200
H 	H 	0.69690 0.76470 0.00600 0.07900
C 	C 	0.84550 0.11810 0.14430 -0.03800
H 	H 	0.83830 0.11070 0.11630 0.05600
C 	C 	0.53880 0.00940 0.16360 -0.22200
H 	H 	0.60360 0.03310 0.15500 0.10600
C 	C 	0.80240 0.72510 0.39930 0.06200
H 	H 	0.79940 0.71520 0.42710 -0.00500
C 	C 	0.89920 0.75640 0.38290 -0.14400
H 	H 	0.96100 0.76740 0.39970 0.08500
C 	C 	0.90370 0.77120 0.34130 0.10100
C 	C 	0.81140 0.75480 0.31620 -0.14200
H 	H 	0.81430 0.76480 0.28840 0.08700
C 	C 	0.71450 0.72360 0.33260 0.05700
H 	H 	0.65280 0.71260 0.31570 0.00600
N 	N 	0.71010 0.70870 0.37410 -0.23500
C 	C 	0.77320 0.16900 0.20120 -0.03900
H 	H 	0.71830 0.19700 0.21330 0.05500
C 	C 	0.54610 0.96010 0.29670 -0.10600
H 	H 	0.54200 0.00050 0.31150 0.06600
C 	C 	0.00100 0.70000 0.54280 0.35300
C 	C 	0.96600 0.47180 0.99760 -0.15300
H 	H 	0.99250 0.47260 0.02440 0.08700
C 	C 	0.06660 0.90570 0.27720 -0.17900
H 	H 	0.05410 0.93210 0.25400 0.08300
C 	C 	0.85510 0.51930 0.94020 -0.19100
H 	H 	0.80930 0.55240 0.92800 0.10100
C 	C 	0.87910 0.14650 0.22620 0.01600
H 	H 	0.88290 0.15540 0.25420 0.04000
C 	C 	0.99740 0.81740 0.32610 -0.05600
C 	C 	0.46010 0.90820 0.29940 0.04000
C 	C 	0.98610 0.86320 0.29310 0.04800
H 	H 	0.91420 0.86450 0.28060 0.01900
C 	C 	0.97570 0.64180 0.51390 -0.05900
C 	C 	0.91210 0.58810 0.52980 -0.04000
H 	H 	0.87850 0.59190 0.55550 0.05400
C 	C 	0.89860 0.52870 0.50730 0.00900
H 	H 	0.85600 0.49280 0.51790 0.04300
C 	C 	0.94880 0.52300 0.46880 -0.11000
C 	C 	0.01240 0.57670 0.45290 -0.00000
H 	H 	0.04600 0.57290 0.42720 0.04000
C 	C 	0.02590 0.63610 0.47550 -0.03800
H 	H 	0.06850 0.67200 0.46480 0.05800
C 	C 	0.64820 0.16720 0.14170 0.34100
C 	C 	0.96900 0.41450 0.97360 0.08300
H 	H 	0.01360 0.37820 0.98290 -0.01100
C 	C 	0.59900 0.84750 0.11180 -0.02200
H 	H 	0.55240 0.82110 0.12850 0.04100
C 	C 	0.59760 0.91800 0.11540 -0.04100
C 	C 	0.66740 0.95750 0.09030 -0.01900
H 	H 	0.66650 0.00460 0.09270 0.04100
C 	C 	0.73860 0.92650 0.06170 -0.07900
H 	H 	0.78530 0.95300 0.04490 0.05500
C 	C 	0.74000 0.85610 0.05810 -0.00300
C 	C 	0.67020 0.81660 0.08310 -0.07100
H 	H 	0.67120 0.76950 0.08070 0.05600
C 	C 	0.30250 0.87230 0.35000 -0.09500
H 	H 	0.29400 0.88730 0.37810 0.06800
H 	H 	0.34870 0.83130 0.34950 0.07400
C 	C 	0.83150 0.82030 0.02660 0.03900
H 	H 	0.86770 0.85640 0.01040 0.01700
C 	C 	0.10390 0.81340 0.34580 0.01900
H 	H 	0.11910 0.78290 0.36690 0.03100
C 	C 	0.56330 0.83860 0.25190 -0.01000
H 	H 	0.56360 0.80010 0.23540 0.03800
C 	C 	0.51850 0.95100 0.14670 0.14500
C 	C 	0.42130 0.91950 0.15970 -0.19300
H 	H 	0.40080 0.87770 0.14860 0.09900
C 	C 	0.35050 0.94970 0.19010 0.11300
H 	H 	0.28570 0.92690 0.19960 -0.02800
Cd	Cd	0.97405 0.34190 0.40176 1.21800
Cd	Cd	0.03571 0.80643 0.59522 1.21700
Cd	Cd	0.26441 0.04665 0.25984 1.22500
N 	N 	0.90380 0.85570 0.15340 -0.24700
N 	N 	0.91900 0.78790 0.04980 -0.25300
N 	N 	0.26300 0.94840 0.29460 -0.24500
N 	N 	0.85730 0.71030 0.00620 -0.13100
N 	N 	0.18710 0.86030 0.33070 -0.11800
N 	N 	0.37610 0.00880 0.20460 -0.24600
N 	N 	0.91410 0.40680 0.93760 -0.25700
O 	O 	0.64420 0.15130 0.10520 -0.41300
O 	O 	0.57200 0.19580 0.15900 -0.39500
O 	O 	0.97000 0.45940 0.40960 -0.46400
O 	O 	0.09290 0.11700 0.25970 -0.44000
O 	O 	0.34920 0.09530 0.31790 -0.35300
O 	O 	0.39110 0.13730 0.26260 -0.38300
O 	O 	0.12270 0.04810 0.21430 -0.46400
O 	O 	0.90500 0.40910 0.46030 -0.38300
O 	O 	0.98600 0.69910 0.57840 -0.42500
O 	O 	0.05400 0.74850 0.52700 -0.37000
C 	C 	0.78390 0.26510 0.36950 0.48100
O 	O 	0.79630 0.28140 0.40410 -0.44000
O 	O 	0.87270 0.27680 0.35180 -0.42700
C 	C 	0.55980 0.53780 0.94170 0.41600
C 	C 	0.58580 0.46540 0.47630 0.11900
C 	C 	0.49830 0.38590 0.52560 0.05900
H 	H 	0.44380 0.41930 0.53130 0.01200
C 	C 	0.70050 0.07130 0.69970 -0.18500
H 	H 	0.71490 0.02810 0.71010 0.09700
C 	C 	0.63660 0.54370 0.42220 0.14200
H 	H 	0.67120 0.54970 0.39680 -0.03400
C 	C 	0.53520 0.88570 0.70770 -0.12900
C 	C 	0.65800 0.19270 0.66940 0.14000
H 	H 	0.64990 0.23600 0.65830 -0.02800
C 	C 	0.43460 0.90870 0.73030 0.46500
C 	C 	0.07870 0.85930 0.79910 0.31300
C 	C 	0.32700 0.09410 0.79960 0.14500
C 	C 	0.57190 0.27490 0.53650 0.17000
C 	C 	0.64770 0.34980 0.48830 0.06000
H 	H 	0.70340 0.35610 0.46820 0.03200
C 	C 	0.55570 0.90430 0.66370 0.00100
H 	H 	0.50240 0.93060 0.64960 0.05100
C 	C 	0.02650 0.14970 0.78070 -0.09600
H 	H 	0.07760 0.18480 0.78640 0.07500
C 	C 	0.62070 0.08080 0.66780 0.08700
H 	H 	0.58410 0.04330 0.65630 0.00200
C 	C 	0.14480 0.07390 0.82470 -0.00300
H 	H 	0.12560 0.03530 0.84230 0.03300
C 	C 	0.75610 0.12670 0.71500 0.15000
C 	C 	0.48760 0.32430 0.54800 -0.19200
H 	H 	0.43200 0.31700 0.56800 0.08900
C 	C 	0.85120 0.11410 0.74930 -0.05100
C 	C 	0.74030 0.85020 0.66380 -0.06100
C 	C 	0.02720 0.96180 0.69260 0.10600
H 	H 	0.00460 0.92090 0.70440 -0.00900
C 	C 	0.80910 0.76500 0.85280 -0.20600
C 	C 	0.89570 0.79000 0.87800 0.04600
H 	H 	0.89060 0.78440 0.90620 0.02400
C 	C 	0.98980 0.82320 0.86110 -0.04100
H 	H 	0.04780 0.83990 0.87790 0.05500
C 	C 	0.99730 0.83150 0.81890 -0.09600
C 	C 	0.91070 0.80660 0.79370 -0.05800
H 	H 	0.91570 0.81210 0.76550 0.06200
C 	C 	0.81660 0.77330 0.81070 0.05600
H 	H 	0.75860 0.75670 0.79380 0.02200
C 	C 	0.85980 0.05550 0.76890 0.00100
H 	H 	0.80310 0.02280 0.76480 0.02800
C 	C 	0.57870 0.40220 0.49690 -0.09200
C 	C 	0.73640 0.18570 0.70160 -0.22900
H 	H 	0.77280 0.22340 0.71290 0.11600
C 	C 	0.72390 0.22620 0.49850 -0.12700
H 	H 	0.72030 0.21030 0.47040 0.08200
H 	H 	0.80310 0.23530 0.50600 0.07900
C 	C 	0.65450 0.88190 0.64430 -0.03700
H 	H 	0.66170 0.88930 0.61630 0.05600
C 	C 	0.96120 0.99060 0.66360 -0.20100
H 	H 	0.89640 0.96690 0.65500 0.10000
C 	C 	0.69760 0.27490 0.89930 0.06200
H 	H 	0.70060 0.28480 0.92710 -0.00500
C 	C 	0.60080 0.24360 0.88290 -0.14400
H 	H 	0.53900 0.23260 0.89970 0.08500
C 	C 	0.59630 0.22880 0.84130 0.10100
C 	C 	0.68860 0.24520 0.81620 -0.14200
H 	H 	0.68570 0.23520 0.78840 0.08700
C 	C 	0.78550 0.27640 0.83260 0.05700
H 	H 	0.84720 0.28740 0.81570 0.00600
N 	N 	0.78990 0.29130 0.87410 -0.23500
C 	C 	0.72680 0.83100 0.70120 -0.03800
H 	H 	0.78170 0.80300 0.71330 0.05500
C 	C 	0.95390 0.03990 0.79670 -0.11600
H 	H 	0.95800 0.99950 0.81150 0.07100
C 	C 	0.49900 0.30000 0.04280 0.36000
C 	C 	0.53400 0.52820 0.49760 -0.15400
H 	H 	0.50750 0.52740 0.52440 0.08800
C 	C 	0.43340 0.09430 0.77720 -0.17400
H 	H 	0.44590 0.06790 0.75400 0.08300
C 	C 	0.64490 0.48070 0.44020 -0.19100
H 	H 	0.69070 0.44760 0.42800 0.10100
C 	C 	0.62090 0.85350 0.72620 0.01400
H 	H 	0.61710 0.84460 0.75420 0.04100
C 	C 	0.50260 0.18260 0.82610 -0.05800
C 	C 	0.03990 0.09180 0.79940 0.04700
C 	C 	0.51390 0.13680 0.79310 0.04400
H 	H 	0.58580 0.13550 0.78060 0.02000
C 	C 	0.52430 0.35820 0.01390 -0.06600
C 	C 	0.58790 0.41190 0.02980 -0.03600
H 	H 	0.62150 0.40810 0.05550 0.05300
C 	C 	0.60140 0.47130 0.00730 0.00600
H 	H 	0.64400 0.50720 0.01790 0.04400
C 	C 	0.55120 0.47700 0.96880 -0.11000
C 	C 	0.48760 0.42330 0.95290 -0.00100
H 	H 	0.45400 0.42710 0.92720 0.04000
C 	C 	0.47410 0.36390 0.97550 -0.03200
H 	H 	0.43150 0.32800 0.96480 0.05600
C 	C 	0.85180 0.83280 0.64170 0.34200
C 	C 	0.53100 0.58550 0.47360 0.08700
H 	H 	0.48640 0.62180 0.48290 -0.01400
C 	C 	0.90100 0.15250 0.61180 -0.03000
H 	H 	0.94760 0.17890 0.62850 0.04400
C 	C 	0.90240 0.08200 0.61540 -0.03100
C 	C 	0.83260 0.04250 0.59030 -0.03200
H 	H 	0.83350 0.99540 0.59270 0.04700
C 	C 	0.76140 0.07350 0.56170 -0.07100
H 	H 	0.71470 0.04700 0.54490 0.05200
C 	C 	0.76000 0.14390 0.55810 -0.00800
C 	C 	0.82980 0.18340 0.58310 -0.06500
H 	H 	0.82880 0.23050 0.58070 0.05400
C 	C 	0.19750 0.12770 0.85000 -0.09300
H 	H 	0.20600 0.11270 0.87810 0.06800
H 	H 	0.15130 0.16870 0.84950 0.07300
C 	C 	0.66850 0.17970 0.52660 0.04000
H 	H 	0.63230 0.14360 0.51040 0.01600
C 	C 	0.39610 0.18660 0.84580 0.02100
H 	H 	0.38090 0.21710 0.86690 0.03000
C 	C 	0.93670 0.16140 0.75190 -0.00900
H 	H 	0.93640 0.19990 0.73540 0.03800
C 	C 	0.98150 0.04900 0.64670 0.12900
C 	C 	0.07870 0.08050 0.65970 -0.18200
H 	H 	0.09920 0.12230 0.64860 0.09500
C 	C 	0.14950 0.05030 0.69010 0.11000
H 	H 	0.21430 0.07310 0.69960 -0.02700
Cd	Cd	0.52595 0.65810 0.90176 1.21800
Cd	Cd	0.46429 0.19357 0.09522 1.21800
Cd	Cd	0.23559 0.95335 0.75984 1.22400
N 	N 	0.59620 0.14430 0.65340 -0.24800
N 	N 	0.58100 0.21210 0.54980 -0.25300
N 	N 	0.23700 0.05160 0.79460 -0.24400
N 	N 	0.64270 0.28970 0.50620 -0.13100
N 	N 	0.31290 0.13970 0.83070 -0.11800
N 	N 	0.12390 0.99120 0.70460 -0.24400
N 	N 	0.58590 0.59320 0.43760 -0.25700
O 	O 	0.85580 0.84870 0.60520 -0.41200
O 	O 	0.92800 0.80420 0.65900 -0.39400
O 	O 	0.53000 0.54060 0.90960 -0.46500
O 	O 	0.40710 0.88300 0.75970 -0.44000
O 	O 	0.15080 0.90470 0.81790 -0.35400
O 	O 	0.10890 0.86270 0.76260 -0.38300
O 	O 	0.37730 0.95190 0.71430 -0.46500
O 	O 	0.59500 0.59090 0.96030 -0.38300
O 	O 	0.51400 0.30090 0.07840 -0.42900
O 	O 	0.44600 0.25150 0.02700 -0.37100
C 	C 	0.71610 0.73490 0.86950 0.48100
O 	O 	0.70370 0.71860 0.90410 -0.44000
O 	O 	0.62730 0.72320 0.85180 -0.42700
C 	C 	0.05980 0.96220 0.05830 0.41400
C 	C 	0.08580 0.03460 0.52370 0.11800
C 	C 	0.99830 0.11410 0.47440 0.05700
H 	H 	0.94380 0.08070 0.46870 0.01300
C 	C 	0.20050 0.42870 0.30030 -0.18400
H 	H 	0.21490 0.47190 0.28990 0.09700
C 	C 	0.13660 0.95630 0.57780 0.13800
H 	H 	0.17120 0.95030 0.60320 -0.03300
C 	C 	0.03520 0.61430 0.29230 -0.13000
C 	C 	0.15800 0.30730 0.33060 0.13900
H 	H 	0.14990 0.26400 0.34170 -0.02800
C 	C 	0.93460 0.59130 0.26970 0.46600
C 	C 	0.57870 0.64070 0.20090 0.31500
C 	C 	0.82700 0.40590 0.20040 0.14500
C 	C 	0.07190 0.22510 0.46350 0.17000
C 	C 	0.14770 0.15020 0.51170 0.05900
H 	H 	0.20340 0.14390 0.53180 0.03200
C 	C 	0.05570 0.59570 0.33630 0.00100
H 	H 	0.00240 0.56940 0.35040 0.05100
C 	C 	0.52650 0.35030 0.21930 -0.09500
H 	H 	0.57760 0.31520 0.21360 0.07400
C 	C 	0.12070 0.41920 0.33220 0.08700
H 	H 	0.08410 0.45670 0.34370 0.00200
C 	C 	0.64480 0.42610 0.17530 -0.00100
H 	H 	0.62560 0.46470 0.15770 0.03200
C 	C 	0.25610 0.37330 0.28500 0.14900
C 	C 	0.98760 0.17570 0.45200 -0.19100
H 	H 	0.93200 0.18300 0.43200 0.08900
C 	C 	0.35120 0.38590 0.25070 -0.04800
C 	C 	0.24030 0.64980 0.33620 -0.06100
C 	C 	0.52720 0.53820 0.30740 0.12000
H 	H 	0.50460 0.57910 0.29560 -0.01300
C 	C 	0.30910 0.73500 0.14720 -0.20600
C 	C 	0.39570 0.71000 0.12200 0.04600
H 	H 	0.39060 0.71560 0.09380 0.02400
C 	C 	0.48980 0.67680 0.13890 -0.04200
H 	H 	0.54780 0.66010 0.12210 0.05500
C 	C 	0.49730 0.66850 0.18110 -0.09800
C 	C 	0.41070 0.69340 0.20630 -0.05700
H 	H 	0.41570 0.68790 0.23450 0.06100
C 	C 	0.31660 0.72670 0.18930 0.05500
H 	H 	0.25860 0.74330 0.20620 0.02200
C 	C 	0.35980 0.44450 0.23110 -0.00400
H 	H 	0.30310 0.47720 0.23520 0.03000
C 	C 	0.07870 0.09780 0.50310 -0.09000
C 	C 	0.23640 0.31430 0.29840 -0.22800
H 	H 	0.27280 0.27660 0.28710 0.11600
C 	C 	0.22390 0.27380 0.50150 -0.12600
H 	H 	0.22030 0.28970 0.52960 0.08200
H 	H 	0.30310 0.26470 0.49400 0.07900
C 	C 	0.15450 0.61810 0.35570 -0.03700
H 	H 	0.16170 0.61070 0.38370 0.05600
C 	C 	0.46120 0.50940 0.33640 -0.22100
H 	H 	0.39640 0.53310 0.34500 0.10600
C 	C 	0.19760 0.22510 0.10070 0.06200
H 	H 	0.20060 0.21520 0.07290 -0.00500
C 	C 	0.10080 0.25640 0.11710 -0.14400
H 	H 	0.03900 0.26740 0.10030 0.08500
C 	C 	0.09630 0.27120 0.15870 0.10100
C 	C 	0.18860 0.25480 0.18380 -0.14200
H 	H 	0.18570 0.26480 0.21160 0.08700
C 	C 	0.28550 0.22360 0.16740 0.05700
H 	H 	0.34720 0.21260 0.18430 0.00600
N 	N 	0.28990 0.20870 0.12590 -0.23500
C 	C 	0.22680 0.66900 0.29880 -0.03800
H 	H 	0.28170 0.69700 0.28670 0.05500
C 	C 	0.45390 0.46010 0.20330 -0.10600
H 	H 	0.45800 0.50050 0.18850 0.06600
C 	C 	0.99900 0.20000 0.95720 0.35000
C 	C 	0.03400 0.97180 0.50240 -0.15300
H 	H 	0.00750 0.97260 0.47560 0.08600
C 	C 	0.93340 0.40570 0.22280 -0.17600
H 	H 	0.94590 0.43210 0.24600 0.08300
C 	C 	0.14490 0.01930 0.55980 -0.18600
H 	H 	0.19070 0.05240 0.57200 0.10000
C 	C 	0.12090 0.64650 0.27380 0.01500
H 	H 	0.11710 0.65540 0.24580 0.04100
C 	C 	0.00260 0.31740 0.17390 -0.05600
C 	C 	0.53990 0.40820 0.20060 0.04100
C 	C 	0.01390 0.36320 0.20690 0.04500
H 	H 	0.08580 0.36450 0.21940 0.02000
C 	C 	0.02430 0.14180 0.98610 -0.05500
C 	C 	0.08790 0.08810 0.97020 -0.04300
H 	H 	0.12150 0.09190 0.94450 0.05600
C 	C 	0.10140 0.02870 0.99270 0.01300
H 	H 	0.14400 0.99280 0.98210 0.04000
C 	C 	0.05120 0.02300 0.03120 -0.10800
C 	C 	0.98760 0.07670 0.04710 -0.00200
H 	H 	0.95400 0.07290 0.07280 0.04000
C 	C 	0.97410 0.13610 0.02450 -0.04000
H 	H 	0.93150 0.17200 0.03520 0.05800
C 	C 	0.35180 0.66720 0.35830 0.34200
C 	C 	0.03100 0.91450 0.52640 0.08000
H 	H 	0.98640 0.87820 0.51710 -0.00900
C 	C 	0.40100 0.34750 0.38820 -0.02300
H 	H 	0.44760 0.32110 0.37150 0.04100
C 	C 	0.40240 0.41800 0.38460 -0.04000
C 	C 	0.33260 0.45750 0.40970 -0.02200
H 	H 	0.33350 0.50460 0.40730 0.04200
C 	C 	0.26140 0.42650 0.43830 -0.07700
H 	H 	0.21470 0.45300 0.45510 0.05400
C 	C 	0.26000 0.35610 0.44190 -0.00400
C 	C 	0.32980 0.31660 0.41690 -0.07000
H 	H 	0.32880 0.26950 0.41930 0.05500
C 	C 	0.69750 0.37230 0.15000 -0.09500
H 	H 	0.70600 0.38730 0.12190 0.06800
H 	H 	0.65130 0.33130 0.15050 0.07400
C 	C 	0.16850 0.32030 0.47340 0.03900
H 	H 	0.13230 0.35640 0.48960 0.01700
C 	C 	0.89610 0.31340 0.15420 0.01900
H 	H 	0.88090 0.28290 0.13310 0.03100
C 	C 	0.43670 0.33860 0.24810 -0.00900
H 	H 	0.43640 0.30010 0.26460 0.03800
C 	C 	0.48150 0.45100 0.35330 0.14500
C 	C 	0.57870 0.41950 0.34030 -0.19300
H 	H 	0.59920 0.37770 0.35140 0.09800
C 	C 	0.64950 0.44970 0.30990 0.11400
H 	H 	0.71430 0.42690 0.30040 -0.02800
Cd	Cd	0.02595 0.84190 0.09824 1.21800
Cd	Cd	0.96429 0.30643 0.90478 1.21700
Cd	Cd	0.73559 0.54665 0.24016 1.22400
N 	N 	0.09620 0.35570 0.34660 -0.24800
N 	N 	0.08100 0.28790 0.45020 -0.25300
N 	N 	0.73700 0.44840 0.20540 -0.24500
N 	N 	0.14270 0.21030 0.49380 -0.13100
N 	N 	0.81290 0.36030 0.16930 -0.11800
N 	N 	0.62390 0.50880 0.29540 -0.24600
N 	N 	0.08590 0.90680 0.56240 -0.25600
O 	O 	0.35580 0.65130 0.39480 -0.41300
O 	O 	0.42800 0.69580 0.34100 -0.39500
O 	O 	0.03000 0.95940 0.09040 -0.46500
O 	O 	0.90710 0.61700 0.24030 -0.44000
O 	O 	0.65080 0.59530 0.18210 -0.35300
O 	O 	0.60890 0.63730 0.23740 -0.38300
O 	O 	0.87730 0.54810 0.28570 -0.46400
O 	O 	0.09500 0.90910 0.03970 -0.38300
O 	O 	0.01400 0.19910 0.92160 -0.42400
O 	O 	0.94600 0.24850 0.97300 -0.36900
C 	C 	0.21610 0.76510 0.13050 0.48100
O 	O 	0.20370 0.78140 0.09590 -0.44100
O 	O 	0.12730 0.77680 0.14820 -0.42700
C 	C 	0.44020 0.03780 0.55830 0.41600
C 	C 	0.41420 0.96540 0.02370 0.12000
C 	C 	0.50170 0.88590 0.97440 0.05900
H 	H 	0.55620 0.91930 0.96870 0.01200
C 	C 	0.29950 0.57130 0.80030 -0.18400
H 	H 	0.28510 0.52810 0.78990 0.09700
C 	C 	0.36340 0.04370 0.07780 0.14400
H 	H 	0.32880 0.04970 0.10320 -0.03400
C 	C 	0.46480 0.38570 0.79230 -0.12800
C 	C 	0.34200 0.69270 0.83060 0.13900
H 	H 	0.35010 0.73600 0.84170 -0.02800
C 	C 	0.56540 0.40870 0.76970 0.46500
C 	C 	0.92130 0.35930 0.70090 0.31400
C 	C 	0.67300 0.59410 0.70040 0.14400
C 	C 	0.42810 0.77490 0.96350 0.17000
C 	C 	0.35230 0.84980 0.01170 0.06000
H 	H 	0.29660 0.85610 0.03180 0.03200
C 	C 	0.44430 0.40430 0.83630 0.00000
H 	H 	0.49760 0.43060 0.85040 0.05100
C 	C 	0.97350 0.64970 0.71930 -0.09300
H 	H 	0.92240 0.68480 0.71360 0.07400
C 	C 	0.37930 0.58080 0.83220 0.08700
H 	H 	0.41590 0.54330 0.84370 0.00200
C 	C 	0.85520 0.57390 0.67530 -0.00100
H 	H 	0.87440 0.53530 0.65770 0.03200
C 	C 	0.24390 0.62670 0.78500 0.14900
C 	C 	0.51240 0.82430 0.95200 -0.19200
H 	H 	0.56800 0.81700 0.93200 0.08900
C 	C 	0.14880 0.61410 0.75070 -0.04800
C 	C 	0.25970 0.35020 0.83620 -0.06100
C 	C 	0.97280 0.46180 0.80740 0.11800
H 	H 	0.99540 0.42090 0.79560 -0.01200
C 	C 	0.19090 0.26500 0.64720 -0.20600
C 	C 	0.10430 0.29000 0.62200 0.04700
H 	H 	0.10940 0.28440 0.59380 0.02300
C 	C 	0.01020 0.32320 0.63890 -0.04200
H 	H 	0.95220 0.33990 0.62210 0.05600
C 	C 	0.00270 0.33150 0.68110 -0.09600
C 	C 	0.08930 0.30660 0.70630 -0.05700
H 	H 	0.08430 0.31210 0.73450 0.06200
C 	C 	0.18340 0.27330 0.68930 0.05600
H 	H 	0.24140 0.25670 0.70620 0.02200
C 	C 	0.14020 0.55550 0.73110 -0.00400
H 	H 	0.19690 0.52280 0.73520 0.03000
C 	C 	0.42130 0.90220 0.00310 -0.09300
C 	C 	0.26360 0.68570 0.79840 -0.22800
H 	H 	0.22720 0.72340 0.78710 0.11600
C 	C 	0.27610 0.72620 0.00150 -0.12600
H 	H 	0.27970 0.71030 0.02960 0.08200
H 	H 	0.19690 0.73530 0.99400 0.07900
C 	C 	0.34550 0.38190 0.85570 -0.03700
H 	H 	0.33830 0.38930 0.88370 0.05600
C 	C 	0.03880 0.49060 0.83640 -0.22000
H 	H 	0.10360 0.46690 0.84500 0.10600
C 	C 	0.30240 0.77490 0.60070 0.06200
H 	H 	0.29940 0.78480 0.57290 -0.00500
C 	C 	0.39920 0.74360 0.61710 -0.14400
H 	H 	0.46100 0.73260 0.60030 0.08500
C 	C 	0.40370 0.72880 0.65870 0.10100
C 	C 	0.31140 0.74520 0.68380 -0.14200
H 	H 	0.31430 0.73520 0.71160 0.08700
C 	C 	0.21450 0.77640 0.66740 0.05700
H 	H 	0.15280 0.78740 0.68430 0.00600
N 	N 	0.21010 0.79130 0.62590 -0.23500
C 	C 	0.27320 0.33100 0.79880 -0.03800
H 	H 	0.21830 0.30300 0.78670 0.05500
C 	C 	0.04610 0.53990 0.70330 -0.10700
H 	H 	0.04200 0.49950 0.68850 0.06600
C 	C 	0.50100 0.80000 0.45720 0.36100
C 	C 	0.46600 0.02820 0.00240 -0.15400
H 	H 	0.49250 0.02740 0.97560 0.08800
C 	C 	0.56660 0.59430 0.72280 -0.17400
H 	H 	0.55410 0.56790 0.74600 0.08300
C 	C 	0.35510 0.98070 0.05980 -0.19300
H 	H 	0.30930 0.94760 0.07200 0.10200
C 	C 	0.37910 0.35350 0.77380 0.01400
H 	H 	0.38290 0.34460 0.74580 0.04100
C 	C 	0.49740 0.68260 0.67390 -0.05800
C 	C 	0.96010 0.59180 0.70060 0.04100
C 	C 	0.48610 0.63680 0.70690 0.04400
H 	H 	0.41420 0.63550 0.71940 0.02000
C 	C 	0.47570 0.85820 0.48610 -0.06700
C 	C 	0.41210 0.91190 0.47020 -0.03500
H 	H 	0.37850 0.90810 0.44450 0.05200
C 	C 	0.39860 0.97130 0.49270 0.00400
H 	H 	0.35600 0.00720 0.48210 0.04500
C 	C 	0.44880 0.97700 0.53120 -0.10900
C 	C 	0.51240 0.92330 0.54710 -0.00200
H 	H 	0.54600 0.92710 0.57280 0.04100
C 	C 	0.52590 0.86390 0.52450 -0.03200
H 	H 	0.56850 0.82800 0.53520 0.05600
C 	C 	0.14820 0.33280 0.85830 0.34100
C 	C 	0.46900 0.08550 0.02640 0.08700
H 	H 	0.51360 0.12180 0.01710 -0.01400
C 	C 	0.09900 0.65250 0.88820 -0.02300
H 	H 	0.05240 0.67890 0.87150 0.04100
C 	C 	0.09760 0.58200 0.88460 -0.04000
C 	C 	0.16740 0.54250 0.90970 -0.02200
H 	H 	0.16650 0.49540 0.90730 0.04200
C 	C 	0.23860 0.57350 0.93830 -0.07700
H 	H 	0.28530 0.54700 0.95510 0.05500
C 	C 	0.24000 0.64390 0.94190 -0.00400
C 	C 	0.17020 0.68340 0.91690 -0.07000
H 	H 	0.17120 0.73050 0.91930 0.05500
C 	C 	0.80250 0.62770 0.65000 -0.09500
H 	H 	0.79400 0.61270 0.62190 0.06800
H 	H 	0.84870 0.66870 0.65050 0.07400
C 	C 	0.33150 0.67970 0.97340 0.03900
H 	H 	0.36770 0.64360 0.98960 0.01700
C 	C 	0.60390 0.68660 0.65420 0.02100
H 	H 	0.61910 0.71710 0.63310 0.03000
C 	C 	0.06330 0.66140 0.74810 -0.01100
H 	H 	0.06360 0.69990 0.76460 0.03800
C 	C 	0.01850 0.54900 0.85330 0.14500
C 	C 	0.92130 0.58050 0.84030 -0.19400
H 	H 	0.90080 0.62230 0.85140 0.09900
C 	C 	0.85050 0.55030 0.80990 0.11400
H 	H 	0.78570 0.57310 0.80040 -0.02800
Cd	Cd	0.47405 0.15810 0.59824 1.21800
Cd	Cd	0.53571 0.69357 0.40478 1.21800
Cd	Cd	0.76441 0.45335 0.74016 1.22400
N 	N 	0.40380 0.64430 0.84660 -0.24700
N 	N 	0.41900 0.71210 0.95020 -0.25300
N 	N 	0.76300 0.55160 0.70540 -0.24500
N 	N 	0.35730 0.78970 0.99380 -0.13100
N 	N 	0.68710 0.63970 0.66930 -0.11800
N 	N 	0.87610 0.49120 0.79540 -0.24600
N 	N 	0.41410 0.09320 0.06240 -0.25700
O 	O 	0.14420 0.34870 0.89480 -0.41200
O 	O 	0.07200 0.30420 0.84100 -0.39400
O 	O 	0.47000 0.04060 0.59040 -0.46500
O 	O 	0.59290 0.38300 0.74030 -0.44000
O 	O 	0.84920 0.40470 0.68210 -0.35300
O 	O 	0.89110 0.36270 0.73740 -0.38300
O 	O 	0.62270 0.45190 0.78570 -0.46400
O 	O 	0.40500 0.09090 0.53970 -0.38300
O 	O 	0.48600 0.80090 0.42160 -0.42900
O 	O 	0.55400 0.75150 0.47300 -0.37100
C 	C 	0.28390 0.23490 0.63050 0.48100
O 	O 	0.29630 0.21860 0.59590 -0.44000
O 	O 	0.37270 0.22320 0.64820 -0.42700
