data_crystal

_cell_length_a 31.83700
_cell_length_b 31.83700
_cell_length_c 62.41000
_cell_angle_alpha 90.00000
_cell_angle_beta  90.00000
_cell_angle_gamma 120.00000

_symmetry_space_group_name_	'P 1'
_symmetry_space_group_name_H-M	'P 1'

loop_
_symmetry_equiv_pos_as_xyz
  x,y,z

loop_
_atom_site_label
_atom_site_type_symbol
_atom_site_fract_x
_atom_site_fract_y
_atom_site_fract_z
_atom_site_charge
C 	C 	0.45830 0.22440 0.36370 -0.23700
C 	C 	0.44490 0.23340 0.38380 0.08300
H 	H 	0.41310 0.22840 0.38560 -0.01400
C 	C 	0.47650 0.24940 0.40100 -0.05800
H 	H 	0.46550 0.25370 0.41460 0.04900
C 	C 	0.52340 0.25920 0.39890 -0.01300
C 	C 	0.53730 0.24770 0.37940 -0.07100
H 	H 	0.56880 0.25200 0.37780 0.05300
C 	C 	0.50460 0.23000 0.36250 0.09000
H 	H 	0.51410 0.22140 0.34960 0.00700
O 	O 	0.43660 0.18030 0.33150 -0.54300
N 	N 	0.40860 0.15860 0.31270 -0.16000
C 	C 	0.41850 0.12720 0.30550 0.07200
H 	H 	0.44190 0.12270 0.31310 0.04600
C 	C 	0.39660 0.09750 0.28660 -0.13300
C 	C 	0.36300 0.10330 0.27330 0.23400
C 	C 	0.34410 0.07200 0.25500 -0.13800
C 	C 	0.35700 0.03640 0.25090 0.04800
H 	H 	0.34350 0.01570 0.23890 0.00900
C 	C 	0.38910 0.03100 0.26430 -0.13300
C 	C 	0.40770 0.06110 0.28190 0.04700
H 	H 	0.42900 0.05690 0.29120 0.01500
C 	C 	0.31070 0.07420 0.23990 0.08000
H 	H 	0.30120 0.05300 0.22790 0.03600
N 	N 	0.29330 0.10220 0.24140 -0.15900
O 	O 	0.26140 0.09320 0.22390 -0.55600
C 	C 	0.18220 0.12750 0.19380 0.42300
H 	H 	0.19380 0.15950 0.19890 -0.10500
C 	C 	0.15130 0.11220 0.17640 -0.32100
H 	H 	0.14150 0.13340 0.17050 0.14900
O 	O 	0.35110 0.13590 0.27750 -0.50100
C 	C 	0.40420 0.99320 0.25900 0.32800
O 	O 	0.08740 0.07940 0.14149 -0.47600
C 	C 	0.11620 0.05620 0.34990 0.10300
C 	C 	0.12680 0.03150 0.36870 0.02300
H 	H 	0.13440 0.00730 0.36310 0.09500
H 	H 	0.15450 0.05590 0.37690 -0.00700
H 	H 	0.09830 0.01560 0.37800 0.00300
C 	C 	0.07290 0.01720 0.33730 -0.14000
H 	H 	0.08000 0.99190 0.33260 0.02500
H 	H 	0.04400 0.00270 0.34640 0.04500
H 	H 	0.06710 0.03190 0.32470 0.04300
C 	C 	0.35870 0.94510 0.25340 -0.23200
H 	H 	0.34100 0.95040 0.24190 0.06000
H 	H 	0.36820 0.92170 0.24860 0.07600
H 	H 	0.33790 0.93240 0.26600 0.06200
C 	C 	0.10390 0.09480 0.35680 -0.40600
H 	H 	0.13110 0.12010 0.36500 0.00600
H 	H 	0.09790 0.10910 0.34410 0.14000
H 	H 	0.07480 0.07980 0.36590 0.12300
C 	C 	0.38800 0.97300 0.23630 -0.20500
H 	H 	0.35220 0.95850 0.23540 0.06100
H 	H 	0.40290 0.99990 0.22600 0.05400
H 	H 	0.39690 0.94900 0.23320 0.06600
C 	C 	0.43880 0.01390 0.23970 -0.29800
H 	H 	0.42230 0.01990 0.22790 0.09000
H 	H 	0.46760 0.04450 0.24390 0.08900
H 	H 	0.44860 0.99060 0.23520 0.10000
C 	C 	0.45940 0.01560 0.25900 -0.20900
H 	H 	0.47360 0.04070 0.24800 0.05000
H 	H 	0.47220 0.03010 0.27310 0.06000
H 	H 	0.46760 0.99030 0.25610 0.06400
C 	C 	0.43100 0.98470 0.27680 -0.17300
H 	H 	0.46060 0.01540 0.28050 0.06200
H 	H 	0.41060 0.97200 0.28950 0.05400
H 	H 	0.44090 0.96130 0.27200 0.05300
C 	C 	0.38300 0.95420 0.27640 -0.32800
H 	H 	0.34720 0.93960 0.27650 0.09400
H 	H 	0.39100 0.92900 0.27340 0.11100
H 	H 	0.39570 0.96880 0.29040 0.09300
C 	C 	0.12497 0.55773 0.69703 -0.23800
C 	C 	0.11157 0.56673 0.71713 0.08200
H 	H 	0.07977 0.56173 0.71893 -0.01500
C 	C 	0.14317 0.58273 0.73433 -0.05900
H 	H 	0.13217 0.58703 0.74793 0.04800
C 	C 	0.19007 0.59253 0.73223 -0.01400
C 	C 	0.20397 0.58103 0.71273 -0.07200
H 	H 	0.23547 0.58533 0.71113 0.05200
C 	C 	0.17127 0.56333 0.69583 0.08900
H 	H 	0.18077 0.55473 0.68293 0.00600
O 	O 	0.10327 0.51363 0.66483 -0.54400
N 	N 	0.07527 0.49193 0.64603 -0.16100
C 	C 	0.08517 0.46053 0.63883 0.07100
H 	H 	0.10857 0.45603 0.64643 0.04500
C 	C 	0.06327 0.43083 0.61993 -0.13400
C 	C 	0.02967 0.43663 0.60663 0.23400
C 	C 	0.01077 0.40533 0.58833 -0.14000
C 	C 	0.02367 0.36973 0.58423 0.04800
H 	H 	0.01017 0.34903 0.57223 0.00700
C 	C 	0.05577 0.36433 0.59763 -0.13300
C 	C 	0.07437 0.39443 0.61523 0.04600
H 	H 	0.09567 0.39023 0.62453 0.01400
C 	C 	0.97737 0.40753 0.57323 0.08000
H 	H 	0.96787 0.38633 0.56123 0.03500
N 	N 	0.95997 0.43553 0.57473 -0.16000
O 	O 	0.92807 0.42653 0.55723 -0.55700
C 	C 	0.84887 0.46083 0.52713 0.42300
H 	H 	0.86047 0.49283 0.53223 -0.10600
C 	C 	0.81797 0.44553 0.50973 -0.32200
H 	H 	0.80817 0.46673 0.50383 0.14900
O 	O 	0.01777 0.46923 0.61083 -0.50300
C 	C 	0.07087 0.32653 0.59233 0.32600
O 	O 	0.75407 0.41273 0.47482 -0.47600
C 	C 	0.78287 0.38953 0.68323 0.10200
C 	C 	0.79347 0.36483 0.70203 0.02500
H 	H 	0.80107 0.34063 0.69643 0.09300
H 	H 	0.82117 0.38923 0.71023 -0.00900
H 	H 	0.76497 0.34893 0.71133 0.00100
C 	C 	0.73957 0.35053 0.67063 -0.13800
H 	H 	0.74667 0.32523 0.66593 0.02300
H 	H 	0.71067 0.33603 0.67973 0.04400
H 	H 	0.73377 0.36523 0.65803 0.04200
C 	C 	0.02537 0.27843 0.58673 -0.23200
H 	H 	0.00767 0.28373 0.57523 0.05900
H 	H 	0.03487 0.25503 0.58193 0.07500
H 	H 	0.00457 0.26573 0.59933 0.06100
C 	C 	0.77057 0.42813 0.69013 -0.41000
H 	H 	0.79777 0.45343 0.69833 0.00500
H 	H 	0.76457 0.44243 0.67743 0.14000
H 	H 	0.74147 0.41313 0.69923 0.12400
C 	C 	0.05467 0.30633 0.56963 -0.20600
H 	H 	0.01887 0.29183 0.56873 0.06000
H 	H 	0.06957 0.33323 0.55933 0.05300
H 	H 	0.06357 0.28233 0.56653 0.06600
C 	C 	0.10547 0.34723 0.57303 -0.29800
H 	H 	0.08897 0.35323 0.56123 0.09000
H 	H 	0.13427 0.37783 0.57723 0.08900
H 	H 	0.11527 0.32393 0.56853 0.10000
C 	C 	0.12607 0.34893 0.59233 -0.20900
H 	H 	0.14027 0.37403 0.58133 0.05000
H 	H 	0.13887 0.36343 0.60643 0.06000
H 	H 	0.13427 0.32363 0.58943 0.06400
C 	C 	0.09767 0.31803 0.61013 -0.17300
H 	H 	0.12727 0.34873 0.61383 0.06200
H 	H 	0.07727 0.30533 0.62283 0.05400
H 	H 	0.10757 0.29463 0.60533 0.05300
C 	C 	0.04967 0.28753 0.60973 -0.32800
H 	H 	0.01387 0.27293 0.60983 0.09400
H 	H 	0.05767 0.26233 0.60673 0.11100
H 	H 	0.06237 0.30213 0.62373 0.09300
C 	C 	0.79163 0.89107 0.03037 -0.23700
C 	C 	0.77823 0.90007 0.05047 0.07700
H 	H 	0.74643 0.89507 0.05227 -0.01300
C 	C 	0.80983 0.91607 0.06767 -0.06500
H 	H 	0.79883 0.92037 0.08127 0.04900
C 	C 	0.85673 0.92587 0.06557 -0.01300
C 	C 	0.87063 0.91437 0.04607 -0.07200
H 	H 	0.90213 0.91867 0.04447 0.05200
C 	C 	0.83793 0.89667 0.02917 0.08800
H 	H 	0.84743 0.88807 0.01627 0.00600
O 	O 	0.76993 0.84697 0.99817 -0.54400
N 	N 	0.74193 0.82527 0.97937 -0.16100
C 	C 	0.75183 0.79387 0.97217 0.07100
H 	H 	0.77523 0.78937 0.97977 0.04500
C 	C 	0.72993 0.76417 0.95327 -0.13400
C 	C 	0.69633 0.76997 0.93997 0.23300
C 	C 	0.67743 0.73867 0.92167 -0.13900
C 	C 	0.69033 0.70307 0.91757 0.04700
H 	H 	0.67683 0.68237 0.90557 0.00800
C 	C 	0.72243 0.69767 0.93097 -0.13300
C 	C 	0.74103 0.72777 0.94857 0.04600
H 	H 	0.76233 0.72357 0.95787 0.01400
C 	C 	0.64403 0.74087 0.90657 0.07900
H 	H 	0.63453 0.71967 0.89457 0.03500
N 	N 	0.62663 0.76887 0.90807 -0.16000
O 	O 	0.59473 0.75987 0.89057 -0.55700
C 	C 	0.51553 0.79417 0.86047 0.42300
H 	H 	0.52713 0.82617 0.86557 -0.10500
C 	C 	0.48463 0.77887 0.84307 -0.32200
H 	H 	0.47483 0.80007 0.83717 0.14900
O 	O 	0.68443 0.80257 0.94417 -0.50200
C 	C 	0.73753 0.65987 0.92567 0.32600
O 	O 	0.42073 0.74607 0.80816 -0.47600
C 	C 	0.44953 0.72287 0.01657 0.10200
C 	C 	0.46013 0.69817 0.03537 0.02500
H 	H 	0.46773 0.67397 0.02977 0.09300
H 	H 	0.48783 0.72257 0.04357 -0.00900
H 	H 	0.43163 0.68227 0.04467 0.00100
C 	C 	0.40623 0.68387 0.00397 -0.13800
H 	H 	0.41333 0.65857 0.99927 0.02300
H 	H 	0.37733 0.66937 0.01307 0.04400
H 	H 	0.40043 0.69857 0.99137 0.04200
C 	C 	0.69203 0.61177 0.92007 -0.23200
H 	H 	0.67433 0.61707 0.90857 0.05900
H 	H 	0.70153 0.58837 0.91527 0.07500
H 	H 	0.67123 0.59907 0.93267 0.06100
C 	C 	0.43723 0.76147 0.02347 -0.41000
H 	H 	0.46443 0.78677 0.03167 0.00500
H 	H 	0.43123 0.77577 0.01077 0.14000
H 	H 	0.40813 0.74647 0.03257 0.12400
C 	C 	0.72133 0.63967 0.90297 -0.20600
H 	H 	0.68553 0.62517 0.90207 0.06000
H 	H 	0.73623 0.66657 0.89267 0.05300
H 	H 	0.73023 0.61567 0.89987 0.06600
C 	C 	0.77213 0.68057 0.90637 -0.29700
H 	H 	0.75563 0.68657 0.89457 0.09000
H 	H 	0.80093 0.71117 0.91057 0.08900
H 	H 	0.78193 0.65727 0.90187 0.10000
C 	C 	0.79273 0.68227 0.92567 -0.20900
H 	H 	0.80693 0.70737 0.91467 0.05000
H 	H 	0.80553 0.69677 0.93977 0.06000
H 	H 	0.80093 0.65697 0.92277 0.06400
C 	C 	0.76433 0.65137 0.94347 -0.17300
H 	H 	0.79393 0.68207 0.94717 0.06200
H 	H 	0.74393 0.63867 0.95617 0.05400
H 	H 	0.77423 0.62797 0.93867 0.05300
C 	C 	0.71633 0.62087 0.94307 -0.32800
H 	H 	0.68053 0.60627 0.94317 0.09400
H 	H 	0.72433 0.59567 0.94007 0.11100
H 	H 	0.72903 0.63547 0.95707 0.09300
C 	C 	0.77560 0.23390 0.36370 -0.23800
C 	C 	0.76660 0.21150 0.38380 0.08300
H 	H 	0.77160 0.18470 0.38560 -0.01500
C 	C 	0.75060 0.22710 0.40100 -0.05900
H 	H 	0.74630 0.21180 0.41460 0.04700
C 	C 	0.74080 0.26420 0.39890 -0.01400
C 	C 	0.75230 0.28960 0.37940 -0.07200
H 	H 	0.74800 0.31680 0.37780 0.05200
C 	C 	0.77000 0.27460 0.36250 0.08900
H 	H 	0.77860 0.29270 0.34960 0.00600
O 	O 	0.81970 0.25630 0.33150 -0.54400
N 	N 	0.84140 0.25000 0.31270 -0.16000
C 	C 	0.87280 0.29130 0.30550 0.07100
H 	H 	0.87730 0.31920 0.31310 0.04600
C 	C 	0.90250 0.29910 0.28660 -0.13200
C 	C 	0.89670 0.25970 0.27330 0.23200
C 	C 	0.92800 0.27210 0.25500 -0.13800
C 	C 	0.96360 0.32060 0.25090 0.04400
H 	H 	0.98430 0.32780 0.23890 0.01000
C 	C 	0.96900 0.35810 0.26430 -0.12700
C 	C 	0.93890 0.34660 0.28190 0.04300
H 	H 	0.94310 0.37210 0.29120 0.01600
C 	C 	0.92580 0.23650 0.23990 0.07800
H 	H 	0.94700 0.24820 0.22790 0.03600
N 	N 	0.89780 0.19110 0.24140 -0.16000
O 	O 	0.90680 0.16820 0.22390 -0.55700
C 	C 	0.87250 0.05470 0.19380 0.42300
H 	H 	0.84050 0.03430 0.19890 -0.10600
C 	C 	0.88780 0.03910 0.17640 -0.32200
H 	H 	0.86660 0.00810 0.17050 0.14900
O 	O 	0.86410 0.21520 0.27750 -0.50200
C 	C 	0.00680 0.41100 0.25900 0.31700
O 	O 	0.92060 0.00800 0.14149 -0.47600
C 	C 	0.94380 0.06000 0.34990 0.10200
C 	C 	0.96850 0.09530 0.36870 0.04300
H 	H 	0.99270 0.12710 0.36310 0.08900
H 	H 	0.94410 0.09860 0.37690 -0.01400
H 	H 	0.98440 0.08270 0.37800 -0.00300
C 	C 	0.98280 0.05570 0.33730 -0.11900
H 	H 	0.00810 0.08810 0.33260 0.01400
H 	H 	0.99730 0.04130 0.34640 0.03900
H 	H 	0.96810 0.03520 0.32470 0.04200
C 	C 	0.05490 0.41360 0.25340 -0.22800
H 	H 	0.04960 0.39060 0.24190 0.05800
H 	H 	0.07830 0.44650 0.24860 0.07300
H 	H 	0.06760 0.40550 0.26600 0.05900
C 	C 	0.90520 0.00910 0.35680 -0.42400
H 	H 	0.87990 0.01100 0.36500 0.00700
H 	H 	0.89090 0.98880 0.34410 0.14500
H 	H 	0.92020 0.99500 0.36590 0.12800
C 	C 	0.02700 0.41500 0.23630 -0.20100
H 	H 	0.04150 0.39370 0.23540 0.05900
H 	H 	0.00010 0.40300 0.22600 0.04700
H 	H 	0.05100 0.44790 0.23320 0.06400
C 	C 	0.98610 0.42490 0.23970 -0.29200
H 	H 	0.98010 0.40240 0.22790 0.09400
H 	H 	0.95550 0.42310 0.24390 0.08300
H 	H 	0.00940 0.45800 0.23520 0.09700
C 	C 	0.98440 0.44380 0.25900 -0.19800
H 	H 	0.95930 0.43290 0.24800 0.05300
H 	H 	0.96990 0.44210 0.27310 0.05400
H 	H 	0.00970 0.47730 0.25610 0.06000
C 	C 	0.01530 0.44630 0.27680 -0.17300
H 	H 	0.98460 0.44520 0.28050 0.06600
H 	H 	0.02800 0.43860 0.28950 0.04600
H 	H 	0.03870 0.47960 0.27200 0.05300
C 	C 	0.04580 0.42880 0.27640 -0.32900
H 	H 	0.06040 0.40760 0.27650 0.09500
H 	H 	0.07100 0.46200 0.27340 0.11100
H 	H 	0.03120 0.42690 0.29040 0.10100
C 	C 	0.44227 0.56723 0.69703 -0.23800
C 	C 	0.43327 0.54483 0.71713 0.08200
H 	H 	0.43827 0.51803 0.71893 -0.01500
C 	C 	0.41727 0.56043 0.73433 -0.05900
H 	H 	0.41297 0.54513 0.74793 0.04800
C 	C 	0.40747 0.59753 0.73223 -0.01400
C 	C 	0.41897 0.62293 0.71273 -0.07200
H 	H 	0.41467 0.65013 0.71113 0.05200
C 	C 	0.43667 0.60793 0.69583 0.08900
H 	H 	0.44527 0.62603 0.68293 0.00600
O 	O 	0.48637 0.58963 0.66483 -0.54400
N 	N 	0.50807 0.58333 0.64603 -0.16100
C 	C 	0.53947 0.62463 0.63883 0.07100
H 	H 	0.54397 0.65253 0.64643 0.04500
C 	C 	0.56917 0.63243 0.61993 -0.13400
C 	C 	0.56337 0.59303 0.60663 0.23300
C 	C 	0.59467 0.60543 0.58833 -0.13900
C 	C 	0.63027 0.65393 0.58423 0.04700
H 	H 	0.65097 0.66113 0.57223 0.00800
C 	C 	0.63567 0.69143 0.59763 -0.13300
C 	C 	0.60557 0.67993 0.61523 0.04600
H 	H 	0.60977 0.70543 0.62453 0.01500
C 	C 	0.59247 0.56983 0.57323 0.07900
H 	H 	0.61367 0.58153 0.56123 0.03500
N 	N 	0.56447 0.52443 0.57473 -0.16000
O 	O 	0.57347 0.50153 0.55723 -0.55700
C 	C 	0.53917 0.38803 0.52713 0.42300
H 	H 	0.50717 0.36763 0.53223 -0.10600
C 	C 	0.55447 0.37243 0.50973 -0.32200
H 	H 	0.53327 0.34143 0.50383 0.14900
O 	O 	0.53077 0.54853 0.61083 -0.50200
C 	C 	0.67347 0.74433 0.59233 0.32700
O 	O 	0.58727 0.34133 0.47482 -0.47600
C 	C 	0.61047 0.39333 0.68323 0.10200
C 	C 	0.63517 0.42863 0.70203 0.02500
H 	H 	0.65937 0.46043 0.69643 0.09300
H 	H 	0.61077 0.43193 0.71023 -0.00900
H 	H 	0.65107 0.41603 0.71133 0.00100
C 	C 	0.64947 0.38903 0.67063 -0.13800
H 	H 	0.67477 0.42143 0.66593 0.02300
H 	H 	0.66397 0.37463 0.67973 0.04400
H 	H 	0.63477 0.36853 0.65803 0.04200
C 	C 	0.72157 0.74693 0.58673 -0.23300
H 	H 	0.71627 0.72393 0.57523 0.05900
H 	H 	0.74497 0.77983 0.58193 0.07500
H 	H 	0.73427 0.73883 0.59933 0.06100
C 	C 	0.57187 0.34243 0.69013 -0.41000
H 	H 	0.54657 0.34433 0.69833 0.00500
H 	H 	0.55757 0.32213 0.67743 0.14000
H 	H 	0.58687 0.32833 0.69923 0.12400
C 	C 	0.69367 0.74833 0.56963 -0.20600
H 	H 	0.70817 0.72703 0.56873 0.06000
H 	H 	0.66677 0.73633 0.55933 0.05300
H 	H 	0.71767 0.78123 0.56653 0.06600
C 	C 	0.65277 0.75823 0.57303 -0.29700
H 	H 	0.64677 0.73573 0.56123 0.09000
H 	H 	0.62217 0.75643 0.57723 0.08900
H 	H 	0.67607 0.79133 0.56853 0.10000
C 	C 	0.65107 0.77713 0.59233 -0.20900
H 	H 	0.62597 0.76623 0.58133 0.05000
H 	H 	0.63657 0.77543 0.60643 0.06000
H 	H 	0.67637 0.81063 0.58943 0.06400
C 	C 	0.68197 0.77963 0.61013 -0.17300
H 	H 	0.65127 0.77853 0.61383 0.06200
H 	H 	0.69467 0.77193 0.62283 0.05400
H 	H 	0.70537 0.81293 0.60533 0.05300
C 	C 	0.71247 0.76213 0.60973 -0.32800
H 	H 	0.72707 0.74093 0.60983 0.09400
H 	H 	0.73767 0.79533 0.60673 0.11100
H 	H 	0.69787 0.76023 0.62373 0.09300
C 	C 	0.10893 0.90057 0.03037 -0.24100
C 	C 	0.09993 0.87817 0.05047 0.09800
H 	H 	0.10493 0.85137 0.05227 -0.02000
C 	C 	0.08393 0.89377 0.06767 -0.04200
H 	H 	0.07963 0.87847 0.08127 0.04200
C 	C 	0.07413 0.93087 0.06557 -0.01500
C 	C 	0.08563 0.95627 0.04607 -0.07000
H 	H 	0.08133 0.98347 0.04447 0.05200
C 	C 	0.10333 0.94127 0.02917 0.09100
H 	H 	0.11193 0.95937 0.01627 0.00500
O 	O 	0.15303 0.92297 0.99817 -0.54400
N 	N 	0.17473 0.91667 0.97937 -0.16000
C 	C 	0.20613 0.95797 0.97217 0.07100
H 	H 	0.21063 0.98587 0.97977 0.04600
C 	C 	0.23583 0.96577 0.95327 -0.13200
C 	C 	0.23003 0.92637 0.93997 0.23300
C 	C 	0.26133 0.93877 0.92167 -0.14000
C 	C 	0.29693 0.98727 0.91757 0.05000
H 	H 	0.31763 0.99447 0.90557 0.00800
C 	C 	0.30233 0.02477 0.93097 -0.13500
C 	C 	0.27223 0.01327 0.94857 0.04400
H 	H 	0.27643 0.03877 0.95787 0.01500
C 	C 	0.25913 0.90317 0.90657 0.07900
H 	H 	0.28033 0.91487 0.89457 0.03600
N 	N 	0.23113 0.85777 0.90807 -0.16000
O 	O 	0.24013 0.83487 0.89057 -0.55700
C 	C 	0.20583 0.72137 0.86047 0.42300
H 	H 	0.17383 0.70097 0.86557 -0.10600
C 	C 	0.22113 0.70577 0.84307 -0.32200
H 	H 	0.19993 0.67477 0.83717 0.14900
O 	O 	0.19743 0.88187 0.94417 -0.50200
C 	C 	0.34013 0.07767 0.92567 0.32700
O 	O 	0.25393 0.67467 0.80816 -0.47600
C 	C 	0.27713 0.72667 0.01657 0.10200
C 	C 	0.30183 0.76197 0.03537 0.02500
H 	H 	0.32603 0.79377 0.02977 0.09300
H 	H 	0.27743 0.76527 0.04357 -0.00900
H 	H 	0.31773 0.74937 0.04467 0.00100
C 	C 	0.31613 0.72237 0.00397 -0.13800
H 	H 	0.34143 0.75477 0.99927 0.02300
H 	H 	0.33063 0.70797 0.01307 0.04400
H 	H 	0.30143 0.70187 0.99137 0.04200
C 	C 	0.38823 0.08027 0.92007 -0.23200
H 	H 	0.38293 0.05727 0.90857 0.05900
H 	H 	0.41163 0.11317 0.91527 0.07500
H 	H 	0.40093 0.07217 0.93267 0.06100
C 	C 	0.23853 0.67577 0.02347 -0.41000
H 	H 	0.21323 0.67767 0.03167 0.00500
H 	H 	0.22423 0.65547 0.01077 0.14000
H 	H 	0.25353 0.66167 0.03257 0.12400
C 	C 	0.36033 0.08167 0.90297 -0.20600
H 	H 	0.37483 0.06037 0.90207 0.06000
H 	H 	0.33343 0.06967 0.89267 0.05300
H 	H 	0.38433 0.11457 0.89987 0.06600
C 	C 	0.31943 0.09157 0.90637 -0.29800
H 	H 	0.31343 0.06907 0.89457 0.09000
H 	H 	0.28883 0.08977 0.91057 0.08900
H 	H 	0.34273 0.12467 0.90187 0.10000
C 	C 	0.31773 0.11047 0.92567 -0.20900
H 	H 	0.29263 0.09957 0.91467 0.05000
H 	H 	0.30323 0.10877 0.93977 0.06000
H 	H 	0.34303 0.14397 0.92277 0.06400
C 	C 	0.34863 0.11297 0.94347 -0.17300
H 	H 	0.31793 0.11187 0.94717 0.06200
H 	H 	0.36133 0.10527 0.95617 0.05400
H 	H 	0.37203 0.14627 0.93867 0.05300
C 	C 	0.37913 0.09547 0.94307 -0.32800
H 	H 	0.39373 0.07427 0.94317 0.09400
H 	H 	0.40433 0.12867 0.94007 0.11100
H 	H 	0.36453 0.09357 0.95707 0.09300
C 	C 	0.76610 0.54170 0.36370 -0.23800
C 	C 	0.78850 0.55510 0.38380 0.08200
H 	H 	0.81530 0.58690 0.38560 -0.01500
C 	C 	0.77290 0.52350 0.40100 -0.05900
H 	H 	0.78820 0.53450 0.41460 0.04800
C 	C 	0.73580 0.47660 0.39890 -0.01400
C 	C 	0.71040 0.46270 0.37940 -0.07200
H 	H 	0.68320 0.43120 0.37780 0.05200
C 	C 	0.72540 0.49540 0.36250 0.08900
H 	H 	0.70730 0.48590 0.34960 0.00600
O 	O 	0.74370 0.56340 0.33150 -0.54400
N 	N 	0.75000 0.59140 0.31270 -0.16000
C 	C 	0.70870 0.58150 0.30550 0.07100
H 	H 	0.68080 0.55810 0.31310 0.04500
C 	C 	0.70090 0.60340 0.28660 -0.13400
C 	C 	0.74030 0.63700 0.27330 0.23300
C 	C 	0.72790 0.65590 0.25500 -0.13900
C 	C 	0.67940 0.64300 0.25090 0.04700
H 	H 	0.67220 0.65650 0.23890 0.00800
C 	C 	0.64190 0.61090 0.26430 -0.13300
C 	C 	0.65340 0.59230 0.28190 0.04600
H 	H 	0.62790 0.57100 0.29120 0.01500
C 	C 	0.76350 0.68930 0.23990 0.07900
H 	H 	0.75180 0.69880 0.22790 0.03500
N 	N 	0.80890 0.70670 0.24140 -0.16000
O 	O 	0.83180 0.73860 0.22390 -0.55700
C 	C 	0.94530 0.81780 0.19380 0.42300
H 	H 	0.96570 0.80620 0.19890 -0.10500
C 	C 	0.96090 0.84870 0.17640 -0.32200
H 	H 	0.99190 0.85850 0.17050 0.14900
O 	O 	0.78480 0.64890 0.27750 -0.50200
C 	C 	0.58900 0.59580 0.25900 0.32600
O 	O 	0.99200 0.91260 0.14149 -0.47500
C 	C 	0.94000 0.88380 0.34990 0.10100
C 	C 	0.90470 0.87320 0.36870 0.04100
H 	H 	0.87290 0.86560 0.36310 0.09000
H 	H 	0.90140 0.84550 0.37690 -0.01300
H 	H 	0.91730 0.90170 0.37800 -0.00300
C 	C 	0.94430 0.92710 0.33730 -0.14200
H 	H 	0.91190 0.92000 0.33260 0.02300
H 	H 	0.95870 0.95600 0.34640 0.04500
H 	H 	0.96480 0.93290 0.32470 0.04000
C 	C 	0.58640 0.64130 0.25340 -0.23200
H 	H 	0.60940 0.65900 0.24190 0.05900
H 	H 	0.55350 0.63180 0.24860 0.07500
H 	H 	0.59450 0.66210 0.26600 0.06100
C 	C 	0.99090 0.89610 0.35680 -0.42700
H 	H 	0.98900 0.86890 0.36500 0.00800
H 	H 	0.01120 0.90210 0.34410 0.14600
H 	H 	0.00500 0.92520 0.36590 0.12700
C 	C 	0.58500 0.61200 0.23630 -0.20600
H 	H 	0.60630 0.64780 0.23540 0.06000
H 	H 	0.59700 0.59710 0.22600 0.05300
H 	H 	0.55210 0.60310 0.23320 0.06600
C 	C 	0.57510 0.56120 0.23970 -0.29700
H 	H 	0.59760 0.57770 0.22790 0.09000
H 	H 	0.57690 0.53240 0.24390 0.08900
H 	H 	0.54200 0.55140 0.23520 0.10000
C 	C 	0.55620 0.54060 0.25900 -0.20900
H 	H 	0.56710 0.52640 0.24800 0.05000
H 	H 	0.55790 0.52780 0.27310 0.06000
H 	H 	0.52270 0.53240 0.25610 0.06400
C 	C 	0.55370 0.56900 0.27680 -0.17300
H 	H 	0.55480 0.53940 0.28050 0.06200
H 	H 	0.56140 0.58940 0.28950 0.05400
H 	H 	0.52040 0.55910 0.27200 0.05300
C 	C 	0.57120 0.61700 0.27640 -0.32800
H 	H 	0.59240 0.65280 0.27650 0.09400
H 	H 	0.53800 0.60900 0.27340 0.11100
H 	H 	0.57310 0.60430 0.29040 0.09300
C 	C 	0.43277 0.87503 0.69703 -0.23800
C 	C 	0.45517 0.88843 0.71713 0.08200
H 	H 	0.48197 0.92023 0.71893 -0.01500
C 	C 	0.43957 0.85683 0.73433 -0.05900
H 	H 	0.45487 0.86783 0.74793 0.04800
C 	C 	0.40247 0.80993 0.73223 -0.01400
C 	C 	0.37707 0.79603 0.71273 -0.07200
H 	H 	0.34987 0.76453 0.71113 0.05200
C 	C 	0.39207 0.82873 0.69583 0.08900
H 	H 	0.37397 0.81923 0.68293 0.00600
O 	O 	0.41037 0.89673 0.66483 -0.54400
N 	N 	0.41667 0.92473 0.64603 -0.16000
C 	C 	0.37537 0.91483 0.63883 0.07100
H 	H 	0.34747 0.89143 0.64643 0.04600
C 	C 	0.36757 0.93673 0.61993 -0.13300
C 	C 	0.40697 0.97033 0.60663 0.23300
C 	C 	0.39457 0.98923 0.58833 -0.13600
C 	C 	0.34607 0.97633 0.58423 0.04600
H 	H 	0.33887 0.98983 0.57223 0.00800
C 	C 	0.30857 0.94423 0.59763 -0.13300
C 	C 	0.32007 0.92563 0.61523 0.04600
H 	H 	0.29457 0.90433 0.62453 0.01500
C 	C 	0.43017 0.02263 0.57323 0.07600
H 	H 	0.41847 0.03213 0.56123 0.03600
N 	N 	0.47557 0.04003 0.57473 -0.16000
O 	O 	0.49847 0.07193 0.55723 -0.55700
C 	C 	0.61197 0.15113 0.52713 0.42300
H 	H 	0.63237 0.13953 0.53223 -0.10600
C 	C 	0.62757 0.18203 0.50973 -0.32200
H 	H 	0.65857 0.19183 0.50383 0.14900
O 	O 	0.45147 0.98223 0.61083 -0.50100
C 	C 	0.25567 0.92913 0.59233 0.32600
O 	O 	0.65867 0.24593 0.47482 -0.47600
C 	C 	0.60667 0.21713 0.68323 0.10200
C 	C 	0.57137 0.20653 0.70203 0.02500
H 	H 	0.53957 0.19893 0.69643 0.09300
H 	H 	0.56807 0.17883 0.71023 -0.00900
H 	H 	0.58397 0.23503 0.71133 0.00100
C 	C 	0.61097 0.26043 0.67063 -0.13800
H 	H 	0.57857 0.25333 0.66593 0.02300
H 	H 	0.62537 0.28933 0.67973 0.04400
H 	H 	0.63147 0.26623 0.65803 0.04200
C 	C 	0.25307 0.97463 0.58673 -0.23300
H 	H 	0.27607 0.99233 0.57523 0.05900
H 	H 	0.22017 0.96513 0.58193 0.07500
H 	H 	0.26117 0.99543 0.59933 0.06100
C 	C 	0.65757 0.22943 0.69013 -0.40900
H 	H 	0.65567 0.20223 0.69833 0.00500
H 	H 	0.67787 0.23543 0.67743 0.14000
H 	H 	0.67167 0.25853 0.69923 0.12400
C 	C 	0.25167 0.94533 0.56963 -0.20600
H 	H 	0.27297 0.98113 0.56873 0.06000
H 	H 	0.26367 0.93043 0.55933 0.05400
H 	H 	0.21877 0.93643 0.56653 0.06600
C 	C 	0.24177 0.89453 0.57303 -0.29700
H 	H 	0.26427 0.91103 0.56123 0.09000
H 	H 	0.24357 0.86573 0.57723 0.08900
H 	H 	0.20867 0.88473 0.56853 0.10000
C 	C 	0.22287 0.87393 0.59233 -0.20800
H 	H 	0.23377 0.85973 0.58133 0.05000
H 	H 	0.22457 0.86113 0.60643 0.06000
H 	H 	0.18937 0.86573 0.58943 0.06400
C 	C 	0.22037 0.90233 0.61013 -0.17300
H 	H 	0.22147 0.87273 0.61383 0.06200
H 	H 	0.22807 0.92273 0.62283 0.05400
H 	H 	0.18707 0.89243 0.60533 0.05300
C 	C 	0.23787 0.95033 0.60973 -0.32800
H 	H 	0.25907 0.98613 0.60983 0.09500
H 	H 	0.20467 0.94233 0.60673 0.11100
H 	H 	0.23977 0.93763 0.62373 0.09300
C 	C 	0.09943 0.20837 0.03037 -0.23700
C 	C 	0.12183 0.22177 0.05047 0.07200
H 	H 	0.14863 0.25357 0.05227 -0.01200
C 	C 	0.10623 0.19017 0.06767 -0.07000
H 	H 	0.12153 0.20117 0.08127 0.05100
C 	C 	0.06913 0.14327 0.06557 -0.01300
C 	C 	0.04373 0.12937 0.04607 -0.07200
H 	H 	0.01653 0.09787 0.04447 0.05100
C 	C 	0.05873 0.16207 0.02917 0.08700
H 	H 	0.04063 0.15257 0.01627 0.00600
O 	O 	0.07703 0.23007 0.99817 -0.54500
N 	N 	0.08333 0.25807 0.97937 -0.16100
C 	C 	0.04203 0.24817 0.97217 0.07200
H 	H 	0.01413 0.22477 0.97977 0.04500
C 	C 	0.03423 0.27007 0.95327 -0.13500
C 	C 	0.07363 0.30367 0.93997 0.23400
C 	C 	0.06123 0.32257 0.92167 -0.13900
C 	C 	0.01273 0.30967 0.91757 0.04600
H 	H 	0.00553 0.32317 0.90557 0.00800
C 	C 	0.97523 0.27757 0.93097 -0.13300
C 	C 	0.98673 0.25897 0.94857 0.04800
H 	H 	0.96123 0.23767 0.95787 0.01400
C 	C 	0.09683 0.35597 0.90657 0.07900
H 	H 	0.08513 0.36547 0.89457 0.03500
N 	N 	0.14223 0.37337 0.90807 -0.16000
O 	O 	0.16513 0.40527 0.89057 -0.55700
C 	C 	0.27863 0.48447 0.86047 0.42300
H 	H 	0.29903 0.47287 0.86557 -0.10600
C 	C 	0.29423 0.51537 0.84307 -0.32200
H 	H 	0.32523 0.52517 0.83717 0.14900
O 	O 	0.11813 0.31557 0.94417 -0.50200
C 	C 	0.92233 0.26247 0.92567 0.32600
O 	O 	0.32533 0.57927 0.80816 -0.47600
C 	C 	0.27333 0.55047 0.01657 0.10200
C 	C 	0.23803 0.53987 0.03537 0.02500
H 	H 	0.20623 0.53227 0.02977 0.09300
H 	H 	0.23473 0.51217 0.04357 -0.00900
H 	H 	0.25063 0.56837 0.04467 0.00100
C 	C 	0.27763 0.59377 0.00397 -0.13800
H 	H 	0.24523 0.58667 0.99927 0.02300
H 	H 	0.29203 0.62267 0.01307 0.04400
H 	H 	0.29813 0.59957 0.99137 0.04200
C 	C 	0.91973 0.30797 0.92007 -0.23200
H 	H 	0.94273 0.32567 0.90857 0.05900
H 	H 	0.88683 0.29847 0.91527 0.07500
H 	H 	0.92783 0.32877 0.93267 0.06100
C 	C 	0.32423 0.56277 0.02347 -0.41000
H 	H 	0.32233 0.53557 0.03167 0.00500
H 	H 	0.34453 0.56877 0.01077 0.14000
H 	H 	0.33833 0.59187 0.03257 0.12400
C 	C 	0.91833 0.27867 0.90297 -0.20600
H 	H 	0.93963 0.31447 0.90207 0.06000
H 	H 	0.93033 0.26377 0.89267 0.05300
H 	H 	0.88543 0.26977 0.89987 0.06600
C 	C 	0.90843 0.22787 0.90637 -0.29700
H 	H 	0.93093 0.24437 0.89457 0.09000
H 	H 	0.91023 0.19907 0.91057 0.08900
H 	H 	0.87533 0.21807 0.90187 0.10000
C 	C 	0.88953 0.20727 0.92567 -0.20800
H 	H 	0.90043 0.19307 0.91467 0.05100
H 	H 	0.89123 0.19447 0.93977 0.06000
H 	H 	0.85603 0.19907 0.92277 0.06400
C 	C 	0.88703 0.23567 0.94347 -0.17300
H 	H 	0.88813 0.20607 0.94717 0.06200
H 	H 	0.89473 0.25607 0.95617 0.05400
H 	H 	0.85373 0.22577 0.93867 0.05300
C 	C 	0.90453 0.28367 0.94307 -0.32800
H 	H 	0.92573 0.31947 0.94317 0.09500
H 	H 	0.87133 0.27567 0.94007 0.11100
H 	H 	0.90643 0.27097 0.95707 0.09300
C 	C 	0.77560 0.54170 0.36370 -0.23800
C 	C 	0.76660 0.55510 0.38380 0.08200
H 	H 	0.77160 0.58690 0.38560 -0.01500
C 	C 	0.75060 0.52350 0.40100 -0.05900
H 	H 	0.74630 0.53450 0.41460 0.04800
C 	C 	0.74080 0.47660 0.39890 -0.01400
C 	C 	0.75230 0.46270 0.37940 -0.07200
H 	H 	0.74800 0.43120 0.37780 0.05200
C 	C 	0.77000 0.49540 0.36250 0.08900
H 	H 	0.77860 0.48590 0.34960 0.00600
O 	O 	0.81970 0.56340 0.33150 -0.54400
N 	N 	0.84140 0.59140 0.31270 -0.16000
C 	C 	0.87280 0.58150 0.30550 0.07100
H 	H 	0.87730 0.55810 0.31310 0.04600
C 	C 	0.90250 0.60340 0.28660 -0.13200
C 	C 	0.89670 0.63700 0.27330 0.23200
C 	C 	0.92800 0.65590 0.25500 -0.13800
C 	C 	0.96360 0.64300 0.25090 0.04400
H 	H 	0.98430 0.65650 0.23890 0.01000
C 	C 	0.96900 0.61090 0.26430 -0.12700
C 	C 	0.93890 0.59230 0.28190 0.04300
H 	H 	0.94310 0.57100 0.29120 0.01600
C 	C 	0.92580 0.68930 0.23990 0.07800
H 	H 	0.94700 0.69880 0.22790 0.03600
N 	N 	0.89780 0.70670 0.24140 -0.16000
O 	O 	0.90680 0.73860 0.22390 -0.55700
C 	C 	0.87250 0.81780 0.19380 0.42300
H 	H 	0.84050 0.80620 0.19890 -0.10600
C 	C 	0.88780 0.84870 0.17640 -0.32200
H 	H 	0.86660 0.85850 0.17050 0.14900
O 	O 	0.86410 0.64890 0.27750 -0.50200
C 	C 	0.00680 0.59580 0.25900 0.31700
O 	O 	0.92060 0.91260 0.14149 -0.47600
C 	C 	0.94380 0.88380 0.34990 0.10200
C 	C 	0.96850 0.87320 0.36870 0.04300
H 	H 	0.99270 0.86560 0.36310 0.08900
H 	H 	0.94410 0.84550 0.37690 -0.01400
H 	H 	0.98440 0.90170 0.37800 -0.00300
C 	C 	0.98280 0.92710 0.33730 -0.12100
H 	H 	0.00810 0.92000 0.33260 0.01500
H 	H 	0.99730 0.95600 0.34640 0.04000
H 	H 	0.96810 0.93290 0.32470 0.04200
C 	C 	0.05490 0.64130 0.25340 -0.22800
H 	H 	0.04960 0.65900 0.24190 0.05800
H 	H 	0.07830 0.63180 0.24860 0.07300
H 	H 	0.06760 0.66210 0.26600 0.05900
C 	C 	0.90520 0.89610 0.35680 -0.42500
H 	H 	0.87990 0.86890 0.36500 0.00800
H 	H 	0.89090 0.90210 0.34410 0.14500
H 	H 	0.92020 0.92520 0.36590 0.12900
C 	C 	0.02700 0.61200 0.23630 -0.20100
H 	H 	0.04150 0.64780 0.23540 0.05900
H 	H 	0.00010 0.59710 0.22600 0.04700
H 	H 	0.05100 0.60310 0.23320 0.06400
C 	C 	0.98610 0.56120 0.23970 -0.29200
H 	H 	0.98010 0.57770 0.22790 0.09400
H 	H 	0.95550 0.53240 0.24390 0.08300
H 	H 	0.00940 0.55140 0.23520 0.09700
C 	C 	0.98440 0.54060 0.25900 -0.19800
H 	H 	0.95930 0.52640 0.24800 0.05300
H 	H 	0.96990 0.52780 0.27310 0.05400
H 	H 	0.00970 0.53240 0.25610 0.06000
C 	C 	0.01530 0.56900 0.27680 -0.17300
H 	H 	0.98460 0.53940 0.28050 0.06600
H 	H 	0.02800 0.58940 0.28950 0.04600
H 	H 	0.03870 0.55910 0.27200 0.05300
C 	C 	0.04580 0.61700 0.27640 -0.32900
H 	H 	0.06040 0.65280 0.27650 0.09500
H 	H 	0.07100 0.60900 0.27340 0.11100
H 	H 	0.03120 0.60430 0.29040 0.10100
C 	C 	0.44227 0.87503 0.69703 -0.23800
C 	C 	0.43327 0.88843 0.71713 0.08200
H 	H 	0.43827 0.92023 0.71893 -0.01500
C 	C 	0.41727 0.85683 0.73433 -0.05900
H 	H 	0.41297 0.86783 0.74793 0.04800
C 	C 	0.40747 0.80993 0.73223 -0.01400
C 	C 	0.41897 0.79603 0.71273 -0.07200
H 	H 	0.41467 0.76453 0.71113 0.05200
C 	C 	0.43667 0.82873 0.69583 0.08900
H 	H 	0.44527 0.81923 0.68293 0.00600
O 	O 	0.48637 0.89673 0.66483 -0.54400
N 	N 	0.50807 0.92473 0.64603 -0.16000
C 	C 	0.53947 0.91483 0.63883 0.07100
H 	H 	0.54397 0.89143 0.64643 0.04600
C 	C 	0.56917 0.93673 0.61993 -0.13300
C 	C 	0.56337 0.97033 0.60663 0.23300
C 	C 	0.59467 0.98923 0.58833 -0.13600
C 	C 	0.63027 0.97633 0.58423 0.04600
H 	H 	0.65097 0.98983 0.57223 0.00800
C 	C 	0.63567 0.94423 0.59763 -0.13300
C 	C 	0.60557 0.92563 0.61523 0.04600
H 	H 	0.60977 0.90433 0.62453 0.01500
C 	C 	0.59247 0.02263 0.57323 0.07600
H 	H 	0.61367 0.03213 0.56123 0.03600
N 	N 	0.56447 0.04003 0.57473 -0.16000
O 	O 	0.57347 0.07193 0.55723 -0.55700
C 	C 	0.53917 0.15113 0.52713 0.42300
H 	H 	0.50717 0.13953 0.53223 -0.10600
C 	C 	0.55447 0.18203 0.50973 -0.32200
H 	H 	0.53327 0.19183 0.50383 0.14900
O 	O 	0.53077 0.98223 0.61083 -0.50100
C 	C 	0.67347 0.92913 0.59233 0.32600
O 	O 	0.58727 0.24593 0.47482 -0.47600
C 	C 	0.61047 0.21713 0.68323 0.10200
C 	C 	0.63517 0.20653 0.70203 0.02500
H 	H 	0.65937 0.19893 0.69643 0.09300
H 	H 	0.61077 0.17883 0.71023 -0.00900
H 	H 	0.65107 0.23503 0.71133 0.00100
C 	C 	0.64947 0.26043 0.67063 -0.13800
H 	H 	0.67477 0.25333 0.66593 0.02300
H 	H 	0.66397 0.28933 0.67973 0.04400
H 	H 	0.63477 0.26623 0.65803 0.04200
C 	C 	0.72157 0.97463 0.58673 -0.23300
H 	H 	0.71627 0.99233 0.57523 0.05900
H 	H 	0.74497 0.96513 0.58193 0.07500
H 	H 	0.73427 0.99543 0.59933 0.06100
C 	C 	0.57187 0.22943 0.69013 -0.40900
H 	H 	0.54657 0.20223 0.69833 0.00500
H 	H 	0.55757 0.23543 0.67743 0.14000
H 	H 	0.58687 0.25853 0.69923 0.12400
C 	C 	0.69367 0.94533 0.56963 -0.20600
H 	H 	0.70817 0.98113 0.56873 0.06000
H 	H 	0.66677 0.93043 0.55933 0.05400
H 	H 	0.71767 0.93643 0.56653 0.06600
C 	C 	0.65277 0.89453 0.57303 -0.29700
H 	H 	0.64677 0.91103 0.56123 0.09000
H 	H 	0.62217 0.86573 0.57723 0.08900
H 	H 	0.67607 0.88473 0.56853 0.10000
C 	C 	0.65107 0.87393 0.59233 -0.20900
H 	H 	0.62597 0.85973 0.58133 0.05000
H 	H 	0.63657 0.86113 0.60643 0.06000
H 	H 	0.67637 0.86573 0.58943 0.06400
C 	C 	0.68197 0.90233 0.61013 -0.17300
H 	H 	0.65127 0.87273 0.61383 0.06200
H 	H 	0.69467 0.92273 0.62283 0.05400
H 	H 	0.70537 0.89243 0.60533 0.05300
C 	C 	0.71247 0.95033 0.60973 -0.32800
H 	H 	0.72707 0.98613 0.60983 0.09500
H 	H 	0.73767 0.94233 0.60673 0.11100
H 	H 	0.69787 0.93763 0.62373 0.09300
C 	C 	0.10893 0.20837 0.03037 -0.24000
C 	C 	0.09993 0.22177 0.05047 0.09200
H 	H 	0.10493 0.25357 0.05227 -0.01800
C 	C 	0.08393 0.19017 0.06767 -0.04800
H 	H 	0.07963 0.20117 0.08127 0.04400
C 	C 	0.07413 0.14327 0.06557 -0.01500
C 	C 	0.08563 0.12937 0.04607 -0.07100
H 	H 	0.08133 0.09787 0.04447 0.05100
C 	C 	0.10333 0.16207 0.02917 0.09000
H 	H 	0.11193 0.15257 0.01627 0.00500
O 	O 	0.15303 0.23007 0.99817 -0.54400
N 	N 	0.17473 0.25807 0.97937 -0.16100
C 	C 	0.20613 0.24817 0.97217 0.07100
H 	H 	0.21063 0.22477 0.97977 0.04600
C 	C 	0.23583 0.27007 0.95327 -0.13400
C 	C 	0.23003 0.30367 0.93997 0.23300
C 	C 	0.26133 0.32257 0.92167 -0.13900
C 	C 	0.29693 0.30967 0.91757 0.04700
H 	H 	0.31763 0.32317 0.90557 0.00800
C 	C 	0.30233 0.27757 0.93097 -0.13300
C 	C 	0.27223 0.25897 0.94857 0.04600
H 	H 	0.27643 0.23767 0.95787 0.01500
C 	C 	0.25913 0.35597 0.90657 0.07900
H 	H 	0.28033 0.36547 0.89457 0.03500
N 	N 	0.23113 0.37337 0.90807 -0.16000
O 	O 	0.24013 0.40527 0.89057 -0.55700
C 	C 	0.20583 0.48447 0.86047 0.42300
H 	H 	0.17383 0.47287 0.86557 -0.10600
C 	C 	0.22113 0.51537 0.84307 -0.32200
H 	H 	0.19993 0.52517 0.83717 0.14900
O 	O 	0.19743 0.31557 0.94417 -0.50200
C 	C 	0.34013 0.26247 0.92567 0.32600
O 	O 	0.25393 0.57927 0.80816 -0.47600
C 	C 	0.27713 0.55047 0.01657 0.10200
C 	C 	0.30183 0.53987 0.03537 0.02500
H 	H 	0.32603 0.53227 0.02977 0.09300
H 	H 	0.27743 0.51217 0.04357 -0.00900
H 	H 	0.31773 0.56837 0.04467 0.00100
C 	C 	0.31613 0.59377 0.00397 -0.13800
H 	H 	0.34143 0.58667 0.99927 0.02300
H 	H 	0.33063 0.62267 0.01307 0.04400
H 	H 	0.30143 0.59957 0.99137 0.04200
C 	C 	0.38823 0.30797 0.92007 -0.23200
H 	H 	0.38293 0.32567 0.90857 0.05900
H 	H 	0.41163 0.29847 0.91527 0.07500
H 	H 	0.40093 0.32877 0.93267 0.06100
C 	C 	0.23853 0.56277 0.02347 -0.40900
H 	H 	0.21323 0.53557 0.03167 0.00500
H 	H 	0.22423 0.56877 0.01077 0.14000
H 	H 	0.25353 0.59187 0.03257 0.12400
C 	C 	0.36033 0.27867 0.90297 -0.20600
H 	H 	0.37483 0.31447 0.90207 0.06000
H 	H 	0.33343 0.26377 0.89267 0.05300
H 	H 	0.38433 0.26977 0.89987 0.06600
C 	C 	0.31943 0.22787 0.90637 -0.29700
H 	H 	0.31343 0.24437 0.89457 0.09000
H 	H 	0.28883 0.19907 0.91057 0.08900
H 	H 	0.34273 0.21807 0.90187 0.10000
C 	C 	0.31773 0.20727 0.92567 -0.20800
H 	H 	0.29263 0.19307 0.91467 0.05000
H 	H 	0.30323 0.19447 0.93977 0.06000
H 	H 	0.34303 0.19907 0.92277 0.06400
C 	C 	0.34863 0.23567 0.94347 -0.17300
H 	H 	0.31793 0.20607 0.94717 0.06200
H 	H 	0.36133 0.25607 0.95617 0.05400
H 	H 	0.37203 0.22577 0.93867 0.05300
C 	C 	0.37913 0.28367 0.94307 -0.32800
H 	H 	0.39373 0.31947 0.94317 0.09400
H 	H 	0.40433 0.27567 0.94007 0.11100
H 	H 	0.36453 0.27097 0.95707 0.09300
C 	C 	0.76610 0.22440 0.36370 -0.23800
C 	C 	0.78850 0.23340 0.38380 0.08200
H 	H 	0.81530 0.22840 0.38560 -0.01500
C 	C 	0.77290 0.24940 0.40100 -0.05900
H 	H 	0.78820 0.25370 0.41460 0.04800
C 	C 	0.73580 0.25920 0.39890 -0.01400
C 	C 	0.71040 0.24770 0.37940 -0.07200
H 	H 	0.68320 0.25200 0.37780 0.05200
C 	C 	0.72540 0.23000 0.36250 0.08900
H 	H 	0.70730 0.22140 0.34960 0.00600
O 	O 	0.74370 0.18030 0.33150 -0.54400
N 	N 	0.75000 0.15860 0.31270 -0.16000
C 	C 	0.70870 0.12720 0.30550 0.07100
H 	H 	0.68080 0.12270 0.31310 0.04500
C 	C 	0.70090 0.09750 0.28660 -0.13400
C 	C 	0.74030 0.10330 0.27330 0.23300
C 	C 	0.72790 0.07200 0.25500 -0.13900
C 	C 	0.67940 0.03640 0.25090 0.04700
H 	H 	0.67220 0.01570 0.23890 0.00800
C 	C 	0.64190 0.03100 0.26430 -0.13400
C 	C 	0.65340 0.06110 0.28190 0.04600
H 	H 	0.62790 0.05690 0.29120 0.01400
C 	C 	0.76350 0.07420 0.23990 0.07900
H 	H 	0.75180 0.05300 0.22790 0.03500
N 	N 	0.80890 0.10220 0.24140 -0.16000
O 	O 	0.83180 0.09320 0.22390 -0.55700
C 	C 	0.94530 0.12750 0.19380 0.42300
H 	H 	0.96570 0.15950 0.19890 -0.10500
C 	C 	0.96090 0.11220 0.17640 -0.32200
H 	H 	0.99190 0.13340 0.17050 0.14900
O 	O 	0.78480 0.13590 0.27750 -0.50200
C 	C 	0.58900 0.99320 0.25900 0.32700
O 	O 	0.99200 0.07940 0.14149 -0.47500
C 	C 	0.94000 0.05620 0.34990 0.10100
C 	C 	0.90470 0.03150 0.36870 0.04100
H 	H 	0.87290 0.00730 0.36310 0.09000
H 	H 	0.90140 0.05590 0.37690 -0.01300
H 	H 	0.91730 0.01560 0.37800 -0.00300
C 	C 	0.94430 0.01720 0.33730 -0.14400
H 	H 	0.91190 0.99190 0.33260 0.02400
H 	H 	0.95870 0.00270 0.34640 0.04600
H 	H 	0.96480 0.03190 0.32470 0.04000
C 	C 	0.58640 0.94510 0.25340 -0.23300
H 	H 	0.60940 0.95040 0.24190 0.05900
H 	H 	0.55350 0.92170 0.24860 0.07500
H 	H 	0.59450 0.93240 0.26600 0.06100
C 	C 	0.99090 0.09480 0.35680 -0.42700
H 	H 	0.98900 0.12010 0.36500 0.00800
H 	H 	0.01120 0.10910 0.34410 0.14600
H 	H 	0.00500 0.07980 0.36590 0.12700
C 	C 	0.58500 0.97300 0.23630 -0.20600
H 	H 	0.60630 0.95850 0.23540 0.06000
H 	H 	0.59700 0.99990 0.22600 0.05400
H 	H 	0.55210 0.94900 0.23320 0.06600
C 	C 	0.57510 0.01390 0.23970 -0.29800
H 	H 	0.59760 0.01990 0.22790 0.09000
H 	H 	0.57690 0.04450 0.24390 0.08900
H 	H 	0.54200 0.99060 0.23520 0.10000
C 	C 	0.55620 0.01560 0.25900 -0.20900
H 	H 	0.56710 0.04070 0.24800 0.05000
H 	H 	0.55790 0.03010 0.27310 0.06000
H 	H 	0.52270 0.99030 0.25610 0.06400
C 	C 	0.55370 0.98470 0.27680 -0.17300
H 	H 	0.55480 0.01540 0.28050 0.06200
H 	H 	0.56140 0.97200 0.28950 0.05400
H 	H 	0.52040 0.96130 0.27200 0.05300
C 	C 	0.57120 0.95420 0.27640 -0.32800
H 	H 	0.59240 0.93960 0.27650 0.09400
H 	H 	0.53800 0.92900 0.27340 0.11100
H 	H 	0.57310 0.96880 0.29040 0.09300
C 	C 	0.43277 0.55773 0.69703 -0.23800
C 	C 	0.45517 0.56673 0.71713 0.08200
H 	H 	0.48197 0.56173 0.71893 -0.01500
C 	C 	0.43957 0.58273 0.73433 -0.05900
H 	H 	0.45487 0.58703 0.74793 0.04800
C 	C 	0.40247 0.59253 0.73223 -0.01400
C 	C 	0.37707 0.58103 0.71273 -0.07200
H 	H 	0.34987 0.58533 0.71113 0.05200
C 	C 	0.39207 0.56333 0.69583 0.08900
H 	H 	0.37397 0.55473 0.68293 0.00600
O 	O 	0.41037 0.51363 0.66483 -0.54400
N 	N 	0.41667 0.49193 0.64603 -0.16100
C 	C 	0.37537 0.46053 0.63883 0.07100
H 	H 	0.34747 0.45603 0.64643 0.04500
C 	C 	0.36757 0.43083 0.61993 -0.13400
C 	C 	0.40697 0.43663 0.60663 0.23300
C 	C 	0.39457 0.40533 0.58833 -0.13900
C 	C 	0.34607 0.36973 0.58423 0.04700
H 	H 	0.33887 0.34903 0.57223 0.00800
C 	C 	0.30857 0.36433 0.59763 -0.13300
C 	C 	0.32007 0.39443 0.61523 0.04600
H 	H 	0.29457 0.39023 0.62453 0.01500
C 	C 	0.43017 0.40753 0.57323 0.07900
H 	H 	0.41847 0.38633 0.56123 0.03500
N 	N 	0.47557 0.43553 0.57473 -0.16000
O 	O 	0.49847 0.42653 0.55723 -0.55700
C 	C 	0.61197 0.46083 0.52713 0.42300
H 	H 	0.63237 0.49283 0.53223 -0.10600
C 	C 	0.62757 0.44553 0.50973 -0.32200
H 	H 	0.65857 0.46673 0.50383 0.14900
O 	O 	0.45147 0.46923 0.61083 -0.50200
C 	C 	0.25567 0.32653 0.59233 0.32600
O 	O 	0.65867 0.41273 0.47482 -0.47600
C 	C 	0.60667 0.38953 0.68323 0.10200
C 	C 	0.57137 0.36483 0.70203 0.02500
H 	H 	0.53957 0.34063 0.69643 0.09300
H 	H 	0.56807 0.38923 0.71023 -0.00900
H 	H 	0.58397 0.34893 0.71133 0.00100
C 	C 	0.61097 0.35053 0.67063 -0.13800
H 	H 	0.57857 0.32523 0.66593 0.02300
H 	H 	0.62537 0.33603 0.67973 0.04400
H 	H 	0.63147 0.36523 0.65803 0.04200
C 	C 	0.25307 0.27843 0.58673 -0.23200
H 	H 	0.27607 0.28373 0.57523 0.05900
H 	H 	0.22017 0.25503 0.58193 0.07500
H 	H 	0.26117 0.26573 0.59933 0.06100
C 	C 	0.65757 0.42813 0.69013 -0.41000
H 	H 	0.65567 0.45343 0.69833 0.00500
H 	H 	0.67787 0.44243 0.67743 0.14000
H 	H 	0.67167 0.41313 0.69923 0.12400
C 	C 	0.25167 0.30633 0.56963 -0.20600
H 	H 	0.27297 0.29183 0.56873 0.06000
H 	H 	0.26367 0.33323 0.55933 0.05300
H 	H 	0.21877 0.28233 0.56653 0.06600
C 	C 	0.24177 0.34723 0.57303 -0.29700
H 	H 	0.26427 0.35323 0.56123 0.09000
H 	H 	0.24357 0.37783 0.57723 0.08900
H 	H 	0.20867 0.32393 0.56853 0.10000
C 	C 	0.22287 0.34893 0.59233 -0.20900
H 	H 	0.23377 0.37403 0.58133 0.05000
H 	H 	0.22457 0.36343 0.60643 0.06000
H 	H 	0.18937 0.32363 0.58943 0.06400
C 	C 	0.22037 0.31803 0.61013 -0.17300
H 	H 	0.22147 0.34873 0.61383 0.06200
H 	H 	0.22807 0.30533 0.62283 0.05400
H 	H 	0.18707 0.29463 0.60533 0.05300
C 	C 	0.23787 0.28753 0.60973 -0.32800
H 	H 	0.25907 0.27293 0.60983 0.09400
H 	H 	0.20467 0.26233 0.60673 0.11100
H 	H 	0.23977 0.30213 0.62373 0.09300
C 	C 	0.09943 0.89107 0.03037 -0.23600
C 	C 	0.12183 0.90007 0.05047 0.06600
H 	H 	0.14863 0.89507 0.05227 -0.01000
C 	C 	0.10623 0.91607 0.06767 -0.07600
H 	H 	0.12153 0.92037 0.08127 0.05300
C 	C 	0.06913 0.92587 0.06557 -0.01200
C 	C 	0.04373 0.91437 0.04607 -0.07300
H 	H 	0.01653 0.91867 0.04447 0.05200
C 	C 	0.05873 0.89667 0.02917 0.08600
H 	H 	0.04063 0.88807 0.01627 0.00600
O 	O 	0.07703 0.84697 0.99817 -0.54500
N 	N 	0.08333 0.82527 0.97937 -0.16100
C 	C 	0.04203 0.79387 0.97217 0.07200
H 	H 	0.01413 0.78937 0.97977 0.04500
C 	C 	0.03423 0.76417 0.95327 -0.13500
C 	C 	0.07363 0.76997 0.93997 0.23400
C 	C 	0.06123 0.73867 0.92167 -0.13900
C 	C 	0.01273 0.70307 0.91757 0.04600
H 	H 	0.00553 0.68237 0.90557 0.00800
C 	C 	0.97523 0.69767 0.93097 -0.13300
C 	C 	0.98673 0.72777 0.94857 0.04800
H 	H 	0.96123 0.72357 0.95787 0.01400
C 	C 	0.09683 0.74087 0.90657 0.07900
H 	H 	0.08513 0.71967 0.89457 0.03500
N 	N 	0.14223 0.76887 0.90807 -0.16000
O 	O 	0.16513 0.75987 0.89057 -0.55700
C 	C 	0.27863 0.79417 0.86047 0.42300
H 	H 	0.29903 0.82617 0.86557 -0.10500
C 	C 	0.29423 0.77887 0.84307 -0.32200
H 	H 	0.32523 0.80007 0.83717 0.14900
O 	O 	0.11813 0.80257 0.94417 -0.50200
C 	C 	0.92233 0.65987 0.92567 0.32600
O 	O 	0.32533 0.74607 0.80816 -0.47600
C 	C 	0.27333 0.72287 0.01657 0.10200
C 	C 	0.23803 0.69817 0.03537 0.02500
H 	H 	0.20623 0.67397 0.02977 0.09300
H 	H 	0.23473 0.72257 0.04357 -0.00900
H 	H 	0.25063 0.68227 0.04467 0.00100
C 	C 	0.27763 0.68387 0.00397 -0.13800
H 	H 	0.24523 0.65857 0.99927 0.02300
H 	H 	0.29203 0.66937 0.01307 0.04400
H 	H 	0.29813 0.69857 0.99137 0.04200
C 	C 	0.91973 0.61177 0.92007 -0.23200
H 	H 	0.94273 0.61707 0.90857 0.05900
H 	H 	0.88683 0.58837 0.91527 0.07500
H 	H 	0.92783 0.59907 0.93267 0.06100
C 	C 	0.32423 0.76147 0.02347 -0.41000
H 	H 	0.32233 0.78677 0.03167 0.00500
H 	H 	0.34453 0.77577 0.01077 0.14000
H 	H 	0.33833 0.74647 0.03257 0.12400
C 	C 	0.91833 0.63967 0.90297 -0.20600
H 	H 	0.93963 0.62517 0.90207 0.06000
H 	H 	0.93033 0.66657 0.89267 0.05300
H 	H 	0.88543 0.61567 0.89987 0.06600
C 	C 	0.90843 0.68057 0.90637 -0.29700
H 	H 	0.93093 0.68657 0.89457 0.09000
H 	H 	0.91023 0.71117 0.91057 0.08900
H 	H 	0.87533 0.65727 0.90187 0.10000
C 	C 	0.88953 0.68227 0.92567 -0.20900
H 	H 	0.90043 0.70737 0.91467 0.05000
H 	H 	0.89123 0.69677 0.93977 0.06000
H 	H 	0.85603 0.65697 0.92277 0.06400
C 	C 	0.88703 0.65137 0.94347 -0.17300
H 	H 	0.88813 0.68207 0.94717 0.06200
H 	H 	0.89473 0.63867 0.95617 0.05400
H 	H 	0.85373 0.62797 0.93867 0.05300
C 	C 	0.90453 0.62087 0.94307 -0.32800
H 	H 	0.92573 0.60627 0.94317 0.09500
H 	H 	0.87133 0.59567 0.94007 0.11100
H 	H 	0.90643 0.63547 0.95707 0.09300
C 	C 	0.45830 0.23390 0.36370 -0.23800
C 	C 	0.44490 0.21150 0.38380 0.08200
H 	H 	0.41310 0.18470 0.38560 -0.01500
C 	C 	0.47650 0.22710 0.40100 -0.05900
H 	H 	0.46550 0.21180 0.41460 0.04800
C 	C 	0.52340 0.26420 0.39890 -0.01400
C 	C 	0.53730 0.28960 0.37940 -0.07200
H 	H 	0.56880 0.31680 0.37780 0.05200
C 	C 	0.50460 0.27460 0.36250 0.08900
H 	H 	0.51410 0.29270 0.34960 0.00600
O 	O 	0.43660 0.25630 0.33150 -0.54400
N 	N 	0.40860 0.25000 0.31270 -0.16000
C 	C 	0.41850 0.29130 0.30550 0.07100
H 	H 	0.44190 0.31920 0.31310 0.04500
C 	C 	0.39660 0.29910 0.28660 -0.13400
C 	C 	0.36300 0.25970 0.27330 0.23300
C 	C 	0.34410 0.27210 0.25500 -0.13900
C 	C 	0.35700 0.32060 0.25090 0.04700
H 	H 	0.34350 0.32780 0.23890 0.00800
C 	C 	0.38910 0.35810 0.26430 -0.13300
C 	C 	0.40770 0.34660 0.28190 0.04600
H 	H 	0.42900 0.37210 0.29120 0.01500
C 	C 	0.31070 0.23650 0.23990 0.07900
H 	H 	0.30120 0.24820 0.22790 0.03500
N 	N 	0.29330 0.19110 0.24140 -0.16000
O 	O 	0.26140 0.16820 0.22390 -0.55700
C 	C 	0.18220 0.05470 0.19380 0.42200
H 	H 	0.19380 0.03430 0.19890 -0.10600
C 	C 	0.15130 0.03910 0.17640 -0.32200
H 	H 	0.14150 0.00810 0.17050 0.14800
O 	O 	0.35110 0.21520 0.27750 -0.50200
C 	C 	0.40420 0.41100 0.25900 0.32600
O 	O 	0.08740 0.00800 0.14149 -0.47700
C 	C 	0.11620 0.06000 0.34990 0.10200
C 	C 	0.12680 0.09530 0.36870 0.02300
H 	H 	0.13440 0.12710 0.36310 0.09400
H 	H 	0.15450 0.09860 0.37690 -0.00800
H 	H 	0.09830 0.08270 0.37800 0.00200
C 	C 	0.07290 0.05570 0.33730 -0.13700
H 	H 	0.08000 0.08810 0.33260 0.02300
H 	H 	0.04400 0.04130 0.34640 0.04300
H 	H 	0.06710 0.03520 0.32470 0.04300
C 	C 	0.35870 0.41360 0.25340 -0.23200
H 	H 	0.34100 0.39060 0.24190 0.05900
H 	H 	0.36820 0.44650 0.24860 0.07500
H 	H 	0.33790 0.40550 0.26600 0.06100
C 	C 	0.10390 0.00910 0.35680 -0.40600
H 	H 	0.13110 0.01100 0.36500 0.00500
H 	H 	0.09790 0.98880 0.34410 0.13900
H 	H 	0.07480 0.99500 0.36590 0.12300
C 	C 	0.38800 0.41500 0.23630 -0.20600
H 	H 	0.35220 0.39370 0.23540 0.06000
H 	H 	0.40290 0.40300 0.22600 0.05300
H 	H 	0.39690 0.44790 0.23320 0.06600
C 	C 	0.43880 0.42490 0.23970 -0.29700
H 	H 	0.42230 0.40240 0.22790 0.09000
H 	H 	0.46760 0.42310 0.24390 0.08900
H 	H 	0.44860 0.45800 0.23520 0.10000
C 	C 	0.45940 0.44380 0.25900 -0.20900
H 	H 	0.47360 0.43290 0.24800 0.05000
H 	H 	0.47220 0.44210 0.27310 0.06000
H 	H 	0.46760 0.47730 0.25610 0.06400
C 	C 	0.43100 0.44630 0.27680 -0.17300
H 	H 	0.46060 0.44520 0.28050 0.06200
H 	H 	0.41060 0.43860 0.28950 0.05400
H 	H 	0.44090 0.47960 0.27200 0.05300
C 	C 	0.38300 0.42880 0.27640 -0.32800
H 	H 	0.34720 0.40760 0.27650 0.09400
H 	H 	0.39100 0.46200 0.27340 0.11100
H 	H 	0.39570 0.42690 0.29040 0.09300
C 	C 	0.12497 0.56723 0.69703 -0.23800
C 	C 	0.11157 0.54483 0.71713 0.08200
H 	H 	0.07977 0.51803 0.71893 -0.01500
C 	C 	0.14317 0.56043 0.73433 -0.05900
H 	H 	0.13217 0.54513 0.74793 0.04800
C 	C 	0.19007 0.59753 0.73223 -0.01400
C 	C 	0.20397 0.62293 0.71273 -0.07200
H 	H 	0.23547 0.65013 0.71113 0.05200
C 	C 	0.17127 0.60793 0.69583 0.08900
H 	H 	0.18077 0.62603 0.68293 0.00600
O 	O 	0.10327 0.58963 0.66483 -0.54400
N 	N 	0.07527 0.58333 0.64603 -0.16100
C 	C 	0.08517 0.62463 0.63883 0.07100
H 	H 	0.10857 0.65253 0.64643 0.04500
C 	C 	0.06327 0.63243 0.61993 -0.13400
C 	C 	0.02967 0.59303 0.60663 0.23400
C 	C 	0.01077 0.60543 0.58833 -0.14000
C 	C 	0.02367 0.65393 0.58423 0.04800
H 	H 	0.01017 0.66113 0.57223 0.00700
C 	C 	0.05577 0.69143 0.59763 -0.13400
C 	C 	0.07437 0.67993 0.61523 0.04600
H 	H 	0.09567 0.70543 0.62453 0.01400
C 	C 	0.97737 0.56983 0.57323 0.08000
H 	H 	0.96787 0.58153 0.56123 0.03500
N 	N 	0.95997 0.52443 0.57473 -0.16000
O 	O 	0.92807 0.50153 0.55723 -0.55700
C 	C 	0.84887 0.38803 0.52713 0.42300
H 	H 	0.86047 0.36763 0.53223 -0.10600
C 	C 	0.81797 0.37243 0.50973 -0.32200
H 	H 	0.80817 0.34143 0.50383 0.14900
O 	O 	0.01777 0.54853 0.61083 -0.50300
C 	C 	0.07087 0.74433 0.59233 0.32700
O 	O 	0.75407 0.34133 0.47482 -0.47600
C 	C 	0.78287 0.39333 0.68323 0.10200
C 	C 	0.79347 0.42863 0.70203 0.02500
H 	H 	0.80107 0.46043 0.69643 0.09300
H 	H 	0.82117 0.43193 0.71023 -0.00900
H 	H 	0.76497 0.41603 0.71133 0.00100
C 	C 	0.73957 0.38903 0.67063 -0.13800
H 	H 	0.74667 0.42143 0.66593 0.02300
H 	H 	0.71067 0.37463 0.67973 0.04400
H 	H 	0.73377 0.36853 0.65803 0.04200
C 	C 	0.02537 0.74693 0.58673 -0.23200
H 	H 	0.00767 0.72393 0.57523 0.05900
H 	H 	0.03487 0.77983 0.58193 0.07500
H 	H 	0.00457 0.73883 0.59933 0.06100
C 	C 	0.77057 0.34243 0.69013 -0.41000
H 	H 	0.79777 0.34433 0.69833 0.00500
H 	H 	0.76457 0.32213 0.67743 0.14000
H 	H 	0.74147 0.32833 0.69923 0.12400
C 	C 	0.05467 0.74833 0.56963 -0.20600
H 	H 	0.01887 0.72703 0.56873 0.06000
H 	H 	0.06957 0.73633 0.55933 0.05300
H 	H 	0.06357 0.78123 0.56653 0.06600
C 	C 	0.10547 0.75823 0.57303 -0.29800
H 	H 	0.08897 0.73573 0.56123 0.09000
H 	H 	0.13427 0.75643 0.57723 0.08900
H 	H 	0.11527 0.79133 0.56853 0.10000
C 	C 	0.12607 0.77713 0.59233 -0.20900
H 	H 	0.14027 0.76623 0.58133 0.05000
H 	H 	0.13887 0.77543 0.60643 0.06000
H 	H 	0.13427 0.81063 0.58943 0.06400
C 	C 	0.09767 0.77963 0.61013 -0.17300
H 	H 	0.12727 0.77853 0.61383 0.06200
H 	H 	0.07727 0.77193 0.62283 0.05400
H 	H 	0.10757 0.81293 0.60533 0.05300
C 	C 	0.04967 0.76213 0.60973 -0.32800
H 	H 	0.01387 0.74093 0.60983 0.09500
H 	H 	0.05767 0.79533 0.60673 0.11100
H 	H 	0.06237 0.76023 0.62373 0.09300
C 	C 	0.79163 0.90057 0.03037 -0.23900
C 	C 	0.77823 0.87817 0.05047 0.08800
H 	H 	0.74643 0.85137 0.05227 -0.01700
C 	C 	0.80983 0.89377 0.06767 -0.05300
H 	H 	0.79883 0.87847 0.08127 0.04600
C 	C 	0.85673 0.93087 0.06557 -0.01400
C 	C 	0.87063 0.95627 0.04607 -0.07100
H 	H 	0.90213 0.98347 0.04447 0.05200
C 	C 	0.83793 0.94127 0.02917 0.09000
H 	H 	0.84743 0.95937 0.01627 0.00600
O 	O 	0.76993 0.92297 0.99817 -0.54400
N 	N 	0.74193 0.91667 0.97937 -0.16000
C 	C 	0.75183 0.95797 0.97217 0.07100
H 	H 	0.77523 0.98587 0.97977 0.04600
C 	C 	0.72993 0.96577 0.95327 -0.13200
C 	C 	0.69633 0.92637 0.93997 0.23300
C 	C 	0.67743 0.93877 0.92167 -0.14000
C 	C 	0.69033 0.98727 0.91757 0.05000
H 	H 	0.67683 0.99447 0.90557 0.00800
C 	C 	0.72243 0.02477 0.93097 -0.13500
C 	C 	0.74103 0.01327 0.94857 0.04400
H 	H 	0.76233 0.03877 0.95787 0.01500
C 	C 	0.64403 0.90317 0.90657 0.07900
H 	H 	0.63453 0.91487 0.89457 0.03600
N 	N 	0.62663 0.85777 0.90807 -0.16000
O 	O 	0.59473 0.83487 0.89057 -0.55700
C 	C 	0.51553 0.72137 0.86047 0.42300
H 	H 	0.52713 0.70097 0.86557 -0.10600
C 	C 	0.48463 0.70577 0.84307 -0.32200
H 	H 	0.47483 0.67477 0.83717 0.14900
O 	O 	0.68443 0.88187 0.94417 -0.50200
C 	C 	0.73753 0.07767 0.92567 0.32700
O 	O 	0.42073 0.67467 0.80816 -0.47600
C 	C 	0.44953 0.72667 0.01657 0.10200
C 	C 	0.46013 0.76197 0.03537 0.02500
H 	H 	0.46773 0.79377 0.02977 0.09300
H 	H 	0.48783 0.76527 0.04357 -0.00900
H 	H 	0.43163 0.74937 0.04467 0.00100
C 	C 	0.40623 0.72237 0.00397 -0.13800
H 	H 	0.41333 0.75477 0.99927 0.02300
H 	H 	0.37733 0.70797 0.01307 0.04400
H 	H 	0.40043 0.70187 0.99137 0.04200
C 	C 	0.69203 0.08027 0.92007 -0.23200
H 	H 	0.67433 0.05727 0.90857 0.05900
H 	H 	0.70153 0.11317 0.91527 0.07500
H 	H 	0.67123 0.07217 0.93267 0.06100
C 	C 	0.43723 0.67577 0.02347 -0.41000
H 	H 	0.46443 0.67767 0.03167 0.00500
H 	H 	0.43123 0.65547 0.01077 0.14000
H 	H 	0.40813 0.66167 0.03257 0.12400
C 	C 	0.72133 0.08167 0.90297 -0.20600
H 	H 	0.68553 0.06037 0.90207 0.06000
H 	H 	0.73623 0.06967 0.89267 0.05300
H 	H 	0.73023 0.11457 0.89987 0.06600
C 	C 	0.77213 0.09157 0.90637 -0.29800
H 	H 	0.75563 0.06907 0.89457 0.09000
H 	H 	0.80093 0.08977 0.91057 0.08900
H 	H 	0.78193 0.12467 0.90187 0.10000
C 	C 	0.79273 0.11047 0.92567 -0.20900
H 	H 	0.80693 0.09957 0.91467 0.05000
H 	H 	0.80553 0.10877 0.93977 0.06000
H 	H 	0.80093 0.14397 0.92277 0.06400
C 	C 	0.76433 0.11297 0.94347 -0.17300
H 	H 	0.79393 0.11187 0.94717 0.06200
H 	H 	0.74393 0.10527 0.95617 0.05400
H 	H 	0.77423 0.14627 0.93867 0.05300
C 	C 	0.71633 0.09547 0.94307 -0.32800
H 	H 	0.68053 0.07427 0.94317 0.09400
H 	H 	0.72433 0.12867 0.94007 0.11100
H 	H 	0.72903 0.09357 0.95707 0.09300
Co	Co	0.29622 0.14811 0.26527 1.14200
Co	Co	0.35913 0.17956 0.30373 1.14300
Zn	Zn	0.59976 0.29988 0.45668 1.21700
B 	B 	0.42420 0.21210 0.34320 1.51900
O 	O 	0.37470 0.18735 0.35120 -0.55800
N 	N 	0.33820 0.16910 0.33620 -0.14700
C 	C 	0.29630 0.14815 0.34470 0.06100
H 	H 	0.29480 0.14740 0.35990 0.02300
C 	C 	0.25080 0.12540 0.33310 -0.13900
C 	C 	0.24730 0.12365 0.31010 0.24500
C 	C 	0.19970 0.09985 0.30070 -0.14100
C 	C 	0.15890 0.07945 0.31420 0.02600
H 	H 	0.12750 0.06375 0.30790 0.01700
C 	C 	0.16270 0.08135 0.33630 -0.09300
C 	C 	0.20840 0.10420 0.34560 0.02300
H 	H 	0.21110 0.10555 0.36080 0.00800
C 	C 	0.19000 0.09500 0.27790 0.07800
H 	H 	0.15710 0.07855 0.27350 0.03700
N 	N 	0.22220 0.11110 0.26350 -0.15900
O 	O 	0.19910 0.09955 0.24350 -0.59600
B 	B 	0.23040 0.11520 0.22530 1.67900
C 	C 	0.19750 0.09875 0.20420 -0.74000
C 	C 	0.13430 0.06715 0.16750 0.14600
C 	C 	0.55900 0.27950 0.41710 0.39300
O 	O 	0.60340 0.30170 0.41120 -0.58600
O 	O 	0.54600 0.27300 0.43560 -0.49400
O 	O 	0.28490 0.14245 0.29830 -0.52500
C 	C 	0.10090 0.05045 0.14840 0.28600
Co	Co	0.96289 0.48144 0.59860 1.14200
Co	Co	0.02580 0.51290 0.63706 1.14300
Zn	Zn	0.26643 0.63321 0.79001 1.21700
B 	B 	0.09087 0.54543 0.67653 1.51900
O 	O 	0.04137 0.52068 0.68453 -0.55800
N 	N 	0.00487 0.50243 0.66953 -0.14700
C 	C 	0.96297 0.48148 0.67803 0.06200
H 	H 	0.96147 0.48073 0.69323 0.02300
C 	C 	0.91747 0.45873 0.66643 -0.13900
C 	C 	0.91397 0.45698 0.64343 0.24500
C 	C 	0.86637 0.43318 0.63403 -0.14100
C 	C 	0.82557 0.41278 0.64753 0.02600
H 	H 	0.79417 0.39708 0.64123 0.01800
C 	C 	0.82937 0.41468 0.66963 -0.09300
C 	C 	0.87507 0.43753 0.67893 0.02300
H 	H 	0.87777 0.43888 0.69413 0.00800
C 	C 	0.85667 0.42833 0.61123 0.07800
H 	H 	0.82377 0.41188 0.60683 0.03700
N 	N 	0.88887 0.44443 0.59683 -0.15900
O 	O 	0.86577 0.43288 0.57683 -0.59600
B 	B 	0.89707 0.44853 0.55863 1.67900
C 	C 	0.86417 0.43208 0.53753 -0.74000
C 	C 	0.80097 0.40048 0.50083 0.14600
C 	C 	0.22567 0.61283 0.75043 0.39300
O 	O 	0.27007 0.63503 0.74453 -0.58600
O 	O 	0.21267 0.60633 0.76893 -0.49400
O 	O 	0.95157 0.47578 0.63163 -0.52400
C 	C 	0.76757 0.38378 0.48173 0.28600
Co	Co	0.62955 0.81478 0.93194 1.14200
Co	Co	0.69246 0.84623 0.97040 1.14300
Zn	Zn	0.93309 0.96655 0.12335 1.21800
B 	B 	0.75753 0.87877 0.00987 1.51900
O 	O 	0.70803 0.85402 0.01787 -0.55800
N 	N 	0.67153 0.83577 0.00287 -0.14700
C 	C 	0.62963 0.81482 0.01137 0.06100
H 	H 	0.62813 0.81407 0.02657 0.02300
C 	C 	0.58413 0.79207 0.99977 -0.13900
C 	C 	0.58063 0.79032 0.97677 0.24500
C 	C 	0.53303 0.76652 0.96737 -0.14100
C 	C 	0.49223 0.74612 0.98087 0.02600
H 	H 	0.46083 0.73042 0.97457 0.01800
C 	C 	0.49603 0.74802 0.00297 -0.09300
C 	C 	0.54173 0.77087 0.01227 0.02300
H 	H 	0.54443 0.77222 0.02747 0.00800
C 	C 	0.52333 0.76167 0.94457 0.07800
H 	H 	0.49043 0.74522 0.94017 0.03700
N 	N 	0.55553 0.77777 0.93017 -0.15900
O 	O 	0.53243 0.76622 0.91017 -0.59600
B 	B 	0.56373 0.78187 0.89197 1.67900
C 	C 	0.53083 0.76542 0.87087 -0.74000
C 	C 	0.46763 0.73382 0.83417 0.14600
C 	C 	0.89233 0.94617 0.08377 0.39300
O 	O 	0.93673 0.96837 0.07787 -0.58500
O 	O 	0.87933 0.93967 0.10227 -0.49400
O 	O 	0.61823 0.80912 0.96497 -0.52500
C 	C 	0.43423 0.71712 0.81507 0.28600
Co	Co	0.85189 0.14811 0.26527 1.14200
Co	Co	0.82044 0.17956 0.30373 1.14300
Zn	Zn	0.70012 0.29988 0.45668 1.21700
B 	B 	0.78790 0.21210 0.34320 1.51900
O 	O 	0.81265 0.18735 0.35120 -0.55800
N 	N 	0.83090 0.16910 0.33620 -0.14700
C 	C 	0.85185 0.14815 0.34470 0.06100
H 	H 	0.85260 0.14740 0.35990 0.02300
C 	C 	0.87460 0.12540 0.33310 -0.13900
C 	C 	0.87635 0.12365 0.31010 0.24500
C 	C 	0.90015 0.09985 0.30070 -0.14100
C 	C 	0.92055 0.07945 0.31420 0.02600
H 	H 	0.93625 0.06375 0.30790 0.01800
C 	C 	0.91865 0.08135 0.33630 -0.09300
C 	C 	0.89580 0.10420 0.34560 0.02300
H 	H 	0.89445 0.10555 0.36080 0.00800
C 	C 	0.90500 0.09500 0.27790 0.07800
H 	H 	0.92145 0.07855 0.27350 0.03700
N 	N 	0.88890 0.11110 0.26350 -0.15900
O 	O 	0.90045 0.09955 0.24350 -0.59600
B 	B 	0.88480 0.11520 0.22530 1.67900
C 	C 	0.90125 0.09875 0.20420 -0.74000
C 	C 	0.93285 0.06715 0.16750 0.14700
C 	C 	0.72050 0.27950 0.41710 0.39300
O 	O 	0.69830 0.30170 0.41120 -0.58600
O 	O 	0.72700 0.27300 0.43560 -0.49400
O 	O 	0.85755 0.14245 0.29830 -0.52500
C 	C 	0.94955 0.05045 0.14840 0.28600
Co	Co	0.51856 0.48144 0.59860 1.14200
Co	Co	0.48710 0.51290 0.63706 1.14300
Zn	Zn	0.36679 0.63321 0.79001 1.21700
B 	B 	0.45457 0.54543 0.67653 1.51900
O 	O 	0.47932 0.52068 0.68453 -0.55800
N 	N 	0.49757 0.50243 0.66953 -0.14700
C 	C 	0.51852 0.48148 0.67803 0.06100
H 	H 	0.51927 0.48073 0.69323 0.02300
C 	C 	0.54127 0.45873 0.66643 -0.13900
C 	C 	0.54302 0.45698 0.64343 0.24500
C 	C 	0.56682 0.43318 0.63403 -0.14100
C 	C 	0.58722 0.41278 0.64753 0.02600
H 	H 	0.60292 0.39708 0.64123 0.01800
C 	C 	0.58532 0.41468 0.66963 -0.09300
C 	C 	0.56247 0.43753 0.67893 0.02300
H 	H 	0.56112 0.43888 0.69413 0.00800
C 	C 	0.57167 0.42833 0.61123 0.07800
H 	H 	0.58812 0.41188 0.60683 0.03700
N 	N 	0.55557 0.44443 0.59683 -0.15900
O 	O 	0.56712 0.43288 0.57683 -0.59600
B 	B 	0.55147 0.44853 0.55863 1.67900
C 	C 	0.56792 0.43208 0.53753 -0.74000
C 	C 	0.59952 0.40048 0.50083 0.14600
C 	C 	0.38717 0.61283 0.75043 0.39300
O 	O 	0.36497 0.63503 0.74453 -0.58600
O 	O 	0.39367 0.60633 0.76893 -0.49400
O 	O 	0.52422 0.47578 0.63163 -0.52500
C 	C 	0.61622 0.38378 0.48173 0.28600
Co	Co	0.18522 0.81478 0.93194 1.14200
Co	Co	0.15377 0.84623 0.97040 1.14300
Zn	Zn	0.03345 0.96655 0.12335 1.21700
B 	B 	0.12123 0.87877 0.00987 1.51900
O 	O 	0.14598 0.85402 0.01787 -0.55800
N 	N 	0.16423 0.83577 0.00287 -0.14700
C 	C 	0.18518 0.81482 0.01137 0.06100
H 	H 	0.18593 0.81407 0.02657 0.02300
C 	C 	0.20793 0.79207 0.99977 -0.13900
C 	C 	0.20968 0.79032 0.97677 0.24500
C 	C 	0.23348 0.76652 0.96737 -0.14100
C 	C 	0.25388 0.74612 0.98087 0.02600
H 	H 	0.26958 0.73042 0.97457 0.01800
C 	C 	0.25198 0.74802 0.00297 -0.09300
C 	C 	0.22913 0.77087 0.01227 0.02300
H 	H 	0.22778 0.77222 0.02747 0.00800
C 	C 	0.23833 0.76167 0.94457 0.07800
H 	H 	0.25478 0.74522 0.94017 0.03700
N 	N 	0.22223 0.77777 0.93017 -0.15900
O 	O 	0.23378 0.76622 0.91017 -0.59600
B 	B 	0.21813 0.78187 0.89197 1.67900
C 	C 	0.23458 0.76542 0.87087 -0.74000
C 	C 	0.26618 0.73382 0.83417 0.14600
C 	C 	0.05383 0.94617 0.08377 0.39300
O 	O 	0.03163 0.96837 0.07787 -0.58600
O 	O 	0.06033 0.93967 0.10227 -0.49500
O 	O 	0.19088 0.80912 0.96497 -0.52500
C 	C 	0.28288 0.71712 0.81507 0.28600
Co	Co	0.85189 0.70378 0.26527 1.14200
Co	Co	0.82044 0.64087 0.30373 1.14300
Zn	Zn	0.70012 0.40024 0.45668 1.21700
B 	B 	0.78790 0.57580 0.34320 1.51900
O 	O 	0.81265 0.62530 0.35120 -0.55800
N 	N 	0.83090 0.66180 0.33620 -0.14700
C 	C 	0.85185 0.70370 0.34470 0.06100
H 	H 	0.85260 0.70520 0.35990 0.02300
C 	C 	0.87460 0.74920 0.33310 -0.13900
C 	C 	0.87635 0.75270 0.31010 0.24500
C 	C 	0.90015 0.80030 0.30070 -0.14100
C 	C 	0.92055 0.84110 0.31420 0.02600
H 	H 	0.93625 0.87250 0.30790 0.01800
C 	C 	0.91865 0.83730 0.33630 -0.09300
C 	C 	0.89580 0.79160 0.34560 0.02300
H 	H 	0.89445 0.78890 0.36080 0.00900
C 	C 	0.90500 0.81000 0.27790 0.07800
H 	H 	0.92145 0.84290 0.27350 0.03700
N 	N 	0.88890 0.77780 0.26350 -0.15900
O 	O 	0.90045 0.80090 0.24350 -0.59600
B 	B 	0.88480 0.76960 0.22530 1.67900
C 	C 	0.90125 0.80250 0.20420 -0.74000
C 	C 	0.93285 0.86570 0.16750 0.14700
C 	C 	0.72050 0.44100 0.41710 0.39300
O 	O 	0.69830 0.39660 0.41120 -0.58600
O 	O 	0.72700 0.45400 0.43560 -0.49400
O 	O 	0.85755 0.71510 0.29830 -0.52500
C 	C 	0.94955 0.89910 0.14840 0.28600
Co	Co	0.51856 0.03711 0.59860 1.14100
Co	Co	0.48710 0.97420 0.63706 1.14300
Zn	Zn	0.36679 0.73357 0.79001 1.21700
B 	B 	0.45457 0.90913 0.67653 1.51800
O 	O 	0.47932 0.95863 0.68453 -0.55700
N 	N 	0.49757 0.99513 0.66953 -0.14500
C 	C 	0.51852 0.03703 0.67803 0.05800
H 	H 	0.51927 0.03853 0.69323 0.02400
C 	C 	0.54127 0.08253 0.66643 -0.13900
C 	C 	0.54302 0.08603 0.64343 0.24500
C 	C 	0.56682 0.13363 0.63403 -0.14100
C 	C 	0.58722 0.17443 0.64753 0.02600
H 	H 	0.60292 0.20583 0.64123 0.01800
C 	C 	0.58532 0.17063 0.66963 -0.09300
C 	C 	0.56247 0.12493 0.67893 0.02300
H 	H 	0.56112 0.12223 0.69413 0.00800
C 	C 	0.57167 0.14333 0.61123 0.07800
H 	H 	0.58812 0.17623 0.60683 0.03700
N 	N 	0.55557 0.11113 0.59683 -0.15900
O 	O 	0.56712 0.13423 0.57683 -0.59600
B 	B 	0.55147 0.10293 0.55863 1.67900
C 	C 	0.56792 0.13583 0.53753 -0.74000
C 	C 	0.59952 0.19903 0.50083 0.14600
C 	C 	0.38717 0.77433 0.75043 0.39300
O 	O 	0.36497 0.72993 0.74453 -0.58600
O 	O 	0.39367 0.78733 0.76893 -0.49400
O 	O 	0.52422 0.04843 0.63163 -0.52600
C 	C 	0.61622 0.23243 0.48173 0.28600
Co	Co	0.18522 0.37045 0.93194 1.14200
Co	Co	0.15377 0.30754 0.97040 1.14300
Zn	Zn	0.03345 0.06691 0.12335 1.21700
B 	B 	0.12123 0.24247 0.00987 1.51900
O 	O 	0.14598 0.29197 0.01787 -0.55800
N 	N 	0.16423 0.32847 0.00287 -0.14700
C 	C 	0.18518 0.37037 0.01137 0.06100
H 	H 	0.18593 0.37187 0.02657 0.02300
C 	C 	0.20793 0.41587 0.99977 -0.13900
C 	C 	0.20968 0.41937 0.97677 0.24500
C 	C 	0.23348 0.46697 0.96737 -0.14100
C 	C 	0.25388 0.50777 0.98087 0.02600
H 	H 	0.26958 0.53917 0.97457 0.01800
C 	C 	0.25198 0.50397 0.00297 -0.09300
C 	C 	0.22913 0.45827 0.01227 0.02300
H 	H 	0.22778 0.45557 0.02747 0.00800
C 	C 	0.23833 0.47667 0.94457 0.07800
H 	H 	0.25478 0.50957 0.94017 0.03700
N 	N 	0.22223 0.44447 0.93017 -0.15900
O 	O 	0.23378 0.46757 0.91017 -0.59600
B 	B 	0.21813 0.43627 0.89197 1.67900
C 	C 	0.23458 0.46917 0.87087 -0.74000
C 	C 	0.26618 0.53237 0.83417 0.14600
C 	C 	0.05383 0.10767 0.08377 0.39300
O 	O 	0.03163 0.06327 0.07787 -0.58600
O 	O 	0.06033 0.12067 0.10227 -0.49500
O 	O 	0.19088 0.38177 0.96497 -0.52500
C 	C 	0.28288 0.56577 0.81507 0.28600
Zn	Zn	0.66667 0.33333 0.41591 1.24300
O 	O 	0.66667 0.33333 0.44850 -0.93500
Zn	Zn	0.33333 0.66667 0.74924 1.24300
O 	O 	0.33333 0.66667 0.78183 -0.93500
Zn	Zn	-0.00000 0.00000 0.08258 1.24200
O 	O 	-0.00000 0.00000 0.11517 -0.93700
C 	C 	0.22440 0.45830 0.63630 -0.23800
C 	C 	0.23340 0.44490 0.61620 0.08200
H 	H 	0.22840 0.41310 0.61440 -0.01500
C 	C 	0.24940 0.47650 0.59900 -0.05900
H 	H 	0.25370 0.46550 0.58540 0.04800
C 	C 	0.25920 0.52340 0.60110 -0.01400
C 	C 	0.24770 0.53730 0.62060 -0.07200
H 	H 	0.25200 0.56880 0.62220 0.05200
C 	C 	0.23000 0.50460 0.63750 0.08900
H 	H 	0.22140 0.51410 0.65040 0.00600
O 	O 	0.18030 0.43660 0.66850 -0.54400
N 	N 	0.15860 0.40860 0.68730 -0.16100
C 	C 	0.12720 0.41850 0.69450 0.07100
H 	H 	0.12270 0.44190 0.68690 0.04500
C 	C 	0.09750 0.39660 0.71340 -0.13400
C 	C 	0.10330 0.36300 0.72670 0.23300
C 	C 	0.07200 0.34410 0.74500 -0.13900
C 	C 	0.03640 0.35700 0.74910 0.04700
H 	H 	0.01570 0.34350 0.76110 0.00800
C 	C 	0.03100 0.38910 0.73570 -0.13400
C 	C 	0.06110 0.40770 0.71810 0.04600
H 	H 	0.05690 0.42900 0.70880 0.01400
C 	C 	0.07420 0.31070 0.76010 0.07900
H 	H 	0.05300 0.30120 0.77210 0.03500
N 	N 	0.10220 0.29330 0.75860 -0.16000
O 	O 	0.09320 0.26140 0.77610 -0.55700
C 	C 	0.12750 0.18220 0.80620 0.42200
H 	H 	0.15950 0.19380 0.80110 -0.10600
C 	C 	0.11220 0.15130 0.82360 -0.32200
H 	H 	0.13340 0.14150 0.82950 0.14800
O 	O 	0.13590 0.35110 0.72250 -0.50200
C 	C 	0.99320 0.40420 0.74100 0.32700
O 	O 	0.07940 0.08740 0.85851 -0.47700
C 	C 	0.05620 0.11620 0.65010 0.10200
C 	C 	0.03150 0.12680 0.63130 0.02200
H 	H 	0.00730 0.13440 0.63690 0.09400
H 	H 	0.05590 0.15450 0.62310 -0.00800
H 	H 	0.01560 0.09830 0.62200 0.00200
C 	C 	0.01720 0.07290 0.66270 -0.14100
H 	H 	0.99190 0.08000 0.66740 0.02400
H 	H 	0.00270 0.04400 0.65360 0.04400
H 	H 	0.03190 0.06710 0.67530 0.04200
C 	C 	0.94510 0.35870 0.74660 -0.23300
H 	H 	0.95040 0.34100 0.75810 0.05900
H 	H 	0.92170 0.36820 0.75140 0.07500
H 	H 	0.93240 0.33790 0.73400 0.06100
C 	C 	0.09480 0.10390 0.64320 -0.40700
H 	H 	0.12010 0.13110 0.63500 0.00500
H 	H 	0.10910 0.09790 0.65590 0.13900
H 	H 	0.07980 0.07480 0.63410 0.12200
C 	C 	0.97300 0.38800 0.76370 -0.20600
H 	H 	0.95850 0.35220 0.76460 0.06000
H 	H 	0.99990 0.40290 0.77400 0.05400
H 	H 	0.94900 0.39690 0.76680 0.06600
C 	C 	0.01390 0.43880 0.76030 -0.29800
H 	H 	0.01990 0.42230 0.77210 0.09000
H 	H 	0.04450 0.46760 0.75610 0.08900
H 	H 	0.99060 0.44860 0.76480 0.10000
C 	C 	0.01560 0.45940 0.74100 -0.20900
H 	H 	0.04070 0.47360 0.75200 0.05000
H 	H 	0.03010 0.47220 0.72690 0.06000
H 	H 	0.99030 0.46760 0.74390 0.06400
C 	C 	0.98470 0.43100 0.72320 -0.17300
H 	H 	0.01540 0.46060 0.71950 0.06200
H 	H 	0.97200 0.41060 0.71050 0.05400
H 	H 	0.96130 0.44090 0.72800 0.05300
C 	C 	0.95420 0.38300 0.72360 -0.32800
H 	H 	0.93960 0.34720 0.72350 0.09400
H 	H 	0.92900 0.39100 0.72660 0.11100
H 	H 	0.96880 0.39570 0.70960 0.09300
C 	C 	0.89107 0.79163 0.96963 -0.23700
C 	C 	0.90007 0.77823 0.94953 0.07700
H 	H 	0.89507 0.74643 0.94773 -0.01300
C 	C 	0.91607 0.80983 0.93233 -0.06500
H 	H 	0.92037 0.79883 0.91873 0.04900
C 	C 	0.92587 0.85673 0.93443 -0.01300
C 	C 	0.91437 0.87063 0.95393 -0.07200
H 	H 	0.91867 0.90213 0.95553 0.05200
C 	C 	0.89667 0.83793 0.97083 0.08800
H 	H 	0.88807 0.84743 0.98373 0.00600
O 	O 	0.84697 0.76993 0.00183 -0.54400
N 	N 	0.82527 0.74193 0.02063 -0.16100
C 	C 	0.79387 0.75183 0.02783 0.07100
H 	H 	0.78937 0.77523 0.02023 0.04500
C 	C 	0.76417 0.72993 0.04673 -0.13400
C 	C 	0.76997 0.69633 0.06003 0.23300
C 	C 	0.73867 0.67743 0.07833 -0.13900
C 	C 	0.70307 0.69033 0.08243 0.04700
H 	H 	0.68237 0.67683 0.09443 0.00800
C 	C 	0.69767 0.72243 0.06903 -0.13300
C 	C 	0.72777 0.74103 0.05143 0.04600
H 	H 	0.72357 0.76233 0.04213 0.01400
C 	C 	0.74087 0.64403 0.09343 0.07900
H 	H 	0.71967 0.63453 0.10543 0.03500
N 	N 	0.76887 0.62663 0.09193 -0.16000
O 	O 	0.75987 0.59473 0.10943 -0.55700
C 	C 	0.79417 0.51553 0.13953 0.42300
H 	H 	0.82617 0.52713 0.13443 -0.10500
C 	C 	0.77887 0.48463 0.15693 -0.32200
H 	H 	0.80007 0.47483 0.16283 0.14900
O 	O 	0.80257 0.68443 0.05583 -0.50200
C 	C 	0.65987 0.73753 0.07433 0.32600
O 	O 	0.74607 0.42073 0.19184 -0.47600
C 	C 	0.72287 0.44953 0.98343 0.10200
C 	C 	0.69817 0.46013 0.96463 0.02500
H 	H 	0.67397 0.46773 0.97023 0.09300
H 	H 	0.72257 0.48783 0.95643 -0.00900
H 	H 	0.68227 0.43163 0.95533 0.00100
C 	C 	0.68387 0.40623 0.99603 -0.13800
H 	H 	0.65857 0.41333 0.00073 0.02300
H 	H 	0.66937 0.37733 0.98693 0.04400
H 	H 	0.69857 0.40043 0.00863 0.04200
C 	C 	0.61177 0.69203 0.07993 -0.23200
H 	H 	0.61707 0.67433 0.09143 0.05900
H 	H 	0.58837 0.70153 0.08473 0.07500
H 	H 	0.59907 0.67123 0.06733 0.06100
C 	C 	0.76147 0.43723 0.97653 -0.41000
H 	H 	0.78677 0.46443 0.96833 0.00500
H 	H 	0.77577 0.43123 0.98923 0.14000
H 	H 	0.74647 0.40813 0.96743 0.12400
C 	C 	0.63967 0.72133 0.09703 -0.20600
H 	H 	0.62517 0.68553 0.09793 0.06000
H 	H 	0.66657 0.73623 0.10733 0.05300
H 	H 	0.61567 0.73023 0.10013 0.06600
C 	C 	0.68057 0.77213 0.09363 -0.29700
H 	H 	0.68657 0.75563 0.10543 0.09000
H 	H 	0.71117 0.80093 0.08943 0.08900
H 	H 	0.65727 0.78193 0.09813 0.10000
C 	C 	0.68227 0.79273 0.07433 -0.20900
H 	H 	0.70737 0.80693 0.08533 0.05000
H 	H 	0.69677 0.80553 0.06023 0.06000
H 	H 	0.65697 0.80093 0.07723 0.06400
C 	C 	0.65137 0.76433 0.05653 -0.17300
H 	H 	0.68207 0.79393 0.05283 0.06200
H 	H 	0.63867 0.74393 0.04383 0.05400
H 	H 	0.62797 0.77423 0.06133 0.05300
C 	C 	0.62087 0.71633 0.05693 -0.32800
H 	H 	0.60627 0.68053 0.05683 0.09400
H 	H 	0.59567 0.72433 0.05993 0.11100
H 	H 	0.63547 0.72903 0.04293 0.09300
C 	C 	0.55773 0.12497 0.30297 -0.23800
C 	C 	0.56673 0.11157 0.28287 0.08200
H 	H 	0.56173 0.07977 0.28107 -0.01500
C 	C 	0.58273 0.14317 0.26567 -0.05900
H 	H 	0.58703 0.13217 0.25207 0.04800
C 	C 	0.59253 0.19007 0.26777 -0.01400
C 	C 	0.58103 0.20397 0.28727 -0.07200
H 	H 	0.58533 0.23547 0.28887 0.05200
C 	C 	0.56333 0.17127 0.30417 0.08900
H 	H 	0.55473 0.18077 0.31707 0.00600
O 	O 	0.51363 0.10327 0.33517 -0.54400
N 	N 	0.49193 0.07527 0.35397 -0.16100
C 	C 	0.46053 0.08517 0.36117 0.07100
H 	H 	0.45603 0.10857 0.35357 0.04500
C 	C 	0.43083 0.06327 0.38007 -0.13400
C 	C 	0.43663 0.02967 0.39337 0.23400
C 	C 	0.40533 0.01077 0.41167 -0.14000
C 	C 	0.36973 0.02367 0.41577 0.04800
H 	H 	0.34903 0.01017 0.42777 0.00700
C 	C 	0.36433 0.05577 0.40237 -0.13300
C 	C 	0.39443 0.07437 0.38477 0.04600
H 	H 	0.39023 0.09567 0.37547 0.01400
C 	C 	0.40753 0.97737 0.42677 0.08000
H 	H 	0.38633 0.96787 0.43877 0.03500
N 	N 	0.43553 0.95997 0.42527 -0.16000
O 	O 	0.42653 0.92807 0.44277 -0.55700
C 	C 	0.46083 0.84887 0.47287 0.42300
H 	H 	0.49283 0.86047 0.46777 -0.10600
C 	C 	0.44553 0.81797 0.49027 -0.32200
H 	H 	0.46673 0.80817 0.49617 0.14900
O 	O 	0.46923 0.01777 0.38917 -0.50300
C 	C 	0.32653 0.07087 0.40767 0.32600
O 	O 	0.41273 0.75407 0.52518 -0.47600
C 	C 	0.38953 0.78287 0.31677 0.10200
C 	C 	0.36483 0.79347 0.29797 0.02500
H 	H 	0.34063 0.80107 0.30357 0.09300
H 	H 	0.38923 0.82117 0.28977 -0.00900
H 	H 	0.34893 0.76497 0.28867 0.00100
C 	C 	0.35053 0.73957 0.32937 -0.13800
H 	H 	0.32523 0.74667 0.33407 0.02300
H 	H 	0.33603 0.71067 0.32027 0.04400
H 	H 	0.36523 0.73377 0.34197 0.04200
C 	C 	0.27843 0.02537 0.41327 -0.23200
H 	H 	0.28373 0.00767 0.42477 0.05900
H 	H 	0.25503 0.03487 0.41807 0.07500
H 	H 	0.26573 0.00457 0.40067 0.06100
C 	C 	0.42813 0.77057 0.30987 -0.41000
H 	H 	0.45343 0.79777 0.30167 0.00500
H 	H 	0.44243 0.76457 0.32257 0.14000
H 	H 	0.41313 0.74147 0.30077 0.12400
C 	C 	0.30633 0.05467 0.43037 -0.20600
H 	H 	0.29183 0.01887 0.43127 0.06000
H 	H 	0.33323 0.06957 0.44067 0.05300
H 	H 	0.28233 0.06357 0.43347 0.06600
C 	C 	0.34723 0.10547 0.42697 -0.29800
H 	H 	0.35323 0.08897 0.43877 0.09000
H 	H 	0.37783 0.13427 0.42277 0.08900
H 	H 	0.32393 0.11527 0.43147 0.10000
C 	C 	0.34893 0.12607 0.40767 -0.20900
H 	H 	0.37403 0.14027 0.41867 0.05000
H 	H 	0.36343 0.13887 0.39357 0.06000
H 	H 	0.32363 0.13427 0.41057 0.06400
C 	C 	0.31803 0.09767 0.38987 -0.17300
H 	H 	0.34873 0.12727 0.38617 0.06200
H 	H 	0.30533 0.07727 0.37717 0.05400
H 	H 	0.29463 0.10757 0.39467 0.05300
C 	C 	0.28753 0.04967 0.39027 -0.32800
H 	H 	0.27293 0.01387 0.39017 0.09400
H 	H 	0.26233 0.05767 0.39327 0.11100
H 	H 	0.30213 0.06237 0.37627 0.09300
C 	C 	0.23390 0.77560 0.63630 -0.23800
C 	C 	0.21150 0.76660 0.61620 0.08300
H 	H 	0.18470 0.77160 0.61440 -0.01500
C 	C 	0.22710 0.75060 0.59900 -0.05900
H 	H 	0.21180 0.74630 0.58540 0.04700
C 	C 	0.26420 0.74080 0.60110 -0.01400
C 	C 	0.28960 0.75230 0.62060 -0.07200
H 	H 	0.31680 0.74800 0.62220 0.05200
C 	C 	0.27460 0.77000 0.63750 0.08900
H 	H 	0.29270 0.77860 0.65040 0.00600
O 	O 	0.25630 0.81970 0.66850 -0.54400
N 	N 	0.25000 0.84140 0.68730 -0.16000
C 	C 	0.29130 0.87280 0.69450 0.07100
H 	H 	0.31920 0.87730 0.68690 0.04600
C 	C 	0.29910 0.90250 0.71340 -0.13200
C 	C 	0.25970 0.89670 0.72670 0.23200
C 	C 	0.27210 0.92800 0.74500 -0.13800
C 	C 	0.32060 0.96360 0.74910 0.04400
H 	H 	0.32780 0.98430 0.76110 0.01000
C 	C 	0.35810 0.96900 0.73570 -0.12700
C 	C 	0.34660 0.93890 0.71810 0.04300
H 	H 	0.37210 0.94310 0.70880 0.01600
C 	C 	0.23650 0.92580 0.76010 0.07800
H 	H 	0.24820 0.94700 0.77210 0.03600
N 	N 	0.19110 0.89780 0.75860 -0.16000
O 	O 	0.16820 0.90680 0.77610 -0.55700
C 	C 	0.05470 0.87250 0.80620 0.42300
H 	H 	0.03430 0.84050 0.80110 -0.10600
C 	C 	0.03910 0.88780 0.82360 -0.32200
H 	H 	0.00810 0.86660 0.82950 0.14900
O 	O 	0.21520 0.86410 0.72250 -0.50200
C 	C 	0.41100 0.00680 0.74100 0.31700
O 	O 	0.00800 0.92060 0.85851 -0.47600
C 	C 	0.06000 0.94380 0.65010 0.10200
C 	C 	0.09530 0.96850 0.63130 0.04300
H 	H 	0.12710 0.99270 0.63690 0.08900
H 	H 	0.09860 0.94410 0.62310 -0.01400
H 	H 	0.08270 0.98440 0.62200 -0.00300
C 	C 	0.05570 0.98280 0.66270 -0.11900
H 	H 	0.08810 0.00810 0.66740 0.01400
H 	H 	0.04130 0.99730 0.65360 0.03900
H 	H 	0.03520 0.96810 0.67530 0.04200
C 	C 	0.41360 0.05490 0.74660 -0.22800
H 	H 	0.39060 0.04960 0.75810 0.05800
H 	H 	0.44650 0.07830 0.75140 0.07300
H 	H 	0.40550 0.06760 0.73400 0.05900
C 	C 	0.00910 0.90520 0.64320 -0.42400
H 	H 	0.01100 0.87990 0.63500 0.00700
H 	H 	0.98880 0.89090 0.65590 0.14500
H 	H 	0.99500 0.92020 0.63410 0.12800
C 	C 	0.41500 0.02700 0.76370 -0.20100
H 	H 	0.39370 0.04150 0.76460 0.05900
H 	H 	0.40300 0.00010 0.77400 0.04700
H 	H 	0.44790 0.05100 0.76680 0.06400
C 	C 	0.42490 0.98610 0.76030 -0.29200
H 	H 	0.40240 0.98010 0.77210 0.09400
H 	H 	0.42310 0.95550 0.75610 0.08300
H 	H 	0.45800 0.00940 0.76480 0.09700
C 	C 	0.44380 0.98440 0.74100 -0.19800
H 	H 	0.43290 0.95930 0.75200 0.05300
H 	H 	0.44210 0.96990 0.72690 0.05400
H 	H 	0.47730 0.00970 0.74390 0.06000
C 	C 	0.44630 0.01530 0.72320 -0.17300
H 	H 	0.44520 0.98460 0.71950 0.06600
H 	H 	0.43860 0.02800 0.71050 0.04600
H 	H 	0.47960 0.03870 0.72800 0.05300
C 	C 	0.42880 0.04580 0.72360 -0.32900
H 	H 	0.40760 0.06040 0.72350 0.09500
H 	H 	0.46200 0.07100 0.72660 0.11100
H 	H 	0.42690 0.03120 0.70960 0.10100
C 	C 	0.90057 0.10893 0.96963 -0.24100
C 	C 	0.87817 0.09993 0.94953 0.09800
H 	H 	0.85137 0.10493 0.94773 -0.02000
C 	C 	0.89377 0.08393 0.93233 -0.04200
H 	H 	0.87847 0.07963 0.91873 0.04200
C 	C 	0.93087 0.07413 0.93443 -0.01500
C 	C 	0.95627 0.08563 0.95393 -0.07000
H 	H 	0.98347 0.08133 0.95553 0.05200
C 	C 	0.94127 0.10333 0.97083 0.09100
H 	H 	0.95937 0.11193 0.98373 0.00500
O 	O 	0.92297 0.15303 0.00183 -0.54400
N 	N 	0.91667 0.17473 0.02063 -0.16000
C 	C 	0.95797 0.20613 0.02783 0.07100
H 	H 	0.98587 0.21063 0.02023 0.04600
C 	C 	0.96577 0.23583 0.04673 -0.13200
C 	C 	0.92637 0.23003 0.06003 0.23300
C 	C 	0.93877 0.26133 0.07833 -0.14000
C 	C 	0.98727 0.29693 0.08243 0.05000
H 	H 	0.99447 0.31763 0.09443 0.00800
C 	C 	0.02477 0.30233 0.06903 -0.13500
C 	C 	0.01327 0.27223 0.05143 0.04400
H 	H 	0.03877 0.27643 0.04213 0.01500
C 	C 	0.90317 0.25913 0.09343 0.07900
H 	H 	0.91487 0.28033 0.10543 0.03600
N 	N 	0.85777 0.23113 0.09193 -0.16000
O 	O 	0.83487 0.24013 0.10943 -0.55700
C 	C 	0.72137 0.20583 0.13953 0.42300
H 	H 	0.70097 0.17383 0.13443 -0.10600
C 	C 	0.70577 0.22113 0.15693 -0.32200
H 	H 	0.67477 0.19993 0.16283 0.14900
O 	O 	0.88187 0.19743 0.05583 -0.50200
C 	C 	0.07767 0.34013 0.07433 0.32700
O 	O 	0.67467 0.25393 0.19184 -0.47600
C 	C 	0.72667 0.27713 0.98343 0.10200
C 	C 	0.76197 0.30183 0.96463 0.02500
H 	H 	0.79377 0.32603 0.97023 0.09300
H 	H 	0.76527 0.27743 0.95643 -0.00900
H 	H 	0.74937 0.31773 0.95533 0.00100
C 	C 	0.72237 0.31613 0.99603 -0.13800
H 	H 	0.75477 0.34143 0.00073 0.02300
H 	H 	0.70797 0.33063 0.98693 0.04400
H 	H 	0.70187 0.30143 0.00863 0.04200
C 	C 	0.08027 0.38823 0.07993 -0.23200
H 	H 	0.05727 0.38293 0.09143 0.05900
H 	H 	0.11317 0.41163 0.08473 0.07500
H 	H 	0.07217 0.40093 0.06733 0.06100
C 	C 	0.67577 0.23853 0.97653 -0.41000
H 	H 	0.67767 0.21323 0.96833 0.00500
H 	H 	0.65547 0.22423 0.98923 0.14000
H 	H 	0.66167 0.25353 0.96743 0.12400
C 	C 	0.08167 0.36033 0.09703 -0.20600
H 	H 	0.06037 0.37483 0.09793 0.06000
H 	H 	0.06967 0.33343 0.10733 0.05300
H 	H 	0.11457 0.38433 0.10013 0.06600
C 	C 	0.09157 0.31943 0.09363 -0.29800
H 	H 	0.06907 0.31343 0.10543 0.09000
H 	H 	0.08977 0.28883 0.08943 0.08900
H 	H 	0.12467 0.34273 0.09813 0.10000
C 	C 	0.11047 0.31773 0.07433 -0.20900
H 	H 	0.09957 0.29263 0.08533 0.05000
H 	H 	0.10877 0.30323 0.06023 0.06000
H 	H 	0.14397 0.34303 0.07723 0.06400
C 	C 	0.11297 0.34863 0.05653 -0.17300
H 	H 	0.11187 0.31793 0.05283 0.06200
H 	H 	0.10527 0.36133 0.04383 0.05400
H 	H 	0.14627 0.37203 0.06133 0.05300
C 	C 	0.09547 0.37913 0.05693 -0.32800
H 	H 	0.07427 0.39373 0.05683 0.09400
H 	H 	0.12867 0.40433 0.05993 0.11100
H 	H 	0.09357 0.36453 0.04293 0.09300
C 	C 	0.56723 0.44227 0.30297 -0.23800
C 	C 	0.54483 0.43327 0.28287 0.08200
H 	H 	0.51803 0.43827 0.28107 -0.01500
C 	C 	0.56043 0.41727 0.26567 -0.05900
H 	H 	0.54513 0.41297 0.25207 0.04800
C 	C 	0.59753 0.40747 0.26777 -0.01400
C 	C 	0.62293 0.41897 0.28727 -0.07200
H 	H 	0.65013 0.41467 0.28887 0.05200
C 	C 	0.60793 0.43667 0.30417 0.08900
H 	H 	0.62603 0.44527 0.31707 0.00600
O 	O 	0.58963 0.48637 0.33517 -0.54400
N 	N 	0.58333 0.50807 0.35397 -0.16100
C 	C 	0.62463 0.53947 0.36117 0.07100
H 	H 	0.65253 0.54397 0.35357 0.04500
C 	C 	0.63243 0.56917 0.38007 -0.13400
C 	C 	0.59303 0.56337 0.39337 0.23300
C 	C 	0.60543 0.59467 0.41167 -0.13900
C 	C 	0.65393 0.63027 0.41577 0.04700
H 	H 	0.66113 0.65097 0.42777 0.00800
C 	C 	0.69143 0.63567 0.40237 -0.13300
C 	C 	0.67993 0.60557 0.38477 0.04600
H 	H 	0.70543 0.60977 0.37547 0.01500
C 	C 	0.56983 0.59247 0.42677 0.07900
H 	H 	0.58153 0.61367 0.43877 0.03500
N 	N 	0.52443 0.56447 0.42527 -0.16000
O 	O 	0.50153 0.57347 0.44277 -0.55700
C 	C 	0.38803 0.53917 0.47287 0.42300
H 	H 	0.36763 0.50717 0.46777 -0.10600
C 	C 	0.37243 0.55447 0.49027 -0.32200
H 	H 	0.34143 0.53327 0.49617 0.14900
O 	O 	0.54853 0.53077 0.38917 -0.50200
C 	C 	0.74433 0.67347 0.40767 0.32700
O 	O 	0.34133 0.58727 0.52518 -0.47600
C 	C 	0.39333 0.61047 0.31677 0.10200
C 	C 	0.42863 0.63517 0.29797 0.02500
H 	H 	0.46043 0.65937 0.30357 0.09300
H 	H 	0.43193 0.61077 0.28977 -0.00900
H 	H 	0.41603 0.65107 0.28867 0.00100
C 	C 	0.38903 0.64947 0.32937 -0.13800
H 	H 	0.42143 0.67477 0.33407 0.02300
H 	H 	0.37463 0.66397 0.32027 0.04400
H 	H 	0.36853 0.63477 0.34197 0.04200
C 	C 	0.74693 0.72157 0.41327 -0.23300
H 	H 	0.72393 0.71627 0.42477 0.05900
H 	H 	0.77983 0.74497 0.41807 0.07500
H 	H 	0.73883 0.73427 0.40067 0.06100
C 	C 	0.34243 0.57187 0.30987 -0.41000
H 	H 	0.34433 0.54657 0.30167 0.00500
H 	H 	0.32213 0.55757 0.32257 0.14000
H 	H 	0.32833 0.58687 0.30077 0.12400
C 	C 	0.74833 0.69367 0.43037 -0.20600
H 	H 	0.72703 0.70817 0.43127 0.06000
H 	H 	0.73633 0.66677 0.44067 0.05300
H 	H 	0.78123 0.71767 0.43347 0.06600
C 	C 	0.75823 0.65277 0.42697 -0.29700
H 	H 	0.73573 0.64677 0.43877 0.09000
H 	H 	0.75643 0.62217 0.42277 0.08900
H 	H 	0.79133 0.67607 0.43147 0.10000
C 	C 	0.77713 0.65107 0.40767 -0.20900
H 	H 	0.76623 0.62597 0.41867 0.05000
H 	H 	0.77543 0.63657 0.39357 0.06000
H 	H 	0.81063 0.67637 0.41057 0.06400
C 	C 	0.77963 0.68197 0.38987 -0.17300
H 	H 	0.77853 0.65127 0.38617 0.06200
H 	H 	0.77193 0.69467 0.37717 0.05400
H 	H 	0.81293 0.70537 0.39467 0.05300
C 	C 	0.76213 0.71247 0.39027 -0.32800
H 	H 	0.74093 0.72707 0.39017 0.09400
H 	H 	0.79533 0.73767 0.39327 0.11100
H 	H 	0.76023 0.69787 0.37627 0.09300
C 	C 	0.54170 0.76610 0.63630 -0.23800
C 	C 	0.55510 0.78850 0.61620 0.08200
H 	H 	0.58690 0.81530 0.61440 -0.01500
C 	C 	0.52350 0.77290 0.59900 -0.05900
H 	H 	0.53450 0.78820 0.58540 0.04800
C 	C 	0.47660 0.73580 0.60110 -0.01400
C 	C 	0.46270 0.71040 0.62060 -0.07200
H 	H 	0.43120 0.68320 0.62220 0.05200
C 	C 	0.49540 0.72540 0.63750 0.08900
H 	H 	0.48590 0.70730 0.65040 0.00600
O 	O 	0.56340 0.74370 0.66850 -0.54400
N 	N 	0.59140 0.75000 0.68730 -0.16000
C 	C 	0.58150 0.70870 0.69450 0.07100
H 	H 	0.55810 0.68080 0.68690 0.04500
C 	C 	0.60340 0.70090 0.71340 -0.13400
C 	C 	0.63700 0.74030 0.72670 0.23300
C 	C 	0.65590 0.72790 0.74500 -0.13900
C 	C 	0.64300 0.67940 0.74910 0.04700
H 	H 	0.65650 0.67220 0.76110 0.00800
C 	C 	0.61090 0.64190 0.73570 -0.13300
C 	C 	0.59230 0.65340 0.71810 0.04600
H 	H 	0.57100 0.62790 0.70880 0.01500
C 	C 	0.68930 0.76350 0.76010 0.07900
H 	H 	0.69880 0.75180 0.77210 0.03500
N 	N 	0.70670 0.80890 0.75860 -0.16000
O 	O 	0.73860 0.83180 0.77610 -0.55700
C 	C 	0.81780 0.94530 0.80620 0.42300
H 	H 	0.80620 0.96570 0.80110 -0.10500
C 	C 	0.84870 0.96090 0.82360 -0.32200
H 	H 	0.85850 0.99190 0.82950 0.14900
O 	O 	0.64890 0.78480 0.72250 -0.50200
C 	C 	0.59580 0.58900 0.74100 0.32600
O 	O 	0.91260 0.99200 0.85851 -0.47500
C 	C 	0.88380 0.94000 0.65010 0.10100
C 	C 	0.87320 0.90470 0.63130 0.04100
H 	H 	0.86560 0.87290 0.63690 0.09000
H 	H 	0.84550 0.90140 0.62310 -0.01300
H 	H 	0.90170 0.91730 0.62200 -0.00300
C 	C 	0.92710 0.94430 0.66270 -0.14200
H 	H 	0.92000 0.91190 0.66740 0.02300
H 	H 	0.95600 0.95870 0.65360 0.04500
H 	H 	0.93290 0.96480 0.67530 0.04000
C 	C 	0.64130 0.58640 0.74660 -0.23200
H 	H 	0.65900 0.60940 0.75810 0.05900
H 	H 	0.63180 0.55350 0.75140 0.07500
H 	H 	0.66210 0.59450 0.73400 0.06100
C 	C 	0.89610 0.99090 0.64320 -0.42700
H 	H 	0.86890 0.98900 0.63500 0.00800
H 	H 	0.90210 0.01120 0.65590 0.14600
H 	H 	0.92520 0.00500 0.63410 0.12700
C 	C 	0.61200 0.58500 0.76370 -0.20600
H 	H 	0.64780 0.60630 0.76460 0.06000
H 	H 	0.59710 0.59700 0.77400 0.05300
H 	H 	0.60310 0.55210 0.76680 0.06600
C 	C 	0.56120 0.57510 0.76030 -0.29700
H 	H 	0.57770 0.59760 0.77210 0.09000
H 	H 	0.53240 0.57690 0.75610 0.08900
H 	H 	0.55140 0.54200 0.76480 0.10000
C 	C 	0.54060 0.55620 0.74100 -0.20900
H 	H 	0.52640 0.56710 0.75200 0.05000
H 	H 	0.52780 0.55790 0.72690 0.06000
H 	H 	0.53240 0.52270 0.74390 0.06400
C 	C 	0.56900 0.55370 0.72320 -0.17300
H 	H 	0.53940 0.55480 0.71950 0.06200
H 	H 	0.58940 0.56140 0.71050 0.05400
H 	H 	0.55910 0.52040 0.72800 0.05300
C 	C 	0.61700 0.57120 0.72360 -0.32800
H 	H 	0.65280 0.59240 0.72350 0.09400
H 	H 	0.60900 0.53800 0.72660 0.11100
H 	H 	0.60430 0.57310 0.70960 0.09300
C 	C 	0.20837 0.09943 0.96963 -0.23700
C 	C 	0.22177 0.12183 0.94953 0.07200
H 	H 	0.25357 0.14863 0.94773 -0.01200
C 	C 	0.19017 0.10623 0.93233 -0.07000
H 	H 	0.20117 0.12153 0.91873 0.05100
C 	C 	0.14327 0.06913 0.93443 -0.01300
C 	C 	0.12937 0.04373 0.95393 -0.07200
H 	H 	0.09787 0.01653 0.95553 0.05100
C 	C 	0.16207 0.05873 0.97083 0.08700
H 	H 	0.15257 0.04063 0.98373 0.00600
O 	O 	0.23007 0.07703 0.00183 -0.54500
N 	N 	0.25807 0.08333 0.02063 -0.16100
C 	C 	0.24817 0.04203 0.02783 0.07200
H 	H 	0.22477 0.01413 0.02023 0.04500
C 	C 	0.27007 0.03423 0.04673 -0.13500
C 	C 	0.30367 0.07363 0.06003 0.23400
C 	C 	0.32257 0.06123 0.07833 -0.13900
C 	C 	0.30967 0.01273 0.08243 0.04600
H 	H 	0.32317 0.00553 0.09443 0.00800
C 	C 	0.27757 0.97523 0.06903 -0.13300
C 	C 	0.25897 0.98673 0.05143 0.04800
H 	H 	0.23767 0.96123 0.04213 0.01400
C 	C 	0.35597 0.09683 0.09343 0.07900
H 	H 	0.36547 0.08513 0.10543 0.03500
N 	N 	0.37337 0.14223 0.09193 -0.16000
O 	O 	0.40527 0.16513 0.10943 -0.55700
C 	C 	0.48447 0.27863 0.13953 0.42300
H 	H 	0.47287 0.29903 0.13443 -0.10600
C 	C 	0.51537 0.29423 0.15693 -0.32200
H 	H 	0.52517 0.32523 0.16283 0.14900
O 	O 	0.31557 0.11813 0.05583 -0.50200
C 	C 	0.26247 0.92233 0.07433 0.32600
O 	O 	0.57927 0.32533 0.19184 -0.47600
C 	C 	0.55047 0.27333 0.98343 0.10200
C 	C 	0.53987 0.23803 0.96463 0.02500
H 	H 	0.53227 0.20623 0.97023 0.09300
H 	H 	0.51217 0.23473 0.95643 -0.00900
H 	H 	0.56837 0.25063 0.95533 0.00100
C 	C 	0.59377 0.27763 0.99603 -0.13800
H 	H 	0.58667 0.24523 0.00073 0.02300
H 	H 	0.62267 0.29203 0.98693 0.04400
H 	H 	0.59957 0.29813 0.00863 0.04200
C 	C 	0.30797 0.91973 0.07993 -0.23200
H 	H 	0.32567 0.94273 0.09143 0.05900
H 	H 	0.29847 0.88683 0.08473 0.07500
H 	H 	0.32877 0.92783 0.06733 0.06100
C 	C 	0.56277 0.32423 0.97653 -0.41000
H 	H 	0.53557 0.32233 0.96833 0.00500
H 	H 	0.56877 0.34453 0.98923 0.14000
H 	H 	0.59187 0.33833 0.96743 0.12400
C 	C 	0.27867 0.91833 0.09703 -0.20600
H 	H 	0.31447 0.93963 0.09793 0.06000
H 	H 	0.26377 0.93033 0.10733 0.05300
H 	H 	0.26977 0.88543 0.10013 0.06600
C 	C 	0.22787 0.90843 0.09363 -0.29700
H 	H 	0.24437 0.93093 0.10543 0.09000
H 	H 	0.19907 0.91023 0.08943 0.08900
H 	H 	0.21807 0.87533 0.09813 0.10000
C 	C 	0.20727 0.88953 0.07433 -0.20800
H 	H 	0.19307 0.90043 0.08533 0.05100
H 	H 	0.19447 0.89123 0.06023 0.06000
H 	H 	0.19907 0.85603 0.07723 0.06400
C 	C 	0.23567 0.88703 0.05653 -0.17300
H 	H 	0.20607 0.88813 0.05283 0.06200
H 	H 	0.25607 0.89473 0.04383 0.05400
H 	H 	0.22577 0.85373 0.06133 0.05300
C 	C 	0.28367 0.90453 0.05693 -0.32800
H 	H 	0.31947 0.92573 0.05683 0.09500
H 	H 	0.27567 0.87133 0.05993 0.11100
H 	H 	0.27097 0.90643 0.04293 0.09300
C 	C 	0.87503 0.43277 0.30297 -0.23800
C 	C 	0.88843 0.45517 0.28287 0.08200
H 	H 	0.92023 0.48197 0.28107 -0.01500
C 	C 	0.85683 0.43957 0.26567 -0.05900
H 	H 	0.86783 0.45487 0.25207 0.04800
C 	C 	0.80993 0.40247 0.26777 -0.01400
C 	C 	0.79603 0.37707 0.28727 -0.07200
H 	H 	0.76453 0.34987 0.28887 0.05200
C 	C 	0.82873 0.39207 0.30417 0.08900
H 	H 	0.81923 0.37397 0.31707 0.00600
O 	O 	0.89673 0.41037 0.33517 -0.54400
N 	N 	0.92473 0.41667 0.35397 -0.16000
C 	C 	0.91483 0.37537 0.36117 0.07100
H 	H 	0.89143 0.34747 0.35357 0.04600
C 	C 	0.93673 0.36757 0.38007 -0.13300
C 	C 	0.97033 0.40697 0.39337 0.23300
C 	C 	0.98923 0.39457 0.41167 -0.13600
C 	C 	0.97633 0.34607 0.41577 0.04600
H 	H 	0.98983 0.33887 0.42777 0.00800
C 	C 	0.94423 0.30857 0.40237 -0.13300
C 	C 	0.92563 0.32007 0.38477 0.04600
H 	H 	0.90433 0.29457 0.37547 0.01500
C 	C 	0.02263 0.43017 0.42677 0.07600
H 	H 	0.03213 0.41847 0.43877 0.03600
N 	N 	0.04003 0.47557 0.42527 -0.16000
O 	O 	0.07193 0.49847 0.44277 -0.55700
C 	C 	0.15113 0.61197 0.47287 0.42300
H 	H 	0.13953 0.63237 0.46777 -0.10600
C 	C 	0.18203 0.62757 0.49027 -0.32200
H 	H 	0.19183 0.65857 0.49617 0.14900
O 	O 	0.98223 0.45147 0.38917 -0.50100
C 	C 	0.92913 0.25567 0.40767 0.32600
O 	O 	0.24593 0.65867 0.52518 -0.47600
C 	C 	0.21713 0.60667 0.31677 0.10200
C 	C 	0.20653 0.57137 0.29797 0.02500
H 	H 	0.19893 0.53957 0.30357 0.09300
H 	H 	0.17883 0.56807 0.28977 -0.00900
H 	H 	0.23503 0.58397 0.28867 0.00100
C 	C 	0.26043 0.61097 0.32937 -0.13800
H 	H 	0.25333 0.57857 0.33407 0.02300
H 	H 	0.28933 0.62537 0.32027 0.04400
H 	H 	0.26623 0.63147 0.34197 0.04200
C 	C 	0.97463 0.25307 0.41327 -0.23300
H 	H 	0.99233 0.27607 0.42477 0.05900
H 	H 	0.96513 0.22017 0.41807 0.07500
H 	H 	0.99543 0.26117 0.40067 0.06100
C 	C 	0.22943 0.65757 0.30987 -0.40900
H 	H 	0.20223 0.65567 0.30167 0.00500
H 	H 	0.23543 0.67787 0.32257 0.14000
H 	H 	0.25853 0.67167 0.30077 0.12400
C 	C 	0.94533 0.25167 0.43037 -0.20600
H 	H 	0.98113 0.27297 0.43127 0.06000
H 	H 	0.93043 0.26367 0.44067 0.05400
H 	H 	0.93643 0.21877 0.43347 0.06600
C 	C 	0.89453 0.24177 0.42697 -0.29700
H 	H 	0.91103 0.26427 0.43877 0.09000
H 	H 	0.86573 0.24357 0.42277 0.08900
H 	H 	0.88473 0.20867 0.43147 0.10000
C 	C 	0.87393 0.22287 0.40767 -0.20800
H 	H 	0.85973 0.23377 0.41867 0.05000
H 	H 	0.86113 0.22457 0.39357 0.06000
H 	H 	0.86573 0.18937 0.41057 0.06400
C 	C 	0.90233 0.22037 0.38987 -0.17300
H 	H 	0.87273 0.22147 0.38617 0.06200
H 	H 	0.92273 0.22807 0.37717 0.05400
H 	H 	0.89243 0.18707 0.39467 0.05300
C 	C 	0.95033 0.23787 0.39027 -0.32800
H 	H 	0.98613 0.25907 0.39017 0.09500
H 	H 	0.94233 0.20467 0.39327 0.11100
H 	H 	0.93763 0.23977 0.37627 0.09300
C 	C 	0.54170 0.77560 0.63630 -0.23800
C 	C 	0.55510 0.76660 0.61620 0.08200
H 	H 	0.58690 0.77160 0.61440 -0.01500
C 	C 	0.52350 0.75060 0.59900 -0.05900
H 	H 	0.53450 0.74630 0.58540 0.04800
C 	C 	0.47660 0.74080 0.60110 -0.01400
C 	C 	0.46270 0.75230 0.62060 -0.07200
H 	H 	0.43120 0.74800 0.62220 0.05200
C 	C 	0.49540 0.77000 0.63750 0.08900
H 	H 	0.48590 0.77860 0.65040 0.00600
O 	O 	0.56340 0.81970 0.66850 -0.54400
N 	N 	0.59140 0.84140 0.68730 -0.16000
C 	C 	0.58150 0.87280 0.69450 0.07100
H 	H 	0.55810 0.87730 0.68690 0.04600
C 	C 	0.60340 0.90250 0.71340 -0.13200
C 	C 	0.63700 0.89670 0.72670 0.23200
C 	C 	0.65590 0.92800 0.74500 -0.13800
C 	C 	0.64300 0.96360 0.74910 0.04400
H 	H 	0.65650 0.98430 0.76110 0.01000
C 	C 	0.61090 0.96900 0.73570 -0.12700
C 	C 	0.59230 0.93890 0.71810 0.04300
H 	H 	0.57100 0.94310 0.70880 0.01600
C 	C 	0.68930 0.92580 0.76010 0.07800
H 	H 	0.69880 0.94700 0.77210 0.03600
N 	N 	0.70670 0.89780 0.75860 -0.16000
O 	O 	0.73860 0.90680 0.77610 -0.55700
C 	C 	0.81780 0.87250 0.80620 0.42300
H 	H 	0.80620 0.84050 0.80110 -0.10600
C 	C 	0.84870 0.88780 0.82360 -0.32200
H 	H 	0.85850 0.86660 0.82950 0.14900
O 	O 	0.64890 0.86410 0.72250 -0.50200
C 	C 	0.59580 0.00680 0.74100 0.31700
O 	O 	0.91260 0.92060 0.85851 -0.47600
C 	C 	0.88380 0.94380 0.65010 0.10200
C 	C 	0.87320 0.96850 0.63130 0.04300
H 	H 	0.86560 0.99270 0.63690 0.08900
H 	H 	0.84550 0.94410 0.62310 -0.01400
H 	H 	0.90170 0.98440 0.62200 -0.00300
C 	C 	0.92710 0.98280 0.66270 -0.12100
H 	H 	0.92000 0.00810 0.66740 0.01500
H 	H 	0.95600 0.99730 0.65360 0.04000
H 	H 	0.93290 0.96810 0.67530 0.04200
C 	C 	0.64130 0.05490 0.74660 -0.22800
H 	H 	0.65900 0.04960 0.75810 0.05800
H 	H 	0.63180 0.07830 0.75140 0.07300
H 	H 	0.66210 0.06760 0.73400 0.05900
C 	C 	0.89610 0.90520 0.64320 -0.42500
H 	H 	0.86890 0.87990 0.63500 0.00800
H 	H 	0.90210 0.89090 0.65590 0.14500
H 	H 	0.92520 0.92020 0.63410 0.12900
C 	C 	0.61200 0.02700 0.76370 -0.20100
H 	H 	0.64780 0.04150 0.76460 0.05900
H 	H 	0.59710 0.00010 0.77400 0.04700
H 	H 	0.60310 0.05100 0.76680 0.06400
C 	C 	0.56120 0.98610 0.76030 -0.29200
H 	H 	0.57770 0.98010 0.77210 0.09400
H 	H 	0.53240 0.95550 0.75610 0.08300
H 	H 	0.55140 0.00940 0.76480 0.09700
C 	C 	0.54060 0.98440 0.74100 -0.19800
H 	H 	0.52640 0.95930 0.75200 0.05300
H 	H 	0.52780 0.96990 0.72690 0.05400
H 	H 	0.53240 0.00970 0.74390 0.06000
C 	C 	0.56900 0.01530 0.72320 -0.17300
H 	H 	0.53940 0.98460 0.71950 0.06600
H 	H 	0.58940 0.02800 0.71050 0.04600
H 	H 	0.55910 0.03870 0.72800 0.05300
C 	C 	0.61700 0.04580 0.72360 -0.32900
H 	H 	0.65280 0.06040 0.72350 0.09500
H 	H 	0.60900 0.07100 0.72660 0.11100
H 	H 	0.60430 0.03120 0.70960 0.10100
C 	C 	0.20837 0.10893 0.96963 -0.24000
C 	C 	0.22177 0.09993 0.94953 0.09200
H 	H 	0.25357 0.10493 0.94773 -0.01800
C 	C 	0.19017 0.08393 0.93233 -0.04800
H 	H 	0.20117 0.07963 0.91873 0.04400
C 	C 	0.14327 0.07413 0.93443 -0.01500
C 	C 	0.12937 0.08563 0.95393 -0.07100
H 	H 	0.09787 0.08133 0.95553 0.05100
C 	C 	0.16207 0.10333 0.97083 0.09000
H 	H 	0.15257 0.11193 0.98373 0.00500
O 	O 	0.23007 0.15303 0.00183 -0.54400
N 	N 	0.25807 0.17473 0.02063 -0.16100
C 	C 	0.24817 0.20613 0.02783 0.07100
H 	H 	0.22477 0.21063 0.02023 0.04600
C 	C 	0.27007 0.23583 0.04673 -0.13400
C 	C 	0.30367 0.23003 0.06003 0.23300
C 	C 	0.32257 0.26133 0.07833 -0.13900
C 	C 	0.30967 0.29693 0.08243 0.04700
H 	H 	0.32317 0.31763 0.09443 0.00800
C 	C 	0.27757 0.30233 0.06903 -0.13300
C 	C 	0.25897 0.27223 0.05143 0.04600
H 	H 	0.23767 0.27643 0.04213 0.01500
C 	C 	0.35597 0.25913 0.09343 0.07900
H 	H 	0.36547 0.28033 0.10543 0.03500
N 	N 	0.37337 0.23113 0.09193 -0.16000
O 	O 	0.40527 0.24013 0.10943 -0.55700
C 	C 	0.48447 0.20583 0.13953 0.42300
H 	H 	0.47287 0.17383 0.13443 -0.10600
C 	C 	0.51537 0.22113 0.15693 -0.32200
H 	H 	0.52517 0.19993 0.16283 0.14900
O 	O 	0.31557 0.19743 0.05583 -0.50200
C 	C 	0.26247 0.34013 0.07433 0.32600
O 	O 	0.57927 0.25393 0.19184 -0.47600
C 	C 	0.55047 0.27713 0.98343 0.10200
C 	C 	0.53987 0.30183 0.96463 0.02500
H 	H 	0.53227 0.32603 0.97023 0.09300
H 	H 	0.51217 0.27743 0.95643 -0.00900
H 	H 	0.56837 0.31773 0.95533 0.00100
C 	C 	0.59377 0.31613 0.99603 -0.13800
H 	H 	0.58667 0.34143 0.00073 0.02300
H 	H 	0.62267 0.33063 0.98693 0.04400
H 	H 	0.59957 0.30143 0.00863 0.04200
C 	C 	0.30797 0.38823 0.07993 -0.23200
H 	H 	0.32567 0.38293 0.09143 0.05900
H 	H 	0.29847 0.41163 0.08473 0.07500
H 	H 	0.32877 0.40093 0.06733 0.06100
C 	C 	0.56277 0.23853 0.97653 -0.40900
H 	H 	0.53557 0.21323 0.96833 0.00500
H 	H 	0.56877 0.22423 0.98923 0.14000
H 	H 	0.59187 0.25353 0.96743 0.12400
C 	C 	0.27867 0.36033 0.09703 -0.20600
H 	H 	0.31447 0.37483 0.09793 0.06000
H 	H 	0.26377 0.33343 0.10733 0.05300
H 	H 	0.26977 0.38433 0.10013 0.06600
C 	C 	0.22787 0.31943 0.09363 -0.29700
H 	H 	0.24437 0.31343 0.10543 0.09000
H 	H 	0.19907 0.28883 0.08943 0.08900
H 	H 	0.21807 0.34273 0.09813 0.10000
C 	C 	0.20727 0.31773 0.07433 -0.20800
H 	H 	0.19307 0.29263 0.08533 0.05000
H 	H 	0.19447 0.30323 0.06023 0.06000
H 	H 	0.19907 0.34303 0.07723 0.06400
C 	C 	0.23567 0.34863 0.05653 -0.17300
H 	H 	0.20607 0.31793 0.05283 0.06200
H 	H 	0.25607 0.36133 0.04383 0.05400
H 	H 	0.22577 0.37203 0.06133 0.05300
C 	C 	0.28367 0.37913 0.05693 -0.32800
H 	H 	0.31947 0.39373 0.05683 0.09400
H 	H 	0.27567 0.40433 0.05993 0.11100
H 	H 	0.27097 0.36453 0.04293 0.09300
C 	C 	0.87503 0.44227 0.30297 -0.23800
C 	C 	0.88843 0.43327 0.28287 0.08200
H 	H 	0.92023 0.43827 0.28107 -0.01500
C 	C 	0.85683 0.41727 0.26567 -0.05900
H 	H 	0.86783 0.41297 0.25207 0.04800
C 	C 	0.80993 0.40747 0.26777 -0.01400
C 	C 	0.79603 0.41897 0.28727 -0.07200
H 	H 	0.76453 0.41467 0.28887 0.05200
C 	C 	0.82873 0.43667 0.30417 0.08900
H 	H 	0.81923 0.44527 0.31707 0.00600
O 	O 	0.89673 0.48637 0.33517 -0.54400
N 	N 	0.92473 0.50807 0.35397 -0.16000
C 	C 	0.91483 0.53947 0.36117 0.07100
H 	H 	0.89143 0.54397 0.35357 0.04600
C 	C 	0.93673 0.56917 0.38007 -0.13300
C 	C 	0.97033 0.56337 0.39337 0.23300
C 	C 	0.98923 0.59467 0.41167 -0.13600
C 	C 	0.97633 0.63027 0.41577 0.04600
H 	H 	0.98983 0.65097 0.42777 0.00800
C 	C 	0.94423 0.63567 0.40237 -0.13300
C 	C 	0.92563 0.60557 0.38477 0.04600
H 	H 	0.90433 0.60977 0.37547 0.01500
C 	C 	0.02263 0.59247 0.42677 0.07600
H 	H 	0.03213 0.61367 0.43877 0.03600
N 	N 	0.04003 0.56447 0.42527 -0.16000
O 	O 	0.07193 0.57347 0.44277 -0.55700
C 	C 	0.15113 0.53917 0.47287 0.42300
H 	H 	0.13953 0.50717 0.46777 -0.10600
C 	C 	0.18203 0.55447 0.49027 -0.32200
H 	H 	0.19183 0.53327 0.49617 0.14900
O 	O 	0.98223 0.53077 0.38917 -0.50100
C 	C 	0.92913 0.67347 0.40767 0.32600
O 	O 	0.24593 0.58727 0.52518 -0.47600
C 	C 	0.21713 0.61047 0.31677 0.10200
C 	C 	0.20653 0.63517 0.29797 0.02500
H 	H 	0.19893 0.65937 0.30357 0.09300
H 	H 	0.17883 0.61077 0.28977 -0.00900
H 	H 	0.23503 0.65107 0.28867 0.00100
C 	C 	0.26043 0.64947 0.32937 -0.13800
H 	H 	0.25333 0.67477 0.33407 0.02300
H 	H 	0.28933 0.66397 0.32027 0.04400
H 	H 	0.26623 0.63477 0.34197 0.04200
C 	C 	0.97463 0.72157 0.41327 -0.23300
H 	H 	0.99233 0.71627 0.42477 0.05900
H 	H 	0.96513 0.74497 0.41807 0.07500
H 	H 	0.99543 0.73427 0.40067 0.06100
C 	C 	0.22943 0.57187 0.30987 -0.40900
H 	H 	0.20223 0.54657 0.30167 0.00500
H 	H 	0.23543 0.55757 0.32257 0.14000
H 	H 	0.25853 0.58687 0.30077 0.12400
C 	C 	0.94533 0.69367 0.43037 -0.20600
H 	H 	0.98113 0.70817 0.43127 0.06000
H 	H 	0.93043 0.66677 0.44067 0.05400
H 	H 	0.93643 0.71767 0.43347 0.06600
C 	C 	0.89453 0.65277 0.42697 -0.29700
H 	H 	0.91103 0.64677 0.43877 0.09000
H 	H 	0.86573 0.62217 0.42277 0.08900
H 	H 	0.88473 0.67607 0.43147 0.10000
C 	C 	0.87393 0.65107 0.40767 -0.20900
H 	H 	0.85973 0.62597 0.41867 0.05000
H 	H 	0.86113 0.63657 0.39357 0.06000
H 	H 	0.86573 0.67637 0.41057 0.06400
C 	C 	0.90233 0.68197 0.38987 -0.17300
H 	H 	0.87273 0.65127 0.38617 0.06200
H 	H 	0.92273 0.69467 0.37717 0.05400
H 	H 	0.89243 0.70537 0.39467 0.05300
C 	C 	0.95033 0.71247 0.39027 -0.32800
H 	H 	0.98613 0.72707 0.39017 0.09500
H 	H 	0.94233 0.73767 0.39327 0.11100
H 	H 	0.93763 0.69787 0.37627 0.09300
C 	C 	0.22440 0.76610 0.63630 -0.23800
C 	C 	0.23340 0.78850 0.61620 0.08200
H 	H 	0.22840 0.81530 0.61440 -0.01500
C 	C 	0.24940 0.77290 0.59900 -0.05900
H 	H 	0.25370 0.78820 0.58540 0.04800
C 	C 	0.25920 0.73580 0.60110 -0.01400
C 	C 	0.24770 0.71040 0.62060 -0.07200
H 	H 	0.25200 0.68320 0.62220 0.05200
C 	C 	0.23000 0.72540 0.63750 0.08900
H 	H 	0.22140 0.70730 0.65040 0.00600
O 	O 	0.18030 0.74370 0.66850 -0.54400
N 	N 	0.15860 0.75000 0.68730 -0.16000
C 	C 	0.12720 0.70870 0.69450 0.07100
H 	H 	0.12270 0.68080 0.68690 0.04500
C 	C 	0.09750 0.70090 0.71340 -0.13400
C 	C 	0.10330 0.74030 0.72670 0.23300
C 	C 	0.07200 0.72790 0.74500 -0.13900
C 	C 	0.03640 0.67940 0.74910 0.04700
H 	H 	0.01570 0.67220 0.76110 0.00800
C 	C 	0.03100 0.64190 0.73570 -0.13400
C 	C 	0.06110 0.65340 0.71810 0.04600
H 	H 	0.05690 0.62790 0.70880 0.01400
C 	C 	0.07420 0.76350 0.76010 0.07900
H 	H 	0.05300 0.75180 0.77210 0.03500
N 	N 	0.10220 0.80890 0.75860 -0.16000
O 	O 	0.09320 0.83180 0.77610 -0.55700
C 	C 	0.12750 0.94530 0.80620 0.42300
H 	H 	0.15950 0.96570 0.80110 -0.10500
C 	C 	0.11220 0.96090 0.82360 -0.32200
H 	H 	0.13340 0.99190 0.82950 0.14900
O 	O 	0.13590 0.78480 0.72250 -0.50200
C 	C 	0.99320 0.58900 0.74100 0.32700
O 	O 	0.07940 0.99200 0.85851 -0.47500
C 	C 	0.05620 0.94000 0.65010 0.10100
C 	C 	0.03150 0.90470 0.63130 0.04100
H 	H 	0.00730 0.87290 0.63690 0.09000
H 	H 	0.05590 0.90140 0.62310 -0.01300
H 	H 	0.01560 0.91730 0.62200 -0.00300
C 	C 	0.01720 0.94430 0.66270 -0.14400
H 	H 	0.99190 0.91190 0.66740 0.02400
H 	H 	0.00270 0.95870 0.65360 0.04600
H 	H 	0.03190 0.96480 0.67530 0.04000
C 	C 	0.94510 0.58640 0.74660 -0.23300
H 	H 	0.95040 0.60940 0.75810 0.05900
H 	H 	0.92170 0.55350 0.75140 0.07500
H 	H 	0.93240 0.59450 0.73400 0.06100
C 	C 	0.09480 0.99090 0.64320 -0.42700
H 	H 	0.12010 0.98900 0.63500 0.00800
H 	H 	0.10910 0.01120 0.65590 0.14600
H 	H 	0.07980 0.00500 0.63410 0.12700
C 	C 	0.97300 0.58500 0.76370 -0.20600
H 	H 	0.95850 0.60630 0.76460 0.06000
H 	H 	0.99990 0.59700 0.77400 0.05400
H 	H 	0.94900 0.55210 0.76680 0.06600
C 	C 	0.01390 0.57510 0.76030 -0.29800
H 	H 	0.01990 0.59760 0.77210 0.09000
H 	H 	0.04450 0.57690 0.75610 0.08900
H 	H 	0.99060 0.54200 0.76480 0.10000
C 	C 	0.01560 0.55620 0.74100 -0.20900
H 	H 	0.04070 0.56710 0.75200 0.05000
H 	H 	0.03010 0.55790 0.72690 0.06000
H 	H 	0.99030 0.52270 0.74390 0.06400
C 	C 	0.98470 0.55370 0.72320 -0.17300
H 	H 	0.01540 0.55480 0.71950 0.06200
H 	H 	0.97200 0.56140 0.71050 0.05400
H 	H 	0.96130 0.52040 0.72800 0.05300
C 	C 	0.95420 0.57120 0.72360 -0.32800
H 	H 	0.93960 0.59240 0.72350 0.09400
H 	H 	0.92900 0.53800 0.72660 0.11100
H 	H 	0.96880 0.57310 0.70960 0.09300
C 	C 	0.89107 0.09943 0.96963 -0.23600
C 	C 	0.90007 0.12183 0.94953 0.06600
H 	H 	0.89507 0.14863 0.94773 -0.01000
C 	C 	0.91607 0.10623 0.93233 -0.07600
H 	H 	0.92037 0.12153 0.91873 0.05300
C 	C 	0.92587 0.06913 0.93443 -0.01200
C 	C 	0.91437 0.04373 0.95393 -0.07300
H 	H 	0.91867 0.01653 0.95553 0.05200
C 	C 	0.89667 0.05873 0.97083 0.08600
H 	H 	0.88807 0.04063 0.98373 0.00600
O 	O 	0.84697 0.07703 0.00183 -0.54500
N 	N 	0.82527 0.08333 0.02063 -0.16100
C 	C 	0.79387 0.04203 0.02783 0.07200
H 	H 	0.78937 0.01413 0.02023 0.04500
C 	C 	0.76417 0.03423 0.04673 -0.13500
C 	C 	0.76997 0.07363 0.06003 0.23400
C 	C 	0.73867 0.06123 0.07833 -0.13900
C 	C 	0.70307 0.01273 0.08243 0.04600
H 	H 	0.68237 0.00553 0.09443 0.00800
C 	C 	0.69767 0.97523 0.06903 -0.13300
C 	C 	0.72777 0.98673 0.05143 0.04800
H 	H 	0.72357 0.96123 0.04213 0.01400
C 	C 	0.74087 0.09683 0.09343 0.07900
H 	H 	0.71967 0.08513 0.10543 0.03500
N 	N 	0.76887 0.14223 0.09193 -0.16000
O 	O 	0.75987 0.16513 0.10943 -0.55700
C 	C 	0.79417 0.27863 0.13953 0.42300
H 	H 	0.82617 0.29903 0.13443 -0.10500
C 	C 	0.77887 0.29423 0.15693 -0.32200
H 	H 	0.80007 0.32523 0.16283 0.14900
O 	O 	0.80257 0.11813 0.05583 -0.50200
C 	C 	0.65987 0.92233 0.07433 0.32600
O 	O 	0.74607 0.32533 0.19184 -0.47600
C 	C 	0.72287 0.27333 0.98343 0.10200
C 	C 	0.69817 0.23803 0.96463 0.02500
H 	H 	0.67397 0.20623 0.97023 0.09300
H 	H 	0.72257 0.23473 0.95643 -0.00900
H 	H 	0.68227 0.25063 0.95533 0.00100
C 	C 	0.68387 0.27763 0.99603 -0.13800
H 	H 	0.65857 0.24523 0.00073 0.02300
H 	H 	0.66937 0.29203 0.98693 0.04400
H 	H 	0.69857 0.29813 0.00863 0.04200
C 	C 	0.61177 0.91973 0.07993 -0.23200
H 	H 	0.61707 0.94273 0.09143 0.05900
H 	H 	0.58837 0.88683 0.08473 0.07500
H 	H 	0.59907 0.92783 0.06733 0.06100
C 	C 	0.76147 0.32423 0.97653 -0.41000
H 	H 	0.78677 0.32233 0.96833 0.00500
H 	H 	0.77577 0.34453 0.98923 0.14000
H 	H 	0.74647 0.33833 0.96743 0.12400
C 	C 	0.63967 0.91833 0.09703 -0.20600
H 	H 	0.62517 0.93963 0.09793 0.06000
H 	H 	0.66657 0.93033 0.10733 0.05300
H 	H 	0.61567 0.88543 0.10013 0.06600
C 	C 	0.68057 0.90843 0.09363 -0.29700
H 	H 	0.68657 0.93093 0.10543 0.09000
H 	H 	0.71117 0.91023 0.08943 0.08900
H 	H 	0.65727 0.87533 0.09813 0.10000
C 	C 	0.68227 0.88953 0.07433 -0.20900
H 	H 	0.70737 0.90043 0.08533 0.05000
H 	H 	0.69677 0.89123 0.06023 0.06000
H 	H 	0.65697 0.85603 0.07723 0.06400
C 	C 	0.65137 0.88703 0.05653 -0.17300
H 	H 	0.68207 0.88813 0.05283 0.06200
H 	H 	0.63867 0.89473 0.04383 0.05400
H 	H 	0.62797 0.85373 0.06133 0.05300
C 	C 	0.62087 0.90453 0.05693 -0.32800
H 	H 	0.60627 0.92573 0.05683 0.09500
H 	H 	0.59567 0.87133 0.05993 0.11100
H 	H 	0.63547 0.90643 0.04293 0.09300
C 	C 	0.55773 0.43277 0.30297 -0.23800
C 	C 	0.56673 0.45517 0.28287 0.08200
H 	H 	0.56173 0.48197 0.28107 -0.01500
C 	C 	0.58273 0.43957 0.26567 -0.05900
H 	H 	0.58703 0.45487 0.25207 0.04800
C 	C 	0.59253 0.40247 0.26777 -0.01400
C 	C 	0.58103 0.37707 0.28727 -0.07200
H 	H 	0.58533 0.34987 0.28887 0.05200
C 	C 	0.56333 0.39207 0.30417 0.08900
H 	H 	0.55473 0.37397 0.31707 0.00600
O 	O 	0.51363 0.41037 0.33517 -0.54400
N 	N 	0.49193 0.41667 0.35397 -0.16100
C 	C 	0.46053 0.37537 0.36117 0.07100
H 	H 	0.45603 0.34747 0.35357 0.04500
C 	C 	0.43083 0.36757 0.38007 -0.13400
C 	C 	0.43663 0.40697 0.39337 0.23300
C 	C 	0.40533 0.39457 0.41167 -0.13900
C 	C 	0.36973 0.34607 0.41577 0.04700
H 	H 	0.34903 0.33887 0.42777 0.00800
C 	C 	0.36433 0.30857 0.40237 -0.13300
C 	C 	0.39443 0.32007 0.38477 0.04600
H 	H 	0.39023 0.29457 0.37547 0.01500
C 	C 	0.40753 0.43017 0.42677 0.07900
H 	H 	0.38633 0.41847 0.43877 0.03500
N 	N 	0.43553 0.47557 0.42527 -0.16000
O 	O 	0.42653 0.49847 0.44277 -0.55700
C 	C 	0.46083 0.61197 0.47287 0.42300
H 	H 	0.49283 0.63237 0.46777 -0.10600
C 	C 	0.44553 0.62757 0.49027 -0.32200
H 	H 	0.46673 0.65857 0.49617 0.14900
O 	O 	0.46923 0.45147 0.38917 -0.50200
C 	C 	0.32653 0.25567 0.40767 0.32600
O 	O 	0.41273 0.65867 0.52518 -0.47600
C 	C 	0.38953 0.60667 0.31677 0.10200
C 	C 	0.36483 0.57137 0.29797 0.02500
H 	H 	0.34063 0.53957 0.30357 0.09300
H 	H 	0.38923 0.56807 0.28977 -0.00900
H 	H 	0.34893 0.58397 0.28867 0.00100
C 	C 	0.35053 0.61097 0.32937 -0.13800
H 	H 	0.32523 0.57857 0.33407 0.02300
H 	H 	0.33603 0.62537 0.32027 0.04400
H 	H 	0.36523 0.63147 0.34197 0.04200
C 	C 	0.27843 0.25307 0.41327 -0.23200
H 	H 	0.28373 0.27607 0.42477 0.05900
H 	H 	0.25503 0.22017 0.41807 0.07500
H 	H 	0.26573 0.26117 0.40067 0.06100
C 	C 	0.42813 0.65757 0.30987 -0.41000
H 	H 	0.45343 0.65567 0.30167 0.00500
H 	H 	0.44243 0.67787 0.32257 0.14000
H 	H 	0.41313 0.67167 0.30077 0.12400
C 	C 	0.30633 0.25167 0.43037 -0.20600
H 	H 	0.29183 0.27297 0.43127 0.06000
H 	H 	0.33323 0.26367 0.44067 0.05300
H 	H 	0.28233 0.21877 0.43347 0.06600
C 	C 	0.34723 0.24177 0.42697 -0.29700
H 	H 	0.35323 0.26427 0.43877 0.09000
H 	H 	0.37783 0.24357 0.42277 0.08900
H 	H 	0.32393 0.20867 0.43147 0.10000
C 	C 	0.34893 0.22287 0.40767 -0.20900
H 	H 	0.37403 0.23377 0.41867 0.05000
H 	H 	0.36343 0.22457 0.39357 0.06000
H 	H 	0.32363 0.18937 0.41057 0.06400
C 	C 	0.31803 0.22037 0.38987 -0.17300
H 	H 	0.34873 0.22147 0.38617 0.06200
H 	H 	0.30533 0.22807 0.37717 0.05400
H 	H 	0.29463 0.18707 0.39467 0.05300
C 	C 	0.28753 0.23787 0.39027 -0.32800
H 	H 	0.27293 0.25907 0.39017 0.09400
H 	H 	0.26233 0.20467 0.39327 0.11100
H 	H 	0.30213 0.23977 0.37627 0.09300
C 	C 	0.23390 0.45830 0.63630 -0.23800
C 	C 	0.21150 0.44490 0.61620 0.08200
H 	H 	0.18470 0.41310 0.61440 -0.01500
C 	C 	0.22710 0.47650 0.59900 -0.05900
H 	H 	0.21180 0.46550 0.58540 0.04800
C 	C 	0.26420 0.52340 0.60110 -0.01400
C 	C 	0.28960 0.53730 0.62060 -0.07200
H 	H 	0.31680 0.56880 0.62220 0.05200
C 	C 	0.27460 0.50460 0.63750 0.08900
H 	H 	0.29270 0.51410 0.65040 0.00600
O 	O 	0.25630 0.43660 0.66850 -0.54400
N 	N 	0.25000 0.40860 0.68730 -0.16000
C 	C 	0.29130 0.41850 0.69450 0.07100
H 	H 	0.31920 0.44190 0.68690 0.04500
C 	C 	0.29910 0.39660 0.71340 -0.13400
C 	C 	0.25970 0.36300 0.72670 0.23300
C 	C 	0.27210 0.34410 0.74500 -0.13900
C 	C 	0.32060 0.35700 0.74910 0.04700
H 	H 	0.32780 0.34350 0.76110 0.00800
C 	C 	0.35810 0.38910 0.73570 -0.13300
C 	C 	0.34660 0.40770 0.71810 0.04600
H 	H 	0.37210 0.42900 0.70880 0.01500
C 	C 	0.23650 0.31070 0.76010 0.07900
H 	H 	0.24820 0.30120 0.77210 0.03500
N 	N 	0.19110 0.29330 0.75860 -0.16000
O 	O 	0.16820 0.26140 0.77610 -0.55700
C 	C 	0.05470 0.18220 0.80620 0.42200
H 	H 	0.03430 0.19380 0.80110 -0.10600
C 	C 	0.03910 0.15130 0.82360 -0.32200
H 	H 	0.00810 0.14150 0.82950 0.14800
O 	O 	0.21520 0.35110 0.72250 -0.50200
C 	C 	0.41100 0.40420 0.74100 0.32600
O 	O 	0.00800 0.08740 0.85851 -0.47700
C 	C 	0.06000 0.11620 0.65010 0.10200
C 	C 	0.09530 0.12680 0.63130 0.02300
H 	H 	0.12710 0.13440 0.63690 0.09400
H 	H 	0.09860 0.15450 0.62310 -0.00800
H 	H 	0.08270 0.09830 0.62200 0.00200
C 	C 	0.05570 0.07290 0.66270 -0.13700
H 	H 	0.08810 0.08000 0.66740 0.02300
H 	H 	0.04130 0.04400 0.65360 0.04300
H 	H 	0.03520 0.06710 0.67530 0.04300
C 	C 	0.41360 0.35870 0.74660 -0.23200
H 	H 	0.39060 0.34100 0.75810 0.05900
H 	H 	0.44650 0.36820 0.75140 0.07500
H 	H 	0.40550 0.33790 0.73400 0.06100
C 	C 	0.00910 0.10390 0.64320 -0.40600
H 	H 	0.01100 0.13110 0.63500 0.00500
H 	H 	0.98880 0.09790 0.65590 0.13900
H 	H 	0.99500 0.07480 0.63410 0.12300
C 	C 	0.41500 0.38800 0.76370 -0.20600
H 	H 	0.39370 0.35220 0.76460 0.06000
H 	H 	0.40300 0.40290 0.77400 0.05300
H 	H 	0.44790 0.39690 0.76680 0.06600
C 	C 	0.42490 0.43880 0.76030 -0.29700
H 	H 	0.40240 0.42230 0.77210 0.09000
H 	H 	0.42310 0.46760 0.75610 0.08900
H 	H 	0.45800 0.44860 0.76480 0.10000
C 	C 	0.44380 0.45940 0.74100 -0.20900
H 	H 	0.43290 0.47360 0.75200 0.05000
H 	H 	0.44210 0.47220 0.72690 0.06000
H 	H 	0.47730 0.46760 0.74390 0.06400
C 	C 	0.44630 0.43100 0.72320 -0.17300
H 	H 	0.44520 0.46060 0.71950 0.06200
H 	H 	0.43860 0.41060 0.71050 0.05400
H 	H 	0.47960 0.44090 0.72800 0.05300
C 	C 	0.42880 0.38300 0.72360 -0.32800
H 	H 	0.40760 0.34720 0.72350 0.09400
H 	H 	0.46200 0.39100 0.72660 0.11100
H 	H 	0.42690 0.39570 0.70960 0.09300
C 	C 	0.90057 0.79163 0.96963 -0.23900
C 	C 	0.87817 0.77823 0.94953 0.08800
H 	H 	0.85137 0.74643 0.94773 -0.01700
C 	C 	0.89377 0.80983 0.93233 -0.05300
H 	H 	0.87847 0.79883 0.91873 0.04600
C 	C 	0.93087 0.85673 0.93443 -0.01400
C 	C 	0.95627 0.87063 0.95393 -0.07100
H 	H 	0.98347 0.90213 0.95553 0.05200
C 	C 	0.94127 0.83793 0.97083 0.09000
H 	H 	0.95937 0.84743 0.98373 0.00600
O 	O 	0.92297 0.76993 0.00183 -0.54400
N 	N 	0.91667 0.74193 0.02063 -0.16000
C 	C 	0.95797 0.75183 0.02783 0.07100
H 	H 	0.98587 0.77523 0.02023 0.04600
C 	C 	0.96577 0.72993 0.04673 -0.13200
C 	C 	0.92637 0.69633 0.06003 0.23300
C 	C 	0.93877 0.67743 0.07833 -0.14000
C 	C 	0.98727 0.69033 0.08243 0.05000
H 	H 	0.99447 0.67683 0.09443 0.00800
C 	C 	0.02477 0.72243 0.06903 -0.13500
C 	C 	0.01327 0.74103 0.05143 0.04400
H 	H 	0.03877 0.76233 0.04213 0.01500
C 	C 	0.90317 0.64403 0.09343 0.07900
H 	H 	0.91487 0.63453 0.10543 0.03600
N 	N 	0.85777 0.62663 0.09193 -0.16000
O 	O 	0.83487 0.59473 0.10943 -0.55700
C 	C 	0.72137 0.51553 0.13953 0.42300
H 	H 	0.70097 0.52713 0.13443 -0.10600
C 	C 	0.70577 0.48463 0.15693 -0.32200
H 	H 	0.67477 0.47483 0.16283 0.14900
O 	O 	0.88187 0.68443 0.05583 -0.50200
C 	C 	0.07767 0.73753 0.07433 0.32700
O 	O 	0.67467 0.42073 0.19184 -0.47600
C 	C 	0.72667 0.44953 0.98343 0.10200
C 	C 	0.76197 0.46013 0.96463 0.02500
H 	H 	0.79377 0.46773 0.97023 0.09300
H 	H 	0.76527 0.48783 0.95643 -0.00900
H 	H 	0.74937 0.43163 0.95533 0.00100
C 	C 	0.72237 0.40623 0.99603 -0.13800
H 	H 	0.75477 0.41333 0.00073 0.02300
H 	H 	0.70797 0.37733 0.98693 0.04400
H 	H 	0.70187 0.40043 0.00863 0.04200
C 	C 	0.08027 0.69203 0.07993 -0.23200
H 	H 	0.05727 0.67433 0.09143 0.05900
H 	H 	0.11317 0.70153 0.08473 0.07500
H 	H 	0.07217 0.67123 0.06733 0.06100
C 	C 	0.67577 0.43723 0.97653 -0.41000
H 	H 	0.67767 0.46443 0.96833 0.00500
H 	H 	0.65547 0.43123 0.98923 0.14000
H 	H 	0.66167 0.40813 0.96743 0.12400
C 	C 	0.08167 0.72133 0.09703 -0.20600
H 	H 	0.06037 0.68553 0.09793 0.06000
H 	H 	0.06967 0.73623 0.10733 0.05300
H 	H 	0.11457 0.73023 0.10013 0.06600
C 	C 	0.09157 0.77213 0.09363 -0.29800
H 	H 	0.06907 0.75563 0.10543 0.09000
H 	H 	0.08977 0.80093 0.08943 0.08900
H 	H 	0.12467 0.78193 0.09813 0.10000
C 	C 	0.11047 0.79273 0.07433 -0.20900
H 	H 	0.09957 0.80693 0.08533 0.05000
H 	H 	0.10877 0.80553 0.06023 0.06000
H 	H 	0.14397 0.80093 0.07723 0.06400
C 	C 	0.11297 0.76433 0.05653 -0.17300
H 	H 	0.11187 0.79393 0.05283 0.06200
H 	H 	0.10527 0.74393 0.04383 0.05400
H 	H 	0.14627 0.77423 0.06133 0.05300
C 	C 	0.09547 0.71633 0.05693 -0.32800
H 	H 	0.07427 0.68053 0.05683 0.09400
H 	H 	0.12867 0.72433 0.05993 0.11100
H 	H 	0.09357 0.72903 0.04293 0.09300
C 	C 	0.56723 0.12497 0.30297 -0.23800
C 	C 	0.54483 0.11157 0.28287 0.08200
H 	H 	0.51803 0.07977 0.28107 -0.01500
C 	C 	0.56043 0.14317 0.26567 -0.05900
H 	H 	0.54513 0.13217 0.25207 0.04800
C 	C 	0.59753 0.19007 0.26777 -0.01400
C 	C 	0.62293 0.20397 0.28727 -0.07200
H 	H 	0.65013 0.23547 0.28887 0.05200
C 	C 	0.60793 0.17127 0.30417 0.08900
H 	H 	0.62603 0.18077 0.31707 0.00600
O 	O 	0.58963 0.10327 0.33517 -0.54400
N 	N 	0.58333 0.07527 0.35397 -0.16100
C 	C 	0.62463 0.08517 0.36117 0.07100
H 	H 	0.65253 0.10857 0.35357 0.04500
C 	C 	0.63243 0.06327 0.38007 -0.13400
C 	C 	0.59303 0.02967 0.39337 0.23400
C 	C 	0.60543 0.01077 0.41167 -0.14000
C 	C 	0.65393 0.02367 0.41577 0.04800
H 	H 	0.66113 0.01017 0.42777 0.00700
C 	C 	0.69143 0.05577 0.40237 -0.13400
C 	C 	0.67993 0.07437 0.38477 0.04600
H 	H 	0.70543 0.09567 0.37547 0.01400
C 	C 	0.56983 0.97737 0.42677 0.08000
H 	H 	0.58153 0.96787 0.43877 0.03500
N 	N 	0.52443 0.95997 0.42527 -0.16000
O 	O 	0.50153 0.92807 0.44277 -0.55700
C 	C 	0.38803 0.84887 0.47287 0.42300
H 	H 	0.36763 0.86047 0.46777 -0.10600
C 	C 	0.37243 0.81797 0.49027 -0.32200
H 	H 	0.34143 0.80817 0.49617 0.14900
O 	O 	0.54853 0.01777 0.38917 -0.50300
C 	C 	0.74433 0.07087 0.40767 0.32700
O 	O 	0.34133 0.75407 0.52518 -0.47600
C 	C 	0.39333 0.78287 0.31677 0.10200
C 	C 	0.42863 0.79347 0.29797 0.02500
H 	H 	0.46043 0.80107 0.30357 0.09300
H 	H 	0.43193 0.82117 0.28977 -0.00900
H 	H 	0.41603 0.76497 0.28867 0.00100
C 	C 	0.38903 0.73957 0.32937 -0.13800
H 	H 	0.42143 0.74667 0.33407 0.02300
H 	H 	0.37463 0.71067 0.32027 0.04400
H 	H 	0.36853 0.73377 0.34197 0.04200
C 	C 	0.74693 0.02537 0.41327 -0.23200
H 	H 	0.72393 0.00767 0.42477 0.05900
H 	H 	0.77983 0.03487 0.41807 0.07500
H 	H 	0.73883 0.00457 0.40067 0.06100
C 	C 	0.34243 0.77057 0.30987 -0.41000
H 	H 	0.34433 0.79777 0.30167 0.00500
H 	H 	0.32213 0.76457 0.32257 0.14000
H 	H 	0.32833 0.74147 0.30077 0.12400
C 	C 	0.74833 0.05467 0.43037 -0.20600
H 	H 	0.72703 0.01887 0.43127 0.06000
H 	H 	0.73633 0.06957 0.44067 0.05300
H 	H 	0.78123 0.06357 0.43347 0.06600
C 	C 	0.75823 0.10547 0.42697 -0.29800
H 	H 	0.73573 0.08897 0.43877 0.09000
H 	H 	0.75643 0.13427 0.42277 0.08900
H 	H 	0.79133 0.11527 0.43147 0.10000
C 	C 	0.77713 0.12607 0.40767 -0.20900
H 	H 	0.76623 0.14027 0.41867 0.05000
H 	H 	0.77543 0.13887 0.39357 0.06000
H 	H 	0.81063 0.13427 0.41057 0.06400
C 	C 	0.77963 0.09767 0.38987 -0.17300
H 	H 	0.77853 0.12727 0.38617 0.06200
H 	H 	0.77193 0.07727 0.37717 0.05400
H 	H 	0.81293 0.10757 0.39467 0.05300
C 	C 	0.76213 0.04967 0.39027 -0.32800
H 	H 	0.74093 0.01387 0.39017 0.09500
H 	H 	0.79533 0.05767 0.39327 0.11100
H 	H 	0.76023 0.06237 0.37627 0.09300
Co	Co	0.14811 0.29622 0.73473 1.14200
Co	Co	0.17956 0.35913 0.69627 1.14300
Zn	Zn	0.29988 0.59976 0.54332 1.21700
B 	B 	0.21210 0.42420 0.65680 1.51900
O 	O 	0.18735 0.37470 0.64880 -0.55800
N 	N 	0.16910 0.33820 0.66380 -0.14700
C 	C 	0.14815 0.29630 0.65530 0.06100
H 	H 	0.14740 0.29480 0.64010 0.02300
C 	C 	0.12540 0.25080 0.66690 -0.13900
C 	C 	0.12365 0.24730 0.68990 0.24500
C 	C 	0.09985 0.19970 0.69930 -0.14100
C 	C 	0.07945 0.15890 0.68580 0.02600
H 	H 	0.06375 0.12750 0.69210 0.01700
C 	C 	0.08135 0.16270 0.66370 -0.09300
C 	C 	0.10420 0.20840 0.65440 0.02300
H 	H 	0.10555 0.21110 0.63920 0.00800
C 	C 	0.09500 0.19000 0.72210 0.07800
H 	H 	0.07855 0.15710 0.72650 0.03700
N 	N 	0.11110 0.22220 0.73650 -0.15900
O 	O 	0.09955 0.19910 0.75650 -0.59600
B 	B 	0.11520 0.23040 0.77470 1.67900
C 	C 	0.09875 0.19750 0.79580 -0.74000
C 	C 	0.06715 0.13430 0.83250 0.14600
C 	C 	0.27950 0.55900 0.58290 0.39300
O 	O 	0.30170 0.60340 0.58880 -0.58600
O 	O 	0.27300 0.54600 0.56440 -0.49400
O 	O 	0.14245 0.28490 0.70170 -0.52500
C 	C 	0.05045 0.10090 0.85160 0.28600
Co	Co	0.81478 0.62955 0.06806 1.14200
Co	Co	0.84623 0.69246 0.02960 1.14300
Zn	Zn	0.96655 0.93309 0.87665 1.21800
B 	B 	0.87877 0.75753 0.99013 1.51900
O 	O 	0.85402 0.70803 0.98213 -0.55800
N 	N 	0.83577 0.67153 0.99713 -0.14700
C 	C 	0.81482 0.62963 0.98863 0.06100
H 	H 	0.81407 0.62813 0.97343 0.02300
C 	C 	0.79207 0.58413 0.00023 -0.13900
C 	C 	0.79032 0.58063 0.02323 0.24500
C 	C 	0.76652 0.53303 0.03263 -0.14100
C 	C 	0.74612 0.49223 0.01913 0.02600
H 	H 	0.73042 0.46083 0.02543 0.01800
C 	C 	0.74802 0.49603 0.99703 -0.09300
C 	C 	0.77087 0.54173 0.98773 0.02300
H 	H 	0.77222 0.54443 0.97253 0.00800
C 	C 	0.76167 0.52333 0.05543 0.07800
H 	H 	0.74522 0.49043 0.05983 0.03700
N 	N 	0.77777 0.55553 0.06983 -0.15900
O 	O 	0.76622 0.53243 0.08983 -0.59600
B 	B 	0.78187 0.56373 0.10803 1.67900
C 	C 	0.76542 0.53083 0.12913 -0.74000
C 	C 	0.73382 0.46763 0.16583 0.14600
C 	C 	0.94617 0.89233 0.91623 0.39300
O 	O 	0.96837 0.93673 0.92213 -0.58500
O 	O 	0.93967 0.87933 0.89773 -0.49400
O 	O 	0.80912 0.61823 0.03503 -0.52500
C 	C 	0.71712 0.43423 0.18493 0.28600
Co	Co	0.48144 0.96289 0.40140 1.14200
Co	Co	0.51290 0.02580 0.36294 1.14300
Zn	Zn	0.63321 0.26643 0.20999 1.21700
B 	B 	0.54543 0.09087 0.32347 1.51900
O 	O 	0.52068 0.04137 0.31547 -0.55800
N 	N 	0.50243 0.00487 0.33047 -0.14700
C 	C 	0.48148 0.96297 0.32197 0.06200
H 	H 	0.48073 0.96147 0.30677 0.02300
C 	C 	0.45873 0.91747 0.33357 -0.13900
C 	C 	0.45698 0.91397 0.35657 0.24500
C 	C 	0.43318 0.86637 0.36597 -0.14100
C 	C 	0.41278 0.82557 0.35247 0.02600
H 	H 	0.39708 0.79417 0.35877 0.01800
C 	C 	0.41468 0.82937 0.33037 -0.09300
C 	C 	0.43753 0.87507 0.32107 0.02300
H 	H 	0.43888 0.87777 0.30587 0.00800
C 	C 	0.42833 0.85667 0.38877 0.07800
H 	H 	0.41188 0.82377 0.39317 0.03700
N 	N 	0.44443 0.88887 0.40317 -0.15900
O 	O 	0.43288 0.86577 0.42317 -0.59600
B 	B 	0.44853 0.89707 0.44137 1.67900
C 	C 	0.43208 0.86417 0.46247 -0.74000
C 	C 	0.40048 0.80097 0.49917 0.14600
C 	C 	0.61283 0.22567 0.24957 0.39300
O 	O 	0.63503 0.27007 0.25547 -0.58600
O 	O 	0.60633 0.21267 0.23107 -0.49400
O 	O 	0.47578 0.95157 0.36837 -0.52400
C 	C 	0.38378 0.76757 0.51827 0.28600
Co	Co	0.14811 0.85189 0.73473 1.14200
Co	Co	0.17956 0.82044 0.69627 1.14300
Zn	Zn	0.29988 0.70012 0.54332 1.21700
B 	B 	0.21210 0.78790 0.65680 1.51900
O 	O 	0.18735 0.81265 0.64880 -0.55800
N 	N 	0.16910 0.83090 0.66380 -0.14700
C 	C 	0.14815 0.85185 0.65530 0.06100
H 	H 	0.14740 0.85260 0.64010 0.02300
C 	C 	0.12540 0.87460 0.66690 -0.13900
C 	C 	0.12365 0.87635 0.68990 0.24500
C 	C 	0.09985 0.90015 0.69930 -0.14100
C 	C 	0.07945 0.92055 0.68580 0.02600
H 	H 	0.06375 0.93625 0.69210 0.01800
C 	C 	0.08135 0.91865 0.66370 -0.09300
C 	C 	0.10420 0.89580 0.65440 0.02300
H 	H 	0.10555 0.89445 0.63920 0.00800
C 	C 	0.09500 0.90500 0.72210 0.07800
H 	H 	0.07855 0.92145 0.72650 0.03700
N 	N 	0.11110 0.88890 0.73650 -0.15900
O 	O 	0.09955 0.90045 0.75650 -0.59600
B 	B 	0.11520 0.88480 0.77470 1.67900
C 	C 	0.09875 0.90125 0.79580 -0.74000
C 	C 	0.06715 0.93285 0.83250 0.14700
C 	C 	0.27950 0.72050 0.58290 0.39300
O 	O 	0.30170 0.69830 0.58880 -0.58600
O 	O 	0.27300 0.72700 0.56440 -0.49400
O 	O 	0.14245 0.85755 0.70170 -0.52500
C 	C 	0.05045 0.94955 0.85160 0.28600
Co	Co	0.81478 0.18522 0.06806 1.14200
Co	Co	0.84623 0.15377 0.02960 1.14300
Zn	Zn	0.96655 0.03345 0.87665 1.21700
B 	B 	0.87877 0.12123 0.99013 1.51900
O 	O 	0.85402 0.14598 0.98213 -0.55800
N 	N 	0.83577 0.16423 0.99713 -0.14700
C 	C 	0.81482 0.18518 0.98863 0.06100
H 	H 	0.81407 0.18593 0.97343 0.02300
C 	C 	0.79207 0.20793 0.00023 -0.13900
C 	C 	0.79032 0.20968 0.02323 0.24500
C 	C 	0.76652 0.23348 0.03263 -0.14100
C 	C 	0.74612 0.25388 0.01913 0.02600
H 	H 	0.73042 0.26958 0.02543 0.01800
C 	C 	0.74802 0.25198 0.99703 -0.09300
C 	C 	0.77087 0.22913 0.98773 0.02300
H 	H 	0.77222 0.22778 0.97253 0.00800
C 	C 	0.76167 0.23833 0.05543 0.07800
H 	H 	0.74522 0.25478 0.05983 0.03700
N 	N 	0.77777 0.22223 0.06983 -0.15900
O 	O 	0.76622 0.23378 0.08983 -0.59600
B 	B 	0.78187 0.21813 0.10803 1.67900
C 	C 	0.76542 0.23458 0.12913 -0.74000
C 	C 	0.73382 0.26618 0.16583 0.14600
C 	C 	0.94617 0.05383 0.91623 0.39300
O 	O 	0.96837 0.03163 0.92213 -0.58600
O 	O 	0.93967 0.06033 0.89773 -0.49500
O 	O 	0.80912 0.19088 0.03503 -0.52500
C 	C 	0.71712 0.28288 0.18493 0.28600
Co	Co	0.48144 0.51856 0.40140 1.14200
Co	Co	0.51290 0.48710 0.36294 1.14300
Zn	Zn	0.63321 0.36679 0.20999 1.21700
B 	B 	0.54543 0.45457 0.32347 1.51900
O 	O 	0.52068 0.47932 0.31547 -0.55800
N 	N 	0.50243 0.49757 0.33047 -0.14700
C 	C 	0.48148 0.51852 0.32197 0.06100
H 	H 	0.48073 0.51927 0.30677 0.02300
C 	C 	0.45873 0.54127 0.33357 -0.13900
C 	C 	0.45698 0.54302 0.35657 0.24500
C 	C 	0.43318 0.56682 0.36597 -0.14100
C 	C 	0.41278 0.58722 0.35247 0.02600
H 	H 	0.39708 0.60292 0.35877 0.01800
C 	C 	0.41468 0.58532 0.33037 -0.09300
C 	C 	0.43753 0.56247 0.32107 0.02300
H 	H 	0.43888 0.56112 0.30587 0.00800
C 	C 	0.42833 0.57167 0.38877 0.07800
H 	H 	0.41188 0.58812 0.39317 0.03700
N 	N 	0.44443 0.55557 0.40317 -0.15900
O 	O 	0.43288 0.56712 0.42317 -0.59600
B 	B 	0.44853 0.55147 0.44137 1.67900
C 	C 	0.43208 0.56792 0.46247 -0.74000
C 	C 	0.40048 0.59952 0.49917 0.14600
C 	C 	0.61283 0.38717 0.24957 0.39300
O 	O 	0.63503 0.36497 0.25547 -0.58600
O 	O 	0.60633 0.39367 0.23107 -0.49400
O 	O 	0.47578 0.52422 0.36837 -0.52500
C 	C 	0.38378 0.61622 0.51827 0.28600
Co	Co	0.70378 0.85189 0.73473 1.14200
Co	Co	0.64087 0.82044 0.69627 1.14300
Zn	Zn	0.40024 0.70012 0.54332 1.21700
B 	B 	0.57580 0.78790 0.65680 1.51900
O 	O 	0.62530 0.81265 0.64880 -0.55800
N 	N 	0.66180 0.83090 0.66380 -0.14700
C 	C 	0.70370 0.85185 0.65530 0.06100
H 	H 	0.70520 0.85260 0.64010 0.02300
C 	C 	0.74920 0.87460 0.66690 -0.13900
C 	C 	0.75270 0.87635 0.68990 0.24500
C 	C 	0.80030 0.90015 0.69930 -0.14100
C 	C 	0.84110 0.92055 0.68580 0.02600
H 	H 	0.87250 0.93625 0.69210 0.01800
C 	C 	0.83730 0.91865 0.66370 -0.09300
C 	C 	0.79160 0.89580 0.65440 0.02300
H 	H 	0.78890 0.89445 0.63920 0.00900
C 	C 	0.81000 0.90500 0.72210 0.07800
H 	H 	0.84290 0.92145 0.72650 0.03700
N 	N 	0.77780 0.88890 0.73650 -0.15900
O 	O 	0.80090 0.90045 0.75650 -0.59600
B 	B 	0.76960 0.88480 0.77470 1.67900
C 	C 	0.80250 0.90125 0.79580 -0.74000
C 	C 	0.86570 0.93285 0.83250 0.14700
C 	C 	0.44100 0.72050 0.58290 0.39300
O 	O 	0.39660 0.69830 0.58880 -0.58600
O 	O 	0.45400 0.72700 0.56440 -0.49400
O 	O 	0.71510 0.85755 0.70170 -0.52500
C 	C 	0.89910 0.94955 0.85160 0.28600
Co	Co	0.37045 0.18522 0.06806 1.14200
Co	Co	0.30754 0.15377 0.02960 1.14300
Zn	Zn	0.06691 0.03345 0.87665 1.21700
B 	B 	0.24247 0.12123 0.99013 1.51900
O 	O 	0.29197 0.14598 0.98213 -0.55800
N 	N 	0.32847 0.16423 0.99713 -0.14700
C 	C 	0.37037 0.18518 0.98863 0.06100
H 	H 	0.37187 0.18593 0.97343 0.02300
C 	C 	0.41587 0.20793 0.00023 -0.13900
C 	C 	0.41937 0.20968 0.02323 0.24500
C 	C 	0.46697 0.23348 0.03263 -0.14100
C 	C 	0.50777 0.25388 0.01913 0.02600
H 	H 	0.53917 0.26958 0.02543 0.01800
C 	C 	0.50397 0.25198 0.99703 -0.09300
C 	C 	0.45827 0.22913 0.98773 0.02300
H 	H 	0.45557 0.22778 0.97253 0.00800
C 	C 	0.47667 0.23833 0.05543 0.07800
H 	H 	0.50957 0.25478 0.05983 0.03700
N 	N 	0.44447 0.22223 0.06983 -0.15900
O 	O 	0.46757 0.23378 0.08983 -0.59600
B 	B 	0.43627 0.21813 0.10803 1.67900
C 	C 	0.46917 0.23458 0.12913 -0.74000
C 	C 	0.53237 0.26618 0.16583 0.14600
C 	C 	0.10767 0.05383 0.91623 0.39300
O 	O 	0.06327 0.03163 0.92213 -0.58600
O 	O 	0.12067 0.06033 0.89773 -0.49500
O 	O 	0.38177 0.19088 0.03503 -0.52500
C 	C 	0.56577 0.28288 0.18493 0.28600
Co	Co	0.03711 0.51856 0.40140 1.14100
Co	Co	0.97420 0.48710 0.36294 1.14300
Zn	Zn	0.73357 0.36679 0.20999 1.21700
B 	B 	0.90913 0.45457 0.32347 1.51800
O 	O 	0.95863 0.47932 0.31547 -0.55700
N 	N 	0.99513 0.49757 0.33047 -0.14500
C 	C 	0.03703 0.51852 0.32197 0.05800
H 	H 	0.03853 0.51927 0.30677 0.02400
C 	C 	0.08253 0.54127 0.33357 -0.13900
C 	C 	0.08603 0.54302 0.35657 0.24500
C 	C 	0.13363 0.56682 0.36597 -0.14100
C 	C 	0.17443 0.58722 0.35247 0.02600
H 	H 	0.20583 0.60292 0.35877 0.01800
C 	C 	0.17063 0.58532 0.33037 -0.09300
C 	C 	0.12493 0.56247 0.32107 0.02300
H 	H 	0.12223 0.56112 0.30587 0.00800
C 	C 	0.14333 0.57167 0.38877 0.07800
H 	H 	0.17623 0.58812 0.39317 0.03700
N 	N 	0.11113 0.55557 0.40317 -0.15900
O 	O 	0.13423 0.56712 0.42317 -0.59600
B 	B 	0.10293 0.55147 0.44137 1.67900
C 	C 	0.13583 0.56792 0.46247 -0.74000
C 	C 	0.19903 0.59952 0.49917 0.14600
C 	C 	0.77433 0.38717 0.24957 0.39300
O 	O 	0.72993 0.36497 0.25547 -0.58600
O 	O 	0.78733 0.39367 0.23107 -0.49400
O 	O 	0.04843 0.52422 0.36837 -0.52600
C 	C 	0.23243 0.61622 0.51827 0.28600
Zn	Zn	0.33333 0.66667 0.58409 1.24300
O 	O 	0.33333 0.66667 0.55150 -0.93500
Zn	Zn	-0.00000 0.00000 0.91742 1.24200
O 	O 	0.00000 0.00000 0.88483 -0.93700
Zn	Zn	0.66667 0.33333 0.25076 1.24300
O 	O 	0.66667 0.33333 0.21817 -0.93500
