data_crystal

_cell_length_a 22.09380
_cell_length_b 26.55940
_cell_length_c 14.76980
_cell_angle_alpha 90.00000
_cell_angle_beta  90.00000
_cell_angle_gamma 90.00000

_symmetry_space_group_name_	'P 1'
_symmetry_space_group_name_H-M	'P 1'

loop_
_symmetry_equiv_pos_as_xyz
  x,y,z

loop_
_atom_site_label
_atom_site_type_symbol
_atom_site_fract_x
_atom_site_fract_y
_atom_site_fract_z
_atom_site_charge
Cs	Cs	0.62119 0.30307 0.85867 0.67400
Cu	Cu	0.65452 0.30814 0.60224 0.89900
Si	Si	0.54852 0.18375 0.70029 2.56000
Si	Si	0.49767 0.28390 0.67866 2.42600
Si	Si	0.50451 0.39473 0.69689 2.56000
Si	Si	0.63691 0.41782 0.69097 2.47900
Si	Si	0.68271 0.20040 0.69128 2.33600
O 	O 	0.53960 0.18157 0.59360 -1.01400
O 	O 	0.49140 0.50450 0.58500 -0.35200
O 	O 	0.52590 0.50180 0.58280 0.09300
O 	O 	0.53690 0.28800 0.58650 -1.05500
O 	O 	0.63700 0.44166 0.58840 -1.27500
O 	O 	0.49890 0.39206 0.58740 -1.06900
O 	O 	0.68160 0.26016 0.69010 -0.97200
O 	O 	0.66100 0.36147 0.68990 -0.99800
O 	O 	0.61940 0.17671 0.72980 -1.25300
O 	O 	0.52590 0.23882 0.74100 -1.28000
O 	O 	0.50500 0.33632 0.73440 -1.30400
O 	O 	0.56730 0.42080 0.72850 -1.31200
O 	O 	0.69330 0.17825 0.41120 -1.22000
C 	C 	0.41700 0.27260 0.65580 -2.23400
H 	H 	0.39540 0.27040 0.71210 0.59400
H 	H 	0.40100 0.29980 0.62050 0.55500
H 	H 	0.41250 0.24160 0.62300 0.56300
C 	C 	0.44100 0.42890 0.75040 -2.38200
H 	H 	0.40340 0.41390 0.73230 0.63000
H 	H 	0.44490 0.42710 0.81510 0.68400
H 	H 	0.44180 0.46350 0.73160 0.66700
C 	C 	0.68330 0.45880 0.76540 -2.31900
H 	H 	0.66740 0.49250 0.76430 0.64300
H 	H 	0.68210 0.44610 0.82630 0.66600
H 	H 	0.72440 0.45910 0.74430 0.66000
H 	H 	0.76100 0.39560 0.55310 0.57900
H 	H 	0.79000 0.25840 0.44690 0.49200
C 	C 	0.74580 0.17490 0.76430 -2.07800
H 	H 	0.74490 0.13880 0.76320 0.58900
H 	H 	0.78400 0.18650 0.74140 0.54100
H 	H 	0.74060 0.18650 0.82540 0.58700
C 	C 	0.50530 0.13450 0.75920 -2.48100
H 	H 	0.51200 0.13720 0.82320 0.73800
H 	H 	0.46300 0.13860 0.74650 0.68900
H 	H 	0.51840 0.10200 0.73860 0.73000
O 	O 	0.63490 0.03190 0.31970 -0.22300
C 	C 	0.66620 0.04420 0.23830 0.08700
H 	H 	0.70970 0.04180 0.24520 -0.04100
H 	H 	0.65540 0.07730 0.21570 -0.10300
C 	C 	0.64100 0.00230 0.17980 -0.28700
H 	H 	0.66850 0.99350 0.13120 0.13600
H 	H 	0.60190 0.01120 0.15450 0.27800
C 	C 	0.63560 0.96020 0.24900 0.03900
H 	H 	0.60180 0.93860 0.23260 0.09500
H 	H 	0.67210 0.94000 0.24740 -0.31500
C 	C 	0.62610 0.98030 0.34340 0.19900
H 	H 	0.58570 0.97370 0.36630 -0.06700
H 	H 	0.65620 0.96820 0.38590 -0.04300
O 	O 	0.60270 0.03540 0.30890 -0.16100
C 	C 	0.64050 0.05070 0.23570 0.11900
H 	H 	0.68310 0.04850 0.25060 -0.04300
H 	H 	0.63090 0.08450 0.21490 0.03400
C 	C 	0.62130 0.01080 0.16840 0.11100
H 	H 	0.65300 0.00400 0.12450 -0.08000
H 	H 	0.58450 0.02030 0.13680 -0.22300
C 	C 	0.61110 0.96630 0.23100 -0.58200
H 	H 	0.57950 0.94510 0.20610 0.08900
H 	H 	0.64790 0.94650 0.23440 0.38000
C 	C 	0.59320 0.98290 0.32500 0.19400
H 	H 	0.55130 0.97510 0.33920 -0.03100
H 	H 	0.61970 0.96950 0.37150 -0.14400
H 	H 	0.68470 0.18840 0.03210 0.01400
H 	H 	0.66290 0.16880 0.93760 -0.10700
C 	C 	0.63390 0.12450 0.04180 -0.22100
H 	H 	0.63370 0.12500 0.10750 0.08500
H 	H 	0.65800 0.09660 0.01940 0.08100
H 	H 	0.54340 0.10640 0.03460 -0.05000
H 	H 	0.57240 0.11470 0.93860 -0.02200
H 	H 	0.52470 0.18850 0.94710 0.13900
H 	H 	0.53460 0.20620 0.05370 -0.18400
H 	H 	0.43220 0.20290 0.94000 0.11900
H 	H 	0.44290 0.17160 0.02950 0.04400
C 	C 	0.41740 0.24540 0.05580 -0.27300
H 	H 	0.41650 0.23770 0.12000 0.01500
H 	H 	0.37670 0.25230 0.03440 0.08600
C 	C 	0.46100 0.28790 0.03390 0.34900
H 	H 	0.44220 0.30970 0.98930 -0.15900
H 	H 	0.46710 0.30770 0.08830 -0.11900
H 	H 	0.50310 0.38560 0.05340 -0.25700
H 	H 	0.47820 0.46500 0.94720 -0.01100
H 	H 	0.57310 0.49380 0.94190 0.33200
H 	H 	0.56750 0.50490 0.04640 -0.20500
C 	C 	0.60740 0.43600 0.02040 0.01500
H 	H 	0.64410 0.44090 0.98540 -0.10600
H 	H 	0.61840 0.43710 0.08400 -0.23900
H 	H 	0.59020 0.44490 0.04350 1.03800
H 	H 	0.57960 0.43220 0.94110 -0.08400
H 	H 	0.55180 0.39760 0.01640 0.17600
Cs	Cs	0.37881 0.69693 0.85867 0.67500
Cu	Cu	0.34548 0.69186 0.60224 0.90000
Si	Si	0.45148 0.81625 0.70029 2.56100
Si	Si	0.50233 0.71610 0.67866 2.42700
Si	Si	0.49549 0.60527 0.69689 2.56100
Si	Si	0.36309 0.58218 0.69097 2.48000
Si	Si	0.31729 0.79960 0.69128 2.33700
O 	O 	0.46040 0.81843 0.59360 -1.01300
O 	O 	0.50860 0.49550 0.58500 -0.35100
O 	O 	0.47410 0.49820 0.58280 0.09400
O 	O 	0.46310 0.71200 0.58650 -1.05500
O 	O 	0.36300 0.55834 0.58840 -1.27500
O 	O 	0.50110 0.60794 0.58740 -1.06900
O 	O 	0.31840 0.73984 0.69010 -0.97200
O 	O 	0.33900 0.63853 0.68990 -0.99800
O 	O 	0.38060 0.82329 0.72980 -1.25300
O 	O 	0.47410 0.76118 0.74100 -1.28000
O 	O 	0.49500 0.66368 0.73440 -1.30400
O 	O 	0.43270 0.57920 0.72850 -1.31200
O 	O 	0.30670 0.82175 0.41120 -1.22000
C 	C 	0.58300 0.72740 0.65580 -2.23400
H 	H 	0.60460 0.72960 0.71210 0.59400
H 	H 	0.59900 0.70020 0.62050 0.55500
H 	H 	0.58750 0.75840 0.62300 0.56300
C 	C 	0.55900 0.57110 0.75040 -2.38200
H 	H 	0.59660 0.58610 0.73230 0.63000
H 	H 	0.55510 0.57290 0.81510 0.68400
H 	H 	0.55820 0.53650 0.73160 0.66700
C 	C 	0.31670 0.54120 0.76540 -2.31900
H 	H 	0.33260 0.50750 0.76430 0.64300
H 	H 	0.31790 0.55390 0.82630 0.66600
H 	H 	0.27560 0.54090 0.74430 0.66000
H 	H 	0.23900 0.60440 0.55310 0.57900
H 	H 	0.21000 0.74160 0.44690 0.49200
C 	C 	0.25420 0.82510 0.76430 -2.07800
H 	H 	0.25510 0.86120 0.76320 0.58900
H 	H 	0.21600 0.81350 0.74140 0.54100
H 	H 	0.25940 0.81350 0.82540 0.58700
C 	C 	0.49470 0.86550 0.75920 -2.48100
H 	H 	0.48800 0.86280 0.82320 0.73800
H 	H 	0.53700 0.86140 0.74650 0.68900
H 	H 	0.48160 0.89800 0.73860 0.73000
O 	O 	0.36510 0.96810 0.31970 -0.22300
C 	C 	0.33380 0.95580 0.23830 0.08700
H 	H 	0.29030 0.95820 0.24520 -0.04100
H 	H 	0.34460 0.92270 0.21570 -0.10300
C 	C 	0.35900 0.99770 0.17980 -0.28700
H 	H 	0.33150 0.00650 0.13120 0.13600
H 	H 	0.39810 0.98880 0.15450 0.27800
C 	C 	0.36440 0.03980 0.24900 0.03900
H 	H 	0.39820 0.06140 0.23260 0.09500
H 	H 	0.32790 0.06000 0.24740 -0.31500
C 	C 	0.37390 0.01970 0.34340 0.19900
H 	H 	0.41430 0.02630 0.36630 -0.06700
H 	H 	0.34380 0.03180 0.38590 -0.04300
O 	O 	0.39730 0.96460 0.30890 -0.16100
C 	C 	0.35950 0.94930 0.23570 0.11900
H 	H 	0.31690 0.95150 0.25060 -0.04300
H 	H 	0.36910 0.91550 0.21490 0.03400
C 	C 	0.37870 0.98920 0.16840 0.11100
H 	H 	0.34700 0.99600 0.12450 -0.08000
H 	H 	0.41550 0.97970 0.13680 -0.22300
C 	C 	0.38890 0.03370 0.23100 -0.58200
H 	H 	0.42050 0.05490 0.20610 0.08900
H 	H 	0.35210 0.05350 0.23440 0.38000
C 	C 	0.40680 0.01710 0.32500 0.19400
H 	H 	0.44870 0.02490 0.33920 -0.03100
H 	H 	0.38030 0.03050 0.37150 -0.14400
H 	H 	0.31530 0.81160 0.03210 0.01400
H 	H 	0.33710 0.83120 0.93760 -0.10700
C 	C 	0.36610 0.87550 0.04180 -0.22100
H 	H 	0.36630 0.87500 0.10750 0.08500
H 	H 	0.34200 0.90340 0.01940 0.08100
H 	H 	0.45660 0.89360 0.03460 -0.05000
H 	H 	0.42760 0.88530 0.93860 -0.02200
H 	H 	0.47530 0.81150 0.94710 0.13900
H 	H 	0.46540 0.79380 0.05370 -0.18400
H 	H 	0.56780 0.79710 0.94000 0.11900
H 	H 	0.55710 0.82840 0.02950 0.04400
C 	C 	0.58260 0.75460 0.05580 -0.27300
H 	H 	0.58350 0.76230 0.12000 0.01500
H 	H 	0.62330 0.74770 0.03440 0.08600
C 	C 	0.53900 0.71210 0.03390 0.34900
H 	H 	0.55780 0.69030 0.98930 -0.15900
H 	H 	0.53290 0.69230 0.08830 -0.11900
H 	H 	0.49690 0.61440 0.05340 -0.25700
H 	H 	0.52180 0.53500 0.94720 -0.01100
H 	H 	0.42690 0.50620 0.94190 0.33200
H 	H 	0.43250 0.49510 0.04640 -0.20500
C 	C 	0.39260 0.56400 0.02040 0.01500
H 	H 	0.35590 0.55910 0.98540 -0.10600
H 	H 	0.38160 0.56290 0.08400 -0.23900
H 	H 	0.40980 0.55510 0.04350 1.03800
H 	H 	0.42040 0.56780 0.94110 -0.08400
H 	H 	0.44820 0.60240 0.01640 0.17600
Cs	Cs	0.37881 0.69693 0.14133 0.67800
Cu	Cu	0.34548 0.69186 0.39776 0.90000
Si	Si	0.45148 0.81625 0.29971 2.55900
Si	Si	0.50233 0.71610 0.32134 2.42500
Si	Si	0.49549 0.60527 0.30311 2.56600
Si	Si	0.36309 0.58218 0.30903 2.48400
Si	Si	0.31729 0.79960 0.30872 2.33900
O 	O 	0.46040 0.81843 0.40640 -1.01200
O 	O 	0.50860 0.49550 0.41500 -0.35100
O 	O 	0.47410 0.49820 0.41720 0.09400
O 	O 	0.46310 0.71200 0.41350 -1.05500
O 	O 	0.36300 0.55834 0.41160 -1.27600
O 	O 	0.50110 0.60794 0.41260 -1.07000
O 	O 	0.31840 0.73984 0.30990 -0.97200
O 	O 	0.33900 0.63853 0.31010 -0.99700
O 	O 	0.38060 0.82329 0.27020 -1.25200
O 	O 	0.47410 0.76118 0.25900 -1.28100
O 	O 	0.49500 0.66368 0.26560 -1.29900
O 	O 	0.43270 0.57920 0.27150 -1.31000
O 	O 	0.30670 0.82175 0.58880 -1.22000
C 	C 	0.58300 0.72740 0.34420 -2.23000
H 	H 	0.60460 0.72960 0.28790 0.59000
H 	H 	0.59900 0.70020 0.37950 0.55400
H 	H 	0.58750 0.75840 0.37700 0.56100
C 	C 	0.55900 0.57110 0.24960 -2.38900
H 	H 	0.59660 0.58610 0.26770 0.63300
H 	H 	0.55510 0.57290 0.18490 0.69000
H 	H 	0.55820 0.53650 0.26840 0.67000
C 	C 	0.31670 0.54120 0.23460 -2.32000
H 	H 	0.33260 0.50750 0.23570 0.64400
H 	H 	0.31790 0.55390 0.17370 0.66800
H 	H 	0.27560 0.54090 0.25570 0.66100
H 	H 	0.23900 0.60440 0.44690 0.57900
H 	H 	0.21000 0.74160 0.55310 0.49200
C 	C 	0.25420 0.82510 0.23570 -2.08300
H 	H 	0.25510 0.86120 0.23680 0.59200
H 	H 	0.21600 0.81350 0.25860 0.54200
H 	H 	0.25940 0.81350 0.17460 0.59100
C 	C 	0.49470 0.86550 0.24080 -2.48100
H 	H 	0.48800 0.86280 0.17680 0.73800
H 	H 	0.53700 0.86140 0.25350 0.68700
H 	H 	0.48160 0.89800 0.26140 0.73100
O 	O 	0.36510 0.96810 0.68030 -0.22300
C 	C 	0.33380 0.95580 0.76170 0.08700
H 	H 	0.29030 0.95820 0.75480 -0.04200
H 	H 	0.34460 0.92270 0.78430 -0.10300
C 	C 	0.35900 0.99770 0.82020 -0.29100
H 	H 	0.33150 0.00650 0.86880 0.14100
H 	H 	0.39810 0.98880 0.84550 0.28500
C 	C 	0.36440 0.03980 0.75100 0.03700
H 	H 	0.39820 0.06140 0.76740 0.09700
H 	H 	0.32790 0.06000 0.75260 -0.31800
C 	C 	0.37390 0.01970 0.65660 0.20100
H 	H 	0.41430 0.02630 0.63370 -0.06900
H 	H 	0.34380 0.03180 0.61410 -0.04300
O 	O 	0.39730 0.96460 0.69110 -0.16200
C 	C 	0.35950 0.94930 0.76430 0.11900
H 	H 	0.31690 0.95150 0.74940 -0.04300
H 	H 	0.36910 0.91550 0.78510 0.03300
C 	C 	0.37870 0.98920 0.83160 0.11400
H 	H 	0.34700 0.99600 0.87550 -0.09000
H 	H 	0.41550 0.97970 0.86320 -0.23300
C 	C 	0.38890 0.03370 0.76900 -0.58700
H 	H 	0.42050 0.05490 0.79390 0.08700
H 	H 	0.35210 0.05350 0.76560 0.38400
C 	C 	0.40680 0.01710 0.67500 0.19700
H 	H 	0.44870 0.02490 0.66080 -0.03200
H 	H 	0.38030 0.03050 0.62850 -0.14600
H 	H 	0.31530 0.81160 0.96790 -0.01400
H 	H 	0.33710 0.83120 0.06240 -0.11600
C 	C 	0.36610 0.87550 0.95820 -0.28300
H 	H 	0.36630 0.87500 0.89250 0.10400
H 	H 	0.34200 0.90340 0.98060 0.04900
H 	H 	0.45660 0.89360 0.96540 -0.07600
H 	H 	0.42760 0.88530 0.06140 -0.03100
H 	H 	0.47530 0.81150 0.05290 0.14400
H 	H 	0.46540 0.79380 0.94630 -0.18700
H 	H 	0.56780 0.79710 0.06000 0.20900
H 	H 	0.55710 0.82840 0.97050 0.06100
C 	C 	0.58260 0.75460 0.94420 0.18700
H 	H 	0.58350 0.76230 0.88000 -0.11500
H 	H 	0.62330 0.74770 0.96560 -0.10400
C 	C 	0.53900 0.71210 0.96610 -0.23900
H 	H 	0.55780 0.69030 0.01070 0.12400
H 	H 	0.53290 0.69230 0.91170 0.09300
H 	H 	0.49690 0.61440 0.94660 -0.21700
H 	H 	0.52180 0.53500 0.05280 0.00500
H 	H 	0.42690 0.50620 0.05810 0.38300
H 	H 	0.43250 0.49510 0.95360 -0.15100
C 	C 	0.39260 0.56400 0.97960 -0.15200
H 	H 	0.35590 0.55910 0.01460 0.18700
H 	H 	0.38160 0.56290 0.91600 -0.15900
H 	H 	0.40980 0.55510 0.95650 0.77700
H 	H 	0.42040 0.56780 0.05890 -0.40100
H 	H 	0.44820 0.60240 0.98360 -0.38400
Cs	Cs	0.62119 0.30307 0.14133 0.67800
Cu	Cu	0.65452 0.30814 0.39776 0.90000
Si	Si	0.54852 0.18375 0.29971 2.55900
Si	Si	0.49767 0.28390 0.32134 2.42500
Si	Si	0.50451 0.39473 0.30311 2.56600
Si	Si	0.63691 0.41782 0.30903 2.48400
Si	Si	0.68271 0.20040 0.30872 2.33900
O 	O 	0.53960 0.18157 0.40640 -1.01200
O 	O 	0.49140 0.50450 0.41500 -0.35100
O 	O 	0.52590 0.50180 0.41720 0.09400
O 	O 	0.53690 0.28800 0.41350 -1.05500
O 	O 	0.63700 0.44166 0.41160 -1.27600
O 	O 	0.49890 0.39206 0.41260 -1.07000
O 	O 	0.68160 0.26016 0.30990 -0.97200
O 	O 	0.66100 0.36147 0.31010 -0.99700
O 	O 	0.61940 0.17671 0.27020 -1.25200
O 	O 	0.52590 0.23882 0.25900 -1.28100
O 	O 	0.50500 0.33632 0.26560 -1.29900
O 	O 	0.56730 0.42080 0.27150 -1.31000
O 	O 	0.69330 0.17825 0.58880 -1.22000
C 	C 	0.41700 0.27260 0.34420 -2.23000
H 	H 	0.39540 0.27040 0.28790 0.59000
H 	H 	0.40100 0.29980 0.37950 0.55400
H 	H 	0.41250 0.24160 0.37700 0.56100
C 	C 	0.44100 0.42890 0.24960 -2.38900
H 	H 	0.40340 0.41390 0.26770 0.63300
H 	H 	0.44490 0.42710 0.18490 0.69000
H 	H 	0.44180 0.46350 0.26840 0.67000
C 	C 	0.68330 0.45880 0.23460 -2.32000
H 	H 	0.66740 0.49250 0.23570 0.64400
H 	H 	0.68210 0.44610 0.17370 0.66800
H 	H 	0.72440 0.45910 0.25570 0.66100
H 	H 	0.76100 0.39560 0.44690 0.57900
H 	H 	0.79000 0.25840 0.55310 0.49200
C 	C 	0.74580 0.17490 0.23570 -2.08300
H 	H 	0.74490 0.13880 0.23680 0.59200
H 	H 	0.78400 0.18650 0.25860 0.54200
H 	H 	0.74060 0.18650 0.17460 0.59100
C 	C 	0.50530 0.13450 0.24080 -2.48100
H 	H 	0.51200 0.13720 0.17680 0.73800
H 	H 	0.46300 0.13860 0.25350 0.68700
H 	H 	0.51840 0.10200 0.26140 0.73100
O 	O 	0.63490 0.03190 0.68030 -0.22300
C 	C 	0.66620 0.04420 0.76170 0.08700
H 	H 	0.70970 0.04180 0.75480 -0.04200
H 	H 	0.65540 0.07730 0.78430 -0.10300
C 	C 	0.64100 0.00230 0.82020 -0.29100
H 	H 	0.66850 0.99350 0.86880 0.14100
H 	H 	0.60190 0.01120 0.84550 0.28500
C 	C 	0.63560 0.96020 0.75100 0.03700
H 	H 	0.60180 0.93860 0.76740 0.09700
H 	H 	0.67210 0.94000 0.75260 -0.31800
C 	C 	0.62610 0.98030 0.65660 0.20100
H 	H 	0.58570 0.97370 0.63370 -0.06900
H 	H 	0.65620 0.96820 0.61410 -0.04300
O 	O 	0.60270 0.03540 0.69110 -0.16200
C 	C 	0.64050 0.05070 0.76430 0.11900
H 	H 	0.68310 0.04850 0.74940 -0.04300
H 	H 	0.63090 0.08450 0.78510 0.03300
C 	C 	0.62130 0.01080 0.83160 0.11400
H 	H 	0.65300 0.00400 0.87550 -0.09000
H 	H 	0.58450 0.02030 0.86320 -0.23300
C 	C 	0.61110 0.96630 0.76900 -0.58700
H 	H 	0.57950 0.94510 0.79390 0.08700
H 	H 	0.64790 0.94650 0.76560 0.38400
C 	C 	0.59320 0.98290 0.67500 0.19700
H 	H 	0.55130 0.97510 0.66080 -0.03200
H 	H 	0.61970 0.96950 0.62850 -0.14600
H 	H 	0.68470 0.18840 0.96790 -0.01400
H 	H 	0.66290 0.16880 0.06240 -0.11600
C 	C 	0.63390 0.12450 0.95820 -0.28300
H 	H 	0.63370 0.12500 0.89250 0.10400
H 	H 	0.65800 0.09660 0.98060 0.04900
H 	H 	0.54340 0.10640 0.96540 -0.07600
H 	H 	0.57240 0.11470 0.06140 -0.03100
H 	H 	0.52470 0.18850 0.05290 0.14400
H 	H 	0.53460 0.20620 0.94630 -0.18700
H 	H 	0.43220 0.20290 0.06000 0.20900
H 	H 	0.44290 0.17160 0.97050 0.06100
C 	C 	0.41740 0.24540 0.94420 0.18700
H 	H 	0.41650 0.23770 0.88000 -0.11500
H 	H 	0.37670 0.25230 0.96560 -0.10400
C 	C 	0.46100 0.28790 0.96610 -0.23900
H 	H 	0.44220 0.30970 0.01070 0.12400
H 	H 	0.46710 0.30770 0.91170 0.09300
H 	H 	0.50310 0.38560 0.94660 -0.21700
H 	H 	0.47820 0.46500 0.05280 0.00500
H 	H 	0.57310 0.49380 0.05810 0.38300
H 	H 	0.56750 0.50490 0.95360 -0.15100
C 	C 	0.60740 0.43600 0.97960 -0.15200
H 	H 	0.64410 0.44090 0.01460 0.18700
H 	H 	0.61840 0.43710 0.91600 -0.15900
H 	H 	0.59020 0.44490 0.95650 0.77700
H 	H 	0.57960 0.43220 0.05890 -0.40100
H 	H 	0.55180 0.39760 0.98360 -0.38400
Cs	Cs	0.60619 0.09215 0.50000 0.68600
Cu	Cu	0.54488 0.23089 0.50000 0.90800
Cu	Cu	0.52392 0.34151 0.50000 0.89900
Cu	Cu	0.49755 0.44633 0.50000 0.88700
Si	Si	0.66283 0.41181 0.50000 2.34100
Si	Si	0.70502 0.21378 0.50000 2.17300
O 	O 	0.65670 0.26040 0.50000 -0.98500
O 	O 	0.63650 0.35460 0.50000 -1.03000
C 	C 	0.74630 0.41250 0.50000 -2.21100
H 	H 	0.76040 0.44670 0.50000 0.61400
C 	C 	0.78360 0.23820 0.50000 -1.98800
H 	H 	0.81150 0.21050 0.50000 0.49600
O 	O 	0.47640 0.01110 0.50000 -0.17800
Cs	Cs	0.39381 0.90785 0.50000 0.68600
Cu	Cu	0.45512 0.76911 0.50000 0.90800
Cu	Cu	0.47608 0.65849 0.50000 0.89900
Cu	Cu	0.50245 0.55367 0.50000 0.88700
Si	Si	0.33717 0.58819 0.50000 2.34100
Si	Si	0.29498 0.78622 0.50000 2.17300
O 	O 	0.34330 0.73960 0.50000 -0.98500
O 	O 	0.36350 0.64540 0.50000 -1.03000
C 	C 	0.25370 0.58750 0.50000 -2.21100
H 	H 	0.23960 0.55330 0.50000 0.61400
C 	C 	0.21640 0.76180 0.50000 -1.98800
H 	H 	0.18850 0.78950 0.50000 0.49600
O 	O 	0.52360 0.98890 0.50000 -0.17800
O 	O 	0.60290 0.21060 -0.00000 -0.21700
C 	C 	0.65030 0.17460 -0.00000 0.45600
C 	C 	0.57110 0.12720 -0.00000 0.23100
C 	C 	0.54900 0.18150 -0.00000 -0.25000
O 	O 	0.51840 0.27300 -0.00000 -0.36000
C 	C 	0.51450 0.21970 -0.00000 0.47000
C 	C 	0.44820 0.20430 -0.00000 -0.56700
O 	O 	0.58330 0.38780 -0.00000 0.84000
C 	C 	0.52120 0.40140 -0.00000 0.66900
C 	C 	0.50120 0.45620 -0.00000 0.02800
C 	C 	0.56420 0.47900 -0.00000 -0.80300
O 	O 	0.67290 0.22240 -0.00000 -0.36600
O 	O 	0.63580 0.39010 -0.00000 -0.25500
C 	C 	0.58590 0.41810 -0.00000 -1.57200
O 	O 	0.39710 0.78940 -0.00000 -0.21700
C 	C 	0.34970 0.82540 -0.00000 0.45600
C 	C 	0.42890 0.87280 -0.00000 0.23100
C 	C 	0.45100 0.81850 -0.00000 -0.25000
O 	O 	0.48160 0.72700 -0.00000 -0.36000
C 	C 	0.48550 0.78030 -0.00000 0.47000
C 	C 	0.55180 0.79570 -0.00000 -0.56700
O 	O 	0.41670 0.61220 -0.00000 0.84000
C 	C 	0.47880 0.59860 -0.00000 0.66900
C 	C 	0.49880 0.54380 -0.00000 0.02800
C 	C 	0.43580 0.52100 -0.00000 -0.80300
O 	O 	0.32710 0.77760 -0.00000 -0.36600
O 	O 	0.36420 0.60990 -0.00000 -0.25500
C 	C 	0.41410 0.58190 -0.00000 -1.57200
Cs	Cs	0.87881 0.80307 0.14133 0.67800
Cu	Cu	0.84548 0.80814 0.39776 0.90000
Si	Si	0.95148 0.68375 0.29971 2.55900
Si	Si	0.00233 0.78390 0.32134 2.42200
Si	Si	0.99549 0.89473 0.30311 2.57100
Si	Si	0.86309 0.91782 0.30903 2.48400
Si	Si	0.81729 0.70040 0.30872 2.33900
O 	O 	0.96040 0.68157 0.40640 -1.01200
O 	O 	0.00860 0.00450 0.41500 -0.35700
O 	O 	0.97410 0.00180 0.41720 0.10100
O 	O 	0.96310 0.78800 0.41350 -1.05400
O 	O 	0.86300 0.94166 0.41160 -1.27600
O 	O 	0.00110 0.89206 0.41260 -1.07200
O 	O 	0.81840 0.76016 0.30990 -0.97200
O 	O 	0.83900 0.86147 0.31010 -0.99800
O 	O 	0.88060 0.67671 0.27020 -1.25200
O 	O 	0.97410 0.73882 0.25900 -1.28000
O 	O 	0.99500 0.83632 0.26560 -1.29900
O 	O 	0.93270 0.92080 0.27150 -1.31100
O 	O 	0.80670 0.67825 0.58880 -1.21900
C 	C 	0.08300 0.77260 0.34420 -2.22700
H 	H 	0.10460 0.77040 0.28790 0.58900
H 	H 	0.09900 0.79980 0.37950 0.55300
H 	H 	0.08750 0.74160 0.37700 0.56000
C 	C 	0.05900 0.92890 0.24960 -2.39300
H 	H 	0.09660 0.91390 0.26770 0.63400
H 	H 	0.05510 0.92710 0.18490 0.69000
H 	H 	0.05820 0.96350 0.26840 0.67000
C 	C 	0.81670 0.95880 0.23460 -2.32000
H 	H 	0.83260 0.99250 0.23570 0.64500
H 	H 	0.81790 0.94610 0.17370 0.66800
H 	H 	0.77560 0.95910 0.25570 0.66100
H 	H 	0.73900 0.89560 0.44690 0.57900
H 	H 	0.71000 0.75840 0.55310 0.49200
C 	C 	0.75420 0.67490 0.23570 -2.08300
H 	H 	0.75510 0.63880 0.23680 0.59200
H 	H 	0.71600 0.68650 0.25860 0.54200
H 	H 	0.75940 0.68650 0.17460 0.59100
C 	C 	0.99470 0.63450 0.24080 -2.47900
H 	H 	0.98800 0.63720 0.17680 0.73800
H 	H 	0.03700 0.63860 0.25350 0.68700
H 	H 	0.98160 0.60200 0.26140 0.73000
O 	O 	0.86510 0.53190 0.68030 -0.22300
C 	C 	0.83380 0.54420 0.76170 0.08700
H 	H 	0.79030 0.54180 0.75480 -0.04100
H 	H 	0.84460 0.57730 0.78430 -0.10300
C 	C 	0.85900 0.50230 0.82020 -0.29100
H 	H 	0.83150 0.49350 0.86880 0.13400
H 	H 	0.89810 0.51120 0.84550 0.28200
C 	C 	0.86440 0.46020 0.75100 0.03700
H 	H 	0.89820 0.43860 0.76740 0.09700
H 	H 	0.82790 0.44000 0.75260 -0.31700
C 	C 	0.87390 0.48030 0.65660 0.20000
H 	H 	0.91430 0.47370 0.63370 -0.06800
H 	H 	0.84380 0.46820 0.61410 -0.04300
O 	O 	0.89730 0.53540 0.69110 -0.16200
C 	C 	0.85950 0.55070 0.76430 0.11800
H 	H 	0.81690 0.54850 0.74940 -0.04300
H 	H 	0.86910 0.58450 0.78510 0.03300
C 	C 	0.87870 0.51080 0.83160 0.11400
H 	H 	0.84700 0.50400 0.87550 -0.08200
H 	H 	0.91550 0.52030 0.86320 -0.23100
C 	C 	0.88890 0.46630 0.76900 -0.58500
H 	H 	0.92050 0.44510 0.79390 0.08700
H 	H 	0.85210 0.44650 0.76560 0.38300
C 	C 	0.90680 0.48290 0.67500 0.19500
H 	H 	0.94870 0.47510 0.66080 -0.03100
H 	H 	0.88030 0.46950 0.62850 -0.14500
H 	H 	0.81530 0.68840 0.96790 -0.01400
H 	H 	0.83710 0.66880 0.06240 -0.11700
C 	C 	0.86610 0.62450 0.95820 -0.27900
H 	H 	0.86630 0.62500 0.89250 0.10200
H 	H 	0.84200 0.59660 0.98060 0.04800
H 	H 	0.95660 0.60640 0.96540 -0.07300
H 	H 	0.92760 0.61470 0.06140 -0.02700
H 	H 	0.97530 0.68850 0.05290 0.12700
H 	H 	0.96540 0.70620 0.94630 -0.16800
H 	H 	0.06780 0.70290 0.06000 0.20100
H 	H 	0.05710 0.67160 0.97050 0.05700
C 	C 	0.08260 0.74540 0.94420 0.17800
H 	H 	0.08350 0.73770 0.88000 -0.11100
H 	H 	0.12330 0.75230 0.96560 -0.10100
C 	C 	0.03900 0.78790 0.96610 -0.23400
H 	H 	0.05780 0.80970 0.01070 0.12200
H 	H 	0.03290 0.80770 0.91170 0.09200
H 	H 	0.99690 0.88560 0.94660 -0.21800
H 	H 	0.02180 0.96500 0.05280 0.00400
H 	H 	0.92690 0.99380 0.05810 0.37000
H 	H 	0.93250 0.00490 0.95360 -0.14200
C 	C 	0.89260 0.93600 0.97960 -0.14900
H 	H 	0.85590 0.94090 0.01460 0.18400
H 	H 	0.88160 0.93710 0.91600 -0.15800
H 	H 	0.90980 0.94490 0.95650 0.77000
H 	H 	0.92040 0.93220 0.05890 -0.39500
H 	H 	0.94820 0.89760 0.98360 -0.38200
Cs	Cs	0.12119 0.19693 0.14133 0.67800
Cu	Cu	0.15452 0.19186 0.39776 0.90000
Si	Si	0.04852 0.31625 0.29971 2.55900
Si	Si	0.99767 0.21610 0.32134 2.42200
Si	Si	0.00451 0.10527 0.30311 2.57100
Si	Si	0.13691 0.08218 0.30903 2.48400
Si	Si	0.18271 0.29960 0.30872 2.33900
O 	O 	0.03960 0.31843 0.40640 -1.01200
O 	O 	0.99140 0.99550 0.41500 -0.35700
O 	O 	0.02590 0.99820 0.41720 0.10100
O 	O 	0.03690 0.21200 0.41350 -1.05400
O 	O 	0.13700 0.05834 0.41160 -1.27600
O 	O 	0.99890 0.10794 0.41260 -1.07200
O 	O 	0.18160 0.23984 0.30990 -0.97200
O 	O 	0.16100 0.13853 0.31010 -0.99800
O 	O 	0.11940 0.32329 0.27020 -1.25200
O 	O 	0.02590 0.26118 0.25900 -1.28000
O 	O 	0.00500 0.16368 0.26560 -1.29900
O 	O 	0.06730 0.07920 0.27150 -1.31100
O 	O 	0.19330 0.32175 0.58880 -1.21900
C 	C 	0.91700 0.22740 0.34420 -2.22700
H 	H 	0.89540 0.22960 0.28790 0.58900
H 	H 	0.90100 0.20020 0.37950 0.55300
H 	H 	0.91250 0.25840 0.37700 0.56000
C 	C 	0.94100 0.07110 0.24960 -2.39300
H 	H 	0.90340 0.08610 0.26770 0.63400
H 	H 	0.94490 0.07290 0.18490 0.69000
H 	H 	0.94180 0.03650 0.26840 0.67000
C 	C 	0.18330 0.04120 0.23460 -2.32000
H 	H 	0.16740 0.00750 0.23570 0.64500
H 	H 	0.18210 0.05390 0.17370 0.66800
H 	H 	0.22440 0.04090 0.25570 0.66100
H 	H 	0.26100 0.10440 0.44690 0.57900
H 	H 	0.29000 0.24160 0.55310 0.49200
C 	C 	0.24580 0.32510 0.23570 -2.08300
H 	H 	0.24490 0.36120 0.23680 0.59200
H 	H 	0.28400 0.31350 0.25860 0.54200
H 	H 	0.24060 0.31350 0.17460 0.59100
C 	C 	0.00530 0.36550 0.24080 -2.47900
H 	H 	0.01200 0.36280 0.17680 0.73800
H 	H 	0.96300 0.36140 0.25350 0.68700
H 	H 	0.01840 0.39800 0.26140 0.73000
O 	O 	0.13490 0.46810 0.68030 -0.22300
C 	C 	0.16620 0.45580 0.76170 0.08700
H 	H 	0.20970 0.45820 0.75480 -0.04100
H 	H 	0.15540 0.42270 0.78430 -0.10300
C 	C 	0.14100 0.49770 0.82020 -0.29100
H 	H 	0.16850 0.50650 0.86880 0.13400
H 	H 	0.10190 0.48880 0.84550 0.28200
C 	C 	0.13560 0.53980 0.75100 0.03700
H 	H 	0.10180 0.56140 0.76740 0.09700
H 	H 	0.17210 0.56000 0.75260 -0.31700
C 	C 	0.12610 0.51970 0.65660 0.20000
H 	H 	0.08570 0.52630 0.63370 -0.06800
H 	H 	0.15620 0.53180 0.61410 -0.04300
O 	O 	0.10270 0.46460 0.69110 -0.16200
C 	C 	0.14050 0.44930 0.76430 0.11800
H 	H 	0.18310 0.45150 0.74940 -0.04300
H 	H 	0.13090 0.41550 0.78510 0.03300
C 	C 	0.12130 0.48920 0.83160 0.11400
H 	H 	0.15300 0.49600 0.87550 -0.08200
H 	H 	0.08450 0.47970 0.86320 -0.23100
C 	C 	0.11110 0.53370 0.76900 -0.58500
H 	H 	0.07950 0.55490 0.79390 0.08700
H 	H 	0.14790 0.55350 0.76560 0.38300
C 	C 	0.09320 0.51710 0.67500 0.19500
H 	H 	0.05130 0.52490 0.66080 -0.03100
H 	H 	0.11970 0.53050 0.62850 -0.14500
H 	H 	0.18470 0.31160 0.96790 -0.01400
H 	H 	0.16290 0.33120 0.06240 -0.11700
C 	C 	0.13390 0.37550 0.95820 -0.27900
H 	H 	0.13370 0.37500 0.89250 0.10200
H 	H 	0.15800 0.40340 0.98060 0.04800
H 	H 	0.04340 0.39360 0.96540 -0.07300
H 	H 	0.07240 0.38530 0.06140 -0.02700
H 	H 	0.02470 0.31150 0.05290 0.12700
H 	H 	0.03460 0.29380 0.94630 -0.16800
H 	H 	0.93220 0.29710 0.06000 0.20100
H 	H 	0.94290 0.32840 0.97050 0.05700
C 	C 	0.91740 0.25460 0.94420 0.17800
H 	H 	0.91650 0.26230 0.88000 -0.11100
H 	H 	0.87670 0.24770 0.96560 -0.10100
C 	C 	0.96100 0.21210 0.96610 -0.23400
H 	H 	0.94220 0.19030 0.01070 0.12200
H 	H 	0.96710 0.19230 0.91170 0.09200
H 	H 	0.00310 0.11440 0.94660 -0.21800
H 	H 	0.97820 0.03500 0.05280 0.00400
H 	H 	0.07310 0.00620 0.05810 0.37000
H 	H 	0.06750 0.99510 0.95360 -0.14200
C 	C 	0.10740 0.06400 0.97960 -0.14900
H 	H 	0.14410 0.05910 0.01460 0.18400
H 	H 	0.11840 0.06290 0.91600 -0.15800
H 	H 	0.09020 0.05510 0.95650 0.77000
H 	H 	0.07960 0.06780 0.05890 -0.39500
H 	H 	0.05180 0.10240 0.98360 -0.38200
Cs	Cs	0.12119 0.19693 0.85867 0.67600
Cu	Cu	0.15452 0.19186 0.60224 0.90000
Si	Si	0.04852 0.31625 0.70029 2.56000
Si	Si	0.99767 0.21610 0.67866 2.42400
Si	Si	0.00451 0.10527 0.69689 2.56600
Si	Si	0.13691 0.08218 0.69097 2.48000
Si	Si	0.18271 0.29960 0.69128 2.33700
O 	O 	0.03960 0.31843 0.59360 -1.01200
O 	O 	0.99140 0.99550 0.58500 -0.35600
O 	O 	0.02590 0.99820 0.58280 0.10100
O 	O 	0.03690 0.21200 0.58650 -1.05400
O 	O 	0.13700 0.05834 0.58840 -1.27500
O 	O 	0.99890 0.10794 0.58740 -1.07100
O 	O 	0.18160 0.23984 0.69010 -0.97200
O 	O 	0.16100 0.13853 0.68990 -0.99800
O 	O 	0.11940 0.32329 0.72980 -1.25300
O 	O 	0.02590 0.26118 0.74100 -1.27900
O 	O 	0.00500 0.16368 0.73440 -1.30400
O 	O 	0.06730 0.07920 0.72850 -1.31300
O 	O 	0.19330 0.32175 0.41120 -1.22000
C 	C 	0.91700 0.22740 0.65580 -2.23200
H 	H 	0.89540 0.22960 0.71210 0.59300
H 	H 	0.90100 0.20020 0.62050 0.55400
H 	H 	0.91250 0.25840 0.62300 0.56200
C 	C 	0.94100 0.07110 0.75040 -2.38600
H 	H 	0.90340 0.08610 0.73230 0.63100
H 	H 	0.94490 0.07290 0.81510 0.68400
H 	H 	0.94180 0.03650 0.73160 0.66800
C 	C 	0.18330 0.04120 0.76540 -2.31900
H 	H 	0.16740 0.00750 0.76430 0.64300
H 	H 	0.18210 0.05390 0.82630 0.66600
H 	H 	0.22440 0.04090 0.74430 0.66000
H 	H 	0.26100 0.10440 0.55310 0.57900
H 	H 	0.29000 0.24160 0.44690 0.49200
C 	C 	0.24580 0.32510 0.76430 -2.07900
H 	H 	0.24490 0.36120 0.76320 0.58900
H 	H 	0.28400 0.31350 0.74140 0.54100
H 	H 	0.24060 0.31350 0.82540 0.58700
C 	C 	0.00530 0.36550 0.75920 -2.47900
H 	H 	0.01200 0.36280 0.82320 0.73800
H 	H 	0.96300 0.36140 0.74650 0.68800
H 	H 	0.01840 0.39800 0.73860 0.73000
O 	O 	0.13490 0.46810 0.31970 -0.22200
C 	C 	0.16620 0.45580 0.23830 0.08700
H 	H 	0.20970 0.45820 0.24520 -0.04000
H 	H 	0.15540 0.42270 0.21570 -0.10200
C 	C 	0.14100 0.49770 0.17980 -0.28700
H 	H 	0.16850 0.50650 0.13120 0.12800
H 	H 	0.10190 0.48880 0.15450 0.27400
C 	C 	0.13560 0.53980 0.24900 0.03900
H 	H 	0.10180 0.56140 0.23260 0.09400
H 	H 	0.17210 0.56000 0.24740 -0.31400
C 	C 	0.12610 0.51970 0.34340 0.19800
H 	H 	0.08570 0.52630 0.36630 -0.06700
H 	H 	0.15620 0.53180 0.38590 -0.04300
O 	O 	0.10270 0.46460 0.30890 -0.16100
C 	C 	0.14050 0.44930 0.23570 0.11800
H 	H 	0.18310 0.45150 0.25060 -0.04300
H 	H 	0.13090 0.41550 0.21490 0.03400
C 	C 	0.12130 0.48920 0.16840 0.11200
H 	H 	0.15300 0.49600 0.12450 -0.07200
H 	H 	0.08450 0.47970 0.13680 -0.22100
C 	C 	0.11110 0.53370 0.23100 -0.58000
H 	H 	0.07950 0.55490 0.20610 0.08900
H 	H 	0.14790 0.55350 0.23440 0.37900
C 	C 	0.09320 0.51710 0.32500 0.19200
H 	H 	0.05130 0.52490 0.33920 -0.03100
H 	H 	0.11970 0.53050 0.37150 -0.14300
H 	H 	0.18470 0.31160 0.03210 0.01400
H 	H 	0.16290 0.33120 0.93760 -0.10700
C 	C 	0.13390 0.37550 0.04180 -0.21600
H 	H 	0.13370 0.37500 0.10750 0.08300
H 	H 	0.15800 0.40340 0.01940 0.08000
H 	H 	0.04340 0.39360 0.03460 -0.04700
H 	H 	0.07240 0.38530 0.93860 -0.01800
H 	H 	0.02470 0.31150 0.94710 0.12100
H 	H 	0.03460 0.29380 0.05370 -0.16500
H 	H 	0.93220 0.29710 0.94000 0.11200
H 	H 	0.94290 0.32840 0.02950 0.04100
C 	C 	0.91740 0.25460 0.05580 -0.27600
H 	H 	0.91650 0.26230 0.12000 0.01700
H 	H 	0.87670 0.24770 0.03440 0.08600
C 	C 	0.96100 0.21210 0.03390 0.34700
H 	H 	0.94220 0.19030 0.98930 -0.15700
H 	H 	0.96710 0.19230 0.08830 -0.11800
H 	H 	0.00310 0.11440 0.05340 -0.25800
H 	H 	0.97820 0.03500 0.94720 -0.01200
H 	H 	0.07310 0.00620 0.94190 0.32000
H 	H 	0.06750 0.99510 0.04640 -0.19500
C 	C 	0.10740 0.06400 0.02040 0.01500
H 	H 	0.14410 0.05910 0.98540 -0.10400
H 	H 	0.11840 0.06290 0.08400 -0.23700
H 	H 	0.09020 0.05510 0.04350 1.02800
H 	H 	0.07960 0.06780 0.94110 -0.08300
H 	H 	0.05180 0.10240 0.01640 0.17000
Cs	Cs	0.87881 0.80307 0.85867 0.67600
Cu	Cu	0.84548 0.80814 0.60224 0.90000
Si	Si	0.95148 0.68375 0.70029 2.56000
Si	Si	0.00233 0.78390 0.67866 2.42400
Si	Si	0.99549 0.89473 0.69689 2.56600
Si	Si	0.86309 0.91782 0.69097 2.48000
Si	Si	0.81729 0.70040 0.69128 2.33700
O 	O 	0.96040 0.68157 0.59360 -1.01200
O 	O 	0.00860 0.00450 0.58500 -0.35600
O 	O 	0.97410 0.00180 0.58280 0.10100
O 	O 	0.96310 0.78800 0.58650 -1.05400
O 	O 	0.86300 0.94166 0.58840 -1.27500
O 	O 	0.00110 0.89206 0.58740 -1.07100
O 	O 	0.81840 0.76016 0.69010 -0.97200
O 	O 	0.83900 0.86147 0.68990 -0.99800
O 	O 	0.88060 0.67671 0.72980 -1.25300
O 	O 	0.97410 0.73882 0.74100 -1.27900
O 	O 	0.99500 0.83632 0.73440 -1.30400
O 	O 	0.93270 0.92080 0.72850 -1.31300
O 	O 	0.80670 0.67825 0.41120 -1.22000
C 	C 	0.08300 0.77260 0.65580 -2.23200
H 	H 	0.10460 0.77040 0.71210 0.59300
H 	H 	0.09900 0.79980 0.62050 0.55400
H 	H 	0.08750 0.74160 0.62300 0.56200
C 	C 	0.05900 0.92890 0.75040 -2.38600
H 	H 	0.09660 0.91390 0.73230 0.63100
H 	H 	0.05510 0.92710 0.81510 0.68400
H 	H 	0.05820 0.96350 0.73160 0.66800
C 	C 	0.81670 0.95880 0.76540 -2.31900
H 	H 	0.83260 0.99250 0.76430 0.64300
H 	H 	0.81790 0.94610 0.82630 0.66600
H 	H 	0.77560 0.95910 0.74430 0.66000
H 	H 	0.73900 0.89560 0.55310 0.57900
H 	H 	0.71000 0.75840 0.44690 0.49200
C 	C 	0.75420 0.67490 0.76430 -2.07900
H 	H 	0.75510 0.63880 0.76320 0.58900
H 	H 	0.71600 0.68650 0.74140 0.54100
H 	H 	0.75940 0.68650 0.82540 0.58700
C 	C 	0.99470 0.63450 0.75920 -2.47900
H 	H 	0.98800 0.63720 0.82320 0.73800
H 	H 	0.03700 0.63860 0.74650 0.68800
H 	H 	0.98160 0.60200 0.73860 0.73000
O 	O 	0.86510 0.53190 0.31970 -0.22200
C 	C 	0.83380 0.54420 0.23830 0.08700
H 	H 	0.79030 0.54180 0.24520 -0.04000
H 	H 	0.84460 0.57730 0.21570 -0.10200
C 	C 	0.85900 0.50230 0.17980 -0.28700
H 	H 	0.83150 0.49350 0.13120 0.12800
H 	H 	0.89810 0.51120 0.15450 0.27400
C 	C 	0.86440 0.46020 0.24900 0.03900
H 	H 	0.89820 0.43860 0.23260 0.09400
H 	H 	0.82790 0.44000 0.24740 -0.31400
C 	C 	0.87390 0.48030 0.34340 0.19800
H 	H 	0.91430 0.47370 0.36630 -0.06700
H 	H 	0.84380 0.46820 0.38590 -0.04300
O 	O 	0.89730 0.53540 0.30890 -0.16100
C 	C 	0.85950 0.55070 0.23570 0.11800
H 	H 	0.81690 0.54850 0.25060 -0.04300
H 	H 	0.86910 0.58450 0.21490 0.03400
C 	C 	0.87870 0.51080 0.16840 0.11200
H 	H 	0.84700 0.50400 0.12450 -0.07200
H 	H 	0.91550 0.52030 0.13680 -0.22100
C 	C 	0.88890 0.46630 0.23100 -0.58000
H 	H 	0.92050 0.44510 0.20610 0.08900
H 	H 	0.85210 0.44650 0.23440 0.37900
C 	C 	0.90680 0.48290 0.32500 0.19200
H 	H 	0.94870 0.47510 0.33920 -0.03100
H 	H 	0.88030 0.46950 0.37150 -0.14300
H 	H 	0.81530 0.68840 0.03210 0.01400
H 	H 	0.83710 0.66880 0.93760 -0.10700
C 	C 	0.86610 0.62450 0.04180 -0.21600
H 	H 	0.86630 0.62500 0.10750 0.08300
H 	H 	0.84200 0.59660 0.01940 0.08000
H 	H 	0.95660 0.60640 0.03460 -0.04700
H 	H 	0.92760 0.61470 0.93860 -0.01800
H 	H 	0.97530 0.68850 0.94710 0.12100
H 	H 	0.96540 0.70620 0.05370 -0.16500
H 	H 	0.06780 0.70290 0.94000 0.11200
H 	H 	0.05710 0.67160 0.02950 0.04100
C 	C 	0.08260 0.74540 0.05580 -0.27600
H 	H 	0.08350 0.73770 0.12000 0.01700
H 	H 	0.12330 0.75230 0.03440 0.08600
C 	C 	0.03900 0.78790 0.03390 0.34700
H 	H 	0.05780 0.80970 0.98930 -0.15700
H 	H 	0.03290 0.80770 0.08830 -0.11800
H 	H 	0.99690 0.88560 0.05340 -0.25800
H 	H 	0.02180 0.96500 0.94720 -0.01200
H 	H 	0.92690 0.99380 0.94190 0.32000
H 	H 	0.93250 0.00490 0.04640 -0.19500
C 	C 	0.89260 0.93600 0.02040 0.01500
H 	H 	0.85590 0.94090 0.98540 -0.10400
H 	H 	0.88160 0.93710 0.08400 -0.23700
H 	H 	0.90980 0.94490 0.04350 1.02800
H 	H 	0.92040 0.93220 0.94110 -0.08300
H 	H 	0.94820 0.89760 0.01640 0.17000
Cs	Cs	0.89381 0.59215 0.50000 0.68600
Cu	Cu	0.95512 0.73089 0.50000 0.90800
Cu	Cu	0.97608 0.84151 0.50000 0.90000
Cu	Cu	0.00245 0.94633 0.50000 0.88600
Si	Si	0.83717 0.91181 0.50000 2.34100
Si	Si	0.79498 0.71378 0.50000 2.17300
O 	O 	0.84330 0.76040 0.50000 -0.98500
O 	O 	0.86350 0.85460 0.50000 -1.03000
C 	C 	0.75370 0.91250 0.50000 -2.21200
H 	H 	0.73960 0.94670 0.50000 0.61400
C 	C 	0.71640 0.73820 0.50000 -1.98800
H 	H 	0.68850 0.71050 0.50000 0.49600
O 	O 	0.02360 0.51110 0.50000 -0.17800
Cs	Cs	0.10619 0.40785 0.50000 0.68600
Cu	Cu	0.04488 0.26911 0.50000 0.90800
Cu	Cu	0.02392 0.15849 0.50000 0.90000
Cu	Cu	0.99755 0.05367 0.50000 0.88600
Si	Si	0.16283 0.08819 0.50000 2.34100
Si	Si	0.20502 0.28622 0.50000 2.17300
O 	O 	0.15670 0.23960 0.50000 -0.98500
O 	O 	0.13650 0.14540 0.50000 -1.03000
C 	C 	0.24630 0.08750 0.50000 -2.21200
H 	H 	0.26040 0.05330 0.50000 0.61400
C 	C 	0.28360 0.26180 0.50000 -1.98800
H 	H 	0.31150 0.28950 0.50000 0.49600
O 	O 	0.97640 0.48890 0.50000 -0.17800
O 	O 	0.89710 0.71060 -0.00000 -0.22300
C 	C 	0.84970 0.67460 -0.00000 0.45600
C 	C 	0.92890 0.62720 -0.00000 0.21200
C 	C 	0.95100 0.68150 -0.00000 -0.22700
O 	O 	0.98160 0.77300 -0.00000 -0.35400
C 	C 	0.98550 0.71970 -0.00000 0.44200
C 	C 	0.05180 0.70430 -0.00000 -0.53600
O 	O 	0.91670 0.88780 -0.00000 0.83300
C 	C 	0.97880 0.90140 -0.00000 0.67300
C 	C 	0.99880 0.95620 -0.00000 0.02700
C 	C 	0.93580 0.97900 -0.00000 -0.79400
O 	O 	0.82710 0.72240 -0.00000 -0.36600
O 	O 	0.86420 0.89010 -0.00000 -0.25600
C 	C 	0.91410 0.91810 -0.00000 -1.55900
O 	O 	0.10290 0.28940 -0.00000 -0.22300
C 	C 	0.15030 0.32540 -0.00000 0.45600
C 	C 	0.07110 0.37280 -0.00000 0.21200
C 	C 	0.04900 0.31850 -0.00000 -0.22700
O 	O 	0.01840 0.22700 -0.00000 -0.35400
C 	C 	0.01450 0.28030 -0.00000 0.44200
C 	C 	0.94820 0.29570 -0.00000 -0.53600
O 	O 	0.08330 0.11220 -0.00000 0.83300
C 	C 	0.02120 0.09860 -0.00000 0.67300
C 	C 	0.00120 0.04380 -0.00000 0.02700
C 	C 	0.06420 0.02100 -0.00000 -0.79400
O 	O 	0.17290 0.27760 -0.00000 -0.36600
O 	O 	0.13580 0.10990 -0.00000 -0.25600
C 	C 	0.08590 0.08190 -0.00000 -1.55900
