data_crystal

_cell_length_a 29.02610
_cell_length_b 29.02610
_cell_length_c 29.02610
_cell_angle_alpha 90.00000
_cell_angle_beta  90.00000
_cell_angle_gamma 90.00000

_symmetry_space_group_name_	'P 1'
_symmetry_space_group_name_H-M	'P 1'

loop_
_symmetry_equiv_pos_as_xyz
  x,y,z

loop_
_atom_site_label
_atom_site_type_symbol
_atom_site_fract_x
_atom_site_fract_y
_atom_site_fract_z
_atom_site_charge
O 	O 	0.26940 0.33040 0.45340 -0.41500
O 	O 	0.21220 0.27640 0.45610 -0.41900
O 	O 	0.26640 0.45240 0.33760 -0.37200
O 	O 	0.21070 0.45010 0.28010 -0.37400
C 	C 	0.23550 0.30830 0.43670 0.31900
C 	C 	0.23190 0.43590 0.31590 0.29600
C 	C 	0.21070 0.33110 0.39430 -0.03800
C 	C 	0.17300 0.31100 0.37270 -0.04500
H 	H 	0.16130 0.28240 0.38350 0.05600
C 	C 	0.15240 0.33270 0.33530 0.01400
C 	C 	0.16940 0.37450 0.31950 -0.05100
H 	H 	0.15540 0.38930 0.29400 0.06100
C 	C 	0.20720 0.39470 0.34110 -0.02800
C 	C 	0.22780 0.37300 0.37850 -0.02000
H 	H 	0.25350 0.38670 0.39320 0.07000
C 	C 	0.04380 0.26000 0.26090 -0.00400
C 	C 	0.07450 0.23590 0.28870 -0.04100
H 	H 	0.07120 0.20350 0.29240 0.04000
C 	C 	0.10990 0.25910 0.31100 -0.06200
H 	H 	0.13080 0.24270 0.33000 0.04900
C 	C 	0.11460 0.30650 0.30550 0.02000
C 	C 	0.08400 0.33060 0.27770 -0.06100
H 	H 	0.08720 0.36290 0.27390 0.05100
C 	C 	0.04860 0.30730 0.25540 -0.04300
H 	H 	0.02760 0.32380 0.23640 0.03800
O 	O 	0.00030 0.19200 0.24680 0.17200
H 	H 	0.00070 0.18810 0.27840 -0.11900
C 	C 	0.99990 0.24990 0.18870 -0.32600
H 	H 	0.01080 0.28200 0.18240 0.26700
N 	N 	0.03020 0.21620 0.16550 -0.12900
H 	H 	0.05740 0.23030 0.15780 0.08100
C 	C 	0.95060 0.24320 0.16980 0.02800
H 	H 	0.93520 0.27330 0.16520 0.01000
H 	H 	0.93190 0.22450 0.19140 0.03100
C 	C 	0.00650 0.20030 0.12330 -0.00500
H 	H 	0.00680 0.16620 0.12210 0.02600
H 	H 	0.02290 0.21210 0.09580 0.01700
C 	C 	0.95640 0.21800 0.12320 -0.14300
H 	H 	0.93450 0.19180 0.12080 0.06300
H 	H 	0.95110 0.23910 0.09710 0.06100
O 	O 	0.73060 0.66960 0.45340 -0.41400
O 	O 	0.78780 0.72360 0.45610 -0.41800
O 	O 	0.73360 0.54760 0.33760 -0.37100
O 	O 	0.78930 0.54990 0.28010 -0.37300
C 	C 	0.76450 0.69170 0.43670 0.32000
C 	C 	0.76810 0.56410 0.31590 0.29700
C 	C 	0.78930 0.66890 0.39430 -0.03700
C 	C 	0.82700 0.68900 0.37270 -0.04400
H 	H 	0.83870 0.71760 0.38350 0.05800
C 	C 	0.84760 0.66730 0.33530 0.01600
C 	C 	0.83060 0.62550 0.31950 -0.05100
H 	H 	0.84460 0.61070 0.29400 0.06300
C 	C 	0.79280 0.60530 0.34110 -0.02800
C 	C 	0.77220 0.62700 0.37850 -0.02000
H 	H 	0.74650 0.61330 0.39320 0.07000
C 	C 	0.95620 0.74000 0.26090 0.00200
C 	C 	0.92550 0.76410 0.28870 -0.04200
H 	H 	0.92880 0.79650 0.29240 0.04300
C 	C 	0.89010 0.74090 0.31100 -0.06000
H 	H 	0.86920 0.75730 0.33000 0.04900
C 	C 	0.88540 0.69350 0.30550 0.02000
C 	C 	0.91600 0.66940 0.27770 -0.05900
H 	H 	0.91280 0.63710 0.27390 0.05100
C 	C 	0.95140 0.69270 0.25540 -0.04500
H 	H 	0.97240 0.67620 0.23640 0.04100
O 	O 	0.99970 0.80800 0.24680 0.18700
H 	H 	0.99930 0.81190 0.27840 -0.17200
C 	C 	0.00010 0.75010 0.18870 -0.33000
H 	H 	0.98920 0.71800 0.18240 0.22100
N 	N 	0.96980 0.78380 0.16550 -0.12500
H 	H 	0.94260 0.76970 0.15780 0.08300
C 	C 	0.04940 0.75680 0.16980 0.03200
H 	H 	0.06480 0.72670 0.16520 0.00800
H 	H 	0.06810 0.77550 0.19140 0.02900
C 	C 	0.99350 0.79970 0.12330 0.00400
H 	H 	0.99320 0.83380 0.12210 0.02700
H 	H 	0.97710 0.78790 0.09580 0.01700
C 	C 	0.04360 0.78200 0.12320 -0.15300
H 	H 	0.06550 0.80820 0.12080 0.06500
H 	H 	0.04890 0.76090 0.09710 0.06300
O 	O 	0.73060 0.33040 0.54660 -0.41400
O 	O 	0.78780 0.27640 0.54390 -0.41800
O 	O 	0.73360 0.45240 0.66240 -0.37100
O 	O 	0.78930 0.45010 0.71990 -0.37300
C 	C 	0.76450 0.30830 0.56330 0.32000
C 	C 	0.76810 0.43590 0.68410 0.29700
C 	C 	0.78930 0.33110 0.60570 -0.03700
C 	C 	0.82700 0.31100 0.62730 -0.04400
H 	H 	0.83870 0.28240 0.61650 0.05800
C 	C 	0.84760 0.33270 0.66470 0.01600
C 	C 	0.83060 0.37450 0.68050 -0.05100
H 	H 	0.84460 0.38930 0.70600 0.06300
C 	C 	0.79280 0.39470 0.65890 -0.02800
C 	C 	0.77220 0.37300 0.62150 -0.02000
H 	H 	0.74650 0.38670 0.60680 0.07000
C 	C 	0.95620 0.26000 0.73910 0.00200
C 	C 	0.92550 0.23590 0.71130 -0.04200
H 	H 	0.92880 0.20350 0.70760 0.04300
C 	C 	0.89010 0.25910 0.68900 -0.06000
H 	H 	0.86920 0.24270 0.67000 0.04900
C 	C 	0.88540 0.30650 0.69450 0.01900
C 	C 	0.91600 0.33060 0.72230 -0.05800
H 	H 	0.91280 0.36290 0.72610 0.05100
C 	C 	0.95140 0.30730 0.74460 -0.04500
H 	H 	0.97240 0.32380 0.76360 0.04100
O 	O 	0.99970 0.19200 0.75320 0.18700
H 	H 	0.99930 0.18810 0.72160 -0.17300
C 	C 	0.00010 0.24990 0.81130 -0.33000
H 	H 	0.98920 0.28200 0.81760 0.22100
N 	N 	0.96980 0.21620 0.83450 -0.12500
H 	H 	0.94260 0.23030 0.84220 0.08300
C 	C 	0.04940 0.24320 0.83020 0.03200
H 	H 	0.06480 0.27330 0.83480 0.00800
H 	H 	0.06810 0.22450 0.80860 0.02900
C 	C 	0.99350 0.20030 0.87670 0.00400
H 	H 	0.99320 0.16620 0.87790 0.02700
H 	H 	0.97710 0.21210 0.90420 0.01800
C 	C 	0.04360 0.21800 0.87680 -0.15300
H 	H 	0.06550 0.19180 0.87920 0.06600
H 	H 	0.04890 0.23910 0.90290 0.06400
O 	O 	0.26940 0.66960 0.54660 -0.41400
O 	O 	0.21220 0.72360 0.54390 -0.41800
O 	O 	0.26640 0.54760 0.66240 -0.37100
O 	O 	0.21070 0.54990 0.71990 -0.37300
C 	C 	0.23550 0.69170 0.56330 0.32000
C 	C 	0.23190 0.56410 0.68410 0.29700
C 	C 	0.21070 0.66890 0.60570 -0.03700
C 	C 	0.17300 0.68900 0.62730 -0.04400
H 	H 	0.16130 0.71760 0.61650 0.05700
C 	C 	0.15240 0.66730 0.66470 0.01500
C 	C 	0.16940 0.62550 0.68050 -0.05100
H 	H 	0.15540 0.61070 0.70600 0.06300
C 	C 	0.20720 0.60530 0.65890 -0.02800
C 	C 	0.22780 0.62700 0.62150 -0.02000
H 	H 	0.25350 0.61330 0.60680 0.07000
C 	C 	0.04380 0.74000 0.73910 -0.00400
C 	C 	0.07450 0.76410 0.71130 -0.04100
H 	H 	0.07120 0.79650 0.70760 0.04100
C 	C 	0.10990 0.74090 0.68900 -0.06200
H 	H 	0.13080 0.75730 0.67000 0.05000
C 	C 	0.11460 0.69350 0.69450 0.02000
C 	C 	0.08400 0.66940 0.72230 -0.06100
H 	H 	0.08720 0.63710 0.72610 0.05100
C 	C 	0.04860 0.69270 0.74460 -0.04300
H 	H 	0.02760 0.67620 0.76360 0.03800
O 	O 	0.00030 0.80800 0.75320 0.17200
H 	H 	0.00070 0.81190 0.72160 -0.11900
C 	C 	0.99990 0.75010 0.81130 -0.32600
H 	H 	0.01080 0.71800 0.81760 0.26700
N 	N 	0.03020 0.78380 0.83450 -0.12900
H 	H 	0.05740 0.76970 0.84220 0.08200
C 	C 	0.95060 0.75680 0.83020 0.02800
H 	H 	0.93520 0.72670 0.83480 0.01100
H 	H 	0.93190 0.77550 0.80860 0.03100
C 	C 	0.00650 0.79970 0.87670 -0.00600
H 	H 	0.00680 0.83380 0.87790 0.02700
H 	H 	0.02290 0.78790 0.90420 0.01900
C 	C 	0.95640 0.78200 0.87680 -0.14300
H 	H 	0.93450 0.80820 0.87920 0.06400
H 	H 	0.95110 0.76090 0.90290 0.06200
O 	O 	0.45340 0.26940 0.33040 -0.41400
O 	O 	0.45610 0.21220 0.27640 -0.41800
O 	O 	0.33760 0.26640 0.45240 -0.37100
O 	O 	0.28010 0.21070 0.45010 -0.37300
C 	C 	0.43670 0.23550 0.30830 0.32000
C 	C 	0.31590 0.23190 0.43590 0.29700
C 	C 	0.39430 0.21070 0.33110 -0.03700
C 	C 	0.37270 0.17300 0.31100 -0.04400
H 	H 	0.38350 0.16130 0.28240 0.05700
C 	C 	0.33530 0.15240 0.33270 0.01500
C 	C 	0.31950 0.16940 0.37450 -0.05000
H 	H 	0.29400 0.15540 0.38930 0.06200
C 	C 	0.34110 0.20720 0.39470 -0.02800
C 	C 	0.37850 0.22780 0.37300 -0.02000
H 	H 	0.39320 0.25350 0.38670 0.07000
C 	C 	0.26090 0.04380 0.26000 -0.00400
C 	C 	0.28870 0.07450 0.23590 -0.04100
H 	H 	0.29240 0.07120 0.20350 0.04000
C 	C 	0.31100 0.10990 0.25910 -0.06200
H 	H 	0.33000 0.13080 0.24270 0.04900
C 	C 	0.30550 0.11460 0.30650 0.02000
C 	C 	0.27770 0.08400 0.33060 -0.06100
H 	H 	0.27390 0.08720 0.36290 0.05100
C 	C 	0.25540 0.04860 0.30730 -0.04300
H 	H 	0.23640 0.02760 0.32380 0.03800
O 	O 	0.24680 0.00030 0.19200 0.17200
H 	H 	0.27840 0.00070 0.18810 -0.11900
C 	C 	0.18870 0.99990 0.24990 -0.32600
H 	H 	0.18240 0.01080 0.28200 0.26700
N 	N 	0.16550 0.03020 0.21620 -0.12900
H 	H 	0.15780 0.05740 0.23030 0.08100
C 	C 	0.16980 0.95060 0.24320 0.02800
H 	H 	0.16520 0.93520 0.27330 0.01000
H 	H 	0.19140 0.93190 0.22450 0.03100
C 	C 	0.12330 0.00650 0.20030 -0.00500
H 	H 	0.12210 0.00680 0.16620 0.02600
H 	H 	0.09580 0.02290 0.21210 0.01700
C 	C 	0.12320 0.95640 0.21800 -0.14300
H 	H 	0.12080 0.93450 0.19180 0.06300
H 	H 	0.09710 0.95110 0.23910 0.06100
O 	O 	0.45340 0.73060 0.66960 -0.41400
O 	O 	0.45610 0.78780 0.72360 -0.41800
O 	O 	0.33760 0.73360 0.54760 -0.37100
O 	O 	0.28010 0.78930 0.54990 -0.37300
C 	C 	0.43670 0.76450 0.69170 0.32000
C 	C 	0.31590 0.76810 0.56410 0.29700
C 	C 	0.39430 0.78930 0.66890 -0.03700
C 	C 	0.37270 0.82700 0.68900 -0.04400
H 	H 	0.38350 0.83870 0.71760 0.05800
C 	C 	0.33530 0.84760 0.66730 0.01600
C 	C 	0.31950 0.83060 0.62550 -0.05100
H 	H 	0.29400 0.84460 0.61070 0.06300
C 	C 	0.34110 0.79280 0.60530 -0.02800
C 	C 	0.37850 0.77220 0.62700 -0.02000
H 	H 	0.39320 0.74650 0.61330 0.07000
C 	C 	0.26090 0.95620 0.74000 0.00200
C 	C 	0.28870 0.92550 0.76410 -0.04200
H 	H 	0.29240 0.92880 0.79650 0.04300
C 	C 	0.31100 0.89010 0.74090 -0.06000
H 	H 	0.33000 0.86920 0.75730 0.04900
C 	C 	0.30550 0.88540 0.69350 0.02000
C 	C 	0.27770 0.91600 0.66940 -0.05900
H 	H 	0.27390 0.91280 0.63710 0.05100
C 	C 	0.25540 0.95140 0.69270 -0.04500
H 	H 	0.23640 0.97240 0.67620 0.04100
O 	O 	0.24680 0.99970 0.80800 0.18700
H 	H 	0.27840 0.99930 0.81190 -0.17200
C 	C 	0.18870 0.00010 0.75010 -0.33000
H 	H 	0.18240 0.98920 0.71800 0.22100
N 	N 	0.16550 0.96980 0.78380 -0.12500
H 	H 	0.15780 0.94260 0.76970 0.08300
C 	C 	0.16980 0.04940 0.75680 0.03200
H 	H 	0.16520 0.06480 0.72670 0.00800
H 	H 	0.19140 0.06810 0.77550 0.02900
C 	C 	0.12330 0.99350 0.79970 0.00400
H 	H 	0.12210 0.99320 0.83380 0.02700
H 	H 	0.09580 0.97710 0.78790 0.01700
C 	C 	0.12320 0.04360 0.78200 -0.15300
H 	H 	0.12080 0.06550 0.80820 0.06500
H 	H 	0.09710 0.04890 0.76090 0.06300
O 	O 	0.54660 0.73060 0.33040 -0.41400
O 	O 	0.54390 0.78780 0.27640 -0.41800
O 	O 	0.66240 0.73360 0.45240 -0.37100
O 	O 	0.71990 0.78930 0.45010 -0.37300
C 	C 	0.56330 0.76450 0.30830 0.32000
C 	C 	0.68410 0.76810 0.43590 0.29700
C 	C 	0.60570 0.78930 0.33110 -0.03700
C 	C 	0.62730 0.82700 0.31100 -0.04400
H 	H 	0.61650 0.83870 0.28240 0.05800
C 	C 	0.66470 0.84760 0.33270 0.01600
C 	C 	0.68050 0.83060 0.37450 -0.05100
H 	H 	0.70600 0.84460 0.38930 0.06300
C 	C 	0.65890 0.79280 0.39470 -0.02800
C 	C 	0.62150 0.77220 0.37300 -0.02000
H 	H 	0.60680 0.74650 0.38670 0.07000
C 	C 	0.73910 0.95620 0.26000 0.00200
C 	C 	0.71130 0.92550 0.23590 -0.04200
H 	H 	0.70760 0.92880 0.20350 0.04300
C 	C 	0.68900 0.89010 0.25910 -0.06000
H 	H 	0.67000 0.86920 0.24270 0.04900
C 	C 	0.69450 0.88540 0.30650 0.01900
C 	C 	0.72230 0.91600 0.33060 -0.05800
H 	H 	0.72610 0.91280 0.36290 0.05100
C 	C 	0.74460 0.95140 0.30730 -0.04500
H 	H 	0.76360 0.97240 0.32380 0.04100
O 	O 	0.75320 0.99970 0.19200 0.18700
H 	H 	0.72160 0.99930 0.18810 -0.17300
C 	C 	0.81130 0.00010 0.24990 -0.33000
H 	H 	0.81760 0.98920 0.28200 0.22100
N 	N 	0.83450 0.96980 0.21620 -0.12500
H 	H 	0.84220 0.94260 0.23030 0.08300
C 	C 	0.83020 0.04940 0.24320 0.03200
H 	H 	0.83480 0.06480 0.27330 0.00800
H 	H 	0.80860 0.06810 0.22450 0.02900
C 	C 	0.87670 0.99350 0.20030 0.00400
H 	H 	0.87790 0.99320 0.16620 0.02700
H 	H 	0.90420 0.97710 0.21210 0.01800
C 	C 	0.87680 0.04360 0.21800 -0.15300
H 	H 	0.87920 0.06550 0.19180 0.06600
H 	H 	0.90290 0.04890 0.23910 0.06400
O 	O 	0.54660 0.26940 0.66960 -0.41400
O 	O 	0.54390 0.21220 0.72360 -0.41800
O 	O 	0.66240 0.26640 0.54760 -0.37100
O 	O 	0.71990 0.21070 0.54990 -0.37300
C 	C 	0.56330 0.23550 0.69170 0.32000
C 	C 	0.68410 0.23190 0.56410 0.29700
C 	C 	0.60570 0.21070 0.66890 -0.03700
C 	C 	0.62730 0.17300 0.68900 -0.04400
H 	H 	0.61650 0.16130 0.71760 0.05700
C 	C 	0.66470 0.15240 0.66730 0.01500
C 	C 	0.68050 0.16940 0.62550 -0.05100
H 	H 	0.70600 0.15540 0.61070 0.06300
C 	C 	0.65890 0.20720 0.60530 -0.02800
C 	C 	0.62150 0.22780 0.62700 -0.02000
H 	H 	0.60680 0.25350 0.61330 0.07000
C 	C 	0.73910 0.04380 0.74000 -0.00400
C 	C 	0.71130 0.07450 0.76410 -0.04100
H 	H 	0.70760 0.07120 0.79650 0.04100
C 	C 	0.68900 0.10990 0.74090 -0.06200
H 	H 	0.67000 0.13080 0.75730 0.05000
C 	C 	0.69450 0.11460 0.69350 0.02000
C 	C 	0.72230 0.08400 0.66940 -0.06100
H 	H 	0.72610 0.08720 0.63710 0.05100
C 	C 	0.74460 0.04860 0.69270 -0.04300
H 	H 	0.76360 0.02760 0.67620 0.03800
O 	O 	0.75320 0.00030 0.80800 0.17200
H 	H 	0.72160 0.00070 0.81190 -0.11900
C 	C 	0.81130 0.99990 0.75010 -0.32600
H 	H 	0.81760 0.01080 0.71800 0.26700
N 	N 	0.83450 0.03020 0.78380 -0.12900
H 	H 	0.84220 0.05740 0.76970 0.08200
C 	C 	0.83020 0.95060 0.75680 0.02800
H 	H 	0.83480 0.93520 0.72670 0.01100
H 	H 	0.80860 0.93190 0.77550 0.03100
C 	C 	0.87670 0.00650 0.79970 -0.00600
H 	H 	0.87790 0.00680 0.83380 0.02700
H 	H 	0.90420 0.02290 0.78790 0.01900
C 	C 	0.87680 0.95640 0.78200 -0.14300
H 	H 	0.87920 0.93450 0.80820 0.06400
H 	H 	0.90290 0.95110 0.76090 0.06200
O 	O 	0.33040 0.45340 0.26940 -0.41400
O 	O 	0.27640 0.45610 0.21220 -0.41800
O 	O 	0.45240 0.33760 0.26640 -0.37100
O 	O 	0.45010 0.28010 0.21070 -0.37300
C 	C 	0.30830 0.43670 0.23550 0.32000
C 	C 	0.43590 0.31590 0.23190 0.29700
C 	C 	0.33110 0.39430 0.21070 -0.03700
C 	C 	0.31100 0.37270 0.17300 -0.04400
H 	H 	0.28240 0.38350 0.16130 0.05700
C 	C 	0.33270 0.33530 0.15240 0.01500
C 	C 	0.37450 0.31950 0.16940 -0.05000
H 	H 	0.38930 0.29400 0.15540 0.06200
C 	C 	0.39470 0.34110 0.20720 -0.02800
C 	C 	0.37300 0.37850 0.22780 -0.02000
H 	H 	0.38670 0.39320 0.25350 0.07000
C 	C 	0.26000 0.26090 0.04380 -0.00400
C 	C 	0.23590 0.28870 0.07450 -0.04100
H 	H 	0.20350 0.29240 0.07120 0.04000
C 	C 	0.25910 0.31100 0.10990 -0.06200
H 	H 	0.24270 0.33000 0.13080 0.04900
C 	C 	0.30650 0.30550 0.11460 0.02000
C 	C 	0.33060 0.27770 0.08400 -0.06100
H 	H 	0.36290 0.27390 0.08720 0.05100
C 	C 	0.30730 0.25540 0.04860 -0.04300
H 	H 	0.32380 0.23640 0.02760 0.03800
O 	O 	0.19200 0.24680 0.00030 0.17200
H 	H 	0.18810 0.27840 0.00070 -0.11900
C 	C 	0.24990 0.18870 0.99990 -0.32600
H 	H 	0.28200 0.18240 0.01080 0.26700
N 	N 	0.21620 0.16550 0.03020 -0.12900
H 	H 	0.23030 0.15780 0.05740 0.08100
C 	C 	0.24320 0.16980 0.95060 0.02800
H 	H 	0.27330 0.16520 0.93520 0.01000
H 	H 	0.22450 0.19140 0.93190 0.03100
C 	C 	0.20030 0.12330 0.00650 -0.00500
H 	H 	0.16620 0.12210 0.00680 0.02600
H 	H 	0.21210 0.09580 0.02290 0.01700
C 	C 	0.21800 0.12320 0.95640 -0.14300
H 	H 	0.19180 0.12080 0.93450 0.06300
H 	H 	0.23910 0.09710 0.95110 0.06100
O 	O 	0.66960 0.45340 0.73060 -0.41400
O 	O 	0.72360 0.45610 0.78780 -0.41800
O 	O 	0.54760 0.33760 0.73360 -0.37100
O 	O 	0.54990 0.28010 0.78930 -0.37300
C 	C 	0.69170 0.43670 0.76450 0.32000
C 	C 	0.56410 0.31590 0.76810 0.29700
C 	C 	0.66890 0.39430 0.78930 -0.03700
C 	C 	0.68900 0.37270 0.82700 -0.04400
H 	H 	0.71760 0.38350 0.83870 0.05800
C 	C 	0.66730 0.33530 0.84760 0.01600
C 	C 	0.62550 0.31950 0.83060 -0.05100
H 	H 	0.61070 0.29400 0.84460 0.06300
C 	C 	0.60530 0.34110 0.79280 -0.02800
C 	C 	0.62700 0.37850 0.77220 -0.02000
H 	H 	0.61330 0.39320 0.74650 0.07000
C 	C 	0.74000 0.26090 0.95620 0.00200
C 	C 	0.76410 0.28870 0.92550 -0.04200
H 	H 	0.79650 0.29240 0.92880 0.04300
C 	C 	0.74090 0.31100 0.89010 -0.06000
H 	H 	0.75730 0.33000 0.86920 0.04900
C 	C 	0.69350 0.30550 0.88540 0.02000
C 	C 	0.66940 0.27770 0.91600 -0.05900
H 	H 	0.63710 0.27390 0.91280 0.05100
C 	C 	0.69270 0.25540 0.95140 -0.04500
H 	H 	0.67620 0.23640 0.97240 0.04100
O 	O 	0.80800 0.24680 0.99970 0.18700
H 	H 	0.81190 0.27840 0.99930 -0.17200
C 	C 	0.75010 0.18870 0.00010 -0.33000
H 	H 	0.71800 0.18240 0.98920 0.22100
N 	N 	0.78380 0.16550 0.96980 -0.12500
H 	H 	0.76970 0.15780 0.94260 0.08300
C 	C 	0.75680 0.16980 0.04940 0.03200
H 	H 	0.72670 0.16520 0.06480 0.00800
H 	H 	0.77550 0.19140 0.06810 0.02900
C 	C 	0.79970 0.12330 0.99350 0.00400
H 	H 	0.83380 0.12210 0.99320 0.02700
H 	H 	0.78790 0.09580 0.97710 0.01700
C 	C 	0.78200 0.12320 0.04360 -0.15300
H 	H 	0.80820 0.12080 0.06550 0.06500
H 	H 	0.76090 0.09710 0.04890 0.06300
O 	O 	0.33040 0.54660 0.73060 -0.41400
O 	O 	0.27640 0.54390 0.78780 -0.41800
O 	O 	0.45240 0.66240 0.73360 -0.37100
O 	O 	0.45010 0.71990 0.78930 -0.37300
C 	C 	0.30830 0.56330 0.76450 0.32000
C 	C 	0.43590 0.68410 0.76810 0.29700
C 	C 	0.33110 0.60570 0.78930 -0.03700
C 	C 	0.31100 0.62730 0.82700 -0.04400
H 	H 	0.28240 0.61650 0.83870 0.05800
C 	C 	0.33270 0.66470 0.84760 0.01600
C 	C 	0.37450 0.68050 0.83060 -0.05100
H 	H 	0.38930 0.70600 0.84460 0.06300
C 	C 	0.39470 0.65890 0.79280 -0.02800
C 	C 	0.37300 0.62150 0.77220 -0.02000
H 	H 	0.38670 0.60680 0.74650 0.07000
C 	C 	0.26000 0.73910 0.95620 0.00200
C 	C 	0.23590 0.71130 0.92550 -0.04200
H 	H 	0.20350 0.70760 0.92880 0.04300
C 	C 	0.25910 0.68900 0.89010 -0.06000
H 	H 	0.24270 0.67000 0.86920 0.04900
C 	C 	0.30650 0.69450 0.88540 0.01900
C 	C 	0.33060 0.72230 0.91600 -0.05800
H 	H 	0.36290 0.72610 0.91280 0.05100
C 	C 	0.30730 0.74460 0.95140 -0.04500
H 	H 	0.32380 0.76360 0.97240 0.04100
O 	O 	0.19200 0.75320 0.99970 0.18700
H 	H 	0.18810 0.72160 0.99930 -0.17300
C 	C 	0.24990 0.81130 0.00010 -0.33000
H 	H 	0.28200 0.81760 0.98920 0.22100
N 	N 	0.21620 0.83450 0.96980 -0.12500
H 	H 	0.23030 0.84220 0.94260 0.08300
C 	C 	0.24320 0.83020 0.04940 0.03200
H 	H 	0.27330 0.83480 0.06480 0.00800
H 	H 	0.22450 0.80860 0.06810 0.02900
C 	C 	0.20030 0.87670 0.99350 0.00400
H 	H 	0.16620 0.87790 0.99320 0.02700
H 	H 	0.21210 0.90420 0.97710 0.01800
C 	C 	0.21800 0.87680 0.04360 -0.15300
H 	H 	0.19180 0.87920 0.06550 0.06600
H 	H 	0.23910 0.90290 0.04890 0.06400
O 	O 	0.66960 0.54660 0.26940 -0.41400
O 	O 	0.72360 0.54390 0.21220 -0.41800
O 	O 	0.54760 0.66240 0.26640 -0.37100
O 	O 	0.54990 0.71990 0.21070 -0.37300
C 	C 	0.69170 0.56330 0.23550 0.32000
C 	C 	0.56410 0.68410 0.23190 0.29700
C 	C 	0.66890 0.60570 0.21070 -0.03700
C 	C 	0.68900 0.62730 0.17300 -0.04400
H 	H 	0.71760 0.61650 0.16130 0.05700
C 	C 	0.66730 0.66470 0.15240 0.01500
C 	C 	0.62550 0.68050 0.16940 -0.05100
H 	H 	0.61070 0.70600 0.15540 0.06300
C 	C 	0.60530 0.65890 0.20720 -0.02800
C 	C 	0.62700 0.62150 0.22780 -0.02000
H 	H 	0.61330 0.60680 0.25350 0.07000
C 	C 	0.74000 0.73910 0.04380 -0.00400
C 	C 	0.76410 0.71130 0.07450 -0.04100
H 	H 	0.79650 0.70760 0.07120 0.04100
C 	C 	0.74090 0.68900 0.10990 -0.06200
H 	H 	0.75730 0.67000 0.13080 0.05000
C 	C 	0.69350 0.69450 0.11460 0.02000
C 	C 	0.66940 0.72230 0.08400 -0.06100
H 	H 	0.63710 0.72610 0.08720 0.05100
C 	C 	0.69270 0.74460 0.04860 -0.04300
H 	H 	0.67620 0.76360 0.02760 0.03800
O 	O 	0.80800 0.75320 0.00030 0.17200
H 	H 	0.81190 0.72160 0.00070 -0.11900
C 	C 	0.75010 0.81130 0.99990 -0.32600
H 	H 	0.71800 0.81760 0.01080 0.26700
N 	N 	0.78380 0.83450 0.03020 -0.12900
H 	H 	0.76970 0.84220 0.05740 0.08200
C 	C 	0.75680 0.83020 0.95060 0.02800
H 	H 	0.72670 0.83480 0.93520 0.01100
H 	H 	0.77550 0.80860 0.93190 0.03100
C 	C 	0.79970 0.87670 0.00650 -0.00600
H 	H 	0.83380 0.87790 0.00680 0.02700
H 	H 	0.78790 0.90420 0.02290 0.01900
C 	C 	0.78200 0.87680 0.95640 -0.14300
H 	H 	0.80820 0.87920 0.93450 0.06400
H 	H 	0.76090 0.90290 0.95110 0.06200
O 	O 	0.33040 0.26940 0.54660 -0.41400
O 	O 	0.27640 0.21220 0.54390 -0.41800
O 	O 	0.45240 0.26640 0.66240 -0.37100
O 	O 	0.45010 0.21070 0.71990 -0.37300
C 	C 	0.30830 0.23550 0.56330 0.32000
C 	C 	0.43590 0.23190 0.68410 0.29700
C 	C 	0.33110 0.21070 0.60570 -0.03700
C 	C 	0.31100 0.17300 0.62730 -0.04400
H 	H 	0.28240 0.16130 0.61650 0.05700
C 	C 	0.33270 0.15240 0.66470 0.01500
C 	C 	0.37450 0.16940 0.68050 -0.05000
H 	H 	0.38930 0.15540 0.70600 0.06300
C 	C 	0.39470 0.20720 0.65890 -0.02800
C 	C 	0.37300 0.22780 0.62150 -0.02000
H 	H 	0.38670 0.25350 0.60680 0.07000
C 	C 	0.26000 0.04380 0.73910 -0.00400
C 	C 	0.23590 0.07450 0.71130 -0.04100
H 	H 	0.20350 0.07120 0.70760 0.04000
C 	C 	0.25910 0.10990 0.68900 -0.06200
H 	H 	0.24270 0.13080 0.67000 0.04900
C 	C 	0.30650 0.11460 0.69450 0.02000
C 	C 	0.33060 0.08400 0.72230 -0.06100
H 	H 	0.36290 0.08720 0.72610 0.05100
C 	C 	0.30730 0.04860 0.74460 -0.04300
H 	H 	0.32380 0.02760 0.76360 0.03800
O 	O 	0.19200 0.00030 0.75320 0.17200
H 	H 	0.18810 0.00070 0.72160 -0.11900
C 	C 	0.24990 0.99990 0.81130 -0.32600
H 	H 	0.28200 0.01080 0.81760 0.26700
N 	N 	0.21620 0.03020 0.83450 -0.12900
H 	H 	0.23030 0.05740 0.84220 0.08200
C 	C 	0.24320 0.95060 0.83020 0.02800
H 	H 	0.27330 0.93520 0.83480 0.01100
H 	H 	0.22450 0.93190 0.80860 0.03100
C 	C 	0.20030 0.00650 0.87670 -0.00600
H 	H 	0.16620 0.00680 0.87790 0.02700
H 	H 	0.21210 0.02290 0.90420 0.01800
C 	C 	0.21800 0.95640 0.87680 -0.14300
H 	H 	0.19180 0.93450 0.87920 0.06400
H 	H 	0.23910 0.95110 0.90290 0.06200
O 	O 	0.66960 0.73060 0.54660 -0.41400
O 	O 	0.72360 0.78780 0.54390 -0.41800
O 	O 	0.54760 0.73360 0.66240 -0.37100
O 	O 	0.54990 0.78930 0.71990 -0.37300
C 	C 	0.69170 0.76450 0.56330 0.32000
C 	C 	0.56410 0.76810 0.68410 0.29700
C 	C 	0.66890 0.78930 0.60570 -0.03700
C 	C 	0.68900 0.82700 0.62730 -0.04400
H 	H 	0.71760 0.83870 0.61650 0.05800
C 	C 	0.66730 0.84760 0.66470 0.01600
C 	C 	0.62550 0.83060 0.68050 -0.05100
H 	H 	0.61070 0.84460 0.70600 0.06300
C 	C 	0.60530 0.79280 0.65890 -0.02800
C 	C 	0.62700 0.77220 0.62150 -0.02000
H 	H 	0.61330 0.74650 0.60680 0.07000
C 	C 	0.74000 0.95620 0.73910 0.00200
C 	C 	0.76410 0.92550 0.71130 -0.04200
H 	H 	0.79650 0.92880 0.70760 0.04300
C 	C 	0.74090 0.89010 0.68900 -0.06000
H 	H 	0.75730 0.86920 0.67000 0.04900
C 	C 	0.69350 0.88540 0.69450 0.02000
C 	C 	0.66940 0.91600 0.72230 -0.05800
H 	H 	0.63710 0.91280 0.72610 0.05100
C 	C 	0.69270 0.95140 0.74460 -0.04500
H 	H 	0.67620 0.97240 0.76360 0.04100
O 	O 	0.80800 0.99970 0.75320 0.18700
H 	H 	0.81190 0.99930 0.72160 -0.17200
C 	C 	0.75010 0.00010 0.81130 -0.33000
H 	H 	0.71800 0.98920 0.81760 0.22100
N 	N 	0.78380 0.96980 0.83450 -0.12500
H 	H 	0.76970 0.94260 0.84220 0.08300
C 	C 	0.75680 0.04940 0.83020 0.03200
H 	H 	0.72670 0.06480 0.83480 0.00800
H 	H 	0.77550 0.06810 0.80860 0.02900
C 	C 	0.79970 0.99350 0.87670 0.00300
H 	H 	0.83380 0.99320 0.87790 0.02700
H 	H 	0.78790 0.97710 0.90420 0.01800
C 	C 	0.78200 0.04360 0.87680 -0.15300
H 	H 	0.80820 0.06550 0.87920 0.06600
H 	H 	0.76090 0.04890 0.90290 0.06400
O 	O 	0.33040 0.73060 0.45340 -0.41400
O 	O 	0.27640 0.78780 0.45610 -0.41800
O 	O 	0.45240 0.73360 0.33760 -0.37100
O 	O 	0.45010 0.78930 0.28010 -0.37300
C 	C 	0.30830 0.76450 0.43670 0.32000
C 	C 	0.43590 0.76810 0.31590 0.29700
C 	C 	0.33110 0.78930 0.39430 -0.03700
C 	C 	0.31100 0.82700 0.37270 -0.04400
H 	H 	0.28240 0.83870 0.38350 0.05800
C 	C 	0.33270 0.84760 0.33530 0.01600
C 	C 	0.37450 0.83060 0.31950 -0.05100
H 	H 	0.38930 0.84460 0.29400 0.06300
C 	C 	0.39470 0.79280 0.34110 -0.02800
C 	C 	0.37300 0.77220 0.37850 -0.02000
H 	H 	0.38670 0.74650 0.39320 0.07000
C 	C 	0.26000 0.95620 0.26090 0.00200
C 	C 	0.23590 0.92550 0.28870 -0.04200
H 	H 	0.20350 0.92880 0.29240 0.04300
C 	C 	0.25910 0.89010 0.31100 -0.06000
H 	H 	0.24270 0.86920 0.33000 0.04900
C 	C 	0.30650 0.88540 0.30550 0.01900
C 	C 	0.33060 0.91600 0.27770 -0.05900
H 	H 	0.36290 0.91280 0.27390 0.05100
C 	C 	0.30730 0.95140 0.25540 -0.04500
H 	H 	0.32380 0.97240 0.23640 0.04100
O 	O 	0.19200 0.99970 0.24680 0.18700
H 	H 	0.18810 0.99930 0.27840 -0.17300
C 	C 	0.24990 0.00010 0.18870 -0.33000
H 	H 	0.28200 0.98920 0.18240 0.22100
N 	N 	0.21620 0.96980 0.16550 -0.12500
H 	H 	0.23030 0.94260 0.15780 0.08300
C 	C 	0.24320 0.04940 0.16980 0.03200
H 	H 	0.27330 0.06480 0.16520 0.00800
H 	H 	0.22450 0.06810 0.19140 0.02900
C 	C 	0.20030 0.99350 0.12330 0.00400
H 	H 	0.16620 0.99320 0.12210 0.02600
H 	H 	0.21210 0.97710 0.09580 0.01700
C 	C 	0.21800 0.04360 0.12320 -0.15300
H 	H 	0.19180 0.06550 0.12080 0.06500
H 	H 	0.23910 0.04890 0.09710 0.06300
O 	O 	0.66960 0.26940 0.45340 -0.41400
O 	O 	0.72360 0.21220 0.45610 -0.41800
O 	O 	0.54760 0.26640 0.33760 -0.37100
O 	O 	0.54990 0.21070 0.28010 -0.37300
C 	C 	0.69170 0.23550 0.43670 0.32000
C 	C 	0.56410 0.23190 0.31590 0.29700
C 	C 	0.66890 0.21070 0.39430 -0.03700
C 	C 	0.68900 0.17300 0.37270 -0.04400
H 	H 	0.71760 0.16130 0.38350 0.05700
C 	C 	0.66730 0.15240 0.33530 0.01500
C 	C 	0.62550 0.16940 0.31950 -0.05000
H 	H 	0.61070 0.15540 0.29400 0.06200
C 	C 	0.60530 0.20720 0.34110 -0.02800
C 	C 	0.62700 0.22780 0.37850 -0.02000
H 	H 	0.61330 0.25350 0.39320 0.07000
C 	C 	0.74000 0.04380 0.26090 -0.00400
C 	C 	0.76410 0.07450 0.28870 -0.04100
H 	H 	0.79650 0.07120 0.29240 0.04100
C 	C 	0.74090 0.10990 0.31100 -0.06200
H 	H 	0.75730 0.13080 0.33000 0.05000
C 	C 	0.69350 0.11460 0.30550 0.02000
C 	C 	0.66940 0.08400 0.27770 -0.06100
H 	H 	0.63710 0.08720 0.27390 0.05100
C 	C 	0.69270 0.04860 0.25540 -0.04300
H 	H 	0.67620 0.02760 0.23640 0.03800
O 	O 	0.80800 0.00030 0.24680 0.17200
H 	H 	0.81190 0.00070 0.27840 -0.11900
C 	C 	0.75010 0.99990 0.18870 -0.32600
H 	H 	0.71800 0.01080 0.18240 0.26700
N 	N 	0.78380 0.03020 0.16550 -0.12900
H 	H 	0.76970 0.05740 0.15780 0.08200
C 	C 	0.75680 0.95060 0.16980 0.02800
H 	H 	0.72670 0.93520 0.16520 0.01000
H 	H 	0.77550 0.93190 0.19140 0.03100
C 	C 	0.79970 0.00650 0.12330 -0.00600
H 	H 	0.83380 0.00680 0.12210 0.02700
H 	H 	0.78790 0.02290 0.09580 0.01800
C 	C 	0.78200 0.95640 0.12320 -0.14300
H 	H 	0.80820 0.93450 0.12080 0.06300
H 	H 	0.76090 0.95110 0.09710 0.06100
O 	O 	0.26940 0.45340 0.66960 -0.41400
O 	O 	0.21220 0.45610 0.72360 -0.41800
O 	O 	0.26640 0.33760 0.54760 -0.37100
O 	O 	0.21070 0.28010 0.54990 -0.37300
C 	C 	0.23550 0.43670 0.69170 0.32000
C 	C 	0.23190 0.31590 0.56410 0.29700
C 	C 	0.21070 0.39430 0.66890 -0.03700
C 	C 	0.17300 0.37270 0.68900 -0.04400
H 	H 	0.16130 0.38350 0.71760 0.05700
C 	C 	0.15240 0.33530 0.66730 0.01500
C 	C 	0.16940 0.31950 0.62550 -0.05000
H 	H 	0.15540 0.29400 0.61070 0.06200
C 	C 	0.20720 0.34110 0.60530 -0.02800
C 	C 	0.22780 0.37850 0.62700 -0.02000
H 	H 	0.25350 0.39320 0.61330 0.07000
C 	C 	0.04380 0.26090 0.74000 -0.00400
C 	C 	0.07450 0.28870 0.76410 -0.04100
H 	H 	0.07120 0.29240 0.79650 0.04100
C 	C 	0.10990 0.31100 0.74090 -0.06200
H 	H 	0.13080 0.33000 0.75730 0.05000
C 	C 	0.11460 0.30550 0.69350 0.02000
C 	C 	0.08400 0.27770 0.66940 -0.06100
H 	H 	0.08720 0.27390 0.63710 0.05100
C 	C 	0.04860 0.25540 0.69270 -0.04300
H 	H 	0.02760 0.23640 0.67620 0.03800
O 	O 	0.00030 0.24680 0.80800 0.17200
H 	H 	0.00070 0.27840 0.81190 -0.11900
C 	C 	0.99990 0.18870 0.75010 -0.32600
H 	H 	0.01080 0.18240 0.71800 0.26700
N 	N 	0.03020 0.16550 0.78380 -0.12900
H 	H 	0.05740 0.15780 0.76970 0.08200
C 	C 	0.95060 0.16980 0.75680 0.02800
H 	H 	0.93520 0.16520 0.72670 0.01000
H 	H 	0.93190 0.19140 0.77550 0.03100
C 	C 	0.00650 0.12330 0.79970 -0.00600
H 	H 	0.00680 0.12210 0.83380 0.02700
H 	H 	0.02290 0.09580 0.78790 0.01800
C 	C 	0.95640 0.12320 0.78200 -0.14300
H 	H 	0.93450 0.12080 0.80820 0.06300
H 	H 	0.95110 0.09710 0.76090 0.06100
O 	O 	0.73060 0.45340 0.33040 -0.41400
O 	O 	0.78780 0.45610 0.27640 -0.41800
O 	O 	0.73360 0.33760 0.45240 -0.37100
O 	O 	0.78930 0.28010 0.45010 -0.37300
C 	C 	0.76450 0.43670 0.30830 0.32000
C 	C 	0.76810 0.31590 0.43590 0.29700
C 	C 	0.78930 0.39430 0.33110 -0.03700
C 	C 	0.82700 0.37270 0.31100 -0.04400
H 	H 	0.83870 0.38350 0.28240 0.05800
C 	C 	0.84760 0.33530 0.33270 0.01600
C 	C 	0.83060 0.31950 0.37450 -0.05100
H 	H 	0.84460 0.29400 0.38930 0.06300
C 	C 	0.79280 0.34110 0.39470 -0.02800
C 	C 	0.77220 0.37850 0.37300 -0.02000
H 	H 	0.74650 0.39320 0.38670 0.07000
C 	C 	0.95620 0.26090 0.26000 0.00200
C 	C 	0.92550 0.28870 0.23590 -0.04200
H 	H 	0.92880 0.29240 0.20350 0.04300
C 	C 	0.89010 0.31100 0.25910 -0.06000
H 	H 	0.86920 0.33000 0.24270 0.04900
C 	C 	0.88540 0.30550 0.30650 0.01900
C 	C 	0.91600 0.27770 0.33060 -0.05900
H 	H 	0.91280 0.27390 0.36290 0.05100
C 	C 	0.95140 0.25540 0.30730 -0.04500
H 	H 	0.97240 0.23640 0.32380 0.04100
O 	O 	0.99970 0.24680 0.19200 0.18700
H 	H 	0.99930 0.27840 0.18810 -0.17300
C 	C 	0.00010 0.18870 0.24990 -0.33000
H 	H 	0.98920 0.18240 0.28200 0.22100
N 	N 	0.96980 0.16550 0.21620 -0.12500
H 	H 	0.94260 0.15780 0.23030 0.08300
C 	C 	0.04940 0.16980 0.24320 0.03200
H 	H 	0.06480 0.16520 0.27330 0.00800
H 	H 	0.06810 0.19140 0.22450 0.02900
C 	C 	0.99350 0.12330 0.20030 0.00400
H 	H 	0.99320 0.12210 0.16620 0.02600
H 	H 	0.97710 0.09580 0.21210 0.01700
C 	C 	0.04360 0.12320 0.21800 -0.15300
H 	H 	0.06550 0.12080 0.19180 0.06500
H 	H 	0.04890 0.09710 0.23910 0.06300
O 	O 	0.73060 0.54660 0.66960 -0.41400
O 	O 	0.78780 0.54390 0.72360 -0.41800
O 	O 	0.73360 0.66240 0.54760 -0.37100
O 	O 	0.78930 0.71990 0.54990 -0.37300
C 	C 	0.76450 0.56330 0.69170 0.32000
C 	C 	0.76810 0.68410 0.56410 0.29700
C 	C 	0.78930 0.60570 0.66890 -0.03700
C 	C 	0.82700 0.62730 0.68900 -0.04400
H 	H 	0.83870 0.61650 0.71760 0.05800
C 	C 	0.84760 0.66470 0.66730 0.01600
C 	C 	0.83060 0.68050 0.62550 -0.05100
H 	H 	0.84460 0.70600 0.61070 0.06300
C 	C 	0.79280 0.65890 0.60530 -0.02800
C 	C 	0.77220 0.62150 0.62700 -0.02000
H 	H 	0.74650 0.60680 0.61330 0.07000
C 	C 	0.95620 0.73910 0.74000 0.00200
C 	C 	0.92550 0.71130 0.76410 -0.04200
H 	H 	0.92880 0.70760 0.79650 0.04300
C 	C 	0.89010 0.68900 0.74090 -0.06000
H 	H 	0.86920 0.67000 0.75730 0.04900
C 	C 	0.88540 0.69450 0.69350 0.02000
C 	C 	0.91600 0.72230 0.66940 -0.05800
H 	H 	0.91280 0.72610 0.63710 0.05100
C 	C 	0.95140 0.74460 0.69270 -0.04500
H 	H 	0.97240 0.76360 0.67620 0.04100
O 	O 	0.99970 0.75320 0.80800 0.18700
H 	H 	0.99930 0.72160 0.81190 -0.17200
C 	C 	0.00010 0.81130 0.75010 -0.33000
H 	H 	0.98920 0.81760 0.71800 0.22100
N 	N 	0.96980 0.83450 0.78380 -0.12500
H 	H 	0.94260 0.84220 0.76970 0.08300
C 	C 	0.04940 0.83020 0.75680 0.03200
H 	H 	0.06480 0.83480 0.72670 0.00800
H 	H 	0.06810 0.80860 0.77550 0.02900
C 	C 	0.99350 0.87670 0.79970 0.00300
H 	H 	0.99320 0.87790 0.83380 0.02700
H 	H 	0.97710 0.90420 0.78790 0.01800
C 	C 	0.04360 0.87680 0.78200 -0.15300
H 	H 	0.06550 0.87920 0.80820 0.06600
H 	H 	0.04890 0.90290 0.76090 0.06400
O 	O 	0.26940 0.54660 0.33040 -0.41400
O 	O 	0.21220 0.54390 0.27640 -0.41800
O 	O 	0.26640 0.66240 0.45240 -0.37100
O 	O 	0.21070 0.71990 0.45010 -0.37300
C 	C 	0.23550 0.56330 0.30830 0.32000
C 	C 	0.23190 0.68410 0.43590 0.29700
C 	C 	0.21070 0.60570 0.33110 -0.03700
C 	C 	0.17300 0.62730 0.31100 -0.04400
H 	H 	0.16130 0.61650 0.28240 0.05700
C 	C 	0.15240 0.66470 0.33270 0.01500
C 	C 	0.16940 0.68050 0.37450 -0.05000
H 	H 	0.15540 0.70600 0.38930 0.06300
C 	C 	0.20720 0.65890 0.39470 -0.02800
C 	C 	0.22780 0.62150 0.37300 -0.02000
H 	H 	0.25350 0.60680 0.38670 0.07000
C 	C 	0.04380 0.73910 0.26000 -0.00400
C 	C 	0.07450 0.71130 0.23590 -0.04100
H 	H 	0.07120 0.70760 0.20350 0.04000
C 	C 	0.10990 0.68900 0.25910 -0.06200
H 	H 	0.13080 0.67000 0.24270 0.04900
C 	C 	0.11460 0.69450 0.30650 0.02000
C 	C 	0.08400 0.72230 0.33060 -0.06100
H 	H 	0.08720 0.72610 0.36290 0.05100
C 	C 	0.04860 0.74460 0.30730 -0.04300
H 	H 	0.02760 0.76360 0.32380 0.03800
O 	O 	0.00030 0.75320 0.19200 0.17200
H 	H 	0.00070 0.72160 0.18810 -0.11900
C 	C 	0.99990 0.81130 0.24990 -0.32600
H 	H 	0.01080 0.81760 0.28200 0.26700
N 	N 	0.03020 0.83450 0.21620 -0.12900
H 	H 	0.05740 0.84220 0.23030 0.08200
C 	C 	0.95060 0.83020 0.24320 0.02800
H 	H 	0.93520 0.83480 0.27330 0.01100
H 	H 	0.93190 0.80860 0.22450 0.03100
C 	C 	0.00650 0.87670 0.20030 -0.00600
H 	H 	0.00680 0.87790 0.16620 0.02700
H 	H 	0.02290 0.90420 0.21210 0.01800
C 	C 	0.95640 0.87680 0.21800 -0.14300
H 	H 	0.93450 0.87920 0.19180 0.06400
H 	H 	0.95110 0.90290 0.23910 0.06200
O 	O 	0.45340 0.33040 0.73060 -0.41400
O 	O 	0.45610 0.27640 0.78780 -0.41800
O 	O 	0.33760 0.45240 0.73360 -0.37100
O 	O 	0.28010 0.45010 0.78930 -0.37300
C 	C 	0.43670 0.30830 0.76450 0.32000
C 	C 	0.31590 0.43590 0.76810 0.29700
C 	C 	0.39430 0.33110 0.78930 -0.03700
C 	C 	0.37270 0.31100 0.82700 -0.04400
H 	H 	0.38350 0.28240 0.83870 0.05800
C 	C 	0.33530 0.33270 0.84760 0.01600
C 	C 	0.31950 0.37450 0.83060 -0.05100
H 	H 	0.29400 0.38930 0.84460 0.06300
C 	C 	0.34110 0.39470 0.79280 -0.02800
C 	C 	0.37850 0.37300 0.77220 -0.02000
H 	H 	0.39320 0.38670 0.74650 0.07000
C 	C 	0.26090 0.26000 0.95620 0.00200
C 	C 	0.28870 0.23590 0.92550 -0.04200
H 	H 	0.29240 0.20350 0.92880 0.04300
C 	C 	0.31100 0.25910 0.89010 -0.06000
H 	H 	0.33000 0.24270 0.86920 0.04900
C 	C 	0.30550 0.30650 0.88540 0.01900
C 	C 	0.27770 0.33060 0.91600 -0.05900
H 	H 	0.27390 0.36290 0.91280 0.05100
C 	C 	0.25540 0.30730 0.95140 -0.04500
H 	H 	0.23640 0.32380 0.97240 0.04100
O 	O 	0.24680 0.19200 0.99970 0.18700
H 	H 	0.27840 0.18810 0.99930 -0.17300
C 	C 	0.18870 0.24990 0.00010 -0.33000
H 	H 	0.18240 0.28200 0.98920 0.22100
N 	N 	0.16550 0.21620 0.96980 -0.12500
H 	H 	0.15780 0.23030 0.94260 0.08300
C 	C 	0.16980 0.24320 0.04940 0.03200
H 	H 	0.16520 0.27330 0.06480 0.00800
H 	H 	0.19140 0.22450 0.06810 0.02900
C 	C 	0.12330 0.20030 0.99350 0.00400
H 	H 	0.12210 0.16620 0.99320 0.02600
H 	H 	0.09580 0.21210 0.97710 0.01700
C 	C 	0.12320 0.21800 0.04360 -0.15300
H 	H 	0.12080 0.19180 0.06550 0.06500
H 	H 	0.09710 0.23910 0.04890 0.06300
O 	O 	0.45340 0.66960 0.26940 -0.41400
O 	O 	0.45610 0.72360 0.21220 -0.41800
O 	O 	0.33760 0.54760 0.26640 -0.37100
O 	O 	0.28010 0.54990 0.21070 -0.37300
C 	C 	0.43670 0.69170 0.23550 0.32000
C 	C 	0.31590 0.56410 0.23190 0.29700
C 	C 	0.39430 0.66890 0.21070 -0.03700
C 	C 	0.37270 0.68900 0.17300 -0.04400
H 	H 	0.38350 0.71760 0.16130 0.05700
C 	C 	0.33530 0.66730 0.15240 0.01500
C 	C 	0.31950 0.62550 0.16940 -0.05000
H 	H 	0.29400 0.61070 0.15540 0.06200
C 	C 	0.34110 0.60530 0.20720 -0.02800
C 	C 	0.37850 0.62700 0.22780 -0.02000
H 	H 	0.39320 0.61330 0.25350 0.07000
C 	C 	0.26090 0.74000 0.04380 -0.00400
C 	C 	0.28870 0.76410 0.07450 -0.04100
H 	H 	0.29240 0.79650 0.07120 0.04100
C 	C 	0.31100 0.74090 0.10990 -0.06200
H 	H 	0.33000 0.75730 0.13080 0.05000
C 	C 	0.30550 0.69350 0.11460 0.02000
C 	C 	0.27770 0.66940 0.08400 -0.06100
H 	H 	0.27390 0.63710 0.08720 0.05100
C 	C 	0.25540 0.69270 0.04860 -0.04300
H 	H 	0.23640 0.67620 0.02760 0.03800
O 	O 	0.24680 0.80800 0.00030 0.17200
H 	H 	0.27840 0.81190 0.00070 -0.11900
C 	C 	0.18870 0.75010 0.99990 -0.32600
H 	H 	0.18240 0.71800 0.01080 0.26700
N 	N 	0.16550 0.78380 0.03020 -0.12900
H 	H 	0.15780 0.76970 0.05740 0.08200
C 	C 	0.16980 0.75680 0.95060 0.02800
H 	H 	0.16520 0.72670 0.93520 0.01000
H 	H 	0.19140 0.77550 0.93190 0.03100
C 	C 	0.12330 0.79970 0.00650 -0.00600
H 	H 	0.12210 0.83380 0.00680 0.02700
H 	H 	0.09580 0.78790 0.02290 0.01800
C 	C 	0.12320 0.78200 0.95640 -0.14300
H 	H 	0.12080 0.80820 0.93450 0.06300
H 	H 	0.09710 0.76090 0.95110 0.06100
O 	O 	0.54660 0.33040 0.26940 -0.41400
O 	O 	0.54390 0.27640 0.21220 -0.41800
O 	O 	0.66240 0.45240 0.26640 -0.37100
O 	O 	0.71990 0.45010 0.21070 -0.37300
C 	C 	0.56330 0.30830 0.23550 0.32000
C 	C 	0.68410 0.43590 0.23190 0.29700
C 	C 	0.60570 0.33110 0.21070 -0.03700
C 	C 	0.62730 0.31100 0.17300 -0.04400
H 	H 	0.61650 0.28240 0.16130 0.05700
C 	C 	0.66470 0.33270 0.15240 0.01500
C 	C 	0.68050 0.37450 0.16940 -0.05000
H 	H 	0.70600 0.38930 0.15540 0.06300
C 	C 	0.65890 0.39470 0.20720 -0.02800
C 	C 	0.62150 0.37300 0.22780 -0.02000
H 	H 	0.60680 0.38670 0.25350 0.07000
C 	C 	0.73910 0.26000 0.04380 -0.00400
C 	C 	0.71130 0.23590 0.07450 -0.04100
H 	H 	0.70760 0.20350 0.07120 0.04000
C 	C 	0.68900 0.25910 0.10990 -0.06200
H 	H 	0.67000 0.24270 0.13080 0.04900
C 	C 	0.69450 0.30650 0.11460 0.02000
C 	C 	0.72230 0.33060 0.08400 -0.06100
H 	H 	0.72610 0.36290 0.08720 0.05100
C 	C 	0.74460 0.30730 0.04860 -0.04300
H 	H 	0.76360 0.32380 0.02760 0.03800
O 	O 	0.75320 0.19200 0.00030 0.17200
H 	H 	0.72160 0.18810 0.00070 -0.11900
C 	C 	0.81130 0.24990 0.99990 -0.32600
H 	H 	0.81760 0.28200 0.01080 0.26700
N 	N 	0.83450 0.21620 0.03020 -0.12900
H 	H 	0.84220 0.23030 0.05740 0.08200
C 	C 	0.83020 0.24320 0.95060 0.02800
H 	H 	0.83480 0.27330 0.93520 0.01100
H 	H 	0.80860 0.22450 0.93190 0.03100
C 	C 	0.87670 0.20030 0.00650 -0.00600
H 	H 	0.87790 0.16620 0.00680 0.02700
H 	H 	0.90420 0.21210 0.02290 0.01800
C 	C 	0.87680 0.21800 0.95640 -0.14300
H 	H 	0.87920 0.19180 0.93450 0.06400
H 	H 	0.90290 0.23910 0.95110 0.06200
O 	O 	0.54660 0.66960 0.73060 -0.41400
O 	O 	0.54390 0.72360 0.78780 -0.41800
O 	O 	0.66240 0.54760 0.73360 -0.37100
O 	O 	0.71990 0.54990 0.78930 -0.37300
C 	C 	0.56330 0.69170 0.76450 0.32000
C 	C 	0.68410 0.56410 0.76810 0.29700
C 	C 	0.60570 0.66890 0.78930 -0.03700
C 	C 	0.62730 0.68900 0.82700 -0.04400
H 	H 	0.61650 0.71760 0.83870 0.05800
C 	C 	0.66470 0.66730 0.84760 0.01600
C 	C 	0.68050 0.62550 0.83060 -0.05100
H 	H 	0.70600 0.61070 0.84460 0.06300
C 	C 	0.65890 0.60530 0.79280 -0.02800
C 	C 	0.62150 0.62700 0.77220 -0.02000
H 	H 	0.60680 0.61330 0.74650 0.07000
C 	C 	0.73910 0.74000 0.95620 0.00200
C 	C 	0.71130 0.76410 0.92550 -0.04200
H 	H 	0.70760 0.79650 0.92880 0.04300
C 	C 	0.68900 0.74090 0.89010 -0.06000
H 	H 	0.67000 0.75730 0.86920 0.04900
C 	C 	0.69450 0.69350 0.88540 0.02000
C 	C 	0.72230 0.66940 0.91600 -0.05800
H 	H 	0.72610 0.63710 0.91280 0.05100
C 	C 	0.74460 0.69270 0.95140 -0.04500
H 	H 	0.76360 0.67620 0.97240 0.04100
O 	O 	0.75320 0.80800 0.99970 0.18700
H 	H 	0.72160 0.81190 0.99930 -0.17200
C 	C 	0.81130 0.75010 0.00010 -0.33000
H 	H 	0.81760 0.71800 0.98920 0.22100
N 	N 	0.83450 0.78380 0.96980 -0.12500
H 	H 	0.84220 0.76970 0.94260 0.08300
C 	C 	0.83020 0.75680 0.04940 0.03200
H 	H 	0.83480 0.72670 0.06480 0.00800
H 	H 	0.80860 0.77550 0.06810 0.02900
C 	C 	0.87670 0.79970 0.99350 0.00300
H 	H 	0.87790 0.83380 0.99320 0.02700
H 	H 	0.90420 0.78790 0.97710 0.01800
C 	C 	0.87680 0.78200 0.04360 -0.15300
H 	H 	0.87920 0.80820 0.06550 0.06600
H 	H 	0.90290 0.76090 0.04890 0.06400
Cu	Cu	0.30548 0.30548 0.50000 0.90900
Cu	Cu	0.24011 0.24011 0.50000 0.90700
Cu	Cu	0.69452 0.69452 0.50000 0.90900
Cu	Cu	0.75989 0.75989 0.50000 0.90700
Cu	Cu	0.69452 0.30548 0.50000 0.90900
Cu	Cu	0.75989 0.24011 0.50000 0.90700
Cu	Cu	0.30548 0.69452 0.50000 0.90900
Cu	Cu	0.24011 0.75989 0.50000 0.90700
Cu	Cu	0.50000 0.30548 0.30548 0.90900
Cu	Cu	0.50000 0.24011 0.24011 0.90700
Cu	Cu	0.50000 0.69452 0.69452 0.90900
Cu	Cu	0.50000 0.75989 0.75989 0.90700
Cu	Cu	0.50000 0.69452 0.30548 0.90900
Cu	Cu	0.50000 0.75989 0.24011 0.90700
Cu	Cu	0.50000 0.30548 0.69452 0.90900
Cu	Cu	0.50000 0.24011 0.75989 0.90700
Cu	Cu	0.30548 0.50000 0.30548 0.90900
Cu	Cu	0.24011 0.50000 0.24011 0.90700
Cu	Cu	0.69452 0.50000 0.69452 0.90900
Cu	Cu	0.75989 0.50000 0.75989 0.90700
Cu	Cu	0.30548 0.50000 0.69452 0.90900
Cu	Cu	0.24011 0.50000 0.75989 0.90700
Cu	Cu	0.69452 0.50000 0.30548 0.90900
Cu	Cu	0.75989 0.50000 0.24011 0.90700
C 	C 	0.00000 0.24060 0.24060 0.06900
C 	C 	-0.00000 0.75940 0.24060 0.06900
C 	C 	-0.00000 0.24060 0.75940 0.06900
C 	C 	0.00000 0.75940 0.75940 0.06900
C 	C 	0.24060 0.00000 0.24060 0.06900
C 	C 	0.24060 -0.00000 0.75940 0.06900
C 	C 	0.75940 0.00000 0.24060 0.06900
C 	C 	0.75940 -0.00000 0.75940 0.06900
C 	C 	0.24060 0.24060 -0.00000 0.06900
C 	C 	0.75940 0.24060 -0.00000 0.06900
C 	C 	0.24060 0.75940 -0.00000 0.06900
C 	C 	0.75940 0.75940 -0.00000 0.06900
