data_crystal

_cell_length_a 15.53720
_cell_length_b 23.94050
_cell_length_c 17.22390
_cell_angle_alpha 90.00000
_cell_angle_beta  104.13600
_cell_angle_gamma 90.00000

_symmetry_space_group_name_	'P 1'
_symmetry_space_group_name_H-M	'P 1'

loop_
_symmetry_equiv_pos_as_xyz
  x,y,z

loop_
_atom_site_label
_atom_site_type_symbol
_atom_site_fract_x
_atom_site_fract_y
_atom_site_fract_z
_atom_site_charge
Zr	Zr	0.05745 0.56148 0.72709 3.17000
Fe	Fe	0.21852 0.52736 0.92768 1.15800
O 	O 	0.29690 0.44877 0.05419 -0.54000
O 	O 	0.15380 0.49761 0.76022 -0.59500
O 	O 	0.39760 0.52171 0.02774 -0.53700
O 	O 	0.15900 0.61080 0.80140 -0.58100
O 	O 	0.28210 0.54545 0.09830 -0.53300
O 	O 	0.03290 0.54226 0.83901 -0.60500
N 	N 	0.24930 0.45595 0.97540 -0.18200
N 	N 	0.19220 0.48012 0.83560 -0.18300
N 	N 	0.34170 0.54339 0.95970 -0.18400
N 	N 	0.22640 0.58928 0.85890 -0.18300
N 	N 	0.21270 0.55117 0.03160 -0.18300
N 	N 	0.09390 0.54296 0.91020 -0.17800
N 	N 	0.00890 0.49083 0.63680 -0.41100
N 	N 	0.12850 0.57881 0.62830 -0.41600
N 	N 	0.02270 0.65271 0.69710 -0.41600
N 	N 	0.90790 0.56445 0.71100 -0.41300
C 	C 	0.23960 0.41236 0.92900 0.06000
C 	C 	0.20090 0.42630 0.84720 0.03300
C 	C 	0.17530 0.38344 0.78260 -0.13700
H 	H 	0.18810 0.39780 0.73260 0.08400
H 	H 	0.11080 0.37600 0.77200 0.06500
C 	C 	0.22700 0.32910 0.80760 -0.07400
H 	H 	0.20080 0.29900 0.76960 0.04800
H 	H 	0.28930 0.33440 0.80460 0.04500
C 	C 	0.22560 0.31121 0.89210 -0.06000
H 	H 	0.25660 0.27490 0.90420 0.03700
H 	H 	0.16330 0.30590 0.89520 0.04400
C 	C 	0.27030 0.35435 0.95500 -0.15200
H 	H 	0.25590 0.34590 0.00670 0.08900
H 	H 	0.33560 0.35200 0.96310 0.07300
C 	C 	0.37350 0.58429 0.92500 0.05900
C 	C 	0.30610 0.60954 0.86310 0.03300
C 	C 	0.32580 0.65640 0.81230 -0.13600
H 	H 	0.27490 0.68260 0.79970 0.08100
H 	H 	0.33450 0.64130 0.76130 0.06600
C 	C 	0.40890 0.68750 0.85610 -0.07400
H 	H 	0.42620 0.71450 0.81910 0.03800
H 	H 	0.39620 0.70860 0.90140 0.04700
C 	C 	0.48520 0.64740 0.88750 -0.05400
H 	H 	0.53940 0.66910 0.91180 0.03300
H 	H 	0.49690 0.62570 0.84230 0.02600
C 	C 	0.46530 0.60700 0.95010 -0.15700
H 	H 	0.50830 0.57580 0.95830 0.08200
H 	H 	0.47260 0.62690 0.00180 0.07700
C 	C 	0.13670 0.56660 0.04330 0.07400
C 	C 	0.06750 0.56457 0.97080 0.03200
C 	C 	0.97600 0.58570 0.96730 -0.12800
H 	H 	0.93520 0.55370 0.96530 0.07900
H 	H 	0.95460 0.60810 0.91810 0.07600
C 	C 	0.97580 0.62140 0.04030 -0.07600
H 	H 	0.00580 0.65740 0.03590 0.05000
H 	H 	0.91380 0.62960 0.04170 0.04900
C 	C 	0.02270 0.59240 0.11750 -0.05500
H 	H 	0.99470 0.55560 0.12070 0.04600
H 	H 	0.01590 0.61510 0.16370 0.03000
C 	C 	0.12130 0.58420 0.12230 -0.16000
H 	H 	0.15330 0.61960 0.13930 0.09000
H 	H 	0.14560 0.55550 0.16300 0.09200
C 	C 	0.41460 0.48860 0.16970 -1.15200
H 	H 	0.38610 0.46200 0.19970 0.34400
H 	H 	0.46720 0.46980 0.15890 0.34600
C 	C 	0.44620 0.53920 0.22340 0.45000
H 	H 	0.39420 0.55690 0.23690 -0.10100
H 	H 	0.48630 0.52610 0.27390 -0.10900
C 	C 	0.49440 0.58300 0.18640 -0.28800
H 	H 	0.51370 0.61350 0.22560 0.10300
H 	H 	0.45240 0.59920 0.13910 0.11400
C 	C 	0.57490 0.56090 0.16080 -0.17000
H 	H 	0.55550 0.53560 0.11530 0.08700
H 	H 	0.61350 0.54080 0.20560 0.07100
H 	H 	0.60770 0.59220 0.14520 0.07300
C 	C 	0.93480 0.45690 0.63130 0.08800
C 	C 	0.94550 0.40690 0.58760 -0.07700
H 	H 	0.90350 0.37750 0.57340 0.05800
C 	C 	0.02530 0.40920 0.57030 -0.08300
H 	H 	0.05100 0.38120 0.54400 0.04800
C 	C 	0.06410 0.46168 0.59920 0.09300
C 	C 	0.14530 0.48144 0.58840 -0.15300
C 	C 	0.17220 0.53720 0.59840 0.08700
C 	C 	0.24120 0.56100 0.56700 -0.07000
H 	H 	0.28280 0.54100 0.54540 0.05800
C 	C 	0.23660 0.61720 0.57380 -0.08600
H 	H 	0.27310 0.64400 0.55680 0.06200
C 	C 	0.16540 0.62849 0.61200 0.10100
C 	C 	0.13790 0.68156 0.62750 -0.16800
C 	C 	0.07200 0.69267 0.66820 0.10500
C 	C 	0.04600 0.74760 0.68750 -0.09300
H 	H 	0.06800 0.78210 0.67290 0.05800
C 	C 	0.98430 0.74100 0.73020 -0.06400
H 	H 	0.95640 0.77000 0.75280 0.04900
C 	C 	0.96850 0.68233 0.73510 0.07700
C 	C 	0.90330 0.65859 0.76920 -0.17100
C 	C 	0.87340 0.60330 0.75530 0.07500
C 	C 	0.79940 0.57930 0.78020 -0.07000
H 	H 	0.76640 0.59650 0.81330 0.05200
C 	C 	0.78590 0.52770 0.74760 -0.08400
H 	H 	0.74040 0.50240 0.75230 0.05800
C 	C 	0.85310 0.51800 0.70430 0.08900
C 	C 	0.86300 0.46850 0.66380 -0.16800
C 	C 	0.79070 0.42546 0.65360 0.12600
C 	C 	0.81030 0.37027 0.67620 -0.15300
H 	H 	0.86960 0.35970 0.70060 0.07600
C 	C 	0.74300 0.33057 0.66300 0.04800
H 	H 	0.75640 0.29280 0.67850 0.00800
C 	C 	0.65610 0.34606 0.62730 -0.11800
H 	H 	0.61010 0.31890 0.61830 0.06000
C 	C 	0.63650 0.40125 0.60470 0.04700
H 	H 	0.57720 0.41180 0.58030 0.00900
C 	C 	0.70380 0.44095 0.61780 -0.15000
H 	H 	0.69040 0.47870 0.60240 0.08200
C 	C 	0.20620 0.44219 0.55856 0.09900
C 	C 	0.28860 0.43056 0.60936 -0.13300
H 	H 	0.30380 0.44580 0.66190 0.07400
C 	C 	0.34855 0.39669 0.58330 0.02500
H 	H 	0.40480 0.38870 0.61800 0.01300
C 	C 	0.32620 0.37446 0.50640 -0.09700
H 	H 	0.36720 0.35130 0.48860 0.05300
C 	C 	0.24390 0.38609 0.45563 0.00800
H 	H 	0.22870 0.37090 0.40310 0.02200
C 	C 	0.18393 0.41996 0.48169 -0.10900
H 	H 	0.12770 0.42790 0.44700 0.02900
C 	C 	0.18110 0.73058 0.59653 0.11700
C 	C 	0.15490 0.74406 0.51569 -0.14300
H 	H 	0.10910 0.72330 0.48100 0.07400
C 	C 	0.19550 0.78798 0.48562 0.03100
H 	H 	0.17760 0.79720 0.43040 0.02000
C 	C 	0.26240 0.81841 0.53640 -0.10400
H 	H 	0.29020 0.84840 0.51590 0.06400
C 	C 	0.28870 0.80493 0.61720 0.04100
H 	H 	0.33440 0.82570 0.65200 0.01500
C 	C 	0.24800 0.76102 0.64731 -0.14800
H 	H 	0.26600 0.75180 0.70260 0.07500
C 	C 	0.86350 0.69556 0.82180 0.12400
C 	C 	0.92110 0.72052 0.88710 -0.15900
H 	H 	0.98320 0.71410 0.89700 0.07900
C 	C 	0.88780 0.75483 0.93800 0.05000
H 	H 	0.92720 0.77190 0.98270 0.00700
C 	C 	0.79700 0.76419 0.92360 -0.12600
H 	H 	0.77430 0.78760 0.95840 0.07000
C 	C 	0.73940 0.73924 0.85820 0.04900
H 	H 	0.67740 0.74560 0.84830 0.00400
C 	C 	0.77270 0.70493 0.80730 -0.15800
H 	H 	0.73340 0.68790 0.76270 0.07700
B 	B 	0.34620 0.50160 0.08580 1.61100
Zr	Zr	0.94255 0.06148 0.77291 3.17000
Fe	Fe	0.78148 0.02736 0.57232 1.15800
O 	O 	0.70310 0.94877 0.44581 -0.53700
O 	O 	0.84620 0.99761 0.73978 -0.59100
O 	O 	0.60240 0.02171 0.47226 -0.53500
O 	O 	0.84100 0.11080 0.69860 -0.58100
O 	O 	0.71790 0.04545 0.40170 -0.53100
O 	O 	0.96710 0.04226 0.66099 -0.60700
N 	N 	0.75070 0.95595 0.52460 -0.18000
N 	N 	0.80780 0.98012 0.66440 -0.18100
N 	N 	0.65830 0.04339 0.54030 -0.18300
N 	N 	0.77360 0.08928 0.64110 -0.18200
N 	N 	0.78730 0.05117 0.46840 -0.18100
N 	N 	0.90610 0.04296 0.58980 -0.17900
N 	N 	0.99110 0.99083 0.86320 -0.40600
N 	N 	0.87150 0.07881 0.87170 -0.41600
N 	N 	0.97730 0.15271 0.80290 -0.41700
N 	N 	0.09210 0.06445 0.78900 -0.41300
C 	C 	0.76040 0.91236 0.57100 0.06000
C 	C 	0.79910 0.92630 0.65280 0.03400
C 	C 	0.82470 0.88344 0.71740 -0.13800
H 	H 	0.81190 0.89780 0.76740 0.08400
H 	H 	0.88920 0.87600 0.72800 0.06600
C 	C 	0.77300 0.82910 0.69240 -0.07200
H 	H 	0.79920 0.79900 0.73040 0.04800
H 	H 	0.71070 0.83440 0.69540 0.04500
C 	C 	0.77440 0.81121 0.60790 -0.06200
H 	H 	0.74340 0.77490 0.59580 0.03800
H 	H 	0.83670 0.80590 0.60480 0.04500
C 	C 	0.72970 0.85435 0.54500 -0.15000
H 	H 	0.74410 0.84590 0.49330 0.08800
H 	H 	0.66440 0.85200 0.53690 0.07200
C 	C 	0.62650 0.08429 0.57500 0.05900
C 	C 	0.69390 0.10954 0.63690 0.03300
C 	C 	0.67420 0.15640 0.68770 -0.13600
H 	H 	0.72510 0.18260 0.70030 0.08100
H 	H 	0.66550 0.14130 0.73870 0.06600
C 	C 	0.59110 0.18750 0.64390 -0.07400
H 	H 	0.57380 0.21450 0.68090 0.03900
H 	H 	0.60380 0.20860 0.59860 0.04700
C 	C 	0.51480 0.14740 0.61250 -0.05400
H 	H 	0.46060 0.16910 0.58820 0.03300
H 	H 	0.50310 0.12570 0.65770 0.02600
C 	C 	0.53470 0.10700 0.54990 -0.15800
H 	H 	0.49170 0.07580 0.54170 0.08300
H 	H 	0.52740 0.12690 0.49820 0.07700
C 	C 	0.86330 0.06660 0.45670 0.06700
C 	C 	0.93250 0.06457 0.52920 0.03500
C 	C 	0.02400 0.08570 0.53270 -0.14000
H 	H 	0.06480 0.05370 0.53470 0.08400
H 	H 	0.04540 0.10810 0.58190 0.08000
C 	C 	0.02420 0.12140 0.45970 -0.04500
H 	H 	0.99420 0.15740 0.46410 0.03900
H 	H 	0.08620 0.12960 0.45830 0.04100
C 	C 	0.97730 0.09240 0.38250 -0.08900
H 	H 	0.00530 0.05560 0.37930 0.06000
H 	H 	0.98410 0.11510 0.33630 0.03800
C 	C 	0.87870 0.08420 0.37770 -0.14300
H 	H 	0.84670 0.11960 0.36070 0.08500
H 	H 	0.85440 0.05550 0.33700 0.08600
C 	C 	0.58540 0.98860 0.33030 -1.14500
H 	H 	0.61390 0.96200 0.30030 0.34200
H 	H 	0.53280 0.96980 0.34110 0.34400
C 	C 	0.55380 0.03920 0.27660 0.44500
H 	H 	0.60580 0.05690 0.26310 -0.10000
H 	H 	0.51370 0.02610 0.22610 -0.10800
C 	C 	0.50560 0.08300 0.31360 -0.28400
H 	H 	0.48630 0.11350 0.27440 0.10200
H 	H 	0.54760 0.09920 0.36090 0.11300
C 	C 	0.42510 0.06090 0.33920 -0.17400
H 	H 	0.44450 0.03560 0.38470 0.08800
H 	H 	0.38650 0.04080 0.29440 0.07300
H 	H 	0.39230 0.09220 0.35480 0.07400
C 	C 	0.06520 0.95690 0.86870 0.08600
C 	C 	0.05450 0.90690 0.91240 -0.08700
H 	H 	0.09650 0.87750 0.92660 0.06100
C 	C 	0.97470 0.90920 0.92970 -0.07200
H 	H 	0.94900 0.88120 0.95600 0.04500
C 	C 	0.93590 0.96168 0.90080 0.08800
C 	C 	0.85470 0.98144 0.91160 -0.14400
C 	C 	0.82780 0.03720 0.90160 0.07800
C 	C 	0.75880 0.06100 0.93300 -0.06600
H 	H 	0.71720 0.04100 0.95460 0.05500
C 	C 	0.76340 0.11720 0.92620 -0.08900
H 	H 	0.72690 0.14400 0.94320 0.06200
C 	C 	0.83460 0.12849 0.88800 0.10200
C 	C 	0.86210 0.18156 0.87250 -0.16800
C 	C 	0.92800 0.19267 0.83180 0.10500
C 	C 	0.95400 0.24760 0.81250 -0.09100
H 	H 	0.93200 0.28210 0.82710 0.05700
C 	C 	0.01570 0.24100 0.76980 -0.06600
H 	H 	0.04360 0.27000 0.74720 0.04900
C 	C 	0.03150 0.18233 0.76490 0.07900
C 	C 	0.09670 0.15859 0.73080 -0.17200
C 	C 	0.12660 0.10330 0.74470 0.07500
C 	C 	0.20060 0.07930 0.71980 -0.06900
H 	H 	0.23360 0.09650 0.68670 0.05200
C 	C 	0.21410 0.02770 0.75240 -0.08600
H 	H 	0.25960 0.00240 0.74770 0.06000
C 	C 	0.14690 0.01800 0.79570 0.09500
C 	C 	0.13700 0.96850 0.83620 -0.17300
C 	C 	0.20930 0.92546 0.84640 0.12700
C 	C 	0.18970 0.87027 0.82380 -0.15400
H 	H 	0.13040 0.85970 0.79940 0.07600
C 	C 	0.25700 0.83057 0.83700 0.04800
H 	H 	0.24360 0.79280 0.82150 0.00800
C 	C 	0.34390 0.84606 0.87270 -0.11900
H 	H 	0.38990 0.81890 0.88170 0.06100
C 	C 	0.36350 0.90125 0.89530 0.04800
H 	H 	0.42280 0.91180 0.91970 0.00800
C 	C 	0.29620 0.94095 0.88220 -0.15100
H 	H 	0.30960 0.97870 0.89760 0.08200
C 	C 	0.79380 0.94219 0.94144 0.09600
C 	C 	0.71140 0.93056 0.89064 -0.12900
H 	H 	0.69620 0.94580 0.83810 0.07400
C 	C 	0.65145 0.89669 0.91670 0.02100
H 	H 	0.59520 0.88870 0.88200 0.01400
C 	C 	0.67380 0.87446 0.99360 -0.09100
H 	H 	0.63280 0.85130 0.01140 0.05000
C 	C 	0.75610 0.88609 0.04437 0.00400
H 	H 	0.77130 0.87090 0.09690 0.02400
C 	C 	0.81607 0.91996 0.01831 -0.10700
H 	H 	0.87230 0.92790 0.05300 0.02800
C 	C 	0.81890 0.23058 0.90347 0.11600
C 	C 	0.84510 0.24406 0.98431 -0.14300
H 	H 	0.89090 0.22330 0.01900 0.07300
C 	C 	0.80450 0.28798 0.01438 0.03000
H 	H 	0.82240 0.29720 0.06960 0.02100
C 	C 	0.73760 0.31841 0.96360 -0.10300
H 	H 	0.70980 0.34840 0.98410 0.06400
C 	C 	0.71130 0.30493 0.88280 0.04000
H 	H 	0.66560 0.32570 0.84800 0.01600
C 	C 	0.75200 0.26102 0.85269 -0.14800
H 	H 	0.73400 0.25180 0.79740 0.07500
C 	C 	0.13650 0.19556 0.67820 0.12500
C 	C 	0.07890 0.22052 0.61290 -0.15900
H 	H 	0.01680 0.21410 0.60300 0.07900
C 	C 	0.11220 0.25483 0.56200 0.05000
H 	H 	0.07280 0.27190 0.51730 0.00600
C 	C 	0.20300 0.26419 0.57640 -0.12700
H 	H 	0.22570 0.28760 0.54160 0.07000
C 	C 	0.26060 0.23924 0.64180 0.04900
H 	H 	0.32260 0.24560 0.65170 0.00400
C 	C 	0.22730 0.20493 0.69270 -0.15800
H 	H 	0.26660 0.18790 0.73730 0.07700
B 	B 	0.65380 0.00160 0.41420 1.60500
Zr	Zr	0.94255 0.43852 0.27291 3.17100
Fe	Fe	0.78148 0.47264 0.07232 1.15900
O 	O 	0.70310 0.55123 0.94581 -0.53900
O 	O 	0.84620 0.50239 0.23978 -0.59400
O 	O 	0.60240 0.47829 0.97226 -0.53600
O 	O 	0.84100 0.38920 0.19860 -0.58000
O 	O 	0.71790 0.45455 0.90170 -0.53200
O 	O 	0.96710 0.45774 0.16099 -0.60400
N 	N 	0.75070 0.54405 0.02460 -0.18100
N 	N 	0.80780 0.51988 0.16440 -0.18200
N 	N 	0.65830 0.45661 0.04030 -0.18300
N 	N 	0.77360 0.41072 0.14110 -0.18200
N 	N 	0.78730 0.44883 0.96840 -0.18200
N 	N 	0.90610 0.45704 0.08980 -0.17700
N 	N 	0.99110 0.50917 0.36320 -0.41100
N 	N 	0.87150 0.42119 0.37170 -0.41600
N 	N 	0.97730 0.34729 0.30290 -0.41600
N 	N 	0.09210 0.43555 0.28900 -0.41300
C 	C 	0.76040 0.58764 0.07100 0.06000
C 	C 	0.79910 0.57370 0.15280 0.03300
C 	C 	0.82470 0.61656 0.21740 -0.13700
H 	H 	0.81190 0.60220 0.26740 0.08400
H 	H 	0.88920 0.62400 0.22800 0.06500
C 	C 	0.77300 0.67090 0.19240 -0.07400
H 	H 	0.79920 0.70100 0.23040 0.04800
H 	H 	0.71070 0.66560 0.19540 0.04500
C 	C 	0.77440 0.68879 0.10790 -0.06000
H 	H 	0.74340 0.72510 0.09580 0.03700
H 	H 	0.83670 0.69410 0.10480 0.04400
C 	C 	0.72970 0.64565 0.04500 -0.15200
H 	H 	0.74410 0.65410 0.99330 0.08900
H 	H 	0.66440 0.64800 0.03690 0.07300
C 	C 	0.62650 0.41571 0.07500 0.05900
C 	C 	0.69390 0.39046 0.13690 0.03300
C 	C 	0.67420 0.34360 0.18770 -0.13600
H 	H 	0.72510 0.31740 0.20030 0.08100
H 	H 	0.66550 0.35870 0.23870 0.06600
C 	C 	0.59110 0.31250 0.14390 -0.07400
H 	H 	0.57380 0.28550 0.18090 0.03800
H 	H 	0.60380 0.29140 0.09860 0.04700
C 	C 	0.51480 0.35260 0.11250 -0.05400
H 	H 	0.46060 0.33090 0.08820 0.03300
H 	H 	0.50310 0.37430 0.15770 0.02600
C 	C 	0.53470 0.39300 0.04990 -0.15700
H 	H 	0.49170 0.42420 0.04170 0.08200
H 	H 	0.52740 0.37310 0.99820 0.07700
C 	C 	0.86330 0.43340 0.95670 0.07400
C 	C 	0.93250 0.43543 0.02920 0.03200
C 	C 	0.02400 0.41430 0.03270 -0.12800
H 	H 	0.06480 0.44630 0.03470 0.07900
H 	H 	0.04540 0.39190 0.08190 0.07600
C 	C 	0.02420 0.37860 0.95970 -0.07600
H 	H 	0.99420 0.34260 0.96410 0.05000
H 	H 	0.08620 0.37040 0.95830 0.04900
C 	C 	0.97730 0.40760 0.88250 -0.05500
H 	H 	0.00530 0.44440 0.87930 0.04600
H 	H 	0.98410 0.38490 0.83630 0.03000
C 	C 	0.87870 0.41580 0.87770 -0.16000
H 	H 	0.84670 0.38040 0.86070 0.09000
H 	H 	0.85440 0.44450 0.83700 0.09200
C 	C 	0.58540 0.51140 0.83030 -1.15200
H 	H 	0.61390 0.53800 0.80030 0.34400
H 	H 	0.53280 0.53020 0.84110 0.34600
C 	C 	0.55380 0.46080 0.77660 0.45000
H 	H 	0.60580 0.44310 0.76310 -0.10100
H 	H 	0.51370 0.47390 0.72610 -0.10900
C 	C 	0.50560 0.41700 0.81360 -0.28800
H 	H 	0.48630 0.38650 0.77440 0.10300
H 	H 	0.54760 0.40080 0.86090 0.11400
C 	C 	0.42510 0.43910 0.83920 -0.17000
H 	H 	0.44450 0.46440 0.88470 0.08700
H 	H 	0.38650 0.45920 0.79440 0.07100
H 	H 	0.39230 0.40780 0.85480 0.07300
C 	C 	0.06520 0.54310 0.36870 0.08800
C 	C 	0.05450 0.59310 0.41240 -0.07700
H 	H 	0.09650 0.62250 0.42660 0.05800
C 	C 	0.97470 0.59080 0.42970 -0.08300
H 	H 	0.94900 0.61880 0.45600 0.04800
C 	C 	0.93590 0.53832 0.40080 0.09300
C 	C 	0.85470 0.51856 0.41160 -0.15300
C 	C 	0.82780 0.46280 0.40160 0.08700
C 	C 	0.75880 0.43900 0.43300 -0.07000
H 	H 	0.71720 0.45900 0.45460 0.05800
C 	C 	0.76340 0.38280 0.42620 -0.08600
H 	H 	0.72690 0.35600 0.44320 0.06200
C 	C 	0.83460 0.37151 0.38800 0.10100
C 	C 	0.86210 0.31844 0.37250 -0.16800
C 	C 	0.92800 0.30733 0.33180 0.10500
C 	C 	0.95400 0.25240 0.31250 -0.09300
H 	H 	0.93200 0.21790 0.32710 0.05800
C 	C 	0.01570 0.25900 0.26980 -0.06400
H 	H 	0.04360 0.23000 0.24720 0.04900
C 	C 	0.03150 0.31767 0.26490 0.07700
C 	C 	0.09670 0.34141 0.23080 -0.17100
C 	C 	0.12660 0.39670 0.24470 0.07500
C 	C 	0.20060 0.42070 0.21980 -0.07000
H 	H 	0.23360 0.40350 0.18670 0.05200
C 	C 	0.21410 0.47230 0.25240 -0.08400
H 	H 	0.25960 0.49760 0.24770 0.05800
C 	C 	0.14690 0.48200 0.29570 0.08900
C 	C 	0.13700 0.53150 0.33620 -0.16800
C 	C 	0.20930 0.57454 0.34640 0.12600
C 	C 	0.18970 0.62973 0.32380 -0.15300
H 	H 	0.13040 0.64030 0.29940 0.07600
C 	C 	0.25700 0.66943 0.33700 0.04800
H 	H 	0.24360 0.70720 0.32150 0.00800
C 	C 	0.34390 0.65394 0.37270 -0.11800
H 	H 	0.38990 0.68110 0.38170 0.06000
C 	C 	0.36350 0.59875 0.39530 0.04700
H 	H 	0.42280 0.58820 0.41970 0.00900
C 	C 	0.29620 0.55905 0.38220 -0.15000
H 	H 	0.30960 0.52130 0.39760 0.08200
C 	C 	0.79380 0.55781 0.44144 0.09900
C 	C 	0.71140 0.56944 0.39064 -0.13300
H 	H 	0.69620 0.55420 0.33810 0.07400
C 	C 	0.65145 0.60331 0.41670 0.02500
H 	H 	0.59520 0.61130 0.38200 0.01300
C 	C 	0.67380 0.62554 0.49360 -0.09700
H 	H 	0.63280 0.64870 0.51140 0.05300
C 	C 	0.75610 0.61391 0.54437 0.00800
H 	H 	0.77130 0.62910 0.59690 0.02200
C 	C 	0.81607 0.58004 0.51831 -0.10900
H 	H 	0.87230 0.57210 0.55300 0.02900
C 	C 	0.81890 0.26942 0.40347 0.11700
C 	C 	0.84510 0.25594 0.48431 -0.14300
H 	H 	0.89090 0.27670 0.51900 0.07400
C 	C 	0.80450 0.21202 0.51438 0.03100
H 	H 	0.82240 0.20280 0.56960 0.02000
C 	C 	0.73760 0.18159 0.46360 -0.10400
H 	H 	0.70980 0.15160 0.48410 0.06400
C 	C 	0.71130 0.19507 0.38280 0.04100
H 	H 	0.66560 0.17430 0.34800 0.01500
C 	C 	0.75200 0.23898 0.35269 -0.14800
H 	H 	0.73400 0.24820 0.29740 0.07500
C 	C 	0.13650 0.30444 0.17820 0.12400
C 	C 	0.07890 0.27948 0.11290 -0.15900
H 	H 	0.01680 0.28590 0.10300 0.07900
C 	C 	0.11220 0.24517 0.06200 0.05000
H 	H 	0.07280 0.22810 0.01730 0.00700
C 	C 	0.20300 0.23581 0.07640 -0.12600
H 	H 	0.22570 0.21240 0.04160 0.07000
C 	C 	0.26060 0.26076 0.14180 0.04900
H 	H 	0.32260 0.25440 0.15170 0.00400
C 	C 	0.22730 0.29507 0.19270 -0.15800
H 	H 	0.26660 0.31210 0.23730 0.07700
B 	B 	0.65380 0.49840 0.91420 1.61100
Zr	Zr	0.05745 0.93852 0.22709 3.17000
Fe	Fe	0.21852 0.97264 0.42768 1.15800
O 	O 	0.29690 0.05123 0.55419 -0.53700
O 	O 	0.15380 0.00239 0.26022 -0.59100
O 	O 	0.39760 0.97829 0.52774 -0.53500
O 	O 	0.15900 0.88920 0.30140 -0.58100
O 	O 	0.28210 0.95455 0.59830 -0.53100
O 	O 	0.03290 0.95774 0.33901 -0.60700
N 	N 	0.24930 0.04405 0.47540 -0.18000
N 	N 	0.19220 0.01988 0.33560 -0.18100
N 	N 	0.34170 0.95661 0.45970 -0.18300
N 	N 	0.22640 0.91072 0.35890 -0.18200
N 	N 	0.21270 0.94883 0.53160 -0.18100
N 	N 	0.09390 0.95704 0.41020 -0.17900
N 	N 	0.00890 0.00917 0.13680 -0.40600
N 	N 	0.12850 0.92119 0.12830 -0.41600
N 	N 	0.02270 0.84729 0.19710 -0.41700
N 	N 	0.90790 0.93555 0.21100 -0.41300
C 	C 	0.23960 0.08764 0.42900 0.06000
C 	C 	0.20090 0.07370 0.34720 0.03400
C 	C 	0.17530 0.11656 0.28260 -0.13800
H 	H 	0.18810 0.10220 0.23260 0.08400
H 	H 	0.11080 0.12400 0.27200 0.06600
C 	C 	0.22700 0.17090 0.30760 -0.07200
H 	H 	0.20080 0.20100 0.26960 0.04800
H 	H 	0.28930 0.16560 0.30460 0.04500
C 	C 	0.22560 0.18879 0.39210 -0.06200
H 	H 	0.25660 0.22510 0.40420 0.03800
H 	H 	0.16330 0.19410 0.39520 0.04500
C 	C 	0.27030 0.14565 0.45500 -0.15000
H 	H 	0.25590 0.15410 0.50670 0.08800
H 	H 	0.33560 0.14800 0.46310 0.07200
C 	C 	0.37350 0.91571 0.42500 0.05900
C 	C 	0.30610 0.89046 0.36310 0.03300
C 	C 	0.32580 0.84360 0.31230 -0.13600
H 	H 	0.27490 0.81740 0.29970 0.08100
H 	H 	0.33450 0.85870 0.26130 0.06600
C 	C 	0.40890 0.81250 0.35610 -0.07400
H 	H 	0.42620 0.78550 0.31910 0.03900
H 	H 	0.39620 0.79140 0.40140 0.04700
C 	C 	0.48520 0.85260 0.38750 -0.05400
H 	H 	0.53940 0.83090 0.41180 0.03300
H 	H 	0.49690 0.87430 0.34230 0.02600
C 	C 	0.46530 0.89300 0.45010 -0.15800
H 	H 	0.50830 0.92420 0.45830 0.08300
H 	H 	0.47260 0.87310 0.50180 0.07700
C 	C 	0.13670 0.93340 0.54330 0.06700
C 	C 	0.06750 0.93543 0.47080 0.03500
C 	C 	0.97600 0.91430 0.46730 -0.14000
H 	H 	0.93520 0.94630 0.46530 0.08400
H 	H 	0.95460 0.89190 0.41810 0.08000
C 	C 	0.97580 0.87860 0.54030 -0.04500
H 	H 	0.00580 0.84260 0.53590 0.03900
H 	H 	0.91380 0.87040 0.54170 0.04100
C 	C 	0.02270 0.90760 0.61750 -0.08900
H 	H 	0.99470 0.94440 0.62070 0.06000
H 	H 	0.01590 0.88490 0.66370 0.03800
C 	C 	0.12130 0.91580 0.62230 -0.14300
H 	H 	0.15330 0.88040 0.63930 0.08500
H 	H 	0.14560 0.94450 0.66300 0.08600
C 	C 	0.41460 0.01140 0.66970 -1.14500
H 	H 	0.38610 0.03800 0.69970 0.34200
H 	H 	0.46720 0.03020 0.65890 0.34400
C 	C 	0.44620 0.96080 0.72340 0.44500
H 	H 	0.39420 0.94310 0.73690 -0.10000
H 	H 	0.48630 0.97390 0.77390 -0.10800
C 	C 	0.49440 0.91700 0.68640 -0.28400
H 	H 	0.51370 0.88650 0.72560 0.10200
H 	H 	0.45240 0.90080 0.63910 0.11300
C 	C 	0.57490 0.93910 0.66080 -0.17400
H 	H 	0.55550 0.96440 0.61530 0.08800
H 	H 	0.61350 0.95920 0.70560 0.07300
H 	H 	0.60770 0.90780 0.64520 0.07400
C 	C 	0.93480 0.04310 0.13130 0.08600
C 	C 	0.94550 0.09310 0.08760 -0.08700
H 	H 	0.90350 0.12250 0.07340 0.06100
C 	C 	0.02530 0.09080 0.07030 -0.07200
H 	H 	0.05100 0.11880 0.04400 0.04500
C 	C 	0.06410 0.03832 0.09920 0.08800
C 	C 	0.14530 0.01856 0.08840 -0.14400
C 	C 	0.17220 0.96280 0.09840 0.07800
C 	C 	0.24120 0.93900 0.06700 -0.06600
H 	H 	0.28280 0.95900 0.04540 0.05500
C 	C 	0.23660 0.88280 0.07380 -0.08900
H 	H 	0.27310 0.85600 0.05680 0.06200
C 	C 	0.16540 0.87151 0.11200 0.10200
C 	C 	0.13790 0.81844 0.12750 -0.16800
C 	C 	0.07200 0.80733 0.16820 0.10500
C 	C 	0.04600 0.75240 0.18750 -0.09100
H 	H 	0.06800 0.71790 0.17290 0.05700
C 	C 	0.98430 0.75900 0.23020 -0.06600
H 	H 	0.95640 0.73000 0.25280 0.04900
C 	C 	0.96850 0.81767 0.23510 0.07900
C 	C 	0.90330 0.84141 0.26920 -0.17200
C 	C 	0.87340 0.89670 0.25530 0.07500
C 	C 	0.79940 0.92070 0.28020 -0.06900
H 	H 	0.76640 0.90350 0.31330 0.05200
C 	C 	0.78590 0.97230 0.24760 -0.08600
H 	H 	0.74040 0.99760 0.25230 0.06000
C 	C 	0.85310 0.98200 0.20430 0.09500
C 	C 	0.86300 0.03150 0.16380 -0.17300
C 	C 	0.79070 0.07454 0.15360 0.12700
C 	C 	0.81030 0.12973 0.17620 -0.15400
H 	H 	0.86960 0.14030 0.20060 0.07600
C 	C 	0.74300 0.16943 0.16300 0.04800
H 	H 	0.75640 0.20720 0.17850 0.00800
C 	C 	0.65610 0.15394 0.12730 -0.11900
H 	H 	0.61010 0.18110 0.11830 0.06100
C 	C 	0.63650 0.09875 0.10470 0.04800
H 	H 	0.57720 0.08820 0.08030 0.00800
C 	C 	0.70380 0.05905 0.11780 -0.15100
H 	H 	0.69040 0.02130 0.10240 0.08200
C 	C 	0.20620 0.05781 0.05856 0.09600
C 	C 	0.28860 0.06944 0.10936 -0.12900
H 	H 	0.30380 0.05420 0.16190 0.07400
C 	C 	0.34855 0.10331 0.08330 0.02100
H 	H 	0.40480 0.11130 0.11800 0.01400
C 	C 	0.32620 0.12554 0.00640 -0.09100
H 	H 	0.36720 0.14870 0.98860 0.05000
C 	C 	0.24390 0.11391 0.95563 0.00400
H 	H 	0.22870 0.12910 0.90310 0.02400
C 	C 	0.18393 0.08004 0.98169 -0.10700
H 	H 	0.12770 0.07210 0.94700 0.02800
C 	C 	0.18110 0.76942 0.09653 0.11600
C 	C 	0.15490 0.75594 0.01569 -0.14300
H 	H 	0.10910 0.77670 0.98100 0.07300
C 	C 	0.19550 0.71202 0.98562 0.03000
H 	H 	0.17760 0.70280 0.93040 0.02100
C 	C 	0.26240 0.68159 0.03640 -0.10300
H 	H 	0.29020 0.65160 0.01590 0.06400
C 	C 	0.28870 0.69507 0.11720 0.04000
H 	H 	0.33440 0.67430 0.15200 0.01600
C 	C 	0.24800 0.73898 0.14731 -0.14800
H 	H 	0.26600 0.74820 0.20260 0.07500
C 	C 	0.86350 0.80444 0.32180 0.12500
C 	C 	0.92110 0.77948 0.38710 -0.15900
H 	H 	0.98320 0.78590 0.39700 0.07900
C 	C 	0.88780 0.74517 0.43800 0.05000
H 	H 	0.92720 0.72810 0.48270 0.00600
C 	C 	0.79700 0.73581 0.42360 -0.12700
H 	H 	0.77430 0.71240 0.45840 0.07000
C 	C 	0.73940 0.76076 0.35820 0.04900
H 	H 	0.67740 0.75440 0.34830 0.00400
C 	C 	0.77270 0.79507 0.30730 -0.15800
H 	H 	0.73340 0.81210 0.26270 0.07700
B 	B 	0.34620 0.99840 0.58580 1.60500
