data_crystal

_cell_length_a 23.28230
_cell_length_b 13.07000
_cell_length_c 34.63140
_cell_angle_alpha 90.00000
_cell_angle_beta  90.08400
_cell_angle_gamma 90.00000

_symmetry_space_group_name_	'P 1'
_symmetry_space_group_name_H-M	'P 1'

loop_
_symmetry_equiv_pos_as_xyz
  x,y,z

loop_
_atom_site_label
_atom_site_type_symbol
_atom_site_fract_x
_atom_site_fract_y
_atom_site_fract_z
_atom_site_charge
C 	C 	0.11150 0.12550 0.99350 0.07700
H 	H 	0.13790 0.14970 0.97550 -0.03200
C 	C 	0.06460 0.06970 0.98070 -0.14900
H 	H 	0.05960 0.05890 0.95440 0.07000
C 	C 	0.02590 0.03050 0.00610 0.05500
C 	C 	0.03580 0.05140 0.04570 -0.14100
H 	H 	0.01070 0.02660 0.06440 0.08000
C 	C 	0.08240 0.10800 0.05620 0.07600
H 	H 	0.08830 0.12130 0.08230 -0.02100
C 	C 	0.11540 0.36040 0.10240 0.08100
H 	H 	0.14190 0.33460 0.12000 -0.02900
C 	C 	0.07190 0.42370 0.11590 -0.14700
H 	H 	0.07070 0.44200 0.14180 0.07000
C 	C 	0.03040 0.45950 0.09060 0.05600
C 	C 	0.03660 0.43320 0.05170 -0.14400
H 	H 	0.01090 0.45770 0.03330 0.08200
C 	C 	0.08050 0.37170 0.04100 0.07800
H 	H 	0.08330 0.35330 0.01510 -0.01600
C 	C 	0.90090 0.63240 0.09210 0.08300
H 	H 	0.87500 0.65970 0.07440 -0.02500
C 	C 	0.94390 0.57020 0.07850 -0.14700
H 	H 	0.94620 0.55610 0.05220 0.07300
C 	C 	0.98350 0.52860 0.10350 0.05400
C 	C 	0.97620 0.55260 0.14270 -0.14300
H 	H 	0.00100 0.52560 0.16110 0.07900
C 	C 	0.93230 0.61570 0.15370 0.07500
H 	H 	0.92880 0.63170 0.17970 -0.01600
C 	C 	0.89840 0.86370 0.20750 0.08400
H 	H 	0.87170 0.83760 0.22490 -0.02500
C 	C 	0.94150 0.92830 0.22090 -0.14600
H 	H 	0.94380 0.94350 0.24710 0.07300
C 	C 	0.98100 0.97020 0.19580 0.04900
C 	C 	0.97640 0.94220 0.15650 -0.14100
H 	H 	0.00200 0.96730 0.13820 0.07800
C 	C 	0.93310 0.87720 0.14640 0.07300
H 	H 	0.93030 0.85820 0.12060 -0.01400
C 	C 	0.11030 0.14460 0.19600 0.07700
H 	H 	0.13720 0.16810 0.17830 -0.02300
C 	C 	0.06690 0.08190 0.18330 -0.14800
H 	H 	0.06410 0.06650 0.15720 0.07300
C 	C 	0.02730 0.04140 0.20860 0.05400
C 	C 	0.03330 0.06930 0.24760 -0.14500
H 	H 	0.00810 0.04410 0.26610 0.08200
C 	C 	0.07640 0.13360 0.25780 0.07700
H 	H 	0.07940 0.15180 0.28370 -0.01600
C 	C 	0.07920 0.40290 0.24640 0.09100
H 	H 	0.08610 0.39400 0.22020 -0.02600
C 	C 	0.03270 0.46070 0.25630 -0.15600
H 	H 	0.00880 0.48910 0.23760 0.08600
C 	C 	0.02230 0.47540 0.29520 0.06300
C 	C 	0.06000 0.43130 0.32160 -0.14900
H 	H 	0.05430 0.44000 0.34800 0.07300
C 	C 	0.10650 0.37400 0.30830 0.07500
H 	H 	0.13190 0.34600 0.32610 -0.02900
C 	C 	0.88390 0.62600 0.29560 0.06800
H 	H 	0.85680 0.64790 0.27760 -0.02700
C 	C 	0.92960 0.56970 0.28280 -0.13500
H 	H 	0.93260 0.55420 0.25660 0.06100
C 	C 	0.97140 0.53560 0.30790 0.04600
C 	C 	0.96300 0.56280 0.34680 -0.12700
H 	H 	0.98930 0.54110 0.36540 0.07600
C 	C 	0.91660 0.62090 0.35800 0.06600
H 	H 	0.91310 0.63970 0.38380 -0.01200
C 	C 	0.88220 0.86980 0.40280 0.06900
H 	H 	0.85480 0.84630 0.42020 -0.02600
C 	C 	0.92730 0.92950 0.41720 -0.14100
H 	H 	0.92970 0.94620 0.44320 0.06500
C 	C 	0.96860 0.96310 0.39090 0.05600
C 	C 	0.96300 0.93540 0.35270 -0.14100
H 	H 	0.99010 0.95620 0.33470 0.08200
C 	C 	0.91660 0.87610 0.34150 0.07800
H 	H 	0.91360 0.85750 0.31570 -0.01600
C 	C 	0.10230 0.12790 0.39150 0.07300
H 	H 	0.12820 0.15460 0.37380 -0.02400
C 	C 	0.05650 0.07040 0.37810 -0.14200
H 	H 	0.05130 0.06130 0.35170 0.07300
C 	C 	0.01810 0.02620 0.40420 0.05400
C 	C 	0.02800 0.04450 0.44270 -0.14200
H 	H 	0.00430 0.01480 0.46120 0.07900
C 	C 	0.07210 0.10540 0.45410 0.06900
H 	H 	0.07610 0.11970 0.48020 -0.01300
C 	C 	0.07150 0.36820 0.44460 0.08600
H 	H 	0.07450 0.35030 0.41870 -0.02000
C 	C 	0.02780 0.43260 0.45530 -0.14800
H 	H 	0.00140 0.45520 0.43710 0.08200
C 	C 	0.02310 0.46400 0.49360 0.05400
C 	C 	0.06260 0.42270 0.51910 -0.14600
H 	H 	0.06070 0.43870 0.54520 0.07300
C 	C 	0.10550 0.35700 0.50550 0.08100
H 	H 	0.13220 0.33120 0.52290 -0.02400
C 	C 	0.32500 0.07060 0.01690 -1.06200
H 	H 	0.36550 0.08260 0.01900 0.34800
H 	H 	0.31470 0.06330 0.99020 0.33300
H 	H 	0.31520 0.00910 0.03050 0.34700
C 	C 	0.29300 0.15890 0.03390 0.50700
C 	C 	0.32250 0.24430 0.04870 -0.34300
C 	C 	0.29250 0.32660 0.06510 0.47300
C 	C 	0.32340 0.41780 0.08290 -0.98700
H 	H 	0.36410 0.40820 0.08080 0.32500
H 	H 	0.31290 0.42380 0.10960 0.31200
H 	H 	0.31250 0.47910 0.06940 0.32500
C 	C 	0.38720 0.14830 0.11280 -0.81500
H 	H 	0.34640 0.15460 0.10940 0.25200
H 	H 	0.39820 0.18000 0.13670 0.25900
H 	H 	0.39750 0.07720 0.11340 0.26200
C 	C 	0.41800 0.20060 0.07950 0.35400
C 	C 	0.38650 0.24570 0.04900 -0.21000
C 	C 	0.41690 0.29300 0.02010 0.37600
C 	C 	0.38790 0.34150 0.98600 -0.86300
H 	H 	0.34700 0.33430 0.98850 0.26500
H 	H 	0.40040 0.30830 0.96280 0.27800
H 	H 	0.39770 0.41280 0.98500 0.27600
C 	C 	0.68900 0.59370 0.10610 -1.00200
H 	H 	0.64840 0.60300 0.10910 0.32700
H 	H 	0.69970 0.52700 0.11530 0.33200
H 	H 	0.69900 0.59970 0.07930 0.30900
C 	C 	0.72040 0.67360 0.12890 0.46200
C 	C 	0.69160 0.75010 0.15040 -0.32200
C 	C 	0.72150 0.82470 0.17150 0.48100
C 	C 	0.68980 0.90530 0.19350 -1.03100
H 	H 	0.64930 0.89610 0.19000 0.33700
H 	H 	0.70080 0.97160 0.18420 0.34200
H 	H 	0.69910 0.90000 0.22050 0.31600
C 	C 	0.62630 0.62820 0.20660 -0.90500
H 	H 	0.66710 0.63360 0.20340 0.28200
H 	H 	0.61490 0.55800 0.20370 0.29000
H 	H 	0.61580 0.65200 0.23180 0.28400
C 	C 	0.59690 0.69150 0.17680 0.39900
C 	C 	0.62710 0.74980 0.15050 -0.23600
C 	C 	0.59630 0.80670 0.12310 0.38000
C 	C 	0.62600 0.87030 0.09320 -0.86400
H 	H 	0.66680 0.86380 0.09620 0.26900
H 	H 	0.61520 0.94070 0.09630 0.27700
H 	H 	0.61500 0.84710 0.06790 0.26900
C 	C 	0.31660 0.09610 0.21080 -1.03000
H 	H 	0.35750 0.10390 0.21300 0.33500
H 	H 	0.30590 0.09660 0.18400 0.32000
H 	H 	0.30520 0.03230 0.22220 0.34200
C 	C 	0.28730 0.18280 0.23130 0.49500
C 	C 	0.31750 0.26260 0.25020 -0.36700
C 	C 	0.28920 0.34260 0.26770 0.53500
C 	C 	0.32200 0.42820 0.28550 -1.09200
H 	H 	0.36240 0.41490 0.28330 0.35500
H 	H 	0.31190 0.43410 0.31230 0.33800
H 	H 	0.31290 0.49090 0.27240 0.35800
C 	C 	0.38520 0.36060 0.18810 -0.82400
H 	H 	0.34430 0.35600 0.19080 0.25800
H 	H 	0.39670 0.33100 0.16400 0.26300
H 	H 	0.39670 0.43120 0.18880 0.26500
C 	C 	0.41390 0.30330 0.22110 0.35000
C 	C 	0.38150 0.25760 0.25020 -0.20000
C 	C 	0.41150 0.20660 0.27930 0.36700
C 	C 	0.38080 0.15120 0.31090 -0.84900
H 	H 	0.34020 0.16180 0.30830 0.26100
H 	H 	0.39350 0.17700 0.33550 0.26600
H 	H 	0.38910 0.07940 0.30930 0.27200
C 	C 	0.67070 0.57420 0.31770 -1.02700
H 	H 	0.63030 0.58770 0.31970 0.33700
H 	H 	0.68000 0.51320 0.33180 0.33500
H 	H 	0.68080 0.56510 0.29100 0.32100
C 	C 	0.70360 0.66220 0.33400 0.48000
C 	C 	0.67410 0.74970 0.34900 -0.32100
C 	C 	0.70400 0.83410 0.36440 0.47300
C 	C 	0.67250 0.92300 0.38150 -1.00900
H 	H 	0.63180 0.91160 0.37940 0.32900
H 	H 	0.68250 0.98430 0.36780 0.33000
H 	H 	0.68280 0.93010 0.40820 0.31700
C 	C 	0.60800 0.84810 0.28660 -0.89400
H 	H 	0.64890 0.84260 0.28910 0.27500
H 	H 	0.59720 0.91900 0.28630 0.28600
H 	H 	0.59590 0.81610 0.26300 0.28700
C 	C 	0.57990 0.79630 0.32000 0.39300
C 	C 	0.61040 0.74990 0.34930 -0.22800
C 	C 	0.57900 0.70310 0.38010 0.38600
C 	C 	0.61010 0.65060 0.41220 -0.87600
H 	H 	0.65080 0.65960 0.40890 0.26800
H 	H 	0.60110 0.57890 0.41180 0.27900
H 	H 	0.59850 0.67960 0.43640 0.27900
C 	C 	0.31570 0.08540 0.40880 -1.05300
H 	H 	0.35620 0.09630 0.41180 0.34300
H 	H 	0.30580 0.08850 0.38190 0.32500
H 	H 	0.30570 0.01930 0.41890 0.34800
C 	C 	0.28360 0.16620 0.43030 0.50000
C 	C 	0.31170 0.24480 0.45100 -0.35800
C 	C 	0.28200 0.31850 0.47120 0.51700
C 	C 	0.31280 0.40220 0.49250 -1.05600
H 	H 	0.35350 0.39360 0.48960 0.34200
H 	H 	0.30300 0.39930 0.51940 0.32600
H 	H 	0.30160 0.46740 0.48210 0.34800
C 	C 	0.37790 0.36130 0.39190 -0.95900
H 	H 	0.33720 0.35230 0.39440 0.29600
H 	H 	0.38990 0.33870 0.36680 0.30000
H 	H 	0.38740 0.43230 0.39510 0.30400
C 	C 	0.40730 0.30140 0.42150 0.42000
C 	C 	0.37650 0.24560 0.45090 -0.23300
C 	C 	0.40860 0.19240 0.47880 0.41700
C 	C 	0.38020 0.13110 0.50910 -0.93300
H 	H 	0.33930 0.13670 0.50640 0.29000
H 	H 	0.39150 0.15590 0.53410 0.29200
H 	H 	0.39130 0.06070 0.50660 0.29900
Cu	Cu	0.18275 0.24058 0.04851 0.89100
Cu	Cu	0.83196 0.74761 0.15011 0.88900
Cu	Cu	0.17783 0.26442 0.25139 0.89300
Cu	Cu	0.81380 0.74795 0.34941 0.89200
Cu	Cu	0.17237 0.24026 0.44968 0.89300
N 	N 	0.12010 0.14540 0.03050 -0.23700
N 	N 	0.12050 0.33550 0.06580 -0.23800
N 	N 	0.89440 0.65560 0.12919 -0.23700
N 	N 	0.89450 0.83890 0.17100 -0.23700
N 	N 	0.11520 0.17290 0.23306 -0.23700
N 	N 	0.11550 0.35810 0.27071 -0.23900
N 	N 	0.87620 0.65100 0.33278 -0.23300
N 	N 	0.87600 0.84450 0.36564 -0.23600
N 	N 	0.11060 0.14660 0.42920 -0.23300
N 	N 	0.10920 0.33040 0.46890 -0.24100
O 	O 	0.23930 0.14600 0.03173 -0.50700
O 	O 	0.23850 0.33580 0.06714 -0.49200
O 	O 	0.47310 0.19850 0.08013 -0.32800
O 	O 	0.47280 0.29770 0.02007 -0.32800
O 	O 	0.77570 0.66460 0.12584 -0.48400
O 	O 	0.77650 0.83110 0.17462 -0.49200
O 	O 	0.54010 0.69130 0.17765 -0.36100
O 	O 	0.54050 0.80870 0.12226 -0.32300
O 	O 	0.23270 0.17520 0.22902 -0.49600
O 	O 	0.23520 0.35520 0.26962 -0.51500
O 	O 	0.46970 0.30420 0.22065 -0.32700
O 	O 	0.46740 0.19930 0.27896 -0.33100
O 	O 	0.75800 0.65230 0.33272 -0.49800
O 	O 	0.75870 0.84410 0.36626 -0.49200
O 	O 	0.52390 0.79920 0.31961 -0.32400
O 	O 	0.52360 0.69780 0.38046 -0.34100
O 	O 	0.22890 0.15610 0.42741 -0.50100
O 	O 	0.22780 0.32460 0.47368 -0.50800
O 	O 	0.46270 0.30580 0.42171 -0.33400
O 	O 	0.46430 0.19280 0.47856 -0.36700
H 	H 	0.53600 0.74600 0.15400 0.18100
H 	H 	0.47200 0.25200 0.24990 0.17100
H 	H 	0.51800 0.74000 0.35000 0.16500
H 	H 	0.46900 0.25300 0.45600 0.17800
H 	H 	0.47400 0.25000 0.05060 0.16600
C 	C 	0.88850 0.87450 0.00650 0.07800
H 	H 	0.86210 0.85030 0.02450 -0.03100
C 	C 	0.93540 0.93030 0.01930 -0.14900
H 	H 	0.94040 0.94110 0.04560 0.07000
C 	C 	0.97410 0.96950 0.99390 0.05500
C 	C 	0.96420 0.94860 0.95430 -0.14100
H 	H 	0.98930 0.97340 0.93560 0.08000
C 	C 	0.91760 0.89200 0.94380 0.07600
H 	H 	0.91170 0.87870 0.91770 -0.02100
C 	C 	0.88460 0.63960 0.89760 0.08100
H 	H 	0.85810 0.66540 0.88000 -0.02900
C 	C 	0.92810 0.57630 0.88410 -0.14700
H 	H 	0.92930 0.55800 0.85820 0.07000
C 	C 	0.96960 0.54050 0.90940 0.05600
C 	C 	0.96340 0.56680 0.94830 -0.14400
H 	H 	0.98910 0.54230 0.96670 0.08200
C 	C 	0.91950 0.62830 0.95900 0.07800
H 	H 	0.91670 0.64670 0.98490 -0.01600
C 	C 	0.09910 0.36760 0.90790 0.08300
H 	H 	0.12500 0.34030 0.92560 -0.02500
C 	C 	0.05610 0.42980 0.92150 -0.14700
H 	H 	0.05380 0.44390 0.94780 0.07300
C 	C 	0.01650 0.47140 0.89650 0.05400
C 	C 	0.02380 0.44740 0.85730 -0.14300
H 	H 	0.99900 0.47440 0.83890 0.07900
C 	C 	0.06770 0.38430 0.84630 0.07500
H 	H 	0.07120 0.36830 0.82030 -0.01600
C 	C 	0.10160 0.13630 0.79250 0.08400
H 	H 	0.12830 0.16240 0.77510 -0.02500
C 	C 	0.05850 0.07170 0.77910 -0.14600
H 	H 	0.05620 0.05650 0.75290 0.07300
C 	C 	0.01900 0.02980 0.80420 0.04900
C 	C 	0.02360 0.05780 0.84350 -0.14100
H 	H 	0.99800 0.03270 0.86180 0.07800
C 	C 	0.06690 0.12280 0.85360 0.07300
H 	H 	0.06970 0.14180 0.87940 -0.01400
C 	C 	0.88970 0.85540 0.80400 0.07700
H 	H 	0.86280 0.83190 0.82170 -0.02300
C 	C 	0.93310 0.91810 0.81670 -0.14800
H 	H 	0.93590 0.93350 0.84280 0.07300
C 	C 	0.97270 0.95860 0.79140 0.05400
C 	C 	0.96670 0.93070 0.75240 -0.14500
H 	H 	0.99190 0.95590 0.73390 0.08200
C 	C 	0.92360 0.86640 0.74220 0.07700
H 	H 	0.92060 0.84820 0.71630 -0.01600
C 	C 	0.92080 0.59710 0.75360 0.09100
H 	H 	0.91390 0.60600 0.77980 -0.02600
C 	C 	0.96730 0.53930 0.74370 -0.15600
H 	H 	0.99120 0.51090 0.76240 0.08600
C 	C 	0.97770 0.52460 0.70480 0.06300
C 	C 	0.94000 0.56870 0.67840 -0.14900
H 	H 	0.94570 0.56000 0.65200 0.07300
C 	C 	0.89350 0.62600 0.69170 0.07500
H 	H 	0.86810 0.65400 0.67390 -0.02900
C 	C 	0.11610 0.37400 0.70440 0.06800
H 	H 	0.14320 0.35210 0.72240 -0.02700
C 	C 	0.07040 0.43030 0.71720 -0.13500
H 	H 	0.06740 0.44580 0.74340 0.06100
C 	C 	0.02860 0.46440 0.69210 0.04600
C 	C 	0.03700 0.43720 0.65320 -0.12700
H 	H 	0.01070 0.45890 0.63460 0.07600
C 	C 	0.08340 0.37910 0.64200 0.06600
H 	H 	0.08690 0.36030 0.61620 -0.01200
C 	C 	0.11780 0.13020 0.59720 0.06900
H 	H 	0.14520 0.15370 0.57980 -0.02600
C 	C 	0.07270 0.07050 0.58280 -0.14100
H 	H 	0.07030 0.05380 0.55680 0.06500
C 	C 	0.03140 0.03690 0.60910 0.05600
C 	C 	0.03700 0.06460 0.64730 -0.14100
H 	H 	0.00990 0.04380 0.66530 0.08200
C 	C 	0.08340 0.12390 0.65850 0.07800
H 	H 	0.08640 0.14250 0.68430 -0.01600
C 	C 	0.89770 0.87210 0.60850 0.07300
H 	H 	0.87180 0.84540 0.62620 -0.02400
C 	C 	0.94350 0.92960 0.62190 -0.14200
H 	H 	0.94870 0.93870 0.64830 0.07300
C 	C 	0.98190 0.97380 0.59580 0.05400
C 	C 	0.97200 0.95550 0.55730 -0.14200
H 	H 	0.99570 0.98520 0.53880 0.07900
C 	C 	0.92790 0.89460 0.54590 0.06900
H 	H 	0.92390 0.88030 0.51980 -0.01300
C 	C 	0.92850 0.63180 0.55540 0.08600
H 	H 	0.92550 0.64970 0.58130 -0.02000
C 	C 	0.97220 0.56740 0.54470 -0.14800
H 	H 	0.99860 0.54480 0.56290 0.08200
C 	C 	0.97690 0.53600 0.50640 0.05400
C 	C 	0.93740 0.57730 0.48090 -0.14600
H 	H 	0.93930 0.56130 0.45480 0.07300
C 	C 	0.89450 0.64300 0.49450 0.08100
H 	H 	0.86780 0.66880 0.47710 -0.02400
C 	C 	0.67500 0.92940 0.98310 -1.06200
H 	H 	0.63450 0.91740 0.98100 0.34800
H 	H 	0.68530 0.93670 0.00980 0.33300
H 	H 	0.68480 0.99090 0.96950 0.34700
C 	C 	0.70700 0.84110 0.96610 0.50700
C 	C 	0.67750 0.75570 0.95130 -0.34300
C 	C 	0.70750 0.67340 0.93490 0.47300
C 	C 	0.67660 0.58220 0.91710 -0.98700
H 	H 	0.63590 0.59180 0.91920 0.32500
H 	H 	0.68710 0.57620 0.89040 0.31200
H 	H 	0.68750 0.52090 0.93060 0.32500
C 	C 	0.61280 0.85170 0.88720 -0.81500
H 	H 	0.65360 0.84540 0.89060 0.25200
H 	H 	0.60180 0.82000 0.86330 0.25900
H 	H 	0.60250 0.92280 0.88660 0.26200
C 	C 	0.58200 0.79940 0.92050 0.35400
C 	C 	0.61350 0.75430 0.95100 -0.21000
C 	C 	0.58310 0.70700 0.97990 0.37600
C 	C 	0.61210 0.65850 0.01400 -0.86300
H 	H 	0.65300 0.66570 0.01150 0.26500
H 	H 	0.59960 0.69170 0.03720 0.27800
H 	H 	0.60230 0.58720 0.01500 0.27600
C 	C 	0.31100 0.40630 0.89390 -1.00200
H 	H 	0.35160 0.39700 0.89090 0.32700
H 	H 	0.30030 0.47300 0.88470 0.33200
H 	H 	0.30100 0.40030 0.92070 0.30900
C 	C 	0.27960 0.32640 0.87110 0.46200
C 	C 	0.30840 0.24990 0.84960 -0.32200
C 	C 	0.27850 0.17530 0.82850 0.48100
C 	C 	0.31020 0.09470 0.80650 -1.03100
H 	H 	0.35070 0.10390 0.81000 0.33700
H 	H 	0.29920 0.02840 0.81580 0.34200
H 	H 	0.30090 0.10000 0.77950 0.31600
C 	C 	0.37370 0.37180 0.79340 -0.90500
H 	H 	0.33290 0.36640 0.79660 0.28200
H 	H 	0.38510 0.44200 0.79630 0.29000
H 	H 	0.38420 0.34800 0.76820 0.28400
C 	C 	0.40310 0.30850 0.82320 0.39900
C 	C 	0.37290 0.25020 0.84950 -0.23600
C 	C 	0.40370 0.19330 0.87690 0.38000
C 	C 	0.37400 0.12970 0.90680 -0.86400
H 	H 	0.33320 0.13620 0.90380 0.26900
H 	H 	0.38480 0.05930 0.90370 0.27700
H 	H 	0.38500 0.15290 0.93210 0.26900
C 	C 	0.68340 0.90390 0.78920 -1.03000
H 	H 	0.64250 0.89610 0.78700 0.33500
H 	H 	0.69410 0.90340 0.81600 0.32000
H 	H 	0.69480 0.96770 0.77780 0.34200
C 	C 	0.71270 0.81720 0.76870 0.49500
C 	C 	0.68250 0.73740 0.74980 -0.36700
C 	C 	0.71080 0.65740 0.73230 0.53500
C 	C 	0.67800 0.57180 0.71450 -1.09200
H 	H 	0.63760 0.58510 0.71670 0.35500
H 	H 	0.68810 0.56590 0.68770 0.33800
H 	H 	0.68710 0.50910 0.72760 0.35800
C 	C 	0.61480 0.63940 0.81190 -0.82400
H 	H 	0.65570 0.64400 0.80920 0.25800
H 	H 	0.60330 0.66900 0.83600 0.26300
H 	H 	0.60330 0.56880 0.81120 0.26500
C 	C 	0.58610 0.69670 0.77890 0.35000
C 	C 	0.61850 0.74240 0.74980 -0.20000
C 	C 	0.58850 0.79340 0.72070 0.36700
C 	C 	0.61920 0.84880 0.68910 -0.84900
H 	H 	0.65980 0.83820 0.69170 0.26100
H 	H 	0.60650 0.82300 0.66450 0.26600
H 	H 	0.61090 0.92060 0.69070 0.27200
C 	C 	0.32930 0.42580 0.68230 -1.02700
H 	H 	0.36970 0.41230 0.68030 0.33700
H 	H 	0.32000 0.48680 0.66820 0.33500
H 	H 	0.31920 0.43490 0.70900 0.32100
C 	C 	0.29640 0.33780 0.66600 0.48000
C 	C 	0.32590 0.25030 0.65100 -0.32100
C 	C 	0.29600 0.16590 0.63560 0.47300
C 	C 	0.32750 0.07700 0.61850 -1.00900
H 	H 	0.36820 0.08840 0.62060 0.32900
H 	H 	0.31750 0.01570 0.63220 0.33000
H 	H 	0.31720 0.06990 0.59180 0.31700
C 	C 	0.39200 0.15190 0.71340 -0.89400
H 	H 	0.35110 0.15740 0.71090 0.27500
H 	H 	0.40280 0.08100 0.71370 0.28600
H 	H 	0.40410 0.18390 0.73700 0.28700
C 	C 	0.42010 0.20370 0.68000 0.39300
C 	C 	0.38960 0.25010 0.65070 -0.22800
C 	C 	0.42100 0.29690 0.61990 0.38600
C 	C 	0.38990 0.34940 0.58780 -0.87600
H 	H 	0.34920 0.34040 0.59110 0.26800
H 	H 	0.39890 0.42110 0.58820 0.27900
H 	H 	0.40150 0.32040 0.56360 0.27900
C 	C 	0.68430 0.91460 0.59120 -1.05300
H 	H 	0.64380 0.90370 0.58820 0.34300
H 	H 	0.69420 0.91150 0.61810 0.32500
H 	H 	0.69430 0.98070 0.58110 0.34800
C 	C 	0.71640 0.83380 0.56970 0.50000
C 	C 	0.68830 0.75520 0.54900 -0.35800
C 	C 	0.71800 0.68150 0.52880 0.51700
C 	C 	0.68720 0.59780 0.50750 -1.05600
H 	H 	0.64650 0.60640 0.51040 0.34200
H 	H 	0.69700 0.60070 0.48060 0.32600
H 	H 	0.69840 0.53260 0.51790 0.34800
C 	C 	0.62210 0.63870 0.60810 -0.95900
H 	H 	0.66280 0.64770 0.60560 0.29600
H 	H 	0.61010 0.66130 0.63320 0.30000
H 	H 	0.61260 0.56770 0.60490 0.30400
C 	C 	0.59270 0.69860 0.57850 0.42000
C 	C 	0.62350 0.75440 0.54910 -0.23300
C 	C 	0.59140 0.80760 0.52120 0.41700
C 	C 	0.61980 0.86890 0.49090 -0.93300
H 	H 	0.66070 0.86330 0.49360 0.29000
H 	H 	0.60850 0.84410 0.46590 0.29200
H 	H 	0.60870 0.93930 0.49340 0.29900
Cu	Cu	0.81725 0.75942 0.95149 0.89100
Cu	Cu	0.16804 0.25239 0.84989 0.88900
Cu	Cu	0.82217 0.73558 0.74861 0.89300
Cu	Cu	0.18620 0.25205 0.65059 0.89200
Cu	Cu	0.82763 0.75974 0.55032 0.89300
N 	N 	0.87990 0.85460 0.96950 -0.23700
N 	N 	0.87950 0.66450 0.93420 -0.23800
N 	N 	0.10560 0.34440 0.87081 -0.23700
N 	N 	0.10550 0.16110 0.82900 -0.23700
N 	N 	0.88480 0.82710 0.76694 -0.23700
N 	N 	0.88450 0.64190 0.72929 -0.23900
N 	N 	0.12380 0.34900 0.66722 -0.23300
N 	N 	0.12400 0.15550 0.63436 -0.23600
N 	N 	0.88940 0.85340 0.57080 -0.23300
N 	N 	0.89080 0.66960 0.53110 -0.24100
O 	O 	0.76070 0.85400 0.96827 -0.50700
O 	O 	0.76150 0.66420 0.93286 -0.49200
O 	O 	0.52690 0.80150 0.91987 -0.32800
O 	O 	0.52720 0.70230 0.97993 -0.32800
O 	O 	0.22430 0.33540 0.87416 -0.48400
O 	O 	0.22350 0.16890 0.82538 -0.49200
O 	O 	0.45990 0.30870 0.82235 -0.36100
O 	O 	0.45950 0.19130 0.87774 -0.32300
O 	O 	0.76730 0.82480 0.77098 -0.49600
O 	O 	0.76480 0.64480 0.73038 -0.51500
O 	O 	0.53030 0.69580 0.77935 -0.32700
O 	O 	0.53260 0.80070 0.72104 -0.33100
O 	O 	0.24200 0.34770 0.66728 -0.49800
O 	O 	0.24130 0.15590 0.63374 -0.49200
O 	O 	0.47610 0.20080 0.68039 -0.32400
O 	O 	0.47640 0.30220 0.61954 -0.34100
O 	O 	0.77110 0.84390 0.57259 -0.50100
O 	O 	0.77220 0.67540 0.52632 -0.50800
O 	O 	0.53730 0.69420 0.57829 -0.33400
O 	O 	0.53570 0.80720 0.52144 -0.36700
H 	H 	0.46400 0.25400 0.84600 0.18100
H 	H 	0.52800 0.74800 0.75010 0.17100
H 	H 	0.48200 0.26000 0.65000 0.16500
H 	H 	0.53100 0.74700 0.54400 0.17800
H 	H 	0.52600 0.75000 0.94940 0.16600
C 	C 	0.38850 0.62550 0.50650 0.07800
H 	H 	0.36210 0.64970 0.52450 -0.03100
C 	C 	0.43540 0.56970 0.51930 -0.14900
H 	H 	0.44040 0.55890 0.54560 0.07000
C 	C 	0.47410 0.53050 0.49390 0.05500
C 	C 	0.46420 0.55140 0.45430 -0.14100
H 	H 	0.48930 0.52660 0.43560 0.08000
C 	C 	0.41760 0.60800 0.44380 0.07600
H 	H 	0.41170 0.62130 0.41770 -0.02100
C 	C 	0.38460 0.86040 0.39760 0.08100
H 	H 	0.35810 0.83460 0.38000 -0.02900
C 	C 	0.42810 0.92370 0.38410 -0.14700
H 	H 	0.42930 0.94200 0.35820 0.07000
C 	C 	0.46960 0.95950 0.40940 0.05600
C 	C 	0.46340 0.93320 0.44830 -0.14400
H 	H 	0.48910 0.95770 0.46670 0.08300
C 	C 	0.41950 0.87170 0.45900 0.07800
H 	H 	0.41670 0.85330 0.48490 -0.01600
C 	C 	0.59910 0.13240 0.40790 0.08300
H 	H 	0.62500 0.15970 0.42560 -0.02500
C 	C 	0.55610 0.07020 0.42150 -0.14800
H 	H 	0.55380 0.05610 0.44780 0.07300
C 	C 	0.51650 0.02860 0.39650 0.05400
C 	C 	0.52380 0.05260 0.35730 -0.14300
H 	H 	0.49900 0.02560 0.33890 0.08000
C 	C 	0.56770 0.11570 0.34630 0.07500
H 	H 	0.57120 0.13170 0.32030 -0.01600
C 	C 	0.60160 0.36370 0.29250 0.08400
H 	H 	0.62830 0.33760 0.27510 -0.02500
C 	C 	0.55850 0.42830 0.27910 -0.14700
H 	H 	0.55620 0.44350 0.25290 0.07300
C 	C 	0.51900 0.47020 0.30420 0.05000
C 	C 	0.52360 0.44220 0.34350 -0.14100
H 	H 	0.49800 0.46730 0.36180 0.07800
C 	C 	0.56690 0.37720 0.35360 0.07300
H 	H 	0.56970 0.35820 0.37940 -0.01400
C 	C 	0.38970 0.64460 0.30400 0.07700
H 	H 	0.36280 0.66810 0.32170 -0.02300
C 	C 	0.43310 0.58190 0.31670 -0.14800
H 	H 	0.43590 0.56650 0.34280 0.07200
C 	C 	0.47270 0.54140 0.29140 0.05400
C 	C 	0.46670 0.56930 0.25240 -0.14500
H 	H 	0.49190 0.54410 0.23390 0.08200
C 	C 	0.42360 0.63360 0.24220 0.07700
H 	H 	0.42060 0.65180 0.21630 -0.01600
C 	C 	0.42080 0.90290 0.25360 0.09100
H 	H 	0.41390 0.89400 0.27980 -0.02600
C 	C 	0.46730 0.96070 0.24370 -0.15600
H 	H 	0.49120 0.98910 0.26240 0.08600
C 	C 	0.47770 0.97540 0.20480 0.06300
C 	C 	0.44000 0.93130 0.17840 -0.14900
H 	H 	0.44570 0.94000 0.15200 0.07400
C 	C 	0.39350 0.87400 0.19170 0.07500
H 	H 	0.36810 0.84600 0.17390 -0.02900
C 	C 	0.61610 0.12600 0.20440 0.06800
H 	H 	0.64320 0.14790 0.22240 -0.02700
C 	C 	0.57040 0.06970 0.21720 -0.13500
H 	H 	0.56740 0.05420 0.24340 0.06100
C 	C 	0.52860 0.03560 0.19210 0.04600
C 	C 	0.53700 0.06280 0.15320 -0.12700
H 	H 	0.51070 0.04110 0.13460 0.07700
C 	C 	0.58340 0.12090 0.14200 0.06700
H 	H 	0.58690 0.13970 0.11620 -0.01200
C 	C 	0.61780 0.36980 0.09720 0.06900
H 	H 	0.64520 0.34630 0.07980 -0.02600
C 	C 	0.57270 0.42950 0.08280 -0.14100
H 	H 	0.57030 0.44620 0.05680 0.06500
C 	C 	0.53140 0.46310 0.10910 0.05600
C 	C 	0.53700 0.43540 0.14730 -0.14100
H 	H 	0.50990 0.45620 0.16530 0.08200
C 	C 	0.58340 0.37610 0.15850 0.07800
H 	H 	0.58640 0.35750 0.18430 -0.01600
C 	C 	0.39770 0.62790 0.10850 0.07300
H 	H 	0.37180 0.65460 0.12620 -0.02400
C 	C 	0.44350 0.57040 0.12190 -0.14200
H 	H 	0.44870 0.56130 0.14830 0.07300
C 	C 	0.48190 0.52620 0.09580 0.05400
C 	C 	0.47200 0.54450 0.05730 -0.14200
H 	H 	0.49570 0.51480 0.03880 0.07900
C 	C 	0.42790 0.60540 0.04590 0.06900
H 	H 	0.42390 0.61970 0.01980 -0.01300
C 	C 	0.42850 0.86820 0.05540 0.08600
H 	H 	0.42550 0.85030 0.08130 -0.02000
C 	C 	0.47220 0.93260 0.04470 -0.14800
H 	H 	0.49860 0.95520 0.06290 0.08300
C 	C 	0.47690 0.96400 0.00640 0.05400
C 	C 	0.43740 0.92270 0.98090 -0.14600
H 	H 	0.43930 0.93870 0.95480 0.07300
C 	C 	0.39450 0.85700 0.99450 0.08100
H 	H 	0.36780 0.83120 0.97710 -0.02400
C 	C 	0.17500 0.57060 0.48310 -1.06200
H 	H 	0.13450 0.58260 0.48100 0.34800
H 	H 	0.18530 0.56330 0.50980 0.33300
H 	H 	0.18480 0.50910 0.46950 0.34700
C 	C 	0.20700 0.65890 0.46610 0.50700
C 	C 	0.17750 0.74430 0.45130 -0.34300
C 	C 	0.20750 0.82660 0.43490 0.47300
C 	C 	0.17660 0.91780 0.41710 -0.98700
H 	H 	0.13590 0.90820 0.41920 0.32500
H 	H 	0.18710 0.92380 0.39040 0.31200
H 	H 	0.18750 0.97910 0.43060 0.32500
C 	C 	0.11280 0.64830 0.38720 -0.81500
H 	H 	0.15360 0.65460 0.39060 0.25100
H 	H 	0.10180 0.68000 0.36330 0.25900
H 	H 	0.10250 0.57720 0.38660 0.26200
C 	C 	0.08200 0.70060 0.42050 0.35400
C 	C 	0.11350 0.74570 0.45100 -0.21000
C 	C 	0.08310 0.79300 0.47990 0.37600
C 	C 	0.11210 0.84150 0.51400 -0.86300
H 	H 	0.15300 0.83430 0.51150 0.26500
H 	H 	0.09960 0.80830 0.53720 0.27800
H 	H 	0.10230 0.91280 0.51500 0.27700
C 	C 	0.81100 0.09370 0.39390 -1.00200
H 	H 	0.85160 0.10300 0.39090 0.32700
H 	H 	0.80030 0.02700 0.38470 0.33200
H 	H 	0.80100 0.09970 0.42070 0.30900
C 	C 	0.77960 0.17360 0.37110 0.46200
C 	C 	0.80840 0.25010 0.34960 -0.32200
C 	C 	0.77850 0.32470 0.32850 0.48100
C 	C 	0.81020 0.40530 0.30650 -1.03000
H 	H 	0.85070 0.39610 0.31000 0.33700
H 	H 	0.79920 0.47160 0.31580 0.34200
H 	H 	0.80090 0.40000 0.27950 0.31600
C 	C 	0.87370 0.12820 0.29340 -0.90600
H 	H 	0.83290 0.13360 0.29660 0.28200
H 	H 	0.88510 0.05800 0.29630 0.29000
H 	H 	0.88420 0.15200 0.26820 0.28400
C 	C 	0.90310 0.19150 0.32320 0.39900
C 	C 	0.87290 0.24980 0.34950 -0.23600
C 	C 	0.90370 0.30670 0.37690 0.38000
C 	C 	0.87400 0.37030 0.40680 -0.86400
H 	H 	0.83320 0.36380 0.40380 0.26900
H 	H 	0.88480 0.44070 0.40370 0.27700
H 	H 	0.88500 0.34710 0.43210 0.26900
C 	C 	0.18340 0.59610 0.28920 -1.03000
H 	H 	0.14250 0.60390 0.28700 0.33500
H 	H 	0.19410 0.59660 0.31600 0.32000
H 	H 	0.19480 0.53230 0.27780 0.34200
C 	C 	0.21270 0.68280 0.26870 0.49400
C 	C 	0.18250 0.76260 0.24980 -0.36700
C 	C 	0.21080 0.84260 0.23230 0.53500
C 	C 	0.17800 0.92820 0.21450 -1.09200
H 	H 	0.13760 0.91490 0.21670 0.35500
H 	H 	0.18810 0.93410 0.18770 0.33800
H 	H 	0.18710 0.99090 0.22760 0.35800
C 	C 	0.11480 0.86060 0.31190 -0.82400
H 	H 	0.15570 0.85600 0.30920 0.25800
H 	H 	0.10330 0.83100 0.33600 0.26300
H 	H 	0.10330 0.93120 0.31120 0.26500
C 	C 	0.08610 0.80330 0.27890 0.35000
C 	C 	0.11850 0.75760 0.24980 -0.20000
C 	C 	0.08850 0.70660 0.22070 0.36700
C 	C 	0.11920 0.65120 0.18910 -0.84800
H 	H 	0.15980 0.66180 0.19170 0.26100
H 	H 	0.10650 0.67700 0.16450 0.26600
H 	H 	0.11090 0.57940 0.19070 0.27200
C 	C 	0.82930 0.07420 0.18230 -1.02800
H 	H 	0.86970 0.08770 0.18030 0.33700
H 	H 	0.82000 0.01320 0.16820 0.33600
H 	H 	0.81920 0.06510 0.20900 0.32100
C 	C 	0.79640 0.16220 0.16600 0.48000
C 	C 	0.82590 0.24970 0.15100 -0.32100
C 	C 	0.79600 0.33410 0.13560 0.47200
C 	C 	0.82750 0.42300 0.11850 -1.00800
H 	H 	0.86820 0.41160 0.12060 0.32900
H 	H 	0.81750 0.48430 0.13220 0.33000
H 	H 	0.81720 0.43010 0.09180 0.31700
C 	C 	0.89200 0.34810 0.21340 -0.89400
H 	H 	0.85110 0.34260 0.21090 0.27500
H 	H 	0.90280 0.41900 0.21370 0.28600
H 	H 	0.90410 0.31610 0.23700 0.28700
C 	C 	0.92010 0.29630 0.18000 0.39300
C 	C 	0.88960 0.24990 0.15070 -0.22800
C 	C 	0.92100 0.20310 0.11990 0.38600
C 	C 	0.88990 0.15060 0.08780 -0.87700
H 	H 	0.84920 0.15960 0.09110 0.26800
H 	H 	0.89890 0.07890 0.08820 0.27900
H 	H 	0.90150 0.17960 0.06360 0.27900
C 	C 	0.18430 0.58540 0.09120 -1.05300
H 	H 	0.14380 0.59630 0.08820 0.34300
H 	H 	0.19420 0.58850 0.11810 0.32500
H 	H 	0.19430 0.51930 0.08110 0.34700
C 	C 	0.21640 0.66620 0.06970 0.50000
C 	C 	0.18830 0.74480 0.04900 -0.35800
C 	C 	0.21800 0.81850 0.02880 0.51700
C 	C 	0.18720 0.90220 0.00750 -1.05600
H 	H 	0.14650 0.89360 0.01040 0.34200
H 	H 	0.19700 0.89930 0.98060 0.32600
H 	H 	0.19840 0.96740 0.01790 0.34800
C 	C 	0.12210 0.86130 0.10810 -0.96000
H 	H 	0.16280 0.85230 0.10560 0.29600
H 	H 	0.11010 0.83870 0.13320 0.30000
H 	H 	0.11260 0.93230 0.10490 0.30400
C 	C 	0.09270 0.80140 0.07850 0.42000
C 	C 	0.12350 0.74560 0.04910 -0.23300
C 	C 	0.09140 0.69240 0.02120 0.41700
C 	C 	0.11980 0.63110 0.99090 -0.93300
H 	H 	0.16070 0.63670 0.99360 0.29000
H 	H 	0.10850 0.65590 0.96590 0.29200
H 	H 	0.10870 0.56070 0.99340 0.29900
Cu	Cu	0.31725 0.74058 0.45149 0.89100
Cu	Cu	0.66804 0.24761 0.34989 0.88900
Cu	Cu	0.32217 0.76442 0.24861 0.89300
Cu	Cu	0.68620 0.24795 0.15059 0.89200
Cu	Cu	0.32763 0.74026 0.05032 0.89300
N 	N 	0.37990 0.64540 0.46950 -0.23700
N 	N 	0.37950 0.83550 0.43420 -0.23800
N 	N 	0.60560 0.15560 0.37081 -0.23700
N 	N 	0.60550 0.33890 0.32900 -0.23700
N 	N 	0.38480 0.67290 0.26694 -0.23700
N 	N 	0.38450 0.85810 0.22929 -0.23900
N 	N 	0.62380 0.15100 0.16722 -0.23300
N 	N 	0.62400 0.34450 0.13436 -0.23700
N 	N 	0.38940 0.64660 0.07080 -0.23300
N 	N 	0.39080 0.83040 0.03110 -0.24100
O 	O 	0.26070 0.64600 0.46827 -0.50700
O 	O 	0.26150 0.83580 0.43286 -0.49200
O 	O 	0.02690 0.69850 0.41987 -0.32800
O 	O 	0.02720 0.79770 0.47993 -0.32800
O 	O 	0.72430 0.16460 0.37416 -0.48400
O 	O 	0.72350 0.33110 0.32538 -0.49200
O 	O 	0.95990 0.19130 0.32235 -0.36200
O 	O 	0.95950 0.30870 0.37774 -0.32300
O 	O 	0.26730 0.67520 0.27098 -0.49600
O 	O 	0.26480 0.85520 0.23038 -0.51500
O 	O 	0.03030 0.80420 0.27935 -0.32700
O 	O 	0.03260 0.69930 0.22104 -0.33100
O 	O 	0.74200 0.15230 0.16728 -0.49800
O 	O 	0.74130 0.34410 0.13374 -0.49200
O 	O 	0.97610 0.29920 0.18039 -0.32400
O 	O 	0.97640 0.19780 0.11954 -0.34100
O 	O 	0.27110 0.65610 0.07259 -0.50100
O 	O 	0.27220 0.82460 0.02632 -0.50800
O 	O 	0.03730 0.80580 0.07829 -0.33400
O 	O 	0.03570 0.69280 0.02144 -0.36700
H 	H 	0.96400 0.24600 0.34600 0.18100
H 	H 	0.02800 0.75200 0.25010 0.17100
H 	H 	0.98200 0.24000 0.15000 0.16500
H 	H 	0.03100 0.75300 0.04400 0.17800
H 	H 	0.02600 0.75000 0.44940 0.16600
C 	C 	0.61150 0.37450 0.49350 0.07800
H 	H 	0.63790 0.35030 0.47550 -0.03100
C 	C 	0.56460 0.43030 0.48070 -0.14900
H 	H 	0.55960 0.44110 0.45440 0.07000
C 	C 	0.52590 0.46950 0.50610 0.05500
C 	C 	0.53580 0.44860 0.54570 -0.14100
H 	H 	0.51070 0.47340 0.56440 0.08000
C 	C 	0.58240 0.39200 0.55620 0.07600
H 	H 	0.58830 0.37870 0.58230 -0.02100
C 	C 	0.61540 0.13960 0.60240 0.08100
H 	H 	0.64190 0.16540 0.62000 -0.02900
C 	C 	0.57190 0.07630 0.61590 -0.14700
H 	H 	0.57070 0.05800 0.64180 0.07000
C 	C 	0.53040 0.04050 0.59060 0.05600
C 	C 	0.53660 0.06680 0.55170 -0.14400
H 	H 	0.51090 0.04230 0.53330 0.08300
C 	C 	0.58050 0.12830 0.54100 0.07800
H 	H 	0.58330 0.14670 0.51510 -0.01600
C 	C 	0.40090 0.86760 0.59210 0.08300
H 	H 	0.37500 0.84030 0.57440 -0.02500
C 	C 	0.44390 0.92980 0.57850 -0.14800
H 	H 	0.44620 0.94390 0.55220 0.07300
C 	C 	0.48350 0.97140 0.60350 0.05400
C 	C 	0.47620 0.94740 0.64270 -0.14300
H 	H 	0.50100 0.97440 0.66110 0.08000
C 	C 	0.43230 0.88430 0.65370 0.07500
H 	H 	0.42880 0.86830 0.67970 -0.01600
C 	C 	0.39840 0.63630 0.70750 0.08400
H 	H 	0.37170 0.66240 0.72490 -0.02500
C 	C 	0.44150 0.57170 0.72090 -0.14700
H 	H 	0.44380 0.55650 0.74710 0.07300
C 	C 	0.48100 0.52980 0.69580 0.05000
C 	C 	0.47640 0.55780 0.65650 -0.14100
H 	H 	0.50200 0.53270 0.63820 0.07800
C 	C 	0.43310 0.62280 0.64640 0.07300
H 	H 	0.43030 0.64180 0.62060 -0.01400
C 	C 	0.61030 0.35540 0.69600 0.07700
H 	H 	0.63720 0.33190 0.67830 -0.02300
C 	C 	0.56690 0.41810 0.68330 -0.14800
H 	H 	0.56410 0.43350 0.65720 0.07200
C 	C 	0.52730 0.45860 0.70860 0.05400
C 	C 	0.53330 0.43070 0.74760 -0.14500
H 	H 	0.50810 0.45590 0.76610 0.08200
C 	C 	0.57640 0.36640 0.75780 0.07700
H 	H 	0.57940 0.34820 0.78370 -0.01600
C 	C 	0.57920 0.09710 0.74640 0.09100
H 	H 	0.58610 0.10600 0.72020 -0.02600
C 	C 	0.53270 0.03930 0.75630 -0.15600
H 	H 	0.50880 0.01090 0.73760 0.08600
C 	C 	0.52230 0.02460 0.79520 0.06300
C 	C 	0.56000 0.06870 0.82160 -0.14900
H 	H 	0.55430 0.06000 0.84800 0.07400
C 	C 	0.60650 0.12600 0.80830 0.07500
H 	H 	0.63190 0.15400 0.82610 -0.02900
C 	C 	0.38390 0.87400 0.79560 0.06800
H 	H 	0.35680 0.85210 0.77760 -0.02700
C 	C 	0.42960 0.93030 0.78280 -0.13500
H 	H 	0.43260 0.94580 0.75660 0.06100
C 	C 	0.47140 0.96440 0.80790 0.04600
C 	C 	0.46300 0.93720 0.84680 -0.12700
H 	H 	0.48930 0.95890 0.86540 0.07700
C 	C 	0.41660 0.87910 0.85800 0.06700
H 	H 	0.41310 0.86030 0.88380 -0.01200
C 	C 	0.38220 0.63020 0.90280 0.06900
H 	H 	0.35480 0.65370 0.92020 -0.02600
C 	C 	0.42730 0.57050 0.91720 -0.14100
H 	H 	0.42970 0.55380 0.94320 0.06500
C 	C 	0.46860 0.53690 0.89090 0.05600
C 	C 	0.46300 0.56460 0.85270 -0.14100
H 	H 	0.49010 0.54380 0.83470 0.08200
C 	C 	0.41660 0.62390 0.84150 0.07800
H 	H 	0.41360 0.64250 0.81570 -0.01600
C 	C 	0.60230 0.37210 0.89150 0.07300
H 	H 	0.62820 0.34540 0.87380 -0.02400
C 	C 	0.55650 0.42960 0.87810 -0.14200
H 	H 	0.55130 0.43870 0.85170 0.07300
C 	C 	0.51810 0.47380 0.90420 0.05400
C 	C 	0.52800 0.45550 0.94270 -0.14200
H 	H 	0.50430 0.48520 0.96120 0.07900
C 	C 	0.57210 0.39460 0.95410 0.06900
H 	H 	0.57610 0.38030 0.98020 -0.01300
C 	C 	0.57150 0.13180 0.94460 0.08600
H 	H 	0.57450 0.14970 0.91870 -0.02000
C 	C 	0.52780 0.06740 0.95530 -0.14800
H 	H 	0.50140 0.04480 0.93710 0.08300
C 	C 	0.52310 0.03600 0.99360 0.05400
C 	C 	0.56260 0.07730 0.01910 -0.14600
H 	H 	0.56070 0.06130 0.04520 0.07300
C 	C 	0.60550 0.14300 0.00550 0.08100
H 	H 	0.63220 0.16880 0.02290 -0.02400
C 	C 	0.82500 0.42940 0.51690 -1.06200
H 	H 	0.86550 0.41740 0.51900 0.34800
H 	H 	0.81470 0.43670 0.49020 0.33300
H 	H 	0.81520 0.49090 0.53050 0.34700
C 	C 	0.79300 0.34110 0.53390 0.50700
C 	C 	0.82250 0.25570 0.54870 -0.34300
C 	C 	0.79250 0.17340 0.56510 0.47300
C 	C 	0.82340 0.08220 0.58290 -0.98700
H 	H 	0.86410 0.09180 0.58080 0.32500
H 	H 	0.81290 0.07620 0.60960 0.31200
H 	H 	0.81250 0.02090 0.56940 0.32500
C 	C 	0.88720 0.35170 0.61280 -0.81500
H 	H 	0.84640 0.34540 0.60940 0.25100
H 	H 	0.89820 0.32000 0.63670 0.25900
H 	H 	0.89750 0.42280 0.61340 0.26200
C 	C 	0.91800 0.29940 0.57950 0.35400
C 	C 	0.88650 0.25430 0.54900 -0.21000
C 	C 	0.91690 0.20700 0.52010 0.37600
C 	C 	0.88790 0.15850 0.48600 -0.86300
H 	H 	0.84700 0.16570 0.48850 0.26500
H 	H 	0.90040 0.19170 0.46280 0.27800
H 	H 	0.89770 0.08720 0.48500 0.27700
C 	C 	0.18900 0.90630 0.60610 -1.00200
H 	H 	0.14840 0.89700 0.60910 0.32700
H 	H 	0.19970 0.97300 0.61530 0.33200
H 	H 	0.19900 0.90030 0.57930 0.30900
C 	C 	0.22040 0.82640 0.62890 0.46200
C 	C 	0.19160 0.74990 0.65040 -0.32200
C 	C 	0.22150 0.67530 0.67150 0.48100
C 	C 	0.18980 0.59470 0.69350 -1.03000
H 	H 	0.14930 0.60390 0.69000 0.33700
H 	H 	0.20080 0.52840 0.68420 0.34200
H 	H 	0.19910 0.60000 0.72050 0.31600
C 	C 	0.12630 0.87180 0.70660 -0.90600
H 	H 	0.16710 0.86640 0.70340 0.28200
H 	H 	0.11490 0.94200 0.70370 0.29000
H 	H 	0.11580 0.84800 0.73180 0.28400
C 	C 	0.09690 0.80850 0.67680 0.39900
C 	C 	0.12710 0.75020 0.65050 -0.23600
C 	C 	0.09630 0.69330 0.62310 0.38000
C 	C 	0.12600 0.62970 0.59320 -0.86400
H 	H 	0.16680 0.63620 0.59620 0.26900
H 	H 	0.11520 0.55930 0.59630 0.27700
H 	H 	0.11500 0.65290 0.56790 0.26900
C 	C 	0.81660 0.40390 0.71080 -1.03000
H 	H 	0.85750 0.39610 0.71300 0.33500
H 	H 	0.80590 0.40340 0.68400 0.32000
H 	H 	0.80520 0.46770 0.72220 0.34200
C 	C 	0.78730 0.31720 0.73130 0.49400
C 	C 	0.81750 0.23740 0.75020 -0.36700
C 	C 	0.78920 0.15740 0.76770 0.53500
C 	C 	0.82200 0.07180 0.78550 -1.09200
H 	H 	0.86240 0.08510 0.78330 0.35500
H 	H 	0.81190 0.06590 0.81230 0.33800
H 	H 	0.81290 0.00910 0.77240 0.35800
C 	C 	0.88520 0.13940 0.68810 -0.82400
H 	H 	0.84430 0.14400 0.69080 0.25800
H 	H 	0.89670 0.16900 0.66400 0.26300
H 	H 	0.89670 0.06880 0.68880 0.26500
C 	C 	0.91390 0.19670 0.72110 0.35000
C 	C 	0.88150 0.24240 0.75020 -0.20000
C 	C 	0.91150 0.29340 0.77930 0.36700
C 	C 	0.88080 0.34880 0.81090 -0.84800
H 	H 	0.84020 0.33820 0.80830 0.26100
H 	H 	0.89350 0.32300 0.83550 0.26600
H 	H 	0.88910 0.42060 0.80930 0.27200
C 	C 	0.17070 0.92580 0.81770 -1.02800
H 	H 	0.13030 0.91230 0.81970 0.33700
H 	H 	0.18000 0.98680 0.83180 0.33600
H 	H 	0.18080 0.93490 0.79100 0.32100
C 	C 	0.20360 0.83780 0.83400 0.48000
C 	C 	0.17410 0.75030 0.84900 -0.32100
C 	C 	0.20400 0.66590 0.86440 0.47200
C 	C 	0.17250 0.57700 0.88150 -1.00800
H 	H 	0.13180 0.58840 0.87940 0.32900
H 	H 	0.18250 0.51570 0.86780 0.33000
H 	H 	0.18280 0.56990 0.90820 0.31700
C 	C 	0.10800 0.65190 0.78660 -0.89400
H 	H 	0.14890 0.65740 0.78910 0.27500
H 	H 	0.09720 0.58100 0.78630 0.28600
H 	H 	0.09590 0.68390 0.76300 0.28700
C 	C 	0.07990 0.70370 0.82000 0.39300
C 	C 	0.11040 0.75010 0.84930 -0.22800
C 	C 	0.07900 0.79690 0.88010 0.38600
C 	C 	0.11010 0.84940 0.91220 -0.87700
H 	H 	0.15080 0.84040 0.90890 0.26800
H 	H 	0.10110 0.92110 0.91180 0.27900
H 	H 	0.09850 0.82040 0.93640 0.27900
C 	C 	0.81570 0.41460 0.90880 -1.05300
H 	H 	0.85620 0.40370 0.91180 0.34300
H 	H 	0.80580 0.41150 0.88190 0.32500
H 	H 	0.80570 0.48070 0.91890 0.34700
C 	C 	0.78360 0.33380 0.93030 0.50000
C 	C 	0.81170 0.25520 0.95100 -0.35800
C 	C 	0.78200 0.18150 0.97120 0.51700
C 	C 	0.81280 0.09780 0.99250 -1.05600
H 	H 	0.85350 0.10640 0.98960 0.34200
H 	H 	0.80300 0.10070 0.01940 0.32600
H 	H 	0.80160 0.03260 0.98210 0.34800
C 	C 	0.87790 0.13870 0.89190 -0.96000
H 	H 	0.83720 0.14770 0.89440 0.29600
H 	H 	0.88990 0.16130 0.86680 0.30000
H 	H 	0.88740 0.06770 0.89510 0.30400
C 	C 	0.90730 0.19860 0.92150 0.42000
C 	C 	0.87650 0.25440 0.95090 -0.23300
C 	C 	0.90860 0.30760 0.97880 0.41700
C 	C 	0.88020 0.36890 0.00910 -0.93300
H 	H 	0.83930 0.36330 0.00640 0.29000
H 	H 	0.89150 0.34410 0.03410 0.29200
H 	H 	0.89130 0.43930 0.00660 0.29900
Cu	Cu	0.68275 0.25942 0.54851 0.89100
Cu	Cu	0.33196 0.75239 0.65011 0.88900
Cu	Cu	0.67783 0.23558 0.75139 0.89300
Cu	Cu	0.31380 0.75205 0.84941 0.89200
Cu	Cu	0.67237 0.25974 0.94968 0.89300
N 	N 	0.62010 0.35460 0.53050 -0.23700
N 	N 	0.62050 0.16450 0.56580 -0.23800
N 	N 	0.39440 0.84440 0.62919 -0.23700
N 	N 	0.39450 0.66110 0.67100 -0.23700
N 	N 	0.61520 0.32710 0.73306 -0.23700
N 	N 	0.61550 0.14190 0.77071 -0.23900
N 	N 	0.37620 0.84900 0.83278 -0.23300
N 	N 	0.37600 0.65550 0.86564 -0.23700
N 	N 	0.61060 0.35340 0.92920 -0.23300
N 	N 	0.60920 0.16960 0.96890 -0.24100
O 	O 	0.73930 0.35400 0.53173 -0.50700
O 	O 	0.73850 0.16420 0.56714 -0.49200
O 	O 	0.97310 0.30150 0.58013 -0.32800
O 	O 	0.97280 0.20230 0.52007 -0.32800
O 	O 	0.27570 0.83540 0.62584 -0.48400
O 	O 	0.27650 0.66890 0.67462 -0.49200
O 	O 	0.04010 0.80870 0.67765 -0.36200
O 	O 	0.04050 0.69130 0.62226 -0.32300
O 	O 	0.73270 0.32480 0.72902 -0.49600
O 	O 	0.73520 0.14480 0.76962 -0.51500
O 	O 	0.96970 0.19580 0.72065 -0.32700
O 	O 	0.96740 0.30070 0.77896 -0.33100
O 	O 	0.25800 0.84770 0.83272 -0.49800
O 	O 	0.25870 0.65590 0.86626 -0.49200
O 	O 	0.02390 0.70080 0.81961 -0.32400
O 	O 	0.02360 0.80220 0.88046 -0.34100
O 	O 	0.72890 0.34390 0.92741 -0.50100
O 	O 	0.72780 0.17540 0.97368 -0.50800
O 	O 	0.96270 0.19420 0.92171 -0.33400
O 	O 	0.96430 0.30720 0.97856 -0.36700
H 	H 	0.03600 0.75400 0.65400 0.18100
H 	H 	0.97200 0.24800 0.74990 0.17100
H 	H 	0.01800 0.76000 0.85000 0.16500
H 	H 	0.96900 0.24700 0.95600 0.17800
H 	H 	0.97400 0.25000 0.55060 0.16600
