data_crystal

_cell_length_a 21.95240
_cell_length_b 21.95240
_cell_length_c 21.95240
_cell_angle_alpha 90.00000
_cell_angle_beta  90.00000
_cell_angle_gamma 90.00000

_symmetry_space_group_name_	'P 1'
_symmetry_space_group_name_H-M	'P 1'

loop_
_symmetry_equiv_pos_as_xyz
  x,y,z

loop_
_atom_site_label
_atom_site_type_symbol
_atom_site_fract_x
_atom_site_fract_y
_atom_site_fract_z
_atom_site_charge
Fe	Fe	0.76066 0.30344 0.17957 1.22300
O 	O 	0.74559 0.24928 0.10690 -0.43100
O 	O 	0.70377 0.16589 0.14920 -0.43400
O 	O 	0.72652 0.26260 0.87422 -0.43200
O 	O 	0.68617 0.18110 0.82914 -0.44200
C 	C 	0.72181 0.19730 0.10426 0.37500
C 	C 	0.70610 0.20900 0.87463 0.38700
C 	C 	0.71590 0.20280 0.98946 0.02100
H 	H 	0.72390 0.24440 0.99130 0.04700
C 	C 	0.71350 0.16890 0.04274 -0.07300
C 	C 	0.70620 0.17500 0.93328 -0.07900
C 	C 	0.69710 0.11280 0.93005 -0.05600
H 	H 	0.69150 0.09380 0.89260 0.07500
C 	C 	0.69640 0.07940 0.98370 0.08700
C 	C 	0.70360 0.10720 0.04000 -0.05700
H 	H 	0.70180 0.08420 0.07550 0.07900
N 	N 	0.69260 0.01372 0.97621 -0.08300
Fe	Fe	0.23934 0.69656 0.17957 1.22400
O 	O 	0.25441 0.75072 0.10690 -0.43000
O 	O 	0.29623 0.83411 0.14920 -0.43300
O 	O 	0.27348 0.73740 0.87422 -0.43100
O 	O 	0.31383 0.81890 0.82914 -0.44100
C 	C 	0.27819 0.80270 0.10426 0.37600
C 	C 	0.29390 0.79100 0.87463 0.38800
C 	C 	0.28410 0.79720 0.98946 0.02200
H 	H 	0.27610 0.75560 0.99130 0.04700
C 	C 	0.28650 0.83110 0.04274 -0.07300
C 	C 	0.29380 0.82500 0.93328 -0.07900
C 	C 	0.30290 0.88720 0.93005 -0.05600
H 	H 	0.30850 0.90620 0.89260 0.07500
C 	C 	0.30360 0.92060 0.98370 0.08700
C 	C 	0.29640 0.89280 0.04000 -0.05700
H 	H 	0.29820 0.91580 0.07550 0.07900
N 	N 	0.30740 0.98628 0.97621 -0.08300
Fe	Fe	0.23934 0.30344 0.82043 1.22400
O 	O 	0.25441 0.24928 0.89310 -0.43000
O 	O 	0.29623 0.16589 0.85080 -0.43300
O 	O 	0.27348 0.26260 0.12578 -0.43100
O 	O 	0.31383 0.18110 0.17086 -0.44100
C 	C 	0.27819 0.19730 0.89574 0.37600
C 	C 	0.29390 0.20900 0.12537 0.38800
C 	C 	0.28410 0.20280 0.01054 0.02200
H 	H 	0.27610 0.24440 0.00870 0.04700
C 	C 	0.28650 0.16890 0.95726 -0.07300
C 	C 	0.29380 0.17500 0.06672 -0.07900
C 	C 	0.30290 0.11280 0.06995 -0.05600
H 	H 	0.30850 0.09380 0.10740 0.07500
C 	C 	0.30360 0.07940 0.01630 0.08700
C 	C 	0.29640 0.10720 0.96000 -0.05700
H 	H 	0.29820 0.08420 0.92450 0.07900
N 	N 	0.30740 0.01372 0.02379 -0.08300
Fe	Fe	0.76066 0.69656 0.82043 1.22400
O 	O 	0.74559 0.75072 0.89310 -0.43000
O 	O 	0.70377 0.83411 0.85080 -0.43300
O 	O 	0.72652 0.73740 0.12578 -0.43100
O 	O 	0.68617 0.81890 0.17086 -0.44100
C 	C 	0.72181 0.80270 0.89574 0.37600
C 	C 	0.70610 0.79100 0.12537 0.38800
C 	C 	0.71590 0.79720 0.01054 0.02200
H 	H 	0.72390 0.75560 0.00870 0.04700
C 	C 	0.71350 0.83110 0.95726 -0.07300
C 	C 	0.70620 0.82500 0.06672 -0.07900
C 	C 	0.69710 0.88720 0.06995 -0.05600
H 	H 	0.69150 0.90620 0.10740 0.07500
C 	C 	0.69640 0.92060 0.01630 0.08700
C 	C 	0.70360 0.89280 0.96000 -0.05700
H 	H 	0.70180 0.91580 0.92450 0.07900
N 	N 	0.69260 0.98628 0.02379 -0.08300
Fe	Fe	0.17957 0.76066 0.30344 1.22400
O 	O 	0.10690 0.74559 0.24928 -0.43000
O 	O 	0.14920 0.70377 0.16589 -0.43300
O 	O 	0.87422 0.72652 0.26260 -0.43100
O 	O 	0.82914 0.68617 0.18110 -0.44100
C 	C 	0.10426 0.72181 0.19730 0.37600
C 	C 	0.87463 0.70610 0.20900 0.38800
C 	C 	0.98946 0.71590 0.20280 0.02200
H 	H 	0.99130 0.72390 0.24440 0.04700
C 	C 	0.04274 0.71350 0.16890 -0.07300
C 	C 	0.93328 0.70620 0.17500 -0.07900
C 	C 	0.93005 0.69710 0.11280 -0.05600
H 	H 	0.89260 0.69150 0.09380 0.07500
C 	C 	0.98370 0.69640 0.07940 0.08700
C 	C 	0.04000 0.70360 0.10720 -0.05700
H 	H 	0.07550 0.70180 0.08420 0.07900
N 	N 	0.97621 0.69260 0.01372 -0.08300
Fe	Fe	0.17957 0.23934 0.69656 1.22400
O 	O 	0.10690 0.25441 0.75072 -0.43000
O 	O 	0.14920 0.29623 0.83411 -0.43300
O 	O 	0.87422 0.27348 0.73740 -0.43100
O 	O 	0.82914 0.31383 0.81890 -0.44100
C 	C 	0.10426 0.27819 0.80270 0.37600
C 	C 	0.87463 0.29390 0.79100 0.38800
C 	C 	0.98946 0.28410 0.79720 0.02200
H 	H 	0.99130 0.27610 0.75560 0.04700
C 	C 	0.04274 0.28650 0.83110 -0.07300
C 	C 	0.93328 0.29380 0.82500 -0.07900
C 	C 	0.93005 0.30290 0.88720 -0.05600
H 	H 	0.89260 0.30850 0.90620 0.07500
C 	C 	0.98370 0.30360 0.92060 0.08700
C 	C 	0.04000 0.29640 0.89280 -0.05700
H 	H 	0.07550 0.29820 0.91580 0.07900
N 	N 	0.97621 0.30740 0.98628 -0.08300
Fe	Fe	0.82043 0.23934 0.30344 1.22400
O 	O 	0.89310 0.25441 0.24928 -0.43000
O 	O 	0.85080 0.29623 0.16589 -0.43300
O 	O 	0.12578 0.27348 0.26260 -0.43100
O 	O 	0.17086 0.31383 0.18110 -0.44100
C 	C 	0.89574 0.27819 0.19730 0.37600
C 	C 	0.12537 0.29390 0.20900 0.38800
C 	C 	0.01054 0.28410 0.20280 0.02200
H 	H 	0.00870 0.27610 0.24440 0.04700
C 	C 	0.95726 0.28650 0.16890 -0.07300
C 	C 	0.06672 0.29380 0.17500 -0.07900
C 	C 	0.06995 0.30290 0.11280 -0.05600
H 	H 	0.10740 0.30850 0.09380 0.07500
C 	C 	0.01630 0.30360 0.07940 0.08700
C 	C 	0.96000 0.29640 0.10720 -0.05700
H 	H 	0.92450 0.29820 0.08420 0.07900
N 	N 	0.02379 0.30740 0.01372 -0.08300
Fe	Fe	0.82043 0.76066 0.69656 1.22400
O 	O 	0.89310 0.74559 0.75072 -0.43000
O 	O 	0.85080 0.70377 0.83411 -0.43300
O 	O 	0.12578 0.72652 0.73740 -0.43100
O 	O 	0.17086 0.68617 0.81890 -0.44100
C 	C 	0.89574 0.72181 0.80270 0.37600
C 	C 	0.12537 0.70610 0.79100 0.38800
C 	C 	0.01054 0.71590 0.79720 0.02200
H 	H 	0.00870 0.72390 0.75560 0.04700
C 	C 	0.95726 0.71350 0.83110 -0.07300
C 	C 	0.06672 0.70620 0.82500 -0.07900
C 	C 	0.06995 0.69710 0.88720 -0.05600
H 	H 	0.10740 0.69150 0.90620 0.07500
C 	C 	0.01630 0.69640 0.92060 0.08700
C 	C 	0.96000 0.70360 0.89280 -0.05700
H 	H 	0.92450 0.70180 0.91580 0.07900
N 	N 	0.02379 0.69260 0.98628 -0.08300
Fe	Fe	0.30344 0.17957 0.76066 1.22400
O 	O 	0.24928 0.10690 0.74559 -0.43000
O 	O 	0.16589 0.14920 0.70377 -0.43300
O 	O 	0.26260 0.87422 0.72652 -0.43100
O 	O 	0.18110 0.82914 0.68617 -0.44100
C 	C 	0.19730 0.10426 0.72181 0.37600
C 	C 	0.20900 0.87463 0.70610 0.38800
C 	C 	0.20280 0.98946 0.71590 0.02200
H 	H 	0.24440 0.99130 0.72390 0.04700
C 	C 	0.16890 0.04274 0.71350 -0.07300
C 	C 	0.17500 0.93328 0.70620 -0.07900
C 	C 	0.11280 0.93005 0.69710 -0.05600
H 	H 	0.09380 0.89260 0.69150 0.07500
C 	C 	0.07940 0.98370 0.69640 0.08700
C 	C 	0.10720 0.04000 0.70360 -0.05700
H 	H 	0.08420 0.07550 0.70180 0.07900
N 	N 	0.01372 0.97621 0.69260 -0.08300
Fe	Fe	0.69656 0.17957 0.23934 1.22400
O 	O 	0.75072 0.10690 0.25441 -0.43000
O 	O 	0.83411 0.14920 0.29623 -0.43300
O 	O 	0.73740 0.87422 0.27348 -0.43100
O 	O 	0.81890 0.82914 0.31383 -0.44100
C 	C 	0.80270 0.10426 0.27819 0.37600
C 	C 	0.79100 0.87463 0.29390 0.38800
C 	C 	0.79720 0.98946 0.28410 0.02200
H 	H 	0.75560 0.99130 0.27610 0.04700
C 	C 	0.83110 0.04274 0.28650 -0.07300
C 	C 	0.82500 0.93328 0.29380 -0.07900
C 	C 	0.88720 0.93005 0.30290 -0.05600
H 	H 	0.90620 0.89260 0.30850 0.07500
C 	C 	0.92060 0.98370 0.30360 0.08700
C 	C 	0.89280 0.04000 0.29640 -0.05700
H 	H 	0.91580 0.07550 0.29820 0.07900
N 	N 	0.98628 0.97621 0.30740 -0.08300
Fe	Fe	0.30344 0.82043 0.23934 1.22400
O 	O 	0.24928 0.89310 0.25441 -0.43000
O 	O 	0.16589 0.85080 0.29623 -0.43300
O 	O 	0.26260 0.12578 0.27348 -0.43100
O 	O 	0.18110 0.17086 0.31383 -0.44100
C 	C 	0.19730 0.89574 0.27819 0.37600
C 	C 	0.20900 0.12537 0.29390 0.38800
C 	C 	0.20280 0.01054 0.28410 0.02200
H 	H 	0.24440 0.00870 0.27610 0.04700
C 	C 	0.16890 0.95726 0.28650 -0.07300
C 	C 	0.17500 0.06672 0.29380 -0.07900
C 	C 	0.11280 0.06995 0.30290 -0.05600
H 	H 	0.09380 0.10740 0.30850 0.07500
C 	C 	0.07940 0.01630 0.30360 0.08700
C 	C 	0.10720 0.96000 0.29640 -0.05700
H 	H 	0.08420 0.92450 0.29820 0.07900
N 	N 	0.01372 0.02379 0.30740 -0.08300
Fe	Fe	0.69656 0.82043 0.76066 1.22400
O 	O 	0.75072 0.89310 0.74559 -0.43000
O 	O 	0.83411 0.85080 0.70377 -0.43300
O 	O 	0.73740 0.12578 0.72652 -0.43100
O 	O 	0.81890 0.17086 0.68617 -0.44100
C 	C 	0.80270 0.89574 0.72181 0.37600
C 	C 	0.79100 0.12537 0.70610 0.38800
C 	C 	0.79720 0.01054 0.71590 0.02200
H 	H 	0.75560 0.00870 0.72390 0.04700
C 	C 	0.83110 0.95726 0.71350 -0.07300
C 	C 	0.82500 0.06672 0.70620 -0.07900
C 	C 	0.88720 0.06995 0.69710 -0.05600
H 	H 	0.90620 0.10740 0.69150 0.07500
C 	C 	0.92060 0.01630 0.69640 0.08700
C 	C 	0.89280 0.96000 0.70360 -0.05700
H 	H 	0.91580 0.92450 0.70180 0.07900
N 	N 	0.98628 0.02379 0.69260 -0.08300
Fe	Fe	0.80344 0.26066 0.67957 1.22400
O 	O 	0.74928 0.24559 0.60690 -0.43000
O 	O 	0.66589 0.20377 0.64920 -0.43300
O 	O 	0.76260 0.22652 0.37422 -0.43100
O 	O 	0.68110 0.18617 0.32914 -0.44100
C 	C 	0.69730 0.22181 0.60426 0.37600
C 	C 	0.70900 0.20610 0.37463 0.38800
C 	C 	0.70280 0.21590 0.48946 0.02200
H 	H 	0.74440 0.22390 0.49130 0.04700
C 	C 	0.66890 0.21350 0.54274 -0.07300
C 	C 	0.67500 0.20620 0.43328 -0.07900
C 	C 	0.61280 0.19710 0.43005 -0.05600
H 	H 	0.59380 0.19150 0.39260 0.07500
C 	C 	0.57940 0.19640 0.48370 0.08700
C 	C 	0.60720 0.20360 0.54000 -0.05700
H 	H 	0.58420 0.20180 0.57550 0.07900
N 	N 	0.51372 0.19260 0.47621 -0.08300
Fe	Fe	0.19656 0.73934 0.67957 1.22400
O 	O 	0.25072 0.75441 0.60690 -0.43000
O 	O 	0.33411 0.79623 0.64920 -0.43300
O 	O 	0.23740 0.77348 0.37422 -0.43100
O 	O 	0.31890 0.81383 0.32914 -0.44100
C 	C 	0.30270 0.77819 0.60426 0.37600
C 	C 	0.29100 0.79390 0.37463 0.38800
C 	C 	0.29720 0.78410 0.48946 0.02200
H 	H 	0.25560 0.77610 0.49130 0.04700
C 	C 	0.33110 0.78650 0.54274 -0.07300
C 	C 	0.32500 0.79380 0.43328 -0.07900
C 	C 	0.38720 0.80290 0.43005 -0.05600
H 	H 	0.40620 0.80850 0.39260 0.07500
C 	C 	0.42060 0.80360 0.48370 0.08700
C 	C 	0.39280 0.79640 0.54000 -0.05700
H 	H 	0.41580 0.79820 0.57550 0.07900
N 	N 	0.48628 0.80740 0.47621 -0.08300
Fe	Fe	0.80344 0.73934 0.32043 1.22400
O 	O 	0.74928 0.75441 0.39310 -0.43000
O 	O 	0.66589 0.79623 0.35080 -0.43300
O 	O 	0.76260 0.77348 0.62578 -0.43100
O 	O 	0.68110 0.81383 0.67086 -0.44100
C 	C 	0.69730 0.77819 0.39574 0.37600
C 	C 	0.70900 0.79390 0.62537 0.38800
C 	C 	0.70280 0.78410 0.51054 0.02200
H 	H 	0.74440 0.77610 0.50870 0.04700
C 	C 	0.66890 0.78650 0.45726 -0.07300
C 	C 	0.67500 0.79380 0.56672 -0.07900
C 	C 	0.61280 0.80290 0.56995 -0.05600
H 	H 	0.59380 0.80850 0.60740 0.07500
C 	C 	0.57940 0.80360 0.51630 0.08700
C 	C 	0.60720 0.79640 0.46000 -0.05700
H 	H 	0.58420 0.79820 0.42450 0.07900
N 	N 	0.51372 0.80740 0.52379 -0.08300
Fe	Fe	0.19656 0.26066 0.32043 1.22400
O 	O 	0.25072 0.24559 0.39310 -0.43000
O 	O 	0.33411 0.20377 0.35080 -0.43300
O 	O 	0.23740 0.22652 0.62578 -0.43100
O 	O 	0.31890 0.18617 0.67086 -0.44100
C 	C 	0.30270 0.22181 0.39574 0.37600
C 	C 	0.29100 0.20610 0.62537 0.38800
C 	C 	0.29720 0.21590 0.51054 0.02200
H 	H 	0.25560 0.22390 0.50870 0.04700
C 	C 	0.33110 0.21350 0.45726 -0.07300
C 	C 	0.32500 0.20620 0.56672 -0.07900
C 	C 	0.38720 0.19710 0.56995 -0.05600
H 	H 	0.40620 0.19150 0.60740 0.07500
C 	C 	0.42060 0.19640 0.51630 0.08700
C 	C 	0.39280 0.20360 0.46000 -0.05700
H 	H 	0.41580 0.20180 0.42450 0.07900
N 	N 	0.48628 0.19260 0.52379 -0.08300
Fe	Fe	0.26066 0.67957 0.80344 1.22400
O 	O 	0.24559 0.60690 0.74928 -0.43000
O 	O 	0.20377 0.64920 0.66589 -0.43300
O 	O 	0.22652 0.37422 0.76260 -0.43100
O 	O 	0.18617 0.32914 0.68110 -0.44100
C 	C 	0.22181 0.60426 0.69730 0.37600
C 	C 	0.20610 0.37463 0.70900 0.38800
C 	C 	0.21590 0.48946 0.70280 0.02200
H 	H 	0.22390 0.49130 0.74440 0.04700
C 	C 	0.21350 0.54274 0.66890 -0.07300
C 	C 	0.20620 0.43328 0.67500 -0.07900
C 	C 	0.19710 0.43005 0.61280 -0.05600
H 	H 	0.19150 0.39260 0.59380 0.07500
C 	C 	0.19640 0.48370 0.57940 0.08700
C 	C 	0.20360 0.54000 0.60720 -0.05700
H 	H 	0.20180 0.57550 0.58420 0.07900
N 	N 	0.19260 0.47621 0.51372 -0.08300
Fe	Fe	0.73934 0.67957 0.19656 1.22400
O 	O 	0.75441 0.60690 0.25072 -0.43000
O 	O 	0.79623 0.64920 0.33411 -0.43300
O 	O 	0.77348 0.37422 0.23740 -0.43100
O 	O 	0.81383 0.32914 0.31890 -0.44100
C 	C 	0.77819 0.60426 0.30270 0.37600
C 	C 	0.79390 0.37463 0.29100 0.38800
C 	C 	0.78410 0.48946 0.29720 0.02200
H 	H 	0.77610 0.49130 0.25560 0.04700
C 	C 	0.78650 0.54274 0.33110 -0.07300
C 	C 	0.79380 0.43328 0.32500 -0.07900
C 	C 	0.80290 0.43005 0.38720 -0.05600
H 	H 	0.80850 0.39260 0.40620 0.07500
C 	C 	0.80360 0.48370 0.42060 0.08700
C 	C 	0.79640 0.54000 0.39280 -0.05700
H 	H 	0.79820 0.57550 0.41580 0.07900
N 	N 	0.80740 0.47621 0.48628 -0.08300
Fe	Fe	0.73934 0.32043 0.80344 1.22400
O 	O 	0.75441 0.39310 0.74928 -0.43000
O 	O 	0.79623 0.35080 0.66589 -0.43300
O 	O 	0.77348 0.62578 0.76260 -0.43100
O 	O 	0.81383 0.67086 0.68110 -0.44100
C 	C 	0.77819 0.39574 0.69730 0.37600
C 	C 	0.79390 0.62537 0.70900 0.38800
C 	C 	0.78410 0.51054 0.70280 0.02200
H 	H 	0.77610 0.50870 0.74440 0.04700
C 	C 	0.78650 0.45726 0.66890 -0.07300
C 	C 	0.79380 0.56672 0.67500 -0.07900
C 	C 	0.80290 0.56995 0.61280 -0.05600
H 	H 	0.80850 0.60740 0.59380 0.07500
C 	C 	0.80360 0.51630 0.57940 0.08700
C 	C 	0.79640 0.46000 0.60720 -0.05700
H 	H 	0.79820 0.42450 0.58420 0.07900
N 	N 	0.80740 0.52379 0.51372 -0.08300
Fe	Fe	0.26066 0.32043 0.19656 1.22400
O 	O 	0.24559 0.39310 0.25072 -0.43000
O 	O 	0.20377 0.35080 0.33411 -0.43300
O 	O 	0.22652 0.62578 0.23740 -0.43100
O 	O 	0.18617 0.67086 0.31890 -0.44100
C 	C 	0.22181 0.39574 0.30270 0.37600
C 	C 	0.20610 0.62537 0.29100 0.38800
C 	C 	0.21590 0.51054 0.29720 0.02200
H 	H 	0.22390 0.50870 0.25560 0.04700
C 	C 	0.21350 0.45726 0.33110 -0.07300
C 	C 	0.20620 0.56672 0.32500 -0.07900
C 	C 	0.19710 0.56995 0.38720 -0.05600
H 	H 	0.19150 0.60740 0.40620 0.07500
C 	C 	0.19640 0.51630 0.42060 0.08700
C 	C 	0.20360 0.46000 0.39280 -0.05700
H 	H 	0.20180 0.42450 0.41580 0.07900
N 	N 	0.19260 0.52379 0.48628 -0.08300
Fe	Fe	0.67957 0.80344 0.26066 1.22400
O 	O 	0.60690 0.74928 0.24559 -0.43000
O 	O 	0.64920 0.66589 0.20377 -0.43300
O 	O 	0.37422 0.76260 0.22652 -0.43100
O 	O 	0.32914 0.68110 0.18617 -0.44100
C 	C 	0.60426 0.69730 0.22181 0.37600
C 	C 	0.37463 0.70900 0.20610 0.38800
C 	C 	0.48946 0.70280 0.21590 0.02200
H 	H 	0.49130 0.74440 0.22390 0.04700
C 	C 	0.54274 0.66890 0.21350 -0.07300
C 	C 	0.43328 0.67500 0.20620 -0.07900
C 	C 	0.43005 0.61280 0.19710 -0.05600
H 	H 	0.39260 0.59380 0.19150 0.07500
C 	C 	0.48370 0.57940 0.19640 0.08700
C 	C 	0.54000 0.60720 0.20360 -0.05700
H 	H 	0.57550 0.58420 0.20180 0.07900
N 	N 	0.47621 0.51372 0.19260 -0.08300
Fe	Fe	0.67957 0.19656 0.73934 1.22400
O 	O 	0.60690 0.25072 0.75441 -0.43000
O 	O 	0.64920 0.33411 0.79623 -0.43300
O 	O 	0.37422 0.23740 0.77348 -0.43100
O 	O 	0.32914 0.31890 0.81383 -0.44100
C 	C 	0.60426 0.30270 0.77819 0.37600
C 	C 	0.37463 0.29100 0.79390 0.38800
C 	C 	0.48946 0.29720 0.78410 0.02200
H 	H 	0.49130 0.25560 0.77610 0.04700
C 	C 	0.54274 0.33110 0.78650 -0.07300
C 	C 	0.43328 0.32500 0.79380 -0.07900
C 	C 	0.43005 0.38720 0.80290 -0.05600
H 	H 	0.39260 0.40620 0.80850 0.07500
C 	C 	0.48370 0.42060 0.80360 0.08700
C 	C 	0.54000 0.39280 0.79640 -0.05700
H 	H 	0.57550 0.41580 0.79820 0.07900
N 	N 	0.47621 0.48628 0.80740 -0.08300
Fe	Fe	0.32043 0.80344 0.73934 1.22400
O 	O 	0.39310 0.74928 0.75441 -0.43000
O 	O 	0.35080 0.66589 0.79623 -0.43300
O 	O 	0.62578 0.76260 0.77348 -0.43100
O 	O 	0.67086 0.68110 0.81383 -0.44100
C 	C 	0.39574 0.69730 0.77819 0.37600
C 	C 	0.62537 0.70900 0.79390 0.38800
C 	C 	0.51054 0.70280 0.78410 0.02200
H 	H 	0.50870 0.74440 0.77610 0.04700
C 	C 	0.45726 0.66890 0.78650 -0.07300
C 	C 	0.56672 0.67500 0.79380 -0.07900
C 	C 	0.56995 0.61280 0.80290 -0.05600
H 	H 	0.60740 0.59380 0.80850 0.07500
C 	C 	0.51630 0.57940 0.80360 0.08700
C 	C 	0.46000 0.60720 0.79640 -0.05700
H 	H 	0.42450 0.58420 0.79820 0.07900
N 	N 	0.52379 0.51372 0.80740 -0.08300
Fe	Fe	0.32043 0.19656 0.26066 1.22400
O 	O 	0.39310 0.25072 0.24559 -0.43000
O 	O 	0.35080 0.33411 0.20377 -0.43300
O 	O 	0.62578 0.23740 0.22652 -0.43100
O 	O 	0.67086 0.31890 0.18617 -0.44100
C 	C 	0.39574 0.30270 0.22181 0.37600
C 	C 	0.62537 0.29100 0.20610 0.38800
C 	C 	0.51054 0.29720 0.21590 0.02200
H 	H 	0.50870 0.25560 0.22390 0.04700
C 	C 	0.45726 0.33110 0.21350 -0.07300
C 	C 	0.56672 0.32500 0.20620 -0.07900
C 	C 	0.56995 0.38720 0.19710 -0.05600
H 	H 	0.60740 0.40620 0.19150 0.07500
C 	C 	0.51630 0.42060 0.19640 0.08700
C 	C 	0.46000 0.39280 0.20360 -0.05700
H 	H 	0.42450 0.41580 0.20180 0.07900
N 	N 	0.52379 0.48628 0.19260 -0.08300
O 	O 	0.75942 0.24058 0.24058 -0.64400
O 	O 	0.24058 0.75942 0.24058 -0.64400
O 	O 	0.24058 0.24058 0.75942 -0.64400
O 	O 	0.75942 0.75942 0.75942 -0.64400
O 	O 	0.74058 0.25942 0.74058 -0.64400
O 	O 	0.25942 0.74058 0.74058 -0.64400
O 	O 	0.74058 0.74058 0.25942 -0.64400
O 	O 	0.25942 0.25942 0.25942 -0.64400
