data_crystal

_cell_length_a 14.39000
_cell_length_b 21.74700
_cell_length_c 43.38300
_cell_angle_alpha 90.00000
_cell_angle_beta  90.00000
_cell_angle_gamma 90.00000

_symmetry_space_group_name_	'P 1'
_symmetry_space_group_name_H-M	'P 1'

loop_
_symmetry_equiv_pos_as_xyz
  x,y,z

loop_
_atom_site_label
_atom_site_type_symbol
_atom_site_fract_x
_atom_site_fract_y
_atom_site_fract_z
_atom_site_charge
P 	P 	0.13153 0.30323 0.08967 0.66500
Zn	Zn	0.91577 0.34584 0.08242 1.24500
C 	C 	0.89170 0.43290 0.03751 0.34500
C 	C 	0.87630 0.45480 0.00523 -0.14500
C 	C 	0.85260 0.41300 0.98195 0.11100
H 	H 	0.84470 0.37170 0.98670 0.02300
C 	C 	0.84100 0.43290 0.95176 -0.21200
H 	H 	0.82580 0.40520 0.93620 0.13300
C 	C 	0.85220 0.49340 0.94551 0.20000
C 	C 	0.87110 0.53640 0.96790 -0.20500
H 	H 	0.87480 0.57790 0.96300 0.13200
C 	C 	0.88460 0.51660 0.99797 0.10800
H 	H 	0.89930 0.54480 0.01330 0.01900
C 	C 	0.75430 0.51850 0.90156 0.09100
H 	H 	0.70310 0.50920 0.91370 0.03200
C 	C 	0.74200 0.53630 0.87176 -0.11300
H 	H 	0.68230 0.53910 0.86370 0.07900
C 	C 	0.81780 0.55030 0.85354 0.06500
C 	C 	0.90470 0.54600 0.86613 -0.11300
H 	H 	0.95690 0.55550 0.85440 0.08400
C 	C 	0.91480 0.52730 0.89690 0.09300
H 	H 	0.97370 0.52400 0.90560 0.02000
C 	C 	0.80380 0.56880 0.82059 0.08900
C 	C 	0.72670 0.54460 0.80466 -0.11600
H 	H 	0.68680 0.51720 0.81440 0.07000
C 	C 	0.71110 0.56170 0.77470 0.06100
H 	H 	0.65750 0.54840 0.76480 0.00500
C 	C 	0.84670 0.62010 0.77431 0.07000
H 	H 	0.88880 0.64500 0.76390 0.00700
C 	C 	0.86010 0.60650 0.80447 -0.10700
H 	H 	0.91070 0.62390 0.81450 0.09000
C 	C 	0.73500 0.60700 0.81150 -0.06500
H 	H 	0.69140 0.62080 0.82560 0.07100
C 	C 	0.73100 0.62500 0.78200 0.03300
H 	H 	0.69590 0.65960 0.77730 0.02600
C 	C 	0.85070 0.56830 0.76820 0.00000
H 	H 	0.89360 0.55710 0.75320 0.02400
C 	C 	0.86930 0.55450 0.79850 -0.05200
H 	H 	0.92500 0.53590 0.80410 0.04200
C 	C 	0.75400 0.60760 0.72667 0.17500
C 	C 	0.66620 0.61980 0.71802 -0.20000
H 	H 	0.61960 0.62450 0.73270 0.09900
C 	C 	0.64610 0.62550 0.68649 0.09300
H 	H 	0.58570 0.63330 0.68000 0.02000
C 	C 	0.71630 0.61940 0.66530 -0.13500
C 	C 	0.80470 0.61320 0.67532 0.09700
H 	H 	0.85290 0.61220 0.66100 0.01800
C 	C 	0.82540 0.60830 0.70671 -0.20000
H 	H 	0.88650 0.60560 0.71360 0.10000
C 	C 	0.69470 0.62490 0.63071 0.36100
O 	O 	0.88310 0.37488 0.04166 -0.43600
O 	O 	0.90900 0.47009 0.05848 -0.30300
O 	O 	0.75870 0.62950 0.61242 -0.30300
O 	O 	0.60900 0.62490 0.62417 -0.43300
O 	O 	0.05280 0.34350 0.08193 -0.43900
O 	O 	0.21830 0.33800 0.07993 -0.21200
O 	O 	0.12650 0.24030 0.08071 -0.45100
N 	N 	0.84080 0.51431 0.91350 -0.15300
N 	N 	0.77260 0.59750 0.75960 -0.16800
F 	F 	0.14400 0.30300 0.12763 -0.43900
P 	P 	0.63153 0.80323 0.58967 0.66600
Zn	Zn	0.41577 0.84584 0.58242 1.24600
C 	C 	0.39170 0.93290 0.53751 0.34600
C 	C 	0.37630 0.95480 0.50523 -0.14400
C 	C 	0.35260 0.91300 0.48195 0.11100
H 	H 	0.34470 0.87170 0.48670 0.02300
C 	C 	0.34100 0.93290 0.45176 -0.21300
H 	H 	0.32580 0.90520 0.43620 0.13300
C 	C 	0.35220 0.99340 0.44551 0.20000
C 	C 	0.37110 0.03640 0.46790 -0.20500
H 	H 	0.37480 0.07790 0.46300 0.13200
C 	C 	0.38460 0.01660 0.49797 0.10800
H 	H 	0.39930 0.04480 0.51330 0.01900
C 	C 	0.25430 0.01850 0.40156 0.09100
H 	H 	0.20310 0.00920 0.41370 0.03200
C 	C 	0.24200 0.03630 0.37176 -0.11300
H 	H 	0.18230 0.03910 0.36370 0.07900
C 	C 	0.31780 0.05030 0.35354 0.06500
C 	C 	0.40470 0.04600 0.36613 -0.11300
H 	H 	0.45690 0.05550 0.35440 0.08400
C 	C 	0.41480 0.02730 0.39690 0.09300
H 	H 	0.47370 0.02400 0.40560 0.02000
C 	C 	0.30380 0.06880 0.32059 0.08900
C 	C 	0.22670 0.04460 0.30466 -0.11600
H 	H 	0.18680 0.01720 0.31440 0.07000
C 	C 	0.21110 0.06170 0.27470 0.06100
H 	H 	0.15750 0.04840 0.26480 0.00500
C 	C 	0.34670 0.12010 0.27431 0.07000
H 	H 	0.38880 0.14500 0.26390 0.00700
C 	C 	0.36010 0.10650 0.30447 -0.10700
H 	H 	0.41070 0.12390 0.31450 0.09000
C 	C 	0.23500 0.10700 0.31150 -0.06500
H 	H 	0.19140 0.12080 0.32560 0.07100
C 	C 	0.23100 0.12500 0.28200 0.03300
H 	H 	0.19590 0.15960 0.27730 0.02600
C 	C 	0.35070 0.06830 0.26820 0.00000
H 	H 	0.39360 0.05710 0.25320 0.02400
C 	C 	0.36930 0.05450 0.29850 -0.05200
H 	H 	0.42500 0.03590 0.30410 0.04200
C 	C 	0.25400 0.10760 0.22667 0.17500
C 	C 	0.16620 0.11980 0.21802 -0.20000
H 	H 	0.11960 0.12450 0.23270 0.10000
C 	C 	0.14610 0.12550 0.18649 0.09300
H 	H 	0.08570 0.13330 0.18000 0.02000
C 	C 	0.21630 0.11940 0.16530 -0.13500
C 	C 	0.30470 0.11320 0.17532 0.09700
H 	H 	0.35290 0.11220 0.16100 0.01800
C 	C 	0.32540 0.10830 0.20671 -0.20000
H 	H 	0.38650 0.10560 0.21360 0.10000
C 	C 	0.19470 0.12490 0.13071 0.36100
O 	O 	0.38310 0.87488 0.54166 -0.43600
O 	O 	0.40900 0.97009 0.55848 -0.30300
O 	O 	0.25870 0.12950 0.11242 -0.30300
O 	O 	0.10900 0.12490 0.12417 -0.43300
O 	O 	0.55280 0.84350 0.58193 -0.43900
O 	O 	0.71830 0.83800 0.57993 -0.21200
O 	O 	0.62650 0.74030 0.58071 -0.45100
N 	N 	0.34080 0.01431 0.41350 -0.15300
N 	N 	0.27260 0.09750 0.25960 -0.16800
F 	F 	0.64400 0.80300 0.62763 -0.43900
P 	P 	0.36847 0.69677 0.58967 0.66600
Zn	Zn	0.58423 0.65416 0.58242 1.24600
C 	C 	0.60830 0.56710 0.53751 0.34600
C 	C 	0.62370 0.54520 0.50523 -0.14400
C 	C 	0.64740 0.58700 0.48195 0.11100
H 	H 	0.65530 0.62830 0.48670 0.02300
C 	C 	0.65900 0.56710 0.45176 -0.21200
H 	H 	0.67420 0.59480 0.43620 0.13300
C 	C 	0.64780 0.50660 0.44551 0.20000
C 	C 	0.62890 0.46360 0.46790 -0.20500
H 	H 	0.62520 0.42210 0.46300 0.13200
C 	C 	0.61540 0.48340 0.49797 0.10800
H 	H 	0.60070 0.45520 0.51330 0.01900
C 	C 	0.74570 0.48150 0.40156 0.09100
H 	H 	0.79690 0.49080 0.41370 0.03200
C 	C 	0.75800 0.46370 0.37176 -0.11300
H 	H 	0.81770 0.46090 0.36370 0.07900
C 	C 	0.68220 0.44970 0.35354 0.06500
C 	C 	0.59530 0.45400 0.36613 -0.11300
H 	H 	0.54310 0.44450 0.35440 0.08400
C 	C 	0.58520 0.47270 0.39690 0.09300
H 	H 	0.52630 0.47600 0.40560 0.02000
C 	C 	0.69620 0.43120 0.32059 0.08900
C 	C 	0.77330 0.45540 0.30466 -0.11600
H 	H 	0.81320 0.48280 0.31440 0.07000
C 	C 	0.78890 0.43830 0.27470 0.06100
H 	H 	0.84250 0.45160 0.26480 0.00500
C 	C 	0.65330 0.37990 0.27431 0.07000
H 	H 	0.61120 0.35500 0.26390 0.00700
C 	C 	0.63990 0.39350 0.30447 -0.10700
H 	H 	0.58930 0.37610 0.31450 0.09000
C 	C 	0.76500 0.39300 0.31150 -0.06500
H 	H 	0.80860 0.37920 0.32560 0.07100
C 	C 	0.76900 0.37500 0.28200 0.03300
H 	H 	0.80410 0.34040 0.27730 0.02600
C 	C 	0.64930 0.43170 0.26820 0.00000
H 	H 	0.60640 0.44290 0.25320 0.02400
C 	C 	0.63070 0.44550 0.29850 -0.05200
H 	H 	0.57500 0.46410 0.30410 0.04200
C 	C 	0.74600 0.39240 0.22667 0.17500
C 	C 	0.83380 0.38020 0.21802 -0.20000
H 	H 	0.88040 0.37550 0.23270 0.10000
C 	C 	0.85390 0.37450 0.18649 0.09300
H 	H 	0.91430 0.36670 0.18000 0.02000
C 	C 	0.78370 0.38060 0.16530 -0.13500
C 	C 	0.69530 0.38680 0.17532 0.09700
H 	H 	0.64710 0.38780 0.16100 0.01800
C 	C 	0.67460 0.39170 0.20671 -0.20000
H 	H 	0.61350 0.39440 0.21360 0.10000
C 	C 	0.80530 0.37510 0.13071 0.36100
O 	O 	0.61690 0.62512 0.54166 -0.43600
O 	O 	0.59100 0.52991 0.55848 -0.30300
O 	O 	0.74130 0.37050 0.11242 -0.30300
O 	O 	0.89100 0.37510 0.12417 -0.43300
O 	O 	0.44720 0.65650 0.58193 -0.43900
O 	O 	0.28170 0.66200 0.57993 -0.21200
O 	O 	0.37350 0.75970 0.58071 -0.45100
N 	N 	0.65920 0.48569 0.41350 -0.15300
N 	N 	0.72740 0.40250 0.25960 -0.16800
F 	F 	0.35600 0.69700 0.62763 -0.43900
P 	P 	0.86847 0.19677 0.08967 0.66600
Zn	Zn	0.08423 0.15416 0.08242 1.24600
C 	C 	0.10830 0.06710 0.03751 0.34600
C 	C 	0.12370 0.04520 0.00523 -0.14400
C 	C 	0.14740 0.08700 0.98195 0.11100
H 	H 	0.15530 0.12830 0.98670 0.02300
C 	C 	0.15900 0.06710 0.95176 -0.21300
H 	H 	0.17420 0.09480 0.93620 0.13300
C 	C 	0.14780 0.00660 0.94551 0.20000
C 	C 	0.12890 0.96360 0.96790 -0.20500
H 	H 	0.12520 0.92210 0.96300 0.13200
C 	C 	0.11540 0.98340 0.99797 0.10800
H 	H 	0.10070 0.95520 0.01330 0.01900
C 	C 	0.24570 0.98150 0.90156 0.09100
H 	H 	0.29690 0.99080 0.91370 0.03200
C 	C 	0.25800 0.96370 0.87176 -0.11300
H 	H 	0.31770 0.96090 0.86370 0.07900
C 	C 	0.18220 0.94970 0.85354 0.06500
C 	C 	0.09530 0.95400 0.86613 -0.11300
H 	H 	0.04310 0.94450 0.85440 0.08400
C 	C 	0.08520 0.97270 0.89690 0.09300
H 	H 	0.02630 0.97600 0.90560 0.02000
C 	C 	0.19620 0.93120 0.82059 0.08900
C 	C 	0.27330 0.95540 0.80466 -0.11600
H 	H 	0.31320 0.98280 0.81440 0.07000
C 	C 	0.28890 0.93830 0.77470 0.06100
H 	H 	0.34250 0.95160 0.76480 0.00500
C 	C 	0.15330 0.87990 0.77431 0.07000
H 	H 	0.11120 0.85500 0.76390 0.00700
C 	C 	0.13990 0.89350 0.80447 -0.10700
H 	H 	0.08930 0.87610 0.81450 0.09000
C 	C 	0.26500 0.89300 0.81150 -0.06500
H 	H 	0.30860 0.87920 0.82560 0.07100
C 	C 	0.26900 0.87500 0.78200 0.03300
H 	H 	0.30410 0.84040 0.77730 0.02600
C 	C 	0.14930 0.93170 0.76820 0.00000
H 	H 	0.10640 0.94290 0.75320 0.02400
C 	C 	0.13070 0.94550 0.79850 -0.05200
H 	H 	0.07500 0.96410 0.80410 0.04200
C 	C 	0.24600 0.89240 0.72667 0.17500
C 	C 	0.33380 0.88020 0.71802 -0.20000
H 	H 	0.38040 0.87550 0.73270 0.10000
C 	C 	0.35390 0.87450 0.68649 0.09300
H 	H 	0.41430 0.86670 0.68000 0.02000
C 	C 	0.28370 0.88060 0.66530 -0.13500
C 	C 	0.19530 0.88680 0.67532 0.09700
H 	H 	0.14710 0.88780 0.66100 0.01800
C 	C 	0.17460 0.89170 0.70671 -0.20000
H 	H 	0.11350 0.89440 0.71360 0.10000
C 	C 	0.30530 0.87510 0.63071 0.36100
O 	O 	0.11690 0.12512 0.04166 -0.43600
O 	O 	0.09100 0.02991 0.05848 -0.30300
O 	O 	0.24130 0.87050 0.61242 -0.30300
O 	O 	0.39100 0.87510 0.62417 -0.43300
O 	O 	0.94720 0.15650 0.08193 -0.43900
O 	O 	0.78170 0.16200 0.07993 -0.21200
O 	O 	0.87350 0.25970 0.08071 -0.45100
N 	N 	0.15920 0.98569 0.91350 -0.15300
N 	N 	0.22740 0.90250 0.75960 -0.16800
F 	F 	0.85600 0.19700 0.12763 -0.43900
P 	P 	0.86847 0.80323 0.41033 0.66600
Zn	Zn	0.08423 0.84584 0.41758 1.24600
C 	C 	0.10830 0.93290 0.46249 0.34600
C 	C 	0.12370 0.95480 0.49477 -0.14400
C 	C 	0.14740 0.91300 0.51805 0.11100
H 	H 	0.15530 0.87170 0.51330 0.02300
C 	C 	0.15900 0.93290 0.54824 -0.21300
H 	H 	0.17420 0.90520 0.56380 0.13300
C 	C 	0.14780 0.99340 0.55449 0.20000
C 	C 	0.12890 0.03640 0.53210 -0.20500
H 	H 	0.12520 0.07790 0.53700 0.13200
C 	C 	0.11540 0.01660 0.50203 0.10800
H 	H 	0.10070 0.04480 0.48670 0.01900
C 	C 	0.24570 0.01850 0.59844 0.09100
H 	H 	0.29690 0.00920 0.58630 0.03200
C 	C 	0.25800 0.03630 0.62824 -0.11300
H 	H 	0.31770 0.03910 0.63630 0.07900
C 	C 	0.18220 0.05030 0.64646 0.06500
C 	C 	0.09530 0.04600 0.63387 -0.11300
H 	H 	0.04310 0.05550 0.64560 0.08400
C 	C 	0.08520 0.02730 0.60310 0.09300
H 	H 	0.02630 0.02400 0.59440 0.02000
C 	C 	0.19620 0.06880 0.67941 0.08900
C 	C 	0.27330 0.04460 0.69534 -0.11600
H 	H 	0.31320 0.01720 0.68560 0.07000
C 	C 	0.28890 0.06170 0.72530 0.06100
H 	H 	0.34250 0.04840 0.73520 0.00500
C 	C 	0.15330 0.12010 0.72569 0.07000
H 	H 	0.11120 0.14500 0.73610 0.00700
C 	C 	0.13990 0.10650 0.69553 -0.10700
H 	H 	0.08930 0.12390 0.68550 0.09000
C 	C 	0.26500 0.10700 0.68850 -0.06500
H 	H 	0.30860 0.12080 0.67440 0.07100
C 	C 	0.26900 0.12500 0.71800 0.03300
H 	H 	0.30410 0.15960 0.72270 0.02600
C 	C 	0.14930 0.06830 0.73180 0.00000
H 	H 	0.10640 0.05710 0.74680 0.02400
C 	C 	0.13070 0.05450 0.70150 -0.05200
H 	H 	0.07500 0.03590 0.69590 0.04200
C 	C 	0.24600 0.10760 0.77333 0.17500
C 	C 	0.33380 0.11980 0.78198 -0.20000
H 	H 	0.38040 0.12450 0.76730 0.10000
C 	C 	0.35390 0.12550 0.81351 0.09300
H 	H 	0.41430 0.13330 0.82000 0.02000
C 	C 	0.28370 0.11940 0.83470 -0.13500
C 	C 	0.19530 0.11320 0.82468 0.09700
H 	H 	0.14710 0.11220 0.83900 0.01800
C 	C 	0.17460 0.10830 0.79329 -0.20000
H 	H 	0.11350 0.10560 0.78640 0.10000
C 	C 	0.30530 0.12490 0.86929 0.36100
O 	O 	0.11690 0.87488 0.45834 -0.43600
O 	O 	0.09100 0.97009 0.44152 -0.30300
O 	O 	0.24130 0.12950 0.88758 -0.30300
O 	O 	0.39100 0.12490 0.87583 -0.43300
O 	O 	0.94720 0.84350 0.41807 -0.43900
O 	O 	0.78170 0.83800 0.42007 -0.21200
O 	O 	0.87350 0.74030 0.41929 -0.45100
N 	N 	0.15920 0.01431 0.58650 -0.15300
N 	N 	0.22740 0.09750 0.74040 -0.16800
F 	F 	0.85600 0.80300 0.37237 -0.43900
P 	P 	0.36847 0.30323 0.91033 0.66600
Zn	Zn	0.58423 0.34584 0.91758 1.24600
C 	C 	0.60830 0.43290 0.96249 0.34600
C 	C 	0.62370 0.45480 0.99477 -0.14400
C 	C 	0.64740 0.41300 0.01805 0.11100
H 	H 	0.65530 0.37170 0.01330 0.02300
C 	C 	0.65900 0.43290 0.04824 -0.21200
H 	H 	0.67420 0.40520 0.06380 0.13300
C 	C 	0.64780 0.49340 0.05449 0.20000
C 	C 	0.62890 0.53640 0.03210 -0.20500
H 	H 	0.62520 0.57790 0.03700 0.13200
C 	C 	0.61540 0.51660 0.00203 0.10800
H 	H 	0.60070 0.54480 0.98670 0.01900
C 	C 	0.74570 0.51850 0.09844 0.09100
H 	H 	0.79690 0.50920 0.08630 0.03200
C 	C 	0.75800 0.53630 0.12824 -0.11300
H 	H 	0.81770 0.53910 0.13630 0.07900
C 	C 	0.68220 0.55030 0.14646 0.06500
C 	C 	0.59530 0.54600 0.13387 -0.11300
H 	H 	0.54310 0.55550 0.14560 0.08400
C 	C 	0.58520 0.52730 0.10310 0.09300
H 	H 	0.52630 0.52400 0.09440 0.02000
C 	C 	0.69620 0.56880 0.17941 0.08900
C 	C 	0.77330 0.54460 0.19534 -0.11600
H 	H 	0.81320 0.51720 0.18560 0.07000
C 	C 	0.78890 0.56170 0.22530 0.06100
H 	H 	0.84250 0.54840 0.23520 0.00500
C 	C 	0.65330 0.62010 0.22569 0.07000
H 	H 	0.61120 0.64500 0.23610 0.00700
C 	C 	0.63990 0.60650 0.19553 -0.10700
H 	H 	0.58930 0.62390 0.18550 0.09000
C 	C 	0.76500 0.60700 0.18850 -0.06500
H 	H 	0.80860 0.62080 0.17440 0.07100
C 	C 	0.76900 0.62500 0.21800 0.03300
H 	H 	0.80410 0.65960 0.22270 0.02600
C 	C 	0.64930 0.56830 0.23180 0.00000
H 	H 	0.60640 0.55710 0.24680 0.02400
C 	C 	0.63070 0.55450 0.20150 -0.05200
H 	H 	0.57500 0.53590 0.19590 0.04200
C 	C 	0.74600 0.60760 0.27333 0.17500
C 	C 	0.83380 0.61980 0.28198 -0.20000
H 	H 	0.88040 0.62450 0.26730 0.10000
C 	C 	0.85390 0.62550 0.31351 0.09300
H 	H 	0.91430 0.63330 0.32000 0.02000
C 	C 	0.78370 0.61940 0.33470 -0.13500
C 	C 	0.69530 0.61320 0.32468 0.09700
H 	H 	0.64710 0.61220 0.33900 0.01800
C 	C 	0.67460 0.60830 0.29329 -0.20000
H 	H 	0.61350 0.60560 0.28640 0.10000
C 	C 	0.80530 0.62490 0.36929 0.36100
O 	O 	0.61690 0.37488 0.95834 -0.43600
O 	O 	0.59100 0.47009 0.94152 -0.30300
O 	O 	0.74130 0.62950 0.38758 -0.30300
O 	O 	0.89100 0.62490 0.37583 -0.43300
O 	O 	0.44720 0.34350 0.91807 -0.43900
O 	O 	0.28170 0.33800 0.92007 -0.21200
O 	O 	0.37350 0.24030 0.91929 -0.45100
N 	N 	0.65920 0.51431 0.08650 -0.15300
N 	N 	0.72740 0.59750 0.24040 -0.16800
F 	F 	0.35600 0.30300 0.87237 -0.43900
P 	P 	0.63153 0.19677 0.91033 0.66600
Zn	Zn	0.41577 0.15416 0.91758 1.24600
C 	C 	0.39170 0.06710 0.96249 0.34600
C 	C 	0.37630 0.04520 0.99477 -0.14400
C 	C 	0.35260 0.08700 0.01805 0.11100
H 	H 	0.34470 0.12830 0.01330 0.02300
C 	C 	0.34100 0.06710 0.04824 -0.21300
H 	H 	0.32580 0.09480 0.06380 0.13300
C 	C 	0.35220 0.00660 0.05449 0.20000
C 	C 	0.37110 0.96360 0.03210 -0.20500
H 	H 	0.37480 0.92210 0.03700 0.13200
C 	C 	0.38460 0.98340 0.00203 0.10800
H 	H 	0.39930 0.95520 0.98670 0.01900
C 	C 	0.25430 0.98150 0.09844 0.09100
H 	H 	0.20310 0.99080 0.08630 0.03200
C 	C 	0.24200 0.96370 0.12824 -0.11300
H 	H 	0.18230 0.96090 0.13630 0.07900
C 	C 	0.31780 0.94970 0.14646 0.06500
C 	C 	0.40470 0.95400 0.13387 -0.11300
H 	H 	0.45690 0.94450 0.14560 0.08400
C 	C 	0.41480 0.97270 0.10310 0.09300
H 	H 	0.47370 0.97600 0.09440 0.02000
C 	C 	0.30380 0.93120 0.17941 0.08900
C 	C 	0.22670 0.95540 0.19534 -0.11600
H 	H 	0.18680 0.98280 0.18560 0.07000
C 	C 	0.21110 0.93830 0.22530 0.06100
H 	H 	0.15750 0.95160 0.23520 0.00500
C 	C 	0.34670 0.87990 0.22569 0.07000
H 	H 	0.38880 0.85500 0.23610 0.00700
C 	C 	0.36010 0.89350 0.19553 -0.10700
H 	H 	0.41070 0.87610 0.18550 0.09000
C 	C 	0.23500 0.89300 0.18850 -0.06500
H 	H 	0.19140 0.87920 0.17440 0.07100
C 	C 	0.23100 0.87500 0.21800 0.03300
H 	H 	0.19590 0.84040 0.22270 0.02600
C 	C 	0.35070 0.93170 0.23180 0.00000
H 	H 	0.39360 0.94290 0.24680 0.02400
C 	C 	0.36930 0.94550 0.20150 -0.05200
H 	H 	0.42500 0.96410 0.19590 0.04200
C 	C 	0.25400 0.89240 0.27333 0.17500
C 	C 	0.16620 0.88020 0.28198 -0.20000
H 	H 	0.11960 0.87550 0.26730 0.10000
C 	C 	0.14610 0.87450 0.31351 0.09300
H 	H 	0.08570 0.86670 0.32000 0.02000
C 	C 	0.21630 0.88060 0.33470 -0.13500
C 	C 	0.30470 0.88680 0.32468 0.09700
H 	H 	0.35290 0.88780 0.33900 0.01800
C 	C 	0.32540 0.89170 0.29329 -0.20000
H 	H 	0.38650 0.89440 0.28640 0.10000
C 	C 	0.19470 0.87510 0.36929 0.36100
O 	O 	0.38310 0.12512 0.95834 -0.43600
O 	O 	0.40900 0.02991 0.94152 -0.30300
O 	O 	0.25870 0.87050 0.38758 -0.30300
O 	O 	0.10900 0.87510 0.37583 -0.43300
O 	O 	0.55280 0.15650 0.91807 -0.43900
O 	O 	0.71830 0.16200 0.92007 -0.21200
O 	O 	0.62650 0.25970 0.91929 -0.45100
N 	N 	0.34080 0.98569 0.08650 -0.15300
N 	N 	0.27260 0.90250 0.24040 -0.16800
F 	F 	0.64400 0.19700 0.87237 -0.43900
P 	P 	0.13153 0.69677 0.41033 0.66600
Zn	Zn	0.91577 0.65416 0.41758 1.24600
C 	C 	0.89170 0.56710 0.46249 0.34600
C 	C 	0.87630 0.54520 0.49477 -0.14400
C 	C 	0.85260 0.58700 0.51805 0.11100
H 	H 	0.84470 0.62830 0.51330 0.02300
C 	C 	0.84100 0.56710 0.54824 -0.21200
H 	H 	0.82580 0.59480 0.56380 0.13300
C 	C 	0.85220 0.50660 0.55449 0.20000
C 	C 	0.87110 0.46360 0.53210 -0.20500
H 	H 	0.87480 0.42210 0.53700 0.13200
C 	C 	0.88460 0.48340 0.50203 0.10800
H 	H 	0.89930 0.45520 0.48670 0.01900
C 	C 	0.75430 0.48150 0.59844 0.09100
H 	H 	0.70310 0.49080 0.58630 0.03200
C 	C 	0.74200 0.46370 0.62824 -0.11300
H 	H 	0.68230 0.46090 0.63630 0.07900
C 	C 	0.81780 0.44970 0.64646 0.06500
C 	C 	0.90470 0.45400 0.63387 -0.11300
H 	H 	0.95690 0.44450 0.64560 0.08400
C 	C 	0.91480 0.47270 0.60310 0.09300
H 	H 	0.97370 0.47600 0.59440 0.02000
C 	C 	0.80380 0.43120 0.67941 0.08900
C 	C 	0.72670 0.45540 0.69534 -0.11600
H 	H 	0.68680 0.48280 0.68560 0.07000
C 	C 	0.71110 0.43830 0.72530 0.06100
H 	H 	0.65750 0.45160 0.73520 0.00500
C 	C 	0.84670 0.37990 0.72569 0.07000
H 	H 	0.88880 0.35500 0.73610 0.00700
C 	C 	0.86010 0.39350 0.69553 -0.10700
H 	H 	0.91070 0.37610 0.68550 0.09000
C 	C 	0.73500 0.39300 0.68850 -0.06500
H 	H 	0.69140 0.37920 0.67440 0.07100
C 	C 	0.73100 0.37500 0.71800 0.03300
H 	H 	0.69590 0.34040 0.72270 0.02600
C 	C 	0.85070 0.43170 0.73180 0.00000
H 	H 	0.89360 0.44290 0.74680 0.02400
C 	C 	0.86930 0.44550 0.70150 -0.05200
H 	H 	0.92500 0.46410 0.69590 0.04200
C 	C 	0.75400 0.39240 0.77333 0.17500
C 	C 	0.66620 0.38020 0.78198 -0.20000
H 	H 	0.61960 0.37550 0.76730 0.09900
C 	C 	0.64610 0.37450 0.81351 0.09300
H 	H 	0.58570 0.36670 0.82000 0.02000
C 	C 	0.71630 0.38060 0.83470 -0.13500
C 	C 	0.80470 0.38680 0.82468 0.09700
H 	H 	0.85290 0.38780 0.83900 0.01800
C 	C 	0.82540 0.39170 0.79329 -0.20000
H 	H 	0.88650 0.39440 0.78640 0.10000
C 	C 	0.69470 0.37510 0.86929 0.36100
O 	O 	0.88310 0.62512 0.45834 -0.43600
O 	O 	0.90900 0.52991 0.44152 -0.30300
O 	O 	0.75870 0.37050 0.88758 -0.30300
O 	O 	0.60900 0.37510 0.87583 -0.43300
O 	O 	0.05280 0.65650 0.41807 -0.43900
O 	O 	0.21830 0.66200 0.42007 -0.21200
O 	O 	0.12650 0.75970 0.41929 -0.45100
N 	N 	0.84080 0.48569 0.58650 -0.15300
N 	N 	0.77260 0.40250 0.74040 -0.16800
F 	F 	0.14400 0.69700 0.37237 -0.43900
P 	P 	0.86847 0.69677 0.91033 0.66600
Zn	Zn	0.08423 0.65416 0.91758 1.24600
C 	C 	0.10830 0.56710 0.96249 0.34600
C 	C 	0.12370 0.54520 0.99477 -0.14400
C 	C 	0.14740 0.58700 0.01805 0.11100
H 	H 	0.15530 0.62830 0.01330 0.02300
C 	C 	0.15900 0.56710 0.04824 -0.21200
H 	H 	0.17420 0.59480 0.06380 0.13300
C 	C 	0.14780 0.50660 0.05449 0.20000
C 	C 	0.12890 0.46360 0.03210 -0.20500
H 	H 	0.12520 0.42210 0.03700 0.13200
C 	C 	0.11540 0.48340 0.00203 0.10800
H 	H 	0.10070 0.45520 0.98670 0.01900
C 	C 	0.24570 0.48150 0.09844 0.09100
H 	H 	0.29690 0.49080 0.08630 0.03200
C 	C 	0.25800 0.46370 0.12824 -0.11300
H 	H 	0.31770 0.46090 0.13630 0.07900
C 	C 	0.18220 0.44970 0.14646 0.06500
C 	C 	0.09530 0.45400 0.13387 -0.11300
H 	H 	0.04310 0.44450 0.14560 0.08400
C 	C 	0.08520 0.47270 0.10310 0.09300
H 	H 	0.02630 0.47600 0.09440 0.02000
C 	C 	0.19620 0.43120 0.17941 0.08900
C 	C 	0.27330 0.45540 0.19534 -0.11600
H 	H 	0.31320 0.48280 0.18560 0.07000
C 	C 	0.28890 0.43830 0.22530 0.06100
H 	H 	0.34250 0.45160 0.23520 0.00500
C 	C 	0.15330 0.37990 0.22569 0.07000
H 	H 	0.11120 0.35500 0.23610 0.00700
C 	C 	0.13990 0.39350 0.19553 -0.10700
H 	H 	0.08930 0.37610 0.18550 0.09000
C 	C 	0.26500 0.39300 0.18850 -0.06500
H 	H 	0.30860 0.37920 0.17440 0.07100
C 	C 	0.26900 0.37500 0.21800 0.03300
H 	H 	0.30410 0.34040 0.22270 0.02600
C 	C 	0.14930 0.43170 0.23180 0.00000
H 	H 	0.10640 0.44290 0.24680 0.02400
C 	C 	0.13070 0.44550 0.20150 -0.05200
H 	H 	0.07500 0.46410 0.19590 0.04200
C 	C 	0.24600 0.39240 0.27333 0.17500
C 	C 	0.33380 0.38020 0.28198 -0.20000
H 	H 	0.38040 0.37550 0.26730 0.09900
C 	C 	0.35390 0.37450 0.31351 0.09300
H 	H 	0.41430 0.36670 0.32000 0.02000
C 	C 	0.28370 0.38060 0.33470 -0.13500
C 	C 	0.19530 0.38680 0.32468 0.09700
H 	H 	0.14710 0.38780 0.33900 0.01800
C 	C 	0.17460 0.39170 0.29329 -0.20000
H 	H 	0.11350 0.39440 0.28640 0.10000
C 	C 	0.30530 0.37510 0.36929 0.36100
O 	O 	0.11690 0.62512 0.95834 -0.43600
O 	O 	0.09100 0.52991 0.94152 -0.30300
O 	O 	0.24130 0.37050 0.38758 -0.30300
O 	O 	0.39100 0.37510 0.37583 -0.43300
O 	O 	0.94720 0.65650 0.91807 -0.43900
O 	O 	0.78170 0.66200 0.92007 -0.21200
O 	O 	0.87350 0.75970 0.91929 -0.45100
N 	N 	0.15920 0.48569 0.08650 -0.15300
N 	N 	0.22740 0.40250 0.24040 -0.16800
F 	F 	0.85600 0.69700 0.87237 -0.43900
P 	P 	0.36847 0.19677 0.41033 0.66600
Zn	Zn	0.58423 0.15416 0.41758 1.24600
C 	C 	0.60830 0.06710 0.46249 0.34600
C 	C 	0.62370 0.04520 0.49477 -0.14400
C 	C 	0.64740 0.08700 0.51805 0.11100
H 	H 	0.65530 0.12830 0.51330 0.02300
C 	C 	0.65900 0.06710 0.54824 -0.21300
H 	H 	0.67420 0.09480 0.56380 0.13300
C 	C 	0.64780 0.00660 0.55449 0.20000
C 	C 	0.62890 0.96360 0.53210 -0.20500
H 	H 	0.62520 0.92210 0.53700 0.13200
C 	C 	0.61540 0.98340 0.50203 0.10800
H 	H 	0.60070 0.95520 0.48670 0.01900
C 	C 	0.74570 0.98150 0.59844 0.09100
H 	H 	0.79690 0.99080 0.58630 0.03200
C 	C 	0.75800 0.96370 0.62824 -0.11300
H 	H 	0.81770 0.96090 0.63630 0.07900
C 	C 	0.68220 0.94970 0.64646 0.06500
C 	C 	0.59530 0.95400 0.63387 -0.11300
H 	H 	0.54310 0.94450 0.64560 0.08400
C 	C 	0.58520 0.97270 0.60310 0.09300
H 	H 	0.52630 0.97600 0.59440 0.02000
C 	C 	0.69620 0.93120 0.67941 0.08900
C 	C 	0.77330 0.95540 0.69534 -0.11600
H 	H 	0.81320 0.98280 0.68560 0.07000
C 	C 	0.78890 0.93830 0.72530 0.06100
H 	H 	0.84250 0.95160 0.73520 0.00500
C 	C 	0.65330 0.87990 0.72569 0.07000
H 	H 	0.61120 0.85500 0.73610 0.00700
C 	C 	0.63990 0.89350 0.69553 -0.10700
H 	H 	0.58930 0.87610 0.68550 0.09000
C 	C 	0.76500 0.89300 0.68850 -0.06500
H 	H 	0.80860 0.87920 0.67440 0.07100
C 	C 	0.76900 0.87500 0.71800 0.03300
H 	H 	0.80410 0.84040 0.72270 0.02600
C 	C 	0.64930 0.93170 0.73180 0.00000
H 	H 	0.60640 0.94290 0.74680 0.02400
C 	C 	0.63070 0.94550 0.70150 -0.05200
H 	H 	0.57500 0.96410 0.69590 0.04200
C 	C 	0.74600 0.89240 0.77333 0.17500
C 	C 	0.83380 0.88020 0.78198 -0.20000
H 	H 	0.88040 0.87550 0.76730 0.10000
C 	C 	0.85390 0.87450 0.81351 0.09300
H 	H 	0.91430 0.86670 0.82000 0.02000
C 	C 	0.78370 0.88060 0.83470 -0.13500
C 	C 	0.69530 0.88680 0.82468 0.09700
H 	H 	0.64710 0.88780 0.83900 0.01800
C 	C 	0.67460 0.89170 0.79329 -0.20000
H 	H 	0.61350 0.89440 0.78640 0.10000
C 	C 	0.80530 0.87510 0.86929 0.36100
O 	O 	0.61690 0.12512 0.45834 -0.43600
O 	O 	0.59100 0.02991 0.44152 -0.30300
O 	O 	0.74130 0.87050 0.88758 -0.30300
O 	O 	0.89100 0.87510 0.87583 -0.43300
O 	O 	0.44720 0.15650 0.41807 -0.43900
O 	O 	0.28170 0.16200 0.42007 -0.21200
O 	O 	0.37350 0.25970 0.41929 -0.45100
N 	N 	0.65920 0.98569 0.58650 -0.15300
N 	N 	0.72740 0.90250 0.74040 -0.16800
F 	F 	0.35600 0.19700 0.37237 -0.43900
P 	P 	0.63153 0.30323 0.41033 0.66600
Zn	Zn	0.41577 0.34584 0.41758 1.24600
C 	C 	0.39170 0.43290 0.46249 0.34600
C 	C 	0.37630 0.45480 0.49477 -0.14400
C 	C 	0.35260 0.41300 0.51805 0.11100
H 	H 	0.34470 0.37170 0.51330 0.02300
C 	C 	0.34100 0.43290 0.54824 -0.21200
H 	H 	0.32580 0.40520 0.56380 0.13300
C 	C 	0.35220 0.49340 0.55449 0.20000
C 	C 	0.37110 0.53640 0.53210 -0.20500
H 	H 	0.37480 0.57790 0.53700 0.13200
C 	C 	0.38460 0.51660 0.50203 0.10800
H 	H 	0.39930 0.54480 0.48670 0.01900
C 	C 	0.25430 0.51850 0.59844 0.09100
H 	H 	0.20310 0.50920 0.58630 0.03200
C 	C 	0.24200 0.53630 0.62824 -0.11300
H 	H 	0.18230 0.53910 0.63630 0.07900
C 	C 	0.31780 0.55030 0.64646 0.06500
C 	C 	0.40470 0.54600 0.63387 -0.11300
H 	H 	0.45690 0.55550 0.64560 0.08400
C 	C 	0.41480 0.52730 0.60310 0.09300
H 	H 	0.47370 0.52400 0.59440 0.02000
C 	C 	0.30380 0.56880 0.67941 0.08900
C 	C 	0.22670 0.54460 0.69534 -0.11600
H 	H 	0.18680 0.51720 0.68560 0.07000
C 	C 	0.21110 0.56170 0.72530 0.06100
H 	H 	0.15750 0.54840 0.73520 0.00500
C 	C 	0.34670 0.62010 0.72569 0.07000
H 	H 	0.38880 0.64500 0.73610 0.00700
C 	C 	0.36010 0.60650 0.69553 -0.10700
H 	H 	0.41070 0.62390 0.68550 0.09000
C 	C 	0.23500 0.60700 0.68850 -0.06500
H 	H 	0.19140 0.62080 0.67440 0.07100
C 	C 	0.23100 0.62500 0.71800 0.03300
H 	H 	0.19590 0.65960 0.72270 0.02600
C 	C 	0.35070 0.56830 0.73180 0.00000
H 	H 	0.39360 0.55710 0.74680 0.02400
C 	C 	0.36930 0.55450 0.70150 -0.05200
H 	H 	0.42500 0.53590 0.69590 0.04200
C 	C 	0.25400 0.60760 0.77333 0.17500
C 	C 	0.16620 0.61980 0.78198 -0.20000
H 	H 	0.11960 0.62450 0.76730 0.10000
C 	C 	0.14610 0.62550 0.81351 0.09300
H 	H 	0.08570 0.63330 0.82000 0.02000
C 	C 	0.21630 0.61940 0.83470 -0.13500
C 	C 	0.30470 0.61320 0.82468 0.09700
H 	H 	0.35290 0.61220 0.83900 0.01800
C 	C 	0.32540 0.60830 0.79329 -0.20000
H 	H 	0.38650 0.60560 0.78640 0.10000
C 	C 	0.19470 0.62490 0.86929 0.36100
O 	O 	0.38310 0.37488 0.45834 -0.43600
O 	O 	0.40900 0.47009 0.44152 -0.30300
O 	O 	0.25870 0.62950 0.88758 -0.30300
O 	O 	0.10900 0.62490 0.87583 -0.43300
O 	O 	0.55280 0.34350 0.41807 -0.43900
O 	O 	0.71830 0.33800 0.42007 -0.21200
O 	O 	0.62650 0.24030 0.41929 -0.45100
N 	N 	0.34080 0.51431 0.58650 -0.15300
N 	N 	0.27260 0.59750 0.74040 -0.16800
F 	F 	0.64400 0.30300 0.37237 -0.43900
P 	P 	0.13153 0.80323 0.91033 0.66600
Zn	Zn	0.91577 0.84584 0.91758 1.24600
C 	C 	0.89170 0.93290 0.96249 0.34600
C 	C 	0.87630 0.95480 0.99477 -0.14400
C 	C 	0.85260 0.91300 0.01805 0.11100
H 	H 	0.84470 0.87170 0.01330 0.02300
C 	C 	0.84100 0.93290 0.04824 -0.21300
H 	H 	0.82580 0.90520 0.06380 0.13300
C 	C 	0.85220 0.99340 0.05449 0.20000
C 	C 	0.87110 0.03640 0.03210 -0.20500
H 	H 	0.87480 0.07790 0.03700 0.13200
C 	C 	0.88460 0.01660 0.00203 0.10800
H 	H 	0.89930 0.04480 0.98670 0.01900
C 	C 	0.75430 0.01850 0.09844 0.09100
H 	H 	0.70310 0.00920 0.08630 0.03200
C 	C 	0.74200 0.03630 0.12824 -0.11300
H 	H 	0.68230 0.03910 0.13630 0.07900
C 	C 	0.81780 0.05030 0.14646 0.06500
C 	C 	0.90470 0.04600 0.13387 -0.11300
H 	H 	0.95690 0.05550 0.14560 0.08400
C 	C 	0.91480 0.02730 0.10310 0.09300
H 	H 	0.97370 0.02400 0.09440 0.02000
C 	C 	0.80380 0.06880 0.17941 0.08900
C 	C 	0.72670 0.04460 0.19534 -0.11600
H 	H 	0.68680 0.01720 0.18560 0.07000
C 	C 	0.71110 0.06170 0.22530 0.06100
H 	H 	0.65750 0.04840 0.23520 0.00500
C 	C 	0.84670 0.12010 0.22569 0.07000
H 	H 	0.88880 0.14500 0.23610 0.00700
C 	C 	0.86010 0.10650 0.19553 -0.10700
H 	H 	0.91070 0.12390 0.18550 0.09000
C 	C 	0.73500 0.10700 0.18850 -0.06500
H 	H 	0.69140 0.12080 0.17440 0.07100
C 	C 	0.73100 0.12500 0.21800 0.03300
H 	H 	0.69590 0.15960 0.22270 0.02600
C 	C 	0.85070 0.06830 0.23180 0.00000
H 	H 	0.89360 0.05710 0.24680 0.02400
C 	C 	0.86930 0.05450 0.20150 -0.05200
H 	H 	0.92500 0.03590 0.19590 0.04200
C 	C 	0.75400 0.10760 0.27333 0.17500
C 	C 	0.66620 0.11980 0.28198 -0.20000
H 	H 	0.61960 0.12450 0.26730 0.10000
C 	C 	0.64610 0.12550 0.31351 0.09300
H 	H 	0.58570 0.13330 0.32000 0.02000
C 	C 	0.71630 0.11940 0.33470 -0.13500
C 	C 	0.80470 0.11320 0.32468 0.09700
H 	H 	0.85290 0.11220 0.33900 0.01800
C 	C 	0.82540 0.10830 0.29329 -0.20000
H 	H 	0.88650 0.10560 0.28640 0.10000
C 	C 	0.69470 0.12490 0.36929 0.36100
O 	O 	0.88310 0.87488 0.95834 -0.43600
O 	O 	0.90900 0.97009 0.94152 -0.30300
O 	O 	0.75870 0.12950 0.38758 -0.30300
O 	O 	0.60900 0.12490 0.37583 -0.43300
O 	O 	0.05280 0.84350 0.91807 -0.43900
O 	O 	0.21830 0.83800 0.92007 -0.21200
O 	O 	0.12650 0.74030 0.91929 -0.45100
N 	N 	0.84080 0.01431 0.08650 -0.15300
N 	N 	0.77260 0.09750 0.24040 -0.16800
F 	F 	0.14400 0.80300 0.87237 -0.43900
P 	P 	0.13153 0.19677 0.58967 0.66600
Zn	Zn	0.91577 0.15416 0.58242 1.24600
C 	C 	0.89170 0.06710 0.53751 0.34600
C 	C 	0.87630 0.04520 0.50523 -0.14400
C 	C 	0.85260 0.08700 0.48195 0.11100
H 	H 	0.84470 0.12830 0.48670 0.02300
C 	C 	0.84100 0.06710 0.45176 -0.21300
H 	H 	0.82580 0.09480 0.43620 0.13300
C 	C 	0.85220 0.00660 0.44551 0.20000
C 	C 	0.87110 0.96360 0.46790 -0.20500
H 	H 	0.87480 0.92210 0.46300 0.13200
C 	C 	0.88460 0.98340 0.49797 0.10800
H 	H 	0.89930 0.95520 0.51330 0.01900
C 	C 	0.75430 0.98150 0.40156 0.09100
H 	H 	0.70310 0.99080 0.41370 0.03200
C 	C 	0.74200 0.96370 0.37176 -0.11300
H 	H 	0.68230 0.96090 0.36370 0.07900
C 	C 	0.81780 0.94970 0.35354 0.06500
C 	C 	0.90470 0.95400 0.36613 -0.11300
H 	H 	0.95690 0.94450 0.35440 0.08400
C 	C 	0.91480 0.97270 0.39690 0.09300
H 	H 	0.97370 0.97600 0.40560 0.02000
C 	C 	0.80380 0.93120 0.32059 0.08900
C 	C 	0.72670 0.95540 0.30466 -0.11600
H 	H 	0.68680 0.98280 0.31440 0.07000
C 	C 	0.71110 0.93830 0.27470 0.06100
H 	H 	0.65750 0.95160 0.26480 0.00500
C 	C 	0.84670 0.87990 0.27431 0.07000
H 	H 	0.88880 0.85500 0.26390 0.00700
C 	C 	0.86010 0.89350 0.30447 -0.10700
H 	H 	0.91070 0.87610 0.31450 0.09000
C 	C 	0.73500 0.89300 0.31150 -0.06500
H 	H 	0.69140 0.87920 0.32560 0.07100
C 	C 	0.73100 0.87500 0.28200 0.03300
H 	H 	0.69590 0.84040 0.27730 0.02600
C 	C 	0.85070 0.93170 0.26820 0.00000
H 	H 	0.89360 0.94290 0.25320 0.02400
C 	C 	0.86930 0.94550 0.29850 -0.05200
H 	H 	0.92500 0.96410 0.30410 0.04200
C 	C 	0.75400 0.89240 0.22667 0.17500
C 	C 	0.66620 0.88020 0.21802 -0.20000
H 	H 	0.61960 0.87550 0.23270 0.10000
C 	C 	0.64610 0.87450 0.18649 0.09300
H 	H 	0.58570 0.86670 0.18000 0.02000
C 	C 	0.71630 0.88060 0.16530 -0.13500
C 	C 	0.80470 0.88680 0.17532 0.09700
H 	H 	0.85290 0.88780 0.16100 0.01800
C 	C 	0.82540 0.89170 0.20671 -0.20000
H 	H 	0.88650 0.89440 0.21360 0.10000
C 	C 	0.69470 0.87510 0.13071 0.36100
O 	O 	0.88310 0.12512 0.54166 -0.43600
O 	O 	0.90900 0.02991 0.55848 -0.30300
O 	O 	0.75870 0.87050 0.11242 -0.30300
O 	O 	0.60900 0.87510 0.12417 -0.43300
O 	O 	0.05280 0.15650 0.58193 -0.43900
O 	O 	0.21830 0.16200 0.57993 -0.21200
O 	O 	0.12650 0.25970 0.58071 -0.45100
N 	N 	0.84080 0.98569 0.41350 -0.15300
N 	N 	0.77260 0.90250 0.25960 -0.16800
F 	F 	0.14400 0.19700 0.62763 -0.43900
P 	P 	0.63153 0.69677 0.08967 0.66600
Zn	Zn	0.41577 0.65416 0.08242 1.24600
C 	C 	0.39170 0.56710 0.03751 0.34600
C 	C 	0.37630 0.54520 0.00523 -0.14400
C 	C 	0.35260 0.58700 0.98195 0.11100
H 	H 	0.34470 0.62830 0.98670 0.02300
C 	C 	0.34100 0.56710 0.95176 -0.21200
H 	H 	0.32580 0.59480 0.93620 0.13300
C 	C 	0.35220 0.50660 0.94551 0.20000
C 	C 	0.37110 0.46360 0.96790 -0.20500
H 	H 	0.37480 0.42210 0.96300 0.13200
C 	C 	0.38460 0.48340 0.99797 0.10800
H 	H 	0.39930 0.45520 0.01330 0.01900
C 	C 	0.25430 0.48150 0.90156 0.09100
H 	H 	0.20310 0.49080 0.91370 0.03200
C 	C 	0.24200 0.46370 0.87176 -0.11300
H 	H 	0.18230 0.46090 0.86370 0.07900
C 	C 	0.31780 0.44970 0.85354 0.06500
C 	C 	0.40470 0.45400 0.86613 -0.11300
H 	H 	0.45690 0.44450 0.85440 0.08400
C 	C 	0.41480 0.47270 0.89690 0.09300
H 	H 	0.47370 0.47600 0.90560 0.02000
C 	C 	0.30380 0.43120 0.82059 0.08900
C 	C 	0.22670 0.45540 0.80466 -0.11600
H 	H 	0.18680 0.48280 0.81440 0.07000
C 	C 	0.21110 0.43830 0.77470 0.06100
H 	H 	0.15750 0.45160 0.76480 0.00500
C 	C 	0.34670 0.37990 0.77431 0.07000
H 	H 	0.38880 0.35500 0.76390 0.00700
C 	C 	0.36010 0.39350 0.80447 -0.10700
H 	H 	0.41070 0.37610 0.81450 0.09000
C 	C 	0.23500 0.39300 0.81150 -0.06500
H 	H 	0.19140 0.37920 0.82560 0.07100
C 	C 	0.23100 0.37500 0.78200 0.03300
H 	H 	0.19590 0.34040 0.77730 0.02600
C 	C 	0.35070 0.43170 0.76820 0.00000
H 	H 	0.39360 0.44290 0.75320 0.02400
C 	C 	0.36930 0.44550 0.79850 -0.05200
H 	H 	0.42500 0.46410 0.80410 0.04200
C 	C 	0.25400 0.39240 0.72667 0.17500
C 	C 	0.16620 0.38020 0.71802 -0.20000
H 	H 	0.11960 0.37550 0.73270 0.10000
C 	C 	0.14610 0.37450 0.68649 0.09300
H 	H 	0.08570 0.36670 0.68000 0.02000
C 	C 	0.21630 0.38060 0.66530 -0.13500
C 	C 	0.30470 0.38680 0.67532 0.09700
H 	H 	0.35290 0.38780 0.66100 0.01800
C 	C 	0.32540 0.39170 0.70671 -0.20000
H 	H 	0.38650 0.39440 0.71360 0.10000
C 	C 	0.19470 0.37510 0.63071 0.36100
O 	O 	0.38310 0.62512 0.04166 -0.43600
O 	O 	0.40900 0.52991 0.05848 -0.30300
O 	O 	0.25870 0.37050 0.61242 -0.30300
O 	O 	0.10900 0.37510 0.62417 -0.43300
O 	O 	0.55280 0.65650 0.08193 -0.43900
O 	O 	0.71830 0.66200 0.07993 -0.21200
O 	O 	0.62650 0.75970 0.08071 -0.45100
N 	N 	0.34080 0.48569 0.91350 -0.15300
N 	N 	0.27260 0.40250 0.75960 -0.16800
F 	F 	0.64400 0.69700 0.12763 -0.43900
P 	P 	0.36847 0.80323 0.08967 0.66600
Zn	Zn	0.58423 0.84584 0.08242 1.24600
C 	C 	0.60830 0.93290 0.03751 0.34600
C 	C 	0.62370 0.95480 0.00523 -0.14400
C 	C 	0.64740 0.91300 0.98195 0.11100
H 	H 	0.65530 0.87170 0.98670 0.02300
C 	C 	0.65900 0.93290 0.95176 -0.21300
H 	H 	0.67420 0.90520 0.93620 0.13300
C 	C 	0.64780 0.99340 0.94551 0.20000
C 	C 	0.62890 0.03640 0.96790 -0.20500
H 	H 	0.62520 0.07790 0.96300 0.13200
C 	C 	0.61540 0.01660 0.99797 0.10800
H 	H 	0.60070 0.04480 0.01330 0.01900
C 	C 	0.74570 0.01850 0.90156 0.09100
H 	H 	0.79690 0.00920 0.91370 0.03200
C 	C 	0.75800 0.03630 0.87176 -0.11300
H 	H 	0.81770 0.03910 0.86370 0.07900
C 	C 	0.68220 0.05030 0.85354 0.06500
C 	C 	0.59530 0.04600 0.86613 -0.11300
H 	H 	0.54310 0.05550 0.85440 0.08400
C 	C 	0.58520 0.02730 0.89690 0.09300
H 	H 	0.52630 0.02400 0.90560 0.02000
C 	C 	0.69620 0.06880 0.82059 0.08900
C 	C 	0.77330 0.04460 0.80466 -0.11600
H 	H 	0.81320 0.01720 0.81440 0.07000
C 	C 	0.78890 0.06170 0.77470 0.06100
H 	H 	0.84250 0.04840 0.76480 0.00500
C 	C 	0.65330 0.12010 0.77431 0.07000
H 	H 	0.61120 0.14500 0.76390 0.00700
C 	C 	0.63990 0.10650 0.80447 -0.10700
H 	H 	0.58930 0.12390 0.81450 0.09000
C 	C 	0.76500 0.10700 0.81150 -0.06500
H 	H 	0.80860 0.12080 0.82560 0.07100
C 	C 	0.76900 0.12500 0.78200 0.03300
H 	H 	0.80410 0.15960 0.77730 0.02600
C 	C 	0.64930 0.06830 0.76820 0.00000
H 	H 	0.60640 0.05710 0.75320 0.02400
C 	C 	0.63070 0.05450 0.79850 -0.05200
H 	H 	0.57500 0.03590 0.80410 0.04200
C 	C 	0.74600 0.10760 0.72667 0.17500
C 	C 	0.83380 0.11980 0.71802 -0.20000
H 	H 	0.88040 0.12450 0.73270 0.10000
C 	C 	0.85390 0.12550 0.68649 0.09300
H 	H 	0.91430 0.13330 0.68000 0.02000
C 	C 	0.78370 0.11940 0.66530 -0.13500
C 	C 	0.69530 0.11320 0.67532 0.09700
H 	H 	0.64710 0.11220 0.66100 0.01800
C 	C 	0.67460 0.10830 0.70671 -0.20000
H 	H 	0.61350 0.10560 0.71360 0.10000
C 	C 	0.80530 0.12490 0.63071 0.36100
O 	O 	0.61690 0.87488 0.04166 -0.43600
O 	O 	0.59100 0.97009 0.05848 -0.30300
O 	O 	0.74130 0.12950 0.61242 -0.30300
O 	O 	0.89100 0.12490 0.62417 -0.43300
O 	O 	0.44720 0.84350 0.08193 -0.43900
O 	O 	0.28170 0.83800 0.07993 -0.21200
O 	O 	0.37350 0.74030 0.08071 -0.45100
N 	N 	0.65920 0.01431 0.91350 -0.15300
N 	N 	0.72740 0.09750 0.75960 -0.16800
F 	F 	0.35600 0.80300 0.12763 -0.43900
P 	P 	0.86847 0.30323 0.58967 0.66600
Zn	Zn	0.08423 0.34584 0.58242 1.24600
C 	C 	0.10830 0.43290 0.53751 0.34600
C 	C 	0.12370 0.45480 0.50523 -0.14400
C 	C 	0.14740 0.41300 0.48195 0.11100
H 	H 	0.15530 0.37170 0.48670 0.02300
C 	C 	0.15900 0.43290 0.45176 -0.21200
H 	H 	0.17420 0.40520 0.43620 0.13300
C 	C 	0.14780 0.49340 0.44551 0.20000
C 	C 	0.12890 0.53640 0.46790 -0.20500
H 	H 	0.12520 0.57790 0.46300 0.13200
C 	C 	0.11540 0.51660 0.49797 0.10800
H 	H 	0.10070 0.54480 0.51330 0.01900
C 	C 	0.24570 0.51850 0.40156 0.09100
H 	H 	0.29690 0.50920 0.41370 0.03200
C 	C 	0.25800 0.53630 0.37176 -0.11300
H 	H 	0.31770 0.53910 0.36370 0.07900
C 	C 	0.18220 0.55030 0.35354 0.06500
C 	C 	0.09530 0.54600 0.36613 -0.11300
H 	H 	0.04310 0.55550 0.35440 0.08400
C 	C 	0.08520 0.52730 0.39690 0.09300
H 	H 	0.02630 0.52400 0.40560 0.02000
C 	C 	0.19620 0.56880 0.32059 0.08900
C 	C 	0.27330 0.54460 0.30466 -0.11600
H 	H 	0.31320 0.51720 0.31440 0.07000
C 	C 	0.28890 0.56170 0.27470 0.06100
H 	H 	0.34250 0.54840 0.26480 0.00500
C 	C 	0.15330 0.62010 0.27431 0.07000
H 	H 	0.11120 0.64500 0.26390 0.00700
C 	C 	0.13990 0.60650 0.30447 -0.10700
H 	H 	0.08930 0.62390 0.31450 0.09000
C 	C 	0.26500 0.60700 0.31150 -0.06500
H 	H 	0.30860 0.62080 0.32560 0.07100
C 	C 	0.26900 0.62500 0.28200 0.03300
H 	H 	0.30410 0.65960 0.27730 0.02600
C 	C 	0.14930 0.56830 0.26820 0.00000
H 	H 	0.10640 0.55710 0.25320 0.02400
C 	C 	0.13070 0.55450 0.29850 -0.05200
H 	H 	0.07500 0.53590 0.30410 0.04200
C 	C 	0.24600 0.60760 0.22667 0.17500
C 	C 	0.33380 0.61980 0.21802 -0.20000
H 	H 	0.38040 0.62450 0.23270 0.09900
C 	C 	0.35390 0.62550 0.18649 0.09300
H 	H 	0.41430 0.63330 0.18000 0.02000
C 	C 	0.28370 0.61940 0.16530 -0.13500
C 	C 	0.19530 0.61320 0.17532 0.09700
H 	H 	0.14710 0.61220 0.16100 0.01800
C 	C 	0.17460 0.60830 0.20671 -0.20000
H 	H 	0.11350 0.60560 0.21360 0.10000
C 	C 	0.30530 0.62490 0.13071 0.36100
O 	O 	0.11690 0.37488 0.54166 -0.43600
O 	O 	0.09100 0.47009 0.55848 -0.30300
O 	O 	0.24130 0.62950 0.11242 -0.30300
O 	O 	0.39100 0.62490 0.12417 -0.43300
O 	O 	0.94720 0.34350 0.58193 -0.43900
O 	O 	0.78170 0.33800 0.57993 -0.21200
O 	O 	0.87350 0.24030 0.58071 -0.45100
N 	N 	0.15920 0.51431 0.41350 -0.15300
N 	N 	0.22740 0.59750 0.25960 -0.16800
F 	F 	0.85600 0.30300 0.62763 -0.43900
