data_crystal

_cell_length_a 36.79300
_cell_length_b 36.79300
_cell_length_c 36.79300
_cell_angle_alpha 90.00000
_cell_angle_beta  90.00000
_cell_angle_gamma 90.00000

_symmetry_space_group_name_	'P 1'
_symmetry_space_group_name_H-M	'P 1'

loop_
_symmetry_equiv_pos_as_xyz
  x,y,z

loop_
_atom_site_label
_atom_site_type_symbol
_atom_site_fract_x
_atom_site_fract_y
_atom_site_fract_z
_atom_site_charge
C 	C 	0.23270 0.05230 0.19150 0.19200
H 	H 	0.25460 0.04290 0.18170 -0.04900
C 	C 	0.21320 0.07980 0.17280 -0.30600
H 	H 	0.22300 0.08850 0.15050 0.12900
C 	C 	0.23270 0.55230 0.69150 0.19200
H 	H 	0.25460 0.54290 0.68170 -0.04900
C 	C 	0.21320 0.57980 0.67280 -0.30600
H 	H 	0.22300 0.58850 0.65050 0.12900
C 	C 	0.73270 0.05230 0.69150 0.19200
H 	H 	0.75460 0.04290 0.68170 -0.04900
C 	C 	0.71320 0.07980 0.67280 -0.30600
H 	H 	0.72300 0.08850 0.65050 0.12900
C 	C 	0.73270 0.55230 0.19150 0.19200
H 	H 	0.75460 0.54290 0.18170 -0.04900
C 	C 	0.71320 0.57980 0.17280 -0.30600
H 	H 	0.72300 0.58850 0.15050 0.12900
C 	C 	0.76730 0.94770 0.19150 0.19200
H 	H 	0.74540 0.95710 0.18170 -0.04800
C 	C 	0.78680 0.92020 0.17280 -0.30500
H 	H 	0.77700 0.91150 0.15050 0.12900
C 	C 	0.76730 0.44770 0.69150 0.19300
H 	H 	0.74540 0.45710 0.68170 -0.04900
C 	C 	0.78680 0.42020 0.67280 -0.30600
H 	H 	0.77700 0.41150 0.65050 0.12900
C 	C 	0.26730 0.94770 0.69150 0.19200
H 	H 	0.24540 0.95710 0.68170 -0.04800
C 	C 	0.28680 0.92020 0.67280 -0.30500
H 	H 	0.27700 0.91150 0.65050 0.12900
C 	C 	0.26730 0.44770 0.19150 0.19200
H 	H 	0.24540 0.45710 0.18170 -0.04900
C 	C 	0.28680 0.42020 0.17280 -0.30600
H 	H 	0.27700 0.41150 0.15050 0.12900
C 	C 	0.76730 0.05230 0.80850 0.19200
H 	H 	0.74540 0.04290 0.81830 -0.04900
C 	C 	0.78680 0.07980 0.82720 -0.30600
H 	H 	0.77700 0.08850 0.84950 0.12900
C 	C 	0.76730 0.55230 0.30850 0.19300
H 	H 	0.74540 0.54290 0.31830 -0.04900
C 	C 	0.78680 0.57980 0.32720 -0.30600
H 	H 	0.77700 0.58850 0.34950 0.12900
C 	C 	0.26730 0.05230 0.30850 0.19200
H 	H 	0.24540 0.04290 0.31830 -0.04900
C 	C 	0.28680 0.07980 0.32720 -0.30600
H 	H 	0.27700 0.08850 0.34950 0.12900
C 	C 	0.26730 0.55230 0.80850 0.19300
H 	H 	0.24540 0.54290 0.81830 -0.04900
C 	C 	0.28680 0.57980 0.82720 -0.30600
H 	H 	0.27700 0.58850 0.84950 0.12900
C 	C 	0.23270 0.94770 0.80850 0.19300
H 	H 	0.25460 0.95710 0.81830 -0.04700
C 	C 	0.21320 0.92020 0.82720 -0.30500
H 	H 	0.22300 0.91150 0.84950 0.13000
C 	C 	0.23270 0.44770 0.30850 0.19200
H 	H 	0.25460 0.45710 0.31830 -0.04900
C 	C 	0.21320 0.42020 0.32720 -0.30600
H 	H 	0.22300 0.41150 0.34950 0.12900
C 	C 	0.73270 0.94770 0.30850 0.19300
H 	H 	0.75460 0.95710 0.31830 -0.04800
C 	C 	0.71320 0.92020 0.32720 -0.30500
H 	H 	0.72300 0.91150 0.34950 0.12900
C 	C 	0.73270 0.44770 0.80850 0.19300
H 	H 	0.75460 0.45710 0.81830 -0.04900
C 	C 	0.71320 0.42020 0.82720 -0.30600
H 	H 	0.72300 0.41150 0.84950 0.12900
C 	C 	0.19150 0.23270 0.05230 0.19200
H 	H 	0.18170 0.25460 0.04290 -0.04900
C 	C 	0.17280 0.21320 0.07980 -0.30600
H 	H 	0.15050 0.22300 0.08850 0.12900
C 	C 	0.19150 0.73270 0.55230 0.19200
H 	H 	0.18170 0.75460 0.54290 -0.04900
C 	C 	0.17280 0.71320 0.57980 -0.30600
H 	H 	0.15050 0.72300 0.58850 0.12900
C 	C 	0.69150 0.23270 0.55230 0.19200
H 	H 	0.68170 0.25460 0.54290 -0.04900
C 	C 	0.67280 0.21320 0.57980 -0.30600
H 	H 	0.65050 0.22300 0.58850 0.12900
C 	C 	0.69150 0.73270 0.05230 0.19200
H 	H 	0.68170 0.75460 0.04290 -0.04900
C 	C 	0.67280 0.71320 0.07980 -0.30600
H 	H 	0.65050 0.72300 0.08850 0.12900
C 	C 	0.19150 0.76730 0.94770 0.19200
H 	H 	0.18170 0.74540 0.95710 -0.04800
C 	C 	0.17280 0.78680 0.92020 -0.30500
H 	H 	0.15050 0.77700 0.91150 0.12900
C 	C 	0.19150 0.26730 0.44770 0.19200
H 	H 	0.18170 0.24540 0.45710 -0.04900
C 	C 	0.17280 0.28680 0.42020 -0.30600
H 	H 	0.15050 0.27700 0.41150 0.12900
C 	C 	0.69150 0.76730 0.44770 0.19300
H 	H 	0.68170 0.74540 0.45710 -0.04900
C 	C 	0.67280 0.78680 0.42020 -0.30600
H 	H 	0.65050 0.77700 0.41150 0.12900
C 	C 	0.69150 0.26730 0.94770 0.19200
H 	H 	0.68170 0.24540 0.95710 -0.04800
C 	C 	0.67280 0.28680 0.92020 -0.30500
H 	H 	0.65050 0.27700 0.91150 0.12900
C 	C 	0.80850 0.76730 0.05230 0.19200
H 	H 	0.81830 0.74540 0.04290 -0.04900
C 	C 	0.82720 0.78680 0.07980 -0.30600
H 	H 	0.84950 0.77700 0.08850 0.12900
C 	C 	0.80850 0.26730 0.55230 0.19300
H 	H 	0.81830 0.24540 0.54290 -0.04900
C 	C 	0.82720 0.28680 0.57980 -0.30600
H 	H 	0.84950 0.27700 0.58850 0.12900
C 	C 	0.30850 0.76730 0.55230 0.19300
H 	H 	0.31830 0.74540 0.54290 -0.04900
C 	C 	0.32720 0.78680 0.57980 -0.30600
H 	H 	0.34950 0.77700 0.58850 0.12900
C 	C 	0.30850 0.26730 0.05230 0.19200
H 	H 	0.31830 0.24540 0.04290 -0.04900
C 	C 	0.32720 0.28680 0.07980 -0.30600
H 	H 	0.34950 0.27700 0.08850 0.12800
C 	C 	0.80850 0.23270 0.94770 0.19200
H 	H 	0.81830 0.25460 0.95710 -0.04800
C 	C 	0.82720 0.21320 0.92020 -0.30600
H 	H 	0.84950 0.22300 0.91150 0.12900
C 	C 	0.80850 0.73270 0.44770 0.19200
H 	H 	0.81830 0.75460 0.45710 -0.05000
C 	C 	0.82720 0.71320 0.42020 -0.30700
H 	H 	0.84950 0.72300 0.41150 0.12800
C 	C 	0.30850 0.23270 0.44770 0.19100
H 	H 	0.31830 0.25460 0.45710 -0.05000
C 	C 	0.32720 0.21320 0.42020 -0.30700
H 	H 	0.34950 0.22300 0.41150 0.12800
C 	C 	0.30850 0.73270 0.94770 0.19200
H 	H 	0.31830 0.75460 0.95710 -0.04900
C 	C 	0.32720 0.71320 0.92020 -0.30600
H 	H 	0.34950 0.72300 0.91150 0.12800
C 	C 	0.05230 0.19150 0.23270 0.19100
H 	H 	0.04290 0.18170 0.25460 -0.05000
C 	C 	0.07980 0.17280 0.21320 -0.30700
H 	H 	0.08850 0.15050 0.22300 0.12800
C 	C 	0.05230 0.69150 0.73270 0.19100
H 	H 	0.04290 0.68170 0.75460 -0.05000
C 	C 	0.07980 0.67280 0.71320 -0.30700
H 	H 	0.08850 0.65050 0.72300 0.12800
C 	C 	0.55230 0.19150 0.73270 0.19100
H 	H 	0.54290 0.18170 0.75460 -0.05000
C 	C 	0.57980 0.17280 0.71320 -0.30700
H 	H 	0.58850 0.15050 0.72300 0.12800
C 	C 	0.55230 0.69150 0.23270 0.19100
H 	H 	0.54290 0.68170 0.25460 -0.05000
C 	C 	0.57980 0.67280 0.21320 -0.30700
H 	H 	0.58850 0.65050 0.22300 0.12800
C 	C 	0.94770 0.19150 0.76730 0.19100
H 	H 	0.95710 0.18170 0.74540 -0.04900
C 	C 	0.92020 0.17280 0.78680 -0.30600
H 	H 	0.91150 0.15050 0.77700 0.12800
C 	C 	0.94770 0.69150 0.26730 0.19100
H 	H 	0.95710 0.68170 0.24540 -0.04900
C 	C 	0.92020 0.67280 0.28680 -0.30600
H 	H 	0.91150 0.65050 0.27700 0.12800
C 	C 	0.44770 0.19150 0.26730 0.19100
H 	H 	0.45710 0.18170 0.24540 -0.05000
C 	C 	0.42020 0.17280 0.28680 -0.30700
H 	H 	0.41150 0.15050 0.27700 0.12800
C 	C 	0.44770 0.69150 0.76730 0.19200
H 	H 	0.45710 0.68170 0.74540 -0.05000
C 	C 	0.42020 0.67280 0.78680 -0.30700
H 	H 	0.41150 0.65050 0.77700 0.12800
C 	C 	0.05230 0.80850 0.76730 0.19100
H 	H 	0.04290 0.81830 0.74540 -0.05000
C 	C 	0.07980 0.82720 0.78680 -0.30700
H 	H 	0.08850 0.84950 0.77700 0.12800
C 	C 	0.05230 0.30850 0.26730 0.19100
H 	H 	0.04290 0.31830 0.24540 -0.05000
C 	C 	0.07980 0.32720 0.28680 -0.30700
H 	H 	0.08850 0.34950 0.27700 0.12800
C 	C 	0.55230 0.80850 0.26730 0.19200
H 	H 	0.54290 0.81830 0.24540 -0.05000
C 	C 	0.57980 0.82720 0.28680 -0.30700
H 	H 	0.58850 0.84950 0.27700 0.12800
C 	C 	0.55230 0.30850 0.76730 0.19200
H 	H 	0.54290 0.31830 0.74540 -0.05000
C 	C 	0.57980 0.32720 0.78680 -0.30700
H 	H 	0.58850 0.34950 0.77700 0.12800
C 	C 	0.94770 0.80850 0.23270 0.19200
H 	H 	0.95710 0.81830 0.25460 -0.04800
C 	C 	0.92020 0.82720 0.21320 -0.30600
H 	H 	0.91150 0.84950 0.22300 0.12900
C 	C 	0.94770 0.30850 0.73270 0.19200
H 	H 	0.95710 0.31830 0.75460 -0.04900
C 	C 	0.92020 0.32720 0.71320 -0.30600
H 	H 	0.91150 0.34950 0.72300 0.12800
C 	C 	0.44770 0.80850 0.73270 0.19200
H 	H 	0.45710 0.81830 0.75460 -0.05000
C 	C 	0.42020 0.82720 0.71320 -0.30700
H 	H 	0.41150 0.84950 0.72300 0.12800
C 	C 	0.44770 0.30850 0.23270 0.19100
H 	H 	0.45710 0.31830 0.25460 -0.05000
C 	C 	0.42020 0.32720 0.21320 -0.30700
H 	H 	0.41150 0.34950 0.22300 0.12800
C 	C 	0.05230 0.23270 0.80850 0.19100
H 	H 	0.04290 0.25460 0.81830 -0.05000
C 	C 	0.07980 0.21320 0.82720 -0.30700
H 	H 	0.08850 0.22300 0.84950 0.12800
C 	C 	0.05230 0.73270 0.30850 0.19100
H 	H 	0.04290 0.75460 0.31830 -0.05000
C 	C 	0.07980 0.71320 0.32720 -0.30700
H 	H 	0.08850 0.72300 0.34950 0.12800
C 	C 	0.55230 0.23270 0.30850 0.19100
H 	H 	0.54290 0.25460 0.31830 -0.05000
C 	C 	0.57980 0.21320 0.32720 -0.30700
H 	H 	0.58850 0.22300 0.34950 0.12800
C 	C 	0.55230 0.73270 0.80850 0.19200
H 	H 	0.54290 0.75460 0.81830 -0.05000
C 	C 	0.57980 0.71320 0.82720 -0.30700
H 	H 	0.58850 0.72300 0.84950 0.12800
C 	C 	0.94770 0.76730 0.80850 0.19200
H 	H 	0.95710 0.74540 0.81830 -0.04800
C 	C 	0.92020 0.78680 0.82720 -0.30600
H 	H 	0.91150 0.77700 0.84950 0.12900
C 	C 	0.94770 0.26730 0.30850 0.19100
H 	H 	0.95710 0.24540 0.31830 -0.04900
C 	C 	0.92020 0.28680 0.32720 -0.30600
H 	H 	0.91150 0.27700 0.34950 0.12800
C 	C 	0.44770 0.76730 0.30850 0.19200
H 	H 	0.45710 0.74540 0.31830 -0.05000
C 	C 	0.42020 0.78680 0.32720 -0.30700
H 	H 	0.41150 0.77700 0.34950 0.12800
C 	C 	0.44770 0.26730 0.80850 0.19200
H 	H 	0.45710 0.24540 0.81830 -0.05000
C 	C 	0.42020 0.28680 0.82720 -0.30700
H 	H 	0.41150 0.27700 0.84950 0.12800
C 	C 	0.05230 0.76730 0.19150 0.19100
H 	H 	0.04290 0.74540 0.18170 -0.05000
C 	C 	0.07980 0.78680 0.17280 -0.30700
H 	H 	0.08850 0.77700 0.15050 0.12800
C 	C 	0.05230 0.26730 0.69150 0.19100
H 	H 	0.04290 0.24540 0.68170 -0.05000
C 	C 	0.07980 0.28680 0.67280 -0.30700
H 	H 	0.08850 0.27700 0.65050 0.12800
C 	C 	0.55230 0.76730 0.69150 0.19200
H 	H 	0.54290 0.74540 0.68170 -0.05000
C 	C 	0.57980 0.78680 0.67280 -0.30700
H 	H 	0.58850 0.77700 0.65050 0.12800
C 	C 	0.55230 0.26730 0.19150 0.19100
H 	H 	0.54290 0.24540 0.18170 -0.05000
C 	C 	0.57980 0.28680 0.17280 -0.30700
H 	H 	0.58850 0.27700 0.15050 0.12800
C 	C 	0.94770 0.23270 0.19150 0.19100
H 	H 	0.95710 0.25460 0.18170 -0.04900
C 	C 	0.92020 0.21320 0.17280 -0.30600
H 	H 	0.91150 0.22300 0.15050 0.12800
C 	C 	0.94770 0.73270 0.69150 0.19200
H 	H 	0.95710 0.75460 0.68170 -0.04900
C 	C 	0.92020 0.71320 0.67280 -0.30600
H 	H 	0.91150 0.72300 0.65050 0.12800
C 	C 	0.44770 0.23270 0.69150 0.19100
H 	H 	0.45710 0.25460 0.68170 -0.05000
C 	C 	0.42020 0.21320 0.67280 -0.30700
H 	H 	0.41150 0.22300 0.65050 0.12800
C 	C 	0.44770 0.73270 0.19150 0.19100
H 	H 	0.45710 0.75460 0.18170 -0.05000
C 	C 	0.42020 0.71320 0.17280 -0.30700
H 	H 	0.41150 0.72300 0.15050 0.12800
C 	C 	0.23270 0.19150 0.94770 0.19100
H 	H 	0.25460 0.18170 0.95710 -0.04900
C 	C 	0.21320 0.17280 0.92020 -0.30600
H 	H 	0.22300 0.15050 0.91150 0.12800
C 	C 	0.23270 0.69150 0.44770 0.19100
H 	H 	0.25460 0.68170 0.45710 -0.05000
C 	C 	0.21320 0.67280 0.42020 -0.30700
H 	H 	0.22300 0.65050 0.41150 0.12800
C 	C 	0.73270 0.19150 0.44770 0.19100
H 	H 	0.75460 0.18170 0.45710 -0.05000
C 	C 	0.71320 0.17280 0.42020 -0.30700
H 	H 	0.72300 0.15050 0.41150 0.12800
C 	C 	0.73270 0.69150 0.94770 0.19200
H 	H 	0.75460 0.68170 0.95710 -0.04900
C 	C 	0.71320 0.67280 0.92020 -0.30600
H 	H 	0.72300 0.65050 0.91150 0.12800
C 	C 	0.76730 0.19150 0.05230 0.19100
H 	H 	0.74540 0.18170 0.04290 -0.05000
C 	C 	0.78680 0.17280 0.07980 -0.30700
H 	H 	0.77700 0.15050 0.08850 0.12800
C 	C 	0.76730 0.69150 0.55230 0.19200
H 	H 	0.74540 0.68170 0.54290 -0.05000
C 	C 	0.78680 0.67280 0.57980 -0.30700
H 	H 	0.77700 0.65050 0.58850 0.12800
C 	C 	0.26730 0.19150 0.55230 0.19100
H 	H 	0.24540 0.18170 0.54290 -0.05000
C 	C 	0.28680 0.17280 0.57980 -0.30700
H 	H 	0.27700 0.15050 0.58850 0.12800
C 	C 	0.26730 0.69150 0.05230 0.19100
H 	H 	0.24540 0.68170 0.04290 -0.05000
C 	C 	0.28680 0.67280 0.07980 -0.30700
H 	H 	0.27700 0.65050 0.08850 0.12800
C 	C 	0.76730 0.80850 0.94770 0.19200
H 	H 	0.74540 0.81830 0.95710 -0.04800
C 	C 	0.78680 0.82720 0.92020 -0.30600
H 	H 	0.77700 0.84950 0.91150 0.12900
C 	C 	0.76730 0.30850 0.44770 0.19200
H 	H 	0.74540 0.31830 0.45710 -0.05000
C 	C 	0.78680 0.32720 0.42020 -0.30700
H 	H 	0.77700 0.34950 0.41150 0.12800
C 	C 	0.26730 0.80850 0.44770 0.19200
H 	H 	0.24540 0.81830 0.45710 -0.05000
C 	C 	0.28680 0.82720 0.42020 -0.30700
H 	H 	0.27700 0.84950 0.41150 0.12800
C 	C 	0.26730 0.30850 0.94770 0.19100
H 	H 	0.24540 0.31830 0.95710 -0.04900
C 	C 	0.28680 0.32720 0.92020 -0.30600
H 	H 	0.27700 0.34950 0.91150 0.12800
C 	C 	0.23270 0.80850 0.05230 0.19100
H 	H 	0.25460 0.81830 0.04290 -0.05000
C 	C 	0.21320 0.82720 0.07980 -0.30700
H 	H 	0.22300 0.84950 0.08850 0.12800
C 	C 	0.23270 0.30850 0.55230 0.19100
H 	H 	0.25460 0.31830 0.54290 -0.05000
C 	C 	0.21320 0.32720 0.57980 -0.30700
H 	H 	0.22300 0.34950 0.58850 0.12800
C 	C 	0.73270 0.80850 0.55230 0.19200
H 	H 	0.75460 0.81830 0.54290 -0.05000
C 	C 	0.71320 0.82720 0.57980 -0.30700
H 	H 	0.72300 0.84950 0.58850 0.12800
C 	C 	0.73270 0.30850 0.05230 0.19100
H 	H 	0.75460 0.31830 0.04290 -0.05000
C 	C 	0.71320 0.32720 0.07980 -0.30700
H 	H 	0.72300 0.34950 0.08850 0.12800
C 	C 	0.19150 0.05230 0.76730 0.19100
H 	H 	0.18170 0.04290 0.74540 -0.05000
C 	C 	0.17280 0.07980 0.78680 -0.30700
H 	H 	0.15050 0.08850 0.77700 0.12800
C 	C 	0.19150 0.55230 0.26730 0.19100
H 	H 	0.18170 0.54290 0.24540 -0.05000
C 	C 	0.17280 0.57980 0.28680 -0.30700
H 	H 	0.15050 0.58850 0.27700 0.12800
C 	C 	0.69150 0.05230 0.26730 0.19100
H 	H 	0.68170 0.04290 0.24540 -0.05000
C 	C 	0.67280 0.07980 0.28680 -0.30700
H 	H 	0.65050 0.08850 0.27700 0.12800
C 	C 	0.69150 0.55230 0.76730 0.19200
H 	H 	0.68170 0.54290 0.74540 -0.05000
C 	C 	0.67280 0.57980 0.78680 -0.30700
H 	H 	0.65050 0.58850 0.77700 0.12800
C 	C 	0.19150 0.94770 0.23270 0.19100
H 	H 	0.18170 0.95710 0.25460 -0.04900
C 	C 	0.17280 0.92020 0.21320 -0.30600
H 	H 	0.15050 0.91150 0.22300 0.12800
C 	C 	0.19150 0.44770 0.73270 0.19100
H 	H 	0.18170 0.45710 0.75460 -0.05000
C 	C 	0.17280 0.42020 0.71320 -0.30700
H 	H 	0.15050 0.41150 0.72300 0.12800
C 	C 	0.69150 0.94770 0.73270 0.19200
H 	H 	0.68170 0.95710 0.75460 -0.04900
C 	C 	0.67280 0.92020 0.71320 -0.30600
H 	H 	0.65050 0.91150 0.72300 0.12800
C 	C 	0.69150 0.44770 0.23270 0.19100
H 	H 	0.68170 0.45710 0.25460 -0.05000
C 	C 	0.67280 0.42020 0.21320 -0.30700
H 	H 	0.65050 0.41150 0.22300 0.12800
C 	C 	0.80850 0.05230 0.23270 0.19100
H 	H 	0.81830 0.04290 0.25460 -0.05000
C 	C 	0.82720 0.07980 0.21320 -0.30700
H 	H 	0.84950 0.08850 0.22300 0.12800
C 	C 	0.80850 0.55230 0.73270 0.19200
H 	H 	0.81830 0.54290 0.75460 -0.05000
C 	C 	0.82720 0.57980 0.71320 -0.30700
H 	H 	0.84950 0.58850 0.72300 0.12800
C 	C 	0.30850 0.05230 0.73270 0.19100
H 	H 	0.31830 0.04290 0.75460 -0.05000
C 	C 	0.32720 0.07980 0.71320 -0.30700
H 	H 	0.34950 0.08850 0.72300 0.12800
C 	C 	0.30850 0.55230 0.23270 0.19100
H 	H 	0.31830 0.54290 0.25460 -0.05000
C 	C 	0.32720 0.57980 0.21320 -0.30700
H 	H 	0.34950 0.58850 0.22300 0.12800
C 	C 	0.80850 0.94770 0.76730 0.19200
H 	H 	0.81830 0.95710 0.74540 -0.04800
C 	C 	0.82720 0.92020 0.78680 -0.30600
H 	H 	0.84950 0.91150 0.77700 0.12900
C 	C 	0.80850 0.44770 0.26730 0.19200
H 	H 	0.81830 0.45710 0.24540 -0.05000
C 	C 	0.82720 0.42020 0.28680 -0.30700
H 	H 	0.84950 0.41150 0.27700 0.12800
C 	C 	0.30850 0.94770 0.26730 0.19100
H 	H 	0.31830 0.95710 0.24540 -0.04900
C 	C 	0.32720 0.92020 0.28680 -0.30600
H 	H 	0.34950 0.91150 0.27700 0.12800
C 	C 	0.30850 0.44770 0.76730 0.19200
H 	H 	0.31830 0.45710 0.74540 -0.05000
C 	C 	0.32720 0.42020 0.78680 -0.30700
H 	H 	0.34950 0.41150 0.77700 0.12800
C 	C 	0.76730 0.94770 0.80850 0.19200
H 	H 	0.74540 0.95710 0.81830 -0.04800
C 	C 	0.78680 0.92020 0.82720 -0.30600
H 	H 	0.77700 0.91150 0.84950 0.12900
C 	C 	0.76730 0.44770 0.30850 0.19200
H 	H 	0.74540 0.45710 0.31830 -0.05000
C 	C 	0.78680 0.42020 0.32720 -0.30700
H 	H 	0.77700 0.41150 0.34950 0.12800
C 	C 	0.26730 0.94770 0.30850 0.19100
H 	H 	0.24540 0.95710 0.31830 -0.04900
C 	C 	0.28680 0.92020 0.32720 -0.30600
H 	H 	0.27700 0.91150 0.34950 0.12800
C 	C 	0.26730 0.44770 0.80850 0.19200
H 	H 	0.24540 0.45710 0.81830 -0.05000
C 	C 	0.28680 0.42020 0.82720 -0.30700
H 	H 	0.27700 0.41150 0.84950 0.12800
C 	C 	0.23270 0.05230 0.80850 0.19100
H 	H 	0.25460 0.04290 0.81830 -0.05000
C 	C 	0.21320 0.07980 0.82720 -0.30700
H 	H 	0.22300 0.08850 0.84950 0.12800
C 	C 	0.23270 0.55230 0.30850 0.19100
H 	H 	0.25460 0.54290 0.31830 -0.05000
C 	C 	0.21320 0.57980 0.32720 -0.30700
H 	H 	0.22300 0.58850 0.34950 0.12800
C 	C 	0.73270 0.05230 0.30850 0.19100
H 	H 	0.75460 0.04290 0.31830 -0.05000
C 	C 	0.71320 0.07980 0.32720 -0.30700
H 	H 	0.72300 0.08850 0.34950 0.12800
C 	C 	0.73270 0.55230 0.80850 0.19200
H 	H 	0.75460 0.54290 0.81830 -0.05000
C 	C 	0.71320 0.57980 0.82720 -0.30700
H 	H 	0.72300 0.58850 0.84950 0.12800
C 	C 	0.23270 0.94770 0.19150 0.19100
H 	H 	0.25460 0.95710 0.18170 -0.04900
C 	C 	0.21320 0.92020 0.17280 -0.30600
H 	H 	0.22300 0.91150 0.15050 0.12800
C 	C 	0.23270 0.44770 0.69150 0.19100
H 	H 	0.25460 0.45710 0.68170 -0.05000
C 	C 	0.21320 0.42020 0.67280 -0.30700
H 	H 	0.22300 0.41150 0.65050 0.12800
C 	C 	0.73270 0.94770 0.69150 0.19200
H 	H 	0.75460 0.95710 0.68170 -0.04900
C 	C 	0.71320 0.92020 0.67280 -0.30600
H 	H 	0.72300 0.91150 0.65050 0.12800
C 	C 	0.73270 0.44770 0.19150 0.19100
H 	H 	0.75460 0.45710 0.18170 -0.05000
C 	C 	0.71320 0.42020 0.17280 -0.30700
H 	H 	0.72300 0.41150 0.15050 0.12800
C 	C 	0.76730 0.05230 0.19150 0.19100
H 	H 	0.74540 0.04290 0.18170 -0.05000
C 	C 	0.78680 0.07980 0.17280 -0.30700
H 	H 	0.77700 0.08850 0.15050 0.12800
C 	C 	0.76730 0.55230 0.69150 0.19200
H 	H 	0.74540 0.54290 0.68170 -0.05000
C 	C 	0.78680 0.57980 0.67280 -0.30700
H 	H 	0.77700 0.58850 0.65050 0.12800
C 	C 	0.26730 0.05230 0.69150 0.19100
H 	H 	0.24540 0.04290 0.68170 -0.05000
C 	C 	0.28680 0.07980 0.67280 -0.30700
H 	H 	0.27700 0.08850 0.65050 0.12800
C 	C 	0.26730 0.55230 0.19150 0.19100
H 	H 	0.24540 0.54290 0.18170 -0.05000
C 	C 	0.28680 0.57980 0.17280 -0.30700
H 	H 	0.27700 0.58850 0.15050 0.12800
C 	C 	0.80850 0.76730 0.94770 0.19200
H 	H 	0.81830 0.74540 0.95710 -0.04800
C 	C 	0.82720 0.78680 0.92020 -0.30600
H 	H 	0.84950 0.77700 0.91150 0.12900
C 	C 	0.80850 0.26730 0.44770 0.19200
H 	H 	0.81830 0.24540 0.45710 -0.05000
C 	C 	0.82720 0.28680 0.42020 -0.30700
H 	H 	0.84950 0.27700 0.41150 0.12800
C 	C 	0.30850 0.76730 0.44770 0.19200
H 	H 	0.31830 0.74540 0.45710 -0.05000
C 	C 	0.32720 0.78680 0.42020 -0.30700
H 	H 	0.34950 0.77700 0.41150 0.12800
C 	C 	0.30850 0.26730 0.94770 0.19100
H 	H 	0.31830 0.24540 0.95710 -0.04900
C 	C 	0.32720 0.28680 0.92020 -0.30600
H 	H 	0.34950 0.27700 0.91150 0.12800
C 	C 	0.80850 0.23270 0.05230 0.19100
H 	H 	0.81830 0.25460 0.04290 -0.05000
C 	C 	0.82720 0.21320 0.07980 -0.30700
H 	H 	0.84950 0.22300 0.08850 0.12800
C 	C 	0.80850 0.73270 0.55230 0.19200
H 	H 	0.81830 0.75460 0.54290 -0.05000
C 	C 	0.82720 0.71320 0.57980 -0.30700
H 	H 	0.84950 0.72300 0.58850 0.12800
C 	C 	0.30850 0.23270 0.55230 0.19100
H 	H 	0.31830 0.25460 0.54290 -0.05000
C 	C 	0.32720 0.21320 0.57980 -0.30700
H 	H 	0.34950 0.22300 0.58850 0.12800
C 	C 	0.30850 0.73270 0.05230 0.19100
H 	H 	0.31830 0.75460 0.04290 -0.05000
C 	C 	0.32720 0.71320 0.07980 -0.30700
H 	H 	0.34950 0.72300 0.08850 0.12800
C 	C 	0.19150 0.23270 0.94770 0.19100
H 	H 	0.18170 0.25460 0.95710 -0.04900
C 	C 	0.17280 0.21320 0.92020 -0.30600
H 	H 	0.15050 0.22300 0.91150 0.12800
C 	C 	0.19150 0.73270 0.44770 0.19100
H 	H 	0.18170 0.75460 0.45710 -0.05000
C 	C 	0.17280 0.71320 0.42020 -0.30700
H 	H 	0.15050 0.72300 0.41150 0.12800
C 	C 	0.69150 0.23270 0.44770 0.19100
H 	H 	0.68170 0.25460 0.45710 -0.05000
C 	C 	0.67280 0.21320 0.42020 -0.30700
H 	H 	0.65050 0.22300 0.41150 0.12800
C 	C 	0.69150 0.73270 0.94770 0.19200
H 	H 	0.68170 0.75460 0.95710 -0.04900
C 	C 	0.67280 0.71320 0.92020 -0.30600
H 	H 	0.65050 0.72300 0.91150 0.12800
C 	C 	0.19150 0.76730 0.05230 0.19100
H 	H 	0.18170 0.74540 0.04290 -0.05000
C 	C 	0.17280 0.78680 0.07980 -0.30700
H 	H 	0.15050 0.77700 0.08850 0.12800
C 	C 	0.19150 0.26730 0.55230 0.19100
H 	H 	0.18170 0.24540 0.54290 -0.05000
C 	C 	0.17280 0.28680 0.57980 -0.30700
H 	H 	0.15050 0.27700 0.58850 0.12800
C 	C 	0.69150 0.76730 0.55230 0.19200
H 	H 	0.68170 0.74540 0.54290 -0.05000
C 	C 	0.67280 0.78680 0.57980 -0.30700
H 	H 	0.65050 0.77700 0.58850 0.12800
C 	C 	0.69150 0.26730 0.05230 0.19100
H 	H 	0.68170 0.24540 0.04290 -0.05000
C 	C 	0.67280 0.28680 0.07980 -0.30700
H 	H 	0.65050 0.27700 0.08850 0.12800
C 	C 	0.94770 0.80850 0.76730 0.19200
H 	H 	0.95710 0.81830 0.74540 -0.04800
C 	C 	0.92020 0.82720 0.78680 -0.30600
H 	H 	0.91150 0.84950 0.77700 0.12900
C 	C 	0.94770 0.30850 0.26730 0.19100
H 	H 	0.95710 0.31830 0.24540 -0.04900
C 	C 	0.92020 0.32720 0.28680 -0.30600
H 	H 	0.91150 0.34950 0.27700 0.12800
C 	C 	0.44770 0.80850 0.26730 0.19200
H 	H 	0.45710 0.81830 0.24540 -0.05000
C 	C 	0.42020 0.82720 0.28680 -0.30700
H 	H 	0.41150 0.84950 0.27700 0.12800
C 	C 	0.44770 0.30850 0.76730 0.19200
H 	H 	0.45710 0.31830 0.74540 -0.05000
C 	C 	0.42020 0.32720 0.78680 -0.30700
H 	H 	0.41150 0.34950 0.77700 0.12800
C 	C 	0.05230 0.80850 0.23270 0.19100
H 	H 	0.04290 0.81830 0.25460 -0.05000
C 	C 	0.07980 0.82720 0.21320 -0.30700
H 	H 	0.08850 0.84950 0.22300 0.12800
C 	C 	0.05230 0.30850 0.73270 0.19100
H 	H 	0.04290 0.31830 0.75460 -0.05000
C 	C 	0.07980 0.32720 0.71320 -0.30700
H 	H 	0.08850 0.34950 0.72300 0.12800
C 	C 	0.55230 0.80850 0.73270 0.19200
H 	H 	0.54290 0.81830 0.75460 -0.05000
C 	C 	0.57980 0.82720 0.71320 -0.30700
H 	H 	0.58850 0.84950 0.72300 0.12800
C 	C 	0.55230 0.30850 0.23270 0.19100
H 	H 	0.54290 0.31830 0.25460 -0.05000
C 	C 	0.57980 0.32720 0.21320 -0.30700
H 	H 	0.58850 0.34950 0.22300 0.12800
C 	C 	0.94770 0.19150 0.23270 0.19100
H 	H 	0.95710 0.18170 0.25460 -0.04900
C 	C 	0.92020 0.17280 0.21320 -0.30600
H 	H 	0.91150 0.15050 0.22300 0.12800
C 	C 	0.94770 0.69150 0.73270 0.19200
H 	H 	0.95710 0.68170 0.75460 -0.04900
C 	C 	0.92020 0.67280 0.71320 -0.30600
H 	H 	0.91150 0.65050 0.72300 0.12800
C 	C 	0.44770 0.19150 0.73270 0.19100
H 	H 	0.45710 0.18170 0.75460 -0.05000
C 	C 	0.42020 0.17280 0.71320 -0.30700
H 	H 	0.41150 0.15050 0.72300 0.12800
C 	C 	0.44770 0.69150 0.23270 0.19100
H 	H 	0.45710 0.68170 0.25460 -0.05000
C 	C 	0.42020 0.67280 0.21320 -0.30700
H 	H 	0.41150 0.65050 0.22300 0.12800
C 	C 	0.05230 0.19150 0.76730 0.19100
H 	H 	0.04290 0.18170 0.74540 -0.05000
C 	C 	0.07980 0.17280 0.78680 -0.30700
H 	H 	0.08850 0.15050 0.77700 0.12800
C 	C 	0.05230 0.69150 0.26730 0.19100
H 	H 	0.04290 0.68170 0.24540 -0.05000
C 	C 	0.07980 0.67280 0.28680 -0.30700
H 	H 	0.08850 0.65050 0.27700 0.12800
C 	C 	0.55230 0.19150 0.26730 0.19100
H 	H 	0.54290 0.18170 0.24540 -0.05000
C 	C 	0.57980 0.17280 0.28680 -0.30700
H 	H 	0.58850 0.15050 0.27700 0.12800
C 	C 	0.55230 0.69150 0.76730 0.19200
H 	H 	0.54290 0.68170 0.74540 -0.05000
C 	C 	0.57980 0.67280 0.78680 -0.30700
H 	H 	0.58850 0.65050 0.77700 0.12800
C 	C 	0.94770 0.76730 0.19150 0.19100
H 	H 	0.95710 0.74540 0.18170 -0.04900
C 	C 	0.92020 0.78680 0.17280 -0.30600
H 	H 	0.91150 0.77700 0.15050 0.12800
C 	C 	0.94770 0.26730 0.69150 0.19100
H 	H 	0.95710 0.24540 0.68170 -0.04900
C 	C 	0.92020 0.28680 0.67280 -0.30600
H 	H 	0.91150 0.27700 0.65050 0.12800
C 	C 	0.44770 0.76730 0.69150 0.19200
H 	H 	0.45710 0.74540 0.68170 -0.05000
C 	C 	0.42020 0.78680 0.67280 -0.30700
H 	H 	0.41150 0.77700 0.65050 0.12800
C 	C 	0.44770 0.26730 0.19150 0.19100
H 	H 	0.45710 0.24540 0.18170 -0.05000
C 	C 	0.42020 0.28680 0.17280 -0.30700
H 	H 	0.41150 0.27700 0.15050 0.12800
C 	C 	0.05230 0.23270 0.19150 0.19100
H 	H 	0.04290 0.25460 0.18170 -0.05000
C 	C 	0.07980 0.21320 0.17280 -0.30700
H 	H 	0.08850 0.22300 0.15050 0.12800
C 	C 	0.05230 0.73270 0.69150 0.19100
H 	H 	0.04290 0.75460 0.68170 -0.05000
C 	C 	0.07980 0.71320 0.67280 -0.30700
H 	H 	0.08850 0.72300 0.65050 0.12800
C 	C 	0.55230 0.23270 0.69150 0.19100
H 	H 	0.54290 0.25460 0.68170 -0.05000
C 	C 	0.57980 0.21320 0.67280 -0.30700
H 	H 	0.58850 0.22300 0.65050 0.12800
C 	C 	0.55230 0.73270 0.19150 0.19100
H 	H 	0.54290 0.75460 0.18170 -0.05000
C 	C 	0.57980 0.71320 0.17280 -0.30700
H 	H 	0.58850 0.72300 0.15050 0.12800
C 	C 	0.94770 0.23270 0.80850 0.19200
H 	H 	0.95710 0.25460 0.81830 -0.04800
C 	C 	0.92020 0.21320 0.82720 -0.30600
H 	H 	0.91150 0.22300 0.84950 0.12900
C 	C 	0.94770 0.73270 0.30850 0.19200
H 	H 	0.95710 0.75460 0.31830 -0.04900
C 	C 	0.92020 0.71320 0.32720 -0.30600
H 	H 	0.91150 0.72300 0.34950 0.12800
C 	C 	0.44770 0.23270 0.30850 0.19100
H 	H 	0.45710 0.25460 0.31830 -0.05000
C 	C 	0.42020 0.21320 0.32720 -0.30700
H 	H 	0.41150 0.22300 0.34950 0.12800
C 	C 	0.44770 0.73270 0.80850 0.19200
H 	H 	0.45710 0.75460 0.81830 -0.05000
C 	C 	0.42020 0.71320 0.82720 -0.30700
H 	H 	0.41150 0.72300 0.84950 0.12800
C 	C 	0.05230 0.76730 0.80850 0.19100
H 	H 	0.04290 0.74540 0.81830 -0.05000
C 	C 	0.07980 0.78680 0.82720 -0.30700
H 	H 	0.08850 0.77700 0.84950 0.12800
C 	C 	0.05230 0.26730 0.30850 0.19100
H 	H 	0.04290 0.24540 0.31830 -0.05000
C 	C 	0.07980 0.28680 0.32720 -0.30700
H 	H 	0.08850 0.27700 0.34950 0.12800
C 	C 	0.55230 0.76730 0.30850 0.19200
H 	H 	0.54290 0.74540 0.31830 -0.05000
C 	C 	0.57980 0.78680 0.32720 -0.30700
H 	H 	0.58850 0.77700 0.34950 0.12800
C 	C 	0.55230 0.26730 0.80850 0.19200
H 	H 	0.54290 0.24540 0.81830 -0.05000
C 	C 	0.57980 0.28680 0.82720 -0.30700
H 	H 	0.58850 0.27700 0.84950 0.12800
C 	C 	0.76730 0.80850 0.05230 0.19100
H 	H 	0.74540 0.81830 0.04290 -0.05000
C 	C 	0.78680 0.82720 0.07980 -0.30700
H 	H 	0.77700 0.84950 0.08850 0.12800
C 	C 	0.76730 0.30850 0.55230 0.19200
H 	H 	0.74540 0.31830 0.54290 -0.05000
C 	C 	0.78680 0.32720 0.57980 -0.30700
H 	H 	0.77700 0.34950 0.58850 0.12800
C 	C 	0.26730 0.80850 0.55230 0.19200
H 	H 	0.24540 0.81830 0.54290 -0.05000
C 	C 	0.28680 0.82720 0.57980 -0.30700
H 	H 	0.27700 0.84950 0.58850 0.12800
C 	C 	0.26730 0.30850 0.05230 0.19100
H 	H 	0.24540 0.31830 0.04290 -0.05000
C 	C 	0.28680 0.32720 0.07980 -0.30700
H 	H 	0.27700 0.34950 0.08850 0.12800
C 	C 	0.23270 0.80850 0.94770 0.19200
H 	H 	0.25460 0.81830 0.95710 -0.04800
C 	C 	0.21320 0.82720 0.92020 -0.30600
H 	H 	0.22300 0.84950 0.91150 0.12900
C 	C 	0.23270 0.30850 0.44770 0.19100
H 	H 	0.25460 0.31830 0.45710 -0.05000
C 	C 	0.21320 0.32720 0.42020 -0.30700
H 	H 	0.22300 0.34950 0.41150 0.12800
C 	C 	0.73270 0.80850 0.44770 0.19200
H 	H 	0.75460 0.81830 0.45710 -0.05000
C 	C 	0.71320 0.82720 0.42020 -0.30700
H 	H 	0.72300 0.84950 0.41150 0.12800
C 	C 	0.73270 0.30850 0.94770 0.19200
H 	H 	0.75460 0.31830 0.95710 -0.04900
C 	C 	0.71320 0.32720 0.92020 -0.30600
H 	H 	0.72300 0.34950 0.91150 0.12800
C 	C 	0.23270 0.19150 0.05230 0.19100
H 	H 	0.25460 0.18170 0.04290 -0.05000
C 	C 	0.21320 0.17280 0.07980 -0.30700
H 	H 	0.22300 0.15050 0.08850 0.12800
C 	C 	0.23270 0.69150 0.55230 0.19100
H 	H 	0.25460 0.68170 0.54290 -0.05000
C 	C 	0.21320 0.67280 0.57980 -0.30700
H 	H 	0.22300 0.65050 0.58850 0.12800
C 	C 	0.73270 0.19150 0.55230 0.19100
H 	H 	0.75460 0.18170 0.54290 -0.05000
C 	C 	0.71320 0.17280 0.57980 -0.30700
H 	H 	0.72300 0.15050 0.58850 0.12800
C 	C 	0.73270 0.69150 0.05230 0.19100
H 	H 	0.75460 0.68170 0.04290 -0.05000
C 	C 	0.71320 0.67280 0.07980 -0.30700
H 	H 	0.72300 0.65050 0.08850 0.12800
C 	C 	0.76730 0.19150 0.94770 0.19100
H 	H 	0.74540 0.18170 0.95710 -0.04900
C 	C 	0.78680 0.17280 0.92020 -0.30600
H 	H 	0.77700 0.15050 0.91150 0.12800
C 	C 	0.76730 0.69150 0.44770 0.19200
H 	H 	0.74540 0.68170 0.45710 -0.05000
C 	C 	0.78680 0.67280 0.42020 -0.30700
H 	H 	0.77700 0.65050 0.41150 0.12800
C 	C 	0.26730 0.19150 0.44770 0.19100
H 	H 	0.24540 0.18170 0.45710 -0.05000
C 	C 	0.28680 0.17280 0.42020 -0.30700
H 	H 	0.27700 0.15050 0.41150 0.12800
C 	C 	0.26730 0.69150 0.94770 0.19100
H 	H 	0.24540 0.68170 0.95710 -0.04900
C 	C 	0.28680 0.67280 0.92020 -0.30600
H 	H 	0.27700 0.65050 0.91150 0.12800
C 	C 	0.80850 0.94770 0.23270 0.19200
H 	H 	0.81830 0.95710 0.25460 -0.04800
C 	C 	0.82720 0.92020 0.21320 -0.30600
H 	H 	0.84950 0.91150 0.22300 0.12900
C 	C 	0.80850 0.44770 0.73270 0.19200
H 	H 	0.81830 0.45710 0.75460 -0.05000
C 	C 	0.82720 0.42020 0.71320 -0.30700
H 	H 	0.84950 0.41150 0.72300 0.12800
C 	C 	0.30850 0.94770 0.73270 0.19200
H 	H 	0.31830 0.95710 0.75460 -0.04900
C 	C 	0.32720 0.92020 0.71320 -0.30600
H 	H 	0.34950 0.91150 0.72300 0.12800
C 	C 	0.30850 0.44770 0.23270 0.19100
H 	H 	0.31830 0.45710 0.25460 -0.05000
C 	C 	0.32720 0.42020 0.21320 -0.30700
H 	H 	0.34950 0.41150 0.22300 0.12800
C 	C 	0.80850 0.05230 0.76730 0.19100
H 	H 	0.81830 0.04290 0.74540 -0.05000
C 	C 	0.82720 0.07980 0.78680 -0.30700
H 	H 	0.84950 0.08850 0.77700 0.12800
C 	C 	0.80850 0.55230 0.26730 0.19200
H 	H 	0.81830 0.54290 0.24540 -0.05000
C 	C 	0.82720 0.57980 0.28680 -0.30700
H 	H 	0.84950 0.58850 0.27700 0.12800
C 	C 	0.30850 0.05230 0.26730 0.19100
H 	H 	0.31830 0.04290 0.24540 -0.05000
C 	C 	0.32720 0.07980 0.28680 -0.30700
H 	H 	0.34950 0.08850 0.27700 0.12800
C 	C 	0.30850 0.55230 0.76730 0.19200
H 	H 	0.31830 0.54290 0.74540 -0.05000
C 	C 	0.32720 0.57980 0.78680 -0.30700
H 	H 	0.34950 0.58850 0.77700 0.12800
C 	C 	0.19150 0.94770 0.76730 0.19100
H 	H 	0.18170 0.95710 0.74540 -0.04900
C 	C 	0.17280 0.92020 0.78680 -0.30600
H 	H 	0.15050 0.91150 0.77700 0.12800
C 	C 	0.19150 0.44770 0.26730 0.19100
H 	H 	0.18170 0.45710 0.24540 -0.05000
C 	C 	0.17280 0.42020 0.28680 -0.30700
H 	H 	0.15050 0.41150 0.27700 0.12800
C 	C 	0.69150 0.94770 0.26730 0.19100
H 	H 	0.68170 0.95710 0.24540 -0.04900
C 	C 	0.67280 0.92020 0.28680 -0.30600
H 	H 	0.65050 0.91150 0.27700 0.12800
C 	C 	0.69150 0.44770 0.76730 0.19200
H 	H 	0.68170 0.45710 0.74540 -0.05000
C 	C 	0.67280 0.42020 0.78680 -0.30700
H 	H 	0.65050 0.41150 0.77700 0.12800
C 	C 	0.19150 0.05230 0.23270 0.19100
H 	H 	0.18170 0.04290 0.25460 -0.05000
C 	C 	0.17280 0.07980 0.21320 -0.30700
H 	H 	0.15050 0.08850 0.22300 0.12800
C 	C 	0.19150 0.55230 0.73270 0.19100
H 	H 	0.18170 0.54290 0.75460 -0.05000
C 	C 	0.17280 0.57980 0.71320 -0.30700
H 	H 	0.15050 0.58850 0.72300 0.12800
C 	C 	0.69150 0.05230 0.73270 0.19100
H 	H 	0.68170 0.04290 0.75460 -0.05000
C 	C 	0.67280 0.07980 0.71320 -0.30700
H 	H 	0.65050 0.08850 0.72300 0.12800
C 	C 	0.69150 0.55230 0.23270 0.19100
H 	H 	0.68170 0.54290 0.25460 -0.05000
C 	C 	0.67280 0.57980 0.21320 -0.30700
H 	H 	0.65050 0.58850 0.22300 0.12800
C 	C 	0.18380 0.09350 0.18380 0.29000
N 	N 	0.22082 0.04050 0.22082 -0.30400
N 	N 	0.16320 0.11940 0.16320 -0.17700
C 	C 	0.18380 0.59350 0.68380 0.29000
N 	N 	0.22082 0.54050 0.72082 -0.30400
N 	N 	0.16320 0.61940 0.66320 -0.17700
C 	C 	0.68380 0.09350 0.68380 0.29000
N 	N 	0.72082 0.04050 0.72082 -0.30400
N 	N 	0.66320 0.11940 0.66320 -0.17700
C 	C 	0.68380 0.59350 0.18380 0.29000
N 	N 	0.72082 0.54050 0.22082 -0.30400
N 	N 	0.66320 0.61940 0.16320 -0.17700
C 	C 	0.81620 0.90650 0.18380 0.29100
N 	N 	0.77918 0.95950 0.22082 -0.30300
N 	N 	0.83680 0.88060 0.16320 -0.17700
C 	C 	0.81620 0.40650 0.68380 0.29100
N 	N 	0.77918 0.45950 0.72082 -0.30400
N 	N 	0.83680 0.38060 0.66320 -0.17700
C 	C 	0.31620 0.90650 0.68380 0.29000
N 	N 	0.27918 0.95950 0.72082 -0.30300
N 	N 	0.33680 0.88060 0.66320 -0.17700
C 	C 	0.31620 0.40650 0.18380 0.29000
N 	N 	0.27918 0.45950 0.22082 -0.30400
N 	N 	0.33680 0.38060 0.16320 -0.17700
C 	C 	0.81620 0.09350 0.81620 0.29100
N 	N 	0.77918 0.04050 0.77918 -0.30400
N 	N 	0.83680 0.11940 0.83680 -0.17700
C 	C 	0.81620 0.59350 0.31620 0.29100
N 	N 	0.77918 0.54050 0.27918 -0.30400
N 	N 	0.83680 0.61940 0.33680 -0.17700
C 	C 	0.31620 0.09350 0.31620 0.29000
N 	N 	0.27918 0.04050 0.27918 -0.30400
N 	N 	0.33680 0.11940 0.33680 -0.17700
C 	C 	0.31620 0.59350 0.81620 0.29100
N 	N 	0.27918 0.54050 0.77918 -0.30400
N 	N 	0.33680 0.61940 0.83680 -0.17700
C 	C 	0.18380 0.90650 0.81620 0.29100
N 	N 	0.22082 0.95950 0.77918 -0.30300
N 	N 	0.16320 0.88060 0.83680 -0.17700
C 	C 	0.18380 0.40650 0.31620 0.29000
N 	N 	0.22082 0.45950 0.27918 -0.30400
N 	N 	0.16320 0.38060 0.33680 -0.17700
C 	C 	0.68380 0.90650 0.31620 0.29000
N 	N 	0.72082 0.95950 0.27918 -0.30300
N 	N 	0.66320 0.88060 0.33680 -0.17700
C 	C 	0.68380 0.40650 0.81620 0.29100
N 	N 	0.72082 0.45950 0.77918 -0.30400
N 	N 	0.66320 0.38060 0.83680 -0.17700
C 	C 	0.18380 0.18380 0.09350 0.29000
N 	N 	0.22082 0.22082 0.04050 -0.30400
N 	N 	0.16320 0.16320 0.11940 -0.17700
C 	C 	0.18380 0.68380 0.59350 0.29000
N 	N 	0.22082 0.72082 0.54050 -0.30400
N 	N 	0.16320 0.66320 0.61940 -0.17700
C 	C 	0.68380 0.18380 0.59350 0.29000
N 	N 	0.72082 0.22082 0.54050 -0.30400
N 	N 	0.66320 0.16320 0.61940 -0.17700
C 	C 	0.68380 0.68380 0.09350 0.29000
N 	N 	0.72082 0.72082 0.04050 -0.30400
N 	N 	0.66320 0.66320 0.11940 -0.17700
C 	C 	0.18380 0.81620 0.90650 0.29100
N 	N 	0.22082 0.77918 0.95950 -0.30300
N 	N 	0.16320 0.83680 0.88060 -0.17700
C 	C 	0.18380 0.31620 0.40650 0.29000
N 	N 	0.22082 0.27918 0.45950 -0.30400
N 	N 	0.16320 0.33680 0.38060 -0.17700
C 	C 	0.68380 0.81620 0.40650 0.29100
N 	N 	0.72082 0.77918 0.45950 -0.30400
N 	N 	0.66320 0.83680 0.38060 -0.17700
C 	C 	0.68380 0.31620 0.90650 0.29000
N 	N 	0.72082 0.27918 0.95950 -0.30300
N 	N 	0.66320 0.33680 0.88060 -0.17700
C 	C 	0.81620 0.81620 0.09350 0.29100
N 	N 	0.77918 0.77918 0.04050 -0.30400
N 	N 	0.83680 0.83680 0.11940 -0.17700
C 	C 	0.81620 0.31620 0.59350 0.29100
N 	N 	0.77918 0.27918 0.54050 -0.30400
N 	N 	0.83680 0.33680 0.61940 -0.17700
C 	C 	0.31620 0.81620 0.59350 0.29100
N 	N 	0.27918 0.77918 0.54050 -0.30400
N 	N 	0.33680 0.83680 0.61940 -0.17700
C 	C 	0.31620 0.31620 0.09350 0.29000
N 	N 	0.27918 0.27918 0.04050 -0.30400
N 	N 	0.33680 0.33680 0.11940 -0.17700
C 	C 	0.81620 0.18380 0.90650 0.29100
N 	N 	0.77918 0.22082 0.95950 -0.30300
N 	N 	0.83680 0.16320 0.88060 -0.17700
C 	C 	0.81620 0.68380 0.40650 0.29100
N 	N 	0.77918 0.72082 0.45950 -0.30400
N 	N 	0.83680 0.66320 0.38060 -0.17700
C 	C 	0.31620 0.18380 0.40650 0.29000
N 	N 	0.27918 0.22082 0.45950 -0.30400
N 	N 	0.33680 0.16320 0.38060 -0.17700
C 	C 	0.31620 0.68380 0.90650 0.29000
N 	N 	0.27918 0.72082 0.95950 -0.30300
N 	N 	0.33680 0.66320 0.88060 -0.17700
C 	C 	0.09350 0.18380 0.18380 0.29000
N 	N 	0.04050 0.22082 0.22082 -0.30400
N 	N 	0.11940 0.16320 0.16320 -0.17700
C 	C 	0.09350 0.68380 0.68380 0.29000
N 	N 	0.04050 0.72082 0.72082 -0.30400
N 	N 	0.11940 0.66320 0.66320 -0.17700
C 	C 	0.59350 0.18380 0.68380 0.29000
N 	N 	0.54050 0.22082 0.72082 -0.30400
N 	N 	0.61940 0.16320 0.66320 -0.17700
C 	C 	0.59350 0.68380 0.18380 0.29000
N 	N 	0.54050 0.72082 0.22082 -0.30400
N 	N 	0.61940 0.66320 0.16320 -0.17700
C 	C 	0.90650 0.18380 0.81620 0.29100
N 	N 	0.95950 0.22082 0.77918 -0.30300
N 	N 	0.88060 0.16320 0.83680 -0.17700
C 	C 	0.90650 0.68380 0.31620 0.29000
N 	N 	0.95950 0.72082 0.27918 -0.30300
N 	N 	0.88060 0.66320 0.33680 -0.17700
C 	C 	0.40650 0.18380 0.31620 0.29000
N 	N 	0.45950 0.22082 0.27918 -0.30400
N 	N 	0.38060 0.16320 0.33680 -0.17700
C 	C 	0.40650 0.68380 0.81620 0.29100
N 	N 	0.45950 0.72082 0.77918 -0.30400
N 	N 	0.38060 0.66320 0.83680 -0.17700
C 	C 	0.09350 0.81620 0.81620 0.29100
N 	N 	0.04050 0.77918 0.77918 -0.30400
N 	N 	0.11940 0.83680 0.83680 -0.17700
C 	C 	0.09350 0.31620 0.31620 0.29000
N 	N 	0.04050 0.27918 0.27918 -0.30400
N 	N 	0.11940 0.33680 0.33680 -0.17700
C 	C 	0.59350 0.81620 0.31620 0.29100
N 	N 	0.54050 0.77918 0.27918 -0.30400
N 	N 	0.61940 0.83680 0.33680 -0.17700
C 	C 	0.59350 0.31620 0.81620 0.29100
N 	N 	0.54050 0.27918 0.77918 -0.30400
N 	N 	0.61940 0.33680 0.83680 -0.17700
C 	C 	0.90650 0.81620 0.18380 0.29100
N 	N 	0.95950 0.77918 0.22082 -0.30300
N 	N 	0.88060 0.83680 0.16320 -0.17700
C 	C 	0.90650 0.31620 0.68380 0.29000
N 	N 	0.95950 0.27918 0.72082 -0.30300
N 	N 	0.88060 0.33680 0.66320 -0.17700
C 	C 	0.40650 0.81620 0.68380 0.29100
N 	N 	0.45950 0.77918 0.72082 -0.30400
N 	N 	0.38060 0.83680 0.66320 -0.17700
C 	C 	0.40650 0.31620 0.18380 0.29000
N 	N 	0.45950 0.27918 0.22082 -0.30400
N 	N 	0.38060 0.33680 0.16320 -0.17700
C 	C 	0.09350 0.18380 0.81620 0.29000
N 	N 	0.04050 0.22082 0.77918 -0.30400
N 	N 	0.11940 0.16320 0.83680 -0.17700
C 	C 	0.09350 0.68380 0.31620 0.29000
N 	N 	0.04050 0.72082 0.27918 -0.30400
N 	N 	0.11940 0.66320 0.33680 -0.17700
C 	C 	0.59350 0.18380 0.31620 0.29000
N 	N 	0.54050 0.22082 0.27918 -0.30400
N 	N 	0.61940 0.16320 0.33680 -0.17700
C 	C 	0.59350 0.68380 0.81620 0.29100
N 	N 	0.54050 0.72082 0.77918 -0.30400
N 	N 	0.61940 0.66320 0.83680 -0.17700
C 	C 	0.90650 0.81620 0.81620 0.29100
N 	N 	0.95950 0.77918 0.77918 -0.30300
N 	N 	0.88060 0.83680 0.83680 -0.17700
C 	C 	0.90650 0.31620 0.31620 0.29000
N 	N 	0.95950 0.27918 0.27918 -0.30300
N 	N 	0.88060 0.33680 0.33680 -0.17700
C 	C 	0.40650 0.81620 0.31620 0.29100
N 	N 	0.45950 0.77918 0.27918 -0.30400
N 	N 	0.38060 0.83680 0.33680 -0.17700
C 	C 	0.40650 0.31620 0.81620 0.29100
N 	N 	0.45950 0.27918 0.77918 -0.30400
N 	N 	0.38060 0.33680 0.83680 -0.17700
C 	C 	0.09350 0.81620 0.18380 0.29000
N 	N 	0.04050 0.77918 0.22082 -0.30400
N 	N 	0.11940 0.83680 0.16320 -0.17700
C 	C 	0.09350 0.31620 0.68380 0.29000
N 	N 	0.04050 0.27918 0.72082 -0.30400
N 	N 	0.11940 0.33680 0.66320 -0.17700
C 	C 	0.59350 0.81620 0.68380 0.29100
N 	N 	0.54050 0.77918 0.72082 -0.30400
N 	N 	0.61940 0.83680 0.66320 -0.17700
C 	C 	0.59350 0.31620 0.18380 0.29000
N 	N 	0.54050 0.27918 0.22082 -0.30400
N 	N 	0.61940 0.33680 0.16320 -0.17700
C 	C 	0.90650 0.18380 0.18380 0.29000
N 	N 	0.95950 0.22082 0.22082 -0.30300
N 	N 	0.88060 0.16320 0.16320 -0.17700
C 	C 	0.90650 0.68380 0.68380 0.29000
N 	N 	0.95950 0.72082 0.72082 -0.30300
N 	N 	0.88060 0.66320 0.66320 -0.17700
C 	C 	0.40650 0.18380 0.68380 0.29000
N 	N 	0.45950 0.22082 0.72082 -0.30400
N 	N 	0.38060 0.16320 0.66320 -0.17700
C 	C 	0.40650 0.68380 0.18380 0.29000
N 	N 	0.45950 0.72082 0.22082 -0.30400
N 	N 	0.38060 0.66320 0.16320 -0.17700
C 	C 	0.18380 0.18380 0.90650 0.29000
N 	N 	0.22082 0.22082 0.95950 -0.30300
N 	N 	0.16320 0.16320 0.88060 -0.17700
C 	C 	0.18380 0.68380 0.40650 0.29000
N 	N 	0.22082 0.72082 0.45950 -0.30400
N 	N 	0.16320 0.66320 0.38060 -0.17700
C 	C 	0.68380 0.18380 0.40650 0.29000
N 	N 	0.72082 0.22082 0.45950 -0.30400
N 	N 	0.66320 0.16320 0.38060 -0.17700
C 	C 	0.68380 0.68380 0.90650 0.29000
N 	N 	0.72082 0.72082 0.95950 -0.30300
N 	N 	0.66320 0.66320 0.88060 -0.17700
C 	C 	0.81620 0.18380 0.09350 0.29000
N 	N 	0.77918 0.22082 0.04050 -0.30400
N 	N 	0.83680 0.16320 0.11940 -0.17700
C 	C 	0.81620 0.68380 0.59350 0.29100
N 	N 	0.77918 0.72082 0.54050 -0.30400
N 	N 	0.83680 0.66320 0.61940 -0.17700
C 	C 	0.31620 0.18380 0.59350 0.29000
N 	N 	0.27918 0.22082 0.54050 -0.30400
N 	N 	0.33680 0.16320 0.61940 -0.17700
C 	C 	0.31620 0.68380 0.09350 0.29000
N 	N 	0.27918 0.72082 0.04050 -0.30400
N 	N 	0.33680 0.66320 0.11940 -0.17700
C 	C 	0.81620 0.81620 0.90650 0.29100
N 	N 	0.77918 0.77918 0.95950 -0.30300
N 	N 	0.83680 0.83680 0.88060 -0.17700
C 	C 	0.81620 0.31620 0.40650 0.29100
N 	N 	0.77918 0.27918 0.45950 -0.30400
N 	N 	0.83680 0.33680 0.38060 -0.17700
C 	C 	0.31620 0.81620 0.40650 0.29100
N 	N 	0.27918 0.77918 0.45950 -0.30400
N 	N 	0.33680 0.83680 0.38060 -0.17700
C 	C 	0.31620 0.31620 0.90650 0.29000
N 	N 	0.27918 0.27918 0.95950 -0.30300
N 	N 	0.33680 0.33680 0.88060 -0.17700
C 	C 	0.18380 0.81620 0.09350 0.29000
N 	N 	0.22082 0.77918 0.04050 -0.30400
N 	N 	0.16320 0.83680 0.11940 -0.17700
C 	C 	0.18380 0.31620 0.59350 0.29000
N 	N 	0.22082 0.27918 0.54050 -0.30400
N 	N 	0.16320 0.33680 0.61940 -0.17700
C 	C 	0.68380 0.81620 0.59350 0.29100
N 	N 	0.72082 0.77918 0.54050 -0.30400
N 	N 	0.66320 0.83680 0.61940 -0.17700
C 	C 	0.68380 0.31620 0.09350 0.29000
N 	N 	0.72082 0.27918 0.04050 -0.30400
N 	N 	0.66320 0.33680 0.11940 -0.17700
C 	C 	0.18380 0.09350 0.81620 0.29000
N 	N 	0.22082 0.04050 0.77918 -0.30400
N 	N 	0.16320 0.11940 0.83680 -0.17700
C 	C 	0.18380 0.59350 0.31620 0.29000
N 	N 	0.22082 0.54050 0.27918 -0.30400
N 	N 	0.16320 0.61940 0.33680 -0.17700
C 	C 	0.68380 0.09350 0.31620 0.29000
N 	N 	0.72082 0.04050 0.27918 -0.30400
N 	N 	0.66320 0.11940 0.33680 -0.17700
C 	C 	0.68380 0.59350 0.81620 0.29100
N 	N 	0.72082 0.54050 0.77918 -0.30400
N 	N 	0.66320 0.61940 0.83680 -0.17700
C 	C 	0.18380 0.90650 0.18380 0.29000
N 	N 	0.22082 0.95950 0.22082 -0.30300
N 	N 	0.16320 0.88060 0.16320 -0.17700
C 	C 	0.18380 0.40650 0.68380 0.29000
N 	N 	0.22082 0.45950 0.72082 -0.30400
N 	N 	0.16320 0.38060 0.66320 -0.17700
C 	C 	0.68380 0.90650 0.68380 0.29000
N 	N 	0.72082 0.95950 0.72082 -0.30300
N 	N 	0.66320 0.88060 0.66320 -0.17700
C 	C 	0.68380 0.40650 0.18380 0.29000
N 	N 	0.72082 0.45950 0.22082 -0.30400
N 	N 	0.66320 0.38060 0.16320 -0.17700
C 	C 	0.81620 0.09350 0.18380 0.29000
N 	N 	0.77918 0.04050 0.22082 -0.30400
N 	N 	0.83680 0.11940 0.16320 -0.17700
C 	C 	0.81620 0.59350 0.68380 0.29100
N 	N 	0.77918 0.54050 0.72082 -0.30400
N 	N 	0.83680 0.61940 0.66320 -0.17700
C 	C 	0.31620 0.09350 0.68380 0.29000
N 	N 	0.27918 0.04050 0.72082 -0.30400
N 	N 	0.33680 0.11940 0.66320 -0.17700
C 	C 	0.31620 0.59350 0.18380 0.29000
N 	N 	0.27918 0.54050 0.22082 -0.30400
N 	N 	0.33680 0.61940 0.16320 -0.17700
C 	C 	0.81620 0.90650 0.81620 0.29100
N 	N 	0.77918 0.95950 0.77918 -0.30300
N 	N 	0.83680 0.88060 0.83680 -0.17700
C 	C 	0.81620 0.40650 0.31620 0.29100
N 	N 	0.77918 0.45950 0.27918 -0.30400
N 	N 	0.83680 0.38060 0.33680 -0.17700
C 	C 	0.31620 0.90650 0.31620 0.29000
N 	N 	0.27918 0.95950 0.27918 -0.30300
N 	N 	0.33680 0.88060 0.33680 -0.17700
C 	C 	0.31620 0.40650 0.81620 0.29100
N 	N 	0.27918 0.45950 0.77918 -0.30400
N 	N 	0.33680 0.38060 0.83680 -0.17700
C 	C 	0.18540 0.00000 0.31460 0.09900
N 	N 	0.20860 -0.00000 0.29140 -0.24500
S 	S 	0.15796 0.00000 0.34204 -0.06800
C 	C 	0.18540 0.50000 0.81460 0.10000
N 	N 	0.20860 0.50000 0.79140 -0.24400
S 	S 	0.15796 0.50000 0.84204 -0.06400
C 	C 	0.81460 0.00000 0.31460 0.09900
N 	N 	0.79140 -0.00000 0.29140 -0.24500
S 	S 	0.84204 0.00000 0.34204 -0.06600
C 	C 	0.81460 0.50000 0.81460 0.10000
N 	N 	0.79140 0.50000 0.79140 -0.24400
S 	S 	0.84204 0.50000 0.84204 -0.06200
C 	C 	0.31460 0.50000 0.31460 0.10000
N 	N 	0.29140 0.50000 0.29140 -0.24400
S 	S 	0.34204 0.50000 0.34204 -0.06500
C 	C 	0.81460 0.00000 0.68540 0.09900
N 	N 	0.79140 0.00000 0.70860 -0.24500
S 	S 	0.84204 0.00000 0.65796 -0.06600
C 	C 	0.81460 0.50000 0.18540 0.10000
N 	N 	0.79140 0.50000 0.20860 -0.24400
S 	S 	0.84204 0.50000 0.15796 -0.06400
C 	C 	0.31460 0.00000 0.18540 0.09900
N 	N 	0.29140 -0.00000 0.20860 -0.24500
S 	S 	0.34204 -0.00000 0.15796 -0.06800
C 	C 	0.18540 0.00000 0.68540 0.09900
N 	N 	0.20860 0.00000 0.70860 -0.24500
S 	S 	0.15796 0.00000 0.65796 -0.06800
C 	C 	0.18540 0.50000 0.18540 0.10000
N 	N 	0.20860 0.50000 0.20860 -0.24400
S 	S 	0.15796 0.50000 0.15796 -0.06600
C 	C 	0.31460 0.18540 -0.00000 0.09900
N 	N 	0.29140 0.20860 -0.00000 -0.24500
S 	S 	0.34204 0.15796 -0.00000 -0.06800
C 	C 	0.31460 0.68540 0.50000 0.10000
N 	N 	0.29140 0.70860 0.50000 -0.24400
S 	S 	0.34204 0.65796 0.50000 -0.06500
C 	C 	0.31460 0.81460 -0.00000 0.09900
N 	N 	0.29140 0.79140 -0.00000 -0.24500
S 	S 	0.34204 0.84204 -0.00000 -0.06600
C 	C 	0.31460 0.31460 0.50000 0.10000
N 	N 	0.29140 0.29140 0.50000 -0.24400
S 	S 	0.34204 0.34204 0.50000 -0.06500
C 	C 	0.68540 0.81460 -0.00000 0.09900
N 	N 	0.70860 0.79140 -0.00000 -0.24500
S 	S 	0.65796 0.84204 -0.00000 -0.06600
C 	C 	0.68540 0.31460 0.50000 0.10000
N 	N 	0.70860 0.29140 0.50000 -0.24400
S 	S 	0.65796 0.34204 0.50000 -0.06500
C 	C 	0.18540 0.31460 -0.00000 0.09900
N 	N 	0.20860 0.29140 -0.00000 -0.24500
S 	S 	0.15796 0.34204 -0.00000 -0.06800
C 	C 	0.68540 0.18540 -0.00000 0.09900
N 	N 	0.70860 0.20860 -0.00000 -0.24500
S 	S 	0.65796 0.15796 -0.00000 -0.06800
C 	C 	0.68540 0.68540 0.50000 0.10000
N 	N 	0.70860 0.70860 0.50000 -0.24400
S 	S 	0.65796 0.65796 0.50000 -0.06500
C 	C 	0.18540 0.18540 0.50000 0.10000
N 	N 	0.20860 0.20860 0.50000 -0.24400
S 	S 	0.15796 0.15796 0.50000 -0.06600
C 	C 	0.00000 0.31460 0.18540 0.09900
N 	N 	-0.00000 0.29140 0.20860 -0.24500
S 	S 	-0.00000 0.34204 0.15796 -0.06800
C 	C 	0.50000 0.31460 0.68540 0.10000
N 	N 	0.50000 0.29140 0.70860 -0.24400
S 	S 	0.50000 0.34204 0.65796 -0.06500
C 	C 	-0.00000 0.31460 0.81460 0.09900
N 	N 	0.00000 0.29140 0.79140 -0.24500
S 	S 	0.00000 0.34204 0.84204 -0.06600
C 	C 	0.50000 0.31460 0.31460 0.10000
N 	N 	0.50000 0.29140 0.29140 -0.24400
S 	S 	0.50000 0.34204 0.34204 -0.06500
C 	C 	-0.00000 0.68540 0.81460 0.09900
N 	N 	0.00000 0.70860 0.79140 -0.24500
S 	S 	0.00000 0.65796 0.84204 -0.06600
C 	C 	-0.00000 0.18540 0.31460 0.09900
N 	N 	-0.00000 0.20860 0.29140 -0.24500
S 	S 	-0.00000 0.15796 0.34204 -0.06800
C 	C 	0.50000 0.68540 0.31460 0.10000
N 	N 	0.50000 0.70860 0.29140 -0.24400
S 	S 	0.50000 0.65796 0.34204 -0.06500
C 	C 	0.00000 0.68540 0.18540 0.09900
N 	N 	-0.00000 0.70860 0.20860 -0.24500
S 	S 	-0.00000 0.65796 0.15796 -0.06800
C 	C 	0.50000 0.68540 0.68540 0.10000
N 	N 	0.50000 0.70860 0.70860 -0.24400
S 	S 	0.50000 0.65796 0.65796 -0.06500
C 	C 	0.50000 0.18540 0.18540 0.10000
N 	N 	0.50000 0.20860 0.20860 -0.24400
S 	S 	0.50000 0.15796 0.15796 -0.06600
C 	C 	0.00000 0.18540 0.68540 0.09900
N 	N 	-0.00000 0.20860 0.70860 -0.24500
S 	S 	-0.00000 0.15796 0.65796 -0.06800
C 	C 	-0.00000 0.81460 0.68540 0.09900
N 	N 	0.00000 0.79140 0.70860 -0.24500
S 	S 	0.00000 0.84204 0.65796 -0.06600
C 	C 	0.50000 0.81460 0.18540 0.10000
N 	N 	0.50000 0.79140 0.20860 -0.24400
S 	S 	0.50000 0.84204 0.15796 -0.06400
C 	C 	-0.00000 0.81460 0.31460 0.09900
N 	N 	0.00000 0.79140 0.29140 -0.24500
S 	S 	0.00000 0.84204 0.34204 -0.06600
C 	C 	0.50000 0.81460 0.81460 0.10000
N 	N 	0.50000 0.79140 0.79140 -0.24400
S 	S 	0.50000 0.84204 0.84204 -0.06200
C 	C 	0.50000 0.18540 0.81460 0.10000
N 	N 	0.50000 0.20860 0.79140 -0.24400
S 	S 	0.50000 0.15796 0.84204 -0.06400
C 	C 	0.18540 0.81460 0.50000 0.10000
N 	N 	0.20860 0.79140 0.50000 -0.24400
S 	S 	0.15796 0.84204 0.50000 -0.06400
C 	C 	0.81460 0.31460 -0.00000 0.09900
N 	N 	0.79140 0.29140 -0.00000 -0.24500
S 	S 	0.84204 0.34204 -0.00000 -0.06600
C 	C 	0.81460 0.81460 0.50000 0.10000
N 	N 	0.79140 0.79140 0.50000 -0.24400
S 	S 	0.84204 0.84204 0.50000 -0.06200
C 	C 	0.81460 0.68540 -0.00000 0.09900
N 	N 	0.79140 0.70860 -0.00000 -0.24500
S 	S 	0.84204 0.65796 -0.00000 -0.06600
C 	C 	0.81460 0.18540 0.50000 0.10000
N 	N 	0.79140 0.20860 0.50000 -0.24400
S 	S 	0.84204 0.15796 0.50000 -0.06400
C 	C 	0.18540 0.68540 -0.00000 0.09900
N 	N 	0.20860 0.70860 -0.00000 -0.24500
S 	S 	0.15796 0.65796 -0.00000 -0.06800
C 	C 	0.31460 0.00000 0.81460 0.09900
N 	N 	0.29140 0.00000 0.79140 -0.24500
S 	S 	0.34204 0.00000 0.84204 -0.06600
C 	C 	0.31460 0.50000 0.68540 0.10000
N 	N 	0.29140 0.50000 0.70860 -0.24400
S 	S 	0.34204 0.50000 0.65796 -0.06500
C 	C 	0.68540 0.00000 0.18540 0.09900
N 	N 	0.70860 -0.00000 0.20860 -0.24500
S 	S 	0.65796 -0.00000 0.15796 -0.06800
C 	C 	0.68540 0.50000 0.68540 0.10000
N 	N 	0.70860 0.50000 0.70860 -0.24400
S 	S 	0.65796 0.50000 0.65796 -0.06500
C 	C 	0.68540 0.00000 0.81460 0.09900
N 	N 	0.70860 0.00000 0.79140 -0.24500
S 	S 	0.65796 0.00000 0.84204 -0.06600
C 	C 	0.68540 0.50000 0.31460 0.10000
N 	N 	0.70860 0.50000 0.29140 -0.24400
S 	S 	0.65796 0.50000 0.34204 -0.06500
Co	Co	0.25000 -0.00000 0.25000 1.12400
Co	Co	0.25000 0.50000 0.75000 1.12600
Co	Co	0.75000 -0.00000 0.25000 1.12400
Co	Co	0.75000 0.50000 0.75000 1.12600
Co	Co	0.25000 0.50000 0.25000 1.12600
Co	Co	0.75000 0.00000 0.75000 1.12400
Co	Co	0.75000 0.50000 0.25000 1.12600
Co	Co	0.25000 0.00000 0.75000 1.12400
Co	Co	0.25000 0.25000 -0.00000 1.12400
Co	Co	0.25000 0.75000 0.50000 1.12600
Co	Co	0.25000 0.75000 -0.00000 1.12400
Co	Co	0.25000 0.25000 0.50000 1.12600
Co	Co	0.75000 0.75000 -0.00000 1.12400
Co	Co	0.75000 0.25000 0.50000 1.12600
Co	Co	0.75000 0.25000 -0.00000 1.12400
Co	Co	0.75000 0.75000 0.50000 1.12600
Co	Co	-0.00000 0.25000 0.25000 1.12400
Co	Co	0.50000 0.25000 0.75000 1.12600
Co	Co	0.00000 0.25000 0.75000 1.12400
Co	Co	0.50000 0.25000 0.25000 1.12600
Co	Co	0.00000 0.75000 0.75000 1.12400
Co	Co	0.50000 0.75000 0.25000 1.12600
Co	Co	0.00000 0.75000 0.25000 1.12400
Co	Co	0.50000 0.75000 0.75000 1.12600
C 	C 	0.17990 0.13200 0.13200 0.08600
C 	C 	0.17990 0.63200 0.63200 0.08700
C 	C 	0.67990 0.13200 0.63200 0.08700
C 	C 	0.67990 0.63200 0.13200 0.08700
C 	C 	0.82010 0.86800 0.13200 0.08800
C 	C 	0.82010 0.36800 0.63200 0.08700
C 	C 	0.32010 0.86800 0.63200 0.08800
C 	C 	0.32010 0.36800 0.13200 0.08700
C 	C 	0.82010 0.13200 0.86800 0.08800
C 	C 	0.82010 0.63200 0.36800 0.08700
C 	C 	0.32010 0.13200 0.36800 0.08700
C 	C 	0.32010 0.63200 0.86800 0.08800
C 	C 	0.17990 0.86800 0.86800 0.08800
C 	C 	0.17990 0.36800 0.36800 0.08700
C 	C 	0.67990 0.86800 0.36800 0.08800
C 	C 	0.67990 0.36800 0.86800 0.08800
C 	C 	0.13200 0.17990 0.13200 0.08600
C 	C 	0.13200 0.67990 0.63200 0.08700
C 	C 	0.63200 0.17990 0.63200 0.08700
C 	C 	0.63200 0.67990 0.13200 0.08700
C 	C 	0.13200 0.82010 0.86800 0.08800
C 	C 	0.13200 0.32010 0.36800 0.08700
C 	C 	0.63200 0.82010 0.36800 0.08700
C 	C 	0.63200 0.32010 0.86800 0.08800
C 	C 	0.86800 0.82010 0.13200 0.08800
C 	C 	0.86800 0.32010 0.63200 0.08800
C 	C 	0.36800 0.82010 0.63200 0.08700
C 	C 	0.36800 0.32010 0.13200 0.08700
C 	C 	0.86800 0.17990 0.86800 0.08800
C 	C 	0.86800 0.67990 0.36800 0.08800
C 	C 	0.36800 0.17990 0.36800 0.08700
C 	C 	0.36800 0.67990 0.86800 0.08800
C 	C 	0.13200 0.13200 0.17990 0.08600
C 	C 	0.13200 0.63200 0.67990 0.08700
C 	C 	0.63200 0.13200 0.67990 0.08700
C 	C 	0.63200 0.63200 0.17990 0.08700
C 	C 	0.86800 0.13200 0.82010 0.08800
C 	C 	0.86800 0.63200 0.32010 0.08800
C 	C 	0.36800 0.13200 0.32010 0.08700
C 	C 	0.36800 0.63200 0.82010 0.08700
C 	C 	0.13200 0.86800 0.82010 0.08800
C 	C 	0.13200 0.36800 0.32010 0.08700
C 	C 	0.63200 0.86800 0.32010 0.08800
C 	C 	0.63200 0.36800 0.82010 0.08700
C 	C 	0.86800 0.86800 0.17990 0.08800
C 	C 	0.86800 0.36800 0.67990 0.08800
C 	C 	0.36800 0.86800 0.67990 0.08800
C 	C 	0.36800 0.36800 0.17990 0.08700
C 	C 	0.13200 0.17990 0.86800 0.08700
C 	C 	0.13200 0.67990 0.36800 0.08700
C 	C 	0.63200 0.17990 0.36800 0.08700
C 	C 	0.63200 0.67990 0.86800 0.08800
C 	C 	0.86800 0.82010 0.86800 0.08800
C 	C 	0.86800 0.32010 0.36800 0.08800
C 	C 	0.36800 0.82010 0.36800 0.08700
C 	C 	0.36800 0.32010 0.86800 0.08800
C 	C 	0.13200 0.82010 0.13200 0.08700
C 	C 	0.13200 0.32010 0.63200 0.08700
C 	C 	0.63200 0.82010 0.63200 0.08700
C 	C 	0.63200 0.32010 0.13200 0.08700
C 	C 	0.86800 0.17990 0.13200 0.08700
C 	C 	0.86800 0.67990 0.63200 0.08800
C 	C 	0.36800 0.17990 0.63200 0.08700
C 	C 	0.36800 0.67990 0.13200 0.08700
C 	C 	0.17990 0.13200 0.86800 0.08700
C 	C 	0.17990 0.63200 0.36800 0.08700
C 	C 	0.67990 0.13200 0.36800 0.08700
C 	C 	0.67990 0.63200 0.86800 0.08800
C 	C 	0.82010 0.13200 0.13200 0.08700
C 	C 	0.82010 0.63200 0.63200 0.08700
C 	C 	0.32010 0.13200 0.63200 0.08700
C 	C 	0.32010 0.63200 0.13200 0.08700
C 	C 	0.82010 0.86800 0.86800 0.08800
C 	C 	0.82010 0.36800 0.36800 0.08700
C 	C 	0.32010 0.86800 0.36800 0.08800
C 	C 	0.32010 0.36800 0.86800 0.08800
C 	C 	0.17990 0.86800 0.13200 0.08700
C 	C 	0.17990 0.36800 0.63200 0.08700
C 	C 	0.67990 0.86800 0.63200 0.08800
C 	C 	0.67990 0.36800 0.13200 0.08700
C 	C 	0.13200 0.13200 0.82010 0.08700
C 	C 	0.13200 0.63200 0.32010 0.08700
C 	C 	0.63200 0.13200 0.32010 0.08700
C 	C 	0.63200 0.63200 0.82010 0.08700
C 	C 	0.13200 0.86800 0.17990 0.08700
C 	C 	0.13200 0.36800 0.67990 0.08700
C 	C 	0.63200 0.86800 0.67990 0.08800
C 	C 	0.63200 0.36800 0.17990 0.08700
C 	C 	0.86800 0.13200 0.17990 0.08700
C 	C 	0.86800 0.63200 0.67990 0.08800
C 	C 	0.36800 0.13200 0.67990 0.08700
C 	C 	0.36800 0.63200 0.17990 0.08700
C 	C 	0.86800 0.86800 0.82010 0.08800
C 	C 	0.86800 0.36800 0.32010 0.08800
C 	C 	0.36800 0.86800 0.32010 0.08800
C 	C 	0.36800 0.36800 0.82010 0.08700
