data_crystal

_cell_length_a 15.77500
_cell_length_b 16.03500
_cell_length_c 33.84500
_cell_angle_alpha 90.00000
_cell_angle_beta  90.00000
_cell_angle_gamma 90.00000

_symmetry_space_group_name_	'P 1'
_symmetry_space_group_name_H-M	'P 1'

loop_
_symmetry_equiv_pos_as_xyz
  x,y,z

loop_
_atom_site_label
_atom_site_type_symbol
_atom_site_fract_x
_atom_site_fract_y
_atom_site_fract_z
_atom_site_charge
O 	O 	0.15790 0.85820 0.21380 -0.48600
O 	O 	0.13830 0.83540 0.27250 -0.48700
O 	O 	0.32860 0.86270 0.28960 -0.43100
O 	O 	0.35360 0.83400 0.22330 -0.42000
C 	C 	0.12650 0.87500 0.24440 0.53300
C 	C 	0.06760 0.94630 0.24690 -0.16000
C 	C 	0.03410 0.97270 0.21100 0.04100
H 	H 	0.05720 0.95400 0.18740 0.03000
C 	C 	0.03460 0.97290 0.28340 0.04000
H 	H 	0.05760 0.95310 0.30690 0.08000
C 	C 	0.09070 0.99200 0.32050 -0.11900
C 	C 	0.21600 0.98990 0.36050 -0.11100
H 	H 	0.27440 0.98540 0.36150 0.08400
C 	C 	0.17410 0.99240 0.39720 0.07200
H 	H 	0.20190 0.99660 0.42130 0.02900
C 	C 	0.04970 0.99700 0.35760 0.11100
H 	H 	0.99160 0.00740 0.35770 -0.01400
C 	C 	0.36580 0.87230 0.25690 0.37300
C 	C 	0.43450 0.93970 0.25670 -0.21200
C 	C 	0.46800 0.97030 0.29160 0.21800
H 	H 	0.44710 0.95060 0.31550 -0.02000
C 	C 	0.46760 0.97060 0.22150 0.24300
H 	H 	0.44590 0.95160 0.19760 -0.02300
C 	C 	0.41480 0.98330 0.18420 -0.00500
C 	C 	0.32660 0.97920 0.17830 -0.01100
H 	H 	0.29330 0.97720 0.20100 0.04900
C 	C 	0.28350 0.97790 0.14250 -0.08100
H 	H 	0.22470 0.97610 0.14120 0.06600
C 	C 	0.33430 0.97930 0.10840 0.04800
H 	H 	0.30880 0.97740 0.08370 0.02700
C 	C 	0.45610 0.98170 0.14760 -0.01800
H 	H 	0.51500 0.97970 0.14810 0.16400
N 	N 	0.08940 0.98800 0.39330 -0.20400
N 	N 	0.41900 0.98350 0.11110 -0.17200
C 	C 	0.18040 0.99330 0.32260 0.04200
H 	H 	0.21400 0.99610 0.30010 0.03200
O 	O 	0.15790 0.35820 0.71380 -0.47000
O 	O 	0.13830 0.33540 0.77250 -0.47000
O 	O 	0.32860 0.36270 0.78960 -0.41900
O 	O 	0.35360 0.33400 0.72330 -0.40800
C 	C 	0.12650 0.37500 0.74440 0.47300
C 	C 	0.06760 0.44630 0.74690 -0.02400
C 	C 	0.03410 0.47270 0.71100 -0.17500
H 	H 	0.05720 0.45400 0.68740 0.09400
C 	C 	0.03460 0.47290 0.78340 -0.17500
H 	H 	0.05760 0.45310 0.80690 0.14700
C 	C 	0.09070 0.49200 0.82050 -0.10900
C 	C 	0.21600 0.48990 0.86050 -0.10300
H 	H 	0.27440 0.48540 0.86150 0.07200
C 	C 	0.17410 0.49240 0.89720 0.05700
H 	H 	0.20190 0.49660 0.92130 0.01900
C 	C 	0.04970 0.49700 0.85760 0.00500
H 	H 	0.99160 0.50740 0.85770 -0.08400
C 	C 	0.36580 0.37230 0.75690 0.31500
C 	C 	0.43450 0.43970 0.75670 -0.04800
C 	C 	0.46800 0.47030 0.79160 -0.02500
H 	H 	0.44710 0.45060 0.81550 0.05200
C 	C 	0.46760 0.47060 0.72150 -0.03500
H 	H 	0.44590 0.45160 0.69760 0.11100
C 	C 	0.41480 0.48330 0.68420 -0.09000
C 	C 	0.32660 0.47920 0.67830 0.03200
H 	H 	0.29330 0.47720 0.70100 0.02900
C 	C 	0.28350 0.47790 0.64250 -0.11300
H 	H 	0.22470 0.47610 0.64120 0.06800
C 	C 	0.33430 0.47930 0.60840 0.05400
H 	H 	0.30880 0.47740 0.58370 0.01300
C 	C 	0.45610 0.48170 0.64760 -0.07400
H 	H 	0.51500 0.47970 0.64810 0.07900
N 	N 	0.08940 0.48800 0.89330 -0.20000
N 	N 	0.41900 0.48350 0.61110 -0.18300
C 	C 	0.18040 0.49330 0.82260 0.02600
H 	H 	0.21400 0.49610 0.80010 0.03200
O 	O 	0.65790 0.85820 0.71380 -0.49600
O 	O 	0.63830 0.83540 0.77250 -0.49900
O 	O 	0.82860 0.86270 0.78960 -0.43700
O 	O 	0.85360 0.83400 0.72330 -0.42600
C 	C 	0.62650 0.87500 0.74440 0.58200
C 	C 	0.56760 0.94630 0.74690 -0.26800
C 	C 	0.53410 0.97270 0.71100 0.21700
H 	H 	0.55720 0.95400 0.68740 -0.02000
C 	C 	0.53460 0.97290 0.78340 0.21500
H 	H 	0.55760 0.95310 0.80690 0.02700
C 	C 	0.59070 0.99200 0.82050 -0.12800
C 	C 	0.71600 0.98990 0.86050 -0.12100
H 	H 	0.77440 0.98540 0.86150 0.09100
C 	C 	0.67410 0.99240 0.89720 0.07900
H 	H 	0.70190 0.99660 0.92130 0.02700
C 	C 	0.54970 0.99700 0.85760 0.19300
H 	H 	0.49160 0.00740 0.85770 0.04800
C 	C 	0.86580 0.87230 0.75690 0.41500
C 	C 	0.93450 0.93970 0.75670 -0.32800
C 	C 	0.96800 0.97030 0.79160 0.39600
H 	H 	0.94710 0.95060 0.81550 -0.07100
C 	C 	0.96760 0.97060 0.72150 0.43800
H 	H 	0.94590 0.95160 0.69760 -0.09700
C 	C 	0.91480 0.98330 0.68420 0.02000
C 	C 	0.82660 0.97920 0.67830 -0.02200
H 	H 	0.79330 0.97720 0.70100 0.05500
C 	C 	0.78350 0.97790 0.64250 -0.07300
H 	H 	0.72470 0.97610 0.64120 0.07000
C 	C 	0.83430 0.97930 0.60840 0.04900
H 	H 	0.80880 0.97740 0.58370 0.03100
C 	C 	0.95610 0.98170 0.64760 0.03300
H 	H 	0.01500 0.97970 0.64810 0.10500
N 	N 	0.58940 0.98800 0.89330 -0.21300
N 	N 	0.91900 0.98350 0.61110 -0.17100
C 	C 	0.68040 0.99330 0.82260 0.05400
H 	H 	0.71400 0.99610 0.80010 0.03100
O 	O 	0.65790 0.35820 0.21380 -0.48100
O 	O 	0.63830 0.33540 0.27250 -0.48200
O 	O 	0.82860 0.36270 0.28960 -0.42700
O 	O 	0.85360 0.33400 0.22330 -0.41500
C 	C 	0.62650 0.37500 0.24440 0.52100
C 	C 	0.56760 0.44630 0.24690 -0.13200
C 	C 	0.53410 0.47270 0.21100 -0.00100
H 	H 	0.55720 0.45400 0.18740 0.04400
C 	C 	0.53460 0.47290 0.28340 -0.00200
H 	H 	0.55760 0.45310 0.30690 0.09500
C 	C 	0.59070 0.49200 0.32050 -0.12000
C 	C 	0.71600 0.48990 0.36050 -0.11300
H 	H 	0.77440 0.48540 0.36150 0.07900
C 	C 	0.67410 0.49240 0.39720 0.06400
H 	H 	0.70190 0.49660 0.42130 0.01900
C 	C 	0.54970 0.49700 0.35760 0.08800
H 	H 	0.49160 0.50740 0.35770 -0.02300
C 	C 	0.86580 0.37230 0.25690 0.36000
C 	C 	0.93450 0.43970 0.25670 -0.17300
C 	C 	0.96800 0.47030 0.29160 0.16500
H 	H 	0.94710 0.45060 0.31550 -0.00400
C 	C 	0.96760 0.47060 0.22150 0.17500
H 	H 	0.94590 0.45160 0.19760 0.01800
C 	C 	0.91480 0.48330 0.18420 -0.03100
C 	C 	0.82660 0.47920 0.17830 0.00100
H 	H 	0.79330 0.47720 0.20100 0.04200
C 	C 	0.78350 0.47790 0.14250 -0.09100
H 	H 	0.72470 0.47610 0.14120 0.06800
C 	C 	0.83430 0.47930 0.10840 0.04800
H 	H 	0.80880 0.47740 0.08370 0.02000
C 	C 	0.95610 0.48170 0.14760 -0.06200
H 	H 	0.01500 0.47970 0.14810 0.04300
N 	N 	0.58940 0.48800 0.39330 -0.20900
N 	N 	0.91900 0.48350 0.11110 -0.17300
C 	C 	0.68040 0.49330 0.32260 0.03800
H 	H 	0.71400 0.49610 0.30010 0.03000
O 	O 	0.84210 0.14180 0.21380 -0.47700
O 	O 	0.86170 0.16460 0.27250 -0.47700
O 	O 	0.67140 0.13730 0.28960 -0.40700
O 	O 	0.64640 0.16600 0.22330 -0.39500
C 	C 	0.87350 0.12500 0.24440 0.51100
C 	C 	0.93240 0.05370 0.24690 -0.10600
C 	C 	0.96590 0.02730 0.21100 -0.04100
H 	H 	0.94280 0.04600 0.18740 0.05600
C 	C 	0.96540 0.02710 0.28340 -0.04500
H 	H 	0.94240 0.04690 0.30690 0.11500
C 	C 	0.90930 0.00800 0.32050 -0.13000
C 	C 	0.78400 0.01010 0.36050 -0.11800
H 	H 	0.72560 0.01460 0.36150 0.06700
C 	C 	0.82590 0.00760 0.39720 0.05800
H 	H 	0.79810 0.00340 0.42130 0.00700
C 	C 	0.95030 0.00300 0.35760 0.07600
H 	H 	0.00840 0.99260 0.35770 -0.03600
C 	C 	0.63420 0.12770 0.25690 0.25700
C 	C 	0.56550 0.06030 0.25670 0.12000
C 	C 	0.53200 0.02970 0.29160 -0.27000
H 	H 	0.55290 0.04940 0.31550 0.12400
C 	C 	0.53240 0.02940 0.22150 -0.31800
H 	H 	0.55410 0.04840 0.19760 0.25100
C 	C 	0.58520 0.01670 0.18420 -0.18200
C 	C 	0.67340 0.02080 0.17830 0.08200
H 	H 	0.70670 0.02280 0.20100 0.00900
C 	C 	0.71650 0.02210 0.14250 -0.14800
H 	H 	0.77530 0.02390 0.14120 0.08200
C 	C 	0.66570 0.02070 0.10840 0.06600
H 	H 	0.69120 0.02260 0.08370 0.00300
C 	C 	0.54390 0.01830 0.14760 -0.12600
H 	H 	0.48500 0.02030 0.14810 -0.00400
N 	N 	0.91060 0.01200 0.39330 -0.20800
N 	N 	0.58100 0.01650 0.11110 -0.19100
C 	C 	0.81960 0.00670 0.32260 0.03600
H 	H 	0.78600 0.00390 0.30010 0.02300
O 	O 	0.84210 0.64180 0.71380 -0.49200
O 	O 	0.86170 0.66460 0.77250 -0.49400
O 	O 	0.67140 0.63730 0.78960 -0.41800
O 	O 	0.64640 0.66600 0.72330 -0.40600
C 	C 	0.87350 0.62500 0.74440 0.57100
C 	C 	0.93240 0.55370 0.74690 -0.24100
C 	C 	0.96590 0.52730 0.71100 0.17500
H 	H 	0.94280 0.54600 0.68740 -0.00700
C 	C 	0.96540 0.52710 0.78340 0.17000
H 	H 	0.94240 0.54690 0.80690 0.04600
C 	C 	0.90930 0.50800 0.82050 -0.13600
C 	C 	0.78400 0.51010 0.86050 -0.12500
H 	H 	0.72560 0.51460 0.86150 0.07800
C 	C 	0.82590 0.50760 0.89720 0.07200
H 	H 	0.79810 0.50340 0.92130 0.01500
C 	C 	0.95030 0.50300 0.85760 0.17600
H 	H 	0.00840 0.49260 0.85770 0.03700
C 	C 	0.63420 0.62770 0.75690 0.31500
C 	C 	0.56550 0.56030 0.75670 -0.04500
C 	C 	0.53200 0.52970 0.79160 -0.02700
H 	H 	0.55290 0.54940 0.81550 0.05300
C 	C 	0.53240 0.52940 0.72150 -0.04000
H 	H 	0.55410 0.54840 0.69760 0.11700
C 	C 	0.58520 0.51670 0.68420 -0.09900
C 	C 	0.67340 0.52080 0.67830 0.03900
H 	H 	0.70670 0.52280 0.70100 0.02800
C 	C 	0.71650 0.52210 0.64250 -0.11700
H 	H 	0.77530 0.52390 0.64120 0.08000
C 	C 	0.66570 0.52070 0.60840 0.05900
H 	H 	0.69120 0.52260 0.58370 0.01600
C 	C 	0.54390 0.51830 0.64760 -0.06900
H 	H 	0.48500 0.52030 0.64810 0.08100
N 	N 	0.91060 0.51200 0.89330 -0.21500
N 	N 	0.58100 0.51650 0.61110 -0.18400
C 	C 	0.81960 0.50670 0.82260 0.05000
H 	H 	0.78600 0.50390 0.80010 0.02400
O 	O 	0.34210 0.14180 0.71380 -0.46600
O 	O 	0.36170 0.16460 0.77250 -0.46500
O 	O 	0.17140 0.13730 0.78960 -0.39900
O 	O 	0.14640 0.16600 0.72330 -0.38900
C 	C 	0.37350 0.12500 0.74440 0.46200
C 	C 	0.43240 0.05370 0.74690 0.00300
C 	C 	0.46590 0.02730 0.71100 -0.21700
H 	H 	0.44280 0.04600 0.68740 0.10600
C 	C 	0.46540 0.02710 0.78340 -0.21900
H 	H 	0.44240 0.04690 0.80690 0.16600
C 	C 	0.40930 0.00800 0.82050 -0.11700
C 	C 	0.28400 0.01010 0.86050 -0.10700
H 	H 	0.22560 0.01460 0.86150 0.05900
C 	C 	0.32590 0.00760 0.89720 0.05000
H 	H 	0.29810 0.00340 0.92130 0.00700
C 	C 	0.45030 0.00300 0.85760 -0.01300
H 	H 	0.50840 0.99260 0.85770 -0.09500
C 	C 	0.13420 0.12770 0.75690 0.21600
C 	C 	0.06550 0.06030 0.75670 0.23700
C 	C 	0.03200 0.02970 0.79160 -0.44900
H 	H 	0.05290 0.04940 0.81550 0.17500
C 	C 	0.03240 0.02940 0.72150 -0.51600
H 	H 	0.05410 0.04840 0.69760 0.35000
C 	C 	0.08520 0.01670 0.68420 -0.26600
C 	C 	0.17340 0.02080 0.67830 0.12700
H 	H 	0.20670 0.02280 0.70100 -0.00900
C 	C 	0.21650 0.02210 0.64250 -0.18100
H 	H 	0.27530 0.02390 0.64120 0.08600
C 	C 	0.16570 0.02070 0.60840 0.07800
H 	H 	0.19120 0.02260 0.58370 -0.00600
C 	C 	0.04390 0.01830 0.64760 -0.09900
H 	H 	0.98500 0.02030 0.64810 0.01400
N 	N 	0.41060 0.01200 0.89330 -0.20100
N 	N 	0.08100 0.01650 0.61110 -0.20500
C 	C 	0.31960 0.00670 0.82260 0.02100
H 	H 	0.28600 0.00390 0.80010 0.02400
O 	O 	0.34210 0.64180 0.21380 -0.48100
O 	O 	0.36170 0.66460 0.27250 -0.48100
O 	O 	0.17140 0.63730 0.28960 -0.41000
O 	O 	0.14640 0.66600 0.22330 -0.39900
C 	C 	0.37350 0.62500 0.24440 0.52300
C 	C 	0.43240 0.55370 0.24690 -0.13300
C 	C 	0.46590 0.52730 0.21100 0.00100
H 	H 	0.44280 0.54600 0.18740 0.04300
C 	C 	0.46540 0.52710 0.28340 -0.00300
H 	H 	0.44240 0.54690 0.30690 0.09800
C 	C 	0.40930 0.50800 0.32050 -0.12500
C 	C 	0.28400 0.51010 0.36050 -0.11400
H 	H 	0.22560 0.51460 0.36150 0.07000
C 	C 	0.32590 0.50760 0.39720 0.06400
H 	H 	0.29810 0.50340 0.42130 0.01600
C 	C 	0.45030 0.50300 0.35760 0.08900
H 	H 	0.50840 0.49260 0.35770 -0.02300
C 	C 	0.13420 0.62770 0.25690 0.27100
C 	C 	0.06550 0.56030 0.25670 0.08000
C 	C 	0.03200 0.52970 0.29160 -0.21800
H 	H 	0.05290 0.54940 0.31550 0.10800
C 	C 	0.03240 0.52940 0.22150 -0.25000
H 	H 	0.05410 0.54840 0.19760 0.21000
C 	C 	0.08520 0.51670 0.18420 -0.15600
C 	C 	0.17340 0.52080 0.17830 0.06900
H 	H 	0.20670 0.52280 0.20100 0.01500
C 	C 	0.21650 0.52210 0.14250 -0.13800
H 	H 	0.27530 0.52390 0.14120 0.08000
C 	C 	0.16570 0.52070 0.10840 0.06500
H 	H 	0.19120 0.52260 0.08370 0.00900
C 	C 	0.04390 0.51830 0.14760 -0.08400
H 	H 	0.98500 0.52030 0.14810 0.11900
N 	N 	0.41060 0.51200 0.39330 -0.20800
N 	N 	0.08100 0.51650 0.11110 -0.19000
C 	C 	0.31960 0.50670 0.32260 0.03600
H 	H 	0.28600 0.50390 0.30010 0.02500
O 	O 	0.40790 0.39180 0.46380 -0.48200
O 	O 	0.38830 0.41460 0.52250 -0.48300
O 	O 	0.57860 0.38730 0.53960 -0.41800
O 	O 	0.60360 0.41600 0.47330 -0.40600
C 	C 	0.37650 0.37500 0.49440 0.52100
C 	C 	0.31760 0.30370 0.49690 -0.13200
C 	C 	0.28410 0.27730 0.46100 -0.00600
H 	H 	0.30720 0.29600 0.43740 0.04100
C 	C 	0.28460 0.27710 0.53340 -0.00700
H 	H 	0.30760 0.29690 0.55690 0.12700
C 	C 	0.34070 0.25800 0.57050 -0.20900
C 	C 	0.46600 0.26010 0.61050 -0.15500
H 	H 	0.52440 0.26460 0.61150 0.08500
C 	C 	0.42410 0.25760 0.64720 0.08500
H 	H 	0.45190 0.25340 0.67130 0.00600
C 	C 	0.29970 0.25300 0.60760 0.22700
H 	H 	0.24160 0.24260 0.60770 -0.08600
C 	C 	0.61580 0.37770 0.50690 0.31100
C 	C 	0.68450 0.31030 0.50670 -0.03100
C 	C 	0.71800 0.27970 0.54160 -0.04100
H 	H 	0.69710 0.29940 0.56550 0.05600
C 	C 	0.71760 0.27940 0.47150 -0.06800
H 	H 	0.69590 0.29840 0.44760 0.15700
C 	C 	0.66480 0.26670 0.43420 -0.17200
C 	C 	0.57660 0.27080 0.42830 0.07900
H 	H 	0.54330 0.27280 0.45100 0.01200
C 	C 	0.53350 0.27210 0.39250 -0.14900
H 	H 	0.47470 0.27390 0.39120 0.08100
C 	C 	0.58430 0.27070 0.35840 0.07200
H 	H 	0.55880 0.27260 0.33370 0.00600
C 	C 	0.70610 0.26830 0.39760 0.02000
H 	H 	0.76500 0.27030 0.39810 0.04000
N 	N 	0.33940 0.26200 0.64330 -0.23800
N 	N 	0.66900 0.26650 0.36110 -0.20200
C 	C 	0.43040 0.25670 0.57260 0.08700
H 	H 	0.46400 0.25390 0.55010 0.00700
O 	O 	0.40790 0.89180 0.96380 -0.45700
O 	O 	0.38830 0.91460 0.02250 -0.45800
O 	O 	0.57860 0.88730 0.03960 -0.40000
O 	O 	0.60360 0.91600 0.97330 -0.39200
C 	C 	0.37650 0.87500 0.99440 0.50700
C 	C 	0.31760 0.80370 0.99690 -0.12600
C 	C 	0.28410 0.77730 0.96100 -0.00500
H 	H 	0.30720 0.79600 0.93740 0.05100
C 	C 	0.28460 0.77710 0.03340 -0.00400
H 	H 	0.30760 0.79690 0.05690 0.12800
C 	C 	0.34070 0.75800 0.07050 -0.21200
C 	C 	0.46600 0.76010 0.11050 -0.15600
H 	H 	0.52440 0.76460 0.11150 0.09300
C 	C 	0.42410 0.75760 0.14720 0.09000
H 	H 	0.45190 0.75340 0.17130 0.01100
C 	C 	0.29970 0.75300 0.10760 0.23900
H 	H 	0.24160 0.74260 0.10770 -0.09100
C 	C 	0.61580 0.87770 0.00690 0.31600
C 	C 	0.68450 0.81030 0.00670 -0.02200
C 	C 	0.71800 0.77970 0.04160 -0.03800
H 	H 	0.69710 0.79940 0.06550 0.06400
C 	C 	0.71760 0.77940 0.97150 -0.06800
H 	H 	0.69590 0.79840 0.94760 0.15400
C 	C 	0.66480 0.76670 0.93420 -0.16400
C 	C 	0.57660 0.77080 0.92830 0.07900
H 	H 	0.54330 0.77280 0.95100 0.01400
C 	C 	0.53350 0.77210 0.89250 -0.14300
H 	H 	0.47470 0.77390 0.89120 0.08900
C 	C 	0.58430 0.77070 0.85840 0.07400
H 	H 	0.55880 0.77260 0.83370 0.01200
C 	C 	0.70610 0.76830 0.89760 0.01300
H 	H 	0.76500 0.77030 0.89810 0.04500
N 	N 	0.33940 0.76200 0.14330 -0.23900
N 	N 	0.66900 0.76650 0.86110 -0.19900
C 	C 	0.43040 0.75670 0.07260 0.09300
H 	H 	0.46400 0.75390 0.05010 0.00900
O 	O 	0.90790 0.39180 0.96380 -0.46300
O 	O 	0.88830 0.41460 0.02250 -0.46300
O 	O 	0.07860 0.38730 0.03960 -0.43100
O 	O 	0.10360 0.41600 0.97330 -0.41600
C 	C 	0.87650 0.37500 0.99440 0.51100
C 	C 	0.81760 0.30370 0.99690 -0.13100
C 	C 	0.78410 0.27730 0.96100 -0.00600
H 	H 	0.80720 0.29600 0.93740 0.04500
C 	C 	0.78460 0.27710 0.03340 0.00300
H 	H 	0.80760 0.29690 0.05690 0.05000
C 	C 	0.84070 0.25800 0.07050 0.01300
C 	C 	0.96600 0.26010 0.11050 0.07500
H 	H 	0.02440 0.26460 0.11150 -0.02600
C 	C 	0.92410 0.25760 0.14720 -0.02700
H 	H 	0.95190 0.25340 0.17130 0.05800
C 	C 	0.79970 0.25300 0.10760 -0.08600
H 	H 	0.74160 0.24260 0.10770 0.06700
C 	C 	0.11580 0.37770 0.00690 0.31200
C 	C 	0.18450 0.31030 0.00670 -0.03100
C 	C 	0.21800 0.27970 0.04160 -0.04400
H 	H 	0.19710 0.29940 0.06550 0.05400
C 	C 	0.21760 0.27940 0.97150 -0.07400
H 	H 	0.19590 0.29840 0.94760 0.14400
C 	C 	0.16480 0.26670 0.93420 -0.13200
C 	C 	0.07660 0.27080 0.92830 0.11200
H 	H 	0.04330 0.27280 0.95100 -0.01500
C 	C 	0.03350 0.27210 0.89250 -0.26000
H 	H 	0.97470 0.27390 0.89120 0.15200
C 	C 	0.08430 0.27070 0.85840 0.11500
H 	H 	0.05880 0.27260 0.83370 -0.01900
C 	C 	0.20610 0.26830 0.89760 -0.12100
H 	H 	0.26500 0.27030 0.89810 0.12500
N 	N 	0.83940 0.26200 0.14330 -0.16100
N 	N 	0.16900 0.26650 0.86110 -0.18900
C 	C 	0.93040 0.25670 0.07260 -0.10000
H 	H 	0.96400 0.25390 0.05010 0.08900
O 	O 	0.90790 0.89180 0.46380 -0.44100
O 	O 	0.88830 0.91460 0.52250 -0.44800
O 	O 	0.07860 0.88730 0.53960 -0.41100
O 	O 	0.10360 0.91600 0.47330 -0.39400
C 	C 	0.87650 0.87500 0.49440 0.50800
C 	C 	0.81760 0.80370 0.49690 -0.11900
C 	C 	0.78410 0.77730 0.46100 -0.00400
H 	H 	0.80720 0.79600 0.43740 0.05400
C 	C 	0.78460 0.77710 0.53340 -0.00100
H 	H 	0.80760 0.79690 0.55690 0.05900
C 	C 	0.84070 0.75800 0.57050 -0.00800
C 	C 	0.96600 0.76010 0.61050 0.05700
H 	H 	0.02440 0.76460 0.61150 -0.01000
C 	C 	0.92410 0.75760 0.64720 -0.01400
H 	H 	0.95190 0.75340 0.67130 0.05900
C 	C 	0.79970 0.75300 0.60760 -0.05000
H 	H 	0.74160 0.74260 0.60770 0.04900
C 	C 	0.11580 0.87770 0.50690 0.31000
C 	C 	0.18450 0.81030 0.50670 -0.02900
C 	C 	0.21800 0.77970 0.54160 -0.04100
H 	H 	0.19710 0.79940 0.56550 0.06200
C 	C 	0.21760 0.77940 0.47150 -0.06700
H 	H 	0.19590 0.79840 0.44760 0.14100
C 	C 	0.16480 0.76670 0.43420 -0.12900
C 	C 	0.07660 0.77080 0.42830 0.11200
H 	H 	0.04330 0.77280 0.45100 -0.01000
C 	C 	0.03350 0.77210 0.39250 -0.25100
H 	H 	0.97470 0.77390 0.39120 0.15700
C 	C 	0.08430 0.77070 0.35840 0.11600
H 	H 	0.05880 0.77260 0.33370 -0.01200
C 	C 	0.20610 0.76830 0.39760 -0.11400
H 	H 	0.26500 0.77030 0.39810 0.12200
N 	N 	0.83940 0.76200 0.64330 -0.16900
N 	N 	0.16900 0.76650 0.36110 -0.18800
C 	C 	0.93040 0.75670 0.57260 -0.07900
H 	H 	0.96400 0.75390 0.55010 0.08400
O 	O 	0.09210 0.10820 0.46380 -0.51000
O 	O 	0.11170 0.08540 0.52250 -0.50400
O 	O 	0.92140 0.11270 0.53960 -0.41200
O 	O 	0.89640 0.08400 0.47330 -0.40600
C 	C 	0.12350 0.12500 0.49440 0.52800
C 	C 	0.18240 0.19630 0.49690 -0.14300
C 	C 	0.21590 0.22270 0.46100 0.00100
H 	H 	0.19280 0.20400 0.43740 0.03300
C 	C 	0.21540 0.22290 0.53340 -0.00700
H 	H 	0.19240 0.20310 0.55690 0.13800
C 	C 	0.15930 0.24200 0.57050 -0.24500
C 	C 	0.03400 0.23990 0.61050 -0.29500
H 	H 	0.97560 0.23540 0.61150 0.16600
C 	C 	0.07590 0.24240 0.64720 0.14600
H 	H 	0.04810 0.24660 0.67130 -0.02700
C 	C 	0.20030 0.24700 0.60760 0.23600
H 	H 	0.25840 0.25740 0.60770 -0.10000
C 	C 	0.88420 0.12230 0.50690 0.31700
C 	C 	0.81550 0.18970 0.50670 -0.06200
C 	C 	0.78200 0.22030 0.54160 -0.01200
H 	H 	0.80290 0.20060 0.56550 0.04300
C 	C 	0.78240 0.22060 0.47150 -0.00800
H 	H 	0.80410 0.20160 0.44760 0.08700
C 	C 	0.83520 0.23330 0.43420 -0.05900
C 	C 	0.92340 0.22920 0.42830 -0.04500
H 	H 	0.95670 0.22720 0.45100 0.07100
C 	C 	0.96650 0.22790 0.39250 0.03000
H 	H 	0.02530 0.22610 0.39120 -0.01400
C 	C 	0.91570 0.22930 0.35840 -0.00700
H 	H 	0.94120 0.22740 0.33370 0.04200
C 	C 	0.79390 0.23170 0.39760 -0.02600
H 	H 	0.73500 0.22970 0.39810 0.03600
N 	N 	0.16060 0.23800 0.64330 -0.25100
N 	N 	0.83100 0.23350 0.36110 -0.17800
C 	C 	0.06960 0.24330 0.57260 0.16300
H 	H 	0.03600 0.24610 0.55010 -0.03200
O 	O 	0.09210 0.60820 0.96380 -0.49100
O 	O 	0.11170 0.58540 0.02250 -0.48600
O 	O 	0.92140 0.61270 0.03960 -0.40100
O 	O 	0.89640 0.58400 0.97330 -0.39900
C 	C 	0.12350 0.62500 0.99440 0.52000
C 	C 	0.18240 0.69630 0.99690 -0.13900
C 	C 	0.21590 0.72270 0.96100 0.00600
H 	H 	0.19280 0.70400 0.93740 0.04200
C 	C 	0.21540 0.72290 0.03340 -0.00100
H 	H 	0.19240 0.70310 0.05690 0.13700
C 	C 	0.15930 0.74200 0.07050 -0.24500
C 	C 	0.03400 0.73990 0.11050 -0.28900
H 	H 	0.97560 0.73540 0.11150 0.17000
C 	C 	0.07590 0.74240 0.14720 0.14900
H 	H 	0.04810 0.74660 0.17130 -0.02100
C 	C 	0.20030 0.74700 0.10760 0.24800
H 	H 	0.25840 0.75740 0.10770 -0.10500
C 	C 	0.88420 0.62230 0.00690 0.32400
C 	C 	0.81550 0.68970 0.00670 -0.05300
C 	C 	0.78200 0.72030 0.04160 -0.00900
H 	H 	0.80290 0.70060 0.06550 0.05100
C 	C 	0.78240 0.72060 0.97150 -0.01000
H 	H 	0.80410 0.70160 0.94760 0.08700
C 	C 	0.83520 0.73330 0.93420 -0.05700
C 	C 	0.92340 0.72920 0.92830 -0.03800
H 	H 	0.95670 0.72720 0.95100 0.07000
C 	C 	0.96650 0.72790 0.89250 0.02500
H 	H 	0.02530 0.72610 0.89120 -0.00000
C 	C 	0.91570 0.72930 0.85840 0.00100
H 	H 	0.94120 0.72740 0.83370 0.04600
C 	C 	0.79390 0.73170 0.89760 -0.03100
H 	H 	0.73500 0.72970 0.89810 0.04000
N 	N 	0.16060 0.73800 0.14330 -0.25200
N 	N 	0.83100 0.73350 0.86110 -0.17700
C 	C 	0.06960 0.74330 0.07260 0.16500
H 	H 	0.03600 0.74610 0.05010 -0.02700
O 	O 	0.59210 0.10820 0.96380 -0.49700
O 	O 	0.61170 0.08540 0.02250 -0.49000
O 	O 	0.42140 0.11270 0.03960 -0.43200
O 	O 	0.39640 0.08400 0.97330 -0.42200
C 	C 	0.62350 0.12500 0.99440 0.52200
C 	C 	0.68240 0.19630 0.99690 -0.14300
C 	C 	0.71590 0.22270 0.96100 0.00400
H 	H 	0.69280 0.20400 0.93740 0.03600
C 	C 	0.71540 0.22290 0.03340 0.00500
H 	H 	0.69240 0.20310 0.05690 0.06000
C 	C 	0.65930 0.24200 0.07050 -0.02200
C 	C 	0.53400 0.23990 0.11050 -0.06600
H 	H 	0.47560 0.23540 0.11150 0.05500
C 	C 	0.57590 0.24240 0.14720 0.03600
H 	H 	0.54810 0.24660 0.17130 0.02400
C 	C 	0.70030 0.24700 0.10760 -0.07600
H 	H 	0.75840 0.25740 0.10770 0.05200
C 	C 	0.38420 0.12230 0.00690 0.32000
C 	C 	0.31550 0.18970 0.00670 -0.06300
C 	C 	0.28200 0.22030 0.04160 -0.01500
H 	H 	0.30290 0.20060 0.06550 0.04000
C 	C 	0.28240 0.22060 0.97150 -0.01300
H 	H 	0.30410 0.20160 0.94760 0.07400
C 	C 	0.33520 0.23330 0.93420 -0.02000
C 	C 	0.42340 0.22920 0.92830 -0.01000
H 	H 	0.45670 0.22720 0.95100 0.04200
C 	C 	0.46650 0.22790 0.89250 -0.08400
H 	H 	0.52530 0.22610 0.89120 0.05800
C 	C 	0.41570 0.22930 0.85840 0.03800
H 	H 	0.44120 0.22740 0.83370 0.01700
C 	C 	0.29390 0.23170 0.89760 -0.16600
H 	H 	0.23500 0.22970 0.89810 0.12100
N 	N 	0.66060 0.23800 0.14330 -0.17400
N 	N 	0.33100 0.23350 0.86110 -0.16500
C 	C 	0.56960 0.24330 0.07260 -0.02400
H 	H 	0.53600 0.24610 0.05010 0.05000
O 	O 	0.59210 0.60820 0.46380 -0.48100
O 	O 	0.61170 0.58540 0.52250 -0.48100
O 	O 	0.42140 0.61270 0.53960 -0.41900
O 	O 	0.39640 0.58400 0.47330 -0.40800
C 	C 	0.62350 0.62500 0.49440 0.52400
C 	C 	0.68240 0.69630 0.49690 -0.13500
C 	C 	0.71590 0.72270 0.46100 0.00800
H 	H 	0.69280 0.70400 0.43740 0.04500
C 	C 	0.71540 0.72290 0.53340 0.00400
H 	H 	0.69240 0.70310 0.55690 0.06700
C 	C 	0.65930 0.74200 0.57050 -0.04100
C 	C 	0.53400 0.73990 0.61050 -0.07500
H 	H 	0.47560 0.73540 0.61150 0.06600
C 	C 	0.57590 0.74240 0.64720 0.04500
H 	H 	0.54810 0.74660 0.67130 0.02700
C 	C 	0.70030 0.74700 0.60760 -0.04100
H 	H 	0.75840 0.75740 0.60770 0.03600
C 	C 	0.38420 0.62230 0.50690 0.32000
C 	C 	0.31550 0.68970 0.50670 -0.06200
C 	C 	0.28200 0.72030 0.54160 -0.01100
H 	H 	0.30290 0.70060 0.56550 0.04800
C 	C 	0.28240 0.72060 0.47150 -0.00700
H 	H 	0.30410 0.70160 0.44760 0.07300
C 	C 	0.33520 0.73330 0.43420 -0.02000
C 	C 	0.42340 0.72920 0.42830 -0.00600
H 	H 	0.45670 0.72720 0.45100 0.04500
C 	C 	0.46650 0.72790 0.39250 -0.08200
H 	H 	0.52530 0.72610 0.39120 0.06700
C 	C 	0.41570 0.72930 0.35840 0.04200
H 	H 	0.44120 0.72740 0.33370 0.02300
C 	C 	0.29390 0.73170 0.39760 -0.15800
H 	H 	0.23500 0.72970 0.39810 0.11700
N 	N 	0.66060 0.73800 0.64330 -0.18100
N 	N 	0.33100 0.73350 0.36110 -0.16500
C 	C 	0.56960 0.74330 0.57260 -0.00900
H 	H 	0.53600 0.74610 0.55010 0.04700
Cd	Cd	0.25000 0.75000 0.30141 1.21900
Cd	Cd	0.25000 0.75000 0.19969 1.22500
Cd	Cd	0.25000 0.25000 0.80141 1.21800
Cd	Cd	0.25000 0.25000 0.69969 1.22400
Cd	Cd	0.75000 0.25000 0.30141 1.21900
Cd	Cd	0.75000 0.25000 0.19969 1.22600
Cd	Cd	0.75000 0.75000 0.80141 1.22100
Cd	Cd	0.75000 0.75000 0.69969 1.22700
Cd	Cd	0.50000 0.50000 0.55141 1.21900
Cd	Cd	0.50000 0.50000 0.44969 1.22600
Cd	Cd	0.50000 0.00000 0.05141 1.20200
Cd	Cd	0.50000 0.00000 0.94969 1.20800
Cd	Cd	0.00000 0.00000 0.55141 1.18800
Cd	Cd	0.00000 0.00000 0.44969 1.19400
Cd	Cd	0.00000 0.50000 0.05141 1.20500
Cd	Cd	0.00000 0.50000 0.94969 1.21100
