data_crystal

_cell_length_a 16.72570
_cell_length_b 30.66840
_cell_length_c 26.67520
_cell_angle_alpha 90.00000
_cell_angle_beta  90.02500
_cell_angle_gamma 90.00000

_symmetry_space_group_name_	'P 1'
_symmetry_space_group_name_H-M	'P 1'

loop_
_symmetry_equiv_pos_as_xyz
  x,y,z

loop_
_atom_site_label
_atom_site_type_symbol
_atom_site_fract_x
_atom_site_fract_y
_atom_site_fract_z
_atom_site_charge
Zn	Zn	0.24910 0.68718 0.48371 1.18900
Zn	Zn	0.30707 0.80037 0.53267 1.21900
Zn	Zn	0.32102 0.91662 0.48338 1.21600
Zn	Zn	0.27688 0.97151 0.35587 1.21700
Zn	Zn	0.20186 0.93131 0.22763 1.21800
Zn	Zn	0.14433 0.82016 0.17777 1.21800
Zn	Zn	0.13401 0.70443 0.23027 1.22000
Zn	Zn	0.17761 0.64708 0.35548 1.21700
O 	O 	0.34590 0.67371 0.43728 -0.35900
O 	O 	0.31850 0.74184 0.49713 -0.52000
O 	O 	0.41530 0.81175 0.49947 -0.34300
O 	O 	0.42650 0.88514 0.46914 -0.34000
O 	O 	0.34140 0.94114 0.41234 -0.50100
O 	O 	0.37120 0.95205 0.31429 -0.35700
O 	O 	0.32490 0.92679 0.23341 -0.34600
O 	O 	0.21660 0.87155 0.19533 -0.51200
O 	O 	0.25350 0.78938 0.16961 -0.34600
O 	O 	0.24640 0.71630 0.20283 -0.34700
O 	O 	0.19690 0.67307 0.28516 -0.50200
O 	O 	0.29910 0.64770 0.35707 -0.35600
O 	O 	0.15010 0.72042 0.50969 -0.36400
O 	O 	0.17090 0.67306 0.42605 -0.51700
O 	O 	0.06080 0.66986 0.35320 -0.33200
O 	O 	0.03630 0.70703 0.27518 -0.34300
O 	O 	0.10250 0.76743 0.21569 -0.51200
O 	O 	0.04740 0.84926 0.21075 -0.34600
O 	O 	0.08230 0.92084 0.24084 -0.34200
O 	O 	0.19770 0.95451 0.29963 -0.50100
O 	O 	0.17550 0.96744 0.39831 -0.34900
O 	O 	0.20310 0.93352 0.47780 -0.35500
O 	O 	0.27170 0.86226 0.51541 -0.50500
O 	O 	0.18700 0.79101 0.54180 -0.35700
N 	N 	0.33850 0.80307 0.60643 -0.27200
C 	C 	0.29890 0.83308 0.63384 0.06600
H 	H 	0.25930 0.85010 0.61740 -0.01900
C 	C 	0.31200 0.84070 0.68391 -0.14500
H 	H 	0.28290 0.86230 0.70170 0.07400
C 	C 	0.36780 0.81610 0.70640 0.07400
H 	H 	0.37830 0.82060 0.74100 0.01900
C 	C 	0.40980 0.78520 0.68131 -0.15400
H 	H 	0.44830 0.76780 0.69810 0.08100
C 	C 	0.39460 0.77952 0.62936 0.11100
C 	C 	0.43840 0.74797 0.59880 -0.09600
H 	H 	0.42430 0.74620 0.56440 0.03200
C 	C 	0.49590 0.72155 0.61450 -0.09500
H 	H 	0.50750 0.72180 0.64940 0.03600
C 	C 	0.54320 0.69204 0.58330 0.10400
C 	C 	0.52170 0.68170 0.53460 -0.15100
H 	H 	0.47480 0.69390 0.52020 0.07400
C 	C 	0.56850 0.65390 0.50740 0.05700
H 	H 	0.55290 0.64590 0.47440 0.00600
C 	C 	0.63760 0.63740 0.52720 -0.13000
H 	H 	0.67130 0.61890 0.50800 0.06700
C 	C 	0.65710 0.64870 0.57620 0.05400
H 	H 	0.70520 0.63780 0.59040 -0.01600
N 	N 	0.60990 0.67457 0.60411 -0.26700
N 	N 	0.36160 0.95467 0.54380 -0.26700
C 	C 	0.32700 0.94390 0.58800 0.06600
H 	H 	0.28820 0.92130 0.58690 -0.02200
C 	C 	0.34140 0.96190 0.63420 -0.17200
H 	H 	0.31320 0.95330 0.66350 0.08000
C 	C 	0.39830 0.99230 0.63470 0.08300
H 	H 	0.41350 0.00430 0.66610 -0.00400
C 	C 	0.43550 0.00690 0.59300 -0.17000
H 	H 	0.46890 0.03200 0.59370 0.09200
C 	C 	0.42210 0.98270 0.54780 0.12200
N 	N 	0.27680 0.03931 0.35659 -0.26300
C 	C 	0.25090 0.05665 0.40005 0.07800
H 	H 	0.25090 0.03880 0.42910 -0.02400
C 	C 	0.22450 0.09876 0.40434 -0.14200
H 	H 	0.20820 0.11000 0.43590 0.07700
C 	C 	0.22230 0.12423 0.36240 0.06800
H 	H 	0.20290 0.15330 0.36420 0.00400
C 	C 	0.24820 0.10745 0.31771 -0.15300
H 	H 	0.24570 0.12480 0.28820 0.07600
C 	C 	0.27850 0.06484 0.31513 0.11100
C 	C 	0.31370 0.04710 0.26966 -0.10700
H 	H 	0.33540 0.01850 0.27120 0.04600
C 	C 	0.31770 0.06801 0.22604 -0.08700
H 	H 	0.29270 0.09580 0.22480 0.02800
C 	C 	0.35610 0.05324 0.17979 0.10900
C 	C 	0.39190 0.01289 0.17390 -0.15700
H 	H 	0.39300 0.99290 0.20110 0.09300
C 	C 	0.42630 0.00147 0.12860 0.06600
H 	H 	0.45090 0.97380 0.12450 0.00300
C 	C 	0.42430 0.03070 0.08920 -0.14100
H 	H 	0.44670 0.02350 0.05760 0.06400
C 	C 	0.38890 0.07082 0.09730 0.06900
H 	H 	0.38770 0.09110 0.07040 -0.03100
N 	N 	0.35610 0.08242 0.14118 -0.26500
N 	N 	0.18830 0.97946 0.17595 -0.26600
N 	N 	0.09340 0.67005 0.16931 -0.23100
C 	C 	0.11010 0.68679 0.12373 0.04200
H 	H 	0.14210 0.71230 0.12190 -0.01200
C 	C 	0.08320 0.66865 0.07996 -0.07300
H 	H 	0.09500 0.68190 0.04860 0.06000
C 	C 	0.03920 0.63130 0.08200 -0.01800
H 	H 	0.02080 0.61790 0.05200 0.04800
C 	C 	0.02200 0.61333 0.12750 -0.02800
H 	H 	0.99170 0.58720 0.12930 0.03100
C 	C 	0.04880 0.63349 0.17165 -0.05300
C 	C 	0.01670 0.61870 0.21930 0.31700
H 	H 	0.03930 0.62980 0.24950 -0.09800
C 	C 	0.95650 0.59010 0.22230 -0.83800
H 	H 	0.93710 0.57840 0.19170 0.30900
C 	C 	0.91790 0.57540 0.26850 -0.55600
C 	C 	0.94040 0.58920 0.31590 0.19500
H 	H 	0.98390 0.60890 0.31940 -0.03300
C 	C 	0.90050 0.57460 0.35810 -0.17300
H 	H 	0.91200 0.58660 0.39010 0.01900
C 	C 	0.84360 0.54230 0.35290 0.04000
H 	H 	0.81550 0.53110 0.38110 -0.01100
C 	C 	0.82900 0.52680 0.30510 0.00900
H 	H 	0.79370 0.50270 0.30170 -0.00700
N 	N 	0.86130 0.54360 0.26340 -0.04900
C 	C 	0.50550 0.74910 0.39649 -0.06700
H 	H 	0.54680 0.75130 0.37220 0.04700
C 	C 	0.45860 0.71105 0.39761 -0.02500
C 	C 	0.39670 0.70892 0.43291 0.07900
C 	C 	0.38200 0.74367 0.46555 0.02200
C 	C 	0.43210 0.77996 0.46448 0.06800
C 	C 	0.49390 0.78405 0.42978 -0.00500
C 	C 	0.54400 0.82557 0.42796 -0.04900
H 	H 	0.54510 0.83700 0.46310 0.08500
C 	C 	0.51610 0.86587 0.34515 -0.07200
H 	H 	0.55480 0.84780 0.32940 0.05200
C 	C 	0.50240 0.86080 0.39652 0.00900
C 	C 	0.44470 0.88752 0.41876 0.06700
C 	C 	0.40100 0.91785 0.39071 0.01600
C 	C 	0.41710 0.92215 0.33969 0.07900
C 	C 	0.47520 0.89649 0.31599 -0.02400
C 	C 	0.48640 0.90062 0.25945 0.03000
H 	H 	0.46980 0.93100 0.25060 0.04900
C 	C 	0.44500 0.82667 0.22177 -0.04900
H 	H 	0.49700 0.81600 0.22940 0.03800
C 	C 	0.42750 0.87028 0.23273 -0.03000
C 	C 	0.35030 0.88515 0.22235 0.08200
C 	C 	0.29300 0.85744 0.20167 0.01900
C 	C 	0.31340 0.81448 0.19006 0.08200
C 	C 	0.39040 0.79820 0.20038 -0.03100
C 	C 	0.40880 0.74988 0.19148 0.03000
H 	H 	0.37620 0.74050 0.16200 0.04500
C 	C 	0.43310 0.71141 0.27534 -0.04700
H 	H 	0.48630 0.72220 0.27450 0.04100
C 	C 	0.38150 0.72222 0.23643 -0.02900
C 	C 	0.30270 0.70780 0.23935 0.08200
C 	C 	0.27600 0.68367 0.28056 0.00700
C 	C 	0.33010 0.67150 0.31808 0.08900
C 	C 	0.40940 0.68520 0.31584 -0.03000
C 	C 	0.46730 0.67496 0.35848 0.02300
H 	H 	0.44820 0.64740 0.37450 0.04600
C 	C 	0.63120 0.81752 0.41370 -0.02000
H 	H 	0.65210 0.79310 0.43420 0.03800
H 	H 	0.63350 0.80840 0.37810 0.04400
C 	C 	0.68520 0.85710 0.42090 -0.05300
H 	H 	0.67670 0.87720 0.39240 -0.00700
H 	H 	0.66820 0.87250 0.45170 -0.67600
C 	C 	0.76740 0.84840 0.42460 1.85000
H 	H 	0.79660 0.87580 0.42920 -0.50500
H 	H 	0.77730 0.82930 0.45340 -0.53000
H 	H 	0.78580 0.83400 0.39390 -0.29900
C 	C 	0.57240 0.89604 0.24230 -0.25500
H 	H 	0.58790 0.86490 0.24310 0.09600
H 	H 	0.60780 0.91210 0.26560 0.10100
C 	C 	0.58360 0.91390 0.18890 0.18600
H 	H 	0.54840 0.89750 0.16580 -0.03000
H 	H 	0.56650 0.94480 0.18830 -0.02900
C 	C 	0.66710 0.91110 0.17010 -0.54700
H 	H 	0.70290 0.92630 0.19340 0.17800
H 	H 	0.67040 0.92480 0.13700 0.16700
H 	H 	0.68300 0.88050 0.16760 0.16900
C 	C 	0.49630 0.74140 0.17830 -0.24700
H 	H 	0.51070 0.75950 0.14890 0.09700
H 	H 	0.53010 0.75090 0.20670 0.09100
C 	C 	0.51550 0.69396 0.16650 0.17500
H 	H 	0.49430 0.67510 0.19350 -0.02200
H 	H 	0.48880 0.68560 0.13480 -0.02700
C 	C 	0.60470 0.68670 0.16150 -0.54300
H 	H 	0.62430 0.70140 0.13130 0.18900
H 	H 	0.61550 0.65530 0.15900 0.17800
H 	H 	0.63200 0.69850 0.19100 0.17300
C 	C 	0.55290 0.66701 0.34220 -0.22600
H 	H 	0.58610 0.66210 0.37240 0.09100
H 	H 	0.57310 0.69360 0.32540 0.08800
C 	C 	0.56360 0.62830 0.30660 0.13200
H 	H 	0.53050 0.63290 0.27630 -0.01100
H 	H 	0.54470 0.60140 0.32340 -0.01500
C 	C 	0.65100 0.62250 0.29110 -0.48900
H 	H 	0.67040 0.64950 0.27560 0.15800
H 	H 	0.65520 0.59850 0.26700 0.15900
H 	H 	0.68330 0.61580 0.32080 0.16200
C 	C 	0.97210 0.75196 0.43699 -0.06100
H 	H 	0.92830 0.77160 0.43830 0.05200
C 	C 	0.02620 0.75151 0.47690 -0.02700
C 	C 	0.09120 0.72332 0.47368 0.08200
C 	C 	0.10290 0.69699 0.43133 0.02200
C 	C 	0.04580 0.69730 0.39316 0.07100
C 	C 	0.97970 0.72463 0.39514 -0.00700
C 	C 	0.92040 0.72749 0.35154 -0.02800
H 	H 	0.92230 0.69870 0.33400 0.06800
C 	C 	0.92570 0.80492 0.31384 -0.07800
H 	H 	0.88680 0.81400 0.33760 0.06400
C 	C 	0.94950 0.76147 0.31399 -0.00300
C 	C 	0.00830 0.74924 0.27956 0.06600
C 	C 	0.04230 0.77953 0.24698 0.02300
C 	C 	0.01420 0.82218 0.24628 0.07100
C 	C 	0.95610 0.83596 0.28027 -0.01100
C 	C 	0.93380 0.88440 0.28164 -0.00600
H 	H 	0.93970 0.89550 0.24660 0.06000
C 	C 	0.98770 0.91271 0.36484 -0.05800
H 	H 	0.94100 0.90130 0.38030 0.05400
C 	C 	0.99630 0.90821 0.31304 -0.01200
C 	C 	0.06620 0.92441 0.29147 0.07400
C 	C 	0.12690 0.94326 0.32057 0.01900
C 	C 	0.11430 0.94840 0.37229 0.08600
C 	C 	0.04470 0.93329 0.39490 -0.02900
C 	C 	0.03340 0.93766 0.45158 0.04600
H 	H 	0.06300 0.96440 0.46230 0.04100
C 	C 	0.02860 0.86115 0.49060 -0.04700
H 	H 	0.97290 0.86080 0.48370 0.04200
C 	C 	0.07230 0.89892 0.47824 -0.03800
C 	C 	0.15330 0.89878 0.48894 0.08800
C 	C 	0.19080 0.86252 0.50971 0.01200
C 	C 	0.14530 0.82575 0.52190 0.08200
C 	C 	0.06270 0.82433 0.51232 -0.03600
C 	C 	0.01580 0.78249 0.52143 0.04000
H 	H 	0.04020 0.76790 0.55130 0.03700
C 	C 	0.83360 0.73413 0.36840 -0.11400
H 	H 	0.83010 0.76090 0.38890 0.07000
H 	H 	0.79930 0.73820 0.33850 0.06400
C 	C 	0.72740 0.70200 0.42460 0.34000
H 	H 	0.71320 0.67530 0.44280 -0.08000
H 	H 	0.73260 0.72620 0.44830 -0.07400
H 	H 	0.68550 0.70870 0.40010 -0.04800
C 	C 	0.84850 0.89409 0.29710 -0.16100
H 	H 	0.84090 0.88490 0.33240 0.09000
H 	H 	0.81170 0.87670 0.27610 0.07700
C 	C 	0.82670 0.94270 0.29230 0.03800
H 	H 	0.86910 0.95980 0.30910 0.00400
H 	H 	0.82800 0.95040 0.25620 -0.15700
C 	C 	0.75360 0.95600 0.31140 0.24600
H 	H 	0.74710 0.98740 0.30600 -0.05400
H 	H 	0.71050 0.94020 0.29440 -0.02400
H 	H 	0.75170 0.94980 0.34740 -0.04400
C 	C 	0.94500 0.94411 0.46652 -0.29500
H 	H 	0.91470 0.91760 0.45710 0.12600
H 	H 	0.94190 0.94720 0.50340 0.11700
C 	C 	0.90550 0.98324 0.44260 0.24600
H 	H 	0.92780 0.01030 0.45730 -0.04200
H 	H 	0.91720 0.98340 0.40620 -0.04100
C 	C 	0.81600 0.98250 0.45030 -0.62600
H 	H 	0.79340 0.95660 0.43410 0.23400
H 	H 	0.79230 0.00880 0.43560 0.20800
H 	H 	0.80430 0.98160 0.48630 0.21600
C 	C 	0.92760 0.79112 0.53393 -0.27400
H 	H 	0.92500 0.81200 0.56220 0.10800
H 	H 	0.90200 0.80510 0.50460 0.11600
C 	C 	0.87930 0.75045 0.54794 0.21200
H 	H 	0.88410 0.72870 0.52070 -0.03200
H 	H 	0.90220 0.73740 0.57870 -0.03300
C 	C 	0.79140 0.76030 0.55680 -0.59500
H 	H 	0.78620 0.78270 0.58270 0.20800
H 	H 	0.76400 0.73370 0.56770 0.20300
H 	H 	0.76710 0.77070 0.52550 0.21500
C 	C 	0.46350 0.99030 0.50160 -0.09300
H 	H 	0.43840 0.98130 0.47140 0.03800
C 	C 	0.14810 0.01544 0.18880 0.07400
H 	H 	0.12660 0.01740 0.22160 -0.01300
C 	C 	0.13670 0.04976 0.15640 -0.13300
H 	H 	0.10910 0.07520 0.16700 0.08000
C 	C 	0.16600 0.04670 0.10830 0.04600
H 	H 	0.15840 0.06980 0.08500 0.00400
C 	C 	0.20640 0.00950 0.09440 -0.12900
H 	H 	0.22680 0.00650 0.06140 0.06100
C 	C 	0.21690 0.97650 0.12920 0.07300
H 	H 	0.24520 0.95090 0.11960 -0.01500
H 	H 	0.73710 0.85020 0.40490 -0.79100
H 	H 	0.66140 0.88140 0.40160 0.15200
C 	C 	0.70090 0.87210 0.46680 1.41000
H 	H 	0.73630 0.89740 0.46440 -0.37700
H 	H 	0.65080 0.88060 0.48310 -0.15200
H 	H 	0.72710 0.84920 0.48650 -0.39800
C 	C 	0.80230 0.65900 0.38790 0.26300
H 	H 	0.77840 0.64180 0.41500 -0.06600
H 	H 	0.77120 0.65490 0.35710 0.00300
H 	H 	0.85740 0.64920 0.38230 -0.05100
C 	C 	0.83880 0.96510 0.24760 0.27700
H 	H 	0.82140 0.99540 0.25160 -0.06900
H 	H 	0.89570 0.96440 0.23890 -0.05000
H 	H 	0.80770 0.95130 0.22080 -0.03600
C 	C 	0.80240 0.69560 0.39880 -0.03400
H 	H 	0.79640 0.67030 0.37600 -0.14600
H 	H 	0.84340 0.68770 0.42400 0.09200
H 	H 	0.83110 0.69700 0.43120 -0.06800
H 	H 	0.74590 0.70270 0.40640 -0.16300
H 	H 	0.76930 0.94540 0.30070 -0.14600
H 	H 	0.85660 0.95840 0.31870 0.00700
O 	O 	0.94820 0.57670 0.24990 0.70100
C 	C 	0.94380 0.58580 0.29550 0.04700
N 	N 	0.88680 0.56670 0.32360 -0.04300
C 	C 	0.88120 0.57740 0.37630 0.05000
H 	H 	0.83710 0.56100 0.39150 0.00400
H 	H 	0.93140 0.56970 0.39310 0.03500
H 	H 	0.87130 0.60870 0.38020 0.02500
C 	C 	0.82520 0.54100 0.30030 -0.19200
H 	H 	0.78910 0.52970 0.32610 0.06300
H 	H 	0.79500 0.55920 0.27680 0.10800
H 	H 	0.84970 0.51660 0.28220 0.11200
Zn	Zn	0.25090 0.18718 0.01629 1.18800
Zn	Zn	0.19293 0.30037 0.96733 1.21800
Zn	Zn	0.17898 0.41662 0.01662 1.21500
Zn	Zn	0.22312 0.47151 0.14413 1.21600
Zn	Zn	0.29814 0.43131 0.27237 1.21700
Zn	Zn	0.35567 0.32016 0.32223 1.21700
Zn	Zn	0.36599 0.20443 0.26973 1.21900
Zn	Zn	0.32239 0.14708 0.14452 1.21600
O 	O 	0.15410 0.17371 0.06272 -0.35900
O 	O 	0.18150 0.24184 0.00287 -0.52000
O 	O 	0.08470 0.31175 0.00053 -0.34300
O 	O 	0.07350 0.38514 0.03086 -0.34000
O 	O 	0.15860 0.44114 0.08766 -0.50100
O 	O 	0.12880 0.45205 0.18571 -0.35700
O 	O 	0.17510 0.42679 0.26659 -0.34600
O 	O 	0.28340 0.37155 0.30467 -0.51200
O 	O 	0.24650 0.28938 0.33039 -0.34600
O 	O 	0.25360 0.21630 0.29717 -0.34700
O 	O 	0.30310 0.17307 0.21484 -0.50200
O 	O 	0.20090 0.14770 0.14293 -0.35600
O 	O 	0.34990 0.22042 0.99031 -0.36400
O 	O 	0.32910 0.17306 0.07395 -0.51700
O 	O 	0.43920 0.16986 0.14680 -0.33200
O 	O 	0.46370 0.20703 0.22482 -0.34300
O 	O 	0.39750 0.26743 0.28431 -0.51200
O 	O 	0.45260 0.34926 0.28925 -0.34600
O 	O 	0.41770 0.42084 0.25916 -0.34200
O 	O 	0.30230 0.45451 0.20037 -0.50100
O 	O 	0.32450 0.46744 0.10169 -0.34900
O 	O 	0.29690 0.43352 0.02220 -0.35500
O 	O 	0.22830 0.36226 0.98459 -0.50500
O 	O 	0.31300 0.29101 0.95820 -0.35700
N 	N 	0.16150 0.30307 0.89357 -0.27200
C 	C 	0.20110 0.33308 0.86616 0.06600
H 	H 	0.24070 0.35010 0.88260 -0.01900
C 	C 	0.18800 0.34070 0.81609 -0.14500
H 	H 	0.21710 0.36230 0.79830 0.07400
C 	C 	0.13220 0.31610 0.79360 0.07500
H 	H 	0.12170 0.32060 0.75900 0.01900
C 	C 	0.09020 0.28520 0.81869 -0.15500
H 	H 	0.05170 0.26780 0.80190 0.08100
C 	C 	0.10540 0.27952 0.87064 0.11100
C 	C 	0.06160 0.24797 0.90120 -0.09700
H 	H 	0.07570 0.24620 0.93560 0.03200
C 	C 	0.00410 0.22155 0.88550 -0.09300
H 	H 	0.99250 0.22180 0.85060 0.03500
C 	C 	0.95680 0.19204 0.91670 0.10400
C 	C 	0.97830 0.18170 0.96540 -0.15200
H 	H 	0.02520 0.19390 0.97980 0.07400
C 	C 	0.93150 0.15390 0.99260 0.05700
H 	H 	0.94710 0.14590 0.02560 0.00600
C 	C 	0.86240 0.13740 0.97280 -0.13100
H 	H 	0.82870 0.11890 0.99200 0.06700
C 	C 	0.84290 0.14870 0.92380 0.05400
H 	H 	0.79480 0.13780 0.90960 -0.01600
N 	N 	0.89010 0.17457 0.89589 -0.26700
N 	N 	0.13840 0.45467 0.95620 -0.26700
C 	C 	0.17300 0.44390 0.91200 0.06600
H 	H 	0.21180 0.42130 0.91310 -0.02200
C 	C 	0.15860 0.46190 0.86580 -0.17200
H 	H 	0.18680 0.45330 0.83650 0.08000
C 	C 	0.10170 0.49230 0.86530 0.08400
H 	H 	0.08650 0.50430 0.83390 -0.00400
C 	C 	0.06450 0.50690 0.90700 -0.17100
H 	H 	0.03110 0.53200 0.90630 0.09200
C 	C 	0.07790 0.48270 0.95220 0.12200
N 	N 	0.22320 0.53931 0.14341 -0.26300
C 	C 	0.24910 0.55665 0.09995 0.07800
H 	H 	0.24910 0.53880 0.07090 -0.02400
C 	C 	0.27550 0.59876 0.09566 -0.14200
H 	H 	0.29180 0.61000 0.06410 0.07700
C 	C 	0.27770 0.62423 0.13760 0.06800
H 	H 	0.29710 0.65330 0.13580 0.00500
C 	C 	0.25180 0.60745 0.18229 -0.15300
H 	H 	0.25430 0.62480 0.21180 0.07600
C 	C 	0.22150 0.56484 0.18487 0.11100
C 	C 	0.18630 0.54710 0.23034 -0.10700
H 	H 	0.16460 0.51850 0.22880 0.04600
C 	C 	0.18230 0.56801 0.27396 -0.08700
H 	H 	0.20730 0.59580 0.27520 0.02800
C 	C 	0.14390 0.55324 0.32021 0.11000
C 	C 	0.10810 0.51289 0.32610 -0.15800
H 	H 	0.10700 0.49290 0.29890 0.09300
C 	C 	0.07370 0.50147 0.37140 0.06600
H 	H 	0.04910 0.47380 0.37550 0.00300
C 	C 	0.07570 0.53070 0.41080 -0.14100
H 	H 	0.05330 0.52350 0.44240 0.06400
C 	C 	0.11110 0.57082 0.40270 0.06900
H 	H 	0.11230 0.59110 0.42960 -0.03100
N 	N 	0.14390 0.58242 0.35882 -0.26500
N 	N 	0.31170 0.47946 0.32405 -0.26600
N 	N 	0.40660 0.17005 0.33069 -0.23000
C 	C 	0.38990 0.18679 0.37627 0.04200
H 	H 	0.35790 0.21230 0.37810 -0.01200
C 	C 	0.41680 0.16865 0.42004 -0.07300
H 	H 	0.40500 0.18190 0.45140 0.06000
C 	C 	0.46080 0.13130 0.41800 -0.01900
H 	H 	0.47920 0.11790 0.44800 0.04800
C 	C 	0.47800 0.11333 0.37250 -0.02700
H 	H 	0.50830 0.08720 0.37070 0.03100
C 	C 	0.45120 0.13349 0.32835 -0.05300
C 	C 	0.48330 0.11870 0.28070 0.31700
H 	H 	0.46070 0.12980 0.25050 -0.09800
C 	C 	0.54350 0.09010 0.27770 -0.83800
H 	H 	0.56290 0.07840 0.30830 0.30900
C 	C 	0.58210 0.07540 0.23150 -0.55500
C 	C 	0.55960 0.08920 0.18410 0.19400
H 	H 	0.51610 0.10890 0.18060 -0.03300
C 	C 	0.59950 0.07460 0.14190 -0.17300
H 	H 	0.58800 0.08660 0.10990 0.01900
C 	C 	0.65640 0.04230 0.14710 0.03900
H 	H 	0.68450 0.03110 0.11890 -0.01100
C 	C 	0.67100 0.02680 0.19490 0.00900
H 	H 	0.70630 0.00270 0.19830 -0.00700
N 	N 	0.63870 0.04360 0.23660 -0.04900
C 	C 	0.99450 0.24910 0.10351 -0.06700
H 	H 	0.95320 0.25130 0.12780 0.04700
C 	C 	0.04140 0.21105 0.10239 -0.02400
C 	C 	0.10330 0.20892 0.06709 0.07900
C 	C 	0.11800 0.24367 0.03445 0.02200
C 	C 	0.06790 0.27996 0.03552 0.06800
C 	C 	0.00610 0.28405 0.07022 -0.00400
C 	C 	0.95600 0.32557 0.07204 -0.05000
H 	H 	0.95490 0.33700 0.03690 0.08500
C 	C 	0.98390 0.36587 0.15485 -0.07200
H 	H 	0.94520 0.34780 0.17060 0.05200
C 	C 	0.99760 0.36080 0.10348 0.00900
C 	C 	0.05530 0.38752 0.08124 0.06700
C 	C 	0.09900 0.41785 0.10929 0.01600
C 	C 	0.08290 0.42215 0.16031 0.07900
C 	C 	0.02480 0.39649 0.18401 -0.02400
C 	C 	0.01360 0.40062 0.24055 0.03000
H 	H 	0.03020 0.43100 0.24940 0.04800
C 	C 	0.05500 0.32667 0.27823 -0.04900
H 	H 	0.00300 0.31600 0.27060 0.03800
C 	C 	0.07250 0.37028 0.26727 -0.03000
C 	C 	0.14970 0.38515 0.27765 0.08200
C 	C 	0.20700 0.35744 0.29833 0.01900
C 	C 	0.18660 0.31448 0.30994 0.08200
C 	C 	0.10960 0.29820 0.29962 -0.03100
C 	C 	0.09120 0.24988 0.30852 0.02900
H 	H 	0.12380 0.24050 0.33800 0.04500
C 	C 	0.06690 0.21141 0.22466 -0.04700
H 	H 	0.01370 0.22220 0.22550 0.04100
C 	C 	0.11850 0.22222 0.26357 -0.02800
C 	C 	0.19730 0.20780 0.26065 0.08200
C 	C 	0.22400 0.18367 0.21944 0.00700
C 	C 	0.16990 0.17150 0.18192 0.08900
C 	C 	0.09060 0.18520 0.18416 -0.03000
C 	C 	0.03270 0.17496 0.14152 0.02300
H 	H 	0.05180 0.14740 0.12550 0.04600
C 	C 	0.86880 0.31752 0.08630 -0.02000
H 	H 	0.84790 0.29310 0.06580 0.03800
H 	H 	0.86650 0.30840 0.12190 0.04400
C 	C 	0.81480 0.35710 0.07910 -0.05300
H 	H 	0.82330 0.37720 0.10760 -0.00700
H 	H 	0.83180 0.37250 0.04830 -0.67600
C 	C 	0.73260 0.34840 0.07540 1.85000
H 	H 	0.70340 0.37580 0.07080 -0.50500
H 	H 	0.72270 0.32930 0.04660 -0.53000
H 	H 	0.71420 0.33400 0.10610 -0.29900
C 	C 	0.92760 0.39604 0.25770 -0.25500
H 	H 	0.91210 0.36490 0.25690 0.09600
H 	H 	0.89220 0.41210 0.23440 0.10100
C 	C 	0.91640 0.41390 0.31110 0.18600
H 	H 	0.95160 0.39750 0.33420 -0.03100
H 	H 	0.93350 0.44480 0.31170 -0.02900
C 	C 	0.83290 0.41110 0.32990 -0.54700
H 	H 	0.79710 0.42630 0.30660 0.17800
H 	H 	0.82960 0.42480 0.36300 0.16700
H 	H 	0.81700 0.38050 0.33240 0.16900
C 	C 	0.00370 0.24140 0.32170 -0.24500
H 	H 	0.98930 0.25950 0.35110 0.09600
H 	H 	0.96990 0.25090 0.29330 0.09000
C 	C 	0.98450 0.19396 0.33350 0.17200
H 	H 	0.00570 0.17510 0.30650 -0.02100
H 	H 	0.01120 0.18560 0.36520 -0.02600
C 	C 	0.89530 0.18670 0.33850 -0.54000
H 	H 	0.87570 0.20140 0.36870 0.18800
H 	H 	0.88450 0.15530 0.34100 0.17700
H 	H 	0.86800 0.19850 0.30900 0.17200
C 	C 	0.94710 0.16701 0.15780 -0.22700
H 	H 	0.91390 0.16210 0.12760 0.09100
H 	H 	0.92690 0.19360 0.17460 0.08800
C 	C 	0.93640 0.12830 0.19340 0.13200
H 	H 	0.96950 0.13290 0.22370 -0.01200
H 	H 	0.95530 0.10140 0.17660 -0.01500
C 	C 	0.84900 0.12250 0.20890 -0.48900
H 	H 	0.82960 0.14950 0.22440 0.15800
H 	H 	0.84480 0.09850 0.23300 0.15900
H 	H 	0.81670 0.11580 0.17920 0.16200
C 	C 	0.52790 0.25196 0.06301 -0.06100
H 	H 	0.57170 0.27160 0.06170 0.05200
C 	C 	0.47380 0.25151 0.02310 -0.02700
C 	C 	0.40880 0.22332 0.02632 0.08200
C 	C 	0.39710 0.19699 0.06867 0.02200
C 	C 	0.45420 0.19730 0.10684 0.07100
C 	C 	0.52030 0.22463 0.10486 -0.00700
C 	C 	0.57960 0.22749 0.14846 -0.02700
H 	H 	0.57770 0.19870 0.16600 0.06800
C 	C 	0.57430 0.30492 0.18616 -0.07800
H 	H 	0.61320 0.31400 0.16240 0.06300
C 	C 	0.55050 0.26147 0.18601 -0.00400
C 	C 	0.49170 0.24924 0.22044 0.06700
C 	C 	0.45770 0.27953 0.25302 0.02200
C 	C 	0.48580 0.32218 0.25372 0.07200
C 	C 	0.54390 0.33596 0.21973 -0.01200
C 	C 	0.56620 0.38440 0.21836 -0.00600
H 	H 	0.56030 0.39550 0.25340 0.05900
C 	C 	0.51230 0.41271 0.13516 -0.05800
H 	H 	0.55900 0.40130 0.11970 0.05400
C 	C 	0.50370 0.40821 0.18696 -0.01300
C 	C 	0.43380 0.42441 0.20853 0.07500
C 	C 	0.37310 0.44326 0.17943 0.01900
C 	C 	0.38570 0.44840 0.12771 0.08600
C 	C 	0.45530 0.43329 0.10510 -0.02900
C 	C 	0.46660 0.43766 0.04842 0.04700
H 	H 	0.43700 0.46440 0.03770 0.04100
C 	C 	0.47140 0.36115 0.00940 -0.04600
H 	H 	0.52710 0.36080 0.01630 0.04200
C 	C 	0.42770 0.39892 0.02176 -0.03900
C 	C 	0.34670 0.39878 0.01106 0.08900
C 	C 	0.30920 0.36252 0.99029 0.01200
C 	C 	0.35470 0.32575 0.97810 0.08200
C 	C 	0.43730 0.32433 0.98768 -0.03700
C 	C 	0.48420 0.28249 0.97857 0.04100
H 	H 	0.45980 0.26790 0.94870 0.03700
C 	C 	0.66640 0.23413 0.13160 -0.11400
H 	H 	0.66990 0.26090 0.11110 0.07000
H 	H 	0.70070 0.23820 0.16150 0.06400
C 	C 	0.77260 0.20200 0.07540 0.34000
H 	H 	0.78680 0.17530 0.05720 -0.08000
H 	H 	0.76740 0.22620 0.05170 -0.07400
H 	H 	0.81450 0.20870 0.09990 -0.04800
C 	C 	0.65150 0.39409 0.20290 -0.16200
H 	H 	0.65910 0.38490 0.16760 0.09000
H 	H 	0.68830 0.37670 0.22390 0.07700
C 	C 	0.67330 0.44270 0.20770 0.03800
H 	H 	0.63090 0.45980 0.19090 0.00400
H 	H 	0.67200 0.45040 0.24380 -0.15700
C 	C 	0.74640 0.45600 0.18860 0.24600
H 	H 	0.75290 0.48740 0.19400 -0.05400
H 	H 	0.78950 0.44020 0.20560 -0.02400
H 	H 	0.74830 0.44980 0.15260 -0.04400
C 	C 	0.55500 0.44411 0.03348 -0.29600
H 	H 	0.58530 0.41760 0.04290 0.12600
H 	H 	0.55810 0.44720 0.99660 0.11700
C 	C 	0.59450 0.48324 0.05740 0.24500
H 	H 	0.57220 0.51030 0.04270 -0.04100
H 	H 	0.58280 0.48340 0.09380 -0.04100
C 	C 	0.68400 0.48250 0.04970 -0.62700
H 	H 	0.70660 0.45660 0.06590 0.23400
H 	H 	0.70770 0.50880 0.06440 0.20900
H 	H 	0.69570 0.48160 0.01370 0.21600
C 	C 	0.57240 0.29112 0.96607 -0.27500
H 	H 	0.57500 0.31200 0.93780 0.10900
H 	H 	0.59800 0.30510 0.99540 0.11600
C 	C 	0.62070 0.25045 0.95206 0.21200
H 	H 	0.61590 0.22870 0.97930 -0.03200
H 	H 	0.59780 0.23740 0.92130 -0.03300
C 	C 	0.70860 0.26030 0.94320 -0.59600
H 	H 	0.71380 0.28270 0.91730 0.20900
H 	H 	0.73600 0.23370 0.93230 0.20300
H 	H 	0.73290 0.27070 0.97450 0.21500
C 	C 	0.03650 0.49030 0.99840 -0.09300
H 	H 	0.06160 0.48130 0.02860 0.03800
C 	C 	0.35190 0.51544 0.31120 0.07300
H 	H 	0.37340 0.51740 0.27840 -0.01300
C 	C 	0.36330 0.54976 0.34360 -0.13300
H 	H 	0.39090 0.57520 0.33300 0.08000
C 	C 	0.33400 0.54670 0.39170 0.04600
H 	H 	0.34160 0.56980 0.41500 0.00400
C 	C 	0.29360 0.50950 0.40560 -0.12900
H 	H 	0.27320 0.50650 0.43860 0.06200
C 	C 	0.28310 0.47650 0.37080 0.07300
H 	H 	0.25480 0.45090 0.38040 -0.01500
H 	H 	0.76290 0.35020 0.09510 -0.79100
H 	H 	0.83860 0.38140 0.09840 0.15200
C 	C 	0.79910 0.37210 0.03320 1.41100
H 	H 	0.76370 0.39740 0.03560 -0.37700
H 	H 	0.84920 0.38060 0.01690 -0.15200
H 	H 	0.77290 0.34920 0.01350 -0.39800
C 	C 	0.69770 0.15900 0.11210 0.26300
H 	H 	0.72160 0.14180 0.08500 -0.06600
H 	H 	0.72880 0.15490 0.14290 0.00300
H 	H 	0.64260 0.14920 0.11770 -0.05100
C 	C 	0.66120 0.46510 0.25240 0.27700
H 	H 	0.67860 0.49540 0.24840 -0.06900
H 	H 	0.60430 0.46440 0.26110 -0.05000
H 	H 	0.69230 0.45130 0.27920 -0.03600
C 	C 	0.69760 0.19560 0.10120 -0.03300
H 	H 	0.70360 0.17030 0.12400 -0.14600
H 	H 	0.65660 0.18770 0.07600 0.09200
H 	H 	0.66890 0.19700 0.06880 -0.06800
H 	H 	0.75410 0.20270 0.09360 -0.16300
H 	H 	0.73070 0.44540 0.19930 -0.14600
H 	H 	0.64340 0.45840 0.18130 0.00700
O 	O 	0.55180 0.07670 0.25010 0.70000
C 	C 	0.55620 0.08580 0.20450 0.04700
N 	N 	0.61320 0.06670 0.17640 -0.04300
C 	C 	0.61880 0.07740 0.12370 0.05000
H 	H 	0.66290 0.06100 0.10850 0.00400
H 	H 	0.56860 0.06970 0.10690 0.03500
H 	H 	0.62870 0.10870 0.11980 0.02500
C 	C 	0.67480 0.04100 0.19970 -0.19200
H 	H 	0.71090 0.02970 0.17390 0.06300
H 	H 	0.70500 0.05920 0.22320 0.10800
H 	H 	0.65030 0.01660 0.21780 0.11200
Zn	Zn	0.75090 0.31282 0.51629 1.18800
Zn	Zn	0.69293 0.19963 0.46733 1.21800
Zn	Zn	0.67898 0.08338 0.51662 1.21500
Zn	Zn	0.72312 0.02849 0.64413 1.21600
Zn	Zn	0.79814 0.06869 0.77237 1.21700
Zn	Zn	0.85567 0.17984 0.82223 1.21700
Zn	Zn	0.86599 0.29557 0.76973 1.21900
Zn	Zn	0.82239 0.35292 0.64452 1.21600
O 	O 	0.65410 0.32629 0.56272 -0.35900
O 	O 	0.68150 0.25816 0.50287 -0.52000
O 	O 	0.58470 0.18825 0.50053 -0.34300
O 	O 	0.57350 0.11486 0.53086 -0.34000
O 	O 	0.65860 0.05886 0.58766 -0.50100
O 	O 	0.62880 0.04795 0.68571 -0.35700
O 	O 	0.67510 0.07321 0.76659 -0.34600
O 	O 	0.78340 0.12845 0.80467 -0.51200
O 	O 	0.74650 0.21062 0.83039 -0.34600
O 	O 	0.75360 0.28370 0.79717 -0.34700
O 	O 	0.80310 0.32693 0.71484 -0.50200
O 	O 	0.70090 0.35230 0.64293 -0.35600
O 	O 	0.84990 0.27958 0.49031 -0.36400
O 	O 	0.82910 0.32694 0.57395 -0.51700
O 	O 	0.93920 0.33014 0.64680 -0.33200
O 	O 	0.96370 0.29297 0.72482 -0.34300
O 	O 	0.89750 0.23257 0.78431 -0.51200
O 	O 	0.95260 0.15074 0.78925 -0.34600
O 	O 	0.91770 0.07916 0.75916 -0.34200
O 	O 	0.80230 0.04549 0.70037 -0.50100
O 	O 	0.82450 0.03256 0.60169 -0.34900
O 	O 	0.79690 0.06648 0.52220 -0.35500
O 	O 	0.72830 0.13774 0.48459 -0.50500
O 	O 	0.81300 0.20899 0.45820 -0.35700
N 	N 	0.66150 0.19693 0.39357 -0.27200
C 	C 	0.70110 0.16692 0.36616 0.06600
H 	H 	0.74070 0.14990 0.38260 -0.01900
C 	C 	0.68800 0.15930 0.31609 -0.14500
H 	H 	0.71710 0.13770 0.29830 0.07400
C 	C 	0.63220 0.18390 0.29360 0.07400
H 	H 	0.62170 0.17940 0.25900 0.01900
C 	C 	0.59020 0.21480 0.31869 -0.15400
H 	H 	0.55170 0.23220 0.30190 0.08100
C 	C 	0.60540 0.22048 0.37064 0.11100
C 	C 	0.56160 0.25203 0.40120 -0.09600
H 	H 	0.57570 0.25380 0.43560 0.03200
C 	C 	0.50410 0.27845 0.38550 -0.09500
H 	H 	0.49250 0.27820 0.35060 0.03600
C 	C 	0.45680 0.30796 0.41670 0.10400
C 	C 	0.47830 0.31830 0.46540 -0.15100
H 	H 	0.52520 0.30610 0.47980 0.07400
C 	C 	0.43150 0.34610 0.49260 0.05700
H 	H 	0.44710 0.35410 0.52560 0.00600
C 	C 	0.36240 0.36260 0.47280 -0.13000
H 	H 	0.32870 0.38110 0.49200 0.06700
C 	C 	0.34290 0.35130 0.42380 0.05400
H 	H 	0.29480 0.36220 0.40960 -0.01600
N 	N 	0.39010 0.32543 0.39589 -0.26700
N 	N 	0.63840 0.04533 0.45620 -0.26700
C 	C 	0.67300 0.05610 0.41200 0.06600
H 	H 	0.71180 0.07870 0.41310 -0.02200
C 	C 	0.65860 0.03810 0.36580 -0.17200
H 	H 	0.68680 0.04670 0.33650 0.08000
C 	C 	0.60170 0.00770 0.36530 0.08300
H 	H 	0.58650 0.99570 0.33390 -0.00400
C 	C 	0.56450 0.99310 0.40700 -0.17000
H 	H 	0.53110 0.96800 0.40630 0.09200
C 	C 	0.57790 0.01730 0.45220 0.12200
N 	N 	0.72320 0.96069 0.64341 -0.26300
C 	C 	0.74910 0.94335 0.59995 0.07800
H 	H 	0.74910 0.96120 0.57090 -0.02400
C 	C 	0.77550 0.90124 0.59566 -0.14200
H 	H 	0.79180 0.89000 0.56410 0.07700
C 	C 	0.77770 0.87577 0.63760 0.06800
H 	H 	0.79710 0.84670 0.63580 0.00400
C 	C 	0.75180 0.89255 0.68229 -0.15300
H 	H 	0.75430 0.87520 0.71180 0.07600
C 	C 	0.72150 0.93516 0.68487 0.11100
C 	C 	0.68630 0.95290 0.73034 -0.10700
H 	H 	0.66460 0.98150 0.72880 0.04600
C 	C 	0.68230 0.93199 0.77396 -0.08700
H 	H 	0.70730 0.90420 0.77520 0.02800
C 	C 	0.64390 0.94676 0.82021 0.10900
C 	C 	0.60810 0.98711 0.82610 -0.15700
H 	H 	0.60700 0.00710 0.79890 0.09300
C 	C 	0.57370 0.99853 0.87140 0.06600
H 	H 	0.54910 0.02620 0.87550 0.00300
C 	C 	0.57570 0.96930 0.91080 -0.14100
H 	H 	0.55330 0.97650 0.94240 0.06400
C 	C 	0.61110 0.92918 0.90270 0.06900
H 	H 	0.61230 0.90890 0.92960 -0.03100
N 	N 	0.64390 0.91758 0.85882 -0.26500
N 	N 	0.81170 0.02054 0.82405 -0.26600
N 	N 	0.90660 0.32995 0.83069 -0.23100
C 	C 	0.88990 0.31321 0.87627 0.04200
H 	H 	0.85790 0.28770 0.87810 -0.01200
C 	C 	0.91680 0.33135 0.92004 -0.07300
H 	H 	0.90500 0.31810 0.95140 0.06000
C 	C 	0.96080 0.36870 0.91800 -0.01800
H 	H 	0.97920 0.38210 0.94800 0.04800
C 	C 	0.97800 0.38667 0.87250 -0.02800
H 	H 	0.00830 0.41280 0.87070 0.03100
C 	C 	0.95120 0.36651 0.82835 -0.05300
C 	C 	0.98330 0.38130 0.78070 0.31700
H 	H 	0.96070 0.37020 0.75050 -0.09800
C 	C 	0.04350 0.40990 0.77770 -0.83800
H 	H 	0.06290 0.42160 0.80830 0.30900
C 	C 	0.08210 0.42460 0.73150 -0.55600
C 	C 	0.05960 0.41080 0.68410 0.19500
H 	H 	0.01610 0.39110 0.68060 -0.03300
C 	C 	0.09950 0.42540 0.64190 -0.17300
H 	H 	0.08800 0.41340 0.60990 0.01900
C 	C 	0.15640 0.45770 0.64710 0.04000
H 	H 	0.18450 0.46890 0.61890 -0.01100
C 	C 	0.17100 0.47320 0.69490 0.00900
H 	H 	0.20630 0.49730 0.69830 -0.00700
N 	N 	0.13870 0.45640 0.73660 -0.04900
C 	C 	0.49450 0.25090 0.60351 -0.06700
H 	H 	0.45320 0.24870 0.62780 0.04700
C 	C 	0.54140 0.28895 0.60239 -0.02500
C 	C 	0.60330 0.29108 0.56709 0.07900
C 	C 	0.61800 0.25633 0.53445 0.02200
C 	C 	0.56790 0.22004 0.53552 0.06800
C 	C 	0.50610 0.21595 0.57022 -0.00500
C 	C 	0.45600 0.17443 0.57204 -0.04900
H 	H 	0.45490 0.16300 0.53690 0.08500
C 	C 	0.48390 0.13413 0.65485 -0.07200
H 	H 	0.44520 0.15220 0.67060 0.05200
C 	C 	0.49760 0.13920 0.60348 0.00900
C 	C 	0.55530 0.11248 0.58124 0.06700
C 	C 	0.59900 0.08215 0.60929 0.01600
C 	C 	0.58290 0.07785 0.66031 0.07900
C 	C 	0.52480 0.10351 0.68401 -0.02400
C 	C 	0.51360 0.09938 0.74055 0.03000
H 	H 	0.53020 0.06900 0.74940 0.04900
C 	C 	0.55500 0.17333 0.77823 -0.04900
H 	H 	0.50300 0.18400 0.77060 0.03800
C 	C 	0.57250 0.12972 0.76727 -0.03000
C 	C 	0.64970 0.11485 0.77765 0.08200
C 	C 	0.70700 0.14256 0.79833 0.01900
C 	C 	0.68660 0.18552 0.80994 0.08200
C 	C 	0.60960 0.20180 0.79962 -0.03100
C 	C 	0.59120 0.25012 0.80852 0.03000
H 	H 	0.62380 0.25950 0.83800 0.04500
C 	C 	0.56690 0.28859 0.72466 -0.04700
H 	H 	0.51370 0.27780 0.72550 0.04100
C 	C 	0.61850 0.27778 0.76357 -0.02900
C 	C 	0.69730 0.29220 0.76065 0.08200
C 	C 	0.72400 0.31633 0.71944 0.00700
C 	C 	0.66990 0.32850 0.68192 0.08900
C 	C 	0.59060 0.31480 0.68416 -0.03000
C 	C 	0.53270 0.32504 0.64152 0.02300
H 	H 	0.55180 0.35260 0.62550 0.04600
C 	C 	0.36880 0.18248 0.58630 -0.02000
H 	H 	0.34790 0.20690 0.56580 0.03800
H 	H 	0.36650 0.19160 0.62190 0.04400
C 	C 	0.31480 0.14290 0.57910 -0.05300
H 	H 	0.32330 0.12280 0.60760 -0.00700
H 	H 	0.33180 0.12750 0.54830 -0.67600
C 	C 	0.23260 0.15160 0.57540 1.85000
H 	H 	0.20340 0.12420 0.57080 -0.50500
H 	H 	0.22270 0.17070 0.54660 -0.53000
H 	H 	0.21420 0.16600 0.60610 -0.29900
C 	C 	0.42760 0.10396 0.75770 -0.25500
H 	H 	0.41210 0.13510 0.75690 0.09600
H 	H 	0.39220 0.08790 0.73440 0.10100
C 	C 	0.41640 0.08610 0.81110 0.18600
H 	H 	0.45160 0.10250 0.83420 -0.03000
H 	H 	0.43350 0.05520 0.81170 -0.02900
C 	C 	0.33290 0.08890 0.82990 -0.54700
H 	H 	0.29710 0.07370 0.80660 0.17800
H 	H 	0.32960 0.07520 0.86300 0.16700
H 	H 	0.31700 0.11950 0.83240 0.16900
C 	C 	0.50370 0.25860 0.82170 -0.24700
H 	H 	0.48930 0.24050 0.85110 0.09700
H 	H 	0.46990 0.24910 0.79330 0.09100
C 	C 	0.48450 0.30604 0.83350 0.17500
H 	H 	0.50570 0.32490 0.80650 -0.02200
H 	H 	0.51120 0.31440 0.86520 -0.02700
C 	C 	0.39530 0.31330 0.83850 -0.54300
H 	H 	0.37570 0.29860 0.86870 0.18900
H 	H 	0.38450 0.34470 0.84100 0.17800
H 	H 	0.36800 0.30150 0.80900 0.17300
C 	C 	0.44710 0.33299 0.65780 -0.22600
H 	H 	0.41390 0.33790 0.62760 0.09100
H 	H 	0.42690 0.30640 0.67460 0.08800
C 	C 	0.43640 0.37170 0.69340 0.13200
H 	H 	0.46950 0.36710 0.72370 -0.01100
H 	H 	0.45530 0.39860 0.67660 -0.01500
C 	C 	0.34900 0.37750 0.70890 -0.48900
H 	H 	0.32960 0.35050 0.72440 0.15800
H 	H 	0.34480 0.40150 0.73300 0.15900
H 	H 	0.31670 0.38420 0.67920 0.16200
C 	C 	0.02790 0.24804 0.56301 -0.06100
H 	H 	0.07170 0.22840 0.56170 0.05200
C 	C 	0.97380 0.24849 0.52310 -0.02700
C 	C 	0.90880 0.27668 0.52632 0.08200
C 	C 	0.89710 0.30301 0.56867 0.02200
C 	C 	0.95420 0.30270 0.60684 0.07100
C 	C 	0.02030 0.27537 0.60486 -0.00700
C 	C 	0.07960 0.27251 0.64846 -0.02800
H 	H 	0.07770 0.30130 0.66600 0.06800
C 	C 	0.07430 0.19508 0.68616 -0.07800
H 	H 	0.11320 0.18600 0.66240 0.06400
C 	C 	0.05050 0.23853 0.68601 -0.00300
C 	C 	0.99170 0.25076 0.72044 0.06600
C 	C 	0.95770 0.22047 0.75302 0.02300
C 	C 	0.98580 0.17782 0.75372 0.07100
C 	C 	0.04390 0.16404 0.71973 -0.01100
C 	C 	0.06620 0.11560 0.71836 -0.00600
H 	H 	0.06030 0.10450 0.75340 0.06000
C 	C 	0.01230 0.08729 0.63516 -0.05800
H 	H 	0.05900 0.09870 0.61970 0.05400
C 	C 	0.00370 0.09179 0.68696 -0.01200
C 	C 	0.93380 0.07559 0.70853 0.07400
C 	C 	0.87310 0.05674 0.67943 0.01900
C 	C 	0.88570 0.05160 0.62771 0.08600
C 	C 	0.95530 0.06671 0.60510 -0.02900
C 	C 	0.96660 0.06234 0.54842 0.04600
H 	H 	0.93700 0.03560 0.53770 0.04100
C 	C 	0.97140 0.13885 0.50940 -0.04700
H 	H 	0.02710 0.13920 0.51630 0.04200
C 	C 	0.92770 0.10108 0.52176 -0.03800
C 	C 	0.84670 0.10122 0.51106 0.08800
C 	C 	0.80920 0.13748 0.49029 0.01200
C 	C 	0.85470 0.17425 0.47810 0.08200
C 	C 	0.93730 0.17567 0.48768 -0.03600
C 	C 	0.98420 0.21751 0.47857 0.04000
H 	H 	0.95980 0.23210 0.44870 0.03700
C 	C 	0.16640 0.26587 0.63160 -0.11400
H 	H 	0.16990 0.23910 0.61110 0.07000
H 	H 	0.20070 0.26180 0.66150 0.06400
C 	C 	0.27260 0.29800 0.57540 0.34000
H 	H 	0.28680 0.32470 0.55720 -0.08000
H 	H 	0.26740 0.27380 0.55170 -0.07400
H 	H 	0.31450 0.29130 0.59990 -0.04800
C 	C 	0.15150 0.10591 0.70290 -0.16100
H 	H 	0.15910 0.11510 0.66760 0.09000
H 	H 	0.18830 0.12330 0.72390 0.07700
C 	C 	0.17330 0.05730 0.70770 0.03800
H 	H 	0.13090 0.04020 0.69090 0.00400
H 	H 	0.17200 0.04960 0.74380 -0.15700
C 	C 	0.24640 0.04400 0.68860 0.24600
H 	H 	0.25290 0.01260 0.69400 -0.05400
H 	H 	0.28950 0.05980 0.70560 -0.02400
H 	H 	0.24830 0.05020 0.65260 -0.04400
C 	C 	0.05500 0.05589 0.53348 -0.29500
H 	H 	0.08530 0.08240 0.54290 0.12600
H 	H 	0.05810 0.05280 0.49660 0.11700
C 	C 	0.09450 0.01676 0.55740 0.24600
H 	H 	0.07220 0.98970 0.54270 -0.04200
H 	H 	0.08280 0.01660 0.59380 -0.04100
C 	C 	0.18400 0.01750 0.54970 -0.62600
H 	H 	0.20660 0.04340 0.56590 0.23400
H 	H 	0.20770 0.99120 0.56440 0.20800
H 	H 	0.19570 0.01840 0.51370 0.21600
C 	C 	0.07240 0.20888 0.46607 -0.27400
H 	H 	0.07500 0.18800 0.43780 0.10800
H 	H 	0.09800 0.19490 0.49540 0.11600
C 	C 	0.12070 0.24955 0.45206 0.21200
H 	H 	0.11590 0.27130 0.47930 -0.03200
H 	H 	0.09780 0.26260 0.42130 -0.03300
C 	C 	0.20860 0.23970 0.44320 -0.59500
H 	H 	0.21380 0.21730 0.41730 0.20800
H 	H 	0.23600 0.26630 0.43230 0.20300
H 	H 	0.23290 0.22930 0.47450 0.21500
C 	C 	0.53650 0.00970 0.49840 -0.09300
H 	H 	0.56160 0.01870 0.52860 0.03800
C 	C 	0.85190 0.98456 0.81120 0.07400
H 	H 	0.87340 0.98260 0.77840 -0.01300
C 	C 	0.86330 0.95024 0.84360 -0.13300
H 	H 	0.89090 0.92480 0.83300 0.08000
C 	C 	0.83400 0.95330 0.89170 0.04600
H 	H 	0.84160 0.93020 0.91500 0.00400
C 	C 	0.79360 0.99050 0.90560 -0.12900
H 	H 	0.77320 0.99350 0.93860 0.06100
C 	C 	0.78310 0.02350 0.87080 0.07300
H 	H 	0.75480 0.04910 0.88040 -0.01500
H 	H 	0.26290 0.14980 0.59510 -0.79100
H 	H 	0.33860 0.11860 0.59840 0.15200
C 	C 	0.29910 0.12790 0.53320 1.41000
H 	H 	0.26370 0.10260 0.53560 -0.37700
H 	H 	0.34920 0.11940 0.51690 -0.15200
H 	H 	0.27290 0.15080 0.51350 -0.39800
C 	C 	0.19770 0.34100 0.61210 0.26300
H 	H 	0.22160 0.35820 0.58500 -0.06600
H 	H 	0.22880 0.34510 0.64290 0.00300
H 	H 	0.14260 0.35080 0.61770 -0.05100
C 	C 	0.16120 0.03490 0.75240 0.27700
H 	H 	0.17860 0.00460 0.74840 -0.06900
H 	H 	0.10430 0.03560 0.76110 -0.05000
H 	H 	0.19230 0.04870 0.77920 -0.03600
C 	C 	0.19760 0.30440 0.60120 -0.03400
H 	H 	0.20360 0.32970 0.62400 -0.14600
H 	H 	0.15660 0.31230 0.57600 0.09200
H 	H 	0.16890 0.30300 0.56880 -0.06800
H 	H 	0.25410 0.29730 0.59360 -0.16300
H 	H 	0.23070 0.05460 0.69930 -0.14600
H 	H 	0.14340 0.04160 0.68130 0.00700
O 	O 	0.05180 0.42330 0.75010 0.70100
C 	C 	0.05620 0.41420 0.70450 0.04700
N 	N 	0.11320 0.43330 0.67640 -0.04300
C 	C 	0.11880 0.42260 0.62370 0.05000
H 	H 	0.16290 0.43900 0.60850 0.00400
H 	H 	0.06860 0.43030 0.60690 0.03500
H 	H 	0.12870 0.39130 0.61980 0.02500
C 	C 	0.17480 0.45900 0.69970 -0.19200
H 	H 	0.21090 0.47030 0.67390 0.06300
H 	H 	0.20500 0.44080 0.72320 0.10800
H 	H 	0.15030 0.48340 0.71780 0.11200
Zn	Zn	0.74910 0.81282 0.98371 1.18800
Zn	Zn	0.80707 0.69963 0.03267 1.21800
Zn	Zn	0.82102 0.58338 0.98338 1.21500
Zn	Zn	0.77688 0.52849 0.85587 1.21600
Zn	Zn	0.70186 0.56869 0.72763 1.21700
Zn	Zn	0.64433 0.67984 0.67777 1.21700
Zn	Zn	0.63401 0.79557 0.73027 1.21900
Zn	Zn	0.67761 0.85292 0.85548 1.21600
O 	O 	0.84590 0.82629 0.93728 -0.35900
O 	O 	0.81850 0.75816 0.99713 -0.52000
O 	O 	0.91530 0.68825 0.99947 -0.34300
O 	O 	0.92650 0.61486 0.96914 -0.34000
O 	O 	0.84140 0.55886 0.91234 -0.50100
O 	O 	0.87120 0.54795 0.81429 -0.35700
O 	O 	0.82490 0.57321 0.73341 -0.34600
O 	O 	0.71660 0.62845 0.69533 -0.51200
O 	O 	0.75350 0.71062 0.66961 -0.34600
O 	O 	0.74640 0.78370 0.70283 -0.34700
O 	O 	0.69690 0.82693 0.78516 -0.50200
O 	O 	0.79910 0.85230 0.85707 -0.35600
O 	O 	0.65010 0.77958 0.00969 -0.36400
O 	O 	0.67090 0.82694 0.92605 -0.51700
O 	O 	0.56080 0.83014 0.85320 -0.33200
O 	O 	0.53630 0.79297 0.77518 -0.34300
O 	O 	0.60250 0.73257 0.71569 -0.51200
O 	O 	0.54740 0.65074 0.71075 -0.34600
O 	O 	0.58230 0.57916 0.74084 -0.34200
O 	O 	0.69770 0.54549 0.79963 -0.50100
O 	O 	0.67550 0.53256 0.89831 -0.34900
O 	O 	0.70310 0.56648 0.97780 -0.35500
O 	O 	0.77170 0.63774 0.01541 -0.50500
O 	O 	0.68700 0.70899 0.04180 -0.35700
N 	N 	0.83850 0.69693 0.10643 -0.27200
C 	C 	0.79890 0.66692 0.13384 0.06600
H 	H 	0.75930 0.64990 0.11740 -0.01900
C 	C 	0.81200 0.65930 0.18391 -0.14500
H 	H 	0.78290 0.63770 0.20170 0.07400
C 	C 	0.86780 0.68390 0.20640 0.07500
H 	H 	0.87830 0.67940 0.24100 0.01900
C 	C 	0.90980 0.71480 0.18131 -0.15500
H 	H 	0.94830 0.73220 0.19810 0.08100
C 	C 	0.89460 0.72048 0.12936 0.11100
C 	C 	0.93840 0.75203 0.09880 -0.09700
H 	H 	0.92430 0.75380 0.06440 0.03200
C 	C 	0.99590 0.77845 0.11450 -0.09300
H 	H 	0.00750 0.77820 0.14940 0.03500
C 	C 	0.04320 0.80796 0.08330 0.10400
C 	C 	0.02170 0.81830 0.03460 -0.15200
H 	H 	0.97480 0.80610 0.02020 0.07400
C 	C 	0.06850 0.84610 0.00740 0.05700
H 	H 	0.05290 0.85410 0.97440 0.00600
C 	C 	0.13760 0.86260 0.02720 -0.13100
H 	H 	0.17130 0.88110 0.00800 0.06700
C 	C 	0.15710 0.85130 0.07620 0.05400
H 	H 	0.20520 0.86220 0.09040 -0.01600
N 	N 	0.10990 0.82543 0.10411 -0.26700
N 	N 	0.86160 0.54533 0.04380 -0.26700
C 	C 	0.82700 0.55610 0.08800 0.06600
H 	H 	0.78820 0.57870 0.08690 -0.02200
C 	C 	0.84140 0.53810 0.13420 -0.17200
H 	H 	0.81320 0.54670 0.16350 0.08000
C 	C 	0.89830 0.50770 0.13470 0.08400
H 	H 	0.91350 0.49570 0.16610 -0.00400
C 	C 	0.93550 0.49310 0.09300 -0.17100
H 	H 	0.96890 0.46800 0.09370 0.09200
C 	C 	0.92210 0.51730 0.04780 0.12200
N 	N 	0.77680 0.46069 0.85659 -0.26300
C 	C 	0.75090 0.44335 0.90005 0.07800
H 	H 	0.75090 0.46120 0.92910 -0.02400
C 	C 	0.72450 0.40124 0.90434 -0.14200
H 	H 	0.70820 0.39000 0.93590 0.07700
C 	C 	0.72230 0.37577 0.86240 0.06800
H 	H 	0.70290 0.34670 0.86420 0.00500
C 	C 	0.74820 0.39255 0.81771 -0.15300
H 	H 	0.74570 0.37520 0.78820 0.07600
C 	C 	0.77850 0.43516 0.81513 0.11100
C 	C 	0.81370 0.45290 0.76966 -0.10700
H 	H 	0.83540 0.48150 0.77120 0.04600
C 	C 	0.81770 0.43199 0.72604 -0.08700
H 	H 	0.79270 0.40420 0.72480 0.02800
C 	C 	0.85610 0.44676 0.67979 0.11000
C 	C 	0.89190 0.48711 0.67390 -0.15800
H 	H 	0.89300 0.50710 0.70110 0.09300
C 	C 	0.92630 0.49853 0.62860 0.06600
H 	H 	0.95090 0.52620 0.62450 0.00300
C 	C 	0.92430 0.46930 0.58920 -0.14100
H 	H 	0.94670 0.47650 0.55760 0.06400
C 	C 	0.88890 0.42918 0.59730 0.06900
H 	H 	0.88770 0.40890 0.57040 -0.03100
N 	N 	0.85610 0.41758 0.64118 -0.26500
N 	N 	0.68830 0.52054 0.67595 -0.26600
N 	N 	0.59340 0.82995 0.66931 -0.23000
C 	C 	0.61010 0.81321 0.62373 0.04200
H 	H 	0.64210 0.78770 0.62190 -0.01200
C 	C 	0.58320 0.83135 0.57996 -0.07300
H 	H 	0.59500 0.81810 0.54860 0.06000
C 	C 	0.53920 0.86870 0.58200 -0.01900
H 	H 	0.52080 0.88210 0.55200 0.04800
C 	C 	0.52200 0.88667 0.62750 -0.02700
H 	H 	0.49170 0.91280 0.62930 0.03100
C 	C 	0.54880 0.86651 0.67165 -0.05300
C 	C 	0.51670 0.88130 0.71930 0.31700
H 	H 	0.53930 0.87020 0.74950 -0.09800
C 	C 	0.45650 0.90990 0.72230 -0.83800
H 	H 	0.43710 0.92160 0.69170 0.30900
C 	C 	0.41790 0.92460 0.76850 -0.55500
C 	C 	0.44040 0.91080 0.81590 0.19400
H 	H 	0.48390 0.89110 0.81940 -0.03300
C 	C 	0.40050 0.92540 0.85810 -0.17300
H 	H 	0.41200 0.91340 0.89010 0.01900
C 	C 	0.34360 0.95770 0.85290 0.03900
H 	H 	0.31550 0.96890 0.88110 -0.01100
C 	C 	0.32900 0.97320 0.80510 0.00900
H 	H 	0.29370 0.99730 0.80170 -0.00700
N 	N 	0.36130 0.95640 0.76340 -0.04900
C 	C 	0.00550 0.75090 0.89649 -0.06700
H 	H 	0.04680 0.74870 0.87220 0.04700
C 	C 	0.95860 0.78895 0.89761 -0.02400
C 	C 	0.89670 0.79108 0.93291 0.07900
C 	C 	0.88200 0.75633 0.96555 0.02200
C 	C 	0.93210 0.72004 0.96448 0.06800
C 	C 	0.99390 0.71595 0.92978 -0.00400
C 	C 	0.04400 0.67443 0.92796 -0.05000
H 	H 	0.04510 0.66300 0.96310 0.08500
C 	C 	0.01610 0.63413 0.84515 -0.07200
H 	H 	0.05480 0.65220 0.82940 0.05200
C 	C 	0.00240 0.63920 0.89652 0.00900
C 	C 	0.94470 0.61248 0.91876 0.06700
C 	C 	0.90100 0.58215 0.89071 0.01600
C 	C 	0.91710 0.57785 0.83969 0.07900
C 	C 	0.97520 0.60351 0.81599 -0.02400
C 	C 	0.98640 0.59938 0.75945 0.03000
H 	H 	0.96980 0.56900 0.75060 0.04800
C 	C 	0.94500 0.67333 0.72177 -0.04900
H 	H 	0.99700 0.68400 0.72940 0.03800
C 	C 	0.92750 0.62972 0.73273 -0.03000
C 	C 	0.85030 0.61485 0.72235 0.08200
C 	C 	0.79300 0.64256 0.70167 0.01900
C 	C 	0.81340 0.68552 0.69006 0.08200
C 	C 	0.89040 0.70180 0.70038 -0.03100
C 	C 	0.90880 0.75012 0.69148 0.02900
H 	H 	0.87620 0.75950 0.66200 0.04500
C 	C 	0.93310 0.78859 0.77534 -0.04700
H 	H 	0.98630 0.77780 0.77450 0.04100
C 	C 	0.88150 0.77778 0.73643 -0.02800
C 	C 	0.80270 0.79220 0.73935 0.08200
C 	C 	0.77600 0.81633 0.78056 0.00700
C 	C 	0.83010 0.82850 0.81808 0.08900
C 	C 	0.90940 0.81480 0.81584 -0.03000
C 	C 	0.96730 0.82504 0.85848 0.02300
H 	H 	0.94820 0.85260 0.87450 0.04600
C 	C 	0.13120 0.68248 0.91370 -0.02000
H 	H 	0.15210 0.70690 0.93420 0.03800
H 	H 	0.13350 0.69160 0.87810 0.04400
C 	C 	0.18520 0.64290 0.92090 -0.05300
H 	H 	0.17670 0.62280 0.89240 -0.00700
H 	H 	0.16820 0.62750 0.95170 -0.67600
C 	C 	0.26740 0.65160 0.92460 1.85000
H 	H 	0.29660 0.62420 0.92920 -0.50500
H 	H 	0.27730 0.67070 0.95340 -0.53000
H 	H 	0.28580 0.66600 0.89390 -0.29900
C 	C 	0.07240 0.60396 0.74230 -0.25500
H 	H 	0.08790 0.63510 0.74310 0.09600
H 	H 	0.10780 0.58790 0.76560 0.10100
C 	C 	0.08360 0.58610 0.68890 0.18600
H 	H 	0.04840 0.60250 0.66580 -0.03100
H 	H 	0.06650 0.55520 0.68830 -0.02900
C 	C 	0.16710 0.58890 0.67010 -0.54700
H 	H 	0.20290 0.57370 0.69340 0.17800
H 	H 	0.17040 0.57520 0.63700 0.16700
H 	H 	0.18300 0.61950 0.66760 0.16900
C 	C 	0.99630 0.75860 0.67830 -0.24500
H 	H 	0.01070 0.74050 0.64890 0.09600
H 	H 	0.03010 0.74910 0.70670 0.09000
C 	C 	0.01550 0.80604 0.66650 0.17200
H 	H 	0.99430 0.82490 0.69350 -0.02100
H 	H 	0.98880 0.81440 0.63480 -0.02600
C 	C 	0.10470 0.81330 0.66150 -0.54000
H 	H 	0.12430 0.79860 0.63130 0.18800
H 	H 	0.11550 0.84470 0.65900 0.17700
H 	H 	0.13200 0.80150 0.69100 0.17200
C 	C 	0.05290 0.83299 0.84220 -0.22700
H 	H 	0.08610 0.83790 0.87240 0.09100
H 	H 	0.07310 0.80640 0.82540 0.08800
C 	C 	0.06360 0.87170 0.80660 0.13200
H 	H 	0.03050 0.86710 0.77630 -0.01200
H 	H 	0.04470 0.89860 0.82340 -0.01500
C 	C 	0.15100 0.87750 0.79110 -0.48900
H 	H 	0.17040 0.85050 0.77560 0.15800
H 	H 	0.15520 0.90150 0.76700 0.15900
H 	H 	0.18330 0.88420 0.82080 0.16200
C 	C 	0.47210 0.74804 0.93699 -0.06100
H 	H 	0.42830 0.72840 0.93830 0.05200
C 	C 	0.52620 0.74849 0.97690 -0.02700
C 	C 	0.59120 0.77668 0.97368 0.08200
C 	C 	0.60290 0.80301 0.93133 0.02200
C 	C 	0.54580 0.80270 0.89316 0.07100
C 	C 	0.47970 0.77537 0.89514 -0.00700
C 	C 	0.42040 0.77251 0.85154 -0.02700
H 	H 	0.42230 0.80130 0.83400 0.06800
C 	C 	0.42570 0.69508 0.81384 -0.07800
H 	H 	0.38680 0.68600 0.83760 0.06300
C 	C 	0.44950 0.73853 0.81399 -0.00400
C 	C 	0.50830 0.75076 0.77956 0.06700
C 	C 	0.54230 0.72047 0.74698 0.02200
C 	C 	0.51420 0.67782 0.74628 0.07200
C 	C 	0.45610 0.66404 0.78027 -0.01200
C 	C 	0.43380 0.61560 0.78164 -0.00600
H 	H 	0.43970 0.60450 0.74660 0.05900
C 	C 	0.48770 0.58729 0.86484 -0.05800
H 	H 	0.44100 0.59870 0.88030 0.05400
C 	C 	0.49630 0.59179 0.81304 -0.01300
C 	C 	0.56620 0.57559 0.79147 0.07500
C 	C 	0.62690 0.55674 0.82057 0.01900
C 	C 	0.61430 0.55160 0.87229 0.08600
C 	C 	0.54470 0.56671 0.89490 -0.02900
C 	C 	0.53340 0.56234 0.95158 0.04700
H 	H 	0.56300 0.53560 0.96230 0.04100
C 	C 	0.52860 0.63885 0.99060 -0.04600
H 	H 	0.47290 0.63920 0.98370 0.04200
C 	C 	0.57230 0.60108 0.97824 -0.03900
C 	C 	0.65330 0.60122 0.98894 0.08900
C 	C 	0.69080 0.63748 0.00971 0.01200
C 	C 	0.64530 0.67425 0.02190 0.08200
C 	C 	0.56270 0.67567 0.01232 -0.03700
C 	C 	0.51580 0.71751 0.02143 0.04100
H 	H 	0.54020 0.73210 0.05130 0.03700
C 	C 	0.33360 0.76587 0.86840 -0.11400
H 	H 	0.33010 0.73910 0.88890 0.07000
H 	H 	0.29930 0.76180 0.83850 0.06400
C 	C 	0.22740 0.79800 0.92460 0.34000
H 	H 	0.21320 0.82470 0.94280 -0.08000
H 	H 	0.23260 0.77380 0.94830 -0.07400
H 	H 	0.18550 0.79130 0.90010 -0.04800
C 	C 	0.34850 0.60591 0.79710 -0.16200
H 	H 	0.34090 0.61510 0.83240 0.09000
H 	H 	0.31170 0.62330 0.77610 0.07700
C 	C 	0.32670 0.55730 0.79230 0.03800
H 	H 	0.36910 0.54020 0.80910 0.00400
H 	H 	0.32800 0.54960 0.75620 -0.15700
C 	C 	0.25360 0.54400 0.81140 0.24600
H 	H 	0.24710 0.51260 0.80600 -0.05400
H 	H 	0.21050 0.55980 0.79440 -0.02400
H 	H 	0.25170 0.55020 0.84740 -0.04400
C 	C 	0.44500 0.55589 0.96652 -0.29600
H 	H 	0.41470 0.58240 0.95710 0.12600
H 	H 	0.44190 0.55280 0.00340 0.11700
C 	C 	0.40550 0.51676 0.94260 0.24500
H 	H 	0.42780 0.48970 0.95730 -0.04100
H 	H 	0.41720 0.51660 0.90620 -0.04100
C 	C 	0.31600 0.51750 0.95030 -0.62700
H 	H 	0.29340 0.54340 0.93410 0.23400
H 	H 	0.29230 0.49120 0.93560 0.20900
H 	H 	0.30430 0.51840 0.98630 0.21600
C 	C 	0.42760 0.70888 0.03393 -0.27500
H 	H 	0.42500 0.68800 0.06220 0.10900
H 	H 	0.40200 0.69490 0.00460 0.11600
C 	C 	0.37930 0.74955 0.04794 0.21200
H 	H 	0.38410 0.77130 0.02070 -0.03200
H 	H 	0.40220 0.76260 0.07870 -0.03300
C 	C 	0.29140 0.73970 0.05680 -0.59600
H 	H 	0.28620 0.71730 0.08270 0.20900
H 	H 	0.26400 0.76630 0.06770 0.20300
H 	H 	0.26710 0.72930 0.02550 0.21500
C 	C 	0.96350 0.50970 0.00160 -0.09300
H 	H 	0.93840 0.51870 0.97140 0.03800
C 	C 	0.64810 0.48456 0.68880 0.07300
H 	H 	0.62660 0.48260 0.72160 -0.01300
C 	C 	0.63670 0.45024 0.65640 -0.13300
H 	H 	0.60910 0.42480 0.66700 0.08000
C 	C 	0.66600 0.45330 0.60830 0.04600
H 	H 	0.65840 0.43020 0.58500 0.00400
C 	C 	0.70640 0.49050 0.59440 -0.12900
H 	H 	0.72680 0.49350 0.56140 0.06200
C 	C 	0.71690 0.52350 0.62920 0.07300
H 	H 	0.74520 0.54910 0.61960 -0.01500
H 	H 	0.23710 0.64980 0.90490 -0.79100
H 	H 	0.16140 0.61860 0.90160 0.15200
C 	C 	0.20090 0.62790 0.96680 1.41100
H 	H 	0.23630 0.60260 0.96440 -0.37700
H 	H 	0.15080 0.61940 0.98310 -0.15200
H 	H 	0.22710 0.65080 0.98650 -0.39800
C 	C 	0.30230 0.84100 0.88790 0.26300
H 	H 	0.27840 0.85820 0.91500 -0.06600
H 	H 	0.27120 0.84510 0.85710 0.00300
H 	H 	0.35740 0.85080 0.88230 -0.05100
C 	C 	0.33880 0.53490 0.74760 0.27700
H 	H 	0.32140 0.50460 0.75160 -0.06900
H 	H 	0.39570 0.53560 0.73890 -0.05000
H 	H 	0.30770 0.54870 0.72080 -0.03600
C 	C 	0.30240 0.80440 0.89880 -0.03300
H 	H 	0.29640 0.82970 0.87600 -0.14600
H 	H 	0.34340 0.81230 0.92400 0.09200
H 	H 	0.33110 0.80300 0.93120 -0.06800
H 	H 	0.24590 0.79730 0.90640 -0.16300
H 	H 	0.26930 0.55460 0.80070 -0.14600
H 	H 	0.35660 0.54160 0.81870 0.00700
O 	O 	0.44820 0.92330 0.74990 0.70000
C 	C 	0.44380 0.91420 0.79550 0.04700
N 	N 	0.38680 0.93330 0.82360 -0.04300
C 	C 	0.38120 0.92260 0.87630 0.05000
H 	H 	0.33710 0.93900 0.89150 0.00400
H 	H 	0.43140 0.93030 0.89310 0.03500
H 	H 	0.37130 0.89130 0.88020 0.02500
C 	C 	0.32520 0.95900 0.80030 -0.19200
H 	H 	0.28910 0.97030 0.82610 0.06300
H 	H 	0.29500 0.94080 0.77680 0.10800
H 	H 	0.34970 0.98340 0.78220 0.11200
