data_crystal

_cell_length_a 41.39300
_cell_length_b 41.39300
_cell_length_c 41.39300
_cell_angle_alpha 90.00000
_cell_angle_beta  90.00000
_cell_angle_gamma 90.00000

_symmetry_space_group_name_	'P 1'
_symmetry_space_group_name_H-M	'P 1'

loop_
_symmetry_equiv_pos_as_xyz
  x,y,z

loop_
_atom_site_label
_atom_site_type_symbol
_atom_site_fract_x
_atom_site_fract_y
_atom_site_fract_z
_atom_site_charge
Zn	Zn	0.70388 0.87758 0.03351 1.19900
O 	O 	0.72674 0.90817 0.00606 -0.46400
N 	N 	0.68106 0.84918 0.00189 -0.26000
N 	N 	0.67317 0.90260 0.06070 -0.27000
N 	N 	0.65382 0.81164 0.97630 -0.26700
C 	C 	0.75900 0.95477 0.99873 -0.10500
O 	O 	0.75635 0.92434 0.04767 -0.34300
C 	C 	0.74759 0.92656 0.01950 0.34600
C 	C 	0.65396 0.83275 0.00086 0.22100
C 	C 	0.67400 0.92797 0.08100 0.24100
N 	N 	0.69910 0.83800 0.97700 -0.05900
N 	N 	0.69870 0.94870 0.08310 -0.36700
H 	H 	0.69640 0.96640 0.09370 0.18800
H 	H 	0.71680 0.94430 0.07390 0.17600
N 	N 	0.63010 0.83450 0.02360 -0.35400
H 	H 	0.63230 0.84700 0.04000 0.16100
H 	H 	0.61290 0.82300 0.02150 0.17700
N 	N 	0.64616 0.93327 0.09430 -0.26200
N 	N 	0.62670 0.90920 0.08290 -0.06400
N 	N 	0.68260 0.81700 0.96150 -0.06400
C 	C 	0.78604 0.97221 0.00857 0.04700
H 	H 	0.79770 0.96600 0.02680 0.04200
O 	O 	0.60260 0.99220 0.09640 -0.46500
N 	N 	0.64300 0.89080 0.06490 -0.07400
C 	C 	0.58960 0.04350 0.05670 0.05400
H 	H 	0.60760 0.03070 0.05250 0.04500
O 	O 	0.56050 0.00310 0.12790 -0.31100
C 	C 	0.56990 0.03700 0.08220 -0.10900
C 	C 	0.57750 0.00850 0.10390 0.35700
Zn	Zn	0.70388 0.37758 0.53351 1.19900
O 	O 	0.72674 0.40817 0.50606 -0.46400
N 	N 	0.68106 0.34918 0.50189 -0.26000
N 	N 	0.67317 0.40260 0.56070 -0.27000
N 	N 	0.65382 0.31164 0.47630 -0.26700
C 	C 	0.75900 0.45477 0.49873 -0.10500
O 	O 	0.75635 0.42434 0.54767 -0.34300
C 	C 	0.74759 0.42656 0.51950 0.34600
C 	C 	0.65396 0.33275 0.50086 0.22100
C 	C 	0.67400 0.42797 0.58100 0.24100
N 	N 	0.69910 0.33800 0.47700 -0.05900
N 	N 	0.69870 0.44870 0.58310 -0.36700
H 	H 	0.69640 0.46640 0.59370 0.18800
H 	H 	0.71680 0.44430 0.57390 0.17600
N 	N 	0.63010 0.33450 0.52360 -0.35400
H 	H 	0.63230 0.34700 0.54000 0.16100
H 	H 	0.61290 0.32300 0.52150 0.17700
N 	N 	0.64616 0.43327 0.59430 -0.26200
N 	N 	0.62670 0.40920 0.58290 -0.06400
N 	N 	0.68260 0.31700 0.46150 -0.06400
C 	C 	0.78604 0.47221 0.50857 0.04700
H 	H 	0.79770 0.46600 0.52680 0.04200
O 	O 	0.60260 0.49220 0.59640 -0.46500
N 	N 	0.64300 0.39080 0.56490 -0.07400
C 	C 	0.58960 0.54350 0.55670 0.05400
H 	H 	0.60760 0.53070 0.55250 0.04500
O 	O 	0.56050 0.50310 0.62790 -0.31100
C 	C 	0.56990 0.53700 0.58220 -0.10900
C 	C 	0.57750 0.50850 0.60390 0.35700
Zn	Zn	0.20388 0.87758 0.53351 1.19900
O 	O 	0.22674 0.90817 0.50606 -0.46400
N 	N 	0.18106 0.84918 0.50189 -0.26000
N 	N 	0.17317 0.90260 0.56070 -0.27000
N 	N 	0.15382 0.81164 0.47630 -0.26700
C 	C 	0.25900 0.95477 0.49873 -0.10500
O 	O 	0.25635 0.92434 0.54767 -0.34300
C 	C 	0.24759 0.92656 0.51950 0.34600
C 	C 	0.15396 0.83275 0.50086 0.22100
C 	C 	0.17400 0.92797 0.58100 0.24100
N 	N 	0.19910 0.83800 0.47700 -0.05900
N 	N 	0.19870 0.94870 0.58310 -0.36700
H 	H 	0.19640 0.96640 0.59370 0.18800
H 	H 	0.21680 0.94430 0.57390 0.17600
N 	N 	0.13010 0.83450 0.52360 -0.35400
H 	H 	0.13230 0.84700 0.54000 0.16100
H 	H 	0.11290 0.82300 0.52150 0.17700
N 	N 	0.14616 0.93327 0.59430 -0.26200
N 	N 	0.12670 0.90920 0.58290 -0.06400
N 	N 	0.18260 0.81700 0.46150 -0.06400
C 	C 	0.28604 0.97221 0.50857 0.04700
H 	H 	0.29770 0.96600 0.52680 0.04200
O 	O 	0.10260 0.99220 0.59640 -0.46500
N 	N 	0.14300 0.89080 0.56490 -0.07400
C 	C 	0.08960 0.04350 0.55670 0.05400
H 	H 	0.10760 0.03070 0.55250 0.04500
O 	O 	0.06050 0.00310 0.62790 -0.31100
C 	C 	0.06990 0.03700 0.58220 -0.10900
C 	C 	0.07750 0.00850 0.60390 0.35700
Zn	Zn	0.20388 0.37758 0.03351 1.19900
O 	O 	0.22674 0.40817 0.00606 -0.46400
N 	N 	0.18106 0.34918 0.00189 -0.26000
N 	N 	0.17317 0.40260 0.06070 -0.27000
N 	N 	0.15382 0.31164 0.97630 -0.26700
C 	C 	0.25900 0.45477 0.99873 -0.10500
O 	O 	0.25635 0.42434 0.04767 -0.34300
C 	C 	0.24759 0.42656 0.01950 0.34600
C 	C 	0.15396 0.33275 0.00086 0.22100
C 	C 	0.17400 0.42797 0.08100 0.24100
N 	N 	0.19910 0.33800 0.97700 -0.05900
N 	N 	0.19870 0.44870 0.08310 -0.36700
H 	H 	0.19640 0.46640 0.09370 0.18800
H 	H 	0.21680 0.44430 0.07390 0.17600
N 	N 	0.13010 0.33450 0.02360 -0.35400
H 	H 	0.13230 0.34700 0.04000 0.16100
H 	H 	0.11290 0.32300 0.02150 0.17700
N 	N 	0.14616 0.43327 0.09430 -0.26200
N 	N 	0.12670 0.40920 0.08290 -0.06400
N 	N 	0.18260 0.31700 0.96150 -0.06400
C 	C 	0.28604 0.47221 0.00857 0.04700
H 	H 	0.29770 0.46600 0.02680 0.04200
O 	O 	0.10260 0.49220 0.09640 -0.46500
N 	N 	0.14300 0.39080 0.06490 -0.07400
C 	C 	0.08960 0.54350 0.05670 0.05400
H 	H 	0.10760 0.53070 0.05250 0.04500
O 	O 	0.06050 0.50310 0.12790 -0.31100
C 	C 	0.06990 0.53700 0.08220 -0.10900
C 	C 	0.07750 0.50850 0.10390 0.35700
Zn	Zn	0.54612 0.37242 0.03351 1.19900
O 	O 	0.52326 0.34183 0.00606 -0.46400
N 	N 	0.56894 0.40082 0.00189 -0.26000
N 	N 	0.57683 0.34740 0.06070 -0.27000
N 	N 	0.59618 0.43836 0.97630 -0.26700
C 	C 	0.49100 0.29523 0.99873 -0.10500
O 	O 	0.49365 0.32566 0.04767 -0.34300
C 	C 	0.50241 0.32344 0.01950 0.34600
C 	C 	0.59604 0.41725 0.00086 0.22100
C 	C 	0.57600 0.32203 0.08100 0.24100
N 	N 	0.55090 0.41200 0.97700 -0.05900
N 	N 	0.55130 0.30130 0.08310 -0.36700
H 	H 	0.55360 0.28360 0.09370 0.18800
H 	H 	0.53320 0.30570 0.07390 0.17600
N 	N 	0.61990 0.41550 0.02360 -0.35400
H 	H 	0.61770 0.40300 0.04000 0.16100
H 	H 	0.63710 0.42700 0.02150 0.17700
N 	N 	0.60384 0.31673 0.09430 -0.26200
N 	N 	0.62330 0.34080 0.08290 -0.06400
N 	N 	0.56740 0.43300 0.96150 -0.06400
C 	C 	0.46396 0.27779 0.00857 0.04700
H 	H 	0.45230 0.28400 0.02680 0.04200
O 	O 	0.64740 0.25780 0.09640 -0.46500
N 	N 	0.60700 0.35920 0.06490 -0.07400
C 	C 	0.66040 0.20650 0.05670 0.05400
H 	H 	0.64240 0.21930 0.05250 0.04500
O 	O 	0.68950 0.24690 0.12790 -0.31100
C 	C 	0.68010 0.21300 0.08220 -0.10900
C 	C 	0.67250 0.24150 0.10390 0.35700
Zn	Zn	0.54612 0.87242 0.53351 1.19900
O 	O 	0.52326 0.84183 0.50606 -0.46400
N 	N 	0.56894 0.90082 0.50189 -0.26000
N 	N 	0.57683 0.84740 0.56070 -0.27000
N 	N 	0.59618 0.93836 0.47630 -0.26700
C 	C 	0.49100 0.79523 0.49873 -0.10500
O 	O 	0.49365 0.82566 0.54767 -0.34300
C 	C 	0.50241 0.82344 0.51950 0.34600
C 	C 	0.59604 0.91725 0.50086 0.22100
C 	C 	0.57600 0.82203 0.58100 0.24100
N 	N 	0.55090 0.91200 0.47700 -0.05900
N 	N 	0.55130 0.80130 0.58310 -0.36700
H 	H 	0.55360 0.78360 0.59370 0.18800
H 	H 	0.53320 0.80570 0.57390 0.17600
N 	N 	0.61990 0.91550 0.52360 -0.35400
H 	H 	0.61770 0.90300 0.54000 0.16100
H 	H 	0.63710 0.92700 0.52150 0.17700
N 	N 	0.60384 0.81673 0.59430 -0.26200
N 	N 	0.62330 0.84080 0.58290 -0.06400
N 	N 	0.56740 0.93300 0.46150 -0.06400
C 	C 	0.46396 0.77779 0.50857 0.04700
H 	H 	0.45230 0.78400 0.52680 0.04200
O 	O 	0.64740 0.75780 0.59640 -0.46500
N 	N 	0.60700 0.85920 0.56490 -0.07400
C 	C 	0.66040 0.70650 0.55670 0.05400
H 	H 	0.64240 0.71930 0.55250 0.04500
O 	O 	0.68950 0.74690 0.62790 -0.31100
C 	C 	0.68010 0.71300 0.58220 -0.10900
C 	C 	0.67250 0.74150 0.60390 0.35700
Zn	Zn	0.04612 0.37242 0.53351 1.19900
O 	O 	0.02326 0.34183 0.50606 -0.46400
N 	N 	0.06894 0.40082 0.50189 -0.26000
N 	N 	0.07683 0.34740 0.56070 -0.27000
N 	N 	0.09618 0.43836 0.47630 -0.26700
C 	C 	0.99100 0.29523 0.49873 -0.10500
O 	O 	0.99365 0.32566 0.54767 -0.34300
C 	C 	0.00241 0.32344 0.51950 0.34600
C 	C 	0.09604 0.41725 0.50086 0.22100
C 	C 	0.07600 0.32203 0.58100 0.24100
N 	N 	0.05090 0.41200 0.47700 -0.05900
N 	N 	0.05130 0.30130 0.58310 -0.36700
H 	H 	0.05360 0.28360 0.59370 0.18800
H 	H 	0.03320 0.30570 0.57390 0.17600
N 	N 	0.11990 0.41550 0.52360 -0.35400
H 	H 	0.11770 0.40300 0.54000 0.16100
H 	H 	0.13710 0.42700 0.52150 0.17700
N 	N 	0.10384 0.31673 0.59430 -0.26200
N 	N 	0.12330 0.34080 0.58290 -0.06400
N 	N 	0.06740 0.43300 0.46150 -0.06400
C 	C 	0.96396 0.27779 0.50857 0.04700
H 	H 	0.95230 0.28400 0.52680 0.04200
O 	O 	0.14740 0.25780 0.59640 -0.46500
N 	N 	0.10700 0.35920 0.56490 -0.07400
C 	C 	0.16040 0.20650 0.55670 0.05400
H 	H 	0.14240 0.21930 0.55250 0.04500
O 	O 	0.18950 0.24690 0.62790 -0.31100
C 	C 	0.18010 0.21300 0.58220 -0.10900
C 	C 	0.17250 0.24150 0.60390 0.35700
Zn	Zn	0.04612 0.87242 0.03351 1.19900
O 	O 	0.02326 0.84183 0.00606 -0.46400
N 	N 	0.06894 0.90082 0.00189 -0.26000
N 	N 	0.07683 0.84740 0.06070 -0.27000
N 	N 	0.09618 0.93836 0.97630 -0.26700
C 	C 	0.99100 0.79523 0.99873 -0.10500
O 	O 	0.99365 0.82566 0.04767 -0.34300
C 	C 	0.00241 0.82344 0.01950 0.34600
C 	C 	0.09604 0.91725 0.00086 0.22100
C 	C 	0.07600 0.82203 0.08100 0.24100
N 	N 	0.05090 0.91200 0.97700 -0.05900
N 	N 	0.05130 0.80130 0.08310 -0.36700
H 	H 	0.05360 0.78360 0.09370 0.18800
H 	H 	0.03320 0.80570 0.07390 0.17600
N 	N 	0.11990 0.91550 0.02360 -0.35400
H 	H 	0.11770 0.90300 0.04000 0.16100
H 	H 	0.13710 0.92700 0.02150 0.17700
N 	N 	0.10384 0.81673 0.09430 -0.26200
N 	N 	0.12330 0.84080 0.08290 -0.06400
N 	N 	0.06740 0.93300 0.96150 -0.06400
C 	C 	0.96396 0.77779 0.00857 0.04700
H 	H 	0.95230 0.78400 0.02680 0.04200
O 	O 	0.14740 0.75780 0.09640 -0.46500
N 	N 	0.10700 0.85920 0.06490 -0.07400
C 	C 	0.16040 0.70650 0.05670 0.05400
H 	H 	0.14240 0.71930 0.05250 0.04500
O 	O 	0.18950 0.74690 0.12790 -0.31100
C 	C 	0.18010 0.71300 0.08220 -0.10900
C 	C 	0.17250 0.74150 0.10390 0.35700
Zn	Zn	0.54612 0.87758 0.21649 1.19900
O 	O 	0.52326 0.90817 0.24394 -0.46400
N 	N 	0.56894 0.84918 0.24811 -0.26000
N 	N 	0.57683 0.90260 0.18930 -0.27000
N 	N 	0.59618 0.81164 0.27370 -0.26700
C 	C 	0.49100 0.95477 0.25127 -0.10500
O 	O 	0.49365 0.92434 0.20233 -0.34300
C 	C 	0.50241 0.92656 0.23050 0.34600
C 	C 	0.59604 0.83275 0.24914 0.22100
C 	C 	0.57600 0.92797 0.16900 0.24100
N 	N 	0.55090 0.83800 0.27300 -0.05900
N 	N 	0.55130 0.94870 0.16690 -0.36700
H 	H 	0.55360 0.96640 0.15630 0.18800
H 	H 	0.53320 0.94430 0.17610 0.17600
N 	N 	0.61990 0.83450 0.22640 -0.35400
H 	H 	0.61770 0.84700 0.21000 0.16100
H 	H 	0.63710 0.82300 0.22850 0.17700
N 	N 	0.60384 0.93327 0.15570 -0.26200
N 	N 	0.62330 0.90920 0.16710 -0.06400
N 	N 	0.56740 0.81700 0.28850 -0.06400
C 	C 	0.46396 0.97221 0.24143 0.04700
H 	H 	0.45230 0.96600 0.22320 0.04200
O 	O 	0.64740 0.99220 0.15360 -0.46500
N 	N 	0.60700 0.89080 0.18510 -0.07400
C 	C 	0.66040 0.04350 0.19330 0.05400
H 	H 	0.64240 0.03070 0.19750 0.04500
O 	O 	0.68950 0.00310 0.12210 -0.31100
C 	C 	0.68010 0.03700 0.16780 -0.10900
C 	C 	0.67250 0.00850 0.14610 0.35700
Zn	Zn	0.54612 0.37758 0.71649 1.19900
O 	O 	0.52326 0.40817 0.74394 -0.46400
N 	N 	0.56894 0.34918 0.74811 -0.26000
N 	N 	0.57683 0.40260 0.68930 -0.27000
N 	N 	0.59618 0.31164 0.77370 -0.26700
C 	C 	0.49100 0.45477 0.75127 -0.10500
O 	O 	0.49365 0.42434 0.70233 -0.34300
C 	C 	0.50241 0.42656 0.73050 0.34600
C 	C 	0.59604 0.33275 0.74914 0.22100
C 	C 	0.57600 0.42797 0.66900 0.24100
N 	N 	0.55090 0.33800 0.77300 -0.05900
N 	N 	0.55130 0.44870 0.66690 -0.36700
H 	H 	0.55360 0.46640 0.65630 0.18800
H 	H 	0.53320 0.44430 0.67610 0.17600
N 	N 	0.61990 0.33450 0.72640 -0.35400
H 	H 	0.61770 0.34700 0.71000 0.16100
H 	H 	0.63710 0.32300 0.72850 0.17700
N 	N 	0.60384 0.43327 0.65570 -0.26200
N 	N 	0.62330 0.40920 0.66710 -0.06400
N 	N 	0.56740 0.31700 0.78850 -0.06400
C 	C 	0.46396 0.47221 0.74143 0.04700
H 	H 	0.45230 0.46600 0.72320 0.04200
O 	O 	0.64740 0.49220 0.65360 -0.46500
N 	N 	0.60700 0.39080 0.68510 -0.07400
C 	C 	0.66040 0.54350 0.69330 0.05400
H 	H 	0.64240 0.53070 0.69750 0.04500
O 	O 	0.68950 0.50310 0.62210 -0.31100
C 	C 	0.68010 0.53700 0.66780 -0.10900
C 	C 	0.67250 0.50850 0.64610 0.35700
Zn	Zn	0.04612 0.87758 0.71649 1.19900
O 	O 	0.02326 0.90817 0.74394 -0.46400
N 	N 	0.06894 0.84918 0.74811 -0.26000
N 	N 	0.07683 0.90260 0.68930 -0.27000
N 	N 	0.09618 0.81164 0.77370 -0.26700
C 	C 	0.99100 0.95477 0.75127 -0.10500
O 	O 	0.99365 0.92434 0.70233 -0.34300
C 	C 	0.00241 0.92656 0.73050 0.34600
C 	C 	0.09604 0.83275 0.74914 0.22100
C 	C 	0.07600 0.92797 0.66900 0.24100
N 	N 	0.05090 0.83800 0.77300 -0.05900
N 	N 	0.05130 0.94870 0.66690 -0.36700
H 	H 	0.05360 0.96640 0.65630 0.18800
H 	H 	0.03320 0.94430 0.67610 0.17600
N 	N 	0.11990 0.83450 0.72640 -0.35400
H 	H 	0.11770 0.84700 0.71000 0.16100
H 	H 	0.13710 0.82300 0.72850 0.17700
N 	N 	0.10384 0.93327 0.65570 -0.26200
N 	N 	0.12330 0.90920 0.66710 -0.06400
N 	N 	0.06740 0.81700 0.78850 -0.06400
C 	C 	0.96396 0.97221 0.74143 0.04700
H 	H 	0.95230 0.96600 0.72320 0.04200
O 	O 	0.14740 0.99220 0.65360 -0.46500
N 	N 	0.10700 0.89080 0.68510 -0.07400
C 	C 	0.16040 0.04350 0.69330 0.05400
H 	H 	0.14240 0.03070 0.69750 0.04500
O 	O 	0.18950 0.00310 0.62210 -0.31100
C 	C 	0.18010 0.03700 0.66780 -0.10900
C 	C 	0.17250 0.00850 0.64610 0.35700
Zn	Zn	0.04612 0.37758 0.21649 1.19900
O 	O 	0.02326 0.40817 0.24394 -0.46400
N 	N 	0.06894 0.34918 0.24811 -0.26000
N 	N 	0.07683 0.40260 0.18930 -0.27000
N 	N 	0.09618 0.31164 0.27370 -0.26700
C 	C 	0.99100 0.45477 0.25127 -0.10500
O 	O 	0.99365 0.42434 0.20233 -0.34300
C 	C 	0.00241 0.42656 0.23050 0.34600
C 	C 	0.09604 0.33275 0.24914 0.22100
C 	C 	0.07600 0.42797 0.16900 0.24100
N 	N 	0.05090 0.33800 0.27300 -0.05900
N 	N 	0.05130 0.44870 0.16690 -0.36700
H 	H 	0.05360 0.46640 0.15630 0.18800
H 	H 	0.03320 0.44430 0.17610 0.17600
N 	N 	0.11990 0.33450 0.22640 -0.35400
H 	H 	0.11770 0.34700 0.21000 0.16100
H 	H 	0.13710 0.32300 0.22850 0.17700
N 	N 	0.10384 0.43327 0.15570 -0.26200
N 	N 	0.12330 0.40920 0.16710 -0.06400
N 	N 	0.06740 0.31700 0.28850 -0.06400
C 	C 	0.96396 0.47221 0.24143 0.04700
H 	H 	0.95230 0.46600 0.22320 0.04200
O 	O 	0.14740 0.49220 0.15360 -0.46500
N 	N 	0.10700 0.39080 0.18510 -0.07400
C 	C 	0.16040 0.54350 0.19330 0.05400
H 	H 	0.14240 0.53070 0.19750 0.04500
O 	O 	0.18950 0.50310 0.12210 -0.31100
C 	C 	0.18010 0.53700 0.16780 -0.10900
C 	C 	0.17250 0.50850 0.14610 0.35700
Zn	Zn	0.70388 0.37242 0.21649 1.19900
O 	O 	0.72674 0.34183 0.24394 -0.46400
N 	N 	0.68106 0.40082 0.24811 -0.26000
N 	N 	0.67317 0.34740 0.18930 -0.27000
N 	N 	0.65382 0.43836 0.27370 -0.26700
C 	C 	0.75900 0.29523 0.25127 -0.10500
O 	O 	0.75635 0.32566 0.20233 -0.34300
C 	C 	0.74759 0.32344 0.23050 0.34600
C 	C 	0.65396 0.41725 0.24914 0.22100
C 	C 	0.67400 0.32203 0.16900 0.24100
N 	N 	0.69910 0.41200 0.27300 -0.05900
N 	N 	0.69870 0.30130 0.16690 -0.36700
H 	H 	0.69640 0.28360 0.15630 0.18800
H 	H 	0.71680 0.30570 0.17610 0.17600
N 	N 	0.63010 0.41550 0.22640 -0.35400
H 	H 	0.63230 0.40300 0.21000 0.16100
H 	H 	0.61290 0.42700 0.22850 0.17700
N 	N 	0.64616 0.31673 0.15570 -0.26200
N 	N 	0.62670 0.34080 0.16710 -0.06400
N 	N 	0.68260 0.43300 0.28850 -0.06400
C 	C 	0.78604 0.27779 0.24143 0.04700
H 	H 	0.79770 0.28400 0.22320 0.04200
O 	O 	0.60260 0.25780 0.15360 -0.46500
N 	N 	0.64300 0.35920 0.18510 -0.07400
C 	C 	0.58960 0.20650 0.19330 0.05400
H 	H 	0.60760 0.21930 0.19750 0.04500
O 	O 	0.56050 0.24690 0.12210 -0.31100
C 	C 	0.56990 0.21300 0.16780 -0.10900
C 	C 	0.57750 0.24150 0.14610 0.35700
Zn	Zn	0.70388 0.87242 0.71649 1.19900
O 	O 	0.72674 0.84183 0.74394 -0.46400
N 	N 	0.68106 0.90082 0.74811 -0.26000
N 	N 	0.67317 0.84740 0.68930 -0.27000
N 	N 	0.65382 0.93836 0.77370 -0.26700
C 	C 	0.75900 0.79523 0.75127 -0.10500
O 	O 	0.75635 0.82566 0.70233 -0.34300
C 	C 	0.74759 0.82344 0.73050 0.34500
C 	C 	0.65396 0.91725 0.74914 0.22000
C 	C 	0.67400 0.82203 0.66900 0.24000
N 	N 	0.69910 0.91200 0.77300 -0.06000
N 	N 	0.69870 0.80130 0.66690 -0.36800
H 	H 	0.69640 0.78360 0.65630 0.18700
H 	H 	0.71680 0.80570 0.67610 0.17500
N 	N 	0.63010 0.91550 0.72640 -0.35500
H 	H 	0.63230 0.90300 0.71000 0.16000
H 	H 	0.61290 0.92700 0.72850 0.17600
N 	N 	0.64616 0.81673 0.65570 -0.26300
N 	N 	0.62670 0.84080 0.66710 -0.06500
N 	N 	0.68260 0.93300 0.78850 -0.06500
C 	C 	0.78604 0.77779 0.74143 0.04600
H 	H 	0.79770 0.78400 0.72320 0.04100
O 	O 	0.60260 0.75780 0.65360 -0.46600
N 	N 	0.64300 0.85920 0.68510 -0.07500
C 	C 	0.58960 0.70650 0.69330 0.05300
H 	H 	0.60760 0.71930 0.69750 0.04400
O 	O 	0.56050 0.74690 0.62210 -0.31200
C 	C 	0.56990 0.71300 0.66780 -0.11000
C 	C 	0.57750 0.74150 0.64610 0.35600
Zn	Zn	0.20388 0.37242 0.71649 1.19800
O 	O 	0.22674 0.34183 0.74394 -0.46500
N 	N 	0.18106 0.40082 0.74811 -0.26100
N 	N 	0.17317 0.34740 0.68930 -0.27100
N 	N 	0.15382 0.43836 0.77370 -0.26800
C 	C 	0.25900 0.29523 0.75127 -0.10600
O 	O 	0.25635 0.32566 0.70233 -0.34400
C 	C 	0.24759 0.32344 0.73050 0.34500
C 	C 	0.15396 0.41725 0.74914 0.22000
C 	C 	0.17400 0.32203 0.66900 0.24000
N 	N 	0.19910 0.41200 0.77300 -0.06000
N 	N 	0.19870 0.30130 0.66690 -0.36800
H 	H 	0.19640 0.28360 0.65630 0.18700
H 	H 	0.21680 0.30570 0.67610 0.17500
N 	N 	0.13010 0.41550 0.72640 -0.35500
H 	H 	0.13230 0.40300 0.71000 0.16000
H 	H 	0.11290 0.42700 0.72850 0.17600
N 	N 	0.14616 0.31673 0.65570 -0.26300
N 	N 	0.12670 0.34080 0.66710 -0.06500
N 	N 	0.18260 0.43300 0.78850 -0.06500
C 	C 	0.28604 0.27779 0.74143 0.04600
H 	H 	0.29770 0.28400 0.72320 0.04100
O 	O 	0.10260 0.25780 0.65360 -0.46600
N 	N 	0.14300 0.35920 0.68510 -0.07500
C 	C 	0.08960 0.20650 0.69330 0.05300
H 	H 	0.10760 0.21930 0.69750 0.04400
O 	O 	0.06050 0.24690 0.62210 -0.31200
C 	C 	0.06990 0.21300 0.66780 -0.11000
C 	C 	0.07750 0.24150 0.64610 0.35600
Zn	Zn	0.20388 0.87242 0.21649 1.19800
O 	O 	0.22674 0.84183 0.24394 -0.46500
N 	N 	0.18106 0.90082 0.24811 -0.26100
N 	N 	0.17317 0.84740 0.18930 -0.27100
N 	N 	0.15382 0.93836 0.27370 -0.26800
C 	C 	0.25900 0.79523 0.25127 -0.10600
O 	O 	0.25635 0.82566 0.20233 -0.34400
C 	C 	0.24759 0.82344 0.23050 0.34500
C 	C 	0.15396 0.91725 0.24914 0.22000
C 	C 	0.17400 0.82203 0.16900 0.24000
N 	N 	0.19910 0.91200 0.27300 -0.06000
N 	N 	0.19870 0.80130 0.16690 -0.36800
H 	H 	0.19640 0.78360 0.15630 0.18700
H 	H 	0.21680 0.80570 0.17610 0.17500
N 	N 	0.13010 0.91550 0.22640 -0.35500
H 	H 	0.13230 0.90300 0.21000 0.16000
H 	H 	0.11290 0.92700 0.22850 0.17600
N 	N 	0.14616 0.81673 0.15570 -0.26300
N 	N 	0.12670 0.84080 0.16710 -0.06500
N 	N 	0.18260 0.93300 0.28850 -0.06500
C 	C 	0.28604 0.77779 0.24143 0.04600
H 	H 	0.29770 0.78400 0.22320 0.04100
O 	O 	0.10260 0.75780 0.15360 -0.46600
N 	N 	0.14300 0.85920 0.18510 -0.07500
C 	C 	0.08960 0.70650 0.19330 0.05300
H 	H 	0.10760 0.71930 0.19750 0.04400
O 	O 	0.06050 0.74690 0.12210 -0.31200
C 	C 	0.06990 0.71300 0.16780 -0.11000
C 	C 	0.07750 0.74150 0.14610 0.35600
Zn	Zn	0.03351 0.70388 0.87758 1.19800
O 	O 	0.00606 0.72674 0.90817 -0.46500
N 	N 	0.00189 0.68106 0.84918 -0.26100
N 	N 	0.06070 0.67317 0.90260 -0.27100
N 	N 	0.97630 0.65382 0.81164 -0.26800
C 	C 	0.99873 0.75900 0.95477 -0.10600
O 	O 	0.04767 0.75635 0.92434 -0.34400
C 	C 	0.01950 0.74759 0.92656 0.34500
C 	C 	0.00086 0.65396 0.83275 0.22000
C 	C 	0.08100 0.67400 0.92797 0.24000
N 	N 	0.97700 0.69910 0.83800 -0.06000
N 	N 	0.08310 0.69870 0.94870 -0.36800
H 	H 	0.09370 0.69640 0.96640 0.18700
H 	H 	0.07390 0.71680 0.94430 0.17500
N 	N 	0.02360 0.63010 0.83450 -0.35500
H 	H 	0.04000 0.63230 0.84700 0.16000
H 	H 	0.02150 0.61290 0.82300 0.17600
N 	N 	0.09430 0.64616 0.93327 -0.26300
N 	N 	0.08290 0.62670 0.90920 -0.06500
N 	N 	0.96150 0.68260 0.81700 -0.06500
C 	C 	0.00857 0.78604 0.97221 0.04600
H 	H 	0.02680 0.79770 0.96600 0.04100
O 	O 	0.09640 0.60260 0.99220 -0.46600
N 	N 	0.06490 0.64300 0.89080 -0.07500
C 	C 	0.05670 0.58960 0.04350 0.05300
H 	H 	0.05250 0.60760 0.03070 0.04400
O 	O 	0.12790 0.56050 0.00310 -0.31200
C 	C 	0.08220 0.56990 0.03700 -0.11000
C 	C 	0.10390 0.57750 0.00850 0.35600
Zn	Zn	0.03351 0.20388 0.37758 1.19800
O 	O 	0.00606 0.22674 0.40817 -0.46500
N 	N 	0.00189 0.18106 0.34918 -0.26100
N 	N 	0.06070 0.17317 0.40260 -0.27100
N 	N 	0.97630 0.15382 0.31164 -0.26800
C 	C 	0.99873 0.25900 0.45477 -0.10600
O 	O 	0.04767 0.25635 0.42434 -0.34400
C 	C 	0.01950 0.24759 0.42656 0.34500
C 	C 	0.00086 0.15396 0.33275 0.22000
C 	C 	0.08100 0.17400 0.42797 0.24000
N 	N 	0.97700 0.19910 0.33800 -0.06000
N 	N 	0.08310 0.19870 0.44870 -0.36800
H 	H 	0.09370 0.19640 0.46640 0.18700
H 	H 	0.07390 0.21680 0.44430 0.17500
N 	N 	0.02360 0.13010 0.33450 -0.35500
H 	H 	0.04000 0.13230 0.34700 0.16000
H 	H 	0.02150 0.11290 0.32300 0.17600
N 	N 	0.09430 0.14616 0.43327 -0.26300
N 	N 	0.08290 0.12670 0.40920 -0.06500
N 	N 	0.96150 0.18260 0.31700 -0.06500
C 	C 	0.00857 0.28604 0.47221 0.04600
H 	H 	0.02680 0.29770 0.46600 0.04100
O 	O 	0.09640 0.10260 0.49220 -0.46600
N 	N 	0.06490 0.14300 0.39080 -0.07500
C 	C 	0.05670 0.08960 0.54350 0.05300
H 	H 	0.05250 0.10760 0.53070 0.04400
O 	O 	0.12790 0.06050 0.50310 -0.31200
C 	C 	0.08220 0.06990 0.53700 -0.11000
C 	C 	0.10390 0.07750 0.50850 0.35600
Zn	Zn	0.53351 0.70388 0.37758 1.19800
O 	O 	0.50606 0.72674 0.40817 -0.46500
N 	N 	0.50189 0.68106 0.34918 -0.26100
N 	N 	0.56070 0.67317 0.40260 -0.27100
N 	N 	0.47630 0.65382 0.31164 -0.26800
C 	C 	0.49873 0.75900 0.45477 -0.10600
O 	O 	0.54767 0.75635 0.42434 -0.34400
C 	C 	0.51950 0.74759 0.42656 0.34500
C 	C 	0.50086 0.65396 0.33275 0.22000
C 	C 	0.58100 0.67400 0.42797 0.24000
N 	N 	0.47700 0.69910 0.33800 -0.06000
N 	N 	0.58310 0.69870 0.44870 -0.36800
H 	H 	0.59370 0.69640 0.46640 0.18700
H 	H 	0.57390 0.71680 0.44430 0.17500
N 	N 	0.52360 0.63010 0.33450 -0.35500
H 	H 	0.54000 0.63230 0.34700 0.16000
H 	H 	0.52150 0.61290 0.32300 0.17600
N 	N 	0.59430 0.64616 0.43327 -0.26300
N 	N 	0.58290 0.62670 0.40920 -0.06500
N 	N 	0.46150 0.68260 0.31700 -0.06500
C 	C 	0.50857 0.78604 0.47221 0.04600
H 	H 	0.52680 0.79770 0.46600 0.04100
O 	O 	0.59640 0.60260 0.49220 -0.46600
N 	N 	0.56490 0.64300 0.39080 -0.07500
C 	C 	0.55670 0.58960 0.54350 0.05300
H 	H 	0.55250 0.60760 0.53070 0.04400
O 	O 	0.62790 0.56050 0.50310 -0.31200
C 	C 	0.58220 0.56990 0.53700 -0.11000
C 	C 	0.60390 0.57750 0.50850 0.35600
Zn	Zn	0.53351 0.20388 0.87758 1.19800
O 	O 	0.50606 0.22674 0.90817 -0.46500
N 	N 	0.50189 0.18106 0.84918 -0.26100
N 	N 	0.56070 0.17317 0.90260 -0.27100
N 	N 	0.47630 0.15382 0.81164 -0.26800
C 	C 	0.49873 0.25900 0.95477 -0.10600
O 	O 	0.54767 0.25635 0.92434 -0.34400
C 	C 	0.51950 0.24759 0.92656 0.34500
C 	C 	0.50086 0.15396 0.83275 0.22000
C 	C 	0.58100 0.17400 0.92797 0.24000
N 	N 	0.47700 0.19910 0.83800 -0.06000
N 	N 	0.58310 0.19870 0.94870 -0.36800
H 	H 	0.59370 0.19640 0.96640 0.18700
H 	H 	0.57390 0.21680 0.94430 0.17500
N 	N 	0.52360 0.13010 0.83450 -0.35500
H 	H 	0.54000 0.13230 0.84700 0.16000
H 	H 	0.52150 0.11290 0.82300 0.17600
N 	N 	0.59430 0.14616 0.93327 -0.26300
N 	N 	0.58290 0.12670 0.90920 -0.06500
N 	N 	0.46150 0.18260 0.81700 -0.06500
C 	C 	0.50857 0.28604 0.97221 0.04600
H 	H 	0.52680 0.29770 0.96600 0.04100
O 	O 	0.59640 0.10260 0.99220 -0.46600
N 	N 	0.56490 0.14300 0.89080 -0.07500
C 	C 	0.55670 0.08960 0.04350 0.05300
H 	H 	0.55250 0.10760 0.03070 0.04400
O 	O 	0.62790 0.06050 0.00310 -0.31200
C 	C 	0.58220 0.06990 0.03700 -0.11000
C 	C 	0.60390 0.07750 0.00850 0.35600
Zn	Zn	0.03351 0.54612 0.37242 1.19800
O 	O 	0.00606 0.52326 0.34183 -0.46500
N 	N 	0.00189 0.56894 0.40082 -0.26100
N 	N 	0.06070 0.57683 0.34740 -0.27100
N 	N 	0.97630 0.59618 0.43836 -0.26800
C 	C 	0.99873 0.49100 0.29523 -0.10600
O 	O 	0.04767 0.49365 0.32566 -0.34400
C 	C 	0.01950 0.50241 0.32344 0.34500
C 	C 	0.00086 0.59604 0.41725 0.22000
C 	C 	0.08100 0.57600 0.32203 0.24000
N 	N 	0.97700 0.55090 0.41200 -0.06000
N 	N 	0.08310 0.55130 0.30130 -0.36800
H 	H 	0.09370 0.55360 0.28360 0.18700
H 	H 	0.07390 0.53320 0.30570 0.17500
N 	N 	0.02360 0.61990 0.41550 -0.35500
H 	H 	0.04000 0.61770 0.40300 0.16000
H 	H 	0.02150 0.63710 0.42700 0.17600
N 	N 	0.09430 0.60384 0.31673 -0.26300
N 	N 	0.08290 0.62330 0.34080 -0.06500
N 	N 	0.96150 0.56740 0.43300 -0.06500
C 	C 	0.00857 0.46396 0.27779 0.04600
H 	H 	0.02680 0.45230 0.28400 0.04100
O 	O 	0.09640 0.64740 0.25780 -0.46600
N 	N 	0.06490 0.60700 0.35920 -0.07500
C 	C 	0.05670 0.66040 0.20650 0.05300
H 	H 	0.05250 0.64240 0.21930 0.04400
O 	O 	0.12790 0.68950 0.24690 -0.31200
C 	C 	0.08220 0.68010 0.21300 -0.11000
C 	C 	0.10390 0.67250 0.24150 0.35600
Zn	Zn	0.03351 0.04612 0.87242 1.19800
O 	O 	0.00606 0.02326 0.84183 -0.46500
N 	N 	0.00189 0.06894 0.90082 -0.26100
N 	N 	0.06070 0.07683 0.84740 -0.27100
N 	N 	0.97630 0.09618 0.93836 -0.26800
C 	C 	0.99873 0.99100 0.79523 -0.10600
O 	O 	0.04767 0.99365 0.82566 -0.34400
C 	C 	0.01950 0.00241 0.82344 0.34500
C 	C 	0.00086 0.09604 0.91725 0.22000
C 	C 	0.08100 0.07600 0.82203 0.24000
N 	N 	0.97700 0.05090 0.91200 -0.06000
N 	N 	0.08310 0.05130 0.80130 -0.36800
H 	H 	0.09370 0.05360 0.78360 0.18700
H 	H 	0.07390 0.03320 0.80570 0.17500
N 	N 	0.02360 0.11990 0.91550 -0.35500
H 	H 	0.04000 0.11770 0.90300 0.16000
H 	H 	0.02150 0.13710 0.92700 0.17600
N 	N 	0.09430 0.10384 0.81673 -0.26300
N 	N 	0.08290 0.12330 0.84080 -0.06500
N 	N 	0.96150 0.06740 0.93300 -0.06500
C 	C 	0.00857 0.96396 0.77779 0.04600
H 	H 	0.02680 0.95230 0.78400 0.04100
O 	O 	0.09640 0.14740 0.75780 -0.46600
N 	N 	0.06490 0.10700 0.85920 -0.07500
C 	C 	0.05670 0.16040 0.70650 0.05300
H 	H 	0.05250 0.14240 0.71930 0.04400
O 	O 	0.12790 0.18950 0.74690 -0.31200
C 	C 	0.08220 0.18010 0.71300 -0.11000
C 	C 	0.10390 0.17250 0.74150 0.35600
Zn	Zn	0.53351 0.54612 0.87242 1.19800
O 	O 	0.50606 0.52326 0.84183 -0.46500
N 	N 	0.50189 0.56894 0.90082 -0.26100
N 	N 	0.56070 0.57683 0.84740 -0.27100
N 	N 	0.47630 0.59618 0.93836 -0.26800
C 	C 	0.49873 0.49100 0.79523 -0.10600
O 	O 	0.54767 0.49365 0.82566 -0.34400
C 	C 	0.51950 0.50241 0.82344 0.34500
C 	C 	0.50086 0.59604 0.91725 0.22000
C 	C 	0.58100 0.57600 0.82203 0.24000
N 	N 	0.47700 0.55090 0.91200 -0.06000
N 	N 	0.58310 0.55130 0.80130 -0.36800
H 	H 	0.59370 0.55360 0.78360 0.18700
H 	H 	0.57390 0.53320 0.80570 0.17500
N 	N 	0.52360 0.61990 0.91550 -0.35500
H 	H 	0.54000 0.61770 0.90300 0.16000
H 	H 	0.52150 0.63710 0.92700 0.17600
N 	N 	0.59430 0.60384 0.81673 -0.26300
N 	N 	0.58290 0.62330 0.84080 -0.06500
N 	N 	0.46150 0.56740 0.93300 -0.06500
C 	C 	0.50857 0.46396 0.77779 0.04600
H 	H 	0.52680 0.45230 0.78400 0.04100
O 	O 	0.59640 0.64740 0.75780 -0.46600
N 	N 	0.56490 0.60700 0.85920 -0.07500
C 	C 	0.55670 0.66040 0.70650 0.05300
H 	H 	0.55250 0.64240 0.71930 0.04400
O 	O 	0.62790 0.68950 0.74690 -0.31200
C 	C 	0.58220 0.68010 0.71300 -0.11000
C 	C 	0.60390 0.67250 0.74150 0.35600
Zn	Zn	0.53351 0.04612 0.37242 1.19800
O 	O 	0.50606 0.02326 0.34183 -0.46500
N 	N 	0.50189 0.06894 0.40082 -0.26100
N 	N 	0.56070 0.07683 0.34740 -0.27100
N 	N 	0.47630 0.09618 0.43836 -0.26800
C 	C 	0.49873 0.99100 0.29523 -0.10600
O 	O 	0.54767 0.99365 0.32566 -0.34400
C 	C 	0.51950 0.00241 0.32344 0.34500
C 	C 	0.50086 0.09604 0.41725 0.22000
C 	C 	0.58100 0.07600 0.32203 0.24000
N 	N 	0.47700 0.05090 0.41200 -0.06000
N 	N 	0.58310 0.05130 0.30130 -0.36800
H 	H 	0.59370 0.05360 0.28360 0.18700
H 	H 	0.57390 0.03320 0.30570 0.17500
N 	N 	0.52360 0.11990 0.41550 -0.35500
H 	H 	0.54000 0.11770 0.40300 0.16000
H 	H 	0.52150 0.13710 0.42700 0.17600
N 	N 	0.59430 0.10384 0.31673 -0.26300
N 	N 	0.58290 0.12330 0.34080 -0.06500
N 	N 	0.46150 0.06740 0.43300 -0.06500
C 	C 	0.50857 0.96396 0.27779 0.04600
H 	H 	0.52680 0.95230 0.28400 0.04100
O 	O 	0.59640 0.14740 0.25780 -0.46600
N 	N 	0.56490 0.10700 0.35920 -0.07500
C 	C 	0.55670 0.16040 0.20650 0.05300
H 	H 	0.55250 0.14240 0.21930 0.04400
O 	O 	0.62790 0.18950 0.24690 -0.31200
C 	C 	0.58220 0.18010 0.21300 -0.11000
C 	C 	0.60390 0.17250 0.24150 0.35600
Zn	Zn	0.21649 0.54612 0.87758 1.19800
O 	O 	0.24394 0.52326 0.90817 -0.46500
N 	N 	0.24811 0.56894 0.84918 -0.26100
N 	N 	0.18930 0.57683 0.90260 -0.27100
N 	N 	0.27370 0.59618 0.81164 -0.26800
C 	C 	0.25127 0.49100 0.95477 -0.10600
O 	O 	0.20233 0.49365 0.92434 -0.34400
C 	C 	0.23050 0.50241 0.92656 0.34500
C 	C 	0.24914 0.59604 0.83275 0.22000
C 	C 	0.16900 0.57600 0.92797 0.24000
N 	N 	0.27300 0.55090 0.83800 -0.06000
N 	N 	0.16690 0.55130 0.94870 -0.36800
H 	H 	0.15630 0.55360 0.96640 0.18700
H 	H 	0.17610 0.53320 0.94430 0.17500
N 	N 	0.22640 0.61990 0.83450 -0.35500
H 	H 	0.21000 0.61770 0.84700 0.16000
H 	H 	0.22850 0.63710 0.82300 0.17600
N 	N 	0.15570 0.60384 0.93327 -0.26300
N 	N 	0.16710 0.62330 0.90920 -0.06500
N 	N 	0.28850 0.56740 0.81700 -0.06500
C 	C 	0.24143 0.46396 0.97221 0.04600
H 	H 	0.22320 0.45230 0.96600 0.04100
O 	O 	0.15360 0.64740 0.99220 -0.46600
N 	N 	0.18510 0.60700 0.89080 -0.07500
C 	C 	0.19330 0.66040 0.04350 0.05300
H 	H 	0.19750 0.64240 0.03070 0.04400
O 	O 	0.12210 0.68950 0.00310 -0.31200
C 	C 	0.16780 0.68010 0.03700 -0.11000
C 	C 	0.14610 0.67250 0.00850 0.35600
Zn	Zn	0.21649 0.04612 0.37758 1.19800
O 	O 	0.24394 0.02326 0.40817 -0.46500
N 	N 	0.24811 0.06894 0.34918 -0.26100
N 	N 	0.18930 0.07683 0.40260 -0.27100
N 	N 	0.27370 0.09618 0.31164 -0.26800
C 	C 	0.25127 0.99100 0.45477 -0.10600
O 	O 	0.20233 0.99365 0.42434 -0.34400
C 	C 	0.23050 0.00241 0.42656 0.34500
C 	C 	0.24914 0.09604 0.33275 0.22000
C 	C 	0.16900 0.07600 0.42797 0.24000
N 	N 	0.27300 0.05090 0.33800 -0.06000
N 	N 	0.16690 0.05130 0.44870 -0.36800
H 	H 	0.15630 0.05360 0.46640 0.18700
H 	H 	0.17610 0.03320 0.44430 0.17500
N 	N 	0.22640 0.11990 0.33450 -0.35500
H 	H 	0.21000 0.11770 0.34700 0.16000
H 	H 	0.22850 0.13710 0.32300 0.17600
N 	N 	0.15570 0.10384 0.43327 -0.26300
N 	N 	0.16710 0.12330 0.40920 -0.06500
N 	N 	0.28850 0.06740 0.31700 -0.06500
C 	C 	0.24143 0.96396 0.47221 0.04600
H 	H 	0.22320 0.95230 0.46600 0.04100
O 	O 	0.15360 0.14740 0.49220 -0.46600
N 	N 	0.18510 0.10700 0.39080 -0.07500
C 	C 	0.19330 0.16040 0.54350 0.05300
H 	H 	0.19750 0.14240 0.53070 0.04400
O 	O 	0.12210 0.18950 0.50310 -0.31200
C 	C 	0.16780 0.18010 0.53700 -0.11000
C 	C 	0.14610 0.17250 0.50850 0.35600
Zn	Zn	0.71649 0.54612 0.37758 1.19800
O 	O 	0.74394 0.52326 0.40817 -0.46500
N 	N 	0.74811 0.56894 0.34918 -0.26100
N 	N 	0.68930 0.57683 0.40260 -0.27100
N 	N 	0.77370 0.59618 0.31164 -0.26800
C 	C 	0.75127 0.49100 0.45477 -0.10600
O 	O 	0.70233 0.49365 0.42434 -0.34400
C 	C 	0.73050 0.50241 0.42656 0.34500
C 	C 	0.74914 0.59604 0.33275 0.22000
C 	C 	0.66900 0.57600 0.42797 0.24000
N 	N 	0.77300 0.55090 0.33800 -0.06000
N 	N 	0.66690 0.55130 0.44870 -0.36800
H 	H 	0.65630 0.55360 0.46640 0.18700
H 	H 	0.67610 0.53320 0.44430 0.17500
N 	N 	0.72640 0.61990 0.33450 -0.35500
H 	H 	0.71000 0.61770 0.34700 0.16000
H 	H 	0.72850 0.63710 0.32300 0.17600
N 	N 	0.65570 0.60384 0.43327 -0.26300
N 	N 	0.66710 0.62330 0.40920 -0.06500
N 	N 	0.78850 0.56740 0.31700 -0.06500
C 	C 	0.74143 0.46396 0.47221 0.04600
H 	H 	0.72320 0.45230 0.46600 0.04100
O 	O 	0.65360 0.64740 0.49220 -0.46600
N 	N 	0.68510 0.60700 0.39080 -0.07500
C 	C 	0.69330 0.66040 0.54350 0.05300
H 	H 	0.69750 0.64240 0.53070 0.04400
O 	O 	0.62210 0.68950 0.50310 -0.31200
C 	C 	0.66780 0.68010 0.53700 -0.11000
C 	C 	0.64610 0.67250 0.50850 0.35600
Zn	Zn	0.71649 0.04612 0.87758 1.19800
O 	O 	0.74394 0.02326 0.90817 -0.46500
N 	N 	0.74811 0.06894 0.84918 -0.26100
N 	N 	0.68930 0.07683 0.90260 -0.27100
N 	N 	0.77370 0.09618 0.81164 -0.26800
C 	C 	0.75127 0.99100 0.95477 -0.10600
O 	O 	0.70233 0.99365 0.92434 -0.34400
C 	C 	0.73050 0.00241 0.92656 0.34500
C 	C 	0.74914 0.09604 0.83275 0.22000
C 	C 	0.66900 0.07600 0.92797 0.24000
N 	N 	0.77300 0.05090 0.83800 -0.06000
N 	N 	0.66690 0.05130 0.94870 -0.36800
H 	H 	0.65630 0.05360 0.96640 0.18700
H 	H 	0.67610 0.03320 0.94430 0.17500
N 	N 	0.72640 0.11990 0.83450 -0.35500
H 	H 	0.71000 0.11770 0.84700 0.16000
H 	H 	0.72850 0.13710 0.82300 0.17600
N 	N 	0.65570 0.10384 0.93327 -0.26300
N 	N 	0.66710 0.12330 0.90920 -0.06500
N 	N 	0.78850 0.06740 0.81700 -0.06500
C 	C 	0.74143 0.96396 0.97221 0.04600
H 	H 	0.72320 0.95230 0.96600 0.04100
O 	O 	0.65360 0.14740 0.99220 -0.46600
N 	N 	0.68510 0.10700 0.89080 -0.07500
C 	C 	0.69330 0.16040 0.04350 0.05300
H 	H 	0.69750 0.14240 0.03070 0.04400
O 	O 	0.62210 0.18950 0.00310 -0.31200
C 	C 	0.66780 0.18010 0.03700 -0.11000
C 	C 	0.64610 0.17250 0.00850 0.35600
Zn	Zn	0.21649 0.70388 0.37242 1.19800
O 	O 	0.24394 0.72674 0.34183 -0.46500
N 	N 	0.24811 0.68106 0.40082 -0.26100
N 	N 	0.18930 0.67317 0.34740 -0.27100
N 	N 	0.27370 0.65382 0.43836 -0.26800
C 	C 	0.25127 0.75900 0.29523 -0.10600
O 	O 	0.20233 0.75635 0.32566 -0.34400
C 	C 	0.23050 0.74759 0.32344 0.34500
C 	C 	0.24914 0.65396 0.41725 0.22000
C 	C 	0.16900 0.67400 0.32203 0.24000
N 	N 	0.27300 0.69910 0.41200 -0.06000
N 	N 	0.16690 0.69870 0.30130 -0.36800
H 	H 	0.15630 0.69640 0.28360 0.18700
H 	H 	0.17610 0.71680 0.30570 0.17500
N 	N 	0.22640 0.63010 0.41550 -0.35500
H 	H 	0.21000 0.63230 0.40300 0.16000
H 	H 	0.22850 0.61290 0.42700 0.17600
N 	N 	0.15570 0.64616 0.31673 -0.26300
N 	N 	0.16710 0.62670 0.34080 -0.06500
N 	N 	0.28850 0.68260 0.43300 -0.06500
C 	C 	0.24143 0.78604 0.27779 0.04600
H 	H 	0.22320 0.79770 0.28400 0.04100
O 	O 	0.15360 0.60260 0.25780 -0.46600
N 	N 	0.18510 0.64300 0.35920 -0.07500
C 	C 	0.19330 0.58960 0.20650 0.05300
H 	H 	0.19750 0.60760 0.21930 0.04400
O 	O 	0.12210 0.56050 0.24690 -0.31200
C 	C 	0.16780 0.56990 0.21300 -0.11000
C 	C 	0.14610 0.57750 0.24150 0.35600
Zn	Zn	0.21649 0.20388 0.87242 1.19800
O 	O 	0.24394 0.22674 0.84183 -0.46500
N 	N 	0.24811 0.18106 0.90082 -0.26100
N 	N 	0.18930 0.17317 0.84740 -0.27100
N 	N 	0.27370 0.15382 0.93836 -0.26800
C 	C 	0.25127 0.25900 0.79523 -0.10600
O 	O 	0.20233 0.25635 0.82566 -0.34400
C 	C 	0.23050 0.24759 0.82344 0.34500
C 	C 	0.24914 0.15396 0.91725 0.22000
C 	C 	0.16900 0.17400 0.82203 0.24000
N 	N 	0.27300 0.19910 0.91200 -0.06000
N 	N 	0.16690 0.19870 0.80130 -0.36800
H 	H 	0.15630 0.19640 0.78360 0.18700
H 	H 	0.17610 0.21680 0.80570 0.17500
N 	N 	0.22640 0.13010 0.91550 -0.35500
H 	H 	0.21000 0.13230 0.90300 0.16000
H 	H 	0.22850 0.11290 0.92700 0.17600
N 	N 	0.15570 0.14616 0.81673 -0.26300
N 	N 	0.16710 0.12670 0.84080 -0.06500
N 	N 	0.28850 0.18260 0.93300 -0.06500
C 	C 	0.24143 0.28604 0.77779 0.04600
H 	H 	0.22320 0.29770 0.78400 0.04100
O 	O 	0.15360 0.10260 0.75780 -0.46600
N 	N 	0.18510 0.14300 0.85920 -0.07500
C 	C 	0.19330 0.08960 0.70650 0.05300
H 	H 	0.19750 0.10760 0.71930 0.04400
O 	O 	0.12210 0.06050 0.74690 -0.31200
C 	C 	0.16780 0.06990 0.71300 -0.11000
C 	C 	0.14610 0.07750 0.74150 0.35600
Zn	Zn	0.71649 0.70388 0.87242 1.19800
O 	O 	0.74394 0.72674 0.84183 -0.46500
N 	N 	0.74811 0.68106 0.90082 -0.26100
N 	N 	0.68930 0.67317 0.84740 -0.27100
N 	N 	0.77370 0.65382 0.93836 -0.26800
C 	C 	0.75127 0.75900 0.79523 -0.10600
O 	O 	0.70233 0.75635 0.82566 -0.34400
C 	C 	0.73050 0.74759 0.82344 0.34500
C 	C 	0.74914 0.65396 0.91725 0.22000
C 	C 	0.66900 0.67400 0.82203 0.24000
N 	N 	0.77300 0.69910 0.91200 -0.06000
N 	N 	0.66690 0.69870 0.80130 -0.36800
H 	H 	0.65630 0.69640 0.78360 0.18700
H 	H 	0.67610 0.71680 0.80570 0.17500
N 	N 	0.72640 0.63010 0.91550 -0.35500
H 	H 	0.71000 0.63230 0.90300 0.16000
H 	H 	0.72850 0.61290 0.92700 0.17600
N 	N 	0.65570 0.64616 0.81673 -0.26300
N 	N 	0.66710 0.62670 0.84080 -0.06500
N 	N 	0.78850 0.68260 0.93300 -0.06500
C 	C 	0.74143 0.78604 0.77779 0.04600
H 	H 	0.72320 0.79770 0.78400 0.04100
O 	O 	0.65360 0.60260 0.75780 -0.46600
N 	N 	0.68510 0.64300 0.85920 -0.07500
C 	C 	0.69330 0.58960 0.70650 0.05300
H 	H 	0.69750 0.60760 0.71930 0.04400
O 	O 	0.62210 0.56050 0.74690 -0.31200
C 	C 	0.66780 0.56990 0.71300 -0.11000
C 	C 	0.64610 0.57750 0.74150 0.35600
Zn	Zn	0.71649 0.20388 0.37242 1.19800
O 	O 	0.74394 0.22674 0.34183 -0.46500
N 	N 	0.74811 0.18106 0.40082 -0.26100
N 	N 	0.68930 0.17317 0.34740 -0.27100
N 	N 	0.77370 0.15382 0.43836 -0.26800
C 	C 	0.75127 0.25900 0.29523 -0.10600
O 	O 	0.70233 0.25635 0.32566 -0.34400
C 	C 	0.73050 0.24759 0.32344 0.34500
C 	C 	0.74914 0.15396 0.41725 0.22000
C 	C 	0.66900 0.17400 0.32203 0.24000
N 	N 	0.77300 0.19910 0.41200 -0.06000
N 	N 	0.66690 0.19870 0.30130 -0.36800
H 	H 	0.65630 0.19640 0.28360 0.18700
H 	H 	0.67610 0.21680 0.30570 0.17500
N 	N 	0.72640 0.13010 0.41550 -0.35500
H 	H 	0.71000 0.13230 0.40300 0.16000
H 	H 	0.72850 0.11290 0.42700 0.17600
N 	N 	0.65570 0.14616 0.31673 -0.26300
N 	N 	0.66710 0.12670 0.34080 -0.06500
N 	N 	0.78850 0.18260 0.43300 -0.06500
C 	C 	0.74143 0.28604 0.27779 0.04600
H 	H 	0.72320 0.29770 0.28400 0.04100
O 	O 	0.65360 0.10260 0.25780 -0.46600
N 	N 	0.68510 0.14300 0.35920 -0.07500
C 	C 	0.69330 0.08960 0.20650 0.05300
H 	H 	0.69750 0.10760 0.21930 0.04400
O 	O 	0.62210 0.06050 0.24690 -0.31200
C 	C 	0.66780 0.06990 0.21300 -0.11000
C 	C 	0.64610 0.07750 0.24150 0.35600
Zn	Zn	0.87758 0.03351 0.70388 1.19800
O 	O 	0.90817 0.00606 0.72674 -0.46500
N 	N 	0.84918 0.00189 0.68106 -0.26100
N 	N 	0.90260 0.06070 0.67317 -0.27100
N 	N 	0.81164 0.97630 0.65382 -0.26800
C 	C 	0.95477 0.99873 0.75900 -0.10600
O 	O 	0.92434 0.04767 0.75635 -0.34400
C 	C 	0.92656 0.01950 0.74759 0.34500
C 	C 	0.83275 0.00086 0.65396 0.22000
C 	C 	0.92797 0.08100 0.67400 0.24000
N 	N 	0.83800 0.97700 0.69910 -0.06000
N 	N 	0.94870 0.08310 0.69870 -0.36800
H 	H 	0.96640 0.09370 0.69640 0.18700
H 	H 	0.94430 0.07390 0.71680 0.17500
N 	N 	0.83450 0.02360 0.63010 -0.35500
H 	H 	0.84700 0.04000 0.63230 0.16000
H 	H 	0.82300 0.02150 0.61290 0.17600
N 	N 	0.93327 0.09430 0.64616 -0.26300
N 	N 	0.90920 0.08290 0.62670 -0.06500
N 	N 	0.81700 0.96150 0.68260 -0.06500
C 	C 	0.97221 0.00857 0.78604 0.04600
H 	H 	0.96600 0.02680 0.79770 0.04100
O 	O 	0.99220 0.09640 0.60260 -0.46600
N 	N 	0.89080 0.06490 0.64300 -0.07500
C 	C 	0.04350 0.05670 0.58960 0.05300
H 	H 	0.03070 0.05250 0.60760 0.04400
O 	O 	0.00310 0.12790 0.56050 -0.31200
C 	C 	0.03700 0.08220 0.56990 -0.11000
C 	C 	0.00850 0.10390 0.57750 0.35600
Zn	Zn	0.87758 0.53351 0.20388 1.19800
O 	O 	0.90817 0.50606 0.22674 -0.46500
N 	N 	0.84918 0.50189 0.18106 -0.26100
N 	N 	0.90260 0.56070 0.17317 -0.27100
N 	N 	0.81164 0.47630 0.15382 -0.26800
C 	C 	0.95477 0.49873 0.25900 -0.10600
O 	O 	0.92434 0.54767 0.25635 -0.34400
C 	C 	0.92656 0.51950 0.24759 0.34500
C 	C 	0.83275 0.50086 0.15396 0.22000
C 	C 	0.92797 0.58100 0.17400 0.24000
N 	N 	0.83800 0.47700 0.19910 -0.06000
N 	N 	0.94870 0.58310 0.19870 -0.36800
H 	H 	0.96640 0.59370 0.19640 0.18700
H 	H 	0.94430 0.57390 0.21680 0.17500
N 	N 	0.83450 0.52360 0.13010 -0.35500
H 	H 	0.84700 0.54000 0.13230 0.16000
H 	H 	0.82300 0.52150 0.11290 0.17600
N 	N 	0.93327 0.59430 0.14616 -0.26300
N 	N 	0.90920 0.58290 0.12670 -0.06500
N 	N 	0.81700 0.46150 0.18260 -0.06500
C 	C 	0.97221 0.50857 0.28604 0.04600
H 	H 	0.96600 0.52680 0.29770 0.04100
O 	O 	0.99220 0.59640 0.10260 -0.46600
N 	N 	0.89080 0.56490 0.14300 -0.07500
C 	C 	0.04350 0.55670 0.08960 0.05300
H 	H 	0.03070 0.55250 0.10760 0.04400
O 	O 	0.00310 0.62790 0.06050 -0.31200
C 	C 	0.03700 0.58220 0.06990 -0.11000
C 	C 	0.00850 0.60390 0.07750 0.35600
Zn	Zn	0.37758 0.03351 0.20388 1.19800
O 	O 	0.40817 0.00606 0.22674 -0.46500
N 	N 	0.34918 0.00189 0.18106 -0.26100
N 	N 	0.40260 0.06070 0.17317 -0.27100
N 	N 	0.31164 0.97630 0.15382 -0.26800
C 	C 	0.45477 0.99873 0.25900 -0.10600
O 	O 	0.42434 0.04767 0.25635 -0.34400
C 	C 	0.42656 0.01950 0.24759 0.34500
C 	C 	0.33275 0.00086 0.15396 0.22000
C 	C 	0.42797 0.08100 0.17400 0.24000
N 	N 	0.33800 0.97700 0.19910 -0.06000
N 	N 	0.44870 0.08310 0.19870 -0.36800
H 	H 	0.46640 0.09370 0.19640 0.18700
H 	H 	0.44430 0.07390 0.21680 0.17500
N 	N 	0.33450 0.02360 0.13010 -0.35500
H 	H 	0.34700 0.04000 0.13230 0.16000
H 	H 	0.32300 0.02150 0.11290 0.17600
N 	N 	0.43327 0.09430 0.14616 -0.26300
N 	N 	0.40920 0.08290 0.12670 -0.06500
N 	N 	0.31700 0.96150 0.18260 -0.06500
C 	C 	0.47221 0.00857 0.28604 0.04600
H 	H 	0.46600 0.02680 0.29770 0.04100
O 	O 	0.49220 0.09640 0.10260 -0.46600
N 	N 	0.39080 0.06490 0.14300 -0.07500
C 	C 	0.54350 0.05670 0.08960 0.05300
H 	H 	0.53070 0.05250 0.10760 0.04400
O 	O 	0.50310 0.12790 0.06050 -0.31200
C 	C 	0.53700 0.08220 0.06990 -0.11000
C 	C 	0.50850 0.10390 0.07750 0.35600
Zn	Zn	0.37758 0.53351 0.70388 1.19800
O 	O 	0.40817 0.50606 0.72674 -0.46500
N 	N 	0.34918 0.50189 0.68106 -0.26100
N 	N 	0.40260 0.56070 0.67317 -0.27100
N 	N 	0.31164 0.47630 0.65382 -0.26800
C 	C 	0.45477 0.49873 0.75900 -0.10600
O 	O 	0.42434 0.54767 0.75635 -0.34400
C 	C 	0.42656 0.51950 0.74759 0.34500
C 	C 	0.33275 0.50086 0.65396 0.22000
C 	C 	0.42797 0.58100 0.67400 0.24000
N 	N 	0.33800 0.47700 0.69910 -0.06000
N 	N 	0.44870 0.58310 0.69870 -0.36800
H 	H 	0.46640 0.59370 0.69640 0.18700
H 	H 	0.44430 0.57390 0.71680 0.17500
N 	N 	0.33450 0.52360 0.63010 -0.35500
H 	H 	0.34700 0.54000 0.63230 0.16000
H 	H 	0.32300 0.52150 0.61290 0.17600
N 	N 	0.43327 0.59430 0.64616 -0.26300
N 	N 	0.40920 0.58290 0.62670 -0.06500
N 	N 	0.31700 0.46150 0.68260 -0.06500
C 	C 	0.47221 0.50857 0.78604 0.04600
H 	H 	0.46600 0.52680 0.79770 0.04100
O 	O 	0.49220 0.59640 0.60260 -0.46600
N 	N 	0.39080 0.56490 0.64300 -0.07500
C 	C 	0.54350 0.55670 0.58960 0.05300
H 	H 	0.53070 0.55250 0.60760 0.04400
O 	O 	0.50310 0.62790 0.56050 -0.31200
C 	C 	0.53700 0.58220 0.56990 -0.11000
C 	C 	0.50850 0.60390 0.57750 0.35600
Zn	Zn	0.37242 0.03351 0.54612 1.19800
O 	O 	0.34183 0.00606 0.52326 -0.46500
N 	N 	0.40082 0.00189 0.56894 -0.26100
N 	N 	0.34740 0.06070 0.57683 -0.27100
N 	N 	0.43836 0.97630 0.59618 -0.26800
C 	C 	0.29523 0.99873 0.49100 -0.10600
O 	O 	0.32566 0.04767 0.49365 -0.34400
C 	C 	0.32344 0.01950 0.50241 0.34500
C 	C 	0.41725 0.00086 0.59604 0.22000
C 	C 	0.32203 0.08100 0.57600 0.24000
N 	N 	0.41200 0.97700 0.55090 -0.06000
N 	N 	0.30130 0.08310 0.55130 -0.36800
H 	H 	0.28360 0.09370 0.55360 0.18700
H 	H 	0.30570 0.07390 0.53320 0.17500
N 	N 	0.41550 0.02360 0.61990 -0.35500
H 	H 	0.40300 0.04000 0.61770 0.16000
H 	H 	0.42700 0.02150 0.63710 0.17600
N 	N 	0.31673 0.09430 0.60384 -0.26300
N 	N 	0.34080 0.08290 0.62330 -0.06500
N 	N 	0.43300 0.96150 0.56740 -0.06500
C 	C 	0.27779 0.00857 0.46396 0.04600
H 	H 	0.28400 0.02680 0.45230 0.04100
O 	O 	0.25780 0.09640 0.64740 -0.46600
N 	N 	0.35920 0.06490 0.60700 -0.07500
C 	C 	0.20650 0.05670 0.66040 0.05300
H 	H 	0.21930 0.05250 0.64240 0.04400
O 	O 	0.24690 0.12790 0.68950 -0.31200
C 	C 	0.21300 0.08220 0.68010 -0.11000
C 	C 	0.24150 0.10390 0.67250 0.35600
Zn	Zn	0.37242 0.53351 0.04612 1.19800
O 	O 	0.34183 0.50606 0.02326 -0.46500
N 	N 	0.40082 0.50189 0.06894 -0.26100
N 	N 	0.34740 0.56070 0.07683 -0.27100
N 	N 	0.43836 0.47630 0.09618 -0.26800
C 	C 	0.29523 0.49873 0.99100 -0.10600
O 	O 	0.32566 0.54767 0.99365 -0.34400
C 	C 	0.32344 0.51950 0.00241 0.34500
C 	C 	0.41725 0.50086 0.09604 0.22000
C 	C 	0.32203 0.58100 0.07600 0.24000
N 	N 	0.41200 0.47700 0.05090 -0.06000
N 	N 	0.30130 0.58310 0.05130 -0.36800
H 	H 	0.28360 0.59370 0.05360 0.18700
H 	H 	0.30570 0.57390 0.03320 0.17500
N 	N 	0.41550 0.52360 0.11990 -0.35500
H 	H 	0.40300 0.54000 0.11770 0.16000
H 	H 	0.42700 0.52150 0.13710 0.17600
N 	N 	0.31673 0.59430 0.10384 -0.26300
N 	N 	0.34080 0.58290 0.12330 -0.06500
N 	N 	0.43300 0.46150 0.06740 -0.06500
C 	C 	0.27779 0.50857 0.96396 0.04600
H 	H 	0.28400 0.52680 0.95230 0.04100
O 	O 	0.25780 0.59640 0.14740 -0.46600
N 	N 	0.35920 0.56490 0.10700 -0.07500
C 	C 	0.20650 0.55670 0.16040 0.05300
H 	H 	0.21930 0.55250 0.14240 0.04400
O 	O 	0.24690 0.62790 0.18950 -0.31200
C 	C 	0.21300 0.58220 0.18010 -0.11000
C 	C 	0.24150 0.60390 0.17250 0.35600
Zn	Zn	0.87242 0.03351 0.04612 1.19800
O 	O 	0.84183 0.00606 0.02326 -0.46500
N 	N 	0.90082 0.00189 0.06894 -0.26100
N 	N 	0.84740 0.06070 0.07683 -0.27100
N 	N 	0.93836 0.97630 0.09618 -0.26800
C 	C 	0.79523 0.99873 0.99100 -0.10600
O 	O 	0.82566 0.04767 0.99365 -0.34400
C 	C 	0.82344 0.01950 0.00241 0.34500
C 	C 	0.91725 0.00086 0.09604 0.22000
C 	C 	0.82203 0.08100 0.07600 0.24000
N 	N 	0.91200 0.97700 0.05090 -0.06000
N 	N 	0.80130 0.08310 0.05130 -0.36800
H 	H 	0.78360 0.09370 0.05360 0.18700
H 	H 	0.80570 0.07390 0.03320 0.17500
N 	N 	0.91550 0.02360 0.11990 -0.35500
H 	H 	0.90300 0.04000 0.11770 0.16000
H 	H 	0.92700 0.02150 0.13710 0.17600
N 	N 	0.81673 0.09430 0.10384 -0.26300
N 	N 	0.84080 0.08290 0.12330 -0.06500
N 	N 	0.93300 0.96150 0.06740 -0.06500
C 	C 	0.77779 0.00857 0.96396 0.04600
H 	H 	0.78400 0.02680 0.95230 0.04100
O 	O 	0.75780 0.09640 0.14740 -0.46600
N 	N 	0.85920 0.06490 0.10700 -0.07500
C 	C 	0.70650 0.05670 0.16040 0.05300
H 	H 	0.71930 0.05250 0.14240 0.04400
O 	O 	0.74690 0.12790 0.18950 -0.31200
C 	C 	0.71300 0.08220 0.18010 -0.11000
C 	C 	0.74150 0.10390 0.17250 0.35600
Zn	Zn	0.87242 0.53351 0.54612 1.19800
O 	O 	0.84183 0.50606 0.52326 -0.46500
N 	N 	0.90082 0.50189 0.56894 -0.26100
N 	N 	0.84740 0.56070 0.57683 -0.27100
N 	N 	0.93836 0.47630 0.59618 -0.26800
C 	C 	0.79523 0.49873 0.49100 -0.10600
O 	O 	0.82566 0.54767 0.49365 -0.34400
C 	C 	0.82344 0.51950 0.50241 0.34500
C 	C 	0.91725 0.50086 0.59604 0.22000
C 	C 	0.82203 0.58100 0.57600 0.24000
N 	N 	0.91200 0.47700 0.55090 -0.06000
N 	N 	0.80130 0.58310 0.55130 -0.36800
H 	H 	0.78360 0.59370 0.55360 0.18700
H 	H 	0.80570 0.57390 0.53320 0.17500
N 	N 	0.91550 0.52360 0.61990 -0.35500
H 	H 	0.90300 0.54000 0.61770 0.16000
H 	H 	0.92700 0.52150 0.63710 0.17600
N 	N 	0.81673 0.59430 0.60384 -0.26300
N 	N 	0.84080 0.58290 0.62330 -0.06500
N 	N 	0.93300 0.46150 0.56740 -0.06500
C 	C 	0.77779 0.50857 0.46396 0.04600
H 	H 	0.78400 0.52680 0.45230 0.04100
O 	O 	0.75780 0.59640 0.64740 -0.46600
N 	N 	0.85920 0.56490 0.60700 -0.07500
C 	C 	0.70650 0.55670 0.66040 0.05300
H 	H 	0.71930 0.55250 0.64240 0.04400
O 	O 	0.74690 0.62790 0.68950 -0.31200
C 	C 	0.71300 0.58220 0.68010 -0.11000
C 	C 	0.74150 0.60390 0.67250 0.35600
Zn	Zn	0.87758 0.21649 0.54612 1.19800
O 	O 	0.90817 0.24394 0.52326 -0.46500
N 	N 	0.84918 0.24811 0.56894 -0.26100
N 	N 	0.90260 0.18930 0.57683 -0.27100
N 	N 	0.81164 0.27370 0.59618 -0.26800
C 	C 	0.95477 0.25127 0.49100 -0.10600
O 	O 	0.92434 0.20233 0.49365 -0.34400
C 	C 	0.92656 0.23050 0.50241 0.34500
C 	C 	0.83275 0.24914 0.59604 0.22000
C 	C 	0.92797 0.16900 0.57600 0.24000
N 	N 	0.83800 0.27300 0.55090 -0.06000
N 	N 	0.94870 0.16690 0.55130 -0.36800
H 	H 	0.96640 0.15630 0.55360 0.18700
H 	H 	0.94430 0.17610 0.53320 0.17500
N 	N 	0.83450 0.22640 0.61990 -0.35500
H 	H 	0.84700 0.21000 0.61770 0.16000
H 	H 	0.82300 0.22850 0.63710 0.17600
N 	N 	0.93327 0.15570 0.60384 -0.26300
N 	N 	0.90920 0.16710 0.62330 -0.06500
N 	N 	0.81700 0.28850 0.56740 -0.06500
C 	C 	0.97221 0.24143 0.46396 0.04600
H 	H 	0.96600 0.22320 0.45230 0.04100
O 	O 	0.99220 0.15360 0.64740 -0.46600
N 	N 	0.89080 0.18510 0.60700 -0.07500
C 	C 	0.04350 0.19330 0.66040 0.05300
H 	H 	0.03070 0.19750 0.64240 0.04400
O 	O 	0.00310 0.12210 0.68950 -0.31200
C 	C 	0.03700 0.16780 0.68010 -0.11000
C 	C 	0.00850 0.14610 0.67250 0.35600
Zn	Zn	0.87758 0.71649 0.04612 1.19800
O 	O 	0.90817 0.74394 0.02326 -0.46500
N 	N 	0.84918 0.74811 0.06894 -0.26100
N 	N 	0.90260 0.68930 0.07683 -0.27100
N 	N 	0.81164 0.77370 0.09618 -0.26800
C 	C 	0.95477 0.75127 0.99100 -0.10600
O 	O 	0.92434 0.70233 0.99365 -0.34400
C 	C 	0.92656 0.73050 0.00241 0.34500
C 	C 	0.83275 0.74914 0.09604 0.22000
C 	C 	0.92797 0.66900 0.07600 0.24000
N 	N 	0.83800 0.77300 0.05090 -0.06000
N 	N 	0.94870 0.66690 0.05130 -0.36800
H 	H 	0.96640 0.65630 0.05360 0.18700
H 	H 	0.94430 0.67610 0.03320 0.17500
N 	N 	0.83450 0.72640 0.11990 -0.35500
H 	H 	0.84700 0.71000 0.11770 0.16000
H 	H 	0.82300 0.72850 0.13710 0.17600
N 	N 	0.93327 0.65570 0.10384 -0.26300
N 	N 	0.90920 0.66710 0.12330 -0.06500
N 	N 	0.81700 0.78850 0.06740 -0.06500
C 	C 	0.97221 0.74143 0.96396 0.04600
H 	H 	0.96600 0.72320 0.95230 0.04100
O 	O 	0.99220 0.65360 0.14740 -0.46600
N 	N 	0.89080 0.68510 0.10700 -0.07500
C 	C 	0.04350 0.69330 0.16040 0.05300
H 	H 	0.03070 0.69750 0.14240 0.04400
O 	O 	0.00310 0.62210 0.18950 -0.31200
C 	C 	0.03700 0.66780 0.18010 -0.11000
C 	C 	0.00850 0.64610 0.17250 0.35600
Zn	Zn	0.37758 0.21649 0.04612 1.19800
O 	O 	0.40817 0.24394 0.02326 -0.46500
N 	N 	0.34918 0.24811 0.06894 -0.26100
N 	N 	0.40260 0.18930 0.07683 -0.27100
N 	N 	0.31164 0.27370 0.09618 -0.26800
C 	C 	0.45477 0.25127 0.99100 -0.10600
O 	O 	0.42434 0.20233 0.99365 -0.34400
C 	C 	0.42656 0.23050 0.00241 0.34500
C 	C 	0.33275 0.24914 0.09604 0.22000
C 	C 	0.42797 0.16900 0.07600 0.24000
N 	N 	0.33800 0.27300 0.05090 -0.06000
N 	N 	0.44870 0.16690 0.05130 -0.36800
H 	H 	0.46640 0.15630 0.05360 0.18700
H 	H 	0.44430 0.17610 0.03320 0.17500
N 	N 	0.33450 0.22640 0.11990 -0.35500
H 	H 	0.34700 0.21000 0.11770 0.16000
H 	H 	0.32300 0.22850 0.13710 0.17600
N 	N 	0.43327 0.15570 0.10384 -0.26300
N 	N 	0.40920 0.16710 0.12330 -0.06500
N 	N 	0.31700 0.28850 0.06740 -0.06500
C 	C 	0.47221 0.24143 0.96396 0.04600
H 	H 	0.46600 0.22320 0.95230 0.04100
O 	O 	0.49220 0.15360 0.14740 -0.46600
N 	N 	0.39080 0.18510 0.10700 -0.07500
C 	C 	0.54350 0.19330 0.16040 0.05300
H 	H 	0.53070 0.19750 0.14240 0.04400
O 	O 	0.50310 0.12210 0.18950 -0.31200
C 	C 	0.53700 0.16780 0.18010 -0.11000
C 	C 	0.50850 0.14610 0.17250 0.35600
Zn	Zn	0.37758 0.71649 0.54612 1.19800
O 	O 	0.40817 0.74394 0.52326 -0.46500
N 	N 	0.34918 0.74811 0.56894 -0.26100
N 	N 	0.40260 0.68930 0.57683 -0.27100
N 	N 	0.31164 0.77370 0.59618 -0.26800
C 	C 	0.45477 0.75127 0.49100 -0.10600
O 	O 	0.42434 0.70233 0.49365 -0.34400
C 	C 	0.42656 0.73050 0.50241 0.34500
C 	C 	0.33275 0.74914 0.59604 0.22000
C 	C 	0.42797 0.66900 0.57600 0.24000
N 	N 	0.33800 0.77300 0.55090 -0.06000
N 	N 	0.44870 0.66690 0.55130 -0.36800
H 	H 	0.46640 0.65630 0.55360 0.18700
H 	H 	0.44430 0.67610 0.53320 0.17500
N 	N 	0.33450 0.72640 0.61990 -0.35500
H 	H 	0.34700 0.71000 0.61770 0.16000
H 	H 	0.32300 0.72850 0.63710 0.17600
N 	N 	0.43327 0.65570 0.60384 -0.26300
N 	N 	0.40920 0.66710 0.62330 -0.06500
N 	N 	0.31700 0.78850 0.56740 -0.06500
C 	C 	0.47221 0.74143 0.46396 0.04600
H 	H 	0.46600 0.72320 0.45230 0.04100
O 	O 	0.49220 0.65360 0.64740 -0.46600
N 	N 	0.39080 0.68510 0.60700 -0.07500
C 	C 	0.54350 0.69330 0.66040 0.05300
H 	H 	0.53070 0.69750 0.64240 0.04400
O 	O 	0.50310 0.62210 0.68950 -0.31200
C 	C 	0.53700 0.66780 0.68010 -0.11000
C 	C 	0.50850 0.64610 0.67250 0.35600
Zn	Zn	0.37242 0.21649 0.70388 1.19800
O 	O 	0.34183 0.24394 0.72674 -0.46500
N 	N 	0.40082 0.24811 0.68106 -0.26100
N 	N 	0.34740 0.18930 0.67317 -0.27100
N 	N 	0.43836 0.27370 0.65382 -0.26800
C 	C 	0.29523 0.25127 0.75900 -0.10600
O 	O 	0.32566 0.20233 0.75635 -0.34400
C 	C 	0.32344 0.23050 0.74759 0.34500
C 	C 	0.41725 0.24914 0.65396 0.22000
C 	C 	0.32203 0.16900 0.67400 0.24000
N 	N 	0.41200 0.27300 0.69910 -0.06000
N 	N 	0.30130 0.16690 0.69870 -0.36800
H 	H 	0.28360 0.15630 0.69640 0.18700
H 	H 	0.30570 0.17610 0.71680 0.17500
N 	N 	0.41550 0.22640 0.63010 -0.35500
H 	H 	0.40300 0.21000 0.63230 0.16000
H 	H 	0.42700 0.22850 0.61290 0.17600
N 	N 	0.31673 0.15570 0.64616 -0.26300
N 	N 	0.34080 0.16710 0.62670 -0.06500
N 	N 	0.43300 0.28850 0.68260 -0.06500
C 	C 	0.27779 0.24143 0.78604 0.04600
H 	H 	0.28400 0.22320 0.79770 0.04100
O 	O 	0.25780 0.15360 0.60260 -0.46600
N 	N 	0.35920 0.18510 0.64300 -0.07500
C 	C 	0.20650 0.19330 0.58960 0.05300
H 	H 	0.21930 0.19750 0.60760 0.04400
O 	O 	0.24690 0.12210 0.56050 -0.31200
C 	C 	0.21300 0.16780 0.56990 -0.11000
C 	C 	0.24150 0.14610 0.57750 0.35600
Zn	Zn	0.37242 0.71649 0.20388 1.19800
O 	O 	0.34183 0.74394 0.22674 -0.46500
N 	N 	0.40082 0.74811 0.18106 -0.26100
N 	N 	0.34740 0.68930 0.17317 -0.27100
N 	N 	0.43836 0.77370 0.15382 -0.26800
C 	C 	0.29523 0.75127 0.25900 -0.10600
O 	O 	0.32566 0.70233 0.25635 -0.34400
C 	C 	0.32344 0.73050 0.24759 0.34500
C 	C 	0.41725 0.74914 0.15396 0.22000
C 	C 	0.32203 0.66900 0.17400 0.24000
N 	N 	0.41200 0.77300 0.19910 -0.06000
N 	N 	0.30130 0.66690 0.19870 -0.36800
H 	H 	0.28360 0.65630 0.19640 0.18700
H 	H 	0.30570 0.67610 0.21680 0.17500
N 	N 	0.41550 0.72640 0.13010 -0.35500
H 	H 	0.40300 0.71000 0.13230 0.16000
H 	H 	0.42700 0.72850 0.11290 0.17600
N 	N 	0.31673 0.65570 0.14616 -0.26300
N 	N 	0.34080 0.66710 0.12670 -0.06500
N 	N 	0.43300 0.78850 0.18260 -0.06500
C 	C 	0.27779 0.74143 0.28604 0.04600
H 	H 	0.28400 0.72320 0.29770 0.04100
O 	O 	0.25780 0.65360 0.10260 -0.46600
N 	N 	0.35920 0.68510 0.14300 -0.07500
C 	C 	0.20650 0.69330 0.08960 0.05300
H 	H 	0.21930 0.69750 0.10760 0.04400
O 	O 	0.24690 0.62210 0.06050 -0.31200
C 	C 	0.21300 0.66780 0.06990 -0.11000
C 	C 	0.24150 0.64610 0.07750 0.35600
Zn	Zn	0.87242 0.21649 0.20388 1.19800
O 	O 	0.84183 0.24394 0.22674 -0.46500
N 	N 	0.90082 0.24811 0.18106 -0.26100
N 	N 	0.84740 0.18930 0.17317 -0.27100
N 	N 	0.93836 0.27370 0.15382 -0.26800
C 	C 	0.79523 0.25127 0.25900 -0.10600
O 	O 	0.82566 0.20233 0.25635 -0.34400
C 	C 	0.82344 0.23050 0.24759 0.34500
C 	C 	0.91725 0.24914 0.15396 0.22000
C 	C 	0.82203 0.16900 0.17400 0.24000
N 	N 	0.91200 0.27300 0.19910 -0.06000
N 	N 	0.80130 0.16690 0.19870 -0.36800
H 	H 	0.78360 0.15630 0.19640 0.18700
H 	H 	0.80570 0.17610 0.21680 0.17500
N 	N 	0.91550 0.22640 0.13010 -0.35500
H 	H 	0.90300 0.21000 0.13230 0.16000
H 	H 	0.92700 0.22850 0.11290 0.17600
N 	N 	0.81673 0.15570 0.14616 -0.26300
N 	N 	0.84080 0.16710 0.12670 -0.06500
N 	N 	0.93300 0.28850 0.18260 -0.06500
C 	C 	0.77779 0.24143 0.28604 0.04600
H 	H 	0.78400 0.22320 0.29770 0.04100
O 	O 	0.75780 0.15360 0.10260 -0.46600
N 	N 	0.85920 0.18510 0.14300 -0.07500
C 	C 	0.70650 0.19330 0.08960 0.05300
H 	H 	0.71930 0.19750 0.10760 0.04400
O 	O 	0.74690 0.12210 0.06050 -0.31200
C 	C 	0.71300 0.16780 0.06990 -0.11000
C 	C 	0.74150 0.14610 0.07750 0.35600
Zn	Zn	0.87242 0.71649 0.70388 1.19800
O 	O 	0.84183 0.74394 0.72674 -0.46500
N 	N 	0.90082 0.74811 0.68106 -0.26100
N 	N 	0.84740 0.68930 0.67317 -0.27100
N 	N 	0.93836 0.77370 0.65382 -0.26800
C 	C 	0.79523 0.75127 0.75900 -0.10600
O 	O 	0.82566 0.70233 0.75635 -0.34400
C 	C 	0.82344 0.73050 0.74759 0.34500
C 	C 	0.91725 0.74914 0.65396 0.22000
C 	C 	0.82203 0.66900 0.67400 0.24000
N 	N 	0.91200 0.77300 0.69910 -0.06000
N 	N 	0.80130 0.66690 0.69870 -0.36800
H 	H 	0.78360 0.65630 0.69640 0.18700
H 	H 	0.80570 0.67610 0.71680 0.17500
N 	N 	0.91550 0.72640 0.63010 -0.35500
H 	H 	0.90300 0.71000 0.63230 0.16000
H 	H 	0.92700 0.72850 0.61290 0.17600
N 	N 	0.81673 0.65570 0.64616 -0.26300
N 	N 	0.84080 0.66710 0.62670 -0.06500
N 	N 	0.93300 0.78850 0.68260 -0.06500
C 	C 	0.77779 0.74143 0.78604 0.04600
H 	H 	0.78400 0.72320 0.79770 0.04100
O 	O 	0.75780 0.65360 0.60260 -0.46600
N 	N 	0.85920 0.68510 0.64300 -0.07500
C 	C 	0.70650 0.69330 0.58960 0.05300
H 	H 	0.71930 0.69750 0.60760 0.04400
O 	O 	0.74690 0.62210 0.56050 -0.31200
C 	C 	0.71300 0.66780 0.56990 -0.11000
C 	C 	0.74150 0.64610 0.57750 0.35600
Zn	Zn	0.29612 0.12242 0.96649 1.19800
O 	O 	0.27326 0.09183 0.99394 -0.46500
N 	N 	0.31894 0.15082 0.99811 -0.26100
N 	N 	0.32683 0.09740 0.93930 -0.27100
N 	N 	0.34618 0.18836 0.02370 -0.26800
C 	C 	0.24100 0.04523 0.00127 -0.10600
O 	O 	0.24365 0.07566 0.95233 -0.34400
C 	C 	0.25241 0.07344 0.98050 0.34500
C 	C 	0.34604 0.16725 0.99914 0.22000
C 	C 	0.32600 0.07203 0.91900 0.24000
N 	N 	0.30090 0.16200 0.02300 -0.06000
N 	N 	0.30130 0.05130 0.91690 -0.36800
H 	H 	0.30360 0.03360 0.90630 0.18700
H 	H 	0.28320 0.05570 0.92610 0.17500
N 	N 	0.36990 0.16550 0.97640 -0.35500
H 	H 	0.36770 0.15300 0.96000 0.16000
H 	H 	0.38710 0.17700 0.97850 0.17600
N 	N 	0.35384 0.06673 0.90570 -0.26300
N 	N 	0.37330 0.09080 0.91710 -0.06500
N 	N 	0.31740 0.18300 0.03850 -0.06500
C 	C 	0.21396 0.02779 0.99143 0.04600
H 	H 	0.20230 0.03400 0.97320 0.04100
O 	O 	0.39740 0.00780 0.90360 -0.46600
N 	N 	0.35700 0.10920 0.93510 -0.07500
C 	C 	0.41040 0.95650 0.94330 0.05300
H 	H 	0.39240 0.96930 0.94750 0.04400
O 	O 	0.43950 0.99690 0.87210 -0.31200
C 	C 	0.43010 0.96300 0.91780 -0.11000
C 	C 	0.42250 0.99150 0.89610 0.35600
Zn	Zn	0.29612 0.62242 0.46649 1.19800
O 	O 	0.27326 0.59183 0.49394 -0.46500
N 	N 	0.31894 0.65082 0.49811 -0.26100
N 	N 	0.32683 0.59740 0.43930 -0.27100
N 	N 	0.34618 0.68836 0.52370 -0.26800
C 	C 	0.24100 0.54523 0.50127 -0.10600
O 	O 	0.24365 0.57566 0.45233 -0.34400
C 	C 	0.25241 0.57344 0.48050 0.34500
C 	C 	0.34604 0.66725 0.49914 0.22000
C 	C 	0.32600 0.57203 0.41900 0.24000
N 	N 	0.30090 0.66200 0.52300 -0.06000
N 	N 	0.30130 0.55130 0.41690 -0.36800
H 	H 	0.30360 0.53360 0.40630 0.18700
H 	H 	0.28320 0.55570 0.42610 0.17500
N 	N 	0.36990 0.66550 0.47640 -0.35500
H 	H 	0.36770 0.65300 0.46000 0.16000
H 	H 	0.38710 0.67700 0.47850 0.17600
N 	N 	0.35384 0.56673 0.40570 -0.26300
N 	N 	0.37330 0.59080 0.41710 -0.06500
N 	N 	0.31740 0.68300 0.53850 -0.06500
C 	C 	0.21396 0.52779 0.49143 0.04600
H 	H 	0.20230 0.53400 0.47320 0.04100
O 	O 	0.39740 0.50780 0.40360 -0.46600
N 	N 	0.35700 0.60920 0.43510 -0.07500
C 	C 	0.41040 0.45650 0.44330 0.05300
H 	H 	0.39240 0.46930 0.44750 0.04400
O 	O 	0.43950 0.49690 0.37210 -0.31200
C 	C 	0.43010 0.46300 0.41780 -0.11000
C 	C 	0.42250 0.49150 0.39610 0.35600
Zn	Zn	0.79612 0.12242 0.46649 1.19800
O 	O 	0.77326 0.09183 0.49394 -0.46500
N 	N 	0.81894 0.15082 0.49811 -0.26100
N 	N 	0.82683 0.09740 0.43930 -0.27100
N 	N 	0.84618 0.18836 0.52370 -0.26800
C 	C 	0.74100 0.04523 0.50127 -0.10600
O 	O 	0.74365 0.07566 0.45233 -0.34400
C 	C 	0.75241 0.07344 0.48050 0.34500
C 	C 	0.84604 0.16725 0.49914 0.22000
C 	C 	0.82600 0.07203 0.41900 0.24000
N 	N 	0.80090 0.16200 0.52300 -0.06000
N 	N 	0.80130 0.05130 0.41690 -0.36800
H 	H 	0.80360 0.03360 0.40630 0.18700
H 	H 	0.78320 0.05570 0.42610 0.17500
N 	N 	0.86990 0.16550 0.47640 -0.35500
H 	H 	0.86770 0.15300 0.46000 0.16000
H 	H 	0.88710 0.17700 0.47850 0.17600
N 	N 	0.85384 0.06673 0.40570 -0.26300
N 	N 	0.87330 0.09080 0.41710 -0.06500
N 	N 	0.81740 0.18300 0.53850 -0.06500
C 	C 	0.71396 0.02779 0.49143 0.04600
H 	H 	0.70230 0.03400 0.47320 0.04100
O 	O 	0.89740 0.00780 0.40360 -0.46600
N 	N 	0.85700 0.10920 0.43510 -0.07500
C 	C 	0.91040 0.95650 0.44330 0.05300
H 	H 	0.89240 0.96930 0.44750 0.04400
O 	O 	0.93950 0.99690 0.37210 -0.31200
C 	C 	0.93010 0.96300 0.41780 -0.11000
C 	C 	0.92250 0.99150 0.39610 0.35600
Zn	Zn	0.79612 0.62242 0.96649 1.19800
O 	O 	0.77326 0.59183 0.99394 -0.46500
N 	N 	0.81894 0.65082 0.99811 -0.26100
N 	N 	0.82683 0.59740 0.93930 -0.27100
N 	N 	0.84618 0.68836 0.02370 -0.26800
C 	C 	0.74100 0.54523 0.00127 -0.10600
O 	O 	0.74365 0.57566 0.95233 -0.34400
C 	C 	0.75241 0.57344 0.98050 0.34500
C 	C 	0.84604 0.66725 0.99914 0.22000
C 	C 	0.82600 0.57203 0.91900 0.24000
N 	N 	0.80090 0.66200 0.02300 -0.06000
N 	N 	0.80130 0.55130 0.91690 -0.36800
H 	H 	0.80360 0.53360 0.90630 0.18700
H 	H 	0.78320 0.55570 0.92610 0.17500
N 	N 	0.86990 0.66550 0.97640 -0.35500
H 	H 	0.86770 0.65300 0.96000 0.16000
H 	H 	0.88710 0.67700 0.97850 0.17600
N 	N 	0.85384 0.56673 0.90570 -0.26300
N 	N 	0.87330 0.59080 0.91710 -0.06500
N 	N 	0.81740 0.68300 0.03850 -0.06500
C 	C 	0.71396 0.52779 0.99143 0.04600
H 	H 	0.70230 0.53400 0.97320 0.04100
O 	O 	0.89740 0.50780 0.90360 -0.46600
N 	N 	0.85700 0.60920 0.93510 -0.07500
C 	C 	0.91040 0.45650 0.94330 0.05300
H 	H 	0.89240 0.46930 0.94750 0.04400
O 	O 	0.93950 0.49690 0.87210 -0.31200
C 	C 	0.93010 0.46300 0.91780 -0.11000
C 	C 	0.92250 0.49150 0.89610 0.35600
Zn	Zn	0.45388 0.62758 0.96649 1.19800
O 	O 	0.47674 0.65817 0.99394 -0.46500
N 	N 	0.43106 0.59918 0.99811 -0.26100
N 	N 	0.42317 0.65260 0.93930 -0.27100
N 	N 	0.40382 0.56164 0.02370 -0.26800
C 	C 	0.50900 0.70477 0.00127 -0.10600
O 	O 	0.50635 0.67434 0.95233 -0.34400
C 	C 	0.49759 0.67656 0.98050 0.34500
C 	C 	0.40396 0.58275 0.99914 0.22000
C 	C 	0.42400 0.67797 0.91900 0.24000
N 	N 	0.44910 0.58800 0.02300 -0.06000
N 	N 	0.44870 0.69870 0.91690 -0.36800
H 	H 	0.44640 0.71640 0.90630 0.18700
H 	H 	0.46680 0.69430 0.92610 0.17500
N 	N 	0.38010 0.58450 0.97640 -0.35500
H 	H 	0.38230 0.59700 0.96000 0.16000
H 	H 	0.36290 0.57300 0.97850 0.17600
N 	N 	0.39616 0.68327 0.90570 -0.26300
N 	N 	0.37670 0.65920 0.91710 -0.06500
N 	N 	0.43260 0.56700 0.03850 -0.06500
C 	C 	0.53604 0.72221 0.99143 0.04600
H 	H 	0.54770 0.71600 0.97320 0.04100
O 	O 	0.35260 0.74220 0.90360 -0.46600
N 	N 	0.39300 0.64080 0.93510 -0.07500
C 	C 	0.33960 0.79350 0.94330 0.05300
H 	H 	0.35760 0.78070 0.94750 0.04400
O 	O 	0.31050 0.75310 0.87210 -0.31200
C 	C 	0.31990 0.78700 0.91780 -0.11000
C 	C 	0.32750 0.75850 0.89610 0.35600
Zn	Zn	0.45388 0.12758 0.46649 1.19800
O 	O 	0.47674 0.15817 0.49394 -0.46500
N 	N 	0.43106 0.09918 0.49811 -0.26100
N 	N 	0.42317 0.15260 0.43930 -0.27100
N 	N 	0.40382 0.06164 0.52370 -0.26800
C 	C 	0.50900 0.20477 0.50127 -0.10600
O 	O 	0.50635 0.17434 0.45233 -0.34400
C 	C 	0.49759 0.17656 0.48050 0.34500
C 	C 	0.40396 0.08275 0.49914 0.22000
C 	C 	0.42400 0.17797 0.41900 0.24000
N 	N 	0.44910 0.08800 0.52300 -0.06000
N 	N 	0.44870 0.19870 0.41690 -0.36800
H 	H 	0.44640 0.21640 0.40630 0.18700
H 	H 	0.46680 0.19430 0.42610 0.17500
N 	N 	0.38010 0.08450 0.47640 -0.35500
H 	H 	0.38230 0.09700 0.46000 0.16000
H 	H 	0.36290 0.07300 0.47850 0.17600
N 	N 	0.39616 0.18327 0.40570 -0.26300
N 	N 	0.37670 0.15920 0.41710 -0.06500
N 	N 	0.43260 0.06700 0.53850 -0.06500
C 	C 	0.53604 0.22221 0.49143 0.04600
H 	H 	0.54770 0.21600 0.47320 0.04100
O 	O 	0.35260 0.24220 0.40360 -0.46600
N 	N 	0.39300 0.14080 0.43510 -0.07500
C 	C 	0.33960 0.29350 0.44330 0.05300
H 	H 	0.35760 0.28070 0.44750 0.04400
O 	O 	0.31050 0.25310 0.37210 -0.31200
C 	C 	0.31990 0.28700 0.41780 -0.11000
C 	C 	0.32750 0.25850 0.39610 0.35600
Zn	Zn	0.95388 0.62758 0.46649 1.19800
O 	O 	0.97674 0.65817 0.49394 -0.46500
N 	N 	0.93106 0.59918 0.49811 -0.26100
N 	N 	0.92317 0.65260 0.43930 -0.27100
N 	N 	0.90382 0.56164 0.52370 -0.26800
C 	C 	0.00900 0.70477 0.50127 -0.10600
O 	O 	0.00635 0.67434 0.45233 -0.34400
C 	C 	0.99759 0.67656 0.48050 0.34500
C 	C 	0.90396 0.58275 0.49914 0.22000
C 	C 	0.92400 0.67797 0.41900 0.24000
N 	N 	0.94910 0.58800 0.52300 -0.06000
N 	N 	0.94870 0.69870 0.41690 -0.36800
H 	H 	0.94640 0.71640 0.40630 0.18700
H 	H 	0.96680 0.69430 0.42610 0.17500
N 	N 	0.88010 0.58450 0.47640 -0.35500
H 	H 	0.88230 0.59700 0.46000 0.16000
H 	H 	0.86290 0.57300 0.47850 0.17600
N 	N 	0.89616 0.68327 0.40570 -0.26300
N 	N 	0.87670 0.65920 0.41710 -0.06500
N 	N 	0.93260 0.56700 0.53850 -0.06500
C 	C 	0.03604 0.72221 0.49143 0.04600
H 	H 	0.04770 0.71600 0.47320 0.04100
O 	O 	0.85260 0.74220 0.40360 -0.46600
N 	N 	0.89300 0.64080 0.43510 -0.07500
C 	C 	0.83960 0.79350 0.44330 0.05300
H 	H 	0.85760 0.78070 0.44750 0.04400
O 	O 	0.81050 0.75310 0.37210 -0.31200
C 	C 	0.81990 0.78700 0.41780 -0.11000
C 	C 	0.82750 0.75850 0.39610 0.35600
Zn	Zn	0.95388 0.12758 0.96649 1.19800
O 	O 	0.97674 0.15817 0.99394 -0.46500
N 	N 	0.93106 0.09918 0.99811 -0.26100
N 	N 	0.92317 0.15260 0.93930 -0.27100
N 	N 	0.90382 0.06164 0.02370 -0.26800
C 	C 	0.00900 0.20477 0.00127 -0.10600
O 	O 	0.00635 0.17434 0.95233 -0.34400
C 	C 	0.99759 0.17656 0.98050 0.34500
C 	C 	0.90396 0.08275 0.99914 0.22000
C 	C 	0.92400 0.17797 0.91900 0.24000
N 	N 	0.94910 0.08800 0.02300 -0.06000
N 	N 	0.94870 0.19870 0.91690 -0.36800
H 	H 	0.94640 0.21640 0.90630 0.18700
H 	H 	0.96680 0.19430 0.92610 0.17500
N 	N 	0.88010 0.08450 0.97640 -0.35500
H 	H 	0.88230 0.09700 0.96000 0.16000
H 	H 	0.86290 0.07300 0.97850 0.17600
N 	N 	0.89616 0.18327 0.90570 -0.26300
N 	N 	0.87670 0.15920 0.91710 -0.06500
N 	N 	0.93260 0.06700 0.03850 -0.06500
C 	C 	0.03604 0.22221 0.99143 0.04600
H 	H 	0.04770 0.21600 0.97320 0.04100
O 	O 	0.85260 0.24220 0.90360 -0.46600
N 	N 	0.89300 0.14080 0.93510 -0.07500
C 	C 	0.83960 0.29350 0.94330 0.05300
H 	H 	0.85760 0.28070 0.94750 0.04400
O 	O 	0.81050 0.25310 0.87210 -0.31200
C 	C 	0.81990 0.28700 0.91780 -0.11000
C 	C 	0.82750 0.25850 0.89610 0.35600
Zn	Zn	0.45388 0.12242 0.78351 1.19800
O 	O 	0.47674 0.09183 0.75606 -0.46500
N 	N 	0.43106 0.15082 0.75189 -0.26100
N 	N 	0.42317 0.09740 0.81070 -0.27100
N 	N 	0.40382 0.18836 0.72630 -0.26800
C 	C 	0.50900 0.04523 0.74873 -0.10600
O 	O 	0.50635 0.07566 0.79767 -0.34400
C 	C 	0.49759 0.07344 0.76950 0.34500
C 	C 	0.40396 0.16725 0.75086 0.22000
C 	C 	0.42400 0.07203 0.83100 0.24000
N 	N 	0.44910 0.16200 0.72700 -0.06000
N 	N 	0.44870 0.05130 0.83310 -0.36800
H 	H 	0.44640 0.03360 0.84370 0.18700
H 	H 	0.46680 0.05570 0.82390 0.17500
N 	N 	0.38010 0.16550 0.77360 -0.35500
H 	H 	0.38230 0.15300 0.79000 0.16000
H 	H 	0.36290 0.17700 0.77150 0.17600
N 	N 	0.39616 0.06673 0.84430 -0.26300
N 	N 	0.37670 0.09080 0.83290 -0.06500
N 	N 	0.43260 0.18300 0.71150 -0.06500
C 	C 	0.53604 0.02779 0.75857 0.04600
H 	H 	0.54770 0.03400 0.77680 0.04100
O 	O 	0.35260 0.00780 0.84640 -0.46600
N 	N 	0.39300 0.10920 0.81490 -0.07500
C 	C 	0.33960 0.95650 0.80670 0.05300
H 	H 	0.35760 0.96930 0.80250 0.04400
O 	O 	0.31050 0.99690 0.87790 -0.31200
C 	C 	0.31990 0.96300 0.83220 -0.11000
C 	C 	0.32750 0.99150 0.85390 0.35600
Zn	Zn	0.45388 0.62242 0.28351 1.19800
O 	O 	0.47674 0.59183 0.25606 -0.46500
N 	N 	0.43106 0.65082 0.25189 -0.26100
N 	N 	0.42317 0.59740 0.31070 -0.27100
N 	N 	0.40382 0.68836 0.22630 -0.26800
C 	C 	0.50900 0.54523 0.24873 -0.10600
O 	O 	0.50635 0.57566 0.29767 -0.34400
C 	C 	0.49759 0.57344 0.26950 0.34500
C 	C 	0.40396 0.66725 0.25086 0.22000
C 	C 	0.42400 0.57203 0.33100 0.24000
N 	N 	0.44910 0.66200 0.22700 -0.06000
N 	N 	0.44870 0.55130 0.33310 -0.36800
H 	H 	0.44640 0.53360 0.34370 0.18700
H 	H 	0.46680 0.55570 0.32390 0.17500
N 	N 	0.38010 0.66550 0.27360 -0.35500
H 	H 	0.38230 0.65300 0.29000 0.16000
H 	H 	0.36290 0.67700 0.27150 0.17600
N 	N 	0.39616 0.56673 0.34430 -0.26300
N 	N 	0.37670 0.59080 0.33290 -0.06500
N 	N 	0.43260 0.68300 0.21150 -0.06500
C 	C 	0.53604 0.52779 0.25857 0.04600
H 	H 	0.54770 0.53400 0.27680 0.04100
O 	O 	0.35260 0.50780 0.34640 -0.46600
N 	N 	0.39300 0.60920 0.31490 -0.07500
C 	C 	0.33960 0.45650 0.30670 0.05300
H 	H 	0.35760 0.46930 0.30250 0.04400
O 	O 	0.31050 0.49690 0.37790 -0.31200
C 	C 	0.31990 0.46300 0.33220 -0.11000
C 	C 	0.32750 0.49150 0.35390 0.35600
Zn	Zn	0.95388 0.12242 0.28351 1.19800
O 	O 	0.97674 0.09183 0.25606 -0.46500
N 	N 	0.93106 0.15082 0.25189 -0.26100
N 	N 	0.92317 0.09740 0.31070 -0.27100
N 	N 	0.90382 0.18836 0.22630 -0.26800
C 	C 	0.00900 0.04523 0.24873 -0.10600
O 	O 	0.00635 0.07566 0.29767 -0.34400
C 	C 	0.99759 0.07344 0.26950 0.34500
C 	C 	0.90396 0.16725 0.25086 0.22000
C 	C 	0.92400 0.07203 0.33100 0.24000
N 	N 	0.94910 0.16200 0.22700 -0.06000
N 	N 	0.94870 0.05130 0.33310 -0.36800
H 	H 	0.94640 0.03360 0.34370 0.18700
H 	H 	0.96680 0.05570 0.32390 0.17500
N 	N 	0.88010 0.16550 0.27360 -0.35500
H 	H 	0.88230 0.15300 0.29000 0.16000
H 	H 	0.86290 0.17700 0.27150 0.17600
N 	N 	0.89616 0.06673 0.34430 -0.26300
N 	N 	0.87670 0.09080 0.33290 -0.06500
N 	N 	0.93260 0.18300 0.21150 -0.06500
C 	C 	0.03604 0.02779 0.25857 0.04600
H 	H 	0.04770 0.03400 0.27680 0.04100
O 	O 	0.85260 0.00780 0.34640 -0.46600
N 	N 	0.89300 0.10920 0.31490 -0.07500
C 	C 	0.83960 0.95650 0.30670 0.05300
H 	H 	0.85760 0.96930 0.30250 0.04400
O 	O 	0.81050 0.99690 0.37790 -0.31200
C 	C 	0.81990 0.96300 0.33220 -0.11000
C 	C 	0.82750 0.99150 0.35390 0.35600
Zn	Zn	0.95388 0.62242 0.78351 1.19800
O 	O 	0.97674 0.59183 0.75606 -0.46500
N 	N 	0.93106 0.65082 0.75189 -0.26100
N 	N 	0.92317 0.59740 0.81070 -0.27100
N 	N 	0.90382 0.68836 0.72630 -0.26800
C 	C 	0.00900 0.54523 0.74873 -0.10600
O 	O 	0.00635 0.57566 0.79767 -0.34400
C 	C 	0.99759 0.57344 0.76950 0.34500
C 	C 	0.90396 0.66725 0.75086 0.22000
C 	C 	0.92400 0.57203 0.83100 0.24000
N 	N 	0.94910 0.66200 0.72700 -0.06000
N 	N 	0.94870 0.55130 0.83310 -0.36800
H 	H 	0.94640 0.53360 0.84370 0.18700
H 	H 	0.96680 0.55570 0.82390 0.17500
N 	N 	0.88010 0.66550 0.77360 -0.35500
H 	H 	0.88230 0.65300 0.79000 0.16000
H 	H 	0.86290 0.67700 0.77150 0.17600
N 	N 	0.89616 0.56673 0.84430 -0.26300
N 	N 	0.87670 0.59080 0.83290 -0.06500
N 	N 	0.93260 0.68300 0.71150 -0.06500
C 	C 	0.03604 0.52779 0.75857 0.04600
H 	H 	0.04770 0.53400 0.77680 0.04100
O 	O 	0.85260 0.50780 0.84640 -0.46600
N 	N 	0.89300 0.60920 0.81490 -0.07500
C 	C 	0.83960 0.45650 0.80670 0.05300
H 	H 	0.85760 0.46930 0.80250 0.04400
O 	O 	0.81050 0.49690 0.87790 -0.31200
C 	C 	0.81990 0.46300 0.83220 -0.11000
C 	C 	0.82750 0.49150 0.85390 0.35600
Zn	Zn	0.29612 0.62758 0.78351 1.19800
O 	O 	0.27326 0.65817 0.75606 -0.46500
N 	N 	0.31894 0.59918 0.75189 -0.26100
N 	N 	0.32683 0.65260 0.81070 -0.27100
N 	N 	0.34618 0.56164 0.72630 -0.26800
C 	C 	0.24100 0.70477 0.74873 -0.10600
O 	O 	0.24365 0.67434 0.79767 -0.34400
C 	C 	0.25241 0.67656 0.76950 0.34500
C 	C 	0.34604 0.58275 0.75086 0.22000
C 	C 	0.32600 0.67797 0.83100 0.24000
N 	N 	0.30090 0.58800 0.72700 -0.06000
N 	N 	0.30130 0.69870 0.83310 -0.36800
H 	H 	0.30360 0.71640 0.84370 0.18700
H 	H 	0.28320 0.69430 0.82390 0.17500
N 	N 	0.36990 0.58450 0.77360 -0.35500
H 	H 	0.36770 0.59700 0.79000 0.16000
H 	H 	0.38710 0.57300 0.77150 0.17600
N 	N 	0.35384 0.68327 0.84430 -0.26300
N 	N 	0.37330 0.65920 0.83290 -0.06500
N 	N 	0.31740 0.56700 0.71150 -0.06500
C 	C 	0.21396 0.72221 0.75857 0.04600
H 	H 	0.20230 0.71600 0.77680 0.04100
O 	O 	0.39740 0.74220 0.84640 -0.46600
N 	N 	0.35700 0.64080 0.81490 -0.07500
C 	C 	0.41040 0.79350 0.80670 0.05300
H 	H 	0.39240 0.78070 0.80250 0.04400
O 	O 	0.43950 0.75310 0.87790 -0.31200
C 	C 	0.43010 0.78700 0.83220 -0.11000
C 	C 	0.42250 0.75850 0.85390 0.35600
Zn	Zn	0.29612 0.12758 0.28351 1.19800
O 	O 	0.27326 0.15817 0.25606 -0.46500
N 	N 	0.31894 0.09918 0.25189 -0.26100
N 	N 	0.32683 0.15260 0.31070 -0.27100
N 	N 	0.34618 0.06164 0.22630 -0.26800
C 	C 	0.24100 0.20477 0.24873 -0.10600
O 	O 	0.24365 0.17434 0.29767 -0.34400
C 	C 	0.25241 0.17656 0.26950 0.34500
C 	C 	0.34604 0.08275 0.25086 0.22000
C 	C 	0.32600 0.17797 0.33100 0.24000
N 	N 	0.30090 0.08800 0.22700 -0.06000
N 	N 	0.30130 0.19870 0.33310 -0.36800
H 	H 	0.30360 0.21640 0.34370 0.18700
H 	H 	0.28320 0.19430 0.32390 0.17500
N 	N 	0.36990 0.08450 0.27360 -0.35500
H 	H 	0.36770 0.09700 0.29000 0.16000
H 	H 	0.38710 0.07300 0.27150 0.17600
N 	N 	0.35384 0.18327 0.34430 -0.26300
N 	N 	0.37330 0.15920 0.33290 -0.06500
N 	N 	0.31740 0.06700 0.21150 -0.06500
C 	C 	0.21396 0.22221 0.25857 0.04600
H 	H 	0.20230 0.21600 0.27680 0.04100
O 	O 	0.39740 0.24220 0.34640 -0.46600
N 	N 	0.35700 0.14080 0.31490 -0.07500
C 	C 	0.41040 0.29350 0.30670 0.05300
H 	H 	0.39240 0.28070 0.30250 0.04400
O 	O 	0.43950 0.25310 0.37790 -0.31200
C 	C 	0.43010 0.28700 0.33220 -0.11000
C 	C 	0.42250 0.25850 0.35390 0.35600
Zn	Zn	0.79612 0.62758 0.28351 1.19800
O 	O 	0.77326 0.65817 0.25606 -0.46500
N 	N 	0.81894 0.59918 0.25189 -0.26100
N 	N 	0.82683 0.65260 0.31070 -0.27100
N 	N 	0.84618 0.56164 0.22630 -0.26800
C 	C 	0.74100 0.70477 0.24873 -0.10600
O 	O 	0.74365 0.67434 0.29767 -0.34400
C 	C 	0.75241 0.67656 0.26950 0.34500
C 	C 	0.84604 0.58275 0.25086 0.22000
C 	C 	0.82600 0.67797 0.33100 0.24000
N 	N 	0.80090 0.58800 0.22700 -0.06000
N 	N 	0.80130 0.69870 0.33310 -0.36800
H 	H 	0.80360 0.71640 0.34370 0.18700
H 	H 	0.78320 0.69430 0.32390 0.17500
N 	N 	0.86990 0.58450 0.27360 -0.35500
H 	H 	0.86770 0.59700 0.29000 0.16000
H 	H 	0.88710 0.57300 0.27150 0.17600
N 	N 	0.85384 0.68327 0.34430 -0.26300
N 	N 	0.87330 0.65920 0.33290 -0.06500
N 	N 	0.81740 0.56700 0.21150 -0.06500
C 	C 	0.71396 0.72221 0.25857 0.04600
H 	H 	0.70230 0.71600 0.27680 0.04100
O 	O 	0.89740 0.74220 0.34640 -0.46600
N 	N 	0.85700 0.64080 0.31490 -0.07500
C 	C 	0.91040 0.79350 0.30670 0.05300
H 	H 	0.89240 0.78070 0.30250 0.04400
O 	O 	0.93950 0.75310 0.37790 -0.31200
C 	C 	0.93010 0.78700 0.33220 -0.11000
C 	C 	0.92250 0.75850 0.35390 0.35600
Zn	Zn	0.79612 0.12758 0.78351 1.19800
O 	O 	0.77326 0.15817 0.75606 -0.46500
N 	N 	0.81894 0.09918 0.75189 -0.26100
N 	N 	0.82683 0.15260 0.81070 -0.27100
N 	N 	0.84618 0.06164 0.72630 -0.26800
C 	C 	0.74100 0.20477 0.74873 -0.10600
O 	O 	0.74365 0.17434 0.79767 -0.34400
C 	C 	0.75241 0.17656 0.76950 0.34500
C 	C 	0.84604 0.08275 0.75086 0.22000
C 	C 	0.82600 0.17797 0.83100 0.24000
N 	N 	0.80090 0.08800 0.72700 -0.06000
N 	N 	0.80130 0.19870 0.83310 -0.36800
H 	H 	0.80360 0.21640 0.84370 0.18700
H 	H 	0.78320 0.19430 0.82390 0.17500
N 	N 	0.86990 0.08450 0.77360 -0.35500
H 	H 	0.86770 0.09700 0.79000 0.16000
H 	H 	0.88710 0.07300 0.77150 0.17600
N 	N 	0.85384 0.18327 0.84430 -0.26300
N 	N 	0.87330 0.15920 0.83290 -0.06500
N 	N 	0.81740 0.06700 0.71150 -0.06500
C 	C 	0.71396 0.22221 0.75857 0.04600
H 	H 	0.70230 0.21600 0.77680 0.04100
O 	O 	0.89740 0.24220 0.84640 -0.46600
N 	N 	0.85700 0.14080 0.81490 -0.07500
C 	C 	0.91040 0.29350 0.80670 0.05300
H 	H 	0.89240 0.28070 0.80250 0.04400
O 	O 	0.93950 0.25310 0.87790 -0.31200
C 	C 	0.93010 0.28700 0.83220 -0.11000
C 	C 	0.92250 0.25850 0.85390 0.35600
Zn	Zn	0.96649 0.29612 0.12242 1.19800
O 	O 	0.99394 0.27326 0.09183 -0.46500
N 	N 	0.99811 0.31894 0.15082 -0.26100
N 	N 	0.93930 0.32683 0.09740 -0.27100
N 	N 	0.02370 0.34618 0.18836 -0.26800
C 	C 	0.00127 0.24100 0.04523 -0.10600
O 	O 	0.95233 0.24365 0.07566 -0.34400
C 	C 	0.98050 0.25241 0.07344 0.34500
C 	C 	0.99914 0.34604 0.16725 0.22000
C 	C 	0.91900 0.32600 0.07203 0.24000
N 	N 	0.02300 0.30090 0.16200 -0.06000
N 	N 	0.91690 0.30130 0.05130 -0.36800
H 	H 	0.90630 0.30360 0.03360 0.18700
H 	H 	0.92610 0.28320 0.05570 0.17500
N 	N 	0.97640 0.36990 0.16550 -0.35500
H 	H 	0.96000 0.36770 0.15300 0.16000
H 	H 	0.97850 0.38710 0.17700 0.17600
N 	N 	0.90570 0.35384 0.06673 -0.26300
N 	N 	0.91710 0.37330 0.09080 -0.06500
N 	N 	0.03850 0.31740 0.18300 -0.06500
C 	C 	0.99143 0.21396 0.02779 0.04600
H 	H 	0.97320 0.20230 0.03400 0.04100
O 	O 	0.90360 0.39740 0.00780 -0.46600
N 	N 	0.93510 0.35700 0.10920 -0.07500
C 	C 	0.94330 0.41040 0.95650 0.05300
H 	H 	0.94750 0.39240 0.96930 0.04400
O 	O 	0.87210 0.43950 0.99690 -0.31200
C 	C 	0.91780 0.43010 0.96300 -0.11000
C 	C 	0.89610 0.42250 0.99150 0.35600
Zn	Zn	0.96649 0.79612 0.62242 1.19800
O 	O 	0.99394 0.77326 0.59183 -0.46500
N 	N 	0.99811 0.81894 0.65082 -0.26100
N 	N 	0.93930 0.82683 0.59740 -0.27100
N 	N 	0.02370 0.84618 0.68836 -0.26800
C 	C 	0.00127 0.74100 0.54523 -0.10600
O 	O 	0.95233 0.74365 0.57566 -0.34400
C 	C 	0.98050 0.75241 0.57344 0.34500
C 	C 	0.99914 0.84604 0.66725 0.22000
C 	C 	0.91900 0.82600 0.57203 0.24000
N 	N 	0.02300 0.80090 0.66200 -0.06000
N 	N 	0.91690 0.80130 0.55130 -0.36800
H 	H 	0.90630 0.80360 0.53360 0.18700
H 	H 	0.92610 0.78320 0.55570 0.17500
N 	N 	0.97640 0.86990 0.66550 -0.35500
H 	H 	0.96000 0.86770 0.65300 0.16000
H 	H 	0.97850 0.88710 0.67700 0.17600
N 	N 	0.90570 0.85384 0.56673 -0.26300
N 	N 	0.91710 0.87330 0.59080 -0.06500
N 	N 	0.03850 0.81740 0.68300 -0.06500
C 	C 	0.99143 0.71396 0.52779 0.04600
H 	H 	0.97320 0.70230 0.53400 0.04100
O 	O 	0.90360 0.89740 0.50780 -0.46600
N 	N 	0.93510 0.85700 0.60920 -0.07500
C 	C 	0.94330 0.91040 0.45650 0.05300
H 	H 	0.94750 0.89240 0.46930 0.04400
O 	O 	0.87210 0.93950 0.49690 -0.31200
C 	C 	0.91780 0.93010 0.46300 -0.11000
C 	C 	0.89610 0.92250 0.49150 0.35600
Zn	Zn	0.46649 0.29612 0.62242 1.19800
O 	O 	0.49394 0.27326 0.59183 -0.46500
N 	N 	0.49811 0.31894 0.65082 -0.26100
N 	N 	0.43930 0.32683 0.59740 -0.27100
N 	N 	0.52370 0.34618 0.68836 -0.26800
C 	C 	0.50127 0.24100 0.54523 -0.10600
O 	O 	0.45233 0.24365 0.57566 -0.34400
C 	C 	0.48050 0.25241 0.57344 0.34500
C 	C 	0.49914 0.34604 0.66725 0.22000
C 	C 	0.41900 0.32600 0.57203 0.24000
N 	N 	0.52300 0.30090 0.66200 -0.06000
N 	N 	0.41690 0.30130 0.55130 -0.36800
H 	H 	0.40630 0.30360 0.53360 0.18700
H 	H 	0.42610 0.28320 0.55570 0.17500
N 	N 	0.47640 0.36990 0.66550 -0.35500
H 	H 	0.46000 0.36770 0.65300 0.16000
H 	H 	0.47850 0.38710 0.67700 0.17600
N 	N 	0.40570 0.35384 0.56673 -0.26300
N 	N 	0.41710 0.37330 0.59080 -0.06500
N 	N 	0.53850 0.31740 0.68300 -0.06500
C 	C 	0.49143 0.21396 0.52779 0.04600
H 	H 	0.47320 0.20230 0.53400 0.04100
O 	O 	0.40360 0.39740 0.50780 -0.46600
N 	N 	0.43510 0.35700 0.60920 -0.07500
C 	C 	0.44330 0.41040 0.45650 0.05300
H 	H 	0.44750 0.39240 0.46930 0.04400
O 	O 	0.37210 0.43950 0.49690 -0.31200
C 	C 	0.41780 0.43010 0.46300 -0.11000
C 	C 	0.39610 0.42250 0.49150 0.35600
Zn	Zn	0.46649 0.79612 0.12242 1.19800
O 	O 	0.49394 0.77326 0.09183 -0.46500
N 	N 	0.49811 0.81894 0.15082 -0.26100
N 	N 	0.43930 0.82683 0.09740 -0.27100
N 	N 	0.52370 0.84618 0.18836 -0.26800
C 	C 	0.50127 0.74100 0.04523 -0.10600
O 	O 	0.45233 0.74365 0.07566 -0.34400
C 	C 	0.48050 0.75241 0.07344 0.34500
C 	C 	0.49914 0.84604 0.16725 0.22000
C 	C 	0.41900 0.82600 0.07203 0.24000
N 	N 	0.52300 0.80090 0.16200 -0.06000
N 	N 	0.41690 0.80130 0.05130 -0.36800
H 	H 	0.40630 0.80360 0.03360 0.18700
H 	H 	0.42610 0.78320 0.05570 0.17500
N 	N 	0.47640 0.86990 0.16550 -0.35500
H 	H 	0.46000 0.86770 0.15300 0.16000
H 	H 	0.47850 0.88710 0.17700 0.17600
N 	N 	0.40570 0.85384 0.06673 -0.26300
N 	N 	0.41710 0.87330 0.09080 -0.06500
N 	N 	0.53850 0.81740 0.18300 -0.06500
C 	C 	0.49143 0.71396 0.02779 0.04600
H 	H 	0.47320 0.70230 0.03400 0.04100
O 	O 	0.40360 0.89740 0.00780 -0.46600
N 	N 	0.43510 0.85700 0.10920 -0.07500
C 	C 	0.44330 0.91040 0.95650 0.05300
H 	H 	0.44750 0.89240 0.96930 0.04400
O 	O 	0.37210 0.93950 0.99690 -0.31200
C 	C 	0.41780 0.93010 0.96300 -0.11000
C 	C 	0.39610 0.92250 0.99150 0.35600
Zn	Zn	0.96649 0.45388 0.62758 1.19800
O 	O 	0.99394 0.47674 0.65817 -0.46500
N 	N 	0.99811 0.43106 0.59918 -0.26100
N 	N 	0.93930 0.42317 0.65260 -0.27100
N 	N 	0.02370 0.40382 0.56164 -0.26800
C 	C 	0.00127 0.50900 0.70477 -0.10600
O 	O 	0.95233 0.50635 0.67434 -0.34400
C 	C 	0.98050 0.49759 0.67656 0.34500
C 	C 	0.99914 0.40396 0.58275 0.22000
C 	C 	0.91900 0.42400 0.67797 0.24000
N 	N 	0.02300 0.44910 0.58800 -0.06000
N 	N 	0.91690 0.44870 0.69870 -0.36800
H 	H 	0.90630 0.44640 0.71640 0.18700
H 	H 	0.92610 0.46680 0.69430 0.17500
N 	N 	0.97640 0.38010 0.58450 -0.35500
H 	H 	0.96000 0.38230 0.59700 0.16000
H 	H 	0.97850 0.36290 0.57300 0.17600
N 	N 	0.90570 0.39616 0.68327 -0.26300
N 	N 	0.91710 0.37670 0.65920 -0.06500
N 	N 	0.03850 0.43260 0.56700 -0.06500
C 	C 	0.99143 0.53604 0.72221 0.04600
H 	H 	0.97320 0.54770 0.71600 0.04100
O 	O 	0.90360 0.35260 0.74220 -0.46600
N 	N 	0.93510 0.39300 0.64080 -0.07500
C 	C 	0.94330 0.33960 0.79350 0.05300
H 	H 	0.94750 0.35760 0.78070 0.04400
O 	O 	0.87210 0.31050 0.75310 -0.31200
C 	C 	0.91780 0.31990 0.78700 -0.11000
C 	C 	0.89610 0.32750 0.75850 0.35600
Zn	Zn	0.96649 0.95388 0.12758 1.19800
O 	O 	0.99394 0.97674 0.15817 -0.46500
N 	N 	0.99811 0.93106 0.09918 -0.26100
N 	N 	0.93930 0.92317 0.15260 -0.27100
N 	N 	0.02370 0.90382 0.06164 -0.26800
C 	C 	0.00127 0.00900 0.20477 -0.10600
O 	O 	0.95233 0.00635 0.17434 -0.34400
C 	C 	0.98050 0.99759 0.17656 0.34500
C 	C 	0.99914 0.90396 0.08275 0.22000
C 	C 	0.91900 0.92400 0.17797 0.24000
N 	N 	0.02300 0.94910 0.08800 -0.06000
N 	N 	0.91690 0.94870 0.19870 -0.36800
H 	H 	0.90630 0.94640 0.21640 0.18700
H 	H 	0.92610 0.96680 0.19430 0.17500
N 	N 	0.97640 0.88010 0.08450 -0.35500
H 	H 	0.96000 0.88230 0.09700 0.16000
H 	H 	0.97850 0.86290 0.07300 0.17600
N 	N 	0.90570 0.89616 0.18327 -0.26300
N 	N 	0.91710 0.87670 0.15920 -0.06500
N 	N 	0.03850 0.93260 0.06700 -0.06500
C 	C 	0.99143 0.03604 0.22221 0.04600
H 	H 	0.97320 0.04770 0.21600 0.04100
O 	O 	0.90360 0.85260 0.24220 -0.46600
N 	N 	0.93510 0.89300 0.14080 -0.07500
C 	C 	0.94330 0.83960 0.29350 0.05300
H 	H 	0.94750 0.85760 0.28070 0.04400
O 	O 	0.87210 0.81050 0.25310 -0.31200
C 	C 	0.91780 0.81990 0.28700 -0.11000
C 	C 	0.89610 0.82750 0.25850 0.35600
Zn	Zn	0.46649 0.45388 0.12758 1.19800
O 	O 	0.49394 0.47674 0.15817 -0.46500
N 	N 	0.49811 0.43106 0.09918 -0.26100
N 	N 	0.43930 0.42317 0.15260 -0.27100
N 	N 	0.52370 0.40382 0.06164 -0.26800
C 	C 	0.50127 0.50900 0.20477 -0.10600
O 	O 	0.45233 0.50635 0.17434 -0.34400
C 	C 	0.48050 0.49759 0.17656 0.34500
C 	C 	0.49914 0.40396 0.08275 0.22000
C 	C 	0.41900 0.42400 0.17797 0.24000
N 	N 	0.52300 0.44910 0.08800 -0.06000
N 	N 	0.41690 0.44870 0.19870 -0.36800
H 	H 	0.40630 0.44640 0.21640 0.18700
H 	H 	0.42610 0.46680 0.19430 0.17500
N 	N 	0.47640 0.38010 0.08450 -0.35500
H 	H 	0.46000 0.38230 0.09700 0.16000
H 	H 	0.47850 0.36290 0.07300 0.17600
N 	N 	0.40570 0.39616 0.18327 -0.26300
N 	N 	0.41710 0.37670 0.15920 -0.06500
N 	N 	0.53850 0.43260 0.06700 -0.06500
C 	C 	0.49143 0.53604 0.22221 0.04600
H 	H 	0.47320 0.54770 0.21600 0.04100
O 	O 	0.40360 0.35260 0.24220 -0.46600
N 	N 	0.43510 0.39300 0.14080 -0.07500
C 	C 	0.44330 0.33960 0.29350 0.05300
H 	H 	0.44750 0.35760 0.28070 0.04400
O 	O 	0.37210 0.31050 0.25310 -0.31200
C 	C 	0.41780 0.31990 0.28700 -0.11000
C 	C 	0.39610 0.32750 0.25850 0.35600
Zn	Zn	0.46649 0.95388 0.62758 1.19800
O 	O 	0.49394 0.97674 0.65817 -0.46500
N 	N 	0.49811 0.93106 0.59918 -0.26100
N 	N 	0.43930 0.92317 0.65260 -0.27100
N 	N 	0.52370 0.90382 0.56164 -0.26800
C 	C 	0.50127 0.00900 0.70477 -0.10600
O 	O 	0.45233 0.00635 0.67434 -0.34400
C 	C 	0.48050 0.99759 0.67656 0.34500
C 	C 	0.49914 0.90396 0.58275 0.22000
C 	C 	0.41900 0.92400 0.67797 0.24000
N 	N 	0.52300 0.94910 0.58800 -0.06000
N 	N 	0.41690 0.94870 0.69870 -0.36800
H 	H 	0.40630 0.94640 0.71640 0.18700
H 	H 	0.42610 0.96680 0.69430 0.17500
N 	N 	0.47640 0.88010 0.58450 -0.35500
H 	H 	0.46000 0.88230 0.59700 0.16000
H 	H 	0.47850 0.86290 0.57300 0.17600
N 	N 	0.40570 0.89616 0.68327 -0.26300
N 	N 	0.41710 0.87670 0.65920 -0.06500
N 	N 	0.53850 0.93260 0.56700 -0.06500
C 	C 	0.49143 0.03604 0.72221 0.04600
H 	H 	0.47320 0.04770 0.71600 0.04100
O 	O 	0.40360 0.85260 0.74220 -0.46600
N 	N 	0.43510 0.89300 0.64080 -0.07500
C 	C 	0.44330 0.83960 0.79350 0.05300
H 	H 	0.44750 0.85760 0.78070 0.04400
O 	O 	0.37210 0.81050 0.75310 -0.31200
C 	C 	0.41780 0.81990 0.78700 -0.11000
C 	C 	0.39610 0.82750 0.75850 0.35600
Zn	Zn	0.78351 0.45388 0.12242 1.19800
O 	O 	0.75606 0.47674 0.09183 -0.46500
N 	N 	0.75189 0.43106 0.15082 -0.26100
N 	N 	0.81070 0.42317 0.09740 -0.27100
N 	N 	0.72630 0.40382 0.18836 -0.26800
C 	C 	0.74873 0.50900 0.04523 -0.10600
O 	O 	0.79767 0.50635 0.07566 -0.34400
C 	C 	0.76950 0.49759 0.07344 0.34500
C 	C 	0.75086 0.40396 0.16725 0.22000
C 	C 	0.83100 0.42400 0.07203 0.24000
N 	N 	0.72700 0.44910 0.16200 -0.06000
N 	N 	0.83310 0.44870 0.05130 -0.36800
H 	H 	0.84370 0.44640 0.03360 0.18700
H 	H 	0.82390 0.46680 0.05570 0.17500
N 	N 	0.77360 0.38010 0.16550 -0.35500
H 	H 	0.79000 0.38230 0.15300 0.16000
H 	H 	0.77150 0.36290 0.17700 0.17600
N 	N 	0.84430 0.39616 0.06673 -0.26300
N 	N 	0.83290 0.37670 0.09080 -0.06500
N 	N 	0.71150 0.43260 0.18300 -0.06500
C 	C 	0.75857 0.53604 0.02779 0.04600
H 	H 	0.77680 0.54770 0.03400 0.04100
O 	O 	0.84640 0.35260 0.00780 -0.46600
N 	N 	0.81490 0.39300 0.10920 -0.07500
C 	C 	0.80670 0.33960 0.95650 0.05300
H 	H 	0.80250 0.35760 0.96930 0.04400
O 	O 	0.87790 0.31050 0.99690 -0.31200
C 	C 	0.83220 0.31990 0.96300 -0.11000
C 	C 	0.85390 0.32750 0.99150 0.35600
Zn	Zn	0.78351 0.95388 0.62242 1.19800
O 	O 	0.75606 0.97674 0.59183 -0.46500
N 	N 	0.75189 0.93106 0.65082 -0.26100
N 	N 	0.81070 0.92317 0.59740 -0.27100
N 	N 	0.72630 0.90382 0.68836 -0.26800
C 	C 	0.74873 0.00900 0.54523 -0.10600
O 	O 	0.79767 0.00635 0.57566 -0.34400
C 	C 	0.76950 0.99759 0.57344 0.34500
C 	C 	0.75086 0.90396 0.66725 0.22000
C 	C 	0.83100 0.92400 0.57203 0.24000
N 	N 	0.72700 0.94910 0.66200 -0.06000
N 	N 	0.83310 0.94870 0.55130 -0.36800
H 	H 	0.84370 0.94640 0.53360 0.18700
H 	H 	0.82390 0.96680 0.55570 0.17500
N 	N 	0.77360 0.88010 0.66550 -0.35500
H 	H 	0.79000 0.88230 0.65300 0.16000
H 	H 	0.77150 0.86290 0.67700 0.17600
N 	N 	0.84430 0.89616 0.56673 -0.26300
N 	N 	0.83290 0.87670 0.59080 -0.06500
N 	N 	0.71150 0.93260 0.68300 -0.06500
C 	C 	0.75857 0.03604 0.52779 0.04600
H 	H 	0.77680 0.04770 0.53400 0.04100
O 	O 	0.84640 0.85260 0.50780 -0.46600
N 	N 	0.81490 0.89300 0.60920 -0.07500
C 	C 	0.80670 0.83960 0.45650 0.05300
H 	H 	0.80250 0.85760 0.46930 0.04400
O 	O 	0.87790 0.81050 0.49690 -0.31200
C 	C 	0.83220 0.81990 0.46300 -0.11000
C 	C 	0.85390 0.82750 0.49150 0.35600
Zn	Zn	0.28351 0.45388 0.62242 1.19800
O 	O 	0.25606 0.47674 0.59183 -0.46500
N 	N 	0.25189 0.43106 0.65082 -0.26100
N 	N 	0.31070 0.42317 0.59740 -0.27100
N 	N 	0.22630 0.40382 0.68836 -0.26800
C 	C 	0.24873 0.50900 0.54523 -0.10600
O 	O 	0.29767 0.50635 0.57566 -0.34400
C 	C 	0.26950 0.49759 0.57344 0.34500
C 	C 	0.25086 0.40396 0.66725 0.22000
C 	C 	0.33100 0.42400 0.57203 0.24000
N 	N 	0.22700 0.44910 0.66200 -0.06000
N 	N 	0.33310 0.44870 0.55130 -0.36800
H 	H 	0.34370 0.44640 0.53360 0.18700
H 	H 	0.32390 0.46680 0.55570 0.17500
N 	N 	0.27360 0.38010 0.66550 -0.35500
H 	H 	0.29000 0.38230 0.65300 0.16000
H 	H 	0.27150 0.36290 0.67700 0.17600
N 	N 	0.34430 0.39616 0.56673 -0.26300
N 	N 	0.33290 0.37670 0.59080 -0.06500
N 	N 	0.21150 0.43260 0.68300 -0.06500
C 	C 	0.25857 0.53604 0.52779 0.04600
H 	H 	0.27680 0.54770 0.53400 0.04100
O 	O 	0.34640 0.35260 0.50780 -0.46600
N 	N 	0.31490 0.39300 0.60920 -0.07500
C 	C 	0.30670 0.33960 0.45650 0.05300
H 	H 	0.30250 0.35760 0.46930 0.04400
O 	O 	0.37790 0.31050 0.49690 -0.31200
C 	C 	0.33220 0.31990 0.46300 -0.11000
C 	C 	0.35390 0.32750 0.49150 0.35600
Zn	Zn	0.28351 0.95388 0.12242 1.19800
O 	O 	0.25606 0.97674 0.09183 -0.46500
N 	N 	0.25189 0.93106 0.15082 -0.26100
N 	N 	0.31070 0.92317 0.09740 -0.27100
N 	N 	0.22630 0.90382 0.18836 -0.26800
C 	C 	0.24873 0.00900 0.04523 -0.10600
O 	O 	0.29767 0.00635 0.07566 -0.34400
C 	C 	0.26950 0.99759 0.07344 0.34500
C 	C 	0.25086 0.90396 0.16725 0.22000
C 	C 	0.33100 0.92400 0.07203 0.24000
N 	N 	0.22700 0.94910 0.16200 -0.06000
N 	N 	0.33310 0.94870 0.05130 -0.36800
H 	H 	0.34370 0.94640 0.03360 0.18700
H 	H 	0.32390 0.96680 0.05570 0.17500
N 	N 	0.27360 0.88010 0.16550 -0.35500
H 	H 	0.29000 0.88230 0.15300 0.16000
H 	H 	0.27150 0.86290 0.17700 0.17600
N 	N 	0.34430 0.89616 0.06673 -0.26300
N 	N 	0.33290 0.87670 0.09080 -0.06500
N 	N 	0.21150 0.93260 0.18300 -0.06500
C 	C 	0.25857 0.03604 0.02779 0.04600
H 	H 	0.27680 0.04770 0.03400 0.04100
O 	O 	0.34640 0.85260 0.00780 -0.46600
N 	N 	0.31490 0.89300 0.10920 -0.07500
C 	C 	0.30670 0.83960 0.95650 0.05300
H 	H 	0.30250 0.85760 0.96930 0.04400
O 	O 	0.37790 0.81050 0.99690 -0.31200
C 	C 	0.33220 0.81990 0.96300 -0.11000
C 	C 	0.35390 0.82750 0.99150 0.35600
Zn	Zn	0.78351 0.29612 0.62758 1.19800
O 	O 	0.75606 0.27326 0.65817 -0.46500
N 	N 	0.75189 0.31894 0.59918 -0.26100
N 	N 	0.81070 0.32683 0.65260 -0.27100
N 	N 	0.72630 0.34618 0.56164 -0.26800
C 	C 	0.74873 0.24100 0.70477 -0.10600
O 	O 	0.79767 0.24365 0.67434 -0.34400
C 	C 	0.76950 0.25241 0.67656 0.34500
C 	C 	0.75086 0.34604 0.58275 0.22000
C 	C 	0.83100 0.32600 0.67797 0.24000
N 	N 	0.72700 0.30090 0.58800 -0.06000
N 	N 	0.83310 0.30130 0.69870 -0.36800
H 	H 	0.84370 0.30360 0.71640 0.18700
H 	H 	0.82390 0.28320 0.69430 0.17500
N 	N 	0.77360 0.36990 0.58450 -0.35500
H 	H 	0.79000 0.36770 0.59700 0.16000
H 	H 	0.77150 0.38710 0.57300 0.17600
N 	N 	0.84430 0.35384 0.68327 -0.26300
N 	N 	0.83290 0.37330 0.65920 -0.06500
N 	N 	0.71150 0.31740 0.56700 -0.06500
C 	C 	0.75857 0.21396 0.72221 0.04600
H 	H 	0.77680 0.20230 0.71600 0.04100
O 	O 	0.84640 0.39740 0.74220 -0.46600
N 	N 	0.81490 0.35700 0.64080 -0.07500
C 	C 	0.80670 0.41040 0.79350 0.05300
H 	H 	0.80250 0.39240 0.78070 0.04400
O 	O 	0.87790 0.43950 0.75310 -0.31200
C 	C 	0.83220 0.43010 0.78700 -0.11000
C 	C 	0.85390 0.42250 0.75850 0.35600
Zn	Zn	0.78351 0.79612 0.12758 1.19800
O 	O 	0.75606 0.77326 0.15817 -0.46500
N 	N 	0.75189 0.81894 0.09918 -0.26100
N 	N 	0.81070 0.82683 0.15260 -0.27100
N 	N 	0.72630 0.84618 0.06164 -0.26800
C 	C 	0.74873 0.74100 0.20477 -0.10600
O 	O 	0.79767 0.74365 0.17434 -0.34400
C 	C 	0.76950 0.75241 0.17656 0.34500
C 	C 	0.75086 0.84604 0.08275 0.22000
C 	C 	0.83100 0.82600 0.17797 0.24000
N 	N 	0.72700 0.80090 0.08800 -0.06000
N 	N 	0.83310 0.80130 0.19870 -0.36800
H 	H 	0.84370 0.80360 0.21640 0.18700
H 	H 	0.82390 0.78320 0.19430 0.17500
N 	N 	0.77360 0.86990 0.08450 -0.35500
H 	H 	0.79000 0.86770 0.09700 0.16000
H 	H 	0.77150 0.88710 0.07300 0.17600
N 	N 	0.84430 0.85384 0.18327 -0.26300
N 	N 	0.83290 0.87330 0.15920 -0.06500
N 	N 	0.71150 0.81740 0.06700 -0.06500
C 	C 	0.75857 0.71396 0.22221 0.04600
H 	H 	0.77680 0.70230 0.21600 0.04100
O 	O 	0.84640 0.89740 0.24220 -0.46600
N 	N 	0.81490 0.85700 0.14080 -0.07500
C 	C 	0.80670 0.91040 0.29350 0.05300
H 	H 	0.80250 0.89240 0.28070 0.04400
O 	O 	0.87790 0.93950 0.25310 -0.31200
C 	C 	0.83220 0.93010 0.28700 -0.11000
C 	C 	0.85390 0.92250 0.25850 0.35600
Zn	Zn	0.28351 0.29612 0.12758 1.19800
O 	O 	0.25606 0.27326 0.15817 -0.46500
N 	N 	0.25189 0.31894 0.09918 -0.26100
N 	N 	0.31070 0.32683 0.15260 -0.27100
N 	N 	0.22630 0.34618 0.06164 -0.26800
C 	C 	0.24873 0.24100 0.20477 -0.10600
O 	O 	0.29767 0.24365 0.17434 -0.34400
C 	C 	0.26950 0.25241 0.17656 0.34500
C 	C 	0.25086 0.34604 0.08275 0.22000
C 	C 	0.33100 0.32600 0.17797 0.24000
N 	N 	0.22700 0.30090 0.08800 -0.06000
N 	N 	0.33310 0.30130 0.19870 -0.36800
H 	H 	0.34370 0.30360 0.21640 0.18700
H 	H 	0.32390 0.28320 0.19430 0.17500
N 	N 	0.27360 0.36990 0.08450 -0.35500
H 	H 	0.29000 0.36770 0.09700 0.16000
H 	H 	0.27150 0.38710 0.07300 0.17600
N 	N 	0.34430 0.35384 0.18327 -0.26300
N 	N 	0.33290 0.37330 0.15920 -0.06500
N 	N 	0.21150 0.31740 0.06700 -0.06500
C 	C 	0.25857 0.21396 0.22221 0.04600
H 	H 	0.27680 0.20230 0.21600 0.04100
O 	O 	0.34640 0.39740 0.24220 -0.46600
N 	N 	0.31490 0.35700 0.14080 -0.07500
C 	C 	0.30670 0.41040 0.29350 0.05300
H 	H 	0.30250 0.39240 0.28070 0.04400
O 	O 	0.37790 0.43950 0.25310 -0.31200
C 	C 	0.33220 0.43010 0.28700 -0.11000
C 	C 	0.35390 0.42250 0.25850 0.35600
Zn	Zn	0.28351 0.79612 0.62758 1.19800
O 	O 	0.25606 0.77326 0.65817 -0.46500
N 	N 	0.25189 0.81894 0.59918 -0.26100
N 	N 	0.31070 0.82683 0.65260 -0.27100
N 	N 	0.22630 0.84618 0.56164 -0.26800
C 	C 	0.24873 0.74100 0.70477 -0.10600
O 	O 	0.29767 0.74365 0.67434 -0.34400
C 	C 	0.26950 0.75241 0.67656 0.34500
C 	C 	0.25086 0.84604 0.58275 0.22000
C 	C 	0.33100 0.82600 0.67797 0.24000
N 	N 	0.22700 0.80090 0.58800 -0.06000
N 	N 	0.33310 0.80130 0.69870 -0.36800
H 	H 	0.34370 0.80360 0.71640 0.18700
H 	H 	0.32390 0.78320 0.69430 0.17500
N 	N 	0.27360 0.86990 0.58450 -0.35500
H 	H 	0.29000 0.86770 0.59700 0.16000
H 	H 	0.27150 0.88710 0.57300 0.17600
N 	N 	0.34430 0.85384 0.68327 -0.26300
N 	N 	0.33290 0.87330 0.65920 -0.06500
N 	N 	0.21150 0.81740 0.56700 -0.06500
C 	C 	0.25857 0.71396 0.72221 0.04600
H 	H 	0.27680 0.70230 0.71600 0.04100
O 	O 	0.34640 0.89740 0.74220 -0.46600
N 	N 	0.31490 0.85700 0.64080 -0.07500
C 	C 	0.30670 0.91040 0.79350 0.05300
H 	H 	0.30250 0.89240 0.78070 0.04400
O 	O 	0.37790 0.93950 0.75310 -0.31200
C 	C 	0.33220 0.93010 0.78700 -0.11000
C 	C 	0.35390 0.92250 0.75850 0.35600
Zn	Zn	0.12242 0.96649 0.29612 1.19800
O 	O 	0.09183 0.99394 0.27326 -0.46500
N 	N 	0.15082 0.99811 0.31894 -0.26100
N 	N 	0.09740 0.93930 0.32683 -0.27100
N 	N 	0.18836 0.02370 0.34618 -0.26800
C 	C 	0.04523 0.00127 0.24100 -0.10600
O 	O 	0.07566 0.95233 0.24365 -0.34400
C 	C 	0.07344 0.98050 0.25241 0.34500
C 	C 	0.16725 0.99914 0.34604 0.22000
C 	C 	0.07203 0.91900 0.32600 0.24000
N 	N 	0.16200 0.02300 0.30090 -0.06000
N 	N 	0.05130 0.91690 0.30130 -0.36800
H 	H 	0.03360 0.90630 0.30360 0.18700
H 	H 	0.05570 0.92610 0.28320 0.17500
N 	N 	0.16550 0.97640 0.36990 -0.35500
H 	H 	0.15300 0.96000 0.36770 0.16000
H 	H 	0.17700 0.97850 0.38710 0.17600
N 	N 	0.06673 0.90570 0.35384 -0.26300
N 	N 	0.09080 0.91710 0.37330 -0.06500
N 	N 	0.18300 0.03850 0.31740 -0.06500
C 	C 	0.02779 0.99143 0.21396 0.04600
H 	H 	0.03400 0.97320 0.20230 0.04100
O 	O 	0.00780 0.90360 0.39740 -0.46600
N 	N 	0.10920 0.93510 0.35700 -0.07500
C 	C 	0.95650 0.94330 0.41040 0.05300
H 	H 	0.96930 0.94750 0.39240 0.04400
O 	O 	0.99690 0.87210 0.43950 -0.31200
C 	C 	0.96300 0.91780 0.43010 -0.11000
C 	C 	0.99150 0.89610 0.42250 0.35600
Zn	Zn	0.12242 0.46649 0.79612 1.19800
O 	O 	0.09183 0.49394 0.77326 -0.46500
N 	N 	0.15082 0.49811 0.81894 -0.26100
N 	N 	0.09740 0.43930 0.82683 -0.27100
N 	N 	0.18836 0.52370 0.84618 -0.26800
C 	C 	0.04523 0.50127 0.74100 -0.10600
O 	O 	0.07566 0.45233 0.74365 -0.34400
C 	C 	0.07344 0.48050 0.75241 0.34500
C 	C 	0.16725 0.49914 0.84604 0.22000
C 	C 	0.07203 0.41900 0.82600 0.24000
N 	N 	0.16200 0.52300 0.80090 -0.06000
N 	N 	0.05130 0.41690 0.80130 -0.36800
H 	H 	0.03360 0.40630 0.80360 0.18700
H 	H 	0.05570 0.42610 0.78320 0.17500
N 	N 	0.16550 0.47640 0.86990 -0.35500
H 	H 	0.15300 0.46000 0.86770 0.16000
H 	H 	0.17700 0.47850 0.88710 0.17600
N 	N 	0.06673 0.40570 0.85384 -0.26300
N 	N 	0.09080 0.41710 0.87330 -0.06500
N 	N 	0.18300 0.53850 0.81740 -0.06500
C 	C 	0.02779 0.49143 0.71396 0.04600
H 	H 	0.03400 0.47320 0.70230 0.04100
O 	O 	0.00780 0.40360 0.89740 -0.46600
N 	N 	0.10920 0.43510 0.85700 -0.07500
C 	C 	0.95650 0.44330 0.91040 0.05300
H 	H 	0.96930 0.44750 0.89240 0.04400
O 	O 	0.99690 0.37210 0.93950 -0.31200
C 	C 	0.96300 0.41780 0.93010 -0.11000
C 	C 	0.99150 0.39610 0.92250 0.35600
Zn	Zn	0.62242 0.96649 0.79612 1.19800
O 	O 	0.59183 0.99394 0.77326 -0.46500
N 	N 	0.65082 0.99811 0.81894 -0.26100
N 	N 	0.59740 0.93930 0.82683 -0.27100
N 	N 	0.68836 0.02370 0.84618 -0.26800
C 	C 	0.54523 0.00127 0.74100 -0.10600
O 	O 	0.57566 0.95233 0.74365 -0.34400
C 	C 	0.57344 0.98050 0.75241 0.34500
C 	C 	0.66725 0.99914 0.84604 0.22000
C 	C 	0.57203 0.91900 0.82600 0.24000
N 	N 	0.66200 0.02300 0.80090 -0.06000
N 	N 	0.55130 0.91690 0.80130 -0.36800
H 	H 	0.53360 0.90630 0.80360 0.18700
H 	H 	0.55570 0.92610 0.78320 0.17500
N 	N 	0.66550 0.97640 0.86990 -0.35500
H 	H 	0.65300 0.96000 0.86770 0.16000
H 	H 	0.67700 0.97850 0.88710 0.17600
N 	N 	0.56673 0.90570 0.85384 -0.26300
N 	N 	0.59080 0.91710 0.87330 -0.06500
N 	N 	0.68300 0.03850 0.81740 -0.06500
C 	C 	0.52779 0.99143 0.71396 0.04600
H 	H 	0.53400 0.97320 0.70230 0.04100
O 	O 	0.50780 0.90360 0.89740 -0.46600
N 	N 	0.60920 0.93510 0.85700 -0.07500
C 	C 	0.45650 0.94330 0.91040 0.05300
H 	H 	0.46930 0.94750 0.89240 0.04400
O 	O 	0.49690 0.87210 0.93950 -0.31200
C 	C 	0.46300 0.91780 0.93010 -0.11000
C 	C 	0.49150 0.89610 0.92250 0.35600
Zn	Zn	0.62242 0.46649 0.29612 1.19800
O 	O 	0.59183 0.49394 0.27326 -0.46500
N 	N 	0.65082 0.49811 0.31894 -0.26100
N 	N 	0.59740 0.43930 0.32683 -0.27100
N 	N 	0.68836 0.52370 0.34618 -0.26800
C 	C 	0.54523 0.50127 0.24100 -0.10600
O 	O 	0.57566 0.45233 0.24365 -0.34400
C 	C 	0.57344 0.48050 0.25241 0.34500
C 	C 	0.66725 0.49914 0.34604 0.22000
C 	C 	0.57203 0.41900 0.32600 0.24000
N 	N 	0.66200 0.52300 0.30090 -0.06000
N 	N 	0.55130 0.41690 0.30130 -0.36800
H 	H 	0.53360 0.40630 0.30360 0.18700
H 	H 	0.55570 0.42610 0.28320 0.17500
N 	N 	0.66550 0.47640 0.36990 -0.35500
H 	H 	0.65300 0.46000 0.36770 0.16000
H 	H 	0.67700 0.47850 0.38710 0.17600
N 	N 	0.56673 0.40570 0.35384 -0.26300
N 	N 	0.59080 0.41710 0.37330 -0.06500
N 	N 	0.68300 0.53850 0.31740 -0.06500
C 	C 	0.52779 0.49143 0.21396 0.04600
H 	H 	0.53400 0.47320 0.20230 0.04100
O 	O 	0.50780 0.40360 0.39740 -0.46600
N 	N 	0.60920 0.43510 0.35700 -0.07500
C 	C 	0.45650 0.44330 0.41040 0.05300
H 	H 	0.46930 0.44750 0.39240 0.04400
O 	O 	0.49690 0.37210 0.43950 -0.31200
C 	C 	0.46300 0.41780 0.43010 -0.11000
C 	C 	0.49150 0.39610 0.42250 0.35600
Zn	Zn	0.62758 0.96649 0.45388 1.19800
O 	O 	0.65817 0.99394 0.47674 -0.46500
N 	N 	0.59918 0.99811 0.43106 -0.26100
N 	N 	0.65260 0.93930 0.42317 -0.27100
N 	N 	0.56164 0.02370 0.40382 -0.26800
C 	C 	0.70477 0.00127 0.50900 -0.10600
O 	O 	0.67434 0.95233 0.50635 -0.34400
C 	C 	0.67656 0.98050 0.49759 0.34500
C 	C 	0.58275 0.99914 0.40396 0.22000
C 	C 	0.67797 0.91900 0.42400 0.24000
N 	N 	0.58800 0.02300 0.44910 -0.06000
N 	N 	0.69870 0.91690 0.44870 -0.36800
H 	H 	0.71640 0.90630 0.44640 0.18700
H 	H 	0.69430 0.92610 0.46680 0.17500
N 	N 	0.58450 0.97640 0.38010 -0.35500
H 	H 	0.59700 0.96000 0.38230 0.16000
H 	H 	0.57300 0.97850 0.36290 0.17600
N 	N 	0.68327 0.90570 0.39616 -0.26300
N 	N 	0.65920 0.91710 0.37670 -0.06500
N 	N 	0.56700 0.03850 0.43260 -0.06500
C 	C 	0.72221 0.99143 0.53604 0.04600
H 	H 	0.71600 0.97320 0.54770 0.04100
O 	O 	0.74220 0.90360 0.35260 -0.46600
N 	N 	0.64080 0.93510 0.39300 -0.07500
C 	C 	0.79350 0.94330 0.33960 0.05300
H 	H 	0.78070 0.94750 0.35760 0.04400
O 	O 	0.75310 0.87210 0.31050 -0.31200
C 	C 	0.78700 0.91780 0.31990 -0.11000
C 	C 	0.75850 0.89610 0.32750 0.35600
Zn	Zn	0.62758 0.46649 0.95388 1.19800
O 	O 	0.65817 0.49394 0.97674 -0.46500
N 	N 	0.59918 0.49811 0.93106 -0.26100
N 	N 	0.65260 0.43930 0.92317 -0.27100
N 	N 	0.56164 0.52370 0.90382 -0.26800
C 	C 	0.70477 0.50127 0.00900 -0.10600
O 	O 	0.67434 0.45233 0.00635 -0.34400
C 	C 	0.67656 0.48050 0.99759 0.34500
C 	C 	0.58275 0.49914 0.90396 0.22000
C 	C 	0.67797 0.41900 0.92400 0.24000
N 	N 	0.58800 0.52300 0.94910 -0.06000
N 	N 	0.69870 0.41690 0.94870 -0.36800
H 	H 	0.71640 0.40630 0.94640 0.18700
H 	H 	0.69430 0.42610 0.96680 0.17500
N 	N 	0.58450 0.47640 0.88010 -0.35500
H 	H 	0.59700 0.46000 0.88230 0.16000
H 	H 	0.57300 0.47850 0.86290 0.17600
N 	N 	0.68327 0.40570 0.89616 -0.26300
N 	N 	0.65920 0.41710 0.87670 -0.06500
N 	N 	0.56700 0.53850 0.93260 -0.06500
C 	C 	0.72221 0.49143 0.03604 0.04600
H 	H 	0.71600 0.47320 0.04770 0.04100
O 	O 	0.74220 0.40360 0.85260 -0.46600
N 	N 	0.64080 0.43510 0.89300 -0.07500
C 	C 	0.79350 0.44330 0.83960 0.05300
H 	H 	0.78070 0.44750 0.85760 0.04400
O 	O 	0.75310 0.37210 0.81050 -0.31200
C 	C 	0.78700 0.41780 0.81990 -0.11000
C 	C 	0.75850 0.39610 0.82750 0.35600
Zn	Zn	0.12758 0.96649 0.95388 1.19800
O 	O 	0.15817 0.99394 0.97674 -0.46500
N 	N 	0.09918 0.99811 0.93106 -0.26100
N 	N 	0.15260 0.93930 0.92317 -0.27100
N 	N 	0.06164 0.02370 0.90382 -0.26800
C 	C 	0.20477 0.00127 0.00900 -0.10600
O 	O 	0.17434 0.95233 0.00635 -0.34400
C 	C 	0.17656 0.98050 0.99759 0.34500
C 	C 	0.08275 0.99914 0.90396 0.22000
C 	C 	0.17797 0.91900 0.92400 0.24000
N 	N 	0.08800 0.02300 0.94910 -0.06000
N 	N 	0.19870 0.91690 0.94870 -0.36800
H 	H 	0.21640 0.90630 0.94640 0.18700
H 	H 	0.19430 0.92610 0.96680 0.17500
N 	N 	0.08450 0.97640 0.88010 -0.35500
H 	H 	0.09700 0.96000 0.88230 0.16000
H 	H 	0.07300 0.97850 0.86290 0.17600
N 	N 	0.18327 0.90570 0.89616 -0.26300
N 	N 	0.15920 0.91710 0.87670 -0.06500
N 	N 	0.06700 0.03850 0.93260 -0.06500
C 	C 	0.22221 0.99143 0.03604 0.04600
H 	H 	0.21600 0.97320 0.04770 0.04100
O 	O 	0.24220 0.90360 0.85260 -0.46600
N 	N 	0.14080 0.93510 0.89300 -0.07500
C 	C 	0.29350 0.94330 0.83960 0.05300
H 	H 	0.28070 0.94750 0.85760 0.04400
O 	O 	0.25310 0.87210 0.81050 -0.31200
C 	C 	0.28700 0.91780 0.81990 -0.11000
C 	C 	0.25850 0.89610 0.82750 0.35600
Zn	Zn	0.12758 0.46649 0.45388 1.19800
O 	O 	0.15817 0.49394 0.47674 -0.46500
N 	N 	0.09918 0.49811 0.43106 -0.26100
N 	N 	0.15260 0.43930 0.42317 -0.27100
N 	N 	0.06164 0.52370 0.40382 -0.26800
C 	C 	0.20477 0.50127 0.50900 -0.10600
O 	O 	0.17434 0.45233 0.50635 -0.34400
C 	C 	0.17656 0.48050 0.49759 0.34500
C 	C 	0.08275 0.49914 0.40396 0.22000
C 	C 	0.17797 0.41900 0.42400 0.24000
N 	N 	0.08800 0.52300 0.44910 -0.06000
N 	N 	0.19870 0.41690 0.44870 -0.36800
H 	H 	0.21640 0.40630 0.44640 0.18700
H 	H 	0.19430 0.42610 0.46680 0.17500
N 	N 	0.08450 0.47640 0.38010 -0.35500
H 	H 	0.09700 0.46000 0.38230 0.16000
H 	H 	0.07300 0.47850 0.36290 0.17600
N 	N 	0.18327 0.40570 0.39616 -0.26300
N 	N 	0.15920 0.41710 0.37670 -0.06500
N 	N 	0.06700 0.53850 0.43260 -0.06500
C 	C 	0.22221 0.49143 0.53604 0.04600
H 	H 	0.21600 0.47320 0.54770 0.04100
O 	O 	0.24220 0.40360 0.35260 -0.46600
N 	N 	0.14080 0.43510 0.39300 -0.07500
C 	C 	0.29350 0.44330 0.33960 0.05300
H 	H 	0.28070 0.44750 0.35760 0.04400
O 	O 	0.25310 0.37210 0.31050 -0.31200
C 	C 	0.28700 0.41780 0.31990 -0.11000
C 	C 	0.25850 0.39610 0.32750 0.35600
Zn	Zn	0.12242 0.78351 0.45388 1.19800
O 	O 	0.09183 0.75606 0.47674 -0.46500
N 	N 	0.15082 0.75189 0.43106 -0.26100
N 	N 	0.09740 0.81070 0.42317 -0.27100
N 	N 	0.18836 0.72630 0.40382 -0.26800
C 	C 	0.04523 0.74873 0.50900 -0.10600
O 	O 	0.07566 0.79767 0.50635 -0.34400
C 	C 	0.07344 0.76950 0.49759 0.34500
C 	C 	0.16725 0.75086 0.40396 0.22000
C 	C 	0.07203 0.83100 0.42400 0.24000
N 	N 	0.16200 0.72700 0.44910 -0.06000
N 	N 	0.05130 0.83310 0.44870 -0.36800
H 	H 	0.03360 0.84370 0.44640 0.18700
H 	H 	0.05570 0.82390 0.46680 0.17500
N 	N 	0.16550 0.77360 0.38010 -0.35500
H 	H 	0.15300 0.79000 0.38230 0.16000
H 	H 	0.17700 0.77150 0.36290 0.17600
N 	N 	0.06673 0.84430 0.39616 -0.26300
N 	N 	0.09080 0.83290 0.37670 -0.06500
N 	N 	0.18300 0.71150 0.43260 -0.06500
C 	C 	0.02779 0.75857 0.53604 0.04600
H 	H 	0.03400 0.77680 0.54770 0.04100
O 	O 	0.00780 0.84640 0.35260 -0.46600
N 	N 	0.10920 0.81490 0.39300 -0.07500
C 	C 	0.95650 0.80670 0.33960 0.05300
H 	H 	0.96930 0.80250 0.35760 0.04400
O 	O 	0.99690 0.87790 0.31050 -0.31200
C 	C 	0.96300 0.83220 0.31990 -0.11000
C 	C 	0.99150 0.85390 0.32750 0.35600
Zn	Zn	0.12242 0.28351 0.95388 1.19800
O 	O 	0.09183 0.25606 0.97674 -0.46500
N 	N 	0.15082 0.25189 0.93106 -0.26100
N 	N 	0.09740 0.31070 0.92317 -0.27100
N 	N 	0.18836 0.22630 0.90382 -0.26800
C 	C 	0.04523 0.24873 0.00900 -0.10600
O 	O 	0.07566 0.29767 0.00635 -0.34400
C 	C 	0.07344 0.26950 0.99759 0.34500
C 	C 	0.16725 0.25086 0.90396 0.22000
C 	C 	0.07203 0.33100 0.92400 0.24000
N 	N 	0.16200 0.22700 0.94910 -0.06000
N 	N 	0.05130 0.33310 0.94870 -0.36800
H 	H 	0.03360 0.34370 0.94640 0.18700
H 	H 	0.05570 0.32390 0.96680 0.17500
N 	N 	0.16550 0.27360 0.88010 -0.35500
H 	H 	0.15300 0.29000 0.88230 0.16000
H 	H 	0.17700 0.27150 0.86290 0.17600
N 	N 	0.06673 0.34430 0.89616 -0.26300
N 	N 	0.09080 0.33290 0.87670 -0.06500
N 	N 	0.18300 0.21150 0.93260 -0.06500
C 	C 	0.02779 0.25857 0.03604 0.04600
H 	H 	0.03400 0.27680 0.04770 0.04100
O 	O 	0.00780 0.34640 0.85260 -0.46600
N 	N 	0.10920 0.31490 0.89300 -0.07500
C 	C 	0.95650 0.30670 0.83960 0.05300
H 	H 	0.96930 0.30250 0.85760 0.04400
O 	O 	0.99690 0.37790 0.81050 -0.31200
C 	C 	0.96300 0.33220 0.81990 -0.11000
C 	C 	0.99150 0.35390 0.82750 0.35600
Zn	Zn	0.62242 0.78351 0.95388 1.19800
O 	O 	0.59183 0.75606 0.97674 -0.46500
N 	N 	0.65082 0.75189 0.93106 -0.26100
N 	N 	0.59740 0.81070 0.92317 -0.27100
N 	N 	0.68836 0.72630 0.90382 -0.26800
C 	C 	0.54523 0.74873 0.00900 -0.10600
O 	O 	0.57566 0.79767 0.00635 -0.34400
C 	C 	0.57344 0.76950 0.99759 0.34500
C 	C 	0.66725 0.75086 0.90396 0.22000
C 	C 	0.57203 0.83100 0.92400 0.24000
N 	N 	0.66200 0.72700 0.94910 -0.06000
N 	N 	0.55130 0.83310 0.94870 -0.36800
H 	H 	0.53360 0.84370 0.94640 0.18700
H 	H 	0.55570 0.82390 0.96680 0.17500
N 	N 	0.66550 0.77360 0.88010 -0.35500
H 	H 	0.65300 0.79000 0.88230 0.16000
H 	H 	0.67700 0.77150 0.86290 0.17600
N 	N 	0.56673 0.84430 0.89616 -0.26300
N 	N 	0.59080 0.83290 0.87670 -0.06500
N 	N 	0.68300 0.71150 0.93260 -0.06500
C 	C 	0.52779 0.75857 0.03604 0.04600
H 	H 	0.53400 0.77680 0.04770 0.04100
O 	O 	0.50780 0.84640 0.85260 -0.46600
N 	N 	0.60920 0.81490 0.89300 -0.07500
C 	C 	0.45650 0.80670 0.83960 0.05300
H 	H 	0.46930 0.80250 0.85760 0.04400
O 	O 	0.49690 0.87790 0.81050 -0.31200
C 	C 	0.46300 0.83220 0.81990 -0.11000
C 	C 	0.49150 0.85390 0.82750 0.35600
Zn	Zn	0.62242 0.28351 0.45388 1.19800
O 	O 	0.59183 0.25606 0.47674 -0.46500
N 	N 	0.65082 0.25189 0.43106 -0.26100
N 	N 	0.59740 0.31070 0.42317 -0.27100
N 	N 	0.68836 0.22630 0.40382 -0.26800
C 	C 	0.54523 0.24873 0.50900 -0.10600
O 	O 	0.57566 0.29767 0.50635 -0.34400
C 	C 	0.57344 0.26950 0.49759 0.34500
C 	C 	0.66725 0.25086 0.40396 0.22000
C 	C 	0.57203 0.33100 0.42400 0.24000
N 	N 	0.66200 0.22700 0.44910 -0.06000
N 	N 	0.55130 0.33310 0.44870 -0.36800
H 	H 	0.53360 0.34370 0.44640 0.18700
H 	H 	0.55570 0.32390 0.46680 0.17500
N 	N 	0.66550 0.27360 0.38010 -0.35500
H 	H 	0.65300 0.29000 0.38230 0.16000
H 	H 	0.67700 0.27150 0.36290 0.17600
N 	N 	0.56673 0.34430 0.39616 -0.26300
N 	N 	0.59080 0.33290 0.37670 -0.06500
N 	N 	0.68300 0.21150 0.43260 -0.06500
C 	C 	0.52779 0.25857 0.53604 0.04600
H 	H 	0.53400 0.27680 0.54770 0.04100
O 	O 	0.50780 0.34640 0.35260 -0.46600
N 	N 	0.60920 0.31490 0.39300 -0.07500
C 	C 	0.45650 0.30670 0.33960 0.05300
H 	H 	0.46930 0.30250 0.35760 0.04400
O 	O 	0.49690 0.37790 0.31050 -0.31200
C 	C 	0.46300 0.33220 0.31990 -0.11000
C 	C 	0.49150 0.35390 0.32750 0.35600
Zn	Zn	0.62758 0.78351 0.29612 1.19800
O 	O 	0.65817 0.75606 0.27326 -0.46500
N 	N 	0.59918 0.75189 0.31894 -0.26100
N 	N 	0.65260 0.81070 0.32683 -0.27100
N 	N 	0.56164 0.72630 0.34618 -0.26800
C 	C 	0.70477 0.74873 0.24100 -0.10600
O 	O 	0.67434 0.79767 0.24365 -0.34400
C 	C 	0.67656 0.76950 0.25241 0.34500
C 	C 	0.58275 0.75086 0.34604 0.22000
C 	C 	0.67797 0.83100 0.32600 0.24000
N 	N 	0.58800 0.72700 0.30090 -0.06000
N 	N 	0.69870 0.83310 0.30130 -0.36800
H 	H 	0.71640 0.84370 0.30360 0.18700
H 	H 	0.69430 0.82390 0.28320 0.17500
N 	N 	0.58450 0.77360 0.36990 -0.35500
H 	H 	0.59700 0.79000 0.36770 0.16000
H 	H 	0.57300 0.77150 0.38710 0.17600
N 	N 	0.68327 0.84430 0.35384 -0.26300
N 	N 	0.65920 0.83290 0.37330 -0.06500
N 	N 	0.56700 0.71150 0.31740 -0.06500
C 	C 	0.72221 0.75857 0.21396 0.04600
H 	H 	0.71600 0.77680 0.20230 0.04100
O 	O 	0.74220 0.84640 0.39740 -0.46600
N 	N 	0.64080 0.81490 0.35700 -0.07500
C 	C 	0.79350 0.80670 0.41040 0.05300
H 	H 	0.78070 0.80250 0.39240 0.04400
O 	O 	0.75310 0.87790 0.43950 -0.31200
C 	C 	0.78700 0.83220 0.43010 -0.11000
C 	C 	0.75850 0.85390 0.42250 0.35600
Zn	Zn	0.62758 0.28351 0.79612 1.19800
O 	O 	0.65817 0.25606 0.77326 -0.46500
N 	N 	0.59918 0.25189 0.81894 -0.26100
N 	N 	0.65260 0.31070 0.82683 -0.27100
N 	N 	0.56164 0.22630 0.84618 -0.26800
C 	C 	0.70477 0.24873 0.74100 -0.10600
O 	O 	0.67434 0.29767 0.74365 -0.34400
C 	C 	0.67656 0.26950 0.75241 0.34500
C 	C 	0.58275 0.25086 0.84604 0.22000
C 	C 	0.67797 0.33100 0.82600 0.24000
N 	N 	0.58800 0.22700 0.80090 -0.06000
N 	N 	0.69870 0.33310 0.80130 -0.36800
H 	H 	0.71640 0.34370 0.80360 0.18700
H 	H 	0.69430 0.32390 0.78320 0.17500
N 	N 	0.58450 0.27360 0.86990 -0.35500
H 	H 	0.59700 0.29000 0.86770 0.16000
H 	H 	0.57300 0.27150 0.88710 0.17600
N 	N 	0.68327 0.34430 0.85384 -0.26300
N 	N 	0.65920 0.33290 0.87330 -0.06500
N 	N 	0.56700 0.21150 0.81740 -0.06500
C 	C 	0.72221 0.25857 0.71396 0.04600
H 	H 	0.71600 0.27680 0.70230 0.04100
O 	O 	0.74220 0.34640 0.89740 -0.46600
N 	N 	0.64080 0.31490 0.85700 -0.07500
C 	C 	0.79350 0.30670 0.91040 0.05300
H 	H 	0.78070 0.30250 0.89240 0.04400
O 	O 	0.75310 0.37790 0.93950 -0.31200
C 	C 	0.78700 0.33220 0.93010 -0.11000
C 	C 	0.75850 0.35390 0.92250 0.35600
Zn	Zn	0.12758 0.78351 0.79612 1.19800
O 	O 	0.15817 0.75606 0.77326 -0.46500
N 	N 	0.09918 0.75189 0.81894 -0.26100
N 	N 	0.15260 0.81070 0.82683 -0.27100
N 	N 	0.06164 0.72630 0.84618 -0.26800
C 	C 	0.20477 0.74873 0.74100 -0.10600
O 	O 	0.17434 0.79767 0.74365 -0.34400
C 	C 	0.17656 0.76950 0.75241 0.34500
C 	C 	0.08275 0.75086 0.84604 0.22000
C 	C 	0.17797 0.83100 0.82600 0.24000
N 	N 	0.08800 0.72700 0.80090 -0.06000
N 	N 	0.19870 0.83310 0.80130 -0.36800
H 	H 	0.21640 0.84370 0.80360 0.18700
H 	H 	0.19430 0.82390 0.78320 0.17500
N 	N 	0.08450 0.77360 0.86990 -0.35500
H 	H 	0.09700 0.79000 0.86770 0.16000
H 	H 	0.07300 0.77150 0.88710 0.17600
N 	N 	0.18327 0.84430 0.85384 -0.26300
N 	N 	0.15920 0.83290 0.87330 -0.06500
N 	N 	0.06700 0.71150 0.81740 -0.06500
C 	C 	0.22221 0.75857 0.71396 0.04600
H 	H 	0.21600 0.77680 0.70230 0.04100
O 	O 	0.24220 0.84640 0.89740 -0.46600
N 	N 	0.14080 0.81490 0.85700 -0.07500
C 	C 	0.29350 0.80670 0.91040 0.05300
H 	H 	0.28070 0.80250 0.89240 0.04400
O 	O 	0.25310 0.87790 0.93950 -0.31200
C 	C 	0.28700 0.83220 0.93010 -0.11000
C 	C 	0.25850 0.85390 0.92250 0.35600
Zn	Zn	0.12758 0.28351 0.29612 1.19800
O 	O 	0.15817 0.25606 0.27326 -0.46500
N 	N 	0.09918 0.25189 0.31894 -0.26100
N 	N 	0.15260 0.31070 0.32683 -0.27100
N 	N 	0.06164 0.22630 0.34618 -0.26800
C 	C 	0.20477 0.24873 0.24100 -0.10600
O 	O 	0.17434 0.29767 0.24365 -0.34400
C 	C 	0.17656 0.26950 0.25241 0.34500
C 	C 	0.08275 0.25086 0.34604 0.22000
C 	C 	0.17797 0.33100 0.32600 0.24000
N 	N 	0.08800 0.22700 0.30090 -0.06000
N 	N 	0.19870 0.33310 0.30130 -0.36800
H 	H 	0.21640 0.34370 0.30360 0.18700
H 	H 	0.19430 0.32390 0.28320 0.17500
N 	N 	0.08450 0.27360 0.36990 -0.35500
H 	H 	0.09700 0.29000 0.36770 0.16000
H 	H 	0.07300 0.27150 0.38710 0.17600
N 	N 	0.18327 0.34430 0.35384 -0.26300
N 	N 	0.15920 0.33290 0.37330 -0.06500
N 	N 	0.06700 0.21150 0.31740 -0.06500
C 	C 	0.22221 0.25857 0.21396 0.04600
H 	H 	0.21600 0.27680 0.20230 0.04100
O 	O 	0.24220 0.34640 0.39740 -0.46600
N 	N 	0.14080 0.31490 0.35700 -0.07500
C 	C 	0.29350 0.30670 0.41040 0.05300
H 	H 	0.28070 0.30250 0.39240 0.04400
O 	O 	0.25310 0.37790 0.43950 -0.31200
C 	C 	0.28700 0.33220 0.43010 -0.11000
C 	C 	0.25850 0.35390 0.42250 0.35600
Zn	Zn	0.62500 0.96384 0.12500 1.21800
Zn	Zn	0.62500 0.46384 0.62500 1.21800
Zn	Zn	0.12500 0.96384 0.62500 1.21800
Zn	Zn	0.12500 0.46384 0.12500 1.21800
Zn	Zn	0.62500 0.28616 0.12500 1.21800
Zn	Zn	0.62500 0.78616 0.62500 1.21800
Zn	Zn	0.12500 0.28616 0.62500 1.21800
Zn	Zn	0.12500 0.78616 0.12500 1.21800
Zn	Zn	0.12500 0.62500 0.96384 1.21800
Zn	Zn	0.12500 0.12500 0.46384 1.21800
Zn	Zn	0.62500 0.62500 0.46384 1.21800
Zn	Zn	0.62500 0.12500 0.96384 1.21800
Zn	Zn	0.12500 0.62500 0.28616 1.21800
Zn	Zn	0.12500 0.12500 0.78616 1.21800
Zn	Zn	0.62500 0.62500 0.78616 1.21800
Zn	Zn	0.62500 0.12500 0.28616 1.21800
Zn	Zn	0.96384 0.12500 0.62500 1.21800
Zn	Zn	0.96384 0.62500 0.12500 1.21800
Zn	Zn	0.46384 0.12500 0.12500 1.21800
Zn	Zn	0.46384 0.62500 0.62500 1.21800
Zn	Zn	0.28616 0.12500 0.62500 1.21800
Zn	Zn	0.28616 0.62500 0.12500 1.21800
Zn	Zn	0.78616 0.12500 0.12500 1.21800
Zn	Zn	0.78616 0.62500 0.62500 1.21800
Zn	Zn	0.37500 0.03616 0.87500 1.21800
Zn	Zn	0.37500 0.53616 0.37500 1.21800
Zn	Zn	0.87500 0.03616 0.37500 1.21800
Zn	Zn	0.87500 0.53616 0.87500 1.21800
Zn	Zn	0.37500 0.71384 0.87500 1.21800
Zn	Zn	0.37500 0.21384 0.37500 1.21800
Zn	Zn	0.87500 0.71384 0.37500 1.21800
Zn	Zn	0.87500 0.21384 0.87500 1.21800
Zn	Zn	0.87500 0.37500 0.03616 1.21800
Zn	Zn	0.87500 0.87500 0.53616 1.21800
Zn	Zn	0.37500 0.37500 0.53616 1.21800
Zn	Zn	0.37500 0.87500 0.03616 1.21800
Zn	Zn	0.87500 0.37500 0.71384 1.21800
Zn	Zn	0.87500 0.87500 0.21384 1.21800
Zn	Zn	0.37500 0.37500 0.21384 1.21800
Zn	Zn	0.37500 0.87500 0.71384 1.21800
Zn	Zn	0.03616 0.87500 0.37500 1.21800
Zn	Zn	0.03616 0.37500 0.87500 1.21800
Zn	Zn	0.53616 0.87500 0.87500 1.21800
Zn	Zn	0.53616 0.37500 0.37500 1.21800
Zn	Zn	0.71384 0.87500 0.37500 1.21800
Zn	Zn	0.71384 0.37500 0.87500 1.21800
Zn	Zn	0.21384 0.87500 0.87500 1.21800
Zn	Zn	0.21384 0.37500 0.37500 1.21800
