data_crystal

_cell_length_a 27.54600
_cell_length_b 27.54600
_cell_length_c 27.54600
_cell_angle_alpha 90.00000
_cell_angle_beta  90.00000
_cell_angle_gamma 90.00000

_symmetry_space_group_name_	'P 1'
_symmetry_space_group_name_H-M	'P 1'

loop_
_symmetry_equiv_pos_as_xyz
  x,y,z

loop_
_atom_site_label
_atom_site_type_symbol
_atom_site_fract_x
_atom_site_fract_y
_atom_site_fract_z
_atom_site_charge
Tb	Tb	0.39965 0.50000 0.50000 2.29000
Tb	Tb	0.39965 0.00000 -0.00000 1.95100
Tb	Tb	0.89965 0.50000 -0.00000 2.11700
Tb	Tb	0.89965 0.00000 0.50000 2.11700
Tb	Tb	0.60035 0.50000 0.50000 2.29300
Tb	Tb	0.60035 0.00000 -0.00000 1.95400
Tb	Tb	0.10035 0.50000 -0.00000 2.11000
Tb	Tb	0.10035 0.00000 0.50000 2.11000
Tb	Tb	0.50000 0.39965 0.50000 2.29000
Tb	Tb	0.50000 0.89965 -0.00000 2.11700
Tb	Tb	-0.00000 0.39965 -0.00000 1.95100
Tb	Tb	0.00000 0.89965 0.50000 2.11700
Tb	Tb	0.50000 0.60035 0.50000 2.29300
Tb	Tb	0.50000 0.10035 -0.00000 2.11000
Tb	Tb	0.00000 0.60035 -0.00000 1.95400
Tb	Tb	0.00000 0.10035 0.50000 2.11000
Tb	Tb	0.50000 0.50000 0.39965 2.29000
Tb	Tb	0.50000 0.00000 0.89965 2.11700
Tb	Tb	0.00000 0.50000 0.89965 2.11700
Tb	Tb	0.00000 0.00000 0.39965 1.95100
Tb	Tb	0.50000 0.50000 0.60035 2.29300
Tb	Tb	0.50000 0.00000 0.10035 2.11000
Tb	Tb	-0.00000 0.50000 0.10035 2.11000
Tb	Tb	0.00000 0.00000 0.60035 1.95500
O 	O 	0.36360 0.42290 0.50000 -0.54500
C 	C 	0.29260 0.35490 0.50000 0.05600
H 	H 	0.28420 0.38760 0.50000 0.01600
C 	C 	0.25610 0.31840 0.50000 -0.11400
H 	H 	0.22350 0.32740 0.50000 0.06400
O 	O 	0.36360 0.92290 -0.00000 -0.48600
C 	C 	0.29260 0.85490 -0.00000 0.04300
H 	H 	0.28420 0.88760 -0.00000 0.03100
C 	C 	0.25610 0.81840 -0.00000 -0.10500
H 	H 	0.22350 0.82740 -0.00000 0.06300
O 	O 	0.86360 0.42290 -0.00000 -0.53700
C 	C 	0.79260 0.35490 -0.00000 0.04200
H 	H 	0.78420 0.38760 -0.00000 0.01300
C 	C 	0.75610 0.31840 -0.00000 -0.10900
H 	H 	0.72350 0.32740 -0.00000 0.05600
O 	O 	0.86360 0.92290 0.50000 -0.47400
C 	C 	0.79260 0.85490 0.50000 0.04400
H 	H 	0.78420 0.88760 0.50000 0.04600
C 	C 	0.75610 0.81840 0.50000 -0.09000
H 	H 	0.72350 0.82740 0.50000 0.07200
O 	O 	0.63640 0.57710 0.50000 -0.54400
C 	C 	0.70740 0.64510 0.50000 0.06500
H 	H 	0.71580 0.61240 0.50000 0.02000
C 	C 	0.74390 0.68160 0.50000 -0.11700
H 	H 	0.77650 0.67260 0.50000 0.07700
O 	O 	0.63640 0.07710 -0.00000 -0.53000
C 	C 	0.70740 0.14510 -0.00000 0.05200
H 	H 	0.71580 0.11240 -0.00000 0.00900
C 	C 	0.74390 0.18160 -0.00000 -0.12000
H 	H 	0.77650 0.17260 -0.00000 0.06400
O 	O 	0.13640 0.57710 -0.00000 -0.54200
C 	C 	0.20740 0.64510 -0.00000 0.05100
H 	H 	0.21580 0.61240 -0.00000 0.00800
C 	C 	0.24390 0.68160 -0.00000 -0.12000
H 	H 	0.27650 0.67260 -0.00000 0.05900
O 	O 	0.13640 0.07710 0.50000 -0.52400
C 	C 	0.20740 0.14510 0.50000 0.05300
H 	H 	0.21580 0.11240 0.50000 0.01500
C 	C 	0.24390 0.18160 0.50000 -0.11200
H 	H 	0.27650 0.17260 0.50000 0.06300
O 	O 	0.63640 0.42290 0.50000 -0.54400
C 	C 	0.70740 0.35490 0.50000 0.06200
H 	H 	0.71580 0.38760 0.50000 0.02000
C 	C 	0.74390 0.31840 0.50000 -0.11500
H 	H 	0.77650 0.32740 0.50000 0.07500
O 	O 	0.63640 0.92290 -0.00000 -0.48500
C 	C 	0.70740 0.85490 -0.00000 0.04800
H 	H 	0.71580 0.88760 -0.00000 0.03500
C 	C 	0.74390 0.81840 -0.00000 -0.10600
H 	H 	0.77650 0.82740 -0.00000 0.07400
O 	O 	0.13640 0.42290 -0.00000 -0.54200
C 	C 	0.20740 0.35490 -0.00000 0.04800
H 	H 	0.21580 0.38760 -0.00000 0.00900
C 	C 	0.24390 0.31840 -0.00000 -0.11800
H 	H 	0.27650 0.32740 -0.00000 0.05700
O 	O 	0.13640 0.92290 0.50000 -0.47900
C 	C 	0.20740 0.85490 0.50000 0.04900
H 	H 	0.21580 0.88760 0.50000 0.04200
C 	C 	0.24390 0.81840 0.50000 -0.09800
H 	H 	0.27650 0.82740 0.50000 0.07300
O 	O 	0.36360 0.57710 0.50000 -0.54500
C 	C 	0.29260 0.64510 0.50000 0.06000
H 	H 	0.28420 0.61240 0.50000 0.01500
C 	C 	0.25610 0.68160 0.50000 -0.11600
H 	H 	0.22350 0.67260 0.50000 0.06600
O 	O 	0.36360 0.07710 -0.00000 -0.53100
C 	C 	0.29260 0.14510 -0.00000 0.04700
H 	H 	0.28420 0.11240 -0.00000 0.00500
C 	C 	0.25610 0.18160 -0.00000 -0.11900
H 	H 	0.22350 0.17260 -0.00000 0.05300
O 	O 	0.86360 0.57710 -0.00000 -0.53700
C 	C 	0.79260 0.64510 -0.00000 0.04600
H 	H 	0.78420 0.61240 -0.00000 0.01200
C 	C 	0.75610 0.68160 -0.00000 -0.11100
H 	H 	0.72350 0.67260 -0.00000 0.05800
O 	O 	0.86360 0.07710 0.50000 -0.51900
C 	C 	0.79260 0.14510 0.50000 0.04800
H 	H 	0.78420 0.11240 0.50000 0.01900
C 	C 	0.75610 0.18160 0.50000 -0.10300
H 	H 	0.72350 0.17260 0.50000 0.06200
O 	O 	0.50000 0.36360 0.42290 -0.54500
C 	C 	0.50000 0.29260 0.35490 0.05600
H 	H 	0.50000 0.28420 0.38760 0.01600
C 	C 	0.50000 0.25610 0.31840 -0.11400
H 	H 	0.50000 0.22350 0.32740 0.06400
O 	O 	0.50000 0.86360 0.92290 -0.47400
C 	C 	0.50000 0.79260 0.85490 0.04400
H 	H 	0.50000 0.78420 0.88760 0.04600
C 	C 	0.50000 0.75610 0.81840 -0.09000
H 	H 	0.50000 0.72350 0.82740 0.07200
O 	O 	0.00000 0.36360 0.92290 -0.48600
C 	C 	-0.00000 0.29260 0.85490 0.04300
H 	H 	0.00000 0.28420 0.88760 0.03100
C 	C 	0.00000 0.25610 0.81840 -0.10500
H 	H 	-0.00000 0.22350 0.82740 0.06300
O 	O 	0.00000 0.86360 0.42290 -0.53700
C 	C 	0.00000 0.79260 0.35490 0.04200
H 	H 	-0.00000 0.78420 0.38760 0.01300
C 	C 	0.00000 0.75610 0.31840 -0.10900
H 	H 	-0.00000 0.72350 0.32740 0.05600
O 	O 	0.50000 0.63640 0.57710 -0.54400
C 	C 	0.50000 0.70740 0.64510 0.06500
H 	H 	0.50000 0.71580 0.61240 0.02000
C 	C 	0.50000 0.74390 0.68160 -0.11700
H 	H 	0.50000 0.77650 0.67260 0.07700
O 	O 	0.50000 0.13640 0.07710 -0.52400
C 	C 	0.50000 0.20740 0.14510 0.05300
H 	H 	0.50000 0.21580 0.11240 0.01500
C 	C 	0.50000 0.24390 0.18160 -0.11200
H 	H 	0.50000 0.27650 0.17260 0.06300
O 	O 	0.00000 0.63640 0.07710 -0.53000
C 	C 	0.00000 0.70740 0.14510 0.05200
H 	H 	0.00000 0.71580 0.11240 0.00900
C 	C 	0.00000 0.74390 0.18160 -0.12000
H 	H 	0.00000 0.77650 0.17260 0.06400
O 	O 	0.00000 0.13640 0.57710 -0.54200
C 	C 	0.00000 0.20740 0.64510 0.05100
H 	H 	0.00000 0.21580 0.61240 0.00800
C 	C 	0.00000 0.24390 0.68160 -0.12000
H 	H 	0.00000 0.27650 0.67260 0.05900
O 	O 	0.50000 0.63640 0.42290 -0.54400
C 	C 	0.50000 0.70740 0.35490 0.06200
H 	H 	0.50000 0.71580 0.38760 0.02000
C 	C 	0.50000 0.74390 0.31840 -0.11500
H 	H 	0.50000 0.77650 0.32740 0.07500
O 	O 	0.50000 0.13640 0.92290 -0.47900
C 	C 	0.50000 0.20740 0.85490 0.04900
H 	H 	0.50000 0.21580 0.88760 0.04200
C 	C 	0.50000 0.24390 0.81840 -0.09800
H 	H 	0.50000 0.27650 0.82740 0.07300
O 	O 	0.00000 0.63640 0.92290 -0.48500
C 	C 	0.00000 0.70740 0.85490 0.04800
H 	H 	0.00000 0.71580 0.88760 0.03500
C 	C 	0.00000 0.74390 0.81840 -0.10600
H 	H 	0.00000 0.77650 0.82740 0.07400
O 	O 	0.00000 0.13640 0.42290 -0.54200
C 	C 	-0.00000 0.20740 0.35490 0.04800
H 	H 	-0.00000 0.21580 0.38760 0.00900
C 	C 	0.00000 0.24390 0.31840 -0.11800
H 	H 	-0.00000 0.27650 0.32740 0.05700
O 	O 	0.50000 0.36360 0.57710 -0.54500
C 	C 	0.50000 0.29260 0.64510 0.06000
H 	H 	0.50000 0.28420 0.61240 0.01500
C 	C 	0.50000 0.25610 0.68160 -0.11600
H 	H 	0.50000 0.22350 0.67260 0.06600
O 	O 	0.50000 0.86360 0.07710 -0.51900
C 	C 	0.50000 0.79260 0.14510 0.04800
H 	H 	0.50000 0.78420 0.11240 0.01900
C 	C 	0.50000 0.75610 0.18160 -0.10300
H 	H 	0.50000 0.72350 0.17260 0.06200
O 	O 	0.00000 0.36360 0.07710 -0.53100
C 	C 	0.00000 0.29260 0.14510 0.04700
H 	H 	-0.00000 0.28420 0.11240 0.00500
C 	C 	0.00000 0.25610 0.18160 -0.11900
H 	H 	-0.00000 0.22350 0.17260 0.05300
O 	O 	0.00000 0.86360 0.57710 -0.53700
C 	C 	0.00000 0.79260 0.64510 0.04600
H 	H 	0.00000 0.78420 0.61240 0.01200
C 	C 	0.00000 0.75610 0.68160 -0.11100
H 	H 	0.00000 0.72350 0.67260 0.05800
O 	O 	0.42290 0.50000 0.36360 -0.54500
C 	C 	0.35490 0.50000 0.29260 0.05600
H 	H 	0.38760 0.50000 0.28420 0.01600
C 	C 	0.31840 0.50000 0.25610 -0.11400
H 	H 	0.32740 0.50000 0.22350 0.06400
O 	O 	0.42290 0.00000 0.86360 -0.53700
C 	C 	0.35490 0.00000 0.79260 0.04200
H 	H 	0.38760 0.00000 0.78420 0.01300
C 	C 	0.31840 0.00000 0.75610 -0.10900
H 	H 	0.32740 0.00000 0.72350 0.05600
O 	O 	0.92290 0.50000 0.86360 -0.47400
C 	C 	0.85490 0.50000 0.79260 0.04400
H 	H 	0.88760 0.50000 0.78420 0.04600
C 	C 	0.81840 0.50000 0.75610 -0.09000
H 	H 	0.82740 0.50000 0.72350 0.07200
O 	O 	0.92290 0.00000 0.36360 -0.48600
C 	C 	0.85490 0.00000 0.29260 0.04300
H 	H 	0.88760 0.00000 0.28420 0.03100
C 	C 	0.81840 0.00000 0.25610 -0.10500
H 	H 	0.82740 0.00000 0.22350 0.06300
O 	O 	0.57710 0.50000 0.63640 -0.54400
C 	C 	0.64510 0.50000 0.70740 0.06500
H 	H 	0.61240 0.50000 0.71580 0.02000
C 	C 	0.68160 0.50000 0.74390 -0.11700
H 	H 	0.67260 0.50000 0.77650 0.07700
O 	O 	0.57710 0.00000 0.13640 -0.54200
C 	C 	0.64510 0.00000 0.20740 0.05100
H 	H 	0.61240 0.00000 0.21580 0.00800
C 	C 	0.68160 0.00000 0.24390 -0.12000
H 	H 	0.67260 0.00000 0.27650 0.05900
O 	O 	0.07710 0.50000 0.13640 -0.52400
C 	C 	0.14510 0.50000 0.20740 0.05300
H 	H 	0.11240 0.50000 0.21580 0.01500
C 	C 	0.18160 0.50000 0.24390 -0.11200
H 	H 	0.17260 0.50000 0.27650 0.06300
O 	O 	0.07710 0.00000 0.63640 -0.53000
C 	C 	0.14510 0.00000 0.70740 0.05200
H 	H 	0.11240 0.00000 0.71580 0.00900
C 	C 	0.18160 0.00000 0.74390 -0.12000
H 	H 	0.17260 0.00000 0.77650 0.06400
O 	O 	0.42290 0.50000 0.63640 -0.54400
C 	C 	0.35490 0.50000 0.70740 0.06200
H 	H 	0.38760 0.50000 0.71580 0.02000
C 	C 	0.31840 0.50000 0.74390 -0.11500
H 	H 	0.32740 0.50000 0.77650 0.07500
O 	O 	0.42290 0.00000 0.13640 -0.54200
C 	C 	0.35490 0.00000 0.20740 0.04800
H 	H 	0.38760 0.00000 0.21580 0.00900
C 	C 	0.31840 0.00000 0.24390 -0.11800
H 	H 	0.32740 0.00000 0.27650 0.05700
O 	O 	0.92290 0.50000 0.13640 -0.47900
C 	C 	0.85490 0.50000 0.20740 0.04900
H 	H 	0.88760 0.50000 0.21580 0.04200
C 	C 	0.81840 0.50000 0.24390 -0.09800
H 	H 	0.82740 0.50000 0.27650 0.07300
O 	O 	0.92290 0.00000 0.63640 -0.48500
C 	C 	0.85490 0.00000 0.70740 0.04800
H 	H 	0.88760 0.00000 0.71580 0.03500
C 	C 	0.81840 0.00000 0.74390 -0.10600
H 	H 	0.82740 0.00000 0.77650 0.07400
O 	O 	0.57710 0.50000 0.36360 -0.54500
C 	C 	0.64510 0.50000 0.29260 0.06000
H 	H 	0.61240 0.50000 0.28420 0.01500
C 	C 	0.68160 0.50000 0.25610 -0.11600
H 	H 	0.67260 0.50000 0.22350 0.06600
O 	O 	0.57710 0.00000 0.86360 -0.53700
C 	C 	0.64510 0.00000 0.79260 0.04600
H 	H 	0.61240 0.00000 0.78420 0.01200
C 	C 	0.68160 0.00000 0.75610 -0.11100
H 	H 	0.67260 0.00000 0.72350 0.05800
O 	O 	0.07710 0.50000 0.86360 -0.51900
C 	C 	0.14510 0.50000 0.79260 0.04800
H 	H 	0.11240 0.50000 0.78420 0.01900
C 	C 	0.18160 0.50000 0.75610 -0.10300
H 	H 	0.17260 0.50000 0.72350 0.06200
O 	O 	0.07710 0.00000 0.36360 -0.53100
C 	C 	0.14510 0.00000 0.29260 0.04700
H 	H 	0.11240 0.00000 0.28420 0.00500
C 	C 	0.18160 0.00000 0.25610 -0.11900
H 	H 	0.17260 0.00000 0.22350 0.05300
O 	O 	0.42290 0.36360 0.50000 -0.54500
C 	C 	0.35490 0.29260 0.50000 0.05600
H 	H 	0.38760 0.28420 0.50000 0.01600
C 	C 	0.31840 0.25610 0.50000 -0.11400
H 	H 	0.32740 0.22350 0.50000 0.06400
O 	O 	0.42290 0.86360 -0.00000 -0.53700
C 	C 	0.35490 0.79260 -0.00000 0.04200
H 	H 	0.38760 0.78420 -0.00000 0.01300
C 	C 	0.31840 0.75610 -0.00000 -0.10900
H 	H 	0.32740 0.72350 -0.00000 0.05600
O 	O 	0.92290 0.36360 -0.00000 -0.48600
C 	C 	0.85490 0.29260 -0.00000 0.04300
H 	H 	0.88760 0.28420 -0.00000 0.03100
C 	C 	0.81840 0.25610 -0.00000 -0.10500
H 	H 	0.82740 0.22350 -0.00000 0.06300
O 	O 	0.92290 0.86360 0.50000 -0.47400
C 	C 	0.85490 0.79260 0.50000 0.04400
H 	H 	0.88760 0.78420 0.50000 0.04600
C 	C 	0.81840 0.75610 0.50000 -0.09000
H 	H 	0.82740 0.72350 0.50000 0.07200
O 	O 	0.57710 0.63640 0.50000 -0.54400
C 	C 	0.64510 0.70740 0.50000 0.06500
H 	H 	0.61240 0.71580 0.50000 0.02000
C 	C 	0.68160 0.74390 0.50000 -0.11700
H 	H 	0.67260 0.77650 0.50000 0.07700
O 	O 	0.57710 0.13640 -0.00000 -0.54200
C 	C 	0.64510 0.20740 -0.00000 0.05100
H 	H 	0.61240 0.21580 -0.00000 0.00800
C 	C 	0.68160 0.24390 -0.00000 -0.12000
H 	H 	0.67260 0.27650 -0.00000 0.05900
O 	O 	0.07710 0.63640 -0.00000 -0.53000
C 	C 	0.14510 0.70740 -0.00000 0.05200
H 	H 	0.11240 0.71580 -0.00000 0.00900
C 	C 	0.18160 0.74390 -0.00000 -0.12000
H 	H 	0.17260 0.77650 -0.00000 0.06400
O 	O 	0.07710 0.13640 0.50000 -0.52400
C 	C 	0.14510 0.20740 0.50000 0.05300
H 	H 	0.11240 0.21580 0.50000 0.01500
C 	C 	0.18160 0.24390 0.50000 -0.11200
H 	H 	0.17260 0.27650 0.50000 0.06300
O 	O 	0.42290 0.63640 0.50000 -0.54400
C 	C 	0.35490 0.70740 0.50000 0.06200
H 	H 	0.38760 0.71580 0.50000 0.02000
C 	C 	0.31840 0.74390 0.50000 -0.11500
H 	H 	0.32740 0.77650 0.50000 0.07500
O 	O 	0.42290 0.13640 -0.00000 -0.54200
C 	C 	0.35490 0.20740 -0.00000 0.04800
H 	H 	0.38760 0.21580 -0.00000 0.00900
C 	C 	0.31840 0.24390 -0.00000 -0.11800
H 	H 	0.32740 0.27650 -0.00000 0.05700
O 	O 	0.92290 0.63640 -0.00000 -0.48500
C 	C 	0.85490 0.70740 -0.00000 0.04800
H 	H 	0.88760 0.71580 -0.00000 0.03500
C 	C 	0.81840 0.74390 -0.00000 -0.10600
H 	H 	0.82740 0.77650 -0.00000 0.07400
O 	O 	0.92290 0.13640 0.50000 -0.47900
C 	C 	0.85490 0.20740 0.50000 0.04900
H 	H 	0.88760 0.21580 0.50000 0.04200
C 	C 	0.81840 0.24390 0.50000 -0.09800
H 	H 	0.82740 0.27650 0.50000 0.07300
O 	O 	0.57710 0.36360 0.50000 -0.54500
C 	C 	0.64510 0.29260 0.50000 0.06000
H 	H 	0.61240 0.28420 0.50000 0.01500
C 	C 	0.68160 0.25610 0.50000 -0.11600
H 	H 	0.67260 0.22350 0.50000 0.06600
O 	O 	0.57710 0.86360 -0.00000 -0.53700
C 	C 	0.64510 0.79260 -0.00000 0.04600
H 	H 	0.61240 0.78420 -0.00000 0.01200
C 	C 	0.68160 0.75610 -0.00000 -0.11100
H 	H 	0.67260 0.72350 -0.00000 0.05800
O 	O 	0.07710 0.36360 -0.00000 -0.53100
C 	C 	0.14510 0.29260 -0.00000 0.04700
H 	H 	0.11240 0.28420 -0.00000 0.00500
C 	C 	0.18160 0.25610 -0.00000 -0.11900
H 	H 	0.17260 0.22350 -0.00000 0.05300
O 	O 	0.07710 0.86360 0.50000 -0.51900
C 	C 	0.14510 0.79260 0.50000 0.04800
H 	H 	0.11240 0.78420 0.50000 0.01900
C 	C 	0.18160 0.75610 0.50000 -0.10300
H 	H 	0.17260 0.72350 0.50000 0.06200
O 	O 	0.36360 0.50000 0.57710 -0.54500
C 	C 	0.29260 0.50000 0.64510 0.06000
H 	H 	0.28420 0.50000 0.61240 0.01500
C 	C 	0.25610 0.50000 0.68160 -0.11600
H 	H 	0.22350 0.50000 0.67260 0.06600
O 	O 	0.36360 0.00000 0.07710 -0.53100
C 	C 	0.29260 0.00000 0.14510 0.04700
H 	H 	0.28420 0.00000 0.11240 0.00500
C 	C 	0.25610 0.00000 0.18160 -0.11900
H 	H 	0.22350 0.00000 0.17260 0.05300
O 	O 	0.86360 0.50000 0.07710 -0.51900
C 	C 	0.79260 0.50000 0.14510 0.04800
H 	H 	0.78420 0.50000 0.11240 0.01900
C 	C 	0.75610 0.50000 0.18160 -0.10300
H 	H 	0.72350 0.50000 0.17260 0.06200
O 	O 	0.86360 0.00000 0.57710 -0.53700
C 	C 	0.79260 0.00000 0.64510 0.04600
H 	H 	0.78420 0.00000 0.61240 0.01200
C 	C 	0.75610 0.00000 0.68160 -0.11100
H 	H 	0.72350 0.00000 0.67260 0.05800
O 	O 	0.63640 0.50000 0.42290 -0.54400
C 	C 	0.70740 0.50000 0.35490 0.06200
H 	H 	0.71580 0.50000 0.38760 0.02000
C 	C 	0.74390 0.50000 0.31840 -0.11500
H 	H 	0.77650 0.50000 0.32740 0.07500
O 	O 	0.63640 0.00000 0.92290 -0.48500
C 	C 	0.70740 0.00000 0.85490 0.04800
H 	H 	0.71580 0.00000 0.88760 0.03500
C 	C 	0.74390 0.00000 0.81840 -0.10600
H 	H 	0.77650 0.00000 0.82740 0.07400
O 	O 	0.13640 0.50000 0.92290 -0.47900
C 	C 	0.20740 0.50000 0.85490 0.04900
H 	H 	0.21580 0.50000 0.88760 0.04200
C 	C 	0.24390 0.50000 0.81840 -0.09800
H 	H 	0.27650 0.50000 0.82740 0.07300
O 	O 	0.13640 0.00000 0.42290 -0.54200
C 	C 	0.20740 0.00000 0.35490 0.04800
H 	H 	0.21580 0.00000 0.38760 0.00900
C 	C 	0.24390 0.00000 0.31840 -0.11800
H 	H 	0.27650 0.00000 0.32740 0.05700
O 	O 	0.63640 0.50000 0.57710 -0.54400
C 	C 	0.70740 0.50000 0.64510 0.06500
H 	H 	0.71580 0.50000 0.61240 0.02000
C 	C 	0.74390 0.50000 0.68160 -0.11700
H 	H 	0.77650 0.50000 0.67260 0.07700
O 	O 	0.63640 0.00000 0.07710 -0.53000
C 	C 	0.70740 0.00000 0.14510 0.05200
H 	H 	0.71580 0.00000 0.11240 0.00900
C 	C 	0.74390 0.00000 0.18160 -0.12000
H 	H 	0.77650 0.00000 0.17260 0.06400
O 	O 	0.13640 0.50000 0.07710 -0.52400
C 	C 	0.20740 0.50000 0.14510 0.05300
H 	H 	0.21580 0.50000 0.11240 0.01500
C 	C 	0.24390 0.50000 0.18160 -0.11200
H 	H 	0.27650 0.50000 0.17260 0.06300
O 	O 	0.13640 0.00000 0.57710 -0.54200
C 	C 	0.20740 0.00000 0.64510 0.05100
H 	H 	0.21580 0.00000 0.61240 0.00800
C 	C 	0.24390 0.00000 0.68160 -0.12000
H 	H 	0.27650 0.00000 0.67260 0.05900
O 	O 	0.36360 0.50000 0.42290 -0.54500
C 	C 	0.29260 0.50000 0.35490 0.05600
H 	H 	0.28420 0.50000 0.38760 0.01600
C 	C 	0.25610 0.50000 0.31840 -0.11400
H 	H 	0.22350 0.50000 0.32740 0.06400
O 	O 	0.36360 0.00000 0.92290 -0.48600
C 	C 	0.29260 0.00000 0.85490 0.04300
H 	H 	0.28420 0.00000 0.88760 0.03100
C 	C 	0.25610 0.00000 0.81840 -0.10500
H 	H 	0.22350 0.00000 0.82740 0.06300
O 	O 	0.86360 0.50000 0.92290 -0.47400
C 	C 	0.79260 0.50000 0.85490 0.04400
H 	H 	0.78420 0.50000 0.88760 0.04600
C 	C 	0.75610 0.50000 0.81840 -0.09000
H 	H 	0.72350 0.50000 0.82740 0.07200
O 	O 	0.86360 0.00000 0.42290 -0.53700
C 	C 	0.79260 0.00000 0.35490 0.04200
H 	H 	0.78420 0.00000 0.38760 0.01300
C 	C 	0.75610 0.00000 0.31840 -0.10900
H 	H 	0.72350 0.00000 0.32740 0.05600
O 	O 	0.50000 0.42290 0.63640 -0.54400
C 	C 	0.50000 0.35490 0.70740 0.06200
H 	H 	0.50000 0.38760 0.71580 0.02000
C 	C 	0.50000 0.31840 0.74390 -0.11500
H 	H 	0.50000 0.32740 0.77650 0.07500
O 	O 	0.50000 0.92290 0.13640 -0.47900
C 	C 	0.50000 0.85490 0.20740 0.04900
H 	H 	0.50000 0.88760 0.21580 0.04200
C 	C 	0.50000 0.81840 0.24390 -0.09800
H 	H 	0.50000 0.82740 0.27650 0.07300
O 	O 	0.00000 0.42290 0.13640 -0.54200
C 	C 	0.00000 0.35490 0.20740 0.04800
H 	H 	0.00000 0.38760 0.21580 0.00900
C 	C 	0.00000 0.31840 0.24390 -0.11800
H 	H 	0.00000 0.32740 0.27650 0.05700
O 	O 	-0.00000 0.92290 0.63640 -0.48500
C 	C 	0.00000 0.85490 0.70740 0.04800
H 	H 	0.00000 0.88760 0.71580 0.03500
C 	C 	0.00000 0.81840 0.74390 -0.10600
H 	H 	0.00000 0.82740 0.77650 0.07400
O 	O 	0.50000 0.57710 0.36360 -0.54500
C 	C 	0.50000 0.64510 0.29260 0.06000
H 	H 	0.50000 0.61240 0.28420 0.01500
C 	C 	0.50000 0.68160 0.25610 -0.11600
H 	H 	0.50000 0.67260 0.22350 0.06600
O 	O 	0.50000 0.07710 0.86360 -0.51900
C 	C 	0.50000 0.14510 0.79260 0.04800
H 	H 	0.50000 0.11240 0.78420 0.01900
C 	C 	0.50000 0.18160 0.75610 -0.10300
H 	H 	0.50000 0.17260 0.72350 0.06200
O 	O 	0.00000 0.57710 0.86360 -0.53700
C 	C 	0.00000 0.64510 0.79260 0.04600
H 	H 	0.00000 0.61240 0.78420 0.01200
C 	C 	0.00000 0.68160 0.75610 -0.11100
H 	H 	0.00000 0.67260 0.72350 0.05800
O 	O 	0.00000 0.07710 0.36360 -0.53100
C 	C 	0.00000 0.14510 0.29260 0.04700
H 	H 	-0.00000 0.11240 0.28420 0.00500
C 	C 	0.00000 0.18160 0.25610 -0.11900
H 	H 	0.00000 0.17260 0.22350 0.05300
O 	O 	0.50000 0.42290 0.36360 -0.54500
C 	C 	0.50000 0.35490 0.29260 0.05600
H 	H 	0.50000 0.38760 0.28420 0.01600
C 	C 	0.50000 0.31840 0.25610 -0.11400
H 	H 	0.50000 0.32740 0.22350 0.06400
O 	O 	0.50000 0.92290 0.86360 -0.47400
C 	C 	0.50000 0.85490 0.79260 0.04400
H 	H 	0.50000 0.88760 0.78420 0.04600
C 	C 	0.50000 0.81840 0.75610 -0.09000
H 	H 	0.50000 0.82740 0.72350 0.07200
O 	O 	0.00000 0.42290 0.86360 -0.53700
C 	C 	0.00000 0.35490 0.79260 0.04200
H 	H 	0.00000 0.38760 0.78420 0.01300
C 	C 	0.00000 0.31840 0.75610 -0.10900
H 	H 	-0.00000 0.32740 0.72350 0.05600
O 	O 	-0.00000 0.92290 0.36360 -0.48600
C 	C 	-0.00000 0.85490 0.29260 0.04300
H 	H 	0.00000 0.88760 0.28420 0.03100
C 	C 	0.00000 0.81840 0.25610 -0.10500
H 	H 	-0.00000 0.82740 0.22350 0.06300
O 	O 	0.50000 0.57710 0.63640 -0.54400
C 	C 	0.50000 0.64510 0.70740 0.06500
H 	H 	0.50000 0.61240 0.71580 0.02000
C 	C 	0.50000 0.68160 0.74390 -0.11700
H 	H 	0.50000 0.67260 0.77650 0.07700
O 	O 	0.50000 0.07710 0.13640 -0.52400
C 	C 	0.50000 0.14510 0.20740 0.05300
H 	H 	0.50000 0.11240 0.21580 0.01500
C 	C 	0.50000 0.18160 0.24390 -0.11200
H 	H 	0.50000 0.17260 0.27650 0.06300
O 	O 	0.00000 0.57710 0.13640 -0.54200
C 	C 	0.00000 0.64510 0.20740 0.05100
H 	H 	0.00000 0.61240 0.21580 0.00800
C 	C 	0.00000 0.68160 0.24390 -0.12000
H 	H 	0.00000 0.67260 0.27650 0.05900
O 	O 	0.00000 0.07710 0.63640 -0.53000
C 	C 	0.00000 0.14510 0.70740 0.05200
H 	H 	0.00000 0.11240 0.71580 0.00900
C 	C 	0.00000 0.18160 0.74390 -0.12000
H 	H 	0.00000 0.17260 0.77650 0.06400
O 	O 	0.45351 0.45351 0.45351 -0.98900
H 	H 	0.43570 0.43570 0.43570 0.32400
O 	O 	0.45351 0.95351 0.95351 -0.83500
H 	H 	0.43570 0.93570 0.93570 0.32800
O 	O 	0.95351 0.45351 0.95351 -0.83500
H 	H 	0.93570 0.43570 0.93570 0.32800
O 	O 	0.95351 0.95351 0.45351 -0.83500
H 	H 	0.93570 0.93570 0.43570 0.32800
O 	O 	0.54649 0.54649 0.45351 -0.99000
H 	H 	0.56430 0.56430 0.43570 0.32500
O 	O 	0.54649 0.04649 0.95351 -0.89400
H 	H 	0.56430 0.06430 0.93570 0.32700
O 	O 	0.04649 0.54649 0.95351 -0.89400
H 	H 	0.06430 0.56430 0.93570 0.32700
O 	O 	0.04649 0.04649 0.45351 -0.95300
H 	H 	0.06430 0.06430 0.43570 0.32400
O 	O 	0.54649 0.45351 0.54649 -0.99000
H 	H 	0.56430 0.43570 0.56430 0.32500
O 	O 	0.54649 0.95351 0.04649 -0.89400
H 	H 	0.56430 0.93570 0.06430 0.32700
O 	O 	0.04649 0.45351 0.04649 -0.95300
H 	H 	0.06430 0.43570 0.06430 0.32400
O 	O 	0.04649 0.95351 0.54649 -0.89400
H 	H 	0.06430 0.93570 0.56430 0.32700
O 	O 	0.45351 0.54649 0.54649 -0.99000
H 	H 	0.43570 0.56430 0.56430 0.32500
O 	O 	0.45351 0.04649 0.04649 -0.95300
H 	H 	0.43570 0.06430 0.06430 0.32400
O 	O 	0.95351 0.54649 0.04649 -0.89400
H 	H 	0.93570 0.56430 0.06430 0.32700
O 	O 	0.95351 0.04649 0.54649 -0.89400
H 	H 	0.93570 0.06430 0.56430 0.32700
O 	O 	0.45351 0.45351 0.54649 -0.98900
H 	H 	0.43570 0.43570 0.56430 0.32400
O 	O 	0.45351 0.95351 0.04649 -0.89300
H 	H 	0.43570 0.93570 0.06430 0.32600
O 	O 	0.95351 0.45351 0.04649 -0.89300
H 	H 	0.93570 0.43570 0.06430 0.32600
O 	O 	0.95351 0.95351 0.54649 -0.83600
H 	H 	0.93570 0.93570 0.56430 0.32900
O 	O 	0.54649 0.54649 0.54649 -0.99000
H 	H 	0.56430 0.56430 0.56430 0.32500
O 	O 	0.54649 0.04649 0.04649 -0.95300
H 	H 	0.56430 0.06430 0.06430 0.32500
O 	O 	0.04649 0.54649 0.04649 -0.95300
H 	H 	0.06430 0.56430 0.06430 0.32500
O 	O 	0.04649 0.04649 0.54649 -0.95300
H 	H 	0.06430 0.06430 0.56430 0.32500
O 	O 	0.45351 0.54649 0.45351 -0.98900
H 	H 	0.43570 0.56430 0.43570 0.32400
O 	O 	0.45351 0.04649 0.95351 -0.89300
H 	H 	0.43570 0.06430 0.93570 0.32600
O 	O 	0.95351 0.54649 0.95351 -0.83600
H 	H 	0.93570 0.56430 0.93570 0.32900
O 	O 	0.95351 0.04649 0.45351 -0.89300
H 	H 	0.93570 0.06430 0.43570 0.32600
O 	O 	0.54649 0.45351 0.45351 -0.98900
H 	H 	0.56430 0.43570 0.43570 0.32400
O 	O 	0.54649 0.95351 0.95351 -0.83600
H 	H 	0.56430 0.93570 0.93570 0.32900
O 	O 	0.04649 0.45351 0.95351 -0.89300
H 	H 	0.06430 0.43570 0.93570 0.32600
O 	O 	0.04649 0.95351 0.45351 -0.89300
H 	H 	0.06430 0.93570 0.43570 0.32600
C 	C 	0.37950 0.37950 0.50000 0.45500
C 	C 	0.34090 0.34090 0.50000 -0.15700
C 	C 	0.26870 0.26870 0.50000 0.04300
C 	C 	0.37950 0.87950 -0.00000 0.42700
C 	C 	0.34090 0.84090 -0.00000 -0.14200
C 	C 	0.26870 0.76870 -0.00000 0.03400
C 	C 	0.87950 0.37950 -0.00000 0.42700
C 	C 	0.84090 0.34090 -0.00000 -0.14200
C 	C 	0.76870 0.26870 -0.00000 0.03400
C 	C 	0.87950 0.87950 0.50000 0.43100
C 	C 	0.84090 0.84090 0.50000 -0.11700
C 	C 	0.76870 0.76870 0.50000 0.03800
C 	C 	0.62050 0.62050 0.50000 0.45700
C 	C 	0.65910 0.65910 0.50000 -0.15800
C 	C 	0.73130 0.73130 0.50000 0.05700
C 	C 	0.62050 0.12050 -0.00000 0.43400
C 	C 	0.65910 0.15910 -0.00000 -0.15900
C 	C 	0.73130 0.23130 -0.00000 0.04300
C 	C 	0.12050 0.62050 -0.00000 0.43400
C 	C 	0.15910 0.65910 -0.00000 -0.15900
C 	C 	0.23130 0.73130 -0.00000 0.04300
C 	C 	0.12050 0.12050 0.50000 0.44300
C 	C 	0.15910 0.15910 0.50000 -0.15100
C 	C 	0.23130 0.23130 0.50000 0.04100
C 	C 	0.62050 0.37950 0.50000 0.45600
C 	C 	0.65910 0.34090 0.50000 -0.15700
C 	C 	0.73130 0.26870 0.50000 0.05000
C 	C 	0.62050 0.87950 -0.00000 0.42800
C 	C 	0.65910 0.84090 -0.00000 -0.14200
C 	C 	0.73130 0.76870 -0.00000 0.04100
C 	C 	0.12050 0.37950 -0.00000 0.43300
C 	C 	0.15910 0.34090 -0.00000 -0.15900
C 	C 	0.23130 0.26870 -0.00000 0.03600
C 	C 	0.12050 0.87950 0.50000 0.43700
C 	C 	0.15910 0.84090 0.50000 -0.13400
C 	C 	0.23130 0.76870 0.50000 0.04000
C 	C 	0.37950 0.62050 0.50000 0.45600
C 	C 	0.34090 0.65910 0.50000 -0.15700
C 	C 	0.26870 0.73130 0.50000 0.05000
C 	C 	0.37950 0.12050 -0.00000 0.43300
C 	C 	0.34090 0.15910 -0.00000 -0.15900
C 	C 	0.26870 0.23130 -0.00000 0.03600
C 	C 	0.87950 0.62050 -0.00000 0.42800
C 	C 	0.84090 0.65910 -0.00000 -0.14200
C 	C 	0.76870 0.73130 -0.00000 0.04100
C 	C 	0.87950 0.12050 0.50000 0.43700
C 	C 	0.84090 0.15910 0.50000 -0.13400
C 	C 	0.76870 0.23130 0.50000 0.04000
C 	C 	0.50000 0.37950 0.37950 0.45500
C 	C 	0.50000 0.34090 0.34090 -0.15700
C 	C 	0.50000 0.26870 0.26870 0.04300
C 	C 	0.50000 0.87950 0.87950 0.43100
C 	C 	0.50000 0.84090 0.84090 -0.11700
C 	C 	0.50000 0.76870 0.76870 0.03800
C 	C 	0.00000 0.37950 0.87950 0.42700
C 	C 	-0.00000 0.34090 0.84090 -0.14200
C 	C 	0.00000 0.26870 0.76870 0.03400
C 	C 	0.00000 0.87950 0.37950 0.42700
C 	C 	0.00000 0.84090 0.34090 -0.14200
C 	C 	0.00000 0.76870 0.26870 0.03400
C 	C 	0.50000 0.62050 0.62050 0.45700
C 	C 	0.50000 0.65910 0.65910 -0.15800
C 	C 	0.50000 0.73130 0.73130 0.05700
C 	C 	0.50000 0.12050 0.12050 0.44300
C 	C 	0.50000 0.15910 0.15910 -0.15100
C 	C 	0.50000 0.23130 0.23130 0.04100
C 	C 	0.00000 0.62050 0.12050 0.43400
C 	C 	-0.00000 0.65910 0.15910 -0.15900
C 	C 	0.00000 0.73130 0.23130 0.04300
C 	C 	0.00000 0.12050 0.62050 0.43400
C 	C 	-0.00000 0.15910 0.65910 -0.15900
C 	C 	0.00000 0.23130 0.73130 0.04300
C 	C 	0.50000 0.62050 0.37950 0.45600
C 	C 	0.50000 0.65910 0.34090 -0.15700
C 	C 	0.50000 0.73130 0.26870 0.05000
C 	C 	0.50000 0.12050 0.87950 0.43700
C 	C 	0.50000 0.15910 0.84090 -0.13400
C 	C 	0.50000 0.23130 0.76870 0.04000
C 	C 	0.00000 0.62050 0.87950 0.42800
C 	C 	0.00000 0.65910 0.84090 -0.14200
C 	C 	0.00000 0.73130 0.76870 0.04100
C 	C 	0.00000 0.12050 0.37950 0.43300
C 	C 	0.00000 0.15910 0.34090 -0.15900
C 	C 	-0.00000 0.23130 0.26870 0.03600
C 	C 	0.50000 0.37950 0.62050 0.45600
C 	C 	0.50000 0.34090 0.65910 -0.15700
C 	C 	0.50000 0.26870 0.73130 0.05000
C 	C 	0.50000 0.87950 0.12050 0.43700
C 	C 	0.50000 0.84090 0.15910 -0.13400
C 	C 	0.50000 0.76870 0.23130 0.04000
C 	C 	0.00000 0.37950 0.12050 0.43300
C 	C 	0.00000 0.34090 0.15910 -0.15900
C 	C 	0.00000 0.26870 0.23130 0.03600
C 	C 	0.00000 0.87950 0.62050 0.42800
C 	C 	0.00000 0.84090 0.65910 -0.14200
C 	C 	0.00000 0.76870 0.73130 0.04100
C 	C 	0.37950 0.50000 0.37950 0.45500
C 	C 	0.34090 0.50000 0.34090 -0.15700
C 	C 	0.26870 0.50000 0.26870 0.04300
C 	C 	0.37950 0.00000 0.87950 0.42700
C 	C 	0.34090 0.00000 0.84090 -0.14200
C 	C 	0.26870 0.00000 0.76870 0.03400
C 	C 	0.87950 0.50000 0.87950 0.43100
C 	C 	0.84090 0.50000 0.84090 -0.11700
C 	C 	0.76870 0.50000 0.76870 0.03800
C 	C 	0.87950 0.00000 0.37950 0.42700
C 	C 	0.84090 0.00000 0.34090 -0.14200
C 	C 	0.76870 0.00000 0.26870 0.03400
C 	C 	0.62050 0.50000 0.62050 0.45700
C 	C 	0.65910 0.50000 0.65910 -0.15800
C 	C 	0.73130 0.50000 0.73130 0.05700
C 	C 	0.62050 0.00000 0.12050 0.43400
C 	C 	0.65910 0.00000 0.15910 -0.15900
C 	C 	0.73130 0.00000 0.23130 0.04300
C 	C 	0.12050 0.50000 0.12050 0.44300
C 	C 	0.15910 0.50000 0.15910 -0.15100
C 	C 	0.23130 0.50000 0.23130 0.04100
C 	C 	0.12050 0.00000 0.62050 0.43400
C 	C 	0.15910 0.00000 0.65910 -0.15900
C 	C 	0.23130 0.00000 0.73130 0.04300
C 	C 	0.37950 0.50000 0.62050 0.45600
C 	C 	0.34090 0.50000 0.65910 -0.15700
C 	C 	0.26870 0.50000 0.73130 0.05000
C 	C 	0.37950 0.00000 0.12050 0.43300
C 	C 	0.34090 0.00000 0.15910 -0.15900
C 	C 	0.26870 0.00000 0.23130 0.03600
C 	C 	0.87950 0.50000 0.12050 0.43700
C 	C 	0.84090 0.50000 0.15910 -0.13400
C 	C 	0.76870 0.50000 0.23130 0.04000
C 	C 	0.87950 0.00000 0.62050 0.42800
C 	C 	0.84090 0.00000 0.65910 -0.14200
C 	C 	0.76870 0.00000 0.73130 0.04100
C 	C 	0.62050 0.50000 0.37950 0.45600
C 	C 	0.65910 0.50000 0.34090 -0.15700
C 	C 	0.73130 0.50000 0.26870 0.05000
C 	C 	0.62050 0.00000 0.87950 0.42800
C 	C 	0.65910 0.00000 0.84090 -0.14200
C 	C 	0.73130 0.00000 0.76870 0.04100
C 	C 	0.12050 0.50000 0.87950 0.43700
C 	C 	0.15910 0.50000 0.84090 -0.13400
C 	C 	0.23130 0.50000 0.76870 0.04000
C 	C 	0.12050 0.00000 0.37950 0.43300
C 	C 	0.15910 0.00000 0.34090 -0.15900
C 	C 	0.23130 0.00000 0.26870 0.03600
