data_crystal

_cell_length_a 28.94160
_cell_length_b 28.94160
_cell_length_c 28.94160
_cell_angle_alpha 90.00000
_cell_angle_beta  90.00000
_cell_angle_gamma 90.00000

_symmetry_space_group_name_	'P 1'
_symmetry_space_group_name_H-M	'P 1'

loop_
_symmetry_equiv_pos_as_xyz
  x,y,z

loop_
_atom_site_label
_atom_site_type_symbol
_atom_site_fract_x
_atom_site_fract_y
_atom_site_fract_z
_atom_site_charge
O 	O 	0.26850 0.33370 0.45270 -0.40500
O 	O 	0.21220 0.27850 0.45250 -0.40200
O 	O 	0.26560 0.45240 0.33430 -0.38900
O 	O 	0.21150 0.45210 0.27800 -0.39500
C 	C 	0.23230 0.31400 0.43770 0.33400
C 	C 	0.23330 0.43420 0.31120 0.32500
C 	C 	0.20870 0.33530 0.39490 -0.05100
C 	C 	0.17130 0.31400 0.37370 -0.03200
H 	H 	0.15880 0.28630 0.38620 0.06000
C 	C 	0.15200 0.33310 0.33410 0.00900
C 	C 	0.17020 0.37360 0.31570 -0.03600
H 	H 	0.15700 0.38670 0.28860 0.06100
C 	C 	0.20760 0.39490 0.33690 -0.04500
C 	C 	0.22690 0.37580 0.37650 -0.00400
H 	H 	0.25250 0.39040 0.39100 0.06500
C 	C 	0.04170 0.26320 0.26170 0.01300
C 	C 	0.07040 0.23880 0.29150 -0.01000
H 	H 	0.06570 0.20660 0.29610 0.06400
C 	C 	0.10590 0.26140 0.31460 -0.06400
H 	H 	0.12550 0.24470 0.33490 0.06400
C 	C 	0.11280 0.30850 0.30780 0.03000
C 	C 	0.08410 0.33290 0.27810 -0.05800
H 	H 	0.08870 0.36510 0.27350 0.05700
C 	C 	0.04850 0.31030 0.25500 -0.03700
H 	H 	0.02890 0.32700 0.23470 0.06600
O 	O 	0.00070 0.19260 0.25070 0.20900
H 	H 	0.00070 0.18810 0.27840 -0.35400
C 	C 	0.99800 0.24740 0.18910 -0.29400
H 	H 	0.02910 0.24040 0.17570 0.11300
C 	C 	0.98500 0.29750 0.17760 0.89300
H 	H 	0.96070 0.29780 0.15400 -0.20200
H 	H 	0.01220 0.31390 0.16590 -0.18900
H 	H 	0.97370 0.31300 0.20550 -0.22000
N 	N 	0.96380 0.21480 0.16970 -0.18700
H 	H 	0.96030 0.18600 0.17880 0.12100
C 	C 	0.93730 0.23600 0.13440 0.26300
O 	O 	0.91300 0.27100 0.14400 -0.20400
O 	O 	0.94900 0.22800 0.08780 -0.11800
C 	C 	0.96550 0.17900 0.08380 -0.30200
C 	C 	0.94820 0.15830 0.03760 0.33800
H 	H 	0.96020 0.17670 0.01180 -0.12800
H 	H 	0.91440 0.15880 0.03700 -1.02400
H 	H 	0.95910 0.12640 0.03470 -0.12800
C 	C 	0.94460 0.15060 0.12410 -0.08400
H 	H 	0.92290 0.17000 0.14140 0.07000
H 	H 	0.96950 0.14040 0.14470 0.04700
H 	H 	0.92840 0.12360 0.11170 0.07200
C 	C 	0.01880 0.17480 0.08560 1.40800
H 	H 	0.03240 0.19360 0.06090 -0.29500
H 	H 	0.02770 0.14240 0.08140 0.29300
H 	H 	0.02990 0.18580 0.11560 -0.27100
O 	O 	0.73150 0.66630 0.45270 -0.40400
O 	O 	0.78780 0.72150 0.45250 -0.40100
O 	O 	0.73440 0.54760 0.33430 -0.38900
O 	O 	0.78850 0.54790 0.27800 -0.39400
C 	C 	0.76770 0.68600 0.43770 0.33400
C 	C 	0.76670 0.56580 0.31120 0.32500
C 	C 	0.79130 0.66470 0.39490 -0.05100
C 	C 	0.82870 0.68600 0.37370 -0.03300
H 	H 	0.84120 0.71370 0.38620 0.06000
C 	C 	0.84800 0.66690 0.33410 0.01000
C 	C 	0.82980 0.62640 0.31570 -0.03600
H 	H 	0.84300 0.61330 0.28860 0.06100
C 	C 	0.79240 0.60510 0.33690 -0.04500
C 	C 	0.77310 0.62420 0.37650 -0.00400
H 	H 	0.74750 0.60960 0.39100 0.06500
C 	C 	0.95830 0.73680 0.26170 0.01500
C 	C 	0.92960 0.76120 0.29150 -0.01200
H 	H 	0.93430 0.79340 0.29610 0.06400
C 	C 	0.89410 0.73860 0.31460 -0.06300
H 	H 	0.87450 0.75530 0.33490 0.06400
C 	C 	0.88720 0.69150 0.30780 0.02900
C 	C 	0.91590 0.66710 0.27810 -0.05700
H 	H 	0.91130 0.63490 0.27350 0.05700
C 	C 	0.95150 0.68970 0.25500 -0.03700
H 	H 	0.97110 0.67300 0.23470 0.06700
O 	O 	0.99930 0.80740 0.25070 0.21100
H 	H 	0.99930 0.81190 0.27840 -0.34900
C 	C 	0.00200 0.75260 0.18910 -0.29300
H 	H 	0.97090 0.75960 0.17570 0.11500
C 	C 	0.01500 0.70250 0.17760 0.90200
H 	H 	0.03930 0.70220 0.15400 -0.20600
H 	H 	0.98780 0.68610 0.16590 -0.18900
H 	H 	0.02630 0.68700 0.20550 -0.22400
N 	N 	0.03620 0.78520 0.16970 -0.18800
H 	H 	0.03970 0.81400 0.17880 0.12100
C 	C 	0.06270 0.76400 0.13440 0.26300
O 	O 	0.08700 0.72900 0.14400 -0.20400
O 	O 	0.05100 0.77200 0.08780 -0.11900
C 	C 	0.03450 0.82100 0.08380 -0.30000
C 	C 	0.05180 0.84170 0.03760 0.33400
H 	H 	0.03980 0.82330 0.01180 -0.12800
H 	H 	0.08560 0.84120 0.03700 -1.02100
H 	H 	0.04090 0.87360 0.03470 -0.12800
C 	C 	0.05540 0.84940 0.12410 -0.08600
H 	H 	0.07710 0.83000 0.14140 0.07100
H 	H 	0.03050 0.85960 0.14470 0.04700
H 	H 	0.07160 0.87640 0.11170 0.07300
C 	C 	0.98120 0.82520 0.08560 1.39700
H 	H 	0.96760 0.80640 0.06090 -0.29100
H 	H 	0.97230 0.85760 0.08140 0.29200
H 	H 	0.97010 0.81420 0.11560 -0.26800
O 	O 	0.73150 0.33370 0.54730 -0.40400
O 	O 	0.78780 0.27850 0.54750 -0.40200
O 	O 	0.73440 0.45240 0.66570 -0.38900
O 	O 	0.78850 0.45210 0.72200 -0.39400
C 	C 	0.76770 0.31400 0.56230 0.33400
C 	C 	0.76670 0.43420 0.68880 0.32500
C 	C 	0.79130 0.33530 0.60510 -0.05100
C 	C 	0.82870 0.31400 0.62630 -0.03300
H 	H 	0.84120 0.28630 0.61380 0.06000
C 	C 	0.84800 0.33310 0.66590 0.01000
C 	C 	0.82980 0.37360 0.68430 -0.03600
H 	H 	0.84300 0.38670 0.71140 0.06100
C 	C 	0.79240 0.39490 0.66310 -0.04500
C 	C 	0.77310 0.37580 0.62350 -0.00400
H 	H 	0.74750 0.39040 0.60900 0.06500
C 	C 	0.95830 0.26320 0.73830 0.01500
C 	C 	0.92960 0.23880 0.70850 -0.01200
H 	H 	0.93430 0.20660 0.70390 0.06400
C 	C 	0.89410 0.26140 0.68540 -0.06300
H 	H 	0.87450 0.24470 0.66510 0.06400
C 	C 	0.88720 0.30850 0.69220 0.02900
C 	C 	0.91590 0.33290 0.72190 -0.05600
H 	H 	0.91130 0.36510 0.72650 0.05700
C 	C 	0.95150 0.31030 0.74500 -0.03700
H 	H 	0.97110 0.32700 0.76530 0.06700
O 	O 	0.99930 0.19260 0.74930 0.21100
H 	H 	0.99930 0.18810 0.72160 -0.34900
C 	C 	0.00200 0.24740 0.81090 -0.29300
H 	H 	0.97090 0.24040 0.82430 0.11500
C 	C 	0.01500 0.29750 0.82240 0.90300
H 	H 	0.03930 0.29780 0.84600 -0.20600
H 	H 	0.98780 0.31390 0.83410 -0.18900
H 	H 	0.02630 0.31300 0.79450 -0.22400
N 	N 	0.03620 0.21480 0.83030 -0.18800
H 	H 	0.03970 0.18600 0.82120 0.12100
C 	C 	0.06270 0.23600 0.86560 0.26300
O 	O 	0.08700 0.27100 0.85600 -0.20300
O 	O 	0.05100 0.22800 0.91220 -0.11900
C 	C 	0.03450 0.17900 0.91620 -0.30000
C 	C 	0.05180 0.15830 0.96240 0.32600
H 	H 	0.03980 0.17670 0.98820 -0.12400
H 	H 	0.08560 0.15880 0.96300 -1.01200
H 	H 	0.04090 0.12640 0.96530 -0.12400
C 	C 	0.05540 0.15060 0.87590 -0.08700
H 	H 	0.07710 0.17000 0.85860 0.07100
H 	H 	0.03050 0.14040 0.85530 0.04700
H 	H 	0.07160 0.12360 0.88830 0.07300
C 	C 	0.98120 0.17480 0.91440 1.40000
H 	H 	0.96760 0.19360 0.93910 -0.29200
H 	H 	0.97230 0.14240 0.91860 0.29200
H 	H 	0.97010 0.18580 0.88440 -0.26800
O 	O 	0.26850 0.66630 0.54730 -0.40400
O 	O 	0.21220 0.72150 0.54750 -0.40200
O 	O 	0.26560 0.54760 0.66570 -0.38900
O 	O 	0.21150 0.54790 0.72200 -0.39400
C 	C 	0.23230 0.68600 0.56230 0.33400
C 	C 	0.23330 0.56580 0.68880 0.32500
C 	C 	0.20870 0.66470 0.60510 -0.05100
C 	C 	0.17130 0.68600 0.62630 -0.03200
H 	H 	0.15880 0.71370 0.61380 0.06000
C 	C 	0.15200 0.66690 0.66590 0.00900
C 	C 	0.17020 0.62640 0.68430 -0.03600
H 	H 	0.15700 0.61330 0.71140 0.06100
C 	C 	0.20760 0.60510 0.66310 -0.04500
C 	C 	0.22690 0.62420 0.62350 -0.00400
H 	H 	0.25250 0.60960 0.60900 0.06500
C 	C 	0.04170 0.73680 0.73830 0.01300
C 	C 	0.07040 0.76120 0.70850 -0.01000
H 	H 	0.06570 0.79340 0.70390 0.06400
C 	C 	0.10590 0.73860 0.68540 -0.06400
H 	H 	0.12550 0.75530 0.66510 0.06400
C 	C 	0.11280 0.69150 0.69220 0.03000
C 	C 	0.08410 0.66710 0.72190 -0.05700
H 	H 	0.08870 0.63490 0.72650 0.05700
C 	C 	0.04850 0.68970 0.74500 -0.03700
H 	H 	0.02890 0.67300 0.76530 0.06600
O 	O 	0.00070 0.80740 0.74930 0.21000
H 	H 	0.00070 0.81190 0.72160 -0.35500
C 	C 	0.99800 0.75260 0.81090 -0.29400
H 	H 	0.02910 0.75960 0.82430 0.11300
C 	C 	0.98500 0.70250 0.82240 0.89300
H 	H 	0.96070 0.70220 0.84600 -0.20200
H 	H 	0.01220 0.68610 0.83410 -0.18900
H 	H 	0.97370 0.68700 0.79450 -0.22000
N 	N 	0.96380 0.78520 0.83030 -0.18700
H 	H 	0.96030 0.81400 0.82120 0.12100
C 	C 	0.93730 0.76400 0.86560 0.26300
O 	O 	0.91300 0.72900 0.85600 -0.20400
O 	O 	0.94900 0.77200 0.91220 -0.11800
C 	C 	0.96550 0.82100 0.91620 -0.30200
C 	C 	0.94820 0.84170 0.96240 0.33000
H 	H 	0.96020 0.82330 0.98820 -0.12400
H 	H 	0.91440 0.84120 0.96300 -1.01500
H 	H 	0.95910 0.87360 0.96530 -0.12500
C 	C 	0.94460 0.84940 0.87590 -0.08500
H 	H 	0.92290 0.83000 0.85860 0.07000
H 	H 	0.96950 0.85960 0.85530 0.04700
H 	H 	0.92840 0.87640 0.88830 0.07300
C 	C 	0.01880 0.82520 0.91440 1.41200
H 	H 	0.03240 0.80640 0.93910 -0.29600
H 	H 	0.02770 0.85760 0.91860 0.29300
H 	H 	0.02990 0.81420 0.88440 -0.27100
O 	O 	0.45270 0.26850 0.33370 -0.40500
O 	O 	0.45250 0.21220 0.27850 -0.40200
O 	O 	0.33430 0.26560 0.45240 -0.38900
O 	O 	0.27800 0.21150 0.45210 -0.39500
C 	C 	0.43770 0.23230 0.31400 0.33400
C 	C 	0.31120 0.23330 0.43420 0.32500
C 	C 	0.39490 0.20870 0.33530 -0.05100
C 	C 	0.37370 0.17130 0.31400 -0.03200
H 	H 	0.38620 0.15880 0.28630 0.06000
C 	C 	0.33410 0.15200 0.33310 0.00900
C 	C 	0.31570 0.17020 0.37360 -0.03600
H 	H 	0.28860 0.15700 0.38670 0.06100
C 	C 	0.33690 0.20760 0.39490 -0.04500
C 	C 	0.37650 0.22690 0.37580 -0.00400
H 	H 	0.39100 0.25250 0.39040 0.06500
C 	C 	0.26170 0.04170 0.26320 0.01300
C 	C 	0.29150 0.07040 0.23880 -0.01000
H 	H 	0.29610 0.06570 0.20660 0.06400
C 	C 	0.31460 0.10590 0.26140 -0.06400
H 	H 	0.33490 0.12550 0.24470 0.06400
C 	C 	0.30780 0.11280 0.30850 0.03000
C 	C 	0.27810 0.08410 0.33290 -0.05800
H 	H 	0.27350 0.08870 0.36510 0.05700
C 	C 	0.25500 0.04850 0.31030 -0.03700
H 	H 	0.23470 0.02890 0.32700 0.06600
O 	O 	0.25070 0.00070 0.19260 0.20900
H 	H 	0.27840 0.00070 0.18810 -0.35400
C 	C 	0.18910 0.99800 0.24740 -0.29400
H 	H 	0.17570 0.02910 0.24040 0.11300
C 	C 	0.17760 0.98500 0.29750 0.89300
H 	H 	0.15400 0.96070 0.29780 -0.20200
H 	H 	0.16590 0.01220 0.31390 -0.18900
H 	H 	0.20550 0.97370 0.31300 -0.22000
N 	N 	0.16970 0.96380 0.21480 -0.18700
H 	H 	0.17880 0.96030 0.18600 0.12100
C 	C 	0.13440 0.93730 0.23600 0.26300
O 	O 	0.14400 0.91300 0.27100 -0.20400
O 	O 	0.08780 0.94900 0.22800 -0.11800
C 	C 	0.08380 0.96550 0.17900 -0.30200
C 	C 	0.03760 0.94820 0.15830 0.33800
H 	H 	0.01180 0.96020 0.17670 -0.12800
H 	H 	0.03700 0.91440 0.15880 -1.02400
H 	H 	0.03470 0.95910 0.12640 -0.12800
C 	C 	0.12410 0.94460 0.15060 -0.08400
H 	H 	0.14140 0.92290 0.17000 0.07000
H 	H 	0.14470 0.96950 0.14040 0.04700
H 	H 	0.11170 0.92840 0.12360 0.07200
C 	C 	0.08560 0.01880 0.17480 1.40800
H 	H 	0.06090 0.03240 0.19360 -0.29500
H 	H 	0.08140 0.02770 0.14240 0.29300
H 	H 	0.11560 0.02990 0.18580 -0.27100
O 	O 	0.45270 0.73150 0.66630 -0.40400
O 	O 	0.45250 0.78780 0.72150 -0.40100
O 	O 	0.33430 0.73440 0.54760 -0.38900
O 	O 	0.27800 0.78850 0.54790 -0.39400
C 	C 	0.43770 0.76770 0.68600 0.33400
C 	C 	0.31120 0.76670 0.56580 0.32500
C 	C 	0.39490 0.79130 0.66470 -0.05100
C 	C 	0.37370 0.82870 0.68600 -0.03300
H 	H 	0.38620 0.84120 0.71370 0.06000
C 	C 	0.33410 0.84800 0.66690 0.01000
C 	C 	0.31570 0.82980 0.62640 -0.03600
H 	H 	0.28860 0.84300 0.61330 0.06100
C 	C 	0.33690 0.79240 0.60510 -0.04500
C 	C 	0.37650 0.77310 0.62420 -0.00400
H 	H 	0.39100 0.74750 0.60960 0.06500
C 	C 	0.26170 0.95830 0.73680 0.01500
C 	C 	0.29150 0.92960 0.76120 -0.01200
H 	H 	0.29610 0.93430 0.79340 0.06400
C 	C 	0.31460 0.89410 0.73860 -0.06300
H 	H 	0.33490 0.87450 0.75530 0.06400
C 	C 	0.30780 0.88720 0.69150 0.02900
C 	C 	0.27810 0.91590 0.66710 -0.05700
H 	H 	0.27350 0.91130 0.63490 0.05700
C 	C 	0.25500 0.95150 0.68970 -0.03700
H 	H 	0.23470 0.97110 0.67300 0.06700
O 	O 	0.25070 0.99930 0.80740 0.21100
H 	H 	0.27840 0.99930 0.81190 -0.34900
C 	C 	0.18910 0.00200 0.75260 -0.29300
H 	H 	0.17570 0.97090 0.75960 0.11500
C 	C 	0.17760 0.01500 0.70250 0.90200
H 	H 	0.15400 0.03930 0.70220 -0.20600
H 	H 	0.16590 0.98780 0.68610 -0.18900
H 	H 	0.20550 0.02630 0.68700 -0.22400
N 	N 	0.16970 0.03620 0.78520 -0.18800
H 	H 	0.17880 0.03970 0.81400 0.12100
C 	C 	0.13440 0.06270 0.76400 0.26300
O 	O 	0.14400 0.08700 0.72900 -0.20400
O 	O 	0.08780 0.05100 0.77200 -0.11900
C 	C 	0.08380 0.03450 0.82100 -0.30000
C 	C 	0.03760 0.05180 0.84170 0.33400
H 	H 	0.01180 0.03980 0.82330 -0.12800
H 	H 	0.03700 0.08560 0.84120 -1.02100
H 	H 	0.03470 0.04090 0.87360 -0.12800
C 	C 	0.12410 0.05540 0.84940 -0.08600
H 	H 	0.14140 0.07710 0.83000 0.07100
H 	H 	0.14470 0.03050 0.85960 0.04700
H 	H 	0.11170 0.07160 0.87640 0.07300
C 	C 	0.08560 0.98120 0.82520 1.39700
H 	H 	0.06090 0.96760 0.80640 -0.29100
H 	H 	0.08140 0.97230 0.85760 0.29200
H 	H 	0.11560 0.97010 0.81420 -0.26800
O 	O 	0.54730 0.73150 0.33370 -0.40400
O 	O 	0.54750 0.78780 0.27850 -0.40200
O 	O 	0.66570 0.73440 0.45240 -0.38900
O 	O 	0.72200 0.78850 0.45210 -0.39400
C 	C 	0.56230 0.76770 0.31400 0.33400
C 	C 	0.68880 0.76670 0.43420 0.32500
C 	C 	0.60510 0.79130 0.33530 -0.05100
C 	C 	0.62630 0.82870 0.31400 -0.03300
H 	H 	0.61380 0.84120 0.28630 0.06000
C 	C 	0.66590 0.84800 0.33310 0.01000
C 	C 	0.68430 0.82980 0.37360 -0.03600
H 	H 	0.71140 0.84300 0.38670 0.06100
C 	C 	0.66310 0.79240 0.39490 -0.04500
C 	C 	0.62350 0.77310 0.37580 -0.00400
H 	H 	0.60900 0.74750 0.39040 0.06500
C 	C 	0.73830 0.95830 0.26320 0.01500
C 	C 	0.70850 0.92960 0.23880 -0.01200
H 	H 	0.70390 0.93430 0.20660 0.06400
C 	C 	0.68540 0.89410 0.26140 -0.06300
H 	H 	0.66510 0.87450 0.24470 0.06400
C 	C 	0.69220 0.88720 0.30850 0.02900
C 	C 	0.72190 0.91590 0.33290 -0.05600
H 	H 	0.72650 0.91130 0.36510 0.05700
C 	C 	0.74500 0.95150 0.31030 -0.03700
H 	H 	0.76530 0.97110 0.32700 0.06700
O 	O 	0.74930 0.99930 0.19260 0.21100
H 	H 	0.72160 0.99930 0.18810 -0.34900
C 	C 	0.81090 0.00200 0.24740 -0.29300
H 	H 	0.82430 0.97090 0.24040 0.11500
C 	C 	0.82240 0.01500 0.29750 0.90300
H 	H 	0.84600 0.03930 0.29780 -0.20600
H 	H 	0.83410 0.98780 0.31390 -0.18900
H 	H 	0.79450 0.02630 0.31300 -0.22400
N 	N 	0.83030 0.03620 0.21480 -0.18800
H 	H 	0.82120 0.03970 0.18600 0.12100
C 	C 	0.86560 0.06270 0.23600 0.26300
O 	O 	0.85600 0.08700 0.27100 -0.20300
O 	O 	0.91220 0.05100 0.22800 -0.11900
C 	C 	0.91620 0.03450 0.17900 -0.30000
C 	C 	0.96240 0.05180 0.15830 0.32600
H 	H 	0.98820 0.03980 0.17670 -0.12400
H 	H 	0.96300 0.08560 0.15880 -1.01200
H 	H 	0.96530 0.04090 0.12640 -0.12400
C 	C 	0.87590 0.05540 0.15060 -0.08700
H 	H 	0.85860 0.07710 0.17000 0.07100
H 	H 	0.85530 0.03050 0.14040 0.04700
H 	H 	0.88830 0.07160 0.12360 0.07300
C 	C 	0.91440 0.98120 0.17480 1.40000
H 	H 	0.93910 0.96760 0.19360 -0.29200
H 	H 	0.91860 0.97230 0.14240 0.29200
H 	H 	0.88440 0.97010 0.18580 -0.26800
O 	O 	0.54730 0.26850 0.66630 -0.40400
O 	O 	0.54750 0.21220 0.72150 -0.40200
O 	O 	0.66570 0.26560 0.54760 -0.38900
O 	O 	0.72200 0.21150 0.54790 -0.39400
C 	C 	0.56230 0.23230 0.68600 0.33400
C 	C 	0.68880 0.23330 0.56580 0.32500
C 	C 	0.60510 0.20870 0.66470 -0.05100
C 	C 	0.62630 0.17130 0.68600 -0.03200
H 	H 	0.61380 0.15880 0.71370 0.06000
C 	C 	0.66590 0.15200 0.66690 0.00900
C 	C 	0.68430 0.17020 0.62640 -0.03600
H 	H 	0.71140 0.15700 0.61330 0.06100
C 	C 	0.66310 0.20760 0.60510 -0.04500
C 	C 	0.62350 0.22690 0.62420 -0.00400
H 	H 	0.60900 0.25250 0.60960 0.06500
C 	C 	0.73830 0.04170 0.73680 0.01300
C 	C 	0.70850 0.07040 0.76120 -0.01000
H 	H 	0.70390 0.06570 0.79340 0.06400
C 	C 	0.68540 0.10590 0.73860 -0.06400
H 	H 	0.66510 0.12550 0.75530 0.06400
C 	C 	0.69220 0.11280 0.69150 0.03000
C 	C 	0.72190 0.08410 0.66710 -0.05700
H 	H 	0.72650 0.08870 0.63490 0.05700
C 	C 	0.74500 0.04850 0.68970 -0.03700
H 	H 	0.76530 0.02890 0.67300 0.06600
O 	O 	0.74930 0.00070 0.80740 0.21000
H 	H 	0.72160 0.00070 0.81190 -0.35500
C 	C 	0.81090 0.99800 0.75260 -0.29400
H 	H 	0.82430 0.02910 0.75960 0.11300
C 	C 	0.82240 0.98500 0.70250 0.89300
H 	H 	0.84600 0.96070 0.70220 -0.20200
H 	H 	0.83410 0.01220 0.68610 -0.18900
H 	H 	0.79450 0.97370 0.68700 -0.22000
N 	N 	0.83030 0.96380 0.78520 -0.18700
H 	H 	0.82120 0.96030 0.81400 0.12100
C 	C 	0.86560 0.93730 0.76400 0.26300
O 	O 	0.85600 0.91300 0.72900 -0.20400
O 	O 	0.91220 0.94900 0.77200 -0.11800
C 	C 	0.91620 0.96550 0.82100 -0.30200
C 	C 	0.96240 0.94820 0.84170 0.33000
H 	H 	0.98820 0.96020 0.82330 -0.12400
H 	H 	0.96300 0.91440 0.84120 -1.01500
H 	H 	0.96530 0.95910 0.87360 -0.12500
C 	C 	0.87590 0.94460 0.84940 -0.08500
H 	H 	0.85860 0.92290 0.83000 0.07000
H 	H 	0.85530 0.96950 0.85960 0.04700
H 	H 	0.88830 0.92840 0.87640 0.07300
C 	C 	0.91440 0.01880 0.82520 1.41200
H 	H 	0.93910 0.03240 0.80640 -0.29600
H 	H 	0.91860 0.02770 0.85760 0.29300
H 	H 	0.88440 0.02990 0.81420 -0.27100
O 	O 	0.33370 0.45270 0.26850 -0.40500
O 	O 	0.27850 0.45250 0.21220 -0.40200
O 	O 	0.45240 0.33430 0.26560 -0.38900
O 	O 	0.45210 0.27800 0.21150 -0.39500
C 	C 	0.31400 0.43770 0.23230 0.33400
C 	C 	0.43420 0.31120 0.23330 0.32500
C 	C 	0.33530 0.39490 0.20870 -0.05100
C 	C 	0.31400 0.37370 0.17130 -0.03200
H 	H 	0.28630 0.38620 0.15880 0.06000
C 	C 	0.33310 0.33410 0.15200 0.00900
C 	C 	0.37360 0.31570 0.17020 -0.03600
H 	H 	0.38670 0.28860 0.15700 0.06100
C 	C 	0.39490 0.33690 0.20760 -0.04500
C 	C 	0.37580 0.37650 0.22690 -0.00400
H 	H 	0.39040 0.39100 0.25250 0.06500
C 	C 	0.26320 0.26170 0.04170 0.01300
C 	C 	0.23880 0.29150 0.07040 -0.01000
H 	H 	0.20660 0.29610 0.06570 0.06400
C 	C 	0.26140 0.31460 0.10590 -0.06400
H 	H 	0.24470 0.33490 0.12550 0.06400
C 	C 	0.30850 0.30780 0.11280 0.03000
C 	C 	0.33290 0.27810 0.08410 -0.05800
H 	H 	0.36510 0.27350 0.08870 0.05700
C 	C 	0.31030 0.25500 0.04850 -0.03700
H 	H 	0.32700 0.23470 0.02890 0.06600
O 	O 	0.19260 0.25070 0.00070 0.20900
H 	H 	0.18810 0.27840 0.00070 -0.35400
C 	C 	0.24740 0.18910 0.99800 -0.29400
H 	H 	0.24040 0.17570 0.02910 0.11300
C 	C 	0.29750 0.17760 0.98500 0.89300
H 	H 	0.29780 0.15400 0.96070 -0.20200
H 	H 	0.31390 0.16590 0.01220 -0.18900
H 	H 	0.31300 0.20550 0.97370 -0.22000
N 	N 	0.21480 0.16970 0.96380 -0.18700
H 	H 	0.18600 0.17880 0.96030 0.12100
C 	C 	0.23600 0.13440 0.93730 0.26300
O 	O 	0.27100 0.14400 0.91300 -0.20400
O 	O 	0.22800 0.08780 0.94900 -0.11800
C 	C 	0.17900 0.08380 0.96550 -0.30200
C 	C 	0.15830 0.03760 0.94820 0.33800
H 	H 	0.17670 0.01180 0.96020 -0.12800
H 	H 	0.15880 0.03700 0.91440 -1.02400
H 	H 	0.12640 0.03470 0.95910 -0.12800
C 	C 	0.15060 0.12410 0.94460 -0.08400
H 	H 	0.17000 0.14140 0.92290 0.07000
H 	H 	0.14040 0.14470 0.96950 0.04700
H 	H 	0.12360 0.11170 0.92840 0.07200
C 	C 	0.17480 0.08560 0.01880 1.40800
H 	H 	0.19360 0.06090 0.03240 -0.29500
H 	H 	0.14240 0.08140 0.02770 0.29300
H 	H 	0.18580 0.11560 0.02990 -0.27100
O 	O 	0.66630 0.45270 0.73150 -0.40400
O 	O 	0.72150 0.45250 0.78780 -0.40100
O 	O 	0.54760 0.33430 0.73440 -0.38900
O 	O 	0.54790 0.27800 0.78850 -0.39400
C 	C 	0.68600 0.43770 0.76770 0.33400
C 	C 	0.56580 0.31120 0.76670 0.32500
C 	C 	0.66470 0.39490 0.79130 -0.05100
C 	C 	0.68600 0.37370 0.82870 -0.03300
H 	H 	0.71370 0.38620 0.84120 0.06000
C 	C 	0.66690 0.33410 0.84800 0.01000
C 	C 	0.62640 0.31570 0.82980 -0.03600
H 	H 	0.61330 0.28860 0.84300 0.06100
C 	C 	0.60510 0.33690 0.79240 -0.04500
C 	C 	0.62420 0.37650 0.77310 -0.00400
H 	H 	0.60960 0.39100 0.74750 0.06500
C 	C 	0.73680 0.26170 0.95830 0.01500
C 	C 	0.76120 0.29150 0.92960 -0.01200
H 	H 	0.79340 0.29610 0.93430 0.06400
C 	C 	0.73860 0.31460 0.89410 -0.06300
H 	H 	0.75530 0.33490 0.87450 0.06400
C 	C 	0.69150 0.30780 0.88720 0.02900
C 	C 	0.66710 0.27810 0.91590 -0.05700
H 	H 	0.63490 0.27350 0.91130 0.05700
C 	C 	0.68970 0.25500 0.95150 -0.03700
H 	H 	0.67300 0.23470 0.97110 0.06700
O 	O 	0.80740 0.25070 0.99930 0.21100
H 	H 	0.81190 0.27840 0.99930 -0.34900
C 	C 	0.75260 0.18910 0.00200 -0.29300
H 	H 	0.75960 0.17570 0.97090 0.11500
C 	C 	0.70250 0.17760 0.01500 0.90200
H 	H 	0.70220 0.15400 0.03930 -0.20600
H 	H 	0.68610 0.16590 0.98780 -0.18900
H 	H 	0.68700 0.20550 0.02630 -0.22400
N 	N 	0.78520 0.16970 0.03620 -0.18800
H 	H 	0.81400 0.17880 0.03970 0.12100
C 	C 	0.76400 0.13440 0.06270 0.26300
O 	O 	0.72900 0.14400 0.08700 -0.20400
O 	O 	0.77200 0.08780 0.05100 -0.11900
C 	C 	0.82100 0.08380 0.03450 -0.30000
C 	C 	0.84170 0.03760 0.05180 0.33400
H 	H 	0.82330 0.01180 0.03980 -0.12800
H 	H 	0.84120 0.03700 0.08560 -1.02100
H 	H 	0.87360 0.03470 0.04090 -0.12800
C 	C 	0.84940 0.12410 0.05540 -0.08600
H 	H 	0.83000 0.14140 0.07710 0.07100
H 	H 	0.85960 0.14470 0.03050 0.04700
H 	H 	0.87640 0.11170 0.07160 0.07300
C 	C 	0.82520 0.08560 0.98120 1.39700
H 	H 	0.80640 0.06090 0.96760 -0.29100
H 	H 	0.85760 0.08140 0.97230 0.29200
H 	H 	0.81420 0.11560 0.97010 -0.26800
O 	O 	0.33370 0.54730 0.73150 -0.40400
O 	O 	0.27850 0.54750 0.78780 -0.40200
O 	O 	0.45240 0.66570 0.73440 -0.38900
O 	O 	0.45210 0.72200 0.78850 -0.39400
C 	C 	0.31400 0.56230 0.76770 0.33400
C 	C 	0.43420 0.68880 0.76670 0.32500
C 	C 	0.33530 0.60510 0.79130 -0.05100
C 	C 	0.31400 0.62630 0.82870 -0.03300
H 	H 	0.28630 0.61380 0.84120 0.06000
C 	C 	0.33310 0.66590 0.84800 0.01000
C 	C 	0.37360 0.68430 0.82980 -0.03600
H 	H 	0.38670 0.71140 0.84300 0.06100
C 	C 	0.39490 0.66310 0.79240 -0.04500
C 	C 	0.37580 0.62350 0.77310 -0.00400
H 	H 	0.39040 0.60900 0.74750 0.06500
C 	C 	0.26320 0.73830 0.95830 0.01500
C 	C 	0.23880 0.70850 0.92960 -0.01200
H 	H 	0.20660 0.70390 0.93430 0.06400
C 	C 	0.26140 0.68540 0.89410 -0.06300
H 	H 	0.24470 0.66510 0.87450 0.06400
C 	C 	0.30850 0.69220 0.88720 0.02900
C 	C 	0.33290 0.72190 0.91590 -0.05600
H 	H 	0.36510 0.72650 0.91130 0.05700
C 	C 	0.31030 0.74500 0.95150 -0.03700
H 	H 	0.32700 0.76530 0.97110 0.06700
O 	O 	0.19260 0.74930 0.99930 0.21100
H 	H 	0.18810 0.72160 0.99930 -0.34900
C 	C 	0.24740 0.81090 0.00200 -0.29300
H 	H 	0.24040 0.82430 0.97090 0.11500
C 	C 	0.29750 0.82240 0.01500 0.90300
H 	H 	0.29780 0.84600 0.03930 -0.20600
H 	H 	0.31390 0.83410 0.98780 -0.18900
H 	H 	0.31300 0.79450 0.02630 -0.22400
N 	N 	0.21480 0.83030 0.03620 -0.18800
H 	H 	0.18600 0.82120 0.03970 0.12100
C 	C 	0.23600 0.86560 0.06270 0.26300
O 	O 	0.27100 0.85600 0.08700 -0.20300
O 	O 	0.22800 0.91220 0.05100 -0.11900
C 	C 	0.17900 0.91620 0.03450 -0.30000
C 	C 	0.15830 0.96240 0.05180 0.32600
H 	H 	0.17670 0.98820 0.03980 -0.12400
H 	H 	0.15880 0.96300 0.08560 -1.01200
H 	H 	0.12640 0.96530 0.04090 -0.12400
C 	C 	0.15060 0.87590 0.05540 -0.08700
H 	H 	0.17000 0.85860 0.07710 0.07100
H 	H 	0.14040 0.85530 0.03050 0.04700
H 	H 	0.12360 0.88830 0.07160 0.07300
C 	C 	0.17480 0.91440 0.98120 1.40000
H 	H 	0.19360 0.93910 0.96760 -0.29200
H 	H 	0.14240 0.91860 0.97230 0.29200
H 	H 	0.18580 0.88440 0.97010 -0.26800
O 	O 	0.66630 0.54730 0.26850 -0.40400
O 	O 	0.72150 0.54750 0.21220 -0.40200
O 	O 	0.54760 0.66570 0.26560 -0.38900
O 	O 	0.54790 0.72200 0.21150 -0.39400
C 	C 	0.68600 0.56230 0.23230 0.33400
C 	C 	0.56580 0.68880 0.23330 0.32500
C 	C 	0.66470 0.60510 0.20870 -0.05100
C 	C 	0.68600 0.62630 0.17130 -0.03200
H 	H 	0.71370 0.61380 0.15880 0.06000
C 	C 	0.66690 0.66590 0.15200 0.00900
C 	C 	0.62640 0.68430 0.17020 -0.03600
H 	H 	0.61330 0.71140 0.15700 0.06100
C 	C 	0.60510 0.66310 0.20760 -0.04500
C 	C 	0.62420 0.62350 0.22690 -0.00400
H 	H 	0.60960 0.60900 0.25250 0.06500
C 	C 	0.73680 0.73830 0.04170 0.01300
C 	C 	0.76120 0.70850 0.07040 -0.01000
H 	H 	0.79340 0.70390 0.06570 0.06400
C 	C 	0.73860 0.68540 0.10590 -0.06400
H 	H 	0.75530 0.66510 0.12550 0.06400
C 	C 	0.69150 0.69220 0.11280 0.03000
C 	C 	0.66710 0.72190 0.08410 -0.05700
H 	H 	0.63490 0.72650 0.08870 0.05700
C 	C 	0.68970 0.74500 0.04850 -0.03700
H 	H 	0.67300 0.76530 0.02890 0.06600
O 	O 	0.80740 0.74930 0.00070 0.21000
H 	H 	0.81190 0.72160 0.00070 -0.35500
C 	C 	0.75260 0.81090 0.99800 -0.29400
H 	H 	0.75960 0.82430 0.02910 0.11300
C 	C 	0.70250 0.82240 0.98500 0.89300
H 	H 	0.70220 0.84600 0.96070 -0.20200
H 	H 	0.68610 0.83410 0.01220 -0.18900
H 	H 	0.68700 0.79450 0.97370 -0.22000
N 	N 	0.78520 0.83030 0.96380 -0.18700
H 	H 	0.81400 0.82120 0.96030 0.12100
C 	C 	0.76400 0.86560 0.93730 0.26300
O 	O 	0.72900 0.85600 0.91300 -0.20400
O 	O 	0.77200 0.91220 0.94900 -0.11800
C 	C 	0.82100 0.91620 0.96550 -0.30200
C 	C 	0.84170 0.96240 0.94820 0.33000
H 	H 	0.82330 0.98820 0.96020 -0.12400
H 	H 	0.84120 0.96300 0.91440 -1.01500
H 	H 	0.87360 0.96530 0.95910 -0.12500
C 	C 	0.84940 0.87590 0.94460 -0.08500
H 	H 	0.83000 0.85860 0.92290 0.07000
H 	H 	0.85960 0.85530 0.96950 0.04700
H 	H 	0.87640 0.88830 0.92840 0.07300
C 	C 	0.82520 0.91440 0.01880 1.41200
H 	H 	0.80640 0.93910 0.03240 -0.29600
H 	H 	0.85760 0.91860 0.02770 0.29300
H 	H 	0.81420 0.88440 0.02990 -0.27100
O 	O 	0.33370 0.26850 0.54730 -0.40500
O 	O 	0.27850 0.21220 0.54750 -0.40200
O 	O 	0.45240 0.26560 0.66570 -0.38900
O 	O 	0.45210 0.21150 0.72200 -0.39400
C 	C 	0.31400 0.23230 0.56230 0.33400
C 	C 	0.43420 0.23330 0.68880 0.32500
C 	C 	0.33530 0.20870 0.60510 -0.05100
C 	C 	0.31400 0.17130 0.62630 -0.03200
H 	H 	0.28630 0.15880 0.61380 0.06000
C 	C 	0.33310 0.15200 0.66590 0.00900
C 	C 	0.37360 0.17020 0.68430 -0.03600
H 	H 	0.38670 0.15700 0.71140 0.06100
C 	C 	0.39490 0.20760 0.66310 -0.04500
C 	C 	0.37580 0.22690 0.62350 -0.00400
H 	H 	0.39040 0.25250 0.60900 0.06500
C 	C 	0.26320 0.04170 0.73830 0.01300
C 	C 	0.23880 0.07040 0.70850 -0.01000
H 	H 	0.20660 0.06570 0.70390 0.06400
C 	C 	0.26140 0.10590 0.68540 -0.06400
H 	H 	0.24470 0.12550 0.66510 0.06400
C 	C 	0.30850 0.11280 0.69220 0.03000
C 	C 	0.33290 0.08410 0.72190 -0.05700
H 	H 	0.36510 0.08870 0.72650 0.05700
C 	C 	0.31030 0.04850 0.74500 -0.03700
H 	H 	0.32700 0.02890 0.76530 0.06600
O 	O 	0.19260 0.00070 0.74930 0.20900
H 	H 	0.18810 0.00070 0.72160 -0.35400
C 	C 	0.24740 0.99800 0.81090 -0.29400
H 	H 	0.24040 0.02910 0.82430 0.11300
C 	C 	0.29750 0.98500 0.82240 0.89300
H 	H 	0.29780 0.96070 0.84600 -0.20200
H 	H 	0.31390 0.01220 0.83410 -0.18900
H 	H 	0.31300 0.97370 0.79450 -0.22000
N 	N 	0.21480 0.96380 0.83030 -0.18700
H 	H 	0.18600 0.96030 0.82120 0.12100
C 	C 	0.23600 0.93730 0.86560 0.26300
O 	O 	0.27100 0.91300 0.85600 -0.20400
O 	O 	0.22800 0.94900 0.91220 -0.11800
C 	C 	0.17900 0.96550 0.91620 -0.30100
C 	C 	0.15830 0.94820 0.96240 0.33000
H 	H 	0.17670 0.96020 0.98820 -0.12400
H 	H 	0.15880 0.91440 0.96300 -1.01500
H 	H 	0.12640 0.95910 0.96530 -0.12500
C 	C 	0.15060 0.94460 0.87590 -0.08500
H 	H 	0.17000 0.92290 0.85860 0.07000
H 	H 	0.14040 0.96950 0.85530 0.04700
H 	H 	0.12360 0.92840 0.88830 0.07300
C 	C 	0.17480 0.01880 0.91440 1.41200
H 	H 	0.19360 0.03240 0.93910 -0.29600
H 	H 	0.14240 0.02770 0.91860 0.29300
H 	H 	0.18580 0.02990 0.88440 -0.27100
O 	O 	0.66630 0.73150 0.54730 -0.40400
O 	O 	0.72150 0.78780 0.54750 -0.40100
O 	O 	0.54760 0.73440 0.66570 -0.38900
O 	O 	0.54790 0.78850 0.72200 -0.39400
C 	C 	0.68600 0.76770 0.56230 0.33400
C 	C 	0.56580 0.76670 0.68880 0.32500
C 	C 	0.66470 0.79130 0.60510 -0.05100
C 	C 	0.68600 0.82870 0.62630 -0.03300
H 	H 	0.71370 0.84120 0.61380 0.06000
C 	C 	0.66690 0.84800 0.66590 0.01000
C 	C 	0.62640 0.82980 0.68430 -0.03600
H 	H 	0.61330 0.84300 0.71140 0.06100
C 	C 	0.60510 0.79240 0.66310 -0.04500
C 	C 	0.62420 0.77310 0.62350 -0.00400
H 	H 	0.60960 0.74750 0.60900 0.06500
C 	C 	0.73680 0.95830 0.73830 0.01500
C 	C 	0.76120 0.92960 0.70850 -0.01200
H 	H 	0.79340 0.93430 0.70390 0.06400
C 	C 	0.73860 0.89410 0.68540 -0.06300
H 	H 	0.75530 0.87450 0.66510 0.06400
C 	C 	0.69150 0.88720 0.69220 0.02900
C 	C 	0.66710 0.91590 0.72190 -0.05700
H 	H 	0.63490 0.91130 0.72650 0.05700
C 	C 	0.68970 0.95150 0.74500 -0.03700
H 	H 	0.67300 0.97110 0.76530 0.06700
O 	O 	0.80740 0.99930 0.74930 0.21100
H 	H 	0.81190 0.99930 0.72160 -0.34900
C 	C 	0.75260 0.00200 0.81090 -0.29300
H 	H 	0.75960 0.97090 0.82430 0.11500
C 	C 	0.70250 0.01500 0.82240 0.90300
H 	H 	0.70220 0.03930 0.84600 -0.20600
H 	H 	0.68610 0.98780 0.83410 -0.18900
H 	H 	0.68700 0.02630 0.79450 -0.22400
N 	N 	0.78520 0.03620 0.83030 -0.18800
H 	H 	0.81400 0.03970 0.82120 0.12100
C 	C 	0.76400 0.06270 0.86560 0.26300
O 	O 	0.72900 0.08700 0.85600 -0.20300
O 	O 	0.77200 0.05100 0.91220 -0.11900
C 	C 	0.82100 0.03450 0.91620 -0.30000
C 	C 	0.84170 0.05180 0.96240 0.32600
H 	H 	0.82330 0.03980 0.98820 -0.12400
H 	H 	0.84120 0.08560 0.96300 -1.01200
H 	H 	0.87360 0.04090 0.96530 -0.12400
C 	C 	0.84940 0.05540 0.87590 -0.08700
H 	H 	0.83000 0.07710 0.85860 0.07100
H 	H 	0.85960 0.03050 0.85530 0.04700
H 	H 	0.87640 0.07160 0.88830 0.07400
C 	C 	0.82520 0.98120 0.91440 1.40000
H 	H 	0.80640 0.96760 0.93910 -0.29200
H 	H 	0.85760 0.97230 0.91860 0.29200
H 	H 	0.81420 0.97010 0.88440 -0.26800
O 	O 	0.33370 0.73150 0.45270 -0.40400
O 	O 	0.27850 0.78780 0.45250 -0.40200
O 	O 	0.45240 0.73440 0.33430 -0.38900
O 	O 	0.45210 0.78850 0.27800 -0.39400
C 	C 	0.31400 0.76770 0.43770 0.33400
C 	C 	0.43420 0.76670 0.31120 0.32500
C 	C 	0.33530 0.79130 0.39490 -0.05100
C 	C 	0.31400 0.82870 0.37370 -0.03300
H 	H 	0.28630 0.84120 0.38620 0.06000
C 	C 	0.33310 0.84800 0.33410 0.01000
C 	C 	0.37360 0.82980 0.31570 -0.03600
H 	H 	0.38670 0.84300 0.28860 0.06100
C 	C 	0.39490 0.79240 0.33690 -0.04500
C 	C 	0.37580 0.77310 0.37650 -0.00400
H 	H 	0.39040 0.74750 0.39100 0.06500
C 	C 	0.26320 0.95830 0.26170 0.01500
C 	C 	0.23880 0.92960 0.29150 -0.01200
H 	H 	0.20660 0.93430 0.29610 0.06400
C 	C 	0.26140 0.89410 0.31460 -0.06300
H 	H 	0.24470 0.87450 0.33490 0.06400
C 	C 	0.30850 0.88720 0.30780 0.02900
C 	C 	0.33290 0.91590 0.27810 -0.05700
H 	H 	0.36510 0.91130 0.27350 0.05700
C 	C 	0.31030 0.95150 0.25500 -0.03700
H 	H 	0.32700 0.97110 0.23470 0.06700
O 	O 	0.19260 0.99930 0.25070 0.21100
H 	H 	0.18810 0.99930 0.27840 -0.34900
C 	C 	0.24740 0.00200 0.18910 -0.29300
H 	H 	0.24040 0.97090 0.17570 0.11500
C 	C 	0.29750 0.01500 0.17760 0.90200
H 	H 	0.29780 0.03930 0.15400 -0.20600
H 	H 	0.31390 0.98780 0.16590 -0.18900
H 	H 	0.31300 0.02630 0.20550 -0.22400
N 	N 	0.21480 0.03620 0.16970 -0.18800
H 	H 	0.18600 0.03970 0.17880 0.12100
C 	C 	0.23600 0.06270 0.13440 0.26300
O 	O 	0.27100 0.08700 0.14400 -0.20400
O 	O 	0.22800 0.05100 0.08780 -0.11900
C 	C 	0.17900 0.03450 0.08380 -0.30000
C 	C 	0.15830 0.05180 0.03760 0.33400
H 	H 	0.17670 0.03980 0.01180 -0.12800
H 	H 	0.15880 0.08560 0.03700 -1.02100
H 	H 	0.12640 0.04090 0.03470 -0.12800
C 	C 	0.15060 0.05540 0.12410 -0.08600
H 	H 	0.17000 0.07710 0.14140 0.07100
H 	H 	0.14040 0.03050 0.14470 0.04700
H 	H 	0.12360 0.07160 0.11170 0.07300
C 	C 	0.17480 0.98120 0.08560 1.39700
H 	H 	0.19360 0.96760 0.06090 -0.29100
H 	H 	0.14240 0.97230 0.08140 0.29200
H 	H 	0.18580 0.97010 0.11560 -0.26800
O 	O 	0.66630 0.26850 0.45270 -0.40400
O 	O 	0.72150 0.21220 0.45250 -0.40200
O 	O 	0.54760 0.26560 0.33430 -0.38900
O 	O 	0.54790 0.21150 0.27800 -0.39500
C 	C 	0.68600 0.23230 0.43770 0.33400
C 	C 	0.56580 0.23330 0.31120 0.32500
C 	C 	0.66470 0.20870 0.39490 -0.05100
C 	C 	0.68600 0.17130 0.37370 -0.03200
H 	H 	0.71370 0.15880 0.38620 0.06000
C 	C 	0.66690 0.15200 0.33410 0.00900
C 	C 	0.62640 0.17020 0.31570 -0.03600
H 	H 	0.61330 0.15700 0.28860 0.06100
C 	C 	0.60510 0.20760 0.33690 -0.04500
C 	C 	0.62420 0.22690 0.37650 -0.00400
H 	H 	0.60960 0.25250 0.39100 0.06500
C 	C 	0.73680 0.04170 0.26170 0.01300
C 	C 	0.76120 0.07040 0.29150 -0.01000
H 	H 	0.79340 0.06570 0.29610 0.06400
C 	C 	0.73860 0.10590 0.31460 -0.06400
H 	H 	0.75530 0.12550 0.33490 0.06400
C 	C 	0.69150 0.11280 0.30780 0.03000
C 	C 	0.66710 0.08410 0.27810 -0.05800
H 	H 	0.63490 0.08870 0.27350 0.05700
C 	C 	0.68970 0.04850 0.25500 -0.03700
H 	H 	0.67300 0.02890 0.23470 0.06600
O 	O 	0.80740 0.00070 0.25070 0.21000
H 	H 	0.81190 0.00070 0.27840 -0.35500
C 	C 	0.75260 0.99800 0.18910 -0.29400
H 	H 	0.75960 0.02910 0.17570 0.11300
C 	C 	0.70250 0.98500 0.17760 0.89300
H 	H 	0.70220 0.96070 0.15400 -0.20200
H 	H 	0.68610 0.01220 0.16590 -0.18900
H 	H 	0.68700 0.97370 0.20550 -0.22000
N 	N 	0.78520 0.96380 0.16970 -0.18700
H 	H 	0.81400 0.96030 0.17880 0.12100
C 	C 	0.76400 0.93730 0.13440 0.26300
O 	O 	0.72900 0.91300 0.14400 -0.20400
O 	O 	0.77200 0.94900 0.08780 -0.11800
C 	C 	0.82100 0.96550 0.08380 -0.30200
C 	C 	0.84170 0.94820 0.03760 0.33800
H 	H 	0.82330 0.96020 0.01180 -0.12800
H 	H 	0.84120 0.91440 0.03700 -1.02400
H 	H 	0.87360 0.95910 0.03470 -0.12800
C 	C 	0.84940 0.94460 0.12410 -0.08400
H 	H 	0.83000 0.92290 0.14140 0.07000
H 	H 	0.85960 0.96950 0.14470 0.04700
H 	H 	0.87640 0.92840 0.11170 0.07300
C 	C 	0.82520 0.01880 0.08560 1.40900
H 	H 	0.80640 0.03240 0.06090 -0.29500
H 	H 	0.85760 0.02770 0.08140 0.29300
H 	H 	0.81420 0.02990 0.11560 -0.27100
O 	O 	0.26850 0.45270 0.66630 -0.40400
O 	O 	0.21220 0.45250 0.72150 -0.40200
O 	O 	0.26560 0.33430 0.54760 -0.38900
O 	O 	0.21150 0.27800 0.54790 -0.39500
C 	C 	0.23230 0.43770 0.68600 0.33400
C 	C 	0.23330 0.31120 0.56580 0.32500
C 	C 	0.20870 0.39490 0.66470 -0.05100
C 	C 	0.17130 0.37370 0.68600 -0.03200
H 	H 	0.15880 0.38620 0.71370 0.06000
C 	C 	0.15200 0.33410 0.66690 0.00900
C 	C 	0.17020 0.31570 0.62640 -0.03600
H 	H 	0.15700 0.28860 0.61330 0.06100
C 	C 	0.20760 0.33690 0.60510 -0.04500
C 	C 	0.22690 0.37650 0.62420 -0.00400
H 	H 	0.25250 0.39100 0.60960 0.06500
C 	C 	0.04170 0.26170 0.73680 0.01300
C 	C 	0.07040 0.29150 0.76120 -0.01000
H 	H 	0.06570 0.29610 0.79340 0.06400
C 	C 	0.10590 0.31460 0.73860 -0.06400
H 	H 	0.12550 0.33490 0.75530 0.06400
C 	C 	0.11280 0.30780 0.69150 0.03000
C 	C 	0.08410 0.27810 0.66710 -0.05800
H 	H 	0.08870 0.27350 0.63490 0.05700
C 	C 	0.04850 0.25500 0.68970 -0.03700
H 	H 	0.02890 0.23470 0.67300 0.06600
O 	O 	0.00070 0.25070 0.80740 0.21000
H 	H 	0.00070 0.27840 0.81190 -0.35500
C 	C 	0.99800 0.18910 0.75260 -0.29400
H 	H 	0.02910 0.17570 0.75960 0.11300
C 	C 	0.98500 0.17760 0.70250 0.89300
H 	H 	0.96070 0.15400 0.70220 -0.20200
H 	H 	0.01220 0.16590 0.68610 -0.18900
H 	H 	0.97370 0.20550 0.68700 -0.22000
N 	N 	0.96380 0.16970 0.78520 -0.18700
H 	H 	0.96030 0.17880 0.81400 0.12100
C 	C 	0.93730 0.13440 0.76400 0.26300
O 	O 	0.91300 0.14400 0.72900 -0.20400
O 	O 	0.94900 0.08780 0.77200 -0.11800
C 	C 	0.96550 0.08380 0.82100 -0.30200
C 	C 	0.94820 0.03760 0.84170 0.33800
H 	H 	0.96020 0.01180 0.82330 -0.12800
H 	H 	0.91440 0.03700 0.84120 -1.02400
H 	H 	0.95910 0.03470 0.87360 -0.12800
C 	C 	0.94460 0.12410 0.84940 -0.08400
H 	H 	0.92290 0.14140 0.83000 0.07000
H 	H 	0.96950 0.14470 0.85960 0.04700
H 	H 	0.92840 0.11170 0.87640 0.07300
C 	C 	0.01880 0.08560 0.82520 1.40900
H 	H 	0.03240 0.06090 0.80640 -0.29500
H 	H 	0.02770 0.08140 0.85760 0.29300
H 	H 	0.02990 0.11560 0.81420 -0.27100
O 	O 	0.73150 0.45270 0.33370 -0.40400
O 	O 	0.78780 0.45250 0.27850 -0.40200
O 	O 	0.73440 0.33430 0.45240 -0.38900
O 	O 	0.78850 0.27800 0.45210 -0.39400
C 	C 	0.76770 0.43770 0.31400 0.33400
C 	C 	0.76670 0.31120 0.43420 0.32500
C 	C 	0.79130 0.39490 0.33530 -0.05100
C 	C 	0.82870 0.37370 0.31400 -0.03300
H 	H 	0.84120 0.38620 0.28630 0.06000
C 	C 	0.84800 0.33410 0.33310 0.01000
C 	C 	0.82980 0.31570 0.37360 -0.03600
H 	H 	0.84300 0.28860 0.38670 0.06100
C 	C 	0.79240 0.33690 0.39490 -0.04500
C 	C 	0.77310 0.37650 0.37580 -0.00400
H 	H 	0.74750 0.39100 0.39040 0.06500
C 	C 	0.95830 0.26170 0.26320 0.01500
C 	C 	0.92960 0.29150 0.23880 -0.01200
H 	H 	0.93430 0.29610 0.20660 0.06400
C 	C 	0.89410 0.31460 0.26140 -0.06300
H 	H 	0.87450 0.33490 0.24470 0.06400
C 	C 	0.88720 0.30780 0.30850 0.02900
C 	C 	0.91590 0.27810 0.33290 -0.05700
H 	H 	0.91130 0.27350 0.36510 0.05700
C 	C 	0.95150 0.25500 0.31030 -0.03700
H 	H 	0.97110 0.23470 0.32700 0.06700
O 	O 	0.99930 0.25070 0.19260 0.21100
H 	H 	0.99930 0.27840 0.18810 -0.34900
C 	C 	0.00200 0.18910 0.24740 -0.29300
H 	H 	0.97090 0.17570 0.24040 0.11500
C 	C 	0.01500 0.17760 0.29750 0.90200
H 	H 	0.03930 0.15400 0.29780 -0.20600
H 	H 	0.98780 0.16590 0.31390 -0.18900
H 	H 	0.02630 0.20550 0.31300 -0.22400
N 	N 	0.03620 0.16970 0.21480 -0.18800
H 	H 	0.03970 0.17880 0.18600 0.12100
C 	C 	0.06270 0.13440 0.23600 0.26300
O 	O 	0.08700 0.14400 0.27100 -0.20400
O 	O 	0.05100 0.08780 0.22800 -0.11900
C 	C 	0.03450 0.08380 0.17900 -0.30000
C 	C 	0.05180 0.03760 0.15830 0.33400
H 	H 	0.03980 0.01180 0.17670 -0.12800
H 	H 	0.08560 0.03700 0.15880 -1.02100
H 	H 	0.04090 0.03470 0.12640 -0.12800
C 	C 	0.05540 0.12410 0.15060 -0.08600
H 	H 	0.07710 0.14140 0.17000 0.07100
H 	H 	0.03050 0.14470 0.14040 0.04700
H 	H 	0.07160 0.11170 0.12360 0.07300
C 	C 	0.98120 0.08560 0.17480 1.39700
H 	H 	0.96760 0.06090 0.19360 -0.29100
H 	H 	0.97230 0.08140 0.14240 0.29200
H 	H 	0.97010 0.11560 0.18580 -0.26800
O 	O 	0.73150 0.54730 0.66630 -0.40400
O 	O 	0.78780 0.54750 0.72150 -0.40100
O 	O 	0.73440 0.66570 0.54760 -0.38900
O 	O 	0.78850 0.72200 0.54790 -0.39400
C 	C 	0.76770 0.56230 0.68600 0.33400
C 	C 	0.76670 0.68880 0.56580 0.32500
C 	C 	0.79130 0.60510 0.66470 -0.05100
C 	C 	0.82870 0.62630 0.68600 -0.03300
H 	H 	0.84120 0.61380 0.71370 0.06000
C 	C 	0.84800 0.66590 0.66690 0.01000
C 	C 	0.82980 0.68430 0.62640 -0.03600
H 	H 	0.84300 0.71140 0.61330 0.06100
C 	C 	0.79240 0.66310 0.60510 -0.04500
C 	C 	0.77310 0.62350 0.62420 -0.00400
H 	H 	0.74750 0.60900 0.60960 0.06500
C 	C 	0.95830 0.73830 0.73680 0.01500
C 	C 	0.92960 0.70850 0.76120 -0.01200
H 	H 	0.93430 0.70390 0.79340 0.06400
C 	C 	0.89410 0.68540 0.73860 -0.06300
H 	H 	0.87450 0.66510 0.75530 0.06400
C 	C 	0.88720 0.69220 0.69150 0.02900
C 	C 	0.91590 0.72190 0.66710 -0.05700
H 	H 	0.91130 0.72650 0.63490 0.05700
C 	C 	0.95150 0.74500 0.68970 -0.03700
H 	H 	0.97110 0.76530 0.67300 0.06700
O 	O 	0.99930 0.74930 0.80740 0.21100
H 	H 	0.99930 0.72160 0.81190 -0.34900
C 	C 	0.00200 0.81090 0.75260 -0.29300
H 	H 	0.97090 0.82430 0.75960 0.11500
C 	C 	0.01500 0.82240 0.70250 0.90300
H 	H 	0.03930 0.84600 0.70220 -0.20600
H 	H 	0.98780 0.83410 0.68610 -0.18900
H 	H 	0.02630 0.79450 0.68700 -0.22400
N 	N 	0.03620 0.83030 0.78520 -0.18800
H 	H 	0.03970 0.82120 0.81400 0.12100
C 	C 	0.06270 0.86560 0.76400 0.26300
O 	O 	0.08700 0.85600 0.72900 -0.20300
O 	O 	0.05100 0.91220 0.77200 -0.11900
C 	C 	0.03450 0.91620 0.82100 -0.30000
C 	C 	0.05180 0.96240 0.84170 0.32600
H 	H 	0.03980 0.98820 0.82330 -0.12400
H 	H 	0.08560 0.96300 0.84120 -1.01200
H 	H 	0.04090 0.96530 0.87360 -0.12400
C 	C 	0.05540 0.87590 0.84940 -0.08700
H 	H 	0.07710 0.85860 0.83000 0.07100
H 	H 	0.03050 0.85530 0.85960 0.04700
H 	H 	0.07160 0.88830 0.87640 0.07400
C 	C 	0.98120 0.91440 0.82520 1.40000
H 	H 	0.96760 0.93910 0.80640 -0.29200
H 	H 	0.97230 0.91860 0.85760 0.29200
H 	H 	0.97010 0.88440 0.81420 -0.26800
O 	O 	0.26850 0.54730 0.33370 -0.40500
O 	O 	0.21220 0.54750 0.27850 -0.40200
O 	O 	0.26560 0.66570 0.45240 -0.38900
O 	O 	0.21150 0.72200 0.45210 -0.39400
C 	C 	0.23230 0.56230 0.31400 0.33400
C 	C 	0.23330 0.68880 0.43420 0.32500
C 	C 	0.20870 0.60510 0.33530 -0.05100
C 	C 	0.17130 0.62630 0.31400 -0.03200
H 	H 	0.15880 0.61380 0.28630 0.06000
C 	C 	0.15200 0.66590 0.33310 0.00900
C 	C 	0.17020 0.68430 0.37360 -0.03600
H 	H 	0.15700 0.71140 0.38670 0.06100
C 	C 	0.20760 0.66310 0.39490 -0.04500
C 	C 	0.22690 0.62350 0.37580 -0.00400
H 	H 	0.25250 0.60900 0.39040 0.06500
C 	C 	0.04170 0.73830 0.26320 0.01300
C 	C 	0.07040 0.70850 0.23880 -0.01000
H 	H 	0.06570 0.70390 0.20660 0.06400
C 	C 	0.10590 0.68540 0.26140 -0.06400
H 	H 	0.12550 0.66510 0.24470 0.06400
C 	C 	0.11280 0.69220 0.30850 0.03000
C 	C 	0.08410 0.72190 0.33290 -0.05700
H 	H 	0.08870 0.72650 0.36510 0.05700
C 	C 	0.04850 0.74500 0.31030 -0.03700
H 	H 	0.02890 0.76530 0.32700 0.06600
O 	O 	0.00070 0.74930 0.19260 0.20900
H 	H 	0.00070 0.72160 0.18810 -0.35400
C 	C 	0.99800 0.81090 0.24740 -0.29400
H 	H 	0.02910 0.82430 0.24040 0.11300
C 	C 	0.98500 0.82240 0.29750 0.89300
H 	H 	0.96070 0.84600 0.29780 -0.20200
H 	H 	0.01220 0.83410 0.31390 -0.18900
H 	H 	0.97370 0.79450 0.31300 -0.22000
N 	N 	0.96380 0.83030 0.21480 -0.18700
H 	H 	0.96030 0.82120 0.18600 0.12100
C 	C 	0.93730 0.86560 0.23600 0.26300
O 	O 	0.91300 0.85600 0.27100 -0.20400
O 	O 	0.94900 0.91220 0.22800 -0.11800
C 	C 	0.96550 0.91620 0.17900 -0.30100
C 	C 	0.94820 0.96240 0.15830 0.33000
H 	H 	0.96020 0.98820 0.17670 -0.12400
H 	H 	0.91440 0.96300 0.15880 -1.01500
H 	H 	0.95910 0.96530 0.12640 -0.12500
C 	C 	0.94460 0.87590 0.15060 -0.08500
H 	H 	0.92290 0.85860 0.17000 0.07000
H 	H 	0.96950 0.85530 0.14040 0.04700
H 	H 	0.92840 0.88830 0.12360 0.07300
C 	C 	0.01880 0.91440 0.17480 1.41200
H 	H 	0.03240 0.93910 0.19360 -0.29600
H 	H 	0.02770 0.91860 0.14240 0.29300
H 	H 	0.02990 0.88440 0.18580 -0.27100
O 	O 	0.45270 0.33370 0.73150 -0.40400
O 	O 	0.45250 0.27850 0.78780 -0.40200
O 	O 	0.33430 0.45240 0.73440 -0.38900
O 	O 	0.27800 0.45210 0.78850 -0.39400
C 	C 	0.43770 0.31400 0.76770 0.33400
C 	C 	0.31120 0.43420 0.76670 0.32500
C 	C 	0.39490 0.33530 0.79130 -0.05100
C 	C 	0.37370 0.31400 0.82870 -0.03300
H 	H 	0.38620 0.28630 0.84120 0.06000
C 	C 	0.33410 0.33310 0.84800 0.01000
C 	C 	0.31570 0.37360 0.82980 -0.03600
H 	H 	0.28860 0.38670 0.84300 0.06100
C 	C 	0.33690 0.39490 0.79240 -0.04500
C 	C 	0.37650 0.37580 0.77310 -0.00400
H 	H 	0.39100 0.39040 0.74750 0.06500
C 	C 	0.26170 0.26320 0.95830 0.01500
C 	C 	0.29150 0.23880 0.92960 -0.01200
H 	H 	0.29610 0.20660 0.93430 0.06400
C 	C 	0.31460 0.26140 0.89410 -0.06300
H 	H 	0.33490 0.24470 0.87450 0.06400
C 	C 	0.30780 0.30850 0.88720 0.02900
C 	C 	0.27810 0.33290 0.91590 -0.05700
H 	H 	0.27350 0.36510 0.91130 0.05700
C 	C 	0.25500 0.31030 0.95150 -0.03700
H 	H 	0.23470 0.32700 0.97110 0.06700
O 	O 	0.25070 0.19260 0.99930 0.21100
H 	H 	0.27840 0.18810 0.99930 -0.34900
C 	C 	0.18910 0.24740 0.00200 -0.29300
H 	H 	0.17570 0.24040 0.97090 0.11500
C 	C 	0.17760 0.29750 0.01500 0.90200
H 	H 	0.15400 0.29780 0.03930 -0.20600
H 	H 	0.16590 0.31390 0.98780 -0.18900
H 	H 	0.20550 0.31300 0.02630 -0.22400
N 	N 	0.16970 0.21480 0.03620 -0.18800
H 	H 	0.17880 0.18600 0.03970 0.12100
C 	C 	0.13440 0.23600 0.06270 0.26300
O 	O 	0.14400 0.27100 0.08700 -0.20400
O 	O 	0.08780 0.22800 0.05100 -0.11900
C 	C 	0.08380 0.17900 0.03450 -0.30000
C 	C 	0.03760 0.15830 0.05180 0.33400
H 	H 	0.01180 0.17670 0.03980 -0.12800
H 	H 	0.03700 0.15880 0.08560 -1.02100
H 	H 	0.03470 0.12640 0.04090 -0.12800
C 	C 	0.12410 0.15060 0.05540 -0.08600
H 	H 	0.14140 0.17000 0.07710 0.07100
H 	H 	0.14470 0.14040 0.03050 0.04700
H 	H 	0.11170 0.12360 0.07160 0.07300
C 	C 	0.08560 0.17480 0.98120 1.39700
H 	H 	0.06090 0.19360 0.96760 -0.29100
H 	H 	0.08140 0.14240 0.97230 0.29200
H 	H 	0.11560 0.18580 0.97010 -0.26800
O 	O 	0.45270 0.66630 0.26850 -0.40400
O 	O 	0.45250 0.72150 0.21220 -0.40200
O 	O 	0.33430 0.54760 0.26560 -0.38900
O 	O 	0.27800 0.54790 0.21150 -0.39500
C 	C 	0.43770 0.68600 0.23230 0.33400
C 	C 	0.31120 0.56580 0.23330 0.32500
C 	C 	0.39490 0.66470 0.20870 -0.05100
C 	C 	0.37370 0.68600 0.17130 -0.03200
H 	H 	0.38620 0.71370 0.15880 0.06000
C 	C 	0.33410 0.66690 0.15200 0.00900
C 	C 	0.31570 0.62640 0.17020 -0.03600
H 	H 	0.28860 0.61330 0.15700 0.06100
C 	C 	0.33690 0.60510 0.20760 -0.04500
C 	C 	0.37650 0.62420 0.22690 -0.00400
H 	H 	0.39100 0.60960 0.25250 0.06500
C 	C 	0.26170 0.73680 0.04170 0.01300
C 	C 	0.29150 0.76120 0.07040 -0.01000
H 	H 	0.29610 0.79340 0.06570 0.06400
C 	C 	0.31460 0.73860 0.10590 -0.06400
H 	H 	0.33490 0.75530 0.12550 0.06400
C 	C 	0.30780 0.69150 0.11280 0.03000
C 	C 	0.27810 0.66710 0.08410 -0.05800
H 	H 	0.27350 0.63490 0.08870 0.05700
C 	C 	0.25500 0.68970 0.04850 -0.03700
H 	H 	0.23470 0.67300 0.02890 0.06600
O 	O 	0.25070 0.80740 0.00070 0.21000
H 	H 	0.27840 0.81190 0.00070 -0.35500
C 	C 	0.18910 0.75260 0.99800 -0.29400
H 	H 	0.17570 0.75960 0.02910 0.11300
C 	C 	0.17760 0.70250 0.98500 0.89300
H 	H 	0.15400 0.70220 0.96070 -0.20200
H 	H 	0.16590 0.68610 0.01220 -0.18900
H 	H 	0.20550 0.68700 0.97370 -0.22000
N 	N 	0.16970 0.78520 0.96380 -0.18700
H 	H 	0.17880 0.81400 0.96030 0.12100
C 	C 	0.13440 0.76400 0.93730 0.26300
O 	O 	0.14400 0.72900 0.91300 -0.20400
O 	O 	0.08780 0.77200 0.94900 -0.11800
C 	C 	0.08380 0.82100 0.96550 -0.30200
C 	C 	0.03760 0.84170 0.94820 0.33800
H 	H 	0.01180 0.82330 0.96020 -0.12800
H 	H 	0.03700 0.84120 0.91440 -1.02400
H 	H 	0.03470 0.87360 0.95910 -0.12800
C 	C 	0.12410 0.84940 0.94460 -0.08400
H 	H 	0.14140 0.83000 0.92290 0.07000
H 	H 	0.14470 0.85960 0.96950 0.04700
H 	H 	0.11170 0.87640 0.92840 0.07300
C 	C 	0.08560 0.82520 0.01880 1.40900
H 	H 	0.06090 0.80640 0.03240 -0.29500
H 	H 	0.08140 0.85760 0.02770 0.29300
H 	H 	0.11560 0.81420 0.02990 -0.27100
O 	O 	0.54730 0.33370 0.26850 -0.40500
O 	O 	0.54750 0.27850 0.21220 -0.40200
O 	O 	0.66570 0.45240 0.26560 -0.38900
O 	O 	0.72200 0.45210 0.21150 -0.39400
C 	C 	0.56230 0.31400 0.23230 0.33400
C 	C 	0.68880 0.43420 0.23330 0.32500
C 	C 	0.60510 0.33530 0.20870 -0.05100
C 	C 	0.62630 0.31400 0.17130 -0.03200
H 	H 	0.61380 0.28630 0.15880 0.06000
C 	C 	0.66590 0.33310 0.15200 0.00900
C 	C 	0.68430 0.37360 0.17020 -0.03600
H 	H 	0.71140 0.38670 0.15700 0.06100
C 	C 	0.66310 0.39490 0.20760 -0.04500
C 	C 	0.62350 0.37580 0.22690 -0.00400
H 	H 	0.60900 0.39040 0.25250 0.06500
C 	C 	0.73830 0.26320 0.04170 0.01300
C 	C 	0.70850 0.23880 0.07040 -0.01000
H 	H 	0.70390 0.20660 0.06570 0.06400
C 	C 	0.68540 0.26140 0.10590 -0.06400
H 	H 	0.66510 0.24470 0.12550 0.06400
C 	C 	0.69220 0.30850 0.11280 0.03000
C 	C 	0.72190 0.33290 0.08410 -0.05700
H 	H 	0.72650 0.36510 0.08870 0.05700
C 	C 	0.74500 0.31030 0.04850 -0.03700
H 	H 	0.76530 0.32700 0.02890 0.06600
O 	O 	0.74930 0.19260 0.00070 0.20900
H 	H 	0.72160 0.18810 0.00070 -0.35400
C 	C 	0.81090 0.24740 0.99800 -0.29400
H 	H 	0.82430 0.24040 0.02910 0.11300
C 	C 	0.82240 0.29750 0.98500 0.89300
H 	H 	0.84600 0.29780 0.96070 -0.20200
H 	H 	0.83410 0.31390 0.01220 -0.18900
H 	H 	0.79450 0.31300 0.97370 -0.22000
N 	N 	0.83030 0.21480 0.96380 -0.18700
H 	H 	0.82120 0.18600 0.96030 0.12100
C 	C 	0.86560 0.23600 0.93730 0.26300
O 	O 	0.85600 0.27100 0.91300 -0.20400
O 	O 	0.91220 0.22800 0.94900 -0.11800
C 	C 	0.91620 0.17900 0.96550 -0.30100
C 	C 	0.96240 0.15830 0.94820 0.33000
H 	H 	0.98820 0.17670 0.96020 -0.12400
H 	H 	0.96300 0.15880 0.91440 -1.01500
H 	H 	0.96530 0.12640 0.95910 -0.12500
C 	C 	0.87590 0.15060 0.94460 -0.08500
H 	H 	0.85860 0.17000 0.92290 0.07000
H 	H 	0.85530 0.14040 0.96950 0.04700
H 	H 	0.88830 0.12360 0.92840 0.07300
C 	C 	0.91440 0.17480 0.01880 1.41200
H 	H 	0.93910 0.19360 0.03240 -0.29600
H 	H 	0.91860 0.14240 0.02770 0.29300
H 	H 	0.88440 0.18580 0.02990 -0.27100
O 	O 	0.54730 0.66630 0.73150 -0.40400
O 	O 	0.54750 0.72150 0.78780 -0.40100
O 	O 	0.66570 0.54760 0.73440 -0.38900
O 	O 	0.72200 0.54790 0.78850 -0.39400
C 	C 	0.56230 0.68600 0.76770 0.33400
C 	C 	0.68880 0.56580 0.76670 0.32500
C 	C 	0.60510 0.66470 0.79130 -0.05100
C 	C 	0.62630 0.68600 0.82870 -0.03300
H 	H 	0.61380 0.71370 0.84120 0.06000
C 	C 	0.66590 0.66690 0.84800 0.01000
C 	C 	0.68430 0.62640 0.82980 -0.03600
H 	H 	0.71140 0.61330 0.84300 0.06100
C 	C 	0.66310 0.60510 0.79240 -0.04500
C 	C 	0.62350 0.62420 0.77310 -0.00400
H 	H 	0.60900 0.60960 0.74750 0.06500
C 	C 	0.73830 0.73680 0.95830 0.01500
C 	C 	0.70850 0.76120 0.92960 -0.01200
H 	H 	0.70390 0.79340 0.93430 0.06400
C 	C 	0.68540 0.73860 0.89410 -0.06300
H 	H 	0.66510 0.75530 0.87450 0.06400
C 	C 	0.69220 0.69150 0.88720 0.02900
C 	C 	0.72190 0.66710 0.91590 -0.05700
H 	H 	0.72650 0.63490 0.91130 0.05700
C 	C 	0.74500 0.68970 0.95150 -0.03700
H 	H 	0.76530 0.67300 0.97110 0.06700
O 	O 	0.74930 0.80740 0.99930 0.21100
H 	H 	0.72160 0.81190 0.99930 -0.34900
C 	C 	0.81090 0.75260 0.00200 -0.29300
H 	H 	0.82430 0.75960 0.97090 0.11500
C 	C 	0.82240 0.70250 0.01500 0.90300
H 	H 	0.84600 0.70220 0.03930 -0.20600
H 	H 	0.83410 0.68610 0.98780 -0.18900
H 	H 	0.79450 0.68700 0.02630 -0.22400
N 	N 	0.83030 0.78520 0.03620 -0.18800
H 	H 	0.82120 0.81400 0.03970 0.12100
C 	C 	0.86560 0.76400 0.06270 0.26300
O 	O 	0.85600 0.72900 0.08700 -0.20300
O 	O 	0.91220 0.77200 0.05100 -0.11900
C 	C 	0.91620 0.82100 0.03450 -0.30000
C 	C 	0.96240 0.84170 0.05180 0.32600
H 	H 	0.98820 0.82330 0.03980 -0.12400
H 	H 	0.96300 0.84120 0.08560 -1.01200
H 	H 	0.96530 0.87360 0.04090 -0.12400
C 	C 	0.87590 0.84940 0.05540 -0.08700
H 	H 	0.85860 0.83000 0.07710 0.07100
H 	H 	0.85530 0.85960 0.03050 0.04700
H 	H 	0.88830 0.87640 0.07160 0.07400
C 	C 	0.91440 0.82520 0.98120 1.40000
H 	H 	0.93910 0.80640 0.96760 -0.29200
H 	H 	0.91860 0.85760 0.97230 0.29200
H 	H 	0.88440 0.81420 0.97010 -0.26800
Cu	Cu	0.30540 0.30540 0.50000 0.90500
Cu	Cu	0.24039 0.24039 0.50000 0.90600
Cu	Cu	0.69460 0.69460 0.50000 0.90400
Cu	Cu	0.75961 0.75961 0.50000 0.90600
Cu	Cu	0.69460 0.30540 0.50000 0.90400
Cu	Cu	0.75961 0.24039 0.50000 0.90600
Cu	Cu	0.30540 0.69460 0.50000 0.90400
Cu	Cu	0.24039 0.75961 0.50000 0.90600
Cu	Cu	0.50000 0.30540 0.30540 0.90500
Cu	Cu	0.50000 0.24039 0.24039 0.90600
Cu	Cu	0.50000 0.69460 0.69460 0.90400
Cu	Cu	0.50000 0.75961 0.75961 0.90600
Cu	Cu	0.50000 0.69460 0.30540 0.90400
Cu	Cu	0.50000 0.75961 0.24039 0.90600
Cu	Cu	0.50000 0.30540 0.69460 0.90400
Cu	Cu	0.50000 0.24039 0.75961 0.90600
Cu	Cu	0.30540 0.50000 0.30540 0.90500
Cu	Cu	0.24039 0.50000 0.24039 0.90600
Cu	Cu	0.69460 0.50000 0.69460 0.90400
Cu	Cu	0.75961 0.50000 0.75961 0.90600
Cu	Cu	0.30540 0.50000 0.69460 0.90400
Cu	Cu	0.24039 0.50000 0.75961 0.90600
Cu	Cu	0.69460 0.50000 0.30540 0.90400
Cu	Cu	0.75961 0.50000 0.24039 0.90600
C 	C 	0.00000 0.24090 0.24090 0.07200
C 	C 	0.00000 0.75910 0.24090 0.07200
C 	C 	0.00000 0.24090 0.75910 0.07200
C 	C 	0.00000 0.75910 0.75910 0.07200
C 	C 	0.24090 -0.00000 0.24090 0.07200
C 	C 	0.24090 0.00000 0.75910 0.07200
C 	C 	0.75910 -0.00000 0.24090 0.07200
C 	C 	0.75910 0.00000 0.75910 0.07200
C 	C 	0.24090 0.24090 -0.00000 0.07200
C 	C 	0.75910 0.24090 -0.00000 0.07200
C 	C 	0.24090 0.75910 -0.00000 0.07200
C 	C 	0.75910 0.75910 -0.00000 0.07200
