data_crystal

_cell_length_a 32.96800
_cell_length_b 32.96800
_cell_length_c 32.97570
_cell_angle_alpha 60.00770
_cell_angle_beta  60.00770
_cell_angle_gamma 60.00000

_symmetry_space_group_name_	'P 1'
_symmetry_space_group_name_H-M	'P 1'

loop_
_symmetry_equiv_pos_as_xyz
  x,y,z

loop_
_atom_site_label
_atom_site_type_symbol
_atom_site_fract_x
_atom_site_fract_y
_atom_site_fract_z
_atom_site_charge
Cu	Cu	0.36339 0.44370 0.29014 0.90600
Cu	Cu	0.44370 0.90277 0.29014 0.90600
Cu	Cu	0.90277 0.36339 0.29014 0.90600
Cu	Cu	0.36339 0.90277 0.29014 0.90600
Cu	Cu	0.44370 0.36339 0.29014 0.90600
Cu	Cu	0.90277 0.44370 0.29014 0.90600
Cu	Cu	0.90361 0.44306 0.74972 0.90600
Cu	Cu	0.90327 0.36302 0.83044 0.90600
Cu	Cu	0.44306 0.90361 0.74972 0.90600
Cu	Cu	0.36301 0.90327 0.83045 0.90600
Cu	Cu	0.90361 0.90361 0.74972 0.90600
Cu	Cu	0.90327 0.90327 0.83044 0.90600
H 	H 	0.05990 0.28110 0.78520 0.03100
H 	H 	0.14300 0.24150 0.74890 0.08000
H 	H 	0.14260 0.35690 0.62560 0.08200
H 	H 	0.06020 0.39620 0.66130 0.02900
H 	H 	0.36570 0.23910 0.52750 0.07400
H 	H 	0.39840 0.27820 0.44350 0.03700
H 	H 	0.27500 0.39620 0.27250 0.03400
H 	H 	0.23620 0.35670 0.26980 0.07700
H 	H 	0.75100 0.41200 0.91630 0.02000
H 	H 	0.66950 0.44660 0.95410 0.09000
H 	H 	0.66430 0.56410 0.83170 0.09500
H 	H 	0.74640 0.52900 0.79510 0.02100
H 	H 	0.45010 0.56530 0.05100 0.08200
H 	H 	0.40820 0.52880 0.13350 0.03500
H 	H 	0.40920 0.53010 0.31570 0.03100
H 	H 	0.44700 0.56810 0.31900 0.08300
H 	H 	0.28110 0.87380 0.78520 0.03100
H 	H 	0.24150 0.86660 0.74890 0.08000
H 	H 	0.35690 0.87490 0.62560 0.08200
H 	H 	0.39620 0.88230 0.66130 0.02900
H 	H 	0.23910 0.86770 0.52750 0.07400
H 	H 	0.27820 0.87990 0.44350 0.03700
H 	H 	0.39620 0.05630 0.27250 0.03400
H 	H 	0.35670 0.13730 0.26980 0.07700
H 	H 	0.41200 0.92070 0.91630 0.02000
H 	H 	0.44660 0.92980 0.95410 0.09000
H 	H 	0.56410 0.93990 0.83170 0.09500
H 	H 	0.52900 0.92950 0.79510 0.02100
H 	H 	0.56530 0.93360 0.05100 0.08200
H 	H 	0.52880 0.92950 0.13350 0.03500
H 	H 	0.53010 0.74500 0.31570 0.03100
H 	H 	0.56810 0.66590 0.31900 0.08300
H 	H 	0.87380 0.05990 0.78520 0.03100
H 	H 	0.86660 0.14300 0.74890 0.08000
H 	H 	0.87490 0.14260 0.62560 0.08200
H 	H 	0.88230 0.06020 0.66130 0.02900
H 	H 	0.86770 0.36570 0.52750 0.07400
H 	H 	0.87990 0.39840 0.44350 0.03700
H 	H 	0.05630 0.27500 0.27250 0.03400
H 	H 	0.13730 0.23620 0.26980 0.07700
H 	H 	0.92070 0.75100 0.91630 0.02000
H 	H 	0.92980 0.66950 0.95410 0.08900
H 	H 	0.93990 0.66430 0.83170 0.09400
H 	H 	0.92950 0.74640 0.79510 0.02000
H 	H 	0.93360 0.45010 0.05100 0.08100
H 	H 	0.92950 0.40820 0.13350 0.03400
H 	H 	0.74500 0.40920 0.31570 0.03000
H 	H 	0.66590 0.44700 0.31900 0.08200
H 	H 	0.05990 0.87380 0.78520 0.03000
H 	H 	0.14300 0.86660 0.74890 0.07900
H 	H 	0.14260 0.87490 0.62560 0.08100
H 	H 	0.06020 0.88230 0.66130 0.02800
H 	H 	0.36570 0.86770 0.52750 0.07300
H 	H 	0.39840 0.87990 0.44350 0.03600
H 	H 	0.27500 0.05630 0.27250 0.03300
H 	H 	0.23620 0.13730 0.26980 0.07600
H 	H 	0.75100 0.92070 0.91630 0.01900
H 	H 	0.66950 0.92980 0.95410 0.08900
H 	H 	0.66430 0.93990 0.83170 0.09400
H 	H 	0.74640 0.92950 0.79510 0.02000
H 	H 	0.45010 0.93360 0.05100 0.08100
H 	H 	0.40820 0.92950 0.13350 0.03400
H 	H 	0.40920 0.74500 0.31570 0.03000
H 	H 	0.44700 0.66590 0.31900 0.08200
H 	H 	0.28110 0.05990 0.78520 0.03000
H 	H 	0.24150 0.14300 0.74890 0.07900
H 	H 	0.35690 0.14260 0.62560 0.08100
H 	H 	0.39620 0.06020 0.66130 0.02800
H 	H 	0.23910 0.36570 0.52750 0.07300
H 	H 	0.27820 0.39840 0.44350 0.03600
H 	H 	0.39620 0.27500 0.27250 0.03300
H 	H 	0.35670 0.23620 0.26980 0.07600
H 	H 	0.41200 0.75100 0.91630 0.01900
H 	H 	0.44660 0.66950 0.95410 0.08900
H 	H 	0.56410 0.66430 0.83170 0.09400
H 	H 	0.52900 0.74640 0.79510 0.02000
H 	H 	0.56530 0.45010 0.05100 0.08100
H 	H 	0.52880 0.40820 0.13350 0.03400
H 	H 	0.53010 0.40920 0.31570 0.03000
H 	H 	0.56810 0.44700 0.31900 0.08200
H 	H 	0.87380 0.28110 0.78520 0.03000
H 	H 	0.86660 0.24150 0.74890 0.07900
H 	H 	0.87490 0.35690 0.62560 0.08100
H 	H 	0.88230 0.39620 0.66130 0.02800
H 	H 	0.86770 0.23910 0.52750 0.07300
H 	H 	0.87990 0.27820 0.44350 0.03600
H 	H 	0.05630 0.39620 0.27250 0.03300
H 	H 	0.13730 0.35670 0.26980 0.07600
H 	H 	0.92070 0.41200 0.91630 0.01900
H 	H 	0.92980 0.44660 0.95410 0.08900
H 	H 	0.93990 0.56410 0.83170 0.09400
H 	H 	0.92950 0.52900 0.79510 0.02000
H 	H 	0.93360 0.56530 0.05100 0.08100
H 	H 	0.92950 0.52880 0.13350 0.03400
H 	H 	0.74500 0.53010 0.31570 0.03000
H 	H 	0.66590 0.56810 0.31900 0.08200
C 	C 	0.99527 0.36437 0.75199 0.38500
C 	C 	0.04943 0.34193 0.72811 -0.12500
C 	C 	0.07595 0.29695 0.75235 0.05300
C 	C 	0.12647 0.27277 0.73069 -0.11300
C 	C 	0.15059 0.29569 0.68323 0.05000
C 	C 	0.12589 0.34109 0.65803 -0.11600
C 	C 	0.07627 0.36467 0.67939 0.05300
C 	C 	0.20251 0.27201 0.65677 0.11400
C 	C 	0.34784 0.27074 0.51118 -0.09500
C 	C 	0.36665 0.29415 0.46165 0.03700
C 	C 	0.29145 0.36385 0.27205 0.03800
C 	C 	0.26874 0.34034 0.26968 -0.10100
C 	C 	0.81204 0.44094 0.82948 0.38400
C 	C 	0.75754 0.46514 0.85228 -0.14400
C 	C 	0.73354 0.44294 0.89878 0.08500
C 	C 	0.68476 0.46366 0.92152 -0.14300
C 	C 	0.65737 0.50887 0.89779 0.07300
C 	C 	0.68158 0.53308 0.84946 -0.13700
C 	C 	0.73047 0.51187 0.82759 0.07900
C 	C 	0.60354 0.53774 0.92128 0.09900
C 	C 	0.46641 0.53301 0.06777 -0.11400
C 	C 	0.44054 0.51144 0.11808 0.04500
C 	C 	0.44161 0.51311 0.31627 0.05300
C 	C 	0.46309 0.53529 0.31963 -0.11900
C 	C 	0.36437 0.88837 0.75199 0.38500
C 	C 	0.34193 0.88053 0.72811 -0.12500
C 	C 	0.29695 0.87475 0.75235 0.05300
C 	C 	0.27277 0.87007 0.73069 -0.11300
C 	C 	0.29569 0.87049 0.68323 0.05000
C 	C 	0.34109 0.87499 0.65803 -0.11600
C 	C 	0.36467 0.87967 0.67939 0.05300
C 	C 	0.27201 0.86871 0.65677 0.11400
C 	C 	0.27074 0.87024 0.51118 -0.09500
C 	C 	0.29415 0.87755 0.46165 0.03700
C 	C 	0.36385 0.07265 0.27205 0.03800
C 	C 	0.34034 0.12124 0.26968 -0.10100
C 	C 	0.44094 0.91754 0.82948 0.38400
C 	C 	0.46514 0.92504 0.85228 -0.14400
C 	C 	0.44294 0.92474 0.89878 0.08500
C 	C 	0.46366 0.93006 0.92152 -0.14300
C 	C 	0.50887 0.93597 0.89779 0.07300
C 	C 	0.53308 0.93588 0.84946 -0.13700
C 	C 	0.51187 0.93007 0.82759 0.07900
C 	C 	0.53774 0.93744 0.92128 0.09900
C 	C 	0.53301 0.93281 0.06777 -0.11400
C 	C 	0.51144 0.92994 0.11808 0.04400
C 	C 	0.51311 0.72901 0.31627 0.05300
C 	C 	0.53529 0.68199 0.31963 -0.11900
C 	C 	0.88837 0.99527 0.75199 0.38500
C 	C 	0.88053 0.04943 0.72811 -0.12500
C 	C 	0.87475 0.07595 0.75235 0.05300
C 	C 	0.87007 0.12647 0.73069 -0.11300
C 	C 	0.87049 0.15059 0.68323 0.05000
C 	C 	0.87499 0.12589 0.65803 -0.11600
C 	C 	0.87967 0.07627 0.67939 0.05300
C 	C 	0.86871 0.20251 0.65677 0.11400
C 	C 	0.87024 0.34784 0.51118 -0.09500
C 	C 	0.87755 0.36665 0.46165 0.03700
C 	C 	0.07265 0.29145 0.27205 0.03800
C 	C 	0.12124 0.26874 0.26968 -0.10100
C 	C 	0.91754 0.81204 0.82948 0.38400
C 	C 	0.92504 0.75754 0.85228 -0.14400
C 	C 	0.92474 0.73354 0.89878 0.08500
C 	C 	0.93006 0.68476 0.92152 -0.14300
C 	C 	0.93597 0.65737 0.89779 0.07300
C 	C 	0.93588 0.68158 0.84946 -0.13700
C 	C 	0.93007 0.73047 0.82759 0.07900
C 	C 	0.93744 0.60354 0.92128 0.09900
C 	C 	0.93281 0.46641 0.06777 -0.11400
C 	C 	0.92994 0.44054 0.11808 0.04400
C 	C 	0.72901 0.44161 0.31627 0.05300
C 	C 	0.68199 0.46309 0.31963 -0.11900
C 	C 	0.99527 0.88837 0.75199 0.38500
C 	C 	0.04943 0.88053 0.72811 -0.12500
C 	C 	0.07595 0.87475 0.75235 0.05300
C 	C 	0.12647 0.87007 0.73069 -0.11300
C 	C 	0.15059 0.87049 0.68323 0.05000
C 	C 	0.12589 0.87499 0.65803 -0.11600
C 	C 	0.07627 0.87967 0.67939 0.05300
C 	C 	0.20251 0.86871 0.65677 0.11400
C 	C 	0.34784 0.87024 0.51118 -0.09500
C 	C 	0.36665 0.87755 0.46165 0.03700
C 	C 	0.29145 0.07265 0.27205 0.03800
C 	C 	0.26874 0.12124 0.26968 -0.10100
C 	C 	0.81204 0.91754 0.82948 0.38400
C 	C 	0.75754 0.92504 0.85228 -0.14400
C 	C 	0.73354 0.92474 0.89878 0.08500
C 	C 	0.68476 0.93006 0.92152 -0.14300
C 	C 	0.65737 0.93597 0.89779 0.07300
C 	C 	0.68158 0.93588 0.84946 -0.13700
C 	C 	0.73047 0.93007 0.82759 0.07900
C 	C 	0.60354 0.93744 0.92128 0.09900
C 	C 	0.46641 0.93281 0.06777 -0.11400
C 	C 	0.44054 0.92994 0.11808 0.04400
C 	C 	0.44161 0.72901 0.31627 0.05300
C 	C 	0.46309 0.68199 0.31963 -0.11900
C 	C 	0.36437 0.99527 0.75199 0.38500
C 	C 	0.34193 0.04943 0.72811 -0.12500
C 	C 	0.29695 0.07595 0.75235 0.05300
C 	C 	0.27277 0.12647 0.73069 -0.11300
C 	C 	0.29569 0.15059 0.68323 0.05000
C 	C 	0.34109 0.12589 0.65803 -0.11600
C 	C 	0.36467 0.07627 0.67939 0.05300
C 	C 	0.27201 0.20251 0.65677 0.11400
C 	C 	0.27074 0.34784 0.51118 -0.09500
C 	C 	0.29415 0.36665 0.46165 0.03700
C 	C 	0.36385 0.29145 0.27205 0.03800
C 	C 	0.34034 0.26874 0.26968 -0.10100
C 	C 	0.44094 0.81204 0.82948 0.38400
C 	C 	0.46514 0.75754 0.85228 -0.14400
C 	C 	0.44294 0.73354 0.89878 0.08500
C 	C 	0.46366 0.68476 0.92152 -0.14300
C 	C 	0.50887 0.65737 0.89779 0.07300
C 	C 	0.53308 0.68158 0.84946 -0.13700
C 	C 	0.51187 0.73047 0.82759 0.07900
C 	C 	0.53774 0.60354 0.92128 0.09900
C 	C 	0.53301 0.46641 0.06777 -0.11400
C 	C 	0.51144 0.44054 0.11808 0.04500
C 	C 	0.51311 0.44161 0.31627 0.05300
C 	C 	0.53529 0.46309 0.31963 -0.11900
C 	C 	0.88837 0.36437 0.75199 0.38500
C 	C 	0.88053 0.34193 0.72811 -0.12500
C 	C 	0.87475 0.29695 0.75235 0.05300
C 	C 	0.87007 0.27277 0.73069 -0.11300
C 	C 	0.87049 0.29569 0.68323 0.05000
C 	C 	0.87499 0.34109 0.65803 -0.11600
C 	C 	0.87967 0.36467 0.67939 0.05300
C 	C 	0.86871 0.27201 0.65677 0.11400
C 	C 	0.87024 0.27074 0.51118 -0.09500
C 	C 	0.87755 0.29415 0.46165 0.03700
C 	C 	0.07265 0.36385 0.27205 0.03800
C 	C 	0.12124 0.34034 0.26968 -0.10100
C 	C 	0.91754 0.44094 0.82948 0.38400
C 	C 	0.92504 0.46514 0.85228 -0.14400
C 	C 	0.92474 0.44294 0.89878 0.08500
C 	C 	0.93006 0.46366 0.92152 -0.14300
C 	C 	0.93597 0.50887 0.89779 0.07300
C 	C 	0.93588 0.53308 0.84946 -0.13700
C 	C 	0.93007 0.51187 0.82759 0.07900
C 	C 	0.93744 0.53774 0.92128 0.09900
C 	C 	0.93281 0.53301 0.06777 -0.11400
C 	C 	0.92994 0.51144 0.11808 0.04400
C 	C 	0.72901 0.51311 0.31627 0.05300
C 	C 	0.68199 0.53529 0.31963 -0.11900
C 	C 	0.27035 0.27035 0.59260 0.12100
C 	C 	0.29824 0.29824 0.53683 0.03200
C 	C 	0.34016 0.34016 0.43807 -0.10500
C 	C 	0.36485 0.36485 0.38290 0.36900
C 	C 	0.36342 0.36342 0.27874 0.35700
C 	C 	0.33888 0.33888 0.27391 -0.11100
C 	C 	0.29290 0.29290 0.26725 0.03900
C 	C 	0.26742 0.26742 0.26524 0.11600
C 	C 	0.44149 0.44149 0.30358 0.38600
C 	C 	0.46521 0.46521 0.31357 -0.10700
C 	C 	0.50962 0.50962 0.32404 0.05400
C 	C 	0.53506 0.53506 0.32827 0.11500
C 	C 	0.27035 0.86670 0.59260 0.12100
C 	C 	0.29824 0.86669 0.53683 0.03200
C 	C 	0.34016 0.88161 0.43807 -0.10500
C 	C 	0.36485 0.88740 0.38290 0.36900
C 	C 	0.36342 0.99442 0.27874 0.35700
C 	C 	0.33888 0.04833 0.27391 -0.11100
C 	C 	0.29290 0.14695 0.26725 0.03900
C 	C 	0.26742 0.19992 0.26524 0.11600
C 	C 	0.44149 0.81344 0.30358 0.38600
C 	C 	0.46521 0.75601 0.31357 -0.10700
C 	C 	0.50962 0.65672 0.32404 0.05400
C 	C 	0.53506 0.60161 0.32827 0.11500
C 	C 	0.86670 0.27035 0.59260 0.12100
C 	C 	0.86669 0.29824 0.53683 0.03200
C 	C 	0.88161 0.34016 0.43807 -0.10500
C 	C 	0.88740 0.36485 0.38290 0.36900
C 	C 	0.99442 0.36342 0.27874 0.35700
C 	C 	0.04833 0.33888 0.27391 -0.11100
C 	C 	0.14695 0.29290 0.26725 0.03900
C 	C 	0.19992 0.26742 0.26524 0.11600
C 	C 	0.81344 0.44149 0.30358 0.38600
C 	C 	0.75601 0.46521 0.31357 -0.10700
C 	C 	0.65672 0.50962 0.32404 0.05400
C 	C 	0.60161 0.53506 0.32827 0.11500
C 	C 	0.53718 0.53718 0.99106 0.10100
C 	C 	0.51109 0.51109 0.04353 0.06400
C 	C 	0.46449 0.46449 0.14313 -0.10400
C 	C 	0.44096 0.44096 0.19902 0.36900
C 	C 	0.53718 0.93458 0.99106 0.10200
C 	C 	0.51109 0.93429 0.04353 0.06400
C 	C 	0.46449 0.92789 0.14313 -0.10400
C 	C 	0.44096 0.91906 0.19902 0.36900
C 	C 	0.93458 0.53718 0.99106 0.10200
C 	C 	0.93429 0.51109 0.04353 0.06400
C 	C 	0.92789 0.46449 0.14313 -0.10400
C 	C 	0.91906 0.44096 0.19902 0.36900
N 	N 	0.22409 0.29569 0.61213 -0.15000
N 	N 	0.58325 0.51172 0.96964 -0.13900
N 	N 	0.29569 0.86809 0.61213 -0.15000
N 	N 	0.51172 0.93539 0.96964 -0.13900
N 	N 	0.86809 0.22409 0.61213 -0.15000
N 	N 	0.93539 0.58325 0.96964 -0.13900
N 	N 	0.22409 0.86809 0.61213 -0.15000
N 	N 	0.58325 0.93539 0.96964 -0.13900
N 	N 	0.29569 0.22409 0.61213 -0.15000
N 	N 	0.51172 0.58325 0.96964 -0.13900
N 	N 	0.86809 0.29569 0.61213 -0.15000
N 	N 	0.93539 0.51172 0.96964 -0.13900
N 	N 	0.22156 0.29194 0.26494 -0.14700
N 	N 	0.29194 0.22156 0.26494 -0.14700
N 	N 	0.22156 0.22156 0.26494 -0.14700
N 	N 	0.22600 0.22600 0.68050 -0.14500
N 	N 	0.22600 0.86750 0.68050 -0.14500
N 	N 	0.86750 0.22600 0.68050 -0.14500
N 	N 	0.58340 0.58340 0.89575 -0.14000
N 	N 	0.58340 0.93745 0.89575 -0.14000
N 	N 	0.93745 0.58340 0.89575 -0.14000
N 	N 	0.58094 0.51063 0.32749 -0.14800
N 	N 	0.51063 0.58094 0.32749 -0.14800
N 	N 	0.58094 0.58094 0.32749 -0.14800
O 	O 	0.97528 0.33922 0.79450 -0.41400
O 	O 	0.97485 0.40668 0.72658 -0.41600
O 	O 	0.34043 0.40789 0.36244 -0.40700
O 	O 	0.33891 0.40701 0.28048 -0.40600
O 	O 	0.83211 0.39877 0.85363 -0.42200
O 	O 	0.83252 0.46672 0.78562 -0.40900
O 	O 	0.39819 0.46646 0.21840 -0.41100
O 	O 	0.39955 0.46743 0.30073 -0.42400
O 	O 	0.33922 0.89100 0.79450 -0.41400
O 	O 	0.40668 0.89189 0.72658 -0.41600
O 	O 	0.40789 0.88924 0.36244 -0.40700
O 	O 	0.40701 0.97360 0.28048 -0.40600
O 	O 	0.39877 0.91549 0.85363 -0.42200
O 	O 	0.46672 0.91514 0.78562 -0.40900
O 	O 	0.46646 0.91695 0.21840 -0.41100
O 	O 	0.46743 0.83229 0.30073 -0.42400
O 	O 	0.89100 0.97528 0.79450 -0.41400
O 	O 	0.89189 0.97485 0.72658 -0.41600
O 	O 	0.88924 0.34043 0.36244 -0.40700
O 	O 	0.97360 0.33891 0.28048 -0.40600
O 	O 	0.91549 0.83211 0.85363 -0.42200
O 	O 	0.91514 0.83252 0.78562 -0.40900
O 	O 	0.91695 0.39819 0.21840 -0.41100
O 	O 	0.83229 0.39955 0.30073 -0.42400
O 	O 	0.97528 0.89100 0.79450 -0.41400
O 	O 	0.97485 0.89189 0.72658 -0.41600
O 	O 	0.34043 0.88924 0.36244 -0.40700
O 	O 	0.33891 0.97360 0.28048 -0.40600
O 	O 	0.83211 0.91549 0.85363 -0.42200
O 	O 	0.83252 0.91514 0.78562 -0.40900
O 	O 	0.39819 0.91695 0.21840 -0.41100
O 	O 	0.39955 0.83229 0.30073 -0.42400
O 	O 	0.33922 0.97528 0.79450 -0.41400
O 	O 	0.40668 0.97485 0.72658 -0.41600
O 	O 	0.40789 0.34043 0.36244 -0.40700
O 	O 	0.40701 0.33891 0.28048 -0.40600
O 	O 	0.39877 0.83211 0.85363 -0.42200
O 	O 	0.46672 0.83252 0.78562 -0.40900
O 	O 	0.46646 0.39819 0.21840 -0.41100
O 	O 	0.46743 0.39955 0.30073 -0.42400
O 	O 	0.89100 0.33922 0.79450 -0.41400
O 	O 	0.89189 0.40668 0.72658 -0.41600
O 	O 	0.88924 0.40789 0.36244 -0.40700
O 	O 	0.97360 0.40701 0.28048 -0.40600
O 	O 	0.91549 0.39877 0.85363 -0.42200
O 	O 	0.91514 0.46672 0.78562 -0.40900
O 	O 	0.91695 0.46646 0.21840 -0.41100
O 	O 	0.83229 0.46743 0.30073 -0.42400
Cu	Cu	0.63661 0.09723 0.70986 0.90500
Cu	Cu	0.55630 0.63661 0.70986 0.90500
Cu	Cu	0.09723 0.55630 0.70986 0.90500
Cu	Cu	0.63661 0.55630 0.70986 0.90500
Cu	Cu	0.55630 0.09723 0.70986 0.90500
Cu	Cu	0.09723 0.63661 0.70986 0.90500
Cu	Cu	0.09639 0.09639 0.25028 0.90500
Cu	Cu	0.09673 0.09673 0.16955 0.90500
Cu	Cu	0.55694 0.09639 0.25028 0.90500
Cu	Cu	0.63698 0.09673 0.16956 0.90500
Cu	Cu	0.09639 0.55694 0.25028 0.90500
Cu	Cu	0.09673 0.63699 0.16955 0.90500
H 	H 	0.94010 0.12620 0.21480 0.03000
H 	H 	0.85700 0.13340 0.25110 0.07900
H 	H 	0.85740 0.12510 0.37440 0.08100
H 	H 	0.93980 0.11770 0.33870 0.02800
H 	H 	0.63430 0.13230 0.47250 0.07300
H 	H 	0.60160 0.12010 0.55650 0.03600
H 	H 	0.72500 0.94370 0.72750 0.03300
H 	H 	0.76380 0.86270 0.73020 0.07600
H 	H 	0.24900 0.07930 0.08370 0.01900
H 	H 	0.33050 0.07020 0.04590 0.08900
H 	H 	0.33570 0.06010 0.16830 0.09400
H 	H 	0.25360 0.07050 0.20490 0.02000
H 	H 	0.54990 0.06640 0.94900 0.08100
H 	H 	0.59180 0.07050 0.86650 0.03400
H 	H 	0.59080 0.25500 0.68430 0.03000
H 	H 	0.55300 0.33410 0.68100 0.08200
H 	H 	0.71890 0.94010 0.21480 0.03000
H 	H 	0.75850 0.85700 0.25110 0.07900
H 	H 	0.64310 0.85740 0.37440 0.08100
H 	H 	0.60380 0.93980 0.33870 0.02800
H 	H 	0.76090 0.63430 0.47250 0.07300
H 	H 	0.72180 0.60160 0.55650 0.03600
H 	H 	0.60380 0.72500 0.72750 0.03300
H 	H 	0.64330 0.76380 0.73020 0.07600
H 	H 	0.58800 0.24900 0.08370 0.01900
H 	H 	0.55340 0.33050 0.04590 0.08900
H 	H 	0.43590 0.33570 0.16830 0.09400
H 	H 	0.47100 0.25360 0.20490 0.02000
H 	H 	0.43470 0.54990 0.94900 0.08100
H 	H 	0.47120 0.59180 0.86650 0.03400
H 	H 	0.46990 0.59080 0.68430 0.03000
H 	H 	0.43190 0.55300 0.68100 0.08200
H 	H 	0.12620 0.71890 0.21480 0.03000
H 	H 	0.13340 0.75850 0.25110 0.07900
H 	H 	0.12510 0.64310 0.37440 0.08100
H 	H 	0.11770 0.60380 0.33870 0.02800
H 	H 	0.13230 0.76090 0.47250 0.07300
H 	H 	0.12010 0.72180 0.55650 0.03600
H 	H 	0.94370 0.60380 0.72750 0.03300
H 	H 	0.86270 0.64330 0.73020 0.07600
H 	H 	0.07930 0.58800 0.08370 0.01900
H 	H 	0.07020 0.55340 0.04590 0.08900
H 	H 	0.06010 0.43590 0.16830 0.09400
H 	H 	0.07050 0.47100 0.20490 0.02000
H 	H 	0.06640 0.43470 0.94900 0.08100
H 	H 	0.07050 0.47120 0.86650 0.03400
H 	H 	0.25500 0.46990 0.68430 0.03000
H 	H 	0.33410 0.43190 0.68100 0.08200
H 	H 	0.94010 0.71890 0.21480 0.03000
H 	H 	0.85700 0.75850 0.25110 0.07900
H 	H 	0.85740 0.64310 0.37440 0.08100
H 	H 	0.93980 0.60380 0.33870 0.02800
H 	H 	0.63430 0.76090 0.47250 0.07300
H 	H 	0.60160 0.72180 0.55650 0.03600
H 	H 	0.72500 0.60380 0.72750 0.03300
H 	H 	0.76380 0.64330 0.73020 0.07600
H 	H 	0.24900 0.58800 0.08370 0.01900
H 	H 	0.33050 0.55340 0.04590 0.08900
H 	H 	0.33570 0.43590 0.16830 0.09400
H 	H 	0.25360 0.47100 0.20490 0.02000
H 	H 	0.54990 0.43470 0.94900 0.08100
H 	H 	0.59180 0.47120 0.86650 0.03400
H 	H 	0.59080 0.46990 0.68430 0.03000
H 	H 	0.55300 0.43190 0.68100 0.08200
H 	H 	0.71890 0.12620 0.21480 0.03000
H 	H 	0.75850 0.13340 0.25110 0.07900
H 	H 	0.64310 0.12510 0.37440 0.08100
H 	H 	0.60380 0.11770 0.33870 0.02800
H 	H 	0.76090 0.13230 0.47250 0.07300
H 	H 	0.72180 0.12010 0.55650 0.03600
H 	H 	0.60380 0.94370 0.72750 0.03300
H 	H 	0.64330 0.86270 0.73020 0.07600
H 	H 	0.58800 0.07930 0.08370 0.01900
H 	H 	0.55340 0.07020 0.04590 0.08900
H 	H 	0.43590 0.06010 0.16830 0.09400
H 	H 	0.47100 0.07050 0.20490 0.02000
H 	H 	0.43470 0.06640 0.94900 0.08100
H 	H 	0.47120 0.07050 0.86650 0.03400
H 	H 	0.46990 0.25500 0.68430 0.03000
H 	H 	0.43190 0.33410 0.68100 0.08200
H 	H 	0.12620 0.94010 0.21480 0.03000
H 	H 	0.13340 0.85700 0.25110 0.07900
H 	H 	0.12510 0.85740 0.37440 0.08100
H 	H 	0.11770 0.93980 0.33870 0.02800
H 	H 	0.13230 0.63430 0.47250 0.07300
H 	H 	0.12010 0.60160 0.55650 0.03600
H 	H 	0.94370 0.72500 0.72750 0.03300
H 	H 	0.86270 0.76380 0.73020 0.07600
H 	H 	0.07930 0.24900 0.08370 0.01900
H 	H 	0.07020 0.33050 0.04590 0.08900
H 	H 	0.06010 0.33570 0.16830 0.09400
H 	H 	0.07050 0.25360 0.20490 0.02000
H 	H 	0.06640 0.54990 0.94900 0.08100
H 	H 	0.07050 0.59180 0.86650 0.03400
H 	H 	0.25500 0.59080 0.68430 0.03000
H 	H 	0.33410 0.55300 0.68100 0.08200
C 	C 	0.00473 0.11163 0.24801 0.38500
C 	C 	0.95057 0.11947 0.27189 -0.12500
C 	C 	0.92405 0.12525 0.24765 0.05300
C 	C 	0.87353 0.12993 0.26931 -0.11300
C 	C 	0.84941 0.12951 0.31677 0.05000
C 	C 	0.87411 0.12501 0.34197 -0.11600
C 	C 	0.92373 0.12033 0.32061 0.05300
C 	C 	0.79749 0.13129 0.34323 0.11400
C 	C 	0.65216 0.12976 0.48882 -0.09500
C 	C 	0.63335 0.12245 0.53835 0.03700
C 	C 	0.70855 0.92735 0.72795 0.03800
C 	C 	0.73126 0.87876 0.73032 -0.10100
C 	C 	0.18796 0.08246 0.17052 0.38400
C 	C 	0.24246 0.07496 0.14772 -0.14400
C 	C 	0.26646 0.07526 0.10122 0.08500
C 	C 	0.31524 0.06994 0.07848 -0.14300
C 	C 	0.34263 0.06403 0.10221 0.07300
C 	C 	0.31842 0.06412 0.15054 -0.13700
C 	C 	0.26953 0.06993 0.17241 0.07900
C 	C 	0.39646 0.06256 0.07872 0.09900
C 	C 	0.53359 0.06719 0.93223 -0.11400
C 	C 	0.55946 0.07006 0.88192 0.04400
C 	C 	0.55839 0.27099 0.68373 0.05300
C 	C 	0.53691 0.31801 0.68037 -0.11900
C 	C 	0.63563 0.00473 0.24801 0.38500
C 	C 	0.65807 0.95057 0.27189 -0.12500
C 	C 	0.70305 0.92405 0.24765 0.05300
C 	C 	0.72723 0.87353 0.26931 -0.11300
C 	C 	0.70431 0.84941 0.31677 0.05000
C 	C 	0.65891 0.87411 0.34197 -0.11600
C 	C 	0.63533 0.92373 0.32061 0.05300
C 	C 	0.72799 0.79749 0.34323 0.11400
C 	C 	0.72926 0.65216 0.48882 -0.09500
C 	C 	0.70585 0.63335 0.53835 0.03700
C 	C 	0.63615 0.70855 0.72795 0.03800
C 	C 	0.65966 0.73126 0.73032 -0.10100
C 	C 	0.55906 0.18796 0.17052 0.38400
C 	C 	0.53486 0.24246 0.14772 -0.14400
C 	C 	0.55706 0.26646 0.10122 0.08500
C 	C 	0.53634 0.31524 0.07848 -0.14300
C 	C 	0.49113 0.34263 0.10221 0.07300
C 	C 	0.46692 0.31842 0.15054 -0.13700
C 	C 	0.48813 0.26953 0.17241 0.07900
C 	C 	0.46226 0.39646 0.07872 0.09900
C 	C 	0.46699 0.53359 0.93223 -0.11400
C 	C 	0.48856 0.55946 0.88192 0.04500
C 	C 	0.48689 0.55839 0.68373 0.05300
C 	C 	0.46471 0.53691 0.68037 -0.11900
C 	C 	0.11163 0.63563 0.24801 0.38500
C 	C 	0.11947 0.65807 0.27189 -0.12500
C 	C 	0.12525 0.70305 0.24765 0.05300
C 	C 	0.12993 0.72723 0.26931 -0.11300
C 	C 	0.12951 0.70431 0.31677 0.05000
C 	C 	0.12501 0.65891 0.34197 -0.11600
C 	C 	0.12033 0.63533 0.32061 0.05300
C 	C 	0.13129 0.72799 0.34323 0.11400
C 	C 	0.12976 0.72926 0.48882 -0.09500
C 	C 	0.12245 0.70585 0.53835 0.03700
C 	C 	0.92735 0.63615 0.72795 0.03800
C 	C 	0.87876 0.65966 0.73032 -0.10100
C 	C 	0.08246 0.55906 0.17052 0.38400
C 	C 	0.07496 0.53486 0.14772 -0.14400
C 	C 	0.07526 0.55706 0.10122 0.08500
C 	C 	0.06994 0.53634 0.07848 -0.14300
C 	C 	0.06403 0.49113 0.10221 0.07300
C 	C 	0.06412 0.46692 0.15054 -0.13700
C 	C 	0.06993 0.48813 0.17241 0.07900
C 	C 	0.06256 0.46226 0.07872 0.09900
C 	C 	0.06719 0.46699 0.93223 -0.11400
C 	C 	0.07006 0.48856 0.88192 0.04400
C 	C 	0.27099 0.48689 0.68373 0.05300
C 	C 	0.31801 0.46471 0.68037 -0.11900
C 	C 	0.00473 0.63563 0.24801 0.38500
C 	C 	0.95057 0.65807 0.27189 -0.12500
C 	C 	0.92405 0.70305 0.24765 0.05300
C 	C 	0.87353 0.72723 0.26931 -0.11300
C 	C 	0.84941 0.70431 0.31677 0.05000
C 	C 	0.87411 0.65891 0.34197 -0.11600
C 	C 	0.92373 0.63533 0.32061 0.05300
C 	C 	0.79749 0.72799 0.34323 0.11400
C 	C 	0.65216 0.72926 0.48882 -0.09500
C 	C 	0.63335 0.70585 0.53835 0.03700
C 	C 	0.70855 0.63615 0.72795 0.03800
C 	C 	0.73126 0.65966 0.73032 -0.10100
C 	C 	0.18796 0.55906 0.17052 0.38400
C 	C 	0.24246 0.53486 0.14772 -0.14400
C 	C 	0.26646 0.55706 0.10122 0.08500
C 	C 	0.31524 0.53634 0.07848 -0.14300
C 	C 	0.34263 0.49113 0.10221 0.07300
C 	C 	0.31842 0.46692 0.15054 -0.13700
C 	C 	0.26953 0.48813 0.17241 0.07900
C 	C 	0.39646 0.46226 0.07872 0.09900
C 	C 	0.53359 0.46699 0.93223 -0.11400
C 	C 	0.55946 0.48856 0.88192 0.04500
C 	C 	0.55839 0.48689 0.68373 0.05300
C 	C 	0.53691 0.46471 0.68037 -0.11900
C 	C 	0.63563 0.11163 0.24801 0.38500
C 	C 	0.65807 0.11947 0.27189 -0.12500
C 	C 	0.70305 0.12525 0.24765 0.05300
C 	C 	0.72723 0.12993 0.26931 -0.11300
C 	C 	0.70431 0.12951 0.31677 0.05000
C 	C 	0.65891 0.12501 0.34197 -0.11600
C 	C 	0.63533 0.12033 0.32061 0.05300
C 	C 	0.72799 0.13129 0.34323 0.11400
C 	C 	0.72926 0.12976 0.48882 -0.09500
C 	C 	0.70585 0.12245 0.53835 0.03700
C 	C 	0.63615 0.92735 0.72795 0.03800
C 	C 	0.65966 0.87876 0.73032 -0.10100
C 	C 	0.55906 0.08246 0.17052 0.38400
C 	C 	0.53486 0.07496 0.14772 -0.14400
C 	C 	0.55706 0.07526 0.10122 0.08500
C 	C 	0.53634 0.06994 0.07848 -0.14300
C 	C 	0.49113 0.06403 0.10221 0.07300
C 	C 	0.46692 0.06412 0.15054 -0.13700
C 	C 	0.48813 0.06993 0.17241 0.07900
C 	C 	0.46226 0.06256 0.07872 0.09900
C 	C 	0.46699 0.06719 0.93223 -0.11400
C 	C 	0.48856 0.07006 0.88192 0.04400
C 	C 	0.48689 0.27099 0.68373 0.05300
C 	C 	0.46471 0.31801 0.68037 -0.11900
C 	C 	0.11163 0.00473 0.24801 0.38500
C 	C 	0.11947 0.95057 0.27189 -0.12500
C 	C 	0.12525 0.92405 0.24765 0.05300
C 	C 	0.12993 0.87353 0.26931 -0.11300
C 	C 	0.12951 0.84941 0.31677 0.05000
C 	C 	0.12501 0.87411 0.34197 -0.11600
C 	C 	0.12033 0.92373 0.32061 0.05300
C 	C 	0.13129 0.79749 0.34323 0.11400
C 	C 	0.12976 0.65216 0.48882 -0.09500
C 	C 	0.12245 0.63335 0.53835 0.03700
C 	C 	0.92735 0.70855 0.72795 0.03800
C 	C 	0.87876 0.73126 0.73032 -0.10100
C 	C 	0.08246 0.18796 0.17052 0.38400
C 	C 	0.07496 0.24246 0.14772 -0.14400
C 	C 	0.07526 0.26646 0.10122 0.08500
C 	C 	0.06994 0.31524 0.07848 -0.14300
C 	C 	0.06403 0.34263 0.10221 0.07300
C 	C 	0.06412 0.31842 0.15054 -0.13700
C 	C 	0.06993 0.26953 0.17241 0.07900
C 	C 	0.06256 0.39646 0.07872 0.09900
C 	C 	0.06719 0.53359 0.93223 -0.11400
C 	C 	0.07006 0.55946 0.88192 0.04400
C 	C 	0.27099 0.55839 0.68373 0.05300
C 	C 	0.31801 0.53691 0.68037 -0.11900
C 	C 	0.72965 0.13330 0.40740 0.12100
C 	C 	0.70176 0.13331 0.46317 0.03200
C 	C 	0.65984 0.11839 0.56193 -0.10500
C 	C 	0.63515 0.11260 0.61710 0.36900
C 	C 	0.63658 0.00558 0.72126 0.35700
C 	C 	0.66112 0.95167 0.72609 -0.11100
C 	C 	0.70710 0.85305 0.73275 0.03900
C 	C 	0.73258 0.80008 0.73476 0.11600
C 	C 	0.55851 0.18656 0.69642 0.38600
C 	C 	0.53479 0.24399 0.68643 -0.10700
C 	C 	0.49038 0.34328 0.67596 0.05400
C 	C 	0.46494 0.39839 0.67173 0.11500
C 	C 	0.72965 0.72965 0.40740 0.12100
C 	C 	0.70176 0.70176 0.46317 0.03200
C 	C 	0.65984 0.65984 0.56193 -0.10500
C 	C 	0.63515 0.63515 0.61710 0.36900
C 	C 	0.63658 0.63658 0.72126 0.35700
C 	C 	0.66112 0.66112 0.72609 -0.11100
C 	C 	0.70710 0.70710 0.73275 0.03900
C 	C 	0.73258 0.73258 0.73476 0.11600
C 	C 	0.55851 0.55851 0.69642 0.38600
C 	C 	0.53479 0.53479 0.68643 -0.10700
C 	C 	0.49038 0.49038 0.67596 0.05400
C 	C 	0.46494 0.46494 0.67173 0.11500
C 	C 	0.13330 0.72965 0.40740 0.12100
C 	C 	0.13331 0.70176 0.46317 0.03200
C 	C 	0.11839 0.65984 0.56193 -0.10500
C 	C 	0.11260 0.63515 0.61710 0.36900
C 	C 	0.00558 0.63658 0.72126 0.35600
C 	C 	0.95167 0.66112 0.72609 -0.11100
C 	C 	0.85305 0.70710 0.73275 0.03900
C 	C 	0.80008 0.73258 0.73476 0.11600
C 	C 	0.18656 0.55851 0.69642 0.38600
C 	C 	0.24399 0.53479 0.68643 -0.10700
C 	C 	0.34328 0.49038 0.67596 0.05400
C 	C 	0.39839 0.46494 0.67173 0.11500
C 	C 	0.46282 0.06542 0.00894 0.10200
C 	C 	0.48891 0.06571 0.95647 0.06400
C 	C 	0.53551 0.07211 0.85687 -0.10400
C 	C 	0.55904 0.08094 0.80098 0.36900
C 	C 	0.46282 0.46282 0.00894 0.10100
C 	C 	0.48891 0.48891 0.95647 0.06400
C 	C 	0.53551 0.53551 0.85687 -0.10400
C 	C 	0.55904 0.55904 0.80098 0.36900
C 	C 	0.06542 0.46282 0.00894 0.10200
C 	C 	0.06571 0.48891 0.95647 0.06400
C 	C 	0.07211 0.53551 0.85687 -0.10400
C 	C 	0.08094 0.55904 0.80098 0.36900
N 	N 	0.77591 0.13191 0.38787 -0.15000
N 	N 	0.41675 0.06461 0.03036 -0.13900
N 	N 	0.70431 0.77591 0.38787 -0.15000
N 	N 	0.48828 0.41675 0.03036 -0.13900
N 	N 	0.13191 0.70431 0.38787 -0.15000
N 	N 	0.06461 0.48828 0.03036 -0.13900
N 	N 	0.77591 0.70431 0.38787 -0.15000
N 	N 	0.41675 0.48828 0.03036 -0.13900
N 	N 	0.70431 0.13191 0.38787 -0.15000
N 	N 	0.48828 0.06461 0.03036 -0.13900
N 	N 	0.13191 0.77591 0.38787 -0.15000
N 	N 	0.06461 0.41675 0.03036 -0.13900
N 	N 	0.77844 0.77844 0.73506 -0.14700
N 	N 	0.70806 0.77844 0.73506 -0.14700
N 	N 	0.77844 0.70806 0.73506 -0.14700
N 	N 	0.77400 0.13250 0.31950 -0.14500
N 	N 	0.77400 0.77400 0.31950 -0.14500
N 	N 	0.13250 0.77400 0.31950 -0.14500
N 	N 	0.41660 0.06255 0.10425 -0.14000
N 	N 	0.41660 0.41660 0.10425 -0.14000
N 	N 	0.06255 0.41660 0.10425 -0.14000
N 	N 	0.41906 0.41906 0.67251 -0.14800
N 	N 	0.48937 0.41906 0.67251 -0.14800
N 	N 	0.41906 0.48937 0.67251 -0.14800
O 	O 	0.02472 0.10900 0.20550 -0.41400
O 	O 	0.02515 0.10811 0.27342 -0.41600
O 	O 	0.65957 0.11076 0.63756 -0.40700
O 	O 	0.66109 0.02640 0.71952 -0.40600
O 	O 	0.16789 0.08451 0.14637 -0.42200
O 	O 	0.16748 0.08486 0.21438 -0.40900
O 	O 	0.60181 0.08305 0.78160 -0.41100
O 	O 	0.60045 0.16771 0.69927 -0.42400
O 	O 	0.66078 0.02472 0.20550 -0.41400
O 	O 	0.59332 0.02515 0.27342 -0.41600
O 	O 	0.59211 0.65957 0.63756 -0.40700
O 	O 	0.59299 0.66109 0.71952 -0.40600
O 	O 	0.60123 0.16789 0.14637 -0.42200
O 	O 	0.53328 0.16748 0.21438 -0.40900
O 	O 	0.53354 0.60181 0.78160 -0.41100
O 	O 	0.53257 0.60045 0.69927 -0.42400
O 	O 	0.10900 0.66078 0.20550 -0.41400
O 	O 	0.10811 0.59332 0.27342 -0.41600
O 	O 	0.11076 0.59211 0.63756 -0.40700
O 	O 	0.02640 0.59299 0.71952 -0.40600
O 	O 	0.08451 0.60123 0.14637 -0.42200
O 	O 	0.08486 0.53328 0.21438 -0.40900
O 	O 	0.08305 0.53354 0.78160 -0.41100
O 	O 	0.16771 0.53257 0.69927 -0.42400
O 	O 	0.02472 0.66078 0.20550 -0.41400
O 	O 	0.02515 0.59332 0.27342 -0.41600
O 	O 	0.65957 0.59211 0.63756 -0.40700
O 	O 	0.66109 0.59299 0.71952 -0.40600
O 	O 	0.16789 0.60123 0.14637 -0.42200
O 	O 	0.16748 0.53328 0.21438 -0.40900
O 	O 	0.60181 0.53354 0.78160 -0.41100
O 	O 	0.60045 0.53257 0.69927 -0.42400
O 	O 	0.66078 0.10900 0.20550 -0.41400
O 	O 	0.59332 0.10811 0.27342 -0.41600
O 	O 	0.59211 0.11076 0.63756 -0.40700
O 	O 	0.59299 0.02640 0.71952 -0.40600
O 	O 	0.60123 0.08451 0.14637 -0.42200
O 	O 	0.53328 0.08486 0.21438 -0.40900
O 	O 	0.53354 0.08305 0.78160 -0.41100
O 	O 	0.53257 0.16771 0.69927 -0.42400
O 	O 	0.10900 0.02472 0.20550 -0.41400
O 	O 	0.10811 0.02515 0.27342 -0.41600
O 	O 	0.11076 0.65957 0.63756 -0.40700
O 	O 	0.02640 0.66109 0.71952 -0.40600
O 	O 	0.08451 0.16789 0.14637 -0.42200
O 	O 	0.08486 0.16748 0.21438 -0.40900
O 	O 	0.08305 0.60181 0.78160 -0.41100
O 	O 	0.16771 0.60045 0.69927 -0.42400
