data_crystal

_cell_length_a 46.58200
_cell_length_b 46.58200
_cell_length_c 21.33200
_cell_angle_alpha 90.00000
_cell_angle_beta  90.00000
_cell_angle_gamma 120.00000

_symmetry_space_group_name_	'P 1'
_symmetry_space_group_name_H-M	'P 1'

loop_
_symmetry_equiv_pos_as_xyz
  x,y,z

loop_
_atom_site_label
_atom_site_type_symbol
_atom_site_fract_x
_atom_site_fract_y
_atom_site_fract_z
_atom_site_charge
Cr	Cr	0.61015 0.40996 0.17957 1.47600
Cr	Cr	0.59004 0.20019 0.17957 1.47600
Cr	Cr	0.79981 0.38985 0.17957 1.47600
Cr	Cr	0.38985 0.59004 0.82043 1.47600
Cr	Cr	0.40996 0.79981 0.82043 1.47600
Cr	Cr	0.20019 0.61015 0.82043 1.47600
Cr	Cr	0.27682 0.74329 0.51290 1.47600
Cr	Cr	0.25671 0.53352 0.51290 1.47600
Cr	Cr	0.46648 0.72318 0.51290 1.47600
Cr	Cr	0.05652 0.92337 0.15376 1.47600
Cr	Cr	0.07663 0.13314 0.15376 1.47600
Cr	Cr	0.86686 0.94348 0.15376 1.47600
Cr	Cr	0.94348 0.07663 0.84624 1.47600
Cr	Cr	0.92337 0.86686 0.84624 1.47600
Cr	Cr	0.13314 0.05652 0.84624 1.47600
Cr	Cr	0.72318 0.25671 0.48710 1.47600
Cr	Cr	0.74329 0.46648 0.48710 1.47600
Cr	Cr	0.53352 0.27682 0.48710 1.47600
Cu	Cu	0.76497 0.73586 0.49598 0.90600
Cu	Cu	0.26414 0.02911 0.49598 0.90600
Cu	Cu	0.97089 0.23503 0.49598 0.90500
Cu	Cu	0.23503 0.26414 0.50402 0.90500
Cu	Cu	0.73586 0.97089 0.50402 0.90500
Cu	Cu	0.02911 0.76497 0.50402 0.90500
Cu	Cu	0.43164 0.06919 0.82931 0.90500
Cu	Cu	0.93081 0.36244 0.82931 0.90500
Cu	Cu	0.63756 0.56836 0.82931 0.90500
Cu	Cu	0.90170 0.59747 0.83735 0.90500
Cu	Cu	0.40253 0.30422 0.83735 0.90500
Cu	Cu	0.69578 0.09830 0.83735 0.90500
Cu	Cu	0.09830 0.40253 0.16265 0.90500
Cu	Cu	0.59747 0.69578 0.16265 0.90500
Cu	Cu	0.30422 0.90170 0.16265 0.90500
Cu	Cu	0.56836 0.93081 0.17069 0.90500
Cu	Cu	0.06919 0.63756 0.17069 0.90500
Cu	Cu	0.36244 0.43164 0.17069 0.90500
Cu	Cu	0.73078 0.76781 0.47030 1.01200
Cu	Cu	0.23219 0.96297 0.47030 1.01200
Cu	Cu	0.03703 0.26922 0.47030 1.01200
Cu	Cu	0.26922 0.23219 0.52970 1.01200
Cu	Cu	0.76781 0.03703 0.52970 1.01200
Cu	Cu	0.96297 0.73078 0.52970 1.01200
Cu	Cu	0.39745 0.10114 0.80363 1.01200
Cu	Cu	0.89886 0.29630 0.80363 1.01200
Cu	Cu	0.70370 0.60255 0.80363 1.01200
Cu	Cu	0.93589 0.56552 0.86303 1.01200
Cu	Cu	0.43448 0.37036 0.86303 1.01200
Cu	Cu	0.62964 0.06411 0.86303 1.01200
Cu	Cu	0.06411 0.43448 0.13697 1.01200
Cu	Cu	0.56552 0.62964 0.13697 1.01200
Cu	Cu	0.37036 0.93589 0.13697 1.01200
Cu	Cu	0.60255 0.89886 0.19637 1.01200
Cu	Cu	0.10114 0.70370 0.19637 1.01200
Cu	Cu	0.29630 0.39745 0.19637 1.01200
Cu	Cu	0.57730 0.44447 0.15459 0.93800
Cu	Cu	0.55553 0.13283 0.15459 0.93800
Cu	Cu	0.86717 0.42270 0.15459 0.93700
Cu	Cu	0.42270 0.55553 0.84541 0.93800
Cu	Cu	0.44447 0.86717 0.84541 0.93800
Cu	Cu	0.13283 0.57730 0.84541 0.93700
Cu	Cu	0.24397 0.77780 0.48792 0.93800
Cu	Cu	0.22220 0.46616 0.48792 0.93800
Cu	Cu	0.53384 0.75603 0.48792 0.93800
Cu	Cu	0.08937 0.88886 0.17874 0.93800
Cu	Cu	0.11114 0.20050 0.17874 0.93700
Cu	Cu	0.79950 0.91063 0.17874 0.93800
Cu	Cu	0.91063 0.11114 0.82126 0.93800
Cu	Cu	0.88886 0.79950 0.82126 0.93700
Cu	Cu	0.20050 0.08937 0.82126 0.93800
Cu	Cu	0.75603 0.22220 0.51208 0.93800
Cu	Cu	0.77780 0.53384 0.51208 0.93800
Cu	Cu	0.46616 0.24397 0.51208 0.93800
C 	C 	0.68252 0.55290 0.32900 0.01500
C 	C 	0.44710 0.12962 0.32900 0.01500
C 	C 	0.87038 0.31748 0.32900 0.01500
C 	C 	0.31748 0.44710 0.67100 0.01500
C 	C 	0.55290 0.87038 0.67100 0.01500
C 	C 	0.12962 0.68252 0.67100 0.01500
C 	C 	0.34919 0.88623 0.66233 0.01500
C 	C 	0.11377 0.46295 0.66233 0.01500
C 	C 	0.53705 0.65081 0.66233 0.01500
C 	C 	0.98415 0.78043 0.00433 0.01500
C 	C 	0.21957 0.20371 0.00433 0.01500
C 	C 	0.79629 0.01585 0.00433 0.01500
C 	C 	0.01585 0.21957 0.99567 0.01500
C 	C 	0.78043 0.79629 0.99567 0.01500
C 	C 	0.20371 0.98415 0.99567 0.01500
C 	C 	0.65081 0.11377 0.33767 0.01500
C 	C 	0.88623 0.53705 0.33767 0.01500
C 	C 	0.46295 0.34919 0.33767 0.01500
C 	C 	0.70288 0.54749 0.36900 -0.03900
C 	C 	0.45251 0.15539 0.36900 -0.04000
C 	C 	0.84461 0.29712 0.36900 -0.03900
C 	C 	0.29712 0.45251 0.63100 -0.03900
C 	C 	0.54749 0.84461 0.63100 -0.04000
C 	C 	0.15539 0.70288 0.63100 -0.03900
C 	C 	0.36955 0.88082 0.70233 -0.03900
C 	C 	0.11918 0.48872 0.70233 -0.04000
C 	C 	0.51128 0.63045 0.70233 -0.03900
C 	C 	0.96379 0.78584 0.96433 -0.03900
C 	C 	0.21416 0.17794 0.96433 -0.04000
C 	C 	0.82206 0.03621 0.96433 -0.03900
C 	C 	0.03621 0.21416 0.03567 -0.03900
C 	C 	0.78584 0.82206 0.03567 -0.04000
C 	C 	0.17794 0.96379 0.03567 -0.03900
C 	C 	0.63045 0.11918 0.29767 -0.03900
C 	C 	0.88082 0.51128 0.29767 -0.04000
C 	C 	0.48872 0.36955 0.29767 -0.03900
C 	C 	0.70090 0.51671 0.37030 -0.01100
C 	C 	0.48329 0.18419 0.37030 -0.01100
C 	C 	0.81581 0.29910 0.37030 -0.01100
C 	C 	0.29910 0.48329 0.62970 -0.01100
C 	C 	0.51671 0.81581 0.62970 -0.01100
C 	C 	0.18419 0.70090 0.62970 -0.01100
C 	C 	0.36757 0.85004 0.70363 -0.01100
C 	C 	0.14996 0.51752 0.70363 -0.01100
C 	C 	0.48248 0.63243 0.70363 -0.01100
C 	C 	0.96577 0.81662 0.96303 -0.01100
C 	C 	0.18338 0.14914 0.96303 -0.01100
C 	C 	0.85086 0.03423 0.96303 -0.01100
C 	C 	0.03423 0.18338 0.03697 -0.01100
C 	C 	0.81662 0.85086 0.03697 -0.01100
C 	C 	0.14914 0.96577 0.03697 -0.01100
C 	C 	0.63243 0.14996 0.29637 -0.01100
C 	C 	0.85004 0.48248 0.29637 -0.01100
C 	C 	0.51752 0.36757 0.29637 -0.01100
C 	C 	0.67850 0.49135 0.33160 -0.01600
C 	C 	0.50865 0.18715 0.33160 -0.01600
C 	C 	0.81285 0.32150 0.33160 -0.01600
C 	C 	0.32150 0.50865 0.66840 -0.01600
C 	C 	0.49135 0.81285 0.66840 -0.01600
C 	C 	0.18715 0.67850 0.66840 -0.01600
C 	C 	0.34517 0.82468 0.66493 -0.01600
C 	C 	0.17532 0.52048 0.66493 -0.01600
C 	C 	0.47952 0.65483 0.66493 -0.01600
C 	C 	0.98817 0.84198 0.00173 -0.01600
C 	C 	0.15802 0.14618 0.00173 -0.01600
C 	C 	0.85382 0.01183 0.00173 -0.01600
C 	C 	0.01183 0.15802 0.99827 -0.01600
C 	C 	0.84198 0.85382 0.99827 -0.01600
C 	C 	0.14618 0.98817 0.99827 -0.01600
C 	C 	0.65483 0.17532 0.33507 -0.01600
C 	C 	0.82468 0.47952 0.33507 -0.01600
C 	C 	0.52048 0.34517 0.33507 -0.01600
C 	C 	0.65818 0.49676 0.29160 -0.06700
C 	C 	0.50324 0.16142 0.29160 -0.06700
C 	C 	0.83858 0.34182 0.29160 -0.06700
C 	C 	0.34182 0.50324 0.70840 -0.06700
C 	C 	0.49676 0.83858 0.70840 -0.06700
C 	C 	0.16142 0.65818 0.70840 -0.06700
C 	C 	0.32485 0.83009 0.62493 -0.06700
C 	C 	0.16991 0.49475 0.62493 -0.06700
C 	C 	0.50525 0.67515 0.62493 -0.06700
C 	C 	0.00849 0.83657 0.04173 -0.06700
C 	C 	0.16343 0.17191 0.04173 -0.06700
C 	C 	0.82809 0.99151 0.04173 -0.06700
C 	C 	0.99151 0.16343 0.95827 -0.06700
C 	C 	0.83657 0.82809 0.95827 -0.06700
C 	C 	0.17191 0.00849 0.95827 -0.06700
C 	C 	0.67515 0.16991 0.37507 -0.06700
C 	C 	0.83009 0.50525 0.37507 -0.06700
C 	C 	0.49475 0.32485 0.37507 -0.06700
C 	C 	0.66016 0.52754 0.29030 -0.01600
C 	C 	0.47246 0.13262 0.29030 -0.01600
C 	C 	0.86738 0.33984 0.29030 -0.01600
C 	C 	0.33984 0.47246 0.70970 -0.01600
C 	C 	0.52754 0.86738 0.70970 -0.01600
C 	C 	0.13262 0.66016 0.70970 -0.01600
C 	C 	0.32683 0.86087 0.62363 -0.01600
C 	C 	0.13913 0.46595 0.62363 -0.01600
C 	C 	0.53405 0.67317 0.62363 -0.01600
C 	C 	0.00651 0.80579 0.04303 -0.01600
C 	C 	0.19421 0.20071 0.04303 -0.01600
C 	C 	0.79929 0.99349 0.04303 -0.01600
C 	C 	0.99349 0.19421 0.95697 -0.01600
C 	C 	0.80579 0.79929 0.95697 -0.01600
C 	C 	0.20071 0.00651 0.95697 -0.01600
C 	C 	0.67317 0.13913 0.37637 -0.01600
C 	C 	0.86087 0.53405 0.37637 -0.01600
C 	C 	0.46595 0.32683 0.37637 -0.01600
C 	C 	0.66721 0.68182 0.30780 0.02900
C 	C 	0.31818 0.98539 0.30780 0.02900
C 	C 	0.01461 0.33279 0.30780 0.02900
C 	C 	0.33279 0.31818 0.69220 0.02900
C 	C 	0.68182 0.01461 0.69220 0.02900
C 	C 	0.98539 0.66721 0.69220 0.02900
C 	C 	0.33388 0.01515 0.64113 0.02900
C 	C 	0.98485 0.31872 0.64113 0.02900
C 	C 	0.68128 0.66612 0.64113 0.02900
C 	C 	0.99946 0.65151 0.02553 0.02900
C 	C 	0.34849 0.34794 0.02553 0.02900
C 	C 	0.65206 0.00054 0.02553 0.02900
C 	C 	0.00054 0.34849 0.97447 0.02900
C 	C 	0.65151 0.65206 0.97447 0.02900
C 	C 	0.34794 0.99946 0.97447 0.02900
C 	C 	0.66612 0.98485 0.35887 0.02900
C 	C 	0.01515 0.68128 0.35887 0.02900
C 	C 	0.31872 0.33388 0.35887 0.02900
C 	C 	0.64215 0.65376 0.26940 -0.07400
C 	C 	0.34624 0.98839 0.26940 -0.07400
C 	C 	0.01161 0.35785 0.26940 -0.07400
C 	C 	0.35785 0.34624 0.73060 -0.07400
C 	C 	0.65376 0.01161 0.73060 -0.07400
C 	C 	0.98839 0.64215 0.73060 -0.07400
C 	C 	0.30882 0.98709 0.60273 -0.07400
C 	C 	0.01291 0.32172 0.60273 -0.07400
C 	C 	0.67828 0.69118 0.60273 -0.07400
C 	C 	0.02452 0.67957 0.06393 -0.07400
C 	C 	0.32043 0.34494 0.06393 -0.07400
C 	C 	0.65506 0.97548 0.06393 -0.07400
C 	C 	0.97548 0.32043 0.93607 -0.07400
C 	C 	0.67957 0.65506 0.93607 -0.07400
C 	C 	0.34494 0.02452 0.93607 -0.07400
C 	C 	0.69118 0.01291 0.39727 -0.07400
C 	C 	0.98709 0.67828 0.39727 -0.07400
C 	C 	0.32172 0.30882 0.39727 -0.07400
C 	C 	0.64524 0.62673 0.27350 -0.00800
C 	C 	0.37327 0.01851 0.27350 -0.00800
C 	C 	0.98149 0.35476 0.27350 -0.00800
C 	C 	0.35476 0.37327 0.72650 -0.00800
C 	C 	0.62673 0.98149 0.72650 -0.00800
C 	C 	0.01851 0.64524 0.72650 -0.00800
C 	C 	0.31191 0.96006 0.60683 -0.00800
C 	C 	0.03994 0.35184 0.60683 -0.00800
C 	C 	0.64816 0.68809 0.60683 -0.00800
C 	C 	0.02143 0.70660 0.05983 -0.00800
C 	C 	0.29340 0.31482 0.05983 -0.00800
C 	C 	0.68518 0.97857 0.05983 -0.00800
C 	C 	0.97857 0.29340 0.94017 -0.00800
C 	C 	0.70660 0.68518 0.94017 -0.00800
C 	C 	0.31482 0.02143 0.94017 -0.00800
C 	C 	0.68809 0.03994 0.39317 -0.00800
C 	C 	0.96006 0.64816 0.39317 -0.00800
C 	C 	0.35184 0.31191 0.39317 -0.00800
C 	C 	0.66239 0.62037 0.31510 0.00600
C 	C 	0.37963 0.04202 0.31510 0.00600
C 	C 	0.95798 0.33761 0.31510 0.00600
C 	C 	0.33761 0.37963 0.68490 0.00600
C 	C 	0.62037 0.95798 0.68490 0.00600
C 	C 	0.04202 0.66239 0.68490 0.00600
C 	C 	0.32906 0.95370 0.64843 0.00600
C 	C 	0.04630 0.37535 0.64843 0.00600
C 	C 	0.62465 0.67094 0.64843 0.00600
C 	C 	0.00428 0.71296 0.01823 0.00600
C 	C 	0.28704 0.29131 0.01823 0.00600
C 	C 	0.70869 0.99572 0.01823 0.00600
C 	C 	0.99572 0.28704 0.98177 0.00600
C 	C 	0.71296 0.70869 0.98177 0.00600
C 	C 	0.29131 0.00428 0.98177 0.00600
C 	C 	0.67094 0.04630 0.35157 0.00600
C 	C 	0.95370 0.62465 0.35157 0.00600
C 	C 	0.37535 0.32906 0.35157 0.00600
C 	C 	0.69444 0.64830 0.34640 -0.01100
C 	C 	0.35170 0.04614 0.34640 -0.01100
C 	C 	0.95386 0.30556 0.34640 -0.01100
C 	C 	0.30556 0.35170 0.65360 -0.01100
C 	C 	0.64830 0.95386 0.65360 -0.01100
C 	C 	0.04614 0.69444 0.65360 -0.01100
C 	C 	0.36111 0.98163 0.67973 -0.01100
C 	C 	0.01837 0.37947 0.67973 -0.01100
C 	C 	0.62053 0.63889 0.67973 -0.01100
C 	C 	0.97223 0.68503 0.98693 -0.01100
C 	C 	0.31497 0.28719 0.98693 -0.01100
C 	C 	0.71281 0.02777 0.98693 -0.01100
C 	C 	0.02777 0.31497 0.01307 -0.01100
C 	C 	0.68503 0.71281 0.01307 -0.01100
C 	C 	0.28719 0.97223 0.01307 -0.01100
C 	C 	0.63889 0.01837 0.32027 -0.01100
C 	C 	0.98163 0.62053 0.32027 -0.01100
C 	C 	0.37947 0.36111 0.32027 -0.01100
C 	C 	0.68934 0.67664 0.34650 -0.07800
C 	C 	0.32336 0.01270 0.34650 -0.07800
C 	C 	0.98730 0.31066 0.34650 -0.07800
C 	C 	0.31066 0.32336 0.65350 -0.07800
C 	C 	0.67664 0.98730 0.65350 -0.07800
C 	C 	0.01270 0.68934 0.65350 -0.07800
C 	C 	0.35601 0.00997 0.67983 -0.07800
C 	C 	0.99003 0.34603 0.67983 -0.07800
C 	C 	0.65397 0.64399 0.67983 -0.07800
C 	C 	0.97733 0.65669 0.98683 -0.07800
C 	C 	0.34331 0.32063 0.98683 -0.07900
C 	C 	0.67937 0.02267 0.98683 -0.07800
C 	C 	0.02267 0.34331 0.01317 -0.07800
C 	C 	0.65669 0.67937 0.01317 -0.07900
C 	C 	0.32063 0.97733 0.01317 -0.07800
C 	C 	0.64399 0.99003 0.32017 -0.07800
C 	C 	0.00997 0.65397 0.32017 -0.07800
C 	C 	0.34603 0.35601 0.32017 -0.07800
C 	C 	0.85035 0.87726 0.69260 -0.01200
C 	C 	0.12274 0.97309 0.69260 -0.01200
C 	C 	0.02691 0.14965 0.69260 -0.01200
C 	C 	0.14965 0.12274 0.30740 -0.01200
C 	C 	0.87726 0.02691 0.30740 -0.01200
C 	C 	0.97309 0.85035 0.30740 -0.01200
C 	C 	0.51702 0.21059 0.02593 -0.01200
C 	C 	0.78941 0.30642 0.02593 -0.01200
C 	C 	0.69358 0.48298 0.02593 -0.01200
C 	C 	0.81632 0.45607 0.64073 -0.01200
C 	C 	0.54393 0.36024 0.64073 -0.01200
C 	C 	0.63976 0.18368 0.64073 -0.01200
C 	C 	0.18368 0.54393 0.35927 -0.01200
C 	C 	0.45607 0.63976 0.35927 -0.01200
C 	C 	0.36024 0.81632 0.35927 -0.01200
C 	C 	0.48298 0.78941 0.97407 -0.01200
C 	C 	0.21059 0.69358 0.97407 -0.01200
C 	C 	0.30642 0.51702 0.97407 -0.01200
C 	C 	0.82377 0.87979 0.66200 0.00300
C 	C 	0.12021 0.94398 0.66200 0.00300
C 	C 	0.05602 0.17623 0.66200 0.00300
C 	C 	0.17623 0.12021 0.33800 0.00300
C 	C 	0.87979 0.05602 0.33800 0.00300
C 	C 	0.94398 0.82377 0.33800 0.00300
C 	C 	0.49044 0.21312 0.99533 0.00300
C 	C 	0.78688 0.27731 0.99533 0.00300
C 	C 	0.72269 0.50956 0.99533 0.00300
C 	C 	0.84290 0.45354 0.67133 0.00300
C 	C 	0.54646 0.38935 0.67133 0.00300
C 	C 	0.61065 0.15710 0.67133 0.00300
C 	C 	0.15710 0.54646 0.32867 0.00300
C 	C 	0.45354 0.61065 0.32867 0.00300
C 	C 	0.38935 0.84290 0.32867 0.00300
C 	C 	0.50956 0.78688 0.00467 0.00300
C 	C 	0.21312 0.72269 0.00467 0.00300
C 	C 	0.27731 0.49044 0.00467 0.00300
C 	C 	0.80165 0.84853 0.62640 -0.01600
C 	C 	0.15147 0.95312 0.62640 -0.01600
C 	C 	0.04688 0.19835 0.62640 -0.01600
C 	C 	0.19835 0.15147 0.37360 -0.01600
C 	C 	0.84853 0.04688 0.37360 -0.01600
C 	C 	0.95312 0.80165 0.37360 -0.01600
C 	C 	0.46832 0.18186 0.95973 -0.01600
C 	C 	0.81814 0.28645 0.95973 -0.01600
C 	C 	0.71355 0.53168 0.95973 -0.01600
C 	C 	0.86502 0.48480 0.70693 -0.01600
C 	C 	0.51520 0.38021 0.70693 -0.01600
C 	C 	0.61979 0.13498 0.70693 -0.01600
C 	C 	0.13498 0.51520 0.29307 -0.01600
C 	C 	0.48480 0.61979 0.29307 -0.01600
C 	C 	0.38021 0.86502 0.29307 -0.01600
C 	C 	0.53168 0.81814 0.04027 -0.01600
C 	C 	0.18186 0.71355 0.04027 -0.01600
C 	C 	0.28645 0.46832 0.04027 -0.01600
C 	C 	0.80597 0.82470 0.61030 -0.05600
C 	C 	0.17530 0.98127 0.61030 -0.05600
C 	C 	0.01873 0.19403 0.61030 -0.05600
C 	C 	0.19403 0.17530 0.38970 -0.05600
C 	C 	0.82470 0.01873 0.38970 -0.05600
C 	C 	0.98127 0.80597 0.38970 -0.05600
C 	C 	0.47264 0.15803 0.94363 -0.05600
C 	C 	0.84197 0.31460 0.94363 -0.05600
C 	C 	0.68540 0.52736 0.94363 -0.05600
C 	C 	0.86070 0.50863 0.72303 -0.05600
C 	C 	0.49137 0.35206 0.72303 -0.05600
C 	C 	0.64794 0.13930 0.72303 -0.05600
C 	C 	0.13930 0.49137 0.27697 -0.05600
C 	C 	0.50863 0.64794 0.27697 -0.05600
C 	C 	0.35206 0.86070 0.27697 -0.05600
C 	C 	0.52736 0.84197 0.05637 -0.05600
C 	C 	0.15803 0.68540 0.05637 -0.05600
C 	C 	0.31460 0.47264 0.05637 -0.05600
C 	C 	0.82310 0.81480 0.65850 0.01400
C 	C 	0.18520 0.00830 0.65850 0.01400
C 	C 	0.99170 0.17690 0.65850 0.01400
C 	C 	0.17690 0.18520 0.34150 0.01400
C 	C 	0.81480 0.99170 0.34150 0.01400
C 	C 	0.00830 0.82310 0.34150 0.01400
C 	C 	0.48977 0.14813 0.99183 0.01400
C 	C 	0.85187 0.34163 0.99183 0.01400
C 	C 	0.65837 0.51023 0.99183 0.01400
C 	C 	0.84357 0.51853 0.67483 0.01400
C 	C 	0.48147 0.32503 0.67483 0.01400
C 	C 	0.67497 0.15643 0.67483 0.01400
C 	C 	0.15643 0.48147 0.32517 0.01400
C 	C 	0.51853 0.67497 0.32517 0.01400
C 	C 	0.32503 0.84357 0.32517 0.01400
C 	C 	0.51023 0.85187 0.00817 0.01400
C 	C 	0.14813 0.65837 0.00817 0.01400
C 	C 	0.34163 0.48977 0.00817 0.01400
C 	C 	0.84874 0.84363 0.69890 -0.07200
C 	C 	0.15637 0.00511 0.69890 -0.07200
C 	C 	0.99489 0.15126 0.69890 -0.07200
C 	C 	0.15126 0.15637 0.30110 -0.07200
C 	C 	0.84363 0.99489 0.30110 -0.07200
C 	C 	0.00511 0.84874 0.30110 -0.07200
C 	C 	0.51541 0.17696 0.03223 -0.07200
C 	C 	0.82304 0.33844 0.03223 -0.07200
C 	C 	0.66156 0.48459 0.03223 -0.07200
C 	C 	0.81793 0.48970 0.63443 -0.07200
C 	C 	0.51030 0.32822 0.63443 -0.07200
C 	C 	0.67178 0.18207 0.63443 -0.07200
C 	C 	0.18207 0.51030 0.36557 -0.07200
C 	C 	0.48970 0.67178 0.36557 -0.07200
C 	C 	0.32822 0.81793 0.36557 -0.07200
C 	C 	0.48459 0.82304 0.96777 -0.07200
C 	C 	0.17696 0.66156 0.96777 -0.07200
C 	C 	0.33844 0.51541 0.96777 -0.07200
C 	C 	0.53072 0.32280 0.05303 -0.00900
C 	C 	0.67720 0.20792 0.05303 -0.00900
C 	C 	0.79208 0.46928 0.05303 -0.00900
C 	C 	0.46928 0.67720 0.94697 -0.00900
C 	C 	0.32280 0.79208 0.94697 -0.00900
C 	C 	0.20792 0.53072 0.94697 -0.00900
C 	C 	0.19739 0.65613 0.38636 -0.00900
C 	C 	0.34387 0.54125 0.38636 -0.00900
C 	C 	0.45875 0.80261 0.38636 -0.00900
C 	C 	0.13595 0.01053 0.28030 -0.00900
C 	C 	0.98947 0.12541 0.28030 -0.00900
C 	C 	0.87459 0.86405 0.28030 -0.00900
C 	C 	0.86405 0.98947 0.71970 -0.00900
C 	C 	0.01053 0.87459 0.71970 -0.00900
C 	C 	0.12541 0.13595 0.71970 -0.00900
C 	C 	0.80261 0.34387 0.61364 -0.00900
C 	C 	0.65613 0.45875 0.61364 -0.00900
C 	C 	0.54125 0.19739 0.61364 -0.00900
C 	C 	0.52939 0.35122 0.05043 -0.08500
C 	C 	0.64878 0.17817 0.05043 -0.08500
C 	C 	0.82183 0.47061 0.05043 -0.08500
C 	C 	0.47061 0.64878 0.94957 -0.08500
C 	C 	0.35122 0.82183 0.94957 -0.08500
C 	C 	0.17817 0.52939 0.94957 -0.08500
C 	C 	0.19606 0.68455 0.38376 -0.08500
C 	C 	0.31545 0.51150 0.38376 -0.08500
C 	C 	0.48850 0.80394 0.38376 -0.08500
C 	C 	0.13728 0.98211 0.28290 -0.08500
C 	C 	0.01789 0.15516 0.28290 -0.08500
C 	C 	0.84484 0.86272 0.28290 -0.08500
C 	C 	0.86272 0.01789 0.71710 -0.08500
C 	C 	0.98211 0.84484 0.71710 -0.08500
C 	C 	0.15516 0.13728 0.71710 -0.08500
C 	C 	0.80394 0.31545 0.61624 -0.08500
C 	C 	0.68455 0.48850 0.61624 -0.08500
C 	C 	0.51150 0.19606 0.61624 -0.08500
C 	C 	0.50580 0.35476 0.01213 0.02400
C 	C 	0.64524 0.15104 0.01213 0.02400
C 	C 	0.84896 0.49420 0.01213 0.02400
C 	C 	0.49420 0.64524 0.98787 0.02400
C 	C 	0.35476 0.84896 0.98787 0.02400
C 	C 	0.15104 0.50580 0.98787 0.02400
C 	C 	0.17247 0.68809 0.34546 0.02400
C 	C 	0.31191 0.48437 0.34546 0.02400
C 	C 	0.51563 0.82753 0.34546 0.02400
C 	C 	0.16087 0.97857 0.32120 0.02400
C 	C 	0.02143 0.18229 0.32120 0.02400
C 	C 	0.81771 0.83913 0.32120 0.02400
C 	C 	0.83913 0.02143 0.67880 0.02400
C 	C 	0.97857 0.81771 0.67880 0.02400
C 	C 	0.18229 0.16087 0.67880 0.02400
C 	C 	0.82753 0.31191 0.65454 0.02400
C 	C 	0.68809 0.51563 0.65454 0.02400
C 	C 	0.48437 0.17247 0.65454 0.02400
C 	C 	0.48145 0.32779 0.97313 -0.06700
C 	C 	0.67221 0.15366 0.97313 -0.06700
C 	C 	0.84634 0.51855 0.97313 -0.06700
C 	C 	0.51855 0.67221 0.02687 -0.06700
C 	C 	0.32779 0.84634 0.02687 -0.06700
C 	C 	0.15366 0.48145 0.02687 -0.06700
C 	C 	0.14812 0.66112 0.30646 -0.06700
C 	C 	0.33888 0.48699 0.30646 -0.06700
C 	C 	0.51301 0.85188 0.30646 -0.06700
C 	C 	0.18522 0.00554 0.36020 -0.06700
C 	C 	0.99446 0.17967 0.36020 -0.06700
C 	C 	0.82033 0.81478 0.36020 -0.06700
C 	C 	0.81478 0.99446 0.63980 -0.06700
C 	C 	0.00554 0.82033 0.63980 -0.06700
C 	C 	0.17967 0.18522 0.63980 -0.06700
C 	C 	0.85188 0.33888 0.69354 -0.06700
C 	C 	0.66112 0.51301 0.69354 -0.06700
C 	C 	0.48699 0.14812 0.69354 -0.06700
C 	C 	0.48848 0.29913 0.95953 -0.01400
C 	C 	0.70087 0.18935 0.95953 -0.01400
C 	C 	0.81065 0.51152 0.95953 -0.01400
C 	C 	0.51152 0.70087 0.04047 -0.01400
C 	C 	0.29913 0.81065 0.04047 -0.01400
C 	C 	0.18935 0.48848 0.04047 -0.01400
C 	C 	0.15515 0.63246 0.29286 -0.01400
C 	C 	0.36754 0.52268 0.29286 -0.01400
C 	C 	0.47732 0.84485 0.29286 -0.01400
C 	C 	0.17819 0.03420 0.37380 -0.01400
C 	C 	0.96580 0.14398 0.37380 -0.01400
C 	C 	0.85602 0.82181 0.37380 -0.01400
C 	C 	0.82181 0.96580 0.62620 -0.01400
C 	C 	0.03420 0.85602 0.62620 -0.01400
C 	C 	0.14398 0.17819 0.62620 -0.01400
C 	C 	0.84485 0.36754 0.70714 -0.01400
C 	C 	0.63246 0.47732 0.70714 -0.01400
C 	C 	0.52268 0.15515 0.70714 -0.01400
C 	C 	0.50720 0.29397 0.00463 0.00200
C 	C 	0.70603 0.21323 0.00463 0.00200
C 	C 	0.78677 0.49280 0.00463 0.00200
C 	C 	0.49280 0.70603 0.99537 0.00200
C 	C 	0.29397 0.78677 0.99537 0.00200
C 	C 	0.21323 0.50720 0.99537 0.00200
C 	C 	0.17387 0.62730 0.33796 0.00200
C 	C 	0.37270 0.54656 0.33796 0.00200
C 	C 	0.45344 0.82613 0.33796 0.00200
C 	C 	0.15947 0.03936 0.32870 0.00200
C 	C 	0.96064 0.12010 0.32870 0.00200
C 	C 	0.87990 0.84053 0.32870 0.00200
C 	C 	0.84053 0.96064 0.67130 0.00200
C 	C 	0.03936 0.87990 0.67130 0.00200
C 	C 	0.12010 0.15947 0.67130 0.00200
C 	C 	0.82613 0.37270 0.66204 0.00200
C 	C 	0.62730 0.45344 0.66204 0.00200
C 	C 	0.54656 0.17387 0.66204 0.00200
C 	C 	0.71370 0.70060 0.38640 0.24900
C 	C 	0.29940 0.01310 0.38640 0.24900
C 	C 	0.98690 0.28630 0.38640 0.24900
C 	C 	0.28630 0.29940 0.61360 0.24900
C 	C 	0.70060 0.98690 0.61360 0.24900
C 	C 	0.01310 0.71370 0.61360 0.24900
C 	C 	0.38037 0.03393 0.71973 0.24900
C 	C 	0.96607 0.34643 0.71973 0.24900
C 	C 	0.65357 0.61963 0.71973 0.24900
C 	C 	0.95297 0.63273 0.94693 0.24900
C 	C 	0.36727 0.32023 0.94693 0.24900
C 	C 	0.67977 0.04703 0.94693 0.24900
C 	C 	0.04703 0.36727 0.05307 0.24900
C 	C 	0.63273 0.67977 0.05307 0.24900
C 	C 	0.32023 0.95297 0.05307 0.24900
C 	C 	0.61963 0.96607 0.28027 0.24900
C 	C 	0.03393 0.65357 0.28027 0.24900
C 	C 	0.34643 0.38037 0.28027 0.24900
C 	C 	0.51147 0.26383 0.02133 -0.03400
C 	C 	0.73617 0.24764 0.02133 -0.03400
C 	C 	0.75236 0.48853 0.02133 -0.03400
C 	C 	0.48853 0.73617 0.97867 -0.03400
C 	C 	0.26383 0.75236 0.97867 -0.03400
C 	C 	0.24764 0.51147 0.97867 -0.03400
C 	C 	0.17814 0.59716 0.35466 -0.03400
C 	C 	0.40284 0.58097 0.35466 -0.03400
C 	C 	0.41903 0.82186 0.35466 -0.03400
C 	C 	0.15520 0.06950 0.31200 -0.03400
C 	C 	0.93050 0.08569 0.31200 -0.03400
C 	C 	0.91431 0.84480 0.31200 -0.03400
C 	C 	0.84480 0.93050 0.68800 -0.03400
C 	C 	0.06950 0.91431 0.68800 -0.03400
C 	C 	0.08569 0.15520 0.68800 -0.03400
C 	C 	0.82186 0.40284 0.64534 -0.03400
C 	C 	0.59716 0.41903 0.64534 -0.03400
C 	C 	0.58097 0.17814 0.64534 -0.03400
C 	C 	0.68940 0.58880 0.33800 -0.03800
C 	C 	0.41120 0.10060 0.33800 -0.03800
C 	C 	0.89940 0.31060 0.33800 -0.03800
C 	C 	0.31060 0.41120 0.66200 -0.03800
C 	C 	0.58880 0.89940 0.66200 -0.03800
C 	C 	0.10060 0.68940 0.66200 -0.03800
C 	C 	0.35607 0.92213 0.67133 -0.03800
C 	C 	0.07787 0.43393 0.67133 -0.03800
C 	C 	0.56607 0.64393 0.67133 -0.03800
C 	C 	0.97727 0.74453 0.99533 -0.03800
C 	C 	0.25547 0.23273 0.99533 -0.03800
C 	C 	0.76727 0.02273 0.99533 -0.03800
C 	C 	0.02273 0.25547 0.00467 -0.03800
C 	C 	0.74453 0.76727 0.00467 -0.03800
C 	C 	0.23273 0.97727 0.00467 -0.03800
C 	C 	0.64393 0.07787 0.32867 -0.03800
C 	C 	0.92213 0.56607 0.32867 -0.03800
C 	C 	0.43393 0.35607 0.32867 -0.03800
C 	C 	0.45637 0.33173 0.93523 0.30300
C 	C 	0.66827 0.12464 0.93523 0.30200
C 	C 	0.87536 0.54363 0.93523 0.30200
C 	C 	0.54363 0.66827 0.06477 0.30300
C 	C 	0.33173 0.87536 0.06477 0.30200
C 	C 	0.12464 0.45637 0.06477 0.30200
C 	C 	0.12304 0.66506 0.26856 0.30200
C 	C 	0.33494 0.45797 0.26856 0.30300
C 	C 	0.54203 0.87696 0.26856 0.30300
C 	C 	0.21030 0.00160 0.39810 0.30300
C 	C 	0.99840 0.20869 0.39810 0.30200
C 	C 	0.79131 0.78970 0.39810 0.30200
C 	C 	0.78970 0.99840 0.60190 0.30300
C 	C 	0.00160 0.79131 0.60190 0.30200
C 	C 	0.20869 0.21030 0.60190 0.30200
C 	C 	0.87696 0.33494 0.73144 0.30200
C 	C 	0.66506 0.54203 0.73144 0.30300
C 	C 	0.45797 0.12304 0.73144 0.30300
C 	C 	0.66860 0.59160 0.30100 -0.03300
C 	C 	0.40840 0.07700 0.30100 -0.03300
C 	C 	0.92300 0.33140 0.30100 -0.03300
C 	C 	0.33140 0.40840 0.69900 -0.03300
C 	C 	0.59160 0.92300 0.69900 -0.03300
C 	C 	0.07700 0.66860 0.69900 -0.03300
C 	C 	0.33527 0.92493 0.63433 -0.03300
C 	C 	0.07507 0.41033 0.63433 -0.03300
C 	C 	0.58967 0.66473 0.63433 -0.03300
C 	C 	0.99807 0.74173 0.03233 -0.03300
C 	C 	0.25827 0.25633 0.03233 -0.03300
C 	C 	0.74367 0.00193 0.03233 -0.03300
C 	C 	0.00193 0.25827 0.96767 -0.03300
C 	C 	0.74173 0.74367 0.96767 -0.03300
C 	C 	0.25633 0.99807 0.96767 -0.03300
C 	C 	0.66473 0.07507 0.36567 -0.03300
C 	C 	0.92493 0.58967 0.36567 -0.03300
C 	C 	0.41033 0.33527 0.36567 -0.03300
C 	C 	0.82380 0.91190 0.65010 -0.03300
C 	C 	0.08810 0.91190 0.65010 -0.03300
C 	C 	0.08810 0.17620 0.65010 -0.03300
C 	C 	0.17620 0.08810 0.34990 -0.03300
C 	C 	0.91190 0.08810 0.34990 -0.03300
C 	C 	0.91190 0.82380 0.34990 -0.03300
C 	C 	0.49047 0.24523 0.98343 -0.03300
C 	C 	0.75477 0.24523 0.98343 -0.03300
C 	C 	0.75477 0.50953 0.98343 -0.03300
C 	C 	0.84287 0.42143 0.68323 -0.03300
C 	C 	0.57857 0.42143 0.68323 -0.03300
C 	C 	0.57857 0.15713 0.68323 -0.03300
C 	C 	0.15713 0.57857 0.31677 -0.03300
C 	C 	0.42143 0.57857 0.31677 -0.03300
C 	C 	0.42143 0.84287 0.31677 -0.03300
C 	C 	0.50953 0.75477 0.01657 -0.03300
C 	C 	0.24523 0.75477 0.01657 -0.03300
C 	C 	0.24523 0.49047 0.01657 -0.03300
C 	C 	0.63340 0.46900 0.25130 0.29200
C 	C 	0.53100 0.16440 0.25130 0.29200
C 	C 	0.83560 0.36660 0.25130 0.29200
C 	C 	0.36660 0.53100 0.74870 0.29200
C 	C 	0.46900 0.83560 0.74870 0.29200
C 	C 	0.16440 0.63340 0.74870 0.29200
C 	C 	0.30007 0.80233 0.58463 0.29200
C 	C 	0.19767 0.49773 0.58463 0.29200
C 	C 	0.50227 0.69993 0.58463 0.29200
C 	C 	0.03327 0.86433 0.08203 0.29200
C 	C 	0.13567 0.16893 0.08203 0.29200
C 	C 	0.83107 0.96673 0.08203 0.29200
C 	C 	0.96673 0.13567 0.91797 0.29200
C 	C 	0.86433 0.83107 0.91797 0.29200
C 	C 	0.16893 0.03327 0.91797 0.29200
C 	C 	0.69993 0.19767 0.41537 0.29200
C 	C 	0.80233 0.50227 0.41537 0.29200
C 	C 	0.49773 0.30007 0.41537 0.29200
C 	C 	0.55707 0.38013 0.08213 0.27600
C 	C 	0.61987 0.17694 0.08213 0.27600
C 	C 	0.82306 0.44293 0.08213 0.27600
C 	C 	0.44293 0.61987 0.91787 0.27600
C 	C 	0.38013 0.82306 0.91787 0.27600
C 	C 	0.17694 0.55707 0.91787 0.27600
C 	C 	0.22374 0.71346 0.41546 0.27600
C 	C 	0.28654 0.51027 0.41546 0.27600
C 	C 	0.48973 0.77626 0.41546 0.27600
C 	C 	0.10960 0.95320 0.25120 0.27600
C 	C 	0.04680 0.15639 0.25120 0.27600
C 	C 	0.84361 0.89040 0.25120 0.27600
C 	C 	0.89040 0.04680 0.74880 0.27600
C 	C 	0.95320 0.84361 0.74880 0.27600
C 	C 	0.15639 0.10960 0.74880 0.27600
C 	C 	0.77626 0.28654 0.58454 0.27600
C 	C 	0.71346 0.48973 0.58454 0.27600
C 	C 	0.51027 0.22374 0.58454 0.27600
C 	C 	0.78110 0.80010 0.56010 0.26700
C 	C 	0.19990 0.98100 0.56010 0.26700
C 	C 	0.01900 0.21890 0.56010 0.26700
C 	C 	0.21890 0.19990 0.43990 0.26700
C 	C 	0.80010 0.01900 0.43990 0.26700
C 	C 	0.98100 0.78110 0.43990 0.26700
C 	C 	0.44777 0.13343 0.89343 0.26700
C 	C 	0.86657 0.31433 0.89343 0.26700
C 	C 	0.68567 0.55223 0.89343 0.26700
C 	C 	0.88557 0.53323 0.77323 0.26700
C 	C 	0.46677 0.35233 0.77323 0.26700
C 	C 	0.64767 0.11443 0.77323 0.26700
C 	C 	0.11443 0.46677 0.22677 0.26700
C 	C 	0.53323 0.64767 0.22677 0.26700
C 	C 	0.35233 0.88557 0.22677 0.26700
C 	C 	0.55223 0.86657 0.10657 0.26700
C 	C 	0.13343 0.68567 0.10657 0.26700
C 	C 	0.31433 0.44777 0.10657 0.26700
C 	C 	0.61780 0.65370 0.22270 0.29200
C 	C 	0.34630 0.96410 0.22270 0.29200
C 	C 	0.03590 0.38220 0.22270 0.29200
C 	C 	0.38220 0.34630 0.77730 0.29200
C 	C 	0.65370 0.03590 0.77730 0.29200
C 	C 	0.96410 0.61780 0.77730 0.29200
C 	C 	0.28447 0.98703 0.55603 0.29200
C 	C 	0.01297 0.29743 0.55603 0.29200
C 	C 	0.70257 0.71553 0.55603 0.29200
C 	C 	0.04887 0.67963 0.11063 0.29200
C 	C 	0.32037 0.36923 0.11063 0.29100
C 	C 	0.63077 0.95113 0.11063 0.29200
C 	C 	0.95113 0.32037 0.88937 0.29200
C 	C 	0.67963 0.63077 0.88937 0.29100
C 	C 	0.36923 0.04887 0.88937 0.29200
C 	C 	0.71553 0.01297 0.44397 0.29200
C 	C 	0.98703 0.70257 0.44397 0.29200
C 	C 	0.29743 0.28447 0.44397 0.29200
C 	C 	0.86890 0.83800 0.74420 0.28500
C 	C 	0.16200 0.03090 0.74420 0.28500
C 	C 	0.96910 0.13110 0.74420 0.28500
C 	C 	0.13110 0.16200 0.25580 0.28500
C 	C 	0.83800 0.96910 0.25580 0.28500
C 	C 	0.03090 0.86890 0.25580 0.28500
C 	C 	0.53557 0.17133 0.07753 0.28500
C 	C 	0.82867 0.36423 0.07753 0.28500
C 	C 	0.63577 0.46443 0.07753 0.28500
C 	C 	0.79777 0.49533 0.58913 0.28500
C 	C 	0.50467 0.30243 0.58913 0.28500
C 	C 	0.69757 0.20223 0.58913 0.28500
C 	C 	0.20223 0.50467 0.41087 0.28500
C 	C 	0.49533 0.69757 0.41087 0.28500
C 	C 	0.30243 0.79777 0.41087 0.28500
C 	C 	0.46443 0.82867 0.92247 0.28500
C 	C 	0.17133 0.63577 0.92247 0.28500
C 	C 	0.36423 0.53557 0.92247 0.28500
C 	C 	0.72710 0.51490 0.41070 0.02300
C 	C 	0.48510 0.21220 0.41070 0.02300
C 	C 	0.78780 0.27290 0.41070 0.02300
C 	C 	0.27290 0.48510 0.58930 0.02300
C 	C 	0.51490 0.78780 0.58930 0.02300
C 	C 	0.21220 0.72710 0.58930 0.02300
C 	C 	0.39377 0.84823 0.74403 0.02300
C 	C 	0.15177 0.54553 0.74403 0.02300
C 	C 	0.45447 0.60623 0.74403 0.02300
C 	C 	0.93957 0.81843 0.92263 0.02300
C 	C 	0.18157 0.12113 0.92263 0.02300
C 	C 	0.87887 0.06043 0.92263 0.02300
C 	C 	0.06043 0.18157 0.07737 0.02300
C 	C 	0.81843 0.87887 0.07737 0.02300
C 	C 	0.12113 0.93957 0.07737 0.02300
C 	C 	0.60623 0.15177 0.25597 0.02300
C 	C 	0.84823 0.45447 0.25597 0.02300
C 	C 	0.54553 0.39377 0.25597 0.02300
O 	O 	0.73520 0.70450 0.42480 -0.35400
O 	O 	0.29550 0.03070 0.42480 -0.35400
O 	O 	0.96930 0.26480 0.42480 -0.35400
O 	O 	0.26480 0.29550 0.57520 -0.35400
O 	O 	0.70450 0.96930 0.57520 -0.35400
O 	O 	0.03070 0.73520 0.57520 -0.35400
O 	O 	0.40187 0.03783 0.75813 -0.35400
O 	O 	0.96217 0.36403 0.75813 -0.35400
O 	O 	0.63597 0.59813 0.75813 -0.35400
O 	O 	0.93147 0.62883 0.90853 -0.35400
O 	O 	0.37117 0.30263 0.90853 -0.35400
O 	O 	0.69737 0.06853 0.90853 -0.35400
O 	O 	0.06853 0.37117 0.09147 -0.35400
O 	O 	0.62883 0.69737 0.09147 -0.35400
O 	O 	0.30263 0.93147 0.09147 -0.35400
O 	O 	0.59813 0.96217 0.24187 -0.35400
O 	O 	0.03783 0.63597 0.24187 -0.35400
O 	O 	0.36403 0.40187 0.24187 -0.35400
O 	O 	0.43487 0.30463 0.90373 -0.35600
O 	O 	0.69537 0.13024 0.90373 -0.35600
O 	O 	0.86976 0.56513 0.90373 -0.35600
O 	O 	0.56513 0.69537 0.09627 -0.35600
O 	O 	0.30463 0.86976 0.09627 -0.35600
O 	O 	0.13024 0.43487 0.09627 -0.35600
O 	O 	0.10154 0.63796 0.23706 -0.35600
O 	O 	0.36204 0.46357 0.23706 -0.35700
O 	O 	0.53643 0.89846 0.23706 -0.35600
O 	O 	0.23180 0.02870 0.42960 -0.35600
O 	O 	0.97130 0.20309 0.42960 -0.35600
O 	O 	0.79691 0.76820 0.42960 -0.35600
O 	O 	0.76820 0.97130 0.57040 -0.35600
O 	O 	0.02870 0.79691 0.57040 -0.35600
O 	O 	0.20309 0.23180 0.57040 -0.35600
O 	O 	0.89846 0.36204 0.76294 -0.35600
O 	O 	0.63796 0.53643 0.76294 -0.35700
O 	O 	0.46357 0.10154 0.76294 -0.35600
O 	O 	0.70670 0.73170 0.40540 -0.29600
O 	O 	0.26830 0.97500 0.40540 -0.29600
O 	O 	0.02500 0.29330 0.40540 -0.29600
O 	O 	0.29330 0.26830 0.59460 -0.29600
O 	O 	0.73170 0.02500 0.59460 -0.29600
O 	O 	0.97500 0.70670 0.59460 -0.29600
O 	O 	0.37337 0.06503 0.73873 -0.29600
O 	O 	0.93497 0.30833 0.73873 -0.29600
O 	O 	0.69167 0.62663 0.73873 -0.29600
O 	O 	0.95997 0.60163 0.92793 -0.29600
O 	O 	0.39837 0.35833 0.92793 -0.29600
O 	O 	0.64167 0.04003 0.92793 -0.29600
O 	O 	0.04003 0.39837 0.07207 -0.29600
O 	O 	0.60163 0.64167 0.07207 -0.29600
O 	O 	0.35833 0.95997 0.07207 -0.29600
O 	O 	0.62663 0.93497 0.26127 -0.29600
O 	O 	0.06503 0.69167 0.26127 -0.29600
O 	O 	0.30833 0.37337 0.26127 -0.29600
O 	O 	0.46257 0.36093 0.92413 -0.35700
O 	O 	0.63907 0.10164 0.92413 -0.35700
O 	O 	0.89836 0.53743 0.92413 -0.35700
O 	O 	0.53743 0.63907 0.07587 -0.35700
O 	O 	0.36093 0.89836 0.07587 -0.35700
O 	O 	0.10164 0.46257 0.07587 -0.35700
O 	O 	0.12924 0.69426 0.25746 -0.35700
O 	O 	0.30574 0.43497 0.25746 -0.35700
O 	O 	0.56503 0.87076 0.25746 -0.35700
O 	O 	0.20410 0.97240 0.40920 -0.35700
O 	O 	0.02760 0.23169 0.40920 -0.35700
O 	O 	0.76831 0.79590 0.40920 -0.35700
O 	O 	0.79590 0.02760 0.59080 -0.35700
O 	O 	0.97240 0.76831 0.59080 -0.35700
O 	O 	0.23169 0.20410 0.59080 -0.35700
O 	O 	0.87076 0.30574 0.74254 -0.35700
O 	O 	0.69426 0.56503 0.74254 -0.35700
O 	O 	0.43497 0.12924 0.74254 -0.35700
O 	O 	0.55337 0.40973 0.09943 -0.33900
O 	O 	0.59027 0.14364 0.09943 -0.33900
O 	O 	0.85636 0.44663 0.09943 -0.33900
O 	O 	0.44663 0.59027 0.90057 -0.33900
O 	O 	0.40973 0.85636 0.90057 -0.33900
O 	O 	0.14364 0.55337 0.90057 -0.33900
O 	O 	0.22004 0.74306 0.43276 -0.33900
O 	O 	0.25694 0.47697 0.43276 -0.33900
O 	O 	0.52303 0.77996 0.43276 -0.33900
O 	O 	0.11330 0.92360 0.23390 -0.33900
O 	O 	0.07640 0.18969 0.23390 -0.33900
O 	O 	0.81031 0.88670 0.23390 -0.33900
O 	O 	0.88670 0.07640 0.76610 -0.33900
O 	O 	0.92360 0.81031 0.76610 -0.33900
O 	O 	0.18969 0.11330 0.76610 -0.33900
O 	O 	0.77996 0.25694 0.56724 -0.33900
O 	O 	0.74306 0.52303 0.56724 -0.33900
O 	O 	0.47697 0.22004 0.56724 -0.33900
O 	O 	0.58017 0.38503 0.12793 -0.59800
O 	O 	0.61497 0.19514 0.12793 -0.59800
O 	O 	0.80486 0.41983 0.12793 -0.59800
O 	O 	0.41983 0.61497 0.87207 -0.59800
O 	O 	0.38503 0.80486 0.87207 -0.59800
O 	O 	0.19514 0.58017 0.87207 -0.59800
O 	O 	0.24684 0.71836 0.46126 -0.59800
O 	O 	0.28164 0.52847 0.46126 -0.59800
O 	O 	0.47153 0.75316 0.46126 -0.59800
O 	O 	0.08650 0.94830 0.20540 -0.59800
O 	O 	0.05170 0.13819 0.20540 -0.59800
O 	O 	0.86181 0.91350 0.20540 -0.59800
O 	O 	0.91350 0.05170 0.79460 -0.59800
O 	O 	0.94830 0.86181 0.79460 -0.59800
O 	O 	0.13819 0.08650 0.79460 -0.59800
O 	O 	0.75316 0.28164 0.53874 -0.59800
O 	O 	0.71836 0.47153 0.53874 -0.59800
O 	O 	0.52847 0.24684 0.53874 -0.59800
O 	O 	0.89160 0.86500 0.77600 -0.45700
O 	O 	0.13500 0.02660 0.77600 -0.45700
O 	O 	0.97340 0.10840 0.77600 -0.45700
O 	O 	0.10840 0.13500 0.22400 -0.45700
O 	O 	0.86500 0.97340 0.22400 -0.45700
O 	O 	0.02660 0.89160 0.22400 -0.45700
O 	O 	0.55827 0.19833 0.10933 -0.45700
O 	O 	0.80167 0.35993 0.10933 -0.45700
O 	O 	0.64007 0.44173 0.10933 -0.45700
O 	O 	0.77507 0.46833 0.55733 -0.45700
O 	O 	0.53167 0.30673 0.55733 -0.45700
O 	O 	0.69327 0.22493 0.55733 -0.45700
O 	O 	0.22493 0.53167 0.44267 -0.45700
O 	O 	0.46833 0.69327 0.44267 -0.45700
O 	O 	0.30673 0.77507 0.44267 -0.45700
O 	O 	0.44173 0.80167 0.89067 -0.45700
O 	O 	0.19833 0.64007 0.89067 -0.45700
O 	O 	0.35993 0.55827 0.89067 -0.45700
O 	O 	0.86530 0.80780 0.75770 -0.38700
O 	O 	0.19220 0.05750 0.75770 -0.38600
O 	O 	0.94250 0.13470 0.75770 -0.38700
O 	O 	0.13470 0.19220 0.24230 -0.38700
O 	O 	0.80780 0.94250 0.24230 -0.38600
O 	O 	0.05750 0.86530 0.24230 -0.38700
O 	O 	0.53197 0.14113 0.09103 -0.38700
O 	O 	0.85887 0.39083 0.09103 -0.38700
O 	O 	0.60917 0.46803 0.09103 -0.38700
O 	O 	0.80137 0.52553 0.57563 -0.38600
O 	O 	0.47447 0.27583 0.57563 -0.38700
O 	O 	0.72417 0.19863 0.57563 -0.38700
O 	O 	0.19863 0.47447 0.42437 -0.38600
O 	O 	0.52553 0.72417 0.42437 -0.38700
O 	O 	0.27583 0.80137 0.42437 -0.38700
O 	O 	0.46803 0.85887 0.90897 -0.38700
O 	O 	0.14113 0.60917 0.90897 -0.38700
O 	O 	0.39083 0.53197 0.90897 -0.38700
O 	O 	0.61260 0.47530 0.22050 -0.37800
O 	O 	0.52470 0.13730 0.22050 -0.37800
O 	O 	0.86270 0.38740 0.22050 -0.37800
O 	O 	0.38740 0.52470 0.77950 -0.37800
O 	O 	0.47530 0.86270 0.77950 -0.37800
O 	O 	0.13730 0.61260 0.77950 -0.37800
O 	O 	0.27927 0.80863 0.55383 -0.37800
O 	O 	0.19137 0.47063 0.55383 -0.37800
O 	O 	0.52937 0.72073 0.55383 -0.37800
O 	O 	0.05407 0.85803 0.11283 -0.37800
O 	O 	0.14197 0.19603 0.11283 -0.37800
O 	O 	0.80397 0.94593 0.11283 -0.37800
O 	O 	0.94593 0.14197 0.88717 -0.37800
O 	O 	0.85803 0.80397 0.88717 -0.37800
O 	O 	0.19603 0.05407 0.88717 -0.37800
O 	O 	0.72073 0.19137 0.44617 -0.37800
O 	O 	0.80863 0.52937 0.44617 -0.37800
O 	O 	0.47063 0.27927 0.44617 -0.37800
O 	O 	0.63440 0.44080 0.24300 -0.54900
O 	O 	0.55920 0.19360 0.24300 -0.54900
O 	O 	0.80640 0.36560 0.24300 -0.54900
O 	O 	0.36560 0.55920 0.75700 -0.54900
O 	O 	0.44080 0.80640 0.75700 -0.54900
O 	O 	0.19360 0.63440 0.75700 -0.54900
O 	O 	0.30107 0.77413 0.57633 -0.54900
O 	O 	0.22587 0.52693 0.57633 -0.54900
O 	O 	0.47307 0.69893 0.57633 -0.54900
O 	O 	0.03227 0.89253 0.09033 -0.54900
O 	O 	0.10747 0.13973 0.09033 -0.54900
O 	O 	0.86027 0.96773 0.09033 -0.54900
O 	O 	0.96773 0.10747 0.90967 -0.54900
O 	O 	0.89253 0.86027 0.90967 -0.54900
O 	O 	0.13973 0.03227 0.90967 -0.54900
O 	O 	0.69893 0.22587 0.42367 -0.54900
O 	O 	0.77413 0.47307 0.42367 -0.54900
O 	O 	0.52693 0.30107 0.42367 -0.54900
O 	O 	0.62280 0.68660 0.22000 -0.35300
O 	O 	0.31340 0.93620 0.22000 -0.35300
O 	O 	0.06380 0.37720 0.22000 -0.35300
O 	O 	0.37720 0.31340 0.78000 -0.35300
O 	O 	0.68660 0.06380 0.78000 -0.35300
O 	O 	0.93620 0.62280 0.78000 -0.35300
O 	O 	0.28947 0.01993 0.55333 -0.35300
O 	O 	0.98007 0.26953 0.55333 -0.35300
O 	O 	0.73047 0.71053 0.55333 -0.35300
O 	O 	0.04387 0.64673 0.11333 -0.35300
O 	O 	0.35327 0.39713 0.11333 -0.35300
O 	O 	0.60287 0.95613 0.11333 -0.35300
O 	O 	0.95613 0.35327 0.88667 -0.35300
O 	O 	0.64673 0.60287 0.88667 -0.35300
O 	O 	0.39713 0.04387 0.88667 -0.35300
O 	O 	0.71053 0.98007 0.44667 -0.35300
O 	O 	0.01993 0.73047 0.44667 -0.35300
O 	O 	0.26953 0.28947 0.44667 -0.35300
O 	O 	0.59180 0.63520 0.18260 -0.49200
O 	O 	0.36480 0.95660 0.18260 -0.49200
O 	O 	0.04340 0.40820 0.18260 -0.49200
O 	O 	0.40820 0.36480 0.81740 -0.49200
O 	O 	0.63520 0.04340 0.81740 -0.49200
O 	O 	0.95660 0.59180 0.81740 -0.49200
O 	O 	0.25847 0.96853 0.51593 -0.49200
O 	O 	0.03147 0.28993 0.51593 -0.49200
O 	O 	0.71007 0.74153 0.51593 -0.49200
O 	O 	0.07487 0.69813 0.15073 -0.49200
O 	O 	0.30187 0.37673 0.15073 -0.49200
O 	O 	0.62327 0.92513 0.15073 -0.49200
O 	O 	0.92513 0.30187 0.84927 -0.49200
O 	O 	0.69813 0.62327 0.84927 -0.49200
O 	O 	0.37673 0.07487 0.84927 -0.49200
O 	O 	0.74153 0.03147 0.48407 -0.49200
O 	O 	0.96853 0.71007 0.48407 -0.49200
O 	O 	0.28993 0.25847 0.48407 -0.49200
O 	O 	0.78920 0.77400 0.55520 -0.32100
O 	O 	0.22600 0.01520 0.55520 -0.32100
O 	O 	0.98480 0.21080 0.55520 -0.32100
O 	O 	0.21080 0.22600 0.44480 -0.32100
O 	O 	0.77400 0.98480 0.44480 -0.32100
O 	O 	0.01520 0.78920 0.44480 -0.32100
O 	O 	0.45587 0.10733 0.88853 -0.32100
O 	O 	0.89267 0.34853 0.88853 -0.32100
O 	O 	0.65147 0.54413 0.88853 -0.32100
O 	O 	0.87747 0.55933 0.77813 -0.32100
O 	O 	0.44067 0.31813 0.77813 -0.32100
O 	O 	0.68187 0.12253 0.77813 -0.32100
O 	O 	0.12253 0.44067 0.22187 -0.32100
O 	O 	0.55933 0.68187 0.22187 -0.32100
O 	O 	0.31813 0.87747 0.22187 -0.32100
O 	O 	0.54413 0.89267 0.11147 -0.32100
O 	O 	0.10733 0.65147 0.11147 -0.32100
O 	O 	0.34853 0.45587 0.11147 -0.32100
O 	O 	0.75530 0.78880 0.51530 -0.49800
O 	O 	0.21120 0.96650 0.51530 -0.49800
O 	O 	0.03350 0.24470 0.51530 -0.49800
O 	O 	0.24470 0.21120 0.48470 -0.49800
O 	O 	0.78880 0.03350 0.48470 -0.49800
O 	O 	0.96650 0.75530 0.48470 -0.49800
O 	O 	0.42197 0.12213 0.84863 -0.49800
O 	O 	0.87787 0.29983 0.84863 -0.49800
O 	O 	0.70017 0.57803 0.84863 -0.49800
O 	O 	0.91137 0.54453 0.81803 -0.49800
O 	O 	0.45547 0.36683 0.81803 -0.49800
O 	O 	0.63317 0.08863 0.81803 -0.49800
O 	O 	0.08863 0.45547 0.18197 -0.49800
O 	O 	0.54453 0.63317 0.18197 -0.49800
O 	O 	0.36683 0.91137 0.18197 -0.49800
O 	O 	0.57803 0.87787 0.15137 -0.49800
O 	O 	0.12213 0.70017 0.15137 -0.49800
O 	O 	0.29983 0.42197 0.15137 -0.49800
O 	O 	0.75270 0.53060 0.46510 -0.47000
O 	O 	0.46940 0.22210 0.46510 -0.46900
O 	O 	0.77790 0.24730 0.46510 -0.47000
O 	O 	0.24730 0.46940 0.53490 -0.47000
O 	O 	0.53060 0.77790 0.53490 -0.46900
O 	O 	0.22210 0.75270 0.53490 -0.47000
O 	O 	0.41937 0.86393 0.79843 -0.47000
O 	O 	0.13607 0.55543 0.79843 -0.46900
O 	O 	0.44457 0.58063 0.79843 -0.47000
O 	O 	0.91397 0.80273 0.86823 -0.46900
O 	O 	0.19727 0.11123 0.86823 -0.47000
O 	O 	0.88877 0.08603 0.86823 -0.47000
O 	O 	0.08603 0.19727 0.13177 -0.46900
O 	O 	0.80273 0.88877 0.13177 -0.47000
O 	O 	0.11123 0.91397 0.13177 -0.47000
O 	O 	0.58063 0.13607 0.20157 -0.47000
O 	O 	0.86393 0.44457 0.20157 -0.46900
O 	O 	0.55543 0.41937 0.20157 -0.47000
H 	H 	0.72121 0.56829 0.40076 0.04700
H 	H 	0.43171 0.15292 0.40076 0.04700
H 	H 	0.84708 0.27879 0.40076 0.04700
H 	H 	0.27879 0.43171 0.59924 0.04700
H 	H 	0.56829 0.84708 0.59924 0.04700
H 	H 	0.15292 0.72121 0.59924 0.04700
H 	H 	0.38788 0.90162 0.73409 0.04700
H 	H 	0.09838 0.48625 0.73409 0.04700
H 	H 	0.51375 0.61212 0.73409 0.04700
H 	H 	0.94546 0.76504 0.93257 0.04700
H 	H 	0.23496 0.18041 0.93257 0.04700
H 	H 	0.81959 0.05454 0.93257 0.04700
H 	H 	0.05454 0.23496 0.06743 0.04700
H 	H 	0.76504 0.81959 0.06743 0.04700
H 	H 	0.18041 0.94546 0.06743 0.04700
H 	H 	0.61212 0.09838 0.26591 0.04700
H 	H 	0.90162 0.51375 0.26591 0.04700
H 	H 	0.48625 0.38788 0.26591 0.04700
H 	H 	0.67681 0.46608 0.33271 0.01300
H 	H 	0.53392 0.21073 0.33271 0.01300
H 	H 	0.78927 0.32319 0.33271 0.01300
H 	H 	0.32319 0.53392 0.66729 0.01300
H 	H 	0.46608 0.78927 0.66729 0.01300
H 	H 	0.21073 0.67681 0.66729 0.01300
H 	H 	0.34348 0.79941 0.66604 0.01300
H 	H 	0.20059 0.54406 0.66604 0.01300
H 	H 	0.45594 0.65652 0.66604 0.01300
H 	H 	0.98986 0.86725 0.00062 0.01300
H 	H 	0.13275 0.12260 0.00062 0.01200
H 	H 	0.87740 0.01014 0.00062 0.01200
H 	H 	0.01014 0.13275 0.99938 0.01300
H 	H 	0.86725 0.87740 0.99938 0.01200
H 	H 	0.12260 0.98986 0.99938 0.01200
H 	H 	0.65652 0.20059 0.33396 0.01300
H 	H 	0.79941 0.45594 0.33396 0.01300
H 	H 	0.54406 0.34348 0.33396 0.01300
H 	H 	0.64345 0.53198 0.25750 0.04500
H 	H 	0.46802 0.11147 0.25750 0.04500
H 	H 	0.88853 0.35655 0.25750 0.04500
H 	H 	0.35655 0.46802 0.74250 0.04500
H 	H 	0.53198 0.88853 0.74250 0.04500
H 	H 	0.11147 0.64345 0.74250 0.04500
H 	H 	0.31012 0.86531 0.59083 0.04500
H 	H 	0.13469 0.44480 0.59083 0.04500
H 	H 	0.55520 0.68988 0.59083 0.04500
H 	H 	0.02322 0.80135 0.07583 0.04500
H 	H 	0.19865 0.22186 0.07583 0.04500
H 	H 	0.77814 0.97678 0.07583 0.04500
H 	H 	0.97678 0.19865 0.92417 0.04500
H 	H 	0.80135 0.77814 0.92417 0.04500
H 	H 	0.22186 0.02322 0.92417 0.04500
H 	H 	0.68988 0.13469 0.40917 0.04500
H 	H 	0.86531 0.55520 0.40917 0.04500
H 	H 	0.44480 0.31012 0.40917 0.04500
H 	H 	0.66856 0.70693 0.30610 0.04500
H 	H 	0.29307 0.96163 0.30610 0.04500
H 	H 	0.03837 0.33144 0.30610 0.04500
H 	H 	0.33144 0.29307 0.69390 0.04500
H 	H 	0.70693 0.03837 0.69390 0.04500
H 	H 	0.96163 0.66856 0.69390 0.04500
H 	H 	0.33523 0.04026 0.63943 0.04500
H 	H 	0.95974 0.29496 0.63943 0.04500
H 	H 	0.70504 0.66477 0.63943 0.04500
H 	H 	0.99811 0.62640 0.02723 0.04500
H 	H 	0.37360 0.37170 0.02723 0.04500
H 	H 	0.62830 0.00189 0.02723 0.04500
H 	H 	0.00189 0.37360 0.97277 0.04500
H 	H 	0.62640 0.62830 0.97277 0.04500
H 	H 	0.37170 0.99811 0.97277 0.04500
H 	H 	0.66477 0.95974 0.36057 0.04500
H 	H 	0.04026 0.70504 0.36057 0.04500
H 	H 	0.29496 0.33523 0.36057 0.04500
H 	H 	0.63210 0.60572 0.23823 0.03600
H 	H 	0.39428 0.02638 0.23823 0.03600
H 	H 	0.97362 0.36790 0.23823 0.03600
H 	H 	0.36790 0.39428 0.76177 0.03600
H 	H 	0.60572 0.97362 0.76177 0.03600
H 	H 	0.02638 0.63210 0.76177 0.03600
H 	H 	0.29877 0.93905 0.57156 0.03600
H 	H 	0.06095 0.35971 0.57156 0.03600
H 	H 	0.64029 0.70123 0.57156 0.03600
H 	H 	0.03457 0.72761 0.09510 0.03600
H 	H 	0.27239 0.30695 0.09510 0.03600
H 	H 	0.69305 0.96543 0.09510 0.03600
H 	H 	0.96543 0.27239 0.90490 0.03600
H 	H 	0.72761 0.69305 0.90490 0.03600
H 	H 	0.30695 0.03457 0.90490 0.03600
H 	H 	0.70123 0.06095 0.42844 0.03600
H 	H 	0.93905 0.64029 0.42844 0.03600
H 	H 	0.35971 0.29877 0.42844 0.03600
H 	H 	0.71466 0.64301 0.36260 0.03700
H 	H 	0.35699 0.07165 0.36260 0.03700
H 	H 	0.92835 0.28534 0.36260 0.03700
H 	H 	0.28534 0.35699 0.63740 0.03700
H 	H 	0.64301 0.92835 0.63740 0.03700
H 	H 	0.07165 0.71466 0.63740 0.03700
H 	H 	0.38133 0.97634 0.69593 0.03700
H 	H 	0.02366 0.40498 0.69593 0.03700
H 	H 	0.59502 0.61867 0.69593 0.03700
H 	H 	0.95201 0.69032 0.97073 0.03700
H 	H 	0.30968 0.26168 0.97073 0.03700
H 	H 	0.73832 0.04799 0.97073 0.03700
H 	H 	0.04799 0.30968 0.02927 0.03700
H 	H 	0.69032 0.73832 0.02927 0.03700
H 	H 	0.26168 0.95201 0.02927 0.03700
H 	H 	0.61867 0.02366 0.30407 0.03700
H 	H 	0.97634 0.59502 0.30407 0.03700
H 	H 	0.40498 0.38133 0.30407 0.03700
H 	H 	0.87271 0.90040 0.71224 0.03200
H 	H 	0.09960 0.97231 0.71224 0.03200
H 	H 	0.02769 0.12729 0.71224 0.03200
H 	H 	0.12729 0.09960 0.28776 0.03200
H 	H 	0.90040 0.02769 0.28776 0.03200
H 	H 	0.97231 0.87271 0.28776 0.03200
H 	H 	0.53938 0.23373 0.04557 0.03200
H 	H 	0.76627 0.30564 0.04557 0.03200
H 	H 	0.69436 0.46062 0.04557 0.03200
H 	H 	0.79396 0.43293 0.62109 0.03200
H 	H 	0.56707 0.36102 0.62109 0.03200
H 	H 	0.63898 0.20604 0.62109 0.03200
H 	H 	0.20604 0.56707 0.37891 0.03200
H 	H 	0.43293 0.63898 0.37891 0.03200
H 	H 	0.36102 0.79396 0.37891 0.03200
H 	H 	0.46062 0.76627 0.95443 0.03200
H 	H 	0.23373 0.69436 0.95443 0.03200
H 	H 	0.30564 0.53938 0.95443 0.03200
H 	H 	0.77634 0.84344 0.60929 0.03700
H 	H 	0.15656 0.93290 0.60929 0.03700
H 	H 	0.06710 0.22366 0.60929 0.03700
H 	H 	0.22366 0.15656 0.39071 0.03700
H 	H 	0.84344 0.06710 0.39071 0.03700
H 	H 	0.93290 0.77634 0.39071 0.03700
H 	H 	0.44301 0.17677 0.94262 0.03700
H 	H 	0.82323 0.26623 0.94262 0.03700
H 	H 	0.73377 0.55699 0.94262 0.03700
H 	H 	0.89033 0.48989 0.72404 0.03700
H 	H 	0.51011 0.40043 0.72404 0.03700
H 	H 	0.59957 0.10967 0.72404 0.03700
H 	H 	0.10967 0.51011 0.27596 0.03700
H 	H 	0.48989 0.59957 0.27596 0.03700
H 	H 	0.40043 0.89033 0.27596 0.03700
H 	H 	0.55699 0.82323 0.05738 0.03700
H 	H 	0.17677 0.73377 0.05738 0.03700
H 	H 	0.26623 0.44301 0.05738 0.03700
H 	H 	0.81660 0.78781 0.66258 0.04700
H 	H 	0.21219 0.02879 0.66258 0.04700
H 	H 	0.97121 0.18340 0.66258 0.04700
H 	H 	0.18340 0.21219 0.33742 0.04700
H 	H 	0.78781 0.97121 0.33742 0.04700
H 	H 	0.02879 0.81660 0.33742 0.04700
H 	H 	0.48327 0.12114 0.99591 0.04700
H 	H 	0.87886 0.36212 0.99591 0.04700
H 	H 	0.63788 0.51673 0.99591 0.04700
H 	H 	0.85007 0.54552 0.67075 0.04700
H 	H 	0.45448 0.30454 0.67075 0.04700
H 	H 	0.69546 0.14993 0.67075 0.04700
H 	H 	0.14993 0.45448 0.32925 0.04700
H 	H 	0.54552 0.69546 0.32925 0.04700
H 	H 	0.30454 0.85007 0.32925 0.04700
H 	H 	0.51673 0.87886 0.00409 0.04700
H 	H 	0.12114 0.63788 0.00409 0.04700
H 	H 	0.36212 0.48327 0.00409 0.04700
H 	H 	0.54782 0.32034 0.08812 0.02000
H 	H 	0.67966 0.22748 0.08812 0.02000
H 	H 	0.77252 0.45218 0.08812 0.02000
H 	H 	0.45218 0.67966 0.91188 0.02000
H 	H 	0.32034 0.77252 0.91188 0.02000
H 	H 	0.22748 0.54782 0.91188 0.02000
H 	H 	0.21449 0.65367 0.42145 0.02000
H 	H 	0.34633 0.56081 0.42145 0.02000
H 	H 	0.43919 0.78551 0.42145 0.02000
H 	H 	0.11885 0.01299 0.24521 0.02000
H 	H 	0.98701 0.10585 0.24521 0.02000
H 	H 	0.89415 0.88115 0.24521 0.02000
H 	H 	0.88115 0.98701 0.75479 0.02000
H 	H 	0.01299 0.89415 0.75479 0.02000
H 	H 	0.10585 0.11885 0.75479 0.02000
H 	H 	0.78551 0.34633 0.57855 0.02000
H 	H 	0.65367 0.43919 0.57855 0.02000
H 	H 	0.56081 0.21449 0.57855 0.02000
H 	H 	0.50578 0.37923 0.01168 0.04600
H 	H 	0.62077 0.12655 0.01168 0.04600
H 	H 	0.87345 0.49422 0.01168 0.04600
H 	H 	0.49422 0.62077 0.98832 0.04600
H 	H 	0.37923 0.87345 0.98832 0.04600
H 	H 	0.12655 0.50578 0.98832 0.04600
H 	H 	0.17245 0.71256 0.34501 0.04600
H 	H 	0.28744 0.45988 0.34501 0.04600
H 	H 	0.54012 0.82755 0.34501 0.04600
H 	H 	0.16089 0.95410 0.32165 0.04600
H 	H 	0.04590 0.20678 0.32165 0.04600
H 	H 	0.79322 0.83911 0.32165 0.04600
H 	H 	0.83911 0.04590 0.67835 0.04600
H 	H 	0.95410 0.79322 0.67835 0.04600
H 	H 	0.20678 0.16089 0.67835 0.04600
H 	H 	0.82755 0.28744 0.65499 0.04600
H 	H 	0.71256 0.54012 0.65499 0.04600
H 	H 	0.45988 0.17245 0.65499 0.04600
H 	H 	0.47853 0.28381 0.91491 0.04300
H 	H 	0.71619 0.19472 0.91491 0.04300
H 	H 	0.80528 0.52147 0.91491 0.04300
H 	H 	0.52147 0.71619 0.08509 0.04300
H 	H 	0.28381 0.80528 0.08509 0.04300
H 	H 	0.19472 0.47853 0.08509 0.04300
H 	H 	0.14520 0.61714 0.24824 0.04300
H 	H 	0.38286 0.52805 0.24824 0.04300
H 	H 	0.47195 0.85480 0.24824 0.04300
H 	H 	0.18814 0.04952 0.41842 0.04300
H 	H 	0.95048 0.13861 0.41842 0.04300
H 	H 	0.86139 0.81186 0.41842 0.04300
H 	H 	0.81186 0.95048 0.58158 0.04300
H 	H 	0.04952 0.86139 0.58158 0.04300
H 	H 	0.13861 0.18814 0.58158 0.04300
H 	H 	0.85480 0.38286 0.75176 0.04300
H 	H 	0.61714 0.47195 0.75176 0.04300
H 	H 	0.52805 0.14520 0.75176 0.04300
H 	H 	0.53011 0.26641 0.05868 0.02600
H 	H 	0.73359 0.26370 0.05868 0.02600
H 	H 	0.73630 0.46989 0.05868 0.02600
H 	H 	0.46989 0.73359 0.94132 0.02600
H 	H 	0.26641 0.73630 0.94132 0.02600
H 	H 	0.26370 0.53011 0.94132 0.02600
H 	H 	0.19678 0.59974 0.39201 0.02600
H 	H 	0.40026 0.59703 0.39201 0.02600
H 	H 	0.40297 0.80322 0.39201 0.02600
H 	H 	0.13656 0.06692 0.27465 0.02600
H 	H 	0.93308 0.06963 0.27465 0.02600
H 	H 	0.93037 0.86344 0.27465 0.02600
H 	H 	0.86344 0.93308 0.72535 0.02600
H 	H 	0.06692 0.93037 0.72535 0.02600
H 	H 	0.06963 0.13656 0.72535 0.02600
H 	H 	0.80322 0.40026 0.60799 0.02600
H 	H 	0.59974 0.40297 0.60799 0.02600
H 	H 	0.59703 0.19678 0.60799 0.02600
H 	H 	0.70949 0.60621 0.37197 0.03600
H 	H 	0.39379 0.10328 0.37197 0.03600
H 	H 	0.89672 0.29051 0.37197 0.03600
H 	H 	0.29051 0.39379 0.62803 0.03600
H 	H 	0.60621 0.89672 0.62803 0.03600
H 	H 	0.10328 0.70949 0.62803 0.03600
H 	H 	0.37616 0.93954 0.70530 0.03600
H 	H 	0.06046 0.43661 0.70530 0.03600
H 	H 	0.56339 0.62384 0.70530 0.03600
H 	H 	0.95718 0.72712 0.96136 0.03600
H 	H 	0.27288 0.23005 0.96136 0.03600
H 	H 	0.76995 0.04282 0.96136 0.03600
H 	H 	0.04282 0.27288 0.03864 0.03600
H 	H 	0.72712 0.76995 0.03864 0.03600
H 	H 	0.23005 0.95718 0.03864 0.03600
H 	H 	0.62384 0.06046 0.29470 0.03600
H 	H 	0.93954 0.56339 0.29470 0.03600
H 	H 	0.43661 0.37616 0.29470 0.03600
H 	H 	0.65534 0.57417 0.26012 0.03600
H 	H 	0.42583 0.08117 0.26012 0.03600
H 	H 	0.91883 0.34466 0.26012 0.03600
H 	H 	0.34466 0.42583 0.73988 0.03600
H 	H 	0.57417 0.91883 0.73988 0.03600
H 	H 	0.08117 0.65534 0.73988 0.03600
H 	H 	0.32201 0.90750 0.59345 0.03600
H 	H 	0.09250 0.41450 0.59345 0.03600
H 	H 	0.58550 0.67799 0.59345 0.03600
H 	H 	0.01133 0.75916 0.07321 0.03600
H 	H 	0.24084 0.25216 0.07321 0.03600
H 	H 	0.74784 0.98867 0.07321 0.03600
H 	H 	0.98867 0.24084 0.92679 0.03600
H 	H 	0.75916 0.74784 0.92679 0.03600
H 	H 	0.25216 0.01133 0.92679 0.03600
H 	H 	0.67799 0.09250 0.40655 0.03600
H 	H 	0.90750 0.58550 0.40655 0.03600
H 	H 	0.41450 0.32201 0.40655 0.03600
H 	H 	0.80664 0.91287 0.61311 0.03800
H 	H 	0.08713 0.89377 0.61311 0.03800
H 	H 	0.10623 0.19336 0.61311 0.03800
H 	H 	0.19336 0.08713 0.38689 0.03800
H 	H 	0.91287 0.10623 0.38689 0.03800
H 	H 	0.89377 0.80664 0.38689 0.03800
H 	H 	0.47331 0.24620 0.94644 0.03800
H 	H 	0.75380 0.22710 0.94644 0.03800
H 	H 	0.77290 0.52669 0.94644 0.03800
H 	H 	0.86003 0.42046 0.72022 0.03800
H 	H 	0.57954 0.43956 0.72022 0.03800
H 	H 	0.56044 0.13997 0.72022 0.03800
H 	H 	0.13997 0.57954 0.27978 0.03800
H 	H 	0.42046 0.56044 0.27978 0.03800
H 	H 	0.43956 0.86003 0.27978 0.03800
H 	H 	0.52669 0.75380 0.05356 0.03800
H 	H 	0.24620 0.77290 0.05356 0.03800
H 	H 	0.22710 0.47331 0.05356 0.03800
