data_crystal

_cell_length_a 9.27410
_cell_length_b 9.38990
_cell_length_c 15.05670
_cell_angle_alpha 108.16900
_cell_angle_beta  92.52440
_cell_angle_gamma 90.00000

_symmetry_space_group_name_	'P 1'
_symmetry_space_group_name_H-M	'P 1'

loop_
_symmetry_equiv_pos_as_xyz
  x,y,z

loop_
_atom_site_label
_atom_site_type_symbol
_atom_site_fract_x
_atom_site_fract_y
_atom_site_fract_z
_atom_site_charge
Cu	Cu	0.87996 0.36179 0.38492 0.89100
Cu	Cu	0.62004 0.97687 0.61508 0.89000
Cu	Cu	0.12004 0.63821 0.61508 0.89100
Cu	Cu	0.37996 0.02313 0.38492 0.89000
H 	H 	0.14310 0.70440 0.25400 0.13400
H 	H 	0.03560 0.63170 0.36640 -0.01800
H 	H 	0.04340 0.29860 0.07020 0.11500
H 	H 	0.93070 0.24000 0.18800 -0.00600
H 	H 	0.10830 0.60340 0.04260 0.12800
H 	H 	0.25440 0.63270 0.10400 0.13200
H 	H 	0.32240 0.38520 0.03040 0.00900
H 	H 	0.35690 0.45040 0.74600 0.13300
H 	H 	0.46440 0.26530 0.63360 -0.01800
H 	H 	0.45660 0.22840 0.92980 0.10700
H 	H 	0.56930 0.05200 0.81200 -0.00700
H 	H 	0.39170 0.56080 0.95740 0.12100
H 	H 	0.24560 0.52870 0.89600 0.13000
H 	H 	0.17760 0.35480 0.96960 -0.00300
H 	H 	0.85690 0.29560 0.74600 0.13300
H 	H 	0.96440 0.36830 0.63360 -0.01700
H 	H 	0.95660 0.70140 0.92980 0.10600
H 	H 	0.06930 0.76000 0.81200 -0.00800
H 	H 	0.89170 0.39660 0.95740 0.12200
H 	H 	0.74560 0.36730 0.89600 0.13000
H 	H 	0.67760 0.61480 0.96960 -0.00300
H 	H 	0.64310 0.54960 0.25400 0.13400
H 	H 	0.53560 0.73470 0.36640 -0.01800
H 	H 	0.54340 0.77160 0.07020 0.11500
H 	H 	0.43070 0.94800 0.18800 -0.00500
H 	H 	0.60830 0.43920 0.04260 0.12700
H 	H 	0.75440 0.47130 0.10400 0.13100
H 	H 	0.82240 0.64520 0.03040 0.01000
C 	C 	0.10220 0.60770 0.23880 -0.24100
C 	C 	0.03680 0.56380 0.30540 0.14300
C 	C 	0.04260 0.36910 0.13020 -0.23400
C 	C 	0.10840 0.50900 0.14780 0.21700
C 	C 	0.97620 0.33420 0.20140 0.12900
C 	C 	0.18040 0.55650 0.07360 -0.32300
C 	C 	0.14040 0.20130 0.40640 0.01700
C 	C 	0.09920 0.06760 0.32440 0.26800
C 	C 	0.39780 0.36890 0.76120 -0.24000
C 	C 	0.46320 0.25840 0.69460 0.14200
C 	C 	0.45740 0.23890 0.86980 -0.23100
C 	C 	0.39160 0.36120 0.85220 0.21400
C 	C 	0.52380 0.13280 0.79860 0.12500
C 	C 	0.31960 0.48290 0.92640 -0.33000
C 	C 	0.35960 0.79490 0.59360 0.01500
C 	C 	0.40080 0.74320 0.67560 0.27800
C 	C 	0.89780 0.39230 0.76120 -0.24000
C 	C 	0.96320 0.43620 0.69460 0.14200
C 	C 	0.95740 0.63090 0.86980 -0.23200
C 	C 	0.89160 0.49100 0.85220 0.21400
C 	C 	0.02380 0.66580 0.79860 0.12600
C 	C 	0.81960 0.44350 0.92640 -0.32900
C 	C 	0.85960 0.79870 0.59360 0.01700
C 	C 	0.90080 0.93240 0.67560 0.27000
C 	C 	0.60220 0.63110 0.23880 -0.24000
C 	C 	0.53680 0.74160 0.30540 0.14300
C 	C 	0.54260 0.76110 0.13020 -0.23100
C 	C 	0.60840 0.63880 0.14780 0.21500
C 	C 	0.47620 0.86720 0.20140 0.12700
C 	C 	0.68040 0.51710 0.07360 -0.32100
C 	C 	0.64040 0.20510 0.40640 0.01500
C 	C 	0.59920 0.25680 0.32440 0.27800
C 	C 	0.25000 0.43090 1.00000 0.09500
C 	C 	0.75000 0.56910 1.00000 0.09300
N 	N 	0.97400 0.42877 0.28854 -0.24600
N 	N 	0.07230 0.32768 0.44316 -0.17400
N 	N 	0.15920 0.41133 0.51246 -0.12400
N 	N 	0.27970 0.33805 0.51710 -0.05200
N 	N 	0.26900 0.20487 0.44994 -0.16700
N 	N 	0.52600 0.14023 0.71146 -0.24500
N 	N 	0.42770 0.88452 0.55684 -0.17200
N 	N 	0.34080 0.89887 0.48754 -0.12300
N 	N 	0.22030 0.82095 0.48290 -0.05100
N 	N 	0.23100 0.75493 0.55006 -0.16700
N 	N 	0.02600 0.57123 0.71146 -0.24600
N 	N 	0.92770 0.67232 0.55684 -0.17300
N 	N 	0.84080 0.58867 0.48754 -0.12400
N 	N 	0.72030 0.66195 0.48290 -0.05100
N 	N 	0.73100 0.79513 0.55006 -0.16700
N 	N 	0.47400 0.85977 0.28854 -0.24500
N 	N 	0.57230 0.11548 0.44316 -0.17300
N 	N 	0.65920 0.10113 0.51246 -0.12300
N 	N 	0.77970 0.17905 0.51710 -0.05100
N 	N 	0.76900 0.24507 0.44994 -0.16600
O 	O 	0.19830 0.97110 0.30540 -0.35800
O 	O 	0.97960 0.06282 0.28504 -0.26600
O 	O 	0.30170 0.66570 0.69460 -0.36500
O 	O 	0.52040 0.77778 0.71496 -0.27300
O 	O 	0.80170 0.02890 0.69460 -0.36100
O 	O 	0.02040 0.93718 0.71496 -0.26800
O 	O 	0.69830 0.33430 0.30540 -0.36400
O 	O 	0.47960 0.22222 0.28504 -0.27200
