data_crystal

_cell_length_a 38.80500
_cell_length_b 38.80500
_cell_length_c 38.80500
_cell_angle_alpha 90.00000
_cell_angle_beta  90.00000
_cell_angle_gamma 90.00000

_symmetry_space_group_name_	'P 1'
_symmetry_space_group_name_H-M	'P 1'

loop_
_symmetry_equiv_pos_as_xyz
  x,y,z

loop_
_atom_site_label
_atom_site_type_symbol
_atom_site_fract_x
_atom_site_fract_y
_atom_site_fract_z
_atom_site_charge
Co	Co	0.95034 0.36626 0.97391 1.18400
Co	Co	0.95995 0.22534 0.46859 1.09900
Co	Co	0.96644 0.31449 0.70400 1.10900
Co	Co	0.54966 0.63374 0.47391 1.18400
Co	Co	0.54005 0.77466 0.96859 1.09900
Co	Co	0.53356 0.68551 0.20400 1.10900
Co	Co	0.04966 0.86626 0.52609 1.18400
Co	Co	0.04005 0.72534 0.03141 1.09900
Co	Co	0.03356 0.81449 0.79600 1.10900
Co	Co	0.45034 0.13374 0.02609 1.18400
Co	Co	0.45995 0.27466 0.53141 1.09900
Co	Co	0.46644 0.18551 0.29600 1.10900
Co	Co	0.97391 0.95034 0.36626 1.18400
Co	Co	0.46859 0.95995 0.22534 1.09900
Co	Co	0.70400 0.96644 0.31449 1.10900
Co	Co	0.47391 0.54966 0.63374 1.18400
Co	Co	0.96859 0.54005 0.77466 1.09900
Co	Co	0.20400 0.53356 0.68551 1.10900
Co	Co	0.52609 0.04966 0.86626 1.18400
Co	Co	0.03141 0.04005 0.72534 1.09900
Co	Co	0.79600 0.03356 0.81449 1.10900
Co	Co	0.02609 0.45034 0.13374 1.18400
Co	Co	0.53141 0.45995 0.27466 1.09900
Co	Co	0.29600 0.46644 0.18551 1.10900
Co	Co	0.36626 0.97391 0.95034 1.18400
Co	Co	0.22534 0.46859 0.95995 1.09900
Co	Co	0.31449 0.70400 0.96644 1.10900
Co	Co	0.63374 0.47391 0.54966 1.18400
Co	Co	0.77466 0.96859 0.54005 1.09900
Co	Co	0.68551 0.20400 0.53356 1.10900
Co	Co	0.86626 0.52609 0.04966 1.18400
Co	Co	0.72534 0.03141 0.04005 1.09900
Co	Co	0.81449 0.79600 0.03356 1.10900
Co	Co	0.13374 0.02609 0.45034 1.18400
Co	Co	0.27466 0.53141 0.45995 1.09900
Co	Co	0.18551 0.29600 0.46644 1.10900
Co	Co	0.04966 0.63374 0.02609 1.18400
Co	Co	0.04005 0.77466 0.53141 1.09900
Co	Co	0.03356 0.68551 0.29600 1.10900
Co	Co	0.45034 0.36626 0.52609 1.18400
Co	Co	0.45995 0.22534 0.03141 1.09900
Co	Co	0.46644 0.31449 0.79600 1.10900
Co	Co	0.95034 0.13374 0.47391 1.18400
Co	Co	0.95995 0.27466 0.96859 1.09900
Co	Co	0.96644 0.18551 0.20400 1.10900
Co	Co	0.54966 0.86626 0.97391 1.18400
Co	Co	0.54005 0.72534 0.46859 1.09900
Co	Co	0.53356 0.81449 0.70400 1.10900
Co	Co	0.02609 0.04966 0.63374 1.18300
Co	Co	0.53141 0.04005 0.77466 1.09800
Co	Co	0.29600 0.03356 0.68551 1.10800
Co	Co	0.52609 0.45034 0.36626 1.18300
Co	Co	0.03141 0.45995 0.22534 1.09800
Co	Co	0.79600 0.46644 0.31449 1.10800
Co	Co	0.47391 0.95034 0.13374 1.18300
Co	Co	0.96859 0.95995 0.27466 1.09800
Co	Co	0.20400 0.96644 0.18551 1.10800
Co	Co	0.97391 0.54966 0.86626 1.18300
Co	Co	0.46859 0.54005 0.72534 1.09800
Co	Co	0.70400 0.53356 0.81449 1.10800
Co	Co	0.63374 0.02609 0.04966 1.18300
Co	Co	0.77466 0.53141 0.04005 1.09800
Co	Co	0.68551 0.29600 0.03356 1.10800
Co	Co	0.36626 0.52609 0.45034 1.18300
Co	Co	0.22534 0.03141 0.45995 1.09800
Co	Co	0.31449 0.79600 0.46644 1.10800
Co	Co	0.13374 0.47391 0.95034 1.18300
Co	Co	0.27466 0.96859 0.95995 1.09800
Co	Co	0.18551 0.20400 0.96644 1.10800
Co	Co	0.86626 0.97391 0.54966 1.18300
Co	Co	0.72534 0.46859 0.54005 1.09800
Co	Co	0.81449 0.70400 0.53356 1.10800
H 	H 	0.98400 0.13560 0.57510 0.04100
H 	H 	0.96180 0.23350 0.58080 0.05200
H 	H 	0.99660 0.18840 0.66460 0.06300
H 	H 	0.93720 0.35090 0.83400 0.06000
H 	H 	0.94800 0.44060 0.88440 0.03900
H 	H 	0.95980 0.43650 0.78180 0.04400
H 	H 	0.89330 0.40700 0.76440 0.06900
H 	H 	0.85490 0.38170 0.71990 0.07200
H 	H 	0.86720 0.28490 0.62930 0.05900
H 	H 	0.90950 0.24370 0.60610 0.07100
H 	H 	0.80710 0.38500 0.61380 0.09500
H 	H 	0.76000 0.36080 0.64260 0.00700
H 	H 	0.76900 0.31990 0.68600 0.11600
H 	H 	0.04370 0.23000 0.63940 0.06700
H 	H 	0.08620 0.26220 0.67510 0.06400
H 	H 	0.06940 0.34830 0.77990 0.06600
H 	H 	0.01850 0.37490 0.80760 0.06500
H 	H 	0.15460 0.27720 0.76800 0.11900
H 	H 	0.18610 0.32040 0.73990 0.01000
H 	H 	0.15810 0.35900 0.70310 0.11500
H 	H 	0.51600 0.86440 0.07510 0.04100
H 	H 	0.53820 0.76650 0.08080 0.05200
H 	H 	0.50340 0.81160 0.16460 0.06300
H 	H 	0.56280 0.64910 0.33400 0.06000
H 	H 	0.55200 0.55940 0.38440 0.03900
H 	H 	0.54020 0.56350 0.28180 0.04400
H 	H 	0.60670 0.59300 0.26440 0.06900
H 	H 	0.64510 0.61830 0.21990 0.07200
H 	H 	0.63280 0.71510 0.12930 0.05900
H 	H 	0.59050 0.75630 0.10610 0.07100
H 	H 	0.69290 0.61500 0.11380 0.09500
H 	H 	0.74000 0.63920 0.14260 0.00700
H 	H 	0.73100 0.68010 0.18600 0.11600
H 	H 	0.45630 0.77000 0.13940 0.06700
H 	H 	0.41380 0.73780 0.17510 0.06400
H 	H 	0.43060 0.65170 0.27990 0.06600
H 	H 	0.48150 0.62510 0.30760 0.06500
H 	H 	0.34540 0.72280 0.26800 0.11900
H 	H 	0.31390 0.67960 0.23990 0.01000
H 	H 	0.34190 0.64100 0.20310 0.11500
H 	H 	0.01600 0.63560 0.92490 0.04100
H 	H 	0.03820 0.73350 0.91920 0.05200
H 	H 	0.00340 0.68840 0.83540 0.06300
H 	H 	0.06280 0.85090 0.66600 0.06000
H 	H 	0.05200 0.94060 0.61560 0.03900
H 	H 	0.04020 0.93650 0.71820 0.04400
H 	H 	0.10670 0.90700 0.73560 0.06900
H 	H 	0.14510 0.88170 0.78010 0.07200
H 	H 	0.13280 0.78490 0.87070 0.05900
H 	H 	0.09050 0.74370 0.89390 0.07100
H 	H 	0.19290 0.88500 0.88620 0.09500
H 	H 	0.24000 0.86080 0.85740 0.00700
H 	H 	0.23100 0.81990 0.81400 0.11600
H 	H 	0.95630 0.73000 0.86060 0.06700
H 	H 	0.91380 0.76220 0.82490 0.06400
H 	H 	0.93060 0.84830 0.72010 0.06600
H 	H 	0.98150 0.87490 0.69240 0.06500
H 	H 	0.84540 0.77720 0.73200 0.11900
H 	H 	0.81390 0.82040 0.76010 0.01000
H 	H 	0.84190 0.85900 0.79690 0.11500
H 	H 	0.48400 0.36440 0.42490 0.04100
H 	H 	0.46180 0.26650 0.41920 0.05200
H 	H 	0.49660 0.31160 0.33540 0.06300
H 	H 	0.43720 0.14910 0.16600 0.06000
H 	H 	0.44800 0.05940 0.11560 0.03900
H 	H 	0.45980 0.06350 0.21820 0.04400
H 	H 	0.39330 0.09300 0.23560 0.06900
H 	H 	0.35490 0.11830 0.28010 0.07200
H 	H 	0.36720 0.21510 0.37070 0.05900
H 	H 	0.40950 0.25630 0.39390 0.07100
H 	H 	0.30710 0.11500 0.38620 0.09500
H 	H 	0.26000 0.13920 0.35740 0.00700
H 	H 	0.26900 0.18010 0.31400 0.11600
H 	H 	0.54370 0.27000 0.36060 0.06700
H 	H 	0.58620 0.23780 0.32490 0.06400
H 	H 	0.56940 0.15170 0.22010 0.06600
H 	H 	0.51850 0.12510 0.19240 0.06500
H 	H 	0.65460 0.22280 0.23200 0.11900
H 	H 	0.68610 0.17960 0.26010 0.01000
H 	H 	0.65810 0.14100 0.29690 0.11500
H 	H 	0.57510 0.98400 0.13560 0.04100
H 	H 	0.58080 0.96180 0.23350 0.05200
H 	H 	0.66460 0.99660 0.18840 0.06300
H 	H 	0.83400 0.93720 0.35090 0.06000
H 	H 	0.88440 0.94800 0.44060 0.03900
H 	H 	0.78180 0.95980 0.43650 0.04400
H 	H 	0.76440 0.89330 0.40700 0.06900
H 	H 	0.71990 0.85490 0.38170 0.07200
H 	H 	0.62930 0.86720 0.28490 0.05900
H 	H 	0.60610 0.90950 0.24370 0.07100
H 	H 	0.61380 0.80710 0.38500 0.09500
H 	H 	0.64260 0.76000 0.36080 0.00700
H 	H 	0.68600 0.76900 0.31990 0.11600
H 	H 	0.63940 0.04370 0.23000 0.06700
H 	H 	0.67510 0.08620 0.26220 0.06400
H 	H 	0.77990 0.06940 0.34830 0.06600
H 	H 	0.80760 0.01850 0.37490 0.06500
H 	H 	0.76800 0.15460 0.27720 0.11900
H 	H 	0.73990 0.18610 0.32040 0.01000
H 	H 	0.70310 0.15810 0.35900 0.11500
H 	H 	0.07510 0.51600 0.86440 0.04100
H 	H 	0.08080 0.53820 0.76650 0.05200
H 	H 	0.16460 0.50340 0.81160 0.06300
H 	H 	0.33400 0.56280 0.64910 0.06000
H 	H 	0.38440 0.55200 0.55940 0.03900
H 	H 	0.28180 0.54020 0.56350 0.04400
H 	H 	0.26440 0.60670 0.59300 0.06900
H 	H 	0.21990 0.64510 0.61830 0.07200
H 	H 	0.12930 0.63280 0.71510 0.05900
H 	H 	0.10610 0.59050 0.75630 0.07100
H 	H 	0.11380 0.69290 0.61500 0.09500
H 	H 	0.14260 0.74000 0.63920 0.00700
H 	H 	0.18600 0.73100 0.68010 0.11600
H 	H 	0.13940 0.45630 0.77000 0.06700
H 	H 	0.17510 0.41380 0.73780 0.06400
H 	H 	0.27990 0.43060 0.65170 0.06600
H 	H 	0.30760 0.48150 0.62510 0.06500
H 	H 	0.26800 0.34540 0.72280 0.11900
H 	H 	0.23990 0.31390 0.67960 0.01000
H 	H 	0.20310 0.34190 0.64100 0.11500
H 	H 	0.92490 0.01600 0.63560 0.04100
H 	H 	0.91920 0.03820 0.73350 0.05200
H 	H 	0.83540 0.00340 0.68840 0.06300
H 	H 	0.66600 0.06280 0.85090 0.06000
H 	H 	0.61560 0.05200 0.94060 0.03900
H 	H 	0.71820 0.04020 0.93650 0.04400
H 	H 	0.73560 0.10670 0.90700 0.06900
H 	H 	0.78010 0.14510 0.88170 0.07200
H 	H 	0.87070 0.13280 0.78490 0.05900
H 	H 	0.89390 0.09050 0.74370 0.07100
H 	H 	0.88620 0.19290 0.88500 0.09500
H 	H 	0.85740 0.24000 0.86080 0.00700
H 	H 	0.81400 0.23100 0.81990 0.11600
H 	H 	0.86060 0.95630 0.73000 0.06700
H 	H 	0.82490 0.91380 0.76220 0.06400
H 	H 	0.72010 0.93060 0.84830 0.06600
H 	H 	0.69240 0.98150 0.87490 0.06500
H 	H 	0.73200 0.84540 0.77720 0.11900
H 	H 	0.76010 0.81390 0.82040 0.01000
H 	H 	0.79690 0.84190 0.85900 0.11500
H 	H 	0.42490 0.48400 0.36440 0.04100
H 	H 	0.41920 0.46180 0.26650 0.05200
H 	H 	0.33540 0.49660 0.31160 0.06300
H 	H 	0.16600 0.43720 0.14910 0.06000
H 	H 	0.11560 0.44800 0.05940 0.03900
H 	H 	0.21820 0.45980 0.06350 0.04400
H 	H 	0.23560 0.39330 0.09300 0.06900
H 	H 	0.28010 0.35490 0.11830 0.07200
H 	H 	0.37070 0.36720 0.21510 0.05900
H 	H 	0.39390 0.40950 0.25630 0.07100
H 	H 	0.38620 0.30710 0.11500 0.09500
H 	H 	0.35740 0.26000 0.13920 0.00700
H 	H 	0.31400 0.26900 0.18010 0.11600
H 	H 	0.36060 0.54370 0.27000 0.06700
H 	H 	0.32490 0.58620 0.23780 0.06400
H 	H 	0.22010 0.56940 0.15170 0.06600
H 	H 	0.19240 0.51850 0.12510 0.06500
H 	H 	0.23200 0.65460 0.22280 0.11900
H 	H 	0.26010 0.68610 0.17960 0.01000
H 	H 	0.29690 0.65810 0.14100 0.11500
H 	H 	0.13560 0.57510 0.98400 0.04100
H 	H 	0.23350 0.58080 0.96180 0.05200
H 	H 	0.18840 0.66460 0.99660 0.06300
H 	H 	0.35090 0.83400 0.93720 0.06000
H 	H 	0.44060 0.88440 0.94800 0.03900
H 	H 	0.43650 0.78180 0.95980 0.04400
H 	H 	0.40700 0.76440 0.89330 0.06900
H 	H 	0.38170 0.71990 0.85490 0.07200
H 	H 	0.28490 0.62930 0.86720 0.05900
H 	H 	0.24370 0.60610 0.90950 0.07100
H 	H 	0.38500 0.61380 0.80710 0.09500
H 	H 	0.36080 0.64260 0.76000 0.00700
H 	H 	0.31990 0.68600 0.76900 0.11600
H 	H 	0.23000 0.63940 0.04370 0.06700
H 	H 	0.26220 0.67510 0.08620 0.06400
H 	H 	0.34830 0.77990 0.06940 0.06600
H 	H 	0.37490 0.80760 0.01850 0.06500
H 	H 	0.27720 0.76800 0.15460 0.11900
H 	H 	0.32040 0.73990 0.18610 0.01000
H 	H 	0.35900 0.70310 0.15810 0.11500
H 	H 	0.86440 0.07510 0.51600 0.04100
H 	H 	0.76650 0.08080 0.53820 0.05200
H 	H 	0.81160 0.16460 0.50340 0.06300
H 	H 	0.64910 0.33400 0.56280 0.06000
H 	H 	0.55940 0.38440 0.55200 0.03900
H 	H 	0.56350 0.28180 0.54020 0.04400
H 	H 	0.59300 0.26440 0.60670 0.06900
H 	H 	0.61830 0.21990 0.64510 0.07200
H 	H 	0.71510 0.12930 0.63280 0.05900
H 	H 	0.75630 0.10610 0.59050 0.07100
H 	H 	0.61500 0.11380 0.69290 0.09500
H 	H 	0.63920 0.14260 0.74000 0.00700
H 	H 	0.68010 0.18600 0.73100 0.11600
H 	H 	0.77000 0.13940 0.45630 0.06700
H 	H 	0.73780 0.17510 0.41380 0.06400
H 	H 	0.65170 0.27990 0.43060 0.06600
H 	H 	0.62510 0.30760 0.48150 0.06500
H 	H 	0.72280 0.26800 0.34540 0.11900
H 	H 	0.67960 0.23990 0.31390 0.01000
H 	H 	0.64100 0.20310 0.34190 0.11500
H 	H 	0.63560 0.92490 0.01600 0.04100
H 	H 	0.73350 0.91920 0.03820 0.05200
H 	H 	0.68840 0.83540 0.00340 0.06300
H 	H 	0.85090 0.66600 0.06280 0.06000
H 	H 	0.94060 0.61560 0.05200 0.03900
H 	H 	0.93650 0.71820 0.04020 0.04400
H 	H 	0.90700 0.73560 0.10670 0.06900
H 	H 	0.88170 0.78010 0.14510 0.07200
H 	H 	0.78490 0.87070 0.13280 0.05900
H 	H 	0.74370 0.89390 0.09050 0.07100
H 	H 	0.88500 0.88620 0.19290 0.09500
H 	H 	0.86080 0.85740 0.24000 0.00700
H 	H 	0.81990 0.81400 0.23100 0.11600
H 	H 	0.73000 0.86060 0.95630 0.06700
H 	H 	0.76220 0.82490 0.91380 0.06400
H 	H 	0.84830 0.72010 0.93060 0.06600
H 	H 	0.87490 0.69240 0.98150 0.06500
H 	H 	0.77720 0.73200 0.84540 0.11900
H 	H 	0.82040 0.76010 0.81390 0.01000
H 	H 	0.85900 0.79690 0.84190 0.11500
H 	H 	0.36440 0.42490 0.48400 0.04100
H 	H 	0.26650 0.41920 0.46180 0.05200
H 	H 	0.31160 0.33540 0.49660 0.06300
H 	H 	0.14910 0.16600 0.43720 0.06000
H 	H 	0.05940 0.11560 0.44800 0.03900
H 	H 	0.06350 0.21820 0.45980 0.04400
H 	H 	0.09300 0.23560 0.39330 0.06900
H 	H 	0.11830 0.28010 0.35490 0.07200
H 	H 	0.21510 0.37070 0.36720 0.05900
H 	H 	0.25630 0.39390 0.40950 0.07100
H 	H 	0.11500 0.38620 0.30710 0.09500
H 	H 	0.13920 0.35740 0.26000 0.00700
H 	H 	0.18010 0.31400 0.26900 0.11600
H 	H 	0.27000 0.36060 0.54370 0.06700
H 	H 	0.23780 0.32490 0.58620 0.06400
H 	H 	0.15170 0.22010 0.56940 0.06600
H 	H 	0.12510 0.19240 0.51850 0.06500
H 	H 	0.22280 0.23200 0.65460 0.11900
H 	H 	0.17960 0.26010 0.68610 0.01000
H 	H 	0.14100 0.29690 0.65810 0.11500
H 	H 	0.01600 0.86440 0.42490 0.04100
H 	H 	0.03820 0.76650 0.41920 0.05200
H 	H 	0.00340 0.81160 0.33540 0.06300
H 	H 	0.06280 0.64910 0.16600 0.06000
H 	H 	0.05200 0.55940 0.11560 0.03900
H 	H 	0.04020 0.56350 0.21820 0.04400
H 	H 	0.10670 0.59300 0.23560 0.06900
H 	H 	0.14510 0.61830 0.28010 0.07200
H 	H 	0.13280 0.71510 0.37070 0.05900
H 	H 	0.09050 0.75630 0.39390 0.07100
H 	H 	0.19290 0.61500 0.38620 0.09500
H 	H 	0.24000 0.63920 0.35740 0.00700
H 	H 	0.23100 0.68010 0.31400 0.11600
H 	H 	0.95630 0.77000 0.36060 0.06700
H 	H 	0.91380 0.73780 0.32490 0.06400
H 	H 	0.93060 0.65170 0.22010 0.06600
H 	H 	0.98150 0.62510 0.19240 0.06500
H 	H 	0.84540 0.72280 0.23200 0.11900
H 	H 	0.81390 0.67960 0.26010 0.01000
H 	H 	0.84190 0.64100 0.29690 0.11500
H 	H 	0.48400 0.13560 0.92490 0.04100
H 	H 	0.46180 0.23350 0.91920 0.05200
H 	H 	0.49660 0.18840 0.83540 0.06300
H 	H 	0.43720 0.35090 0.66600 0.06000
H 	H 	0.44800 0.44060 0.61560 0.03900
H 	H 	0.45980 0.43650 0.71820 0.04400
H 	H 	0.39330 0.40700 0.73560 0.06900
H 	H 	0.35490 0.38170 0.78010 0.07200
H 	H 	0.36720 0.28490 0.87070 0.05900
H 	H 	0.40950 0.24370 0.89390 0.07100
H 	H 	0.30710 0.38500 0.88620 0.09500
H 	H 	0.26000 0.36080 0.85740 0.00700
H 	H 	0.26900 0.31990 0.81400 0.11600
H 	H 	0.54370 0.23000 0.86060 0.06700
H 	H 	0.58620 0.26220 0.82490 0.06400
H 	H 	0.56940 0.34830 0.72010 0.06600
H 	H 	0.51850 0.37490 0.69240 0.06500
H 	H 	0.65460 0.27720 0.73200 0.11900
H 	H 	0.68610 0.32040 0.76010 0.01000
H 	H 	0.65810 0.35900 0.79690 0.11500
H 	H 	0.98400 0.36440 0.07510 0.04100
H 	H 	0.96180 0.26650 0.08080 0.05200
H 	H 	0.99660 0.31160 0.16460 0.06300
H 	H 	0.93720 0.14910 0.33400 0.06000
H 	H 	0.94800 0.05940 0.38440 0.03900
H 	H 	0.95980 0.06350 0.28180 0.04400
H 	H 	0.89330 0.09300 0.26440 0.06900
H 	H 	0.85490 0.11830 0.21990 0.07200
H 	H 	0.86720 0.21510 0.12930 0.05900
H 	H 	0.90950 0.25630 0.10610 0.07100
H 	H 	0.80710 0.11500 0.11380 0.09500
H 	H 	0.76000 0.13920 0.14260 0.00700
H 	H 	0.76900 0.18010 0.18600 0.11600
H 	H 	0.04370 0.27000 0.13940 0.06700
H 	H 	0.08620 0.23780 0.17510 0.06400
H 	H 	0.06940 0.15170 0.27990 0.06600
H 	H 	0.01850 0.12510 0.30760 0.06500
H 	H 	0.15460 0.22280 0.26800 0.11900
H 	H 	0.18610 0.17960 0.23990 0.01000
H 	H 	0.15810 0.14100 0.20310 0.11500
H 	H 	0.51600 0.63560 0.57510 0.04100
H 	H 	0.53820 0.73350 0.58080 0.05200
H 	H 	0.50340 0.68840 0.66460 0.06300
H 	H 	0.56280 0.85090 0.83400 0.06000
H 	H 	0.55200 0.94060 0.88440 0.03900
H 	H 	0.54020 0.93650 0.78180 0.04400
H 	H 	0.60670 0.90700 0.76440 0.06900
H 	H 	0.64510 0.88170 0.71990 0.07200
H 	H 	0.63280 0.78490 0.62930 0.05900
H 	H 	0.59050 0.74370 0.60610 0.07100
H 	H 	0.69290 0.88500 0.61380 0.09500
H 	H 	0.74000 0.86080 0.64260 0.00700
H 	H 	0.73100 0.81990 0.68600 0.11600
H 	H 	0.45630 0.73000 0.63940 0.06700
H 	H 	0.41380 0.76220 0.67510 0.06400
H 	H 	0.43060 0.84830 0.77990 0.06600
H 	H 	0.48150 0.87490 0.80760 0.06500
H 	H 	0.34540 0.77720 0.76800 0.11900
H 	H 	0.31390 0.82040 0.73990 0.01000
H 	H 	0.34190 0.85900 0.70310 0.11500
H 	H 	0.42490 0.01600 0.86440 0.04100
H 	H 	0.41920 0.03820 0.76650 0.05200
H 	H 	0.33540 0.00340 0.81160 0.06300
H 	H 	0.16600 0.06280 0.64910 0.06000
H 	H 	0.11560 0.05200 0.55940 0.03900
H 	H 	0.21820 0.04020 0.56350 0.04400
H 	H 	0.23560 0.10670 0.59300 0.06900
H 	H 	0.28010 0.14510 0.61830 0.07200
H 	H 	0.37070 0.13280 0.71510 0.05900
H 	H 	0.39390 0.09050 0.75630 0.07100
H 	H 	0.38620 0.19290 0.61500 0.09500
H 	H 	0.35740 0.24000 0.63920 0.00700
H 	H 	0.31400 0.23100 0.68010 0.11600
H 	H 	0.36060 0.95630 0.77000 0.06700
H 	H 	0.32490 0.91380 0.73780 0.06400
H 	H 	0.22010 0.93060 0.65170 0.06600
H 	H 	0.19240 0.98150 0.62510 0.06500
H 	H 	0.23200 0.84540 0.72280 0.11900
H 	H 	0.26010 0.81390 0.67960 0.01000
H 	H 	0.29690 0.84190 0.64100 0.11500
H 	H 	0.92490 0.48400 0.13560 0.04100
H 	H 	0.91920 0.46180 0.23350 0.05200
H 	H 	0.83540 0.49660 0.18840 0.06300
H 	H 	0.66600 0.43720 0.35090 0.06000
H 	H 	0.61560 0.44800 0.44060 0.03900
H 	H 	0.71820 0.45980 0.43650 0.04400
H 	H 	0.73560 0.39330 0.40700 0.06900
H 	H 	0.78010 0.35490 0.38170 0.07200
H 	H 	0.87070 0.36720 0.28490 0.05900
H 	H 	0.89390 0.40950 0.24370 0.07100
H 	H 	0.88620 0.30710 0.38500 0.09500
H 	H 	0.85740 0.26000 0.36080 0.00700
H 	H 	0.81400 0.26900 0.31990 0.11600
H 	H 	0.86060 0.54370 0.23000 0.06700
H 	H 	0.82490 0.58620 0.26220 0.06400
H 	H 	0.72010 0.56940 0.34830 0.06600
H 	H 	0.69240 0.51850 0.37490 0.06500
H 	H 	0.73200 0.65460 0.27720 0.11900
H 	H 	0.76010 0.68610 0.32040 0.01000
H 	H 	0.79690 0.65810 0.35900 0.11500
H 	H 	0.07510 0.98400 0.36440 0.04100
H 	H 	0.08080 0.96180 0.26650 0.05200
H 	H 	0.16460 0.99660 0.31160 0.06300
H 	H 	0.33400 0.93720 0.14910 0.06000
H 	H 	0.38440 0.94800 0.05940 0.03900
H 	H 	0.28180 0.95980 0.06350 0.04400
H 	H 	0.26440 0.89330 0.09300 0.06900
H 	H 	0.21990 0.85490 0.11830 0.07200
H 	H 	0.12930 0.86720 0.21510 0.05900
H 	H 	0.10610 0.90950 0.25630 0.07100
H 	H 	0.11380 0.80710 0.11500 0.09500
H 	H 	0.14260 0.76000 0.13920 0.00700
H 	H 	0.18600 0.76900 0.18010 0.11600
H 	H 	0.13940 0.04370 0.27000 0.06700
H 	H 	0.17510 0.08620 0.23780 0.06400
H 	H 	0.27990 0.06940 0.15170 0.06600
H 	H 	0.30760 0.01850 0.12510 0.06500
H 	H 	0.26800 0.15460 0.22280 0.11900
H 	H 	0.23990 0.18610 0.17960 0.01000
H 	H 	0.20310 0.15810 0.14100 0.11500
H 	H 	0.57510 0.51600 0.63560 0.04100
H 	H 	0.58080 0.53820 0.73350 0.05200
H 	H 	0.66460 0.50340 0.68840 0.06300
H 	H 	0.83400 0.56280 0.85090 0.06000
H 	H 	0.88440 0.55200 0.94060 0.03900
H 	H 	0.78180 0.54020 0.93650 0.04400
H 	H 	0.76440 0.60670 0.90700 0.06900
H 	H 	0.71990 0.64510 0.88170 0.07200
H 	H 	0.62930 0.63280 0.78490 0.05900
H 	H 	0.60610 0.59050 0.74370 0.07100
H 	H 	0.61380 0.69290 0.88500 0.09500
H 	H 	0.64260 0.74000 0.86080 0.00700
H 	H 	0.68600 0.73100 0.81990 0.11600
H 	H 	0.63940 0.45630 0.73000 0.06700
H 	H 	0.67510 0.41380 0.76220 0.06400
H 	H 	0.77990 0.43060 0.84830 0.06600
H 	H 	0.80760 0.48150 0.87490 0.06500
H 	H 	0.76800 0.34540 0.77720 0.11900
H 	H 	0.73990 0.31390 0.82040 0.01000
H 	H 	0.70310 0.34190 0.85900 0.11500
H 	H 	0.86440 0.42490 0.01600 0.04100
H 	H 	0.76650 0.41920 0.03820 0.05200
H 	H 	0.81160 0.33540 0.00340 0.06300
H 	H 	0.64910 0.16600 0.06280 0.06000
H 	H 	0.55940 0.11560 0.05200 0.03900
H 	H 	0.56350 0.21820 0.04020 0.04400
H 	H 	0.59300 0.23560 0.10670 0.06900
H 	H 	0.61830 0.28010 0.14510 0.07200
H 	H 	0.71510 0.37070 0.13280 0.05900
H 	H 	0.75630 0.39390 0.09050 0.07100
H 	H 	0.61500 0.38620 0.19290 0.09500
H 	H 	0.63920 0.35740 0.24000 0.00700
H 	H 	0.68010 0.31400 0.23100 0.11600
H 	H 	0.77000 0.36060 0.95630 0.06700
H 	H 	0.73780 0.32490 0.91380 0.06400
H 	H 	0.65170 0.22010 0.93060 0.06600
H 	H 	0.62510 0.19240 0.98150 0.06500
H 	H 	0.72280 0.23200 0.84540 0.11900
H 	H 	0.67960 0.26010 0.81390 0.01000
H 	H 	0.64100 0.29690 0.84190 0.11500
H 	H 	0.13560 0.92490 0.48400 0.04100
H 	H 	0.23350 0.91920 0.46180 0.05200
H 	H 	0.18840 0.83540 0.49660 0.06300
H 	H 	0.35090 0.66600 0.43720 0.06000
H 	H 	0.44060 0.61560 0.44800 0.03900
H 	H 	0.43650 0.71820 0.45980 0.04400
H 	H 	0.40700 0.73560 0.39330 0.06900
H 	H 	0.38170 0.78010 0.35490 0.07200
H 	H 	0.28490 0.87070 0.36720 0.05900
H 	H 	0.24370 0.89390 0.40950 0.07100
H 	H 	0.38500 0.88620 0.30710 0.09500
H 	H 	0.36080 0.85740 0.26000 0.00700
H 	H 	0.31990 0.81400 0.26900 0.11600
H 	H 	0.23000 0.86060 0.54370 0.06700
H 	H 	0.26220 0.82490 0.58620 0.06400
H 	H 	0.34830 0.72010 0.56940 0.06600
H 	H 	0.37490 0.69240 0.51850 0.06500
H 	H 	0.27720 0.73200 0.65460 0.11900
H 	H 	0.32040 0.76010 0.68610 0.01000
H 	H 	0.35900 0.79690 0.65810 0.11500
H 	H 	0.36440 0.07510 0.98400 0.04100
H 	H 	0.26650 0.08080 0.96180 0.05200
H 	H 	0.31160 0.16460 0.99660 0.06300
H 	H 	0.14910 0.33400 0.93720 0.06000
H 	H 	0.05940 0.38440 0.94800 0.03900
H 	H 	0.06350 0.28180 0.95980 0.04400
H 	H 	0.09300 0.26440 0.89330 0.06900
H 	H 	0.11830 0.21990 0.85490 0.07200
H 	H 	0.21510 0.12930 0.86720 0.05900
H 	H 	0.25630 0.10610 0.90950 0.07100
H 	H 	0.11500 0.11380 0.80710 0.09500
H 	H 	0.13920 0.14260 0.76000 0.00700
H 	H 	0.18010 0.18600 0.76900 0.11600
H 	H 	0.27000 0.13940 0.04370 0.06700
H 	H 	0.23780 0.17510 0.08620 0.06400
H 	H 	0.15170 0.27990 0.06940 0.06600
H 	H 	0.12510 0.30760 0.01850 0.06500
H 	H 	0.22280 0.26800 0.15460 0.11900
H 	H 	0.17960 0.23990 0.18610 0.01000
H 	H 	0.14100 0.20310 0.15810 0.11500
H 	H 	0.63560 0.57510 0.51600 0.04100
H 	H 	0.73350 0.58080 0.53820 0.05200
H 	H 	0.68840 0.66460 0.50340 0.06300
H 	H 	0.85090 0.83400 0.56280 0.06000
H 	H 	0.94060 0.88440 0.55200 0.03900
H 	H 	0.93650 0.78180 0.54020 0.04400
H 	H 	0.90700 0.76440 0.60670 0.06900
H 	H 	0.88170 0.71990 0.64510 0.07200
H 	H 	0.78490 0.62930 0.63280 0.05900
H 	H 	0.74370 0.60610 0.59050 0.07100
H 	H 	0.88500 0.61380 0.69290 0.09500
H 	H 	0.86080 0.64260 0.74000 0.00700
H 	H 	0.81990 0.68600 0.73100 0.11600
H 	H 	0.73000 0.63940 0.45630 0.06700
H 	H 	0.76220 0.67510 0.41380 0.06400
H 	H 	0.84830 0.77990 0.43060 0.06600
H 	H 	0.87490 0.80760 0.48150 0.06500
H 	H 	0.77720 0.76800 0.34540 0.11900
H 	H 	0.82040 0.73990 0.31390 0.01000
H 	H 	0.85900 0.70310 0.34190 0.11500
C 	C 	0.96150 0.18290 0.53480 0.39100
C 	C 	0.00630 0.12480 0.64070 0.36400
C 	C 	0.99100 0.15490 0.62480 -0.08800
C 	C 	0.98140 0.15590 0.58840 0.03600
C 	C 	0.96960 0.18340 0.57350 -0.09400
C 	C 	0.96820 0.21300 0.59260 -0.03700
C 	C 	0.97510 0.21590 0.62670 0.04400
C 	C 	0.98850 0.18680 0.64160 -0.03900
C 	C 	0.95720 0.48180 0.83130 0.42100
C 	C 	0.93750 0.37410 0.89880 0.33900
C 	C 	0.94220 0.37490 0.83400 -0.03900
C 	C 	0.94150 0.39300 0.86490 -0.07900
C 	C 	0.94720 0.42780 0.86360 0.04200
C 	C 	0.95180 0.44450 0.83270 -0.12100
C 	C 	0.95460 0.42520 0.80280 -0.02400
C 	C 	0.95010 0.39140 0.80290 0.03700
C 	C 	0.95580 0.36920 0.77020 -0.11800
C 	C 	0.93170 0.37300 0.74460 0.10400
C 	C 	0.89920 0.38960 0.74820 -0.08600
C 	C 	0.87830 0.37570 0.72400 -0.04600
C 	C 	0.89770 0.35010 0.70560 0.07300
C 	C 	0.88460 0.32940 0.67980 -0.03300
C 	C 	0.90490 0.30640 0.66190 0.05800
C 	C 	0.89060 0.28380 0.63630 -0.03200
C 	C 	0.91320 0.26090 0.62320 -0.09500
C 	C 	0.94420 0.26900 0.64160 0.10900
C 	C 	0.84940 0.33420 0.66570 -0.08200
C 	C 	0.84410 0.35850 0.64000 0.15900
C 	C 	0.81070 0.36840 0.63140 -0.16800
C 	C 	0.78280 0.35400 0.64850 0.09000
C 	C 	0.78810 0.32970 0.67430 -0.16900
C 	C 	0.82150 0.31980 0.68290 0.16600
C 	C 	0.97280 0.24860 0.64770 -0.11900
C 	C 	0.00370 0.26080 0.66180 0.08800
C 	C 	0.03830 0.24800 0.65520 -0.07300
C 	C 	0.06190 0.26510 0.67450 -0.04800
C 	C 	0.04060 0.28900 0.69410 0.08200
C 	C 	0.05390 0.31090 0.71990 -0.03400
C 	C 	0.03400 0.33200 0.74050 0.08400
C 	C 	0.04640 0.34800 0.77160 -0.05400
C 	C 	0.01860 0.36250 0.78650 -0.07700
C 	C 	0.98910 0.35600 0.76500 0.08800
C 	C 	0.14330 0.29290 0.75300 -0.17800
C 	C 	0.16190 0.31850 0.73640 0.09200
C 	C 	0.14530 0.34150 0.71450 -0.17600
C 	C 	0.11000 0.33880 0.70920 0.15500
C 	C 	0.09130 0.31320 0.72590 -0.08200
C 	C 	0.10790 0.29020 0.74780 0.16400
C 	C 	0.53850 0.81710 0.03480 0.39100
C 	C 	0.49370 0.87520 0.14070 0.36400
C 	C 	0.50900 0.84510 0.12480 -0.08800
C 	C 	0.51860 0.84410 0.08840 0.03600
C 	C 	0.53040 0.81660 0.07350 -0.09400
C 	C 	0.53180 0.78700 0.09260 -0.03700
C 	C 	0.52490 0.78410 0.12670 0.04400
C 	C 	0.51150 0.81320 0.14160 -0.03900
C 	C 	0.54280 0.51820 0.33130 0.42100
C 	C 	0.56250 0.62590 0.39880 0.33900
C 	C 	0.55780 0.62510 0.33400 -0.03900
C 	C 	0.55850 0.60700 0.36490 -0.07900
C 	C 	0.55280 0.57220 0.36360 0.04200
C 	C 	0.54820 0.55550 0.33270 -0.12100
C 	C 	0.54540 0.57480 0.30280 -0.02400
C 	C 	0.54990 0.60860 0.30290 0.03700
C 	C 	0.54420 0.63080 0.27020 -0.11800
C 	C 	0.56830 0.62700 0.24460 0.10400
C 	C 	0.60080 0.61040 0.24820 -0.08600
C 	C 	0.62170 0.62430 0.22400 -0.04600
C 	C 	0.60230 0.64990 0.20560 0.07300
C 	C 	0.61540 0.67060 0.17980 -0.03300
C 	C 	0.59510 0.69360 0.16190 0.05800
C 	C 	0.60940 0.71620 0.13630 -0.03200
C 	C 	0.58680 0.73910 0.12320 -0.09500
C 	C 	0.55580 0.73100 0.14160 0.10900
C 	C 	0.65060 0.66580 0.16570 -0.08200
C 	C 	0.65590 0.64150 0.14000 0.15900
C 	C 	0.68930 0.63160 0.13140 -0.16800
C 	C 	0.71720 0.64600 0.14850 0.09000
C 	C 	0.71190 0.67030 0.17430 -0.16900
C 	C 	0.67850 0.68020 0.18290 0.16600
C 	C 	0.52720 0.75140 0.14770 -0.11900
C 	C 	0.49630 0.73920 0.16180 0.08800
C 	C 	0.46170 0.75200 0.15520 -0.07300
C 	C 	0.43810 0.73490 0.17450 -0.04800
C 	C 	0.45940 0.71100 0.19410 0.08200
C 	C 	0.44610 0.68910 0.21990 -0.03400
C 	C 	0.46600 0.66800 0.24050 0.08400
C 	C 	0.45360 0.65200 0.27160 -0.05400
C 	C 	0.48140 0.63750 0.28650 -0.07700
C 	C 	0.51090 0.64400 0.26500 0.08800
C 	C 	0.35670 0.70710 0.25300 -0.17800
C 	C 	0.33810 0.68150 0.23640 0.09200
C 	C 	0.35470 0.65850 0.21450 -0.17600
C 	C 	0.39000 0.66120 0.20920 0.15500
C 	C 	0.40870 0.68680 0.22590 -0.08200
C 	C 	0.39210 0.70980 0.24780 0.16400
C 	C 	0.03850 0.68290 0.96520 0.39100
C 	C 	0.99370 0.62480 0.85930 0.36400
C 	C 	0.00900 0.65490 0.87520 -0.08800
C 	C 	0.01860 0.65590 0.91160 0.03600
C 	C 	0.03040 0.68340 0.92650 -0.09400
C 	C 	0.03180 0.71300 0.90740 -0.03700
C 	C 	0.02490 0.71590 0.87330 0.04400
C 	C 	0.01150 0.68680 0.85840 -0.03900
C 	C 	0.04280 0.98180 0.66870 0.42100
C 	C 	0.06250 0.87410 0.60120 0.33900
C 	C 	0.05780 0.87490 0.66600 -0.03900
C 	C 	0.05850 0.89300 0.63510 -0.07900
C 	C 	0.05280 0.92780 0.63640 0.04200
C 	C 	0.04820 0.94450 0.66730 -0.12100
C 	C 	0.04540 0.92520 0.69720 -0.02400
C 	C 	0.04990 0.89140 0.69710 0.03700
C 	C 	0.04420 0.86920 0.72980 -0.11800
C 	C 	0.06830 0.87300 0.75540 0.10400
C 	C 	0.10080 0.88960 0.75180 -0.08600
C 	C 	0.12170 0.87570 0.77600 -0.04600
C 	C 	0.10230 0.85010 0.79440 0.07300
C 	C 	0.11540 0.82940 0.82020 -0.03300
C 	C 	0.09510 0.80640 0.83810 0.05800
C 	C 	0.10940 0.78380 0.86370 -0.03200
C 	C 	0.08680 0.76090 0.87680 -0.09500
C 	C 	0.05580 0.76900 0.85840 0.10900
C 	C 	0.15060 0.83420 0.83430 -0.08200
C 	C 	0.15590 0.85850 0.86000 0.15900
C 	C 	0.18930 0.86840 0.86860 -0.16800
C 	C 	0.21720 0.85400 0.85150 0.09000
C 	C 	0.21190 0.82970 0.82570 -0.16900
C 	C 	0.17850 0.81980 0.81710 0.16600
C 	C 	0.02720 0.74860 0.85230 -0.11900
C 	C 	0.99630 0.76080 0.83820 0.08800
C 	C 	0.96170 0.74800 0.84480 -0.07300
C 	C 	0.93810 0.76510 0.82550 -0.04800
C 	C 	0.95940 0.78900 0.80590 0.08200
C 	C 	0.94610 0.81090 0.78010 -0.03400
C 	C 	0.96600 0.83200 0.75950 0.08400
C 	C 	0.95360 0.84800 0.72840 -0.05400
C 	C 	0.98140 0.86250 0.71350 -0.07700
C 	C 	0.01090 0.85600 0.73500 0.08800
C 	C 	0.85670 0.79290 0.74700 -0.17800
C 	C 	0.83810 0.81850 0.76360 0.09200
C 	C 	0.85470 0.84150 0.78550 -0.17600
C 	C 	0.89000 0.83880 0.79080 0.15500
C 	C 	0.90870 0.81320 0.77410 -0.08200
C 	C 	0.89210 0.79020 0.75220 0.16400
C 	C 	0.46150 0.31710 0.46520 0.39100
C 	C 	0.50630 0.37520 0.35930 0.36400
C 	C 	0.49100 0.34510 0.37520 -0.08800
C 	C 	0.48140 0.34410 0.41160 0.03600
C 	C 	0.46960 0.31660 0.42650 -0.09400
C 	C 	0.46820 0.28700 0.40740 -0.03700
C 	C 	0.47510 0.28410 0.37330 0.04400
C 	C 	0.48850 0.31320 0.35840 -0.03900
C 	C 	0.45720 0.01820 0.16870 0.42100
C 	C 	0.43750 0.12590 0.10120 0.33900
C 	C 	0.44220 0.12510 0.16600 -0.03900
C 	C 	0.44150 0.10700 0.13510 -0.07900
C 	C 	0.44720 0.07220 0.13640 0.04200
C 	C 	0.45180 0.05550 0.16730 -0.12100
C 	C 	0.45460 0.07480 0.19720 -0.02400
C 	C 	0.45010 0.10860 0.19710 0.03700
C 	C 	0.45580 0.13080 0.22980 -0.11800
C 	C 	0.43170 0.12700 0.25540 0.10400
C 	C 	0.39920 0.11040 0.25180 -0.08600
C 	C 	0.37830 0.12430 0.27600 -0.04600
C 	C 	0.39770 0.14990 0.29440 0.07300
C 	C 	0.38460 0.17060 0.32020 -0.03300
C 	C 	0.40490 0.19360 0.33810 0.05800
C 	C 	0.39060 0.21620 0.36370 -0.03200
C 	C 	0.41320 0.23910 0.37680 -0.09500
C 	C 	0.44420 0.23100 0.35840 0.10900
C 	C 	0.34940 0.16580 0.33430 -0.08200
C 	C 	0.34410 0.14150 0.36000 0.15900
C 	C 	0.31070 0.13160 0.36860 -0.16800
C 	C 	0.28280 0.14600 0.35150 0.09000
C 	C 	0.28810 0.17030 0.32570 -0.16900
C 	C 	0.32150 0.18020 0.31710 0.16600
C 	C 	0.47280 0.25140 0.35230 -0.11900
C 	C 	0.50370 0.23920 0.33820 0.08800
C 	C 	0.53830 0.25200 0.34480 -0.07300
C 	C 	0.56190 0.23490 0.32550 -0.04800
C 	C 	0.54060 0.21100 0.30590 0.08200
C 	C 	0.55390 0.18910 0.28010 -0.03400
C 	C 	0.53400 0.16800 0.25950 0.08400
C 	C 	0.54640 0.15200 0.22840 -0.05400
C 	C 	0.51860 0.13750 0.21350 -0.07700
C 	C 	0.48910 0.14400 0.23500 0.08800
C 	C 	0.64330 0.20710 0.24700 -0.17800
C 	C 	0.66190 0.18150 0.26360 0.09200
C 	C 	0.64530 0.15850 0.28550 -0.17600
C 	C 	0.61000 0.16120 0.29080 0.15500
C 	C 	0.59130 0.18680 0.27410 -0.08200
C 	C 	0.60790 0.20980 0.25220 0.16400
C 	C 	0.53480 0.96150 0.18290 0.39100
C 	C 	0.64070 0.00630 0.12480 0.36400
C 	C 	0.62480 0.99100 0.15490 -0.08800
C 	C 	0.58840 0.98140 0.15590 0.03600
C 	C 	0.57350 0.96960 0.18340 -0.09400
C 	C 	0.59260 0.96820 0.21300 -0.03700
C 	C 	0.62670 0.97510 0.21590 0.04400
C 	C 	0.64160 0.98850 0.18680 -0.03900
C 	C 	0.83130 0.95720 0.48180 0.42100
C 	C 	0.89880 0.93750 0.37410 0.33900
C 	C 	0.83400 0.94220 0.37490 -0.03900
C 	C 	0.86490 0.94150 0.39300 -0.07900
C 	C 	0.86360 0.94720 0.42780 0.04200
C 	C 	0.83270 0.95180 0.44450 -0.12100
C 	C 	0.80280 0.95460 0.42520 -0.02400
C 	C 	0.80290 0.95010 0.39140 0.03700
C 	C 	0.77020 0.95580 0.36920 -0.11800
C 	C 	0.74460 0.93170 0.37300 0.10400
C 	C 	0.74820 0.89920 0.38960 -0.08600
C 	C 	0.72400 0.87830 0.37570 -0.04600
C 	C 	0.70560 0.89770 0.35010 0.07300
C 	C 	0.67980 0.88460 0.32940 -0.03300
C 	C 	0.66190 0.90490 0.30640 0.05800
C 	C 	0.63630 0.89060 0.28380 -0.03200
C 	C 	0.62320 0.91320 0.26090 -0.09500
C 	C 	0.64160 0.94420 0.26900 0.10900
C 	C 	0.66570 0.84940 0.33420 -0.08200
C 	C 	0.64000 0.84410 0.35850 0.15900
C 	C 	0.63140 0.81070 0.36840 -0.16800
C 	C 	0.64850 0.78280 0.35400 0.09000
C 	C 	0.67430 0.78810 0.32970 -0.16900
C 	C 	0.68290 0.82150 0.31980 0.16600
C 	C 	0.64770 0.97280 0.24860 -0.11900
C 	C 	0.66180 0.00370 0.26080 0.08800
C 	C 	0.65520 0.03830 0.24800 -0.07300
C 	C 	0.67450 0.06190 0.26510 -0.04800
C 	C 	0.69410 0.04060 0.28900 0.08200
C 	C 	0.71990 0.05390 0.31090 -0.03400
C 	C 	0.74050 0.03400 0.33200 0.08400
C 	C 	0.77160 0.04640 0.34800 -0.05400
C 	C 	0.78650 0.01860 0.36250 -0.07700
C 	C 	0.76500 0.98910 0.35600 0.08800
C 	C 	0.75300 0.14330 0.29290 -0.17800
C 	C 	0.73640 0.16190 0.31850 0.09200
C 	C 	0.71450 0.14530 0.34150 -0.17600
C 	C 	0.70920 0.11000 0.33880 0.15500
C 	C 	0.72590 0.09130 0.31320 -0.08200
C 	C 	0.74780 0.10790 0.29020 0.16400
C 	C 	0.03480 0.53850 0.81710 0.39100
C 	C 	0.14070 0.49370 0.87520 0.36400
C 	C 	0.12480 0.50900 0.84510 -0.08800
C 	C 	0.08840 0.51860 0.84410 0.03600
C 	C 	0.07350 0.53040 0.81660 -0.09400
C 	C 	0.09260 0.53180 0.78700 -0.03700
C 	C 	0.12670 0.52490 0.78410 0.04400
C 	C 	0.14160 0.51150 0.81320 -0.03900
C 	C 	0.33130 0.54280 0.51820 0.42100
C 	C 	0.39880 0.56250 0.62590 0.33900
C 	C 	0.33400 0.55780 0.62510 -0.03900
C 	C 	0.36490 0.55850 0.60700 -0.07900
C 	C 	0.36360 0.55280 0.57220 0.04200
C 	C 	0.33270 0.54820 0.55550 -0.12100
C 	C 	0.30280 0.54540 0.57480 -0.02400
C 	C 	0.30290 0.54990 0.60860 0.03700
C 	C 	0.27020 0.54420 0.63080 -0.11800
C 	C 	0.24460 0.56830 0.62700 0.10400
C 	C 	0.24820 0.60080 0.61040 -0.08600
C 	C 	0.22400 0.62170 0.62430 -0.04600
C 	C 	0.20560 0.60230 0.64990 0.07300
C 	C 	0.17980 0.61540 0.67060 -0.03300
C 	C 	0.16190 0.59510 0.69360 0.05800
C 	C 	0.13630 0.60940 0.71620 -0.03200
C 	C 	0.12320 0.58680 0.73910 -0.09500
C 	C 	0.14160 0.55580 0.73100 0.10900
C 	C 	0.16570 0.65060 0.66580 -0.08200
C 	C 	0.14000 0.65590 0.64150 0.15900
C 	C 	0.13140 0.68930 0.63160 -0.16800
C 	C 	0.14850 0.71720 0.64600 0.09000
C 	C 	0.17430 0.71190 0.67030 -0.16900
C 	C 	0.18290 0.67850 0.68020 0.16600
C 	C 	0.14770 0.52720 0.75140 -0.11900
C 	C 	0.16180 0.49630 0.73920 0.08800
C 	C 	0.15520 0.46170 0.75200 -0.07300
C 	C 	0.17450 0.43810 0.73490 -0.04800
C 	C 	0.19410 0.45940 0.71100 0.08200
C 	C 	0.21990 0.44610 0.68910 -0.03400
C 	C 	0.24050 0.46600 0.66800 0.08400
C 	C 	0.27160 0.45360 0.65200 -0.05400
C 	C 	0.28650 0.48140 0.63750 -0.07700
C 	C 	0.26500 0.51090 0.64400 0.08800
C 	C 	0.25300 0.35670 0.70710 -0.17800
C 	C 	0.23640 0.33810 0.68150 0.09200
C 	C 	0.21450 0.35470 0.65850 -0.17600
C 	C 	0.20920 0.39000 0.66120 0.15500
C 	C 	0.22590 0.40870 0.68680 -0.08200
C 	C 	0.24780 0.39210 0.70980 0.16400
C 	C 	0.96520 0.03850 0.68290 0.39100
C 	C 	0.85930 0.99370 0.62480 0.36400
C 	C 	0.87520 0.00900 0.65490 -0.08800
C 	C 	0.91160 0.01860 0.65590 0.03600
C 	C 	0.92650 0.03040 0.68340 -0.09400
C 	C 	0.90740 0.03180 0.71300 -0.03700
C 	C 	0.87330 0.02490 0.71590 0.04400
C 	C 	0.85840 0.01150 0.68680 -0.03900
C 	C 	0.66870 0.04280 0.98180 0.42100
C 	C 	0.60120 0.06250 0.87410 0.33900
C 	C 	0.66600 0.05780 0.87490 -0.03900
C 	C 	0.63510 0.05850 0.89300 -0.07900
C 	C 	0.63640 0.05280 0.92780 0.04200
C 	C 	0.66730 0.04820 0.94450 -0.12100
C 	C 	0.69720 0.04540 0.92520 -0.02400
C 	C 	0.69710 0.04990 0.89140 0.03700
C 	C 	0.72980 0.04420 0.86920 -0.11800
C 	C 	0.75540 0.06830 0.87300 0.10400
C 	C 	0.75180 0.10080 0.88960 -0.08600
C 	C 	0.77600 0.12170 0.87570 -0.04600
C 	C 	0.79440 0.10230 0.85010 0.07300
C 	C 	0.82020 0.11540 0.82940 -0.03300
C 	C 	0.83810 0.09510 0.80640 0.05800
C 	C 	0.86370 0.10940 0.78380 -0.03200
C 	C 	0.87680 0.08680 0.76090 -0.09500
C 	C 	0.85840 0.05580 0.76900 0.10900
C 	C 	0.83430 0.15060 0.83420 -0.08200
C 	C 	0.86000 0.15590 0.85850 0.15900
C 	C 	0.86860 0.18930 0.86840 -0.16800
C 	C 	0.85150 0.21720 0.85400 0.09000
C 	C 	0.82570 0.21190 0.82970 -0.16900
C 	C 	0.81710 0.17850 0.81980 0.16600
C 	C 	0.85230 0.02720 0.74860 -0.11900
C 	C 	0.83820 0.99630 0.76080 0.08800
C 	C 	0.84480 0.96170 0.74800 -0.07300
C 	C 	0.82550 0.93810 0.76510 -0.04800
C 	C 	0.80590 0.95940 0.78900 0.08200
C 	C 	0.78010 0.94610 0.81090 -0.03400
C 	C 	0.75950 0.96600 0.83200 0.08400
C 	C 	0.72840 0.95360 0.84800 -0.05400
C 	C 	0.71350 0.98140 0.86250 -0.07700
C 	C 	0.73500 0.01090 0.85600 0.08800
C 	C 	0.74700 0.85670 0.79290 -0.17800
C 	C 	0.76360 0.83810 0.81850 0.09200
C 	C 	0.78550 0.85470 0.84150 -0.17600
C 	C 	0.79080 0.89000 0.83880 0.15500
C 	C 	0.77410 0.90870 0.81320 -0.08200
C 	C 	0.75220 0.89210 0.79020 0.16400
C 	C 	0.46520 0.46150 0.31710 0.39100
C 	C 	0.35930 0.50630 0.37520 0.36400
C 	C 	0.37520 0.49100 0.34510 -0.08800
C 	C 	0.41160 0.48140 0.34410 0.03600
C 	C 	0.42650 0.46960 0.31660 -0.09400
C 	C 	0.40740 0.46820 0.28700 -0.03700
C 	C 	0.37330 0.47510 0.28410 0.04400
C 	C 	0.35840 0.48850 0.31320 -0.03900
C 	C 	0.16870 0.45720 0.01820 0.42100
C 	C 	0.10120 0.43750 0.12590 0.33900
C 	C 	0.16600 0.44220 0.12510 -0.03900
C 	C 	0.13510 0.44150 0.10700 -0.07900
C 	C 	0.13640 0.44720 0.07220 0.04200
C 	C 	0.16730 0.45180 0.05550 -0.12100
C 	C 	0.19720 0.45460 0.07480 -0.02400
C 	C 	0.19710 0.45010 0.10860 0.03700
C 	C 	0.22980 0.45580 0.13080 -0.11800
C 	C 	0.25540 0.43170 0.12700 0.10400
C 	C 	0.25180 0.39920 0.11040 -0.08600
C 	C 	0.27600 0.37830 0.12430 -0.04600
C 	C 	0.29440 0.39770 0.14990 0.07300
C 	C 	0.32020 0.38460 0.17060 -0.03300
C 	C 	0.33810 0.40490 0.19360 0.05800
C 	C 	0.36370 0.39060 0.21620 -0.03200
C 	C 	0.37680 0.41320 0.23910 -0.09500
C 	C 	0.35840 0.44420 0.23100 0.10900
C 	C 	0.33430 0.34940 0.16580 -0.08200
C 	C 	0.36000 0.34410 0.14150 0.15900
C 	C 	0.36860 0.31070 0.13160 -0.16800
C 	C 	0.35150 0.28280 0.14600 0.09000
C 	C 	0.32570 0.28810 0.17030 -0.16900
C 	C 	0.31710 0.32150 0.18020 0.16600
C 	C 	0.35230 0.47280 0.25140 -0.11900
C 	C 	0.33820 0.50370 0.23920 0.08800
C 	C 	0.34480 0.53830 0.25200 -0.07300
C 	C 	0.32550 0.56190 0.23490 -0.04800
C 	C 	0.30590 0.54060 0.21100 0.08200
C 	C 	0.28010 0.55390 0.18910 -0.03400
C 	C 	0.25950 0.53400 0.16800 0.08400
C 	C 	0.22840 0.54640 0.15200 -0.05400
C 	C 	0.21350 0.51860 0.13750 -0.07700
C 	C 	0.23500 0.48910 0.14400 0.08800
C 	C 	0.24700 0.64330 0.20710 -0.17800
C 	C 	0.26360 0.66190 0.18150 0.09200
C 	C 	0.28550 0.64530 0.15850 -0.17600
C 	C 	0.29080 0.61000 0.16120 0.15500
C 	C 	0.27410 0.59130 0.18680 -0.08200
C 	C 	0.25220 0.60790 0.20980 0.16400
C 	C 	0.18290 0.53480 0.96150 0.39100
C 	C 	0.12480 0.64070 0.00630 0.36400
C 	C 	0.15490 0.62480 0.99100 -0.08800
C 	C 	0.15590 0.58840 0.98140 0.03600
C 	C 	0.18340 0.57350 0.96960 -0.09400
C 	C 	0.21300 0.59260 0.96820 -0.03700
C 	C 	0.21590 0.62670 0.97510 0.04400
C 	C 	0.18680 0.64160 0.98850 -0.03900
C 	C 	0.48180 0.83130 0.95720 0.42100
C 	C 	0.37410 0.89880 0.93750 0.33900
C 	C 	0.37490 0.83400 0.94220 -0.03900
C 	C 	0.39300 0.86490 0.94150 -0.07900
C 	C 	0.42780 0.86360 0.94720 0.04200
C 	C 	0.44450 0.83270 0.95180 -0.12100
C 	C 	0.42520 0.80280 0.95460 -0.02400
C 	C 	0.39140 0.80290 0.95010 0.03700
C 	C 	0.36920 0.77020 0.95580 -0.11800
C 	C 	0.37300 0.74460 0.93170 0.10400
C 	C 	0.38960 0.74820 0.89920 -0.08600
C 	C 	0.37570 0.72400 0.87830 -0.04600
C 	C 	0.35010 0.70560 0.89770 0.07300
C 	C 	0.32940 0.67980 0.88460 -0.03300
C 	C 	0.30640 0.66190 0.90490 0.05800
C 	C 	0.28380 0.63630 0.89060 -0.03200
C 	C 	0.26090 0.62320 0.91320 -0.09500
C 	C 	0.26900 0.64160 0.94420 0.10900
C 	C 	0.33420 0.66570 0.84940 -0.08200
C 	C 	0.35850 0.64000 0.84410 0.15900
C 	C 	0.36840 0.63140 0.81070 -0.16800
C 	C 	0.35400 0.64850 0.78280 0.09000
C 	C 	0.32970 0.67430 0.78810 -0.16900
C 	C 	0.31980 0.68290 0.82150 0.16600
C 	C 	0.24860 0.64770 0.97280 -0.11900
C 	C 	0.26080 0.66180 0.00370 0.08800
C 	C 	0.24800 0.65520 0.03830 -0.07300
C 	C 	0.26510 0.67450 0.06190 -0.04800
C 	C 	0.28900 0.69410 0.04060 0.08200
C 	C 	0.31090 0.71990 0.05390 -0.03400
C 	C 	0.33200 0.74050 0.03400 0.08400
C 	C 	0.34800 0.77160 0.04640 -0.05400
C 	C 	0.36250 0.78650 0.01860 -0.07700
C 	C 	0.35600 0.76500 0.98910 0.08800
C 	C 	0.29290 0.75300 0.14330 -0.17800
C 	C 	0.31850 0.73640 0.16190 0.09200
C 	C 	0.34150 0.71450 0.14530 -0.17600
C 	C 	0.33880 0.70920 0.11000 0.15500
C 	C 	0.31320 0.72590 0.09130 -0.08200
C 	C 	0.29020 0.74780 0.10790 0.16400
C 	C 	0.81710 0.03480 0.53850 0.39100
C 	C 	0.87520 0.14070 0.49370 0.36400
C 	C 	0.84510 0.12480 0.50900 -0.08800
C 	C 	0.84410 0.08840 0.51860 0.03600
C 	C 	0.81660 0.07350 0.53040 -0.09400
C 	C 	0.78700 0.09260 0.53180 -0.03700
C 	C 	0.78410 0.12670 0.52490 0.04400
C 	C 	0.81320 0.14160 0.51150 -0.03900
C 	C 	0.51820 0.33130 0.54280 0.42100
C 	C 	0.62590 0.39880 0.56250 0.33900
C 	C 	0.62510 0.33400 0.55780 -0.03900
C 	C 	0.60700 0.36490 0.55850 -0.07900
C 	C 	0.57220 0.36360 0.55280 0.04200
C 	C 	0.55550 0.33270 0.54820 -0.12100
C 	C 	0.57480 0.30280 0.54540 -0.02400
C 	C 	0.60860 0.30290 0.54990 0.03700
C 	C 	0.63080 0.27020 0.54420 -0.11800
C 	C 	0.62700 0.24460 0.56830 0.10400
C 	C 	0.61040 0.24820 0.60080 -0.08600
C 	C 	0.62430 0.22400 0.62170 -0.04600
C 	C 	0.64990 0.20560 0.60230 0.07300
C 	C 	0.67060 0.17980 0.61540 -0.03300
C 	C 	0.69360 0.16190 0.59510 0.05800
C 	C 	0.71620 0.13630 0.60940 -0.03200
C 	C 	0.73910 0.12320 0.58680 -0.09500
C 	C 	0.73100 0.14160 0.55580 0.10900
C 	C 	0.66580 0.16570 0.65060 -0.08200
C 	C 	0.64150 0.14000 0.65590 0.15900
C 	C 	0.63160 0.13140 0.68930 -0.16800
C 	C 	0.64600 0.14850 0.71720 0.09000
C 	C 	0.67030 0.17430 0.71190 -0.16900
C 	C 	0.68020 0.18290 0.67850 0.16600
C 	C 	0.75140 0.14770 0.52720 -0.11900
C 	C 	0.73920 0.16180 0.49630 0.08800
C 	C 	0.75200 0.15520 0.46170 -0.07300
C 	C 	0.73490 0.17450 0.43810 -0.04800
C 	C 	0.71100 0.19410 0.45940 0.08200
C 	C 	0.68910 0.21990 0.44610 -0.03400
C 	C 	0.66800 0.24050 0.46600 0.08400
C 	C 	0.65200 0.27160 0.45360 -0.05400
C 	C 	0.63750 0.28650 0.48140 -0.07700
C 	C 	0.64400 0.26500 0.51090 0.08800
C 	C 	0.70710 0.25300 0.35670 -0.17800
C 	C 	0.68150 0.23640 0.33810 0.09200
C 	C 	0.65850 0.21450 0.35470 -0.17600
C 	C 	0.66120 0.20920 0.39000 0.15500
C 	C 	0.68680 0.22590 0.40870 -0.08200
C 	C 	0.70980 0.24780 0.39210 0.16400
C 	C 	0.68290 0.96520 0.03850 0.39100
C 	C 	0.62480 0.85930 0.99370 0.36400
C 	C 	0.65490 0.87520 0.00900 -0.08800
C 	C 	0.65590 0.91160 0.01860 0.03600
C 	C 	0.68340 0.92650 0.03040 -0.09400
C 	C 	0.71300 0.90740 0.03180 -0.03700
C 	C 	0.71590 0.87330 0.02490 0.04400
C 	C 	0.68680 0.85840 0.01150 -0.03900
C 	C 	0.98180 0.66870 0.04280 0.42100
C 	C 	0.87410 0.60120 0.06250 0.33900
C 	C 	0.87490 0.66600 0.05780 -0.03900
C 	C 	0.89300 0.63510 0.05850 -0.07900
C 	C 	0.92780 0.63640 0.05280 0.04200
C 	C 	0.94450 0.66730 0.04820 -0.12100
C 	C 	0.92520 0.69720 0.04540 -0.02400
C 	C 	0.89140 0.69710 0.04990 0.03700
C 	C 	0.86920 0.72980 0.04420 -0.11800
C 	C 	0.87300 0.75540 0.06830 0.10400
C 	C 	0.88960 0.75180 0.10080 -0.08600
C 	C 	0.87570 0.77600 0.12170 -0.04600
C 	C 	0.85010 0.79440 0.10230 0.07300
C 	C 	0.82940 0.82020 0.11540 -0.03300
C 	C 	0.80640 0.83810 0.09510 0.05800
C 	C 	0.78380 0.86370 0.10940 -0.03200
C 	C 	0.76090 0.87680 0.08680 -0.09500
C 	C 	0.76900 0.85840 0.05580 0.10900
C 	C 	0.83420 0.83430 0.15060 -0.08200
C 	C 	0.85850 0.86000 0.15590 0.15900
C 	C 	0.86840 0.86860 0.18930 -0.16800
C 	C 	0.85400 0.85150 0.21720 0.09000
C 	C 	0.82970 0.82570 0.21190 -0.16900
C 	C 	0.81980 0.81710 0.17850 0.16600
C 	C 	0.74860 0.85230 0.02720 -0.11900
C 	C 	0.76080 0.83820 0.99630 0.08800
C 	C 	0.74800 0.84480 0.96170 -0.07300
C 	C 	0.76510 0.82550 0.93810 -0.04800
C 	C 	0.78900 0.80590 0.95940 0.08200
C 	C 	0.81090 0.78010 0.94610 -0.03400
C 	C 	0.83200 0.75950 0.96600 0.08400
C 	C 	0.84800 0.72840 0.95360 -0.05400
C 	C 	0.86250 0.71350 0.98140 -0.07700
C 	C 	0.85600 0.73500 0.01090 0.08800
C 	C 	0.79290 0.74700 0.85670 -0.17800
C 	C 	0.81850 0.76360 0.83810 0.09200
C 	C 	0.84150 0.78550 0.85470 -0.17600
C 	C 	0.83880 0.79080 0.89000 0.15500
C 	C 	0.81320 0.77410 0.90870 -0.08200
C 	C 	0.79020 0.75220 0.89210 0.16400
C 	C 	0.31710 0.46520 0.46150 0.39100
C 	C 	0.37520 0.35930 0.50630 0.36400
C 	C 	0.34510 0.37520 0.49100 -0.08800
C 	C 	0.34410 0.41160 0.48140 0.03600
C 	C 	0.31660 0.42650 0.46960 -0.09400
C 	C 	0.28700 0.40740 0.46820 -0.03700
C 	C 	0.28410 0.37330 0.47510 0.04400
C 	C 	0.31320 0.35840 0.48850 -0.03900
C 	C 	0.01820 0.16870 0.45720 0.42100
C 	C 	0.12590 0.10120 0.43750 0.33900
C 	C 	0.12510 0.16600 0.44220 -0.03900
C 	C 	0.10700 0.13510 0.44150 -0.07900
C 	C 	0.07220 0.13640 0.44720 0.04200
C 	C 	0.05550 0.16730 0.45180 -0.12100
C 	C 	0.07480 0.19720 0.45460 -0.02400
C 	C 	0.10860 0.19710 0.45010 0.03700
C 	C 	0.13080 0.22980 0.45580 -0.11800
C 	C 	0.12700 0.25540 0.43170 0.10400
C 	C 	0.11040 0.25180 0.39920 -0.08600
C 	C 	0.12430 0.27600 0.37830 -0.04600
C 	C 	0.14990 0.29440 0.39770 0.07300
C 	C 	0.17060 0.32020 0.38460 -0.03300
C 	C 	0.19360 0.33810 0.40490 0.05800
C 	C 	0.21620 0.36370 0.39060 -0.03200
C 	C 	0.23910 0.37680 0.41320 -0.09500
C 	C 	0.23100 0.35840 0.44420 0.10900
C 	C 	0.16580 0.33430 0.34940 -0.08200
C 	C 	0.14150 0.36000 0.34410 0.15900
C 	C 	0.13160 0.36860 0.31070 -0.16800
C 	C 	0.14600 0.35150 0.28280 0.09000
C 	C 	0.17030 0.32570 0.28810 -0.16900
C 	C 	0.18020 0.31710 0.32150 0.16600
C 	C 	0.25140 0.35230 0.47280 -0.11900
C 	C 	0.23920 0.33820 0.50370 0.08800
C 	C 	0.25200 0.34480 0.53830 -0.07300
C 	C 	0.23490 0.32550 0.56190 -0.04800
C 	C 	0.21100 0.30590 0.54060 0.08200
C 	C 	0.18910 0.28010 0.55390 -0.03400
C 	C 	0.16800 0.25950 0.53400 0.08400
C 	C 	0.15200 0.22840 0.54640 -0.05400
C 	C 	0.13750 0.21350 0.51860 -0.07700
C 	C 	0.14400 0.23500 0.48910 0.08800
C 	C 	0.20710 0.24700 0.64330 -0.17800
C 	C 	0.18150 0.26360 0.66190 0.09200
C 	C 	0.15850 0.28550 0.64530 -0.17600
C 	C 	0.16120 0.29080 0.61000 0.15500
C 	C 	0.18680 0.27410 0.59130 -0.08200
C 	C 	0.20980 0.25220 0.60790 0.16400
C 	C 	0.03850 0.81710 0.46520 0.39100
C 	C 	0.99370 0.87520 0.35930 0.36400
C 	C 	0.00900 0.84510 0.37520 -0.08800
C 	C 	0.01860 0.84410 0.41160 0.03600
C 	C 	0.03040 0.81660 0.42650 -0.09400
C 	C 	0.03180 0.78700 0.40740 -0.03700
C 	C 	0.02490 0.78410 0.37330 0.04400
C 	C 	0.01150 0.81320 0.35840 -0.03900
C 	C 	0.04280 0.51820 0.16870 0.42100
C 	C 	0.06250 0.62590 0.10120 0.33900
C 	C 	0.05780 0.62510 0.16600 -0.03900
C 	C 	0.05850 0.60700 0.13510 -0.07900
C 	C 	0.05280 0.57220 0.13640 0.04200
C 	C 	0.04820 0.55550 0.16730 -0.12100
C 	C 	0.04540 0.57480 0.19720 -0.02400
C 	C 	0.04990 0.60860 0.19710 0.03700
C 	C 	0.04420 0.63080 0.22980 -0.11800
C 	C 	0.06830 0.62700 0.25540 0.10400
C 	C 	0.10080 0.61040 0.25180 -0.08600
C 	C 	0.12170 0.62430 0.27600 -0.04600
C 	C 	0.10230 0.64990 0.29440 0.07300
C 	C 	0.11540 0.67060 0.32020 -0.03300
C 	C 	0.09510 0.69360 0.33810 0.05800
C 	C 	0.10940 0.71620 0.36370 -0.03200
C 	C 	0.08680 0.73910 0.37680 -0.09500
C 	C 	0.05580 0.73100 0.35840 0.10900
C 	C 	0.15060 0.66580 0.33430 -0.08200
C 	C 	0.15590 0.64150 0.36000 0.15900
C 	C 	0.18930 0.63160 0.36860 -0.16800
C 	C 	0.21720 0.64600 0.35150 0.09000
C 	C 	0.21190 0.67030 0.32570 -0.16900
C 	C 	0.17850 0.68020 0.31710 0.16600
C 	C 	0.02720 0.75140 0.35230 -0.11900
C 	C 	0.99630 0.73920 0.33820 0.08800
C 	C 	0.96170 0.75200 0.34480 -0.07300
C 	C 	0.93810 0.73490 0.32550 -0.04800
C 	C 	0.95940 0.71100 0.30590 0.08200
C 	C 	0.94610 0.68910 0.28010 -0.03400
C 	C 	0.96600 0.66800 0.25950 0.08400
C 	C 	0.95360 0.65200 0.22840 -0.05400
C 	C 	0.98140 0.63750 0.21350 -0.07700
C 	C 	0.01090 0.64400 0.23500 0.08800
C 	C 	0.85670 0.70710 0.24700 -0.17800
C 	C 	0.83810 0.68150 0.26360 0.09200
C 	C 	0.85470 0.65850 0.28550 -0.17600
C 	C 	0.89000 0.66120 0.29080 0.15500
C 	C 	0.90870 0.68680 0.27410 -0.08200
C 	C 	0.89210 0.70980 0.25220 0.16400
C 	C 	0.46150 0.18290 0.96520 0.39100
C 	C 	0.50630 0.12480 0.85930 0.36400
C 	C 	0.49100 0.15490 0.87520 -0.08800
C 	C 	0.48140 0.15590 0.91160 0.03600
C 	C 	0.46960 0.18340 0.92650 -0.09400
C 	C 	0.46820 0.21300 0.90740 -0.03700
C 	C 	0.47510 0.21590 0.87330 0.04400
C 	C 	0.48850 0.18680 0.85840 -0.03900
C 	C 	0.45720 0.48180 0.66870 0.42100
C 	C 	0.43750 0.37410 0.60120 0.33900
C 	C 	0.44220 0.37490 0.66600 -0.03900
C 	C 	0.44150 0.39300 0.63510 -0.07900
C 	C 	0.44720 0.42780 0.63640 0.04200
C 	C 	0.45180 0.44450 0.66730 -0.12100
C 	C 	0.45460 0.42520 0.69720 -0.02400
C 	C 	0.45010 0.39140 0.69710 0.03700
C 	C 	0.45580 0.36920 0.72980 -0.11800
C 	C 	0.43170 0.37300 0.75540 0.10400
C 	C 	0.39920 0.38960 0.75180 -0.08600
C 	C 	0.37830 0.37570 0.77600 -0.04600
C 	C 	0.39770 0.35010 0.79440 0.07300
C 	C 	0.38460 0.32940 0.82020 -0.03300
C 	C 	0.40490 0.30640 0.83810 0.05800
C 	C 	0.39060 0.28380 0.86370 -0.03200
C 	C 	0.41320 0.26090 0.87680 -0.09500
C 	C 	0.44420 0.26900 0.85840 0.10900
C 	C 	0.34940 0.33420 0.83430 -0.08200
C 	C 	0.34410 0.35850 0.86000 0.15900
C 	C 	0.31070 0.36840 0.86860 -0.16800
C 	C 	0.28280 0.35400 0.85150 0.09000
C 	C 	0.28810 0.32970 0.82570 -0.16900
C 	C 	0.32150 0.31980 0.81710 0.16600
C 	C 	0.47280 0.24860 0.85230 -0.11900
C 	C 	0.50370 0.26080 0.83820 0.08800
C 	C 	0.53830 0.24800 0.84480 -0.07300
C 	C 	0.56190 0.26510 0.82550 -0.04800
C 	C 	0.54060 0.28900 0.80590 0.08200
C 	C 	0.55390 0.31090 0.78010 -0.03400
C 	C 	0.53400 0.33200 0.75950 0.08400
C 	C 	0.54640 0.34800 0.72840 -0.05400
C 	C 	0.51860 0.36250 0.71350 -0.07700
C 	C 	0.48910 0.35600 0.73500 0.08800
C 	C 	0.64330 0.29290 0.74700 -0.17800
C 	C 	0.66190 0.31850 0.76360 0.09200
C 	C 	0.64530 0.34150 0.78550 -0.17600
C 	C 	0.61000 0.33880 0.79080 0.15500
C 	C 	0.59130 0.31320 0.77410 -0.08200
C 	C 	0.60790 0.29020 0.75220 0.16400
C 	C 	0.96150 0.31710 0.03480 0.39100
C 	C 	0.00630 0.37520 0.14070 0.36400
C 	C 	0.99100 0.34510 0.12480 -0.08800
C 	C 	0.98140 0.34410 0.08840 0.03600
C 	C 	0.96960 0.31660 0.07350 -0.09400
C 	C 	0.96820 0.28700 0.09260 -0.03700
C 	C 	0.97510 0.28410 0.12670 0.04400
C 	C 	0.98850 0.31320 0.14160 -0.03900
C 	C 	0.95720 0.01820 0.33130 0.42100
C 	C 	0.93750 0.12590 0.39880 0.33900
C 	C 	0.94220 0.12510 0.33400 -0.03900
C 	C 	0.94150 0.10700 0.36490 -0.07900
C 	C 	0.94720 0.07220 0.36360 0.04200
C 	C 	0.95180 0.05550 0.33270 -0.12100
C 	C 	0.95460 0.07480 0.30280 -0.02400
C 	C 	0.95010 0.10860 0.30290 0.03700
C 	C 	0.95580 0.13080 0.27020 -0.11800
C 	C 	0.93170 0.12700 0.24460 0.10400
C 	C 	0.89920 0.11040 0.24820 -0.08600
C 	C 	0.87830 0.12430 0.22400 -0.04600
C 	C 	0.89770 0.14990 0.20560 0.07300
C 	C 	0.88460 0.17060 0.17980 -0.03300
C 	C 	0.90490 0.19360 0.16190 0.05800
C 	C 	0.89060 0.21620 0.13630 -0.03200
C 	C 	0.91320 0.23910 0.12320 -0.09500
C 	C 	0.94420 0.23100 0.14160 0.10900
C 	C 	0.84940 0.16580 0.16570 -0.08200
C 	C 	0.84410 0.14150 0.14000 0.15900
C 	C 	0.81070 0.13160 0.13140 -0.16800
C 	C 	0.78280 0.14600 0.14850 0.09000
C 	C 	0.78810 0.17030 0.17430 -0.16900
C 	C 	0.82150 0.18020 0.18290 0.16600
C 	C 	0.97280 0.25140 0.14770 -0.11900
C 	C 	0.00370 0.23920 0.16180 0.08800
C 	C 	0.03830 0.25200 0.15520 -0.07300
C 	C 	0.06190 0.23490 0.17450 -0.04800
C 	C 	0.04060 0.21100 0.19410 0.08200
C 	C 	0.05390 0.18910 0.21990 -0.03400
C 	C 	0.03400 0.16800 0.24050 0.08400
C 	C 	0.04640 0.15200 0.27160 -0.05400
C 	C 	0.01860 0.13750 0.28650 -0.07700
C 	C 	0.98910 0.14400 0.26500 0.08800
C 	C 	0.14330 0.20710 0.25300 -0.17800
C 	C 	0.16190 0.18150 0.23640 0.09200
C 	C 	0.14530 0.15850 0.21450 -0.17600
C 	C 	0.11000 0.16120 0.20920 0.15500
C 	C 	0.09130 0.18680 0.22590 -0.08200
C 	C 	0.10790 0.20980 0.24780 0.16400
C 	C 	0.53850 0.68290 0.53480 0.39100
C 	C 	0.49370 0.62480 0.64070 0.36400
C 	C 	0.50900 0.65490 0.62480 -0.08800
C 	C 	0.51860 0.65590 0.58840 0.03600
C 	C 	0.53040 0.68340 0.57350 -0.09400
C 	C 	0.53180 0.71300 0.59260 -0.03700
C 	C 	0.52490 0.71590 0.62670 0.04400
C 	C 	0.51150 0.68680 0.64160 -0.03900
C 	C 	0.54280 0.98180 0.83130 0.42100
C 	C 	0.56250 0.87410 0.89880 0.33900
C 	C 	0.55780 0.87490 0.83400 -0.03900
C 	C 	0.55850 0.89300 0.86490 -0.07900
C 	C 	0.55280 0.92780 0.86360 0.04200
C 	C 	0.54820 0.94450 0.83270 -0.12100
C 	C 	0.54540 0.92520 0.80280 -0.02400
C 	C 	0.54990 0.89140 0.80290 0.03700
C 	C 	0.54420 0.86920 0.77020 -0.11800
C 	C 	0.56830 0.87300 0.74460 0.10400
C 	C 	0.60080 0.88960 0.74820 -0.08600
C 	C 	0.62170 0.87570 0.72400 -0.04600
C 	C 	0.60230 0.85010 0.70560 0.07300
C 	C 	0.61540 0.82940 0.67980 -0.03300
C 	C 	0.59510 0.80640 0.66190 0.05800
C 	C 	0.60940 0.78380 0.63630 -0.03200
C 	C 	0.58680 0.76090 0.62320 -0.09500
C 	C 	0.55580 0.76900 0.64160 0.10900
C 	C 	0.65060 0.83420 0.66570 -0.08200
C 	C 	0.65590 0.85850 0.64000 0.15900
C 	C 	0.68930 0.86840 0.63140 -0.16800
C 	C 	0.71720 0.85400 0.64850 0.09000
C 	C 	0.71190 0.82970 0.67430 -0.16900
C 	C 	0.67850 0.81980 0.68290 0.16600
C 	C 	0.52720 0.74860 0.64770 -0.11900
C 	C 	0.49630 0.76080 0.66180 0.08800
C 	C 	0.46170 0.74800 0.65520 -0.07300
C 	C 	0.43810 0.76510 0.67450 -0.04800
C 	C 	0.45940 0.78900 0.69410 0.08200
C 	C 	0.44610 0.81090 0.71990 -0.03400
C 	C 	0.46600 0.83200 0.74050 0.08400
C 	C 	0.45360 0.84800 0.77160 -0.05400
C 	C 	0.48140 0.86250 0.78650 -0.07700
C 	C 	0.51090 0.85600 0.76500 0.08800
C 	C 	0.35670 0.79290 0.75300 -0.17800
C 	C 	0.33810 0.81850 0.73640 0.09200
C 	C 	0.35470 0.84150 0.71450 -0.17600
C 	C 	0.39000 0.83880 0.70920 0.15500
C 	C 	0.40870 0.81320 0.72590 -0.08200
C 	C 	0.39210 0.79020 0.74780 0.16400
C 	C 	0.46520 0.03850 0.81710 0.39100
C 	C 	0.35930 0.99370 0.87520 0.36400
C 	C 	0.37520 0.00900 0.84510 -0.08800
C 	C 	0.41160 0.01860 0.84410 0.03600
C 	C 	0.42650 0.03040 0.81660 -0.09400
C 	C 	0.40740 0.03180 0.78700 -0.03700
C 	C 	0.37330 0.02490 0.78410 0.04400
C 	C 	0.35840 0.01150 0.81320 -0.03900
C 	C 	0.16870 0.04280 0.51820 0.42100
C 	C 	0.10120 0.06250 0.62590 0.33900
C 	C 	0.16600 0.05780 0.62510 -0.03900
C 	C 	0.13510 0.05850 0.60700 -0.07900
C 	C 	0.13640 0.05280 0.57220 0.04200
C 	C 	0.16730 0.04820 0.55550 -0.12100
C 	C 	0.19720 0.04540 0.57480 -0.02400
C 	C 	0.19710 0.04990 0.60860 0.03700
C 	C 	0.22980 0.04420 0.63080 -0.11800
C 	C 	0.25540 0.06830 0.62700 0.10400
C 	C 	0.25180 0.10080 0.61040 -0.08600
C 	C 	0.27600 0.12170 0.62430 -0.04600
C 	C 	0.29440 0.10230 0.64990 0.07300
C 	C 	0.32020 0.11540 0.67060 -0.03300
C 	C 	0.33810 0.09510 0.69360 0.05800
C 	C 	0.36370 0.10940 0.71620 -0.03200
C 	C 	0.37680 0.08680 0.73910 -0.09500
C 	C 	0.35840 0.05580 0.73100 0.10900
C 	C 	0.33430 0.15060 0.66580 -0.08200
C 	C 	0.36000 0.15590 0.64150 0.15900
C 	C 	0.36860 0.18930 0.63160 -0.16800
C 	C 	0.35150 0.21720 0.64600 0.09000
C 	C 	0.32570 0.21190 0.67030 -0.16900
C 	C 	0.31710 0.17850 0.68020 0.16600
C 	C 	0.35230 0.02720 0.75140 -0.11900
C 	C 	0.33820 0.99630 0.73920 0.08800
C 	C 	0.34480 0.96170 0.75200 -0.07300
C 	C 	0.32550 0.93810 0.73490 -0.04800
C 	C 	0.30590 0.95940 0.71100 0.08200
C 	C 	0.28010 0.94610 0.68910 -0.03400
C 	C 	0.25950 0.96600 0.66800 0.08400
C 	C 	0.22840 0.95360 0.65200 -0.05400
C 	C 	0.21350 0.98140 0.63750 -0.07700
C 	C 	0.23500 0.01090 0.64400 0.08800
C 	C 	0.24700 0.85670 0.70710 -0.17800
C 	C 	0.26360 0.83810 0.68150 0.09200
C 	C 	0.28550 0.85470 0.65850 -0.17600
C 	C 	0.29080 0.89000 0.66120 0.15500
C 	C 	0.27410 0.90870 0.68680 -0.08200
C 	C 	0.25220 0.89210 0.70980 0.16400
C 	C 	0.96520 0.46150 0.18290 0.39100
C 	C 	0.85930 0.50630 0.12480 0.36400
C 	C 	0.87520 0.49100 0.15490 -0.08800
C 	C 	0.91160 0.48140 0.15590 0.03600
C 	C 	0.92650 0.46960 0.18340 -0.09400
C 	C 	0.90740 0.46820 0.21300 -0.03700
C 	C 	0.87330 0.47510 0.21590 0.04400
C 	C 	0.85840 0.48850 0.18680 -0.03900
C 	C 	0.66870 0.45720 0.48180 0.42100
C 	C 	0.60120 0.43750 0.37410 0.33900
C 	C 	0.66600 0.44220 0.37490 -0.03900
C 	C 	0.63510 0.44150 0.39300 -0.07900
C 	C 	0.63640 0.44720 0.42780 0.04200
C 	C 	0.66730 0.45180 0.44450 -0.12100
C 	C 	0.69720 0.45460 0.42520 -0.02400
C 	C 	0.69710 0.45010 0.39140 0.03700
C 	C 	0.72980 0.45580 0.36920 -0.11800
C 	C 	0.75540 0.43170 0.37300 0.10400
C 	C 	0.75180 0.39920 0.38960 -0.08600
C 	C 	0.77600 0.37830 0.37570 -0.04600
C 	C 	0.79440 0.39770 0.35010 0.07300
C 	C 	0.82020 0.38460 0.32940 -0.03300
C 	C 	0.83810 0.40490 0.30640 0.05800
C 	C 	0.86370 0.39060 0.28380 -0.03200
C 	C 	0.87680 0.41320 0.26090 -0.09500
C 	C 	0.85840 0.44420 0.26900 0.10900
C 	C 	0.83430 0.34940 0.33420 -0.08200
C 	C 	0.86000 0.34410 0.35850 0.15900
C 	C 	0.86860 0.31070 0.36840 -0.16800
C 	C 	0.85150 0.28280 0.35400 0.09000
C 	C 	0.82570 0.28810 0.32970 -0.16900
C 	C 	0.81710 0.32150 0.31980 0.16600
C 	C 	0.85230 0.47280 0.24860 -0.11900
C 	C 	0.83820 0.50370 0.26080 0.08800
C 	C 	0.84480 0.53830 0.24800 -0.07300
C 	C 	0.82550 0.56190 0.26510 -0.04800
C 	C 	0.80590 0.54060 0.28900 0.08200
C 	C 	0.78010 0.55390 0.31090 -0.03400
C 	C 	0.75950 0.53400 0.33200 0.08400
C 	C 	0.72840 0.54640 0.34800 -0.05400
C 	C 	0.71350 0.51860 0.36250 -0.07700
C 	C 	0.73500 0.48910 0.35600 0.08800
C 	C 	0.74700 0.64330 0.29290 -0.17800
C 	C 	0.76360 0.66190 0.31850 0.09200
C 	C 	0.78550 0.64530 0.34150 -0.17600
C 	C 	0.79080 0.61000 0.33880 0.15500
C 	C 	0.77410 0.59130 0.31320 -0.08200
C 	C 	0.75220 0.60790 0.29020 0.16400
C 	C 	0.03480 0.96150 0.31710 0.39100
C 	C 	0.14070 0.00630 0.37520 0.36400
C 	C 	0.12480 0.99100 0.34510 -0.08800
C 	C 	0.08840 0.98140 0.34410 0.03600
C 	C 	0.07350 0.96960 0.31660 -0.09400
C 	C 	0.09260 0.96820 0.28700 -0.03700
C 	C 	0.12670 0.97510 0.28410 0.04400
C 	C 	0.14160 0.98850 0.31320 -0.03900
C 	C 	0.33130 0.95720 0.01820 0.42100
C 	C 	0.39880 0.93750 0.12590 0.33900
C 	C 	0.33400 0.94220 0.12510 -0.03900
C 	C 	0.36490 0.94150 0.10700 -0.07900
C 	C 	0.36360 0.94720 0.07220 0.04200
C 	C 	0.33270 0.95180 0.05550 -0.12100
C 	C 	0.30280 0.95460 0.07480 -0.02400
C 	C 	0.30290 0.95010 0.10860 0.03700
C 	C 	0.27020 0.95580 0.13080 -0.11800
C 	C 	0.24460 0.93170 0.12700 0.10400
C 	C 	0.24820 0.89920 0.11040 -0.08600
C 	C 	0.22400 0.87830 0.12430 -0.04600
C 	C 	0.20560 0.89770 0.14990 0.07300
C 	C 	0.17980 0.88460 0.17060 -0.03300
C 	C 	0.16190 0.90490 0.19360 0.05800
C 	C 	0.13630 0.89060 0.21620 -0.03200
C 	C 	0.12320 0.91320 0.23910 -0.09500
C 	C 	0.14160 0.94420 0.23100 0.10900
C 	C 	0.16570 0.84940 0.16580 -0.08200
C 	C 	0.14000 0.84410 0.14150 0.15900
C 	C 	0.13140 0.81070 0.13160 -0.16800
C 	C 	0.14850 0.78280 0.14600 0.09000
C 	C 	0.17430 0.78810 0.17030 -0.16900
C 	C 	0.18290 0.82150 0.18020 0.16600
C 	C 	0.14770 0.97280 0.25140 -0.11900
C 	C 	0.16180 0.00370 0.23920 0.08800
C 	C 	0.15520 0.03830 0.25200 -0.07300
C 	C 	0.17450 0.06190 0.23490 -0.04800
C 	C 	0.19410 0.04060 0.21100 0.08200
C 	C 	0.21990 0.05390 0.18910 -0.03400
C 	C 	0.24050 0.03400 0.16800 0.08400
C 	C 	0.27160 0.04640 0.15200 -0.05400
C 	C 	0.28650 0.01860 0.13750 -0.07700
C 	C 	0.26500 0.98910 0.14400 0.08800
C 	C 	0.25300 0.14330 0.20710 -0.17800
C 	C 	0.23640 0.16190 0.18150 0.09200
C 	C 	0.21450 0.14530 0.15850 -0.17600
C 	C 	0.20920 0.11000 0.16120 0.15500
C 	C 	0.22590 0.09130 0.18680 -0.08200
C 	C 	0.24780 0.10790 0.20980 0.16400
C 	C 	0.53480 0.53850 0.68290 0.39100
C 	C 	0.64070 0.49370 0.62480 0.36400
C 	C 	0.62480 0.50900 0.65490 -0.08800
C 	C 	0.58840 0.51860 0.65590 0.03600
C 	C 	0.57350 0.53040 0.68340 -0.09400
C 	C 	0.59260 0.53180 0.71300 -0.03700
C 	C 	0.62670 0.52490 0.71590 0.04400
C 	C 	0.64160 0.51150 0.68680 -0.03900
C 	C 	0.83130 0.54280 0.98180 0.42100
C 	C 	0.89880 0.56250 0.87410 0.33900
C 	C 	0.83400 0.55780 0.87490 -0.03900
C 	C 	0.86490 0.55850 0.89300 -0.07900
C 	C 	0.86360 0.55280 0.92780 0.04200
C 	C 	0.83270 0.54820 0.94450 -0.12100
C 	C 	0.80280 0.54540 0.92520 -0.02400
C 	C 	0.80290 0.54990 0.89140 0.03700
C 	C 	0.77020 0.54420 0.86920 -0.11800
C 	C 	0.74460 0.56830 0.87300 0.10400
C 	C 	0.74820 0.60080 0.88960 -0.08600
C 	C 	0.72400 0.62170 0.87570 -0.04600
C 	C 	0.70560 0.60230 0.85010 0.07300
C 	C 	0.67980 0.61540 0.82940 -0.03300
C 	C 	0.66190 0.59510 0.80640 0.05800
C 	C 	0.63630 0.60940 0.78380 -0.03200
C 	C 	0.62320 0.58680 0.76090 -0.09500
C 	C 	0.64160 0.55580 0.76900 0.10900
C 	C 	0.66570 0.65060 0.83420 -0.08200
C 	C 	0.64000 0.65590 0.85850 0.15900
C 	C 	0.63140 0.68930 0.86840 -0.16800
C 	C 	0.64850 0.71720 0.85400 0.09000
C 	C 	0.67430 0.71190 0.82970 -0.16900
C 	C 	0.68290 0.67850 0.81980 0.16600
C 	C 	0.64770 0.52720 0.74860 -0.11900
C 	C 	0.66180 0.49630 0.76080 0.08800
C 	C 	0.65520 0.46170 0.74800 -0.07300
C 	C 	0.67450 0.43810 0.76510 -0.04800
C 	C 	0.69410 0.45940 0.78900 0.08200
C 	C 	0.71990 0.44610 0.81090 -0.03400
C 	C 	0.74050 0.46600 0.83200 0.08400
C 	C 	0.77160 0.45360 0.84800 -0.05400
C 	C 	0.78650 0.48140 0.86250 -0.07700
C 	C 	0.76500 0.51090 0.85600 0.08800
C 	C 	0.75300 0.35670 0.79290 -0.17800
C 	C 	0.73640 0.33810 0.81850 0.09200
C 	C 	0.71450 0.35470 0.84150 -0.17600
C 	C 	0.70920 0.39000 0.83880 0.15500
C 	C 	0.72590 0.40870 0.81320 -0.08200
C 	C 	0.74780 0.39210 0.79020 0.16400
C 	C 	0.81710 0.46520 0.03850 0.39100
C 	C 	0.87520 0.35930 0.99370 0.36400
C 	C 	0.84510 0.37520 0.00900 -0.08800
C 	C 	0.84410 0.41160 0.01860 0.03600
C 	C 	0.81660 0.42650 0.03040 -0.09400
C 	C 	0.78700 0.40740 0.03180 -0.03700
C 	C 	0.78410 0.37330 0.02490 0.04400
C 	C 	0.81320 0.35840 0.01150 -0.03900
C 	C 	0.51820 0.16870 0.04280 0.42100
C 	C 	0.62590 0.10120 0.06250 0.33900
C 	C 	0.62510 0.16600 0.05780 -0.03900
C 	C 	0.60700 0.13510 0.05850 -0.07900
C 	C 	0.57220 0.13640 0.05280 0.04200
C 	C 	0.55550 0.16730 0.04820 -0.12100
C 	C 	0.57480 0.19720 0.04540 -0.02400
C 	C 	0.60860 0.19710 0.04990 0.03700
C 	C 	0.63080 0.22980 0.04420 -0.11800
C 	C 	0.62700 0.25540 0.06830 0.10400
C 	C 	0.61040 0.25180 0.10080 -0.08600
C 	C 	0.62430 0.27600 0.12170 -0.04600
C 	C 	0.64990 0.29440 0.10230 0.07300
C 	C 	0.67060 0.32020 0.11540 -0.03300
C 	C 	0.69360 0.33810 0.09510 0.05800
C 	C 	0.71620 0.36370 0.10940 -0.03200
C 	C 	0.73910 0.37680 0.08680 -0.09500
C 	C 	0.73100 0.35840 0.05580 0.10900
C 	C 	0.66580 0.33430 0.15060 -0.08200
C 	C 	0.64150 0.36000 0.15590 0.15900
C 	C 	0.63160 0.36860 0.18930 -0.16800
C 	C 	0.64600 0.35150 0.21720 0.09000
C 	C 	0.67030 0.32570 0.21190 -0.16900
C 	C 	0.68020 0.31710 0.17850 0.16600
C 	C 	0.75140 0.35230 0.02720 -0.11900
C 	C 	0.73920 0.33820 0.99630 0.08800
C 	C 	0.75200 0.34480 0.96170 -0.07300
C 	C 	0.73490 0.32550 0.93810 -0.04800
C 	C 	0.71100 0.30590 0.95940 0.08200
C 	C 	0.68910 0.28010 0.94610 -0.03400
C 	C 	0.66800 0.25950 0.96600 0.08400
C 	C 	0.65200 0.22840 0.95360 -0.05400
C 	C 	0.63750 0.21350 0.98140 -0.07700
C 	C 	0.64400 0.23500 0.01090 0.08800
C 	C 	0.70710 0.24700 0.85670 -0.17800
C 	C 	0.68150 0.26360 0.83810 0.09200
C 	C 	0.65850 0.28550 0.85470 -0.17600
C 	C 	0.66120 0.29080 0.89000 0.15500
C 	C 	0.68680 0.27410 0.90870 -0.08200
C 	C 	0.70980 0.25220 0.89210 0.16400
C 	C 	0.18290 0.96520 0.46150 0.39100
C 	C 	0.12480 0.85930 0.50630 0.36400
C 	C 	0.15490 0.87520 0.49100 -0.08800
C 	C 	0.15590 0.91160 0.48140 0.03600
C 	C 	0.18340 0.92650 0.46960 -0.09400
C 	C 	0.21300 0.90740 0.46820 -0.03700
C 	C 	0.21590 0.87330 0.47510 0.04400
C 	C 	0.18680 0.85840 0.48850 -0.03900
C 	C 	0.48180 0.66870 0.45720 0.42100
C 	C 	0.37410 0.60120 0.43750 0.33900
C 	C 	0.37490 0.66600 0.44220 -0.03900
C 	C 	0.39300 0.63510 0.44150 -0.07900
C 	C 	0.42780 0.63640 0.44720 0.04200
C 	C 	0.44450 0.66730 0.45180 -0.12100
C 	C 	0.42520 0.69720 0.45460 -0.02400
C 	C 	0.39140 0.69710 0.45010 0.03700
C 	C 	0.36920 0.72980 0.45580 -0.11800
C 	C 	0.37300 0.75540 0.43170 0.10400
C 	C 	0.38960 0.75180 0.39920 -0.08600
C 	C 	0.37570 0.77600 0.37830 -0.04600
C 	C 	0.35010 0.79440 0.39770 0.07300
C 	C 	0.32940 0.82020 0.38460 -0.03300
C 	C 	0.30640 0.83810 0.40490 0.05800
C 	C 	0.28380 0.86370 0.39060 -0.03200
C 	C 	0.26090 0.87680 0.41320 -0.09500
C 	C 	0.26900 0.85840 0.44420 0.10900
C 	C 	0.33420 0.83430 0.34940 -0.08200
C 	C 	0.35850 0.86000 0.34410 0.15900
C 	C 	0.36840 0.86860 0.31070 -0.16800
C 	C 	0.35400 0.85150 0.28280 0.09000
C 	C 	0.32970 0.82570 0.28810 -0.16900
C 	C 	0.31980 0.81710 0.32150 0.16600
C 	C 	0.24860 0.85230 0.47280 -0.11900
C 	C 	0.26080 0.83820 0.50370 0.08800
C 	C 	0.24800 0.84480 0.53830 -0.07300
C 	C 	0.26510 0.82550 0.56190 -0.04800
C 	C 	0.28900 0.80590 0.54060 0.08200
C 	C 	0.31090 0.78010 0.55390 -0.03400
C 	C 	0.33200 0.75950 0.53400 0.08400
C 	C 	0.34800 0.72840 0.54640 -0.05400
C 	C 	0.36250 0.71350 0.51860 -0.07700
C 	C 	0.35600 0.73500 0.48910 0.08800
C 	C 	0.29290 0.74700 0.64330 -0.17800
C 	C 	0.31850 0.76360 0.66190 0.09200
C 	C 	0.34150 0.78550 0.64530 -0.17600
C 	C 	0.33880 0.79080 0.61000 0.15500
C 	C 	0.31320 0.77410 0.59130 -0.08200
C 	C 	0.29020 0.75220 0.60790 0.16400
C 	C 	0.31710 0.03480 0.96150 0.39100
C 	C 	0.37520 0.14070 0.00630 0.36400
C 	C 	0.34510 0.12480 0.99100 -0.08800
C 	C 	0.34410 0.08840 0.98140 0.03600
C 	C 	0.31660 0.07350 0.96960 -0.09400
C 	C 	0.28700 0.09260 0.96820 -0.03700
C 	C 	0.28410 0.12670 0.97510 0.04400
C 	C 	0.31320 0.14160 0.98850 -0.03900
C 	C 	0.01820 0.33130 0.95720 0.42100
C 	C 	0.12590 0.39880 0.93750 0.33900
C 	C 	0.12510 0.33400 0.94220 -0.03900
C 	C 	0.10700 0.36490 0.94150 -0.07900
C 	C 	0.07220 0.36360 0.94720 0.04200
C 	C 	0.05550 0.33270 0.95180 -0.12100
C 	C 	0.07480 0.30280 0.95460 -0.02400
C 	C 	0.10860 0.30290 0.95010 0.03700
C 	C 	0.13080 0.27020 0.95580 -0.11800
C 	C 	0.12700 0.24460 0.93170 0.10400
C 	C 	0.11040 0.24820 0.89920 -0.08600
C 	C 	0.12430 0.22400 0.87830 -0.04600
C 	C 	0.14990 0.20560 0.89770 0.07300
C 	C 	0.17060 0.17980 0.88460 -0.03300
C 	C 	0.19360 0.16190 0.90490 0.05800
C 	C 	0.21620 0.13630 0.89060 -0.03200
C 	C 	0.23910 0.12320 0.91320 -0.09500
C 	C 	0.23100 0.14160 0.94420 0.10900
C 	C 	0.16580 0.16570 0.84940 -0.08200
C 	C 	0.14150 0.14000 0.84410 0.15900
C 	C 	0.13160 0.13140 0.81070 -0.16800
C 	C 	0.14600 0.14850 0.78280 0.09000
C 	C 	0.17030 0.17430 0.78810 -0.16900
C 	C 	0.18020 0.18290 0.82150 0.16600
C 	C 	0.25140 0.14770 0.97280 -0.11900
C 	C 	0.23920 0.16180 0.00370 0.08800
C 	C 	0.25200 0.15520 0.03830 -0.07300
C 	C 	0.23490 0.17450 0.06190 -0.04800
C 	C 	0.21100 0.19410 0.04060 0.08200
C 	C 	0.18910 0.21990 0.05390 -0.03400
C 	C 	0.16800 0.24050 0.03400 0.08400
C 	C 	0.15200 0.27160 0.04640 -0.05400
C 	C 	0.13750 0.28650 0.01860 -0.07700
C 	C 	0.14400 0.26500 0.98910 0.08800
C 	C 	0.20710 0.25300 0.14330 -0.17800
C 	C 	0.18150 0.23640 0.16190 0.09200
C 	C 	0.15850 0.21450 0.14530 -0.17600
C 	C 	0.16120 0.20920 0.11000 0.15500
C 	C 	0.18680 0.22590 0.09130 -0.08200
C 	C 	0.20980 0.24780 0.10790 0.16400
C 	C 	0.68290 0.53480 0.53850 0.39100
C 	C 	0.62480 0.64070 0.49370 0.36400
C 	C 	0.65490 0.62480 0.50900 -0.08800
C 	C 	0.65590 0.58840 0.51860 0.03600
C 	C 	0.68340 0.57350 0.53040 -0.09400
C 	C 	0.71300 0.59260 0.53180 -0.03700
C 	C 	0.71590 0.62670 0.52490 0.04400
C 	C 	0.68680 0.64160 0.51150 -0.03900
C 	C 	0.98180 0.83130 0.54280 0.42100
C 	C 	0.87410 0.89880 0.56250 0.33900
C 	C 	0.87490 0.83400 0.55780 -0.03900
C 	C 	0.89300 0.86490 0.55850 -0.07900
C 	C 	0.92780 0.86360 0.55280 0.04200
C 	C 	0.94450 0.83270 0.54820 -0.12100
C 	C 	0.92520 0.80280 0.54540 -0.02400
C 	C 	0.89140 0.80290 0.54990 0.03700
C 	C 	0.86920 0.77020 0.54420 -0.11800
C 	C 	0.87300 0.74460 0.56830 0.10400
C 	C 	0.88960 0.74820 0.60080 -0.08600
C 	C 	0.87570 0.72400 0.62170 -0.04600
C 	C 	0.85010 0.70560 0.60230 0.07300
C 	C 	0.82940 0.67980 0.61540 -0.03300
C 	C 	0.80640 0.66190 0.59510 0.05800
C 	C 	0.78380 0.63630 0.60940 -0.03200
C 	C 	0.76090 0.62320 0.58680 -0.09500
C 	C 	0.76900 0.64160 0.55580 0.10900
C 	C 	0.83420 0.66570 0.65060 -0.08200
C 	C 	0.85850 0.64000 0.65590 0.15900
C 	C 	0.86840 0.63140 0.68930 -0.16800
C 	C 	0.85400 0.64850 0.71720 0.09000
C 	C 	0.82970 0.67430 0.71190 -0.16900
C 	C 	0.81980 0.68290 0.67850 0.16600
C 	C 	0.74860 0.64770 0.52720 -0.11900
C 	C 	0.76080 0.66180 0.49630 0.08800
C 	C 	0.74800 0.65520 0.46170 -0.07300
C 	C 	0.76510 0.67450 0.43810 -0.04800
C 	C 	0.78900 0.69410 0.45940 0.08200
C 	C 	0.81090 0.71990 0.44610 -0.03400
C 	C 	0.83200 0.74050 0.46600 0.08400
C 	C 	0.84800 0.77160 0.45360 -0.05400
C 	C 	0.86250 0.78650 0.48140 -0.07700
C 	C 	0.85600 0.76500 0.51090 0.08800
C 	C 	0.79290 0.75300 0.35670 -0.17800
C 	C 	0.81850 0.73640 0.33810 0.09200
C 	C 	0.84150 0.71450 0.35470 -0.17600
C 	C 	0.83880 0.70920 0.39000 0.15500
C 	C 	0.81320 0.72590 0.40870 -0.08200
C 	C 	0.79020 0.74780 0.39210 0.16400
Br	Br	0.08450 0.25570 0.77170 -0.27300
Br	Br	0.82710 0.28930 0.71930 -0.26100
Br	Br	0.88091 0.38279 0.61993 -0.27700
Br	Br	0.08820 0.37030 0.67820 -0.24300
Br	Br	0.41550 0.74430 0.27170 -0.27300
Br	Br	0.67290 0.71070 0.21930 -0.26100
Br	Br	0.61909 0.61721 0.11993 -0.27700
Br	Br	0.41180 0.62970 0.17820 -0.24300
Br	Br	0.91550 0.75570 0.72830 -0.27300
Br	Br	0.17290 0.78930 0.78070 -0.26100
Br	Br	0.11909 0.88279 0.88007 -0.27700
Br	Br	0.91180 0.87030 0.82180 -0.24300
Br	Br	0.58450 0.24430 0.22830 -0.27300
Br	Br	0.32710 0.21070 0.28070 -0.26100
Br	Br	0.38091 0.11721 0.38007 -0.27700
Br	Br	0.58820 0.12970 0.32180 -0.24300
Br	Br	0.77170 0.08450 0.25570 -0.27300
Br	Br	0.71930 0.82710 0.28930 -0.26100
Br	Br	0.61993 0.88091 0.38279 -0.27700
Br	Br	0.67820 0.08820 0.37030 -0.24300
Br	Br	0.27170 0.41550 0.74430 -0.27300
Br	Br	0.21930 0.67290 0.71070 -0.26100
Br	Br	0.11993 0.61909 0.61721 -0.27700
Br	Br	0.17820 0.41180 0.62970 -0.24300
Br	Br	0.72830 0.91550 0.75570 -0.27300
Br	Br	0.78070 0.17290 0.78930 -0.26100
Br	Br	0.88007 0.11909 0.88279 -0.27700
Br	Br	0.82180 0.91180 0.87030 -0.24300
Br	Br	0.22830 0.58450 0.24430 -0.27300
Br	Br	0.28070 0.32710 0.21070 -0.26100
Br	Br	0.38007 0.38091 0.11721 -0.27700
Br	Br	0.32180 0.58820 0.12970 -0.24300
Br	Br	0.25570 0.77170 0.08450 -0.27300
Br	Br	0.28930 0.71930 0.82710 -0.26100
Br	Br	0.38279 0.61993 0.88091 -0.27700
Br	Br	0.37030 0.67820 0.08820 -0.24300
Br	Br	0.74430 0.27170 0.41550 -0.27300
Br	Br	0.71070 0.21930 0.67290 -0.26100
Br	Br	0.61721 0.11993 0.61909 -0.27700
Br	Br	0.62970 0.17820 0.41180 -0.24300
Br	Br	0.75570 0.72830 0.91550 -0.27300
Br	Br	0.78930 0.78070 0.17290 -0.26100
Br	Br	0.88279 0.88007 0.11909 -0.27700
Br	Br	0.87030 0.82180 0.91180 -0.24300
Br	Br	0.24430 0.22830 0.58450 -0.27300
Br	Br	0.21070 0.28070 0.32710 -0.26100
Br	Br	0.11721 0.38007 0.38091 -0.27700
Br	Br	0.12970 0.32180 0.58820 -0.24300
Br	Br	0.91550 0.74430 0.22830 -0.27300
Br	Br	0.17290 0.71070 0.28070 -0.26100
Br	Br	0.11909 0.61721 0.38007 -0.27700
Br	Br	0.91180 0.62970 0.32180 -0.24300
Br	Br	0.58450 0.25570 0.72830 -0.27300
Br	Br	0.32710 0.28930 0.78070 -0.26100
Br	Br	0.38091 0.38279 0.88007 -0.27700
Br	Br	0.58820 0.37030 0.82180 -0.24300
Br	Br	0.08450 0.24430 0.27170 -0.27300
Br	Br	0.82710 0.21070 0.21930 -0.26100
Br	Br	0.88091 0.11721 0.11993 -0.27700
Br	Br	0.08820 0.12970 0.17820 -0.24300
Br	Br	0.41550 0.75570 0.77170 -0.27300
Br	Br	0.67290 0.78930 0.71930 -0.26100
Br	Br	0.61909 0.88279 0.61993 -0.27700
Br	Br	0.41180 0.87030 0.67820 -0.24300
Br	Br	0.22830 0.91550 0.74430 -0.27300
Br	Br	0.28070 0.17290 0.71070 -0.26100
Br	Br	0.38007 0.11909 0.61721 -0.27700
Br	Br	0.32180 0.91180 0.62970 -0.24300
Br	Br	0.72830 0.58450 0.25570 -0.27300
Br	Br	0.78070 0.32710 0.28930 -0.26100
Br	Br	0.88007 0.38091 0.38279 -0.27700
Br	Br	0.82180 0.58820 0.37030 -0.24300
Br	Br	0.27170 0.08450 0.24430 -0.27300
Br	Br	0.21930 0.82710 0.21070 -0.26100
Br	Br	0.11993 0.88091 0.11721 -0.27700
Br	Br	0.17820 0.08820 0.12970 -0.24300
Br	Br	0.77170 0.41550 0.75570 -0.27300
Br	Br	0.71930 0.67290 0.78930 -0.26100
Br	Br	0.61993 0.61909 0.88279 -0.27700
Br	Br	0.67820 0.41180 0.87030 -0.24300
Br	Br	0.74430 0.22830 0.91550 -0.27300
Br	Br	0.71070 0.28070 0.17290 -0.26100
Br	Br	0.61721 0.38007 0.11909 -0.27700
Br	Br	0.62970 0.32180 0.91180 -0.24300
Br	Br	0.25570 0.72830 0.58450 -0.27300
Br	Br	0.28930 0.78070 0.32710 -0.26100
Br	Br	0.38279 0.88007 0.38091 -0.27700
Br	Br	0.37030 0.82180 0.58820 -0.24300
Br	Br	0.24430 0.27170 0.08450 -0.27300
Br	Br	0.21070 0.21930 0.82710 -0.26100
Br	Br	0.11721 0.11993 0.88091 -0.27700
Br	Br	0.12970 0.17820 0.08820 -0.24300
Br	Br	0.75570 0.77170 0.41550 -0.27300
Br	Br	0.78930 0.71930 0.67290 -0.26100
Br	Br	0.88279 0.61993 0.61909 -0.27700
Br	Br	0.87030 0.67820 0.41180 -0.24300
N 	N 	0.93040 0.34910 0.71870 -0.26800
N 	N 	0.93850 0.29600 0.66400 -0.26400
N 	N 	0.00590 0.28740 0.68610 -0.26900
N 	N 	0.99870 0.33560 0.73740 -0.27100
N 	N 	0.56960 0.65090 0.21870 -0.26800
N 	N 	0.56150 0.70400 0.16400 -0.26400
N 	N 	0.49410 0.71260 0.18610 -0.26900
N 	N 	0.50130 0.66440 0.23740 -0.27100
N 	N 	0.06960 0.84910 0.78130 -0.26800
N 	N 	0.06150 0.79600 0.83600 -0.26400
N 	N 	0.99410 0.78740 0.81390 -0.26900
N 	N 	0.00130 0.83560 0.76260 -0.27100
N 	N 	0.43040 0.15090 0.28130 -0.26800
N 	N 	0.43850 0.20400 0.33600 -0.26400
N 	N 	0.50590 0.21260 0.31390 -0.26900
N 	N 	0.49870 0.16440 0.26260 -0.27100
N 	N 	0.71870 0.93040 0.34910 -0.26800
N 	N 	0.66400 0.93850 0.29600 -0.26400
N 	N 	0.68610 0.00590 0.28740 -0.26900
N 	N 	0.73740 0.99870 0.33560 -0.27100
N 	N 	0.21870 0.56960 0.65090 -0.26800
N 	N 	0.16400 0.56150 0.70400 -0.26400
N 	N 	0.18610 0.49410 0.71260 -0.26900
N 	N 	0.23740 0.50130 0.66440 -0.27100
N 	N 	0.78130 0.06960 0.84910 -0.26800
N 	N 	0.83600 0.06150 0.79600 -0.26400
N 	N 	0.81390 0.99410 0.78740 -0.26900
N 	N 	0.76260 0.00130 0.83560 -0.27100
N 	N 	0.28130 0.43040 0.15090 -0.26800
N 	N 	0.33600 0.43850 0.20400 -0.26400
N 	N 	0.31390 0.50590 0.21260 -0.26900
N 	N 	0.26260 0.49870 0.16440 -0.27100
N 	N 	0.34910 0.71870 0.93040 -0.26800
N 	N 	0.29600 0.66400 0.93850 -0.26400
N 	N 	0.28740 0.68610 0.00590 -0.26900
N 	N 	0.33560 0.73740 0.99870 -0.27100
N 	N 	0.65090 0.21870 0.56960 -0.26800
N 	N 	0.70400 0.16400 0.56150 -0.26400
N 	N 	0.71260 0.18610 0.49410 -0.26900
N 	N 	0.66440 0.23740 0.50130 -0.27100
N 	N 	0.84910 0.78130 0.06960 -0.26800
N 	N 	0.79600 0.83600 0.06150 -0.26400
N 	N 	0.78740 0.81390 0.99410 -0.26900
N 	N 	0.83560 0.76260 0.00130 -0.27100
N 	N 	0.15090 0.28130 0.43040 -0.26800
N 	N 	0.20400 0.33600 0.43850 -0.26400
N 	N 	0.21260 0.31390 0.50590 -0.26900
N 	N 	0.16440 0.26260 0.49870 -0.27100
N 	N 	0.06960 0.65090 0.28130 -0.26800
N 	N 	0.06150 0.70400 0.33600 -0.26400
N 	N 	0.99410 0.71260 0.31390 -0.26900
N 	N 	0.00130 0.66440 0.26260 -0.27100
N 	N 	0.43040 0.34910 0.78130 -0.26800
N 	N 	0.43850 0.29600 0.83600 -0.26400
N 	N 	0.50590 0.28740 0.81390 -0.26900
N 	N 	0.49870 0.33560 0.76260 -0.27100
N 	N 	0.93040 0.15090 0.21870 -0.26800
N 	N 	0.93850 0.20400 0.16400 -0.26400
N 	N 	0.00590 0.21260 0.18610 -0.26900
N 	N 	0.99870 0.16440 0.23740 -0.27100
N 	N 	0.56960 0.84910 0.71870 -0.26800
N 	N 	0.56150 0.79600 0.66400 -0.26400
N 	N 	0.49410 0.78740 0.68610 -0.26900
N 	N 	0.50130 0.83560 0.73740 -0.27100
N 	N 	0.28130 0.06960 0.65090 -0.26800
N 	N 	0.33600 0.06150 0.70400 -0.26400
N 	N 	0.31390 0.99410 0.71260 -0.26900
N 	N 	0.26260 0.00130 0.66440 -0.27100
N 	N 	0.78130 0.43040 0.34910 -0.26800
N 	N 	0.83600 0.43850 0.29600 -0.26400
N 	N 	0.81390 0.50590 0.28740 -0.26900
N 	N 	0.76260 0.49870 0.33560 -0.27100
N 	N 	0.21870 0.93040 0.15090 -0.26800
N 	N 	0.16400 0.93850 0.20400 -0.26400
N 	N 	0.18610 0.00590 0.21260 -0.26900
N 	N 	0.23740 0.99870 0.16440 -0.27100
N 	N 	0.71870 0.56960 0.84910 -0.26800
N 	N 	0.66400 0.56150 0.79600 -0.26400
N 	N 	0.68610 0.49410 0.78740 -0.26900
N 	N 	0.73740 0.50130 0.83560 -0.27100
N 	N 	0.65090 0.28130 0.06960 -0.26800
N 	N 	0.70400 0.33600 0.06150 -0.26400
N 	N 	0.71260 0.31390 0.99410 -0.26900
N 	N 	0.66440 0.26260 0.00130 -0.27100
N 	N 	0.34910 0.78130 0.43040 -0.26800
N 	N 	0.29600 0.83600 0.43850 -0.26400
N 	N 	0.28740 0.81390 0.50590 -0.26900
N 	N 	0.33560 0.76260 0.49870 -0.27100
N 	N 	0.15090 0.21870 0.93040 -0.26800
N 	N 	0.20400 0.16400 0.93850 -0.26400
N 	N 	0.21260 0.18610 0.00590 -0.26900
N 	N 	0.16440 0.23740 0.99870 -0.27100
N 	N 	0.84910 0.71870 0.56960 -0.26800
N 	N 	0.79600 0.66400 0.56150 -0.26400
N 	N 	0.78740 0.68610 0.49410 -0.26900
N 	N 	0.83560 0.73740 0.50130 -0.27100
O 	O 	0.95230 0.21140 0.52118 -0.43700
O 	O 	0.96172 0.15454 0.52133 -0.44800
O 	O 	0.01072 0.09860 0.62195 -0.40700
O 	O 	0.01220 0.12640 0.67170 -0.27000
O 	O 	0.92640 0.34240 0.89611 -0.25200
O 	O 	0.94189 0.38878 0.92581 -0.40500
O 	O 	0.95879 0.49877 0.85867 -0.43800
O 	O 	0.96050 0.49423 0.80214 -0.47700
O 	O 	0.93348 0.31680 0.95616 -0.42000
O 	O 	0.54770 0.78860 0.02118 -0.43700
O 	O 	0.53828 0.84546 0.02133 -0.44800
O 	O 	0.48928 0.90140 0.12195 -0.40700
O 	O 	0.48780 0.87360 0.17170 -0.27000
O 	O 	0.57360 0.65760 0.39611 -0.25200
O 	O 	0.55811 0.61122 0.42581 -0.40500
O 	O 	0.54121 0.50123 0.35867 -0.43800
O 	O 	0.53950 0.50577 0.30214 -0.47700
O 	O 	0.56652 0.68320 0.45616 -0.42000
O 	O 	0.04770 0.71140 0.97882 -0.43700
O 	O 	0.03828 0.65454 0.97867 -0.44800
O 	O 	0.98928 0.59860 0.87805 -0.40700
O 	O 	0.98780 0.62640 0.82830 -0.27000
O 	O 	0.07360 0.84240 0.60389 -0.25200
O 	O 	0.05811 0.88878 0.57419 -0.40500
O 	O 	0.04121 0.99877 0.64133 -0.43800
O 	O 	0.03950 0.99423 0.69786 -0.47700
O 	O 	0.06652 0.81680 0.54384 -0.42000
O 	O 	0.45230 0.28860 0.47882 -0.43700
O 	O 	0.46172 0.34546 0.47867 -0.44800
O 	O 	0.51072 0.40140 0.37805 -0.40700
O 	O 	0.51220 0.37360 0.32830 -0.27000
O 	O 	0.42640 0.15760 0.10389 -0.25200
O 	O 	0.44189 0.11122 0.07419 -0.40500
O 	O 	0.45879 0.00123 0.14133 -0.43800
O 	O 	0.46050 0.00577 0.19786 -0.47700
O 	O 	0.43348 0.18320 0.04384 -0.42000
O 	O 	0.52118 0.95230 0.21140 -0.43700
O 	O 	0.52133 0.96172 0.15454 -0.44800
O 	O 	0.62195 0.01072 0.09860 -0.40700
O 	O 	0.67170 0.01220 0.12640 -0.27000
O 	O 	0.89611 0.92640 0.34240 -0.25200
O 	O 	0.92581 0.94189 0.38878 -0.40500
O 	O 	0.85867 0.95879 0.49877 -0.43800
O 	O 	0.80214 0.96050 0.49423 -0.47700
O 	O 	0.95616 0.93348 0.31680 -0.42000
O 	O 	0.02118 0.54770 0.78860 -0.43700
O 	O 	0.02133 0.53828 0.84546 -0.44800
O 	O 	0.12195 0.48928 0.90140 -0.40700
O 	O 	0.17170 0.48780 0.87360 -0.27000
O 	O 	0.39611 0.57360 0.65760 -0.25200
O 	O 	0.42581 0.55811 0.61122 -0.40500
O 	O 	0.35867 0.54121 0.50123 -0.43800
O 	O 	0.30214 0.53950 0.50577 -0.47700
O 	O 	0.45616 0.56652 0.68320 -0.42000
O 	O 	0.97882 0.04770 0.71140 -0.43700
O 	O 	0.97867 0.03828 0.65454 -0.44800
O 	O 	0.87805 0.98928 0.59860 -0.40700
O 	O 	0.82830 0.98780 0.62640 -0.27000
O 	O 	0.60389 0.07360 0.84240 -0.25200
O 	O 	0.57419 0.05811 0.88878 -0.40500
O 	O 	0.64133 0.04121 0.99877 -0.43800
O 	O 	0.69786 0.03950 0.99423 -0.47700
O 	O 	0.54384 0.06652 0.81680 -0.42000
O 	O 	0.47882 0.45230 0.28860 -0.43700
O 	O 	0.47867 0.46172 0.34546 -0.44800
O 	O 	0.37805 0.51072 0.40140 -0.40700
O 	O 	0.32830 0.51220 0.37360 -0.27000
O 	O 	0.10389 0.42640 0.15760 -0.25200
O 	O 	0.07419 0.44189 0.11122 -0.40500
O 	O 	0.14133 0.45879 0.00123 -0.43800
O 	O 	0.19786 0.46050 0.00577 -0.47700
O 	O 	0.04384 0.43348 0.18320 -0.42000
O 	O 	0.21140 0.52118 0.95230 -0.43700
O 	O 	0.15454 0.52133 0.96172 -0.44800
O 	O 	0.09860 0.62195 0.01072 -0.40700
O 	O 	0.12640 0.67170 0.01220 -0.27000
O 	O 	0.34240 0.89611 0.92640 -0.25200
O 	O 	0.38878 0.92581 0.94189 -0.40500
O 	O 	0.49877 0.85867 0.95879 -0.43800
O 	O 	0.49423 0.80214 0.96050 -0.47700
O 	O 	0.31680 0.95616 0.93348 -0.42000
O 	O 	0.78860 0.02118 0.54770 -0.43700
O 	O 	0.84546 0.02133 0.53828 -0.44800
O 	O 	0.90140 0.12195 0.48928 -0.40700
O 	O 	0.87360 0.17170 0.48780 -0.27000
O 	O 	0.65760 0.39611 0.57360 -0.25200
O 	O 	0.61122 0.42581 0.55811 -0.40500
O 	O 	0.50123 0.35867 0.54121 -0.43800
O 	O 	0.50577 0.30214 0.53950 -0.47700
O 	O 	0.68320 0.45616 0.56652 -0.42000
O 	O 	0.71140 0.97882 0.04770 -0.43700
O 	O 	0.65454 0.97867 0.03828 -0.44800
O 	O 	0.59860 0.87805 0.98928 -0.40700
O 	O 	0.62640 0.82830 0.98780 -0.27000
O 	O 	0.84240 0.60389 0.07360 -0.25200
O 	O 	0.88878 0.57419 0.05811 -0.40500
O 	O 	0.99877 0.64133 0.04121 -0.43800
O 	O 	0.99423 0.69786 0.03950 -0.47700
O 	O 	0.81680 0.54384 0.06652 -0.42000
O 	O 	0.28860 0.47882 0.45230 -0.43700
O 	O 	0.34546 0.47867 0.46172 -0.44800
O 	O 	0.40140 0.37805 0.51072 -0.40700
O 	O 	0.37360 0.32830 0.51220 -0.27000
O 	O 	0.15760 0.10389 0.42640 -0.25200
O 	O 	0.11122 0.07419 0.44189 -0.40500
O 	O 	0.00123 0.14133 0.45879 -0.43800
O 	O 	0.00577 0.19786 0.46050 -0.47700
O 	O 	0.18320 0.04384 0.43348 -0.42000
O 	O 	0.04770 0.78860 0.47882 -0.43700
O 	O 	0.03828 0.84546 0.47867 -0.44800
O 	O 	0.98928 0.90140 0.37805 -0.40700
O 	O 	0.98780 0.87360 0.32830 -0.27000
O 	O 	0.07360 0.65760 0.10389 -0.25200
O 	O 	0.05811 0.61122 0.07419 -0.40500
O 	O 	0.04121 0.50123 0.14133 -0.43800
O 	O 	0.03950 0.50577 0.19786 -0.47700
O 	O 	0.06652 0.68320 0.04384 -0.42000
O 	O 	0.45230 0.21140 0.97882 -0.43700
O 	O 	0.46172 0.15454 0.97867 -0.44800
O 	O 	0.51072 0.09860 0.87805 -0.40700
O 	O 	0.51220 0.12640 0.82830 -0.27000
O 	O 	0.42640 0.34240 0.60389 -0.25200
O 	O 	0.44189 0.38878 0.57419 -0.40500
O 	O 	0.45879 0.49877 0.64133 -0.43800
O 	O 	0.46050 0.49423 0.69786 -0.47700
O 	O 	0.43348 0.31680 0.54384 -0.42000
O 	O 	0.95230 0.28860 0.02118 -0.43700
O 	O 	0.96172 0.34546 0.02133 -0.44800
O 	O 	0.01072 0.40140 0.12195 -0.40700
O 	O 	0.01220 0.37360 0.17170 -0.27000
O 	O 	0.92640 0.15760 0.39611 -0.25200
O 	O 	0.94189 0.11122 0.42581 -0.40500
O 	O 	0.95879 0.00123 0.35867 -0.43800
O 	O 	0.96050 0.00577 0.30214 -0.47700
O 	O 	0.93348 0.18320 0.45616 -0.42000
O 	O 	0.54770 0.71140 0.52118 -0.43700
O 	O 	0.53828 0.65454 0.52133 -0.44800
O 	O 	0.48928 0.59860 0.62195 -0.40700
O 	O 	0.48780 0.62640 0.67170 -0.27000
O 	O 	0.57360 0.84240 0.89611 -0.25200
O 	O 	0.55811 0.88878 0.92581 -0.40500
O 	O 	0.54121 0.99877 0.85867 -0.43800
O 	O 	0.53950 0.99423 0.80214 -0.47700
O 	O 	0.56652 0.81680 0.95616 -0.42000
O 	O 	0.47882 0.04770 0.78860 -0.43700
O 	O 	0.47867 0.03828 0.84546 -0.44800
O 	O 	0.37805 0.98928 0.90140 -0.40700
O 	O 	0.32830 0.98780 0.87360 -0.27000
O 	O 	0.10389 0.07360 0.65760 -0.25200
O 	O 	0.07419 0.05811 0.61122 -0.40500
O 	O 	0.14133 0.04121 0.50123 -0.43800
O 	O 	0.19786 0.03950 0.50577 -0.47700
O 	O 	0.04384 0.06652 0.68320 -0.42000
O 	O 	0.97882 0.45230 0.21140 -0.43700
O 	O 	0.97867 0.46172 0.15454 -0.44800
O 	O 	0.87805 0.51072 0.09860 -0.40700
O 	O 	0.82830 0.51220 0.12640 -0.27000
O 	O 	0.60389 0.42640 0.34240 -0.25200
O 	O 	0.57419 0.44189 0.38878 -0.40500
O 	O 	0.64133 0.45879 0.49877 -0.43800
O 	O 	0.69786 0.46050 0.49423 -0.47700
O 	O 	0.54384 0.43348 0.31680 -0.42000
O 	O 	0.02118 0.95230 0.28860 -0.43700
O 	O 	0.02133 0.96172 0.34546 -0.44800
O 	O 	0.12195 0.01072 0.40140 -0.40700
O 	O 	0.17170 0.01220 0.37360 -0.27000
O 	O 	0.39611 0.92640 0.15760 -0.25200
O 	O 	0.42581 0.94189 0.11122 -0.40500
O 	O 	0.35867 0.95879 0.00123 -0.43800
O 	O 	0.30214 0.96050 0.00577 -0.47700
O 	O 	0.45616 0.93348 0.18320 -0.42000
O 	O 	0.52118 0.54770 0.71140 -0.43700
O 	O 	0.52133 0.53828 0.65454 -0.44800
O 	O 	0.62195 0.48928 0.59860 -0.40700
O 	O 	0.67170 0.48780 0.62640 -0.27000
O 	O 	0.89611 0.57360 0.84240 -0.25200
O 	O 	0.92581 0.55811 0.88878 -0.40500
O 	O 	0.85867 0.54121 0.99877 -0.43800
O 	O 	0.80214 0.53950 0.99423 -0.47700
O 	O 	0.95616 0.56652 0.81680 -0.42000
O 	O 	0.78860 0.47882 0.04770 -0.43700
O 	O 	0.84546 0.47867 0.03828 -0.44800
O 	O 	0.90140 0.37805 0.98928 -0.40700
O 	O 	0.87360 0.32830 0.98780 -0.27000
O 	O 	0.65760 0.10389 0.07360 -0.25200
O 	O 	0.61122 0.07419 0.05811 -0.40500
O 	O 	0.50123 0.14133 0.04121 -0.43800
O 	O 	0.50577 0.19786 0.03950 -0.47700
O 	O 	0.68320 0.04384 0.06652 -0.42000
O 	O 	0.21140 0.97882 0.45230 -0.43700
O 	O 	0.15454 0.97867 0.46172 -0.44800
O 	O 	0.09860 0.87805 0.51072 -0.40700
O 	O 	0.12640 0.82830 0.51220 -0.27000
O 	O 	0.34240 0.60389 0.42640 -0.25200
O 	O 	0.38878 0.57419 0.44189 -0.40500
O 	O 	0.49877 0.64133 0.45879 -0.43800
O 	O 	0.49423 0.69786 0.46050 -0.47700
O 	O 	0.31680 0.54384 0.43348 -0.42000
O 	O 	0.28860 0.02118 0.95230 -0.43700
O 	O 	0.34546 0.02133 0.96172 -0.44800
O 	O 	0.40140 0.12195 0.01072 -0.40700
O 	O 	0.37360 0.17170 0.01220 -0.27000
O 	O 	0.15760 0.39611 0.92640 -0.25200
O 	O 	0.11122 0.42581 0.94189 -0.40500
O 	O 	0.00123 0.35867 0.95879 -0.43800
O 	O 	0.00577 0.30214 0.96050 -0.47700
O 	O 	0.18320 0.45616 0.93348 -0.42000
O 	O 	0.71140 0.52118 0.54770 -0.43700
O 	O 	0.65454 0.52133 0.53828 -0.44800
O 	O 	0.59860 0.62195 0.48928 -0.40700
O 	O 	0.62640 0.67170 0.48780 -0.27000
O 	O 	0.84240 0.89611 0.57360 -0.25200
O 	O 	0.88878 0.92581 0.55811 -0.40500
O 	O 	0.99877 0.85867 0.54121 -0.43800
O 	O 	0.99423 0.80214 0.53950 -0.47700
O 	O 	0.81680 0.95616 0.56652 -0.42000
