data_crystal

_cell_length_a 38.45940
_cell_length_b 38.45940
_cell_length_c 38.45940
_cell_angle_alpha 60.00000
_cell_angle_beta  60.00000
_cell_angle_gamma 60.00000

_symmetry_space_group_name_	'P 1'
_symmetry_space_group_name_H-M	'P 1'

loop_
_symmetry_equiv_pos_as_xyz
  x,y,z

loop_
_atom_site_label
_atom_site_type_symbol
_atom_site_fract_x
_atom_site_fract_y
_atom_site_fract_z
_atom_site_charge
Cu	Cu	0.72494 0.00000 0.27506 0.88400
Cu	Cu	0.79452 1.00000 0.20548 0.93500
Cu	Cu	-0.00000 0.72494 -0.00000 0.86600
Cu	Cu	-0.00000 0.79452 -0.00000 0.88700
Cu	Cu	0.27506 0.00000 0.72494 0.88500
Cu	Cu	0.20548 0.00000 0.79452 0.90600
Cu	Cu	0.00000 0.27506 -0.00000 0.86600
Cu	Cu	-0.00000 0.20548 -0.00000 0.88500
Cu	Cu	0.72494 0.27506 -0.00000 0.88300
Cu	Cu	0.79452 0.20548 -0.00000 0.90300
Cu	Cu	0.00000 0.00000 0.27506 0.86800
Cu	Cu	-0.00000 0.00000 0.20548 0.88800
Cu	Cu	0.27506 0.72494 -0.00000 0.88400
Cu	Cu	0.20548 0.79452 -0.00000 0.90400
Cu	Cu	-0.00000 0.00000 0.72494 0.87000
Cu	Cu	-0.00000 0.00000 0.79452 0.89100
Cu	Cu	0.72494 0.00000 -0.00000 0.87000
Cu	Cu	0.79452 0.00000 -0.00000 0.89100
Cu	Cu	-0.00000 0.27506 0.72494 0.88400
Cu	Cu	-0.00000 0.20548 0.79452 0.90400
Cu	Cu	0.27506 0.00000 -0.00000 0.86900
Cu	Cu	0.20548 0.00000 -0.00000 0.88900
Cu	Cu	-0.00000 0.72494 0.27506 0.88400
Cu	Cu	-0.00000 0.79452 0.20548 0.90400
Cu	Cu	0.60990 0.08840 0.60990 0.80200
Cu	Cu	0.08840 0.60990 0.69180 0.80200
Cu	Cu	0.60990 0.69180 0.60990 0.80400
Cu	Cu	0.69180 0.60990 0.08840 0.80200
Cu	Cu	0.60990 0.60990 0.69180 0.80400
Cu	Cu	0.08840 0.69180 0.60990 0.80200
Cu	Cu	0.60990 0.60990 0.08840 0.80200
Cu	Cu	0.69180 0.08840 0.60990 0.80300
Cu	Cu	0.60990 0.69180 0.08840 0.80200
Cu	Cu	0.08840 0.60990 0.60990 0.80200
Cu	Cu	0.60990 0.08840 0.69180 0.80300
Cu	Cu	0.69180 0.60990 0.60990 0.80400
Cu	Cu	0.91160 0.39010 0.39010 0.80400
Cu	Cu	0.39010 0.91160 0.30820 0.80300
Cu	Cu	0.30820 0.39010 0.39010 0.80100
Cu	Cu	0.39010 0.30820 0.91160 0.80400
Cu	Cu	0.39010 0.39010 0.30820 0.80100
Cu	Cu	0.30820 0.91160 0.39010 0.80300
Cu	Cu	0.39010 0.39010 0.91160 0.80400
Cu	Cu	0.91160 0.30820 0.39010 0.80400
Cu	Cu	0.30820 0.39010 0.91160 0.80400
Cu	Cu	0.39010 0.91160 0.39010 0.80400
Cu	Cu	0.91160 0.39010 0.30820 0.80400
Cu	Cu	0.39010 0.30820 0.39010 0.80100
H 	H 	0.76040 0.02780 0.34580 0.03400
H 	H 	0.68770 0.06290 0.45770 0.02200
H 	H 	0.72700 0.04140 0.39880 0.05400
H 	H 	0.02780 0.76040 0.86600 0.03700
H 	H 	0.06290 0.68770 0.79170 0.02400
H 	H 	0.04140 0.72700 0.83280 0.05600
H 	H 	0.34580 0.86600 0.76040 0.04100
H 	H 	0.45770 0.79170 0.68770 0.02600
H 	H 	0.39880 0.83280 0.72700 0.05900
H 	H 	0.86600 0.34580 0.02780 0.03600
H 	H 	0.79170 0.45770 0.06290 0.02400
H 	H 	0.83280 0.39880 0.04140 0.05600
H 	H 	0.76040 0.34580 0.86600 0.04100
H 	H 	0.68770 0.45770 0.79170 0.02700
H 	H 	0.72700 0.39880 0.83280 0.05900
H 	H 	0.02780 0.86600 0.34580 0.03500
H 	H 	0.06290 0.79170 0.45770 0.02300
H 	H 	0.04140 0.83280 0.39880 0.05600
H 	H 	0.34580 0.76040 0.02780 0.03300
H 	H 	0.45770 0.68770 0.06290 0.02200
H 	H 	0.39880 0.72700 0.04140 0.05400
H 	H 	0.86600 0.02780 0.76040 0.03800
H 	H 	0.79170 0.06290 0.68770 0.02400
H 	H 	0.83280 0.04140 0.72700 0.05700
H 	H 	0.76040 0.86600 0.02780 0.03700
H 	H 	0.68770 0.79170 0.06290 0.02400
H 	H 	0.72700 0.83280 0.04140 0.05600
H 	H 	0.02780 0.34580 0.76040 0.03300
H 	H 	0.06290 0.45770 0.68770 0.02200
H 	H 	0.04140 0.39880 0.72700 0.05400
H 	H 	0.34580 0.02780 0.86600 0.03600
H 	H 	0.45770 0.06290 0.79170 0.02400
H 	H 	0.39880 0.04140 0.83280 0.05700
H 	H 	0.86600 0.76040 0.34580 0.04100
H 	H 	0.79170 0.68770 0.45770 0.02700
H 	H 	0.83280 0.72700 0.39880 0.05900
H 	H 	0.97220 0.23960 0.65420 0.04100
H 	H 	0.93710 0.31230 0.54230 0.02600
H 	H 	0.95860 0.27300 0.60120 0.05900
H 	H 	0.23960 0.97220 0.13400 0.03700
H 	H 	0.31230 0.93710 0.20830 0.02400
H 	H 	0.27300 0.95860 0.16720 0.05700
H 	H 	0.13400 0.65420 0.23960 0.03200
H 	H 	0.20830 0.54230 0.31230 0.02200
H 	H 	0.16720 0.60120 0.27300 0.05400
H 	H 	0.65420 0.13400 0.97220 0.03900
H 	H 	0.54230 0.20830 0.93710 0.02500
H 	H 	0.60120 0.16720 0.95860 0.05700
H 	H 	0.65420 0.23960 0.13400 0.03200
H 	H 	0.54230 0.31230 0.20830 0.02200
H 	H 	0.60120 0.27300 0.16720 0.05400
H 	H 	0.13400 0.97220 0.65420 0.03800
H 	H 	0.20830 0.93710 0.54230 0.02400
H 	H 	0.16720 0.95860 0.60120 0.05700
H 	H 	0.23960 0.65420 0.97220 0.04100
H 	H 	0.31230 0.54230 0.93710 0.02600
H 	H 	0.27300 0.60120 0.95860 0.05900
H 	H 	0.97220 0.13400 0.23960 0.03800
H 	H 	0.93710 0.20830 0.31230 0.02500
H 	H 	0.95860 0.16720 0.27300 0.05700
H 	H 	0.13400 0.23960 0.97220 0.03700
H 	H 	0.20830 0.31230 0.93710 0.02500
H 	H 	0.16720 0.27300 0.95860 0.05700
H 	H 	0.65420 0.97220 0.23960 0.04000
H 	H 	0.54230 0.93710 0.31230 0.02600
H 	H 	0.60120 0.95860 0.27300 0.05900
H 	H 	0.97220 0.65420 0.13400 0.03800
H 	H 	0.93710 0.54230 0.20830 0.02500
H 	H 	0.95860 0.60120 0.16720 0.05700
H 	H 	0.23960 0.13400 0.65420 0.03300
H 	H 	0.31230 0.20830 0.54230 0.02200
H 	H 	0.27300 0.16720 0.60120 0.05400
H 	H 	0.23960 0.97220 0.65420 0.04000
H 	H 	0.31230 0.93710 0.54230 0.02600
H 	H 	0.27300 0.95860 0.60120 0.05900
H 	H 	0.97220 0.23960 0.13400 0.03800
H 	H 	0.93710 0.31230 0.20830 0.02500
H 	H 	0.95860 0.27300 0.16720 0.05700
H 	H 	0.65420 0.13400 0.23960 0.03200
H 	H 	0.54230 0.20830 0.31230 0.02200
H 	H 	0.60120 0.16720 0.27300 0.05400
H 	H 	0.13400 0.65420 0.97220 0.03800
H 	H 	0.20830 0.54230 0.93710 0.02500
H 	H 	0.16720 0.60120 0.95860 0.05700
H 	H 	0.23960 0.65420 0.13400 0.03200
H 	H 	0.31230 0.54230 0.20830 0.02200
H 	H 	0.27300 0.60120 0.16720 0.05400
H 	H 	0.97220 0.13400 0.65420 0.03900
H 	H 	0.93710 0.20830 0.54230 0.02500
H 	H 	0.95860 0.16720 0.60120 0.05700
H 	H 	0.65420 0.23960 0.97220 0.04100
H 	H 	0.54230 0.31230 0.93710 0.02600
H 	H 	0.60120 0.27300 0.95860 0.05900
H 	H 	0.13400 0.97220 0.23960 0.03700
H 	H 	0.20830 0.93710 0.31230 0.02400
H 	H 	0.16720 0.95860 0.27300 0.05700
H 	H 	0.23960 0.13400 0.97220 0.03800
H 	H 	0.31230 0.20830 0.93710 0.02500
H 	H 	0.27300 0.16720 0.95860 0.05700
H 	H 	0.97220 0.65420 0.23960 0.04000
H 	H 	0.93710 0.54230 0.31230 0.02600
H 	H 	0.95860 0.60120 0.27300 0.05900
H 	H 	0.65420 0.97220 0.13400 0.03800
H 	H 	0.54230 0.93710 0.20830 0.02400
H 	H 	0.60120 0.95860 0.16720 0.05700
H 	H 	0.13400 0.23960 0.65420 0.03200
H 	H 	0.20830 0.31230 0.54230 0.02200
H 	H 	0.16720 0.27300 0.60120 0.05400
H 	H 	0.02780 0.76040 0.34580 0.03300
H 	H 	0.06290 0.68770 0.45770 0.02200
H 	H 	0.04140 0.72700 0.39880 0.05400
H 	H 	0.76040 0.02780 0.86600 0.03800
H 	H 	0.68770 0.06290 0.79170 0.02400
H 	H 	0.72700 0.04140 0.83280 0.05700
H 	H 	0.86600 0.34580 0.76040 0.04100
H 	H 	0.79170 0.45770 0.68770 0.02700
H 	H 	0.83280 0.39880 0.72700 0.05900
H 	H 	0.34580 0.86600 0.02780 0.03500
H 	H 	0.45770 0.79170 0.06290 0.02300
H 	H 	0.39880 0.83280 0.04140 0.05600
H 	H 	0.34580 0.76040 0.86600 0.04100
H 	H 	0.45770 0.68770 0.79170 0.02700
H 	H 	0.39880 0.72700 0.83280 0.05900
H 	H 	0.86600 0.02780 0.34580 0.03600
H 	H 	0.79170 0.06290 0.45770 0.02400
H 	H 	0.83280 0.04140 0.39880 0.05700
H 	H 	0.76040 0.34580 0.02780 0.03300
H 	H 	0.68770 0.45770 0.06290 0.02200
H 	H 	0.72700 0.39880 0.04140 0.05400
H 	H 	0.02780 0.86600 0.76040 0.03700
H 	H 	0.06290 0.79170 0.68770 0.02400
H 	H 	0.04140 0.83280 0.72700 0.05600
H 	H 	0.86600 0.76040 0.02780 0.03700
H 	H 	0.79170 0.68770 0.06290 0.02400
H 	H 	0.83280 0.72700 0.04140 0.05600
H 	H 	0.34580 0.02780 0.76040 0.03400
H 	H 	0.45770 0.06290 0.68770 0.02200
H 	H 	0.39880 0.04140 0.72700 0.05400
H 	H 	0.02780 0.34580 0.86600 0.03600
H 	H 	0.06290 0.45770 0.79170 0.02400
H 	H 	0.04140 0.39880 0.83280 0.05600
H 	H 	0.76040 0.86600 0.34580 0.04000
H 	H 	0.68770 0.79170 0.45770 0.02600
H 	H 	0.72700 0.83280 0.39880 0.05900
H 	H 	0.86870 0.01570 0.24690 0.04200
H 	H 	0.01570 0.86870 0.86870 0.04600
H 	H 	0.24690 0.86870 0.86870 0.05100
H 	H 	0.86870 0.24690 0.01570 0.04100
H 	H 	0.86870 0.24690 0.86870 0.05100
H 	H 	0.01570 0.86870 0.24690 0.04100
H 	H 	0.24690 0.86870 0.01570 0.04100
H 	H 	0.86870 0.01570 0.86870 0.04700
H 	H 	0.86870 0.86870 0.01570 0.04600
H 	H 	0.01570 0.24690 0.86870 0.04100
H 	H 	0.24690 0.01570 0.86870 0.04200
H 	H 	0.86870 0.86870 0.24690 0.05000
H 	H 	0.98430 0.13130 0.75310 0.05000
H 	H 	0.13130 0.98430 0.13130 0.04400
H 	H 	0.13130 0.75310 0.13130 0.03800
H 	H 	0.75310 0.13130 0.98430 0.04900
H 	H 	0.75310 0.13130 0.13130 0.03800
H 	H 	0.13130 0.98430 0.75310 0.04800
H 	H 	0.13130 0.75310 0.98430 0.04900
H 	H 	0.98430 0.13130 0.13130 0.04500
H 	H 	0.13130 0.13130 0.98430 0.04500
H 	H 	0.75310 0.98430 0.13130 0.04800
H 	H 	0.98430 0.75310 0.13130 0.04900
H 	H 	0.13130 0.13130 0.75310 0.03900
C 	C 	0.81158 0.02138 0.29302 -0.11500
C 	C 	0.78937 0.02611 0.33229 0.01200
C 	C 	0.79270 0.01750 0.27370 0.29400
C 	C 	0.71740 0.05840 0.44580 -0.00500
C 	C 	0.74058 0.04572 0.41068 -0.09500
C 	C 	0.02138 0.81158 0.87402 -0.10800
C 	C 	0.02611 0.78937 0.85223 0.00900
C 	C 	0.01750 0.79270 0.91610 0.28900
C 	C 	0.05840 0.71740 0.77840 -0.00500
C 	C 	0.04572 0.74058 0.80302 -0.09400
C 	C 	0.29302 0.87402 0.81158 -0.10100
C 	C 	0.33229 0.85223 0.78937 0.00600
C 	C 	0.27370 0.91610 0.79270 0.28800
C 	C 	0.44580 0.77840 0.71740 -0.00300
C 	C 	0.41068 0.80302 0.74058 -0.09200
C 	C 	0.87402 0.29302 0.02138 -0.11200
C 	C 	0.85223 0.33229 0.02611 0.01100
C 	C 	0.91610 0.27370 0.01750 0.29000
C 	C 	0.77840 0.44580 0.05840 -0.00500
C 	C 	0.80302 0.41068 0.04572 -0.09500
C 	C 	0.81158 0.29302 0.87402 -0.10000
C 	C 	0.78937 0.33229 0.85223 0.00600
C 	C 	0.79270 0.27370 0.91610 0.28700
C 	C 	0.71740 0.44580 0.77840 -0.00300
C 	C 	0.74058 0.41068 0.80302 -0.09200
C 	C 	0.02138 0.87402 0.29302 -0.11300
C 	C 	0.02611 0.85223 0.33229 0.01100
C 	C 	0.01750 0.91610 0.27370 0.29000
C 	C 	0.05840 0.77840 0.44580 -0.00500
C 	C 	0.04572 0.80302 0.41068 -0.09500
C 	C 	0.29302 0.81158 0.02138 -0.11600
C 	C 	0.33229 0.78937 0.02611 0.01200
C 	C 	0.27370 0.79270 0.01750 0.29300
C 	C 	0.44580 0.71740 0.05840 -0.00500
C 	C 	0.41068 0.74058 0.04572 -0.09500
C 	C 	0.87402 0.02138 0.81158 -0.10600
C 	C 	0.85223 0.02611 0.78937 0.00800
C 	C 	0.91610 0.01750 0.79270 0.28800
C 	C 	0.77840 0.05840 0.71740 -0.00500
C 	C 	0.80302 0.04572 0.74058 -0.09300
C 	C 	0.81158 0.87402 0.02138 -0.10800
C 	C 	0.78937 0.85223 0.02611 0.00900
C 	C 	0.79270 0.91610 0.01750 0.28900
C 	C 	0.71740 0.77840 0.05840 -0.00500
C 	C 	0.74058 0.80302 0.04572 -0.09400
C 	C 	0.02138 0.29302 0.81158 -0.11500
C 	C 	0.02611 0.33229 0.78937 0.01200
C 	C 	0.01750 0.27370 0.79270 0.29300
C 	C 	0.05840 0.44580 0.71740 -0.00500
C 	C 	0.04572 0.41068 0.74058 -0.09500
C 	C 	0.29302 0.02138 0.87402 -0.11100
C 	C 	0.33229 0.02611 0.85223 0.01100
C 	C 	0.27370 0.01750 0.91610 0.29000
C 	C 	0.44580 0.05840 0.77840 -0.00500
C 	C 	0.41068 0.04572 0.80302 -0.09400
C 	C 	0.87402 0.81158 0.29302 -0.10100
C 	C 	0.85223 0.78937 0.33229 0.00700
C 	C 	0.91610 0.79270 0.27370 0.28800
C 	C 	0.77840 0.71740 0.44580 -0.00300
C 	C 	0.80302 0.74058 0.41068 -0.09200
C 	C 	0.97862 0.18842 0.70698 -0.10100
C 	C 	0.97389 0.21063 0.66771 0.00700
C 	C 	0.98250 0.20730 0.72630 0.28800
C 	C 	0.94160 0.28260 0.55420 -0.00300
C 	C 	0.95428 0.25942 0.58932 -0.09200
C 	C 	0.18842 0.97862 0.12598 -0.10900
C 	C 	0.21063 0.97389 0.14777 0.01000
C 	C 	0.20730 0.98250 0.08390 0.29000
C 	C 	0.28260 0.94160 0.22160 -0.00400
C 	C 	0.25942 0.95428 0.19698 -0.09400
C 	C 	0.12598 0.70698 0.18842 -0.11900
C 	C 	0.14777 0.66771 0.21063 0.01400
C 	C 	0.08390 0.72630 0.20730 0.29400
C 	C 	0.22160 0.55420 0.28260 -0.00600
C 	C 	0.19698 0.58932 0.25942 -0.09600
C 	C 	0.70698 0.12598 0.97862 -0.10300
C 	C 	0.66771 0.14777 0.97389 0.00700
C 	C 	0.72630 0.08390 0.98250 0.28800
C 	C 	0.55420 0.22160 0.94160 -0.00300
C 	C 	0.58932 0.19698 0.95428 -0.09200
C 	C 	0.70698 0.18842 0.12598 -0.11900
C 	C 	0.66771 0.21063 0.14777 0.01400
C 	C 	0.72630 0.20730 0.08390 0.29400
C 	C 	0.55420 0.28260 0.22160 -0.00600
C 	C 	0.58932 0.25942 0.19698 -0.09600
C 	C 	0.12598 0.97862 0.70698 -0.10600
C 	C 	0.14777 0.97389 0.66771 0.00800
C 	C 	0.08390 0.98250 0.72630 0.28900
C 	C 	0.22160 0.94160 0.55420 -0.00400
C 	C 	0.19698 0.95428 0.58932 -0.09300
C 	C 	0.18842 0.70698 0.97862 -0.10200
C 	C 	0.21063 0.66771 0.97389 0.00700
C 	C 	0.20730 0.72630 0.98250 0.28800
C 	C 	0.28260 0.55420 0.94160 -0.00300
C 	C 	0.25942 0.58932 0.95428 -0.09200
C 	C 	0.97862 0.12598 0.18842 -0.10700
C 	C 	0.97389 0.14777 0.21063 0.00900
C 	C 	0.98250 0.08390 0.20730 0.28900
C 	C 	0.94160 0.22160 0.28260 -0.00400
C 	C 	0.95428 0.19698 0.25942 -0.09300
C 	C 	0.12598 0.18842 0.97862 -0.10700
C 	C 	0.14777 0.21063 0.97389 0.00900
C 	C 	0.08390 0.20730 0.98250 0.28900
C 	C 	0.22160 0.28260 0.94160 -0.00400
C 	C 	0.19698 0.25942 0.95428 -0.09300
C 	C 	0.70698 0.97862 0.18842 -0.10400
C 	C 	0.66771 0.97389 0.21063 0.00800
C 	C 	0.72630 0.98250 0.20730 0.28900
C 	C 	0.55420 0.94160 0.28260 -0.00300
C 	C 	0.58932 0.95428 0.25942 -0.09300
C 	C 	0.97862 0.70698 0.12598 -0.10400
C 	C 	0.97389 0.66771 0.14777 0.00700
C 	C 	0.98250 0.72630 0.08390 0.28800
C 	C 	0.94160 0.55420 0.22160 -0.00400
C 	C 	0.95428 0.58932 0.19698 -0.09300
C 	C 	0.18842 0.12598 0.70698 -0.11800
C 	C 	0.21063 0.14777 0.66771 0.01300
C 	C 	0.20730 0.08390 0.72630 0.29300
C 	C 	0.28260 0.22160 0.55420 -0.00600
C 	C 	0.25942 0.19698 0.58932 -0.09600
C 	C 	0.18842 0.97862 0.70698 -0.10300
C 	C 	0.21063 0.97389 0.66771 0.00800
C 	C 	0.20730 0.98250 0.72630 0.28800
C 	C 	0.28260 0.94160 0.55420 -0.00300
C 	C 	0.25942 0.95428 0.58932 -0.09300
C 	C 	0.97862 0.18842 0.12598 -0.10700
C 	C 	0.97389 0.21063 0.14777 0.00900
C 	C 	0.98250 0.20730 0.08390 0.28900
C 	C 	0.94160 0.28260 0.22160 -0.00400
C 	C 	0.95428 0.25942 0.19698 -0.09300
C 	C 	0.70698 0.12598 0.18842 -0.11900
C 	C 	0.66771 0.14777 0.21063 0.01400
C 	C 	0.72630 0.08390 0.20730 0.29400
C 	C 	0.55420 0.22160 0.28260 -0.00500
C 	C 	0.58932 0.19698 0.25942 -0.09600
C 	C 	0.12598 0.70698 0.97862 -0.10400
C 	C 	0.14777 0.66771 0.97389 0.00700
C 	C 	0.08390 0.72630 0.98250 0.28800
C 	C 	0.22160 0.55420 0.94160 -0.00400
C 	C 	0.19698 0.58932 0.95428 -0.09300
C 	C 	0.18842 0.70698 0.12598 -0.11900
C 	C 	0.21063 0.66771 0.14777 0.01400
C 	C 	0.20730 0.72630 0.08390 0.29400
C 	C 	0.28260 0.55420 0.22160 -0.00600
C 	C 	0.25942 0.58932 0.19698 -0.09600
C 	C 	0.97862 0.12598 0.70698 -0.10300
C 	C 	0.97389 0.14777 0.66771 0.00700
C 	C 	0.98250 0.08390 0.72630 0.28800
C 	C 	0.94160 0.22160 0.55420 -0.00300
C 	C 	0.95428 0.19698 0.58932 -0.09200
C 	C 	0.70698 0.18842 0.97862 -0.10200
C 	C 	0.66771 0.21063 0.97389 0.00700
C 	C 	0.72630 0.20730 0.98250 0.28800
C 	C 	0.55420 0.28260 0.94160 -0.00300
C 	C 	0.58932 0.25942 0.95428 -0.09200
C 	C 	0.12598 0.97862 0.18842 -0.10900
C 	C 	0.14777 0.97389 0.21063 0.01000
C 	C 	0.08390 0.98250 0.20730 0.29000
C 	C 	0.22160 0.94160 0.28260 -0.00400
C 	C 	0.19698 0.95428 0.25942 -0.09400
C 	C 	0.18842 0.12598 0.97862 -0.10700
C 	C 	0.21063 0.14777 0.97389 0.00900
C 	C 	0.20730 0.08390 0.98250 0.28900
C 	C 	0.28260 0.22160 0.94160 -0.00400
C 	C 	0.25942 0.19698 0.95428 -0.09300
C 	C 	0.97862 0.70698 0.18842 -0.10200
C 	C 	0.97389 0.66771 0.21063 0.00700
C 	C 	0.98250 0.72630 0.20730 0.28800
C 	C 	0.94160 0.55420 0.28260 -0.00300
C 	C 	0.95428 0.58932 0.25942 -0.09200
C 	C 	0.70698 0.97862 0.12598 -0.10600
C 	C 	0.66771 0.97389 0.14777 0.00800
C 	C 	0.72630 0.98250 0.08390 0.28900
C 	C 	0.55420 0.94160 0.22160 -0.00400
C 	C 	0.58932 0.95428 0.19698 -0.09300
C 	C 	0.12598 0.18842 0.70698 -0.11800
C 	C 	0.14777 0.21063 0.66771 0.01300
C 	C 	0.08390 0.20730 0.72630 0.29300
C 	C 	0.22160 0.28260 0.55420 -0.00600
C 	C 	0.19698 0.25942 0.58932 -0.09600
C 	C 	0.02138 0.81158 0.29302 -0.11600
C 	C 	0.02611 0.78937 0.33229 0.01200
C 	C 	0.01750 0.79270 0.27370 0.29300
C 	C 	0.05840 0.71740 0.44580 -0.00500
C 	C 	0.04572 0.74058 0.41068 -0.09500
C 	C 	0.81158 0.02138 0.87402 -0.10600
C 	C 	0.78937 0.02611 0.85223 0.00800
C 	C 	0.79270 0.01750 0.91610 0.28800
C 	C 	0.71740 0.05840 0.77840 -0.00500
C 	C 	0.74058 0.04572 0.80302 -0.09300
C 	C 	0.87402 0.29302 0.81158 -0.10000
C 	C 	0.85223 0.33229 0.78937 0.00600
C 	C 	0.91610 0.27370 0.79270 0.28700
C 	C 	0.77840 0.44580 0.71740 -0.00300
C 	C 	0.80302 0.41068 0.74058 -0.09200
C 	C 	0.29302 0.87402 0.02138 -0.11300
C 	C 	0.33229 0.85223 0.02611 0.01100
C 	C 	0.27370 0.91610 0.01750 0.29000
C 	C 	0.44580 0.77840 0.05840 -0.00500
C 	C 	0.41068 0.80302 0.04572 -0.09500
C 	C 	0.29302 0.81158 0.87402 -0.10000
C 	C 	0.33229 0.78937 0.85223 0.00600
C 	C 	0.27370 0.79270 0.91610 0.28700
C 	C 	0.44580 0.71740 0.77840 -0.00300
C 	C 	0.41068 0.74058 0.80302 -0.09200
C 	C 	0.87402 0.02138 0.29302 -0.11100
C 	C 	0.85223 0.02611 0.33229 0.01100
C 	C 	0.91610 0.01750 0.27370 0.29000
C 	C 	0.77840 0.05840 0.44580 -0.00500
C 	C 	0.80302 0.04572 0.41068 -0.09500
C 	C 	0.81158 0.29302 0.02138 -0.11500
C 	C 	0.78937 0.33229 0.02611 0.01200
C 	C 	0.79270 0.27370 0.01750 0.29300
C 	C 	0.71740 0.44580 0.05840 -0.00500
C 	C 	0.74058 0.41068 0.04572 -0.09500
C 	C 	0.02138 0.87402 0.81158 -0.10800
C 	C 	0.02611 0.85223 0.78937 0.00900
C 	C 	0.01750 0.91610 0.79270 0.28900
C 	C 	0.05840 0.77840 0.71740 -0.00500
C 	C 	0.04572 0.80302 0.74058 -0.09400
C 	C 	0.87402 0.81158 0.02138 -0.10800
C 	C 	0.85223 0.78937 0.02611 0.00900
C 	C 	0.91610 0.79270 0.01750 0.28900
C 	C 	0.77840 0.71740 0.05840 -0.00500
C 	C 	0.80302 0.74058 0.04572 -0.09400
C 	C 	0.29302 0.02138 0.81158 -0.11400
C 	C 	0.33229 0.02611 0.78937 0.01100
C 	C 	0.27370 0.01750 0.79270 0.29300
C 	C 	0.44580 0.05840 0.71740 -0.00500
C 	C 	0.41068 0.04572 0.74058 -0.09500
C 	C 	0.02138 0.29302 0.87402 -0.11200
C 	C 	0.02611 0.33229 0.85223 0.01100
C 	C 	0.01750 0.27370 0.91610 0.29000
C 	C 	0.05840 0.44580 0.77840 -0.00500
C 	C 	0.04572 0.41068 0.80302 -0.09500
C 	C 	0.81158 0.87402 0.29302 -0.10200
C 	C 	0.78937 0.85223 0.33229 0.00700
C 	C 	0.79270 0.91610 0.27370 0.28900
C 	C 	0.71740 0.77840 0.44580 -0.00300
C 	C 	0.74058 0.80302 0.41068 -0.09200
C 	C 	0.85340 0.01920 0.27400 0.05200
C 	C 	0.73540 0.06500 0.46420 -0.05500
C 	C 	0.78440 0.03900 0.39220 0.05000
C 	C 	0.80970 0.02830 0.35230 -0.03500
C 	C 	0.71680 0.06080 0.50560 0.09800
C 	C 	0.01920 0.85340 0.85340 0.04800
C 	C 	0.06500 0.73540 0.73540 -0.05400
C 	C 	0.03900 0.78440 0.78440 0.04900
C 	C 	0.02830 0.80970 0.80970 -0.03200
C 	C 	0.06080 0.71680 0.71680 0.09800
C 	C 	0.27400 0.85340 0.85340 0.04500
C 	C 	0.46420 0.73540 0.73540 -0.05400
C 	C 	0.39220 0.78440 0.78440 0.05100
C 	C 	0.35230 0.80970 0.80970 -0.02600
C 	C 	0.50560 0.71680 0.71680 0.10200
C 	C 	0.85340 0.27400 0.01920 0.05200
C 	C 	0.73540 0.46420 0.06500 -0.05500
C 	C 	0.78440 0.39220 0.03900 0.04900
C 	C 	0.80970 0.35230 0.02830 -0.03500
C 	C 	0.71680 0.50560 0.06080 0.09700
C 	C 	0.85340 0.27400 0.85340 0.04500
C 	C 	0.73540 0.46420 0.73540 -0.05400
C 	C 	0.78440 0.39220 0.78440 0.05100
C 	C 	0.80970 0.35230 0.80970 -0.02500
C 	C 	0.71680 0.50560 0.71680 0.10200
C 	C 	0.01920 0.85340 0.27400 0.05200
C 	C 	0.06500 0.73540 0.46420 -0.05500
C 	C 	0.03900 0.78440 0.39220 0.04900
C 	C 	0.02830 0.80970 0.35230 -0.03600
C 	C 	0.06080 0.71680 0.50560 0.09700
C 	C 	0.27400 0.85340 0.01920 0.05200
C 	C 	0.46420 0.73540 0.06500 -0.05500
C 	C 	0.39220 0.78440 0.03900 0.04900
C 	C 	0.35230 0.80970 0.02830 -0.03600
C 	C 	0.50560 0.71680 0.06080 0.09700
C 	C 	0.85340 0.01920 0.85340 0.04700
C 	C 	0.73540 0.06500 0.73540 -0.05400
C 	C 	0.78440 0.03900 0.78440 0.04900
C 	C 	0.80970 0.02830 0.80970 -0.03000
C 	C 	0.71680 0.06080 0.71680 0.09900
C 	C 	0.85340 0.85340 0.01920 0.04800
C 	C 	0.73540 0.73540 0.06500 -0.05400
C 	C 	0.78440 0.78440 0.03900 0.04900
C 	C 	0.80970 0.80970 0.02830 -0.03200
C 	C 	0.71680 0.71680 0.06080 0.09800
C 	C 	0.01920 0.27400 0.85340 0.05200
C 	C 	0.06500 0.46420 0.73540 -0.05500
C 	C 	0.03900 0.39220 0.78440 0.04900
C 	C 	0.02830 0.35230 0.80970 -0.03500
C 	C 	0.06080 0.50560 0.71680 0.09700
C 	C 	0.27400 0.01920 0.85340 0.05100
C 	C 	0.46420 0.06500 0.73540 -0.05500
C 	C 	0.39220 0.03900 0.78440 0.05000
C 	C 	0.35230 0.02830 0.80970 -0.03500
C 	C 	0.50560 0.06080 0.71680 0.09800
C 	C 	0.85340 0.85340 0.27400 0.04600
C 	C 	0.73540 0.73540 0.46420 -0.05400
C 	C 	0.78440 0.78440 0.39220 0.05100
C 	C 	0.80970 0.80970 0.35230 -0.02600
C 	C 	0.71680 0.71680 0.50560 0.10200
C 	C 	0.98080 0.14660 0.72600 0.04600
C 	C 	0.93500 0.26460 0.53580 -0.05400
C 	C 	0.96100 0.21560 0.60780 0.05000
C 	C 	0.97170 0.19030 0.64770 -0.02700
C 	C 	0.93920 0.28320 0.49440 0.10100
C 	C 	0.14660 0.98080 0.14660 0.05000
C 	C 	0.26460 0.93500 0.26460 -0.05500
C 	C 	0.21560 0.96100 0.21560 0.05000
C 	C 	0.19030 0.97170 0.19030 -0.03200
C 	C 	0.28320 0.93920 0.28320 0.10000
C 	C 	0.14660 0.72600 0.14660 0.05500
C 	C 	0.26460 0.53580 0.26460 -0.05500
C 	C 	0.21560 0.60780 0.21560 0.04900
C 	C 	0.19030 0.64770 0.19030 -0.03900
C 	C 	0.28320 0.49440 0.28320 0.09600
C 	C 	0.72600 0.14660 0.98080 0.04600
C 	C 	0.53580 0.26460 0.93500 -0.05400
C 	C 	0.60780 0.21560 0.96100 0.05000
C 	C 	0.64770 0.19030 0.97170 -0.02700
C 	C 	0.49440 0.28320 0.93920 0.10100
C 	C 	0.72600 0.14660 0.14660 0.05500
C 	C 	0.53580 0.26460 0.26460 -0.05500
C 	C 	0.60780 0.21560 0.21560 0.05000
C 	C 	0.64770 0.19030 0.19030 -0.03900
C 	C 	0.49440 0.28320 0.28320 0.09700
C 	C 	0.14660 0.98080 0.72600 0.04700
C 	C 	0.26460 0.93500 0.53580 -0.05400
C 	C 	0.21560 0.96100 0.60780 0.05000
C 	C 	0.19030 0.97170 0.64770 -0.02900
C 	C 	0.28320 0.93920 0.49440 0.10000
C 	C 	0.14660 0.72600 0.98080 0.04600
C 	C 	0.26460 0.53580 0.93500 -0.05400
C 	C 	0.21560 0.60780 0.96100 0.05000
C 	C 	0.19030 0.64770 0.97170 -0.02800
C 	C 	0.28320 0.49440 0.93920 0.10100
C 	C 	0.98080 0.14660 0.14660 0.04900
C 	C 	0.93500 0.26460 0.26460 -0.05500
C 	C 	0.96100 0.21560 0.21560 0.05000
C 	C 	0.97170 0.19030 0.19030 -0.03100
C 	C 	0.93920 0.28320 0.28320 0.10000
C 	C 	0.14660 0.14660 0.98080 0.04900
C 	C 	0.26460 0.26460 0.93500 -0.05500
C 	C 	0.21560 0.21560 0.96100 0.05000
C 	C 	0.19030 0.19030 0.97170 -0.03100
C 	C 	0.28320 0.28320 0.93920 0.10000
C 	C 	0.72600 0.98080 0.14660 0.04800
C 	C 	0.53580 0.93500 0.26460 -0.05400
C 	C 	0.60780 0.96100 0.21560 0.05000
C 	C 	0.64770 0.97170 0.19030 -0.02900
C 	C 	0.49440 0.93920 0.28320 0.10000
C 	C 	0.98080 0.72600 0.14660 0.04600
C 	C 	0.93500 0.53580 0.26460 -0.05400
C 	C 	0.96100 0.60780 0.21560 0.05000
C 	C 	0.97170 0.64770 0.19030 -0.02800
C 	C 	0.93920 0.49440 0.28320 0.10100
C 	C 	0.14660 0.14660 0.72600 0.05400
C 	C 	0.26460 0.26460 0.53580 -0.05500
C 	C 	0.21560 0.21560 0.60780 0.04900
C 	C 	0.19030 0.19030 0.64770 -0.03800
C 	C 	0.28320 0.28320 0.49440 0.09700
N 	N 	0.67470 0.06450 0.53010 -0.11200
N 	N 	0.66670 0.06810 0.56370 -0.18300
N 	N 	0.06450 0.67470 0.73070 -0.11100
N 	N 	0.06810 0.66670 0.70150 -0.18200
N 	N 	0.53010 0.73070 0.67470 -0.10900
N 	N 	0.56370 0.70150 0.66670 -0.18000
N 	N 	0.73070 0.53010 0.06450 -0.11100
N 	N 	0.70150 0.56370 0.06810 -0.18300
N 	N 	0.67470 0.53010 0.73070 -0.10900
N 	N 	0.66670 0.56370 0.70150 -0.18000
N 	N 	0.06450 0.73070 0.53010 -0.11200
N 	N 	0.06810 0.70150 0.56370 -0.18300
N 	N 	0.53010 0.67470 0.06450 -0.11200
N 	N 	0.56370 0.66670 0.06810 -0.18300
N 	N 	0.73070 0.06450 0.67470 -0.11100
N 	N 	0.70150 0.06810 0.66670 -0.18200
N 	N 	0.67470 0.73070 0.06450 -0.11100
N 	N 	0.66670 0.70150 0.06810 -0.18200
N 	N 	0.06450 0.53010 0.67470 -0.11200
N 	N 	0.06810 0.56370 0.66670 -0.18300
N 	N 	0.53010 0.06450 0.73070 -0.11100
N 	N 	0.56370 0.06810 0.70150 -0.18200
N 	N 	0.73070 0.67470 0.53010 -0.10900
N 	N 	0.70150 0.66670 0.56370 -0.18000
N 	N 	0.93550 0.32530 0.46990 -0.10900
N 	N 	0.93190 0.33330 0.43630 -0.18000
N 	N 	0.32530 0.93550 0.26930 -0.11100
N 	N 	0.33330 0.93190 0.29850 -0.18100
N 	N 	0.26930 0.46990 0.32530 -0.11300
N 	N 	0.29850 0.43630 0.33330 -0.18300
N 	N 	0.46990 0.26930 0.93550 -0.11000
N 	N 	0.43630 0.29850 0.93190 -0.18100
N 	N 	0.46990 0.32530 0.26930 -0.11300
N 	N 	0.43630 0.33330 0.29850 -0.18300
N 	N 	0.26930 0.93550 0.46990 -0.11000
N 	N 	0.29850 0.93190 0.43630 -0.18100
N 	N 	0.32530 0.46990 0.93550 -0.10900
N 	N 	0.33330 0.43630 0.93190 -0.18000
N 	N 	0.93550 0.26930 0.32530 -0.11000
N 	N 	0.93190 0.29850 0.33330 -0.18100
N 	N 	0.26930 0.32530 0.93550 -0.11000
N 	N 	0.29850 0.33330 0.93190 -0.18100
N 	N 	0.46990 0.93550 0.32530 -0.11000
N 	N 	0.43630 0.93190 0.33330 -0.18100
N 	N 	0.93550 0.46990 0.26930 -0.11000
N 	N 	0.93190 0.43630 0.29850 -0.18100
N 	N 	0.32530 0.26930 0.46990 -0.11300
N 	N 	0.33330 0.29850 0.43630 -0.18300
N 	N 	0.32530 0.93550 0.46990 -0.11000
N 	N 	0.33330 0.93190 0.43630 -0.18100
N 	N 	0.93550 0.32530 0.26930 -0.11000
N 	N 	0.93190 0.33330 0.29850 -0.18100
N 	N 	0.46990 0.26930 0.32530 -0.11300
N 	N 	0.43630 0.29850 0.33330 -0.18300
N 	N 	0.26930 0.46990 0.93550 -0.11000
N 	N 	0.29850 0.43630 0.93190 -0.18100
N 	N 	0.32530 0.46990 0.26930 -0.11300
N 	N 	0.33330 0.43630 0.29850 -0.18300
N 	N 	0.93550 0.26930 0.46990 -0.11000
N 	N 	0.93190 0.29850 0.43630 -0.18100
N 	N 	0.46990 0.32530 0.93550 -0.10900
N 	N 	0.43630 0.33330 0.93190 -0.18000
N 	N 	0.26930 0.93550 0.32530 -0.11100
N 	N 	0.29850 0.93190 0.33330 -0.18100
N 	N 	0.32530 0.26930 0.93550 -0.11000
N 	N 	0.33330 0.29850 0.93190 -0.18100
N 	N 	0.93550 0.46990 0.32530 -0.10900
N 	N 	0.93190 0.43630 0.33330 -0.18000
N 	N 	0.46990 0.93550 0.26930 -0.11000
N 	N 	0.43630 0.93190 0.29850 -0.18100
N 	N 	0.26930 0.32530 0.46990 -0.11300
N 	N 	0.29850 0.33330 0.43630 -0.18300
N 	N 	0.06450 0.67470 0.53010 -0.11200
N 	N 	0.06810 0.66670 0.56370 -0.18300
N 	N 	0.67470 0.06450 0.73070 -0.11100
N 	N 	0.66670 0.06810 0.70150 -0.18200
N 	N 	0.73070 0.53010 0.67470 -0.10900
N 	N 	0.70150 0.56370 0.66670 -0.18000
N 	N 	0.53010 0.73070 0.06450 -0.11200
N 	N 	0.56370 0.70150 0.06810 -0.18300
N 	N 	0.53010 0.67470 0.73070 -0.10900
N 	N 	0.56370 0.66670 0.70150 -0.18000
N 	N 	0.73070 0.06450 0.53010 -0.11100
N 	N 	0.70150 0.06810 0.56370 -0.18200
N 	N 	0.67470 0.53010 0.06450 -0.11200
N 	N 	0.66670 0.56370 0.06810 -0.18300
N 	N 	0.06450 0.73070 0.67470 -0.11100
N 	N 	0.06810 0.70150 0.66670 -0.18200
N 	N 	0.73070 0.67470 0.06450 -0.11100
N 	N 	0.70150 0.66670 0.06810 -0.18200
N 	N 	0.53010 0.06450 0.67470 -0.11200
N 	N 	0.56370 0.06810 0.66670 -0.18300
N 	N 	0.06450 0.53010 0.73070 -0.11100
N 	N 	0.06810 0.56370 0.70150 -0.18200
N 	N 	0.67470 0.73070 0.53010 -0.10900
N 	N 	0.66670 0.70150 0.56370 -0.18000
O 	O 	0.75669 0.00951 0.29481 -0.38600
O 	O 	0.81456 0.01086 0.23354 -0.37700
O 	O 	0.00951 0.75669 0.93899 -0.36900
O 	O 	0.01086 0.81456 0.94104 -0.35500
O 	O 	0.29481 0.93899 0.75669 -0.36200
O 	O 	0.23354 0.94104 0.81456 -0.34800
O 	O 	0.93899 0.29481 0.00951 -0.37000
O 	O 	0.94104 0.23354 0.01086 -0.35800
O 	O 	0.75669 0.29481 0.93899 -0.35900
O 	O 	0.81456 0.23354 0.94104 -0.34600
O 	O 	0.00951 0.93899 0.29481 -0.37200
O 	O 	0.01086 0.94104 0.23354 -0.36100
O 	O 	0.29481 0.75669 0.00951 -0.38700
O 	O 	0.23354 0.81456 0.01086 -0.37300
O 	O 	0.93899 0.00951 0.75669 -0.36800
O 	O 	0.94104 0.01086 0.81456 -0.35300
O 	O 	0.75669 0.93899 0.00951 -0.37200
O 	O 	0.81456 0.94104 0.01086 -0.35700
O 	O 	0.00951 0.29481 0.75669 -0.38700
O 	O 	0.01086 0.23354 0.81456 -0.37300
O 	O 	0.29481 0.00951 0.93899 -0.36900
O 	O 	0.23354 0.01086 0.94104 -0.35700
O 	O 	0.93899 0.75669 0.29481 -0.35900
O 	O 	0.94104 0.81456 0.23354 -0.34600
O 	O 	0.99049 0.24331 0.70519 -0.35900
O 	O 	0.98914 0.18544 0.76646 -0.34700
O 	O 	0.24331 0.99049 0.06101 -0.37100
O 	O 	0.18544 0.98914 0.05896 -0.35900
O 	O 	0.06101 0.70519 0.24331 -0.38700
O 	O 	0.05896 0.76646 0.18544 -0.37400
O 	O 	0.70519 0.06101 0.99049 -0.36700
O 	O 	0.76646 0.05896 0.98914 -0.35200
O 	O 	0.70519 0.24331 0.06101 -0.38700
O 	O 	0.76646 0.18544 0.05896 -0.37400
O 	O 	0.06101 0.99049 0.70519 -0.37100
O 	O 	0.05896 0.98914 0.76646 -0.35600
O 	O 	0.24331 0.70519 0.99049 -0.36000
O 	O 	0.18544 0.76646 0.98914 -0.34700
O 	O 	0.99049 0.06101 0.24331 -0.36700
O 	O 	0.98914 0.05896 0.18544 -0.35500
O 	O 	0.06101 0.24331 0.99049 -0.36900
O 	O 	0.05896 0.18544 0.98914 -0.35600
O 	O 	0.70519 0.99049 0.24331 -0.36300
O 	O 	0.76646 0.98914 0.18544 -0.35500
O 	O 	0.99049 0.70519 0.06101 -0.36800
O 	O 	0.98914 0.76646 0.05896 -0.35300
O 	O 	0.24331 0.06101 0.70519 -0.38600
O 	O 	0.18544 0.05896 0.76646 -0.37300
O 	O 	0.24331 0.99049 0.70519 -0.36200
O 	O 	0.18544 0.98914 0.76646 -0.34900
O 	O 	0.99049 0.24331 0.06101 -0.36800
O 	O 	0.98914 0.18544 0.05896 -0.35600
O 	O 	0.70519 0.06101 0.24331 -0.38700
O 	O 	0.76646 0.05896 0.18544 -0.37900
O 	O 	0.06101 0.70519 0.99049 -0.36800
O 	O 	0.05896 0.76646 0.98914 -0.35300
O 	O 	0.24331 0.70519 0.06101 -0.38700
O 	O 	0.18544 0.76646 0.05896 -0.37400
O 	O 	0.99049 0.06101 0.70519 -0.36700
O 	O 	0.98914 0.05896 0.76646 -0.35200
O 	O 	0.70519 0.24331 0.99049 -0.36000
O 	O 	0.76646 0.18544 0.98914 -0.34700
O 	O 	0.06101 0.99049 0.24331 -0.37100
O 	O 	0.05896 0.98914 0.18544 -0.35900
O 	O 	0.24331 0.06101 0.99049 -0.36700
O 	O 	0.18544 0.05896 0.98914 -0.35500
O 	O 	0.99049 0.70519 0.24331 -0.36000
O 	O 	0.98914 0.76646 0.18544 -0.34700
O 	O 	0.70519 0.99049 0.06101 -0.37100
O 	O 	0.76646 0.98914 0.05896 -0.35600
O 	O 	0.06101 0.24331 0.70519 -0.38700
O 	O 	0.05896 0.18544 0.76646 -0.37400
O 	O 	0.00951 0.75669 0.29481 -0.38700
O 	O 	0.01086 0.81456 0.23354 -0.37300
O 	O 	0.75669 0.00951 0.93899 -0.36800
O 	O 	0.81456 0.01086 0.94104 -0.35300
O 	O 	0.93899 0.29481 0.75669 -0.35900
O 	O 	0.94104 0.23354 0.81456 -0.34600
O 	O 	0.29481 0.93899 0.00951 -0.37200
O 	O 	0.23354 0.94104 0.01086 -0.36100
O 	O 	0.29481 0.75669 0.93899 -0.35900
O 	O 	0.23354 0.81456 0.94104 -0.34600
O 	O 	0.93899 0.00951 0.29481 -0.36900
O 	O 	0.94104 0.01086 0.23354 -0.35700
O 	O 	0.75669 0.29481 0.00951 -0.38700
O 	O 	0.81456 0.23354 0.01086 -0.37300
O 	O 	0.00951 0.93899 0.75669 -0.37200
O 	O 	0.01086 0.94104 0.81456 -0.35700
O 	O 	0.93899 0.75669 0.00951 -0.37000
O 	O 	0.94104 0.81456 0.01086 -0.35500
O 	O 	0.29481 0.00951 0.75669 -0.38500
O 	O 	0.23354 0.01086 0.81456 -0.37100
O 	O 	0.00951 0.29481 0.93899 -0.37000
O 	O 	0.01086 0.23354 0.94104 -0.35800
O 	O 	0.75669 0.93899 0.29481 -0.36300
O 	O 	0.81456 0.94104 0.23354 -0.35400
O 	O 	0.63080 0.10760 0.63080 -0.67100
O 	O 	0.10760 0.63080 0.63080 -0.67100
O 	O 	0.63080 0.63080 0.63080 -0.67000
O 	O 	0.63080 0.63080 0.10760 -0.67100
O 	O 	0.89240 0.36920 0.36920 -0.67000
O 	O 	0.36920 0.89240 0.36920 -0.67000
O 	O 	0.36920 0.36920 0.36920 -0.67200
O 	O 	0.36920 0.36920 0.89240 -0.67000
