data_crystal

_cell_length_a 25.68860
_cell_length_b 25.68860
_cell_length_c 25.68860
_cell_angle_alpha 90.00000
_cell_angle_beta  90.00000
_cell_angle_gamma 90.00000

_symmetry_space_group_name_	'P 1'
_symmetry_space_group_name_H-M	'P 1'

loop_
_symmetry_equiv_pos_as_xyz
  x,y,z

loop_
_atom_site_label
_atom_site_type_symbol
_atom_site_fract_x
_atom_site_fract_y
_atom_site_fract_z
_atom_site_charge
N 	N 	0.36610 0.06320 0.30010 -0.20500
N 	N 	0.44106 0.10780 0.28076 -0.19000
H 	H 	0.46320 0.13170 0.28840 0.10100
N 	N 	0.45420 0.07097 0.24600 -0.16400
C 	C 	0.31920 0.06180 0.32450 0.08500
H 	H 	0.29850 0.03230 0.32090 -0.02200
C 	C 	0.30120 0.10270 0.35470 -0.18300
H 	H 	0.27040 0.09940 0.37350 0.08300
C 	C 	0.32890 0.14750 0.35640 0.11300
H 	H 	0.31540 0.17660 0.37310 -0.02800
C 	C 	0.37710 0.14960 0.33330 -0.21800
H 	H 	0.39770 0.17910 0.33770 0.09100
C 	C 	0.39560 0.10820 0.30320 0.17800
C 	C 	0.50090 0.07170 0.22810 0.21100
C 	C 	0.54310 0.11070 0.24850 -0.65000
H 	H 	0.52840 0.13190 0.27550 0.21000
H 	H 	0.55450 0.13250 0.22040 0.21500
H 	H 	0.57220 0.09160 0.26210 0.21300
C 	C 	0.51590 0.03540 0.18560 -0.14700
C 	C 	0.56930 0.02220 0.17850 0.06700
H 	H 	0.59480 0.03460 0.20090 -0.01300
C 	C 	0.58200 0.99040 0.13740 -0.19200
H 	H 	0.61670 0.98190 0.13190 0.08800
C 	C 	0.54630 0.97150 0.10550 0.15700
C 	C 	0.49250 0.98500 0.11410 -0.19400
H 	H 	0.46680 0.97210 0.09200 0.09900
C 	C 	0.47980 0.01520 0.15250 0.09700
H 	H 	0.44490 0.02320 0.15770 -0.03000
N 	N 	0.86610 0.56320 0.80010 -0.20500
N 	N 	0.94106 0.60780 0.78076 -0.19000
H 	H 	0.96320 0.63170 0.78840 0.10400
N 	N 	0.95420 0.57097 0.74600 -0.16000
C 	C 	0.81920 0.56180 0.82450 0.08700
H 	H 	0.79850 0.53230 0.82090 -0.01900
C 	C 	0.80120 0.60270 0.85470 -0.18300
H 	H 	0.77040 0.59940 0.87350 0.08600
C 	C 	0.82890 0.64750 0.85640 0.11400
H 	H 	0.81540 0.67660 0.87310 -0.02700
C 	C 	0.87710 0.64960 0.83330 -0.21900
H 	H 	0.89770 0.67910 0.83770 0.09200
C 	C 	0.89560 0.60820 0.80320 0.18000
C 	C 	0.00090 0.57170 0.72810 0.21500
C 	C 	0.04310 0.61070 0.74850 -0.65400
H 	H 	0.02840 0.63190 0.77550 0.20900
H 	H 	0.05450 0.63250 0.72040 0.21600
H 	H 	0.07220 0.59160 0.76210 0.21500
C 	C 	0.01590 0.53540 0.68560 -0.17900
C 	C 	0.06930 0.52220 0.67850 0.10400
H 	H 	0.09480 0.53460 0.70090 -0.02400
C 	C 	0.08200 0.49040 0.63740 -0.22700
H 	H 	0.11670 0.48190 0.63190 0.09800
C 	C 	0.04630 0.47150 0.60550 0.17300
C 	C 	0.99250 0.48500 0.61410 -0.22800
H 	H 	0.96680 0.47210 0.59200 0.11200
C 	C 	0.97980 0.51520 0.65250 0.14900
H 	H 	0.94490 0.52320 0.65770 -0.04400
N 	N 	0.13390 0.93680 0.80010 -0.20400
N 	N 	0.05894 0.89220 0.78076 -0.18900
H 	H 	0.03680 0.86830 0.78840 0.09700
N 	N 	0.04580 0.92903 0.74600 -0.17000
C 	C 	0.18080 0.93820 0.82450 0.08700
H 	H 	0.20150 0.96770 0.82090 -0.01700
C 	C 	0.19880 0.89730 0.85470 -0.18200
H 	H 	0.22960 0.90060 0.87350 0.08600
C 	C 	0.17110 0.85250 0.85640 0.11300
H 	H 	0.18460 0.82340 0.87310 -0.02700
C 	C 	0.12290 0.85040 0.83330 -0.21700
H 	H 	0.10230 0.82090 0.83770 0.09000
C 	C 	0.10440 0.89180 0.80320 0.17800
C 	C 	0.99910 0.92830 0.72810 0.24200
C 	C 	0.95690 0.88930 0.74850 -0.68100
H 	H 	0.97160 0.86810 0.77550 0.22200
H 	H 	0.94550 0.86750 0.72040 0.22600
H 	H 	0.92780 0.90840 0.76210 0.22500
C 	C 	0.98410 0.96460 0.68560 -0.19300
C 	C 	0.93070 0.97780 0.67850 0.14100
H 	H 	0.90520 0.96540 0.70090 -0.03500
C 	C 	0.91800 0.00960 0.63740 -0.26800
H 	H 	0.88330 0.01810 0.63190 0.11000
C 	C 	0.95370 0.02850 0.60550 0.21000
C 	C 	0.00750 0.01500 0.61410 -0.28400
H 	H 	0.03320 0.02790 0.59200 0.12500
C 	C 	0.02020 0.98480 0.65250 0.17900
H 	H 	0.05510 0.97680 0.65770 -0.05400
N 	N 	0.63390 0.43680 0.30010 -0.20600
N 	N 	0.55894 0.39220 0.28076 -0.19000
H 	H 	0.53680 0.36830 0.28840 0.10100
N 	N 	0.54580 0.42903 0.24600 -0.16500
C 	C 	0.68080 0.43820 0.32450 0.08600
H 	H 	0.70150 0.46770 0.32090 -0.01900
C 	C 	0.69880 0.39730 0.35470 -0.18300
H 	H 	0.72960 0.40060 0.37350 0.08500
C 	C 	0.67110 0.35250 0.35640 0.11300
H 	H 	0.68460 0.32340 0.37310 -0.02800
C 	C 	0.62290 0.35040 0.33330 -0.21800
H 	H 	0.60230 0.32090 0.33770 0.09100
C 	C 	0.60440 0.39180 0.30320 0.17900
C 	C 	0.49910 0.42830 0.22810 0.22300
C 	C 	0.45690 0.38930 0.24850 -0.66100
H 	H 	0.47160 0.36810 0.27550 0.21400
H 	H 	0.44550 0.36750 0.22040 0.21900
H 	H 	0.42780 0.40840 0.26210 0.21800
C 	C 	0.48410 0.46460 0.18560 -0.17300
C 	C 	0.43070 0.47780 0.17850 0.10400
H 	H 	0.40520 0.46540 0.20090 -0.02400
C 	C 	0.41800 0.50960 0.13740 -0.23000
H 	H 	0.38330 0.51810 0.13190 0.09900
C 	C 	0.45370 0.52850 0.10550 0.18000
C 	C 	0.50750 0.51500 0.11410 -0.23600
H 	H 	0.53320 0.52790 0.09200 0.11100
C 	C 	0.52020 0.48480 0.15250 0.14200
H 	H 	0.55510 0.47680 0.15770 -0.04300
N 	N 	0.63390 0.56320 0.19990 -0.20600
N 	N 	0.55894 0.60780 0.21924 -0.19000
H 	H 	0.53680 0.63170 0.21160 0.10100
N 	N 	0.54580 0.57097 0.25400 -0.16500
C 	C 	0.68080 0.56180 0.17550 0.08600
H 	H 	0.70150 0.53230 0.17910 -0.02000
C 	C 	0.69880 0.60270 0.14530 -0.18300
H 	H 	0.72960 0.59940 0.12650 0.08400
C 	C 	0.67110 0.64750 0.14360 0.11300
H 	H 	0.68460 0.67660 0.12690 -0.02800
C 	C 	0.62290 0.64960 0.16670 -0.21800
H 	H 	0.60230 0.67910 0.16230 0.09100
C 	C 	0.60440 0.60820 0.19680 0.17900
C 	C 	0.49910 0.57170 0.27190 0.22300
C 	C 	0.45690 0.61070 0.25150 -0.66200
H 	H 	0.47160 0.63190 0.22450 0.21400
H 	H 	0.44550 0.63250 0.27960 0.21900
H 	H 	0.42780 0.59160 0.23790 0.21800
C 	C 	0.48410 0.53540 0.31440 -0.17300
C 	C 	0.43070 0.52220 0.32150 0.10400
H 	H 	0.40520 0.53460 0.29910 -0.02400
C 	C 	0.41800 0.49040 0.36260 -0.22900
H 	H 	0.38330 0.48190 0.36810 0.09900
C 	C 	0.45370 0.47150 0.39450 0.18000
C 	C 	0.50750 0.48500 0.38590 -0.23500
H 	H 	0.53320 0.47210 0.40800 0.11200
C 	C 	0.52020 0.51520 0.34750 0.14200
H 	H 	0.55510 0.52320 0.34230 -0.04300
N 	N 	0.13390 0.06320 0.69990 -0.20600
N 	N 	0.05894 0.10780 0.71924 -0.19000
H 	H 	0.03680 0.13170 0.71160 0.09800
N 	N 	0.04580 0.07097 0.75400 -0.16800
C 	C 	0.18080 0.06180 0.67550 0.08500
H 	H 	0.20150 0.03230 0.67910 -0.02100
C 	C 	0.19880 0.10270 0.64530 -0.18300
H 	H 	0.22960 0.09940 0.62650 0.08300
C 	C 	0.17110 0.14750 0.64360 0.11200
H 	H 	0.18460 0.17660 0.62690 -0.02700
C 	C 	0.12290 0.14960 0.66670 -0.21700
H 	H 	0.10230 0.17910 0.66230 0.09000
C 	C 	0.10440 0.10820 0.69680 0.17700
C 	C 	0.99910 0.07170 0.77190 0.22000
C 	C 	0.95690 0.11070 0.75150 -0.65900
H 	H 	0.97160 0.13190 0.72450 0.21600
H 	H 	0.94550 0.13250 0.77960 0.21900
H 	H 	0.92780 0.09160 0.73790 0.21700
C 	C 	0.98410 0.03540 0.81440 -0.14100
C 	C 	0.93070 0.02220 0.82150 0.06800
H 	H 	0.90520 0.03460 0.79910 -0.01300
C 	C 	0.91800 0.99040 0.86260 -0.19400
H 	H 	0.88330 0.98190 0.86810 0.08900
C 	C 	0.95370 0.97150 0.89450 0.16400
C 	C 	0.00750 0.98500 0.88590 -0.20100
H 	H 	0.03320 0.97210 0.90800 0.10100
C 	C 	0.02020 0.01520 0.84750 0.09100
H 	H 	0.05510 0.02320 0.84230 -0.02800
N 	N 	0.86610 0.43680 0.69990 -0.20600
N 	N 	0.94106 0.39220 0.71924 -0.19000
H 	H 	0.96320 0.36830 0.71160 0.10400
N 	N 	0.95420 0.42903 0.75400 -0.16000
C 	C 	0.81920 0.43820 0.67550 0.08700
H 	H 	0.79850 0.46770 0.67910 -0.02000
C 	C 	0.80120 0.39730 0.64530 -0.18300
H 	H 	0.77040 0.40060 0.62650 0.08500
C 	C 	0.82890 0.35250 0.64360 0.11400
H 	H 	0.81540 0.32340 0.62690 -0.02800
C 	C 	0.87710 0.35040 0.66670 -0.21900
H 	H 	0.89770 0.32090 0.66230 0.09300
C 	C 	0.89560 0.39180 0.69680 0.18000
C 	C 	0.00090 0.42830 0.77190 0.21500
C 	C 	0.04310 0.38930 0.75150 -0.65400
H 	H 	0.02840 0.36810 0.72450 0.20900
H 	H 	0.05450 0.36750 0.77960 0.21600
H 	H 	0.07220 0.40840 0.73790 0.21500
C 	C 	0.01590 0.46460 0.81440 -0.17900
C 	C 	0.06930 0.47780 0.82150 0.10400
H 	H 	0.09480 0.46540 0.79910 -0.02400
C 	C 	0.08200 0.50960 0.86260 -0.22700
H 	H 	0.11670 0.51810 0.86810 0.09800
C 	C 	0.04630 0.52850 0.89450 0.17300
C 	C 	0.99250 0.51500 0.88590 -0.22800
H 	H 	0.96680 0.52790 0.90800 0.11200
C 	C 	0.97980 0.48480 0.84750 0.14900
H 	H 	0.94490 0.47680 0.84230 -0.04300
N 	N 	0.36610 0.93680 0.19990 -0.20400
N 	N 	0.44106 0.89220 0.21924 -0.18900
H 	H 	0.46320 0.86830 0.21160 0.10000
N 	N 	0.45420 0.92903 0.25400 -0.16600
C 	C 	0.31920 0.93820 0.17550 0.08600
H 	H 	0.29850 0.96770 0.17910 -0.01800
C 	C 	0.30120 0.89730 0.14530 -0.18200
H 	H 	0.27040 0.90060 0.12650 0.08400
C 	C 	0.32890 0.85250 0.14360 0.11300
H 	H 	0.31540 0.82340 0.12690 -0.02800
C 	C 	0.37710 0.85040 0.16670 -0.21800
H 	H 	0.39770 0.82090 0.16230 0.09100
C 	C 	0.39560 0.89180 0.19680 0.17900
C 	C 	0.50090 0.92830 0.27190 0.23500
C 	C 	0.54310 0.88930 0.25150 -0.67400
H 	H 	0.52840 0.86810 0.22450 0.21700
H 	H 	0.55450 0.86750 0.27960 0.22300
H 	H 	0.57220 0.90840 0.23790 0.22300
C 	C 	0.51590 0.96460 0.31440 -0.19900
C 	C 	0.56930 0.97780 0.32150 0.14100
H 	H 	0.59480 0.96540 0.29910 -0.03500
C 	C 	0.58200 0.00960 0.36260 -0.26600
H 	H 	0.61670 0.01810 0.36810 0.10900
C 	C 	0.54630 0.02850 0.39450 0.20300
C 	C 	0.49250 0.01500 0.38590 -0.27700
H 	H 	0.46680 0.02790 0.40800 0.12400
C 	C 	0.47980 0.98480 0.34750 0.18600
H 	H 	0.44490 0.97680 0.34230 -0.05500
N 	N 	0.30010 0.36610 0.06320 -0.20600
N 	N 	0.28076 0.44106 0.10780 -0.19000
H 	H 	0.28840 0.46320 0.13170 0.10100
N 	N 	0.24600 0.45420 0.07097 -0.16400
C 	C 	0.32450 0.31920 0.06180 0.08500
H 	H 	0.32090 0.29850 0.03230 -0.02200
C 	C 	0.35470 0.30120 0.10270 -0.18300
H 	H 	0.37350 0.27040 0.09940 0.08300
C 	C 	0.35640 0.32890 0.14750 0.11300
H 	H 	0.37310 0.31540 0.17660 -0.02800
C 	C 	0.33330 0.37710 0.14960 -0.21800
H 	H 	0.33770 0.39770 0.17910 0.09100
C 	C 	0.30320 0.39560 0.10820 0.17800
C 	C 	0.22810 0.50090 0.07170 0.21100
C 	C 	0.24850 0.54310 0.11070 -0.65000
H 	H 	0.27550 0.52840 0.13190 0.21000
H 	H 	0.22040 0.55450 0.13250 0.21500
H 	H 	0.26210 0.57220 0.09160 0.21300
C 	C 	0.18560 0.51590 0.03540 -0.14700
C 	C 	0.17850 0.56930 0.02220 0.06700
H 	H 	0.20090 0.59480 0.03460 -0.01300
C 	C 	0.13740 0.58200 0.99040 -0.19200
H 	H 	0.13190 0.61670 0.98190 0.08800
C 	C 	0.10550 0.54630 0.97150 0.15700
C 	C 	0.11410 0.49250 0.98500 -0.19400
H 	H 	0.09200 0.46680 0.97210 0.09900
C 	C 	0.15250 0.47980 0.01520 0.09700
H 	H 	0.15770 0.44490 0.02320 -0.03000
N 	N 	0.80010 0.86610 0.56320 -0.20500
N 	N 	0.78076 0.94106 0.60780 -0.19000
H 	H 	0.78840 0.96320 0.63170 0.10400
N 	N 	0.74600 0.95420 0.57097 -0.16000
C 	C 	0.82450 0.81920 0.56180 0.08700
H 	H 	0.82090 0.79850 0.53230 -0.01900
C 	C 	0.85470 0.80120 0.60270 -0.18300
H 	H 	0.87350 0.77040 0.59940 0.08600
C 	C 	0.85640 0.82890 0.64750 0.11400
H 	H 	0.87310 0.81540 0.67660 -0.02700
C 	C 	0.83330 0.87710 0.64960 -0.21900
H 	H 	0.83770 0.89770 0.67910 0.09200
C 	C 	0.80320 0.89560 0.60820 0.18000
C 	C 	0.72810 0.00090 0.57170 0.21500
C 	C 	0.74850 0.04310 0.61070 -0.65400
H 	H 	0.77550 0.02840 0.63190 0.20900
H 	H 	0.72040 0.05450 0.63250 0.21600
H 	H 	0.76210 0.07220 0.59160 0.21500
C 	C 	0.68560 0.01590 0.53540 -0.17900
C 	C 	0.67850 0.06930 0.52220 0.10400
H 	H 	0.70090 0.09480 0.53460 -0.02400
C 	C 	0.63740 0.08200 0.49040 -0.22700
H 	H 	0.63190 0.11670 0.48190 0.09800
C 	C 	0.60550 0.04630 0.47150 0.17300
C 	C 	0.61410 0.99250 0.48500 -0.22800
H 	H 	0.59200 0.96680 0.47210 0.11200
C 	C 	0.65250 0.97980 0.51520 0.14900
H 	H 	0.65770 0.94490 0.52320 -0.04400
N 	N 	0.80010 0.13390 0.93680 -0.20400
N 	N 	0.78076 0.05894 0.89220 -0.18900
H 	H 	0.78840 0.03680 0.86830 0.09700
N 	N 	0.74600 0.04580 0.92903 -0.17000
C 	C 	0.82450 0.18080 0.93820 0.08700
H 	H 	0.82090 0.20150 0.96770 -0.01700
C 	C 	0.85470 0.19880 0.89730 -0.18200
H 	H 	0.87350 0.22960 0.90060 0.08600
C 	C 	0.85640 0.17110 0.85250 0.11300
H 	H 	0.87310 0.18460 0.82340 -0.02700
C 	C 	0.83330 0.12290 0.85040 -0.21700
H 	H 	0.83770 0.10230 0.82090 0.09000
C 	C 	0.80320 0.10440 0.89180 0.17800
C 	C 	0.72810 0.99910 0.92830 0.24200
C 	C 	0.74850 0.95690 0.88930 -0.68100
H 	H 	0.77550 0.97160 0.86810 0.22200
H 	H 	0.72040 0.94550 0.86750 0.22600
H 	H 	0.76210 0.92780 0.90840 0.22500
C 	C 	0.68560 0.98410 0.96460 -0.19300
C 	C 	0.67850 0.93070 0.97780 0.14100
H 	H 	0.70090 0.90520 0.96540 -0.03500
C 	C 	0.63740 0.91800 0.00960 -0.26800
H 	H 	0.63190 0.88330 0.01810 0.11000
C 	C 	0.60550 0.95370 0.02850 0.21000
C 	C 	0.61410 0.00750 0.01500 -0.28400
H 	H 	0.59200 0.03320 0.02790 0.12500
C 	C 	0.65250 0.02020 0.98480 0.17900
H 	H 	0.65770 0.05510 0.97680 -0.05400
N 	N 	0.30010 0.63390 0.43680 -0.20600
N 	N 	0.28076 0.55894 0.39220 -0.19000
H 	H 	0.28840 0.53680 0.36830 0.10100
N 	N 	0.24600 0.54580 0.42903 -0.16500
C 	C 	0.32450 0.68080 0.43820 0.08600
H 	H 	0.32090 0.70150 0.46770 -0.01900
C 	C 	0.35470 0.69880 0.39730 -0.18300
H 	H 	0.37350 0.72960 0.40060 0.08500
C 	C 	0.35640 0.67110 0.35250 0.11300
H 	H 	0.37310 0.68460 0.32340 -0.02800
C 	C 	0.33330 0.62290 0.35040 -0.21800
H 	H 	0.33770 0.60230 0.32090 0.09100
C 	C 	0.30320 0.60440 0.39180 0.17900
C 	C 	0.22810 0.49910 0.42830 0.22300
C 	C 	0.24850 0.45690 0.38930 -0.66100
H 	H 	0.27550 0.47160 0.36810 0.21400
H 	H 	0.22040 0.44550 0.36750 0.21900
H 	H 	0.26210 0.42780 0.40840 0.21800
C 	C 	0.18560 0.48410 0.46460 -0.17300
C 	C 	0.17850 0.43070 0.47780 0.10400
H 	H 	0.20090 0.40520 0.46540 -0.02400
C 	C 	0.13740 0.41800 0.50960 -0.23000
H 	H 	0.13190 0.38330 0.51810 0.09900
C 	C 	0.10550 0.45370 0.52850 0.18000
C 	C 	0.11410 0.50750 0.51500 -0.23600
H 	H 	0.09200 0.53320 0.52790 0.11100
C 	C 	0.15250 0.52020 0.48480 0.14200
H 	H 	0.15770 0.55510 0.47680 -0.04300
N 	N 	0.19990 0.63390 0.56320 -0.20600
N 	N 	0.21924 0.55894 0.60780 -0.19000
H 	H 	0.21160 0.53680 0.63170 0.10100
N 	N 	0.25400 0.54580 0.57097 -0.16500
C 	C 	0.17550 0.68080 0.56180 0.08600
H 	H 	0.17910 0.70150 0.53230 -0.02000
C 	C 	0.14530 0.69880 0.60270 -0.18300
H 	H 	0.12650 0.72960 0.59940 0.08400
C 	C 	0.14360 0.67110 0.64750 0.11300
H 	H 	0.12690 0.68460 0.67660 -0.02800
C 	C 	0.16670 0.62290 0.64960 -0.21800
H 	H 	0.16230 0.60230 0.67910 0.09100
C 	C 	0.19680 0.60440 0.60820 0.17900
C 	C 	0.27190 0.49910 0.57170 0.22300
C 	C 	0.25150 0.45690 0.61070 -0.66200
H 	H 	0.22450 0.47160 0.63190 0.21400
H 	H 	0.27960 0.44550 0.63250 0.21900
H 	H 	0.23790 0.42780 0.59160 0.21800
C 	C 	0.31440 0.48410 0.53540 -0.17300
C 	C 	0.32150 0.43070 0.52220 0.10400
H 	H 	0.29910 0.40520 0.53460 -0.02400
C 	C 	0.36260 0.41800 0.49040 -0.22900
H 	H 	0.36810 0.38330 0.48190 0.09900
C 	C 	0.39450 0.45370 0.47150 0.18000
C 	C 	0.38590 0.50750 0.48500 -0.23500
H 	H 	0.40800 0.53320 0.47210 0.11200
C 	C 	0.34750 0.52020 0.51520 0.14200
H 	H 	0.34230 0.55510 0.52320 -0.04300
N 	N 	0.69990 0.13390 0.06320 -0.20600
N 	N 	0.71924 0.05894 0.10780 -0.19000
H 	H 	0.71160 0.03680 0.13170 0.09800
N 	N 	0.75400 0.04580 0.07097 -0.16800
C 	C 	0.67550 0.18080 0.06180 0.08500
H 	H 	0.67910 0.20150 0.03230 -0.02100
C 	C 	0.64530 0.19880 0.10270 -0.18300
H 	H 	0.62650 0.22960 0.09940 0.08300
C 	C 	0.64360 0.17110 0.14750 0.11200
H 	H 	0.62690 0.18460 0.17660 -0.02700
C 	C 	0.66670 0.12290 0.14960 -0.21700
H 	H 	0.66230 0.10230 0.17910 0.09000
C 	C 	0.69680 0.10440 0.10820 0.17700
C 	C 	0.77190 0.99910 0.07170 0.22000
C 	C 	0.75150 0.95690 0.11070 -0.65900
H 	H 	0.72450 0.97160 0.13190 0.21600
H 	H 	0.77960 0.94550 0.13250 0.21900
H 	H 	0.73790 0.92780 0.09160 0.21700
C 	C 	0.81440 0.98410 0.03540 -0.14100
C 	C 	0.82150 0.93070 0.02220 0.06800
H 	H 	0.79910 0.90520 0.03460 -0.01300
C 	C 	0.86260 0.91800 0.99040 -0.19400
H 	H 	0.86810 0.88330 0.98190 0.08900
C 	C 	0.89450 0.95370 0.97150 0.16400
C 	C 	0.88590 0.00750 0.98500 -0.20100
H 	H 	0.90800 0.03320 0.97210 0.10100
C 	C 	0.84750 0.02020 0.01520 0.09100
H 	H 	0.84230 0.05510 0.02320 -0.02800
N 	N 	0.69990 0.86610 0.43680 -0.20600
N 	N 	0.71924 0.94106 0.39220 -0.19000
H 	H 	0.71160 0.96320 0.36830 0.10400
N 	N 	0.75400 0.95420 0.42903 -0.16000
C 	C 	0.67550 0.81920 0.43820 0.08700
H 	H 	0.67910 0.79850 0.46770 -0.02000
C 	C 	0.64530 0.80120 0.39730 -0.18300
H 	H 	0.62650 0.77040 0.40060 0.08500
C 	C 	0.64360 0.82890 0.35250 0.11400
H 	H 	0.62690 0.81540 0.32340 -0.02800
C 	C 	0.66670 0.87710 0.35040 -0.21900
H 	H 	0.66230 0.89770 0.32090 0.09300
C 	C 	0.69680 0.89560 0.39180 0.18000
C 	C 	0.77190 0.00090 0.42830 0.21500
C 	C 	0.75150 0.04310 0.38930 -0.65400
H 	H 	0.72450 0.02840 0.36810 0.20900
H 	H 	0.77960 0.05450 0.36750 0.21600
H 	H 	0.73790 0.07220 0.40840 0.21500
C 	C 	0.81440 0.01590 0.46460 -0.17900
C 	C 	0.82150 0.06930 0.47780 0.10400
H 	H 	0.79910 0.09480 0.46540 -0.02400
C 	C 	0.86260 0.08200 0.50960 -0.22700
H 	H 	0.86810 0.11670 0.51810 0.09800
C 	C 	0.89450 0.04630 0.52850 0.17300
C 	C 	0.88590 0.99250 0.51500 -0.22800
H 	H 	0.90800 0.96680 0.52790 0.11200
C 	C 	0.84750 0.97980 0.48480 0.14900
H 	H 	0.84230 0.94490 0.47680 -0.04300
N 	N 	0.19990 0.36610 0.93680 -0.20400
N 	N 	0.21924 0.44106 0.89220 -0.18900
H 	H 	0.21160 0.46320 0.86830 0.10000
N 	N 	0.25400 0.45420 0.92903 -0.16600
C 	C 	0.17550 0.31920 0.93820 0.08600
H 	H 	0.17910 0.29850 0.96770 -0.01800
C 	C 	0.14530 0.30120 0.89730 -0.18200
H 	H 	0.12650 0.27040 0.90060 0.08400
C 	C 	0.14360 0.32890 0.85250 0.11300
H 	H 	0.12690 0.31540 0.82340 -0.02800
C 	C 	0.16670 0.37710 0.85040 -0.21800
H 	H 	0.16230 0.39770 0.82090 0.09100
C 	C 	0.19680 0.39560 0.89180 0.17900
C 	C 	0.27190 0.50090 0.92830 0.23500
C 	C 	0.25150 0.54310 0.88930 -0.67400
H 	H 	0.22450 0.52840 0.86810 0.21700
H 	H 	0.27960 0.55450 0.86750 0.22300
H 	H 	0.23790 0.57220 0.90840 0.22300
C 	C 	0.31440 0.51590 0.96460 -0.19900
C 	C 	0.32150 0.56930 0.97780 0.14100
H 	H 	0.29910 0.59480 0.96540 -0.03500
C 	C 	0.36260 0.58200 0.00960 -0.26600
H 	H 	0.36810 0.61670 0.01810 0.10900
C 	C 	0.39450 0.54630 0.02850 0.20300
C 	C 	0.38590 0.49250 0.01500 -0.27700
H 	H 	0.40800 0.46680 0.02790 0.12400
C 	C 	0.34750 0.47980 0.98480 0.18600
H 	H 	0.34230 0.44490 0.97680 -0.05500
N 	N 	0.06320 0.30010 0.36610 -0.20600
N 	N 	0.10780 0.28076 0.44106 -0.19000
H 	H 	0.13170 0.28840 0.46320 0.10100
N 	N 	0.07097 0.24600 0.45420 -0.16400
C 	C 	0.06180 0.32450 0.31920 0.08500
H 	H 	0.03230 0.32090 0.29850 -0.02200
C 	C 	0.10270 0.35470 0.30120 -0.18300
H 	H 	0.09940 0.37350 0.27040 0.08300
C 	C 	0.14750 0.35640 0.32890 0.11300
H 	H 	0.17660 0.37310 0.31540 -0.02800
C 	C 	0.14960 0.33330 0.37710 -0.21800
H 	H 	0.17910 0.33770 0.39770 0.09100
C 	C 	0.10820 0.30320 0.39560 0.17800
C 	C 	0.07170 0.22810 0.50090 0.21100
C 	C 	0.11070 0.24850 0.54310 -0.65000
H 	H 	0.13190 0.27550 0.52840 0.21000
H 	H 	0.13250 0.22040 0.55450 0.21500
H 	H 	0.09160 0.26210 0.57220 0.21300
C 	C 	0.03540 0.18560 0.51590 -0.14700
C 	C 	0.02220 0.17850 0.56930 0.06700
H 	H 	0.03460 0.20090 0.59480 -0.01300
C 	C 	0.99040 0.13740 0.58200 -0.19200
H 	H 	0.98190 0.13190 0.61670 0.08800
C 	C 	0.97150 0.10550 0.54630 0.15700
C 	C 	0.98500 0.11410 0.49250 -0.19400
H 	H 	0.97210 0.09200 0.46680 0.09900
C 	C 	0.01520 0.15250 0.47980 0.09700
H 	H 	0.02320 0.15770 0.44490 -0.03000
N 	N 	0.56320 0.80010 0.86610 -0.20500
N 	N 	0.60780 0.78076 0.94106 -0.19000
H 	H 	0.63170 0.78840 0.96320 0.10400
N 	N 	0.57097 0.74600 0.95420 -0.16000
C 	C 	0.56180 0.82450 0.81920 0.08700
H 	H 	0.53230 0.82090 0.79850 -0.01900
C 	C 	0.60270 0.85470 0.80120 -0.18300
H 	H 	0.59940 0.87350 0.77040 0.08600
C 	C 	0.64750 0.85640 0.82890 0.11400
H 	H 	0.67660 0.87310 0.81540 -0.02700
C 	C 	0.64960 0.83330 0.87710 -0.21900
H 	H 	0.67910 0.83770 0.89770 0.09200
C 	C 	0.60820 0.80320 0.89560 0.18000
C 	C 	0.57170 0.72810 0.00090 0.21500
C 	C 	0.61070 0.74850 0.04310 -0.65400
H 	H 	0.63190 0.77550 0.02840 0.20900
H 	H 	0.63250 0.72040 0.05450 0.21600
H 	H 	0.59160 0.76210 0.07220 0.21500
C 	C 	0.53540 0.68560 0.01590 -0.17900
C 	C 	0.52220 0.67850 0.06930 0.10400
H 	H 	0.53460 0.70090 0.09480 -0.02400
C 	C 	0.49040 0.63740 0.08200 -0.22700
H 	H 	0.48190 0.63190 0.11670 0.09800
C 	C 	0.47150 0.60550 0.04630 0.17300
C 	C 	0.48500 0.61410 0.99250 -0.22800
H 	H 	0.47210 0.59200 0.96680 0.11200
C 	C 	0.51520 0.65250 0.97980 0.14900
H 	H 	0.52320 0.65770 0.94490 -0.04400
N 	N 	0.93680 0.80010 0.13390 -0.20400
N 	N 	0.89220 0.78076 0.05894 -0.18900
H 	H 	0.86830 0.78840 0.03680 0.09700
N 	N 	0.92903 0.74600 0.04580 -0.17000
C 	C 	0.93820 0.82450 0.18080 0.08700
H 	H 	0.96770 0.82090 0.20150 -0.01700
C 	C 	0.89730 0.85470 0.19880 -0.18200
H 	H 	0.90060 0.87350 0.22960 0.08600
C 	C 	0.85250 0.85640 0.17110 0.11300
H 	H 	0.82340 0.87310 0.18460 -0.02700
C 	C 	0.85040 0.83330 0.12290 -0.21700
H 	H 	0.82090 0.83770 0.10230 0.09000
C 	C 	0.89180 0.80320 0.10440 0.17800
C 	C 	0.92830 0.72810 0.99910 0.24200
C 	C 	0.88930 0.74850 0.95690 -0.68100
H 	H 	0.86810 0.77550 0.97160 0.22200
H 	H 	0.86750 0.72040 0.94550 0.22600
H 	H 	0.90840 0.76210 0.92780 0.22500
C 	C 	0.96460 0.68560 0.98410 -0.19300
C 	C 	0.97780 0.67850 0.93070 0.14100
H 	H 	0.96540 0.70090 0.90520 -0.03500
C 	C 	0.00960 0.63740 0.91800 -0.26800
H 	H 	0.01810 0.63190 0.88330 0.11000
C 	C 	0.02850 0.60550 0.95370 0.21000
C 	C 	0.01500 0.61410 0.00750 -0.28400
H 	H 	0.02790 0.59200 0.03320 0.12500
C 	C 	0.98480 0.65250 0.02020 0.17900
H 	H 	0.97680 0.65770 0.05510 -0.05400
N 	N 	0.43680 0.30010 0.63390 -0.20600
N 	N 	0.39220 0.28076 0.55894 -0.19000
H 	H 	0.36830 0.28840 0.53680 0.10100
N 	N 	0.42903 0.24600 0.54580 -0.16500
C 	C 	0.43820 0.32450 0.68080 0.08600
H 	H 	0.46770 0.32090 0.70150 -0.01900
C 	C 	0.39730 0.35470 0.69880 -0.18300
H 	H 	0.40060 0.37350 0.72960 0.08500
C 	C 	0.35250 0.35640 0.67110 0.11300
H 	H 	0.32340 0.37310 0.68460 -0.02800
C 	C 	0.35040 0.33330 0.62290 -0.21800
H 	H 	0.32090 0.33770 0.60230 0.09100
C 	C 	0.39180 0.30320 0.60440 0.17900
C 	C 	0.42830 0.22810 0.49910 0.22300
C 	C 	0.38930 0.24850 0.45690 -0.66100
H 	H 	0.36810 0.27550 0.47160 0.21400
H 	H 	0.36750 0.22040 0.44550 0.21900
H 	H 	0.40840 0.26210 0.42780 0.21800
C 	C 	0.46460 0.18560 0.48410 -0.17300
C 	C 	0.47780 0.17850 0.43070 0.10400
H 	H 	0.46540 0.20090 0.40520 -0.02400
C 	C 	0.50960 0.13740 0.41800 -0.23000
H 	H 	0.51810 0.13190 0.38330 0.09900
C 	C 	0.52850 0.10550 0.45370 0.18000
C 	C 	0.51500 0.11410 0.50750 -0.23600
H 	H 	0.52790 0.09200 0.53320 0.11100
C 	C 	0.48480 0.15250 0.52020 0.14200
H 	H 	0.47680 0.15770 0.55510 -0.04300
N 	N 	0.56320 0.19990 0.63390 -0.20600
N 	N 	0.60780 0.21924 0.55894 -0.19000
H 	H 	0.63170 0.21160 0.53680 0.10100
N 	N 	0.57097 0.25400 0.54580 -0.16500
C 	C 	0.56180 0.17550 0.68080 0.08600
H 	H 	0.53230 0.17910 0.70150 -0.02000
C 	C 	0.60270 0.14530 0.69880 -0.18300
H 	H 	0.59940 0.12650 0.72960 0.08400
C 	C 	0.64750 0.14360 0.67110 0.11300
H 	H 	0.67660 0.12690 0.68460 -0.02800
C 	C 	0.64960 0.16670 0.62290 -0.21800
H 	H 	0.67910 0.16230 0.60230 0.09100
C 	C 	0.60820 0.19680 0.60440 0.17900
C 	C 	0.57170 0.27190 0.49910 0.22300
C 	C 	0.61070 0.25150 0.45690 -0.66200
H 	H 	0.63190 0.22450 0.47160 0.21400
H 	H 	0.63250 0.27960 0.44550 0.21900
H 	H 	0.59160 0.23790 0.42780 0.21800
C 	C 	0.53540 0.31440 0.48410 -0.17300
C 	C 	0.52220 0.32150 0.43070 0.10400
H 	H 	0.53460 0.29910 0.40520 -0.02400
C 	C 	0.49040 0.36260 0.41800 -0.22900
H 	H 	0.48190 0.36810 0.38330 0.09900
C 	C 	0.47150 0.39450 0.45370 0.18000
C 	C 	0.48500 0.38590 0.50750 -0.23500
H 	H 	0.47210 0.40800 0.53320 0.11200
C 	C 	0.51520 0.34750 0.52020 0.14200
H 	H 	0.52320 0.34230 0.55510 -0.04300
N 	N 	0.06320 0.69990 0.13390 -0.20600
N 	N 	0.10780 0.71924 0.05894 -0.19000
H 	H 	0.13170 0.71160 0.03680 0.09800
N 	N 	0.07097 0.75400 0.04580 -0.16800
C 	C 	0.06180 0.67550 0.18080 0.08500
H 	H 	0.03230 0.67910 0.20150 -0.02100
C 	C 	0.10270 0.64530 0.19880 -0.18300
H 	H 	0.09940 0.62650 0.22960 0.08300
C 	C 	0.14750 0.64360 0.17110 0.11200
H 	H 	0.17660 0.62690 0.18460 -0.02700
C 	C 	0.14960 0.66670 0.12290 -0.21700
H 	H 	0.17910 0.66230 0.10230 0.09000
C 	C 	0.10820 0.69680 0.10440 0.17700
C 	C 	0.07170 0.77190 0.99910 0.22000
C 	C 	0.11070 0.75150 0.95690 -0.65900
H 	H 	0.13190 0.72450 0.97160 0.21600
H 	H 	0.13250 0.77960 0.94550 0.21900
H 	H 	0.09160 0.73790 0.92780 0.21700
C 	C 	0.03540 0.81440 0.98410 -0.14100
C 	C 	0.02220 0.82150 0.93070 0.06800
H 	H 	0.03460 0.79910 0.90520 -0.01300
C 	C 	0.99040 0.86260 0.91800 -0.19400
H 	H 	0.98190 0.86810 0.88330 0.08900
C 	C 	0.97150 0.89450 0.95370 0.16400
C 	C 	0.98500 0.88590 0.00750 -0.20100
H 	H 	0.97210 0.90800 0.03320 0.10100
C 	C 	0.01520 0.84750 0.02020 0.09100
H 	H 	0.02320 0.84230 0.05510 -0.02800
N 	N 	0.43680 0.69990 0.86610 -0.20600
N 	N 	0.39220 0.71924 0.94106 -0.19000
H 	H 	0.36830 0.71160 0.96320 0.10400
N 	N 	0.42903 0.75400 0.95420 -0.16000
C 	C 	0.43820 0.67550 0.81920 0.08700
H 	H 	0.46770 0.67910 0.79850 -0.02000
C 	C 	0.39730 0.64530 0.80120 -0.18300
H 	H 	0.40060 0.62650 0.77040 0.08500
C 	C 	0.35250 0.64360 0.82890 0.11400
H 	H 	0.32340 0.62690 0.81540 -0.02800
C 	C 	0.35040 0.66670 0.87710 -0.21900
H 	H 	0.32090 0.66230 0.89770 0.09300
C 	C 	0.39180 0.69680 0.89560 0.18000
C 	C 	0.42830 0.77190 0.00090 0.21500
C 	C 	0.38930 0.75150 0.04310 -0.65400
H 	H 	0.36810 0.72450 0.02840 0.20900
H 	H 	0.36750 0.77960 0.05450 0.21600
H 	H 	0.40840 0.73790 0.07220 0.21500
C 	C 	0.46460 0.81440 0.01590 -0.17900
C 	C 	0.47780 0.82150 0.06930 0.10400
H 	H 	0.46540 0.79910 0.09480 -0.02400
C 	C 	0.50960 0.86260 0.08200 -0.22700
H 	H 	0.51810 0.86810 0.11670 0.09800
C 	C 	0.52850 0.89450 0.04630 0.17300
C 	C 	0.51500 0.88590 0.99250 -0.22800
H 	H 	0.52790 0.90800 0.96680 0.11200
C 	C 	0.48480 0.84750 0.97980 0.14900
H 	H 	0.47680 0.84230 0.94490 -0.04300
N 	N 	0.93680 0.19990 0.36610 -0.20400
N 	N 	0.89220 0.21924 0.44106 -0.18900
H 	H 	0.86830 0.21160 0.46320 0.10000
N 	N 	0.92903 0.25400 0.45420 -0.16600
C 	C 	0.93820 0.17550 0.31920 0.08600
H 	H 	0.96770 0.17910 0.29850 -0.01800
C 	C 	0.89730 0.14530 0.30120 -0.18200
H 	H 	0.90060 0.12650 0.27040 0.08400
C 	C 	0.85250 0.14360 0.32890 0.11300
H 	H 	0.82340 0.12690 0.31540 -0.02800
C 	C 	0.85040 0.16670 0.37710 -0.21800
H 	H 	0.82090 0.16230 0.39770 0.09100
C 	C 	0.89180 0.19680 0.39560 0.17900
C 	C 	0.92830 0.27190 0.50090 0.23500
C 	C 	0.88930 0.25150 0.54310 -0.67400
H 	H 	0.86810 0.22450 0.52840 0.21700
H 	H 	0.86750 0.27960 0.55450 0.22300
H 	H 	0.90840 0.23790 0.57220 0.22300
C 	C 	0.96460 0.31440 0.51590 -0.19900
C 	C 	0.97780 0.32150 0.56930 0.14100
H 	H 	0.96540 0.29910 0.59480 -0.03500
C 	C 	0.00960 0.36260 0.58200 -0.26600
H 	H 	0.01810 0.36810 0.61670 0.10900
C 	C 	0.02850 0.39450 0.54630 0.20300
C 	C 	0.01500 0.38590 0.49250 -0.27700
H 	H 	0.02790 0.40800 0.46680 0.12400
C 	C 	0.98480 0.34750 0.47980 0.18600
H 	H 	0.97680 0.34230 0.44490 -0.05500
Ag	Ag	0.39410 0.00000 0.25000 0.54200
Ag	Ag	0.10590 0.00000 0.75000 0.54200
Ag	Ag	0.60590 0.50000 0.25000 0.54600
Ag	Ag	0.89410 0.50000 0.75000 0.54700
Ag	Ag	0.25000 0.39410 -0.00000 0.54200
Ag	Ag	0.75000 0.10590 -0.00000 0.54200
Ag	Ag	0.25000 0.60590 0.50000 0.54600
Ag	Ag	0.75000 0.89410 0.50000 0.54700
Ag	Ag	0.00000 0.25000 0.39410 0.54200
Ag	Ag	0.00000 0.75000 0.10590 0.54200
Ag	Ag	0.50000 0.25000 0.60590 0.54600
Ag	Ag	0.50000 0.75000 0.89410 0.54700
N 	N 	0.56220 0.93780 0.06220 -0.19100
N 	N 	0.06220 0.43780 0.56220 -0.19400
N 	N 	0.93780 0.06220 0.56220 -0.19100
N 	N 	0.43780 0.56220 0.06220 -0.19400
N 	N 	0.43780 0.43780 0.43780 -0.19100
N 	N 	0.93780 0.93780 0.93780 -0.18200
N 	N 	0.06220 0.56220 0.93780 -0.19100
N 	N 	0.56220 0.06220 0.43780 -0.19400
