data_crystal

_cell_length_a 40.16230
_cell_length_b 40.16230
_cell_length_c 40.16230
_cell_angle_alpha 60.00000
_cell_angle_beta  60.00000
_cell_angle_gamma 60.00000

_symmetry_space_group_name_	'P 1'
_symmetry_space_group_name_H-M	'P 1'

loop_
_symmetry_equiv_pos_as_xyz
  x,y,z

loop_
_atom_site_label
_atom_site_type_symbol
_atom_site_fract_x
_atom_site_fract_y
_atom_site_fract_z
_atom_site_charge
Zn	Zn	0.30410 0.69590 0.49778 1.21700
Zn	Zn	0.22989 0.77011 0.50139 1.20700
Zn	Zn	0.69590 0.30410 0.50222 1.21700
Zn	Zn	0.77011 0.22989 0.49861 1.20700
Zn	Zn	0.49778 0.50222 0.30410 1.21700
Zn	Zn	0.50139 0.49861 0.22989 1.20700
Zn	Zn	0.50222 0.49778 0.69590 1.21700
Zn	Zn	0.49861 0.50139 0.77011 1.20700
Zn	Zn	0.30410 0.49778 0.50222 1.21700
Zn	Zn	0.22989 0.50139 0.49861 1.20700
Zn	Zn	0.69590 0.50222 0.49778 1.21700
Zn	Zn	0.77011 0.49861 0.50139 1.20700
Zn	Zn	0.49778 0.30410 0.69590 1.21700
Zn	Zn	0.50139 0.22989 0.77011 1.20700
Zn	Zn	0.50222 0.69590 0.30410 1.21700
Zn	Zn	0.49861 0.77011 0.22989 1.20700
Zn	Zn	0.30410 0.50222 0.69590 1.21700
Zn	Zn	0.22989 0.49861 0.77011 1.20700
Zn	Zn	0.69590 0.49778 0.30410 1.21800
Zn	Zn	0.77011 0.50139 0.22989 1.20800
Zn	Zn	0.49778 0.69590 0.50222 1.21800
Zn	Zn	0.50139 0.77011 0.49861 1.20800
Zn	Zn	0.50222 0.30410 0.49778 1.21800
Zn	Zn	0.49861 0.22989 0.50139 1.20800
H 	H 	0.37630 0.73950 0.37490 0.03000
H 	H 	0.37720 0.83240 0.26980 0.06100
H 	H 	0.27580 0.83980 0.36740 0.06200
H 	H 	0.19260 0.93240 0.31100 0.04900
H 	H 	0.16090 0.99670 0.27210 0.08300
H 	H 	0.26970 0.00710 0.19210 0.07900
H 	H 	0.30320 0.94120 0.23140 0.05400
H 	H 	0.22210 0.05910 0.14910 0.05400
H 	H 	0.23190 0.07270 0.17370 0.05000
H 	H 	0.21520 0.13420 0.10220 0.10900
H 	H 	0.73950 0.37630 0.50930 0.03000
H 	H 	0.83240 0.37720 0.52060 0.06100
H 	H 	0.83980 0.27580 0.51700 0.06200
H 	H 	0.93240 0.19260 0.56400 0.04800
H 	H 	0.99670 0.16090 0.57030 0.08300
H 	H 	0.00710 0.26970 0.53110 0.07900
H 	H 	0.94120 0.30320 0.52420 0.05400
H 	H 	0.05910 0.22210 0.56970 0.05400
H 	H 	0.07270 0.23190 0.52170 0.05000
H 	H 	0.13420 0.21520 0.54840 0.10900
H 	H 	0.37490 0.50930 0.37630 0.03000
H 	H 	0.26980 0.52060 0.37720 0.06100
H 	H 	0.36740 0.51700 0.27580 0.06200
H 	H 	0.31100 0.56400 0.19260 0.04800
H 	H 	0.27210 0.57030 0.16090 0.08300
H 	H 	0.19210 0.53110 0.26970 0.07900
H 	H 	0.23140 0.52420 0.30320 0.05400
H 	H 	0.14910 0.56970 0.22210 0.05400
H 	H 	0.17370 0.52170 0.23190 0.05000
H 	H 	0.10220 0.54840 0.21520 0.10900
H 	H 	0.50930 0.37490 0.73950 0.03000
H 	H 	0.52060 0.26980 0.83240 0.06100
H 	H 	0.51700 0.36740 0.83980 0.06200
H 	H 	0.56400 0.31100 0.93240 0.04800
H 	H 	0.57030 0.27210 0.99670 0.08300
H 	H 	0.53110 0.19210 0.00710 0.07900
H 	H 	0.52420 0.23140 0.94120 0.05400
H 	H 	0.56970 0.14910 0.05910 0.05400
H 	H 	0.52170 0.17370 0.07270 0.05000
H 	H 	0.54840 0.10220 0.13420 0.10900
H 	H 	0.37630 0.37490 0.50930 0.03000
H 	H 	0.37720 0.26980 0.52060 0.06100
H 	H 	0.27580 0.36740 0.51700 0.06200
H 	H 	0.19260 0.31100 0.56400 0.04800
H 	H 	0.16090 0.27210 0.57030 0.08300
H 	H 	0.26970 0.19210 0.53110 0.07900
H 	H 	0.30320 0.23140 0.52420 0.05400
H 	H 	0.22210 0.14910 0.56970 0.05400
H 	H 	0.23190 0.17370 0.52170 0.05000
H 	H 	0.21520 0.10220 0.54840 0.10900
H 	H 	0.73950 0.50930 0.37490 0.03000
H 	H 	0.83240 0.52060 0.26980 0.06100
H 	H 	0.83980 0.51700 0.36740 0.06200
H 	H 	0.93240 0.56400 0.31100 0.04800
H 	H 	0.99670 0.57030 0.27210 0.08300
H 	H 	0.00710 0.53110 0.19210 0.07900
H 	H 	0.94120 0.52420 0.23140 0.05400
H 	H 	0.05910 0.56970 0.14910 0.05400
H 	H 	0.07270 0.52170 0.17370 0.05000
H 	H 	0.13420 0.54840 0.10220 0.10900
H 	H 	0.37490 0.37630 0.73950 0.03000
H 	H 	0.26980 0.37720 0.83240 0.06100
H 	H 	0.36740 0.27580 0.83980 0.06200
H 	H 	0.31100 0.19260 0.93240 0.04900
H 	H 	0.27210 0.16090 0.99670 0.08300
H 	H 	0.19210 0.26970 0.00710 0.07900
H 	H 	0.23140 0.30320 0.94120 0.05400
H 	H 	0.14910 0.22210 0.05910 0.05400
H 	H 	0.17370 0.23190 0.07270 0.05000
H 	H 	0.10220 0.21520 0.13420 0.10900
H 	H 	0.50930 0.73950 0.37630 0.03000
H 	H 	0.52060 0.83240 0.37720 0.06100
H 	H 	0.51700 0.83980 0.27580 0.06200
H 	H 	0.56400 0.93240 0.19260 0.04800
H 	H 	0.57030 0.99670 0.16090 0.08300
H 	H 	0.53110 0.00710 0.26970 0.07900
H 	H 	0.52420 0.94120 0.30320 0.05400
H 	H 	0.56970 0.05910 0.22210 0.05400
H 	H 	0.52170 0.07270 0.23190 0.05000
H 	H 	0.54840 0.13420 0.21520 0.10900
H 	H 	0.37630 0.50930 0.73950 0.03000
H 	H 	0.37720 0.52060 0.83240 0.06100
H 	H 	0.27580 0.51700 0.83980 0.06200
H 	H 	0.19260 0.56400 0.93240 0.04800
H 	H 	0.16090 0.57030 0.99670 0.08300
H 	H 	0.26970 0.53110 0.00710 0.07900
H 	H 	0.30320 0.52420 0.94120 0.05400
H 	H 	0.22210 0.56970 0.05910 0.05400
H 	H 	0.23190 0.52170 0.07270 0.05000
H 	H 	0.21520 0.54840 0.13420 0.10900
H 	H 	0.73950 0.37490 0.37630 0.03000
H 	H 	0.83240 0.26980 0.37720 0.06100
H 	H 	0.83980 0.36740 0.27580 0.06200
H 	H 	0.93240 0.31100 0.19260 0.04900
H 	H 	0.99670 0.27210 0.16090 0.08300
H 	H 	0.00710 0.19210 0.26970 0.07900
H 	H 	0.94120 0.23140 0.30320 0.05400
H 	H 	0.05910 0.14910 0.22210 0.05400
H 	H 	0.07270 0.17370 0.23190 0.05000
H 	H 	0.13420 0.10220 0.21520 0.10900
H 	H 	0.37490 0.73950 0.50930 0.03000
H 	H 	0.26980 0.83240 0.52060 0.06100
H 	H 	0.36740 0.83980 0.51700 0.06200
H 	H 	0.31100 0.93240 0.56400 0.04800
H 	H 	0.27210 0.99670 0.57030 0.08300
H 	H 	0.19210 0.00710 0.53110 0.07900
H 	H 	0.23140 0.94120 0.52420 0.05400
H 	H 	0.14910 0.05910 0.56970 0.05400
H 	H 	0.17370 0.07270 0.52170 0.05000
H 	H 	0.10220 0.13420 0.54840 0.10900
H 	H 	0.50930 0.37630 0.37490 0.03000
H 	H 	0.52060 0.37720 0.26980 0.06100
H 	H 	0.51700 0.27580 0.36740 0.06200
H 	H 	0.56400 0.19260 0.31100 0.04800
H 	H 	0.57030 0.16090 0.27210 0.08300
H 	H 	0.53110 0.26970 0.19210 0.07900
H 	H 	0.52420 0.30320 0.23140 0.05400
H 	H 	0.56970 0.22210 0.14910 0.05400
H 	H 	0.52170 0.23190 0.17370 0.05000
H 	H 	0.54840 0.21520 0.10220 0.10900
H 	H 	0.62370 0.26050 0.62510 0.03000
H 	H 	0.62280 0.16760 0.73020 0.06100
H 	H 	0.72420 0.16020 0.63260 0.06200
H 	H 	0.80740 0.06760 0.68900 0.04900
H 	H 	0.83910 0.00330 0.72790 0.08300
H 	H 	0.73030 0.99290 0.80790 0.07900
H 	H 	0.69680 0.05880 0.76860 0.05400
H 	H 	0.77790 0.94090 0.85090 0.05400
H 	H 	0.76810 0.92730 0.82630 0.05000
H 	H 	0.78480 0.86580 0.89780 0.10900
H 	H 	0.26050 0.62370 0.49070 0.03000
H 	H 	0.16760 0.62280 0.47940 0.06100
H 	H 	0.16020 0.72420 0.48300 0.06200
H 	H 	0.06760 0.80740 0.43600 0.04800
H 	H 	0.00330 0.83910 0.42970 0.08300
H 	H 	0.99290 0.73030 0.46890 0.07900
H 	H 	0.05880 0.69680 0.47580 0.05400
H 	H 	0.94090 0.77790 0.43030 0.05400
H 	H 	0.92730 0.76810 0.47830 0.05000
H 	H 	0.86580 0.78480 0.45160 0.10900
H 	H 	0.62510 0.49070 0.62370 0.03000
H 	H 	0.73020 0.47940 0.62280 0.06100
H 	H 	0.63260 0.48300 0.72420 0.06200
H 	H 	0.68900 0.43600 0.80740 0.04800
H 	H 	0.72790 0.42970 0.83910 0.08300
H 	H 	0.80790 0.46890 0.73030 0.07900
H 	H 	0.76860 0.47580 0.69680 0.05400
H 	H 	0.85090 0.43030 0.77790 0.05400
H 	H 	0.82630 0.47830 0.76810 0.05000
H 	H 	0.89780 0.45160 0.78480 0.10900
H 	H 	0.49070 0.62510 0.26050 0.03000
H 	H 	0.47940 0.73020 0.16760 0.06100
H 	H 	0.48300 0.63260 0.16020 0.06200
H 	H 	0.43600 0.68900 0.06760 0.04800
H 	H 	0.42970 0.72790 0.00330 0.08300
H 	H 	0.46890 0.80790 0.99290 0.07900
H 	H 	0.47580 0.76860 0.05880 0.05400
H 	H 	0.43030 0.85090 0.94090 0.05400
H 	H 	0.47830 0.82630 0.92730 0.05000
H 	H 	0.45160 0.89780 0.86580 0.10900
H 	H 	0.62370 0.62510 0.49070 0.03000
H 	H 	0.62280 0.73020 0.47940 0.06100
H 	H 	0.72420 0.63260 0.48300 0.06200
H 	H 	0.80740 0.68900 0.43600 0.04800
H 	H 	0.83910 0.72790 0.42970 0.08300
H 	H 	0.73030 0.80790 0.46890 0.07900
H 	H 	0.69680 0.76860 0.47580 0.05400
H 	H 	0.77790 0.85090 0.43030 0.05400
H 	H 	0.76810 0.82630 0.47830 0.05000
H 	H 	0.78480 0.89780 0.45160 0.10900
H 	H 	0.26050 0.49070 0.62510 0.03000
H 	H 	0.16760 0.47940 0.73020 0.06100
H 	H 	0.16020 0.48300 0.63260 0.06200
H 	H 	0.06760 0.43600 0.68900 0.04800
H 	H 	0.00330 0.42970 0.72790 0.08300
H 	H 	0.99290 0.46890 0.80790 0.07900
H 	H 	0.05880 0.47580 0.76860 0.05400
H 	H 	0.94090 0.43030 0.85090 0.05400
H 	H 	0.92730 0.47830 0.82630 0.05000
H 	H 	0.86580 0.45160 0.89780 0.10900
H 	H 	0.62510 0.62370 0.26050 0.03000
H 	H 	0.73020 0.62280 0.16760 0.06100
H 	H 	0.63260 0.72420 0.16020 0.06200
H 	H 	0.68900 0.80740 0.06760 0.04900
H 	H 	0.72790 0.83910 0.00330 0.08300
H 	H 	0.80790 0.73030 0.99290 0.07900
H 	H 	0.76860 0.69680 0.05880 0.05400
H 	H 	0.85090 0.77790 0.94090 0.05400
H 	H 	0.82630 0.76810 0.92730 0.05000
H 	H 	0.89780 0.78480 0.86580 0.10900
H 	H 	0.49070 0.26050 0.62370 0.03000
H 	H 	0.47940 0.16760 0.62280 0.06100
H 	H 	0.48300 0.16020 0.72420 0.06200
H 	H 	0.43600 0.06760 0.80740 0.04800
H 	H 	0.42970 0.00330 0.83910 0.08300
H 	H 	0.46890 0.99290 0.73030 0.07900
H 	H 	0.47580 0.05880 0.69680 0.05400
H 	H 	0.43030 0.94090 0.77790 0.05400
H 	H 	0.47830 0.92730 0.76810 0.05000
H 	H 	0.45160 0.86580 0.78480 0.10900
H 	H 	0.62370 0.49070 0.26050 0.03000
H 	H 	0.62280 0.47940 0.16760 0.06100
H 	H 	0.72420 0.48300 0.16020 0.06200
H 	H 	0.80740 0.43600 0.06760 0.04800
H 	H 	0.83910 0.42970 0.00330 0.08300
H 	H 	0.73030 0.46890 0.99290 0.07900
H 	H 	0.69680 0.47580 0.05880 0.05400
H 	H 	0.77790 0.43030 0.94090 0.05400
H 	H 	0.76810 0.47830 0.92730 0.05000
H 	H 	0.78480 0.45160 0.86580 0.10900
H 	H 	0.26050 0.62510 0.62370 0.03000
H 	H 	0.16760 0.73020 0.62280 0.06100
H 	H 	0.16020 0.63260 0.72420 0.06200
H 	H 	0.06760 0.68900 0.80740 0.04900
H 	H 	0.00330 0.72790 0.83910 0.08300
H 	H 	0.99290 0.80790 0.73030 0.07900
H 	H 	0.05880 0.76860 0.69680 0.05400
H 	H 	0.94090 0.85090 0.77790 0.05400
H 	H 	0.92730 0.82630 0.76810 0.05000
H 	H 	0.86580 0.89780 0.78480 0.10900
H 	H 	0.62510 0.26050 0.49070 0.03000
H 	H 	0.73020 0.16760 0.47940 0.06100
H 	H 	0.63260 0.16020 0.48300 0.06200
H 	H 	0.68900 0.06760 0.43600 0.04800
H 	H 	0.72790 0.00330 0.42970 0.08300
H 	H 	0.80790 0.99290 0.46890 0.07900
H 	H 	0.76860 0.05880 0.47580 0.05400
H 	H 	0.85090 0.94090 0.43030 0.05400
H 	H 	0.82630 0.92730 0.47830 0.05000
H 	H 	0.89780 0.86580 0.45160 0.10900
H 	H 	0.49070 0.62370 0.62510 0.03000
H 	H 	0.47940 0.62280 0.73020 0.06100
H 	H 	0.48300 0.72420 0.63260 0.06200
H 	H 	0.43600 0.80740 0.68900 0.04800
H 	H 	0.42970 0.83910 0.72790 0.08300
H 	H 	0.46890 0.73030 0.80790 0.07900
H 	H 	0.47580 0.69680 0.76860 0.05400
H 	H 	0.43030 0.77790 0.85090 0.05400
H 	H 	0.47830 0.76810 0.82630 0.05000
H 	H 	0.45160 0.78480 0.89780 0.10900
C 	C 	0.30260 0.76660 0.42140 0.41000
C 	C 	0.32321 0.78661 0.37759 -0.11300
C 	C 	0.36279 0.76577 0.35955 0.05700
C 	C 	0.38272 0.78268 0.31968 -0.11200
C 	C 	0.42600 0.76120 0.29880 0.41900
C 	C 	0.36324 0.82058 0.29764 -0.03000
C 	C 	0.32370 0.84150 0.31550 0.06900
C 	C 	0.30316 0.82528 0.35512 -0.03100
C 	C 	0.25093 0.93207 0.27367 0.06500
C 	C 	0.20840 0.94760 0.28680 -0.03200
C 	C 	0.18990 0.98570 0.26350 -0.12500
C 	C 	0.21260 0.00840 0.22780 0.18100
C 	C 	0.25390 0.99190 0.21630 -0.13600
C 	C 	0.27430 0.95250 0.23970 -0.03400
C 	C 	0.20990 0.07070 0.17090 -0.05600
C 	C 	0.17910 0.11230 0.16010 0.13200
C 	C 	0.18900 0.14080 0.12180 -0.18500
C 	C 	0.76660 0.30260 0.50940 0.41000
C 	C 	0.78661 0.32321 0.51259 -0.11300
C 	C 	0.76577 0.36279 0.51189 0.05700
C 	C 	0.78268 0.38272 0.51492 -0.11200
C 	C 	0.76120 0.42600 0.51400 0.41900
C 	C 	0.82058 0.36324 0.51854 -0.03000
C 	C 	0.84150 0.32370 0.51930 0.06900
C 	C 	0.82528 0.30316 0.51644 -0.03100
C 	C 	0.93207 0.25093 0.54333 0.06500
C 	C 	0.94760 0.20840 0.55720 -0.03200
C 	C 	0.98570 0.18990 0.56090 -0.12600
C 	C 	0.00840 0.21260 0.55120 0.18200
C 	C 	0.99190 0.25390 0.53790 -0.13700
C 	C 	0.95250 0.27430 0.53350 -0.03400
C 	C 	0.07070 0.20990 0.54850 -0.05600
C 	C 	0.11230 0.17910 0.54850 0.13200
C 	C 	0.14080 0.18900 0.54840 -0.18500
C 	C 	0.42140 0.50940 0.30260 0.41000
C 	C 	0.37759 0.51259 0.32321 -0.11300
C 	C 	0.35955 0.51189 0.36279 0.05700
C 	C 	0.31968 0.51492 0.38272 -0.11200
C 	C 	0.29880 0.51400 0.42600 0.41900
C 	C 	0.29764 0.51854 0.36324 -0.03000
C 	C 	0.31550 0.51930 0.32370 0.06900
C 	C 	0.35512 0.51644 0.30316 -0.03100
C 	C 	0.27367 0.54333 0.25093 0.06500
C 	C 	0.28680 0.55720 0.20840 -0.03200
C 	C 	0.26350 0.56090 0.18990 -0.12600
C 	C 	0.22780 0.55120 0.21260 0.18200
C 	C 	0.21630 0.53790 0.25390 -0.13700
C 	C 	0.23970 0.53350 0.27430 -0.03400
C 	C 	0.17090 0.54850 0.20990 -0.05600
C 	C 	0.16010 0.54850 0.17910 0.13200
C 	C 	0.12180 0.54840 0.18900 -0.18500
C 	C 	0.50940 0.42140 0.76660 0.41000
C 	C 	0.51259 0.37759 0.78661 -0.11300
C 	C 	0.51189 0.35955 0.76577 0.05700
C 	C 	0.51492 0.31968 0.78268 -0.11200
C 	C 	0.51400 0.29880 0.76120 0.41900
C 	C 	0.51854 0.29764 0.82058 -0.03000
C 	C 	0.51930 0.31550 0.84150 0.06900
C 	C 	0.51644 0.35512 0.82528 -0.03100
C 	C 	0.54333 0.27367 0.93207 0.06500
C 	C 	0.55720 0.28680 0.94760 -0.03200
C 	C 	0.56090 0.26350 0.98570 -0.12600
C 	C 	0.55120 0.22780 0.00840 0.18200
C 	C 	0.53790 0.21630 0.99190 -0.13600
C 	C 	0.53350 0.23970 0.95250 -0.03400
C 	C 	0.54850 0.17090 0.07070 -0.05600
C 	C 	0.54850 0.16010 0.11230 0.13200
C 	C 	0.54840 0.12180 0.14080 -0.18500
C 	C 	0.30260 0.42140 0.50940 0.41000
C 	C 	0.32321 0.37759 0.51259 -0.11300
C 	C 	0.36279 0.35955 0.51189 0.05700
C 	C 	0.38272 0.31968 0.51492 -0.11200
C 	C 	0.42600 0.29880 0.51400 0.41900
C 	C 	0.36324 0.29764 0.51854 -0.03000
C 	C 	0.32370 0.31550 0.51930 0.06900
C 	C 	0.30316 0.35512 0.51644 -0.03100
C 	C 	0.25093 0.27367 0.54333 0.06500
C 	C 	0.20840 0.28680 0.55720 -0.03200
C 	C 	0.18990 0.26350 0.56090 -0.12600
C 	C 	0.21260 0.22780 0.55120 0.18200
C 	C 	0.25390 0.21630 0.53790 -0.13700
C 	C 	0.27430 0.23970 0.53350 -0.03400
C 	C 	0.20990 0.17090 0.54850 -0.05600
C 	C 	0.17910 0.16010 0.54850 0.13200
C 	C 	0.18900 0.12180 0.54840 -0.18500
C 	C 	0.76660 0.50940 0.42140 0.41000
C 	C 	0.78661 0.51259 0.37759 -0.11300
C 	C 	0.76577 0.51189 0.35955 0.05700
C 	C 	0.78268 0.51492 0.31968 -0.11200
C 	C 	0.76120 0.51400 0.29880 0.41900
C 	C 	0.82058 0.51854 0.29764 -0.03000
C 	C 	0.84150 0.51930 0.31550 0.06900
C 	C 	0.82528 0.51644 0.35512 -0.03100
C 	C 	0.93207 0.54333 0.27367 0.06500
C 	C 	0.94760 0.55720 0.28680 -0.03200
C 	C 	0.98570 0.56090 0.26350 -0.12600
C 	C 	0.00840 0.55120 0.22780 0.18200
C 	C 	0.99190 0.53790 0.21630 -0.13600
C 	C 	0.95250 0.53350 0.23970 -0.03400
C 	C 	0.07070 0.54850 0.17090 -0.05600
C 	C 	0.11230 0.54850 0.16010 0.13200
C 	C 	0.14080 0.54840 0.12180 -0.18500
C 	C 	0.42140 0.30260 0.76660 0.41000
C 	C 	0.37759 0.32321 0.78661 -0.11300
C 	C 	0.35955 0.36279 0.76577 0.05700
C 	C 	0.31968 0.38272 0.78268 -0.11200
C 	C 	0.29880 0.42600 0.76120 0.41900
C 	C 	0.29764 0.36324 0.82058 -0.03000
C 	C 	0.31550 0.32370 0.84150 0.06900
C 	C 	0.35512 0.30316 0.82528 -0.03100
C 	C 	0.27367 0.25093 0.93207 0.06500
C 	C 	0.28680 0.20840 0.94760 -0.03200
C 	C 	0.26350 0.18990 0.98570 -0.12500
C 	C 	0.22780 0.21260 0.00840 0.18100
C 	C 	0.21630 0.25390 0.99190 -0.13600
C 	C 	0.23970 0.27430 0.95250 -0.03400
C 	C 	0.17090 0.20990 0.07070 -0.05600
C 	C 	0.16010 0.17910 0.11230 0.13200
C 	C 	0.12180 0.18900 0.14080 -0.18500
C 	C 	0.50940 0.76660 0.30260 0.41000
C 	C 	0.51259 0.78661 0.32321 -0.11300
C 	C 	0.51189 0.76577 0.36279 0.05700
C 	C 	0.51492 0.78268 0.38272 -0.11200
C 	C 	0.51400 0.76120 0.42600 0.41900
C 	C 	0.51854 0.82058 0.36324 -0.03000
C 	C 	0.51930 0.84150 0.32370 0.06900
C 	C 	0.51644 0.82528 0.30316 -0.03100
C 	C 	0.54333 0.93207 0.25093 0.06500
C 	C 	0.55720 0.94760 0.20840 -0.03200
C 	C 	0.56090 0.98570 0.18990 -0.12600
C 	C 	0.55120 0.00840 0.21260 0.18200
C 	C 	0.53790 0.99190 0.25390 -0.13700
C 	C 	0.53350 0.95250 0.27430 -0.03400
C 	C 	0.54850 0.07070 0.20990 -0.05600
C 	C 	0.54850 0.11230 0.17910 0.13200
C 	C 	0.54840 0.14080 0.18900 -0.18500
C 	C 	0.30260 0.50940 0.76660 0.41000
C 	C 	0.32321 0.51259 0.78661 -0.11300
C 	C 	0.36279 0.51189 0.76577 0.05700
C 	C 	0.38272 0.51492 0.78268 -0.11200
C 	C 	0.42600 0.51400 0.76120 0.41900
C 	C 	0.36324 0.51854 0.82058 -0.03000
C 	C 	0.32370 0.51930 0.84150 0.06900
C 	C 	0.30316 0.51644 0.82528 -0.03100
C 	C 	0.25093 0.54333 0.93207 0.06500
C 	C 	0.20840 0.55720 0.94760 -0.03200
C 	C 	0.18990 0.56090 0.98570 -0.12600
C 	C 	0.21260 0.55120 0.00840 0.18200
C 	C 	0.25390 0.53790 0.99190 -0.13700
C 	C 	0.27430 0.53350 0.95250 -0.03400
C 	C 	0.20990 0.54850 0.07070 -0.05600
C 	C 	0.17910 0.54850 0.11230 0.13200
C 	C 	0.18900 0.54840 0.14080 -0.18500
C 	C 	0.76660 0.42140 0.30260 0.41000
C 	C 	0.78661 0.37759 0.32321 -0.11300
C 	C 	0.76577 0.35955 0.36279 0.05700
C 	C 	0.78268 0.31968 0.38272 -0.11200
C 	C 	0.76120 0.29880 0.42600 0.41900
C 	C 	0.82058 0.29764 0.36324 -0.03000
C 	C 	0.84150 0.31550 0.32370 0.06900
C 	C 	0.82528 0.35512 0.30316 -0.03100
C 	C 	0.93207 0.27367 0.25093 0.06500
C 	C 	0.94760 0.28680 0.20840 -0.03200
C 	C 	0.98570 0.26350 0.18990 -0.12500
C 	C 	0.00840 0.22780 0.21260 0.18100
C 	C 	0.99190 0.21630 0.25390 -0.13600
C 	C 	0.95250 0.23970 0.27430 -0.03400
C 	C 	0.07070 0.17090 0.20990 -0.05600
C 	C 	0.11230 0.16010 0.17910 0.13200
C 	C 	0.14080 0.12180 0.18900 -0.18500
C 	C 	0.42140 0.76660 0.50940 0.41000
C 	C 	0.37759 0.78661 0.51259 -0.11300
C 	C 	0.35955 0.76577 0.51189 0.05700
C 	C 	0.31968 0.78268 0.51492 -0.11200
C 	C 	0.29880 0.76120 0.51400 0.41900
C 	C 	0.29764 0.82058 0.51854 -0.03000
C 	C 	0.31550 0.84150 0.51930 0.06900
C 	C 	0.35512 0.82528 0.51644 -0.03100
C 	C 	0.27367 0.93207 0.54333 0.06500
C 	C 	0.28680 0.94760 0.55720 -0.03200
C 	C 	0.26350 0.98570 0.56090 -0.12600
C 	C 	0.22780 0.00840 0.55120 0.18200
C 	C 	0.21630 0.99190 0.53790 -0.13600
C 	C 	0.23970 0.95250 0.53350 -0.03400
C 	C 	0.17090 0.07070 0.54850 -0.05600
C 	C 	0.16010 0.11230 0.54850 0.13200
C 	C 	0.12180 0.14080 0.54840 -0.18500
C 	C 	0.50940 0.30260 0.42140 0.41000
C 	C 	0.51259 0.32321 0.37759 -0.11300
C 	C 	0.51189 0.36279 0.35955 0.05700
C 	C 	0.51492 0.38272 0.31968 -0.11200
C 	C 	0.51400 0.42600 0.29880 0.41900
C 	C 	0.51854 0.36324 0.29764 -0.03000
C 	C 	0.51930 0.32370 0.31550 0.06900
C 	C 	0.51644 0.30316 0.35512 -0.03100
C 	C 	0.54333 0.25093 0.27367 0.06500
C 	C 	0.55720 0.20840 0.28680 -0.03200
C 	C 	0.56090 0.18990 0.26350 -0.12600
C 	C 	0.55120 0.21260 0.22780 0.18200
C 	C 	0.53790 0.25390 0.21630 -0.13700
C 	C 	0.53350 0.27430 0.23970 -0.03400
C 	C 	0.54850 0.20990 0.17090 -0.05600
C 	C 	0.54850 0.17910 0.16010 0.13200
C 	C 	0.54840 0.18900 0.12180 -0.18500
C 	C 	0.69740 0.23340 0.57860 0.41000
C 	C 	0.67679 0.21339 0.62241 -0.11300
C 	C 	0.63721 0.23423 0.64045 0.05700
C 	C 	0.61728 0.21732 0.68032 -0.11200
C 	C 	0.57400 0.23880 0.70120 0.41900
C 	C 	0.63676 0.17942 0.70236 -0.03000
C 	C 	0.67630 0.15850 0.68450 0.06900
C 	C 	0.69684 0.17472 0.64488 -0.03100
C 	C 	0.74907 0.06793 0.72633 0.06500
C 	C 	0.79160 0.05240 0.71320 -0.03200
C 	C 	0.81010 0.01430 0.73650 -0.12500
C 	C 	0.78740 0.99160 0.77220 0.18100
C 	C 	0.74610 0.00810 0.78370 -0.13600
C 	C 	0.72570 0.04750 0.76030 -0.03400
C 	C 	0.79010 0.92930 0.82910 -0.05600
C 	C 	0.82090 0.88770 0.83990 0.13200
C 	C 	0.81100 0.85920 0.87820 -0.18500
C 	C 	0.23340 0.69740 0.49060 0.41000
C 	C 	0.21339 0.67679 0.48741 -0.11300
C 	C 	0.23423 0.63721 0.48811 0.05700
C 	C 	0.21732 0.61728 0.48508 -0.11200
C 	C 	0.23880 0.57400 0.48600 0.41900
C 	C 	0.17942 0.63676 0.48146 -0.03000
C 	C 	0.15850 0.67630 0.48070 0.06900
C 	C 	0.17472 0.69684 0.48356 -0.03100
C 	C 	0.06793 0.74907 0.45667 0.06500
C 	C 	0.05240 0.79160 0.44280 -0.03200
C 	C 	0.01430 0.81010 0.43910 -0.12600
C 	C 	0.99160 0.78740 0.44880 0.18200
C 	C 	0.00810 0.74610 0.46210 -0.13700
C 	C 	0.04750 0.72570 0.46650 -0.03400
C 	C 	0.92930 0.79010 0.45150 -0.05600
C 	C 	0.88770 0.82090 0.45150 0.13200
C 	C 	0.85920 0.81100 0.45160 -0.18500
C 	C 	0.57860 0.49060 0.69740 0.41000
C 	C 	0.62241 0.48741 0.67679 -0.11300
C 	C 	0.64045 0.48811 0.63721 0.05700
C 	C 	0.68032 0.48508 0.61728 -0.11200
C 	C 	0.70120 0.48600 0.57400 0.41900
C 	C 	0.70236 0.48146 0.63676 -0.03000
C 	C 	0.68450 0.48070 0.67630 0.06900
C 	C 	0.64488 0.48356 0.69684 -0.03100
C 	C 	0.72633 0.45667 0.74907 0.06500
C 	C 	0.71320 0.44280 0.79160 -0.03200
C 	C 	0.73650 0.43910 0.81010 -0.12600
C 	C 	0.77220 0.44880 0.78740 0.18200
C 	C 	0.78370 0.46210 0.74610 -0.13700
C 	C 	0.76030 0.46650 0.72570 -0.03400
C 	C 	0.82910 0.45150 0.79010 -0.05600
C 	C 	0.83990 0.45150 0.82090 0.13200
C 	C 	0.87820 0.45160 0.81100 -0.18500
C 	C 	0.49060 0.57860 0.23340 0.41000
C 	C 	0.48741 0.62241 0.21339 -0.11300
C 	C 	0.48811 0.64045 0.23423 0.05700
C 	C 	0.48508 0.68032 0.21732 -0.11200
C 	C 	0.48600 0.70120 0.23880 0.41900
C 	C 	0.48146 0.70236 0.17942 -0.03000
C 	C 	0.48070 0.68450 0.15850 0.06900
C 	C 	0.48356 0.64488 0.17472 -0.03100
C 	C 	0.45667 0.72633 0.06793 0.06500
C 	C 	0.44280 0.71320 0.05240 -0.03200
C 	C 	0.43910 0.73650 0.01430 -0.12600
C 	C 	0.44880 0.77220 0.99160 0.18200
C 	C 	0.46210 0.78370 0.00810 -0.13600
C 	C 	0.46650 0.76030 0.04750 -0.03400
C 	C 	0.45150 0.82910 0.92930 -0.05600
C 	C 	0.45150 0.83990 0.88770 0.13200
C 	C 	0.45160 0.87820 0.85920 -0.18500
C 	C 	0.69740 0.57860 0.49060 0.41000
C 	C 	0.67679 0.62241 0.48741 -0.11300
C 	C 	0.63721 0.64045 0.48811 0.05700
C 	C 	0.61728 0.68032 0.48508 -0.11200
C 	C 	0.57400 0.70120 0.48600 0.41900
C 	C 	0.63676 0.70236 0.48146 -0.03000
C 	C 	0.67630 0.68450 0.48070 0.06900
C 	C 	0.69684 0.64488 0.48356 -0.03100
C 	C 	0.74907 0.72633 0.45667 0.06500
C 	C 	0.79160 0.71320 0.44280 -0.03200
C 	C 	0.81010 0.73650 0.43910 -0.12600
C 	C 	0.78740 0.77220 0.44880 0.18200
C 	C 	0.74610 0.78370 0.46210 -0.13700
C 	C 	0.72570 0.76030 0.46650 -0.03400
C 	C 	0.79010 0.82910 0.45150 -0.05600
C 	C 	0.82090 0.83990 0.45150 0.13200
C 	C 	0.81100 0.87820 0.45160 -0.18500
C 	C 	0.23340 0.49060 0.57860 0.41000
C 	C 	0.21339 0.48741 0.62241 -0.11300
C 	C 	0.23423 0.48811 0.64045 0.05700
C 	C 	0.21732 0.48508 0.68032 -0.11200
C 	C 	0.23880 0.48600 0.70120 0.41900
C 	C 	0.17942 0.48146 0.70236 -0.03000
C 	C 	0.15850 0.48070 0.68450 0.06900
C 	C 	0.17472 0.48356 0.64488 -0.03100
C 	C 	0.06793 0.45667 0.72633 0.06500
C 	C 	0.05240 0.44280 0.71320 -0.03200
C 	C 	0.01430 0.43910 0.73650 -0.12600
C 	C 	0.99160 0.44880 0.77220 0.18200
C 	C 	0.00810 0.46210 0.78370 -0.13600
C 	C 	0.04750 0.46650 0.76030 -0.03400
C 	C 	0.92930 0.45150 0.82910 -0.05600
C 	C 	0.88770 0.45150 0.83990 0.13200
C 	C 	0.85920 0.45160 0.87820 -0.18500
C 	C 	0.57860 0.69740 0.23340 0.41000
C 	C 	0.62241 0.67679 0.21339 -0.11300
C 	C 	0.64045 0.63721 0.23423 0.05700
C 	C 	0.68032 0.61728 0.21732 -0.11200
C 	C 	0.70120 0.57400 0.23880 0.41900
C 	C 	0.70236 0.63676 0.17942 -0.03000
C 	C 	0.68450 0.67630 0.15850 0.06900
C 	C 	0.64488 0.69684 0.17472 -0.03100
C 	C 	0.72633 0.74907 0.06793 0.06500
C 	C 	0.71320 0.79160 0.05240 -0.03200
C 	C 	0.73650 0.81010 0.01430 -0.12500
C 	C 	0.77220 0.78740 0.99160 0.18100
C 	C 	0.78370 0.74610 0.00810 -0.13600
C 	C 	0.76030 0.72570 0.04750 -0.03400
C 	C 	0.82910 0.79010 0.92930 -0.05600
C 	C 	0.83990 0.82090 0.88770 0.13200
C 	C 	0.87820 0.81100 0.85920 -0.18500
C 	C 	0.49060 0.23340 0.69740 0.41000
C 	C 	0.48741 0.21339 0.67679 -0.11300
C 	C 	0.48811 0.23423 0.63721 0.05700
C 	C 	0.48508 0.21732 0.61728 -0.11200
C 	C 	0.48600 0.23880 0.57400 0.41900
C 	C 	0.48146 0.17942 0.63676 -0.03000
C 	C 	0.48070 0.15850 0.67630 0.06900
C 	C 	0.48356 0.17472 0.69684 -0.03100
C 	C 	0.45667 0.06793 0.74907 0.06500
C 	C 	0.44280 0.05240 0.79160 -0.03200
C 	C 	0.43910 0.01430 0.81010 -0.12600
C 	C 	0.44880 0.99160 0.78740 0.18200
C 	C 	0.46210 0.00810 0.74610 -0.13700
C 	C 	0.46650 0.04750 0.72570 -0.03400
C 	C 	0.45150 0.92930 0.79010 -0.05600
C 	C 	0.45150 0.88770 0.82090 0.13200
C 	C 	0.45160 0.85920 0.81100 -0.18500
C 	C 	0.69740 0.49060 0.23340 0.41000
C 	C 	0.67679 0.48741 0.21339 -0.11300
C 	C 	0.63721 0.48811 0.23423 0.05700
C 	C 	0.61728 0.48508 0.21732 -0.11200
C 	C 	0.57400 0.48600 0.23880 0.41900
C 	C 	0.63676 0.48146 0.17942 -0.03000
C 	C 	0.67630 0.48070 0.15850 0.06900
C 	C 	0.69684 0.48356 0.17472 -0.03100
C 	C 	0.74907 0.45667 0.06793 0.06500
C 	C 	0.79160 0.44280 0.05240 -0.03200
C 	C 	0.81010 0.43910 0.01430 -0.12600
C 	C 	0.78740 0.44880 0.99160 0.18200
C 	C 	0.74610 0.46210 0.00810 -0.13700
C 	C 	0.72570 0.46650 0.04750 -0.03400
C 	C 	0.79010 0.45150 0.92930 -0.05600
C 	C 	0.82090 0.45150 0.88770 0.13200
C 	C 	0.81100 0.45160 0.85920 -0.18500
C 	C 	0.23340 0.57860 0.69740 0.41000
C 	C 	0.21339 0.62241 0.67679 -0.11300
C 	C 	0.23423 0.64045 0.63721 0.05700
C 	C 	0.21732 0.68032 0.61728 -0.11200
C 	C 	0.23880 0.70120 0.57400 0.41900
C 	C 	0.17942 0.70236 0.63676 -0.03000
C 	C 	0.15850 0.68450 0.67630 0.06900
C 	C 	0.17472 0.64488 0.69684 -0.03100
C 	C 	0.06793 0.72633 0.74907 0.06500
C 	C 	0.05240 0.71320 0.79160 -0.03200
C 	C 	0.01430 0.73650 0.81010 -0.12500
C 	C 	0.99160 0.77220 0.78740 0.18100
C 	C 	0.00810 0.78370 0.74610 -0.13600
C 	C 	0.04750 0.76030 0.72570 -0.03400
C 	C 	0.92930 0.82910 0.79010 -0.05600
C 	C 	0.88770 0.83990 0.82090 0.13200
C 	C 	0.85920 0.87820 0.81100 -0.18500
C 	C 	0.57860 0.23340 0.49060 0.41000
C 	C 	0.62241 0.21339 0.48741 -0.11300
C 	C 	0.64045 0.23423 0.48811 0.05700
C 	C 	0.68032 0.21732 0.48508 -0.11200
C 	C 	0.70120 0.23880 0.48600 0.41900
C 	C 	0.70236 0.17942 0.48146 -0.03000
C 	C 	0.68450 0.15850 0.48070 0.06900
C 	C 	0.64488 0.17472 0.48356 -0.03100
C 	C 	0.72633 0.06793 0.45667 0.06500
C 	C 	0.71320 0.05240 0.44280 -0.03200
C 	C 	0.73650 0.01430 0.43910 -0.12600
C 	C 	0.77220 0.99160 0.44880 0.18200
C 	C 	0.78370 0.00810 0.46210 -0.13600
C 	C 	0.76030 0.04750 0.46650 -0.03400
C 	C 	0.82910 0.92930 0.45150 -0.05600
C 	C 	0.83990 0.88770 0.45150 0.13200
C 	C 	0.87820 0.85920 0.45160 -0.18500
C 	C 	0.49060 0.69740 0.57860 0.41000
C 	C 	0.48741 0.67679 0.62241 -0.11300
C 	C 	0.48811 0.63721 0.64045 0.05700
C 	C 	0.48508 0.61728 0.68032 -0.11200
C 	C 	0.48600 0.57400 0.70120 0.41900
C 	C 	0.48146 0.63676 0.70236 -0.03000
C 	C 	0.48070 0.67630 0.68450 0.06900
C 	C 	0.48356 0.69684 0.64488 -0.03100
C 	C 	0.45667 0.74907 0.72633 0.06500
C 	C 	0.44280 0.79160 0.71320 -0.03200
C 	C 	0.43910 0.81010 0.73650 -0.12600
C 	C 	0.44880 0.78740 0.77220 0.18200
C 	C 	0.46210 0.74610 0.78370 -0.13700
C 	C 	0.46650 0.72570 0.76030 -0.03400
C 	C 	0.45150 0.79010 0.82910 -0.05600
C 	C 	0.45150 0.82090 0.83990 0.13200
C 	C 	0.45160 0.81100 0.87820 -0.18500
N 	N 	0.30509 0.88071 0.29109 -0.08500
N 	N 	0.26830 0.89210 0.29950 -0.08300
N 	N 	0.88071 0.30509 0.52311 -0.08500
N 	N 	0.89210 0.26830 0.54010 -0.08300
N 	N 	0.29109 0.52311 0.30509 -0.08500
N 	N 	0.29950 0.54010 0.26830 -0.08300
N 	N 	0.52311 0.29109 0.88071 -0.08500
N 	N 	0.54010 0.29950 0.89210 -0.08300
N 	N 	0.30509 0.29109 0.52311 -0.08500
N 	N 	0.26830 0.29950 0.54010 -0.08300
N 	N 	0.88071 0.52311 0.29109 -0.08500
N 	N 	0.89210 0.54010 0.29950 -0.08300
N 	N 	0.29109 0.30509 0.88071 -0.08500
N 	N 	0.29950 0.26830 0.89210 -0.08300
N 	N 	0.52311 0.88071 0.30509 -0.08500
N 	N 	0.54010 0.89210 0.26830 -0.08300
N 	N 	0.30509 0.52311 0.88071 -0.08500
N 	N 	0.26830 0.54010 0.89210 -0.08300
N 	N 	0.88071 0.29109 0.30509 -0.08500
N 	N 	0.89210 0.29950 0.26830 -0.08300
N 	N 	0.29109 0.88071 0.52311 -0.08500
N 	N 	0.29950 0.89210 0.54010 -0.08300
N 	N 	0.52311 0.30509 0.29109 -0.08500
N 	N 	0.54010 0.26830 0.29950 -0.08300
N 	N 	0.69491 0.11929 0.70891 -0.08500
N 	N 	0.73170 0.10790 0.70050 -0.08300
N 	N 	0.11929 0.69491 0.47689 -0.08500
N 	N 	0.10790 0.73170 0.45990 -0.08300
N 	N 	0.70891 0.47689 0.69491 -0.08500
N 	N 	0.70050 0.45990 0.73170 -0.08300
N 	N 	0.47689 0.70891 0.11929 -0.08500
N 	N 	0.45990 0.70050 0.10790 -0.08300
N 	N 	0.69491 0.70891 0.47689 -0.08500
N 	N 	0.73170 0.70050 0.45990 -0.08300
N 	N 	0.11929 0.47689 0.70891 -0.08500
N 	N 	0.10790 0.45990 0.70050 -0.08300
N 	N 	0.70891 0.69491 0.11929 -0.08500
N 	N 	0.70050 0.73170 0.10790 -0.08300
N 	N 	0.47689 0.11929 0.69491 -0.08500
N 	N 	0.45990 0.10790 0.73170 -0.08300
N 	N 	0.69491 0.47689 0.11929 -0.08500
N 	N 	0.73170 0.45990 0.10790 -0.08300
N 	N 	0.11929 0.70891 0.69491 -0.08500
N 	N 	0.10790 0.70050 0.73170 -0.08300
N 	N 	0.70891 0.11929 0.47689 -0.08500
N 	N 	0.70050 0.10790 0.45990 -0.08300
N 	N 	0.47689 0.69491 0.70891 -0.08500
N 	N 	0.45990 0.73170 0.70050 -0.08300
O 	O 	0.44217 0.78023 0.26217 -0.48800
O 	O 	0.44540 0.72580 0.31700 -0.49500
O 	O 	0.26767 0.78559 0.44061 -0.47000
O 	O 	0.32051 0.73035 0.43939 -0.48500
O 	O 	0.19030 0.04550 0.20790 -0.21500
O 	O 	0.78023 0.44217 0.51543 -0.48800
O 	O 	0.72580 0.44540 0.51180 -0.49500
O 	O 	0.78559 0.26767 0.50613 -0.47000
O 	O 	0.73035 0.32051 0.50975 -0.48500
O 	O 	0.04550 0.19030 0.55630 -0.21500
O 	O 	0.26217 0.51543 0.44217 -0.48800
O 	O 	0.31700 0.51180 0.44540 -0.49500
O 	O 	0.44061 0.50613 0.26767 -0.47000
O 	O 	0.43939 0.50975 0.32051 -0.48500
O 	O 	0.20790 0.55630 0.19030 -0.21500
O 	O 	0.51543 0.26217 0.78023 -0.48800
O 	O 	0.51180 0.31700 0.72580 -0.49500
O 	O 	0.50613 0.44061 0.78559 -0.47000
O 	O 	0.50975 0.43939 0.73035 -0.48500
O 	O 	0.55630 0.20790 0.04550 -0.21500
O 	O 	0.44217 0.26217 0.51543 -0.48800
O 	O 	0.44540 0.31700 0.51180 -0.49500
O 	O 	0.26767 0.44061 0.50613 -0.47000
O 	O 	0.32051 0.43939 0.50975 -0.48500
O 	O 	0.19030 0.20790 0.55630 -0.21500
O 	O 	0.78023 0.51543 0.26217 -0.48800
O 	O 	0.72580 0.51180 0.31700 -0.49500
O 	O 	0.78559 0.50613 0.44061 -0.47000
O 	O 	0.73035 0.50975 0.43939 -0.48500
O 	O 	0.04550 0.55630 0.20790 -0.21500
O 	O 	0.26217 0.44217 0.78023 -0.48800
O 	O 	0.31700 0.44540 0.72580 -0.49500
O 	O 	0.44061 0.26767 0.78559 -0.47000
O 	O 	0.43939 0.32051 0.73035 -0.48500
O 	O 	0.20790 0.19030 0.04550 -0.21500
O 	O 	0.51543 0.78023 0.44217 -0.48800
O 	O 	0.51180 0.72580 0.44540 -0.49500
O 	O 	0.50613 0.78559 0.26767 -0.47000
O 	O 	0.50975 0.73035 0.32051 -0.48500
O 	O 	0.55630 0.04550 0.19030 -0.21500
O 	O 	0.44217 0.51543 0.78023 -0.48800
O 	O 	0.44540 0.51180 0.72580 -0.49500
O 	O 	0.26767 0.50613 0.78559 -0.47000
O 	O 	0.32051 0.50975 0.73035 -0.48500
O 	O 	0.19030 0.55630 0.04550 -0.21500
O 	O 	0.78023 0.26217 0.44217 -0.48800
O 	O 	0.72580 0.31700 0.44540 -0.49500
O 	O 	0.78559 0.44061 0.26767 -0.47000
O 	O 	0.73035 0.43939 0.32051 -0.48500
O 	O 	0.04550 0.20790 0.19030 -0.21500
O 	O 	0.26217 0.78023 0.51543 -0.48800
O 	O 	0.31700 0.72580 0.51180 -0.49500
O 	O 	0.44061 0.78559 0.50613 -0.47000
O 	O 	0.43939 0.73035 0.50975 -0.48500
O 	O 	0.20790 0.04550 0.55630 -0.21500
O 	O 	0.51543 0.44217 0.26217 -0.48800
O 	O 	0.51180 0.44540 0.31700 -0.49500
O 	O 	0.50613 0.26767 0.44061 -0.47000
O 	O 	0.50975 0.32051 0.43939 -0.48500
O 	O 	0.55630 0.19030 0.20790 -0.21500
O 	O 	0.55783 0.21977 0.73783 -0.48800
O 	O 	0.55460 0.27420 0.68300 -0.49500
O 	O 	0.73233 0.21441 0.55939 -0.47000
O 	O 	0.67949 0.26965 0.56061 -0.48500
O 	O 	0.80970 0.95450 0.79210 -0.21500
O 	O 	0.21977 0.55783 0.48457 -0.48800
O 	O 	0.27420 0.55460 0.48820 -0.49500
O 	O 	0.21441 0.73233 0.49387 -0.47000
O 	O 	0.26965 0.67949 0.49025 -0.48500
O 	O 	0.95450 0.80970 0.44370 -0.21500
O 	O 	0.73783 0.48457 0.55783 -0.48800
O 	O 	0.68300 0.48820 0.55460 -0.49500
O 	O 	0.55939 0.49387 0.73233 -0.47000
O 	O 	0.56061 0.49025 0.67949 -0.48500
O 	O 	0.79210 0.44370 0.80970 -0.21500
O 	O 	0.48457 0.73783 0.21977 -0.48800
O 	O 	0.48820 0.68300 0.27420 -0.49500
O 	O 	0.49387 0.55939 0.21441 -0.47000
O 	O 	0.49025 0.56061 0.26965 -0.48500
O 	O 	0.44370 0.79210 0.95450 -0.21500
O 	O 	0.55783 0.73783 0.48457 -0.48800
O 	O 	0.55460 0.68300 0.48820 -0.49500
O 	O 	0.73233 0.55939 0.49387 -0.47000
O 	O 	0.67949 0.56061 0.49025 -0.48500
O 	O 	0.80970 0.79210 0.44370 -0.21500
O 	O 	0.21977 0.48457 0.73783 -0.48800
O 	O 	0.27420 0.48820 0.68300 -0.49500
O 	O 	0.21441 0.49387 0.55939 -0.47000
O 	O 	0.26965 0.49025 0.56061 -0.48500
O 	O 	0.95450 0.44370 0.79210 -0.21500
O 	O 	0.73783 0.55783 0.21977 -0.48800
O 	O 	0.68300 0.55460 0.27420 -0.49500
O 	O 	0.55939 0.73233 0.21441 -0.47000
O 	O 	0.56061 0.67949 0.26965 -0.48500
O 	O 	0.79210 0.80970 0.95450 -0.21500
O 	O 	0.48457 0.21977 0.55783 -0.48800
O 	O 	0.48820 0.27420 0.55460 -0.49500
O 	O 	0.49387 0.21441 0.73233 -0.47000
O 	O 	0.49025 0.26965 0.67949 -0.48500
O 	O 	0.44370 0.95450 0.80970 -0.21500
O 	O 	0.55783 0.48457 0.21977 -0.48800
O 	O 	0.55460 0.48820 0.27420 -0.49500
O 	O 	0.73233 0.49387 0.21441 -0.47000
O 	O 	0.67949 0.49025 0.26965 -0.48500
O 	O 	0.80970 0.44370 0.95450 -0.21500
O 	O 	0.21977 0.73783 0.55783 -0.48800
O 	O 	0.27420 0.68300 0.55460 -0.49500
O 	O 	0.21441 0.55939 0.73233 -0.47000
O 	O 	0.26965 0.56061 0.67949 -0.48500
O 	O 	0.95450 0.79210 0.80970 -0.21500
O 	O 	0.73783 0.21977 0.48457 -0.48800
O 	O 	0.68300 0.27420 0.48820 -0.49500
O 	O 	0.55939 0.21441 0.49387 -0.47000
O 	O 	0.56061 0.26965 0.49025 -0.48500
O 	O 	0.79210 0.95450 0.44370 -0.21500
O 	O 	0.48457 0.55783 0.73783 -0.48800
O 	O 	0.48820 0.55460 0.68300 -0.49500
O 	O 	0.49387 0.73233 0.55939 -0.47000
O 	O 	0.49025 0.67949 0.56061 -0.48500
O 	O 	0.44370 0.80970 0.79210 -0.21500
