data_crystal

_cell_length_a 41.55700
_cell_length_b 41.55700
_cell_length_c 41.63930
_cell_angle_alpha 119.93500
_cell_angle_beta  119.93500
_cell_angle_gamma 90.00000

_symmetry_space_group_name_	'P 1'
_symmetry_space_group_name_H-M	'P 1'

loop_
_symmetry_equiv_pos_as_xyz
  x,y,z

loop_
_atom_site_label
_atom_site_type_symbol
_atom_site_fract_x
_atom_site_fract_y
_atom_site_fract_z
_atom_site_charge
Cu	Cu	0.17397 0.20526 0.18904 0.89900
Cu	Cu	0.23179 0.27287 0.25218 0.90100
Cu	Cu	0.89829 0.61974 0.30248 0.81800
Cu	Cu	0.31387 0.61534 0.21560 0.81400
Cu	Cu	0.37499 0.60356 0.29766 0.81900
Cu	Cu	0.01507 0.98378 0.18904 0.89900
Cu	Cu	0.02039 0.97931 0.25218 0.90100
Cu	Cu	0.40419 0.68274 0.30248 0.81800
Cu	Cu	0.90173 0.60026 0.21560 0.81400
Cu	Cu	0.92267 0.69410 0.29766 0.81900
Cu	Cu	0.20526 0.01507 0.18904 0.90000
Cu	Cu	0.27287 0.02039 0.25218 0.90100
Cu	Cu	0.61974 0.40419 0.30248 0.81800
Cu	Cu	0.61534 0.90173 0.21560 0.81400
Cu	Cu	0.60356 0.92267 0.29766 0.81900
Cu	Cu	0.98378 0.17397 0.18904 0.89900
Cu	Cu	0.97931 0.23179 0.25218 0.90000
Cu	Cu	0.68274 0.89829 0.30248 0.81800
Cu	Cu	0.60026 0.31387 0.21560 0.81400
Cu	Cu	0.69410 0.37499 0.29766 0.81900
Cu	Cu	0.82603 0.79474 0.81096 0.90000
Cu	Cu	0.76821 0.72713 0.74782 0.90100
Cu	Cu	0.10171 0.38026 0.69752 0.81900
Cu	Cu	0.68613 0.38466 0.78440 0.81600
Cu	Cu	0.62501 0.39644 0.70234 0.82000
Cu	Cu	0.98493 0.01622 0.81096 0.90000
Cu	Cu	0.97961 0.02069 0.74782 0.90100
Cu	Cu	0.59581 0.31726 0.69752 0.81900
Cu	Cu	0.09827 0.39974 0.78440 0.81600
Cu	Cu	0.07733 0.30590 0.70234 0.82000
Cu	Cu	0.79474 0.98493 0.81096 0.90000
Cu	Cu	0.72713 0.97961 0.74782 0.90100
Cu	Cu	0.38026 0.59581 0.69752 0.81900
Cu	Cu	0.38466 0.09827 0.78440 0.81700
Cu	Cu	0.39644 0.07733 0.70234 0.82100
Cu	Cu	0.01622 0.82603 0.81096 0.90100
Cu	Cu	0.02069 0.76821 0.74782 0.90200
Cu	Cu	0.31726 0.10171 0.69752 0.82000
Cu	Cu	0.39974 0.68613 0.78440 0.81700
Cu	Cu	0.30590 0.62501 0.70234 0.82100
Cu	Cu	0.97006 0.19065 -0.00000 0.91200
Cu	Cu	0.95997 0.25326 -0.00000 0.89700
Cu	Cu	0.02994 0.80935 -0.00000 0.91200
Cu	Cu	0.04003 0.74674 -0.00000 0.89800
Cu	Cu	0.19065 0.02994 -0.00000 0.91200
Cu	Cu	0.25326 0.04003 1.00000 0.90700
Cu	Cu	0.80935 0.97006 1.00000 0.92200
Cu	Cu	0.74674 0.95997 -0.00000 0.89700
H 	H 	0.30950 0.24170 0.34100 0.11100
H 	H 	0.22600 0.13490 0.23420 0.07300
H 	H 	0.32390 0.14480 0.34000 0.08300
H 	H 	0.43490 0.32100 0.46920 0.04600
H 	H 	0.49330 0.34940 0.54120 0.04500
H 	H 	0.45750 0.26200 0.54580 0.04800
H 	H 	0.39910 0.23360 0.47380 0.02900
H 	H 	0.08940 0.23840 0.10960 0.07000
H 	H 	0.18690 0.33310 0.19000 0.08200
H 	H 	0.08300 0.32830 0.09540 0.10600
H 	H 	0.22570 0.43090 0.21220 0.02600
H 	H 	0.27020 0.48540 0.23580 0.04800
H 	H 	0.18220 0.49430 0.13940 0.04600
H 	H 	0.13790 0.43990 0.11600 0.04800
H 	H 	0.96460 0.21630 0.10940 0.07000
H 	H 	0.94340 0.29980 0.19560 0.10600
H 	H 	0.93320 0.30320 0.09540 0.07900
H 	H 	0.90930 0.41310 0.25080 0.04800
H 	H 	0.90270 0.47490 0.27040 0.04200
H 	H 	0.92330 0.46790 0.18200 0.04500
H 	H 	0.93000 0.40610 0.16260 0.02800
H 	H 	0.36660 0.20630 0.40300 0.12400
H 	H 	0.17920 0.38650 0.18700 0.12300
H 	H 	0.91990 0.34780 0.14220 0.12000
H 	H 	0.03150 0.09930 0.34100 0.11100
H 	H 	0.00820 0.09930 0.23420 0.07300
H 	H 	0.01610 0.19520 0.34000 0.08400
H 	H 	0.03430 0.14820 0.46920 0.04700
H 	H 	0.04790 0.19180 0.54120 0.04500
H 	H 	0.08830 0.28380 0.54580 0.04800
H 	H 	0.07470 0.24020 0.47380 0.02900
H 	H 	0.02020 0.87120 0.10960 0.07000
H 	H 	0.00310 0.85690 0.19000 0.08200
H 	H 	0.01240 0.76710 0.09540 0.10600
H 	H 	0.98650 0.78130 0.21220 0.02600
H 	H 	0.96560 0.75040 0.23580 0.04800
H 	H 	0.95720 0.64510 0.13940 0.04500
H 	H 	0.97810 0.67610 0.11600 0.04800
H 	H 	0.14480 0.89310 0.10940 0.07000
H 	H 	0.25220 0.89580 0.19560 0.10600
H 	H 	0.16220 0.79220 0.09540 0.07900
H 	H 	0.34150 0.83770 0.25080 0.04800
H 	H 	0.36770 0.79550 0.27040 0.04200
H 	H 	0.25870 0.71410 0.18200 0.04500
H 	H 	0.23260 0.75650 0.16260 0.02800
H 	H 	0.03640 0.19670 0.40300 0.12400
H 	H 	0.00780 0.80050 0.18700 0.12300
H 	H 	0.22230 0.79440 0.14220 0.12000
H 	H 	0.24170 0.03150 0.34100 0.11100
H 	H 	0.13490 0.00820 0.23420 0.07300
H 	H 	0.14480 0.01610 0.34000 0.08400
H 	H 	0.32100 0.03430 0.46920 0.04700
H 	H 	0.34940 0.04790 0.54120 0.04500
H 	H 	0.26200 0.08830 0.54580 0.04800
H 	H 	0.23360 0.07470 0.47380 0.02900
H 	H 	0.23840 0.02020 0.10960 0.07000
H 	H 	0.33310 0.00310 0.19000 0.08200
H 	H 	0.32830 0.01240 0.09540 0.10600
H 	H 	0.43090 0.98650 0.21220 0.02600
H 	H 	0.48540 0.96560 0.23580 0.04800
H 	H 	0.49430 0.95720 0.13940 0.04500
H 	H 	0.43990 0.97810 0.11600 0.04800
H 	H 	0.21630 0.14480 0.10940 0.07000
H 	H 	0.29980 0.25220 0.19560 0.10600
H 	H 	0.30320 0.16220 0.09540 0.07900
H 	H 	0.41310 0.34150 0.25080 0.04800
H 	H 	0.47490 0.36770 0.27040 0.04200
H 	H 	0.46790 0.25870 0.18200 0.04500
H 	H 	0.40610 0.23260 0.16260 0.02800
H 	H 	0.20630 0.03640 0.40300 0.12400
H 	H 	0.38650 0.00780 0.18700 0.12300
H 	H 	0.34780 0.22230 0.14220 0.12000
H 	H 	0.09930 0.30950 0.34100 0.11100
H 	H 	0.09930 0.22600 0.23420 0.07300
H 	H 	0.19520 0.32390 0.34000 0.08300
H 	H 	0.14820 0.43490 0.46920 0.04700
H 	H 	0.19180 0.49330 0.54120 0.04500
H 	H 	0.28380 0.45750 0.54580 0.04800
H 	H 	0.24020 0.39910 0.47380 0.02900
H 	H 	0.87120 0.08940 0.10960 0.07000
H 	H 	0.85690 0.18690 0.19000 0.08200
H 	H 	0.76710 0.08300 0.09540 0.10600
H 	H 	0.78130 0.22570 0.21220 0.02600
H 	H 	0.75040 0.27020 0.23580 0.04800
H 	H 	0.64510 0.18220 0.13940 0.04600
H 	H 	0.67610 0.13790 0.11600 0.04800
H 	H 	0.89310 0.96460 0.10940 0.07000
H 	H 	0.89580 0.94340 0.19560 0.10600
H 	H 	0.79220 0.93320 0.09540 0.07900
H 	H 	0.83770 0.90930 0.25080 0.04800
H 	H 	0.79550 0.90270 0.27040 0.04200
H 	H 	0.71410 0.92330 0.18200 0.04500
H 	H 	0.75650 0.93000 0.16260 0.02800
H 	H 	0.19670 0.36660 0.40300 0.12400
H 	H 	0.80050 0.17920 0.18700 0.12300
H 	H 	0.79440 0.91990 0.14220 0.11900
H 	H 	0.69050 0.75830 0.65900 0.11100
H 	H 	0.77400 0.86510 0.76580 0.07300
H 	H 	0.67610 0.85520 0.66000 0.08300
H 	H 	0.56510 0.67900 0.53080 0.04600
H 	H 	0.50670 0.65060 0.45880 0.04500
H 	H 	0.54250 0.73800 0.45420 0.04800
H 	H 	0.60090 0.76640 0.52620 0.02800
H 	H 	0.91060 0.76160 0.89040 0.07200
H 	H 	0.81310 0.66690 0.81000 0.08200
H 	H 	0.91700 0.67170 0.90460 0.10900
H 	H 	0.77430 0.56910 0.78780 0.02600
H 	H 	0.72980 0.51460 0.76420 0.04900
H 	H 	0.81780 0.50570 0.86060 0.04800
H 	H 	0.86210 0.56010 0.88400 0.05100
H 	H 	0.03540 0.78370 0.89060 0.07200
H 	H 	0.05660 0.70020 0.80440 0.10700
H 	H 	0.06680 0.69680 0.90460 0.08200
H 	H 	0.09070 0.58690 0.74920 0.04900
H 	H 	0.09730 0.52510 0.72960 0.04300
H 	H 	0.07670 0.53210 0.81800 0.04600
H 	H 	0.07000 0.59390 0.83740 0.03000
H 	H 	0.63340 0.79370 0.59700 0.12400
H 	H 	0.82080 0.61350 0.81300 0.12300
H 	H 	0.08010 0.65220 0.85780 0.12100
H 	H 	0.96850 0.90070 0.65900 0.11000
H 	H 	0.99180 0.90070 0.76580 0.07300
H 	H 	0.98390 0.80480 0.66000 0.08300
H 	H 	0.96570 0.85180 0.53080 0.04600
H 	H 	0.95210 0.80820 0.45880 0.04500
H 	H 	0.91170 0.71620 0.45420 0.04800
H 	H 	0.92530 0.75980 0.52620 0.02800
H 	H 	0.97980 0.12880 0.89040 0.07200
H 	H 	0.99690 0.14310 0.81000 0.08200
H 	H 	0.98760 0.23290 0.90460 0.10900
H 	H 	0.01350 0.21870 0.78780 0.02700
H 	H 	0.03440 0.24960 0.76420 0.04900
H 	H 	0.04280 0.35490 0.86060 0.04800
H 	H 	0.02190 0.32390 0.88400 0.05100
H 	H 	0.85520 0.10690 0.89060 0.07200
H 	H 	0.74780 0.10420 0.80440 0.10700
H 	H 	0.83780 0.20780 0.90460 0.08200
H 	H 	0.65850 0.16230 0.74920 0.04900
H 	H 	0.63230 0.20450 0.72960 0.04300
H 	H 	0.74130 0.28590 0.81800 0.04600
H 	H 	0.76740 0.24350 0.83740 0.03000
H 	H 	0.96360 0.80330 0.59700 0.12300
H 	H 	0.99220 0.19950 0.81300 0.12300
H 	H 	0.77770 0.20560 0.85780 0.12100
H 	H 	0.75830 0.96850 0.65900 0.11100
H 	H 	0.86510 0.99180 0.76580 0.07300
H 	H 	0.85520 0.98390 0.66000 0.08300
H 	H 	0.67900 0.96570 0.53080 0.04600
H 	H 	0.65060 0.95210 0.45880 0.04500
H 	H 	0.73800 0.91170 0.45420 0.04800
H 	H 	0.76640 0.92530 0.52620 0.02800
H 	H 	0.76160 0.97980 0.89040 0.07200
H 	H 	0.66690 0.99690 0.81000 0.08200
H 	H 	0.67170 0.98760 0.90460 0.10900
H 	H 	0.56910 0.01350 0.78780 0.02700
H 	H 	0.51460 0.03440 0.76420 0.04900
H 	H 	0.50570 0.04280 0.86060 0.04800
H 	H 	0.56010 0.02190 0.88400 0.05100
H 	H 	0.78370 0.85520 0.89060 0.07200
H 	H 	0.70020 0.74780 0.80440 0.10700
H 	H 	0.69680 0.83780 0.90460 0.08200
H 	H 	0.58690 0.65850 0.74920 0.04900
H 	H 	0.52510 0.63230 0.72960 0.04300
H 	H 	0.53210 0.74130 0.81800 0.04600
H 	H 	0.59390 0.76740 0.83740 0.03000
H 	H 	0.79370 0.96360 0.59700 0.12400
H 	H 	0.61350 0.99220 0.81300 0.12300
H 	H 	0.65220 0.77770 0.85780 0.12100
H 	H 	0.90070 0.69050 0.65900 0.11100
H 	H 	0.90070 0.77400 0.76580 0.07300
H 	H 	0.80480 0.67610 0.66000 0.08300
H 	H 	0.85180 0.56510 0.53080 0.04600
H 	H 	0.80820 0.50670 0.45880 0.04500
H 	H 	0.71620 0.54250 0.45420 0.04800
H 	H 	0.75980 0.60090 0.52620 0.02800
H 	H 	0.12880 0.91060 0.89040 0.07200
H 	H 	0.14310 0.81310 0.81000 0.08200
H 	H 	0.23290 0.91700 0.90460 0.10900
H 	H 	0.21870 0.77430 0.78780 0.02700
H 	H 	0.24960 0.72980 0.76420 0.04900
H 	H 	0.35490 0.81780 0.86060 0.04800
H 	H 	0.32390 0.86210 0.88400 0.05100
H 	H 	0.10690 0.03540 0.89060 0.07200
H 	H 	0.10420 0.05660 0.80440 0.10700
H 	H 	0.20780 0.06680 0.90460 0.08200
H 	H 	0.16230 0.09070 0.74920 0.04900
H 	H 	0.20450 0.09730 0.72960 0.04300
H 	H 	0.28590 0.07670 0.81800 0.04600
H 	H 	0.24350 0.07000 0.83740 0.03000
H 	H 	0.80330 0.63340 0.59700 0.12400
H 	H 	0.19950 0.82080 0.81300 0.12300
H 	H 	0.20560 0.08010 0.85780 0.12100
C 	C 	0.26049 0.08926 0.25978 0.33400
C 	C 	0.24028 0.20990 0.26184 0.31700
C 	C 	0.30011 0.21411 0.32636 -0.11200
C 	C 	0.26418 0.19099 0.28426 -0.01800
C 	C 	0.25048 0.15065 0.26290 -0.03000
C 	C 	0.27271 0.13343 0.28364 -0.02000
C 	C 	0.30864 0.15655 0.32574 -0.11100
C 	C 	0.32233 0.19689 0.34710 0.14600
C 	C 	0.37552 0.25859 0.41838 0.21600
C 	C 	0.41157 0.27468 0.46476 -0.05600
C 	C 	0.43953 0.30907 0.48478 -0.01600
C 	C 	0.47419 0.32592 0.52754 -0.06100
C 	C 	0.48089 0.30839 0.55030 -0.00400
C 	C 	0.45294 0.27400 0.53028 -0.06300
C 	C 	0.41827 0.25714 0.48752 -0.01700
C 	C 	0.51660 0.32391 0.59502 0.09500
C 	C 	0.16584 0.26693 0.17914 0.33000
C 	C 	0.03671 0.25877 0.05966 0.32500
C 	C 	0.10168 0.26334 0.11852 -0.02500
C 	C 	0.14156 0.28305 0.15316 -0.02300
C 	C 	0.15959 0.31960 0.16626 -0.10900
C 	C 	0.13775 0.33646 0.14474 0.14200
C 	C 	0.09789 0.31676 0.11012 -0.10500
C 	C 	0.07985 0.28020 0.09700 -0.02500
C 	C 	0.14647 0.39522 0.14372 0.22000
C 	C 	0.17760 0.43027 0.16184 -0.05700
C 	C 	0.21690 0.44378 0.19742 -0.01400
C 	C 	0.24329 0.47615 0.21140 -0.06500
C 	C 	0.23038 0.49500 0.18980 0.00100
C 	C 	0.19111 0.48149 0.15422 -0.06300
C 	C 	0.16470 0.44912 0.14024 -0.01500
C 	C 	0.26180 0.52822 0.20764 0.08800
C 	C 	0.96534 0.23669 0.18180 0.31900
C 	C 	0.95652 0.24462 0.06104 0.34300
C 	C 	0.95743 0.23931 0.11910 -0.02300
C 	C 	0.95527 0.25519 0.15602 -0.02000
C 	C 	0.94487 0.28894 0.17032 -0.10800
C 	C 	0.93663 0.30681 0.14770 0.14200
C 	C 	0.93878 0.29093 0.11078 -0.10600
C 	C 	0.94918 0.25718 0.09648 -0.03200
C 	C 	0.92357 0.36399 0.19448 0.20700
C 	C 	0.92029 0.40378 0.20486 -0.05100
C 	C 	0.91219 0.42422 0.23690 -0.02300
C 	C 	0.90824 0.46094 0.24848 -0.05600
C 	C 	0.91231 0.47721 0.22802 -0.01000
C 	C 	0.92039 0.45669 0.19598 -0.05800
C 	C 	0.92442 0.42004 0.18440 -0.02200
C 	C 	0.90816 0.51426 0.23732 0.09600
C 	C 	0.99929 0.17052 0.25978 0.33300
C 	C 	0.02156 0.05194 0.26184 0.31700
C 	C 	0.02625 0.11225 0.32636 -0.11200
C 	C 	0.02008 0.09327 0.28426 -0.01700
C 	C 	0.01242 0.11225 0.26290 -0.03000
C 	C 	0.01093 0.15021 0.28364 -0.01800
C 	C 	0.01710 0.16919 0.32574 -0.11200
C 	C 	0.02477 0.15021 0.34710 0.14600
C 	C 	0.04286 0.15979 0.41838 0.21600
C 	C 	0.05319 0.19008 0.46476 -0.05600
C 	C 	0.04525 0.17571 0.48478 -0.01600
C 	C 	0.05335 0.20162 0.52754 -0.06100
C 	C 	0.06941 0.24191 0.55030 -0.00400
C 	C 	0.07734 0.25628 0.53028 -0.06300
C 	C 	0.06925 0.23038 0.48752 -0.01700
C 	C 	0.07842 0.27111 0.59502 0.09500
C 	C 	0.01330 0.91221 0.17914 0.33000
C 	C 	0.02295 0.80089 0.05966 0.32500
C 	C 	0.01684 0.85518 0.11852 -0.02500
C 	C 	0.01160 0.87011 0.15316 -0.02300
C 	C 	0.00667 0.84666 0.16626 -0.10900
C 	C 	0.00699 0.80828 0.14474 0.14200
C 	C 	0.01223 0.79336 0.11012 -0.10500
C 	C 	0.01715 0.81680 0.09700 -0.02500
C 	C 	0.99725 0.74850 0.14372 0.21800
C 	C 	0.98424 0.73157 0.16184 -0.05600
C 	C 	0.98052 0.75364 0.19742 -0.01500
C 	C 	0.96811 0.73525 0.21140 -0.06500
C 	C 	0.95942 0.69480 0.18980 0.00000
C 	C 	0.96311 0.67273 0.15422 -0.06300
C 	C 	0.97554 0.69112 0.14024 -0.01600
C 	C 	0.94584 0.67942 0.20764 0.08800
C 	C 	0.21646 0.94511 0.18180 0.31900
C 	C 	0.10452 0.81642 0.06104 0.34300
C 	C 	0.16167 0.87979 0.11910 -0.02300
C 	C 	0.20075 0.90083 0.15602 -0.02000
C 	C 	0.22545 0.88138 0.17032 -0.10800
C 	C 	0.21107 0.84089 0.14770 0.14200
C 	C 	0.17200 0.81985 0.11078 -0.10600
C 	C 	0.14730 0.83930 0.09648 -0.03200
C 	C 	0.27091 0.83049 0.19448 0.20700
C 	C 	0.28457 0.80108 0.20486 -0.05100
C 	C 	0.32471 0.81268 0.23690 -0.02300
C 	C 	0.34024 0.78754 0.24848 -0.05600
C 	C 	0.31571 0.75081 0.22802 -0.01000
C 	C 	0.27559 0.73929 0.19598 -0.05800
C 	C 	0.25998 0.76436 0.18440 -0.02200
C 	C 	0.32916 0.72306 0.23732 0.09700
C 	C 	0.08926 0.99929 0.25978 0.33400
C 	C 	0.20990 0.02156 0.26184 0.31700
C 	C 	0.21411 0.02625 0.32636 -0.11200
C 	C 	0.19099 0.02008 0.28426 -0.01700
C 	C 	0.15065 0.01242 0.26290 -0.03000
C 	C 	0.13343 0.01093 0.28364 -0.01800
C 	C 	0.15655 0.01710 0.32574 -0.11200
C 	C 	0.19689 0.02477 0.34710 0.14600
C 	C 	0.25859 0.04286 0.41838 0.21600
C 	C 	0.27468 0.05319 0.46476 -0.05600
C 	C 	0.30907 0.04525 0.48478 -0.01600
C 	C 	0.32592 0.05335 0.52754 -0.06100
C 	C 	0.30839 0.06941 0.55030 -0.00400
C 	C 	0.27400 0.07734 0.53028 -0.06300
C 	C 	0.25714 0.06925 0.48752 -0.01600
C 	C 	0.32391 0.07842 0.59502 0.09500
C 	C 	0.26693 0.01330 0.17914 0.33000
C 	C 	0.25877 0.02295 0.05966 0.32500
C 	C 	0.26334 0.01684 0.11852 -0.02500
C 	C 	0.28305 0.01160 0.15316 -0.02300
C 	C 	0.31960 0.00667 0.16626 -0.10900
C 	C 	0.33646 0.00699 0.14474 0.14200
C 	C 	0.31676 0.01223 0.11012 -0.10500
C 	C 	0.28020 0.01715 0.09700 -0.02500
C 	C 	0.39522 0.99725 0.14372 0.21800
C 	C 	0.43027 0.98424 0.16184 -0.05600
C 	C 	0.44378 0.98052 0.19742 -0.01500
C 	C 	0.47615 0.96811 0.21140 -0.06500
C 	C 	0.49500 0.95942 0.18980 0.00000
C 	C 	0.48149 0.96311 0.15422 -0.06300
C 	C 	0.44912 0.97554 0.14024 -0.01600
C 	C 	0.52822 0.94584 0.20764 0.08800
C 	C 	0.23669 0.21646 0.18180 0.31900
C 	C 	0.24462 0.10452 0.06104 0.34400
C 	C 	0.23931 0.16167 0.11910 -0.02300
C 	C 	0.25519 0.20075 0.15602 -0.02000
C 	C 	0.28894 0.22545 0.17032 -0.10800
C 	C 	0.30681 0.21107 0.14770 0.14200
C 	C 	0.29093 0.17200 0.11078 -0.10600
C 	C 	0.25718 0.14730 0.09648 -0.03200
C 	C 	0.36399 0.27091 0.19448 0.20700
C 	C 	0.40378 0.28457 0.20486 -0.05100
C 	C 	0.42422 0.32471 0.23690 -0.02300
C 	C 	0.46094 0.34024 0.24848 -0.05600
C 	C 	0.47721 0.31571 0.22802 -0.01000
C 	C 	0.45669 0.27559 0.19598 -0.05800
C 	C 	0.42004 0.25998 0.18440 -0.02200
C 	C 	0.51426 0.32916 0.23732 0.09700
C 	C 	0.17052 0.26049 0.25978 0.33400
C 	C 	0.05194 0.24028 0.26184 0.31700
C 	C 	0.11225 0.30011 0.32636 -0.11200
C 	C 	0.09327 0.26418 0.28426 -0.01800
C 	C 	0.11225 0.25048 0.26290 -0.03000
C 	C 	0.15021 0.27271 0.28364 -0.01900
C 	C 	0.16919 0.30864 0.32574 -0.11100
C 	C 	0.15021 0.32233 0.34710 0.14600
C 	C 	0.15979 0.37552 0.41838 0.21600
C 	C 	0.19008 0.41157 0.46476 -0.05600
C 	C 	0.17571 0.43953 0.48478 -0.01600
C 	C 	0.20162 0.47419 0.52754 -0.06100
C 	C 	0.24191 0.48089 0.55030 -0.00400
C 	C 	0.25628 0.45294 0.53028 -0.06300
C 	C 	0.23038 0.41827 0.48752 -0.01700
C 	C 	0.27111 0.51660 0.59502 0.09500
C 	C 	0.91221 0.16584 0.17914 0.33000
C 	C 	0.80089 0.03671 0.05966 0.32500
C 	C 	0.85518 0.10168 0.11852 -0.02500
C 	C 	0.87011 0.14156 0.15316 -0.02300
C 	C 	0.84666 0.15959 0.16626 -0.10900
C 	C 	0.80828 0.13775 0.14474 0.14200
C 	C 	0.79336 0.09789 0.11012 -0.10500
C 	C 	0.81680 0.07985 0.09700 -0.02500
C 	C 	0.74850 0.14647 0.14372 0.22000
C 	C 	0.73157 0.17760 0.16184 -0.05700
C 	C 	0.75364 0.21690 0.19742 -0.01400
C 	C 	0.73525 0.24329 0.21140 -0.06500
C 	C 	0.69480 0.23038 0.18980 0.00100
C 	C 	0.67273 0.19111 0.15422 -0.06300
C 	C 	0.69112 0.16470 0.14024 -0.01500
C 	C 	0.67942 0.26180 0.20764 0.08800
C 	C 	0.94511 0.96534 0.18180 0.31900
C 	C 	0.81642 0.95652 0.06104 0.34400
C 	C 	0.87979 0.95743 0.11910 -0.02300
C 	C 	0.90083 0.95527 0.15602 -0.02100
C 	C 	0.88138 0.94487 0.17032 -0.10800
C 	C 	0.84089 0.93663 0.14770 0.14200
C 	C 	0.81985 0.93878 0.11078 -0.10600
C 	C 	0.83930 0.94918 0.09648 -0.03300
C 	C 	0.83049 0.92357 0.19448 0.20700
C 	C 	0.80108 0.92029 0.20486 -0.05100
C 	C 	0.81268 0.91219 0.23690 -0.02300
C 	C 	0.78754 0.90824 0.24848 -0.05600
C 	C 	0.75081 0.91231 0.22802 -0.01000
C 	C 	0.73929 0.92039 0.19598 -0.05800
C 	C 	0.76436 0.92442 0.18440 -0.02200
C 	C 	0.72306 0.90816 0.23732 0.09600
C 	C 	0.73951 0.91074 0.74022 0.33400
C 	C 	0.75972 0.79010 0.73816 0.31700
C 	C 	0.69989 0.78589 0.67364 -0.11200
C 	C 	0.73582 0.80901 0.71574 -0.01800
C 	C 	0.74952 0.84935 0.73710 -0.03000
C 	C 	0.72729 0.86657 0.71636 -0.01900
C 	C 	0.69136 0.84345 0.67426 -0.11100
C 	C 	0.67767 0.80311 0.65290 0.14600
C 	C 	0.62448 0.74141 0.58162 0.21600
C 	C 	0.58843 0.72532 0.53524 -0.05600
C 	C 	0.56047 0.69093 0.51522 -0.01600
C 	C 	0.52581 0.67408 0.47246 -0.06100
C 	C 	0.51911 0.69161 0.44970 -0.00400
C 	C 	0.54706 0.72600 0.46972 -0.06300
C 	C 	0.58173 0.74286 0.51248 -0.01700
C 	C 	0.48340 0.67609 0.40498 0.09500
C 	C 	0.83416 0.73307 0.82086 0.32900
C 	C 	0.96329 0.74123 0.94034 0.32400
C 	C 	0.89832 0.73666 0.88148 -0.02600
C 	C 	0.85844 0.71695 0.84684 -0.02100
C 	C 	0.84041 0.68040 0.83374 -0.11000
C 	C 	0.86225 0.66354 0.85526 0.14400
C 	C 	0.90211 0.68324 0.88988 -0.10600
C 	C 	0.92015 0.71980 0.90300 -0.02200
C 	C 	0.85353 0.60478 0.85628 0.22000
C 	C 	0.82240 0.56973 0.83816 -0.05500
C 	C 	0.78310 0.55622 0.80258 -0.01400
C 	C 	0.75671 0.52385 0.78860 -0.06500
C 	C 	0.76962 0.50500 0.81020 0.00100
C 	C 	0.80889 0.51851 0.84578 -0.06200
C 	C 	0.83530 0.55088 0.85976 -0.01500
C 	C 	0.73820 0.47178 0.79236 0.08900
C 	C 	0.03466 0.76331 0.81820 0.31900
C 	C 	0.04348 0.75538 0.93896 0.34200
C 	C 	0.04257 0.76069 0.88090 -0.02400
C 	C 	0.04473 0.74481 0.84398 -0.01800
C 	C 	0.05513 0.71106 0.82968 -0.10900
C 	C 	0.06337 0.69319 0.85230 0.14500
C 	C 	0.06122 0.70907 0.88922 -0.10700
C 	C 	0.05082 0.74282 0.90352 -0.02800
C 	C 	0.07643 0.63601 0.80552 0.20800
C 	C 	0.07971 0.59622 0.79514 -0.05000
C 	C 	0.08781 0.57578 0.76310 -0.02200
C 	C 	0.09176 0.53906 0.75152 -0.05600
C 	C 	0.08769 0.52279 0.77198 -0.00900
C 	C 	0.07961 0.54331 0.80402 -0.05700
C 	C 	0.07558 0.57996 0.81560 -0.02200
C 	C 	0.09184 0.48574 0.76268 0.09700
C 	C 	0.00071 0.82948 0.74022 0.33500
C 	C 	0.97844 0.94806 0.73816 0.31700
C 	C 	0.97375 0.88775 0.67364 -0.11200
C 	C 	0.97992 0.90673 0.71574 -0.01800
C 	C 	0.98758 0.88775 0.73710 -0.03000
C 	C 	0.98907 0.84979 0.71636 -0.02000
C 	C 	0.98290 0.83081 0.67426 -0.11100
C 	C 	0.97523 0.84979 0.65290 0.14500
C 	C 	0.95714 0.84021 0.58162 0.21600
C 	C 	0.94681 0.80992 0.53524 -0.05600
C 	C 	0.95475 0.82429 0.51522 -0.01600
C 	C 	0.94665 0.79838 0.47246 -0.06100
C 	C 	0.93059 0.75809 0.44970 -0.00400
C 	C 	0.92266 0.74372 0.46972 -0.06300
C 	C 	0.93075 0.76962 0.51248 -0.01700
C 	C 	0.92158 0.72889 0.40498 0.09500
C 	C 	0.98670 0.08779 0.82086 0.32900
C 	C 	0.97705 0.19911 0.94034 0.32400
C 	C 	0.98316 0.14482 0.88148 -0.02600
C 	C 	0.98840 0.12989 0.84684 -0.02100
C 	C 	0.99333 0.15334 0.83374 -0.11000
C 	C 	0.99301 0.19172 0.85526 0.14400
C 	C 	0.98777 0.20664 0.88988 -0.10600
C 	C 	0.98285 0.18320 0.90300 -0.02200
C 	C 	0.00275 0.25150 0.85628 0.22100
C 	C 	0.01576 0.26843 0.83816 -0.05600
C 	C 	0.01948 0.24636 0.80258 -0.01400
C 	C 	0.03189 0.26475 0.78860 -0.06500
C 	C 	0.04058 0.30520 0.81020 0.00100
C 	C 	0.03689 0.32727 0.84578 -0.06200
C 	C 	0.02446 0.30888 0.85976 -0.01500
C 	C 	0.05416 0.32058 0.79236 0.08900
C 	C 	0.78354 0.05489 0.81820 0.31900
C 	C 	0.89548 0.18358 0.93896 0.34100
C 	C 	0.83833 0.12021 0.88090 -0.02400
C 	C 	0.79925 0.09917 0.84398 -0.01800
C 	C 	0.77455 0.11862 0.82968 -0.10900
C 	C 	0.78893 0.15911 0.85230 0.14500
C 	C 	0.82800 0.18015 0.88922 -0.10700
C 	C 	0.85270 0.16070 0.90352 -0.02800
C 	C 	0.72909 0.16951 0.80552 0.20800
C 	C 	0.71543 0.19892 0.79514 -0.05000
C 	C 	0.67529 0.18732 0.76310 -0.02200
C 	C 	0.65976 0.21246 0.75152 -0.05600
C 	C 	0.68429 0.24919 0.77198 -0.00900
C 	C 	0.72441 0.26071 0.80402 -0.05700
C 	C 	0.74002 0.23564 0.81560 -0.02200
C 	C 	0.67084 0.27694 0.76268 0.09700
C 	C 	0.91074 0.00071 0.74022 0.33500
C 	C 	0.79010 0.97844 0.73816 0.31700
C 	C 	0.78589 0.97375 0.67364 -0.11200
C 	C 	0.80901 0.97992 0.71574 -0.01800
C 	C 	0.84935 0.98758 0.73710 -0.03000
C 	C 	0.86657 0.98907 0.71636 -0.02000
C 	C 	0.84345 0.98290 0.67426 -0.11100
C 	C 	0.80311 0.97523 0.65290 0.14600
C 	C 	0.74141 0.95714 0.58162 0.21600
C 	C 	0.72532 0.94681 0.53524 -0.05600
C 	C 	0.69093 0.95475 0.51522 -0.01600
C 	C 	0.67408 0.94665 0.47246 -0.06100
C 	C 	0.69161 0.93059 0.44970 -0.00400
C 	C 	0.72600 0.92266 0.46972 -0.06300
C 	C 	0.74286 0.93075 0.51248 -0.01700
C 	C 	0.67609 0.92158 0.40498 0.09500
C 	C 	0.73307 0.98670 0.82086 0.32900
C 	C 	0.74123 0.97705 0.94034 0.32400
C 	C 	0.73666 0.98316 0.88148 -0.02600
C 	C 	0.71695 0.98840 0.84684 -0.02100
C 	C 	0.68040 0.99333 0.83374 -0.11000
C 	C 	0.66354 0.99301 0.85526 0.14400
C 	C 	0.68324 0.98777 0.88988 -0.10600
C 	C 	0.71980 0.98285 0.90300 -0.02200
C 	C 	0.60478 0.00275 0.85628 0.22100
C 	C 	0.56973 0.01576 0.83816 -0.05600
C 	C 	0.55622 0.01948 0.80258 -0.01400
C 	C 	0.52385 0.03189 0.78860 -0.06500
C 	C 	0.50500 0.04058 0.81020 0.00100
C 	C 	0.51851 0.03689 0.84578 -0.06200
C 	C 	0.55088 0.02446 0.85976 -0.01500
C 	C 	0.47178 0.05416 0.79236 0.08900
C 	C 	0.76331 0.78354 0.81820 0.31900
C 	C 	0.75538 0.89548 0.93896 0.34200
C 	C 	0.76069 0.83833 0.88090 -0.02400
C 	C 	0.74481 0.79925 0.84398 -0.01800
C 	C 	0.71106 0.77455 0.82968 -0.10900
C 	C 	0.69319 0.78893 0.85230 0.14400
C 	C 	0.70907 0.82800 0.88922 -0.10700
C 	C 	0.74282 0.85270 0.90352 -0.02800
C 	C 	0.63601 0.72909 0.80552 0.20800
C 	C 	0.59622 0.71543 0.79514 -0.05000
C 	C 	0.57578 0.67529 0.76310 -0.02200
C 	C 	0.53906 0.65976 0.75152 -0.05600
C 	C 	0.52279 0.68429 0.77198 -0.00900
C 	C 	0.54331 0.72441 0.80402 -0.05700
C 	C 	0.57996 0.74002 0.81560 -0.02200
C 	C 	0.48574 0.67084 0.76268 0.09700
C 	C 	0.82948 0.73951 0.74022 0.33400
C 	C 	0.94806 0.75972 0.73816 0.31700
C 	C 	0.88775 0.69989 0.67364 -0.11200
C 	C 	0.90673 0.73582 0.71574 -0.01800
C 	C 	0.88775 0.74952 0.73710 -0.03000
C 	C 	0.84979 0.72729 0.71636 -0.01900
C 	C 	0.83081 0.69136 0.67426 -0.11100
C 	C 	0.84979 0.67767 0.65290 0.14600
C 	C 	0.84021 0.62448 0.58162 0.21600
C 	C 	0.80992 0.58843 0.53524 -0.05600
C 	C 	0.82429 0.56047 0.51522 -0.01600
C 	C 	0.79838 0.52581 0.47246 -0.06100
C 	C 	0.75809 0.51911 0.44970 -0.00400
C 	C 	0.74372 0.54706 0.46972 -0.06300
C 	C 	0.76962 0.58173 0.51248 -0.01700
C 	C 	0.72889 0.48340 0.40498 0.09500
C 	C 	0.08779 0.83416 0.82086 0.32900
C 	C 	0.19911 0.96329 0.94034 0.32400
C 	C 	0.14482 0.89832 0.88148 -0.02600
C 	C 	0.12989 0.85844 0.84684 -0.02100
C 	C 	0.15334 0.84041 0.83374 -0.11000
C 	C 	0.19172 0.86225 0.85526 0.14400
C 	C 	0.20664 0.90211 0.88988 -0.10600
C 	C 	0.18320 0.92015 0.90300 -0.02200
C 	C 	0.25150 0.85353 0.85628 0.22000
C 	C 	0.26843 0.82240 0.83816 -0.05500
C 	C 	0.24636 0.78310 0.80258 -0.01400
C 	C 	0.26475 0.75671 0.78860 -0.06500
C 	C 	0.30520 0.76962 0.81020 0.00100
C 	C 	0.32727 0.80889 0.84578 -0.06200
C 	C 	0.30888 0.83530 0.85976 -0.01500
C 	C 	0.32058 0.73820 0.79236 0.08900
C 	C 	0.05489 0.03466 0.81820 0.31900
C 	C 	0.18358 0.04348 0.93896 0.34200
C 	C 	0.12021 0.04257 0.88090 -0.02400
C 	C 	0.09917 0.04473 0.84398 -0.01800
C 	C 	0.11862 0.05513 0.82968 -0.10900
C 	C 	0.15911 0.06337 0.85230 0.14500
C 	C 	0.18015 0.06122 0.88922 -0.10700
C 	C 	0.16070 0.05082 0.90352 -0.02800
C 	C 	0.16951 0.07643 0.80552 0.20800
C 	C 	0.19892 0.07971 0.79514 -0.05000
C 	C 	0.18732 0.08781 0.76310 -0.02200
C 	C 	0.21246 0.09176 0.75152 -0.05600
C 	C 	0.24919 0.08769 0.77198 -0.00900
C 	C 	0.26071 0.07961 0.80402 -0.05700
C 	C 	0.23564 0.07558 0.81560 -0.02200
C 	C 	0.27694 0.09184 0.76268 0.09700
N 	N 	0.54397 0.35897 0.62394 -0.12400
N 	N 	0.57042 0.35982 0.65944 -0.19200
N 	N 	0.55930 0.32520 0.65220 -0.19200
N 	N 	0.52517 0.30127 0.61174 -0.11600
N 	N 	0.29761 0.54441 0.24902 -0.11400
N 	N 	0.31883 0.57353 0.25486 -0.18800
N 	N 	0.29700 0.57465 0.21860 -0.19600
N 	N 	0.26232 0.54752 0.18964 -0.12000
N 	N 	0.35630 0.21936 0.39124 -0.23700
N 	N 	0.15634 0.37423 0.16056 -0.24000
N 	N 	0.92615 0.34058 0.16062 -0.23700
N 	N 	0.90195 0.56935 0.26390 -0.18500
N 	N 	0.90387 0.54047 0.26934 -0.12400
N 	N 	0.90826 0.52776 0.21332 -0.11500
N 	N 	0.90430 0.56260 0.23040 -0.19300
N 	N 	0.07997 0.26497 0.62394 -0.12400
N 	N 	0.08902 0.29962 0.65944 -0.19200
N 	N 	0.09290 0.32700 0.65220 -0.19200
N 	N 	0.08657 0.31047 0.61174 -0.11600
N 	N 	0.95141 0.70461 0.24902 -0.11400
N 	N 	0.93603 0.68133 0.25486 -0.18800
N 	N 	0.92160 0.64395 0.21860 -0.19600
N 	N 	0.92732 0.64212 0.18964 -0.12000
N 	N 	0.03494 0.17188 0.39124 -0.23700
N 	N 	0.00422 0.78633 0.16056 -0.23900
N 	N 	0.23447 0.82004 0.16062 -0.23700
N 	N 	0.36195 0.69455 0.26390 -0.18500
N 	N 	0.36547 0.72887 0.26934 -0.12400
N 	N 	0.30506 0.68556 0.21332 -0.11500
N 	N 	0.32610 0.66780 0.23040 -0.19300
N 	N 	0.35897 0.07997 0.62394 -0.12400
N 	N 	0.35982 0.08902 0.65944 -0.19200
N 	N 	0.32520 0.09290 0.65220 -0.19200
N 	N 	0.30127 0.08657 0.61174 -0.11600
N 	N 	0.54441 0.95141 0.24902 -0.11400
N 	N 	0.57353 0.93603 0.25486 -0.18800
N 	N 	0.57465 0.92160 0.21860 -0.19600
N 	N 	0.54752 0.92732 0.18964 -0.12000
N 	N 	0.21936 0.03494 0.39124 -0.23700
N 	N 	0.37423 0.00422 0.16056 -0.23900
N 	N 	0.34058 0.23447 0.16062 -0.23700
N 	N 	0.56935 0.36195 0.26390 -0.18500
N 	N 	0.54047 0.36547 0.26934 -0.12400
N 	N 	0.52776 0.30506 0.21332 -0.11500
N 	N 	0.56260 0.32610 0.23040 -0.19300
N 	N 	0.26497 0.54397 0.62394 -0.12400
N 	N 	0.29962 0.57042 0.65944 -0.19200
N 	N 	0.32700 0.55930 0.65220 -0.19200
N 	N 	0.31047 0.52517 0.61174 -0.11600
N 	N 	0.70461 0.29761 0.24902 -0.11400
N 	N 	0.68133 0.31883 0.25486 -0.18800
N 	N 	0.64395 0.29700 0.21860 -0.19600
N 	N 	0.64212 0.26232 0.18964 -0.12000
N 	N 	0.17188 0.35630 0.39124 -0.23700
N 	N 	0.78633 0.15634 0.16056 -0.24000
N 	N 	0.82004 0.92615 0.16062 -0.23700
N 	N 	0.69455 0.90195 0.26390 -0.18500
N 	N 	0.72887 0.90387 0.26934 -0.12400
N 	N 	0.68556 0.90826 0.21332 -0.11500
N 	N 	0.66780 0.90430 0.23040 -0.19300
N 	N 	0.45603 0.64103 0.37606 -0.12400
N 	N 	0.42958 0.64018 0.34056 -0.19200
N 	N 	0.44070 0.67480 0.34780 -0.19200
N 	N 	0.47483 0.69873 0.38826 -0.11600
N 	N 	0.70239 0.45559 0.75098 -0.11400
N 	N 	0.68117 0.42647 0.74514 -0.18800
N 	N 	0.70300 0.42535 0.78140 -0.19600
N 	N 	0.73768 0.45248 0.81036 -0.11900
N 	N 	0.64370 0.78064 0.60876 -0.23700
N 	N 	0.84366 0.62577 0.83944 -0.23900
N 	N 	0.07385 0.65942 0.83938 -0.23700
N 	N 	0.09805 0.43065 0.73610 -0.18500
N 	N 	0.09613 0.45953 0.73066 -0.12400
N 	N 	0.09174 0.47224 0.78668 -0.11300
N 	N 	0.09570 0.43740 0.76960 -0.19200
N 	N 	0.92003 0.73503 0.37606 -0.12400
N 	N 	0.91098 0.70038 0.34056 -0.19200
N 	N 	0.90710 0.67300 0.34780 -0.19200
N 	N 	0.91343 0.68953 0.38826 -0.11600
N 	N 	0.04859 0.29539 0.75098 -0.11400
N 	N 	0.06397 0.31867 0.74514 -0.18800
N 	N 	0.07840 0.35605 0.78140 -0.19500
N 	N 	0.07268 0.35788 0.81036 -0.11900
N 	N 	0.96506 0.82812 0.60876 -0.23700
N 	N 	0.99578 0.21367 0.83944 -0.24000
N 	N 	0.76553 0.17996 0.83938 -0.23700
N 	N 	0.63805 0.30545 0.73610 -0.18500
N 	N 	0.63453 0.27113 0.73066 -0.12400
N 	N 	0.69494 0.31444 0.78668 -0.11300
N 	N 	0.67390 0.33220 0.76960 -0.19200
N 	N 	0.64103 0.92003 0.37606 -0.12400
N 	N 	0.64018 0.91098 0.34056 -0.19200
N 	N 	0.67480 0.90710 0.34780 -0.19200
N 	N 	0.69873 0.91343 0.38826 -0.11600
N 	N 	0.45559 0.04859 0.75098 -0.11400
N 	N 	0.42647 0.06397 0.74514 -0.18800
N 	N 	0.42535 0.07840 0.78140 -0.19500
N 	N 	0.45248 0.07268 0.81036 -0.11900
N 	N 	0.78064 0.96506 0.60876 -0.23700
N 	N 	0.62577 0.99578 0.83944 -0.24000
N 	N 	0.65942 0.76553 0.83938 -0.23700
N 	N 	0.43065 0.63805 0.73610 -0.18500
N 	N 	0.45953 0.63453 0.73066 -0.12400
N 	N 	0.47224 0.69494 0.78668 -0.11300
N 	N 	0.43740 0.67390 0.76960 -0.19200
N 	N 	0.73503 0.45603 0.37606 -0.12400
N 	N 	0.70038 0.42958 0.34056 -0.19200
N 	N 	0.67300 0.44070 0.34780 -0.19200
N 	N 	0.68953 0.47483 0.38826 -0.11600
N 	N 	0.29539 0.70239 0.75098 -0.11400
N 	N 	0.31867 0.68117 0.74514 -0.18800
N 	N 	0.35605 0.70300 0.78140 -0.19600
N 	N 	0.35788 0.73768 0.81036 -0.11900
N 	N 	0.82812 0.64370 0.60876 -0.23700
N 	N 	0.21367 0.84366 0.83944 -0.23900
N 	N 	0.17996 0.07385 0.83938 -0.23700
N 	N 	0.30545 0.09805 0.73610 -0.18500
N 	N 	0.27113 0.09613 0.73066 -0.12300
N 	N 	0.31444 0.09174 0.78668 -0.11300
N 	N 	0.33220 0.09570 0.76960 -0.19200
O 	O 	0.20678 0.18747 0.22528 -0.40000
O 	O 	0.25540 0.24674 0.28324 -0.38500
O 	O 	0.22633 0.07258 0.22568 -0.40500
O 	O 	0.28508 0.07655 0.27978 -0.40200
O 	O 	0.36445 0.28051 0.40610 -0.22900
O 	O 	0.19972 0.29029 0.21534 -0.40400
O 	O 	0.14848 0.23210 0.16048 -0.40300
O 	O 	0.02361 0.22240 0.04286 -0.40200
O 	O 	0.01793 0.27748 0.04522 -0.38800
O 	O 	0.11175 0.38655 0.11290 -0.22800
O 	O 	0.96579 0.25356 0.21668 -0.40000
O 	O 	0.96610 0.20211 0.15950 -0.38800
O 	O 	0.96105 0.21194 0.04652 -0.41300
O 	O 	0.95132 0.26517 0.04574 -0.41600
O 	O 	0.92366 0.35322 0.21840 -0.22100
O 	O 	0.91852 0.64002 0.27984 -0.59400
O 	O 	0.01850 0.03781 0.22528 -0.40000
O 	O 	0.02784 0.03650 0.28324 -0.38500
O 	O 	0.99935 0.15310 0.22568 -0.40500
O 	O 	0.99470 0.20323 0.27978 -0.40300
O 	O 	0.04165 0.12559 0.40610 -0.22900
O 	O 	0.01562 0.92505 0.21534 -0.40400
O 	O 	0.01200 0.92838 0.16048 -0.40300
O 	O 	0.01925 0.82046 0.04286 -0.40300
O 	O 	0.02729 0.76774 0.04522 -0.38900
O 	O 	0.00115 0.72635 0.11290 -0.22700
O 	O 	0.25089 0.96312 0.21668 -0.40000
O 	O 	0.19340 0.95739 0.15950 -0.38900
O 	O 	0.08547 0.83458 0.04652 -0.41300
O 	O 	0.09442 0.78057 0.04574 -0.41500
O 	O 	0.29474 0.86518 0.21840 -0.22100
O 	O 	0.36132 0.63982 0.27984 -0.59400
O 	O 	0.18747 0.01850 0.22528 -0.40000
O 	O 	0.24674 0.02784 0.28324 -0.38500
O 	O 	0.07258 0.99935 0.22568 -0.40500
O 	O 	0.07655 0.99470 0.27978 -0.40200
O 	O 	0.28051 0.04165 0.40610 -0.22900
O 	O 	0.29029 0.01562 0.21534 -0.40400
O 	O 	0.23210 0.01200 0.16048 -0.40200
O 	O 	0.22240 0.01925 0.04286 -0.40300
O 	O 	0.27748 0.02729 0.04522 -0.39100
O 	O 	0.38655 0.00115 0.11290 -0.22700
O 	O 	0.25356 0.25089 0.21668 -0.39900
O 	O 	0.20211 0.19340 0.15950 -0.38800
O 	O 	0.21194 0.08547 0.04652 -0.41300
O 	O 	0.26517 0.09442 0.04574 -0.41700
O 	O 	0.35322 0.29474 0.21840 -0.22100
O 	O 	0.64002 0.36132 0.27984 -0.59400
O 	O 	0.03781 0.20678 0.22528 -0.40000
O 	O 	0.03650 0.25540 0.28324 -0.38500
O 	O 	0.15310 0.22633 0.22568 -0.40500
O 	O 	0.20323 0.28508 0.27978 -0.40200
O 	O 	0.12559 0.36445 0.40610 -0.22900
O 	O 	0.92505 0.19972 0.21534 -0.40400
O 	O 	0.92838 0.14848 0.16048 -0.40300
O 	O 	0.82046 0.02361 0.04286 -0.40500
O 	O 	0.76774 0.01793 0.04522 -0.38900
O 	O 	0.72635 0.11175 0.11290 -0.22800
O 	O 	0.96312 0.96579 0.21668 -0.40000
O 	O 	0.95739 0.96610 0.15950 -0.38900
O 	O 	0.83458 0.96105 0.04652 -0.41500
O 	O 	0.78057 0.95132 0.04574 -0.41600
O 	O 	0.86518 0.92366 0.21840 -0.22100
O 	O 	0.63982 0.91852 0.27984 -0.59400
O 	O 	0.79322 0.81253 0.77472 -0.40000
O 	O 	0.74460 0.75326 0.71676 -0.38500
O 	O 	0.77367 0.92742 0.77432 -0.40400
O 	O 	0.71492 0.92345 0.72022 -0.40200
O 	O 	0.63555 0.71949 0.59390 -0.22900
O 	O 	0.80028 0.70971 0.78466 -0.40400
O 	O 	0.85152 0.76790 0.83952 -0.40100
O 	O 	0.97639 0.77760 0.95714 -0.39500
O 	O 	0.98207 0.72252 0.95478 -0.38100
O 	O 	0.88825 0.61345 0.88710 -0.22500
O 	O 	0.03421 0.74644 0.78332 -0.39900
O 	O 	0.03390 0.79789 0.84050 -0.38600
O 	O 	0.03895 0.78806 0.95348 -0.40500
O 	O 	0.04868 0.73483 0.95426 -0.40700
O 	O 	0.07634 0.64678 0.78160 -0.22100
O 	O 	0.08148 0.35998 0.72016 -0.59300
O 	O 	0.98150 0.96219 0.77472 -0.40000
O 	O 	0.97216 0.96350 0.71676 -0.38500
O 	O 	0.00065 0.84690 0.77432 -0.40400
O 	O 	0.00530 0.79677 0.72022 -0.40200
O 	O 	0.95835 0.87441 0.59390 -0.23000
O 	O 	0.98438 0.07495 0.78466 -0.40400
O 	O 	0.98800 0.07162 0.83952 -0.40100
O 	O 	0.98075 0.17954 0.95714 -0.39500
O 	O 	0.97271 0.23226 0.95478 -0.38100
O 	O 	0.99885 0.27365 0.88710 -0.22500
O 	O 	0.74911 0.03688 0.78332 -0.39900
O 	O 	0.80660 0.04261 0.84050 -0.38600
O 	O 	0.91453 0.16542 0.95348 -0.40500
O 	O 	0.90558 0.21943 0.95426 -0.40700
O 	O 	0.70526 0.13482 0.78160 -0.22100
O 	O 	0.63868 0.36018 0.72016 -0.59300
O 	O 	0.81253 0.98150 0.77472 -0.40000
O 	O 	0.75326 0.97216 0.71676 -0.38500
O 	O 	0.92742 0.00065 0.77432 -0.40400
O 	O 	0.92345 0.00530 0.72022 -0.40200
O 	O 	0.71949 0.95835 0.59390 -0.23000
O 	O 	0.70971 0.98438 0.78466 -0.40400
O 	O 	0.76790 0.98800 0.83952 -0.40100
O 	O 	0.77760 0.98075 0.95714 -0.39700
O 	O 	0.72252 0.97271 0.95478 -0.38100
O 	O 	0.61345 0.99885 0.88710 -0.22500
O 	O 	0.74644 0.74911 0.78332 -0.39900
O 	O 	0.79789 0.80660 0.84050 -0.38700
O 	O 	0.78806 0.91453 0.95348 -0.40700
O 	O 	0.73483 0.90558 0.95426 -0.40800
O 	O 	0.64678 0.70526 0.78160 -0.22100
O 	O 	0.35998 0.63868 0.72016 -0.59300
O 	O 	0.96219 0.79322 0.77472 -0.40000
O 	O 	0.96350 0.74460 0.71676 -0.38500
O 	O 	0.84690 0.77367 0.77432 -0.40400
O 	O 	0.79677 0.71492 0.72022 -0.40200
O 	O 	0.87441 0.63555 0.59390 -0.23000
O 	O 	0.07495 0.80028 0.78466 -0.40400
O 	O 	0.07162 0.85152 0.83952 -0.40100
O 	O 	0.17954 0.97639 0.95714 -0.39500
O 	O 	0.23226 0.98207 0.95478 -0.38300
O 	O 	0.27365 0.88825 0.88710 -0.22500
O 	O 	0.03688 0.03421 0.78332 -0.39800
O 	O 	0.04261 0.03390 0.84050 -0.38600
O 	O 	0.16542 0.03895 0.95348 -0.40500
O 	O 	0.21943 0.04868 0.95426 -0.40900
O 	O 	0.13482 0.07634 0.78160 -0.22000
O 	O 	0.36018 0.08148 0.72016 -0.59300
