data_crystal

_cell_length_a 48.51040
_cell_length_b 48.51040
_cell_length_c 48.51040
_cell_angle_alpha 60.00000
_cell_angle_beta  60.00000
_cell_angle_gamma 60.00000

_symmetry_space_group_name_	'P 1'
_symmetry_space_group_name_H-M	'P 1'

loop_
_symmetry_equiv_pos_as_xyz
  x,y,z

loop_
_atom_site_label
_atom_site_type_symbol
_atom_site_fract_x
_atom_site_fract_y
_atom_site_fract_z
_atom_site_charge
H 	H 	0.42699 0.01494 0.89726 0.04100
H 	H 	0.44902 0.02953 0.83599 0.04800
H 	H 	0.35384 0.04088 0.83793 0.04700
H 	H 	0.33269 0.02461 0.89895 0.04200
H 	H 	0.44418 0.07469 0.78599 0.05300
H 	H 	0.61146 0.05800 0.65571 0.04900
H 	H 	0.55497 0.05394 0.68300 0.03900
H 	H 	0.51229 0.15648 0.68182 0.03900
C 	C 	0.36430 0.01089 0.93962 0.34600
C 	C 	0.37819 0.01860 0.90282 -0.09800
C 	C 	0.41102 0.02023 0.88451 0.02400
C 	C 	0.42347 0.02891 0.84942 -0.06300
C 	C 	0.40317 0.03645 0.83206 0.02200
C 	C 	0.37038 0.03465 0.85053 -0.06300
C 	C 	0.35815 0.02557 0.88553 0.02400
C 	C 	0.41563 0.04652 0.79481 0.02700
C 	C 	0.43620 0.06685 0.77457 -0.07400
C 	C 	0.52978 0.10505 0.68381 0.00600
C 	C 	0.58992 0.08029 0.65936 -0.06900
C 	C 	0.55786 0.07763 0.67588 -0.02500
C 	C 	0.53373 0.13556 0.67450 -0.02600
O 	O 	0.33489 0.00819 0.95591 -0.40900
O 	O 	0.38118 0.00764 0.95516 -0.41100
H 	H 	0.01563 0.42760 0.65997 0.04100
H 	H 	0.02966 0.44997 0.68469 0.04800
H 	H 	0.04215 0.35449 0.76621 0.04700
H 	H 	0.02590 0.33327 0.74272 0.04200
H 	H 	0.07084 0.44940 0.69553 0.05300
H 	H 	0.06976 0.61345 0.68898 0.05200
H 	H 	0.06080 0.55863 0.72191 0.03900
H 	H 	0.14056 0.51938 0.64227 0.03900
C 	C 	0.01128 0.36499 0.68459 0.34500
C 	C 	0.01948 0.37879 0.69950 -0.09700
C 	C 	0.02104 0.41163 0.68336 0.02300
C 	C 	0.02947 0.42428 0.69736 -0.06200
C 	C 	0.03699 0.40413 0.72755 0.02200
C 	C 	0.03576 0.37110 0.74337 -0.06200
C 	C 	0.02674 0.35875 0.72972 0.02400
C 	C 	0.04581 0.41728 0.74288 0.02700
C 	C 	0.06355 0.44035 0.72279 -0.07400
C 	C 	0.10013 0.53536 0.68427 0.00600
C 	C 	0.08566 0.59294 0.67878 -0.06800
C 	C 	0.08051 0.56183 0.69748 -0.02600
C 	C 	0.12530 0.53980 0.65263 -0.02700
O 	O 	0.00792 0.33587 0.70078 -0.41000
O 	O 	0.00812 0.38166 0.65537 -0.40800
H 	H 	0.89536 0.66059 0.42751 0.03900
H 	H 	0.83429 0.68565 0.44987 0.04600
H 	H 	0.83610 0.76727 0.35442 0.04600
H 	H 	0.89700 0.74342 0.33315 0.04100
H 	H 	0.78321 0.69674 0.44796 0.05200
H 	H 	0.60646 0.67011 0.57318 0.05100
C 	C 	0.93772 0.68522 0.36491 0.34500
C 	C 	0.90092 0.70023 0.37872 -0.10000
C 	C 	0.88263 0.68413 0.41156 0.02300
C 	C 	0.84761 0.69831 0.42422 -0.06400
C 	C 	0.83021 0.72864 0.40405 0.02100
C 	C 	0.84867 0.74438 0.37103 -0.06400
C 	C 	0.88362 0.73054 0.35866 0.02400
C 	C 	0.79303 0.74406 0.41700 0.02700
C 	C 	0.77232 0.72400 0.43928 -0.07600
C 	C 	0.63220 0.66623 0.56855 -0.07000
O 	O 	0.95407 0.70119 0.33571 -0.41000
O 	O 	0.95324 0.65601 0.38182 -0.41300
H 	H 	0.66117 0.89664 0.01565 0.04000
H 	H 	0.68529 0.83556 0.02951 0.04600
H 	H 	0.76724 0.83561 0.04259 0.04600
H 	H 	0.74436 0.89656 0.02650 0.04100
H 	H 	0.69544 0.78437 0.07154 0.05200
H 	H 	0.66633 0.60945 0.15019 0.04900
C 	C 	0.68658 0.93799 0.01180 0.34000
C 	C 	0.70111 0.90125 0.01986 -0.09800
C 	C 	0.68455 0.88352 0.02117 0.02300
C 	C 	0.69819 0.84849 0.02945 -0.06300
C 	C 	0.72826 0.83059 0.03715 0.02100
C 	C 	0.74446 0.84854 0.03610 -0.06300
C 	C 	0.73121 0.88349 0.02720 0.02300
C 	C 	0.74311 0.79346 0.04596 0.02700
C 	C 	0.72268 0.77315 0.06403 -0.07600
C 	C 	0.66438 0.63382 0.13061 -0.06900
O 	O 	0.70315 0.95425 0.00798 -0.40800
O 	O 	0.65699 0.95353 0.00939 -0.41200
H 	H 	0.89629 0.42707 0.01498 0.03900
H 	H 	0.83501 0.44898 0.02975 0.04700
H 	H 	0.83702 0.35376 0.04116 0.04600
H 	H 	0.89807 0.33270 0.02466 0.04100
H 	H 	0.78516 0.44395 0.07499 0.05200
H 	H 	0.65556 0.61153 0.05805 0.04800
H 	H 	0.68284 0.55506 0.05394 0.03800
H 	H 	0.68158 0.51229 0.15652 0.03800
C 	C 	0.93868 0.36443 0.01070 0.34400
C 	C 	0.90189 0.37826 0.01857 -0.09900
C 	C 	0.88356 0.41104 0.02030 0.02300
C 	C 	0.84846 0.42344 0.02910 -0.06400
C 	C 	0.83111 0.40309 0.03669 0.02100
C 	C 	0.84961 0.37033 0.03486 -0.06400
C 	C 	0.88461 0.35816 0.02564 0.02300
C 	C 	0.79388 0.41550 0.04679 0.02600
C 	C 	0.77371 0.43603 0.06713 -0.07600
C 	C 	0.68352 0.52981 0.10509 0.00500
C 	C 	0.65919 0.58997 0.08034 -0.07000
C 	C 	0.67570 0.55792 0.07765 -0.02600
C 	C 	0.67426 0.53374 0.13560 -0.02700
O 	O 	0.95509 0.33520 0.00759 -0.40800
O 	O 	0.95413 0.38134 0.00766 -0.41500
H 	H 	0.65944 0.01747 0.42923 0.03900
H 	H 	0.68422 0.03253 0.45091 0.04600
H 	H 	0.76630 0.04274 0.35583 0.04600
H 	H 	0.74273 0.02610 0.33516 0.04100
H 	H 	0.69611 0.07693 0.44628 0.05200
H 	H 	0.66450 0.15308 0.57548 0.05100
C 	C 	0.68425 0.01250 0.36665 0.34200
C 	C 	0.69923 0.02051 0.38052 -0.09800
C 	C 	0.68296 0.02267 0.41317 0.02200
C 	C 	0.69696 0.03157 0.42546 -0.06300
C 	C 	0.72731 0.03870 0.40516 0.02100
C 	C 	0.74331 0.03670 0.37245 -0.06300
C 	C 	0.72964 0.02741 0.36044 0.02300
C 	C 	0.74296 0.04793 0.41752 0.02600
C 	C 	0.72344 0.06847 0.43790 -0.07500
C 	C 	0.66325 0.13544 0.56902 -0.06800
O 	O 	0.70039 0.00937 0.33741 -0.40900
O 	O 	0.65495 0.00934 0.38333 -0.40800
H 	H 	0.42804 0.89571 0.66017 0.03900
H 	H 	0.45007 0.83454 0.68498 0.04600
H 	H 	0.35458 0.83663 0.76656 0.04600
H 	H 	0.33367 0.89756 0.74302 0.04100
H 	H 	0.44806 0.78328 0.69628 0.05100
H 	H 	0.57328 0.60662 0.66982 0.05100
C 	C 	0.36570 0.93821 0.68504 0.34600
C 	C 	0.37932 0.90137 0.69987 -0.10000
C 	C 	0.41203 0.88300 0.68364 0.02300
C 	C 	0.42448 0.84793 0.69766 -0.06400
C 	C 	0.40422 0.83061 0.72792 0.02100
C 	C 	0.37126 0.84914 0.74371 -0.06400
C 	C 	0.35912 0.88412 0.73006 0.02400
C 	C 	0.41713 0.79345 0.74342 0.02600
C 	C 	0.43936 0.77254 0.72356 -0.07600
C 	C 	0.56860 0.63237 0.66597 -0.07000
O 	O 	0.33660 0.95455 0.70112 -0.41100
O 	O 	0.38254 0.95384 0.65587 -0.41400
H 	H 	0.01484 0.66084 0.89655 0.03900
H 	H 	0.02986 0.68494 0.83523 0.04700
H 	H 	0.04148 0.76707 0.83643 0.04700
H 	H 	0.02478 0.74408 0.89746 0.04100
H 	H 	0.07604 0.69396 0.78568 0.05200
H 	H 	0.07500 0.69535 0.62815 0.04900
H 	H 	0.07043 0.72180 0.66132 0.03700
H 	H 	0.14866 0.63513 0.69784 0.03800
C 	C 	0.01060 0.68593 0.93835 0.34900
C 	C 	0.01856 0.70069 0.90164 -0.10200
C 	C 	0.02027 0.68423 0.88360 0.02500
C 	C 	0.02920 0.69781 0.84855 -0.06500
C 	C 	0.03695 0.72781 0.83103 0.02200
C 	C 	0.03511 0.74421 0.84923 -0.06500
C 	C 	0.02575 0.73093 0.88419 0.02500
C 	C 	0.04724 0.74211 0.79387 0.02600
C 	C 	0.06802 0.72117 0.77397 -0.07600
C 	C 	0.10960 0.68067 0.68126 0.00500
C 	C 	0.09195 0.68151 0.64232 -0.07000
C 	C 	0.08927 0.69709 0.66136 -0.02600
C 	C 	0.13300 0.64825 0.68213 -0.02700
O 	O 	0.00737 0.70221 0.95444 -0.41200
O 	O 	0.00766 0.65664 0.95409 -0.41300
H 	H 	0.01665 0.89441 0.42933 0.03900
H 	H 	0.03147 0.83310 0.45021 0.04600
H 	H 	0.04149 0.83733 0.35456 0.04600
H 	H 	0.02503 0.89823 0.33460 0.04200
H 	H 	0.07574 0.78289 0.44497 0.05200
H 	H 	0.16299 0.62114 0.56853 0.04800
C 	C 	0.01157 0.93785 0.36730 0.34300
C 	C 	0.01968 0.90100 0.38052 -0.09800
C 	C 	0.02177 0.88208 0.41304 0.02200
C 	C 	0.03056 0.84702 0.42481 -0.06400
C 	C 	0.03762 0.83031 0.40408 0.02100
C 	C 	0.03555 0.84941 0.37145 -0.06400
C 	C 	0.02636 0.88436 0.35991 0.02300
C 	C 	0.04726 0.79313 0.41603 0.02600
C 	C 	0.06758 0.77212 0.43661 -0.07600
C 	C 	0.13902 0.63977 0.56578 -0.06900
O 	O 	0.00828 0.95413 0.33820 -0.41300
O 	O 	0.00844 0.95350 0.38412 -0.40700
H 	H 	0.43224 0.65728 0.01785 0.03800
H 	H 	0.45218 0.68380 0.03279 0.04600
H 	H 	0.35625 0.76480 0.04151 0.04600
H 	H 	0.33722 0.73945 0.02509 0.04200
H 	H 	0.44625 0.69610 0.07687 0.05200
H 	H 	0.57519 0.66461 0.15305 0.05100
C 	C 	0.37073 0.68005 0.01186 0.34100
C 	C 	0.38347 0.69601 0.02022 -0.09500
C 	C 	0.41572 0.68083 0.02274 0.02000
C 	C 	0.42691 0.69592 0.03159 -0.06300
C 	C 	0.40586 0.72648 0.03830 0.02000
C 	C 	0.37344 0.74163 0.03585 -0.06300
C 	C 	0.36245 0.72681 0.02665 0.02200
C 	C 	0.41733 0.74273 0.04785 0.02600
C 	C 	0.43772 0.72341 0.06837 -0.07500
C 	C 	0.56877 0.66337 0.13538 -0.06800
O 	O 	0.34180 0.69637 0.00836 -0.41900
O 	O 	0.38732 0.65059 0.00869 -0.39900
H 	H 	0.66193 0.42526 0.89672 0.03800
H 	H 	0.68540 0.44864 0.83563 0.04600
H 	H 	0.76796 0.35409 0.83494 0.04600
H 	H 	0.74561 0.33170 0.89601 0.04100
H 	H 	0.69595 0.44768 0.78386 0.05200
H 	H 	0.66983 0.57351 0.60639 0.05100
C 	C 	0.68792 0.36237 0.93789 0.34400
C 	C 	0.70231 0.37673 0.90110 -0.10000
C 	C 	0.68539 0.40966 0.88349 0.02300
C 	C 	0.69860 0.42295 0.84843 -0.06400
C 	C 	0.72874 0.40336 0.83036 0.02100
C 	C 	0.74518 0.37024 0.84810 -0.06400
C 	C 	0.73231 0.35722 0.88310 0.02300
C 	C 	0.74355 0.41711 0.79324 0.02700
C 	C 	0.72321 0.43930 0.77276 -0.07600
C 	C 	0.66590 0.56885 0.63216 -0.07000
O 	O 	0.70380 0.33306 0.95436 -0.40100
O 	O 	0.65875 0.37947 0.95322 -0.42700
H 	H 	0.89595 0.01550 0.66050 0.03900
H 	H 	0.83485 0.02977 0.68527 0.04600
H 	H 	0.83670 0.04210 0.76667 0.04600
H 	H 	0.89766 0.02552 0.74322 0.04100
H 	H 	0.78424 0.07159 0.69569 0.05200
H 	H 	0.60950 0.15002 0.66663 0.04900
C 	C 	0.93836 0.01043 0.68545 0.34600
C 	C 	0.90150 0.01904 0.70019 -0.10000
C 	C 	0.88321 0.02089 0.68391 0.02400
C 	C 	0.84818 0.02947 0.69789 -0.06400
C 	C 	0.83077 0.03704 0.72803 0.02200
C 	C 	0.84921 0.03570 0.74389 -0.06400
C 	C 	0.88417 0.02648 0.73030 0.02400
C 	C 	0.79356 0.04612 0.74322 0.02600
C 	C 	0.77313 0.06408 0.72292 -0.07600
C 	C 	0.63388 0.13045 0.66465 -0.06900
O 	O 	0.95464 0.00658 0.70193 -0.41200
O 	O 	0.95406 0.00745 0.65616 -0.41400
H 	H 	0.57228 0.98488 0.33967 0.03900
H 	H 	0.55071 0.96992 0.31491 0.04600
H 	H 	0.64597 0.95906 0.23309 0.04600
H 	H 	0.66670 0.97566 0.25682 0.04100
H 	H 	0.55593 0.92483 0.30488 0.05200
H 	H 	0.38820 0.94197 0.32555 0.04800
H 	H 	0.44464 0.94633 0.29237 0.03800
H 	H 	0.48775 0.84347 0.35018 0.03800
C 	C 	0.63441 0.99019 0.31506 0.34400
C 	C 	0.62101 0.98176 0.29998 -0.09800
C 	C 	0.58838 0.97969 0.31616 0.02200
C 	C 	0.57619 0.97073 0.30219 -0.06400
C 	C 	0.59660 0.96330 0.27199 0.02100
C 	C 	0.62931 0.96526 0.25600 -0.06400
C 	C 	0.64129 0.97461 0.26969 0.02300
C 	C 	0.58433 0.95326 0.25707 0.02600
C 	C 	0.56381 0.93290 0.27762 -0.07600
C 	C 	0.40983 0.91976 0.32990 -0.07000
C 	C 	0.44185 0.92255 0.31168 -0.02600
C 	C 	0.46621 0.86445 0.34361 -0.02700
O 	O 	0.66351 0.99360 0.29903 -0.41000
O 	O 	0.61740 0.99331 0.34434 -0.41300
H 	H 	0.98485 0.57268 0.10348 0.03900
H 	H 	0.97027 0.55046 0.16475 0.04700
H 	H 	0.95862 0.64557 0.16324 0.04600
H 	H 	0.97488 0.66691 0.10226 0.04000
H 	H 	0.92480 0.55555 0.21472 0.05200
H 	H 	0.94190 0.38835 0.34441 0.04800
H 	H 	0.94580 0.44490 0.31722 0.03800
H 	H 	0.84320 0.48739 0.31861 0.03800
C 	C 	0.98884 0.63539 0.06155 0.34800
C 	C 	0.98108 0.62140 0.09824 -0.10200
C 	C 	0.97950 0.58858 0.11636 0.02500
C 	C 	0.97084 0.57602 0.15139 -0.06500
C 	C 	0.96325 0.59627 0.16882 0.02200
C 	C 	0.96491 0.62910 0.15052 -0.06500
C 	C 	0.97400 0.64143 0.11559 0.02500
C 	C 	0.95328 0.58371 0.20597 0.02600
C 	C 	0.93273 0.56340 0.22617 -0.07600
C 	C 	0.89463 0.46997 0.31659 0.00500
C 	C 	0.91956 0.40986 0.34082 -0.07000
C 	C 	0.92213 0.44195 0.32437 -0.02600
C 	C 	0.86417 0.46597 0.32588 -0.02700
O 	O 	0.99177 0.66466 0.04542 -0.41400
O 	O 	0.99199 0.61872 0.04587 -0.41400
H 	H 	0.10388 0.33929 0.98446 0.03900
H 	H 	0.16502 0.31501 0.97016 0.04700
H 	H 	0.16410 0.23347 0.95719 0.04600
H 	H 	0.10313 0.25649 0.97373 0.04100
H 	H 	0.21650 0.30435 0.92875 0.05200
H 	H 	0.37237 0.31112 0.93021 0.05100
H 	H 	0.34160 0.27817 0.93908 0.03800
H 	H 	0.30252 0.35780 0.85929 0.03800
C 	C 	0.06199 0.31418 0.98878 0.34500
C 	C 	0.09883 0.29951 0.98055 -0.09900
C 	C 	0.11686 0.31591 0.97897 0.02300
C 	C 	0.15191 0.30222 0.97036 -0.06400
C 	C 	0.16958 0.27215 0.96269 0.02100
C 	C 	0.15135 0.25618 0.96378 -0.06400
C 	C 	0.11638 0.26949 0.97299 0.02400
C 	C 	0.20679 0.25698 0.95387 0.02600
C 	C 	0.22745 0.27710 0.93601 -0.07500
C 	C 	0.32014 0.31578 0.89966 0.00500
C 	C 	0.35762 0.32131 0.91426 -0.06900
C 	C 	0.34011 0.30260 0.91936 -0.02600
C 	C 	0.31805 0.34745 0.87454 -0.02700
O 	O 	0.04574 0.29803 0.99201 -0.40800
O 	O 	0.04638 0.34341 0.99194 -0.41400
H 	H 	0.33972 0.10452 0.57224 0.03900
H 	H 	0.31482 0.16584 0.55054 0.04600
H 	H 	0.23282 0.16315 0.64567 0.04600
H 	H 	0.25660 0.10219 0.66647 0.04100
H 	H 	0.30390 0.21656 0.55505 0.05200
H 	H 	0.35308 0.37847 0.43157 0.04800
C 	C 	0.31511 0.06181 0.63464 0.34700
C 	C 	0.29999 0.09865 0.62096 -0.10000
C 	C 	0.31619 0.11714 0.58828 0.02300
C 	C 	0.30213 0.15223 0.57600 -0.06400
C 	C 	0.27182 0.16939 0.59635 0.02100
C 	C 	0.25582 0.15072 0.62907 -0.06400
C 	C 	0.26957 0.11576 0.64112 0.02400
C 	C 	0.25657 0.20660 0.58394 0.02600
C 	C 	0.27661 0.22747 0.56331 -0.07500
C 	C 	0.31659 0.31838 0.46994 0.00500
C 	C 	0.34492 0.35994 0.43421 -0.06900
O 	O 	0.29914 0.04540 0.66375 -0.41000
O 	O 	0.34437 0.04627 0.61786 -0.41300
H 	H 	0.10340 0.57234 0.33972 0.03900
H 	H 	0.16456 0.54998 0.31539 0.04700
H 	H 	0.16330 0.64539 0.23383 0.04600
H 	H 	0.10235 0.66659 0.25681 0.04100
H 	H 	0.21630 0.55054 0.30438 0.05100
H 	H 	0.37247 0.38648 0.31100 0.05100
H 	H 	0.34157 0.44124 0.27808 0.03800
H 	H 	0.30218 0.48050 0.35778 0.03800
C 	C 	0.06132 0.63478 0.31467 0.34500
C 	C 	0.09819 0.62105 0.29997 -0.10000
C 	C 	0.11632 0.58828 0.31637 0.02300
C 	C 	0.15140 0.57564 0.30264 -0.06400
C 	C 	0.16898 0.59577 0.27254 0.02100
C 	C 	0.15067 0.62880 0.25658 -0.06400
C 	C 	0.11567 0.64113 0.26990 0.02400
C 	C 	0.20618 0.58255 0.25721 0.02600
C 	C 	0.22707 0.55957 0.27709 -0.07500
C 	C 	0.31991 0.46455 0.31570 0.00500
C 	C 	0.35762 0.40698 0.32121 -0.06900
C 	C 	0.34002 0.43806 0.30252 -0.02600
C 	C 	0.31777 0.46010 0.34740 -0.02700
O 	O 	0.04503 0.66385 0.29847 -0.40900
O 	O 	0.04563 0.61803 0.34388 -0.41300
H 	H 	0.34020 0.98252 0.10595 0.03900
H 	H 	0.31582 0.96711 0.16750 0.04600
H 	H 	0.23353 0.95690 0.16513 0.04600
H 	H 	0.25666 0.97392 0.10421 0.04100
H 	H 	0.30387 0.92311 0.21932 0.05200
H 	H 	0.33453 0.84759 0.39359 0.05100
C 	C 	0.31464 0.98835 0.06337 0.34300
C 	C 	0.30013 0.97968 0.10033 -0.09800
C 	C 	0.31671 0.97728 0.11873 0.02200
C 	C 	0.30296 0.96813 0.15393 -0.06300
C 	C 	0.27263 0.96100 0.17121 0.02100
C 	C 	0.25649 0.96300 0.15262 -0.06400
C 	C 	0.26989 0.97255 0.11764 0.02300
C 	C 	0.25703 0.95193 0.20842 0.02600
C 	C 	0.27657 0.93152 0.22981 -0.07500
C 	C 	0.33622 0.86486 0.36806 -0.06800
O 	O 	0.29806 0.99209 0.04723 -0.41000
O 	O 	0.34391 0.99146 0.04740 -0.41000
H 	H 	0.57360 0.10280 0.98517 0.04000
H 	H 	0.55112 0.16408 0.97013 0.04700
H 	H 	0.64576 0.16351 0.95856 0.04600
H 	H 	0.66739 0.10241 0.97532 0.04100
H 	H 	0.55619 0.21374 0.92439 0.05200
H 	H 	0.39874 0.37185 0.92494 0.04900
H 	H 	0.45367 0.33842 0.92980 0.03700
H 	H 	0.48182 0.30178 0.85163 0.03800
C 	C 	0.63621 0.06117 0.98979 0.34100
C 	C 	0.62210 0.09793 0.98180 -0.09800
C 	C 	0.58932 0.11584 0.97992 0.02300
C 	C 	0.57662 0.15091 0.97089 -0.06400
C 	C 	0.59663 0.16864 0.96322 0.02100
C 	C 	0.62943 0.15058 0.96500 -0.06400
C 	C 	0.64191 0.11560 0.97444 0.02300
C 	C 	0.58387 0.20587 0.95293 0.02600
C 	C 	0.56359 0.22558 0.93236 -0.07500
C 	C 	0.47166 0.31834 0.89073 0.00500
C 	C 	0.41601 0.35760 0.90808 -0.07000
C 	C 	0.44788 0.33839 0.91093 -0.02600
C 	C 	0.46358 0.31755 0.86723 -0.02700
O 	O 	0.66580 0.04498 0.99223 -0.40800
O 	O 	0.61909 0.04547 0.99368 -0.41200
H 	H 	0.98224 0.34017 0.57147 0.03900
H 	H 	0.96726 0.31534 0.54982 0.04600
H 	H 	0.95731 0.23316 0.64480 0.04600
H 	H 	0.97386 0.25681 0.66551 0.04100
H 	H 	0.92360 0.30327 0.55391 0.05100
H 	H 	0.84698 0.33515 0.42484 0.05100
C 	C 	0.98801 0.31506 0.63373 0.34300
C 	C 	0.97951 0.30030 0.62000 -0.09800
C 	C 	0.97716 0.31661 0.58745 0.02200
C 	C 	0.96826 0.30256 0.57521 -0.06300
C 	C 	0.96133 0.27209 0.59546 0.02100
C 	C 	0.96329 0.25617 0.62817 -0.06400
C 	C 	0.97255 0.26989 0.64016 0.02300
C 	C 	0.95222 0.25638 0.58302 0.02600
C 	C 	0.93194 0.27596 0.56238 -0.07500
C 	C 	0.86467 0.33639 0.43123 -0.06800
O 	O 	0.99129 0.29872 0.66287 -0.41100
O 	O 	0.99144 0.34422 0.61718 -0.40900
H 	H 	0.98400 0.10455 0.34048 0.03900
H 	H 	0.97046 0.16551 0.31473 0.04600
H 	H 	0.95828 0.16252 0.23386 0.04600
H 	H 	0.97412 0.10161 0.25835 0.04100
H 	H 	0.92859 0.21578 0.30427 0.05200
H 	H 	0.84995 0.39030 0.33352 0.04900
C 	C 	0.98841 0.06157 0.31687 0.34300
C 	C 	0.98027 0.09840 0.30143 -0.09800
C 	C 	0.97875 0.11704 0.31703 0.02200
C 	C 	0.97061 0.15199 0.30242 -0.06400
C 	C 	0.96316 0.16906 0.27223 0.02100
C 	C 	0.96449 0.15026 0.25676 -0.06300
C 	C 	0.97326 0.11530 0.27101 0.02300
C 	C 	0.95403 0.20628 0.25681 0.02600
C 	C 	0.93606 0.22682 0.27702 -0.07600
C 	C 	0.86954 0.36594 0.33546 -0.06900
O 	O 	0.99178 0.04528 0.30073 -0.41300
O 	O 	0.99158 0.04591 0.34621 -0.40700
H 	H 	0.57507 0.33780 0.10149 0.03900
H 	H 	0.55206 0.31482 0.16274 0.04600
H 	H 	0.64621 0.23188 0.16344 0.04600
H 	H 	0.66849 0.25387 0.10222 0.04100
H 	H 	0.55623 0.30599 0.21311 0.05200
H 	H 	0.39916 0.30405 0.37311 0.04900
H 	H 	0.45405 0.27760 0.33958 0.03700
H 	H 	0.48154 0.36519 0.30082 0.03800
C 	C 	0.63790 0.31183 0.06020 0.34300
C 	C 	0.62357 0.29734 0.09710 -0.09800
C 	C 	0.59069 0.31439 0.11475 0.02300
C 	C 	0.57760 0.30150 0.14985 -0.06400
C 	C 	0.59729 0.27156 0.16794 0.02100
C 	C 	0.63015 0.25468 0.15019 -0.06300
C 	C 	0.64304 0.26730 0.11514 0.02300
C 	C 	0.58402 0.25764 0.20520 0.02600
C 	C 	0.56357 0.27878 0.22495 -0.07500
C 	C 	0.47169 0.31928 0.31830 0.00500
C 	C 	0.41628 0.31812 0.35827 -0.07000
C 	C 	0.44813 0.30255 0.33904 -0.02600
C 	C 	0.46345 0.35189 0.31702 -0.02700
O 	O 	0.66713 0.29602 0.04360 -0.40000
O 	O 	0.62085 0.34110 0.04492 -0.42000
H 	H 	0.34236 0.56867 0.98311 0.03900
H 	H 	0.31559 0.54867 0.96860 0.04600
H 	H 	0.23492 0.64480 0.95926 0.04600
H 	H 	0.26057 0.66399 0.97527 0.04200
H 	H 	0.30412 0.55483 0.92417 0.05200
H 	H 	0.35290 0.43152 0.83691 0.04800
C 	C 	0.31991 0.63012 0.98882 0.34100
C 	C 	0.30380 0.61757 0.98046 -0.09600
C 	C 	0.31882 0.58524 0.97819 0.02100
C 	C 	0.30359 0.57401 0.96960 -0.06300
C 	C 	0.27312 0.59515 0.96271 0.02000
C 	C 	0.25806 0.62763 0.96499 -0.06300
C 	C 	0.27304 0.63867 0.97394 0.02200
C 	C 	0.25713 0.58370 0.95288 0.02600
C 	C 	0.27682 0.56321 0.93246 -0.07600
C 	C 	0.34481 0.43425 0.86089 -0.06900
O 	O 	0.30378 0.65907 0.99230 -0.41800
O 	O 	0.34938 0.61337 0.99192 -0.40000
H 	H 	0.10402 0.98397 0.57226 0.03900
H 	H 	0.16500 0.97052 0.54983 0.04600
H 	H 	0.16332 0.95794 0.64548 0.04600
H 	H 	0.10244 0.97365 0.66676 0.04100
H 	H 	0.21573 0.92874 0.55135 0.05200
H 	H 	0.39055 0.84998 0.42621 0.04900
C 	C 	0.06186 0.98773 0.63501 0.34500
C 	C 	0.09858 0.98004 0.62112 -0.10000
C 	C 	0.11678 0.97874 0.58819 0.02300
C 	C 	0.15177 0.97061 0.57556 -0.06400
C 	C 	0.16920 0.96314 0.59580 0.02100
C 	C 	0.15078 0.96425 0.62885 -0.06400
C 	C 	0.11583 0.97299 0.64119 0.02400
C 	C 	0.20640 0.95418 0.58279 0.02600
C 	C 	0.22684 0.93620 0.56003 -0.07600
C 	C 	0.36615 0.86953 0.42906 -0.06900
O 	O 	0.04569 0.99042 0.66445 -0.41200
O 	O 	0.04617 0.99117 0.61819 -0.41100
H 	H 	0.57114 0.98333 0.10544 0.03900
H 	H 	0.54989 0.96890 0.16674 0.04600
H 	H 	0.64540 0.95870 0.16297 0.04600
H 	H 	0.66575 0.97476 0.10208 0.04100
H 	H 	0.55467 0.92488 0.21716 0.05200
H 	H 	0.43158 0.83687 0.37856 0.04900
C 	C 	0.63338 0.98831 0.06221 0.34100
C 	C 	0.61995 0.98028 0.09903 -0.09700
C 	C 	0.58733 0.97829 0.11784 0.02200
C 	C 	0.57532 0.96973 0.15293 -0.06300
C 	C 	0.59588 0.96270 0.16980 0.02100
C 	C 	0.62858 0.96464 0.15079 -0.06300
C 	C 	0.64036 0.97359 0.11583 0.02300
C 	C 	0.58381 0.95309 0.20706 0.02600
C 	C 	0.56313 0.93287 0.22800 -0.07600
C 	C 	0.47002 0.89508 0.31867 0.00500
C 	C 	0.43425 0.86091 0.36008 -0.06900
O 	O 	0.66259 0.99151 0.04599 -0.41200
O 	O 	0.61668 0.99152 0.04644 -0.40100
H 	H 	0.98356 0.57155 0.33973 0.03900
H 	H 	0.96855 0.54994 0.31495 0.04600
H 	H 	0.95793 0.64516 0.23306 0.04600
H 	H 	0.97456 0.66585 0.25668 0.04100
H 	H 	0.92396 0.55481 0.30388 0.05200
H 	H 	0.83684 0.43114 0.35302 0.04800
C 	C 	0.98849 0.63395 0.31504 0.34600
C 	C 	0.98038 0.62027 0.30000 -0.10000
C 	C 	0.97832 0.58761 0.31625 0.02300
C 	C 	0.96940 0.57540 0.30228 -0.06400
C 	C 	0.96217 0.59579 0.27199 0.02100
C 	C 	0.96405 0.62852 0.25602 -0.06400
C 	C 	0.97337 0.64049 0.26968 0.02400
C 	C 	0.95272 0.58343 0.25666 0.02600
C 	C 	0.93224 0.56302 0.27658 -0.07600
C 	C 	0.86079 0.43394 0.34490 -0.06900
O 	O 	0.99174 0.66309 0.29892 -0.41200
O 	O 	0.99159 0.61725 0.34429 -0.41300
H 	H 	0.10364 0.33867 0.57242 0.03900
H 	H 	0.16498 0.31428 0.55061 0.04700
H 	H 	0.16296 0.23249 0.64587 0.04600
H 	H 	0.10196 0.25573 0.66676 0.04100
H 	H 	0.21502 0.30442 0.55564 0.05200
H 	H 	0.34445 0.32551 0.38807 0.04800
H 	H 	0.31695 0.29219 0.44449 0.03800
H 	H 	0.31887 0.34988 0.48773 0.03800
C 	C 	0.06136 0.31373 0.63491 0.34600
C 	C 	0.09815 0.29893 0.62115 -0.10000
C 	C 	0.11642 0.31527 0.58844 0.02400
C 	C 	0.15151 0.30152 0.57612 -0.06400
C 	C 	0.16882 0.27143 0.59652 0.02200
C 	C 	0.15036 0.25531 0.62927 -0.06400
C 	C 	0.11540 0.26874 0.64134 0.02400
C 	C 	0.20600 0.25665 0.58410 0.02600
C 	C 	0.22635 0.27716 0.56362 -0.07500
C 	C 	0.34070 0.32981 0.40972 -0.07000
C 	C 	0.32419 0.31150 0.44173 -0.02600
C 	C 	0.32599 0.34337 0.46617 -0.02700
O 	O 	0.04508 0.29744 0.66395 -0.41200
O 	O 	0.04575 0.34304 0.61828 -0.41200
H 	H 	0.33944 0.10403 0.98469 0.03900
H 	H 	0.31502 0.16518 0.97003 0.04700
H 	H 	0.23363 0.16366 0.95738 0.04600
H 	H 	0.25672 0.10268 0.97431 0.04100
H 	H 	0.30458 0.21599 0.92810 0.05200
H 	H 	0.33365 0.39056 0.84980 0.04900
C 	C 	0.31423 0.06184 0.98976 0.34600
C 	C 	0.29971 0.09869 0.98106 -0.10000
C 	C 	0.31607 0.11687 0.97919 0.02400
C 	C 	0.30232 0.15192 0.97036 -0.06400
C 	C 	0.27224 0.16940 0.96267 0.02200
C 	C 	0.25634 0.15104 0.96396 -0.06400
C 	C 	0.26969 0.11606 0.97341 0.02400
C 	C 	0.25709 0.20656 0.95371 0.02700
C 	C 	0.27732 0.22706 0.93567 -0.07600
C 	C 	0.33557 0.36620 0.86939 -0.06900
O 	O 	0.29772 0.04564 0.99363 -0.41200
O 	O 	0.34356 0.04611 0.99278 -0.41200
H 	H 	0.10373 0.57293 0.98469 0.03900
H 	H 	0.16497 0.55085 0.97034 0.04700
H 	H 	0.16303 0.64604 0.95897 0.04700
H 	H 	0.10205 0.66725 0.97498 0.04100
H 	H 	0.21479 0.55586 0.92524 0.05200
H 	H 	0.34442 0.38845 0.94194 0.04800
H 	H 	0.31718 0.44493 0.94603 0.03800
H 	H 	0.31845 0.48770 0.84344 0.03800
C 	C 	0.06146 0.63564 0.98876 0.34500
C 	C 	0.09823 0.62173 0.98099 -0.10000
C 	C 	0.11651 0.58890 0.97943 0.02400
C 	C 	0.15156 0.57641 0.97092 -0.06400
C 	C 	0.16891 0.59672 0.96346 0.02100
C 	C 	0.15043 0.62952 0.96517 -0.06400
C 	C 	0.11548 0.64179 0.97408 0.02400
C 	C 	0.20616 0.58430 0.95341 0.02600
C 	C 	0.22629 0.56379 0.93305 -0.07500
C 	C 	0.31648 0.47016 0.89488 0.00500
C 	C 	0.34080 0.41001 0.91965 -0.07000
C 	C 	0.32431 0.44207 0.92232 -0.02600
C 	C 	0.32576 0.46624 0.86437 -0.02700
O 	O 	0.04519 0.66488 0.99183 -0.41100
O 	O 	0.04585 0.61890 0.99186 -0.41100
H 	H 	0.33997 0.98424 0.57184 0.03900
H 	H 	0.31510 0.97014 0.54972 0.04600
H 	H 	0.23380 0.95768 0.64537 0.04600
H 	H 	0.25740 0.97403 0.66637 0.04100
H 	H 	0.30421 0.92887 0.55062 0.05200
H 	H 	0.31103 0.93010 0.38651 0.05100
H 	H 	0.27803 0.93911 0.44130 0.03800
H 	H 	0.35772 0.85957 0.48059 0.03800
C 	C 	0.31545 0.98876 0.63431 0.34300
C 	C 	0.30045 0.98054 0.62065 -0.09800
C 	C 	0.31656 0.97888 0.58787 0.02200
C 	C 	0.30249 0.97038 0.57538 -0.06400
C 	C 	0.27232 0.96287 0.59565 0.02100
C 	C 	0.25659 0.96409 0.62867 -0.06300
C 	C 	0.27028 0.97320 0.64088 0.02300
C 	C 	0.25693 0.95404 0.58263 0.02600
C 	C 	0.27695 0.93624 0.55965 -0.07500
C 	C 	0.31566 0.89984 0.46461 0.00500
C 	C 	0.32123 0.91425 0.40702 -0.06900
C 	C 	0.30249 0.91942 0.43811 -0.02600
C 	C 	0.34737 0.87475 0.46018 -0.02700
O 	O 	0.29934 0.99201 0.66347 -0.40900
O 	O 	0.34469 0.99200 0.61745 -0.41200
H 	H 	0.57188 0.10590 0.34003 0.03900
H 	H 	0.54993 0.16734 0.31537 0.04600
H 	H 	0.64484 0.16495 0.23306 0.04600
H 	H 	0.66581 0.10403 0.25657 0.04100
H 	H 	0.55372 0.21929 0.30325 0.05100
H 	H 	0.42460 0.39338 0.33444 0.05100
C 	C 	0.63446 0.06329 0.31501 0.34400
C 	C 	0.62048 0.10020 0.30012 -0.09800
C 	C 	0.58782 0.11864 0.31647 0.02200
C 	C 	0.57537 0.15381 0.30253 -0.06300
C 	C 	0.59550 0.17110 0.27210 0.02100
C 	C 	0.62828 0.15248 0.25608 -0.06300
C 	C 	0.64046 0.11750 0.26970 0.02300
C 	C 	0.58289 0.20830 0.25645 0.02600
C 	C 	0.56222 0.22972 0.27594 -0.07500
C 	C 	0.43111 0.36787 0.33608 -0.06800
O 	O 	0.66372 0.04709 0.29893 -0.40800
O 	O 	0.61772 0.04757 0.34424 -0.41300
H 	H 	0.98455 0.33972 0.10413 0.03900
H 	H 	0.97020 0.31491 0.16524 0.04700
H 	H 	0.95770 0.23372 0.16318 0.04600
H 	H 	0.97432 0.25725 0.10222 0.04100
H 	H 	0.92883 0.30412 0.21633 0.05200
H 	H 	0.93029 0.31085 0.37234 0.05100
H 	H 	0.93929 0.27795 0.34144 0.03800
H 	H 	0.85954 0.35759 0.30230 0.03800
C 	C 	0.98903 0.31535 0.06164 0.34600
C 	C 	0.98080 0.30029 0.09848 -0.10000
C 	C 	0.97912 0.31635 0.11686 0.02300
C 	C 	0.97050 0.30231 0.15190 -0.06400
C 	C 	0.96289 0.27218 0.16927 0.02100
C 	C 	0.96418 0.25646 0.15070 -0.06400
C 	C 	0.97342 0.27014 0.11571 0.02400
C 	C 	0.95395 0.25679 0.20651 0.02600
C 	C 	0.93615 0.27687 0.22722 -0.07500
C 	C 	0.89990 0.31556 0.31993 0.00500
C 	C 	0.91437 0.32105 0.35755 -0.06900
C 	C 	0.91955 0.30237 0.33996 -0.02600
C 	C 	0.87476 0.34721 0.31786 -0.02700
O 	O 	0.99225 0.29927 0.04535 -0.41100
O 	O 	0.99226 0.34455 0.04599 -0.41300
H 	H 	0.98495 0.10261 0.57281 0.03900
H 	H 	0.97017 0.16384 0.55069 0.04700
H 	H 	0.95902 0.16233 0.64558 0.04600
H 	H 	0.97543 0.10124 0.66691 0.04100
H 	H 	0.92449 0.21341 0.55599 0.05200
H 	H 	0.92494 0.37170 0.39873 0.04900
H 	H 	0.92978 0.33836 0.45368 0.03700
H 	H 	0.85164 0.30165 0.48189 0.03800
C 	C 	0.98937 0.06040 0.63527 0.34600
C 	C 	0.98147 0.09725 0.62141 -0.09900
C 	C 	0.97971 0.11546 0.58865 0.02300
C 	C 	0.97091 0.15051 0.57617 -0.06400
C 	C 	0.96334 0.16798 0.59640 0.02100
C 	C 	0.96526 0.14962 0.62913 -0.06400
C 	C 	0.97447 0.11461 0.64144 0.02300
C 	C 	0.95308 0.20523 0.58378 0.02600
C 	C 	0.93250 0.22513 0.56349 -0.07500
C 	C 	0.89076 0.31820 0.47170 0.00500
C 	C 	0.90809 0.35743 0.41600 -0.07000
C 	C 	0.91093 0.33828 0.44789 -0.02600
C 	C 	0.86725 0.31740 0.46363 -0.02700
O 	O 	0.99222 0.04419 0.66460 -0.41000
O 	O 	0.99261 0.04473 0.61854 -0.41300
H 	H 	0.56894 0.34190 0.98229 0.03800
H 	H 	0.54841 0.31604 0.96728 0.04600
H 	H 	0.64408 0.23467 0.95799 0.04600
H 	H 	0.66369 0.25940 0.97452 0.04200
H 	H 	0.55358 0.30388 0.92339 0.05100
H 	H 	0.42479 0.33535 0.84695 0.05100
C 	C 	0.63068 0.31824 0.98825 0.34300
C 	C 	0.61765 0.30267 0.97987 -0.09700
C 	C 	0.58528 0.31833 0.97735 0.02100
C 	C 	0.57373 0.30368 0.96841 -0.06300
C 	C 	0.59452 0.27320 0.96155 0.02100
C 	C 	0.62707 0.25776 0.96381 -0.06300
C 	C 	0.63841 0.27213 0.97310 0.02300
C 	C 	0.58270 0.25718 0.95214 0.02600
C 	C 	0.56218 0.27657 0.93174 -0.07500
C 	C 	0.43120 0.33660 0.86463 -0.06800
O 	O 	0.66001 0.30243 0.99097 -0.41000
O 	O 	0.61364 0.34734 0.99197 -0.40800
H 	H 	0.33715 0.57610 0.10237 0.04000
H 	H 	0.31406 0.55215 0.16344 0.04600
H 	H 	0.23145 0.64655 0.16512 0.04600
H 	H 	0.25331 0.66941 0.10411 0.04000
H 	H 	0.30392 0.55153 0.21541 0.05100
H 	H 	0.33343 0.42612 0.39054 0.04900
C 	C 	0.31047 0.63960 0.06162 0.34500
C 	C 	0.29656 0.62467 0.09845 -0.09900
C 	C 	0.31374 0.59159 0.11576 0.02300
C 	C 	0.30079 0.57794 0.15086 -0.06300
C 	C 	0.27074 0.59731 0.16929 0.02100
C 	C 	0.25415 0.63052 0.15181 -0.06300
C 	C 	0.26672 0.64385 0.11681 0.02300
C 	C 	0.25616 0.58322 0.20649 0.02600
C 	C 	0.27669 0.56016 0.22671 -0.07500
C 	C 	0.33539 0.42899 0.36615 -0.06900
O 	O 	0.29444 0.66903 0.04529 -0.40300
O 	O 	0.33953 0.62279 0.04604 -0.42300
H 	H 	0.10272 0.98523 0.33847 0.03900
H 	H 	0.16400 0.97025 0.31489 0.04700
H 	H 	0.16380 0.95838 0.23234 0.04600
H 	H 	0.10273 0.97505 0.25490 0.04100
H 	H 	0.21382 0.92415 0.30610 0.05200
H 	H 	0.37309 0.92373 0.30420 0.04900
H 	H 	0.33969 0.92859 0.27775 0.03700
H 	H 	0.30106 0.85221 0.36540 0.03800
C 	C 	0.06133 0.98916 0.31290 0.34600
C 	C 	0.09807 0.98140 0.29828 -0.10000
C 	C 	0.11582 0.97979 0.31505 0.02400
C 	C 	0.15089 0.97086 0.30181 -0.06400
C 	C 	0.16871 0.96302 0.27185 0.02100
C 	C 	0.15079 0.96480 0.25518 -0.06400
C 	C 	0.11582 0.97415 0.26814 0.02400
C 	C 	0.20589 0.95281 0.25781 0.02600
C 	C 	0.22564 0.93216 0.27890 -0.07600
C 	C 	0.31860 0.89041 0.31943 0.00500
C 	C 	0.35835 0.90729 0.31826 -0.07000
C 	C 	0.33920 0.91011 0.30270 -0.02600
C 	C 	0.31725 0.86742 0.35208 -0.02700
O 	O 	0.04506 0.99212 0.29689 -0.40700
O 	O 	0.04590 0.99214 0.34212 -0.41800
H 	H 	0.42835 0.01644 0.66049 0.03900
H 	H 	0.44968 0.03135 0.68560 0.04600
H 	H 	0.35430 0.04166 0.76733 0.04600
H 	H 	0.33390 0.02509 0.74335 0.04100
H 	H 	0.44488 0.07558 0.69684 0.05200
H 	H 	0.56848 0.16299 0.64734 0.04800
C 	C 	0.36608 0.01119 0.68491 0.34300
C 	C 	0.37958 0.01940 0.70009 -0.09800
C 	C 	0.41219 0.02156 0.68402 0.02200
C 	C 	0.42425 0.03043 0.69821 -0.06300
C 	C 	0.40374 0.03759 0.72855 0.02100
C 	C 	0.37106 0.03559 0.74436 -0.06300
C 	C 	0.35924 0.02632 0.73047 0.02300
C 	C 	0.41596 0.04709 0.74404 0.02600
C 	C 	0.43657 0.06737 0.72414 -0.07500
C 	C 	0.56573 0.13903 0.65543 -0.06900
O 	O 	0.33692 0.00790 0.70096 -0.40900
O 	O 	0.38293 0.00812 0.65560 -0.41000
H 	H 	0.01628 0.42799 0.89551 0.03900
H 	H 	0.02974 0.45016 0.83455 0.04600
H 	H 	0.04213 0.35444 0.83662 0.04600
H 	H 	0.02637 0.33336 0.89755 0.04100
H 	H 	0.07137 0.44858 0.78386 0.05100
H 	H 	0.15010 0.57377 0.60953 0.04900
C 	C 	0.01195 0.36560 0.93801 0.34600
C 	C 	0.02007 0.37912 0.90121 -0.10000
C 	C 	0.02153 0.41194 0.88284 0.02400
C 	C 	0.02965 0.42445 0.84786 -0.06400
C 	C 	0.03703 0.40414 0.83054 0.02100
C 	C 	0.03589 0.37111 0.84909 -0.06400
C 	C 	0.02715 0.35888 0.88405 0.02400
C 	C 	0.04590 0.41710 0.79335 0.02600
C 	C 	0.06382 0.43990 0.77282 -0.07500
C 	C 	0.13049 0.57092 0.63388 -0.06900
O 	O 	0.00855 0.33653 0.95436 -0.41100
O 	O 	0.00879 0.38242 0.95357 -0.41200
H 	H 	0.89608 0.66046 0.01561 0.03900
H 	H 	0.83488 0.68475 0.02994 0.04700
H 	H 	0.83580 0.76627 0.04292 0.04600
H 	H 	0.89672 0.74334 0.02633 0.04000
H 	H 	0.78322 0.69562 0.07144 0.05200
H 	H 	0.62756 0.68884 0.06980 0.05100
H 	H 	0.65823 0.72188 0.06096 0.03800
H 	H 	0.69735 0.64230 0.14074 0.03800
C 	C 	0.93792 0.68562 0.01132 0.34500
C 	C 	0.90109 0.70020 0.01957 -0.10000
C 	C 	0.88309 0.68380 0.02113 0.02300
C 	C 	0.84801 0.69751 0.02974 -0.06400
C 	C 	0.83034 0.72760 0.03740 0.02100
C 	C 	0.84854 0.74355 0.03633 -0.06400
C 	C 	0.88352 0.73025 0.02710 0.02400
C 	C 	0.79317 0.74289 0.04604 0.02600
C 	C 	0.77237 0.72290 0.06400 -0.07500
C 	C 	0.67969 0.68432 0.10039 0.00500
C 	C 	0.64231 0.67869 0.08575 -0.06900
C 	C 	0.65975 0.69744 0.08067 -0.02600
C 	C 	0.68184 0.65263 0.12549 -0.02700
O 	O 	0.95394 0.70203 0.00805 -0.41100
O 	O 	0.95380 0.65642 0.00811 -0.41200
H 	H 	0.66041 0.89730 0.42719 0.03900
H 	H 	0.68479 0.83614 0.44942 0.04600
H 	H 	0.76654 0.83751 0.35412 0.04600
H 	H 	0.74336 0.89855 0.33297 0.04100
H 	H 	0.69520 0.78519 0.44760 0.05100
H 	H 	0.69185 0.62303 0.60697 0.05200
H 	H 	0.72361 0.65469 0.55230 0.03800
H 	H 	0.63828 0.70271 0.51851 0.03800
C 	C 	0.68554 0.93957 0.36484 0.34500
C 	C 	0.70027 0.90267 0.37844 -0.09900
C 	C 	0.68384 0.88448 0.41119 0.02300
C 	C 	0.69759 0.84940 0.42379 -0.06400
C 	C 	0.72773 0.83185 0.40365 0.02100
C 	C 	0.74375 0.85019 0.37068 -0.06400
C 	C 	0.73035 0.88521 0.35838 0.02300
C 	C 	0.74280 0.79460 0.41673 0.02600
C 	C 	0.72247 0.77408 0.43907 -0.07500
C 	C 	0.68320 0.68046 0.53165 0.00400
C 	C 	0.68022 0.63951 0.58756 -0.07000
C 	C 	0.69826 0.65766 0.55652 -0.02600
C 	C 	0.65025 0.68466 0.53752 -0.02700
O 	O 	0.70161 0.95610 0.33582 -0.40900
O 	O 	0.65633 0.95502 0.38182 -0.41400
H 	H 	0.89641 0.42757 0.66029 0.03900
H 	H 	0.83527 0.45027 0.68482 0.04700
H 	H 	0.83621 0.35495 0.76649 0.04600
H 	H 	0.89708 0.33335 0.74327 0.04000
H 	H 	0.78409 0.44826 0.69539 0.05200
H 	H 	0.62281 0.60731 0.69177 0.05200
H 	H 	0.65427 0.55256 0.72360 0.03800
H 	H 	0.70227 0.51876 0.63829 0.03800
C 	C 	0.93814 0.36476 0.68538 0.34700
C 	C 	0.90141 0.37888 0.70010 -0.10100
C 	C 	0.88344 0.41176 0.68373 0.02400
C 	C 	0.84842 0.42460 0.69757 -0.06400
C 	C 	0.83083 0.40451 0.72772 0.02200
C 	C 	0.84898 0.37145 0.74370 -0.06400
C 	C 	0.88389 0.35891 0.73024 0.02500
C 	C 	0.79372 0.41763 0.74284 0.02700
C 	C 	0.77310 0.43968 0.72267 -0.07600
C 	C 	0.67990 0.53187 0.68325 0.00400
C 	C 	0.63921 0.58787 0.68016 -0.07000
C 	C 	0.65724 0.55679 0.69825 -0.02600
C 	C 	0.68423 0.53777 0.65025 -0.02700
O 	O 	0.95414 0.33539 0.70149 -0.41300
O 	O 	0.95395 0.38138 0.65623 -0.41400
H 	H 	0.65970 0.01575 0.89567 0.03900
H 	H 	0.68481 0.02993 0.83455 0.04700
H 	H 	0.76590 0.04230 0.83695 0.04600
H 	H 	0.74210 0.02582 0.89786 0.04100
H 	H 	0.69573 0.07111 0.78349 0.05200
H 	H 	0.68890 0.06971 0.62773 0.05100
H 	H 	0.72197 0.06083 0.65839 0.03800
H 	H 	0.64240 0.14054 0.69762 0.03800
C 	C 	0.68396 0.01109 0.93845 0.34300
C 	C 	0.69904 0.01943 0.90152 -0.09800
C 	C 	0.68309 0.02113 0.88304 0.02200
C 	C 	0.69732 0.02964 0.84798 -0.06300
C 	C 	0.72751 0.03716 0.83070 0.02100
C 	C 	0.74313 0.03588 0.84933 -0.06300
C 	C 	0.72928 0.02673 0.88431 0.02300
C 	C 	0.74298 0.04607 0.79347 0.02600
C 	C 	0.72299 0.06383 0.77268 -0.07500
C 	C 	0.68439 0.10019 0.67994 0.00500
C 	C 	0.67874 0.08563 0.64251 -0.06900
C 	C 	0.69752 0.08053 0.65995 -0.02600
C 	C 	0.65271 0.12530 0.68210 -0.02700
O 	O 	0.70030 0.00769 0.95461 -0.41400
O 	O 	0.65470 0.00795 0.95427 -0.41100
H 	H 	0.42743 0.89652 0.01546 0.03900
H 	H 	0.44971 0.83535 0.02951 0.04700
H 	H 	0.35463 0.83701 0.04087 0.04600
H 	H 	0.33322 0.89799 0.02512 0.04100
H 	H 	0.44401 0.78624 0.07537 0.05200
H 	H 	0.60122 0.62812 0.07507 0.04900
H 	H 	0.54628 0.66159 0.07019 0.03700
H 	H 	0.51816 0.69821 0.14837 0.03800
C 	C 	0.36457 0.93854 0.01191 0.34700
C 	C 	0.37868 0.90189 0.01921 -0.10100
C 	C 	0.41154 0.88372 0.02060 0.02400
C 	C 	0.42415 0.84872 0.02895 -0.06500
C 	C 	0.40388 0.83131 0.03644 0.02200
C 	C 	0.37110 0.84968 0.03470 -0.06400
C 	C 	0.35871 0.88462 0.02594 0.02400
C 	C 	0.41632 0.79409 0.04686 0.02600
C 	C 	0.43654 0.77438 0.06749 -0.07500
C 	C 	0.52831 0.68166 0.10926 0.00500
C 	C 	0.58395 0.64238 0.09193 -0.07000
C 	C 	0.55209 0.66161 0.08906 -0.02600
C 	C 	0.53640 0.68243 0.13277 -0.02700
O 	O 	0.33512 0.95466 0.00946 -0.41400
O 	O 	0.38140 0.95414 0.00871 -0.41300
H 	H 	0.01499 0.66081 0.42776 0.03900
H 	H 	0.02967 0.68571 0.44944 0.04700
H 	H 	0.04087 0.76736 0.35405 0.04600
H 	H 	0.02450 0.74353 0.33325 0.04100
H 	H 	0.07499 0.69537 0.44414 0.05200
H 	H 	0.05796 0.67470 0.61153 0.04800
H 	H 	0.05397 0.70813 0.55502 0.03800
H 	H 	0.15653 0.64949 0.51232 0.03800
C 	C 	0.01039 0.68516 0.36537 0.34600
C 	C 	0.01840 0.70037 0.37894 -0.10000
C 	C 	0.02021 0.68428 0.41168 0.02300
C 	C 	0.02896 0.69834 0.42393 -0.06400
C 	C 	0.03653 0.72846 0.40344 0.02100
C 	C 	0.03463 0.74446 0.37072 -0.06400
C 	C 	0.02546 0.73068 0.35869 0.02400
C 	C 	0.04672 0.74323 0.41570 0.02600
C 	C 	0.06712 0.72260 0.43618 -0.07600
C 	C 	0.10510 0.68145 0.52982 0.00500
C 	C 	0.08027 0.67033 0.58998 -0.07000
C 	C 	0.07765 0.68863 0.55791 -0.02600
C 	C 	0.13559 0.65626 0.53377 -0.02700
O 	O 	0.00722 0.70109 0.33620 -0.41000
O 	O 	0.00737 0.65587 0.38221 -0.41200
H 	H 	0.01724 0.89414 0.65990 0.03900
H 	H 	0.03265 0.83262 0.68429 0.04600
H 	H 	0.04284 0.83501 0.76659 0.04600
H 	H 	0.02586 0.89595 0.74338 0.04100
H 	H 	0.07702 0.78102 0.69592 0.05200
H 	H 	0.15306 0.60689 0.66453 0.05100
C 	C 	0.01163 0.93674 0.68524 0.34400
C 	C 	0.02013 0.89980 0.69989 -0.09800
C 	C 	0.02251 0.88137 0.68336 0.02200
C 	C 	0.03165 0.84619 0.69712 -0.06300
C 	C 	0.03883 0.82891 0.72745 0.02100
C 	C 	0.03676 0.84753 0.74359 -0.06300
C 	C 	0.02723 0.88252 0.73016 0.02300
C 	C 	0.04809 0.79168 0.74290 0.02600
C 	C 	0.06862 0.77042 0.72323 -0.07500
C 	C 	0.13543 0.63224 0.66325 -0.06800
O 	O 	0.00806 0.95294 0.70167 -0.41000
O 	O 	0.00853 0.95259 0.65599 -0.41000
H 	H 	0.42401 0.66293 0.89835 0.04000
H 	H 	0.44771 0.68570 0.83717 0.04600
H 	H 	0.35342 0.76838 0.83551 0.04600
H 	H 	0.33074 0.74686 0.89657 0.04000
H 	H 	0.44744 0.69568 0.78529 0.05100
H 	H 	0.60690 0.69210 0.62285 0.05200
H 	H 	0.55226 0.72370 0.65471 0.03700
H 	H 	0.51864 0.63827 0.70261 0.03800
C 	C 	0.36072 0.68991 0.93910 0.34600
C 	C 	0.37553 0.70365 0.90220 -0.09900
C 	C 	0.40855 0.68633 0.88487 0.02400
C 	C 	0.42204 0.69908 0.84977 -0.06400
C 	C 	0.40261 0.72906 0.83138 0.02100
C 	C 	0.36946 0.74576 0.84887 -0.06400
C 	C 	0.35627 0.73339 0.88386 0.02300
C 	C 	0.41653 0.74354 0.79418 0.02600
C 	C 	0.43897 0.72293 0.77396 -0.07500
C 	C 	0.53168 0.68325 0.68042 0.00400
C 	C 	0.58751 0.68044 0.63931 -0.07000
C 	C 	0.55649 0.69838 0.65759 -0.02600
C 	C 	0.53759 0.65031 0.68453 -0.02700
O 	O 	0.33140 0.70602 0.95548 -0.40200
O 	O 	0.37749 0.66086 0.95466 -0.42400
H 	H 	0.65847 0.43014 0.01676 0.03800
H 	H 	0.68460 0.45067 0.03137 0.04600
H 	H 	0.76576 0.35486 0.04092 0.04600
H 	H 	0.74074 0.33521 0.02467 0.04200
H 	H 	0.69591 0.44513 0.07570 0.05200
H 	H 	0.64712 0.56846 0.16307 0.04800
C 	C 	0.68161 0.36834 0.01134 0.34400
C 	C 	0.69741 0.38124 0.01958 -0.09800
C 	C 	0.68198 0.41372 0.02177 0.02200
C 	C 	0.69683 0.42529 0.03042 -0.06300
C 	C 	0.72724 0.40441 0.03740 0.02100
C 	C 	0.74266 0.37186 0.03513 -0.06300
C 	C 	0.72809 0.36050 0.02607 0.02300
C 	C 	0.74301 0.41612 0.04718 0.02600
C 	C 	0.72321 0.43668 0.06753 -0.07600
C 	C 	0.65520 0.56572 0.13909 -0.06900
O 	O 	0.69787 0.33966 0.00716 -0.41000
O 	O 	0.65199 0.38502 0.00884 -0.40900
H 	H 	0.89724 0.01464 0.42651 0.03900
H 	H 	0.83597 0.02980 0.44910 0.04700
H 	H 	0.83622 0.04165 0.35451 0.04700
H 	H 	0.89733 0.02482 0.33270 0.04100
H 	H 	0.78620 0.07587 0.44399 0.05200
H 	H 	0.62817 0.07502 0.60139 0.04900
H 	H 	0.66149 0.07037 0.54635 0.03700
H 	H 	0.69797 0.14860 0.51837 0.03800
C 	C 	0.93858 0.01038 0.36367 0.34600
C 	C 	0.90191 0.01833 0.37794 -0.10100
C 	C 	0.88412 0.02008 0.41079 0.02500
C 	C 	0.84906 0.02913 0.42357 -0.06500
C 	C 	0.83128 0.03695 0.40358 0.02200
C 	C 	0.84922 0.03517 0.37077 -0.06500
C 	C 	0.88420 0.02571 0.35819 0.02500
C 	C 	0.79411 0.04717 0.41649 0.02600
C 	C 	0.77438 0.06788 0.43662 -0.07600
C 	C 	0.68149 0.10949 0.52844 0.00500
C 	C 	0.64235 0.09196 0.58413 -0.07000
C 	C 	0.66150 0.08922 0.55220 -0.02600
C 	C 	0.68224 0.13295 0.53659 -0.02700
O 	O 	0.95487 0.00732 0.33439 -0.40700
O 	O 	0.95416 0.00731 0.38041 -0.41900
Cu	Cu	0.36224 0.00001 0.00106 0.91000
Cu	Cu	0.99977 0.36190 0.63733 0.90900
Cu	Cu	0.99947 0.63627 0.36357 0.90700
Cu	Cu	0.63795 0.99975 0.00014 0.90700
Cu	Cu	0.00026 0.36372 0.99984 0.90800
Cu	Cu	0.63581 0.00132 0.36406 0.90800
Cu	Cu	0.36415 0.00006 0.63618 0.90800
Cu	Cu	0.99982 0.63788 0.99999 0.91100
Cu	Cu	0.99994 0.99973 0.36365 0.90700
Cu	Cu	0.36351 0.63683 0.00032 0.91000
Cu	Cu	0.63431 0.36587 0.99901 0.90600
Cu	Cu	0.00014 0.99890 0.63755 0.91000
Cu	Cu	0.31791 0.00014 0.00154 0.91700
Cu	Cu	0.99961 0.31800 0.68112 0.91400
Cu	Cu	0.99951 0.68024 0.31939 0.91800
Cu	Cu	0.68149 0.99961 0.00021 0.91400
Cu	Cu	0.00040 0.31952 0.99984 0.92000
Cu	Cu	0.68028 0.00152 0.31982 0.91900
Cu	Cu	0.32012 0.99997 0.68021 0.91700
Cu	Cu	0.99958 0.68211 0.99994 0.91600
Cu	Cu	0.00002 0.99970 0.31974 0.91900
Cu	Cu	0.31934 0.68111 0.00042 0.91800
Cu	Cu	0.67893 0.32109 0.99902 0.92300
Cu	Cu	0.00016 0.99852 0.68166 0.91600
H 	H 	0.39242 0.01864 0.79476 0.04900
C 	C 	0.40657 0.03597 0.77929 -0.06900
C 	C 	0.44710 0.07665 0.73943 0.04600
C 	C 	0.47320 0.09147 0.71936 -0.03000
C 	C 	0.49774 0.10005 0.70287 -0.00700
C 	C 	0.59401 0.11147 0.64729 0.08100
H 	H 	0.02028 0.39115 0.79391 0.04900
C 	C 	0.03612 0.40684 0.77815 -0.06900
C 	C 	0.07162 0.45221 0.73788 0.04600
C 	C 	0.08435 0.47984 0.71811 -0.03000
C 	C 	0.09266 0.50454 0.70239 -0.00700
C 	C 	0.11052 0.59787 0.64667 0.08000
H 	H 	0.79389 0.79498 0.39148 0.04900
C 	C 	0.77802 0.77931 0.40683 -0.06900
C 	C 	0.73731 0.73905 0.45080 0.04700
C 	C 	0.71703 0.71862 0.47739 -0.03100
C 	C 	0.70101 0.70124 0.50137 -0.00700
C 	C 	0.64691 0.64379 0.59397 0.07900
H 	H 	0.79418 0.79373 0.01996 0.04900
C 	C 	0.77826 0.77811 0.03603 -0.06900
C 	C 	0.73738 0.73815 0.07202 0.04700
C 	C 	0.71676 0.71843 0.08481 -0.03100
C 	C 	0.69960 0.70260 0.09308 -0.00700
C 	C 	0.64462 0.64659 0.11063 0.08000
H 	H 	0.79374 0.39233 0.01890 0.04900
C 	C 	0.77829 0.40649 0.03621 -0.06900
C 	C 	0.73859 0.44702 0.07690 0.04600
C 	C 	0.71865 0.47317 0.09167 -0.03000
C 	C 	0.70235 0.49774 0.10018 -0.00700
C 	C 	0.64706 0.59402 0.11154 0.08100
H 	H 	0.79342 0.01891 0.39419 0.04900
C 	C 	0.77819 0.03648 0.40808 -0.06900
C 	C 	0.73923 0.07790 0.44780 0.04600
C 	C 	0.71954 0.09364 0.47320 -0.03000
C 	C 	0.70261 0.10323 0.49711 -0.00700
C 	C 	0.64335 0.11465 0.59334 0.07900
H 	H 	0.39172 0.79472 0.79415 0.04900
C 	C 	0.40695 0.77868 0.77865 -0.06900
C 	C 	0.45083 0.73754 0.73886 0.04600
C 	C 	0.47743 0.71709 0.71859 -0.03100
C 	C 	0.50140 0.70102 0.70125 -0.00700
C 	C 	0.59396 0.64716 0.64348 0.07900
H 	H 	0.01897 0.79330 0.79344 0.04900
C 	C 	0.03657 0.77717 0.77812 -0.06900
C 	C 	0.07808 0.73528 0.73885 0.04600
C 	C 	0.09385 0.71389 0.71909 -0.03000
C 	C 	0.10342 0.69728 0.70222 -0.00700
C 	C 	0.11462 0.64858 0.64339 0.07900
H 	H 	0.01884 0.79440 0.39244 0.04900
C 	C 	0.03618 0.77840 0.40659 -0.06900
C 	C 	0.07691 0.73705 0.44706 0.04600
C 	C 	0.09167 0.71619 0.47320 -0.03000
C 	C 	0.10018 0.69952 0.49776 -0.00700
C 	C 	0.11144 0.64712 0.59408 0.08100
H 	H 	0.39344 0.79323 0.01917 0.04900
C 	C 	0.40755 0.77807 0.03654 -0.06900
C 	C 	0.44764 0.73927 0.07767 0.04600
C 	C 	0.47309 0.71968 0.09336 -0.03000
C 	C 	0.49699 0.70277 0.10296 -0.00700
C 	C 	0.59310 0.64339 0.11467 0.07900
H 	H 	0.79451 0.39251 0.79375 0.04900
C 	C 	0.77870 0.40762 0.77803 -0.06900
C 	C 	0.73808 0.45106 0.73770 0.04700
C 	C 	0.71759 0.47754 0.71746 -0.03100
C 	C 	0.70040 0.50151 0.70126 -0.00700
C 	C 	0.64348 0.59428 0.64687 0.07900
H 	H 	0.79391 0.02044 0.79434 0.04900
C 	C 	0.77824 0.03633 0.77846 -0.06900
C 	C 	0.73818 0.07190 0.73768 0.04600
C 	C 	0.71845 0.08458 0.71708 -0.03100
C 	C 	0.70264 0.09282 0.69991 -0.00700
C 	C 	0.64663 0.11049 0.64488 0.08000
H 	H 	0.60758 0.98124 0.20596 0.04900
C 	C 	0.59339 0.96395 0.22189 -0.06900
C 	C 	0.55277 0.92337 0.26308 0.04600
C 	C 	0.52662 0.90861 0.28389 -0.03000
C 	C 	0.50205 0.90008 0.30058 -0.00700
C 	C 	0.40590 0.88849 0.35291 0.08100
H 	H 	0.98154 0.60655 0.20596 0.04900
C 	C 	0.96402 0.59259 0.22145 -0.06900
C 	C 	0.92287 0.55260 0.26129 0.04600
C 	C 	0.90800 0.52658 0.28131 -0.03100
C 	C 	0.89947 0.50204 0.29768 -0.00700
C 	C 	0.88841 0.40570 0.35296 0.08100
H 	H 	0.20609 0.20600 0.97972 0.04900
C 	C 	0.22188 0.22175 0.96368 -0.06900
C 	C 	0.26247 0.26200 0.92787 0.04700
C 	C 	0.28299 0.28180 0.91518 -0.03100
C 	C 	0.30015 0.29758 0.90697 -0.00700
C 	C 	0.35534 0.35340 0.88937 0.08000
H 	H 	0.20577 0.20560 0.60727 0.04900
C 	C 	0.22136 0.22150 0.59318 -0.06900
C 	C 	0.26145 0.26258 0.55275 0.04600
C 	C 	0.28153 0.28337 0.52657 -0.03000
C 	C 	0.29784 0.30012 0.50199 -0.00700
C 	C 	0.35289 0.35281 0.40582 0.08100
H 	H 	0.20507 0.60854 0.20642 0.04900
C 	C 	0.22102 0.59301 0.22200 -0.06900
C 	C 	0.26207 0.54770 0.26175 0.04600
C 	C 	0.28273 0.52007 0.28150 -0.03000
C 	C 	0.29988 0.49539 0.29740 -0.00700
C 	C 	0.35530 0.40207 0.35331 0.08000
H 	H 	0.20657 0.98102 0.20656 0.04900
C 	C 	0.22180 0.96346 0.22278 -0.06900
C 	C 	0.26079 0.92216 0.26493 0.04600
C 	C 	0.28048 0.90645 0.28637 -0.03000
C 	C 	0.29745 0.89683 0.30291 -0.00700
C 	C 	0.35665 0.88515 0.35148 0.07900
H 	H 	0.60653 0.20671 0.98081 0.04900
C 	C 	0.59246 0.22188 0.96340 -0.06900
C 	C 	0.55232 0.26072 0.92236 0.04600
C 	C 	0.52687 0.28033 0.90667 -0.03000
C 	C 	0.50297 0.29724 0.89705 -0.00700
C 	C 	0.40687 0.35657 0.88534 0.07900
H 	H 	0.98096 0.20582 0.60659 0.04900
C 	C 	0.96356 0.22110 0.59253 -0.06900
C 	C 	0.92257 0.26027 0.55231 0.04600
C 	C 	0.90684 0.28004 0.52686 -0.03000
C 	C 	0.89717 0.29704 0.50299 -0.00700
C 	C 	0.88541 0.35632 0.40686 0.07900
H 	H 	0.97957 0.20578 0.20577 0.04900
C 	C 	0.96371 0.22151 0.22158 -0.06900
C 	C 	0.92815 0.26177 0.26220 0.04600
C 	C 	0.91549 0.28156 0.28274 -0.03100
C 	C 	0.90726 0.29735 0.29991 -0.00700
C 	C 	0.88946 0.35312 0.35529 0.08000
H 	H 	0.60638 0.20634 0.20602 0.04900
C 	C 	0.59240 0.22262 0.22120 -0.06900
C 	C 	0.55218 0.26485 0.26014 0.04600
C 	C 	0.52671 0.28632 0.27987 -0.03000
C 	C 	0.50287 0.30280 0.29697 -0.00700
C 	C 	0.40691 0.35135 0.35656 0.07900
H 	H 	0.20639 0.60760 0.98116 0.04900
C 	C 	0.22181 0.59337 0.96389 -0.06900
C 	C 	0.26140 0.55287 0.92316 0.04600
C 	C 	0.28131 0.52678 0.90834 -0.03100
C 	C 	0.29762 0.50223 0.89981 -0.00700
C 	C 	0.35293 0.40595 0.88845 0.08100
H 	H 	0.20596 0.97972 0.60873 0.04900
C 	C 	0.22167 0.96385 0.59306 -0.06900
C 	C 	0.26180 0.92827 0.54778 0.04600
C 	C 	0.28158 0.91554 0.52016 -0.03100
C 	C 	0.29741 0.90725 0.49545 -0.00700
C 	C 	0.35335 0.88940 0.40213 0.08000
N 	N 	0.62697 0.11478 0.62770 -0.14400
N 	N 	0.11475 0.63045 0.62703 -0.14400
N 	N 	0.62718 0.62748 0.62715 -0.14300
N 	N 	0.62743 0.62696 0.11489 -0.14400
N 	N 	0.37300 0.88507 0.36959 -0.14400
N 	N 	0.88518 0.37273 0.37253 -0.14400
N 	N 	0.37254 0.37301 0.88511 -0.14400
N 	N 	0.37255 0.36951 0.37293 -0.14400
