data_crystal

_cell_length_a 25.57400
_cell_length_b 25.57400
_cell_length_c 25.57400
_cell_angle_alpha 90.00000
_cell_angle_beta  90.00000
_cell_angle_gamma 90.00000

_symmetry_space_group_name_	'P 1'
_symmetry_space_group_name_H-M	'P 1'

loop_
_symmetry_equiv_pos_as_xyz
  x,y,z

loop_
_atom_site_label
_atom_site_type_symbol
_atom_site_fract_x
_atom_site_fract_y
_atom_site_fract_z
_atom_site_charge
N 	N 	0.19810 0.86310 0.06250 -0.19100
N 	N 	0.21920 0.94090 0.10910 -0.17800
H 	H 	0.21460 0.96280 0.13420 0.09900
N 	N 	0.25400 0.95190 0.07060 -0.14800
C 	C 	0.17920 0.81360 0.06000 0.05000
H 	H 	0.18740 0.79180 0.03210 -0.01200
C 	C 	0.14600 0.79590 0.10170 -0.13100
H 	H 	0.12700 0.76500 0.09880 0.06500
C 	C 	0.14300 0.82880 0.14990 0.06400
H 	H 	0.12670 0.81520 0.17940 -0.01000
C 	C 	0.16260 0.87580 0.15210 -0.18000
H 	H 	0.15770 0.89640 0.18160 0.07900
C 	C 	0.19170 0.89550 0.10820 0.14100
C 	C 	0.27410 0.00140 0.07070 0.17400
C 	C 	0.25120 0.04020 0.11320 -0.60100
H 	H 	0.22430 0.02280 0.13280 0.19300
H 	H 	0.23660 0.07030 0.09610 0.19700
H 	H 	0.27860 0.05100 0.13640 0.20000
C 	C 	0.31550 0.01290 0.03620 -0.12000
C 	C 	0.32230 0.06790 0.02450 0.03000
H 	H 	0.30050 0.09300 0.03910 0.00300
C 	C 	0.36270 0.08190 0.99050 -0.15400
H 	H 	0.36670 0.11620 0.97920 0.07600
C 	C 	0.39480 0.04500 0.97510 0.11900
C 	C 	0.38760 0.98900 0.98560 -0.13900
H 	H 	0.41030 0.96450 0.97100 0.08500
C 	C 	0.34910 0.97380 0.01550 0.05500
H 	H 	0.34390 0.93870 0.02310 -0.01300
N 	N 	0.69810 0.36310 0.56250 -0.18900
N 	N 	0.71920 0.44090 0.60910 -0.17600
H 	H 	0.71460 0.46280 0.63420 0.09600
N 	N 	0.75400 0.45190 0.57060 -0.15200
C 	C 	0.67920 0.31360 0.56000 0.05100
H 	H 	0.68740 0.29180 0.53210 -0.00900
C 	C 	0.64600 0.29590 0.60170 -0.12900
H 	H 	0.62700 0.26500 0.59880 0.06700
C 	C 	0.64300 0.32880 0.64990 0.06500
H 	H 	0.62670 0.31520 0.67940 -0.00900
C 	C 	0.66260 0.37580 0.65210 -0.17800
H 	H 	0.65770 0.39640 0.68160 0.07900
C 	C 	0.69170 0.39550 0.60820 0.14200
C 	C 	0.77410 0.50140 0.57070 0.19300
C 	C 	0.75120 0.54020 0.61320 -0.61800
H 	H 	0.72430 0.52280 0.63280 0.20200
H 	H 	0.73660 0.57030 0.59610 0.20500
H 	H 	0.77860 0.55100 0.63640 0.20700
C 	C 	0.81550 0.51290 0.53620 -0.13500
C 	C 	0.82230 0.56790 0.52450 0.06200
H 	H 	0.80050 0.59300 0.53910 -0.00700
C 	C 	0.86270 0.58190 0.49050 -0.18900
H 	H 	0.86670 0.61620 0.47920 0.08700
C 	C 	0.89480 0.54500 0.47510 0.14600
C 	C 	0.88760 0.48900 0.48560 -0.18400
H 	H 	0.91030 0.46450 0.47100 0.09700
C 	C 	0.84910 0.47380 0.51550 0.08700
H 	H 	0.84390 0.43870 0.52310 -0.02300
N 	N 	0.30190 0.13690 0.56250 -0.18900
N 	N 	0.28080 0.05910 0.60910 -0.17600
H 	H 	0.28540 0.03720 0.63420 0.09200
N 	N 	0.24600 0.04810 0.57060 -0.15700
C 	C 	0.32080 0.18640 0.56000 0.05100
H 	H 	0.31260 0.20820 0.53210 -0.00900
C 	C 	0.35400 0.20410 0.60170 -0.12900
H 	H 	0.37300 0.23500 0.59880 0.06700
C 	C 	0.35700 0.17120 0.64990 0.06400
H 	H 	0.37330 0.18480 0.67940 -0.00900
C 	C 	0.33740 0.12420 0.65210 -0.17700
H 	H 	0.34230 0.10360 0.68160 0.07800
C 	C 	0.30830 0.10450 0.60820 0.14000
C 	C 	0.22590 0.99860 0.57070 0.19900
C 	C 	0.24880 0.95980 0.61320 -0.62500
H 	H 	0.27570 0.97720 0.63280 0.20700
H 	H 	0.26340 0.92970 0.59610 0.20700
H 	H 	0.22140 0.94900 0.63640 0.20900
C 	C 	0.18450 0.98710 0.53620 -0.13000
C 	C 	0.17770 0.93210 0.52450 0.06300
H 	H 	0.19950 0.90700 0.53910 -0.00700
C 	C 	0.13730 0.91810 0.49050 -0.19300
H 	H 	0.13330 0.88380 0.47920 0.08800
C 	C 	0.10520 0.95500 0.47510 0.15300
C 	C 	0.11240 0.01100 0.48560 -0.19200
H 	H 	0.08970 0.03550 0.47100 0.09600
C 	C 	0.15090 0.02620 0.51550 0.08000
H 	H 	0.15610 0.06130 0.52310 -0.02300
N 	N 	0.80190 0.63690 0.06250 -0.19000
N 	N 	0.78080 0.55910 0.10910 -0.17700
H 	H 	0.78540 0.53720 0.13420 0.09600
N 	N 	0.74600 0.54810 0.07060 -0.15100
C 	C 	0.82080 0.68640 0.06000 0.05100
H 	H 	0.81260 0.70820 0.03210 -0.00900
C 	C 	0.85400 0.70410 0.10170 -0.12900
H 	H 	0.87300 0.73500 0.09880 0.06800
C 	C 	0.85700 0.67120 0.14990 0.06500
H 	H 	0.87330 0.68480 0.17940 -0.00800
C 	C 	0.83740 0.62420 0.15210 -0.17800
H 	H 	0.84230 0.60360 0.18160 0.07900
C 	C 	0.80830 0.60450 0.10820 0.14100
C 	C 	0.72590 0.49860 0.07070 0.18200
C 	C 	0.74880 0.45980 0.11320 -0.60800
H 	H 	0.77570 0.47720 0.13280 0.19900
H 	H 	0.76340 0.42970 0.09610 0.20000
H 	H 	0.72140 0.44900 0.13640 0.20300
C 	C 	0.68450 0.48710 0.03620 -0.11500
C 	C 	0.67770 0.43210 0.02450 0.03000
H 	H 	0.69950 0.40700 0.03910 0.00300
C 	C 	0.63730 0.41810 0.99050 -0.15700
H 	H 	0.63330 0.38380 0.97920 0.07700
C 	C 	0.60520 0.45500 0.97510 0.12700
C 	C 	0.61240 0.51100 0.98560 -0.14800
H 	H 	0.58970 0.53550 0.97100 0.08600
C 	C 	0.65090 0.52620 0.01550 0.04900
H 	H 	0.65610 0.56130 0.02310 -0.01300
N 	N 	0.80190 0.36310 0.43750 -0.18900
N 	N 	0.78080 0.44090 0.39090 -0.17600
H 	H 	0.78540 0.46280 0.36580 0.09600
N 	N 	0.74600 0.45190 0.42940 -0.15200
C 	C 	0.82080 0.31360 0.44000 0.05100
H 	H 	0.81260 0.29180 0.46790 -0.00800
C 	C 	0.85400 0.29590 0.39830 -0.12900
H 	H 	0.87300 0.26500 0.40120 0.06800
C 	C 	0.85700 0.32880 0.35010 0.06500
H 	H 	0.87330 0.31520 0.32060 -0.00900
C 	C 	0.83740 0.37580 0.34790 -0.17800
H 	H 	0.84230 0.39640 0.31840 0.07900
C 	C 	0.80830 0.39550 0.39180 0.14200
C 	C 	0.72590 0.50140 0.42930 0.19200
C 	C 	0.74880 0.54020 0.38680 -0.61700
H 	H 	0.77570 0.52280 0.36720 0.20200
H 	H 	0.76340 0.57030 0.40390 0.20400
H 	H 	0.72140 0.55100 0.36360 0.20600
C 	C 	0.68450 0.51290 0.46380 -0.13500
C 	C 	0.67770 0.56790 0.47550 0.06200
H 	H 	0.69950 0.59300 0.46090 -0.00700
C 	C 	0.63730 0.58190 0.50950 -0.19000
H 	H 	0.63330 0.61620 0.52080 0.08700
C 	C 	0.60520 0.54500 0.52490 0.14500
C 	C 	0.61240 0.48900 0.51440 -0.18400
H 	H 	0.58970 0.46450 0.52900 0.09600
C 	C 	0.65090 0.47380 0.48450 0.08600
H 	H 	0.65610 0.43870 0.47690 -0.02300
N 	N 	0.30190 0.86310 0.93750 -0.18700
N 	N 	0.28080 0.94090 0.89090 -0.17600
H 	H 	0.28540 0.96280 0.86580 0.09900
N 	N 	0.24600 0.95190 0.92940 -0.14700
C 	C 	0.32080 0.81360 0.94000 0.05200
H 	H 	0.31260 0.79180 0.96790 -0.00600
C 	C 	0.35400 0.79590 0.89830 -0.12900
H 	H 	0.37300 0.76500 0.90120 0.06800
C 	C 	0.35700 0.82880 0.85010 0.06600
H 	H 	0.37330 0.81520 0.82060 -0.00900
C 	C 	0.33740 0.87580 0.84790 -0.17900
H 	H 	0.34230 0.89640 0.81840 0.08000
C 	C 	0.30830 0.89550 0.89180 0.14400
C 	C 	0.22590 0.00140 0.92930 0.19400
C 	C 	0.24880 0.04020 0.88680 -0.61800
H 	H 	0.27570 0.02280 0.86720 0.19900
H 	H 	0.26340 0.07030 0.90390 0.20500
H 	H 	0.22140 0.05100 0.86360 0.20500
C 	C 	0.18450 0.01290 0.96380 -0.16000
C 	C 	0.17770 0.06790 0.97550 0.09100
H 	H 	0.19950 0.09300 0.96090 -0.01500
C 	C 	0.13730 0.08190 0.00950 -0.21800
H 	H 	0.13330 0.11620 0.02080 0.09400
C 	C 	0.10520 0.04500 0.02490 0.15500
C 	C 	0.11240 0.98900 0.01440 -0.21000
H 	H 	0.08970 0.96450 0.02900 0.10500
C 	C 	0.15090 0.97380 0.98450 0.12800
H 	H 	0.15610 0.93870 0.97690 -0.03400
N 	N 	0.69810 0.63690 0.93750 -0.18700
N 	N 	0.71920 0.55910 0.89090 -0.17600
H 	H 	0.71460 0.53720 0.86580 0.09600
N 	N 	0.75400 0.54810 0.92940 -0.15200
C 	C 	0.67920 0.68640 0.94000 0.05200
H 	H 	0.68740 0.70820 0.96790 -0.00600
C 	C 	0.64600 0.70410 0.89830 -0.12900
H 	H 	0.62700 0.73500 0.90120 0.06900
C 	C 	0.64300 0.67120 0.85010 0.06600
H 	H 	0.62670 0.68480 0.82060 -0.00900
C 	C 	0.66260 0.62420 0.84790 -0.17800
H 	H 	0.65770 0.60360 0.81840 0.07900
C 	C 	0.69170 0.60450 0.89180 0.14300
C 	C 	0.77410 0.49860 0.92930 0.20200
C 	C 	0.75120 0.45980 0.88680 -0.62700
H 	H 	0.72430 0.47720 0.86720 0.20500
H 	H 	0.73660 0.42970 0.90390 0.20800
H 	H 	0.77860 0.44900 0.86360 0.21000
C 	C 	0.81550 0.48710 0.96380 -0.15500
C 	C 	0.82230 0.43210 0.97550 0.09400
H 	H 	0.80050 0.40700 0.96090 -0.01600
C 	C 	0.86270 0.41810 0.00950 -0.22200
H 	H 	0.86670 0.38380 0.02080 0.09600
C 	C 	0.89480 0.45500 0.02490 0.16400
C 	C 	0.88760 0.51100 0.01440 -0.21900
H 	H 	0.91030 0.53550 0.02900 0.10700
C 	C 	0.84910 0.52620 0.98450 0.12400
H 	H 	0.84390 0.56130 0.97690 -0.03300
N 	N 	0.19810 0.13690 0.43750 -0.18900
N 	N 	0.21920 0.05910 0.39090 -0.17600
H 	H 	0.21460 0.03720 0.36580 0.09200
N 	N 	0.25400 0.04810 0.42940 -0.15700
C 	C 	0.17920 0.18640 0.44000 0.05000
H 	H 	0.18740 0.20820 0.46790 -0.00900
C 	C 	0.14600 0.20410 0.39830 -0.12900
H 	H 	0.12700 0.23500 0.40120 0.06600
C 	C 	0.14300 0.17120 0.35010 0.06400
H 	H 	0.12670 0.18480 0.32060 -0.00900
C 	C 	0.16260 0.12420 0.34790 -0.17700
H 	H 	0.15770 0.10360 0.31840 0.07800
C 	C 	0.19170 0.10450 0.39180 0.14000
C 	C 	0.27410 0.99860 0.42930 0.20000
C 	C 	0.25120 0.95980 0.38680 -0.62500
H 	H 	0.22430 0.97720 0.36720 0.20700
H 	H 	0.23660 0.92970 0.40390 0.20700
H 	H 	0.27860 0.94900 0.36360 0.21000
C 	C 	0.31550 0.98710 0.46380 -0.13000
C 	C 	0.32230 0.93210 0.47550 0.06300
H 	H 	0.30050 0.90700 0.46090 -0.00700
C 	C 	0.36270 0.91810 0.50950 -0.19300
H 	H 	0.36670 0.88380 0.52080 0.08800
C 	C 	0.39480 0.95500 0.52490 0.15400
C 	C 	0.38760 0.01100 0.51440 -0.19200
H 	H 	0.41030 0.03550 0.52900 0.09700
C 	C 	0.34910 0.02620 0.48450 0.08000
H 	H 	0.34390 0.06130 0.47690 -0.02300
N 	N 	0.06250 0.19810 0.86310 -0.19000
N 	N 	0.10910 0.21920 0.94090 -0.17700
H 	H 	0.13420 0.21460 0.96280 0.10000
N 	N 	0.07060 0.25400 0.95190 -0.14700
C 	C 	0.06000 0.17920 0.81360 0.05100
H 	H 	0.03210 0.18740 0.79180 -0.01100
C 	C 	0.10170 0.14600 0.79590 -0.13000
H 	H 	0.09880 0.12700 0.76500 0.06600
C 	C 	0.14990 0.14300 0.82880 0.06500
H 	H 	0.17940 0.12670 0.81520 -0.00900
C 	C 	0.15210 0.16260 0.87580 -0.17900
H 	H 	0.18160 0.15770 0.89640 0.08000
C 	C 	0.10820 0.19170 0.89550 0.14200
C 	C 	0.07070 0.27410 0.00140 0.17500
C 	C 	0.11320 0.25120 0.04020 -0.60000
H 	H 	0.13280 0.22430 0.02280 0.19400
H 	H 	0.09610 0.23660 0.07030 0.19800
H 	H 	0.13640 0.27860 0.05100 0.20000
C 	C 	0.03620 0.31550 0.01290 -0.12000
C 	C 	0.02450 0.32230 0.06790 0.03000
H 	H 	0.03910 0.30050 0.09300 0.00300
C 	C 	0.99050 0.36270 0.08190 -0.15400
H 	H 	0.97920 0.36670 0.11620 0.07600
C 	C 	0.97510 0.39480 0.04500 0.11900
C 	C 	0.98560 0.38760 0.98900 -0.13900
H 	H 	0.97100 0.41030 0.96450 0.08500
C 	C 	0.01550 0.34910 0.97380 0.05500
H 	H 	0.02310 0.34390 0.93870 -0.01300
N 	N 	0.56250 0.69810 0.36310 -0.18900
N 	N 	0.60910 0.71920 0.44090 -0.17600
H 	H 	0.63420 0.71460 0.46280 0.09600
N 	N 	0.57060 0.75400 0.45190 -0.15200
C 	C 	0.56000 0.67920 0.31360 0.05100
H 	H 	0.53210 0.68740 0.29180 -0.00900
C 	C 	0.60170 0.64600 0.29590 -0.12900
H 	H 	0.59880 0.62700 0.26500 0.06700
C 	C 	0.64990 0.64300 0.32880 0.06500
H 	H 	0.67940 0.62670 0.31520 -0.00900
C 	C 	0.65210 0.66260 0.37580 -0.17800
H 	H 	0.68160 0.65770 0.39640 0.07900
C 	C 	0.60820 0.69170 0.39550 0.14200
C 	C 	0.57070 0.77410 0.50140 0.19300
C 	C 	0.61320 0.75120 0.54020 -0.61800
H 	H 	0.63280 0.72430 0.52280 0.20200
H 	H 	0.59610 0.73660 0.57030 0.20500
H 	H 	0.63640 0.77860 0.55100 0.20700
C 	C 	0.53620 0.81550 0.51290 -0.13500
C 	C 	0.52450 0.82230 0.56790 0.06200
H 	H 	0.53910 0.80050 0.59300 -0.00700
C 	C 	0.49050 0.86270 0.58190 -0.18900
H 	H 	0.47920 0.86670 0.61620 0.08700
C 	C 	0.47510 0.89480 0.54500 0.14600
C 	C 	0.48560 0.88760 0.48900 -0.18400
H 	H 	0.47100 0.91030 0.46450 0.09700
C 	C 	0.51550 0.84910 0.47380 0.08700
H 	H 	0.52310 0.84390 0.43870 -0.02300
N 	N 	0.56250 0.30190 0.13690 -0.18900
N 	N 	0.60910 0.28080 0.05910 -0.17600
H 	H 	0.63420 0.28540 0.03720 0.09200
N 	N 	0.57060 0.24600 0.04810 -0.15700
C 	C 	0.56000 0.32080 0.18640 0.05100
H 	H 	0.53210 0.31260 0.20820 -0.00900
C 	C 	0.60170 0.35400 0.20410 -0.12900
H 	H 	0.59880 0.37300 0.23500 0.06700
C 	C 	0.64990 0.35700 0.17120 0.06400
H 	H 	0.67940 0.37330 0.18480 -0.00900
C 	C 	0.65210 0.33740 0.12420 -0.17700
H 	H 	0.68160 0.34230 0.10360 0.07800
C 	C 	0.60820 0.30830 0.10450 0.14000
C 	C 	0.57070 0.22590 0.99860 0.19900
C 	C 	0.61320 0.24880 0.95980 -0.62500
H 	H 	0.63280 0.27570 0.97720 0.20700
H 	H 	0.59610 0.26340 0.92970 0.20700
H 	H 	0.63640 0.22140 0.94900 0.20900
C 	C 	0.53620 0.18450 0.98710 -0.13000
C 	C 	0.52450 0.17770 0.93210 0.06300
H 	H 	0.53910 0.19950 0.90700 -0.00700
C 	C 	0.49050 0.13730 0.91810 -0.19300
H 	H 	0.47920 0.13330 0.88380 0.08800
C 	C 	0.47510 0.10520 0.95500 0.15300
C 	C 	0.48560 0.11240 0.01100 -0.19200
H 	H 	0.47100 0.08970 0.03550 0.09600
C 	C 	0.51550 0.15090 0.02620 0.08000
H 	H 	0.52310 0.15610 0.06130 -0.02300
N 	N 	0.06250 0.80190 0.63690 -0.19000
N 	N 	0.10910 0.78080 0.55910 -0.17700
H 	H 	0.13420 0.78540 0.53720 0.09600
N 	N 	0.07060 0.74600 0.54810 -0.15100
C 	C 	0.06000 0.82080 0.68640 0.05100
H 	H 	0.03210 0.81260 0.70820 -0.00900
C 	C 	0.10170 0.85400 0.70410 -0.12900
H 	H 	0.09880 0.87300 0.73500 0.06800
C 	C 	0.14990 0.85700 0.67120 0.06500
H 	H 	0.17940 0.87330 0.68480 -0.00800
C 	C 	0.15210 0.83740 0.62420 -0.17800
H 	H 	0.18160 0.84230 0.60360 0.07900
C 	C 	0.10820 0.80830 0.60450 0.14100
C 	C 	0.07070 0.72590 0.49860 0.18200
C 	C 	0.11320 0.74880 0.45980 -0.60800
H 	H 	0.13280 0.77570 0.47720 0.19900
H 	H 	0.09610 0.76340 0.42970 0.20000
H 	H 	0.13640 0.72140 0.44900 0.20300
C 	C 	0.03620 0.68450 0.48710 -0.11500
C 	C 	0.02450 0.67770 0.43210 0.03000
H 	H 	0.03910 0.69950 0.40700 0.00300
C 	C 	0.99050 0.63730 0.41810 -0.15700
H 	H 	0.97920 0.63330 0.38380 0.07700
C 	C 	0.97510 0.60520 0.45500 0.12700
C 	C 	0.98560 0.61240 0.51100 -0.14800
H 	H 	0.97100 0.58970 0.53550 0.08600
C 	C 	0.01550 0.65090 0.52620 0.04900
H 	H 	0.02310 0.65610 0.56130 -0.01300
N 	N 	0.43750 0.80190 0.36310 -0.18900
N 	N 	0.39090 0.78080 0.44090 -0.17600
H 	H 	0.36580 0.78540 0.46280 0.09600
N 	N 	0.42940 0.74600 0.45190 -0.15200
C 	C 	0.44000 0.82080 0.31360 0.05100
H 	H 	0.46790 0.81260 0.29180 -0.00800
C 	C 	0.39830 0.85400 0.29590 -0.12900
H 	H 	0.40120 0.87300 0.26500 0.06800
C 	C 	0.35010 0.85700 0.32880 0.06500
H 	H 	0.32060 0.87330 0.31520 -0.00900
C 	C 	0.34790 0.83740 0.37580 -0.17800
H 	H 	0.31840 0.84230 0.39640 0.07900
C 	C 	0.39180 0.80830 0.39550 0.14200
C 	C 	0.42930 0.72590 0.50140 0.19200
C 	C 	0.38680 0.74880 0.54020 -0.61700
H 	H 	0.36720 0.77570 0.52280 0.20200
H 	H 	0.40390 0.76340 0.57030 0.20400
H 	H 	0.36360 0.72140 0.55100 0.20600
C 	C 	0.46380 0.68450 0.51290 -0.13500
C 	C 	0.47550 0.67770 0.56790 0.06200
H 	H 	0.46090 0.69950 0.59300 -0.00700
C 	C 	0.50950 0.63730 0.58190 -0.19000
H 	H 	0.52080 0.63330 0.61620 0.08700
C 	C 	0.52490 0.60520 0.54500 0.14500
C 	C 	0.51440 0.61240 0.48900 -0.18400
H 	H 	0.52900 0.58970 0.46450 0.09600
C 	C 	0.48450 0.65090 0.47380 0.08600
H 	H 	0.47690 0.65610 0.43870 -0.02300
N 	N 	0.93750 0.30190 0.86310 -0.18700
N 	N 	0.89090 0.28080 0.94090 -0.17600
H 	H 	0.86580 0.28540 0.96280 0.09900
N 	N 	0.92940 0.24600 0.95190 -0.14700
C 	C 	0.94000 0.32080 0.81360 0.05200
H 	H 	0.96790 0.31260 0.79180 -0.00600
C 	C 	0.89830 0.35400 0.79590 -0.12900
H 	H 	0.90120 0.37300 0.76500 0.06800
C 	C 	0.85010 0.35700 0.82880 0.06600
H 	H 	0.82060 0.37330 0.81520 -0.00900
C 	C 	0.84790 0.33740 0.87580 -0.17900
H 	H 	0.81840 0.34230 0.89640 0.08000
C 	C 	0.89180 0.30830 0.89550 0.14400
C 	C 	0.92930 0.22590 0.00140 0.19400
C 	C 	0.88680 0.24880 0.04020 -0.61800
H 	H 	0.86720 0.27570 0.02280 0.19900
H 	H 	0.90390 0.26340 0.07030 0.20500
H 	H 	0.86360 0.22140 0.05100 0.20500
C 	C 	0.96380 0.18450 0.01290 -0.16000
C 	C 	0.97550 0.17770 0.06790 0.09100
H 	H 	0.96090 0.19950 0.09300 -0.01500
C 	C 	0.00950 0.13730 0.08190 -0.21800
H 	H 	0.02080 0.13330 0.11620 0.09400
C 	C 	0.02490 0.10520 0.04500 0.15500
C 	C 	0.01440 0.11240 0.98900 -0.21000
H 	H 	0.02900 0.08970 0.96450 0.10500
C 	C 	0.98450 0.15090 0.97380 0.12800
H 	H 	0.97690 0.15610 0.93870 -0.03400
N 	N 	0.93750 0.69810 0.63690 -0.18700
N 	N 	0.89090 0.71920 0.55910 -0.17600
H 	H 	0.86580 0.71460 0.53720 0.09600
N 	N 	0.92940 0.75400 0.54810 -0.15200
C 	C 	0.94000 0.67920 0.68640 0.05200
H 	H 	0.96790 0.68740 0.70820 -0.00600
C 	C 	0.89830 0.64600 0.70410 -0.12900
H 	H 	0.90120 0.62700 0.73500 0.06900
C 	C 	0.85010 0.64300 0.67120 0.06600
H 	H 	0.82060 0.62670 0.68480 -0.00900
C 	C 	0.84790 0.66260 0.62420 -0.17800
H 	H 	0.81840 0.65770 0.60360 0.07900
C 	C 	0.89180 0.69170 0.60450 0.14300
C 	C 	0.92930 0.77410 0.49860 0.20200
C 	C 	0.88680 0.75120 0.45980 -0.62700
H 	H 	0.86720 0.72430 0.47720 0.20500
H 	H 	0.90390 0.73660 0.42970 0.20800
H 	H 	0.86360 0.77860 0.44900 0.21000
C 	C 	0.96380 0.81550 0.48710 -0.15500
C 	C 	0.97550 0.82230 0.43210 0.09400
H 	H 	0.96090 0.80050 0.40700 -0.01600
C 	C 	0.00950 0.86270 0.41810 -0.22200
H 	H 	0.02080 0.86670 0.38380 0.09600
C 	C 	0.02490 0.89480 0.45500 0.16400
C 	C 	0.01440 0.88760 0.51100 -0.21900
H 	H 	0.02900 0.91030 0.53550 0.10700
C 	C 	0.98450 0.84910 0.52620 0.12400
H 	H 	0.97690 0.84390 0.56130 -0.03300
N 	N 	0.43750 0.19810 0.13690 -0.18900
N 	N 	0.39090 0.21920 0.05910 -0.17600
H 	H 	0.36580 0.21460 0.03720 0.09200
N 	N 	0.42940 0.25400 0.04810 -0.15700
C 	C 	0.44000 0.17920 0.18640 0.05000
H 	H 	0.46790 0.18740 0.20820 -0.00900
C 	C 	0.39830 0.14600 0.20410 -0.12900
H 	H 	0.40120 0.12700 0.23500 0.06600
C 	C 	0.35010 0.14300 0.17120 0.06400
H 	H 	0.32060 0.12670 0.18480 -0.00900
C 	C 	0.34790 0.16260 0.12420 -0.17700
H 	H 	0.31840 0.15770 0.10360 0.07800
C 	C 	0.39180 0.19170 0.10450 0.14000
C 	C 	0.42930 0.27410 0.99860 0.20000
C 	C 	0.38680 0.25120 0.95980 -0.62500
H 	H 	0.36720 0.22430 0.97720 0.20700
H 	H 	0.40390 0.23660 0.92970 0.20700
H 	H 	0.36360 0.27860 0.94900 0.21000
C 	C 	0.46380 0.31550 0.98710 -0.13000
C 	C 	0.47550 0.32230 0.93210 0.06300
H 	H 	0.46090 0.30050 0.90700 -0.00700
C 	C 	0.50950 0.36270 0.91810 -0.19300
H 	H 	0.52080 0.36670 0.88380 0.08800
C 	C 	0.52490 0.39480 0.95500 0.15400
C 	C 	0.51440 0.38760 0.01100 -0.19200
H 	H 	0.52900 0.41030 0.03550 0.09700
C 	C 	0.48450 0.34910 0.02620 0.08000
H 	H 	0.47690 0.34390 0.06130 -0.02300
N 	N 	0.86310 0.06250 0.19810 -0.19000
N 	N 	0.94090 0.10910 0.21920 -0.17700
H 	H 	0.96280 0.13420 0.21460 0.10000
N 	N 	0.95190 0.07060 0.25400 -0.14700
C 	C 	0.81360 0.06000 0.17920 0.05100
H 	H 	0.79180 0.03210 0.18740 -0.01100
C 	C 	0.79590 0.10170 0.14600 -0.13000
H 	H 	0.76500 0.09880 0.12700 0.06600
C 	C 	0.82880 0.14990 0.14300 0.06500
H 	H 	0.81520 0.17940 0.12670 -0.00900
C 	C 	0.87580 0.15210 0.16260 -0.17900
H 	H 	0.89640 0.18160 0.15770 0.08000
C 	C 	0.89550 0.10820 0.19170 0.14200
C 	C 	0.00140 0.07070 0.27410 0.17500
C 	C 	0.04020 0.11320 0.25120 -0.60000
H 	H 	0.02280 0.13280 0.22430 0.19400
H 	H 	0.07030 0.09610 0.23660 0.19800
H 	H 	0.05100 0.13640 0.27860 0.20000
C 	C 	0.01290 0.03620 0.31550 -0.12000
C 	C 	0.06790 0.02450 0.32230 0.03000
H 	H 	0.09300 0.03910 0.30050 0.00300
C 	C 	0.08190 0.99050 0.36270 -0.15400
H 	H 	0.11620 0.97920 0.36670 0.07600
C 	C 	0.04500 0.97510 0.39480 0.11900
C 	C 	0.98900 0.98560 0.38760 -0.13900
H 	H 	0.96450 0.97100 0.41030 0.08500
C 	C 	0.97380 0.01550 0.34910 0.05500
H 	H 	0.93870 0.02310 0.34390 -0.01300
N 	N 	0.36310 0.56250 0.69810 -0.18900
N 	N 	0.44090 0.60910 0.71920 -0.17600
H 	H 	0.46280 0.63420 0.71460 0.09600
N 	N 	0.45190 0.57060 0.75400 -0.15200
C 	C 	0.31360 0.56000 0.67920 0.05100
H 	H 	0.29180 0.53210 0.68740 -0.00900
C 	C 	0.29590 0.60170 0.64600 -0.12900
H 	H 	0.26500 0.59880 0.62700 0.06700
C 	C 	0.32880 0.64990 0.64300 0.06500
H 	H 	0.31520 0.67940 0.62670 -0.00900
C 	C 	0.37580 0.65210 0.66260 -0.17800
H 	H 	0.39640 0.68160 0.65770 0.07900
C 	C 	0.39550 0.60820 0.69170 0.14200
C 	C 	0.50140 0.57070 0.77410 0.19300
C 	C 	0.54020 0.61320 0.75120 -0.61800
H 	H 	0.52280 0.63280 0.72430 0.20200
H 	H 	0.57030 0.59610 0.73660 0.20500
H 	H 	0.55100 0.63640 0.77860 0.20700
C 	C 	0.51290 0.53620 0.81550 -0.13500
C 	C 	0.56790 0.52450 0.82230 0.06200
H 	H 	0.59300 0.53910 0.80050 -0.00700
C 	C 	0.58190 0.49050 0.86270 -0.18900
H 	H 	0.61620 0.47920 0.86670 0.08700
C 	C 	0.54500 0.47510 0.89480 0.14600
C 	C 	0.48900 0.48560 0.88760 -0.18400
H 	H 	0.46450 0.47100 0.91030 0.09700
C 	C 	0.47380 0.51550 0.84910 0.08700
H 	H 	0.43870 0.52310 0.84390 -0.02300
N 	N 	0.13690 0.56250 0.30190 -0.18900
N 	N 	0.05910 0.60910 0.28080 -0.17600
H 	H 	0.03720 0.63420 0.28540 0.09200
N 	N 	0.04810 0.57060 0.24600 -0.15700
C 	C 	0.18640 0.56000 0.32080 0.05100
H 	H 	0.20820 0.53210 0.31260 -0.00900
C 	C 	0.20410 0.60170 0.35400 -0.12900
H 	H 	0.23500 0.59880 0.37300 0.06700
C 	C 	0.17120 0.64990 0.35700 0.06400
H 	H 	0.18480 0.67940 0.37330 -0.00900
C 	C 	0.12420 0.65210 0.33740 -0.17700
H 	H 	0.10360 0.68160 0.34230 0.07800
C 	C 	0.10450 0.60820 0.30830 0.14000
C 	C 	0.99860 0.57070 0.22590 0.19900
C 	C 	0.95980 0.61320 0.24880 -0.62500
H 	H 	0.97720 0.63280 0.27570 0.20700
H 	H 	0.92970 0.59610 0.26340 0.20700
H 	H 	0.94900 0.63640 0.22140 0.20900
C 	C 	0.98710 0.53620 0.18450 -0.13000
C 	C 	0.93210 0.52450 0.17770 0.06300
H 	H 	0.90700 0.53910 0.19950 -0.00700
C 	C 	0.91810 0.49050 0.13730 -0.19300
H 	H 	0.88380 0.47920 0.13330 0.08800
C 	C 	0.95500 0.47510 0.10520 0.15300
C 	C 	0.01100 0.48560 0.11240 -0.19200
H 	H 	0.03550 0.47100 0.08970 0.09600
C 	C 	0.02620 0.51550 0.15090 0.08000
H 	H 	0.06130 0.52310 0.15610 -0.02300
N 	N 	0.63690 0.06250 0.80190 -0.19000
N 	N 	0.55910 0.10910 0.78080 -0.17700
H 	H 	0.53720 0.13420 0.78540 0.09600
N 	N 	0.54810 0.07060 0.74600 -0.15100
C 	C 	0.68640 0.06000 0.82080 0.05100
H 	H 	0.70820 0.03210 0.81260 -0.00900
C 	C 	0.70410 0.10170 0.85400 -0.12900
H 	H 	0.73500 0.09880 0.87300 0.06800
C 	C 	0.67120 0.14990 0.85700 0.06500
H 	H 	0.68480 0.17940 0.87330 -0.00800
C 	C 	0.62420 0.15210 0.83740 -0.17800
H 	H 	0.60360 0.18160 0.84230 0.07900
C 	C 	0.60450 0.10820 0.80830 0.14100
C 	C 	0.49860 0.07070 0.72590 0.18200
C 	C 	0.45980 0.11320 0.74880 -0.60800
H 	H 	0.47720 0.13280 0.77570 0.19900
H 	H 	0.42970 0.09610 0.76340 0.20000
H 	H 	0.44900 0.13640 0.72140 0.20300
C 	C 	0.48710 0.03620 0.68450 -0.11500
C 	C 	0.43210 0.02450 0.67770 0.03000
H 	H 	0.40700 0.03910 0.69950 0.00300
C 	C 	0.41810 0.99050 0.63730 -0.15700
H 	H 	0.38380 0.97920 0.63330 0.07700
C 	C 	0.45500 0.97510 0.60520 0.12700
C 	C 	0.51100 0.98560 0.61240 -0.14800
H 	H 	0.53550 0.97100 0.58970 0.08600
C 	C 	0.52620 0.01550 0.65090 0.04900
H 	H 	0.56130 0.02310 0.65610 -0.01300
N 	N 	0.36310 0.43750 0.80190 -0.18900
N 	N 	0.44090 0.39090 0.78080 -0.17600
H 	H 	0.46280 0.36580 0.78540 0.09600
N 	N 	0.45190 0.42940 0.74600 -0.15200
C 	C 	0.31360 0.44000 0.82080 0.05100
H 	H 	0.29180 0.46790 0.81260 -0.00800
C 	C 	0.29590 0.39830 0.85400 -0.12900
H 	H 	0.26500 0.40120 0.87300 0.06800
C 	C 	0.32880 0.35010 0.85700 0.06500
H 	H 	0.31520 0.32060 0.87330 -0.00900
C 	C 	0.37580 0.34790 0.83740 -0.17800
H 	H 	0.39640 0.31840 0.84230 0.07900
C 	C 	0.39550 0.39180 0.80830 0.14200
C 	C 	0.50140 0.42930 0.72590 0.19200
C 	C 	0.54020 0.38680 0.74880 -0.61700
H 	H 	0.52280 0.36720 0.77570 0.20200
H 	H 	0.57030 0.40390 0.76340 0.20400
H 	H 	0.55100 0.36360 0.72140 0.20600
C 	C 	0.51290 0.46380 0.68450 -0.13500
C 	C 	0.56790 0.47550 0.67770 0.06200
H 	H 	0.59300 0.46090 0.69950 -0.00700
C 	C 	0.58190 0.50950 0.63730 -0.19000
H 	H 	0.61620 0.52080 0.63330 0.08700
C 	C 	0.54500 0.52490 0.60520 0.14500
C 	C 	0.48900 0.51440 0.61240 -0.18400
H 	H 	0.46450 0.52900 0.58970 0.09600
C 	C 	0.47380 0.48450 0.65090 0.08600
H 	H 	0.43870 0.47690 0.65610 -0.02300
N 	N 	0.86310 0.93750 0.30190 -0.18700
N 	N 	0.94090 0.89090 0.28080 -0.17600
H 	H 	0.96280 0.86580 0.28540 0.09900
N 	N 	0.95190 0.92940 0.24600 -0.14700
C 	C 	0.81360 0.94000 0.32080 0.05200
H 	H 	0.79180 0.96790 0.31260 -0.00600
C 	C 	0.79590 0.89830 0.35400 -0.12900
H 	H 	0.76500 0.90120 0.37300 0.06800
C 	C 	0.82880 0.85010 0.35700 0.06600
H 	H 	0.81520 0.82060 0.37330 -0.00900
C 	C 	0.87580 0.84790 0.33740 -0.17900
H 	H 	0.89640 0.81840 0.34230 0.08000
C 	C 	0.89550 0.89180 0.30830 0.14400
C 	C 	0.00140 0.92930 0.22590 0.19400
C 	C 	0.04020 0.88680 0.24880 -0.61800
H 	H 	0.02280 0.86720 0.27570 0.19900
H 	H 	0.07030 0.90390 0.26340 0.20500
H 	H 	0.05100 0.86360 0.22140 0.20500
C 	C 	0.01290 0.96380 0.18450 -0.16000
C 	C 	0.06790 0.97550 0.17770 0.09100
H 	H 	0.09300 0.96090 0.19950 -0.01500
C 	C 	0.08190 0.00950 0.13730 -0.21800
H 	H 	0.11620 0.02080 0.13330 0.09400
C 	C 	0.04500 0.02490 0.10520 0.15500
C 	C 	0.98900 0.01440 0.11240 -0.21000
H 	H 	0.96450 0.02900 0.08970 0.10500
C 	C 	0.97380 0.98450 0.15090 0.12800
H 	H 	0.93870 0.97690 0.15610 -0.03400
N 	N 	0.63690 0.93750 0.69810 -0.18700
N 	N 	0.55910 0.89090 0.71920 -0.17600
H 	H 	0.53720 0.86580 0.71460 0.09600
N 	N 	0.54810 0.92940 0.75400 -0.15200
C 	C 	0.68640 0.94000 0.67920 0.05200
H 	H 	0.70820 0.96790 0.68740 -0.00600
C 	C 	0.70410 0.89830 0.64600 -0.12900
H 	H 	0.73500 0.90120 0.62700 0.06900
C 	C 	0.67120 0.85010 0.64300 0.06600
H 	H 	0.68480 0.82060 0.62670 -0.00900
C 	C 	0.62420 0.84790 0.66260 -0.17800
H 	H 	0.60360 0.81840 0.65770 0.07900
C 	C 	0.60450 0.89180 0.69170 0.14300
C 	C 	0.49860 0.92930 0.77410 0.20200
C 	C 	0.45980 0.88680 0.75120 -0.62700
H 	H 	0.47720 0.86720 0.72430 0.20500
H 	H 	0.42970 0.90390 0.73660 0.20800
H 	H 	0.44900 0.86360 0.77860 0.21000
C 	C 	0.48710 0.96380 0.81550 -0.15500
C 	C 	0.43210 0.97550 0.82230 0.09400
H 	H 	0.40700 0.96090 0.80050 -0.01600
C 	C 	0.41810 0.00950 0.86270 -0.22200
H 	H 	0.38380 0.02080 0.86670 0.09600
C 	C 	0.45500 0.02490 0.89480 0.16400
C 	C 	0.51100 0.01440 0.88760 -0.21900
H 	H 	0.53550 0.02900 0.91030 0.10700
C 	C 	0.52620 0.98450 0.84910 0.12400
H 	H 	0.56130 0.97690 0.84390 -0.03300
N 	N 	0.13690 0.43750 0.19810 -0.18900
N 	N 	0.05910 0.39090 0.21920 -0.17600
H 	H 	0.03720 0.36580 0.21460 0.09200
N 	N 	0.04810 0.42940 0.25400 -0.15700
C 	C 	0.18640 0.44000 0.17920 0.05000
H 	H 	0.20820 0.46790 0.18740 -0.00900
C 	C 	0.20410 0.39830 0.14600 -0.12900
H 	H 	0.23500 0.40120 0.12700 0.06600
C 	C 	0.17120 0.35010 0.14300 0.06400
H 	H 	0.18480 0.32060 0.12670 -0.00900
C 	C 	0.12420 0.34790 0.16260 -0.17700
H 	H 	0.10360 0.31840 0.15770 0.07800
C 	C 	0.10450 0.39180 0.19170 0.14000
C 	C 	0.99860 0.42930 0.27410 0.20000
C 	C 	0.95980 0.38680 0.25120 -0.62500
H 	H 	0.97720 0.36720 0.22430 0.20700
H 	H 	0.92970 0.40390 0.23660 0.20700
H 	H 	0.94900 0.36360 0.27860 0.21000
C 	C 	0.98710 0.46380 0.31550 -0.13000
C 	C 	0.93210 0.47550 0.32230 0.06300
H 	H 	0.90700 0.46090 0.30050 -0.00700
C 	C 	0.91810 0.50950 0.36270 -0.19300
H 	H 	0.88380 0.52080 0.36670 0.08800
C 	C 	0.95500 0.52490 0.39480 0.15400
C 	C 	0.01100 0.51440 0.38760 -0.19200
H 	H 	0.03550 0.52900 0.41030 0.09700
C 	C 	0.02620 0.48450 0.34910 0.08000
H 	H 	0.06130 0.47690 0.34390 -0.02300
Ag	Ag	0.25000 0.89133 -0.00000 0.54200
Ag	Ag	0.25000 0.10867 0.50000 0.54500
Ag	Ag	0.75000 0.39133 0.50000 0.54600
Ag	Ag	0.75000 0.60867 -0.00000 0.54200
Ag	Ag	-0.00000 0.25000 0.89133 0.54200
Ag	Ag	0.50000 0.25000 0.10867 0.54500
Ag	Ag	0.50000 0.75000 0.39133 0.54600
Ag	Ag	-0.00000 0.75000 0.60867 0.54200
Ag	Ag	0.89133 -0.00000 0.25000 0.54200
Ag	Ag	0.10867 0.50000 0.25000 0.54500
Ag	Ag	0.39133 0.50000 0.75000 0.54600
Ag	Ag	0.60867 -0.00000 0.75000 0.54200
N 	N 	0.44040 0.05960 0.94040 -0.16700
N 	N 	0.94040 0.55960 0.44040 -0.16500
N 	N 	0.05960 0.94040 0.44040 -0.16700
N 	N 	0.55960 0.44040 0.94040 -0.16500
N 	N 	0.55960 0.55960 0.55960 -0.16700
N 	N 	0.05960 0.05960 0.05960 -0.17300
N 	N 	0.94040 0.44040 0.05960 -0.16700
N 	N 	0.44040 0.94040 0.55960 -0.16500
