data_crystal

_cell_length_a 25.36900
_cell_length_b 25.36900
_cell_length_c 25.36900
_cell_angle_alpha 90.00000
_cell_angle_beta  90.00000
_cell_angle_gamma 90.00000

_symmetry_space_group_name_	'P 1'
_symmetry_space_group_name_H-M	'P 1'

loop_
_symmetry_equiv_pos_as_xyz
  x,y,z

loop_
_atom_site_label
_atom_site_type_symbol
_atom_site_fract_x
_atom_site_fract_y
_atom_site_fract_z
_atom_site_charge
N 	N 	0.36140 0.06390 0.30510 -0.20700
N 	N 	0.43690 0.10800 0.28490 -0.19100
H 	H 	0.45970 0.13200 0.29230 0.09200
N 	N 	0.44930 0.07220 0.24790 -0.16900
C 	C 	0.31290 0.06300 0.32650 0.08600
H 	H 	0.29100 0.03430 0.31970 -0.02400
C 	C 	0.29430 0.10350 0.35850 -0.18200
H 	H 	0.26290 0.10030 0.37710 0.08200
C 	C 	0.32530 0.14980 0.36130 0.11900
H 	H 	0.31260 0.17990 0.37790 -0.03300
C 	C 	0.37310 0.14930 0.33970 -0.23900
H 	H 	0.39480 0.17840 0.34500 0.09600
C 	C 	0.39220 0.10830 0.31020 0.18800
C 	C 	0.49940 0.07150 0.22980 0.27700
C 	C 	0.53860 0.10830 0.25460 -0.75600
H 	H 	0.52150 0.12860 0.28160 0.23900
H 	H 	0.55240 0.13160 0.22820 0.24400
H 	H 	0.56680 0.08830 0.26990 0.24300
C 	C 	0.51270 0.03830 0.18660 -0.23700
C 	C 	0.56380 0.02330 0.17750 0.14600
H 	H 	0.59000 0.03350 0.20110 -0.04100
C 	C 	0.57750 0.99320 0.13380 -0.26800
H 	H 	0.61260 0.98510 0.12690 0.11100
C 	C 	0.53990 0.97630 0.10250 0.21600
C 	C 	0.48720 0.98850 0.11160 -0.28400
H 	H 	0.46090 0.97620 0.08920 0.12900
C 	C 	0.47590 0.01760 0.15230 0.18600
H 	H 	0.44060 0.02500 0.15880 -0.06000
N 	N 	0.86140 0.56390 0.80510 -0.20500
N 	N 	0.93690 0.60800 0.78490 -0.18900
H 	H 	0.95970 0.63200 0.79230 0.09400
N 	N 	0.94930 0.57220 0.74790 -0.17300
C 	C 	0.81290 0.56300 0.82650 0.08800
H 	H 	0.79100 0.53430 0.81970 -0.02100
C 	C 	0.79430 0.60350 0.85850 -0.18000
H 	H 	0.76290 0.60030 0.87710 0.08500
C 	C 	0.82530 0.64980 0.86130 0.12200
H 	H 	0.81260 0.67990 0.87790 -0.03100
C 	C 	0.87310 0.64930 0.83970 -0.23800
H 	H 	0.89480 0.67840 0.84500 0.09800
C 	C 	0.89220 0.60830 0.81020 0.19100
C 	C 	0.99940 0.57150 0.72980 0.31900
C 	C 	0.03860 0.60830 0.75460 -0.80600
H 	H 	0.02150 0.62860 0.78160 0.25300
H 	H 	0.05240 0.63160 0.72820 0.26000
H 	H 	0.06680 0.58830 0.76990 0.26000
C 	C 	0.01270 0.53830 0.68660 -0.29700
C 	C 	0.06380 0.52330 0.67750 0.20100
H 	H 	0.09000 0.53350 0.70110 -0.05900
C 	C 	0.07750 0.49320 0.63380 -0.31700
H 	H 	0.11260 0.48510 0.62690 0.12600
C 	C 	0.03990 0.47630 0.60250 0.24400
C 	C 	0.98720 0.48850 0.61160 -0.33500
H 	H 	0.96090 0.47620 0.58920 0.14800
C 	C 	0.97590 0.51760 0.65230 0.25600
H 	H 	0.94060 0.52500 0.65880 -0.08100
N 	N 	0.13860 0.93610 0.80510 -0.20400
N 	N 	0.06310 0.89200 0.78490 -0.18900
H 	H 	0.04030 0.86800 0.79230 0.09100
N 	N 	0.05070 0.92780 0.74790 -0.16800
C 	C 	0.18710 0.93700 0.82650 0.08800
H 	H 	0.20900 0.96570 0.81970 -0.02000
C 	C 	0.20570 0.89650 0.85850 -0.17900
H 	H 	0.23710 0.89970 0.87710 0.08500
C 	C 	0.17470 0.85020 0.86130 0.12100
H 	H 	0.18740 0.82010 0.87790 -0.03100
C 	C 	0.12690 0.85070 0.83970 -0.23700
H 	H 	0.10520 0.82160 0.84500 0.09700
C 	C 	0.10780 0.89170 0.81020 0.19000
C 	C 	0.00060 0.92850 0.72980 0.28300
C 	C 	0.96140 0.89170 0.75460 -0.75700
H 	H 	0.97850 0.87140 0.78160 0.24400
H 	H 	0.94760 0.86840 0.72820 0.24800
H 	H 	0.93320 0.91170 0.76990 0.24800
C 	C 	0.98730 0.96170 0.68660 -0.26500
C 	C 	0.93620 0.97670 0.67750 0.20100
H 	H 	0.91000 0.96650 0.70110 -0.05600
C 	C 	0.92250 0.00680 0.63380 -0.32800
H 	H 	0.88740 0.01490 0.62690 0.12800
C 	C 	0.96010 0.02370 0.60250 0.26100
C 	C 	0.01280 0.01150 0.61160 -0.35700
H 	H 	0.03910 0.02380 0.58920 0.15100
C 	C 	0.02410 0.98240 0.65230 0.24700
H 	H 	0.05940 0.97500 0.65880 -0.07700
N 	N 	0.63860 0.43610 0.30510 -0.20600
N 	N 	0.56310 0.39200 0.28490 -0.19000
H 	H 	0.54030 0.36800 0.29230 0.09300
N 	N 	0.55070 0.42780 0.24790 -0.17000
C 	C 	0.68710 0.43700 0.32650 0.08700
H 	H 	0.70900 0.46570 0.31970 -0.02100
C 	C 	0.70570 0.39650 0.35850 -0.18000
H 	H 	0.73710 0.39970 0.37710 0.08400
C 	C 	0.67470 0.35020 0.36130 0.12100
H 	H 	0.68740 0.32010 0.37790 -0.03200
C 	C 	0.62690 0.35070 0.33970 -0.23800
H 	H 	0.60520 0.32160 0.34500 0.09700
C 	C 	0.60780 0.39170 0.31020 0.19000
C 	C 	0.50060 0.42850 0.22980 0.29300
C 	C 	0.46140 0.39170 0.25460 -0.77200
H 	H 	0.47850 0.37140 0.28160 0.24500
H 	H 	0.44760 0.36840 0.22820 0.25000
H 	H 	0.43320 0.41170 0.26990 0.25000
C 	C 	0.48730 0.46170 0.18660 -0.26700
C 	C 	0.43620 0.47670 0.17750 0.18300
H 	H 	0.41000 0.46650 0.20110 -0.05200
C 	C 	0.42250 0.50680 0.13380 -0.30500
H 	H 	0.38740 0.51490 0.12690 0.12200
C 	C 	0.46010 0.52370 0.10250 0.24000
C 	C 	0.51280 0.51150 0.11160 -0.32600
H 	H 	0.53910 0.52380 0.08920 0.14200
C 	C 	0.52410 0.48240 0.15230 0.22900
H 	H 	0.55940 0.47500 0.15880 -0.07300
N 	N 	0.63860 0.56390 0.19490 -0.20600
N 	N 	0.56310 0.60800 0.21510 -0.19000
H 	H 	0.54030 0.63200 0.20770 0.09300
N 	N 	0.55070 0.57220 0.25210 -0.17000
C 	C 	0.68710 0.56300 0.17350 0.08700
H 	H 	0.70900 0.53430 0.18030 -0.02200
C 	C 	0.70570 0.60350 0.14150 -0.18000
H 	H 	0.73710 0.60030 0.12290 0.08300
C 	C 	0.67470 0.64980 0.13870 0.12100
H 	H 	0.68740 0.67990 0.12210 -0.03200
C 	C 	0.62690 0.64930 0.16030 -0.23800
H 	H 	0.60520 0.67840 0.15500 0.09700
C 	C 	0.60780 0.60830 0.18980 0.19000
C 	C 	0.50060 0.57150 0.27020 0.29200
C 	C 	0.46140 0.60830 0.24540 -0.77100
H 	H 	0.47850 0.62860 0.21840 0.24500
H 	H 	0.44760 0.63160 0.27180 0.25000
H 	H 	0.43320 0.58830 0.23010 0.25000
C 	C 	0.48730 0.53830 0.31340 -0.26600
C 	C 	0.43620 0.52330 0.32250 0.18200
H 	H 	0.41000 0.53350 0.29890 -0.05200
C 	C 	0.42250 0.49320 0.36620 -0.30400
H 	H 	0.38740 0.48510 0.37310 0.12200
C 	C 	0.46010 0.47630 0.39750 0.24000
C 	C 	0.51280 0.48850 0.38840 -0.32500
H 	H 	0.53910 0.47620 0.41080 0.14300
C 	C 	0.52410 0.51760 0.34770 0.22900
H 	H 	0.55940 0.52500 0.34120 -0.07300
N 	N 	0.13860 0.06390 0.69490 -0.20600
N 	N 	0.06310 0.10800 0.71510 -0.19100
H 	H 	0.04030 0.13200 0.70770 0.09300
N 	N 	0.05070 0.07220 0.75210 -0.16400
C 	C 	0.18710 0.06300 0.67350 0.08700
H 	H 	0.20900 0.03430 0.68030 -0.02300
C 	C 	0.20570 0.10350 0.64150 -0.18000
H 	H 	0.23710 0.10030 0.62290 0.08300
C 	C 	0.17470 0.14980 0.63870 0.12000
H 	H 	0.18740 0.17990 0.62210 -0.03200
C 	C 	0.12690 0.14930 0.66030 -0.23700
H 	H 	0.10520 0.17840 0.65500 0.09600
C 	C 	0.10780 0.10830 0.68980 0.18900
C 	C 	0.00060 0.07150 0.77020 0.25200
C 	C 	0.96140 0.10830 0.74540 -0.72100
H 	H 	0.97850 0.12860 0.71840 0.23300
H 	H 	0.94760 0.13160 0.77180 0.23700
H 	H 	0.93320 0.08830 0.73010 0.23500
C 	C 	0.98730 0.03830 0.81340 -0.20500
C 	C 	0.93620 0.02330 0.82250 0.12700
H 	H 	0.91000 0.03350 0.79890 -0.03400
C 	C 	0.92250 0.99320 0.86620 -0.25400
H 	H 	0.88740 0.98510 0.87310 0.10700
C 	C 	0.96010 0.97630 0.89750 0.21100
C 	C 	0.01280 0.98850 0.88840 -0.27200
H 	H 	0.03910 0.97620 0.91080 0.12500
C 	C 	0.02410 0.01760 0.84770 0.15900
H 	H 	0.05940 0.02500 0.84120 -0.05100
N 	N 	0.86140 0.43610 0.69490 -0.20500
N 	N 	0.93690 0.39200 0.71510 -0.18900
H 	H 	0.95970 0.36800 0.70770 0.09400
N 	N 	0.94930 0.42780 0.75210 -0.17300
C 	C 	0.81290 0.43700 0.67350 0.08800
H 	H 	0.79100 0.46570 0.68030 -0.02100
C 	C 	0.79430 0.39650 0.64150 -0.18000
H 	H 	0.76290 0.39970 0.62290 0.08400
C 	C 	0.82530 0.35020 0.63870 0.12200
H 	H 	0.81260 0.32010 0.62210 -0.03200
C 	C 	0.87310 0.35070 0.66030 -0.23800
H 	H 	0.89480 0.32160 0.65500 0.09800
C 	C 	0.89220 0.39170 0.68980 0.19100
C 	C 	0.99940 0.42850 0.77020 0.31900
C 	C 	0.03860 0.39170 0.74540 -0.80600
H 	H 	0.02150 0.37140 0.71840 0.25300
H 	H 	0.05240 0.36840 0.77180 0.26000
H 	H 	0.06680 0.41170 0.73010 0.26000
C 	C 	0.01270 0.46170 0.81340 -0.29700
C 	C 	0.06380 0.47670 0.82250 0.20100
H 	H 	0.09000 0.46650 0.79890 -0.05900
C 	C 	0.07750 0.50680 0.86620 -0.31700
H 	H 	0.11260 0.51490 0.87310 0.12600
C 	C 	0.03990 0.52370 0.89750 0.24400
C 	C 	0.98720 0.51150 0.88840 -0.33500
H 	H 	0.96090 0.52380 0.91080 0.14900
C 	C 	0.97590 0.48240 0.84770 0.25600
H 	H 	0.94060 0.47500 0.84120 -0.08100
N 	N 	0.36140 0.93610 0.19490 -0.20400
N 	N 	0.43690 0.89200 0.21510 -0.18900
H 	H 	0.45970 0.86800 0.20770 0.09200
N 	N 	0.44930 0.92780 0.25210 -0.17100
C 	C 	0.31290 0.93700 0.17350 0.08800
H 	H 	0.29100 0.96570 0.18030 -0.02100
C 	C 	0.29430 0.89650 0.14150 -0.18000
H 	H 	0.26290 0.89970 0.12290 0.08300
C 	C 	0.32530 0.85020 0.13870 0.12100
H 	H 	0.31260 0.82010 0.12210 -0.03300
C 	C 	0.37310 0.85070 0.16030 -0.23800
H 	H 	0.39480 0.82160 0.15500 0.09700
C 	C 	0.39220 0.89170 0.18980 0.19100
C 	C 	0.49940 0.92850 0.27020 0.30700
C 	C 	0.53860 0.89170 0.24540 -0.78900
H 	H 	0.52150 0.87140 0.21840 0.25000
H 	H 	0.55240 0.86840 0.27180 0.25600
H 	H 	0.56680 0.91170 0.23010 0.25600
C 	C 	0.51270 0.96170 0.31340 -0.29400
C 	C 	0.56380 0.97670 0.32250 0.21900
H 	H 	0.59000 0.96650 0.29890 -0.06300
C 	C 	0.57750 0.00680 0.36620 -0.34100
H 	H 	0.61260 0.01490 0.37310 0.13200
C 	C 	0.53990 0.02370 0.39750 0.26400
C 	C 	0.48720 0.01150 0.38840 -0.36600
H 	H 	0.46090 0.02380 0.41080 0.15600
C 	C 	0.47590 0.98240 0.34770 0.27200
H 	H 	0.44060 0.97500 0.34120 -0.08500
N 	N 	0.30510 0.36140 0.06390 -0.20600
N 	N 	0.28490 0.43690 0.10800 -0.19000
H 	H 	0.29230 0.45970 0.13200 0.09300
N 	N 	0.24790 0.44930 0.07220 -0.16800
C 	C 	0.32650 0.31290 0.06300 0.08700
H 	H 	0.31970 0.29100 0.03430 -0.02300
C 	C 	0.35850 0.29430 0.10350 -0.18100
H 	H 	0.37710 0.26290 0.10030 0.08300
C 	C 	0.36130 0.32530 0.14980 0.12000
H 	H 	0.37790 0.31260 0.17990 -0.03200
C 	C 	0.33970 0.37310 0.14930 -0.23800
H 	H 	0.34500 0.39480 0.17840 0.09700
C 	C 	0.31020 0.39220 0.10830 0.18900
C 	C 	0.22980 0.49940 0.07150 0.27800
C 	C 	0.25460 0.53860 0.10830 -0.75500
H 	H 	0.28160 0.52150 0.12860 0.24000
H 	H 	0.22820 0.55240 0.13160 0.24500
H 	H 	0.26990 0.56680 0.08830 0.24400
C 	C 	0.18660 0.51270 0.03830 -0.23700
C 	C 	0.17750 0.56380 0.02330 0.14600
H 	H 	0.20110 0.59000 0.03350 -0.04100
C 	C 	0.13380 0.57750 0.99320 -0.26800
H 	H 	0.12690 0.61260 0.98510 0.11100
C 	C 	0.10250 0.53990 0.97630 0.21600
C 	C 	0.11160 0.48720 0.98850 -0.28400
H 	H 	0.08920 0.46090 0.97620 0.12900
C 	C 	0.15230 0.47590 0.01760 0.18600
H 	H 	0.15880 0.44060 0.02500 -0.06000
N 	N 	0.80510 0.86140 0.56390 -0.20500
N 	N 	0.78490 0.93690 0.60800 -0.18900
H 	H 	0.79230 0.95970 0.63200 0.09400
N 	N 	0.74790 0.94930 0.57220 -0.17300
C 	C 	0.82650 0.81290 0.56300 0.08800
H 	H 	0.81970 0.79100 0.53430 -0.02100
C 	C 	0.85850 0.79430 0.60350 -0.18000
H 	H 	0.87710 0.76290 0.60030 0.08500
C 	C 	0.86130 0.82530 0.64980 0.12200
H 	H 	0.87790 0.81260 0.67990 -0.03100
C 	C 	0.83970 0.87310 0.64930 -0.23800
H 	H 	0.84500 0.89480 0.67840 0.09800
C 	C 	0.81020 0.89220 0.60830 0.19100
C 	C 	0.72980 0.99940 0.57150 0.31900
C 	C 	0.75460 0.03860 0.60830 -0.80600
H 	H 	0.78160 0.02150 0.62860 0.25300
H 	H 	0.72820 0.05240 0.63160 0.26000
H 	H 	0.76990 0.06680 0.58830 0.26000
C 	C 	0.68660 0.01270 0.53830 -0.29700
C 	C 	0.67750 0.06380 0.52330 0.20100
H 	H 	0.70110 0.09000 0.53350 -0.05900
C 	C 	0.63380 0.07750 0.49320 -0.31700
H 	H 	0.62690 0.11260 0.48510 0.12600
C 	C 	0.60250 0.03990 0.47630 0.24400
C 	C 	0.61160 0.98720 0.48850 -0.33500
H 	H 	0.58920 0.96090 0.47620 0.14800
C 	C 	0.65230 0.97590 0.51760 0.25600
H 	H 	0.65880 0.94060 0.52500 -0.08100
N 	N 	0.80510 0.13860 0.93610 -0.20400
N 	N 	0.78490 0.06310 0.89200 -0.18900
H 	H 	0.79230 0.04030 0.86800 0.09100
N 	N 	0.74790 0.05070 0.92780 -0.16800
C 	C 	0.82650 0.18710 0.93700 0.08800
H 	H 	0.81970 0.20900 0.96570 -0.02000
C 	C 	0.85850 0.20570 0.89650 -0.17900
H 	H 	0.87710 0.23710 0.89970 0.08500
C 	C 	0.86130 0.17470 0.85020 0.12100
H 	H 	0.87790 0.18740 0.82010 -0.03100
C 	C 	0.83970 0.12690 0.85070 -0.23700
H 	H 	0.84500 0.10520 0.82160 0.09700
C 	C 	0.81020 0.10780 0.89170 0.19000
C 	C 	0.72980 0.00060 0.92850 0.28300
C 	C 	0.75460 0.96140 0.89170 -0.75700
H 	H 	0.78160 0.97850 0.87140 0.24400
H 	H 	0.72820 0.94760 0.86840 0.24800
H 	H 	0.76990 0.93320 0.91170 0.24800
C 	C 	0.68660 0.98730 0.96170 -0.26500
C 	C 	0.67750 0.93620 0.97670 0.20100
H 	H 	0.70110 0.91000 0.96650 -0.05600
C 	C 	0.63380 0.92250 0.00680 -0.32800
H 	H 	0.62690 0.88740 0.01490 0.12800
C 	C 	0.60250 0.96010 0.02370 0.26100
C 	C 	0.61160 0.01280 0.01150 -0.35700
H 	H 	0.58920 0.03910 0.02380 0.15100
C 	C 	0.65230 0.02410 0.98240 0.24700
H 	H 	0.65880 0.05940 0.97500 -0.07700
N 	N 	0.30510 0.63860 0.43610 -0.20600
N 	N 	0.28490 0.56310 0.39200 -0.19000
H 	H 	0.29230 0.54030 0.36800 0.09300
N 	N 	0.24790 0.55070 0.42780 -0.17000
C 	C 	0.32650 0.68710 0.43700 0.08700
H 	H 	0.31970 0.70900 0.46570 -0.02100
C 	C 	0.35850 0.70570 0.39650 -0.18000
H 	H 	0.37710 0.73710 0.39970 0.08400
C 	C 	0.36130 0.67470 0.35020 0.12100
H 	H 	0.37790 0.68740 0.32010 -0.03200
C 	C 	0.33970 0.62690 0.35070 -0.23800
H 	H 	0.34500 0.60520 0.32160 0.09700
C 	C 	0.31020 0.60780 0.39170 0.19000
C 	C 	0.22980 0.50060 0.42850 0.29300
C 	C 	0.25460 0.46140 0.39170 -0.77200
H 	H 	0.28160 0.47850 0.37140 0.24500
H 	H 	0.22820 0.44760 0.36840 0.25000
H 	H 	0.26990 0.43320 0.41170 0.25000
C 	C 	0.18660 0.48730 0.46170 -0.26700
C 	C 	0.17750 0.43620 0.47670 0.18300
H 	H 	0.20110 0.41000 0.46650 -0.05200
C 	C 	0.13380 0.42250 0.50680 -0.30500
H 	H 	0.12690 0.38740 0.51490 0.12200
C 	C 	0.10250 0.46010 0.52370 0.24000
C 	C 	0.11160 0.51280 0.51150 -0.32600
H 	H 	0.08920 0.53910 0.52380 0.14200
C 	C 	0.15230 0.52410 0.48240 0.22900
H 	H 	0.15880 0.55940 0.47500 -0.07300
N 	N 	0.19490 0.63860 0.56390 -0.20600
N 	N 	0.21510 0.56310 0.60800 -0.19000
H 	H 	0.20770 0.54030 0.63200 0.09300
N 	N 	0.25210 0.55070 0.57220 -0.17000
C 	C 	0.17350 0.68710 0.56300 0.08700
H 	H 	0.18030 0.70900 0.53430 -0.02200
C 	C 	0.14150 0.70570 0.60350 -0.18000
H 	H 	0.12290 0.73710 0.60030 0.08300
C 	C 	0.13870 0.67470 0.64980 0.12100
H 	H 	0.12210 0.68740 0.67990 -0.03200
C 	C 	0.16030 0.62690 0.64930 -0.23800
H 	H 	0.15500 0.60520 0.67840 0.09700
C 	C 	0.18980 0.60780 0.60830 0.19000
C 	C 	0.27020 0.50060 0.57150 0.29200
C 	C 	0.24540 0.46140 0.60830 -0.77100
H 	H 	0.21840 0.47850 0.62860 0.24500
H 	H 	0.27180 0.44760 0.63160 0.25000
H 	H 	0.23010 0.43320 0.58830 0.25000
C 	C 	0.31340 0.48730 0.53830 -0.26600
C 	C 	0.32250 0.43620 0.52330 0.18200
H 	H 	0.29890 0.41000 0.53350 -0.05200
C 	C 	0.36620 0.42250 0.49320 -0.30400
H 	H 	0.37310 0.38740 0.48510 0.12200
C 	C 	0.39750 0.46010 0.47630 0.24000
C 	C 	0.38840 0.51280 0.48850 -0.32500
H 	H 	0.41080 0.53910 0.47620 0.14300
C 	C 	0.34770 0.52410 0.51760 0.22900
H 	H 	0.34120 0.55940 0.52500 -0.07300
N 	N 	0.69490 0.13860 0.06390 -0.20600
N 	N 	0.71510 0.06310 0.10800 -0.19100
H 	H 	0.70770 0.04030 0.13200 0.09300
N 	N 	0.75210 0.05070 0.07220 -0.16400
C 	C 	0.67350 0.18710 0.06300 0.08700
H 	H 	0.68030 0.20900 0.03430 -0.02300
C 	C 	0.64150 0.20570 0.10350 -0.18000
H 	H 	0.62290 0.23710 0.10030 0.08300
C 	C 	0.63870 0.17470 0.14980 0.12000
H 	H 	0.62210 0.18740 0.17990 -0.03200
C 	C 	0.66030 0.12690 0.14930 -0.23700
H 	H 	0.65500 0.10520 0.17840 0.09600
C 	C 	0.68980 0.10780 0.10830 0.18900
C 	C 	0.77020 0.00060 0.07150 0.25200
C 	C 	0.74540 0.96140 0.10830 -0.72100
H 	H 	0.71840 0.97850 0.12860 0.23300
H 	H 	0.77180 0.94760 0.13160 0.23700
H 	H 	0.73010 0.93320 0.08830 0.23500
C 	C 	0.81340 0.98730 0.03830 -0.20500
C 	C 	0.82250 0.93620 0.02330 0.12700
H 	H 	0.79890 0.91000 0.03350 -0.03400
C 	C 	0.86620 0.92250 0.99320 -0.25400
H 	H 	0.87310 0.88740 0.98510 0.10700
C 	C 	0.89750 0.96010 0.97630 0.21100
C 	C 	0.88840 0.01280 0.98850 -0.27200
H 	H 	0.91080 0.03910 0.97620 0.12500
C 	C 	0.84770 0.02410 0.01760 0.15900
H 	H 	0.84120 0.05940 0.02500 -0.05100
N 	N 	0.69490 0.86140 0.43610 -0.20500
N 	N 	0.71510 0.93690 0.39200 -0.18900
H 	H 	0.70770 0.95970 0.36800 0.09400
N 	N 	0.75210 0.94930 0.42780 -0.17300
C 	C 	0.67350 0.81290 0.43700 0.08800
H 	H 	0.68030 0.79100 0.46570 -0.02100
C 	C 	0.64150 0.79430 0.39650 -0.18000
H 	H 	0.62290 0.76290 0.39970 0.08400
C 	C 	0.63870 0.82530 0.35020 0.12200
H 	H 	0.62210 0.81260 0.32010 -0.03200
C 	C 	0.66030 0.87310 0.35070 -0.23800
H 	H 	0.65500 0.89480 0.32160 0.09800
C 	C 	0.68980 0.89220 0.39170 0.19100
C 	C 	0.77020 0.99940 0.42850 0.31900
C 	C 	0.74540 0.03860 0.39170 -0.80600
H 	H 	0.71840 0.02150 0.37140 0.25300
H 	H 	0.77180 0.05240 0.36840 0.26000
H 	H 	0.73010 0.06680 0.41170 0.26000
C 	C 	0.81340 0.01270 0.46170 -0.29700
C 	C 	0.82250 0.06380 0.47670 0.20100
H 	H 	0.79890 0.09000 0.46650 -0.05900
C 	C 	0.86620 0.07750 0.50680 -0.31700
H 	H 	0.87310 0.11260 0.51490 0.12600
C 	C 	0.89750 0.03990 0.52370 0.24400
C 	C 	0.88840 0.98720 0.51150 -0.33500
H 	H 	0.91080 0.96090 0.52380 0.14900
C 	C 	0.84770 0.97590 0.48240 0.25600
H 	H 	0.84120 0.94060 0.47500 -0.08100
N 	N 	0.19490 0.36140 0.93610 -0.20400
N 	N 	0.21510 0.43690 0.89200 -0.18900
H 	H 	0.20770 0.45970 0.86800 0.09200
N 	N 	0.25210 0.44930 0.92780 -0.17100
C 	C 	0.17350 0.31290 0.93700 0.08800
H 	H 	0.18030 0.29100 0.96570 -0.02100
C 	C 	0.14150 0.29430 0.89650 -0.18000
H 	H 	0.12290 0.26290 0.89970 0.08300
C 	C 	0.13870 0.32530 0.85020 0.12100
H 	H 	0.12210 0.31260 0.82010 -0.03300
C 	C 	0.16030 0.37310 0.85070 -0.23800
H 	H 	0.15500 0.39480 0.82160 0.09700
C 	C 	0.18980 0.39220 0.89170 0.19100
C 	C 	0.27020 0.49940 0.92850 0.30700
C 	C 	0.24540 0.53860 0.89170 -0.78900
H 	H 	0.21840 0.52150 0.87140 0.25000
H 	H 	0.27180 0.55240 0.86840 0.25600
H 	H 	0.23010 0.56680 0.91170 0.25600
C 	C 	0.31340 0.51270 0.96170 -0.29400
C 	C 	0.32250 0.56380 0.97670 0.21900
H 	H 	0.29890 0.59000 0.96650 -0.06300
C 	C 	0.36620 0.57750 0.00680 -0.34100
H 	H 	0.37310 0.61260 0.01490 0.13200
C 	C 	0.39750 0.53990 0.02370 0.26400
C 	C 	0.38840 0.48720 0.01150 -0.36600
H 	H 	0.41080 0.46090 0.02380 0.15600
C 	C 	0.34770 0.47590 0.98240 0.27200
H 	H 	0.34120 0.44060 0.97500 -0.08500
N 	N 	0.06390 0.30510 0.36140 -0.20600
N 	N 	0.10800 0.28490 0.43690 -0.19000
H 	H 	0.13200 0.29230 0.45970 0.09300
N 	N 	0.07220 0.24790 0.44930 -0.16800
C 	C 	0.06300 0.32650 0.31290 0.08700
H 	H 	0.03430 0.31970 0.29100 -0.02300
C 	C 	0.10350 0.35850 0.29430 -0.18100
H 	H 	0.10030 0.37710 0.26290 0.08300
C 	C 	0.14980 0.36130 0.32530 0.12000
H 	H 	0.17990 0.37790 0.31260 -0.03200
C 	C 	0.14930 0.33970 0.37310 -0.23800
H 	H 	0.17840 0.34500 0.39480 0.09700
C 	C 	0.10830 0.31020 0.39220 0.18900
C 	C 	0.07150 0.22980 0.49940 0.27800
C 	C 	0.10830 0.25460 0.53860 -0.75500
H 	H 	0.12860 0.28160 0.52150 0.24000
H 	H 	0.13160 0.22820 0.55240 0.24500
H 	H 	0.08830 0.26990 0.56680 0.24400
C 	C 	0.03830 0.18660 0.51270 -0.23700
C 	C 	0.02330 0.17750 0.56380 0.14600
H 	H 	0.03350 0.20110 0.59000 -0.04100
C 	C 	0.99320 0.13380 0.57750 -0.26800
H 	H 	0.98510 0.12690 0.61260 0.11100
C 	C 	0.97630 0.10250 0.53990 0.21600
C 	C 	0.98850 0.11160 0.48720 -0.28400
H 	H 	0.97620 0.08920 0.46090 0.12900
C 	C 	0.01760 0.15230 0.47590 0.18600
H 	H 	0.02500 0.15880 0.44060 -0.06000
N 	N 	0.56390 0.80510 0.86140 -0.20500
N 	N 	0.60800 0.78490 0.93690 -0.18900
H 	H 	0.63200 0.79230 0.95970 0.09400
N 	N 	0.57220 0.74790 0.94930 -0.17300
C 	C 	0.56300 0.82650 0.81290 0.08800
H 	H 	0.53430 0.81970 0.79100 -0.02100
C 	C 	0.60350 0.85850 0.79430 -0.18000
H 	H 	0.60030 0.87710 0.76290 0.08500
C 	C 	0.64980 0.86130 0.82530 0.12200
H 	H 	0.67990 0.87790 0.81260 -0.03100
C 	C 	0.64930 0.83970 0.87310 -0.23800
H 	H 	0.67840 0.84500 0.89480 0.09800
C 	C 	0.60830 0.81020 0.89220 0.19100
C 	C 	0.57150 0.72980 0.99940 0.31900
C 	C 	0.60830 0.75460 0.03860 -0.80600
H 	H 	0.62860 0.78160 0.02150 0.25300
H 	H 	0.63160 0.72820 0.05240 0.26000
H 	H 	0.58830 0.76990 0.06680 0.26000
C 	C 	0.53830 0.68660 0.01270 -0.29700
C 	C 	0.52330 0.67750 0.06380 0.20100
H 	H 	0.53350 0.70110 0.09000 -0.05900
C 	C 	0.49320 0.63380 0.07750 -0.31700
H 	H 	0.48510 0.62690 0.11260 0.12600
C 	C 	0.47630 0.60250 0.03990 0.24400
C 	C 	0.48850 0.61160 0.98720 -0.33500
H 	H 	0.47620 0.58920 0.96090 0.14800
C 	C 	0.51760 0.65230 0.97590 0.25600
H 	H 	0.52500 0.65880 0.94060 -0.08100
N 	N 	0.93610 0.80510 0.13860 -0.20400
N 	N 	0.89200 0.78490 0.06310 -0.18900
H 	H 	0.86800 0.79230 0.04030 0.09100
N 	N 	0.92780 0.74790 0.05070 -0.16800
C 	C 	0.93700 0.82650 0.18710 0.08800
H 	H 	0.96570 0.81970 0.20900 -0.02000
C 	C 	0.89650 0.85850 0.20570 -0.17900
H 	H 	0.89970 0.87710 0.23710 0.08500
C 	C 	0.85020 0.86130 0.17470 0.12100
H 	H 	0.82010 0.87790 0.18740 -0.03100
C 	C 	0.85070 0.83970 0.12690 -0.23700
H 	H 	0.82160 0.84500 0.10520 0.09700
C 	C 	0.89170 0.81020 0.10780 0.19000
C 	C 	0.92850 0.72980 0.00060 0.28300
C 	C 	0.89170 0.75460 0.96140 -0.75700
H 	H 	0.87140 0.78160 0.97850 0.24400
H 	H 	0.86840 0.72820 0.94760 0.24800
H 	H 	0.91170 0.76990 0.93320 0.24800
C 	C 	0.96170 0.68660 0.98730 -0.26500
C 	C 	0.97670 0.67750 0.93620 0.20100
H 	H 	0.96650 0.70110 0.91000 -0.05600
C 	C 	0.00680 0.63380 0.92250 -0.32800
H 	H 	0.01490 0.62690 0.88740 0.12800
C 	C 	0.02370 0.60250 0.96010 0.26100
C 	C 	0.01150 0.61160 0.01280 -0.35700
H 	H 	0.02380 0.58920 0.03910 0.15100
C 	C 	0.98240 0.65230 0.02410 0.24700
H 	H 	0.97500 0.65880 0.05940 -0.07700
N 	N 	0.43610 0.30510 0.63860 -0.20600
N 	N 	0.39200 0.28490 0.56310 -0.19000
H 	H 	0.36800 0.29230 0.54030 0.09300
N 	N 	0.42780 0.24790 0.55070 -0.17000
C 	C 	0.43700 0.32650 0.68710 0.08700
H 	H 	0.46570 0.31970 0.70900 -0.02100
C 	C 	0.39650 0.35850 0.70570 -0.18000
H 	H 	0.39970 0.37710 0.73710 0.08400
C 	C 	0.35020 0.36130 0.67470 0.12100
H 	H 	0.32010 0.37790 0.68740 -0.03200
C 	C 	0.35070 0.33970 0.62690 -0.23800
H 	H 	0.32160 0.34500 0.60520 0.09700
C 	C 	0.39170 0.31020 0.60780 0.19000
C 	C 	0.42850 0.22980 0.50060 0.29300
C 	C 	0.39170 0.25460 0.46140 -0.77200
H 	H 	0.37140 0.28160 0.47850 0.24500
H 	H 	0.36840 0.22820 0.44760 0.25000
H 	H 	0.41170 0.26990 0.43320 0.25000
C 	C 	0.46170 0.18660 0.48730 -0.26700
C 	C 	0.47670 0.17750 0.43620 0.18300
H 	H 	0.46650 0.20110 0.41000 -0.05200
C 	C 	0.50680 0.13380 0.42250 -0.30500
H 	H 	0.51490 0.12690 0.38740 0.12200
C 	C 	0.52370 0.10250 0.46010 0.24000
C 	C 	0.51150 0.11160 0.51280 -0.32600
H 	H 	0.52380 0.08920 0.53910 0.14200
C 	C 	0.48240 0.15230 0.52410 0.22900
H 	H 	0.47500 0.15880 0.55940 -0.07300
N 	N 	0.56390 0.19490 0.63860 -0.20600
N 	N 	0.60800 0.21510 0.56310 -0.19000
H 	H 	0.63200 0.20770 0.54030 0.09300
N 	N 	0.57220 0.25210 0.55070 -0.17000
C 	C 	0.56300 0.17350 0.68710 0.08700
H 	H 	0.53430 0.18030 0.70900 -0.02200
C 	C 	0.60350 0.14150 0.70570 -0.18000
H 	H 	0.60030 0.12290 0.73710 0.08300
C 	C 	0.64980 0.13870 0.67470 0.12100
H 	H 	0.67990 0.12210 0.68740 -0.03200
C 	C 	0.64930 0.16030 0.62690 -0.23800
H 	H 	0.67840 0.15500 0.60520 0.09700
C 	C 	0.60830 0.18980 0.60780 0.19000
C 	C 	0.57150 0.27020 0.50060 0.29200
C 	C 	0.60830 0.24540 0.46140 -0.77100
H 	H 	0.62860 0.21840 0.47850 0.24500
H 	H 	0.63160 0.27180 0.44760 0.25000
H 	H 	0.58830 0.23010 0.43320 0.25000
C 	C 	0.53830 0.31340 0.48730 -0.26600
C 	C 	0.52330 0.32250 0.43620 0.18200
H 	H 	0.53350 0.29890 0.41000 -0.05200
C 	C 	0.49320 0.36620 0.42250 -0.30400
H 	H 	0.48510 0.37310 0.38740 0.12200
C 	C 	0.47630 0.39750 0.46010 0.24000
C 	C 	0.48850 0.38840 0.51280 -0.32500
H 	H 	0.47620 0.41080 0.53910 0.14300
C 	C 	0.51760 0.34770 0.52410 0.22900
H 	H 	0.52500 0.34120 0.55940 -0.07300
N 	N 	0.06390 0.69490 0.13860 -0.20600
N 	N 	0.10800 0.71510 0.06310 -0.19100
H 	H 	0.13200 0.70770 0.04030 0.09300
N 	N 	0.07220 0.75210 0.05070 -0.16400
C 	C 	0.06300 0.67350 0.18710 0.08700
H 	H 	0.03430 0.68030 0.20900 -0.02300
C 	C 	0.10350 0.64150 0.20570 -0.18000
H 	H 	0.10030 0.62290 0.23710 0.08300
C 	C 	0.14980 0.63870 0.17470 0.12000
H 	H 	0.17990 0.62210 0.18740 -0.03200
C 	C 	0.14930 0.66030 0.12690 -0.23700
H 	H 	0.17840 0.65500 0.10520 0.09600
C 	C 	0.10830 0.68980 0.10780 0.18900
C 	C 	0.07150 0.77020 0.00060 0.25200
C 	C 	0.10830 0.74540 0.96140 -0.72100
H 	H 	0.12860 0.71840 0.97850 0.23300
H 	H 	0.13160 0.77180 0.94760 0.23700
H 	H 	0.08830 0.73010 0.93320 0.23500
C 	C 	0.03830 0.81340 0.98730 -0.20500
C 	C 	0.02330 0.82250 0.93620 0.12700
H 	H 	0.03350 0.79890 0.91000 -0.03400
C 	C 	0.99320 0.86620 0.92250 -0.25400
H 	H 	0.98510 0.87310 0.88740 0.10700
C 	C 	0.97630 0.89750 0.96010 0.21100
C 	C 	0.98850 0.88840 0.01280 -0.27200
H 	H 	0.97620 0.91080 0.03910 0.12500
C 	C 	0.01760 0.84770 0.02410 0.15900
H 	H 	0.02500 0.84120 0.05940 -0.05100
N 	N 	0.43610 0.69490 0.86140 -0.20500
N 	N 	0.39200 0.71510 0.93690 -0.18900
H 	H 	0.36800 0.70770 0.95970 0.09400
N 	N 	0.42780 0.75210 0.94930 -0.17300
C 	C 	0.43700 0.67350 0.81290 0.08800
H 	H 	0.46570 0.68030 0.79100 -0.02100
C 	C 	0.39650 0.64150 0.79430 -0.18000
H 	H 	0.39970 0.62290 0.76290 0.08400
C 	C 	0.35020 0.63870 0.82530 0.12200
H 	H 	0.32010 0.62210 0.81260 -0.03200
C 	C 	0.35070 0.66030 0.87310 -0.23800
H 	H 	0.32160 0.65500 0.89480 0.09800
C 	C 	0.39170 0.68980 0.89220 0.19100
C 	C 	0.42850 0.77020 0.99940 0.31900
C 	C 	0.39170 0.74540 0.03860 -0.80600
H 	H 	0.37140 0.71840 0.02150 0.25300
H 	H 	0.36840 0.77180 0.05240 0.26000
H 	H 	0.41170 0.73010 0.06680 0.26000
C 	C 	0.46170 0.81340 0.01270 -0.29700
C 	C 	0.47670 0.82250 0.06380 0.20100
H 	H 	0.46650 0.79890 0.09000 -0.05900
C 	C 	0.50680 0.86620 0.07750 -0.31700
H 	H 	0.51490 0.87310 0.11260 0.12600
C 	C 	0.52370 0.89750 0.03990 0.24400
C 	C 	0.51150 0.88840 0.98720 -0.33500
H 	H 	0.52380 0.91080 0.96090 0.14900
C 	C 	0.48240 0.84770 0.97590 0.25600
H 	H 	0.47500 0.84120 0.94060 -0.08100
N 	N 	0.93610 0.19490 0.36140 -0.20400
N 	N 	0.89200 0.21510 0.43690 -0.18900
H 	H 	0.86800 0.20770 0.45970 0.09200
N 	N 	0.92780 0.25210 0.44930 -0.17100
C 	C 	0.93700 0.17350 0.31290 0.08800
H 	H 	0.96570 0.18030 0.29100 -0.02100
C 	C 	0.89650 0.14150 0.29430 -0.18000
H 	H 	0.89970 0.12290 0.26290 0.08300
C 	C 	0.85020 0.13870 0.32530 0.12100
H 	H 	0.82010 0.12210 0.31260 -0.03300
C 	C 	0.85070 0.16030 0.37310 -0.23800
H 	H 	0.82160 0.15500 0.39480 0.09700
C 	C 	0.89170 0.18980 0.39220 0.19100
C 	C 	0.92850 0.27020 0.49940 0.30700
C 	C 	0.89170 0.24540 0.53860 -0.78900
H 	H 	0.87140 0.21840 0.52150 0.25000
H 	H 	0.86840 0.27180 0.55240 0.25600
H 	H 	0.91170 0.23010 0.56680 0.25600
C 	C 	0.96170 0.31340 0.51270 -0.29400
C 	C 	0.97670 0.32250 0.56380 0.21900
H 	H 	0.96650 0.29890 0.59000 -0.06300
C 	C 	0.00680 0.36620 0.57750 -0.34100
H 	H 	0.01490 0.37310 0.61260 0.13200
C 	C 	0.02370 0.39750 0.53990 0.26400
C 	C 	0.01150 0.38840 0.48720 -0.36600
H 	H 	0.02380 0.41080 0.46090 0.15600
C 	C 	0.98240 0.34770 0.47590 0.27200
H 	H 	0.97500 0.34120 0.44060 -0.08500
Ag	Ag	0.38700 0.00000 0.25000 0.53900
Ag	Ag	0.11300 0.00000 0.75000 0.53900
Ag	Ag	0.61300 0.50000 0.25000 0.54300
Ag	Ag	0.88700 0.50000 0.75000 0.54400
Ag	Ag	0.25000 0.38700 -0.00000 0.53900
Ag	Ag	0.75000 0.11300 -0.00000 0.53900
Ag	Ag	0.25000 0.61300 0.50000 0.54300
Ag	Ag	0.75000 0.88700 0.50000 0.54400
Ag	Ag	-0.00000 0.25000 0.38700 0.53900
Ag	Ag	-0.00000 0.75000 0.11300 0.53900
Ag	Ag	0.50000 0.25000 0.61300 0.54300
Ag	Ag	0.50000 0.75000 0.88700 0.54400
N 	N 	0.55600 0.94400 0.05600 -0.21100
N 	N 	0.05600 0.44400 0.55600 -0.21600
N 	N 	0.94400 0.05600 0.55600 -0.21100
N 	N 	0.44400 0.55600 0.05600 -0.21600
N 	N 	0.44400 0.44400 0.44400 -0.21100
N 	N 	0.94400 0.94400 0.94400 -0.19700
N 	N 	0.05600 0.55600 0.94400 -0.21100
N 	N 	0.55600 0.05600 0.44400 -0.21600
