data_crystal

_cell_length_a 25.58240
_cell_length_b 25.58240
_cell_length_c 25.58240
_cell_angle_alpha 90.00000
_cell_angle_beta  90.00000
_cell_angle_gamma 90.00000

_symmetry_space_group_name_	'P 1'
_symmetry_space_group_name_H-M	'P 1'

loop_
_symmetry_equiv_pos_as_xyz
  x,y,z

loop_
_atom_site_label
_atom_site_type_symbol
_atom_site_fract_x
_atom_site_fract_y
_atom_site_fract_z
_atom_site_charge
N 	N 	0.80270 0.86290 0.55960 -0.22700
N 	N 	0.78100 0.93800 0.60920 -0.12000
N 	N 	0.74530 0.95240 0.57110 -0.17400
C 	C 	0.82420 0.81440 0.56390 0.17300
H 	H 	0.81790 0.79170 0.53610 -0.04300
C 	C 	0.85190 0.79620 0.60110 -0.29300
H 	H 	0.86970 0.76460 0.59830 0.12700
C 	C 	0.85390 0.82520 0.64430 0.19800
H 	H 	0.87030 0.81110 0.67350 -0.05200
C 	C 	0.83370 0.87330 0.64870 -0.25200
H 	H 	0.83700 0.89340 0.67890 0.11200
C 	C 	0.80630 0.89150 0.60260 0.17600
C 	C 	0.72830 0.00120 0.57230 0.26600
C 	C 	0.75070 0.04110 0.60940 -0.75800
H 	H 	0.77870 0.02560 0.62900 0.25500
H 	H 	0.72390 0.05270 0.63290 0.24900
H 	H 	0.76380 0.07030 0.58990 0.24700
C 	C 	0.68680 0.01730 0.54040 -0.16900
C 	C 	0.67740 0.07060 0.52130 0.08800
H 	H 	0.70040 0.09700 0.53120 -0.01700
C 	C 	0.63600 0.08330 0.48920 -0.22300
H 	H 	0.62950 0.11780 0.47990 0.09900
C 	C 	0.60680 0.04670 0.47270 0.15500
C 	C 	0.60750 0.99010 0.48340 -0.17100
H 	H 	0.58390 0.96590 0.47010 0.09600
C 	C 	0.64940 0.97860 0.51660 0.07200
H 	H 	0.65460 0.94360 0.52480 -0.01400
N 	N 	0.30270 0.36290 0.05960 -0.22900
N 	N 	0.28100 0.43800 0.10920 -0.12300
N 	N 	0.24530 0.45240 0.07110 -0.17900
C 	C 	0.32420 0.31440 0.06390 0.17000
H 	H 	0.31790 0.29170 0.03610 -0.04700
C 	C 	0.35190 0.29620 0.10110 -0.29400
H 	H 	0.36970 0.26460 0.09830 0.12300
C 	C 	0.35390 0.32520 0.14430 0.19500
H 	H 	0.37030 0.31110 0.17350 -0.05400
C 	C 	0.33370 0.37330 0.14870 -0.25300
H 	H 	0.33700 0.39340 0.17890 0.11000
C 	C 	0.30630 0.39150 0.10260 0.17300
C 	C 	0.22830 0.50120 0.07230 0.26600
C 	C 	0.25070 0.54110 0.10940 -0.75900
H 	H 	0.27870 0.52560 0.12900 0.25700
H 	H 	0.22390 0.55270 0.13290 0.25000
H 	H 	0.26380 0.57030 0.08990 0.24700
C 	C 	0.18680 0.51730 0.04040 -0.15200
C 	C 	0.17740 0.57060 0.02130 0.06200
H 	H 	0.20040 0.59700 0.03120 -0.01000
C 	C 	0.13600 0.58330 0.98920 -0.19700
H 	H 	0.12950 0.61780 0.97990 0.09200
C 	C 	0.10680 0.54670 0.97270 0.14900
C 	C 	0.10750 0.49010 0.98340 -0.15500
H 	H 	0.08390 0.46590 0.97010 0.08900
C 	C 	0.14940 0.47860 0.01660 0.04100
H 	H 	0.15460 0.44360 0.02480 -0.00800
N 	N 	0.69730 0.13710 0.05960 -0.22900
N 	N 	0.71900 0.06200 0.10920 -0.12500
N 	N 	0.75470 0.04760 0.07110 -0.18500
C 	C 	0.67580 0.18560 0.06390 0.17000
H 	H 	0.68210 0.20830 0.03610 -0.04600
C 	C 	0.64810 0.20380 0.10110 -0.29400
H 	H 	0.63030 0.23540 0.09830 0.12400
C 	C 	0.64610 0.17480 0.14430 0.19500
H 	H 	0.62970 0.18890 0.17350 -0.05300
C 	C 	0.66630 0.12670 0.14870 -0.25300
H 	H 	0.66300 0.10660 0.17890 0.10900
C 	C 	0.69370 0.10850 0.10260 0.17300
C 	C 	0.77170 0.99880 0.07230 0.27700
C 	C 	0.74930 0.95890 0.10940 -0.77200
H 	H 	0.72130 0.97440 0.12900 0.26300
H 	H 	0.77610 0.94730 0.13290 0.25500
H 	H 	0.73620 0.92970 0.08990 0.25100
C 	C 	0.81320 0.98270 0.04040 -0.14900
C 	C 	0.82260 0.92940 0.02130 0.06700
H 	H 	0.79960 0.90300 0.03120 -0.01200
C 	C 	0.86400 0.91670 0.98920 -0.20400
H 	H 	0.87050 0.88220 0.97990 0.09400
C 	C 	0.89320 0.95330 0.97270 0.16000
C 	C 	0.89250 0.00990 0.98340 -0.16500
H 	H 	0.91610 0.03410 0.97010 0.09200
C 	C 	0.85060 0.02140 0.01660 0.03800
H 	H 	0.84540 0.05640 0.02480 -0.00700
N 	N 	0.19730 0.63710 0.55960 -0.22800
N 	N 	0.21900 0.56200 0.60920 -0.12300
N 	N 	0.25470 0.54760 0.57110 -0.18000
C 	C 	0.17580 0.68560 0.56390 0.17100
H 	H 	0.18210 0.70830 0.53610 -0.04400
C 	C 	0.14810 0.70380 0.60110 -0.29400
H 	H 	0.13030 0.73540 0.59830 0.12400
C 	C 	0.14610 0.67480 0.64430 0.19600
H 	H 	0.12970 0.68890 0.67350 -0.05300
C 	C 	0.16630 0.62670 0.64870 -0.25300
H 	H 	0.16300 0.60660 0.67890 0.11000
C 	C 	0.19370 0.60850 0.60260 0.17400
C 	C 	0.27170 0.49880 0.57230 0.27500
C 	C 	0.24930 0.45890 0.60940 -0.77000
H 	H 	0.22130 0.47440 0.62900 0.26000
H 	H 	0.27610 0.44730 0.63290 0.25400
H 	H 	0.23620 0.42970 0.58990 0.25100
C 	C 	0.31320 0.48270 0.54040 -0.16700
C 	C 	0.32260 0.42940 0.52130 0.09100
H 	H 	0.29960 0.40300 0.53120 -0.01800
C 	C 	0.36400 0.41670 0.48920 -0.23000
H 	H 	0.37050 0.38220 0.47990 0.10100
C 	C 	0.39320 0.45330 0.47270 0.16600
C 	C 	0.39250 0.50990 0.48340 -0.18100
H 	H 	0.41610 0.53410 0.47010 0.09700
C 	C 	0.35060 0.52140 0.51660 0.06700
H 	H 	0.34540 0.55640 0.52480 -0.01400
N 	N 	0.19730 0.36290 0.94040 -0.22600
N 	N 	0.21900 0.43800 0.89080 -0.12200
N 	N 	0.25470 0.45240 0.92890 -0.18000
C 	C 	0.17580 0.31440 0.93610 0.17100
H 	H 	0.18210 0.29170 0.96390 -0.04300
C 	C 	0.14810 0.29620 0.89890 -0.29300
H 	H 	0.13030 0.26460 0.90170 0.12400
C 	C 	0.14610 0.32520 0.85570 0.19600
H 	H 	0.12970 0.31110 0.82650 -0.05400
C 	C 	0.16630 0.37330 0.85130 -0.25300
H 	H 	0.16300 0.39340 0.82110 0.11000
C 	C 	0.19370 0.39150 0.89740 0.17500
C 	C 	0.27170 0.50120 0.92770 0.28400
C 	C 	0.24930 0.54110 0.89060 -0.78000
H 	H 	0.22130 0.52560 0.87100 0.26300
H 	H 	0.27610 0.55270 0.86710 0.25700
H 	H 	0.23620 0.57030 0.91010 0.25500
C 	C 	0.31320 0.51730 0.95960 -0.18100
C 	C 	0.32260 0.57060 0.97870 0.12000
H 	H 	0.29960 0.59700 0.96880 -0.02600
C 	C 	0.36400 0.58330 0.01080 -0.26200
H 	H 	0.37050 0.61780 0.02010 0.11000
C 	C 	0.39320 0.54670 0.02730 0.18200
C 	C 	0.39250 0.49010 0.01660 -0.20800
H 	H 	0.41610 0.46590 0.02990 0.10500
C 	C 	0.35060 0.47860 0.98340 0.09300
H 	H 	0.34540 0.44360 0.97520 -0.01900
N 	N 	0.69730 0.86290 0.44040 -0.22800
N 	N 	0.71900 0.93800 0.39080 -0.12100
N 	N 	0.75470 0.95240 0.42890 -0.17400
C 	C 	0.67580 0.81440 0.43610 0.17200
H 	H 	0.68210 0.79170 0.46390 -0.04400
C 	C 	0.64810 0.79620 0.39890 -0.29400
H 	H 	0.63030 0.76460 0.40170 0.12500
C 	C 	0.64610 0.82520 0.35570 0.19700
H 	H 	0.62970 0.81110 0.32650 -0.05300
C 	C 	0.66630 0.87330 0.35130 -0.25300
H 	H 	0.66300 0.89340 0.32110 0.11100
C 	C 	0.69370 0.89150 0.39740 0.17500
C 	C 	0.77170 0.00120 0.42770 0.26600
C 	C 	0.74930 0.04110 0.39060 -0.75900
H 	H 	0.72130 0.02560 0.37100 0.25400
H 	H 	0.77610 0.05270 0.36710 0.24900
H 	H 	0.73620 0.07030 0.41010 0.24800
C 	C 	0.81320 0.01730 0.45960 -0.16900
C 	C 	0.82260 0.07060 0.47870 0.08800
H 	H 	0.79960 0.09700 0.46880 -0.01700
C 	C 	0.86400 0.08330 0.51080 -0.22300
H 	H 	0.87050 0.11780 0.52010 0.09900
C 	C 	0.89320 0.04670 0.52730 0.15600
C 	C 	0.89250 0.99010 0.51660 -0.17100
H 	H 	0.91610 0.96590 0.52990 0.09700
C 	C 	0.85060 0.97860 0.48340 0.07300
H 	H 	0.84540 0.94360 0.47520 -0.01400
N 	N 	0.30270 0.63710 0.44040 -0.22800
N 	N 	0.28100 0.56200 0.39080 -0.12300
N 	N 	0.24530 0.54760 0.42890 -0.18000
C 	C 	0.32420 0.68560 0.43610 0.17100
H 	H 	0.31790 0.70830 0.46390 -0.04400
C 	C 	0.35190 0.70380 0.39890 -0.29400
H 	H 	0.36970 0.73540 0.40170 0.12500
C 	C 	0.35390 0.67480 0.35570 0.19600
H 	H 	0.37030 0.68890 0.32650 -0.05300
C 	C 	0.33370 0.62670 0.35130 -0.25300
H 	H 	0.33700 0.60660 0.32110 0.11000
C 	C 	0.30630 0.60850 0.39740 0.17400
C 	C 	0.22830 0.49880 0.42770 0.27500
C 	C 	0.25070 0.45890 0.39060 -0.76900
H 	H 	0.27870 0.47440 0.37100 0.26000
H 	H 	0.22390 0.44730 0.36710 0.25300
H 	H 	0.26380 0.42970 0.41010 0.25100
C 	C 	0.18680 0.48270 0.45960 -0.16700
C 	C 	0.17740 0.42940 0.47870 0.09100
H 	H 	0.20040 0.40300 0.46880 -0.01800
C 	C 	0.13600 0.41670 0.51080 -0.23000
H 	H 	0.12950 0.38220 0.52010 0.10100
C 	C 	0.10680 0.45330 0.52730 0.16500
C 	C 	0.10750 0.50990 0.51660 -0.18100
H 	H 	0.08390 0.53410 0.52990 0.09600
C 	C 	0.14940 0.52140 0.48340 0.06700
H 	H 	0.15460 0.55640 0.47520 -0.01400
N 	N 	0.80270 0.13710 0.94040 -0.22600
N 	N 	0.78100 0.06200 0.89080 -0.12400
N 	N 	0.74530 0.04760 0.92890 -0.18500
C 	C 	0.82420 0.18560 0.93610 0.17200
H 	H 	0.81790 0.20830 0.96390 -0.04200
C 	C 	0.85190 0.20380 0.89890 -0.29300
H 	H 	0.86970 0.23540 0.90170 0.12700
C 	C 	0.85390 0.17480 0.85570 0.19700
H 	H 	0.87030 0.18890 0.82650 -0.05300
C 	C 	0.83370 0.12670 0.85130 -0.25300
H 	H 	0.83700 0.10660 0.82110 0.10900
C 	C 	0.80630 0.10850 0.89740 0.17500
C 	C 	0.72830 0.99880 0.92770 0.29400
C 	C 	0.75070 0.95890 0.89060 -0.79100
H 	H 	0.77870 0.97440 0.87100 0.26900
H 	H 	0.72390 0.94730 0.86710 0.26100
H 	H 	0.76380 0.92970 0.91010 0.25900
C 	C 	0.68680 0.98270 0.95960 -0.17800
C 	C 	0.67740 0.92940 0.97870 0.12300
H 	H 	0.70040 0.90300 0.96880 -0.02700
C 	C 	0.63600 0.91670 0.01080 -0.26700
H 	H 	0.62950 0.88220 0.02010 0.11200
C 	C 	0.60680 0.95330 0.02730 0.19200
C 	C 	0.60750 0.00990 0.01660 -0.21800
H 	H 	0.58390 0.03410 0.02990 0.10600
C 	C 	0.64940 0.02140 0.98340 0.08800
H 	H 	0.65460 0.05640 0.97520 -0.01900
N 	N 	0.55960 0.80270 0.86290 -0.22800
N 	N 	0.60920 0.78100 0.93800 -0.12100
N 	N 	0.57110 0.74530 0.95240 -0.17500
C 	C 	0.56390 0.82420 0.81440 0.17200
H 	H 	0.53610 0.81790 0.79170 -0.04400
C 	C 	0.60110 0.85190 0.79620 -0.29400
H 	H 	0.59830 0.86970 0.76460 0.12600
C 	C 	0.64430 0.85390 0.82520 0.19700
H 	H 	0.67350 0.87030 0.81110 -0.05300
C 	C 	0.64870 0.83370 0.87330 -0.25300
H 	H 	0.67890 0.83700 0.89340 0.11100
C 	C 	0.60260 0.80630 0.89150 0.17500
C 	C 	0.57230 0.72830 0.00120 0.26500
C 	C 	0.60940 0.75070 0.04110 -0.75900
H 	H 	0.62900 0.77870 0.02560 0.25400
H 	H 	0.63290 0.72390 0.05270 0.24900
H 	H 	0.58990 0.76380 0.07030 0.24700
C 	C 	0.54040 0.68680 0.01730 -0.16900
C 	C 	0.52130 0.67740 0.07060 0.08800
H 	H 	0.53120 0.70040 0.09700 -0.01700
C 	C 	0.48920 0.63600 0.08330 -0.22300
H 	H 	0.47990 0.62950 0.11780 0.09900
C 	C 	0.47270 0.60680 0.04670 0.15500
C 	C 	0.48340 0.60750 0.99010 -0.17100
H 	H 	0.47010 0.58390 0.96590 0.09600
C 	C 	0.51660 0.64940 0.97860 0.07200
H 	H 	0.52480 0.65460 0.94360 -0.01400
N 	N 	0.05960 0.30270 0.36290 -0.22900
N 	N 	0.10920 0.28100 0.43800 -0.12300
N 	N 	0.07110 0.24530 0.45240 -0.17900
C 	C 	0.06390 0.32420 0.31440 0.17000
H 	H 	0.03610 0.31790 0.29170 -0.04700
C 	C 	0.10110 0.35190 0.29620 -0.29400
H 	H 	0.09830 0.36970 0.26460 0.12300
C 	C 	0.14430 0.35390 0.32520 0.19500
H 	H 	0.17350 0.37030 0.31110 -0.05400
C 	C 	0.14870 0.33370 0.37330 -0.25300
H 	H 	0.17890 0.33700 0.39340 0.11000
C 	C 	0.10260 0.30630 0.39150 0.17300
C 	C 	0.07230 0.22830 0.50120 0.26600
C 	C 	0.10940 0.25070 0.54110 -0.75900
H 	H 	0.12900 0.27870 0.52560 0.25700
H 	H 	0.13290 0.22390 0.55270 0.25000
H 	H 	0.08990 0.26380 0.57030 0.24700
C 	C 	0.04040 0.18680 0.51730 -0.15200
C 	C 	0.02130 0.17740 0.57060 0.06200
H 	H 	0.03120 0.20040 0.59700 -0.01000
C 	C 	0.98920 0.13600 0.58330 -0.19700
H 	H 	0.97990 0.12950 0.61780 0.09200
C 	C 	0.97270 0.10680 0.54670 0.14900
C 	C 	0.98340 0.10750 0.49010 -0.15500
H 	H 	0.97010 0.08390 0.46590 0.08900
C 	C 	0.01660 0.14940 0.47860 0.04100
H 	H 	0.02480 0.15460 0.44360 -0.00800
N 	N 	0.05960 0.69730 0.13710 -0.22900
N 	N 	0.10920 0.71900 0.06200 -0.12500
N 	N 	0.07110 0.75470 0.04760 -0.18500
C 	C 	0.06390 0.67580 0.18560 0.17000
H 	H 	0.03610 0.68210 0.20830 -0.04600
C 	C 	0.10110 0.64810 0.20380 -0.29400
H 	H 	0.09830 0.63030 0.23540 0.12400
C 	C 	0.14430 0.64610 0.17480 0.19500
H 	H 	0.17350 0.62970 0.18890 -0.05300
C 	C 	0.14870 0.66630 0.12670 -0.25300
H 	H 	0.17890 0.66300 0.10660 0.10900
C 	C 	0.10260 0.69370 0.10850 0.17300
C 	C 	0.07230 0.77170 0.99880 0.27700
C 	C 	0.10940 0.74930 0.95890 -0.77200
H 	H 	0.12900 0.72130 0.97440 0.26300
H 	H 	0.13290 0.77610 0.94730 0.25500
H 	H 	0.08990 0.73620 0.92970 0.25100
C 	C 	0.04040 0.81320 0.98270 -0.14900
C 	C 	0.02130 0.82260 0.92940 0.06700
H 	H 	0.03120 0.79960 0.90300 -0.01200
C 	C 	0.98920 0.86400 0.91670 -0.20400
H 	H 	0.97990 0.87050 0.88220 0.09400
C 	C 	0.97270 0.89320 0.95330 0.16000
C 	C 	0.98340 0.89250 0.00990 -0.16500
H 	H 	0.97010 0.91610 0.03410 0.09200
C 	C 	0.01660 0.85060 0.02140 0.03800
H 	H 	0.02480 0.84540 0.05640 -0.00700
N 	N 	0.55960 0.19730 0.63710 -0.22800
N 	N 	0.60920 0.21900 0.56200 -0.12300
N 	N 	0.57110 0.25470 0.54760 -0.18000
C 	C 	0.56390 0.17580 0.68560 0.17100
H 	H 	0.53610 0.18210 0.70830 -0.04400
C 	C 	0.60110 0.14810 0.70380 -0.29400
H 	H 	0.59830 0.13030 0.73540 0.12400
C 	C 	0.64430 0.14610 0.67480 0.19600
H 	H 	0.67350 0.12970 0.68890 -0.05300
C 	C 	0.64870 0.16630 0.62670 -0.25300
H 	H 	0.67890 0.16300 0.60660 0.11000
C 	C 	0.60260 0.19370 0.60850 0.17400
C 	C 	0.57230 0.27170 0.49880 0.27500
C 	C 	0.60940 0.24930 0.45890 -0.77000
H 	H 	0.62900 0.22130 0.47440 0.26000
H 	H 	0.63290 0.27610 0.44730 0.25400
H 	H 	0.58990 0.23620 0.42970 0.25100
C 	C 	0.54040 0.31320 0.48270 -0.16700
C 	C 	0.52130 0.32260 0.42940 0.09100
H 	H 	0.53120 0.29960 0.40300 -0.01800
C 	C 	0.48920 0.36400 0.41670 -0.23000
H 	H 	0.47990 0.37050 0.38220 0.10100
C 	C 	0.47270 0.39320 0.45330 0.16600
C 	C 	0.48340 0.39250 0.50990 -0.18100
H 	H 	0.47010 0.41610 0.53410 0.09700
C 	C 	0.51660 0.35060 0.52140 0.06700
H 	H 	0.52480 0.34540 0.55640 -0.01400
N 	N 	0.94040 0.19730 0.36290 -0.22600
N 	N 	0.89080 0.21900 0.43800 -0.12200
N 	N 	0.92890 0.25470 0.45240 -0.18000
C 	C 	0.93610 0.17580 0.31440 0.17100
H 	H 	0.96390 0.18210 0.29170 -0.04300
C 	C 	0.89890 0.14810 0.29620 -0.29300
H 	H 	0.90170 0.13030 0.26460 0.12400
C 	C 	0.85570 0.14610 0.32520 0.19600
H 	H 	0.82650 0.12970 0.31110 -0.05400
C 	C 	0.85130 0.16630 0.37330 -0.25300
H 	H 	0.82110 0.16300 0.39340 0.11000
C 	C 	0.89740 0.19370 0.39150 0.17500
C 	C 	0.92770 0.27170 0.50120 0.28400
C 	C 	0.89060 0.24930 0.54110 -0.78000
H 	H 	0.87100 0.22130 0.52560 0.26300
H 	H 	0.86710 0.27610 0.55270 0.25700
H 	H 	0.91010 0.23620 0.57030 0.25500
C 	C 	0.95960 0.31320 0.51730 -0.18100
C 	C 	0.97870 0.32260 0.57060 0.12000
H 	H 	0.96880 0.29960 0.59700 -0.02600
C 	C 	0.01080 0.36400 0.58330 -0.26200
H 	H 	0.02010 0.37050 0.61780 0.11000
C 	C 	0.02730 0.39320 0.54670 0.18200
C 	C 	0.01660 0.39250 0.49010 -0.20800
H 	H 	0.02990 0.41610 0.46590 0.10500
C 	C 	0.98340 0.35060 0.47860 0.09300
H 	H 	0.97520 0.34540 0.44360 -0.01900
N 	N 	0.44040 0.69730 0.86290 -0.22800
N 	N 	0.39080 0.71900 0.93800 -0.12100
N 	N 	0.42890 0.75470 0.95240 -0.17400
C 	C 	0.43610 0.67580 0.81440 0.17200
H 	H 	0.46390 0.68210 0.79170 -0.04400
C 	C 	0.39890 0.64810 0.79620 -0.29400
H 	H 	0.40170 0.63030 0.76460 0.12500
C 	C 	0.35570 0.64610 0.82520 0.19700
H 	H 	0.32650 0.62970 0.81110 -0.05300
C 	C 	0.35130 0.66630 0.87330 -0.25300
H 	H 	0.32110 0.66300 0.89340 0.11100
C 	C 	0.39740 0.69370 0.89150 0.17500
C 	C 	0.42770 0.77170 0.00120 0.26600
C 	C 	0.39060 0.74930 0.04110 -0.75900
H 	H 	0.37100 0.72130 0.02560 0.25400
H 	H 	0.36710 0.77610 0.05270 0.24900
H 	H 	0.41010 0.73620 0.07030 0.24800
C 	C 	0.45960 0.81320 0.01730 -0.16900
C 	C 	0.47870 0.82260 0.07060 0.08800
H 	H 	0.46880 0.79960 0.09700 -0.01700
C 	C 	0.51080 0.86400 0.08330 -0.22300
H 	H 	0.52010 0.87050 0.11780 0.09900
C 	C 	0.52730 0.89320 0.04670 0.15600
C 	C 	0.51660 0.89250 0.99010 -0.17100
H 	H 	0.52990 0.91610 0.96590 0.09700
C 	C 	0.48340 0.85060 0.97860 0.07300
H 	H 	0.47520 0.84540 0.94360 -0.01400
N 	N 	0.44040 0.30270 0.63710 -0.22800
N 	N 	0.39080 0.28100 0.56200 -0.12300
N 	N 	0.42890 0.24530 0.54760 -0.18000
C 	C 	0.43610 0.32420 0.68560 0.17100
H 	H 	0.46390 0.31790 0.70830 -0.04400
C 	C 	0.39890 0.35190 0.70380 -0.29400
H 	H 	0.40170 0.36970 0.73540 0.12500
C 	C 	0.35570 0.35390 0.67480 0.19600
H 	H 	0.32650 0.37030 0.68890 -0.05300
C 	C 	0.35130 0.33370 0.62670 -0.25300
H 	H 	0.32110 0.33700 0.60660 0.11000
C 	C 	0.39740 0.30630 0.60850 0.17400
C 	C 	0.42770 0.22830 0.49880 0.27500
C 	C 	0.39060 0.25070 0.45890 -0.76900
H 	H 	0.37100 0.27870 0.47440 0.26000
H 	H 	0.36710 0.22390 0.44730 0.25300
H 	H 	0.41010 0.26380 0.42970 0.25100
C 	C 	0.45960 0.18680 0.48270 -0.16700
C 	C 	0.47870 0.17740 0.42940 0.09100
H 	H 	0.46880 0.20040 0.40300 -0.01800
C 	C 	0.51080 0.13600 0.41670 -0.23000
H 	H 	0.52010 0.12950 0.38220 0.10100
C 	C 	0.52730 0.10680 0.45330 0.16500
C 	C 	0.51660 0.10750 0.50990 -0.18100
H 	H 	0.52990 0.08390 0.53410 0.09600
C 	C 	0.48340 0.14940 0.52140 0.06700
H 	H 	0.47520 0.15460 0.55640 -0.01400
N 	N 	0.94040 0.80270 0.13710 -0.22600
N 	N 	0.89080 0.78100 0.06200 -0.12400
N 	N 	0.92890 0.74530 0.04760 -0.18500
C 	C 	0.93610 0.82420 0.18560 0.17200
H 	H 	0.96390 0.81790 0.20830 -0.04200
C 	C 	0.89890 0.85190 0.20380 -0.29300
H 	H 	0.90170 0.86970 0.23540 0.12700
C 	C 	0.85570 0.85390 0.17480 0.19700
H 	H 	0.82650 0.87030 0.18890 -0.05300
C 	C 	0.85130 0.83370 0.12670 -0.25300
H 	H 	0.82110 0.83700 0.10660 0.10900
C 	C 	0.89740 0.80630 0.10850 0.17500
C 	C 	0.92770 0.72830 0.99880 0.29400
C 	C 	0.89060 0.75070 0.95890 -0.79100
H 	H 	0.87100 0.77870 0.97440 0.26900
H 	H 	0.86710 0.72390 0.94730 0.26100
H 	H 	0.91010 0.76380 0.92970 0.25900
C 	C 	0.95960 0.68680 0.98270 -0.17800
C 	C 	0.97870 0.67740 0.92940 0.12300
H 	H 	0.96880 0.70040 0.90300 -0.02700
C 	C 	0.01080 0.63600 0.91670 -0.26700
H 	H 	0.02010 0.62950 0.88220 0.11200
C 	C 	0.02730 0.60680 0.95330 0.19200
C 	C 	0.01660 0.60750 0.00990 -0.21800
H 	H 	0.02990 0.58390 0.03410 0.10600
C 	C 	0.98340 0.64940 0.02140 0.08800
H 	H 	0.97520 0.65460 0.05640 -0.01900
N 	N 	0.86290 0.55960 0.80270 -0.22800
N 	N 	0.93800 0.60920 0.78100 -0.12100
N 	N 	0.95240 0.57110 0.74530 -0.17500
C 	C 	0.81440 0.56390 0.82420 0.17200
H 	H 	0.79170 0.53610 0.81790 -0.04400
C 	C 	0.79620 0.60110 0.85190 -0.29400
H 	H 	0.76460 0.59830 0.86970 0.12600
C 	C 	0.82520 0.64430 0.85390 0.19700
H 	H 	0.81110 0.67350 0.87030 -0.05300
C 	C 	0.87330 0.64870 0.83370 -0.25300
H 	H 	0.89340 0.67890 0.83700 0.11100
C 	C 	0.89150 0.60260 0.80630 0.17500
C 	C 	0.00120 0.57230 0.72830 0.26500
C 	C 	0.04110 0.60940 0.75070 -0.75900
H 	H 	0.02560 0.62900 0.77870 0.25400
H 	H 	0.05270 0.63290 0.72390 0.24900
H 	H 	0.07030 0.58990 0.76380 0.24700
C 	C 	0.01730 0.54040 0.68680 -0.16900
C 	C 	0.07060 0.52130 0.67740 0.08800
H 	H 	0.09700 0.53120 0.70040 -0.01700
C 	C 	0.08330 0.48920 0.63600 -0.22300
H 	H 	0.11780 0.47990 0.62950 0.09900
C 	C 	0.04670 0.47270 0.60680 0.15500
C 	C 	0.99010 0.48340 0.60750 -0.17100
H 	H 	0.96590 0.47010 0.58390 0.09600
C 	C 	0.97860 0.51660 0.64940 0.07200
H 	H 	0.94360 0.52480 0.65460 -0.01400
N 	N 	0.36290 0.05960 0.30270 -0.22900
N 	N 	0.43800 0.10920 0.28100 -0.12300
N 	N 	0.45240 0.07110 0.24530 -0.17900
C 	C 	0.31440 0.06390 0.32420 0.17000
H 	H 	0.29170 0.03610 0.31790 -0.04700
C 	C 	0.29620 0.10110 0.35190 -0.29400
H 	H 	0.26460 0.09830 0.36970 0.12300
C 	C 	0.32520 0.14430 0.35390 0.19500
H 	H 	0.31110 0.17350 0.37030 -0.05400
C 	C 	0.37330 0.14870 0.33370 -0.25300
H 	H 	0.39340 0.17890 0.33700 0.11000
C 	C 	0.39150 0.10260 0.30630 0.17300
C 	C 	0.50120 0.07230 0.22830 0.26600
C 	C 	0.54110 0.10940 0.25070 -0.75900
H 	H 	0.52560 0.12900 0.27870 0.25700
H 	H 	0.55270 0.13290 0.22390 0.25000
H 	H 	0.57030 0.08990 0.26380 0.24700
C 	C 	0.51730 0.04040 0.18680 -0.15200
C 	C 	0.57060 0.02130 0.17740 0.06200
H 	H 	0.59700 0.03120 0.20040 -0.01000
C 	C 	0.58330 0.98920 0.13600 -0.19700
H 	H 	0.61780 0.97990 0.12950 0.09200
C 	C 	0.54670 0.97270 0.10680 0.14900
C 	C 	0.49010 0.98340 0.10750 -0.15500
H 	H 	0.46590 0.97010 0.08390 0.08900
C 	C 	0.47860 0.01660 0.14940 0.04100
H 	H 	0.44360 0.02480 0.15460 -0.00800
N 	N 	0.13710 0.05960 0.69730 -0.22900
N 	N 	0.06200 0.10920 0.71900 -0.12500
N 	N 	0.04760 0.07110 0.75470 -0.18500
C 	C 	0.18560 0.06390 0.67580 0.17000
H 	H 	0.20830 0.03610 0.68210 -0.04600
C 	C 	0.20380 0.10110 0.64810 -0.29400
H 	H 	0.23540 0.09830 0.63030 0.12400
C 	C 	0.17480 0.14430 0.64610 0.19500
H 	H 	0.18890 0.17350 0.62970 -0.05300
C 	C 	0.12670 0.14870 0.66630 -0.25300
H 	H 	0.10660 0.17890 0.66300 0.10900
C 	C 	0.10850 0.10260 0.69370 0.17300
C 	C 	0.99880 0.07230 0.77170 0.27700
C 	C 	0.95890 0.10940 0.74930 -0.77200
H 	H 	0.97440 0.12900 0.72130 0.26300
H 	H 	0.94730 0.13290 0.77610 0.25500
H 	H 	0.92970 0.08990 0.73620 0.25100
C 	C 	0.98270 0.04040 0.81320 -0.14900
C 	C 	0.92940 0.02130 0.82260 0.06700
H 	H 	0.90300 0.03120 0.79960 -0.01200
C 	C 	0.91670 0.98920 0.86400 -0.20400
H 	H 	0.88220 0.97990 0.87050 0.09400
C 	C 	0.95330 0.97270 0.89320 0.16000
C 	C 	0.00990 0.98340 0.89250 -0.16500
H 	H 	0.03410 0.97010 0.91610 0.09200
C 	C 	0.02140 0.01660 0.85060 0.03800
H 	H 	0.05640 0.02480 0.84540 -0.00700
N 	N 	0.63710 0.55960 0.19730 -0.22800
N 	N 	0.56200 0.60920 0.21900 -0.12300
N 	N 	0.54760 0.57110 0.25470 -0.18000
C 	C 	0.68560 0.56390 0.17580 0.17100
H 	H 	0.70830 0.53610 0.18210 -0.04400
C 	C 	0.70380 0.60110 0.14810 -0.29400
H 	H 	0.73540 0.59830 0.13030 0.12400
C 	C 	0.67480 0.64430 0.14610 0.19600
H 	H 	0.68890 0.67350 0.12970 -0.05300
C 	C 	0.62670 0.64870 0.16630 -0.25300
H 	H 	0.60660 0.67890 0.16300 0.11000
C 	C 	0.60850 0.60260 0.19370 0.17400
C 	C 	0.49880 0.57230 0.27170 0.27500
C 	C 	0.45890 0.60940 0.24930 -0.77000
H 	H 	0.47440 0.62900 0.22130 0.26000
H 	H 	0.44730 0.63290 0.27610 0.25400
H 	H 	0.42970 0.58990 0.23620 0.25100
C 	C 	0.48270 0.54040 0.31320 -0.16700
C 	C 	0.42940 0.52130 0.32260 0.09100
H 	H 	0.40300 0.53120 0.29960 -0.01800
C 	C 	0.41670 0.48920 0.36400 -0.23000
H 	H 	0.38220 0.47990 0.37050 0.10100
C 	C 	0.45330 0.47270 0.39320 0.16600
C 	C 	0.50990 0.48340 0.39250 -0.18100
H 	H 	0.53410 0.47010 0.41610 0.09700
C 	C 	0.52140 0.51660 0.35060 0.06700
H 	H 	0.55640 0.52480 0.34540 -0.01400
N 	N 	0.36290 0.94040 0.19730 -0.22600
N 	N 	0.43800 0.89080 0.21900 -0.12200
N 	N 	0.45240 0.92890 0.25470 -0.18000
C 	C 	0.31440 0.93610 0.17580 0.17100
H 	H 	0.29170 0.96390 0.18210 -0.04300
C 	C 	0.29620 0.89890 0.14810 -0.29300
H 	H 	0.26460 0.90170 0.13030 0.12400
C 	C 	0.32520 0.85570 0.14610 0.19600
H 	H 	0.31110 0.82650 0.12970 -0.05400
C 	C 	0.37330 0.85130 0.16630 -0.25300
H 	H 	0.39340 0.82110 0.16300 0.11000
C 	C 	0.39150 0.89740 0.19370 0.17500
C 	C 	0.50120 0.92770 0.27170 0.28400
C 	C 	0.54110 0.89060 0.24930 -0.78000
H 	H 	0.52560 0.87100 0.22130 0.26300
H 	H 	0.55270 0.86710 0.27610 0.25700
H 	H 	0.57030 0.91010 0.23620 0.25500
C 	C 	0.51730 0.95960 0.31320 -0.18100
C 	C 	0.57060 0.97870 0.32260 0.12000
H 	H 	0.59700 0.96880 0.29960 -0.02600
C 	C 	0.58330 0.01080 0.36400 -0.26200
H 	H 	0.61780 0.02010 0.37050 0.11000
C 	C 	0.54670 0.02730 0.39320 0.18200
C 	C 	0.49010 0.01660 0.39250 -0.20800
H 	H 	0.46590 0.02990 0.41610 0.10500
C 	C 	0.47860 0.98340 0.35060 0.09300
H 	H 	0.44360 0.97520 0.34540 -0.01900
N 	N 	0.86290 0.44040 0.69730 -0.22800
N 	N 	0.93800 0.39080 0.71900 -0.12100
N 	N 	0.95240 0.42890 0.75470 -0.17400
C 	C 	0.81440 0.43610 0.67580 0.17200
H 	H 	0.79170 0.46390 0.68210 -0.04400
C 	C 	0.79620 0.39890 0.64810 -0.29400
H 	H 	0.76460 0.40170 0.63030 0.12500
C 	C 	0.82520 0.35570 0.64610 0.19700
H 	H 	0.81110 0.32650 0.62970 -0.05300
C 	C 	0.87330 0.35130 0.66630 -0.25300
H 	H 	0.89340 0.32110 0.66300 0.11100
C 	C 	0.89150 0.39740 0.69370 0.17500
C 	C 	0.00120 0.42770 0.77170 0.26600
C 	C 	0.04110 0.39060 0.74930 -0.75900
H 	H 	0.02560 0.37100 0.72130 0.25400
H 	H 	0.05270 0.36710 0.77610 0.24900
H 	H 	0.07030 0.41010 0.73620 0.24800
C 	C 	0.01730 0.45960 0.81320 -0.16900
C 	C 	0.07060 0.47870 0.82260 0.08800
H 	H 	0.09700 0.46880 0.79960 -0.01700
C 	C 	0.08330 0.51080 0.86400 -0.22300
H 	H 	0.11780 0.52010 0.87050 0.09900
C 	C 	0.04670 0.52730 0.89320 0.15600
C 	C 	0.99010 0.51660 0.89250 -0.17100
H 	H 	0.96590 0.52990 0.91610 0.09700
C 	C 	0.97860 0.48340 0.85060 0.07300
H 	H 	0.94360 0.47520 0.84540 -0.01400
N 	N 	0.63710 0.44040 0.30270 -0.22800
N 	N 	0.56200 0.39080 0.28100 -0.12300
N 	N 	0.54760 0.42890 0.24530 -0.18000
C 	C 	0.68560 0.43610 0.32420 0.17100
H 	H 	0.70830 0.46390 0.31790 -0.04400
C 	C 	0.70380 0.39890 0.35190 -0.29400
H 	H 	0.73540 0.40170 0.36970 0.12500
C 	C 	0.67480 0.35570 0.35390 0.19600
H 	H 	0.68890 0.32650 0.37030 -0.05300
C 	C 	0.62670 0.35130 0.33370 -0.25300
H 	H 	0.60660 0.32110 0.33700 0.11000
C 	C 	0.60850 0.39740 0.30630 0.17400
C 	C 	0.49880 0.42770 0.22830 0.27500
C 	C 	0.45890 0.39060 0.25070 -0.76900
H 	H 	0.47440 0.37100 0.27870 0.26000
H 	H 	0.44730 0.36710 0.22390 0.25300
H 	H 	0.42970 0.41010 0.26380 0.25100
C 	C 	0.48270 0.45960 0.18680 -0.16700
C 	C 	0.42940 0.47870 0.17740 0.09100
H 	H 	0.40300 0.46880 0.20040 -0.01800
C 	C 	0.41670 0.51080 0.13600 -0.23000
H 	H 	0.38220 0.52010 0.12950 0.10100
C 	C 	0.45330 0.52730 0.10680 0.16500
C 	C 	0.50990 0.51660 0.10750 -0.18100
H 	H 	0.53410 0.52990 0.08390 0.09600
C 	C 	0.52140 0.48340 0.14940 0.06700
H 	H 	0.55640 0.47520 0.15460 -0.01400
N 	N 	0.13710 0.94040 0.80270 -0.22600
N 	N 	0.06200 0.89080 0.78100 -0.12400
N 	N 	0.04760 0.92890 0.74530 -0.18500
C 	C 	0.18560 0.93610 0.82420 0.17200
H 	H 	0.20830 0.96390 0.81790 -0.04200
C 	C 	0.20380 0.89890 0.85190 -0.29300
H 	H 	0.23540 0.90170 0.86970 0.12700
C 	C 	0.17480 0.85570 0.85390 0.19700
H 	H 	0.18890 0.82650 0.87030 -0.05300
C 	C 	0.12670 0.85130 0.83370 -0.25300
H 	H 	0.10660 0.82110 0.83700 0.10900
C 	C 	0.10850 0.89740 0.80630 0.17500
C 	C 	0.99880 0.92770 0.72830 0.29400
C 	C 	0.95890 0.89060 0.75070 -0.79100
H 	H 	0.97440 0.87100 0.77870 0.26900
H 	H 	0.94730 0.86710 0.72390 0.26100
H 	H 	0.92970 0.91010 0.76380 0.25900
C 	C 	0.98270 0.95960 0.68680 -0.17800
C 	C 	0.92940 0.97870 0.67740 0.12300
H 	H 	0.90300 0.96880 0.70040 -0.02700
C 	C 	0.91670 0.01080 0.63600 -0.26700
H 	H 	0.88220 0.02010 0.62950 0.11200
C 	C 	0.95330 0.02730 0.60680 0.19200
C 	C 	0.00990 0.01660 0.60750 -0.21800
H 	H 	0.03410 0.02990 0.58390 0.10600
C 	C 	0.02140 0.98340 0.64940 0.08800
H 	H 	0.05640 0.97520 0.65460 -0.01900
Ag	Ag	0.75000 0.89321 0.50000 0.54800
Ag	Ag	0.75000 0.10679 -0.00000 0.54300
Ag	Ag	0.25000 0.39321 -0.00000 0.54300
Ag	Ag	0.25000 0.60679 0.50000 0.54800
Ag	Ag	0.50000 0.75000 0.89321 0.54800
Ag	Ag	0.00000 0.75000 0.10679 0.54300
Ag	Ag	0.00000 0.25000 0.39321 0.54300
Ag	Ag	0.50000 0.25000 0.60679 0.54800
Ag	Ag	0.89321 0.50000 0.75000 0.54800
Ag	Ag	0.10679 0.00000 0.75000 0.54300
Ag	Ag	0.39321 0.00000 0.25000 0.54300
Ag	Ag	0.60679 0.50000 0.25000 0.54800
N 	N 	0.56050 0.06050 0.43950 -0.17700
N 	N 	0.06050 0.56050 0.93950 -0.17600
N 	N 	0.93950 0.93950 0.93950 -0.17200
N 	N 	0.43950 0.43950 0.43950 -0.17600
N 	N 	0.43950 0.56050 0.06050 -0.17700
N 	N 	0.93950 0.06050 0.56050 -0.17600
N 	N 	0.06050 0.43950 0.56050 -0.17700
N 	N 	0.56050 0.93950 0.06050 -0.17600
