data_crystal

_cell_length_a 25.38100
_cell_length_b 25.38100
_cell_length_c 25.38100
_cell_angle_alpha 90.00000
_cell_angle_beta  90.00000
_cell_angle_gamma 90.00000

_symmetry_space_group_name_	'P 1'
_symmetry_space_group_name_H-M	'P 1'

loop_
_symmetry_equiv_pos_as_xyz
  x,y,z

loop_
_atom_site_label
_atom_site_type_symbol
_atom_site_fract_x
_atom_site_fract_y
_atom_site_fract_z
_atom_site_charge
N 	N 	0.63780 0.93700 0.69640 -0.20700
N 	N 	0.56230 0.89200 0.71640 -0.19100
H 	H 	0.53950 0.86800 0.70910 0.09600
N 	N 	0.55050 0.92810 0.75250 -0.17600
C 	C 	0.68460 0.93790 0.67410 0.09100
H 	H 	0.70530 0.96770 0.67850 -0.02200
C 	C 	0.70530 0.89540 0.64350 -0.18400
H 	H 	0.73710 0.89830 0.62560 0.08600
C 	C 	0.67580 0.85020 0.64210 0.11900
H 	H 	0.68900 0.82030 0.62560 -0.03100
C 	C 	0.62720 0.84920 0.66490 -0.23100
H 	H 	0.60710 0.81880 0.66200 0.09400
C 	C 	0.60680 0.89180 0.69210 0.18700
C 	C 	0.50260 0.92640 0.76920 0.28300
C 	C 	0.46010 0.89200 0.74650 -0.75600
H 	H 	0.47470 0.87030 0.71910 0.23800
H 	H 	0.43260 0.91370 0.73210 0.24500
H 	H 	0.44580 0.87000 0.77370 0.24500
C 	C 	0.48750 0.96000 0.81450 -0.23200
C 	C 	0.43560 0.97730 0.82260 0.16400
H 	H 	0.41000 0.96740 0.79840 -0.04500
C 	C 	0.42020 0.00870 0.86520 -0.30700
H 	H 	0.38510 0.01690 0.87130 0.11900
C 	C 	0.45730 0.02580 0.89570 0.23400
C 	C 	0.51050 0.01310 0.88900 -0.30000
H 	H 	0.53620 0.02580 0.91180 0.13600
C 	C 	0.52310 0.98180 0.84820 0.19700
H 	H 	0.55860 0.97460 0.84250 -0.05700
N 	N 	0.13780 0.43700 0.19640 -0.20800
N 	N 	0.06230 0.39200 0.21640 -0.19100
H 	H 	0.03950 0.36800 0.20910 0.09600
N 	N 	0.05050 0.42810 0.25250 -0.17000
C 	C 	0.18460 0.43790 0.17410 0.09000
H 	H 	0.20530 0.46770 0.17850 -0.02300
C 	C 	0.20530 0.39540 0.14350 -0.18400
H 	H 	0.23710 0.39830 0.12560 0.08400
C 	C 	0.17580 0.35020 0.14210 0.11800
H 	H 	0.18900 0.32030 0.12560 -0.03100
C 	C 	0.12720 0.34920 0.16490 -0.23000
H 	H 	0.10710 0.31880 0.16200 0.09400
C 	C 	0.10680 0.39180 0.19210 0.18600
C 	C 	0.00260 0.42640 0.26920 0.24800
C 	C 	0.96010 0.39200 0.24650 -0.70900
H 	H 	0.97470 0.37030 0.21910 0.22800
H 	H 	0.93260 0.41370 0.23210 0.23200
H 	H 	0.94580 0.37000 0.27370 0.23300
C 	C 	0.98750 0.46000 0.31450 -0.18100
C 	C 	0.93560 0.47730 0.32260 0.11800
H 	H 	0.91000 0.46740 0.29840 -0.02900
C 	C 	0.92020 0.50870 0.36520 -0.26200
H 	H 	0.88510 0.51690 0.37130 0.10800
C 	C 	0.95730 0.52580 0.39570 0.21200
C 	C 	0.01050 0.51310 0.38900 -0.26000
H 	H 	0.03620 0.52580 0.41180 0.12000
C 	C 	0.02310 0.48180 0.34820 0.13700
H 	H 	0.05860 0.47460 0.34250 -0.04100
N 	N 	0.86220 0.06300 0.19640 -0.20900
N 	N 	0.93770 0.10800 0.21640 -0.19100
H 	H 	0.96050 0.13200 0.20910 0.09800
N 	N 	0.94950 0.07190 0.25250 -0.17600
C 	C 	0.81540 0.06210 0.17410 0.09000
H 	H 	0.79470 0.03230 0.17850 -0.02500
C 	C 	0.79470 0.10460 0.14350 -0.18500
H 	H 	0.76290 0.10170 0.12560 0.08400
C 	C 	0.82420 0.14980 0.14210 0.11900
H 	H 	0.81100 0.17970 0.12560 -0.03100
C 	C 	0.87280 0.15080 0.16490 -0.23100
H 	H 	0.89290 0.18120 0.16200 0.09600
C 	C 	0.89320 0.10820 0.19210 0.18700
C 	C 	0.99740 0.07360 0.26920 0.28400
C 	C 	0.03990 0.10800 0.24650 -0.75900
H 	H 	0.02530 0.12970 0.21910 0.23700
H 	H 	0.06740 0.08630 0.23210 0.24400
H 	H 	0.05420 0.13000 0.27370 0.24600
C 	C 	0.01250 0.04000 0.31450 -0.21200
C 	C 	0.06440 0.02270 0.32260 0.11300
H 	H 	0.09000 0.03260 0.29840 -0.03000
C 	C 	0.07980 0.99130 0.36520 -0.24600
H 	H 	0.11490 0.98310 0.37130 0.10400
C 	C 	0.04270 0.97420 0.39570 0.19100
C 	C 	0.98950 0.98690 0.38900 -0.23300
H 	H 	0.96380 0.97420 0.41180 0.11700
C 	C 	0.97690 0.01820 0.34820 0.14600
H 	H 	0.94140 0.02540 0.34250 -0.04400
N 	N 	0.36220 0.56300 0.69640 -0.20800
N 	N 	0.43770 0.60800 0.71640 -0.19000
H 	H 	0.46050 0.63200 0.70910 0.09700
N 	N 	0.44950 0.57190 0.75250 -0.17400
C 	C 	0.31540 0.56210 0.67410 0.09100
H 	H 	0.29470 0.53230 0.67850 -0.02300
C 	C 	0.29470 0.60460 0.64350 -0.18400
H 	H 	0.26290 0.60170 0.62560 0.08500
C 	C 	0.32420 0.64980 0.64210 0.11900
H 	H 	0.31100 0.67970 0.62560 -0.03000
C 	C 	0.37280 0.65080 0.66490 -0.23000
H 	H 	0.39290 0.68120 0.66200 0.09500
C 	C 	0.39320 0.60820 0.69210 0.18700
C 	C 	0.49740 0.57360 0.76920 0.27200
C 	C 	0.53990 0.60800 0.74650 -0.74200
H 	H 	0.52530 0.62970 0.71910 0.23500
H 	H 	0.56740 0.58630 0.73210 0.24100
H 	H 	0.55420 0.63000 0.77370 0.24200
C 	C 	0.51250 0.54000 0.81450 -0.20800
C 	C 	0.56440 0.52270 0.82260 0.13200
H 	H 	0.59000 0.53260 0.79840 -0.03400
C 	C 	0.57980 0.49130 0.86520 -0.27100
H 	H 	0.61490 0.48310 0.87130 0.11100
C 	C 	0.54270 0.47420 0.89570 0.21300
C 	C 	0.48950 0.48690 0.88900 -0.26500
H 	H 	0.46380 0.47420 0.91180 0.12500
C 	C 	0.47690 0.51820 0.84820 0.16100
H 	H 	0.44140 0.52540 0.84250 -0.04800
N 	N 	0.36220 0.43700 0.80360 -0.20800
N 	N 	0.43770 0.39200 0.78360 -0.19000
H 	H 	0.46050 0.36800 0.79090 0.09700
N 	N 	0.44950 0.42810 0.74750 -0.17400
C 	C 	0.31540 0.43790 0.82590 0.09100
H 	H 	0.29470 0.46770 0.82150 -0.02300
C 	C 	0.29470 0.39540 0.85650 -0.18400
H 	H 	0.26290 0.39830 0.87440 0.08600
C 	C 	0.32420 0.35020 0.85790 0.11900
H 	H 	0.31100 0.32030 0.87440 -0.02900
C 	C 	0.37280 0.34920 0.83510 -0.23000
H 	H 	0.39290 0.31880 0.83800 0.09500
C 	C 	0.39320 0.39180 0.80790 0.18700
C 	C 	0.49740 0.42640 0.73080 0.27200
C 	C 	0.53990 0.39200 0.75350 -0.74200
H 	H 	0.52530 0.37030 0.78090 0.23500
H 	H 	0.56740 0.41370 0.76790 0.24100
H 	H 	0.55420 0.37000 0.72630 0.24200
C 	C 	0.51250 0.46000 0.68550 -0.20900
C 	C 	0.56440 0.47730 0.67740 0.13200
H 	H 	0.59000 0.46740 0.70160 -0.03400
C 	C 	0.57980 0.50870 0.63480 -0.27200
H 	H 	0.61490 0.51690 0.62870 0.11100
C 	C 	0.54270 0.52580 0.60430 0.21300
C 	C 	0.48950 0.51310 0.61100 -0.26500
H 	H 	0.46380 0.52580 0.58820 0.12400
C 	C 	0.47690 0.48180 0.65180 0.16100
H 	H 	0.44140 0.47460 0.65750 -0.04800
N 	N 	0.86220 0.93700 0.30360 -0.20600
N 	N 	0.93770 0.89200 0.28360 -0.18900
H 	H 	0.96050 0.86800 0.29090 0.09800
N 	N 	0.94950 0.92810 0.24750 -0.17900
C 	C 	0.81540 0.93790 0.32590 0.09200
H 	H 	0.79470 0.96770 0.32150 -0.02100
C 	C 	0.79470 0.89540 0.35650 -0.18400
H 	H 	0.76290 0.89830 0.37440 0.08600
C 	C 	0.82420 0.85020 0.35790 0.12000
H 	H 	0.81100 0.82030 0.37440 -0.03000
C 	C 	0.87280 0.84920 0.33510 -0.23100
H 	H 	0.89290 0.81880 0.33800 0.09600
C 	C 	0.89320 0.89180 0.30790 0.18800
C 	C 	0.99740 0.92640 0.23080 0.30900
C 	C 	0.03990 0.89200 0.25350 -0.78700
H 	H 	0.02530 0.87030 0.28090 0.24500
H 	H 	0.06740 0.91370 0.26790 0.25400
H 	H 	0.05420 0.87000 0.22630 0.25400
C 	C 	0.01250 0.96000 0.18550 -0.26000
C 	C 	0.06440 0.97730 0.17740 0.17800
H 	H 	0.09000 0.96740 0.20160 -0.04900
C 	C 	0.07980 0.00870 0.13480 -0.31600
H 	H 	0.11490 0.01690 0.12870 0.12400
C 	C 	0.04270 0.02580 0.10430 0.23600
C 	C 	0.98950 0.01310 0.11100 -0.30700
H 	H 	0.96380 0.02580 0.08820 0.13800
C 	C 	0.97690 0.98180 0.15180 0.22000
H 	H 	0.94140 0.97460 0.15750 -0.06500
N 	N 	0.13780 0.56300 0.30360 -0.20800
N 	N 	0.06230 0.60800 0.28360 -0.19100
H 	H 	0.03950 0.63200 0.29090 0.09600
N 	N 	0.05050 0.57190 0.24750 -0.17100
C 	C 	0.18460 0.56210 0.32590 0.09000
H 	H 	0.20530 0.53230 0.32150 -0.02300
C 	C 	0.20530 0.60460 0.35650 -0.18400
H 	H 	0.23710 0.60170 0.37440 0.08500
C 	C 	0.17580 0.64980 0.35790 0.11800
H 	H 	0.18900 0.67970 0.37440 -0.03000
C 	C 	0.12720 0.65080 0.33510 -0.23000
H 	H 	0.10710 0.68120 0.33800 0.09400
C 	C 	0.10680 0.60820 0.30790 0.18600
C 	C 	0.00260 0.57360 0.23080 0.24800
C 	C 	0.96010 0.60800 0.25350 -0.70900
H 	H 	0.97470 0.62970 0.28090 0.22800
H 	H 	0.93260 0.58630 0.26790 0.23200
H 	H 	0.94580 0.63000 0.22630 0.23300
C 	C 	0.98750 0.54000 0.18550 -0.18100
C 	C 	0.93560 0.52270 0.17740 0.11800
H 	H 	0.91000 0.53260 0.20160 -0.02900
C 	C 	0.92020 0.49130 0.13480 -0.26300
H 	H 	0.88510 0.48310 0.12870 0.10800
C 	C 	0.95730 0.47420 0.10430 0.21200
C 	C 	0.01050 0.48690 0.11100 -0.26000
H 	H 	0.03620 0.47420 0.08820 0.12000
C 	C 	0.02310 0.51820 0.15180 0.13700
H 	H 	0.05860 0.52540 0.15750 -0.04100
N 	N 	0.63780 0.06300 0.80360 -0.20900
N 	N 	0.56230 0.10800 0.78360 -0.19100
H 	H 	0.53950 0.13200 0.79090 0.09800
N 	N 	0.55050 0.07190 0.74750 -0.17300
C 	C 	0.68460 0.06210 0.82590 0.09100
H 	H 	0.70530 0.03230 0.82150 -0.02400
C 	C 	0.70530 0.10460 0.85650 -0.18400
H 	H 	0.73710 0.10170 0.87440 0.08600
C 	C 	0.67580 0.14980 0.85790 0.11900
H 	H 	0.68900 0.17970 0.87440 -0.02900
C 	C 	0.62720 0.15080 0.83510 -0.23000
H 	H 	0.60710 0.18120 0.83800 0.09500
C 	C 	0.60680 0.10820 0.80790 0.18600
C 	C 	0.50260 0.07360 0.73080 0.26100
C 	C 	0.46010 0.10800 0.75350 -0.72800
H 	H 	0.47470 0.12970 0.78090 0.23100
H 	H 	0.43260 0.08630 0.76790 0.23600
H 	H 	0.44580 0.13000 0.72630 0.23800
C 	C 	0.48750 0.04000 0.68550 -0.18500
C 	C 	0.43560 0.02270 0.67740 0.09900
H 	H 	0.41000 0.03260 0.70160 -0.02500
C 	C 	0.42020 0.99130 0.63480 -0.23700
H 	H 	0.38510 0.98310 0.62870 0.10100
C 	C 	0.45730 0.97420 0.60430 0.19100
C 	C 	0.51050 0.98690 0.61100 -0.22900
H 	H 	0.53620 0.97420 0.58820 0.11300
C 	C 	0.52310 0.01820 0.65180 0.12400
H 	H 	0.55860 0.02540 0.65750 -0.03800
N 	N 	0.69640 0.63780 0.93700 -0.20600
N 	N 	0.71640 0.56230 0.89200 -0.19000
H 	H 	0.70910 0.53950 0.86800 0.09700
N 	N 	0.75250 0.55050 0.92810 -0.17500
C 	C 	0.67410 0.68460 0.93790 0.09200
H 	H 	0.67850 0.70530 0.96770 -0.02100
C 	C 	0.64350 0.70530 0.89540 -0.18300
H 	H 	0.62560 0.73710 0.89830 0.08700
C 	C 	0.64210 0.67580 0.85020 0.12000
H 	H 	0.62560 0.68900 0.82030 -0.03000
C 	C 	0.66490 0.62720 0.84920 -0.23000
H 	H 	0.66200 0.60710 0.81880 0.09500
C 	C 	0.69210 0.60680 0.89180 0.18800
C 	C 	0.76920 0.50260 0.92640 0.28400
C 	C 	0.74650 0.46010 0.89200 -0.75500
H 	H 	0.71910 0.47470 0.87030 0.23900
H 	H 	0.73210 0.43260 0.91370 0.24600
H 	H 	0.77370 0.44580 0.87000 0.24600
C 	C 	0.81450 0.48750 0.96000 -0.23100
C 	C 	0.82260 0.43560 0.97730 0.16500
H 	H 	0.79840 0.41000 0.96740 -0.04400
C 	C 	0.86520 0.42020 0.00870 -0.30600
H 	H 	0.87130 0.38510 0.01690 0.12000
C 	C 	0.89570 0.45730 0.02580 0.23400
C 	C 	0.88900 0.51050 0.01310 -0.30000
H 	H 	0.91180 0.53620 0.02580 0.13600
C 	C 	0.84820 0.52310 0.98180 0.19700
H 	H 	0.84250 0.55860 0.97460 -0.05700
N 	N 	0.19640 0.13780 0.43700 -0.20800
N 	N 	0.21640 0.06230 0.39200 -0.19100
H 	H 	0.20910 0.03950 0.36800 0.09600
N 	N 	0.25250 0.05050 0.42810 -0.17000
C 	C 	0.17410 0.18460 0.43790 0.09000
H 	H 	0.17850 0.20530 0.46770 -0.02300
C 	C 	0.14350 0.20530 0.39540 -0.18400
H 	H 	0.12560 0.23710 0.39830 0.08400
C 	C 	0.14210 0.17580 0.35020 0.11800
H 	H 	0.12560 0.18900 0.32030 -0.03100
C 	C 	0.16490 0.12720 0.34920 -0.23000
H 	H 	0.16200 0.10710 0.31880 0.09400
C 	C 	0.19210 0.10680 0.39180 0.18600
C 	C 	0.26920 0.00260 0.42640 0.24800
C 	C 	0.24650 0.96010 0.39200 -0.70900
H 	H 	0.21910 0.97470 0.37030 0.22800
H 	H 	0.23210 0.93260 0.41370 0.23200
H 	H 	0.27370 0.94580 0.37000 0.23300
C 	C 	0.31450 0.98750 0.46000 -0.18100
C 	C 	0.32260 0.93560 0.47730 0.11800
H 	H 	0.29840 0.91000 0.46740 -0.02900
C 	C 	0.36520 0.92020 0.50870 -0.26200
H 	H 	0.37130 0.88510 0.51690 0.10800
C 	C 	0.39570 0.95730 0.52580 0.21200
C 	C 	0.38900 0.01050 0.51310 -0.26000
H 	H 	0.41180 0.03620 0.52580 0.12000
C 	C 	0.34820 0.02310 0.48180 0.13700
H 	H 	0.34250 0.05860 0.47460 -0.04100
N 	N 	0.19640 0.86220 0.06300 -0.20900
N 	N 	0.21640 0.93770 0.10800 -0.19100
H 	H 	0.20910 0.96050 0.13200 0.09800
N 	N 	0.25250 0.94950 0.07190 -0.17600
C 	C 	0.17410 0.81540 0.06210 0.09000
H 	H 	0.17850 0.79470 0.03230 -0.02500
C 	C 	0.14350 0.79470 0.10460 -0.18500
H 	H 	0.12560 0.76290 0.10170 0.08400
C 	C 	0.14210 0.82420 0.14980 0.11900
H 	H 	0.12560 0.81100 0.17970 -0.03100
C 	C 	0.16490 0.87280 0.15080 -0.23100
H 	H 	0.16200 0.89290 0.18120 0.09600
C 	C 	0.19210 0.89320 0.10820 0.18700
C 	C 	0.26920 0.99740 0.07360 0.28400
C 	C 	0.24650 0.03990 0.10800 -0.75900
H 	H 	0.21910 0.02530 0.12970 0.23700
H 	H 	0.23210 0.06740 0.08630 0.24400
H 	H 	0.27370 0.05420 0.13000 0.24600
C 	C 	0.31450 0.01250 0.04000 -0.21200
C 	C 	0.32260 0.06440 0.02270 0.11300
H 	H 	0.29840 0.09000 0.03260 -0.03000
C 	C 	0.36520 0.07980 0.99130 -0.24600
H 	H 	0.37130 0.11490 0.98310 0.10400
C 	C 	0.39570 0.04270 0.97420 0.19100
C 	C 	0.38900 0.98950 0.98690 -0.23300
H 	H 	0.41180 0.96380 0.97420 0.11700
C 	C 	0.34820 0.97690 0.01820 0.14600
H 	H 	0.34250 0.94140 0.02540 -0.04400
N 	N 	0.69640 0.36220 0.56300 -0.20800
N 	N 	0.71640 0.43770 0.60800 -0.19000
H 	H 	0.70910 0.46050 0.63200 0.09700
N 	N 	0.75250 0.44950 0.57190 -0.17400
C 	C 	0.67410 0.31540 0.56210 0.09100
H 	H 	0.67850 0.29470 0.53230 -0.02300
C 	C 	0.64350 0.29470 0.60460 -0.18400
H 	H 	0.62560 0.26290 0.60170 0.08500
C 	C 	0.64210 0.32420 0.64980 0.11900
H 	H 	0.62560 0.31100 0.67970 -0.03000
C 	C 	0.66490 0.37280 0.65080 -0.23000
H 	H 	0.66200 0.39290 0.68120 0.09500
C 	C 	0.69210 0.39320 0.60820 0.18700
C 	C 	0.76920 0.49740 0.57360 0.27200
C 	C 	0.74650 0.53990 0.60800 -0.74200
H 	H 	0.71910 0.52530 0.62970 0.23500
H 	H 	0.73210 0.56740 0.58630 0.24100
H 	H 	0.77370 0.55420 0.63000 0.24200
C 	C 	0.81450 0.51250 0.54000 -0.20800
C 	C 	0.82260 0.56440 0.52270 0.13200
H 	H 	0.79840 0.59000 0.53260 -0.03400
C 	C 	0.86520 0.57980 0.49130 -0.27100
H 	H 	0.87130 0.61490 0.48310 0.11100
C 	C 	0.89570 0.54270 0.47420 0.21300
C 	C 	0.88900 0.48950 0.48690 -0.26500
H 	H 	0.91180 0.46380 0.47420 0.12500
C 	C 	0.84820 0.47690 0.51820 0.16100
H 	H 	0.84250 0.44140 0.52540 -0.04800
N 	N 	0.80360 0.36220 0.43700 -0.20800
N 	N 	0.78360 0.43770 0.39200 -0.19000
H 	H 	0.79090 0.46050 0.36800 0.09700
N 	N 	0.74750 0.44950 0.42810 -0.17400
C 	C 	0.82590 0.31540 0.43790 0.09100
H 	H 	0.82150 0.29470 0.46770 -0.02300
C 	C 	0.85650 0.29470 0.39540 -0.18400
H 	H 	0.87440 0.26290 0.39830 0.08600
C 	C 	0.85790 0.32420 0.35020 0.11900
H 	H 	0.87440 0.31100 0.32030 -0.02900
C 	C 	0.83510 0.37280 0.34920 -0.23000
H 	H 	0.83800 0.39290 0.31880 0.09500
C 	C 	0.80790 0.39320 0.39180 0.18700
C 	C 	0.73080 0.49740 0.42640 0.27200
C 	C 	0.75350 0.53990 0.39200 -0.74200
H 	H 	0.78090 0.52530 0.37030 0.23500
H 	H 	0.76790 0.56740 0.41370 0.24100
H 	H 	0.72630 0.55420 0.37000 0.24200
C 	C 	0.68550 0.51250 0.46000 -0.20900
C 	C 	0.67740 0.56440 0.47730 0.13200
H 	H 	0.70160 0.59000 0.46740 -0.03400
C 	C 	0.63480 0.57980 0.50870 -0.27200
H 	H 	0.62870 0.61490 0.51690 0.11100
C 	C 	0.60430 0.54270 0.52580 0.21300
C 	C 	0.61100 0.48950 0.51310 -0.26500
H 	H 	0.58820 0.46380 0.52580 0.12400
C 	C 	0.65180 0.47690 0.48180 0.16100
H 	H 	0.65750 0.44140 0.47460 -0.04800
N 	N 	0.30360 0.86220 0.93700 -0.20600
N 	N 	0.28360 0.93770 0.89200 -0.18900
H 	H 	0.29090 0.96050 0.86800 0.09800
N 	N 	0.24750 0.94950 0.92810 -0.17900
C 	C 	0.32590 0.81540 0.93790 0.09200
H 	H 	0.32150 0.79470 0.96770 -0.02100
C 	C 	0.35650 0.79470 0.89540 -0.18400
H 	H 	0.37440 0.76290 0.89830 0.08600
C 	C 	0.35790 0.82420 0.85020 0.12000
H 	H 	0.37440 0.81100 0.82030 -0.03000
C 	C 	0.33510 0.87280 0.84920 -0.23100
H 	H 	0.33800 0.89290 0.81880 0.09600
C 	C 	0.30790 0.89320 0.89180 0.18800
C 	C 	0.23080 0.99740 0.92640 0.30900
C 	C 	0.25350 0.03990 0.89200 -0.78700
H 	H 	0.28090 0.02530 0.87030 0.24500
H 	H 	0.26790 0.06740 0.91370 0.25400
H 	H 	0.22630 0.05420 0.87000 0.25400
C 	C 	0.18550 0.01250 0.96000 -0.26000
C 	C 	0.17740 0.06440 0.97730 0.17800
H 	H 	0.20160 0.09000 0.96740 -0.04900
C 	C 	0.13480 0.07980 0.00870 -0.31600
H 	H 	0.12870 0.11490 0.01690 0.12400
C 	C 	0.10430 0.04270 0.02580 0.23600
C 	C 	0.11100 0.98950 0.01310 -0.30700
H 	H 	0.08820 0.96380 0.02580 0.13800
C 	C 	0.15180 0.97690 0.98180 0.22000
H 	H 	0.15750 0.94140 0.97460 -0.06500
N 	N 	0.30360 0.13780 0.56300 -0.20800
N 	N 	0.28360 0.06230 0.60800 -0.19100
H 	H 	0.29090 0.03950 0.63200 0.09600
N 	N 	0.24750 0.05050 0.57190 -0.17100
C 	C 	0.32590 0.18460 0.56210 0.09000
H 	H 	0.32150 0.20530 0.53230 -0.02300
C 	C 	0.35650 0.20530 0.60460 -0.18400
H 	H 	0.37440 0.23710 0.60170 0.08500
C 	C 	0.35790 0.17580 0.64980 0.11800
H 	H 	0.37440 0.18900 0.67970 -0.03000
C 	C 	0.33510 0.12720 0.65080 -0.23000
H 	H 	0.33800 0.10710 0.68120 0.09400
C 	C 	0.30790 0.10680 0.60820 0.18600
C 	C 	0.23080 0.00260 0.57360 0.24800
C 	C 	0.25350 0.96010 0.60800 -0.70900
H 	H 	0.28090 0.97470 0.62970 0.22800
H 	H 	0.26790 0.93260 0.58630 0.23200
H 	H 	0.22630 0.94580 0.63000 0.23300
C 	C 	0.18550 0.98750 0.54000 -0.18100
C 	C 	0.17740 0.93560 0.52270 0.11800
H 	H 	0.20160 0.91000 0.53260 -0.02900
C 	C 	0.13480 0.92020 0.49130 -0.26300
H 	H 	0.12870 0.88510 0.48310 0.10800
C 	C 	0.10430 0.95730 0.47420 0.21200
C 	C 	0.11100 0.01050 0.48690 -0.26000
H 	H 	0.08820 0.03620 0.47420 0.12000
C 	C 	0.15180 0.02310 0.51820 0.13700
H 	H 	0.15750 0.05860 0.52540 -0.04100
N 	N 	0.80360 0.63780 0.06300 -0.20900
N 	N 	0.78360 0.56230 0.10800 -0.19100
H 	H 	0.79090 0.53950 0.13200 0.09800
N 	N 	0.74750 0.55050 0.07190 -0.17300
C 	C 	0.82590 0.68460 0.06210 0.09100
H 	H 	0.82150 0.70530 0.03230 -0.02400
C 	C 	0.85650 0.70530 0.10460 -0.18400
H 	H 	0.87440 0.73710 0.10170 0.08600
C 	C 	0.85790 0.67580 0.14980 0.11900
H 	H 	0.87440 0.68900 0.17970 -0.02900
C 	C 	0.83510 0.62720 0.15080 -0.23000
H 	H 	0.83800 0.60710 0.18120 0.09500
C 	C 	0.80790 0.60680 0.10820 0.18600
C 	C 	0.73080 0.50260 0.07360 0.26100
C 	C 	0.75350 0.46010 0.10800 -0.72800
H 	H 	0.78090 0.47470 0.12970 0.23100
H 	H 	0.76790 0.43260 0.08630 0.23600
H 	H 	0.72630 0.44580 0.13000 0.23800
C 	C 	0.68550 0.48750 0.04000 -0.18500
C 	C 	0.67740 0.43560 0.02270 0.09900
H 	H 	0.70160 0.41000 0.03260 -0.02500
C 	C 	0.63480 0.42020 0.99130 -0.23700
H 	H 	0.62870 0.38510 0.98310 0.10100
C 	C 	0.60430 0.45730 0.97420 0.19100
C 	C 	0.61100 0.51050 0.98690 -0.22900
H 	H 	0.58820 0.53620 0.97420 0.11300
C 	C 	0.65180 0.52310 0.01820 0.12400
H 	H 	0.65750 0.55860 0.02540 -0.03800
N 	N 	0.93700 0.69640 0.63780 -0.20600
N 	N 	0.89200 0.71640 0.56230 -0.19000
H 	H 	0.86800 0.70910 0.53950 0.09700
N 	N 	0.92810 0.75250 0.55050 -0.17500
C 	C 	0.93790 0.67410 0.68460 0.09200
H 	H 	0.96770 0.67850 0.70530 -0.02100
C 	C 	0.89540 0.64350 0.70530 -0.18300
H 	H 	0.89830 0.62560 0.73710 0.08700
C 	C 	0.85020 0.64210 0.67580 0.12000
H 	H 	0.82030 0.62560 0.68900 -0.03000
C 	C 	0.84920 0.66490 0.62720 -0.23000
H 	H 	0.81880 0.66200 0.60710 0.09500
C 	C 	0.89180 0.69210 0.60680 0.18800
C 	C 	0.92640 0.76920 0.50260 0.28400
C 	C 	0.89200 0.74650 0.46010 -0.75500
H 	H 	0.87030 0.71910 0.47470 0.23900
H 	H 	0.91370 0.73210 0.43260 0.24600
H 	H 	0.87000 0.77370 0.44580 0.24600
C 	C 	0.96000 0.81450 0.48750 -0.23100
C 	C 	0.97730 0.82260 0.43560 0.16500
H 	H 	0.96740 0.79840 0.41000 -0.04400
C 	C 	0.00870 0.86520 0.42020 -0.30600
H 	H 	0.01690 0.87130 0.38510 0.12000
C 	C 	0.02580 0.89570 0.45730 0.23400
C 	C 	0.01310 0.88900 0.51050 -0.30000
H 	H 	0.02580 0.91180 0.53620 0.13600
C 	C 	0.98180 0.84820 0.52310 0.19700
H 	H 	0.97460 0.84250 0.55860 -0.05700
N 	N 	0.43700 0.19640 0.13780 -0.20800
N 	N 	0.39200 0.21640 0.06230 -0.19100
H 	H 	0.36800 0.20910 0.03950 0.09600
N 	N 	0.42810 0.25250 0.05050 -0.17000
C 	C 	0.43790 0.17410 0.18460 0.09000
H 	H 	0.46770 0.17850 0.20530 -0.02300
C 	C 	0.39540 0.14350 0.20530 -0.18400
H 	H 	0.39830 0.12560 0.23710 0.08400
C 	C 	0.35020 0.14210 0.17580 0.11800
H 	H 	0.32030 0.12560 0.18900 -0.03100
C 	C 	0.34920 0.16490 0.12720 -0.23000
H 	H 	0.31880 0.16200 0.10710 0.09400
C 	C 	0.39180 0.19210 0.10680 0.18600
C 	C 	0.42640 0.26920 0.00260 0.24800
C 	C 	0.39200 0.24650 0.96010 -0.70900
H 	H 	0.37030 0.21910 0.97470 0.22800
H 	H 	0.41370 0.23210 0.93260 0.23200
H 	H 	0.37000 0.27370 0.94580 0.23300
C 	C 	0.46000 0.31450 0.98750 -0.18100
C 	C 	0.47730 0.32260 0.93560 0.11800
H 	H 	0.46740 0.29840 0.91000 -0.02900
C 	C 	0.50870 0.36520 0.92020 -0.26200
H 	H 	0.51690 0.37130 0.88510 0.10800
C 	C 	0.52580 0.39570 0.95730 0.21200
C 	C 	0.51310 0.38900 0.01050 -0.26000
H 	H 	0.52580 0.41180 0.03620 0.12000
C 	C 	0.48180 0.34820 0.02310 0.13700
H 	H 	0.47460 0.34250 0.05860 -0.04100
N 	N 	0.06300 0.19640 0.86220 -0.20900
N 	N 	0.10800 0.21640 0.93770 -0.19100
H 	H 	0.13200 0.20910 0.96050 0.09800
N 	N 	0.07190 0.25250 0.94950 -0.17600
C 	C 	0.06210 0.17410 0.81540 0.09000
H 	H 	0.03230 0.17850 0.79470 -0.02500
C 	C 	0.10460 0.14350 0.79470 -0.18500
H 	H 	0.10170 0.12560 0.76290 0.08400
C 	C 	0.14980 0.14210 0.82420 0.11900
H 	H 	0.17970 0.12560 0.81100 -0.03100
C 	C 	0.15080 0.16490 0.87280 -0.23100
H 	H 	0.18120 0.16200 0.89290 0.09600
C 	C 	0.10820 0.19210 0.89320 0.18700
C 	C 	0.07360 0.26920 0.99740 0.28400
C 	C 	0.10800 0.24650 0.03990 -0.75900
H 	H 	0.12970 0.21910 0.02530 0.23700
H 	H 	0.08630 0.23210 0.06740 0.24400
H 	H 	0.13000 0.27370 0.05420 0.24600
C 	C 	0.04000 0.31450 0.01250 -0.21200
C 	C 	0.02270 0.32260 0.06440 0.11300
H 	H 	0.03260 0.29840 0.09000 -0.03000
C 	C 	0.99130 0.36520 0.07980 -0.24600
H 	H 	0.98310 0.37130 0.11490 0.10400
C 	C 	0.97420 0.39570 0.04270 0.19100
C 	C 	0.98690 0.38900 0.98950 -0.23300
H 	H 	0.97420 0.41180 0.96380 0.11700
C 	C 	0.01820 0.34820 0.97690 0.14600
H 	H 	0.02540 0.34250 0.94140 -0.04400
N 	N 	0.56300 0.69640 0.36220 -0.20800
N 	N 	0.60800 0.71640 0.43770 -0.19000
H 	H 	0.63200 0.70910 0.46050 0.09700
N 	N 	0.57190 0.75250 0.44950 -0.17400
C 	C 	0.56210 0.67410 0.31540 0.09100
H 	H 	0.53230 0.67850 0.29470 -0.02300
C 	C 	0.60460 0.64350 0.29470 -0.18400
H 	H 	0.60170 0.62560 0.26290 0.08500
C 	C 	0.64980 0.64210 0.32420 0.11900
H 	H 	0.67970 0.62560 0.31100 -0.03000
C 	C 	0.65080 0.66490 0.37280 -0.23000
H 	H 	0.68120 0.66200 0.39290 0.09500
C 	C 	0.60820 0.69210 0.39320 0.18700
C 	C 	0.57360 0.76920 0.49740 0.27200
C 	C 	0.60800 0.74650 0.53990 -0.74200
H 	H 	0.62970 0.71910 0.52530 0.23500
H 	H 	0.58630 0.73210 0.56740 0.24100
H 	H 	0.63000 0.77370 0.55420 0.24200
C 	C 	0.54000 0.81450 0.51250 -0.20800
C 	C 	0.52270 0.82260 0.56440 0.13200
H 	H 	0.53260 0.79840 0.59000 -0.03400
C 	C 	0.49130 0.86520 0.57980 -0.27100
H 	H 	0.48310 0.87130 0.61490 0.11100
C 	C 	0.47420 0.89570 0.54270 0.21300
C 	C 	0.48690 0.88900 0.48950 -0.26500
H 	H 	0.47420 0.91180 0.46380 0.12500
C 	C 	0.51820 0.84820 0.47690 0.16100
H 	H 	0.52540 0.84250 0.44140 -0.04800
N 	N 	0.43700 0.80360 0.36220 -0.20800
N 	N 	0.39200 0.78360 0.43770 -0.19000
H 	H 	0.36800 0.79090 0.46050 0.09700
N 	N 	0.42810 0.74750 0.44950 -0.17400
C 	C 	0.43790 0.82590 0.31540 0.09100
H 	H 	0.46770 0.82150 0.29470 -0.02300
C 	C 	0.39540 0.85650 0.29470 -0.18400
H 	H 	0.39830 0.87440 0.26290 0.08600
C 	C 	0.35020 0.85790 0.32420 0.11900
H 	H 	0.32030 0.87440 0.31100 -0.02900
C 	C 	0.34920 0.83510 0.37280 -0.23000
H 	H 	0.31880 0.83800 0.39290 0.09500
C 	C 	0.39180 0.80790 0.39320 0.18700
C 	C 	0.42640 0.73080 0.49740 0.27200
C 	C 	0.39200 0.75350 0.53990 -0.74200
H 	H 	0.37030 0.78090 0.52530 0.23500
H 	H 	0.41370 0.76790 0.56740 0.24100
H 	H 	0.37000 0.72630 0.55420 0.24200
C 	C 	0.46000 0.68550 0.51250 -0.20900
C 	C 	0.47730 0.67740 0.56440 0.13200
H 	H 	0.46740 0.70160 0.59000 -0.03400
C 	C 	0.50870 0.63480 0.57980 -0.27200
H 	H 	0.51690 0.62870 0.61490 0.11100
C 	C 	0.52580 0.60430 0.54270 0.21300
C 	C 	0.51310 0.61100 0.48950 -0.26500
H 	H 	0.52580 0.58820 0.46380 0.12400
C 	C 	0.48180 0.65180 0.47690 0.16100
H 	H 	0.47460 0.65750 0.44140 -0.04800
N 	N 	0.93700 0.30360 0.86220 -0.20600
N 	N 	0.89200 0.28360 0.93770 -0.18900
H 	H 	0.86800 0.29090 0.96050 0.09800
N 	N 	0.92810 0.24750 0.94950 -0.17900
C 	C 	0.93790 0.32590 0.81540 0.09200
H 	H 	0.96770 0.32150 0.79470 -0.02100
C 	C 	0.89540 0.35650 0.79470 -0.18400
H 	H 	0.89830 0.37440 0.76290 0.08600
C 	C 	0.85020 0.35790 0.82420 0.12000
H 	H 	0.82030 0.37440 0.81100 -0.03000
C 	C 	0.84920 0.33510 0.87280 -0.23100
H 	H 	0.81880 0.33800 0.89290 0.09600
C 	C 	0.89180 0.30790 0.89320 0.18800
C 	C 	0.92640 0.23080 0.99740 0.30900
C 	C 	0.89200 0.25350 0.03990 -0.78700
H 	H 	0.87030 0.28090 0.02530 0.24500
H 	H 	0.91370 0.26790 0.06740 0.25400
H 	H 	0.87000 0.22630 0.05420 0.25400
C 	C 	0.96000 0.18550 0.01250 -0.26000
C 	C 	0.97730 0.17740 0.06440 0.17800
H 	H 	0.96740 0.20160 0.09000 -0.04900
C 	C 	0.00870 0.13480 0.07980 -0.31600
H 	H 	0.01690 0.12870 0.11490 0.12400
C 	C 	0.02580 0.10430 0.04270 0.23600
C 	C 	0.01310 0.11100 0.98950 -0.30700
H 	H 	0.02580 0.08820 0.96380 0.13800
C 	C 	0.98180 0.15180 0.97690 0.22000
H 	H 	0.97460 0.15750 0.94140 -0.06500
N 	N 	0.56300 0.30360 0.13780 -0.20800
N 	N 	0.60800 0.28360 0.06230 -0.19100
H 	H 	0.63200 0.29090 0.03950 0.09600
N 	N 	0.57190 0.24750 0.05050 -0.17100
C 	C 	0.56210 0.32590 0.18460 0.09000
H 	H 	0.53230 0.32150 0.20530 -0.02300
C 	C 	0.60460 0.35650 0.20530 -0.18400
H 	H 	0.60170 0.37440 0.23710 0.08500
C 	C 	0.64980 0.35790 0.17580 0.11800
H 	H 	0.67970 0.37440 0.18900 -0.03000
C 	C 	0.65080 0.33510 0.12720 -0.23000
H 	H 	0.68120 0.33800 0.10710 0.09400
C 	C 	0.60820 0.30790 0.10680 0.18600
C 	C 	0.57360 0.23080 0.00260 0.24800
C 	C 	0.60800 0.25350 0.96010 -0.70900
H 	H 	0.62970 0.28090 0.97470 0.22800
H 	H 	0.58630 0.26790 0.93260 0.23200
H 	H 	0.63000 0.22630 0.94580 0.23300
C 	C 	0.54000 0.18550 0.98750 -0.18100
C 	C 	0.52270 0.17740 0.93560 0.11800
H 	H 	0.53260 0.20160 0.91000 -0.02900
C 	C 	0.49130 0.13480 0.92020 -0.26300
H 	H 	0.48310 0.12870 0.88510 0.10800
C 	C 	0.47420 0.10430 0.95730 0.21200
C 	C 	0.48690 0.11100 0.01050 -0.26000
H 	H 	0.47420 0.08820 0.03620 0.12000
C 	C 	0.51820 0.15180 0.02310 0.13700
H 	H 	0.52540 0.15750 0.05860 -0.04100
N 	N 	0.06300 0.80360 0.63780 -0.20900
N 	N 	0.10800 0.78360 0.56230 -0.19100
H 	H 	0.13200 0.79090 0.53950 0.09800
N 	N 	0.07190 0.74750 0.55050 -0.17300
C 	C 	0.06210 0.82590 0.68460 0.09100
H 	H 	0.03230 0.82150 0.70530 -0.02400
C 	C 	0.10460 0.85650 0.70530 -0.18400
H 	H 	0.10170 0.87440 0.73710 0.08600
C 	C 	0.14980 0.85790 0.67580 0.11900
H 	H 	0.17970 0.87440 0.68900 -0.02900
C 	C 	0.15080 0.83510 0.62720 -0.23000
H 	H 	0.18120 0.83800 0.60710 0.09500
C 	C 	0.10820 0.80790 0.60680 0.18600
C 	C 	0.07360 0.73080 0.50260 0.26100
C 	C 	0.10800 0.75350 0.46010 -0.72800
H 	H 	0.12970 0.78090 0.47470 0.23100
H 	H 	0.08630 0.76790 0.43260 0.23600
H 	H 	0.13000 0.72630 0.44580 0.23800
C 	C 	0.04000 0.68550 0.48750 -0.18500
C 	C 	0.02270 0.67740 0.43560 0.09900
H 	H 	0.03260 0.70160 0.41000 -0.02500
C 	C 	0.99130 0.63480 0.42020 -0.23700
H 	H 	0.98310 0.62870 0.38510 0.10100
C 	C 	0.97420 0.60430 0.45730 0.19100
C 	C 	0.98690 0.61100 0.51050 -0.22900
H 	H 	0.97420 0.58820 0.53620 0.11300
C 	C 	0.01820 0.65180 0.52310 0.12400
H 	H 	0.02540 0.65750 0.55860 -0.03800
Ag	Ag	0.61225 -0.00000 0.75000 0.54100
Ag	Ag	0.88775 -0.00000 0.25000 0.54200
Ag	Ag	0.38775 0.50000 0.75000 0.54500
Ag	Ag	0.11225 0.50000 0.25000 0.54400
Ag	Ag	0.75000 0.61225 -0.00000 0.54100
Ag	Ag	0.25000 0.88775 -0.00000 0.54200
Ag	Ag	0.75000 0.38775 0.50000 0.54500
Ag	Ag	0.25000 0.11225 0.50000 0.54400
Ag	Ag	-0.00000 0.75000 0.61225 0.54100
Ag	Ag	-0.00000 0.25000 0.88775 0.54200
Ag	Ag	0.50000 0.75000 0.38775 0.54500
Ag	Ag	0.50000 0.25000 0.11225 0.54400
N 	N 	0.44350 0.05650 0.94350 -0.20000
N 	N 	0.94350 0.55650 0.44350 -0.19700
N 	N 	0.05650 0.94350 0.44350 -0.20000
N 	N 	0.55650 0.44350 0.94350 -0.19700
N 	N 	0.55650 0.55650 0.55650 -0.20000
N 	N 	0.05650 0.05650 0.05650 -0.21200
N 	N 	0.94350 0.44350 0.05650 -0.20000
N 	N 	0.44350 0.94350 0.55650 -0.19700
