data_crystal

_cell_length_a 7.16680
_cell_length_b 9.85240
_cell_length_c 12.37220
_cell_angle_alpha 91.28540
_cell_angle_beta  106.83600
_cell_angle_gamma 85.55790

_symmetry_space_group_name_	'P 1'
_symmetry_space_group_name_H-M	'P 1'

loop_
_symmetry_equiv_pos_as_xyz
  x,y,z

loop_
_atom_site_label
_atom_site_type_symbol
_atom_site_fract_x
_atom_site_fract_y
_atom_site_fract_z
_atom_site_charge
Co	Co	0.50000 0.50000 0.50000 1.20000
Co	Co	1.00000 0.50000 0.50000 1.17200
H 	H 	0.54780 0.14320 0.63420 0.05200
H 	H 	0.10430 0.08770 0.63040 0.11600
H 	H 	0.50190 0.30230 0.08660 0.06300
H 	H 	0.59690 0.30480 0.28040 0.03900
H 	H 	0.08640 0.85680 0.63420 0.12300
H 	H 	0.52610 0.91230 0.63040 0.05400
H 	H 	0.58470 0.69770 0.08660 0.06000
H 	H 	0.68350 0.69520 0.28040 0.03200
H 	H 	0.45220 0.85680 0.36580 0.05000
H 	H 	0.89570 0.91230 0.36960 -0.01900
H 	H 	0.49810 0.69770 0.91340 0.07200
H 	H 	0.40310 0.69520 0.71960 0.03600
H 	H 	0.91360 0.14320 0.36580 -0.01900
H 	H 	0.47390 0.08770 0.36960 0.04700
H 	H 	0.41530 0.30230 0.91340 0.07500
H 	H 	0.31650 0.30480 0.71960 0.04300
C 	C 	0.82627 0.14150 0.62854 -0.05700
C 	C 	0.65550 0.08580 0.63140 -0.02200
C 	C 	0.98720 0.05290 0.63020 -0.09800
C 	C 	0.82804 0.29170 0.61108 0.34800
C 	C 	0.53750 0.38310 0.12460 -0.08600
C 	C 	0.59479 0.38400 0.24038 0.03200
C 	C 	0.80227 0.85850 0.62854 -0.05000
C 	C 	0.97590 0.91420 0.63140 -0.11100
C 	C 	0.64300 0.94710 0.63020 -0.03000
C 	C 	0.78304 0.70830 0.61108 0.34400
C 	C 	0.58710 0.61690 0.12460 -0.08700
C 	C 	0.64559 0.61600 0.24038 0.03100
C 	C 	0.17373 0.85850 0.37146 -0.09000
C 	C 	0.34450 0.91420 0.36860 -0.01500
C 	C 	0.01280 0.94710 0.36980 0.06600
C 	C 	0.17196 0.70830 0.38892 0.36500
C 	C 	0.46250 0.61690 0.87540 -0.10200
C 	C 	0.40521 0.61600 0.75962 0.05400
C 	C 	0.19773 0.14150 0.37146 -0.09300
C 	C 	0.02410 0.08580 0.36860 0.06700
C 	C 	0.35700 0.05290 0.36980 -0.01000
C 	C 	0.21696 0.29170 0.38892 0.36700
C 	C 	0.41290 0.38310 0.87540 -0.10100
C 	C 	0.35441 0.38400 0.75962 0.05600
C 	C 	0.53140 0.50000 0.06280 0.03000
C 	C 	0.46860 0.50000 0.93720 0.06100
N 	N 	0.64770 0.50000 0.29540 -0.05400
N 	N 	0.35230 0.50000 0.70460 -0.05400
O 	O 	0.68254 0.36640 0.61928 -0.40100
O 	O 	0.97499 0.33000 0.58718 -0.43600
O 	O 	0.93674 0.63360 0.61928 -0.42400
O 	O 	0.61219 0.67000 0.58718 -0.40600
O 	O 	0.31746 0.63360 0.38072 -0.39400
O 	O 	0.02501 0.67000 0.41282 -0.36800
O 	O 	0.06326 0.36640 0.38072 -0.36400
O 	O 	0.38781 0.33000 0.41282 -0.40600
O 	O 	0.70414 0.50000 0.40828 -0.39100
O 	O 	0.29586 0.50000 0.59172 -0.36700
