data_crystal

_cell_length_a 18.19100
_cell_length_b 17.17700
_cell_length_c 13.69230
_cell_angle_alpha 90.00000
_cell_angle_beta  129.74100
_cell_angle_gamma 90.00000

_symmetry_space_group_name_	'P 1'
_symmetry_space_group_name_H-M	'P 1'

loop_
_symmetry_equiv_pos_as_xyz
  x,y,z

loop_
_atom_site_label
_atom_site_type_symbol
_atom_site_fract_x
_atom_site_fract_y
_atom_site_fract_z
_atom_site_charge
C 	C 	0.34210 0.16623 0.25060 0.35000
C 	C 	0.33780 0.10033 0.31950 -0.06900
C 	C 	0.26090 0.04920 0.25440 -0.03000
H 	H 	0.20890 0.05870 0.16970 0.05600
C 	C 	0.26070 0.98430 0.31430 -0.01400
H 	H 	0.20890 0.95030 0.26910 0.04400
C 	C 	0.33710 0.96960 0.44090 -0.07200
C 	C 	0.41230 0.02180 0.50670 -0.02200
H 	H 	0.46300 0.01370 0.59250 0.05800
C 	C 	0.41270 0.08600 0.44610 -0.02000
H 	H 	0.46440 0.12010 0.49150 0.05300
C 	C 	0.34160 0.89654 0.50620 0.36300
C 	C 	0.46360 0.32840 0.02220 -0.03600
H 	H 	0.46930 0.27790 0.00320 0.06000
C 	C 	0.49340 0.39030 0.99160 0.01200
H 	H 	0.52000 0.38110 0.95300 0.03300
C 	C 	0.48450 0.46640 0.01730 -0.06300
C 	C 	0.44320 0.47680 0.07400 -0.03900
H 	H 	0.43550 0.52680 0.09240 0.04000
C 	C 	0.41390 0.41400 0.10280 -0.00400
H 	H 	0.38510 0.42180 0.13870 0.05300
N 	N 	0.42630 0.34093 0.07970 -0.03700
O 	O 	0.42156 0.20048 0.31030 -0.40900
O 	O 	0.26787 0.18176 0.13990 -0.39900
O 	O 	0.41410 0.88958 0.62120 -0.41300
O 	O 	0.27345 0.84896 0.43950 -0.41000
O 	O 	0.39984 0.28121 0.11340 -0.36700
C 	C 	0.84210 0.66623 0.25060 0.34800
C 	C 	0.83780 0.60033 0.31950 -0.06200
C 	C 	0.76090 0.54920 0.25440 -0.01900
H 	H 	0.70890 0.55870 0.16970 0.05500
C 	C 	0.76070 0.48430 0.31430 -0.02000
H 	H 	0.70890 0.45030 0.26910 0.05400
C 	C 	0.83710 0.46960 0.44090 -0.06000
C 	C 	0.91230 0.52180 0.50670 -0.01800
H 	H 	0.96300 0.51370 0.59250 0.07600
C 	C 	0.91270 0.58600 0.44610 -0.01200
H 	H 	0.96440 0.62010 0.49150 0.06900
C 	C 	0.84160 0.39654 0.50620 0.35900
C 	C 	0.96360 0.82840 0.02220 -0.09300
H 	H 	0.96930 0.77790 0.00320 0.10000
C 	C 	0.99340 0.89030 0.99160 0.15400
H 	H 	0.02000 0.88110 0.95300 -0.05600
C 	C 	0.98450 0.96640 0.01730 -0.07400
C 	C 	0.94320 0.97680 0.07400 -0.01100
H 	H 	0.93550 0.02680 0.09240 0.03900
C 	C 	0.91390 0.91400 0.10280 -0.01000
H 	H 	0.88510 0.92180 0.13870 0.06400
N 	N 	0.92630 0.84093 0.07970 -0.02000
O 	O 	0.92156 0.70048 0.31030 -0.38000
O 	O 	0.76787 0.68176 0.13990 -0.39500
O 	O 	0.91410 0.38958 0.62120 -0.38800
O 	O 	0.77345 0.34896 0.43950 -0.40400
O 	O 	0.89984 0.78121 0.11340 -0.35200
C 	C 	0.65790 0.16623 0.24940 0.33400
C 	C 	0.66220 0.10033 0.18050 -0.02100
C 	C 	0.73910 0.04920 0.24560 -0.07500
H 	H 	0.79110 0.05870 0.33030 0.07800
C 	C 	0.73930 0.98430 0.18570 0.04400
H 	H 	0.79110 0.95030 0.23090 0.03900
C 	C 	0.66290 0.96960 0.05910 -0.15300
C 	C 	0.58770 0.02180 0.99330 0.08500
H 	H 	0.53700 0.01370 0.90750 0.02400
C 	C 	0.58730 0.08600 0.05390 -0.10300
H 	H 	0.53560 0.12010 0.00850 0.07600
C 	C 	0.65840 0.89654 0.99380 0.41800
C 	C 	0.53640 0.32840 0.47780 0.03300
H 	H 	0.53070 0.27790 0.49680 0.04200
C 	C 	0.50660 0.39030 0.50840 -0.09200
H 	H 	0.48000 0.38110 0.54700 0.06500
C 	C 	0.51550 0.46640 0.48270 0.03700
C 	C 	0.55680 0.47680 0.42600 -0.10000
H 	H 	0.56450 0.52680 0.40760 0.06500
C 	C 	0.58610 0.41400 0.39720 0.03700
H 	H 	0.61490 0.42180 0.36130 0.04000
N 	N 	0.57370 0.34093 0.42030 -0.05500
O 	O 	0.57844 0.20048 0.18970 -0.40600
O 	O 	0.73213 0.18176 0.36010 -0.38900
O 	O 	0.58590 0.88958 0.87880 -0.42500
O 	O 	0.72655 0.84896 0.06050 -0.42900
O 	O 	0.60016 0.28121 0.38660 -0.36300
C 	C 	0.15790 0.66623 0.24940 0.33800
C 	C 	0.16220 0.60033 0.18050 -0.03300
C 	C 	0.23910 0.54920 0.24560 -0.07300
H 	H 	0.29110 0.55870 0.33030 0.07500
C 	C 	0.23930 0.48430 0.18570 0.03700
H 	H 	0.29110 0.45030 0.23090 0.03200
C 	C 	0.16290 0.46960 0.05910 -0.15600
C 	C 	0.08770 0.52180 0.99330 0.07100
H 	H 	0.03700 0.51370 0.90750 0.01100
C 	C 	0.08730 0.58600 0.05390 -0.09900
H 	H 	0.03560 0.62010 0.00850 0.05800
C 	C 	0.15840 0.39654 0.99380 0.41700
C 	C 	0.03640 0.82840 0.47780 0.09300
H 	H 	0.03070 0.77790 0.49680 0.00200
C 	C 	0.00660 0.89030 0.50840 -0.23600
H 	H 	0.98000 0.88110 0.54700 0.15400
C 	C 	0.01550 0.96640 0.48270 0.05100
C 	C 	0.05680 0.97680 0.42600 -0.12300
H 	H 	0.06450 0.02680 0.40760 0.06200
C 	C 	0.08610 0.91400 0.39720 0.04200
H 	H 	0.11490 0.92180 0.36130 0.03000
N 	N 	0.07370 0.84093 0.42030 -0.07200
O 	O 	0.07844 0.70048 0.18970 -0.42700
O 	O 	0.23213 0.68176 0.36010 -0.39300
O 	O 	0.08590 0.38958 0.87880 -0.44200
O 	O 	0.22655 0.34896 0.06050 -0.43300
O 	O 	0.10016 0.78121 0.38660 -0.37100
C 	C 	0.65790 0.83377 0.74940 0.35100
C 	C 	0.66220 0.89967 0.68050 -0.06700
C 	C 	0.73910 0.95080 0.74560 -0.01600
H 	H 	0.79110 0.94130 0.83030 0.06200
C 	C 	0.73930 0.01570 0.68570 -0.02100
H 	H 	0.79110 0.04970 0.73090 0.06400
C 	C 	0.66290 0.03040 0.55910 -0.06800
C 	C 	0.58770 0.97820 0.49330 -0.02100
H 	H 	0.53700 0.98630 0.40750 0.05700
C 	C 	0.58730 0.91400 0.55390 -0.01700
H 	H 	0.53560 0.87990 0.50850 0.05100
C 	C 	0.65840 0.10346 0.49380 0.36200
C 	C 	0.53640 0.67160 0.97780 0.10100
H 	H 	0.53070 0.72210 0.99680 0.02300
C 	C 	0.50660 0.60970 0.00840 -0.19700
H 	H 	0.48000 0.61890 0.04700 0.09800
C 	C 	0.51550 0.53360 0.98270 0.13500
C 	C 	0.55680 0.52320 0.92600 -0.16100
H 	H 	0.56450 0.47320 0.90760 0.09100
C 	C 	0.58610 0.58600 0.89720 0.07600
H 	H 	0.61490 0.57820 0.86130 0.02700
N 	N 	0.57370 0.65907 0.92030 -0.07200
O 	O 	0.57844 0.79952 0.68970 -0.40800
O 	O 	0.73213 0.81824 0.86010 -0.38600
O 	O 	0.58590 0.11042 0.37880 -0.41500
O 	O 	0.72655 0.15104 0.56050 -0.40400
O 	O 	0.60016 0.71879 0.88660 -0.35800
C 	C 	0.15790 0.33377 0.74940 0.35200
C 	C 	0.16220 0.39967 0.68050 -0.07200
C 	C 	0.23910 0.45080 0.74560 -0.02500
H 	H 	0.29110 0.44130 0.83030 0.06300
C 	C 	0.23930 0.51570 0.68570 -0.01700
H 	H 	0.29110 0.54970 0.73090 0.05400
C 	C 	0.16290 0.53040 0.55910 -0.07800
C 	C 	0.08770 0.47820 0.49330 -0.02500
H 	H 	0.03700 0.48630 0.40750 0.04000
C 	C 	0.08730 0.41400 0.55390 -0.02400
H 	H 	0.03560 0.37990 0.50850 0.03600
C 	C 	0.15840 0.60346 0.49380 0.36400
C 	C 	0.03640 0.17160 0.97780 0.15200
H 	H 	0.03070 0.22210 0.99680 -0.01400
C 	C 	0.00660 0.10970 0.00840 -0.32700
H 	H 	0.98000 0.11890 0.04700 0.18000
C 	C 	0.01550 0.03360 0.98270 0.14200
C 	C 	0.05680 0.02320 0.92600 -0.18100
H 	H 	0.06450 0.97320 0.90760 0.08600
C 	C 	0.08610 0.08600 0.89720 0.07800
H 	H 	0.11490 0.07820 0.86130 0.01700
N 	N 	0.07370 0.15907 0.92030 -0.08800
O 	O 	0.07844 0.29952 0.68970 -0.42900
O 	O 	0.23213 0.31824 0.86010 -0.38900
O 	O 	0.08590 0.61042 0.37880 -0.43200
O 	O 	0.22655 0.65104 0.56050 -0.40900
O 	O 	0.10016 0.21879 0.88660 -0.36600
C 	C 	0.34210 0.83377 0.75060 0.36600
C 	C 	0.33780 0.89967 0.81950 -0.10900
C 	C 	0.26090 0.95080 0.75440 0.02300
H 	H 	0.20890 0.94130 0.66970 0.04200
C 	C 	0.26070 0.01570 0.81430 -0.07500
H 	H 	0.20890 0.04970 0.76910 0.06700
C 	C 	0.33710 0.03040 0.94090 0.00900
C 	C 	0.41230 0.97820 0.00670 -0.11900
H 	H 	0.46300 0.98630 0.09250 0.08800
C 	C 	0.41270 0.91400 0.94610 0.05700
H 	H 	0.46440 0.87990 0.99150 0.03100
C 	C 	0.34160 0.10346 0.00620 0.30700
C 	C 	0.46360 0.67160 0.52220 0.03200
H 	H 	0.46930 0.72210 0.50320 0.04100
C 	C 	0.49340 0.60970 0.49160 -0.09400
H 	H 	0.52000 0.61890 0.45300 0.06500
C 	C 	0.48450 0.53360 0.51730 0.03600
C 	C 	0.44320 0.52320 0.57400 -0.10100
H 	H 	0.43550 0.47320 0.59240 0.06500
C 	C 	0.41390 0.58600 0.60280 0.03500
H 	H 	0.38510 0.57820 0.63870 0.04000
N 	N 	0.42630 0.65907 0.57970 -0.05500
O 	O 	0.42156 0.79952 0.81030 -0.41100
O 	O 	0.26787 0.81824 0.63990 -0.39800
O 	O 	0.41410 0.11042 0.12120 -0.40300
O 	O 	0.27345 0.15104 0.93950 -0.38300
O 	O 	0.39984 0.71879 0.61340 -0.36400
C 	C 	0.84210 0.33377 0.75060 0.36500
C 	C 	0.83780 0.39967 0.81950 -0.10800
C 	C 	0.76090 0.45080 0.75440 0.03500
H 	H 	0.70890 0.44130 0.66970 0.04100
C 	C 	0.76070 0.51570 0.81430 -0.08300
H 	H 	0.70890 0.54970 0.76910 0.07900
C 	C 	0.83710 0.53040 0.94090 0.02900
C 	C 	0.91230 0.47820 0.00670 -0.12900
H 	H 	0.96300 0.48630 0.09250 0.10900
C 	C 	0.91270 0.41400 0.94610 0.07400
H 	H 	0.96440 0.37990 0.99150 0.04400
C 	C 	0.84160 0.60346 0.00620 0.29900
C 	C 	0.96360 0.17160 0.52220 -0.02500
H 	H 	0.96930 0.22210 0.50320 0.08200
C 	C 	0.99340 0.10970 0.49160 0.04800
H 	H 	0.02000 0.11890 0.45300 -0.02200
C 	C 	0.98450 0.03360 0.51730 0.02300
C 	C 	0.94320 0.02320 0.57400 -0.07900
H 	H 	0.93550 0.97320 0.59240 0.07000
C 	C 	0.91390 0.08600 0.60280 0.03200
H 	H 	0.88510 0.07820 0.63870 0.05000
N 	N 	0.92630 0.15907 0.57970 -0.03800
O 	O 	0.92156 0.29952 0.81030 -0.38200
O 	O 	0.76787 0.31824 0.63990 -0.39400
O 	O 	0.91410 0.61042 0.12120 -0.37700
O 	O 	0.77345 0.65104 0.93950 -0.37500
O 	O 	0.89984 0.21879 0.61340 -0.34900
Co	Co	0.50000 0.19734 0.25000 1.19900
Co	Co	0.00000 0.69734 0.25000 1.17500
Co	Co	0.50000 0.80266 0.75000 1.20000
Co	Co	0.00000 0.30266 0.75000 1.17500
Co	Co	0.25000 0.25000 -0.00000 1.19200
Co	Co	0.75000 0.25000 0.50000 1.19900
Co	Co	0.75000 0.75000 -0.00000 1.19200
Co	Co	0.25000 0.75000 0.50000 1.19900
