data_crystal

_cell_length_a 8.60060
_cell_length_b 10.17300
_cell_length_c 11.12500
_cell_angle_alpha 65.11000
_cell_angle_beta  71.80000
_cell_angle_gamma 78.86000

_symmetry_space_group_name_	'P 1'
_symmetry_space_group_name_H-M	'P 1'

loop_
_symmetry_equiv_pos_as_xyz
  x,y,z

loop_
_atom_site_label
_atom_site_type_symbol
_atom_site_fract_x
_atom_site_fract_y
_atom_site_fract_z
_atom_site_charge
Gd	Gd	0.13188 0.43942 0.65371 1.40000
O 	O 	0.03460 0.36800 0.47930 -0.47300
O 	O 	0.13190 0.20420 0.64710 -0.37800
O 	O 	0.84430 0.38030 0.76430 -0.35400
O 	O 	0.93910 0.52260 0.82580 -0.35600
O 	O 	0.17890 0.26480 0.86850 -0.35700
O 	O 	0.39790 0.30030 0.69440 -0.38300
C 	C 	0.06790 0.23590 0.55230 0.36500
C 	C 	0.03420 0.11470 0.52290 -0.10600
C 	C 	0.99270 0.98420 0.63050 -0.00600
H 	H 	0.89450 0.99990 0.69510 0.04200
C 	C 	0.04290 0.13270 0.39030 -0.00700
H 	H 	0.96610 0.21070 0.35440 0.02300
C 	C 	0.82100 0.46000 0.83260 0.30200
C 	C 	0.65490 0.48180 0.91770 -0.06800
C 	C 	0.52640 0.40920 0.92850 -0.01600
H 	H 	0.51080 0.43680 0.83910 0.03400
C 	C 	0.63020 0.56950 0.99230 -0.02700
H 	H 	0.65920 0.66610 0.92980 0.05300
C 	C 	0.32590 0.23200 0.81930 0.31100
C 	C 	0.41770 0.11160 0.91020 -0.06300
C 	C 	0.33780 0.04020 0.04810 -0.00800
H 	H 	0.30300 0.10930 0.09090 0.04700
C 	C 	0.58120 0.07040 0.86210 -0.03300
H 	H 	0.64590 0.15170 0.82890 0.05800
Gd	Gd	0.86812 0.56058 0.34629 1.40000
O 	O 	0.96540 0.63200 0.52070 -0.47300
O 	O 	0.86810 0.79580 0.35290 -0.37800
O 	O 	0.15570 0.61970 0.23570 -0.35400
O 	O 	0.06090 0.47740 0.17420 -0.35600
O 	O 	0.82110 0.73520 0.13150 -0.35700
O 	O 	0.60210 0.69970 0.30560 -0.38300
C 	C 	0.93210 0.76410 0.44770 0.36500
C 	C 	0.96580 0.88530 0.47710 -0.10600
C 	C 	0.00730 0.01580 0.36950 -0.00600
H 	H 	0.10550 0.00010 0.30490 0.04200
C 	C 	0.95710 0.86730 0.60970 -0.00700
H 	H 	0.03390 0.78930 0.64560 0.02300
C 	C 	0.17900 0.54000 0.16740 0.30200
C 	C 	0.34510 0.51820 0.08230 -0.06800
C 	C 	0.47360 0.59080 0.07150 -0.01600
H 	H 	0.48920 0.56320 0.16090 0.03400
C 	C 	0.36980 0.43050 0.00770 -0.02700
H 	H 	0.34080 0.33390 0.07020 0.05300
C 	C 	0.67410 0.76800 0.18070 0.31100
C 	C 	0.58230 0.88840 0.08980 -0.06300
C 	C 	0.66220 0.95980 0.95190 -0.00800
H 	H 	0.69700 0.89070 0.90910 0.04700
C 	C 	0.41880 0.92960 0.13790 -0.03300
H 	H 	0.35410 0.84830 0.17110 0.05800
