data_crystal

_cell_length_a 7.10910
_cell_length_b 14.53990
_cell_length_c 16.77540
_cell_angle_alpha 104.11900
_cell_angle_beta  102.23300
_cell_angle_gamma 90.00000

_symmetry_space_group_name_	'P 1'
_symmetry_space_group_name_H-M	'P 1'

loop_
_symmetry_equiv_pos_as_xyz
  x,y,z

loop_
_atom_site_label
_atom_site_type_symbol
_atom_site_fract_x
_atom_site_fract_y
_atom_site_fract_z
_atom_site_charge
Eu	Eu	0.50907 0.96882 0.50256 2.05000
Eu	Eu	0.00651 0.03118 0.49744 1.97700
H 	H 	0.28740 0.52700 0.10040 0.05100
H 	H 	0.30970 0.43380 0.03300 0.05100
H 	H 	0.88980 0.49500 0.11380 0.01400
H 	H 	0.91490 0.42820 0.17580 0.01600
H 	H 	0.37600 0.34560 0.13220 0.03600
H 	H 	0.36000 0.43400 0.20580 0.03800
H 	H 	0.95250 0.28760 0.07060 0.09600
H 	H 	0.89030 0.35360 0.00920 0.08800
H 	H 	0.58720 0.34020 0.25140 0.15200
H 	H 	0.78900 0.26230 0.33800 -0.01900
H 	H 	0.33740 0.12720 0.37280 -0.04800
H 	H 	0.13540 0.20300 0.28340 0.15400
H 	H 	0.26100 0.20980 0.86560 0.11700
H 	H 	0.11830 0.11950 0.73200 -0.00000
H 	H 	0.61140 0.12730 0.79880 0.00300
H 	H 	0.75710 0.21540 0.93400 0.10200
H 	H 	0.70850 0.56210 0.20320 0.19600
H 	H 	0.56190 0.68350 0.28060 -0.07500
H 	H 	0.07320 0.79000 0.42400 -0.16100
H 	H 	0.22220 0.67170 0.34340 0.24800
H 	H 	0.18700 0.47300 0.89960 0.03800
H 	H 	0.27670 0.56620 0.96700 0.03500
H 	H 	0.77600 0.50500 0.88620 0.01500
H 	H 	0.73910 0.57180 0.82420 0.01900
H 	H 	0.24380 0.65440 0.86780 0.02700
H 	H 	0.15420 0.56600 0.79420 0.02800
H 	H 	0.88190 0.71240 0.92940 0.02000
H 	H 	0.88110 0.64640 0.99080 0.01000
H 	H 	0.33580 0.65980 0.74860 0.11600
H 	H 	0.45100 0.73770 0.66200 0.00800
H 	H 	0.96460 0.87280 0.62720 0.03600
H 	H 	0.85200 0.79700 0.71660 0.10200
H 	H 	0.39540 0.79020 0.13440 0.16100
H 	H 	0.38630 0.88050 0.26800 -0.04300
H 	H 	0.81260 0.87270 0.20120 -0.04200
H 	H 	0.82310 0.78460 0.06600 0.15000
H 	H 	0.50530 0.43790 0.79680 0.14700
H 	H 	0.28130 0.31650 0.71940 -0.03700
H 	H 	0.64920 0.21000 0.57600 -0.06600
H 	H 	0.87880 0.32830 0.65660 0.18200
C 	C 	0.12200 0.41310 0.10640 0.00100
C 	C 	0.21800 0.47150 0.06040 -0.00900
C 	C 	0.98340 0.46910 0.15240 0.10400
C 	C 	0.28870 0.37970 0.16480 0.02200
C 	C 	0.00020 0.32990 0.04180 -0.08500
C 	C 	0.34140 0.27770 0.25820 0.33500
C 	C 	0.53630 0.29660 0.27460 -0.32500
C 	C 	0.65640 0.24930 0.32680 0.21600
C 	C 	0.58810 0.18460 0.36220 -0.26300
C 	C 	0.38880 0.16840 0.34760 0.22200
C 	C 	0.26820 0.21500 0.29440 -0.32400
C 	C 	0.02200 0.22280 0.91160 0.21100
C 	C 	0.12960 0.19320 0.85220 -0.22000
C 	C 	0.04480 0.13860 0.77240 0.09600
C 	C 	0.84920 0.11290 0.75300 -0.17100
C 	C 	0.74310 0.14290 0.81220 0.12000
C 	C 	0.82970 0.19710 0.89320 -0.19200
C 	C 	0.74770 0.05880 0.66680 0.47000
C 	C 	0.97980 0.60840 0.26160 0.49600
C 	C 	0.78300 0.60910 0.24600 -0.47000
C 	C 	0.69520 0.68000 0.29440 0.34800
C 	C 	0.80290 0.74540 0.36240 -0.39700
C 	C 	0.99950 0.74420 0.37960 0.47500
C 	C 	0.08890 0.67430 0.33040 -0.55500
C 	C 	0.70200 0.82290 0.41200 0.50300
C 	C 	0.72190 0.13520 0.41600 0.46500
C 	C 	0.01560 0.58690 0.89360 -0.06600
C 	C 	0.15760 0.52850 0.93960 0.00800
C 	C 	0.83100 0.53090 0.84760 0.08800
C 	C 	0.12390 0.62030 0.83520 0.04400
C 	C 	0.95840 0.67010 0.95820 0.10400
C 	C 	0.08320 0.72230 0.74180 0.21700
C 	C 	0.26170 0.70340 0.72540 -0.23100
C 	C 	0.32960 0.75070 0.67320 0.12000
C 	C 	0.22590 0.81540 0.63780 -0.16900
C 	C 	0.04120 0.83160 0.65240 0.03200
C 	C 	0.97380 0.78500 0.70560 -0.13800
C 	C 	0.11040 0.77720 0.08840 0.31900
C 	C 	0.27740 0.80680 0.14780 -0.33100
C 	C 	0.27240 0.86140 0.22760 0.24300
C 	C 	0.09620 0.88710 0.24700 -0.31400
C 	C 	0.93090 0.85710 0.18780 0.25900
C 	C 	0.93650 0.80290 0.10680 -0.31000
C 	C 	0.08090 0.94120 0.33320 0.48800
C 	C 	0.71820 0.39160 0.73840 0.33300
C 	C 	0.53700 0.39090 0.75400 -0.33600
C 	C 	0.40080 0.32000 0.70560 0.22400
C 	C 	0.44050 0.25460 0.63760 -0.28000
C 	C 	0.61990 0.25580 0.62040 0.25100
C 	C 	0.75850 0.32570 0.66960 -0.33300
C 	C 	0.29000 0.17710 0.58800 0.46000
C 	C 	0.30590 0.86480 0.58400 0.42900
O 	O 	0.83110 0.04050 0.60480 -0.58400
O 	O 	0.58042 0.03330 0.65484 -0.48000
O 	O 	0.90050 0.15930 0.43520 -0.44200
O 	O 	0.65940 0.06640 0.44040 -0.61300
O 	O 	0.80210 0.88890 0.47120 -0.60700
O 	O 	0.52390 0.82340 0.39620 -0.47800
O 	O 	0.21130 0.31800 0.20740 -0.26200
O 	O 	0.08880 0.54450 0.21840 -0.32500
O 	O 	0.11460 0.27930 0.98720 -0.22500
O 	O 	0.22630 0.95950 0.39520 -0.60700
O 	O 	0.92558 0.96670 0.34516 -0.46500
O 	O 	0.46530 0.84070 0.56480 -0.45600
O 	O 	0.21900 0.93360 0.55960 -0.61300
O 	O 	0.33090 0.11110 0.52880 -0.60500
O 	O 	0.12770 0.17660 0.60380 -0.47500
O 	O 	0.00390 0.68200 0.79260 -0.24500
O 	O 	0.87040 0.45550 0.78160 -0.25100
O 	O 	0.12740 0.72070 0.01280 -0.27000
O 	O 	0.07740 0.50000 -0.00000 -0.17300
