data_crystal

_cell_length_a 26.33360
_cell_length_b 26.33360
_cell_length_c 26.33360
_cell_angle_alpha 90.00000
_cell_angle_beta  90.00000
_cell_angle_gamma 90.00000

_symmetry_space_group_name_	'P 1'
_symmetry_space_group_name_H-M	'P 1'

loop_
_symmetry_equiv_pos_as_xyz
  x,y,z

loop_
_atom_site_label
_atom_site_type_symbol
_atom_site_fract_x
_atom_site_fract_y
_atom_site_fract_z
_atom_site_charge
O 	O 	0.31660 0.94770 0.24310 -0.45800
H 	H 	0.24340 0.87610 0.08390 -0.06200
O 	O 	0.31660 0.44770 0.74310 -0.48500
H 	H 	0.24340 0.37610 0.58390 -0.05900
O 	O 	0.81660 0.94770 0.74310 -0.45300
H 	H 	0.74340 0.87610 0.58390 -0.05100
O 	O 	0.81660 0.44770 0.24310 -0.48400
H 	H 	0.74340 0.37610 0.08390 -0.06300
O 	O 	0.68340 0.05230 0.24310 -0.50100
H 	H 	0.75660 0.12390 0.08390 -0.06800
O 	O 	0.68340 0.55230 0.74310 -0.48500
H 	H 	0.75660 0.62390 0.58390 -0.05600
O 	O 	0.18340 0.05230 0.74310 -0.50100
H 	H 	0.25660 0.12390 0.58390 -0.06400
O 	O 	0.18340 0.55230 0.24310 -0.48900
H 	H 	0.25660 0.62390 0.08390 -0.06600
O 	O 	0.68340 0.94770 0.75690 -0.45700
H 	H 	0.75660 0.87610 0.91610 -0.04400
O 	O 	0.68340 0.44770 0.25690 -0.48700
H 	H 	0.75660 0.37610 0.41610 -0.05600
O 	O 	0.18340 0.94770 0.25690 -0.46100
H 	H 	0.25660 0.87610 0.41610 -0.05600
O 	O 	0.18340 0.44770 0.75690 -0.48900
H 	H 	0.25660 0.37610 0.91610 -0.05200
O 	O 	0.31660 0.05230 0.75690 -0.50100
H 	H 	0.24340 0.12390 0.91610 -0.05600
O 	O 	0.31660 0.55230 0.25690 -0.48800
H 	H 	0.24340 0.62390 0.41610 -0.06000
O 	O 	0.81660 0.05230 0.25690 -0.49900
H 	H 	0.74340 0.12390 0.41610 -0.06100
O 	O 	0.81660 0.55230 0.75690 -0.48400
H 	H 	0.74340 0.62390 0.91610 -0.04900
O 	O 	0.24310 0.31660 0.94770 -0.45900
H 	H 	0.08390 0.24340 0.87610 -0.06300
O 	O 	0.24310 0.81660 0.44770 -0.48500
H 	H 	0.08390 0.74340 0.37610 -0.06400
O 	O 	0.74310 0.31660 0.44770 -0.48600
H 	H 	0.58390 0.24340 0.37610 -0.06000
O 	O 	0.74310 0.81660 0.94770 -0.45400
H 	H 	0.58390 0.74340 0.87610 -0.05200
O 	O 	0.24310 0.68340 0.05230 -0.50200
H 	H 	0.08390 0.75660 0.12390 -0.06900
O 	O 	0.24310 0.18340 0.55230 -0.49000
H 	H 	0.08390 0.25660 0.62390 -0.06700
O 	O 	0.74310 0.68340 0.55230 -0.48600
H 	H 	0.58390 0.75660 0.62390 -0.05700
O 	O 	0.74310 0.18340 0.05230 -0.50200
H 	H 	0.58390 0.25660 0.12390 -0.06500
O 	O 	0.75690 0.68340 0.94770 -0.45800
H 	H 	0.91610 0.75660 0.87610 -0.04500
O 	O 	0.75690 0.18340 0.44770 -0.48900
H 	H 	0.91610 0.25660 0.37610 -0.05200
O 	O 	0.25690 0.68340 0.44770 -0.48800
H 	H 	0.41610 0.75660 0.37610 -0.05700
O 	O 	0.25690 0.18340 0.94770 -0.46200
H 	H 	0.41610 0.25660 0.87610 -0.05600
O 	O 	0.75690 0.31660 0.05230 -0.50100
H 	H 	0.91610 0.24340 0.12390 -0.05600
O 	O 	0.75690 0.81660 0.55230 -0.48400
H 	H 	0.91610 0.74340 0.62390 -0.04900
O 	O 	0.25690 0.31660 0.55230 -0.48800
H 	H 	0.41610 0.24340 0.62390 -0.06000
O 	O 	0.25690 0.81660 0.05230 -0.49900
H 	H 	0.41610 0.74340 0.12390 -0.06100
O 	O 	0.94770 0.24310 0.31660 -0.45900
H 	H 	0.87610 0.08390 0.24340 -0.06300
O 	O 	0.94770 0.74310 0.81660 -0.45400
H 	H 	0.87610 0.58390 0.74340 -0.05200
O 	O 	0.44770 0.24310 0.81660 -0.48500
H 	H 	0.37610 0.08390 0.74340 -0.06400
O 	O 	0.44770 0.74310 0.31660 -0.48600
H 	H 	0.37610 0.58390 0.24340 -0.06000
O 	O 	0.05230 0.24310 0.68340 -0.50200
H 	H 	0.12390 0.08390 0.75660 -0.06900
O 	O 	0.05230 0.74310 0.18340 -0.50200
H 	H 	0.12390 0.58390 0.25660 -0.06500
O 	O 	0.55230 0.24310 0.18340 -0.49000
H 	H 	0.62390 0.08390 0.25660 -0.06700
O 	O 	0.55230 0.74310 0.68340 -0.48600
H 	H 	0.62390 0.58390 0.75660 -0.05700
O 	O 	0.94770 0.75690 0.68340 -0.45800
H 	H 	0.87610 0.91610 0.75660 -0.04500
O 	O 	0.94770 0.25690 0.18340 -0.46200
H 	H 	0.87610 0.41610 0.25660 -0.05600
O 	O 	0.44770 0.75690 0.18340 -0.48900
H 	H 	0.37610 0.91610 0.25660 -0.05200
O 	O 	0.44770 0.25690 0.68340 -0.48800
H 	H 	0.37610 0.41610 0.75660 -0.05700
O 	O 	0.05230 0.75690 0.31660 -0.50100
H 	H 	0.12390 0.91610 0.24340 -0.05600
O 	O 	0.05230 0.25690 0.81660 -0.49900
H 	H 	0.12390 0.41610 0.74340 -0.06100
O 	O 	0.55230 0.75690 0.81660 -0.48400
H 	H 	0.62390 0.91610 0.74340 -0.04900
O 	O 	0.55230 0.25690 0.31660 -0.48800
H 	H 	0.62390 0.41610 0.24340 -0.06000
O 	O 	0.94770 0.31660 0.75690 -0.45800
H 	H 	0.87610 0.24340 0.91610 -0.04800
O 	O 	0.94770 0.81660 0.25690 -0.45600
H 	H 	0.87610 0.74340 0.41610 -0.05300
O 	O 	0.44770 0.31660 0.25690 -0.48800
H 	H 	0.37610 0.24340 0.41610 -0.06000
O 	O 	0.44770 0.81660 0.75690 -0.48400
H 	H 	0.37610 0.74340 0.91610 -0.04900
O 	O 	0.05230 0.68340 0.75690 -0.50100
H 	H 	0.12390 0.75660 0.91610 -0.05400
O 	O 	0.05230 0.18340 0.25690 -0.50500
H 	H 	0.12390 0.25660 0.41610 -0.06500
O 	O 	0.55230 0.68340 0.25690 -0.48800
H 	H 	0.62390 0.75660 0.41610 -0.05700
O 	O 	0.55230 0.18340 0.75690 -0.48900
H 	H 	0.62390 0.25660 0.91610 -0.05200
O 	O 	0.94770 0.68340 0.24310 -0.45900
H 	H 	0.87610 0.75660 0.08390 -0.06000
O 	O 	0.94770 0.18340 0.74310 -0.46000
H 	H 	0.87610 0.25660 0.58390 -0.05600
O 	O 	0.44770 0.68340 0.74310 -0.48600
H 	H 	0.37610 0.75660 0.58390 -0.05700
O 	O 	0.44770 0.18340 0.24310 -0.49000
H 	H 	0.37610 0.25660 0.08390 -0.06800
O 	O 	0.05230 0.31660 0.24310 -0.50100
H 	H 	0.12390 0.24340 0.08390 -0.07100
O 	O 	0.05230 0.81660 0.74310 -0.49700
H 	H 	0.12390 0.74340 0.58390 -0.06100
O 	O 	0.55230 0.31660 0.74310 -0.48600
H 	H 	0.62390 0.24340 0.58390 -0.06000
O 	O 	0.55230 0.81660 0.24310 -0.48500
H 	H 	0.62390 0.74340 0.08390 -0.06400
O 	O 	0.31660 0.24310 0.05230 -0.50100
H 	H 	0.24340 0.08390 0.12390 -0.07100
O 	O 	0.31660 0.74310 0.55230 -0.48600
H 	H 	0.24340 0.58390 0.62390 -0.06000
O 	O 	0.81660 0.24310 0.55230 -0.48500
H 	H 	0.74340 0.08390 0.62390 -0.06400
O 	O 	0.81660 0.74310 0.05230 -0.49700
H 	H 	0.74340 0.58390 0.12390 -0.06100
O 	O 	0.68340 0.24310 0.94770 -0.45900
H 	H 	0.75660 0.08390 0.87610 -0.06000
O 	O 	0.68340 0.74310 0.44770 -0.48600
H 	H 	0.75660 0.58390 0.37610 -0.05700
O 	O 	0.18340 0.24310 0.44770 -0.49000
H 	H 	0.25660 0.08390 0.37610 -0.06800
O 	O 	0.18340 0.74310 0.94770 -0.46000
H 	H 	0.25660 0.58390 0.87610 -0.05600
O 	O 	0.68340 0.75690 0.05230 -0.50100
H 	H 	0.75660 0.91610 0.12390 -0.05400
O 	O 	0.68340 0.25690 0.55230 -0.48800
H 	H 	0.75660 0.41610 0.62390 -0.05700
O 	O 	0.18340 0.75690 0.55230 -0.48900
H 	H 	0.25660 0.91610 0.62390 -0.05200
O 	O 	0.18340 0.25690 0.05230 -0.50500
H 	H 	0.25660 0.41610 0.12390 -0.06500
O 	O 	0.31660 0.75690 0.94770 -0.45800
H 	H 	0.24340 0.91610 0.87610 -0.04800
O 	O 	0.31660 0.25690 0.44770 -0.48800
H 	H 	0.24340 0.41610 0.37610 -0.06000
O 	O 	0.81660 0.75690 0.44770 -0.48400
H 	H 	0.74340 0.91610 0.37610 -0.04900
O 	O 	0.81660 0.25690 0.94770 -0.45600
H 	H 	0.74340 0.41610 0.87610 -0.05300
O 	O 	0.24310 0.94770 0.68340 -0.45900
H 	H 	0.08390 0.87610 0.75660 -0.06000
O 	O 	0.24310 0.44770 0.18340 -0.49000
H 	H 	0.08390 0.37610 0.25660 -0.06800
O 	O 	0.74310 0.94770 0.18340 -0.46000
H 	H 	0.58390 0.87610 0.25660 -0.05600
O 	O 	0.74310 0.44770 0.68340 -0.48600
H 	H 	0.58390 0.37610 0.75660 -0.05700
O 	O 	0.24310 0.05230 0.31660 -0.50100
H 	H 	0.08390 0.12390 0.24340 -0.07100
O 	O 	0.24310 0.55230 0.81660 -0.48500
H 	H 	0.08390 0.62390 0.74340 -0.06400
O 	O 	0.74310 0.05230 0.81660 -0.49700
H 	H 	0.58390 0.12390 0.74340 -0.06100
O 	O 	0.74310 0.55230 0.31660 -0.48600
H 	H 	0.58390 0.62390 0.24340 -0.06000
O 	O 	0.75690 0.94770 0.31660 -0.45800
H 	H 	0.91610 0.87610 0.24340 -0.04800
O 	O 	0.75690 0.44770 0.81660 -0.48400
H 	H 	0.91610 0.37610 0.74340 -0.04900
O 	O 	0.25690 0.94770 0.81660 -0.45600
H 	H 	0.41610 0.87610 0.74340 -0.05300
O 	O 	0.25690 0.44770 0.31660 -0.48800
H 	H 	0.41610 0.37610 0.24340 -0.06000
O 	O 	0.75690 0.05230 0.68340 -0.50100
H 	H 	0.91610 0.12390 0.75660 -0.05400
O 	O 	0.75690 0.55230 0.18340 -0.48900
H 	H 	0.91610 0.62390 0.25660 -0.05200
O 	O 	0.25690 0.05230 0.18340 -0.50500
H 	H 	0.41610 0.12390 0.25660 -0.06500
O 	O 	0.25690 0.55230 0.68340 -0.48800
H 	H 	0.41610 0.62390 0.75660 -0.05700
O 	O 	0.68340 0.05230 0.75690 -0.50100
H 	H 	0.75660 0.12390 0.91610 -0.05400
O 	O 	0.68340 0.55230 0.25690 -0.48800
H 	H 	0.75660 0.62390 0.41610 -0.05700
O 	O 	0.18340 0.05230 0.25690 -0.50500
H 	H 	0.25660 0.12390 0.41610 -0.06500
O 	O 	0.18340 0.55230 0.75690 -0.48900
H 	H 	0.25660 0.62390 0.91610 -0.05200
O 	O 	0.31660 0.94770 0.75690 -0.45800
H 	H 	0.24340 0.87610 0.91610 -0.04800
O 	O 	0.31660 0.44770 0.25690 -0.48800
H 	H 	0.24340 0.37610 0.41610 -0.06000
O 	O 	0.81660 0.94770 0.25690 -0.45600
H 	H 	0.74340 0.87610 0.41610 -0.05300
O 	O 	0.81660 0.44770 0.75690 -0.48400
H 	H 	0.74340 0.37610 0.91610 -0.04900
O 	O 	0.31660 0.05230 0.24310 -0.50100
H 	H 	0.24340 0.12390 0.08390 -0.07100
O 	O 	0.31660 0.55230 0.74310 -0.48600
H 	H 	0.24340 0.62390 0.58390 -0.06000
O 	O 	0.81660 0.05230 0.74310 -0.49700
H 	H 	0.74340 0.12390 0.58390 -0.06100
O 	O 	0.81660 0.55230 0.24310 -0.48500
H 	H 	0.74340 0.62390 0.08390 -0.06400
O 	O 	0.68340 0.94770 0.24310 -0.45900
H 	H 	0.75660 0.87610 0.08390 -0.06000
O 	O 	0.68340 0.44770 0.74310 -0.48600
H 	H 	0.75660 0.37610 0.58390 -0.05700
O 	O 	0.18340 0.94770 0.74310 -0.46000
H 	H 	0.25660 0.87610 0.58390 -0.05600
O 	O 	0.18340 0.44770 0.24310 -0.49000
H 	H 	0.25660 0.37610 0.08390 -0.06800
O 	O 	0.75690 0.68340 0.05230 -0.50100
H 	H 	0.91610 0.75660 0.12390 -0.05400
O 	O 	0.75690 0.18340 0.55230 -0.48900
H 	H 	0.91610 0.25660 0.62390 -0.05200
O 	O 	0.25690 0.68340 0.55230 -0.48800
H 	H 	0.41610 0.75660 0.62390 -0.05700
O 	O 	0.25690 0.18340 0.05230 -0.50500
H 	H 	0.41610 0.25660 0.12390 -0.06500
O 	O 	0.75690 0.31660 0.94770 -0.45800
H 	H 	0.91610 0.24340 0.87610 -0.04800
O 	O 	0.75690 0.81660 0.44770 -0.48400
H 	H 	0.91610 0.74340 0.37610 -0.04900
O 	O 	0.25690 0.31660 0.44770 -0.48800
H 	H 	0.41610 0.24340 0.37610 -0.06000
O 	O 	0.25690 0.81660 0.94770 -0.45600
H 	H 	0.41610 0.74340 0.87610 -0.05300
O 	O 	0.24310 0.31660 0.05230 -0.50100
H 	H 	0.08390 0.24340 0.12390 -0.07100
O 	O 	0.24310 0.81660 0.55230 -0.48500
H 	H 	0.08390 0.74340 0.62390 -0.06400
O 	O 	0.74310 0.31660 0.55230 -0.48600
H 	H 	0.58390 0.24340 0.62390 -0.06000
O 	O 	0.74310 0.81660 0.05230 -0.49700
H 	H 	0.58390 0.74340 0.12390 -0.06100
O 	O 	0.24310 0.68340 0.94770 -0.45900
H 	H 	0.08390 0.75660 0.87610 -0.06000
O 	O 	0.24310 0.18340 0.44770 -0.49000
H 	H 	0.08390 0.25660 0.37610 -0.06800
O 	O 	0.74310 0.68340 0.44770 -0.48600
H 	H 	0.58390 0.75660 0.37610 -0.05700
O 	O 	0.74310 0.18340 0.94770 -0.46000
H 	H 	0.58390 0.25660 0.87610 -0.05600
O 	O 	0.05230 0.75690 0.68340 -0.50100
H 	H 	0.12390 0.91610 0.75660 -0.05400
O 	O 	0.05230 0.25690 0.18340 -0.50500
H 	H 	0.12390 0.41610 0.25660 -0.06500
O 	O 	0.55230 0.75690 0.18340 -0.48900
H 	H 	0.62390 0.91610 0.25660 -0.05200
O 	O 	0.55230 0.25690 0.68340 -0.48800
H 	H 	0.62390 0.41610 0.75660 -0.05700
O 	O 	0.94770 0.75690 0.31660 -0.45800
H 	H 	0.87610 0.91610 0.24340 -0.04800
O 	O 	0.94770 0.25690 0.81660 -0.45600
H 	H 	0.87610 0.41610 0.74340 -0.05300
O 	O 	0.44770 0.75690 0.81660 -0.48400
H 	H 	0.37610 0.91610 0.74340 -0.04900
O 	O 	0.44770 0.25690 0.31660 -0.48800
H 	H 	0.37610 0.41610 0.24340 -0.06000
O 	O 	0.05230 0.24310 0.31660 -0.50100
H 	H 	0.12390 0.08390 0.24340 -0.07100
O 	O 	0.05230 0.74310 0.81660 -0.49700
H 	H 	0.12390 0.58390 0.74340 -0.06100
O 	O 	0.55230 0.24310 0.81660 -0.48500
H 	H 	0.62390 0.08390 0.74340 -0.06400
O 	O 	0.55230 0.74310 0.31660 -0.48600
H 	H 	0.62390 0.58390 0.24340 -0.06000
O 	O 	0.94770 0.24310 0.68340 -0.45900
H 	H 	0.87610 0.08390 0.75660 -0.06000
O 	O 	0.94770 0.74310 0.18340 -0.46000
H 	H 	0.87610 0.58390 0.25660 -0.05600
O 	O 	0.44770 0.24310 0.18340 -0.49000
H 	H 	0.37610 0.08390 0.25660 -0.06800
O 	O 	0.44770 0.74310 0.68340 -0.48600
H 	H 	0.37610 0.58390 0.75660 -0.05700
O 	O 	0.05230 0.68340 0.24310 -0.50200
H 	H 	0.12390 0.75660 0.08390 -0.06900
O 	O 	0.05230 0.18340 0.74310 -0.50200
H 	H 	0.12390 0.25660 0.58390 -0.06500
O 	O 	0.55230 0.68340 0.74310 -0.48600
H 	H 	0.62390 0.75660 0.58390 -0.05700
O 	O 	0.55230 0.18340 0.24310 -0.49000
H 	H 	0.62390 0.25660 0.08390 -0.06700
O 	O 	0.94770 0.31660 0.24310 -0.45900
H 	H 	0.87610 0.24340 0.08390 -0.06300
O 	O 	0.94770 0.81660 0.74310 -0.45400
H 	H 	0.87610 0.74340 0.58390 -0.05200
O 	O 	0.44770 0.31660 0.74310 -0.48600
H 	H 	0.37610 0.24340 0.58390 -0.06000
O 	O 	0.44770 0.81660 0.24310 -0.48500
H 	H 	0.37610 0.74340 0.08390 -0.06400
O 	O 	0.05230 0.31660 0.75690 -0.50100
H 	H 	0.12390 0.24340 0.91610 -0.05600
O 	O 	0.05230 0.81660 0.25690 -0.49900
H 	H 	0.12390 0.74340 0.41610 -0.06100
O 	O 	0.55230 0.31660 0.25690 -0.48800
H 	H 	0.62390 0.24340 0.41610 -0.06000
O 	O 	0.55230 0.81660 0.75690 -0.48400
H 	H 	0.62390 0.74340 0.91610 -0.04900
O 	O 	0.94770 0.68340 0.75690 -0.45800
H 	H 	0.87610 0.75660 0.91610 -0.04500
O 	O 	0.94770 0.18340 0.25690 -0.46200
H 	H 	0.87610 0.25660 0.41610 -0.05600
O 	O 	0.44770 0.68340 0.25690 -0.48800
H 	H 	0.37610 0.75660 0.41610 -0.05700
O 	O 	0.44770 0.18340 0.75690 -0.48900
H 	H 	0.37610 0.25660 0.91610 -0.05200
O 	O 	0.68340 0.75690 0.94770 -0.45800
H 	H 	0.75660 0.91610 0.87610 -0.04500
O 	O 	0.68340 0.25690 0.44770 -0.48800
H 	H 	0.75660 0.41610 0.37610 -0.05700
O 	O 	0.18340 0.75690 0.44770 -0.48900
H 	H 	0.25660 0.91610 0.37610 -0.05200
O 	O 	0.18340 0.25690 0.94770 -0.46200
H 	H 	0.25660 0.41610 0.87610 -0.05600
O 	O 	0.31660 0.75690 0.05230 -0.50100
H 	H 	0.24340 0.91610 0.12390 -0.05600
O 	O 	0.31660 0.25690 0.55230 -0.48800
H 	H 	0.24340 0.41610 0.62390 -0.06000
O 	O 	0.81660 0.75690 0.55230 -0.48400
H 	H 	0.74340 0.91610 0.62390 -0.04900
O 	O 	0.81660 0.25690 0.05230 -0.49900
H 	H 	0.74340 0.41610 0.12390 -0.06100
O 	O 	0.31660 0.24310 0.94770 -0.45900
H 	H 	0.24340 0.08390 0.87610 -0.06300
O 	O 	0.31660 0.74310 0.44770 -0.48600
H 	H 	0.24340 0.58390 0.37610 -0.06000
O 	O 	0.81660 0.24310 0.44770 -0.48500
H 	H 	0.74340 0.08390 0.37610 -0.06400
O 	O 	0.81660 0.74310 0.94770 -0.45400
H 	H 	0.74340 0.58390 0.87610 -0.05200
O 	O 	0.68340 0.24310 0.05230 -0.50200
H 	H 	0.75660 0.08390 0.12390 -0.06900
O 	O 	0.68340 0.74310 0.55230 -0.48600
H 	H 	0.75660 0.58390 0.62390 -0.05700
O 	O 	0.18340 0.24310 0.55230 -0.49000
H 	H 	0.25660 0.08390 0.62390 -0.06700
O 	O 	0.18340 0.74310 0.05230 -0.50200
H 	H 	0.25660 0.58390 0.12390 -0.06500
O 	O 	0.75690 0.05230 0.31660 -0.50100
H 	H 	0.91610 0.12390 0.24340 -0.05600
O 	O 	0.75690 0.55230 0.81660 -0.48400
H 	H 	0.91610 0.62390 0.74340 -0.04900
O 	O 	0.25690 0.05230 0.81660 -0.49900
H 	H 	0.41610 0.12390 0.74340 -0.06100
O 	O 	0.25690 0.55230 0.31660 -0.48800
H 	H 	0.41610 0.62390 0.24340 -0.06000
O 	O 	0.75690 0.94770 0.68340 -0.45800
H 	H 	0.91610 0.87610 0.75660 -0.04500
O 	O 	0.75690 0.44770 0.18340 -0.48900
H 	H 	0.91610 0.37610 0.25660 -0.05200
O 	O 	0.25690 0.94770 0.18340 -0.46200
H 	H 	0.41610 0.87610 0.25660 -0.05600
O 	O 	0.25690 0.44770 0.68340 -0.48800
H 	H 	0.41610 0.37610 0.75660 -0.05700
O 	O 	0.24310 0.05230 0.68340 -0.50200
H 	H 	0.08390 0.12390 0.75660 -0.06900
O 	O 	0.24310 0.55230 0.18340 -0.49000
H 	H 	0.08390 0.62390 0.25660 -0.06700
O 	O 	0.74310 0.05230 0.18340 -0.50200
H 	H 	0.58390 0.12390 0.25660 -0.06500
O 	O 	0.74310 0.55230 0.68340 -0.48600
H 	H 	0.58390 0.62390 0.75660 -0.05700
O 	O 	0.24310 0.94770 0.31660 -0.45900
H 	H 	0.08390 0.87610 0.24340 -0.06300
O 	O 	0.24310 0.44770 0.81660 -0.48500
H 	H 	0.08390 0.37610 0.74340 -0.06400
O 	O 	0.74310 0.94770 0.81660 -0.45400
H 	H 	0.58390 0.87610 0.74340 -0.05200
O 	O 	0.74310 0.44770 0.31660 -0.48600
H 	H 	0.58390 0.37610 0.24340 -0.06000
Cu	Cu	0.28530 0.00000 0.28530 0.88600
Cu	Cu	0.28530 0.50000 0.78530 0.91600
Cu	Cu	0.78530 0.00000 0.78530 0.88900
Cu	Cu	0.78530 0.50000 0.28530 0.91600
Cu	Cu	0.71470 0.00000 0.28530 0.88600
Cu	Cu	0.71470 0.50000 0.78530 0.91600
Cu	Cu	0.21470 0.00000 0.78530 0.88600
Cu	Cu	0.21470 0.50000 0.28530 0.91300
Cu	Cu	0.71470 0.00000 0.71470 0.88600
Cu	Cu	0.71470 0.50000 0.21470 0.91400
Cu	Cu	0.21470 0.00000 0.21470 0.88300
Cu	Cu	0.21470 0.50000 0.71470 0.91400
Cu	Cu	0.28530 0.00000 0.71470 0.88600
Cu	Cu	0.28530 0.50000 0.21470 0.91300
Cu	Cu	0.78530 0.00000 0.21470 0.88600
Cu	Cu	0.78530 0.50000 0.71470 0.91600
Cu	Cu	0.28530 0.28530 -0.00000 0.88600
Cu	Cu	0.28530 0.78530 0.50000 0.91600
Cu	Cu	0.78530 0.28530 0.50000 0.91600
Cu	Cu	0.78530 0.78530 -0.00000 0.88900
Cu	Cu	0.28530 0.71470 -0.00000 0.88600
Cu	Cu	0.28530 0.21470 0.50000 0.91300
Cu	Cu	0.78530 0.71470 0.50000 0.91600
Cu	Cu	0.78530 0.21470 -0.00000 0.88600
Cu	Cu	0.71470 0.71470 -0.00000 0.88600
Cu	Cu	0.71470 0.21470 0.50000 0.91400
Cu	Cu	0.21470 0.71470 0.50000 0.91400
Cu	Cu	0.21470 0.21470 -0.00000 0.88300
Cu	Cu	0.71470 0.28530 -0.00000 0.88600
Cu	Cu	0.71470 0.78530 0.50000 0.91600
Cu	Cu	0.21470 0.28530 0.50000 0.91300
Cu	Cu	0.21470 0.78530 -0.00000 0.88600
Cu	Cu	-0.00000 0.28530 0.28530 0.88600
Cu	Cu	0.00000 0.78530 0.78530 0.88900
Cu	Cu	0.50000 0.28530 0.78530 0.91600
Cu	Cu	0.50000 0.78530 0.28530 0.91600
Cu	Cu	0.00000 0.28530 0.71470 0.88600
Cu	Cu	0.00000 0.78530 0.21470 0.88600
Cu	Cu	0.50000 0.28530 0.21470 0.91300
Cu	Cu	0.50000 0.78530 0.71470 0.91600
Cu	Cu	0.00000 0.71470 0.71470 0.88600
Cu	Cu	0.00000 0.21470 0.21470 0.88300
Cu	Cu	0.50000 0.71470 0.21470 0.91400
Cu	Cu	0.50000 0.21470 0.71470 0.91400
Cu	Cu	0.00000 0.71470 0.28530 0.88600
Cu	Cu	0.00000 0.21470 0.78530 0.88600
Cu	Cu	0.50000 0.71470 0.78530 0.91600
Cu	Cu	0.50000 0.21470 0.28530 0.91300
C 	C 	0.29680 0.93080 0.20320 0.65700
C 	C 	0.32260 0.88780 0.17740 -0.88400
C 	C 	0.29680 0.43080 0.70320 0.66100
C 	C 	0.32260 0.38780 0.67740 -0.88600
C 	C 	0.70320 0.06920 0.20320 0.65800
C 	C 	0.67740 0.11220 0.17740 -0.88800
C 	C 	0.70320 0.56920 0.70320 0.66100
C 	C 	0.67740 0.61220 0.67740 -0.88800
C 	C 	0.20320 0.56920 0.20320 0.65900
C 	C 	0.17740 0.61220 0.17740 -0.88600
C 	C 	0.70320 0.93080 0.79680 0.65900
C 	C 	0.67740 0.88780 0.82260 -0.88500
C 	C 	0.70320 0.43080 0.29680 0.66100
C 	C 	0.67740 0.38780 0.32260 -0.88600
C 	C 	0.20320 0.93080 0.29680 0.65700
C 	C 	0.17740 0.88780 0.32260 -0.88400
C 	C 	0.29680 0.06920 0.79680 0.66100
C 	C 	0.32260 0.11220 0.82260 -0.88700
C 	C 	0.29680 0.56920 0.29680 0.66100
C 	C 	0.32260 0.61220 0.32260 -0.88500
C 	C 	0.20320 0.29680 0.93080 0.65700
C 	C 	0.17740 0.32260 0.88780 -0.88400
C 	C 	0.20320 0.79680 0.43080 0.66100
C 	C 	0.17740 0.82260 0.38780 -0.88600
C 	C 	0.20320 0.70320 0.06920 0.65800
C 	C 	0.17740 0.67740 0.11220 -0.88800
C 	C 	0.20320 0.20320 0.56920 0.65900
C 	C 	0.17740 0.17740 0.61220 -0.88600
C 	C 	0.79680 0.70320 0.93080 0.65900
C 	C 	0.82260 0.67740 0.88780 -0.88500
C 	C 	0.79680 0.20320 0.43080 0.66100
C 	C 	0.82260 0.17740 0.38780 -0.88600
C 	C 	0.29680 0.20320 0.93080 0.65700
C 	C 	0.32260 0.17740 0.88780 -0.88400
C 	C 	0.79680 0.29680 0.06920 0.66100
C 	C 	0.82260 0.32260 0.11220 -0.88700
C 	C 	0.79680 0.79680 0.56920 0.66300
C 	C 	0.82260 0.82260 0.61220 -0.88700
C 	C 	0.29680 0.29680 0.56920 0.66100
C 	C 	0.32260 0.32260 0.61220 -0.88500
C 	C 	0.93080 0.20320 0.29680 0.65700
C 	C 	0.88780 0.17740 0.32260 -0.88400
C 	C 	0.43080 0.20320 0.79680 0.66100
C 	C 	0.38780 0.17740 0.82260 -0.88600
C 	C 	0.06920 0.20320 0.70320 0.65800
C 	C 	0.11220 0.17740 0.67740 -0.88800
C 	C 	0.56920 0.20320 0.20320 0.65900
C 	C 	0.61220 0.17740 0.17740 -0.88600
C 	C 	0.93080 0.79680 0.70320 0.65900
C 	C 	0.88780 0.82260 0.67740 -0.88500
C 	C 	0.93080 0.29680 0.20320 0.65700
C 	C 	0.88780 0.32260 0.17740 -0.88400
C 	C 	0.43080 0.79680 0.20320 0.66100
C 	C 	0.38780 0.82260 0.17740 -0.88600
C 	C 	0.06920 0.79680 0.29680 0.66100
C 	C 	0.11220 0.82260 0.32260 -0.88700
C 	C 	0.56920 0.79680 0.79680 0.66300
C 	C 	0.61220 0.82260 0.82260 -0.88700
C 	C 	0.56920 0.29680 0.29680 0.66100
C 	C 	0.61220 0.32260 0.32260 -0.88500
C 	C 	0.93080 0.29680 0.79680 0.65900
C 	C 	0.88780 0.32260 0.82260 -0.88400
C 	C 	0.43080 0.29680 0.29680 0.66100
C 	C 	0.38780 0.32260 0.32260 -0.88500
C 	C 	0.06920 0.70320 0.79680 0.66000
C 	C 	0.11220 0.67740 0.82260 -0.88800
C 	C 	0.06920 0.20320 0.29680 0.65800
C 	C 	0.11220 0.17740 0.32260 -0.88700
C 	C 	0.56920 0.70320 0.29680 0.66100
C 	C 	0.61220 0.67740 0.32260 -0.88600
C 	C 	0.93080 0.70320 0.20320 0.65700
C 	C 	0.88780 0.67740 0.17740 -0.88500
C 	C 	0.43080 0.70320 0.70320 0.66100
C 	C 	0.38780 0.67740 0.67740 -0.88700
C 	C 	0.43080 0.20320 0.20320 0.65900
C 	C 	0.38780 0.17740 0.17740 -0.88600
C 	C 	0.06920 0.29680 0.20320 0.65800
C 	C 	0.11220 0.32260 0.17740 -0.88700
C 	C 	0.56920 0.29680 0.70320 0.66100
C 	C 	0.61220 0.32260 0.67740 -0.88600
C 	C 	0.29680 0.20320 0.06920 0.65800
C 	C 	0.32260 0.17740 0.11220 -0.88700
C 	C 	0.29680 0.70320 0.56920 0.66100
C 	C 	0.32260 0.67740 0.61220 -0.88600
C 	C 	0.70320 0.20320 0.93080 0.65700
C 	C 	0.67740 0.17740 0.88780 -0.88500
C 	C 	0.70320 0.70320 0.43080 0.66100
C 	C 	0.67740 0.67740 0.38780 -0.88700
C 	C 	0.20320 0.20320 0.43080 0.65900
C 	C 	0.17740 0.17740 0.38780 -0.88600
C 	C 	0.70320 0.79680 0.06920 0.66000
C 	C 	0.67740 0.82260 0.11220 -0.88800
C 	C 	0.70320 0.29680 0.56920 0.66100
C 	C 	0.67740 0.32260 0.61220 -0.88600
C 	C 	0.20320 0.29680 0.06920 0.65800
C 	C 	0.17740 0.32260 0.11220 -0.88700
C 	C 	0.29680 0.79680 0.93080 0.65900
C 	C 	0.32260 0.82260 0.88780 -0.88400
C 	C 	0.29680 0.29680 0.43080 0.66100
C 	C 	0.32260 0.32260 0.38780 -0.88500
C 	C 	0.20320 0.93080 0.70320 0.65700
C 	C 	0.17740 0.88780 0.67740 -0.88500
C 	C 	0.20320 0.43080 0.20320 0.65900
C 	C 	0.17740 0.38780 0.17740 -0.88600
C 	C 	0.20320 0.06920 0.29680 0.65800
C 	C 	0.17740 0.11220 0.32260 -0.88700
C 	C 	0.20320 0.56920 0.79680 0.66100
C 	C 	0.17740 0.61220 0.82260 -0.88700
C 	C 	0.79680 0.93080 0.29680 0.65900
C 	C 	0.82260 0.88780 0.32260 -0.88400
C 	C 	0.79680 0.43080 0.79680 0.66300
C 	C 	0.82260 0.38780 0.82260 -0.88700
C 	C 	0.29680 0.43080 0.29680 0.66100
C 	C 	0.32260 0.38780 0.32260 -0.88500
C 	C 	0.79680 0.06920 0.70320 0.66000
C 	C 	0.82260 0.11220 0.67740 -0.88800
C 	C 	0.79680 0.56920 0.20320 0.66100
C 	C 	0.82260 0.61220 0.17740 -0.88700
C 	C 	0.29680 0.06920 0.20320 0.65800
C 	C 	0.32260 0.11220 0.17740 -0.88700
C 	C 	0.70320 0.06920 0.79680 0.66000
C 	C 	0.67740 0.11220 0.82260 -0.88800
C 	C 	0.70320 0.56920 0.29680 0.66100
C 	C 	0.67740 0.61220 0.32260 -0.88600
C 	C 	0.29680 0.93080 0.79680 0.65900
C 	C 	0.32260 0.88780 0.82260 -0.88400
C 	C 	0.29680 0.56920 0.70320 0.66100
C 	C 	0.32260 0.61220 0.67740 -0.88600
C 	C 	0.70320 0.93080 0.20320 0.65700
C 	C 	0.67740 0.88780 0.17740 -0.88500
C 	C 	0.70320 0.43080 0.70320 0.66100
C 	C 	0.67740 0.38780 0.67740 -0.88700
C 	C 	0.79680 0.70320 0.06920 0.66000
C 	C 	0.82260 0.67740 0.11220 -0.88800
C 	C 	0.79680 0.20320 0.56920 0.66100
C 	C 	0.82260 0.17740 0.61220 -0.88700
C 	C 	0.79680 0.29680 0.93080 0.65900
C 	C 	0.82260 0.32260 0.88780 -0.88400
C 	C 	0.79680 0.79680 0.43080 0.66300
C 	C 	0.82260 0.82260 0.38780 -0.88700
C 	C 	0.20320 0.79680 0.56920 0.66100
C 	C 	0.17740 0.82260 0.61220 -0.88700
C 	C 	0.20320 0.70320 0.93080 0.65700
C 	C 	0.17740 0.67740 0.88780 -0.88500
C 	C 	0.06920 0.79680 0.70320 0.66000
C 	C 	0.11220 0.82260 0.67740 -0.88800
C 	C 	0.56920 0.79680 0.20320 0.66100
C 	C 	0.61220 0.82260 0.17740 -0.88700
C 	C 	0.93080 0.79680 0.29680 0.65900
C 	C 	0.88780 0.82260 0.32260 -0.88400
C 	C 	0.43080 0.79680 0.79680 0.66300
C 	C 	0.38780 0.82260 0.82260 -0.88700
C 	C 	0.56920 0.20320 0.79680 0.66100
C 	C 	0.61220 0.17740 0.82260 -0.88700
C 	C 	0.93080 0.20320 0.70320 0.65700
C 	C 	0.88780 0.17740 0.67740 -0.88500
C 	C 	0.06920 0.70320 0.20320 0.65800
C 	C 	0.11220 0.67740 0.17740 -0.88800
C 	C 	0.56920 0.70320 0.70320 0.66100
C 	C 	0.61220 0.67740 0.67740 -0.88800
C 	C 	0.43080 0.29680 0.70320 0.66100
C 	C 	0.38780 0.32260 0.67740 -0.88600
C 	C 	0.06920 0.29680 0.79680 0.66100
C 	C 	0.11220 0.32260 0.82260 -0.88700
C 	C 	0.93080 0.70320 0.79680 0.65900
C 	C 	0.88780 0.67740 0.82260 -0.88500
C 	C 	0.43080 0.70320 0.29680 0.66100
C 	C 	0.38780 0.67740 0.32260 -0.88600
C 	C 	0.70320 0.79680 0.93080 0.65900
C 	C 	0.67740 0.82260 0.88780 -0.88500
C 	C 	0.70320 0.29680 0.43080 0.66100
C 	C 	0.67740 0.32260 0.38780 -0.88600
C 	C 	0.29680 0.79680 0.06920 0.66100
C 	C 	0.32260 0.82260 0.11220 -0.88700
C 	C 	0.29680 0.70320 0.43080 0.66100
C 	C 	0.32260 0.67740 0.38780 -0.88600
C 	C 	0.70320 0.20320 0.06920 0.65800
C 	C 	0.67740 0.17740 0.11220 -0.88800
C 	C 	0.70320 0.70320 0.56920 0.66100
C 	C 	0.67740 0.67740 0.61220 -0.88800
C 	C 	0.79680 0.06920 0.29680 0.66100
C 	C 	0.82260 0.11220 0.32260 -0.88700
C 	C 	0.79680 0.56920 0.79680 0.66300
C 	C 	0.82260 0.61220 0.82260 -0.88700
C 	C 	0.79680 0.93080 0.70320 0.65900
C 	C 	0.82260 0.88780 0.67740 -0.88500
C 	C 	0.79680 0.43080 0.20320 0.66100
C 	C 	0.82260 0.38780 0.17740 -0.88600
C 	C 	0.20320 0.06920 0.70320 0.65800
C 	C 	0.17740 0.11220 0.67740 -0.88800
C 	C 	0.20320 0.43080 0.79680 0.66100
C 	C 	0.17740 0.38780 0.82260 -0.88600
C 	C 	0.30130 0.86650 0.13350 1.10400
H 	H 	0.27310 0.88150 0.11850 -0.80800
N 	N 	0.25770 0.89090 0.10910 0.56200
C 	C 	0.30130 0.36650 0.63350 1.10300
H 	H 	0.27310 0.38150 0.61850 -0.80600
N 	N 	0.25770 0.39090 0.60910 0.56100
C 	C 	0.80130 0.86650 0.63350 1.11400
H 	H 	0.77310 0.88150 0.61850 -0.81200
N 	N 	0.75770 0.89090 0.60910 0.56400
C 	C 	0.80130 0.36650 0.13350 1.09800
H 	H 	0.77310 0.38150 0.11850 -0.80100
N 	N 	0.75770 0.39090 0.10910 0.55600
C 	C 	0.69870 0.13350 0.13350 1.09200
H 	H 	0.72690 0.11850 0.11850 -0.80200
N 	N 	0.74230 0.10910 0.10910 0.55700
C 	C 	0.69870 0.63350 0.63350 1.10700
H 	H 	0.72690 0.61850 0.61850 -0.81000
N 	N 	0.74230 0.60910 0.60910 0.56400
C 	C 	0.19870 0.13350 0.63350 1.09600
H 	H 	0.22690 0.11850 0.61850 -0.80600
N 	N 	0.24230 0.10910 0.60910 0.56100
C 	C 	0.19870 0.63350 0.13350 1.09600
H 	H 	0.22690 0.61850 0.11850 -0.80600
N 	N 	0.24230 0.60910 0.10910 0.56100
C 	C 	0.69870 0.86650 0.86650 1.12400
H 	H 	0.72690 0.88150 0.88150 -0.82300
N 	N 	0.74230 0.89090 0.89090 0.57500
C 	C 	0.69870 0.36650 0.36650 1.10700
H 	H 	0.72690 0.38150 0.38150 -0.81200
N 	N 	0.74230 0.39090 0.39090 0.56600
C 	C 	0.19870 0.86650 0.36650 1.11200
H 	H 	0.22690 0.88150 0.38150 -0.81700
N 	N 	0.24230 0.89090 0.39090 0.57200
C 	C 	0.19870 0.36650 0.86650 1.11200
H 	H 	0.22690 0.38150 0.88150 -0.81700
N 	N 	0.24230 0.39090 0.89090 0.57200
C 	C 	0.30130 0.13350 0.86650 1.10400
H 	H 	0.27310 0.11850 0.88150 -0.80800
N 	N 	0.25770 0.10910 0.89090 0.56200
C 	C 	0.30130 0.63350 0.36650 1.10300
H 	H 	0.27310 0.61850 0.38150 -0.80600
N 	N 	0.25770 0.60910 0.39090 0.56100
C 	C 	0.80130 0.13350 0.36650 1.09800
H 	H 	0.77310 0.11850 0.38150 -0.80100
N 	N 	0.75770 0.10910 0.39090 0.55600
C 	C 	0.80130 0.63350 0.86650 1.11400
H 	H 	0.77310 0.61850 0.88150 -0.81200
N 	N 	0.75770 0.60910 0.89090 0.56400
C 	C 	0.13350 0.30130 0.86650 1.10400
H 	H 	0.11850 0.27310 0.88150 -0.80800
N 	N 	0.10910 0.25770 0.89090 0.56200
C 	C 	0.13350 0.80130 0.36650 1.09800
H 	H 	0.11850 0.77310 0.38150 -0.80100
N 	N 	0.10910 0.75770 0.39090 0.55600
C 	C 	0.63350 0.30130 0.36650 1.10300
H 	H 	0.61850 0.27310 0.38150 -0.80600
N 	N 	0.60910 0.25770 0.39090 0.56100
C 	C 	0.63350 0.80130 0.86650 1.11400
H 	H 	0.61850 0.77310 0.88150 -0.81200
N 	N 	0.60910 0.75770 0.89090 0.56400
C 	C 	0.13350 0.69870 0.13350 1.09200
H 	H 	0.11850 0.72690 0.11850 -0.80200
N 	N 	0.10910 0.74230 0.10910 0.55700
C 	C 	0.13350 0.19870 0.63350 1.09600
H 	H 	0.11850 0.22690 0.61850 -0.80600
N 	N 	0.10910 0.24230 0.60910 0.56100
C 	C 	0.63350 0.69870 0.63350 1.10700
H 	H 	0.61850 0.72690 0.61850 -0.81000
N 	N 	0.60910 0.74230 0.60910 0.56400
C 	C 	0.63350 0.19870 0.13350 1.09600
H 	H 	0.61850 0.22690 0.11850 -0.80600
N 	N 	0.60910 0.24230 0.10910 0.56100
C 	C 	0.86650 0.69870 0.86650 1.12400
H 	H 	0.88150 0.72690 0.88150 -0.82300
N 	N 	0.89090 0.74230 0.89090 0.57500
C 	C 	0.86650 0.19870 0.36650 1.11200
H 	H 	0.88150 0.22690 0.38150 -0.81700
N 	N 	0.89090 0.24230 0.39090 0.57200
C 	C 	0.36650 0.69870 0.36650 1.10700
H 	H 	0.38150 0.72690 0.38150 -0.81200
N 	N 	0.39090 0.74230 0.39090 0.56600
C 	C 	0.36650 0.19870 0.86650 1.11200
H 	H 	0.38150 0.22690 0.88150 -0.81700
N 	N 	0.39090 0.24230 0.89090 0.57200
C 	C 	0.86650 0.30130 0.13350 1.10400
H 	H 	0.88150 0.27310 0.11850 -0.80800
N 	N 	0.89090 0.25770 0.10910 0.56200
C 	C 	0.86650 0.80130 0.63350 1.11400
H 	H 	0.88150 0.77310 0.61850 -0.81200
N 	N 	0.89090 0.75770 0.60910 0.56400
C 	C 	0.36650 0.30130 0.63350 1.10300
H 	H 	0.38150 0.27310 0.61850 -0.80600
N 	N 	0.39090 0.25770 0.60910 0.56100
C 	C 	0.36650 0.80130 0.13350 1.09800
H 	H 	0.38150 0.77310 0.11850 -0.80100
N 	N 	0.39090 0.75770 0.10910 0.55600
C 	C 	0.86650 0.13350 0.30130 1.10400
H 	H 	0.88150 0.11850 0.27310 -0.80800
N 	N 	0.89090 0.10910 0.25770 0.56200
C 	C 	0.86650 0.63350 0.80130 1.11400
H 	H 	0.88150 0.61850 0.77310 -0.81200
N 	N 	0.89090 0.60910 0.75770 0.56400
C 	C 	0.36650 0.13350 0.80130 1.09800
H 	H 	0.38150 0.11850 0.77310 -0.80100
N 	N 	0.39090 0.10910 0.75770 0.55600
C 	C 	0.36650 0.63350 0.30130 1.10300
H 	H 	0.38150 0.61850 0.27310 -0.80600
N 	N 	0.39090 0.60910 0.25770 0.56100
C 	C 	0.13350 0.13350 0.69870 1.09200
H 	H 	0.11850 0.11850 0.72690 -0.80200
N 	N 	0.10910 0.10910 0.74230 0.55700
C 	C 	0.13350 0.63350 0.19870 1.09600
H 	H 	0.11850 0.61850 0.22690 -0.80600
N 	N 	0.10910 0.60910 0.24230 0.56100
C 	C 	0.63350 0.13350 0.19870 1.09600
H 	H 	0.61850 0.11850 0.22690 -0.80600
N 	N 	0.60910 0.10910 0.24230 0.56100
C 	C 	0.63350 0.63350 0.69870 1.10700
H 	H 	0.61850 0.61850 0.72690 -0.81000
N 	N 	0.60910 0.60910 0.74230 0.56400
C 	C 	0.86650 0.86650 0.69870 1.12400
H 	H 	0.88150 0.88150 0.72690 -0.82300
N 	N 	0.89090 0.89090 0.74230 0.57500
C 	C 	0.86650 0.36650 0.19870 1.11200
H 	H 	0.88150 0.38150 0.22690 -0.81700
N 	N 	0.89090 0.39090 0.24230 0.57200
C 	C 	0.36650 0.86650 0.19870 1.11200
H 	H 	0.38150 0.88150 0.22690 -0.81700
N 	N 	0.39090 0.89090 0.24230 0.57200
C 	C 	0.36650 0.36650 0.69870 1.10700
H 	H 	0.38150 0.38150 0.72690 -0.81200
N 	N 	0.39090 0.39090 0.74230 0.56600
C 	C 	0.13350 0.86650 0.30130 1.10400
H 	H 	0.11850 0.88150 0.27310 -0.80800
N 	N 	0.10910 0.89090 0.25770 0.56200
C 	C 	0.13350 0.36650 0.80130 1.09800
H 	H 	0.11850 0.38150 0.77310 -0.80100
N 	N 	0.10910 0.39090 0.75770 0.55600
C 	C 	0.63350 0.86650 0.80130 1.11400
H 	H 	0.61850 0.88150 0.77310 -0.81200
N 	N 	0.60910 0.89090 0.75770 0.56400
C 	C 	0.63350 0.36650 0.30130 1.10300
H 	H 	0.61850 0.38150 0.27310 -0.80600
N 	N 	0.60910 0.39090 0.25770 0.56100
C 	C 	0.86650 0.30130 0.86650 1.12000
H 	H 	0.88150 0.27310 0.88150 -0.81800
N 	N 	0.89090 0.25770 0.89090 0.57100
C 	C 	0.86650 0.80130 0.36650 1.11400
H 	H 	0.88150 0.77310 0.38150 -0.81200
N 	N 	0.89090 0.75770 0.39090 0.56500
C 	C 	0.36650 0.30130 0.36650 1.10300
H 	H 	0.38150 0.27310 0.38150 -0.80700
N 	N 	0.39090 0.25770 0.39090 0.56200
C 	C 	0.36650 0.80130 0.86650 1.11400
H 	H 	0.38150 0.77310 0.88150 -0.81200
N 	N 	0.39090 0.75770 0.89090 0.56500
C 	C 	0.13350 0.69870 0.86650 1.10800
H 	H 	0.11850 0.72690 0.88150 -0.81300
N 	N 	0.10910 0.74230 0.89090 0.56600
C 	C 	0.13350 0.19870 0.36650 1.09600
H 	H 	0.11850 0.22690 0.38150 -0.80700
N 	N 	0.10910 0.24230 0.39090 0.56200
C 	C 	0.63350 0.69870 0.36650 1.10700
H 	H 	0.61850 0.72690 0.38150 -0.81100
N 	N 	0.60910 0.74230 0.39090 0.56500
C 	C 	0.63350 0.19870 0.86650 1.11200
H 	H 	0.61850 0.22690 0.88150 -0.81700
N 	N 	0.60910 0.24230 0.89090 0.57100
C 	C 	0.86650 0.69870 0.13350 1.10800
H 	H 	0.88150 0.72690 0.11850 -0.81300
N 	N 	0.89090 0.74230 0.10910 0.56600
C 	C 	0.86650 0.19870 0.63350 1.11200
H 	H 	0.88150 0.22690 0.61850 -0.81700
N 	N 	0.89090 0.24230 0.60910 0.57100
C 	C 	0.36650 0.69870 0.63350 1.10700
H 	H 	0.38150 0.72690 0.61850 -0.81100
N 	N 	0.39090 0.74230 0.60910 0.56500
C 	C 	0.36650 0.19870 0.13350 1.09600
H 	H 	0.38150 0.22690 0.11850 -0.80700
N 	N 	0.39090 0.24230 0.10910 0.56200
C 	C 	0.13350 0.30130 0.13350 1.08700
H 	H 	0.11850 0.27310 0.11850 -0.79700
N 	N 	0.10910 0.25770 0.10910 0.55300
C 	C 	0.13350 0.80130 0.63350 1.09800
H 	H 	0.11850 0.77310 0.61850 -0.80100
N 	N 	0.10910 0.75770 0.60910 0.55500
C 	C 	0.63350 0.30130 0.63350 1.10200
H 	H 	0.61850 0.27310 0.61850 -0.80500
N 	N 	0.60910 0.25770 0.60910 0.56000
C 	C 	0.63350 0.80130 0.13350 1.09800
H 	H 	0.61850 0.77310 0.11850 -0.80100
N 	N 	0.60910 0.75770 0.10910 0.55500
C 	C 	0.30130 0.13350 0.13350 1.08700
H 	H 	0.27310 0.11850 0.11850 -0.79700
N 	N 	0.25770 0.10910 0.10910 0.55300
C 	C 	0.30130 0.63350 0.63350 1.10200
H 	H 	0.27310 0.61850 0.61850 -0.80500
N 	N 	0.25770 0.60910 0.60910 0.56000
C 	C 	0.80130 0.13350 0.63350 1.09800
H 	H 	0.77310 0.11850 0.61850 -0.80100
N 	N 	0.75770 0.10910 0.60910 0.55500
C 	C 	0.80130 0.63350 0.13350 1.09800
H 	H 	0.77310 0.61850 0.11850 -0.80100
N 	N 	0.75770 0.60910 0.10910 0.55500
C 	C 	0.69870 0.13350 0.86650 1.10800
H 	H 	0.72690 0.11850 0.88150 -0.81300
N 	N 	0.74230 0.10910 0.89090 0.56600
C 	C 	0.69870 0.63350 0.36650 1.10700
H 	H 	0.72690 0.61850 0.38150 -0.81100
N 	N 	0.74230 0.60910 0.39090 0.56500
C 	C 	0.19870 0.13350 0.36650 1.09600
H 	H 	0.22690 0.11850 0.38150 -0.80700
N 	N 	0.24230 0.10910 0.39090 0.56200
C 	C 	0.19870 0.63350 0.86650 1.11200
H 	H 	0.22690 0.61850 0.88150 -0.81700
N 	N 	0.24230 0.60910 0.89090 0.57100
C 	C 	0.69870 0.86650 0.13350 1.10800
H 	H 	0.72690 0.88150 0.11850 -0.81300
N 	N 	0.74230 0.89090 0.10910 0.56600
C 	C 	0.69870 0.36650 0.63350 1.10700
H 	H 	0.72690 0.38150 0.61850 -0.81100
N 	N 	0.74230 0.39090 0.60910 0.56500
C 	C 	0.19870 0.86650 0.63350 1.11200
H 	H 	0.22690 0.88150 0.61850 -0.81700
N 	N 	0.24230 0.89090 0.60910 0.57100
C 	C 	0.19870 0.36650 0.13350 1.09600
H 	H 	0.22690 0.38150 0.11850 -0.80700
N 	N 	0.24230 0.39090 0.10910 0.56200
C 	C 	0.30130 0.86650 0.86650 1.12000
H 	H 	0.27310 0.88150 0.88150 -0.81800
N 	N 	0.25770 0.89090 0.89090 0.57100
C 	C 	0.30130 0.36650 0.36650 1.10300
H 	H 	0.27310 0.38150 0.38150 -0.80700
N 	N 	0.25770 0.39090 0.39090 0.56200
C 	C 	0.80130 0.86650 0.36650 1.11400
H 	H 	0.77310 0.88150 0.38150 -0.81200
N 	N 	0.75770 0.89090 0.39090 0.56500
C 	C 	0.80130 0.36650 0.86650 1.11400
H 	H 	0.77310 0.38150 0.88150 -0.81200
N 	N 	0.75770 0.39090 0.89090 0.56500
C 	C 	0.13350 0.86650 0.69870 1.10800
H 	H 	0.11850 0.88150 0.72690 -0.81300
N 	N 	0.10910 0.89090 0.74230 0.56600
C 	C 	0.13350 0.36650 0.19870 1.09600
H 	H 	0.11850 0.38150 0.22690 -0.80700
N 	N 	0.10910 0.39090 0.24230 0.56200
C 	C 	0.63350 0.86650 0.19870 1.11200
H 	H 	0.61850 0.88150 0.22690 -0.81700
N 	N 	0.60910 0.89090 0.24230 0.57100
C 	C 	0.63350 0.36650 0.69870 1.10700
H 	H 	0.61850 0.38150 0.72690 -0.81100
N 	N 	0.60910 0.39090 0.74230 0.56500
C 	C 	0.13350 0.13350 0.30130 1.08700
H 	H 	0.11850 0.11850 0.27310 -0.79700
N 	N 	0.10910 0.10910 0.25770 0.55300
C 	C 	0.13350 0.63350 0.80130 1.09800
H 	H 	0.11850 0.61850 0.77310 -0.80100
N 	N 	0.10910 0.60910 0.75770 0.55500
C 	C 	0.63350 0.13350 0.80130 1.09800
H 	H 	0.61850 0.11850 0.77310 -0.80100
N 	N 	0.60910 0.10910 0.75770 0.55500
C 	C 	0.63350 0.63350 0.30130 1.10200
H 	H 	0.61850 0.61850 0.27310 -0.80500
N 	N 	0.60910 0.60910 0.25770 0.56000
C 	C 	0.86650 0.86650 0.30130 1.12000
H 	H 	0.88150 0.88150 0.27310 -0.81800
N 	N 	0.89090 0.89090 0.25770 0.57100
C 	C 	0.86650 0.36650 0.80130 1.11400
H 	H 	0.88150 0.38150 0.77310 -0.81200
N 	N 	0.89090 0.39090 0.75770 0.56500
C 	C 	0.36650 0.86650 0.80130 1.11400
H 	H 	0.38150 0.88150 0.77310 -0.81200
N 	N 	0.39090 0.89090 0.75770 0.56500
C 	C 	0.36650 0.36650 0.30130 1.10300
H 	H 	0.38150 0.38150 0.27310 -0.80700
N 	N 	0.39090 0.39090 0.25770 0.56200
C 	C 	0.86650 0.13350 0.69870 1.10800
H 	H 	0.88150 0.11850 0.72690 -0.81300
N 	N 	0.89090 0.10910 0.74230 0.56600
C 	C 	0.86650 0.63350 0.19870 1.11200
H 	H 	0.88150 0.61850 0.22690 -0.81700
N 	N 	0.89090 0.60910 0.24230 0.57100
C 	C 	0.36650 0.13350 0.19870 1.09600
H 	H 	0.38150 0.11850 0.22690 -0.80700
N 	N 	0.39090 0.10910 0.24230 0.56200
C 	C 	0.36650 0.63350 0.69870 1.10700
H 	H 	0.38150 0.61850 0.72690 -0.81100
N 	N 	0.39090 0.60910 0.74230 0.56500
