data_crystal

_cell_length_a 50.81980
_cell_length_b 50.81980
_cell_length_c 50.81980
_cell_angle_alpha 60.00000
_cell_angle_beta  60.00000
_cell_angle_gamma 60.00000

_symmetry_space_group_name_	'P 1'
_symmetry_space_group_name_H-M	'P 1'

loop_
_symmetry_equiv_pos_as_xyz
  x,y,z

loop_
_atom_site_label
_atom_site_type_symbol
_atom_site_fract_x
_atom_site_fract_y
_atom_site_fract_z
_atom_site_charge
Zn	Zn	0.34719 0.54899 0.16253 1.18800
Zn	Zn	0.04899 0.84719 0.94129 1.18800
Zn	Zn	0.66253 0.94129 0.84719 1.18800
Zn	Zn	0.44129 0.16253 0.54899 1.18800
Zn	Zn	0.34719 0.16253 0.94129 1.18800
Zn	Zn	0.04899 0.94129 0.16253 1.18800
Zn	Zn	0.66253 0.84719 0.54899 1.18800
Zn	Zn	0.44129 0.54899 0.84719 1.18800
Zn	Zn	0.34719 0.94129 0.54899 1.18800
Zn	Zn	0.04899 0.16253 0.84719 1.18800
Zn	Zn	0.66253 0.54899 0.94129 1.18800
Zn	Zn	0.44129 0.84719 0.16253 1.18800
Zn	Zn	0.54899 0.34719 0.66253 1.18800
Zn	Zn	0.84719 0.04899 0.44129 1.18800
Zn	Zn	0.94129 0.66253 0.34719 1.18800
Zn	Zn	0.16253 0.44129 0.04899 1.18800
Zn	Zn	0.16253 0.34719 0.44129 1.18800
Zn	Zn	0.94129 0.04899 0.66253 1.18800
Zn	Zn	0.84719 0.66253 0.04899 1.18800
Zn	Zn	0.54899 0.44129 0.34719 1.18800
Zn	Zn	0.94129 0.34719 0.04899 1.18800
Zn	Zn	0.16253 0.04899 0.34719 1.18800
Zn	Zn	0.54899 0.66253 0.44129 1.18800
Zn	Zn	0.84719 0.44129 0.66253 1.18800
H 	H 	0.54810 0.54530 0.09790 0.13800
H 	H 	0.41470 0.54810 0.11630 0.01600
H 	H 	0.56740 0.53900 0.00280 -0.00500
H 	H 	0.52340 0.43360 0.28220 -0.00200
H 	H 	0.44790 0.50230 0.31510 -0.00700
H 	H 	0.47090 0.52210 0.16490 0.03100
H 	H 	0.51960 0.53520 0.04380 0.15200
H 	H 	0.37790 0.52790 0.21010 0.00500
H 	H 	0.42680 0.51600 0.27740 0.14600
H 	H 	0.50110 0.44630 0.24470 0.11700
H 	H 	0.59400 0.55160 0.05580 -0.01600
H 	H 	0.50250 0.53170 0.12090 0.16100
H 	H 	0.46640 0.48320 0.21620 0.16700
H 	H 	0.04530 0.04810 0.80870 0.13800
H 	H 	0.04810 0.91470 0.92090 0.01600
H 	H 	0.03900 0.06740 0.89080 -0.00500
H 	H 	0.93360 0.02340 0.76080 -0.00200
H 	H 	0.00230 0.94790 0.73470 -0.00700
H 	H 	0.02210 0.97090 0.84210 0.03100
H 	H 	0.03520 0.01960 0.90140 0.15200
H 	H 	0.02790 0.87790 0.88410 0.00500
H 	H 	0.01600 0.92680 0.77980 0.14500
H 	H 	0.94630 0.00110 0.80790 0.11600
H 	H 	0.05160 0.09400 0.79860 -0.01600
H 	H 	0.03170 0.00250 0.84490 0.16100
H 	H 	0.98320 0.96640 0.83420 0.16700
H 	H 	0.59790 0.80870 0.04810 0.13800
H 	H 	0.61630 0.92090 0.91470 0.01600
H 	H 	0.50280 0.89080 0.06740 -0.00500
H 	H 	0.78220 0.76080 0.02340 -0.00200
H 	H 	0.81510 0.73470 0.94790 -0.00700
H 	H 	0.66490 0.84210 0.97090 0.03100
H 	H 	0.54380 0.90140 0.01960 0.15200
H 	H 	0.71010 0.88410 0.87790 0.00500
H 	H 	0.77740 0.77980 0.92680 0.14600
H 	H 	0.74470 0.80790 0.00110 0.11600
H 	H 	0.55580 0.79860 0.09400 -0.01600
H 	H 	0.62090 0.84490 0.00250 0.16100
H 	H 	0.71620 0.83420 0.96640 0.16700
H 	H 	0.30870 0.09790 0.54530 0.13800
H 	H 	0.42090 0.11630 0.54810 0.01600
H 	H 	0.39080 0.00280 0.53900 -0.00400
H 	H 	0.26080 0.28220 0.43360 -0.00200
H 	H 	0.23470 0.31510 0.50230 -0.00700
H 	H 	0.34210 0.16490 0.52210 0.03100
H 	H 	0.40140 0.04380 0.53520 0.15200
H 	H 	0.38410 0.21010 0.52790 0.00500
H 	H 	0.27980 0.27740 0.51600 0.14600
H 	H 	0.30790 0.24470 0.44630 0.11700
H 	H 	0.29860 0.05580 0.55160 -0.01600
H 	H 	0.34490 0.12090 0.53170 0.16100
H 	H 	0.33420 0.21620 0.48320 0.16700
H 	H 	0.54810 0.09790 0.80870 0.13900
H 	H 	0.41470 0.11630 0.92090 0.01700
H 	H 	0.56740 0.00280 0.89080 -0.00400
H 	H 	0.52340 0.28220 0.76080 -0.00100
H 	H 	0.44790 0.31510 0.73470 -0.00600
H 	H 	0.47090 0.16490 0.84210 0.03200
H 	H 	0.51960 0.04380 0.90140 0.15300
H 	H 	0.37790 0.21010 0.88410 0.00600
H 	H 	0.42680 0.27740 0.77980 0.14700
H 	H 	0.50110 0.24470 0.80790 0.11800
H 	H 	0.59400 0.05580 0.79860 -0.01500
H 	H 	0.50250 0.12090 0.84490 0.16200
H 	H 	0.46640 0.21620 0.83420 0.16800
H 	H 	0.04530 0.80870 0.09790 0.13900
H 	H 	0.04810 0.92090 0.11630 0.01700
H 	H 	0.03900 0.89080 0.00280 -0.00300
H 	H 	0.93360 0.76080 0.28220 -0.00100
H 	H 	0.00230 0.73470 0.31510 -0.00600
H 	H 	0.02210 0.84210 0.16490 0.03200
H 	H 	0.03520 0.90140 0.04380 0.15300
H 	H 	0.02790 0.88410 0.21010 0.00600
H 	H 	0.01600 0.77980 0.27740 0.14700
H 	H 	0.94630 0.80790 0.24470 0.11800
H 	H 	0.05160 0.79860 0.05580 -0.01500
H 	H 	0.03170 0.84490 0.12090 0.16200
H 	H 	0.98320 0.83420 0.21620 0.16800
H 	H 	0.59790 0.04810 0.54530 0.13900
H 	H 	0.61630 0.91470 0.54810 0.01700
H 	H 	0.50280 0.06740 0.53900 -0.00400
H 	H 	0.78220 0.02340 0.43360 -0.00100
H 	H 	0.81510 0.94790 0.50230 -0.00600
H 	H 	0.66490 0.97090 0.52210 0.03200
H 	H 	0.54380 0.01960 0.53520 0.15300
H 	H 	0.71010 0.87790 0.52790 0.00600
H 	H 	0.77740 0.92680 0.51600 0.14700
H 	H 	0.74470 0.00110 0.44630 0.11700
H 	H 	0.55580 0.09400 0.55160 -0.01500
H 	H 	0.62090 0.00250 0.53170 0.16200
H 	H 	0.71620 0.96640 0.48320 0.16800
H 	H 	0.30870 0.54530 0.04810 0.13900
H 	H 	0.42090 0.54810 0.91470 0.01700
H 	H 	0.39080 0.53900 0.06740 -0.00400
H 	H 	0.26080 0.43360 0.02340 -0.00100
H 	H 	0.23470 0.50230 0.94790 -0.00600
H 	H 	0.34210 0.52210 0.97090 0.03200
H 	H 	0.40140 0.53520 0.01960 0.15300
H 	H 	0.38410 0.52790 0.87790 0.00600
H 	H 	0.27980 0.51600 0.92680 0.14700
H 	H 	0.30790 0.44630 0.00110 0.11800
H 	H 	0.29860 0.55160 0.09400 -0.01500
H 	H 	0.34490 0.53170 0.00250 0.16200
H 	H 	0.33420 0.48320 0.96640 0.16800
H 	H 	0.54810 0.80870 0.54530 0.13900
H 	H 	0.41470 0.92090 0.54810 0.01700
H 	H 	0.56740 0.89080 0.53900 -0.00400
H 	H 	0.52340 0.76080 0.43360 -0.00100
H 	H 	0.44790 0.73470 0.50230 -0.00600
H 	H 	0.47090 0.84210 0.52210 0.03200
H 	H 	0.51960 0.90140 0.53520 0.15300
H 	H 	0.37790 0.88410 0.52790 0.00600
H 	H 	0.42680 0.77980 0.51600 0.14700
H 	H 	0.50110 0.80790 0.44630 0.11800
H 	H 	0.59400 0.79860 0.55160 -0.01500
H 	H 	0.50250 0.84490 0.53170 0.16200
H 	H 	0.46640 0.83420 0.48320 0.16800
H 	H 	0.04530 0.09790 0.04810 0.13900
H 	H 	0.04810 0.11630 0.91470 0.01700
H 	H 	0.03900 0.00280 0.06740 -0.00300
H 	H 	0.93360 0.28220 0.02340 -0.00100
H 	H 	0.00230 0.31510 0.94790 -0.00600
H 	H 	0.02210 0.16490 0.97090 0.03200
H 	H 	0.03520 0.04380 0.01960 0.15300
H 	H 	0.02790 0.21010 0.87790 0.00600
H 	H 	0.01600 0.27740 0.92680 0.14600
H 	H 	0.94630 0.24470 0.00110 0.11700
H 	H 	0.05160 0.05580 0.09400 -0.01500
H 	H 	0.03170 0.12090 0.00250 0.16200
H 	H 	0.98320 0.21620 0.96640 0.16800
H 	H 	0.59790 0.54530 0.80870 0.13900
H 	H 	0.61630 0.54810 0.92090 0.01700
H 	H 	0.50280 0.53900 0.89080 -0.00400
H 	H 	0.78220 0.43360 0.76080 -0.00100
H 	H 	0.81510 0.50230 0.73470 -0.00600
H 	H 	0.66490 0.52210 0.84210 0.03200
H 	H 	0.54380 0.53520 0.90140 0.15300
H 	H 	0.71010 0.52790 0.88410 0.00600
H 	H 	0.77740 0.51600 0.77980 0.14700
H 	H 	0.74470 0.44630 0.80790 0.11800
H 	H 	0.55580 0.55160 0.79860 -0.01500
H 	H 	0.62090 0.53170 0.84490 0.16200
H 	H 	0.71620 0.48320 0.83420 0.16800
H 	H 	0.30870 0.04810 0.09790 0.13900
H 	H 	0.42090 0.91470 0.11630 0.01700
H 	H 	0.39080 0.06740 0.00280 -0.00400
H 	H 	0.26080 0.02340 0.28220 -0.00100
H 	H 	0.23470 0.94790 0.31510 -0.00600
H 	H 	0.34210 0.97090 0.16490 0.03200
H 	H 	0.40140 0.01960 0.04380 0.15300
H 	H 	0.38410 0.87790 0.21010 0.00600
H 	H 	0.27980 0.92680 0.27740 0.14700
H 	H 	0.30790 0.00110 0.24470 0.11800
H 	H 	0.29860 0.09400 0.05580 -0.01500
H 	H 	0.34490 0.00250 0.12090 0.16200
H 	H 	0.33420 0.96640 0.21620 0.16800
H 	H 	0.54530 0.54810 0.59790 0.13900
H 	H 	0.54810 0.41470 0.61630 0.01700
H 	H 	0.53900 0.56740 0.50280 -0.00400
H 	H 	0.43360 0.52340 0.78220 -0.00100
H 	H 	0.50230 0.44790 0.81510 -0.00600
H 	H 	0.52210 0.47090 0.66490 0.03200
H 	H 	0.53520 0.51960 0.54380 0.15300
H 	H 	0.52790 0.37790 0.71010 0.00600
H 	H 	0.51600 0.42680 0.77740 0.14700
H 	H 	0.44630 0.50110 0.74470 0.11800
H 	H 	0.55160 0.59400 0.55580 -0.01500
H 	H 	0.53170 0.50250 0.62090 0.16200
H 	H 	0.48320 0.46640 0.71620 0.16800
H 	H 	0.04810 0.04530 0.30870 0.13900
H 	H 	0.91470 0.04810 0.42090 0.01700
H 	H 	0.06740 0.03900 0.39080 -0.00300
H 	H 	0.02340 0.93360 0.26080 -0.00100
H 	H 	0.94790 0.00230 0.23470 -0.00600
H 	H 	0.97090 0.02210 0.34210 0.03200
H 	H 	0.01960 0.03520 0.40140 0.15300
H 	H 	0.87790 0.02790 0.38410 0.00600
H 	H 	0.92680 0.01600 0.27980 0.14600
H 	H 	0.00110 0.94630 0.30790 0.11700
H 	H 	0.09400 0.05160 0.29860 -0.01500
H 	H 	0.00250 0.03170 0.34490 0.16200
H 	H 	0.96640 0.98320 0.33420 0.16800
H 	H 	0.80870 0.59790 0.54810 0.13900
H 	H 	0.92090 0.61630 0.41470 0.01700
H 	H 	0.89080 0.50280 0.56740 -0.00400
H 	H 	0.76080 0.78220 0.52340 -0.00100
H 	H 	0.73470 0.81510 0.44790 -0.00600
H 	H 	0.84210 0.66490 0.47090 0.03200
H 	H 	0.90140 0.54380 0.51960 0.15300
H 	H 	0.88410 0.71010 0.37790 0.00600
H 	H 	0.77980 0.77740 0.42680 0.14700
H 	H 	0.80790 0.74470 0.50110 0.11800
H 	H 	0.79860 0.55580 0.59400 -0.01500
H 	H 	0.84490 0.62090 0.50250 0.16200
H 	H 	0.83420 0.71620 0.46640 0.16800
H 	H 	0.09790 0.30870 0.04530 0.13900
H 	H 	0.11630 0.42090 0.04810 0.01700
H 	H 	0.00280 0.39080 0.03900 -0.00300
H 	H 	0.28220 0.26080 0.93360 -0.00100
H 	H 	0.31510 0.23470 0.00230 -0.00600
H 	H 	0.16490 0.34210 0.02210 0.03200
H 	H 	0.04380 0.40140 0.03520 0.15300
H 	H 	0.21010 0.38410 0.02790 0.00600
H 	H 	0.27740 0.27980 0.01600 0.14700
H 	H 	0.24470 0.30790 0.94630 0.11800
H 	H 	0.05580 0.29860 0.05160 -0.01500
H 	H 	0.12090 0.34490 0.03170 0.16200
H 	H 	0.21620 0.33420 0.98320 0.16800
H 	H 	0.09790 0.54810 0.30870 0.13900
H 	H 	0.11630 0.41470 0.42090 0.01700
H 	H 	0.00280 0.56740 0.39080 -0.00400
H 	H 	0.28220 0.52340 0.26080 -0.00100
H 	H 	0.31510 0.44790 0.23470 -0.00600
H 	H 	0.16490 0.47090 0.34210 0.03200
H 	H 	0.04380 0.51960 0.40140 0.15300
H 	H 	0.21010 0.37790 0.38410 0.00600
H 	H 	0.27740 0.42680 0.27980 0.14700
H 	H 	0.24470 0.50110 0.30790 0.11800
H 	H 	0.05580 0.59400 0.29860 -0.01500
H 	H 	0.12090 0.50250 0.34490 0.16200
H 	H 	0.21620 0.46640 0.33420 0.16800
H 	H 	0.80870 0.04530 0.59790 0.13900
H 	H 	0.92090 0.04810 0.61630 0.01700
H 	H 	0.89080 0.03900 0.50280 -0.00400
H 	H 	0.76080 0.93360 0.78220 -0.00100
H 	H 	0.73470 0.00230 0.81510 -0.00600
H 	H 	0.84210 0.02210 0.66490 0.03200
H 	H 	0.90140 0.03520 0.54380 0.15300
H 	H 	0.88410 0.02790 0.71010 0.00600
H 	H 	0.77980 0.01600 0.77740 0.14700
H 	H 	0.80790 0.94630 0.74470 0.11800
H 	H 	0.79860 0.05160 0.55580 -0.01500
H 	H 	0.84490 0.03170 0.62090 0.16200
H 	H 	0.83420 0.98320 0.71620 0.16800
H 	H 	0.04810 0.59790 0.04530 0.13900
H 	H 	0.91470 0.61630 0.04810 0.01700
H 	H 	0.06740 0.50280 0.03900 -0.00300
H 	H 	0.02340 0.78220 0.93360 -0.00100
H 	H 	0.94790 0.81510 0.00230 -0.00600
H 	H 	0.97090 0.66490 0.02210 0.03200
H 	H 	0.01960 0.54380 0.03520 0.15300
H 	H 	0.87790 0.71010 0.02790 0.00600
H 	H 	0.92680 0.77740 0.01600 0.14600
H 	H 	0.00110 0.74470 0.94630 0.11700
H 	H 	0.09400 0.55580 0.05160 -0.01500
H 	H 	0.00250 0.62090 0.03170 0.16200
H 	H 	0.96640 0.71620 0.98320 0.16800
H 	H 	0.54530 0.30870 0.54810 0.13900
H 	H 	0.54810 0.42090 0.41470 0.01700
H 	H 	0.53900 0.39080 0.56740 -0.00400
H 	H 	0.43360 0.26080 0.52340 -0.00100
H 	H 	0.50230 0.23470 0.44790 -0.00600
H 	H 	0.52210 0.34210 0.47090 0.03200
H 	H 	0.53520 0.40140 0.51960 0.15300
H 	H 	0.52790 0.38410 0.37790 0.00600
H 	H 	0.51600 0.27980 0.42680 0.14700
H 	H 	0.44630 0.30790 0.50110 0.11800
H 	H 	0.55160 0.29860 0.59400 -0.01500
H 	H 	0.53170 0.34490 0.50250 0.16200
H 	H 	0.48320 0.33420 0.46640 0.16800
H 	H 	0.80870 0.54810 0.04530 0.13900
H 	H 	0.92090 0.41470 0.04810 0.01700
H 	H 	0.89080 0.56740 0.03900 -0.00400
H 	H 	0.76080 0.52340 0.93360 -0.00100
H 	H 	0.73470 0.44790 0.00230 -0.00600
H 	H 	0.84210 0.47090 0.02210 0.03200
H 	H 	0.90140 0.51960 0.03520 0.15300
H 	H 	0.88410 0.37790 0.02790 0.00600
H 	H 	0.77980 0.42680 0.01600 0.14700
H 	H 	0.80790 0.50110 0.94630 0.11800
H 	H 	0.79860 0.59400 0.05160 -0.01500
H 	H 	0.84490 0.50250 0.03170 0.16200
H 	H 	0.83420 0.46640 0.98320 0.16800
H 	H 	0.09790 0.04530 0.54810 0.13900
H 	H 	0.11630 0.04810 0.41470 0.01700
H 	H 	0.00280 0.03900 0.56740 -0.00300
H 	H 	0.28220 0.93360 0.52340 -0.00100
H 	H 	0.31510 0.00230 0.44790 -0.00600
H 	H 	0.16490 0.02210 0.47090 0.03200
H 	H 	0.04380 0.03520 0.51960 0.15300
H 	H 	0.21010 0.02790 0.37790 0.00600
H 	H 	0.27740 0.01600 0.42680 0.14700
H 	H 	0.24470 0.94630 0.50110 0.11800
H 	H 	0.05580 0.05160 0.59400 -0.01500
H 	H 	0.12090 0.03170 0.50250 0.16200
H 	H 	0.21620 0.98320 0.46640 0.16800
H 	H 	0.54530 0.59790 0.30870 0.13900
H 	H 	0.54810 0.61630 0.42090 0.01700
H 	H 	0.53900 0.50280 0.39080 -0.00400
H 	H 	0.43360 0.78220 0.26080 -0.00100
H 	H 	0.50230 0.81510 0.23470 -0.00600
H 	H 	0.52210 0.66490 0.34210 0.03200
H 	H 	0.53520 0.54380 0.40140 0.15300
H 	H 	0.52790 0.71010 0.38410 0.00600
H 	H 	0.51600 0.77740 0.27980 0.14700
H 	H 	0.44630 0.74470 0.30790 0.11800
H 	H 	0.55160 0.55580 0.29860 -0.01500
H 	H 	0.53170 0.62090 0.34490 0.16200
H 	H 	0.48320 0.71620 0.33420 0.16800
H 	H 	0.04810 0.30870 0.59790 0.13900
H 	H 	0.91470 0.42090 0.61630 0.01700
H 	H 	0.06740 0.39080 0.50280 -0.00400
H 	H 	0.02340 0.26080 0.78220 -0.00100
H 	H 	0.94790 0.23470 0.81510 -0.00600
H 	H 	0.97090 0.34210 0.66490 0.03200
H 	H 	0.01960 0.40140 0.54380 0.15300
H 	H 	0.87790 0.38410 0.71010 0.00600
H 	H 	0.92680 0.27980 0.77740 0.14700
H 	H 	0.00110 0.30790 0.74470 0.11800
H 	H 	0.09400 0.29860 0.55580 -0.01500
H 	H 	0.00250 0.34490 0.62090 0.16200
H 	H 	0.96640 0.33420 0.71620 0.16800
C 	C 	0.55162 0.54454 0.07846 -0.28200
C 	C 	0.41719 0.54169 0.13575 0.06100
C 	C 	0.48754 0.46700 0.30230 -0.17600
C 	C 	0.58552 0.54588 0.02428 -0.21000
C 	C 	0.44681 0.53585 0.13531 -0.10100
C 	C 	0.47335 0.53939 0.10377 0.26300
C 	C 	0.52878 0.53996 0.07562 0.25600
C 	C 	0.42490 0.52264 0.19304 -0.09800
C 	C 	0.46223 0.48377 0.25635 0.24700
C 	C 	0.56330 0.54080 0.02190 0.17200
C 	C 	0.50389 0.45009 0.28141 0.12900
C 	C 	0.45913 0.49113 0.30067 0.14900
C 	C 	0.50279 0.46055 0.32523 0.35600
C 	C 	0.45099 0.52613 0.16457 0.02800
C 	C 	0.42512 0.51490 0.22522 0.25900
C 	C 	0.53464 0.53816 0.04648 -0.26400
C 	C 	0.39560 0.52952 0.19114 0.05200
C 	C 	0.61602 0.54840 0.99798 0.36600
C 	C 	0.44647 0.49941 0.27789 -0.25900
C 	C 	0.49063 0.45819 0.25841 -0.23800
C 	C 	0.57928 0.54788 0.05348 0.17000
C 	C 	0.04454 0.05162 0.82538 -0.28200
C 	C 	0.04169 0.91719 0.90537 0.06100
C 	C 	0.96700 0.98754 0.74316 -0.17500
C 	C 	0.04588 0.08552 0.84432 -0.21000
C 	C 	0.03585 0.94681 0.88203 -0.10100
C 	C 	0.03939 0.97335 0.88349 0.26300
C 	C 	0.03996 0.02878 0.85564 0.25600
C 	C 	0.02264 0.92490 0.85942 -0.09800
C 	C 	0.98377 0.96223 0.79765 0.24700
C 	C 	0.04080 0.06330 0.87400 0.17200
C 	C 	0.95009 0.00389 0.76461 0.12800
C 	C 	0.99113 0.95913 0.74907 0.14900
C 	C 	0.96055 0.00279 0.71143 0.35600
C 	C 	0.02613 0.95099 0.85831 0.02700
C 	C 	0.01490 0.92512 0.83476 0.25800
C 	C 	0.03816 0.03464 0.88072 -0.26300
C 	C 	0.02952 0.89560 0.88374 0.05200
C 	C 	0.04840 0.11602 0.83760 0.36600
C 	C 	0.99941 0.94647 0.77623 -0.25900
C 	C 	0.95819 0.99063 0.79277 -0.23700
C 	C 	0.04788 0.07928 0.81936 0.17000
C 	C 	0.57846 0.82538 0.05162 -0.28200
C 	C 	0.63575 0.90537 0.91719 0.06100
C 	C 	0.80230 0.74316 0.98754 -0.17500
C 	C 	0.52428 0.84432 0.08552 -0.21000
C 	C 	0.63531 0.88203 0.94681 -0.10100
C 	C 	0.60377 0.88349 0.97335 0.26300
C 	C 	0.57562 0.85564 0.02878 0.25600
C 	C 	0.69304 0.85942 0.92490 -0.09800
C 	C 	0.75635 0.79765 0.96223 0.24700
C 	C 	0.52190 0.87400 0.06330 0.17200
C 	C 	0.78141 0.76461 0.00389 0.12900
C 	C 	0.80067 0.74907 0.95913 0.14900
C 	C 	0.82523 0.71143 0.00279 0.35600
C 	C 	0.66457 0.85831 0.95099 0.02800
C 	C 	0.72522 0.83476 0.92512 0.25900
C 	C 	0.54648 0.88072 0.03464 -0.26300
C 	C 	0.69114 0.88374 0.89560 0.05200
C 	C 	0.49798 0.83760 0.11602 0.36600
C 	C 	0.77789 0.77623 0.94647 -0.25900
C 	C 	0.75841 0.79277 0.99063 -0.23800
C 	C 	0.55348 0.81936 0.07928 0.17000
C 	C 	0.32538 0.07846 0.54454 -0.28200
C 	C 	0.40537 0.13575 0.54169 0.06100
C 	C 	0.24316 0.30230 0.46700 -0.17600
C 	C 	0.34432 0.02428 0.54588 -0.21000
C 	C 	0.38203 0.13531 0.53585 -0.10100
C 	C 	0.38349 0.10377 0.53939 0.26300
C 	C 	0.35564 0.07562 0.53996 0.25600
C 	C 	0.35942 0.19304 0.52264 -0.09800
C 	C 	0.29765 0.25635 0.48377 0.24700
C 	C 	0.37400 0.02190 0.54080 0.17200
C 	C 	0.26461 0.28141 0.45009 0.12900
C 	C 	0.24907 0.30067 0.49113 0.14900
C 	C 	0.21143 0.32523 0.46055 0.35600
C 	C 	0.35831 0.16457 0.52613 0.02800
C 	C 	0.33476 0.22522 0.51490 0.25900
C 	C 	0.38072 0.04648 0.53816 -0.26300
C 	C 	0.38374 0.19114 0.52952 0.05200
C 	C 	0.33760 0.99798 0.54840 0.36600
C 	C 	0.27623 0.27789 0.49941 -0.25900
C 	C 	0.29277 0.25841 0.45819 -0.23800
C 	C 	0.31936 0.05348 0.54788 0.17000
C 	C 	0.55162 0.07846 0.82538 -0.28200
C 	C 	0.41719 0.13575 0.90537 0.06100
C 	C 	0.48754 0.30230 0.74316 -0.17600
C 	C 	0.58552 0.02428 0.84432 -0.21000
C 	C 	0.44681 0.13531 0.88203 -0.10100
C 	C 	0.47335 0.10377 0.88349 0.26300
C 	C 	0.52878 0.07562 0.85564 0.25600
C 	C 	0.42490 0.19304 0.85942 -0.09800
C 	C 	0.46223 0.25635 0.79765 0.24700
C 	C 	0.56330 0.02190 0.87400 0.17200
C 	C 	0.50389 0.28141 0.76461 0.12900
C 	C 	0.45913 0.30067 0.74907 0.14900
C 	C 	0.50279 0.32523 0.71143 0.35600
C 	C 	0.45099 0.16457 0.85831 0.02800
C 	C 	0.42512 0.22522 0.83476 0.25900
C 	C 	0.53464 0.04648 0.88072 -0.26400
C 	C 	0.39560 0.19114 0.88374 0.05200
C 	C 	0.61602 0.99798 0.83760 0.36600
C 	C 	0.44647 0.27789 0.77623 -0.25900
C 	C 	0.49063 0.25841 0.79277 -0.23800
C 	C 	0.57928 0.05348 0.81936 0.17000
C 	C 	0.04454 0.82538 0.07846 -0.28200
C 	C 	0.04169 0.90537 0.13575 0.06100
C 	C 	0.96700 0.74316 0.30230 -0.17600
C 	C 	0.04588 0.84432 0.02428 -0.21000
C 	C 	0.03585 0.88203 0.13531 -0.10100
C 	C 	0.03939 0.88349 0.10377 0.26300
C 	C 	0.03996 0.85564 0.07562 0.25600
C 	C 	0.02264 0.85942 0.19304 -0.09800
C 	C 	0.98377 0.79765 0.25635 0.24700
C 	C 	0.04080 0.87400 0.02190 0.17200
C 	C 	0.95009 0.76461 0.28141 0.12900
C 	C 	0.99113 0.74907 0.30067 0.14900
C 	C 	0.96055 0.71143 0.32523 0.35600
C 	C 	0.02613 0.85831 0.16457 0.02800
C 	C 	0.01490 0.83476 0.22522 0.25900
C 	C 	0.03816 0.88072 0.04648 -0.26300
C 	C 	0.02952 0.88374 0.19114 0.05200
C 	C 	0.04840 0.83760 0.99798 0.36500
C 	C 	0.99941 0.77623 0.27789 -0.25900
C 	C 	0.95819 0.79277 0.25841 -0.23800
C 	C 	0.04788 0.81936 0.05348 0.17000
C 	C 	0.57846 0.05162 0.54454 -0.28200
C 	C 	0.63575 0.91719 0.54169 0.06100
C 	C 	0.80230 0.98754 0.46700 -0.17500
C 	C 	0.52428 0.08552 0.54588 -0.21000
C 	C 	0.63531 0.94681 0.53585 -0.10100
C 	C 	0.60377 0.97335 0.53939 0.26300
C 	C 	0.57562 0.02878 0.53996 0.25600
C 	C 	0.69304 0.92490 0.52264 -0.09800
C 	C 	0.75635 0.96223 0.48377 0.24700
C 	C 	0.52190 0.06330 0.54080 0.17200
C 	C 	0.78141 0.00389 0.45009 0.12800
C 	C 	0.80067 0.95913 0.49113 0.14900
C 	C 	0.82523 0.00279 0.46055 0.35600
C 	C 	0.66457 0.95099 0.52613 0.02800
C 	C 	0.72522 0.92512 0.51490 0.25900
C 	C 	0.54648 0.03464 0.53816 -0.26300
C 	C 	0.69114 0.89560 0.52952 0.05200
C 	C 	0.49798 0.11602 0.54840 0.36600
C 	C 	0.77789 0.94647 0.49941 -0.25900
C 	C 	0.75841 0.99063 0.45819 -0.23800
C 	C 	0.55348 0.07928 0.54788 0.17000
C 	C 	0.32538 0.54454 0.05162 -0.28200
C 	C 	0.40537 0.54169 0.91719 0.06100
C 	C 	0.24316 0.46700 0.98754 -0.17600
C 	C 	0.34432 0.54588 0.08552 -0.21000
C 	C 	0.38203 0.53585 0.94681 -0.10100
C 	C 	0.38349 0.53939 0.97335 0.26300
C 	C 	0.35564 0.53996 0.02878 0.25600
C 	C 	0.35942 0.52264 0.92490 -0.09800
C 	C 	0.29765 0.48377 0.96223 0.24700
C 	C 	0.37400 0.54080 0.06330 0.17200
C 	C 	0.26461 0.45009 0.00389 0.12900
C 	C 	0.24907 0.49113 0.95913 0.14900
C 	C 	0.21143 0.46055 0.00279 0.35600
C 	C 	0.35831 0.52613 0.95099 0.02800
C 	C 	0.33476 0.51490 0.92512 0.25900
C 	C 	0.38072 0.53816 0.03464 -0.26300
C 	C 	0.38374 0.52952 0.89560 0.05200
C 	C 	0.33760 0.54840 0.11602 0.36600
C 	C 	0.27623 0.49941 0.94647 -0.25900
C 	C 	0.29277 0.45819 0.99063 -0.23800
C 	C 	0.31936 0.54788 0.07928 0.17000
C 	C 	0.55162 0.82538 0.54454 -0.28200
C 	C 	0.41719 0.90537 0.54169 0.06100
C 	C 	0.48754 0.74316 0.46700 -0.17600
C 	C 	0.58552 0.84432 0.54588 -0.21000
C 	C 	0.44681 0.88203 0.53585 -0.10100
C 	C 	0.47335 0.88349 0.53939 0.26300
C 	C 	0.52878 0.85564 0.53996 0.25600
C 	C 	0.42490 0.85942 0.52264 -0.09800
C 	C 	0.46223 0.79765 0.48377 0.24700
C 	C 	0.56330 0.87400 0.54080 0.17200
C 	C 	0.50389 0.76461 0.45009 0.12900
C 	C 	0.45913 0.74907 0.49113 0.14900
C 	C 	0.50279 0.71143 0.46055 0.35600
C 	C 	0.45099 0.85831 0.52613 0.02800
C 	C 	0.42512 0.83476 0.51490 0.25900
C 	C 	0.53464 0.88072 0.53816 -0.26300
C 	C 	0.39560 0.88374 0.52952 0.05200
C 	C 	0.61602 0.83760 0.54840 0.36600
C 	C 	0.44647 0.77623 0.49941 -0.25900
C 	C 	0.49063 0.79277 0.45819 -0.23800
C 	C 	0.57928 0.81936 0.54788 0.17000
C 	C 	0.04454 0.07846 0.05162 -0.28200
C 	C 	0.04169 0.13575 0.91719 0.06100
C 	C 	0.96700 0.30230 0.98754 -0.17500
C 	C 	0.04588 0.02428 0.08552 -0.21000
C 	C 	0.03585 0.13531 0.94681 -0.10100
C 	C 	0.03939 0.10377 0.97335 0.26300
C 	C 	0.03996 0.07562 0.02878 0.25600
C 	C 	0.02264 0.19304 0.92490 -0.09800
C 	C 	0.98377 0.25635 0.96223 0.24700
C 	C 	0.04080 0.02190 0.06330 0.17200
C 	C 	0.95009 0.28141 0.00389 0.12800
C 	C 	0.99113 0.30067 0.95913 0.14900
C 	C 	0.96055 0.32523 0.00279 0.35600
C 	C 	0.02613 0.16457 0.95099 0.02700
C 	C 	0.01490 0.22522 0.92512 0.25900
C 	C 	0.03816 0.04648 0.03464 -0.26300
C 	C 	0.02952 0.19114 0.89560 0.05200
C 	C 	0.04840 0.99798 0.11602 0.36600
C 	C 	0.99941 0.27789 0.94647 -0.25900
C 	C 	0.95819 0.25841 0.99063 -0.23700
C 	C 	0.04788 0.05348 0.07928 0.17000
C 	C 	0.57846 0.54454 0.82538 -0.28200
C 	C 	0.63575 0.54169 0.90537 0.06100
C 	C 	0.80230 0.46700 0.74316 -0.17600
C 	C 	0.52428 0.54588 0.84432 -0.21000
C 	C 	0.63531 0.53585 0.88203 -0.10100
C 	C 	0.60377 0.53939 0.88349 0.26300
C 	C 	0.57562 0.53996 0.85564 0.25600
C 	C 	0.69304 0.52264 0.85942 -0.09800
C 	C 	0.75635 0.48377 0.79765 0.24700
C 	C 	0.52190 0.54080 0.87400 0.17200
C 	C 	0.78141 0.45009 0.76461 0.12900
C 	C 	0.80067 0.49113 0.74907 0.14900
C 	C 	0.82523 0.46055 0.71143 0.35600
C 	C 	0.66457 0.52613 0.85831 0.02800
C 	C 	0.72522 0.51490 0.83476 0.25900
C 	C 	0.54648 0.53816 0.88072 -0.26300
C 	C 	0.69114 0.52952 0.88374 0.05200
C 	C 	0.49798 0.54840 0.83760 0.36600
C 	C 	0.77789 0.49941 0.77623 -0.25900
C 	C 	0.75841 0.45819 0.79277 -0.23800
C 	C 	0.55348 0.54788 0.81936 0.17000
C 	C 	0.32538 0.05162 0.07846 -0.28200
C 	C 	0.40537 0.91719 0.13575 0.06100
C 	C 	0.24316 0.98754 0.30230 -0.17600
C 	C 	0.34432 0.08552 0.02428 -0.21000
C 	C 	0.38203 0.94681 0.13531 -0.10100
C 	C 	0.38349 0.97335 0.10377 0.26300
C 	C 	0.35564 0.02878 0.07562 0.25600
C 	C 	0.35942 0.92490 0.19304 -0.09800
C 	C 	0.29765 0.96223 0.25635 0.24700
C 	C 	0.37400 0.06330 0.02190 0.17200
C 	C 	0.26461 0.00389 0.28141 0.12900
C 	C 	0.24907 0.95913 0.30067 0.14900
C 	C 	0.21143 0.00279 0.32523 0.35600
C 	C 	0.35831 0.95099 0.16457 0.02800
C 	C 	0.33476 0.92512 0.22522 0.25900
C 	C 	0.38072 0.03464 0.04648 -0.26300
C 	C 	0.38374 0.89560 0.19114 0.05200
C 	C 	0.33760 0.11602 0.99798 0.36600
C 	C 	0.27623 0.94647 0.27789 -0.25900
C 	C 	0.29277 0.99063 0.25841 -0.23800
C 	C 	0.31936 0.07928 0.05348 0.17000
C 	C 	0.54454 0.55162 0.57846 -0.28200
C 	C 	0.54169 0.41719 0.63575 0.06100
C 	C 	0.46700 0.48754 0.80230 -0.17600
C 	C 	0.54588 0.58552 0.52428 -0.21000
C 	C 	0.53585 0.44681 0.63531 -0.10100
C 	C 	0.53939 0.47335 0.60377 0.26300
C 	C 	0.53996 0.52878 0.57562 0.25600
C 	C 	0.52264 0.42490 0.69304 -0.09800
C 	C 	0.48377 0.46223 0.75635 0.24700
C 	C 	0.54080 0.56330 0.52190 0.17200
C 	C 	0.45009 0.50389 0.78141 0.12900
C 	C 	0.49113 0.45913 0.80067 0.14900
C 	C 	0.46055 0.50279 0.82523 0.35600
C 	C 	0.52613 0.45099 0.66457 0.02800
C 	C 	0.51490 0.42512 0.72522 0.25900
C 	C 	0.53816 0.53464 0.54648 -0.26300
C 	C 	0.52952 0.39560 0.69114 0.05200
C 	C 	0.54840 0.61602 0.49798 0.36600
C 	C 	0.49941 0.44647 0.77789 -0.25900
C 	C 	0.45819 0.49063 0.75841 -0.23800
C 	C 	0.54788 0.57928 0.55348 0.17000
C 	C 	0.05162 0.04454 0.32538 -0.28200
C 	C 	0.91719 0.04169 0.40537 0.06100
C 	C 	0.98754 0.96700 0.24316 -0.17500
C 	C 	0.08552 0.04588 0.34432 -0.21000
C 	C 	0.94681 0.03585 0.38203 -0.10100
C 	C 	0.97335 0.03939 0.38349 0.26300
C 	C 	0.02878 0.03996 0.35564 0.25600
C 	C 	0.92490 0.02264 0.35942 -0.09800
C 	C 	0.96223 0.98377 0.29765 0.24700
C 	C 	0.06330 0.04080 0.37400 0.17200
C 	C 	0.00389 0.95009 0.26461 0.12900
C 	C 	0.95913 0.99113 0.24907 0.14900
C 	C 	0.00279 0.96055 0.21143 0.35600
C 	C 	0.95099 0.02613 0.35831 0.02700
C 	C 	0.92512 0.01490 0.33476 0.25800
C 	C 	0.03464 0.03816 0.38072 -0.26300
C 	C 	0.89560 0.02952 0.38374 0.05200
C 	C 	0.11602 0.04840 0.33760 0.36600
C 	C 	0.94647 0.99941 0.27623 -0.25900
C 	C 	0.99063 0.95819 0.29277 -0.23800
C 	C 	0.07928 0.04788 0.31936 0.17000
C 	C 	0.82538 0.57846 0.55162 -0.28200
C 	C 	0.90537 0.63575 0.41719 0.06100
C 	C 	0.74316 0.80230 0.48754 -0.17600
C 	C 	0.84432 0.52428 0.58552 -0.21000
C 	C 	0.88203 0.63531 0.44681 -0.10100
C 	C 	0.88349 0.60377 0.47335 0.26300
C 	C 	0.85564 0.57562 0.52878 0.25600
C 	C 	0.85942 0.69304 0.42490 -0.09800
C 	C 	0.79765 0.75635 0.46223 0.24700
C 	C 	0.87400 0.52190 0.56330 0.17200
C 	C 	0.76461 0.78141 0.50389 0.12900
C 	C 	0.74907 0.80067 0.45913 0.14900
C 	C 	0.71143 0.82523 0.50279 0.35600
C 	C 	0.85831 0.66457 0.45099 0.02800
C 	C 	0.83476 0.72522 0.42512 0.25900
C 	C 	0.88072 0.54648 0.53464 -0.26300
C 	C 	0.88374 0.69114 0.39560 0.05200
C 	C 	0.83760 0.49798 0.61602 0.36600
C 	C 	0.77623 0.77789 0.44647 -0.25900
C 	C 	0.79277 0.75841 0.49063 -0.23800
C 	C 	0.81936 0.55348 0.57928 0.17000
C 	C 	0.07846 0.32538 0.04454 -0.28200
C 	C 	0.13575 0.40537 0.04169 0.06100
C 	C 	0.30230 0.24316 0.96700 -0.17600
C 	C 	0.02428 0.34432 0.04588 -0.21000
C 	C 	0.13531 0.38203 0.03585 -0.10100
C 	C 	0.10377 0.38349 0.03939 0.26300
C 	C 	0.07562 0.35564 0.03996 0.25600
C 	C 	0.19304 0.35942 0.02264 -0.09800
C 	C 	0.25635 0.29765 0.98377 0.24700
C 	C 	0.02190 0.37400 0.04080 0.17200
C 	C 	0.28141 0.26461 0.95009 0.12900
C 	C 	0.30067 0.24907 0.99113 0.14900
C 	C 	0.32523 0.21143 0.96055 0.35600
C 	C 	0.16457 0.35831 0.02613 0.02800
C 	C 	0.22522 0.33476 0.01490 0.25900
C 	C 	0.04648 0.38072 0.03816 -0.26300
C 	C 	0.19114 0.38374 0.02952 0.05200
C 	C 	0.99798 0.33760 0.04840 0.36500
C 	C 	0.27789 0.27623 0.99941 -0.25900
C 	C 	0.25841 0.29277 0.95819 -0.23800
C 	C 	0.05348 0.31936 0.04788 0.17000
C 	C 	0.07846 0.55162 0.32538 -0.28200
C 	C 	0.13575 0.41719 0.40537 0.06100
C 	C 	0.30230 0.48754 0.24316 -0.17600
C 	C 	0.02428 0.58552 0.34432 -0.21000
C 	C 	0.13531 0.44681 0.38203 -0.10100
C 	C 	0.10377 0.47335 0.38349 0.26300
C 	C 	0.07562 0.52878 0.35564 0.25600
C 	C 	0.19304 0.42490 0.35942 -0.09800
C 	C 	0.25635 0.46223 0.29765 0.24700
C 	C 	0.02190 0.56330 0.37400 0.17200
C 	C 	0.28141 0.50389 0.26461 0.12900
C 	C 	0.30067 0.45913 0.24907 0.14900
C 	C 	0.32523 0.50279 0.21143 0.35600
C 	C 	0.16457 0.45099 0.35831 0.02800
C 	C 	0.22522 0.42512 0.33476 0.25900
C 	C 	0.04648 0.53464 0.38072 -0.26300
C 	C 	0.19114 0.39560 0.38374 0.05200
C 	C 	0.99798 0.61602 0.33760 0.36600
C 	C 	0.27789 0.44647 0.27623 -0.25900
C 	C 	0.25841 0.49063 0.29277 -0.23800
C 	C 	0.05348 0.57928 0.31936 0.17000
C 	C 	0.82538 0.04454 0.57846 -0.28200
C 	C 	0.90537 0.04169 0.63575 0.06100
C 	C 	0.74316 0.96700 0.80230 -0.17600
C 	C 	0.84432 0.04588 0.52428 -0.21000
C 	C 	0.88203 0.03585 0.63531 -0.10100
C 	C 	0.88349 0.03939 0.60377 0.26300
C 	C 	0.85564 0.03996 0.57562 0.25600
C 	C 	0.85942 0.02264 0.69304 -0.09800
C 	C 	0.79765 0.98377 0.75635 0.24700
C 	C 	0.87400 0.04080 0.52190 0.17200
C 	C 	0.76461 0.95009 0.78141 0.12900
C 	C 	0.74907 0.99113 0.80067 0.14900
C 	C 	0.71143 0.96055 0.82523 0.35600
C 	C 	0.85831 0.02613 0.66457 0.02700
C 	C 	0.83476 0.01490 0.72522 0.25900
C 	C 	0.88072 0.03816 0.54648 -0.26300
C 	C 	0.88374 0.02952 0.69114 0.05200
C 	C 	0.83760 0.04840 0.49798 0.36600
C 	C 	0.77623 0.99941 0.77789 -0.25900
C 	C 	0.79277 0.95819 0.75841 -0.23800
C 	C 	0.81936 0.04788 0.55348 0.17000
C 	C 	0.05162 0.57846 0.04454 -0.28200
C 	C 	0.91719 0.63575 0.04169 0.06100
C 	C 	0.98754 0.80230 0.96700 -0.17500
C 	C 	0.08552 0.52428 0.04588 -0.21000
C 	C 	0.94681 0.63531 0.03585 -0.10100
C 	C 	0.97335 0.60377 0.03939 0.26300
C 	C 	0.02878 0.57562 0.03996 0.25600
C 	C 	0.92490 0.69304 0.02264 -0.09800
C 	C 	0.96223 0.75635 0.98377 0.24700
C 	C 	0.06330 0.52190 0.04080 0.17200
C 	C 	0.00389 0.78141 0.95009 0.12800
C 	C 	0.95913 0.80067 0.99113 0.14900
C 	C 	0.00279 0.82523 0.96055 0.35500
C 	C 	0.95099 0.66457 0.02613 0.02700
C 	C 	0.92512 0.72522 0.01490 0.25800
C 	C 	0.03464 0.54648 0.03816 -0.26300
C 	C 	0.89560 0.69114 0.02952 0.05200
C 	C 	0.11602 0.49798 0.04840 0.36600
C 	C 	0.94647 0.77789 0.99941 -0.25900
C 	C 	0.99063 0.75841 0.95819 -0.23700
C 	C 	0.07928 0.55348 0.04788 0.17000
C 	C 	0.54454 0.32538 0.55162 -0.28200
C 	C 	0.54169 0.40537 0.41719 0.06100
C 	C 	0.46700 0.24316 0.48754 -0.17600
C 	C 	0.54588 0.34432 0.58552 -0.21000
C 	C 	0.53585 0.38203 0.44681 -0.10100
C 	C 	0.53939 0.38349 0.47335 0.26300
C 	C 	0.53996 0.35564 0.52878 0.25600
C 	C 	0.52264 0.35942 0.42490 -0.09800
C 	C 	0.48377 0.29765 0.46223 0.24700
C 	C 	0.54080 0.37400 0.56330 0.17200
C 	C 	0.45009 0.26461 0.50389 0.12900
C 	C 	0.49113 0.24907 0.45913 0.14900
C 	C 	0.46055 0.21143 0.50279 0.35600
C 	C 	0.52613 0.35831 0.45099 0.02800
C 	C 	0.51490 0.33476 0.42512 0.25900
C 	C 	0.53816 0.38072 0.53464 -0.26300
C 	C 	0.52952 0.38374 0.39560 0.05200
C 	C 	0.54840 0.33760 0.61602 0.36600
C 	C 	0.49941 0.27623 0.44647 -0.25900
C 	C 	0.45819 0.29277 0.49063 -0.23800
C 	C 	0.54788 0.31936 0.57928 0.17000
C 	C 	0.82538 0.55162 0.04454 -0.28200
C 	C 	0.90537 0.41719 0.04169 0.06100
C 	C 	0.74316 0.48754 0.96700 -0.17600
C 	C 	0.84432 0.58552 0.04588 -0.21000
C 	C 	0.88203 0.44681 0.03585 -0.10100
C 	C 	0.88349 0.47335 0.03939 0.26300
C 	C 	0.85564 0.52878 0.03996 0.25600
C 	C 	0.85942 0.42490 0.02264 -0.09800
C 	C 	0.79765 0.46223 0.98377 0.24700
C 	C 	0.87400 0.56330 0.04080 0.17200
C 	C 	0.76461 0.50389 0.95009 0.12900
C 	C 	0.74907 0.45913 0.99113 0.14900
C 	C 	0.71143 0.50279 0.96055 0.35600
C 	C 	0.85831 0.45099 0.02613 0.02700
C 	C 	0.83476 0.42512 0.01490 0.25900
C 	C 	0.88072 0.53464 0.03816 -0.26300
C 	C 	0.88374 0.39560 0.02952 0.05200
C 	C 	0.83760 0.61602 0.04840 0.36600
C 	C 	0.77623 0.44647 0.99941 -0.25900
C 	C 	0.79277 0.49063 0.95819 -0.23800
C 	C 	0.81936 0.57928 0.04788 0.17000
C 	C 	0.07846 0.04454 0.55162 -0.28200
C 	C 	0.13575 0.04169 0.41719 0.06100
C 	C 	0.30230 0.96700 0.48754 -0.17600
C 	C 	0.02428 0.04588 0.58552 -0.21000
C 	C 	0.13531 0.03585 0.44681 -0.10100
C 	C 	0.10377 0.03939 0.47335 0.26300
C 	C 	0.07562 0.03996 0.52878 0.25600
C 	C 	0.19304 0.02264 0.42490 -0.09800
C 	C 	0.25635 0.98377 0.46223 0.24700
C 	C 	0.02190 0.04080 0.56330 0.17200
C 	C 	0.28141 0.95009 0.50389 0.12900
C 	C 	0.30067 0.99113 0.45913 0.14900
C 	C 	0.32523 0.96055 0.50279 0.35600
C 	C 	0.16457 0.02613 0.45099 0.02800
C 	C 	0.22522 0.01490 0.42512 0.25900
C 	C 	0.04648 0.03816 0.53464 -0.26300
C 	C 	0.19114 0.02952 0.39560 0.05200
C 	C 	0.99798 0.04840 0.61602 0.36600
C 	C 	0.27789 0.99941 0.44647 -0.25900
C 	C 	0.25841 0.95819 0.49063 -0.23800
C 	C 	0.05348 0.04788 0.57928 0.17000
C 	C 	0.54454 0.57846 0.32538 -0.28200
C 	C 	0.54169 0.63575 0.40537 0.06100
C 	C 	0.46700 0.80230 0.24316 -0.17600
C 	C 	0.54588 0.52428 0.34432 -0.21000
C 	C 	0.53585 0.63531 0.38203 -0.10100
C 	C 	0.53939 0.60377 0.38349 0.26300
C 	C 	0.53996 0.57562 0.35564 0.25600
C 	C 	0.52264 0.69304 0.35942 -0.09800
C 	C 	0.48377 0.75635 0.29765 0.24700
C 	C 	0.54080 0.52190 0.37400 0.17200
C 	C 	0.45009 0.78141 0.26461 0.12900
C 	C 	0.49113 0.80067 0.24907 0.14900
C 	C 	0.46055 0.82523 0.21143 0.35600
C 	C 	0.52613 0.66457 0.35831 0.02800
C 	C 	0.51490 0.72522 0.33476 0.25900
C 	C 	0.53816 0.54648 0.38072 -0.26300
C 	C 	0.52952 0.69114 0.38374 0.05200
C 	C 	0.54840 0.49798 0.33760 0.36600
C 	C 	0.49941 0.77789 0.27623 -0.25900
C 	C 	0.45819 0.75841 0.29277 -0.23800
C 	C 	0.54788 0.55348 0.31936 0.17000
C 	C 	0.05162 0.32538 0.57846 -0.28200
C 	C 	0.91719 0.40537 0.63575 0.06100
C 	C 	0.98754 0.24316 0.80230 -0.17600
C 	C 	0.08552 0.34432 0.52428 -0.21000
C 	C 	0.94681 0.38203 0.63531 -0.10100
C 	C 	0.97335 0.38349 0.60377 0.26300
C 	C 	0.02878 0.35564 0.57562 0.25600
C 	C 	0.92490 0.35942 0.69304 -0.09800
C 	C 	0.96223 0.29765 0.75635 0.24700
C 	C 	0.06330 0.37400 0.52190 0.17200
C 	C 	0.00389 0.26461 0.78141 0.12900
C 	C 	0.95913 0.24907 0.80067 0.14900
C 	C 	0.00279 0.21143 0.82523 0.35600
C 	C 	0.95099 0.35831 0.66457 0.02800
C 	C 	0.92512 0.33476 0.72522 0.25900
C 	C 	0.03464 0.38072 0.54648 -0.26300
C 	C 	0.89560 0.38374 0.69114 0.05200
C 	C 	0.11602 0.33760 0.49798 0.36600
C 	C 	0.94647 0.27623 0.77789 -0.25900
C 	C 	0.99063 0.29277 0.75841 -0.23800
C 	C 	0.07928 0.31936 0.55348 0.17000
N 	N 	0.39149 0.53851 0.16293 -0.26400
N 	N 	0.50120 0.53638 0.10276 -0.28400
N 	N 	0.45306 0.49272 0.23022 -0.27800
N 	N 	0.03851 0.89149 0.90707 -0.26400
N 	N 	0.03638 0.00120 0.85966 -0.28400
N 	N 	0.99272 0.95306 0.82400 -0.27800
N 	N 	0.66293 0.90707 0.89149 -0.26400
N 	N 	0.60276 0.85966 0.00120 -0.28400
N 	N 	0.73022 0.82400 0.95306 -0.27800
N 	N 	0.40707 0.16293 0.53851 -0.26400
N 	N 	0.35966 0.10276 0.53638 -0.28400
N 	N 	0.32400 0.23022 0.49272 -0.27800
N 	N 	0.39149 0.16293 0.90707 -0.26400
N 	N 	0.50120 0.10276 0.85966 -0.28400
N 	N 	0.45306 0.23022 0.82400 -0.27800
N 	N 	0.03851 0.90707 0.16293 -0.26400
N 	N 	0.03638 0.85966 0.10276 -0.28400
N 	N 	0.99272 0.82400 0.23022 -0.27800
N 	N 	0.66293 0.89149 0.53851 -0.26400
N 	N 	0.60276 0.00120 0.53638 -0.28400
N 	N 	0.73022 0.95306 0.49272 -0.27800
N 	N 	0.40707 0.53851 0.89149 -0.26400
N 	N 	0.35966 0.53638 0.00120 -0.28400
N 	N 	0.32400 0.49272 0.95306 -0.27800
N 	N 	0.39149 0.90707 0.53851 -0.26400
N 	N 	0.50120 0.85966 0.53638 -0.28400
N 	N 	0.45306 0.82400 0.49272 -0.27800
N 	N 	0.03851 0.16293 0.89149 -0.26400
N 	N 	0.03638 0.10276 0.00120 -0.28400
N 	N 	0.99272 0.23022 0.95306 -0.27800
N 	N 	0.66293 0.53851 0.90707 -0.26400
N 	N 	0.60276 0.53638 0.85966 -0.28400
N 	N 	0.73022 0.49272 0.82400 -0.27800
N 	N 	0.40707 0.89149 0.16293 -0.26400
N 	N 	0.35966 0.00120 0.10276 -0.28400
N 	N 	0.32400 0.95306 0.23022 -0.27800
N 	N 	0.53851 0.39149 0.66293 -0.26400
N 	N 	0.53638 0.50120 0.60276 -0.28400
N 	N 	0.49272 0.45306 0.73022 -0.27800
N 	N 	0.89149 0.03851 0.40707 -0.26400
N 	N 	0.00120 0.03638 0.35966 -0.28400
N 	N 	0.95306 0.99272 0.32400 -0.27800
N 	N 	0.90707 0.66293 0.39149 -0.26400
N 	N 	0.85966 0.60276 0.50120 -0.28400
N 	N 	0.82400 0.73022 0.45306 -0.27800
N 	N 	0.16293 0.40707 0.03851 -0.26400
N 	N 	0.10276 0.35966 0.03638 -0.28400
N 	N 	0.23022 0.32400 0.99272 -0.27800
N 	N 	0.16293 0.39149 0.40707 -0.26400
N 	N 	0.10276 0.50120 0.35966 -0.28400
N 	N 	0.23022 0.45306 0.32400 -0.27800
N 	N 	0.90707 0.03851 0.66293 -0.26400
N 	N 	0.85966 0.03638 0.60276 -0.28400
N 	N 	0.82400 0.99272 0.73022 -0.27800
N 	N 	0.89149 0.66293 0.03851 -0.26400
N 	N 	0.00120 0.60276 0.03638 -0.28400
N 	N 	0.95306 0.73022 0.99272 -0.27800
N 	N 	0.53851 0.40707 0.39149 -0.26400
N 	N 	0.53638 0.35966 0.50120 -0.28400
N 	N 	0.49272 0.32400 0.45306 -0.27800
N 	N 	0.90707 0.39149 0.03851 -0.26400
N 	N 	0.85966 0.50120 0.03638 -0.28400
N 	N 	0.82400 0.45306 0.99272 -0.27800
N 	N 	0.16293 0.03851 0.39149 -0.26400
N 	N 	0.10276 0.03638 0.50120 -0.28400
N 	N 	0.23022 0.99272 0.45306 -0.27800
N 	N 	0.53851 0.66293 0.40707 -0.26400
N 	N 	0.53638 0.60276 0.35966 -0.28400
N 	N 	0.49272 0.73022 0.32400 -0.27800
N 	N 	0.89149 0.40707 0.66293 -0.26400
N 	N 	0.00120 0.35966 0.60276 -0.28400
N 	N 	0.95306 0.32400 0.73022 -0.27800
O 	O 	0.46755 0.54639 0.08015 -0.24400
O 	O 	0.40228 0.52744 0.24444 -0.25000
O 	O 	0.53087 0.43957 0.32281 -0.48600
O 	O 	0.48775 0.47649 0.34371 -0.34600
O 	O 	0.63834 0.54928 0.00190 -0.35500
O 	O 	0.61978 0.54802 0.97162 -0.47700
O 	O 	0.04639 0.96755 0.90591 -0.24400
O 	O 	0.02744 0.90228 0.82584 -0.25000
O 	O 	0.93957 0.03087 0.70675 -0.48600
O 	O 	0.97649 0.98775 0.69205 -0.34600
O 	O 	0.04928 0.13834 0.81048 -0.35500
O 	O 	0.04802 0.11978 0.86058 -0.47700
O 	O 	0.58015 0.90591 0.96755 -0.24400
O 	O 	0.74444 0.82584 0.90228 -0.25000
O 	O 	0.82281 0.70675 0.03087 -0.48600
O 	O 	0.84371 0.69205 0.98775 -0.34600
O 	O 	0.50190 0.81048 0.13834 -0.35500
O 	O 	0.47162 0.86058 0.11978 -0.47700
O 	O 	0.40591 0.08015 0.54639 -0.24400
O 	O 	0.32584 0.24444 0.52744 -0.25000
O 	O 	0.20675 0.32281 0.43957 -0.48600
O 	O 	0.19205 0.34371 0.47649 -0.34600
O 	O 	0.31048 0.00190 0.54928 -0.35400
O 	O 	0.36058 0.97162 0.54802 -0.47700
O 	O 	0.46755 0.08015 0.90591 -0.24400
O 	O 	0.40228 0.24444 0.82584 -0.25000
O 	O 	0.53087 0.32281 0.70675 -0.48600
O 	O 	0.48775 0.34371 0.69205 -0.34600
O 	O 	0.63834 0.00190 0.81048 -0.35500
O 	O 	0.61978 0.97162 0.86058 -0.47700
O 	O 	0.04639 0.90591 0.08015 -0.24400
O 	O 	0.02744 0.82584 0.24444 -0.25000
O 	O 	0.93957 0.70675 0.32281 -0.48600
O 	O 	0.97649 0.69205 0.34371 -0.34600
O 	O 	0.04928 0.81048 0.00190 -0.35400
O 	O 	0.04802 0.86058 0.97162 -0.47700
O 	O 	0.58015 0.96755 0.54639 -0.24400
O 	O 	0.74444 0.90228 0.52744 -0.25000
O 	O 	0.82281 0.03087 0.43957 -0.48600
O 	O 	0.84371 0.98775 0.47649 -0.34600
O 	O 	0.50190 0.13834 0.54928 -0.35500
O 	O 	0.47162 0.11978 0.54802 -0.47700
O 	O 	0.40591 0.54639 0.96755 -0.24400
O 	O 	0.32584 0.52744 0.90228 -0.25000
O 	O 	0.20675 0.43957 0.03087 -0.48600
O 	O 	0.19205 0.47649 0.98775 -0.34700
O 	O 	0.31048 0.54928 0.13834 -0.35500
O 	O 	0.36058 0.54802 0.11978 -0.47700
O 	O 	0.46755 0.90591 0.54639 -0.24400
O 	O 	0.40228 0.82584 0.52744 -0.25000
O 	O 	0.53087 0.70675 0.43957 -0.48600
O 	O 	0.48775 0.69205 0.47649 -0.34600
O 	O 	0.63834 0.81048 0.54928 -0.35500
O 	O 	0.61978 0.86058 0.54802 -0.47700
O 	O 	0.04639 0.08015 0.96755 -0.24400
O 	O 	0.02744 0.24444 0.90228 -0.25000
O 	O 	0.93957 0.32281 0.03087 -0.48600
O 	O 	0.97649 0.34371 0.98775 -0.34600
O 	O 	0.04928 0.00190 0.13834 -0.35400
O 	O 	0.04802 0.97162 0.11978 -0.47700
O 	O 	0.58015 0.54639 0.90591 -0.24400
O 	O 	0.74444 0.52744 0.82584 -0.25000
O 	O 	0.82281 0.43957 0.70675 -0.48600
O 	O 	0.84371 0.47649 0.69205 -0.34600
O 	O 	0.50190 0.54928 0.81048 -0.35500
O 	O 	0.47162 0.54802 0.86058 -0.47700
O 	O 	0.40591 0.96755 0.08015 -0.24400
O 	O 	0.32584 0.90228 0.24444 -0.25000
O 	O 	0.20675 0.03087 0.32281 -0.48600
O 	O 	0.19205 0.98775 0.34371 -0.34700
O 	O 	0.31048 0.13834 0.00190 -0.35400
O 	O 	0.36058 0.11978 0.97162 -0.47700
O 	O 	0.54639 0.46755 0.58015 -0.24400
O 	O 	0.52744 0.40228 0.74444 -0.25000
O 	O 	0.43957 0.53087 0.82281 -0.48600
O 	O 	0.47649 0.48775 0.84371 -0.34600
O 	O 	0.54928 0.63834 0.50190 -0.35500
O 	O 	0.54802 0.61978 0.47162 -0.47700
O 	O 	0.96755 0.04639 0.40591 -0.24400
O 	O 	0.90228 0.02744 0.32584 -0.25000
O 	O 	0.03087 0.93957 0.20675 -0.48600
O 	O 	0.98775 0.97649 0.19205 -0.34600
O 	O 	0.13834 0.04928 0.31048 -0.35500
O 	O 	0.11978 0.04802 0.36058 -0.47700
O 	O 	0.90591 0.58015 0.46755 -0.24400
O 	O 	0.82584 0.74444 0.40228 -0.25000
O 	O 	0.70675 0.82281 0.53087 -0.48600
O 	O 	0.69205 0.84371 0.48775 -0.34600
O 	O 	0.81048 0.50190 0.63834 -0.35500
O 	O 	0.86058 0.47162 0.61978 -0.47700
O 	O 	0.08015 0.40591 0.04639 -0.24400
O 	O 	0.24444 0.32584 0.02744 -0.25000
O 	O 	0.32281 0.20675 0.93957 -0.48600
O 	O 	0.34371 0.19205 0.97649 -0.34700
O 	O 	0.00190 0.31048 0.04928 -0.35400
O 	O 	0.97162 0.36058 0.04802 -0.47700
O 	O 	0.08015 0.46755 0.40591 -0.24400
O 	O 	0.24444 0.40228 0.32584 -0.25000
O 	O 	0.32281 0.53087 0.20675 -0.48600
O 	O 	0.34371 0.48775 0.19205 -0.34600
O 	O 	0.00190 0.63834 0.31048 -0.35500
O 	O 	0.97162 0.61978 0.36058 -0.47700
O 	O 	0.90591 0.04639 0.58015 -0.24400
O 	O 	0.82584 0.02744 0.74444 -0.25000
O 	O 	0.70675 0.93957 0.82281 -0.48600
O 	O 	0.69205 0.97649 0.84371 -0.34600
O 	O 	0.81048 0.04928 0.50190 -0.35500
O 	O 	0.86058 0.04802 0.47162 -0.47700
O 	O 	0.96755 0.58015 0.04639 -0.24400
O 	O 	0.90228 0.74444 0.02744 -0.25000
O 	O 	0.03087 0.82281 0.93957 -0.48600
O 	O 	0.98775 0.84371 0.97649 -0.34600
O 	O 	0.13834 0.50190 0.04928 -0.35500
O 	O 	0.11978 0.47162 0.04802 -0.47700
O 	O 	0.54639 0.40591 0.46755 -0.24400
O 	O 	0.52744 0.32584 0.40228 -0.25000
O 	O 	0.43957 0.20675 0.53087 -0.48600
O 	O 	0.47649 0.19205 0.48775 -0.34600
O 	O 	0.54928 0.31048 0.63834 -0.35500
O 	O 	0.54802 0.36058 0.61978 -0.47700
O 	O 	0.90591 0.46755 0.04639 -0.24400
O 	O 	0.82584 0.40228 0.02744 -0.25000
O 	O 	0.70675 0.53087 0.93957 -0.48600
O 	O 	0.69205 0.48775 0.97649 -0.34600
O 	O 	0.81048 0.63834 0.04928 -0.35500
O 	O 	0.86058 0.61978 0.04802 -0.47700
O 	O 	0.08015 0.04639 0.46755 -0.24400
O 	O 	0.24444 0.02744 0.40228 -0.25000
O 	O 	0.32281 0.93957 0.53087 -0.48600
O 	O 	0.34371 0.97649 0.48775 -0.34700
O 	O 	0.00190 0.04928 0.63834 -0.35400
O 	O 	0.97162 0.04802 0.61978 -0.47700
O 	O 	0.54639 0.58015 0.40591 -0.24400
O 	O 	0.52744 0.74444 0.32584 -0.25000
O 	O 	0.43957 0.82281 0.20675 -0.48600
O 	O 	0.47649 0.84371 0.19205 -0.34600
O 	O 	0.54928 0.50190 0.31048 -0.35500
O 	O 	0.54802 0.47162 0.36058 -0.47700
O 	O 	0.96755 0.40591 0.58015 -0.24400
O 	O 	0.90228 0.32584 0.74444 -0.25000
O 	O 	0.03087 0.20675 0.82281 -0.48600
O 	O 	0.98775 0.19205 0.84371 -0.34600
O 	O 	0.13834 0.31048 0.50190 -0.35500
O 	O 	0.11978 0.36058 0.47162 -0.47700
Zn	Zn	0.45101 0.65281 0.33747 1.18900
Zn	Zn	0.15281 0.95101 0.55871 1.18900
Zn	Zn	0.05871 0.33747 0.65281 1.18900
Zn	Zn	0.83747 0.55871 0.95101 1.18900
Zn	Zn	0.83747 0.65281 0.55871 1.18900
Zn	Zn	0.05871 0.95101 0.33747 1.18900
Zn	Zn	0.15281 0.33747 0.95101 1.18900
Zn	Zn	0.45101 0.55871 0.65281 1.18900
Zn	Zn	0.05871 0.65281 0.95101 1.18900
Zn	Zn	0.83747 0.95101 0.65281 1.18900
Zn	Zn	0.45101 0.33747 0.55871 1.18900
Zn	Zn	0.15281 0.55871 0.33747 1.18900
Zn	Zn	0.65281 0.45101 0.83747 1.18900
Zn	Zn	0.95101 0.15281 0.05871 1.18900
Zn	Zn	0.33747 0.05871 0.15281 1.18900
Zn	Zn	0.55871 0.83747 0.45101 1.18900
Zn	Zn	0.65281 0.83747 0.05871 1.18900
Zn	Zn	0.95101 0.05871 0.83747 1.18900
Zn	Zn	0.33747 0.15281 0.45101 1.18900
Zn	Zn	0.55871 0.45101 0.15281 1.18900
Zn	Zn	0.65281 0.05871 0.45101 1.18900
Zn	Zn	0.95101 0.83747 0.15281 1.18900
Zn	Zn	0.33747 0.45101 0.05871 1.18900
Zn	Zn	0.55871 0.15281 0.83747 1.18900
H 	H 	0.45470 0.45190 0.40210 0.13900
H 	H 	0.45190 0.58530 0.38370 0.01700
H 	H 	0.46100 0.43260 0.49720 -0.00400
H 	H 	0.56640 0.47660 0.21780 -0.00100
H 	H 	0.49770 0.55210 0.18490 -0.00600
H 	H 	0.47790 0.52910 0.33510 0.03200
H 	H 	0.46480 0.48040 0.45620 0.15300
H 	H 	0.47210 0.62210 0.28990 0.00600
H 	H 	0.48400 0.57320 0.22260 0.14700
H 	H 	0.55370 0.49890 0.25530 0.11800
H 	H 	0.44840 0.40600 0.44420 -0.01500
H 	H 	0.46830 0.49750 0.37910 0.16200
H 	H 	0.51680 0.53360 0.28380 0.16800
H 	H 	0.95190 0.95470 0.69130 0.13900
H 	H 	0.08530 0.95190 0.57910 0.01700
H 	H 	0.93260 0.96100 0.60920 -0.00300
H 	H 	0.97660 0.06640 0.73920 -0.00100
H 	H 	0.05210 0.99770 0.76530 -0.00600
H 	H 	0.02910 0.97790 0.65790 0.03200
H 	H 	0.98040 0.96480 0.59860 0.15300
H 	H 	0.12210 0.97210 0.61590 0.00600
H 	H 	0.07320 0.98400 0.72020 0.14600
H 	H 	0.99890 0.05370 0.69210 0.11700
H 	H 	0.90600 0.94840 0.70140 -0.01500
H 	H 	0.99750 0.96830 0.65510 0.16200
H 	H 	0.03360 0.01680 0.66580 0.16800
H 	H 	0.19130 0.40210 0.45190 0.13900
H 	H 	0.07910 0.38370 0.58530 0.01700
H 	H 	0.10920 0.49720 0.43260 -0.00400
H 	H 	0.23920 0.21780 0.47660 -0.00100
H 	H 	0.26530 0.18490 0.55210 -0.00600
H 	H 	0.15790 0.33510 0.52910 0.03200
H 	H 	0.09860 0.45620 0.48040 0.15300
H 	H 	0.11590 0.28990 0.62210 0.00600
H 	H 	0.22020 0.22260 0.57320 0.14700
H 	H 	0.19210 0.25530 0.49890 0.11800
H 	H 	0.20140 0.44420 0.40600 -0.01500
H 	H 	0.15510 0.37910 0.49750 0.16200
H 	H 	0.16580 0.28380 0.53360 0.16800
H 	H 	0.90210 0.69130 0.95470 0.13900
H 	H 	0.88370 0.57910 0.95190 0.01700
H 	H 	0.99720 0.60920 0.96100 -0.00300
H 	H 	0.71780 0.73920 0.06640 -0.00100
H 	H 	0.68490 0.76530 0.99770 -0.00600
H 	H 	0.83510 0.65790 0.97790 0.03200
H 	H 	0.95620 0.59860 0.96480 0.15300
H 	H 	0.78990 0.61590 0.97210 0.00600
H 	H 	0.72260 0.72020 0.98400 0.14700
H 	H 	0.75530 0.69210 0.05370 0.11800
H 	H 	0.94420 0.70140 0.94840 -0.01500
H 	H 	0.87910 0.65510 0.96830 0.16200
H 	H 	0.78380 0.66580 0.01680 0.16800
H 	H 	0.90210 0.45190 0.69130 0.13900
H 	H 	0.88370 0.58530 0.57910 0.01700
H 	H 	0.99720 0.43260 0.60920 -0.00400
H 	H 	0.71780 0.47660 0.73920 -0.00100
H 	H 	0.68490 0.55210 0.76530 -0.00600
H 	H 	0.83510 0.52910 0.65790 0.03200
H 	H 	0.95620 0.48040 0.59860 0.15300
H 	H 	0.78990 0.62210 0.61590 0.00600
H 	H 	0.72260 0.57320 0.72020 0.14700
H 	H 	0.75530 0.49890 0.69210 0.11800
H 	H 	0.94420 0.40600 0.70140 -0.01500
H 	H 	0.87910 0.49750 0.65510 0.16200
H 	H 	0.78380 0.53360 0.66580 0.16800
H 	H 	0.19130 0.95470 0.40210 0.13900
H 	H 	0.07910 0.95190 0.38370 0.01700
H 	H 	0.10920 0.96100 0.49720 -0.00400
H 	H 	0.23920 0.06640 0.21780 -0.00100
H 	H 	0.26530 0.99770 0.18490 -0.00600
H 	H 	0.15790 0.97790 0.33510 0.03200
H 	H 	0.09860 0.96480 0.45620 0.15300
H 	H 	0.11590 0.97210 0.28990 0.00600
H 	H 	0.22020 0.98400 0.22260 0.14700
H 	H 	0.19210 0.05370 0.25530 0.11800
H 	H 	0.20140 0.94840 0.44420 -0.01500
H 	H 	0.15510 0.96830 0.37910 0.16200
H 	H 	0.16580 0.01680 0.28380 0.16800
H 	H 	0.95190 0.40210 0.95470 0.13900
H 	H 	0.08530 0.38370 0.95190 0.01700
H 	H 	0.93260 0.49720 0.96100 -0.00300
H 	H 	0.97660 0.21780 0.06640 -0.00100
H 	H 	0.05210 0.18490 0.99770 -0.00600
H 	H 	0.02910 0.33510 0.97790 0.03200
H 	H 	0.98040 0.45620 0.96480 0.15300
H 	H 	0.12210 0.28990 0.97210 0.00600
H 	H 	0.07320 0.22260 0.98400 0.14600
H 	H 	0.99890 0.25530 0.05370 0.11700
H 	H 	0.90600 0.44420 0.94840 -0.01500
H 	H 	0.99750 0.37910 0.96830 0.16200
H 	H 	0.03360 0.28380 0.01680 0.16800
H 	H 	0.45470 0.69130 0.45190 0.13900
H 	H 	0.45190 0.57910 0.58530 0.01700
H 	H 	0.46100 0.60920 0.43260 -0.00400
H 	H 	0.56640 0.73920 0.47660 -0.00100
H 	H 	0.49770 0.76530 0.55210 -0.00600
H 	H 	0.47790 0.65790 0.52910 0.03200
H 	H 	0.46480 0.59860 0.48040 0.15300
H 	H 	0.47210 0.61590 0.62210 0.00600
H 	H 	0.48400 0.72020 0.57320 0.14700
H 	H 	0.55370 0.69210 0.49890 0.11800
H 	H 	0.44840 0.70140 0.40600 -0.01500
H 	H 	0.46830 0.65510 0.49750 0.16200
H 	H 	0.51680 0.66580 0.53360 0.16800
H 	H 	0.19130 0.45190 0.95470 0.13900
H 	H 	0.07910 0.58530 0.95190 0.01700
H 	H 	0.10920 0.43260 0.96100 -0.00400
H 	H 	0.23920 0.47660 0.06640 -0.00100
H 	H 	0.26530 0.55210 0.99770 -0.00600
H 	H 	0.15790 0.52910 0.97790 0.03200
H 	H 	0.09860 0.48040 0.96480 0.15300
H 	H 	0.11590 0.62210 0.97210 0.00600
H 	H 	0.22020 0.57320 0.98400 0.14700
H 	H 	0.19210 0.49890 0.05370 0.11800
H 	H 	0.20140 0.40600 0.94840 -0.01500
H 	H 	0.15510 0.49750 0.96830 0.16200
H 	H 	0.16580 0.53360 0.01680 0.16800
H 	H 	0.90210 0.95470 0.45190 0.13900
H 	H 	0.88370 0.95190 0.58530 0.01700
H 	H 	0.99720 0.96100 0.43260 -0.00300
H 	H 	0.71780 0.06640 0.47660 -0.00100
H 	H 	0.68490 0.99770 0.55210 -0.00600
H 	H 	0.83510 0.97790 0.52910 0.03200
H 	H 	0.95620 0.96480 0.48040 0.15300
H 	H 	0.78990 0.97210 0.62210 0.00600
H 	H 	0.72260 0.98400 0.57320 0.14700
H 	H 	0.75530 0.05370 0.49890 0.11800
H 	H 	0.94420 0.94840 0.40600 -0.01500
H 	H 	0.87910 0.96830 0.49750 0.16200
H 	H 	0.78380 0.01680 0.53360 0.16800
H 	H 	0.45470 0.40210 0.69130 0.13900
H 	H 	0.45190 0.38370 0.57910 0.01700
H 	H 	0.46100 0.49720 0.60920 -0.00400
H 	H 	0.56640 0.21780 0.73920 -0.00100
H 	H 	0.49770 0.18490 0.76530 -0.00600
H 	H 	0.47790 0.33510 0.65790 0.03200
H 	H 	0.46480 0.45620 0.59860 0.15300
H 	H 	0.47210 0.28990 0.61590 0.00600
H 	H 	0.48400 0.22260 0.72020 0.14700
H 	H 	0.55370 0.25530 0.69210 0.11800
H 	H 	0.44840 0.44420 0.70140 -0.01500
H 	H 	0.46830 0.37910 0.65510 0.16200
H 	H 	0.51680 0.28380 0.66580 0.16800
H 	H 	0.95190 0.69130 0.40210 0.13900
H 	H 	0.08530 0.57910 0.38370 0.01700
H 	H 	0.93260 0.60920 0.49720 -0.00400
H 	H 	0.97660 0.73920 0.21780 -0.00100
H 	H 	0.05210 0.76530 0.18490 -0.00600
H 	H 	0.02910 0.65790 0.33510 0.03200
H 	H 	0.98040 0.59860 0.45620 0.15300
H 	H 	0.12210 0.61590 0.28990 0.00600
H 	H 	0.07320 0.72020 0.22260 0.14700
H 	H 	0.99890 0.69210 0.25530 0.11800
H 	H 	0.90600 0.70140 0.44420 -0.01500
H 	H 	0.99750 0.65510 0.37910 0.16200
H 	H 	0.03360 0.66580 0.28380 0.16800
H 	H 	0.45190 0.45470 0.90210 0.13900
H 	H 	0.58530 0.45190 0.88370 0.01700
H 	H 	0.43260 0.46100 0.99720 -0.00400
H 	H 	0.47660 0.56640 0.71780 -0.00100
H 	H 	0.55210 0.49770 0.68490 -0.00600
H 	H 	0.52910 0.47790 0.83510 0.03200
H 	H 	0.48040 0.46480 0.95620 0.15300
H 	H 	0.62210 0.47210 0.78990 0.00600
H 	H 	0.57320 0.48400 0.72260 0.14700
H 	H 	0.49890 0.55370 0.75530 0.11800
H 	H 	0.40600 0.44840 0.94420 -0.01500
H 	H 	0.49750 0.46830 0.87910 0.16200
H 	H 	0.53360 0.51680 0.78380 0.16800
H 	H 	0.95470 0.95190 0.19130 0.13900
H 	H 	0.95190 0.08530 0.07910 0.01700
H 	H 	0.96100 0.93260 0.10920 -0.00400
H 	H 	0.06640 0.97660 0.23920 -0.00100
H 	H 	0.99770 0.05210 0.26530 -0.00600
H 	H 	0.97790 0.02910 0.15790 0.03200
H 	H 	0.96480 0.98040 0.09860 0.15300
H 	H 	0.97210 0.12210 0.11590 0.00600
H 	H 	0.98400 0.07320 0.22020 0.14600
H 	H 	0.05370 0.99890 0.19210 0.11700
H 	H 	0.94840 0.90600 0.20140 -0.01500
H 	H 	0.96830 0.99750 0.15510 0.16200
H 	H 	0.01680 0.03360 0.16580 0.16800
H 	H 	0.40210 0.19130 0.95190 0.13900
H 	H 	0.38370 0.07910 0.08530 0.01700
H 	H 	0.49720 0.10920 0.93260 -0.00400
H 	H 	0.21780 0.23920 0.97660 -0.00100
H 	H 	0.18490 0.26530 0.05210 -0.00600
H 	H 	0.33510 0.15790 0.02910 0.03200
H 	H 	0.45620 0.09860 0.98040 0.15300
H 	H 	0.28990 0.11590 0.12210 0.00600
H 	H 	0.22260 0.22020 0.07320 0.14700
H 	H 	0.25530 0.19210 0.99890 0.11700
H 	H 	0.44420 0.20140 0.90600 -0.01500
H 	H 	0.37910 0.15510 0.99750 0.16200
H 	H 	0.28380 0.16580 0.03360 0.16800
H 	H 	0.69130 0.90210 0.45470 0.13900
H 	H 	0.57910 0.88370 0.45190 0.01700
H 	H 	0.60920 0.99720 0.46100 -0.00300
H 	H 	0.73920 0.71780 0.56640 -0.00100
H 	H 	0.76530 0.68490 0.49770 -0.00600
H 	H 	0.65790 0.83510 0.47790 0.03200
H 	H 	0.59860 0.95620 0.46480 0.15300
H 	H 	0.61590 0.78990 0.47210 0.00600
H 	H 	0.72020 0.72260 0.48400 0.14700
H 	H 	0.69210 0.75530 0.55370 0.11800
H 	H 	0.70140 0.94420 0.44840 -0.01500
H 	H 	0.65510 0.87910 0.46830 0.16200
H 	H 	0.66580 0.78380 0.51680 0.16800
H 	H 	0.45190 0.90210 0.19130 0.13900
H 	H 	0.58530 0.88370 0.07910 0.01700
H 	H 	0.43260 0.99720 0.10920 -0.00400
H 	H 	0.47660 0.71780 0.23920 -0.00100
H 	H 	0.55210 0.68490 0.26530 -0.00600
H 	H 	0.52910 0.83510 0.15790 0.03200
H 	H 	0.48040 0.95620 0.09860 0.15300
H 	H 	0.62210 0.78990 0.11590 0.00600
H 	H 	0.57320 0.72260 0.22020 0.14700
H 	H 	0.49890 0.75530 0.19210 0.11800
H 	H 	0.40600 0.94420 0.20140 -0.01500
H 	H 	0.49750 0.87910 0.15510 0.16200
H 	H 	0.53360 0.78380 0.16580 0.16800
H 	H 	0.95470 0.19130 0.90210 0.13900
H 	H 	0.95190 0.07910 0.88370 0.01700
H 	H 	0.96100 0.10920 0.99720 -0.00300
H 	H 	0.06640 0.23920 0.71780 -0.00100
H 	H 	0.99770 0.26530 0.68490 -0.00600
H 	H 	0.97790 0.15790 0.83510 0.03200
H 	H 	0.96480 0.09860 0.95620 0.15300
H 	H 	0.97210 0.11590 0.78990 0.00600
H 	H 	0.98400 0.22020 0.72260 0.14700
H 	H 	0.05370 0.19210 0.75530 0.11800
H 	H 	0.94840 0.20140 0.94420 -0.01500
H 	H 	0.96830 0.15510 0.87910 0.16200
H 	H 	0.01680 0.16580 0.78380 0.16800
H 	H 	0.40210 0.95190 0.45470 0.13900
H 	H 	0.38370 0.08530 0.45190 0.01700
H 	H 	0.49720 0.93260 0.46100 -0.00400
H 	H 	0.21780 0.97660 0.56640 -0.00100
H 	H 	0.18490 0.05210 0.49770 -0.00600
H 	H 	0.33510 0.02910 0.47790 0.03200
H 	H 	0.45620 0.98040 0.46480 0.15300
H 	H 	0.28990 0.12210 0.47210 0.00600
H 	H 	0.22260 0.07320 0.48400 0.14700
H 	H 	0.25530 0.99890 0.55370 0.11700
H 	H 	0.44420 0.90600 0.44840 -0.01500
H 	H 	0.37910 0.99750 0.46830 0.16200
H 	H 	0.28380 0.03360 0.51680 0.16800
H 	H 	0.69130 0.45470 0.95190 0.13900
H 	H 	0.57910 0.45190 0.08530 0.01700
H 	H 	0.60920 0.46100 0.93260 -0.00400
H 	H 	0.73920 0.56640 0.97660 -0.00100
H 	H 	0.76530 0.49770 0.05210 -0.00600
H 	H 	0.65790 0.47790 0.02910 0.03200
H 	H 	0.59860 0.46480 0.98040 0.15300
H 	H 	0.61590 0.47210 0.12210 0.00600
H 	H 	0.72020 0.48400 0.07320 0.14700
H 	H 	0.69210 0.55370 0.99890 0.11800
H 	H 	0.70140 0.44840 0.90600 -0.01500
H 	H 	0.65510 0.46830 0.99750 0.16200
H 	H 	0.66580 0.51680 0.03360 0.16800
H 	H 	0.45190 0.19130 0.45470 0.13900
H 	H 	0.58530 0.07910 0.45190 0.01700
H 	H 	0.43260 0.10920 0.46100 -0.00400
H 	H 	0.47660 0.23920 0.56640 -0.00100
H 	H 	0.55210 0.26530 0.49770 -0.00600
H 	H 	0.52910 0.15790 0.47790 0.03200
H 	H 	0.48040 0.09860 0.46480 0.15300
H 	H 	0.62210 0.11590 0.47210 0.00600
H 	H 	0.57320 0.22020 0.48400 0.14700
H 	H 	0.49890 0.19210 0.55370 0.11800
H 	H 	0.40600 0.20140 0.44840 -0.01500
H 	H 	0.49750 0.15510 0.46830 0.16200
H 	H 	0.53360 0.16580 0.51680 0.16800
H 	H 	0.95470 0.90210 0.95190 0.13900
H 	H 	0.95190 0.88370 0.08530 0.01700
H 	H 	0.96100 0.99720 0.93260 -0.00300
H 	H 	0.06640 0.71780 0.97660 -0.00100
H 	H 	0.99770 0.68490 0.05210 -0.00600
H 	H 	0.97790 0.83510 0.02910 0.03200
H 	H 	0.96480 0.95620 0.98040 0.15300
H 	H 	0.97210 0.78990 0.12210 0.00600
H 	H 	0.98400 0.72260 0.07320 0.14600
H 	H 	0.05370 0.75530 0.99890 0.11700
H 	H 	0.94840 0.94420 0.90600 -0.01500
H 	H 	0.96830 0.87910 0.99750 0.16200
H 	H 	0.01680 0.78380 0.03360 0.16800
H 	H 	0.40210 0.45470 0.19130 0.13900
H 	H 	0.38370 0.45190 0.07910 0.01700
H 	H 	0.49720 0.46100 0.10920 -0.00400
H 	H 	0.21780 0.56640 0.23920 -0.00100
H 	H 	0.18490 0.49770 0.26530 -0.00600
H 	H 	0.33510 0.47790 0.15790 0.03200
H 	H 	0.45620 0.46480 0.09860 0.15300
H 	H 	0.28990 0.47210 0.11590 0.00600
H 	H 	0.22260 0.48400 0.22020 0.14700
H 	H 	0.25530 0.55370 0.19210 0.11800
H 	H 	0.44420 0.44840 0.20140 -0.01500
H 	H 	0.37910 0.46830 0.15510 0.16200
H 	H 	0.28380 0.51680 0.16580 0.16800
H 	H 	0.69130 0.95190 0.90210 0.13900
H 	H 	0.57910 0.08530 0.88370 0.01700
H 	H 	0.60920 0.93260 0.99720 -0.00400
H 	H 	0.73920 0.97660 0.71780 -0.00100
H 	H 	0.76530 0.05210 0.68490 -0.00600
H 	H 	0.65790 0.02910 0.83510 0.03200
H 	H 	0.59860 0.98040 0.95620 0.15300
H 	H 	0.61590 0.12210 0.78990 0.00600
H 	H 	0.72020 0.07320 0.72260 0.14700
H 	H 	0.69210 0.99890 0.75530 0.11800
H 	H 	0.70140 0.90600 0.94420 -0.01500
H 	H 	0.65510 0.99750 0.87910 0.16200
H 	H 	0.66580 0.03360 0.78380 0.16800
C 	C 	0.45546 0.44838 0.42154 -0.28200
C 	C 	0.45831 0.58281 0.36425 0.06100
C 	C 	0.53300 0.51246 0.19770 -0.17600
C 	C 	0.45412 0.41448 0.47572 -0.21000
C 	C 	0.46415 0.55319 0.36469 -0.10100
C 	C 	0.46061 0.52665 0.39623 0.26300
C 	C 	0.46004 0.47122 0.42438 0.25600
C 	C 	0.47736 0.57510 0.30696 -0.09800
C 	C 	0.51623 0.53777 0.24365 0.24700
C 	C 	0.45920 0.43670 0.47810 0.17200
C 	C 	0.54991 0.49611 0.21859 0.12900
C 	C 	0.50887 0.54087 0.19933 0.14900
C 	C 	0.53945 0.49721 0.17477 0.35600
C 	C 	0.47387 0.54901 0.33543 0.02800
C 	C 	0.48510 0.57488 0.27478 0.25900
C 	C 	0.46184 0.46536 0.45352 -0.26300
C 	C 	0.47048 0.60440 0.30886 0.05200
C 	C 	0.45160 0.38398 0.50202 0.36600
C 	C 	0.50059 0.55353 0.22211 -0.25900
C 	C 	0.54181 0.50937 0.24159 -0.23800
C 	C 	0.45212 0.42072 0.44652 0.17000
C 	C 	0.94838 0.95546 0.67462 -0.28200
C 	C 	0.08281 0.95831 0.59463 0.06100
C 	C 	0.01246 0.03300 0.75684 -0.17500
C 	C 	0.91448 0.95412 0.65568 -0.21000
C 	C 	0.05319 0.96415 0.61797 -0.10100
C 	C 	0.02665 0.96061 0.61651 0.26300
C 	C 	0.97122 0.96004 0.64436 0.25600
C 	C 	0.07510 0.97736 0.64058 -0.09800
C 	C 	0.03777 0.01623 0.70235 0.24700
C 	C 	0.93670 0.95920 0.62600 0.17200
C 	C 	0.99611 0.04991 0.73539 0.12900
C 	C 	0.04087 0.00887 0.75093 0.14900
C 	C 	0.99721 0.03945 0.78857 0.35600
C 	C 	0.04901 0.97387 0.64169 0.02700
C 	C 	0.07488 0.98510 0.66524 0.25800
C 	C 	0.96536 0.96184 0.61928 -0.26300
C 	C 	0.10440 0.97048 0.61626 0.05200
C 	C 	0.88398 0.95160 0.66240 0.36600
C 	C 	0.05353 0.00059 0.72377 -0.25900
C 	C 	0.00937 0.04181 0.70723 -0.23800
C 	C 	0.92072 0.95212 0.68064 0.17000
C 	C 	0.17462 0.42154 0.44838 -0.28200
C 	C 	0.09463 0.36425 0.58281 0.06100
C 	C 	0.25684 0.19770 0.51246 -0.17600
C 	C 	0.15568 0.47572 0.41448 -0.21000
C 	C 	0.11797 0.36469 0.55319 -0.10100
C 	C 	0.11651 0.39623 0.52665 0.26300
C 	C 	0.14436 0.42438 0.47122 0.25600
C 	C 	0.14058 0.30696 0.57510 -0.09800
C 	C 	0.20235 0.24365 0.53777 0.24700
C 	C 	0.12600 0.47810 0.43670 0.17200
C 	C 	0.23539 0.21859 0.49611 0.12900
C 	C 	0.25093 0.19933 0.54087 0.14900
C 	C 	0.28857 0.17477 0.49721 0.35600
C 	C 	0.14169 0.33543 0.54901 0.02800
C 	C 	0.16524 0.27478 0.57488 0.25900
C 	C 	0.11928 0.45352 0.46536 -0.26300
C 	C 	0.11626 0.30886 0.60440 0.05200
C 	C 	0.16240 0.50202 0.38398 0.36600
C 	C 	0.22377 0.22211 0.55353 -0.25900
C 	C 	0.20723 0.24159 0.50937 -0.23800
C 	C 	0.18064 0.44652 0.42072 0.17000
C 	C 	0.92154 0.67462 0.95546 -0.28200
C 	C 	0.86425 0.59463 0.95831 0.06100
C 	C 	0.69770 0.75684 0.03300 -0.17600
C 	C 	0.97572 0.65568 0.95412 -0.21000
C 	C 	0.86469 0.61797 0.96415 -0.10100
C 	C 	0.89623 0.61651 0.96061 0.26300
C 	C 	0.92438 0.64436 0.96004 0.25600
C 	C 	0.80696 0.64058 0.97736 -0.09800
C 	C 	0.74365 0.70235 0.01623 0.24700
C 	C 	0.97810 0.62600 0.95920 0.17200
C 	C 	0.71859 0.73539 0.04991 0.12900
C 	C 	0.69933 0.75093 0.00887 0.14900
C 	C 	0.67477 0.78857 0.03945 0.35600
C 	C 	0.83543 0.64169 0.97387 0.02800
C 	C 	0.77478 0.66524 0.98510 0.25900
C 	C 	0.95352 0.61928 0.96184 -0.26300
C 	C 	0.80886 0.61626 0.97048 0.05200
C 	C 	0.00202 0.66240 0.95160 0.36500
C 	C 	0.72211 0.72377 0.00059 -0.25900
C 	C 	0.74159 0.70723 0.04181 -0.23800
C 	C 	0.94652 0.68064 0.95212 0.17000
C 	C 	0.92154 0.44838 0.67462 -0.28200
C 	C 	0.86425 0.58281 0.59463 0.06100
C 	C 	0.69770 0.51246 0.75684 -0.17600
C 	C 	0.97572 0.41448 0.65568 -0.21000
C 	C 	0.86469 0.55319 0.61797 -0.10100
C 	C 	0.89623 0.52665 0.61651 0.26300
C 	C 	0.92438 0.47122 0.64436 0.25600
C 	C 	0.80696 0.57510 0.64058 -0.09800
C 	C 	0.74365 0.53777 0.70235 0.24700
C 	C 	0.97810 0.43670 0.62600 0.17200
C 	C 	0.71859 0.49611 0.73539 0.12900
C 	C 	0.69933 0.54087 0.75093 0.14900
C 	C 	0.67477 0.49721 0.78857 0.35600
C 	C 	0.83543 0.54901 0.64169 0.02800
C 	C 	0.77478 0.57488 0.66524 0.25900
C 	C 	0.95352 0.46536 0.61928 -0.26300
C 	C 	0.80886 0.60440 0.61626 0.05200
C 	C 	0.00202 0.38398 0.66240 0.36600
C 	C 	0.72211 0.55353 0.72377 -0.25900
C 	C 	0.74159 0.50937 0.70723 -0.23800
C 	C 	0.94652 0.42072 0.68064 0.17000
C 	C 	0.17462 0.95546 0.42154 -0.28200
C 	C 	0.09463 0.95831 0.36425 0.06100
C 	C 	0.25684 0.03300 0.19770 -0.17600
C 	C 	0.15568 0.95412 0.47572 -0.21000
C 	C 	0.11797 0.96415 0.36469 -0.10100
C 	C 	0.11651 0.96061 0.39623 0.26300
C 	C 	0.14436 0.96004 0.42438 0.25600
C 	C 	0.14058 0.97736 0.30696 -0.09800
C 	C 	0.20235 0.01623 0.24365 0.24700
C 	C 	0.12600 0.95920 0.47810 0.17200
C 	C 	0.23539 0.04991 0.21859 0.12900
C 	C 	0.25093 0.00887 0.19933 0.14900
C 	C 	0.28857 0.03945 0.17477 0.35600
C 	C 	0.14169 0.97387 0.33543 0.02700
C 	C 	0.16524 0.98510 0.27478 0.25900
C 	C 	0.11928 0.96184 0.45352 -0.26300
C 	C 	0.11626 0.97048 0.30886 0.05200
C 	C 	0.16240 0.95160 0.50202 0.36600
C 	C 	0.22377 0.00059 0.22211 -0.25900
C 	C 	0.20723 0.04181 0.24159 -0.23800
C 	C 	0.18064 0.95212 0.44652 0.17000
C 	C 	0.94838 0.42154 0.95546 -0.28200
C 	C 	0.08281 0.36425 0.95831 0.06100
C 	C 	0.01246 0.19770 0.03300 -0.17500
C 	C 	0.91448 0.47572 0.95412 -0.21000
C 	C 	0.05319 0.36469 0.96415 -0.10100
C 	C 	0.02665 0.39623 0.96061 0.26300
C 	C 	0.97122 0.42438 0.96004 0.25600
C 	C 	0.07510 0.30696 0.97736 -0.09800
C 	C 	0.03777 0.24365 0.01623 0.24700
C 	C 	0.93670 0.47810 0.95920 0.17200
C 	C 	0.99611 0.21859 0.04991 0.12800
C 	C 	0.04087 0.19933 0.00887 0.14900
C 	C 	0.99721 0.17477 0.03945 0.35500
C 	C 	0.04901 0.33543 0.97387 0.02700
C 	C 	0.07488 0.27478 0.98510 0.25800
C 	C 	0.96536 0.45352 0.96184 -0.26300
C 	C 	0.10440 0.30886 0.97048 0.05200
C 	C 	0.88398 0.50202 0.95160 0.36600
C 	C 	0.05353 0.22211 0.00059 -0.25900
C 	C 	0.00937 0.24159 0.04181 -0.23700
C 	C 	0.92072 0.44652 0.95212 0.17000
C 	C 	0.45546 0.67462 0.44838 -0.28200
C 	C 	0.45831 0.59463 0.58281 0.06100
C 	C 	0.53300 0.75684 0.51246 -0.17600
C 	C 	0.45412 0.65568 0.41448 -0.21000
C 	C 	0.46415 0.61797 0.55319 -0.10100
C 	C 	0.46061 0.61651 0.52665 0.26300
C 	C 	0.46004 0.64436 0.47122 0.25600
C 	C 	0.47736 0.64058 0.57510 -0.09800
C 	C 	0.51623 0.70235 0.53777 0.24700
C 	C 	0.45920 0.62600 0.43670 0.17200
C 	C 	0.54991 0.73539 0.49611 0.12900
C 	C 	0.50887 0.75093 0.54087 0.14900
C 	C 	0.53945 0.78857 0.49721 0.35600
C 	C 	0.47387 0.64169 0.54901 0.02800
C 	C 	0.48510 0.66524 0.57488 0.25900
C 	C 	0.46184 0.61928 0.46536 -0.26300
C 	C 	0.47048 0.61626 0.60440 0.05200
C 	C 	0.45160 0.66240 0.38398 0.36600
C 	C 	0.50059 0.72377 0.55353 -0.25900
C 	C 	0.54181 0.70723 0.50937 -0.23800
C 	C 	0.45212 0.68064 0.42072 0.17000
C 	C 	0.17462 0.44838 0.95546 -0.28200
C 	C 	0.09463 0.58281 0.95831 0.06100
C 	C 	0.25684 0.51246 0.03300 -0.17600
C 	C 	0.15568 0.41448 0.95412 -0.21000
C 	C 	0.11797 0.55319 0.96415 -0.10100
C 	C 	0.11651 0.52665 0.96061 0.26300
C 	C 	0.14436 0.47122 0.96004 0.25600
C 	C 	0.14058 0.57510 0.97736 -0.09800
C 	C 	0.20235 0.53777 0.01623 0.24700
C 	C 	0.12600 0.43670 0.95920 0.17200
C 	C 	0.23539 0.49611 0.04991 0.12900
C 	C 	0.25093 0.54087 0.00887 0.14900
C 	C 	0.28857 0.49721 0.03945 0.35600
C 	C 	0.14169 0.54901 0.97387 0.02700
C 	C 	0.16524 0.57488 0.98510 0.25900
C 	C 	0.11928 0.46536 0.96184 -0.26300
C 	C 	0.11626 0.60440 0.97048 0.05200
C 	C 	0.16240 0.38398 0.95160 0.36600
C 	C 	0.22377 0.55353 0.00059 -0.25900
C 	C 	0.20723 0.50937 0.04181 -0.23800
C 	C 	0.18064 0.42072 0.95212 0.17000
C 	C 	0.92154 0.95546 0.44838 -0.28200
C 	C 	0.86425 0.95831 0.58281 0.06100
C 	C 	0.69770 0.03300 0.51246 -0.17600
C 	C 	0.97572 0.95412 0.41448 -0.21000
C 	C 	0.86469 0.96415 0.55319 -0.10100
C 	C 	0.89623 0.96061 0.52665 0.26300
C 	C 	0.92438 0.96004 0.47122 0.25600
C 	C 	0.80696 0.97736 0.57510 -0.09800
C 	C 	0.74365 0.01623 0.53777 0.24700
C 	C 	0.97810 0.95920 0.43670 0.17200
C 	C 	0.71859 0.04991 0.49611 0.12900
C 	C 	0.69933 0.00887 0.54087 0.14900
C 	C 	0.67477 0.03945 0.49721 0.35600
C 	C 	0.83543 0.97387 0.54901 0.02800
C 	C 	0.77478 0.98510 0.57488 0.25900
C 	C 	0.95352 0.96184 0.46536 -0.26300
C 	C 	0.80886 0.97048 0.60440 0.05200
C 	C 	0.00202 0.95160 0.38398 0.36600
C 	C 	0.72211 0.00059 0.55353 -0.25900
C 	C 	0.74159 0.04181 0.50937 -0.23800
C 	C 	0.94652 0.95212 0.42072 0.17000
C 	C 	0.45546 0.42154 0.67462 -0.28200
C 	C 	0.45831 0.36425 0.59463 0.06100
C 	C 	0.53300 0.19770 0.75684 -0.17600
C 	C 	0.45412 0.47572 0.65568 -0.21000
C 	C 	0.46415 0.36469 0.61797 -0.10100
C 	C 	0.46061 0.39623 0.61651 0.26300
C 	C 	0.46004 0.42438 0.64436 0.25600
C 	C 	0.47736 0.30696 0.64058 -0.09800
C 	C 	0.51623 0.24365 0.70235 0.24700
C 	C 	0.45920 0.47810 0.62600 0.17200
C 	C 	0.54991 0.21859 0.73539 0.12900
C 	C 	0.50887 0.19933 0.75093 0.14900
C 	C 	0.53945 0.17477 0.78857 0.35600
C 	C 	0.47387 0.33543 0.64169 0.02800
C 	C 	0.48510 0.27478 0.66524 0.25900
C 	C 	0.46184 0.45352 0.61928 -0.26300
C 	C 	0.47048 0.30886 0.61626 0.05200
C 	C 	0.45160 0.50202 0.66240 0.36600
C 	C 	0.50059 0.22211 0.72377 -0.25900
C 	C 	0.54181 0.24159 0.70723 -0.23800
C 	C 	0.45212 0.44652 0.68064 0.17000
C 	C 	0.94838 0.67462 0.42154 -0.28200
C 	C 	0.08281 0.59463 0.36425 0.06100
C 	C 	0.01246 0.75684 0.19770 -0.17600
C 	C 	0.91448 0.65568 0.47572 -0.21000
C 	C 	0.05319 0.61797 0.36469 -0.10100
C 	C 	0.02665 0.61651 0.39623 0.26300
C 	C 	0.97122 0.64436 0.42438 0.25600
C 	C 	0.07510 0.64058 0.30696 -0.09800
C 	C 	0.03777 0.70235 0.24365 0.24700
C 	C 	0.93670 0.62600 0.47810 0.17200
C 	C 	0.99611 0.73539 0.21859 0.12900
C 	C 	0.04087 0.75093 0.19933 0.14900
C 	C 	0.99721 0.78857 0.17477 0.35600
C 	C 	0.04901 0.64169 0.33543 0.02800
C 	C 	0.07488 0.66524 0.27478 0.25900
C 	C 	0.96536 0.61928 0.45352 -0.26300
C 	C 	0.10440 0.61626 0.30886 0.05200
C 	C 	0.88398 0.66240 0.50202 0.36600
C 	C 	0.05353 0.72377 0.22211 -0.25900
C 	C 	0.00937 0.70723 0.24159 -0.23800
C 	C 	0.92072 0.68064 0.44652 0.17000
C 	C 	0.44838 0.45546 0.92154 -0.28200
C 	C 	0.58281 0.45831 0.86425 0.06100
C 	C 	0.51246 0.53300 0.69770 -0.17600
C 	C 	0.41448 0.45412 0.97572 -0.21000
C 	C 	0.55319 0.46415 0.86469 -0.10100
C 	C 	0.52665 0.46061 0.89623 0.26300
C 	C 	0.47122 0.46004 0.92438 0.25600
C 	C 	0.57510 0.47736 0.80696 -0.09800
C 	C 	0.53777 0.51623 0.74365 0.24700
C 	C 	0.43670 0.45920 0.97810 0.17200
C 	C 	0.49611 0.54991 0.71859 0.12900
C 	C 	0.54087 0.50887 0.69933 0.14900
C 	C 	0.49721 0.53945 0.67477 0.35600
C 	C 	0.54901 0.47387 0.83543 0.02800
C 	C 	0.57488 0.48510 0.77478 0.25900
C 	C 	0.46536 0.46184 0.95352 -0.26400
C 	C 	0.60440 0.47048 0.80886 0.05200
C 	C 	0.38398 0.45160 0.00202 0.36600
C 	C 	0.55353 0.50059 0.72211 -0.25900
C 	C 	0.50937 0.54181 0.74159 -0.23800
C 	C 	0.42072 0.45212 0.94652 0.17000
C 	C 	0.95546 0.94838 0.17462 -0.28200
C 	C 	0.95831 0.08281 0.09463 0.06100
C 	C 	0.03300 0.01246 0.25684 -0.17500
C 	C 	0.95412 0.91448 0.15568 -0.21000
C 	C 	0.96415 0.05319 0.11797 -0.10100
C 	C 	0.96061 0.02665 0.11651 0.26300
C 	C 	0.96004 0.97122 0.14436 0.25600
C 	C 	0.97736 0.07510 0.14058 -0.09800
C 	C 	0.01623 0.03777 0.20235 0.24700
C 	C 	0.95920 0.93670 0.12600 0.17200
C 	C 	0.04991 0.99611 0.23539 0.12800
C 	C 	0.00887 0.04087 0.25093 0.14900
C 	C 	0.03945 0.99721 0.28857 0.35600
C 	C 	0.97387 0.04901 0.14169 0.02700
C 	C 	0.98510 0.07488 0.16524 0.25800
C 	C 	0.96184 0.96536 0.11928 -0.26300
C 	C 	0.97048 0.10440 0.11626 0.05200
C 	C 	0.95160 0.88398 0.16240 0.36600
C 	C 	0.00059 0.05353 0.22377 -0.25900
C 	C 	0.04181 0.00937 0.20723 -0.23700
C 	C 	0.95212 0.92072 0.18064 0.17000
C 	C 	0.42154 0.17462 0.94838 -0.28200
C 	C 	0.36425 0.09463 0.08281 0.06100
C 	C 	0.19770 0.25684 0.01246 -0.17500
C 	C 	0.47572 0.15568 0.91448 -0.21000
C 	C 	0.36469 0.11797 0.05319 -0.10100
C 	C 	0.39623 0.11651 0.02665 0.26300
C 	C 	0.42438 0.14436 0.97122 0.25600
C 	C 	0.30696 0.14058 0.07510 -0.09800
C 	C 	0.24365 0.20235 0.03777 0.24700
C 	C 	0.47810 0.12600 0.93670 0.17200
C 	C 	0.21859 0.23539 0.99611 0.12900
C 	C 	0.19933 0.25093 0.04087 0.14900
C 	C 	0.17477 0.28857 0.99721 0.35600
C 	C 	0.33543 0.14169 0.04901 0.02800
C 	C 	0.27478 0.16524 0.07488 0.25900
C 	C 	0.45352 0.11928 0.96536 -0.26300
C 	C 	0.30886 0.11626 0.10440 0.05200
C 	C 	0.50202 0.16240 0.88398 0.36600
C 	C 	0.22211 0.22377 0.05353 -0.25900
C 	C 	0.24159 0.20723 0.00937 -0.23800
C 	C 	0.44652 0.18064 0.92072 0.17000
C 	C 	0.67462 0.92154 0.45546 -0.28200
C 	C 	0.59463 0.86425 0.45831 0.06100
C 	C 	0.75684 0.69770 0.53300 -0.17600
C 	C 	0.65568 0.97572 0.45412 -0.21000
C 	C 	0.61797 0.86469 0.46415 -0.10100
C 	C 	0.61651 0.89623 0.46061 0.26300
C 	C 	0.64436 0.92438 0.46004 0.25600
C 	C 	0.64058 0.80696 0.47736 -0.09800
C 	C 	0.70235 0.74365 0.51623 0.24700
C 	C 	0.62600 0.97810 0.45920 0.17200
C 	C 	0.73539 0.71859 0.54991 0.12900
C 	C 	0.75093 0.69933 0.50887 0.14900
C 	C 	0.78857 0.67477 0.53945 0.35600
C 	C 	0.64169 0.83543 0.47387 0.02800
C 	C 	0.66524 0.77478 0.48510 0.25900
C 	C 	0.61928 0.95352 0.46184 -0.26300
C 	C 	0.61626 0.80886 0.47048 0.05200
C 	C 	0.66240 0.00202 0.45160 0.36600
C 	C 	0.72377 0.72211 0.50059 -0.25900
C 	C 	0.70723 0.74159 0.54181 -0.23800
C 	C 	0.68064 0.94652 0.45212 0.17000
C 	C 	0.44838 0.92154 0.17462 -0.28200
C 	C 	0.58281 0.86425 0.09463 0.06100
C 	C 	0.51246 0.69770 0.25684 -0.17600
C 	C 	0.41448 0.97572 0.15568 -0.21000
C 	C 	0.55319 0.86469 0.11797 -0.10100
C 	C 	0.52665 0.89623 0.11651 0.26300
C 	C 	0.47122 0.92438 0.14436 0.25600
C 	C 	0.57510 0.80696 0.14058 -0.09800
C 	C 	0.53777 0.74365 0.20235 0.24700
C 	C 	0.43670 0.97810 0.12600 0.17200
C 	C 	0.49611 0.71859 0.23539 0.12900
C 	C 	0.54087 0.69933 0.25093 0.14900
C 	C 	0.49721 0.67477 0.28857 0.35600
C 	C 	0.54901 0.83543 0.14169 0.02800
C 	C 	0.57488 0.77478 0.16524 0.25900
C 	C 	0.46536 0.95352 0.11928 -0.26400
C 	C 	0.60440 0.80886 0.11626 0.05200
C 	C 	0.38398 0.00202 0.16240 0.36600
C 	C 	0.55353 0.72211 0.22377 -0.25900
C 	C 	0.50937 0.74159 0.20723 -0.23800
C 	C 	0.42072 0.94652 0.18064 0.17000
C 	C 	0.95546 0.17462 0.92154 -0.28200
C 	C 	0.95831 0.09463 0.86425 0.06100
C 	C 	0.03300 0.25684 0.69770 -0.17600
C 	C 	0.95412 0.15568 0.97572 -0.21000
C 	C 	0.96415 0.11797 0.86469 -0.10100
C 	C 	0.96061 0.11651 0.89623 0.26300
C 	C 	0.96004 0.14436 0.92438 0.25600
C 	C 	0.97736 0.14058 0.80696 -0.09800
C 	C 	0.01623 0.20235 0.74365 0.24700
C 	C 	0.95920 0.12600 0.97810 0.17200
C 	C 	0.04991 0.23539 0.71859 0.12900
C 	C 	0.00887 0.25093 0.69933 0.14900
C 	C 	0.03945 0.28857 0.67477 0.35600
C 	C 	0.97387 0.14169 0.83543 0.02800
C 	C 	0.98510 0.16524 0.77478 0.25900
C 	C 	0.96184 0.11928 0.95352 -0.26300
C 	C 	0.97048 0.11626 0.80886 0.05200
C 	C 	0.95160 0.16240 0.00202 0.36500
C 	C 	0.00059 0.22377 0.72211 -0.25900
C 	C 	0.04181 0.20723 0.74159 -0.23800
C 	C 	0.95212 0.18064 0.94652 0.17000
C 	C 	0.42154 0.94838 0.45546 -0.28200
C 	C 	0.36425 0.08281 0.45831 0.06100
C 	C 	0.19770 0.01246 0.53300 -0.17500
C 	C 	0.47572 0.91448 0.45412 -0.21000
C 	C 	0.36469 0.05319 0.46415 -0.10100
C 	C 	0.39623 0.02665 0.46061 0.26300
C 	C 	0.42438 0.97122 0.46004 0.25600
C 	C 	0.30696 0.07510 0.47736 -0.09800
C 	C 	0.24365 0.03777 0.51623 0.24700
C 	C 	0.47810 0.93670 0.45920 0.17200
C 	C 	0.21859 0.99611 0.54991 0.12800
C 	C 	0.19933 0.04087 0.50887 0.14900
C 	C 	0.17477 0.99721 0.53945 0.35600
C 	C 	0.33543 0.04901 0.47387 0.02800
C 	C 	0.27478 0.07488 0.48510 0.25900
C 	C 	0.45352 0.96536 0.46184 -0.26300
C 	C 	0.30886 0.10440 0.47048 0.05200
C 	C 	0.50202 0.88398 0.45160 0.36600
C 	C 	0.22211 0.05353 0.50059 -0.25900
C 	C 	0.24159 0.00937 0.54181 -0.23800
C 	C 	0.44652 0.92072 0.45212 0.17000
C 	C 	0.67462 0.45546 0.94838 -0.28200
C 	C 	0.59463 0.45831 0.08281 0.06100
C 	C 	0.75684 0.53300 0.01246 -0.17600
C 	C 	0.65568 0.45412 0.91448 -0.21000
C 	C 	0.61797 0.46415 0.05319 -0.10100
C 	C 	0.61651 0.46061 0.02665 0.26300
C 	C 	0.64436 0.46004 0.97122 0.25600
C 	C 	0.64058 0.47736 0.07510 -0.09800
C 	C 	0.70235 0.51623 0.03777 0.24700
C 	C 	0.62600 0.45920 0.93670 0.17200
C 	C 	0.73539 0.54991 0.99611 0.12900
C 	C 	0.75093 0.50887 0.04087 0.14900
C 	C 	0.78857 0.53945 0.99721 0.35600
C 	C 	0.64169 0.47387 0.04901 0.02800
C 	C 	0.66524 0.48510 0.07488 0.25900
C 	C 	0.61928 0.46184 0.96536 -0.26300
C 	C 	0.61626 0.47048 0.10440 0.05200
C 	C 	0.66240 0.45160 0.88398 0.36600
C 	C 	0.72377 0.50059 0.05353 -0.25900
C 	C 	0.70723 0.54181 0.00937 -0.23800
C 	C 	0.68064 0.45212 0.92072 0.17000
C 	C 	0.44838 0.17462 0.45546 -0.28200
C 	C 	0.58281 0.09463 0.45831 0.06100
C 	C 	0.51246 0.25684 0.53300 -0.17600
C 	C 	0.41448 0.15568 0.45412 -0.21000
C 	C 	0.55319 0.11797 0.46415 -0.10100
C 	C 	0.52665 0.11651 0.46061 0.26300
C 	C 	0.47122 0.14436 0.46004 0.25600
C 	C 	0.57510 0.14058 0.47736 -0.09800
C 	C 	0.53777 0.20235 0.51623 0.24700
C 	C 	0.43670 0.12600 0.45920 0.17200
C 	C 	0.49611 0.23539 0.54991 0.12900
C 	C 	0.54087 0.25093 0.50887 0.14900
C 	C 	0.49721 0.28857 0.53945 0.35600
C 	C 	0.54901 0.14169 0.47387 0.02800
C 	C 	0.57488 0.16524 0.48510 0.25900
C 	C 	0.46536 0.11928 0.46184 -0.26300
C 	C 	0.60440 0.11626 0.47048 0.05200
C 	C 	0.38398 0.16240 0.45160 0.36600
C 	C 	0.55353 0.22377 0.50059 -0.25900
C 	C 	0.50937 0.20723 0.54181 -0.23800
C 	C 	0.42072 0.18064 0.45212 0.17000
C 	C 	0.95546 0.92154 0.94838 -0.28200
C 	C 	0.95831 0.86425 0.08281 0.06100
C 	C 	0.03300 0.69770 0.01246 -0.17500
C 	C 	0.95412 0.97572 0.91448 -0.21000
C 	C 	0.96415 0.86469 0.05319 -0.10100
C 	C 	0.96061 0.89623 0.02665 0.26300
C 	C 	0.96004 0.92438 0.97122 0.25600
C 	C 	0.97736 0.80696 0.07510 -0.09800
C 	C 	0.01623 0.74365 0.03777 0.24700
C 	C 	0.95920 0.97810 0.93670 0.17200
C 	C 	0.04991 0.71859 0.99611 0.12800
C 	C 	0.00887 0.69933 0.04087 0.14900
C 	C 	0.03945 0.67477 0.99721 0.35600
C 	C 	0.97387 0.83543 0.04901 0.02700
C 	C 	0.98510 0.77478 0.07488 0.25900
C 	C 	0.96184 0.95352 0.96536 -0.26300
C 	C 	0.97048 0.80886 0.10440 0.05200
C 	C 	0.95160 0.00202 0.88398 0.36600
C 	C 	0.00059 0.72211 0.05353 -0.25900
C 	C 	0.04181 0.74159 0.00937 -0.23700
C 	C 	0.95212 0.94652 0.92072 0.17000
C 	C 	0.42154 0.45546 0.17462 -0.28200
C 	C 	0.36425 0.45831 0.09463 0.06100
C 	C 	0.19770 0.53300 0.25684 -0.17600
C 	C 	0.47572 0.45412 0.15568 -0.21000
C 	C 	0.36469 0.46415 0.11797 -0.10100
C 	C 	0.39623 0.46061 0.11651 0.26300
C 	C 	0.42438 0.46004 0.14436 0.25600
C 	C 	0.30696 0.47736 0.14058 -0.09800
C 	C 	0.24365 0.51623 0.20235 0.24700
C 	C 	0.47810 0.45920 0.12600 0.17200
C 	C 	0.21859 0.54991 0.23539 0.12900
C 	C 	0.19933 0.50887 0.25093 0.14900
C 	C 	0.17477 0.53945 0.28857 0.35600
C 	C 	0.33543 0.47387 0.14169 0.02800
C 	C 	0.27478 0.48510 0.16524 0.25900
C 	C 	0.45352 0.46184 0.11928 -0.26300
C 	C 	0.30886 0.47048 0.11626 0.05200
C 	C 	0.50202 0.45160 0.16240 0.36600
C 	C 	0.22211 0.50059 0.22377 -0.25900
C 	C 	0.24159 0.54181 0.20723 -0.23800
C 	C 	0.44652 0.45212 0.18064 0.17000
C 	C 	0.67462 0.94838 0.92154 -0.28200
C 	C 	0.59463 0.08281 0.86425 0.06100
C 	C 	0.75684 0.01246 0.69770 -0.17600
C 	C 	0.65568 0.91448 0.97572 -0.21000
C 	C 	0.61797 0.05319 0.86469 -0.10100
C 	C 	0.61651 0.02665 0.89623 0.26300
C 	C 	0.64436 0.97122 0.92438 0.25600
C 	C 	0.64058 0.07510 0.80696 -0.09800
C 	C 	0.70235 0.03777 0.74365 0.24700
C 	C 	0.62600 0.93670 0.97810 0.17200
C 	C 	0.73539 0.99611 0.71859 0.12900
C 	C 	0.75093 0.04087 0.69933 0.14900
C 	C 	0.78857 0.99721 0.67477 0.35600
C 	C 	0.64169 0.04901 0.83543 0.02800
C 	C 	0.66524 0.07488 0.77478 0.25900
C 	C 	0.61928 0.96536 0.95352 -0.26300
C 	C 	0.61626 0.10440 0.80886 0.05200
C 	C 	0.66240 0.88398 0.00202 0.36600
C 	C 	0.72377 0.05353 0.72211 -0.25900
C 	C 	0.70723 0.00937 0.74159 -0.23800
C 	C 	0.68064 0.92072 0.94652 0.17000
N 	N 	0.46149 0.60851 0.33707 -0.26400
N 	N 	0.46362 0.49880 0.39724 -0.28400
N 	N 	0.50728 0.54694 0.26978 -0.27800
N 	N 	0.10851 0.96149 0.59293 -0.26400
N 	N 	0.99880 0.96362 0.64034 -0.28400
N 	N 	0.04694 0.00728 0.67600 -0.27800
N 	N 	0.09293 0.33707 0.60851 -0.26400
N 	N 	0.14034 0.39724 0.49880 -0.28400
N 	N 	0.17600 0.26978 0.54694 -0.27800
N 	N 	0.83707 0.59293 0.96149 -0.26400
N 	N 	0.89724 0.64034 0.96362 -0.28400
N 	N 	0.76978 0.67600 0.00728 -0.27800
N 	N 	0.83707 0.60851 0.59293 -0.26400
N 	N 	0.89724 0.49880 0.64034 -0.28400
N 	N 	0.76978 0.54694 0.67600 -0.27800
N 	N 	0.09293 0.96149 0.33707 -0.26400
N 	N 	0.14034 0.96362 0.39724 -0.28400
N 	N 	0.17600 0.00728 0.26978 -0.27800
N 	N 	0.10851 0.33707 0.96149 -0.26400
N 	N 	0.99880 0.39724 0.96362 -0.28400
N 	N 	0.04694 0.26978 0.00728 -0.27800
N 	N 	0.46149 0.59293 0.60851 -0.26400
N 	N 	0.46362 0.64034 0.49880 -0.28400
N 	N 	0.50728 0.67600 0.54694 -0.27800
N 	N 	0.09293 0.60851 0.96149 -0.26400
N 	N 	0.14034 0.49880 0.96362 -0.28400
N 	N 	0.17600 0.54694 0.00728 -0.27800
N 	N 	0.83707 0.96149 0.60851 -0.26400
N 	N 	0.89724 0.96362 0.49880 -0.28400
N 	N 	0.76978 0.00728 0.54694 -0.27800
N 	N 	0.46149 0.33707 0.59293 -0.26400
N 	N 	0.46362 0.39724 0.64034 -0.28400
N 	N 	0.50728 0.26978 0.67600 -0.27800
N 	N 	0.10851 0.59293 0.33707 -0.26400
N 	N 	0.99880 0.64034 0.39724 -0.28400
N 	N 	0.04694 0.67600 0.26978 -0.27800
N 	N 	0.60851 0.46149 0.83707 -0.26400
N 	N 	0.49880 0.46362 0.89724 -0.28400
N 	N 	0.54694 0.50728 0.76978 -0.27800
N 	N 	0.96149 0.10851 0.09293 -0.26400
N 	N 	0.96362 0.99880 0.14034 -0.28400
N 	N 	0.00728 0.04694 0.17600 -0.27800
N 	N 	0.33707 0.09293 0.10851 -0.26400
N 	N 	0.39724 0.14034 0.99880 -0.28400
N 	N 	0.26978 0.17600 0.04694 -0.27800
N 	N 	0.59293 0.83707 0.46149 -0.26400
N 	N 	0.64034 0.89724 0.46362 -0.28400
N 	N 	0.67600 0.76978 0.50728 -0.27800
N 	N 	0.60851 0.83707 0.09293 -0.26400
N 	N 	0.49880 0.89724 0.14034 -0.28400
N 	N 	0.54694 0.76978 0.17600 -0.27800
N 	N 	0.96149 0.09293 0.83707 -0.26400
N 	N 	0.96362 0.14034 0.89724 -0.28400
N 	N 	0.00728 0.17600 0.76978 -0.27800
N 	N 	0.33707 0.10851 0.46149 -0.26400
N 	N 	0.39724 0.99880 0.46362 -0.28400
N 	N 	0.26978 0.04694 0.50728 -0.27800
N 	N 	0.59293 0.46149 0.10851 -0.26400
N 	N 	0.64034 0.46362 0.99880 -0.28400
N 	N 	0.67600 0.50728 0.04694 -0.27800
N 	N 	0.60851 0.09293 0.46149 -0.26400
N 	N 	0.49880 0.14034 0.46362 -0.28400
N 	N 	0.54694 0.17600 0.50728 -0.27800
N 	N 	0.96149 0.83707 0.10851 -0.26400
N 	N 	0.96362 0.89724 0.99880 -0.28400
N 	N 	0.00728 0.76978 0.04694 -0.27800
N 	N 	0.33707 0.46149 0.09293 -0.26400
N 	N 	0.39724 0.46362 0.14034 -0.28400
N 	N 	0.26978 0.50728 0.17600 -0.27800
N 	N 	0.59293 0.10851 0.83707 -0.26400
N 	N 	0.64034 0.99880 0.89724 -0.28400
N 	N 	0.67600 0.04694 0.76978 -0.27800
O 	O 	0.45361 0.53245 0.41985 -0.24400
O 	O 	0.47256 0.59772 0.25556 -0.25000
O 	O 	0.56043 0.46913 0.17719 -0.48600
O 	O 	0.52351 0.51225 0.15629 -0.34600
O 	O 	0.45072 0.36166 0.49810 -0.35500
O 	O 	0.45198 0.38022 0.52838 -0.47700
O 	O 	0.03245 0.95361 0.59409 -0.24400
O 	O 	0.09772 0.97256 0.67416 -0.25000
O 	O 	0.96913 0.06043 0.79325 -0.48600
O 	O 	0.01225 0.02351 0.80795 -0.34600
O 	O 	0.86166 0.95072 0.68952 -0.35500
O 	O 	0.88022 0.95198 0.63942 -0.47700
O 	O 	0.09409 0.41985 0.53245 -0.24400
O 	O 	0.17416 0.25556 0.59772 -0.25000
O 	O 	0.29325 0.17719 0.46913 -0.48600
O 	O 	0.30795 0.15629 0.51225 -0.34600
O 	O 	0.18952 0.49810 0.36166 -0.35500
O 	O 	0.13942 0.52838 0.38022 -0.47700
O 	O 	0.91985 0.59409 0.95361 -0.24400
O 	O 	0.75556 0.67416 0.97256 -0.25000
O 	O 	0.67719 0.79325 0.06043 -0.48600
O 	O 	0.65629 0.80795 0.02351 -0.34700
O 	O 	0.99810 0.68952 0.95072 -0.35400
O 	O 	0.02838 0.63942 0.95198 -0.47700
O 	O 	0.91985 0.53245 0.59409 -0.24400
O 	O 	0.75556 0.59772 0.67416 -0.25000
O 	O 	0.67719 0.46913 0.79325 -0.48600
O 	O 	0.65629 0.51225 0.80795 -0.34600
O 	O 	0.99810 0.36166 0.68952 -0.35500
O 	O 	0.02838 0.38022 0.63942 -0.47700
O 	O 	0.09409 0.95361 0.41985 -0.24400
O 	O 	0.17416 0.97256 0.25556 -0.25000
O 	O 	0.29325 0.06043 0.17719 -0.48600
O 	O 	0.30795 0.02351 0.15629 -0.34600
O 	O 	0.18952 0.95072 0.49810 -0.35500
O 	O 	0.13942 0.95198 0.52838 -0.47700
O 	O 	0.03245 0.41985 0.95361 -0.24400
O 	O 	0.09772 0.25556 0.97256 -0.25000
O 	O 	0.96913 0.17719 0.06043 -0.48600
O 	O 	0.01225 0.15629 0.02351 -0.34600
O 	O 	0.86166 0.49810 0.95072 -0.35500
O 	O 	0.88022 0.52838 0.95198 -0.47700
O 	O 	0.45361 0.59409 0.53245 -0.24400
O 	O 	0.47256 0.67416 0.59772 -0.25000
O 	O 	0.56043 0.79325 0.46913 -0.48600
O 	O 	0.52351 0.80795 0.51225 -0.34600
O 	O 	0.45072 0.68952 0.36166 -0.35500
O 	O 	0.45198 0.63942 0.38022 -0.47700
O 	O 	0.09409 0.53245 0.95361 -0.24400
O 	O 	0.17416 0.59772 0.97256 -0.25000
O 	O 	0.29325 0.46913 0.06043 -0.48600
O 	O 	0.30795 0.51225 0.02351 -0.34600
O 	O 	0.18952 0.36166 0.95072 -0.35500
O 	O 	0.13942 0.38022 0.95198 -0.47700
O 	O 	0.91985 0.95361 0.53245 -0.24400
O 	O 	0.75556 0.97256 0.59772 -0.25000
O 	O 	0.67719 0.06043 0.46913 -0.48600
O 	O 	0.65629 0.02351 0.51225 -0.34700
O 	O 	0.99810 0.95072 0.36166 -0.35400
O 	O 	0.02838 0.95198 0.38022 -0.47700
O 	O 	0.45361 0.41985 0.59409 -0.24400
O 	O 	0.47256 0.25556 0.67416 -0.25000
O 	O 	0.56043 0.17719 0.79325 -0.48600
O 	O 	0.52351 0.15629 0.80795 -0.34600
O 	O 	0.45072 0.49810 0.68952 -0.35500
O 	O 	0.45198 0.52838 0.63942 -0.47700
O 	O 	0.03245 0.59409 0.41985 -0.24400
O 	O 	0.09772 0.67416 0.25556 -0.25000
O 	O 	0.96913 0.79325 0.17719 -0.48600
O 	O 	0.01225 0.80795 0.15629 -0.34600
O 	O 	0.86166 0.68952 0.49810 -0.35500
O 	O 	0.88022 0.63942 0.52838 -0.47700
O 	O 	0.53245 0.45361 0.91985 -0.24400
O 	O 	0.59772 0.47256 0.75556 -0.25000
O 	O 	0.46913 0.56043 0.67719 -0.48600
O 	O 	0.51225 0.52351 0.65629 -0.34600
O 	O 	0.36166 0.45072 0.99810 -0.35500
O 	O 	0.38022 0.45198 0.02838 -0.47700
O 	O 	0.95361 0.03245 0.09409 -0.24400
O 	O 	0.97256 0.09772 0.17416 -0.25000
O 	O 	0.06043 0.96913 0.29325 -0.48600
O 	O 	0.02351 0.01225 0.30795 -0.34600
O 	O 	0.95072 0.86166 0.18952 -0.35500
O 	O 	0.95198 0.88022 0.13942 -0.47700
O 	O 	0.41985 0.09409 0.03245 -0.24400
O 	O 	0.25556 0.17416 0.09772 -0.25000
O 	O 	0.17719 0.29325 0.96913 -0.48600
O 	O 	0.15629 0.30795 0.01225 -0.34600
O 	O 	0.49810 0.18952 0.86166 -0.35500
O 	O 	0.52838 0.13942 0.88022 -0.47700
O 	O 	0.59409 0.91985 0.45361 -0.24400
O 	O 	0.67416 0.75556 0.47256 -0.25000
O 	O 	0.79325 0.67719 0.56043 -0.48600
O 	O 	0.80795 0.65629 0.52351 -0.34600
O 	O 	0.68952 0.99810 0.45072 -0.35400
O 	O 	0.63942 0.02838 0.45198 -0.47700
O 	O 	0.53245 0.91985 0.09409 -0.24400
O 	O 	0.59772 0.75556 0.17416 -0.25000
O 	O 	0.46913 0.67719 0.29325 -0.48600
O 	O 	0.51225 0.65629 0.30795 -0.34600
O 	O 	0.36166 0.99810 0.18952 -0.35500
O 	O 	0.38022 0.02838 0.13942 -0.47700
O 	O 	0.95361 0.09409 0.91985 -0.24400
O 	O 	0.97256 0.17416 0.75556 -0.25000
O 	O 	0.06043 0.29325 0.67719 -0.48600
O 	O 	0.02351 0.30795 0.65629 -0.34600
O 	O 	0.95072 0.18952 0.99810 -0.35400
O 	O 	0.95198 0.13942 0.02838 -0.47700
O 	O 	0.41985 0.03245 0.45361 -0.24400
O 	O 	0.25556 0.09772 0.47256 -0.25000
O 	O 	0.17719 0.96913 0.56043 -0.48600
O 	O 	0.15629 0.01225 0.52351 -0.34600
O 	O 	0.49810 0.86166 0.45072 -0.35500
O 	O 	0.52838 0.88022 0.45198 -0.47700
O 	O 	0.59409 0.45361 0.03245 -0.24400
O 	O 	0.67416 0.47256 0.09772 -0.25000
O 	O 	0.79325 0.56043 0.96913 -0.48600
O 	O 	0.80795 0.52351 0.01225 -0.34700
O 	O 	0.68952 0.45072 0.86166 -0.35500
O 	O 	0.63942 0.45198 0.88022 -0.47700
O 	O 	0.53245 0.09409 0.45361 -0.24400
O 	O 	0.59772 0.17416 0.47256 -0.25000
O 	O 	0.46913 0.29325 0.56043 -0.48600
O 	O 	0.51225 0.30795 0.52351 -0.34600
O 	O 	0.36166 0.18952 0.45072 -0.35500
O 	O 	0.38022 0.13942 0.45198 -0.47700
O 	O 	0.95361 0.91985 0.03245 -0.24400
O 	O 	0.97256 0.75556 0.09772 -0.25000
O 	O 	0.06043 0.67719 0.96913 -0.48600
O 	O 	0.02351 0.65629 0.01225 -0.34600
O 	O 	0.95072 0.99810 0.86166 -0.35400
O 	O 	0.95198 0.02838 0.88022 -0.47700
O 	O 	0.41985 0.45361 0.09409 -0.24400
O 	O 	0.25556 0.47256 0.17416 -0.25000
O 	O 	0.17719 0.56043 0.29325 -0.48600
O 	O 	0.15629 0.52351 0.30795 -0.34600
O 	O 	0.49810 0.45072 0.18952 -0.35500
O 	O 	0.52838 0.45198 0.13942 -0.47700
O 	O 	0.59409 0.03245 0.91985 -0.24400
O 	O 	0.67416 0.09772 0.75556 -0.25000
O 	O 	0.79325 0.96913 0.67719 -0.48600
O 	O 	0.80795 0.01225 0.65629 -0.34700
O 	O 	0.68952 0.86166 0.99810 -0.35400
O 	O 	0.63942 0.88022 0.02838 -0.47700
