data_crystal

_cell_length_a 22.07200
_cell_length_b 22.07200
_cell_length_c 22.07200
_cell_angle_alpha 90.00000
_cell_angle_beta  90.00000
_cell_angle_gamma 90.00000

_symmetry_space_group_name_	'P 1'
_symmetry_space_group_name_H-M	'P 1'

loop_
_symmetry_equiv_pos_as_xyz
  x,y,z

loop_
_atom_site_label
_atom_site_type_symbol
_atom_site_fract_x
_atom_site_fract_y
_atom_site_fract_z
_atom_site_charge
Zn	Zn	0.59254 0.90746 0.59254 1.20100
Zn	Zn	0.90746 0.59254 0.59254 1.20100
Zn	Zn	0.90746 0.90746 0.90746 1.20300
Zn	Zn	0.59254 0.59254 0.90746 1.20100
Zn	Zn	0.40746 0.09254 0.40746 1.19900
Zn	Zn	0.09254 0.40746 0.40746 1.19900
Zn	Zn	0.09254 0.09254 0.09254 1.19700
Zn	Zn	0.40746 0.40746 0.09254 1.19900
Zn	Zn	0.50000 0.00000 0.50000 1.23700
Zn	Zn	0.00000 0.50000 0.50000 1.23700
Zn	Zn	-0.00000 0.00000 -0.00000 1.22200
Zn	Zn	0.50000 0.50000 -0.00000 1.23700
H 	H 	0.53560 0.74750 0.50350 0.10900
H 	H 	0.44610 0.69380 0.35450 0.11200
H 	H 	0.43810 0.79390 0.32560 -0.00300
H 	H 	0.48100 0.86950 0.38150 0.08900
H 	H 	0.42980 0.60920 0.42010 0.04000
H 	H 	0.48990 0.59820 0.38280 0.04200
H 	H 	0.96440 0.75250 0.50350 0.09800
H 	H 	0.05390 0.80620 0.35450 0.10200
H 	H 	0.06190 0.70610 0.32560 -0.00100
H 	H 	0.01900 0.63050 0.38150 0.08500
H 	H 	0.07020 0.89080 0.42010 0.04200
H 	H 	0.01010 0.90180 0.38280 0.03900
H 	H 	0.96440 0.74750 0.99650 0.13700
H 	H 	0.05390 0.69380 0.14550 0.11200
H 	H 	0.06190 0.79390 0.17440 -0.01300
H 	H 	0.01900 0.86950 0.11850 0.10100
H 	H 	0.07020 0.60920 0.07990 0.03100
H 	H 	0.01010 0.59820 0.11720 0.03000
H 	H 	0.53560 0.75250 0.99650 0.15300
H 	H 	0.44610 0.80620 0.14550 0.12700
H 	H 	0.43810 0.70610 0.17440 -0.01700
H 	H 	0.48100 0.63050 0.11850 0.10000
H 	H 	0.42980 0.89080 0.07990 0.02500
H 	H 	0.48990 0.90180 0.11720 0.03300
H 	H 	0.50350 0.53560 0.74750 0.11000
H 	H 	0.35450 0.44610 0.69380 0.11300
H 	H 	0.32560 0.43810 0.79390 -0.00200
H 	H 	0.38150 0.48100 0.86950 0.09000
H 	H 	0.42010 0.42980 0.60920 0.04000
H 	H 	0.38280 0.48990 0.59820 0.04200
H 	H 	0.50350 0.96440 0.75250 0.09800
H 	H 	0.35450 0.05390 0.80620 0.10200
H 	H 	0.32560 0.06190 0.70610 -0.00100
H 	H 	0.38150 0.01900 0.63050 0.08500
H 	H 	0.42010 0.07020 0.89080 0.04200
H 	H 	0.38280 0.01010 0.90180 0.03900
H 	H 	0.99650 0.96440 0.74750 0.13700
H 	H 	0.14550 0.05390 0.69380 0.11200
H 	H 	0.17440 0.06190 0.79390 -0.01300
H 	H 	0.11850 0.01900 0.86950 0.10100
H 	H 	0.07990 0.07020 0.60920 0.03100
H 	H 	0.11720 0.01010 0.59820 0.03000
H 	H 	0.99650 0.53560 0.75250 0.15300
H 	H 	0.14550 0.44610 0.80620 0.12700
H 	H 	0.17440 0.43810 0.70610 -0.01700
H 	H 	0.11850 0.48100 0.63050 0.10000
H 	H 	0.07990 0.42980 0.89080 0.02500
H 	H 	0.11720 0.48990 0.90180 0.03300
H 	H 	0.74750 0.50350 0.53560 0.11000
H 	H 	0.69380 0.35450 0.44610 0.11300
H 	H 	0.79390 0.32560 0.43810 -0.00200
H 	H 	0.86950 0.38150 0.48100 0.09000
H 	H 	0.60920 0.42010 0.42980 0.04000
H 	H 	0.59820 0.38280 0.48990 0.04200
H 	H 	0.75250 0.50350 0.96440 0.09800
H 	H 	0.80620 0.35450 0.05390 0.10200
H 	H 	0.70610 0.32560 0.06190 -0.00100
H 	H 	0.63050 0.38150 0.01900 0.08500
H 	H 	0.89080 0.42010 0.07020 0.04200
H 	H 	0.90180 0.38280 0.01010 0.03900
H 	H 	0.74750 0.99650 0.96440 0.13700
H 	H 	0.69380 0.14550 0.05390 0.11200
H 	H 	0.79390 0.17440 0.06190 -0.01300
H 	H 	0.86950 0.11850 0.01900 0.10100
H 	H 	0.60920 0.07990 0.07020 0.03100
H 	H 	0.59820 0.11720 0.01010 0.03000
H 	H 	0.75250 0.99650 0.53560 0.15300
H 	H 	0.80620 0.14550 0.44610 0.12700
H 	H 	0.70610 0.17440 0.43810 -0.01700
H 	H 	0.63050 0.11850 0.48100 0.10000
H 	H 	0.89080 0.07990 0.42980 0.02500
H 	H 	0.90180 0.11720 0.48990 0.03300
H 	H 	0.46440 0.25250 0.49650 0.10700
H 	H 	0.55390 0.30620 0.64550 0.11100
H 	H 	0.56190 0.20610 0.67440 -0.00200
H 	H 	0.51900 0.13050 0.61850 0.08200
H 	H 	0.57020 0.39080 0.57990 0.04100
H 	H 	0.51010 0.40180 0.61720 0.04200
H 	H 	0.03560 0.24750 0.49650 0.12000
H 	H 	0.94610 0.19380 0.64550 0.12400
H 	H 	0.93810 0.29390 0.67440 -0.00400
H 	H 	0.98100 0.36950 0.61850 0.08700
H 	H 	0.92980 0.10920 0.57990 0.03900
H 	H 	0.98990 0.09820 0.61720 0.04600
H 	H 	0.03560 0.25250 0.00350 0.07100
H 	H 	0.94610 0.30620 0.85450 0.10900
H 	H 	0.93810 0.20610 0.82560 0.01200
H 	H 	0.98100 0.13050 0.88150 0.06900
H 	H 	0.92980 0.39080 0.92010 0.05000
H 	H 	0.98990 0.40180 0.88280 0.05400
H 	H 	0.46440 0.24750 0.00350 0.06100
H 	H 	0.55390 0.19380 0.85450 0.09700
H 	H 	0.56190 0.29390 0.82560 0.01400
H 	H 	0.51900 0.36950 0.88150 0.07000
H 	H 	0.57020 0.10920 0.92010 0.05600
H 	H 	0.51010 0.09820 0.88280 0.05200
H 	H 	0.49650 0.46440 0.25250 0.10700
H 	H 	0.64550 0.55390 0.30620 0.11100
H 	H 	0.67440 0.56190 0.20610 -0.00200
H 	H 	0.61850 0.51900 0.13050 0.08200
H 	H 	0.57990 0.57020 0.39080 0.04100
H 	H 	0.61720 0.51010 0.40180 0.04200
H 	H 	0.49650 0.03560 0.24750 0.12000
H 	H 	0.64550 0.94610 0.19380 0.12400
H 	H 	0.67440 0.93810 0.29390 -0.00400
H 	H 	0.61850 0.98100 0.36950 0.08700
H 	H 	0.57990 0.92980 0.10920 0.03900
H 	H 	0.61720 0.98990 0.09820 0.04600
H 	H 	0.00350 0.03560 0.25250 0.07100
H 	H 	0.85450 0.94610 0.30620 0.10900
H 	H 	0.82560 0.93810 0.20610 0.01200
H 	H 	0.88150 0.98100 0.13050 0.06900
H 	H 	0.92010 0.92980 0.39080 0.05000
H 	H 	0.88280 0.98990 0.40180 0.05400
H 	H 	0.00350 0.46440 0.24750 0.06100
H 	H 	0.85450 0.55390 0.19380 0.09700
H 	H 	0.82560 0.56190 0.29390 0.01400
H 	H 	0.88150 0.51900 0.36950 0.07000
H 	H 	0.92010 0.57020 0.10920 0.05600
H 	H 	0.88280 0.51010 0.09820 0.05200
H 	H 	0.25250 0.49650 0.46440 0.10700
H 	H 	0.30620 0.64550 0.55390 0.11100
H 	H 	0.20610 0.67440 0.56190 -0.00200
H 	H 	0.13050 0.61850 0.51900 0.08200
H 	H 	0.39080 0.57990 0.57020 0.04100
H 	H 	0.40180 0.61720 0.51010 0.04200
H 	H 	0.24750 0.49650 0.03560 0.12000
H 	H 	0.19380 0.64550 0.94610 0.12400
H 	H 	0.29390 0.67440 0.93810 -0.00400
H 	H 	0.36950 0.61850 0.98100 0.08700
H 	H 	0.10920 0.57990 0.92980 0.03900
H 	H 	0.09820 0.61720 0.98990 0.04600
H 	H 	0.25250 0.00350 0.03560 0.07100
H 	H 	0.30620 0.85450 0.94610 0.10900
H 	H 	0.20610 0.82560 0.93810 0.01200
H 	H 	0.13050 0.88150 0.98100 0.06900
H 	H 	0.39080 0.92010 0.92980 0.05000
H 	H 	0.40180 0.88280 0.98990 0.05400
H 	H 	0.24750 0.00350 0.46440 0.06100
H 	H 	0.19380 0.85450 0.55390 0.09700
H 	H 	0.29390 0.82560 0.56190 0.01400
H 	H 	0.36950 0.88150 0.51900 0.07000
H 	H 	0.10920 0.92010 0.57020 0.05600
H 	H 	0.09820 0.88280 0.51010 0.05200
C 	C 	0.51173 0.81511 0.44898 0.00800
C 	C 	0.51652 0.75665 0.46709 -0.16700
C 	C 	0.49283 0.70996 0.43111 0.23000
C 	C 	0.46300 0.72410 0.37830 -0.22600
C 	C 	0.45860 0.78420 0.36120 0.09600
C 	C 	0.48320 0.82951 0.39470 -0.11900
C 	C 	0.53662 0.86454 0.48846 0.35400
C 	C 	0.47326 0.60328 0.42321 0.00500
C 	C 	0.48786 0.54920 0.46263 0.00900
C 	C 	0.98827 0.68489 0.44898 0.01600
C 	C 	0.98348 0.74335 0.46709 -0.12200
C 	C 	0.00717 0.79004 0.43111 0.17100
C 	C 	0.03700 0.77590 0.37830 -0.20000
C 	C 	0.04140 0.71580 0.36120 0.08300
C 	C 	0.01680 0.67049 0.39470 -0.13500
C 	C 	0.96338 0.63546 0.48846 0.35600
C 	C 	0.02674 0.89672 0.42321 -0.00000
C 	C 	0.01214 0.95080 0.46263 -0.04800
C 	C 	0.98827 0.81511 0.05102 0.05900
C 	C 	0.98348 0.75665 0.03291 -0.19500
C 	C 	0.00717 0.70996 0.06889 0.20300
C 	C 	0.03700 0.72410 0.12170 -0.23500
C 	C 	0.04140 0.78420 0.13880 0.11800
C 	C 	0.01680 0.82951 0.10530 -0.17500
C 	C 	0.96338 0.86454 0.01154 0.31400
C 	C 	0.02674 0.60328 0.07679 0.01500
C 	C 	0.01214 0.54920 0.03737 -0.07300
C 	C 	0.51173 0.68489 0.05102 0.05200
C 	C 	0.51652 0.74335 0.03291 -0.24700
C 	C 	0.49283 0.79004 0.06889 0.27000
C 	C 	0.46300 0.77590 0.12170 -0.26600
C 	C 	0.45860 0.71580 0.13880 0.13400
C 	C 	0.48320 0.67049 0.10530 -0.16000
C 	C 	0.53662 0.63546 0.01154 0.31200
C 	C 	0.47326 0.89672 0.07679 0.04300
C 	C 	0.48786 0.95080 0.03737 -0.05200
C 	C 	0.44898 0.51173 0.81511 0.00800
C 	C 	0.46709 0.51652 0.75665 -0.16700
C 	C 	0.43111 0.49283 0.70996 0.23000
C 	C 	0.37830 0.46300 0.72410 -0.22600
C 	C 	0.36120 0.45860 0.78420 0.09600
C 	C 	0.39470 0.48320 0.82951 -0.11900
C 	C 	0.48846 0.53662 0.86454 0.35400
C 	C 	0.42321 0.47326 0.60328 0.00500
C 	C 	0.46263 0.48786 0.54920 0.00900
C 	C 	0.44898 0.98827 0.68489 0.01600
C 	C 	0.46709 0.98348 0.74335 -0.12200
C 	C 	0.43111 0.00717 0.79004 0.17100
C 	C 	0.37830 0.03700 0.77590 -0.20000
C 	C 	0.36120 0.04140 0.71580 0.08300
C 	C 	0.39470 0.01680 0.67049 -0.13500
C 	C 	0.48846 0.96338 0.63546 0.35600
C 	C 	0.42321 0.02674 0.89672 -0.00000
C 	C 	0.46263 0.01214 0.95080 -0.04800
C 	C 	0.05102 0.98827 0.81511 0.05900
C 	C 	0.03291 0.98348 0.75665 -0.19500
C 	C 	0.06889 0.00717 0.70996 0.20300
C 	C 	0.12170 0.03700 0.72410 -0.23500
C 	C 	0.13880 0.04140 0.78420 0.11800
C 	C 	0.10530 0.01680 0.82951 -0.17500
C 	C 	0.01154 0.96338 0.86454 0.31400
C 	C 	0.07679 0.02674 0.60328 0.01500
C 	C 	0.03737 0.01214 0.54920 -0.07300
C 	C 	0.05102 0.51173 0.68489 0.05200
C 	C 	0.03291 0.51652 0.74335 -0.24700
C 	C 	0.06889 0.49283 0.79004 0.27000
C 	C 	0.12170 0.46300 0.77590 -0.26600
C 	C 	0.13880 0.45860 0.71580 0.13400
C 	C 	0.10530 0.48320 0.67049 -0.16000
C 	C 	0.01154 0.53662 0.63546 0.31200
C 	C 	0.07679 0.47326 0.89672 0.04300
C 	C 	0.03737 0.48786 0.95080 -0.05200
C 	C 	0.81511 0.44898 0.51173 0.00800
C 	C 	0.75665 0.46709 0.51652 -0.16700
C 	C 	0.70996 0.43111 0.49283 0.23000
C 	C 	0.72410 0.37830 0.46300 -0.22600
C 	C 	0.78420 0.36120 0.45860 0.09600
C 	C 	0.82951 0.39470 0.48320 -0.11900
C 	C 	0.86454 0.48846 0.53662 0.35400
C 	C 	0.60328 0.42321 0.47326 0.00500
C 	C 	0.54920 0.46263 0.48786 0.00900
C 	C 	0.68489 0.44898 0.98827 0.01600
C 	C 	0.74335 0.46709 0.98348 -0.12200
C 	C 	0.79004 0.43111 0.00717 0.17100
C 	C 	0.77590 0.37830 0.03700 -0.20000
C 	C 	0.71580 0.36120 0.04140 0.08300
C 	C 	0.67049 0.39470 0.01680 -0.13500
C 	C 	0.63546 0.48846 0.96338 0.35600
C 	C 	0.89672 0.42321 0.02674 -0.00000
C 	C 	0.95080 0.46263 0.01214 -0.04800
C 	C 	0.81511 0.05102 0.98827 0.05900
C 	C 	0.75665 0.03291 0.98348 -0.19500
C 	C 	0.70996 0.06889 0.00717 0.20300
C 	C 	0.72410 0.12170 0.03700 -0.23500
C 	C 	0.78420 0.13880 0.04140 0.11800
C 	C 	0.82951 0.10530 0.01680 -0.17500
C 	C 	0.86454 0.01154 0.96338 0.31400
C 	C 	0.60328 0.07679 0.02674 0.01500
C 	C 	0.54920 0.03737 0.01214 -0.07300
C 	C 	0.68489 0.05102 0.51173 0.05200
C 	C 	0.74335 0.03291 0.51652 -0.24700
C 	C 	0.79004 0.06889 0.49283 0.27000
C 	C 	0.77590 0.12170 0.46300 -0.26600
C 	C 	0.71580 0.13880 0.45860 0.13400
C 	C 	0.67049 0.10530 0.48320 -0.16000
C 	C 	0.63546 0.01154 0.53662 0.31200
C 	C 	0.89672 0.07679 0.47326 0.04300
C 	C 	0.95080 0.03737 0.48786 -0.05200
C 	C 	0.48827 0.18489 0.55102 0.00100
C 	C 	0.48348 0.24335 0.53291 -0.16300
C 	C 	0.50717 0.29004 0.56889 0.22600
C 	C 	0.53700 0.27590 0.62170 -0.22300
C 	C 	0.54140 0.21580 0.63880 0.09000
C 	C 	0.51680 0.17049 0.60530 -0.11300
C 	C 	0.46338 0.13546 0.51154 0.35800
C 	C 	0.52674 0.39672 0.57679 0.00400
C 	C 	0.51214 0.45080 0.53737 0.00900
C 	C 	0.01173 0.31511 0.55102 -0.00500
C 	C 	0.01652 0.25665 0.53291 -0.21200
C 	C 	0.99283 0.20996 0.56889 0.29000
C 	C 	0.96300 0.22410 0.62170 -0.25200
C 	C 	0.95860 0.28420 0.63880 0.10500
C 	C 	0.98320 0.32951 0.60530 -0.09800
C 	C 	0.03662 0.36454 0.51154 0.35500
C 	C 	0.97326 0.10328 0.57679 0.01000
C 	C 	0.98786 0.04920 0.53737 0.06800
C 	C 	0.01173 0.18489 0.94898 -0.05800
C 	C 	0.01652 0.24335 0.96709 -0.11900
C 	C 	0.99283 0.29004 0.93111 0.24200
C 	C 	0.96300 0.27590 0.87830 -0.20500
C 	C 	0.95860 0.21580 0.86120 0.06000
C 	C 	0.98320 0.17049 0.89470 -0.04900
C 	C 	0.03662 0.13546 0.98846 0.40500
C 	C 	0.97326 0.39672 0.92321 -0.00800
C 	C 	0.98786 0.45080 0.96263 0.08600
C 	C 	0.48827 0.31511 0.94898 -0.04500
C 	C 	0.48348 0.25665 0.96709 -0.07800
C 	C 	0.50717 0.20996 0.93111 0.18300
C 	C 	0.53700 0.22410 0.87830 -0.18000
C 	C 	0.54140 0.28420 0.86120 0.05000
C 	C 	0.51680 0.32951 0.89470 -0.06900
C 	C 	0.46338 0.36454 0.98846 0.40300
C 	C 	0.52674 0.10328 0.92321 -0.03600
C 	C 	0.51214 0.04920 0.96263 0.07300
C 	C 	0.55102 0.48827 0.18489 0.00100
C 	C 	0.53291 0.48348 0.24335 -0.16300
C 	C 	0.56889 0.50717 0.29004 0.22600
C 	C 	0.62170 0.53700 0.27590 -0.22300
C 	C 	0.63880 0.54140 0.21580 0.09000
C 	C 	0.60530 0.51680 0.17049 -0.11300
C 	C 	0.51154 0.46338 0.13546 0.35800
C 	C 	0.57679 0.52674 0.39672 0.00400
C 	C 	0.53737 0.51214 0.45080 0.00900
C 	C 	0.55102 0.01173 0.31511 -0.00500
C 	C 	0.53291 0.01652 0.25665 -0.21200
C 	C 	0.56889 0.99283 0.20996 0.29000
C 	C 	0.62170 0.96300 0.22410 -0.25200
C 	C 	0.63880 0.95860 0.28420 0.10500
C 	C 	0.60530 0.98320 0.32951 -0.09800
C 	C 	0.51154 0.03662 0.36454 0.35500
C 	C 	0.57679 0.97326 0.10328 0.01000
C 	C 	0.53737 0.98786 0.04920 0.06800
C 	C 	0.94898 0.01173 0.18489 -0.05800
C 	C 	0.96709 0.01652 0.24335 -0.11900
C 	C 	0.93111 0.99283 0.29004 0.24200
C 	C 	0.87830 0.96300 0.27590 -0.20500
C 	C 	0.86120 0.95860 0.21580 0.06000
C 	C 	0.89470 0.98320 0.17049 -0.04900
C 	C 	0.98846 0.03662 0.13546 0.40500
C 	C 	0.92321 0.97326 0.39672 -0.00800
C 	C 	0.96263 0.98786 0.45080 0.08600
C 	C 	0.94898 0.48827 0.31511 -0.04500
C 	C 	0.96709 0.48348 0.25665 -0.07800
C 	C 	0.93111 0.50717 0.20996 0.18300
C 	C 	0.87830 0.53700 0.22410 -0.18000
C 	C 	0.86120 0.54140 0.28420 0.05000
C 	C 	0.89470 0.51680 0.32951 -0.06900
C 	C 	0.98846 0.46338 0.36454 0.40300
C 	C 	0.92321 0.52674 0.10328 -0.03600
C 	C 	0.96263 0.51214 0.04920 0.07300
C 	C 	0.18489 0.55102 0.48827 0.00100
C 	C 	0.24335 0.53291 0.48348 -0.16300
C 	C 	0.29004 0.56889 0.50717 0.22600
C 	C 	0.27590 0.62170 0.53700 -0.22300
C 	C 	0.21580 0.63880 0.54140 0.09000
C 	C 	0.17049 0.60530 0.51680 -0.11300
C 	C 	0.13546 0.51154 0.46338 0.35800
C 	C 	0.39672 0.57679 0.52674 0.00400
C 	C 	0.45080 0.53737 0.51214 0.00900
C 	C 	0.31511 0.55102 0.01173 -0.00500
C 	C 	0.25665 0.53291 0.01652 -0.21200
C 	C 	0.20996 0.56889 0.99283 0.29000
C 	C 	0.22410 0.62170 0.96300 -0.25200
C 	C 	0.28420 0.63880 0.95860 0.10500
C 	C 	0.32951 0.60530 0.98320 -0.09800
C 	C 	0.36454 0.51154 0.03662 0.35500
C 	C 	0.10328 0.57679 0.97326 0.01000
C 	C 	0.04920 0.53737 0.98786 0.06800
C 	C 	0.18489 0.94898 0.01173 -0.05800
C 	C 	0.24335 0.96709 0.01652 -0.11900
C 	C 	0.29004 0.93111 0.99283 0.24200
C 	C 	0.27590 0.87830 0.96300 -0.20500
C 	C 	0.21580 0.86120 0.95860 0.06000
C 	C 	0.17049 0.89470 0.98320 -0.04900
C 	C 	0.13546 0.98846 0.03662 0.40500
C 	C 	0.39672 0.92321 0.97326 -0.00800
C 	C 	0.45080 0.96263 0.98786 0.08600
C 	C 	0.31511 0.94898 0.48827 -0.04500
C 	C 	0.25665 0.96709 0.48348 -0.07800
C 	C 	0.20996 0.93111 0.50717 0.18300
C 	C 	0.22410 0.87830 0.53700 -0.18000
C 	C 	0.28420 0.86120 0.54140 0.05000
C 	C 	0.32951 0.89470 0.51680 -0.06900
C 	C 	0.36454 0.98846 0.46338 0.40300
C 	C 	0.10328 0.92321 0.52674 -0.03600
C 	C 	0.04920 0.96263 0.51214 0.07300
O 	O 	0.53458 0.91755 0.47055 -0.44200
O 	O 	0.55924 0.84770 0.53876 -0.49600
O 	O 	0.50140 0.65340 0.45378 -0.23500
O 	O 	0.96542 0.58245 0.47055 -0.44100
O 	O 	0.94076 0.65230 0.53876 -0.49300
O 	O 	0.99860 0.84660 0.45378 -0.19800
O 	O 	0.96542 0.91755 0.02945 -0.42900
O 	O 	0.94076 0.84770 0.96124 -0.47000
O 	O 	0.99860 0.65340 0.04622 -0.21600
O 	O 	0.53458 0.58245 0.02945 -0.44700
O 	O 	0.55924 0.65230 0.96124 -0.47200
O 	O 	0.50140 0.84660 0.04622 -0.25900
O 	O 	0.47055 0.53458 0.91755 -0.44200
O 	O 	0.53876 0.55924 0.84770 -0.49600
O 	O 	0.45378 0.50140 0.65340 -0.23500
O 	O 	0.47055 0.96542 0.58245 -0.44100
O 	O 	0.53876 0.94076 0.65230 -0.49300
O 	O 	0.45378 0.99860 0.84660 -0.19800
O 	O 	0.02945 0.96542 0.91755 -0.42900
O 	O 	0.96124 0.94076 0.84770 -0.47000
O 	O 	0.04622 0.99860 0.65340 -0.21600
O 	O 	0.02945 0.53458 0.58245 -0.44700
O 	O 	0.96124 0.55924 0.65230 -0.47200
O 	O 	0.04622 0.50140 0.84660 -0.25900
O 	O 	0.91755 0.47055 0.53458 -0.44200
O 	O 	0.84770 0.53876 0.55924 -0.49600
O 	O 	0.65340 0.45378 0.50140 -0.23500
O 	O 	0.58245 0.47055 0.96542 -0.44100
O 	O 	0.65230 0.53876 0.94076 -0.49300
O 	O 	0.84660 0.45378 0.99860 -0.19800
O 	O 	0.91755 0.02945 0.96542 -0.42900
O 	O 	0.84770 0.96124 0.94076 -0.47000
O 	O 	0.65340 0.04622 0.99860 -0.21600
O 	O 	0.58245 0.02945 0.53458 -0.44700
O 	O 	0.65230 0.96124 0.55924 -0.47200
O 	O 	0.84660 0.04622 0.50140 -0.25900
O 	O 	0.46542 0.08245 0.52945 -0.45700
O 	O 	0.44076 0.15230 0.46124 -0.50000
O 	O 	0.49860 0.34660 0.54622 -0.23500
O 	O 	0.03458 0.41755 0.52945 -0.45800
O 	O 	0.05924 0.34770 0.46124 -0.50300
O 	O 	0.00140 0.15340 0.54622 -0.27500
O 	O 	0.03458 0.08245 0.97055 -0.46600
O 	O 	0.05924 0.15230 0.03876 -0.53100
O 	O 	0.00140 0.34660 0.95378 -0.25000
O 	O 	0.46542 0.41755 0.97055 -0.45300
O 	O 	0.44076 0.34770 0.03876 -0.52500
O 	O 	0.49860 0.15340 0.95378 -0.21000
O 	O 	0.52945 0.46542 0.08245 -0.45700
O 	O 	0.46124 0.44076 0.15230 -0.50000
O 	O 	0.54622 0.49860 0.34660 -0.23500
O 	O 	0.52945 0.03458 0.41755 -0.45800
O 	O 	0.46124 0.05924 0.34770 -0.50300
O 	O 	0.54622 0.00140 0.15340 -0.27500
O 	O 	0.97055 0.03458 0.08245 -0.46600
O 	O 	0.03876 0.05924 0.15230 -0.53100
O 	O 	0.95378 0.00140 0.34660 -0.25000
O 	O 	0.97055 0.46542 0.41755 -0.45300
O 	O 	0.03876 0.44076 0.34770 -0.52500
O 	O 	0.95378 0.49860 0.15340 -0.21000
O 	O 	0.08245 0.52945 0.46542 -0.45700
O 	O 	0.15230 0.46124 0.44076 -0.50000
O 	O 	0.34660 0.54622 0.49860 -0.23500
O 	O 	0.41755 0.52945 0.03458 -0.45800
O 	O 	0.34770 0.46124 0.05924 -0.50300
O 	O 	0.15340 0.54622 0.00140 -0.27500
O 	O 	0.08245 0.97055 0.03458 -0.46600
O 	O 	0.15230 0.03876 0.05924 -0.53100
O 	O 	0.34660 0.95378 0.00140 -0.25000
O 	O 	0.41755 0.97055 0.46542 -0.45300
O 	O 	0.34770 0.03876 0.44076 -0.52500
O 	O 	0.15340 0.95378 0.49860 -0.21000
