data_crystal

_cell_length_a 30.01400
_cell_length_b 30.01400
_cell_length_c 30.01400
_cell_angle_alpha 90.00000
_cell_angle_beta  90.00000
_cell_angle_gamma 90.00000

_symmetry_space_group_name_	'P 1'
_symmetry_space_group_name_H-M	'P 1'

loop_
_symmetry_equiv_pos_as_xyz
  x,y,z

loop_
_atom_site_label
_atom_site_type_symbol
_atom_site_fract_x
_atom_site_fract_y
_atom_site_fract_z
_atom_site_charge
H 	H 	0.23530 0.19820 0.34910 0.04800
H 	H 	0.73530 0.69820 0.84910 0.05100
H 	H 	0.76470 0.80180 0.34910 0.04900
H 	H 	0.26470 0.30180 0.84910 0.05000
H 	H 	0.76470 0.19820 0.65090 0.04800
H 	H 	0.26470 0.69820 0.15090 0.04700
H 	H 	0.23530 0.80180 0.65090 0.04900
H 	H 	0.73530 0.30180 0.15090 0.04700
H 	H 	0.34910 0.23530 0.19820 0.04800
H 	H 	0.84910 0.73530 0.69820 0.05100
H 	H 	0.34910 0.76470 0.80180 0.04900
H 	H 	0.84910 0.26470 0.30180 0.05000
H 	H 	0.65090 0.76470 0.19820 0.04800
H 	H 	0.15090 0.26470 0.69820 0.04700
H 	H 	0.65090 0.23530 0.80180 0.04900
H 	H 	0.15090 0.73530 0.30180 0.04700
H 	H 	0.19820 0.34910 0.23530 0.04800
H 	H 	0.69820 0.84910 0.73530 0.05100
H 	H 	0.80180 0.34910 0.76470 0.04900
H 	H 	0.30180 0.84910 0.26470 0.05000
H 	H 	0.19820 0.65090 0.76470 0.04800
H 	H 	0.69820 0.15090 0.26470 0.04700
H 	H 	0.80180 0.65090 0.23530 0.04900
H 	H 	0.30180 0.15090 0.73530 0.04700
H 	H 	0.19820 0.23530 0.65090 0.04800
H 	H 	0.69820 0.73530 0.15090 0.04700
H 	H 	0.80180 0.76470 0.65090 0.04800
H 	H 	0.30180 0.26470 0.15090 0.04600
H 	H 	0.19820 0.76470 0.34910 0.04800
H 	H 	0.69820 0.26470 0.84910 0.05000
H 	H 	0.80180 0.23530 0.34910 0.04900
H 	H 	0.30180 0.73530 0.84910 0.05000
H 	H 	0.23530 0.34910 0.80180 0.04900
H 	H 	0.73530 0.84910 0.30180 0.05100
H 	H 	0.76470 0.34910 0.19820 0.04900
H 	H 	0.26470 0.84910 0.69820 0.05100
H 	H 	0.76470 0.65090 0.80180 0.04900
H 	H 	0.26470 0.15090 0.30180 0.04700
H 	H 	0.23530 0.65090 0.19820 0.04900
H 	H 	0.73530 0.15090 0.69820 0.04800
H 	H 	0.34910 0.19820 0.76470 0.04900
H 	H 	0.84910 0.69820 0.26470 0.05100
H 	H 	0.34910 0.80180 0.23530 0.05000
H 	H 	0.84910 0.30180 0.73530 0.05100
H 	H 	0.65090 0.19820 0.23530 0.04900
H 	H 	0.15090 0.69820 0.73530 0.04800
H 	H 	0.65090 0.80180 0.76470 0.04900
H 	H 	0.15090 0.30180 0.26470 0.04700
H 	H 	0.76470 0.80180 0.65090 0.04900
H 	H 	0.26470 0.30180 0.15090 0.04700
H 	H 	0.23530 0.19820 0.65090 0.04900
H 	H 	0.73530 0.69820 0.15090 0.04800
H 	H 	0.23530 0.80180 0.34910 0.05000
H 	H 	0.73530 0.30180 0.84910 0.05100
H 	H 	0.76470 0.19820 0.34910 0.04900
H 	H 	0.26470 0.69820 0.84910 0.05100
H 	H 	0.65090 0.76470 0.80180 0.04900
H 	H 	0.15090 0.26470 0.30180 0.04700
H 	H 	0.65090 0.23530 0.19820 0.04900
H 	H 	0.15090 0.73530 0.69820 0.04800
H 	H 	0.34910 0.23530 0.80180 0.05000
H 	H 	0.84910 0.73530 0.30180 0.05100
H 	H 	0.34910 0.76470 0.19820 0.04900
H 	H 	0.84910 0.26470 0.69820 0.05100
H 	H 	0.80180 0.65090 0.76470 0.04900
H 	H 	0.30180 0.15090 0.26470 0.04700
H 	H 	0.19820 0.65090 0.23530 0.04900
H 	H 	0.69820 0.15090 0.73530 0.04800
H 	H 	0.80180 0.34910 0.23530 0.05000
H 	H 	0.30180 0.84910 0.73530 0.05100
H 	H 	0.19820 0.34910 0.76470 0.04900
H 	H 	0.69820 0.84910 0.26470 0.05100
H 	H 	0.80180 0.76470 0.34910 0.05000
H 	H 	0.30180 0.26470 0.84910 0.05100
H 	H 	0.19820 0.23530 0.34910 0.04900
H 	H 	0.69820 0.73530 0.84910 0.05200
H 	H 	0.80180 0.23530 0.65090 0.05000
H 	H 	0.30180 0.73530 0.15090 0.04800
H 	H 	0.19820 0.76470 0.65090 0.04900
H 	H 	0.69820 0.26470 0.15090 0.04800
H 	H 	0.76470 0.65090 0.19820 0.04900
H 	H 	0.26470 0.15090 0.69820 0.04800
H 	H 	0.23530 0.65090 0.80180 0.05000
H 	H 	0.73530 0.15090 0.30180 0.04800
H 	H 	0.23530 0.34910 0.19820 0.04900
H 	H 	0.73530 0.84910 0.69820 0.05200
H 	H 	0.76470 0.34910 0.80180 0.05000
H 	H 	0.26470 0.84910 0.30180 0.05100
H 	H 	0.65090 0.80180 0.23530 0.05000
H 	H 	0.15090 0.30180 0.73530 0.04800
H 	H 	0.65090 0.19820 0.76470 0.04900
H 	H 	0.15090 0.69820 0.26470 0.04800
H 	H 	0.34910 0.80180 0.76470 0.05000
H 	H 	0.84910 0.30180 0.26470 0.05100
H 	H 	0.34910 0.19820 0.23530 0.04900
H 	H 	0.84910 0.69820 0.73530 0.05200
Ni	Ni	0.00000 0.00000 0.37657 1.09000
Ni	Ni	0.50000 0.50000 0.87657 1.11100
Ni	Ni	0.00000 0.00000 0.62343 1.09000
Ni	Ni	0.50000 0.50000 0.12343 1.10900
Ni	Ni	0.37657 0.00000 -0.00000 1.09000
Ni	Ni	0.87657 0.50000 0.50000 1.11100
Ni	Ni	0.62343 0.00000 -0.00000 1.09000
Ni	Ni	0.12343 0.50000 0.50000 1.10900
Ni	Ni	-0.00000 0.37657 -0.00000 1.09000
Ni	Ni	0.50000 0.87657 0.50000 1.11100
Ni	Ni	-0.00000 0.62343 -0.00000 1.09000
Ni	Ni	0.50000 0.12343 0.50000 1.10900
C 	C 	0.06793 0.06793 0.35180 0.31700
C 	C 	0.10191 0.10191 0.36860 0.06900
C 	C 	0.10990 0.10990 0.41080 -0.21300
H 	H 	0.09380 0.09380 0.43190 0.11000
C 	C 	0.13740 0.13740 0.42420 0.17300
H 	H 	0.14100 0.14100 0.45480 -0.02900
C 	C 	0.16410 0.16410 0.39500 -0.26600
H 	H 	0.18470 0.18470 0.40550 0.13100
C 	C 	0.15711 0.15711 0.35010 0.25800
C 	C 	0.12524 0.12524 0.33520 -0.20200
H 	H 	0.12010 0.12010 0.30510 0.13300
C 	C 	0.21207 0.21207 0.33140 -0.00500
C 	C 	0.23111 0.23111 0.28973 0.01400
O 	O 	0.06390 0.06390 0.31089 -0.26000
O 	O 	0.04748 0.04748 0.38002 -0.42000
O 	O 	0.17918 0.17918 0.31775 -0.23500
C 	C 	0.56793 0.56793 0.85180 0.31300
C 	C 	0.60191 0.60191 0.86860 0.08300
C 	C 	0.60990 0.60990 0.91080 -0.22400
H 	H 	0.59380 0.59380 0.93190 0.12200
C 	C 	0.63740 0.63740 0.92420 0.18700
H 	H 	0.64100 0.64100 0.95480 -0.02500
C 	C 	0.66410 0.66410 0.89500 -0.27000
H 	H 	0.68470 0.68470 0.90550 0.13700
C 	C 	0.65711 0.65711 0.85010 0.26500
C 	C 	0.62524 0.62524 0.83520 -0.20700
H 	H 	0.62010 0.62010 0.80510 0.13900
C 	C 	0.71207 0.71207 0.83140 -0.00700
C 	C 	0.73111 0.73111 0.78973 0.01600
O 	O 	0.56390 0.56390 0.81089 -0.24600
O 	O 	0.54748 0.54748 0.88002 -0.40400
O 	O 	0.67918 0.67918 0.81775 -0.23300
C 	C 	0.93207 0.93207 0.35180 0.30700
C 	C 	0.89809 0.89809 0.36860 0.09400
C 	C 	0.89010 0.89010 0.41080 -0.23700
H 	H 	0.90620 0.90620 0.43190 0.12700
C 	C 	0.86260 0.86260 0.42420 0.20000
H 	H 	0.85900 0.85900 0.45480 -0.03300
C 	C 	0.83590 0.83590 0.39500 -0.27900
H 	H 	0.81530 0.81530 0.40550 0.13800
C 	C 	0.84289 0.84289 0.35010 0.27100
C 	C 	0.87476 0.87476 0.33520 -0.21300
H 	H 	0.87990 0.87990 0.30510 0.14500
C 	C 	0.78793 0.78793 0.33140 -0.00500
C 	C 	0.76889 0.76889 0.28973 0.01400
O 	O 	0.93610 0.93610 0.31089 -0.23200
O 	O 	0.95252 0.95252 0.38002 -0.38600
O 	O 	0.82082 0.82082 0.31775 -0.23400
C 	C 	0.43207 0.43207 0.85180 0.31300
C 	C 	0.39809 0.39809 0.86860 0.08200
C 	C 	0.39010 0.39010 0.91080 -0.22300
H 	H 	0.40620 0.40620 0.93190 0.12200
C 	C 	0.36260 0.36260 0.92420 0.18700
H 	H 	0.35900 0.35900 0.95480 -0.02500
C 	C 	0.33590 0.33590 0.89500 -0.27000
H 	H 	0.31530 0.31530 0.90550 0.13600
C 	C 	0.34289 0.34289 0.85010 0.26400
C 	C 	0.37476 0.37476 0.83520 -0.20700
H 	H 	0.37990 0.37990 0.80510 0.13900
C 	C 	0.28793 0.28793 0.83140 -0.00600
C 	C 	0.26889 0.26889 0.78973 0.01400
O 	O 	0.43610 0.43610 0.81089 -0.24600
O 	O 	0.45252 0.45252 0.88002 -0.40400
O 	O 	0.32082 0.32082 0.81775 -0.23300
C 	C 	0.93207 0.06793 0.64820 0.31100
C 	C 	0.89809 0.10191 0.63140 0.08300
C 	C 	0.89010 0.10990 0.58920 -0.22600
H 	H 	0.90620 0.09380 0.56810 0.11900
C 	C 	0.86260 0.13740 0.57580 0.18800
H 	H 	0.85900 0.14100 0.54520 -0.03200
C 	C 	0.83590 0.16410 0.60500 -0.27300
H 	H 	0.81530 0.18470 0.59450 0.13500
C 	C 	0.84289 0.15711 0.64990 0.26500
C 	C 	0.87476 0.12524 0.66480 -0.20900
H 	H 	0.87990 0.12010 0.69490 0.14000
C 	C 	0.78793 0.21207 0.66860 -0.00500
C 	C 	0.76889 0.23111 0.71027 0.01400
O 	O 	0.93610 0.06390 0.68911 -0.24400
O 	O 	0.95252 0.04748 0.61998 -0.40200
O 	O 	0.82082 0.17918 0.68225 -0.23400
C 	C 	0.43207 0.56793 0.14820 0.31400
C 	C 	0.39809 0.60191 0.13140 0.07900
C 	C 	0.39010 0.60990 0.08920 -0.22400
H 	H 	0.40620 0.59380 0.06810 0.11400
C 	C 	0.36260 0.63740 0.07580 0.18400
H 	H 	0.35900 0.64100 0.04520 -0.03700
C 	C 	0.33590 0.66410 0.10500 -0.27300
H 	H 	0.31530 0.68470 0.09450 0.13200
C 	C 	0.34289 0.65711 0.14990 0.26300
C 	C 	0.37476 0.62524 0.16480 -0.20700
H 	H 	0.37990 0.62010 0.19490 0.13900
C 	C 	0.28793 0.71207 0.16860 -0.00300
C 	C 	0.26889 0.73111 0.21027 0.01300
O 	O 	0.43610 0.56390 0.18911 -0.24700
O 	O 	0.45252 0.54748 0.11998 -0.40900
O 	O 	0.32082 0.67918 0.18225 -0.23400
C 	C 	0.06793 0.93207 0.64820 0.31100
C 	C 	0.10191 0.89809 0.63140 0.08300
C 	C 	0.10990 0.89010 0.58920 -0.22600
H 	H 	0.09380 0.90620 0.56810 0.11900
C 	C 	0.13740 0.86260 0.57580 0.18800
H 	H 	0.14100 0.85900 0.54520 -0.03200
C 	C 	0.16410 0.83590 0.60500 -0.27300
H 	H 	0.18470 0.81530 0.59450 0.13500
C 	C 	0.15711 0.84289 0.64990 0.26500
C 	C 	0.12524 0.87476 0.66480 -0.20900
H 	H 	0.12010 0.87990 0.69490 0.14000
C 	C 	0.21207 0.78793 0.66860 -0.00500
C 	C 	0.23111 0.76889 0.71027 0.01400
O 	O 	0.06390 0.93610 0.68911 -0.24400
O 	O 	0.04748 0.95252 0.61998 -0.40200
O 	O 	0.17918 0.82082 0.68225 -0.23400
C 	C 	0.56793 0.43207 0.14820 0.31400
C 	C 	0.60191 0.39809 0.13140 0.07900
C 	C 	0.60990 0.39010 0.08920 -0.22400
H 	H 	0.59380 0.40620 0.06810 0.11400
C 	C 	0.63740 0.36260 0.07580 0.18400
H 	H 	0.64100 0.35900 0.04520 -0.03700
C 	C 	0.66410 0.33590 0.10500 -0.27300
H 	H 	0.68470 0.31530 0.09450 0.13200
C 	C 	0.65711 0.34289 0.14990 0.26300
C 	C 	0.62524 0.37476 0.16480 -0.20700
H 	H 	0.62010 0.37990 0.19490 0.13900
C 	C 	0.71207 0.28793 0.16860 -0.00300
C 	C 	0.73111 0.26889 0.21027 0.01300
O 	O 	0.56390 0.43610 0.18911 -0.24700
O 	O 	0.54748 0.45252 0.11998 -0.40900
O 	O 	0.67918 0.32082 0.18225 -0.23400
C 	C 	0.35180 0.06793 0.06793 0.31700
C 	C 	0.36860 0.10191 0.10191 0.06900
C 	C 	0.41080 0.10990 0.10990 -0.21300
H 	H 	0.43190 0.09380 0.09380 0.11000
C 	C 	0.42420 0.13740 0.13740 0.17300
H 	H 	0.45480 0.14100 0.14100 -0.02900
C 	C 	0.39500 0.16410 0.16410 -0.26600
H 	H 	0.40550 0.18470 0.18470 0.13100
C 	C 	0.35010 0.15711 0.15711 0.25800
C 	C 	0.33520 0.12524 0.12524 -0.20200
H 	H 	0.30510 0.12010 0.12010 0.13300
C 	C 	0.33140 0.21207 0.21207 -0.00500
C 	C 	0.28973 0.23111 0.23111 0.01400
O 	O 	0.31089 0.06390 0.06390 -0.26000
O 	O 	0.38002 0.04748 0.04748 -0.42000
O 	O 	0.31775 0.17918 0.17918 -0.23500
C 	C 	0.85180 0.56793 0.56793 0.31300
C 	C 	0.86860 0.60191 0.60191 0.08300
C 	C 	0.91080 0.60990 0.60990 -0.22400
H 	H 	0.93190 0.59380 0.59380 0.12200
C 	C 	0.92420 0.63740 0.63740 0.18700
H 	H 	0.95480 0.64100 0.64100 -0.02500
C 	C 	0.89500 0.66410 0.66410 -0.27000
H 	H 	0.90550 0.68470 0.68470 0.13700
C 	C 	0.85010 0.65711 0.65711 0.26500
C 	C 	0.83520 0.62524 0.62524 -0.20700
H 	H 	0.80510 0.62010 0.62010 0.13900
C 	C 	0.83140 0.71207 0.71207 -0.00700
C 	C 	0.78973 0.73111 0.73111 0.01600
O 	O 	0.81089 0.56390 0.56390 -0.24600
O 	O 	0.88002 0.54748 0.54748 -0.40400
O 	O 	0.81775 0.67918 0.67918 -0.23300
C 	C 	0.35180 0.93207 0.93207 0.30700
C 	C 	0.36860 0.89809 0.89809 0.09400
C 	C 	0.41080 0.89010 0.89010 -0.23700
H 	H 	0.43190 0.90620 0.90620 0.12700
C 	C 	0.42420 0.86260 0.86260 0.20000
H 	H 	0.45480 0.85900 0.85900 -0.03300
C 	C 	0.39500 0.83590 0.83590 -0.27900
H 	H 	0.40550 0.81530 0.81530 0.13800
C 	C 	0.35010 0.84289 0.84289 0.27100
C 	C 	0.33520 0.87476 0.87476 -0.21300
H 	H 	0.30510 0.87990 0.87990 0.14500
C 	C 	0.33140 0.78793 0.78793 -0.00500
C 	C 	0.28973 0.76889 0.76889 0.01400
O 	O 	0.31089 0.93610 0.93610 -0.23200
O 	O 	0.38002 0.95252 0.95252 -0.38600
O 	O 	0.31775 0.82082 0.82082 -0.23400
C 	C 	0.85180 0.43207 0.43207 0.31300
C 	C 	0.86860 0.39809 0.39809 0.08200
C 	C 	0.91080 0.39010 0.39010 -0.22300
H 	H 	0.93190 0.40620 0.40620 0.12200
C 	C 	0.92420 0.36260 0.36260 0.18700
H 	H 	0.95480 0.35900 0.35900 -0.02500
C 	C 	0.89500 0.33590 0.33590 -0.27000
H 	H 	0.90550 0.31530 0.31530 0.13600
C 	C 	0.85010 0.34289 0.34289 0.26400
C 	C 	0.83520 0.37476 0.37476 -0.20700
H 	H 	0.80510 0.37990 0.37990 0.13900
C 	C 	0.83140 0.28793 0.28793 -0.00600
C 	C 	0.78973 0.26889 0.26889 0.01400
O 	O 	0.81089 0.43610 0.43610 -0.24600
O 	O 	0.88002 0.45252 0.45252 -0.40400
O 	O 	0.81775 0.32082 0.32082 -0.23300
C 	C 	0.64820 0.93207 0.06793 0.31100
C 	C 	0.63140 0.89809 0.10191 0.08300
C 	C 	0.58920 0.89010 0.10990 -0.22600
H 	H 	0.56810 0.90620 0.09380 0.11900
C 	C 	0.57580 0.86260 0.13740 0.18800
H 	H 	0.54520 0.85900 0.14100 -0.03200
C 	C 	0.60500 0.83590 0.16410 -0.27300
H 	H 	0.59450 0.81530 0.18470 0.13500
C 	C 	0.64990 0.84289 0.15711 0.26500
C 	C 	0.66480 0.87476 0.12524 -0.20900
H 	H 	0.69490 0.87990 0.12010 0.14000
C 	C 	0.66860 0.78793 0.21207 -0.00500
C 	C 	0.71027 0.76889 0.23111 0.01400
O 	O 	0.68911 0.93610 0.06390 -0.24400
O 	O 	0.61998 0.95252 0.04748 -0.40200
O 	O 	0.68225 0.82082 0.17918 -0.23400
C 	C 	0.14820 0.43207 0.56793 0.31400
C 	C 	0.13140 0.39809 0.60191 0.07900
C 	C 	0.08920 0.39010 0.60990 -0.22400
H 	H 	0.06810 0.40620 0.59380 0.11400
C 	C 	0.07580 0.36260 0.63740 0.18400
H 	H 	0.04520 0.35900 0.64100 -0.03700
C 	C 	0.10500 0.33590 0.66410 -0.27300
H 	H 	0.09450 0.31530 0.68470 0.13200
C 	C 	0.14990 0.34289 0.65711 0.26300
C 	C 	0.16480 0.37476 0.62524 -0.20700
H 	H 	0.19490 0.37990 0.62010 0.13900
C 	C 	0.16860 0.28793 0.71207 -0.00300
C 	C 	0.21027 0.26889 0.73111 0.01300
O 	O 	0.18911 0.43610 0.56390 -0.24700
O 	O 	0.11998 0.45252 0.54748 -0.40900
O 	O 	0.18225 0.32082 0.67918 -0.23400
C 	C 	0.64820 0.06793 0.93207 0.31100
C 	C 	0.63140 0.10191 0.89809 0.08300
C 	C 	0.58920 0.10990 0.89010 -0.22600
H 	H 	0.56810 0.09380 0.90620 0.11900
C 	C 	0.57580 0.13740 0.86260 0.18800
H 	H 	0.54520 0.14100 0.85900 -0.03200
C 	C 	0.60500 0.16410 0.83590 -0.27300
H 	H 	0.59450 0.18470 0.81530 0.13500
C 	C 	0.64990 0.15711 0.84289 0.26500
C 	C 	0.66480 0.12524 0.87476 -0.20900
H 	H 	0.69490 0.12010 0.87990 0.14000
C 	C 	0.66860 0.21207 0.78793 -0.00500
C 	C 	0.71027 0.23111 0.76889 0.01400
O 	O 	0.68911 0.06390 0.93610 -0.24400
O 	O 	0.61998 0.04748 0.95252 -0.40200
O 	O 	0.68225 0.17918 0.82082 -0.23400
C 	C 	0.14820 0.56793 0.43207 0.31400
C 	C 	0.13140 0.60191 0.39809 0.07900
C 	C 	0.08920 0.60990 0.39010 -0.22400
H 	H 	0.06810 0.59380 0.40620 0.11400
C 	C 	0.07580 0.63740 0.36260 0.18400
H 	H 	0.04520 0.64100 0.35900 -0.03700
C 	C 	0.10500 0.66410 0.33590 -0.27300
H 	H 	0.09450 0.68470 0.31530 0.13200
C 	C 	0.14990 0.65711 0.34289 0.26300
C 	C 	0.16480 0.62524 0.37476 -0.20700
H 	H 	0.19490 0.62010 0.37990 0.13900
C 	C 	0.16860 0.71207 0.28793 -0.00300
C 	C 	0.21027 0.73111 0.26889 0.01300
O 	O 	0.18911 0.56390 0.43610 -0.24700
O 	O 	0.11998 0.54748 0.45252 -0.40900
O 	O 	0.18225 0.67918 0.32082 -0.23400
C 	C 	0.06793 0.35180 0.06793 0.31700
C 	C 	0.10191 0.36860 0.10191 0.06900
C 	C 	0.10990 0.41080 0.10990 -0.21300
H 	H 	0.09380 0.43190 0.09380 0.11000
C 	C 	0.13740 0.42420 0.13740 0.17300
H 	H 	0.14100 0.45480 0.14100 -0.02900
C 	C 	0.16410 0.39500 0.16410 -0.26600
H 	H 	0.18470 0.40550 0.18470 0.13100
C 	C 	0.15711 0.35010 0.15711 0.25800
C 	C 	0.12524 0.33520 0.12524 -0.20200
H 	H 	0.12010 0.30510 0.12010 0.13300
C 	C 	0.21207 0.33140 0.21207 -0.00500
C 	C 	0.23111 0.28973 0.23111 0.01400
O 	O 	0.06390 0.31089 0.06390 -0.26000
O 	O 	0.04748 0.38002 0.04748 -0.42000
O 	O 	0.17918 0.31775 0.17918 -0.23500
C 	C 	0.56793 0.85180 0.56793 0.31300
C 	C 	0.60191 0.86860 0.60191 0.08300
C 	C 	0.60990 0.91080 0.60990 -0.22400
H 	H 	0.59380 0.93190 0.59380 0.12200
C 	C 	0.63740 0.92420 0.63740 0.18700
H 	H 	0.64100 0.95480 0.64100 -0.02500
C 	C 	0.66410 0.89500 0.66410 -0.27000
H 	H 	0.68470 0.90550 0.68470 0.13700
C 	C 	0.65711 0.85010 0.65711 0.26500
C 	C 	0.62524 0.83520 0.62524 -0.20700
H 	H 	0.62010 0.80510 0.62010 0.13900
C 	C 	0.71207 0.83140 0.71207 -0.00700
C 	C 	0.73111 0.78973 0.73111 0.01600
O 	O 	0.56390 0.81089 0.56390 -0.24600
O 	O 	0.54748 0.88002 0.54748 -0.40400
O 	O 	0.67918 0.81775 0.67918 -0.23300
C 	C 	0.93207 0.35180 0.93207 0.30700
C 	C 	0.89809 0.36860 0.89809 0.09400
C 	C 	0.89010 0.41080 0.89010 -0.23700
H 	H 	0.90620 0.43190 0.90620 0.12700
C 	C 	0.86260 0.42420 0.86260 0.20000
H 	H 	0.85900 0.45480 0.85900 -0.03300
C 	C 	0.83590 0.39500 0.83590 -0.27900
H 	H 	0.81530 0.40550 0.81530 0.13800
C 	C 	0.84289 0.35010 0.84289 0.27100
C 	C 	0.87476 0.33520 0.87476 -0.21300
H 	H 	0.87990 0.30510 0.87990 0.14500
C 	C 	0.78793 0.33140 0.78793 -0.00500
C 	C 	0.76889 0.28973 0.76889 0.01400
O 	O 	0.93610 0.31089 0.93610 -0.23200
O 	O 	0.95252 0.38002 0.95252 -0.38600
O 	O 	0.82082 0.31775 0.82082 -0.23400
C 	C 	0.43207 0.85180 0.43207 0.31300
C 	C 	0.39809 0.86860 0.39809 0.08200
C 	C 	0.39010 0.91080 0.39010 -0.22300
H 	H 	0.40620 0.93190 0.40620 0.12200
C 	C 	0.36260 0.92420 0.36260 0.18700
H 	H 	0.35900 0.95480 0.35900 -0.02500
C 	C 	0.33590 0.89500 0.33590 -0.27000
H 	H 	0.31530 0.90550 0.31530 0.13600
C 	C 	0.34289 0.85010 0.34289 0.26400
C 	C 	0.37476 0.83520 0.37476 -0.20700
H 	H 	0.37990 0.80510 0.37990 0.13900
C 	C 	0.28793 0.83140 0.28793 -0.00600
C 	C 	0.26889 0.78973 0.26889 0.01400
O 	O 	0.43610 0.81089 0.43610 -0.24600
O 	O 	0.45252 0.88002 0.45252 -0.40400
O 	O 	0.32082 0.81775 0.32082 -0.23300
C 	C 	0.06793 0.64820 0.93207 0.31100
C 	C 	0.10191 0.63140 0.89809 0.08300
C 	C 	0.10990 0.58920 0.89010 -0.22600
H 	H 	0.09380 0.56810 0.90620 0.11900
C 	C 	0.13740 0.57580 0.86260 0.18800
H 	H 	0.14100 0.54520 0.85900 -0.03200
C 	C 	0.16410 0.60500 0.83590 -0.27300
H 	H 	0.18470 0.59450 0.81530 0.13500
C 	C 	0.15711 0.64990 0.84289 0.26500
C 	C 	0.12524 0.66480 0.87476 -0.20900
H 	H 	0.12010 0.69490 0.87990 0.14000
C 	C 	0.21207 0.66860 0.78793 -0.00500
C 	C 	0.23111 0.71027 0.76889 0.01400
O 	O 	0.06390 0.68911 0.93610 -0.24400
O 	O 	0.04748 0.61998 0.95252 -0.40200
O 	O 	0.17918 0.68225 0.82082 -0.23400
C 	C 	0.56793 0.14820 0.43207 0.31400
C 	C 	0.60191 0.13140 0.39809 0.07900
C 	C 	0.60990 0.08920 0.39010 -0.22400
H 	H 	0.59380 0.06810 0.40620 0.11400
C 	C 	0.63740 0.07580 0.36260 0.18400
H 	H 	0.64100 0.04520 0.35900 -0.03700
C 	C 	0.66410 0.10500 0.33590 -0.27300
H 	H 	0.68470 0.09450 0.31530 0.13200
C 	C 	0.65711 0.14990 0.34289 0.26300
C 	C 	0.62524 0.16480 0.37476 -0.20700
H 	H 	0.62010 0.19490 0.37990 0.13900
C 	C 	0.71207 0.16860 0.28793 -0.00300
C 	C 	0.73111 0.21027 0.26889 0.01300
O 	O 	0.56390 0.18911 0.43610 -0.24700
O 	O 	0.54748 0.11998 0.45252 -0.40900
O 	O 	0.67918 0.18225 0.32082 -0.23400
C 	C 	0.93207 0.64820 0.06793 0.31100
C 	C 	0.89809 0.63140 0.10191 0.08300
C 	C 	0.89010 0.58920 0.10990 -0.22600
H 	H 	0.90620 0.56810 0.09380 0.11900
C 	C 	0.86260 0.57580 0.13740 0.18800
H 	H 	0.85900 0.54520 0.14100 -0.03200
C 	C 	0.83590 0.60500 0.16410 -0.27300
H 	H 	0.81530 0.59450 0.18470 0.13500
C 	C 	0.84289 0.64990 0.15711 0.26500
C 	C 	0.87476 0.66480 0.12524 -0.20900
H 	H 	0.87990 0.69490 0.12010 0.14000
C 	C 	0.78793 0.66860 0.21207 -0.00500
C 	C 	0.76889 0.71027 0.23111 0.01400
O 	O 	0.93610 0.68911 0.06390 -0.24400
O 	O 	0.95252 0.61998 0.04748 -0.40200
O 	O 	0.82082 0.68225 0.17918 -0.23400
C 	C 	0.43207 0.14820 0.56793 0.31400
C 	C 	0.39809 0.13140 0.60191 0.07900
C 	C 	0.39010 0.08920 0.60990 -0.22400
H 	H 	0.40620 0.06810 0.59380 0.11400
C 	C 	0.36260 0.07580 0.63740 0.18400
H 	H 	0.35900 0.04520 0.64100 -0.03700
C 	C 	0.33590 0.10500 0.66410 -0.27300
H 	H 	0.31530 0.09450 0.68470 0.13200
C 	C 	0.34289 0.14990 0.65711 0.26300
C 	C 	0.37476 0.16480 0.62524 -0.20700
H 	H 	0.37990 0.19490 0.62010 0.13900
C 	C 	0.28793 0.16860 0.71207 -0.00300
C 	C 	0.26889 0.21027 0.73111 0.01300
O 	O 	0.43610 0.18911 0.56390 -0.24700
O 	O 	0.45252 0.11998 0.54748 -0.40900
O 	O 	0.32082 0.18225 0.67918 -0.23400
C 	C 	0.06793 0.06793 0.64820 0.31600
C 	C 	0.10191 0.10191 0.63140 0.07000
C 	C 	0.10990 0.10990 0.58920 -0.21400
H 	H 	0.09380 0.09380 0.56810 0.11000
C 	C 	0.13740 0.13740 0.57580 0.17500
H 	H 	0.14100 0.14100 0.54520 -0.03000
C 	C 	0.16410 0.16410 0.60500 -0.26700
H 	H 	0.18470 0.18470 0.59450 0.13100
C 	C 	0.15711 0.15711 0.64990 0.25900
C 	C 	0.12524 0.12524 0.66480 -0.20300
H 	H 	0.12010 0.12010 0.69490 0.13500
C 	C 	0.21207 0.21207 0.66860 -0.00500
C 	C 	0.23111 0.23111 0.71027 0.01400
O 	O 	0.06390 0.06390 0.68911 -0.25800
O 	O 	0.04748 0.04748 0.61998 -0.41900
O 	O 	0.17918 0.17918 0.68225 -0.23400
C 	C 	0.56793 0.56793 0.14820 0.31400
C 	C 	0.60191 0.60191 0.13140 0.07900
C 	C 	0.60990 0.60990 0.08920 -0.22400
H 	H 	0.59380 0.59380 0.06810 0.11400
C 	C 	0.63740 0.63740 0.07580 0.18500
H 	H 	0.64100 0.64100 0.04520 -0.03700
C 	C 	0.66410 0.66410 0.10500 -0.27300
H 	H 	0.68470 0.68470 0.09450 0.13200
C 	C 	0.65711 0.65711 0.14990 0.26400
C 	C 	0.62524 0.62524 0.16480 -0.20700
H 	H 	0.62010 0.62010 0.19490 0.13900
C 	C 	0.71207 0.71207 0.16860 -0.00400
C 	C 	0.73111 0.73111 0.21027 0.01400
O 	O 	0.56390 0.56390 0.18911 -0.24700
O 	O 	0.54748 0.54748 0.11998 -0.40900
O 	O 	0.67918 0.67918 0.18225 -0.23400
C 	C 	0.93207 0.93207 0.64820 0.30700
C 	C 	0.89809 0.89809 0.63140 0.09600
C 	C 	0.89010 0.89010 0.58920 -0.23800
H 	H 	0.90620 0.90620 0.56810 0.12800
C 	C 	0.86260 0.86260 0.57580 0.20100
H 	H 	0.85900 0.85900 0.54520 -0.03400
C 	C 	0.83590 0.83590 0.60500 -0.27900
H 	H 	0.81530 0.81530 0.59450 0.13800
C 	C 	0.84289 0.84289 0.64990 0.27100
C 	C 	0.87476 0.87476 0.66480 -0.21400
H 	H 	0.87990 0.87990 0.69490 0.14600
C 	C 	0.78793 0.78793 0.66860 -0.00400
C 	C 	0.76889 0.76889 0.71027 0.01400
O 	O 	0.93610 0.93610 0.68911 -0.23000
O 	O 	0.95252 0.95252 0.61998 -0.38600
O 	O 	0.82082 0.82082 0.68225 -0.23300
C 	C 	0.43207 0.43207 0.14820 0.31400
C 	C 	0.39809 0.39809 0.13140 0.07900
C 	C 	0.39010 0.39010 0.08920 -0.22400
H 	H 	0.40620 0.40620 0.06810 0.11400
C 	C 	0.36260 0.36260 0.07580 0.18400
H 	H 	0.35900 0.35900 0.04520 -0.03700
C 	C 	0.33590 0.33590 0.10500 -0.27300
H 	H 	0.31530 0.31530 0.09450 0.13200
C 	C 	0.34289 0.34289 0.14990 0.26300
C 	C 	0.37476 0.37476 0.16480 -0.20700
H 	H 	0.37990 0.37990 0.19490 0.13900
C 	C 	0.28793 0.28793 0.16860 -0.00300
C 	C 	0.26889 0.26889 0.21027 0.01200
O 	O 	0.43610 0.43610 0.18911 -0.24700
O 	O 	0.45252 0.45252 0.11998 -0.40900
O 	O 	0.32082 0.32082 0.18225 -0.23400
C 	C 	0.06793 0.93207 0.35180 0.31200
C 	C 	0.10191 0.89809 0.36860 0.08200
C 	C 	0.10990 0.89010 0.41080 -0.22500
H 	H 	0.09380 0.90620 0.43190 0.11900
C 	C 	0.13740 0.86260 0.42420 0.18700
H 	H 	0.14100 0.85900 0.45480 -0.03100
C 	C 	0.16410 0.83590 0.39500 -0.27200
H 	H 	0.18470 0.81530 0.40550 0.13400
C 	C 	0.15711 0.84289 0.35010 0.26400
C 	C 	0.12524 0.87476 0.33520 -0.20800
H 	H 	0.12010 0.87990 0.30510 0.13900
C 	C 	0.21207 0.78793 0.33140 -0.00500
C 	C 	0.23111 0.76889 0.28973 0.01400
O 	O 	0.06390 0.93610 0.31089 -0.24600
O 	O 	0.04748 0.95252 0.38002 -0.40200
O 	O 	0.17918 0.82082 0.31775 -0.23400
C 	C 	0.56793 0.43207 0.85180 0.31300
C 	C 	0.60191 0.39809 0.86860 0.08300
C 	C 	0.60990 0.39010 0.91080 -0.22300
H 	H 	0.59380 0.40620 0.93190 0.12200
C 	C 	0.63740 0.36260 0.92420 0.18700
H 	H 	0.64100 0.35900 0.95480 -0.02500
C 	C 	0.66410 0.33590 0.89500 -0.27000
H 	H 	0.68470 0.31530 0.90550 0.13700
C 	C 	0.65711 0.34289 0.85010 0.26500
C 	C 	0.62524 0.37476 0.83520 -0.20700
H 	H 	0.62010 0.37990 0.80510 0.13900
C 	C 	0.71207 0.28793 0.83140 -0.00700
C 	C 	0.73111 0.26889 0.78973 0.01500
O 	O 	0.56390 0.43610 0.81089 -0.24600
O 	O 	0.54748 0.45252 0.88002 -0.40400
O 	O 	0.67918 0.32082 0.81775 -0.23300
C 	C 	0.93207 0.06793 0.35180 0.31200
C 	C 	0.89809 0.10191 0.36860 0.08200
C 	C 	0.89010 0.10990 0.41080 -0.22500
H 	H 	0.90620 0.09380 0.43190 0.11900
C 	C 	0.86260 0.13740 0.42420 0.18700
H 	H 	0.85900 0.14100 0.45480 -0.03100
C 	C 	0.83590 0.16410 0.39500 -0.27200
H 	H 	0.81530 0.18470 0.40550 0.13400
C 	C 	0.84289 0.15711 0.35010 0.26400
C 	C 	0.87476 0.12524 0.33520 -0.20800
H 	H 	0.87990 0.12010 0.30510 0.13900
C 	C 	0.78793 0.21207 0.33140 -0.00500
C 	C 	0.76889 0.23111 0.28973 0.01400
O 	O 	0.93610 0.06390 0.31089 -0.24600
O 	O 	0.95252 0.04748 0.38002 -0.40200
O 	O 	0.82082 0.17918 0.31775 -0.23400
C 	C 	0.43207 0.56793 0.85180 0.31300
C 	C 	0.39809 0.60191 0.86860 0.08300
C 	C 	0.39010 0.60990 0.91080 -0.22300
H 	H 	0.40620 0.59380 0.93190 0.12200
C 	C 	0.36260 0.63740 0.92420 0.18700
H 	H 	0.35900 0.64100 0.95480 -0.02500
C 	C 	0.33590 0.66410 0.89500 -0.27000
H 	H 	0.31530 0.68470 0.90550 0.13700
C 	C 	0.34289 0.65711 0.85010 0.26500
C 	C 	0.37476 0.62524 0.83520 -0.20700
H 	H 	0.37990 0.62010 0.80510 0.13900
C 	C 	0.28793 0.71207 0.83140 -0.00700
C 	C 	0.26889 0.73111 0.78973 0.01500
O 	O 	0.43610 0.56390 0.81089 -0.24600
O 	O 	0.45252 0.54748 0.88002 -0.40400
O 	O 	0.32082 0.67918 0.81775 -0.23300
C 	C 	0.06793 0.35180 0.93207 0.31200
C 	C 	0.10191 0.36860 0.89809 0.08200
C 	C 	0.10990 0.41080 0.89010 -0.22500
H 	H 	0.09380 0.43190 0.90620 0.11900
C 	C 	0.13740 0.42420 0.86260 0.18700
H 	H 	0.14100 0.45480 0.85900 -0.03100
C 	C 	0.16410 0.39500 0.83590 -0.27200
H 	H 	0.18470 0.40550 0.81530 0.13400
C 	C 	0.15711 0.35010 0.84289 0.26400
C 	C 	0.12524 0.33520 0.87476 -0.20800
H 	H 	0.12010 0.30510 0.87990 0.13900
C 	C 	0.21207 0.33140 0.78793 -0.00500
C 	C 	0.23111 0.28973 0.76889 0.01400
O 	O 	0.06390 0.31089 0.93610 -0.24600
O 	O 	0.04748 0.38002 0.95252 -0.40200
O 	O 	0.17918 0.31775 0.82082 -0.23400
C 	C 	0.56793 0.85180 0.43207 0.31300
C 	C 	0.60191 0.86860 0.39809 0.08300
C 	C 	0.60990 0.91080 0.39010 -0.22300
H 	H 	0.59380 0.93190 0.40620 0.12200
C 	C 	0.63740 0.92420 0.36260 0.18700
H 	H 	0.64100 0.95480 0.35900 -0.02500
C 	C 	0.66410 0.89500 0.33590 -0.27000
H 	H 	0.68470 0.90550 0.31530 0.13700
C 	C 	0.65711 0.85010 0.34289 0.26500
C 	C 	0.62524 0.83520 0.37476 -0.20700
H 	H 	0.62010 0.80510 0.37990 0.13900
C 	C 	0.71207 0.83140 0.28793 -0.00700
C 	C 	0.73111 0.78973 0.26889 0.01500
O 	O 	0.56390 0.81089 0.43610 -0.24600
O 	O 	0.54748 0.88002 0.45252 -0.40400
O 	O 	0.67918 0.81775 0.32082 -0.23300
C 	C 	0.93207 0.35180 0.06793 0.31200
C 	C 	0.89809 0.36860 0.10191 0.08200
C 	C 	0.89010 0.41080 0.10990 -0.22500
H 	H 	0.90620 0.43190 0.09380 0.11900
C 	C 	0.86260 0.42420 0.13740 0.18700
H 	H 	0.85900 0.45480 0.14100 -0.03100
C 	C 	0.83590 0.39500 0.16410 -0.27200
H 	H 	0.81530 0.40550 0.18470 0.13400
C 	C 	0.84289 0.35010 0.15711 0.26400
C 	C 	0.87476 0.33520 0.12524 -0.20800
H 	H 	0.87990 0.30510 0.12010 0.13900
C 	C 	0.78793 0.33140 0.21207 -0.00500
C 	C 	0.76889 0.28973 0.23111 0.01400
O 	O 	0.93610 0.31089 0.06390 -0.24600
O 	O 	0.95252 0.38002 0.04748 -0.40200
O 	O 	0.82082 0.31775 0.17918 -0.23400
C 	C 	0.43207 0.85180 0.56793 0.31300
C 	C 	0.39809 0.86860 0.60191 0.08300
C 	C 	0.39010 0.91080 0.60990 -0.22300
H 	H 	0.40620 0.93190 0.59380 0.12200
C 	C 	0.36260 0.92420 0.63740 0.18700
H 	H 	0.35900 0.95480 0.64100 -0.02500
C 	C 	0.33590 0.89500 0.66410 -0.27000
H 	H 	0.31530 0.90550 0.68470 0.13700
C 	C 	0.34289 0.85010 0.65711 0.26500
C 	C 	0.37476 0.83520 0.62524 -0.20700
H 	H 	0.37990 0.80510 0.62010 0.13900
C 	C 	0.28793 0.83140 0.71207 -0.00700
C 	C 	0.26889 0.78973 0.73111 0.01500
O 	O 	0.43610 0.81089 0.56390 -0.24600
O 	O 	0.45252 0.88002 0.54748 -0.40400
O 	O 	0.32082 0.81775 0.67918 -0.23300
C 	C 	0.93207 0.64820 0.93207 0.30700
C 	C 	0.89809 0.63140 0.89809 0.09600
C 	C 	0.89010 0.58920 0.89010 -0.23800
H 	H 	0.90620 0.56810 0.90620 0.12800
C 	C 	0.86260 0.57580 0.86260 0.20100
H 	H 	0.85900 0.54520 0.85900 -0.03400
C 	C 	0.83590 0.60500 0.83590 -0.27900
H 	H 	0.81530 0.59450 0.81530 0.13800
C 	C 	0.84289 0.64990 0.84289 0.27100
C 	C 	0.87476 0.66480 0.87476 -0.21400
H 	H 	0.87990 0.69490 0.87990 0.14600
C 	C 	0.78793 0.66860 0.78793 -0.00400
C 	C 	0.76889 0.71027 0.76889 0.01400
O 	O 	0.93610 0.68911 0.93610 -0.23000
O 	O 	0.95252 0.61998 0.95252 -0.38600
O 	O 	0.82082 0.68225 0.82082 -0.23300
C 	C 	0.43207 0.14820 0.43207 0.31400
C 	C 	0.39809 0.13140 0.39809 0.07900
C 	C 	0.39010 0.08920 0.39010 -0.22400
H 	H 	0.40620 0.06810 0.40620 0.11400
C 	C 	0.36260 0.07580 0.36260 0.18400
H 	H 	0.35900 0.04520 0.35900 -0.03700
C 	C 	0.33590 0.10500 0.33590 -0.27300
H 	H 	0.31530 0.09450 0.31530 0.13200
C 	C 	0.34289 0.14990 0.34289 0.26300
C 	C 	0.37476 0.16480 0.37476 -0.20700
H 	H 	0.37990 0.19490 0.37990 0.13900
C 	C 	0.28793 0.16860 0.28793 -0.00300
C 	C 	0.26889 0.21027 0.26889 0.01200
O 	O 	0.43610 0.18911 0.43610 -0.24700
O 	O 	0.45252 0.11998 0.45252 -0.40900
O 	O 	0.32082 0.18225 0.32082 -0.23400
C 	C 	0.06793 0.64820 0.06793 0.31600
C 	C 	0.10191 0.63140 0.10191 0.07000
C 	C 	0.10990 0.58920 0.10990 -0.21400
H 	H 	0.09380 0.56810 0.09380 0.11000
C 	C 	0.13740 0.57580 0.13740 0.17500
H 	H 	0.14100 0.54520 0.14100 -0.03000
C 	C 	0.16410 0.60500 0.16410 -0.26700
H 	H 	0.18470 0.59450 0.18470 0.13100
C 	C 	0.15711 0.64990 0.15711 0.25900
C 	C 	0.12524 0.66480 0.12524 -0.20300
H 	H 	0.12010 0.69490 0.12010 0.13500
C 	C 	0.21207 0.66860 0.21207 -0.00500
C 	C 	0.23111 0.71027 0.23111 0.01400
O 	O 	0.06390 0.68911 0.06390 -0.25800
O 	O 	0.04748 0.61998 0.04748 -0.41900
O 	O 	0.17918 0.68225 0.17918 -0.23400
C 	C 	0.56793 0.14820 0.56793 0.31400
C 	C 	0.60191 0.13140 0.60191 0.07900
C 	C 	0.60990 0.08920 0.60990 -0.22400
H 	H 	0.59380 0.06810 0.59380 0.11400
C 	C 	0.63740 0.07580 0.63740 0.18500
H 	H 	0.64100 0.04520 0.64100 -0.03700
C 	C 	0.66410 0.10500 0.66410 -0.27300
H 	H 	0.68470 0.09450 0.68470 0.13200
C 	C 	0.65711 0.14990 0.65711 0.26400
C 	C 	0.62524 0.16480 0.62524 -0.20700
H 	H 	0.62010 0.19490 0.62010 0.13900
C 	C 	0.71207 0.16860 0.71207 -0.00400
C 	C 	0.73111 0.21027 0.73111 0.01400
O 	O 	0.56390 0.18911 0.56390 -0.24700
O 	O 	0.54748 0.11998 0.54748 -0.40900
O 	O 	0.67918 0.18225 0.67918 -0.23400
C 	C 	0.35180 0.06793 0.93207 0.31200
C 	C 	0.36860 0.10191 0.89809 0.08200
C 	C 	0.41080 0.10990 0.89010 -0.22500
H 	H 	0.43190 0.09380 0.90620 0.11900
C 	C 	0.42420 0.13740 0.86260 0.18700
H 	H 	0.45480 0.14100 0.85900 -0.03100
C 	C 	0.39500 0.16410 0.83590 -0.27200
H 	H 	0.40550 0.18470 0.81530 0.13400
C 	C 	0.35010 0.15711 0.84289 0.26400
C 	C 	0.33520 0.12524 0.87476 -0.20800
H 	H 	0.30510 0.12010 0.87990 0.13900
C 	C 	0.33140 0.21207 0.78793 -0.00500
C 	C 	0.28973 0.23111 0.76889 0.01400
O 	O 	0.31089 0.06390 0.93610 -0.24600
O 	O 	0.38002 0.04748 0.95252 -0.40200
O 	O 	0.31775 0.17918 0.82082 -0.23400
C 	C 	0.85180 0.56793 0.43207 0.31300
C 	C 	0.86860 0.60191 0.39809 0.08300
C 	C 	0.91080 0.60990 0.39010 -0.22300
H 	H 	0.93190 0.59380 0.40620 0.12200
C 	C 	0.92420 0.63740 0.36260 0.18700
H 	H 	0.95480 0.64100 0.35900 -0.02500
C 	C 	0.89500 0.66410 0.33590 -0.27000
H 	H 	0.90550 0.68470 0.31530 0.13700
C 	C 	0.85010 0.65711 0.34289 0.26500
C 	C 	0.83520 0.62524 0.37476 -0.20700
H 	H 	0.80510 0.62010 0.37990 0.13900
C 	C 	0.83140 0.71207 0.28793 -0.00700
C 	C 	0.78973 0.73111 0.26889 0.01500
O 	O 	0.81089 0.56390 0.43610 -0.24600
O 	O 	0.88002 0.54748 0.45252 -0.40400
O 	O 	0.81775 0.67918 0.32082 -0.23300
C 	C 	0.35180 0.93207 0.06793 0.31200
C 	C 	0.36860 0.89809 0.10191 0.08200
C 	C 	0.41080 0.89010 0.10990 -0.22500
H 	H 	0.43190 0.90620 0.09380 0.11900
C 	C 	0.42420 0.86260 0.13740 0.18700
H 	H 	0.45480 0.85900 0.14100 -0.03100
C 	C 	0.39500 0.83590 0.16410 -0.27200
H 	H 	0.40550 0.81530 0.18470 0.13400
C 	C 	0.35010 0.84289 0.15711 0.26400
C 	C 	0.33520 0.87476 0.12524 -0.20800
H 	H 	0.30510 0.87990 0.12010 0.13900
C 	C 	0.33140 0.78793 0.21207 -0.00500
C 	C 	0.28973 0.76889 0.23111 0.01400
O 	O 	0.31089 0.93610 0.06390 -0.24600
O 	O 	0.38002 0.95252 0.04748 -0.40200
O 	O 	0.31775 0.82082 0.17918 -0.23400
C 	C 	0.85180 0.43207 0.56793 0.31300
C 	C 	0.86860 0.39809 0.60191 0.08300
C 	C 	0.91080 0.39010 0.60990 -0.22300
H 	H 	0.93190 0.40620 0.59380 0.12200
C 	C 	0.92420 0.36260 0.63740 0.18700
H 	H 	0.95480 0.35900 0.64100 -0.02500
C 	C 	0.89500 0.33590 0.66410 -0.27000
H 	H 	0.90550 0.31530 0.68470 0.13700
C 	C 	0.85010 0.34289 0.65711 0.26500
C 	C 	0.83520 0.37476 0.62524 -0.20700
H 	H 	0.80510 0.37990 0.62010 0.13900
C 	C 	0.83140 0.28793 0.71207 -0.00700
C 	C 	0.78973 0.26889 0.73111 0.01500
O 	O 	0.81089 0.43610 0.56390 -0.24600
O 	O 	0.88002 0.45252 0.54748 -0.40400
O 	O 	0.81775 0.32082 0.67918 -0.23300
C 	C 	0.64820 0.06793 0.06793 0.31600
C 	C 	0.63140 0.10191 0.10191 0.07000
C 	C 	0.58920 0.10990 0.10990 -0.21400
H 	H 	0.56810 0.09380 0.09380 0.11000
C 	C 	0.57580 0.13740 0.13740 0.17500
H 	H 	0.54520 0.14100 0.14100 -0.03000
C 	C 	0.60500 0.16410 0.16410 -0.26700
H 	H 	0.59450 0.18470 0.18470 0.13100
C 	C 	0.64990 0.15711 0.15711 0.25900
C 	C 	0.66480 0.12524 0.12524 -0.20300
H 	H 	0.69490 0.12010 0.12010 0.13500
C 	C 	0.66860 0.21207 0.21207 -0.00500
C 	C 	0.71027 0.23111 0.23111 0.01400
O 	O 	0.68911 0.06390 0.06390 -0.25800
O 	O 	0.61998 0.04748 0.04748 -0.41900
O 	O 	0.68225 0.17918 0.17918 -0.23400
C 	C 	0.14820 0.56793 0.56793 0.31400
C 	C 	0.13140 0.60191 0.60191 0.07900
C 	C 	0.08920 0.60990 0.60990 -0.22400
H 	H 	0.06810 0.59380 0.59380 0.11400
C 	C 	0.07580 0.63740 0.63740 0.18500
H 	H 	0.04520 0.64100 0.64100 -0.03700
C 	C 	0.10500 0.66410 0.66410 -0.27300
H 	H 	0.09450 0.68470 0.68470 0.13200
C 	C 	0.14990 0.65711 0.65711 0.26400
C 	C 	0.16480 0.62524 0.62524 -0.20700
H 	H 	0.19490 0.62010 0.62010 0.13900
C 	C 	0.16860 0.71207 0.71207 -0.00400
C 	C 	0.21027 0.73111 0.73111 0.01400
O 	O 	0.18911 0.56390 0.56390 -0.24700
O 	O 	0.11998 0.54748 0.54748 -0.40900
O 	O 	0.18225 0.67918 0.67918 -0.23400
C 	C 	0.64820 0.93207 0.93207 0.30700
C 	C 	0.63140 0.89809 0.89809 0.09600
C 	C 	0.58920 0.89010 0.89010 -0.23800
H 	H 	0.56810 0.90620 0.90620 0.12800
C 	C 	0.57580 0.86260 0.86260 0.20100
H 	H 	0.54520 0.85900 0.85900 -0.03400
C 	C 	0.60500 0.83590 0.83590 -0.27900
H 	H 	0.59450 0.81530 0.81530 0.13800
C 	C 	0.64990 0.84289 0.84289 0.27100
C 	C 	0.66480 0.87476 0.87476 -0.21400
H 	H 	0.69490 0.87990 0.87990 0.14600
C 	C 	0.66860 0.78793 0.78793 -0.00400
C 	C 	0.71027 0.76889 0.76889 0.01400
O 	O 	0.68911 0.93610 0.93610 -0.23000
O 	O 	0.61998 0.95252 0.95252 -0.38600
O 	O 	0.68225 0.82082 0.82082 -0.23300
C 	C 	0.14820 0.43207 0.43207 0.31400
C 	C 	0.13140 0.39809 0.39809 0.07900
C 	C 	0.08920 0.39010 0.39010 -0.22400
H 	H 	0.06810 0.40620 0.40620 0.11400
C 	C 	0.07580 0.36260 0.36260 0.18400
H 	H 	0.04520 0.35900 0.35900 -0.03700
C 	C 	0.10500 0.33590 0.33590 -0.27300
H 	H 	0.09450 0.31530 0.31530 0.13200
C 	C 	0.14990 0.34289 0.34289 0.26300
C 	C 	0.16480 0.37476 0.37476 -0.20700
H 	H 	0.19490 0.37990 0.37990 0.13900
C 	C 	0.16860 0.28793 0.28793 -0.00300
C 	C 	0.21027 0.26889 0.26889 0.01200
O 	O 	0.18911 0.43610 0.43610 -0.24700
O 	O 	0.11998 0.45252 0.45252 -0.40900
O 	O 	0.18225 0.32082 0.32082 -0.23400
