data_crystal

_cell_length_a 8.78900
_cell_length_b 14.25700
_cell_length_c 15.10920
_cell_angle_alpha 114.93200
_cell_angle_beta  106.90900
_cell_angle_gamma 90.00000

_symmetry_space_group_name_	'P 1'
_symmetry_space_group_name_H-M	'P 1'

loop_
_symmetry_equiv_pos_as_xyz
  x,y,z

loop_
_atom_site_label
_atom_site_type_symbol
_atom_site_fract_x
_atom_site_fract_y
_atom_site_fract_z
_atom_site_charge
Ce	Ce	0.50515 0.00501 0.54654 2.14200
Ce	Ce	0.95861 0.99499 0.45346 2.12300
H 	H 	0.44240 0.79910 0.66720 -0.01400
H 	H 	0.45320 0.63980 0.68100 0.06700
H 	H 	0.98240 0.55690 0.53320 0.02500
H 	H 	0.97210 0.71330 0.51980 -0.04800
H 	H 	0.42090 0.53070 0.74320 0.07300
H 	H 	0.45690 0.36360 0.73920 0.01500
H 	H 	0.07500 0.23540 0.48700 -0.02900
H 	H 	0.05170 0.39550 0.48220 0.09700
H 	H 	0.39180 0.71530 0.22120 -0.04600
H 	H 	0.32390 0.56660 0.07000 0.12500
H 	H 	0.86200 0.57720 0.05400 0.18000
H 	H 	0.93630 0.72110 0.21140 -0.15200
H 	H 	0.77520 0.20090 0.33280 -0.02000
H 	H 	0.77220 0.36020 0.31900 0.06500
H 	H 	0.44920 0.44310 0.46680 0.08400
H 	H 	0.45230 0.28670 0.48020 0.00800
H 	H 	0.67770 0.46930 0.25680 0.06600
H 	H 	0.71770 0.63640 0.26080 0.01600
H 	H 	0.58800 0.76460 0.51300 -0.03900
H 	H 	0.56950 0.60450 0.51780 0.07500
H 	H 	0.17060 0.28470 0.77880 -0.02400
H 	H 	0.25390 0.43340 0.93000 0.09800
H 	H 	0.80800 0.42280 0.94600 0.10100
H 	H 	0.72490 0.27890 0.78860 -0.02300
C 	C 	0.19550 0.86720 0.57380 0.48500
C 	C 	0.20310 0.76810 0.58680 -0.20800
C 	C 	0.35080 0.75020 0.63880 0.08600
C 	C 	0.35610 0.65400 0.64700 -0.13200
C 	C 	0.22070 0.58170 0.60580 0.03700
C 	C 	0.07560 0.60380 0.55900 -0.08100
C 	C 	0.07050 0.69820 0.55100 0.16100
C 	C 	0.23270 0.47750 0.60980 0.07600
C 	C 	0.35450 0.47090 0.68960 -0.13700
C 	C 	0.37530 0.36990 0.68740 0.07300
C 	C 	0.27600 0.28450 0.61020 -0.16300
C 	C 	0.14910 0.29370 0.53600 0.10100
C 	C 	0.13260 0.39060 0.53500 -0.15600
C 	C 	0.31310 0.17720 0.60180 0.39800
C 	C 	0.21990 0.83340 0.32920 0.56400
C 	C 	0.17430 0.73430 0.23300 -0.38500
C 	C 	0.28440 0.68580 0.18860 0.27200
C 	C 	0.24540 0.59620 0.09880 -0.29300
C 	C 	0.07780 0.54770 0.04840 0.23700
C 	C 	0.97080 0.60110 0.08960 -0.49000
C 	C 	0.01450 0.69050 0.18260 0.45300
C 	C 	0.62170 0.13280 0.42620 0.47900
C 	C 	0.61630 0.23190 0.41320 -0.19600
C 	C 	0.71200 0.24980 0.36120 0.08000
C 	C 	0.70910 0.34600 0.35300 -0.14700
C 	C 	0.61490 0.41830 0.39420 0.06200
C 	C 	0.51660 0.39620 0.44100 -0.15100
C 	C 	0.51950 0.30180 0.44900 0.09700
C 	C 	0.62290 0.52250 0.39020 0.05200
C 	C 	0.66490 0.52910 0.31040 -0.12800
C 	C 	0.68790 0.63010 0.31260 0.06300
C 	C 	0.66580 0.71550 0.38980 -0.16200
C 	C 	0.61310 0.70630 0.46400 0.08800
C 	C 	0.59760 0.60940 0.46500 -0.14600
C 	C 	0.71130 0.82280 0.39820 0.39300
C 	C 	0.89070 0.16660 0.67080 0.53100
C 	C 	0.94130 0.26570 0.76700 -0.31900
C 	C 	0.09580 0.31420 0.81140 0.23100
C 	C 	0.14660 0.40380 0.90120 -0.20200
C 	C 	0.02940 0.45230 0.95160 0.09900
C 	C 	0.88120 0.39890 0.91040 -0.24600
C 	C 	0.83190 0.30950 0.81740 0.17300
O 	O 	0.32350 0.91460 0.58560 -0.57300
O 	O 	0.06110 0.89650 0.55180 -0.48000
O 	O 	0.23240 0.09760 0.52340 -0.59000
O 	O 	0.43070 0.17170 0.66820 -0.45900
O 	O 	0.36490 0.86900 0.37360 -0.53800
O 	O 	0.11220 0.87720 0.36100 -0.57000
O 	O 	0.73790 0.08540 0.41440 -0.58100
O 	O 	0.50930 0.10350 0.44820 -0.50800
O 	O 	0.70900 0.90240 0.47660 -0.60500
O 	O 	0.76250 0.82830 0.33180 -0.46600
O 	O 	0.99130 0.13100 0.62640 -0.55600
O 	O 	0.75120 0.12280 0.63900 -0.58800
