data_crystal

_cell_length_a 13.34270
_cell_length_b 13.40470
_cell_length_c 13.56200
_cell_angle_alpha 102.33900
_cell_angle_beta  104.36900
_cell_angle_gamma 90.47700

_symmetry_space_group_name_	'P 1'
_symmetry_space_group_name_H-M	'P 1'

loop_
_symmetry_equiv_pos_as_xyz
  x,y,z

loop_
_atom_site_label
_atom_site_type_symbol
_atom_site_fract_x
_atom_site_fract_y
_atom_site_fract_z
_atom_site_charge
Cu	Cu	0.74129 0.57282 0.52392 0.87900
O 	O 	0.64540 0.47750 0.54560 -0.62600
H 	H 	0.66270 0.46410 0.60650 0.23900
N 	N 	0.53790 0.52580 0.37330 -0.19700
N 	N 	0.63890 0.55960 0.38240 -0.19800
N 	N 	0.55370 0.53080 0.21860 -0.15200
N 	N 	0.56440 0.68360 0.58840 -0.15500
N 	N 	0.67050 0.70250 0.60940 -0.17800
N 	N 	0.61130 0.82440 0.71020 -0.15000
N 	N 	0.49940 0.27580 0.11900 -0.09300
N 	N 	0.59830 0.26890 0.17630 -0.09700
N 	N 	0.57200 0.15740 0.02610 -0.15100
N 	N 	0.84460 0.66320 0.49030 -0.20900
N 	N 	0.94380 0.63620 0.49040 -0.22100
N 	N 	0.93550 0.79800 0.48820 -0.16700
N 	N 	0.94480 0.49880 0.62690 -0.21700
N 	N 	0.85430 0.54210 0.64170 -0.20700
N 	N 	0.93990 0.51050 0.78880 -0.16600
C 	C 	0.48950 0.50830 0.27370 0.11000
H 	H 	0.41990 0.48350 0.24530 -0.01600
C 	C 	0.64610 0.56180 0.28880 0.10300
H 	H 	0.70650 0.58190 0.27230 -0.01400
C 	C 	0.43110 0.54370 0.05640 -0.08200
H 	H 	0.38530 0.57330 0.09520 0.05900
C 	C 	0.52760 0.51680 0.10660 0.09600
C 	C 	0.59690 0.47370 0.05140 -0.07700
H 	H 	0.66210 0.45640 0.08670 0.06200
C 	C 	0.53170 0.75650 0.64910 0.10500
H 	H 	0.46200 0.76220 0.65100 0.00100
C 	C 	0.69660 0.78630 0.68260 0.10100
H 	H 	0.76460 0.81560 0.71180 -0.00700
C 	C 	0.48660 0.21100 0.03100 0.09700
H 	H 	0.42560 0.20190 0.97670 0.00500
C 	C 	0.63930 0.19810 0.11950 0.09400
H 	H 	0.70710 0.17780 0.14060 0.00200
C 	C 	0.60450 0.91320 0.78830 0.08900
C 	C 	0.68050 0.93710 0.88150 -0.06800
H 	H 	0.73870 0.89780 0.89200 0.05900
C 	C 	0.67060 0.01890 0.95870 -0.08100
H 	H 	0.72280 0.03630 0.02150 0.06000
C 	C 	0.58420 0.07520 0.94430 0.09800
C 	C 	0.50900 0.05080 0.85200 -0.08400
H 	H 	0.45010 0.08910 0.84210 0.06100
C 	C 	0.51950 0.97010 0.77330 -0.06700
H 	H 	0.46830 0.95430 0.70960 0.05700
C 	C 	0.84090 0.75960 0.48900 0.10300
H 	H 	0.78180 0.79730 0.48860 -0.01300
C 	C 	0.99730 0.71780 0.48950 0.14300
H 	H 	0.06770 0.72070 0.48960 -0.05300
C 	C 	0.92630 0.98010 0.55170 -0.12900
H 	H 	0.87680 0.96620 0.58650 0.07800
C 	C 	0.96770 0.90140 0.49350 0.15100
C 	C 	0.04050 0.91940 0.44240 -0.15100
H 	H 	0.06780 0.86440 0.40380 0.07800
C 	C 	0.99420 0.47950 0.71620 0.13900
H 	H 	0.05790 0.44870 0.72850 -0.04500
C 	C 	0.85350 0.54910 0.73870 0.09900
H 	H 	0.80090 0.57660 0.76920 -0.01600
C 	C 	0.07050 0.53420 0.95330 -0.15900
H 	H 	0.11840 0.55760 0.92150 0.07900
C 	C 	0.97110 0.50520 0.89800 0.15500
C 	C 	0.89960 0.47130 0.94210 -0.13500
H 	H 	0.83110 0.45190 0.90230 0.07700
Cu	Cu	0.25871 0.42718 0.47608 0.87600
O 	O 	0.35460 0.52250 0.45440 -0.62800
H 	H 	0.33730 0.53590 0.39350 0.23900
N 	N 	0.46210 0.47420 0.62670 -0.19700
N 	N 	0.36110 0.44040 0.61760 -0.19900
N 	N 	0.44630 0.46920 0.78140 -0.15100
N 	N 	0.43560 0.31640 0.41160 -0.15500
N 	N 	0.32950 0.29750 0.39060 -0.17900
N 	N 	0.38870 0.17560 0.28980 -0.15200
N 	N 	0.50060 0.72420 0.88100 -0.09300
N 	N 	0.40170 0.73110 0.82370 -0.09900
N 	N 	0.42800 0.84260 0.97390 -0.14900
N 	N 	0.15540 0.33680 0.50970 -0.20900
N 	N 	0.05620 0.36380 0.50960 -0.21500
N 	N 	0.06450 0.20200 0.51180 -0.13700
N 	N 	0.05520 0.50120 0.37310 -0.21000
N 	N 	0.14570 0.45790 0.35830 -0.20800
N 	N 	0.06010 0.48950 0.21120 -0.13600
C 	C 	0.51050 0.49170 0.72630 0.10900
H 	H 	0.58010 0.51650 0.75470 -0.01600
C 	C 	0.35390 0.43820 0.71120 0.10100
H 	H 	0.29350 0.41810 0.72770 -0.01500
C 	C 	0.56890 0.45630 0.94360 -0.06700
H 	H 	0.61470 0.42670 0.90480 0.05500
C 	C 	0.47240 0.48320 0.89340 0.08700
C 	C 	0.40310 0.52630 0.94860 -0.06300
H 	H 	0.33790 0.54360 0.91330 0.05500
C 	C 	0.46830 0.24350 0.35090 0.10500
H 	H 	0.53800 0.23780 0.34900 0.00200
C 	C 	0.30340 0.21370 0.31740 0.10100
H 	H 	0.23540 0.18440 0.28820 -0.01100
C 	C 	0.51340 0.78900 0.96900 0.10300
H 	H 	0.57440 0.79810 0.02330 0.00300
C 	C 	0.36070 0.80190 0.88050 0.09300
H 	H 	0.29290 0.82220 0.85940 -0.00200
C 	C 	0.39550 0.08680 0.21170 0.09600
C 	C 	0.31950 0.06290 0.11850 -0.08000
H 	H 	0.26130 0.10220 0.10800 0.05700
C 	C 	0.32940 0.98110 0.04130 -0.07400
H 	H 	0.27720 0.96370 0.97850 0.05600
C 	C 	0.41580 0.92480 0.05570 0.08800
C 	C 	0.49100 0.94920 0.14800 -0.06900
H 	H 	0.54990 0.91090 0.15790 0.05800
C 	C 	0.48050 0.02990 0.22670 -0.08100
H 	H 	0.53170 0.04570 0.29040 0.06100
C 	C 	0.15910 0.24040 0.51100 0.09600
H 	H 	0.21820 0.20270 0.51140 -0.01000
C 	C 	0.00270 0.28220 0.51050 0.05000
H 	H 	0.93230 0.27930 0.51040 0.00700
C 	C 	0.07370 0.01990 0.44830 -0.02700
H 	H 	0.12320 0.03380 0.41350 0.03800
C 	C 	0.03230 0.09860 0.50650 0.02600
C 	C 	0.95950 0.08060 0.55760 -0.00600
H 	H 	0.93220 0.13560 0.59620 0.03900
C 	C 	0.00580 0.52050 0.28380 0.04700
H 	H 	0.94210 0.55130 0.27150 0.01500
C 	C 	0.14650 0.45090 0.26130 0.09000
H 	H 	0.19910 0.42340 0.23080 -0.01400
C 	C 	0.92950 0.46580 0.04670 0.00200
H 	H 	0.88160 0.44240 0.07850 0.03400
C 	C 	0.02890 0.49480 0.10200 0.01800
C 	C 	0.10040 0.52870 0.05790 -0.01700
H 	H 	0.16890 0.54810 0.09770 0.03400
Cu	Cu	0.50000 0.50000 0.50000 0.90600
Cu	Cu	0.00000 0.50000 0.50000 0.82400
