data_crystal

_cell_length_a 29.32400
_cell_length_b 21.29720
_cell_length_c 18.06880
_cell_angle_alpha 90.00000
_cell_angle_beta  107.49000
_cell_angle_gamma 90.00000

_symmetry_space_group_name_	'P 1'
_symmetry_space_group_name_H-M	'P 1'

loop_
_symmetry_equiv_pos_as_xyz
  x,y,z

loop_
_atom_site_label
_atom_site_type_symbol
_atom_site_fract_x
_atom_site_fract_y
_atom_site_fract_z
_atom_site_charge
Cu	Cu	0.73173 0.20163 0.95530 0.94000
Cu	Cu	0.75297 0.19161 0.52494 0.91400
Cu	Cu	0.46664 0.51390 0.93567 0.91600
Br	Br	0.88256 0.37632 0.66301 -0.24600
Br	Br	0.89880 0.36530 0.96860 -0.25000
Br	Br	0.85420 0.20630 0.27650 -0.09300
Br	Br	0.67700 0.34140 0.74640 -0.17700
Br	Br	0.45987 0.27800 0.51010 -0.23400
Br	Br	0.89950 0.37790 0.49400 -0.32800
O 	O 	0.77130 0.23470 0.89400 -0.41100
O 	O 	0.80350 0.31560 0.96950 -0.39200
O 	O 	0.78230 0.23240 0.62660 -0.43600
O 	O 	0.51040 0.48320 0.88250 -0.41000
O 	O 	0.77900 0.32920 0.58450 -0.41700
O 	O 	0.56740 0.45960 0.99150 -0.41200
O 	O 	0.68270 0.25970 0.90060 -0.37200
O 	O 	0.71190 0.34120 0.97700 -0.39500
O 	O 	0.68920 0.20370 0.53470 -0.39100
O 	O 	0.68430 0.30240 0.49350 -0.42100
O 	O 	0.49590 0.40310 0.44980 -0.39500
O 	O 	0.55270 0.42850 0.55980 -0.41300
C 	C 	0.82060 0.30550 0.85310 -0.26600
C 	C 	0.79820 0.28420 0.77280 0.21400
H 	H 	0.77280 0.25450 0.76130 0.00600
C 	C 	0.81400 0.30720 0.71670 -0.28500
C 	C 	0.85080 0.34570 0.73280 0.29500
C 	C 	0.87630 0.36700 0.81480 -0.44600
H 	H 	0.91030 0.35470 0.82810 0.19500
H 	H 	0.87490 0.41340 0.81710 0.17700
C 	C 	0.85590 0.34070 0.87170 0.32900
C 	C 	0.79600 0.28260 0.91200 0.44900
C 	C 	0.78940 0.28850 0.63570 0.48500
C 	C 	0.57810 0.42740 0.87560 -0.11000
C 	C 	0.61680 0.38980 0.91370 0.08500
H 	H 	0.62650 0.38890 0.96880 0.04500
C 	C 	0.64240 0.35310 0.87520 -0.16100
C 	C 	0.87840 0.15280 0.21500 0.00600
C 	C 	0.63930 0.37680 0.80290 0.17000
C 	C 	0.92290 0.11610 0.24700 0.12100
C 	C 	0.59810 0.41230 0.76010 -0.13400
C 	C 	0.56800 0.44020 0.79690 0.02500
H 	H 	0.54460 0.47360 0.77100 0.05000
C 	C 	0.54920 0.45870 0.92130 0.39200
C 	C 	0.68170 0.31700 0.91910 0.40200
C 	C 	0.61940 0.25930 0.51790 -0.26800
C 	C 	0.59630 0.31890 0.51080 0.19900
H 	H 	0.61400 0.35520 0.50580 0.00300
C 	C 	0.55020 0.32620 0.51070 -0.23800
C 	C 	0.52340 0.27300 0.50940 0.27700
C 	C 	0.54520 0.21310 0.51600 -0.30500
H 	H 	0.52720 0.17660 0.51860 0.17700
C 	C 	0.59060 0.20790 0.51700 0.31700
C 	C 	0.66590 0.25540 0.51460 0.45600
C 	C 	0.53150 0.38970 0.50810 0.42300
O 	O 	0.69530 0.13550 0.87440 -0.18000
N 	N 	0.65040 0.10990 0.73390 -0.03500
C 	C 	0.68070 0.13890 0.80220 0.13600
H 	H 	0.69530 0.17430 0.78680 0.03300
C 	C 	0.60200 0.08700 0.71900 -0.29800
H 	H 	0.59030 0.07000 0.66620 0.13100
H 	H 	0.58090 0.12190 0.72410 0.14300
H 	H 	0.60100 0.05420 0.75640 0.14100
C 	C 	0.66100 0.08200 0.66900 -0.33600
H 	H 	0.69320 0.09500 0.66860 0.14800
H 	H 	0.63770 0.09600 0.62050 0.17500
H 	H 	0.66000 0.03620 0.67250 0.14100
O 	O 	0.73070 0.10720 0.90720 -0.19700
N 	N 	0.77070 0.01280 0.89200 -0.17400
C 	C 	0.76700 0.07460 0.92200 0.19700
C 	C 	0.72640 0.98340 0.84600 0.06200
C 	C 	0.81530 0.97900 0.92200 -0.06700
C 	C 	0.79250 0.97360 0.87900 0.17700
C 	C 	0.98700 0.57500 0.48800 0.03300
C 	C 	0.93300 0.44700 0.53600 0.12800
C 	C 	0.97700 0.48400 0.51700 -0.01900
Cu	Cu	0.23173 0.70163 0.95530 0.94000
Cu	Cu	0.25297 0.69161 0.52494 0.91300
Cu	Cu	0.96664 0.01390 0.93567 0.91400
Br	Br	0.38256 0.87632 0.66301 -0.24600
Br	Br	0.39880 0.86530 0.96860 -0.24900
Br	Br	0.35420 0.70630 0.27650 -0.09400
Br	Br	0.17700 0.84140 0.74640 -0.17800
Br	Br	0.95987 0.77800 0.51010 -0.23500
Br	Br	0.39950 0.87790 0.49400 -0.32800
O 	O 	0.27130 0.73470 0.89400 -0.41000
O 	O 	0.30350 0.81560 0.96950 -0.39000
O 	O 	0.28230 0.73240 0.62660 -0.43600
O 	O 	0.01040 0.98320 0.88250 -0.40900
O 	O 	0.27900 0.82920 0.58450 -0.41700
O 	O 	0.06740 0.95960 0.99150 -0.41000
O 	O 	0.18270 0.75970 0.90060 -0.37100
O 	O 	0.21190 0.84120 0.97700 -0.39300
O 	O 	0.18920 0.70370 0.53470 -0.39100
O 	O 	0.18430 0.80240 0.49350 -0.42100
O 	O 	0.99590 0.90310 0.44980 -0.39500
O 	O 	0.05270 0.92850 0.55980 -0.41300
C 	C 	0.32060 0.80550 0.85310 -0.26600
C 	C 	0.29820 0.78420 0.77280 0.21400
H 	H 	0.27280 0.75450 0.76130 0.00600
C 	C 	0.31400 0.80720 0.71670 -0.28500
C 	C 	0.35080 0.84570 0.73280 0.29600
C 	C 	0.37630 0.86700 0.81480 -0.44700
H 	H 	0.41030 0.85470 0.82810 0.19500
H 	H 	0.37490 0.91340 0.81710 0.17800
C 	C 	0.35590 0.84070 0.87170 0.32900
C 	C 	0.29600 0.78260 0.91200 0.44900
C 	C 	0.28940 0.78850 0.63570 0.48500
C 	C 	0.07810 0.92740 0.87560 -0.10900
C 	C 	0.11680 0.88980 0.91370 0.08500
H 	H 	0.12650 0.88890 0.96880 0.04600
C 	C 	0.14240 0.85310 0.87520 -0.16000
C 	C 	0.37840 0.65280 0.21500 0.00500
C 	C 	0.13930 0.87680 0.80290 0.16900
C 	C 	0.42290 0.61610 0.24700 0.12200
C 	C 	0.09810 0.91230 0.76010 -0.13300
C 	C 	0.06800 0.94020 0.79690 0.02400
H 	H 	0.04460 0.97360 0.77100 0.05100
C 	C 	0.04920 0.95870 0.92130 0.39200
C 	C 	0.18170 0.81700 0.91910 0.40100
C 	C 	0.11940 0.75930 0.51790 -0.26800
C 	C 	0.09630 0.81890 0.51080 0.19900
H 	H 	0.11400 0.85520 0.50580 0.00300
C 	C 	0.05020 0.82620 0.51070 -0.23800
C 	C 	0.02340 0.77300 0.50940 0.27700
C 	C 	0.04520 0.71310 0.51600 -0.30500
H 	H 	0.02720 0.67660 0.51860 0.17700
C 	C 	0.09060 0.70790 0.51700 0.31700
C 	C 	0.16590 0.75540 0.51460 0.45600
C 	C 	0.03150 0.88970 0.50810 0.42300
O 	O 	0.19530 0.63550 0.87440 -0.17900
N 	N 	0.15040 0.60990 0.73390 -0.03500
C 	C 	0.18070 0.63890 0.80220 0.13700
H 	H 	0.19530 0.67430 0.78680 0.03300
C 	C 	0.10200 0.58700 0.71900 -0.29900
H 	H 	0.09030 0.57000 0.66620 0.13100
H 	H 	0.08090 0.62190 0.72410 0.14300
H 	H 	0.10100 0.55420 0.75640 0.14200
C 	C 	0.16100 0.58200 0.66900 -0.33600
H 	H 	0.19320 0.59500 0.66860 0.14800
H 	H 	0.13770 0.59600 0.62050 0.17500
H 	H 	0.16000 0.53620 0.67250 0.14100
O 	O 	0.23070 0.60720 0.90720 -0.19600
N 	N 	0.27070 0.51280 0.89200 -0.17300
C 	C 	0.26700 0.57460 0.92200 0.19800
C 	C 	0.22640 0.48340 0.84600 0.06100
C 	C 	0.31530 0.47900 0.92200 -0.06700
C 	C 	0.29250 0.47360 0.87900 0.17500
C 	C 	0.48700 0.07500 0.48800 0.03300
C 	C 	0.43300 0.94700 0.53600 0.12800
C 	C 	0.47700 0.98400 0.51700 -0.01900
Cu	Cu	0.26827 0.20163 0.54470 0.94000
Cu	Cu	0.24703 0.19161 0.97506 0.91200
Cu	Cu	0.53336 0.51390 0.56433 0.91500
Br	Br	0.11744 0.37632 0.83699 -0.24600
Br	Br	0.10120 0.36530 0.53140 -0.25000
Br	Br	0.14580 0.20630 0.22350 -0.09500
Br	Br	0.32300 0.34140 0.75360 -0.17800
Br	Br	0.54013 0.27800 0.98990 -0.23600
Br	Br	0.10050 0.37790 0.00600 -0.32800
O 	O 	0.22870 0.23470 0.60600 -0.41100
O 	O 	0.19650 0.31560 0.53050 -0.39100
O 	O 	0.21770 0.23240 0.87340 -0.43600
O 	O 	0.48960 0.48320 0.61750 -0.41000
O 	O 	0.22100 0.32920 0.91550 -0.41700
O 	O 	0.43260 0.45960 0.50850 -0.41200
O 	O 	0.31730 0.25970 0.59940 -0.37100
O 	O 	0.28810 0.34120 0.52300 -0.39400
O 	O 	0.31080 0.20370 0.96530 -0.39100
O 	O 	0.31570 0.30240 0.00650 -0.42000
O 	O 	0.50410 0.40310 0.05020 -0.39500
O 	O 	0.44730 0.42850 0.94020 -0.41300
C 	C 	0.17940 0.30550 0.64690 -0.26600
C 	C 	0.20180 0.28420 0.72720 0.21400
H 	H 	0.22720 0.25450 0.73870 0.00600
C 	C 	0.18600 0.30720 0.78330 -0.28500
C 	C 	0.14920 0.34570 0.76720 0.29500
C 	C 	0.12370 0.36700 0.68520 -0.44600
H 	H 	0.08970 0.35470 0.67190 0.19500
H 	H 	0.12510 0.41340 0.68290 0.17700
C 	C 	0.14410 0.34070 0.62830 0.32900
C 	C 	0.20400 0.28260 0.58800 0.44900
C 	C 	0.21060 0.28850 0.86430 0.48500
C 	C 	0.42190 0.42740 0.62440 -0.11000
C 	C 	0.38320 0.38980 0.58630 0.08500
H 	H 	0.37350 0.38890 0.53120 0.04500
C 	C 	0.35760 0.35310 0.62480 -0.16100
C 	C 	0.12160 0.15280 0.28500 0.00700
C 	C 	0.36070 0.37680 0.69710 0.16900
C 	C 	0.07710 0.11610 0.25300 0.12000
C 	C 	0.40190 0.41230 0.73990 -0.13400
C 	C 	0.43200 0.44020 0.70310 0.02500
H 	H 	0.45540 0.47360 0.72900 0.05000
C 	C 	0.45080 0.45870 0.57870 0.39200
C 	C 	0.31830 0.31700 0.58090 0.40200
C 	C 	0.38060 0.25930 0.98210 -0.26800
C 	C 	0.40370 0.31890 0.98920 0.19900
H 	H 	0.38600 0.35520 0.99420 0.00300
C 	C 	0.44980 0.32620 0.98930 -0.23800
C 	C 	0.47660 0.27300 0.99060 0.27700
C 	C 	0.45480 0.21310 0.98400 -0.30500
H 	H 	0.47280 0.17660 0.98140 0.17600
C 	C 	0.40940 0.20790 0.98300 0.31700
C 	C 	0.33410 0.25540 0.98540 0.45600
C 	C 	0.46850 0.38970 0.99190 0.42300
O 	O 	0.30470 0.13550 0.62560 -0.17900
N 	N 	0.34960 0.10990 0.76610 -0.03500
C 	C 	0.31930 0.13890 0.69780 0.13700
H 	H 	0.30470 0.17430 0.71320 0.03300
C 	C 	0.39800 0.08700 0.78100 -0.29800
H 	H 	0.40970 0.07000 0.83380 0.13000
H 	H 	0.41910 0.12190 0.77590 0.14300
H 	H 	0.39900 0.05420 0.74360 0.14100
C 	C 	0.33900 0.08200 0.83100 -0.33500
H 	H 	0.30680 0.09500 0.83140 0.14800
H 	H 	0.36230 0.09600 0.87950 0.17500
H 	H 	0.34000 0.03620 0.82750 0.14100
O 	O 	0.26930 0.10720 0.59280 -0.19700
N 	N 	0.22930 0.01280 0.60800 -0.17300
C 	C 	0.23300 0.07460 0.57800 0.19800
C 	C 	0.27360 0.98340 0.65400 0.06100
C 	C 	0.18470 0.97900 0.57800 -0.06700
C 	C 	0.20750 0.97360 0.62100 0.17600
C 	C 	0.01300 0.57500 0.01200 0.03100
C 	C 	0.06700 0.44700 0.96400 0.12800
C 	C 	0.02300 0.48400 0.98300 -0.01800
Cu	Cu	0.76827 0.70163 0.54470 0.94000
Cu	Cu	0.74703 0.69161 0.97506 0.91300
Cu	Cu	0.03336 0.01390 0.56433 0.91500
Br	Br	0.61744 0.87632 0.83699 -0.24600
Br	Br	0.60120 0.86530 0.53140 -0.25000
Br	Br	0.64580 0.70630 0.22350 -0.09400
Br	Br	0.82300 0.84140 0.75360 -0.17800
Br	Br	0.04013 0.77800 0.98990 -0.23300
Br	Br	0.60050 0.87790 0.00600 -0.33000
O 	O 	0.72870 0.73470 0.60600 -0.41100
O 	O 	0.69650 0.81560 0.53050 -0.39100
O 	O 	0.71770 0.73240 0.87340 -0.43600
O 	O 	0.98960 0.98320 0.61750 -0.41000
O 	O 	0.72100 0.82920 0.91550 -0.41600
O 	O 	0.93260 0.95960 0.50850 -0.41200
O 	O 	0.81730 0.75970 0.59940 -0.37100
O 	O 	0.78810 0.84120 0.52300 -0.39400
O 	O 	0.81080 0.70370 0.96530 -0.39200
O 	O 	0.81570 0.80240 0.00650 -0.42200
O 	O 	0.00410 0.90310 0.05020 -0.39800
O 	O 	0.94730 0.92850 0.94020 -0.41300
C 	C 	0.67940 0.80550 0.64690 -0.26600
C 	C 	0.70180 0.78420 0.72720 0.21400
H 	H 	0.72720 0.75450 0.73870 0.00600
C 	C 	0.68600 0.80720 0.78330 -0.28500
C 	C 	0.64920 0.84570 0.76720 0.29500
C 	C 	0.62370 0.86700 0.68520 -0.44600
H 	H 	0.58970 0.85470 0.67190 0.19500
H 	H 	0.62510 0.91340 0.68290 0.17800
C 	C 	0.64410 0.84070 0.62830 0.32900
C 	C 	0.70400 0.78260 0.58800 0.44900
C 	C 	0.71060 0.78850 0.86430 0.48500
C 	C 	0.92190 0.92740 0.62440 -0.10900
C 	C 	0.88320 0.88980 0.58630 0.08500
H 	H 	0.87350 0.88890 0.53120 0.04500
C 	C 	0.85760 0.85310 0.62480 -0.16100
C 	C 	0.62160 0.65280 0.28500 0.00600
C 	C 	0.86070 0.87680 0.69710 0.16700
C 	C 	0.57710 0.61610 0.25300 0.12200
C 	C 	0.90190 0.91230 0.73990 -0.13200
C 	C 	0.93200 0.94020 0.70310 0.02400
H 	H 	0.95540 0.97360 0.72900 0.05000
C 	C 	0.95080 0.95870 0.57870 0.39200
C 	C 	0.81830 0.81700 0.58090 0.40100
C 	C 	0.88060 0.75930 0.98210 -0.26800
C 	C 	0.90370 0.81890 0.98920 0.20000
H 	H 	0.88600 0.85520 0.99420 0.00300
C 	C 	0.94980 0.82620 0.98930 -0.23900
C 	C 	0.97660 0.77300 0.99060 0.27600
C 	C 	0.95480 0.71310 0.98400 -0.30500
H 	H 	0.97280 0.67660 0.98140 0.17700
C 	C 	0.90940 0.70790 0.98300 0.31700
C 	C 	0.83410 0.75540 0.98540 0.45700
C 	C 	0.96850 0.88970 0.99190 0.42500
O 	O 	0.80470 0.63550 0.62560 -0.17900
N 	N 	0.84960 0.60990 0.76610 -0.03500
C 	C 	0.81930 0.63890 0.69780 0.13700
H 	H 	0.80470 0.67430 0.71320 0.03300
C 	C 	0.89800 0.58700 0.78100 -0.29900
H 	H 	0.90970 0.57000 0.83380 0.13100
H 	H 	0.91910 0.62190 0.77590 0.14300
H 	H 	0.89900 0.55420 0.74360 0.14100
C 	C 	0.83900 0.58200 0.83100 -0.33600
H 	H 	0.80680 0.59500 0.83140 0.14800
H 	H 	0.86230 0.59600 0.87950 0.17500
H 	H 	0.84000 0.53620 0.82750 0.14100
O 	O 	0.76930 0.60720 0.59280 -0.19700
N 	N 	0.72930 0.51280 0.60800 -0.17300
C 	C 	0.73300 0.57460 0.57800 0.19800
C 	C 	0.77360 0.48340 0.65400 0.06000
C 	C 	0.68470 0.47900 0.57800 -0.06700
C 	C 	0.70750 0.47360 0.62100 0.17500
C 	C 	0.51300 0.07500 0.01200 0.03300
C 	C 	0.56700 0.94700 0.96400 0.12900
C 	C 	0.52300 0.98400 0.98300 -0.01900
Cu	Cu	0.26827 0.79837 0.04470 0.93900
Cu	Cu	0.24703 0.80839 0.47506 0.91300
Cu	Cu	0.53336 0.48610 0.06433 0.91500
Br	Br	0.11744 0.62368 0.33699 -0.24700
Br	Br	0.10120 0.63470 0.03140 -0.25100
Br	Br	0.14580 0.79370 0.72350 -0.09400
Br	Br	0.32300 0.65860 0.25360 -0.17800
Br	Br	0.54013 0.72200 0.48990 -0.23500
Br	Br	0.10050 0.62210 0.50600 -0.32800
O 	O 	0.22870 0.76530 0.10600 -0.41100
O 	O 	0.19650 0.68440 0.03050 -0.39200
O 	O 	0.21770 0.76760 0.37340 -0.43600
O 	O 	0.48960 0.51680 0.11750 -0.41000
O 	O 	0.22100 0.67080 0.41550 -0.41700
O 	O 	0.43260 0.54040 0.00850 -0.41200
O 	O 	0.31730 0.74030 0.09940 -0.37200
O 	O 	0.28810 0.65880 0.02300 -0.39500
O 	O 	0.31080 0.79630 0.46530 -0.39100
O 	O 	0.31570 0.69760 0.50650 -0.42100
O 	O 	0.50410 0.59690 0.55020 -0.39500
O 	O 	0.44730 0.57150 0.44020 -0.41300
C 	C 	0.17940 0.69450 0.14690 -0.26600
C 	C 	0.20180 0.71580 0.22720 0.21400
H 	H 	0.22720 0.74550 0.23870 0.00600
C 	C 	0.18600 0.69280 0.28330 -0.28500
C 	C 	0.14920 0.65430 0.26720 0.29500
C 	C 	0.12370 0.63300 0.18520 -0.44600
H 	H 	0.08970 0.64530 0.17190 0.19500
H 	H 	0.12510 0.58660 0.18290 0.17700
C 	C 	0.14410 0.65930 0.12830 0.32900
C 	C 	0.20400 0.71740 0.08800 0.44900
C 	C 	0.21060 0.71150 0.36430 0.48500
C 	C 	0.42190 0.57260 0.12440 -0.11000
C 	C 	0.38320 0.61020 0.08630 0.08500
H 	H 	0.37350 0.61110 0.03120 0.04500
C 	C 	0.35760 0.64690 0.12480 -0.16100
C 	C 	0.12160 0.84720 0.78500 0.00600
C 	C 	0.36070 0.62320 0.19710 0.17000
C 	C 	0.07710 0.88390 0.75300 0.12100
C 	C 	0.40190 0.58770 0.23990 -0.13400
C 	C 	0.43200 0.55980 0.20310 0.02500
H 	H 	0.45540 0.52640 0.22900 0.05000
C 	C 	0.45080 0.54130 0.07870 0.39200
C 	C 	0.31830 0.68300 0.08090 0.40200
C 	C 	0.38060 0.74070 0.48210 -0.26800
C 	C 	0.40370 0.68110 0.48920 0.19900
H 	H 	0.38600 0.64480 0.49420 0.00300
C 	C 	0.44980 0.67380 0.48930 -0.23800
C 	C 	0.47660 0.72700 0.49060 0.27700
C 	C 	0.45480 0.78690 0.48400 -0.30500
H 	H 	0.47280 0.82340 0.48140 0.17700
C 	C 	0.40940 0.79210 0.48300 0.31700
C 	C 	0.33410 0.74460 0.48540 0.45600
C 	C 	0.46850 0.61030 0.49190 0.42300
O 	O 	0.30470 0.86450 0.12560 -0.18000
N 	N 	0.34960 0.89010 0.26610 -0.03500
C 	C 	0.31930 0.86110 0.19780 0.13600
H 	H 	0.30470 0.82570 0.21320 0.03300
C 	C 	0.39800 0.91300 0.28100 -0.29800
H 	H 	0.40970 0.93000 0.33380 0.13100
H 	H 	0.41910 0.87810 0.27590 0.14300
H 	H 	0.39900 0.94580 0.24360 0.14100
C 	C 	0.33900 0.91800 0.33100 -0.33600
H 	H 	0.30680 0.90500 0.33140 0.14800
H 	H 	0.36230 0.90400 0.37950 0.17500
H 	H 	0.34000 0.96380 0.32750 0.14100
O 	O 	0.26930 0.89280 0.09280 -0.19700
N 	N 	0.22930 0.98720 0.10800 -0.17400
C 	C 	0.23300 0.92540 0.07800 0.19700
C 	C 	0.27360 0.01660 0.15400 0.06200
C 	C 	0.18470 0.02100 0.07800 -0.06700
C 	C 	0.20750 0.02640 0.12100 0.17700
C 	C 	0.01300 0.42500 0.51200 0.03300
C 	C 	0.06700 0.55300 0.46400 0.12800
C 	C 	0.02300 0.51600 0.48300 -0.01900
Cu	Cu	0.76827 0.29837 0.04470 0.94000
Cu	Cu	0.74703 0.30839 0.47506 0.91300
Cu	Cu	0.03336 0.98610 0.06433 0.91400
Br	Br	0.61744 0.12368 0.33699 -0.24600
Br	Br	0.60120 0.13470 0.03140 -0.24900
Br	Br	0.64580 0.29370 0.72350 -0.09400
Br	Br	0.82300 0.15860 0.25360 -0.17800
Br	Br	0.04013 0.22200 0.48990 -0.23500
Br	Br	0.60050 0.12210 0.50600 -0.32800
O 	O 	0.72870 0.26530 0.10600 -0.41000
O 	O 	0.69650 0.18440 0.03050 -0.39000
O 	O 	0.71770 0.26760 0.37340 -0.43600
O 	O 	0.98960 0.01680 0.11750 -0.40900
O 	O 	0.72100 0.17080 0.41550 -0.41700
O 	O 	0.93260 0.04040 0.00850 -0.41000
O 	O 	0.81730 0.24030 0.09940 -0.37100
O 	O 	0.78810 0.15880 0.02300 -0.39300
O 	O 	0.81080 0.29630 0.46530 -0.39100
O 	O 	0.81570 0.19760 0.50650 -0.42100
O 	O 	0.00410 0.09690 0.55020 -0.39500
O 	O 	0.94730 0.07150 0.44020 -0.41300
C 	C 	0.67940 0.19450 0.14690 -0.26600
C 	C 	0.70180 0.21580 0.22720 0.21400
H 	H 	0.72720 0.24550 0.23870 0.00600
C 	C 	0.68600 0.19280 0.28330 -0.28500
C 	C 	0.64920 0.15430 0.26720 0.29600
C 	C 	0.62370 0.13300 0.18520 -0.44700
H 	H 	0.58970 0.14530 0.17190 0.19500
H 	H 	0.62510 0.08660 0.18290 0.17800
C 	C 	0.64410 0.15930 0.12830 0.32900
C 	C 	0.70400 0.21740 0.08800 0.44900
C 	C 	0.71060 0.21150 0.36430 0.48500
C 	C 	0.92190 0.07260 0.12440 -0.10900
C 	C 	0.88320 0.11020 0.08630 0.08500
H 	H 	0.87350 0.11110 0.03120 0.04600
C 	C 	0.85760 0.14690 0.12480 -0.16000
C 	C 	0.62160 0.34720 0.78500 0.00500
C 	C 	0.86070 0.12320 0.19710 0.16900
C 	C 	0.57710 0.38390 0.75300 0.12200
C 	C 	0.90190 0.08770 0.23990 -0.13300
C 	C 	0.93200 0.05980 0.20310 0.02400
H 	H 	0.95540 0.02640 0.22900 0.05100
C 	C 	0.95080 0.04130 0.07870 0.39200
C 	C 	0.81830 0.18300 0.08090 0.40100
C 	C 	0.88060 0.24070 0.48210 -0.26800
C 	C 	0.90370 0.18110 0.48920 0.19900
H 	H 	0.88600 0.14480 0.49420 0.00300
C 	C 	0.94980 0.17380 0.48930 -0.23800
C 	C 	0.97660 0.22700 0.49060 0.27700
C 	C 	0.95480 0.28690 0.48400 -0.30500
H 	H 	0.97280 0.32340 0.48140 0.17700
C 	C 	0.90940 0.29210 0.48300 0.31700
C 	C 	0.83410 0.24460 0.48540 0.45600
C 	C 	0.96850 0.11030 0.49190 0.42300
O 	O 	0.80470 0.36450 0.12560 -0.17900
N 	N 	0.84960 0.39010 0.26610 -0.03500
C 	C 	0.81930 0.36110 0.19780 0.13700
H 	H 	0.80470 0.32570 0.21320 0.03300
C 	C 	0.89800 0.41300 0.28100 -0.29900
H 	H 	0.90970 0.43000 0.33380 0.13100
H 	H 	0.91910 0.37810 0.27590 0.14300
H 	H 	0.89900 0.44580 0.24360 0.14200
C 	C 	0.83900 0.41800 0.33100 -0.33600
H 	H 	0.80680 0.40500 0.33140 0.14800
H 	H 	0.86230 0.40400 0.37950 0.17500
H 	H 	0.84000 0.46380 0.32750 0.14100
O 	O 	0.76930 0.39280 0.09280 -0.19600
N 	N 	0.72930 0.48720 0.10800 -0.17300
C 	C 	0.73300 0.42540 0.07800 0.19800
C 	C 	0.77360 0.51660 0.15400 0.06100
C 	C 	0.68470 0.52100 0.07800 -0.06700
C 	C 	0.70750 0.52640 0.12100 0.17500
C 	C 	0.51300 0.92500 0.51200 0.03300
C 	C 	0.56700 0.05300 0.46400 0.12800
C 	C 	0.52300 0.01600 0.48300 -0.01900
Cu	Cu	0.73173 0.79837 0.45530 0.94000
Cu	Cu	0.75297 0.80839 0.02494 0.91200
Cu	Cu	0.46664 0.48610 0.43567 0.91500
Br	Br	0.88256 0.62368 0.16301 -0.24600
Br	Br	0.89880 0.63470 0.46860 -0.25000
Br	Br	0.85420 0.79370 0.77650 -0.09500
Br	Br	0.67700 0.65860 0.24640 -0.17800
Br	Br	0.45987 0.72200 0.01010 -0.23600
Br	Br	0.89950 0.62210 0.99400 -0.32800
O 	O 	0.77130 0.76530 0.39400 -0.41100
O 	O 	0.80350 0.68440 0.46950 -0.39100
O 	O 	0.78230 0.76760 0.12660 -0.43600
O 	O 	0.51040 0.51680 0.38250 -0.41000
O 	O 	0.77900 0.67080 0.08450 -0.41700
O 	O 	0.56740 0.54040 0.49150 -0.41200
O 	O 	0.68270 0.74030 0.40060 -0.37100
O 	O 	0.71190 0.65880 0.47700 -0.39400
O 	O 	0.68920 0.79630 0.03470 -0.39100
O 	O 	0.68430 0.69760 0.99350 -0.42000
O 	O 	0.49590 0.59690 0.94980 -0.39500
O 	O 	0.55270 0.57150 0.05980 -0.41300
C 	C 	0.82060 0.69450 0.35310 -0.26600
C 	C 	0.79820 0.71580 0.27280 0.21400
H 	H 	0.77280 0.74550 0.26130 0.00600
C 	C 	0.81400 0.69280 0.21670 -0.28500
C 	C 	0.85080 0.65430 0.23280 0.29500
C 	C 	0.87630 0.63300 0.31480 -0.44600
H 	H 	0.91030 0.64530 0.32810 0.19500
H 	H 	0.87490 0.58660 0.31710 0.17700
C 	C 	0.85590 0.65930 0.37170 0.32900
C 	C 	0.79600 0.71740 0.41200 0.44900
C 	C 	0.78940 0.71150 0.13570 0.48500
C 	C 	0.57810 0.57260 0.37560 -0.11000
C 	C 	0.61680 0.61020 0.41370 0.08500
H 	H 	0.62650 0.61110 0.46880 0.04500
C 	C 	0.64240 0.64690 0.37520 -0.16100
C 	C 	0.87840 0.84720 0.71500 0.00700
C 	C 	0.63930 0.62320 0.30290 0.16900
C 	C 	0.92290 0.88390 0.74700 0.12000
C 	C 	0.59810 0.58770 0.26010 -0.13400
C 	C 	0.56800 0.55980 0.29690 0.02500
H 	H 	0.54460 0.52640 0.27100 0.05000
C 	C 	0.54920 0.54130 0.42130 0.39200
C 	C 	0.68170 0.68300 0.41910 0.40200
C 	C 	0.61940 0.74070 0.01790 -0.26800
C 	C 	0.59630 0.68110 0.01080 0.19900
H 	H 	0.61400 0.64480 0.00580 0.00300
C 	C 	0.55020 0.67380 0.01070 -0.23800
C 	C 	0.52340 0.72700 0.00940 0.27700
C 	C 	0.54520 0.78690 0.01600 -0.30500
H 	H 	0.52720 0.82340 0.01860 0.17600
C 	C 	0.59060 0.79210 0.01700 0.31700
C 	C 	0.66590 0.74460 0.01460 0.45600
C 	C 	0.53150 0.61030 0.00810 0.42300
O 	O 	0.69530 0.86450 0.37440 -0.17900
N 	N 	0.65040 0.89010 0.23390 -0.03500
C 	C 	0.68070 0.86110 0.30220 0.13700
H 	H 	0.69530 0.82570 0.28680 0.03300
C 	C 	0.60200 0.91300 0.21900 -0.29800
H 	H 	0.59030 0.93000 0.16620 0.13000
H 	H 	0.58090 0.87810 0.22410 0.14300
H 	H 	0.60100 0.94580 0.25640 0.14100
C 	C 	0.66100 0.91800 0.16900 -0.33500
H 	H 	0.69320 0.90500 0.16860 0.14800
H 	H 	0.63770 0.90400 0.12050 0.17500
H 	H 	0.66000 0.96380 0.17250 0.14100
O 	O 	0.73070 0.89280 0.40720 -0.19700
N 	N 	0.77070 0.98720 0.39200 -0.17300
C 	C 	0.76700 0.92540 0.42200 0.19800
C 	C 	0.72640 0.01660 0.34600 0.06100
C 	C 	0.81530 0.02100 0.42200 -0.06700
C 	C 	0.79250 0.02640 0.37900 0.17600
C 	C 	0.98700 0.42500 0.98800 0.03100
C 	C 	0.93300 0.55300 0.03600 0.12800
C 	C 	0.97700 0.51600 0.01700 -0.01800
Cu	Cu	0.23173 0.29837 0.45530 0.94000
Cu	Cu	0.25297 0.30839 0.02494 0.91300
Cu	Cu	0.96664 0.98610 0.43567 0.91500
Br	Br	0.38256 0.12368 0.16301 -0.24600
Br	Br	0.39880 0.13470 0.46860 -0.25000
Br	Br	0.35420 0.29370 0.77650 -0.09400
Br	Br	0.17700 0.15860 0.24640 -0.17800
Br	Br	0.95987 0.22200 0.01010 -0.23300
Br	Br	0.39950 0.12210 0.99400 -0.33000
O 	O 	0.27130 0.26530 0.39400 -0.41100
O 	O 	0.30350 0.18440 0.46950 -0.39100
O 	O 	0.28230 0.26760 0.12660 -0.43600
O 	O 	0.01040 0.01680 0.38250 -0.41000
O 	O 	0.27900 0.17080 0.08450 -0.41600
O 	O 	0.06740 0.04040 0.49150 -0.41200
O 	O 	0.18270 0.24030 0.40060 -0.37100
O 	O 	0.21190 0.15880 0.47700 -0.39400
O 	O 	0.18920 0.29630 0.03470 -0.39200
O 	O 	0.18430 0.19760 0.99350 -0.42200
O 	O 	0.99590 0.09690 0.94980 -0.39800
O 	O 	0.05270 0.07150 0.05980 -0.41300
C 	C 	0.32060 0.19450 0.35310 -0.26600
C 	C 	0.29820 0.21580 0.27280 0.21400
H 	H 	0.27280 0.24550 0.26130 0.00600
C 	C 	0.31400 0.19280 0.21670 -0.28500
C 	C 	0.35080 0.15430 0.23280 0.29500
C 	C 	0.37630 0.13300 0.31480 -0.44600
H 	H 	0.41030 0.14530 0.32810 0.19500
H 	H 	0.37490 0.08660 0.31710 0.17800
C 	C 	0.35590 0.15930 0.37170 0.32900
C 	C 	0.29600 0.21740 0.41200 0.44900
C 	C 	0.28940 0.21150 0.13570 0.48500
C 	C 	0.07810 0.07260 0.37560 -0.10900
C 	C 	0.11680 0.11020 0.41370 0.08500
H 	H 	0.12650 0.11110 0.46880 0.04500
C 	C 	0.14240 0.14690 0.37520 -0.16100
C 	C 	0.37840 0.34720 0.71500 0.00600
C 	C 	0.13930 0.12320 0.30290 0.16700
C 	C 	0.42290 0.38390 0.74700 0.12200
C 	C 	0.09810 0.08770 0.26010 -0.13200
C 	C 	0.06800 0.05980 0.29690 0.02400
H 	H 	0.04460 0.02640 0.27100 0.05000
C 	C 	0.04920 0.04130 0.42130 0.39200
C 	C 	0.18170 0.18300 0.41910 0.40100
C 	C 	0.11940 0.24070 0.01790 -0.26800
C 	C 	0.09630 0.18110 0.01080 0.20000
H 	H 	0.11400 0.14480 0.00580 0.00300
C 	C 	0.05020 0.17380 0.01070 -0.23900
C 	C 	0.02340 0.22700 0.00940 0.27600
C 	C 	0.04520 0.28690 0.01600 -0.30500
H 	H 	0.02720 0.32340 0.01860 0.17700
C 	C 	0.09060 0.29210 0.01700 0.31700
C 	C 	0.16590 0.24460 0.01460 0.45700
C 	C 	0.03150 0.11030 0.00810 0.42500
O 	O 	0.19530 0.36450 0.37440 -0.17900
N 	N 	0.15040 0.39010 0.23390 -0.03500
C 	C 	0.18070 0.36110 0.30220 0.13700
H 	H 	0.19530 0.32570 0.28680 0.03300
C 	C 	0.10200 0.41300 0.21900 -0.29900
H 	H 	0.09030 0.43000 0.16620 0.13100
H 	H 	0.08090 0.37810 0.22410 0.14300
H 	H 	0.10100 0.44580 0.25640 0.14100
C 	C 	0.16100 0.41800 0.16900 -0.33600
H 	H 	0.19320 0.40500 0.16860 0.14800
H 	H 	0.13770 0.40400 0.12050 0.17500
H 	H 	0.16000 0.46380 0.17250 0.14100
O 	O 	0.23070 0.39280 0.40720 -0.19700
N 	N 	0.27070 0.48720 0.39200 -0.17300
C 	C 	0.26700 0.42540 0.42200 0.19800
C 	C 	0.22640 0.51660 0.34600 0.06000
C 	C 	0.31530 0.52100 0.42200 -0.06700
C 	C 	0.29250 0.52640 0.37900 0.17500
C 	C 	0.48700 0.92500 0.98800 0.03300
C 	C 	0.43300 0.05300 0.03600 0.12900
C 	C 	0.47700 0.01600 0.01700 -0.01900
