data_crystal

_cell_length_a 19.42510
_cell_length_b 36.58900
_cell_length_c 37.76200
_cell_angle_alpha 90.00000
_cell_angle_beta  114.20200
_cell_angle_gamma 90.00000

_symmetry_space_group_name_	'P 1'
_symmetry_space_group_name_H-M	'P 1'

loop_
_symmetry_equiv_pos_as_xyz
  x,y,z

loop_
_atom_site_label
_atom_site_type_symbol
_atom_site_fract_x
_atom_site_fract_y
_atom_site_fract_z
_atom_site_charge
Cu	Cu	0.09641 0.18928 0.24703 0.89600
C 	C 	0.67548 0.98846 0.30985 -0.00300
H 	H 	0.71570 0.97070 0.32420 0.01500
H 	H 	0.64760 0.99410 0.32600 0.00300
C 	C 	0.67134 0.35590 0.33090 -0.00900
H 	H 	0.69240 0.34360 0.35650 0.02300
H 	H 	0.67010 0.38250 0.33550 0.00800
C 	C 	0.48790 0.43387 0.17947 -0.00400
H 	H 	0.44980 0.44760 0.15770 0.01600
H 	H 	0.46490 0.42690 0.19750 0.00700
C 	C 	0.39284 0.41904 0.71849 -0.00900
H 	H 	0.38310 0.44530 0.72090 0.00900
H 	H 	0.34350 0.40670 0.70520 0.02300
Cu	Cu	0.16201 0.18876 0.32339 0.90200
Cu	Cu	0.40693 0.20514 0.94716 0.90100
Cu	Cu	0.55494 0.20090 0.97309 0.89600
Cu	Cu	0.54789 0.45667 0.76222 0.85400
Cu	Cu	0.60501 0.39218 0.24922 0.85400
N 	N 	0.62448 0.97255 0.27348 -0.13800
N 	N 	0.71992 0.34895 0.31097 -0.13700
N 	N 	0.55249 0.45680 0.19941 -0.13800
N 	N 	0.43649 0.41518 0.69499 -0.14300
N 	N 	0.55492 0.98856 0.25407 -0.22800
N 	N 	0.71141 0.37026 0.27979 -0.23100
N 	N 	0.60507 0.44531 0.23428 -0.23500
N 	N 	0.50256 0.43409 0.70614 -0.22400
C 	C 	0.52233 0.97049 0.22025 0.22300
C 	C 	0.76589 0.35971 0.26914 0.22700
C 	C 	0.65978 0.47052 0.24542 0.23200
C 	C 	0.52480 0.42860 0.67735 0.23900
C 	C 	0.57310 0.94350 0.21741 -0.23000
C 	C 	0.81045 0.33187 0.29355 -0.23200
C 	C 	0.64122 0.49848 0.21701 -0.23600
C 	C 	0.47310 0.40692 0.64800 -0.24500
C 	C 	0.63699 0.94562 0.25216 0.23300
C 	C 	0.77864 0.32532 0.32007 0.23900
C 	C 	0.57171 0.48877 0.18807 0.24200
C 	C 	0.41620 0.39865 0.65998 0.26700
C 	C 	0.44489 0.98003 0.19222 -0.58300
H 	H 	0.40980 0.96070 0.19210 0.16800
H 	H 	0.44400 0.98250 0.16620 0.18600
H 	H 	0.42970 0.00320 0.19990 0.16800
C 	C 	0.77450 0.37881 0.23553 -0.58300
H 	H 	0.75450 0.36310 0.21250 0.17400
H 	H 	0.82810 0.38370 0.24240 0.18700
H 	H 	0.74660 0.40190 0.23000 0.17100
C 	C 	0.72755 0.46606 0.28259 -0.60300
H 	H 	0.72390 0.48260 0.30220 0.18000
H 	H 	0.77300 0.47190 0.27850 0.19000
H 	H 	0.73040 0.44080 0.29160 0.16800
C 	C 	0.59660 0.44713 0.68002 -0.59100
H 	H 	0.60880 0.46740 0.69860 0.17800
H 	H 	0.58920 0.45660 0.65440 0.19200
H 	H 	0.63810 0.42940 0.68880 0.18000
C 	C 	0.70785 0.92371 0.26809 -0.58300
H 	H 	0.74780 0.93680 0.26380 0.17900
H 	H 	0.69910 0.89990 0.25500 0.18500
H 	H 	0.72330 0.92000 0.29600 0.17900
C 	C 	0.79730 0.29810 0.35213 -0.58800
H 	H 	0.82080 0.31060 0.37720 0.18400
H 	H 	0.83240 0.27990 0.35000 0.19000
H 	H 	0.75100 0.28590 0.35020 0.18100
C 	C 	0.52192 0.50750 0.15197 -0.60300
H 	H 	0.53260 0.49860 0.13030 0.18500
H 	H 	0.53100 0.53390 0.15490 0.19000
H 	H 	0.46910 0.50250 0.14680 0.17700
C 	C 	0.34930 0.37590 0.64266 -0.63200
H 	H 	0.35020 0.35690 0.66120 0.19500
H 	H 	0.34840 0.36440 0.61900 0.20200
H 	H 	0.30410 0.39100 0.63610 0.19600
C 	C 	0.56124 0.91899 0.18433 0.15300
C 	C 	0.87510 0.31242 0.29181 0.16600
C 	C 	0.68487 0.53176 0.21739 0.15900
C 	C 	0.47740 0.39432 0.61162 0.16300
C 	C 	0.48989 0.90603 0.16002 -0.17400
H 	H 	0.44730 0.91320 0.16470 0.07400
C 	C 	0.87460 0.30152 0.25619 -0.18500
H 	H 	0.83420 0.30880 0.23280 0.08000
C 	C 	0.73195 0.54855 0.25242 -0.18100
H 	H 	0.73750 0.53800 0.27640 0.07700
C 	C 	0.54460 0.38167 0.61160 -0.18100
H 	H 	0.58950 0.38310 0.63470 0.08100
C 	C 	0.47983 0.88297 0.12916 0.07700
H 	H 	0.43060 0.87490 0.11260 0.00600
C 	C 	0.93250 0.28015 0.25455 0.08100
H 	H 	0.93170 0.27310 0.23020 0.01000
C 	C 	0.77046 0.58043 0.25224 0.07500
H 	H 	0.80300 0.59130 0.27610 0.00500
C 	C 	0.54740 0.36679 0.57790 0.07300
H 	H 	0.59420 0.35890 0.57820 0.01500
C 	C 	0.54162 0.87158 0.12247 -0.14000
C 	C 	0.99200 0.26901 0.28901 -0.14700
C 	C 	0.76150 0.59656 0.21696 -0.15200
C 	C 	0.48190 0.36368 0.54427 -0.13300
C 	C 	0.61378 0.88450 0.14631 0.07700
H 	H 	0.65640 0.87690 0.14190 0.01500
C 	C 	0.99425 0.28129 0.32420 0.09100
H 	H 	0.03530 0.27470 0.34770 0.00800
C 	C 	0.71709 0.58000 0.18292 0.08600
H 	H 	0.71140 0.59090 0.15910 0.00900
C 	C 	0.41360 0.37732 0.54383 0.07700
H 	H 	0.36860 0.37580 0.52080 0.01300
C 	C 	0.62252 0.90833 0.17613 -0.17800
H 	H 	0.67130 0.91780 0.19150 0.08100
C 	C 	0.93740 0.30302 0.32518 -0.19700
H 	H 	0.94090 0.31190 0.34950 0.08700
C 	C 	0.67984 0.54730 0.18237 -0.18400
H 	H 	0.65110 0.53550 0.15840 0.08100
C 	C 	0.41230 0.39276 0.57679 -0.18600
H 	H 	0.36640 0.40260 0.57590 0.08200
C 	C 	0.53210 0.84464 0.09034 0.35600
C 	C 	0.04892 0.24210 0.28780 0.36000
C 	C 	0.80073 0.63192 0.21677 0.36200
C 	C 	0.48220 0.34252 0.51022 0.34600
O 	O 	0.59285 0.83066 0.09121 -0.41100
O 	O 	0.04701 0.23367 0.25443 -0.40800
O 	O 	0.84841 0.64355 0.24920 -0.41700
O 	O 	0.41746 0.33386 0.48423 -0.40500
O 	O 	0.46588 0.83741 0.06660 -0.41900
O 	O 	0.09249 0.22863 0.31989 -0.41100
O 	O 	0.78212 0.64733 0.18433 -0.41900
O 	O 	0.54640 0.33400 0.51092 -0.40300
N 	N 	0.70903 0.02159 0.30306 -0.13700
N 	N 	0.59535 0.34297 0.30875 -0.13500
N 	N 	0.50933 0.40101 0.16458 -0.13800
N 	N 	0.43162 0.40364 0.75682 -0.13700
N 	N 	0.66275 0.05072 0.28787 -0.22900
N 	N 	0.55302 0.36013 0.27506 -0.23300
N 	N 	0.55641 0.37700 0.19136 -0.22800
N 	N 	0.49398 0.42130 0.78295 -0.23600
C 	C 	0.70670 0.07672 0.28325 0.23000
C 	C 	0.48584 0.34372 0.26175 0.25500
C 	C 	0.56380 0.34925 0.17023 0.24500
C 	C 	0.51864 0.40078 0.81537 0.24200
C 	C 	0.78127 0.06403 0.29559 -0.23400
C 	C 	0.48524 0.31646 0.28778 -0.24100
C 	C 	0.52280 0.35567 0.13074 -0.24400
C 	C 	0.46996 0.37034 0.80966 -0.24200
C 	C 	0.78031 0.02858 0.30793 0.23600
C 	C 	0.55559 0.31654 0.31748 0.24900
C 	C 	0.48770 0.38924 0.12772 0.24800
C 	C 	0.41625 0.37250 0.77193 0.26500
C 	C 	0.67430 0.11404 0.26824 -0.59100
H 	H 	0.66300 0.11570 0.24050 0.18000
H 	H 	0.71100 0.13290 0.28240 0.19000
H 	H 	0.62780 0.11760 0.27210 0.17200
C 	C 	0.42290 0.35572 0.22434 -0.63000
H 	H 	0.42270 0.38240 0.22260 0.19300
H 	H 	0.37450 0.34740 0.22370 0.20100
H 	H 	0.43050 0.34510 0.20240 0.19500
C 	C 	0.61080 0.31663 0.19032 -0.60200
H 	H 	0.66210 0.31960 0.19170 0.18200
H 	H 	0.58810 0.29440 0.17570 0.19400
H 	H 	0.61290 0.31470 0.21660 0.17900
C 	C 	0.58699 0.41098 0.84996 -0.60900
H 	H 	0.62970 0.39600 0.85100 0.18500
H 	H 	0.57820 0.40680 0.87340 0.19200
H 	H 	0.59840 0.43690 0.84840 0.16800
C 	C 	0.84270 0.00078 0.32427 -0.56900
H 	H 	0.85740 0.99830 0.35230 0.17700
H 	H 	0.88640 0.00880 0.31960 0.18300
H 	H 	0.82500 0.97710 0.31160 0.17500
C 	C 	0.59029 0.29332 0.35381 -0.60300
H 	H 	0.63920 0.28390 0.35620 0.18700
H 	H 	0.55660 0.27280 0.35210 0.20500
H 	H 	0.59750 0.30820 0.37660 0.20400
C 	C 	0.43750 0.41076 0.09335 -0.59700
H 	H 	0.38580 0.41020 0.09160 0.18400
H 	H 	0.43850 0.40020 0.06970 0.19000
H 	H 	0.45510 0.43610 0.09610 0.18500
C 	C 	0.35382 0.34727 0.74899 -0.63300
H 	H 	0.30590 0.36070 0.73890 0.21100
H 	H 	0.35130 0.32730 0.76570 0.21500
H 	H 	0.36310 0.33730 0.72730 0.19900
C 	C 	0.84557 0.08452 0.29434 0.16800
C 	C 	0.42000 0.29377 0.28551 0.16800
C 	C 	0.51480 0.33058 0.09808 0.17200
C 	C 	0.47532 0.34178 0.83836 0.16800
C 	C 	0.91340 0.08870 0.32674 -0.19800
H 	H 	0.92000 0.07710 0.35040 0.08700
C 	C 	0.40277 0.29056 0.31797 -0.19100
H 	H 	0.43290 0.30300 0.34130 0.10200
C 	C 	0.57750 0.31542 0.09555 -0.19400
H 	H 	0.62620 0.32250 0.11370 0.08600
C 	C 	0.54283 0.32349 0.85938 -0.19000
H 	H 	0.58740 0.33010 0.85630 0.08100
C 	C 	0.97110 0.10941 0.32504 0.09200
H 	H 	0.01610 0.11290 0.34780 0.00700
C 	C 	0.34277 0.26955 0.31661 0.09600
H 	H 	0.33290 0.26730 0.33920 0.02000
C 	C 	0.57110 0.28965 0.06671 0.08600
H 	H 	0.61500 0.27910 0.06570 0.01000
C 	C 	0.54499 0.29550 0.88501 0.08000
H 	H 	0.59120 0.28330 0.89950 0.00300
C 	C 	0.96417 0.12517 0.29028 -0.15300
C 	C 	0.29735 0.25193 0.28324 -0.15500
C 	C 	0.50070 0.27985 0.03997 -0.14900
C 	C 	0.48017 0.28538 0.88939 -0.15300
C 	C 	0.89850 0.12072 0.25771 0.08800
H 	H 	0.89350 0.13100 0.23370 0.00900
C 	C 	0.31210 0.25513 0.24998 0.08100
H 	H 	0.28070 0.24310 0.22660 0.00300
C 	C 	0.43630 0.29569 0.04125 0.08600
H 	H 	0.38740 0.28960 0.02240 0.00900
C 	C 	0.41243 0.30395 0.86905 0.09100
H 	H 	0.36810 0.29730 0.87240 0.01600
C 	C 	0.83900 0.10101 0.26005 -0.19100
H 	H 	0.79300 0.09880 0.23760 0.08200
C 	C 	0.37316 0.27603 0.25150 -0.19200
H 	H 	0.38310 0.27820 0.22890 0.08200
C 	C 	0.44530 0.32069 0.07082 -0.19600
H 	H 	0.40160 0.33120 0.07210 0.08600
C 	C 	0.41035 0.33211 0.84398 -0.19300
H 	H 	0.36450 0.34500 0.83050 0.10300
C 	C 	0.02690 0.14860 0.28890 0.37000
C 	C 	0.23355 0.22886 0.28268 0.36100
C 	C 	0.49280 0.25146 0.01005 0.36300
C 	C 	0.48107 0.25393 0.91528 0.37300
O 	O 	0.08276 0.15452 0.32052 -0.41300
O 	O 	0.23122 0.22291 0.31526 -0.41500
O 	O 	0.55360 0.24022 0.00845 -0.40800
O 	O 	0.41871 0.24507 0.91580 -0.41800
O 	O 	0.01854 0.16079 0.25605 -0.41200
O 	O 	0.18595 0.21714 0.25018 -0.41300
O 	O 	0.42705 0.24032 0.98942 -0.41100
O 	O 	0.54324 0.23855 0.93385 -0.42400
Cu	Cu	0.90359 0.68928 0.25297 0.89700
C 	C 	0.32452 0.48846 0.19015 -0.00200
H 	H 	0.28430 0.47070 0.17580 0.01600
H 	H 	0.35240 0.49410 0.17400 0.00400
C 	C 	0.32866 0.85590 0.16910 -0.00800
H 	H 	0.30760 0.84360 0.14350 0.02400
H 	H 	0.32990 0.88250 0.16450 0.00900
C 	C 	0.51210 0.93387 0.32053 -0.00300
H 	H 	0.55020 0.94760 0.34230 0.01700
H 	H 	0.53510 0.92690 0.30250 0.00800
C 	C 	0.60716 0.91904 0.78151 -0.00800
H 	H 	0.61690 0.94530 0.77910 0.01000
H 	H 	0.65650 0.90670 0.79480 0.02400
Cu	Cu	0.83799 0.68876 0.17661 0.90300
Cu	Cu	0.59307 0.70514 0.55284 0.90200
Cu	Cu	0.44506 0.70090 0.52691 0.89700
Cu	Cu	0.45211 0.95667 0.73778 0.85400
Cu	Cu	0.39499 0.89218 0.25078 0.85400
N 	N 	0.37552 0.47255 0.22652 -0.13800
N 	N 	0.28008 0.84895 0.18903 -0.13700
N 	N 	0.44751 0.95680 0.30059 -0.13800
N 	N 	0.56351 0.91518 0.80501 -0.14300
N 	N 	0.44508 0.48856 0.24593 -0.22800
N 	N 	0.28859 0.87026 0.22021 -0.23100
N 	N 	0.39493 0.94531 0.26572 -0.23500
N 	N 	0.49744 0.93409 0.79386 -0.22400
C 	C 	0.47767 0.47049 0.27975 0.22300
C 	C 	0.23411 0.85971 0.23086 0.22700
C 	C 	0.34022 0.97052 0.25458 0.23200
C 	C 	0.47520 0.92860 0.82265 0.23900
C 	C 	0.42690 0.44350 0.28259 -0.23000
C 	C 	0.18955 0.83187 0.20645 -0.23200
C 	C 	0.35878 0.99848 0.28299 -0.23600
C 	C 	0.52690 0.90692 0.85200 -0.24500
C 	C 	0.36301 0.44562 0.24784 0.23300
C 	C 	0.22136 0.82532 0.17993 0.23900
C 	C 	0.42829 0.98877 0.31193 0.24200
C 	C 	0.58380 0.89865 0.84002 0.26700
C 	C 	0.55511 0.48003 0.30778 -0.58300
H 	H 	0.59020 0.46070 0.30790 0.16800
H 	H 	0.55600 0.48250 0.33380 0.18600
H 	H 	0.57030 0.50320 0.30010 0.16800
C 	C 	0.22550 0.87881 0.26447 -0.58300
H 	H 	0.24550 0.86310 0.28750 0.17400
H 	H 	0.17190 0.88370 0.25760 0.18700
H 	H 	0.25340 0.90190 0.27000 0.17100
C 	C 	0.27245 0.96606 0.21741 -0.60300
H 	H 	0.27610 0.98260 0.19780 0.18000
H 	H 	0.22700 0.97190 0.22150 0.19000
H 	H 	0.26960 0.94080 0.20840 0.16800
C 	C 	0.40340 0.94713 0.81998 -0.59100
H 	H 	0.39120 0.96740 0.80140 0.17800
H 	H 	0.41080 0.95660 0.84560 0.19200
H 	H 	0.36190 0.92940 0.81120 0.18000
C 	C 	0.29215 0.42371 0.23191 -0.58300
H 	H 	0.25220 0.43680 0.23620 0.17900
H 	H 	0.30090 0.39990 0.24500 0.18500
H 	H 	0.27670 0.42000 0.20400 0.17900
C 	C 	0.20270 0.79810 0.14787 -0.58800
H 	H 	0.17920 0.81060 0.12280 0.18400
H 	H 	0.16760 0.77990 0.15000 0.19000
H 	H 	0.24900 0.78590 0.14980 0.18100
C 	C 	0.47808 0.00750 0.34803 -0.60300
H 	H 	0.46740 0.99860 0.36970 0.18500
H 	H 	0.46900 0.03390 0.34510 0.19000
H 	H 	0.53090 0.00250 0.35320 0.17700
C 	C 	0.65070 0.87590 0.85734 -0.63200
H 	H 	0.64980 0.85690 0.83880 0.19500
H 	H 	0.65160 0.86440 0.88100 0.20200
H 	H 	0.69590 0.89100 0.86390 0.19600
C 	C 	0.43876 0.41899 0.31567 0.15300
C 	C 	0.12490 0.81242 0.20819 0.16600
C 	C 	0.31513 0.03176 0.28261 0.15800
C 	C 	0.52260 0.89432 0.88838 0.16300
C 	C 	0.51011 0.40603 0.33998 -0.17400
H 	H 	0.55270 0.41320 0.33530 0.07400
C 	C 	0.12540 0.80152 0.24381 -0.18500
H 	H 	0.16580 0.80880 0.26720 0.08000
C 	C 	0.26805 0.04855 0.24758 -0.18100
H 	H 	0.26250 0.03800 0.22360 0.07700
C 	C 	0.45540 0.88167 0.88840 -0.18100
H 	H 	0.41050 0.88310 0.86530 0.08100
C 	C 	0.52017 0.38297 0.37084 0.07700
H 	H 	0.56940 0.37490 0.38740 0.00600
C 	C 	0.06750 0.78015 0.24545 0.08100
H 	H 	0.06830 0.77310 0.26980 0.01000
C 	C 	0.22954 0.08043 0.24776 0.07500
H 	H 	0.19700 0.09130 0.22390 0.00500
C 	C 	0.45260 0.86679 0.92210 0.07300
H 	H 	0.40580 0.85890 0.92180 0.01500
C 	C 	0.45838 0.37158 0.37753 -0.14000
C 	C 	0.00800 0.76901 0.21099 -0.14700
C 	C 	0.23850 0.09656 0.28304 -0.15200
C 	C 	0.51810 0.86368 0.95573 -0.13300
C 	C 	0.38622 0.38450 0.35369 0.07700
H 	H 	0.34360 0.37690 0.35810 0.01500
C 	C 	0.00575 0.78129 0.17580 0.09100
H 	H 	0.96470 0.77470 0.15230 0.00800
C 	C 	0.28291 0.08000 0.31708 0.08600
H 	H 	0.28860 0.09090 0.34090 0.00900
C 	C 	0.58640 0.87732 0.95617 0.07700
H 	H 	0.63140 0.87580 0.97920 0.01300
C 	C 	0.37748 0.40833 0.32387 -0.17800
H 	H 	0.32870 0.41780 0.30850 0.08100
C 	C 	0.06260 0.80302 0.17482 -0.19700
H 	H 	0.05910 0.81190 0.15050 0.08700
C 	C 	0.32016 0.04730 0.31763 -0.18400
H 	H 	0.34890 0.03550 0.34160 0.08100
C 	C 	0.58770 0.89276 0.92321 -0.18600
H 	H 	0.63360 0.90260 0.92410 0.08200
C 	C 	0.46790 0.34464 0.40966 0.35600
C 	C 	0.95108 0.74210 0.21220 0.36000
C 	C 	0.19927 0.13192 0.28323 0.36200
C 	C 	0.51780 0.84252 0.98978 0.34600
O 	O 	0.40715 0.33066 0.40879 -0.41100
O 	O 	0.95299 0.73367 0.24557 -0.40800
O 	O 	0.15159 0.14355 0.25080 -0.41700
O 	O 	0.58254 0.83386 0.01577 -0.40500
O 	O 	0.53412 0.33741 0.43340 -0.41900
O 	O 	0.90751 0.72863 0.18011 -0.41100
O 	O 	0.21788 0.14733 0.31567 -0.41900
O 	O 	0.45360 0.83400 0.98908 -0.40300
N 	N 	0.29097 0.52159 0.19694 -0.13700
N 	N 	0.40465 0.84297 0.19125 -0.13500
N 	N 	0.49067 0.90101 0.33542 -0.13800
N 	N 	0.56838 0.90364 0.74318 -0.13700
N 	N 	0.33725 0.55072 0.21213 -0.22900
N 	N 	0.44698 0.86013 0.22494 -0.23300
N 	N 	0.44359 0.87700 0.30864 -0.22800
N 	N 	0.50602 0.92130 0.71705 -0.23600
C 	C 	0.29330 0.57672 0.21675 0.23000
C 	C 	0.51416 0.84372 0.23825 0.25500
C 	C 	0.43620 0.84925 0.32977 0.24500
C 	C 	0.48136 0.90078 0.68463 0.24200
C 	C 	0.21873 0.56403 0.20441 -0.23400
C 	C 	0.51476 0.81646 0.21222 -0.24100
C 	C 	0.47720 0.85567 0.36926 -0.24400
C 	C 	0.53004 0.87034 0.69034 -0.24200
C 	C 	0.21969 0.52858 0.19207 0.23600
C 	C 	0.44441 0.81654 0.18252 0.24900
C 	C 	0.51230 0.88924 0.37228 0.24800
C 	C 	0.58375 0.87250 0.72807 0.26500
C 	C 	0.32570 0.61404 0.23176 -0.59100
H 	H 	0.33700 0.61570 0.25950 0.18000
H 	H 	0.28900 0.63290 0.21760 0.19000
H 	H 	0.37220 0.61760 0.22790 0.17200
C 	C 	0.57710 0.85572 0.27566 -0.63000
H 	H 	0.57730 0.88240 0.27740 0.19300
H 	H 	0.62550 0.84740 0.27630 0.20100
H 	H 	0.56950 0.84510 0.29760 0.19500
C 	C 	0.38920 0.81663 0.30968 -0.60200
H 	H 	0.33790 0.81960 0.30830 0.18200
H 	H 	0.41190 0.79440 0.32430 0.19400
H 	H 	0.38710 0.81470 0.28340 0.17900
C 	C 	0.41301 0.91098 0.65004 -0.60900
H 	H 	0.37030 0.89600 0.64900 0.18500
H 	H 	0.42180 0.90680 0.62660 0.19200
H 	H 	0.40160 0.93690 0.65160 0.16800
C 	C 	0.15730 0.50078 0.17573 -0.57000
H 	H 	0.14260 0.49830 0.14770 0.17700
H 	H 	0.11360 0.50880 0.18040 0.18300
H 	H 	0.17500 0.47710 0.18840 0.17500
C 	C 	0.40971 0.79332 0.14619 -0.60300
H 	H 	0.36080 0.78390 0.14380 0.18700
H 	H 	0.44340 0.77280 0.14790 0.20500
H 	H 	0.40250 0.80820 0.12340 0.20400
C 	C 	0.56250 0.91076 0.40665 -0.59700
H 	H 	0.61420 0.91020 0.40840 0.18400
H 	H 	0.56150 0.90020 0.43030 0.19000
H 	H 	0.54490 0.93610 0.40390 0.18500
C 	C 	0.64618 0.84727 0.75101 -0.63300
H 	H 	0.69410 0.86070 0.76110 0.21100
H 	H 	0.64870 0.82730 0.73430 0.21500
H 	H 	0.63690 0.83730 0.77270 0.19900
C 	C 	0.15443 0.58452 0.20566 0.16800
C 	C 	0.58000 0.79377 0.21449 0.16800
C 	C 	0.48520 0.83058 0.40192 0.17200
C 	C 	0.52468 0.84178 0.66164 0.16800
C 	C 	0.08660 0.58870 0.17326 -0.19700
H 	H 	0.08000 0.57710 0.14960 0.08700
C 	C 	0.59723 0.79056 0.18203 -0.19100
H 	H 	0.56710 0.80300 0.15870 0.10200
C 	C 	0.42250 0.81542 0.40445 -0.19400
H 	H 	0.37380 0.82250 0.38630 0.08600
C 	C 	0.45717 0.82349 0.64062 -0.19000
H 	H 	0.41260 0.83010 0.64370 0.08100
C 	C 	0.02890 0.60941 0.17496 0.09100
H 	H 	0.98390 0.61290 0.15220 0.00700
C 	C 	0.65723 0.76955 0.18339 0.09600
H 	H 	0.66710 0.76730 0.16080 0.02000
C 	C 	0.42890 0.78965 0.43329 0.08600
H 	H 	0.38500 0.77910 0.43430 0.01000
C 	C 	0.45501 0.79550 0.61499 0.08000
H 	H 	0.40880 0.78330 0.60050 0.00300
C 	C 	0.03583 0.62517 0.20972 -0.15300
C 	C 	0.70265 0.75193 0.21676 -0.15500
C 	C 	0.49930 0.77985 0.46003 -0.14900
C 	C 	0.51983 0.78538 0.61061 -0.15300
C 	C 	0.10150 0.62072 0.24229 0.08800
H 	H 	0.10650 0.63100 0.26630 0.00900
C 	C 	0.68790 0.75513 0.25002 0.08100
H 	H 	0.71930 0.74310 0.27340 0.00300
C 	C 	0.56370 0.79569 0.45875 0.08600
H 	H 	0.61260 0.78960 0.47760 0.00900
C 	C 	0.58757 0.80395 0.63095 0.09100
H 	H 	0.63190 0.79730 0.62760 0.01600
C 	C 	0.16100 0.60101 0.23995 -0.19100
H 	H 	0.20700 0.59880 0.26240 0.08200
C 	C 	0.62684 0.77603 0.24850 -0.19200
H 	H 	0.61690 0.77820 0.27110 0.08200
C 	C 	0.55470 0.82069 0.42918 -0.19600
H 	H 	0.59840 0.83120 0.42790 0.08600
C 	C 	0.58965 0.83211 0.65602 -0.19300
H 	H 	0.63550 0.84500 0.66950 0.10300
C 	C 	0.97310 0.64860 0.21110 0.37000
C 	C 	0.76645 0.72886 0.21732 0.36100
C 	C 	0.50720 0.75146 0.48995 0.36300
C 	C 	0.51893 0.75393 0.58472 0.37300
O 	O 	0.91724 0.65452 0.17948 -0.41300
O 	O 	0.76878 0.72291 0.18474 -0.41500
O 	O 	0.44640 0.74022 0.49155 -0.40800
O 	O 	0.58129 0.74507 0.58420 -0.41800
O 	O 	0.98146 0.66079 0.24395 -0.41200
O 	O 	0.81405 0.71714 0.24982 -0.41300
O 	O 	0.57295 0.74032 0.51058 -0.41100
O 	O 	0.45676 0.73855 0.56615 -0.42400
Cu	Cu	0.90359 0.81072 0.75297 0.89700
C 	C 	0.32452 0.01154 0.69015 -0.00200
H 	H 	0.28430 0.02930 0.67580 0.01600
H 	H 	0.35240 0.00590 0.67400 0.00400
C 	C 	0.32866 0.64410 0.66910 -0.00800
H 	H 	0.30760 0.65640 0.64350 0.02400
H 	H 	0.32990 0.61750 0.66450 0.00900
C 	C 	0.51210 0.56613 0.82053 -0.00300
H 	H 	0.55020 0.55240 0.84230 0.01700
H 	H 	0.53510 0.57310 0.80250 0.00800
C 	C 	0.60716 0.58096 0.28151 -0.00800
H 	H 	0.61690 0.55470 0.27910 0.01000
H 	H 	0.65650 0.59330 0.29480 0.02400
Cu	Cu	0.83799 0.81124 0.67661 0.90300
Cu	Cu	0.59307 0.79486 0.05284 0.90200
Cu	Cu	0.44506 0.79910 0.02691 0.89700
Cu	Cu	0.45211 0.54333 0.23778 0.85400
Cu	Cu	0.39499 0.60782 0.75078 0.85400
N 	N 	0.37552 0.02745 0.72652 -0.13800
N 	N 	0.28008 0.65105 0.68903 -0.13700
N 	N 	0.44751 0.54320 0.80059 -0.13800
N 	N 	0.56351 0.58482 0.30501 -0.14300
N 	N 	0.44508 0.01144 0.74593 -0.22800
N 	N 	0.28859 0.62974 0.72021 -0.23100
N 	N 	0.39493 0.55469 0.76572 -0.23500
N 	N 	0.49744 0.56591 0.29386 -0.22400
C 	C 	0.47767 0.02951 0.77975 0.22300
C 	C 	0.23411 0.64029 0.73086 0.22700
C 	C 	0.34022 0.52948 0.75458 0.23200
C 	C 	0.47520 0.57140 0.32265 0.23900
C 	C 	0.42690 0.05650 0.78259 -0.23000
C 	C 	0.18955 0.66813 0.70645 -0.23200
C 	C 	0.35878 0.50152 0.78299 -0.23600
C 	C 	0.52690 0.59308 0.35200 -0.24500
C 	C 	0.36301 0.05438 0.74784 0.23300
C 	C 	0.22136 0.67468 0.67993 0.23900
C 	C 	0.42829 0.51123 0.81193 0.24200
C 	C 	0.58380 0.60135 0.34002 0.26700
C 	C 	0.55511 0.01997 0.80778 -0.58300
H 	H 	0.59020 0.03930 0.80790 0.16800
H 	H 	0.55600 0.01750 0.83380 0.18600
H 	H 	0.57030 0.99680 0.80010 0.16800
C 	C 	0.22550 0.62119 0.76447 -0.58300
H 	H 	0.24550 0.63690 0.78750 0.17400
H 	H 	0.17190 0.61630 0.75760 0.18700
H 	H 	0.25340 0.59810 0.77000 0.17100
C 	C 	0.27245 0.53394 0.71741 -0.60300
H 	H 	0.27610 0.51740 0.69780 0.18000
H 	H 	0.22700 0.52810 0.72150 0.19000
H 	H 	0.26960 0.55920 0.70840 0.16800
C 	C 	0.40340 0.55287 0.31998 -0.59100
H 	H 	0.39120 0.53260 0.30140 0.17800
H 	H 	0.41080 0.54340 0.34560 0.19200
H 	H 	0.36190 0.57060 0.31120 0.18000
C 	C 	0.29215 0.07629 0.73191 -0.58300
H 	H 	0.25220 0.06320 0.73620 0.17900
H 	H 	0.30090 0.10010 0.74500 0.18500
H 	H 	0.27670 0.08000 0.70400 0.17900
C 	C 	0.20270 0.70190 0.64787 -0.58800
H 	H 	0.17920 0.68940 0.62280 0.18400
H 	H 	0.16760 0.72010 0.65000 0.19000
H 	H 	0.24900 0.71410 0.64980 0.18100
C 	C 	0.47808 0.49250 0.84803 -0.60300
H 	H 	0.46740 0.50140 0.86970 0.18500
H 	H 	0.46900 0.46610 0.84510 0.19000
H 	H 	0.53090 0.49750 0.85320 0.17700
C 	C 	0.65070 0.62410 0.35734 -0.63200
H 	H 	0.64980 0.64310 0.33880 0.19500
H 	H 	0.65160 0.63560 0.38100 0.20200
H 	H 	0.69590 0.60900 0.36390 0.19600
C 	C 	0.43876 0.08101 0.81567 0.15300
C 	C 	0.12490 0.68758 0.70819 0.16600
C 	C 	0.31513 0.46824 0.78261 0.15900
C 	C 	0.52260 0.60568 0.38838 0.16300
C 	C 	0.51011 0.09397 0.83998 -0.17400
H 	H 	0.55270 0.08680 0.83530 0.07400
C 	C 	0.12540 0.69848 0.74381 -0.18500
H 	H 	0.16580 0.69120 0.76720 0.08000
C 	C 	0.26805 0.45145 0.74758 -0.18100
H 	H 	0.26250 0.46200 0.72360 0.07700
C 	C 	0.45540 0.61833 0.38840 -0.18100
H 	H 	0.41050 0.61690 0.36530 0.08100
C 	C 	0.52017 0.11703 0.87084 0.07700
H 	H 	0.56940 0.12510 0.88740 0.00600
C 	C 	0.06750 0.71985 0.74545 0.08100
H 	H 	0.06830 0.72690 0.76980 0.01000
C 	C 	0.22954 0.41957 0.74776 0.07500
H 	H 	0.19700 0.40870 0.72390 0.00500
C 	C 	0.45260 0.63321 0.42210 0.07300
H 	H 	0.40580 0.64110 0.42180 0.01500
C 	C 	0.45838 0.12842 0.87753 -0.14000
C 	C 	0.00800 0.73099 0.71099 -0.14700
C 	C 	0.23850 0.40344 0.78304 -0.15200
C 	C 	0.51810 0.63632 0.45573 -0.13300
C 	C 	0.38622 0.11550 0.85369 0.07700
H 	H 	0.34360 0.12310 0.85810 0.01500
C 	C 	0.00575 0.71871 0.67580 0.09100
H 	H 	0.96470 0.72530 0.65230 0.00800
C 	C 	0.28291 0.42000 0.81708 0.08600
H 	H 	0.28860 0.40910 0.84090 0.00900
C 	C 	0.58640 0.62268 0.45617 0.07700
H 	H 	0.63140 0.62420 0.47920 0.01300
C 	C 	0.37748 0.09167 0.82387 -0.17800
H 	H 	0.32870 0.08220 0.80850 0.08100
C 	C 	0.06260 0.69698 0.67482 -0.19700
H 	H 	0.05910 0.68810 0.65050 0.08700
C 	C 	0.32016 0.45270 0.81763 -0.18400
H 	H 	0.34890 0.46450 0.84160 0.08100
C 	C 	0.58770 0.60724 0.42321 -0.18600
H 	H 	0.63360 0.59740 0.42410 0.08200
C 	C 	0.46790 0.15536 0.90966 0.35600
C 	C 	0.95108 0.75790 0.71220 0.36000
C 	C 	0.19927 0.36808 0.78323 0.36200
C 	C 	0.51780 0.65748 0.48978 0.34600
O 	O 	0.40715 0.16934 0.90879 -0.41100
O 	O 	0.95299 0.76633 0.74557 -0.40800
O 	O 	0.15159 0.35645 0.75080 -0.41700
O 	O 	0.58254 0.66614 0.51577 -0.40500
O 	O 	0.53412 0.16259 0.93340 -0.41900
O 	O 	0.90751 0.77137 0.68011 -0.41100
O 	O 	0.21788 0.35267 0.81567 -0.41900
O 	O 	0.45360 0.66600 0.48908 -0.40300
N 	N 	0.29097 0.97841 0.69694 -0.13700
N 	N 	0.40465 0.65703 0.69125 -0.13500
N 	N 	0.49067 0.59899 0.83542 -0.13800
N 	N 	0.56838 0.59636 0.24318 -0.13700
N 	N 	0.33725 0.94928 0.71213 -0.22900
N 	N 	0.44698 0.63987 0.72494 -0.23300
N 	N 	0.44359 0.62300 0.80864 -0.22800
N 	N 	0.50602 0.57870 0.21705 -0.23600
C 	C 	0.29330 0.92328 0.71675 0.23000
C 	C 	0.51416 0.65628 0.73825 0.25500
C 	C 	0.43620 0.65075 0.82977 0.24500
C 	C 	0.48136 0.59922 0.18463 0.24200
C 	C 	0.21873 0.93597 0.70441 -0.23400
C 	C 	0.51476 0.68354 0.71222 -0.24100
C 	C 	0.47720 0.64433 0.86926 -0.24400
C 	C 	0.53004 0.62966 0.19034 -0.24200
C 	C 	0.21969 0.97142 0.69207 0.23600
C 	C 	0.44441 0.68346 0.68252 0.24900
C 	C 	0.51230 0.61076 0.87228 0.24800
C 	C 	0.58375 0.62750 0.22807 0.26500
C 	C 	0.32570 0.88596 0.73176 -0.59100
H 	H 	0.33700 0.88430 0.75950 0.18000
H 	H 	0.28900 0.86710 0.71760 0.19000
H 	H 	0.37220 0.88240 0.72790 0.17200
C 	C 	0.57710 0.64428 0.77566 -0.63000
H 	H 	0.57730 0.61760 0.77740 0.19300
H 	H 	0.62550 0.65260 0.77630 0.20100
H 	H 	0.56950 0.65490 0.79760 0.19500
C 	C 	0.38920 0.68337 0.80968 -0.60200
H 	H 	0.33790 0.68040 0.80830 0.18200
H 	H 	0.41190 0.70560 0.82430 0.19400
H 	H 	0.38710 0.68530 0.78340 0.17900
C 	C 	0.41301 0.58902 0.15004 -0.60900
H 	H 	0.37030 0.60400 0.14900 0.18500
H 	H 	0.42180 0.59320 0.12660 0.19200
H 	H 	0.40160 0.56310 0.15160 0.16800
C 	C 	0.15730 0.99922 0.67573 -0.56900
H 	H 	0.14260 0.00170 0.64770 0.17700
H 	H 	0.11360 0.99120 0.68040 0.18300
H 	H 	0.17500 0.02290 0.68840 0.17500
C 	C 	0.40971 0.70668 0.64619 -0.60300
H 	H 	0.36080 0.71610 0.64380 0.18700
H 	H 	0.44340 0.72720 0.64790 0.20500
H 	H 	0.40250 0.69180 0.62340 0.20400
C 	C 	0.56250 0.58924 0.90665 -0.59700
H 	H 	0.61420 0.58980 0.90840 0.18400
H 	H 	0.56150 0.59980 0.93030 0.19000
H 	H 	0.54490 0.56390 0.90390 0.18500
C 	C 	0.64618 0.65273 0.25101 -0.63300
H 	H 	0.69410 0.63930 0.26110 0.21100
H 	H 	0.64870 0.67270 0.23430 0.21500
H 	H 	0.63690 0.66270 0.27270 0.19900
C 	C 	0.15443 0.91548 0.70566 0.16800
C 	C 	0.58000 0.70623 0.71449 0.16800
C 	C 	0.48520 0.66942 0.90192 0.17200
C 	C 	0.52468 0.65822 0.16164 0.16800
C 	C 	0.08660 0.91130 0.67326 -0.19800
H 	H 	0.08000 0.92290 0.64960 0.08700
C 	C 	0.59723 0.70944 0.68203 -0.19100
H 	H 	0.56710 0.69700 0.65870 0.10200
C 	C 	0.42250 0.68458 0.90445 -0.19400
H 	H 	0.37380 0.67750 0.88630 0.08600
C 	C 	0.45717 0.67651 0.14062 -0.19000
H 	H 	0.41260 0.66990 0.14370 0.08100
C 	C 	0.02890 0.89059 0.67496 0.09200
H 	H 	0.98390 0.88710 0.65220 0.00700
C 	C 	0.65723 0.73045 0.68339 0.09600
H 	H 	0.66710 0.73270 0.66080 0.02000
C 	C 	0.42890 0.71035 0.93329 0.08600
H 	H 	0.38500 0.72090 0.93430 0.01000
C 	C 	0.45501 0.70450 0.11499 0.08000
H 	H 	0.40880 0.71670 0.10050 0.00300
C 	C 	0.03583 0.87483 0.70972 -0.15300
C 	C 	0.70265 0.74807 0.71676 -0.15500
C 	C 	0.49930 0.72015 0.96003 -0.14900
C 	C 	0.51983 0.71462 0.11061 -0.15300
C 	C 	0.10150 0.87928 0.74229 0.08800
H 	H 	0.10650 0.86900 0.76630 0.00900
C 	C 	0.68790 0.74487 0.75002 0.08100
H 	H 	0.71930 0.75690 0.77340 0.00300
C 	C 	0.56370 0.70431 0.95875 0.08600
H 	H 	0.61260 0.71040 0.97760 0.00900
C 	C 	0.58757 0.69605 0.13095 0.09100
H 	H 	0.63190 0.70270 0.12760 0.01600
C 	C 	0.16100 0.89899 0.73995 -0.19100
H 	H 	0.20700 0.90120 0.76240 0.08200
C 	C 	0.62684 0.72397 0.74850 -0.19200
H 	H 	0.61690 0.72180 0.77110 0.08200
C 	C 	0.55470 0.67931 0.92918 -0.19600
H 	H 	0.59840 0.66880 0.92790 0.08600
C 	C 	0.58965 0.66789 0.15602 -0.19300
H 	H 	0.63550 0.65500 0.16950 0.10300
C 	C 	0.97310 0.85140 0.71110 0.37000
C 	C 	0.76645 0.77114 0.71732 0.36100
C 	C 	0.50720 0.74854 0.98995 0.36300
C 	C 	0.51893 0.74607 0.08472 0.37300
O 	O 	0.91724 0.84548 0.67948 -0.41300
O 	O 	0.76878 0.77709 0.68474 -0.41500
O 	O 	0.44640 0.75978 0.99155 -0.40800
O 	O 	0.58129 0.75493 0.08420 -0.41800
O 	O 	0.98146 0.83921 0.74395 -0.41200
O 	O 	0.81405 0.78286 0.74982 -0.41300
O 	O 	0.57295 0.75968 0.01058 -0.41100
O 	O 	0.45676 0.76145 0.06615 -0.42400
Cu	Cu	0.09641 0.31072 0.74703 0.89700
C 	C 	0.67548 0.51154 0.80985 -0.00200
H 	H 	0.71570 0.52930 0.82420 0.01600
H 	H 	0.64760 0.50590 0.82600 0.00400
C 	C 	0.67134 0.14410 0.83090 -0.00800
H 	H 	0.69240 0.15640 0.85650 0.02400
H 	H 	0.67010 0.11750 0.83550 0.00900
C 	C 	0.48790 0.06613 0.67947 -0.00300
H 	H 	0.44980 0.05240 0.65770 0.01700
H 	H 	0.46490 0.07310 0.69750 0.00800
C 	C 	0.39284 0.08096 0.21849 -0.00800
H 	H 	0.38310 0.05470 0.22090 0.01000
H 	H 	0.34350 0.09330 0.20520 0.02400
Cu	Cu	0.16201 0.31124 0.82339 0.90300
Cu	Cu	0.40693 0.29486 0.44716 0.90200
Cu	Cu	0.55494 0.29910 0.47309 0.89700
Cu	Cu	0.54789 0.04333 0.26222 0.85400
Cu	Cu	0.60501 0.10782 0.74922 0.85400
N 	N 	0.62448 0.52745 0.77348 -0.13800
N 	N 	0.71992 0.15105 0.81097 -0.13700
N 	N 	0.55249 0.04320 0.69941 -0.13800
N 	N 	0.43649 0.08482 0.19499 -0.14300
N 	N 	0.55492 0.51144 0.75407 -0.22800
N 	N 	0.71141 0.12974 0.77979 -0.23100
N 	N 	0.60507 0.05469 0.73428 -0.23500
N 	N 	0.50256 0.06591 0.20614 -0.22400
C 	C 	0.52233 0.52951 0.72025 0.22300
C 	C 	0.76589 0.14029 0.76914 0.22700
C 	C 	0.65978 0.02948 0.74542 0.23200
C 	C 	0.52480 0.07140 0.17735 0.23900
C 	C 	0.57310 0.55650 0.71741 -0.23000
C 	C 	0.81045 0.16813 0.79355 -0.23200
C 	C 	0.64122 0.00152 0.71701 -0.23600
C 	C 	0.47310 0.09308 0.14800 -0.24500
C 	C 	0.63699 0.55438 0.75216 0.23300
C 	C 	0.77864 0.17468 0.82007 0.23900
C 	C 	0.57171 0.01123 0.68807 0.24200
C 	C 	0.41620 0.10135 0.15998 0.26700
C 	C 	0.44489 0.51997 0.69222 -0.58300
H 	H 	0.40980 0.53930 0.69210 0.16800
H 	H 	0.44400 0.51750 0.66620 0.18600
H 	H 	0.42970 0.49680 0.69990 0.16800
C 	C 	0.77450 0.12119 0.73553 -0.58300
H 	H 	0.75450 0.13690 0.71250 0.17400
H 	H 	0.82810 0.11630 0.74240 0.18700
H 	H 	0.74660 0.09810 0.73000 0.17100
C 	C 	0.72755 0.03394 0.78259 -0.60300
H 	H 	0.72390 0.01740 0.80220 0.18000
H 	H 	0.77300 0.02810 0.77850 0.19000
H 	H 	0.73040 0.05920 0.79160 0.16800
C 	C 	0.59660 0.05287 0.18002 -0.59100
H 	H 	0.60880 0.03260 0.19860 0.17800
H 	H 	0.58920 0.04340 0.15440 0.19200
H 	H 	0.63810 0.07060 0.18880 0.18000
C 	C 	0.70785 0.57629 0.76809 -0.58300
H 	H 	0.74780 0.56320 0.76380 0.17900
H 	H 	0.69910 0.60010 0.75500 0.18500
H 	H 	0.72330 0.58000 0.79600 0.17900
C 	C 	0.79730 0.20190 0.85213 -0.58800
H 	H 	0.82080 0.18940 0.87720 0.18400
H 	H 	0.83240 0.22010 0.85000 0.19000
H 	H 	0.75100 0.21410 0.85020 0.18100
C 	C 	0.52192 0.99250 0.65197 -0.60300
H 	H 	0.53260 0.00140 0.63030 0.18500
H 	H 	0.53100 0.96610 0.65490 0.19000
H 	H 	0.46910 0.99750 0.64680 0.17700
C 	C 	0.34930 0.12410 0.14266 -0.63200
H 	H 	0.35020 0.14310 0.16120 0.19500
H 	H 	0.34840 0.13560 0.11900 0.20200
H 	H 	0.30410 0.10900 0.13610 0.19600
C 	C 	0.56124 0.58101 0.68433 0.15300
C 	C 	0.87510 0.18758 0.79181 0.16600
C 	C 	0.68487 0.96824 0.71739 0.15800
C 	C 	0.47740 0.10568 0.11162 0.16300
C 	C 	0.48989 0.59397 0.66002 -0.17400
H 	H 	0.44730 0.58680 0.66470 0.07400
C 	C 	0.87460 0.19848 0.75619 -0.18500
H 	H 	0.83420 0.19120 0.73280 0.08000
C 	C 	0.73195 0.95145 0.75242 -0.18100
H 	H 	0.73750 0.96200 0.77640 0.07700
C 	C 	0.54460 0.11833 0.11160 -0.18100
H 	H 	0.58950 0.11690 0.13470 0.08100
C 	C 	0.47983 0.61703 0.62916 0.07700
H 	H 	0.43060 0.62510 0.61260 0.00600
C 	C 	0.93250 0.21985 0.75455 0.08100
H 	H 	0.93170 0.22690 0.73020 0.01000
C 	C 	0.77046 0.91957 0.75224 0.07500
H 	H 	0.80300 0.90870 0.77610 0.00500
C 	C 	0.54740 0.13321 0.07790 0.07300
H 	H 	0.59420 0.14110 0.07820 0.01500
C 	C 	0.54162 0.62842 0.62247 -0.14000
C 	C 	0.99200 0.23099 0.78901 -0.14700
C 	C 	0.76150 0.90344 0.71696 -0.15200
C 	C 	0.48190 0.13632 0.04427 -0.13300
C 	C 	0.61378 0.61550 0.64631 0.07700
H 	H 	0.65640 0.62310 0.64190 0.01500
C 	C 	0.99425 0.21871 0.82420 0.09100
H 	H 	0.03530 0.22530 0.84770 0.00800
C 	C 	0.71709 0.92000 0.68292 0.08600
H 	H 	0.71140 0.90910 0.65910 0.00900
C 	C 	0.41360 0.12268 0.04383 0.07700
H 	H 	0.36860 0.12420 0.02080 0.01300
C 	C 	0.62252 0.59167 0.67613 -0.17800
H 	H 	0.67130 0.58220 0.69150 0.08100
C 	C 	0.93740 0.19698 0.82518 -0.19700
H 	H 	0.94090 0.18810 0.84950 0.08700
C 	C 	0.67984 0.95270 0.68237 -0.18400
H 	H 	0.65110 0.96450 0.65840 0.08100
C 	C 	0.41230 0.10724 0.07679 -0.18600
H 	H 	0.36640 0.09740 0.07590 0.08200
C 	C 	0.53210 0.65536 0.59034 0.35600
C 	C 	0.04892 0.25790 0.78780 0.36000
C 	C 	0.80073 0.86808 0.71677 0.36200
C 	C 	0.48220 0.15748 0.01022 0.34600
O 	O 	0.59285 0.66934 0.59121 -0.41100
O 	O 	0.04701 0.26633 0.75443 -0.40800
O 	O 	0.84841 0.85645 0.74920 -0.41700
O 	O 	0.41746 0.16614 0.98423 -0.40500
O 	O 	0.46588 0.66259 0.56660 -0.41900
O 	O 	0.09249 0.27137 0.81989 -0.41100
O 	O 	0.78212 0.85267 0.68433 -0.41900
O 	O 	0.54640 0.16600 0.01092 -0.40300
N 	N 	0.70903 0.47841 0.80306 -0.13700
N 	N 	0.59535 0.15703 0.80875 -0.13500
N 	N 	0.50933 0.09899 0.66458 -0.13800
N 	N 	0.43162 0.09636 0.25682 -0.13700
N 	N 	0.66275 0.44928 0.78787 -0.22900
N 	N 	0.55302 0.13987 0.77506 -0.23300
N 	N 	0.55641 0.12300 0.69136 -0.22800
N 	N 	0.49398 0.07870 0.28295 -0.23600
C 	C 	0.70670 0.42328 0.78325 0.23000
C 	C 	0.48584 0.15628 0.76175 0.25500
C 	C 	0.56380 0.15075 0.67023 0.24500
C 	C 	0.51864 0.09922 0.31537 0.24200
C 	C 	0.78127 0.43597 0.79559 -0.23400
C 	C 	0.48524 0.18354 0.78778 -0.24100
C 	C 	0.52280 0.14433 0.63074 -0.24400
C 	C 	0.46996 0.12966 0.30966 -0.24200
C 	C 	0.78031 0.47142 0.80793 0.23600
C 	C 	0.55559 0.18346 0.81748 0.24900
C 	C 	0.48770 0.11076 0.62772 0.24800
C 	C 	0.41625 0.12750 0.27193 0.26500
C 	C 	0.67430 0.38596 0.76824 -0.59100
H 	H 	0.66300 0.38430 0.74050 0.18000
H 	H 	0.71100 0.36710 0.78240 0.19000
H 	H 	0.62780 0.38240 0.77210 0.17200
C 	C 	0.42290 0.14428 0.72434 -0.63000
H 	H 	0.42270 0.11760 0.72260 0.19300
H 	H 	0.37450 0.15260 0.72370 0.20100
H 	H 	0.43050 0.15490 0.70240 0.19500
C 	C 	0.61080 0.18337 0.69032 -0.60200
H 	H 	0.66210 0.18040 0.69170 0.18200
H 	H 	0.58810 0.20560 0.67570 0.19400
H 	H 	0.61290 0.18530 0.71660 0.17900
C 	C 	0.58699 0.08902 0.34996 -0.60900
H 	H 	0.62970 0.10400 0.35100 0.18500
H 	H 	0.57820 0.09320 0.37340 0.19200
H 	H 	0.59840 0.06310 0.34840 0.16800
C 	C 	0.84270 0.49922 0.82427 -0.57000
H 	H 	0.85740 0.50170 0.85230 0.17700
H 	H 	0.88640 0.49120 0.81960 0.18300
H 	H 	0.82500 0.52290 0.81160 0.17500
C 	C 	0.59029 0.20668 0.85381 -0.60300
H 	H 	0.63920 0.21610 0.85620 0.18700
H 	H 	0.55660 0.22720 0.85210 0.20500
H 	H 	0.59750 0.19180 0.87660 0.20400
C 	C 	0.43750 0.08924 0.59335 -0.59700
H 	H 	0.38580 0.08980 0.59160 0.18400
H 	H 	0.43850 0.09980 0.56970 0.19000
H 	H 	0.45510 0.06390 0.59610 0.18500
C 	C 	0.35382 0.15273 0.24899 -0.63300
H 	H 	0.30590 0.13930 0.23890 0.21100
H 	H 	0.35130 0.17270 0.26570 0.21500
H 	H 	0.36310 0.16270 0.22730 0.19900
C 	C 	0.84557 0.41548 0.79434 0.16800
C 	C 	0.42000 0.20623 0.78551 0.16800
C 	C 	0.51480 0.16942 0.59808 0.17200
C 	C 	0.47532 0.15822 0.33836 0.16800
C 	C 	0.91340 0.41130 0.82674 -0.19700
H 	H 	0.92000 0.42290 0.85040 0.08700
C 	C 	0.40277 0.20944 0.81797 -0.19100
H 	H 	0.43290 0.19700 0.84130 0.10200
C 	C 	0.57750 0.18458 0.59555 -0.19400
H 	H 	0.62620 0.17750 0.61370 0.08600
C 	C 	0.54283 0.17651 0.35938 -0.19000
H 	H 	0.58740 0.16990 0.35630 0.08100
C 	C 	0.97110 0.39059 0.82504 0.09100
H 	H 	0.01610 0.38710 0.84780 0.00700
C 	C 	0.34277 0.23045 0.81661 0.09600
H 	H 	0.33290 0.23270 0.83920 0.02000
C 	C 	0.57110 0.21035 0.56671 0.08600
H 	H 	0.61500 0.22090 0.56570 0.01000
C 	C 	0.54499 0.20450 0.38501 0.08000
H 	H 	0.59120 0.21670 0.39950 0.00300
C 	C 	0.96417 0.37483 0.79028 -0.15300
C 	C 	0.29735 0.24807 0.78324 -0.15500
C 	C 	0.50070 0.22015 0.53997 -0.14900
C 	C 	0.48017 0.21462 0.38939 -0.15300
C 	C 	0.89850 0.37928 0.75771 0.08800
H 	H 	0.89350 0.36900 0.73370 0.00900
C 	C 	0.31210 0.24487 0.74998 0.08100
H 	H 	0.28070 0.25690 0.72660 0.00300
C 	C 	0.43630 0.20431 0.54125 0.08600
H 	H 	0.38740 0.21040 0.52240 0.00900
C 	C 	0.41243 0.19605 0.36905 0.09100
H 	H 	0.36810 0.20270 0.37240 0.01600
C 	C 	0.83900 0.39899 0.76005 -0.19100
H 	H 	0.79300 0.40120 0.73760 0.08200
C 	C 	0.37316 0.22397 0.75150 -0.19200
H 	H 	0.38310 0.22180 0.72890 0.08200
C 	C 	0.44530 0.17931 0.57082 -0.19600
H 	H 	0.40160 0.16880 0.57210 0.08600
C 	C 	0.41035 0.16789 0.34398 -0.19300
H 	H 	0.36450 0.15500 0.33050 0.10300
C 	C 	0.02690 0.35140 0.78890 0.37000
C 	C 	0.23355 0.27114 0.78268 0.36100
C 	C 	0.49280 0.24854 0.51005 0.36300
C 	C 	0.48107 0.24607 0.41528 0.37300
O 	O 	0.08276 0.34548 0.82052 -0.41300
O 	O 	0.23122 0.27709 0.81526 -0.41500
O 	O 	0.55360 0.25978 0.50845 -0.40800
O 	O 	0.41871 0.25493 0.41580 -0.41800
O 	O 	0.01854 0.33921 0.75605 -0.41200
O 	O 	0.18595 0.28286 0.75018 -0.41300
O 	O 	0.42705 0.25968 0.48942 -0.41100
O 	O 	0.54324 0.26145 0.43385 -0.42400
