data_crystal

_cell_length_a 10.63320
_cell_length_b 12.03610
_cell_length_c 12.80520
_cell_angle_alpha 90.00000
_cell_angle_beta  92.25600
_cell_angle_gamma 90.00000

_symmetry_space_group_name_	'P 1'
_symmetry_space_group_name_H-M	'P 1'

loop_
_symmetry_equiv_pos_as_xyz
  x,y,z

loop_
_atom_site_label
_atom_site_type_symbol
_atom_site_fract_x
_atom_site_fract_y
_atom_site_fract_z
_atom_site_charge
Cu	Cu	0.12227 0.37021 0.49515 0.87200
N 	N 	0.12645 0.29713 0.63562 -0.19700
N 	N 	0.03044 0.30208 0.70530 -0.09700
N 	N 	0.18546 0.20457 0.77208 -0.10800
N 	N 	0.40810 0.11853 0.96340 -0.16000
N 	N 	0.34783 0.01861 0.93675 -0.20000
N 	N 	0.26255 0.14854 0.84327 -0.10400
N 	N 	0.13704 0.21908 0.42950 -0.19400
N 	N 	0.06755 0.12569 0.45546 -0.09800
N 	N 	0.20767 0.08084 0.34302 -0.10500
N 	N 	0.35435 0.93851 0.14561 -0.19700
N 	N 	0.44014 0.91884 0.22918 -0.09700
N 	N 	0.28410 0.01992 0.28021 -0.10100
C 	C 	0.21868 0.23905 0.67681 0.10300
C 	C 	0.06864 0.24544 0.78722 0.09400
C 	C 	0.35444 0.19561 0.90570 0.09100
C 	C 	0.26083 0.03831 0.86454 0.09500
C 	C 	0.21979 0.19067 0.36298 0.09400
C 	C 	0.11203 0.04356 0.40258 0.09200
C 	C 	0.26228 0.99869 0.17684 0.09300
C 	C 	0.39580 0.96888 0.30954 0.08900
H 	H 	0.29000 0.22100 0.64900 -0.00900
H 	H 	0.02700 0.23300 0.84760 0.00800
H 	H 	0.37100 0.26720 0.90600 0.01200
H 	H 	0.20550 0.98750 0.83720 -0.00700
H 	H 	0.27500 0.23300 0.32910 -0.00100
H 	H 	0.08900 0.97300 0.40320 0.01700
H 	H 	0.19800 0.02440 0.13830 -0.00500
H 	H 	0.43300 0.97230 0.37880 0.01600
Cu	Cu	0.37773 0.87021 0.00485 0.87300
N 	N 	0.37355 0.79713 0.86438 -0.19500
N 	N 	0.46956 0.80208 0.79470 -0.09600
N 	N 	0.31454 0.70457 0.72792 -0.10700
N 	N 	0.09190 0.61853 0.53660 -0.16100
N 	N 	0.15217 0.51861 0.56325 -0.20000
N 	N 	0.23745 0.64854 0.65673 -0.10400
N 	N 	0.36296 0.71908 0.07050 -0.19400
N 	N 	0.43245 0.62569 0.04454 -0.09700
N 	N 	0.29233 0.58084 0.15698 -0.10400
N 	N 	0.14565 0.43851 0.35439 -0.19800
N 	N 	0.05986 0.41884 0.27082 -0.09800
N 	N 	0.21590 0.51992 0.21979 -0.10500
C 	C 	0.28132 0.73905 0.82319 0.10300
C 	C 	0.43136 0.74544 0.71278 0.09400
C 	C 	0.14556 0.69561 0.59430 0.09100
C 	C 	0.23917 0.53831 0.63546 0.09800
C 	C 	0.28021 0.69067 0.13702 0.09400
C 	C 	0.38797 0.54356 0.09742 0.08800
C 	C 	0.23772 0.49869 0.32316 0.10300
C 	C 	0.10420 0.46888 0.19046 0.09100
H 	H 	0.21000 0.72100 0.85100 -0.00900
H 	H 	0.47300 0.73300 0.65240 0.00700
H 	H 	0.12900 0.76720 0.59400 0.01200
H 	H 	0.29450 0.48750 0.66280 -0.00800
H 	H 	0.22500 0.73300 0.17090 -0.00100
H 	H 	0.41100 0.47300 0.09680 0.02000
H 	H 	0.30200 0.52440 0.36170 -0.01000
H 	H 	0.06700 0.47230 0.12120 0.01500
Cu	Cu	0.87773 0.62979 0.50485 0.87300
N 	N 	0.87355 0.70287 0.36438 -0.19600
N 	N 	0.96956 0.69792 0.29470 -0.09600
N 	N 	0.81454 0.79543 0.22792 -0.10700
N 	N 	0.59190 0.88147 0.03660 -0.16000
N 	N 	0.65217 0.98139 0.06325 -0.20000
N 	N 	0.73745 0.85146 0.15673 -0.10400
N 	N 	0.86296 0.78092 0.57050 -0.19400
N 	N 	0.93245 0.87431 0.54454 -0.09800
N 	N 	0.79233 0.91916 0.65698 -0.10500
N 	N 	0.64565 0.06149 0.85439 -0.19700
N 	N 	0.55986 0.08116 0.77082 -0.09700
N 	N 	0.71590 0.98008 0.71979 -0.10100
C 	C 	0.78132 0.76095 0.32319 0.10300
C 	C 	0.93136 0.75456 0.21278 0.09400
C 	C 	0.64556 0.80439 0.09430 0.09100
C 	C 	0.73917 0.96169 0.13546 0.09500
C 	C 	0.78021 0.80933 0.63702 0.09400
C 	C 	0.88797 0.95644 0.59742 0.09200
C 	C 	0.73772 0.00131 0.82316 0.09300
C 	C 	0.60420 0.03112 0.69046 0.08900
H 	H 	0.71000 0.77900 0.35100 -0.00900
H 	H 	0.97300 0.76700 0.15240 0.00800
H 	H 	0.62900 0.73280 0.09400 0.01200
H 	H 	0.79450 0.01250 0.16280 -0.00700
H 	H 	0.72500 0.76700 0.67090 -0.00100
H 	H 	0.91100 0.02700 0.59680 0.01700
H 	H 	0.80200 0.97560 0.86170 -0.00500
H 	H 	0.56700 0.02770 0.62120 0.01600
Cu	Cu	0.62227 0.12979 0.99515 0.87300
N 	N 	0.62645 0.20287 0.13562 -0.19500
N 	N 	0.53044 0.19792 0.20530 -0.09600
N 	N 	0.68546 0.29543 0.27208 -0.10700
N 	N 	0.90810 0.38147 0.46340 -0.16100
N 	N 	0.84783 0.48139 0.43675 -0.20000
N 	N 	0.76255 0.35146 0.34327 -0.10400
N 	N 	0.63704 0.28092 0.92950 -0.19400
N 	N 	0.56755 0.37431 0.95546 -0.09700
N 	N 	0.70767 0.41916 0.84302 -0.10400
N 	N 	0.85435 0.56149 0.64561 -0.19800
N 	N 	0.94014 0.58116 0.72918 -0.09800
N 	N 	0.78410 0.48008 0.78021 -0.10500
C 	C 	0.71868 0.26095 0.17681 0.10300
C 	C 	0.56864 0.25456 0.28722 0.09400
C 	C 	0.85444 0.30439 0.40570 0.09100
C 	C 	0.76083 0.46169 0.36454 0.09800
C 	C 	0.71979 0.30933 0.86298 0.09400
C 	C 	0.61203 0.45644 0.90258 0.08800
C 	C 	0.76228 0.50131 0.67684 0.10300
C 	C 	0.89580 0.53112 0.80954 0.09100
H 	H 	0.79000 0.27900 0.14900 -0.00900
H 	H 	0.52700 0.26700 0.34760 0.00700
H 	H 	0.87100 0.23280 0.40600 0.01200
H 	H 	0.70550 0.51250 0.33720 -0.00800
H 	H 	0.77500 0.26700 0.82910 -0.00100
H 	H 	0.58900 0.52700 0.90320 0.02000
H 	H 	0.69800 0.47560 0.63830 -0.01000
H 	H 	0.93300 0.52770 0.87880 0.01500
