data_crystal

_cell_length_a 21.40300
_cell_length_b 34.25500
_cell_length_c 8.02300
_cell_angle_alpha 90.00000
_cell_angle_beta  90.00000
_cell_angle_gamma 90.00000

_symmetry_space_group_name_	'P 1'
_symmetry_space_group_name_H-M	'P 1'

loop_
_symmetry_equiv_pos_as_xyz
  x,y,z

loop_
_atom_site_label
_atom_site_type_symbol
_atom_site_fract_x
_atom_site_fract_y
_atom_site_fract_z
_atom_site_charge
C 	C 	0.80750 0.91620 0.46200 -0.15100
H 	H 	0.84530 0.93050 0.47290 0.08600
C 	C 	0.80910 0.87590 0.43300 0.10000
C 	C 	0.86130 0.85490 0.45100 -0.04000
C 	C 	0.90940 0.83620 0.47800 -0.03400
C 	C 	0.96120 0.81580 0.50500 0.08900
C 	C 	0.98900 0.79510 0.37500 -0.14200
H 	H 	0.97060 0.79550 0.26740 0.08600
C 	C 	0.04300 0.77380 0.40400 0.07300
H 	H 	0.06190 0.75970 0.31520 0.02300
C 	C 	0.06980 0.77330 0.56200 -0.14400
C 	C 	0.04200 0.79400 0.69100 0.04600
H 	H 	0.06040 0.79360 0.79910 0.00100
C 	C 	0.98800 0.81530 0.66300 -0.13300
H 	H 	0.96910 0.82940 0.75140 0.07000
O 	O 	0.15030 0.75220 0.77300 -0.46600
O 	O 	0.18800 0.76540 0.52800 -0.46900
C 	C 	0.13000 0.76180 0.64400 0.36300
C 	C 	0.30750 0.41620 0.96200 -0.12900
H 	H 	0.34530 0.43050 0.97290 0.07400
C 	C 	0.30910 0.37590 0.93300 0.05700
C 	C 	0.36130 0.35490 0.95100 0.00600
C 	C 	0.40940 0.33620 0.97800 -0.12000
C 	C 	0.46120 0.31580 0.00500 0.20000
C 	C 	0.48900 0.29510 0.87500 -0.21500
H 	H 	0.47060 0.29550 0.76740 0.10400
C 	C 	0.54300 0.27380 0.90400 0.06600
H 	H 	0.56190 0.25970 0.81520 0.02100
C 	C 	0.56980 0.27330 0.06200 -0.12600
C 	C 	0.54200 0.29400 0.19100 0.06800
H 	H 	0.56040 0.29360 0.29910 -0.00100
C 	C 	0.48800 0.31530 0.16300 -0.18100
H 	H 	0.46910 0.32940 0.25140 0.09800
O 	O 	0.65030 0.25220 0.27300 -0.45900
O 	O 	0.68800 0.26540 0.02800 -0.44500
C 	C 	0.63000 0.26180 0.14400 0.35900
C 	C 	0.19250 0.08380 0.46200 -0.15100
H 	H 	0.15470 0.06950 0.47290 0.08600
C 	C 	0.19090 0.12410 0.43300 0.10000
C 	C 	0.13870 0.14510 0.45100 -0.04000
C 	C 	0.09060 0.16380 0.47800 -0.03400
C 	C 	0.03880 0.18420 0.50500 0.08900
C 	C 	0.01100 0.20490 0.37500 -0.14200
H 	H 	0.02940 0.20450 0.26740 0.08600
C 	C 	0.95700 0.22620 0.40400 0.07300
H 	H 	0.93810 0.24030 0.31520 0.02300
C 	C 	0.93020 0.22670 0.56200 -0.14400
C 	C 	0.95800 0.20600 0.69100 0.04600
H 	H 	0.93960 0.20640 0.79910 0.00100
C 	C 	0.01200 0.18470 0.66300 -0.13300
H 	H 	0.03090 0.17060 0.75140 0.07000
O 	O 	0.84970 0.24780 0.77300 -0.46600
O 	O 	0.81200 0.23460 0.52800 -0.46900
C 	C 	0.87000 0.23820 0.64400 0.36300
C 	C 	0.69250 0.58380 0.96200 -0.12900
H 	H 	0.65470 0.56950 0.97290 0.07400
C 	C 	0.69090 0.62410 0.93300 0.05700
C 	C 	0.63870 0.64510 0.95100 0.00600
C 	C 	0.59060 0.66380 0.97800 -0.12000
C 	C 	0.53880 0.68420 0.00500 0.20000
C 	C 	0.51100 0.70490 0.87500 -0.21500
H 	H 	0.52940 0.70450 0.76740 0.10400
C 	C 	0.45700 0.72620 0.90400 0.06600
H 	H 	0.43810 0.74030 0.81520 0.02100
C 	C 	0.43020 0.72670 0.06200 -0.12600
C 	C 	0.45800 0.70600 0.19100 0.06800
H 	H 	0.43960 0.70640 0.29910 -0.00100
C 	C 	0.51200 0.68470 0.16300 -0.18100
H 	H 	0.53090 0.67060 0.25140 0.09800
O 	O 	0.34970 0.74780 0.27300 -0.45900
O 	O 	0.31200 0.73460 0.02800 -0.44500
C 	C 	0.37000 0.73820 0.14400 0.35900
C 	C 	0.30750 0.08380 0.46200 -0.15100
H 	H 	0.34530 0.06950 0.47290 0.08600
C 	C 	0.30910 0.12410 0.43300 0.10000
C 	C 	0.36130 0.14510 0.45100 -0.04000
C 	C 	0.40940 0.16380 0.47800 -0.03400
C 	C 	0.46120 0.18420 0.50500 0.09000
C 	C 	0.48900 0.20490 0.37500 -0.14200
H 	H 	0.47060 0.20450 0.26740 0.08600
C 	C 	0.54300 0.22620 0.40400 0.07300
H 	H 	0.56190 0.24030 0.31520 0.02300
C 	C 	0.56980 0.22670 0.56200 -0.14500
C 	C 	0.54200 0.20600 0.69100 0.04600
H 	H 	0.56040 0.20640 0.79910 0.00100
C 	C 	0.48800 0.18470 0.66300 -0.13400
H 	H 	0.46910 0.17060 0.75140 0.07100
O 	O 	0.65030 0.24780 0.77300 -0.46600
O 	O 	0.68800 0.23460 0.52800 -0.46900
C 	C 	0.63000 0.23820 0.64400 0.36300
C 	C 	0.80750 0.58380 0.96200 -0.12900
H 	H 	0.84530 0.56950 0.97290 0.07400
C 	C 	0.80910 0.62410 0.93300 0.05800
C 	C 	0.86130 0.64510 0.95100 0.00600
C 	C 	0.90940 0.66380 0.97800 -0.11900
C 	C 	0.96120 0.68420 0.00500 0.20000
C 	C 	0.98900 0.70490 0.87500 -0.21500
H 	H 	0.97060 0.70450 0.76740 0.10400
C 	C 	0.04300 0.72620 0.90400 0.06500
H 	H 	0.06190 0.74030 0.81520 0.02100
C 	C 	0.06980 0.72670 0.06200 -0.12600
C 	C 	0.04200 0.70600 0.19100 0.06800
H 	H 	0.06040 0.70640 0.29910 -0.00100
C 	C 	0.98800 0.68470 0.16300 -0.18100
H 	H 	0.96910 0.67060 0.25140 0.09700
O 	O 	0.15030 0.74780 0.27300 -0.45900
O 	O 	0.18800 0.73460 0.02800 -0.44500
C 	C 	0.13000 0.73820 0.14400 0.35900
C 	C 	0.69250 0.91620 0.46200 -0.15100
H 	H 	0.65470 0.93050 0.47290 0.08600
C 	C 	0.69090 0.87590 0.43300 0.10000
C 	C 	0.63870 0.85490 0.45100 -0.04000
C 	C 	0.59060 0.83620 0.47800 -0.03400
C 	C 	0.53880 0.81580 0.50500 0.09000
C 	C 	0.51100 0.79510 0.37500 -0.14200
H 	H 	0.52940 0.79550 0.26740 0.08600
C 	C 	0.45700 0.77380 0.40400 0.07300
H 	H 	0.43810 0.75970 0.31520 0.02300
C 	C 	0.43020 0.77330 0.56200 -0.14500
C 	C 	0.45800 0.79400 0.69100 0.04600
H 	H 	0.43960 0.79360 0.79910 0.00100
C 	C 	0.51200 0.81530 0.66300 -0.13400
H 	H 	0.53090 0.82940 0.75140 0.07100
O 	O 	0.34970 0.75220 0.77300 -0.46600
O 	O 	0.31200 0.76540 0.52800 -0.46900
C 	C 	0.37000 0.76180 0.64400 0.36300
C 	C 	0.19250 0.41620 0.96200 -0.12900
H 	H 	0.15470 0.43050 0.97290 0.07400
C 	C 	0.19090 0.37590 0.93300 0.05800
C 	C 	0.13870 0.35490 0.95100 0.00600
C 	C 	0.09060 0.33620 0.97800 -0.11900
C 	C 	0.03880 0.31580 0.00500 0.20000
C 	C 	0.01100 0.29510 0.87500 -0.21500
H 	H 	0.02940 0.29550 0.76740 0.10400
C 	C 	0.95700 0.27380 0.90400 0.06500
H 	H 	0.93810 0.25970 0.81520 0.02100
C 	C 	0.93020 0.27330 0.06200 -0.12600
C 	C 	0.95800 0.29400 0.19100 0.06800
H 	H 	0.93960 0.29360 0.29910 -0.00100
C 	C 	0.01200 0.31530 0.16300 -0.18100
H 	H 	0.03090 0.32940 0.25140 0.09700
O 	O 	0.84970 0.25220 0.27300 -0.45900
O 	O 	0.81200 0.26540 0.02800 -0.44500
C 	C 	0.87000 0.26180 0.14400 0.35900
C 	C 	0.75000 0.17860 0.51900 0.51200
C 	C 	0.75000 0.13680 0.50500 -0.25000
C 	C 	0.75000 0.11590 0.65400 0.14100
H 	H 	0.75000 0.12930 0.75740 -0.04800
C 	C 	0.75000 0.07530 0.65100 -0.19500
H 	H 	0.75000 0.06100 0.75230 0.08600
C 	C 	0.75000 0.05560 0.49900 0.12400
C 	C 	0.75000 0.07650 0.35100 -0.19300
H 	H 	0.75000 0.06310 0.24720 0.09800
C 	C 	0.75000 0.11710 0.35400 0.14600
H 	H 	0.75000 0.13140 0.25230 -0.02500
C 	C 	0.75000 0.01300 0.49243 -0.04600
C 	C 	0.75000 0.97670 0.48700 -0.03000
C 	C 	0.75000 0.93520 0.47500 0.09500
C 	C 	0.75000 0.85800 0.43200 -0.14900
H 	H 	0.75000 0.83030 0.43040 0.08700
O 	O 	0.75000 0.19630 0.66600 -0.52900
O 	O 	0.75000 0.19710 0.38200 -0.43100
Ho	Ho	0.75000 0.23370 0.88300 1.84900
C 	C 	0.25000 0.67860 0.01900 0.52400
C 	C 	0.25000 0.63680 0.00500 -0.18600
C 	C 	0.25000 0.61590 0.15400 0.08800
H 	H 	0.25000 0.62930 0.25740 -0.02600
C 	C 	0.25000 0.57530 0.15100 -0.11300
H 	H 	0.25000 0.56100 0.25230 0.07100
C 	C 	0.25000 0.55560 0.99900 0.05400
C 	C 	0.25000 0.57650 0.85100 -0.13700
H 	H 	0.25000 0.56310 0.74720 0.07300
C 	C 	0.25000 0.61710 0.85400 0.06600
H 	H 	0.25000 0.63140 0.75230 -0.00800
C 	C 	0.25000 0.51300 0.99243 -0.03100
C 	C 	0.25000 0.47670 0.98700 -0.03900
C 	C 	0.25000 0.43520 0.97500 0.08000
C 	C 	0.25000 0.35800 0.93200 -0.11600
H 	H 	0.25000 0.33030 0.93040 0.07000
O 	O 	0.25000 0.69630 0.16600 -0.53600
O 	O 	0.25000 0.69710 0.88200 -0.45700
Ho	Ho	0.25000 0.73370 0.38300 1.91100
C 	C 	0.25000 0.82140 0.51900 0.51200
C 	C 	0.25000 0.86320 0.50500 -0.25000
C 	C 	0.25000 0.88410 0.65400 0.14100
H 	H 	0.25000 0.87070 0.75740 -0.04800
C 	C 	0.25000 0.92470 0.65100 -0.19500
H 	H 	0.25000 0.93900 0.75230 0.08600
C 	C 	0.25000 0.94440 0.49900 0.12400
C 	C 	0.25000 0.92350 0.35100 -0.19300
H 	H 	0.25000 0.93690 0.24720 0.09800
C 	C 	0.25000 0.88290 0.35400 0.14600
H 	H 	0.25000 0.86860 0.25230 -0.02500
C 	C 	0.25000 0.98700 0.49243 -0.04600
C 	C 	0.25000 0.02330 0.48700 -0.03000
C 	C 	0.25000 0.06480 0.47500 0.09500
C 	C 	0.25000 0.14200 0.43200 -0.14900
H 	H 	0.25000 0.16970 0.43040 0.08700
O 	O 	0.25000 0.80370 0.66600 -0.52900
O 	O 	0.25000 0.80290 0.38200 -0.43100
Ho	Ho	0.25000 0.76630 0.88300 1.84900
C 	C 	0.75000 0.32140 0.01900 0.52400
C 	C 	0.75000 0.36320 0.00500 -0.18600
C 	C 	0.75000 0.38410 0.15400 0.08800
H 	H 	0.75000 0.37070 0.25740 -0.02600
C 	C 	0.75000 0.42470 0.15100 -0.11300
H 	H 	0.75000 0.43900 0.25230 0.07100
C 	C 	0.75000 0.44440 0.99900 0.05400
C 	C 	0.75000 0.42350 0.85100 -0.13700
H 	H 	0.75000 0.43690 0.74720 0.07300
C 	C 	0.75000 0.38290 0.85400 0.06600
H 	H 	0.75000 0.36860 0.75230 -0.00800
C 	C 	0.75000 0.48700 0.99243 -0.03100
C 	C 	0.75000 0.52330 0.98700 -0.03900
C 	C 	0.75000 0.56480 0.97500 0.08000
C 	C 	0.75000 0.64200 0.93200 -0.11600
H 	H 	0.75000 0.66970 0.93040 0.07000
O 	O 	0.75000 0.30370 0.16600 -0.53600
O 	O 	0.75000 0.30290 0.88200 -0.45700
Ho	Ho	0.75000 0.26630 0.38300 1.91100
