data_crystal

_cell_length_a 20.27000
_cell_length_b 16.33600
_cell_length_c 24.66400
_cell_angle_alpha 90.00000
_cell_angle_beta  101.67100
_cell_angle_gamma 90.00000

_symmetry_space_group_name_	'P 1'
_symmetry_space_group_name_H-M	'P 1'

loop_
_symmetry_equiv_pos_as_xyz
  x,y,z

loop_
_atom_site_label
_atom_site_type_symbol
_atom_site_fract_x
_atom_site_fract_y
_atom_site_fract_z
_atom_site_charge
Co	Co	0.13335 0.75376 0.10000 1.18300
Co	Co	0.30033 0.76655 0.10662 1.18800
Co	Co	0.18867 0.86937 0.01175 1.16700
O 	O 	0.20787 0.76615 0.05416 -0.82800
H 	H 	0.20570 0.72620 0.03180 0.25700
O 	O 	0.33507 0.34100 0.34093 -0.44200
O 	O 	0.22557 0.35170 0.34107 -0.44400
O 	O 	0.28790 0.67320 0.15780 -0.43800
O 	O 	0.17698 0.65830 0.14792 -0.43500
C 	C 	0.27780 0.36960 0.32400 0.38300
C 	C 	0.23610 0.63740 0.16579 0.38000
C 	C 	0.26930 0.43340 0.27960 -0.09300
C 	C 	0.24860 0.56290 0.20270 -0.08600
C 	C 	0.30060 0.50100 0.29120 -0.00900
H 	H 	0.32890 0.50510 0.32590 0.03000
C 	C 	0.29680 0.57320 0.25600 0.01800
H 	H 	0.32180 0.62050 0.26580 0.00400
C 	C 	0.21860 0.48530 0.18620 -0.03200
C 	C 	0.17700 0.47380 0.13390 -0.19500
H 	H 	0.17060 0.51620 0.10820 0.10800
C 	C 	0.14630 0.40060 0.12100 -0.15200
H 	H 	0.11790 0.39360 0.08670 0.08600
C 	C 	0.15640 0.33580 0.15840 0.20400
H 	H 	0.13700 0.28520 0.14760 -0.05300
C 	C 	0.19370 0.34490 0.20970 0.07200
H 	H 	0.19800 0.30230 0.23520 -0.06200
C 	C 	0.22580 0.41980 0.22380 0.05300
O 	O 	0.57991 0.35610 0.05162 -0.44800
O 	O 	0.64462 0.46000 0.04230 -0.44900
O 	O 	0.34713 0.67929 0.06192 -0.55700
O 	O 	0.41413 0.72960 0.13456 -0.33700
C 	C 	0.59190 0.43090 0.05456 0.35400
C 	C 	0.40410 0.67930 0.09694 0.35200
C 	C 	0.54290 0.49150 0.07102 -0.08900
C 	C 	0.45380 0.61400 0.09054 -0.11400
C 	C 	0.55380 0.57320 0.05970 -0.00500
H 	H 	0.59150 0.58680 0.04540 0.03100
C 	C 	0.51050 0.63520 0.06900 0.01000
H 	H 	0.51880 0.68940 0.06110 0.01200
C 	C 	0.44170 0.53500 0.10100 0.00100
C 	C 	0.38410 0.51310 0.12580 -0.03100
H 	H 	0.35610 0.55450 0.13400 0.04900
C 	C 	0.37050 0.43450 0.13720 -0.01300
H 	H 	0.33100 0.42130 0.14900 0.03200
C 	C 	0.41630 0.37370 0.13090 0.00200
H 	H 	0.40920 0.32110 0.14300 0.03500
C 	C 	0.47250 0.38750 0.10760 -0.01600
H 	H 	0.49960 0.34490 0.09980 0.02400
C 	C 	0.48560 0.46940 0.09650 0.02200
O 	O 	0.07910 0.66840 0.04261 -0.38600
O 	O 	0.03827 0.70850 0.11292 -0.36100
O 	O 	0.84088 0.36130 0.07122 -0.45600
O 	O 	0.77341 0.41750 0.00003 -0.48200
C 	C 	0.03500 0.66460 0.07060 0.31000
C 	C 	0.82680 0.41630 0.03651 0.39800
C 	C 	0.97880 0.60340 0.05650 -0.07800
C 	C 	0.87730 0.48420 0.03881 -0.10900
C 	C 	0.99020 0.52660 0.08550 -0.12300
H 	H 	0.03050 0.51630 0.11010 0.07300
C 	C 	0.93900 0.46810 0.07570 -0.06800
H 	H 	0.94550 0.41780 0.09370 0.06700
C 	C 	0.86650 0.56080 0.01260 -0.04600
C 	C 	0.80660 0.58260 0.97730 -0.13600
H 	H 	0.77070 0.54600 0.97140 0.08500
C 	C 	0.79970 0.65510 0.95190 0.05400
H 	H 	0.76060 0.66670 0.92610 0.00800
C 	C 	0.90970 0.69750 0.99900 -0.11300
H 	H 	0.94370 0.73660 0.00710 0.06600
C 	C 	0.85270 0.71570 0.96420 -0.02100
H 	H 	0.84680 0.76710 0.94770 0.03100
C 	C 	0.91930 0.62010 0.02360 -0.04100
C 	C 	0.31190 0.50350 0.28500 0.00400
H 	H 	0.34690 0.51060 0.31550 0.01500
C 	C 	0.29850 0.56220 0.24180 -0.04300
H 	H 	0.32990 0.60390 0.24250 0.05500
C 	C 	0.20220 0.49460 0.19540 0.05900
C 	C 	0.14860 0.48360 0.14930 0.14700
H 	H 	0.13990 0.52420 0.12230 -0.02400
C 	C 	0.10830 0.41340 0.14340 0.06700
H 	H 	0.06970 0.41100 0.11560 0.00200
C 	C 	0.12590 0.34730 0.17880 -0.26100
H 	H 	0.10380 0.29740 0.17100 0.12400
C 	C 	0.17630 0.35570 0.22560 -0.09800
H 	H 	0.18480 0.31260 0.25070 0.12300
C 	C 	0.21520 0.42850 0.23630 -0.02300
C 	C 	0.56110 0.57330 0.07340 -0.01200
H 	H 	0.60340 0.58850 0.06780 0.02400
C 	C 	0.51590 0.63370 0.08430 -0.01500
H 	H 	0.52940 0.68820 0.08720 0.03000
C 	C 	0.43270 0.52710 0.09360 0.03000
C 	C 	0.37090 0.50590 0.10490 -0.03700
H 	H 	0.34170 0.54660 0.11180 0.01600
C 	C 	0.35260 0.42720 0.10600 -0.02400
H 	H 	0.31160 0.41340 0.11480 0.02700
C 	C 	0.39640 0.36540 0.09380 -0.05400
H 	H 	0.38400 0.31060 0.09350 0.04300
C 	C 	0.45570 0.38760 0.08280 -0.04000
H 	H 	0.48460 0.34560 0.07710 0.04900
C 	C 	0.47890 0.46870 0.07890 0.01400
C 	C 	0.99300 0.52290 0.05300 0.09000
H 	H 	0.03720 0.50690 0.05370 0.00600
C 	C 	0.94230 0.46260 0.04820 0.05200
H 	H 	0.95410 0.40760 0.05160 0.02600
C 	C 	0.85870 0.56830 0.03030 0.09300
C 	C 	0.79260 0.59520 0.00890 0.04500
H 	H 	0.75710 0.55810 0.00450 0.00300
C 	C 	0.78010 0.67610 0.99420 -0.09200
H 	H 	0.73640 0.69210 0.97820 0.05500
C 	C 	0.83090 0.73380 0.00290 -0.04700
H 	H 	0.82160 0.78780 0.99210 0.03700
C 	C 	0.89300 0.71170 0.02650 0.04500
H 	H 	0.92640 0.75140 0.03510 0.00500
C 	C 	0.90940 0.62810 0.03890 0.07000
Co	Co	0.63335 0.25376 0.10000 1.18400
Co	Co	0.80033 0.26655 0.10662 1.18900
Co	Co	0.68867 0.36937 0.01175 1.16800
O 	O 	0.70787 0.26615 0.05416 -0.82700
H 	H 	0.70570 0.22620 0.03180 0.25800
O 	O 	0.83507 0.84100 0.34093 -0.44100
O 	O 	0.72557 0.85170 0.34107 -0.44300
O 	O 	0.78790 0.17320 0.15780 -0.43700
O 	O 	0.67698 0.15830 0.14792 -0.43400
C 	C 	0.77780 0.86960 0.32400 0.38400
C 	C 	0.73610 0.13740 0.16579 0.38100
C 	C 	0.76930 0.93340 0.27960 -0.09200
C 	C 	0.74860 0.06290 0.20270 -0.08600
C 	C 	0.80060 0.00100 0.29120 -0.00800
H 	H 	0.82890 0.00510 0.32590 0.03100
C 	C 	0.79680 0.07320 0.25600 0.01900
H 	H 	0.82180 0.12050 0.26580 0.00500
C 	C 	0.71860 0.98530 0.18620 -0.03000
C 	C 	0.67700 0.97380 0.13390 -0.19200
H 	H 	0.67060 0.01620 0.10820 0.10800
C 	C 	0.64630 0.90060 0.12100 -0.15100
H 	H 	0.61790 0.89360 0.08670 0.08600
C 	C 	0.65640 0.83580 0.15840 0.20200
H 	H 	0.63700 0.78520 0.14760 -0.05200
C 	C 	0.69370 0.84490 0.20970 0.07200
H 	H 	0.69800 0.80230 0.23520 -0.06200
C 	C 	0.72580 0.91980 0.22380 0.05300
O 	O 	0.07991 0.85610 0.05162 -0.44800
O 	O 	0.14462 0.96000 0.04230 -0.44900
O 	O 	0.84713 0.17929 0.06192 -0.55800
O 	O 	0.91413 0.22960 0.13456 -0.33700
C 	C 	0.09190 0.93090 0.05456 0.35400
C 	C 	0.90410 0.17930 0.09694 0.35200
C 	C 	0.04290 0.99150 0.07102 -0.09000
C 	C 	0.95380 0.11400 0.09054 -0.11400
C 	C 	0.05380 0.07320 0.05970 -0.00500
H 	H 	0.09150 0.08680 0.04540 0.03000
C 	C 	0.01050 0.13520 0.06900 0.01000
H 	H 	0.01880 0.18940 0.06110 0.01200
C 	C 	0.94170 0.03500 0.10100 0.00100
C 	C 	0.88410 0.01310 0.12580 -0.03100
H 	H 	0.85610 0.05450 0.13400 0.04900
C 	C 	0.87050 0.93450 0.13720 -0.01300
H 	H 	0.83100 0.92130 0.14900 0.03200
C 	C 	0.91630 0.87370 0.13090 0.00200
H 	H 	0.90920 0.82110 0.14300 0.03500
C 	C 	0.97250 0.88750 0.10760 -0.01600
H 	H 	0.99960 0.84490 0.09980 0.02400
C 	C 	0.98560 0.96940 0.09650 0.02200
O 	O 	0.57910 0.16840 0.04261 -0.38600
O 	O 	0.53827 0.20850 0.11292 -0.36100
O 	O 	0.34088 0.86130 0.07122 -0.45600
O 	O 	0.27341 0.91750 0.00003 -0.48200
C 	C 	0.53500 0.16460 0.07060 0.31100
C 	C 	0.32680 0.91630 0.03651 0.39800
C 	C 	0.47880 0.10340 0.05650 -0.07800
C 	C 	0.37730 0.98420 0.03881 -0.10900
C 	C 	0.49020 0.02660 0.08550 -0.11600
H 	H 	0.53050 0.01630 0.11010 0.07000
C 	C 	0.43900 0.96810 0.07570 -0.06300
H 	H 	0.44550 0.91780 0.09370 0.06600
C 	C 	0.36650 0.06080 0.01260 -0.03600
C 	C 	0.30660 0.08260 0.97730 -0.12600
H 	H 	0.27070 0.04600 0.97140 0.08100
C 	C 	0.29970 0.15510 0.95190 0.04600
H 	H 	0.26060 0.16670 0.92610 0.01000
C 	C 	0.40970 0.19750 0.99900 -0.10100
H 	H 	0.44370 0.23660 0.00710 0.06100
C 	C 	0.35270 0.21570 0.96420 -0.02400
H 	H 	0.34680 0.26710 0.94770 0.03200
C 	C 	0.41930 0.12010 0.02360 -0.03100
C 	C 	0.81190 0.00350 0.28500 0.00400
H 	H 	0.84690 0.01060 0.31550 0.01500
C 	C 	0.79850 0.06220 0.24180 -0.04300
H 	H 	0.82990 0.10390 0.24250 0.05500
C 	C 	0.70220 0.99460 0.19540 0.05900
C 	C 	0.64860 0.98360 0.14930 0.14600
H 	H 	0.63990 0.02420 0.12230 -0.02400
C 	C 	0.60830 0.91340 0.14340 0.06700
H 	H 	0.56970 0.91100 0.11560 0.00300
C 	C 	0.62590 0.84730 0.17880 -0.26000
H 	H 	0.60380 0.79740 0.17100 0.12300
C 	C 	0.67630 0.85570 0.22560 -0.09800
H 	H 	0.68480 0.81260 0.25070 0.12200
C 	C 	0.71520 0.92850 0.23630 -0.02400
C 	C 	0.06110 0.07330 0.07340 -0.01200
H 	H 	0.10340 0.08850 0.06780 0.02400
C 	C 	0.01590 0.13370 0.08430 -0.01500
H 	H 	0.02940 0.18820 0.08720 0.03000
C 	C 	0.93270 0.02710 0.09360 0.03000
C 	C 	0.87090 0.00590 0.10490 -0.03700
H 	H 	0.84170 0.04660 0.11180 0.01600
C 	C 	0.85260 0.92720 0.10600 -0.02300
H 	H 	0.81160 0.91340 0.11480 0.02600
C 	C 	0.89640 0.86540 0.09380 -0.05400
H 	H 	0.88400 0.81060 0.09350 0.04300
C 	C 	0.95570 0.88760 0.08280 -0.04000
H 	H 	0.98460 0.84560 0.07710 0.04900
C 	C 	0.97890 0.96870 0.07890 0.01400
C 	C 	0.49300 0.02290 0.05300 0.08300
H 	H 	0.53720 0.00690 0.05370 0.00800
C 	C 	0.44230 0.96260 0.04820 0.04800
H 	H 	0.45410 0.90760 0.05160 0.02700
C 	C 	0.35870 0.06830 0.03030 0.08200
C 	C 	0.29260 0.09520 0.00890 0.03500
H 	H 	0.25710 0.05810 0.00450 0.00700
C 	C 	0.28010 0.17610 0.99420 -0.08400
H 	H 	0.23640 0.19210 0.97820 0.05300
C 	C 	0.33090 0.23380 0.00290 -0.04500
H 	H 	0.32160 0.28780 0.99210 0.03600
C 	C 	0.39300 0.21170 0.02650 0.03400
H 	H 	0.42640 0.25140 0.03510 0.00900
C 	C 	0.40940 0.12810 0.03890 0.06000
Co	Co	0.86665 0.75376 0.40000 1.18400
Co	Co	0.69967 0.76655 0.39338 1.18900
Co	Co	0.81133 0.86937 0.48825 1.16800
O 	O 	0.79213 0.76615 0.44584 -0.82700
H 	H 	0.79430 0.72620 0.46820 0.25800
O 	O 	0.66493 0.34100 0.15907 -0.44100
O 	O 	0.77443 0.35170 0.15893 -0.44300
O 	O 	0.71210 0.67320 0.34220 -0.43700
O 	O 	0.82302 0.65830 0.35208 -0.43400
C 	C 	0.72220 0.36960 0.17600 0.38400
C 	C 	0.76390 0.63740 0.33421 0.38100
C 	C 	0.73070 0.43340 0.22040 -0.09200
C 	C 	0.75140 0.56290 0.29730 -0.08500
C 	C 	0.69940 0.50100 0.20880 -0.00800
H 	H 	0.67110 0.50510 0.17410 0.03100
C 	C 	0.70320 0.57320 0.24400 0.01900
H 	H 	0.67820 0.62050 0.23420 0.00500
C 	C 	0.78140 0.48530 0.31380 -0.03100
C 	C 	0.82300 0.47380 0.36610 -0.19400
H 	H 	0.82940 0.51620 0.39180 0.10900
C 	C 	0.85370 0.40060 0.37900 -0.15200
H 	H 	0.88210 0.39360 0.41330 0.08600
C 	C 	0.84360 0.33580 0.34160 0.20300
H 	H 	0.86300 0.28520 0.35240 -0.05300
C 	C 	0.80630 0.34490 0.29030 0.07200
H 	H 	0.80200 0.30230 0.26480 -0.06200
C 	C 	0.77420 0.41980 0.27620 0.05300
O 	O 	0.42009 0.35610 0.44838 -0.44800
O 	O 	0.35538 0.46000 0.45770 -0.44900
O 	O 	0.65287 0.67929 0.43808 -0.55700
O 	O 	0.58587 0.72960 0.36544 -0.33700
C 	C 	0.40810 0.43090 0.44544 0.35400
C 	C 	0.59590 0.67930 0.40306 0.35200
C 	C 	0.45710 0.49150 0.42898 -0.08900
C 	C 	0.54620 0.61400 0.40946 -0.11400
C 	C 	0.44620 0.57320 0.44030 -0.00500
H 	H 	0.40850 0.58680 0.45460 0.03000
C 	C 	0.48950 0.63520 0.43100 0.01000
H 	H 	0.48120 0.68940 0.43890 0.01200
C 	C 	0.55830 0.53500 0.39900 0.00100
C 	C 	0.61590 0.51310 0.37420 -0.03100
H 	H 	0.64390 0.55450 0.36600 0.04900
C 	C 	0.62950 0.43450 0.36280 -0.01300
H 	H 	0.66900 0.42130 0.35100 0.03200
C 	C 	0.58370 0.37370 0.36910 0.00200
H 	H 	0.59080 0.32110 0.35700 0.03500
C 	C 	0.52750 0.38750 0.39240 -0.01600
H 	H 	0.50040 0.34490 0.40020 0.02400
C 	C 	0.51440 0.46940 0.40350 0.02200
O 	O 	0.92090 0.66840 0.45739 -0.38600
O 	O 	0.96173 0.70850 0.38708 -0.36100
O 	O 	0.15912 0.36130 0.42878 -0.45600
O 	O 	0.22659 0.41750 0.49997 -0.48200
C 	C 	0.96500 0.66460 0.42940 0.31000
C 	C 	0.17320 0.41630 0.46349 0.39800
C 	C 	0.02120 0.60340 0.44350 -0.07800
C 	C 	0.12270 0.48420 0.46119 -0.10900
C 	C 	0.00980 0.52660 0.41450 -0.12100
H 	H 	0.96950 0.51630 0.38990 0.07200
C 	C 	0.06100 0.46810 0.42430 -0.06600
H 	H 	0.05450 0.41780 0.40630 0.06700
C 	C 	0.13350 0.56080 0.48740 -0.04300
C 	C 	0.19340 0.58260 0.52270 -0.13300
H 	H 	0.22930 0.54600 0.52860 0.08400
C 	C 	0.20030 0.65510 0.54810 0.05100
H 	H 	0.23940 0.66670 0.57390 0.00900
C 	C 	0.09030 0.69750 0.50100 -0.10900
H 	H 	0.05630 0.73660 0.49290 0.06400
C 	C 	0.14730 0.71570 0.53580 -0.02200
H 	H 	0.15320 0.76710 0.55230 0.03100
C 	C 	0.08070 0.62010 0.47640 -0.03700
C 	C 	0.68810 0.50350 0.21500 0.00400
H 	H 	0.65310 0.51060 0.18450 0.01500
C 	C 	0.70150 0.56220 0.25820 -0.04300
H 	H 	0.67010 0.60390 0.25750 0.05500
C 	C 	0.79780 0.49460 0.30460 0.05900
C 	C 	0.85140 0.48360 0.35070 0.14700
H 	H 	0.86010 0.52420 0.37770 -0.02400
C 	C 	0.89170 0.41340 0.35660 0.06700
H 	H 	0.93030 0.41100 0.38440 0.00200
C 	C 	0.87410 0.34730 0.32120 -0.26100
H 	H 	0.89620 0.29740 0.32900 0.12300
C 	C 	0.82370 0.35570 0.27440 -0.09800
H 	H 	0.81520 0.31260 0.24930 0.12300
C 	C 	0.78480 0.42850 0.26370 -0.02400
C 	C 	0.43890 0.57330 0.42660 -0.01200
H 	H 	0.39660 0.58850 0.43220 0.02400
C 	C 	0.48410 0.63370 0.41570 -0.01500
H 	H 	0.47060 0.68820 0.41280 0.03000
C 	C 	0.56730 0.52710 0.40640 0.03000
C 	C 	0.62910 0.50590 0.39510 -0.03700
H 	H 	0.65830 0.54660 0.38820 0.01600
C 	C 	0.64740 0.42720 0.39400 -0.02400
H 	H 	0.68840 0.41340 0.38520 0.02700
C 	C 	0.60360 0.36540 0.40620 -0.05400
H 	H 	0.61600 0.31060 0.40650 0.04300
C 	C 	0.54430 0.38760 0.41720 -0.04000
H 	H 	0.51540 0.34560 0.42290 0.04900
C 	C 	0.52110 0.46870 0.42110 0.01400
C 	C 	0.00700 0.52290 0.44700 0.08700
H 	H 	0.96280 0.50690 0.44630 0.00700
C 	C 	0.05770 0.46260 0.45180 0.05100
H 	H 	0.04590 0.40760 0.44840 0.02600
C 	C 	0.14130 0.56830 0.46970 0.09000
C 	C 	0.20740 0.59520 0.49110 0.04200
H 	H 	0.24290 0.55810 0.49550 0.00400
C 	C 	0.21990 0.67610 0.50580 -0.08900
H 	H 	0.26360 0.69210 0.52180 0.05400
C 	C 	0.16910 0.73380 0.49710 -0.04700
H 	H 	0.17840 0.78780 0.50790 0.03700
C 	C 	0.10700 0.71170 0.47350 0.04100
H 	H 	0.07360 0.75140 0.46490 0.00600
C 	C 	0.09060 0.62810 0.46110 0.06600
Co	Co	0.36665 0.25376 0.40000 1.18400
Co	Co	0.19967 0.26655 0.39338 1.18900
Co	Co	0.31133 0.36937 0.48825 1.16800
O 	O 	0.29213 0.26615 0.44584 -0.82700
H 	H 	0.29430 0.22620 0.46820 0.25800
O 	O 	0.16493 0.84100 0.15907 -0.44100
O 	O 	0.27443 0.85170 0.15893 -0.44300
O 	O 	0.21210 0.17320 0.34220 -0.43700
O 	O 	0.32302 0.15830 0.35208 -0.43400
C 	C 	0.22220 0.86960 0.17600 0.38400
C 	C 	0.26390 0.13740 0.33421 0.38100
C 	C 	0.23070 0.93340 0.22040 -0.09200
C 	C 	0.25140 0.06290 0.29730 -0.08600
C 	C 	0.19940 0.00100 0.20880 -0.00800
H 	H 	0.17110 0.00510 0.17410 0.03100
C 	C 	0.20320 0.07320 0.24400 0.01900
H 	H 	0.17820 0.12050 0.23420 0.00500
C 	C 	0.28140 0.98530 0.31380 -0.03100
C 	C 	0.32300 0.97380 0.36610 -0.19400
H 	H 	0.32940 0.01620 0.39180 0.10900
C 	C 	0.35370 0.90060 0.37900 -0.15200
H 	H 	0.38210 0.89360 0.41330 0.08600
C 	C 	0.34360 0.83580 0.34160 0.20300
H 	H 	0.36300 0.78520 0.35240 -0.05300
C 	C 	0.30630 0.84490 0.29030 0.07200
H 	H 	0.30200 0.80230 0.26480 -0.06200
C 	C 	0.27420 0.91980 0.27620 0.05300
O 	O 	0.92009 0.85610 0.44838 -0.44800
O 	O 	0.85538 0.96000 0.45770 -0.44900
O 	O 	0.15287 0.17929 0.43808 -0.55800
O 	O 	0.08587 0.22960 0.36544 -0.33800
C 	C 	0.90810 0.93090 0.44544 0.35400
C 	C 	0.09590 0.17930 0.40306 0.35200
C 	C 	0.95710 0.99150 0.42898 -0.08900
C 	C 	0.04620 0.11400 0.40946 -0.11400
C 	C 	0.94620 0.07320 0.44030 -0.00500
H 	H 	0.90850 0.08680 0.45460 0.03000
C 	C 	0.98950 0.13520 0.43100 0.01000
H 	H 	0.98120 0.18940 0.43890 0.01200
C 	C 	0.05830 0.03500 0.39900 0.00100
C 	C 	0.11590 0.01310 0.37420 -0.03100
H 	H 	0.14390 0.05450 0.36600 0.04900
C 	C 	0.12950 0.93450 0.36280 -0.01300
H 	H 	0.16900 0.92130 0.35100 0.03200
C 	C 	0.08370 0.87370 0.36910 0.00200
H 	H 	0.09080 0.82110 0.35700 0.03500
C 	C 	0.02750 0.88750 0.39240 -0.01600
H 	H 	0.00040 0.84490 0.40020 0.02400
C 	C 	0.01440 0.96940 0.40350 0.02200
O 	O 	0.42090 0.16840 0.45739 -0.38600
O 	O 	0.46173 0.20850 0.38708 -0.36100
O 	O 	0.65912 0.86130 0.42878 -0.45600
O 	O 	0.72659 0.91750 0.49997 -0.48200
C 	C 	0.46500 0.16460 0.42940 0.31100
C 	C 	0.67320 0.91630 0.46349 0.39800
C 	C 	0.52120 0.10340 0.44350 -0.07800
C 	C 	0.62270 0.98420 0.46119 -0.10900
C 	C 	0.50980 0.02660 0.41450 -0.12000
H 	H 	0.46950 0.01630 0.38990 0.07200
C 	C 	0.56100 0.96810 0.42430 -0.06600
H 	H 	0.55450 0.91780 0.40630 0.06700
C 	C 	0.63350 0.06080 0.48740 -0.04300
C 	C 	0.69340 0.08260 0.52270 -0.13300
H 	H 	0.72930 0.04600 0.52860 0.08400
C 	C 	0.70030 0.15510 0.54810 0.05100
H 	H 	0.73940 0.16670 0.57390 0.00900
C 	C 	0.59030 0.19750 0.50100 -0.10900
H 	H 	0.55630 0.23660 0.49290 0.06400
C 	C 	0.64730 0.21570 0.53580 -0.02200
H 	H 	0.65320 0.26710 0.55230 0.03100
C 	C 	0.58070 0.12010 0.47640 -0.03700
C 	C 	0.18810 0.00350 0.21500 0.00400
H 	H 	0.15310 0.01060 0.18450 0.01500
C 	C 	0.20150 0.06220 0.25820 -0.04300
H 	H 	0.17010 0.10390 0.25750 0.05500
C 	C 	0.29780 0.99460 0.30460 0.05900
C 	C 	0.35140 0.98360 0.35070 0.14700
H 	H 	0.36010 0.02420 0.37770 -0.02400
C 	C 	0.39170 0.91340 0.35660 0.06700
H 	H 	0.43030 0.91100 0.38440 0.00200
C 	C 	0.37410 0.84730 0.32120 -0.26100
H 	H 	0.39620 0.79740 0.32900 0.12300
C 	C 	0.32370 0.85570 0.27440 -0.09800
H 	H 	0.31520 0.81260 0.24930 0.12300
C 	C 	0.28480 0.92850 0.26370 -0.02400
C 	C 	0.93890 0.07330 0.42660 -0.01200
H 	H 	0.89660 0.08850 0.43220 0.02400
C 	C 	0.98410 0.13370 0.41570 -0.01500
H 	H 	0.97060 0.18820 0.41280 0.03000
C 	C 	0.06730 0.02710 0.40640 0.03000
C 	C 	0.12910 0.00590 0.39510 -0.03700
H 	H 	0.15830 0.04660 0.38820 0.01600
C 	C 	0.14740 0.92720 0.39400 -0.02400
H 	H 	0.18840 0.91340 0.38520 0.02700
C 	C 	0.10360 0.86540 0.40620 -0.05400
H 	H 	0.11600 0.81060 0.40650 0.04300
C 	C 	0.04430 0.88760 0.41720 -0.04000
H 	H 	0.01540 0.84560 0.42290 0.04900
C 	C 	0.02110 0.96870 0.42110 0.01300
C 	C 	0.50700 0.02290 0.44700 0.08700
H 	H 	0.46280 0.00690 0.44630 0.00700
C 	C 	0.55770 0.96260 0.45180 0.05100
H 	H 	0.54590 0.90760 0.44840 0.02600
C 	C 	0.64130 0.06830 0.46970 0.09000
C 	C 	0.70740 0.09520 0.49110 0.04200
H 	H 	0.74290 0.05810 0.49550 0.00400
C 	C 	0.71990 0.17610 0.50580 -0.08900
H 	H 	0.76360 0.19210 0.52180 0.05400
C 	C 	0.66910 0.23380 0.49710 -0.04700
H 	H 	0.67840 0.28780 0.50790 0.03700
C 	C 	0.60700 0.21170 0.47350 0.04100
H 	H 	0.57360 0.25140 0.46490 0.00700
C 	C 	0.59060 0.12810 0.46110 0.06600
Co	Co	0.86665 0.24624 0.90000 1.18400
Co	Co	0.69967 0.23345 0.89338 1.18900
Co	Co	0.81133 0.13063 0.98825 1.16800
O 	O 	0.79213 0.23385 0.94584 -0.82700
H 	H 	0.79430 0.27380 0.96820 0.25800
O 	O 	0.66493 0.65900 0.65907 -0.44100
O 	O 	0.77443 0.64830 0.65893 -0.44300
O 	O 	0.71210 0.32680 0.84220 -0.43700
O 	O 	0.82302 0.34170 0.85208 -0.43400
C 	C 	0.72220 0.63040 0.67600 0.38400
C 	C 	0.76390 0.36260 0.83421 0.38100
C 	C 	0.73070 0.56660 0.72040 -0.09200
C 	C 	0.75140 0.43710 0.79730 -0.08500
C 	C 	0.69940 0.49900 0.70880 -0.00800
H 	H 	0.67110 0.49490 0.67410 0.03100
C 	C 	0.70320 0.42680 0.74400 0.01900
H 	H 	0.67820 0.37950 0.73420 0.00500
C 	C 	0.78140 0.51470 0.81380 -0.03100
C 	C 	0.82300 0.52620 0.86610 -0.19400
H 	H 	0.82940 0.48380 0.89180 0.10900
C 	C 	0.85370 0.59940 0.87900 -0.15200
H 	H 	0.88210 0.60640 0.91330 0.08600
C 	C 	0.84360 0.66420 0.84160 0.20400
H 	H 	0.86300 0.71480 0.85240 -0.05300
C 	C 	0.80630 0.65510 0.79030 0.07200
H 	H 	0.80200 0.69770 0.76480 -0.06200
C 	C 	0.77420 0.58020 0.77620 0.05300
O 	O 	0.42009 0.64390 0.94838 -0.44800
O 	O 	0.35538 0.54000 0.95770 -0.44900
O 	O 	0.65287 0.32071 0.93808 -0.55700
O 	O 	0.58587 0.27040 0.86544 -0.33700
C 	C 	0.40810 0.56910 0.94544 0.35400
C 	C 	0.59590 0.32070 0.90306 0.35200
C 	C 	0.45710 0.50850 0.92898 -0.08900
C 	C 	0.54620 0.38600 0.90946 -0.11400
C 	C 	0.44620 0.42680 0.94030 -0.00500
H 	H 	0.40850 0.41320 0.95460 0.03100
C 	C 	0.48950 0.36480 0.93100 0.01000
H 	H 	0.48120 0.31060 0.93890 0.01200
C 	C 	0.55830 0.46500 0.89900 0.00100
C 	C 	0.61590 0.48690 0.87420 -0.03100
H 	H 	0.64390 0.44550 0.86600 0.04900
C 	C 	0.62950 0.56550 0.86280 -0.01300
H 	H 	0.66900 0.57870 0.85100 0.03200
C 	C 	0.58370 0.62630 0.86910 0.00200
H 	H 	0.59080 0.67890 0.85700 0.03500
C 	C 	0.52750 0.61250 0.89240 -0.01600
H 	H 	0.50040 0.65510 0.90020 0.02400
C 	C 	0.51440 0.53060 0.90350 0.02200
O 	O 	0.92090 0.33160 0.95739 -0.38600
O 	O 	0.96173 0.29150 0.88708 -0.36100
O 	O 	0.15912 0.63870 0.92878 -0.45600
O 	O 	0.22659 0.58250 0.99997 -0.48200
C 	C 	0.96500 0.33540 0.92940 0.31000
C 	C 	0.17320 0.58370 0.96349 0.39800
C 	C 	0.02120 0.39660 0.94350 -0.07800
C 	C 	0.12270 0.51580 0.96119 -0.10900
C 	C 	0.00980 0.47340 0.91450 -0.12300
H 	H 	0.96950 0.48370 0.88990 0.07300
C 	C 	0.06100 0.53190 0.92430 -0.06800
H 	H 	0.05450 0.58220 0.90630 0.06700
C 	C 	0.13350 0.43920 0.98740 -0.04600
C 	C 	0.19340 0.41740 0.02270 -0.13600
H 	H 	0.22930 0.45400 0.02860 0.08500
C 	C 	0.20030 0.34490 0.04810 0.05400
H 	H 	0.23940 0.33330 0.07390 0.00800
C 	C 	0.09030 0.30250 0.00100 -0.11300
H 	H 	0.05630 0.26340 0.99290 0.06600
C 	C 	0.14730 0.28430 0.03580 -0.02100
H 	H 	0.15320 0.23290 0.05230 0.03100
C 	C 	0.08070 0.37990 0.97640 -0.04100
C 	C 	0.68810 0.49650 0.71500 0.00400
H 	H 	0.65310 0.48940 0.68450 0.01500
C 	C 	0.70150 0.43780 0.75820 -0.04300
H 	H 	0.67010 0.39610 0.75750 0.05500
C 	C 	0.79780 0.50540 0.80460 0.05900
C 	C 	0.85140 0.51640 0.85070 0.14700
H 	H 	0.86010 0.47580 0.87770 -0.02400
C 	C 	0.89170 0.58660 0.85660 0.06700
H 	H 	0.93030 0.58900 0.88440 0.00200
C 	C 	0.87410 0.65270 0.82120 -0.26100
H 	H 	0.89620 0.70260 0.82900 0.12400
C 	C 	0.82370 0.64430 0.77440 -0.09800
H 	H 	0.81520 0.68740 0.74930 0.12300
C 	C 	0.78480 0.57150 0.76370 -0.02300
C 	C 	0.43890 0.42670 0.92660 -0.01200
H 	H 	0.39660 0.41150 0.93220 0.02400
C 	C 	0.48410 0.36630 0.91570 -0.01500
H 	H 	0.47060 0.31180 0.91280 0.03000
C 	C 	0.56730 0.47290 0.90640 0.03000
C 	C 	0.62910 0.49410 0.89510 -0.03700
H 	H 	0.65830 0.45340 0.88820 0.01600
C 	C 	0.64740 0.57280 0.89400 -0.02400
H 	H 	0.68840 0.58660 0.88520 0.02700
C 	C 	0.60360 0.63460 0.90620 -0.05400
H 	H 	0.61600 0.68940 0.90650 0.04300
C 	C 	0.54430 0.61240 0.91720 -0.04000
H 	H 	0.51540 0.65440 0.92290 0.04900
C 	C 	0.52110 0.53130 0.92110 0.01400
C 	C 	0.00700 0.47710 0.94700 0.09000
H 	H 	0.96280 0.49310 0.94630 0.00600
C 	C 	0.05770 0.53740 0.95180 0.05200
H 	H 	0.04590 0.59240 0.94840 0.02600
C 	C 	0.14130 0.43170 0.96970 0.09300
C 	C 	0.20740 0.40480 0.99110 0.04500
H 	H 	0.24290 0.44190 0.99550 0.00300
C 	C 	0.21990 0.32390 0.00580 -0.09200
H 	H 	0.26360 0.30790 0.02180 0.05500
C 	C 	0.16910 0.26620 0.99710 -0.04700
H 	H 	0.17840 0.21220 0.00790 0.03700
C 	C 	0.10700 0.28830 0.97350 0.04500
H 	H 	0.07360 0.24860 0.96490 0.00500
C 	C 	0.09060 0.37190 0.96110 0.07000
Co	Co	0.36665 0.74624 0.90000 1.18400
Co	Co	0.19967 0.73345 0.89338 1.18900
Co	Co	0.31133 0.63063 0.98825 1.16800
O 	O 	0.29213 0.73385 0.94584 -0.82700
H 	H 	0.29430 0.77380 0.96820 0.25800
O 	O 	0.16493 0.15900 0.65907 -0.44100
O 	O 	0.27443 0.14830 0.65893 -0.44300
O 	O 	0.21210 0.82680 0.84220 -0.43700
O 	O 	0.32302 0.84170 0.85208 -0.43400
C 	C 	0.22220 0.13040 0.67600 0.38400
C 	C 	0.26390 0.86260 0.83421 0.38100
C 	C 	0.23070 0.06660 0.72040 -0.09200
C 	C 	0.25140 0.93710 0.79730 -0.08600
C 	C 	0.19940 0.99900 0.70880 -0.00800
H 	H 	0.17110 0.99490 0.67410 0.03100
C 	C 	0.20320 0.92680 0.74400 0.01900
H 	H 	0.17820 0.87950 0.73420 0.00500
C 	C 	0.28140 0.01470 0.81380 -0.03000
C 	C 	0.32300 0.02620 0.86610 -0.19200
H 	H 	0.32940 0.98380 0.89180 0.10800
C 	C 	0.35370 0.09940 0.87900 -0.15100
H 	H 	0.38210 0.10640 0.91330 0.08600
C 	C 	0.34360 0.16420 0.84160 0.20200
H 	H 	0.36300 0.21480 0.85240 -0.05200
C 	C 	0.30630 0.15510 0.79030 0.07200
H 	H 	0.30200 0.19770 0.76480 -0.06200
C 	C 	0.27420 0.08020 0.77620 0.05300
O 	O 	0.92009 0.14390 0.94838 -0.44800
O 	O 	0.85538 0.04000 0.95770 -0.44900
O 	O 	0.15287 0.82071 0.93808 -0.55800
O 	O 	0.08587 0.77040 0.86544 -0.33700
C 	C 	0.90810 0.06910 0.94544 0.35400
C 	C 	0.09590 0.82070 0.90306 0.35200
C 	C 	0.95710 0.00850 0.92898 -0.09000
C 	C 	0.04620 0.88600 0.90946 -0.11400
C 	C 	0.94620 0.92680 0.94030 -0.00500
H 	H 	0.90850 0.91320 0.95460 0.03000
C 	C 	0.98950 0.86480 0.93100 0.01000
H 	H 	0.98120 0.81060 0.93890 0.01200
C 	C 	0.05830 0.96500 0.89900 0.00100
C 	C 	0.11590 0.98690 0.87420 -0.03100
H 	H 	0.14390 0.94550 0.86600 0.04900
C 	C 	0.12950 0.06550 0.86280 -0.01300
H 	H 	0.16900 0.07870 0.85100 0.03200
C 	C 	0.08370 0.12630 0.86910 0.00200
H 	H 	0.09080 0.17890 0.85700 0.03500
C 	C 	0.02750 0.11250 0.89240 -0.01600
H 	H 	0.00040 0.15510 0.90020 0.02400
C 	C 	0.01440 0.03060 0.90350 0.02200
O 	O 	0.42090 0.83160 0.95739 -0.38600
O 	O 	0.46173 0.79150 0.88708 -0.36100
O 	O 	0.65912 0.13870 0.92878 -0.45600
O 	O 	0.72659 0.08250 0.99997 -0.48200
C 	C 	0.46500 0.83540 0.92940 0.31100
C 	C 	0.67320 0.08370 0.96349 0.39800
C 	C 	0.52120 0.89660 0.94350 -0.07800
C 	C 	0.62270 0.01580 0.96119 -0.10900
C 	C 	0.50980 0.97340 0.91450 -0.11600
H 	H 	0.46950 0.98370 0.88990 0.07000
C 	C 	0.56100 0.03190 0.92430 -0.06300
H 	H 	0.55450 0.08220 0.90630 0.06600
C 	C 	0.63350 0.93920 0.98740 -0.03600
C 	C 	0.69340 0.91740 0.02270 -0.12600
H 	H 	0.72930 0.95400 0.02860 0.08100
C 	C 	0.70030 0.84490 0.04810 0.04600
H 	H 	0.73940 0.83330 0.07390 0.01000
C 	C 	0.59030 0.80250 0.00100 -0.10100
H 	H 	0.55630 0.76340 0.99290 0.06100
C 	C 	0.64730 0.78430 0.03580 -0.02400
H 	H 	0.65320 0.73290 0.05230 0.03200
C 	C 	0.58070 0.87990 0.97640 -0.03100
C 	C 	0.18810 0.99650 0.71500 0.00400
H 	H 	0.15310 0.98940 0.68450 0.01500
C 	C 	0.20150 0.93780 0.75820 -0.04300
H 	H 	0.17010 0.89610 0.75750 0.05500
C 	C 	0.29780 0.00540 0.80460 0.05900
C 	C 	0.35140 0.01640 0.85070 0.14600
H 	H 	0.36010 0.97580 0.87770 -0.02400
C 	C 	0.39170 0.08660 0.85660 0.06700
H 	H 	0.43030 0.08900 0.88440 0.00300
C 	C 	0.37410 0.15270 0.82120 -0.26000
H 	H 	0.39620 0.20260 0.82900 0.12300
C 	C 	0.32370 0.14430 0.77440 -0.09800
H 	H 	0.31520 0.18740 0.74930 0.12200
C 	C 	0.28480 0.07150 0.76370 -0.02400
C 	C 	0.93890 0.92670 0.92660 -0.01200
H 	H 	0.89660 0.91150 0.93220 0.02400
C 	C 	0.98410 0.86630 0.91570 -0.01500
H 	H 	0.97060 0.81180 0.91280 0.03000
C 	C 	0.06730 0.97290 0.90640 0.03000
C 	C 	0.12910 0.99410 0.89510 -0.03700
H 	H 	0.15830 0.95340 0.88820 0.01600
C 	C 	0.14740 0.07280 0.89400 -0.02300
H 	H 	0.18840 0.08660 0.88520 0.02600
C 	C 	0.10360 0.13460 0.90620 -0.05400
H 	H 	0.11600 0.18940 0.90650 0.04300
C 	C 	0.04430 0.11240 0.91720 -0.04000
H 	H 	0.01540 0.15440 0.92290 0.04900
C 	C 	0.02110 0.03130 0.92110 0.01400
C 	C 	0.50700 0.97710 0.94700 0.08300
H 	H 	0.46280 0.99310 0.94630 0.00800
C 	C 	0.55770 0.03740 0.95180 0.04800
H 	H 	0.54590 0.09240 0.94840 0.02700
C 	C 	0.64130 0.93170 0.96970 0.08200
C 	C 	0.70740 0.90480 0.99110 0.03500
H 	H 	0.74290 0.94190 0.99550 0.00700
C 	C 	0.71990 0.82390 0.00580 -0.08400
H 	H 	0.76360 0.80790 0.02180 0.05300
C 	C 	0.66910 0.76620 0.99710 -0.04500
H 	H 	0.67840 0.71220 0.00790 0.03600
C 	C 	0.60700 0.78830 0.97350 0.03400
H 	H 	0.57360 0.74860 0.96490 0.00900
C 	C 	0.59060 0.87190 0.96110 0.06000
Co	Co	0.13335 0.24624 0.60000 1.18400
Co	Co	0.30033 0.23345 0.60662 1.18900
Co	Co	0.18867 0.13063 0.51175 1.16800
O 	O 	0.20787 0.23385 0.55416 -0.82700
H 	H 	0.20570 0.27380 0.53180 0.25800
O 	O 	0.33507 0.65900 0.84093 -0.44100
O 	O 	0.22557 0.64830 0.84107 -0.44300
O 	O 	0.28790 0.32680 0.65780 -0.43700
O 	O 	0.17698 0.34170 0.64792 -0.43400
C 	C 	0.27780 0.63040 0.82400 0.38400
C 	C 	0.23610 0.36260 0.66579 0.38100
C 	C 	0.26930 0.56660 0.77960 -0.09200
C 	C 	0.24860 0.43710 0.70270 -0.08500
C 	C 	0.30060 0.49900 0.79120 -0.00800
H 	H 	0.32890 0.49490 0.82590 0.03100
C 	C 	0.29680 0.42680 0.75600 0.01900
H 	H 	0.32180 0.37950 0.76580 0.00500
C 	C 	0.21860 0.51470 0.68620 -0.03100
C 	C 	0.17700 0.52620 0.63390 -0.19400
H 	H 	0.17060 0.48380 0.60820 0.10900
C 	C 	0.14630 0.59940 0.62100 -0.15200
H 	H 	0.11790 0.60640 0.58670 0.08600
C 	C 	0.15640 0.66420 0.65840 0.20300
H 	H 	0.13700 0.71480 0.64760 -0.05300
C 	C 	0.19370 0.65510 0.70970 0.07200
H 	H 	0.19800 0.69770 0.73520 -0.06200
C 	C 	0.22580 0.58020 0.72380 0.05300
O 	O 	0.57991 0.64390 0.55162 -0.44800
O 	O 	0.64462 0.54000 0.54230 -0.44900
O 	O 	0.34713 0.32071 0.56192 -0.55700
O 	O 	0.41413 0.27040 0.63456 -0.33700
C 	C 	0.59190 0.56910 0.55456 0.35400
C 	C 	0.40410 0.32070 0.59694 0.35200
C 	C 	0.54290 0.50850 0.57102 -0.08900
C 	C 	0.45380 0.38600 0.59054 -0.11400
C 	C 	0.55380 0.42680 0.55970 -0.00500
H 	H 	0.59150 0.41320 0.54540 0.03000
C 	C 	0.51050 0.36480 0.56900 0.01000
H 	H 	0.51880 0.31060 0.56110 0.01200
C 	C 	0.44170 0.46500 0.60100 0.00100
C 	C 	0.38410 0.48690 0.62580 -0.03100
H 	H 	0.35610 0.44550 0.63400 0.04900
C 	C 	0.37050 0.56550 0.63720 -0.01300
H 	H 	0.33100 0.57870 0.64900 0.03200
C 	C 	0.41630 0.62630 0.63090 0.00200
H 	H 	0.40920 0.67890 0.64300 0.03500
C 	C 	0.47250 0.61250 0.60760 -0.01600
H 	H 	0.49960 0.65510 0.59980 0.02400
C 	C 	0.48560 0.53060 0.59650 0.02200
O 	O 	0.07910 0.33160 0.54261 -0.38600
O 	O 	0.03827 0.29150 0.61292 -0.36100
O 	O 	0.84088 0.63870 0.57122 -0.45600
O 	O 	0.77341 0.58250 0.50003 -0.48200
C 	C 	0.03500 0.33540 0.57060 0.31000
C 	C 	0.82680 0.58370 0.53651 0.39800
C 	C 	0.97880 0.39660 0.55650 -0.07800
C 	C 	0.87730 0.51580 0.53881 -0.10900
C 	C 	0.99020 0.47340 0.58550 -0.12100
H 	H 	0.03050 0.48370 0.61010 0.07200
C 	C 	0.93900 0.53190 0.57570 -0.06600
H 	H 	0.94550 0.58220 0.59370 0.06700
C 	C 	0.86650 0.43920 0.51260 -0.04300
C 	C 	0.80660 0.41740 0.47730 -0.13300
H 	H 	0.77070 0.45400 0.47140 0.08400
C 	C 	0.79970 0.34490 0.45190 0.05100
H 	H 	0.76060 0.33330 0.42610 0.00900
C 	C 	0.90970 0.30250 0.49900 -0.10900
H 	H 	0.94370 0.26340 0.50710 0.06400
C 	C 	0.85270 0.28430 0.46420 -0.02200
H 	H 	0.84680 0.23290 0.44770 0.03100
C 	C 	0.91930 0.37990 0.52360 -0.03700
C 	C 	0.31190 0.49650 0.78500 0.00400
H 	H 	0.34690 0.48940 0.81550 0.01500
C 	C 	0.29850 0.43780 0.74180 -0.04300
H 	H 	0.32990 0.39610 0.74250 0.05500
C 	C 	0.20220 0.50540 0.69540 0.05900
C 	C 	0.14860 0.51640 0.64930 0.14700
H 	H 	0.13990 0.47580 0.62230 -0.02400
C 	C 	0.10830 0.58660 0.64340 0.06700
H 	H 	0.06970 0.58900 0.61560 0.00200
C 	C 	0.12590 0.65270 0.67880 -0.26100
H 	H 	0.10380 0.70260 0.67100 0.12300
C 	C 	0.17630 0.64430 0.72560 -0.09800
H 	H 	0.18480 0.68740 0.75070 0.12300
C 	C 	0.21520 0.57150 0.73630 -0.02400
C 	C 	0.56110 0.42670 0.57340 -0.01200
H 	H 	0.60340 0.41150 0.56780 0.02400
C 	C 	0.51590 0.36630 0.58430 -0.01500
H 	H 	0.52940 0.31180 0.58720 0.03000
C 	C 	0.43270 0.47290 0.59360 0.03000
C 	C 	0.37090 0.49410 0.60490 -0.03700
H 	H 	0.34170 0.45340 0.61180 0.01600
C 	C 	0.35260 0.57280 0.60600 -0.02400
H 	H 	0.31160 0.58660 0.61480 0.02700
C 	C 	0.39640 0.63460 0.59380 -0.05400
H 	H 	0.38400 0.68940 0.59350 0.04300
C 	C 	0.45570 0.61240 0.58280 -0.04000
H 	H 	0.48460 0.65440 0.57710 0.04900
C 	C 	0.47890 0.53130 0.57890 0.01400
C 	C 	0.99300 0.47710 0.55300 0.08700
H 	H 	0.03720 0.49310 0.55370 0.00700
C 	C 	0.94230 0.53740 0.54820 0.05100
H 	H 	0.95410 0.59240 0.55160 0.02600
C 	C 	0.85870 0.43170 0.53030 0.09000
C 	C 	0.79260 0.40480 0.50890 0.04200
H 	H 	0.75710 0.44190 0.50450 0.00400
C 	C 	0.78010 0.32390 0.49420 -0.08900
H 	H 	0.73640 0.30790 0.47820 0.05400
C 	C 	0.83090 0.26620 0.50290 -0.04700
H 	H 	0.82160 0.21220 0.49210 0.03700
C 	C 	0.89300 0.28830 0.52650 0.04100
H 	H 	0.92640 0.24860 0.53510 0.00600
C 	C 	0.90940 0.37190 0.53890 0.06600
Co	Co	0.63335 0.74624 0.60000 1.18400
Co	Co	0.80033 0.73345 0.60662 1.18900
Co	Co	0.68867 0.63063 0.51175 1.16800
O 	O 	0.70787 0.73385 0.55416 -0.82700
H 	H 	0.70570 0.77380 0.53180 0.25800
O 	O 	0.83507 0.15900 0.84093 -0.44100
O 	O 	0.72557 0.14830 0.84107 -0.44300
O 	O 	0.78790 0.82680 0.65780 -0.43700
O 	O 	0.67698 0.84170 0.64792 -0.43400
C 	C 	0.77780 0.13040 0.82400 0.38400
C 	C 	0.73610 0.86260 0.66579 0.38100
C 	C 	0.76930 0.06660 0.77960 -0.09200
C 	C 	0.74860 0.93710 0.70270 -0.08600
C 	C 	0.80060 0.99900 0.79120 -0.00800
H 	H 	0.82890 0.99490 0.82590 0.03100
C 	C 	0.79680 0.92680 0.75600 0.01900
H 	H 	0.82180 0.87950 0.76580 0.00500
C 	C 	0.71860 0.01470 0.68620 -0.03100
C 	C 	0.67700 0.02620 0.63390 -0.19400
H 	H 	0.67060 0.98380 0.60820 0.10900
C 	C 	0.64630 0.09940 0.62100 -0.15200
H 	H 	0.61790 0.10640 0.58670 0.08600
C 	C 	0.65640 0.16420 0.65840 0.20300
H 	H 	0.63700 0.21480 0.64760 -0.05300
C 	C 	0.69370 0.15510 0.70970 0.07200
H 	H 	0.69800 0.19770 0.73520 -0.06200
C 	C 	0.72580 0.08020 0.72380 0.05300
O 	O 	0.07991 0.14390 0.55162 -0.44800
O 	O 	0.14462 0.04000 0.54230 -0.44900
O 	O 	0.84713 0.82071 0.56192 -0.55800
O 	O 	0.91413 0.77040 0.63456 -0.33800
C 	C 	0.09190 0.06910 0.55456 0.35400
C 	C 	0.90410 0.82070 0.59694 0.35200
C 	C 	0.04290 0.00850 0.57102 -0.08900
C 	C 	0.95380 0.88600 0.59054 -0.11400
C 	C 	0.05380 0.92680 0.55970 -0.00500
H 	H 	0.09150 0.91320 0.54540 0.03000
C 	C 	0.01050 0.86480 0.56900 0.01000
H 	H 	0.01880 0.81060 0.56110 0.01200
C 	C 	0.94170 0.96500 0.60100 0.00100
C 	C 	0.88410 0.98690 0.62580 -0.03100
H 	H 	0.85610 0.94550 0.63400 0.04900
C 	C 	0.87050 0.06550 0.63720 -0.01300
H 	H 	0.83100 0.07870 0.64900 0.03200
C 	C 	0.91630 0.12630 0.63090 0.00200
H 	H 	0.90920 0.17890 0.64300 0.03500
C 	C 	0.97250 0.11250 0.60760 -0.01600
H 	H 	0.99960 0.15510 0.59980 0.02400
C 	C 	0.98560 0.03060 0.59650 0.02200
O 	O 	0.57910 0.83160 0.54261 -0.38600
O 	O 	0.53827 0.79150 0.61292 -0.36100
O 	O 	0.34088 0.13870 0.57122 -0.45600
O 	O 	0.27341 0.08250 0.50003 -0.48200
C 	C 	0.53500 0.83540 0.57060 0.31100
C 	C 	0.32680 0.08370 0.53651 0.39800
C 	C 	0.47880 0.89660 0.55650 -0.07800
C 	C 	0.37730 0.01580 0.53881 -0.10900
C 	C 	0.49020 0.97340 0.58550 -0.12000
H 	H 	0.53050 0.98370 0.61010 0.07200
C 	C 	0.43900 0.03190 0.57570 -0.06600
H 	H 	0.44550 0.08220 0.59370 0.06700
C 	C 	0.36650 0.93920 0.51260 -0.04300
C 	C 	0.30660 0.91740 0.47730 -0.13300
H 	H 	0.27070 0.95400 0.47140 0.08400
C 	C 	0.29970 0.84490 0.45190 0.05100
H 	H 	0.26060 0.83330 0.42610 0.00900
C 	C 	0.40970 0.80250 0.49900 -0.10900
H 	H 	0.44370 0.76340 0.50710 0.06400
C 	C 	0.35270 0.78430 0.46420 -0.02200
H 	H 	0.34680 0.73290 0.44770 0.03100
C 	C 	0.41930 0.87990 0.52360 -0.03700
C 	C 	0.81190 0.99650 0.78500 0.00400
H 	H 	0.84690 0.98940 0.81550 0.01500
C 	C 	0.79850 0.93780 0.74180 -0.04300
H 	H 	0.82990 0.89610 0.74250 0.05500
C 	C 	0.70220 0.00540 0.69540 0.05900
C 	C 	0.64860 0.01640 0.64930 0.14700
H 	H 	0.63990 0.97580 0.62230 -0.02400
C 	C 	0.60830 0.08660 0.64340 0.06700
H 	H 	0.56970 0.08900 0.61560 0.00200
C 	C 	0.62590 0.15270 0.67880 -0.26100
H 	H 	0.60380 0.20260 0.67100 0.12300
C 	C 	0.67630 0.14430 0.72560 -0.09800
H 	H 	0.68480 0.18740 0.75070 0.12300
C 	C 	0.71520 0.07150 0.73630 -0.02400
C 	C 	0.06110 0.92670 0.57340 -0.01200
H 	H 	0.10340 0.91150 0.56780 0.02400
C 	C 	0.01590 0.86630 0.58430 -0.01500
H 	H 	0.02940 0.81180 0.58720 0.03000
C 	C 	0.93270 0.97290 0.59360 0.03000
C 	C 	0.87090 0.99410 0.60490 -0.03700
H 	H 	0.84170 0.95340 0.61180 0.01600
C 	C 	0.85260 0.07280 0.60600 -0.02400
H 	H 	0.81160 0.08660 0.61480 0.02700
C 	C 	0.89640 0.13460 0.59380 -0.05400
H 	H 	0.88400 0.18940 0.59350 0.04300
C 	C 	0.95570 0.11240 0.58280 -0.04000
H 	H 	0.98460 0.15440 0.57710 0.04900
C 	C 	0.97890 0.03130 0.57890 0.01300
C 	C 	0.49300 0.97710 0.55300 0.08700
H 	H 	0.53720 0.99310 0.55370 0.00700
C 	C 	0.44230 0.03740 0.54820 0.05100
H 	H 	0.45410 0.09240 0.55160 0.02600
C 	C 	0.35870 0.93170 0.53030 0.09000
C 	C 	0.29260 0.90480 0.50890 0.04200
H 	H 	0.25710 0.94190 0.50450 0.00400
C 	C 	0.28010 0.82390 0.49420 -0.08900
H 	H 	0.23640 0.80790 0.47820 0.05400
C 	C 	0.33090 0.76620 0.50290 -0.04700
H 	H 	0.32160 0.71220 0.49210 0.03700
C 	C 	0.39300 0.78830 0.52650 0.04100
H 	H 	0.42640 0.74860 0.53510 0.00700
C 	C 	0.40940 0.87190 0.53890 0.06600
