data_crystal

_cell_length_a 19.71900
_cell_length_b 15.66420
_cell_length_c 27.11800
_cell_angle_alpha 90.00000
_cell_angle_beta  90.00000
_cell_angle_gamma 90.00000

_symmetry_space_group_name_	'P 1'
_symmetry_space_group_name_H-M	'P 1'

loop_
_symmetry_equiv_pos_as_xyz
  x,y,z

loop_
_atom_site_label
_atom_site_type_symbol
_atom_site_fract_x
_atom_site_fract_y
_atom_site_fract_z
_atom_site_charge
Co	Co	0.01765 0.22862 0.52252 1.16600
Co	Co	0.03824 0.12752 0.42047 1.16800
Co	Co	0.96101 0.94923 0.37638 1.19100
O 	O 	0.95201 0.21084 0.42076 -0.41700
O 	O 	0.93020 0.26255 0.49571 -0.44300
O 	O 	0.62153 0.38070 0.38335 -0.49000
O 	O 	0.66060 0.49550 0.36810 -0.20600
C 	C 	0.91736 0.25293 0.45050 0.36700
C 	C 	0.66890 0.42400 0.38821 0.40500
C 	C 	0.85492 0.29750 0.43240 -0.09000
C 	C 	0.79827 0.25270 0.42032 -0.02300
H 	H 	0.79870 0.19340 0.42130 0.04600
C 	C 	0.73879 0.29680 0.40628 -0.00200
H 	H 	0.69990 0.26570 0.39890 0.04200
C 	C 	0.73672 0.38360 0.40321 -0.12400
C 	C 	0.79468 0.43200 0.41393 0.06400
C 	C 	0.79880 0.52430 0.41208 -0.10400
H 	H 	0.76110 0.55560 0.40230 0.09100
C 	C 	0.85710 0.56630 0.42440 0.00600
H 	H 	0.85820 0.62560 0.42280 0.03500
C 	C 	0.91340 0.52340 0.43884 -0.04300
H 	H 	0.95260 0.55330 0.44710 0.05700
C 	C 	0.91272 0.43730 0.44127 -0.05600
H 	H 	0.95190 0.40890 0.45100 0.06300
C 	C 	0.85403 0.38865 0.42952 0.03100
O 	O 	0.91006 0.05141 0.52634 -0.45000
O 	O 	0.88219 0.95981 0.58598 -0.41400
O 	O 	0.58481 0.19777 0.51087 -0.46200
O 	O 	0.60680 0.27181 0.57964 -0.42200
C 	C 	0.87035 0.02193 0.55815 0.34200
C 	C 	0.61868 0.21391 0.54916 0.38100
C 	C 	0.80244 0.06665 0.56121 -0.07100
C 	C 	0.80276 0.15240 0.55256 -0.03900
H 	H 	0.84380 0.18030 0.54730 0.06200
C 	C 	0.74208 0.19931 0.55142 0.01800
H 	H 	0.74380 0.25810 0.54690 0.03000
C 	C 	0.68110 0.16066 0.55671 -0.12000
C 	C 	0.67776 0.07064 0.56557 0.08300
C 	C 	0.61504 0.02840 0.57155 -0.13200
H 	H 	0.57490 0.05940 0.56940 0.08300
C 	C 	0.61260 0.94260 0.58040 0.03800
H 	H 	0.57110 0.91530 0.58430 0.03100
C 	C 	0.67290 0.89630 0.58360 -0.06300
H 	H 	0.67110 0.83800 0.59010 0.06200
C 	C 	0.73427 0.93430 0.57762 -0.02700
H 	H 	0.77340 0.90140 0.57930 0.06100
C 	C 	0.73986 0.02370 0.56876 0.00400
O 	O 	0.02166 0.84857 0.37621 -0.49200
O 	O 	0.99212 0.72673 0.41106 -0.44000
O 	O 	0.97275 0.63261 0.15533 -0.38200
O 	O 	0.02203 0.51383 0.18491 -0.44500
C 	C 	0.01018 0.77022 0.37446 0.37800
C 	C 	0.00185 0.59060 0.18802 0.34600
C 	C 	0.01681 0.72299 0.32654 -0.15000
C 	C 	0.98053 0.64980 0.32183 0.03600
H 	H 	0.95670 0.62910 0.34890 0.03900
C 	C 	0.97791 0.60450 0.27713 0.01200
H 	H 	0.95320 0.55410 0.27510 0.04700
C 	C 	0.01147 0.63420 0.23668 -0.11100
C 	C 	0.05315 0.70850 0.24021 0.04000
C 	C 	0.09203 0.73770 0.19991 -0.06700
H 	H 	0.08980 0.70880 0.17000 0.07400
C 	C 	0.13290 0.80750 0.20413 -0.03400
H 	H 	0.15800 0.82620 0.17720 0.05500
C 	C 	0.13680 0.85090 0.24892 -0.00300
H 	H 	0.16520 0.89810 0.25160 0.04300
C 	C 	0.10012 0.82550 0.28864 -0.10100
H 	H 	0.10370 0.85570 0.31800 0.08500
C 	C 	0.05666 0.75400 0.28622 0.06600
O 	O 	0.04774 0.11848 0.49910 -0.72900
H 	H 	0.09570 0.11100 0.50760 0.16000
O 	O 	0.96724 0.03204 0.43015 -0.70700
H 	H 	0.92280 0.05940 0.43350 0.19000
O 	O 	0.66440 0.50790 0.39400 -0.16800
Co	Co	0.48235 0.77138 0.02252 1.15800
Co	Co	0.46176 0.87248 0.92047 1.17800
Co	Co	0.53899 0.05077 0.87638 1.17300
O 	O 	0.54799 0.78916 0.92076 -0.43100
O 	O 	0.56980 0.73745 0.99571 -0.43800
O 	O 	0.87847 0.61930 0.88335 -0.48500
O 	O 	0.83940 0.50450 0.86810 -0.20900
C 	C 	0.58264 0.74707 0.95050 0.36900
C 	C 	0.83110 0.57600 0.88821 0.40400
C 	C 	0.64508 0.70250 0.93240 -0.08800
C 	C 	0.70173 0.74730 0.92032 -0.02100
H 	H 	0.70130 0.80660 0.92130 0.04900
C 	C 	0.76121 0.70320 0.90628 0.00100
H 	H 	0.80010 0.73430 0.89890 0.04300
C 	C 	0.76328 0.61640 0.90321 -0.12300
C 	C 	0.70532 0.56800 0.91393 0.06700
C 	C 	0.70120 0.47570 0.91208 -0.10300
H 	H 	0.73890 0.44440 0.90230 0.09200
C 	C 	0.64290 0.43370 0.92440 0.00900
H 	H 	0.64180 0.37440 0.92280 0.03600
C 	C 	0.58660 0.47660 0.93884 -0.04300
H 	H 	0.54740 0.44670 0.94710 0.05500
C 	C 	0.58728 0.56270 0.94127 -0.05300
H 	H 	0.54810 0.59110 0.95100 0.05800
C 	C 	0.64597 0.61135 0.92952 0.03100
O 	O 	0.58994 0.94859 0.02634 -0.47800
O 	O 	0.61781 0.04019 0.08598 -0.44900
O 	O 	0.91519 0.80223 0.01087 -0.46600
O 	O 	0.89320 0.72819 0.07964 -0.41600
C 	C 	0.62965 0.97807 0.05815 0.39200
C 	C 	0.88132 0.78609 0.04916 0.37000
C 	C 	0.69756 0.93335 0.06121 -0.12400
C 	C 	0.69724 0.84760 0.05256 0.00300
H 	H 	0.65620 0.81970 0.04730 0.04000
C 	C 	0.75792 0.80069 0.05142 -0.02400
H 	H 	0.75620 0.74190 0.04690 0.03900
C 	C 	0.81890 0.83934 0.05671 -0.08400
C 	C 	0.82224 0.92936 0.06557 0.01500
C 	C 	0.88496 0.97160 0.07155 -0.01700
H 	H 	0.92510 0.94060 0.06940 0.05400
C 	C 	0.88740 0.05740 0.08040 -0.09300
H 	H 	0.92890 0.08470 0.08430 0.08000
C 	C 	0.82710 0.10370 0.08360 0.04400
H 	H 	0.82890 0.16200 0.09010 0.02300
C 	C 	0.76573 0.06570 0.07762 -0.14500
H 	H 	0.72660 0.09860 0.07930 0.09700
C 	C 	0.76014 0.97630 0.06876 0.09200
O 	O 	0.47834 0.15143 0.87621 -0.49100
O 	O 	0.50788 0.27327 0.91106 -0.46300
O 	O 	0.52725 0.36739 0.65533 -0.41400
O 	O 	0.47797 0.48617 0.68491 -0.44000
C 	C 	0.48982 0.22978 0.87446 0.40300
C 	C 	0.49815 0.40940 0.68802 0.37400
C 	C 	0.48319 0.27701 0.82654 -0.12600
C 	C 	0.51947 0.35020 0.82183 0.00700
H 	H 	0.54330 0.37090 0.84890 0.04300
C 	C 	0.52209 0.39550 0.77713 -0.01800
H 	H 	0.54680 0.44590 0.77510 0.05000
C 	C 	0.48853 0.36580 0.73668 -0.08600
C 	C 	0.44685 0.29150 0.74021 0.03900
C 	C 	0.40797 0.26230 0.69991 -0.06500
H 	H 	0.41020 0.29120 0.67000 0.07500
C 	C 	0.36710 0.19250 0.70413 -0.03700
H 	H 	0.34200 0.17380 0.67720 0.05400
C 	C 	0.36320 0.14910 0.74892 -0.00500
H 	H 	0.33480 0.10190 0.75160 0.03600
C 	C 	0.39988 0.17450 0.78864 -0.10000
H 	H 	0.39630 0.14430 0.81800 0.08100
C 	C 	0.44334 0.24600 0.78622 0.06400
O 	O 	0.45226 0.88152 0.99910 -0.67500
H 	H 	0.40430 0.88900 0.00760 0.13600
O 	O 	0.53276 0.96796 0.93015 -0.70700
H 	H 	0.57720 0.94060 0.93350 0.19300
O 	O 	0.83560 0.49210 0.89400 -0.16300
Co	Co	0.98235 0.72862 0.97748 1.19600
Co	Co	0.96176 0.62752 0.07953 1.18500
Co	Co	0.03899 0.44923 0.12362 1.17100
O 	O 	0.04799 0.71084 0.07924 -0.44600
O 	O 	0.06980 0.76255 0.00429 -0.48100
O 	O 	0.37847 0.88070 0.11665 -0.49600
O 	O 	0.33940 0.99550 0.13190 -0.14900
C 	C 	0.08264 0.75293 0.04950 0.36700
C 	C 	0.33110 0.92400 0.11179 0.42100
C 	C 	0.14508 0.79750 0.06760 -0.07100
C 	C 	0.20173 0.75270 0.07968 -0.04700
H 	H 	0.20130 0.69340 0.07870 0.05100
C 	C 	0.26121 0.79680 0.09372 0.02100
H 	H 	0.30010 0.76570 0.10110 0.03200
C 	C 	0.26328 0.88360 0.09679 -0.15500
C 	C 	0.20532 0.93200 0.08607 0.12800
C 	C 	0.20120 0.02430 0.08792 -0.19600
H 	H 	0.23890 0.05560 0.09770 0.11900
C 	C 	0.14290 0.06630 0.07560 0.09400
H 	H 	0.14180 0.12560 0.07720 -0.00200
C 	C 	0.08660 0.02340 0.06116 -0.16000
H 	H 	0.04740 0.05330 0.05290 0.07300
C 	C 	0.08728 0.93730 0.05873 0.03700
H 	H 	0.04810 0.90890 0.04900 0.01600
C 	C 	0.14597 0.88865 0.07048 -0.02600
O 	O 	0.08994 0.55141 0.97366 -0.45300
O 	O 	0.11781 0.45981 0.91402 -0.43300
O 	O 	0.41519 0.69777 0.98913 -0.44300
O 	O 	0.39320 0.77181 0.92036 -0.41600
C 	C 	0.12965 0.52193 0.94185 0.36700
C 	C 	0.38132 0.71391 0.95084 0.37200
C 	C 	0.19756 0.56665 0.93879 -0.09600
C 	C 	0.19724 0.65240 0.94744 -0.01200
H 	H 	0.15620 0.68030 0.95270 0.05600
C 	C 	0.25792 0.69931 0.94858 -0.00400
H 	H 	0.25620 0.75810 0.95310 0.04300
C 	C 	0.31890 0.66066 0.94329 -0.09300
C 	C 	0.32224 0.57064 0.93443 0.04500
C 	C 	0.38496 0.52840 0.92845 -0.06000
H 	H 	0.42510 0.55940 0.93060 0.06400
C 	C 	0.38740 0.44260 0.91960 -0.03600
H 	H 	0.42890 0.41530 0.91570 0.05700
C 	C 	0.32710 0.39630 0.91640 0.00200
H 	H 	0.32890 0.33800 0.90990 0.04000
C 	C 	0.26573 0.43430 0.92238 -0.09200
H 	H 	0.22660 0.40140 0.92070 0.08400
C 	C 	0.26014 0.52370 0.93124 0.05800
O 	O 	0.97834 0.34857 0.12379 -0.48300
O 	O 	0.00788 0.22673 0.08894 -0.50600
O 	O 	0.02725 0.13261 0.34467 -0.45300
O 	O 	0.97797 0.01383 0.31509 -0.44300
C 	C 	0.98982 0.27022 0.12554 0.43600
C 	C 	0.99815 0.09060 0.31198 0.41000
C 	C 	0.98319 0.22299 0.17346 -0.09300
C 	C 	0.01947 0.14980 0.17817 -0.03200
H 	H 	0.04330 0.12910 0.15110 0.04900
C 	C 	0.02209 0.10450 0.22287 -0.05000
H 	H 	0.04680 0.05410 0.22490 0.04800
C 	C 	0.98853 0.13420 0.26332 -0.05900
C 	C 	0.94685 0.20850 0.25979 0.04200
C 	C 	0.90797 0.23770 0.30009 -0.06300
H 	H 	0.91020 0.20880 0.33000 0.07700
C 	C 	0.86710 0.30750 0.29587 -0.03200
H 	H 	0.84200 0.32620 0.32280 0.05400
C 	C 	0.86320 0.35090 0.25108 -0.00600
H 	H 	0.83480 0.39810 0.24840 0.04300
C 	C 	0.89988 0.32550 0.21136 -0.09200
H 	H 	0.89630 0.35570 0.18200 0.08300
C 	C 	0.94334 0.25400 0.21378 0.06000
O 	O 	0.95226 0.61848 0.00090 -0.73600
H 	H 	0.90430 0.61100 0.99240 0.18700
O 	O 	0.03276 0.53204 0.06985 -0.73600
H 	H 	0.07720 0.55940 0.06650 0.18900
O 	O 	0.33560 0.00790 0.10600 -0.23300
Co	Co	0.51765 0.27138 0.47748 1.17400
Co	Co	0.53824 0.37248 0.57953 1.17700
Co	Co	0.46101 0.55077 0.62362 1.18000
O 	O 	0.45201 0.28916 0.57924 -0.43700
O 	O 	0.43020 0.23745 0.50429 -0.45900
O 	O 	0.12153 0.11930 0.61665 -0.49200
O 	O 	0.16060 0.00450 0.63190 -0.27900
C 	C 	0.41736 0.24707 0.54950 0.38000
C 	C 	0.16890 0.07600 0.61179 0.38700
C 	C 	0.35492 0.20250 0.56760 -0.12000
C 	C 	0.29827 0.24730 0.57968 0.00400
H 	H 	0.29870 0.30660 0.57870 0.03700
C 	C 	0.23879 0.20320 0.59372 -0.02800
H 	H 	0.19990 0.23430 0.60110 0.04900
C 	C 	0.23672 0.11640 0.59679 -0.09700
C 	C 	0.29468 0.06800 0.58607 -0.00300
C 	C 	0.29880 0.97570 0.58792 -0.01400
H 	H 	0.26110 0.94440 0.59770 0.06100
C 	C 	0.35710 0.93370 0.57560 -0.08600
H 	H 	0.35820 0.87440 0.57720 0.06700
C 	C 	0.41340 0.97660 0.56116 0.06500
H 	H 	0.45260 0.94670 0.55290 0.01600
C 	C 	0.41272 0.06270 0.55873 -0.15100
H 	H 	0.45190 0.09110 0.54900 0.08500
C 	C 	0.35403 0.11135 0.57048 0.08300
O 	O 	0.41006 0.44859 0.47366 -0.46500
O 	O 	0.38219 0.54019 0.41402 -0.43300
O 	O 	0.08481 0.30223 0.48913 -0.46400
O 	O 	0.10680 0.22819 0.42036 -0.42400
C 	C 	0.37035 0.47807 0.44185 0.36800
C 	C 	0.11868 0.28609 0.45084 0.37300
C 	C 	0.30244 0.43335 0.43879 -0.09800
C 	C 	0.30276 0.34760 0.44744 -0.01500
H 	H 	0.34380 0.31970 0.45270 0.05300
C 	C 	0.24208 0.30069 0.44858 -0.00300
H 	H 	0.24380 0.24190 0.45310 0.03600
C 	C 	0.18110 0.33934 0.44329 -0.10000
C 	C 	0.17776 0.42936 0.43443 0.04400
C 	C 	0.11504 0.47160 0.42845 -0.06600
H 	H 	0.07490 0.44060 0.43060 0.05700
C 	C 	0.11260 0.55740 0.41960 -0.03700
H 	H 	0.07110 0.58470 0.41570 0.04600
C 	C 	0.17290 0.60370 0.41640 -0.00500
H 	H 	0.17110 0.66200 0.40990 0.04000
C 	C 	0.23427 0.56570 0.42238 -0.09200
H 	H 	0.27340 0.59860 0.42070 0.08100
C 	C 	0.23986 0.47630 0.43124 0.05300
O 	O 	0.52166 0.65143 0.62379 -0.48900
O 	O 	0.49212 0.77327 0.58894 -0.46600
O 	O 	0.47275 0.86739 0.84467 -0.41200
O 	O 	0.52203 0.98617 0.81509 -0.43000
C 	C 	0.51018 0.72978 0.62554 0.40300
C 	C 	0.50185 0.90940 0.81198 0.37300
C 	C 	0.51681 0.77701 0.67346 -0.12600
C 	C 	0.48053 0.85020 0.67817 0.01000
H 	H 	0.45670 0.87090 0.65110 0.04400
C 	C 	0.47791 0.89550 0.72287 -0.01900
H 	H 	0.45320 0.94590 0.72490 0.05500
C 	C 	0.51147 0.86580 0.76332 -0.08300
C 	C 	0.55315 0.79150 0.75979 0.03900
C 	C 	0.59203 0.76230 0.80009 -0.06400
H 	H 	0.58980 0.79120 0.83000 0.07600
C 	C 	0.63290 0.69250 0.79587 -0.03400
H 	H 	0.65800 0.67380 0.82280 0.05500
C 	C 	0.63680 0.64910 0.75108 -0.00400
H 	H 	0.66520 0.60190 0.74840 0.04100
C 	C 	0.60012 0.67450 0.71136 -0.09800
H 	H 	0.60370 0.64430 0.68200 0.08400
C 	C 	0.55666 0.74600 0.71378 0.06500
O 	O 	0.54774 0.38152 0.50090 -0.71700
H 	H 	0.59570 0.38900 0.49240 0.16300
O 	O 	0.46724 0.46796 0.56985 -0.72100
H 	H 	0.42280 0.44060 0.56650 0.19100
O 	O 	0.16440 0.99210 0.60600 -0.08900
Co	Co	0.98235 0.77138 0.47748 1.18100
Co	Co	0.96176 0.87248 0.57953 1.18400
Co	Co	0.03899 0.05077 0.62362 1.16300
O 	O 	0.04799 0.78916 0.57924 -0.44400
O 	O 	0.06980 0.73745 0.50429 -0.46500
O 	O 	0.37847 0.61930 0.61665 -0.49100
O 	O 	0.33940 0.50450 0.63190 -0.20700
C 	C 	0.08264 0.74707 0.54950 0.37400
C 	C 	0.33110 0.57600 0.61179 0.40400
C 	C 	0.14508 0.70250 0.56760 -0.09400
C 	C 	0.20173 0.74730 0.57968 -0.02100
H 	H 	0.20130 0.80660 0.57870 0.04600
C 	C 	0.26121 0.70320 0.59372 -0.00200
H 	H 	0.30010 0.73430 0.60110 0.04100
C 	C 	0.26328 0.61640 0.59679 -0.12500
C 	C 	0.20532 0.56800 0.58607 0.06400
C 	C 	0.20120 0.47570 0.58792 -0.10400
H 	H 	0.23890 0.44440 0.59770 0.09100
C 	C 	0.14290 0.43370 0.57560 0.00400
H 	H 	0.14180 0.37440 0.57720 0.03300
C 	C 	0.08660 0.47660 0.56116 -0.04500
H 	H 	0.04740 0.44670 0.55290 0.04400
C 	C 	0.08728 0.56270 0.55873 -0.05800
H 	H 	0.04810 0.59110 0.54900 0.04900
C 	C 	0.14597 0.61135 0.57048 0.02900
O 	O 	0.08994 0.94859 0.47366 -0.47200
O 	O 	0.11781 0.04019 0.41402 -0.46100
O 	O 	0.41519 0.80223 0.48913 -0.45500
O 	O 	0.39320 0.72819 0.42036 -0.41600
C 	C 	0.12965 0.97807 0.44185 0.40600
C 	C 	0.38132 0.78609 0.45084 0.36400
C 	C 	0.19756 0.93335 0.43879 -0.13600
C 	C 	0.19724 0.84760 0.44744 0.01800
H 	H 	0.15620 0.81970 0.45270 0.04000
C 	C 	0.25792 0.80069 0.44858 -0.03400
H 	H 	0.25620 0.74190 0.45310 0.04700
C 	C 	0.31890 0.83934 0.44329 -0.07000
C 	C 	0.32224 0.92936 0.43443 -0.00600
C 	C 	0.38496 0.97160 0.42845 0.02000
H 	H 	0.42510 0.94060 0.43060 0.03800
C 	C 	0.38740 0.05740 0.41960 -0.13100
H 	H 	0.42890 0.08470 0.41570 0.08400
C 	C 	0.32710 0.10370 0.41640 0.07700
H 	H 	0.32890 0.16200 0.40990 0.01100
C 	C 	0.26573 0.06570 0.42238 -0.17900
H 	H 	0.22660 0.09860 0.42070 0.10900
C 	C 	0.26014 0.97630 0.43124 0.12200
O 	O 	0.97834 0.15143 0.62379 -0.48400
O 	O 	0.00788 0.27327 0.58894 -0.49800
O 	O 	0.02725 0.36739 0.84467 -0.44500
O 	O 	0.97797 0.48617 0.81509 -0.43700
C 	C 	0.98982 0.22978 0.62554 0.43200
C 	C 	0.99815 0.40940 0.81198 0.40300
C 	C 	0.98319 0.27701 0.67346 -0.09800
C 	C 	0.01947 0.35020 0.67817 -0.02700
H 	H 	0.04330 0.37090 0.65110 0.04900
C 	C 	0.02209 0.39550 0.72287 -0.04400
H 	H 	0.04680 0.44590 0.72490 0.05200
C 	C 	0.98853 0.36580 0.76332 -0.06200
C 	C 	0.94685 0.29150 0.75979 0.04100
C 	C 	0.90797 0.26230 0.80009 -0.06400
H 	H 	0.91020 0.29120 0.83000 0.07700
C 	C 	0.86710 0.19250 0.79587 -0.03300
H 	H 	0.84200 0.17380 0.82280 0.05400
C 	C 	0.86320 0.14910 0.75108 -0.00600
H 	H 	0.83480 0.10190 0.74840 0.04000
C 	C 	0.89988 0.17450 0.71136 -0.09400
H 	H 	0.89630 0.14430 0.68200 0.08200
C 	C 	0.94334 0.24600 0.71378 0.06100
O 	O 	0.95226 0.88152 0.50090 -0.70300
H 	H 	0.90430 0.88900 0.49240 0.16400
O 	O 	0.03276 0.96796 0.56985 -0.72000
H 	H 	0.07720 0.94060 0.56650 0.19000
O 	O 	0.33560 0.49210 0.60600 -0.16700
Co	Co	0.51765 0.22862 0.97748 1.18900
Co	Co	0.53824 0.12752 0.07953 1.17600
Co	Co	0.46101 0.94923 0.12362 1.18500
O 	O 	0.45201 0.21084 0.07924 -0.43600
O 	O 	0.43020 0.26255 0.00429 -0.47300
O 	O 	0.12153 0.38070 0.11665 -0.49700
O 	O 	0.16060 0.49550 0.13190 -0.20500
C 	C 	0.41736 0.25293 0.04950 0.37300
C 	C 	0.16890 0.42400 0.11179 0.40500
C 	C 	0.35492 0.29750 0.06760 -0.09700
C 	C 	0.29827 0.25270 0.07968 -0.02200
H 	H 	0.29870 0.19340 0.07870 0.04200
C 	C 	0.23879 0.29680 0.09372 -0.00500
H 	H 	0.19990 0.26570 0.10110 0.04000
C 	C 	0.23672 0.38360 0.09679 -0.12700
C 	C 	0.29468 0.43200 0.08607 0.06100
C 	C 	0.29880 0.52430 0.08792 -0.10600
H 	H 	0.26110 0.55560 0.09770 0.08900
C 	C 	0.35710 0.56630 0.07560 0.00100
H 	H 	0.35820 0.62560 0.07720 0.03200
C 	C 	0.41340 0.52340 0.06116 -0.04500
H 	H 	0.45260 0.55330 0.05290 0.04500
C 	C 	0.41272 0.43730 0.05873 -0.06100
H 	H 	0.45190 0.40890 0.04900 0.05300
C 	C 	0.35403 0.38865 0.07048 0.02900
O 	O 	0.41006 0.05141 0.97366 -0.44400
O 	O 	0.38219 0.95981 0.91402 -0.40600
O 	O 	0.08481 0.19777 0.98913 -0.45200
O 	O 	0.10680 0.27181 0.92036 -0.42500
C 	C 	0.37035 0.02193 0.94185 0.32800
C 	C 	0.11868 0.21391 0.95084 0.38300
C 	C 	0.30244 0.06665 0.93879 -0.05400
C 	C 	0.30276 0.15240 0.94744 -0.04900
H 	H 	0.34380 0.18030 0.95270 0.06900
C 	C 	0.24208 0.19931 0.94858 0.03100
H 	H 	0.24380 0.25810 0.95310 0.03000
C 	C 	0.18110 0.16066 0.94329 -0.12800
C 	C 	0.17776 0.07064 0.93443 0.10400
C 	C 	0.11504 0.02840 0.92845 -0.16500
H 	H 	0.07490 0.05940 0.93060 0.08900
C 	C 	0.11260 0.94260 0.91960 0.07900
H 	H 	0.07110 0.91530 0.91570 0.01400
C 	C 	0.17290 0.89630 0.91640 -0.09400
H 	H 	0.17110 0.83800 0.90990 0.07400
C 	C 	0.23427 0.93430 0.92238 0.00900
H 	H 	0.27340 0.90140 0.92070 0.05200
C 	C 	0.23986 0.02370 0.93124 -0.02100
O 	O 	0.52166 0.84857 0.12379 -0.48800
O 	O 	0.49212 0.72673 0.08894 -0.47200
O 	O 	0.47275 0.63261 0.34467 -0.41400
O 	O 	0.52203 0.51383 0.31509 -0.44000
C 	C 	0.51018 0.77022 0.12554 0.40300
C 	C 	0.50185 0.59060 0.31198 0.37400
C 	C 	0.51681 0.72299 0.17346 -0.12600
C 	C 	0.48053 0.64980 0.17817 0.00700
H 	H 	0.45670 0.62910 0.15110 0.04300
C 	C 	0.47791 0.60450 0.22287 -0.01700
H 	H 	0.45320 0.55410 0.22490 0.05000
C 	C 	0.51147 0.63420 0.26332 -0.08600
C 	C 	0.55315 0.70850 0.25979 0.04000
C 	C 	0.59203 0.73770 0.30009 -0.06500
H 	H 	0.58980 0.70880 0.33000 0.07600
C 	C 	0.63290 0.80750 0.29587 -0.03300
H 	H 	0.65800 0.82620 0.32280 0.05500
C 	C 	0.63680 0.85090 0.25108 -0.00400
H 	H 	0.66520 0.89810 0.24840 0.04400
C 	C 	0.60012 0.82550 0.21136 -0.09700
H 	H 	0.60370 0.85570 0.18200 0.08500
C 	C 	0.55666 0.75400 0.21378 0.06500
O 	O 	0.54774 0.11848 0.00090 -0.75000
H 	H 	0.59570 0.11100 0.99240 0.18700
O 	O 	0.46724 0.03204 0.06985 -0.72900
H 	H 	0.42280 0.05940 0.06650 0.18900
O 	O 	0.16440 0.50790 0.10600 -0.17200
Co	Co	0.01765 0.27138 0.02252 1.15000
Co	Co	0.03824 0.37248 0.92047 1.17000
Co	Co	0.96101 0.55077 0.87638 1.18700
O 	O 	0.95201 0.28916 0.92076 -0.42000
O 	O 	0.93020 0.23745 0.99571 -0.43000
O 	O 	0.62153 0.11930 0.88335 -0.48600
O 	O 	0.66060 0.00450 0.86810 -0.26200
C 	C 	0.91736 0.24707 0.95050 0.37200
C 	C 	0.66890 0.07600 0.88821 0.39200
C 	C 	0.85492 0.20250 0.93240 -0.10500
C 	C 	0.79827 0.24730 0.92032 -0.00500
H 	H 	0.79870 0.30660 0.92130 0.04300
C 	C 	0.73879 0.20320 0.90628 -0.01700
H 	H 	0.69990 0.23430 0.89890 0.04800
C 	C 	0.73672 0.11640 0.90321 -0.10400
C 	C 	0.79468 0.06800 0.91393 0.02000
C 	C 	0.79880 0.97570 0.91208 -0.03900
H 	H 	0.76110 0.94440 0.90230 0.07100
C 	C 	0.85710 0.93370 0.92440 -0.05400
H 	H 	0.85820 0.87440 0.92280 0.06000
C 	C 	0.91340 0.97660 0.93884 0.03400
H 	H 	0.95260 0.94670 0.94710 0.03700
C 	C 	0.91272 0.06270 0.94127 -0.11800
H 	H 	0.95190 0.09110 0.95100 0.08500
C 	C 	0.85403 0.11135 0.92952 0.06800
O 	O 	0.91006 0.44859 0.02634 -0.46500
O 	O 	0.88219 0.54019 0.08598 -0.43000
O 	O 	0.58481 0.30223 0.01087 -0.47300
O 	O 	0.60680 0.22819 0.07964 -0.42200
C 	C 	0.87035 0.47807 0.05815 0.36600
C 	C 	0.61868 0.28609 0.04916 0.37500
C 	C 	0.80244 0.43335 0.06121 -0.10000
C 	C 	0.80276 0.34760 0.05256 -0.01800
H 	H 	0.84380 0.31970 0.04730 0.04900
C 	C 	0.74208 0.30069 0.05142 -0.00500
H 	H 	0.74380 0.24190 0.04690 0.03300
C 	C 	0.68110 0.33934 0.05671 -0.10300
C 	C 	0.67776 0.42936 0.06557 0.04400
C 	C 	0.61504 0.47160 0.07155 -0.06800
H 	H 	0.57490 0.44060 0.06940 0.06200
C 	C 	0.61260 0.55740 0.08040 -0.03900
H 	H 	0.57110 0.58470 0.08430 0.05200
C 	C 	0.67290 0.60370 0.08360 -0.00600
H 	H 	0.67110 0.66200 0.09010 0.03900
C 	C 	0.73427 0.56570 0.07762 -0.09300
H 	H 	0.77340 0.59860 0.07930 0.08000
C 	C 	0.73986 0.47630 0.06876 0.05100
O 	O 	0.02166 0.65143 0.87621 -0.49400
O 	O 	0.99212 0.77327 0.91106 -0.43800
O 	O 	0.97275 0.86739 0.65533 -0.38700
O 	O 	0.02203 0.98617 0.68491 -0.43100
C 	C 	0.01018 0.72978 0.87446 0.38100
C 	C 	0.00185 0.90940 0.68802 0.35000
C 	C 	0.01681 0.77701 0.82654 -0.14700
C 	C 	0.98053 0.85020 0.82183 0.03500
H 	H 	0.95670 0.87090 0.84890 0.04000
C 	C 	0.97791 0.89550 0.77713 0.00200
H 	H 	0.95320 0.94590 0.77510 0.05200
C 	C 	0.01147 0.86580 0.73668 -0.10100
C 	C 	0.05315 0.79150 0.74021 0.03800
C 	C 	0.09203 0.76230 0.69991 -0.06500
H 	H 	0.08980 0.79120 0.67000 0.07500
C 	C 	0.13290 0.69250 0.70413 -0.03700
H 	H 	0.15800 0.67380 0.67720 0.05500
C 	C 	0.13680 0.64910 0.74892 -0.00300
H 	H 	0.16520 0.60190 0.75160 0.03900
C 	C 	0.10012 0.67450 0.78864 -0.10300
H 	H 	0.10370 0.64430 0.81800 0.08300
C 	C 	0.05666 0.74600 0.78622 0.06700
O 	O 	0.04774 0.38152 0.99910 -0.68600
H 	H 	0.09570 0.38900 0.00760 0.13400
O 	O 	0.96724 0.46796 0.93015 -0.70100
H 	H 	0.92280 0.44060 0.93350 0.19200
O 	O 	0.66440 0.99210 0.89400 -0.10500
Co	Co	0.48235 0.72862 0.52252 1.17400
Co	Co	0.46176 0.62752 0.42047 1.17700
Co	Co	0.53899 0.44923 0.37638 1.18000
O 	O 	0.54799 0.71084 0.42076 -0.43100
O 	O 	0.56980 0.76255 0.49571 -0.45300
O 	O 	0.87847 0.88070 0.38335 -0.48900
O 	O 	0.83940 0.99550 0.36810 -0.16900
C 	C 	0.58264 0.75293 0.45050 0.36400
C 	C 	0.83110 0.92400 0.38821 0.41600
C 	C 	0.64508 0.79750 0.43240 -0.07100
C 	C 	0.70173 0.75270 0.42032 -0.04100
H 	H 	0.70130 0.69340 0.42130 0.05200
C 	C 	0.76121 0.79680 0.40628 0.01800
H 	H 	0.80010 0.76570 0.39890 0.03600
C 	C 	0.76328 0.88360 0.40321 -0.14500
C 	C 	0.70532 0.93200 0.41393 0.11300
C 	C 	0.70120 0.02430 0.41208 -0.17100
H 	H 	0.73890 0.05560 0.40230 0.11300
C 	C 	0.64290 0.06630 0.42440 0.07500
H 	H 	0.64180 0.12560 0.42280 0.00900
C 	C 	0.58660 0.02340 0.43884 -0.12900
H 	H 	0.54740 0.05330 0.44710 0.07600
C 	C 	0.58728 0.93730 0.44127 0.01800
H 	H 	0.54810 0.90890 0.45100 0.03300
C 	C 	0.64597 0.88865 0.42952 -0.01000
O 	O 	0.58994 0.55141 0.52634 -0.46500
O 	O 	0.61781 0.45981 0.58598 -0.43300
O 	O 	0.91519 0.69777 0.51087 -0.45400
O 	O 	0.89320 0.77181 0.57964 -0.41500
C 	C 	0.62965 0.52193 0.55815 0.36800
C 	C 	0.88132 0.71391 0.54916 0.37400
C 	C 	0.69756 0.56665 0.56121 -0.10000
C 	C 	0.69724 0.65240 0.55256 -0.01300
H 	H 	0.65620 0.68030 0.54730 0.05100
C 	C 	0.75792 0.69931 0.55142 -0.00600
H 	H 	0.75620 0.75810 0.54690 0.03800
C 	C 	0.81890 0.66066 0.55671 -0.09600
C 	C 	0.82224 0.57064 0.56557 0.04400
C 	C 	0.88496 0.52840 0.57155 -0.06100
H 	H 	0.92510 0.55940 0.56940 0.06900
C 	C 	0.88740 0.44260 0.58040 -0.03900
H 	H 	0.92890 0.41530 0.58430 0.06400
C 	C 	0.82710 0.39630 0.58360 0.00200
H 	H 	0.82890 0.33800 0.59010 0.03900
C 	C 	0.76573 0.43430 0.57762 -0.09500
H 	H 	0.72660 0.40140 0.57930 0.08300
C 	C 	0.76014 0.52370 0.56876 0.05600
O 	O 	0.47834 0.34857 0.37621 -0.48900
O 	O 	0.50788 0.22673 0.41106 -0.46800
O 	O 	0.52725 0.13261 0.15533 -0.41500
O 	O 	0.47797 0.01383 0.18491 -0.45000
C 	C 	0.48982 0.27022 0.37446 0.40300
C 	C 	0.49815 0.09060 0.18802 0.37600
C 	C 	0.48319 0.22299 0.32654 -0.12600
C 	C 	0.51947 0.14980 0.32183 0.00500
H 	H 	0.54330 0.12910 0.34890 0.04300
C 	C 	0.52209 0.10450 0.27713 -0.01600
H 	H 	0.54680 0.05410 0.27510 0.04600
C 	C 	0.48853 0.13420 0.23668 -0.08900
C 	C 	0.44685 0.20850 0.24021 0.04000
C 	C 	0.40797 0.23770 0.19991 -0.06600
H 	H 	0.41020 0.20880 0.17000 0.07500
C 	C 	0.36710 0.30750 0.20413 -0.03500
H 	H 	0.34200 0.32620 0.17720 0.05400
C 	C 	0.36320 0.35090 0.24892 -0.00500
H 	H 	0.33480 0.39810 0.25160 0.04000
C 	C 	0.39988 0.32550 0.28864 -0.09800
H 	H 	0.39630 0.35570 0.31800 0.08300
C 	C 	0.44334 0.25400 0.28622 0.06300
O 	O 	0.45226 0.61848 0.49910 -0.71700
H 	H 	0.40430 0.61100 0.50760 0.16300
O 	O 	0.53276 0.53204 0.43015 -0.72100
H 	H 	0.57720 0.55940 0.43350 0.19100
O 	O 	0.83560 0.00790 0.39400 -0.20900
Co	Co	0.00000 -0.00000 0.50000 1.14500
Co	Co	0.50000 0.00000 -0.00000 1.14900
Co	Co	-0.00000 0.50000 -0.00000 1.14200
Co	Co	0.50000 0.50000 0.50000 1.16800
