data_crystal

_cell_length_a 9.24300
_cell_length_b 8.81700
_cell_length_c 9.68400
_cell_angle_alpha 90.00000
_cell_angle_beta  120.92000
_cell_angle_gamma 90.00000

_symmetry_space_group_name_	'P 1'
_symmetry_space_group_name_H-M	'P 1'

loop_
_symmetry_equiv_pos_as_xyz
  x,y,z

loop_
_atom_site_label
_atom_site_type_symbol
_atom_site_fract_x
_atom_site_fract_y
_atom_site_fract_z
_atom_site_charge
P 	P 	0.25760 0.89830 0.92650 0.41800
P 	P 	0.16740 0.66710 0.52720 0.34700
O 	O 	0.13600 0.60100 0.65500 -0.56000
O 	O 	0.34600 0.74300 0.59000 -0.44100
O 	O 	0.15200 0.55200 0.39500 -0.49200
O 	O 	0.35600 0.94200 0.10400 -0.42700
O 	O 	0.13700 0.76800 0.89500 -0.58800
O 	O 	0.36900 0.88500 0.86100 -0.49600
P 	P 	0.74240 0.89830 0.57350 0.54900
P 	P 	0.83260 0.66710 0.97280 0.47900
O 	O 	0.86400 0.60100 0.84500 -0.35300
O 	O 	0.65400 0.74300 0.91000 -0.44000
O 	O 	0.84800 0.55200 0.10500 -0.27100
O 	O 	0.64400 0.94200 0.39600 -0.42100
O 	O 	0.86300 0.76800 0.60500 -0.33000
O 	O 	0.63100 0.88500 0.63900 -0.47500
P 	P 	0.74240 0.10170 0.07350 0.57500
P 	P 	0.83260 0.33290 0.47280 0.52000
O 	O 	0.86400 0.39900 0.34500 -0.34700
O 	O 	0.65400 0.25700 0.41000 -0.43100
O 	O 	0.84800 0.44800 0.60500 -0.30400
O 	O 	0.64400 0.05800 0.89600 -0.45300
O 	O 	0.86300 0.23200 0.10500 -0.32900
O 	O 	0.63100 0.11500 0.13900 -0.47300
P 	P 	0.25760 0.10170 0.42650 0.46000
P 	P 	0.16740 0.33290 0.02720 0.37900
O 	O 	0.13600 0.39900 0.15500 -0.55400
O 	O 	0.34600 0.25700 0.09000 -0.43500
O 	O 	0.15200 0.44800 0.89500 -0.52200
O 	O 	0.35600 0.05800 0.60400 -0.46800
O 	O 	0.13700 0.23200 0.39500 -0.58400
O 	O 	0.36900 0.11500 0.36100 -0.49300
V 	V 	0.00000 0.60730 0.75000 1.68200
V 	V 	0.00000 0.39270 0.25000 1.68400
V 	V 	0.50000 0.88960 0.75000 1.79700
V 	V 	0.50000 0.11040 0.25000 1.79700
