data_crystal

_cell_length_a 22.37730
_cell_length_b 6.76330
_cell_length_c 4.35290
_cell_angle_alpha 90.00000
_cell_angle_beta  90.00000
_cell_angle_gamma 90.00000

_symmetry_space_group_name_	'P 1'
_symmetry_space_group_name_H-M	'P 1'

loop_
_symmetry_equiv_pos_as_xyz
  x,y,z

loop_
_atom_site_label
_atom_site_type_symbol
_atom_site_fract_x
_atom_site_fract_y
_atom_site_fract_z
_atom_site_charge
O 	O 	0.05960 0.93630 0.69050 -0.25900
O 	O 	0.44040 0.56370 0.69050 -0.32500
O 	O 	0.94040 0.43630 0.30950 -0.36900
O 	O 	0.55960 0.06370 0.30950 -0.47000
O 	O 	0.94040 0.06370 0.30950 -0.43000
O 	O 	0.55960 0.43630 0.30950 -0.40900
O 	O 	0.05960 0.56370 0.69050 -0.34400
O 	O 	0.44040 0.93630 0.69050 -0.24100
Cu	Cu	-0.00000 0.50000 -0.00000 0.78000
Cu	Cu	0.50000 0.00000 -0.00000 0.75600
Cu	Cu	-0.00000 0.00000 -0.00000 0.71700
Cu	Cu	0.50000 0.50000 -0.00000 0.81900
P 	P 	0.06660 0.75000 0.49990 0.41100
O 	O 	0.01860 0.75000 0.23680 -0.49300
C 	C 	0.13880 0.75000 0.30800 -0.15400
C 	C 	0.19320 0.75000 0.54400 0.10700
P 	P 	0.43340 0.75000 0.49990 0.41100
O 	O 	0.48140 0.75000 0.23680 -0.46400
C 	C 	0.36120 0.75000 0.30800 -0.15200
C 	C 	0.30680 0.75000 0.54400 0.10700
P 	P 	0.93340 0.25000 0.50010 0.39500
O 	O 	0.98140 0.25000 0.76320 -0.32400
C 	C 	0.86120 0.25000 0.69200 0.03000
C 	C 	0.80680 0.25000 0.45600 -0.06100
P 	P 	0.56660 0.25000 0.50010 0.39700
O 	O 	0.51860 0.25000 0.76320 -0.38300
C 	C 	0.63880 0.25000 0.69200 0.02400
C 	C 	0.69320 0.25000 0.45600 -0.06300
C 	C 	0.25000 0.75000 0.36600 -0.09500
C 	C 	0.75000 0.25000 0.63400 0.08200
