data_crystal

_cell_length_a 9.24700
_cell_length_b 8.82400
_cell_length_c 9.69300
_cell_angle_alpha 90.00000
_cell_angle_beta  120.72000
_cell_angle_gamma 90.00000

_symmetry_space_group_name_	'P 1'
_symmetry_space_group_name_H-M	'P 1'

loop_
_symmetry_equiv_pos_as_xyz
  x,y,z

loop_
_atom_site_label
_atom_site_type_symbol
_atom_site_fract_x
_atom_site_fract_y
_atom_site_fract_z
_atom_site_charge
P 	P 	0.26320 0.89750 0.93150 0.41100
P 	P 	0.16470 0.66760 0.52690 0.37400
O 	O 	0.14300 0.59600 0.65800 -0.41900
O 	O 	0.33200 0.73500 0.58600 -0.34800
O 	O 	0.14900 0.55600 0.39500 -0.37500
O 	O 	0.34700 0.94100 0.10700 -0.34000
O 	O 	0.13800 0.77000 0.90100 -0.44700
O 	O 	0.37400 0.88200 0.86800 -0.39800
P 	P 	0.73680 0.89750 0.56850 0.49600
P 	P 	0.83530 0.66760 0.97310 0.47000
O 	O 	0.85700 0.59600 0.84200 -0.28500
O 	O 	0.66800 0.73500 0.91400 -0.35000
O 	O 	0.85100 0.55600 0.10500 -0.22200
O 	O 	0.65300 0.94100 0.39300 -0.33100
O 	O 	0.86200 0.77000 0.59900 -0.27000
O 	O 	0.62600 0.88200 0.63200 -0.38400
P 	P 	0.73680 0.10250 0.06850 0.51300
P 	P 	0.83530 0.33240 0.47310 0.49800
O 	O 	0.85700 0.40400 0.34200 -0.28000
O 	O 	0.66800 0.26500 0.41400 -0.34500
O 	O 	0.85100 0.44400 0.60500 -0.24500
O 	O 	0.65300 0.05900 0.89300 -0.35300
O 	O 	0.86200 0.23000 0.09900 -0.26900
O 	O 	0.62600 0.11800 0.13200 -0.38300
P 	P 	0.26320 0.10250 0.43150 0.44000
P 	P 	0.16470 0.33240 0.02690 0.39600
O 	O 	0.14300 0.40400 0.15800 -0.41500
O 	O 	0.33200 0.26500 0.08600 -0.34400
O 	O 	0.14900 0.44400 0.89500 -0.39400
O 	O 	0.34700 0.05900 0.60700 -0.36800
O 	O 	0.13800 0.23000 0.40100 -0.44400
O 	O 	0.37400 0.11800 0.36800 -0.39600
Fe	Fe	0.00000 0.60960 0.75000 1.14900
Fe	Fe	0.00000 0.39040 0.25000 1.15000
Fe	Fe	0.50000 0.88770 0.75000 1.25400
Fe	Fe	0.50000 0.11230 0.25000 1.25400
