data_crystal

_cell_length_a 21.97180
_cell_length_b 17.31890
_cell_length_c 17.71040
_cell_angle_alpha 90.00000
_cell_angle_beta  90.00000
_cell_angle_gamma 90.00000

_symmetry_space_group_name_	'P 1'
_symmetry_space_group_name_H-M	'P 1'

loop_
_symmetry_equiv_pos_as_xyz
  x,y,z

loop_
_atom_site_label
_atom_site_type_symbol
_atom_site_fract_x
_atom_site_fract_y
_atom_site_fract_z
_atom_site_charge
Cd	Cd	0.37679 0.53771 0.06949 1.19600
Cd	Cd	0.24217 0.59084 0.96765 1.22800
O 	O 	0.26750 0.51660 0.08600 -0.47100
O 	O 	0.20990 0.46330 0.99810 -0.39600
O 	O 	0.19710 0.42400 0.34700 -0.38000
O 	O 	0.25070 0.31720 0.36490 -0.40300
O 	O 	0.13750 0.14610 0.13130 -0.45300
O 	O 	0.19360 0.17320 0.03120 -0.51000
O 	O 	0.10830 0.05900 0.48610 -0.46600
O 	O 	0.16760 0.97280 0.43570 -0.53300
N 	N 	0.39560 0.45840 0.16880 -0.41300
N 	N 	0.65730 0.14010 0.47180 -0.28900
C 	C 	0.22240 0.39540 0.11320 -0.14400
C 	C 	0.20790 0.32370 0.08530 0.07700
H 	H 	0.20660 0.31640 0.03330 0.00500
C 	C 	0.19520 0.26170 0.13260 -0.15300
C 	C 	0.19800 0.27160 0.21160 0.06600
C 	C 	0.21430 0.34560 0.24000 -0.12300
C 	C 	0.22600 0.40510 0.19050 0.06400
H 	H 	0.23660 0.45330 0.20960 0.02000
C 	C 	0.23480 0.46230 0.06130 0.34500
C 	C 	0.22150 0.36150 0.32350 0.31900
C 	C 	0.17490 0.18800 0.09540 0.38300
C 	C 	0.14360 0.03800 0.43510 0.37900
C 	C 	0.15760 0.09540 0.37270 -0.14800
C 	C 	0.20590 0.08600 0.32410 0.06000
H 	H 	0.22950 0.04160 0.32730 0.01200
C 	C 	0.21980 0.14160 0.27050 -0.12600
H 	H 	0.25280 0.13460 0.23820 0.07000
C 	C 	0.18440 0.20760 0.26520 0.06800
C 	C 	0.13490 0.21570 0.31340 -0.12600
H 	H 	0.11010 0.25900 0.30950 0.07600
C 	C 	0.12220 0.16050 0.36660 0.07000
H 	H 	0.08920 0.16710 0.39890 0.00200
C 	C 	0.37640 0.38380 0.16510 0.50200
H 	H 	0.36110 0.36510 0.11970 -0.14300
C 	C 	0.37900 0.33410 0.22790 -0.95800
H 	H 	0.36500 0.28350 0.22430 0.36700
C 	C 	0.40340 0.36250 0.29670 1.51900
C 	C 	0.42420 0.43600 0.29700 -1.09100
H 	H 	0.44210 0.45570 0.34060 0.40500
C 	C 	0.41920 0.48250 0.23360 0.58100
H 	H 	0.43320 0.53310 0.23670 -0.19000
C 	C 	0.40780 0.32340 0.37340 -1.71100
H 	H 	0.38900 0.35780 0.40980 0.37400
H 	H 	0.38260 0.27740 0.37120 1.22700
C 	C 	0.46870 0.29920 0.40580 4.70500
H 	H 	0.46340 0.28360 0.45790 -1.79300
H 	H 	0.49630 0.34290 0.40480 0.15300
C 	C 	0.49640 0.23300 0.36140 -2.00900
H 	H 	0.50570 0.25000 0.31060 1.68800
H 	H 	0.46730 0.19100 0.35810 0.76400
C 	C 	0.64040 0.12540 0.40060 0.15700
H 	H 	0.66570 0.09290 0.37300 -0.04300
C 	C 	0.59040 0.15280 0.36420 -0.24200
H 	H 	0.58130 0.13620 0.31560 0.04200
C 	C 	0.55420 0.20470 0.39960 0.75900
C 	C 	0.63500 0.20780 0.49340 -0.15200
H 	H 	0.65530 0.23770 0.52900 0.06300
C 	C 	0.58200 0.23270 0.46240 -0.45500
H 	H 	0.56250 0.27330 0.48680 0.22100
C 	C 	0.40110 0.29320 0.34940 -1.76500
H 	H 	0.38150 0.30680 0.39660 0.31100
H 	H 	0.37880 0.25110 0.32640 0.13600
C 	C 	0.46700 0.27020 0.36310 1.25400
H 	H 	0.48430 0.25080 0.31640 -1.24800
H 	H 	0.49010 0.31530 0.37820 -2.66600
C 	C 	0.47230 0.20860 0.42380 -1.53500
H 	H 	0.45720 0.22970 0.47090 0.86000
H 	H 	0.44630 0.16560 0.41020 0.29900
C 	C 	0.62610 0.09980 0.42030 0.10600
H 	H 	0.64240 0.05490 0.39960 -0.02300
C 	C 	0.57020 0.12550 0.39850 -0.44400
H 	H 	0.55390 0.10530 0.35430 0.18600
C 	C 	0.53630 0.17850 0.43660 0.31000
C 	C 	0.61890 0.17820 0.51710 0.38900
H 	H 	0.63360 0.18970 0.56510 -0.12400
C 	C 	0.56120 0.20220 0.50240 -0.14300
H 	H 	0.53990 0.23350 0.53590 0.05800
Cd	Cd	0.12321 0.96229 0.56949 1.19400
Cd	Cd	0.25783 0.90916 0.46765 1.22600
O 	O 	0.23250 0.98340 0.58600 -0.47000
O 	O 	0.29010 0.03670 0.49810 -0.39900
O 	O 	0.30290 0.07600 0.84700 -0.38000
O 	O 	0.24930 0.18280 0.86490 -0.39900
O 	O 	0.36250 0.35390 0.63130 -0.45300
O 	O 	0.30640 0.32680 0.53120 -0.51500
O 	O 	0.39170 0.44100 0.98610 -0.46400
O 	O 	0.33240 0.52720 0.93570 -0.53100
N 	N 	0.10440 0.04160 0.66880 -0.39600
N 	N 	0.84270 0.35990 0.97180 -0.28300
C 	C 	0.27760 0.10460 0.61320 -0.14500
C 	C 	0.29210 0.17630 0.58530 0.07800
H 	H 	0.29340 0.18360 0.53330 0.00200
C 	C 	0.30480 0.23830 0.63260 -0.15500
C 	C 	0.30200 0.22840 0.71160 0.06700
C 	C 	0.28570 0.15440 0.74000 -0.12300
C 	C 	0.27400 0.09490 0.69050 0.06400
H 	H 	0.26340 0.04670 0.70960 0.02000
C 	C 	0.26520 0.03770 0.56130 0.34600
C 	C 	0.27850 0.13850 0.82350 0.31800
C 	C 	0.32510 0.31200 0.59540 0.38400
C 	C 	0.35640 0.46200 0.93510 0.37900
C 	C 	0.34240 0.40460 0.87270 -0.14700
C 	C 	0.29410 0.41400 0.82410 0.06100
H 	H 	0.27050 0.45840 0.82730 0.01300
C 	C 	0.28020 0.35840 0.77050 -0.12500
H 	H 	0.24720 0.36540 0.73820 0.07100
C 	C 	0.31560 0.29240 0.76520 0.06800
C 	C 	0.36510 0.28430 0.81340 -0.12500
H 	H 	0.38990 0.24100 0.80950 0.07500
C 	C 	0.37780 0.33950 0.86660 0.07000
H 	H 	0.41080 0.33290 0.89890 0.00200
C 	C 	0.12360 0.11620 0.66510 0.46500
H 	H 	0.13890 0.13490 0.61970 -0.13000
C 	C 	0.12100 0.16590 0.72790 -0.88000
H 	H 	0.13500 0.21650 0.72430 0.33800
C 	C 	0.09660 0.13750 0.79670 1.38100
C 	C 	0.07580 0.06400 0.79700 -0.99800
H 	H 	0.05790 0.04430 0.84060 0.37200
C 	C 	0.08080 0.01750 0.73360 0.53100
H 	H 	0.06680 0.96690 0.73670 -0.17100
C 	C 	0.09220 0.17660 0.87340 -1.55900
H 	H 	0.11100 0.14220 0.90980 0.34100
H 	H 	0.11740 0.22260 0.87120 1.11100
C 	C 	0.03130 0.20080 0.90580 4.21900
H 	H 	0.03660 0.21640 0.95790 -1.60800
H 	H 	0.00370 0.15710 0.90480 0.13500
C 	C 	0.00360 0.26700 0.86140 -1.79300
H 	H 	0.99430 0.25000 0.81060 1.50800
H 	H 	0.03270 0.30900 0.85810 0.68700
C 	C 	0.85960 0.37460 0.90060 0.15100
H 	H 	0.83430 0.40710 0.87300 -0.04100
C 	C 	0.90960 0.34720 0.86420 -0.21400
H 	H 	0.91870 0.36380 0.81560 0.03500
C 	C 	0.94580 0.29530 0.89960 0.67600
C 	C 	0.86500 0.29220 0.99340 -0.12400
H 	H 	0.84470 0.26230 0.02900 0.05600
C 	C 	0.91800 0.26730 0.96240 -0.42600
H 	H 	0.93750 0.22670 0.98680 0.20500
C 	C 	0.09890 0.20680 0.84940 -1.59200
H 	H 	0.11850 0.19320 0.89660 0.28800
H 	H 	0.12120 0.24890 0.82640 0.12300
C 	C 	0.03300 0.22980 0.86310 1.12100
H 	H 	0.01570 0.24920 0.81640 -1.11800
H 	H 	0.00990 0.18470 0.87820 -2.38500
C 	C 	0.02770 0.29140 0.92380 -1.40800
H 	H 	0.04280 0.27030 0.97090 0.78300
H 	H 	0.05370 0.33440 0.91020 0.27900
C 	C 	0.87390 0.40020 0.92030 0.09100
H 	H 	0.85760 0.44510 0.89960 -0.01800
C 	C 	0.92980 0.37450 0.89850 -0.41400
H 	H 	0.94610 0.39470 0.85430 0.17300
C 	C 	0.96370 0.32150 0.93660 0.29200
C 	C 	0.88110 0.32180 0.01710 0.34100
H 	H 	0.86640 0.31030 0.06510 -0.10800
C 	C 	0.93880 0.29780 0.00240 -0.12400
H 	H 	0.96010 0.26650 0.03590 0.05300
Cd	Cd	0.62321 0.53771 0.43051 1.19500
Cd	Cd	0.75783 0.59084 0.53235 1.22600
O 	O 	0.73250 0.51660 0.41400 -0.47100
O 	O 	0.79010 0.46330 0.50190 -0.40000
O 	O 	0.80290 0.42400 0.15300 -0.37800
O 	O 	0.74930 0.31720 0.13510 -0.40300
O 	O 	0.86250 0.14610 0.36870 -0.45400
O 	O 	0.80640 0.17320 0.46880 -0.51700
O 	O 	0.89170 0.05900 0.01390 -0.46200
O 	O 	0.83240 0.97280 0.06430 -0.53000
N 	N 	0.60440 0.45840 0.33120 -0.41300
N 	N 	0.34270 0.14010 0.02820 -0.28900
C 	C 	0.77760 0.39540 0.38680 -0.14600
C 	C 	0.79210 0.32370 0.41470 0.07900
H 	H 	0.79340 0.31640 0.46670 0.00000
C 	C 	0.80480 0.26170 0.36740 -0.15600
C 	C 	0.80200 0.27160 0.28840 0.06800
C 	C 	0.78570 0.34560 0.26000 -0.12300
C 	C 	0.77400 0.40510 0.30950 0.06500
H 	H 	0.76340 0.45330 0.29040 0.02000
C 	C 	0.76520 0.46230 0.43870 0.34700
C 	C 	0.77850 0.36150 0.17650 0.31900
C 	C 	0.82510 0.18800 0.40460 0.38400
C 	C 	0.85640 0.03800 0.06490 0.38100
C 	C 	0.84240 0.09540 0.12730 -0.14700
C 	C 	0.79410 0.08600 0.17590 0.06000
H 	H 	0.77050 0.04160 0.17270 0.01300
C 	C 	0.78020 0.14160 0.22950 -0.12500
H 	H 	0.74720 0.13460 0.26180 0.07000
C 	C 	0.81560 0.20760 0.23480 0.06700
C 	C 	0.86510 0.21570 0.18660 -0.12500
H 	H 	0.88990 0.25900 0.19050 0.07500
C 	C 	0.87780 0.16050 0.13340 0.06900
H 	H 	0.91080 0.16710 0.10110 0.00300
C 	C 	0.62360 0.38380 0.33490 0.50300
H 	H 	0.63890 0.36510 0.38030 -0.14300
C 	C 	0.62100 0.33410 0.27210 -0.95900
H 	H 	0.63500 0.28350 0.27570 0.36700
C 	C 	0.59660 0.36250 0.20330 1.52100
C 	C 	0.57580 0.43600 0.20300 -1.09200
H 	H 	0.55790 0.45570 0.15940 0.40600
C 	C 	0.58080 0.48250 0.26640 0.58100
H 	H 	0.56680 0.53310 0.26330 -0.19000
C 	C 	0.59220 0.32340 0.12660 -1.71400
H 	H 	0.61100 0.35780 0.09020 0.37500
H 	H 	0.61740 0.27740 0.12880 1.22900
C 	C 	0.53130 0.29920 0.09420 4.71300
H 	H 	0.53660 0.28360 0.04210 -1.79600
H 	H 	0.50370 0.34290 0.09520 0.15300
C 	C 	0.50360 0.23300 0.13860 -2.01900
H 	H 	0.49430 0.25000 0.18940 1.68900
H 	H 	0.53270 0.19100 0.14190 0.76600
C 	C 	0.35960 0.12540 0.09940 0.15200
H 	H 	0.33430 0.09290 0.12700 -0.04100
C 	C 	0.40960 0.15280 0.13580 -0.25100
H 	H 	0.41870 0.13620 0.18440 0.04600
C 	C 	0.44580 0.20470 0.10040 0.76700
C 	C 	0.36500 0.20780 0.00660 -0.15700
H 	H 	0.34470 0.23770 0.97100 0.06500
C 	C 	0.41800 0.23270 0.03760 -0.45000
H 	H 	0.43750 0.27330 0.01320 0.22000
C 	C 	0.59890 0.29320 0.15060 -1.76700
H 	H 	0.61850 0.30680 0.10340 0.31200
H 	H 	0.62120 0.25110 0.17360 0.13600
C 	C 	0.53300 0.27020 0.13690 1.25400
H 	H 	0.51570 0.25080 0.18360 -1.24500
H 	H 	0.50990 0.31530 0.12180 -2.66900
C 	C 	0.52770 0.20860 0.07620 -1.53000
H 	H 	0.54280 0.22970 0.02910 0.85900
H 	H 	0.55370 0.16560 0.08980 0.29700
C 	C 	0.37390 0.09980 0.07970 0.11300
H 	H 	0.35760 0.05490 0.10040 -0.02500
C 	C 	0.42980 0.12550 0.10150 -0.43700
H 	H 	0.44610 0.10530 0.14570 0.18400
C 	C 	0.46370 0.17850 0.06340 0.30300
C 	C 	0.38110 0.17820 0.98290 0.39400
H 	H 	0.36640 0.18970 0.93490 -0.12600
C 	C 	0.43880 0.20220 0.99760 -0.14800
H 	H 	0.46010 0.23350 0.96410 0.06000
Cd	Cd	0.87679 0.96229 0.93051 1.19500
Cd	Cd	0.74217 0.90916 0.03235 1.22600
O 	O 	0.76750 0.98340 0.91400 -0.46800
O 	O 	0.70990 0.03670 0.00190 -0.39500
O 	O 	0.69710 0.07600 0.65300 -0.38000
O 	O 	0.75070 0.18280 0.63510 -0.40600
O 	O 	0.63750 0.35390 0.86870 -0.45300
O 	O 	0.69360 0.32680 0.96880 -0.51600
O 	O 	0.60830 0.44100 0.51390 -0.46400
O 	O 	0.66760 0.52720 0.56430 -0.53100
N 	N 	0.89560 0.04160 0.83120 -0.42100
N 	N 	0.15730 0.35990 0.52820 -0.29300
C 	C 	0.72240 0.10460 0.88680 -0.14400
C 	C 	0.70790 0.17630 0.91470 0.07700
H 	H 	0.70660 0.18360 0.96670 0.00200
C 	C 	0.69520 0.23830 0.86740 -0.15500
C 	C 	0.69800 0.22840 0.78840 0.06700
C 	C 	0.71430 0.15440 0.76000 -0.12400
C 	C 	0.72600 0.09490 0.80950 0.06400
H 	H 	0.73660 0.04670 0.79040 0.02000
C 	C 	0.73480 0.03770 0.93870 0.34100
C 	C 	0.72150 0.13850 0.67650 0.32000
C 	C 	0.67490 0.31200 0.90460 0.38300
C 	C 	0.64360 0.46200 0.56490 0.37900
C 	C 	0.65760 0.40460 0.62730 -0.14700
C 	C 	0.70590 0.41400 0.67590 0.05900
H 	H 	0.72950 0.45840 0.67270 0.01200
C 	C 	0.71980 0.35840 0.72950 -0.12600
H 	H 	0.75280 0.36540 0.76180 0.06900
C 	C 	0.68440 0.29240 0.73480 0.06700
C 	C 	0.63490 0.28430 0.68660 -0.12500
H 	H 	0.61010 0.24100 0.69050 0.07500
C 	C 	0.62220 0.33950 0.63340 0.06900
H 	H 	0.58920 0.33290 0.60110 0.00200
C 	C 	0.87640 0.11620 0.83490 0.51900
H 	H 	0.86110 0.13490 0.88030 -0.15000
C 	C 	0.87900 0.16590 0.77210 -0.99800
H 	H 	0.86500 0.21650 0.77570 0.38300
C 	C 	0.90340 0.13750 0.70330 1.59300
C 	C 	0.92420 0.06400 0.70300 -1.14000
H 	H 	0.94210 0.04430 0.65940 0.42300
C 	C 	0.91920 0.01750 0.76640 0.60400
H 	H 	0.93320 0.96690 0.76330 -0.19800
C 	C 	0.90780 0.17660 0.62660 -1.79400
H 	H 	0.88900 0.14220 0.59020 0.39200
H 	H 	0.88260 0.22260 0.62880 1.29000
C 	C 	0.96870 0.20080 0.59420 4.96600
H 	H 	0.96340 0.21640 0.54210 -1.89300
H 	H 	0.99630 0.15710 0.59520 0.16500
C 	C 	0.99640 0.26700 0.63860 -2.11900
H 	H 	0.00570 0.25000 0.68940 1.78900
H 	H 	0.96730 0.30900 0.64190 0.80600
C 	C 	0.14040 0.37460 0.59940 0.17300
H 	H 	0.16570 0.40710 0.62700 -0.04800
C 	C 	0.09040 0.34720 0.63580 -0.24200
H 	H 	0.08130 0.36380 0.68440 0.04100
C 	C 	0.05420 0.29530 0.60040 0.79100
C 	C 	0.13500 0.29220 0.50660 -0.15700
H 	H 	0.15530 0.26230 0.47100 0.06500
C 	C 	0.08200 0.26730 0.53760 -0.47800
H 	H 	0.06250 0.22670 0.51320 0.23000
C 	C 	0.90110 0.20680 0.65060 -1.85800
H 	H 	0.88150 0.19320 0.60340 0.32400
H 	H 	0.87880 0.24890 0.67360 0.14400
C 	C 	0.96700 0.22980 0.63690 1.33000
H 	H 	0.98430 0.24920 0.68360 -1.32300
H 	H 	0.99010 0.18470 0.62180 -2.82000
C 	C 	0.97230 0.29140 0.57620 -1.61600
H 	H 	0.95720 0.27030 0.52910 0.90500
H 	H 	0.94630 0.33440 0.58980 0.31300
C 	C 	0.12610 0.40020 0.57970 0.10300
H 	H 	0.14240 0.44510 0.60040 -0.02200
C 	C 	0.07020 0.37450 0.60150 -0.47400
H 	H 	0.05390 0.39470 0.64570 0.19600
C 	C 	0.03630 0.32150 0.56340 0.33400
C 	C 	0.11890 0.32180 0.48290 0.40500
H 	H 	0.13360 0.31030 0.43490 -0.13000
C 	C 	0.06120 0.29780 0.49760 -0.14800
H 	H 	0.03990 0.26650 0.46410 0.05900
Cd	Cd	0.62321 0.46229 0.93051 1.19500
Cd	Cd	0.75783 0.40916 0.03235 1.22700
O 	O 	0.73250 0.48340 0.91400 -0.47100
O 	O 	0.79010 0.53670 0.00190 -0.39600
O 	O 	0.80290 0.57600 0.65300 -0.38000
O 	O 	0.74930 0.68280 0.63510 -0.40300
O 	O 	0.86250 0.85390 0.86870 -0.45300
O 	O 	0.80640 0.82680 0.96880 -0.51000
O 	O 	0.89170 0.94100 0.51390 -0.46600
O 	O 	0.83240 0.02720 0.56430 -0.53300
N 	N 	0.60440 0.54160 0.83120 -0.41300
N 	N 	0.34270 0.85990 0.52820 -0.28900
C 	C 	0.77760 0.60460 0.88680 -0.14400
C 	C 	0.79210 0.67630 0.91470 0.07700
H 	H 	0.79340 0.68360 0.96670 0.00500
C 	C 	0.80480 0.73830 0.86740 -0.15300
C 	C 	0.80200 0.72840 0.78840 0.06600
C 	C 	0.78570 0.65440 0.76000 -0.12300
C 	C 	0.77400 0.59490 0.80950 0.06400
H 	H 	0.76340 0.54670 0.79040 0.02000
C 	C 	0.76520 0.53770 0.93870 0.34500
C 	C 	0.77850 0.63850 0.67650 0.31900
C 	C 	0.82510 0.81200 0.90460 0.38300
C 	C 	0.85640 0.96200 0.56490 0.37900
C 	C 	0.84240 0.90460 0.62730 -0.14800
C 	C 	0.79410 0.91400 0.67590 0.06000
H 	H 	0.77050 0.95840 0.67270 0.01200
C 	C 	0.78020 0.85840 0.72950 -0.12600
H 	H 	0.74720 0.86540 0.76180 0.07000
C 	C 	0.81560 0.79240 0.73480 0.06800
C 	C 	0.86510 0.78430 0.68660 -0.12600
H 	H 	0.88990 0.74100 0.69050 0.07600
C 	C 	0.87780 0.83950 0.63340 0.07000
H 	H 	0.91080 0.83290 0.60110 0.00200
C 	C 	0.62360 0.61620 0.83490 0.50200
H 	H 	0.63890 0.63490 0.88030 -0.14300
C 	C 	0.62100 0.66590 0.77210 -0.95800
H 	H 	0.63500 0.71650 0.77570 0.36700
C 	C 	0.59660 0.63750 0.70330 1.51900
C 	C 	0.57580 0.56400 0.70300 -1.09100
H 	H 	0.55790 0.54430 0.65940 0.40500
C 	C 	0.58080 0.51750 0.76640 0.58100
H 	H 	0.56680 0.46690 0.76330 -0.19000
C 	C 	0.59220 0.67660 0.62660 -1.71100
H 	H 	0.61100 0.64220 0.59020 0.37400
H 	H 	0.61740 0.72260 0.62880 1.22700
C 	C 	0.53130 0.70080 0.59420 4.70500
H 	H 	0.53660 0.71640 0.54210 -1.79300
H 	H 	0.50370 0.65710 0.59520 0.15300
C 	C 	0.50360 0.76700 0.63860 -2.00900
H 	H 	0.49430 0.75000 0.68940 1.68800
H 	H 	0.53270 0.80900 0.64190 0.76400
C 	C 	0.35960 0.87460 0.59940 0.15700
H 	H 	0.33430 0.90710 0.62700 -0.04300
C 	C 	0.40960 0.84720 0.63580 -0.24200
H 	H 	0.41870 0.86380 0.68440 0.04200
C 	C 	0.44580 0.79530 0.60040 0.75900
C 	C 	0.36500 0.79220 0.50660 -0.15200
H 	H 	0.34470 0.76230 0.47100 0.06300
C 	C 	0.41800 0.76730 0.53760 -0.45500
H 	H 	0.43750 0.72670 0.51320 0.22100
C 	C 	0.59890 0.70680 0.65060 -1.76500
H 	H 	0.61850 0.69320 0.60340 0.31100
H 	H 	0.62120 0.74890 0.67360 0.13600
C 	C 	0.53300 0.72980 0.63690 1.25400
H 	H 	0.51570 0.74920 0.68360 -1.24800
H 	H 	0.50990 0.68470 0.62180 -2.66600
C 	C 	0.52770 0.79140 0.57620 -1.53500
H 	H 	0.54280 0.77030 0.52910 0.86000
H 	H 	0.55370 0.83440 0.58980 0.29900
C 	C 	0.37390 0.90020 0.57970 0.10600
H 	H 	0.35760 0.94510 0.60040 -0.02300
C 	C 	0.42980 0.87450 0.60150 -0.44400
H 	H 	0.44610 0.89470 0.64570 0.18600
C 	C 	0.46370 0.82150 0.56340 0.31000
C 	C 	0.38110 0.82180 0.48290 0.38900
H 	H 	0.36640 0.81030 0.43490 -0.12400
C 	C 	0.43880 0.79780 0.49760 -0.14300
H 	H 	0.46010 0.76650 0.46410 0.05800
Cd	Cd	0.87679 0.03771 0.43051 1.19400
Cd	Cd	0.74217 0.09084 0.53235 1.22600
O 	O 	0.76750 0.01660 0.41400 -0.47000
O 	O 	0.70990 0.96330 0.50190 -0.39900
O 	O 	0.69710 0.92400 0.15300 -0.38000
O 	O 	0.75070 0.81720 0.13510 -0.39900
O 	O 	0.63750 0.64610 0.36870 -0.45300
O 	O 	0.69360 0.67320 0.46880 -0.51500
O 	O 	0.60830 0.55900 0.01390 -0.46400
O 	O 	0.66760 0.47280 0.06430 -0.53100
N 	N 	0.89560 0.95840 0.33120 -0.39600
N 	N 	0.15730 0.64010 0.02820 -0.28300
C 	C 	0.72240 0.89540 0.38680 -0.14500
C 	C 	0.70790 0.82370 0.41470 0.07800
H 	H 	0.70660 0.81640 0.46670 0.00200
C 	C 	0.69520 0.76170 0.36740 -0.15500
C 	C 	0.69800 0.77160 0.28840 0.06700
C 	C 	0.71430 0.84560 0.26000 -0.12300
C 	C 	0.72600 0.90510 0.30950 0.06400
H 	H 	0.73660 0.95330 0.29040 0.02000
C 	C 	0.73480 0.96230 0.43870 0.34600
C 	C 	0.72150 0.86150 0.17650 0.31800
C 	C 	0.67490 0.68800 0.40460 0.38400
C 	C 	0.64360 0.53800 0.06490 0.37900
C 	C 	0.65760 0.59540 0.12730 -0.14700
C 	C 	0.70590 0.58600 0.17590 0.06100
H 	H 	0.72950 0.54160 0.17270 0.01300
C 	C 	0.71980 0.64160 0.22950 -0.12500
H 	H 	0.75280 0.63460 0.26180 0.07100
C 	C 	0.68440 0.70760 0.23480 0.06800
C 	C 	0.63490 0.71570 0.18660 -0.12500
H 	H 	0.61010 0.75900 0.19050 0.07500
C 	C 	0.62220 0.66050 0.13340 0.07000
H 	H 	0.58920 0.66710 0.10110 0.00200
C 	C 	0.87640 0.88380 0.33490 0.46500
H 	H 	0.86110 0.86510 0.38030 -0.13000
C 	C 	0.87900 0.83410 0.27210 -0.88000
H 	H 	0.86500 0.78350 0.27570 0.33800
C 	C 	0.90340 0.86250 0.20330 1.38100
C 	C 	0.92420 0.93600 0.20300 -0.99800
H 	H 	0.94210 0.95570 0.15940 0.37200
C 	C 	0.91920 0.98250 0.26640 0.53100
H 	H 	0.93320 0.03310 0.26330 -0.17100
C 	C 	0.90780 0.82340 0.12660 -1.55900
H 	H 	0.88900 0.85780 0.09020 0.34100
H 	H 	0.88260 0.77740 0.12880 1.11100
C 	C 	0.96870 0.79920 0.09420 4.21900
H 	H 	0.96340 0.78360 0.04210 -1.60800
H 	H 	0.99630 0.84290 0.09520 0.13500
C 	C 	0.99640 0.73300 0.13860 -1.79300
H 	H 	0.00570 0.75000 0.18940 1.50800
H 	H 	0.96730 0.69100 0.14190 0.68700
C 	C 	0.14040 0.62540 0.09940 0.15100
H 	H 	0.16570 0.59290 0.12700 -0.04100
C 	C 	0.09040 0.65280 0.13580 -0.21400
H 	H 	0.08130 0.63620 0.18440 0.03500
C 	C 	0.05420 0.70470 0.10040 0.67600
C 	C 	0.13500 0.70780 0.00660 -0.12400
H 	H 	0.15530 0.73770 0.97100 0.05600
C 	C 	0.08200 0.73270 0.03760 -0.42600
H 	H 	0.06250 0.77330 0.01320 0.20500
C 	C 	0.90110 0.79320 0.15060 -1.59200
H 	H 	0.88150 0.80680 0.10340 0.28800
H 	H 	0.87880 0.75110 0.17360 0.12300
C 	C 	0.96700 0.77020 0.13690 1.12100
H 	H 	0.98430 0.75080 0.18360 -1.11800
H 	H 	0.99010 0.81530 0.12180 -2.38500
C 	C 	0.97230 0.70860 0.07620 -1.40800
H 	H 	0.95720 0.72970 0.02910 0.78300
H 	H 	0.94630 0.66560 0.08980 0.27900
C 	C 	0.12610 0.59980 0.07970 0.09100
H 	H 	0.14240 0.55490 0.10040 -0.01800
C 	C 	0.07020 0.62550 0.10150 -0.41400
H 	H 	0.05390 0.60530 0.14570 0.17300
C 	C 	0.03630 0.67850 0.06340 0.29200
C 	C 	0.11890 0.67820 0.98290 0.34100
H 	H 	0.13360 0.68970 0.93490 -0.10800
C 	C 	0.06120 0.70220 0.99760 -0.12400
H 	H 	0.03990 0.73350 0.96410 0.05300
Cd	Cd	0.37679 0.46229 0.56949 1.19500
Cd	Cd	0.24217 0.40916 0.46765 1.22600
O 	O 	0.26750 0.48340 0.58600 -0.47100
O 	O 	0.20990 0.53670 0.49810 -0.40000
O 	O 	0.19710 0.57600 0.84700 -0.37800
O 	O 	0.25070 0.68280 0.86490 -0.40300
O 	O 	0.13750 0.85390 0.63130 -0.45400
O 	O 	0.19360 0.82680 0.53120 -0.51700
O 	O 	0.10830 0.94100 0.98610 -0.46200
O 	O 	0.16760 0.02720 0.93570 -0.53000
N 	N 	0.39560 0.54160 0.66880 -0.41300
N 	N 	0.65730 0.85990 0.97180 -0.28900
C 	C 	0.22240 0.60460 0.61320 -0.14600
C 	C 	0.20790 0.67630 0.58530 0.07900
H 	H 	0.20660 0.68360 0.53330 0.00000
C 	C 	0.19520 0.73830 0.63260 -0.15600
C 	C 	0.19800 0.72840 0.71160 0.06800
C 	C 	0.21430 0.65440 0.74000 -0.12300
C 	C 	0.22600 0.59490 0.69050 0.06500
H 	H 	0.23660 0.54670 0.70960 0.02000
C 	C 	0.23480 0.53770 0.56130 0.34700
C 	C 	0.22150 0.63850 0.82350 0.31900
C 	C 	0.17490 0.81200 0.59540 0.38400
C 	C 	0.14360 0.96200 0.93510 0.38100
C 	C 	0.15760 0.90460 0.87270 -0.14700
C 	C 	0.20590 0.91400 0.82410 0.06000
H 	H 	0.22950 0.95840 0.82730 0.01300
C 	C 	0.21980 0.85840 0.77050 -0.12500
H 	H 	0.25280 0.86540 0.73820 0.07000
C 	C 	0.18440 0.79240 0.76520 0.06700
C 	C 	0.13490 0.78430 0.81340 -0.12500
H 	H 	0.11010 0.74100 0.80950 0.07500
C 	C 	0.12220 0.83950 0.86660 0.06900
H 	H 	0.08920 0.83290 0.89890 0.00300
C 	C 	0.37640 0.61620 0.66510 0.50300
H 	H 	0.36110 0.63490 0.61970 -0.14300
C 	C 	0.37900 0.66590 0.72790 -0.95900
H 	H 	0.36500 0.71650 0.72430 0.36700
C 	C 	0.40340 0.63750 0.79670 1.52100
C 	C 	0.42420 0.56400 0.79700 -1.09200
H 	H 	0.44210 0.54430 0.84060 0.40600
C 	C 	0.41920 0.51750 0.73360 0.58100
H 	H 	0.43320 0.46690 0.73670 -0.19000
C 	C 	0.40780 0.67660 0.87340 -1.71400
H 	H 	0.38900 0.64220 0.90980 0.37500
H 	H 	0.38260 0.72260 0.87120 1.22900
C 	C 	0.46870 0.70080 0.90580 4.71300
H 	H 	0.46340 0.71640 0.95790 -1.79600
H 	H 	0.49630 0.65710 0.90480 0.15300
C 	C 	0.49640 0.76700 0.86140 -2.01900
H 	H 	0.50570 0.75000 0.81060 1.68900
H 	H 	0.46730 0.80900 0.85810 0.76600
C 	C 	0.64040 0.87460 0.90060 0.15200
H 	H 	0.66570 0.90710 0.87300 -0.04100
C 	C 	0.59040 0.84720 0.86420 -0.25100
H 	H 	0.58130 0.86380 0.81560 0.04600
C 	C 	0.55420 0.79530 0.89960 0.76700
C 	C 	0.63500 0.79220 0.99340 -0.15700
H 	H 	0.65530 0.76230 0.02900 0.06500
C 	C 	0.58200 0.76730 0.96240 -0.45000
H 	H 	0.56250 0.72670 0.98680 0.22000
C 	C 	0.40110 0.70680 0.84940 -1.76700
H 	H 	0.38150 0.69320 0.89660 0.31200
H 	H 	0.37880 0.74890 0.82640 0.13600
C 	C 	0.46700 0.72980 0.86310 1.25400
H 	H 	0.48430 0.74920 0.81640 -1.24500
H 	H 	0.49010 0.68470 0.87820 -2.66900
C 	C 	0.47230 0.79140 0.92380 -1.53000
H 	H 	0.45720 0.77030 0.97090 0.85900
H 	H 	0.44630 0.83440 0.91020 0.29700
C 	C 	0.62610 0.90020 0.92030 0.11300
H 	H 	0.64240 0.94510 0.89960 -0.02500
C 	C 	0.57020 0.87450 0.89850 -0.43700
H 	H 	0.55390 0.89470 0.85430 0.18400
C 	C 	0.53630 0.82150 0.93660 0.30300
C 	C 	0.61890 0.82180 0.01710 0.39400
H 	H 	0.63360 0.81030 0.06510 -0.12600
C 	C 	0.56120 0.79780 0.00240 -0.14800
H 	H 	0.53990 0.76650 0.03590 0.06000
Cd	Cd	0.12321 0.03771 0.06949 1.19500
Cd	Cd	0.25783 0.09084 0.96765 1.22600
O 	O 	0.23250 0.01660 0.08600 -0.46800
O 	O 	0.29010 0.96330 0.99810 -0.39500
O 	O 	0.30290 0.92400 0.34700 -0.38000
O 	O 	0.24930 0.81720 0.36490 -0.40600
O 	O 	0.36250 0.64610 0.13130 -0.45300
O 	O 	0.30640 0.67320 0.03120 -0.51600
O 	O 	0.39170 0.55900 0.48610 -0.46400
O 	O 	0.33240 0.47280 0.43570 -0.53100
N 	N 	0.10440 0.95840 0.16880 -0.42100
N 	N 	0.84270 0.64010 0.47180 -0.29300
C 	C 	0.27760 0.89540 0.11320 -0.14400
C 	C 	0.29210 0.82370 0.08530 0.07700
H 	H 	0.29340 0.81640 0.03330 0.00200
C 	C 	0.30480 0.76170 0.13260 -0.15500
C 	C 	0.30200 0.77160 0.21160 0.06700
C 	C 	0.28570 0.84560 0.24000 -0.12400
C 	C 	0.27400 0.90510 0.19050 0.06400
H 	H 	0.26340 0.95330 0.20960 0.02000
C 	C 	0.26520 0.96230 0.06130 0.34100
C 	C 	0.27850 0.86150 0.32350 0.32000
C 	C 	0.32510 0.68800 0.09540 0.38300
C 	C 	0.35640 0.53800 0.43510 0.37900
C 	C 	0.34240 0.59540 0.37270 -0.14700
C 	C 	0.29410 0.58600 0.32410 0.05900
H 	H 	0.27050 0.54160 0.32730 0.01200
C 	C 	0.28020 0.64160 0.27050 -0.12600
H 	H 	0.24720 0.63460 0.23820 0.06900
C 	C 	0.31560 0.70760 0.26520 0.06700
C 	C 	0.36510 0.71570 0.31340 -0.12500
H 	H 	0.38990 0.75900 0.30950 0.07500
C 	C 	0.37780 0.66050 0.36660 0.06900
H 	H 	0.41080 0.66710 0.39890 0.00200
C 	C 	0.12360 0.88380 0.16510 0.51900
H 	H 	0.13890 0.86510 0.11970 -0.15000
C 	C 	0.12100 0.83410 0.22790 -0.99800
H 	H 	0.13500 0.78350 0.22430 0.38300
C 	C 	0.09660 0.86250 0.29670 1.59300
C 	C 	0.07580 0.93600 0.29700 -1.14000
H 	H 	0.05790 0.95570 0.34060 0.42300
C 	C 	0.08080 0.98250 0.23360 0.60400
H 	H 	0.06680 0.03310 0.23670 -0.19800
C 	C 	0.09220 0.82340 0.37340 -1.79400
H 	H 	0.11100 0.85780 0.40980 0.39200
H 	H 	0.11740 0.77740 0.37120 1.29000
C 	C 	0.03130 0.79920 0.40580 4.96600
H 	H 	0.03660 0.78360 0.45790 -1.89300
H 	H 	0.00370 0.84290 0.40480 0.16500
C 	C 	0.00360 0.73300 0.36140 -2.11900
H 	H 	0.99430 0.75000 0.31060 1.78900
H 	H 	0.03270 0.69100 0.35810 0.80600
C 	C 	0.85960 0.62540 0.40060 0.17300
H 	H 	0.83430 0.59290 0.37300 -0.04800
C 	C 	0.90960 0.65280 0.36420 -0.24200
H 	H 	0.91870 0.63620 0.31560 0.04100
C 	C 	0.94580 0.70470 0.39960 0.79100
C 	C 	0.86500 0.70780 0.49340 -0.15700
H 	H 	0.84470 0.73770 0.52900 0.06500
C 	C 	0.91800 0.73270 0.46240 -0.47800
H 	H 	0.93750 0.77330 0.48680 0.23000
C 	C 	0.09890 0.79320 0.34940 -1.85800
H 	H 	0.11850 0.80680 0.39660 0.32400
H 	H 	0.12120 0.75110 0.32640 0.14400
C 	C 	0.03300 0.77020 0.36310 1.33000
H 	H 	0.01570 0.75080 0.31640 -1.32300
H 	H 	0.00990 0.81530 0.37820 -2.82000
C 	C 	0.02770 0.70860 0.42380 -1.61600
H 	H 	0.04280 0.72970 0.47090 0.90500
H 	H 	0.05370 0.66560 0.41020 0.31300
C 	C 	0.87390 0.59980 0.42030 0.10300
H 	H 	0.85760 0.55490 0.39960 -0.02200
C 	C 	0.92980 0.62550 0.39850 -0.47400
H 	H 	0.94610 0.60530 0.35430 0.19600
C 	C 	0.96370 0.67850 0.43660 0.33400
C 	C 	0.88110 0.67820 0.51710 0.40500
H 	H 	0.86640 0.68970 0.56510 -0.13000
C 	C 	0.93880 0.70220 0.50240 -0.14800
H 	H 	0.96010 0.73350 0.53590 0.05900
