data_crystal

_cell_length_a 10.89500
_cell_length_b 17.52000
_cell_length_c 20.54500
_cell_angle_alpha 90.00000
_cell_angle_beta  99.16000
_cell_angle_gamma 90.00000

_symmetry_space_group_name_	'P 1'
_symmetry_space_group_name_H-M	'P 1'

loop_
_symmetry_equiv_pos_as_xyz
  x,y,z

loop_
_atom_site_label
_atom_site_type_symbol
_atom_site_fract_x
_atom_site_fract_y
_atom_site_fract_z
_atom_site_charge
O 	O 	0.35580 0.94386 0.50388 -0.50200
N 	N 	0.49030 0.98080 0.86938 -0.25200
C 	C 	0.37970 0.00740 0.84060 0.07900
H 	H 	0.36000 0.05790 0.84830 -0.01000
C 	C 	0.51430 0.90820 0.85620 0.09100
H 	H 	0.59130 0.88850 0.87450 -0.02400
Co	Co	0.61894 0.96007 0.44289 1.11800
N 	N 	0.75760 0.91070 0.51651 -0.24800
C 	C 	0.31780 0.88840 0.78840 0.10100
C 	C 	0.39460 0.88540 0.47970 0.43200
C 	C 	0.74920 0.84120 0.54290 0.08000
H 	H 	0.67860 0.81230 0.52830 -0.00800
C 	C 	0.94680 0.85200 0.61270 0.09400
C 	C 	0.22650 0.83870 0.74703 -0.05300
C 	C 	0.13120 0.86900 0.70116 -0.02300
H 	H 	0.12380 0.92170 0.69610 0.02400
C 	C 	0.83860 0.81030 0.59020 -0.15400
H 	H 	0.82740 0.76200 0.60720 0.07100
C 	C 	0.04690 0.82130 0.66287 -0.05100
C 	C 	0.95570 0.92370 0.58500 -0.16000
H 	H 	0.02550 0.95380 0.59820 0.06800
C 	C 	0.43370 0.86090 0.81760 -0.16700
H 	H 	0.45600 0.81070 0.81090 0.08200
C 	C 	0.86120 0.95000 0.53790 0.08100
H 	H 	0.86990 0.99800 0.51990 -0.02300
N 	N 	0.15280 0.71220 0.71570 -0.12900
C 	C 	0.23200 0.75930 0.75220 0.02800
H 	H 	0.29450 0.73790 0.78290 0.01200
C 	C 	0.06310 0.74310 0.67270 0.03500
H 	H 	0.00720 0.71050 0.64750 0.01300
O 	O 	0.49630 0.88056 0.45847 -0.49200
C 	C 	0.29390 0.96430 0.80060 -0.16100
H 	H 	0.21910 0.98620 0.78140 0.07900
C 	C 	0.31460 0.81450 0.47420 -0.17500
H 	H 	0.29870 0.80020 0.42750 0.09000
C 	C 	0.38620 0.74840 0.51150 -0.06200
H 	H 	0.40640 0.76150 0.55790 0.04500
H 	H 	0.46350 0.74050 0.49470 0.05000
C 	C 	0.18980 0.82560 0.49580 -0.04600
H 	H 	0.14420 0.86530 0.46930 0.03700
H 	H 	0.20190 0.84190 0.54150 0.04300
O 	O 	0.85580 0.44386 0.50388 -0.50400
N 	N 	0.99030 0.48080 0.86938 -0.25700
C 	C 	0.87970 0.50740 0.84060 0.09200
H 	H 	0.86000 0.55790 0.84830 -0.01500
C 	C 	0.01430 0.40820 0.85620 0.08900
H 	H 	0.09130 0.38850 0.87450 -0.02600
Co	Co	0.11894 0.46007 0.44289 1.11700
N 	N 	0.25760 0.41070 0.51651 -0.24900
C 	C 	0.81780 0.38840 0.78840 0.10500
C 	C 	0.89460 0.38540 0.47970 0.43100
C 	C 	0.24920 0.34120 0.54290 0.07900
H 	H 	0.17860 0.31230 0.52830 -0.00900
C 	C 	0.44680 0.35200 0.61270 0.09400
C 	C 	0.72650 0.33870 0.74703 -0.05500
C 	C 	0.63120 0.36900 0.70116 -0.02100
H 	H 	0.62380 0.42170 0.69610 0.02300
C 	C 	0.33860 0.31030 0.59020 -0.15400
H 	H 	0.32740 0.26200 0.60720 0.07100
C 	C 	0.54690 0.32130 0.66287 -0.05200
C 	C 	0.45570 0.42370 0.58500 -0.16000
H 	H 	0.52550 0.45380 0.59820 0.06700
C 	C 	0.93370 0.36090 0.81760 -0.16900
H 	H 	0.95600 0.31070 0.81090 0.08300
C 	C 	0.36120 0.45000 0.53790 0.08100
H 	H 	0.36990 0.49800 0.51990 -0.02300
N 	N 	0.65280 0.21220 0.71570 -0.13000
C 	C 	0.73200 0.25930 0.75220 0.03000
H 	H 	0.79450 0.23790 0.78290 0.01100
C 	C 	0.56310 0.24310 0.67270 0.03500
H 	H 	0.50720 0.21050 0.64750 0.01300
O 	O 	0.99630 0.38056 0.45847 -0.49200
C 	C 	0.79390 0.46430 0.80060 -0.17200
H 	H 	0.71910 0.48620 0.78140 0.08200
C 	C 	0.81460 0.31450 0.47420 -0.17500
H 	H 	0.79870 0.30020 0.42750 0.09100
C 	C 	0.88620 0.24840 0.51150 -0.06200
H 	H 	0.90640 0.26150 0.55790 0.04500
H 	H 	0.96350 0.24050 0.49470 0.05000
C 	C 	0.68980 0.32560 0.49580 -0.04600
H 	H 	0.64420 0.36530 0.46930 0.03700
H 	H 	0.70190 0.34190 0.54150 0.04300
O 	O 	0.64420 0.94386 0.99612 -0.49700
N 	N 	0.50970 0.98080 0.63062 -0.25600
C 	C 	0.62030 0.00740 0.65940 0.08700
H 	H 	0.64000 0.05790 0.65170 -0.01300
C 	C 	0.48570 0.90820 0.64380 0.09100
H 	H 	0.40870 0.88850 0.62550 -0.02600
Co	Co	0.38106 0.96007 0.05711 1.11400
N 	N 	0.24240 0.91070 0.98349 -0.24700
C 	C 	0.68220 0.88840 0.71160 0.10300
C 	C 	0.60540 0.88540 0.02030 0.42500
C 	C 	0.25080 0.84120 0.95710 0.07900
H 	H 	0.32140 0.81230 0.97170 -0.00800
C 	C 	0.05320 0.85200 0.88730 0.09400
C 	C 	0.77350 0.83870 0.75297 -0.05400
C 	C 	0.86880 0.86900 0.79884 -0.02200
H 	H 	0.87620 0.92170 0.80390 0.02400
C 	C 	0.16140 0.81030 0.90980 -0.15300
H 	H 	0.17260 0.76200 0.89280 0.07100
C 	C 	0.95310 0.82130 0.83713 -0.05100
C 	C 	0.04430 0.92370 0.91500 -0.16100
H 	H 	0.97450 0.95380 0.90180 0.06900
C 	C 	0.56630 0.86090 0.68240 -0.17000
H 	H 	0.54400 0.81070 0.68910 0.08300
C 	C 	0.13880 0.95000 0.96210 0.08200
H 	H 	0.13010 0.99800 0.98010 -0.02200
N 	N 	0.84720 0.71220 0.78430 -0.12900
C 	C 	0.76800 0.75930 0.74780 0.02900
H 	H 	0.70550 0.73790 0.71710 0.01100
C 	C 	0.93690 0.74310 0.82730 0.03500
H 	H 	0.99280 0.71050 0.85250 0.01300
O 	O 	0.50370 0.88056 0.04153 -0.49200
C 	C 	0.70610 0.96430 0.69940 -0.16800
H 	H 	0.78090 0.98620 0.71860 0.08100
C 	C 	0.68540 0.81450 0.02580 -0.18100
H 	H 	0.70130 0.80020 0.07250 0.09200
C 	C 	0.61380 0.74840 0.98850 -0.04800
H 	H 	0.59360 0.76150 0.94210 0.04100
H 	H 	0.53650 0.74050 0.00530 0.04300
C 	C 	0.81020 0.82560 0.00420 -0.04600
H 	H 	0.85580 0.86530 0.03070 0.03500
H 	H 	0.79810 0.84190 0.95850 0.04500
O 	O 	0.14420 0.44386 0.99612 -0.50500
N 	N 	0.00970 0.48080 0.63062 -0.25900
C 	C 	0.12030 0.50740 0.65940 0.09300
H 	H 	0.14000 0.55790 0.65170 -0.01500
C 	C 	0.98570 0.40820 0.64380 0.09300
H 	H 	0.90870 0.38850 0.62550 -0.02700
Co	Co	0.88106 0.46007 0.05711 1.11700
N 	N 	0.74240 0.41070 0.98349 -0.24900
C 	C 	0.18220 0.38840 0.71160 0.10600
C 	C 	0.10540 0.38540 0.02030 0.43000
C 	C 	0.75080 0.34120 0.95710 0.07900
H 	H 	0.82140 0.31230 0.97170 -0.01000
C 	C 	0.55320 0.35200 0.88730 0.09500
C 	C 	0.27350 0.33870 0.75297 -0.05600
C 	C 	0.36880 0.36900 0.79884 -0.02100
H 	H 	0.37620 0.42170 0.80390 0.02300
C 	C 	0.66140 0.31030 0.90980 -0.15400
H 	H 	0.67260 0.26200 0.89280 0.07100
C 	C 	0.45310 0.32130 0.83713 -0.05200
C 	C 	0.54430 0.42370 0.91500 -0.16000
H 	H 	0.47450 0.45380 0.90180 0.06700
C 	C 	0.06630 0.36090 0.68240 -0.17300
H 	H 	0.04400 0.31070 0.68910 0.08400
C 	C 	0.63880 0.45000 0.96210 0.08100
H 	H 	0.63010 0.49800 0.98010 -0.02300
N 	N 	0.34720 0.21220 0.78430 -0.13000
C 	C 	0.26800 0.25930 0.74780 0.03000
H 	H 	0.20550 0.23790 0.71710 0.01100
C 	C 	0.43690 0.24310 0.82730 0.03500
H 	H 	0.49280 0.21050 0.85250 0.01200
O 	O 	0.00370 0.38056 0.04153 -0.49100
C 	C 	0.20610 0.46430 0.69940 -0.17400
H 	H 	0.28090 0.48620 0.71860 0.08200
C 	C 	0.18540 0.31450 0.02580 -0.16600
H 	H 	0.20130 0.30020 0.07250 0.08800
C 	C 	0.11380 0.24840 0.98850 -0.07700
H 	H 	0.09360 0.26150 0.94210 0.04900
H 	H 	0.03650 0.24050 0.00530 0.05700
C 	C 	0.31020 0.32560 0.00420 -0.05100
H 	H 	0.35580 0.36530 0.03070 0.03900
H 	H 	0.29810 0.34190 0.95850 0.04300
O 	O 	0.64420 0.05614 0.49612 -0.50300
N 	N 	0.50970 0.01920 0.13062 -0.25300
C 	C 	0.62030 0.99260 0.15940 0.07800
H 	H 	0.64000 0.94210 0.15170 -0.01100
C 	C 	0.48570 0.09180 0.14380 0.09000
H 	H 	0.40870 0.11150 0.12550 -0.02500
Co	Co	0.38106 0.03993 0.55711 1.11700
N 	N 	0.24240 0.08930 0.48349 -0.24900
C 	C 	0.68220 0.11160 0.21160 0.10000
C 	C 	0.60540 0.11460 0.52030 0.43100
C 	C 	0.25080 0.15880 0.45710 0.07900
H 	H 	0.32140 0.18770 0.47170 -0.00900
C 	C 	0.05320 0.14800 0.38730 0.09400
C 	C 	0.77350 0.16130 0.25297 -0.05300
C 	C 	0.86880 0.13100 0.29884 -0.02300
H 	H 	0.87620 0.07830 0.30390 0.02400
C 	C 	0.16140 0.18970 0.40980 -0.15400
H 	H 	0.17260 0.23800 0.39280 0.07100
C 	C 	0.95310 0.17870 0.33713 -0.05100
C 	C 	0.04430 0.07630 0.41500 -0.16000
H 	H 	0.97450 0.04620 0.40180 0.06800
C 	C 	0.56630 0.13910 0.18240 -0.16700
H 	H 	0.54400 0.18930 0.18910 0.08200
C 	C 	0.13880 0.05000 0.46210 0.08100
H 	H 	0.13010 0.00200 0.48010 -0.02300
N 	N 	0.84720 0.28780 0.28430 -0.12900
C 	C 	0.76800 0.24070 0.24780 0.02800
H 	H 	0.70550 0.26210 0.21710 0.01200
C 	C 	0.93690 0.25690 0.32730 0.03500
H 	H 	0.99280 0.28950 0.35250 0.01300
O 	O 	0.50370 0.11944 0.54153 -0.49200
C 	C 	0.70610 0.03570 0.19940 -0.16100
H 	H 	0.78090 0.01380 0.21860 0.07900
C 	C 	0.68540 0.18550 0.52580 -0.17500
H 	H 	0.70130 0.19980 0.57250 0.09000
C 	C 	0.61380 0.25160 0.48850 -0.06200
H 	H 	0.59360 0.23850 0.44210 0.04500
H 	H 	0.53650 0.25950 0.50530 0.05000
C 	C 	0.81020 0.17440 0.50420 -0.04600
H 	H 	0.85580 0.13470 0.53070 0.03700
H 	H 	0.79810 0.15810 0.45850 0.04300
O 	O 	0.14420 0.55614 0.49612 -0.50400
N 	N 	0.00970 0.51920 0.13062 -0.25700
C 	C 	0.12030 0.49260 0.15940 0.09200
H 	H 	0.14000 0.44210 0.15170 -0.01500
C 	C 	0.98570 0.59180 0.14380 0.08900
H 	H 	0.90870 0.61150 0.12550 -0.02600
Co	Co	0.88106 0.53993 0.55711 1.11700
N 	N 	0.74240 0.58930 0.48349 -0.24900
C 	C 	0.18220 0.61160 0.21160 0.10500
C 	C 	0.10540 0.61460 0.52030 0.43100
C 	C 	0.75080 0.65880 0.45710 0.07900
H 	H 	0.82140 0.68770 0.47170 -0.00900
C 	C 	0.55320 0.64800 0.38730 0.09400
C 	C 	0.27350 0.66130 0.25297 -0.05500
C 	C 	0.36880 0.63100 0.29884 -0.02100
H 	H 	0.37620 0.57830 0.30390 0.02300
C 	C 	0.66140 0.68970 0.40980 -0.15400
H 	H 	0.67260 0.73800 0.39280 0.07100
C 	C 	0.45310 0.67870 0.33713 -0.05200
C 	C 	0.54430 0.57630 0.41500 -0.16000
H 	H 	0.47450 0.54620 0.40180 0.06700
C 	C 	0.06630 0.63910 0.18240 -0.16900
H 	H 	0.04400 0.68930 0.18910 0.08300
C 	C 	0.63880 0.55000 0.46210 0.08100
H 	H 	0.63010 0.50200 0.48010 -0.02300
N 	N 	0.34720 0.78780 0.28430 -0.13000
C 	C 	0.26800 0.74070 0.24780 0.03000
H 	H 	0.20550 0.76210 0.21710 0.01100
C 	C 	0.43690 0.75690 0.32730 0.03500
H 	H 	0.49280 0.78950 0.35250 0.01300
O 	O 	0.00370 0.61944 0.54153 -0.49200
C 	C 	0.20610 0.53570 0.19940 -0.17200
H 	H 	0.28090 0.51380 0.21860 0.08200
C 	C 	0.18540 0.68550 0.52580 -0.17500
H 	H 	0.20130 0.69980 0.57250 0.09100
C 	C 	0.11380 0.75160 0.48850 -0.06200
H 	H 	0.09360 0.73850 0.44210 0.04500
H 	H 	0.03650 0.75950 0.50530 0.05000
C 	C 	0.31020 0.67440 0.50420 -0.04600
H 	H 	0.35580 0.63470 0.53070 0.03700
H 	H 	0.29810 0.65810 0.45850 0.04300
O 	O 	0.35580 0.05614 0.00388 -0.49700
N 	N 	0.49030 0.01920 0.36938 -0.25600
C 	C 	0.37970 0.99260 0.34060 0.08700
H 	H 	0.36000 0.94210 0.34830 -0.01300
C 	C 	0.51430 0.09180 0.35620 0.09100
H 	H 	0.59130 0.11150 0.37450 -0.02600
Co	Co	0.61894 0.03993 0.94289 1.11400
N 	N 	0.75760 0.08930 0.01651 -0.24700
C 	C 	0.31780 0.11160 0.28840 0.10300
C 	C 	0.39460 0.11460 0.97970 0.42500
C 	C 	0.74920 0.15880 0.04290 0.07900
H 	H 	0.67860 0.18770 0.02830 -0.00800
C 	C 	0.94680 0.14800 0.11270 0.09400
C 	C 	0.22650 0.16130 0.24703 -0.05400
C 	C 	0.13120 0.13100 0.20116 -0.02200
H 	H 	0.12380 0.07830 0.19610 0.02400
C 	C 	0.83860 0.18970 0.09020 -0.15300
H 	H 	0.82740 0.23800 0.10720 0.07100
C 	C 	0.04690 0.17870 0.16287 -0.05100
C 	C 	0.95570 0.07630 0.08500 -0.16100
H 	H 	0.02550 0.04620 0.09820 0.06900
C 	C 	0.43370 0.13910 0.31760 -0.17000
H 	H 	0.45600 0.18930 0.31090 0.08300
C 	C 	0.86120 0.05000 0.03790 0.08200
H 	H 	0.86990 0.00200 0.01990 -0.02200
N 	N 	0.15280 0.28780 0.21570 -0.12900
C 	C 	0.23200 0.24070 0.25220 0.02900
H 	H 	0.29450 0.26210 0.28290 0.01100
C 	C 	0.06310 0.25690 0.17270 0.03500
H 	H 	0.00720 0.28950 0.14750 0.01300
O 	O 	0.49630 0.11944 0.95847 -0.49200
C 	C 	0.29390 0.03570 0.30060 -0.16800
H 	H 	0.21910 0.01380 0.28140 0.08100
C 	C 	0.31460 0.18550 0.97420 -0.18100
H 	H 	0.29870 0.19980 0.92750 0.09200
C 	C 	0.38620 0.25160 0.01150 -0.04800
H 	H 	0.40640 0.23850 0.05790 0.04100
H 	H 	0.46350 0.25950 0.99470 0.04300
C 	C 	0.18980 0.17440 0.99580 -0.04600
H 	H 	0.14420 0.13470 0.96930 0.03500
H 	H 	0.20190 0.15810 0.04150 0.04500
O 	O 	0.85580 0.55614 0.00388 -0.50500
N 	N 	0.99030 0.51920 0.36938 -0.25900
C 	C 	0.87970 0.49260 0.34060 0.09300
H 	H 	0.86000 0.44210 0.34830 -0.01500
C 	C 	0.01430 0.59180 0.35620 0.09300
H 	H 	0.09130 0.61150 0.37450 -0.02700
Co	Co	0.11894 0.53993 0.94289 1.11700
N 	N 	0.25760 0.58930 0.01651 -0.24900
C 	C 	0.81780 0.61160 0.28840 0.10600
C 	C 	0.89460 0.61460 0.97970 0.43000
C 	C 	0.24920 0.65880 0.04290 0.07900
H 	H 	0.17860 0.68770 0.02830 -0.01000
C 	C 	0.44680 0.64800 0.11270 0.09500
C 	C 	0.72650 0.66130 0.24703 -0.05600
C 	C 	0.63120 0.63100 0.20116 -0.02100
H 	H 	0.62380 0.57830 0.19610 0.02300
C 	C 	0.33860 0.68970 0.09020 -0.15400
H 	H 	0.32740 0.73800 0.10720 0.07100
C 	C 	0.54690 0.67870 0.16287 -0.05200
C 	C 	0.45570 0.57630 0.08500 -0.16000
H 	H 	0.52550 0.54620 0.09820 0.06700
C 	C 	0.93370 0.63910 0.31760 -0.17300
H 	H 	0.95600 0.68930 0.31090 0.08400
C 	C 	0.36120 0.55000 0.03790 0.08100
H 	H 	0.36990 0.50200 0.01990 -0.02300
N 	N 	0.65280 0.78780 0.21570 -0.13000
C 	C 	0.73200 0.74070 0.25220 0.03000
H 	H 	0.79450 0.76210 0.28290 0.01100
C 	C 	0.56310 0.75690 0.17270 0.03500
H 	H 	0.50720 0.78950 0.14750 0.01200
O 	O 	0.99630 0.61944 0.95847 -0.49100
C 	C 	0.79390 0.53570 0.30060 -0.17400
H 	H 	0.71910 0.51380 0.28140 0.08200
C 	C 	0.81460 0.68550 0.97420 -0.16600
H 	H 	0.79870 0.69980 0.92750 0.08800
C 	C 	0.88620 0.75160 0.01150 -0.07700
H 	H 	0.90640 0.73850 0.05790 0.04900
H 	H 	0.96350 0.75950 0.99470 0.05700
C 	C 	0.68980 0.67440 0.99580 -0.05100
H 	H 	0.64420 0.63470 0.96930 0.03900
H 	H 	0.70190 0.65810 0.04150 0.04300
