data_crystal

_cell_length_a 15.37450
_cell_length_b 23.40230
_cell_length_c 25.34430
_cell_angle_alpha 90.00000
_cell_angle_beta  90.00000
_cell_angle_gamma 90.00000

_symmetry_space_group_name_	'P 1'
_symmetry_space_group_name_H-M	'P 1'

loop_
_symmetry_equiv_pos_as_xyz
  x,y,z

loop_
_atom_site_label
_atom_site_type_symbol
_atom_site_fract_x
_atom_site_fract_y
_atom_site_fract_z
_atom_site_charge
Br	Br	0.39305 0.62701 0.76485 -0.32100
C 	C 	0.34590 0.55330 0.75210 0.03500
C 	C 	0.25800 0.55260 0.74290 0.06900
C 	C 	0.40070 0.50540 0.75900 -0.04900
C 	C 	0.19960 0.60430 0.74060 -0.18100
N 	N 	0.20840 0.50410 0.73860 -0.24300
C 	C 	0.49080 0.50420 0.78410 0.32400
N 	N 	0.37350 0.45230 0.74980 -0.23200
C 	C 	0.11650 0.57860 0.76850 0.23800
H 	H 	0.22440 0.63630 0.76200 0.10500
C 	C 	0.18010 0.62420 0.68450 0.09000
C 	C 	0.12190 0.51710 0.74920 -0.05100
Co	Co	0.25556 0.42933 0.73348 1.17500
C 	C 	0.52580 0.44750 0.76180 -0.18700
C 	C 	0.55620 0.55270 0.77760 -0.66100
C 	C 	0.47520 0.49580 0.84450 -0.62000
C 	C 	0.44160 0.41230 0.75410 0.03900
C 	C 	0.13180 0.57660 0.82970 -0.41700
C 	C 	0.03380 0.61320 0.75510 -0.54300
H 	H 	0.14490 0.59450 0.66670 0.00300
H 	H 	0.14430 0.65930 0.68650 0.00100
C 	C 	0.25920 0.63660 0.65080 -0.35200
C 	C 	0.05520 0.47840 0.74610 0.02900
N 	N 	0.14280 0.39880 0.71830 -0.25500
N 	N 	0.22770 0.42390 0.80810 -0.20700
N 	N 	0.28760 0.35150 0.73160 -0.23400
N 	N 	0.28150 0.44230 0.65810 -0.26000
H 	H 	0.56550 0.42850 0.78760 0.07300
C 	C 	0.56920 0.45250 0.70730 0.03700
H 	H 	0.61370 0.53980 0.78930 0.20200
H 	H 	0.53790 0.58550 0.79890 0.23500
H 	H 	0.55900 0.56390 0.74040 0.22200
H 	H 	0.53110 0.49020 0.86230 0.19000
H 	H 	0.43830 0.46220 0.85020 0.20700
H 	H 	0.44630 0.52970 0.85900 0.20300
C 	C 	0.44100 0.35520 0.74850 0.04200
H 	H 	0.08670 0.55210 0.84610 0.13400
H 	H 	0.18910 0.55900 0.83690 0.15400
C 	C 	0.12890 0.63510 0.85500 0.35800
H 	H 	0.01620 0.60520 0.71870 0.16900
H 	H 	0.04590 0.65410 0.75890 0.17300
H 	H 	0.98680 0.60230 0.77920 0.16500
H 	H 	0.29870 0.66250 0.67020 0.14100
H 	H 	0.29080 0.60050 0.64400 0.13500
C 	C 	0.23430 0.66370 0.59900 0.32000
C 	C 	0.06740 0.42240 0.72700 0.06200
C 	C 	0.96640 0.49430 0.76910 -0.37800
C 	C 	0.13890 0.33700 0.70340 0.07200
N 	N 	0.26910 0.39580 0.83460 -0.05000
C 	C 	0.36050 0.32460 0.74040 0.00500
C 	C 	0.21500 0.31130 0.73460 -0.04900
C 	C 	0.35470 0.42750 0.63570 0.11300
C 	C 	0.23450 0.47040 0.61710 0.06400
H 	H 	0.54270 0.48540 0.68870 0.02000
H 	H 	0.55450 0.41780 0.68690 0.03400
C 	C 	0.66930 0.46010 0.70600 -0.30400
C 	C 	0.52570 0.32290 0.75260 -0.42200
N 	N 	0.05650 0.64690 0.88070 -0.36400
O 	O 	0.18980 0.66860 0.85150 -0.35600
N 	N 	0.28510 0.65030 0.55770 -0.34100
O 	O 	0.17360 0.69740 0.59500 -0.29600
C 	C 	0.99600 0.37950 0.71370 -0.17400
H 	H 	0.97470 0.51700 0.80130 0.11500
H 	H 	0.93410 0.45940 0.77760 0.12400
H 	H 	0.93370 0.51680 0.74330 0.11400
C 	C 	0.04290 0.32140 0.72070 0.22400
C 	C 	0.15500 0.32980 0.64390 -0.46500
N 	N 	0.31160 0.36810 0.86350 -0.10200
C 	C 	0.34820 0.25930 0.74220 0.10000
C 	C 	0.25590 0.25500 0.71810 -0.00100
H 	H 	0.19690 0.30800 0.77240 0.03500
H 	H 	0.39810 0.40620 0.65370 -0.00100
N 	N 	0.36400 0.44470 0.58570 -0.13800
C 	C 	0.15460 0.49580 0.61540 -0.17200
C 	C 	0.28850 0.47270 0.57240 0.07000
H 	H 	0.68710 0.47540 0.67120 0.11100
H 	H 	0.68710 0.48790 0.73340 0.09100
C 	C 	0.71490 0.40260 0.71590 0.31100
H 	H 	0.57140 0.34870 0.76530 0.14700
H 	H 	0.54180 0.30790 0.71780 0.15600
H 	H 	0.51900 0.29110 0.77740 0.14200
H 	H 	0.05040 0.68020 0.89650 0.17900
H 	H 	0.01440 0.62150 0.88220 0.13300
Na	Na	0.27044 0.75784 0.83861 0.57900
H 	H 	0.27540 0.66590 0.52670 0.15000
H 	H 	0.32830 0.62600 0.56170 0.14300
H 	H 	0.94990 0.38240 0.74140 0.08900
C 	C 	0.95310 0.38920 0.65970 0.04900
C 	C 	0.00030 0.27360 0.69020 -0.57500
C 	C 	0.04210 0.30660 0.78050 -0.39400
H 	H 	0.11240 0.35250 0.62410 0.16800
H 	H 	0.14890 0.28940 0.63430 0.16600
H 	H 	0.21390 0.34290 0.63520 0.16700
C 	C 	0.35000 0.24210 0.80100 -0.45100
C 	C 	0.41340 0.22310 0.71170 -0.09700
H 	H 	0.26170 0.25510 0.67880 0.03800
C 	C 	0.20310 0.20140 0.73410 -0.27700
C 	C 	0.43290 0.42540 0.54920 0.10000
H 	H 	0.11810 0.49470 0.64570 0.08200
C 	C 	0.12640 0.52280 0.57050 0.09800
C 	C 	0.26140 0.49770 0.52540 -0.17800
N 	N 	0.75890 0.39950 0.76120 -0.35000
O 	O 	0.70990 0.36390 0.68400 -0.33500
H 	H 	0.99850 0.38550 0.63220 0.01900
H 	H 	0.91020 0.35830 0.65380 0.01900
C 	C 	0.90720 0.44640 0.65210 -0.29000
H 	H 	0.93950 0.26980 0.70120 0.19000
H 	H 	0.03110 0.23770 0.69710 0.17900
H 	H 	0.00280 0.28210 0.65230 0.20200
H 	H 	0.08410 0.27520 0.78680 0.12500
H 	H 	0.06300 0.34040 0.80040 0.14000
C 	C 	0.95430 0.28870 0.80310 0.33100
H 	H 	0.40410 0.25570 0.81710 0.15100
H 	H 	0.34690 0.20040 0.80400 0.14400
H 	H 	0.30020 0.25920 0.81910 0.15700
H 	H 	0.46990 0.22470 0.73030 0.06400
H 	H 	0.39340 0.18290 0.71230 0.05700
C 	C 	0.42780 0.24040 0.65450 -0.24700
H 	H 	0.21490 0.19240 0.77160 0.08800
H 	H 	0.14020 0.20980 0.73070 0.08600
C 	C 	0.22550 0.14950 0.70010 0.29400
C 	C 	0.41480 0.36440 0.53030 0.06700
H 	H 	0.43640 0.45180 0.51830 0.00300
O 	O 	0.51280 0.42519 0.57665 -0.19200
C 	C 	0.18170 0.52240 0.52390 0.10400
C 	C 	0.03920 0.55260 0.56870 -0.46000
H 	H 	0.29780 0.49750 0.49510 0.08300
H 	H 	0.78670 0.36790 0.76960 0.17000
H 	H 	0.76010 0.42900 0.78270 0.13100
H 	H 	0.95060 0.47760 0.65430 0.09800
H 	H 	0.86460 0.45200 0.68090 0.10200
C 	C 	0.85980 0.45020 0.59890 0.28600
N 	N 	0.95790 0.24810 0.83950 -0.35700
O 	O 	0.88500 0.31110 0.79070 -0.31000
H 	H 	0.37730 0.22840 0.63310 0.09700
H 	H 	0.43270 0.28250 0.65220 0.11500
C 	C 	0.50940 0.21340 0.63280 0.28500
N 	N 	0.22140 0.10000 0.72480 -0.33700
O 	O 	0.24520 0.15460 0.65270 -0.36900
C 	C 	0.50750 0.34290 0.52370 0.06800
H 	H 	0.38240 0.36400 0.49610 0.00600
O 	O 	0.37060 0.33425 0.56938 -0.35500
C 	C 	0.55450 0.37060 0.56990 0.01000
C 	C 	0.14730 0.54850 0.47370 -0.48000
H 	H 	0.01140 0.55010 0.60340 0.14600
H 	H 	0.00210 0.53410 0.54230 0.14700
H 	H 	0.04760 0.59280 0.55930 0.15200
O 	O 	0.58240 0.23090 0.64680 -0.31000
N 	N 	0.81970 0.49880 0.59090 -0.33600
O 	O 	0.86050 0.40960 0.56690 -0.26300
H 	H 	0.91000 0.23660 0.85530 0.18500
H 	H 	0.00820 0.23260 0.84790 0.13900
N 	N 	0.49820 0.16940 0.60010 -0.19200
H 	H 	0.23300 0.06810 0.70770 0.12000
H 	H 	0.20710 0.09880 0.75840 0.11900
Na	Na	0.21220 0.14309 0.56683 0.57600
H 	H 	0.53220 0.35720 0.48970 0.01200
O 	O 	0.51510 0.28328 0.52605 -0.25100
H 	H 	0.36120 0.30070 0.55900 0.20900
H 	H 	0.54670 0.34690 0.60240 0.05100
C 	C 	0.65170 0.38020 0.55930 0.08000
H 	H 	0.08830 0.56290 0.47970 0.15300
H 	H 	0.14620 0.51950 0.44590 0.15400
H 	H 	0.18520 0.58010 0.46300 0.16600
H 	H 	0.79080 0.50450 0.56140 0.13900
H 	H 	0.82170 0.52580 0.61500 0.12400
C 	C 	0.57180 0.13920 0.57640 -0.19600
H 	H 	0.44500 0.15830 0.59240 0.10400
P 	P 	0.54432 0.25021 0.47375 0.49600
H 	H 	0.67660 0.40390 0.58800 0.02600
H 	H 	0.68220 0.34290 0.55940 0.00800
O 	O 	0.66550 0.40730 0.51100 -0.35700
H 	H 	0.55070 0.10280 0.56100 0.08100
H 	H 	0.61420 0.12960 0.60440 0.09300
C 	C 	0.61710 0.17300 0.53420 0.34900
O 	O 	0.55240 0.18760 0.49453 -0.30000
O 	O 	0.62910 0.27469 0.45550 -0.33500
O 	O 	0.47170 0.25110 0.43520 -0.28400
H 	H 	0.68250 0.44610 0.50650 0.14400
H 	H 	0.64480 0.20810 0.54910 -0.06100
C 	C 	0.68370 0.13560 0.50710 -0.68500
H 	H 	0.72480 0.12080 0.53330 0.22200
H 	H 	0.71530 0.15810 0.48080 0.23800
H 	H 	0.65430 0.10360 0.48970 0.23200
Br	Br	0.10695 0.37299 0.26485 -0.32300
C 	C 	0.15410 0.44670 0.25210 0.03400
C 	C 	0.24200 0.44740 0.24290 0.06900
C 	C 	0.09930 0.49460 0.25900 -0.04900
C 	C 	0.30040 0.39570 0.24060 -0.18100
N 	N 	0.29160 0.49590 0.23860 -0.24300
C 	C 	0.00920 0.49580 0.28410 0.32300
N 	N 	0.12650 0.54770 0.24980 -0.23200
C 	C 	0.38350 0.42140 0.26850 0.23900
H 	H 	0.27560 0.36370 0.26200 0.10500
C 	C 	0.31990 0.37580 0.18450 0.09100
C 	C 	0.37810 0.48290 0.24920 -0.05100
Co	Co	0.24444 0.57067 0.23348 1.17500
C 	C 	0.97420 0.55250 0.26180 -0.18700
C 	C 	0.94380 0.44730 0.27760 -0.66000
C 	C 	0.02480 0.50420 0.34450 -0.62000
C 	C 	0.05840 0.58770 0.25410 0.03800
C 	C 	0.36820 0.42340 0.32970 -0.41700
C 	C 	0.46620 0.38680 0.25510 -0.54600
H 	H 	0.35510 0.40550 0.16670 0.00300
H 	H 	0.35570 0.34070 0.18650 0.00100
C 	C 	0.24080 0.36340 0.15080 -0.35200
C 	C 	0.44480 0.52160 0.24610 0.02900
N 	N 	0.35720 0.60120 0.21830 -0.25500
N 	N 	0.27230 0.57610 0.30810 -0.20700
N 	N 	0.21240 0.64850 0.23160 -0.23400
N 	N 	0.21850 0.55770 0.15810 -0.26000
H 	H 	0.93450 0.57150 0.28760 0.07300
C 	C 	0.93080 0.54750 0.20730 0.03700
H 	H 	0.88630 0.46020 0.28930 0.20200
H 	H 	0.96210 0.41450 0.29890 0.23500
H 	H 	0.94100 0.43610 0.24040 0.22200
H 	H 	0.96890 0.50980 0.36230 0.19000
H 	H 	0.06170 0.53780 0.35020 0.20700
H 	H 	0.05370 0.47030 0.35900 0.20300
C 	C 	0.05900 0.64480 0.24850 0.04200
H 	H 	0.41330 0.44790 0.34610 0.13400
H 	H 	0.31090 0.44100 0.33690 0.15400
C 	C 	0.37110 0.36490 0.35500 0.35700
H 	H 	0.48380 0.39480 0.21870 0.16900
H 	H 	0.45410 0.34590 0.25890 0.17400
H 	H 	0.51320 0.39770 0.27920 0.16600
H 	H 	0.20130 0.33750 0.17020 0.14100
H 	H 	0.20920 0.39950 0.14400 0.13500
C 	C 	0.26570 0.33630 0.09900 0.32000
C 	C 	0.43260 0.57760 0.22700 0.06200
C 	C 	0.53360 0.50570 0.26910 -0.37800
C 	C 	0.36110 0.66300 0.20340 0.07200
N 	N 	0.23090 0.60420 0.33460 -0.05000
C 	C 	0.13950 0.67540 0.24040 0.00500
C 	C 	0.28500 0.68870 0.23460 -0.04900
C 	C 	0.14530 0.57250 0.13570 0.11300
C 	C 	0.26550 0.52960 0.11710 0.06400
H 	H 	0.95730 0.51460 0.18870 0.02000
H 	H 	0.94550 0.58220 0.18690 0.03400
C 	C 	0.83070 0.53990 0.20600 -0.30400
C 	C 	0.97430 0.67710 0.25260 -0.42300
N 	N 	0.44350 0.35310 0.38070 -0.36400
O 	O 	0.31020 0.33140 0.35150 -0.35700
N 	N 	0.21490 0.34970 0.05770 -0.34100
O 	O 	0.32640 0.30260 0.09500 -0.29600
C 	C 	0.50400 0.62050 0.21370 -0.17300
H 	H 	0.52530 0.48300 0.30130 0.11500
H 	H 	0.56590 0.54060 0.27760 0.12400
H 	H 	0.56630 0.48320 0.24330 0.11400
C 	C 	0.45710 0.67860 0.22070 0.22300
C 	C 	0.34500 0.67020 0.14390 -0.46500
N 	N 	0.18840 0.63190 0.36350 -0.10200
C 	C 	0.15180 0.74070 0.24220 0.10000
C 	C 	0.24410 0.74500 0.21810 -0.00100
H 	H 	0.30310 0.69200 0.27240 0.03500
H 	H 	0.10190 0.59380 0.15370 -0.00100
N 	N 	0.13600 0.55530 0.08570 -0.13900
C 	C 	0.34540 0.50420 0.11540 -0.17200
C 	C 	0.21150 0.52730 0.07240 0.07100
H 	H 	0.81290 0.52460 0.17120 0.11100
H 	H 	0.81290 0.51210 0.23340 0.09100
C 	C 	0.78510 0.59740 0.21590 0.31100
H 	H 	0.92860 0.65130 0.26530 0.14700
H 	H 	0.95820 0.69210 0.21780 0.15600
H 	H 	0.98100 0.70890 0.27740 0.14200
H 	H 	0.44960 0.31980 0.39650 0.17800
H 	H 	0.48560 0.37850 0.38220 0.13300
Na	Na	0.22956 0.24216 0.33861 0.57900
H 	H 	0.22460 0.33410 0.02670 0.15000
H 	H 	0.17170 0.37400 0.06170 0.14300
H 	H 	0.55010 0.61760 0.24140 0.08900
C 	C 	0.54690 0.61080 0.15970 0.04900
C 	C 	0.49970 0.72640 0.19020 -0.57400
C 	C 	0.45790 0.69340 0.28050 -0.39400
H 	H 	0.38760 0.64750 0.12410 0.16800
H 	H 	0.35110 0.71060 0.13430 0.16600
H 	H 	0.28610 0.65710 0.13520 0.16700
C 	C 	0.15000 0.75790 0.30100 -0.45200
C 	C 	0.08660 0.77690 0.21170 -0.09800
H 	H 	0.23830 0.74490 0.17880 0.03800
C 	C 	0.29690 0.79860 0.23410 -0.27700
C 	C 	0.06710 0.57460 0.04920 0.10000
H 	H 	0.38190 0.50530 0.14570 0.08200
C 	C 	0.37360 0.47720 0.07050 0.09800
C 	C 	0.23860 0.50230 0.02540 -0.17900
N 	N 	0.74110 0.60050 0.26120 -0.35000
O 	O 	0.79010 0.63610 0.18400 -0.33500
H 	H 	0.50150 0.61450 0.13220 0.01900
H 	H 	0.58980 0.64170 0.15380 0.01900
C 	C 	0.59280 0.55360 0.15210 -0.29000
H 	H 	0.56050 0.73020 0.20120 0.19000
H 	H 	0.46890 0.76230 0.19710 0.17900
H 	H 	0.49720 0.71790 0.15230 0.20200
H 	H 	0.41590 0.72480 0.28680 0.12500
H 	H 	0.43700 0.65960 0.30040 0.14000
C 	C 	0.54570 0.71130 0.30310 0.33100
H 	H 	0.09590 0.74430 0.31710 0.15200
H 	H 	0.15310 0.79960 0.30400 0.14400
H 	H 	0.19980 0.74080 0.31910 0.15700
H 	H 	0.03010 0.77530 0.23030 0.06500
H 	H 	0.10660 0.81710 0.21230 0.05700
C 	C 	0.07220 0.75960 0.15450 -0.24700
H 	H 	0.28510 0.80760 0.27160 0.08800
H 	H 	0.35980 0.79020 0.23070 0.08600
C 	C 	0.27450 0.85050 0.20010 0.29400
C 	C 	0.08520 0.63560 0.03030 0.06500
H 	H 	0.06360 0.54820 0.01830 0.00300
O 	O 	0.98720 0.57481 0.07665 -0.19200
C 	C 	0.31830 0.47760 0.02390 0.10400
C 	C 	0.46080 0.44740 0.06870 -0.46000
H 	H 	0.20220 0.50250 0.99510 0.08300
H 	H 	0.71330 0.63210 0.26960 0.17000
H 	H 	0.73990 0.57100 0.28270 0.13100
H 	H 	0.54940 0.52240 0.15430 0.09800
H 	H 	0.63540 0.54800 0.18090 0.10200
C 	C 	0.64020 0.54980 0.09890 0.28700
N 	N 	0.54210 0.75190 0.33950 -0.35700
O 	O 	0.61500 0.68890 0.29070 -0.31000
H 	H 	0.12270 0.77160 0.13310 0.09700
H 	H 	0.06730 0.71750 0.15220 0.11500
C 	C 	0.99060 0.78660 0.13280 0.28500
N 	N 	0.27860 0.90000 0.22480 -0.33700
O 	O 	0.25480 0.84540 0.15270 -0.36900
C 	C 	0.99250 0.65710 0.02370 0.07000
H 	H 	0.11760 0.63600 0.99610 0.00700
O 	O 	0.12940 0.66575 0.06938 -0.35400
C 	C 	0.94550 0.62940 0.06990 0.00900
C 	C 	0.35270 0.45150 0.97370 -0.48000
H 	H 	0.48860 0.44990 0.10340 0.14600
H 	H 	0.49790 0.46590 0.04230 0.14700
H 	H 	0.45240 0.40720 0.05930 0.15200
O 	O 	0.91760 0.76910 0.14680 -0.31000
N 	N 	0.68030 0.50120 0.09090 -0.33600
O 	O 	0.63950 0.59040 0.06690 -0.26300
H 	H 	0.59000 0.76340 0.35530 0.18500
H 	H 	0.49180 0.76740 0.34790 0.13900
N 	N 	0.00180 0.83060 0.10010 -0.19200
H 	H 	0.26700 0.93190 0.20770 0.12000
H 	H 	0.29290 0.90120 0.25840 0.11900
Na	Na	0.28780 0.85691 0.06683 0.57600
H 	H 	0.96780 0.64280 0.98970 0.01100
O 	O 	0.98490 0.71672 0.02605 -0.25100
H 	H 	0.13880 0.69930 0.05900 0.20800
H 	H 	0.95330 0.65310 0.10240 0.05100
C 	C 	0.84830 0.61980 0.05930 0.08000
H 	H 	0.41170 0.43710 0.97970 0.15300
H 	H 	0.35380 0.48050 0.94590 0.15400
H 	H 	0.31480 0.41990 0.96300 0.16600
H 	H 	0.70920 0.49550 0.06140 0.13900
H 	H 	0.67830 0.47420 0.11500 0.12500
C 	C 	0.92820 0.86080 0.07640 -0.19600
H 	H 	0.05500 0.84170 0.09240 0.10400
P 	P 	0.95568 0.74979 0.97375 0.49400
H 	H 	0.82340 0.59610 0.08800 0.02600
H 	H 	0.81780 0.65710 0.05940 0.00800
O 	O 	0.83450 0.59270 0.01100 -0.35700
H 	H 	0.94930 0.89720 0.06100 0.08000
H 	H 	0.88580 0.87040 0.10440 0.09400
C 	C 	0.88290 0.82700 0.03420 0.34900
O 	O 	0.94760 0.81240 0.99453 -0.30100
O 	O 	0.87090 0.72531 0.95550 -0.33500
O 	O 	0.02830 0.74890 0.93520 -0.28300
H 	H 	0.81750 0.55390 0.00650 0.14400
H 	H 	0.85520 0.79190 0.04910 -0.06100
C 	C 	0.81630 0.86440 0.00710 -0.68600
H 	H 	0.77520 0.87920 0.03330 0.22200
H 	H 	0.78470 0.84190 0.98080 0.23800
H 	H 	0.84570 0.89640 0.98970 0.23200
Br	Br	0.60695 0.12701 0.73515 -0.32200
C 	C 	0.65410 0.05330 0.74790 0.03400
C 	C 	0.74200 0.05260 0.75710 0.06900
C 	C 	0.59930 0.00540 0.74100 -0.04800
C 	C 	0.80040 0.10430 0.75940 -0.18100
N 	N 	0.79160 0.00410 0.76140 -0.24300
C 	C 	0.50920 0.00420 0.71590 0.32300
N 	N 	0.62650 0.95230 0.75020 -0.23200
C 	C 	0.88350 0.07860 0.73150 0.23700
H 	H 	0.77560 0.13630 0.73800 0.10500
C 	C 	0.81990 0.12420 0.81550 0.09000
C 	C 	0.87810 0.01710 0.75080 -0.04800
Co	Co	0.74444 0.92933 0.76652 1.17500
C 	C 	0.47420 0.94750 0.73820 -0.18700
C 	C 	0.44380 0.05270 0.72240 -0.66000
C 	C 	0.52480 0.99580 0.65550 -0.61900
C 	C 	0.55840 0.91230 0.74590 0.03900
C 	C 	0.86820 0.07660 0.67030 -0.41600
C 	C 	0.96620 0.11320 0.74490 -0.54200
H 	H 	0.85510 0.09450 0.83330 0.00300
H 	H 	0.85570 0.15930 0.81350 0.00100
C 	C 	0.74080 0.13660 0.84920 -0.35200
C 	C 	0.94480 0.97840 0.75390 0.02100
N 	N 	0.85720 0.89880 0.78170 -0.25500
N 	N 	0.77230 0.92390 0.69190 -0.20700
N 	N 	0.71240 0.85150 0.76840 -0.23400
N 	N 	0.71850 0.94230 0.84190 -0.26000
H 	H 	0.43450 0.92850 0.71240 0.07300
C 	C 	0.43080 0.95250 0.79270 0.03700
H 	H 	0.38630 0.03980 0.71070 0.20200
H 	H 	0.46210 0.08550 0.70110 0.23400
H 	H 	0.44100 0.06390 0.75960 0.22200
H 	H 	0.46890 0.99020 0.63770 0.19000
H 	H 	0.56170 0.96220 0.64980 0.20600
H 	H 	0.55370 0.02970 0.64100 0.20200
C 	C 	0.55900 0.85520 0.75150 0.04200
H 	H 	0.91330 0.05210 0.65390 0.13400
H 	H 	0.81090 0.05900 0.66310 0.15400
C 	C 	0.87110 0.13510 0.64500 0.35700
H 	H 	0.98380 0.10520 0.78130 0.16900
H 	H 	0.95410 0.15410 0.74110 0.17300
H 	H 	0.01320 0.10230 0.72080 0.16500
H 	H 	0.70130 0.16250 0.82980 0.14100
H 	H 	0.70920 0.10050 0.85600 0.13500
C 	C 	0.76570 0.16370 0.90100 0.32000
C 	C 	0.93260 0.92240 0.77300 0.06300
C 	C 	0.03360 0.99430 0.73090 -0.35800
C 	C 	0.86110 0.83700 0.79660 0.07200
N 	N 	0.73090 0.89580 0.66540 -0.05000
C 	C 	0.63950 0.82460 0.75960 0.00500
C 	C 	0.78500 0.81130 0.76540 -0.04900
C 	C 	0.64530 0.92750 0.86430 0.11300
C 	C 	0.76550 0.97040 0.88290 0.06500
H 	H 	0.45730 0.98540 0.81130 0.02000
H 	H 	0.44550 0.91780 0.81310 0.03400
C 	C 	0.33070 0.96010 0.79400 -0.30400
C 	C 	0.47430 0.82290 0.74740 -0.42300
N 	N 	0.94350 0.14690 0.61930 -0.36400
O 	O 	0.81020 0.16860 0.64850 -0.35600
N 	N 	0.71490 0.15030 0.94230 -0.34100
O 	O 	0.82640 0.19740 0.90500 -0.29600
C 	C 	0.00400 0.87950 0.78630 -0.17100
H 	H 	0.02530 0.01700 0.69870 0.10800
H 	H 	0.06590 0.95940 0.72240 0.11900
H 	H 	0.06630 0.01680 0.75670 0.10700
C 	C 	0.95710 0.82140 0.77930 0.22300
C 	C 	0.84500 0.82980 0.85610 -0.46500
N 	N 	0.68840 0.86810 0.63650 -0.10200
C 	C 	0.65180 0.75930 0.75780 0.10000
C 	C 	0.74410 0.75500 0.78190 -0.00100
H 	H 	0.80310 0.80800 0.72760 0.03500
H 	H 	0.60190 0.90620 0.84630 -0.00100
N 	N 	0.63600 0.94470 0.91430 -0.13800
C 	C 	0.84540 0.99580 0.88460 -0.17400
C 	C 	0.71150 0.97270 0.92760 0.06900
H 	H 	0.31290 0.97540 0.82880 0.11200
H 	H 	0.31290 0.98790 0.76660 0.09100
C 	C 	0.28510 0.90260 0.78410 0.31200
H 	H 	0.42860 0.84870 0.73470 0.14700
H 	H 	0.45820 0.80790 0.78220 0.15700
H 	H 	0.48100 0.79110 0.72260 0.14200
H 	H 	0.94960 0.18020 0.60350 0.17900
H 	H 	0.98560 0.12150 0.61780 0.13300
Na	Na	0.72956 0.25784 0.66139 0.57900
H 	H 	0.72460 0.16590 0.97330 0.15000
H 	H 	0.67170 0.12600 0.93830 0.14300
H 	H 	0.05010 0.88240 0.75860 0.08900
C 	C 	0.04690 0.88920 0.84030 0.04800
C 	C 	0.99970 0.77360 0.80980 -0.57800
C 	C 	0.95790 0.80660 0.71950 -0.39600
H 	H 	0.88760 0.85250 0.87590 0.16800
H 	H 	0.85110 0.78940 0.86570 0.16500
H 	H 	0.78610 0.84290 0.86480 0.16700
C 	C 	0.65000 0.74210 0.69900 -0.45200
C 	C 	0.58660 0.72310 0.78830 -0.09700
H 	H 	0.73830 0.75510 0.82120 0.03800
C 	C 	0.79690 0.70140 0.76590 -0.27700
C 	C 	0.56710 0.92540 0.95080 0.10000
H 	H 	0.88190 0.99470 0.85430 0.08300
C 	C 	0.87360 0.02280 0.92950 0.10000
C 	C 	0.73860 0.99770 0.97460 -0.17400
N 	N 	0.24110 0.89950 0.73880 -0.35000
O 	O 	0.29010 0.86390 0.81600 -0.33500
H 	H 	0.00150 0.88550 0.86780 0.02000
H 	H 	0.08980 0.85830 0.84620 0.02000
C 	C 	0.09280 0.94640 0.84790 -0.29000
H 	H 	0.06050 0.76980 0.79880 0.19100
H 	H 	0.96890 0.73770 0.80290 0.18000
H 	H 	0.99720 0.78210 0.84770 0.20300
H 	H 	0.91590 0.77520 0.71320 0.12600
H 	H 	0.93700 0.84040 0.69960 0.14000
C 	C 	0.04570 0.78870 0.69690 0.33200
H 	H 	0.59590 0.75570 0.68290 0.15100
H 	H 	0.65310 0.70040 0.69600 0.14400
H 	H 	0.69980 0.75920 0.68090 0.15700
H 	H 	0.53010 0.72470 0.76970 0.06400
H 	H 	0.60660 0.68290 0.78770 0.05700
C 	C 	0.57220 0.74040 0.84550 -0.24700
H 	H 	0.78510 0.69240 0.72840 0.08800
H 	H 	0.85980 0.70980 0.76930 0.08600
C 	C 	0.77450 0.64950 0.79990 0.29400
C 	C 	0.58520 0.86440 0.96970 0.06800
H 	H 	0.56360 0.95180 0.98170 0.00400
O 	O 	0.48720 0.92519 0.92335 -0.19200
C 	C 	0.81830 0.02240 0.97610 0.10000
C 	C 	0.96080 0.05260 0.93130 -0.46100
H 	H 	0.70220 0.99750 0.00490 0.08100
H 	H 	0.21330 0.86790 0.73040 0.17000
H 	H 	0.23990 0.92900 0.71730 0.13100
H 	H 	0.04940 0.97760 0.84570 0.09900
H 	H 	0.13540 0.95200 0.81910 0.10300
C 	C 	0.14020 0.95020 0.90110 0.28600
N 	N 	0.04210 0.74810 0.66050 -0.35600
O 	O 	0.11500 0.81110 0.70930 -0.31000
H 	H 	0.62270 0.72840 0.86690 0.09700
H 	H 	0.56730 0.78250 0.84780 0.11500
C 	C 	0.49060 0.71340 0.86720 0.28500
N 	N 	0.77860 0.60000 0.77520 -0.33700
O 	O 	0.75480 0.65460 0.84730 -0.36900
C 	C 	0.49250 0.84290 0.97630 0.06800
H 	H 	0.61760 0.86400 0.00390 0.00500
O 	O 	0.62940 0.83425 0.93062 -0.35500
C 	C 	0.44550 0.87060 0.93010 0.01000
C 	C 	0.85270 0.04850 0.02630 -0.47500
H 	H 	0.98860 0.05010 0.89660 0.14600
H 	H 	0.99790 0.03410 0.95770 0.14700
H 	H 	0.95240 0.09280 0.94070 0.15200
O 	O 	0.41760 0.73090 0.85320 -0.31000
N 	N 	0.18030 0.99880 0.90910 -0.33300
O 	O 	0.13950 0.90960 0.93310 -0.26200
H 	H 	0.09000 0.73660 0.64470 0.18500
H 	H 	0.99180 0.73260 0.65210 0.13800
N 	N 	0.50180 0.66940 0.89990 -0.19200
H 	H 	0.76700 0.56810 0.79230 0.12000
H 	H 	0.79290 0.59880 0.74160 0.11900
Na	Na	0.78780 0.64309 0.93317 0.57600
H 	H 	0.46780 0.85720 0.01030 0.01100
O 	O 	0.48490 0.78328 0.97395 -0.25100
H 	H 	0.63880 0.80070 0.94100 0.20900
H 	H 	0.45330 0.84690 0.89760 0.05100
C 	C 	0.34830 0.88020 0.94070 0.08000
H 	H 	0.91170 0.06290 0.02030 0.15300
H 	H 	0.85380 0.01950 0.05410 0.15400
H 	H 	0.81480 0.08010 0.03700 0.16500
H 	H 	0.20920 0.00450 0.93860 0.13600
H 	H 	0.17830 0.02580 0.88500 0.12200
C 	C 	0.42820 0.63920 0.92360 -0.19500
H 	H 	0.55500 0.65830 0.90760 0.10400
P 	P 	0.45568 0.75021 0.02625 0.49500
H 	H 	0.32340 0.90390 0.91200 0.02600
H 	H 	0.31780 0.84290 0.94060 0.00800
O 	O 	0.33450 0.90730 0.98900 -0.35700
H 	H 	0.44930 0.60280 0.93900 0.08000
H 	H 	0.38580 0.62960 0.89560 0.09300
C 	C 	0.38290 0.67300 0.96580 0.34700
O 	O 	0.44760 0.68760 0.00547 -0.30000
O 	O 	0.37090 0.77469 0.04450 -0.33500
O 	O 	0.52830 0.75110 0.06480 -0.28400
H 	H 	0.31750 0.94610 0.99350 0.14500
H 	H 	0.35520 0.70810 0.95090 -0.06100
C 	C 	0.31630 0.63560 0.99290 -0.68000
H 	H 	0.27520 0.62080 0.96670 0.22000
H 	H 	0.28470 0.65810 0.01920 0.23600
H 	H 	0.34570 0.60360 0.01030 0.23000
Br	Br	0.89305 0.87299 0.23515 -0.32200
C 	C 	0.84590 0.94670 0.24790 0.03300
C 	C 	0.75800 0.94740 0.25710 0.06900
C 	C 	0.90070 0.99460 0.24100 -0.04800
C 	C 	0.69960 0.89570 0.25940 -0.18100
N 	N 	0.70840 0.99590 0.26140 -0.24300
C 	C 	0.99080 0.99580 0.21590 0.31500
N 	N 	0.87350 0.04770 0.25020 -0.23100
C 	C 	0.61650 0.92140 0.23150 0.23900
H 	H 	0.72440 0.86370 0.23800 0.10500
C 	C 	0.68010 0.87580 0.31550 0.09100
C 	C 	0.62190 0.98290 0.25080 -0.05200
Co	Co	0.75556 0.07067 0.26652 1.17500
C 	C 	0.02580 0.05250 0.23820 -0.18600
C 	C 	0.05620 0.94730 0.22240 -0.65200
C 	C 	0.97520 0.00420 0.15550 -0.59800
C 	C 	0.94160 0.08770 0.24590 0.03900
C 	C 	0.63180 0.92340 0.17030 -0.41700
C 	C 	0.53380 0.88680 0.24490 -0.54600
H 	H 	0.64490 0.90550 0.33330 0.00300
H 	H 	0.64430 0.84070 0.31350 0.00100
C 	C 	0.75920 0.86340 0.34920 -0.35200
C 	C 	0.55520 0.02160 0.25390 0.02900
N 	N 	0.64280 0.10120 0.28170 -0.25500
N 	N 	0.72770 0.07610 0.19190 -0.20700
N 	N 	0.78760 0.14850 0.26840 -0.23400
N 	N 	0.78150 0.05770 0.34190 -0.26000
H 	H 	0.06550 0.07150 0.21240 0.07200
C 	C 	0.06920 0.04750 0.29270 0.03600
H 	H 	0.11370 0.96020 0.21070 0.20000
H 	H 	0.03790 0.91450 0.20110 0.23200
H 	H 	0.05900 0.93610 0.25960 0.22000
H 	H 	0.03110 0.00980 0.13770 0.18200
H 	H 	0.93830 0.03780 0.14980 0.20100
H 	H 	0.94630 0.97030 0.14100 0.19500
C 	C 	0.94100 0.14480 0.25150 0.04300
H 	H 	0.58670 0.94790 0.15390 0.13300
H 	H 	0.68910 0.94100 0.16310 0.15400
C 	C 	0.62890 0.86490 0.14500 0.35700
H 	H 	0.51620 0.89480 0.28130 0.16900
H 	H 	0.54590 0.84590 0.24110 0.17400
H 	H 	0.48680 0.89770 0.22080 0.16600
H 	H 	0.79870 0.83750 0.32980 0.14100
H 	H 	0.79080 0.89950 0.35600 0.13500
C 	C 	0.73430 0.83630 0.40100 0.32000
C 	C 	0.56740 0.07760 0.27300 0.06200
C 	C 	0.46640 0.00570 0.23090 -0.37400
C 	C 	0.63890 0.16300 0.29660 0.07200
N 	N 	0.76910 0.10420 0.16540 -0.05000
C 	C 	0.86050 0.17540 0.25960 0.00400
C 	C 	0.71500 0.18870 0.26540 -0.04900
C 	C 	0.85470 0.07250 0.36430 0.11300
C 	C 	0.73450 0.02960 0.38290 0.06400
H 	H 	0.04270 0.01460 0.31130 0.02000
H 	H 	0.05450 0.08220 0.31310 0.03400
C 	C 	0.16930 0.03990 0.29400 -0.30300
C 	C 	0.02570 0.17710 0.24740 -0.42500
N 	N 	0.55650 0.85310 0.11930 -0.36400
O 	O 	0.68980 0.83140 0.14850 -0.35700
N 	N 	0.78510 0.84970 0.44230 -0.34100
O 	O 	0.67360 0.80260 0.40500 -0.29600
C 	C 	0.49600 0.12050 0.28630 -0.17300
H 	H 	0.47470 0.98300 0.19870 0.11400
H 	H 	0.43410 0.04060 0.22240 0.12300
H 	H 	0.43370 0.98320 0.25670 0.11300
C 	C 	0.54290 0.17860 0.27930 0.22300
C 	C 	0.65500 0.17020 0.35610 -0.46500
N 	N 	0.81160 0.13190 0.13650 -0.10100
C 	C 	0.84820 0.24070 0.25780 0.10100
C 	C 	0.75590 0.24500 0.28190 -0.00100
H 	H 	0.69690 0.19200 0.22760 0.03500
H 	H 	0.89810 0.09380 0.34630 -0.00000
N 	N 	0.86400 0.05530 0.41430 -0.13800
C 	C 	0.65460 0.00420 0.38460 -0.17100
C 	C 	0.78850 0.02730 0.42760 0.07000
H 	H 	0.18710 0.02460 0.32880 0.11100
H 	H 	0.18710 0.01210 0.26660 0.09000
C 	C 	0.21490 0.09740 0.28410 0.31100
H 	H 	0.07140 0.15130 0.23470 0.14800
H 	H 	0.04180 0.19210 0.28220 0.15700
H 	H 	0.01900 0.20890 0.22260 0.14200
H 	H 	0.55040 0.81980 0.10350 0.17800
H 	H 	0.51440 0.87850 0.11780 0.13300
Na	Na	0.77044 0.74216 0.16139 0.57900
H 	H 	0.77540 0.83410 0.47330 0.15000
H 	H 	0.82830 0.87400 0.43830 0.14300
H 	H 	0.44990 0.11760 0.25860 0.08900
C 	C 	0.45310 0.11080 0.34030 0.04900
C 	C 	0.50030 0.22640 0.30980 -0.57400
C 	C 	0.54210 0.19340 0.21950 -0.39400
H 	H 	0.61240 0.14750 0.37590 0.16800
H 	H 	0.64890 0.21060 0.36570 0.16600
H 	H 	0.71390 0.15710 0.36480 0.16700
C 	C 	0.85000 0.25790 0.19900 -0.45300
C 	C 	0.91340 0.27690 0.28830 -0.09900
H 	H 	0.76170 0.24490 0.32120 0.03800
C 	C 	0.70310 0.29860 0.26590 -0.27700
C 	C 	0.93290 0.07460 0.45080 0.10100
H 	H 	0.61810 0.00530 0.35430 0.08200
C 	C 	0.62640 0.97720 0.42950 0.09700
C 	C 	0.76140 0.00230 0.47460 -0.17600
N 	N 	0.25890 0.10050 0.23880 -0.35000
O 	O 	0.20990 0.13610 0.31600 -0.33500
H 	H 	0.49850 0.11450 0.36780 0.01900
H 	H 	0.41020 0.14170 0.34620 0.01900
C 	C 	0.40720 0.05360 0.34790 -0.29100
H 	H 	0.43950 0.23020 0.29880 0.19000
H 	H 	0.53110 0.26230 0.30290 0.17900
H 	H 	0.50280 0.21790 0.34770 0.20200
H 	H 	0.58410 0.22480 0.21320 0.12500
H 	H 	0.56300 0.15960 0.19960 0.14000
C 	C 	0.45430 0.21130 0.19690 0.33100
H 	H 	0.90410 0.24430 0.18290 0.15200
H 	H 	0.84690 0.29960 0.19600 0.14500
H 	H 	0.80020 0.24080 0.18090 0.15700
H 	H 	0.96990 0.27530 0.26970 0.06500
H 	H 	0.89340 0.31710 0.28770 0.05800
C 	C 	0.92780 0.25960 0.34550 -0.24500
H 	H 	0.71490 0.30760 0.22840 0.08800
H 	H 	0.64020 0.29020 0.26930 0.08600
C 	C 	0.72550 0.35050 0.29990 0.29400
C 	C 	0.91480 0.13560 0.46970 0.06800
H 	H 	0.93640 0.04820 0.48170 0.00300
O 	O 	0.01280 0.07481 0.42335 -0.19300
C 	C 	0.68170 0.97760 0.47610 0.10300
C 	C 	0.53920 0.94740 0.43130 -0.45900
H 	H 	0.79780 0.00250 0.50490 0.08200
H 	H 	0.28670 0.13210 0.23040 0.17000
H 	H 	0.26010 0.07100 0.21730 0.13100
H 	H 	0.45060 0.02240 0.34570 0.09800
H 	H 	0.36460 0.04800 0.31910 0.10200
C 	C 	0.35980 0.04980 0.40110 0.28700
N 	N 	0.45790 0.25190 0.16050 -0.35700
O 	O 	0.38500 0.18890 0.20930 -0.31000
H 	H 	0.87730 0.27160 0.36690 0.09700
H 	H 	0.93270 0.21750 0.34780 0.11500
C 	C 	0.00940 0.28660 0.36720 0.28300
N 	N 	0.72140 0.40000 0.27520 -0.33700
O 	O 	0.74520 0.34540 0.34730 -0.36900
C 	C 	0.00750 0.15710 0.47630 0.06600
H 	H 	0.88240 0.13600 0.50390 0.00500
O 	O 	0.87060 0.16575 0.43062 -0.35500
C 	C 	0.05450 0.12940 0.43010 0.01100
C 	C 	0.64730 0.95150 0.52630 -0.47900
H 	H 	0.51140 0.94990 0.39660 0.14600
H 	H 	0.50210 0.96590 0.45770 0.14700
H 	H 	0.54760 0.90720 0.44070 0.15200
O 	O 	0.08240 0.26910 0.35320 -0.31000
N 	N 	0.31970 0.00120 0.40910 -0.33700
O 	O 	0.36050 0.09040 0.43310 -0.26400
H 	H 	0.41000 0.26340 0.14470 0.18500
H 	H 	0.50820 0.26740 0.15210 0.13900
N 	N 	0.99820 0.33060 0.39990 -0.19100
H 	H 	0.73300 0.43190 0.29230 0.12000
H 	H 	0.70710 0.40120 0.24160 0.11900
Na	Na	0.71220 0.35691 0.43317 0.57700
H 	H 	0.03220 0.14280 0.51030 0.01200
O 	O 	0.01510 0.21672 0.47395 -0.25100
H 	H 	0.86120 0.19930 0.44100 0.20900
H 	H 	0.04670 0.15310 0.39760 0.05000
C 	C 	0.15170 0.11980 0.44070 0.08000
H 	H 	0.58830 0.93710 0.52030 0.15300
H 	H 	0.64620 0.98050 0.55410 0.15400
H 	H 	0.68520 0.91990 0.53700 0.16600
H 	H 	0.29080 0.99550 0.43860 0.13900
H 	H 	0.32170 0.97420 0.38500 0.12500
C 	C 	0.07180 0.36080 0.42360 -0.19600
H 	H 	0.94500 0.34170 0.40760 0.10400
P 	P 	0.04432 0.24979 0.52625 0.49500
H 	H 	0.17660 0.09610 0.41200 0.02600
H 	H 	0.18220 0.15710 0.44060 0.00800
O 	O 	0.16550 0.09270 0.48900 -0.35700
H 	H 	0.05070 0.39720 0.43900 0.08100
H 	H 	0.11420 0.37040 0.39560 0.09400
C 	C 	0.11710 0.32700 0.46580 0.34900
O 	O 	0.05240 0.31240 0.50547 -0.30000
O 	O 	0.12910 0.22531 0.54450 -0.33500
O 	O 	0.97170 0.24890 0.56480 -0.28400
H 	H 	0.18250 0.05390 0.49350 0.14400
H 	H 	0.14480 0.29190 0.45090 -0.06100
C 	C 	0.18370 0.36440 0.49290 -0.68500
H 	H 	0.22480 0.37920 0.46670 0.22200
H 	H 	0.21530 0.34190 0.51920 0.23800
H 	H 	0.15430 0.39640 0.51030 0.23200
