data_crystal

_cell_length_a 16.08500
_cell_length_b 16.08490
_cell_length_c 20.24600
_cell_angle_alpha 90.00000
_cell_angle_beta  90.00000
_cell_angle_gamma 90.00000

_symmetry_space_group_name_	'P 1'
_symmetry_space_group_name_H-M	'P 1'

loop_
_symmetry_equiv_pos_as_xyz
  x,y,z

loop_
_atom_site_label
_atom_site_type_symbol
_atom_site_fract_x
_atom_site_fract_y
_atom_site_fract_z
_atom_site_charge
C 	C 	0.85819 0.43217 0.29320 0.09800
H 	H 	0.81340 0.46250 0.27710 -0.00200
C 	C 	0.85443 0.34658 0.29016 -0.16700
H 	H 	0.80800 0.32060 0.27230 0.10900
C 	C 	0.91986 0.29966 0.31375 0.12000
C 	C 	0.98760 0.34279 0.34026 -0.17200
H 	H 	0.03310 0.31390 0.35700 0.09600
C 	C 	0.98635 0.42830 0.34136 0.10000
H 	H 	0.03190 0.45600 0.35910 -0.01200
C 	C 	0.91885 0.20758 0.31166 -0.04500
C 	C 	0.88352 0.16282 0.25758 0.05100
C 	C 	0.88307 0.07368 0.25655 0.05200
C 	C 	0.91744 0.02678 0.30989 -0.04800
C 	C 	0.95120 0.07222 0.36039 -0.03100
H 	H 	0.97440 0.04400 0.39600 0.04400
C 	C 	0.95240 0.16040 0.36083 -0.03500
H 	H 	0.97730 0.18730 0.39630 0.04700
C 	C 	0.98360 0.89116 0.33763 -0.17300
H 	H 	0.02900 0.91940 0.35530 0.09900
C 	C 	0.91687 0.93519 0.31079 0.12300
C 	C 	0.85150 0.88875 0.28630 -0.17400
H 	H 	0.80530 0.91520 0.26840 0.10600
C 	C 	0.85490 0.80301 0.28850 0.10000
H 	H 	0.81030 0.77300 0.27150 -0.00800
C 	C 	0.98170 0.80551 0.33775 0.10300
H 	H 	0.02680 0.77720 0.35560 -0.01000
C 	C 	0.13055 0.61707 0.32297 0.38700
C 	C 	0.18001 0.61684 0.38638 -0.09900
C 	C 	0.26580 0.62170 0.38363 0.00500
H 	H 	0.29240 0.62440 0.34290 0.04400
C 	C 	0.31190 0.62280 0.44123 -0.04100
H 	H 	0.36950 0.62660 0.43880 0.05700
C 	C 	0.27403 0.61817 0.50213 -0.04600
C 	C 	0.18870 0.61070 0.50485 -0.04000
H 	H 	0.16240 0.60580 0.54550 0.06300
C 	C 	0.14160 0.61060 0.44692 0.00300
H 	H 	0.08400 0.60620 0.44930 0.04200
C 	C 	0.32560 0.61949 0.56420 0.31600
Cd	Cd	0.91292 0.61653 0.32093 1.22600
N 	N 	0.85073 0.04170 0.20052 -0.12200
N 	N 	0.85113 0.19663 0.20218 -0.12200
N 	N 	0.92302 0.47368 0.31816 -0.24200
N 	N 	0.91891 0.76123 0.31380 -0.23900
O 	O 	0.05371 0.61850 0.32641 -0.48200
O 	O 	0.17034 0.61605 0.26977 -0.42400
O 	O 	0.40220 0.62590 0.56024 -0.36800
O 	O 	0.29024 0.61410 0.61789 -0.37900
S 	S 	0.82434 0.12013 0.15550 0.08200
C 	C 	0.14181 0.43217 0.20680 0.09900
H 	H 	0.18660 0.46250 0.22290 -0.00100
C 	C 	0.14557 0.34658 0.20984 -0.16600
H 	H 	0.19200 0.32060 0.22770 0.11000
C 	C 	0.08014 0.29966 0.18625 0.12100
C 	C 	0.01240 0.34279 0.15974 -0.17100
H 	H 	0.96690 0.31390 0.14300 0.09700
C 	C 	0.01365 0.42830 0.15864 0.10100
H 	H 	0.96810 0.45600 0.14090 -0.01100
C 	C 	0.08115 0.20758 0.18834 -0.04400
C 	C 	0.11648 0.16282 0.24242 0.05100
C 	C 	0.11693 0.07368 0.24345 0.05200
C 	C 	0.08256 0.02678 0.19011 -0.04800
C 	C 	0.04880 0.07222 0.13961 -0.03100
H 	H 	0.02560 0.04400 0.10400 0.04400
C 	C 	0.04760 0.16040 0.13917 -0.03500
H 	H 	0.02270 0.18730 0.10370 0.04700
C 	C 	0.01640 0.89116 0.16237 -0.17300
H 	H 	0.97100 0.91940 0.14470 0.09900
C 	C 	0.08313 0.93519 0.18921 0.12300
C 	C 	0.14850 0.88875 0.21370 -0.17400
H 	H 	0.19470 0.91520 0.23160 0.10600
C 	C 	0.14510 0.80301 0.21150 0.10000
H 	H 	0.18970 0.77300 0.22850 -0.00800
C 	C 	0.01830 0.80551 0.16225 0.10300
H 	H 	0.97320 0.77720 0.14440 -0.01000
C 	C 	0.86945 0.61707 0.17703 0.38700
C 	C 	0.81999 0.61684 0.11362 -0.09900
C 	C 	0.73420 0.62170 0.11637 0.00500
H 	H 	0.70760 0.62440 0.15710 0.04400
C 	C 	0.68810 0.62280 0.05877 -0.04100
H 	H 	0.63050 0.62660 0.06120 0.05700
C 	C 	0.72597 0.61817 0.99787 -0.04600
C 	C 	0.81130 0.61070 0.99515 -0.04000
H 	H 	0.83760 0.60580 0.95450 0.06300
C 	C 	0.85840 0.61060 0.05308 0.00300
H 	H 	0.91600 0.60620 0.05070 0.04200
C 	C 	0.67440 0.61949 0.93580 0.31600
Cd	Cd	0.08708 0.61653 0.17907 1.22600
N 	N 	0.14927 0.04170 0.29948 -0.12200
N 	N 	0.14887 0.19663 0.29782 -0.12200
N 	N 	0.07698 0.47368 0.18184 -0.24200
N 	N 	0.08109 0.76123 0.18620 -0.23900
O 	O 	0.94629 0.61850 0.17359 -0.48200
O 	O 	0.82966 0.61605 0.23023 -0.42400
O 	O 	0.59780 0.62590 0.93976 -0.36900
O 	O 	0.70976 0.61410 0.88211 -0.37900
S 	S 	0.17566 0.12013 0.34450 0.08200
C 	C 	0.35819 0.43217 0.70680 0.09900
H 	H 	0.31340 0.46250 0.72290 -0.00100
C 	C 	0.35443 0.34658 0.70984 -0.16600
H 	H 	0.30800 0.32060 0.72770 0.11000
C 	C 	0.41986 0.29966 0.68625 0.12100
C 	C 	0.48760 0.34279 0.65974 -0.17100
H 	H 	0.53310 0.31390 0.64300 0.09700
C 	C 	0.48635 0.42830 0.65864 0.10100
H 	H 	0.53190 0.45600 0.64090 -0.01100
C 	C 	0.41885 0.20758 0.68834 -0.04400
C 	C 	0.38352 0.16282 0.74242 0.05100
C 	C 	0.38307 0.07368 0.74345 0.05200
C 	C 	0.41744 0.02678 0.69011 -0.04800
C 	C 	0.45120 0.07222 0.63961 -0.03100
H 	H 	0.47440 0.04400 0.60400 0.04400
C 	C 	0.45240 0.16040 0.63917 -0.03500
H 	H 	0.47730 0.18730 0.60370 0.04700
C 	C 	0.48360 0.89116 0.66237 -0.17300
H 	H 	0.52900 0.91940 0.64470 0.09900
C 	C 	0.41687 0.93519 0.68921 0.12300
C 	C 	0.35150 0.88875 0.71370 -0.17400
H 	H 	0.30530 0.91520 0.73160 0.10600
C 	C 	0.35490 0.80301 0.71150 0.10000
H 	H 	0.31030 0.77300 0.72850 -0.00800
C 	C 	0.48170 0.80551 0.66225 0.10300
H 	H 	0.52680 0.77720 0.64440 -0.01000
C 	C 	0.63055 0.61707 0.67703 0.38700
C 	C 	0.68001 0.61684 0.61362 -0.09900
C 	C 	0.76580 0.62170 0.61637 0.00500
H 	H 	0.79240 0.62440 0.65710 0.04400
C 	C 	0.81190 0.62280 0.55877 -0.04100
H 	H 	0.86950 0.62660 0.56120 0.05700
C 	C 	0.77403 0.61817 0.49787 -0.04600
C 	C 	0.68870 0.61070 0.49515 -0.04000
H 	H 	0.66240 0.60580 0.45450 0.06300
C 	C 	0.64160 0.61060 0.55308 0.00300
H 	H 	0.58400 0.60620 0.55070 0.04200
C 	C 	0.82560 0.61949 0.43580 0.31600
Cd	Cd	0.41292 0.61653 0.67907 1.22600
N 	N 	0.35073 0.04170 0.79948 -0.12200
N 	N 	0.35113 0.19663 0.79782 -0.12200
N 	N 	0.42302 0.47368 0.68184 -0.24200
N 	N 	0.41891 0.76123 0.68620 -0.23900
O 	O 	0.55371 0.61850 0.67359 -0.48200
O 	O 	0.67034 0.61605 0.73023 -0.42400
O 	O 	0.90220 0.62590 0.43976 -0.36800
O 	O 	0.79024 0.61410 0.38211 -0.37900
S 	S 	0.32434 0.12013 0.84450 0.08200
C 	C 	0.64181 0.43217 0.79320 0.09900
H 	H 	0.68660 0.46250 0.77710 -0.00100
C 	C 	0.64557 0.34658 0.79016 -0.16600
H 	H 	0.69200 0.32060 0.77230 0.11000
C 	C 	0.58014 0.29966 0.81375 0.12100
C 	C 	0.51240 0.34279 0.84026 -0.17100
H 	H 	0.46690 0.31390 0.85700 0.09700
C 	C 	0.51365 0.42830 0.84136 0.10100
H 	H 	0.46810 0.45600 0.85910 -0.01100
C 	C 	0.58115 0.20758 0.81166 -0.04400
C 	C 	0.61648 0.16282 0.75758 0.05100
C 	C 	0.61693 0.07368 0.75655 0.05200
C 	C 	0.58256 0.02678 0.80989 -0.04800
C 	C 	0.54880 0.07222 0.86039 -0.03100
H 	H 	0.52560 0.04400 0.89600 0.04400
C 	C 	0.54760 0.16040 0.86083 -0.03500
H 	H 	0.52270 0.18730 0.89630 0.04700
C 	C 	0.51640 0.89116 0.83763 -0.17300
H 	H 	0.47100 0.91940 0.85530 0.09900
C 	C 	0.58313 0.93519 0.81079 0.12300
C 	C 	0.64850 0.88875 0.78630 -0.17400
H 	H 	0.69470 0.91520 0.76840 0.10600
C 	C 	0.64510 0.80301 0.78850 0.10000
H 	H 	0.68970 0.77300 0.77150 -0.00800
C 	C 	0.51830 0.80551 0.83775 0.10300
H 	H 	0.47320 0.77720 0.85560 -0.01000
C 	C 	0.36945 0.61707 0.82297 0.38700
C 	C 	0.31999 0.61684 0.88638 -0.09900
C 	C 	0.23420 0.62170 0.88363 0.00500
H 	H 	0.20760 0.62440 0.84290 0.04400
C 	C 	0.18810 0.62280 0.94123 -0.04100
H 	H 	0.13050 0.62660 0.93880 0.05700
C 	C 	0.22597 0.61817 0.00213 -0.04600
C 	C 	0.31130 0.61070 0.00485 -0.04100
H 	H 	0.33760 0.60580 0.04550 0.06300
C 	C 	0.35840 0.61060 0.94692 0.00300
H 	H 	0.41600 0.60620 0.94930 0.04100
C 	C 	0.17440 0.61949 0.06420 0.31600
Cd	Cd	0.58708 0.61653 0.82093 1.22600
N 	N 	0.64927 0.04170 0.70052 -0.12200
N 	N 	0.64887 0.19663 0.70218 -0.12200
N 	N 	0.57698 0.47368 0.81816 -0.24200
N 	N 	0.58109 0.76123 0.81380 -0.23900
O 	O 	0.44629 0.61850 0.82641 -0.48200
O 	O 	0.32966 0.61605 0.76977 -0.42400
O 	O 	0.09780 0.62590 0.06024 -0.36800
O 	O 	0.20976 0.61410 0.11789 -0.37900
S 	S 	0.67566 0.12013 0.65550 0.08200
C 	C 	0.64181 0.56783 0.29320 0.09900
H 	H 	0.68660 0.53750 0.27710 -0.00100
C 	C 	0.64557 0.65342 0.29016 -0.16600
H 	H 	0.69200 0.67940 0.27230 0.11000
C 	C 	0.58014 0.70034 0.31375 0.12100
C 	C 	0.51240 0.65721 0.34026 -0.17100
H 	H 	0.46690 0.68610 0.35700 0.09700
C 	C 	0.51365 0.57170 0.34136 0.10100
H 	H 	0.46810 0.54400 0.35910 -0.01100
C 	C 	0.58115 0.79242 0.31166 -0.04400
C 	C 	0.61648 0.83718 0.25758 0.05100
C 	C 	0.61693 0.92632 0.25655 0.05200
C 	C 	0.58256 0.97322 0.30989 -0.04800
C 	C 	0.54880 0.92778 0.36039 -0.03100
H 	H 	0.52560 0.95600 0.39600 0.04400
C 	C 	0.54760 0.83960 0.36083 -0.03500
H 	H 	0.52270 0.81270 0.39630 0.04700
C 	C 	0.51640 0.10884 0.33763 -0.17300
H 	H 	0.47100 0.08060 0.35530 0.09900
C 	C 	0.58313 0.06481 0.31079 0.12300
C 	C 	0.64850 0.11125 0.28630 -0.17400
H 	H 	0.69470 0.08480 0.26840 0.10600
C 	C 	0.64510 0.19699 0.28850 0.10000
H 	H 	0.68970 0.22700 0.27150 -0.00800
C 	C 	0.51830 0.19449 0.33775 0.10300
H 	H 	0.47320 0.22280 0.35560 -0.01000
C 	C 	0.36945 0.38293 0.32297 0.38700
C 	C 	0.31999 0.38316 0.38638 -0.09900
C 	C 	0.23420 0.37830 0.38363 0.00500
H 	H 	0.20760 0.37560 0.34290 0.04400
C 	C 	0.18810 0.37720 0.44123 -0.04100
H 	H 	0.13050 0.37340 0.43880 0.05700
C 	C 	0.22597 0.38183 0.50213 -0.04600
C 	C 	0.31130 0.38930 0.50485 -0.04000
H 	H 	0.33760 0.39420 0.54550 0.06300
C 	C 	0.35840 0.38940 0.44692 0.00300
H 	H 	0.41600 0.39380 0.44930 0.04200
C 	C 	0.17440 0.38051 0.56420 0.31600
Cd	Cd	0.58708 0.38347 0.32093 1.22600
N 	N 	0.64927 0.95830 0.20052 -0.12200
N 	N 	0.64887 0.80337 0.20218 -0.12200
N 	N 	0.57698 0.52632 0.31816 -0.24200
N 	N 	0.58109 0.23877 0.31380 -0.23900
O 	O 	0.44629 0.38150 0.32641 -0.48200
O 	O 	0.32966 0.38395 0.26977 -0.42400
O 	O 	0.09780 0.37410 0.56024 -0.36800
O 	O 	0.20976 0.38590 0.61789 -0.37900
S 	S 	0.67566 0.87987 0.15550 0.08200
C 	C 	0.35819 0.56783 0.20680 0.09900
H 	H 	0.31340 0.53750 0.22290 -0.00100
C 	C 	0.35443 0.65342 0.20984 -0.16600
H 	H 	0.30800 0.67940 0.22770 0.11000
C 	C 	0.41986 0.70034 0.18625 0.12100
C 	C 	0.48760 0.65721 0.15974 -0.17100
H 	H 	0.53310 0.68610 0.14300 0.09700
C 	C 	0.48635 0.57170 0.15864 0.10100
H 	H 	0.53190 0.54400 0.14090 -0.01100
C 	C 	0.41885 0.79242 0.18834 -0.04400
C 	C 	0.38352 0.83718 0.24242 0.05100
C 	C 	0.38307 0.92632 0.24345 0.05200
C 	C 	0.41744 0.97322 0.19011 -0.04800
C 	C 	0.45120 0.92778 0.13961 -0.03100
H 	H 	0.47440 0.95600 0.10400 0.04400
C 	C 	0.45240 0.83960 0.13917 -0.03500
H 	H 	0.47730 0.81270 0.10370 0.04700
C 	C 	0.48360 0.10884 0.16237 -0.17300
H 	H 	0.52900 0.08060 0.14470 0.09900
C 	C 	0.41687 0.06481 0.18921 0.12300
C 	C 	0.35150 0.11125 0.21370 -0.17400
H 	H 	0.30530 0.08480 0.23160 0.10600
C 	C 	0.35490 0.19699 0.21150 0.10000
H 	H 	0.31030 0.22700 0.22850 -0.00800
C 	C 	0.48170 0.19449 0.16225 0.10300
H 	H 	0.52680 0.22280 0.14440 -0.01000
C 	C 	0.63055 0.38293 0.17703 0.38700
C 	C 	0.68001 0.38316 0.11362 -0.09900
C 	C 	0.76580 0.37830 0.11637 0.00500
H 	H 	0.79240 0.37560 0.15710 0.04400
C 	C 	0.81190 0.37720 0.05877 -0.04100
H 	H 	0.86950 0.37340 0.06120 0.05700
C 	C 	0.77403 0.38183 0.99787 -0.04600
C 	C 	0.68870 0.38930 0.99515 -0.04100
H 	H 	0.66240 0.39420 0.95450 0.06300
C 	C 	0.64160 0.38940 0.05308 0.00300
H 	H 	0.58400 0.39380 0.05070 0.04100
C 	C 	0.82560 0.38051 0.93580 0.31600
Cd	Cd	0.41292 0.38347 0.17907 1.22600
N 	N 	0.35073 0.95830 0.29948 -0.12200
N 	N 	0.35113 0.80337 0.29782 -0.12200
N 	N 	0.42302 0.52632 0.18184 -0.24200
N 	N 	0.41891 0.23877 0.18620 -0.23900
O 	O 	0.55371 0.38150 0.17359 -0.48200
O 	O 	0.67034 0.38395 0.23023 -0.42400
O 	O 	0.90220 0.37410 0.93976 -0.36800
O 	O 	0.79024 0.38590 0.88211 -0.37900
S 	S 	0.32434 0.87987 0.34450 0.08200
C 	C 	0.14181 0.56783 0.70680 0.09900
H 	H 	0.18660 0.53750 0.72290 -0.00100
C 	C 	0.14557 0.65342 0.70984 -0.16600
H 	H 	0.19200 0.67940 0.72770 0.11000
C 	C 	0.08014 0.70034 0.68625 0.12100
C 	C 	0.01240 0.65721 0.65974 -0.17100
H 	H 	0.96690 0.68610 0.64300 0.09700
C 	C 	0.01365 0.57170 0.65864 0.10100
H 	H 	0.96810 0.54400 0.64090 -0.01100
C 	C 	0.08115 0.79242 0.68834 -0.04400
C 	C 	0.11648 0.83718 0.74242 0.05100
C 	C 	0.11693 0.92632 0.74345 0.05200
C 	C 	0.08256 0.97322 0.69011 -0.04800
C 	C 	0.04880 0.92778 0.63961 -0.03100
H 	H 	0.02560 0.95600 0.60400 0.04400
C 	C 	0.04760 0.83960 0.63917 -0.03500
H 	H 	0.02270 0.81270 0.60370 0.04700
C 	C 	0.01640 0.10884 0.66237 -0.17300
H 	H 	0.97100 0.08060 0.64470 0.09900
C 	C 	0.08313 0.06481 0.68921 0.12300
C 	C 	0.14850 0.11125 0.71370 -0.17400
H 	H 	0.19470 0.08480 0.73160 0.10600
C 	C 	0.14510 0.19699 0.71150 0.10000
H 	H 	0.18970 0.22700 0.72850 -0.00800
C 	C 	0.01830 0.19449 0.66225 0.10300
H 	H 	0.97320 0.22280 0.64440 -0.01000
C 	C 	0.86945 0.38293 0.67703 0.38700
C 	C 	0.81999 0.38316 0.61362 -0.09900
C 	C 	0.73420 0.37830 0.61637 0.00500
H 	H 	0.70760 0.37560 0.65710 0.04400
C 	C 	0.68810 0.37720 0.55877 -0.04100
H 	H 	0.63050 0.37340 0.56120 0.05700
C 	C 	0.72597 0.38183 0.49787 -0.04600
C 	C 	0.81130 0.38930 0.49515 -0.04000
H 	H 	0.83760 0.39420 0.45450 0.06300
C 	C 	0.85840 0.38940 0.55308 0.00300
H 	H 	0.91600 0.39380 0.55070 0.04200
C 	C 	0.67440 0.38051 0.43580 0.31600
Cd	Cd	0.08708 0.38347 0.67907 1.22600
N 	N 	0.14927 0.95830 0.79948 -0.12200
N 	N 	0.14887 0.80337 0.79782 -0.12200
N 	N 	0.07698 0.52632 0.68184 -0.24200
N 	N 	0.08109 0.23877 0.68620 -0.23900
O 	O 	0.94629 0.38150 0.67359 -0.48200
O 	O 	0.82966 0.38395 0.73023 -0.42400
O 	O 	0.59780 0.37410 0.43976 -0.36800
O 	O 	0.70976 0.38590 0.38211 -0.37900
S 	S 	0.17566 0.87987 0.84450 0.08200
C 	C 	0.85819 0.56783 0.79320 0.09900
H 	H 	0.81340 0.53750 0.77710 -0.00100
C 	C 	0.85443 0.65342 0.79016 -0.16600
H 	H 	0.80800 0.67940 0.77230 0.11000
C 	C 	0.91986 0.70034 0.81375 0.12100
C 	C 	0.98760 0.65721 0.84026 -0.17100
H 	H 	0.03310 0.68610 0.85700 0.09700
C 	C 	0.98635 0.57170 0.84136 0.10100
H 	H 	0.03190 0.54400 0.85910 -0.01100
C 	C 	0.91885 0.79242 0.81166 -0.04400
C 	C 	0.88352 0.83718 0.75758 0.05100
C 	C 	0.88307 0.92632 0.75655 0.05200
C 	C 	0.91744 0.97322 0.80989 -0.04800
C 	C 	0.95120 0.92778 0.86039 -0.03100
H 	H 	0.97440 0.95600 0.89600 0.04400
C 	C 	0.95240 0.83960 0.86083 -0.03500
H 	H 	0.97730 0.81270 0.89630 0.04700
C 	C 	0.98360 0.10884 0.83763 -0.17300
H 	H 	0.02900 0.08060 0.85530 0.09900
C 	C 	0.91687 0.06481 0.81079 0.12300
C 	C 	0.85150 0.11125 0.78630 -0.17400
H 	H 	0.80530 0.08480 0.76840 0.10600
C 	C 	0.85490 0.19699 0.78850 0.10000
H 	H 	0.81030 0.22700 0.77150 -0.00800
C 	C 	0.98170 0.19449 0.83775 0.10300
H 	H 	0.02680 0.22280 0.85560 -0.01000
C 	C 	0.13055 0.38293 0.82297 0.38700
C 	C 	0.18001 0.38316 0.88638 -0.09900
C 	C 	0.26580 0.37830 0.88363 0.00500
H 	H 	0.29240 0.37560 0.84290 0.04400
C 	C 	0.31190 0.37720 0.94123 -0.04100
H 	H 	0.36950 0.37340 0.93880 0.05700
C 	C 	0.27403 0.38183 0.00213 -0.04600
C 	C 	0.18870 0.38930 0.00485 -0.04000
H 	H 	0.16240 0.39420 0.04550 0.06300
C 	C 	0.14160 0.38940 0.94692 0.00300
H 	H 	0.08400 0.39380 0.94930 0.04200
C 	C 	0.32560 0.38051 0.06420 0.31600
Cd	Cd	0.91292 0.38347 0.82093 1.22600
N 	N 	0.85073 0.95830 0.70052 -0.12200
N 	N 	0.85113 0.80337 0.70218 -0.12200
N 	N 	0.92302 0.52632 0.81816 -0.24200
N 	N 	0.91891 0.23877 0.81380 -0.23900
O 	O 	0.05371 0.38150 0.82641 -0.48200
O 	O 	0.17034 0.38395 0.76977 -0.42400
O 	O 	0.40220 0.37410 0.06024 -0.36900
O 	O 	0.29024 0.38590 0.11789 -0.37900
S 	S 	0.82434 0.87987 0.65550 0.08200
