data_crystal

_cell_length_a 31.32560
_cell_length_b 5.88880
_cell_length_c 20.44850
_cell_angle_alpha 90.00000
_cell_angle_beta  102.22900
_cell_angle_gamma 90.00000

_symmetry_space_group_name_	'P 1'
_symmetry_space_group_name_H-M	'P 1'

loop_
_symmetry_equiv_pos_as_xyz
  x,y,z

loop_
_atom_site_label
_atom_site_type_symbol
_atom_site_fract_x
_atom_site_fract_y
_atom_site_fract_z
_atom_site_charge
O 	O 	0.49744 0.11160 0.32359 -0.44200
O 	O 	0.47390 0.42230 0.36596 -0.31700
N 	N 	0.44800 0.51960 0.20930 -0.26800
C 	C 	0.42071 0.45990 0.15177 0.09100
H 	H 	0.42550 0.32030 0.13120 -0.01000
C 	C 	0.38616 0.59380 0.12175 -0.16700
H 	H 	0.36750 0.54550 0.08130 0.08800
C 	C 	0.37839 0.80030 0.15048 0.12400
C 	C 	0.40651 0.85870 0.21029 -0.16400
H 	H 	0.40220 0.99640 0.23230 0.07800
C 	C 	0.44055 0.71670 0.23758 0.08800
H 	H 	0.45960 0.76050 0.27820 0.00200
C 	C 	0.34293 0.95740 0.12182 -0.11600
H 	H 	0.33730 0.07970 0.14910 0.06800
C 	C 	0.31851 0.94220 0.06177 -0.03200
H 	H 	0.32370 0.81670 0.03530 0.04200
C 	C 	0.28337 0.10220 0.03085 0.02600
C 	C 	0.27493 0.30180 0.06262 -0.05600
H 	H 	0.29200 0.33830 0.10550 0.04800
C 	C 	0.25837 0.05180 0.96814 -0.06200
H 	H 	0.26390 0.91670 0.94590 0.05300
C 	C 	0.48710 0.22450 0.37163 0.30500
C 	C 	0.49331 0.10500 0.43787 -0.05700
C 	C 	0.51230 0.89160 0.44658 -0.01900
H 	H 	0.52060 0.81690 0.41000 0.06100
C 	C 	0.48088 0.21260 0.49148 -0.02100
H 	H 	0.46760 0.35840 0.48550 0.05500
O 	O 	0.99744 0.61160 0.32359 -0.42100
O 	O 	0.97390 0.92230 0.36596 -0.30400
N 	N 	0.94800 0.01960 0.20930 -0.25800
C 	C 	0.92071 0.95990 0.15177 0.08100
H 	H 	0.92550 0.82030 0.13120 -0.00400
C 	C 	0.88616 0.09380 0.12175 -0.15600
H 	H 	0.86750 0.04550 0.08130 0.08600
C 	C 	0.87839 0.30030 0.15048 0.11900
C 	C 	0.90651 0.35870 0.21029 -0.15800
H 	H 	0.90220 0.49640 0.23230 0.07800
C 	C 	0.94055 0.21670 0.23758 0.08900
H 	H 	0.95960 0.26050 0.27820 0.00700
C 	C 	0.84293 0.45740 0.12182 -0.11300
H 	H 	0.83730 0.57970 0.14910 0.06700
C 	C 	0.81851 0.44220 0.06177 -0.03300
H 	H 	0.82370 0.31670 0.03530 0.04200
C 	C 	0.78337 0.60220 0.03085 0.02400
C 	C 	0.77493 0.80180 0.06262 -0.05300
H 	H 	0.79200 0.83830 0.10550 0.04600
C 	C 	0.75837 0.55180 0.96814 -0.05600
H 	H 	0.76390 0.41670 0.94590 0.05000
C 	C 	0.98710 0.72450 0.37163 0.28100
C 	C 	0.99331 0.60500 0.43787 0.02300
C 	C 	0.01230 0.39160 0.44658 -0.11200
H 	H 	0.02060 0.31690 0.41000 0.08300
C 	C 	0.98088 0.71260 0.49148 -0.08700
H 	H 	0.96760 0.85840 0.48550 0.08200
O 	O 	0.50256 0.11160 0.17641 -0.44300
O 	O 	0.52610 0.42230 0.13404 -0.31800
N 	N 	0.55200 0.51960 0.29070 -0.26900
C 	C 	0.57929 0.45990 0.34823 0.09000
H 	H 	0.57450 0.32030 0.36880 -0.01100
C 	C 	0.61384 0.59380 0.37825 -0.16700
H 	H 	0.63250 0.54550 0.41870 0.08800
C 	C 	0.62161 0.80030 0.34952 0.12300
C 	C 	0.59349 0.85870 0.28971 -0.16300
H 	H 	0.59780 0.99640 0.26770 0.07800
C 	C 	0.55945 0.71670 0.26242 0.08800
H 	H 	0.54040 0.76050 0.22180 0.00200
C 	C 	0.65707 0.95740 0.37818 -0.11500
H 	H 	0.66270 0.07970 0.35090 0.06800
C 	C 	0.68149 0.94220 0.43823 -0.03300
H 	H 	0.67630 0.81670 0.46470 0.04200
C 	C 	0.71663 0.10220 0.46915 0.02800
C 	C 	0.72507 0.30180 0.43738 -0.05700
H 	H 	0.70800 0.33830 0.39450 0.04800
C 	C 	0.74163 0.05180 0.53186 -0.06300
H 	H 	0.73610 0.91670 0.55410 0.05300
C 	C 	0.51290 0.22450 0.12837 0.30400
C 	C 	0.50669 0.10500 0.06213 -0.05400
C 	C 	0.48770 0.89160 0.05342 -0.02200
H 	H 	0.47940 0.81690 0.09000 0.06200
C 	C 	0.51912 0.21260 0.00852 -0.02400
H 	H 	0.53240 0.35840 0.01450 0.05600
O 	O 	0.00256 0.61160 0.17641 -0.46200
O 	O 	0.02610 0.92230 0.13404 -0.33200
N 	N 	0.05200 0.01960 0.29070 -0.26800
C 	C 	0.07929 0.95990 0.34823 0.07700
H 	H 	0.07450 0.82030 0.36880 -0.01200
C 	C 	0.11384 0.09380 0.37825 -0.15800
H 	H 	0.13250 0.04550 0.41870 0.08500
C 	C 	0.12161 0.30030 0.34952 0.11800
C 	C 	0.09349 0.35870 0.28971 -0.16100
H 	H 	0.09780 0.49640 0.26770 0.07700
C 	C 	0.05945 0.21670 0.26242 0.08400
H 	H 	0.04040 0.26050 0.22180 -0.00100
C 	C 	0.15707 0.45740 0.37818 -0.11200
H 	H 	0.16270 0.57970 0.35090 0.06700
C 	C 	0.18149 0.44220 0.43823 -0.03500
H 	H 	0.17630 0.31670 0.46470 0.04300
C 	C 	0.21663 0.60220 0.46915 0.02700
C 	C 	0.22507 0.80180 0.43738 -0.05600
H 	H 	0.20800 0.83830 0.39450 0.04700
C 	C 	0.24163 0.55180 0.53186 -0.06000
H 	H 	0.23610 0.41670 0.55410 0.05100
C 	C 	0.01290 0.72450 0.12837 0.32800
C 	C 	0.00669 0.60500 0.06213 -0.13400
C 	C 	0.98770 0.39160 0.05342 0.07200
H 	H 	0.97940 0.31690 0.09000 0.04100
C 	C 	0.01912 0.71260 0.00852 0.04200
H 	H 	0.03240 0.85840 0.01450 0.02900
O 	O 	0.50256 0.88840 0.67641 -0.44300
O 	O 	0.52610 0.57770 0.63404 -0.31800
N 	N 	0.55200 0.48040 0.79070 -0.26900
C 	C 	0.57929 0.54010 0.84823 0.09000
H 	H 	0.57450 0.67970 0.86880 -0.01100
C 	C 	0.61384 0.40620 0.87825 -0.16700
H 	H 	0.63250 0.45450 0.91870 0.08800
C 	C 	0.62161 0.19970 0.84952 0.12300
C 	C 	0.59349 0.14130 0.78971 -0.16300
H 	H 	0.59780 0.00360 0.76770 0.07800
C 	C 	0.55945 0.28330 0.76242 0.08800
H 	H 	0.54040 0.23950 0.72180 0.00200
C 	C 	0.65707 0.04260 0.87818 -0.11400
H 	H 	0.66270 0.92030 0.85090 0.06800
C 	C 	0.68149 0.05780 0.93823 -0.03500
H 	H 	0.67630 0.18330 0.96470 0.04300
C 	C 	0.71663 0.89780 0.96915 0.03200
C 	C 	0.72507 0.69820 0.93738 -0.06100
H 	H 	0.70800 0.66170 0.89450 0.05000
C 	C 	0.74163 0.94820 0.03186 -0.06700
H 	H 	0.73610 0.08330 0.05410 0.05400
C 	C 	0.51290 0.77550 0.62837 0.30500
C 	C 	0.50669 0.89500 0.56213 -0.05600
C 	C 	0.48770 0.10840 0.55342 -0.01900
H 	H 	0.47940 0.18310 0.59000 0.06100
C 	C 	0.51912 0.78740 0.50852 -0.02200
H 	H 	0.53240 0.64160 0.51450 0.05500
O 	O 	0.00256 0.38840 0.67641 -0.46200
O 	O 	0.02610 0.07770 0.63404 -0.33300
N 	N 	0.05200 0.98040 0.79070 -0.26800
C 	C 	0.07929 0.04010 0.84823 0.07700
H 	H 	0.07450 0.17970 0.86880 -0.01200
C 	C 	0.11384 0.90620 0.87825 -0.15700
H 	H 	0.13250 0.95450 0.91870 0.08500
C 	C 	0.12161 0.69970 0.84952 0.11800
C 	C 	0.09349 0.64130 0.78971 -0.16100
H 	H 	0.09780 0.50360 0.76770 0.07700
C 	C 	0.05945 0.78330 0.76242 0.08400
H 	H 	0.04040 0.73950 0.72180 -0.00100
C 	C 	0.15707 0.54260 0.87818 -0.11100
H 	H 	0.16270 0.42030 0.85090 0.06600
C 	C 	0.18149 0.55780 0.93823 -0.03600
H 	H 	0.17630 0.68330 0.96470 0.04300
C 	C 	0.21663 0.39780 0.96915 0.02900
C 	C 	0.22507 0.19820 0.93738 -0.05700
H 	H 	0.20800 0.16170 0.89450 0.04800
C 	C 	0.24163 0.44820 0.03186 -0.06200
H 	H 	0.23610 0.58330 0.05410 0.05100
C 	C 	0.01290 0.27550 0.62837 0.32900
C 	C 	0.00669 0.39500 0.56213 -0.13600
C 	C 	0.98770 0.60840 0.55342 0.07500
H 	H 	0.97940 0.68310 0.59000 0.04000
C 	C 	0.01912 0.28740 0.50852 0.04400
H 	H 	0.03240 0.14160 0.51450 0.02900
O 	O 	0.49744 0.88840 0.82359 -0.44300
O 	O 	0.47390 0.57770 0.86596 -0.31800
N 	N 	0.44800 0.48040 0.70930 -0.26900
C 	C 	0.42071 0.54010 0.65177 0.09000
H 	H 	0.42550 0.67970 0.63120 -0.01100
C 	C 	0.38616 0.40620 0.62175 -0.16700
H 	H 	0.36750 0.45450 0.58130 0.08800
C 	C 	0.37839 0.19970 0.65048 0.12300
C 	C 	0.40651 0.14130 0.71029 -0.16300
H 	H 	0.40220 0.00360 0.73230 0.07800
C 	C 	0.44055 0.28330 0.73758 0.08800
H 	H 	0.45960 0.23950 0.77820 0.00200
C 	C 	0.34293 0.04260 0.62182 -0.11500
H 	H 	0.33730 0.92030 0.64910 0.06800
C 	C 	0.31851 0.05780 0.56177 -0.03300
H 	H 	0.32370 0.18330 0.53530 0.04200
C 	C 	0.28337 0.89780 0.53085 0.02800
C 	C 	0.27493 0.69820 0.56262 -0.05800
H 	H 	0.29200 0.66170 0.60550 0.04900
C 	C 	0.25837 0.94820 0.46814 -0.06300
H 	H 	0.26390 0.08330 0.44590 0.05300
C 	C 	0.48710 0.77550 0.87163 0.30600
C 	C 	0.49331 0.89500 0.93787 -0.05800
C 	C 	0.51230 0.10840 0.94658 -0.01600
H 	H 	0.52060 0.18310 0.91000 0.06000
C 	C 	0.48088 0.78740 0.99148 -0.01800
H 	H 	0.46760 0.64160 0.98550 0.05500
O 	O 	0.99744 0.38840 0.82359 -0.42100
O 	O 	0.97390 0.07770 0.86596 -0.30400
N 	N 	0.94800 0.98040 0.70930 -0.25800
C 	C 	0.92071 0.04010 0.65177 0.08100
H 	H 	0.92550 0.17970 0.63120 -0.00300
C 	C 	0.88616 0.90620 0.62175 -0.15600
H 	H 	0.86750 0.95450 0.58130 0.08600
C 	C 	0.87839 0.69970 0.65048 0.11900
C 	C 	0.90651 0.64130 0.71029 -0.15800
H 	H 	0.90220 0.50360 0.73230 0.07800
C 	C 	0.94055 0.78330 0.73758 0.08800
H 	H 	0.95960 0.73950 0.77820 0.00700
C 	C 	0.84293 0.54260 0.62182 -0.11100
H 	H 	0.83730 0.42030 0.64910 0.06600
C 	C 	0.81851 0.55780 0.56177 -0.03500
H 	H 	0.82370 0.68330 0.53530 0.04300
C 	C 	0.78337 0.39780 0.53085 0.02700
C 	C 	0.77493 0.19820 0.56262 -0.05600
H 	H 	0.79200 0.16170 0.60550 0.04800
C 	C 	0.75837 0.44820 0.46814 -0.06000
H 	H 	0.76390 0.58330 0.44590 0.05100
C 	C 	0.98710 0.27550 0.87163 0.28100
C 	C 	0.99331 0.39500 0.93787 0.02100
C 	C 	0.01230 0.60840 0.94658 -0.11000
H 	H 	0.02060 0.68310 0.91000 0.08200
C 	C 	0.98088 0.28740 0.99148 -0.08400
H 	H 	0.96760 0.14160 0.98550 0.08200
Zn	Zn	0.50000 0.32114 0.25000 1.20900
Zn	Zn	0.00000 0.82114 0.25000 1.20000
Zn	Zn	0.50000 0.67886 0.75000 1.20900
Zn	Zn	0.00000 0.17886 0.75000 1.20000
