data_crystal

_cell_length_a 30.65100
_cell_length_b 25.16630
_cell_length_c 12.68240
_cell_angle_alpha 90.00000
_cell_angle_beta  112.73900
_cell_angle_gamma 90.00000

_symmetry_space_group_name_	'P 1'
_symmetry_space_group_name_H-M	'P 1'

loop_
_symmetry_equiv_pos_as_xyz
  x,y,z

loop_
_atom_site_label
_atom_site_type_symbol
_atom_site_fract_x
_atom_site_fract_y
_atom_site_fract_z
_atom_site_charge
Ni	Ni	0.06315 0.25456 0.06267 1.11600
O 	O 	0.24169 0.44197 0.15654 -0.43300
O 	O 	0.24036 0.44020 0.33117 -0.43200
O 	O 	0.03920 0.30792 0.93212 -0.42900
O 	O 	0.96146 0.29767 0.83592 -0.41500
N 	N 	0.12407 0.30097 0.12473 -0.21100
C 	C 	0.00062 0.31805 0.85370 0.40400
C 	C 	0.22831 0.42465 0.23120 0.38700
C 	C 	0.19288 0.37981 0.19460 -0.04500
C 	C 	0.17678 0.35937 0.08520 -0.06300
H 	H 	0.18920 0.37210 0.03200 0.07300
C 	C 	0.14290 0.32078 0.05400 0.07600
H 	H 	0.13210 0.30730 0.97820 0.00400
C 	C 	0.14096 0.31870 0.23130 0.04900
H 	H 	0.12900 0.30390 0.28370 0.02700
C 	C 	0.17517 0.35768 0.26970 -0.05300
H 	H 	0.18640 0.36920 0.34700 0.06500
O 	O 	0.46734 0.65700 0.11790 -0.21000
O 	O 	0.40530 0.70780 0.01980 0.04100
C 	C 	0.42540 0.66890 0.07910 0.31900
C 	C 	0.39300 0.63190 0.10380 -0.08900
C 	C 	0.34370 0.63970 0.05800 0.04000
C 	C 	0.31600 0.60050 0.07610 0.04300
N 	N 	0.32690 0.56280 0.13900 -0.29200
C 	C 	0.37990 0.55180 0.18930 -0.05500
C 	C 	0.41150 0.58700 0.17500 0.06600
N 	N 	0.00192 0.44054 0.61823 -0.21700
C 	C 	0.00095 0.36097 0.77050 -0.12100
C 	C 	0.03740 0.39700 0.79950 0.02600
C 	C 	0.03670 0.43680 0.72170 0.01300
O 	O 	0.36847 0.41962 0.45390 -0.19000
O 	O 	0.31610 0.44010 0.53420 0.06200
C 	C 	0.34916 0.41400 0.52450 0.27800
C 	C 	0.36910 0.37080 0.61640 -0.07500
C 	C 	0.41220 0.34700 0.63560 0.03300
C 	C 	0.43026 0.31030 0.72290 0.05900
N 	N 	0.40940 0.29210 0.79290 -0.37700
C 	C 	0.36580 0.32090 0.77250 -0.04300
C 	C 	0.34080 0.36440 0.65250 0.01000
C 	C 	0.96650 0.40420 0.59010 0.00500
C 	C 	0.96450 0.36480 0.66400 0.03700
O 	O 	0.37410 0.58408 0.31540 -0.17600
O 	O 	0.33350 0.55410 0.13900 0.03000
C 	C 	0.35850 0.58880 0.20890 0.24900
C 	C 	0.37620 0.63330 0.15430 -0.03800
C 	C 	0.42000 0.65750 0.21180 0.04400
C 	C 	0.43490 0.69370 0.15020 -0.01700
N 	N 	0.41270 0.70900 0.04400 -0.30600
C 	C 	0.36640 0.68540 0.99040 -0.02900
C 	C 	0.34830 0.64730 0.04100 -0.01100
O 	O 	0.46500 0.34950 0.82490 -0.17500
O 	O 	0.40540 0.30130 0.80970 0.14900
C 	C 	0.42380 0.33720 0.78640 0.16800
C 	C 	0.38930 0.37430 0.69930 -0.01500
C 	C 	0.40520 0.42020 0.66630 0.02300
C 	C 	0.37288 0.45470 0.59110 0.03500
N 	N 	0.32700 0.44590 0.54000 -0.33100
C 	C 	0.31090 0.39960 0.57430 -0.02400
C 	C 	0.34580 0.35640 0.68640 0.03000
C 	C 	0.03780 0.40900 0.66600 0.03600
C 	C 	0.03990 0.37110 0.74550 0.01300
C 	C 	0.96550 0.43290 0.64690 0.03400
C 	C 	0.96390 0.39310 0.72080 0.00900
Ni	Ni	0.56315 0.75456 0.06267 1.11800
O 	O 	0.74169 0.94197 0.15654 -0.40600
O 	O 	0.74036 0.94020 0.33117 -0.40200
O 	O 	0.53920 0.80792 0.93212 -0.42800
O 	O 	0.46146 0.79767 0.83592 -0.41700
N 	N 	0.62407 0.80097 0.12473 -0.21200
C 	C 	0.50062 0.81805 0.85370 0.41100
C 	C 	0.72831 0.92465 0.23120 0.38100
C 	C 	0.69288 0.87981 0.19460 -0.03300
C 	C 	0.67678 0.85937 0.08520 -0.06800
H 	H 	0.68920 0.87210 0.03200 0.08000
C 	C 	0.64290 0.82078 0.05400 0.08200
H 	H 	0.63210 0.80730 0.97820 0.00400
C 	C 	0.64096 0.81870 0.23130 0.05500
H 	H 	0.62900 0.80390 0.28370 0.02700
C 	C 	0.67517 0.85768 0.26970 -0.05700
H 	H 	0.68640 0.86920 0.34700 0.07400
O 	O 	0.96734 0.15700 0.11790 -0.21000
O 	O 	0.90530 0.20780 0.01980 0.04100
C 	C 	0.92540 0.16890 0.07910 0.31700
C 	C 	0.89300 0.13190 0.10380 -0.08800
C 	C 	0.84370 0.13970 0.05800 0.03900
C 	C 	0.81600 0.10050 0.07610 0.03900
N 	N 	0.82690 0.06280 0.13900 -0.29700
C 	C 	0.87990 0.05180 0.18930 -0.08100
C 	C 	0.91150 0.08700 0.17500 0.06300
N 	N 	0.50192 0.94054 0.61823 -0.20600
C 	C 	0.50095 0.86097 0.77050 -0.11700
C 	C 	0.53740 0.89700 0.79950 0.03100
C 	C 	0.53670 0.93680 0.72170 0.03900
O 	O 	0.86847 0.91962 0.45390 -0.17400
O 	O 	0.81610 0.94010 0.53420 0.06100
C 	C 	0.84916 0.91400 0.52450 0.25900
C 	C 	0.86910 0.87080 0.61640 -0.07600
C 	C 	0.91220 0.84700 0.63560 0.03500
C 	C 	0.93026 0.81030 0.72290 0.05900
N 	N 	0.90940 0.79210 0.79290 -0.37700
C 	C 	0.86580 0.82090 0.77250 -0.03800
C 	C 	0.84080 0.86440 0.65250 0.01400
C 	C 	0.46650 0.90420 0.59010 0.00300
C 	C 	0.46450 0.86480 0.66400 0.03700
O 	O 	0.87410 0.08408 0.31540 -0.18300
O 	O 	0.83350 0.05410 0.13900 0.03000
C 	C 	0.85850 0.08880 0.20890 0.26400
C 	C 	0.87620 0.13330 0.15430 -0.04200
C 	C 	0.92000 0.15750 0.21180 0.04200
C 	C 	0.93490 0.19370 0.15020 -0.01600
N 	N 	0.91270 0.20900 0.04400 -0.30500
C 	C 	0.86640 0.18540 0.99040 -0.03100
C 	C 	0.84830 0.14730 0.04100 -0.01000
O 	O 	0.96500 0.84950 0.82490 -0.16900
O 	O 	0.90540 0.80130 0.80970 0.15000
C 	C 	0.92380 0.83720 0.78640 0.16700
C 	C 	0.88930 0.87430 0.69930 -0.01100
C 	C 	0.90520 0.92020 0.66630 0.02900
C 	C 	0.87288 0.95470 0.59110 0.06900
N 	N 	0.82700 0.94590 0.54000 -0.31600
C 	C 	0.81090 0.89960 0.57430 -0.00800
C 	C 	0.84580 0.85640 0.68640 0.02800
C 	C 	0.53780 0.90900 0.66600 0.03600
C 	C 	0.53990 0.87110 0.74550 0.01300
C 	C 	0.46550 0.93290 0.64690 0.05800
C 	C 	0.46390 0.89310 0.72080 0.01100
Ni	Ni	0.93685 0.25456 0.93733 1.10900
O 	O 	0.75831 0.44197 0.84346 -0.43800
O 	O 	0.75964 0.44020 0.66883 -0.43400
O 	O 	0.96080 0.30792 0.06788 -0.41700
O 	O 	0.03854 0.29767 0.16408 -0.41700
N 	N 	0.87593 0.30097 0.87527 -0.20100
C 	C 	0.99938 0.31805 0.14630 0.41300
C 	C 	0.77169 0.42465 0.76880 0.39400
C 	C 	0.80712 0.37981 0.80540 -0.06500
C 	C 	0.82322 0.35937 0.91480 -0.02700
H 	H 	0.81080 0.37210 0.96800 0.05200
C 	C 	0.85710 0.32078 0.94600 0.00900
H 	H 	0.86790 0.30730 0.02180 0.04600
C 	C 	0.85904 0.31870 0.76870 0.03900
H 	H 	0.87100 0.30390 0.71630 0.03000
C 	C 	0.82483 0.35768 0.73030 -0.04000
H 	H 	0.81360 0.36920 0.65300 0.06100
O 	O 	0.53266 0.65700 0.88210 -0.21500
O 	O 	0.59470 0.70780 0.98020 0.05700
C 	C 	0.57460 0.66890 0.92090 0.31300
C 	C 	0.60700 0.63190 0.89620 -0.10700
C 	C 	0.65630 0.63970 0.94200 0.01200
C 	C 	0.68400 0.60050 0.92390 0.04300
N 	N 	0.67310 0.56280 0.86100 -0.29300
C 	C 	0.62010 0.55180 0.81070 -0.05500
C 	C 	0.58850 0.58700 0.82500 0.06500
N 	N 	0.99808 0.44054 0.38177 -0.21200
C 	C 	0.99905 0.36097 0.22950 -0.11200
C 	C 	0.96260 0.39700 0.20050 0.03600
C 	C 	0.96330 0.43680 0.27830 0.01500
O 	O 	0.63153 0.41962 0.54610 -0.19100
O 	O 	0.68390 0.44010 0.46580 0.06200
C 	C 	0.65084 0.41400 0.47550 0.27800
C 	C 	0.63090 0.37080 0.38360 -0.07700
C 	C 	0.58780 0.34700 0.36440 0.03300
C 	C 	0.56974 0.31030 0.27710 0.05700
N 	N 	0.59060 0.29210 0.20710 -0.37500
C 	C 	0.63420 0.32090 0.22750 -0.04000
C 	C 	0.65920 0.36440 0.34750 0.01000
C 	C 	0.03350 0.40420 0.40990 0.00100
C 	C 	0.03550 0.36480 0.33600 0.03200
O 	O 	0.62590 0.58408 0.68460 -0.17400
O 	O 	0.66650 0.55410 0.86100 0.03100
C 	C 	0.64150 0.58880 0.79110 0.24100
C 	C 	0.62380 0.63330 0.84570 -0.01300
C 	C 	0.58000 0.65750 0.78820 0.03500
C 	C 	0.56510 0.69370 0.84980 -0.00600
N 	N 	0.58730 0.70900 0.95600 -0.34200
C 	C 	0.63360 0.68540 0.00960 0.01100
C 	C 	0.65170 0.64730 0.95900 -0.01100
O 	O 	0.53500 0.34950 0.17510 -0.17100
O 	O 	0.59460 0.30130 0.19030 0.14800
C 	C 	0.57620 0.33720 0.21360 0.17000
C 	C 	0.61070 0.37430 0.30070 -0.01300
C 	C 	0.59480 0.42020 0.33370 0.02600
C 	C 	0.62712 0.45470 0.40890 0.03600
N 	N 	0.67300 0.44590 0.46000 -0.33100
C 	C 	0.68910 0.39960 0.42570 -0.02200
C 	C 	0.65420 0.35640 0.31360 0.03100
C 	C 	0.96220 0.40900 0.33400 0.04000
C 	C 	0.96010 0.37110 0.25450 0.00800
C 	C 	0.03450 0.43290 0.35310 0.03100
C 	C 	0.03610 0.39310 0.27920 0.00700
Ni	Ni	0.43685 0.75456 0.93733 1.10800
O 	O 	0.25831 0.94197 0.84346 -0.41100
O 	O 	0.25964 0.94020 0.66883 -0.40400
O 	O 	0.46080 0.80792 0.06788 -0.41500
O 	O 	0.53854 0.79767 0.16408 -0.41200
N 	N 	0.37593 0.80097 0.87527 -0.20200
C 	C 	0.49938 0.81805 0.14630 0.41100
C 	C 	0.27169 0.92465 0.76880 0.38800
C 	C 	0.30712 0.87981 0.80540 -0.05300
C 	C 	0.32322 0.85937 0.91480 -0.03100
H 	H 	0.31080 0.87210 0.96800 0.06000
C 	C 	0.35710 0.82078 0.94600 0.01500
H 	H 	0.36790 0.80730 0.02180 0.04600
C 	C 	0.35904 0.81870 0.76870 0.04500
H 	H 	0.37100 0.80390 0.71630 0.03000
C 	C 	0.32483 0.85768 0.73030 -0.04400
H 	H 	0.31360 0.86920 0.65300 0.07000
O 	O 	0.03266 0.15700 0.88210 -0.21900
O 	O 	0.09470 0.20780 0.98020 0.05700
C 	C 	0.07460 0.16890 0.92090 0.31300
C 	C 	0.10700 0.13190 0.89620 -0.10700
C 	C 	0.15630 0.13970 0.94200 0.01100
C 	C 	0.18400 0.10050 0.92390 0.03800
N 	N 	0.17310 0.06280 0.86100 -0.29800
C 	C 	0.12010 0.05180 0.81070 -0.08200
C 	C 	0.08850 0.08700 0.82500 0.05900
N 	N 	0.49808 0.94054 0.38177 -0.20600
C 	C 	0.49905 0.86097 0.22950 -0.11600
C 	C 	0.46260 0.89700 0.20050 0.04000
C 	C 	0.46330 0.93680 0.27830 0.04000
O 	O 	0.13153 0.91962 0.54610 -0.17500
O 	O 	0.18390 0.94010 0.46580 0.06200
C 	C 	0.15084 0.91400 0.47550 0.25800
C 	C 	0.13090 0.87080 0.38360 -0.07800
C 	C 	0.08780 0.84700 0.36440 0.03400
C 	C 	0.06974 0.81030 0.27710 0.05600
N 	N 	0.09060 0.79210 0.20710 -0.37600
C 	C 	0.13420 0.82090 0.22750 -0.03600
C 	C 	0.15920 0.86440 0.34750 0.01400
C 	C 	0.53350 0.90420 0.40990 0.00300
C 	C 	0.53550 0.86480 0.33600 0.03600
O 	O 	0.12590 0.08408 0.68460 -0.18200
O 	O 	0.16650 0.05410 0.86100 0.03100
C 	C 	0.14150 0.08880 0.79110 0.25700
C 	C 	0.12380 0.13330 0.84570 -0.01500
C 	C 	0.08000 0.15750 0.78820 0.03200
C 	C 	0.06510 0.19370 0.84980 -0.00700
N 	N 	0.08730 0.20900 0.95600 -0.34100
C 	C 	0.13360 0.18540 0.00960 0.00900
C 	C 	0.15170 0.14730 0.95900 -0.01000
O 	O 	0.03500 0.84950 0.17510 -0.16900
O 	O 	0.09460 0.80130 0.19030 0.14900
C 	C 	0.07620 0.83720 0.21360 0.17200
C 	C 	0.11070 0.87430 0.30070 -0.01000
C 	C 	0.09480 0.92020 0.33370 0.03000
C 	C 	0.12712 0.95470 0.40890 0.06900
N 	N 	0.17300 0.94590 0.46000 -0.31600
C 	C 	0.18910 0.89960 0.42570 -0.00600
C 	C 	0.15420 0.85640 0.31360 0.02800
C 	C 	0.46220 0.90900 0.33400 0.03800
C 	C 	0.46010 0.87110 0.25450 0.01000
C 	C 	0.53450 0.93290 0.35310 0.05900
C 	C 	0.53610 0.89310 0.27920 0.01400
Ni	Ni	0.93685 0.74544 0.93733 1.10900
O 	O 	0.75831 0.55803 0.84346 -0.43800
O 	O 	0.75964 0.55980 0.66883 -0.43400
O 	O 	0.96080 0.69208 0.06788 -0.41700
O 	O 	0.03854 0.70233 0.16408 -0.41700
N 	N 	0.87593 0.69903 0.87527 -0.20100
C 	C 	0.99938 0.68195 0.14630 0.41300
C 	C 	0.77169 0.57535 0.76880 0.39400
C 	C 	0.80712 0.62019 0.80540 -0.06500
C 	C 	0.82322 0.64063 0.91480 -0.02700
H 	H 	0.81080 0.62790 0.96800 0.05300
C 	C 	0.85710 0.67922 0.94600 0.00900
H 	H 	0.86790 0.69270 0.02180 0.04600
C 	C 	0.85904 0.68130 0.76870 0.04000
H 	H 	0.87100 0.69610 0.71630 0.03000
C 	C 	0.82483 0.64232 0.73030 -0.04000
H 	H 	0.81360 0.63080 0.65300 0.06100
O 	O 	0.53266 0.34300 0.88210 -0.21500
O 	O 	0.59470 0.29220 0.98020 0.05700
C 	C 	0.57460 0.33110 0.92090 0.31300
C 	C 	0.60700 0.36810 0.89620 -0.10600
C 	C 	0.65630 0.36030 0.94200 0.01100
C 	C 	0.68400 0.39950 0.92390 0.04300
N 	N 	0.67310 0.43720 0.86100 -0.29300
C 	C 	0.62010 0.44820 0.81070 -0.05500
C 	C 	0.58850 0.41300 0.82500 0.06500
N 	N 	0.99808 0.55946 0.38177 -0.21200
C 	C 	0.99905 0.63903 0.22950 -0.11200
C 	C 	0.96260 0.60300 0.20050 0.03600
C 	C 	0.96330 0.56320 0.27830 0.01500
O 	O 	0.63153 0.58038 0.54610 -0.19000
O 	O 	0.68390 0.55990 0.46580 0.06200
C 	C 	0.65084 0.58600 0.47550 0.27800
C 	C 	0.63090 0.62920 0.38360 -0.07600
C 	C 	0.58780 0.65300 0.36440 0.03300
C 	C 	0.56974 0.68970 0.27710 0.05800
N 	N 	0.59060 0.70790 0.20710 -0.37500
C 	C 	0.63420 0.67910 0.22750 -0.03900
C 	C 	0.65920 0.63560 0.34750 0.01000
C 	C 	0.03350 0.59580 0.40990 0.00100
C 	C 	0.03550 0.63520 0.33600 0.03200
O 	O 	0.62590 0.41592 0.68460 -0.17400
O 	O 	0.66650 0.44590 0.86100 0.03100
C 	C 	0.64150 0.41120 0.79110 0.24100
C 	C 	0.62380 0.36670 0.84570 -0.01300
C 	C 	0.58000 0.34250 0.78820 0.03400
C 	C 	0.56510 0.30630 0.84980 -0.00700
N 	N 	0.58730 0.29100 0.95600 -0.34200
C 	C 	0.63360 0.31460 0.00960 0.01100
C 	C 	0.65170 0.35270 0.95900 -0.01100
O 	O 	0.53500 0.65050 0.17510 -0.17100
O 	O 	0.59460 0.69870 0.19030 0.14800
C 	C 	0.57620 0.66280 0.21360 0.17000
C 	C 	0.61070 0.62570 0.30070 -0.01400
C 	C 	0.59480 0.57980 0.33370 0.02600
C 	C 	0.62712 0.54530 0.40890 0.03600
N 	N 	0.67300 0.55410 0.46000 -0.33200
C 	C 	0.68910 0.60040 0.42570 -0.02200
C 	C 	0.65420 0.64360 0.31360 0.03100
C 	C 	0.96220 0.59100 0.33400 0.04000
C 	C 	0.96010 0.62890 0.25450 0.00900
C 	C 	0.03450 0.56710 0.35310 0.03100
C 	C 	0.03610 0.60690 0.27920 0.00700
Ni	Ni	0.43685 0.24544 0.93733 1.10800
O 	O 	0.25831 0.05803 0.84346 -0.44600
O 	O 	0.25964 0.05980 0.66883 -0.43800
O 	O 	0.46080 0.19208 0.06788 -0.41800
O 	O 	0.53854 0.20233 0.16408 -0.41400
N 	N 	0.37593 0.19903 0.87527 -0.20100
C 	C 	0.49938 0.18195 0.14630 0.40800
C 	C 	0.27169 0.07535 0.76880 0.39300
C 	C 	0.30712 0.12019 0.80540 -0.06800
C 	C 	0.32322 0.14063 0.91480 -0.02700
H 	H 	0.31080 0.12790 0.96800 0.05100
C 	C 	0.35710 0.17922 0.94600 0.00800
H 	H 	0.36790 0.19270 0.02180 0.04500
C 	C 	0.35904 0.18130 0.76870 0.03800
H 	H 	0.37100 0.19610 0.71630 0.03000
C 	C 	0.32483 0.14232 0.73030 -0.04000
H 	H 	0.31360 0.13080 0.65300 0.06100
O 	O 	0.03266 0.84300 0.88210 -0.21400
O 	O 	0.09470 0.79220 0.98020 0.05700
C 	C 	0.07460 0.83110 0.92090 0.31700
C 	C 	0.10700 0.86810 0.89620 -0.10600
C 	C 	0.15630 0.86030 0.94200 0.01400
C 	C 	0.18400 0.89950 0.92390 0.05300
N 	N 	0.17310 0.93720 0.86100 -0.28100
C 	C 	0.12010 0.94820 0.81070 -0.02200
C 	C 	0.08850 0.91300 0.82500 0.06700
N 	N 	0.49808 0.05946 0.38177 -0.21700
C 	C 	0.49905 0.13903 0.22950 -0.11600
C 	C 	0.46260 0.10300 0.20050 0.03400
C 	C 	0.46330 0.06320 0.27830 -0.00400
O 	O 	0.13153 0.08038 0.54610 -0.19800
O 	O 	0.18390 0.05990 0.46580 0.06200
C 	C 	0.15084 0.08600 0.47550 0.29000
C 	C 	0.13090 0.12920 0.38360 -0.07700
C 	C 	0.08780 0.15300 0.36440 0.03000
C 	C 	0.06974 0.18970 0.27710 0.05700
N 	N 	0.09060 0.20790 0.20710 -0.37500
C 	C 	0.13420 0.17910 0.22750 -0.04100
C 	C 	0.15920 0.13560 0.34750 0.00900
C 	C 	0.53350 0.09580 0.40990 0.00700
C 	C 	0.53550 0.13520 0.33600 0.03400
O 	O 	0.12590 0.91592 0.68460 -0.16000
O 	O 	0.16650 0.94590 0.86100 0.03300
C 	C 	0.14150 0.91120 0.79110 0.22200
C 	C 	0.12380 0.86670 0.84570 -0.01100
C 	C 	0.08000 0.84250 0.78820 0.03500
C 	C 	0.06510 0.80630 0.84980 -0.00900
N 	N 	0.08730 0.79100 0.95600 -0.34200
C 	C 	0.13360 0.81460 0.00960 0.01400
C 	C 	0.15170 0.85270 0.95900 -0.01200
O 	O 	0.03500 0.15050 0.17510 -0.17700
O 	O 	0.09460 0.19870 0.19030 0.14900
C 	C 	0.07620 0.16280 0.21360 0.17000
C 	C 	0.11070 0.12570 0.30070 -0.01400
C 	C 	0.09480 0.07980 0.33370 0.01900
C 	C 	0.12712 0.04530 0.40890 0.01000
N 	N 	0.17300 0.05410 0.46000 -0.33500
C 	C 	0.18910 0.10040 0.42570 -0.02600
C 	C 	0.15420 0.14360 0.31360 0.03200
C 	C 	0.46220 0.09100 0.33400 0.04700
C 	C 	0.46010 0.12890 0.25450 0.00700
C 	C 	0.53450 0.06710 0.35310 0.02200
C 	C 	0.53610 0.10690 0.27920 0.00800
Ni	Ni	0.06315 0.74544 0.06267 1.11700
O 	O 	0.24169 0.55803 0.15654 -0.43200
O 	O 	0.24036 0.55980 0.33117 -0.43200
O 	O 	0.03920 0.69208 0.93212 -0.42900
O 	O 	0.96146 0.70233 0.83592 -0.41500
N 	N 	0.12407 0.69903 0.12473 -0.21100
C 	C 	0.00062 0.68195 0.85370 0.40400
C 	C 	0.22831 0.57535 0.23120 0.38700
C 	C 	0.19288 0.62019 0.19460 -0.04500
C 	C 	0.17678 0.64063 0.08520 -0.06300
H 	H 	0.18920 0.62790 0.03200 0.07300
C 	C 	0.14290 0.67922 0.05400 0.07600
H 	H 	0.13210 0.69270 0.97820 0.00400
C 	C 	0.14096 0.68130 0.23130 0.04900
H 	H 	0.12900 0.69610 0.28370 0.02700
C 	C 	0.17517 0.64232 0.26970 -0.05300
H 	H 	0.18640 0.63080 0.34700 0.06600
O 	O 	0.46734 0.34300 0.11790 -0.21000
O 	O 	0.40530 0.29220 0.01980 0.04100
C 	C 	0.42540 0.33110 0.07910 0.32000
C 	C 	0.39300 0.36810 0.10380 -0.08900
C 	C 	0.34370 0.36030 0.05800 0.04000
C 	C 	0.31600 0.39950 0.07610 0.04300
N 	N 	0.32690 0.43720 0.13900 -0.29200
C 	C 	0.37990 0.44820 0.18930 -0.05500
C 	C 	0.41150 0.41300 0.17500 0.06600
N 	N 	0.00192 0.55946 0.61823 -0.21700
C 	C 	0.00095 0.63903 0.77050 -0.12100
C 	C 	0.03740 0.60300 0.79950 0.02600
C 	C 	0.03670 0.56320 0.72170 0.01300
O 	O 	0.36847 0.58038 0.45390 -0.19000
O 	O 	0.31610 0.55990 0.53420 0.06200
C 	C 	0.34916 0.58600 0.52450 0.27800
C 	C 	0.36910 0.62920 0.61640 -0.07400
C 	C 	0.41220 0.65300 0.63560 0.03300
C 	C 	0.43026 0.68970 0.72290 0.06000
N 	N 	0.40940 0.70790 0.79290 -0.37700
C 	C 	0.36580 0.67910 0.77250 -0.04200
C 	C 	0.34080 0.63560 0.65250 0.01000
C 	C 	0.96650 0.59580 0.59010 0.00500
C 	C 	0.96450 0.63520 0.66400 0.03800
O 	O 	0.37410 0.41592 0.31540 -0.17600
O 	O 	0.33350 0.44590 0.13900 0.03000
C 	C 	0.35850 0.41120 0.20890 0.24900
C 	C 	0.37620 0.36670 0.15430 -0.03800
C 	C 	0.42000 0.34250 0.21180 0.04300
C 	C 	0.43490 0.30630 0.15020 -0.01800
N 	N 	0.41270 0.29100 0.04400 -0.30600
C 	C 	0.36640 0.31460 0.99040 -0.02900
C 	C 	0.34830 0.35270 0.04100 -0.01100
O 	O 	0.46500 0.65050 0.82490 -0.17500
O 	O 	0.40540 0.69870 0.80970 0.14900
C 	C 	0.42380 0.66280 0.78640 0.16700
C 	C 	0.38930 0.62570 0.69930 -0.01500
C 	C 	0.40520 0.57980 0.66630 0.02300
C 	C 	0.37288 0.54530 0.59110 0.03500
N 	N 	0.32700 0.55410 0.54000 -0.33100
C 	C 	0.31090 0.60040 0.57430 -0.02400
C 	C 	0.34580 0.64360 0.68640 0.03000
C 	C 	0.03780 0.59100 0.66600 0.03600
C 	C 	0.03990 0.62890 0.74550 0.01300
C 	C 	0.96550 0.56710 0.64690 0.03400
C 	C 	0.96390 0.60690 0.72080 0.00900
Ni	Ni	0.56315 0.24544 0.06267 1.11800
O 	O 	0.74169 0.05803 0.15654 -0.44100
O 	O 	0.74036 0.05980 0.33117 -0.43600
O 	O 	0.53920 0.19208 0.93212 -0.43100
O 	O 	0.46146 0.20233 0.83592 -0.41900
N 	N 	0.62407 0.19903 0.12473 -0.21100
C 	C 	0.50062 0.18195 0.85370 0.40800
C 	C 	0.72831 0.07535 0.23120 0.38600
C 	C 	0.69288 0.12019 0.19460 -0.04800
C 	C 	0.67678 0.14063 0.08520 -0.06400
H 	H 	0.68920 0.12790 0.03200 0.07100
C 	C 	0.64290 0.17922 0.05400 0.07500
H 	H 	0.63210 0.19270 0.97820 0.00400
C 	C 	0.64096 0.18130 0.23130 0.04800
H 	H 	0.62900 0.19610 0.28370 0.02700
C 	C 	0.67517 0.14232 0.26970 -0.05300
H 	H 	0.68640 0.13080 0.34700 0.06500
O 	O 	0.96734 0.84300 0.11790 -0.20400
O 	O 	0.90530 0.79220 0.01980 0.04100
C 	C 	0.92540 0.83110 0.07910 0.32000
C 	C 	0.89300 0.86810 0.10380 -0.08700
C 	C 	0.84370 0.86030 0.05800 0.04200
C 	C 	0.81600 0.89950 0.07610 0.05400
N 	N 	0.82690 0.93720 0.13900 -0.28000
C 	C 	0.87990 0.94820 0.18930 -0.02100
C 	C 	0.91150 0.91300 0.17500 0.07100
N 	N 	0.50192 0.05946 0.61823 -0.21700
C 	C 	0.50095 0.13903 0.77050 -0.11700
C 	C 	0.53740 0.10300 0.79950 0.02500
C 	C 	0.53670 0.06320 0.72170 -0.00400
O 	O 	0.86847 0.08038 0.45390 -0.19700
O 	O 	0.81610 0.05990 0.53420 0.06100
C 	C 	0.84916 0.08600 0.52450 0.29000
C 	C 	0.86910 0.12920 0.61640 -0.07500
C 	C 	0.91220 0.15300 0.63560 0.03100
C 	C 	0.93026 0.18970 0.72290 0.06000
N 	N 	0.90940 0.20790 0.79290 -0.37600
C 	C 	0.86580 0.17910 0.77250 -0.04400
C 	C 	0.84080 0.13560 0.65250 0.00900
C 	C 	0.46650 0.09580 0.59010 0.00800
C 	C 	0.46450 0.13520 0.66400 0.03500
O 	O 	0.87410 0.91592 0.31540 -0.16100
O 	O 	0.83350 0.94590 0.13900 0.03200
C 	C 	0.85850 0.91120 0.20890 0.22900
C 	C 	0.87620 0.86670 0.15430 -0.03700
C 	C 	0.92000 0.84250 0.21180 0.04500
C 	C 	0.93490 0.80630 0.15020 -0.01800
N 	N 	0.91270 0.79100 0.04400 -0.30600
C 	C 	0.86640 0.81460 0.99040 -0.02700
C 	C 	0.84830 0.85270 0.04100 -0.01200
O 	O 	0.96500 0.15050 0.82490 -0.17600
O 	O 	0.90540 0.19870 0.80970 0.14900
C 	C 	0.92380 0.16280 0.78640 0.16600
C 	C 	0.88930 0.12570 0.69930 -0.01600
C 	C 	0.90520 0.07980 0.66630 0.01800
C 	C 	0.87288 0.04530 0.59110 0.00900
N 	N 	0.82700 0.05410 0.54000 -0.33500
C 	C 	0.81090 0.10040 0.57430 -0.02700
C 	C 	0.84580 0.14360 0.68640 0.03100
C 	C 	0.53780 0.09100 0.66600 0.04600
C 	C 	0.53990 0.12890 0.74550 0.01100
C 	C 	0.46550 0.06710 0.64690 0.02100
C 	C 	0.46390 0.10690 0.72080 0.00500
Ni	Ni	0.28687 0.50000 0.15615 1.10000
Ni	Ni	0.27989 0.50000 0.42880 1.11100
O 	O 	0.32407 0.50000 0.33474 -0.34200
O 	O 	0.07431 0.50000 0.55140 -0.41700
O 	O 	0.12597 0.50000 0.72550 -0.27600
N 	N 	0.22987 0.50000 0.50600 -0.21000
C 	C 	0.11444 0.50000 0.62090 0.37000
C 	C 	0.15582 0.50000 0.58120 -0.04700
C 	C 	0.14690 0.50000 0.46830 -0.05000
H 	H 	0.11520 0.50000 0.41390 0.05800
C 	C 	0.18408 0.50000 0.43200 0.03700
H 	H 	0.17720 0.50000 0.35230 0.02500
C 	C 	0.23820 0.50000 0.61190 0.05900
H 	H 	0.27010 0.50000 0.66530 0.00400
C 	C 	0.20140 0.50000 0.65250 -0.05900
H 	H 	0.20920 0.50000 0.73260 0.05700
Ni	Ni	0.78687 0.00000 0.15615 1.08100
Ni	Ni	0.77989 0.00000 0.42880 1.09600
O 	O 	0.82407 0.00000 0.33474 -0.36900
O 	O 	0.57431 -0.00000 0.55140 -0.43400
O 	O 	0.62597 0.00000 0.72550 -0.29300
N 	N 	0.72987 0.00000 0.50600 -0.21600
C 	C 	0.61444 0.00000 0.62090 0.37200
C 	C 	0.65582 0.00000 0.58120 -0.06000
C 	C 	0.64690 -0.00000 0.46830 -0.04900
H 	H 	0.61520 0.00000 0.41390 0.04700
C 	C 	0.68408 0.00000 0.43200 0.02700
H 	H 	0.67720 0.00000 0.35230 0.01500
C 	C 	0.73820 0.00000 0.61190 0.05000
H 	H 	0.77010 0.00000 0.66530 -0.00600
C 	C 	0.70140 0.00000 0.65250 -0.05800
H 	H 	0.70920 -0.00000 0.73260 0.04800
Ni	Ni	0.71313 0.50000 0.84385 1.09800
Ni	Ni	0.72011 0.50000 0.57120 1.11200
O 	O 	0.67593 0.50000 0.66526 -0.34200
O 	O 	0.92569 0.50000 0.44860 -0.41500
O 	O 	0.87403 0.50000 0.27450 -0.26900
N 	N 	0.77013 0.50000 0.49400 -0.21000
C 	C 	0.88556 0.50000 0.37910 0.36800
C 	C 	0.84418 0.50000 0.41880 -0.04400
C 	C 	0.85310 0.50000 0.53170 -0.05200
H 	H 	0.88480 0.50000 0.58610 0.05900
C 	C 	0.81592 0.50000 0.56800 0.03900
H 	H 	0.82280 0.50000 0.64770 0.02400
C 	C 	0.76180 0.50000 0.38810 0.06100
H 	H 	0.72990 0.50000 0.33470 0.00600
C 	C 	0.79860 0.50000 0.34750 -0.06000
H 	H 	0.79080 0.50000 0.26740 0.06300
Ni	Ni	0.21313 -0.00000 0.84385 1.08000
Ni	Ni	0.22011 0.00000 0.57120 1.09600
O 	O 	0.17593 0.00000 0.66526 -0.36900
O 	O 	0.42569 0.00000 0.44860 -0.43300
O 	O 	0.37403 0.00000 0.27450 -0.28700
N 	N 	0.27013 -0.00000 0.49400 -0.21600
C 	C 	0.38556 0.00000 0.37910 0.37000
C 	C 	0.34418 0.00000 0.41880 -0.05600
C 	C 	0.35310 -0.00000 0.53170 -0.05100
H 	H 	0.38480 0.00000 0.58610 0.04700
C 	C 	0.31592 0.00000 0.56800 0.02900
H 	H 	0.32280 -0.00000 0.64770 0.01400
C 	C 	0.26180 -0.00000 0.38810 0.05200
H 	H 	0.22990 0.00000 0.33470 -0.00400
C 	C 	0.29860 -0.00000 0.34750 -0.06000
H 	H 	0.29080 -0.00000 0.26740 0.05400
Ni	Ni	0.00000 0.50000 0.50000 1.09200
Ni	Ni	0.50000 0.00000 0.50000 1.07900
O 	O 	-0.00000 0.21114 -0.00000 -0.34300
O 	O 	0.50000 0.71114 -0.00000 -0.34000
O 	O 	-0.00000 0.78886 -0.00000 -0.34200
O 	O 	0.50000 0.28886 -0.00000 -0.33900
