data_crystal

_cell_length_a 14.23400
_cell_length_b 14.23400
_cell_length_c 63.76000
_cell_angle_alpha 90.00000
_cell_angle_beta  90.00000
_cell_angle_gamma 90.00000

_symmetry_space_group_name_	'P 1'
_symmetry_space_group_name_H-M	'P 1'

loop_
_symmetry_equiv_pos_as_xyz
  x,y,z

loop_
_atom_site_label
_atom_site_type_symbol
_atom_site_fract_x
_atom_site_fract_y
_atom_site_fract_z
_atom_site_charge
Tb	Tb	0.22408 0.98323 0.43820 2.05700
O 	O 	0.36910 0.03910 0.42818 -0.61800
O 	O 	0.50520 0.11270 0.43022 -0.45500
O 	O 	0.32380 0.00720 0.34779 -0.51200
O 	O 	0.31800 0.13610 0.32923 -0.41200
O 	O 	0.40590 0.12830 0.47003 -0.50600
O 	O 	0.25480 0.09340 0.46430 -0.52400
O 	O 	0.11160 0.21900 0.53200 -0.49400
O 	O 	0.09270 0.37180 0.53451 -0.55700
O 	O 	0.07520 0.01070 0.44945 -0.60100
N 	N 	0.54020 0.39440 0.44220 -0.11500
C 	C 	0.42910 0.09910 0.42146 0.45800
C 	C 	0.40610 0.15170 0.40145 -0.20600
C 	C 	0.38110 0.10380 0.38384 0.11800
H 	H 	0.37570 0.03870 0.38420 -0.01900
C 	C 	0.36380 0.15090 0.36559 -0.15500
C 	C 	0.33290 0.09230 0.34593 0.36600
C 	C 	0.37410 0.24670 0.36447 0.09300
H 	H 	0.36710 0.27740 0.35170 0.00700
C 	C 	0.39440 0.29600 0.38191 -0.17700
H 	H 	0.39620 0.36130 0.38120 0.08900
C 	C 	0.41290 0.25100 0.40116 0.12100
C 	C 	0.43020 0.30110 0.42074 -0.04900
C 	C 	0.52050 0.35120 0.42412 0.03200
H 	H 	0.56450 0.35250 0.41340 0.02200
C 	C 	0.47770 0.38230 0.45813 0.04300
H 	H 	0.49360 0.40960 0.47090 0.02100
C 	C 	0.39460 0.33500 0.45755 -0.06300
C 	C 	0.36880 0.29350 0.43793 -0.00900
H 	H 	0.31200 0.26180 0.43660 0.04100
C 	C 	0.32860 0.32440 0.47582 0.16300
C 	C 	0.29270 0.23710 0.48139 -0.23800
C 	C 	0.32050 0.14590 0.47118 0.48900
C 	C 	0.22860 0.23540 0.49690 0.15000
H 	H 	0.19910 0.17870 0.49990 -0.01100
C 	C 	0.20380 0.31520 0.50880 -0.23100
C 	C 	0.23730 0.39860 0.50291 0.14700
H 	H 	0.21640 0.45350 0.50930 -0.02200
C 	C 	0.30490 0.40220 0.48680 -0.23000
H 	H 	0.33380 0.45910 0.48370 0.10900
C 	C 	0.13260 0.29910 0.52630 0.44400
Tb	Tb	0.72408 0.48323 0.93820 1.86400
O 	O 	0.86910 0.53910 0.92818 -0.57500
O 	O 	0.00520 0.61270 0.93022 -0.51700
O 	O 	0.82380 0.50720 0.84779 -0.44600
O 	O 	0.81800 0.63610 0.82923 -0.37700
O 	O 	0.90590 0.62830 0.97003 -0.45800
O 	O 	0.75480 0.59340 0.96430 -0.46500
O 	O 	0.61160 0.71900 0.03200 -0.48600
O 	O 	0.59270 0.87180 0.03451 -0.53000
O 	O 	0.57520 0.51070 0.94945 -0.61900
N 	N 	0.04020 0.89440 0.94220 -0.12800
C 	C 	0.92910 0.59910 0.92146 0.53000
C 	C 	0.90610 0.65170 0.90145 -0.19300
C 	C 	0.88110 0.60380 0.88384 0.11500
H 	H 	0.87570 0.53870 0.88420 0.00900
C 	C 	0.86380 0.65090 0.86559 -0.12800
C 	C 	0.83290 0.59230 0.84593 0.35700
C 	C 	0.87410 0.74670 0.86447 0.08300
H 	H 	0.86710 0.77740 0.85170 0.02700
C 	C 	0.89440 0.79600 0.88191 -0.15000
H 	H 	0.89620 0.86130 0.88120 0.10400
C 	C 	0.91290 0.75100 0.90116 0.11100
C 	C 	0.93020 0.80110 0.92074 0.03400
C 	C 	0.02050 0.85120 0.92412 -0.05600
H 	H 	0.06450 0.85250 0.91340 0.04600
C 	C 	0.97770 0.88230 0.95813 0.11100
H 	H 	0.99360 0.90960 0.97090 0.03900
C 	C 	0.89460 0.83500 0.95755 -0.05300
C 	C 	0.86880 0.79350 0.93793 -0.02600
H 	H 	0.81200 0.76180 0.93660 0.05300
C 	C 	0.82860 0.82440 0.97582 0.16400
C 	C 	0.79270 0.73710 0.98139 -0.21000
C 	C 	0.82050 0.64590 0.97118 0.47000
C 	C 	0.72860 0.73540 0.99690 0.13900
H 	H 	0.69910 0.67870 0.99990 0.01300
C 	C 	0.70380 0.81520 0.00880 -0.20400
C 	C 	0.73730 0.89860 0.00291 0.14200
H 	H 	0.71640 0.95350 0.00930 0.00500
C 	C 	0.80490 0.90220 0.98680 -0.21000
H 	H 	0.83380 0.95910 0.98370 0.13000
C 	C 	0.63260 0.79910 0.02630 0.44300
Tb	Tb	0.77592 0.01677 0.43820 1.63700
O 	O 	0.63090 0.96090 0.42818 -0.49600
O 	O 	0.49480 0.88730 0.43022 -0.41300
O 	O 	0.67620 0.99280 0.34779 -0.39500
O 	O 	0.68200 0.86390 0.32923 -0.35800
O 	O 	0.59410 0.87170 0.47003 -0.46300
O 	O 	0.74520 0.90660 0.46430 -0.41600
O 	O 	0.88840 0.78100 0.53200 -0.48100
O 	O 	0.90730 0.62820 0.53451 -0.52600
O 	O 	0.92480 0.98930 0.44945 -0.38800
N 	N 	0.45980 0.60560 0.44220 -0.11600
C 	C 	0.57090 0.90090 0.42146 0.42500
C 	C 	0.59390 0.84830 0.40145 -0.15900
C 	C 	0.61890 0.89620 0.38384 0.08100
H 	H 	0.62430 0.96130 0.38420 0.03000
C 	C 	0.63620 0.84910 0.36559 -0.11400
C 	C 	0.66710 0.90770 0.34593 0.34100
C 	C 	0.62590 0.75330 0.36447 0.06300
H 	H 	0.63290 0.72260 0.35170 0.02000
C 	C 	0.60560 0.70400 0.38191 -0.14800
H 	H 	0.60380 0.63870 0.38120 0.08100
C 	C 	0.58710 0.74900 0.40116 0.09800
C 	C 	0.56980 0.69890 0.42074 -0.03400
C 	C 	0.47950 0.64880 0.42412 0.02600
H 	H 	0.43550 0.64750 0.41340 0.02200
C 	C 	0.52230 0.61770 0.45813 0.03600
H 	H 	0.50640 0.59040 0.47090 0.02300
C 	C 	0.60540 0.66500 0.45755 -0.04800
C 	C 	0.63120 0.70650 0.43793 -0.02100
H 	H 	0.68800 0.73820 0.43660 0.05300
C 	C 	0.67140 0.67560 0.47582 0.14500
C 	C 	0.70730 0.76290 0.48139 -0.19900
C 	C 	0.67950 0.85410 0.47118 0.45900
C 	C 	0.77140 0.76460 0.49690 0.12700
H 	H 	0.80090 0.82130 0.49990 0.02900
C 	C 	0.79620 0.68480 0.50880 -0.19500
C 	C 	0.76270 0.60140 0.50291 0.12800
H 	H 	0.78360 0.54650 0.50930 -0.00700
C 	C 	0.69510 0.59780 0.48680 -0.20200
H 	H 	0.66620 0.54090 0.48370 0.10500
C 	C 	0.86740 0.70090 0.52630 0.44200
Tb	Tb	0.27592 0.51677 0.93820 1.85300
O 	O 	0.13090 0.46090 0.92818 -0.54400
O 	O 	0.99480 0.38730 0.93022 -0.35300
O 	O 	0.17620 0.49280 0.84779 -0.46200
O 	O 	0.18200 0.36390 0.82923 -0.39300
O 	O 	0.09410 0.37170 0.97003 -0.51500
O 	O 	0.24520 0.40660 0.96430 -0.47200
O 	O 	0.38840 0.28100 0.03200 -0.49200
O 	O 	0.40730 0.12820 0.03451 -0.55900
O 	O 	0.42480 0.48930 0.94945 -0.61800
N 	N 	0.95980 0.10560 0.94220 -0.10200
C 	C 	0.07090 0.40090 0.92146 0.35400
C 	C 	0.09390 0.34830 0.90145 -0.17400
C 	C 	0.11890 0.39620 0.88384 0.08600
H 	H 	0.12430 0.46130 0.88420 0.00200
C 	C 	0.13620 0.34910 0.86559 -0.14100
C 	C 	0.16710 0.40770 0.84593 0.35100
C 	C 	0.12590 0.25330 0.86447 0.07400
H 	H 	0.13290 0.22260 0.85170 -0.00000
C 	C 	0.10560 0.20400 0.88191 -0.17600
H 	H 	0.10380 0.13870 0.88120 0.06600
C 	C 	0.08710 0.24900 0.90116 0.10900
C 	C 	0.06980 0.19890 0.92074 -0.12100
C 	C 	0.97950 0.14880 0.92412 0.12000
H 	H 	0.93550 0.14750 0.91340 -0.00200
C 	C 	0.02230 0.11770 0.95813 -0.03700
H 	H 	0.00640 0.09040 0.97090 0.00500
C 	C 	0.10540 0.16500 0.95755 -0.05700
C 	C 	0.13120 0.20650 0.93793 -0.00400
H 	H 	0.18800 0.23820 0.93660 0.04000
C 	C 	0.17140 0.17560 0.97582 0.14200
C 	C 	0.20730 0.26290 0.98139 -0.22700
C 	C 	0.17950 0.35410 0.97118 0.47900
C 	C 	0.27140 0.26460 0.99690 0.13800
H 	H 	0.30090 0.32130 0.99990 0.00600
C 	C 	0.29620 0.18480 0.00880 -0.22400
C 	C 	0.26270 0.10140 0.00291 0.13300
H 	H 	0.28360 0.04650 0.00930 -0.03600
C 	C 	0.19510 0.09780 0.98680 -0.22100
H 	H 	0.16620 0.04090 0.98370 0.08200
C 	C 	0.36740 0.20090 0.02630 0.44300
Tb	Tb	0.98323 0.77592 0.56180 2.07600
O 	O 	0.03910 0.63090 0.57182 -0.62000
O 	O 	0.11270 0.49480 0.56978 -0.45800
O 	O 	0.00720 0.67620 0.65221 -0.50900
O 	O 	0.13610 0.68200 0.67077 -0.41500
O 	O 	0.12830 0.59410 0.52997 -0.50600
O 	O 	0.09340 0.74520 0.53570 -0.51700
O 	O 	0.21900 0.88840 0.46800 -0.49800
O 	O 	0.37180 0.90730 0.46549 -0.52800
O 	O 	0.01070 0.92480 0.55055 -0.53000
N 	N 	0.39440 0.45980 0.55780 -0.11800
C 	C 	0.09910 0.57090 0.57854 0.45900
C 	C 	0.15170 0.59390 0.59855 -0.20700
C 	C 	0.10380 0.61890 0.61616 0.11700
H 	H 	0.03870 0.62430 0.61580 -0.01700
C 	C 	0.15090 0.63620 0.63441 -0.15500
C 	C 	0.09230 0.66710 0.65407 0.36400
C 	C 	0.24670 0.62590 0.63553 0.09200
H 	H 	0.27740 0.63290 0.64830 0.00800
C 	C 	0.29600 0.60560 0.61809 -0.17800
H 	H 	0.36130 0.60380 0.61880 0.09100
C 	C 	0.25100 0.58710 0.59884 0.12100
C 	C 	0.30110 0.56980 0.57926 -0.04700
C 	C 	0.35120 0.47950 0.57588 0.03300
H 	H 	0.35250 0.43550 0.58660 0.01700
C 	C 	0.38230 0.52230 0.54187 0.04200
H 	H 	0.40960 0.50640 0.52910 0.02000
C 	C 	0.33500 0.60540 0.54245 -0.05800
C 	C 	0.29350 0.63120 0.56207 -0.00900
H 	H 	0.26180 0.68800 0.56340 0.04600
C 	C 	0.32440 0.67140 0.52418 0.16100
C 	C 	0.23710 0.70730 0.51861 -0.22800
C 	C 	0.14590 0.67950 0.52882 0.48800
C 	C 	0.23540 0.77140 0.50310 0.14700
H 	H 	0.17870 0.80090 0.50010 0.00400
C 	C 	0.31520 0.79620 0.49120 -0.21500
C 	C 	0.39860 0.76270 0.49709 0.14400
H 	H 	0.45350 0.78360 0.49070 -0.01300
C 	C 	0.40220 0.69510 0.51320 -0.21900
H 	H 	0.45910 0.66620 0.51630 0.11000
C 	C 	0.29910 0.86740 0.47370 0.44700
Tb	Tb	0.48323 0.27592 0.06180 1.84200
O 	O 	0.53910 0.13090 0.07182 -0.54400
O 	O 	0.61270 0.99480 0.06978 -0.35300
O 	O 	0.50720 0.17620 0.15221 -0.46500
O 	O 	0.63610 0.18200 0.17077 -0.38900
O 	O 	0.62830 0.09410 0.02997 -0.51300
O 	O 	0.59340 0.24520 0.03570 -0.46900
O 	O 	0.71900 0.38840 0.96800 -0.49000
O 	O 	0.87180 0.40730 0.96549 -0.53100
O 	O 	0.51070 0.42480 0.05055 -0.61700
N 	N 	0.89440 0.95980 0.05780 -0.07600
C 	C 	0.59910 0.07090 0.07854 0.35500
C 	C 	0.65170 0.09390 0.09855 -0.17500
C 	C 	0.60380 0.11890 0.11616 0.09000
H 	H 	0.53870 0.12430 0.11580 -0.00000
C 	C 	0.65090 0.13620 0.13441 -0.14200
C 	C 	0.59230 0.16710 0.15407 0.35200
C 	C 	0.74670 0.12590 0.13553 0.08100
H 	H 	0.77740 0.13290 0.14830 0.01000
C 	C 	0.79600 0.10560 0.11809 -0.17700
H 	H 	0.86130 0.10380 0.11880 0.09000
C 	C 	0.75100 0.08710 0.09884 0.11600
C 	C 	0.80110 0.06980 0.07926 -0.10900
C 	C 	0.85120 0.97950 0.07588 0.12500
H 	H 	0.85250 0.93550 0.08660 0.01700
C 	C 	0.88230 0.02230 0.04187 -0.02500
H 	H 	0.90960 0.00640 0.02910 0.03200
C 	C 	0.83500 0.10540 0.04245 -0.04600
C 	C 	0.79350 0.13120 0.06207 -0.00000
H 	H 	0.76180 0.18800 0.06340 0.04500
C 	C 	0.82440 0.17140 0.02418 0.14600
C 	C 	0.73710 0.20730 0.01861 -0.22100
C 	C 	0.64590 0.17950 0.02882 0.47700
C 	C 	0.73540 0.27140 0.00310 0.13600
H 	H 	0.67870 0.30090 0.00010 0.00900
C 	C 	0.81520 0.29620 0.99120 -0.20700
C 	C 	0.89860 0.26270 0.99709 0.13400
H 	H 	0.95350 0.28360 0.99070 0.00700
C 	C 	0.90220 0.19510 0.01320 -0.20700
H 	H 	0.95910 0.16620 0.01630 0.11700
C 	C 	0.79910 0.36740 0.97370 0.44100
Tb	Tb	0.01677 0.22408 0.56180 1.59400
O 	O 	0.96090 0.36910 0.57182 -0.49000
O 	O 	0.88730 0.50520 0.56978 -0.41000
O 	O 	0.99280 0.32380 0.65221 -0.39600
O 	O 	0.86390 0.31800 0.67077 -0.35500
O 	O 	0.87170 0.40590 0.52997 -0.46200
O 	O 	0.90660 0.25480 0.53570 -0.41900
O 	O 	0.78100 0.11160 0.46800 -0.47700
O 	O 	0.62820 0.09270 0.46549 -0.55500
O 	O 	0.98930 0.07520 0.55055 -0.44100
N 	N 	0.60560 0.54020 0.55780 -0.11300
C 	C 	0.90090 0.42910 0.57854 0.42200
C 	C 	0.84830 0.40610 0.59855 -0.15700
C 	C 	0.89620 0.38110 0.61616 0.08100
H 	H 	0.96130 0.37570 0.61580 0.03000
C 	C 	0.84910 0.36380 0.63441 -0.11300
C 	C 	0.90770 0.33290 0.65407 0.34200
C 	C 	0.75330 0.37410 0.63553 0.06300
H 	H 	0.72260 0.36710 0.64830 0.02000
C 	C 	0.70400 0.39440 0.61809 -0.14700
H 	H 	0.63870 0.39620 0.61880 0.07900
C 	C 	0.74900 0.41290 0.59884 0.09700
C 	C 	0.69890 0.43020 0.57926 -0.03400
C 	C 	0.64880 0.52050 0.57588 0.02600
H 	H 	0.64750 0.56450 0.58660 0.02800
C 	C 	0.61770 0.47770 0.54187 0.03700
H 	H 	0.59040 0.49360 0.52910 0.02300
C 	C 	0.66500 0.39460 0.54245 -0.05200
C 	C 	0.70650 0.36880 0.56207 -0.02200
H 	H 	0.73820 0.31200 0.56340 0.04800
C 	C 	0.67560 0.32860 0.52418 0.14600
C 	C 	0.76290 0.29270 0.51861 -0.20700
C 	C 	0.85410 0.32050 0.52882 0.45900
C 	C 	0.76460 0.22860 0.50310 0.13000
H 	H 	0.82130 0.19910 0.50010 0.01500
C 	C 	0.68480 0.20380 0.49120 -0.21000
C 	C 	0.60140 0.23730 0.49709 0.13100
H 	H 	0.54650 0.21640 0.49070 -0.01600
C 	C 	0.59780 0.30490 0.51320 -0.21100
H 	H 	0.54090 0.33380 0.51630 0.10400
C 	C 	0.70090 0.13260 0.47370 0.43800
Tb	Tb	0.51677 0.72408 0.06180 1.87400
O 	O 	0.46090 0.86910 0.07182 -0.57500
O 	O 	0.38730 0.00520 0.06978 -0.52000
O 	O 	0.49280 0.82380 0.15221 -0.44400
O 	O 	0.36390 0.81800 0.17077 -0.38100
O 	O 	0.37170 0.90590 0.02997 -0.45800
O 	O 	0.40660 0.75480 0.03570 -0.46800
O 	O 	0.28100 0.61160 0.96800 -0.48800
O 	O 	0.12820 0.59270 0.96549 -0.55800
O 	O 	0.48930 0.57520 0.05055 -0.62100
N 	N 	0.10560 0.04020 0.05780 -0.15700
C 	C 	0.40090 0.92910 0.07854 0.53100
C 	C 	0.34830 0.90610 0.09855 -0.19100
C 	C 	0.39620 0.88110 0.11616 0.11100
H 	H 	0.46130 0.87570 0.11580 0.01100
C 	C 	0.34910 0.86380 0.13441 -0.12700
C 	C 	0.40770 0.83290 0.15407 0.35500
C 	C 	0.25330 0.87410 0.13553 0.07500
H 	H 	0.22260 0.86710 0.14830 0.01800
C 	C 	0.20400 0.89440 0.11809 -0.14800
H 	H 	0.13870 0.89620 0.11880 0.08100
C 	C 	0.24900 0.91290 0.09884 0.10300
C 	C 	0.19890 0.93020 0.07926 0.02900
C 	C 	0.14880 0.02050 0.07588 -0.07000
H 	H 	0.14750 0.06450 0.08660 0.02700
C 	C 	0.11770 0.97770 0.04187 0.10800
H 	H 	0.09040 0.99360 0.02910 0.01100
C 	C 	0.16500 0.89460 0.04245 -0.06500
C 	C 	0.20650 0.86880 0.06207 -0.03000
H 	H 	0.23820 0.81200 0.06340 0.04900
C 	C 	0.17560 0.82860 0.02418 0.16100
C 	C 	0.26290 0.79270 0.01861 -0.21600
C 	C 	0.35410 0.82050 0.02882 0.47100
C 	C 	0.26460 0.72860 0.00310 0.14200
H 	H 	0.32130 0.69910 0.00010 0.01000
C 	C 	0.18480 0.70380 0.99120 -0.22100
C 	C 	0.10140 0.73730 0.99709 0.14200
H 	H 	0.04650 0.71640 0.99070 -0.03700
C 	C 	0.09780 0.80490 0.01320 -0.22500
H 	H 	0.04090 0.83380 0.01630 0.09700
C 	C 	0.20090 0.63260 0.97370 0.44600
Tb	Tb	0.27592 0.98323 0.31180 2.07100
O 	O 	0.13090 0.03910 0.32182 -0.59600
O 	O 	0.99480 0.11270 0.31978 -0.35900
O 	O 	0.17620 0.00720 0.40221 -0.51800
O 	O 	0.18200 0.13610 0.42077 -0.41900
O 	O 	0.09410 0.12830 0.27997 -0.51100
O 	O 	0.24520 0.09340 0.28570 -0.51900
O 	O 	0.38840 0.21900 0.21800 -0.50300
O 	O 	0.40730 0.37180 0.21549 -0.57100
O 	O 	0.42480 0.01070 0.30055 -0.63000
N 	N 	0.95980 0.39440 0.30780 -0.09000
C 	C 	0.07090 0.09910 0.32854 0.37000
C 	C 	0.09390 0.15170 0.34855 -0.19700
C 	C 	0.11890 0.10380 0.36616 0.10400
H 	H 	0.12430 0.03870 0.36580 -0.02200
C 	C 	0.13620 0.15090 0.38441 -0.16000
C 	C 	0.16710 0.09230 0.40407 0.36400
C 	C 	0.12590 0.24670 0.38553 0.09200
H 	H 	0.13290 0.27740 0.39830 -0.00000
C 	C 	0.10560 0.29600 0.36809 -0.19000
H 	H 	0.10380 0.36130 0.36880 0.08300
C 	C 	0.08710 0.25100 0.34884 0.12400
C 	C 	0.06980 0.30110 0.32926 -0.12000
C 	C 	0.97950 0.35120 0.32588 0.12400
H 	H 	0.93550 0.35250 0.33660 0.00600
C 	C 	0.02230 0.38230 0.29187 -0.02700
H 	H 	0.00640 0.40960 0.27910 0.01800
C 	C 	0.10540 0.33500 0.29245 -0.05700
C 	C 	0.13120 0.29350 0.31207 0.00400
H 	H 	0.18800 0.26180 0.31340 0.03900
C 	C 	0.17140 0.32440 0.27418 0.15300
C 	C 	0.20730 0.23710 0.26861 -0.23700
C 	C 	0.17950 0.14590 0.27882 0.48600
C 	C 	0.27140 0.23540 0.25310 0.14900
H 	H 	0.30090 0.17870 0.25010 -0.00600
C 	C 	0.29620 0.31520 0.24120 -0.23200
C 	C 	0.26270 0.39860 0.24709 0.14600
H 	H 	0.28360 0.45350 0.24070 -0.02200
C 	C 	0.19510 0.40220 0.26320 -0.22600
H 	H 	0.16620 0.45910 0.26630 0.10400
C 	C 	0.36740 0.29910 0.22370 0.45500
Tb	Tb	0.77592 0.48323 0.81180 1.86100
O 	O 	0.63090 0.53910 0.82182 -0.57000
O 	O 	0.49480 0.61270 0.81978 -0.45300
O 	O 	0.67620 0.50720 0.90221 -0.45700
O 	O 	0.68200 0.63610 0.92077 -0.38600
O 	O 	0.59410 0.62830 0.77997 -0.50800
O 	O 	0.74520 0.59340 0.78570 -0.47000
O 	O 	0.88840 0.71900 0.71800 -0.48600
O 	O 	0.90730 0.87180 0.71549 -0.49000
O 	O 	0.92480 0.51070 0.80055 -0.52100
N 	N 	0.45980 0.89440 0.80780 -0.10400
C 	C 	0.57090 0.59910 0.82854 0.44600
C 	C 	0.59390 0.65170 0.84855 -0.18600
C 	C 	0.61890 0.60380 0.86616 0.10300
H 	H 	0.62430 0.53870 0.86580 0.00400
C 	C 	0.63620 0.65090 0.88441 -0.13700
C 	C 	0.66710 0.59230 0.90407 0.35300
C 	C 	0.62590 0.74670 0.88553 0.08200
H 	H 	0.63290 0.77740 0.89830 0.01800
C 	C 	0.60560 0.79600 0.86809 -0.16500
H 	H 	0.60380 0.86130 0.86880 0.09900
C 	C 	0.58710 0.75100 0.84884 0.11400
C 	C 	0.56980 0.80110 0.82926 -0.03700
C 	C 	0.47950 0.85120 0.82588 0.03400
H 	H 	0.43550 0.85250 0.83660 0.02900
C 	C 	0.52230 0.88230 0.79187 0.04300
H 	H 	0.50640 0.90960 0.77910 0.03500
C 	C 	0.60540 0.83500 0.79245 -0.04800
C 	C 	0.63120 0.79350 0.81207 -0.01300
H 	H 	0.68800 0.76180 0.81340 0.05100
C 	C 	0.67140 0.82440 0.77418 0.15400
C 	C 	0.70730 0.73710 0.76861 -0.21300
C 	C 	0.67950 0.64590 0.77882 0.48000
C 	C 	0.77140 0.73540 0.75310 0.13400
H 	H 	0.80090 0.67870 0.75010 0.01800
C 	C 	0.79620 0.81520 0.74120 -0.19100
C 	C 	0.76270 0.89860 0.74709 0.13200
H 	H 	0.78360 0.95350 0.74070 0.01400
C 	C 	0.69510 0.90220 0.76320 -0.20100
H 	H 	0.66620 0.95910 0.76630 0.12300
C 	C 	0.86740 0.79910 0.72370 0.43400
Tb	Tb	0.72408 0.01677 0.31180 1.63500
O 	O 	0.86910 0.96090 0.32182 -0.49900
O 	O 	0.00520 0.88730 0.31978 -0.47300
O 	O 	0.82380 0.99280 0.40221 -0.38700
O 	O 	0.81800 0.86390 0.42077 -0.35000
O 	O 	0.90590 0.87170 0.27997 -0.41300
O 	O 	0.75480 0.90660 0.28570 -0.41100
O 	O 	0.61160 0.78100 0.21800 -0.48100
O 	O 	0.59270 0.62820 0.21549 -0.56800
O 	O 	0.57520 0.98930 0.30055 -0.47800
N 	N 	0.04020 0.60560 0.30780 -0.14100
C 	C 	0.92910 0.90090 0.32854 0.50400
C 	C 	0.90610 0.84830 0.34855 -0.16500
C 	C 	0.88110 0.89620 0.36616 0.09200
H 	H 	0.87570 0.96130 0.36580 0.03500
C 	C 	0.86380 0.84910 0.38441 -0.10600
C 	C 	0.83290 0.90770 0.40407 0.34400
C 	C 	0.87410 0.75330 0.38553 0.06300
H 	H 	0.86710 0.72260 0.39830 0.02900
C 	C 	0.89440 0.70400 0.36809 -0.13300
H 	H 	0.89620 0.63870 0.36880 0.08700
C 	C 	0.91290 0.74900 0.34884 0.09400
C 	C 	0.93020 0.69890 0.32926 0.03700
C 	C 	0.02050 0.64880 0.32588 -0.06400
H 	H 	0.06450 0.64750 0.33660 0.03900
C 	C 	0.97770 0.61770 0.29187 0.10500
H 	H 	0.99360 0.59040 0.27910 0.02600
C 	C 	0.89460 0.66500 0.29245 -0.05400
C 	C 	0.86880 0.70650 0.31207 -0.03400
H 	H 	0.81200 0.73820 0.31340 0.05500
C 	C 	0.82860 0.67560 0.27418 0.15500
C 	C 	0.79270 0.76290 0.26861 -0.19700
C 	C 	0.82050 0.85410 0.27882 0.44900
C 	C 	0.72860 0.76460 0.25310 0.13200
H 	H 	0.69910 0.82130 0.25010 0.02300
C 	C 	0.70380 0.68480 0.24120 -0.20800
C 	C 	0.73730 0.60140 0.24709 0.13900
H 	H 	0.71640 0.54650 0.24070 -0.01700
C 	C 	0.80490 0.59780 0.26320 -0.21100
H 	H 	0.83380 0.54090 0.26630 0.11200
C 	C 	0.63260 0.70090 0.22370 0.45100
Tb	Tb	0.22408 0.51677 0.81180 1.83700
O 	O 	0.36910 0.46090 0.82182 -0.56700
O 	O 	0.50520 0.38730 0.81978 -0.45200
O 	O 	0.32380 0.49280 0.90221 -0.45600
O 	O 	0.31800 0.36390 0.92077 -0.38700
O 	O 	0.40590 0.37170 0.77997 -0.50900
O 	O 	0.25480 0.40660 0.78570 -0.47800
O 	O 	0.11160 0.28100 0.71800 -0.48300
O 	O 	0.09270 0.12820 0.71549 -0.54500
O 	O 	0.07520 0.48930 0.80055 -0.58700
N 	N 	0.54020 0.10560 0.80780 -0.12800
C 	C 	0.42910 0.40090 0.82854 0.44400
C 	C 	0.40610 0.34830 0.84855 -0.18300
C 	C 	0.38110 0.39620 0.86616 0.09900
H 	H 	0.37570 0.46130 0.86580 0.00500
C 	C 	0.36380 0.34910 0.88441 -0.13500
C 	C 	0.33290 0.40770 0.90407 0.35300
C 	C 	0.37410 0.25330 0.88553 0.07500
H 	H 	0.36710 0.22260 0.89830 0.00800
C 	C 	0.39440 0.20400 0.86809 -0.16200
H 	H 	0.39620 0.13870 0.86880 0.07200
C 	C 	0.41290 0.24900 0.84884 0.10600
C 	C 	0.43020 0.19890 0.82926 -0.04700
C 	C 	0.52050 0.14880 0.82588 0.02400
H 	H 	0.56450 0.14750 0.83660 0.01600
C 	C 	0.47770 0.11770 0.79187 0.03500
H 	H 	0.49360 0.09040 0.77910 0.00900
C 	C 	0.39460 0.16500 0.79245 -0.06300
C 	C 	0.36880 0.20650 0.81207 -0.01700
H 	H 	0.31200 0.23820 0.81340 0.04200
C 	C 	0.32860 0.17560 0.77418 0.15200
C 	C 	0.29270 0.26290 0.76861 -0.22700
C 	C 	0.32050 0.35410 0.77882 0.48200
C 	C 	0.22860 0.26460 0.75310 0.14000
H 	H 	0.19910 0.32130 0.75010 0.00100
C 	C 	0.20380 0.18480 0.74120 -0.22300
C 	C 	0.23730 0.10140 0.74709 0.13400
H 	H 	0.21640 0.04650 0.74070 -0.03600
C 	C 	0.30490 0.09780 0.76320 -0.22500
H 	H 	0.33380 0.04090 0.76630 0.08900
C 	C 	0.13260 0.20090 0.72370 0.43200
Tb	Tb	0.51677 0.77592 0.18820 1.87000
O 	O 	0.46090 0.63090 0.17818 -0.57000
O 	O 	0.38730 0.49480 0.18022 -0.45500
O 	O 	0.49280 0.67620 0.09779 -0.45400
O 	O 	0.36390 0.68200 0.07923 -0.39000
O 	O 	0.37170 0.59410 0.22003 -0.50900
O 	O 	0.40660 0.74520 0.21430 -0.47200
O 	O 	0.28100 0.88840 0.28200 -0.48800
O 	O 	0.12820 0.90730 0.28451 -0.51500
O 	O 	0.48930 0.92480 0.19945 -0.52200
N 	N 	0.10560 0.45980 0.19220 -0.13100
C 	C 	0.40090 0.57090 0.17146 0.44600
C 	C 	0.34830 0.59390 0.15145 -0.18400
C 	C 	0.39620 0.61890 0.13384 0.09900
H 	H 	0.46130 0.62430 0.13420 0.00600
C 	C 	0.34910 0.63620 0.11559 -0.13600
C 	C 	0.40770 0.66710 0.09593 0.35200
C 	C 	0.25330 0.62590 0.11447 0.07500
H 	H 	0.22260 0.63290 0.10170 0.00800
C 	C 	0.20400 0.60560 0.13191 -0.16300
H 	H 	0.13870 0.60380 0.13120 0.07400
C 	C 	0.24900 0.58710 0.15116 0.10700
C 	C 	0.19890 0.56980 0.17074 -0.04600
C 	C 	0.14880 0.47950 0.17412 0.02400
H 	H 	0.14750 0.43550 0.16340 0.01000
C 	C 	0.11770 0.52230 0.20813 0.03500
H 	H 	0.09040 0.50640 0.22090 0.00800
C 	C 	0.16500 0.60540 0.20755 -0.05900
C 	C 	0.20650 0.63120 0.18793 -0.01700
H 	H 	0.23820 0.68800 0.18660 0.04700
C 	C 	0.17560 0.67140 0.22582 0.15000
C 	C 	0.26290 0.70730 0.23139 -0.21800
C 	C 	0.35410 0.67950 0.22118 0.48200
C 	C 	0.26460 0.77140 0.24690 0.13600
H 	H 	0.32130 0.80090 0.24990 0.01500
C 	C 	0.18480 0.79620 0.25880 -0.20700
C 	C 	0.10140 0.76270 0.25291 0.13100
H 	H 	0.04650 0.78360 0.25930 -0.02600
C 	C 	0.09780 0.69510 0.23680 -0.21400
H 	H 	0.04090 0.66620 0.23370 0.09000
C 	C 	0.20090 0.86740 0.27630 0.43600
Tb	Tb	0.01677 0.27592 0.68820 1.60900
O 	O 	0.96090 0.13090 0.67818 -0.46800
O 	O 	0.88730 0.99480 0.68022 -0.31900
O 	O 	0.99280 0.17620 0.59779 -0.40200
O 	O 	0.86390 0.18200 0.57923 -0.36000
O 	O 	0.87170 0.09410 0.72003 -0.46500
O 	O 	0.90660 0.24520 0.71430 -0.41300
O 	O 	0.78100 0.38840 0.78200 -0.48500
O 	O 	0.62820 0.40730 0.78451 -0.56900
O 	O 	0.98930 0.42480 0.69945 -0.47300
N 	N 	0.60560 0.95980 0.69220 -0.08800
C 	C 	0.90090 0.07090 0.67146 0.33900
C 	C 	0.84830 0.09390 0.65145 -0.14900
C 	C 	0.89620 0.11890 0.63384 0.06900
H 	H 	0.96130 0.12430 0.63420 0.02700
C 	C 	0.84910 0.13620 0.61559 -0.11900
C 	C 	0.90770 0.16710 0.59593 0.33900
C 	C 	0.75330 0.12590 0.61447 0.06200
H 	H 	0.72260 0.13290 0.60170 0.01200
C 	C 	0.70400 0.10560 0.63191 -0.16000
H 	H 	0.63870 0.10380 0.63120 0.07300
C 	C 	0.74900 0.08710 0.65116 0.10000
C 	C 	0.69890 0.06980 0.67074 -0.10400
C 	C 	0.64880 0.97950 0.67412 0.11500
H 	H 	0.64750 0.93550 0.66340 0.01100
C 	C 	0.61770 0.02230 0.70813 -0.03100
H 	H 	0.59040 0.00640 0.72090 0.02000
C 	C 	0.66500 0.10540 0.70755 -0.04600
C 	C 	0.70650 0.13120 0.68793 -0.00900
H 	H 	0.73820 0.18800 0.68660 0.04700
C 	C 	0.67560 0.17140 0.72582 0.13600
C 	C 	0.76290 0.20730 0.73139 -0.20600
C 	C 	0.85410 0.17950 0.72118 0.45600
C 	C 	0.76460 0.27140 0.74690 0.12900
H 	H 	0.82130 0.30090 0.74990 0.02000
C 	C 	0.68480 0.29620 0.75880 -0.21100
C 	C 	0.60140 0.26270 0.75291 0.12900
H 	H 	0.54650 0.28360 0.75930 -0.01600
C 	C 	0.59780 0.19510 0.73680 -0.20800
H 	H 	0.54090 0.16620 0.73370 0.09800
C 	C 	0.70090 0.36740 0.77630 0.44900
Tb	Tb	0.48323 0.22408 0.18820 1.82700
O 	O 	0.53910 0.36910 0.17818 -0.56700
O 	O 	0.61270 0.50520 0.18022 -0.45100
O 	O 	0.50720 0.32380 0.09779 -0.45900
O 	O 	0.63610 0.31800 0.07923 -0.38300
O 	O 	0.62830 0.40590 0.22003 -0.50800
O 	O 	0.59340 0.25480 0.21430 -0.47500
O 	O 	0.71900 0.11160 0.28200 -0.48200
O 	O 	0.87180 0.09270 0.28451 -0.51800
O 	O 	0.51070 0.07520 0.19945 -0.58600
N 	N 	0.89440 0.54020 0.19220 -0.10100
C 	C 	0.59910 0.42910 0.17146 0.44400
C 	C 	0.65170 0.40610 0.15145 -0.18500
C 	C 	0.60380 0.38110 0.13384 0.10300
H 	H 	0.53870 0.37570 0.13420 0.00300
C 	C 	0.65090 0.36380 0.11559 -0.13600
C 	C 	0.59230 0.33290 0.09593 0.35500
C 	C 	0.74670 0.37410 0.11447 0.08300
H 	H 	0.77740 0.36710 0.10170 0.01800
C 	C 	0.79600 0.39440 0.13191 -0.16400
H 	H 	0.86130 0.39620 0.13120 0.09600
C 	C 	0.75100 0.41290 0.15116 0.11400
C 	C 	0.80110 0.43020 0.17074 -0.03800
C 	C 	0.85120 0.52050 0.17412 0.03400
H 	H 	0.85250 0.56450 0.16340 0.03400
C 	C 	0.88230 0.47770 0.20813 0.04300
H 	H 	0.90960 0.49360 0.22090 0.03600
C 	C 	0.83500 0.39460 0.20755 -0.05200
C 	C 	0.79350 0.36880 0.18793 -0.01300
H 	H 	0.76180 0.31200 0.18660 0.04700
C 	C 	0.82440 0.32860 0.22582 0.15600
C 	C 	0.73710 0.29270 0.23139 -0.22200
C 	C 	0.64590 0.32050 0.22118 0.48100
C 	C 	0.73540 0.22860 0.24690 0.13700
H 	H 	0.67870 0.19910 0.24990 0.00400
C 	C 	0.81520 0.20380 0.25880 -0.20600
C 	C 	0.89860 0.23730 0.25291 0.13500
H 	H 	0.95350 0.21640 0.25930 0.00600
C 	C 	0.90220 0.30490 0.23680 -0.21100
H 	H 	0.95910 0.33380 0.23370 0.12300
C 	C 	0.79910 0.13260 0.27630 0.43000
Tb	Tb	0.98323 0.72408 0.68820 2.08400
O 	O 	0.03910 0.86910 0.67818 -0.62400
O 	O 	0.11270 0.00520 0.68022 -0.52300
O 	O 	0.00720 0.82380 0.59779 -0.49800
O 	O 	0.13610 0.81800 0.57923 -0.40500
O 	O 	0.12830 0.90590 0.72003 -0.45500
O 	O 	0.09340 0.75480 0.71430 -0.51300
O 	O 	0.21900 0.61160 0.78200 -0.49900
O 	O 	0.37180 0.59270 0.78451 -0.57000
O 	O 	0.01070 0.57520 0.69945 -0.63000
N 	N 	0.39440 0.04020 0.69220 -0.14400
C 	C 	0.09910 0.92910 0.67146 0.54400
C 	C 	0.15170 0.90610 0.65145 -0.21400
C 	C 	0.10380 0.88110 0.63384 0.12900
H 	H 	0.03870 0.87570 0.63420 -0.01300
C 	C 	0.15090 0.86380 0.61559 -0.14700
C 	C 	0.09230 0.83290 0.59593 0.36800
C 	C 	0.24670 0.87410 0.61447 0.09300
H 	H 	0.27740 0.86710 0.60170 0.01700
C 	C 	0.29600 0.89440 0.63191 -0.16300
H 	H 	0.36130 0.89620 0.63120 0.09700
C 	C 	0.25100 0.91290 0.65116 0.11800
C 	C 	0.30110 0.93020 0.67074 0.02500
C 	C 	0.35120 0.02050 0.67412 -0.06000
H 	H 	0.35250 0.06450 0.66340 0.03400
C 	C 	0.38230 0.97770 0.70813 0.11200
H 	H 	0.40960 0.99360 0.72090 0.02400
C 	C 	0.33500 0.89460 0.70755 -0.06400
C 	C 	0.29350 0.86880 0.68793 -0.02200
H 	H 	0.26180 0.81200 0.68660 0.04800
C 	C 	0.32440 0.82860 0.72582 0.17100
C 	C 	0.23710 0.79270 0.73139 -0.22600
C 	C 	0.14590 0.82050 0.72118 0.47800
C 	C 	0.23540 0.72860 0.74690 0.15200
H 	H 	0.17870 0.69910 0.74990 -0.00200
C 	C 	0.31520 0.70380 0.75880 -0.22900
C 	C 	0.39860 0.73730 0.75291 0.15500
H 	H 	0.45350 0.71640 0.75930 -0.02300
C 	C 	0.40220 0.80490 0.73680 -0.22900
H 	H 	0.45910 0.83380 0.73370 0.11800
C 	C 	0.29910 0.63260 0.77630 0.45700
Tb	Tb	0.50000 0.00000 0.45941 1.74000
Tb	Tb	0.00000 0.50000 0.95941 1.75000
Tb	Tb	0.00000 0.50000 0.54059 1.74000
Tb	Tb	0.50000 0.00000 0.04059 1.75100
Tb	Tb	0.00000 0.00000 0.29059 1.58100
Tb	Tb	0.50000 0.50000 0.79059 1.91100
Tb	Tb	0.50000 0.50000 0.20941 1.91100
Tb	Tb	0.00000 0.00000 0.70941 1.58000
C 	C 	0.00000 0.00000 0.44170 0.52300
H 	H 	0.00000 0.00000 0.42710 -0.23100
C 	C 	0.50000 0.50000 0.94170 0.83200
H 	H 	0.50000 0.50000 0.92710 -0.28500
C 	C 	0.00000 0.00000 0.55830 0.50900
H 	H 	0.00000 0.00000 0.57290 -0.22700
C 	C 	0.50000 0.50000 0.05830 0.83200
H 	H 	0.50000 0.50000 0.07290 -0.28500
C 	C 	0.50000 0.00000 0.30830 0.67100
H 	H 	0.50000 0.00000 0.32290 -0.25700
C 	C 	0.00000 0.50000 0.80830 0.67400
H 	H 	0.00000 0.50000 0.82290 -0.25700
C 	C 	0.50000 0.00000 0.19170 0.67300
H 	H 	0.50000 0.00000 0.17710 -0.25600
C 	C 	0.00000 0.50000 0.69170 0.66800
H 	H 	0.00000 0.50000 0.67710 -0.25600
