data_crystal

_cell_length_a 18.79400
_cell_length_b 18.79400
_cell_length_c 19.93510
_cell_angle_alpha 61.87610
_cell_angle_beta  61.87610
_cell_angle_gamma 60.00000

_symmetry_space_group_name_	'P 1'
_symmetry_space_group_name_H-M	'P 1'

loop_
_symmetry_equiv_pos_as_xyz
  x,y,z

loop_
_atom_site_label
_atom_site_type_symbol
_atom_site_fract_x
_atom_site_fract_y
_atom_site_fract_z
_atom_site_charge
Cu	Cu	0.06767 0.49914 0.93405 0.90300
Cu	Cu	0.49914 0.49914 0.93405 0.90300
Cu	Cu	0.49914 0.06767 0.93405 0.90300
Cu	Cu	0.93233 0.50086 0.06595 0.90300
Cu	Cu	0.50086 0.93233 0.06595 0.90300
Cu	Cu	0.50086 0.50086 0.06595 0.90300
H 	H 	0.97920 0.46780 0.79360 0.11700
H 	H 	0.46780 0.75940 0.79360 0.11800
H 	H 	0.75940 0.97920 0.79360 0.11600
H 	H 	0.02080 0.24060 0.20640 0.11600
H 	H 	0.53220 0.02080 0.20640 0.11700
H 	H 	0.24060 0.53220 0.20640 0.11800
H 	H 	0.02080 0.53220 0.20640 0.11700
H 	H 	0.53220 0.24060 0.20640 0.11800
H 	H 	0.24060 0.02080 0.20640 0.11600
H 	H 	0.97920 0.75940 0.79360 0.11600
H 	H 	0.46780 0.97920 0.79360 0.11700
H 	H 	0.75940 0.46780 0.79360 0.11800
H 	H 	0.76940 0.46630 0.99490 0.08200
H 	H 	0.46630 0.76940 0.99490 0.08200
H 	H 	0.76940 0.76940 0.99490 0.08200
H 	H 	0.23060 0.23060 0.00510 0.08200
H 	H 	0.53370 0.23060 0.00510 0.08200
H 	H 	0.23060 0.53370 0.00510 0.08200
H 	H 	0.12630 0.50000 0.50000 0.07500
H 	H 	0.50000 0.87370 0.50000 0.07500
H 	H 	0.87370 0.12630 0.50000 0.07600
H 	H 	0.87370 0.50000 0.50000 0.07500
H 	H 	0.50000 0.12630 0.50000 0.07500
H 	H 	0.12630 0.87370 0.50000 0.07600
C 	C 	0.87907 0.46787 0.89899 -0.00000
C 	C 	0.92316 0.46756 0.81982 -0.11400
C 	C 	0.92608 0.47398 0.93976 0.29900
C 	C 	0.99390 0.46360 0.65830 0.22000
C 	C 	0.00320 0.48040 0.56920 -0.01300
C 	C 	0.46787 0.75407 0.89899 -0.00200
C 	C 	0.46756 0.78946 0.81982 -0.11300
C 	C 	0.47398 0.66018 0.93976 0.30900
C 	C 	0.46360 0.88420 0.65830 0.22400
C 	C 	0.48040 0.94720 0.56920 -0.01900
C 	C 	0.75407 0.87907 0.89899 0.00100
C 	C 	0.78946 0.92316 0.81982 -0.11500
C 	C 	0.66018 0.92608 0.93976 0.29400
C 	C 	0.88420 0.99390 0.65830 0.21300
C 	C 	0.94720 0.00320 0.56920 -0.01200
C 	C 	0.12093 0.24593 0.10101 0.00100
C 	C 	0.07684 0.21054 0.18018 -0.11500
C 	C 	0.07392 0.33982 0.06024 0.29400
C 	C 	0.00610 0.11580 0.34170 0.21300
C 	C 	0.99680 0.05280 0.43080 -0.01200
C 	C 	0.53213 0.12093 0.10101 -0.00000
C 	C 	0.53244 0.07684 0.18018 -0.11400
C 	C 	0.52602 0.07392 0.06024 0.29900
C 	C 	0.53640 0.00610 0.34170 0.22000
C 	C 	0.51960 0.99680 0.43080 -0.01300
C 	C 	0.24593 0.53213 0.10101 -0.00200
C 	C 	0.21054 0.53244 0.18018 -0.11300
C 	C 	0.33982 0.52602 0.06024 0.30900
C 	C 	0.11580 0.53640 0.34170 0.22400
C 	C 	0.05280 0.51960 0.43080 -0.01900
C 	C 	0.12093 0.53213 0.10101 -0.00000
C 	C 	0.07684 0.53244 0.18018 -0.11400
C 	C 	0.07392 0.52602 0.06024 0.29900
C 	C 	0.00610 0.53640 0.34170 0.22000
C 	C 	0.99680 0.51960 0.43080 -0.01300
C 	C 	0.53213 0.24593 0.10101 -0.00200
C 	C 	0.53244 0.21054 0.18018 -0.11300
C 	C 	0.52602 0.33982 0.06024 0.30900
C 	C 	0.53640 0.11580 0.34170 0.22400
C 	C 	0.51960 0.05280 0.43080 -0.01900
C 	C 	0.24593 0.12093 0.10101 0.00100
C 	C 	0.21054 0.07684 0.18018 -0.11500
C 	C 	0.33982 0.07392 0.06024 0.29400
C 	C 	0.11580 0.00610 0.34170 0.21300
C 	C 	0.05280 0.99680 0.43080 -0.01200
C 	C 	0.87907 0.75407 0.89899 0.00100
C 	C 	0.92316 0.78946 0.81982 -0.11500
C 	C 	0.92608 0.66018 0.93976 0.29400
C 	C 	0.99390 0.88420 0.65830 0.21300
C 	C 	0.00320 0.94720 0.56920 -0.01200
C 	C 	0.46787 0.87907 0.89899 -0.00000
C 	C 	0.46756 0.92316 0.81982 -0.11400
C 	C 	0.47398 0.92608 0.93976 0.29900
C 	C 	0.46360 0.99390 0.65830 0.22000
C 	C 	0.48040 0.00320 0.56920 -0.01300
C 	C 	0.75407 0.46787 0.89899 -0.00200
C 	C 	0.78946 0.46756 0.81982 -0.11300
C 	C 	0.66018 0.47398 0.93976 0.30900
C 	C 	0.88420 0.46360 0.65830 0.22400
C 	C 	0.94720 0.48040 0.56920 -0.01900
C 	C 	0.79556 0.46726 0.94162 -0.05000
C 	C 	0.87500 0.46720 0.78280 0.13800
C 	C 	0.46726 0.79556 0.94162 -0.05000
C 	C 	0.46720 0.87500 0.78280 0.13800
C 	C 	0.79556 0.79556 0.94162 -0.05300
C 	C 	0.87500 0.87500 0.78280 0.13700
C 	C 	0.20444 0.20444 0.05838 -0.05300
C 	C 	0.12500 0.12500 0.21720 0.13700
C 	C 	0.53274 0.20444 0.05838 -0.05000
C 	C 	0.53280 0.12500 0.21720 0.13800
C 	C 	0.20444 0.53274 0.05838 -0.05000
C 	C 	0.12500 0.53280 0.21720 0.13800
C 	C 	0.07680 0.50000 0.50000 -0.03000
C 	C 	0.50000 0.92320 0.50000 -0.03000
C 	C 	0.92320 0.07680 0.50000 -0.03200
C 	C 	0.92320 0.50000 0.50000 -0.03000
C 	C 	0.50000 0.07680 0.50000 -0.03000
C 	C 	0.07680 0.92320 0.50000 -0.03200
N 	N 	0.91540 0.47730 0.69190 -0.21000
N 	N 	0.47730 0.91540 0.69190 -0.21000
N 	N 	0.91540 0.91540 0.69190 -0.20700
N 	N 	0.08460 0.08460 0.30810 -0.20700
N 	N 	0.52270 0.08460 0.30810 -0.21000
N 	N 	0.08460 0.52270 0.30810 -0.21000
O 	O 	0.00085 0.47765 0.89785 -0.37400
O 	O 	0.88533 0.47913 0.01071 -0.37600
O 	O 	0.05000 0.47000 0.67000 -0.21000
O 	O 	0.47765 0.62365 0.89785 -0.38000
O 	O 	0.47913 0.62483 0.01071 -0.38000
O 	O 	0.47000 0.81000 0.67000 -0.21300
O 	O 	0.62365 0.00085 0.89785 -0.37200
O 	O 	0.62483 0.88533 0.01071 -0.37300
O 	O 	0.81000 0.05000 0.67000 -0.20600
O 	O 	0.99915 0.37635 0.10215 -0.37200
O 	O 	0.11467 0.37517 0.98929 -0.37300
O 	O 	0.95000 0.19000 0.33000 -0.20600
O 	O 	0.52235 0.99915 0.10215 -0.37400
O 	O 	0.52087 0.11467 0.98929 -0.37600
O 	O 	0.53000 0.95000 0.33000 -0.21000
O 	O 	0.37635 0.52235 0.10215 -0.38000
O 	O 	0.37517 0.52087 0.98929 -0.38000
O 	O 	0.19000 0.53000 0.33000 -0.21300
O 	O 	0.99915 0.52235 0.10215 -0.37400
O 	O 	0.11467 0.52087 0.98929 -0.37600
O 	O 	0.95000 0.53000 0.33000 -0.21000
O 	O 	0.52235 0.37635 0.10215 -0.38000
O 	O 	0.52087 0.37517 0.98929 -0.38000
O 	O 	0.53000 0.19000 0.33000 -0.21300
O 	O 	0.37635 0.99915 0.10215 -0.37200
O 	O 	0.37517 0.11467 0.98929 -0.37300
O 	O 	0.19000 0.95000 0.33000 -0.20600
O 	O 	0.00085 0.62365 0.89785 -0.37200
O 	O 	0.88533 0.62483 0.01071 -0.37300
O 	O 	0.05000 0.81000 0.67000 -0.20600
O 	O 	0.47765 0.00085 0.89785 -0.37400
O 	O 	0.47913 0.88533 0.01071 -0.37600
O 	O 	0.47000 0.05000 0.67000 -0.21000
O 	O 	0.62365 0.47765 0.89785 -0.38000
O 	O 	0.62483 0.47913 0.01071 -0.38000
O 	O 	0.81000 0.47000 0.67000 -0.21300
