data_crystal

_cell_length_a 30.46380
_cell_length_b 30.46380
_cell_length_c 44.27720
_cell_angle_alpha 90.00000
_cell_angle_beta  90.00000
_cell_angle_gamma 90.00000

_symmetry_space_group_name_	'P 1'
_symmetry_space_group_name_H-M	'P 1'

loop_
_symmetry_equiv_pos_as_xyz
  x,y,z

loop_
_atom_site_label
_atom_site_type_symbol
_atom_site_fract_x
_atom_site_fract_y
_atom_site_fract_z
_atom_site_charge
Cu	Cu	0.09764 0.84406 0.62788 0.90500
Cu	Cu	0.13100 0.79193 0.66983 0.90500
O 	O 	0.11503 0.31973 0.53131 -0.40700
O 	O 	0.10061 0.24771 0.53080 -0.40100
O 	O 	0.16474 0.15495 0.60870 -0.40800
O 	O 	0.20437 0.18462 0.64602 -0.40500
O 	O 	0.29642 0.42772 0.81228 -0.39900
O 	O 	0.34482 0.45376 0.84601 -0.40500
O 	O 	0.37612 0.60916 0.84783 -0.40700
O 	O 	0.35214 0.65313 0.81072 -0.40400
O 	O 	0.10966 0.74501 0.64319 -0.39600
O 	O 	0.07641 0.78957 0.61013 -0.40600
O 	O 	0.98614 0.72839 0.53100 -0.40900
O 	O 	0.97174 0.65623 0.53063 -0.40500
O 	O 	0.16550 0.39277 0.60570 -0.25600
O 	O 	0.27393 0.48517 0.72033 -0.26300
O 	O 	0.13720 0.60880 0.63557 -0.25900
N 	N 	0.21853 0.34336 0.61776 -0.25700
H 	H 	0.24390 0.33930 0.62690 0.12800
N 	N 	0.22430 0.41353 0.63279 -0.29100
H 	H 	0.25080 0.40570 0.63850 0.13700
N 	N 	0.27600 0.55492 0.73918 -0.25500
H 	H 	0.26800 0.58210 0.73540 0.12800
N 	N 	0.24280 0.54180 0.69478 -0.29000
H 	H 	0.24080 0.57060 0.69430 0.13500
N 	N 	0.13520 0.54160 0.61467 -0.28500
H 	H 	0.12150 0.52450 0.60170 0.13600
N 	N 	0.08890 0.59370 0.59741 -0.25300
H 	H 	0.07660 0.57230 0.58710 0.12800
C 	C 	0.11931 0.28156 0.54120 0.34700
C 	C 	0.18336 0.18611 0.62151 0.34900
C 	C 	0.14998 0.27502 0.56683 -0.04300
C 	C 	0.15470 0.23365 0.58018 -0.00800
H 	H 	0.14030 0.20870 0.57190 0.06500
C 	C 	0.18089 0.22965 0.60591 -0.04200
C 	C 	0.20220 0.26554 0.61750 -0.09100
H 	H 	0.21990 0.26240 0.63500 0.07900
C 	C 	0.19820 0.30704 0.60379 0.13300
C 	C 	0.17271 0.31111 0.57808 -0.08900
H 	H 	0.17070 0.33860 0.56810 0.09600
C 	C 	0.32026 0.45717 0.82357 0.34400
C 	C 	0.35705 0.61673 0.82364 0.34800
C 	C 	0.32077 0.50100 0.80797 -0.03200
C 	C 	0.34041 0.53617 0.82116 -0.01600
H 	H 	0.35580 0.53260 0.83960 0.06800
C 	C 	0.33810 0.57725 0.80782 -0.03200
C 	C 	0.31720 0.58228 0.78054 -0.10500
H 	H 	0.31620 0.61030 0.77120 0.08300
C 	C 	0.29770 0.54713 0.76686 0.14300
C 	C 	0.29870 0.50583 0.78079 -0.09800
H 	H 	0.28440 0.48140 0.77170 0.10300
C 	C 	0.08622 0.75257 0.62012 0.34500
C 	C 	0.99092 0.68975 0.53994 0.35300
C 	C 	0.07064 0.71397 0.60293 -0.04100
C 	C 	0.04095 0.71953 0.57937 -0.00700
H 	H 	0.03200 0.74830 0.57380 0.06500
C 	C 	0.02458 0.68395 0.56420 -0.04400
C 	C 	0.03960 0.64125 0.57126 -0.09200
H 	H 	0.02810 0.61620 0.56120 0.07700
C 	C 	0.07180 0.63690 0.59333 0.13400
C 	C 	0.08560 0.67288 0.61012 -0.09500
H 	H 	0.10530 0.66900 0.62650 0.10600
C 	C 	0.20110 0.38360 0.61780 0.31700
C 	C 	0.26650 0.52440 0.71796 0.31500
C 	C 	0.12240 0.58340 0.61590 0.31100
C 	C 	0.21100 0.45640 0.64048 0.31500
C 	C 	0.23190 0.47630 0.66412 -0.38100
H 	H 	0.25350 0.46100 0.67540 0.18200
C 	C 	0.22120 0.51870 0.67125 0.34900
C 	C 	0.19250 0.54120 0.65472 -0.40200
H 	H 	0.18840 0.57160 0.65860 0.18800
C 	C 	0.16930 0.52180 0.63260 0.32000
C 	C 	0.17990 0.47900 0.62305 -0.34000
H 	H 	0.16680 0.46610 0.60570 0.16700
Cu	Cu	0.59764 0.34406 0.12788 0.90600
Cu	Cu	0.63100 0.29193 0.16983 0.90600
O 	O 	0.61503 0.81973 0.03131 -0.40700
O 	O 	0.60061 0.74771 0.03080 -0.40100
O 	O 	0.66474 0.65495 0.10870 -0.40700
O 	O 	0.70437 0.68462 0.14602 -0.40400
O 	O 	0.79642 0.92772 0.31228 -0.39800
O 	O 	0.84482 0.95376 0.34601 -0.40500
O 	O 	0.87612 0.10916 0.34783 -0.40700
O 	O 	0.85214 0.15313 0.31072 -0.40400
O 	O 	0.60966 0.24501 0.14319 -0.39600
O 	O 	0.57641 0.28957 0.11013 -0.40600
O 	O 	0.48614 0.22839 0.03100 -0.41000
O 	O 	0.47174 0.15623 0.03063 -0.40600
O 	O 	0.66550 0.89277 0.10570 -0.25600
O 	O 	0.77393 0.98517 0.22033 -0.26300
O 	O 	0.63720 0.10880 0.13557 -0.25900
N 	N 	0.71853 0.84336 0.11776 -0.25700
H 	H 	0.74390 0.83930 0.12690 0.12800
N 	N 	0.72430 0.91353 0.13279 -0.29100
H 	H 	0.75080 0.90570 0.13850 0.13700
N 	N 	0.77600 0.05492 0.23918 -0.25500
H 	H 	0.76800 0.08210 0.23540 0.12800
N 	N 	0.74280 0.04180 0.19478 -0.29000
H 	H 	0.74080 0.07060 0.19430 0.13500
N 	N 	0.63520 0.04160 0.11467 -0.28500
H 	H 	0.62150 0.02450 0.10170 0.13600
N 	N 	0.58890 0.09370 0.09741 -0.25300
H 	H 	0.57660 0.07230 0.08710 0.12700
C 	C 	0.61931 0.78156 0.04120 0.34800
C 	C 	0.68336 0.68611 0.12151 0.34900
C 	C 	0.64998 0.77502 0.06683 -0.04400
C 	C 	0.65470 0.73365 0.08018 -0.00800
H 	H 	0.64030 0.70870 0.07190 0.06400
C 	C 	0.68089 0.72965 0.10591 -0.04200
C 	C 	0.70220 0.76554 0.11750 -0.09100
H 	H 	0.71990 0.76240 0.13500 0.07900
C 	C 	0.69820 0.80704 0.10379 0.13300
C 	C 	0.67271 0.81111 0.07808 -0.08900
H 	H 	0.67070 0.83860 0.06810 0.09600
C 	C 	0.82026 0.95717 0.32357 0.34400
C 	C 	0.85705 0.11673 0.32364 0.34800
C 	C 	0.82077 0.00100 0.30797 -0.03300
C 	C 	0.84041 0.03617 0.32116 -0.01600
H 	H 	0.85580 0.03260 0.33960 0.06800
C 	C 	0.83810 0.07725 0.30782 -0.03200
C 	C 	0.81720 0.08228 0.28054 -0.10500
H 	H 	0.81620 0.11030 0.27120 0.08300
C 	C 	0.79770 0.04713 0.26686 0.14300
C 	C 	0.79870 0.00583 0.28079 -0.09800
H 	H 	0.78440 0.98140 0.27170 0.10300
C 	C 	0.58622 0.25257 0.12012 0.34500
C 	C 	0.49092 0.18975 0.03994 0.35400
C 	C 	0.57064 0.21397 0.10293 -0.04200
C 	C 	0.54095 0.21953 0.07937 -0.00700
H 	H 	0.53200 0.24830 0.07380 0.06400
C 	C 	0.52458 0.18395 0.06420 -0.04400
C 	C 	0.53960 0.14125 0.07126 -0.09200
H 	H 	0.52810 0.11620 0.06120 0.07600
C 	C 	0.57180 0.13690 0.09333 0.13300
C 	C 	0.58560 0.17288 0.11012 -0.09500
H 	H 	0.60530 0.16900 0.12650 0.10600
C 	C 	0.70110 0.88360 0.11780 0.31700
C 	C 	0.76650 0.02440 0.21796 0.31500
C 	C 	0.62240 0.08340 0.11590 0.31100
C 	C 	0.71100 0.95640 0.14048 0.31500
C 	C 	0.73190 0.97630 0.16412 -0.38100
H 	H 	0.75350 0.96100 0.17540 0.18200
C 	C 	0.72120 0.01870 0.17125 0.34900
C 	C 	0.69250 0.04120 0.15472 -0.40200
H 	H 	0.68840 0.07160 0.15860 0.18800
C 	C 	0.66930 0.02180 0.13260 0.32000
C 	C 	0.67990 0.97900 0.12305 -0.34000
H 	H 	0.66680 0.96610 0.10570 0.16700
Cu	Cu	0.90236 0.15594 0.62788 0.90600
Cu	Cu	0.86900 0.20807 0.66983 0.90600
O 	O 	0.88497 0.68027 0.53131 -0.40600
O 	O 	0.89939 0.75229 0.53080 -0.40000
O 	O 	0.83526 0.84505 0.60870 -0.40700
O 	O 	0.79563 0.81538 0.64602 -0.40400
O 	O 	0.70358 0.57228 0.81228 -0.39800
O 	O 	0.65518 0.54624 0.84601 -0.40400
O 	O 	0.62388 0.39084 0.84783 -0.40700
O 	O 	0.64786 0.34687 0.81072 -0.40400
O 	O 	0.89034 0.25499 0.64319 -0.39600
O 	O 	0.92359 0.21043 0.61013 -0.40600
O 	O 	0.01386 0.27161 0.53100 -0.40900
O 	O 	0.02826 0.34377 0.53063 -0.40500
O 	O 	0.83450 0.60723 0.60570 -0.25600
O 	O 	0.72607 0.51483 0.72033 -0.26300
O 	O 	0.86280 0.39120 0.63557 -0.25900
N 	N 	0.78147 0.65664 0.61776 -0.25700
H 	H 	0.75610 0.66070 0.62690 0.12800
N 	N 	0.77570 0.58647 0.63279 -0.29100
H 	H 	0.74920 0.59430 0.63850 0.13700
N 	N 	0.72400 0.44508 0.73918 -0.25500
H 	H 	0.73200 0.41790 0.73540 0.12800
N 	N 	0.75720 0.45820 0.69478 -0.29000
H 	H 	0.75920 0.42940 0.69430 0.13500
N 	N 	0.86480 0.45840 0.61467 -0.28500
H 	H 	0.87850 0.47550 0.60170 0.13600
N 	N 	0.91110 0.40630 0.59741 -0.25300
H 	H 	0.92340 0.42770 0.58710 0.12800
C 	C 	0.88069 0.71844 0.54120 0.34700
C 	C 	0.81664 0.81389 0.62151 0.34900
C 	C 	0.85002 0.72498 0.56683 -0.04300
C 	C 	0.84530 0.76635 0.58018 -0.00800
H 	H 	0.85970 0.79130 0.57190 0.06500
C 	C 	0.81911 0.77035 0.60591 -0.04200
C 	C 	0.79780 0.73446 0.61750 -0.09100
H 	H 	0.78010 0.73760 0.63500 0.07900
C 	C 	0.80180 0.69296 0.60379 0.13300
C 	C 	0.82729 0.68889 0.57808 -0.08900
H 	H 	0.82930 0.66140 0.56810 0.09600
C 	C 	0.67974 0.54283 0.82357 0.34400
C 	C 	0.64295 0.38327 0.82364 0.34800
C 	C 	0.67923 0.49900 0.80797 -0.03200
C 	C 	0.65959 0.46383 0.82116 -0.01600
H 	H 	0.64420 0.46740 0.83960 0.06800
C 	C 	0.66190 0.42275 0.80782 -0.03200
C 	C 	0.68280 0.41772 0.78054 -0.10500
H 	H 	0.68380 0.38970 0.77120 0.08300
C 	C 	0.70230 0.45287 0.76686 0.14300
C 	C 	0.70130 0.49417 0.78079 -0.09800
H 	H 	0.71560 0.51860 0.77170 0.10300
C 	C 	0.91378 0.24743 0.62012 0.34500
C 	C 	0.00908 0.31025 0.53994 0.35300
C 	C 	0.92936 0.28603 0.60293 -0.04100
C 	C 	0.95905 0.28047 0.57937 -0.00700
H 	H 	0.96800 0.25170 0.57380 0.06500
C 	C 	0.97542 0.31605 0.56420 -0.04400
C 	C 	0.96040 0.35875 0.57126 -0.09200
H 	H 	0.97190 0.38380 0.56120 0.07700
C 	C 	0.92820 0.36310 0.59333 0.13400
C 	C 	0.91440 0.32712 0.61012 -0.09500
H 	H 	0.89470 0.33100 0.62650 0.10600
C 	C 	0.79890 0.61640 0.61780 0.31700
C 	C 	0.73350 0.47560 0.71796 0.31500
C 	C 	0.87760 0.41660 0.61590 0.31100
C 	C 	0.78900 0.54360 0.64048 0.31500
C 	C 	0.76810 0.52370 0.66412 -0.38100
H 	H 	0.74650 0.53900 0.67540 0.18200
C 	C 	0.77880 0.48130 0.67125 0.34900
C 	C 	0.80750 0.45880 0.65472 -0.40200
H 	H 	0.81160 0.42840 0.65860 0.18800
C 	C 	0.83070 0.47820 0.63260 0.32000
C 	C 	0.82010 0.52100 0.62305 -0.34000
H 	H 	0.83320 0.53390 0.60570 0.16700
Cu	Cu	0.40236 0.65594 0.12788 0.90600
Cu	Cu	0.36900 0.70807 0.16983 0.90600
O 	O 	0.38497 0.18027 0.03131 -0.40700
O 	O 	0.39939 0.25229 0.03080 -0.40100
O 	O 	0.33526 0.34505 0.10870 -0.40700
O 	O 	0.29563 0.31538 0.14602 -0.40400
O 	O 	0.20358 0.07228 0.31228 -0.39800
O 	O 	0.15518 0.04624 0.34601 -0.40500
O 	O 	0.12388 0.89084 0.34783 -0.40700
O 	O 	0.14786 0.84687 0.31072 -0.40400
O 	O 	0.39034 0.75499 0.14319 -0.39600
O 	O 	0.42359 0.71043 0.11013 -0.40600
O 	O 	0.51386 0.77161 0.03100 -0.41000
O 	O 	0.52826 0.84377 0.03063 -0.40600
O 	O 	0.33450 0.10723 0.10570 -0.25600
O 	O 	0.22607 0.01483 0.22033 -0.26300
O 	O 	0.36280 0.89120 0.13557 -0.25900
N 	N 	0.28147 0.15664 0.11776 -0.25700
H 	H 	0.25610 0.16070 0.12690 0.12800
N 	N 	0.27570 0.08647 0.13279 -0.29100
H 	H 	0.24920 0.09430 0.13850 0.13700
N 	N 	0.22400 0.94508 0.23918 -0.25500
H 	H 	0.23200 0.91790 0.23540 0.12800
N 	N 	0.25720 0.95820 0.19478 -0.29000
H 	H 	0.25920 0.92940 0.19430 0.13500
N 	N 	0.36480 0.95840 0.11467 -0.28500
H 	H 	0.37850 0.97550 0.10170 0.13600
N 	N 	0.41110 0.90630 0.09741 -0.25300
H 	H 	0.42340 0.92770 0.08710 0.12700
C 	C 	0.38069 0.21844 0.04120 0.34800
C 	C 	0.31664 0.31389 0.12151 0.34900
C 	C 	0.35002 0.22498 0.06683 -0.04400
C 	C 	0.34530 0.26635 0.08018 -0.00800
H 	H 	0.35970 0.29130 0.07190 0.06400
C 	C 	0.31911 0.27035 0.10591 -0.04200
C 	C 	0.29780 0.23446 0.11750 -0.09100
H 	H 	0.28010 0.23760 0.13500 0.07900
C 	C 	0.30180 0.19296 0.10379 0.13300
C 	C 	0.32729 0.18889 0.07808 -0.08900
H 	H 	0.32930 0.16140 0.06810 0.09600
C 	C 	0.17974 0.04283 0.32357 0.34400
C 	C 	0.14295 0.88327 0.32364 0.34800
C 	C 	0.17923 0.99900 0.30797 -0.03300
C 	C 	0.15959 0.96383 0.32116 -0.01600
H 	H 	0.14420 0.96740 0.33960 0.06800
C 	C 	0.16190 0.92275 0.30782 -0.03200
C 	C 	0.18280 0.91772 0.28054 -0.10500
H 	H 	0.18380 0.88970 0.27120 0.08300
C 	C 	0.20230 0.95287 0.26686 0.14300
C 	C 	0.20130 0.99417 0.28079 -0.09800
H 	H 	0.21560 0.01860 0.27170 0.10300
C 	C 	0.41378 0.74743 0.12012 0.34500
C 	C 	0.50908 0.81025 0.03994 0.35400
C 	C 	0.42936 0.78603 0.10293 -0.04200
C 	C 	0.45905 0.78047 0.07937 -0.00700
H 	H 	0.46800 0.75170 0.07380 0.06400
C 	C 	0.47542 0.81605 0.06420 -0.04400
C 	C 	0.46040 0.85875 0.07126 -0.09200
H 	H 	0.47190 0.88380 0.06120 0.07600
C 	C 	0.42820 0.86310 0.09333 0.13300
C 	C 	0.41440 0.82712 0.11012 -0.09500
H 	H 	0.39470 0.83100 0.12650 0.10600
C 	C 	0.29890 0.11640 0.11780 0.31700
C 	C 	0.23350 0.97560 0.21796 0.31500
C 	C 	0.37760 0.91660 0.11590 0.31100
C 	C 	0.28900 0.04360 0.14048 0.31500
C 	C 	0.26810 0.02370 0.16412 -0.38100
H 	H 	0.24650 0.03900 0.17540 0.18200
C 	C 	0.27880 0.98130 0.17125 0.34900
C 	C 	0.30750 0.95880 0.15472 -0.40200
H 	H 	0.31160 0.92840 0.15860 0.18800
C 	C 	0.33070 0.97820 0.13260 0.32000
C 	C 	0.32010 0.02100 0.12305 -0.34000
H 	H 	0.33320 0.03390 0.10570 0.16700
Cu	Cu	0.15594 0.09764 0.62788 0.90600
Cu	Cu	0.20807 0.13100 0.66983 0.90600
O 	O 	0.68027 0.11503 0.53131 -0.40600
O 	O 	0.75229 0.10061 0.53080 -0.40000
O 	O 	0.84505 0.16474 0.60870 -0.40700
O 	O 	0.81538 0.20437 0.64602 -0.40400
O 	O 	0.57228 0.29642 0.81228 -0.39800
O 	O 	0.54624 0.34482 0.84601 -0.40400
O 	O 	0.39084 0.37612 0.84783 -0.40700
O 	O 	0.34687 0.35214 0.81072 -0.40400
O 	O 	0.25499 0.10966 0.64319 -0.39600
O 	O 	0.21043 0.07641 0.61013 -0.40600
O 	O 	0.27161 0.98614 0.53100 -0.40900
O 	O 	0.34377 0.97174 0.53063 -0.40500
O 	O 	0.60723 0.16550 0.60570 -0.25600
O 	O 	0.51483 0.27393 0.72033 -0.26300
O 	O 	0.39120 0.13720 0.63557 -0.25900
N 	N 	0.65664 0.21853 0.61776 -0.25700
H 	H 	0.66070 0.24390 0.62690 0.12800
N 	N 	0.58647 0.22430 0.63279 -0.29100
H 	H 	0.59430 0.25080 0.63850 0.13700
N 	N 	0.44508 0.27600 0.73918 -0.25500
H 	H 	0.41790 0.26800 0.73540 0.12800
N 	N 	0.45820 0.24280 0.69478 -0.29000
H 	H 	0.42940 0.24080 0.69430 0.13500
N 	N 	0.45840 0.13520 0.61467 -0.28500
H 	H 	0.47550 0.12150 0.60170 0.13600
N 	N 	0.40630 0.08890 0.59741 -0.25300
H 	H 	0.42770 0.07660 0.58710 0.12800
C 	C 	0.71844 0.11931 0.54120 0.34700
C 	C 	0.81389 0.18336 0.62151 0.34900
C 	C 	0.72498 0.14998 0.56683 -0.04300
C 	C 	0.76635 0.15470 0.58018 -0.00800
H 	H 	0.79130 0.14030 0.57190 0.06500
C 	C 	0.77035 0.18089 0.60591 -0.04200
C 	C 	0.73446 0.20220 0.61750 -0.09100
H 	H 	0.73760 0.21990 0.63500 0.07900
C 	C 	0.69296 0.19820 0.60379 0.13300
C 	C 	0.68889 0.17271 0.57808 -0.08900
H 	H 	0.66140 0.17070 0.56810 0.09600
C 	C 	0.54283 0.32026 0.82357 0.34400
C 	C 	0.38327 0.35705 0.82364 0.34800
C 	C 	0.49900 0.32077 0.80797 -0.03200
C 	C 	0.46383 0.34041 0.82116 -0.01600
H 	H 	0.46740 0.35580 0.83960 0.06800
C 	C 	0.42275 0.33810 0.80782 -0.03200
C 	C 	0.41772 0.31720 0.78054 -0.10500
H 	H 	0.38970 0.31620 0.77120 0.08300
C 	C 	0.45287 0.29770 0.76686 0.14300
C 	C 	0.49417 0.29870 0.78079 -0.09800
H 	H 	0.51860 0.28440 0.77170 0.10300
C 	C 	0.24743 0.08622 0.62012 0.34500
C 	C 	0.31025 0.99092 0.53994 0.35300
C 	C 	0.28603 0.07064 0.60293 -0.04100
C 	C 	0.28047 0.04095 0.57937 -0.00700
H 	H 	0.25170 0.03200 0.57380 0.06500
C 	C 	0.31605 0.02458 0.56420 -0.04400
C 	C 	0.35875 0.03960 0.57126 -0.09200
H 	H 	0.38380 0.02810 0.56120 0.07700
C 	C 	0.36310 0.07180 0.59333 0.13400
C 	C 	0.32712 0.08560 0.61012 -0.09500
H 	H 	0.33100 0.10530 0.62650 0.10600
C 	C 	0.61640 0.20110 0.61780 0.31700
C 	C 	0.47560 0.26650 0.71796 0.31500
C 	C 	0.41660 0.12240 0.61590 0.31100
C 	C 	0.54360 0.21100 0.64048 0.31500
C 	C 	0.52370 0.23190 0.66412 -0.38100
H 	H 	0.53900 0.25350 0.67540 0.18200
C 	C 	0.48130 0.22120 0.67125 0.34900
C 	C 	0.45880 0.19250 0.65472 -0.40200
H 	H 	0.42840 0.18840 0.65860 0.18800
C 	C 	0.47820 0.16930 0.63260 0.32000
C 	C 	0.52100 0.17990 0.62305 -0.34000
H 	H 	0.53390 0.16680 0.60570 0.16700
Cu	Cu	0.65594 0.59764 0.12788 0.90600
Cu	Cu	0.70807 0.63100 0.16983 0.90600
O 	O 	0.18027 0.61503 0.03131 -0.40700
O 	O 	0.25229 0.60061 0.03080 -0.40100
O 	O 	0.34505 0.66474 0.10870 -0.40700
O 	O 	0.31538 0.70437 0.14602 -0.40400
O 	O 	0.07228 0.79642 0.31228 -0.39800
O 	O 	0.04624 0.84482 0.34601 -0.40500
O 	O 	0.89084 0.87612 0.34783 -0.40700
O 	O 	0.84687 0.85214 0.31072 -0.40400
O 	O 	0.75499 0.60966 0.14319 -0.39600
O 	O 	0.71043 0.57641 0.11013 -0.40600
O 	O 	0.77161 0.48614 0.03100 -0.41000
O 	O 	0.84377 0.47174 0.03063 -0.40600
O 	O 	0.10723 0.66550 0.10570 -0.25600
O 	O 	0.01483 0.77393 0.22033 -0.26300
O 	O 	0.89120 0.63720 0.13557 -0.25900
N 	N 	0.15664 0.71853 0.11776 -0.25700
H 	H 	0.16070 0.74390 0.12690 0.12800
N 	N 	0.08647 0.72430 0.13279 -0.29100
H 	H 	0.09430 0.75080 0.13850 0.13700
N 	N 	0.94508 0.77600 0.23918 -0.25500
H 	H 	0.91790 0.76800 0.23540 0.12800
N 	N 	0.95820 0.74280 0.19478 -0.29000
H 	H 	0.92940 0.74080 0.19430 0.13500
N 	N 	0.95840 0.63520 0.11467 -0.28500
H 	H 	0.97550 0.62150 0.10170 0.13600
N 	N 	0.90630 0.58890 0.09741 -0.25300
H 	H 	0.92770 0.57660 0.08710 0.12700
C 	C 	0.21844 0.61931 0.04120 0.34800
C 	C 	0.31389 0.68336 0.12151 0.34900
C 	C 	0.22498 0.64998 0.06683 -0.04400
C 	C 	0.26635 0.65470 0.08018 -0.00800
H 	H 	0.29130 0.64030 0.07190 0.06400
C 	C 	0.27035 0.68089 0.10591 -0.04200
C 	C 	0.23446 0.70220 0.11750 -0.09100
H 	H 	0.23760 0.71990 0.13500 0.07900
C 	C 	0.19296 0.69820 0.10379 0.13300
C 	C 	0.18889 0.67271 0.07808 -0.08900
H 	H 	0.16140 0.67070 0.06810 0.09600
C 	C 	0.04283 0.82026 0.32357 0.34400
C 	C 	0.88327 0.85705 0.32364 0.34800
C 	C 	0.99900 0.82077 0.30797 -0.03300
C 	C 	0.96383 0.84041 0.32116 -0.01600
H 	H 	0.96740 0.85580 0.33960 0.06800
C 	C 	0.92275 0.83810 0.30782 -0.03200
C 	C 	0.91772 0.81720 0.28054 -0.10500
H 	H 	0.88970 0.81620 0.27120 0.08300
C 	C 	0.95287 0.79770 0.26686 0.14300
C 	C 	0.99417 0.79870 0.28079 -0.09800
H 	H 	0.01860 0.78440 0.27170 0.10300
C 	C 	0.74743 0.58622 0.12012 0.34500
C 	C 	0.81025 0.49092 0.03994 0.35400
C 	C 	0.78603 0.57064 0.10293 -0.04200
C 	C 	0.78047 0.54095 0.07937 -0.00700
H 	H 	0.75170 0.53200 0.07380 0.06400
C 	C 	0.81605 0.52458 0.06420 -0.04400
C 	C 	0.85875 0.53960 0.07126 -0.09200
H 	H 	0.88380 0.52810 0.06120 0.07600
C 	C 	0.86310 0.57180 0.09333 0.13300
C 	C 	0.82712 0.58560 0.11012 -0.09500
H 	H 	0.83100 0.60530 0.12650 0.10600
C 	C 	0.11640 0.70110 0.11780 0.31700
C 	C 	0.97560 0.76650 0.21796 0.31500
C 	C 	0.91660 0.62240 0.11590 0.31100
C 	C 	0.04360 0.71100 0.14048 0.31500
C 	C 	0.02370 0.73190 0.16412 -0.38100
H 	H 	0.03900 0.75350 0.17540 0.18200
C 	C 	0.98130 0.72120 0.17125 0.34900
C 	C 	0.95880 0.69250 0.15472 -0.40200
H 	H 	0.92840 0.68840 0.15860 0.18800
C 	C 	0.97820 0.66930 0.13260 0.32000
C 	C 	0.02100 0.67990 0.12305 -0.34000
H 	H 	0.03390 0.66680 0.10570 0.16700
Cu	Cu	0.84406 0.90236 0.62788 0.90600
Cu	Cu	0.79193 0.86900 0.66983 0.90600
O 	O 	0.31973 0.88497 0.53131 -0.40600
O 	O 	0.24771 0.89939 0.53080 -0.40000
O 	O 	0.15495 0.83526 0.60870 -0.40700
O 	O 	0.18462 0.79563 0.64602 -0.40400
O 	O 	0.42772 0.70358 0.81228 -0.39800
O 	O 	0.45376 0.65518 0.84601 -0.40400
O 	O 	0.60916 0.62388 0.84783 -0.40700
O 	O 	0.65313 0.64786 0.81072 -0.40400
O 	O 	0.74501 0.89034 0.64319 -0.39600
O 	O 	0.78957 0.92359 0.61013 -0.40600
O 	O 	0.72839 0.01386 0.53100 -0.40900
O 	O 	0.65623 0.02826 0.53063 -0.40500
O 	O 	0.39277 0.83450 0.60570 -0.25600
O 	O 	0.48517 0.72607 0.72033 -0.26300
O 	O 	0.60880 0.86280 0.63557 -0.25900
N 	N 	0.34336 0.78147 0.61776 -0.25700
H 	H 	0.33930 0.75610 0.62690 0.12800
N 	N 	0.41353 0.77570 0.63279 -0.29100
H 	H 	0.40570 0.74920 0.63850 0.13700
N 	N 	0.55492 0.72400 0.73918 -0.25500
H 	H 	0.58210 0.73200 0.73540 0.12800
N 	N 	0.54180 0.75720 0.69478 -0.29000
H 	H 	0.57060 0.75920 0.69430 0.13500
N 	N 	0.54160 0.86480 0.61467 -0.28500
H 	H 	0.52450 0.87850 0.60170 0.13600
N 	N 	0.59370 0.91110 0.59741 -0.25300
H 	H 	0.57230 0.92340 0.58710 0.12800
C 	C 	0.28156 0.88069 0.54120 0.34700
C 	C 	0.18611 0.81664 0.62151 0.34900
C 	C 	0.27502 0.85002 0.56683 -0.04300
C 	C 	0.23365 0.84530 0.58018 -0.00800
H 	H 	0.20870 0.85970 0.57190 0.06500
C 	C 	0.22965 0.81911 0.60591 -0.04200
C 	C 	0.26554 0.79780 0.61750 -0.09100
H 	H 	0.26240 0.78010 0.63500 0.07900
C 	C 	0.30704 0.80180 0.60379 0.13300
C 	C 	0.31111 0.82729 0.57808 -0.08900
H 	H 	0.33860 0.82930 0.56810 0.09600
C 	C 	0.45717 0.67974 0.82357 0.34400
C 	C 	0.61673 0.64295 0.82364 0.34800
C 	C 	0.50100 0.67923 0.80797 -0.03200
C 	C 	0.53617 0.65959 0.82116 -0.01600
H 	H 	0.53260 0.64420 0.83960 0.06800
C 	C 	0.57725 0.66190 0.80782 -0.03200
C 	C 	0.58228 0.68280 0.78054 -0.10500
H 	H 	0.61030 0.68380 0.77120 0.08300
C 	C 	0.54713 0.70230 0.76686 0.14300
C 	C 	0.50583 0.70130 0.78079 -0.09800
H 	H 	0.48140 0.71560 0.77170 0.10300
C 	C 	0.75257 0.91378 0.62012 0.34500
C 	C 	0.68975 0.00908 0.53994 0.35300
C 	C 	0.71397 0.92936 0.60293 -0.04100
C 	C 	0.71953 0.95905 0.57937 -0.00700
H 	H 	0.74830 0.96800 0.57380 0.06500
C 	C 	0.68395 0.97542 0.56420 -0.04400
C 	C 	0.64125 0.96040 0.57126 -0.09200
H 	H 	0.61620 0.97190 0.56120 0.07700
C 	C 	0.63690 0.92820 0.59333 0.13400
C 	C 	0.67288 0.91440 0.61012 -0.09500
H 	H 	0.66900 0.89470 0.62650 0.10600
C 	C 	0.38360 0.79890 0.61780 0.31700
C 	C 	0.52440 0.73350 0.71796 0.31500
C 	C 	0.58340 0.87760 0.61590 0.31100
C 	C 	0.45640 0.78900 0.64048 0.31500
C 	C 	0.47630 0.76810 0.66412 -0.38100
H 	H 	0.46100 0.74650 0.67540 0.18200
C 	C 	0.51870 0.77880 0.67125 0.34900
C 	C 	0.54120 0.80750 0.65472 -0.40200
H 	H 	0.57160 0.81160 0.65860 0.18800
C 	C 	0.52180 0.83070 0.63260 0.32000
C 	C 	0.47900 0.82010 0.62305 -0.34000
H 	H 	0.46610 0.83320 0.60570 0.16700
Cu	Cu	0.34406 0.40236 0.12788 0.90600
Cu	Cu	0.29193 0.36900 0.16983 0.90600
O 	O 	0.81973 0.38497 0.03131 -0.40700
O 	O 	0.74771 0.39939 0.03080 -0.40100
O 	O 	0.65495 0.33526 0.10870 -0.40700
O 	O 	0.68462 0.29563 0.14602 -0.40400
O 	O 	0.92772 0.20358 0.31228 -0.39800
O 	O 	0.95376 0.15518 0.34601 -0.40500
O 	O 	0.10916 0.12388 0.34783 -0.40700
O 	O 	0.15313 0.14786 0.31072 -0.40400
O 	O 	0.24501 0.39034 0.14319 -0.39600
O 	O 	0.28957 0.42359 0.11013 -0.40600
O 	O 	0.22839 0.51386 0.03100 -0.41000
O 	O 	0.15623 0.52826 0.03063 -0.40600
O 	O 	0.89277 0.33450 0.10570 -0.25600
O 	O 	0.98517 0.22607 0.22033 -0.26300
O 	O 	0.10880 0.36280 0.13557 -0.25900
N 	N 	0.84336 0.28147 0.11776 -0.25700
H 	H 	0.83930 0.25610 0.12690 0.12800
N 	N 	0.91353 0.27570 0.13279 -0.29100
H 	H 	0.90570 0.24920 0.13850 0.13700
N 	N 	0.05492 0.22400 0.23918 -0.25500
H 	H 	0.08210 0.23200 0.23540 0.12800
N 	N 	0.04180 0.25720 0.19478 -0.29000
H 	H 	0.07060 0.25920 0.19430 0.13500
N 	N 	0.04160 0.36480 0.11467 -0.28500
H 	H 	0.02450 0.37850 0.10170 0.13600
N 	N 	0.09370 0.41110 0.09741 -0.25300
H 	H 	0.07230 0.42340 0.08710 0.12700
C 	C 	0.78156 0.38069 0.04120 0.34800
C 	C 	0.68611 0.31664 0.12151 0.34900
C 	C 	0.77502 0.35002 0.06683 -0.04400
C 	C 	0.73365 0.34530 0.08018 -0.00800
H 	H 	0.70870 0.35970 0.07190 0.06400
C 	C 	0.72965 0.31911 0.10591 -0.04200
C 	C 	0.76554 0.29780 0.11750 -0.09100
H 	H 	0.76240 0.28010 0.13500 0.07900
C 	C 	0.80704 0.30180 0.10379 0.13300
C 	C 	0.81111 0.32729 0.07808 -0.08900
H 	H 	0.83860 0.32930 0.06810 0.09600
C 	C 	0.95717 0.17974 0.32357 0.34400
C 	C 	0.11673 0.14295 0.32364 0.34800
C 	C 	0.00100 0.17923 0.30797 -0.03300
C 	C 	0.03617 0.15959 0.32116 -0.01600
H 	H 	0.03260 0.14420 0.33960 0.06800
C 	C 	0.07725 0.16190 0.30782 -0.03200
C 	C 	0.08228 0.18280 0.28054 -0.10500
H 	H 	0.11030 0.18380 0.27120 0.08300
C 	C 	0.04713 0.20230 0.26686 0.14300
C 	C 	0.00583 0.20130 0.28079 -0.09800
H 	H 	0.98140 0.21560 0.27170 0.10300
C 	C 	0.25257 0.41378 0.12012 0.34500
C 	C 	0.18975 0.50908 0.03994 0.35400
C 	C 	0.21397 0.42936 0.10293 -0.04200
C 	C 	0.21953 0.45905 0.07937 -0.00700
H 	H 	0.24830 0.46800 0.07380 0.06400
C 	C 	0.18395 0.47542 0.06420 -0.04400
C 	C 	0.14125 0.46040 0.07126 -0.09200
H 	H 	0.11620 0.47190 0.06120 0.07600
C 	C 	0.13690 0.42820 0.09333 0.13300
C 	C 	0.17288 0.41440 0.11012 -0.09500
H 	H 	0.16900 0.39470 0.12650 0.10600
C 	C 	0.88360 0.29890 0.11780 0.31700
C 	C 	0.02440 0.23350 0.21796 0.31500
C 	C 	0.08340 0.37760 0.11590 0.31100
C 	C 	0.95640 0.28900 0.14048 0.31500
C 	C 	0.97630 0.26810 0.16412 -0.38100
H 	H 	0.96100 0.24650 0.17540 0.18200
C 	C 	0.01870 0.27880 0.17125 0.34900
C 	C 	0.04120 0.30750 0.15472 -0.40200
H 	H 	0.07160 0.31160 0.15860 0.18800
C 	C 	0.02180 0.33070 0.13260 0.32000
C 	C 	0.97900 0.32010 0.12305 -0.34000
H 	H 	0.96610 0.33320 0.10570 0.16700
Cu	Cu	0.90236 0.15594 0.37212 0.90600
Cu	Cu	0.86900 0.20807 0.33017 0.90600
O 	O 	0.88497 0.68027 0.46869 -0.40600
O 	O 	0.89939 0.75229 0.46920 -0.40000
O 	O 	0.83526 0.84505 0.39130 -0.40700
O 	O 	0.79563 0.81538 0.35398 -0.40400
O 	O 	0.70358 0.57228 0.18772 -0.39800
O 	O 	0.65518 0.54624 0.15399 -0.40500
O 	O 	0.62388 0.39084 0.15217 -0.40700
O 	O 	0.64786 0.34687 0.18928 -0.40400
O 	O 	0.89034 0.25499 0.35681 -0.39600
O 	O 	0.92359 0.21043 0.38987 -0.40600
O 	O 	0.01386 0.27161 0.46900 -0.40900
O 	O 	0.02826 0.34377 0.46937 -0.40500
O 	O 	0.83450 0.60723 0.39430 -0.25600
O 	O 	0.72607 0.51483 0.27967 -0.26300
O 	O 	0.86280 0.39120 0.36443 -0.25900
N 	N 	0.78147 0.65664 0.38224 -0.25700
H 	H 	0.75610 0.66070 0.37310 0.12800
N 	N 	0.77570 0.58647 0.36721 -0.29100
H 	H 	0.74920 0.59430 0.36150 0.13700
N 	N 	0.72400 0.44508 0.26082 -0.25500
H 	H 	0.73200 0.41790 0.26460 0.12800
N 	N 	0.75720 0.45820 0.30522 -0.29000
H 	H 	0.75920 0.42940 0.30570 0.13500
N 	N 	0.86480 0.45840 0.38533 -0.28500
H 	H 	0.87850 0.47550 0.39830 0.13600
N 	N 	0.91110 0.40630 0.40259 -0.25300
H 	H 	0.92340 0.42770 0.41290 0.12800
C 	C 	0.88069 0.71844 0.45880 0.34700
C 	C 	0.81664 0.81389 0.37849 0.34900
C 	C 	0.85002 0.72498 0.43317 -0.04300
C 	C 	0.84530 0.76635 0.41982 -0.00800
H 	H 	0.85970 0.79130 0.42810 0.06500
C 	C 	0.81911 0.77035 0.39409 -0.04200
C 	C 	0.79780 0.73446 0.38250 -0.09100
H 	H 	0.78010 0.73760 0.36500 0.07900
C 	C 	0.80180 0.69296 0.39621 0.13300
C 	C 	0.82729 0.68889 0.42192 -0.08900
H 	H 	0.82930 0.66140 0.43190 0.09600
C 	C 	0.67974 0.54283 0.17643 0.34400
C 	C 	0.64295 0.38327 0.17636 0.34800
C 	C 	0.67923 0.49900 0.19203 -0.03300
C 	C 	0.65959 0.46383 0.17884 -0.01600
H 	H 	0.64420 0.46740 0.16040 0.06800
C 	C 	0.66190 0.42275 0.19218 -0.03200
C 	C 	0.68280 0.41772 0.21946 -0.10500
H 	H 	0.68380 0.38970 0.22880 0.08300
C 	C 	0.70230 0.45287 0.23314 0.14300
C 	C 	0.70130 0.49417 0.21921 -0.09800
H 	H 	0.71560 0.51860 0.22830 0.10300
C 	C 	0.91378 0.24743 0.37988 0.34500
C 	C 	0.00908 0.31025 0.46006 0.35300
C 	C 	0.92936 0.28603 0.39707 -0.04100
C 	C 	0.95905 0.28047 0.42063 -0.00700
H 	H 	0.96800 0.25170 0.42620 0.06500
C 	C 	0.97542 0.31605 0.43580 -0.04400
C 	C 	0.96040 0.35875 0.42874 -0.09200
H 	H 	0.97190 0.38380 0.43880 0.07700
C 	C 	0.92820 0.36310 0.40667 0.13400
C 	C 	0.91440 0.32712 0.38988 -0.09500
H 	H 	0.89470 0.33100 0.37350 0.10700
C 	C 	0.79890 0.61640 0.38220 0.31700
C 	C 	0.73350 0.47560 0.28204 0.31500
C 	C 	0.87760 0.41660 0.38410 0.31100
C 	C 	0.78900 0.54360 0.35952 0.31500
C 	C 	0.76810 0.52370 0.33588 -0.38100
H 	H 	0.74650 0.53900 0.32460 0.18200
C 	C 	0.77880 0.48130 0.32875 0.34900
C 	C 	0.80750 0.45880 0.34528 -0.40200
H 	H 	0.81160 0.42840 0.34140 0.18800
C 	C 	0.83070 0.47820 0.36740 0.32000
C 	C 	0.82010 0.52100 0.37695 -0.34000
H 	H 	0.83320 0.53390 0.39430 0.16700
Cu	Cu	0.40236 0.65594 0.87212 0.90700
Cu	Cu	0.36900 0.70807 0.83017 0.90600
O 	O 	0.38497 0.18027 0.96869 -0.40300
O 	O 	0.39939 0.25229 0.96920 -0.39800
O 	O 	0.33526 0.34505 0.89130 -0.40700
O 	O 	0.29563 0.31538 0.85398 -0.40400
O 	O 	0.20358 0.07228 0.68772 -0.39900
O 	O 	0.15518 0.04624 0.65399 -0.40500
O 	O 	0.12388 0.89084 0.65217 -0.40700
O 	O 	0.14786 0.84687 0.68928 -0.40400
O 	O 	0.39034 0.75499 0.85681 -0.39600
O 	O 	0.42359 0.71043 0.88987 -0.40600
O 	O 	0.51386 0.77161 0.96900 -0.40700
O 	O 	0.52826 0.84377 0.96937 -0.40200
O 	O 	0.33450 0.10723 0.89430 -0.25600
O 	O 	0.22607 0.01483 0.77967 -0.26300
O 	O 	0.36280 0.89120 0.86443 -0.25900
N 	N 	0.28147 0.15664 0.88224 -0.25700
H 	H 	0.25610 0.16070 0.87310 0.12900
N 	N 	0.27570 0.08647 0.86721 -0.29100
H 	H 	0.24920 0.09430 0.86150 0.13700
N 	N 	0.22400 0.94508 0.76082 -0.25500
H 	H 	0.23200 0.91790 0.76460 0.12800
N 	N 	0.25720 0.95820 0.80522 -0.29000
H 	H 	0.25920 0.92940 0.80570 0.13500
N 	N 	0.36480 0.95840 0.88533 -0.28500
H 	H 	0.37850 0.97550 0.89830 0.13600
N 	N 	0.41110 0.90630 0.90259 -0.25300
H 	H 	0.42340 0.92770 0.91290 0.12800
C 	C 	0.38069 0.21844 0.95880 0.34700
C 	C 	0.31664 0.31389 0.87849 0.34900
C 	C 	0.35002 0.22498 0.93317 -0.04200
C 	C 	0.34530 0.26635 0.91982 -0.00900
H 	H 	0.35970 0.29130 0.92810 0.06500
C 	C 	0.31911 0.27035 0.89409 -0.04100
C 	C 	0.29780 0.23446 0.88250 -0.09100
H 	H 	0.28010 0.23760 0.86500 0.07900
C 	C 	0.30180 0.19296 0.89621 0.13400
C 	C 	0.32729 0.18889 0.92192 -0.08900
H 	H 	0.32930 0.16140 0.93190 0.09700
C 	C 	0.17974 0.04283 0.67643 0.34400
C 	C 	0.14295 0.88327 0.67636 0.34800
C 	C 	0.17923 0.99900 0.69203 -0.03300
C 	C 	0.15959 0.96383 0.67884 -0.01600
H 	H 	0.14420 0.96740 0.66040 0.06800
C 	C 	0.16190 0.92275 0.69218 -0.03200
C 	C 	0.18280 0.91772 0.71946 -0.10500
H 	H 	0.18380 0.88970 0.72880 0.08300
C 	C 	0.20230 0.95287 0.73314 0.14300
C 	C 	0.20130 0.99417 0.71921 -0.09800
H 	H 	0.21560 0.01860 0.72830 0.10300
C 	C 	0.41378 0.74743 0.87988 0.34500
C 	C 	0.50908 0.81025 0.96006 0.35300
C 	C 	0.42936 0.78603 0.89707 -0.04100
C 	C 	0.45905 0.78047 0.92063 -0.00800
H 	H 	0.46800 0.75170 0.92620 0.06500
C 	C 	0.47542 0.81605 0.93580 -0.04300
C 	C 	0.46040 0.85875 0.92874 -0.09300
H 	H 	0.47190 0.88380 0.93880 0.07800
C 	C 	0.42820 0.86310 0.90667 0.13500
C 	C 	0.41440 0.82712 0.88988 -0.09600
H 	H 	0.39470 0.83100 0.87350 0.10700
C 	C 	0.29890 0.11640 0.88220 0.31700
C 	C 	0.23350 0.97560 0.78204 0.31500
C 	C 	0.37760 0.91660 0.88410 0.31200
C 	C 	0.28900 0.04360 0.85952 0.31500
C 	C 	0.26810 0.02370 0.83588 -0.38100
H 	H 	0.24650 0.03900 0.82460 0.18200
C 	C 	0.27880 0.98130 0.82875 0.34900
C 	C 	0.30750 0.95880 0.84528 -0.40200
H 	H 	0.31160 0.92840 0.84140 0.18800
C 	C 	0.33070 0.97820 0.86740 0.32100
C 	C 	0.32010 0.02100 0.87695 -0.34000
H 	H 	0.33320 0.03390 0.89430 0.16700
Cu	Cu	0.09764 0.84406 0.37212 0.90600
Cu	Cu	0.13100 0.79193 0.33017 0.90600
O 	O 	0.11503 0.31973 0.46869 -0.40600
O 	O 	0.10061 0.24771 0.46920 -0.40000
O 	O 	0.16474 0.15495 0.39130 -0.40700
O 	O 	0.20437 0.18462 0.35398 -0.40400
O 	O 	0.29642 0.42772 0.18772 -0.39800
O 	O 	0.34482 0.45376 0.15399 -0.40500
O 	O 	0.37612 0.60916 0.15217 -0.40700
O 	O 	0.35214 0.65313 0.18928 -0.40400
O 	O 	0.10966 0.74501 0.35681 -0.39600
O 	O 	0.07641 0.78957 0.38987 -0.40600
O 	O 	0.98614 0.72839 0.46900 -0.40900
O 	O 	0.97174 0.65623 0.46937 -0.40500
O 	O 	0.16550 0.39277 0.39430 -0.25600
O 	O 	0.27393 0.48517 0.27967 -0.26300
O 	O 	0.13720 0.60880 0.36443 -0.25900
N 	N 	0.21853 0.34336 0.38224 -0.25700
H 	H 	0.24390 0.33930 0.37310 0.12800
N 	N 	0.22430 0.41353 0.36721 -0.29100
H 	H 	0.25080 0.40570 0.36150 0.13700
N 	N 	0.27600 0.55492 0.26082 -0.25500
H 	H 	0.26800 0.58210 0.26460 0.12800
N 	N 	0.24280 0.54180 0.30522 -0.29000
H 	H 	0.24080 0.57060 0.30570 0.13500
N 	N 	0.13520 0.54160 0.38533 -0.28500
H 	H 	0.12150 0.52450 0.39830 0.13600
N 	N 	0.08890 0.59370 0.40259 -0.25300
H 	H 	0.07660 0.57230 0.41290 0.12800
C 	C 	0.11931 0.28156 0.45880 0.34700
C 	C 	0.18336 0.18611 0.37849 0.34900
C 	C 	0.14998 0.27502 0.43317 -0.04300
C 	C 	0.15470 0.23365 0.41982 -0.00800
H 	H 	0.14030 0.20870 0.42810 0.06500
C 	C 	0.18089 0.22965 0.39409 -0.04200
C 	C 	0.20220 0.26554 0.38250 -0.09100
H 	H 	0.21990 0.26240 0.36500 0.07900
C 	C 	0.19820 0.30704 0.39621 0.13300
C 	C 	0.17271 0.31111 0.42192 -0.08900
H 	H 	0.17070 0.33860 0.43190 0.09600
C 	C 	0.32026 0.45717 0.17643 0.34400
C 	C 	0.35705 0.61673 0.17636 0.34800
C 	C 	0.32077 0.50100 0.19203 -0.03300
C 	C 	0.34041 0.53617 0.17884 -0.01600
H 	H 	0.35580 0.53260 0.16040 0.06800
C 	C 	0.33810 0.57725 0.19218 -0.03200
C 	C 	0.31720 0.58228 0.21946 -0.10500
H 	H 	0.31620 0.61030 0.22880 0.08300
C 	C 	0.29770 0.54713 0.23314 0.14300
C 	C 	0.29870 0.50583 0.21921 -0.09800
H 	H 	0.28440 0.48140 0.22830 0.10300
C 	C 	0.08622 0.75257 0.37988 0.34500
C 	C 	0.99092 0.68975 0.46006 0.35300
C 	C 	0.07064 0.71397 0.39707 -0.04100
C 	C 	0.04095 0.71953 0.42063 -0.00700
H 	H 	0.03200 0.74830 0.42620 0.06500
C 	C 	0.02458 0.68395 0.43580 -0.04400
C 	C 	0.03960 0.64125 0.42874 -0.09200
H 	H 	0.02810 0.61620 0.43880 0.07700
C 	C 	0.07180 0.63690 0.40667 0.13400
C 	C 	0.08560 0.67288 0.38988 -0.09500
H 	H 	0.10530 0.66900 0.37350 0.10700
C 	C 	0.20110 0.38360 0.38220 0.31700
C 	C 	0.26650 0.52440 0.28204 0.31500
C 	C 	0.12240 0.58340 0.38410 0.31100
C 	C 	0.21100 0.45640 0.35952 0.31500
C 	C 	0.23190 0.47630 0.33588 -0.38100
H 	H 	0.25350 0.46100 0.32460 0.18200
C 	C 	0.22120 0.51870 0.32875 0.34900
C 	C 	0.19250 0.54120 0.34528 -0.40200
H 	H 	0.18840 0.57160 0.34140 0.18800
C 	C 	0.16930 0.52180 0.36740 0.32000
C 	C 	0.17990 0.47900 0.37695 -0.34000
H 	H 	0.16680 0.46610 0.39430 0.16700
Cu	Cu	0.59764 0.34406 0.87212 0.90700
Cu	Cu	0.63100 0.29193 0.83017 0.90600
O 	O 	0.61503 0.81973 0.96869 -0.40300
O 	O 	0.60061 0.74771 0.96920 -0.39800
O 	O 	0.66474 0.65495 0.89130 -0.40700
O 	O 	0.70437 0.68462 0.85398 -0.40400
O 	O 	0.79642 0.92772 0.68772 -0.39900
O 	O 	0.84482 0.95376 0.65399 -0.40500
O 	O 	0.87612 0.10916 0.65217 -0.40700
O 	O 	0.85214 0.15313 0.68928 -0.40400
O 	O 	0.60966 0.24501 0.85681 -0.39600
O 	O 	0.57641 0.28957 0.88987 -0.40600
O 	O 	0.48614 0.22839 0.96900 -0.40700
O 	O 	0.47174 0.15623 0.96937 -0.40200
O 	O 	0.66550 0.89277 0.89430 -0.25600
O 	O 	0.77393 0.98517 0.77967 -0.26300
O 	O 	0.63720 0.10880 0.86443 -0.25900
N 	N 	0.71853 0.84336 0.88224 -0.25700
H 	H 	0.74390 0.83930 0.87310 0.12900
N 	N 	0.72430 0.91353 0.86721 -0.29100
H 	H 	0.75080 0.90570 0.86150 0.13700
N 	N 	0.77600 0.05492 0.76082 -0.25500
H 	H 	0.76800 0.08210 0.76460 0.12800
N 	N 	0.74280 0.04180 0.80522 -0.29000
H 	H 	0.74080 0.07060 0.80570 0.13500
N 	N 	0.63520 0.04160 0.88533 -0.28500
H 	H 	0.62150 0.02450 0.89830 0.13600
N 	N 	0.58890 0.09370 0.90259 -0.25300
H 	H 	0.57660 0.07230 0.91290 0.12800
C 	C 	0.61931 0.78156 0.95880 0.34700
C 	C 	0.68336 0.68611 0.87849 0.34900
C 	C 	0.64998 0.77502 0.93317 -0.04200
C 	C 	0.65470 0.73365 0.91982 -0.00900
H 	H 	0.64030 0.70870 0.92810 0.06500
C 	C 	0.68089 0.72965 0.89409 -0.04100
C 	C 	0.70220 0.76554 0.88250 -0.09100
H 	H 	0.71990 0.76240 0.86500 0.07900
C 	C 	0.69820 0.80704 0.89621 0.13400
C 	C 	0.67271 0.81111 0.92192 -0.08900
H 	H 	0.67070 0.83860 0.93190 0.09700
C 	C 	0.82026 0.95717 0.67643 0.34400
C 	C 	0.85705 0.11673 0.67636 0.34800
C 	C 	0.82077 0.00100 0.69203 -0.03300
C 	C 	0.84041 0.03617 0.67884 -0.01600
H 	H 	0.85580 0.03260 0.66040 0.06800
C 	C 	0.83810 0.07725 0.69218 -0.03200
C 	C 	0.81720 0.08228 0.71946 -0.10500
H 	H 	0.81620 0.11030 0.72880 0.08300
C 	C 	0.79770 0.04713 0.73314 0.14300
C 	C 	0.79870 0.00583 0.71921 -0.09800
H 	H 	0.78440 0.98140 0.72830 0.10300
C 	C 	0.58622 0.25257 0.87988 0.34500
C 	C 	0.49092 0.18975 0.96006 0.35300
C 	C 	0.57064 0.21397 0.89707 -0.04100
C 	C 	0.54095 0.21953 0.92063 -0.00800
H 	H 	0.53200 0.24830 0.92620 0.06500
C 	C 	0.52458 0.18395 0.93580 -0.04300
C 	C 	0.53960 0.14125 0.92874 -0.09300
H 	H 	0.52810 0.11620 0.93880 0.07800
C 	C 	0.57180 0.13690 0.90667 0.13500
C 	C 	0.58560 0.17288 0.88988 -0.09600
H 	H 	0.60530 0.16900 0.87350 0.10700
C 	C 	0.70110 0.88360 0.88220 0.31700
C 	C 	0.76650 0.02440 0.78204 0.31500
C 	C 	0.62240 0.08340 0.88410 0.31200
C 	C 	0.71100 0.95640 0.85952 0.31500
C 	C 	0.73190 0.97630 0.83588 -0.38100
H 	H 	0.75350 0.96100 0.82460 0.18200
C 	C 	0.72120 0.01870 0.82875 0.34900
C 	C 	0.69250 0.04120 0.84528 -0.40200
H 	H 	0.68840 0.07160 0.84140 0.18800
C 	C 	0.66930 0.02180 0.86740 0.32100
C 	C 	0.67990 0.97900 0.87695 -0.34000
H 	H 	0.66680 0.96610 0.89430 0.16700
Cu	Cu	0.84406 0.90236 0.37212 0.90600
Cu	Cu	0.79193 0.86900 0.33017 0.90600
O 	O 	0.31973 0.88497 0.46869 -0.40600
O 	O 	0.24771 0.89939 0.46920 -0.40000
O 	O 	0.15495 0.83526 0.39130 -0.40700
O 	O 	0.18462 0.79563 0.35398 -0.40400
O 	O 	0.42772 0.70358 0.18772 -0.39800
O 	O 	0.45376 0.65518 0.15399 -0.40500
O 	O 	0.60916 0.62388 0.15217 -0.40700
O 	O 	0.65313 0.64786 0.18928 -0.40400
O 	O 	0.74501 0.89034 0.35681 -0.39600
O 	O 	0.78957 0.92359 0.38987 -0.40600
O 	O 	0.72839 0.01386 0.46900 -0.40900
O 	O 	0.65623 0.02826 0.46937 -0.40500
O 	O 	0.39277 0.83450 0.39430 -0.25600
O 	O 	0.48517 0.72607 0.27967 -0.26300
O 	O 	0.60880 0.86280 0.36443 -0.25900
N 	N 	0.34336 0.78147 0.38224 -0.25700
H 	H 	0.33930 0.75610 0.37310 0.12800
N 	N 	0.41353 0.77570 0.36721 -0.29100
H 	H 	0.40570 0.74920 0.36150 0.13700
N 	N 	0.55492 0.72400 0.26082 -0.25500
H 	H 	0.58210 0.73200 0.26460 0.12800
N 	N 	0.54180 0.75720 0.30522 -0.29000
H 	H 	0.57060 0.75920 0.30570 0.13500
N 	N 	0.54160 0.86480 0.38533 -0.28500
H 	H 	0.52450 0.87850 0.39830 0.13600
N 	N 	0.59370 0.91110 0.40259 -0.25300
H 	H 	0.57230 0.92340 0.41290 0.12800
C 	C 	0.28156 0.88069 0.45880 0.34700
C 	C 	0.18611 0.81664 0.37849 0.34900
C 	C 	0.27502 0.85002 0.43317 -0.04300
C 	C 	0.23365 0.84530 0.41982 -0.00800
H 	H 	0.20870 0.85970 0.42810 0.06500
C 	C 	0.22965 0.81911 0.39409 -0.04200
C 	C 	0.26554 0.79780 0.38250 -0.09100
H 	H 	0.26240 0.78010 0.36500 0.07900
C 	C 	0.30704 0.80180 0.39621 0.13300
C 	C 	0.31111 0.82729 0.42192 -0.08900
H 	H 	0.33860 0.82930 0.43190 0.09600
C 	C 	0.45717 0.67974 0.17643 0.34400
C 	C 	0.61673 0.64295 0.17636 0.34800
C 	C 	0.50100 0.67923 0.19203 -0.03300
C 	C 	0.53617 0.65959 0.17884 -0.01600
H 	H 	0.53260 0.64420 0.16040 0.06800
C 	C 	0.57725 0.66190 0.19218 -0.03200
C 	C 	0.58228 0.68280 0.21946 -0.10500
H 	H 	0.61030 0.68380 0.22880 0.08300
C 	C 	0.54713 0.70230 0.23314 0.14300
C 	C 	0.50583 0.70130 0.21921 -0.09800
H 	H 	0.48140 0.71560 0.22830 0.10300
C 	C 	0.75257 0.91378 0.37988 0.34500
C 	C 	0.68975 0.00908 0.46006 0.35300
C 	C 	0.71397 0.92936 0.39707 -0.04100
C 	C 	0.71953 0.95905 0.42063 -0.00700
H 	H 	0.74830 0.96800 0.42620 0.06500
C 	C 	0.68395 0.97542 0.43580 -0.04400
C 	C 	0.64125 0.96040 0.42874 -0.09200
H 	H 	0.61620 0.97190 0.43880 0.07700
C 	C 	0.63690 0.92820 0.40667 0.13400
C 	C 	0.67288 0.91440 0.38988 -0.09500
H 	H 	0.66900 0.89470 0.37350 0.10700
C 	C 	0.38360 0.79890 0.38220 0.31700
C 	C 	0.52440 0.73350 0.28204 0.31500
C 	C 	0.58340 0.87760 0.38410 0.31100
C 	C 	0.45640 0.78900 0.35952 0.31500
C 	C 	0.47630 0.76810 0.33588 -0.38100
H 	H 	0.46100 0.74650 0.32460 0.18200
C 	C 	0.51870 0.77880 0.32875 0.34900
C 	C 	0.54120 0.80750 0.34528 -0.40200
H 	H 	0.57160 0.81160 0.34140 0.18800
C 	C 	0.52180 0.83070 0.36740 0.32000
C 	C 	0.47900 0.82010 0.37695 -0.34000
H 	H 	0.46610 0.83320 0.39430 0.16700
Cu	Cu	0.34406 0.40236 0.87212 0.90700
Cu	Cu	0.29193 0.36900 0.83017 0.90600
O 	O 	0.81973 0.38497 0.96869 -0.40300
O 	O 	0.74771 0.39939 0.96920 -0.39800
O 	O 	0.65495 0.33526 0.89130 -0.40700
O 	O 	0.68462 0.29563 0.85398 -0.40400
O 	O 	0.92772 0.20358 0.68772 -0.39900
O 	O 	0.95376 0.15518 0.65399 -0.40500
O 	O 	0.10916 0.12388 0.65217 -0.40700
O 	O 	0.15313 0.14786 0.68928 -0.40400
O 	O 	0.24501 0.39034 0.85681 -0.39600
O 	O 	0.28957 0.42359 0.88987 -0.40600
O 	O 	0.22839 0.51386 0.96900 -0.40700
O 	O 	0.15623 0.52826 0.96937 -0.40200
O 	O 	0.89277 0.33450 0.89430 -0.25600
O 	O 	0.98517 0.22607 0.77967 -0.26300
O 	O 	0.10880 0.36280 0.86443 -0.25900
N 	N 	0.84336 0.28147 0.88224 -0.25700
H 	H 	0.83930 0.25610 0.87310 0.12900
N 	N 	0.91353 0.27570 0.86721 -0.29100
H 	H 	0.90570 0.24920 0.86150 0.13700
N 	N 	0.05492 0.22400 0.76082 -0.25500
H 	H 	0.08210 0.23200 0.76460 0.12800
N 	N 	0.04180 0.25720 0.80522 -0.29000
H 	H 	0.07060 0.25920 0.80570 0.13500
N 	N 	0.04160 0.36480 0.88533 -0.28500
H 	H 	0.02450 0.37850 0.89830 0.13600
N 	N 	0.09370 0.41110 0.90259 -0.25300
H 	H 	0.07230 0.42340 0.91290 0.12800
C 	C 	0.78156 0.38069 0.95880 0.34700
C 	C 	0.68611 0.31664 0.87849 0.34900
C 	C 	0.77502 0.35002 0.93317 -0.04200
C 	C 	0.73365 0.34530 0.91982 -0.00900
H 	H 	0.70870 0.35970 0.92810 0.06500
C 	C 	0.72965 0.31911 0.89409 -0.04100
C 	C 	0.76554 0.29780 0.88250 -0.09100
H 	H 	0.76240 0.28010 0.86500 0.07900
C 	C 	0.80704 0.30180 0.89621 0.13400
C 	C 	0.81111 0.32729 0.92192 -0.08900
H 	H 	0.83860 0.32930 0.93190 0.09700
C 	C 	0.95717 0.17974 0.67643 0.34400
C 	C 	0.11673 0.14295 0.67636 0.34800
C 	C 	0.00100 0.17923 0.69203 -0.03300
C 	C 	0.03617 0.15959 0.67884 -0.01600
H 	H 	0.03260 0.14420 0.66040 0.06800
C 	C 	0.07725 0.16190 0.69218 -0.03200
C 	C 	0.08228 0.18280 0.71946 -0.10500
H 	H 	0.11030 0.18380 0.72880 0.08300
C 	C 	0.04713 0.20230 0.73314 0.14300
C 	C 	0.00583 0.20130 0.71921 -0.09800
H 	H 	0.98140 0.21560 0.72830 0.10300
C 	C 	0.25257 0.41378 0.87988 0.34500
C 	C 	0.18975 0.50908 0.96006 0.35300
C 	C 	0.21397 0.42936 0.89707 -0.04100
C 	C 	0.21953 0.45905 0.92063 -0.00800
H 	H 	0.24830 0.46800 0.92620 0.06500
C 	C 	0.18395 0.47542 0.93580 -0.04300
C 	C 	0.14125 0.46040 0.92874 -0.09300
H 	H 	0.11620 0.47190 0.93880 0.07800
C 	C 	0.13690 0.42820 0.90667 0.13500
C 	C 	0.17288 0.41440 0.88988 -0.09600
H 	H 	0.16900 0.39470 0.87350 0.10700
C 	C 	0.88360 0.29890 0.88220 0.31700
C 	C 	0.02440 0.23350 0.78204 0.31500
C 	C 	0.08340 0.37760 0.88410 0.31200
C 	C 	0.95640 0.28900 0.85952 0.31500
C 	C 	0.97630 0.26810 0.83588 -0.38100
H 	H 	0.96100 0.24650 0.82460 0.18200
C 	C 	0.01870 0.27880 0.82875 0.34900
C 	C 	0.04120 0.30750 0.84528 -0.40200
H 	H 	0.07160 0.31160 0.84140 0.18800
C 	C 	0.02180 0.33070 0.86740 0.32100
C 	C 	0.97900 0.32010 0.87695 -0.34000
H 	H 	0.96610 0.33320 0.89430 0.16700
Cu	Cu	0.15594 0.09764 0.37212 0.90600
Cu	Cu	0.20807 0.13100 0.33017 0.90600
O 	O 	0.68027 0.11503 0.46869 -0.40600
O 	O 	0.75229 0.10061 0.46920 -0.40000
O 	O 	0.84505 0.16474 0.39130 -0.40700
O 	O 	0.81538 0.20437 0.35398 -0.40400
O 	O 	0.57228 0.29642 0.18772 -0.39800
O 	O 	0.54624 0.34482 0.15399 -0.40500
O 	O 	0.39084 0.37612 0.15217 -0.40700
O 	O 	0.34687 0.35214 0.18928 -0.40400
O 	O 	0.25499 0.10966 0.35681 -0.39600
O 	O 	0.21043 0.07641 0.38987 -0.40600
O 	O 	0.27161 0.98614 0.46900 -0.40900
O 	O 	0.34377 0.97174 0.46937 -0.40500
O 	O 	0.60723 0.16550 0.39430 -0.25600
O 	O 	0.51483 0.27393 0.27967 -0.26300
O 	O 	0.39120 0.13720 0.36443 -0.25900
N 	N 	0.65664 0.21853 0.38224 -0.25700
H 	H 	0.66070 0.24390 0.37310 0.12800
N 	N 	0.58647 0.22430 0.36721 -0.29100
H 	H 	0.59430 0.25080 0.36150 0.13700
N 	N 	0.44508 0.27600 0.26082 -0.25500
H 	H 	0.41790 0.26800 0.26460 0.12800
N 	N 	0.45820 0.24280 0.30522 -0.29000
H 	H 	0.42940 0.24080 0.30570 0.13500
N 	N 	0.45840 0.13520 0.38533 -0.28500
H 	H 	0.47550 0.12150 0.39830 0.13600
N 	N 	0.40630 0.08890 0.40259 -0.25300
H 	H 	0.42770 0.07660 0.41290 0.12800
C 	C 	0.71844 0.11931 0.45880 0.34700
C 	C 	0.81389 0.18336 0.37849 0.34900
C 	C 	0.72498 0.14998 0.43317 -0.04300
C 	C 	0.76635 0.15470 0.41982 -0.00800
H 	H 	0.79130 0.14030 0.42810 0.06500
C 	C 	0.77035 0.18089 0.39409 -0.04200
C 	C 	0.73446 0.20220 0.38250 -0.09100
H 	H 	0.73760 0.21990 0.36500 0.07900
C 	C 	0.69296 0.19820 0.39621 0.13300
C 	C 	0.68889 0.17271 0.42192 -0.08900
H 	H 	0.66140 0.17070 0.43190 0.09600
C 	C 	0.54283 0.32026 0.17643 0.34400
C 	C 	0.38327 0.35705 0.17636 0.34800
C 	C 	0.49900 0.32077 0.19203 -0.03300
C 	C 	0.46383 0.34041 0.17884 -0.01600
H 	H 	0.46740 0.35580 0.16040 0.06800
C 	C 	0.42275 0.33810 0.19218 -0.03200
C 	C 	0.41772 0.31720 0.21946 -0.10500
H 	H 	0.38970 0.31620 0.22880 0.08300
C 	C 	0.45287 0.29770 0.23314 0.14300
C 	C 	0.49417 0.29870 0.21921 -0.09800
H 	H 	0.51860 0.28440 0.22830 0.10300
C 	C 	0.24743 0.08622 0.37988 0.34500
C 	C 	0.31025 0.99092 0.46006 0.35300
C 	C 	0.28603 0.07064 0.39707 -0.04100
C 	C 	0.28047 0.04095 0.42063 -0.00700
H 	H 	0.25170 0.03200 0.42620 0.06500
C 	C 	0.31605 0.02458 0.43580 -0.04400
C 	C 	0.35875 0.03960 0.42874 -0.09200
H 	H 	0.38380 0.02810 0.43880 0.07700
C 	C 	0.36310 0.07180 0.40667 0.13400
C 	C 	0.32712 0.08560 0.38988 -0.09500
H 	H 	0.33100 0.10530 0.37350 0.10700
C 	C 	0.61640 0.20110 0.38220 0.31700
C 	C 	0.47560 0.26650 0.28204 0.31500
C 	C 	0.41660 0.12240 0.38410 0.31100
C 	C 	0.54360 0.21100 0.35952 0.31500
C 	C 	0.52370 0.23190 0.33588 -0.38100
H 	H 	0.53900 0.25350 0.32460 0.18200
C 	C 	0.48130 0.22120 0.32875 0.34900
C 	C 	0.45880 0.19250 0.34528 -0.40200
H 	H 	0.42840 0.18840 0.34140 0.18800
C 	C 	0.47820 0.16930 0.36740 0.32000
C 	C 	0.52100 0.17990 0.37695 -0.34000
H 	H 	0.53390 0.16680 0.39430 0.16700
Cu	Cu	0.65594 0.59764 0.87212 0.90700
Cu	Cu	0.70807 0.63100 0.83017 0.90600
O 	O 	0.18027 0.61503 0.96869 -0.40300
O 	O 	0.25229 0.60061 0.96920 -0.39800
O 	O 	0.34505 0.66474 0.89130 -0.40700
O 	O 	0.31538 0.70437 0.85398 -0.40400
O 	O 	0.07228 0.79642 0.68772 -0.39900
O 	O 	0.04624 0.84482 0.65399 -0.40500
O 	O 	0.89084 0.87612 0.65217 -0.40700
O 	O 	0.84687 0.85214 0.68928 -0.40400
O 	O 	0.75499 0.60966 0.85681 -0.39600
O 	O 	0.71043 0.57641 0.88987 -0.40600
O 	O 	0.77161 0.48614 0.96900 -0.40700
O 	O 	0.84377 0.47174 0.96937 -0.40200
O 	O 	0.10723 0.66550 0.89430 -0.25600
O 	O 	0.01483 0.77393 0.77967 -0.26300
O 	O 	0.89120 0.63720 0.86443 -0.25900
N 	N 	0.15664 0.71853 0.88224 -0.25700
H 	H 	0.16070 0.74390 0.87310 0.12900
N 	N 	0.08647 0.72430 0.86721 -0.29100
H 	H 	0.09430 0.75080 0.86150 0.13700
N 	N 	0.94508 0.77600 0.76082 -0.25500
H 	H 	0.91790 0.76800 0.76460 0.12800
N 	N 	0.95820 0.74280 0.80522 -0.29000
H 	H 	0.92940 0.74080 0.80570 0.13500
N 	N 	0.95840 0.63520 0.88533 -0.28500
H 	H 	0.97550 0.62150 0.89830 0.13600
N 	N 	0.90630 0.58890 0.90259 -0.25300
H 	H 	0.92770 0.57660 0.91290 0.12800
C 	C 	0.21844 0.61931 0.95880 0.34700
C 	C 	0.31389 0.68336 0.87849 0.34900
C 	C 	0.22498 0.64998 0.93317 -0.04200
C 	C 	0.26635 0.65470 0.91982 -0.00900
H 	H 	0.29130 0.64030 0.92810 0.06500
C 	C 	0.27035 0.68089 0.89409 -0.04100
C 	C 	0.23446 0.70220 0.88250 -0.09100
H 	H 	0.23760 0.71990 0.86500 0.07900
C 	C 	0.19296 0.69820 0.89621 0.13400
C 	C 	0.18889 0.67271 0.92192 -0.08900
H 	H 	0.16140 0.67070 0.93190 0.09700
C 	C 	0.04283 0.82026 0.67643 0.34400
C 	C 	0.88327 0.85705 0.67636 0.34800
C 	C 	0.99900 0.82077 0.69203 -0.03300
C 	C 	0.96383 0.84041 0.67884 -0.01600
H 	H 	0.96740 0.85580 0.66040 0.06800
C 	C 	0.92275 0.83810 0.69218 -0.03200
C 	C 	0.91772 0.81720 0.71946 -0.10500
H 	H 	0.88970 0.81620 0.72880 0.08300
C 	C 	0.95287 0.79770 0.73314 0.14300
C 	C 	0.99417 0.79870 0.71921 -0.09800
H 	H 	0.01860 0.78440 0.72830 0.10300
C 	C 	0.74743 0.58622 0.87988 0.34500
C 	C 	0.81025 0.49092 0.96006 0.35300
C 	C 	0.78603 0.57064 0.89707 -0.04100
C 	C 	0.78047 0.54095 0.92063 -0.00800
H 	H 	0.75170 0.53200 0.92620 0.06500
C 	C 	0.81605 0.52458 0.93580 -0.04300
C 	C 	0.85875 0.53960 0.92874 -0.09300
H 	H 	0.88380 0.52810 0.93880 0.07800
C 	C 	0.86310 0.57180 0.90667 0.13500
C 	C 	0.82712 0.58560 0.88988 -0.09600
H 	H 	0.83100 0.60530 0.87350 0.10700
C 	C 	0.11640 0.70110 0.88220 0.31700
C 	C 	0.97560 0.76650 0.78204 0.31500
C 	C 	0.91660 0.62240 0.88410 0.31200
C 	C 	0.04360 0.71100 0.85952 0.31500
C 	C 	0.02370 0.73190 0.83588 -0.38100
H 	H 	0.03900 0.75350 0.82460 0.18200
C 	C 	0.98130 0.72120 0.82875 0.34900
C 	C 	0.95880 0.69250 0.84528 -0.40200
H 	H 	0.92840 0.68840 0.84140 0.18800
C 	C 	0.97820 0.66930 0.86740 0.32100
C 	C 	0.02100 0.67990 0.87695 -0.34000
H 	H 	0.03390 0.66680 0.89430 0.16700
Cu	Cu	0.07384 0.33819 0.50000 0.90800
Cu	Cu	0.05574 0.25309 0.50000 0.90800
Cu	Cu	0.57384 0.83819 -0.00000 0.90500
Cu	Cu	0.55574 0.75309 -0.00000 0.90600
Cu	Cu	0.92616 0.66181 0.50000 0.90800
Cu	Cu	0.94426 0.74691 0.50000 0.90800
Cu	Cu	0.42616 0.16181 -0.00000 0.90500
Cu	Cu	0.44426 0.24691 -0.00000 0.90600
Cu	Cu	0.66181 0.07384 0.50000 0.90800
Cu	Cu	0.74691 0.05574 0.50000 0.90800
Cu	Cu	0.16181 0.57384 -0.00000 0.90500
Cu	Cu	0.24691 0.55574 -0.00000 0.90600
Cu	Cu	0.33819 0.92616 0.50000 0.90800
Cu	Cu	0.25309 0.94426 0.50000 0.90800
Cu	Cu	0.83819 0.42616 -0.00000 0.90500
Cu	Cu	0.75309 0.44426 -0.00000 0.90600
