data_crystal

_cell_length_a 30.59190
_cell_length_b 30.59190
_cell_length_c 44.81810
_cell_angle_alpha 90.00000
_cell_angle_beta  90.00000
_cell_angle_gamma 90.00000

_symmetry_space_group_name_	'P 1'
_symmetry_space_group_name_H-M	'P 1'

loop_
_symmetry_equiv_pos_as_xyz
  x,y,z

loop_
_atom_site_label
_atom_site_type_symbol
_atom_site_fract_x
_atom_site_fract_y
_atom_site_fract_z
_atom_site_charge
Zn	Zn	0.09537 0.84830 0.62816 1.20100
Zn	Zn	0.13349 0.78925 0.67398 1.20000
O 	O 	0.11116 0.31593 0.53174 -0.49800
O 	O 	0.10038 0.24531 0.53162 -0.49500
O 	O 	0.16365 0.15485 0.61041 -0.47900
O 	O 	0.20137 0.18644 0.64731 -0.47600
O 	O 	0.29543 0.42784 0.80985 -0.48000
O 	O 	0.34449 0.45376 0.84158 -0.49000
O 	O 	0.37438 0.60899 0.84462 -0.49800
O 	O 	0.35251 0.65185 0.80731 -0.47200
O 	O 	0.10971 0.74675 0.64305 -0.47300
O 	O 	0.07430 0.79151 0.61196 -0.48700
O 	O 	0.98749 0.72849 0.53103 -0.49900
O 	O 	0.97621 0.65725 0.53072 -0.47800
O 	O 	0.16800 0.39590 0.59980 -0.26700
O 	O 	0.27440 0.48510 0.71751 -0.26800
O 	O 	0.15040 0.61240 0.62940 -0.26700
N 	N 	0.21390 0.34300 0.61793 -0.24900
H 	H 	0.23700 0.33840 0.62910 0.12600
N 	N 	0.22390 0.41200 0.63230 -0.26100
H 	H 	0.24740 0.40140 0.64110 0.12800
N 	N 	0.28170 0.55370 0.73409 -0.24800
H 	H 	0.27610 0.58110 0.72960 0.12100
N 	N 	0.24810 0.54210 0.69097 -0.28400
H 	H 	0.24590 0.57080 0.69120 0.13200
N 	N 	0.14430 0.54410 0.60910 -0.26000
H 	H 	0.13320 0.52900 0.59420 0.12900
N 	N 	0.09990 0.59870 0.59230 -0.23800
H 	H 	0.09420 0.57960 0.57810 0.12200
C 	C 	0.11670 0.27881 0.54158 0.43800
C 	C 	0.17970 0.18750 0.62367 0.39700
C 	C 	0.14650 0.27360 0.56822 -0.09400
C 	C 	0.15140 0.23320 0.58161 0.03600
H 	H 	0.13730 0.20830 0.57340 0.03900
C 	C 	0.17730 0.22920 0.60755 -0.09300
C 	C 	0.19630 0.26480 0.61948 -0.05000
H 	H 	0.21170 0.26260 0.63780 0.06100
C 	C 	0.19310 0.30720 0.60423 0.10300
C 	C 	0.16780 0.30980 0.57872 -0.05600
H 	H 	0.16520 0.33680 0.56840 0.08200
C 	C 	0.31950 0.45720 0.82007 0.41500
C 	C 	0.35590 0.61570 0.82092 0.40400
C 	C 	0.32010 0.50030 0.80475 -0.08600
C 	C 	0.33950 0.53610 0.81837 0.02300
H 	H 	0.35380 0.53310 0.83710 0.04200
C 	C 	0.33770 0.57730 0.80384 -0.07700
C 	C 	0.32010 0.58220 0.77699 -0.06600
H 	H 	0.32070 0.60990 0.76750 0.06500
C 	C 	0.30080 0.54670 0.76270 0.10900
C 	C 	0.30060 0.50520 0.77680 -0.06100
H 	H 	0.28730 0.48090 0.76730 0.08800
C 	C 	0.08510 0.75440 0.62118 0.39700
C 	C 	0.99380 0.69120 0.54050 0.41800
C 	C 	0.07290 0.71610 0.60249 -0.08500
C 	C 	0.04240 0.72090 0.57920 0.03100
H 	H 	0.03130 0.74910 0.57440 0.03900
C 	C 	0.02890 0.68540 0.56375 -0.09100
C 	C 	0.04570 0.64470 0.56980 -0.05600
H 	H 	0.03610 0.61990 0.55880 0.06100
C 	C 	0.07670 0.64010 0.59210 0.09800
C 	C 	0.09080 0.67710 0.60860 -0.05600
H 	H 	0.11240 0.67430 0.62370 0.08700
C 	C 	0.19920 0.38430 0.61440 0.30600
C 	C 	0.27100 0.52400 0.71280 0.32200
C 	C 	0.13040 0.58760 0.61370 0.29600
C 	C 	0.21290 0.45710 0.63724 0.23400
C 	C 	0.23610 0.47570 0.66132 -0.28200
H 	H 	0.25660 0.45930 0.67260 0.14700
C 	C 	0.22710 0.52030 0.66772 0.26000
C 	C 	0.19770 0.54500 0.65185 -0.29500
H 	H 	0.19240 0.57480 0.65670 0.15300
C 	C 	0.17550 0.52430 0.62800 0.23900
C 	C 	0.18190 0.47950 0.61940 -0.26800
H 	H 	0.16670 0.46620 0.60330 0.14400
Zn	Zn	0.59537 0.34830 0.12816 1.20000
Zn	Zn	0.63349 0.28925 0.17398 1.19900
O 	O 	0.61116 0.81593 0.03174 -0.50100
O 	O 	0.60038 0.74531 0.03162 -0.49700
O 	O 	0.66365 0.65485 0.11041 -0.48000
O 	O 	0.70137 0.68644 0.14731 -0.47700
O 	O 	0.79543 0.92784 0.30985 -0.48100
O 	O 	0.84449 0.95376 0.34158 -0.49100
O 	O 	0.87438 0.10899 0.34462 -0.49900
O 	O 	0.85251 0.15185 0.30731 -0.47300
O 	O 	0.60971 0.24675 0.14305 -0.47400
O 	O 	0.57430 0.29151 0.11196 -0.48900
O 	O 	0.48749 0.22849 0.03103 -0.50100
O 	O 	0.47621 0.15725 0.03072 -0.48000
O 	O 	0.66800 0.89590 0.09980 -0.26700
O 	O 	0.77440 0.98510 0.21751 -0.26800
O 	O 	0.65040 0.11240 0.12940 -0.26700
N 	N 	0.71390 0.84300 0.11793 -0.24900
H 	H 	0.73700 0.83840 0.12910 0.12600
N 	N 	0.72390 0.91200 0.13230 -0.26100
H 	H 	0.74740 0.90140 0.14110 0.12800
N 	N 	0.78170 0.05370 0.23409 -0.24800
H 	H 	0.77610 0.08110 0.22960 0.12100
N 	N 	0.74810 0.04210 0.19097 -0.28400
H 	H 	0.74590 0.07080 0.19120 0.13200
N 	N 	0.64430 0.04410 0.10910 -0.26000
H 	H 	0.63320 0.02900 0.09420 0.12800
N 	N 	0.59990 0.09870 0.09230 -0.23700
H 	H 	0.59420 0.07960 0.07810 0.12100
C 	C 	0.61670 0.77881 0.04158 0.43800
C 	C 	0.67970 0.68750 0.12367 0.39700
C 	C 	0.64650 0.77360 0.06822 -0.09500
C 	C 	0.65140 0.73320 0.08161 0.03600
H 	H 	0.63730 0.70830 0.07340 0.03800
C 	C 	0.67730 0.72920 0.10755 -0.09300
C 	C 	0.69630 0.76480 0.11948 -0.05000
H 	H 	0.71170 0.76260 0.13780 0.06100
C 	C 	0.69310 0.80720 0.10423 0.10200
C 	C 	0.66780 0.80980 0.07872 -0.05600
H 	H 	0.66520 0.83680 0.06840 0.08100
C 	C 	0.81950 0.95720 0.32007 0.41500
C 	C 	0.85590 0.11570 0.32092 0.40400
C 	C 	0.82010 0.00030 0.30475 -0.08600
C 	C 	0.83950 0.03610 0.31837 0.02300
H 	H 	0.85380 0.03310 0.33710 0.04200
C 	C 	0.83770 0.07730 0.30384 -0.07700
C 	C 	0.82010 0.08220 0.27699 -0.06600
H 	H 	0.82070 0.10990 0.26750 0.06500
C 	C 	0.80080 0.04670 0.26270 0.10900
C 	C 	0.80060 0.00520 0.27680 -0.06100
H 	H 	0.78730 0.98090 0.26730 0.08800
C 	C 	0.58510 0.25440 0.12118 0.39700
C 	C 	0.49380 0.19120 0.04050 0.41800
C 	C 	0.57290 0.21610 0.10249 -0.08500
C 	C 	0.54240 0.22090 0.07920 0.03200
H 	H 	0.53130 0.24910 0.07440 0.03800
C 	C 	0.52890 0.18540 0.06375 -0.09200
C 	C 	0.54570 0.14470 0.06980 -0.05500
H 	H 	0.53610 0.11990 0.05880 0.06000
C 	C 	0.57670 0.14010 0.09210 0.09800
C 	C 	0.59080 0.17710 0.10860 -0.05500
H 	H 	0.61240 0.17430 0.12370 0.08700
C 	C 	0.69920 0.88430 0.11440 0.30600
C 	C 	0.77100 0.02400 0.21280 0.32200
C 	C 	0.63040 0.08760 0.11370 0.29600
C 	C 	0.71290 0.95710 0.13724 0.23400
C 	C 	0.73610 0.97570 0.16132 -0.28200
H 	H 	0.75660 0.95930 0.17260 0.14700
C 	C 	0.72710 0.02030 0.16772 0.26000
C 	C 	0.69770 0.04500 0.15185 -0.29500
H 	H 	0.69240 0.07480 0.15670 0.15300
C 	C 	0.67550 0.02430 0.12800 0.23900
C 	C 	0.68190 0.97950 0.11940 -0.26800
H 	H 	0.66670 0.96620 0.10330 0.14300
Zn	Zn	0.90463 0.15170 0.62816 1.20000
Zn	Zn	0.86651 0.21075 0.67398 1.19900
O 	O 	0.88884 0.68407 0.53174 -0.49900
O 	O 	0.89962 0.75469 0.53162 -0.49600
O 	O 	0.83635 0.84515 0.61041 -0.48000
O 	O 	0.79863 0.81356 0.64731 -0.47700
O 	O 	0.70457 0.57216 0.80985 -0.48100
O 	O 	0.65551 0.54624 0.84158 -0.49100
O 	O 	0.62562 0.39101 0.84462 -0.49900
O 	O 	0.64749 0.34815 0.80731 -0.47300
O 	O 	0.89029 0.25325 0.64305 -0.47400
O 	O 	0.92570 0.20849 0.61196 -0.48800
O 	O 	0.01251 0.27151 0.53103 -0.49900
O 	O 	0.02379 0.34275 0.53072 -0.47800
O 	O 	0.83200 0.60410 0.59980 -0.26700
O 	O 	0.72560 0.51490 0.71751 -0.26800
O 	O 	0.84960 0.38760 0.62940 -0.26700
N 	N 	0.78610 0.65700 0.61793 -0.24900
H 	H 	0.76300 0.66160 0.62910 0.12600
N 	N 	0.77610 0.58800 0.63230 -0.26100
H 	H 	0.75260 0.59860 0.64110 0.12800
N 	N 	0.71830 0.44630 0.73409 -0.24800
H 	H 	0.72390 0.41890 0.72960 0.12100
N 	N 	0.75190 0.45790 0.69097 -0.28400
H 	H 	0.75410 0.42920 0.69120 0.13200
N 	N 	0.85570 0.45590 0.60910 -0.26000
H 	H 	0.86680 0.47100 0.59420 0.12900
N 	N 	0.90010 0.40130 0.59230 -0.23800
H 	H 	0.90580 0.42040 0.57810 0.12200
C 	C 	0.88330 0.72119 0.54158 0.43800
C 	C 	0.82030 0.81250 0.62367 0.39700
C 	C 	0.85350 0.72640 0.56822 -0.09400
C 	C 	0.84860 0.76680 0.58161 0.03600
H 	H 	0.86270 0.79170 0.57340 0.03900
C 	C 	0.82270 0.77080 0.60755 -0.09300
C 	C 	0.80370 0.73520 0.61948 -0.05000
H 	H 	0.78830 0.73740 0.63780 0.06100
C 	C 	0.80690 0.69280 0.60423 0.10300
C 	C 	0.83220 0.69020 0.57872 -0.05600
H 	H 	0.83480 0.66320 0.56840 0.08200
C 	C 	0.68050 0.54280 0.82007 0.41500
C 	C 	0.64410 0.38430 0.82092 0.40400
C 	C 	0.67990 0.49970 0.80475 -0.08600
C 	C 	0.66050 0.46390 0.81837 0.02300
H 	H 	0.64620 0.46690 0.83710 0.04200
C 	C 	0.66230 0.42270 0.80384 -0.07700
C 	C 	0.67990 0.41780 0.77699 -0.06600
H 	H 	0.67930 0.39010 0.76750 0.06500
C 	C 	0.69920 0.45330 0.76270 0.10900
C 	C 	0.69940 0.49480 0.77680 -0.06100
H 	H 	0.71270 0.51910 0.76730 0.08800
C 	C 	0.91490 0.24560 0.62118 0.39700
C 	C 	0.00620 0.30880 0.54050 0.41800
C 	C 	0.92710 0.28390 0.60249 -0.08500
C 	C 	0.95760 0.27910 0.57920 0.03100
H 	H 	0.96870 0.25090 0.57440 0.03900
C 	C 	0.97110 0.31460 0.56375 -0.09100
C 	C 	0.95430 0.35530 0.56980 -0.05600
H 	H 	0.96390 0.38010 0.55880 0.06100
C 	C 	0.92330 0.35990 0.59210 0.09800
C 	C 	0.90920 0.32290 0.60860 -0.05600
H 	H 	0.88760 0.32570 0.62370 0.08700
C 	C 	0.80080 0.61570 0.61440 0.30600
C 	C 	0.72900 0.47600 0.71280 0.32200
C 	C 	0.86960 0.41240 0.61370 0.29600
C 	C 	0.78710 0.54290 0.63724 0.23400
C 	C 	0.76390 0.52430 0.66132 -0.28200
H 	H 	0.74340 0.54070 0.67260 0.14700
C 	C 	0.77290 0.47970 0.66772 0.26000
C 	C 	0.80230 0.45500 0.65185 -0.29500
H 	H 	0.80760 0.42520 0.65670 0.15300
C 	C 	0.82450 0.47570 0.62800 0.23900
C 	C 	0.81810 0.52050 0.61940 -0.26800
H 	H 	0.83330 0.53380 0.60330 0.14400
Zn	Zn	0.40463 0.65170 0.12816 1.20000
Zn	Zn	0.36651 0.71075 0.17398 1.19900
O 	O 	0.38884 0.18407 0.03174 -0.50100
O 	O 	0.39962 0.25469 0.03162 -0.49700
O 	O 	0.33635 0.34515 0.11041 -0.48000
O 	O 	0.29863 0.31356 0.14731 -0.47700
O 	O 	0.20457 0.07216 0.30985 -0.48100
O 	O 	0.15551 0.04624 0.34158 -0.49100
O 	O 	0.12562 0.89101 0.34462 -0.49900
O 	O 	0.14749 0.84815 0.30731 -0.47300
O 	O 	0.39029 0.75325 0.14305 -0.47400
O 	O 	0.42570 0.70849 0.11196 -0.48900
O 	O 	0.51251 0.77151 0.03103 -0.50100
O 	O 	0.52379 0.84275 0.03072 -0.48000
O 	O 	0.33200 0.10410 0.09980 -0.26700
O 	O 	0.22560 0.01490 0.21751 -0.26800
O 	O 	0.34960 0.88760 0.12940 -0.26700
N 	N 	0.28610 0.15700 0.11793 -0.24900
H 	H 	0.26300 0.16160 0.12910 0.12600
N 	N 	0.27610 0.08800 0.13230 -0.26100
H 	H 	0.25260 0.09860 0.14110 0.12800
N 	N 	0.21830 0.94630 0.23409 -0.24800
H 	H 	0.22390 0.91890 0.22960 0.12100
N 	N 	0.25190 0.95790 0.19097 -0.28400
H 	H 	0.25410 0.92920 0.19120 0.13200
N 	N 	0.35570 0.95590 0.10910 -0.26000
H 	H 	0.36680 0.97100 0.09420 0.12800
N 	N 	0.40010 0.90130 0.09230 -0.23700
H 	H 	0.40580 0.92040 0.07810 0.12100
C 	C 	0.38330 0.22119 0.04158 0.43800
C 	C 	0.32030 0.31250 0.12367 0.39700
C 	C 	0.35350 0.22640 0.06822 -0.09500
C 	C 	0.34860 0.26680 0.08161 0.03600
H 	H 	0.36270 0.29170 0.07340 0.03800
C 	C 	0.32270 0.27080 0.10755 -0.09300
C 	C 	0.30370 0.23520 0.11948 -0.05000
H 	H 	0.28830 0.23740 0.13780 0.06100
C 	C 	0.30690 0.19280 0.10423 0.10200
C 	C 	0.33220 0.19020 0.07872 -0.05600
H 	H 	0.33480 0.16320 0.06840 0.08100
C 	C 	0.18050 0.04280 0.32007 0.41500
C 	C 	0.14410 0.88430 0.32092 0.40400
C 	C 	0.17990 0.99970 0.30475 -0.08600
C 	C 	0.16050 0.96390 0.31837 0.02300
H 	H 	0.14620 0.96690 0.33710 0.04200
C 	C 	0.16230 0.92270 0.30384 -0.07700
C 	C 	0.17990 0.91780 0.27699 -0.06600
H 	H 	0.17930 0.89010 0.26750 0.06500
C 	C 	0.19920 0.95330 0.26270 0.10900
C 	C 	0.19940 0.99480 0.27680 -0.06100
H 	H 	0.21270 0.01910 0.26730 0.08800
C 	C 	0.41490 0.74560 0.12118 0.39700
C 	C 	0.50620 0.80880 0.04050 0.41800
C 	C 	0.42710 0.78390 0.10249 -0.08500
C 	C 	0.45760 0.77910 0.07920 0.03200
H 	H 	0.46870 0.75090 0.07440 0.03800
C 	C 	0.47110 0.81460 0.06375 -0.09200
C 	C 	0.45430 0.85530 0.06980 -0.05500
H 	H 	0.46390 0.88010 0.05880 0.06000
C 	C 	0.42330 0.85990 0.09210 0.09800
C 	C 	0.40920 0.82290 0.10860 -0.05500
H 	H 	0.38760 0.82570 0.12370 0.08700
C 	C 	0.30080 0.11570 0.11440 0.30600
C 	C 	0.22900 0.97600 0.21280 0.32200
C 	C 	0.36960 0.91240 0.11370 0.29600
C 	C 	0.28710 0.04290 0.13724 0.23400
C 	C 	0.26390 0.02430 0.16132 -0.28200
H 	H 	0.24340 0.04070 0.17260 0.14700
C 	C 	0.27290 0.97970 0.16772 0.26000
C 	C 	0.30230 0.95500 0.15185 -0.29500
H 	H 	0.30760 0.92520 0.15670 0.15300
C 	C 	0.32450 0.97570 0.12800 0.23900
C 	C 	0.31810 0.02050 0.11940 -0.26800
H 	H 	0.33330 0.03380 0.10330 0.14300
Zn	Zn	0.15170 0.09537 0.62816 1.20000
Zn	Zn	0.21075 0.13349 0.67398 1.19900
O 	O 	0.68407 0.11116 0.53174 -0.49900
O 	O 	0.75469 0.10038 0.53162 -0.49600
O 	O 	0.84515 0.16365 0.61041 -0.48000
O 	O 	0.81356 0.20137 0.64731 -0.47700
O 	O 	0.57216 0.29543 0.80985 -0.48100
O 	O 	0.54624 0.34449 0.84158 -0.49100
O 	O 	0.39101 0.37438 0.84462 -0.49900
O 	O 	0.34815 0.35251 0.80731 -0.47300
O 	O 	0.25325 0.10971 0.64305 -0.47400
O 	O 	0.20849 0.07430 0.61196 -0.48800
O 	O 	0.27151 0.98749 0.53103 -0.49900
O 	O 	0.34275 0.97621 0.53072 -0.47800
O 	O 	0.60410 0.16800 0.59980 -0.26700
O 	O 	0.51490 0.27440 0.71751 -0.26800
O 	O 	0.38760 0.15040 0.62940 -0.26700
N 	N 	0.65700 0.21390 0.61793 -0.24900
H 	H 	0.66160 0.23700 0.62910 0.12600
N 	N 	0.58800 0.22390 0.63230 -0.26100
H 	H 	0.59860 0.24740 0.64110 0.12800
N 	N 	0.44630 0.28170 0.73409 -0.24800
H 	H 	0.41890 0.27610 0.72960 0.12100
N 	N 	0.45790 0.24810 0.69097 -0.28400
H 	H 	0.42920 0.24590 0.69120 0.13200
N 	N 	0.45590 0.14430 0.60910 -0.26000
H 	H 	0.47100 0.13320 0.59420 0.12900
N 	N 	0.40130 0.09990 0.59230 -0.23800
H 	H 	0.42040 0.09420 0.57810 0.12200
C 	C 	0.72119 0.11670 0.54158 0.43800
C 	C 	0.81250 0.17970 0.62367 0.39700
C 	C 	0.72640 0.14650 0.56822 -0.09400
C 	C 	0.76680 0.15140 0.58161 0.03600
H 	H 	0.79170 0.13730 0.57340 0.03900
C 	C 	0.77080 0.17730 0.60755 -0.09300
C 	C 	0.73520 0.19630 0.61948 -0.05000
H 	H 	0.73740 0.21170 0.63780 0.06100
C 	C 	0.69280 0.19310 0.60423 0.10300
C 	C 	0.69020 0.16780 0.57872 -0.05600
H 	H 	0.66320 0.16520 0.56840 0.08200
C 	C 	0.54280 0.31950 0.82007 0.41500
C 	C 	0.38430 0.35590 0.82092 0.40400
C 	C 	0.49970 0.32010 0.80475 -0.08600
C 	C 	0.46390 0.33950 0.81837 0.02300
H 	H 	0.46690 0.35380 0.83710 0.04200
C 	C 	0.42270 0.33770 0.80384 -0.07700
C 	C 	0.41780 0.32010 0.77699 -0.06600
H 	H 	0.39010 0.32070 0.76750 0.06500
C 	C 	0.45330 0.30080 0.76270 0.10900
C 	C 	0.49480 0.30060 0.77680 -0.06100
H 	H 	0.51910 0.28730 0.76730 0.08800
C 	C 	0.24560 0.08510 0.62118 0.39700
C 	C 	0.30880 0.99380 0.54050 0.41800
C 	C 	0.28390 0.07290 0.60249 -0.08500
C 	C 	0.27910 0.04240 0.57920 0.03100
H 	H 	0.25090 0.03130 0.57440 0.03900
C 	C 	0.31460 0.02890 0.56375 -0.09100
C 	C 	0.35530 0.04570 0.56980 -0.05600
H 	H 	0.38010 0.03610 0.55880 0.06100
C 	C 	0.35990 0.07670 0.59210 0.09800
C 	C 	0.32290 0.09080 0.60860 -0.05600
H 	H 	0.32570 0.11240 0.62370 0.08700
C 	C 	0.61570 0.19920 0.61440 0.30600
C 	C 	0.47600 0.27100 0.71280 0.32200
C 	C 	0.41240 0.13040 0.61370 0.29600
C 	C 	0.54290 0.21290 0.63724 0.23400
C 	C 	0.52430 0.23610 0.66132 -0.28200
H 	H 	0.54070 0.25660 0.67260 0.14700
C 	C 	0.47970 0.22710 0.66772 0.26000
C 	C 	0.45500 0.19770 0.65185 -0.29500
H 	H 	0.42520 0.19240 0.65670 0.15300
C 	C 	0.47570 0.17550 0.62800 0.23900
C 	C 	0.52050 0.18190 0.61940 -0.26800
H 	H 	0.53380 0.16670 0.60330 0.14400
Zn	Zn	0.65170 0.59537 0.12816 1.20000
Zn	Zn	0.71075 0.63349 0.17398 1.19900
O 	O 	0.18407 0.61116 0.03174 -0.50100
O 	O 	0.25469 0.60038 0.03162 -0.49700
O 	O 	0.34515 0.66365 0.11041 -0.48000
O 	O 	0.31356 0.70137 0.14731 -0.47700
O 	O 	0.07216 0.79543 0.30985 -0.48100
O 	O 	0.04624 0.84449 0.34158 -0.49100
O 	O 	0.89101 0.87438 0.34462 -0.49900
O 	O 	0.84815 0.85251 0.30731 -0.47300
O 	O 	0.75325 0.60971 0.14305 -0.47400
O 	O 	0.70849 0.57430 0.11196 -0.48900
O 	O 	0.77151 0.48749 0.03103 -0.50100
O 	O 	0.84275 0.47621 0.03072 -0.48000
O 	O 	0.10410 0.66800 0.09980 -0.26700
O 	O 	0.01490 0.77440 0.21751 -0.26800
O 	O 	0.88760 0.65040 0.12940 -0.26700
N 	N 	0.15700 0.71390 0.11793 -0.24900
H 	H 	0.16160 0.73700 0.12910 0.12600
N 	N 	0.08800 0.72390 0.13230 -0.26100
H 	H 	0.09860 0.74740 0.14110 0.12800
N 	N 	0.94630 0.78170 0.23409 -0.24800
H 	H 	0.91890 0.77610 0.22960 0.12100
N 	N 	0.95790 0.74810 0.19097 -0.28400
H 	H 	0.92920 0.74590 0.19120 0.13200
N 	N 	0.95590 0.64430 0.10910 -0.26000
H 	H 	0.97100 0.63320 0.09420 0.12800
N 	N 	0.90130 0.59990 0.09230 -0.23700
H 	H 	0.92040 0.59420 0.07810 0.12100
C 	C 	0.22119 0.61670 0.04158 0.43800
C 	C 	0.31250 0.67970 0.12367 0.39700
C 	C 	0.22640 0.64650 0.06822 -0.09500
C 	C 	0.26680 0.65140 0.08161 0.03600
H 	H 	0.29170 0.63730 0.07340 0.03800
C 	C 	0.27080 0.67730 0.10755 -0.09300
C 	C 	0.23520 0.69630 0.11948 -0.05000
H 	H 	0.23740 0.71170 0.13780 0.06100
C 	C 	0.19280 0.69310 0.10423 0.10200
C 	C 	0.19020 0.66780 0.07872 -0.05600
H 	H 	0.16320 0.66520 0.06840 0.08100
C 	C 	0.04280 0.81950 0.32007 0.41500
C 	C 	0.88430 0.85590 0.32092 0.40400
C 	C 	0.99970 0.82010 0.30475 -0.08600
C 	C 	0.96390 0.83950 0.31837 0.02300
H 	H 	0.96690 0.85380 0.33710 0.04200
C 	C 	0.92270 0.83770 0.30384 -0.07700
C 	C 	0.91780 0.82010 0.27699 -0.06600
H 	H 	0.89010 0.82070 0.26750 0.06500
C 	C 	0.95330 0.80080 0.26270 0.10900
C 	C 	0.99480 0.80060 0.27680 -0.06100
H 	H 	0.01910 0.78730 0.26730 0.08800
C 	C 	0.74560 0.58510 0.12118 0.39700
C 	C 	0.80880 0.49380 0.04050 0.41800
C 	C 	0.78390 0.57290 0.10249 -0.08500
C 	C 	0.77910 0.54240 0.07920 0.03200
H 	H 	0.75090 0.53130 0.07440 0.03800
C 	C 	0.81460 0.52890 0.06375 -0.09200
C 	C 	0.85530 0.54570 0.06980 -0.05500
H 	H 	0.88010 0.53610 0.05880 0.06000
C 	C 	0.85990 0.57670 0.09210 0.09800
C 	C 	0.82290 0.59080 0.10860 -0.05500
H 	H 	0.82570 0.61240 0.12370 0.08700
C 	C 	0.11570 0.69920 0.11440 0.30600
C 	C 	0.97600 0.77100 0.21280 0.32200
C 	C 	0.91240 0.63040 0.11370 0.29600
C 	C 	0.04290 0.71290 0.13724 0.23400
C 	C 	0.02430 0.73610 0.16132 -0.28200
H 	H 	0.04070 0.75660 0.17260 0.14700
C 	C 	0.97970 0.72710 0.16772 0.26000
C 	C 	0.95500 0.69770 0.15185 -0.29500
H 	H 	0.92520 0.69240 0.15670 0.15300
C 	C 	0.97570 0.67550 0.12800 0.23900
C 	C 	0.02050 0.68190 0.11940 -0.26800
H 	H 	0.03380 0.66670 0.10330 0.14300
Zn	Zn	0.84830 0.90463 0.62816 1.20000
Zn	Zn	0.78925 0.86651 0.67398 1.19900
O 	O 	0.31593 0.88884 0.53174 -0.49900
O 	O 	0.24531 0.89962 0.53162 -0.49600
O 	O 	0.15485 0.83635 0.61041 -0.48000
O 	O 	0.18644 0.79863 0.64731 -0.47700
O 	O 	0.42784 0.70457 0.80985 -0.48100
O 	O 	0.45376 0.65551 0.84158 -0.49100
O 	O 	0.60899 0.62562 0.84462 -0.49900
O 	O 	0.65185 0.64749 0.80731 -0.47300
O 	O 	0.74675 0.89029 0.64305 -0.47400
O 	O 	0.79151 0.92570 0.61196 -0.48800
O 	O 	0.72849 0.01251 0.53103 -0.49900
O 	O 	0.65725 0.02379 0.53072 -0.47800
O 	O 	0.39590 0.83200 0.59980 -0.26700
O 	O 	0.48510 0.72560 0.71751 -0.26800
O 	O 	0.61240 0.84960 0.62940 -0.26700
N 	N 	0.34300 0.78610 0.61793 -0.24900
H 	H 	0.33840 0.76300 0.62910 0.12600
N 	N 	0.41200 0.77610 0.63230 -0.26100
H 	H 	0.40140 0.75260 0.64110 0.12800
N 	N 	0.55370 0.71830 0.73409 -0.24800
H 	H 	0.58110 0.72390 0.72960 0.12100
N 	N 	0.54210 0.75190 0.69097 -0.28400
H 	H 	0.57080 0.75410 0.69120 0.13200
N 	N 	0.54410 0.85570 0.60910 -0.26000
H 	H 	0.52900 0.86680 0.59420 0.12900
N 	N 	0.59870 0.90010 0.59230 -0.23800
H 	H 	0.57960 0.90580 0.57810 0.12200
C 	C 	0.27881 0.88330 0.54158 0.43800
C 	C 	0.18750 0.82030 0.62367 0.39700
C 	C 	0.27360 0.85350 0.56822 -0.09400
C 	C 	0.23320 0.84860 0.58161 0.03600
H 	H 	0.20830 0.86270 0.57340 0.03900
C 	C 	0.22920 0.82270 0.60755 -0.09300
C 	C 	0.26480 0.80370 0.61948 -0.05000
H 	H 	0.26260 0.78830 0.63780 0.06100
C 	C 	0.30720 0.80690 0.60423 0.10300
C 	C 	0.30980 0.83220 0.57872 -0.05600
H 	H 	0.33680 0.83480 0.56840 0.08200
C 	C 	0.45720 0.68050 0.82007 0.41500
C 	C 	0.61570 0.64410 0.82092 0.40400
C 	C 	0.50030 0.67990 0.80475 -0.08600
C 	C 	0.53610 0.66050 0.81837 0.02300
H 	H 	0.53310 0.64620 0.83710 0.04200
C 	C 	0.57730 0.66230 0.80384 -0.07700
C 	C 	0.58220 0.67990 0.77699 -0.06600
H 	H 	0.60990 0.67930 0.76750 0.06500
C 	C 	0.54670 0.69920 0.76270 0.10900
C 	C 	0.50520 0.69940 0.77680 -0.06100
H 	H 	0.48090 0.71270 0.76730 0.08800
C 	C 	0.75440 0.91490 0.62118 0.39700
C 	C 	0.69120 0.00620 0.54050 0.41800
C 	C 	0.71610 0.92710 0.60249 -0.08500
C 	C 	0.72090 0.95760 0.57920 0.03100
H 	H 	0.74910 0.96870 0.57440 0.03900
C 	C 	0.68540 0.97110 0.56375 -0.09100
C 	C 	0.64470 0.95430 0.56980 -0.05600
H 	H 	0.61990 0.96390 0.55880 0.06100
C 	C 	0.64010 0.92330 0.59210 0.09800
C 	C 	0.67710 0.90920 0.60860 -0.05600
H 	H 	0.67430 0.88760 0.62370 0.08700
C 	C 	0.38430 0.80080 0.61440 0.30600
C 	C 	0.52400 0.72900 0.71280 0.32200
C 	C 	0.58760 0.86960 0.61370 0.29600
C 	C 	0.45710 0.78710 0.63724 0.23400
C 	C 	0.47570 0.76390 0.66132 -0.28200
H 	H 	0.45930 0.74340 0.67260 0.14700
C 	C 	0.52030 0.77290 0.66772 0.26000
C 	C 	0.54500 0.80230 0.65185 -0.29500
H 	H 	0.57480 0.80760 0.65670 0.15300
C 	C 	0.52430 0.82450 0.62800 0.23900
C 	C 	0.47950 0.81810 0.61940 -0.26800
H 	H 	0.46620 0.83330 0.60330 0.14400
Zn	Zn	0.34830 0.40463 0.12816 1.20000
Zn	Zn	0.28925 0.36651 0.17398 1.19900
O 	O 	0.81593 0.38884 0.03174 -0.50100
O 	O 	0.74531 0.39962 0.03162 -0.49700
O 	O 	0.65485 0.33635 0.11041 -0.48000
O 	O 	0.68644 0.29863 0.14731 -0.47700
O 	O 	0.92784 0.20457 0.30985 -0.48100
O 	O 	0.95376 0.15551 0.34158 -0.49100
O 	O 	0.10899 0.12562 0.34462 -0.49900
O 	O 	0.15185 0.14749 0.30731 -0.47300
O 	O 	0.24675 0.39029 0.14305 -0.47400
O 	O 	0.29151 0.42570 0.11196 -0.48900
O 	O 	0.22849 0.51251 0.03103 -0.50100
O 	O 	0.15725 0.52379 0.03072 -0.48000
O 	O 	0.89590 0.33200 0.09980 -0.26700
O 	O 	0.98510 0.22560 0.21751 -0.26800
O 	O 	0.11240 0.34960 0.12940 -0.26700
N 	N 	0.84300 0.28610 0.11793 -0.24900
H 	H 	0.83840 0.26300 0.12910 0.12600
N 	N 	0.91200 0.27610 0.13230 -0.26100
H 	H 	0.90140 0.25260 0.14110 0.12800
N 	N 	0.05370 0.21830 0.23409 -0.24800
H 	H 	0.08110 0.22390 0.22960 0.12100
N 	N 	0.04210 0.25190 0.19097 -0.28400
H 	H 	0.07080 0.25410 0.19120 0.13200
N 	N 	0.04410 0.35570 0.10910 -0.26000
H 	H 	0.02900 0.36680 0.09420 0.12800
N 	N 	0.09870 0.40010 0.09230 -0.23700
H 	H 	0.07960 0.40580 0.07810 0.12100
C 	C 	0.77881 0.38330 0.04158 0.43800
C 	C 	0.68750 0.32030 0.12367 0.39700
C 	C 	0.77360 0.35350 0.06822 -0.09500
C 	C 	0.73320 0.34860 0.08161 0.03600
H 	H 	0.70830 0.36270 0.07340 0.03800
C 	C 	0.72920 0.32270 0.10755 -0.09300
C 	C 	0.76480 0.30370 0.11948 -0.05000
H 	H 	0.76260 0.28830 0.13780 0.06100
C 	C 	0.80720 0.30690 0.10423 0.10200
C 	C 	0.80980 0.33220 0.07872 -0.05600
H 	H 	0.83680 0.33480 0.06840 0.08100
C 	C 	0.95720 0.18050 0.32007 0.41500
C 	C 	0.11570 0.14410 0.32092 0.40400
C 	C 	0.00030 0.17990 0.30475 -0.08600
C 	C 	0.03610 0.16050 0.31837 0.02300
H 	H 	0.03310 0.14620 0.33710 0.04200
C 	C 	0.07730 0.16230 0.30384 -0.07700
C 	C 	0.08220 0.17990 0.27699 -0.06600
H 	H 	0.10990 0.17930 0.26750 0.06500
C 	C 	0.04670 0.19920 0.26270 0.10900
C 	C 	0.00520 0.19940 0.27680 -0.06100
H 	H 	0.98090 0.21270 0.26730 0.08800
C 	C 	0.25440 0.41490 0.12118 0.39700
C 	C 	0.19120 0.50620 0.04050 0.41800
C 	C 	0.21610 0.42710 0.10249 -0.08500
C 	C 	0.22090 0.45760 0.07920 0.03200
H 	H 	0.24910 0.46870 0.07440 0.03800
C 	C 	0.18540 0.47110 0.06375 -0.09200
C 	C 	0.14470 0.45430 0.06980 -0.05500
H 	H 	0.11990 0.46390 0.05880 0.06000
C 	C 	0.14010 0.42330 0.09210 0.09800
C 	C 	0.17710 0.40920 0.10860 -0.05500
H 	H 	0.17430 0.38760 0.12370 0.08700
C 	C 	0.88430 0.30080 0.11440 0.30600
C 	C 	0.02400 0.22900 0.21280 0.32200
C 	C 	0.08760 0.36960 0.11370 0.29600
C 	C 	0.95710 0.28710 0.13724 0.23400
C 	C 	0.97570 0.26390 0.16132 -0.28200
H 	H 	0.95930 0.24340 0.17260 0.14700
C 	C 	0.02030 0.27290 0.16772 0.26000
C 	C 	0.04500 0.30230 0.15185 -0.29500
H 	H 	0.07480 0.30760 0.15670 0.15300
C 	C 	0.02430 0.32450 0.12800 0.23900
C 	C 	0.97950 0.31810 0.11940 -0.26800
H 	H 	0.96620 0.33330 0.10330 0.14300
Zn	Zn	0.90463 0.15170 0.37184 1.20000
Zn	Zn	0.86651 0.21075 0.32602 1.19900
O 	O 	0.88884 0.68407 0.46826 -0.49900
O 	O 	0.89962 0.75469 0.46838 -0.49600
O 	O 	0.83635 0.84515 0.38959 -0.48000
O 	O 	0.79863 0.81356 0.35269 -0.47700
O 	O 	0.70457 0.57216 0.19015 -0.48100
O 	O 	0.65551 0.54624 0.15842 -0.49100
O 	O 	0.62562 0.39101 0.15538 -0.49900
O 	O 	0.64749 0.34815 0.19269 -0.47300
O 	O 	0.89029 0.25325 0.35695 -0.47400
O 	O 	0.92570 0.20849 0.38804 -0.48800
O 	O 	0.01251 0.27151 0.46897 -0.49900
O 	O 	0.02379 0.34275 0.46928 -0.47800
O 	O 	0.83200 0.60410 0.40020 -0.26700
O 	O 	0.72560 0.51490 0.28249 -0.26800
O 	O 	0.84960 0.38760 0.37060 -0.26700
N 	N 	0.78610 0.65700 0.38207 -0.24900
H 	H 	0.76300 0.66160 0.37090 0.12600
N 	N 	0.77610 0.58800 0.36770 -0.26100
H 	H 	0.75260 0.59860 0.35890 0.12800
N 	N 	0.71830 0.44630 0.26591 -0.24800
H 	H 	0.72390 0.41890 0.27040 0.12100
N 	N 	0.75190 0.45790 0.30903 -0.28400
H 	H 	0.75410 0.42920 0.30880 0.13200
N 	N 	0.85570 0.45590 0.39090 -0.26000
H 	H 	0.86680 0.47100 0.40580 0.12900
N 	N 	0.90010 0.40130 0.40770 -0.23800
H 	H 	0.90580 0.42040 0.42190 0.12200
C 	C 	0.88330 0.72119 0.45842 0.43800
C 	C 	0.82030 0.81250 0.37633 0.39700
C 	C 	0.85350 0.72640 0.43178 -0.09400
C 	C 	0.84860 0.76680 0.41839 0.03600
H 	H 	0.86270 0.79170 0.42660 0.03900
C 	C 	0.82270 0.77080 0.39245 -0.09300
C 	C 	0.80370 0.73520 0.38052 -0.05000
H 	H 	0.78830 0.73740 0.36220 0.06100
C 	C 	0.80690 0.69280 0.39577 0.10300
C 	C 	0.83220 0.69020 0.42128 -0.05600
H 	H 	0.83480 0.66320 0.43160 0.08200
C 	C 	0.68050 0.54280 0.17993 0.41500
C 	C 	0.64410 0.38430 0.17908 0.40400
C 	C 	0.67990 0.49970 0.19525 -0.08600
C 	C 	0.66050 0.46390 0.18163 0.02300
H 	H 	0.64620 0.46690 0.16290 0.04200
C 	C 	0.66230 0.42270 0.19616 -0.07700
C 	C 	0.67990 0.41780 0.22301 -0.06600
H 	H 	0.67930 0.39010 0.23250 0.06500
C 	C 	0.69920 0.45330 0.23730 0.10900
C 	C 	0.69940 0.49480 0.22320 -0.06100
H 	H 	0.71270 0.51910 0.23270 0.08800
C 	C 	0.91490 0.24560 0.37882 0.39700
C 	C 	0.00620 0.30880 0.45950 0.41800
C 	C 	0.92710 0.28390 0.39751 -0.08500
C 	C 	0.95760 0.27910 0.42080 0.03100
H 	H 	0.96870 0.25090 0.42560 0.03900
C 	C 	0.97110 0.31460 0.43625 -0.09100
C 	C 	0.95430 0.35530 0.43020 -0.05600
H 	H 	0.96390 0.38010 0.44120 0.06100
C 	C 	0.92330 0.35990 0.40790 0.09800
C 	C 	0.90920 0.32290 0.39140 -0.05600
H 	H 	0.88760 0.32570 0.37630 0.08700
C 	C 	0.80080 0.61570 0.38560 0.30600
C 	C 	0.72900 0.47600 0.28720 0.32200
C 	C 	0.86960 0.41240 0.38630 0.29600
C 	C 	0.78710 0.54290 0.36276 0.23400
C 	C 	0.76390 0.52430 0.33868 -0.28200
H 	H 	0.74340 0.54070 0.32740 0.14700
C 	C 	0.77290 0.47970 0.33228 0.26000
C 	C 	0.80230 0.45500 0.34815 -0.29500
H 	H 	0.80760 0.42520 0.34330 0.15300
C 	C 	0.82450 0.47570 0.37200 0.23900
C 	C 	0.81810 0.52050 0.38060 -0.26800
H 	H 	0.83330 0.53380 0.39670 0.14400
Zn	Zn	0.40463 0.65170 0.87184 1.20000
Zn	Zn	0.36651 0.71075 0.82602 1.19900
O 	O 	0.38884 0.18407 0.96826 -0.49700
O 	O 	0.39962 0.25469 0.96838 -0.49300
O 	O 	0.33635 0.34515 0.88959 -0.48000
O 	O 	0.29863 0.31356 0.85269 -0.47700
O 	O 	0.20457 0.07216 0.69015 -0.48100
O 	O 	0.15551 0.04624 0.65842 -0.49100
O 	O 	0.12562 0.89101 0.65538 -0.49900
O 	O 	0.14749 0.84815 0.69269 -0.47300
O 	O 	0.39029 0.75325 0.85695 -0.47400
O 	O 	0.42570 0.70849 0.88804 -0.48800
O 	O 	0.51251 0.77151 0.96897 -0.49700
O 	O 	0.52379 0.84275 0.96928 -0.47600
O 	O 	0.33200 0.10410 0.90020 -0.26600
O 	O 	0.22560 0.01490 0.78249 -0.26800
O 	O 	0.34960 0.88760 0.87060 -0.26700
N 	N 	0.28610 0.15700 0.88207 -0.24900
H 	H 	0.26300 0.16160 0.87090 0.12600
N 	N 	0.27610 0.08800 0.86770 -0.26100
H 	H 	0.25260 0.09860 0.85890 0.12800
N 	N 	0.21830 0.94630 0.76591 -0.24800
H 	H 	0.22390 0.91890 0.77040 0.12100
N 	N 	0.25190 0.95790 0.80903 -0.28400
H 	H 	0.25410 0.92920 0.80880 0.13200
N 	N 	0.35570 0.95590 0.89090 -0.26000
H 	H 	0.36680 0.97100 0.90580 0.12900
N 	N 	0.40010 0.90130 0.90770 -0.23800
H 	H 	0.40580 0.92040 0.92190 0.12200
C 	C 	0.38330 0.22119 0.95842 0.43700
C 	C 	0.32030 0.31250 0.87633 0.39700
C 	C 	0.35350 0.22640 0.93178 -0.09300
C 	C 	0.34860 0.26680 0.91839 0.03500
H 	H 	0.36270 0.29170 0.92660 0.03900
C 	C 	0.32270 0.27080 0.89245 -0.09200
C 	C 	0.30370 0.23520 0.88052 -0.05100
H 	H 	0.28830 0.23740 0.86220 0.06100
C 	C 	0.30690 0.19280 0.89577 0.10300
C 	C 	0.33220 0.19020 0.92128 -0.05700
H 	H 	0.33480 0.16320 0.93160 0.08300
C 	C 	0.18050 0.04280 0.67993 0.41500
C 	C 	0.14410 0.88430 0.67908 0.40400
C 	C 	0.17990 0.99970 0.69525 -0.08600
C 	C 	0.16050 0.96390 0.68163 0.02300
H 	H 	0.14620 0.96690 0.66290 0.04200
C 	C 	0.16230 0.92270 0.69616 -0.07700
C 	C 	0.17990 0.91780 0.72301 -0.06600
H 	H 	0.17930 0.89010 0.73250 0.06500
C 	C 	0.19920 0.95330 0.73730 0.10900
C 	C 	0.19940 0.99480 0.72320 -0.06100
H 	H 	0.21270 0.01910 0.73270 0.08800
C 	C 	0.41490 0.74560 0.87882 0.39700
C 	C 	0.50620 0.80880 0.95950 0.41700
C 	C 	0.42710 0.78390 0.89751 -0.08400
C 	C 	0.45760 0.77910 0.92080 0.03100
H 	H 	0.46870 0.75090 0.92560 0.03900
C 	C 	0.47110 0.81460 0.93625 -0.09000
C 	C 	0.45430 0.85530 0.93020 -0.05600
H 	H 	0.46390 0.88010 0.94120 0.06200
C 	C 	0.42330 0.85990 0.90790 0.09900
C 	C 	0.40920 0.82290 0.89140 -0.05600
H 	H 	0.38760 0.82570 0.87630 0.08700
C 	C 	0.30080 0.11570 0.88560 0.30600
C 	C 	0.22900 0.97600 0.78720 0.32200
C 	C 	0.36960 0.91240 0.88630 0.29600
C 	C 	0.28710 0.04290 0.86276 0.23500
C 	C 	0.26390 0.02430 0.83868 -0.28200
H 	H 	0.24340 0.04070 0.82740 0.14700
C 	C 	0.27290 0.97970 0.83228 0.26000
C 	C 	0.30230 0.95500 0.84815 -0.29500
H 	H 	0.30760 0.92520 0.84330 0.15300
C 	C 	0.32450 0.97570 0.87200 0.23900
C 	C 	0.31810 0.02050 0.88060 -0.26800
H 	H 	0.33330 0.03380 0.89670 0.14400
Zn	Zn	0.09537 0.84830 0.37184 1.20000
Zn	Zn	0.13349 0.78925 0.32602 1.19900
O 	O 	0.11116 0.31593 0.46826 -0.49900
O 	O 	0.10038 0.24531 0.46838 -0.49600
O 	O 	0.16365 0.15485 0.38959 -0.48000
O 	O 	0.20137 0.18644 0.35269 -0.47700
O 	O 	0.29543 0.42784 0.19015 -0.48100
O 	O 	0.34449 0.45376 0.15842 -0.49100
O 	O 	0.37438 0.60899 0.15538 -0.49900
O 	O 	0.35251 0.65185 0.19269 -0.47300
O 	O 	0.10971 0.74675 0.35695 -0.47400
O 	O 	0.07430 0.79151 0.38804 -0.48800
O 	O 	0.98749 0.72849 0.46897 -0.49900
O 	O 	0.97621 0.65725 0.46928 -0.47800
O 	O 	0.16800 0.39590 0.40020 -0.26700
O 	O 	0.27440 0.48510 0.28249 -0.26800
O 	O 	0.15040 0.61240 0.37060 -0.26700
N 	N 	0.21390 0.34300 0.38207 -0.24900
H 	H 	0.23700 0.33840 0.37090 0.12600
N 	N 	0.22390 0.41200 0.36770 -0.26100
H 	H 	0.24740 0.40140 0.35890 0.12800
N 	N 	0.28170 0.55370 0.26591 -0.24800
H 	H 	0.27610 0.58110 0.27040 0.12100
N 	N 	0.24810 0.54210 0.30903 -0.28400
H 	H 	0.24590 0.57080 0.30880 0.13200
N 	N 	0.14430 0.54410 0.39090 -0.26000
H 	H 	0.13320 0.52900 0.40580 0.12900
N 	N 	0.09990 0.59870 0.40770 -0.23800
H 	H 	0.09420 0.57960 0.42190 0.12200
C 	C 	0.11670 0.27881 0.45842 0.43800
C 	C 	0.17970 0.18750 0.37633 0.39700
C 	C 	0.14650 0.27360 0.43178 -0.09400
C 	C 	0.15140 0.23320 0.41839 0.03600
H 	H 	0.13730 0.20830 0.42660 0.03900
C 	C 	0.17730 0.22920 0.39245 -0.09300
C 	C 	0.19630 0.26480 0.38052 -0.05000
H 	H 	0.21170 0.26260 0.36220 0.06100
C 	C 	0.19310 0.30720 0.39577 0.10300
C 	C 	0.16780 0.30980 0.42128 -0.05600
H 	H 	0.16520 0.33680 0.43160 0.08200
C 	C 	0.31950 0.45720 0.17993 0.41500
C 	C 	0.35590 0.61570 0.17908 0.40400
C 	C 	0.32010 0.50030 0.19525 -0.08600
C 	C 	0.33950 0.53610 0.18163 0.02300
H 	H 	0.35380 0.53310 0.16290 0.04200
C 	C 	0.33770 0.57730 0.19616 -0.07700
C 	C 	0.32010 0.58220 0.22301 -0.06600
H 	H 	0.32070 0.60990 0.23250 0.06500
C 	C 	0.30080 0.54670 0.23730 0.10900
C 	C 	0.30060 0.50520 0.22320 -0.06100
H 	H 	0.28730 0.48090 0.23270 0.08800
C 	C 	0.08510 0.75440 0.37882 0.39700
C 	C 	0.99380 0.69120 0.45950 0.41800
C 	C 	0.07290 0.71610 0.39751 -0.08500
C 	C 	0.04240 0.72090 0.42080 0.03100
H 	H 	0.03130 0.74910 0.42560 0.03900
C 	C 	0.02890 0.68540 0.43625 -0.09100
C 	C 	0.04570 0.64470 0.43020 -0.05600
H 	H 	0.03610 0.61990 0.44120 0.06100
C 	C 	0.07670 0.64010 0.40790 0.09800
C 	C 	0.09080 0.67710 0.39140 -0.05600
H 	H 	0.11240 0.67430 0.37630 0.08700
C 	C 	0.19920 0.38430 0.38560 0.30600
C 	C 	0.27100 0.52400 0.28720 0.32200
C 	C 	0.13040 0.58760 0.38630 0.29600
C 	C 	0.21290 0.45710 0.36276 0.23400
C 	C 	0.23610 0.47570 0.33868 -0.28200
H 	H 	0.25660 0.45930 0.32740 0.14700
C 	C 	0.22710 0.52030 0.33228 0.26000
C 	C 	0.19770 0.54500 0.34815 -0.29500
H 	H 	0.19240 0.57480 0.34330 0.15300
C 	C 	0.17550 0.52430 0.37200 0.23900
C 	C 	0.18190 0.47950 0.38060 -0.26800
H 	H 	0.16670 0.46620 0.39670 0.14400
Zn	Zn	0.59537 0.34830 0.87184 1.20000
Zn	Zn	0.63349 0.28925 0.82602 1.19900
O 	O 	0.61116 0.81593 0.96826 -0.49700
O 	O 	0.60038 0.74531 0.96838 -0.49300
O 	O 	0.66365 0.65485 0.88959 -0.48000
O 	O 	0.70137 0.68644 0.85269 -0.47700
O 	O 	0.79543 0.92784 0.69015 -0.48100
O 	O 	0.84449 0.95376 0.65842 -0.49100
O 	O 	0.87438 0.10899 0.65538 -0.49900
O 	O 	0.85251 0.15185 0.69269 -0.47300
O 	O 	0.60971 0.24675 0.85695 -0.47400
O 	O 	0.57430 0.29151 0.88804 -0.48800
O 	O 	0.48749 0.22849 0.96897 -0.49700
O 	O 	0.47621 0.15725 0.96928 -0.47600
O 	O 	0.66800 0.89590 0.90020 -0.26600
O 	O 	0.77440 0.98510 0.78249 -0.26800
O 	O 	0.65040 0.11240 0.87060 -0.26700
N 	N 	0.71390 0.84300 0.88207 -0.24900
H 	H 	0.73700 0.83840 0.87090 0.12600
N 	N 	0.72390 0.91200 0.86770 -0.26100
H 	H 	0.74740 0.90140 0.85890 0.12800
N 	N 	0.78170 0.05370 0.76591 -0.24800
H 	H 	0.77610 0.08110 0.77040 0.12100
N 	N 	0.74810 0.04210 0.80903 -0.28400
H 	H 	0.74590 0.07080 0.80880 0.13200
N 	N 	0.64430 0.04410 0.89090 -0.26000
H 	H 	0.63320 0.02900 0.90580 0.12900
N 	N 	0.59990 0.09870 0.90770 -0.23800
H 	H 	0.59420 0.07960 0.92190 0.12200
C 	C 	0.61670 0.77881 0.95842 0.43700
C 	C 	0.67970 0.68750 0.87633 0.39700
C 	C 	0.64650 0.77360 0.93178 -0.09300
C 	C 	0.65140 0.73320 0.91839 0.03500
H 	H 	0.63730 0.70830 0.92660 0.03900
C 	C 	0.67730 0.72920 0.89245 -0.09200
C 	C 	0.69630 0.76480 0.88052 -0.05100
H 	H 	0.71170 0.76260 0.86220 0.06100
C 	C 	0.69310 0.80720 0.89577 0.10300
C 	C 	0.66780 0.80980 0.92128 -0.05700
H 	H 	0.66520 0.83680 0.93160 0.08300
C 	C 	0.81950 0.95720 0.67993 0.41500
C 	C 	0.85590 0.11570 0.67908 0.40400
C 	C 	0.82010 0.00030 0.69525 -0.08600
C 	C 	0.83950 0.03610 0.68163 0.02300
H 	H 	0.85380 0.03310 0.66290 0.04200
C 	C 	0.83770 0.07730 0.69616 -0.07700
C 	C 	0.82010 0.08220 0.72301 -0.06600
H 	H 	0.82070 0.10990 0.73250 0.06500
C 	C 	0.80080 0.04670 0.73730 0.10900
C 	C 	0.80060 0.00520 0.72320 -0.06100
H 	H 	0.78730 0.98090 0.73270 0.08800
C 	C 	0.58510 0.25440 0.87882 0.39700
C 	C 	0.49380 0.19120 0.95950 0.41700
C 	C 	0.57290 0.21610 0.89751 -0.08400
C 	C 	0.54240 0.22090 0.92080 0.03100
H 	H 	0.53130 0.24910 0.92560 0.03900
C 	C 	0.52890 0.18540 0.93625 -0.09000
C 	C 	0.54570 0.14470 0.93020 -0.05600
H 	H 	0.53610 0.11990 0.94120 0.06200
C 	C 	0.57670 0.14010 0.90790 0.09900
C 	C 	0.59080 0.17710 0.89140 -0.05600
H 	H 	0.61240 0.17430 0.87630 0.08700
C 	C 	0.69920 0.88430 0.88560 0.30600
C 	C 	0.77100 0.02400 0.78720 0.32200
C 	C 	0.63040 0.08760 0.88630 0.29600
C 	C 	0.71290 0.95710 0.86276 0.23500
C 	C 	0.73610 0.97570 0.83868 -0.28200
H 	H 	0.75660 0.95930 0.82740 0.14700
C 	C 	0.72710 0.02030 0.83228 0.26000
C 	C 	0.69770 0.04500 0.84815 -0.29500
H 	H 	0.69240 0.07480 0.84330 0.15300
C 	C 	0.67550 0.02430 0.87200 0.23900
C 	C 	0.68190 0.97950 0.88060 -0.26800
H 	H 	0.66670 0.96620 0.89670 0.14400
Zn	Zn	0.84830 0.90463 0.37184 1.20000
Zn	Zn	0.78925 0.86651 0.32602 1.19900
O 	O 	0.31593 0.88884 0.46826 -0.49900
O 	O 	0.24531 0.89962 0.46838 -0.49600
O 	O 	0.15485 0.83635 0.38959 -0.48000
O 	O 	0.18644 0.79863 0.35269 -0.47700
O 	O 	0.42784 0.70457 0.19015 -0.48100
O 	O 	0.45376 0.65551 0.15842 -0.49100
O 	O 	0.60899 0.62562 0.15538 -0.49900
O 	O 	0.65185 0.64749 0.19269 -0.47300
O 	O 	0.74675 0.89029 0.35695 -0.47400
O 	O 	0.79151 0.92570 0.38804 -0.48800
O 	O 	0.72849 0.01251 0.46897 -0.49900
O 	O 	0.65725 0.02379 0.46928 -0.47800
O 	O 	0.39590 0.83200 0.40020 -0.26700
O 	O 	0.48510 0.72560 0.28249 -0.26800
O 	O 	0.61240 0.84960 0.37060 -0.26700
N 	N 	0.34300 0.78610 0.38207 -0.24900
H 	H 	0.33840 0.76300 0.37090 0.12600
N 	N 	0.41200 0.77610 0.36770 -0.26100
H 	H 	0.40140 0.75260 0.35890 0.12800
N 	N 	0.55370 0.71830 0.26591 -0.24800
H 	H 	0.58110 0.72390 0.27040 0.12100
N 	N 	0.54210 0.75190 0.30903 -0.28400
H 	H 	0.57080 0.75410 0.30880 0.13200
N 	N 	0.54410 0.85570 0.39090 -0.26000
H 	H 	0.52900 0.86680 0.40580 0.12900
N 	N 	0.59870 0.90010 0.40770 -0.23800
H 	H 	0.57960 0.90580 0.42190 0.12200
C 	C 	0.27881 0.88330 0.45842 0.43800
C 	C 	0.18750 0.82030 0.37633 0.39700
C 	C 	0.27360 0.85350 0.43178 -0.09400
C 	C 	0.23320 0.84860 0.41839 0.03600
H 	H 	0.20830 0.86270 0.42660 0.03900
C 	C 	0.22920 0.82270 0.39245 -0.09300
C 	C 	0.26480 0.80370 0.38052 -0.05000
H 	H 	0.26260 0.78830 0.36220 0.06100
C 	C 	0.30720 0.80690 0.39577 0.10300
C 	C 	0.30980 0.83220 0.42128 -0.05600
H 	H 	0.33680 0.83480 0.43160 0.08200
C 	C 	0.45720 0.68050 0.17993 0.41500
C 	C 	0.61570 0.64410 0.17908 0.40400
C 	C 	0.50030 0.67990 0.19525 -0.08600
C 	C 	0.53610 0.66050 0.18163 0.02300
H 	H 	0.53310 0.64620 0.16290 0.04200
C 	C 	0.57730 0.66230 0.19616 -0.07700
C 	C 	0.58220 0.67990 0.22301 -0.06600
H 	H 	0.60990 0.67930 0.23250 0.06500
C 	C 	0.54670 0.69920 0.23730 0.10900
C 	C 	0.50520 0.69940 0.22320 -0.06100
H 	H 	0.48090 0.71270 0.23270 0.08800
C 	C 	0.75440 0.91490 0.37882 0.39700
C 	C 	0.69120 0.00620 0.45950 0.41800
C 	C 	0.71610 0.92710 0.39751 -0.08500
C 	C 	0.72090 0.95760 0.42080 0.03100
H 	H 	0.74910 0.96870 0.42560 0.03900
C 	C 	0.68540 0.97110 0.43625 -0.09100
C 	C 	0.64470 0.95430 0.43020 -0.05600
H 	H 	0.61990 0.96390 0.44120 0.06100
C 	C 	0.64010 0.92330 0.40790 0.09800
C 	C 	0.67710 0.90920 0.39140 -0.05600
H 	H 	0.67430 0.88760 0.37630 0.08700
C 	C 	0.38430 0.80080 0.38560 0.30600
C 	C 	0.52400 0.72900 0.28720 0.32200
C 	C 	0.58760 0.86960 0.38630 0.29600
C 	C 	0.45710 0.78710 0.36276 0.23400
C 	C 	0.47570 0.76390 0.33868 -0.28200
H 	H 	0.45930 0.74340 0.32740 0.14700
C 	C 	0.52030 0.77290 0.33228 0.26000
C 	C 	0.54500 0.80230 0.34815 -0.29500
H 	H 	0.57480 0.80760 0.34330 0.15300
C 	C 	0.52430 0.82450 0.37200 0.23900
C 	C 	0.47950 0.81810 0.38060 -0.26800
H 	H 	0.46620 0.83330 0.39670 0.14400
Zn	Zn	0.34830 0.40463 0.87184 1.20000
Zn	Zn	0.28925 0.36651 0.82602 1.19900
O 	O 	0.81593 0.38884 0.96826 -0.49700
O 	O 	0.74531 0.39962 0.96838 -0.49300
O 	O 	0.65485 0.33635 0.88959 -0.48000
O 	O 	0.68644 0.29863 0.85269 -0.47700
O 	O 	0.92784 0.20457 0.69015 -0.48100
O 	O 	0.95376 0.15551 0.65842 -0.49100
O 	O 	0.10899 0.12562 0.65538 -0.49900
O 	O 	0.15185 0.14749 0.69269 -0.47300
O 	O 	0.24675 0.39029 0.85695 -0.47400
O 	O 	0.29151 0.42570 0.88804 -0.48800
O 	O 	0.22849 0.51251 0.96897 -0.49700
O 	O 	0.15725 0.52379 0.96928 -0.47600
O 	O 	0.89590 0.33200 0.90020 -0.26600
O 	O 	0.98510 0.22560 0.78249 -0.26800
O 	O 	0.11240 0.34960 0.87060 -0.26700
N 	N 	0.84300 0.28610 0.88207 -0.24900
H 	H 	0.83840 0.26300 0.87090 0.12600
N 	N 	0.91200 0.27610 0.86770 -0.26100
H 	H 	0.90140 0.25260 0.85890 0.12800
N 	N 	0.05370 0.21830 0.76591 -0.24800
H 	H 	0.08110 0.22390 0.77040 0.12100
N 	N 	0.04210 0.25190 0.80903 -0.28400
H 	H 	0.07080 0.25410 0.80880 0.13200
N 	N 	0.04410 0.35570 0.89090 -0.26000
H 	H 	0.02900 0.36680 0.90580 0.12900
N 	N 	0.09870 0.40010 0.90770 -0.23800
H 	H 	0.07960 0.40580 0.92190 0.12200
C 	C 	0.77881 0.38330 0.95842 0.43700
C 	C 	0.68750 0.32030 0.87633 0.39700
C 	C 	0.77360 0.35350 0.93178 -0.09300
C 	C 	0.73320 0.34860 0.91839 0.03500
H 	H 	0.70830 0.36270 0.92660 0.03900
C 	C 	0.72920 0.32270 0.89245 -0.09200
C 	C 	0.76480 0.30370 0.88052 -0.05100
H 	H 	0.76260 0.28830 0.86220 0.06100
C 	C 	0.80720 0.30690 0.89577 0.10300
C 	C 	0.80980 0.33220 0.92128 -0.05700
H 	H 	0.83680 0.33480 0.93160 0.08300
C 	C 	0.95720 0.18050 0.67993 0.41500
C 	C 	0.11570 0.14410 0.67908 0.40400
C 	C 	0.00030 0.17990 0.69525 -0.08600
C 	C 	0.03610 0.16050 0.68163 0.02300
H 	H 	0.03310 0.14620 0.66290 0.04200
C 	C 	0.07730 0.16230 0.69616 -0.07700
C 	C 	0.08220 0.17990 0.72301 -0.06600
H 	H 	0.10990 0.17930 0.73250 0.06500
C 	C 	0.04670 0.19920 0.73730 0.10900
C 	C 	0.00520 0.19940 0.72320 -0.06100
H 	H 	0.98090 0.21270 0.73270 0.08800
C 	C 	0.25440 0.41490 0.87882 0.39700
C 	C 	0.19120 0.50620 0.95950 0.41700
C 	C 	0.21610 0.42710 0.89751 -0.08400
C 	C 	0.22090 0.45760 0.92080 0.03100
H 	H 	0.24910 0.46870 0.92560 0.03900
C 	C 	0.18540 0.47110 0.93625 -0.09000
C 	C 	0.14470 0.45430 0.93020 -0.05600
H 	H 	0.11990 0.46390 0.94120 0.06200
C 	C 	0.14010 0.42330 0.90790 0.09900
C 	C 	0.17710 0.40920 0.89140 -0.05600
H 	H 	0.17430 0.38760 0.87630 0.08700
C 	C 	0.88430 0.30080 0.88560 0.30600
C 	C 	0.02400 0.22900 0.78720 0.32200
C 	C 	0.08760 0.36960 0.88630 0.29600
C 	C 	0.95710 0.28710 0.86276 0.23500
C 	C 	0.97570 0.26390 0.83868 -0.28200
H 	H 	0.95930 0.24340 0.82740 0.14700
C 	C 	0.02030 0.27290 0.83228 0.26000
C 	C 	0.04500 0.30230 0.84815 -0.29500
H 	H 	0.07480 0.30760 0.84330 0.15300
C 	C 	0.02430 0.32450 0.87200 0.23900
C 	C 	0.97950 0.31810 0.88060 -0.26800
H 	H 	0.96620 0.33330 0.89670 0.14400
Zn	Zn	0.15170 0.09537 0.37184 1.20000
Zn	Zn	0.21075 0.13349 0.32602 1.19900
O 	O 	0.68407 0.11116 0.46826 -0.49900
O 	O 	0.75469 0.10038 0.46838 -0.49600
O 	O 	0.84515 0.16365 0.38959 -0.48000
O 	O 	0.81356 0.20137 0.35269 -0.47700
O 	O 	0.57216 0.29543 0.19015 -0.48100
O 	O 	0.54624 0.34449 0.15842 -0.49100
O 	O 	0.39101 0.37438 0.15538 -0.49900
O 	O 	0.34815 0.35251 0.19269 -0.47300
O 	O 	0.25325 0.10971 0.35695 -0.47400
O 	O 	0.20849 0.07430 0.38804 -0.48800
O 	O 	0.27151 0.98749 0.46897 -0.49900
O 	O 	0.34275 0.97621 0.46928 -0.47800
O 	O 	0.60410 0.16800 0.40020 -0.26700
O 	O 	0.51490 0.27440 0.28249 -0.26800
O 	O 	0.38760 0.15040 0.37060 -0.26700
N 	N 	0.65700 0.21390 0.38207 -0.24900
H 	H 	0.66160 0.23700 0.37090 0.12600
N 	N 	0.58800 0.22390 0.36770 -0.26100
H 	H 	0.59860 0.24740 0.35890 0.12800
N 	N 	0.44630 0.28170 0.26591 -0.24800
H 	H 	0.41890 0.27610 0.27040 0.12100
N 	N 	0.45790 0.24810 0.30903 -0.28400
H 	H 	0.42920 0.24590 0.30880 0.13200
N 	N 	0.45590 0.14430 0.39090 -0.26000
H 	H 	0.47100 0.13320 0.40580 0.12900
N 	N 	0.40130 0.09990 0.40770 -0.23800
H 	H 	0.42040 0.09420 0.42190 0.12200
C 	C 	0.72119 0.11670 0.45842 0.43800
C 	C 	0.81250 0.17970 0.37633 0.39700
C 	C 	0.72640 0.14650 0.43178 -0.09400
C 	C 	0.76680 0.15140 0.41839 0.03600
H 	H 	0.79170 0.13730 0.42660 0.03900
C 	C 	0.77080 0.17730 0.39245 -0.09300
C 	C 	0.73520 0.19630 0.38052 -0.05000
H 	H 	0.73740 0.21170 0.36220 0.06100
C 	C 	0.69280 0.19310 0.39577 0.10300
C 	C 	0.69020 0.16780 0.42128 -0.05600
H 	H 	0.66320 0.16520 0.43160 0.08200
C 	C 	0.54280 0.31950 0.17993 0.41500
C 	C 	0.38430 0.35590 0.17908 0.40400
C 	C 	0.49970 0.32010 0.19525 -0.08600
C 	C 	0.46390 0.33950 0.18163 0.02300
H 	H 	0.46690 0.35380 0.16290 0.04200
C 	C 	0.42270 0.33770 0.19616 -0.07700
C 	C 	0.41780 0.32010 0.22301 -0.06600
H 	H 	0.39010 0.32070 0.23250 0.06500
C 	C 	0.45330 0.30080 0.23730 0.10900
C 	C 	0.49480 0.30060 0.22320 -0.06100
H 	H 	0.51910 0.28730 0.23270 0.08800
C 	C 	0.24560 0.08510 0.37882 0.39700
C 	C 	0.30880 0.99380 0.45950 0.41800
C 	C 	0.28390 0.07290 0.39751 -0.08500
C 	C 	0.27910 0.04240 0.42080 0.03100
H 	H 	0.25090 0.03130 0.42560 0.03900
C 	C 	0.31460 0.02890 0.43625 -0.09100
C 	C 	0.35530 0.04570 0.43020 -0.05600
H 	H 	0.38010 0.03610 0.44120 0.06100
C 	C 	0.35990 0.07670 0.40790 0.09800
C 	C 	0.32290 0.09080 0.39140 -0.05600
H 	H 	0.32570 0.11240 0.37630 0.08700
C 	C 	0.61570 0.19920 0.38560 0.30600
C 	C 	0.47600 0.27100 0.28720 0.32200
C 	C 	0.41240 0.13040 0.38630 0.29600
C 	C 	0.54290 0.21290 0.36276 0.23400
C 	C 	0.52430 0.23610 0.33868 -0.28200
H 	H 	0.54070 0.25660 0.32740 0.14700
C 	C 	0.47970 0.22710 0.33228 0.26000
C 	C 	0.45500 0.19770 0.34815 -0.29500
H 	H 	0.42520 0.19240 0.34330 0.15300
C 	C 	0.47570 0.17550 0.37200 0.23900
C 	C 	0.52050 0.18190 0.38060 -0.26800
H 	H 	0.53380 0.16670 0.39670 0.14400
Zn	Zn	0.65170 0.59537 0.87184 1.20000
Zn	Zn	0.71075 0.63349 0.82602 1.19900
O 	O 	0.18407 0.61116 0.96826 -0.49700
O 	O 	0.25469 0.60038 0.96838 -0.49300
O 	O 	0.34515 0.66365 0.88959 -0.48000
O 	O 	0.31356 0.70137 0.85269 -0.47700
O 	O 	0.07216 0.79543 0.69015 -0.48100
O 	O 	0.04624 0.84449 0.65842 -0.49100
O 	O 	0.89101 0.87438 0.65538 -0.49900
O 	O 	0.84815 0.85251 0.69269 -0.47300
O 	O 	0.75325 0.60971 0.85695 -0.47400
O 	O 	0.70849 0.57430 0.88804 -0.48800
O 	O 	0.77151 0.48749 0.96897 -0.49700
O 	O 	0.84275 0.47621 0.96928 -0.47600
O 	O 	0.10410 0.66800 0.90020 -0.26600
O 	O 	0.01490 0.77440 0.78249 -0.26800
O 	O 	0.88760 0.65040 0.87060 -0.26700
N 	N 	0.15700 0.71390 0.88207 -0.24900
H 	H 	0.16160 0.73700 0.87090 0.12600
N 	N 	0.08800 0.72390 0.86770 -0.26100
H 	H 	0.09860 0.74740 0.85890 0.12800
N 	N 	0.94630 0.78170 0.76591 -0.24800
H 	H 	0.91890 0.77610 0.77040 0.12100
N 	N 	0.95790 0.74810 0.80903 -0.28400
H 	H 	0.92920 0.74590 0.80880 0.13200
N 	N 	0.95590 0.64430 0.89090 -0.26000
H 	H 	0.97100 0.63320 0.90580 0.12900
N 	N 	0.90130 0.59990 0.90770 -0.23800
H 	H 	0.92040 0.59420 0.92190 0.12200
C 	C 	0.22119 0.61670 0.95842 0.43700
C 	C 	0.31250 0.67970 0.87633 0.39700
C 	C 	0.22640 0.64650 0.93178 -0.09300
C 	C 	0.26680 0.65140 0.91839 0.03500
H 	H 	0.29170 0.63730 0.92660 0.03900
C 	C 	0.27080 0.67730 0.89245 -0.09200
C 	C 	0.23520 0.69630 0.88052 -0.05100
H 	H 	0.23740 0.71170 0.86220 0.06100
C 	C 	0.19280 0.69310 0.89577 0.10300
C 	C 	0.19020 0.66780 0.92128 -0.05700
H 	H 	0.16320 0.66520 0.93160 0.08300
C 	C 	0.04280 0.81950 0.67993 0.41500
C 	C 	0.88430 0.85590 0.67908 0.40400
C 	C 	0.99970 0.82010 0.69525 -0.08600
C 	C 	0.96390 0.83950 0.68163 0.02300
H 	H 	0.96690 0.85380 0.66290 0.04200
C 	C 	0.92270 0.83770 0.69616 -0.07700
C 	C 	0.91780 0.82010 0.72301 -0.06600
H 	H 	0.89010 0.82070 0.73250 0.06500
C 	C 	0.95330 0.80080 0.73730 0.10900
C 	C 	0.99480 0.80060 0.72320 -0.06100
H 	H 	0.01910 0.78730 0.73270 0.08800
C 	C 	0.74560 0.58510 0.87882 0.39700
C 	C 	0.80880 0.49380 0.95950 0.41700
C 	C 	0.78390 0.57290 0.89751 -0.08400
C 	C 	0.77910 0.54240 0.92080 0.03100
H 	H 	0.75090 0.53130 0.92560 0.03900
C 	C 	0.81460 0.52890 0.93625 -0.09000
C 	C 	0.85530 0.54570 0.93020 -0.05600
H 	H 	0.88010 0.53610 0.94120 0.06200
C 	C 	0.85990 0.57670 0.90790 0.09900
C 	C 	0.82290 0.59080 0.89140 -0.05600
H 	H 	0.82570 0.61240 0.87630 0.08700
C 	C 	0.11570 0.69920 0.88560 0.30600
C 	C 	0.97600 0.77100 0.78720 0.32200
C 	C 	0.91240 0.63040 0.88630 0.29600
C 	C 	0.04290 0.71290 0.86276 0.23500
C 	C 	0.02430 0.73610 0.83868 -0.28200
H 	H 	0.04070 0.75660 0.82740 0.14700
C 	C 	0.97970 0.72710 0.83228 0.26000
C 	C 	0.95500 0.69770 0.84815 -0.29500
H 	H 	0.92520 0.69240 0.84330 0.15300
C 	C 	0.97570 0.67550 0.87200 0.23900
C 	C 	0.02050 0.68190 0.88060 -0.26800
H 	H 	0.03380 0.66670 0.89670 0.14400
Zn	Zn	0.07162 0.34182 0.50000 1.20400
Zn	Zn	0.05326 0.24633 0.50000 1.20100
Zn	Zn	0.57162 0.84182 -0.00000 1.20200
Zn	Zn	0.55326 0.74633 -0.00000 1.19900
Zn	Zn	0.92838 0.65818 0.50000 1.20400
Zn	Zn	0.94674 0.75367 0.50000 1.20100
Zn	Zn	0.42838 0.15818 -0.00000 1.20200
Zn	Zn	0.44674 0.25367 -0.00000 1.19900
Zn	Zn	0.65818 0.07162 0.50000 1.20400
Zn	Zn	0.75367 0.05326 0.50000 1.20100
Zn	Zn	0.15818 0.57162 -0.00000 1.20200
Zn	Zn	0.25367 0.55326 -0.00000 1.19900
Zn	Zn	0.34182 0.92838 0.50000 1.20400
Zn	Zn	0.24633 0.94674 0.50000 1.20100
Zn	Zn	0.84182 0.42838 -0.00000 1.20200
Zn	Zn	0.74633 0.44674 -0.00000 1.19900
