data_crystal

_cell_length_a 8.13870
_cell_length_b 18.46090
_cell_length_c 18.65530
_cell_angle_alpha 90.00000
_cell_angle_beta  90.00000
_cell_angle_gamma 90.00000

_symmetry_space_group_name_	'P 1'
_symmetry_space_group_name_H-M	'P 1'

loop_
_symmetry_equiv_pos_as_xyz
  x,y,z

loop_
_atom_site_label
_atom_site_type_symbol
_atom_site_fract_x
_atom_site_fract_y
_atom_site_fract_z
_atom_site_charge
Cu	Cu	0.79067 0.93076 0.41436 0.90100
Cu	Cu	0.79067 0.56924 0.08564 0.87300
Cu	Cu	0.70933 0.06924 0.91436 0.86300
Cu	Cu	0.70933 0.43076 0.58564 0.87500
Cu	Cu	0.20933 0.06924 0.58564 0.84600
Cu	Cu	0.20933 0.43076 0.91436 0.87300
Cu	Cu	0.29067 0.93076 0.08564 0.88500
Cu	Cu	0.29067 0.56924 0.41436 0.87200
Cu	Cu	-0.00000 0.50000 0.50000 0.90800
Cu	Cu	-0.00000 0.00000 -0.00000 0.85300
Cu	Cu	0.50000 0.50000 -0.00000 0.90500
Cu	Cu	0.50000 0.00000 0.50000 0.89800
H 	H 	0.80580 0.71040 0.51670 0.07300
H 	H 	0.57700 0.63040 0.69030 0.07900
H 	H 	0.58320 0.84460 0.65550 0.08600
H 	H 	0.38950 0.70810 0.75650 0.12800
H 	H 	0.99500 0.44600 0.62900 0.18500
H 	H 	0.80580 0.78960 0.98330 0.08600
H 	H 	0.57700 0.86960 0.80970 0.08600
H 	H 	0.58320 0.65540 0.84450 0.07700
H 	H 	0.38950 0.79190 0.74350 0.13000
H 	H 	0.99500 0.05400 0.87100 0.16800
H 	H 	0.69420 0.28960 0.01670 0.06300
H 	H 	0.92300 0.36960 0.19030 0.11000
H 	H 	0.91680 0.15540 0.15550 0.11000
H 	H 	0.11050 0.29190 0.25650 0.17000
H 	H 	0.50500 0.55400 0.12900 0.17000
H 	H 	0.69420 0.21040 0.48330 0.07300
H 	H 	0.92300 0.13040 0.30970 0.10200
H 	H 	0.91680 0.34460 0.34450 0.11100
H 	H 	0.11050 0.20810 0.24350 0.16800
H 	H 	0.50500 0.94600 0.37100 0.18400
H 	H 	0.19420 0.28960 0.48330 0.04700
H 	H 	0.42300 0.36960 0.30970 0.06900
H 	H 	0.41680 0.15540 0.34450 0.06300
H 	H 	0.61050 0.29190 0.24350 0.12300
H 	H 	0.00500 0.55400 0.37100 0.15800
H 	H 	0.19420 0.21040 0.01670 0.03500
H 	H 	0.42300 0.13040 0.19030 0.06300
H 	H 	0.41680 0.34460 0.15550 0.07300
H 	H 	0.61050 0.20810 0.25650 0.12000
H 	H 	0.00500 0.94600 0.12900 0.17200
H 	H 	0.30580 0.71040 0.98330 0.05800
H 	H 	0.07700 0.63040 0.80970 0.03800
H 	H 	0.08320 0.84460 0.84450 0.04200
H 	H 	0.88950 0.70810 0.74350 0.08100
H 	H 	0.49500 0.44600 0.87100 0.17200
H 	H 	0.30580 0.78960 0.51670 0.04800
H 	H 	0.07700 0.86960 0.69030 0.04700
H 	H 	0.08320 0.65540 0.65550 0.03800
H 	H 	0.88950 0.79190 0.75650 0.08300
H 	H 	0.49500 0.05400 0.62900 0.15800
C 	C 	0.70110 0.78720 0.57847 -0.01300
C 	C 	0.74580 0.71780 0.55850 -0.03000
C 	C 	0.70100 0.65900 0.60070 -0.03600
C 	C 	0.60830 0.66990 0.66259 -0.11200
C 	C 	0.56240 0.73940 0.68306 0.13600
C 	C 	0.61090 0.79790 0.64140 -0.12000
C 	C 	0.74560 0.85040 0.53200 0.29500
C 	C 	0.74980 0.58360 0.57980 0.34100
C 	C 	0.70110 0.71280 0.92153 -0.03000
C 	C 	0.74580 0.78220 0.94150 -0.02000
C 	C 	0.70100 0.84100 0.89930 -0.02700
C 	C 	0.60830 0.83010 0.83741 -0.11300
C 	C 	0.56240 0.76060 0.81694 0.13300
C 	C 	0.61090 0.70210 0.85860 -0.10800
C 	C 	0.74560 0.64960 0.96800 0.36600
C 	C 	0.74980 0.91640 0.92020 0.33400
C 	C 	0.79890 0.21280 0.07847 0.02500
C 	C 	0.75420 0.28220 0.05850 -0.06800
C 	C 	0.79900 0.34100 0.10070 -0.00700
C 	C 	0.89170 0.33010 0.16259 -0.17800
C 	C 	0.93760 0.26060 0.18306 0.25200
C 	C 	0.88910 0.20210 0.14140 -0.18900
C 	C 	0.75440 0.14960 0.03200 0.22900
C 	C 	0.75020 0.41640 0.07980 0.33200
C 	C 	0.79890 0.28720 0.42153 0.01400
C 	C 	0.75420 0.21780 0.44150 -0.05600
C 	C 	0.79900 0.15900 0.39930 -0.01200
C 	C 	0.89170 0.16990 0.33741 -0.17200
C 	C 	0.93760 0.23940 0.31694 0.24700
C 	C 	0.88910 0.29790 0.35860 -0.18000
C 	C 	0.75440 0.35040 0.46800 0.29000
C 	C 	0.75020 0.08360 0.42020 0.33500
C 	C 	0.29890 0.21280 0.42153 -0.05100
C 	C 	0.25420 0.28220 0.44150 -0.01400
C 	C 	0.29900 0.34100 0.39930 -0.06700
C 	C 	0.39170 0.33010 0.33741 -0.09900
C 	C 	0.43760 0.26060 0.31694 0.11100
C 	C 	0.38910 0.20210 0.35860 -0.10200
C 	C 	0.25440 0.14960 0.46800 0.30800
C 	C 	0.25020 0.41640 0.42020 0.34700
C 	C 	0.29890 0.28720 0.07847 -0.03200
C 	C 	0.25420 0.21780 0.05850 -0.02500
C 	C 	0.29900 0.15900 0.10070 -0.07300
C 	C 	0.39170 0.16990 0.16259 -0.10000
C 	C 	0.43760 0.23940 0.18306 0.11400
C 	C 	0.38910 0.29790 0.14140 -0.11500
C 	C 	0.25440 0.35040 0.03200 0.23800
C 	C 	0.25020 0.08360 0.07980 0.35000
C 	C 	0.20110 0.78720 0.92153 -0.08700
C 	C 	0.24580 0.71780 0.94150 0.02300
C 	C 	0.20100 0.65900 0.89930 -0.09500
C 	C 	0.10830 0.66990 0.83741 -0.03400
C 	C 	0.06240 0.73940 0.81694 -0.00300
C 	C 	0.11090 0.79790 0.85860 -0.03500
C 	C 	0.24560 0.85040 0.96800 0.37500
C 	C 	0.24980 0.58360 0.92020 0.35600
C 	C 	0.20110 0.71280 0.57847 -0.07600
C 	C 	0.24580 0.78220 0.55850 0.01100
C 	C 	0.20100 0.84100 0.60070 -0.08900
C 	C 	0.10830 0.83010 0.66259 -0.04000
C 	C 	0.06240 0.76060 0.68306 0.00200
C 	C 	0.11090 0.70210 0.64140 -0.04300
C 	C 	0.24560 0.64960 0.53200 0.31400
C 	C 	0.24980 0.91640 0.57980 0.35200
C 	C 	0.45980 0.75000 0.75000 -0.31600
C 	C 	0.04020 0.25000 0.25000 -0.51100
C 	C 	0.54020 0.25000 0.25000 -0.29800
C 	C 	0.95980 0.75000 0.75000 -0.10500
O 	O 	0.75250 0.91257 0.55707 -0.31200
O 	O 	0.77270 0.83678 0.46543 -0.38000
O 	O 	0.84870 0.57776 0.52771 -0.38800
O 	O 	0.69220 0.53271 0.61523 -0.43500
O 	O 	0.94670 0.44281 0.58315 -0.52000
O 	O 	0.75250 0.58743 0.94293 -0.33400
O 	O 	0.77270 0.66322 0.03457 -0.44400
O 	O 	0.84870 0.92224 0.97229 -0.33400
O 	O 	0.69220 0.96729 0.88477 -0.39000
O 	O 	0.94670 0.05719 0.91685 -0.51200
O 	O 	0.74750 0.08743 0.05707 -0.35200
O 	O 	0.72730 0.16322 0.96543 -0.33500
O 	O 	0.65130 0.42224 0.02771 -0.42200
O 	O 	0.80780 0.46729 0.11523 -0.43300
O 	O 	0.55330 0.55719 0.08315 -0.55400
O 	O 	0.74750 0.41257 0.44293 -0.33500
O 	O 	0.72730 0.33678 0.53457 -0.38800
O 	O 	0.65130 0.07776 0.47229 -0.42100
O 	O 	0.80780 0.03271 0.38477 -0.46400
O 	O 	0.55330 0.94281 0.41685 -0.51200
O 	O 	0.24750 0.08743 0.44293 -0.38000
O 	O 	0.22730 0.16322 0.53457 -0.41300
O 	O 	0.15130 0.42224 0.47229 -0.42800
O 	O 	0.30780 0.46729 0.38477 -0.44600
O 	O 	0.05330 0.55719 0.41685 -0.55100
O 	O 	0.24750 0.41257 0.05707 -0.36000
O 	O 	0.22730 0.33678 0.96543 -0.34900
O 	O 	0.15130 0.07776 0.02771 -0.46100
O 	O 	0.30780 0.03271 0.11523 -0.48700
O 	O 	0.05330 0.94281 0.08315 -0.53800
O 	O 	0.25250 0.91257 0.94293 -0.33300
O 	O 	0.27270 0.83678 0.03457 -0.45800
O 	O 	0.34870 0.57776 0.97229 -0.39200
O 	O 	0.19220 0.53271 0.88477 -0.44800
O 	O 	0.44670 0.44281 0.91685 -0.51600
O 	O 	0.25250 0.58743 0.55707 -0.35900
O 	O 	0.27270 0.66322 0.46543 -0.40400
O 	O 	0.34870 0.92224 0.52771 -0.39000
O 	O 	0.19220 0.96729 0.61523 -0.41500
O 	O 	0.44670 0.05719 0.58315 -0.55500
