data_crystal

_cell_length_a 30.58500
_cell_length_b 30.58500
_cell_length_c 27.34800
_cell_angle_alpha 90.00000
_cell_angle_beta  90.00000
_cell_angle_gamma 90.00000

_symmetry_space_group_name_	'P 1'
_symmetry_space_group_name_H-M	'P 1'

loop_
_symmetry_equiv_pos_as_xyz
  x,y,z

loop_
_atom_site_label
_atom_site_type_symbol
_atom_site_fract_x
_atom_site_fract_y
_atom_site_fract_z
_atom_site_charge
Nb	Nb	0.04054 0.99010 0.80646 1.05700
Nb	Nb	0.04113 0.99012 0.69930 1.05700
Nb	Nb	0.98069 0.93278 0.75251 1.09400
Nb	Nb	0.94700 0.00916 0.80588 1.07800
Nb	Nb	0.94739 0.00901 0.69870 1.08000
Nb	Nb	0.00743 0.06633 0.75254 1.04500
Cl	Cl	0.03291 0.91028 0.81600 -0.68800
Cl	Cl	0.99338 0.99952 0.87885 -0.57100
Cl	Cl	0.10461 0.97778 0.75344 -0.58600
Cl	Cl	0.06469 0.06662 0.81624 -0.63200
Cl	Cl	0.03377 0.91055 0.68975 -0.70600
Cl	Cl	0.99461 0.99954 0.62648 -0.58700
Cl	Cl	0.06551 0.06666 0.68976 -0.62500
Cl	Cl	0.92260 0.93247 0.81530 -0.61200
Cl	Cl	0.92334 0.93239 0.68924 -0.61400
Cl	Cl	0.88370 0.02140 0.75208 -0.58300
Cl	Cl	0.95429 0.08925 0.81519 -0.61200
Cl	Cl	0.95467 0.08897 0.68914 -0.61600
N 	N 	0.11562 0.96749 0.89528 -0.03300
N 	N 	0.11954 0.97074 0.61336 -0.03500
N 	N 	0.96749 0.82076 0.75120 -0.16900
N 	N 	0.87015 0.03100 0.89337 -0.02800
N 	N 	0.86942 0.02771 0.61216 -0.03000
N 	N 	0.02371 0.17753 0.75150 -0.16800
N 	N 	0.03939 0.77021 0.80087 -0.34800
N 	N 	0.03908 0.77111 0.69996 -0.35000
C 	C 	0.09109 0.97726 0.86575 -0.01200
C 	C 	0.09338 0.97819 0.64179 -0.01600
C 	C 	0.96911 0.85843 0.75203 -0.00500
C 	C 	0.89543 0.02188 0.86448 0.00400
C 	C 	0.89562 0.01998 0.64060 -0.00400
C 	C 	0.02017 0.14027 0.75211 -0.03500
C 	C 	0.97690 0.24550 0.64990 0.11300
C 	C 	0.91945 0.21912 0.70547 0.73700
C 	C 	0.89410 0.20890 0.66018 -1.14500
H 	H 	0.91200 0.21560 0.63140 0.39500
H 	H 	0.86740 0.22660 0.65950 0.40000
H 	H 	0.88630 0.17780 0.66000 0.41000
C 	C 	0.90078 0.21191 0.75113 -0.77800
H 	H 	0.87150 0.20170 0.75140 0.31300
C 	C 	0.98270 0.23200 0.85130 0.12400
C 	C 	0.92028 0.21804 0.79630 0.74300
C 	C 	0.89550 0.20540 0.84174 -1.13800
H 	H 	0.86690 0.19340 0.83260 0.40000
H 	H 	0.89140 0.23120 0.86240 0.39700
H 	H 	0.91210 0.18320 0.85980 0.40700
C 	C 	0.09376 0.81522 0.66003 -0.90600
H 	H 	0.08050 0.80200 0.63090 0.31800
H 	H 	0.12470 0.80710 0.66170 0.33900
H 	H 	0.09110 0.84710 0.65810 0.34200
C 	C 	0.07055 0.79895 0.70505 0.47400
C 	C 	0.08470 0.81366 0.75082 -0.55000
H 	H 	0.10580 0.83650 0.75100 0.25000
C 	C 	0.00260 0.22570 0.10040 0.02200
C 	C 	0.07105 0.79835 0.79574 0.47100
C 	C 	0.09393 0.81311 0.84166 -0.88500
H 	H 	0.11700 0.83410 0.83320 0.33300
H 	H 	0.10690 0.78780 0.85810 0.32400
H 	H 	0.07280 0.82710 0.86360 0.31900
C 	C 	0.02500 0.75200 0.65040 -0.05200
O 	O 	0.95864 0.23463 0.69978 -0.55400
O 	O 	0.95863 0.23431 0.80149 -0.56300
O 	O 	0.02021 0.21061 0.05087 -0.55500
O 	O 	0.02111 0.21092 0.94996 -0.55000
Nb	Nb	0.54054 0.49010 0.30646 1.07100
Nb	Nb	0.54113 0.49012 0.19930 1.07100
Nb	Nb	0.48069 0.43278 0.25251 1.07000
Nb	Nb	0.44700 0.50916 0.30588 1.07000
Nb	Nb	0.44739 0.50901 0.19870 1.07100
Nb	Nb	0.50743 0.56633 0.25254 1.06700
Cl	Cl	0.53291 0.41028 0.31600 -0.65900
Cl	Cl	0.49338 0.49952 0.37885 -0.60700
Cl	Cl	0.60461 0.47778 0.25344 -0.58800
Cl	Cl	0.56469 0.56662 0.31624 -0.62400
Cl	Cl	0.53377 0.41055 0.18975 -0.67600
Cl	Cl	0.49461 0.49954 0.12648 -0.62300
Cl	Cl	0.56551 0.56666 0.18976 -0.61800
Cl	Cl	0.42260 0.43247 0.31530 -0.61800
Cl	Cl	0.42334 0.43239 0.18924 -0.61900
Cl	Cl	0.38370 0.52140 0.25208 -0.58400
Cl	Cl	0.45429 0.58925 0.31519 -0.63600
Cl	Cl	0.45467 0.58897 0.18914 -0.64200
N 	N 	0.61562 0.46749 0.39528 -0.03100
N 	N 	0.61954 0.47074 0.11336 -0.03400
N 	N 	0.46749 0.32076 0.25120 -0.17600
N 	N 	0.37015 0.53100 0.39337 -0.02900
N 	N 	0.36942 0.52771 0.11216 -0.03100
N 	N 	0.52371 0.67753 0.25150 -0.16300
N 	N 	0.53939 0.27021 0.30087 -0.34600
N 	N 	0.53908 0.27111 0.19996 -0.34700
C 	C 	0.59109 0.47726 0.36575 -0.00400
C 	C 	0.59338 0.47819 0.14179 -0.00800
C 	C 	0.46911 0.35843 0.25203 -0.02300
C 	C 	0.39543 0.52188 0.36448 0.00200
C 	C 	0.39562 0.51998 0.14060 -0.00500
C 	C 	0.52017 0.64027 0.25211 -0.01700
C 	C 	0.47690 0.74550 0.14990 0.06900
C 	C 	0.41945 0.71912 0.20547 0.73400
C 	C 	0.39410 0.70890 0.16018 -1.14200
H 	H 	0.41200 0.71560 0.13140 0.39200
H 	H 	0.36740 0.72660 0.15950 0.40000
H 	H 	0.38630 0.67780 0.16000 0.40700
C 	C 	0.40078 0.71191 0.25113 -0.77900
H 	H 	0.37150 0.70170 0.25140 0.31400
C 	C 	0.48270 0.73200 0.35130 0.05100
C 	C 	0.42028 0.71804 0.29630 0.73800
C 	C 	0.39550 0.70540 0.34174 -1.13200
H 	H 	0.36690 0.69340 0.33260 0.39800
H 	H 	0.39140 0.73120 0.36240 0.39500
H 	H 	0.41210 0.68320 0.35980 0.40200
C 	C 	0.59376 0.31522 0.16003 -0.91400
H 	H 	0.58050 0.30200 0.13090 0.32400
H 	H 	0.62470 0.30710 0.16170 0.34100
H 	H 	0.59110 0.34710 0.15810 0.34700
C 	C 	0.57055 0.29895 0.20505 0.48100
C 	C 	0.58470 0.31366 0.25082 -0.55300
H 	H 	0.60580 0.33650 0.25100 0.25100
C 	C 	0.50260 0.72570 0.60040 0.07300
C 	C 	0.57105 0.29835 0.29574 0.47900
C 	C 	0.59393 0.31311 0.34166 -0.89600
H 	H 	0.61700 0.33410 0.33320 0.33700
H 	H 	0.60690 0.28780 0.35810 0.32700
H 	H 	0.57280 0.32710 0.36360 0.32900
C 	C 	0.52500 0.25200 0.15040 -0.02400
O 	O 	0.45864 0.73463 0.19978 -0.56200
O 	O 	0.45863 0.73431 0.30149 -0.56500
O 	O 	0.52021 0.71061 0.55087 -0.55500
O 	O 	0.52111 0.71092 0.44996 -0.55400
Nb	Nb	0.45946 0.00990 0.30646 1.07100
Nb	Nb	0.45887 0.00988 0.19930 1.07200
Nb	Nb	0.51931 0.06722 0.25251 1.07000
Nb	Nb	0.55300 0.99084 0.30588 1.07000
Nb	Nb	0.55261 0.99099 0.19870 1.07100
Nb	Nb	0.49257 0.93367 0.25254 1.06700
Cl	Cl	0.46709 0.08972 0.31600 -0.65800
Cl	Cl	0.50662 0.00048 0.37885 -0.60700
Cl	Cl	0.39539 0.02222 0.25344 -0.58700
Cl	Cl	0.43531 0.93338 0.31624 -0.62400
Cl	Cl	0.46623 0.08945 0.18975 -0.67600
Cl	Cl	0.50539 0.00046 0.12648 -0.62300
Cl	Cl	0.43449 0.93334 0.18976 -0.61800
Cl	Cl	0.57740 0.06753 0.31530 -0.61800
Cl	Cl	0.57666 0.06761 0.18924 -0.61900
Cl	Cl	0.61630 0.97860 0.25208 -0.58400
Cl	Cl	0.54571 0.91075 0.31519 -0.63600
Cl	Cl	0.54533 0.91103 0.18914 -0.64200
N 	N 	0.38438 0.03251 0.39528 -0.03100
N 	N 	0.38046 0.02926 0.11336 -0.03300
N 	N 	0.53251 0.17924 0.25120 -0.17600
N 	N 	0.62985 0.96900 0.39337 -0.02900
N 	N 	0.63058 0.97229 0.11216 -0.03100
N 	N 	0.47629 0.82247 0.25150 -0.16300
N 	N 	0.46061 0.22979 0.30087 -0.34600
N 	N 	0.46092 0.22889 0.19996 -0.34700
C 	C 	0.40891 0.02274 0.36575 -0.00300
C 	C 	0.40662 0.02181 0.14179 -0.00700
C 	C 	0.53089 0.14157 0.25203 -0.02300
C 	C 	0.60457 0.97812 0.36448 0.00200
C 	C 	0.60438 0.98002 0.14060 -0.00500
C 	C 	0.47983 0.85973 0.25211 -0.01700
C 	C 	0.52310 0.75450 0.14990 0.06900
C 	C 	0.58055 0.78088 0.20547 0.73400
C 	C 	0.60590 0.79110 0.16018 -1.14100
H 	H 	0.58800 0.78440 0.13140 0.39200
H 	H 	0.63260 0.77340 0.15950 0.40000
H 	H 	0.61370 0.82220 0.16000 0.40700
C 	C 	0.59922 0.78809 0.25113 -0.77900
H 	H 	0.62850 0.79830 0.25140 0.31400
C 	C 	0.51730 0.76800 0.35130 0.05100
C 	C 	0.57972 0.78196 0.29630 0.73800
C 	C 	0.60450 0.79460 0.34174 -1.13100
H 	H 	0.63310 0.80660 0.33260 0.39700
H 	H 	0.60860 0.76880 0.36240 0.39500
H 	H 	0.58790 0.81680 0.35980 0.40200
C 	C 	0.40624 0.18478 0.16003 -0.91400
H 	H 	0.41950 0.19800 0.13090 0.32400
H 	H 	0.37530 0.19290 0.16170 0.34100
H 	H 	0.40890 0.15290 0.15810 0.34700
C 	C 	0.42945 0.20105 0.20505 0.48100
C 	C 	0.41530 0.18634 0.25082 -0.55300
H 	H 	0.39420 0.16350 0.25100 0.25100
C 	C 	0.49740 0.77430 0.60040 0.07300
C 	C 	0.42895 0.20165 0.29574 0.47900
C 	C 	0.40607 0.18689 0.34166 -0.89600
H 	H 	0.38300 0.16590 0.33320 0.33700
H 	H 	0.39310 0.21220 0.35810 0.32700
H 	H 	0.42720 0.17290 0.36360 0.33000
C 	C 	0.47500 0.24800 0.15040 -0.02400
O 	O 	0.54136 0.76537 0.19978 -0.56200
O 	O 	0.54137 0.76569 0.30149 -0.56500
O 	O 	0.47979 0.78939 0.55087 -0.55600
O 	O 	0.47889 0.78908 0.44996 -0.55400
Nb	Nb	0.95946 0.50990 0.80646 1.08600
Nb	Nb	0.95887 0.50988 0.69930 1.08700
Nb	Nb	0.01931 0.56722 0.75251 1.04800
Nb	Nb	0.05300 0.49084 0.80588 1.06300
Nb	Nb	0.05261 0.49099 0.69870 1.06400
Nb	Nb	0.99257 0.43367 0.75254 1.09200
Cl	Cl	0.96709 0.58972 0.81600 -0.62800
Cl	Cl	0.00662 0.50048 0.87885 -0.64100
Cl	Cl	0.89539 0.52222 0.75344 -0.58900
Cl	Cl	0.93531 0.43338 0.81624 -0.61400
Cl	Cl	0.96623 0.58945 0.68975 -0.64500
Cl	Cl	0.00539 0.50046 0.62648 -0.65800
Cl	Cl	0.93449 0.43334 0.68976 -0.61000
Cl	Cl	0.07740 0.56753 0.81530 -0.62200
Cl	Cl	0.07666 0.56761 0.68924 -0.62300
Cl	Cl	0.11630 0.47860 0.75208 -0.58400
Cl	Cl	0.04571 0.41075 0.81519 -0.66000
Cl	Cl	0.04533 0.41103 0.68914 -0.66800
N 	N 	0.88438 0.53251 0.89528 -0.03000
N 	N 	0.88046 0.52926 0.61336 -0.03200
N 	N 	0.03251 0.67924 0.75120 -0.18000
N 	N 	0.12985 0.46900 0.89337 -0.03100
N 	N 	0.13058 0.47229 0.61216 -0.03300
N 	N 	0.97629 0.32247 0.75150 -0.15500
N 	N 	0.96061 0.72979 0.80087 -0.33900
N 	N 	0.96092 0.72889 0.69996 -0.33900
C 	C 	0.90891 0.52274 0.86575 0.00500
C 	C 	0.90662 0.52181 0.64179 0.00000
C 	C 	0.03089 0.64157 0.75203 -0.04000
C 	C 	0.10457 0.47812 0.86448 0.00100
C 	C 	0.10438 0.48002 0.64060 -0.00600
C 	C 	0.97983 0.35973 0.75211 0.00100
C 	C 	0.02310 0.25450 0.64990 0.02500
C 	C 	0.08055 0.28088 0.70547 0.72800
C 	C 	0.10590 0.29110 0.66018 -1.13500
H 	H 	0.08800 0.28440 0.63140 0.38700
H 	H 	0.13260 0.27340 0.65950 0.39800
H 	H 	0.11370 0.32220 0.66000 0.40300
C 	C 	0.09922 0.28809 0.75113 -0.77700
H 	H 	0.12850 0.29830 0.75140 0.31300
C 	C 	0.01730 0.26800 0.85130 -0.02100
C 	C 	0.07972 0.28196 0.79630 0.73100
C 	C 	0.10450 0.29460 0.84174 -1.12200
H 	H 	0.13310 0.30660 0.83260 0.39500
H 	H 	0.10860 0.26880 0.86240 0.39300
H 	H 	0.08790 0.31680 0.85980 0.39600
C 	C 	0.90624 0.68478 0.66003 -0.92100
H 	H 	0.91950 0.69800 0.63090 0.32900
H 	H 	0.87530 0.69290 0.66170 0.34200
H 	H 	0.90890 0.65290 0.65810 0.35200
C 	C 	0.92945 0.70105 0.70505 0.48700
C 	C 	0.91530 0.68634 0.75082 -0.55300
H 	H 	0.89420 0.66350 0.75100 0.25100
C 	C 	0.99740 0.27430 0.10040 0.12500
C 	C 	0.92895 0.70165 0.79574 0.48700
C 	C 	0.90607 0.68689 0.84166 -0.90700
H 	H 	0.88300 0.66590 0.83320 0.34100
H 	H 	0.89310 0.71220 0.85810 0.33100
H 	H 	0.92720 0.67290 0.86360 0.34000
C 	C 	0.97500 0.74800 0.65040 0.00500
O 	O 	0.04136 0.26537 0.69978 -0.56300
O 	O 	0.04137 0.26569 0.80149 -0.56100
O 	O 	0.97979 0.28939 0.05087 -0.54800
O 	O 	0.97889 0.28908 0.94996 -0.55200
Nb	Nb	0.75990 0.29054 0.05646 1.07100
Nb	Nb	0.75988 0.29113 0.94930 1.07100
Nb	Nb	0.81722 0.23069 0.00251 1.07200
Nb	Nb	0.74084 0.19700 0.05588 1.07000
Nb	Nb	0.74099 0.19739 0.94870 1.07100
Nb	Nb	0.68367 0.25743 0.00254 1.06800
Cl	Cl	0.83972 0.28291 0.06600 -0.65900
Cl	Cl	0.75048 0.24338 0.12885 -0.60600
Cl	Cl	0.77222 0.35461 0.00344 -0.58800
Cl	Cl	0.68338 0.31469 0.06624 -0.62100
Cl	Cl	0.83945 0.28377 0.93975 -0.67900
Cl	Cl	0.75046 0.24461 0.87648 -0.62400
Cl	Cl	0.68334 0.31551 0.93976 -0.61900
Cl	Cl	0.81753 0.17260 0.06530 -0.61200
Cl	Cl	0.81761 0.17334 0.93924 -0.61700
Cl	Cl	0.72860 0.13370 0.00208 -0.58200
Cl	Cl	0.66075 0.20429 0.06519 -0.63500
Cl	Cl	0.66103 0.20467 0.93914 -0.64300
N 	N 	0.78251 0.36562 0.14528 -0.03200
N 	N 	0.77926 0.36954 0.86336 -0.03400
N 	N 	0.92924 0.21749 0.00120 -0.14500
N 	N 	0.71900 0.12015 0.14337 -0.02900
N 	N 	0.72229 0.11942 0.86216 -0.03100
N 	N 	0.57247 0.27371 0.00150 -0.16200
C 	C 	0.77274 0.34109 0.11575 -0.00400
C 	C 	0.77181 0.34338 0.89179 -0.00900
C 	C 	0.89157 0.21911 0.00203 -0.01800
C 	C 	0.72812 0.14543 0.11448 0.00300
C 	C 	0.73002 0.14562 0.89060 -0.00500
C 	C 	0.60973 0.27017 0.00211 -0.01600
C 	C 	0.50450 0.22690 0.89990 0.06900
C 	C 	0.53088 0.16945 0.95547 0.73300
C 	C 	0.54110 0.14410 0.91018 -1.14000
H 	H 	0.53440 0.16200 0.88140 0.39100
H 	H 	0.52340 0.11740 0.90950 0.39900
H 	H 	0.57220 0.13630 0.91000 0.40600
C 	C 	0.53809 0.15078 0.00113 -0.77800
H 	H 	0.54830 0.12150 0.00140 0.31400
C 	C 	0.51800 0.23270 0.10130 0.07400
C 	C 	0.53196 0.17028 0.04630 0.73900
C 	C 	0.54460 0.14550 0.09174 -1.13200
H 	H 	0.55660 0.11690 0.08260 0.39800
H 	H 	0.51880 0.14140 0.11240 0.39500
H 	H 	0.56680 0.16210 0.10980 0.40100
C 	C 	0.93478 0.34376 0.91003 -1.13000
H 	H 	0.94800 0.33050 0.88090 0.39000
H 	H 	0.94290 0.37470 0.91170 0.40800
H 	H 	0.90290 0.34110 0.90810 0.40700
C 	C 	0.95105 0.32055 0.95505 0.72200
C 	C 	0.93634 0.33470 0.00082 -0.75100
H 	H 	0.91350 0.35580 0.00100 0.31500
C 	C 	0.52430 0.25260 0.35040 -0.02000
C 	C 	0.95165 0.32105 0.04574 0.72000
C 	C 	0.93689 0.34393 0.09166 -1.11000
H 	H 	0.91590 0.36700 0.08320 0.39700
H 	H 	0.96220 0.35690 0.10810 0.39700
H 	H 	0.92290 0.32280 0.11360 0.39000
C 	C 	0.99800 0.27500 0.90040 0.12600
O 	O 	0.51537 0.20864 0.94978 -0.56200
O 	O 	0.51569 0.20863 0.05149 -0.56900
Nb	Nb	0.25990 0.79054 0.55646 1.07100
Nb	Nb	0.25988 0.79113 0.44930 1.07100
Nb	Nb	0.31722 0.73069 0.50251 1.07100
Nb	Nb	0.24084 0.69700 0.55588 1.07000
Nb	Nb	0.24099 0.69739 0.44870 1.07100
Nb	Nb	0.18367 0.75743 0.50254 1.06700
Cl	Cl	0.33972 0.78291 0.56600 -0.65900
Cl	Cl	0.25048 0.74338 0.62885 -0.60500
Cl	Cl	0.27222 0.85461 0.50344 -0.59000
Cl	Cl	0.18338 0.81469 0.56624 -0.62200
Cl	Cl	0.33945 0.78377 0.43975 -0.67900
Cl	Cl	0.25046 0.74461 0.37648 -0.62400
Cl	Cl	0.18334 0.81551 0.43976 -0.62000
Cl	Cl	0.31753 0.67260 0.56530 -0.61400
Cl	Cl	0.31761 0.67334 0.43924 -0.61800
Cl	Cl	0.22860 0.63370 0.50208 -0.58400
Cl	Cl	0.16075 0.70429 0.56519 -0.63500
Cl	Cl	0.16103 0.70467 0.43914 -0.64200
N 	N 	0.28251 0.86562 0.64528 -0.03200
N 	N 	0.27926 0.86954 0.36336 -0.03400
N 	N 	0.42924 0.71749 0.50120 -0.15600
N 	N 	0.21900 0.62015 0.64337 -0.02900
N 	N 	0.22229 0.61942 0.36216 -0.03100
N 	N 	0.07247 0.77371 0.50150 -0.16900
C 	C 	0.27274 0.84109 0.61575 -0.00400
C 	C 	0.27181 0.84338 0.39179 -0.00900
C 	C 	0.39157 0.71911 0.50203 -0.02000
C 	C 	0.22812 0.64543 0.61448 0.00300
C 	C 	0.23002 0.64562 0.39060 -0.00500
C 	C 	0.10973 0.77017 0.50211 -0.01800
C 	C 	0.00450 0.72690 0.39990 0.01700
C 	C 	0.03088 0.66945 0.45547 0.72100
C 	C 	0.04110 0.64410 0.41018 -1.12200
H 	H 	0.03440 0.66200 0.38140 0.38300
H 	H 	0.02340 0.61740 0.40950 0.38400
H 	H 	0.07220 0.63630 0.41000 0.40000
C 	C 	0.03809 0.65078 0.50113 -0.77500
H 	H 	0.04830 0.62150 0.50140 0.30800
C 	C 	0.01800 0.73270 0.60130 0.04500
C 	C 	0.03196 0.67028 0.54630 0.72800
C 	C 	0.04460 0.64550 0.59174 -1.11500
H 	H 	0.05660 0.61690 0.58260 0.39000
H 	H 	0.01880 0.64140 0.61240 0.37900
H 	H 	0.06680 0.66210 0.60980 0.39600
C 	C 	0.43478 0.84376 0.41003 -1.11800
H 	H 	0.44800 0.83050 0.38090 0.38400
H 	H 	0.44290 0.87470 0.41170 0.39800
H 	H 	0.40290 0.84110 0.40810 0.40400
C 	C 	0.45105 0.82055 0.45505 0.71400
C 	C 	0.43634 0.83470 0.50082 -0.75200
H 	H 	0.41350 0.85580 0.50100 0.31300
C 	C 	0.02430 0.75260 0.85040 -0.06000
C 	C 	0.45165 0.82105 0.54574 0.71300
C 	C 	0.43689 0.84393 0.59166 -1.09900
H 	H 	0.41590 0.86700 0.58320 0.39200
H 	H 	0.46220 0.85690 0.60810 0.38600
H 	H 	0.42290 0.82280 0.61360 0.38800
C 	C 	0.49800 0.77500 0.40040 0.05000
O 	O 	0.01537 0.70864 0.44978 -0.56000
O 	O 	0.01569 0.70863 0.55149 -0.57500
Nb	Nb	0.74010 0.70946 0.55646 1.07100
Nb	Nb	0.74012 0.70887 0.44930 1.07100
Nb	Nb	0.68278 0.76931 0.50251 1.07100
Nb	Nb	0.75916 0.80300 0.55588 1.07000
Nb	Nb	0.75901 0.80261 0.44870 1.07100
Nb	Nb	0.81633 0.74257 0.50254 1.06700
Cl	Cl	0.66028 0.71709 0.56600 -0.65900
Cl	Cl	0.74952 0.75662 0.62885 -0.60600
Cl	Cl	0.72778 0.64539 0.50344 -0.58900
Cl	Cl	0.81662 0.68531 0.56624 -0.61900
Cl	Cl	0.66055 0.71623 0.43975 -0.67900
Cl	Cl	0.74954 0.75539 0.37648 -0.62400
Cl	Cl	0.81666 0.68449 0.43976 -0.61600
Cl	Cl	0.68247 0.82740 0.56530 -0.61400
Cl	Cl	0.68239 0.82666 0.43924 -0.61800
Cl	Cl	0.77140 0.86630 0.50208 -0.58400
Cl	Cl	0.83925 0.79571 0.56519 -0.63600
Cl	Cl	0.83897 0.79533 0.43914 -0.64300
N 	N 	0.71749 0.63438 0.64528 -0.03200
N 	N 	0.72074 0.63046 0.36336 -0.03400
N 	N 	0.57076 0.78251 0.50120 -0.15600
N 	N 	0.78100 0.87985 0.64337 -0.02900
N 	N 	0.77771 0.88058 0.36216 -0.03100
N 	N 	0.92753 0.72629 0.50150 -0.15300
C 	C 	0.72726 0.65891 0.61575 -0.00400
C 	C 	0.72819 0.65662 0.39179 -0.00900
C 	C 	0.60843 0.78089 0.50203 -0.02000
C 	C 	0.77188 0.85457 0.61448 0.00300
C 	C 	0.76998 0.85438 0.39060 -0.00500
C 	C 	0.89027 0.72983 0.50211 -0.01500
C 	C 	0.99550 0.77310 0.39990 0.12200
C 	C 	0.96912 0.83055 0.45547 0.74700
C 	C 	0.95890 0.85590 0.41018 -1.16000
H 	H 	0.96560 0.83800 0.38140 0.40000
H 	H 	0.97660 0.88260 0.40950 0.41600
H 	H 	0.92780 0.86370 0.41000 0.41300
C 	C 	0.96191 0.84922 0.50113 -0.78200
H 	H 	0.95170 0.87850 0.50140 0.31900
C 	C 	0.98200 0.76730 0.60130 0.10300
C 	C 	0.96804 0.82972 0.54630 0.75000
C 	C 	0.95540 0.85450 0.59174 -1.14800
H 	H 	0.94340 0.88310 0.58260 0.40500
H 	H 	0.98120 0.85860 0.61240 0.41000
H 	H 	0.93320 0.83790 0.60980 0.40500
C 	C 	0.56522 0.65624 0.41003 -1.11800
H 	H 	0.55200 0.66950 0.38090 0.38400
H 	H 	0.55710 0.62530 0.41170 0.39800
H 	H 	0.59710 0.65890 0.40810 0.40400
C 	C 	0.54895 0.67945 0.45505 0.71400
C 	C 	0.56366 0.66530 0.50082 -0.75200
H 	H 	0.58650 0.64420 0.50100 0.31300
C 	C 	0.97570 0.74740 0.85040 0.02100
C 	C 	0.54835 0.67895 0.54574 0.71300
C 	C 	0.56311 0.65607 0.59166 -1.09900
H 	H 	0.58410 0.63300 0.58320 0.39200
H 	H 	0.53780 0.64310 0.60810 0.38600
H 	H 	0.57710 0.67720 0.61360 0.38800
C 	C 	0.50200 0.72500 0.40040 0.05000
O 	O 	0.98463 0.79136 0.44978 -0.55700
O 	O 	0.98431 0.79137 0.55149 -0.55800
Nb	Nb	0.24010 0.20946 0.05646 1.07100
Nb	Nb	0.24012 0.20887 0.94930 1.07100
Nb	Nb	0.18278 0.26931 0.00251 1.07100
Nb	Nb	0.25916 0.30300 0.05588 1.07000
Nb	Nb	0.25901 0.30261 0.94870 1.07100
Nb	Nb	0.31633 0.24257 0.00254 1.06800
Cl	Cl	0.16028 0.21709 0.06600 -0.65800
Cl	Cl	0.24952 0.25662 0.12885 -0.60500
Cl	Cl	0.22778 0.14539 0.00344 -0.58800
Cl	Cl	0.31662 0.18531 0.06624 -0.62000
Cl	Cl	0.16055 0.21623 0.93975 -0.67900
Cl	Cl	0.24954 0.25539 0.87648 -0.62400
Cl	Cl	0.31666 0.18449 0.93976 -0.61900
Cl	Cl	0.18247 0.32740 0.06530 -0.61500
Cl	Cl	0.18239 0.32666 0.93924 -0.62000
Cl	Cl	0.27140 0.36630 0.00208 -0.58300
Cl	Cl	0.33925 0.29571 0.06519 -0.63500
Cl	Cl	0.33897 0.29533 0.93914 -0.64300
N 	N 	0.21749 0.13438 0.14528 -0.03200
N 	N 	0.22074 0.13046 0.86336 -0.03400
N 	N 	0.07076 0.28251 0.00120 -0.16300
N 	N 	0.28100 0.37985 0.14337 -0.02900
N 	N 	0.27771 0.38058 0.86216 -0.03100
N 	N 	0.42753 0.22629 0.00150 -0.16200
C 	C 	0.22726 0.15891 0.11575 -0.00300
C 	C 	0.22819 0.15662 0.89179 -0.00900
C 	C 	0.10843 0.28089 0.00203 -0.02100
C 	C 	0.27188 0.35457 0.11448 0.00300
C 	C 	0.26998 0.35438 0.89060 -0.00500
C 	C 	0.39027 0.22983 0.00211 -0.01600
C 	C 	0.49550 0.27310 0.89990 0.06900
C 	C 	0.46912 0.33055 0.95547 0.73300
C 	C 	0.45890 0.35590 0.91018 -1.14000
H 	H 	0.46560 0.33800 0.88140 0.39100
H 	H 	0.47660 0.38260 0.90950 0.39900
H 	H 	0.42780 0.36370 0.91000 0.40600
C 	C 	0.46191 0.34922 0.00113 -0.77800
H 	H 	0.45170 0.37850 0.00140 0.31400
C 	C 	0.48200 0.26730 0.10130 0.07400
C 	C 	0.46804 0.32972 0.04630 0.73900
C 	C 	0.45540 0.35450 0.09174 -1.13200
H 	H 	0.44340 0.38310 0.08260 0.39800
H 	H 	0.48120 0.35860 0.11240 0.39500
H 	H 	0.43320 0.33790 0.10980 0.40100
C 	C 	0.06522 0.15624 0.91003 -1.10200
H 	H 	0.05200 0.16950 0.88090 0.37700
H 	H 	0.05710 0.12530 0.91170 0.38800
H 	H 	0.09710 0.15890 0.90810 0.39900
C 	C 	0.04895 0.17945 0.95505 0.70000
C 	C 	0.06366 0.16530 0.00082 -0.74500
H 	H 	0.08650 0.14420 0.00100 0.31000
C 	C 	0.47570 0.24740 0.35040 -0.02000
C 	C 	0.04835 0.17895 0.04574 0.70200
C 	C 	0.06311 0.15607 0.09166 -1.08600
H 	H 	0.08410 0.13300 0.08320 0.38700
H 	H 	0.03780 0.14310 0.10810 0.37600
H 	H 	0.07710 0.17720 0.11360 0.38500
C 	C 	0.00200 0.22500 0.90040 -0.02400
O 	O 	0.48463 0.29136 0.94978 -0.56200
O 	O 	0.48431 0.29137 0.05149 -0.57000
Mn	Mn	-0.00000 0.25000 0.75068 1.34600
Mn	Mn	0.50000 0.75000 0.25068 1.36300
Mn	Mn	0.50000 0.25000 0.00068 1.36300
Mn	Mn	0.00000 0.75000 0.50068 1.34600
Mn	Mn	0.00000 0.75000 0.75040 1.28200
Mn	Mn	0.50000 0.25000 0.25040 1.29900
Mn	Mn	-0.00000 0.25000 0.00040 1.34500
Mn	Mn	0.50000 0.75000 0.50040 1.36100
N 	N 	0.04136 0.76537 0.30022 -0.35000
N 	N 	0.04137 0.76569 0.19851 -0.35000
N 	N 	0.54136 0.26537 0.80022 -0.34800
N 	N 	0.54137 0.26569 0.69851 -0.35200
N 	N 	0.45864 0.23463 0.80022 -0.34900
N 	N 	0.45863 0.23431 0.69851 -0.35200
N 	N 	0.95864 0.73463 0.30022 -0.34200
N 	N 	0.95863 0.73431 0.19851 -0.35000
N 	N 	0.98463 0.29136 0.55022 -0.34500
N 	N 	0.98431 0.29137 0.44851 -0.34700
N 	N 	0.48463 0.79136 0.05022 -0.34800
N 	N 	0.48431 0.79137 0.94851 -0.35500
N 	N 	0.51537 0.70864 0.05022 -0.34800
N 	N 	0.51569 0.70863 0.94851 -0.35500
N 	N 	0.01537 0.20864 0.55022 -0.34800
N 	N 	0.01569 0.20863 0.44851 -0.35900
Nb	Nb	0.95946 0.00990 0.19354 1.08600
Nb	Nb	0.95887 0.00988 0.30070 1.08600
Nb	Nb	0.01931 0.06722 0.24749 1.04900
Nb	Nb	0.05300 0.99084 0.19412 1.06300
Nb	Nb	0.05261 0.99099 0.30130 1.06400
Nb	Nb	0.99257 0.93367 0.24746 1.09100
Cl	Cl	0.96709 0.08972 0.18400 -0.62800
Cl	Cl	0.00662 0.00048 0.12115 -0.63900
Cl	Cl	0.89539 0.02222 0.24656 -0.58900
Cl	Cl	0.93531 0.93338 0.18376 -0.61500
Cl	Cl	0.96623 0.08945 0.31025 -0.64300
Cl	Cl	0.00539 0.00046 0.37352 -0.65700
Cl	Cl	0.93449 0.93334 0.31024 -0.61400
Cl	Cl	0.07740 0.06753 0.18470 -0.62100
Cl	Cl	0.07666 0.06761 0.31076 -0.61900
Cl	Cl	0.11630 0.97860 0.24792 -0.58200
Cl	Cl	0.04571 0.91075 0.18481 -0.65900
Cl	Cl	0.04533 0.91103 0.31086 -0.67000
N 	N 	0.88438 0.03251 0.10472 -0.03000
N 	N 	0.88046 0.02926 0.38664 -0.03300
N 	N 	0.03251 0.17924 0.24880 -0.17900
N 	N 	0.12985 0.96900 0.10663 -0.03000
N 	N 	0.13058 0.97229 0.38784 -0.03200
N 	N 	0.97629 0.82247 0.24850 -0.17600
N 	N 	0.96061 0.22979 0.19913 -0.33900
N 	N 	0.96092 0.22889 0.30004 -0.34200
C 	C 	0.90891 0.02274 0.13425 0.00400
C 	C 	0.90662 0.02181 0.35821 -0.00100
C 	C 	0.03089 0.14157 0.24797 -0.03900
C 	C 	0.10457 0.97812 0.13552 0.00200
C 	C 	0.10438 0.98002 0.35940 -0.00500
C 	C 	0.97983 0.85973 0.24789 -0.00200
C 	C 	0.02310 0.75450 0.35010 -0.06900
C 	C 	0.08055 0.78088 0.29453 0.48700
C 	C 	0.10590 0.79110 0.33982 -0.92200
H 	H 	0.08800 0.78440 0.36860 0.32700
H 	H 	0.13260 0.77340 0.34050 0.33900
H 	H 	0.11370 0.82220 0.34000 0.34400
C 	C 	0.09922 0.78809 0.24887 -0.56900
H 	H 	0.12850 0.79830 0.24860 0.24800
C 	C 	0.01730 0.76800 0.14870 -0.09600
C 	C 	0.07972 0.78196 0.20370 0.48800
C 	C 	0.10450 0.79460 0.15826 -0.91000
H 	H 	0.13310 0.80660 0.16740 0.33700
H 	H 	0.10860 0.76880 0.13760 0.33100
H 	H 	0.08790 0.81680 0.14020 0.33500
C 	C 	0.90624 0.18478 0.33997 -0.91800
H 	H 	0.91950 0.19800 0.36910 0.32600
H 	H 	0.87530 0.19290 0.33830 0.34100
H 	H 	0.90890 0.15290 0.34190 0.35100
C 	C 	0.92945 0.20105 0.29495 0.48700
C 	C 	0.91530 0.18634 0.24918 -0.55300
H 	H 	0.89420 0.16350 0.24900 0.25100
C 	C 	0.99740 0.77430 0.89960 0.12600
C 	C 	0.92895 0.20165 0.20426 0.48700
C 	C 	0.90607 0.18689 0.15834 -0.90700
H 	H 	0.88300 0.16590 0.16680 0.34000
H 	H 	0.89310 0.21220 0.14190 0.33100
H 	H 	0.92720 0.17290 0.13640 0.34000
C 	C 	0.97500 0.24800 0.34960 0.02700
O 	O 	0.97979 0.78939 0.94913 -0.54900
O 	O 	0.97889 0.78908 0.05004 -0.55700
Nb	Nb	0.45946 0.50990 0.69354 1.07100
Nb	Nb	0.45887 0.50988 0.80070 1.07100
Nb	Nb	0.51931 0.56722 0.74749 1.07000
Nb	Nb	0.55300 0.49084 0.69412 1.07000
Nb	Nb	0.55261 0.49099 0.80130 1.07100
Nb	Nb	0.49257 0.43367 0.74746 1.06700
Cl	Cl	0.46709 0.58972 0.68400 -0.65900
Cl	Cl	0.50662 0.50048 0.62115 -0.60700
Cl	Cl	0.39539 0.52222 0.74656 -0.58800
Cl	Cl	0.43531 0.43338 0.68376 -0.62500
Cl	Cl	0.46623 0.58945 0.81025 -0.67400
Cl	Cl	0.50539 0.50046 0.87352 -0.62400
Cl	Cl	0.43449 0.43334 0.81024 -0.62300
Cl	Cl	0.57740 0.56753 0.68470 -0.61800
Cl	Cl	0.57666 0.56761 0.81076 -0.61600
Cl	Cl	0.61630 0.47860 0.74792 -0.58300
Cl	Cl	0.54571 0.41075 0.68481 -0.63500
Cl	Cl	0.54533 0.41103 0.81086 -0.64400
N 	N 	0.38438 0.53251 0.60472 -0.03200
N 	N 	0.38046 0.52926 0.88664 -0.03400
N 	N 	0.53251 0.67924 0.74880 -0.17600
N 	N 	0.62985 0.46900 0.60663 -0.02900
N 	N 	0.63058 0.47229 0.88784 -0.03000
N 	N 	0.47629 0.32247 0.74850 -0.18500
N 	N 	0.46061 0.72979 0.69913 -0.34600
N 	N 	0.46092 0.72889 0.80004 -0.35000
C 	C 	0.40891 0.52274 0.63425 -0.00400
C 	C 	0.40662 0.52181 0.85821 -0.00800
C 	C 	0.53089 0.64157 0.74797 -0.02200
C 	C 	0.60457 0.47812 0.63552 0.00300
C 	C 	0.60438 0.48002 0.85940 -0.00400
C 	C 	0.47983 0.35973 0.74789 -0.02100
C 	C 	0.52310 0.25450 0.85010 -0.02400
C 	C 	0.58055 0.28088 0.79453 0.49300
C 	C 	0.60590 0.29110 0.83982 -0.92900
H 	H 	0.58800 0.28440 0.86860 0.33100
H 	H 	0.63260 0.27340 0.84050 0.34000
H 	H 	0.61370 0.32220 0.84000 0.34700
C 	C 	0.59922 0.28809 0.74887 -0.57000
H 	H 	0.62850 0.29830 0.74860 0.24800
C 	C 	0.51730 0.26800 0.64870 -0.02400
C 	C 	0.57972 0.28196 0.70370 0.49400
C 	C 	0.60450 0.29460 0.65826 -0.91800
H 	H 	0.63310 0.30660 0.66740 0.33900
H 	H 	0.60860 0.26880 0.63760 0.33200
H 	H 	0.58790 0.31680 0.64020 0.34100
C 	C 	0.40624 0.68478 0.83997 -0.91100
H 	H 	0.41950 0.69800 0.86910 0.32100
H 	H 	0.37530 0.69290 0.83830 0.34000
H 	H 	0.40890 0.65290 0.84190 0.34600
C 	C 	0.42945 0.70105 0.79495 0.48100
C 	C 	0.41530 0.68634 0.74918 -0.55300
H 	H 	0.39420 0.66350 0.74900 0.25100
C 	C 	0.49740 0.27430 0.39960 0.07300
C 	C 	0.42895 0.70165 0.70426 0.47900
C 	C 	0.40607 0.68689 0.65834 -0.89600
H 	H 	0.38300 0.66590 0.66680 0.33700
H 	H 	0.39310 0.71220 0.64190 0.32700
H 	H 	0.42720 0.67290 0.63640 0.33000
C 	C 	0.47500 0.74800 0.84960 -0.00200
O 	O 	0.47979 0.28939 0.44913 -0.55500
O 	O 	0.47889 0.28908 0.55004 -0.55900
Nb	Nb	0.54054 0.99010 0.69354 1.07100
Nb	Nb	0.54113 0.99012 0.80070 1.07100
Nb	Nb	0.48069 0.93278 0.74749 1.07000
Nb	Nb	0.44700 0.00916 0.69412 1.07100
Nb	Nb	0.44739 0.00901 0.80130 1.07200
Nb	Nb	0.50743 0.06633 0.74746 1.06700
Cl	Cl	0.53291 0.91028 0.68400 -0.65900
Cl	Cl	0.49338 0.99952 0.62115 -0.60700
Cl	Cl	0.60461 0.97778 0.74656 -0.58800
Cl	Cl	0.56469 0.06662 0.68376 -0.62500
Cl	Cl	0.53377 0.91055 0.81025 -0.67400
Cl	Cl	0.49461 0.99954 0.87352 -0.62400
Cl	Cl	0.56551 0.06666 0.81024 -0.62300
Cl	Cl	0.42260 0.93247 0.68470 -0.61800
Cl	Cl	0.42334 0.93239 0.81076 -0.61600
Cl	Cl	0.38370 0.02140 0.74792 -0.58200
Cl	Cl	0.45429 0.08925 0.68481 -0.63500
Cl	Cl	0.45467 0.08897 0.81086 -0.64400
N 	N 	0.61562 0.96749 0.60472 -0.03200
N 	N 	0.61954 0.97074 0.88664 -0.03500
N 	N 	0.46749 0.82076 0.74880 -0.17600
N 	N 	0.37015 0.03100 0.60663 -0.02900
N 	N 	0.36942 0.02771 0.88784 -0.03000
N 	N 	0.52371 0.17753 0.74850 -0.18500
N 	N 	0.53939 0.77021 0.69913 -0.34600
N 	N 	0.53908 0.77111 0.80004 -0.35000
C 	C 	0.59109 0.97726 0.63425 -0.00400
C 	C 	0.59338 0.97819 0.85821 -0.00900
C 	C 	0.46911 0.85843 0.74797 -0.02200
C 	C 	0.39543 0.02188 0.63552 0.00400
C 	C 	0.39562 0.01998 0.85940 -0.00300
C 	C 	0.52017 0.14027 0.74789 -0.02100
C 	C 	0.47690 0.24550 0.85010 -0.02400
C 	C 	0.41945 0.21912 0.79453 0.49300
C 	C 	0.39410 0.20890 0.83982 -0.92900
H 	H 	0.41200 0.21560 0.86860 0.33100
H 	H 	0.36740 0.22660 0.84050 0.34000
H 	H 	0.38630 0.17780 0.84000 0.34800
C 	C 	0.40078 0.21191 0.74887 -0.57000
H 	H 	0.37150 0.20170 0.74860 0.24900
C 	C 	0.48270 0.23200 0.64870 -0.02400
C 	C 	0.42028 0.21804 0.70370 0.49400
C 	C 	0.39550 0.20540 0.65826 -0.91800
H 	H 	0.36690 0.19340 0.66740 0.33900
H 	H 	0.39140 0.23120 0.63760 0.33200
H 	H 	0.41210 0.18320 0.64020 0.34100
C 	C 	0.59376 0.81522 0.83997 -0.91100
H 	H 	0.58050 0.80200 0.86910 0.32000
H 	H 	0.62470 0.80710 0.83830 0.34000
H 	H 	0.59110 0.84710 0.84190 0.34600
C 	C 	0.57055 0.79895 0.79495 0.48100
C 	C 	0.58470 0.81366 0.74918 -0.55300
H 	H 	0.60580 0.83650 0.74900 0.25100
C 	C 	0.50260 0.22570 0.39960 0.07300
C 	C 	0.57105 0.79835 0.70426 0.47900
C 	C 	0.59393 0.81311 0.65834 -0.89600
H 	H 	0.61700 0.83410 0.66680 0.33700
H 	H 	0.60690 0.78780 0.64190 0.32700
H 	H 	0.57280 0.82710 0.63640 0.32900
C 	C 	0.52500 0.75200 0.84960 -0.00200
O 	O 	0.52021 0.21061 0.44913 -0.55500
O 	O 	0.52111 0.21092 0.55004 -0.55900
Nb	Nb	0.04054 0.49010 0.19354 1.05600
Nb	Nb	0.04113 0.49012 0.30070 1.05600
Nb	Nb	0.98069 0.43278 0.24749 1.09300
Nb	Nb	0.94700 0.50916 0.19412 1.07800
Nb	Nb	0.94739 0.50901 0.30130 1.07900
Nb	Nb	0.00743 0.56633 0.24746 1.04300
Cl	Cl	0.03291 0.41028 0.18400 -0.68800
Cl	Cl	0.99338 0.49952 0.12115 -0.57200
Cl	Cl	0.10461 0.47778 0.24656 -0.58700
Cl	Cl	0.06469 0.56662 0.18376 -0.63500
Cl	Cl	0.03377 0.41055 0.31025 -0.70400
Cl	Cl	0.99461 0.49954 0.37352 -0.58800
Cl	Cl	0.06551 0.56666 0.31024 -0.63100
Cl	Cl	0.92260 0.43247 0.18470 -0.61300
Cl	Cl	0.92334 0.43239 0.31076 -0.61200
Cl	Cl	0.88370 0.52140 0.24792 -0.58300
Cl	Cl	0.95429 0.58925 0.18481 -0.61000
Cl	Cl	0.95467 0.58897 0.31086 -0.61700
N 	N 	0.11562 0.46749 0.10472 -0.03300
N 	N 	0.11954 0.47074 0.38664 -0.03600
N 	N 	0.96749 0.32076 0.24880 -0.16900
N 	N 	0.87015 0.53100 0.10663 -0.02700
N 	N 	0.86942 0.52771 0.38784 -0.02900
N 	N 	0.02371 0.67753 0.24850 -0.18900
N 	N 	0.03939 0.27021 0.19913 -0.34800
N 	N 	0.03908 0.27111 0.30004 -0.35300
C 	C 	0.09109 0.47726 0.13425 -0.01100
C 	C 	0.09338 0.47819 0.35821 -0.01600
C 	C 	0.96911 0.35843 0.24797 -0.00500
C 	C 	0.89543 0.52188 0.13552 0.00400
C 	C 	0.89562 0.51998 0.35940 -0.00200
C 	C 	0.02017 0.64027 0.24789 -0.03900
C 	C 	0.97690 0.74550 0.35010 0.02200
C 	C 	0.91945 0.71912 0.29453 0.49800
C 	C 	0.89410 0.70890 0.33982 -0.93500
H 	H 	0.91200 0.71560 0.36860 0.33500
H 	H 	0.86740 0.72660 0.34050 0.34100
H 	H 	0.88630 0.67780 0.34000 0.35100
C 	C 	0.90078 0.71191 0.24887 -0.57000
H 	H 	0.87150 0.70170 0.24860 0.24800
C 	C 	0.98270 0.73200 0.14870 0.05000
C 	C 	0.92028 0.71804 0.20370 0.49900
C 	C 	0.89550 0.70540 0.15826 -0.92600
H 	H 	0.86690 0.69340 0.16740 0.34200
H 	H 	0.89140 0.73120 0.13760 0.33400
H 	H 	0.91210 0.68320 0.14020 0.34600
C 	C 	0.09376 0.31522 0.33997 -0.90400
H 	H 	0.08050 0.30200 0.36910 0.31500
H 	H 	0.12470 0.30710 0.33830 0.33800
H 	H 	0.09110 0.34710 0.34190 0.34100
C 	C 	0.07055 0.29895 0.29495 0.47400
C 	C 	0.08470 0.31366 0.24918 -0.55000
H 	H 	0.10580 0.33650 0.24900 0.25000
C 	C 	0.00260 0.72570 0.89960 0.02100
C 	C 	0.07105 0.29835 0.20426 0.47100
C 	C 	0.09393 0.31311 0.15834 -0.88500
H 	H 	0.11700 0.33410 0.16680 0.33300
H 	H 	0.10690 0.28780 0.14190 0.32400
H 	H 	0.07280 0.32710 0.13640 0.32000
C 	C 	0.02500 0.25200 0.34960 -0.03000
O 	O 	0.02021 0.71061 0.94913 -0.55600
O 	O 	0.02111 0.71092 0.05004 -0.55500
Nb	Nb	0.24010 0.70946 0.94354 1.07100
Nb	Nb	0.24012 0.70887 0.05070 1.07200
Nb	Nb	0.18278 0.76931 0.99749 1.07000
Nb	Nb	0.25916 0.80300 0.94412 1.07000
Nb	Nb	0.25901 0.80261 0.05130 1.07200
Nb	Nb	0.31633 0.74257 0.99746 1.06600
Cl	Cl	0.16028 0.71709 0.93400 -0.65900
Cl	Cl	0.24952 0.75662 0.87115 -0.60500
Cl	Cl	0.22778 0.64539 0.99656 -0.59000
Cl	Cl	0.31662 0.68531 0.93376 -0.62200
Cl	Cl	0.16055 0.71623 0.06025 -0.67500
Cl	Cl	0.24954 0.75539 0.12352 -0.62400
Cl	Cl	0.31666 0.68449 0.06024 -0.62200
Cl	Cl	0.18247 0.82740 0.93470 -0.61500
Cl	Cl	0.18239 0.82666 0.06076 -0.61600
Cl	Cl	0.27140 0.86630 0.99792 -0.58300
Cl	Cl	0.33925 0.79571 0.93481 -0.63500
Cl	Cl	0.33897 0.79533 0.06086 -0.64400
N 	N 	0.21749 0.63438 0.85472 -0.03200
N 	N 	0.22074 0.63046 0.13664 -0.03500
N 	N 	0.07076 0.78251 0.99880 -0.16300
N 	N 	0.28100 0.87985 0.85663 -0.02900
N 	N 	0.27771 0.88058 0.13784 -0.03000
N 	N 	0.42753 0.72629 0.99850 -0.18400
C 	C 	0.22726 0.65891 0.88425 -0.00400
C 	C 	0.22819 0.65662 0.10821 -0.00900
C 	C 	0.10843 0.78089 0.99797 -0.02100
C 	C 	0.27188 0.85457 0.88552 0.00400
C 	C 	0.26998 0.85438 0.10940 -0.00300
C 	C 	0.39027 0.72983 0.99789 -0.02000
C 	C 	0.49550 0.77310 0.10010 -0.02400
C 	C 	0.46912 0.83055 0.04453 0.49500
C 	C 	0.45890 0.85590 0.08982 -0.93000
H 	H 	0.46560 0.83800 0.11860 0.33100
H 	H 	0.47660 0.88260 0.09050 0.34100
H 	H 	0.42780 0.86370 0.09000 0.34800
C 	C 	0.46191 0.84922 0.99887 -0.57200
H 	H 	0.45170 0.87850 0.99860 0.24900
C 	C 	0.48200 0.76730 0.89870 -0.00100
C 	C 	0.46804 0.82972 0.95370 0.49500
C 	C 	0.45540 0.85450 0.90826 -0.91800
H 	H 	0.44340 0.88310 0.91740 0.33900
H 	H 	0.48120 0.85860 0.88760 0.33200
H 	H 	0.43320 0.83790 0.89020 0.33900
C 	C 	0.06522 0.65624 0.08997 -1.10300
H 	H 	0.05200 0.66950 0.11910 0.37500
H 	H 	0.05710 0.62530 0.08830 0.38800
H 	H 	0.09710 0.65890 0.09190 0.40000
C 	C 	0.04895 0.67945 0.04495 0.70500
C 	C 	0.06366 0.66530 0.99918 -0.74900
H 	H 	0.08650 0.64420 0.99900 0.31100
C 	C 	0.47570 0.74740 0.64960 -0.02000
C 	C 	0.04835 0.67895 0.95426 0.70400
C 	C 	0.06311 0.65607 0.90834 -1.08700
H 	H 	0.08410 0.63300 0.91680 0.38700
H 	H 	0.03780 0.64310 0.89190 0.37600
H 	H 	0.07710 0.67720 0.88640 0.38500
C 	C 	0.00200 0.72500 0.09960 -0.00200
Nb	Nb	0.74010 0.20946 0.44354 1.07100
Nb	Nb	0.74012 0.20887 0.55070 1.07100
Nb	Nb	0.68278 0.26931 0.49749 1.07100
Nb	Nb	0.75916 0.30300 0.44412 1.07000
Nb	Nb	0.75901 0.30261 0.55130 1.07100
Nb	Nb	0.81633 0.24257 0.49746 1.06700
Cl	Cl	0.66028 0.21709 0.43400 -0.65900
Cl	Cl	0.74952 0.25662 0.37115 -0.60600
Cl	Cl	0.72778 0.14539 0.49656 -0.59000
Cl	Cl	0.81662 0.18531 0.43376 -0.62000
Cl	Cl	0.66055 0.21623 0.56025 -0.67600
Cl	Cl	0.74954 0.25539 0.62352 -0.62400
Cl	Cl	0.81666 0.18449 0.56024 -0.62000
Cl	Cl	0.68247 0.32740 0.43470 -0.61400
Cl	Cl	0.68239 0.32666 0.56076 -0.61500
Cl	Cl	0.77140 0.36630 0.49792 -0.58200
Cl	Cl	0.83925 0.29571 0.43481 -0.63500
Cl	Cl	0.83897 0.29533 0.56086 -0.64500
N 	N 	0.71749 0.13438 0.35472 -0.03200
N 	N 	0.72074 0.13046 0.63664 -0.03500
N 	N 	0.57076 0.28251 0.49880 -0.15500
N 	N 	0.78100 0.37985 0.35663 -0.02900
N 	N 	0.77771 0.38058 0.63784 -0.03000
N 	N 	0.92753 0.22629 0.49850 -0.17400
C 	C 	0.72726 0.15891 0.38425 -0.00400
C 	C 	0.72819 0.15662 0.60821 -0.01000
C 	C 	0.60843 0.28089 0.49797 -0.01900
C 	C 	0.77188 0.35457 0.38552 0.00400
C 	C 	0.76998 0.35438 0.60940 -0.00400
C 	C 	0.89027 0.22983 0.49789 -0.01900
C 	C 	0.99550 0.27310 0.60010 0.02800
C 	C 	0.96912 0.33055 0.54453 0.50700
C 	C 	0.95890 0.35590 0.58982 -0.94900
H 	H 	0.96560 0.33800 0.61860 0.34000
H 	H 	0.97660 0.38260 0.59050 0.35700
H 	H 	0.92780 0.36370 0.59000 0.35400
C 	C 	0.96191 0.34922 0.49887 -0.57400
H 	H 	0.95170 0.37850 0.49860 0.25400
C 	C 	0.98200 0.26730 0.39870 0.02900
C 	C 	0.96804 0.32972 0.45370 0.50700
C 	C 	0.95540 0.35450 0.40826 -0.93600
H 	H 	0.94340 0.38310 0.41740 0.34700
H 	H 	0.98120 0.35860 0.38760 0.34700
H 	H 	0.93320 0.33790 0.39020 0.34400
C 	C 	0.56522 0.15624 0.58997 -1.11700
H 	H 	0.55200 0.16950 0.61910 0.38100
H 	H 	0.55710 0.12530 0.58830 0.39800
H 	H 	0.59710 0.15890 0.59190 0.40400
C 	C 	0.54895 0.17945 0.54495 0.71500
C 	C 	0.56366 0.16530 0.49918 -0.75300
H 	H 	0.58650 0.14420 0.49900 0.31400
C 	C 	0.97570 0.24740 0.14960 0.02100
C 	C 	0.54835 0.17895 0.45426 0.71300
C 	C 	0.56311 0.15607 0.40834 -1.09900
H 	H 	0.58410 0.13300 0.41680 0.39200
H 	H 	0.53780 0.14310 0.39190 0.38600
H 	H 	0.57710 0.17720 0.38640 0.38800
C 	C 	0.50200 0.22500 0.59960 0.07300
Nb	Nb	0.25990 0.29054 0.44354 1.07100
Nb	Nb	0.25988 0.29113 0.55070 1.07100
Nb	Nb	0.31722 0.23069 0.49749 1.07100
Nb	Nb	0.24084 0.19700 0.44412 1.07000
Nb	Nb	0.24099 0.19739 0.55130 1.07200
Nb	Nb	0.18367 0.25743 0.49746 1.06700
Cl	Cl	0.33972 0.28291 0.43400 -0.65900
Cl	Cl	0.25048 0.24338 0.37115 -0.60500
Cl	Cl	0.27222 0.35461 0.49656 -0.59000
Cl	Cl	0.18338 0.31469 0.43376 -0.62300
Cl	Cl	0.33945 0.28377 0.56025 -0.67600
Cl	Cl	0.25046 0.24461 0.62352 -0.62400
Cl	Cl	0.18334 0.31551 0.56024 -0.62500
Cl	Cl	0.31753 0.17260 0.43470 -0.61400
Cl	Cl	0.31761 0.17334 0.56076 -0.61500
Cl	Cl	0.22860 0.13370 0.49792 -0.58300
Cl	Cl	0.16075 0.20429 0.43481 -0.63400
Cl	Cl	0.16103 0.20467 0.56086 -0.64400
N 	N 	0.28251 0.36562 0.35472 -0.03200
N 	N 	0.27926 0.36954 0.63664 -0.03500
N 	N 	0.42924 0.21749 0.49880 -0.15500
N 	N 	0.21900 0.12015 0.35663 -0.02800
N 	N 	0.22229 0.11942 0.63784 -0.03000
N 	N 	0.07247 0.27371 0.49850 -0.19100
C 	C 	0.27274 0.34109 0.38425 -0.00400
C 	C 	0.27181 0.34338 0.60821 -0.01000
C 	C 	0.39157 0.21911 0.49797 -0.01900
C 	C 	0.22812 0.14543 0.38552 0.00400
C 	C 	0.23002 0.14562 0.60940 -0.00400
C 	C 	0.10973 0.27017 0.49789 -0.02100
C 	C 	0.00450 0.22690 0.60010 -0.07500
C 	C 	0.03088 0.16945 0.54453 0.48000
C 	C 	0.04110 0.14410 0.58982 -0.91000
H 	H 	0.03440 0.16200 0.61860 0.32300
H 	H 	0.02340 0.11740 0.59050 0.32500
H 	H 	0.07220 0.13630 0.59000 0.34200
C 	C 	0.03809 0.15078 0.49887 -0.56500
H 	H 	0.04830 0.12150 0.49860 0.24300
C 	C 	0.01800 0.23270 0.39870 -0.03000
C 	C 	0.03196 0.17028 0.45370 0.48200
C 	C 	0.04460 0.14550 0.40826 -0.90000
H 	H 	0.05660 0.11690 0.41740 0.33100
H 	H 	0.01880 0.14140 0.38760 0.31600
H 	H 	0.06680 0.16210 0.39020 0.33400
C 	C 	0.43478 0.34376 0.58997 -1.11700
H 	H 	0.44800 0.33050 0.61910 0.38200
H 	H 	0.44290 0.37470 0.58830 0.39800
H 	H 	0.40290 0.34110 0.59190 0.40400
C 	C 	0.45105 0.32055 0.54495 0.71500
C 	C 	0.43634 0.33470 0.49918 -0.75300
H 	H 	0.41350 0.35580 0.49900 0.31400
C 	C 	0.02430 0.25260 0.14960 -0.05900
C 	C 	0.45165 0.32105 0.45426 0.71300
C 	C 	0.43689 0.34393 0.40834 -1.09900
H 	H 	0.41590 0.36700 0.41680 0.39200
H 	H 	0.46220 0.35690 0.39190 0.38600
H 	H 	0.42290 0.32280 0.38640 0.38800
C 	C 	0.49800 0.27500 0.59960 0.07300
Nb	Nb	0.75990 0.79054 0.94354 1.07100
Nb	Nb	0.75988 0.79113 0.05070 1.07200
Nb	Nb	0.81722 0.73069 0.99749 1.07100
Nb	Nb	0.74084 0.69700 0.94412 1.07000
Nb	Nb	0.74099 0.69739 0.05130 1.07200
Nb	Nb	0.68367 0.75743 0.99746 1.06600
Cl	Cl	0.83972 0.78291 0.93400 -0.65900
Cl	Cl	0.75048 0.74338 0.87115 -0.60600
Cl	Cl	0.77222 0.85461 0.99656 -0.59000
Cl	Cl	0.68338 0.81469 0.93376 -0.62200
Cl	Cl	0.83945 0.78377 0.06025 -0.67600
Cl	Cl	0.75046 0.74461 0.12352 -0.62400
Cl	Cl	0.68334 0.81551 0.06024 -0.62200
Cl	Cl	0.81753 0.67260 0.93470 -0.61200
Cl	Cl	0.81761 0.67334 0.06076 -0.61200
Cl	Cl	0.72860 0.63370 0.99792 -0.58300
Cl	Cl	0.66075 0.70429 0.93481 -0.63500
Cl	Cl	0.66103 0.70467 0.06086 -0.64400
N 	N 	0.78251 0.86562 0.85472 -0.03200
N 	N 	0.77926 0.86954 0.13664 -0.03500
N 	N 	0.92924 0.71749 0.99880 -0.14500
N 	N 	0.71900 0.62015 0.85663 -0.02900
N 	N 	0.72229 0.61942 0.13784 -0.03000
N 	N 	0.57247 0.77371 0.99850 -0.18400
C 	C 	0.77274 0.84109 0.88425 -0.00400
C 	C 	0.77181 0.84338 0.10821 -0.01000
C 	C 	0.89157 0.71911 0.99797 -0.01700
C 	C 	0.72812 0.64543 0.88552 0.00400
C 	C 	0.73002 0.64562 0.10940 -0.00300
C 	C 	0.60973 0.77017 0.99789 -0.02000
C 	C 	0.50450 0.72690 0.10010 -0.02400
C 	C 	0.53088 0.66945 0.04453 0.49500
C 	C 	0.54110 0.64410 0.08982 -0.93000
H 	H 	0.53440 0.66200 0.11860 0.33100
H 	H 	0.52340 0.61740 0.09050 0.34100
H 	H 	0.57220 0.63630 0.09000 0.34800
C 	C 	0.53809 0.65078 0.99887 -0.57200
H 	H 	0.54830 0.62150 0.99860 0.24900
C 	C 	0.51800 0.73270 0.89870 -0.00100
C 	C 	0.53196 0.67028 0.95370 0.49500
C 	C 	0.54460 0.64550 0.90826 -0.91800
H 	H 	0.55660 0.61690 0.91740 0.33900
H 	H 	0.51880 0.64140 0.88760 0.33200
H 	H 	0.56680 0.66210 0.89020 0.33900
C 	C 	0.93478 0.84376 0.08997 -1.13100
H 	H 	0.94800 0.83050 0.11910 0.38800
H 	H 	0.94290 0.87470 0.08830 0.40800
H 	H 	0.90290 0.84110 0.09190 0.40800
C 	C 	0.95105 0.82055 0.04495 0.72700
C 	C 	0.93634 0.83470 0.99918 -0.75500
H 	H 	0.91350 0.85580 0.99900 0.31600
C 	C 	0.52430 0.75260 0.64960 -0.02000
C 	C 	0.95165 0.82105 0.95426 0.72200
C 	C 	0.93689 0.84393 0.90834 -1.11100
H 	H 	0.91590 0.86700 0.91680 0.39700
H 	H 	0.96220 0.85690 0.89190 0.39700
H 	H 	0.92290 0.82280 0.88640 0.39100
C 	C 	0.99800 0.77500 0.09960 0.14900
Mn	Mn	0.00000 0.75000 0.24932 1.28300
Mn	Mn	0.50000 0.25000 0.74932 1.29900
Mn	Mn	0.50000 0.75000 0.99932 1.29900
Mn	Mn	-0.00000 0.25000 0.49932 1.28300
Mn	Mn	-0.00000 0.25000 0.24960 1.28200
Mn	Mn	0.50000 0.75000 0.74960 1.29800
Mn	Mn	0.00000 0.75000 0.99960 1.34400
Mn	Mn	0.50000 0.25000 0.49960 1.36100
