data_crystal

_cell_length_a 11.10680
_cell_length_b 17.77270
_cell_length_c 29.22800
_cell_angle_alpha 86.62400
_cell_angle_beta  79.68900
_cell_angle_gamma 73.27500

_symmetry_space_group_name_	'P 1'
_symmetry_space_group_name_H-M	'P 1'

loop_
_symmetry_equiv_pos_as_xyz
  x,y,z

loop_
_atom_site_label
_atom_site_type_symbol
_atom_site_fract_x
_atom_site_fract_y
_atom_site_fract_z
_atom_site_charge
La	La	0.24423 0.28904 0.62053 1.67000
La	La	0.56055 0.39015 0.96487 1.66700
La	La	0.11608 0.50470 0.69072 1.63300
La	La	0.54628 0.11015 0.96415 1.68700
La	La	0.10755 0.79470 0.71050 1.65400
La	La	0.19843 0.01372 0.64335 1.70600
La	La	0.75577 0.71096 0.37947 1.67100
La	La	0.43945 0.60985 0.03513 1.66800
La	La	0.88392 0.49530 0.30928 1.63400
La	La	0.45372 0.88985 0.03585 1.68800
La	La	0.89245 0.20530 0.28950 1.65400
La	La	0.80157 0.98628 0.35665 1.70600
H 	H 	0.98970 0.26370 0.95030 0.04300
H 	H 	0.18430 0.20830 0.97390 0.04900
H 	H 	0.05010 0.03770 0.04000 0.04700
H 	H 	0.85580 0.09290 0.01590 0.04300
H 	H 	0.49810 0.00410 0.69490 0.04500
H 	H 	0.68280 0.94600 0.72250 0.04400
H 	H 	0.85590 0.08630 0.64210 0.03100
H 	H 	0.67110 0.14520 0.61420 0.04600
H 	H 	0.69050 0.62290 0.70620 0.03400
H 	H 	0.49100 0.68060 0.68720 0.05600
H 	H 	0.59600 0.87370 0.64470 0.04900
H 	H 	0.79330 0.81760 0.66680 0.03600
H 	H 	0.25420 0.84230 0.82940 0.03000
H 	H 	0.31020 0.86050 0.89980 0.04700
H 	H 	0.41070 0.05130 0.84760 0.03700
H 	H 	0.34920 0.03500 0.77860 0.03600
H 	H 	0.03800 0.23430 0.42150 0.04400
H 	H 	0.09510 0.25560 0.49100 0.03400
H 	H 	0.96650 0.07750 0.54920 0.03400
H 	H 	0.90850 0.05750 0.48080 0.03700
H 	H 	0.61880 0.28330 0.64270 0.04100
H 	H 	0.82410 0.26660 0.65600 0.04600
H 	H 	0.74390 0.49830 0.67190 0.04700
H 	H 	0.53900 0.51380 0.65980 0.04300
H 	H 	0.59950 0.29780 0.13060 0.04000
H 	H 	0.68520 0.50170 0.10430 0.03200
H 	H 	0.65120 0.29320 0.20330 0.03100
H 	H 	0.74850 0.49370 0.17620 0.03100
H 	H 	0.42670 0.38240 0.83420 0.02800
H 	H 	0.36780 0.39210 0.76190 0.03900
H 	H 	0.25930 0.19440 0.78930 0.04200
H 	H 	0.30890 0.19070 0.86300 0.03300
H 	H 	0.02900 0.60790 0.53140 0.04200
H 	H 	0.97160 0.61690 0.45900 0.02500
H 	H 	0.05620 0.60850 0.01660 0.04300
H 	H 	0.85280 0.62180 0.00470 0.04200
H 	H 	0.02300 0.14440 0.69470 0.32400
H 	H 	0.12580 0.12350 0.71830 0.32600
H 	H 	0.41150 0.29420 0.01200 0.30300
H 	H 	0.48870 0.23700 0.03590 0.30600
H 	H 	0.01030 0.73630 0.04970 0.04300
H 	H 	0.81570 0.79170 0.02610 0.04900
H 	H 	0.94990 0.96230 0.96000 0.04700
H 	H 	0.14420 0.90710 0.98410 0.04300
H 	H 	0.50190 0.99590 0.30510 0.04500
H 	H 	0.31720 0.05400 0.27750 0.04400
H 	H 	0.14410 0.91370 0.35790 0.03100
H 	H 	0.32890 0.85480 0.38580 0.04600
H 	H 	0.30950 0.37710 0.29380 0.03400
H 	H 	0.50900 0.31940 0.31280 0.05600
H 	H 	0.40400 0.12630 0.35530 0.04900
H 	H 	0.20670 0.18240 0.33320 0.03600
H 	H 	0.74580 0.15770 0.17060 0.03000
H 	H 	0.68980 0.13950 0.10020 0.04700
H 	H 	0.58930 0.94870 0.15240 0.03700
H 	H 	0.65080 0.96500 0.22140 0.03600
H 	H 	0.96200 0.76570 0.57850 0.04400
H 	H 	0.90490 0.74440 0.50900 0.03400
H 	H 	0.03350 0.92250 0.45080 0.03400
H 	H 	0.09150 0.94250 0.51920 0.03700
H 	H 	0.38120 0.71670 0.35730 0.04100
H 	H 	0.17590 0.73340 0.34400 0.04600
H 	H 	0.25610 0.50170 0.32810 0.04700
H 	H 	0.46100 0.48620 0.34020 0.04300
H 	H 	0.40050 0.70220 0.86940 0.04000
H 	H 	0.31480 0.49830 0.89570 0.03200
H 	H 	0.34880 0.70680 0.79670 0.03100
H 	H 	0.25150 0.50630 0.82380 0.03100
H 	H 	0.57330 0.61760 0.16580 0.02800
H 	H 	0.63220 0.60790 0.23810 0.03900
H 	H 	0.74070 0.80560 0.21070 0.04200
H 	H 	0.69110 0.80930 0.13700 0.03300
H 	H 	0.97100 0.39210 0.46860 0.04200
H 	H 	0.02840 0.38310 0.54100 0.02500
H 	H 	0.94380 0.39150 0.98340 0.04300
H 	H 	0.14720 0.37820 0.99530 0.04200
H 	H 	0.97700 0.85560 0.30530 0.32400
H 	H 	0.87420 0.87650 0.28170 0.32600
H 	H 	0.58850 0.70580 0.98800 0.30300
H 	H 	0.51130 0.76300 0.96410 0.30600
C 	C 	0.90570 0.18210 0.97959 -0.10400
C 	C 	0.00260 0.21760 0.96790 -0.01000
C 	C 	0.11850 0.18480 0.98230 -0.02400
C 	C 	0.13680 0.11650 0.00940 -0.09300
C 	C 	0.03850 0.08290 0.02170 -0.01900
C 	C 	0.92220 0.11570 0.00710 -0.00600
C 	C 	0.78410 0.21430 0.96020 0.41500
C 	C 	0.26420 0.07910 0.02380 0.40100
C 	C 	0.56550 0.08000 0.65110 -0.09500
C 	C 	0.57040 0.02060 0.68400 -0.01900
C 	C 	0.68040 0.98620 0.70050 -0.00900
C 	C 	0.78780 0.00980 0.68510 -0.10500
C 	C 	0.78350 0.06970 0.65260 -0.00900
C 	C 	0.67360 0.10460 0.63590 -0.02100
C 	C 	0.44570 0.11650 0.63080 0.40400
C 	C 	0.91070 0.96830 0.70230 0.38800
C 	C 	0.67070 0.67420 0.69490 0.01100
C 	C 	0.55170 0.70820 0.68280 -0.03700
C 	C 	0.52340 0.78340 0.66430 -0.08000
C 	C 	0.61400 0.82370 0.65790 -0.03000
C 	C 	0.73260 0.78990 0.67100 0.00400
C 	C 	0.76010 0.71530 0.69025 -0.12000
C 	C 	0.39330 0.82240 0.65220 0.37800
C 	C 	0.88560 0.68250 0.70668 0.42200
C 	C 	0.28420 0.88490 0.83320 -0.00200
C 	C 	0.31900 0.89550 0.87530 -0.02400
C 	C 	0.36690 0.95790 0.88110 -0.09400
C 	C 	0.37820 0.00960 0.84440 -0.02400
C 	C 	0.34170 0.99960 0.80290 -0.00100
C 	C 	0.29420 0.93750 0.79733 -0.11000
C 	C 	0.40690 0.96840 0.92620 0.40700
C 	C 	0.24960 0.92870 0.75290 0.40100
C 	C 	0.02420 0.20250 0.44720 -0.01700
C 	C 	0.05900 0.21510 0.48880 -0.00700
C 	C 	0.03970 0.16680 0.52730 -0.11700
C 	C 	0.98200 0.10890 0.52350 -0.00900
C 	C 	0.94720 0.09690 0.48260 -0.01600
C 	C 	0.96900 0.14290 0.44390 -0.10200
C 	C 	0.08680 0.17490 0.57090 0.39800
C 	C 	0.93260 0.12670 0.39920 0.41400
C 	C 	0.64420 0.32700 0.64840 -0.00600
C 	C 	0.76760 0.31670 0.65630 -0.02300
C 	C 	0.80590 0.38100 0.66470 -0.08500
C 	C 	0.71930 0.45460 0.66590 -0.02200
C 	C 	0.59680 0.46400 0.65840 -0.00900
C 	C 	0.56000 0.39950 0.64880 -0.09900
C 	C 	0.42770 0.40910 0.63880 0.39400
C 	C 	0.93840 0.37210 0.67340 0.37000
C 	C 	0.62750 0.33800 0.14000 -0.01900
C 	C 	0.63600 0.39980 0.11014 -0.09700
C 	C 	0.68000 0.45930 0.12400 -0.03000
C 	C 	0.65950 0.33470 0.18330 -0.01000
C 	C 	0.60150 0.40260 0.06280 0.36500
C 	C 	0.74460 0.38950 0.24360 0.39800
C 	C 	0.71620 0.45500 0.16740 -0.00100
C 	C 	0.70470 0.39390 0.19740 -0.12300
C 	C 	0.41340 0.28060 0.90261 0.39400
C 	C 	0.37330 0.28600 0.85611 -0.12000
C 	C 	0.39120 0.34520 0.82540 0.00200
C 	C 	0.35760 0.35070 0.78180 -0.03400
C 	C 	0.30840 0.29370 0.76780 -0.09400
C 	C 	0.29140 0.23300 0.79840 -0.02400
C 	C 	0.32250 0.23050 0.84240 -0.00600
C 	C 	0.27440 0.29690 0.72040 0.36500
C 	C 	0.01720 0.56420 0.51880 -0.01300
C 	C 	0.98310 0.56960 0.47540 -0.01200
C 	C 	0.03390 0.49450 0.54400 -0.10700
C 	C 	0.06760 0.49020 0.59150 0.37900
C 	C 	0.03370 0.56430 0.01000 -0.01000
C 	C 	0.91210 0.57250 0.00260 -0.01600
C 	C 	0.25510 0.48450 0.01750 0.40700
C 	C 	0.12270 0.49230 0.00792 -0.10000
C 	C 	0.09430 0.81790 0.02041 -0.10400
C 	C 	0.99740 0.78240 0.03210 -0.01000
C 	C 	0.88150 0.81520 0.01770 -0.02400
C 	C 	0.86320 0.88350 0.99060 -0.09300
C 	C 	0.96150 0.91710 0.97830 -0.01900
C 	C 	0.07780 0.88430 0.99290 -0.00600
C 	C 	0.21590 0.78570 0.03980 0.41500
C 	C 	0.73580 0.92090 0.97620 0.40100
C 	C 	0.43450 0.92000 0.34890 -0.09500
C 	C 	0.42960 0.97940 0.31600 -0.01900
C 	C 	0.31960 0.01380 0.29950 -0.00900
C 	C 	0.21220 0.99020 0.31490 -0.10500
C 	C 	0.21650 0.93030 0.34740 -0.00900
C 	C 	0.32640 0.89540 0.36410 -0.02100
C 	C 	0.55430 0.88350 0.36920 0.40400
C 	C 	0.08930 0.03170 0.29770 0.38800
C 	C 	0.32930 0.32580 0.30510 0.01100
C 	C 	0.44830 0.29180 0.31720 -0.03700
C 	C 	0.47660 0.21660 0.33570 -0.08000
C 	C 	0.38600 0.17630 0.34210 -0.03000
C 	C 	0.26740 0.21010 0.32900 0.00400
C 	C 	0.23990 0.28470 0.30975 -0.12000
C 	C 	0.60670 0.17760 0.34780 0.37800
C 	C 	0.11440 0.31750 0.29332 0.42200
C 	C 	0.71580 0.11510 0.16680 -0.00200
C 	C 	0.68100 0.10450 0.12470 -0.02400
C 	C 	0.63310 0.04210 0.11890 -0.09400
C 	C 	0.62180 0.99040 0.15560 -0.02400
C 	C 	0.65830 0.00040 0.19710 -0.00100
C 	C 	0.70580 0.06250 0.20267 -0.11000
C 	C 	0.59310 0.03160 0.07380 0.40700
C 	C 	0.75040 0.07130 0.24710 0.40100
C 	C 	0.97580 0.79750 0.55280 -0.01700
C 	C 	0.94100 0.78490 0.51120 -0.00700
C 	C 	0.96030 0.83320 0.47270 -0.11700
C 	C 	0.01800 0.89110 0.47650 -0.00900
C 	C 	0.05280 0.90310 0.51740 -0.01600
C 	C 	0.03100 0.85710 0.55610 -0.10200
C 	C 	0.91320 0.82510 0.42910 0.39800
C 	C 	0.06740 0.87330 0.60080 0.41400
C 	C 	0.35580 0.67300 0.35160 -0.00600
C 	C 	0.23240 0.68330 0.34370 -0.02300
C 	C 	0.19410 0.61900 0.33530 -0.08500
C 	C 	0.28070 0.54540 0.33410 -0.02200
C 	C 	0.40320 0.53600 0.34160 -0.00900
C 	C 	0.44000 0.60050 0.35120 -0.09900
C 	C 	0.57230 0.59090 0.36120 0.39400
C 	C 	0.06160 0.62790 0.32660 0.37000
C 	C 	0.37250 0.66200 0.86000 -0.01900
C 	C 	0.36400 0.60020 0.88986 -0.09700
C 	C 	0.32000 0.54070 0.87600 -0.03000
C 	C 	0.34050 0.66530 0.81670 -0.01000
C 	C 	0.39850 0.59740 0.93720 0.36500
C 	C 	0.25540 0.61050 0.75640 0.39800
C 	C 	0.28380 0.54500 0.83260 -0.00100
C 	C 	0.29530 0.60610 0.80260 -0.12300
C 	C 	0.58660 0.71940 0.09739 0.39400
C 	C 	0.62670 0.71400 0.14389 -0.12000
C 	C 	0.60880 0.65480 0.17460 0.00200
C 	C 	0.64240 0.64930 0.21820 -0.03400
C 	C 	0.69160 0.70630 0.23220 -0.09400
C 	C 	0.70860 0.76700 0.20160 -0.02400
C 	C 	0.67750 0.76950 0.15760 -0.00600
C 	C 	0.72560 0.70310 0.27960 0.36500
C 	C 	0.98280 0.43580 0.48120 -0.01300
C 	C 	0.01690 0.43040 0.52460 -0.01200
C 	C 	0.96610 0.50550 0.45600 -0.10700
C 	C 	0.93240 0.50980 0.40850 0.37900
C 	C 	0.96630 0.43570 0.99000 -0.01000
C 	C 	0.08790 0.42750 0.99740 -0.01600
C 	C 	0.74490 0.51550 0.98250 0.40700
C 	C 	0.87730 0.50770 0.99208 -0.10000
O 	O 	0.72010 0.16700 0.95799 -0.45400
O 	O 	0.75580 0.28230 0.94517 -0.44300
O 	O 	0.34520 0.11600 0.01491 -0.43900
O 	O 	0.27920 0.01510 0.04455 -0.43500
O 	O 	0.43840 0.17710 0.60670 -0.43700
O 	O 	0.36090 0.08270 0.63911 -0.45400
O 	O 	0.00450 0.99400 0.69029 -0.45900
O 	O 	0.91390 0.90910 0.72805 -0.42000
O 	O 	0.37330 0.89070 0.63597 -0.43600
O 	O 	0.31230 0.78370 0.65925 -0.42700
O 	O 	0.92090 0.61010 0.71425 -0.45200
O 	O 	0.94420 0.72820 0.71476 -0.47800
O 	O 	0.25770 0.97970 0.72145 -0.42400
O 	O 	0.44940 0.02510 0.92917 -0.46200
O 	O 	0.39380 0.91960 0.95803 -0.43000
O 	O 	0.88510 0.07150 0.39906 -0.45500
O 	O 	0.95320 0.17010 0.36533 -0.45100
O 	O 	0.07180 0.12690 0.60290 -0.43700
O 	O 	0.14100 0.22720 0.57268 -0.45200
O 	O 	0.34410 0.47330 0.64976 -0.42300
O 	O 	0.41110 0.35420 0.61907 -0.44200
O 	O 	0.02220 0.30880 0.66395 -0.40800
O 	O 	0.95450 0.43120 0.69101 -0.41600
O 	O 	0.62690 0.34020 0.04174 -0.40000
O 	O 	0.54810 0.46820 0.04585 -0.49000
O 	O 	0.74550 0.32900 0.26805 -0.45500
O 	O 	0.77600 0.44620 0.25597 -0.45500
O 	O 	0.45540 0.33360 0.91365 -0.44900
O 	O 	0.40210 0.22270 0.92789 -0.42700
O 	O 	0.28970 0.23500 0.70038 -0.39100
O 	O 	0.23090 0.36300 0.70201 -0.48900
O 	O 	0.03550 0.55100 0.61495 -0.41100
O 	O 	0.13070 0.42540 0.60634 -0.49900
O 	O 	0.33760 0.42150 0.00734 -0.44600
O 	O 	0.27050 0.54160 0.03544 -0.43200
O 	O 	0.20830 0.87170 0.74936 -0.46200
O 	O 	0.10390 0.13110 0.69159 -0.77500
O 	O 	0.47700 0.25460 0.00884 -0.74300
O 	O 	0.27990 0.83300 0.04201 -0.45400
O 	O 	0.24420 0.71770 0.05483 -0.44300
O 	O 	0.65480 0.88400 0.98509 -0.43900
O 	O 	0.72080 0.98490 0.95545 -0.43500
O 	O 	0.56160 0.82290 0.39330 -0.43700
O 	O 	0.63910 0.91730 0.36089 -0.45400
O 	O 	0.99550 0.00600 0.30971 -0.45900
O 	O 	0.08610 0.09090 0.27195 -0.42000
O 	O 	0.62670 0.10930 0.36403 -0.43600
O 	O 	0.68770 0.21630 0.34075 -0.42700
O 	O 	0.07910 0.38990 0.28575 -0.45200
O 	O 	0.05580 0.27180 0.28524 -0.47800
O 	O 	0.74230 0.02030 0.27855 -0.42400
O 	O 	0.55060 0.97490 0.07083 -0.46200
O 	O 	0.60620 0.08040 0.04197 -0.43000
O 	O 	0.11490 0.92850 0.60094 -0.45500
O 	O 	0.04680 0.82990 0.63467 -0.45100
O 	O 	0.92820 0.87310 0.39710 -0.43700
O 	O 	0.85900 0.77280 0.42732 -0.45200
O 	O 	0.65590 0.52670 0.35024 -0.42300
O 	O 	0.58890 0.64580 0.38093 -0.44200
O 	O 	0.97780 0.69120 0.33605 -0.40800
O 	O 	0.04550 0.56880 0.30899 -0.41600
O 	O 	0.37310 0.65980 0.95826 -0.40000
O 	O 	0.45190 0.53180 0.95415 -0.49000
O 	O 	0.25450 0.67100 0.73195 -0.45500
O 	O 	0.22400 0.55380 0.74403 -0.45500
O 	O 	0.54460 0.66640 0.08635 -0.44900
O 	O 	0.59790 0.77730 0.07211 -0.42700
O 	O 	0.71030 0.76500 0.29962 -0.39100
O 	O 	0.76910 0.63700 0.29799 -0.48900
O 	O 	0.96450 0.44900 0.38505 -0.41100
O 	O 	0.86930 0.57460 0.39366 -0.49900
O 	O 	0.66240 0.57850 0.99266 -0.44600
O 	O 	0.72950 0.45840 0.96456 -0.43200
O 	O 	0.79170 0.12830 0.25064 -0.46200
O 	O 	0.89610 0.86890 0.30841 -0.77500
O 	O 	0.52300 0.74540 0.99116 -0.74300
