data_crystal

_cell_length_a 8.61300
_cell_length_b 10.12200
_cell_length_c 11.09500
_cell_angle_alpha 65.20500
_cell_angle_beta  71.60900
_cell_angle_gamma 78.61700

_symmetry_space_group_name_	'P 1'
_symmetry_space_group_name_H-M	'P 1'

loop_
_symmetry_equiv_pos_as_xyz
  x,y,z

loop_
_atom_site_label
_atom_site_type_symbol
_atom_site_fract_x
_atom_site_fract_y
_atom_site_fract_z
_atom_site_charge
Y 	Y 	0.36688 0.06328 0.33869 2.36400
Y 	Y 	0.63312 0.93672 0.66131 2.36400
H 	H 	0.55380 0.72270 0.31400 0.02400
H 	H 	0.49480 0.47520 0.71840 0.04400
H 	H 	0.95840 0.15110 0.11580 0.04900
H 	H 	0.78100 0.88430 0.01320 0.05000
H 	H 	0.27580 0.44800 0.91610 0.06100
H 	H 	0.86580 0.37080 0.22920 0.04000
H 	H 	0.44620 0.27730 0.68600 0.02400
H 	H 	0.50520 0.52480 0.28160 0.04400
H 	H 	0.04160 0.84890 0.88420 0.04900
H 	H 	0.21900 0.11570 0.98680 0.05000
H 	H 	0.72420 0.55200 0.08390 0.06100
H 	H 	0.13420 0.62920 0.77080 0.04000
C 	C 	0.55690 0.74500 0.54370 0.43700
C 	C 	0.52840 0.61880 0.51960 -0.13700
C 	C 	0.53220 0.63410 0.38800 -0.02700
C 	C 	0.49660 0.48440 0.63100 -0.00600
C 	C 	0.67410 0.04580 0.16100 0.30300
C 	C 	0.84340 0.02080 0.07870 -0.06800
C 	C 	0.97670 0.08990 0.06860 -0.04300
C 	C 	0.86750 0.93020 0.00840 -0.02700
C 	C 	0.17690 0.27050 0.17980 0.29000
C 	C 	0.08340 0.39130 0.08840 -0.05900
C 	C 	0.16440 0.46990 0.94900 -0.02600
C 	C 	0.91960 0.42200 0.13810 -0.01700
C 	C 	0.44310 0.25500 0.45630 0.43700
C 	C 	0.47160 0.38120 0.48040 -0.13700
C 	C 	0.46780 0.36590 0.61200 -0.02700
C 	C 	0.50340 0.51560 0.36900 -0.00600
C 	C 	0.32590 0.95420 0.83900 0.30300
C 	C 	0.15660 0.97920 0.92130 -0.06800
C 	C 	0.02330 0.91010 0.93140 -0.04300
C 	C 	0.13250 0.06980 0.99160 -0.02700
C 	C 	0.82310 0.72950 0.82020 0.29000
C 	C 	0.91660 0.60870 0.91160 -0.05900
C 	C 	0.83560 0.53010 0.05100 -0.02600
C 	C 	0.08040 0.57800 0.86190 -0.01700
O 	O 	0.51840 0.87220 0.46840 -0.71200
O 	O 	0.62230 0.72030 0.63860 -0.55400
O 	O 	0.65540 0.12250 0.22970 -0.47500
O 	O 	0.55260 0.98850 0.16440 -0.49300
O 	O 	0.10500 0.19680 0.30580 -0.53800
O 	O 	0.32630 0.24490 0.12680 -0.48000
O 	O 	0.48160 0.12780 0.53160 -0.71200
O 	O 	0.37770 0.27970 0.36140 -0.55400
O 	O 	0.34460 0.87750 0.77030 -0.47500
O 	O 	0.44740 0.01150 0.83560 -0.49300
O 	O 	0.89500 0.80320 0.69420 -0.53800
O 	O 	0.67370 0.75510 0.87320 -0.48000
