data_crystal

_cell_length_a 34.51460
_cell_length_b 34.51460
_cell_length_c 34.51460
_cell_angle_alpha 109.47100
_cell_angle_beta  109.47100
_cell_angle_gamma 109.47100

_symmetry_space_group_name_	'P 1'
_symmetry_space_group_name_H-M	'P 1'

loop_
_symmetry_equiv_pos_as_xyz
  x,y,z

loop_
_atom_site_label
_atom_site_type_symbol
_atom_site_fract_x
_atom_site_fract_y
_atom_site_fract_z
_atom_site_charge
Ce	Ce	0.50000 0.50000 -0.00000 2.11500
Ce	Ce	0.00000 0.50000 0.50000 2.12400
Ce	Ce	0.50000 1.00000 0.50000 2.13700
Ce	Ce	-0.00000 0.00000 -0.00000 2.10400
Ce	Ce	0.61713 0.61713 0.11713 2.15500
Ce	Ce	-0.00000 0.50000 0.38287 2.14800
Ce	Ce	0.50000 0.88287 0.50000 2.15500
Ce	Ce	0.88287 0.00000 -0.00000 2.13600
Ce	Ce	0.38287 0.38287 0.88287 2.15500
Ce	Ce	1.00000 0.50000 0.61713 2.16300
Ce	Ce	0.50000 0.11713 0.50000 2.15500
Ce	Ce	0.11713 0.00000 -0.00000 2.13300
H 	H 	0.76430 0.90420 0.03230 0.02000
H 	H 	0.71500 0.83960 0.02700 0.11400
H 	H 	0.73160 0.75710 0.92630 0.11200
H 	H 	0.78340 0.82520 0.93240 0.02600
H 	H 	0.59520 0.58920 0.93880 0.00900
H 	H 	0.63990 0.65210 0.93300 0.13400
H 	H 	0.63530 0.74100 0.04050 0.12900
H 	H 	0.59420 0.67590 0.04770 0.00200
H 	H 	0.37190 0.73200 0.46770 0.01500
H 	H 	0.31260 0.68800 0.47300 0.10800
H 	H 	0.33080 0.80530 0.57370 0.10500
H 	H 	0.39280 0.85100 0.56760 0.02600
H 	H 	0.15040 0.65640 0.56120 0.00700
H 	H 	0.21910 0.70690 0.56700 0.12600
H 	H 	0.20050 0.59480 0.45950 0.12100
H 	H 	0.12820 0.54650 0.45230 -0.00400
H 	H 	0.12810 0.59580 0.36010 0.01200
H 	H 	0.18740 0.66040 0.37540 0.10700
H 	H 	0.16920 0.74290 0.47450 0.10400
H 	H 	0.10720 0.67480 0.45820 0.02200
H 	H 	0.34960 0.91080 0.50600 0.01000
H 	H 	0.28090 0.84790 0.48780 0.12500
H 	H 	0.29950 0.75900 0.39430 0.11900
H 	H 	0.37180 0.82410 0.41830 -0.00300
H 	H 	0.73570 0.76800 0.13990 0.01500
H 	H 	0.78500 0.81200 0.12460 0.11000
H 	H 	0.76840 0.69470 0.02550 0.09800
H 	H 	0.71660 0.64900 0.04180 0.01700
H 	H 	0.90480 0.84360 0.99400 0.08000
H 	H 	0.86010 0.79310 0.01220 0.08700
H 	H 	0.86470 0.90520 0.10570 0.10400
H 	H 	0.90580 0.95350 0.08170 0.02300
H 	H 	0.86010 0.12810 0.09580 0.00900
H 	H 	0.87540 0.18740 0.16040 0.10700
H 	H 	0.97450 0.16920 0.24290 0.10700
H 	H 	0.95820 0.10720 0.17480 0.02400
H 	H 	0.00600 0.34960 0.41080 -0.02700
H 	H 	0.98780 0.28090 0.34790 0.14200
H 	H 	0.89430 0.29950 0.25900 0.12800
H 	H 	0.91830 0.37180 0.32410 -0.01300
H 	H 	0.63990 0.73570 0.26800 0.01600
H 	H 	0.62460 0.78500 0.31200 0.11000
H 	H 	0.52550 0.76840 0.19470 0.10200
H 	H 	0.54180 0.71660 0.14900 0.02100
H 	H 	0.49400 0.90480 0.34360 0.00800
H 	H 	0.51220 0.86010 0.29310 0.12400
H 	H 	0.60570 0.86470 0.40520 0.12200
H 	H 	0.58170 0.90580 0.45350 -0.00100
H 	H 	0.53230 0.76430 0.40420 0.01600
H 	H 	0.52700 0.71500 0.33960 0.10800
H 	H 	0.42630 0.73160 0.25710 0.10200
H 	H 	0.43240 0.78340 0.32520 0.02300
H 	H 	0.43880 0.59520 0.08920 0.00100
H 	H 	0.43300 0.63990 0.15210 0.12200
H 	H 	0.54050 0.63530 0.24100 0.12200
H 	H 	0.54770 0.59420 0.17590 -0.00400
H 	H 	0.96770 0.37190 0.23200 0.01300
H 	H 	0.97300 0.31260 0.18800 0.10300
H 	H 	0.07370 0.33080 0.30530 0.09900
H 	H 	0.06760 0.39280 0.35100 0.02300
H 	H 	0.06120 0.15040 0.15640 0.00500
H 	H 	0.06700 0.21910 0.20690 0.12000
H 	H 	0.95950 0.20050 0.09480 0.11500
H 	H 	0.95230 0.12820 0.04650 -0.01300
H 	H 	0.73200 0.96770 0.87190 0.01900
H 	H 	0.68800 0.97300 0.81260 0.10700
H 	H 	0.80530 0.07370 0.83080 0.10300
H 	H 	0.85100 0.06760 0.89280 0.02900
H 	H 	0.65640 0.06120 0.65040 0.00800
H 	H 	0.70690 0.06700 0.71910 0.12300
H 	H 	0.59480 0.95950 0.70050 0.12000
H 	H 	0.54650 0.95230 0.62820 -0.00500
H 	H 	0.90420 0.53230 0.26430 0.01700
H 	H 	0.83960 0.52700 0.21500 0.10700
H 	H 	0.75710 0.42630 0.23160 0.10100
H 	H 	0.82520 0.43240 0.28340 0.02400
H 	H 	0.58920 0.43880 0.09520 0.00300
H 	H 	0.65210 0.43300 0.13990 0.12200
H 	H 	0.74100 0.54050 0.13530 0.12000
H 	H 	0.67590 0.54770 0.09420 -0.00600
H 	H 	0.76800 0.63990 0.23570 0.01600
H 	H 	0.81200 0.62460 0.28500 0.11000
H 	H 	0.69470 0.52550 0.26840 0.10300
H 	H 	0.64900 0.54180 0.21660 0.02300
H 	H 	0.84360 0.49400 0.40480 0.00800
H 	H 	0.79310 0.51220 0.36010 0.12400
H 	H 	0.90520 0.60570 0.36470 0.12300
H 	H 	0.95350 0.58170 0.40580 0.00100
H 	H 	0.59580 0.86010 0.62810 0.01600
H 	H 	0.66040 0.87540 0.68740 0.11000
H 	H 	0.74290 0.97450 0.66920 0.10800
H 	H 	0.67480 0.95820 0.60720 0.02700
H 	H 	0.91080 0.00600 0.84960 -0.01600
H 	H 	0.84790 0.98780 0.78090 0.14100
H 	H 	0.75900 0.89430 0.79950 0.12900
H 	H 	0.82410 0.91830 0.87180 -0.00800
H 	H 	0.23570 0.09580 0.96770 0.01100
H 	H 	0.28500 0.16040 0.97300 0.10200
H 	H 	0.26840 0.24290 0.07370 0.09500
H 	H 	0.21660 0.17480 0.06760 0.02100
H 	H 	0.40480 0.41080 0.06120 0.00600
H 	H 	0.36010 0.34790 0.06700 0.11400
H 	H 	0.36470 0.25900 0.95950 0.11300
H 	H 	0.40580 0.32410 0.95230 -0.00700
H 	H 	0.62810 0.26800 0.53230 0.01600
H 	H 	0.68740 0.31200 0.52700 0.10900
H 	H 	0.66920 0.19470 0.42630 0.10200
H 	H 	0.60720 0.14900 0.43240 0.02200
H 	H 	0.84960 0.34360 0.43880 0.00800
H 	H 	0.78090 0.29310 0.43300 0.12300
H 	H 	0.79950 0.40520 0.54050 0.12100
H 	H 	0.87180 0.45350 0.54770 -0.00200
H 	H 	0.87190 0.40420 0.63990 0.01800
H 	H 	0.81260 0.33960 0.62460 0.11000
H 	H 	0.83080 0.25710 0.52550 0.10400
H 	H 	0.89280 0.32520 0.54180 0.02600
H 	H 	0.65040 0.08920 0.49400 0.00500
H 	H 	0.71910 0.15210 0.51220 0.12400
H 	H 	0.70050 0.24100 0.60570 0.12300
H 	H 	0.62820 0.17590 0.58170 -0.00300
H 	H 	0.26430 0.23200 0.86010 0.01500
H 	H 	0.21500 0.18800 0.87540 0.10800
H 	H 	0.23160 0.30530 0.97450 0.11000
H 	H 	0.28340 0.35100 0.95820 0.03100
H 	H 	0.09520 0.15640 0.00600 -0.07100
H 	H 	0.13990 0.20690 0.98780 0.16500
H 	H 	0.13530 0.09480 0.89430 0.14000
H 	H 	0.09420 0.04650 0.91830 -0.02900
H 	H 	0.13990 0.87190 0.90420 0.02200
H 	H 	0.12460 0.81260 0.83960 0.11000
H 	H 	0.02550 0.83080 0.75710 0.10100
H 	H 	0.04180 0.89280 0.82520 0.02400
H 	H 	0.99400 0.65040 0.58920 0.04100
H 	H 	0.01220 0.71910 0.65210 0.10700
H 	H 	0.10570 0.70050 0.74100 0.11500
H 	H 	0.08170 0.62820 0.67590 0.00700
H 	H 	0.36010 0.26430 0.73200 0.01500
H 	H 	0.37540 0.21500 0.68800 0.10700
H 	H 	0.47450 0.23160 0.80530 0.10600
H 	H 	0.45820 0.28340 0.85100 0.02700
H 	H 	0.50600 0.09520 0.65640 0.00700
H 	H 	0.48780 0.13990 0.70690 0.12500
H 	H 	0.39430 0.13530 0.59480 0.12000
H 	H 	0.41830 0.09420 0.54650 -0.00400
H 	H 	0.46770 0.23570 0.59580 0.01500
H 	H 	0.47300 0.28500 0.66040 0.10900
H 	H 	0.57370 0.26840 0.74290 0.10600
H 	H 	0.56760 0.21660 0.67480 0.02500
H 	H 	0.56120 0.40480 0.91080 0.01400
H 	H 	0.56700 0.36010 0.84790 0.12700
H 	H 	0.45950 0.36470 0.75900 0.12100
H 	H 	0.45230 0.40580 0.82410 -0.00200
H 	H 	0.03230 0.62810 0.76800 0.01800
H 	H 	0.02700 0.68740 0.81200 0.11400
H 	H 	0.92630 0.66920 0.69470 0.10800
H 	H 	0.93240 0.60720 0.64900 0.02500
H 	H 	0.93880 0.84960 0.84360 0.01100
H 	H 	0.93300 0.78090 0.79310 0.12800
H 	H 	0.04050 0.79950 0.90520 0.12700
H 	H 	0.04770 0.87180 0.95350 0.00800
H 	H 	0.26800 0.03230 0.12810 0.01200
H 	H 	0.31200 0.02700 0.18740 0.11000
H 	H 	0.19470 0.92630 0.16920 0.10500
H 	H 	0.14900 0.93240 0.10720 0.01900
H 	H 	0.34360 0.93880 0.34960 0.00700
H 	H 	0.29310 0.93300 0.28090 0.12600
H 	H 	0.40520 0.04050 0.29950 0.12300
H 	H 	0.45350 0.04770 0.37180 -0.00100
H 	H 	0.09580 0.46770 0.73570 0.01400
H 	H 	0.16040 0.47300 0.78500 0.11000
H 	H 	0.24290 0.57370 0.76840 0.10600
H 	H 	0.17480 0.56760 0.71660 0.02400
H 	H 	0.41080 0.56120 0.90480 0.01200
H 	H 	0.34790 0.56700 0.86010 0.12600
H 	H 	0.25900 0.45950 0.86470 0.12200
H 	H 	0.32410 0.45230 0.90580 0.00000
H 	H 	0.23200 0.36010 0.76430 0.01500
H 	H 	0.18800 0.37540 0.71500 0.10700
H 	H 	0.30530 0.47450 0.73160 0.10400
H 	H 	0.35100 0.45820 0.78340 0.02400
H 	H 	0.15640 0.50600 0.59520 0.00700
H 	H 	0.20690 0.48780 0.63990 0.12500
H 	H 	0.09480 0.39430 0.63530 0.12000
H 	H 	0.04650 0.41830 0.59420 -0.00700
H 	H 	0.40420 0.13990 0.37190 0.01500
H 	H 	0.33960 0.12460 0.31260 0.10700
H 	H 	0.25710 0.02550 0.33080 0.09900
H 	H 	0.32520 0.04180 0.39280 0.02100
H 	H 	0.08920 0.99400 0.15040 0.03600
H 	H 	0.15210 0.01220 0.21910 0.10500
H 	H 	0.24100 0.10570 0.20050 0.11200
H 	H 	0.17590 0.08170 0.12820 0.00500
C 	C 	0.81127 0.91461 0.98626 0.36200
C 	C 	0.77885 0.87145 0.98272 -0.11000
C 	C 	0.75771 0.87466 0.01105 0.08200
C 	C 	0.72880 0.83643 0.00795 -0.22800
C 	C 	0.71743 0.78985 0.97638 0.21400
C 	C 	0.73841 0.78671 0.94774 -0.18000
C 	C 	0.76922 0.82738 0.95112 0.09100
C 	C 	0.56489 0.58636 0.99829 0.42700
C 	C 	0.58918 0.62658 0.99284 -0.16300
C 	C 	0.60359 0.61982 0.95933 0.14500
C 	C 	0.62993 0.65671 0.95534 -0.23900
C 	C 	0.64046 0.70085 0.98655 0.25400
C 	C 	0.62765 0.71044 0.02065 -0.26200
C 	C 	0.60215 0.67114 0.02393 0.10000
C 	C 	0.42835 0.82501 0.51374 0.32700
C 	C 	0.38873 0.79613 0.51728 -0.13500
C 	C 	0.36361 0.74666 0.48895 0.10600
C 	C 	0.32848 0.72085 0.49205 -0.18900
C 	C 	0.31347 0.74105 0.52362 0.17200
C 	C 	0.33897 0.79067 0.55226 -0.17100
C 	C 	0.37626 0.81810 0.54888 0.08500
C 	C 	0.08807 0.56660 0.50171 0.39200
C 	C 	0.13374 0.59634 0.50716 -0.19200
C 	C 	0.16049 0.64426 0.54067 0.13900
C 	C 	0.20137 0.67459 0.54466 -0.22600
C 	C 	0.21430 0.65391 0.51345 0.20700
C 	C 	0.18979 0.60700 0.47935 -0.21700
C 	C 	0.14721 0.57822 0.47607 0.13000
C 	C 	0.07165 0.58539 0.39666 0.32800
C 	C 	0.11127 0.62855 0.40740 -0.13900
C 	C 	0.13639 0.62534 0.38305 0.10700
C 	C 	0.17152 0.66357 0.39237 -0.19100
C 	C 	0.18653 0.71015 0.42758 0.17200
C 	C 	0.16103 0.71329 0.45170 -0.17400
C 	C 	0.12374 0.67262 0.44184 0.08600
C 	C 	0.41193 0.91364 0.47853 0.39000
C 	C 	0.36626 0.87342 0.46260 -0.18900
C 	C 	0.33951 0.88018 0.48377 0.13600
C 	C 	0.29863 0.84329 0.47322 -0.22400
C 	C 	0.28570 0.79915 0.43961 0.20500
C 	C 	0.31021 0.78956 0.41721 -0.21500
C 	C 	0.35279 0.82886 0.43101 0.12700
C 	C 	0.68873 0.67499 0.10334 0.32700
C 	C 	0.72115 0.70387 0.09260 -0.13900
C 	C 	0.74229 0.75334 0.11695 0.10700
C 	C 	0.77120 0.77915 0.10763 -0.19200
C 	C 	0.78257 0.75895 0.07242 0.16900
C 	C 	0.76159 0.70933 0.04830 -0.17600
C 	C 	0.73078 0.68190 0.05816 0.08300
C 	C 	0.93511 0.93340 0.02147 0.32000
C 	C 	0.91082 0.90366 0.03740 -0.11300
C 	C 	0.89641 0.85574 0.01623 0.00100
C 	C 	0.87007 0.82541 0.02678 -0.14200
C 	C 	0.85954 0.84609 0.06039 0.15600
C 	C 	0.87235 0.89300 0.08279 -0.16300
C 	C 	0.89785 0.92178 0.06899 0.06300
C 	C 	0.89666 0.07165 0.08539 0.33000
C 	C 	0.90740 0.11127 0.12855 -0.14000
C 	C 	0.88305 0.13639 0.12534 0.10900
C 	C 	0.89237 0.17152 0.16357 -0.19200
C 	C 	0.92758 0.18653 0.21015 0.17500
C 	C 	0.95170 0.16103 0.21329 -0.17300
C 	C 	0.94184 0.12374 0.17262 0.09000
C 	C 	0.97853 0.41193 0.41364 0.42500
C 	C 	0.96260 0.36626 0.37342 -0.22700
C 	C 	0.98377 0.33951 0.38018 0.20400
C 	C 	0.97322 0.29863 0.34329 -0.26500
C 	C 	0.93961 0.28570 0.29915 0.22900
C 	C 	0.91721 0.31021 0.28956 -0.24100
C 	C 	0.93101 0.35279 0.32886 0.15900
C 	C 	0.60334 0.68873 0.17499 0.32700
C 	C 	0.59260 0.72115 0.20387 -0.13600
C 	C 	0.61695 0.74229 0.25334 0.10700
C 	C 	0.60763 0.77120 0.27915 -0.18900
C 	C 	0.57242 0.78257 0.25895 0.17300
C 	C 	0.54830 0.76159 0.20933 -0.17300
C 	C 	0.55816 0.73078 0.18190 0.08600
C 	C 	0.52147 0.93511 0.43340 0.39100
C 	C 	0.53740 0.91082 0.40366 -0.18900
C 	C 	0.51623 0.89641 0.35574 0.13800
C 	C 	0.52678 0.87007 0.32541 -0.22400
C 	C 	0.56039 0.85954 0.34609 0.20600
C 	C 	0.58279 0.87235 0.39300 -0.21500
C 	C 	0.56899 0.89785 0.42178 0.12900
C 	C 	0.48626 0.81127 0.41461 0.32600
C 	C 	0.48272 0.77885 0.37145 -0.13500
C 	C 	0.51105 0.75771 0.37466 0.10500
C 	C 	0.50795 0.72880 0.33643 -0.18900
C 	C 	0.47638 0.71743 0.28985 0.17100
C 	C 	0.44774 0.73841 0.28671 -0.17200
C 	C 	0.45112 0.76922 0.32738 0.08400
C 	C 	0.49829 0.56489 0.08636 0.39400
C 	C 	0.49284 0.58918 0.12658 -0.19600
C 	C 	0.45933 0.60359 0.11982 0.14100
C 	C 	0.45534 0.62993 0.15671 -0.22900
C 	C 	0.48655 0.64046 0.20085 0.20700
C 	C 	0.52065 0.62765 0.21044 -0.21900
C 	C 	0.52393 0.60215 0.17114 0.13200
C 	C 	0.01374 0.42835 0.32501 0.30800
C 	C 	0.01728 0.38873 0.29613 -0.14700
C 	C 	0.98895 0.36361 0.24666 0.11600
C 	C 	0.99205 0.32848 0.22085 -0.16900
C 	C 	0.02362 0.31347 0.24105 0.15000
C 	C 	0.05226 0.33897 0.29067 -0.16800
C 	C 	0.04888 0.37626 0.31810 0.08100
C 	C 	0.00171 0.08807 0.06660 0.37900
C 	C 	0.00716 0.13374 0.09634 -0.21000
C 	C 	0.04067 0.16049 0.14426 0.13800
C 	C 	0.04466 0.20137 0.17459 -0.22300
C 	C 	0.01345 0.21430 0.15391 0.18500
C 	C 	0.97935 0.18979 0.10700 -0.19900
C 	C 	0.97607 0.14721 0.07822 0.14700
C 	C 	0.82501 0.01374 0.92835 0.31000
C 	C 	0.79613 0.01728 0.88873 -0.13800
C 	C 	0.74666 0.98895 0.86361 0.11200
C 	C 	0.72085 0.99205 0.82848 -0.16800
C 	C 	0.74105 0.02362 0.81347 0.15500
C 	C 	0.79067 0.05226 0.83897 -0.16500
C 	C 	0.81810 0.04888 0.87626 0.08000
C 	C 	0.56660 0.00171 0.58807 0.37600
C 	C 	0.59634 0.00716 0.63374 -0.20300
C 	C 	0.64426 0.04067 0.66049 0.13700
C 	C 	0.67459 0.04466 0.70137 -0.22100
C 	C 	0.65391 0.01345 0.71430 0.18800
C 	C 	0.60700 0.97935 0.68979 -0.19900
C 	C 	0.57822 0.97607 0.64721 0.14300
C 	C 	0.91461 0.48626 0.31127 0.32500
C 	C 	0.87145 0.48272 0.27885 -0.13400
C 	C 	0.87466 0.51105 0.25771 0.10300
C 	C 	0.83643 0.50795 0.22880 -0.18700
C 	C 	0.78985 0.47638 0.21743 0.17000
C 	C 	0.78671 0.44774 0.23841 -0.17100
C 	C 	0.82738 0.45112 0.26922 0.08300
C 	C 	0.58636 0.49829 0.06489 0.39100
C 	C 	0.62658 0.49284 0.08918 -0.19700
C 	C 	0.61982 0.45933 0.10359 0.13900
C 	C 	0.65671 0.45534 0.12993 -0.22900
C 	C 	0.70085 0.48655 0.14046 0.20500
C 	C 	0.71044 0.52065 0.12765 -0.22000
C 	C 	0.67114 0.52393 0.10215 0.13000
C 	C 	0.67499 0.60334 0.18873 0.32700
C 	C 	0.70387 0.59260 0.22115 -0.13500
C 	C 	0.75334 0.61695 0.24229 0.10600
C 	C 	0.77915 0.60763 0.27120 -0.18900
C 	C 	0.75895 0.57242 0.28257 0.17300
C 	C 	0.70933 0.54830 0.26159 -0.17200
C 	C 	0.68190 0.55816 0.23078 0.08600
C 	C 	0.93340 0.52147 0.43511 0.38900
C 	C 	0.90366 0.53740 0.41082 -0.18800
C 	C 	0.85574 0.51623 0.39641 0.13700
C 	C 	0.82541 0.52678 0.37007 -0.22400
C 	C 	0.84609 0.56039 0.35954 0.20600
C 	C 	0.89300 0.58279 0.37235 -0.21400
C 	C 	0.92178 0.56899 0.39785 0.12800
C 	C 	0.58539 0.89666 0.57165 0.32700
C 	C 	0.62855 0.90740 0.61127 -0.13400
C 	C 	0.62534 0.88305 0.63639 0.10600
C 	C 	0.66357 0.89237 0.67152 -0.18800
C 	C 	0.71015 0.92758 0.68653 0.17500
C 	C 	0.71329 0.95170 0.66103 -0.17100
C 	C 	0.67262 0.94184 0.62374 0.08700
C 	C 	0.91364 0.97853 0.91193 0.41400
C 	C 	0.87342 0.96260 0.86626 -0.21500
C 	C 	0.88018 0.98377 0.83951 0.19000
C 	C 	0.84329 0.97322 0.79863 -0.25500
C 	C 	0.79915 0.93961 0.78570 0.22500
C 	C 	0.78956 0.91721 0.81021 -0.23400
C 	C 	0.82886 0.93101 0.85279 0.15100
C 	C 	0.18873 0.08539 0.01374 0.28800
C 	C 	0.22115 0.12855 0.01728 -0.16300
C 	C 	0.24229 0.12534 0.98895 0.13100
C 	C 	0.27120 0.16357 0.99205 -0.14700
C 	C 	0.28257 0.21015 0.02362 0.12700
C 	C 	0.26159 0.21329 0.05226 -0.16400
C 	C 	0.23078 0.17262 0.04888 0.07900
C 	C 	0.43511 0.41364 0.00171 0.35400
C 	C 	0.41082 0.37342 0.00716 -0.22000
C 	C 	0.39641 0.38018 0.04067 0.13000
C 	C 	0.37007 0.34329 0.04466 -0.21200
C 	C 	0.35954 0.29915 0.01345 0.15600
C 	C 	0.37235 0.28956 0.97935 -0.16900
C 	C 	0.39785 0.32886 0.97607 0.15900
C 	C 	0.57165 0.17499 0.48626 0.32700
C 	C 	0.61127 0.20387 0.48272 -0.13600
C 	C 	0.63639 0.25334 0.51105 0.10600
C 	C 	0.67152 0.27915 0.50795 -0.18900
C 	C 	0.68653 0.25895 0.47638 0.17200
C 	C 	0.66103 0.20933 0.44774 -0.17300
C 	C 	0.62374 0.18190 0.45112 0.08500
C 	C 	0.91193 0.43340 0.49829 0.39000
C 	C 	0.86626 0.40366 0.49284 -0.19000
C 	C 	0.83951 0.35574 0.45933 0.13700
C 	C 	0.79863 0.32541 0.45534 -0.22500
C 	C 	0.78570 0.34609 0.48655 0.20500
C 	C 	0.81021 0.39300 0.52065 -0.21600
C 	C 	0.85279 0.42178 0.52393 0.12800
C 	C 	0.92835 0.41461 0.60334 0.32600
C 	C 	0.88873 0.37145 0.59260 -0.13200
C 	C 	0.86361 0.37466 0.61695 0.10500
C 	C 	0.82848 0.33643 0.60763 -0.18700
C 	C 	0.81347 0.28985 0.57242 0.17200
C 	C 	0.83897 0.28671 0.54830 -0.17000
C 	C 	0.87626 0.32738 0.55816 0.08400
C 	C 	0.58807 0.08636 0.52147 0.39300
C 	C 	0.63374 0.12658 0.53740 -0.19400
C 	C 	0.66049 0.11982 0.51623 0.14000
C 	C 	0.70137 0.15671 0.52678 -0.22800
C 	C 	0.71430 0.20085 0.56039 0.20800
C 	C 	0.68979 0.21044 0.58279 -0.21800
C 	C 	0.64721 0.17114 0.56899 0.13100
C 	C 	0.31127 0.32501 0.89666 0.32600
C 	C 	0.27885 0.29613 0.90740 -0.13200
C 	C 	0.25771 0.24666 0.88305 0.10500
C 	C 	0.22880 0.22085 0.89237 -0.18600
C 	C 	0.21743 0.24105 0.92758 0.17500
C 	C 	0.23841 0.29067 0.95170 -0.16800
C 	C 	0.26922 0.31810 0.94184 0.08800
C 	C 	0.06489 0.06660 0.97853 0.46800
C 	C 	0.08918 0.09634 0.96260 -0.27500
C 	C 	0.10359 0.14426 0.98377 0.28700
C 	C 	0.12993 0.17459 0.97322 -0.31600
C 	C 	0.14046 0.15391 0.93961 0.26000
C 	C 	0.12765 0.10700 0.91721 -0.27400
C 	C 	0.10215 0.07822 0.93101 0.20000
C 	C 	0.10334 0.92835 0.91461 0.32200
C 	C 	0.09260 0.88873 0.87145 -0.13000
C 	C 	0.11695 0.86361 0.87466 0.10200
C 	C 	0.10763 0.82848 0.83643 -0.18600
C 	C 	0.07242 0.81347 0.78985 0.17000
C 	C 	0.04830 0.83897 0.78671 -0.17000
C 	C 	0.05816 0.87626 0.82738 0.08100
C 	C 	0.02147 0.58807 0.58636 0.35800
C 	C 	0.03740 0.63374 0.62658 -0.15700
C 	C 	0.01623 0.66049 0.61982 0.07500
C 	C 	0.02678 0.70137 0.65671 -0.18800
C 	C 	0.06039 0.71430 0.70085 0.18400
C 	C 	0.08279 0.68979 0.71044 -0.19400
C 	C 	0.06899 0.64721 0.67114 0.10000
C 	C 	0.39666 0.31127 0.82501 0.32600
C 	C 	0.40740 0.27885 0.79613 -0.13400
C 	C 	0.38305 0.25771 0.74666 0.10500
C 	C 	0.39237 0.22880 0.72085 -0.18900
C 	C 	0.42758 0.21743 0.74105 0.17100
C 	C 	0.45170 0.23841 0.79067 -0.17100
C 	C 	0.44184 0.26922 0.81810 0.08500
C 	C 	0.47853 0.06489 0.56660 0.39100
C 	C 	0.46260 0.08918 0.59634 -0.19400
C 	C 	0.48377 0.10359 0.64426 0.13900
C 	C 	0.47322 0.12993 0.67459 -0.22700
C 	C 	0.43961 0.14046 0.65391 0.20600
C 	C 	0.41721 0.12765 0.60700 -0.21800
C 	C 	0.43101 0.10215 0.57822 0.12900
C 	C 	0.51374 0.18873 0.58539 0.32700
C 	C 	0.51728 0.22115 0.62855 -0.13500
C 	C 	0.48895 0.24229 0.62534 0.10600
C 	C 	0.49205 0.27120 0.66357 -0.18900
C 	C 	0.52362 0.28257 0.71015 0.17300
C 	C 	0.55226 0.26159 0.71329 -0.17200
C 	C 	0.54888 0.23078 0.67262 0.08600
C 	C 	0.50171 0.43511 0.91364 0.38800
C 	C 	0.50716 0.41082 0.87342 -0.18600
C 	C 	0.54067 0.39641 0.88018 0.13600
C 	C 	0.54466 0.37007 0.84329 -0.22200
C 	C 	0.51345 0.35954 0.79915 0.20600
C 	C 	0.47935 0.37235 0.78956 -0.21400
C 	C 	0.47607 0.39785 0.82886 0.12700
C 	C 	0.98626 0.57165 0.67499 0.34400
C 	C 	0.98272 0.61127 0.70387 -0.12400
C 	C 	0.01105 0.63639 0.75334 0.09600
C 	C 	0.00795 0.67152 0.77915 -0.20700
C 	C 	0.97638 0.68653 0.75895 0.19200
C 	C 	0.94774 0.66103 0.70933 -0.17600
C 	C 	0.95112 0.62374 0.68190 0.08900
C 	C 	0.99829 0.91193 0.93340 0.39900
C 	C 	0.99284 0.86626 0.90366 -0.17200
C 	C 	0.95933 0.83951 0.85574 0.13700
C 	C 	0.95534 0.79863 0.82541 -0.22700
C 	C 	0.98655 0.78570 0.84609 0.22500
C 	C 	0.02065 0.81021 0.89300 -0.23100
C 	C 	0.02393 0.85279 0.92178 0.11300
C 	C 	0.17499 0.98626 0.07165 0.34600
C 	C 	0.20387 0.98272 0.11127 -0.13000
C 	C 	0.25334 0.01105 0.13639 0.09700
C 	C 	0.27915 0.00795 0.17152 -0.21100
C 	C 	0.25895 0.97638 0.18653 0.19200
C 	C 	0.20933 0.94774 0.16103 -0.17900
C 	C 	0.18190 0.95112 0.12374 0.09000
C 	C 	0.43340 0.99829 0.41193 0.40700
C 	C 	0.40366 0.99284 0.36626 -0.17900
C 	C 	0.35574 0.95933 0.33951 0.14000
C 	C 	0.32541 0.95534 0.29863 -0.23100
C 	C 	0.34609 0.98655 0.28570 0.22600
C 	C 	0.39300 0.02065 0.31021 -0.23600
C 	C 	0.42178 0.02393 0.35279 0.11500
C 	C 	0.08539 0.51374 0.68873 0.32900
C 	C 	0.12855 0.51728 0.72115 -0.13700
C 	C 	0.12534 0.48895 0.74229 0.10800
C 	C 	0.16357 0.49205 0.77120 -0.19000
C 	C 	0.21015 0.52362 0.78257 0.17500
C 	C 	0.21329 0.55226 0.76159 -0.17300
C 	C 	0.17262 0.54888 0.73078 0.08800
C 	C 	0.41364 0.50171 0.93511 0.39100
C 	C 	0.37342 0.50716 0.91082 -0.18500
C 	C 	0.38018 0.54067 0.89641 0.13700
C 	C 	0.34329 0.54466 0.87007 -0.22200
C 	C 	0.29915 0.51345 0.85954 0.20700
C 	C 	0.28956 0.47935 0.87235 -0.21400
C 	C 	0.32886 0.47607 0.89785 0.12800
C 	C 	0.32501 0.39666 0.81127 0.32600
C 	C 	0.29613 0.40740 0.77885 -0.13500
C 	C 	0.24666 0.38305 0.75771 0.10500
C 	C 	0.22085 0.39237 0.72880 -0.18900
C 	C 	0.24105 0.42758 0.71743 0.17100
C 	C 	0.29067 0.45170 0.73841 -0.17200
C 	C 	0.31810 0.44184 0.76922 0.08500
C 	C 	0.06660 0.47853 0.56489 0.39300
C 	C 	0.09634 0.46260 0.58918 -0.19400
C 	C 	0.14426 0.48377 0.60359 0.14000
C 	C 	0.17459 0.47322 0.62993 -0.22700
C 	C 	0.15391 0.43961 0.64046 0.20700
C 	C 	0.10700 0.41721 0.62765 -0.21900
C 	C 	0.07822 0.43101 0.60215 0.13100
C 	C 	0.41461 0.10334 0.42835 0.32700
C 	C 	0.37145 0.09260 0.38873 -0.13700
C 	C 	0.37466 0.11695 0.36361 0.10500
C 	C 	0.33643 0.10763 0.32848 -0.19000
C 	C 	0.28985 0.07242 0.31347 0.16900
C 	C 	0.28671 0.04830 0.33897 -0.17300
C 	C 	0.32738 0.05816 0.37626 0.08400
C 	C 	0.08636 0.02147 0.08807 0.36100
C 	C 	0.12658 0.03740 0.13374 -0.16100
C 	C 	0.11982 0.01623 0.16049 0.07600
C 	C 	0.15671 0.02678 0.20137 -0.19000
C 	C 	0.20085 0.06039 0.21430 0.18300
C 	C 	0.21044 0.08279 0.18979 -0.19500
C 	C 	0.17114 0.06899 0.14721 0.10100
N 	N 	0.68966 0.74526 0.96648 -0.10100
N 	N 	0.66782 0.74259 0.98975 -0.10200
N 	N 	0.27878 0.72318 0.53352 -0.10000
N 	N 	0.25284 0.67807 0.51025 -0.10600
N 	N 	0.22122 0.75474 0.44440 -0.10100
N 	N 	0.24716 0.75741 0.42523 -0.10700
N 	N 	0.81034 0.77682 0.05560 -0.10500
N 	N 	0.83218 0.82193 0.07477 -0.09900
N 	N 	0.94440 0.22122 0.25474 -0.09900
N 	N 	0.92523 0.24716 0.25741 -0.11000
N 	N 	0.55560 0.81034 0.27682 -0.10100
N 	N 	0.57477 0.83218 0.32193 -0.10600
N 	N 	0.46648 0.68966 0.24526 -0.10100
N 	N 	0.48975 0.66782 0.24259 -0.10700
N 	N 	0.03352 0.27878 0.22318 -0.10000
N 	N 	0.01025 0.25284 0.17807 -0.11000
N 	N 	0.72318 0.03352 0.77878 -0.09800
N 	N 	0.67807 0.01025 0.75284 -0.10700
N 	N 	0.74526 0.46648 0.18966 -0.10100
N 	N 	0.74259 0.48975 0.16782 -0.10700
N 	N 	0.77682 0.55560 0.31034 -0.10000
N 	N 	0.82193 0.57477 0.33218 -0.10500
N 	N 	0.75474 0.94440 0.72122 -0.09800
N 	N 	0.75741 0.92523 0.74716 -0.10800
N 	N 	0.31034 0.25474 0.03352 -0.09900
N 	N 	0.33218 0.25741 0.01025 -0.11100
N 	N 	0.72122 0.27682 0.46648 -0.10100
N 	N 	0.74716 0.32193 0.48975 -0.10600
N 	N 	0.77878 0.24526 0.55560 -0.10000
N 	N 	0.75284 0.24259 0.57477 -0.10600
N 	N 	0.18966 0.22318 0.94440 -0.09600
N 	N 	0.16782 0.17807 0.92523 -0.11400
N 	N 	0.05560 0.77878 0.74526 -0.10200
N 	N 	0.07477 0.75284 0.74259 -0.10200
N 	N 	0.44440 0.18966 0.72318 -0.10000
N 	N 	0.42523 0.16782 0.67807 -0.10700
N 	N 	0.53352 0.31034 0.75474 -0.09900
N 	N 	0.51025 0.33218 0.75741 -0.10600
N 	N 	0.96648 0.72122 0.77682 -0.10100
N 	N 	0.98975 0.74716 0.82193 -0.10300
N 	N 	0.27682 0.96648 0.22122 -0.10200
N 	N 	0.32193 0.98975 0.24716 -0.10500
N 	N 	0.25474 0.53352 0.81034 -0.09900
N 	N 	0.25741 0.51025 0.83218 -0.10500
N 	N 	0.22318 0.44440 0.68966 -0.10000
N 	N 	0.17807 0.42523 0.66782 -0.10700
N 	N 	0.24526 0.05560 0.27878 -0.10300
N 	N 	0.24259 0.07477 0.25284 -0.10400
O 	O 	0.54793 0.54415 0.96634 -0.39300
O 	O 	0.56079 0.59462 0.03483 -0.60100
O 	O 	0.83042 0.91038 0.95954 -0.40100
O 	O 	0.82281 0.95360 0.01727 -0.44800
O 	O 	0.07781 0.58159 0.53366 -0.39700
O 	O 	0.05979 0.52596 0.46517 -0.57500
O 	O 	0.45084 0.87088 0.54046 -0.40500
O 	O 	0.43633 0.80554 0.48273 -0.42200
O 	O 	0.42219 0.95585 0.50378 -0.38900
O 	O 	0.44021 0.90538 0.46617 -0.57000
O 	O 	0.04916 0.58962 0.42004 -0.41200
O 	O 	0.06367 0.54640 0.36921 -0.42700
O 	O 	0.95207 0.91841 0.99622 -0.34400
O 	O 	0.93921 0.97404 0.03383 -0.55000
O 	O 	0.66958 0.62912 0.07996 -0.41400
O 	O 	0.67719 0.69446 0.13079 -0.42200
O 	O 	0.00378 0.42219 0.45585 -0.41500
O 	O 	0.96617 0.44021 0.40538 -0.57300
O 	O 	0.92004 0.04916 0.08962 -0.41100
O 	O 	0.86921 0.06367 0.04640 -0.43500
O 	O 	0.49622 0.95207 0.41841 -0.39100
O 	O 	0.53383 0.93921 0.47404 -0.56800
O 	O 	0.57996 0.66958 0.12912 -0.40900
O 	O 	0.63079 0.67719 0.19446 -0.42100
O 	O 	0.46634 0.54793 0.04415 -0.40800
O 	O 	0.53483 0.56079 0.09462 -0.57300
O 	O 	0.45954 0.83042 0.41038 -0.40700
O 	O 	0.51727 0.82281 0.45360 -0.42200
O 	O 	0.03366 0.07781 0.08159 -0.39900
O 	O 	0.96517 0.05979 0.02596 -0.57000
O 	O 	0.04046 0.45084 0.37088 -0.40700
O 	O 	0.98273 0.43633 0.30554 -0.40500
O 	O 	0.58159 0.03366 0.57781 -0.39500
O 	O 	0.52596 0.96517 0.55979 -0.55800
O 	O 	0.87088 0.04046 0.95084 -0.39000
O 	O 	0.80554 0.98273 0.93633 -0.39600
O 	O 	0.54415 0.46634 0.04793 -0.40400
O 	O 	0.59462 0.53483 0.06079 -0.57800
O 	O 	0.91038 0.45954 0.33042 -0.40400
O 	O 	0.95360 0.51727 0.32281 -0.41600
O 	O 	0.91841 0.49622 0.45207 -0.39200
O 	O 	0.97404 0.53383 0.43921 -0.56300
O 	O 	0.62912 0.57996 0.16958 -0.40600
O 	O 	0.69446 0.63079 0.17719 -0.42100
O 	O 	0.95585 0.00378 0.92219 -0.39400
O 	O 	0.90538 0.96617 0.94021 -0.55700
O 	O 	0.58962 0.92004 0.54916 -0.40300
O 	O 	0.54640 0.86921 0.56367 -0.42100
O 	O 	0.45207 0.45585 0.03366 -0.39300
O 	O 	0.43921 0.40538 0.96517 -0.53700
O 	O 	0.16958 0.08962 0.04046 -0.40800
O 	O 	0.17719 0.04640 0.98273 -0.38700
O 	O 	0.92219 0.41841 0.46634 -0.39000
O 	O 	0.94021 0.47404 0.53483 -0.56600
O 	O 	0.54916 0.12912 0.45954 -0.40800
O 	O 	0.56367 0.19446 0.51727 -0.42200
O 	O 	0.57781 0.04415 0.49622 -0.40100
O 	O 	0.55979 0.09462 0.53383 -0.57200
O 	O 	0.95084 0.41038 0.57996 -0.40100
O 	O 	0.93633 0.45360 0.63079 -0.41700
O 	O 	0.04793 0.08159 0.00378 -0.44400
O 	O 	0.06079 0.02596 0.96617 -0.58300
O 	O 	0.33042 0.37088 0.92004 -0.40000
O 	O 	0.32281 0.30554 0.86921 -0.42100
O 	O 	0.99622 0.57781 0.54415 -0.37400
O 	O 	0.03383 0.55979 0.59462 -0.56800
O 	O 	0.07996 0.95084 0.91038 -0.39800
O 	O 	0.13079 0.93633 0.95360 -0.40400
O 	O 	0.50378 0.04793 0.58159 -0.39900
O 	O 	0.46617 0.06079 0.52596 -0.57500
O 	O 	0.42004 0.33042 0.87088 -0.40500
O 	O 	0.36921 0.32281 0.80554 -0.42200
O 	O 	0.53366 0.45207 0.95585 -0.37900
O 	O 	0.46517 0.43921 0.90538 -0.56600
O 	O 	0.54046 0.16958 0.58962 -0.40600
O 	O 	0.48273 0.17719 0.54640 -0.42200
O 	O 	0.96634 0.92219 0.91841 -0.38500
O 	O 	0.03483 0.94021 0.97404 -0.56000
O 	O 	0.95954 0.54916 0.62912 -0.40600
O 	O 	0.01727 0.56367 0.69446 -0.43700
O 	O 	0.41841 0.96634 0.42219 -0.39600
O 	O 	0.47404 0.03483 0.44021 -0.58500
O 	O 	0.12912 0.95954 0.04916 -0.41800
O 	O 	0.19446 0.01727 0.06367 -0.44600
O 	O 	0.45585 0.53366 0.95207 -0.38200
O 	O 	0.40538 0.46517 0.93921 -0.56100
O 	O 	0.08962 0.54046 0.66958 -0.40900
O 	O 	0.04640 0.48273 0.67719 -0.42700
O 	O 	0.08159 0.50378 0.54793 -0.39600
O 	O 	0.02596 0.46617 0.56079 -0.57800
O 	O 	0.37088 0.42004 0.83042 -0.40700
O 	O 	0.30554 0.36921 0.82281 -0.42200
O 	O 	0.04415 0.99622 0.07781 -0.38600
O 	O 	0.09462 0.03383 0.05979 -0.57500
O 	O 	0.41038 0.07996 0.45084 -0.41000
O 	O 	0.45360 0.13079 0.43633 -0.42200
