data_crystal

_cell_length_a 11.39500
_cell_length_b 18.66300
_cell_length_c 24.32900
_cell_angle_alpha 90.00000
_cell_angle_beta  90.00000
_cell_angle_gamma 90.00000

_symmetry_space_group_name_	'P 1'
_symmetry_space_group_name_H-M	'P 1'

loop_
_symmetry_equiv_pos_as_xyz
  x,y,z

loop_
_atom_site_label
_atom_site_type_symbol
_atom_site_fract_x
_atom_site_fract_y
_atom_site_fract_z
_atom_site_charge
Co	Co	0.46544 0.69993 0.48074 1.15400
Co	Co	0.46544 0.30007 0.51926 1.15300
Co	Co	0.53456 0.80007 0.98074 1.15700
Co	Co	0.53456 0.19993 0.01926 1.15000
Co	Co	0.46064 0.50000 0.50000 1.16800
Co	Co	0.53936 0.00000 -0.00000 1.15700
H 	H 	0.42370 0.52490 0.35550 0.03300
H 	H 	0.63350 0.59470 0.31920 0.19100
H 	H 	0.63480 0.53360 0.36440 0.18300
H 	H 	0.59510 0.51580 0.30350 0.18100
H 	H 	0.09320 0.60900 0.24300 0.03400
H 	H 	0.12980 0.78090 0.14510 0.04600
H 	H 	0.39210 0.72480 0.24800 0.04400
H 	H 	0.76420 0.53550 0.22490 0.17600
H 	H 	0.67920 0.53970 0.17340 0.17900
H 	H 	0.81550 0.52770 0.16470 0.18300
H 	H 	0.76410 0.64730 0.14570 0.02100
H 	H 	0.69240 0.80670 0.15660 0.19500
H 	H 	0.71800 0.89010 0.15590 0.19100
H 	H 	0.67030 0.85320 0.21010 0.19700
H 	H 	0.51480 0.91310 0.16780 0.03000
H 	H 	0.87480 0.75880 0.55040 0.09300
H 	H 	0.67350 0.75420 0.54850 0.00300
H 	H 	0.67890 0.65380 0.40820 -0.00100
H 	H 	0.88040 0.65840 0.40410 0.08000
H 	H 	0.05600 0.73200 0.39910 0.08000
H 	H 	0.26010 0.73070 0.40240 0.00800
H 	H 	0.25130 0.67260 0.55560 -0.00800
H 	H 	0.05250 0.68100 0.55910 0.08700
H 	H 	0.50220 0.83220 0.41300 -0.00900
H 	H 	0.49360 0.95470 0.41750 0.08900
H 	H 	0.40720 0.93720 0.57530 0.08500
H 	H 	0.41870 0.81400 0.56680 0.00100
H 	H 	0.25330 0.51700 0.42030 0.01500
H 	H 	0.05240 0.51640 0.41870 0.07900
H 	H 	0.87150 0.44070 0.43020 0.07700
H 	H 	0.67050 0.44190 0.43310 0.01700
H 	H 	0.45330 0.62260 0.27420 0.14800
H 	H 	0.91770 0.64020 0.23390 0.13400
H 	H 	0.49390 0.77180 0.18540 0.15300
H 	H 	0.42370 0.47510 0.64450 0.03200
H 	H 	0.63350 0.40530 0.68080 0.18900
H 	H 	0.63480 0.46640 0.63560 0.18200
H 	H 	0.59510 0.48420 0.69650 0.18100
H 	H 	0.09320 0.39100 0.75700 0.03400
H 	H 	0.12980 0.21910 0.85490 0.04500
H 	H 	0.39210 0.27520 0.75200 0.04300
H 	H 	0.76420 0.46450 0.77510 0.17700
H 	H 	0.67920 0.46030 0.82660 0.18100
H 	H 	0.81550 0.47230 0.83530 0.18500
H 	H 	0.76410 0.35270 0.85430 0.02100
H 	H 	0.69240 0.19330 0.84340 0.19100
H 	H 	0.71800 0.10990 0.84410 0.17900
H 	H 	0.67030 0.14680 0.78990 0.18800
H 	H 	0.51480 0.08690 0.83220 0.02100
H 	H 	0.87480 0.24120 0.44960 0.09200
H 	H 	0.67350 0.24580 0.45150 0.00200
H 	H 	0.67890 0.34620 0.59180 -0.00100
H 	H 	0.88040 0.34160 0.59590 0.07900
H 	H 	0.05600 0.26800 0.60090 0.07800
H 	H 	0.26010 0.26930 0.59760 0.00700
H 	H 	0.25130 0.32740 0.44440 -0.00800
H 	H 	0.05250 0.31900 0.44090 0.08700
H 	H 	0.50220 0.16780 0.58700 -0.00300
H 	H 	0.49360 0.04530 0.58250 0.05900
H 	H 	0.40720 0.06280 0.42470 0.06100
H 	H 	0.41870 0.18600 0.43320 0.00900
H 	H 	0.25330 0.48300 0.57970 0.01500
H 	H 	0.05240 0.48360 0.58130 0.07900
H 	H 	0.87150 0.55930 0.56980 0.07700
H 	H 	0.67050 0.55810 0.56690 0.01700
H 	H 	0.45330 0.37740 0.72580 0.14800
H 	H 	0.91770 0.35980 0.76610 0.13400
H 	H 	0.49390 0.22820 0.81460 0.15200
H 	H 	0.57630 0.97510 0.85550 0.03600
H 	H 	0.36650 0.90530 0.81920 0.19400
H 	H 	0.36520 0.96640 0.86440 0.19100
H 	H 	0.40490 0.98420 0.80350 0.18900
H 	H 	0.90680 0.89100 0.74300 0.03600
H 	H 	0.87020 0.71910 0.64510 0.04500
H 	H 	0.60790 0.77520 0.74800 0.04400
H 	H 	0.23580 0.96450 0.72490 0.18400
H 	H 	0.32080 0.96030 0.67340 0.18700
H 	H 	0.18450 0.97230 0.66470 0.19100
H 	H 	0.23590 0.85270 0.64570 0.02000
H 	H 	0.30760 0.69330 0.65660 0.19300
H 	H 	0.28200 0.60990 0.65590 0.18400
H 	H 	0.32970 0.64680 0.71010 0.19200
H 	H 	0.48520 0.58690 0.66780 0.02500
H 	H 	0.12520 0.74120 0.05040 0.09500
H 	H 	0.32650 0.74580 0.04850 0.00300
H 	H 	0.32110 0.84620 0.90820 -0.00100
H 	H 	0.11960 0.84160 0.90410 0.08200
H 	H 	0.94400 0.76800 0.89910 0.08000
H 	H 	0.73990 0.76930 0.90240 0.00700
H 	H 	0.74870 0.82740 0.05560 -0.00500
H 	H 	0.94750 0.81900 0.05910 0.09100
H 	H 	0.49780 0.66780 0.91300 -0.01100
H 	H 	0.50640 0.54530 0.91750 0.08500
H 	H 	0.59280 0.56280 0.07530 0.08500
H 	H 	0.58130 0.68600 0.06680 0.00200
H 	H 	0.74670 0.98300 0.92030 0.01400
H 	H 	0.94760 0.98360 0.91870 0.07500
H 	H 	0.12850 0.05930 0.93020 0.06900
H 	H 	0.32950 0.05810 0.93310 0.01600
H 	H 	0.54670 0.87740 0.77420 0.14900
H 	H 	0.08230 0.85980 0.73390 0.13500
H 	H 	0.50610 0.72820 0.68540 0.15300
H 	H 	0.57630 0.02490 0.14450 0.02800
H 	H 	0.36650 0.09470 0.18080 0.18600
H 	H 	0.36520 0.03360 0.13560 0.17300
H 	H 	0.40490 0.01580 0.19650 0.17300
H 	H 	0.90680 0.10900 0.25700 0.03200
H 	H 	0.87020 0.28090 0.35490 0.04500
H 	H 	0.60790 0.22480 0.25200 0.04300
H 	H 	0.23580 0.03550 0.27510 0.17000
H 	H 	0.32080 0.03970 0.32660 0.17300
H 	H 	0.18450 0.02770 0.33530 0.17600
H 	H 	0.23590 0.14730 0.35430 0.02200
H 	H 	0.30760 0.30670 0.34340 0.19300
H 	H 	0.28200 0.39010 0.34410 0.18400
H 	H 	0.32970 0.35320 0.28990 0.19200
H 	H 	0.48520 0.41310 0.33220 0.02500
H 	H 	0.12520 0.25880 0.94960 0.09000
H 	H 	0.32650 0.25420 0.95150 0.00200
H 	H 	0.32110 0.15380 0.09180 0.00000
H 	H 	0.11960 0.15840 0.09590 0.07700
H 	H 	0.94400 0.23200 0.10090 0.07700
H 	H 	0.73990 0.23070 0.09760 0.00800
H 	H 	0.74870 0.17260 0.94440 -0.01000
H 	H 	0.94750 0.18100 0.94090 0.08300
H 	H 	0.49780 0.33220 0.08700 -0.00100
H 	H 	0.50640 0.45470 0.08250 0.06300
H 	H 	0.59280 0.43720 0.92470 0.06100
H 	H 	0.58130 0.31400 0.93320 0.00800
H 	H 	0.74670 0.01700 0.07970 0.01400
H 	H 	0.94760 0.01640 0.08130 0.07400
H 	H 	0.12850 0.94070 0.06980 0.07400
H 	H 	0.32950 0.94190 0.06690 0.01700
H 	H 	0.54670 0.12260 0.22580 0.14700
H 	H 	0.08230 0.14020 0.26610 0.13300
H 	H 	0.50610 0.27180 0.31460 0.15200
C 	C 	0.46360 0.61750 0.39770 0.29100
C 	C 	0.46630 0.56990 0.34740 0.06600
C 	C 	0.59430 0.55180 0.33220 -0.50200
C 	C 	0.29260 0.61280 0.29780 0.22000
C 	C 	0.24850 0.66000 0.25240 -0.05900
C 	C 	0.13790 0.64840 0.23090 0.00000
C 	C 	0.09320 0.69380 0.19210 -0.06800
C 	C 	0.16040 0.75030 0.17220 0.00100
C 	C 	0.27450 0.76170 0.19280 -0.06300
C 	C 	0.31690 0.71700 0.23330 -0.00500
C 	C 	0.97240 0.68250 0.16700 0.23900
C 	C 	0.75680 0.55140 0.18710 -0.51200
C 	C 	0.77510 0.63210 0.18440 0.10000
C 	C 	0.68440 0.67200 0.21960 0.21900
C 	C 	0.34610 0.82060 0.16910 0.22900
C 	C 	0.66690 0.85300 0.17030 -0.51800
C 	C 	0.54090 0.86710 0.15160 0.07200
C 	C 	0.53630 0.87390 0.09010 0.33300
C 	C 	0.83640 0.73670 0.52080 -0.13900
C 	C 	0.71540 0.73370 0.51920 0.08600
C 	C 	0.71930 0.67580 0.43730 0.08000
C 	C 	0.84020 0.67710 0.43460 -0.13400
C 	C 	0.90030 0.70710 0.47850 0.06400
C 	C 	0.02990 0.70700 0.47840 0.06000
C 	C 	0.09420 0.72090 0.43230 -0.12500
C 	C 	0.21760 0.71870 0.43420 0.07800
C 	C 	0.21150 0.68620 0.52340 0.08900
C 	C 	0.09210 0.68990 0.52590 -0.13100
C 	C 	0.48220 0.85360 0.44670 0.09300
C 	C 	0.47820 0.92730 0.44910 -0.15700
C 	C 	0.45150 0.96040 0.49760 0.09900
C 	C 	0.42780 0.91690 0.54130 -0.15200
C 	C 	0.43380 0.84270 0.53580 0.09400
C 	C 	0.21180 0.50980 0.45320 0.07000
C 	C 	0.09170 0.50980 0.45230 -0.12400
C 	C 	0.83260 0.46480 0.45880 -0.11400
C 	C 	0.71220 0.46610 0.46070 0.05600
C 	C 	0.46360 0.38250 0.60230 0.29100
C 	C 	0.46630 0.43010 0.65260 0.06500
C 	C 	0.59430 0.44820 0.66780 -0.50100
C 	C 	0.29260 0.38720 0.70220 0.22000
C 	C 	0.24850 0.34000 0.74760 -0.06000
C 	C 	0.13790 0.35160 0.76910 0.00100
C 	C 	0.09320 0.30620 0.80790 -0.06900
C 	C 	0.16040 0.24970 0.82780 0.00100
C 	C 	0.27450 0.23830 0.80720 -0.06600
C 	C 	0.31690 0.28300 0.76670 -0.00500
C 	C 	0.97240 0.31750 0.83300 0.23800
C 	C 	0.75680 0.44860 0.81290 -0.51500
C 	C 	0.77510 0.36790 0.81560 0.10100
C 	C 	0.68440 0.32800 0.78040 0.21900
C 	C 	0.34610 0.17940 0.83090 0.22900
C 	C 	0.66690 0.14700 0.82970 -0.50600
C 	C 	0.54090 0.13290 0.84840 0.06800
C 	C 	0.53630 0.12610 0.90990 0.33300
C 	C 	0.83640 0.26330 0.47920 -0.14000
C 	C 	0.71540 0.26630 0.48080 0.08400
C 	C 	0.71930 0.32420 0.56270 0.07900
C 	C 	0.84020 0.32290 0.56540 -0.13400
C 	C 	0.90030 0.29290 0.52150 0.06300
C 	C 	0.02990 0.29300 0.52160 0.05900
C 	C 	0.09420 0.27910 0.56770 -0.12600
C 	C 	0.21760 0.28130 0.56580 0.07700
C 	C 	0.21150 0.31380 0.47660 0.08900
C 	C 	0.09210 0.31010 0.47410 -0.13100
C 	C 	0.48220 0.14640 0.55330 0.06500
C 	C 	0.47820 0.07270 0.55090 -0.11200
C 	C 	0.45150 0.03960 0.50240 0.01700
C 	C 	0.42780 0.08310 0.45870 -0.10700
C 	C 	0.43380 0.15730 0.46420 0.06700
C 	C 	0.21180 0.49020 0.54680 0.07000
C 	C 	0.09170 0.49020 0.54770 -0.12400
C 	C 	0.83260 0.53520 0.54120 -0.11400
C 	C 	0.71220 0.53390 0.53930 0.05600
C 	C 	0.53640 0.88250 0.89770 0.28800
C 	C 	0.53370 0.93010 0.84740 0.07000
C 	C 	0.40570 0.94820 0.83220 -0.51300
C 	C 	0.70740 0.88720 0.79780 0.22100
C 	C 	0.75150 0.84000 0.75240 -0.05900
C 	C 	0.86210 0.85160 0.73090 0.00000
C 	C 	0.90680 0.80620 0.69210 -0.06800
C 	C 	0.83960 0.74970 0.67220 0.00100
C 	C 	0.72550 0.73830 0.69280 -0.06400
C 	C 	0.68310 0.78300 0.73330 -0.00500
C 	C 	0.02760 0.81750 0.66700 0.23900
C 	C 	0.24320 0.94860 0.68710 -0.52700
C 	C 	0.22490 0.86790 0.68440 0.10600
C 	C 	0.31560 0.82800 0.71960 0.21700
C 	C 	0.65390 0.67940 0.66910 0.22900
C 	C 	0.33310 0.64700 0.67030 -0.51100
C 	C 	0.45910 0.63290 0.65160 0.07000
C 	C 	0.46370 0.62610 0.59010 0.33400
C 	C 	0.16360 0.76330 0.02080 -0.15200
C 	C 	0.28460 0.76630 0.01920 0.07900
C 	C 	0.28070 0.82420 0.93730 0.08500
C 	C 	0.15980 0.82290 0.93460 -0.13700
C 	C 	0.09970 0.79290 0.97850 0.07600
C 	C 	0.97010 0.79300 0.97840 0.07000
C 	C 	0.90580 0.77910 0.93230 -0.12800
C 	C 	0.78240 0.78130 0.93420 0.08100
C 	C 	0.78850 0.81380 0.02340 0.08300
C 	C 	0.90790 0.81010 0.02590 -0.14100
C 	C 	0.51780 0.64640 0.94670 0.09600
C 	C 	0.52180 0.57270 0.94910 -0.16200
C 	C 	0.54850 0.53960 0.99760 0.10800
C 	C 	0.57220 0.58310 0.04130 -0.16700
C 	C 	0.56620 0.65730 0.03580 0.08600
C 	C 	0.78820 0.99020 0.95320 0.08900
C 	C 	0.90830 0.99020 0.95230 -0.09000
C 	C 	0.16740 0.03520 0.95880 -0.09500
C 	C 	0.28780 0.03390 0.96070 0.05800
C 	C 	0.53640 0.11750 0.10230 0.29200
C 	C 	0.53370 0.06990 0.15260 0.06200
C 	C 	0.40570 0.05180 0.16780 -0.49100
C 	C 	0.70740 0.11280 0.20220 0.21900
C 	C 	0.75150 0.16000 0.24760 -0.06100
C 	C 	0.86210 0.14840 0.26910 0.00100
C 	C 	0.90680 0.19380 0.30790 -0.06900
C 	C 	0.83960 0.25030 0.32780 0.00100
C 	C 	0.72550 0.26170 0.30720 -0.06500
C 	C 	0.68310 0.21700 0.26670 -0.00500
C 	C 	0.02760 0.18250 0.33300 0.23800
C 	C 	0.24320 0.05140 0.31290 -0.50000
C 	C 	0.22490 0.13210 0.31560 0.09500
C 	C 	0.31560 0.17200 0.28040 0.22000
C 	C 	0.65390 0.32060 0.33090 0.22900
C 	C 	0.33310 0.35300 0.32970 -0.51000
C 	C 	0.45910 0.36710 0.34840 0.06900
C 	C 	0.46370 0.37390 0.40990 0.33400
C 	C 	0.16360 0.23670 0.97920 -0.12500
C 	C 	0.28460 0.23370 0.98080 0.09300
C 	C 	0.28070 0.17580 0.06270 0.07400
C 	C 	0.15980 0.17710 0.06540 -0.13000
C 	C 	0.09970 0.20710 0.02150 0.05100
C 	C 	0.97010 0.20700 0.02160 0.04900
C 	C 	0.90580 0.22090 0.06770 -0.12200
C 	C 	0.78240 0.21870 0.06580 0.07400
C 	C 	0.78850 0.18620 0.97660 0.09800
C 	C 	0.90790 0.18990 0.97410 -0.11800
C 	C 	0.51780 0.35360 0.05330 0.06200
C 	C 	0.52180 0.42730 0.05090 -0.10700
C 	C 	0.54850 0.46040 0.00240 0.00700
C 	C 	0.57220 0.41690 0.95870 -0.09200
C 	C 	0.56620 0.34270 0.96420 0.07700
C 	C 	0.78820 0.00980 0.04680 0.05900
C 	C 	0.90830 0.00980 0.04770 -0.11700
C 	C 	0.16740 0.96480 0.04120 -0.08800
C 	C 	0.28780 0.96610 0.03930 0.06600
C 	C 	0.02710 0.50000 0.50000 0.05600
C 	C 	0.89700 0.50000 0.50000 0.04200
C 	C 	0.97290 0.00000 -0.00000 0.02800
C 	C 	0.10300 0.00000 -0.00000 0.01100
N 	N 	0.41000 0.60560 0.30070 -0.22500
N 	N 	0.89530 0.65060 0.20060 -0.23400
N 	N 	0.46470 0.81100 0.17180 -0.22900
N 	N 	0.65440 0.70360 0.47850 -0.23200
N 	N 	0.27640 0.70030 0.47920 -0.23400
N 	N 	0.45970 0.81110 0.48900 -0.25000
N 	N 	0.41000 0.39440 0.69930 -0.22500
N 	N 	0.89530 0.34940 0.79940 -0.23400
N 	N 	0.46470 0.18900 0.82820 -0.22900
N 	N 	0.65440 0.29640 0.52150 -0.23200
N 	N 	0.27640 0.29970 0.52080 -0.23400
N 	N 	0.45970 0.18890 0.51100 -0.24100
N 	N 	0.59000 0.89440 0.80070 -0.22500
N 	N 	0.10470 0.84940 0.70060 -0.23500
N 	N 	0.53530 0.68900 0.67180 -0.22900
N 	N 	0.34560 0.79640 0.97850 -0.22700
N 	N 	0.72360 0.79970 0.97920 -0.22800
N 	N 	0.54030 0.68890 0.98900 -0.24500
N 	N 	0.59000 0.10560 0.19930 -0.22500
N 	N 	0.10470 0.15060 0.29940 -0.23400
N 	N 	0.53530 0.31100 0.32820 -0.22900
N 	N 	0.34560 0.20360 0.02150 -0.23800
N 	N 	0.72360 0.20030 0.02080 -0.24000
N 	N 	0.54030 0.31110 0.01100 -0.24700
N 	N 	0.27170 0.50000 0.50000 -0.22400
N 	N 	0.65080 0.50000 0.50000 -0.22300
N 	N 	0.72830 0.00000 -0.00000 -0.24000
N 	N 	0.34920 0.00000 -0.00000 -0.24000
O 	O 	0.46510 0.59075 0.44555 -0.50000
O 	O 	0.46280 0.68525 0.39270 -0.36900
O 	O 	0.22600 0.58540 0.33250 -0.23500
O 	O 	0.71910 0.70690 0.26050 -0.23200
O 	O 	0.57810 0.66470 0.20480 -0.24600
O 	O 	0.94860 0.70170 0.12150 -0.25100
O 	O 	0.52680 0.81713 0.06262 -0.43400
O 	O 	0.54640 0.93568 0.06976 -0.42200
O 	O 	0.30330 0.87370 0.14800 -0.24500
O 	O 	0.46510 0.40925 0.55445 -0.50000
O 	O 	0.46280 0.31475 0.60730 -0.37100
O 	O 	0.22600 0.41460 0.66750 -0.23600
O 	O 	0.71910 0.29310 0.73950 -0.23500
O 	O 	0.57810 0.33530 0.79520 -0.24600
O 	O 	0.94860 0.29830 0.87850 -0.24900
O 	O 	0.52680 0.18287 0.93738 -0.42600
O 	O 	0.54640 0.06432 0.93024 -0.43200
O 	O 	0.30330 0.12630 0.85200 -0.25300
O 	O 	0.53490 0.90925 0.94555 -0.48900
O 	O 	0.53720 0.81475 0.89270 -0.36900
O 	O 	0.77400 0.91460 0.83250 -0.23300
O 	O 	0.28090 0.79310 0.76050 -0.23300
O 	O 	0.42190 0.83530 0.70480 -0.24500
O 	O 	0.05140 0.79830 0.62150 -0.24900
O 	O 	0.47320 0.68287 0.56262 -0.43100
O 	O 	0.45360 0.56432 0.56976 -0.43200
O 	O 	0.69670 0.62630 0.64800 -0.24900
O 	O 	0.53490 0.09075 0.05445 -0.50400
O 	O 	0.53720 0.18525 0.10730 -0.37100
O 	O 	0.77400 0.08540 0.16750 -0.23800
O 	O 	0.28090 0.20690 0.23950 -0.23400
O 	O 	0.42190 0.16470 0.29520 -0.24800
O 	O 	0.05140 0.20170 0.37850 -0.25100
O 	O 	0.47320 0.31713 0.43738 -0.43100
O 	O 	0.45360 0.43568 0.43024 -0.43200
O 	O 	0.69670 0.37370 0.35200 -0.24900
