data_crystal

_cell_length_a 12.25270
_cell_length_b 24.71840
_cell_length_c 31.25150
_cell_angle_alpha 90.00000
_cell_angle_beta  90.00000
_cell_angle_gamma 97.02300

_symmetry_space_group_name_	'P 1'
_symmetry_space_group_name_H-M	'P 1'

loop_
_symmetry_equiv_pos_as_xyz
  x,y,z

loop_
_atom_site_label
_atom_site_type_symbol
_atom_site_fract_x
_atom_site_fract_y
_atom_site_fract_z
_atom_site_charge
Zn	Zn	0.58961 0.20653 0.25907 1.21000
Zn	Zn	0.38790 0.25377 0.27089 1.21200
Zn	Zn	0.70140 0.43385 0.63883 1.21200
Zn	Zn	0.29696 0.08104 0.87616 1.20400
Zn	Zn	0.91039 0.29347 0.75907 1.21000
Zn	Zn	0.11210 0.24623 0.77089 1.21200
Zn	Zn	0.79860 0.06615 0.13883 1.21200
Zn	Zn	0.20304 0.41896 0.37616 1.20400
Zn	Zn	0.41039 0.79347 0.74093 1.21000
Zn	Zn	0.61210 0.74623 0.72911 1.21200
Zn	Zn	0.29860 0.56615 0.36117 1.21200
Zn	Zn	0.70304 0.91896 0.12384 1.20400
Zn	Zn	0.08961 0.70653 0.24093 1.21000
Zn	Zn	0.88790 0.75377 0.22911 1.21200
Zn	Zn	0.20140 0.93385 0.86117 1.21100
Zn	Zn	0.79696 0.58104 0.62384 1.20300
H 	H 	0.65330 0.11050 0.20930 0.03600
H 	H 	0.70490 0.16250 0.18220 0.04200
H 	H 	0.81840 0.23770 0.21760 0.03900
H 	H 	0.84160 0.23500 0.26790 0.03900
H 	H 	0.76340 0.15530 0.30950 0.04000
H 	H 	0.68990 0.10580 0.28630 0.03900
H 	H 	0.98110 0.13740 0.18790 0.02900
H 	H 	0.90200 0.17890 0.16960 0.03700
H 	H 	0.77340 0.04740 0.23860 0.03100
H 	H 	0.90300 0.05760 0.22980 0.04200
H 	H 	0.95750 0.17210 0.29540 0.04100
H 	H 	0.01360 0.13290 0.26360 0.03700
H 	H 	0.27340 0.30930 0.34340 0.03600
H 	H 	0.33760 0.35540 0.31360 0.04200
H 	H 	0.30970 0.35250 0.23600 0.04500
H 	H 	0.22920 0.30370 0.21500 0.04300
H 	H 	0.13200 0.23250 0.26110 0.03500
H 	H 	0.14910 0.23560 0.31190 0.03400
H 	H 	0.10630 0.41840 0.28330 0.04100
H 	H 	0.23640 0.42090 0.27670 0.03300
H 	H 	0.07510 0.30470 0.35260 0.03500
H 	H 	0.00870 0.34810 0.32910 0.03400
H 	H 	0.03450 0.29850 0.22530 0.04400
H 	H 	0.98450 0.34450 0.25260 0.04000
H 	H 	0.54170 0.42210 0.23190 0.05600
H 	H 	0.56260 0.52110 0.21160 0.06200
H 	H 	0.66990 0.60490 0.20890 0.03800
H 	H 	0.93460 0.53770 0.25240 0.05800
H 	H 	0.91510 0.43880 0.27050 0.06300
H 	H 	0.80730 0.35550 0.27570 0.03800
H 	H 	0.26300 0.23380 0.14120 0.03900
H 	H 	0.21410 0.21210 0.07140 0.06400
H 	H 	0.26310 0.17780 0.99930 0.06200
H 	H 	0.56840 0.13530 0.97920 0.04500
H 	H 	0.61850 0.15890 0.04880 0.06900
H 	H 	0.57090 0.19440 0.12020 0.06800
H 	H 	0.44060 0.29800 0.40000 0.06200
H 	H 	0.41400 0.35350 0.46500 0.06900
H 	H 	0.47290 0.38380 0.53220 0.04300
H 	H 	0.71460 0.28580 0.53070 0.06000
H 	H 	0.74330 0.23090 0.46480 0.06400
H 	H 	0.69310 0.20580 0.39580 0.03900
H 	H 	0.41570 0.44970 0.65260 0.04300
H 	H 	0.22600 0.39930 0.65350 0.06300
H 	H 	0.03750 0.40080 0.65120 0.04400
H 	H 	0.07990 0.56410 0.62930 0.05400
H 	H 	0.27030 0.61300 0.62320 0.06800
H 	H 	0.45840 0.61250 0.62880 0.03900
H 	H 	0.84670 0.38950 0.70930 0.03600
H 	H 	0.79510 0.33750 0.68220 0.04200
H 	H 	0.68160 0.26230 0.71760 0.03900
H 	H 	0.65840 0.26500 0.76790 0.03900
H 	H 	0.73660 0.34470 0.80950 0.04000
H 	H 	0.81010 0.39420 0.78630 0.03900
H 	H 	0.51890 0.36260 0.68790 0.02900
H 	H 	0.59800 0.32110 0.66960 0.03700
H 	H 	0.72660 0.45260 0.73860 0.03100
H 	H 	0.59700 0.44240 0.72980 0.04200
H 	H 	0.54250 0.32790 0.79540 0.04100
H 	H 	0.48640 0.36710 0.76360 0.03800
H 	H 	0.22660 0.19070 0.84340 0.03600
H 	H 	0.16240 0.14460 0.81360 0.04200
H 	H 	0.19030 0.14750 0.73600 0.04500
H 	H 	0.27080 0.19630 0.71500 0.04300
H 	H 	0.36800 0.26750 0.76110 0.03500
H 	H 	0.35090 0.26440 0.81190 0.03400
H 	H 	0.39370 0.08160 0.78330 0.04200
H 	H 	0.26360 0.07910 0.77670 0.03300
H 	H 	0.42490 0.19530 0.85260 0.03500
H 	H 	0.49130 0.15190 0.82910 0.03400
H 	H 	0.46550 0.20150 0.72530 0.04300
H 	H 	0.51550 0.15550 0.75260 0.03900
H 	H 	0.95830 0.07790 0.73190 0.05600
H 	H 	0.93740 0.97890 0.71160 0.06200
H 	H 	0.83010 0.89510 0.70890 0.03800
H 	H 	0.56540 0.96230 0.75240 0.05700
H 	H 	0.58490 0.06120 0.77050 0.06300
H 	H 	0.69270 0.14450 0.77570 0.03800
H 	H 	0.23700 0.26620 0.64120 0.03900
H 	H 	0.28590 0.28790 0.57140 0.06400
H 	H 	0.23690 0.32220 0.49930 0.06200
H 	H 	0.93160 0.36470 0.47920 0.04500
H 	H 	0.88150 0.34110 0.54880 0.06900
H 	H 	0.92910 0.30560 0.62020 0.06700
H 	H 	0.05940 0.20200 0.90000 0.06400
H 	H 	0.08600 0.14650 0.96500 0.06900
H 	H 	0.02710 0.11620 0.03220 0.04300
H 	H 	0.78540 0.21420 0.03070 0.06000
H 	H 	0.75670 0.26910 0.96480 0.06400
H 	H 	0.80690 0.29420 0.89580 0.04000
H 	H 	0.08430 0.05030 0.15260 0.04300
H 	H 	0.27400 0.10070 0.15350 0.06300
H 	H 	0.46250 0.09920 0.15120 0.04300
H 	H 	0.42010 0.93590 0.12930 0.05400
H 	H 	0.22970 0.88700 0.12320 0.06800
H 	H 	0.04160 0.88750 0.12880 0.03900
H 	H 	0.34670 0.88950 0.79070 0.03600
H 	H 	0.29510 0.83750 0.81780 0.04200
H 	H 	0.18160 0.76230 0.78240 0.03900
H 	H 	0.15840 0.76500 0.73210 0.03900
H 	H 	0.23660 0.84470 0.69050 0.04000
H 	H 	0.31010 0.89420 0.71370 0.03900
H 	H 	0.01890 0.86260 0.81210 0.02900
H 	H 	0.09800 0.82110 0.83040 0.03700
H 	H 	0.22660 0.95260 0.76140 0.03100
H 	H 	0.09700 0.94240 0.77020 0.04200
H 	H 	0.04250 0.82790 0.70460 0.04100
H 	H 	0.98640 0.86710 0.73640 0.03700
H 	H 	0.72660 0.69070 0.65660 0.03600
H 	H 	0.66240 0.64460 0.68640 0.04200
H 	H 	0.69030 0.64750 0.76400 0.04500
H 	H 	0.77080 0.69630 0.78500 0.04300
H 	H 	0.86800 0.76750 0.73890 0.03500
H 	H 	0.85090 0.76440 0.68810 0.03400
H 	H 	0.89370 0.58160 0.71670 0.04100
H 	H 	0.76360 0.57910 0.72330 0.03300
H 	H 	0.92490 0.69530 0.64740 0.03500
H 	H 	0.99130 0.65190 0.67090 0.03400
H 	H 	0.96550 0.70150 0.77470 0.04400
H 	H 	0.01550 0.65550 0.74740 0.04000
H 	H 	0.45830 0.57790 0.76810 0.05600
H 	H 	0.43740 0.47890 0.78840 0.06200
H 	H 	0.33010 0.39510 0.79110 0.03800
H 	H 	0.06540 0.46230 0.74760 0.05800
H 	H 	0.08490 0.56120 0.72950 0.06300
H 	H 	0.19270 0.64450 0.72430 0.03800
H 	H 	0.73700 0.76620 0.85880 0.03900
H 	H 	0.78590 0.78790 0.92860 0.06400
H 	H 	0.73690 0.82220 0.00070 0.06200
H 	H 	0.43160 0.86470 0.02080 0.04500
H 	H 	0.38150 0.84110 0.95120 0.06900
H 	H 	0.42910 0.80560 0.87980 0.06800
H 	H 	0.55940 0.70200 0.60000 0.06200
H 	H 	0.58600 0.64650 0.53500 0.06900
H 	H 	0.52710 0.61620 0.46780 0.04300
H 	H 	0.28540 0.71420 0.46930 0.06000
H 	H 	0.25670 0.76910 0.53520 0.06400
H 	H 	0.30690 0.79420 0.60420 0.03900
H 	H 	0.58430 0.55030 0.34740 0.04300
H 	H 	0.77400 0.60070 0.34650 0.06300
H 	H 	0.96250 0.59920 0.34880 0.04400
H 	H 	0.92010 0.43590 0.37070 0.05400
H 	H 	0.72970 0.38700 0.37680 0.06800
H 	H 	0.54160 0.38750 0.37120 0.03900
H 	H 	0.15330 0.61050 0.29070 0.03600
H 	H 	0.20490 0.66250 0.31780 0.04200
H 	H 	0.31840 0.73770 0.28240 0.03900
H 	H 	0.34160 0.73500 0.23210 0.03900
H 	H 	0.26340 0.65530 0.19050 0.04000
H 	H 	0.18990 0.60580 0.21370 0.03900
H 	H 	0.48110 0.63740 0.31210 0.02900
H 	H 	0.40200 0.67890 0.33040 0.03700
H 	H 	0.27340 0.54740 0.26140 0.03100
H 	H 	0.40300 0.55760 0.27020 0.04200
H 	H 	0.45750 0.67210 0.20460 0.04100
H 	H 	0.51360 0.63290 0.23640 0.03800
H 	H 	0.77340 0.80930 0.15660 0.03600
H 	H 	0.83760 0.85540 0.18640 0.04200
H 	H 	0.80970 0.85250 0.26400 0.04500
H 	H 	0.72920 0.80370 0.28500 0.04300
H 	H 	0.63200 0.73250 0.23890 0.03500
H 	H 	0.64910 0.73560 0.18810 0.03400
H 	H 	0.60630 0.91840 0.21670 0.04200
H 	H 	0.73640 0.92090 0.22330 0.03300
H 	H 	0.57510 0.80470 0.14740 0.03500
H 	H 	0.50870 0.84810 0.17090 0.03400
H 	H 	0.53450 0.79850 0.27470 0.04300
H 	H 	0.48450 0.84450 0.24740 0.03900
H 	H 	0.04170 0.92210 0.26810 0.05600
H 	H 	0.06260 0.02110 0.28840 0.06200
H 	H 	0.16990 0.10490 0.29110 0.03800
H 	H 	0.43460 0.03770 0.24760 0.05700
H 	H 	0.41510 0.93880 0.22950 0.06300
H 	H 	0.30730 0.85550 0.22430 0.03800
H 	H 	0.76300 0.73380 0.35880 0.03900
H 	H 	0.71410 0.71210 0.42860 0.06400
H 	H 	0.76310 0.67780 0.50070 0.06200
H 	H 	0.06840 0.63530 0.52080 0.04500
H 	H 	0.11850 0.65890 0.45120 0.06900
H 	H 	0.07090 0.69440 0.37980 0.06700
H 	H 	0.94060 0.79800 0.10000 0.06400
H 	H 	0.91400 0.85350 0.03500 0.06900
H 	H 	0.97290 0.88380 0.96780 0.04300
H 	H 	0.21460 0.78580 0.96930 0.06000
H 	H 	0.24330 0.73090 0.03520 0.06400
H 	H 	0.19310 0.70580 0.10420 0.04000
H 	H 	0.91570 0.94970 0.84740 0.04300
H 	H 	0.72600 0.89930 0.84650 0.06300
H 	H 	0.53750 0.90080 0.84880 0.04300
H 	H 	0.57990 0.06410 0.87070 0.05400
H 	H 	0.77030 0.11300 0.87680 0.06800
H 	H 	0.95840 0.11250 0.87120 0.03900
C 	C 	0.71818 0.13835 0.20650 -0.03700
C 	C 	0.83079 0.21293 0.24148 -0.01800
C 	C 	0.75385 0.13404 0.28268 -0.02100
C 	C 	0.91384 0.15456 0.19387 -0.01700
C 	C 	0.83690 0.07592 0.23516 -0.01500
C 	C 	0.94625 0.15038 0.26879 0.00000
C 	C 	0.26778 0.33110 0.31708 -0.03700
C 	C 	0.24058 0.32785 0.24030 -0.02800
C 	C 	0.14465 0.25775 0.28567 -0.01100
C 	C 	0.16765 0.39597 0.28090 -0.01600
C 	C 	0.07136 0.32654 0.32623 -0.01400
C 	C 	0.04727 0.32294 0.25039 -0.00400
C 	C 	0.59550 0.32659 0.25769 0.36800
C 	C 	0.66313 0.38120 0.25399 -0.08000
C 	C 	0.61735 0.42578 0.23947 -0.03000
C 	C 	0.68202 0.47755 0.23567 0.02500
C 	C 	0.63720 0.52421 0.22052 -0.08400
C 	C 	0.70108 0.57375 0.21863 0.01400
C 	C 	0.81341 0.57901 0.23113 -0.08100
C 	C 	0.85909 0.53417 0.24470 -0.03100
C 	C 	0.79493 0.48228 0.24742 0.02800
C 	C 	0.83984 0.43581 0.26248 -0.08400
C 	C 	0.77591 0.38644 0.26566 0.01400
C 	C 	0.88014 0.63450 0.23022 0.37300
C 	C 	0.44996 0.22504 0.18388 0.37100
C 	C 	0.42247 0.21510 0.13745 -0.08200
C 	C 	0.31505 0.22095 0.12238 0.01400
C 	C 	0.28620 0.20815 0.08106 -0.08900
C 	C 	0.36277 0.18893 0.05230 0.03100
C 	C 	0.33466 0.17394 0.00966 -0.05200
C 	C 	0.40930 0.15391 0.98308 -0.05400
C 	C 	0.51674 0.14867 0.99784 -0.00600
C 	C 	0.54651 0.16287 0.03906 -0.07900
C 	C 	0.47069 0.18342 0.06720 0.02500
C 	C 	0.49871 0.19737 0.11018 -0.03500
C 	C 	0.37481 0.13406 0.93917 0.27800
C 	C 	0.53330 0.23706 0.34518 0.37200
C 	C 	0.56209 0.25066 0.39098 -0.08200
C 	C 	0.50270 0.28537 0.41311 -0.03300
C 	C 	0.53306 0.30240 0.45513 0.02300
C 	C 	0.47617 0.34033 0.47766 -0.08200
C 	C 	0.51073 0.35803 0.51763 -0.00200
C 	C 	0.60196 0.33830 0.53733 -0.05800
C 	C 	0.65570 0.30023 0.51676 -0.05100
C 	C 	0.62456 0.28210 0.47492 0.03000
C 	C 	0.68293 0.24517 0.45176 -0.08800
C 	C 	0.65293 0.23015 0.41094 0.01600
C 	C 	0.64544 0.36102 0.57971 0.29500
C 	C 	0.57546 0.53037 0.64564 0.38700
C 	C 	0.45392 0.53028 0.64195 -0.10400
C 	C 	0.38533 0.48254 0.64683 -0.01800
C 	C 	0.26962 0.48147 0.64342 0.01900
C 	C 	0.19712 0.43273 0.64894 -0.08000
C 	C 	0.08567 0.43362 0.64777 0.01700
C 	C 	0.04196 0.48358 0.64139 -0.09200
C 	C 	0.11031 0.53121 0.63445 -0.03600
C 	C 	0.22599 0.53127 0.63499 0.03100
C 	C 	0.29906 0.57991 0.62936 -0.09100
C 	C 	0.41035 0.57972 0.63268 0.02700
C 	C 	0.92048 0.48480 0.64359 0.37400
C 	C 	0.78182 0.36165 0.70650 -0.03600
C 	C 	0.66921 0.28707 0.74148 -0.01800
C 	C 	0.74615 0.36596 0.78268 -0.02100
C 	C 	0.58616 0.34544 0.69387 -0.01700
C 	C 	0.66310 0.42408 0.73516 -0.01500
C 	C 	0.55375 0.34962 0.76879 -0.00100
C 	C 	0.23222 0.16890 0.81708 -0.03700
C 	C 	0.25942 0.17215 0.74030 -0.02800
C 	C 	0.35535 0.24225 0.78567 -0.01100
C 	C 	0.33235 0.10403 0.78090 -0.01600
C 	C 	0.42864 0.17346 0.82623 -0.01400
C 	C 	0.45273 0.17706 0.75039 -0.00300
C 	C 	0.90450 0.17341 0.75769 0.36600
C 	C 	0.83687 0.11880 0.75399 -0.07900
C 	C 	0.88265 0.07422 0.73947 -0.03000
C 	C 	0.81798 0.02245 0.73567 0.02500
C 	C 	0.86280 0.97579 0.72052 -0.08400
C 	C 	0.79892 0.92625 0.71863 0.01400
C 	C 	0.68659 0.92099 0.73113 -0.08100
C 	C 	0.64091 0.96583 0.74470 -0.03100
C 	C 	0.70507 0.01772 0.74742 0.02700
C 	C 	0.66016 0.06419 0.76248 -0.08300
C 	C 	0.72409 0.11356 0.76566 0.01400
C 	C 	0.61986 0.86550 0.73022 0.37300
C 	C 	0.05004 0.27496 0.68388 0.37300
C 	C 	0.07753 0.28490 0.63745 -0.08300
C 	C 	0.18495 0.27905 0.62238 0.01500
C 	C 	0.21380 0.29185 0.58106 -0.08900
C 	C 	0.13723 0.31107 0.55230 0.03100
C 	C 	0.16534 0.32606 0.50966 -0.05200
C 	C 	0.09070 0.34609 0.48308 -0.05500
C 	C 	0.98326 0.35133 0.49784 -0.00500
C 	C 	0.95349 0.33713 0.53906 -0.08000
C 	C 	0.02931 0.31658 0.56720 0.02500
C 	C 	0.00129 0.30263 0.61018 -0.03400
C 	C 	0.12519 0.36594 0.43917 0.27800
C 	C 	0.96670 0.26294 0.84518 0.37000
C 	C 	0.93791 0.24934 0.89098 -0.08100
C 	C 	0.99730 0.21463 0.91311 -0.03600
C 	C 	0.96694 0.19760 0.95513 0.02300
C 	C 	0.02383 0.15967 0.97766 -0.08200
C 	C 	0.98927 0.14197 0.01763 -0.00200
C 	C 	0.89804 0.16170 0.03733 -0.05900
C 	C 	0.84430 0.19977 0.01676 -0.05100
C 	C 	0.87544 0.21790 0.97492 0.02900
C 	C 	0.81707 0.25483 0.95176 -0.08700
C 	C 	0.84707 0.26985 0.91094 0.01500
C 	C 	0.85456 0.13898 0.07971 0.29600
C 	C 	0.92454 0.96963 0.14564 0.38800
C 	C 	0.04608 0.96972 0.14195 -0.10500
C 	C 	0.11467 0.01746 0.14683 -0.01800
C 	C 	0.23038 0.01853 0.14342 0.01800
C 	C 	0.30288 0.06727 0.14894 -0.08000
C 	C 	0.41433 0.06638 0.14777 0.01700
C 	C 	0.45804 0.01642 0.14139 -0.09300
C 	C 	0.38969 0.96879 0.13445 -0.03600
C 	C 	0.27401 0.96873 0.13499 0.03100
C 	C 	0.20094 0.92009 0.12936 -0.09200
C 	C 	0.08965 0.92028 0.13268 0.02800
C 	C 	0.57952 0.01520 0.14359 0.37500
C 	C 	0.28182 0.86165 0.79350 -0.03700
C 	C 	0.16921 0.78707 0.75852 -0.01800
C 	C 	0.24615 0.86596 0.71732 -0.02100
C 	C 	0.08616 0.84544 0.80613 -0.01700
C 	C 	0.16310 0.92408 0.76484 -0.01500
C 	C 	0.05375 0.84962 0.73121 0.00000
C 	C 	0.73222 0.66890 0.68292 -0.03700
C 	C 	0.75942 0.67215 0.75970 -0.02800
C 	C 	0.85535 0.74225 0.71433 -0.01100
C 	C 	0.83235 0.60403 0.71910 -0.01600
C 	C 	0.92864 0.67346 0.67377 -0.01400
C 	C 	0.95273 0.67706 0.74961 -0.00400
C 	C 	0.40450 0.67341 0.74231 0.36800
C 	C 	0.33687 0.61880 0.74601 -0.08000
C 	C 	0.38265 0.57422 0.76053 -0.03000
C 	C 	0.31798 0.52245 0.76433 0.02500
C 	C 	0.36280 0.47579 0.77948 -0.08400
C 	C 	0.29892 0.42625 0.78137 0.01400
C 	C 	0.18659 0.42099 0.76887 -0.08100
C 	C 	0.14091 0.46583 0.75530 -0.03100
C 	C 	0.20507 0.51772 0.75258 0.02800
C 	C 	0.16016 0.56419 0.73752 -0.08400
C 	C 	0.22409 0.61356 0.73434 0.01400
C 	C 	0.11986 0.36550 0.76978 0.37300
C 	C 	0.55004 0.77496 0.81612 0.37100
C 	C 	0.57753 0.78490 0.86255 -0.08200
C 	C 	0.68495 0.77905 0.87762 0.01400
C 	C 	0.71380 0.79185 0.91894 -0.08900
C 	C 	0.63723 0.81107 0.94770 0.03100
C 	C 	0.66534 0.82606 0.99034 -0.05200
C 	C 	0.59070 0.84609 0.01692 -0.05400
C 	C 	0.48326 0.85133 0.00216 -0.00600
C 	C 	0.45349 0.83713 0.96094 -0.07900
C 	C 	0.52931 0.81658 0.93280 0.02500
C 	C 	0.50129 0.80263 0.88982 -0.03500
C 	C 	0.62519 0.86594 0.06083 0.27800
C 	C 	0.46670 0.76294 0.65482 0.37200
C 	C 	0.43791 0.74934 0.60902 -0.08200
C 	C 	0.49730 0.71463 0.58689 -0.03300
C 	C 	0.46694 0.69760 0.54487 0.02300
C 	C 	0.52383 0.65967 0.52234 -0.08200
C 	C 	0.48927 0.64197 0.48237 -0.00200
C 	C 	0.39804 0.66170 0.46267 -0.05800
C 	C 	0.34430 0.69977 0.48324 -0.05100
C 	C 	0.37544 0.71790 0.52508 0.03000
C 	C 	0.31707 0.75483 0.54824 -0.08800
C 	C 	0.34707 0.76985 0.58906 0.01600
C 	C 	0.35456 0.63898 0.42029 0.29500
C 	C 	0.42454 0.46963 0.35436 0.38700
C 	C 	0.54608 0.46972 0.35805 -0.10400
C 	C 	0.61467 0.51746 0.35317 -0.01800
C 	C 	0.73038 0.51853 0.35658 0.01900
C 	C 	0.80288 0.56727 0.35106 -0.08000
C 	C 	0.91433 0.56638 0.35223 0.01700
C 	C 	0.95804 0.51642 0.35861 -0.09200
C 	C 	0.88969 0.46879 0.36555 -0.03600
C 	C 	0.77401 0.46873 0.36501 0.03100
C 	C 	0.70094 0.42009 0.37064 -0.09100
C 	C 	0.58965 0.42028 0.36732 0.02700
C 	C 	0.07952 0.51520 0.35641 0.37400
C 	C 	0.21818 0.63835 0.29350 -0.03600
C 	C 	0.33079 0.71293 0.25852 -0.01800
C 	C 	0.25385 0.63404 0.21732 -0.02100
C 	C 	0.41384 0.65456 0.30613 -0.01700
C 	C 	0.33690 0.57592 0.26484 -0.01500
C 	C 	0.44625 0.65038 0.23121 -0.00100
C 	C 	0.76778 0.83110 0.18292 -0.03700
C 	C 	0.74058 0.82785 0.25970 -0.02800
C 	C 	0.64465 0.75775 0.21433 -0.01100
C 	C 	0.66765 0.89597 0.21910 -0.01600
C 	C 	0.57136 0.82654 0.17377 -0.01400
C 	C 	0.54727 0.82294 0.24961 -0.00300
C 	C 	0.09550 0.82659 0.24231 0.36600
C 	C 	0.16313 0.88120 0.24601 -0.07900
C 	C 	0.11735 0.92578 0.26053 -0.03000
C 	C 	0.18202 0.97755 0.26433 0.02500
C 	C 	0.13720 0.02421 0.27948 -0.08400
C 	C 	0.20108 0.07375 0.28137 0.01400
C 	C 	0.31341 0.07901 0.26887 -0.08100
C 	C 	0.35909 0.03417 0.25530 -0.03100
C 	C 	0.29493 0.98228 0.25258 0.02700
C 	C 	0.33984 0.93581 0.23752 -0.08300
C 	C 	0.27591 0.88644 0.23434 0.01400
C 	C 	0.38014 0.13450 0.26978 0.37300
C 	C 	0.94996 0.72504 0.31612 0.37300
C 	C 	0.92247 0.71510 0.36255 -0.08300
C 	C 	0.81505 0.72095 0.37762 0.01500
C 	C 	0.78620 0.70815 0.41894 -0.08900
C 	C 	0.86277 0.68893 0.44770 0.03100
C 	C 	0.83466 0.67394 0.49034 -0.05200
C 	C 	0.90930 0.65391 0.51692 -0.05500
C 	C 	0.01674 0.64867 0.50216 -0.00500
C 	C 	0.04651 0.66287 0.46094 -0.08000
C 	C 	0.97069 0.68342 0.43280 0.02500
C 	C 	0.99871 0.69737 0.38982 -0.03400
C 	C 	0.87481 0.63406 0.56083 0.27800
C 	C 	0.03330 0.73706 0.15482 0.37000
C 	C 	0.06209 0.75066 0.10902 -0.08100
C 	C 	0.00270 0.78537 0.08689 -0.03600
C 	C 	0.03306 0.80240 0.04487 0.02300
C 	C 	0.97617 0.84033 0.02234 -0.08200
C 	C 	0.01073 0.85803 0.98237 -0.00200
C 	C 	0.10196 0.83830 0.96267 -0.05900
C 	C 	0.15570 0.80023 0.98324 -0.05100
C 	C 	0.12456 0.78210 0.02508 0.02900
C 	C 	0.18293 0.74517 0.04824 -0.08700
C 	C 	0.15293 0.73015 0.08906 0.01500
C 	C 	0.14544 0.86102 0.92029 0.29600
C 	C 	0.07546 0.03037 0.85436 0.38800
C 	C 	0.95392 0.03028 0.85805 -0.10500
C 	C 	0.88533 0.98254 0.85317 -0.01800
C 	C 	0.76962 0.98147 0.85658 0.01800
C 	C 	0.69712 0.93273 0.85106 -0.08000
C 	C 	0.58567 0.93362 0.85223 0.01700
C 	C 	0.54196 0.98358 0.85861 -0.09300
C 	C 	0.61031 0.03121 0.86555 -0.03600
C 	C 	0.72599 0.03127 0.86501 0.03100
C 	C 	0.79906 0.07991 0.87064 -0.09200
C 	C 	0.91035 0.07972 0.86732 0.02800
C 	C 	0.42048 0.98480 0.85641 0.37500
N 	N 	0.73164 0.17118 0.24657 -0.19900
N 	N 	0.81726 0.11098 0.19740 -0.19400
N 	N 	0.85231 0.10770 0.27469 -0.09500
N 	N 	0.92967 0.18687 0.23295 -0.09500
N 	N 	0.25127 0.29377 0.27953 -0.20100
N 	N 	0.17572 0.36462 0.32164 -0.18800
N 	N 	0.14936 0.36012 0.24385 -0.09300
N 	N 	0.05232 0.28976 0.28943 -0.09600
N 	N 	0.76836 0.32882 0.74657 -0.19900
N 	N 	0.68274 0.38902 0.69740 -0.19500
N 	N 	0.64769 0.39230 0.77469 -0.09500
N 	N 	0.57033 0.31313 0.73295 -0.09500
N 	N 	0.24873 0.20623 0.77953 -0.20100
N 	N 	0.32428 0.13538 0.82164 -0.18800
N 	N 	0.35064 0.13988 0.74385 -0.09300
N 	N 	0.44768 0.21024 0.78943 -0.09600
N 	N 	0.26836 0.82882 0.75343 -0.19900
N 	N 	0.18274 0.88902 0.80260 -0.19400
N 	N 	0.14769 0.89230 0.72531 -0.09500
N 	N 	0.07033 0.81313 0.76705 -0.09500
N 	N 	0.74873 0.70623 0.72047 -0.20100
N 	N 	0.82428 0.63538 0.67836 -0.18800
N 	N 	0.85064 0.63988 0.75615 -0.09300
N 	N 	0.94768 0.71024 0.71057 -0.09600
N 	N 	0.23164 0.67118 0.25343 -0.19900
N 	N 	0.31726 0.61098 0.30260 -0.19500
N 	N 	0.35231 0.60770 0.22531 -0.09500
N 	N 	0.42967 0.68687 0.26705 -0.09500
N 	N 	0.75127 0.79377 0.22047 -0.20100
N 	N 	0.67572 0.86462 0.17836 -0.18800
N 	N 	0.64936 0.86012 0.25615 -0.09300
N 	N 	0.55232 0.78976 0.21057 -0.09600
O 	O 	0.49204 0.32403 0.25622 -0.44500
O 	O 	0.64917 0.28632 0.26221 -0.46200
O 	O 	0.98040 0.63765 0.24066 -0.46200
O 	O 	0.83007 0.67381 0.21957 -0.46100
O 	O 	0.37379 0.23855 0.20722 -0.46100
O 	O 	0.54484 0.21808 0.19639 -0.45400
O 	O 	0.43999 0.11171 0.91619 -0.38900
O 	O 	0.27770 0.13756 0.92671 -0.39600
O 	O 	0.45330 0.25823 0.32983 -0.47100
O 	O 	0.59153 0.20685 0.32494 -0.44900
O 	O 	0.71850 0.34044 0.59909 -0.32200
O 	O 	0.60500 0.40329 0.59321 -0.45400
O 	O 	0.63425 0.57274 0.63348 -0.48100
O 	O 	0.61167 0.48867 0.66093 -0.50500
O 	O 	0.86095 0.44016 0.63676 -0.49200
O 	O 	0.88522 0.52865 0.65378 -0.50500
O 	O 	0.00796 0.17597 0.75622 -0.44400
O 	O 	0.85083 0.21368 0.76221 -0.46200
O 	O 	0.51960 0.86235 0.74066 -0.46200
O 	O 	0.66993 0.82619 0.71957 -0.46100
O 	O 	0.12621 0.26145 0.70722 -0.46100
O 	O 	0.95516 0.28192 0.69639 -0.45500
O 	O 	0.06001 0.38829 0.41619 -0.38900
O 	O 	0.22230 0.36244 0.42671 -0.39600
O 	O 	0.04670 0.24177 0.82983 -0.47000
O 	O 	0.90847 0.29315 0.82494 -0.44800
O 	O 	0.78150 0.15956 0.09909 -0.32200
O 	O 	0.89500 0.09671 0.09321 -0.45400
O 	O 	0.86575 0.92726 0.13348 -0.48100
O 	O 	0.88833 0.01133 0.16093 -0.50500
O 	O 	0.63905 0.05984 0.13676 -0.49200
O 	O 	0.61478 0.97135 0.15378 -0.50500
O 	O 	0.50796 0.67597 0.74378 -0.44500
O 	O 	0.35083 0.71368 0.73779 -0.46200
O 	O 	0.01960 0.36235 0.75934 -0.46200
O 	O 	0.16993 0.32619 0.78043 -0.46100
O 	O 	0.62621 0.76145 0.79278 -0.46100
O 	O 	0.45516 0.78192 0.80361 -0.45400
O 	O 	0.56001 0.88829 0.08381 -0.38900
O 	O 	0.72230 0.86244 0.07329 -0.39600
O 	O 	0.54670 0.74177 0.67017 -0.47100
O 	O 	0.40847 0.79315 0.67506 -0.44900
O 	O 	0.28150 0.65956 0.40091 -0.32200
O 	O 	0.39500 0.59671 0.40679 -0.45400
O 	O 	0.36575 0.42726 0.36652 -0.48100
O 	O 	0.38833 0.51133 0.33907 -0.50500
O 	O 	0.13905 0.55984 0.36324 -0.49200
O 	O 	0.11478 0.47135 0.34622 -0.50500
O 	O 	0.99204 0.82403 0.24378 -0.44400
O 	O 	0.14917 0.78632 0.23779 -0.46200
O 	O 	0.48040 0.13765 0.25934 -0.46200
O 	O 	0.33007 0.17381 0.28043 -0.46100
O 	O 	0.87379 0.73855 0.29278 -0.46100
O 	O 	0.04484 0.71808 0.30361 -0.45500
O 	O 	0.93999 0.61171 0.58381 -0.38900
O 	O 	0.77770 0.63756 0.57329 -0.39600
O 	O 	0.95330 0.75823 0.17017 -0.47000
O 	O 	0.09153 0.70685 0.17506 -0.44800
O 	O 	0.21850 0.84044 0.90091 -0.32200
O 	O 	0.10500 0.90329 0.90679 -0.45400
O 	O 	0.13425 0.07274 0.86652 -0.48100
O 	O 	0.11167 0.98867 0.83907 -0.50500
O 	O 	0.36095 0.94016 0.86324 -0.49200
O 	O 	0.38522 0.02865 0.84622 -0.50500
