data_crystal

_cell_length_a 16.22950
_cell_length_b 16.22950
_cell_length_c 28.03460
_cell_angle_alpha 80.12190
_cell_angle_beta  80.12190
_cell_angle_gamma 62.93240

_symmetry_space_group_name_	'P 1'
_symmetry_space_group_name_H-M	'P 1'

loop_
_symmetry_equiv_pos_as_xyz
  x,y,z

loop_
_atom_site_label
_atom_site_type_symbol
_atom_site_fract_x
_atom_site_fract_y
_atom_site_fract_z
_atom_site_charge
Tb	Tb	0.43125 0.97098 0.95556 1.77800
Tb	Tb	0.02902 0.56875 0.54444 1.78600
Tb	Tb	0.56874 0.02902 0.04444 1.77800
Tb	Tb	0.97098 0.43125 0.45556 1.78600
H 	H 	0.45920 0.87600 0.79430 0.02100
H 	H 	0.42680 0.81400 0.73630 0.07600
H 	H 	0.32940 0.66840 0.84320 0.07600
H 	H 	0.35760 0.73940 0.90020 0.02300
H 	H 	0.36620 0.71700 0.71350 0.05500
H 	H 	0.75790 0.82490 0.02650 -0.06500
H 	H 	0.91040 0.70520 0.02870 0.09000
H 	H 	0.84930 0.55330 0.95570 0.09600
H 	H 	0.70410 0.67130 0.94780 -0.00200
H 	H 	0.02800 0.55820 0.01270 0.05400
H 	H 	0.66460 0.17660 0.91450 0.00600
H 	H 	0.71750 0.24830 0.84440 0.08100
H 	H 	0.63020 0.12980 0.76030 0.08200
H 	H 	0.57630 0.06030 0.83000 0.00400
H 	H 	0.70580 0.22460 0.71990 0.05400
H 	H 	0.12400 0.54080 0.70570 0.02100
H 	H 	0.18600 0.57320 0.76370 0.07500
H 	H 	0.33160 0.67060 0.65680 0.07500
H 	H 	0.26060 0.64240 0.59980 0.02200
H 	H 	0.28300 0.63380 0.78650 0.05400
H 	H 	0.17510 0.24210 0.47350 -0.06500
H 	H 	0.29480 0.08960 0.47130 0.09100
H 	H 	0.44670 0.15070 0.54430 0.09700
H 	H 	0.32870 0.29590 0.55220 -0.00200
H 	H 	0.44180 0.97200 0.48730 0.05500
H 	H 	0.82340 0.33540 0.58550 0.00500
H 	H 	0.75170 0.28250 0.65560 0.08100
H 	H 	0.87020 0.36980 0.73970 0.08200
H 	H 	0.93970 0.42370 0.67000 0.00400
H 	H 	0.77540 0.29420 0.78010 0.05400
H 	H 	0.54080 0.12400 0.20570 0.02000
H 	H 	0.57320 0.18600 0.26370 0.07500
H 	H 	0.67060 0.33160 0.15680 0.07500
H 	H 	0.64240 0.26060 0.09980 0.02200
H 	H 	0.63380 0.28300 0.28650 0.05400
H 	H 	0.24210 0.17510 0.97350 -0.06500
H 	H 	0.08960 0.29480 0.97130 0.09000
H 	H 	0.15070 0.44670 0.04430 0.09600
H 	H 	0.29590 0.32870 0.05220 -0.00200
H 	H 	0.97200 0.44180 0.98730 0.05400
H 	H 	0.33540 0.82340 0.08550 0.00600
H 	H 	0.28250 0.75170 0.15560 0.08100
H 	H 	0.36980 0.87020 0.23970 0.08200
H 	H 	0.42370 0.93970 0.17000 0.00400
H 	H 	0.29420 0.77540 0.28010 0.05400
H 	H 	0.87600 0.45920 0.29430 0.02100
H 	H 	0.81400 0.42680 0.23630 0.07500
H 	H 	0.66840 0.32940 0.34320 0.07500
H 	H 	0.73940 0.35760 0.40020 0.02200
H 	H 	0.71700 0.36620 0.21350 0.05400
H 	H 	0.82490 0.75790 0.52650 -0.06500
H 	H 	0.70520 0.91040 0.52870 0.09100
H 	H 	0.55330 0.84930 0.45570 0.09700
H 	H 	0.67130 0.70410 0.44780 -0.00200
H 	H 	0.55820 0.02800 0.51270 0.05500
H 	H 	0.17660 0.66460 0.41450 0.00500
H 	H 	0.24830 0.71750 0.34440 0.08100
H 	H 	0.12980 0.63020 0.26030 0.08200
H 	H 	0.06030 0.57630 0.33000 0.00400
H 	H 	0.22460 0.70580 0.21990 0.05400
C 	C 	0.42130 0.85930 0.89210 0.33300
C 	C 	0.40800 0.81600 0.85370 -0.13100
C 	C 	0.43060 0.83520 0.80430 0.06300
C 	C 	0.41300 0.79720 0.76980 -0.14600
C 	C 	0.37500 0.73380 0.78330 0.09600
C 	C 	0.35470 0.71190 0.83260 -0.13900
C 	C 	0.37200 0.75460 0.86650 0.05800
C 	C 	0.34720 0.70140 0.74640 -0.08000
C 	C 	0.61964 0.83624 0.98240 0.48500
C 	C 	0.71480 0.76100 0.98570 -0.23800
C 	C 	0.77650 0.77030 0.01120 0.14600
C 	C 	0.86680 0.69740 0.01360 -0.21300
C 	C 	0.89290 0.61670 0.99510 0.14400
C 	C 	0.83090 0.60890 0.97000 -0.20700
C 	C 	0.74480 0.67880 0.96540 0.14300
C 	C 	0.98540 0.54120 0.00260 -0.09000
C 	C 	0.57901 0.06881 0.92295 0.47400
C 	C 	0.61688 0.11048 0.87820 -0.19300
C 	C 	0.65820 0.16700 0.88310 0.09300
C 	C 	0.69000 0.20900 0.84150 -0.16100
C 	C 	0.68210 0.19370 0.79540 0.11000
C 	C 	0.63800 0.13880 0.79150 -0.16700
C 	C 	0.60600 0.09760 0.83287 0.10100
C 	C 	0.71770 0.23370 0.75020 -0.08300
C 	C 	0.14070 0.57870 0.60790 0.33300
C 	C 	0.18400 0.59200 0.64630 -0.13100
C 	C 	0.16480 0.56940 0.69570 0.06300
C 	C 	0.20280 0.58700 0.73020 -0.14500
C 	C 	0.26620 0.62500 0.71670 0.09600
C 	C 	0.28810 0.64530 0.66740 -0.13900
C 	C 	0.24540 0.62800 0.63350 0.05800
C 	C 	0.29860 0.65280 0.75360 -0.08000
C 	C 	0.16376 0.38036 0.51760 0.48900
C 	C 	0.23900 0.28520 0.51430 -0.23800
C 	C 	0.22970 0.22350 0.48880 0.14500
C 	C 	0.30260 0.13320 0.48640 -0.21600
C 	C 	0.38330 0.10710 0.50490 0.14800
C 	C 	0.39110 0.16910 0.53000 -0.20900
C 	C 	0.32120 0.25520 0.53460 0.14500
C 	C 	0.45880 0.01460 0.49740 -0.09200
C 	C 	0.93119 0.42099 0.57705 0.47500
C 	C 	0.88952 0.38312 0.62180 -0.19400
C 	C 	0.83300 0.34180 0.61690 0.09400
C 	C 	0.79100 0.31000 0.65850 -0.16200
C 	C 	0.80630 0.31790 0.70460 0.11000
C 	C 	0.86120 0.36200 0.70850 -0.16800
C 	C 	0.90240 0.39400 0.66713 0.10100
C 	C 	0.76630 0.28230 0.74980 -0.08300
C 	C 	0.57870 0.14070 0.10790 0.33300
C 	C 	0.59200 0.18400 0.14630 -0.13100
C 	C 	0.56940 0.16480 0.19570 0.06300
C 	C 	0.58700 0.20280 0.23020 -0.14600
C 	C 	0.62500 0.26620 0.21670 0.09600
C 	C 	0.64530 0.28810 0.16740 -0.13900
C 	C 	0.62800 0.24540 0.13350 0.05800
C 	C 	0.65280 0.29860 0.25360 -0.08000
C 	C 	0.38036 0.16376 0.01760 0.48500
C 	C 	0.28520 0.23900 0.01430 -0.23800
C 	C 	0.22350 0.22970 0.98880 0.14600
C 	C 	0.13320 0.30260 0.98640 -0.21300
C 	C 	0.10710 0.38330 0.00490 0.14400
C 	C 	0.16910 0.39110 0.03000 -0.20700
C 	C 	0.25520 0.32120 0.03460 0.14300
C 	C 	0.01460 0.45880 0.99740 -0.09000
C 	C 	0.42099 0.93119 0.07705 0.47400
C 	C 	0.38312 0.88952 0.12180 -0.19300
C 	C 	0.34180 0.83300 0.11690 0.09300
C 	C 	0.31000 0.79100 0.15850 -0.16100
C 	C 	0.31790 0.80630 0.20460 0.11000
C 	C 	0.36200 0.86120 0.20850 -0.16700
C 	C 	0.39400 0.90240 0.16713 0.10100
C 	C 	0.28230 0.76630 0.24980 -0.08300
C 	C 	0.85930 0.42130 0.39210 0.33300
C 	C 	0.81600 0.40800 0.35370 -0.13100
C 	C 	0.83520 0.43060 0.30430 0.06300
C 	C 	0.79720 0.41300 0.26980 -0.14500
C 	C 	0.73380 0.37500 0.28330 0.09600
C 	C 	0.71190 0.35470 0.33260 -0.13900
C 	C 	0.75460 0.37200 0.36650 0.05800
C 	C 	0.70140 0.34720 0.24640 -0.08000
C 	C 	0.83624 0.61964 0.48240 0.48900
C 	C 	0.76100 0.71480 0.48570 -0.23700
C 	C 	0.77030 0.77650 0.51120 0.14500
C 	C 	0.69740 0.86680 0.51360 -0.21600
C 	C 	0.61670 0.89290 0.49510 0.14800
C 	C 	0.60890 0.83090 0.47000 -0.20900
C 	C 	0.67880 0.74480 0.46540 0.14500
C 	C 	0.54120 0.98540 0.50260 -0.09200
C 	C 	0.06881 0.57901 0.42295 0.47500
C 	C 	0.11048 0.61688 0.37820 -0.19400
C 	C 	0.16700 0.65820 0.38310 0.09400
C 	C 	0.20900 0.69000 0.34150 -0.16200
C 	C 	0.19370 0.68210 0.29540 0.11000
C 	C 	0.13880 0.63800 0.29150 -0.16800
C 	C 	0.09760 0.60600 0.33287 0.10100
C 	C 	0.23370 0.71770 0.25020 -0.08300
O 	O 	0.45913 0.91293 0.87641 -0.40700
O 	O 	0.39371 0.84911 0.93631 -0.40700
O 	O 	0.56935 0.82655 0.95758 -0.44400
O 	O 	0.59381 0.90701 0.00394 -0.57100
O 	O 	0.54126 0.01926 0.91616 -0.49600
O 	O 	0.58931 0.08431 0.96338 -0.50000
O 	O 	0.08707 0.54087 0.62359 -0.40700
O 	O 	0.15089 0.60629 0.56369 -0.40700
O 	O 	0.17345 0.43065 0.54242 -0.44500
O 	O 	0.09299 0.40619 0.49606 -0.57600
O 	O 	0.98074 0.45874 0.58384 -0.49800
O 	O 	0.91569 0.41069 0.53662 -0.50200
O 	O 	0.54087 0.08707 0.12359 -0.40700
O 	O 	0.60629 0.15089 0.06369 -0.40700
O 	O 	0.43065 0.17345 0.04242 -0.44400
O 	O 	0.40619 0.09299 0.99606 -0.57100
O 	O 	0.45874 0.98074 0.08384 -0.49600
O 	O 	0.41069 0.91569 0.03662 -0.50000
O 	O 	0.91293 0.45913 0.37641 -0.40700
O 	O 	0.84911 0.39371 0.43631 -0.40700
O 	O 	0.82655 0.56935 0.45758 -0.44500
O 	O 	0.90701 0.59381 0.50394 -0.57600
O 	O 	0.01926 0.54126 0.41616 -0.49800
O 	O 	0.08431 0.58931 0.46338 -0.50200
