data_crystal

_cell_length_a 16.57360
_cell_length_b 21.78970
_cell_length_c 35.13200
_cell_angle_alpha 90.00000
_cell_angle_beta  90.00000
_cell_angle_gamma 90.00000

_symmetry_space_group_name_	'P 1'
_symmetry_space_group_name_H-M	'P 1'

loop_
_symmetry_equiv_pos_as_xyz
  x,y,z

loop_
_atom_site_label
_atom_site_type_symbol
_atom_site_fract_x
_atom_site_fract_y
_atom_site_fract_z
_atom_site_charge
Eu	Eu	0.24283 0.57432 0.88597 1.84500
Eu	Eu	0.17561 0.39480 0.87925 1.84900
Eu	Eu	0.25717 0.42568 0.38597 1.84700
Eu	Eu	0.32439 0.60520 0.37925 1.85000
H 	H 	0.27460 0.57070 0.75710 0.00200
H 	H 	0.28600 0.56750 0.69050 0.08200
H 	H 	0.25600 0.38230 0.69440 0.08200
H 	H 	0.24220 0.38900 0.76090 0.00200
H 	H 	0.26830 0.43310 0.63190 0.05200
H 	H 	0.46400 0.34690 0.89010 0.01800
H 	H 	0.60190 0.36020 0.87860 0.08000
H 	H 	0.57350 0.54510 0.89140 0.07600
H 	H 	0.43490 0.52950 0.90300 -0.05300
H 	H 	0.71810 0.42200 0.87980 0.05400
H 	H 	0.36680 0.60190 0.50920 0.00700
H 	H 	0.35650 0.59860 0.57560 0.08200
H 	H 	0.27270 0.42420 0.57090 0.08300
H 	H 	0.28040 0.42650 0.50470 -0.00700
H 	H 	0.31830 0.55310 0.63320 0.05500
H 	H 	0.95850 0.62270 0.87440 0.01300
H 	H 	0.81980 0.61010 0.87770 0.08000
H 	H 	0.84140 0.42760 0.86000 0.07800
H 	H 	0.98320 0.43800 0.85750 -0.05300
H 	H 	0.69960 0.54820 0.88040 0.05300
H 	H 	0.20630 0.78510 0.83350 0.03400
H 	H 	0.19180 0.89260 0.83750 0.06400
H 	H 	0.13480 0.87600 0.94900 0.06400
H 	H 	0.15520 0.77010 0.94600 0.03200
H 	H 	0.12150 0.97870 0.92030 0.05000
H 	H 	0.15290 0.18510 0.93520 0.03000
H 	H 	0.14100 0.07670 0.93080 0.06800
H 	H 	0.21000 0.08280 0.82170 0.06700
H 	H 	0.22190 0.19090 0.82440 0.03200
H 	H 	0.19790 0.98390 0.84960 0.05400
H 	H 	0.22540 0.42930 0.25710 0.00200
H 	H 	0.21400 0.43250 0.19050 0.08300
H 	H 	0.24400 0.61770 0.19440 0.08200
H 	H 	0.25780 0.61100 0.26090 0.00200
H 	H 	0.23170 0.56690 0.13190 0.05200
H 	H 	0.03600 0.65310 0.39010 0.01800
H 	H 	0.89810 0.63980 0.37860 0.08000
H 	H 	0.92650 0.45490 0.39140 0.07600
H 	H 	0.06510 0.47050 0.40300 -0.05300
H 	H 	0.78190 0.57800 0.37980 0.05400
H 	H 	0.13320 0.39810 0.00920 0.00800
H 	H 	0.14350 0.40140 0.07560 0.08200
H 	H 	0.22730 0.57580 0.07090 0.08200
H 	H 	0.21960 0.57350 0.00470 -0.00600
H 	H 	0.18170 0.44690 0.13320 0.05500
H 	H 	0.54150 0.37730 0.37440 0.01300
H 	H 	0.68020 0.38990 0.37770 0.08000
H 	H 	0.65860 0.57240 0.36000 0.07800
H 	H 	0.51680 0.56200 0.35750 -0.05300
H 	H 	0.80040 0.45180 0.38040 0.05300
H 	H 	0.29370 0.21490 0.33350 0.03400
H 	H 	0.30820 0.10740 0.33750 0.06400
H 	H 	0.36520 0.12400 0.44900 0.06400
H 	H 	0.34480 0.22990 0.44600 0.03300
H 	H 	0.37850 0.02130 0.42030 0.05000
H 	H 	0.34710 0.81490 0.43520 0.03100
H 	H 	0.35900 0.92330 0.43080 0.06800
H 	H 	0.29000 0.91720 0.32170 0.06700
H 	H 	0.27810 0.80910 0.32440 0.03200
H 	H 	0.30210 0.01610 0.34960 0.05300
C 	C 	0.24970 0.48260 0.80780 0.47300
C 	C 	0.25810 0.48080 0.76550 -0.19900
C 	C 	0.27070 0.53230 0.74450 0.10200
C 	C 	0.27810 0.53070 0.70460 -0.16500
C 	C 	0.27350 0.47460 0.68640 0.10800
C 	C 	0.25990 0.42080 0.70690 -0.16600
C 	C 	0.25200 0.42520 0.74660 0.09700
C 	C 	0.28170 0.47110 0.64360 -0.07700
C 	C 	0.34410 0.42910 0.89460 0.40800
C 	C 	0.43490 0.43850 0.89280 -0.17500
C 	C 	0.48620 0.38710 0.88910 0.08000
C 	C 	0.56850 0.39450 0.88400 -0.15900
C 	C 	0.60170 0.45300 0.88680 0.10800
C 	C 	0.55150 0.50480 0.89160 -0.17200
C 	C 	0.46840 0.49560 0.89670 0.10200
C 	C 	0.68800 0.45900 0.88130 -0.08500
C 	C 	0.32560 0.51590 0.45820 0.46600
C 	C 	0.32550 0.51210 0.50000 -0.19400
C 	C 	0.34800 0.56590 0.52170 0.08800
C 	C 	0.34160 0.56370 0.56110 -0.16200
C 	C 	0.31400 0.51170 0.57950 0.11100
C 	C 	0.29150 0.46000 0.55830 -0.16800
C 	C 	0.29690 0.46140 0.51890 0.10500
C 	C 	0.30530 0.51510 0.62150 -0.08400
C 	C 	0.07360 0.53770 0.86790 0.43600
C 	C 	0.98420 0.53180 0.86590 -0.19100
C 	C 	0.93540 0.58300 0.87190 0.09400
C 	C 	0.85300 0.57500 0.87410 -0.16200
C 	C 	0.81600 0.51740 0.87120 0.10800
C 	C 	0.86530 0.46670 0.86370 -0.17000
C 	C 	0.94990 0.47290 0.86170 0.10100
C 	C 	0.72950 0.51120 0.87800 -0.08500
C 	C 	0.20570 0.70000 0.88740 0.31100
C 	C 	0.18470 0.76840 0.88910 -0.08700
C 	C 	0.19330 0.80370 0.85710 0.02200
C 	C 	0.18260 0.86780 0.85940 -0.11000
C 	C 	0.15870 0.89490 0.89360 0.07100
C 	C 	0.14980 0.85770 0.92550 -0.11400
C 	C 	0.16200 0.79480 0.92390 0.02400
C 	C 	0.14820 0.96300 0.89840 -0.06800
C 	C 	0.19530 0.26510 0.88200 0.28600
C 	C 	0.18670 0.19610 0.88040 -0.09300
C 	C 	0.16410 0.16450 0.91190 0.02800
C 	C 	0.15790 0.09970 0.90930 -0.11800
C 	C 	0.17590 0.06940 0.87580 0.08200
C 	C 	0.19850 0.10340 0.84490 -0.12000
C 	C 	0.20530 0.16790 0.84600 0.02600
C 	C 	0.17620 0.00110 0.87220 -0.07800
C 	C 	0.25030 0.51740 0.30780 0.47300
C 	C 	0.24190 0.51920 0.26550 -0.19900
C 	C 	0.22930 0.46770 0.24450 0.10200
C 	C 	0.22190 0.46930 0.20460 -0.16500
C 	C 	0.22650 0.52540 0.18640 0.10800
C 	C 	0.24010 0.57920 0.20690 -0.16600
C 	C 	0.24800 0.57480 0.24660 0.09700
C 	C 	0.21830 0.52890 0.14360 -0.07700
C 	C 	0.15590 0.57090 0.39460 0.40800
C 	C 	0.06510 0.56150 0.39280 -0.17400
C 	C 	0.01380 0.61290 0.38910 0.08000
C 	C 	0.93150 0.60550 0.38400 -0.15900
C 	C 	0.89830 0.54700 0.38680 0.10800
C 	C 	0.94850 0.49520 0.39160 -0.17100
C 	C 	0.03160 0.50440 0.39670 0.10200
C 	C 	0.81200 0.54100 0.38130 -0.08500
C 	C 	0.17440 0.48410 0.95820 0.46300
C 	C 	0.17450 0.48790 -0.00000 -0.19000
C 	C 	0.15200 0.43410 0.02170 0.08600
C 	C 	0.15840 0.43630 0.06110 -0.16000
C 	C 	0.18600 0.48830 0.07950 0.11000
C 	C 	0.20850 0.54000 0.05830 -0.16700
C 	C 	0.20310 0.53860 0.01890 0.10300
C 	C 	0.19470 0.48490 0.12150 -0.08300
C 	C 	0.42640 0.46230 0.36790 0.43600
C 	C 	0.51580 0.46820 0.36590 -0.19100
C 	C 	0.56460 0.41700 0.37190 0.09400
C 	C 	0.64700 0.42500 0.37410 -0.16200
C 	C 	0.68400 0.48260 0.37120 0.10900
C 	C 	0.63470 0.53330 0.36370 -0.17100
C 	C 	0.55010 0.52710 0.36170 0.10100
C 	C 	0.77050 0.48880 0.37800 -0.08500
C 	C 	0.29430 0.30000 0.38740 0.31100
C 	C 	0.31530 0.23160 0.38910 -0.08700
C 	C 	0.30670 0.19630 0.35710 0.02200
C 	C 	0.31740 0.13220 0.35940 -0.11000
C 	C 	0.34130 0.10510 0.39360 0.07200
C 	C 	0.35020 0.14230 0.42550 -0.11400
C 	C 	0.33800 0.20520 0.42390 0.02400
C 	C 	0.35180 0.03700 0.39840 -0.06900
C 	C 	0.30470 0.73490 0.38200 0.28600
C 	C 	0.31330 0.80390 0.38040 -0.09300
C 	C 	0.33590 0.83550 0.41190 0.02800
C 	C 	0.34210 0.90030 0.40930 -0.11800
C 	C 	0.32410 0.93060 0.37580 0.08200
C 	C 	0.30150 0.89660 0.34490 -0.11900
C 	C 	0.29470 0.83210 0.34600 0.02600
C 	C 	0.32380 0.99890 0.37220 -0.07700
O 	O 	0.25000 0.53560 0.82283 -0.49900
O 	O 	0.24190 0.43250 0.82474 -0.50600
O 	O 	0.31450 0.37630 0.89444 -0.43100
O 	O 	0.30020 0.47860 0.89533 -0.56100
O 	O 	0.33210 0.56740 0.44189 -0.50200
O 	O 	0.31920 0.46490 0.44044 -0.49800
O 	O 	0.11860 0.49180 0.86844 -0.57600
O 	O 	0.10260 0.59220 0.86992 -0.42500
O 	O 	0.20070 0.66950 0.91764 -0.41500
O 	O 	0.22950 0.67770 0.85630 -0.40900
O 	O 	0.18060 0.29350 0.91326 -0.38900
O 	O 	0.21240 0.29580 0.85186 -0.40700
O 	O 	0.25000 0.46440 0.32283 -0.49900
O 	O 	0.25810 0.56750 0.32474 -0.50600
O 	O 	0.18550 0.62370 0.39444 -0.43100
O 	O 	0.19980 0.52140 0.39533 -0.56100
O 	O 	0.16790 0.43260 0.94189 -0.50200
O 	O 	0.18080 0.53510 0.94044 -0.49800
O 	O 	0.38140 0.50820 0.36844 -0.57600
O 	O 	0.39740 0.40780 0.36992 -0.42500
O 	O 	0.29930 0.33050 0.41764 -0.41500
O 	O 	0.27050 0.32230 0.35630 -0.40900
O 	O 	0.31940 0.70650 0.41326 -0.38800
O 	O 	0.28760 0.70420 0.35186 -0.40700
Eu	Eu	0.75717 0.07432 0.61403 1.84600
Eu	Eu	0.82439 0.89480 0.62075 1.85000
Eu	Eu	0.74283 0.92568 0.11403 1.84700
Eu	Eu	0.67561 0.10520 0.12075 1.85000
H 	H 	0.72540 0.07070 0.74290 0.00200
H 	H 	0.71400 0.06750 0.80950 0.08300
H 	H 	0.74400 0.88230 0.80560 0.08200
H 	H 	0.75780 0.88900 0.73910 0.00200
H 	H 	0.73170 0.93310 0.86810 0.05300
H 	H 	0.53600 0.84690 0.60990 0.01800
H 	H 	0.39810 0.86020 0.62140 0.08000
H 	H 	0.42650 0.04510 0.60860 0.07600
H 	H 	0.56510 0.02950 0.59700 -0.05300
H 	H 	0.28190 0.92200 0.62020 0.05400
H 	H 	0.63320 0.10190 0.99080 0.00900
H 	H 	0.64350 0.09860 0.92440 0.08000
H 	H 	0.72730 0.92420 0.92910 0.08100
H 	H 	0.71960 0.92650 0.99530 -0.00600
H 	H 	0.68170 0.05310 0.86680 0.05400
H 	H 	0.04150 0.12270 0.62560 0.01300
H 	H 	0.18020 0.11010 0.62230 0.08000
H 	H 	0.15860 0.92760 0.64000 0.07800
H 	H 	0.01680 0.93800 0.64250 -0.05300
H 	H 	0.30040 0.04820 0.61960 0.05300
H 	H 	0.79370 0.28510 0.66650 0.03400
H 	H 	0.80820 0.39260 0.66250 0.06400
H 	H 	0.86520 0.37600 0.55100 0.06400
H 	H 	0.84480 0.27010 0.55400 0.03300
H 	H 	0.87850 0.47870 0.57970 0.05000
H 	H 	0.84710 0.68510 0.56480 0.03100
H 	H 	0.85900 0.57670 0.56920 0.06800
H 	H 	0.79000 0.58280 0.67830 0.06700
H 	H 	0.77810 0.69090 0.67560 0.03200
H 	H 	0.80210 0.48390 0.65040 0.05300
H 	H 	0.77460 0.92930 0.24290 0.00200
H 	H 	0.78600 0.93250 0.30950 0.08200
H 	H 	0.75600 0.11770 0.30560 0.08200
H 	H 	0.74220 0.11100 0.23910 0.00200
H 	H 	0.76830 0.06690 0.36810 0.05200
H 	H 	0.96400 0.15310 0.10990 0.01800
H 	H 	0.10190 0.13980 0.12140 0.08000
H 	H 	0.07350 0.95490 0.10860 0.07600
H 	H 	0.93490 0.97050 0.09700 -0.05300
H 	H 	0.21810 0.07800 0.12020 0.05400
H 	H 	0.86680 0.89810 0.49080 0.00700
H 	H 	0.85650 0.90140 0.42440 0.08200
H 	H 	0.77270 0.07580 0.42910 0.08300
H 	H 	0.78040 0.07350 0.49530 -0.00700
H 	H 	0.81830 0.94690 0.36680 0.05500
H 	H 	0.45850 0.87730 0.12560 0.01300
H 	H 	0.31980 0.88990 0.12230 0.08000
H 	H 	0.34140 0.07240 0.14000 0.07800
H 	H 	0.48320 0.06200 0.14250 -0.05300
H 	H 	0.19960 0.95180 0.11960 0.05300
H 	H 	0.70630 0.71490 0.16650 0.03400
H 	H 	0.69180 0.60740 0.16250 0.06400
H 	H 	0.63480 0.62400 0.05100 0.06400
H 	H 	0.65520 0.72990 0.05400 0.03300
H 	H 	0.62150 0.52130 0.07970 0.05000
H 	H 	0.65290 0.31490 0.06480 0.03100
H 	H 	0.64100 0.42330 0.06920 0.06900
H 	H 	0.71000 0.41720 0.17830 0.06700
H 	H 	0.72190 0.30910 0.17560 0.03200
H 	H 	0.69790 0.51610 0.15040 0.05300
C 	C 	0.75030 0.98260 0.69220 0.47300
C 	C 	0.74190 0.98080 0.73450 -0.19900
C 	C 	0.72930 0.03230 0.75550 0.10200
C 	C 	0.72190 0.03070 0.79540 -0.16600
C 	C 	0.72650 0.97460 0.81360 0.10900
C 	C 	0.74010 0.92080 0.79310 -0.16600
C 	C 	0.74800 0.92520 0.75340 0.09700
C 	C 	0.71830 0.97110 0.85640 -0.07800
C 	C 	0.65590 0.92910 0.60540 0.40900
C 	C 	0.56510 0.93850 0.60720 -0.17500
C 	C 	0.51380 0.88710 0.61090 0.08000
C 	C 	0.43150 0.89450 0.61600 -0.15900
C 	C 	0.39830 0.95300 0.61320 0.10800
C 	C 	0.44850 0.00480 0.60840 -0.17200
C 	C 	0.53160 0.99560 0.60330 0.10200
C 	C 	0.31200 0.95900 0.61870 -0.08500
C 	C 	0.67440 0.01590 0.04180 0.46400
C 	C 	0.67450 0.01210 -0.00000 -0.18600
C 	C 	0.65200 0.06590 0.97830 0.08200
C 	C 	0.65840 0.06370 0.93890 -0.15800
C 	C 	0.68600 0.01170 0.92050 0.10700
C 	C 	0.70850 0.96000 0.94170 -0.16400
C 	C 	0.70310 0.96140 0.98110 0.09800
C 	C 	0.69470 0.01510 0.87850 -0.08200
C 	C 	0.92640 0.03770 0.63210 0.43600
C 	C 	0.01580 0.03180 0.63410 -0.19200
C 	C 	0.06460 0.08300 0.62810 0.09400
C 	C 	0.14700 0.07500 0.62590 -0.16200
C 	C 	0.18400 0.01740 0.62880 0.10900
C 	C 	0.13470 0.96670 0.63630 -0.17100
C 	C 	0.05010 0.97290 0.63830 0.10100
C 	C 	0.27050 0.01120 0.62200 -0.08500
C 	C 	0.79430 0.20000 0.61260 0.31100
C 	C 	0.81530 0.26840 0.61090 -0.08700
C 	C 	0.80670 0.30370 0.64290 0.02200
C 	C 	0.81740 0.36780 0.64060 -0.11000
C 	C 	0.84130 0.39490 0.60640 0.07200
C 	C 	0.85020 0.35770 0.57450 -0.11400
C 	C 	0.83800 0.29480 0.57610 0.02400
C 	C 	0.85180 0.46300 0.60160 -0.06900
C 	C 	0.80470 0.76510 0.61800 0.28600
C 	C 	0.81330 0.69610 0.61960 -0.09300
C 	C 	0.83590 0.66450 0.58810 0.02800
C 	C 	0.84210 0.59970 0.59070 -0.11800
C 	C 	0.82410 0.56940 0.62420 0.08200
C 	C 	0.80150 0.60340 0.65510 -0.11900
C 	C 	0.79470 0.66790 0.65400 0.02600
C 	C 	0.82380 0.50110 0.62780 -0.07700
C 	C 	0.74970 0.01740 0.19220 0.47300
C 	C 	0.75810 0.01920 0.23450 -0.19900
C 	C 	0.77070 0.96770 0.25550 0.10200
C 	C 	0.77810 0.96930 0.29540 -0.16500
C 	C 	0.77350 0.02540 0.31360 0.10800
C 	C 	0.75990 0.07920 0.29310 -0.16600
C 	C 	0.75200 0.07480 0.25340 0.09700
C 	C 	0.78170 0.02890 0.35640 -0.07700
C 	C 	0.84410 0.07090 0.10540 0.40900
C 	C 	0.93490 0.06150 0.10720 -0.17500
C 	C 	0.98620 0.11290 0.11090 0.08000
C 	C 	0.06850 0.10550 0.11600 -0.15900
C 	C 	0.10170 0.04700 0.11320 0.10900
C 	C 	0.05150 0.99520 0.10840 -0.17200
C 	C 	0.96840 0.00440 0.10330 0.10300
C 	C 	0.18800 0.04100 0.11870 -0.08500
C 	C 	0.82560 0.98410 0.54180 0.46600
C 	C 	0.82550 0.98790 0.50000 -0.19400
C 	C 	0.84800 0.93410 0.47830 0.08800
C 	C 	0.84160 0.93630 0.43890 -0.16200
C 	C 	0.81400 0.98830 0.42050 0.11100
C 	C 	0.79150 0.04000 0.44170 -0.16800
C 	C 	0.79690 0.03860 0.48110 0.10500
C 	C 	0.80530 0.98490 0.37850 -0.08400
C 	C 	0.57360 0.96230 0.13210 0.43600
C 	C 	0.48420 0.96820 0.13410 -0.19100
C 	C 	0.43540 0.91700 0.12810 0.09400
C 	C 	0.35300 0.92500 0.12590 -0.16200
C 	C 	0.31600 0.98260 0.12880 0.10900
C 	C 	0.36530 0.03330 0.13630 -0.17000
C 	C 	0.44990 0.02710 0.13830 0.10100
C 	C 	0.22950 0.98880 0.12200 -0.08500
C 	C 	0.70570 0.80000 0.11260 0.31100
C 	C 	0.68470 0.73160 0.11090 -0.08700
C 	C 	0.69330 0.69630 0.14290 0.02200
C 	C 	0.68260 0.63220 0.14060 -0.11000
C 	C 	0.65870 0.60510 0.10640 0.07200
C 	C 	0.64980 0.64230 0.07450 -0.11400
C 	C 	0.66200 0.70520 0.07610 0.02400
C 	C 	0.64820 0.53700 0.10160 -0.06900
C 	C 	0.69530 0.23490 0.11800 0.28600
C 	C 	0.68670 0.30390 0.11960 -0.09200
C 	C 	0.66410 0.33550 0.08810 0.02800
C 	C 	0.65790 0.40030 0.09070 -0.11800
C 	C 	0.67590 0.43060 0.12420 0.08200
C 	C 	0.69850 0.39660 0.15510 -0.11900
C 	C 	0.70530 0.33210 0.15400 0.02600
C 	C 	0.67620 0.49890 0.12780 -0.07700
O 	O 	0.75000 0.03560 0.67717 -0.49900
O 	O 	0.75810 0.93250 0.67526 -0.50600
O 	O 	0.68550 0.87630 0.60556 -0.43100
O 	O 	0.69980 0.97860 0.60467 -0.56100
O 	O 	0.66790 0.06740 0.05811 -0.50100
O 	O 	0.68080 0.96490 0.05956 -0.49700
O 	O 	0.88140 0.99180 0.63156 -0.57600
O 	O 	0.89740 0.09220 0.63008 -0.42500
O 	O 	0.79930 0.16950 0.58236 -0.41500
O 	O 	0.77050 0.17770 0.64370 -0.40900
O 	O 	0.81940 0.79350 0.58674 -0.38800
O 	O 	0.78760 0.79580 0.64814 -0.40700
O 	O 	0.75000 0.96440 0.17717 -0.49900
O 	O 	0.74190 0.06750 0.17526 -0.50600
O 	O 	0.81450 0.12370 0.10556 -0.43000
O 	O 	0.80020 0.02140 0.10467 -0.56100
O 	O 	0.83210 0.93260 0.55811 -0.50200
O 	O 	0.81920 0.03510 0.55956 -0.49800
O 	O 	0.61860 0.00820 0.13156 -0.57600
O 	O 	0.60260 0.90780 0.13008 -0.42500
O 	O 	0.70070 0.83050 0.08236 -0.41400
O 	O 	0.72950 0.82230 0.14370 -0.40900
O 	O 	0.68060 0.20650 0.08674 -0.38800
O 	O 	0.71240 0.20420 0.14814 -0.40700
