data_crystal

_cell_length_a 5.86530
_cell_length_b 12.85350
_cell_length_c 20.98000
_cell_angle_alpha 92.31720
_cell_angle_beta  90.00000
_cell_angle_gamma 103.18900

_symmetry_space_group_name_	'P 1'
_symmetry_space_group_name_H-M	'P 1'

loop_
_symmetry_equiv_pos_as_xyz
  x,y,z

loop_
_atom_site_label
_atom_site_type_symbol
_atom_site_fract_x
_atom_site_fract_y
_atom_site_fract_z
_atom_site_charge
Zn	Zn	0.71755 0.00000 0.75000 1.18800
Zn	Zn	0.28245 0.00000 0.25000 1.18800
H 	H 	0.64600 0.89800 0.61860 0.00800
H 	H 	0.78750 0.78080 0.55410 0.09600
H 	H 	0.26340 0.76920 0.69110 0.08500
H 	H 	0.09820 0.88200 0.75370 0.00600
H 	H 	0.07160 0.67660 0.52930 0.07200
H 	H 	0.35640 0.64420 0.62820 0.04200
H 	H 	0.19750 0.57080 0.46210 0.04900
H 	H 	0.63300 0.53640 0.60460 0.05100
H 	H 	0.63130 0.23740 0.58380 0.20300
H 	H 	0.38790 0.17800 0.61270 0.21000
H 	H 	0.17480 0.01300 0.56070 0.15700
H 	H 	0.85370 0.12260 0.51660 0.16500
H 	H 	0.74800 0.10200 0.88140 -0.03500
H 	H 	0.00670 0.21920 0.94590 0.08600
H 	H 	0.49420 0.23080 0.80890 0.08500
H 	H 	0.21620 0.11800 0.74630 -0.01600
H 	H 	0.39500 0.32340 0.97070 0.06900
H 	H 	0.71220 0.35580 0.87180 0.03300
H 	H 	0.62670 0.42920 0.03790 0.02900
H 	H 	0.09660 0.46360 0.89540 0.03600
H 	H 	0.39390 0.76260 0.91620 0.12900
H 	H 	0.20990 0.82200 0.88730 0.14400
H 	H 	0.16180 0.98700 0.93930 0.01000
H 	H 	0.73110 0.87740 0.98340 -0.01200
H 	H 	0.35400 0.10200 0.38140 -0.03200
H 	H 	0.21250 0.21920 0.44590 0.08700
H 	H 	0.73660 0.23080 0.30890 0.08200
H 	H 	0.90180 0.11800 0.24630 -0.01500
H 	H 	0.92840 0.32340 0.47070 0.06700
H 	H 	0.64360 0.35580 0.37180 0.04200
H 	H 	0.80250 0.42920 0.53790 0.04500
H 	H 	0.36700 0.46360 0.39540 0.05200
H 	H 	0.36870 0.76260 0.41620 0.12400
H 	H 	0.61210 0.82200 0.38730 0.13700
H 	H 	0.82520 0.98700 0.43930 -0.01100
H 	H 	0.14630 0.87740 0.48340 -0.02900
H 	H 	0.25200 0.89800 0.11860 0.00700
H 	H 	0.99330 0.78080 0.05410 0.09800
H 	H 	0.50580 0.76920 0.19110 0.08300
H 	H 	0.78380 0.88200 0.25370 0.00600
H 	H 	0.60500 0.67660 0.02930 0.07100
H 	H 	0.28780 0.64420 0.12820 0.05100
H 	H 	0.37330 0.57080 0.96210 0.06600
H 	H 	0.90340 0.53640 0.10460 0.06800
H 	H 	0.60610 0.23740 0.08380 0.19700
H 	H 	0.79010 0.17800 0.11270 0.20300
H 	H 	0.83820 0.01300 0.06070 0.13600
H 	H 	0.26890 0.12260 0.01660 0.14800
C 	C 	0.77024 0.87028 0.63357 0.10200
C 	C 	0.85543 0.80086 0.59470 -0.17300
C 	C 	0.04184 0.75948 0.61430 0.13200
C 	C 	0.13498 0.79336 0.67560 -0.16300
C 	C 	0.03672 0.86164 0.71250 0.10000
C 	C 	0.13345 0.68750 0.57100 -0.11900
C 	C 	0.29876 0.63572 0.58610 -0.03600
C 	C 	0.39718 0.56596 0.54110 0.02600
C 	C 	0.31987 0.54234 0.47760 -0.06100
C 	C 	0.57859 0.52198 0.56220 -0.06200
C 	C 	0.67134 0.13528 0.65490 0.46800
C 	C 	0.54261 0.16922 0.59920 -0.57600
C 	C 	0.30660 0.00800 0.53630 -0.42700
C 	C 	0.51795 0.08250 0.54708 0.36300
C 	C 	0.71018 0.07296 0.51000 -0.42300
C 	C 	0.89996 0.12972 0.86643 0.09600
C 	C 	0.05457 0.19914 0.90530 -0.19400
C 	C 	0.28236 0.24052 0.88570 0.13400
C 	C 	0.34162 0.20664 0.82440 -0.18000
C 	C 	0.17508 0.13836 0.78750 0.08700
C 	C 	0.44595 0.31250 0.92900 -0.14100
C 	C 	0.66304 0.36428 0.91390 -0.01000
C 	C 	0.83122 0.43404 0.95890 -0.03000
C 	C 	0.77753 0.45766 0.02240 0.00300
C 	C 	0.05661 0.47802 0.93780 -0.01300
C 	C 	0.53606 0.86472 0.84510 0.39500
C 	C 	0.37339 0.83078 0.90080 -0.32600
C 	C 	0.29860 0.99200 0.96370 0.15500
C 	C 	0.43545 0.91750 0.95292 -0.01500
C 	C 	0.63722 0.92704 0.99000 0.15400
C 	C 	0.22976 0.12972 0.36643 0.09200
C 	C 	0.14457 0.19914 0.40530 -0.18400
C 	C 	0.95816 0.24052 0.38570 0.12300
C 	C 	0.86502 0.20664 0.32440 -0.17300
C 	C 	0.96328 0.13836 0.28750 0.08200
C 	C 	0.86655 0.31250 0.42900 -0.12100
C 	C 	0.70124 0.36428 0.41390 -0.03700
C 	C 	0.60282 0.43404 0.45890 0.02400
C 	C 	0.68013 0.45766 0.52240 -0.06100
C 	C 	0.42141 0.47802 0.43780 -0.06100
C 	C 	0.32866 0.86472 0.34510 0.38700
C 	C 	0.45739 0.83078 0.40080 -0.29900
C 	C 	0.69340 0.99200 0.46370 0.22400
C 	C 	0.48205 0.91750 0.45292 -0.05900
C 	C 	0.28982 0.92704 0.49000 0.22500
C 	C 	0.10004 0.87028 0.13357 0.10300
C 	C 	0.94543 0.80086 0.09470 -0.17200
C 	C 	0.71764 0.75948 0.11430 0.12700
C 	C 	0.65838 0.79336 0.17560 -0.15900
C 	C 	0.82492 0.86164 0.21250 0.09700
C 	C 	0.55405 0.68750 0.07100 -0.10300
C 	C 	0.33696 0.63572 0.08610 -0.06200
C 	C 	0.16878 0.56596 0.04110 0.08100
C 	C 	0.22247 0.54234 0.97760 -0.12400
C 	C 	0.94339 0.52198 0.06220 -0.11100
C 	C 	0.46394 0.13528 0.15490 0.46000
C 	C 	0.62661 0.16922 0.09920 -0.54900
C 	C 	0.70140 0.00800 0.03630 -0.35700
C 	C 	0.56455 0.08250 0.04708 0.31900
C 	C 	0.36278 0.07296 0.01000 -0.35200
N 	N 	0.85681 0.90082 0.69264 -0.25400
N 	N 	0.95599 0.09918 0.80736 -0.28900
N 	N 	0.14319 0.09918 0.30736 -0.28600
N 	N 	0.04401 0.90082 0.19264 -0.25300
O 	O 	0.54655 0.06830 0.69141 -0.52300
O 	O 	0.88641 0.16582 0.66050 -0.37300
O 	O 	0.47825 0.93170 0.80859 -0.43700
O 	O 	0.72059 0.83418 0.83950 -0.32600
O 	O 	0.45345 0.93170 0.30859 -0.43500
O 	O 	0.11359 0.83418 0.33950 -0.32200
O 	O 	0.52175 0.06830 0.19141 -0.52000
O 	O 	0.27941 0.16582 0.16050 -0.36900
