data_crystal

_cell_length_a 9.08380
_cell_length_b 9.61570
_cell_length_c 12.42520
_cell_angle_alpha 93.48800
_cell_angle_beta  104.35700
_cell_angle_gamma 113.99300

_symmetry_space_group_name_	'P 1'
_symmetry_space_group_name_H-M	'P 1'

loop_
_symmetry_equiv_pos_as_xyz
  x,y,z

loop_
_atom_site_label
_atom_site_type_symbol
_atom_site_fract_x
_atom_site_fract_y
_atom_site_fract_z
_atom_site_charge
C 	C 	0.66850 0.34650 0.05970 0.21500
C 	C 	0.29580 0.14950 0.02510 0.17800
C 	C 	0.17390 0.14860 0.22080 0.33800
C 	C 	0.73260 0.18460 0.24420 0.36500
C 	C 	0.64440 0.28420 0.25790 -0.16900
H 	H 	0.71940 0.37010 0.32110 0.10000
C 	C 	0.58750 0.35480 0.15250 -0.09300
H 	H 	0.63110 0.46550 0.18150 0.07000
C 	C 	0.39150 0.29060 0.11950 -0.05200
H 	H 	0.35890 0.37280 0.09820 0.02200
C 	C 	0.35500 0.25060 0.23280 -0.15100
H 	H 	0.38530 0.34860 0.28100 0.08400
C 	C 	0.48130 0.18880 0.28850 -0.00400
H 	H 	0.43850 0.07940 0.25940 0.03700
H 	H 	0.50250 0.20360 0.36980 0.03600
C 	C 	0.86660 0.83070 0.39790 0.13100
H 	H 	0.98310 0.88440 0.41390 0.02700
C 	C 	0.80540 0.73250 0.46700 -0.21200
H 	H 	0.87870 0.72130 0.52920 0.14100
C 	C 	0.63330 0.64980 0.44350 0.18300
C 	C 	0.52740 0.67120 0.35130 -0.19800
H 	H 	0.41070 0.61690 0.33370 0.09500
C 	C 	0.59910 0.77480 0.28630 0.10800
H 	H 	0.52830 0.79050 0.22520 -0.00500
N 	N 	0.57600 0.54490 0.51740 -0.10400
Co	Co	0.86686 0.00499 0.20410 1.15300
N 	N 	0.76830 0.85470 0.30750 -0.23000
O 	O 	0.60200 0.23030 0.98240 -0.29400
O 	O 	0.80580 0.46060 0.07150 -0.43600
O 	O 	0.30620 0.02640 0.04390 -0.44800
O 	O 	0.21040 0.16410 0.93230 -0.32300
O 	O 	0.06020 0.17450 0.15550 -0.46500
O 	O 	0.13170 0.04180 0.27650 -0.42100
O 	O 	0.66270 0.06620 0.16430 -0.56400
O 	O 	0.87090 0.21190 0.30930 -0.37700
C 	C 	0.33150 0.65350 0.94030 0.51100
C 	C 	0.70420 0.85050 0.97490 0.47600
C 	C 	0.82610 0.85140 0.77920 0.29200
C 	C 	0.26740 0.81540 0.75580 0.34100
C 	C 	0.35560 0.71580 0.74210 -0.11400
H 	H 	0.28060 0.62990 0.67890 0.07100
C 	C 	0.41250 0.64520 0.84750 -0.14800
H 	H 	0.36890 0.53450 0.81850 0.09100
C 	C 	0.60850 0.70940 0.88050 -0.12100
H 	H 	0.64110 0.62720 0.90180 0.10300
C 	C 	0.64500 0.74940 0.76720 -0.07400
H 	H 	0.61470 0.65140 0.71900 0.06700
C 	C 	0.51870 0.81120 0.71150 -0.07600
H 	H 	0.56150 0.92060 0.74060 0.08800
H 	H 	0.49750 0.79640 0.63020 0.06900
C 	C 	0.13340 0.16930 0.60210 0.11900
H 	H 	0.01690 0.11560 0.58610 -0.04800
C 	C 	0.19460 0.26750 0.53300 -0.23100
H 	H 	0.12130 0.27870 0.47080 0.11200
C 	C 	0.36670 0.35020 0.55650 0.18300
C 	C 	0.47260 0.32880 0.64870 -0.21100
H 	H 	0.58930 0.38310 0.66630 0.11000
C 	C 	0.40090 0.22520 0.71370 0.10700
H 	H 	0.47170 0.20950 0.77480 -0.01500
N 	N 	0.42400 0.45510 0.48260 -0.11000
Co	Co	0.13314 0.99501 0.79590 1.17100
N 	N 	0.23170 0.14530 0.69250 -0.27100
O 	O 	0.39800 0.76970 0.01760 -0.54700
O 	O 	0.19420 0.53940 0.92850 -0.46100
O 	O 	0.69380 0.97360 0.95610 -0.36300
O 	O 	0.78960 0.83590 0.06770 -0.48500
O 	O 	0.93980 0.82550 0.84450 -0.32400
O 	O 	0.86830 0.95820 0.72350 -0.31100
O 	O 	0.33730 0.93380 0.83570 -0.47200
O 	O 	0.12910 0.78810 0.69070 -0.40000
Co	Co	0.50000 0.00000 -0.00000 1.12200
Co	Co	-0.00000 0.50000 -0.00000 1.01200
