data_crystal

_cell_length_a 9.14610
_cell_length_b 9.65870
_cell_length_c 12.76170
_cell_angle_alpha 94.66400
_cell_angle_beta  103.83700
_cell_angle_gamma 114.83000

_symmetry_space_group_name_	'P 1'
_symmetry_space_group_name_H-M	'P 1'

loop_
_symmetry_equiv_pos_as_xyz
  x,y,z

loop_
_atom_site_label
_atom_site_type_symbol
_atom_site_fract_x
_atom_site_fract_y
_atom_site_fract_z
_atom_site_charge
C 	C 	0.76800 0.31010 0.26072 0.33600
O 	O 	0.28890 0.33970 0.56498 -0.43400
O 	O 	0.43670 0.31550 0.34398 -0.41200
O 	O 	0.37200 0.45300 0.23420 -0.37000
C 	C 	0.32720 0.34530 0.28450 0.31600
C 	C 	0.14340 0.24490 0.27324 -0.08000
H 	H 	0.10960 0.14510 0.22550 0.03800
O 	O 	0.68810 0.03980 0.42575 -0.48800
O 	O 	0.89820 0.26994 0.51672 -0.42900
C 	C 	0.82860 0.15280 0.43905 0.36400
Co	Co	0.63443 0.48781 0.30123 1.17100
O 	O 	0.19381 0.47430 0.45822 -0.42300
O 	O 	0.83620 0.42910 0.33900 -0.51300
C 	C 	0.20300 0.35010 0.47567 0.34100
C 	C 	0.10620 0.20720 0.38247 -0.13200
H 	H 	0.13690 0.12500 0.40260 0.05100
N 	N 	0.72880 0.63490 0.19836 -0.21900
C 	C 	0.85790 0.21130 0.24751 -0.09700
H 	H 	0.78330 0.12390 0.18510 0.06300
C 	C 	0.02250 0.30700 0.21950 -0.10300
H 	H 	0.00250 0.29140 0.14030 0.05700
H 	H 	0.06730 0.41730 0.24930 0.07400
C 	C 	0.92000 0.95750 0.99700 0.12500
H 	H 	0.83930 0.97070 0.94460 0.00800
C 	C 	0.85800 0.84430 0.06550 0.01400
C 	C 	0.91060 0.14190 0.34912 -0.09700
H 	H 	0.86510 0.03010 0.32000 0.06000
O 	O 	0.63000 0.27960 0.19409 -0.37900
C 	C 	0.96330 0.82250 0.15310 -0.01000
H 	H 	0.07990 0.87790 0.16880 0.02500
C 	C 	0.62790 0.65460 0.11350 0.04300
H 	H 	0.51180 0.59690 0.09870 0.02300
C 	C 	0.68630 0.75610 0.04610 -0.04300
H 	H 	0.61000 0.76510 0.98760 0.04400
C 	C 	0.89630 0.71900 0.21710 0.02700
H 	H 	0.96980 0.70680 0.27570 0.03300
C 	C 	0.23200 0.68990 0.73928 0.35400
O 	O 	0.71110 0.66030 0.43502 -0.40300
O 	O 	0.56330 0.68450 0.65602 -0.40300
O 	O 	0.62800 0.54700 0.76580 -0.38600
C 	C 	0.67280 0.65470 0.71550 0.34000
C 	C 	0.85660 0.75510 0.72676 -0.14400
H 	H 	0.89040 0.85490 0.77450 0.09800
O 	O 	0.31190 0.96020 0.57425 -0.43400
O 	O 	0.10180 0.73006 0.48328 -0.45100
C 	C 	0.17140 0.84720 0.56095 0.37900
Co	Co	0.36557 0.51219 0.69877 1.16900
O 	O 	0.80619 0.52570 0.54178 -0.40800
O 	O 	0.16380 0.57090 0.66100 -0.53600
C 	C 	0.79700 0.64990 0.52433 0.33000
C 	C 	0.89380 0.79280 0.61753 -0.04700
H 	H 	0.86310 0.87500 0.59740 0.07300
N 	N 	0.27120 0.36510 0.80164 -0.28100
C 	C 	0.14210 0.78870 0.75249 -0.17000
H 	H 	0.21670 0.87610 0.81490 0.09900
C 	C 	0.97750 0.69300 0.78050 0.01700
H 	H 	0.99750 0.70860 0.85970 0.04100
H 	H 	0.93270 0.58270 0.75070 0.05000
C 	C 	0.08000 0.04250 0.00300 -0.31700
H 	H 	0.16070 0.02930 0.05540 0.11500
C 	C 	0.14200 0.15570 0.93450 0.24900
C 	C 	0.08940 0.85810 0.65088 -0.15200
H 	H 	0.13490 0.96990 0.68000 0.10100
O 	O 	0.37000 0.72040 0.80591 -0.37300
C 	C 	0.03670 0.17750 0.84690 -0.35100
H 	H 	0.92010 0.12210 0.83120 0.14300
C 	C 	0.37210 0.34540 0.88650 0.17300
H 	H 	0.48820 0.40310 0.90130 -0.04100
C 	C 	0.31370 0.24390 0.95390 -0.34000
H 	H 	0.39000 0.23490 0.01240 0.16800
C 	C 	0.10370 0.28100 0.78290 0.16800
H 	H 	0.03020 0.29320 0.72430 -0.05500
Co	Co	-0.00000 0.50000 0.50000 1.18600
Co	Co	0.50000 0.00000 0.50000 1.05500
