data_crystal

_cell_length_a 9.10040
_cell_length_b 9.39720
_cell_length_c 14.92870
_cell_angle_alpha 82.08800
_cell_angle_beta  85.45800
_cell_angle_gamma 65.33500

_symmetry_space_group_name_	'P 1'
_symmetry_space_group_name_H-M	'P 1'

loop_
_symmetry_equiv_pos_as_xyz
  x,y,z

loop_
_atom_site_label
_atom_site_type_symbol
_atom_site_fract_x
_atom_site_fract_y
_atom_site_fract_z
_atom_site_charge
C 	C 	0.61480 0.84430 0.19650 0.33200
C 	C 	0.64150 0.65700 0.05434 0.21700
C 	C 	0.28450 0.84850 0.02449 0.18700
C 	C 	0.06580 0.87870 0.17975 0.12500
C 	C 	0.24290 0.77530 0.19123 -0.04100
H 	H 	0.25060 0.68110 0.23170 0.04000
C 	C 	0.33910 0.84730 0.23366 -0.09200
H 	H 	0.32000 0.84380 0.29860 0.06900
H 	H 	0.30940 0.95600 0.20820 0.08500
C 	C 	0.51850 0.74470 0.21089 -0.12100
H 	H 	0.56310 0.66510 0.26280 0.08300
C 	C 	0.51550 0.65690 0.12898 -0.09100
H 	H 	0.54770 0.54620 0.15360 0.06600
C 	C 	0.33550 0.71770 0.10195 -0.08600
H 	H 	0.31470 0.62940 0.08720 0.02900
C 	C 	0.44530 0.26930 0.23244 -0.00900
H 	H 	0.38600 0.25780 0.18820 -0.00000
C 	C 	0.38270 0.36280 0.29895 -0.01000
H 	H 	0.27410 0.42590 0.30930 0.01500
C 	C 	0.64570 0.24320 0.30987 0.09200
H 	H 	0.75000 0.21130 0.33010 -0.01900
C 	C 	0.50550 0.42510 0.42570 0.08000
C 	C 	0.64040 0.42750 0.45470 -0.06800
H 	H 	0.73840 0.37910 0.42410 0.06000
C 	C 	0.36510 0.49820 0.46980 -0.06800
H 	H 	0.27040 0.49930 0.44980 0.05000
Co	Co	0.76592 0.02557 0.16199 1.11900
N 	N 	0.61080 0.19330 0.24016 -0.25000
N 	N 	0.51170 0.34650 0.34889 -0.13800
O 	O 	0.58338 0.95454 0.13101 -0.47600
O 	O 	0.72148 0.82570 0.24974 -0.33200
O 	O 	0.77931 0.54800 0.06780 -0.43100
O 	O 	0.60703 0.76076 0.98805 -0.26700
O 	O 	0.24120 0.82410 0.95238 -0.29100
O 	O 	0.28554 0.97934 0.03652 -0.38100
O 	O 	0.98650 0.84020 0.12934 -0.28700
O 	O 	0.99360 0.99920 0.21963 -0.22000
C 	C 	0.38520 0.15570 0.80350 0.34100
C 	C 	0.35850 0.34300 0.94566 0.53200
C 	C 	0.71550 0.15150 0.97551 0.50800
C 	C 	0.93420 0.12130 0.82025 0.43500
C 	C 	0.75710 0.22470 0.80877 -0.14200
H 	H 	0.74940 0.31890 0.76830 0.08300
C 	C 	0.66090 0.15270 0.76634 -0.01900
H 	H 	0.68000 0.15620 0.70140 0.03600
H 	H 	0.69060 0.04400 0.79180 0.04600
C 	C 	0.48150 0.25530 0.78911 -0.13300
H 	H 	0.43690 0.33490 0.73720 0.08000
C 	C 	0.48450 0.34310 0.87102 -0.14700
H 	H 	0.45230 0.45380 0.84640 0.09100
C 	C 	0.66450 0.28230 0.89805 -0.11600
H 	H 	0.68530 0.37060 0.91280 0.10100
C 	C 	0.55470 0.73070 0.76756 0.01300
H 	H 	0.61400 0.74220 0.81180 0.04600
C 	C 	0.61730 0.63720 0.70105 0.00700
H 	H 	0.72590 0.57410 0.69070 0.03900
C 	C 	0.35430 0.75680 0.69013 0.11000
H 	H 	0.25000 0.78870 0.66990 0.00100
C 	C 	0.49450 0.57490 0.57430 0.10700
C 	C 	0.35960 0.57250 0.54530 -0.09300
H 	H 	0.26160 0.62090 0.57590 0.06500
C 	C 	0.63490 0.50180 0.53020 -0.09000
H 	H 	0.72960 0.50070 0.55020 0.07600
Co	Co	0.23408 0.97443 0.83801 1.21000
N 	N 	0.38920 0.80670 0.75984 -0.22200
N 	N 	0.48830 0.65350 0.65111 -0.13800
O 	O 	0.41662 0.04546 0.86899 -0.52500
O 	O 	0.27852 0.17430 0.75026 -0.39400
O 	O 	0.22069 0.45200 0.93220 -0.46000
O 	O 	0.39297 0.23924 0.01195 -0.60500
O 	O 	0.75880 0.17590 0.04762 -0.55900
O 	O 	0.71446 0.02066 0.96348 -0.42900
O 	O 	0.01350 0.15980 0.87066 -0.46000
O 	O 	0.00640 0.00080 0.78037 -0.47700
Co	Co	0.50000 0.00000 -0.00000 1.10600
Co	Co	-0.00000 0.50000 -0.00000 1.00500
