data_crystal

_cell_length_a 16.97890
_cell_length_b 21.61200
_cell_length_c 13.89050
_cell_angle_alpha 90.00000
_cell_angle_beta  90.00000
_cell_angle_gamma 90.00000

_symmetry_space_group_name_	'P 1'
_symmetry_space_group_name_H-M	'P 1'

loop_
_symmetry_equiv_pos_as_xyz
  x,y,z

loop_
_atom_site_label
_atom_site_type_symbol
_atom_site_fract_x
_atom_site_fract_y
_atom_site_fract_z
_atom_site_charge
C 	C 	0.35800 0.16840 0.61930 0.55300
C 	C 	0.42560 0.16610 0.54780 -0.22600
C 	C 	0.43920 0.21430 0.48400 0.30800
C 	C 	0.50370 0.21300 0.42110 0.32700
C 	C 	0.55570 0.16520 0.42150 -0.23200
C 	C 	0.54260 0.11610 0.48500 0.31900
C 	C 	0.47770 0.11720 0.54830 0.31000
C 	C 	0.62710 0.16470 0.35750 0.55800
C 	C 	0.13510 0.99670 0.87140 0.53200
C 	C 	0.06580 0.99810 0.93830 -0.27200
C 	C 	0.01760 0.04910 0.94060 0.35200
C 	C 	0.95120 0.05010 0.00160 0.30100
F 	F 	0.38960 0.26290 0.47870 -0.35300
F 	F 	0.51170 0.26140 0.36120 -0.33600
F 	F 	0.59150 0.06730 0.49170 -0.36000
F 	F 	0.46920 0.06830 0.60830 -0.35500
F 	F 	0.02840 0.09680 0.88100 -0.35800
F 	F 	0.90430 0.09990 0.99640 -0.35600
In	In	0.25003 0.08327 0.75091 2.03000
O 	O 	0.34450 0.22010 0.65370 -0.51100
O 	O 	0.32440 0.11810 0.63760 -0.51400
O 	O 	0.66270 0.21510 0.34470 -0.51100
O 	O 	0.64560 0.11270 0.32290 -0.48200
O 	O 	0.17300 0.04530 0.86190 -0.48300
O 	O 	0.14830 0.94510 0.82960 -0.49800
O 	O 	0.25460 0.16670 0.82670 -0.92700
H 	H 	0.27800 0.16690 0.88000 0.43000
C 	C 	0.14200 0.83160 0.61930 0.55500
C 	C 	0.07440 0.83390 0.54780 -0.22900
C 	C 	0.06080 0.78570 0.48400 0.30600
C 	C 	0.99630 0.78700 0.42110 0.32700
C 	C 	0.94430 0.83480 0.42150 -0.23500
C 	C 	0.95740 0.88390 0.48500 0.31700
C 	C 	0.02230 0.88280 0.54830 0.30600
C 	C 	0.87290 0.83530 0.35750 0.55900
C 	C 	0.36490 0.00330 0.87140 0.57200
C 	C 	0.43420 0.00190 0.93830 -0.21300
C 	C 	0.48240 0.95090 0.94060 0.29000
C 	C 	0.54880 0.94990 0.00160 0.33000
F 	F 	0.11040 0.73710 0.47870 -0.35400
F 	F 	0.98830 0.73860 0.36120 -0.33700
F 	F 	0.90850 0.93270 0.49170 -0.37200
F 	F 	0.03080 0.93170 0.60830 -0.36600
F 	F 	0.47160 0.90320 0.88100 -0.35300
F 	F 	0.59570 0.90010 0.99640 -0.36500
In	In	0.24997 0.91673 0.75091 2.02700
O 	O 	0.15550 0.77990 0.65370 -0.51200
O 	O 	0.17560 0.88190 0.63760 -0.52000
O 	O 	0.83730 0.78490 0.34470 -0.51200
O 	O 	0.85440 0.88730 0.32290 -0.49000
O 	O 	0.32700 0.95470 0.86190 -0.52300
O 	O 	0.35170 0.05490 0.82960 -0.50000
O 	O 	0.24540 0.83330 0.82670 -0.92700
H 	H 	0.22200 0.83310 0.88000 0.42900
C 	C 	0.14200 0.66840 0.88070 0.55500
C 	C 	0.07440 0.66610 0.95220 -0.23100
C 	C 	0.06080 0.71430 0.01600 0.31200
C 	C 	0.99630 0.71300 0.07890 0.32300
C 	C 	0.94430 0.66520 0.07850 -0.23100
C 	C 	0.95740 0.61610 0.01500 0.31600
C 	C 	0.02230 0.61720 0.95170 0.30900
C 	C 	0.87290 0.66470 0.14250 0.55800
C 	C 	0.36490 0.49670 0.62860 0.55200
C 	C 	0.43420 0.49810 0.56170 -0.24300
C 	C 	0.48240 0.54910 0.55940 0.32100
C 	C 	0.54880 0.55010 0.49840 0.31700
F 	F 	0.11040 0.76290 0.02130 -0.35400
F 	F 	0.98830 0.76140 0.13880 -0.33700
F 	F 	0.90850 0.56730 0.00830 -0.36600
F 	F 	0.03080 0.56830 0.89170 -0.36100
F 	F 	0.47160 0.59680 0.61900 -0.35500
F 	F 	0.59570 0.59990 0.50360 -0.36200
In	In	0.24997 0.58327 0.74909 2.02900
O 	O 	0.15550 0.72010 0.84630 -0.51200
O 	O 	0.17560 0.61810 0.86240 -0.51600
O 	O 	0.83730 0.71510 0.15530 -0.51200
O 	O 	0.85440 0.61270 0.17710 -0.48500
O 	O 	0.32700 0.54530 0.63810 -0.50200
O 	O 	0.35170 0.44510 0.67040 -0.49800
O 	O 	0.24540 0.66670 0.67330 -0.92700
H 	H 	0.22200 0.66690 0.62000 0.43000
C 	C 	0.35800 0.33160 0.88070 0.55400
C 	C 	0.42560 0.33390 0.95220 -0.22800
C 	C 	0.43920 0.28570 0.01600 0.30800
C 	C 	0.50370 0.28700 0.07890 0.32700
C 	C 	0.55570 0.33480 0.07850 -0.23200
C 	C 	0.54260 0.38390 0.01500 0.31700
C 	C 	0.47770 0.38280 0.95170 0.30900
C 	C 	0.62710 0.33530 0.14250 0.55800
C 	C 	0.13510 0.50330 0.62860 0.55200
C 	C 	0.06580 0.50190 0.56170 -0.24300
C 	C 	0.01760 0.45090 0.55940 0.32000
C 	C 	0.95120 0.44990 0.49840 0.31800
F 	F 	0.38960 0.23710 0.02130 -0.35300
F 	F 	0.51170 0.23860 0.13880 -0.33600
F 	F 	0.59150 0.43270 0.00830 -0.36600
F 	F 	0.46920 0.43170 0.89170 -0.36000
F 	F 	0.02840 0.40320 0.61900 -0.35500
F 	F 	0.90430 0.40010 0.50360 -0.36200
In	In	0.25003 0.41673 0.74909 2.02900
O 	O 	0.34450 0.27990 0.84630 -0.51100
O 	O 	0.32440 0.38190 0.86240 -0.51600
O 	O 	0.66270 0.28490 0.15530 -0.51200
O 	O 	0.64560 0.38730 0.17710 -0.48500
O 	O 	0.17300 0.45470 0.63810 -0.50200
O 	O 	0.14830 0.55490 0.67040 -0.49800
O 	O 	0.25460 0.33330 0.67330 -0.92700
H 	H 	0.27800 0.33310 0.62000 0.43000
C 	C 	0.64200 0.83160 0.38070 0.55500
C 	C 	0.57440 0.83390 0.45220 -0.22900
C 	C 	0.56080 0.78570 0.51600 0.30700
C 	C 	0.49630 0.78700 0.57890 0.32700
C 	C 	0.44430 0.83480 0.57850 -0.23400
C 	C 	0.45740 0.88390 0.51500 0.31600
C 	C 	0.52230 0.88280 0.45170 0.30700
C 	C 	0.37290 0.83530 0.64250 0.55900
C 	C 	0.86490 0.00330 0.12860 0.57100
C 	C 	0.93420 0.00190 0.06170 -0.21400
C 	C 	0.98240 0.95090 0.05940 0.29100
C 	C 	0.04880 0.94990 0.99840 0.32700
F 	F 	0.61040 0.73710 0.52130 -0.35400
F 	F 	0.48830 0.73860 0.63880 -0.33600
F 	F 	0.40850 0.93270 0.50830 -0.37200
F 	F 	0.53080 0.93170 0.39170 -0.36600
F 	F 	0.97160 0.90320 0.11900 -0.35300
F 	F 	0.09570 0.90010 0.00360 -0.36400
In	In	0.74997 0.91673 0.24909 2.02700
O 	O 	0.65550 0.77990 0.34630 -0.51200
O 	O 	0.67560 0.88190 0.36240 -0.52000
O 	O 	0.33730 0.78490 0.65530 -0.51200
O 	O 	0.35440 0.88730 0.67710 -0.49000
O 	O 	0.82700 0.95470 0.13810 -0.52200
O 	O 	0.85170 0.05490 0.17040 -0.50000
O 	O 	0.74540 0.83330 0.17330 -0.92700
H 	H 	0.72200 0.83310 0.12000 0.42900
C 	C 	0.85800 0.16840 0.38070 0.55400
C 	C 	0.92560 0.16610 0.45220 -0.22700
C 	C 	0.93920 0.21430 0.51600 0.30900
C 	C 	0.00370 0.21300 0.57890 0.32600
C 	C 	0.05570 0.16520 0.57850 -0.23100
C 	C 	0.04260 0.11610 0.51500 0.31900
C 	C 	0.97770 0.11720 0.45170 0.31000
C 	C 	0.12710 0.16470 0.64250 0.55800
C 	C 	0.63510 0.99670 0.12860 0.53200
C 	C 	0.56580 0.99810 0.06170 -0.27200
C 	C 	0.51760 0.04910 0.05940 0.35300
C 	C 	0.45120 0.05010 0.99840 0.30300
F 	F 	0.88960 0.26290 0.52130 -0.35300
F 	F 	0.01170 0.26140 0.63880 -0.33600
F 	F 	0.09150 0.06730 0.50830 -0.36000
F 	F 	0.96920 0.06830 0.39170 -0.35500
F 	F 	0.52840 0.09680 0.11900 -0.35700
F 	F 	0.40430 0.09990 0.00360 -0.35800
In	In	0.75003 0.08327 0.24909 2.03000
O 	O 	0.84450 0.22010 0.34630 -0.51100
O 	O 	0.82440 0.11810 0.36240 -0.51400
O 	O 	0.16270 0.21510 0.65530 -0.51100
O 	O 	0.14560 0.11270 0.67710 -0.48200
O 	O 	0.67300 0.04530 0.13810 -0.48300
O 	O 	0.64830 0.94510 0.17040 -0.49800
O 	O 	0.75460 0.16670 0.17330 -0.92600
H 	H 	0.77800 0.16690 0.12000 0.43000
C 	C 	0.85800 0.33160 0.11930 0.55600
C 	C 	0.92560 0.33390 0.04780 -0.23200
C 	C 	0.93920 0.28570 0.98400 0.31400
C 	C 	0.00370 0.28700 0.92110 0.32200
C 	C 	0.05570 0.33480 0.92150 -0.23000
C 	C 	0.04260 0.38390 0.98500 0.31500
C 	C 	0.97770 0.38280 0.04830 0.31000
C 	C 	0.12710 0.33530 0.85750 0.55800
C 	C 	0.63510 0.50330 0.37140 0.55200
C 	C 	0.56580 0.50190 0.43830 -0.24300
C 	C 	0.51760 0.45090 0.44060 0.32100
C 	C 	0.45120 0.44990 0.50160 0.31700
F 	F 	0.88960 0.23710 0.97870 -0.35300
F 	F 	0.01170 0.23860 0.86120 -0.33600
F 	F 	0.09150 0.43270 0.99170 -0.36600
F 	F 	0.96920 0.43170 0.10830 -0.36100
F 	F 	0.52840 0.40320 0.38100 -0.35500
F 	F 	0.40430 0.40010 0.49640 -0.36200
In	In	0.75003 0.41673 0.25091 2.02900
O 	O 	0.84450 0.27990 0.15370 -0.51200
O 	O 	0.82440 0.38190 0.13760 -0.51600
O 	O 	0.16270 0.28490 0.84470 -0.51200
O 	O 	0.14560 0.38730 0.82290 -0.48500
O 	O 	0.67300 0.45470 0.36190 -0.50200
O 	O 	0.64830 0.55490 0.32960 -0.49800
O 	O 	0.75460 0.33330 0.32670 -0.92700
H 	H 	0.77800 0.33310 0.38000 0.43000
C 	C 	0.64200 0.66840 0.11930 0.55400
C 	C 	0.57440 0.66610 0.04780 -0.22800
C 	C 	0.56080 0.71430 0.98400 0.30800
C 	C 	0.49630 0.71300 0.92110 0.32700
C 	C 	0.44430 0.66520 0.92150 -0.23300
C 	C 	0.45740 0.61610 0.98500 0.31700
C 	C 	0.52230 0.61720 0.04830 0.30800
C 	C 	0.37290 0.66470 0.85750 0.55800
C 	C 	0.86490 0.49670 0.37140 0.55200
C 	C 	0.93420 0.49810 0.43830 -0.24300
C 	C 	0.98240 0.54910 0.44060 0.32200
C 	C 	0.04880 0.55010 0.50160 0.31600
F 	F 	0.61040 0.76290 0.97870 -0.35400
F 	F 	0.48830 0.76140 0.86120 -0.33700
F 	F 	0.40850 0.56730 0.99170 -0.36600
F 	F 	0.53080 0.56830 0.10830 -0.36000
F 	F 	0.97160 0.59680 0.38100 -0.35500
F 	F 	0.09570 0.59990 0.49640 -0.36200
In	In	0.74997 0.58327 0.25091 2.02900
O 	O 	0.65550 0.72010 0.15370 -0.51200
O 	O 	0.67560 0.61810 0.13760 -0.51600
O 	O 	0.33730 0.71510 0.84470 -0.51200
O 	O 	0.35440 0.61270 0.82290 -0.48500
O 	O 	0.82700 0.54530 0.36190 -0.50200
O 	O 	0.85170 0.44510 0.32960 -0.49800
O 	O 	0.74540 0.66670 0.32670 -0.92700
H 	H 	0.72200 0.66690 0.38000 0.43000
In	In	0.25044 0.25000 0.75000 2.02700
In	In	0.24956 0.75000 0.75000 2.02700
In	In	0.74956 0.75000 0.25000 2.02700
In	In	0.75044 0.25000 0.25000 2.02700
O 	O 	0.25000 0.00000 0.67520 -0.94300
H 	H 	0.25000 -0.00000 0.61570 0.46100
O 	O 	0.25000 0.50000 0.82480 -0.95300
H 	H 	0.25000 0.50000 0.88430 0.45700
O 	O 	0.75000 0.00000 0.32480 -0.94300
H 	H 	0.75000 -0.00000 0.38430 0.46100
O 	O 	0.75000 0.50000 0.17520 -0.95300
H 	H 	0.75000 0.50000 0.11570 0.45700
