data_crystal

_cell_length_a 14.92150
_cell_length_b 15.32260
_cell_length_c 15.98400
_cell_angle_alpha 72.66900
_cell_angle_beta  63.67600
_cell_angle_gamma 63.78800

_symmetry_space_group_name_	'P 1'
_symmetry_space_group_name_H-M	'P 1'

loop_
_symmetry_equiv_pos_as_xyz
  x,y,z

loop_
_atom_site_label
_atom_site_type_symbol
_atom_site_fract_x
_atom_site_fract_y
_atom_site_fract_z
_atom_site_charge
Zn	Zn	0.69815 0.10632 0.15399 1.16500
Zn	Zn	0.21081 0.99600 0.39022 1.18400
Zn	Zn	0.31402 0.09747 0.48442 1.17900
Zn	Zn	0.84251 0.34088 0.35260 1.21100
C 	C 	0.27870 0.97810 0.66730 0.08000
H 	H 	0.29540 0.02340 0.67990 -0.05000
C 	C 	0.24780 0.91750 0.57790 0.09000
C 	C 	0.22700 0.83760 0.64210 0.00000
C 	C 	0.23110 0.83300 0.72710 0.06800
C 	C 	0.20970 0.82540 0.52540 0.03400
C 	C 	0.14720 0.29450 0.50750 0.11700
H 	H 	0.19220 0.29810 0.53120 -0.02700
C 	C 	0.11050 0.20940 0.44540 0.11100
C 	C 	0.01940 0.29040 0.43820 -0.05600
C 	C 	0.99580 0.37610 0.47100 0.16300
C 	C 	0.02860 0.17210 0.38650 0.07800
H 	H 	0.01410 0.13570 0.36000 -0.03000
C 	C 	0.36660 0.97190 0.20530 0.09300
H 	H 	0.32000 0.94710 0.20500 -0.01900
C 	C 	0.41690 0.03250 0.28270 0.11400
C 	C 	0.50160 0.04000 0.20440 -0.06700
C 	C 	0.51830 0.01680 0.11940 0.15300
C 	C 	0.49570 0.09820 0.31320 0.08100
H 	H 	0.51110 0.12780 0.34550 -0.04400
C 	C 	0.07010 0.85910 0.31800 -0.15900
H 	H 	0.01940 0.84860 0.38160 0.07000
C 	C 	0.00880 0.93290 0.26640 -0.02900
H 	H 	0.97640 0.99350 0.29350 0.03800
H 	H 	0.95130 0.91460 0.27320 0.02800
C 	C 	0.07500 0.95190 0.15850 -0.10100
H 	H 	0.02910 0.00410 0.12710 0.05500
H 	H 	0.13310 0.97060 0.14970 0.06500
C 	C 	0.11980 0.85510 0.11820 -0.11800
H 	H 	0.05950 0.83750 0.12890 0.07000
C 	C 	0.18730 0.77690 0.16990 -0.08000
H 	H 	0.24620 0.79430 0.16110 0.07000
H 	H 	0.21720 0.71570 0.14440 0.04600
C 	C 	0.12100 0.76280 0.27600 -0.05400
H 	H 	0.06520 0.74080 0.28510 0.04400
H 	H 	0.16720 0.71290 0.30830 0.05300
C 	C 	0.15190 0.88640 0.32860 0.40000
C 	C 	0.17970 0.86720 0.01670 0.30100
C 	C 	0.47420 0.20230 0.57550 -0.11200
H 	H 	0.53780 0.14190 0.56840 0.03700
C 	C 	0.45520 0.23900 0.66110 -0.05900
H 	H 	0.43110 0.19500 0.71630 0.04900
H 	H 	0.52250 0.23750 0.65730 0.04500
C 	C 	0.37430 0.34060 0.67290 -0.09500
H 	H 	0.36880 0.36170 0.72710 0.06500
H 	H 	0.30460 0.34150 0.68380 0.07700
C 	C 	0.40760 0.41070 0.58480 -0.10100
H 	H 	0.47840 0.40730 0.57560 0.07000
C 	C 	0.41900 0.37700 0.49970 -0.08100
H 	H 	0.44050 0.42160 0.44390 0.05900
H 	H 	0.35060 0.37750 0.50730 0.06400
C 	C 	0.50420 0.27210 0.48760 -0.07200
H 	H 	0.50930 0.25000 0.43430 0.04800
H 	H 	0.57370 0.27270 0.47530 0.05200
C 	C 	0.38260 0.17240 0.58470 0.35000
C 	C 	0.33120 0.51360 0.60110 0.29500
C 	C 	0.95620 0.48580 0.09780 -0.08700
H 	H 	0.93250 0.55500 0.10430 0.06700
C 	C 	0.89950 0.48750 0.04670 -0.08200
H 	H 	0.82330 0.51950 0.07950 0.05300
H 	H 	0.91230 0.42070 0.04300 0.06400
C 	C 	0.06630 0.45730 0.05530 -0.08500
H 	H 	0.09730 0.38720 0.05250 0.05600
H 	H 	0.09390 0.47080 0.09280 0.05000
C 	C 	0.92530 0.43730 0.19720 0.26400
N 	N 	0.26030 0.90590 0.73300 -0.28000
N 	N 	0.27430 0.98900 0.58160 -0.30700
N 	N 	0.20090 0.77830 0.61290 -0.24000
N 	N 	0.23480 0.90740 0.50190 -0.30400
N 	N 	0.20200 0.75720 0.79500 -0.27900
H 	H 	0.24410 0.73040 0.82680 0.10400
H 	H 	0.13670 0.78240 0.83330 0.13800
N 	N 	0.06810 0.37170 0.50540 -0.17100
N 	N 	0.17690 0.20770 0.48090 -0.31800
N 	N 	0.96780 0.26360 0.40110 -0.24200
N 	N 	0.11380 0.13550 0.41310 -0.30900
N 	N 	0.91640 0.45630 0.46510 -0.33400
H 	H 	0.90770 0.50820 0.48270 0.17600
H 	H 	0.87210 0.45780 0.44350 0.16100
N 	N 	0.44780 0.97870 0.12350 -0.16000
N 	N 	0.34630 0.99680 0.28640 -0.31700
N 	N 	0.55600 0.08150 0.22540 -0.26600
N 	N 	0.41030 0.06990 0.35370 -0.31800
N 	N 	0.59090 0.02920 0.03760 -0.33200
H 	H 	0.59360 0.01390 0.98880 0.17100
H 	H 	0.63610 0.05280 0.03250 0.15300
O 	O 	0.14770 0.86170 0.95920 -0.39500
O 	O 	0.26660 0.88520 0.98530 -0.46400
O 	O 	0.12440 0.95920 0.35480 -0.53500
O 	O 	0.24850 0.81760 0.31960 -0.31400
O 	O 	0.40120 0.14180 0.51150 -0.49700
O 	O 	0.30220 0.17790 0.65710 -0.31500
O 	O 	0.26760 0.55820 0.55470 -0.41700
O 	O 	0.31790 0.54940 0.66780 -0.35800
O 	O 	0.91380 0.35120 0.21190 -0.40400
O 	O 	0.90360 0.47380 0.26700 -0.34200
Zn	Zn	0.30185 0.89368 0.84601 1.16400
Zn	Zn	0.78919 0.00400 0.60978 1.18300
Zn	Zn	0.68598 0.90253 0.51558 1.17800
Zn	Zn	0.15749 0.65912 0.64740 1.21000
C 	C 	0.72130 0.02190 0.33270 0.07900
H 	H 	0.70460 0.97660 0.32010 -0.05100
C 	C 	0.75220 0.08250 0.42210 0.09000
C 	C 	0.77300 0.16240 0.35790 0.00000
C 	C 	0.76890 0.16700 0.27290 0.06800
C 	C 	0.79030 0.17460 0.47460 0.03400
C 	C 	0.85280 0.70550 0.49250 0.11700
H 	H 	0.80780 0.70190 0.46880 -0.02700
C 	C 	0.88950 0.79060 0.55460 0.11100
C 	C 	0.98060 0.70960 0.56180 -0.05600
C 	C 	0.00420 0.62390 0.52900 0.16300
C 	C 	0.97140 0.82790 0.61350 0.07800
H 	H 	0.98590 0.86430 0.64000 -0.03000
C 	C 	0.63340 0.02810 0.79470 0.09300
H 	H 	0.68000 0.05290 0.79500 -0.01900
C 	C 	0.58310 0.96750 0.71730 0.11400
C 	C 	0.49840 0.96000 0.79560 -0.06700
C 	C 	0.48170 0.98320 0.88060 0.15300
C 	C 	0.50430 0.90180 0.68680 0.08100
H 	H 	0.48890 0.87220 0.65450 -0.04400
C 	C 	0.92990 0.14090 0.68200 -0.15900
H 	H 	0.98060 0.15140 0.61840 0.07000
C 	C 	0.99120 0.06710 0.73360 -0.02900
H 	H 	0.02360 0.00650 0.70650 0.03800
H 	H 	0.04870 0.08540 0.72680 0.02800
C 	C 	0.92500 0.04810 0.84150 -0.10100
H 	H 	0.97090 0.99590 0.87290 0.05500
H 	H 	0.86690 0.02940 0.85030 0.06500
C 	C 	0.88020 0.14490 0.88180 -0.11800
H 	H 	0.94050 0.16250 0.87110 0.07000
C 	C 	0.81270 0.22310 0.83010 -0.08000
H 	H 	0.75380 0.20570 0.83890 0.07000
H 	H 	0.78280 0.28430 0.85560 0.04600
C 	C 	0.87900 0.23720 0.72400 -0.05400
H 	H 	0.93480 0.25920 0.71490 0.04400
H 	H 	0.83280 0.28710 0.69170 0.05300
C 	C 	0.84810 0.11360 0.67140 0.40000
C 	C 	0.82030 0.13280 0.98330 0.30100
C 	C 	0.52580 0.79770 0.42450 -0.11200
H 	H 	0.46220 0.85810 0.43160 0.03700
C 	C 	0.54480 0.76100 0.33890 -0.05900
H 	H 	0.56890 0.80500 0.28370 0.04900
H 	H 	0.47750 0.76250 0.34270 0.04500
C 	C 	0.62570 0.65940 0.32710 -0.09500
H 	H 	0.63120 0.63830 0.27290 0.06500
H 	H 	0.69540 0.65850 0.31620 0.07700
C 	C 	0.59240 0.58930 0.41520 -0.10100
H 	H 	0.52160 0.59270 0.42440 0.07000
C 	C 	0.58100 0.62300 0.50030 -0.08100
H 	H 	0.55950 0.57840 0.55610 0.05900
H 	H 	0.64940 0.62250 0.49270 0.06400
C 	C 	0.49580 0.72790 0.51240 -0.07200
H 	H 	0.49070 0.75000 0.56570 0.04800
H 	H 	0.42630 0.72730 0.52470 0.05200
C 	C 	0.61740 0.82760 0.41530 0.35000
C 	C 	0.66880 0.48640 0.39890 0.29500
C 	C 	0.04380 0.51420 0.90220 -0.08700
H 	H 	0.06750 0.44500 0.89570 0.06700
C 	C 	0.10050 0.51250 0.95330 -0.08200
H 	H 	0.17670 0.48050 0.92050 0.05300
H 	H 	0.08770 0.57930 0.95700 0.06400
C 	C 	0.93370 0.54270 0.94470 -0.08500
H 	H 	0.90270 0.61280 0.94750 0.05600
H 	H 	0.90610 0.52920 0.90720 0.05000
C 	C 	0.07470 0.56270 0.80280 0.26400
N 	N 	0.73970 0.09410 0.26700 -0.28000
N 	N 	0.72570 0.01100 0.41840 -0.30700
N 	N 	0.79910 0.22170 0.38710 -0.24000
N 	N 	0.76520 0.09260 0.49810 -0.30400
N 	N 	0.79800 0.24280 0.20500 -0.27900
H 	H 	0.75590 0.26960 0.17320 0.10400
H 	H 	0.86330 0.21760 0.16670 0.13800
N 	N 	0.93190 0.62830 0.49460 -0.17100
N 	N 	0.82310 0.79230 0.51910 -0.31800
N 	N 	0.03220 0.73640 0.59890 -0.24200
N 	N 	0.88620 0.86450 0.58690 -0.30900
N 	N 	0.08360 0.54370 0.53490 -0.33400
H 	H 	0.09230 0.49180 0.51730 0.17600
H 	H 	0.12790 0.54220 0.55650 0.16100
N 	N 	0.55220 0.02130 0.87650 -0.16000
N 	N 	0.65370 0.00320 0.71360 -0.31700
N 	N 	0.44400 0.91850 0.77460 -0.26600
N 	N 	0.58970 0.93010 0.64630 -0.31800
N 	N 	0.40910 0.97080 0.96240 -0.33200
H 	H 	0.40640 0.98610 0.01120 0.17100
H 	H 	0.36390 0.94720 0.96750 0.15300
O 	O 	0.85230 0.13830 0.04080 -0.39500
O 	O 	0.73340 0.11480 0.01470 -0.46400
O 	O 	0.87560 0.04080 0.64520 -0.53500
O 	O 	0.75150 0.18240 0.68040 -0.31400
O 	O 	0.59880 0.85820 0.48850 -0.49700
O 	O 	0.69780 0.82210 0.34290 -0.31500
O 	O 	0.73240 0.44180 0.44530 -0.41700
O 	O 	0.68210 0.45060 0.33220 -0.35800
O 	O 	0.08620 0.64880 0.78810 -0.40400
O 	O 	0.09640 0.52620 0.73300 -0.34200
