data_crystal

_cell_length_a 24.03800
_cell_length_b 23.21700
_cell_length_c 15.26300
_cell_angle_alpha 90.00000
_cell_angle_beta  115.73000
_cell_angle_gamma 90.00000

_symmetry_space_group_name_	'P 1'
_symmetry_space_group_name_H-M	'P 1'

loop_
_symmetry_equiv_pos_as_xyz
  x,y,z

loop_
_atom_site_label
_atom_site_type_symbol
_atom_site_fract_x
_atom_site_fract_y
_atom_site_fract_z
_atom_site_charge
C 	C 	0.73870 0.38020 0.28270 0.36500
C 	C 	0.73270 0.41950 0.36020 -0.09700
C 	C 	0.76900 0.46760 0.39300 0.03200
H 	H 	0.79700 0.47780 0.36670 0.04000
C 	C 	0.76460 0.50170 0.46530 -0.10300
C 	C 	0.72110 0.48720 0.50160 0.01700
H 	H 	0.71710 0.51110 0.54920 0.04200
C 	C 	0.68520 0.43960 0.46930 -0.08600
H 	H 	0.65690 0.43010 0.49540 0.05700
C 	C 	0.68930 0.40460 0.39810 0.01700
H 	H 	0.66380 0.37150 0.37500 0.03600
C 	C 	0.80120 0.55640 0.49820 0.33300
C 	C 	0.85330 0.73920 0.83020 0.40500
C 	C 	0.90620 0.76620 0.91700 -0.16500
C 	C 	0.96450 0.74140 0.95250 0.11500
H 	H 	0.97000 0.70610 0.92570 0.01600
C 	C 	0.01460 0.76770 0.02660 -0.17400
C 	C 	0.00480 0.81850 0.06710 0.08300
H 	H 	0.03890 0.83740 0.11680 0.01100
C 	C 	0.94630 0.84170 0.03640 -0.17700
H 	H 	0.94010 0.87500 0.06730 0.08300
C 	C 	0.89690 0.81600 0.96020 0.10800
H 	H 	0.85670 0.83220 0.93740 0.01100
C 	C 	0.07870 0.74320 0.05570 0.37600
C 	C 	0.61310 0.76200 0.36540 0.35800
C 	C 	0.55490 0.73420 0.30330 -0.12600
C 	C 	0.55620 0.67450 0.25390 0.01800
H 	H 	0.59670 0.66170 0.25690 0.04000
C 	C 	0.50300 0.65050 0.18150 -0.07600
H 	H 	0.50540 0.61330 0.15740 0.05600
C 	C 	0.55020 0.67750 0.35450 0.01300
H 	H 	0.58480 0.66480 0.41700 0.04800
C 	C 	0.95220 0.58680 0.81060 0.10600
H 	H 	0.96550 0.62530 0.81120 -0.00700
C 	C 	0.99550 0.54500 0.86410 -0.21200
H 	H 	0.03780 0.55500 0.89900 0.09700
C 	C 	0.97610 0.48830 0.86600 0.20700
C 	C 	0.91570 0.47590 0.81490 -0.23300
H 	H 	0.90080 0.43810 0.81580 0.10900
C 	C 	0.87600 0.51870 0.76140 0.12100
H 	H 	0.83390 0.50860 0.72370 -0.00900
C 	C 	0.02090 0.44570 0.93190 -0.30900
H 	H 	0.05240 0.46570 0.98920 0.13200
H 	H 	0.99910 0.41780 0.95510 0.12500
C 	C 	0.05250 0.41360 0.87760 0.07300
H 	H 	0.02120 0.39120 0.82320 0.00900
H 	H 	0.07130 0.44180 0.84990 0.01300
C 	C 	0.10280 0.37250 0.94660 -0.25000
H 	H 	0.08430 0.34440 0.97520 0.11500
H 	H 	0.13470 0.39470 0.00030 0.09100
C 	C 	0.13120 0.34170 0.89040 0.16900
C 	C 	0.17760 0.36790 0.86800 -0.17700
H 	H 	0.19240 0.40530 0.89210 0.10000
C 	C 	0.20130 0.33920 0.81160 0.08400
H 	H 	0.23330 0.35700 0.80050 0.00000
C 	C 	0.13570 0.26170 0.79270 0.09700
H 	H 	0.12020 0.22480 0.76650 0.00400
C 	C 	0.11170 0.28850 0.85150 -0.19000
H 	H 	0.08120 0.26920 0.86440 0.10000
Co	Co	0.82369 0.63849 0.68548 1.17000
Co	Co	0.71896 0.73913 0.68669 1.16300
Co	Co	0.85174 0.65537 0.48761 1.15100
N 	N 	0.89230 0.57390 0.75840 -0.23900
N 	N 	0.18020 0.28610 0.77130 -0.22400
O 	O 	0.74970 0.68960 0.59950 -0.56600
O 	O 	0.77450 0.69440 0.40690 -0.57700
O 	O 	0.76910 0.40400 0.23990 -0.40800
O 	O 	0.71400 0.33330 0.26750 -0.42200
O 	O 	0.79100 0.58670 0.56030 -0.44700
O 	O 	0.83760 0.57180 0.46190 -0.44600
O 	O 	0.86500 0.69080 0.80370 -0.45200
O 	O 	0.80450 0.76670 0.79050 -0.44000
O 	O 	0.12380 0.77690 0.08970 -0.43100
O 	O 	0.08090 0.68960 0.03950 -0.46700
O 	O 	0.65800 0.73020 0.40930 -0.45200
O 	O 	0.61391 0.81796 0.37220 -0.54600
C 	C 	0.23870 0.88020 0.28270 0.36200
C 	C 	0.23270 0.91950 0.36020 -0.09300
C 	C 	0.26900 0.96760 0.39300 0.02100
H 	H 	0.29700 0.97780 0.36670 0.04100
C 	C 	0.26460 0.00170 0.46530 -0.09100
C 	C 	0.22110 0.98720 0.50160 0.00100
H 	H 	0.21710 0.01110 0.54920 0.04800
C 	C 	0.18520 0.93960 0.46930 -0.07600
H 	H 	0.15690 0.93010 0.49540 0.05300
C 	C 	0.18930 0.90460 0.39810 0.00900
H 	H 	0.16380 0.87150 0.37500 0.03800
C 	C 	0.30120 0.05640 0.49820 0.33000
C 	C 	0.35330 0.23920 0.83020 0.40600
C 	C 	0.40620 0.26620 0.91700 -0.16700
C 	C 	0.46450 0.24140 0.95250 0.11800
H 	H 	0.47000 0.20610 0.92570 0.01500
C 	C 	0.51460 0.26770 0.02660 -0.17600
C 	C 	0.50480 0.31850 0.06710 0.08900
H 	H 	0.53890 0.33740 0.11680 0.01000
C 	C 	0.44630 0.34170 0.03640 -0.18400
H 	H 	0.44010 0.37500 0.06730 0.08500
C 	C 	0.39690 0.31600 0.96020 0.11300
H 	H 	0.35670 0.33220 0.93740 0.00900
C 	C 	0.57870 0.24320 0.05570 0.37600
C 	C 	0.11310 0.26200 0.36540 0.35800
C 	C 	0.05490 0.23420 0.30330 -0.12500
C 	C 	0.05620 0.17450 0.25390 0.01900
H 	H 	0.09670 0.16170 0.25690 0.04000
C 	C 	0.00300 0.15050 0.18150 -0.07900
H 	H 	0.00540 0.11330 0.15740 0.05600
C 	C 	0.05020 0.17750 0.35450 0.01100
H 	H 	0.08480 0.16480 0.41700 0.04900
C 	C 	0.45220 0.08680 0.81060 0.10400
H 	H 	0.46550 0.12530 0.81120 -0.00600
C 	C 	0.49550 0.04500 0.86410 -0.20700
H 	H 	0.53780 0.05500 0.89900 0.09600
C 	C 	0.47610 0.98830 0.86600 0.20400
C 	C 	0.41570 0.97590 0.81490 -0.23600
H 	H 	0.40080 0.93810 0.81580 0.11000
C 	C 	0.37600 0.01870 0.76140 0.12500
H 	H 	0.33390 0.00860 0.72370 -0.00900
C 	C 	0.52090 0.94570 0.93190 -0.30700
H 	H 	0.55240 0.96570 0.98920 0.13000
H 	H 	0.49910 0.91780 0.95510 0.12400
C 	C 	0.55250 0.91360 0.87760 0.07300
H 	H 	0.52120 0.89120 0.82320 0.01000
H 	H 	0.57130 0.94180 0.84990 0.01300
C 	C 	0.60280 0.87250 0.94660 -0.25200
H 	H 	0.58430 0.84440 0.97520 0.11500
H 	H 	0.63470 0.89470 0.00030 0.09200
C 	C 	0.63120 0.84170 0.89040 0.17000
C 	C 	0.67760 0.86790 0.86800 -0.17700
H 	H 	0.69240 0.90530 0.89210 0.09900
C 	C 	0.70130 0.83920 0.81160 0.08400
H 	H 	0.73330 0.85700 0.80050 -0.00000
C 	C 	0.63570 0.76170 0.79270 0.09700
H 	H 	0.62020 0.72480 0.76650 0.00400
C 	C 	0.61170 0.78850 0.85150 -0.19000
H 	H 	0.58120 0.76920 0.86440 0.10000
Co	Co	0.32369 0.13849 0.68548 1.17000
Co	Co	0.21896 0.23913 0.68669 1.16300
Co	Co	0.35174 0.15537 0.48761 1.15100
N 	N 	0.39230 0.07390 0.75840 -0.23900
N 	N 	0.68020 0.78610 0.77130 -0.22400
O 	O 	0.24970 0.18960 0.59950 -0.56600
O 	O 	0.27450 0.19440 0.40690 -0.57700
O 	O 	0.26910 0.90400 0.23990 -0.40800
O 	O 	0.21400 0.83330 0.26750 -0.42200
O 	O 	0.29100 0.08670 0.56030 -0.44600
O 	O 	0.33760 0.07180 0.46190 -0.44500
O 	O 	0.36500 0.19080 0.80370 -0.45200
O 	O 	0.30450 0.26670 0.79050 -0.44100
O 	O 	0.62380 0.27690 0.08970 -0.43100
O 	O 	0.58090 0.18960 0.03950 -0.46700
O 	O 	0.15800 0.23020 0.40930 -0.45200
O 	O 	0.11391 0.31796 0.37220 -0.54600
C 	C 	0.26130 0.38020 0.21730 0.37300
C 	C 	0.26730 0.41950 0.13980 -0.12700
C 	C 	0.23100 0.46760 0.10700 0.06400
H 	H 	0.20300 0.47780 0.13330 0.02800
C 	C 	0.23540 0.50170 0.03470 -0.15500
C 	C 	0.27890 0.48720 0.99840 0.11000
H 	H 	0.28290 0.51110 0.95080 0.01700
C 	C 	0.31480 0.43960 0.03070 -0.16600
H 	H 	0.34310 0.43010 0.00460 0.07600
C 	C 	0.31070 0.40460 0.10190 0.05900
H 	H 	0.33620 0.37150 0.12500 0.02000
C 	C 	0.19880 0.55640 0.00180 0.32600
C 	C 	0.14670 0.73920 0.66980 0.39000
C 	C 	0.09380 0.76620 0.58300 -0.12800
C 	C 	0.03550 0.74140 0.54750 0.05300
H 	H 	0.03000 0.70610 0.57430 0.03000
C 	C 	0.98540 0.76770 0.47340 -0.11900
C 	C 	0.99520 0.81850 0.43290 0.03900
H 	H 	0.96110 0.83740 0.38320 0.02800
C 	C 	0.05370 0.84170 0.46360 -0.11000
H 	H 	0.05990 0.87500 0.43270 0.06400
C 	C 	0.10310 0.81600 0.53980 0.04200
H 	H 	0.14330 0.83220 0.56260 0.02700
C 	C 	0.92130 0.74320 0.44430 0.36100
C 	C 	0.38690 0.76200 0.13460 0.35800
C 	C 	0.44510 0.73420 0.19670 -0.12800
C 	C 	0.44380 0.67450 0.24610 0.01900
H 	H 	0.40330 0.66170 0.24310 0.04000
C 	C 	0.49700 0.65050 0.31850 -0.07500
H 	H 	0.49460 0.61330 0.34260 0.05800
C 	C 	0.44980 0.67750 0.14550 0.01200
H 	H 	0.41520 0.66480 0.08300 0.04300
C 	C 	0.04780 0.58680 0.68940 0.10400
H 	H 	0.03450 0.62530 0.68880 -0.00900
C 	C 	0.00450 0.54500 0.63590 -0.21400
H 	H 	0.96220 0.55500 0.60100 0.09200
C 	C 	0.02390 0.48830 0.63400 0.20400
C 	C 	0.08430 0.47590 0.68510 -0.23300
H 	H 	0.09920 0.43810 0.68420 0.10800
C 	C 	0.12400 0.51870 0.73860 0.12100
H 	H 	0.16610 0.50860 0.77630 -0.00700
C 	C 	0.97910 0.44570 0.56810 -0.31100
H 	H 	0.94760 0.46570 0.51080 0.12400
H 	H 	0.00090 0.41780 0.54490 0.12000
C 	C 	0.94750 0.41360 0.62240 0.09000
H 	H 	0.97880 0.39120 0.67680 0.00500
H 	H 	0.92870 0.44180 0.65010 0.00700
C 	C 	0.89720 0.37250 0.55340 -0.29700
H 	H 	0.91570 0.34440 0.52480 0.12100
H 	H 	0.86530 0.39470 0.49970 0.11900
C 	C 	0.86880 0.34170 0.60960 0.18200
C 	C 	0.82240 0.36790 0.63200 -0.18700
H 	H 	0.80760 0.40530 0.60790 0.09800
C 	C 	0.79870 0.33920 0.68840 0.08600
H 	H 	0.76670 0.35700 0.69950 -0.00300
C 	C 	0.86430 0.26170 0.70730 0.10000
H 	H 	0.87980 0.22480 0.73350 0.00200
C 	C 	0.88830 0.28850 0.64850 -0.20000
H 	H 	0.91880 0.26920 0.63560 0.10100
Co	Co	0.17631 0.63849 0.81452 1.17000
Co	Co	0.28104 0.73913 0.81331 1.16300
Co	Co	0.14826 0.65537 0.01239 1.14500
N 	N 	0.10770 0.57390 0.74160 -0.23800
N 	N 	0.81980 0.28610 0.72870 -0.22600
O 	O 	0.25030 0.68960 0.90050 -0.55800
O 	O 	0.22550 0.69440 0.09310 -0.58100
O 	O 	0.23090 0.40400 0.26010 -0.40900
O 	O 	0.28600 0.33330 0.23250 -0.42500
O 	O 	0.20900 0.58670 0.93970 -0.43100
O 	O 	0.16240 0.57180 0.03810 -0.45000
O 	O 	0.13500 0.69080 0.69630 -0.45000
O 	O 	0.19550 0.76670 0.70950 -0.43800
O 	O 	0.87620 0.77690 0.41030 -0.42300
O 	O 	0.91910 0.68960 0.46050 -0.45700
O 	O 	0.34200 0.73020 0.09070 -0.45800
O 	O 	0.38609 0.81796 0.12780 -0.55200
C 	C 	0.76130 0.88020 0.21730 0.37100
C 	C 	0.76730 0.91950 0.13980 -0.12000
C 	C 	0.73100 0.96760 0.10700 0.05300
H 	H 	0.70300 0.97780 0.13330 0.03100
C 	C 	0.73540 0.00170 0.03470 -0.14100
C 	C 	0.77890 0.98720 0.99840 0.08900
H 	H 	0.78290 0.01110 0.95080 0.02500
C 	C 	0.81480 0.93960 0.03070 -0.15100
H 	H 	0.84310 0.93010 0.00460 0.07100
C 	C 	0.81070 0.90460 0.10190 0.04900
H 	H 	0.83620 0.87150 0.12500 0.02300
C 	C 	0.69880 0.05640 0.00180 0.32200
C 	C 	0.64670 0.23920 0.66980 0.39000
C 	C 	0.59380 0.26620 0.58300 -0.12800
C 	C 	0.53550 0.24140 0.54750 0.05400
H 	H 	0.53000 0.20610 0.57430 0.03000
C 	C 	0.48540 0.26770 0.47340 -0.12000
C 	C 	0.49520 0.31850 0.43290 0.03800
H 	H 	0.46110 0.33740 0.38320 0.02800
C 	C 	0.55370 0.34170 0.46360 -0.10900
H 	H 	0.55990 0.37500 0.43270 0.06400
C 	C 	0.60310 0.31600 0.53980 0.04200
H 	H 	0.64330 0.33220 0.56260 0.02700
C 	C 	0.42130 0.24320 0.44430 0.36100
C 	C 	0.88690 0.26200 0.13460 0.35700
C 	C 	0.94510 0.23420 0.19670 -0.12700
C 	C 	0.94380 0.17450 0.24610 0.01800
H 	H 	0.90330 0.16170 0.24310 0.04000
C 	C 	0.99700 0.15050 0.31850 -0.07300
H 	H 	0.99460 0.11330 0.34260 0.05800
C 	C 	0.94980 0.17750 0.14550 0.01400
H 	H 	0.91520 0.16480 0.08300 0.04200
C 	C 	0.54780 0.08680 0.68940 0.10200
H 	H 	0.53450 0.12530 0.68880 -0.00800
C 	C 	0.50450 0.04500 0.63590 -0.20900
H 	H 	0.46220 0.05500 0.60100 0.09100
C 	C 	0.52390 0.98830 0.63400 0.20200
C 	C 	0.58430 0.97590 0.68510 -0.23700
H 	H 	0.59920 0.93810 0.68420 0.10900
C 	C 	0.62400 0.01870 0.73860 0.12500
H 	H 	0.66610 0.00860 0.77630 -0.00700
C 	C 	0.47910 0.94570 0.56810 -0.31100
H 	H 	0.44760 0.96570 0.51080 0.12300
H 	H 	0.50090 0.91780 0.54490 0.12100
C 	C 	0.44750 0.91360 0.62240 0.09000
H 	H 	0.47880 0.89120 0.67680 0.00500
H 	H 	0.42870 0.94180 0.65010 0.00600
C 	C 	0.39720 0.87250 0.55340 -0.29700
H 	H 	0.41570 0.84440 0.52480 0.12100
H 	H 	0.36530 0.89470 0.49970 0.11900
C 	C 	0.36880 0.84170 0.60960 0.18200
C 	C 	0.32240 0.86790 0.63200 -0.18700
H 	H 	0.30760 0.90530 0.60790 0.09800
C 	C 	0.29870 0.83920 0.68840 0.08600
H 	H 	0.26670 0.85700 0.69950 -0.00300
C 	C 	0.36430 0.76170 0.70730 0.10000
H 	H 	0.37980 0.72480 0.73350 0.00200
C 	C 	0.38830 0.78850 0.64850 -0.20000
H 	H 	0.41880 0.76920 0.63560 0.10100
Co	Co	0.67631 0.13849 0.81452 1.17000
Co	Co	0.78104 0.23913 0.81331 1.16300
Co	Co	0.64826 0.15537 0.01239 1.14500
N 	N 	0.60770 0.07390 0.74160 -0.23800
N 	N 	0.31980 0.78610 0.72870 -0.22600
O 	O 	0.75030 0.18960 0.90050 -0.55800
O 	O 	0.72550 0.19440 0.09310 -0.58100
O 	O 	0.73090 0.90400 0.26010 -0.40900
O 	O 	0.78600 0.83330 0.23250 -0.42500
O 	O 	0.70900 0.08670 0.93970 -0.43000
O 	O 	0.66240 0.07180 0.03810 -0.44800
O 	O 	0.63500 0.19080 0.69630 -0.45000
O 	O 	0.69550 0.26670 0.70950 -0.43800
O 	O 	0.37620 0.27690 0.41030 -0.42300
O 	O 	0.41910 0.18960 0.46050 -0.45700
O 	O 	0.84200 0.23020 0.09070 -0.45800
O 	O 	0.88609 0.31796 0.12780 -0.55200
C 	C 	0.26130 0.61980 0.71730 0.36500
C 	C 	0.26730 0.58050 0.63980 -0.09700
C 	C 	0.23100 0.53240 0.60700 0.03100
H 	H 	0.20300 0.52220 0.63330 0.03900
C 	C 	0.23540 0.49830 0.53470 -0.10300
C 	C 	0.27890 0.51280 0.49840 0.01700
H 	H 	0.28290 0.48890 0.45080 0.04200
C 	C 	0.31480 0.56040 0.53070 -0.08600
H 	H 	0.34310 0.56990 0.50460 0.05700
C 	C 	0.31070 0.59540 0.60190 0.01700
H 	H 	0.33620 0.62850 0.62500 0.03600
C 	C 	0.19880 0.44360 0.50180 0.33400
C 	C 	0.14670 0.26080 0.16980 0.37500
C 	C 	0.09380 0.23380 0.08300 -0.08800
C 	C 	0.03550 0.25860 0.04750 -0.01000
H 	H 	0.03000 0.29390 0.07430 0.04500
C 	C 	0.98540 0.23230 0.97340 -0.06200
C 	C 	0.99520 0.18150 0.93290 -0.01300
H 	H 	0.96110 0.16260 0.88320 0.04700
C 	C 	0.05370 0.15830 0.96360 -0.03300
H 	H 	0.05990 0.12500 0.93270 0.04300
C 	C 	0.10310 0.18400 0.03980 -0.03000
H 	H 	0.14330 0.16780 0.06260 0.04500
C 	C 	0.92130 0.25680 0.94430 0.34500
C 	C 	0.38690 0.23800 0.63460 0.35800
C 	C 	0.44510 0.26580 0.69670 -0.12500
C 	C 	0.44380 0.32550 0.74610 0.01900
H 	H 	0.40330 0.33830 0.74310 0.04100
C 	C 	0.49700 0.34950 0.81850 -0.07300
H 	H 	0.49460 0.38670 0.84260 0.06100
C 	C 	0.44980 0.32250 0.64550 0.01200
H 	H 	0.41520 0.33520 0.58300 0.04900
C 	C 	0.04780 0.41320 0.18940 0.10100
H 	H 	0.03450 0.37470 0.18880 -0.01000
C 	C 	0.00450 0.45500 0.13590 -0.21500
H 	H 	0.96220 0.44500 0.10100 0.08800
C 	C 	0.02390 0.51170 0.13400 0.20000
C 	C 	0.08430 0.52410 0.18510 -0.23300
H 	H 	0.09920 0.56190 0.18420 0.10800
C 	C 	0.12400 0.48130 0.23860 0.11900
H 	H 	0.16610 0.49140 0.27630 -0.00700
C 	C 	0.97910 0.55430 0.06810 -0.31200
H 	H 	0.94760 0.53430 0.01080 0.11600
H 	H 	0.00090 0.58220 0.04490 0.11600
C 	C 	0.94750 0.58640 0.12240 0.10500
H 	H 	0.97880 0.60880 0.17680 0.00100
H 	H 	0.92870 0.55820 0.15010 0.00100
C 	C 	0.89720 0.62750 0.05340 -0.34200
H 	H 	0.91570 0.65560 0.02480 0.12700
H 	H 	0.86530 0.60530 0.99970 0.14600
C 	C 	0.86880 0.65830 0.10960 0.19400
C 	C 	0.82240 0.63210 0.13200 -0.19800
H 	H 	0.80760 0.59470 0.10790 0.09700
C 	C 	0.79870 0.66080 0.18840 0.08900
H 	H 	0.76670 0.64300 0.19950 -0.00600
C 	C 	0.86430 0.73830 0.20730 0.10300
H 	H 	0.87980 0.77520 0.23350 0.00100
C 	C 	0.88830 0.71150 0.14850 -0.21000
H 	H 	0.91880 0.73080 0.13560 0.10300
Co	Co	0.17631 0.36151 0.31452 1.17000
Co	Co	0.28104 0.26087 0.31331 1.16300
Co	Co	0.14826 0.34463 0.51239 1.15100
N 	N 	0.10770 0.42610 0.24160 -0.23900
N 	N 	0.81980 0.71390 0.22870 -0.22800
O 	O 	0.25030 0.31040 0.40050 -0.56500
O 	O 	0.22550 0.30560 0.59310 -0.57700
O 	O 	0.23090 0.59600 0.76010 -0.40600
O 	O 	0.28600 0.66670 0.73250 -0.42200
O 	O 	0.20900 0.41330 0.43970 -0.44700
O 	O 	0.16240 0.42820 0.53810 -0.44600
O 	O 	0.13500 0.30920 0.19630 -0.44800
O 	O 	0.19550 0.23330 0.20950 -0.43500
O 	O 	0.87620 0.22310 0.91030 -0.41400
O 	O 	0.91910 0.31040 0.96050 -0.44600
O 	O 	0.34200 0.26980 0.59070 -0.45200
O 	O 	0.38609 0.18204 0.62780 -0.54600
C 	C 	0.76130 0.11980 0.71730 0.36700
C 	C 	0.76730 0.08050 0.63980 -0.10300
C 	C 	0.73100 0.03240 0.60700 0.04100
H 	H 	0.70300 0.02220 0.63330 0.03700
C 	C 	0.73540 0.99830 0.53470 -0.11500
C 	C 	0.77890 0.01280 0.49840 0.03300
H 	H 	0.78290 0.98890 0.45080 0.03500
C 	C 	0.81480 0.06040 0.53070 -0.09600
H 	H 	0.84310 0.06990 0.50460 0.06100
C 	C 	0.81070 0.09540 0.60190 0.02400
H 	H 	0.83620 0.12850 0.62500 0.03400
C 	C 	0.69880 0.94360 0.50180 0.33700
C 	C 	0.64670 0.76080 0.16980 0.37500
C 	C 	0.59380 0.73380 0.08300 -0.09000
C 	C 	0.53550 0.75860 0.04750 -0.00700
H 	H 	0.53000 0.79390 0.07430 0.04500
C 	C 	0.48540 0.73230 0.97340 -0.06400
C 	C 	0.49520 0.68150 0.93290 -0.01000
H 	H 	0.46110 0.66260 0.88320 0.04600
C 	C 	0.55370 0.65830 0.96360 -0.03600
H 	H 	0.55990 0.62500 0.93270 0.04400
C 	C 	0.60310 0.68400 0.03980 -0.02700
H 	H 	0.64330 0.66780 0.06260 0.04400
C 	C 	0.42130 0.75680 0.94430 0.34600
C 	C 	0.88690 0.73800 0.63460 0.35800
C 	C 	0.94510 0.76580 0.69670 -0.12500
C 	C 	0.94380 0.82550 0.74610 0.01800
H 	H 	0.90330 0.83830 0.74310 0.04100
C 	C 	0.99700 0.84950 0.81850 -0.07200
H 	H 	0.99460 0.88670 0.84260 0.06000
C 	C 	0.94980 0.82250 0.64550 0.01300
H 	H 	0.91520 0.83520 0.58300 0.04800
C 	C 	0.54780 0.91320 0.18940 0.10100
H 	H 	0.53450 0.87470 0.18880 -0.01000
C 	C 	0.50450 0.95500 0.13590 -0.21700
H 	H 	0.46220 0.94500 0.10100 0.08800
C 	C 	0.52390 0.01170 0.13400 0.20500
C 	C 	0.58430 0.02410 0.18510 -0.23200
H 	H 	0.59920 0.06190 0.18420 0.10700
C 	C 	0.62400 0.98130 0.23860 0.11600
H 	H 	0.66610 0.99140 0.27630 -0.00700
C 	C 	0.47910 0.05430 0.06810 -0.31900
H 	H 	0.44760 0.03430 0.01080 0.11800
H 	H 	0.50090 0.08220 0.04490 0.11900
C 	C 	0.44750 0.08640 0.12240 0.10900
H 	H 	0.47880 0.10880 0.17680 -0.00000
H 	H 	0.42870 0.05820 0.15010 -0.00000
C 	C 	0.39720 0.12750 0.05340 -0.34600
H 	H 	0.41570 0.15560 0.02480 0.12800
H 	H 	0.36530 0.10530 0.99970 0.14800
C 	C 	0.36880 0.15830 0.10960 0.19600
C 	C 	0.32240 0.13210 0.13200 -0.19900
H 	H 	0.30760 0.09470 0.10790 0.09800
C 	C 	0.29870 0.16080 0.18840 0.08900
H 	H 	0.26670 0.14300 0.19950 -0.00600
C 	C 	0.36430 0.23830 0.20730 0.10300
H 	H 	0.37980 0.27520 0.23350 0.00100
C 	C 	0.38830 0.21150 0.14850 -0.21100
H 	H 	0.41880 0.23080 0.13560 0.10300
Co	Co	0.67631 0.86151 0.31452 1.17000
Co	Co	0.78104 0.76087 0.31331 1.16300
Co	Co	0.64826 0.84463 0.51239 1.15100
N 	N 	0.60770 0.92610 0.24160 -0.23900
N 	N 	0.31980 0.21390 0.22870 -0.22800
O 	O 	0.75030 0.81040 0.40050 -0.56600
O 	O 	0.72550 0.80560 0.59310 -0.57700
O 	O 	0.73090 0.09600 0.76010 -0.40600
O 	O 	0.78600 0.16670 0.73250 -0.42200
O 	O 	0.70900 0.91330 0.43970 -0.44800
O 	O 	0.66240 0.92820 0.53810 -0.44700
O 	O 	0.63500 0.80920 0.19630 -0.44800
O 	O 	0.69550 0.73330 0.20950 -0.43500
O 	O 	0.37620 0.72310 0.91030 -0.41400
O 	O 	0.41910 0.81040 0.96050 -0.44700
O 	O 	0.84200 0.76980 0.59070 -0.45200
O 	O 	0.88609 0.68204 0.62780 -0.54600
C 	C 	0.73870 0.61980 0.78270 0.35600
C 	C 	0.73270 0.58050 0.86020 -0.07000
C 	C 	0.76900 0.53240 0.89300 -0.00100
H 	H 	0.79700 0.52220 0.86670 0.05000
C 	C 	0.76460 0.49830 0.96530 -0.05200
C 	C 	0.72110 0.51280 0.00160 -0.07200
H 	H 	0.71710 0.48890 0.04920 0.06600
C 	C 	0.68520 0.56040 0.96930 -0.00800
H 	H 	0.65690 0.56990 0.99540 0.03900
C 	C 	0.68930 0.59540 0.89810 -0.02300
H 	H 	0.66380 0.62850 0.87500 0.05200
C 	C 	0.80120 0.44360 0.99820 0.34200
C 	C 	0.85330 0.26080 0.33020 0.39100
C 	C 	0.90620 0.23380 0.41700 -0.12800
C 	C 	0.96450 0.25860 0.45250 0.05500
H 	H 	0.97000 0.29390 0.42570 0.03000
C 	C 	0.01460 0.23230 0.52660 -0.12000
C 	C 	0.00480 0.18150 0.56710 0.03700
H 	H 	0.03890 0.16260 0.61680 0.02900
C 	C 	0.94630 0.15830 0.53640 -0.10800
H 	H 	0.94010 0.12500 0.56730 0.06400
C 	C 	0.89690 0.18400 0.46020 0.04200
H 	H 	0.85670 0.16780 0.43740 0.02700
C 	C 	0.07870 0.25680 0.55570 0.36100
C 	C 	0.61310 0.23800 0.86540 0.35700
C 	C 	0.55490 0.26580 0.80330 -0.12400
C 	C 	0.55620 0.32550 0.75390 0.01800
H 	H 	0.59670 0.33830 0.75690 0.04100
C 	C 	0.50300 0.34950 0.68150 -0.07400
H 	H 	0.50540 0.38670 0.65740 0.05900
C 	C 	0.55020 0.32250 0.85450 0.01300
H 	H 	0.58480 0.33520 0.91700 0.05400
C 	C 	0.95220 0.41320 0.31060 0.10200
H 	H 	0.96550 0.37470 0.31120 -0.00800
C 	C 	0.99550 0.45500 0.36410 -0.21200
H 	H 	0.03780 0.44500 0.39900 0.09100
C 	C 	0.97610 0.51170 0.36600 0.20600
C 	C 	0.91570 0.52410 0.31490 -0.23400
H 	H 	0.90080 0.56190 0.31580 0.10900
C 	C 	0.87600 0.48130 0.26140 0.12000
H 	H 	0.83390 0.49140 0.22370 -0.00900
C 	C 	0.02090 0.55430 0.43190 -0.31600
H 	H 	0.05240 0.53430 0.48920 0.12500
H 	H 	0.99910 0.58220 0.45510 0.12300
C 	C 	0.05250 0.58640 0.37760 0.09200
H 	H 	0.02120 0.60880 0.32320 0.00500
H 	H 	0.07130 0.55820 0.34990 0.00600
C 	C 	0.10280 0.62750 0.44660 -0.29800
H 	H 	0.08430 0.65560 0.47520 0.12100
H 	H 	0.13470 0.60530 0.50030 0.11900
C 	C 	0.13120 0.65830 0.39040 0.18200
C 	C 	0.17760 0.63210 0.36800 -0.18800
H 	H 	0.19240 0.59470 0.39210 0.09800
C 	C 	0.20130 0.66080 0.31160 0.08600
H 	H 	0.23330 0.64300 0.30050 -0.00300
C 	C 	0.13570 0.73830 0.29270 0.10000
H 	H 	0.12020 0.77520 0.26650 0.00200
C 	C 	0.11170 0.71150 0.35150 -0.20000
H 	H 	0.08120 0.73080 0.36440 0.10100
Co	Co	0.82369 0.36151 0.18548 1.17000
Co	Co	0.71896 0.26087 0.18669 1.16300
Co	Co	0.85174 0.34463 0.98761 1.15800
N 	N 	0.89230 0.42610 0.25840 -0.23900
N 	N 	0.18020 0.71390 0.27130 -0.22600
O 	O 	0.74970 0.31040 0.09950 -0.57000
O 	O 	0.77450 0.30560 0.90690 -0.57100
O 	O 	0.76910 0.59600 0.73990 -0.40500
O 	O 	0.71400 0.66670 0.76750 -0.41800
O 	O 	0.79100 0.41330 0.06030 -0.46200
O 	O 	0.83760 0.42820 0.96190 -0.44200
O 	O 	0.86500 0.30920 0.30370 -0.45000
O 	O 	0.80450 0.23330 0.29050 -0.43800
O 	O 	0.12380 0.22310 0.58970 -0.42300
O 	O 	0.08090 0.31040 0.53950 -0.45700
O 	O 	0.65800 0.26980 0.90930 -0.44300
O 	O 	0.61391 0.18204 0.87220 -0.53900
C 	C 	0.23870 0.11980 0.78270 0.35800
C 	C 	0.23270 0.08050 0.86020 -0.07500
C 	C 	0.26900 0.03240 0.89300 0.00900
H 	H 	0.29700 0.02220 0.86670 0.04800
C 	C 	0.26460 0.99830 0.96530 -0.06300
C 	C 	0.22110 0.01280 0.00160 -0.06000
H 	H 	0.21710 0.98890 0.04920 0.06000
C 	C 	0.18520 0.06040 0.96930 -0.01500
H 	H 	0.15690 0.06990 0.99540 0.04200
C 	C 	0.18930 0.09540 0.89810 -0.01700
H 	H 	0.16380 0.12850 0.87500 0.05000
C 	C 	0.30120 0.94360 0.99820 0.34500
C 	C 	0.35330 0.76080 0.33020 0.39100
C 	C 	0.40620 0.73380 0.41700 -0.12800
C 	C 	0.46450 0.75860 0.45250 0.05400
H 	H 	0.47000 0.79390 0.42570 0.03000
C 	C 	0.51460 0.73230 0.52660 -0.12000
C 	C 	0.50480 0.68150 0.56710 0.03900
H 	H 	0.53890 0.66260 0.61680 0.02800
C 	C 	0.44630 0.65830 0.53640 -0.10900
H 	H 	0.44010 0.62500 0.56730 0.06400
C 	C 	0.39690 0.68400 0.46020 0.04200
H 	H 	0.35670 0.66780 0.43740 0.02700
C 	C 	0.57870 0.75680 0.55570 0.36100
C 	C 	0.11310 0.73800 0.86540 0.35700
C 	C 	0.05490 0.76580 0.80330 -0.12300
C 	C 	0.05620 0.82550 0.75390 0.01800
H 	H 	0.09670 0.83830 0.75690 0.04100
C 	C 	0.00300 0.84950 0.68150 -0.07600
H 	H 	0.00540 0.88670 0.65740 0.05800
C 	C 	0.05020 0.82250 0.85450 0.01200
H 	H 	0.08480 0.83520 0.91700 0.05400
C 	C 	0.45220 0.91320 0.31060 0.10300
H 	H 	0.46550 0.87470 0.31120 -0.00900
C 	C 	0.49550 0.95500 0.36410 -0.21600
H 	H 	0.53780 0.94500 0.39900 0.09200
C 	C 	0.47610 0.01170 0.36600 0.20700
C 	C 	0.41570 0.02410 0.31490 -0.23100
H 	H 	0.40080 0.06190 0.31580 0.10800
C 	C 	0.37600 0.98130 0.26140 0.11700
H 	H 	0.33390 0.99140 0.22370 -0.00900
C 	C 	0.52090 0.05430 0.43190 -0.31400
H 	H 	0.55240 0.03430 0.48920 0.12500
H 	H 	0.49910 0.08220 0.45510 0.12200
C 	C 	0.55250 0.08640 0.37760 0.09100
H 	H 	0.52120 0.10880 0.32320 0.00500
H 	H 	0.57130 0.05820 0.34990 0.00700
C 	C 	0.60280 0.12750 0.44660 -0.29700
H 	H 	0.58430 0.15560 0.47520 0.12100
H 	H 	0.63470 0.10530 0.50030 0.11900
C 	C 	0.63120 0.15830 0.39040 0.18200
C 	C 	0.67760 0.13210 0.36800 -0.18800
H 	H 	0.69240 0.09470 0.39210 0.09900
C 	C 	0.70130 0.16080 0.31160 0.08600
H 	H 	0.73330 0.14300 0.30050 -0.00300
C 	C 	0.63570 0.23830 0.29270 0.10000
H 	H 	0.62020 0.27520 0.26650 0.00300
C 	C 	0.61170 0.21150 0.35150 -0.20000
H 	H 	0.58120 0.23080 0.36440 0.10100
Co	Co	0.32369 0.86151 0.18548 1.17000
Co	Co	0.21896 0.76087 0.18669 1.16300
Co	Co	0.35174 0.84463 0.98761 1.15800
N 	N 	0.39230 0.92610 0.25840 -0.23900
N 	N 	0.68020 0.21390 0.27130 -0.22600
O 	O 	0.24970 0.81040 0.09950 -0.57000
O 	O 	0.27450 0.80560 0.90690 -0.57100
O 	O 	0.26910 0.09600 0.73990 -0.40500
O 	O 	0.21400 0.16670 0.76750 -0.41900
O 	O 	0.29100 0.91330 0.06030 -0.46300
O 	O 	0.33760 0.92820 0.96190 -0.44400
O 	O 	0.36500 0.80920 0.30370 -0.45000
O 	O 	0.30450 0.73330 0.29050 -0.43800
O 	O 	0.62380 0.72310 0.58970 -0.42300
O 	O 	0.58090 0.81040 0.53950 -0.45700
O 	O 	0.15800 0.76980 0.90930 -0.44300
O 	O 	0.11391 0.68204 0.87220 -0.53900
C 	C 	0.50000 0.76310 0.25000 0.06500
H 	H 	0.50000 0.80400 0.25000 0.02200
C 	C 	0.00000 0.26310 0.25000 0.06300
H 	H 	0.00000 0.30400 0.25000 0.02200
C 	C 	0.50000 0.23690 0.75000 0.06500
H 	H 	0.50000 0.19600 0.75000 0.02300
C 	C 	0.00000 0.73690 0.75000 0.06400
H 	H 	0.00000 0.69600 0.75000 0.02300
Co	Co	0.75000 0.75000 0.50000 1.15700
Co	Co	0.25000 0.75000 -0.00000 1.14800
Co	Co	0.25000 0.25000 0.50000 1.15700
Co	Co	0.75000 0.25000 -0.00000 1.14800
