data_crystal

_cell_length_a 10.92200
_cell_length_b 14.98100
_cell_length_c 20.41180
_cell_angle_alpha 111.52900
_cell_angle_beta  105.51800
_cell_angle_gamma 90.00000

_symmetry_space_group_name_	'P 1'
_symmetry_space_group_name_H-M	'P 1'

loop_
_symmetry_equiv_pos_as_xyz
  x,y,z

loop_
_atom_site_label
_atom_site_type_symbol
_atom_site_fract_x
_atom_site_fract_y
_atom_site_fract_z
_atom_site_charge
Cu	Cu	0.55963 0.47373 0.94746 0.90700
Cu	Cu	0.11217 0.02627 0.05254 0.90400
Cu	Cu	0.88783 0.97373 0.94746 0.90400
Cu	Cu	0.44037 0.52627 0.05254 0.90700
H 	H 	0.73770 0.46060 0.21660 0.08800
H 	H 	0.76650 0.31200 0.43540 0.06000
H 	H 	0.02110 0.03940 0.78340 0.08700
H 	H 	0.83110 0.18800 0.56460 0.06100
H 	H 	0.97890 0.25600 0.21660 0.08800
H 	H 	0.16890 0.62340 0.43540 0.06000
H 	H 	0.26230 0.24400 0.78340 0.08800
H 	H 	0.23350 0.87660 0.56460 0.06100
H 	H 	0.26230 0.53940 0.78340 0.08800
H 	H 	0.23350 0.68800 0.56460 0.06000
H 	H 	0.97890 0.96060 0.21660 0.08700
H 	H 	0.16890 0.81200 0.43540 0.06100
H 	H 	0.02110 0.74400 0.78340 0.08800
H 	H 	0.83110 0.37660 0.56460 0.06000
H 	H 	0.73770 0.75600 0.21660 0.08800
H 	H 	0.76650 0.12340 0.43540 0.06100
H 	H 	0.76170 0.26170 0.02340 0.06200
H 	H 	0.23830 0.23830 0.97660 0.06300
H 	H 	0.23830 0.73830 0.97660 0.06200
H 	H 	0.76170 0.76170 0.02340 0.06300
C 	C 	0.64710 0.41814 0.07260 0.34700
C 	C 	0.73813 0.36951 0.11346 -0.04200
C 	C 	0.77426 0.40644 0.19012 -0.07400
C 	C 	0.84672 0.35882 0.34144 0.22300
C 	C 	0.88754 0.40114 0.42348 -0.05400
C 	C 	0.83216 0.36436 0.46132 -0.02200
C 	C 	0.07450 0.08186 0.92740 0.33900
C 	C 	0.12467 0.13049 0.88654 -0.03900
C 	C 	0.08414 0.09356 0.80988 -0.07500
C 	C 	0.00528 0.14118 0.65856 0.21200
C 	C 	0.96406 0.09886 0.57652 -0.04100
C 	C 	0.87084 0.13564 0.53868 -0.02500
C 	C 	0.92550 0.15446 0.07260 0.35200
C 	C 	0.87533 0.24395 0.11346 -0.04300
C 	C 	0.91586 0.28368 0.19012 -0.07300
C 	C 	0.99472 0.48262 0.34144 0.22300
C 	C 	0.03594 0.52234 0.42348 -0.05500
C 	C 	0.12916 0.59696 0.46132 -0.02100
C 	C 	0.35290 0.34554 0.92740 0.34700
C 	C 	0.26187 0.25605 0.88654 -0.04100
C 	C 	0.22574 0.21632 0.80988 -0.07400
C 	C 	0.15328 0.01738 0.65856 0.21400
C 	C 	0.11246 0.97766 0.57652 -0.04200
C 	C 	0.16784 0.90304 0.53868 -0.02400
C 	C 	0.35290 0.58186 0.92740 0.34700
C 	C 	0.26187 0.63049 0.88654 -0.04200
C 	C 	0.22574 0.59356 0.80988 -0.07400
C 	C 	0.15328 0.64118 0.65856 0.22300
C 	C 	0.11246 0.59886 0.57652 -0.05400
C 	C 	0.16784 0.63564 0.53868 -0.02200
C 	C 	0.92550 0.91814 0.07260 0.33900
C 	C 	0.87533 0.86951 0.11346 -0.03900
C 	C 	0.91586 0.90644 0.19012 -0.07500
C 	C 	0.99472 0.85882 0.34144 0.21200
C 	C 	0.03594 0.90114 0.42348 -0.04100
C 	C 	0.12916 0.86436 0.46132 -0.02500
C 	C 	0.07450 0.84554 0.92740 0.35200
C 	C 	0.12467 0.75605 0.88654 -0.04300
C 	C 	0.08414 0.71632 0.80988 -0.07300
C 	C 	0.00528 0.51738 0.65856 0.22300
C 	C 	0.96406 0.47766 0.57652 -0.05500
C 	C 	0.87084 0.40304 0.53868 -0.02100
C 	C 	0.64710 0.65446 0.07260 0.34700
C 	C 	0.73813 0.74395 0.11346 -0.04100
C 	C 	0.77426 0.78368 0.19012 -0.07400
C 	C 	0.84672 0.98262 0.34144 0.21400
C 	C 	0.88754 0.02234 0.42348 -0.04200
C 	C 	0.83216 0.09696 0.46132 -0.02400
C 	C 	0.86357 0.36357 0.22714 0.13400
C 	C 	0.78786 0.28786 0.07572 0.00100
C 	C 	0.98043 0.48043 0.46086 0.03200
C 	C 	0.13643 0.13643 0.77286 0.13400
C 	C 	0.21214 0.21214 0.92428 -0.00100
C 	C 	0.01957 0.01957 0.53914 0.02100
C 	C 	0.13643 0.63643 0.77286 0.13400
C 	C 	0.21214 0.71214 0.92428 0.00100
C 	C 	0.01957 0.51957 0.53914 0.03200
C 	C 	0.86357 0.86357 0.22714 0.13400
C 	C 	0.78786 0.78786 0.07572 -0.00100
C 	C 	0.98043 0.98043 0.46086 0.02100
N 	N 	0.90350 0.40350 0.30700 -0.18500
N 	N 	0.09650 0.09650 0.69300 -0.18200
N 	N 	0.09650 0.59650 0.69300 -0.18500
N 	N 	0.90350 0.90350 0.30700 -0.18200
O 	O 	0.66007 0.41212 0.01196 -0.39800
O 	O 	0.56560 0.46134 0.10226 -0.39200
O 	O 	0.76936 0.28946 0.30652 -0.21300
O 	O 	0.14811 0.08788 0.98804 -0.39600
O 	O 	0.96334 0.03866 0.89774 -0.38300
O 	O 	0.96284 0.21054 0.69348 -0.20700
O 	O 	0.85189 0.09984 0.01196 -0.39800
O 	O 	0.03666 0.14092 0.10226 -0.39600
O 	O 	0.03716 0.51706 0.30652 -0.21400
O 	O 	0.33993 0.40016 0.98804 -0.39800
O 	O 	0.43440 0.35908 0.89774 -0.39100
O 	O 	0.23064 0.98294 0.69348 -0.20900
O 	O 	0.33993 0.58788 0.98804 -0.39800
O 	O 	0.43440 0.53866 0.89774 -0.39200
O 	O 	0.23064 0.71054 0.69348 -0.21300
O 	O 	0.85189 0.91212 0.01196 -0.39600
O 	O 	0.03666 0.96134 0.10226 -0.38300
O 	O 	0.03716 0.78946 0.30652 -0.20700
O 	O 	0.14811 0.90016 0.98804 -0.39800
O 	O 	0.96334 0.85908 0.89774 -0.39600
O 	O 	0.96284 0.48294 0.69348 -0.21400
O 	O 	0.66007 0.59984 0.01196 -0.39800
O 	O 	0.56560 0.64092 0.10226 -0.39100
O 	O 	0.76936 0.01706 0.30652 -0.20900
