data_crystal

_cell_length_a 13.99990
_cell_length_b 14.64700
_cell_length_c 42.04000
_cell_angle_alpha 90.00000
_cell_angle_beta  97.94800
_cell_angle_gamma 90.00000

_symmetry_space_group_name_	'P 1'
_symmetry_space_group_name_H-M	'P 1'

loop_
_symmetry_equiv_pos_as_xyz
  x,y,z

loop_
_atom_site_label
_atom_site_type_symbol
_atom_site_fract_x
_atom_site_fract_y
_atom_site_fract_z
_atom_site_charge
C 	C 	0.56530 0.66800 0.23601 0.40200
C 	C 	0.48110 0.60770 0.22279 -0.12800
C 	C 	0.44240 0.54370 0.24177 0.06000
H 	H 	0.46650 0.53870 0.26340 0.02300
C 	C 	0.36900 0.48800 0.22869 -0.13200
C 	C 	0.32860 0.49810 0.19644 0.00000
H 	H 	0.27920 0.45930 0.18780 0.02600
C 	C 	0.36110 0.56450 0.17751 -0.03300
C 	C 	0.44050 0.61670 0.19067 0.00500
H 	H 	0.46700 0.65850 0.17770 0.04100
C 	C 	0.32840 0.41750 0.24947 0.37200
C 	C 	0.31630 0.58010 0.14385 0.04300
C 	C 	0.27310 0.50920 0.12461 -0.08200
H 	H 	0.27250 0.45020 0.13280 0.06100
C 	C 	0.23120 0.52680 0.09341 -0.03200
H 	H 	0.20460 0.47810 0.08100 0.03900
C 	C 	0.22690 0.61230 0.07975 -0.00700
C 	C 	0.27020 0.68080 0.09871 -0.02900
H 	H 	0.27030 0.73960 0.09030 0.03900
C 	C 	0.31400 0.66590 0.13007 -0.08000
H 	H 	0.34230 0.71470 0.14200 0.06100
C 	C 	0.17930 0.63060 0.04620 0.03400
C 	C 	0.14610 0.55830 0.02627 -0.07500
H 	H 	0.15470 0.49850 0.03360 0.05500
C 	C 	0.10010 0.57520 0.99538 -0.03100
H 	H 	0.07790 0.52680 0.98200 0.03900
C 	C 	0.08730 0.66450 0.98441 -0.01500
C 	C 	0.12040 0.73680 0.00433 -0.03100
H 	H 	0.11180 0.79660 0.99700 0.03500
C 	C 	0.16640 0.71990 0.03523 -0.07400
H 	H 	0.18860 0.76830 0.04860 0.05200
C 	C 	0.03360 0.68250 0.95072 0.06800
C 	C 	0.00680 0.61210 0.92864 -0.12800
H 	H 	0.02370 0.55220 0.93420 0.07400
C 	C 	0.95630 0.62970 0.89913 0.05000
H 	H 	0.93830 0.58180 0.88510 0.02300
C 	C 	0.93180 0.71810 0.89001 -0.12300
C 	C 	0.96460 0.78940 0.91070 0.04700
H 	H 	0.95380 0.84960 0.90420 0.02000
C 	C 	0.01230 0.77100 0.94043 -0.12900
H 	H 	0.03130 0.81920 0.95430 0.07000
C 	C 	0.87050 0.73950 0.85877 0.32700
La	La	0.74569 0.78748 0.20248 1.59600
O 	O 	0.59370 0.72670 0.21748 -0.42000
O 	O 	0.60200 0.65570 0.26415 -0.45100
O 	O 	0.34060 0.42870 0.27930 -0.39700
O 	O 	0.28430 0.34950 0.23645 -0.49200
O 	O 	0.82590 0.67640 0.84268 -0.38600
O 	O 	0.86690 0.81970 0.84844 -0.39900
C 	C 	0.06530 0.16800 0.73601 0.40200
C 	C 	0.98110 0.10770 0.72279 -0.12600
C 	C 	0.94240 0.04370 0.74177 0.06100
H 	H 	0.96650 0.03870 0.76340 0.02500
C 	C 	0.86900 0.98800 0.72869 -0.13200
C 	C 	0.82860 0.99810 0.69644 -0.00100
H 	H 	0.77920 0.95930 0.68780 0.02800
C 	C 	0.86110 0.06450 0.67751 -0.03100
C 	C 	0.94050 0.11670 0.69067 0.00500
H 	H 	0.96700 0.15850 0.67770 0.04300
C 	C 	0.82840 0.91750 0.74947 0.37300
C 	C 	0.81630 0.08010 0.64385 0.04300
C 	C 	0.77310 0.00920 0.62461 -0.08000
H 	H 	0.77250 0.95020 0.63280 0.06100
C 	C 	0.73120 0.02680 0.59341 -0.03200
H 	H 	0.70460 0.97810 0.58100 0.03900
C 	C 	0.72690 0.11230 0.57975 -0.00700
C 	C 	0.77020 0.18080 0.59871 -0.03000
H 	H 	0.77030 0.23960 0.59030 0.03900
C 	C 	0.81400 0.16590 0.63007 -0.07900
H 	H 	0.84230 0.21470 0.64200 0.06100
C 	C 	0.67930 0.13060 0.54620 0.03300
C 	C 	0.64610 0.05830 0.52627 -0.07400
H 	H 	0.65470 0.99850 0.53360 0.05400
C 	C 	0.60010 0.07520 0.49538 -0.03100
H 	H 	0.57790 0.02680 0.48200 0.03900
C 	C 	0.58730 0.16450 0.48441 -0.01500
C 	C 	0.62040 0.23680 0.50433 -0.03100
H 	H 	0.61180 0.29660 0.49700 0.03500
C 	C 	0.66640 0.21990 0.53523 -0.07400
H 	H 	0.68860 0.26830 0.54860 0.05200
C 	C 	0.53360 0.18250 0.45072 0.06900
C 	C 	0.50680 0.11210 0.42864 -0.12900
H 	H 	0.52370 0.05220 0.43420 0.07400
C 	C 	0.45630 0.12970 0.39913 0.05100
H 	H 	0.43830 0.08180 0.38510 0.02300
C 	C 	0.43180 0.21810 0.39001 -0.12400
C 	C 	0.46460 0.28940 0.41070 0.04800
H 	H 	0.45380 0.34960 0.40420 0.02000
C 	C 	0.51230 0.27100 0.44043 -0.13000
H 	H 	0.53130 0.31920 0.45430 0.07000
C 	C 	0.37050 0.23950 0.35877 0.32700
La	La	0.24569 0.28748 0.70248 1.59600
O 	O 	0.09370 0.22670 0.71748 -0.42000
O 	O 	0.10200 0.15570 0.76415 -0.45100
O 	O 	0.84060 0.92870 0.77930 -0.39700
O 	O 	0.78430 0.84950 0.73645 -0.49200
O 	O 	0.32590 0.17640 0.34268 -0.38600
O 	O 	0.36690 0.31970 0.34844 -0.39900
C 	C 	0.93470 0.66800 0.76399 0.40200
C 	C 	0.01890 0.60770 0.77721 -0.12600
C 	C 	0.05760 0.54370 0.75823 0.06100
H 	H 	0.03350 0.53870 0.73660 0.02400
C 	C 	0.13100 0.48800 0.77131 -0.13100
C 	C 	0.17140 0.49810 0.80356 0.00100
H 	H 	0.22080 0.45930 0.81220 0.02700
C 	C 	0.13890 0.56450 0.82249 -0.03200
C 	C 	0.05950 0.61670 0.80933 0.00600
H 	H 	0.03300 0.65850 0.82230 0.04300
C 	C 	0.17160 0.41750 0.75053 0.37300
C 	C 	0.18370 0.58010 0.85615 0.04400
C 	C 	0.22690 0.50920 0.87539 -0.08100
H 	H 	0.22750 0.45020 0.86720 0.06100
C 	C 	0.26880 0.52680 0.90659 -0.03100
H 	H 	0.29540 0.47810 0.91900 0.04000
C 	C 	0.27310 0.61230 0.92025 -0.00700
C 	C 	0.22980 0.68080 0.90129 -0.02900
H 	H 	0.22970 0.73960 0.90970 0.03900
C 	C 	0.18600 0.66590 0.86993 -0.08000
H 	H 	0.15770 0.71470 0.85800 0.06100
C 	C 	0.32070 0.63060 0.95380 0.03400
C 	C 	0.35390 0.55830 0.97373 -0.07500
H 	H 	0.34530 0.49850 0.96640 0.05500
C 	C 	0.39990 0.57520 0.00462 -0.03100
H 	H 	0.42210 0.52680 0.01800 0.03900
C 	C 	0.41270 0.66450 0.01559 -0.01600
C 	C 	0.37960 0.73680 0.99567 -0.03000
H 	H 	0.38820 0.79660 0.00300 0.03500
C 	C 	0.33360 0.71990 0.96477 -0.07400
H 	H 	0.31140 0.76830 0.95140 0.05200
C 	C 	0.46640 0.68250 0.04928 0.06900
C 	C 	0.49320 0.61210 0.07136 -0.12900
H 	H 	0.47630 0.55220 0.06580 0.07400
C 	C 	0.54370 0.62970 0.10087 0.05200
H 	H 	0.56170 0.58180 0.11490 0.02300
C 	C 	0.56820 0.71810 0.10999 -0.12400
C 	C 	0.53540 0.78940 0.08930 0.04800
H 	H 	0.54620 0.84960 0.09580 0.01900
C 	C 	0.48770 0.77100 0.05957 -0.13100
H 	H 	0.46870 0.81920 0.04570 0.07000
C 	C 	0.62950 0.73950 0.14123 0.32800
La	La	0.75431 0.78748 0.79752 1.59600
O 	O 	0.90630 0.72670 0.78252 -0.42000
O 	O 	0.89800 0.65570 0.73585 -0.45100
O 	O 	0.15940 0.42870 0.72070 -0.39700
O 	O 	0.21570 0.34950 0.76355 -0.49200
O 	O 	0.67410 0.67640 0.15732 -0.38600
O 	O 	0.63310 0.81970 0.15156 -0.39900
C 	C 	0.43470 0.16800 0.26399 0.40300
C 	C 	0.51890 0.10770 0.27721 -0.12700
C 	C 	0.55760 0.04370 0.25823 0.06100
H 	H 	0.53350 0.03870 0.23660 0.02400
C 	C 	0.63100 0.98800 0.27131 -0.13200
C 	C 	0.67140 0.99810 0.30356 0.00000
H 	H 	0.72080 0.95930 0.31220 0.02800
C 	C 	0.63890 0.06450 0.32249 -0.03200
C 	C 	0.55950 0.11670 0.30933 0.00600
H 	H 	0.53300 0.15850 0.32230 0.04300
C 	C 	0.67160 0.91750 0.25053 0.37300
C 	C 	0.68370 0.08010 0.35615 0.04400
C 	C 	0.72690 0.00920 0.37539 -0.08000
H 	H 	0.72750 0.95020 0.36720 0.06100
C 	C 	0.76880 0.02680 0.40659 -0.03100
H 	H 	0.79540 0.97810 0.41900 0.03900
C 	C 	0.77310 0.11230 0.42025 -0.00700
C 	C 	0.72980 0.18080 0.40129 -0.03000
H 	H 	0.72970 0.23960 0.40970 0.03900
C 	C 	0.68600 0.16590 0.36993 -0.08000
H 	H 	0.65770 0.21470 0.35800 0.06100
C 	C 	0.82070 0.13060 0.45380 0.03200
C 	C 	0.85390 0.05830 0.47373 -0.07300
H 	H 	0.84530 0.99850 0.46640 0.05300
C 	C 	0.89990 0.07520 0.50462 -0.03300
H 	H 	0.92210 0.02680 0.51800 0.04000
C 	C 	0.91270 0.16450 0.51559 -0.01400
C 	C 	0.87960 0.23680 0.49567 -0.03200
H 	H 	0.88820 0.29660 0.50300 0.03500
C 	C 	0.83360 0.21990 0.46477 -0.07300
H 	H 	0.81140 0.26830 0.45140 0.05200
C 	C 	0.96640 0.18250 0.54928 0.06700
C 	C 	0.99320 0.11210 0.57136 -0.12600
H 	H 	0.97630 0.05220 0.56580 0.07400
C 	C 	0.04370 0.12970 0.60087 0.04900
H 	H 	0.06170 0.08180 0.61490 0.02400
C 	C 	0.06820 0.21810 0.60999 -0.12300
C 	C 	0.03540 0.28940 0.58930 0.04600
H 	H 	0.04620 0.34960 0.59580 0.02000
C 	C 	0.98770 0.27100 0.55957 -0.12800
H 	H 	0.96870 0.31920 0.54570 0.06900
C 	C 	0.12950 0.23950 0.64123 0.32700
La	La	0.25431 0.28748 0.29752 1.59600
O 	O 	0.40630 0.22670 0.28252 -0.42000
O 	O 	0.39800 0.15570 0.23585 -0.45100
O 	O 	0.65940 0.92870 0.22070 -0.39700
O 	O 	0.71570 0.84950 0.26355 -0.49200
O 	O 	0.17410 0.17640 0.65732 -0.38600
O 	O 	0.13310 0.31970 0.65156 -0.39900
C 	C 	0.43470 0.33200 0.76399 0.40300
C 	C 	0.51890 0.39230 0.77721 -0.12700
C 	C 	0.55760 0.45630 0.75823 0.06100
H 	H 	0.53350 0.46130 0.73660 0.02400
C 	C 	0.63100 0.51200 0.77131 -0.13100
C 	C 	0.67140 0.50190 0.80356 0.00100
H 	H 	0.72080 0.54070 0.81220 0.02700
C 	C 	0.63890 0.43550 0.82249 -0.03200
C 	C 	0.55950 0.38330 0.80933 0.00600
H 	H 	0.53300 0.34150 0.82230 0.04200
C 	C 	0.67160 0.58250 0.75053 0.37300
C 	C 	0.68370 0.41990 0.85615 0.04400
C 	C 	0.72690 0.49080 0.87539 -0.08100
H 	H 	0.72750 0.54980 0.86720 0.06200
C 	C 	0.76880 0.47320 0.90659 -0.03100
H 	H 	0.79540 0.52190 0.91900 0.04000
C 	C 	0.77310 0.38770 0.92025 -0.00700
C 	C 	0.72980 0.31920 0.90129 -0.02900
H 	H 	0.72970 0.26040 0.90970 0.03900
C 	C 	0.68600 0.33410 0.86993 -0.08000
H 	H 	0.65770 0.28530 0.85800 0.06100
C 	C 	0.82070 0.36940 0.95380 0.03400
C 	C 	0.85390 0.44170 0.97373 -0.07500
H 	H 	0.84530 0.50150 0.96640 0.05500
C 	C 	0.89990 0.42480 0.00462 -0.03100
H 	H 	0.92210 0.47320 0.01800 0.03900
C 	C 	0.91270 0.33550 0.01559 -0.01500
C 	C 	0.87960 0.26320 0.99567 -0.03100
H 	H 	0.88820 0.20340 0.00300 0.03500
C 	C 	0.83360 0.28010 0.96477 -0.07400
H 	H 	0.81140 0.23170 0.95140 0.05200
C 	C 	0.96640 0.31750 0.04928 0.06800
C 	C 	0.99320 0.38790 0.07136 -0.12800
H 	H 	0.97630 0.44780 0.06580 0.07400
C 	C 	0.04370 0.37030 0.10087 0.05000
H 	H 	0.06170 0.41820 0.11490 0.02300
C 	C 	0.06820 0.28190 0.10999 -0.12300
C 	C 	0.03540 0.21060 0.08930 0.04700
H 	H 	0.04620 0.15040 0.09580 0.02000
C 	C 	0.98770 0.22900 0.05957 -0.12900
H 	H 	0.96870 0.18080 0.04570 0.07000
C 	C 	0.12950 0.26050 0.14123 0.32700
La	La	0.25431 0.21252 0.79752 1.59600
O 	O 	0.40630 0.27330 0.78252 -0.42000
O 	O 	0.39800 0.34430 0.73585 -0.45100
O 	O 	0.65940 0.57130 0.72070 -0.39700
O 	O 	0.71570 0.65050 0.76355 -0.49200
O 	O 	0.17410 0.32360 0.15732 -0.38600
O 	O 	0.13310 0.18030 0.15156 -0.39900
C 	C 	0.93470 0.83200 0.26399 0.40200
C 	C 	0.01890 0.89230 0.27721 -0.12600
C 	C 	0.05760 0.95630 0.25823 0.06100
H 	H 	0.03350 0.96130 0.23660 0.02500
C 	C 	0.13100 0.01200 0.27131 -0.13200
C 	C 	0.17140 0.00190 0.30356 -0.00100
H 	H 	0.22080 0.04070 0.31220 0.02800
C 	C 	0.13890 0.93550 0.32249 -0.03100
C 	C 	0.05950 0.88330 0.30933 0.00500
H 	H 	0.03300 0.84150 0.32230 0.04300
C 	C 	0.17160 0.08250 0.25053 0.37300
C 	C 	0.18370 0.91990 0.35615 0.04300
C 	C 	0.22690 0.99080 0.37539 -0.08000
H 	H 	0.22750 0.04980 0.36720 0.06100
C 	C 	0.26880 0.97320 0.40659 -0.03200
H 	H 	0.29540 0.02190 0.41900 0.03900
C 	C 	0.27310 0.88770 0.42025 -0.00700
C 	C 	0.22980 0.81920 0.40129 -0.03000
H 	H 	0.22970 0.76040 0.40970 0.03900
C 	C 	0.18600 0.83410 0.36993 -0.07900
H 	H 	0.15770 0.78530 0.35800 0.06100
C 	C 	0.32070 0.86940 0.45380 0.03300
C 	C 	0.35390 0.94170 0.47373 -0.07400
H 	H 	0.34530 0.00150 0.46640 0.05400
C 	C 	0.39990 0.92480 0.50462 -0.03100
H 	H 	0.42210 0.97320 0.51800 0.03900
C 	C 	0.41270 0.83550 0.51559 -0.01500
C 	C 	0.37960 0.76320 0.49567 -0.03100
H 	H 	0.38820 0.70340 0.50300 0.03500
C 	C 	0.33360 0.78010 0.46477 -0.07400
H 	H 	0.31140 0.73170 0.45140 0.05200
C 	C 	0.46640 0.81750 0.54928 0.06900
C 	C 	0.49320 0.88790 0.57136 -0.12900
H 	H 	0.47630 0.94780 0.56580 0.07400
C 	C 	0.54370 0.87030 0.60087 0.05100
H 	H 	0.56170 0.91820 0.61490 0.02300
C 	C 	0.56820 0.78190 0.60999 -0.12400
C 	C 	0.53540 0.71060 0.58930 0.04800
H 	H 	0.54620 0.65040 0.59580 0.02000
C 	C 	0.48770 0.72900 0.55957 -0.13000
H 	H 	0.46870 0.68080 0.54570 0.07000
C 	C 	0.62950 0.76050 0.64123 0.32700
La	La	0.75431 0.71252 0.29752 1.59600
O 	O 	0.90630 0.77330 0.28252 -0.42000
O 	O 	0.89800 0.84430 0.23585 -0.45100
O 	O 	0.15940 0.07130 0.22070 -0.39700
O 	O 	0.21570 0.15050 0.26355 -0.49200
O 	O 	0.67410 0.82360 0.65732 -0.38600
O 	O 	0.63310 0.68030 0.65156 -0.39900
C 	C 	0.06530 0.33200 0.23601 0.40200
C 	C 	0.98110 0.39230 0.22279 -0.12600
C 	C 	0.94240 0.45630 0.24177 0.06100
H 	H 	0.96650 0.46130 0.26340 0.02400
C 	C 	0.86900 0.51200 0.22869 -0.13100
C 	C 	0.82860 0.50190 0.19644 0.00100
H 	H 	0.77920 0.54070 0.18780 0.02700
C 	C 	0.86110 0.43550 0.17751 -0.03200
C 	C 	0.94050 0.38330 0.19067 0.00600
H 	H 	0.96700 0.34150 0.17770 0.04300
C 	C 	0.82840 0.58250 0.24947 0.37300
C 	C 	0.81630 0.41990 0.14385 0.04400
C 	C 	0.77310 0.49080 0.12461 -0.08100
H 	H 	0.77250 0.54980 0.13280 0.06100
C 	C 	0.73120 0.47320 0.09341 -0.03100
H 	H 	0.70460 0.52190 0.08100 0.04000
C 	C 	0.72690 0.38770 0.07975 -0.00700
C 	C 	0.77020 0.31920 0.09871 -0.02900
H 	H 	0.77030 0.26040 0.09030 0.03900
C 	C 	0.81400 0.33410 0.13007 -0.08000
H 	H 	0.84230 0.28530 0.14200 0.06100
C 	C 	0.67930 0.36940 0.04620 0.03400
C 	C 	0.64610 0.44170 0.02627 -0.07500
H 	H 	0.65470 0.50150 0.03360 0.05500
C 	C 	0.60010 0.42480 0.99538 -0.03100
H 	H 	0.57790 0.47320 0.98200 0.03900
C 	C 	0.58730 0.33550 0.98441 -0.01600
C 	C 	0.62040 0.26320 0.00433 -0.03000
H 	H 	0.61180 0.20340 0.99700 0.03500
C 	C 	0.66640 0.28010 0.03523 -0.07400
H 	H 	0.68860 0.23170 0.04860 0.05200
C 	C 	0.53360 0.31750 0.95072 0.06900
C 	C 	0.50680 0.38790 0.92864 -0.12900
H 	H 	0.52370 0.44780 0.93420 0.07400
C 	C 	0.45630 0.37030 0.89913 0.05200
H 	H 	0.43830 0.41820 0.88510 0.02300
C 	C 	0.43180 0.28190 0.89001 -0.12400
C 	C 	0.46460 0.21060 0.91070 0.04800
H 	H 	0.45380 0.15040 0.90420 0.01900
C 	C 	0.51230 0.22900 0.94043 -0.13100
H 	H 	0.53130 0.18080 0.95430 0.07000
C 	C 	0.37050 0.26050 0.85877 0.32800
La	La	0.24569 0.21252 0.20248 1.59600
O 	O 	0.09370 0.27330 0.21748 -0.42000
O 	O 	0.10200 0.34430 0.26415 -0.45100
O 	O 	0.84060 0.57130 0.27930 -0.39700
O 	O 	0.78430 0.65050 0.23645 -0.49200
O 	O 	0.32590 0.32360 0.84268 -0.38600
O 	O 	0.36690 0.18030 0.84844 -0.39900
C 	C 	0.56530 0.83200 0.73601 0.40300
C 	C 	0.48110 0.89230 0.72279 -0.12700
C 	C 	0.44240 0.95630 0.74177 0.06100
H 	H 	0.46650 0.96130 0.76340 0.02400
C 	C 	0.36900 0.01200 0.72869 -0.13200
C 	C 	0.32860 0.00190 0.69644 0.00000
H 	H 	0.27920 0.04070 0.68780 0.02800
C 	C 	0.36110 0.93550 0.67751 -0.03200
C 	C 	0.44050 0.88330 0.69067 0.00600
H 	H 	0.46700 0.84150 0.67770 0.04300
C 	C 	0.32840 0.08250 0.74947 0.37300
C 	C 	0.31630 0.91990 0.64385 0.04400
C 	C 	0.27310 0.99080 0.62461 -0.08000
H 	H 	0.27250 0.04980 0.63280 0.06100
C 	C 	0.23120 0.97320 0.59341 -0.03100
H 	H 	0.20460 0.02190 0.58100 0.03900
C 	C 	0.22690 0.88770 0.57975 -0.00700
C 	C 	0.27020 0.81920 0.59871 -0.03000
H 	H 	0.27030 0.76040 0.59030 0.03900
C 	C 	0.31400 0.83410 0.63007 -0.08000
H 	H 	0.34230 0.78530 0.64200 0.06100
C 	C 	0.17930 0.86940 0.54620 0.03200
C 	C 	0.14610 0.94170 0.52627 -0.07300
H 	H 	0.15470 0.00150 0.53360 0.05300
C 	C 	0.10010 0.92480 0.49538 -0.03300
H 	H 	0.07790 0.97320 0.48200 0.04000
C 	C 	0.08730 0.83550 0.48441 -0.01400
C 	C 	0.12040 0.76320 0.50433 -0.03200
H 	H 	0.11180 0.70340 0.49700 0.03500
C 	C 	0.16640 0.78010 0.53523 -0.07300
H 	H 	0.18860 0.73170 0.54860 0.05200
C 	C 	0.03360 0.81750 0.45072 0.06700
C 	C 	0.00680 0.88790 0.42864 -0.12600
H 	H 	0.02370 0.94780 0.43420 0.07400
C 	C 	0.95630 0.87030 0.39913 0.04900
H 	H 	0.93830 0.91820 0.38510 0.02400
C 	C 	0.93180 0.78190 0.39001 -0.12300
C 	C 	0.96460 0.71060 0.41070 0.04600
H 	H 	0.95380 0.65040 0.40420 0.02000
C 	C 	0.01230 0.72900 0.44043 -0.12800
H 	H 	0.03130 0.68080 0.45430 0.06900
C 	C 	0.87050 0.76050 0.35877 0.32700
La	La	0.74569 0.71252 0.70248 1.59600
O 	O 	0.59370 0.77330 0.71748 -0.42000
O 	O 	0.60200 0.84430 0.76415 -0.45100
O 	O 	0.34060 0.07130 0.77930 -0.39700
O 	O 	0.28430 0.15050 0.73645 -0.49200
O 	O 	0.82590 0.82360 0.34268 -0.38600
O 	O 	0.86690 0.68030 0.34844 -0.39900
