data_crystal

_cell_length_a 42.14200
_cell_length_b 14.06500
_cell_length_c 13.87000
_cell_angle_alpha 90.00000
_cell_angle_beta  101.99600
_cell_angle_gamma 90.00000

_symmetry_space_group_name_	'P 1'
_symmetry_space_group_name_H-M	'P 1'

loop_
_symmetry_equiv_pos_as_xyz
  x,y,z

loop_
_atom_site_label
_atom_site_type_symbol
_atom_site_fract_x
_atom_site_fract_y
_atom_site_fract_z
_atom_site_charge
C 	C 	0.25280 0.42120 0.57710 0.46300
C 	C 	0.27240 0.49230 0.63580 -0.20100
C 	C 	0.30470 0.50310 0.63030 0.04900
H 	H 	0.31350 0.46400 0.58850 0.01200
C 	C 	0.32430 0.57220 0.68700 -0.06400
C 	C 	0.31130 0.62580 0.75150 0.04500
H 	H 	0.32420 0.67130 0.78950 0.03000
C 	C 	0.27980 0.61470 0.76230 -0.16600
C 	C 	0.25960 0.55100 0.69960 0.10600
H 	H 	0.23760 0.54790 0.70050 0.00600
C 	C 	0.26550 0.67630 0.83720 0.50500
C 	C 	0.35880 0.58690 0.67640 0.05200
C 	C 	0.37830 0.51450 0.65550 -0.08400
H 	H 	0.37000 0.45300 0.65150 0.06100
C 	C 	0.40980 0.52720 0.63990 -0.03300
H 	H 	0.42170 0.47550 0.62540 0.04000
C 	C 	0.42310 0.61980 0.64640 -0.00800
C 	C 	0.40340 0.69730 0.67130 -0.03100
H 	H 	0.41210 0.75820 0.68000 0.03800
C 	C 	0.37150 0.68190 0.68230 -0.08100
H 	H 	0.35860 0.73280 0.69340 0.06000
C 	C 	0.45710 0.63800 0.63500 0.03400
C 	C 	0.47590 0.56280 0.61380 -0.07500
H 	H 	0.46810 0.50090 0.61230 0.05500
C 	C 	0.50650 0.58010 0.59470 -0.03300
H 	H 	0.51910 0.52980 0.58050 0.03900
C 	C 	0.51830 0.67260 0.59690 -0.01400
C 	C 	0.49940 0.74780 0.61810 -0.03200
H 	H 	0.50730 0.80970 0.61960 0.03500
C 	C 	0.46890 0.73050 0.63720 -0.07300
H 	H 	0.45620 0.78080 0.65140 0.05100
C 	C 	0.64410 0.74900 0.49950 0.36200
C 	C 	0.55246 0.69210 0.57880 0.06500
C 	C 	0.57340 0.61760 0.57020 -0.12200
H 	H 	0.56730 0.55530 0.58000 0.07200
C 	C 	0.60329 0.63620 0.54690 0.04000
H 	H 	0.61730 0.58630 0.54110 0.02700
C 	C 	0.61231 0.72930 0.53220 -0.11500
C 	C 	0.59140 0.80380 0.54080 0.04000
H 	H 	0.59740 0.86600 0.53100 0.02200
C 	C 	0.56150 0.78520 0.56410 -0.12500
H 	H 	0.54750 0.83500 0.56990 0.06800
Eu	Eu	0.20411 0.29234 0.45204 1.82900
O 	O 	0.22275 0.43270 0.55080 -0.45900
O 	O 	0.26449 0.34600 0.54860 -0.57400
O 	O 	0.23786 0.66240 0.84010 -0.54600
O 	O 	0.28390 0.73990 0.88100 -0.48200
O 	O 	0.65360 0.83240 0.50580 -0.43900
O 	O 	0.65950 0.68400 0.47470 -0.44100
C 	C 	0.75280 0.92120 0.57710 0.46100
C 	C 	0.77240 0.99230 0.63580 -0.20000
C 	C 	0.80470 0.00310 0.63030 0.04600
H 	H 	0.81350 0.96400 0.58850 0.01200
C 	C 	0.82430 0.07220 0.68700 -0.06400
C 	C 	0.81130 0.12580 0.75150 0.04300
H 	H 	0.82420 0.17130 0.78950 0.02900
C 	C 	0.77980 0.11470 0.76230 -0.16700
C 	C 	0.75960 0.05100 0.69960 0.10300
H 	H 	0.73760 0.04790 0.70050 0.00500
C 	C 	0.76550 0.17630 0.83720 0.50400
C 	C 	0.85880 0.08690 0.67640 0.05100
C 	C 	0.87830 0.01450 0.65550 -0.08400
H 	H 	0.87000 0.95300 0.65150 0.06200
C 	C 	0.90980 0.02720 0.63990 -0.03400
H 	H 	0.92170 0.97550 0.62540 0.04000
C 	C 	0.92310 0.11980 0.64640 -0.00800
C 	C 	0.90340 0.19730 0.67130 -0.03100
H 	H 	0.91210 0.25820 0.68000 0.03800
C 	C 	0.87150 0.18190 0.68230 -0.08000
H 	H 	0.85860 0.23280 0.69340 0.06000
C 	C 	0.95710 0.13800 0.63500 0.03400
C 	C 	0.97590 0.06280 0.61380 -0.07500
H 	H 	0.96810 0.00090 0.61230 0.05400
C 	C 	0.00650 0.08010 0.59470 -0.03300
H 	H 	0.01910 0.02980 0.58050 0.03900
C 	C 	0.01830 0.17260 0.59690 -0.01300
C 	C 	0.99940 0.24780 0.61810 -0.03200
H 	H 	0.00730 0.30970 0.61960 0.03500
C 	C 	0.96890 0.23050 0.63720 -0.07300
H 	H 	0.95620 0.28080 0.65140 0.05100
C 	C 	0.14410 0.24900 0.49950 0.36200
C 	C 	0.05246 0.19210 0.57880 0.06500
C 	C 	0.07340 0.11760 0.57020 -0.12200
H 	H 	0.06730 0.05530 0.58000 0.07200
C 	C 	0.10329 0.13620 0.54690 0.04000
H 	H 	0.11730 0.08630 0.54110 0.02700
C 	C 	0.11231 0.22930 0.53220 -0.11500
C 	C 	0.09140 0.30380 0.54080 0.04000
H 	H 	0.09740 0.36600 0.53100 0.02300
C 	C 	0.06150 0.28520 0.56410 -0.12400
H 	H 	0.04750 0.33500 0.56990 0.06800
Eu	Eu	0.70411 0.79234 0.45204 1.82800
O 	O 	0.72275 0.93270 0.55080 -0.45900
O 	O 	0.76449 0.84600 0.54860 -0.57400
O 	O 	0.73786 0.16240 0.84010 -0.54600
O 	O 	0.78390 0.23990 0.88100 -0.48200
O 	O 	0.15360 0.33240 0.50580 -0.43800
O 	O 	0.15950 0.18400 0.47470 -0.44100
C 	C 	0.74720 0.42120 0.92290 0.46200
C 	C 	0.72760 0.49230 0.86420 -0.20200
C 	C 	0.69530 0.50310 0.86970 0.04800
H 	H 	0.68650 0.46400 0.91150 0.01100
C 	C 	0.67570 0.57220 0.81300 -0.06500
C 	C 	0.68870 0.62580 0.74850 0.04400
H 	H 	0.67580 0.67130 0.71050 0.02900
C 	C 	0.72020 0.61470 0.73770 -0.16700
C 	C 	0.74040 0.55100 0.80040 0.10500
H 	H 	0.76240 0.54790 0.79950 0.00500
C 	C 	0.73450 0.67630 0.66280 0.50400
C 	C 	0.64120 0.58690 0.82360 0.05100
C 	C 	0.62170 0.51450 0.84450 -0.08400
H 	H 	0.63000 0.45300 0.84850 0.06100
C 	C 	0.59020 0.52720 0.86010 -0.03300
H 	H 	0.57830 0.47550 0.87460 0.04000
C 	C 	0.57690 0.61980 0.85360 -0.00800
C 	C 	0.59660 0.69730 0.82870 -0.03100
H 	H 	0.58790 0.75820 0.82000 0.03800
C 	C 	0.62850 0.68190 0.81770 -0.08100
H 	H 	0.64140 0.73280 0.80660 0.06000
C 	C 	0.54290 0.63800 0.86500 0.03400
C 	C 	0.52410 0.56280 0.88620 -0.07500
H 	H 	0.53190 0.50090 0.88770 0.05500
C 	C 	0.49350 0.58010 0.90530 -0.03300
H 	H 	0.48090 0.52980 0.91950 0.03900
C 	C 	0.48170 0.67260 0.90310 -0.01300
C 	C 	0.50060 0.74780 0.88190 -0.03200
H 	H 	0.49270 0.80970 0.88040 0.03500
C 	C 	0.53110 0.73050 0.86280 -0.07200
H 	H 	0.54380 0.78080 0.84860 0.05100
C 	C 	0.35590 0.74900 0.00050 0.35900
C 	C 	0.44754 0.69210 0.92120 0.06500
C 	C 	0.42660 0.61760 0.92980 -0.12100
H 	H 	0.43270 0.55530 0.92000 0.07200
C 	C 	0.39671 0.63620 0.95310 0.03900
H 	H 	0.38270 0.58630 0.95890 0.02800
C 	C 	0.38769 0.72930 0.96780 -0.11300
C 	C 	0.40860 0.80380 0.95920 0.03900
H 	H 	0.40260 0.86600 0.96900 0.02300
C 	C 	0.43850 0.78520 0.93590 -0.12400
H 	H 	0.45250 0.83500 0.93010 0.06800
Eu	Eu	0.79589 0.29234 0.04796 1.83000
O 	O 	0.77725 0.43270 0.94920 -0.45900
O 	O 	0.73551 0.34600 0.95140 -0.57400
O 	O 	0.76214 0.66240 0.65990 -0.54600
O 	O 	0.71610 0.73990 0.61900 -0.48200
O 	O 	0.34640 0.83240 0.99420 -0.43700
O 	O 	0.34050 0.68400 0.02530 -0.44000
C 	C 	0.24720 0.92120 0.92290 0.46000
C 	C 	0.22760 0.99230 0.86420 -0.19600
C 	C 	0.19530 0.00310 0.86970 0.04100
H 	H 	0.18650 0.96400 0.91150 0.01400
C 	C 	0.17570 0.07220 0.81300 -0.06100
C 	C 	0.18870 0.12580 0.74850 0.04100
H 	H 	0.17580 0.17130 0.71050 0.03000
C 	C 	0.22020 0.11470 0.73770 -0.16500
C 	C 	0.24040 0.05100 0.80040 0.10000
H 	H 	0.26240 0.04790 0.79950 0.00600
C 	C 	0.23450 0.17630 0.66280 0.50400
C 	C 	0.14120 0.08690 0.82360 0.05000
C 	C 	0.12170 0.01450 0.84450 -0.08400
H 	H 	0.13000 0.95300 0.84850 0.06200
C 	C 	0.09020 0.02720 0.86010 -0.03600
H 	H 	0.07830 0.97550 0.87460 0.04200
C 	C 	0.07690 0.11980 0.85360 -0.00700
C 	C 	0.09660 0.19730 0.82870 -0.03200
H 	H 	0.08790 0.25820 0.82000 0.03900
C 	C 	0.12850 0.18190 0.81770 -0.07900
H 	H 	0.14140 0.23280 0.80660 0.05900
C 	C 	0.04290 0.13800 0.86500 0.03300
C 	C 	0.02410 0.06280 0.88620 -0.07500
H 	H 	0.03190 0.00090 0.88770 0.05400
C 	C 	0.99350 0.08010 0.90530 -0.03300
H 	H 	0.98090 0.02980 0.91950 0.03900
C 	C 	0.98170 0.17260 0.90310 -0.01300
C 	C 	0.00060 0.24780 0.88190 -0.03200
H 	H 	0.99270 0.30970 0.88040 0.03500
C 	C 	0.03110 0.23050 0.86280 -0.07200
H 	H 	0.04380 0.28080 0.84860 0.05100
C 	C 	0.85590 0.24900 0.00050 0.36400
C 	C 	0.94754 0.19210 0.92120 0.06500
C 	C 	0.92660 0.11760 0.92980 -0.12300
H 	H 	0.93270 0.05530 0.92000 0.07200
C 	C 	0.89671 0.13620 0.95310 0.04000
H 	H 	0.88270 0.08630 0.95890 0.02700
C 	C 	0.88769 0.22930 0.96780 -0.11600
C 	C 	0.90860 0.30380 0.95920 0.04100
H 	H 	0.90260 0.36600 0.96900 0.02200
C 	C 	0.93850 0.28520 0.93590 -0.12500
H 	H 	0.95250 0.33500 0.93010 0.06800
Eu	Eu	0.29589 0.79234 0.04796 1.82600
O 	O 	0.27725 0.93270 0.94920 -0.45700
O 	O 	0.23551 0.84600 0.95140 -0.57300
O 	O 	0.26214 0.16240 0.65990 -0.54600
O 	O 	0.21610 0.23990 0.61900 -0.48200
O 	O 	0.84640 0.33240 0.99420 -0.43900
O 	O 	0.84050 0.18400 0.02530 -0.44100
C 	C 	0.74720 0.57880 0.42290 0.46200
C 	C 	0.72760 0.50770 0.36420 -0.20200
C 	C 	0.69530 0.49690 0.36970 0.04800
H 	H 	0.68650 0.53600 0.41150 0.01100
C 	C 	0.67570 0.42780 0.31300 -0.06500
C 	C 	0.68870 0.37420 0.24850 0.04400
H 	H 	0.67580 0.32870 0.21050 0.02900
C 	C 	0.72020 0.38530 0.23770 -0.16700
C 	C 	0.74040 0.44900 0.30040 0.10500
H 	H 	0.76240 0.45210 0.29950 0.00500
C 	C 	0.73450 0.32370 0.16280 0.50400
C 	C 	0.64120 0.41310 0.32360 0.05100
C 	C 	0.62170 0.48550 0.34450 -0.08400
H 	H 	0.63000 0.54700 0.34850 0.06100
C 	C 	0.59020 0.47280 0.36010 -0.03300
H 	H 	0.57830 0.52450 0.37460 0.04000
C 	C 	0.57690 0.38020 0.35360 -0.00800
C 	C 	0.59660 0.30270 0.32870 -0.03100
H 	H 	0.58790 0.24180 0.32000 0.03800
C 	C 	0.62850 0.31810 0.31770 -0.08100
H 	H 	0.64140 0.26720 0.30660 0.06000
C 	C 	0.54290 0.36200 0.36500 0.03400
C 	C 	0.52410 0.43720 0.38620 -0.07500
H 	H 	0.53190 0.49910 0.38770 0.05500
C 	C 	0.49350 0.41990 0.40530 -0.03300
H 	H 	0.48090 0.47020 0.41950 0.03900
C 	C 	0.48170 0.32740 0.40310 -0.01400
C 	C 	0.50060 0.25220 0.38190 -0.03200
H 	H 	0.49270 0.19030 0.38040 0.03500
C 	C 	0.53110 0.26950 0.36280 -0.07300
H 	H 	0.54380 0.21920 0.34860 0.05100
C 	C 	0.35590 0.25100 0.50050 0.36200
C 	C 	0.44754 0.30790 0.42120 0.06500
C 	C 	0.42660 0.38240 0.42980 -0.12200
H 	H 	0.43270 0.44470 0.42000 0.07200
C 	C 	0.39671 0.36380 0.45310 0.04000
H 	H 	0.38270 0.41370 0.45890 0.02700
C 	C 	0.38769 0.27070 0.46780 -0.11500
C 	C 	0.40860 0.19620 0.45920 0.04000
H 	H 	0.40260 0.13400 0.46900 0.02200
C 	C 	0.43850 0.21480 0.43590 -0.12500
H 	H 	0.45250 0.16500 0.43010 0.06800
Eu	Eu	0.79589 0.70766 0.54796 1.82900
O 	O 	0.77725 0.56730 0.44920 -0.45900
O 	O 	0.73551 0.65400 0.45140 -0.57400
O 	O 	0.76214 0.33760 0.15990 -0.54600
O 	O 	0.71610 0.26010 0.11900 -0.48200
O 	O 	0.34640 0.16760 0.49420 -0.43900
O 	O 	0.34050 0.31600 0.52530 -0.44100
C 	C 	0.24720 0.07880 0.42290 0.46100
C 	C 	0.22760 0.00770 0.36420 -0.20000
C 	C 	0.19530 0.99690 0.36970 0.04600
H 	H 	0.18650 0.03600 0.41150 0.01200
C 	C 	0.17570 0.92780 0.31300 -0.06400
C 	C 	0.18870 0.87420 0.24850 0.04300
H 	H 	0.17580 0.82870 0.21050 0.02900
C 	C 	0.22020 0.88530 0.23770 -0.16700
C 	C 	0.24040 0.94900 0.30040 0.10300
H 	H 	0.26240 0.95210 0.29950 0.00500
C 	C 	0.23450 0.82370 0.16280 0.50400
C 	C 	0.14120 0.91310 0.32360 0.05100
C 	C 	0.12170 0.98550 0.34450 -0.08400
H 	H 	0.13000 0.04700 0.34850 0.06200
C 	C 	0.09020 0.97280 0.36010 -0.03400
H 	H 	0.07830 0.02450 0.37460 0.04000
C 	C 	0.07690 0.88020 0.35360 -0.00800
C 	C 	0.09660 0.80270 0.32870 -0.03100
H 	H 	0.08790 0.74180 0.32000 0.03800
C 	C 	0.12850 0.81810 0.31770 -0.08000
H 	H 	0.14140 0.76720 0.30660 0.06000
C 	C 	0.04290 0.86200 0.36500 0.03400
C 	C 	0.02410 0.93720 0.38620 -0.07500
H 	H 	0.03190 0.99910 0.38770 0.05400
C 	C 	0.99350 0.91990 0.40530 -0.03300
H 	H 	0.98090 0.97020 0.41950 0.03900
C 	C 	0.98170 0.82740 0.40310 -0.01300
C 	C 	0.00060 0.75220 0.38190 -0.03200
H 	H 	0.99270 0.69030 0.38040 0.03500
C 	C 	0.03110 0.76950 0.36280 -0.07300
H 	H 	0.04380 0.71920 0.34860 0.05100
C 	C 	0.85590 0.75100 0.50050 0.36200
C 	C 	0.94754 0.80790 0.42120 0.06500
C 	C 	0.92660 0.88240 0.42980 -0.12200
H 	H 	0.93270 0.94470 0.42000 0.07200
C 	C 	0.89671 0.86380 0.45310 0.04000
H 	H 	0.88270 0.91370 0.45890 0.02700
C 	C 	0.88769 0.77070 0.46780 -0.11500
C 	C 	0.90860 0.69620 0.45920 0.04000
H 	H 	0.90260 0.63400 0.46900 0.02300
C 	C 	0.93850 0.71480 0.43590 -0.12400
H 	H 	0.95250 0.66500 0.43010 0.06800
Eu	Eu	0.29589 0.20766 0.54796 1.82800
O 	O 	0.27725 0.06730 0.44920 -0.45900
O 	O 	0.23551 0.15400 0.45140 -0.57400
O 	O 	0.26214 0.83760 0.15990 -0.54600
O 	O 	0.21610 0.76010 0.11900 -0.48200
O 	O 	0.84640 0.66760 0.49420 -0.43800
O 	O 	0.84050 0.81600 0.52530 -0.44100
C 	C 	0.25280 0.57880 0.07710 0.46200
C 	C 	0.27240 0.50770 0.13580 -0.20200
C 	C 	0.30470 0.49690 0.13030 0.04800
H 	H 	0.31350 0.53600 0.08850 0.01100
C 	C 	0.32430 0.42780 0.18700 -0.06500
C 	C 	0.31130 0.37420 0.25150 0.04400
H 	H 	0.32420 0.32870 0.28950 0.02900
C 	C 	0.27980 0.38530 0.26230 -0.16700
C 	C 	0.25960 0.44900 0.19960 0.10500
H 	H 	0.23760 0.45210 0.20050 0.00500
C 	C 	0.26550 0.32370 0.33720 0.50400
C 	C 	0.35880 0.41310 0.17640 0.05100
C 	C 	0.37830 0.48550 0.15550 -0.08400
H 	H 	0.37000 0.54700 0.15150 0.06100
C 	C 	0.40980 0.47280 0.13990 -0.03300
H 	H 	0.42170 0.52450 0.12540 0.04000
C 	C 	0.42310 0.38020 0.14640 -0.00800
C 	C 	0.40340 0.30270 0.17130 -0.03100
H 	H 	0.41210 0.24180 0.18000 0.03800
C 	C 	0.37150 0.31810 0.18230 -0.08100
H 	H 	0.35860 0.26720 0.19340 0.06000
C 	C 	0.45710 0.36200 0.13500 0.03400
C 	C 	0.47590 0.43720 0.11380 -0.07500
H 	H 	0.46810 0.49910 0.11230 0.05500
C 	C 	0.50650 0.41990 0.09470 -0.03300
H 	H 	0.51910 0.47020 0.08050 0.03900
C 	C 	0.51830 0.32740 0.09690 -0.01300
C 	C 	0.49940 0.25220 0.11810 -0.03200
H 	H 	0.50730 0.19030 0.11960 0.03500
C 	C 	0.46890 0.26950 0.13720 -0.07200
H 	H 	0.45620 0.21920 0.15140 0.05100
C 	C 	0.64410 0.25100 0.99950 0.35900
C 	C 	0.55246 0.30790 0.07880 0.06500
C 	C 	0.57340 0.38240 0.07020 -0.12100
H 	H 	0.56730 0.44470 0.08000 0.07200
C 	C 	0.60329 0.36380 0.04690 0.03900
H 	H 	0.61730 0.41370 0.04110 0.02800
C 	C 	0.61231 0.27070 0.03220 -0.11300
C 	C 	0.59140 0.19620 0.04080 0.03900
H 	H 	0.59740 0.13400 0.03100 0.02300
C 	C 	0.56150 0.21480 0.06410 -0.12400
H 	H 	0.54750 0.16500 0.06990 0.06800
Eu	Eu	0.20411 0.70766 0.95204 1.83000
O 	O 	0.22275 0.56730 0.05080 -0.45900
O 	O 	0.26449 0.65400 0.04860 -0.57400
O 	O 	0.23786 0.33760 0.34010 -0.54600
O 	O 	0.28390 0.26010 0.38100 -0.48200
O 	O 	0.65360 0.16760 0.00580 -0.43700
O 	O 	0.65950 0.31600 0.97470 -0.44000
C 	C 	0.75280 0.07880 0.07710 0.46000
C 	C 	0.77240 0.00770 0.13580 -0.19600
C 	C 	0.80470 0.99690 0.13030 0.04100
H 	H 	0.81350 0.03600 0.08850 0.01400
C 	C 	0.82430 0.92780 0.18700 -0.06100
C 	C 	0.81130 0.87420 0.25150 0.04100
H 	H 	0.82420 0.82870 0.28950 0.03000
C 	C 	0.77980 0.88530 0.26230 -0.16500
C 	C 	0.75960 0.94900 0.19960 0.10000
H 	H 	0.73760 0.95210 0.20050 0.00600
C 	C 	0.76550 0.82370 0.33720 0.50400
C 	C 	0.85880 0.91310 0.17640 0.05000
C 	C 	0.87830 0.98550 0.15550 -0.08400
H 	H 	0.87000 0.04700 0.15150 0.06200
C 	C 	0.90980 0.97280 0.13990 -0.03600
H 	H 	0.92170 0.02450 0.12540 0.04200
C 	C 	0.92310 0.88020 0.14640 -0.00700
C 	C 	0.90340 0.80270 0.17130 -0.03200
H 	H 	0.91210 0.74180 0.18000 0.03900
C 	C 	0.87150 0.81810 0.18230 -0.07900
H 	H 	0.85860 0.76720 0.19340 0.05900
C 	C 	0.95710 0.86200 0.13500 0.03300
C 	C 	0.97590 0.93720 0.11380 -0.07500
H 	H 	0.96810 0.99910 0.11230 0.05400
C 	C 	0.00650 0.91990 0.09470 -0.03300
H 	H 	0.01910 0.97020 0.08050 0.03900
C 	C 	0.01830 0.82740 0.09690 -0.01300
C 	C 	0.99940 0.75220 0.11810 -0.03200
H 	H 	0.00730 0.69030 0.11960 0.03500
C 	C 	0.96890 0.76950 0.13720 -0.07200
H 	H 	0.95620 0.71920 0.15140 0.05100
C 	C 	0.14410 0.75100 0.99950 0.36400
C 	C 	0.05246 0.80790 0.07880 0.06500
C 	C 	0.07340 0.88240 0.07020 -0.12300
H 	H 	0.06730 0.94470 0.08000 0.07200
C 	C 	0.10329 0.86380 0.04690 0.04000
H 	H 	0.11730 0.91370 0.04110 0.02700
C 	C 	0.11231 0.77070 0.03220 -0.11600
C 	C 	0.09140 0.69620 0.04080 0.04100
H 	H 	0.09740 0.63400 0.03100 0.02200
C 	C 	0.06150 0.71480 0.06410 -0.12500
H 	H 	0.04750 0.66500 0.06990 0.06800
Eu	Eu	0.70411 0.20766 0.95204 1.82600
O 	O 	0.72275 0.06730 0.05080 -0.45700
O 	O 	0.76449 0.15400 0.04860 -0.57300
O 	O 	0.73786 0.83760 0.34010 -0.54600
O 	O 	0.78390 0.76010 0.38100 -0.48200
O 	O 	0.15360 0.66760 0.00580 -0.43900
O 	O 	0.15950 0.81600 0.97470 -0.44100
