data_crystal

_cell_length_a 18.26230
_cell_length_b 18.26230
_cell_length_c 39.65430
_cell_angle_alpha 90.00000
_cell_angle_beta  90.00000
_cell_angle_gamma 120.00000

_symmetry_space_group_name_	'P 1'
_symmetry_space_group_name_H-M	'P 1'

loop_
_symmetry_equiv_pos_as_xyz
  x,y,z

loop_
_atom_site_label
_atom_site_type_symbol
_atom_site_fract_x
_atom_site_fract_y
_atom_site_fract_z
_atom_site_charge
O 	O 	0.37097 0.47962 0.50031 -0.39700
O 	O 	0.41319 0.43776 0.45490 -0.38000
C 	C 	0.36090 0.44980 0.47115 0.34700
C 	C 	0.28010 0.42890 0.45386 -0.04500
C 	C 	0.27060 0.41150 0.41940 -0.04300
H 	H 	0.31370 0.40960 0.40770 0.06200
C 	C 	0.13740 0.38610 0.34540 0.09600
C 	C 	0.09870 0.30930 0.35700 -0.04900
C 	C 	0.00770 0.28180 0.35860 0.32300
O 	O 	0.09020 0.49330 0.35670 -0.11800
C 	C 	0.09060 0.43260 0.33950 0.08900
O 	O 	0.96100 0.26730 0.38340 -0.21500
C 	C 	0.25930 0.38500 0.42320 -0.01500
H 	H 	0.29500 0.36850 0.41340 0.05200
O 	O 	0.03764 0.81295 0.83364 -0.39600
O 	O 	0.07986 0.77109 0.78823 -0.38000
C 	C 	0.02757 0.78313 0.80448 0.35500
C 	C 	0.94677 0.76223 0.78719 -0.05400
C 	C 	0.93727 0.74483 0.75273 -0.04000
H 	H 	0.98037 0.74293 0.74103 0.06100
C 	C 	0.80407 0.71943 0.67873 0.09000
C 	C 	0.76537 0.64263 0.69033 -0.04100
C 	C 	0.67437 0.61513 0.69193 0.30500
O 	O 	0.75687 0.82663 0.69003 -0.12100
C 	C 	0.75727 0.76593 0.67283 0.09000
O 	O 	0.62767 0.60063 0.71673 -0.20600
C 	C 	0.92597 0.71833 0.75653 -0.01400
H 	H 	0.96167 0.70183 0.74673 0.05100
O 	O 	0.70430 0.14629 0.16698 -0.39500
O 	O 	0.74652 0.10443 0.12157 -0.37900
C 	C 	0.69423 0.11647 0.13782 0.34800
C 	C 	0.61343 0.09557 0.12053 -0.04300
C 	C 	0.60393 0.07817 0.08607 -0.04100
H 	H 	0.64703 0.07627 0.07437 0.06300
C 	C 	0.47073 0.05277 0.01207 0.09600
C 	C 	0.43203 0.97597 0.02367 -0.04600
C 	C 	0.34103 0.94847 0.02527 0.30200
O 	O 	0.42353 0.15997 0.02337 -0.11900
C 	C 	0.42393 0.09927 0.00617 0.09500
O 	O 	0.29433 0.93397 0.05007 -0.20600
C 	C 	0.59263 0.05167 0.08987 -0.01500
H 	H 	0.62833 0.03517 0.08007 0.05400
O 	O 	0.52038 0.89135 0.50031 -0.39700
O 	O 	0.56224 0.97543 0.45490 -0.38200
C 	C 	0.55020 0.91110 0.47115 0.34800
C 	C 	0.57110 0.85120 0.45386 -0.04500
C 	C 	0.58850 0.85910 0.41940 -0.04300
H 	H 	0.59040 0.90410 0.40770 0.06500
C 	C 	0.61390 0.75130 0.34540 0.09100
C 	C 	0.69070 0.78940 0.35700 -0.04200
C 	C 	0.71820 0.72590 0.35860 0.30500
O 	O 	0.50670 0.59690 0.35670 -0.11900
C 	C 	0.56740 0.65800 0.33950 0.09100
O 	O 	0.73270 0.69370 0.38340 -0.20600
C 	C 	0.61500 0.87430 0.42320 -0.01400
H 	H 	0.63150 0.92650 0.41340 0.04900
O 	O 	0.18705 0.22468 0.83364 -0.39500
O 	O 	0.22891 0.30876 0.78823 -0.37900
C 	C 	0.21687 0.24443 0.80448 0.34700
C 	C 	0.23777 0.18453 0.78719 -0.04100
C 	C 	0.25517 0.19243 0.75273 -0.04500
H 	H 	0.25707 0.23743 0.74103 0.06500
C 	C 	0.28057 0.08463 0.67873 0.10300
C 	C 	0.35737 0.12273 0.69033 -0.04800
C 	C 	0.38487 0.05923 0.69193 0.30900
O 	O 	0.17337 0.93023 0.69003 -0.11600
C 	C 	0.23407 0.99133 0.67283 0.07600
O 	O 	0.39937 0.02703 0.71673 -0.20500
C 	C 	0.28167 0.20763 0.75653 -0.01300
H 	H 	0.29817 0.25983 0.74673 0.05100
O 	O 	0.85371 0.55802 0.16698 -0.39700
O 	O 	0.89557 0.64210 0.12157 -0.38100
C 	C 	0.88353 0.57777 0.13782 0.34800
C 	C 	0.90443 0.51787 0.12053 -0.04500
C 	C 	0.92183 0.52577 0.08607 -0.04300
H 	H 	0.92373 0.57077 0.07437 0.06400
C 	C 	0.94723 0.41797 0.01207 0.08400
C 	C 	0.02403 0.45607 0.02367 -0.02600
C 	C 	0.05153 0.39257 0.02527 0.30100
O 	O 	0.84003 0.26357 0.02337 -0.12000
C 	C 	0.90073 0.32467 0.00617 0.09700
O 	O 	0.06603 0.36037 0.05007 -0.20000
C 	C 	0.94833 0.54097 0.08987 -0.01300
H 	H 	0.96483 0.59317 0.08007 0.04900
O 	O 	0.10865 0.62903 0.50031 -0.39500
O 	O 	0.02457 0.58681 0.45490 -0.37700
C 	C 	0.08890 0.63910 0.47115 0.34800
C 	C 	0.14880 0.71990 0.45386 -0.04400
C 	C 	0.14090 0.72940 0.41940 -0.04300
H 	H 	0.09590 0.68630 0.40770 0.06400
C 	C 	0.24870 0.86260 0.34540 0.08800
C 	C 	0.21060 0.90130 0.35700 -0.03500
C 	C 	0.27410 0.99230 0.35860 0.28800
O 	O 	0.40310 0.90980 0.35670 -0.12000
C 	C 	0.34200 0.90940 0.33950 0.09200
O 	O 	0.30630 0.03900 0.38340 -0.19600
C 	C 	0.12570 0.74070 0.42320 -0.01400
H 	H 	0.07350 0.70500 0.41340 0.05300
O 	O 	0.77532 0.96236 0.83364 -0.39700
O 	O 	0.69124 0.92014 0.78823 -0.38000
C 	C 	0.75557 0.97243 0.80448 0.34200
C 	C 	0.81547 0.05323 0.78719 -0.03800
C 	C 	0.80757 0.06273 0.75273 -0.04300
H 	H 	0.76257 0.01963 0.74103 0.06600
C 	C 	0.91537 0.19593 0.67873 0.08100
C 	C 	0.87727 0.23463 0.69033 -0.03700
C 	C 	0.94077 0.32563 0.69193 0.30200
O 	O 	0.06977 0.24313 0.69003 -0.12100
C 	C 	0.00867 0.24273 0.67283 0.10600
O 	O 	0.97297 0.37233 0.71673 -0.20700
C 	C 	0.79237 0.07403 0.75653 -0.01500
H 	H 	0.74017 0.03833 0.74673 0.05200
O 	O 	0.44198 0.29570 0.16698 -0.39600
O 	O 	0.35790 0.25348 0.12157 -0.37900
C 	C 	0.42223 0.30577 0.13782 0.34800
C 	C 	0.48213 0.38657 0.12053 -0.04400
C 	C 	0.47423 0.39607 0.08607 -0.04300
H 	H 	0.42923 0.35297 0.07437 0.06400
C 	C 	0.58203 0.52927 0.01207 0.09200
C 	C 	0.54393 0.56797 0.02367 -0.03800
C 	C 	0.60743 0.65897 0.02527 0.30700
O 	O 	0.73643 0.57647 0.02337 -0.12000
C 	C 	0.67533 0.57607 0.00617 0.09600
O 	O 	0.63963 0.70567 0.05007 -0.20600
C 	C 	0.45903 0.40737 0.08987 -0.01400
H 	H 	0.40683 0.37167 0.08007 0.05200
O 	O 	0.47962 0.37097 0.49969 -0.39600
O 	O 	0.43776 0.41319 0.54510 -0.37900
C 	C 	0.44980 0.36090 0.52885 0.34800
C 	C 	0.42890 0.28010 0.54614 -0.04400
C 	C 	0.41150 0.27060 0.58060 -0.04200
H 	H 	0.40960 0.31370 0.59230 0.06300
C 	C 	0.38610 0.13740 0.65460 0.09600
C 	C 	0.30930 0.09870 0.64300 -0.04900
C 	C 	0.28180 0.00770 0.64140 0.32300
O 	O 	0.49330 0.09020 0.64330 -0.11800
C 	C 	0.43260 0.09060 0.66050 0.08900
O 	O 	0.26730 0.96100 0.61660 -0.21500
C 	C 	0.38500 0.25930 0.57680 -0.01500
H 	H 	0.36850 0.29500 0.58660 0.05200
O 	O 	0.14629 0.70430 0.83302 -0.39500
O 	O 	0.10443 0.74652 0.87843 -0.37900
C 	C 	0.11647 0.69423 0.86218 0.34800
C 	C 	0.09557 0.61343 0.87947 -0.04300
C 	C 	0.07817 0.60393 0.91393 -0.04100
H 	H 	0.07627 0.64703 0.92563 0.06300
C 	C 	0.05277 0.47073 0.98793 0.09100
C 	C 	0.97597 0.43203 0.97633 -0.05000
C 	C 	0.94847 0.34103 0.97473 0.29100
O 	O 	0.15997 0.42353 0.97663 -0.11800
C 	C 	0.09927 0.42393 0.99383 0.08500
O 	O 	0.93397 0.29433 0.94993 -0.20600
C 	C 	0.05167 0.59263 0.91013 -0.01500
H 	H 	0.03517 0.62833 0.91993 0.05400
O 	O 	0.81295 0.03764 0.16636 -0.39600
O 	O 	0.77109 0.07986 0.21177 -0.38000
C 	C 	0.78313 0.02757 0.19552 0.35500
C 	C 	0.76223 0.94677 0.21281 -0.05300
C 	C 	0.74483 0.93727 0.24727 -0.04000
H 	H 	0.74293 0.98037 0.25897 0.06100
C 	C 	0.71943 0.80407 0.32127 0.09000
C 	C 	0.64263 0.76537 0.30967 -0.04100
C 	C 	0.61513 0.67437 0.30807 0.30500
O 	O 	0.82663 0.75687 0.30997 -0.12100
C 	C 	0.76593 0.75727 0.32717 0.09000
O 	O 	0.60063 0.62767 0.28327 -0.20600
C 	C 	0.71833 0.92597 0.24347 -0.01400
H 	H 	0.70183 0.96167 0.25327 0.05100
O 	O 	0.89135 0.52038 0.49969 -0.39700
O 	O 	0.97543 0.56224 0.54510 -0.38200
C 	C 	0.91110 0.55020 0.52885 0.34800
C 	C 	0.85120 0.57110 0.54614 -0.04500
C 	C 	0.85910 0.58850 0.58060 -0.04300
H 	H 	0.90410 0.59040 0.59230 0.06500
C 	C 	0.75130 0.61390 0.65460 0.09100
C 	C 	0.78940 0.69070 0.64300 -0.04200
C 	C 	0.72590 0.71820 0.64140 0.30500
O 	O 	0.59690 0.50670 0.64330 -0.11900
C 	C 	0.65800 0.56740 0.66050 0.09100
O 	O 	0.69370 0.73270 0.61660 -0.20600
C 	C 	0.87430 0.61500 0.57680 -0.01400
H 	H 	0.92650 0.63150 0.58660 0.04900
O 	O 	0.55802 0.85371 0.83302 -0.39700
O 	O 	0.64210 0.89557 0.87843 -0.38100
C 	C 	0.57777 0.88353 0.86218 0.34800
C 	C 	0.51787 0.90443 0.87947 -0.04500
C 	C 	0.52577 0.92183 0.91393 -0.04400
H 	H 	0.57077 0.92373 0.92563 0.06500
C 	C 	0.41797 0.94723 0.98793 0.07900
C 	C 	0.45607 0.02403 0.97633 -0.03100
C 	C 	0.39257 0.05153 0.97473 0.29000
O 	O 	0.26357 0.84003 0.97663 -0.12000
C 	C 	0.32467 0.90073 0.99383 0.08600
O 	O 	0.36037 0.06603 0.94993 -0.20000
C 	C 	0.54097 0.94833 0.91013 -0.01300
H 	H 	0.59317 0.96483 0.91993 0.04900
O 	O 	0.22468 0.18705 0.16636 -0.39400
O 	O 	0.30876 0.22891 0.21177 -0.37900
C 	C 	0.24443 0.21687 0.19552 0.34700
C 	C 	0.18453 0.23777 0.21281 -0.04100
C 	C 	0.19243 0.25517 0.24727 -0.04500
H 	H 	0.23743 0.25707 0.25897 0.06500
C 	C 	0.08463 0.28057 0.32127 0.10300
C 	C 	0.12273 0.35737 0.30967 -0.04800
C 	C 	0.05923 0.38487 0.30807 0.30900
O 	O 	0.93023 0.17337 0.30997 -0.11600
C 	C 	0.99133 0.23407 0.32717 0.07600
O 	O 	0.02703 0.39937 0.28327 -0.20500
C 	C 	0.20763 0.28167 0.24347 -0.01400
H 	H 	0.25983 0.29817 0.25327 0.05100
O 	O 	0.62903 0.10865 0.49969 -0.39500
O 	O 	0.58681 0.02457 0.54510 -0.37700
C 	C 	0.63910 0.08890 0.52885 0.34800
C 	C 	0.71990 0.14880 0.54614 -0.04300
C 	C 	0.72940 0.14090 0.58060 -0.04300
H 	H 	0.68630 0.09590 0.59230 0.06400
C 	C 	0.86260 0.24870 0.65460 0.08800
C 	C 	0.90130 0.21060 0.64300 -0.03500
C 	C 	0.99230 0.27410 0.64140 0.28800
O 	O 	0.90980 0.40310 0.64330 -0.12000
C 	C 	0.90940 0.34200 0.66050 0.09200
O 	O 	0.03900 0.30630 0.61660 -0.19600
C 	C 	0.74070 0.12570 0.57680 -0.01400
H 	H 	0.70500 0.07350 0.58660 0.05300
O 	O 	0.29570 0.44198 0.83302 -0.39600
O 	O 	0.25348 0.35790 0.87843 -0.37900
C 	C 	0.30577 0.42223 0.86218 0.34800
C 	C 	0.38657 0.48213 0.87947 -0.04400
C 	C 	0.39607 0.47423 0.91393 -0.04300
H 	H 	0.35297 0.42923 0.92563 0.06400
C 	C 	0.52927 0.58203 0.98793 0.08700
C 	C 	0.56797 0.54393 0.97633 -0.04300
C 	C 	0.65897 0.60743 0.97473 0.29600
O 	O 	0.57647 0.73643 0.97663 -0.12000
C 	C 	0.57607 0.67533 0.99383 0.08500
O 	O 	0.70567 0.63963 0.94993 -0.20500
C 	C 	0.40737 0.45903 0.91013 -0.01400
H 	H 	0.37167 0.40683 0.91993 0.05100
O 	O 	0.96236 0.77532 0.16636 -0.39700
O 	O 	0.92014 0.69124 0.21177 -0.38000
C 	C 	0.97243 0.75557 0.19552 0.34100
C 	C 	0.05323 0.81547 0.21281 -0.03800
C 	C 	0.06273 0.80757 0.24727 -0.04300
H 	H 	0.01963 0.76257 0.25897 0.06600
C 	C 	0.19593 0.91537 0.32127 0.08100
C 	C 	0.23463 0.87727 0.30967 -0.03700
C 	C 	0.32563 0.94077 0.30807 0.30200
O 	O 	0.24313 0.06977 0.30997 -0.12100
C 	C 	0.24273 0.00867 0.32717 0.10700
O 	O 	0.37233 0.97297 0.28327 -0.20700
C 	C 	0.07403 0.79237 0.24347 -0.01500
H 	H 	0.03833 0.74017 0.25327 0.05200
O 	O 	0.62903 0.52038 0.49969 -0.39600
O 	O 	0.58681 0.56224 0.54510 -0.38000
C 	C 	0.63910 0.55020 0.52885 0.34800
C 	C 	0.71990 0.57110 0.54614 -0.04500
C 	C 	0.72940 0.58850 0.58060 -0.04300
H 	H 	0.68630 0.59040 0.59230 0.06400
C 	C 	0.86260 0.61390 0.65460 0.08700
C 	C 	0.90130 0.69070 0.64300 -0.03500
C 	C 	0.99230 0.71820 0.64140 0.28800
O 	O 	0.90980 0.50670 0.64330 -0.12000
C 	C 	0.90940 0.56740 0.66050 0.09200
O 	O 	0.03900 0.73270 0.61660 -0.19600
C 	C 	0.74070 0.61500 0.57680 -0.01400
H 	H 	0.70500 0.63150 0.58660 0.05100
O 	O 	0.29570 0.85371 0.83302 -0.39600
O 	O 	0.25348 0.89557 0.87843 -0.38100
C 	C 	0.30577 0.88353 0.86218 0.34800
C 	C 	0.38657 0.90443 0.87947 -0.04500
C 	C 	0.39607 0.92183 0.91393 -0.04400
H 	H 	0.35297 0.92373 0.92563 0.06500
C 	C 	0.52927 0.94723 0.98793 0.07900
C 	C 	0.56797 0.02403 0.97633 -0.03200
C 	C 	0.65897 0.05153 0.97473 0.29100
O 	O 	0.57647 0.84003 0.97663 -0.12000
C 	C 	0.57607 0.90073 0.99383 0.08600
O 	O 	0.70567 0.06603 0.94993 -0.20100
C 	C 	0.40737 0.94833 0.91013 -0.01300
H 	H 	0.37167 0.96483 0.91993 0.04900
O 	O 	0.96236 0.18705 0.16636 -0.39600
O 	O 	0.92014 0.22891 0.21177 -0.37900
C 	C 	0.97243 0.21687 0.19552 0.34000
C 	C 	0.05323 0.23777 0.21281 -0.03500
C 	C 	0.06273 0.25517 0.24727 -0.04500
H 	H 	0.01963 0.25707 0.25897 0.06700
C 	C 	0.19593 0.28057 0.32127 0.09300
C 	C 	0.23463 0.35737 0.30967 -0.04300
C 	C 	0.32563 0.38487 0.30807 0.30600
O 	O 	0.24313 0.17337 0.30997 -0.11800
C 	C 	0.24273 0.23407 0.32717 0.09100
O 	O 	0.37233 0.39937 0.28327 -0.20600
C 	C 	0.07403 0.28167 0.24347 -0.01500
H 	H 	0.03833 0.29817 0.25327 0.05200
O 	O 	0.47962 0.10865 0.49969 -0.39400
O 	O 	0.43776 0.02457 0.54510 -0.37700
C 	C 	0.44980 0.08890 0.52885 0.34800
C 	C 	0.42890 0.14880 0.54614 -0.04300
C 	C 	0.41150 0.14090 0.58060 -0.04200
H 	H 	0.40960 0.09590 0.59230 0.06300
C 	C 	0.38610 0.24870 0.65460 0.09200
C 	C 	0.30930 0.21060 0.64300 -0.04200
C 	C 	0.28180 0.27410 0.64140 0.30600
O 	O 	0.49330 0.40310 0.64330 -0.11900
C 	C 	0.43260 0.34200 0.66050 0.09000
O 	O 	0.26730 0.30630 0.61660 -0.20500
C 	C 	0.38500 0.12570 0.57680 -0.01500
H 	H 	0.36850 0.07350 0.58660 0.05300
O 	O 	0.14629 0.44198 0.83302 -0.39500
O 	O 	0.10443 0.35790 0.87843 -0.37800
C 	C 	0.11647 0.42223 0.86218 0.34800
C 	C 	0.09557 0.48213 0.87947 -0.04300
C 	C 	0.07817 0.47423 0.91393 -0.04100
H 	H 	0.07627 0.42923 0.92563 0.06300
C 	C 	0.05277 0.58203 0.98793 0.09100
C 	C 	0.97597 0.54393 0.97633 -0.05100
C 	C 	0.94847 0.60743 0.97473 0.29100
O 	O 	0.15997 0.73643 0.97663 -0.11900
C 	C 	0.09927 0.67533 0.99383 0.08500
O 	O 	0.93397 0.63963 0.94993 -0.20700
C 	C 	0.05167 0.45903 0.91013 -0.01500
H 	H 	0.03517 0.40683 0.91993 0.05400
O 	O 	0.81295 0.77532 0.16636 -0.39700
O 	O 	0.77109 0.69124 0.21177 -0.38000
C 	C 	0.78313 0.75557 0.19552 0.34900
C 	C 	0.76223 0.81547 0.21281 -0.04700
C 	C 	0.74483 0.80757 0.24727 -0.04100
H 	H 	0.74293 0.76257 0.25897 0.06300
C 	C 	0.71943 0.91537 0.32127 0.08000
C 	C 	0.64263 0.87727 0.30967 -0.03600
C 	C 	0.61513 0.94077 0.30807 0.30200
O 	O 	0.82663 0.06977 0.30997 -0.12200
C 	C 	0.76593 0.00867 0.32717 0.10600
O 	O 	0.60063 0.97297 0.28327 -0.20700
C 	C 	0.71833 0.79237 0.24347 -0.01500
H 	H 	0.70183 0.74017 0.25327 0.05200
O 	O 	0.89135 0.37097 0.49969 -0.39700
O 	O 	0.97543 0.41319 0.54510 -0.38200
C 	C 	0.91110 0.36090 0.52885 0.34800
C 	C 	0.85120 0.28010 0.54614 -0.04500
C 	C 	0.85910 0.27060 0.58060 -0.04300
H 	H 	0.90410 0.31370 0.59230 0.06400
C 	C 	0.75130 0.13740 0.65460 0.09500
C 	C 	0.78940 0.09870 0.64300 -0.04900
C 	C 	0.72590 0.00770 0.64140 0.32200
O 	O 	0.59690 0.09020 0.64330 -0.11800
C 	C 	0.65800 0.09060 0.66050 0.08900
O 	O 	0.69370 0.96100 0.61660 -0.21600
C 	C 	0.87430 0.25930 0.57680 -0.01400
H 	H 	0.92650 0.29500 0.58660 0.05000
O 	O 	0.55802 0.70430 0.83302 -0.39600
O 	O 	0.64210 0.74652 0.87843 -0.38000
C 	C 	0.57777 0.69423 0.86218 0.34800
C 	C 	0.51787 0.61343 0.87947 -0.04400
C 	C 	0.52577 0.60393 0.91393 -0.04300
H 	H 	0.57077 0.64703 0.92563 0.06400
C 	C 	0.41797 0.47073 0.98793 0.08700
C 	C 	0.45607 0.43203 0.97633 -0.04200
C 	C 	0.39257 0.34103 0.97473 0.29500
O 	O 	0.26357 0.42353 0.97663 -0.11900
C 	C 	0.32467 0.42393 0.99383 0.08600
O 	O 	0.36037 0.29433 0.94993 -0.20400
C 	C 	0.54097 0.59263 0.91013 -0.01400
H 	H 	0.59317 0.62833 0.91993 0.05100
O 	O 	0.22468 0.03764 0.16636 -0.39500
O 	O 	0.30876 0.07986 0.21177 -0.37900
C 	C 	0.24443 0.02757 0.19552 0.35500
C 	C 	0.18453 0.94677 0.21281 -0.05100
C 	C 	0.19243 0.93727 0.24727 -0.04200
H 	H 	0.23743 0.98037 0.25897 0.06200
C 	C 	0.08463 0.80407 0.32127 0.10100
C 	C 	0.12273 0.76537 0.30967 -0.04700
C 	C 	0.05923 0.67437 0.30807 0.30900
O 	O 	0.93023 0.75687 0.30997 -0.11800
C 	C 	0.99133 0.75727 0.32717 0.07600
O 	O 	0.02703 0.62767 0.28327 -0.20500
C 	C 	0.20763 0.92597 0.24347 -0.01300
H 	H 	0.25983 0.96167 0.25327 0.05000
O 	O 	0.52038 0.62903 0.50031 -0.39600
O 	O 	0.56224 0.58681 0.45490 -0.38000
C 	C 	0.55020 0.63910 0.47115 0.34800
C 	C 	0.57110 0.71990 0.45386 -0.04500
C 	C 	0.58850 0.72940 0.41940 -0.04300
H 	H 	0.59040 0.68630 0.40770 0.06400
C 	C 	0.61390 0.86260 0.34540 0.08700
C 	C 	0.69070 0.90130 0.35700 -0.03500
C 	C 	0.71820 0.99230 0.35860 0.28800
O 	O 	0.50670 0.90980 0.35670 -0.12000
C 	C 	0.56740 0.90940 0.33950 0.09200
O 	O 	0.73270 0.03900 0.38340 -0.19600
C 	C 	0.61500 0.74070 0.42320 -0.01400
H 	H 	0.63150 0.70500 0.41340 0.05100
O 	O 	0.18705 0.96236 0.83364 -0.39600
O 	O 	0.22891 0.92014 0.78823 -0.37900
C 	C 	0.21687 0.97243 0.80448 0.34100
C 	C 	0.23777 0.05323 0.78719 -0.03500
C 	C 	0.25517 0.06273 0.75273 -0.04500
H 	H 	0.25707 0.01963 0.74103 0.06700
C 	C 	0.28057 0.19593 0.67873 0.09300
C 	C 	0.35737 0.23463 0.69033 -0.04300
C 	C 	0.38487 0.32563 0.69193 0.30600
O 	O 	0.17337 0.24313 0.69003 -0.11800
C 	C 	0.23407 0.24273 0.67283 0.09100
O 	O 	0.39937 0.37233 0.71673 -0.20600
C 	C 	0.28167 0.07403 0.75653 -0.01400
H 	H 	0.29817 0.03833 0.74673 0.05200
O 	O 	0.85371 0.29570 0.16698 -0.39600
O 	O 	0.89557 0.25348 0.12157 -0.38000
C 	C 	0.88353 0.30577 0.13782 0.34800
C 	C 	0.90443 0.38657 0.12053 -0.04500
C 	C 	0.92183 0.39607 0.08607 -0.04300
H 	H 	0.92373 0.35297 0.07437 0.06400
C 	C 	0.94723 0.52927 0.01207 0.08400
C 	C 	0.02403 0.56797 0.02367 -0.02700
C 	C 	0.05153 0.65897 0.02527 0.30100
O 	O 	0.84003 0.57647 0.02337 -0.12100
C 	C 	0.90073 0.57607 0.00617 0.09600
O 	O 	0.06603 0.70567 0.05007 -0.20100
C 	C 	0.94833 0.40737 0.08987 -0.01400
H 	H 	0.96483 0.37167 0.08007 0.04900
O 	O 	0.10865 0.47962 0.50031 -0.39400
O 	O 	0.02457 0.43776 0.45490 -0.37700
C 	C 	0.08890 0.44980 0.47115 0.34800
C 	C 	0.14880 0.42890 0.45386 -0.04300
C 	C 	0.14090 0.41150 0.41940 -0.04200
H 	H 	0.09590 0.40960 0.40770 0.06300
C 	C 	0.24870 0.38610 0.34540 0.09200
C 	C 	0.21060 0.30930 0.35700 -0.04200
C 	C 	0.27410 0.28180 0.35860 0.30600
O 	O 	0.40310 0.49330 0.35670 -0.11900
C 	C 	0.34200 0.43260 0.33950 0.09000
O 	O 	0.30630 0.26730 0.38340 -0.20500
C 	C 	0.12570 0.38500 0.42320 -0.01500
H 	H 	0.07350 0.36850 0.41340 0.05300
O 	O 	0.77532 0.81295 0.83364 -0.39700
O 	O 	0.69124 0.77109 0.78823 -0.38000
C 	C 	0.75557 0.78313 0.80448 0.34900
C 	C 	0.81547 0.76223 0.78719 -0.04700
C 	C 	0.80757 0.74483 0.75273 -0.04100
H 	H 	0.76257 0.74293 0.74103 0.06300
C 	C 	0.91537 0.71943 0.67873 0.08000
C 	C 	0.87727 0.64263 0.69033 -0.03600
C 	C 	0.94077 0.61513 0.69193 0.30200
O 	O 	0.06977 0.82663 0.69003 -0.12200
C 	C 	0.00867 0.76593 0.67283 0.10600
O 	O 	0.97297 0.60063 0.71673 -0.20700
C 	C 	0.79237 0.71833 0.75653 -0.01500
H 	H 	0.74017 0.70183 0.74673 0.05200
O 	O 	0.44198 0.14629 0.16698 -0.39500
O 	O 	0.35790 0.10443 0.12157 -0.37800
C 	C 	0.42223 0.11647 0.13782 0.34800
C 	C 	0.48213 0.09557 0.12053 -0.04300
C 	C 	0.47423 0.07817 0.08607 -0.04100
H 	H 	0.42923 0.07627 0.07437 0.06300
C 	C 	0.58203 0.05277 0.01207 0.09600
C 	C 	0.54393 0.97597 0.02367 -0.04600
C 	C 	0.60743 0.94847 0.02527 0.30200
O 	O 	0.73643 0.15997 0.02337 -0.11900
C 	C 	0.67533 0.09927 0.00617 0.09500
O 	O 	0.63963 0.93397 0.05007 -0.20700
C 	C 	0.45903 0.05167 0.08987 -0.01500
H 	H 	0.40683 0.03517 0.08007 0.05400
O 	O 	0.37097 0.89135 0.50031 -0.39700
O 	O 	0.41319 0.97543 0.45490 -0.38200
C 	C 	0.36090 0.91110 0.47115 0.34800
C 	C 	0.28010 0.85120 0.45386 -0.04500
C 	C 	0.27060 0.85910 0.41940 -0.04300
H 	H 	0.31370 0.90410 0.40770 0.06400
C 	C 	0.13740 0.75130 0.34540 0.09500
C 	C 	0.09870 0.78940 0.35700 -0.04900
C 	C 	0.00770 0.72590 0.35860 0.32200
O 	O 	0.09020 0.59690 0.35670 -0.11800
C 	C 	0.09060 0.65800 0.33950 0.08900
O 	O 	0.96100 0.69370 0.38340 -0.21600
C 	C 	0.25930 0.87430 0.42320 -0.01400
H 	H 	0.29500 0.92650 0.41340 0.05000
O 	O 	0.03764 0.22468 0.83364 -0.39500
O 	O 	0.07986 0.30876 0.78823 -0.37900
C 	C 	0.02757 0.24443 0.80448 0.35500
C 	C 	0.94677 0.18453 0.78719 -0.05100
C 	C 	0.93727 0.19243 0.75273 -0.04200
H 	H 	0.98037 0.23743 0.74103 0.06200
C 	C 	0.80407 0.08463 0.67873 0.10100
C 	C 	0.76537 0.12273 0.69033 -0.04700
C 	C 	0.67437 0.05923 0.69193 0.30900
O 	O 	0.75687 0.93023 0.69003 -0.11800
C 	C 	0.75727 0.99133 0.67283 0.07600
O 	O 	0.62767 0.02703 0.71673 -0.20500
C 	C 	0.92597 0.20763 0.75653 -0.01300
H 	H 	0.96167 0.25983 0.74673 0.05000
O 	O 	0.70430 0.55802 0.16698 -0.39600
O 	O 	0.74652 0.64210 0.12157 -0.38000
C 	C 	0.69423 0.57777 0.13782 0.34800
C 	C 	0.61343 0.51787 0.12053 -0.04400
C 	C 	0.60393 0.52577 0.08607 -0.04200
H 	H 	0.64703 0.57077 0.07437 0.06400
C 	C 	0.47073 0.41797 0.01207 0.09200
C 	C 	0.43203 0.45607 0.02367 -0.03800
C 	C 	0.34103 0.39257 0.02527 0.30600
O 	O 	0.42353 0.26357 0.02337 -0.11900
C 	C 	0.42393 0.32467 0.00617 0.09600
O 	O 	0.29433 0.36037 0.05007 -0.20400
C 	C 	0.59263 0.54097 0.08987 -0.01400
H 	H 	0.62833 0.59317 0.08007 0.05100
Cu	Cu	0.47491 0.52509 0.52642 0.91400
Cu	Cu	0.14158 0.85842 0.85975 0.91400
Cu	Cu	0.80824 0.19176 0.19309 0.91400
Cu	Cu	0.47491 0.94982 0.52642 0.91200
Cu	Cu	0.14158 0.28315 0.85975 0.91500
Cu	Cu	0.80824 0.61649 0.19309 0.91400
Cu	Cu	0.05018 0.52509 0.52642 0.91700
Cu	Cu	0.71685 0.85842 0.85975 0.91400
Cu	Cu	0.38351 0.19176 0.19309 0.91400
Cu	Cu	0.52509 0.47491 0.47358 0.91400
Cu	Cu	0.19176 0.80824 0.80691 0.91400
Cu	Cu	0.85842 0.14158 0.14025 0.91400
Cu	Cu	0.94982 0.47491 0.47358 0.91200
Cu	Cu	0.61649 0.80824 0.80691 0.91400
Cu	Cu	0.28315 0.14158 0.14025 0.91500
Cu	Cu	0.52509 0.05018 0.47358 0.91700
Cu	Cu	0.19176 0.38351 0.80691 0.91400
Cu	Cu	0.85842 0.71685 0.14025 0.91400
C 	C 	0.22155 0.44310 0.47041 -0.00100
H 	H 	0.23105 0.46210 0.49260 0.07500
N 	N 	0.18925 0.37850 0.36680 -0.10500
C 	C 	0.19850 0.39700 0.40190 0.00200
N 	N 	0.16840 0.33680 0.37430 -0.03300
C 	C 	0.18345 0.36690 0.40800 0.09000
C 	C 	0.88822 0.77643 0.80374 0.00300
H 	H 	0.89772 0.79543 0.82593 0.07100
N 	N 	0.85592 0.71183 0.70013 -0.10100
C 	C 	0.86517 0.73033 0.73523 0.00300
N 	N 	0.83507 0.67013 0.70763 -0.03800
C 	C 	0.85012 0.70023 0.74133 0.08700
C 	C 	0.55488 0.10977 0.13708 -0.00100
H 	H 	0.56438 0.12877 0.15927 0.07500
N 	N 	0.52258 0.04517 0.03347 -0.10800
C 	C 	0.53183 0.06367 0.06857 0.00500
N 	N 	0.50173 0.00347 0.04097 -0.02800
C 	C 	0.51678 0.03357 0.07467 0.08900
C 	C 	0.55690 0.77845 0.47041 -0.00100
H 	H 	0.53790 0.76895 0.49260 0.07400
N 	N 	0.62150 0.81075 0.36680 -0.10100
C 	C 	0.60300 0.80150 0.40190 -0.00100
N 	N 	0.66320 0.83160 0.37430 -0.04000
C 	C 	0.63310 0.81655 0.40800 0.09300
C 	C 	0.22357 0.11178 0.80374 -0.00500
H 	H 	0.20457 0.10228 0.82593 0.07700
N 	N 	0.28817 0.14408 0.70013 -0.10500
C 	C 	0.26967 0.13483 0.73523 -0.00200
N 	N 	0.32987 0.16493 0.70763 -0.03500
C 	C 	0.29977 0.14988 0.74133 0.09600
C 	C 	0.89023 0.44512 0.13708 -0.00100
H 	H 	0.87123 0.43562 0.15927 0.07400
N 	N 	0.95483 0.47742 0.03347 -0.09600
C 	C 	0.93633 0.46817 0.06857 -0.00100
N 	N 	0.99653 0.49827 0.04097 -0.05000
C 	C 	0.96643 0.48322 0.07467 0.09200
C 	C 	0.22155 0.77845 0.47041 -0.00100
H 	H 	0.23105 0.76895 0.49260 0.07400
N 	N 	0.18925 0.81075 0.36680 -0.10300
C 	C 	0.19850 0.80150 0.40190 0.00100
N 	N 	0.16840 0.83160 0.37430 -0.03700
C 	C 	0.18345 0.81655 0.40800 0.09200
C 	C 	0.88822 0.11178 0.80374 -0.00100
H 	H 	0.89772 0.10228 0.82593 0.07400
N 	N 	0.85592 0.14408 0.70013 -0.10300
C 	C 	0.86517 0.13483 0.73523 0.00100
N 	N 	0.83507 0.16493 0.70763 -0.03700
C 	C 	0.85012 0.14988 0.74133 0.09100
C 	C 	0.55488 0.44512 0.13708 -0.00100
H 	H 	0.56438 0.43562 0.15927 0.07400
N 	N 	0.52258 0.47742 0.03347 -0.10300
C 	C 	0.53183 0.46817 0.06857 0.00100
N 	N 	0.50173 0.49827 0.04097 -0.03800
C 	C 	0.51678 0.48322 0.07467 0.09100
C 	C 	0.44310 0.22155 0.52959 -0.00100
H 	H 	0.46210 0.23105 0.50740 0.07500
N 	N 	0.37850 0.18925 0.63320 -0.10500
C 	C 	0.39700 0.19850 0.59810 0.00200
N 	N 	0.33680 0.16840 0.62570 -0.03300
C 	C 	0.36690 0.18345 0.59200 0.09000
C 	C 	0.10977 0.55488 0.86292 -0.00100
H 	H 	0.12877 0.56438 0.84073 0.07500
N 	N 	0.04517 0.52258 0.96653 -0.10600
C 	C 	0.06367 0.53183 0.93143 0.00400
N 	N 	0.00347 0.50173 0.95903 -0.02800
C 	C 	0.03357 0.51678 0.92533 0.08900
C 	C 	0.77643 0.88822 0.19626 0.00300
H 	H 	0.79543 0.89772 0.17407 0.07100
N 	N 	0.71183 0.85592 0.29987 -0.10100
C 	C 	0.73033 0.86517 0.26477 0.00300
N 	N 	0.67013 0.83507 0.29237 -0.03800
C 	C 	0.70023 0.85012 0.25867 0.08700
C 	C 	0.77845 0.55690 0.52959 -0.00100
H 	H 	0.76895 0.53790 0.50740 0.07400
N 	N 	0.81075 0.62150 0.63320 -0.10100
C 	C 	0.80150 0.60300 0.59810 -0.00100
N 	N 	0.83160 0.66320 0.62570 -0.04000
C 	C 	0.81655 0.63310 0.59200 0.09300
C 	C 	0.44512 0.89023 0.86292 -0.00100
H 	H 	0.43562 0.87123 0.84073 0.07400
N 	N 	0.47742 0.95483 0.96653 -0.09400
C 	C 	0.46817 0.93633 0.93143 -0.00100
N 	N 	0.49827 0.99653 0.95903 -0.04900
C 	C 	0.48322 0.96643 0.92533 0.09200
C 	C 	0.11178 0.22357 0.19626 -0.00500
H 	H 	0.10228 0.20457 0.17407 0.07800
N 	N 	0.14408 0.28817 0.29987 -0.10500
C 	C 	0.13483 0.26967 0.26477 -0.00200
N 	N 	0.16493 0.32987 0.29237 -0.03500
C 	C 	0.14988 0.29977 0.25867 0.09600
C 	C 	0.77845 0.22155 0.52959 -0.00100
H 	H 	0.76895 0.23105 0.50740 0.07400
N 	N 	0.81075 0.18925 0.63320 -0.10300
C 	C 	0.80150 0.19850 0.59810 0.00100
N 	N 	0.83160 0.16840 0.62570 -0.03700
C 	C 	0.81655 0.18345 0.59200 0.09200
C 	C 	0.44512 0.55488 0.86292 -0.00100
H 	H 	0.43562 0.56438 0.84073 0.07400
N 	N 	0.47742 0.52258 0.96653 -0.10100
C 	C 	0.46817 0.53183 0.93143 0.00100
N 	N 	0.49827 0.50173 0.95903 -0.03800
C 	C 	0.48322 0.51678 0.92533 0.09100
C 	C 	0.11178 0.88822 0.19626 -0.00100
H 	H 	0.10228 0.89772 0.17407 0.07400
N 	N 	0.14408 0.85592 0.29987 -0.10300
C 	C 	0.13483 0.86517 0.26477 0.00100
N 	N 	0.16493 0.83507 0.29237 -0.03700
C 	C 	0.14988 0.85012 0.25867 0.09100
O 	O 	0.03152 0.33333 0.33333 -0.35600
O 	O 	0.66667 0.69818 0.33333 -0.35400
O 	O 	0.30182 0.96848 0.33333 -0.35300
O 	O 	0.33333 0.03152 0.66667 -0.35600
O 	O 	0.00000 0.36485 -0.00000 -0.33900
O 	O 	0.69818 0.66667 0.66667 -0.35400
O 	O 	0.36485 0.00000 -0.00000 -0.33900
O 	O 	0.96848 0.30182 0.66667 -0.35300
O 	O 	0.63515 0.63515 -0.00000 -0.34700
O 	O 	0.96848 0.66667 0.66667 -0.35300
O 	O 	0.63515 0.00000 -0.00000 -0.34000
O 	O 	0.30182 0.33333 0.33333 -0.35400
O 	O 	0.33333 0.30182 0.66667 -0.35400
O 	O 	-0.00000 0.63515 -0.00000 -0.34000
O 	O 	0.69818 0.03152 0.66667 -0.35600
O 	O 	0.36485 0.36485 -0.00000 -0.34600
O 	O 	0.66667 0.96848 0.33333 -0.35300
O 	O 	0.03152 0.69818 0.33333 -0.35600
