data_crystal

_cell_length_a 28.18700
_cell_length_b 14.00200
_cell_length_c 27.65700
_cell_angle_alpha 90.00000
_cell_angle_beta  116.22800
_cell_angle_gamma 90.00000

_symmetry_space_group_name_	'P 1'
_symmetry_space_group_name_H-M	'P 1'

loop_
_symmetry_equiv_pos_as_xyz
  x,y,z

loop_
_atom_site_label
_atom_site_type_symbol
_atom_site_fract_x
_atom_site_fract_y
_atom_site_fract_z
_atom_site_charge
Cd	Cd	0.19982 0.63155 0.15299 1.19300
Cd	Cd	0.40450 0.37502 0.04978 1.18900
Cd	Cd	0.12435 0.46383 0.22083 1.17400
O 	O 	0.17927 0.47081 0.14634 -0.49000
O 	O 	0.34035 0.50180 0.11905 -0.29700
O 	O 	0.18460 0.37369 0.21237 -0.46500
O 	O 	0.31795 0.10763 0.27146 -0.51600
O 	O 	0.38598 0.36840 0.12425 -0.41900
O 	O 	0.38485 0.11850 0.25161 -0.43800
N 	N 	0.10859 0.08480 0.11115 -0.31700
N 	N 	0.21434 0.11500 0.28707 -0.24400
N 	N 	0.31427 0.38420 0.99197 -0.24300
N 	N 	0.23037 0.43290 0.95485 -0.31000
N 	N 	0.19284 0.79320 0.15191 -0.25800
N 	N 	0.06881 0.96700 0.15102 -0.31300
N 	N 	0.13586 0.42260 0.93714 -0.31400
N 	N 	0.20305 0.61310 0.07204 -0.25100
N 	N 	0.19263 0.55960 0.99217 -0.31800
N 	N 	0.14890 0.06090 0.21200 -0.31400
N 	N 	0.08361 0.13460 0.02706 -0.25400
N 	N 	0.16344 0.55160 0.89225 -0.31100
N 	N 	0.15704 0.93480 0.15074 -0.30900
N 	N 	0.98734 0.90810 0.11247 -0.25800
N 	N 	0.13723 0.57640 0.80465 -0.25800
N 	N 	0.09590 0.28950 0.94339 -0.24000
C 	C 	0.22414 0.86260 0.14536 -0.02600
H 	H 	0.25530 0.85160 0.14250 0.01600
C 	C 	0.01123 0.87950 0.16522 -0.02500
H 	H 	0.99580 0.84160 0.18190 0.03100
C 	C 	0.27247 0.27840 0.21360 0.08900
H 	H 	0.25520 0.24930 0.23160 -0.00300
C 	C 	0.32494 0.36690 0.16114 -0.14500
C 	C 	0.31987 0.24090 0.21799 -0.16500
C 	C 	0.23478 0.35700 0.92494 0.04200
H 	H 	0.20740 0.33020 0.89470 0.00900
C 	C 	0.34284 0.15110 0.24974 0.35300
C 	C 	0.35338 0.41520 0.13283 0.34800
C 	C 	0.20082 0.40460 0.17956 0.37700
C 	C 	0.06079 0.91520 0.18914 0.04000
H 	H 	0.08510 0.90640 0.22490 0.01000
C 	C 	0.02312 0.95880 0.10596 0.12900
H 	H 	0.01750 0.98650 0.07330 -0.06200
C 	C 	0.34585 0.28520 0.19148 0.07500
H 	H 	0.37740 0.25990 0.19410 0.02200
C 	C 	0.16373 0.52100 0.84634 0.13200
H 	H 	0.18110 0.46570 0.84420 -0.04100
C 	C 	0.05854 0.35390 0.91250 -0.02400
H 	H 	0.02220 0.34330 0.89680 -0.00200
C 	C 	0.18272 0.54630 0.03522 0.13800
H 	H 	0.16340 0.49490 0.03850 -0.04500
C 	C 	0.20241 0.94960 0.14378 0.03500
H 	H 	0.21540 0.00800 0.13900 0.00100
C 	C 	0.27710 0.40360 0.15609 0.08100
H 	H 	0.26270 0.45760 0.13510 -0.00400
C 	C 	0.13370 0.63430 0.87777 0.03900
H 	H 	0.12580 0.67310 0.90050 -0.00900
C 	C 	0.15366 0.83980 0.15504 0.13200
H 	H 	0.12650 0.81000 0.15970 -0.06000
C 	C 	0.09803 0.06140 0.05999 0.12300
H 	H 	0.10070 0.99950 0.04920 -0.06600
C 	C 	0.20135 0.06550 0.24256 0.14000
H 	H 	0.22590 0.03680 0.23330 -0.03900
C 	C 	0.12742 0.11330 0.23943 0.04600
H 	H 	0.09170 0.12550 0.22840 -0.01100
C 	C 	0.11834 0.64860 0.82464 -0.03500
H 	H 	0.09800 0.69970 0.80470 0.00400
C 	C 	0.28582 0.32880 0.94740 -0.02300
H 	H 	0.29960 0.27970 0.93470 0.02500
C 	C 	0.10082 0.18180 0.11014 0.05200
H 	H 	0.10480 0.21990 0.13920 -0.02200
C 	C 	0.27985 0.44440 0.99458 0.12900
H 	H 	0.28870 0.49080 0.02130 -0.03200
C 	C 	0.22300 0.64080 0.00401 0.04900
H 	H 	0.23700 0.66880 0.98260 -0.00700
C 	C 	0.14156 0.33330 0.95700 0.12800
H 	H 	0.17420 0.30540 0.97810 -0.04000
C 	C 	0.08201 0.43520 0.90800 0.03900
H 	H 	0.06500 0.48950 0.88880 -0.02300
C 	C 	0.22880 0.67250 0.05242 -0.02900
H 	H 	0.24760 0.72680 0.06980 0.01500
C 	C 	0.16788 0.14380 0.28543 -0.01500
H 	H 	0.16440 0.17940 0.31200 0.02000
C 	C 	0.08640 0.21160 0.05926 -0.03900
H 	H 	0.07940 0.27460 0.04760 0.01100
C 	C 	0.25078 0.35960 0.18235 -0.16600
B 	B 	0.18059 0.49210 0.94440 0.93100
B 	B 	0.12084 0.01260 0.15664 0.93100
Cd	Cd	0.69982 0.13155 0.15299 1.19200
Cd	Cd	0.90450 0.87502 0.04978 1.18800
Cd	Cd	0.62435 0.96383 0.22083 1.17400
O 	O 	0.67927 0.97081 0.14634 -0.49100
O 	O 	0.84035 0.00180 0.11905 -0.29800
O 	O 	0.68460 0.87369 0.21237 -0.46500
O 	O 	0.81795 0.60763 0.27146 -0.51600
O 	O 	0.88598 0.86840 0.12425 -0.41900
O 	O 	0.88485 0.61850 0.25161 -0.43800
N 	N 	0.60859 0.58480 0.11115 -0.31800
N 	N 	0.71434 0.61500 0.28707 -0.24400
N 	N 	0.81427 0.88420 0.99197 -0.24300
N 	N 	0.73037 0.93290 0.95485 -0.31000
N 	N 	0.69284 0.29320 0.15191 -0.25900
N 	N 	0.56881 0.46700 0.15102 -0.31400
N 	N 	0.63586 0.92260 0.93714 -0.31300
N 	N 	0.70305 0.11310 0.07204 -0.25100
N 	N 	0.69263 0.05960 0.99217 -0.31500
N 	N 	0.64890 0.56090 0.21200 -0.31400
N 	N 	0.58361 0.63460 0.02706 -0.25400
N 	N 	0.66344 0.05160 0.89225 -0.31100
N 	N 	0.65704 0.43480 0.15074 -0.30900
N 	N 	0.48734 0.40810 0.11247 -0.25800
N 	N 	0.63723 0.07640 0.80465 -0.25900
N 	N 	0.59590 0.78950 0.94339 -0.24000
C 	C 	0.72414 0.36260 0.14536 -0.02500
H 	H 	0.75530 0.35160 0.14250 0.01600
C 	C 	0.51123 0.37950 0.16522 -0.02600
H 	H 	0.49580 0.34160 0.18190 0.03200
C 	C 	0.77247 0.77840 0.21360 0.08900
H 	H 	0.75520 0.74930 0.23160 -0.00300
C 	C 	0.82494 0.86690 0.16114 -0.14500
C 	C 	0.81987 0.74090 0.21799 -0.16500
C 	C 	0.73478 0.85700 0.92494 0.04200
H 	H 	0.70740 0.83020 0.89470 0.00900
C 	C 	0.84284 0.65110 0.24974 0.35300
C 	C 	0.85338 0.91520 0.13283 0.34900
C 	C 	0.70082 0.90460 0.17956 0.37700
C 	C 	0.56079 0.41520 0.18914 0.04000
H 	H 	0.58510 0.40640 0.22490 0.00900
C 	C 	0.52312 0.45880 0.10596 0.12900
H 	H 	0.51750 0.48650 0.07330 -0.06200
C 	C 	0.84585 0.78520 0.19148 0.07500
H 	H 	0.87740 0.75990 0.19410 0.02200
C 	C 	0.66373 0.02100 0.84634 0.13400
H 	H 	0.68110 0.96570 0.84420 -0.04200
C 	C 	0.55854 0.85390 0.91250 -0.02400
H 	H 	0.52220 0.84330 0.89680 -0.00200
C 	C 	0.68272 0.04630 0.03522 0.13500
H 	H 	0.66340 0.99490 0.03850 -0.04300
C 	C 	0.70241 0.44960 0.14378 0.03400
H 	H 	0.71540 0.50800 0.13900 0.00200
C 	C 	0.77710 0.90360 0.15609 0.08100
H 	H 	0.76270 0.95760 0.13510 -0.00300
C 	C 	0.63370 0.13430 0.87777 0.03900
H 	H 	0.62580 0.17310 0.90050 -0.00800
C 	C 	0.65366 0.33980 0.15504 0.13200
H 	H 	0.62650 0.31000 0.15970 -0.06000
C 	C 	0.59803 0.56140 0.05999 0.12400
H 	H 	0.60070 0.49950 0.04920 -0.06700
C 	C 	0.70135 0.56550 0.24256 0.14000
H 	H 	0.72590 0.53680 0.23330 -0.03900
C 	C 	0.62742 0.61330 0.23943 0.04600
H 	H 	0.59170 0.62550 0.22840 -0.01100
C 	C 	0.61834 0.14860 0.82464 -0.03500
H 	H 	0.59800 0.19970 0.80470 0.00400
C 	C 	0.78582 0.82880 0.94740 -0.02300
H 	H 	0.79960 0.77970 0.93470 0.02500
C 	C 	0.60082 0.68180 0.11014 0.05200
H 	H 	0.60480 0.71990 0.13920 -0.02200
C 	C 	0.77985 0.94440 0.99458 0.12800
H 	H 	0.78870 0.99080 0.02130 -0.03100
C 	C 	0.72300 0.14080 0.00401 0.04400
H 	H 	0.73700 0.16880 0.98260 -0.00400
C 	C 	0.64156 0.83330 0.95700 0.12800
H 	H 	0.67420 0.80540 0.97810 -0.04000
C 	C 	0.58201 0.93520 0.90800 0.03800
H 	H 	0.56500 0.98950 0.88880 -0.02300
C 	C 	0.72880 0.17250 0.05242 -0.02700
H 	H 	0.74760 0.22680 0.06980 0.01400
C 	C 	0.66788 0.64380 0.28543 -0.01500
H 	H 	0.66440 0.67940 0.31200 0.02000
C 	C 	0.58640 0.71160 0.05926 -0.03900
H 	H 	0.57940 0.77460 0.04760 0.01100
C 	C 	0.75078 0.85960 0.18235 -0.16600
B 	B 	0.68059 0.99210 0.94440 0.93000
B 	B 	0.62084 0.51260 0.15664 0.93200
Cd	Cd	0.80018 0.63155 0.34701 1.19200
Cd	Cd	0.59550 0.37502 0.45022 1.18800
Cd	Cd	0.87565 0.46383 0.27917 1.17300
O 	O 	0.82073 0.47081 0.35366 -0.49100
O 	O 	0.65965 0.50180 0.38095 -0.29700
O 	O 	0.81540 0.37369 0.28763 -0.46500
O 	O 	0.68205 0.10763 0.22854 -0.51600
O 	O 	0.61402 0.36840 0.37575 -0.41900
O 	O 	0.61515 0.11850 0.24839 -0.43800
N 	N 	0.89141 0.08480 0.38885 -0.31800
N 	N 	0.78566 0.11500 0.21293 -0.24400
N 	N 	0.68573 0.38420 0.50803 -0.24300
N 	N 	0.76963 0.43290 0.54515 -0.31000
N 	N 	0.80716 0.79320 0.34809 -0.25800
N 	N 	0.93119 0.96700 0.34898 -0.31400
N 	N 	0.86414 0.42260 0.56286 -0.31400
N 	N 	0.79695 0.61310 0.42796 -0.25100
N 	N 	0.80737 0.55960 0.50783 -0.31700
N 	N 	0.85110 0.06090 0.28800 -0.31400
N 	N 	0.91639 0.13460 0.47294 -0.25400
N 	N 	0.83656 0.55160 0.60775 -0.31100
N 	N 	0.84296 0.93480 0.34926 -0.30900
N 	N 	0.01266 0.90810 0.38753 -0.25800
N 	N 	0.86277 0.57640 0.69535 -0.25800
N 	N 	0.90410 0.28950 0.55661 -0.24000
C 	C 	0.77586 0.86260 0.35464 -0.02500
H 	H 	0.74470 0.85160 0.35750 0.01600
C 	C 	0.98877 0.87950 0.33478 -0.02600
H 	H 	0.00420 0.84160 0.31810 0.03200
C 	C 	0.72753 0.27840 0.28640 0.08900
H 	H 	0.74480 0.24930 0.26840 -0.00300
C 	C 	0.67506 0.36690 0.33886 -0.14500
C 	C 	0.68013 0.24090 0.28201 -0.16500
C 	C 	0.76522 0.35700 0.57506 0.04200
H 	H 	0.79260 0.33020 0.60530 0.00900
C 	C 	0.65716 0.15110 0.25026 0.35300
C 	C 	0.64662 0.41520 0.36717 0.34800
C 	C 	0.79918 0.40460 0.32044 0.37700
C 	C 	0.93921 0.91520 0.31086 0.04100
H 	H 	0.91490 0.90640 0.27510 0.01000
C 	C 	0.97688 0.95880 0.39404 0.12900
H 	H 	0.98250 0.98650 0.42670 -0.06200
C 	C 	0.65415 0.28520 0.30852 0.07500
H 	H 	0.62260 0.25990 0.30590 0.02200
C 	C 	0.83627 0.52100 0.65366 0.13200
H 	H 	0.81890 0.46570 0.65580 -0.04100
C 	C 	0.94146 0.35390 0.58750 -0.02400
H 	H 	0.97780 0.34330 0.60320 -0.00200
C 	C 	0.81728 0.54630 0.46478 0.13700
H 	H 	0.83660 0.49490 0.46150 -0.04500
C 	C 	0.79759 0.94960 0.35622 0.03500
H 	H 	0.78460 0.00800 0.36100 0.00100
C 	C 	0.72290 0.40360 0.34391 0.08100
H 	H 	0.73730 0.45760 0.36490 -0.00400
C 	C 	0.86630 0.63430 0.62223 0.03900
H 	H 	0.87420 0.67310 0.59950 -0.00900
C 	C 	0.84634 0.83980 0.34496 0.13200
H 	H 	0.87350 0.81000 0.34030 -0.06000
C 	C 	0.90197 0.06140 0.44001 0.12400
H 	H 	0.89930 0.99950 0.45080 -0.06700
C 	C 	0.79865 0.06550 0.25744 0.14000
H 	H 	0.77410 0.03680 0.26670 -0.03900
C 	C 	0.87258 0.11330 0.26057 0.04600
H 	H 	0.90830 0.12550 0.27160 -0.01100
C 	C 	0.88166 0.64860 0.67536 -0.03500
H 	H 	0.90200 0.69970 0.69530 0.00400
C 	C 	0.71418 0.32880 0.55260 -0.02300
H 	H 	0.70040 0.27970 0.56530 0.02500
C 	C 	0.89918 0.18180 0.38986 0.05200
H 	H 	0.89520 0.21990 0.36080 -0.02200
C 	C 	0.72015 0.44440 0.50542 0.12900
H 	H 	0.71130 0.49080 0.47870 -0.03200
C 	C 	0.77700 0.64080 0.49599 0.04700
H 	H 	0.76300 0.66880 0.51740 -0.00600
C 	C 	0.85844 0.33330 0.54300 0.12800
H 	H 	0.82580 0.30540 0.52190 -0.04000
C 	C 	0.91799 0.43520 0.59200 0.03900
H 	H 	0.93500 0.48950 0.61120 -0.02300
C 	C 	0.77120 0.67250 0.44758 -0.02800
H 	H 	0.75240 0.72680 0.43020 0.01500
C 	C 	0.83212 0.14380 0.21457 -0.01500
H 	H 	0.83560 0.17940 0.18800 0.02000
C 	C 	0.91360 0.21160 0.44074 -0.03900
H 	H 	0.92060 0.27460 0.45240 0.01100
C 	C 	0.74922 0.35960 0.31765 -0.16600
B 	B 	0.81941 0.49210 0.55560 0.93100
B 	B 	0.87916 0.01260 0.34336 0.93100
Cd	Cd	0.30018 0.13155 0.34701 1.19200
Cd	Cd	0.09550 0.87502 0.45022 1.18800
Cd	Cd	0.37565 0.96383 0.27917 1.17400
O 	O 	0.32073 0.97081 0.35366 -0.49100
O 	O 	0.15965 0.00180 0.38095 -0.29700
O 	O 	0.31540 0.87369 0.28763 -0.46500
O 	O 	0.18205 0.60763 0.22854 -0.51600
O 	O 	0.11402 0.86840 0.37575 -0.41900
O 	O 	0.11515 0.61850 0.24839 -0.43800
N 	N 	0.39141 0.58480 0.38885 -0.31800
N 	N 	0.28566 0.61500 0.21293 -0.24400
N 	N 	0.18573 0.88420 0.50803 -0.24300
N 	N 	0.26963 0.93290 0.54515 -0.31000
N 	N 	0.30716 0.29320 0.34809 -0.25900
N 	N 	0.43119 0.46700 0.34898 -0.31400
N 	N 	0.36414 0.92260 0.56286 -0.31400
N 	N 	0.29695 0.11310 0.42796 -0.25100
N 	N 	0.30737 0.05960 0.50783 -0.31700
N 	N 	0.35110 0.56090 0.28800 -0.31400
N 	N 	0.41639 0.63460 0.47294 -0.25400
N 	N 	0.33656 0.05160 0.60775 -0.31100
N 	N 	0.34296 0.43480 0.34926 -0.30900
N 	N 	0.51266 0.40810 0.38753 -0.25800
N 	N 	0.36277 0.07640 0.69535 -0.25800
N 	N 	0.40410 0.78950 0.55661 -0.24000
C 	C 	0.27586 0.36260 0.35464 -0.02500
H 	H 	0.24470 0.35160 0.35750 0.01600
C 	C 	0.48877 0.37950 0.33478 -0.02600
H 	H 	0.50420 0.34160 0.31810 0.03200
C 	C 	0.22753 0.77840 0.28640 0.08900
H 	H 	0.24480 0.74930 0.26840 -0.00300
C 	C 	0.17506 0.86690 0.33886 -0.14500
C 	C 	0.18013 0.74090 0.28201 -0.16500
C 	C 	0.26522 0.85700 0.57506 0.04200
H 	H 	0.29260 0.83020 0.60530 0.00900
C 	C 	0.15716 0.65110 0.25026 0.35300
C 	C 	0.14662 0.91520 0.36717 0.34800
C 	C 	0.29918 0.90460 0.32044 0.37700
C 	C 	0.43921 0.41520 0.31086 0.04000
H 	H 	0.41490 0.40640 0.27510 0.00900
C 	C 	0.47688 0.45880 0.39404 0.12900
H 	H 	0.48250 0.48650 0.42670 -0.06200
C 	C 	0.15415 0.78520 0.30852 0.07500
H 	H 	0.12260 0.75990 0.30590 0.02200
C 	C 	0.33627 0.02100 0.65366 0.13300
H 	H 	0.31890 0.96570 0.65580 -0.04200
C 	C 	0.44146 0.85390 0.58750 -0.02400
H 	H 	0.47780 0.84330 0.60320 -0.00200
C 	C 	0.31728 0.04630 0.46478 0.13800
H 	H 	0.33660 0.99490 0.46150 -0.04400
C 	C 	0.29759 0.44960 0.35622 0.03400
H 	H 	0.28460 0.50800 0.36100 0.00200
C 	C 	0.22290 0.90360 0.34391 0.08100
H 	H 	0.23730 0.95760 0.36490 -0.00400
C 	C 	0.36630 0.13430 0.62223 0.03900
H 	H 	0.37420 0.17310 0.59950 -0.00900
C 	C 	0.34634 0.33980 0.34496 0.13200
H 	H 	0.37350 0.31000 0.34030 -0.06000
C 	C 	0.40197 0.56140 0.44001 0.12400
H 	H 	0.39930 0.49950 0.45080 -0.06700
C 	C 	0.29865 0.56550 0.25744 0.14000
H 	H 	0.27410 0.53680 0.26670 -0.03900
C 	C 	0.37258 0.61330 0.26057 0.04600
H 	H 	0.40830 0.62550 0.27160 -0.01100
C 	C 	0.38166 0.14860 0.67536 -0.03500
H 	H 	0.40200 0.19970 0.69530 0.00400
C 	C 	0.21418 0.82880 0.55260 -0.02300
H 	H 	0.20040 0.77970 0.56530 0.02500
C 	C 	0.39918 0.68180 0.38986 0.05200
H 	H 	0.39520 0.71990 0.36080 -0.02200
C 	C 	0.22015 0.94440 0.50542 0.12900
H 	H 	0.21130 0.99080 0.47870 -0.03200
C 	C 	0.27700 0.14080 0.49599 0.04700
H 	H 	0.26300 0.16880 0.51740 -0.00600
C 	C 	0.35844 0.83330 0.54300 0.12800
H 	H 	0.32580 0.80540 0.52190 -0.04000
C 	C 	0.41799 0.93520 0.59200 0.03900
H 	H 	0.43500 0.98950 0.61120 -0.02300
C 	C 	0.27120 0.17250 0.44758 -0.02800
H 	H 	0.25240 0.22680 0.43020 0.01500
C 	C 	0.33212 0.64380 0.21457 -0.01500
H 	H 	0.33560 0.67940 0.18800 0.02000
C 	C 	0.41360 0.71160 0.44074 -0.03900
H 	H 	0.42060 0.77460 0.45240 0.01100
C 	C 	0.24922 0.85960 0.31765 -0.16600
B 	B 	0.31941 0.99210 0.55560 0.93100
B 	B 	0.37916 0.51260 0.34336 0.93200
Cd	Cd	0.80018 0.36845 0.84701 1.19200
Cd	Cd	0.59550 0.62498 0.95022 1.18800
Cd	Cd	0.87565 0.53617 0.77917 1.17300
O 	O 	0.82073 0.52919 0.85366 -0.49100
O 	O 	0.65965 0.49820 0.88095 -0.29700
O 	O 	0.81540 0.62631 0.78763 -0.46500
O 	O 	0.68205 0.89237 0.72854 -0.51600
O 	O 	0.61402 0.63160 0.87575 -0.41900
O 	O 	0.61515 0.88150 0.74839 -0.43800
N 	N 	0.89141 0.91520 0.88885 -0.31700
N 	N 	0.78566 0.88500 0.71293 -0.24400
N 	N 	0.68573 0.61580 0.00803 -0.24300
N 	N 	0.76963 0.56710 0.04515 -0.31000
N 	N 	0.80716 0.20680 0.84809 -0.25800
N 	N 	0.93119 0.03300 0.84898 -0.31300
N 	N 	0.86414 0.57740 0.06286 -0.31400
N 	N 	0.79695 0.38690 0.92796 -0.25100
N 	N 	0.80737 0.44040 0.00783 -0.31800
N 	N 	0.85110 0.93910 0.78800 -0.31400
N 	N 	0.91639 0.86540 0.97294 -0.25400
N 	N 	0.83656 0.44840 0.10775 -0.31100
N 	N 	0.84296 0.06520 0.84926 -0.30900
N 	N 	0.01266 0.09190 0.88753 -0.25800
N 	N 	0.86277 0.42360 0.19535 -0.25800
N 	N 	0.90410 0.71050 0.05661 -0.24000
C 	C 	0.77586 0.13740 0.85464 -0.02600
H 	H 	0.74470 0.14840 0.85750 0.01600
C 	C 	0.98877 0.12050 0.83478 -0.02500
H 	H 	0.00420 0.15840 0.81810 0.03100
C 	C 	0.72753 0.72160 0.78640 0.08900
H 	H 	0.74480 0.75070 0.76840 -0.00300
C 	C 	0.67506 0.63310 0.83886 -0.14500
C 	C 	0.68013 0.75910 0.78201 -0.16500
C 	C 	0.76522 0.64300 0.07506 0.04200
H 	H 	0.79260 0.66980 0.10530 0.00900
C 	C 	0.65716 0.84890 0.75026 0.35300
C 	C 	0.64662 0.58480 0.86717 0.34800
C 	C 	0.79918 0.59540 0.82044 0.37700
C 	C 	0.93921 0.08480 0.81086 0.04000
H 	H 	0.91490 0.09360 0.77510 0.01000
C 	C 	0.97688 0.04120 0.89404 0.12900
H 	H 	0.98250 0.01350 0.92670 -0.06200
C 	C 	0.65415 0.71480 0.80852 0.07500
H 	H 	0.62260 0.74010 0.80590 0.02200
C 	C 	0.83627 0.47900 0.15366 0.13200
H 	H 	0.81890 0.53430 0.15580 -0.04100
C 	C 	0.94146 0.64610 0.08750 -0.02400
H 	H 	0.97780 0.65670 0.10320 -0.00200
C 	C 	0.81728 0.45370 0.96478 0.13800
H 	H 	0.83660 0.50510 0.96150 -0.04500
C 	C 	0.79759 0.05040 0.85622 0.03500
H 	H 	0.78460 0.99200 0.86100 0.00100
C 	C 	0.72290 0.59640 0.84391 0.08100
H 	H 	0.73730 0.54240 0.86490 -0.00400
C 	C 	0.86630 0.36570 0.12223 0.03900
H 	H 	0.87420 0.32690 0.09950 -0.00900
C 	C 	0.84634 0.16020 0.84496 0.13200
H 	H 	0.87350 0.19000 0.84030 -0.06000
C 	C 	0.90197 0.93860 0.94001 0.12300
H 	H 	0.89930 0.00050 0.95080 -0.06600
C 	C 	0.79865 0.93450 0.75744 0.14000
H 	H 	0.77410 0.96320 0.76670 -0.03900
C 	C 	0.87258 0.88670 0.76057 0.04600
H 	H 	0.90830 0.87450 0.77160 -0.01100
C 	C 	0.88166 0.35140 0.17536 -0.03500
H 	H 	0.90200 0.30030 0.19530 0.00400
C 	C 	0.71418 0.67120 0.05260 -0.02300
H 	H 	0.70040 0.72030 0.06530 0.02500
C 	C 	0.89918 0.81820 0.88986 0.05200
H 	H 	0.89520 0.78010 0.86080 -0.02200
C 	C 	0.72015 0.55560 0.00542 0.12900
H 	H 	0.71130 0.50920 0.97870 -0.03200
C 	C 	0.77700 0.35920 0.99599 0.04900
H 	H 	0.76300 0.33120 0.01740 -0.00700
C 	C 	0.85844 0.66670 0.04300 0.12800
H 	H 	0.82580 0.69460 0.02190 -0.04000
C 	C 	0.91799 0.56480 0.09200 0.03900
H 	H 	0.93500 0.51050 0.11120 -0.02300
C 	C 	0.77120 0.32750 0.94758 -0.02900
H 	H 	0.75240 0.27320 0.93020 0.01500
C 	C 	0.83212 0.85620 0.71457 -0.01500
H 	H 	0.83560 0.82060 0.68800 0.02000
C 	C 	0.91360 0.78840 0.94074 -0.03900
H 	H 	0.92060 0.72540 0.95240 0.01100
C 	C 	0.74922 0.64040 0.81765 -0.16600
B 	B 	0.81941 0.50790 0.05560 0.93100
B 	B 	0.87916 0.98740 0.84336 0.93100
Cd	Cd	0.30018 0.86845 0.84701 1.19200
Cd	Cd	0.09550 0.12498 0.95022 1.18800
Cd	Cd	0.37565 0.03617 0.77917 1.17400
O 	O 	0.32073 0.02919 0.85366 -0.49100
O 	O 	0.15965 0.99820 0.88095 -0.29800
O 	O 	0.31540 0.12631 0.78763 -0.46500
O 	O 	0.18205 0.39237 0.72854 -0.51600
O 	O 	0.11402 0.13160 0.87575 -0.41900
O 	O 	0.11515 0.38150 0.74839 -0.43800
N 	N 	0.39141 0.41520 0.88885 -0.31800
N 	N 	0.28566 0.38500 0.71293 -0.24400
N 	N 	0.18573 0.11580 0.00803 -0.24300
N 	N 	0.26963 0.06710 0.04515 -0.31000
N 	N 	0.30716 0.70680 0.84809 -0.25900
N 	N 	0.43119 0.53300 0.84898 -0.31400
N 	N 	0.36414 0.07740 0.06286 -0.31300
N 	N 	0.29695 0.88690 0.92796 -0.25100
N 	N 	0.30737 0.94040 0.00783 -0.31500
N 	N 	0.35110 0.43910 0.78800 -0.31400
N 	N 	0.41639 0.36540 0.97294 -0.25400
N 	N 	0.33656 0.94840 0.10775 -0.31100
N 	N 	0.34296 0.56520 0.84926 -0.30900
N 	N 	0.51266 0.59190 0.88753 -0.25800
N 	N 	0.36277 0.92360 0.19535 -0.25900
N 	N 	0.40410 0.21050 0.05661 -0.24000
C 	C 	0.27586 0.63740 0.85464 -0.02500
H 	H 	0.24470 0.64840 0.85750 0.01600
C 	C 	0.48877 0.62050 0.83478 -0.02600
H 	H 	0.50420 0.65840 0.81810 0.03200
C 	C 	0.22753 0.22160 0.78640 0.08900
H 	H 	0.24480 0.25070 0.76840 -0.00300
C 	C 	0.17506 0.13310 0.83886 -0.14500
C 	C 	0.18013 0.25910 0.78201 -0.16500
C 	C 	0.26522 0.14300 0.07506 0.04200
H 	H 	0.29260 0.16980 0.10530 0.00900
C 	C 	0.15716 0.34890 0.75026 0.35300
C 	C 	0.14662 0.08480 0.86717 0.34900
C 	C 	0.29918 0.09540 0.82044 0.37700
C 	C 	0.43921 0.58480 0.81086 0.04000
H 	H 	0.41490 0.59360 0.77510 0.00900
C 	C 	0.47688 0.54120 0.89404 0.12900
H 	H 	0.48250 0.51350 0.92670 -0.06200
C 	C 	0.15415 0.21480 0.80852 0.07500
H 	H 	0.12260 0.24010 0.80590 0.02200
C 	C 	0.33627 0.97900 0.15366 0.13400
H 	H 	0.31890 0.03430 0.15580 -0.04200
C 	C 	0.44146 0.14610 0.08750 -0.02400
H 	H 	0.47780 0.15670 0.10320 -0.00200
C 	C 	0.31728 0.95370 0.96478 0.13500
H 	H 	0.33660 0.00510 0.96150 -0.04300
C 	C 	0.29759 0.55040 0.85622 0.03400
H 	H 	0.28460 0.49200 0.86100 0.00200
C 	C 	0.22290 0.09640 0.84391 0.08100
H 	H 	0.23730 0.04240 0.86490 -0.00300
C 	C 	0.36630 0.86570 0.12223 0.03900
H 	H 	0.37420 0.82690 0.09950 -0.00800
C 	C 	0.34634 0.66020 0.84496 0.13200
H 	H 	0.37350 0.69000 0.84030 -0.06000
C 	C 	0.40197 0.43860 0.94001 0.12400
H 	H 	0.39930 0.50050 0.95080 -0.06700
C 	C 	0.29865 0.43450 0.75744 0.14000
H 	H 	0.27410 0.46320 0.76670 -0.03900
C 	C 	0.37258 0.38670 0.76057 0.04600
H 	H 	0.40830 0.37450 0.77160 -0.01100
C 	C 	0.38166 0.85140 0.17536 -0.03500
H 	H 	0.40200 0.80030 0.19530 0.00400
C 	C 	0.21418 0.17120 0.05260 -0.02300
H 	H 	0.20040 0.22030 0.06530 0.02500
C 	C 	0.39918 0.31820 0.88986 0.05200
H 	H 	0.39520 0.28010 0.86080 -0.02200
C 	C 	0.22015 0.05560 0.00542 0.12800
H 	H 	0.21130 0.00920 0.97870 -0.03100
C 	C 	0.27700 0.85920 0.99599 0.04400
H 	H 	0.26300 0.83120 0.01740 -0.00400
C 	C 	0.35844 0.16670 0.04300 0.12800
H 	H 	0.32580 0.19460 0.02190 -0.04000
C 	C 	0.41799 0.06480 0.09200 0.03800
H 	H 	0.43500 0.01050 0.11120 -0.02300
C 	C 	0.27120 0.82750 0.94758 -0.02700
H 	H 	0.25240 0.77320 0.93020 0.01400
C 	C 	0.33212 0.35620 0.71457 -0.01500
H 	H 	0.33560 0.32060 0.68800 0.02000
C 	C 	0.41360 0.28840 0.94074 -0.03900
H 	H 	0.42060 0.22540 0.95240 0.01100
C 	C 	0.24922 0.14040 0.81765 -0.16600
B 	B 	0.31941 0.00790 0.05560 0.93000
B 	B 	0.37916 0.48740 0.84336 0.93200
Cd	Cd	0.19982 0.36845 0.65299 1.19200
Cd	Cd	0.40450 0.62498 0.54978 1.18800
Cd	Cd	0.12435 0.53617 0.72083 1.17300
O 	O 	0.17927 0.52919 0.64634 -0.49100
O 	O 	0.34035 0.49820 0.61905 -0.29700
O 	O 	0.18460 0.62631 0.71237 -0.46500
O 	O 	0.31795 0.89237 0.77146 -0.51600
O 	O 	0.38598 0.63160 0.62425 -0.41900
O 	O 	0.38485 0.88150 0.75161 -0.43800
N 	N 	0.10859 0.91520 0.61115 -0.31800
N 	N 	0.21434 0.88500 0.78707 -0.24400
N 	N 	0.31427 0.61580 0.49197 -0.24300
N 	N 	0.23037 0.56710 0.45485 -0.31000
N 	N 	0.19284 0.20680 0.65191 -0.25800
N 	N 	0.06881 0.03300 0.65102 -0.31400
N 	N 	0.13586 0.57740 0.43714 -0.31400
N 	N 	0.20305 0.38690 0.57204 -0.25100
N 	N 	0.19263 0.44040 0.49217 -0.31700
N 	N 	0.14890 0.93910 0.71200 -0.31400
N 	N 	0.08361 0.86540 0.52706 -0.25400
N 	N 	0.16344 0.44840 0.39225 -0.31100
N 	N 	0.15704 0.06520 0.65074 -0.30900
N 	N 	0.98734 0.09190 0.61247 -0.25800
N 	N 	0.13723 0.42360 0.30465 -0.25800
N 	N 	0.09590 0.71050 0.44339 -0.24000
C 	C 	0.22414 0.13740 0.64536 -0.02500
H 	H 	0.25530 0.14840 0.64250 0.01600
C 	C 	0.01123 0.12050 0.66522 -0.02600
H 	H 	0.99580 0.15840 0.68190 0.03200
C 	C 	0.27247 0.72160 0.71360 0.08900
H 	H 	0.25520 0.75070 0.73160 -0.00300
C 	C 	0.32494 0.63310 0.66114 -0.14500
C 	C 	0.31987 0.75910 0.71799 -0.16500
C 	C 	0.23478 0.64300 0.42494 0.04200
H 	H 	0.20740 0.66980 0.39470 0.00900
C 	C 	0.34284 0.84890 0.74974 0.35300
C 	C 	0.35338 0.58480 0.63283 0.34800
C 	C 	0.20082 0.59540 0.67956 0.37700
C 	C 	0.06079 0.08480 0.68914 0.04100
H 	H 	0.08510 0.09360 0.72490 0.01000
C 	C 	0.02312 0.04120 0.60596 0.12900
H 	H 	0.01750 0.01350 0.57330 -0.06200
C 	C 	0.34585 0.71480 0.69148 0.07500
H 	H 	0.37740 0.74010 0.69410 0.02200
C 	C 	0.16373 0.47900 0.34634 0.13200
H 	H 	0.18110 0.53430 0.34420 -0.04100
C 	C 	0.05854 0.64610 0.41250 -0.02400
H 	H 	0.02220 0.65670 0.39680 -0.00200
C 	C 	0.18272 0.45370 0.53522 0.13700
H 	H 	0.16340 0.50510 0.53850 -0.04500
C 	C 	0.20241 0.05040 0.64378 0.03500
H 	H 	0.21540 0.99200 0.63900 0.00100
C 	C 	0.27710 0.59640 0.65609 0.08100
H 	H 	0.26270 0.54240 0.63510 -0.00400
C 	C 	0.13370 0.36570 0.37777 0.03900
H 	H 	0.12580 0.32690 0.40050 -0.00900
C 	C 	0.15366 0.16020 0.65504 0.13200
H 	H 	0.12650 0.19000 0.65970 -0.06000
C 	C 	0.09803 0.93860 0.55999 0.12400
H 	H 	0.10070 0.00050 0.54920 -0.06700
C 	C 	0.20135 0.93450 0.74256 0.14000
H 	H 	0.22590 0.96320 0.73330 -0.03900
C 	C 	0.12742 0.88670 0.73943 0.04600
H 	H 	0.09170 0.87450 0.72840 -0.01100
C 	C 	0.11834 0.35140 0.32464 -0.03500
H 	H 	0.09800 0.30030 0.30470 0.00400
C 	C 	0.28582 0.67120 0.44740 -0.02300
H 	H 	0.29960 0.72030 0.43470 0.02500
C 	C 	0.10082 0.81820 0.61014 0.05200
H 	H 	0.10480 0.78010 0.63920 -0.02200
C 	C 	0.27985 0.55560 0.49458 0.12900
H 	H 	0.28870 0.50920 0.52130 -0.03200
C 	C 	0.22300 0.35920 0.50401 0.04700
H 	H 	0.23700 0.33120 0.48260 -0.00600
C 	C 	0.14156 0.66670 0.45700 0.12800
H 	H 	0.17420 0.69460 0.47810 -0.04000
C 	C 	0.08201 0.56480 0.40800 0.03900
H 	H 	0.06500 0.51050 0.38880 -0.02300
C 	C 	0.22880 0.32750 0.55242 -0.02800
H 	H 	0.24760 0.27320 0.56980 0.01500
C 	C 	0.16788 0.85620 0.78543 -0.01500
H 	H 	0.16440 0.82060 0.81200 0.02000
C 	C 	0.08640 0.78840 0.55926 -0.03900
H 	H 	0.07940 0.72540 0.54760 0.01100
C 	C 	0.25078 0.64040 0.68235 -0.16600
B 	B 	0.18059 0.50790 0.44440 0.93100
B 	B 	0.12084 0.98740 0.65664 0.93100
Cd	Cd	0.69982 0.86845 0.65299 1.19200
Cd	Cd	0.90450 0.12498 0.54978 1.18800
Cd	Cd	0.62435 0.03617 0.72083 1.17400
O 	O 	0.67927 0.02919 0.64634 -0.49100
O 	O 	0.84035 0.99820 0.61905 -0.29700
O 	O 	0.68460 0.12631 0.71237 -0.46500
O 	O 	0.81795 0.39237 0.77146 -0.51600
O 	O 	0.88598 0.13160 0.62425 -0.41900
O 	O 	0.88485 0.38150 0.75161 -0.43800
N 	N 	0.60859 0.41520 0.61115 -0.31800
N 	N 	0.71434 0.38500 0.78707 -0.24400
N 	N 	0.81427 0.11580 0.49197 -0.24300
N 	N 	0.73037 0.06710 0.45485 -0.31000
N 	N 	0.69284 0.70680 0.65191 -0.25900
N 	N 	0.56881 0.53300 0.65102 -0.31400
N 	N 	0.63586 0.07740 0.43714 -0.31400
N 	N 	0.70305 0.88690 0.57204 -0.25100
N 	N 	0.69263 0.94040 0.49217 -0.31700
N 	N 	0.64890 0.43910 0.71200 -0.31400
N 	N 	0.58361 0.36540 0.52706 -0.25400
N 	N 	0.66344 0.94840 0.39225 -0.31100
N 	N 	0.65704 0.56520 0.65074 -0.30900
N 	N 	0.48734 0.59190 0.61247 -0.25800
N 	N 	0.63723 0.92360 0.30465 -0.25800
N 	N 	0.59590 0.21050 0.44339 -0.24000
C 	C 	0.72414 0.63740 0.64536 -0.02500
H 	H 	0.75530 0.64840 0.64250 0.01600
C 	C 	0.51123 0.62050 0.66522 -0.02600
H 	H 	0.49580 0.65840 0.68190 0.03200
C 	C 	0.77247 0.22160 0.71360 0.08900
H 	H 	0.75520 0.25070 0.73160 -0.00300
C 	C 	0.82494 0.13310 0.66114 -0.14500
C 	C 	0.81987 0.25910 0.71799 -0.16500
C 	C 	0.73478 0.14300 0.42494 0.04200
H 	H 	0.70740 0.16980 0.39470 0.00900
C 	C 	0.84284 0.34890 0.74974 0.35300
C 	C 	0.85338 0.08480 0.63283 0.34800
C 	C 	0.70082 0.09540 0.67956 0.37700
C 	C 	0.56079 0.58480 0.68914 0.04000
H 	H 	0.58510 0.59360 0.72490 0.00900
C 	C 	0.52312 0.54120 0.60596 0.12900
H 	H 	0.51750 0.51350 0.57330 -0.06200
C 	C 	0.84585 0.21480 0.69148 0.07500
H 	H 	0.87740 0.24010 0.69410 0.02200
C 	C 	0.66373 0.97900 0.34634 0.13300
H 	H 	0.68110 0.03430 0.34420 -0.04200
C 	C 	0.55854 0.14610 0.41250 -0.02400
H 	H 	0.52220 0.15670 0.39680 -0.00200
C 	C 	0.68272 0.95370 0.53522 0.13800
H 	H 	0.66340 0.00510 0.53850 -0.04400
C 	C 	0.70241 0.55040 0.64378 0.03400
H 	H 	0.71540 0.49200 0.63900 0.00200
C 	C 	0.77710 0.09640 0.65609 0.08100
H 	H 	0.76270 0.04240 0.63510 -0.00400
C 	C 	0.63370 0.86570 0.37777 0.03900
H 	H 	0.62580 0.82690 0.40050 -0.00900
C 	C 	0.65366 0.66020 0.65504 0.13200
H 	H 	0.62650 0.69000 0.65970 -0.06000
C 	C 	0.59803 0.43860 0.55999 0.12400
H 	H 	0.60070 0.50050 0.54920 -0.06700
C 	C 	0.70135 0.43450 0.74256 0.14000
H 	H 	0.72590 0.46320 0.73330 -0.03900
C 	C 	0.62742 0.38670 0.73943 0.04600
H 	H 	0.59170 0.37450 0.72840 -0.01100
C 	C 	0.61834 0.85140 0.32464 -0.03500
H 	H 	0.59800 0.80030 0.30470 0.00400
C 	C 	0.78582 0.17120 0.44740 -0.02300
H 	H 	0.79960 0.22030 0.43470 0.02500
C 	C 	0.60082 0.31820 0.61014 0.05200
H 	H 	0.60480 0.28010 0.63920 -0.02200
C 	C 	0.77985 0.05560 0.49458 0.12900
H 	H 	0.78870 0.00920 0.52130 -0.03200
C 	C 	0.72300 0.85920 0.50401 0.04700
H 	H 	0.73700 0.83120 0.48260 -0.00600
C 	C 	0.64156 0.16670 0.45700 0.12800
H 	H 	0.67420 0.19460 0.47810 -0.04000
C 	C 	0.58201 0.06480 0.40800 0.03900
H 	H 	0.56500 0.01050 0.38880 -0.02300
C 	C 	0.72880 0.82750 0.55242 -0.02800
H 	H 	0.74760 0.77320 0.56980 0.01500
C 	C 	0.66788 0.35620 0.78543 -0.01500
H 	H 	0.66440 0.32060 0.81200 0.02000
C 	C 	0.58640 0.28840 0.55926 -0.03900
H 	H 	0.57940 0.22540 0.54760 0.01100
C 	C 	0.75078 0.14040 0.68235 -0.16600
B 	B 	0.68059 0.00790 0.44440 0.93100
B 	B 	0.62084 0.48740 0.65664 0.93200
