data_crystal

_cell_length_a 18.81600
_cell_length_b 18.81600
_cell_length_c 38.41600
_cell_angle_alpha 90.00000
_cell_angle_beta  90.00000
_cell_angle_gamma 120.00000

_symmetry_space_group_name_	'P 1'
_symmetry_space_group_name_H-M	'P 1'

loop_
_symmetry_equiv_pos_as_xyz
  x,y,z

loop_
_atom_site_label
_atom_site_type_symbol
_atom_site_fract_x
_atom_site_fract_y
_atom_site_fract_z
_atom_site_charge
O 	O 	0.55448 0.70325 0.32945 -0.46800
C 	C 	0.57180 0.69350 0.35993 0.39300
O 	O 	0.63310 0.74190 0.37685 -0.46300
C 	C 	0.50910 0.62240 0.37760 0.03800
C 	C 	0.52620 0.60850 0.41160 -0.02300
H 	H 	0.57570 0.64420 0.42240 -0.01200
C 	C 	0.45280 0.44050 0.48010 0.02800
C 	C 	0.42690 0.46110 0.48450 0.00000
C 	C 	0.37490 0.36050 0.47670 0.07900
O 	O 	0.31780 0.31240 0.45780 -0.11100
C 	C 	0.38410 0.34610 0.51410 0.03700
O 	O 	0.28940 0.34280 0.46640 -0.10000
C 	C 	0.53460 0.58880 0.40900 -0.01200
H 	H 	0.58210 0.62610 0.42060 0.09700
C 	C 	0.52100 0.60840 0.37610 -0.10800
O 	O 	0.22115 0.03658 0.66278 -0.46800
C 	C 	0.23847 0.02683 0.69326 0.39400
O 	O 	0.29977 0.07523 0.71018 -0.46200
C 	C 	0.17577 0.95573 0.71093 0.03800
C 	C 	0.19287 0.94183 0.74493 -0.02200
H 	H 	0.24237 0.97753 0.75573 -0.01100
C 	C 	0.11947 0.77383 0.81343 0.02800
C 	C 	0.09357 0.79443 0.81783 0.00200
C 	C 	0.04157 0.69383 0.81003 0.08000
O 	O 	0.98447 0.64573 0.79113 -0.11000
C 	C 	0.05077 0.67943 0.84743 0.03900
O 	O 	0.95607 0.67613 0.79973 -0.09900
C 	C 	0.20127 0.92213 0.74233 -0.01100
H 	H 	0.24877 0.95943 0.75393 0.09800
C 	C 	0.18767 0.94173 0.70943 -0.10700
O 	O 	0.88781 0.36992 0.99612 -0.46700
C 	C 	0.90513 0.36017 0.02660 0.39400
O 	O 	0.96643 0.40857 0.04352 -0.46200
C 	C 	0.84243 0.28907 0.04427 0.03800
C 	C 	0.85953 0.27517 0.07827 -0.02200
H 	H 	0.90903 0.31087 0.08907 -0.01100
C 	C 	0.78613 0.10717 0.14677 0.02900
C 	C 	0.76023 0.12777 0.15117 0.00200
C 	C 	0.70823 0.02717 0.14337 0.07900
O 	O 	0.65113 0.97907 0.12447 -0.10900
C 	C 	0.71743 0.01277 0.18077 0.03800
O 	O 	0.62273 0.00947 0.13307 -0.10000
C 	C 	0.86793 0.25547 0.07567 -0.01100
H 	H 	0.91543 0.29277 0.08727 0.09700
C 	C 	0.85433 0.27507 0.04277 -0.10700
O 	O 	0.29675 0.85123 0.32945 -0.46700
C 	C 	0.30650 0.87830 0.35993 0.39400
O 	O 	0.25810 0.89120 0.37685 -0.46200
C 	C 	0.37760 0.88670 0.37760 0.03900
C 	C 	0.39150 0.91770 0.41160 -0.02200
H 	H 	0.35580 0.93150 0.42240 -0.01100
C 	C 	0.55950 0.01230 0.48010 0.02900
C 	C 	0.53890 0.96580 0.48450 0.00200
C 	C 	0.63950 0.01440 0.47670 0.08000
O 	O 	0.68760 0.00540 0.45780 -0.11000
C 	C 	0.65390 0.03800 0.51410 0.03800
O 	O 	0.65720 0.94660 0.46640 -0.09900
C 	C 	0.41120 0.94580 0.40900 -0.01100
H 	H 	0.37390 0.95600 0.42060 0.09800
C 	C 	0.39160 0.91260 0.37610 -0.10700
O 	O 	0.96342 0.18456 0.66278 -0.46700
C 	C 	0.97317 0.21163 0.69326 0.39400
O 	O 	0.92477 0.22453 0.71018 -0.46200
C 	C 	0.04427 0.22003 0.71093 0.03800
C 	C 	0.05817 0.25103 0.74493 -0.02200
H 	H 	0.02247 0.26483 0.75573 -0.01100
C 	C 	0.22617 0.34563 0.81343 0.02900
C 	C 	0.20557 0.29913 0.81783 0.00100
C 	C 	0.30617 0.34773 0.81003 0.08000
O 	O 	0.35427 0.33873 0.79113 -0.11000
C 	C 	0.32057 0.37133 0.84743 0.03800
O 	O 	0.32387 0.27993 0.79973 -0.09900
C 	C 	0.07787 0.27913 0.74233 -0.01100
H 	H 	0.04057 0.28933 0.75393 0.09800
C 	C 	0.05827 0.24593 0.70943 -0.10700
O 	O 	0.63008 0.51790 0.99612 -0.46700
C 	C 	0.63983 0.54497 0.02660 0.39400
O 	O 	0.59143 0.55787 0.04352 -0.46200
C 	C 	0.71093 0.55337 0.04427 0.03900
C 	C 	0.72483 0.58437 0.07827 -0.02200
H 	H 	0.68913 0.59817 0.08907 -0.01100
C 	C 	0.89283 0.67897 0.14677 0.02900
C 	C 	0.87223 0.63247 0.15117 0.00200
C 	C 	0.97283 0.68107 0.14337 0.08000
O 	O 	0.02093 0.67207 0.12447 -0.10900
C 	C 	0.98723 0.70467 0.18077 0.03800
O 	O 	0.99053 0.61327 0.13307 -0.09900
C 	C 	0.74453 0.61247 0.07567 -0.01100
H 	H 	0.70723 0.62267 0.08727 0.09800
C 	C 	0.72493 0.57927 0.04277 -0.10700
O 	O 	0.14877 0.44552 0.32945 -0.46700
C 	C 	0.12170 0.42820 0.35993 0.39400
O 	O 	0.10880 0.36690 0.37685 -0.46200
C 	C 	0.11330 0.49090 0.37760 0.03900
C 	C 	0.08230 0.47380 0.41160 -0.02200
H 	H 	0.06850 0.42430 0.42240 -0.01100
C 	C 	0.98770 0.54720 0.48010 0.02900
C 	C 	0.03420 0.57310 0.48450 0.00100
C 	C 	0.98560 0.62510 0.47670 0.08000
O 	O 	0.99460 0.68220 0.45780 -0.11000
C 	C 	0.96200 0.61590 0.51410 0.03800
O 	O 	0.05340 0.71060 0.46640 -0.09900
C 	C 	0.05420 0.46540 0.40900 -0.01100
H 	H 	0.04400 0.41790 0.42060 0.09800
C 	C 	0.08740 0.47900 0.37610 -0.10700
O 	O 	0.81544 0.77885 0.66278 -0.46700
C 	C 	0.78837 0.76153 0.69326 0.39400
O 	O 	0.77547 0.70023 0.71018 -0.46200
C 	C 	0.77997 0.82423 0.71093 0.03900
C 	C 	0.74897 0.80713 0.74493 -0.02200
H 	H 	0.73517 0.75763 0.75573 -0.01100
C 	C 	0.65437 0.88053 0.81343 0.02800
C 	C 	0.70087 0.90643 0.81783 0.00200
C 	C 	0.65227 0.95843 0.81003 0.08000
O 	O 	0.66127 0.01553 0.79113 -0.11000
C 	C 	0.62867 0.94923 0.84743 0.03900
O 	O 	0.72007 0.04393 0.79973 -0.09900
C 	C 	0.72087 0.79873 0.74233 -0.01100
H 	H 	0.71067 0.75123 0.75393 0.09800
C 	C 	0.75407 0.81233 0.70943 -0.10700
O 	O 	0.48210 0.11219 0.99612 -0.46700
C 	C 	0.45503 0.09487 0.02660 0.39400
O 	O 	0.44213 0.03357 0.04352 -0.46200
C 	C 	0.44663 0.15757 0.04427 0.03900
C 	C 	0.41563 0.14047 0.07827 -0.02200
H 	H 	0.40183 0.09097 0.08907 -0.01100
C 	C 	0.32103 0.21387 0.14677 0.02900
C 	C 	0.36753 0.23977 0.15117 0.00200
C 	C 	0.31893 0.29177 0.14337 0.08000
O 	O 	0.32793 0.34887 0.12447 -0.11000
C 	C 	0.29533 0.28257 0.18077 0.03800
O 	O 	0.38673 0.37727 0.13307 -0.09900
C 	C 	0.38753 0.13207 0.07567 -0.01100
H 	H 	0.37733 0.08457 0.08727 0.09800
C 	C 	0.42073 0.14567 0.04277 -0.10700
O 	O 	0.70325 0.55448 0.67055 -0.46700
C 	C 	0.69350 0.57180 0.64007 0.39400
O 	O 	0.74190 0.63310 0.62315 -0.46200
C 	C 	0.62240 0.50910 0.62240 0.03900
C 	C 	0.60850 0.52620 0.58840 -0.02200
H 	H 	0.64420 0.57570 0.57760 -0.01100
C 	C 	0.44050 0.45280 0.51990 0.02900
C 	C 	0.46110 0.42690 0.51550 0.00100
C 	C 	0.36050 0.37490 0.52330 0.08000
O 	O 	0.31240 0.31780 0.54220 -0.11000
C 	C 	0.34610 0.38410 0.48590 0.03800
O 	O 	0.34280 0.28940 0.53360 -0.09900
C 	C 	0.58880 0.53460 0.59100 -0.01100
H 	H 	0.62610 0.58210 0.57940 0.09800
C 	C 	0.60840 0.52100 0.62390 -0.10700
O 	O 	0.36992 0.88781 0.00388 -0.46700
C 	C 	0.36017 0.90513 0.97340 0.39400
O 	O 	0.40857 0.96643 0.95648 -0.46200
C 	C 	0.28907 0.84243 0.95573 0.03800
C 	C 	0.27517 0.85953 0.92173 -0.02200
H 	H 	0.31087 0.90903 0.91093 -0.01100
C 	C 	0.10717 0.78613 0.85323 0.02900
C 	C 	0.12777 0.76023 0.84883 0.00200
C 	C 	0.02717 0.70823 0.85663 0.07900
O 	O 	0.97907 0.65113 0.87553 -0.10900
C 	C 	0.01277 0.71743 0.81923 0.03800
O 	O 	0.00947 0.62273 0.86693 -0.10000
C 	C 	0.25547 0.86793 0.92433 -0.01100
H 	H 	0.29277 0.91543 0.91273 0.09700
C 	C 	0.27507 0.85433 0.95723 -0.10700
O 	O 	0.03658 0.22115 0.33722 -0.46700
C 	C 	0.02683 0.23847 0.30674 0.39400
O 	O 	0.07523 0.29977 0.28982 -0.46200
C 	C 	0.95573 0.17577 0.28907 0.03800
C 	C 	0.94183 0.19287 0.25507 -0.02200
H 	H 	0.97753 0.24237 0.24427 -0.01100
C 	C 	0.77383 0.11947 0.18657 0.02800
C 	C 	0.79443 0.09357 0.18217 0.00200
C 	C 	0.69383 0.04157 0.18997 0.08000
O 	O 	0.64573 0.98447 0.20887 -0.11000
C 	C 	0.67943 0.05077 0.15257 0.03900
O 	O 	0.67613 0.95607 0.20027 -0.09900
C 	C 	0.92213 0.20127 0.25767 -0.01100
H 	H 	0.95943 0.24877 0.24607 0.09800
C 	C 	0.94173 0.18767 0.29057 -0.10700
O 	O 	0.85123 0.29675 0.67055 -0.46700
C 	C 	0.87830 0.30650 0.64007 0.39400
O 	O 	0.89120 0.25810 0.62315 -0.46200
C 	C 	0.88670 0.37760 0.62240 0.03900
C 	C 	0.91770 0.39150 0.58840 -0.02200
H 	H 	0.93150 0.35580 0.57760 -0.01100
C 	C 	0.01230 0.55950 0.51990 0.02900
C 	C 	0.96580 0.53890 0.51550 0.00200
C 	C 	0.01440 0.63950 0.52330 0.08000
O 	O 	0.00540 0.68760 0.54220 -0.11000
C 	C 	0.03800 0.65390 0.48590 0.03800
O 	O 	0.94660 0.65720 0.53360 -0.09900
C 	C 	0.94580 0.41120 0.59100 -0.01100
H 	H 	0.95600 0.37390 0.57940 0.09800
C 	C 	0.91260 0.39160 0.62390 -0.10700
O 	O 	0.51790 0.63008 0.00388 -0.46700
C 	C 	0.54497 0.63983 0.97340 0.39400
O 	O 	0.55787 0.59143 0.95648 -0.46200
C 	C 	0.55337 0.71093 0.95573 0.03900
C 	C 	0.58437 0.72483 0.92173 -0.02200
H 	H 	0.59817 0.68913 0.91093 -0.01100
C 	C 	0.67897 0.89283 0.85323 0.02900
C 	C 	0.63247 0.87223 0.84883 0.00200
C 	C 	0.68107 0.97283 0.85663 0.08000
O 	O 	0.67207 0.02093 0.87553 -0.10900
C 	C 	0.70467 0.98723 0.81923 0.03800
O 	O 	0.61327 0.99053 0.86693 -0.09900
C 	C 	0.61247 0.74453 0.92433 -0.01100
H 	H 	0.62267 0.70723 0.91273 0.09800
C 	C 	0.57927 0.72493 0.95723 -0.10700
O 	O 	0.18456 0.96342 0.33722 -0.46700
C 	C 	0.21163 0.97317 0.30674 0.39400
O 	O 	0.22453 0.92477 0.28982 -0.46200
C 	C 	0.22003 0.04427 0.28907 0.03800
C 	C 	0.25103 0.05817 0.25507 -0.02200
H 	H 	0.26483 0.02247 0.24427 -0.01100
C 	C 	0.34563 0.22617 0.18657 0.02900
C 	C 	0.29913 0.20557 0.18217 0.00100
C 	C 	0.34773 0.30617 0.18997 0.08000
O 	O 	0.33873 0.35427 0.20887 -0.11000
C 	C 	0.37133 0.32057 0.15257 0.03800
O 	O 	0.27993 0.32387 0.20027 -0.09900
C 	C 	0.27913 0.07787 0.25767 -0.01100
H 	H 	0.28933 0.04057 0.24607 0.09800
C 	C 	0.24593 0.05827 0.29057 -0.10700
O 	O 	0.44552 0.14877 0.67055 -0.46700
C 	C 	0.42820 0.12170 0.64007 0.39400
O 	O 	0.36690 0.10880 0.62315 -0.46200
C 	C 	0.49090 0.11330 0.62240 0.03900
C 	C 	0.47380 0.08230 0.58840 -0.02200
H 	H 	0.42430 0.06850 0.57760 -0.01100
C 	C 	0.54720 0.98770 0.51990 0.02900
C 	C 	0.57310 0.03420 0.51550 0.00100
C 	C 	0.62510 0.98560 0.52330 0.08000
O 	O 	0.68220 0.99460 0.54220 -0.11000
C 	C 	0.61590 0.96200 0.48590 0.03800
O 	O 	0.71060 0.05340 0.53360 -0.09900
C 	C 	0.46540 0.05420 0.59100 -0.01100
H 	H 	0.41790 0.04400 0.57940 0.09800
C 	C 	0.47900 0.08740 0.62390 -0.10700
O 	O 	0.11219 0.48210 0.00388 -0.46700
C 	C 	0.09487 0.45503 0.97340 0.39400
O 	O 	0.03357 0.44213 0.95648 -0.46200
C 	C 	0.15757 0.44663 0.95573 0.03900
C 	C 	0.14047 0.41563 0.92173 -0.02200
H 	H 	0.09097 0.40183 0.91093 -0.01100
C 	C 	0.21387 0.32103 0.85323 0.02900
C 	C 	0.23977 0.36753 0.84883 0.00200
C 	C 	0.29177 0.31893 0.85663 0.08000
O 	O 	0.34887 0.32793 0.87553 -0.11000
C 	C 	0.28257 0.29533 0.81923 0.03800
O 	O 	0.37727 0.38673 0.86693 -0.09900
C 	C 	0.13207 0.38753 0.92433 -0.01100
H 	H 	0.08457 0.37733 0.91273 0.09800
C 	C 	0.14567 0.42073 0.95723 -0.10700
O 	O 	0.77885 0.81544 0.33722 -0.46700
C 	C 	0.76153 0.78837 0.30674 0.39400
O 	O 	0.70023 0.77547 0.28982 -0.46200
C 	C 	0.82423 0.77997 0.28907 0.03900
C 	C 	0.80713 0.74897 0.25507 -0.02200
H 	H 	0.75763 0.73517 0.24427 -0.01100
C 	C 	0.88053 0.65437 0.18657 0.02800
C 	C 	0.90643 0.70087 0.18217 0.00200
C 	C 	0.95843 0.65227 0.18997 0.08000
O 	O 	0.01553 0.66127 0.20887 -0.11000
C 	C 	0.94923 0.62867 0.15257 0.03900
O 	O 	0.04393 0.72007 0.20027 -0.09900
C 	C 	0.79873 0.72087 0.25767 -0.01100
H 	H 	0.75123 0.71067 0.24607 0.09800
C 	C 	0.81233 0.75407 0.29057 -0.10700
O 	O 	0.44552 0.29675 0.67055 -0.46700
C 	C 	0.42820 0.30650 0.64007 0.39400
O 	O 	0.36690 0.25810 0.62315 -0.46200
C 	C 	0.49090 0.37760 0.62240 0.03900
C 	C 	0.47380 0.39150 0.58840 -0.02200
H 	H 	0.42430 0.35580 0.57760 -0.01100
C 	C 	0.54720 0.55950 0.51990 0.02900
C 	C 	0.57310 0.53890 0.51550 0.00100
C 	C 	0.62510 0.63950 0.52330 0.08000
O 	O 	0.68220 0.68760 0.54220 -0.11000
C 	C 	0.61590 0.65390 0.48590 0.03800
O 	O 	0.71060 0.65720 0.53360 -0.09900
C 	C 	0.46540 0.41120 0.59100 -0.01100
H 	H 	0.41790 0.37390 0.57940 0.09800
C 	C 	0.47900 0.39160 0.62390 -0.10700
O 	O 	0.11219 0.63008 0.00388 -0.46700
C 	C 	0.09487 0.63983 0.97340 0.39400
O 	O 	0.03357 0.59143 0.95648 -0.46200
C 	C 	0.15757 0.71093 0.95573 0.03800
C 	C 	0.14047 0.72483 0.92173 -0.02200
H 	H 	0.09097 0.68913 0.91093 -0.01100
C 	C 	0.21387 0.89283 0.85323 0.02900
C 	C 	0.23977 0.87223 0.84883 0.00200
C 	C 	0.29177 0.97283 0.85663 0.07900
O 	O 	0.34887 0.02093 0.87553 -0.10900
C 	C 	0.28257 0.98723 0.81923 0.03800
O 	O 	0.37727 0.99053 0.86693 -0.10000
C 	C 	0.13207 0.74453 0.92433 -0.01100
H 	H 	0.08457 0.70723 0.91273 0.09700
C 	C 	0.14567 0.72493 0.95723 -0.10700
O 	O 	0.77885 0.96342 0.33722 -0.46700
C 	C 	0.76153 0.97317 0.30674 0.39400
O 	O 	0.70023 0.92477 0.28982 -0.46200
C 	C 	0.82423 0.04427 0.28907 0.03800
C 	C 	0.80713 0.05817 0.25507 -0.02200
H 	H 	0.75763 0.02247 0.24427 -0.01100
C 	C 	0.88053 0.22617 0.18657 0.02800
C 	C 	0.90643 0.20557 0.18217 0.00200
C 	C 	0.95843 0.30617 0.18997 0.08000
O 	O 	0.01553 0.35427 0.20887 -0.11000
C 	C 	0.94923 0.32057 0.15257 0.03900
O 	O 	0.04393 0.32387 0.20027 -0.09900
C 	C 	0.79873 0.07787 0.25767 -0.01100
H 	H 	0.75123 0.04057 0.24607 0.09800
C 	C 	0.81233 0.05827 0.29057 -0.10700
O 	O 	0.70325 0.14877 0.67055 -0.46700
C 	C 	0.69350 0.12170 0.64007 0.39400
O 	O 	0.74190 0.10880 0.62315 -0.46200
C 	C 	0.62240 0.11330 0.62240 0.03900
C 	C 	0.60850 0.08230 0.58840 -0.02200
H 	H 	0.64420 0.06850 0.57760 -0.01100
C 	C 	0.44050 0.98770 0.51990 0.02900
C 	C 	0.46110 0.03420 0.51550 0.00200
C 	C 	0.36050 0.98560 0.52330 0.08000
O 	O 	0.31240 0.99460 0.54220 -0.11000
C 	C 	0.34610 0.96200 0.48590 0.03800
O 	O 	0.34280 0.05340 0.53360 -0.09900
C 	C 	0.58880 0.05420 0.59100 -0.01100
H 	H 	0.62610 0.04400 0.57940 0.09800
C 	C 	0.60840 0.08740 0.62390 -0.10700
O 	O 	0.36992 0.48210 0.00388 -0.46700
C 	C 	0.36017 0.45503 0.97340 0.39400
O 	O 	0.40857 0.44213 0.95648 -0.46200
C 	C 	0.28907 0.44663 0.95573 0.03900
C 	C 	0.27517 0.41563 0.92173 -0.02200
H 	H 	0.31087 0.40183 0.91093 -0.01100
C 	C 	0.10717 0.32103 0.85323 0.02900
C 	C 	0.12777 0.36753 0.84883 0.00200
C 	C 	0.02717 0.31893 0.85663 0.08000
O 	O 	0.97907 0.32793 0.87553 -0.10900
C 	C 	0.01277 0.29533 0.81923 0.03800
O 	O 	0.00947 0.38673 0.86693 -0.09900
C 	C 	0.25547 0.38753 0.92433 -0.01100
H 	H 	0.29277 0.37733 0.91273 0.09800
C 	C 	0.27507 0.42073 0.95723 -0.10700
O 	O 	0.03658 0.81544 0.33722 -0.46700
C 	C 	0.02683 0.78837 0.30674 0.39400
O 	O 	0.07523 0.77547 0.28982 -0.46200
C 	C 	0.95573 0.77997 0.28907 0.03800
C 	C 	0.94183 0.74897 0.25507 -0.02200
H 	H 	0.97753 0.73517 0.24427 -0.01100
C 	C 	0.77383 0.65437 0.18657 0.02900
C 	C 	0.79443 0.70087 0.18217 0.00100
C 	C 	0.69383 0.65227 0.18997 0.08000
O 	O 	0.64573 0.66127 0.20887 -0.11000
C 	C 	0.67943 0.62867 0.15257 0.03800
O 	O 	0.67613 0.72007 0.20027 -0.09900
C 	C 	0.92213 0.72087 0.25767 -0.01100
H 	H 	0.95943 0.71067 0.24607 0.09800
C 	C 	0.94173 0.75407 0.29057 -0.10700
O 	O 	0.85123 0.55448 0.67055 -0.46700
C 	C 	0.87830 0.57180 0.64007 0.39400
O 	O 	0.89120 0.63310 0.62315 -0.46200
C 	C 	0.88670 0.50910 0.62240 0.03900
C 	C 	0.91770 0.52620 0.58840 -0.02200
H 	H 	0.93150 0.57570 0.57760 -0.01100
C 	C 	0.01230 0.45280 0.51990 0.02900
C 	C 	0.96580 0.42690 0.51550 0.00100
C 	C 	0.01440 0.37490 0.52330 0.08000
O 	O 	0.00540 0.31780 0.54220 -0.11000
C 	C 	0.03800 0.38410 0.48590 0.03800
O 	O 	0.94660 0.28940 0.53360 -0.09900
C 	C 	0.94580 0.53460 0.59100 -0.01100
H 	H 	0.95600 0.58210 0.57940 0.09800
C 	C 	0.91260 0.52100 0.62390 -0.10700
O 	O 	0.51790 0.88781 0.00388 -0.46700
C 	C 	0.54497 0.90513 0.97340 0.39400
O 	O 	0.55787 0.96643 0.95648 -0.46200
C 	C 	0.55337 0.84243 0.95573 0.03900
C 	C 	0.58437 0.85953 0.92173 -0.02200
H 	H 	0.59817 0.90903 0.91093 -0.01100
C 	C 	0.67897 0.78613 0.85323 0.02900
C 	C 	0.63247 0.76023 0.84883 0.00200
C 	C 	0.68107 0.70823 0.85663 0.08000
O 	O 	0.67207 0.65113 0.87553 -0.11000
C 	C 	0.70467 0.71743 0.81923 0.03800
O 	O 	0.61327 0.62273 0.86693 -0.09900
C 	C 	0.61247 0.86793 0.92433 -0.01100
H 	H 	0.62267 0.91543 0.91273 0.09800
C 	C 	0.57927 0.85433 0.95723 -0.10700
O 	O 	0.18456 0.22115 0.33722 -0.46700
C 	C 	0.21163 0.23847 0.30674 0.39400
O 	O 	0.22453 0.29977 0.28982 -0.46200
C 	C 	0.22003 0.17577 0.28907 0.03900
C 	C 	0.25103 0.19287 0.25507 -0.02200
H 	H 	0.26483 0.24237 0.24427 -0.01100
C 	C 	0.34563 0.11947 0.18657 0.02800
C 	C 	0.29913 0.09357 0.18217 0.00200
C 	C 	0.34773 0.04157 0.18997 0.08000
O 	O 	0.33873 0.98447 0.20887 -0.11000
C 	C 	0.37133 0.05077 0.15257 0.03900
O 	O 	0.27993 0.95607 0.20027 -0.09900
C 	C 	0.27913 0.20127 0.25767 -0.01100
H 	H 	0.28933 0.24877 0.24607 0.09800
C 	C 	0.24593 0.18767 0.29057 -0.10700
O 	O 	0.29675 0.44552 0.32945 -0.46700
C 	C 	0.30650 0.42820 0.35993 0.39400
O 	O 	0.25810 0.36690 0.37685 -0.46200
C 	C 	0.37760 0.49090 0.37760 0.03900
C 	C 	0.39150 0.47380 0.41160 -0.02200
H 	H 	0.35580 0.42430 0.42240 -0.01100
C 	C 	0.55950 0.54720 0.48010 0.02900
C 	C 	0.53890 0.57310 0.48450 0.00100
C 	C 	0.63950 0.62510 0.47670 0.08000
O 	O 	0.68760 0.68220 0.45780 -0.11000
C 	C 	0.65390 0.61590 0.51410 0.03800
O 	O 	0.65720 0.71060 0.46640 -0.09900
C 	C 	0.41120 0.46540 0.40900 -0.01100
H 	H 	0.37390 0.41790 0.42060 0.09800
C 	C 	0.39160 0.47900 0.37610 -0.10700
O 	O 	0.96342 0.77885 0.66278 -0.46700
C 	C 	0.97317 0.76153 0.69326 0.39400
O 	O 	0.92477 0.70023 0.71018 -0.46200
C 	C 	0.04427 0.82423 0.71093 0.03800
C 	C 	0.05817 0.80713 0.74493 -0.02200
H 	H 	0.02247 0.75763 0.75573 -0.01100
C 	C 	0.22617 0.88053 0.81343 0.02800
C 	C 	0.20557 0.90643 0.81783 0.00200
C 	C 	0.30617 0.95843 0.81003 0.08000
O 	O 	0.35427 0.01553 0.79113 -0.11000
C 	C 	0.32057 0.94923 0.84743 0.03900
O 	O 	0.32387 0.04393 0.79973 -0.09900
C 	C 	0.07787 0.79873 0.74233 -0.01100
H 	H 	0.04057 0.75123 0.75393 0.09800
C 	C 	0.05827 0.81233 0.70943 -0.10700
O 	O 	0.63008 0.11219 0.99612 -0.46700
C 	C 	0.63983 0.09487 0.02660 0.39400
O 	O 	0.59143 0.03357 0.04352 -0.46200
C 	C 	0.71093 0.15757 0.04427 0.03800
C 	C 	0.72483 0.14047 0.07827 -0.02200
H 	H 	0.68913 0.09097 0.08907 -0.01100
C 	C 	0.89283 0.21387 0.14677 0.02900
C 	C 	0.87223 0.23977 0.15117 0.00200
C 	C 	0.97283 0.29177 0.14337 0.07900
O 	O 	0.02093 0.34887 0.12447 -0.10900
C 	C 	0.98723 0.28257 0.18077 0.03800
O 	O 	0.99053 0.37727 0.13307 -0.10000
C 	C 	0.74453 0.13207 0.07567 -0.01100
H 	H 	0.70723 0.08457 0.08727 0.09700
C 	C 	0.72493 0.14567 0.04277 -0.10700
O 	O 	0.14877 0.70325 0.32945 -0.46700
C 	C 	0.12170 0.69350 0.35993 0.39400
O 	O 	0.10880 0.74190 0.37685 -0.46200
C 	C 	0.11330 0.62240 0.37760 0.03900
C 	C 	0.08230 0.60850 0.41160 -0.02200
H 	H 	0.06850 0.64420 0.42240 -0.01100
C 	C 	0.98770 0.44050 0.48010 0.02900
C 	C 	0.03420 0.46110 0.48450 0.00200
C 	C 	0.98560 0.36050 0.47670 0.08000
O 	O 	0.99460 0.31240 0.45780 -0.11000
C 	C 	0.96200 0.34610 0.51410 0.03800
O 	O 	0.05340 0.34280 0.46640 -0.09900
C 	C 	0.05420 0.58880 0.40900 -0.01100
H 	H 	0.04400 0.62610 0.42060 0.09800
C 	C 	0.08740 0.60840 0.37610 -0.10700
O 	O 	0.81544 0.03658 0.66278 -0.46700
C 	C 	0.78837 0.02683 0.69326 0.39400
O 	O 	0.77547 0.07523 0.71018 -0.46200
C 	C 	0.77997 0.95573 0.71093 0.03800
C 	C 	0.74897 0.94183 0.74493 -0.02200
H 	H 	0.73517 0.97753 0.75573 -0.01100
C 	C 	0.65437 0.77383 0.81343 0.02900
C 	C 	0.70087 0.79443 0.81783 0.00100
C 	C 	0.65227 0.69383 0.81003 0.08000
O 	O 	0.66127 0.64573 0.79113 -0.11000
C 	C 	0.62867 0.67943 0.84743 0.03800
O 	O 	0.72007 0.67613 0.79973 -0.09900
C 	C 	0.72087 0.92213 0.74233 -0.01100
H 	H 	0.71067 0.95943 0.75393 0.09800
C 	C 	0.75407 0.94173 0.70943 -0.10700
O 	O 	0.48210 0.36992 0.99612 -0.46700
C 	C 	0.45503 0.36017 0.02660 0.39400
O 	O 	0.44213 0.40857 0.04352 -0.46200
C 	C 	0.44663 0.28907 0.04427 0.03900
C 	C 	0.41563 0.27517 0.07827 -0.02200
H 	H 	0.40183 0.31087 0.08907 -0.01100
C 	C 	0.32103 0.10717 0.14677 0.02900
C 	C 	0.36753 0.12777 0.15117 0.00200
C 	C 	0.31893 0.02717 0.14337 0.08000
O 	O 	0.32793 0.97907 0.12447 -0.10900
C 	C 	0.29533 0.01277 0.18077 0.03800
O 	O 	0.38673 0.00947 0.13307 -0.09900
C 	C 	0.38753 0.25547 0.07567 -0.01100
H 	H 	0.37733 0.29277 0.08727 0.09800
C 	C 	0.42073 0.27507 0.04277 -0.10700
O 	O 	0.55448 0.85123 0.32945 -0.46700
C 	C 	0.57180 0.87830 0.35993 0.39400
O 	O 	0.63310 0.89120 0.37685 -0.46200
C 	C 	0.50910 0.88670 0.37760 0.03900
C 	C 	0.52620 0.91770 0.41160 -0.02200
H 	H 	0.57570 0.93150 0.42240 -0.01100
C 	C 	0.45280 0.01230 0.48010 0.02900
C 	C 	0.42690 0.96580 0.48450 0.00100
C 	C 	0.37490 0.01440 0.47670 0.08000
O 	O 	0.31780 0.00540 0.45780 -0.11000
C 	C 	0.38410 0.03800 0.51410 0.03800
O 	O 	0.28940 0.94660 0.46640 -0.09900
C 	C 	0.53460 0.94580 0.40900 -0.01100
H 	H 	0.58210 0.95600 0.42060 0.09800
C 	C 	0.52100 0.91260 0.37610 -0.10700
O 	O 	0.22115 0.18456 0.66278 -0.46700
C 	C 	0.23847 0.21163 0.69326 0.39400
O 	O 	0.29977 0.22453 0.71018 -0.46200
C 	C 	0.17577 0.22003 0.71093 0.03900
C 	C 	0.19287 0.25103 0.74493 -0.02200
H 	H 	0.24237 0.26483 0.75573 -0.01100
C 	C 	0.11947 0.34563 0.81343 0.02800
C 	C 	0.09357 0.29913 0.81783 0.00200
C 	C 	0.04157 0.34773 0.81003 0.08000
O 	O 	0.98447 0.33873 0.79113 -0.11000
C 	C 	0.05077 0.37133 0.84743 0.03900
O 	O 	0.95607 0.27993 0.79973 -0.09900
C 	C 	0.20127 0.27913 0.74233 -0.01100
H 	H 	0.24877 0.28933 0.75393 0.09800
C 	C 	0.18767 0.24593 0.70943 -0.10700
O 	O 	0.88781 0.51790 0.99612 -0.46700
C 	C 	0.90513 0.54497 0.02660 0.39400
O 	O 	0.96643 0.55787 0.04352 -0.46200
C 	C 	0.84243 0.55337 0.04427 0.03900
C 	C 	0.85953 0.58437 0.07827 -0.02200
H 	H 	0.90903 0.59817 0.08907 -0.01100
C 	C 	0.78613 0.67897 0.14677 0.02900
C 	C 	0.76023 0.63247 0.15117 0.00200
C 	C 	0.70823 0.68107 0.14337 0.08000
O 	O 	0.65113 0.67207 0.12447 -0.11000
C 	C 	0.71743 0.70467 0.18077 0.03800
O 	O 	0.62273 0.61327 0.13307 -0.09900
C 	C 	0.86793 0.61247 0.07567 -0.01100
H 	H 	0.91543 0.62267 0.08727 0.09800
C 	C 	0.85433 0.57927 0.04277 -0.10700
Zn	Zn	0.61482 0.80741 0.30121 1.20700
Zn	Zn	0.28149 0.14074 0.63454 1.20700
Zn	Zn	0.94815 0.47408 0.96788 1.20700
Zn	Zn	0.19259 0.80741 0.30121 1.20700
Zn	Zn	0.85926 0.14074 0.63454 1.20700
Zn	Zn	0.52592 0.47408 0.96788 1.20700
Zn	Zn	0.19259 0.38518 0.30121 1.20700
Zn	Zn	0.85926 0.71851 0.63454 1.20700
Zn	Zn	0.52592 0.05185 0.96788 1.20700
Zn	Zn	0.80741 0.61482 0.69879 1.20700
Zn	Zn	0.47408 0.94815 0.03212 1.20700
Zn	Zn	0.14074 0.28149 0.36546 1.20700
Zn	Zn	0.80741 0.19259 0.69879 1.20700
Zn	Zn	0.47408 0.52592 0.03212 1.20700
Zn	Zn	0.14074 0.85926 0.36546 1.20700
Zn	Zn	0.38518 0.19259 0.69879 1.20700
Zn	Zn	0.05185 0.52592 0.03212 1.20700
Zn	Zn	0.71851 0.85926 0.36546 1.20700
C 	C 	0.46360 0.53640 0.42910 0.06900
N 	N 	0.47750 0.52250 0.46420 -0.06700
C 	C 	0.43530 0.56470 0.35870 0.12000
H 	H 	0.42570 0.57430 0.33590 0.07000
C 	C 	0.44850 0.55150 0.36080 -0.07800
H 	H 	0.43720 0.56280 0.33860 -0.04100
C 	C 	0.48200 0.51800 0.42510 0.00700
N 	N 	0.49820 0.50180 0.45920 -0.06700
C 	C 	0.13027 0.86973 0.76243 0.06800
N 	N 	0.14417 0.85583 0.79753 -0.06700
C 	C 	0.10197 0.89803 0.69203 0.12100
H 	H 	0.09237 0.90763 0.66923 0.07100
C 	C 	0.11517 0.88483 0.69413 -0.07800
H 	H 	0.10387 0.89613 0.67193 -0.04100
C 	C 	0.14867 0.85133 0.75843 0.00700
N 	N 	0.16487 0.83513 0.79253 -0.06600
C 	C 	0.79693 0.20307 0.09577 0.06900
N 	N 	0.81083 0.18917 0.13087 -0.06700
C 	C 	0.76863 0.23137 0.02537 0.12000
H 	H 	0.75903 0.24097 0.00257 0.07000
C 	C 	0.78183 0.21817 0.02747 -0.07800
H 	H 	0.77053 0.22947 0.00527 -0.04100
C 	C 	0.81533 0.18467 0.09177 0.00700
N 	N 	0.83153 0.16847 0.12587 -0.06700
C 	C 	0.46360 0.92720 0.42910 0.06900
N 	N 	0.47750 0.95500 0.46420 -0.06700
C 	C 	0.43530 0.87060 0.35870 0.12000
H 	H 	0.42570 0.85140 0.33590 0.07000
C 	C 	0.44850 0.89700 0.36080 -0.07800
H 	H 	0.43720 0.87440 0.33860 -0.04100
C 	C 	0.48200 0.96400 0.42510 0.00700
N 	N 	0.49820 0.99640 0.45920 -0.06700
C 	C 	0.13027 0.26053 0.76243 0.06900
N 	N 	0.14417 0.28833 0.79753 -0.06700
C 	C 	0.10197 0.20393 0.69203 0.12000
H 	H 	0.09237 0.18473 0.66923 0.07000
C 	C 	0.11517 0.23033 0.69413 -0.07800
H 	H 	0.10387 0.20773 0.67193 -0.04100
C 	C 	0.14867 0.29733 0.75843 0.00700
N 	N 	0.16487 0.32973 0.79253 -0.06600
C 	C 	0.79693 0.59387 0.09577 0.06900
N 	N 	0.81083 0.62167 0.13087 -0.06700
C 	C 	0.76863 0.53727 0.02537 0.12000
H 	H 	0.75903 0.51807 0.00257 0.07000
C 	C 	0.78183 0.56367 0.02747 -0.07800
H 	H 	0.77053 0.54107 0.00527 -0.04100
C 	C 	0.81533 0.63067 0.09177 0.00700
N 	N 	0.83153 0.66307 0.12587 -0.06700
C 	C 	0.07280 0.53640 0.42910 0.06900
N 	N 	0.04500 0.52250 0.46420 -0.06700
C 	C 	0.12940 0.56470 0.35870 0.12000
H 	H 	0.14860 0.57430 0.33590 0.07000
C 	C 	0.10300 0.55150 0.36080 -0.07800
H 	H 	0.12560 0.56280 0.33860 -0.04100
C 	C 	0.03600 0.51800 0.42510 0.00700
N 	N 	0.00360 0.50180 0.45920 -0.06700
C 	C 	0.73947 0.86973 0.76243 0.06900
N 	N 	0.71167 0.85583 0.79753 -0.06700
C 	C 	0.79607 0.89803 0.69203 0.12000
H 	H 	0.81527 0.90763 0.66923 0.07000
C 	C 	0.76967 0.88483 0.69413 -0.07800
H 	H 	0.79227 0.89613 0.67193 -0.04100
C 	C 	0.70267 0.85133 0.75843 0.00700
N 	N 	0.67027 0.83513 0.79253 -0.06600
C 	C 	0.40613 0.20307 0.09577 0.06900
N 	N 	0.37833 0.18917 0.13087 -0.06700
C 	C 	0.46273 0.23137 0.02537 0.12000
H 	H 	0.48193 0.24097 0.00257 0.07000
C 	C 	0.43633 0.21817 0.02747 -0.07800
H 	H 	0.45893 0.22947 0.00527 -0.04100
C 	C 	0.36933 0.18467 0.09177 0.00700
N 	N 	0.33693 0.16847 0.12587 -0.06700
C 	C 	0.53640 0.46360 0.57090 0.06900
N 	N 	0.52250 0.47750 0.53580 -0.06700
C 	C 	0.56470 0.43530 0.64130 0.12000
H 	H 	0.57430 0.42570 0.66410 0.07000
C 	C 	0.55150 0.44850 0.63920 -0.07800
H 	H 	0.56280 0.43720 0.66140 -0.04100
C 	C 	0.51800 0.48200 0.57490 0.00700
N 	N 	0.50180 0.49820 0.54080 -0.06700
C 	C 	0.20307 0.79693 0.90423 0.06900
N 	N 	0.18917 0.81083 0.86913 -0.06700
C 	C 	0.23137 0.76863 0.97463 0.12000
H 	H 	0.24097 0.75903 0.99743 0.07000
C 	C 	0.21817 0.78183 0.97253 -0.07800
H 	H 	0.22947 0.77053 0.99473 -0.04100
C 	C 	0.18467 0.81533 0.90823 0.00700
N 	N 	0.16847 0.83153 0.87413 -0.06700
C 	C 	0.86973 0.13027 0.23757 0.06800
N 	N 	0.85583 0.14417 0.20247 -0.06700
C 	C 	0.89803 0.10197 0.30797 0.12100
H 	H 	0.90763 0.09237 0.33077 0.07100
C 	C 	0.88483 0.11517 0.30587 -0.07800
H 	H 	0.89613 0.10387 0.32807 -0.04100
C 	C 	0.85133 0.14867 0.24157 0.00700
N 	N 	0.83513 0.16487 0.20747 -0.06600
C 	C 	0.92720 0.46360 0.57090 0.06900
N 	N 	0.95500 0.47750 0.53580 -0.06700
C 	C 	0.87060 0.43530 0.64130 0.12000
H 	H 	0.85140 0.42570 0.66410 0.07000
C 	C 	0.89700 0.44850 0.63920 -0.07800
H 	H 	0.87440 0.43720 0.66140 -0.04100
C 	C 	0.96400 0.48200 0.57490 0.00700
N 	N 	0.99640 0.49820 0.54080 -0.06700
C 	C 	0.59387 0.79693 0.90423 0.06900
N 	N 	0.62167 0.81083 0.86913 -0.06700
C 	C 	0.53727 0.76863 0.97463 0.12000
H 	H 	0.51807 0.75903 0.99743 0.07000
C 	C 	0.56367 0.78183 0.97253 -0.07800
H 	H 	0.54107 0.77053 0.99473 -0.04100
C 	C 	0.63067 0.81533 0.90823 0.00700
N 	N 	0.66307 0.83153 0.87413 -0.06700
C 	C 	0.26053 0.13027 0.23757 0.06900
N 	N 	0.28833 0.14417 0.20247 -0.06700
C 	C 	0.20393 0.10197 0.30797 0.12000
H 	H 	0.18473 0.09237 0.33077 0.07000
C 	C 	0.23033 0.11517 0.30587 -0.07800
H 	H 	0.20773 0.10387 0.32807 -0.04100
C 	C 	0.29733 0.14867 0.24157 0.00700
N 	N 	0.32973 0.16487 0.20747 -0.06600
C 	C 	0.53640 0.07280 0.57090 0.06900
N 	N 	0.52250 0.04500 0.53580 -0.06700
C 	C 	0.56470 0.12940 0.64130 0.12000
H 	H 	0.57430 0.14860 0.66410 0.07000
C 	C 	0.55150 0.10300 0.63920 -0.07800
H 	H 	0.56280 0.12560 0.66140 -0.04100
C 	C 	0.51800 0.03600 0.57490 0.00700
N 	N 	0.50180 0.00360 0.54080 -0.06700
C 	C 	0.20307 0.40613 0.90423 0.06900
N 	N 	0.18917 0.37833 0.86913 -0.06700
C 	C 	0.23137 0.46273 0.97463 0.12000
H 	H 	0.24097 0.48193 0.99743 0.07000
C 	C 	0.21817 0.43633 0.97253 -0.07800
H 	H 	0.22947 0.45893 0.99473 -0.04100
C 	C 	0.18467 0.36933 0.90823 0.00700
N 	N 	0.16847 0.33693 0.87413 -0.06700
C 	C 	0.86973 0.73947 0.23757 0.06900
N 	N 	0.85583 0.71167 0.20247 -0.06700
C 	C 	0.89803 0.79607 0.30797 0.12000
H 	H 	0.90763 0.81527 0.33077 0.07000
C 	C 	0.88483 0.76967 0.30587 -0.07800
H 	H 	0.89613 0.79227 0.32807 -0.04100
C 	C 	0.85133 0.70267 0.24157 0.00700
N 	N 	0.83513 0.67027 0.20747 -0.06600
