data_crystal

_cell_length_a 30.18920
_cell_length_b 30.18920
_cell_length_c 30.18920
_cell_angle_alpha 90.00000
_cell_angle_beta  90.00000
_cell_angle_gamma 90.00000

_symmetry_space_group_name_	'P 1'
_symmetry_space_group_name_H-M	'P 1'

loop_
_symmetry_equiv_pos_as_xyz
  x,y,z

loop_
_atom_site_label
_atom_site_type_symbol
_atom_site_fract_x
_atom_site_fract_y
_atom_site_fract_z
_atom_site_charge
O 	O 	0.50089 0.56295 0.96252 -0.36100
C 	C 	0.50231 0.65432 0.95935 -0.04300
H 	H 	0.50380 0.63790 0.93330 0.09100
C 	C 	0.50242 0.70184 0.95732 0.10400
C 	C 	0.50492 0.72770 0.91330 -0.34200
O 	O 	0.50469 0.72720 0.91729 0.25600
O 	O 	0.00089 0.06295 0.46252 -0.39400
C 	C 	0.00231 0.15432 0.45935 -0.07200
H 	H 	0.00380 0.13790 0.43330 0.08800
C 	C 	0.00242 0.20184 0.45732 0.08200
C 	C 	0.00492 0.22770 0.41330 -0.34500
O 	O 	0.00469 0.22720 0.41729 0.23900
O 	O 	0.49911 0.43705 0.96252 -0.36200
C 	C 	0.49769 0.34568 0.95935 -0.04500
H 	H 	0.49620 0.36210 0.93330 0.08900
C 	C 	0.49758 0.29816 0.95732 0.10300
C 	C 	0.49508 0.27230 0.91330 -0.34300
O 	O 	0.49531 0.27280 0.91729 0.25200
O 	O 	0.99911 0.93705 0.46252 -0.34200
C 	C 	0.99769 0.84568 0.45935 -0.04600
H 	H 	0.99620 0.86210 0.43330 0.09500
C 	C 	0.99758 0.79816 0.45732 0.10600
C 	C 	0.99508 0.77230 0.41330 -0.34300
O 	O 	0.99531 0.77280 0.41729 0.25800
O 	O 	0.49911 0.56295 0.03748 -0.38400
C 	C 	0.49769 0.65432 0.04065 -0.07200
H 	H 	0.49620 0.63790 0.06670 0.09300
C 	C 	0.49758 0.70184 0.04268 0.08400
C 	C 	0.49508 0.72770 0.08670 -0.34400
O 	O 	0.49531 0.72720 0.08271 0.24700
O 	O 	0.99911 0.06295 0.53748 -0.35900
C 	C 	0.99769 0.15432 0.54065 -0.04400
H 	H 	0.99620 0.13790 0.56670 0.09000
C 	C 	0.99758 0.20184 0.54268 0.10300
C 	C 	0.99508 0.22770 0.58670 -0.34300
O 	O 	0.99531 0.22720 0.58271 0.25600
O 	O 	0.50089 0.43705 0.03748 -0.38400
C 	C 	0.50231 0.34568 0.04065 -0.07200
H 	H 	0.50380 0.36210 0.06670 0.09300
C 	C 	0.50242 0.29816 0.04268 0.08400
C 	C 	0.50492 0.27230 0.08670 -0.34400
O 	O 	0.50469 0.27280 0.08271 0.24400
O 	O 	0.00089 0.93705 0.53748 -0.37500
C 	C 	0.00231 0.84568 0.54065 -0.07400
H 	H 	0.00380 0.86210 0.56670 0.09500
C 	C 	0.00242 0.79816 0.54268 0.08500
C 	C 	0.00492 0.77230 0.58670 -0.34400
O 	O 	0.00469 0.77280 0.58271 0.24500
O 	O 	0.96252 0.50089 0.56295 -0.36200
C 	C 	0.95935 0.50231 0.65432 -0.04400
H 	H 	0.93330 0.50380 0.63790 0.09000
C 	C 	0.95732 0.50242 0.70184 0.10300
C 	C 	0.91330 0.50492 0.72770 -0.34300
O 	O 	0.91729 0.50469 0.72720 0.25500
O 	O 	0.46252 0.00089 0.06295 -0.39400
C 	C 	0.45935 0.00231 0.15432 -0.07200
H 	H 	0.43330 0.00380 0.13790 0.08800
C 	C 	0.45732 0.00242 0.20184 0.08200
C 	C 	0.41330 0.00492 0.22770 -0.34500
O 	O 	0.41729 0.00469 0.22720 0.23900
O 	O 	0.96252 0.49911 0.43705 -0.36200
C 	C 	0.95935 0.49769 0.34568 -0.04500
H 	H 	0.93330 0.49620 0.36210 0.08900
C 	C 	0.95732 0.49758 0.29816 0.10300
C 	C 	0.91330 0.49508 0.27230 -0.34300
O 	O 	0.91729 0.49531 0.27280 0.25200
O 	O 	0.46252 0.99911 0.93705 -0.34200
C 	C 	0.45935 0.99769 0.84568 -0.04600
H 	H 	0.43330 0.99620 0.86210 0.09500
C 	C 	0.45732 0.99758 0.79816 0.10600
C 	C 	0.41330 0.99508 0.77230 -0.34300
O 	O 	0.41729 0.99531 0.77280 0.25800
O 	O 	0.03748 0.49911 0.56295 -0.38400
C 	C 	0.04065 0.49769 0.65432 -0.07200
H 	H 	0.06670 0.49620 0.63790 0.09300
C 	C 	0.04268 0.49758 0.70184 0.08400
C 	C 	0.08670 0.49508 0.72770 -0.34400
O 	O 	0.08271 0.49531 0.72720 0.24700
O 	O 	0.53748 0.99911 0.06295 -0.35900
C 	C 	0.54065 0.99769 0.15432 -0.04400
H 	H 	0.56670 0.99620 0.13790 0.09000
C 	C 	0.54268 0.99758 0.20184 0.10300
C 	C 	0.58670 0.99508 0.22770 -0.34300
O 	O 	0.58271 0.99531 0.22720 0.25600
O 	O 	0.03748 0.50089 0.43705 -0.38400
C 	C 	0.04065 0.50231 0.34568 -0.07200
H 	H 	0.06670 0.50380 0.36210 0.09300
C 	C 	0.04268 0.50242 0.29816 0.08400
C 	C 	0.08670 0.50492 0.27230 -0.34400
O 	O 	0.08271 0.50469 0.27280 0.24400
O 	O 	0.53748 0.00089 0.93705 -0.37500
C 	C 	0.54065 0.00231 0.84568 -0.07400
H 	H 	0.56670 0.00380 0.86210 0.09500
C 	C 	0.54268 0.00242 0.79816 0.08500
C 	C 	0.58670 0.00492 0.77230 -0.34400
O 	O 	0.58271 0.00469 0.77280 0.24500
O 	O 	0.56295 0.96252 0.50089 -0.36200
C 	C 	0.65432 0.95935 0.50231 -0.04400
H 	H 	0.63790 0.93330 0.50380 0.09000
C 	C 	0.70184 0.95732 0.50242 0.10300
C 	C 	0.72770 0.91330 0.50492 -0.34300
O 	O 	0.72720 0.91729 0.50469 0.25500
O 	O 	0.06295 0.46252 0.00089 -0.39400
C 	C 	0.15432 0.45935 0.00231 -0.07200
H 	H 	0.13790 0.43330 0.00380 0.08800
C 	C 	0.20184 0.45732 0.00242 0.08200
C 	C 	0.22770 0.41330 0.00492 -0.34500
O 	O 	0.22720 0.41729 0.00469 0.23900
O 	O 	0.43705 0.96252 0.49911 -0.36200
C 	C 	0.34568 0.95935 0.49769 -0.04500
H 	H 	0.36210 0.93330 0.49620 0.08900
C 	C 	0.29816 0.95732 0.49758 0.10300
C 	C 	0.27230 0.91330 0.49508 -0.34300
O 	O 	0.27280 0.91729 0.49531 0.25200
O 	O 	0.93705 0.46252 0.99911 -0.34200
C 	C 	0.84568 0.45935 0.99769 -0.04600
H 	H 	0.86210 0.43330 0.99620 0.09500
C 	C 	0.79816 0.45732 0.99758 0.10600
C 	C 	0.77230 0.41330 0.99508 -0.34300
O 	O 	0.77280 0.41729 0.99531 0.25800
O 	O 	0.56295 0.03748 0.49911 -0.38400
C 	C 	0.65432 0.04065 0.49769 -0.07200
H 	H 	0.63790 0.06670 0.49620 0.09300
C 	C 	0.70184 0.04268 0.49758 0.08400
C 	C 	0.72770 0.08670 0.49508 -0.34400
O 	O 	0.72720 0.08271 0.49531 0.24700
O 	O 	0.06295 0.53748 0.99911 -0.35900
C 	C 	0.15432 0.54065 0.99769 -0.04400
H 	H 	0.13790 0.56670 0.99620 0.09000
C 	C 	0.20184 0.54268 0.99758 0.10300
C 	C 	0.22770 0.58670 0.99508 -0.34300
O 	O 	0.22720 0.58271 0.99531 0.25600
O 	O 	0.43705 0.03748 0.50089 -0.38400
C 	C 	0.34568 0.04065 0.50231 -0.07200
H 	H 	0.36210 0.06670 0.50380 0.09300
C 	C 	0.29816 0.04268 0.50242 0.08400
C 	C 	0.27230 0.08670 0.50492 -0.34400
O 	O 	0.27280 0.08271 0.50469 0.24400
O 	O 	0.93705 0.53748 0.00089 -0.37500
C 	C 	0.84568 0.54065 0.00231 -0.07400
H 	H 	0.86210 0.56670 0.00380 0.09500
C 	C 	0.79816 0.54268 0.00242 0.08500
C 	C 	0.77230 0.58670 0.00492 -0.34400
O 	O 	0.77280 0.58271 0.00469 0.24500
O 	O 	0.56295 0.50089 0.03748 -0.38400
C 	C 	0.65432 0.50231 0.04065 -0.07200
H 	H 	0.63790 0.50380 0.06670 0.09300
C 	C 	0.70184 0.50242 0.04268 0.08400
C 	C 	0.72770 0.50492 0.08670 -0.34400
O 	O 	0.72720 0.50469 0.08271 0.24700
O 	O 	0.06295 0.00089 0.53748 -0.39300
C 	C 	0.15432 0.00231 0.54065 -0.07200
H 	H 	0.13790 0.00380 0.56670 0.08900
C 	C 	0.20184 0.00242 0.54268 0.08200
C 	C 	0.22770 0.00492 0.58670 -0.34500
O 	O 	0.22720 0.00469 0.58271 0.24100
O 	O 	0.43705 0.49911 0.03748 -0.38400
C 	C 	0.34568 0.49769 0.04065 -0.07300
H 	H 	0.36210 0.49620 0.06670 0.09300
C 	C 	0.29816 0.49758 0.04268 0.08400
C 	C 	0.27230 0.49508 0.08670 -0.34400
O 	O 	0.27280 0.49531 0.08271 0.24400
O 	O 	0.93705 0.99911 0.53748 -0.34100
C 	C 	0.84568 0.99769 0.54065 -0.04600
H 	H 	0.86210 0.99620 0.56670 0.09600
C 	C 	0.79816 0.99758 0.54268 0.10600
C 	C 	0.77230 0.99508 0.58670 -0.34300
O 	O 	0.77280 0.99531 0.58271 0.26000
O 	O 	0.56295 0.49911 0.96252 -0.36200
C 	C 	0.65432 0.49769 0.95935 -0.04400
H 	H 	0.63790 0.49620 0.93330 0.09000
C 	C 	0.70184 0.49758 0.95732 0.10300
C 	C 	0.72770 0.49508 0.91330 -0.34300
O 	O 	0.72720 0.49531 0.91729 0.25500
O 	O 	0.06295 0.99911 0.46252 -0.36000
C 	C 	0.15432 0.99769 0.45935 -0.04400
H 	H 	0.13790 0.99620 0.43330 0.08900
C 	C 	0.20184 0.99758 0.45732 0.10300
C 	C 	0.22770 0.99508 0.41330 -0.34300
O 	O 	0.22720 0.99531 0.41729 0.25400
O 	O 	0.43705 0.50089 0.96252 -0.36200
C 	C 	0.34568 0.50231 0.95935 -0.04500
H 	H 	0.36210 0.50380 0.93330 0.08900
C 	C 	0.29816 0.50242 0.95732 0.10300
C 	C 	0.27230 0.50492 0.91330 -0.34300
O 	O 	0.27280 0.50469 0.91729 0.25200
O 	O 	0.93705 0.00089 0.46252 -0.37600
C 	C 	0.84568 0.00231 0.45935 -0.07400
H 	H 	0.86210 0.00380 0.43330 0.09400
C 	C 	0.79816 0.00242 0.45732 0.08500
C 	C 	0.77230 0.00492 0.41330 -0.34500
O 	O 	0.77280 0.00469 0.41729 0.24300
O 	O 	0.50089 0.96252 0.43705 -0.36200
C 	C 	0.50231 0.95935 0.34568 -0.04500
H 	H 	0.50380 0.93330 0.36210 0.08900
C 	C 	0.50242 0.95732 0.29816 0.10300
C 	C 	0.50492 0.91330 0.27230 -0.34300
O 	O 	0.50469 0.91729 0.27280 0.25200
O 	O 	0.00089 0.46252 0.93705 -0.37600
C 	C 	0.00231 0.45935 0.84568 -0.07400
H 	H 	0.00380 0.43330 0.86210 0.09400
C 	C 	0.00242 0.45732 0.79816 0.08500
C 	C 	0.00492 0.41330 0.77230 -0.34500
O 	O 	0.00469 0.41729 0.77280 0.24300
O 	O 	0.49911 0.96252 0.56295 -0.36200
C 	C 	0.49769 0.95935 0.65432 -0.04400
H 	H 	0.49620 0.93330 0.63790 0.09000
C 	C 	0.49758 0.95732 0.70184 0.10300
C 	C 	0.49508 0.91330 0.72770 -0.34300
O 	O 	0.49531 0.91729 0.72720 0.25500
O 	O 	0.99911 0.46252 0.06295 -0.36000
C 	C 	0.99769 0.45935 0.15432 -0.04400
H 	H 	0.99620 0.43330 0.13790 0.08900
C 	C 	0.99758 0.45732 0.20184 0.10300
C 	C 	0.99508 0.41330 0.22770 -0.34300
O 	O 	0.99531 0.41729 0.22720 0.25400
O 	O 	0.49911 0.03748 0.43705 -0.38400
C 	C 	0.49769 0.04065 0.34568 -0.07300
H 	H 	0.49620 0.06670 0.36210 0.09300
C 	C 	0.49758 0.04268 0.29816 0.08400
C 	C 	0.49508 0.08670 0.27230 -0.34400
O 	O 	0.49531 0.08271 0.27280 0.24400
O 	O 	0.99911 0.53748 0.93705 -0.34100
C 	C 	0.99769 0.54065 0.84568 -0.04600
H 	H 	0.99620 0.56670 0.86210 0.09600
C 	C 	0.99758 0.54268 0.79816 0.10600
C 	C 	0.99508 0.58670 0.77230 -0.34300
O 	O 	0.99531 0.58271 0.77280 0.26000
O 	O 	0.50089 0.03748 0.56295 -0.38400
C 	C 	0.50231 0.04065 0.65432 -0.07200
H 	H 	0.50380 0.06670 0.63790 0.09300
C 	C 	0.50242 0.04268 0.70184 0.08400
C 	C 	0.50492 0.08670 0.72770 -0.34400
O 	O 	0.50469 0.08271 0.72720 0.24700
O 	O 	0.00089 0.53748 0.06295 -0.39300
C 	C 	0.00231 0.54065 0.15432 -0.07200
H 	H 	0.00380 0.56670 0.13790 0.08900
C 	C 	0.00242 0.54268 0.20184 0.08200
C 	C 	0.00492 0.58670 0.22770 -0.34500
O 	O 	0.00469 0.58271 0.22720 0.24100
O 	O 	0.96252 0.56295 0.49911 -0.36200
C 	C 	0.95935 0.65432 0.49769 -0.04400
H 	H 	0.93330 0.63790 0.49620 0.09000
C 	C 	0.95732 0.70184 0.49758 0.10300
C 	C 	0.91330 0.72770 0.49508 -0.34300
O 	O 	0.91729 0.72720 0.49531 0.25500
O 	O 	0.46252 0.06295 0.99911 -0.36000
C 	C 	0.45935 0.15432 0.99769 -0.04400
H 	H 	0.43330 0.13790 0.99620 0.08900
C 	C 	0.45732 0.20184 0.99758 0.10300
C 	C 	0.41330 0.22770 0.99508 -0.34300
O 	O 	0.41729 0.22720 0.99531 0.25400
O 	O 	0.96252 0.43705 0.50089 -0.36200
C 	C 	0.95935 0.34568 0.50231 -0.04500
H 	H 	0.93330 0.36210 0.50380 0.08900
C 	C 	0.95732 0.29816 0.50242 0.10300
C 	C 	0.91330 0.27230 0.50492 -0.34300
O 	O 	0.91729 0.27280 0.50469 0.25200
O 	O 	0.46252 0.93705 0.00089 -0.37600
C 	C 	0.45935 0.84568 0.00231 -0.07400
H 	H 	0.43330 0.86210 0.00380 0.09400
C 	C 	0.45732 0.79816 0.00242 0.08500
C 	C 	0.41330 0.77230 0.00492 -0.34500
O 	O 	0.41729 0.77280 0.00469 0.24300
O 	O 	0.03748 0.56295 0.50089 -0.38400
C 	C 	0.04065 0.65432 0.50231 -0.07200
H 	H 	0.06670 0.63790 0.50380 0.09300
C 	C 	0.04268 0.70184 0.50242 0.08400
C 	C 	0.08670 0.72770 0.50492 -0.34400
O 	O 	0.08271 0.72720 0.50469 0.24700
O 	O 	0.53748 0.06295 0.00089 -0.39300
C 	C 	0.54065 0.15432 0.00231 -0.07200
H 	H 	0.56670 0.13790 0.00380 0.08900
C 	C 	0.54268 0.20184 0.00242 0.08200
C 	C 	0.58670 0.22770 0.00492 -0.34500
O 	O 	0.58271 0.22720 0.00469 0.24100
O 	O 	0.03748 0.43705 0.49911 -0.38400
C 	C 	0.04065 0.34568 0.49769 -0.07300
H 	H 	0.06670 0.36210 0.49620 0.09300
C 	C 	0.04268 0.29816 0.49758 0.08400
C 	C 	0.08670 0.27230 0.49508 -0.34400
O 	O 	0.08271 0.27280 0.49531 0.24400
O 	O 	0.53748 0.93705 0.99911 -0.34100
C 	C 	0.54065 0.84568 0.99769 -0.04600
H 	H 	0.56670 0.86210 0.99620 0.09600
C 	C 	0.54268 0.79816 0.99758 0.10600
C 	C 	0.58670 0.77230 0.99508 -0.34300
O 	O 	0.58271 0.77280 0.99531 0.26000
Cu	Cu	0.50000 0.50000 0.95673 0.92100
Cu	Cu	0.00000 0.00000 0.45673 0.89400
Cu	Cu	0.50000 0.50000 0.04327 0.91400
Cu	Cu	0.00000 0.00000 0.54327 0.89500
Cu	Cu	0.95673 0.50000 0.50000 0.92100
Cu	Cu	0.45673 0.00000 -0.00000 0.89400
Cu	Cu	0.04327 0.50000 0.50000 0.91400
Cu	Cu	0.54327 0.00000 -0.00000 0.89500
Cu	Cu	0.50000 0.95673 0.50000 0.92100
Cu	Cu	-0.00000 0.45673 -0.00000 0.89400
Cu	Cu	0.50000 0.04327 0.50000 0.91400
Cu	Cu	0.00000 0.54327 -0.00000 0.89500
C 	C 	0.50000 0.58272 -0.00000 0.29000
C 	C 	0.50000 0.63269 -0.00000 -0.03100
C 	C 	0.50000 0.72317 -0.00000 -0.03600
C 	C 	-0.00000 0.08272 0.50000 0.28900
C 	C 	0.00000 0.13269 0.50000 -0.03400
C 	C 	-0.00000 0.22317 0.50000 -0.03600
C 	C 	0.50000 0.41728 -0.00000 0.29000
C 	C 	0.50000 0.36731 -0.00000 -0.03100
C 	C 	0.50000 0.27683 -0.00000 -0.03700
C 	C 	-0.00000 0.91728 0.50000 0.28700
C 	C 	0.00000 0.86731 0.50000 -0.02600
C 	C 	-0.00000 0.77683 0.50000 -0.03600
C 	C 	-0.00000 0.50000 0.58272 0.29000
C 	C 	0.00000 0.50000 0.63269 -0.03100
C 	C 	-0.00000 0.50000 0.72317 -0.03600
C 	C 	0.50000 0.00000 0.08272 0.28900
C 	C 	0.50000 0.00000 0.13269 -0.03400
C 	C 	0.50000 0.00000 0.22317 -0.03600
C 	C 	0.00000 0.50000 0.41728 0.29000
C 	C 	0.00000 0.50000 0.36731 -0.03100
C 	C 	0.00000 0.50000 0.27683 -0.03700
C 	C 	0.50000 -0.00000 0.91728 0.28700
C 	C 	0.50000 -0.00000 0.86731 -0.02600
C 	C 	0.50000 0.00000 0.77683 -0.03600
C 	C 	0.58272 0.00000 0.50000 0.29000
C 	C 	0.63269 0.00000 0.50000 -0.03100
C 	C 	0.72317 0.00000 0.50000 -0.03600
C 	C 	0.08272 0.50000 -0.00000 0.28900
C 	C 	0.13269 0.50000 -0.00000 -0.03400
C 	C 	0.22317 0.50000 -0.00000 -0.03600
C 	C 	0.41728 0.00000 0.50000 0.29000
C 	C 	0.36731 0.00000 0.50000 -0.03100
C 	C 	0.27683 0.00000 0.50000 -0.03700
C 	C 	0.91728 0.50000 -0.00000 0.28700
C 	C 	0.86731 0.50000 -0.00000 -0.02600
C 	C 	0.77683 0.50000 -0.00000 -0.03600
C 	C 	0.58272 0.50000 -0.00000 0.29000
C 	C 	0.63269 0.50000 -0.00000 -0.03100
C 	C 	0.72317 0.50000 -0.00000 -0.03600
C 	C 	0.08272 0.00000 0.50000 0.28900
C 	C 	0.13269 0.00000 0.50000 -0.03400
C 	C 	0.22317 0.00000 0.50000 -0.03600
C 	C 	0.41728 0.50000 -0.00000 0.29000
C 	C 	0.36731 0.50000 -0.00000 -0.03100
C 	C 	0.27683 0.50000 -0.00000 -0.03700
C 	C 	0.91728 0.00000 0.50000 0.28700
C 	C 	0.86731 0.00000 0.50000 -0.02600
C 	C 	0.77683 0.00000 0.50000 -0.03600
C 	C 	0.50000 0.00000 0.41728 0.29000
C 	C 	0.50000 0.00000 0.36731 -0.03100
C 	C 	0.50000 0.00000 0.27683 -0.03700
C 	C 	-0.00000 0.50000 0.91728 0.28700
C 	C 	0.00000 0.50000 0.86731 -0.02600
C 	C 	-0.00000 0.50000 0.77683 -0.03600
C 	C 	0.50000 0.00000 0.58272 0.29000
C 	C 	0.50000 0.00000 0.63269 -0.03100
C 	C 	0.50000 0.00000 0.72317 -0.03600
C 	C 	0.00000 0.50000 0.08272 0.28900
C 	C 	0.00000 0.50000 0.13269 -0.03400
C 	C 	0.00000 0.50000 0.22317 -0.03600
C 	C 	-0.00000 0.58272 0.50000 0.29000
C 	C 	0.00000 0.63269 0.50000 -0.03100
C 	C 	-0.00000 0.72317 0.50000 -0.03600
C 	C 	0.50000 0.08272 -0.00000 0.28900
C 	C 	0.50000 0.13269 -0.00000 -0.03400
C 	C 	0.50000 0.22317 -0.00000 -0.03600
C 	C 	-0.00000 0.41728 0.50000 0.29000
C 	C 	-0.00000 0.36731 0.50000 -0.03100
C 	C 	0.00000 0.27683 0.50000 -0.03700
C 	C 	0.50000 0.91728 -0.00000 0.28700
C 	C 	0.50000 0.86731 -0.00000 -0.02600
C 	C 	0.50000 0.77683 -0.00000 -0.03600
