data_crystal

_cell_length_a 19.76650
_cell_length_b 15.80120
_cell_length_c 16.96800
_cell_angle_alpha 90.00000
_cell_angle_beta  90.00000
_cell_angle_gamma 90.00000

_symmetry_space_group_name_	'P 1'
_symmetry_space_group_name_H-M	'P 1'

loop_
_symmetry_equiv_pos_as_xyz
  x,y,z

loop_
_atom_site_label
_atom_site_type_symbol
_atom_site_fract_x
_atom_site_fract_y
_atom_site_fract_z
_atom_site_charge
C 	C 	0.14700 0.42480 0.20370 0.11600
H 	H 	0.11720 0.41980 0.24590 0.00800
C 	C 	0.22970 0.40090 0.12590 0.11900
H 	H 	0.26790 0.37770 0.10240 -0.00600
C 	C 	0.21780 0.29750 0.23470 0.18000
C 	C 	0.21370 0.29870 0.31620 -0.18800
H 	H 	0.20240 0.34840 0.34250 0.10400
C 	C 	0.22650 0.22560 0.35800 0.09200
H 	H 	0.22300 0.22560 0.41260 0.01800
C 	C 	0.24480 0.15180 0.31870 -0.13800
C 	C 	0.24940 0.15130 0.23720 0.09200
H 	H 	0.26180 0.10200 0.21100 0.01700
C 	C 	0.23550 0.22510 0.19420 -0.19400
H 	H 	0.23810 0.22520 0.13950 0.11000
C 	C 	0.25980 0.07200 0.36460 0.35700
C 	C 	0.09390 0.64220 0.98160 0.10900
H 	H 	0.11470 0.68730 0.00720 -0.01000
C 	C 	0.02040 0.56410 0.92200 0.09600
H 	H 	0.98020 0.54570 0.89910 0.01400
C 	C 	0.97840 0.70600 0.96370 0.17600
C 	C 	0.91340 0.68390 0.98070 -0.19400
H 	H 	0.90150 0.62740 0.98710 0.10400
C 	C 	0.86560 0.74730 0.98810 0.10600
H 	H 	0.82120 0.73310 0.00090 0.01300
C 	C 	0.88240 0.83070 0.97700 -0.14200
C 	C 	0.94880 0.85260 0.95880 0.09100
H 	H 	0.96050 0.90920 0.95200 0.02300
C 	C 	0.99730 0.79020 0.95090 -0.18100
H 	H 	0.04150 0.80390 0.93730 0.10400
C 	C 	0.82990 0.89970 0.98310 0.34800
N 	N 	0.14310 0.48270 0.15080 -0.10700
N 	N 	0.19720 0.46730 0.10000 -0.22800
N 	N 	0.20020 0.37140 0.19080 -0.16300
N 	N 	0.07600 0.51890 0.92630 -0.10600
N 	N 	0.12290 0.56950 0.96550 -0.23600
N 	N 	0.02910 0.64150 0.95550 -0.16300
O 	O 	0.26330 0.00360 0.33070 -0.31500
O 	O 	0.26890 0.08260 0.43800 -0.45600
O 	O 	0.77000 0.87530 0.99810 -0.45700
O 	O 	0.84530 0.97450 0.97560 -0.32400
Zn	Zn	0.21462 0.52288 0.99343 1.21400
C 	C 	0.35300 0.07520 0.70370 0.11700
H 	H 	0.38280 0.08020 0.74590 0.00800
C 	C 	0.27030 0.09910 0.62590 0.11900
H 	H 	0.23210 0.12230 0.60240 -0.00600
C 	C 	0.28220 0.20250 0.73470 0.18100
C 	C 	0.28630 0.20130 0.81620 -0.18700
H 	H 	0.29760 0.15160 0.84250 0.10400
C 	C 	0.27350 0.27440 0.85800 0.09200
H 	H 	0.27700 0.27440 0.91260 0.01900
C 	C 	0.25520 0.34820 0.81870 -0.13700
C 	C 	0.25060 0.34870 0.73720 0.09200
H 	H 	0.23820 0.39800 0.71100 0.01600
C 	C 	0.26450 0.27490 0.69420 -0.19400
H 	H 	0.26190 0.27480 0.63950 0.11000
C 	C 	0.24020 0.42800 0.86460 0.35700
C 	C 	0.40610 0.85780 0.48160 0.11100
H 	H 	0.38530 0.81270 0.50720 -0.01200
C 	C 	0.47960 0.93590 0.42200 0.10200
H 	H 	0.51980 0.95430 0.39910 0.01000
C 	C 	0.52160 0.79400 0.46370 0.17200
C 	C 	0.58660 0.81610 0.48070 -0.18600
H 	H 	0.59850 0.87260 0.48710 0.10000
C 	C 	0.63440 0.75270 0.48810 0.09200
H 	H 	0.67880 0.76690 0.50090 0.02200
C 	C 	0.61760 0.66930 0.47700 -0.13800
C 	C 	0.55120 0.64740 0.45880 0.09100
H 	H 	0.53950 0.59080 0.45200 0.02200
C 	C 	0.50270 0.70980 0.45090 -0.18500
H 	H 	0.45850 0.69610 0.43730 0.10800
C 	C 	0.67010 0.60030 0.48310 0.34700
N 	N 	0.35690 0.01730 0.65080 -0.10700
N 	N 	0.30280 0.03270 0.60000 -0.22900
N 	N 	0.29980 0.12860 0.69080 -0.16300
N 	N 	0.42400 0.98110 0.42630 -0.10700
N 	N 	0.37710 0.93050 0.46550 -0.23600
N 	N 	0.47090 0.85850 0.45550 -0.16300
O 	O 	0.23670 0.49640 0.83070 -0.31600
O 	O 	0.23110 0.41740 0.93800 -0.45700
O 	O 	0.73000 0.62470 0.49810 -0.46000
O 	O 	0.65470 0.52550 0.47560 -0.32600
Zn	Zn	0.28538 0.97712 0.49343 1.21400
C 	C 	0.85300 0.42480 0.29630 0.11700
H 	H 	0.88280 0.41980 0.25410 0.00800
C 	C 	0.77030 0.40090 0.37410 0.11900
H 	H 	0.73210 0.37770 0.39760 -0.00600
C 	C 	0.78220 0.29750 0.26530 0.18100
C 	C 	0.78630 0.29870 0.18380 -0.18700
H 	H 	0.79760 0.34840 0.15750 0.10500
C 	C 	0.77350 0.22560 0.14200 0.09200
H 	H 	0.77700 0.22560 0.08740 0.01900
C 	C 	0.75520 0.15180 0.18130 -0.13600
C 	C 	0.75060 0.15130 0.26280 0.09200
H 	H 	0.73820 0.10200 0.28900 0.01600
C 	C 	0.76450 0.22510 0.30580 -0.19400
H 	H 	0.76190 0.22520 0.36050 0.11000
C 	C 	0.74020 0.07200 0.13540 0.35700
C 	C 	0.90610 0.64220 0.51840 0.11100
H 	H 	0.88530 0.68730 0.49280 -0.01200
C 	C 	0.97960 0.56410 0.57800 0.10300
H 	H 	0.01980 0.54570 0.60090 0.00900
C 	C 	0.02160 0.70600 0.53630 0.17200
C 	C 	0.08660 0.68390 0.51930 -0.18700
H 	H 	0.09850 0.62740 0.51290 0.10000
C 	C 	0.13440 0.74730 0.51190 0.09200
H 	H 	0.17880 0.73310 0.49910 0.02200
C 	C 	0.11760 0.83070 0.52300 -0.13900
C 	C 	0.05120 0.85260 0.54120 0.09200
H 	H 	0.03950 0.90920 0.54800 0.02200
C 	C 	0.00270 0.79020 0.54910 -0.18700
H 	H 	0.95850 0.80390 0.56270 0.10800
C 	C 	0.17010 0.89970 0.51690 0.34700
N 	N 	0.85690 0.48270 0.34920 -0.10700
N 	N 	0.80280 0.46730 0.40000 -0.22900
N 	N 	0.79980 0.37140 0.30920 -0.16300
N 	N 	0.92400 0.51890 0.57370 -0.10700
N 	N 	0.87710 0.56950 0.53450 -0.23600
N 	N 	0.97090 0.64150 0.54450 -0.16300
O 	O 	0.73670 0.00360 0.16930 -0.31400
O 	O 	0.73110 0.08260 0.06200 -0.45500
O 	O 	0.23000 0.87530 0.50190 -0.46000
O 	O 	0.15470 0.97450 0.52440 -0.32600
Zn	Zn	0.78538 0.52288 0.50657 1.21400
C 	C 	0.64700 0.07520 0.79630 0.11700
H 	H 	0.61720 0.08020 0.75410 0.00800
C 	C 	0.72970 0.09910 0.87410 0.11900
H 	H 	0.76790 0.12230 0.89760 -0.00600
C 	C 	0.71780 0.20250 0.76530 0.18100
C 	C 	0.71370 0.20130 0.68380 -0.18700
H 	H 	0.70240 0.15160 0.65750 0.10500
C 	C 	0.72650 0.27440 0.64200 0.09200
H 	H 	0.72300 0.27440 0.58740 0.02000
C 	C 	0.74480 0.34820 0.68130 -0.13700
C 	C 	0.74940 0.34870 0.76280 0.09200
H 	H 	0.76180 0.39800 0.78900 0.01600
C 	C 	0.73550 0.27490 0.80580 -0.19400
H 	H 	0.73810 0.27480 0.86050 0.11000
C 	C 	0.75980 0.42800 0.63540 0.35700
C 	C 	0.59390 0.85780 0.01840 0.10300
H 	H 	0.61470 0.81270 0.99280 -0.00600
C 	C 	0.52040 0.93590 0.07800 0.10200
H 	H 	0.48020 0.95430 0.10090 0.01000
C 	C 	0.47840 0.79400 0.03630 0.16900
C 	C 	0.41340 0.81610 0.01930 -0.18300
H 	H 	0.40150 0.87260 0.01290 0.09800
C 	C 	0.36560 0.75270 0.01190 0.08700
H 	H 	0.32120 0.76690 0.99910 0.02500
C 	C 	0.38240 0.66930 0.02300 -0.13500
C 	C 	0.44880 0.64740 0.04120 0.08800
H 	H 	0.46050 0.59080 0.04800 0.02300
C 	C 	0.49730 0.70980 0.04910 -0.18300
H 	H 	0.54150 0.69610 0.06270 0.10700
C 	C 	0.32990 0.60030 0.01690 0.34500
N 	N 	0.64310 0.01730 0.84920 -0.10800
N 	N 	0.69720 0.03270 0.90000 -0.22900
N 	N 	0.70020 0.12860 0.80920 -0.16300
N 	N 	0.57600 0.98110 0.07370 -0.10700
N 	N 	0.62290 0.93050 0.03450 -0.23600
N 	N 	0.52910 0.85850 0.04450 -0.16100
O 	O 	0.76330 0.49640 0.66930 -0.31600
O 	O 	0.76890 0.41740 0.56200 -0.45600
O 	O 	0.27000 0.62470 0.00190 -0.45900
O 	O 	0.34530 0.52550 0.02440 -0.32500
Zn	Zn	0.71462 0.97712 0.00657 1.21200
C 	C 	0.85300 0.57520 0.79630 0.11700
H 	H 	0.88280 0.58020 0.75410 0.00900
C 	C 	0.77030 0.59910 0.87410 0.12000
H 	H 	0.73210 0.62230 0.89760 -0.00500
C 	C 	0.78220 0.70250 0.76530 0.18100
C 	C 	0.78630 0.70130 0.68380 -0.18700
H 	H 	0.79760 0.65160 0.65750 0.10500
C 	C 	0.77350 0.77440 0.64200 0.09300
H 	H 	0.77700 0.77440 0.58740 0.01900
C 	C 	0.75520 0.84820 0.68130 -0.13700
C 	C 	0.75060 0.84870 0.76280 0.09200
H 	H 	0.73820 0.89800 0.78900 0.01700
C 	C 	0.76450 0.77490 0.80580 -0.19400
H 	H 	0.76190 0.77480 0.86050 0.11000
C 	C 	0.74020 0.92800 0.63540 0.35700
C 	C 	0.90610 0.35780 0.01840 0.10900
H 	H 	0.88530 0.31270 0.99280 -0.01000
C 	C 	0.97960 0.43590 0.07800 0.09600
H 	H 	0.01980 0.45430 0.10090 0.01400
C 	C 	0.02160 0.29400 0.03630 0.17600
C 	C 	0.08660 0.31610 0.01930 -0.19400
H 	H 	0.09850 0.37260 0.01290 0.10400
C 	C 	0.13440 0.25270 0.01190 0.10600
H 	H 	0.17880 0.26690 0.99910 0.01300
C 	C 	0.11760 0.16930 0.02300 -0.14200
C 	C 	0.05120 0.14740 0.04120 0.09100
H 	H 	0.03950 0.09080 0.04800 0.02300
C 	C 	0.00270 0.20980 0.04910 -0.18100
H 	H 	0.95850 0.19610 0.06270 0.10400
C 	C 	0.17010 0.10030 0.01690 0.34800
N 	N 	0.85690 0.51730 0.84920 -0.10700
N 	N 	0.80280 0.53270 0.90000 -0.22800
N 	N 	0.79980 0.62860 0.80920 -0.16300
N 	N 	0.92400 0.48110 0.07370 -0.10600
N 	N 	0.87710 0.43050 0.03450 -0.23600
N 	N 	0.97090 0.35850 0.04450 -0.16300
O 	O 	0.73670 0.99640 0.66930 -0.31500
O 	O 	0.73110 0.91740 0.56200 -0.45600
O 	O 	0.23000 0.12470 0.00190 -0.45700
O 	O 	0.15470 0.02550 0.02440 -0.32400
Zn	Zn	0.78538 0.47712 0.00657 1.21400
C 	C 	0.64700 0.92480 0.29630 0.11700
H 	H 	0.61720 0.91980 0.25410 0.00800
C 	C 	0.72970 0.90090 0.37410 0.11900
H 	H 	0.76790 0.87770 0.39760 -0.00600
C 	C 	0.71780 0.79750 0.26530 0.18100
C 	C 	0.71370 0.79870 0.18380 -0.18700
H 	H 	0.70240 0.84840 0.15750 0.10400
C 	C 	0.72650 0.72560 0.14200 0.09200
H 	H 	0.72300 0.72560 0.08740 0.01900
C 	C 	0.74480 0.65180 0.18130 -0.13700
C 	C 	0.74940 0.65130 0.26280 0.09200
H 	H 	0.76180 0.60200 0.28900 0.01600
C 	C 	0.73550 0.72510 0.30580 -0.19400
H 	H 	0.73810 0.72520 0.36050 0.11000
C 	C 	0.75980 0.57200 0.13540 0.35700
C 	C 	0.59390 0.14220 0.51840 0.11100
H 	H 	0.61470 0.18730 0.49280 -0.01200
C 	C 	0.52040 0.06410 0.57800 0.10200
H 	H 	0.48020 0.04570 0.60090 0.01000
C 	C 	0.47840 0.20600 0.53630 0.17200
C 	C 	0.41340 0.18390 0.51930 -0.18600
H 	H 	0.40150 0.12740 0.51290 0.10000
C 	C 	0.36560 0.24730 0.51190 0.09200
H 	H 	0.32120 0.23310 0.49910 0.02200
C 	C 	0.38240 0.33070 0.52300 -0.13800
C 	C 	0.44880 0.35260 0.54120 0.09100
H 	H 	0.46050 0.40920 0.54800 0.02200
C 	C 	0.49730 0.29020 0.54910 -0.18500
H 	H 	0.54150 0.30390 0.56270 0.10800
C 	C 	0.32990 0.39970 0.51690 0.34700
N 	N 	0.64310 0.98270 0.34920 -0.10700
N 	N 	0.69720 0.96730 0.40000 -0.22900
N 	N 	0.70020 0.87140 0.30920 -0.16300
N 	N 	0.57600 0.01890 0.57370 -0.10700
N 	N 	0.62290 0.06950 0.53450 -0.23600
N 	N 	0.52910 0.14150 0.54450 -0.16300
O 	O 	0.76330 0.50360 0.16930 -0.31600
O 	O 	0.76890 0.58260 0.06200 -0.45700
O 	O 	0.27000 0.37530 0.50190 -0.46000
O 	O 	0.34530 0.47450 0.52440 -0.32600
Zn	Zn	0.71462 0.02288 0.50657 1.21400
C 	C 	0.14700 0.57520 0.70370 0.11700
H 	H 	0.11720 0.58020 0.74590 0.00800
C 	C 	0.22970 0.59910 0.62590 0.11900
H 	H 	0.26790 0.62230 0.60240 -0.00600
C 	C 	0.21780 0.70250 0.73470 0.18100
C 	C 	0.21370 0.70130 0.81620 -0.18700
H 	H 	0.20240 0.65160 0.84250 0.10500
C 	C 	0.22650 0.77440 0.85800 0.09200
H 	H 	0.22300 0.77440 0.91260 0.01900
C 	C 	0.24480 0.84820 0.81870 -0.13600
C 	C 	0.24940 0.84870 0.73720 0.09200
H 	H 	0.26180 0.89800 0.71100 0.01600
C 	C 	0.23550 0.77490 0.69420 -0.19400
H 	H 	0.23810 0.77480 0.63950 0.11000
C 	C 	0.25980 0.92800 0.86460 0.35700
C 	C 	0.09390 0.35780 0.48160 0.11100
H 	H 	0.11470 0.31270 0.50720 -0.01200
C 	C 	0.02040 0.43590 0.42200 0.10300
H 	H 	0.98020 0.45430 0.39910 0.00900
C 	C 	0.97840 0.29400 0.46370 0.17200
C 	C 	0.91340 0.31610 0.48070 -0.18700
H 	H 	0.90150 0.37260 0.48710 0.10000
C 	C 	0.86560 0.25270 0.48810 0.09200
H 	H 	0.82120 0.26690 0.50090 0.02200
C 	C 	0.88240 0.16930 0.47700 -0.13900
C 	C 	0.94880 0.14740 0.45880 0.09200
H 	H 	0.96050 0.09080 0.45200 0.02200
C 	C 	0.99730 0.20980 0.45090 -0.18700
H 	H 	0.04150 0.19610 0.43730 0.10800
C 	C 	0.82990 0.10030 0.48310 0.34700
N 	N 	0.14310 0.51730 0.65080 -0.10700
N 	N 	0.19720 0.53270 0.60000 -0.22900
N 	N 	0.20020 0.62860 0.69080 -0.16300
N 	N 	0.07600 0.48110 0.42630 -0.10700
N 	N 	0.12290 0.43050 0.46550 -0.23600
N 	N 	0.02910 0.35850 0.45550 -0.16300
O 	O 	0.26330 0.99640 0.83070 -0.31400
O 	O 	0.26890 0.91740 0.93800 -0.45500
O 	O 	0.77000 0.12470 0.49810 -0.46000
O 	O 	0.84530 0.02550 0.47560 -0.32600
Zn	Zn	0.21462 0.47712 0.49343 1.21400
C 	C 	0.35300 0.92480 0.20370 0.11700
H 	H 	0.38280 0.91980 0.24590 0.00800
C 	C 	0.27030 0.90090 0.12590 0.11900
H 	H 	0.23210 0.87770 0.10240 -0.00600
C 	C 	0.28220 0.79750 0.23470 0.18100
C 	C 	0.28630 0.79870 0.31620 -0.18700
H 	H 	0.29760 0.84840 0.34250 0.10500
C 	C 	0.27350 0.72560 0.35800 0.09200
H 	H 	0.27700 0.72560 0.41260 0.02000
C 	C 	0.25520 0.65180 0.31870 -0.13700
C 	C 	0.25060 0.65130 0.23720 0.09200
H 	H 	0.23820 0.60200 0.21100 0.01600
C 	C 	0.26450 0.72510 0.19420 -0.19400
H 	H 	0.26190 0.72520 0.13950 0.11000
C 	C 	0.24020 0.57200 0.36460 0.35700
C 	C 	0.40610 0.14220 0.98160 0.10300
H 	H 	0.38530 0.18730 0.00720 -0.00600
C 	C 	0.47960 0.06410 0.92200 0.10200
H 	H 	0.51980 0.04570 0.89910 0.01000
C 	C 	0.52160 0.20600 0.96370 0.16900
C 	C 	0.58660 0.18390 0.98070 -0.18300
H 	H 	0.59850 0.12740 0.98710 0.09800
C 	C 	0.63440 0.24730 0.98810 0.08700
H 	H 	0.67880 0.23310 0.00090 0.02500
C 	C 	0.61760 0.33070 0.97700 -0.13500
C 	C 	0.55120 0.35260 0.95880 0.08800
H 	H 	0.53950 0.40920 0.95200 0.02300
C 	C 	0.50270 0.29020 0.95090 -0.18300
H 	H 	0.45850 0.30390 0.93730 0.10700
C 	C 	0.67010 0.39970 0.98310 0.34500
N 	N 	0.35690 0.98270 0.15080 -0.10800
N 	N 	0.30280 0.96730 0.10000 -0.22900
N 	N 	0.29980 0.87140 0.19080 -0.16300
N 	N 	0.42400 0.01890 0.92630 -0.10700
N 	N 	0.37710 0.06950 0.96550 -0.23600
N 	N 	0.47090 0.14150 0.95550 -0.16100
O 	O 	0.23670 0.50360 0.33070 -0.31600
O 	O 	0.23110 0.58260 0.43800 -0.45600
O 	O 	0.73000 0.37530 0.99810 -0.45900
O 	O 	0.65470 0.47450 0.97560 -0.32500
Zn	Zn	0.28538 0.02288 0.99343 1.21200
