data_crystal

_cell_length_a 25.56900
_cell_length_b 25.56900
_cell_length_c 16.70700
_cell_angle_alpha 90.00000
_cell_angle_beta  90.00000
_cell_angle_gamma 90.00000

_symmetry_space_group_name_	'P 1'
_symmetry_space_group_name_H-M	'P 1'

loop_
_symmetry_equiv_pos_as_xyz
  x,y,z

loop_
_atom_site_label
_atom_site_type_symbol
_atom_site_fract_x
_atom_site_fract_y
_atom_site_fract_z
_atom_site_charge
Co	Co	0.06729 0.66047 0.59964 1.18300
Co	Co	0.00307 0.56336 0.68829 1.16300
O 	O 	0.00310 0.69412 0.65538 -0.42800
O 	O 	0.95391 0.62630 0.69768 -0.42700
O 	O 	0.01951 0.58964 0.56701 -0.55100
O 	O 	0.06935 0.61276 0.70283 -0.57000
O 	O 	0.99697 0.55084 0.81402 -0.56600
O 	O 	0.13343 0.61839 0.56721 -0.43000
N 	N 	0.72045 0.88364 0.85026 -0.21500
C 	C 	0.84503 0.78199 0.77200 0.05300
C 	C 	0.88770 0.69780 0.77700 0.05200
H 	H 	0.89500 0.66810 0.80710 0.02600
C 	C 	0.92295 0.71241 0.71900 -0.12900
C 	C 	0.88100 0.79671 0.71530 -0.11900
H 	H 	0.87920 0.83090 0.69310 0.06400
C 	C 	0.80202 0.81733 0.79830 -0.00900
C 	C 	0.21611 0.54707 0.42810 -0.00300
H 	H 	0.20220 0.55910 0.37870 0.03800
C 	C 	0.92020 0.76247 0.68950 0.04600
H 	H 	0.94450 0.77370 0.65180 0.02200
C 	C 	0.96366 0.67462 0.68822 0.38000
C 	C 	0.99365 0.59582 0.86490 -0.00800
H 	H 	0.02460 0.61670 0.85880 0.03100
H 	H 	0.96360 0.61620 0.85040 0.03200
H 	H 	0.99050 0.58480 0.91960 0.02400
C 	C 	0.25735 0.51090 0.42840 -0.05100
H 	H 	0.26690 0.49880 0.36560 0.03700
C 	C 	0.72020 0.83220 0.86160 0.27200
H 	H 	0.69080 0.81750 0.88810 -0.05600
C 	C 	0.76000 0.79820 0.83740 0.22800
H 	H 	0.75740 0.76180 0.84840 -0.04500
C 	C 	0.80430 0.87260 0.78240 -0.09100
H 	H 	0.83340 0.88780 0.75580 0.04700
C 	C 	0.76160 0.90340 0.80790 -0.00300
H 	H 	0.76150 0.93960 0.79500 0.02700
C 	C 	0.84950 0.73170 0.80310 -0.11900
H 	H 	0.82570 0.72050 0.84330 0.06700
C 	C 	0.32410 0.45890 0.48760 0.02200
C 	C 	0.36250 0.46720 0.42580 -0.05700
H 	H 	0.35780 0.49460 0.38790 0.06600
C 	C 	0.40790 0.43410 0.42130 0.00300
H 	H 	0.43320 0.43950 0.38050 0.02200
N 	N 	0.41500 0.39270 0.47860 0.07700
C 	C 	0.37660 0.38440 0.54040 -0.01600
H 	H 	0.38130 0.35710 0.57830 0.27700
C 	C 	0.33120 0.41750 0.54490 0.00200
H 	H 	0.30590 0.41210 0.58570 0.16000
C 	C 	0.73530 0.84080 0.89470 -0.23900
H 	H 	0.71800 0.83430 0.94400 0.08600
C 	C 	0.77410 0.80730 0.87060 -0.31500
H 	H 	0.78230 0.77740 0.90200 0.12100
C 	C 	0.78700 0.86000 0.75760 0.00200
H 	H 	0.80410 0.86860 0.70880 0.02300
C 	C 	0.74720 0.89180 0.78530 0.02900
H 	H 	0.73870 0.92190 0.75450 0.00600
C 	C 	0.32230 0.45040 0.53450 -0.00200
C 	C 	0.35620 0.45600 0.59580 -0.03800
H 	H 	0.35120 0.48320 0.63380 -0.01500
C 	C 	0.39710 0.42310 0.60320 0.03500
H 	H 	0.42090 0.42700 0.64640 -0.00300
N 	N 	0.40410 0.38440 0.54940 -0.29200
C 	C 	0.37030 0.37880 0.48800 0.17000
H 	H 	0.37520 0.35160 0.45010 -0.20900
C 	C 	0.32940 0.41170 0.48060 -0.04100
H 	H 	0.30550 0.40770 0.43740 -0.12100
H 	H 	0.03560 0.76370 0.44490 0.02800
H 	H 	0.00990 0.75810 0.53180 0.04000
H 	H 	0.07080 0.77130 0.52330 0.04100
Co	Co	0.93271 0.33953 0.59964 1.18200
Co	Co	0.99693 0.43664 0.68829 1.16200
O 	O 	0.99690 0.30588 0.65538 -0.42900
O 	O 	0.04609 0.37370 0.69768 -0.42800
O 	O 	0.98049 0.41036 0.56701 -0.55200
O 	O 	0.93065 0.38724 0.70283 -0.57100
O 	O 	0.00303 0.44916 0.81402 -0.56700
O 	O 	0.86657 0.38161 0.56721 -0.43100
N 	N 	0.27955 0.11636 0.85026 -0.21600
C 	C 	0.15497 0.21801 0.77200 0.05200
C 	C 	0.11230 0.30220 0.77700 0.05100
H 	H 	0.10500 0.33190 0.80710 0.02500
C 	C 	0.07705 0.28759 0.71900 -0.13000
C 	C 	0.11900 0.20329 0.71530 -0.12000
H 	H 	0.12080 0.16910 0.69310 0.06300
C 	C 	0.19798 0.18267 0.79830 -0.01000
C 	C 	0.78389 0.45293 0.42810 -0.00400
H 	H 	0.79780 0.44090 0.37870 0.03700
C 	C 	0.07980 0.23753 0.68950 0.04500
H 	H 	0.05550 0.22630 0.65180 0.02100
C 	C 	0.03634 0.32538 0.68822 0.37900
C 	C 	0.00635 0.40418 0.86490 -0.00900
H 	H 	0.97540 0.38330 0.85880 0.03000
H 	H 	0.03640 0.38380 0.85040 0.03100
H 	H 	0.00950 0.41520 0.91960 0.02300
C 	C 	0.74265 0.48910 0.42840 -0.05200
H 	H 	0.73310 0.50120 0.36560 0.03600
C 	C 	0.27980 0.16780 0.86160 0.27100
H 	H 	0.30920 0.18250 0.88810 -0.05700
C 	C 	0.24000 0.20180 0.83740 0.22700
H 	H 	0.24260 0.23820 0.84840 -0.04600
C 	C 	0.19570 0.12740 0.78240 -0.09200
H 	H 	0.16660 0.11220 0.75580 0.04600
C 	C 	0.23840 0.09660 0.80790 -0.00400
H 	H 	0.23850 0.06040 0.79500 0.02600
C 	C 	0.15050 0.26830 0.80310 -0.12000
H 	H 	0.17430 0.27950 0.84330 0.06700
C 	C 	0.67590 0.54110 0.48760 0.02200
C 	C 	0.63750 0.53280 0.42580 -0.05700
H 	H 	0.64220 0.50540 0.38790 0.06600
C 	C 	0.59210 0.56590 0.42130 0.00300
H 	H 	0.56680 0.56050 0.38050 0.02200
N 	N 	0.58500 0.60730 0.47860 0.07700
C 	C 	0.62340 0.61560 0.54040 -0.01600
H 	H 	0.61870 0.64290 0.57830 0.27700
C 	C 	0.66880 0.58250 0.54490 0.00200
H 	H 	0.69410 0.58790 0.58570 0.16000
C 	C 	0.26470 0.15920 0.89470 -0.23900
H 	H 	0.28200 0.16570 0.94400 0.08600
C 	C 	0.22590 0.19270 0.87060 -0.31500
H 	H 	0.21770 0.22260 0.90200 0.12100
C 	C 	0.21300 0.14000 0.75760 0.00200
H 	H 	0.19590 0.13140 0.70880 0.02300
C 	C 	0.25280 0.10820 0.78530 0.02900
H 	H 	0.26130 0.07810 0.75450 0.00600
C 	C 	0.67770 0.54960 0.53450 -0.00200
C 	C 	0.64380 0.54400 0.59580 -0.03800
H 	H 	0.64880 0.51680 0.63380 -0.01500
C 	C 	0.60290 0.57690 0.60320 0.03500
H 	H 	0.57910 0.57300 0.64640 -0.00300
N 	N 	0.59590 0.61560 0.54940 -0.29200
C 	C 	0.62970 0.62120 0.48800 0.17000
H 	H 	0.62480 0.64840 0.45010 -0.20900
C 	C 	0.67060 0.58830 0.48060 -0.04100
H 	H 	0.69450 0.59230 0.43740 -0.12100
H 	H 	0.96440 0.23630 0.44490 0.02800
H 	H 	0.99010 0.24190 0.53180 0.04000
H 	H 	0.92920 0.22870 0.52330 0.04100
Co	Co	0.33953 0.06729 0.09964 1.18200
Co	Co	0.43664 0.00307 0.18829 1.16200
O 	O 	0.30588 0.00310 0.15538 -0.42900
O 	O 	0.37370 0.95391 0.19768 -0.42800
O 	O 	0.41036 0.01951 0.06701 -0.55200
O 	O 	0.38724 0.06935 0.20283 -0.57100
O 	O 	0.44916 0.99697 0.31402 -0.56800
O 	O 	0.38161 0.13343 0.06721 -0.43100
N 	N 	0.11636 0.72045 0.35026 -0.21600
C 	C 	0.21801 0.84503 0.27200 0.05200
C 	C 	0.30220 0.88770 0.27700 0.05100
H 	H 	0.33190 0.89500 0.30710 0.02500
C 	C 	0.28759 0.92295 0.21900 -0.13000
C 	C 	0.20329 0.88100 0.21530 -0.12000
H 	H 	0.16910 0.87920 0.19310 0.06300
C 	C 	0.18267 0.80202 0.29830 -0.01000
C 	C 	0.45293 0.21611 0.92810 -0.00300
H 	H 	0.44090 0.20220 0.87870 0.03700
C 	C 	0.23753 0.92020 0.18950 0.04500
H 	H 	0.22630 0.94450 0.15180 0.02000
C 	C 	0.32538 0.96366 0.18822 0.37900
C 	C 	0.40418 0.99365 0.36490 -0.00800
H 	H 	0.38330 0.02460 0.35880 0.03000
H 	H 	0.38380 0.96360 0.35040 0.03000
H 	H 	0.41520 0.99050 0.41960 0.02300
C 	C 	0.48910 0.25735 0.92840 -0.05000
H 	H 	0.50120 0.26690 0.86560 0.03600
C 	C 	0.16780 0.72020 0.36160 0.27000
H 	H 	0.18250 0.69080 0.38810 -0.05600
C 	C 	0.20180 0.76000 0.33740 0.22500
H 	H 	0.23820 0.75740 0.34840 -0.04600
C 	C 	0.12740 0.80430 0.28240 -0.09100
H 	H 	0.11220 0.83340 0.25580 0.04600
C 	C 	0.09660 0.76160 0.30790 -0.00400
H 	H 	0.06040 0.76150 0.29500 0.02600
C 	C 	0.26830 0.84950 0.30310 -0.12000
H 	H 	0.27950 0.82570 0.34330 0.06700
C 	C 	0.54110 0.32410 0.98760 0.02100
C 	C 	0.53280 0.36250 0.92580 -0.05800
H 	H 	0.50540 0.35780 0.88790 0.06700
C 	C 	0.56590 0.40790 0.92130 0.00400
H 	H 	0.56050 0.43320 0.88050 0.02100
N 	N 	0.60730 0.41500 0.97860 0.07900
C 	C 	0.61560 0.37660 0.04040 -0.01200
H 	H 	0.64290 0.38130 0.07830 0.28000
C 	C 	0.58250 0.33120 0.04490 -0.00000
H 	H 	0.58790 0.30590 0.08570 0.16300
C 	C 	0.15920 0.73530 0.39470 -0.23800
H 	H 	0.16570 0.71800 0.44400 0.08500
C 	C 	0.19270 0.77410 0.37060 -0.31400
H 	H 	0.22260 0.78230 0.40200 0.12000
C 	C 	0.14000 0.78700 0.25760 0.00200
H 	H 	0.13140 0.80410 0.20880 0.02300
C 	C 	0.10820 0.74720 0.28530 0.02800
H 	H 	0.07810 0.73870 0.25450 0.00600
C 	C 	0.54960 0.32230 0.03450 -0.00400
C 	C 	0.54400 0.35620 0.09580 -0.03800
H 	H 	0.51680 0.35120 0.13380 -0.01500
C 	C 	0.57690 0.39710 0.10320 0.03500
H 	H 	0.57300 0.42090 0.14640 -0.00400
N 	N 	0.61560 0.40410 0.04940 -0.29300
C 	C 	0.62120 0.37030 0.98800 0.16700
H 	H 	0.64840 0.37520 0.95010 -0.20500
C 	C 	0.58830 0.32940 0.98060 -0.04200
H 	H 	0.59230 0.30550 0.93740 -0.12000
H 	H 	0.23630 0.03560 0.94490 0.03000
H 	H 	0.24190 0.00990 0.03180 0.04100
H 	H 	0.22870 0.07080 0.02330 0.04200
Co	Co	0.66047 0.93271 0.09964 1.18200
Co	Co	0.56336 0.99693 0.18829 1.16200
O 	O 	0.69412 0.99690 0.15538 -0.42900
O 	O 	0.62630 0.04609 0.19768 -0.42800
O 	O 	0.58964 0.98049 0.06701 -0.55200
O 	O 	0.61276 0.93065 0.20283 -0.57100
O 	O 	0.55084 0.00303 0.31402 -0.56800
O 	O 	0.61839 0.86657 0.06721 -0.43100
N 	N 	0.88364 0.27955 0.35026 -0.21600
C 	C 	0.78199 0.15497 0.27200 0.05200
C 	C 	0.69780 0.11230 0.27700 0.05100
H 	H 	0.66810 0.10500 0.30710 0.02500
C 	C 	0.71241 0.07705 0.21900 -0.13000
C 	C 	0.79671 0.11900 0.21530 -0.12000
H 	H 	0.83090 0.12080 0.19310 0.06300
C 	C 	0.81733 0.19798 0.29830 -0.01000
C 	C 	0.54707 0.78389 0.92810 -0.00300
H 	H 	0.55910 0.79780 0.87870 0.03700
C 	C 	0.76247 0.07980 0.18950 0.04500
H 	H 	0.77370 0.05550 0.15180 0.02000
C 	C 	0.67462 0.03634 0.18822 0.37900
C 	C 	0.59582 0.00635 0.36490 -0.00800
H 	H 	0.61670 0.97540 0.35880 0.03000
H 	H 	0.61620 0.03640 0.35040 0.03000
H 	H 	0.58480 0.00950 0.41960 0.02300
C 	C 	0.51090 0.74265 0.92840 -0.05000
H 	H 	0.49880 0.73310 0.86560 0.03600
C 	C 	0.83220 0.27980 0.36160 0.27000
H 	H 	0.81750 0.30920 0.38810 -0.05600
C 	C 	0.79820 0.24000 0.33740 0.22500
H 	H 	0.76180 0.24260 0.34840 -0.04600
C 	C 	0.87260 0.19570 0.28240 -0.09100
H 	H 	0.88780 0.16660 0.25580 0.04600
C 	C 	0.90340 0.23840 0.30790 -0.00400
H 	H 	0.93960 0.23850 0.29500 0.02600
C 	C 	0.73170 0.15050 0.30310 -0.12000
H 	H 	0.72050 0.17430 0.34330 0.06700
C 	C 	0.45890 0.67590 0.98760 0.02100
C 	C 	0.46720 0.63750 0.92580 -0.05800
H 	H 	0.49460 0.64220 0.88790 0.06700
C 	C 	0.43410 0.59210 0.92130 0.00400
H 	H 	0.43950 0.56680 0.88050 0.02100
N 	N 	0.39270 0.58500 0.97860 0.07900
C 	C 	0.38440 0.62340 0.04040 -0.01200
H 	H 	0.35710 0.61870 0.07830 0.28000
C 	C 	0.41750 0.66880 0.04490 -0.00000
H 	H 	0.41210 0.69410 0.08570 0.16300
C 	C 	0.84080 0.26470 0.39470 -0.23800
H 	H 	0.83430 0.28200 0.44400 0.08500
C 	C 	0.80730 0.22590 0.37060 -0.31400
H 	H 	0.77740 0.21770 0.40200 0.12000
C 	C 	0.86000 0.21300 0.25760 0.00200
H 	H 	0.86860 0.19590 0.20880 0.02300
C 	C 	0.89180 0.25280 0.28530 0.02800
H 	H 	0.92190 0.26130 0.25450 0.00600
C 	C 	0.45040 0.67770 0.03450 -0.00400
C 	C 	0.45600 0.64380 0.09580 -0.03800
H 	H 	0.48320 0.64880 0.13380 -0.01500
C 	C 	0.42310 0.60290 0.10320 0.03500
H 	H 	0.42700 0.57910 0.14640 -0.00400
N 	N 	0.38440 0.59590 0.04940 -0.29300
C 	C 	0.37880 0.62970 0.98800 0.16700
H 	H 	0.35160 0.62480 0.95010 -0.20500
C 	C 	0.41170 0.67060 0.98060 -0.04200
H 	H 	0.40770 0.69450 0.93740 -0.12000
H 	H 	0.76370 0.96440 0.94490 0.03000
H 	H 	0.75810 0.99010 0.03180 0.04100
H 	H 	0.77130 0.92920 0.02330 0.04200
Co	Co	0.43271 0.16047 0.40036 1.18200
Co	Co	0.49693 0.06336 0.31171 1.16200
O 	O 	0.49690 0.19412 0.34462 -0.42900
O 	O 	0.54609 0.12630 0.30232 -0.42800
O 	O 	0.48049 0.08964 0.43299 -0.55200
O 	O 	0.43065 0.11276 0.29717 -0.57100
O 	O 	0.50303 0.05084 0.18598 -0.56800
O 	O 	0.36657 0.11839 0.43279 -0.43100
N 	N 	0.77955 0.38364 0.14974 -0.21600
C 	C 	0.65497 0.28199 0.22800 0.05200
C 	C 	0.61230 0.19780 0.22300 0.05100
H 	H 	0.60500 0.16810 0.19290 0.02500
C 	C 	0.57705 0.21241 0.28100 -0.13000
C 	C 	0.61900 0.29671 0.28470 -0.12000
H 	H 	0.62080 0.33090 0.30690 0.06300
C 	C 	0.69798 0.31733 0.20170 -0.01000
C 	C 	0.28389 0.04707 0.57190 -0.00400
H 	H 	0.29780 0.05910 0.62130 0.03700
C 	C 	0.57980 0.26247 0.31050 0.04500
H 	H 	0.55550 0.27370 0.34820 0.02000
C 	C 	0.53634 0.17462 0.31178 0.37900
C 	C 	0.50635 0.09582 0.13510 -0.00800
H 	H 	0.47540 0.11670 0.14120 0.03000
H 	H 	0.53640 0.11620 0.14960 0.03000
H 	H 	0.50950 0.08480 0.08040 0.02200
C 	C 	0.24265 0.01090 0.57160 -0.05200
H 	H 	0.23310 0.99880 0.63440 0.03600
C 	C 	0.77980 0.33220 0.13840 0.27300
H 	H 	0.80920 0.31750 0.11190 -0.05800
C 	C 	0.74000 0.29820 0.16260 0.22900
H 	H 	0.74260 0.26180 0.15160 -0.04700
C 	C 	0.69570 0.37260 0.21760 -0.09200
H 	H 	0.66660 0.38780 0.24420 0.04600
C 	C 	0.73840 0.40340 0.19210 -0.00500
H 	H 	0.73850 0.43960 0.20500 0.02600
C 	C 	0.65050 0.23170 0.19690 -0.12000
H 	H 	0.67430 0.22050 0.15670 0.06700
C 	C 	0.17590 0.95890 0.51240 0.02200
C 	C 	0.13750 0.96720 0.57420 -0.05700
H 	H 	0.14220 0.99460 0.61210 0.06600
C 	C 	0.09210 0.93410 0.57870 0.00300
H 	H 	0.06680 0.93950 0.61950 0.02200
N 	N 	0.08500 0.89270 0.52140 0.07700
C 	C 	0.12340 0.88440 0.45960 -0.01600
H 	H 	0.11870 0.85710 0.42170 0.27700
C 	C 	0.16880 0.91750 0.45510 0.00200
H 	H 	0.19410 0.91210 0.41430 0.16000
C 	C 	0.76470 0.34080 0.10530 -0.24100
H 	H 	0.78200 0.33430 0.05600 0.08500
C 	C 	0.72590 0.30730 0.12940 -0.31700
H 	H 	0.71770 0.27740 0.09800 0.12100
C 	C 	0.71300 0.36000 0.24240 0.00300
H 	H 	0.69590 0.36860 0.29120 0.02300
C 	C 	0.75280 0.39180 0.21470 0.02900
H 	H 	0.76130 0.42190 0.24550 0.00600
C 	C 	0.17770 0.95040 0.46550 -0.00200
C 	C 	0.14380 0.95600 0.40420 -0.03800
H 	H 	0.14880 0.98320 0.36620 -0.01500
C 	C 	0.10290 0.92310 0.39680 0.03500
H 	H 	0.07910 0.92700 0.35360 -0.00300
N 	N 	0.09590 0.88440 0.45060 -0.29200
C 	C 	0.12970 0.87880 0.51200 0.17000
H 	H 	0.12480 0.85160 0.54990 -0.20900
C 	C 	0.17060 0.91170 0.51940 -0.04100
H 	H 	0.19450 0.90770 0.56260 -0.12100
H 	H 	0.46440 0.26370 0.55510 0.02800
H 	H 	0.49010 0.25810 0.46820 0.04000
H 	H 	0.42920 0.27130 0.47670 0.04100
Co	Co	0.56729 0.83953 0.40036 1.18200
Co	Co	0.50307 0.93664 0.31171 1.16200
O 	O 	0.50310 0.80588 0.34462 -0.42900
O 	O 	0.45391 0.87370 0.30232 -0.42800
O 	O 	0.51951 0.91036 0.43299 -0.55200
O 	O 	0.56935 0.88724 0.29717 -0.57100
O 	O 	0.49697 0.94916 0.18598 -0.56800
O 	O 	0.63343 0.88161 0.43279 -0.43100
N 	N 	0.22045 0.61636 0.14974 -0.21600
C 	C 	0.34503 0.71801 0.22800 0.05200
C 	C 	0.38770 0.80220 0.22300 0.05100
H 	H 	0.39500 0.83190 0.19290 0.02500
C 	C 	0.42295 0.78759 0.28100 -0.13000
C 	C 	0.38100 0.70329 0.28470 -0.12000
H 	H 	0.37920 0.66910 0.30690 0.06300
C 	C 	0.30202 0.68267 0.20170 -0.01000
C 	C 	0.71611 0.95293 0.57190 -0.00400
H 	H 	0.70220 0.94090 0.62130 0.03700
C 	C 	0.42020 0.73753 0.31050 0.04500
H 	H 	0.44450 0.72630 0.34820 0.02000
C 	C 	0.46366 0.82538 0.31178 0.37900
C 	C 	0.49365 0.90418 0.13510 -0.00800
H 	H 	0.52460 0.88330 0.14120 0.03000
H 	H 	0.46360 0.88380 0.14960 0.03000
H 	H 	0.49050 0.91520 0.08040 0.02200
C 	C 	0.75735 0.98910 0.57160 -0.05200
H 	H 	0.76690 0.00120 0.63440 0.03600
C 	C 	0.22020 0.66780 0.13840 0.27300
H 	H 	0.19080 0.68250 0.11190 -0.05800
C 	C 	0.26000 0.70180 0.16260 0.22900
H 	H 	0.25740 0.73820 0.15160 -0.04700
C 	C 	0.30430 0.62740 0.21760 -0.09200
H 	H 	0.33340 0.61220 0.24420 0.04600
C 	C 	0.26160 0.59660 0.19210 -0.00500
H 	H 	0.26150 0.56040 0.20500 0.02600
C 	C 	0.34950 0.76830 0.19690 -0.12000
H 	H 	0.32570 0.77950 0.15670 0.06700
C 	C 	0.82410 0.04110 0.51240 0.02200
C 	C 	0.86250 0.03280 0.57420 -0.05700
H 	H 	0.85780 0.00540 0.61210 0.06600
C 	C 	0.90790 0.06590 0.57870 0.00300
H 	H 	0.93320 0.06050 0.61950 0.02200
N 	N 	0.91500 0.10730 0.52140 0.07700
C 	C 	0.87660 0.11560 0.45960 -0.01600
H 	H 	0.88130 0.14290 0.42170 0.27700
C 	C 	0.83120 0.08250 0.45510 0.00200
H 	H 	0.80590 0.08790 0.41430 0.16000
C 	C 	0.23530 0.65920 0.10530 -0.24100
H 	H 	0.21800 0.66570 0.05600 0.08500
C 	C 	0.27410 0.69270 0.12940 -0.31700
H 	H 	0.28230 0.72260 0.09800 0.12100
C 	C 	0.28700 0.64000 0.24240 0.00300
H 	H 	0.30410 0.63140 0.29120 0.02300
C 	C 	0.24720 0.60820 0.21470 0.02900
H 	H 	0.23870 0.57810 0.24550 0.00600
C 	C 	0.82230 0.04960 0.46550 -0.00200
C 	C 	0.85620 0.04400 0.40420 -0.03800
H 	H 	0.85120 0.01680 0.36620 -0.01500
C 	C 	0.89710 0.07690 0.39680 0.03500
H 	H 	0.92090 0.07300 0.35360 -0.00300
N 	N 	0.90410 0.11560 0.45060 -0.29200
C 	C 	0.87030 0.12120 0.51200 0.17000
H 	H 	0.87520 0.14840 0.54990 -0.20900
C 	C 	0.82940 0.08830 0.51940 -0.04100
H 	H 	0.80550 0.09230 0.56260 -0.12100
H 	H 	0.53560 0.73630 0.55510 0.02800
H 	H 	0.50990 0.74190 0.46820 0.04000
H 	H 	0.57080 0.72870 0.47670 0.04100
Co	Co	0.16047 0.56729 0.90036 1.18200
Co	Co	0.06336 0.50307 0.81171 1.16200
O 	O 	0.19412 0.50310 0.84462 -0.42900
O 	O 	0.12630 0.45391 0.80232 -0.42800
O 	O 	0.08964 0.51951 0.93299 -0.55100
O 	O 	0.11276 0.56935 0.79717 -0.57100
O 	O 	0.05084 0.49697 0.68598 -0.56800
O 	O 	0.11839 0.63343 0.93279 -0.43000
N 	N 	0.38364 0.22045 0.64974 -0.21600
C 	C 	0.28199 0.34503 0.72800 0.05200
C 	C 	0.19780 0.38770 0.72300 0.05100
H 	H 	0.16810 0.39500 0.69290 0.02500
C 	C 	0.21241 0.42295 0.78100 -0.13000
C 	C 	0.29671 0.38100 0.78470 -0.12000
H 	H 	0.33090 0.37920 0.80690 0.06300
C 	C 	0.31733 0.30202 0.70170 -0.01000
C 	C 	0.04707 0.71611 0.07190 -0.00400
H 	H 	0.05910 0.70220 0.12130 0.03700
C 	C 	0.26247 0.42020 0.81050 0.04600
H 	H 	0.27370 0.44450 0.84820 0.02000
C 	C 	0.17462 0.46366 0.81178 0.38000
C 	C 	0.09582 0.49365 0.63510 -0.00800
H 	H 	0.11670 0.52460 0.64120 0.03000
H 	H 	0.11620 0.46360 0.64960 0.03000
H 	H 	0.08480 0.49050 0.58040 0.02300
C 	C 	0.01090 0.75735 0.07160 -0.05100
H 	H 	0.99880 0.76690 0.13440 0.03600
C 	C 	0.33220 0.22020 0.63840 0.27100
H 	H 	0.31750 0.19080 0.61190 -0.05700
C 	C 	0.29820 0.26000 0.66260 0.22600
H 	H 	0.26180 0.25740 0.65160 -0.04600
C 	C 	0.37260 0.30430 0.71760 -0.09200
H 	H 	0.38780 0.33340 0.74420 0.04600
C 	C 	0.40340 0.26160 0.69210 -0.00400
H 	H 	0.43960 0.26150 0.70500 0.02600
C 	C 	0.23170 0.34950 0.69690 -0.12000
H 	H 	0.22050 0.32570 0.65670 0.06700
C 	C 	0.95890 0.82410 0.01240 0.02400
C 	C 	0.96720 0.86250 0.07420 -0.05700
H 	H 	0.99460 0.85780 0.11210 0.06600
C 	C 	0.93410 0.90790 0.07870 0.00100
H 	H 	0.93950 0.93320 0.11950 0.02200
N 	N 	0.89270 0.91500 0.02140 0.07500
C 	C 	0.88440 0.87660 0.95960 -0.02000
H 	H 	0.85710 0.88130 0.92170 0.27500
C 	C 	0.91750 0.83120 0.95510 0.00400
H 	H 	0.91210 0.80590 0.91430 0.15800
C 	C 	0.34080 0.23530 0.60530 -0.23900
H 	H 	0.33430 0.21800 0.55600 0.08500
C 	C 	0.30730 0.27410 0.62940 -0.31500
H 	H 	0.27740 0.28230 0.59800 0.12000
C 	C 	0.36000 0.28700 0.74240 0.00200
H 	H 	0.36860 0.30410 0.79120 0.02400
C 	C 	0.39180 0.24720 0.71470 0.02900
H 	H 	0.42190 0.23870 0.74550 0.00600
C 	C 	0.95040 0.82230 0.96550 0.00000
C 	C 	0.95600 0.85620 0.90420 -0.03900
H 	H 	0.98320 0.85120 0.86620 -0.01500
C 	C 	0.92310 0.89710 0.89680 0.03500
H 	H 	0.92700 0.92090 0.85360 -0.00300
N 	N 	0.88440 0.90410 0.95060 -0.29100
C 	C 	0.87880 0.87030 0.01200 0.17400
H 	H 	0.85160 0.87520 0.04990 -0.21400
C 	C 	0.91170 0.82940 0.01940 -0.04100
H 	H 	0.90770 0.80550 0.06260 -0.12400
H 	H 	0.26370 0.53560 0.05510 0.03100
H 	H 	0.25810 0.50990 0.96820 0.04300
H 	H 	0.27130 0.57080 0.97670 0.04500
Co	Co	0.83953 0.43271 0.90036 1.18200
Co	Co	0.93664 0.49693 0.81171 1.16200
O 	O 	0.80588 0.49690 0.84462 -0.42900
O 	O 	0.87370 0.54609 0.80232 -0.42800
O 	O 	0.91036 0.48049 0.93299 -0.55100
O 	O 	0.88724 0.43065 0.79717 -0.57100
O 	O 	0.94916 0.50303 0.68598 -0.56800
O 	O 	0.88161 0.36657 0.93279 -0.43000
N 	N 	0.61636 0.77955 0.64974 -0.21600
C 	C 	0.71801 0.65497 0.72800 0.05200
C 	C 	0.80220 0.61230 0.72300 0.05100
H 	H 	0.83190 0.60500 0.69290 0.02500
C 	C 	0.78759 0.57705 0.78100 -0.13000
C 	C 	0.70329 0.61900 0.78470 -0.12000
H 	H 	0.66910 0.62080 0.80690 0.06300
C 	C 	0.68267 0.69798 0.70170 -0.01000
C 	C 	0.95293 0.28389 0.07190 -0.00400
H 	H 	0.94090 0.29780 0.12130 0.03700
C 	C 	0.73753 0.57980 0.81050 0.04600
H 	H 	0.72630 0.55550 0.84820 0.02000
C 	C 	0.82538 0.53634 0.81178 0.38000
C 	C 	0.90418 0.50635 0.63510 -0.00800
H 	H 	0.88330 0.47540 0.64120 0.03000
H 	H 	0.88380 0.53640 0.64960 0.03000
H 	H 	0.91520 0.50950 0.58040 0.02300
C 	C 	0.98910 0.24265 0.07160 -0.05100
H 	H 	0.00120 0.23310 0.13440 0.03600
C 	C 	0.66780 0.77980 0.63840 0.27100
H 	H 	0.68250 0.80920 0.61190 -0.05700
C 	C 	0.70180 0.74000 0.66260 0.22600
H 	H 	0.73820 0.74260 0.65160 -0.04600
C 	C 	0.62740 0.69570 0.71760 -0.09200
H 	H 	0.61220 0.66660 0.74420 0.04600
C 	C 	0.59660 0.73840 0.69210 -0.00400
H 	H 	0.56040 0.73850 0.70500 0.02600
C 	C 	0.76830 0.65050 0.69690 -0.12000
H 	H 	0.77950 0.67430 0.65670 0.06700
C 	C 	0.04110 0.17590 0.01240 0.02400
C 	C 	0.03280 0.13750 0.07420 -0.05700
H 	H 	0.00540 0.14220 0.11210 0.06600
C 	C 	0.06590 0.09210 0.07870 0.00100
H 	H 	0.06050 0.06680 0.11950 0.02200
N 	N 	0.10730 0.08500 0.02140 0.07500
C 	C 	0.11560 0.12340 0.95960 -0.02000
H 	H 	0.14290 0.11870 0.92170 0.27500
C 	C 	0.08250 0.16880 0.95510 0.00400
H 	H 	0.08790 0.19410 0.91430 0.15800
C 	C 	0.65920 0.76470 0.60530 -0.23900
H 	H 	0.66570 0.78200 0.55600 0.08500
C 	C 	0.69270 0.72590 0.62940 -0.31500
H 	H 	0.72260 0.71770 0.59800 0.12000
C 	C 	0.64000 0.71300 0.74240 0.00200
H 	H 	0.63140 0.69590 0.79120 0.02400
C 	C 	0.60820 0.75280 0.71470 0.02900
H 	H 	0.57810 0.76130 0.74550 0.00600
C 	C 	0.04960 0.17770 0.96550 0.00000
C 	C 	0.04400 0.14380 0.90420 -0.03900
H 	H 	0.01680 0.14880 0.86620 -0.01500
C 	C 	0.07690 0.10290 0.89680 0.03500
H 	H 	0.07300 0.07910 0.85360 -0.00300
N 	N 	0.11560 0.09590 0.95060 -0.29100
C 	C 	0.12120 0.12970 0.01200 0.17400
H 	H 	0.14840 0.12480 0.04990 -0.21400
C 	C 	0.08830 0.17060 0.01940 -0.04100
H 	H 	0.09230 0.19450 0.06260 -0.12400
H 	H 	0.73630 0.46440 0.05510 0.03100
H 	H 	0.74190 0.49010 0.96820 0.04300
H 	H 	0.72870 0.42920 0.97670 0.04500
Co	Co	0.93271 0.33953 0.40036 1.18200
Co	Co	0.99693 0.43664 0.31171 1.16200
O 	O 	0.99690 0.30588 0.34462 -0.42900
O 	O 	0.04609 0.37370 0.30232 -0.42800
O 	O 	0.98049 0.41036 0.43299 -0.55200
O 	O 	0.93065 0.38724 0.29717 -0.57100
O 	O 	0.00303 0.44916 0.18598 -0.56800
O 	O 	0.86657 0.38161 0.43279 -0.43100
N 	N 	0.27955 0.11636 0.14974 -0.21600
C 	C 	0.15497 0.21801 0.22800 0.05200
C 	C 	0.11230 0.30220 0.22300 0.05100
H 	H 	0.10500 0.33190 0.19290 0.02500
C 	C 	0.07705 0.28759 0.28100 -0.13000
C 	C 	0.11900 0.20329 0.28470 -0.12000
H 	H 	0.12080 0.16910 0.30690 0.06300
C 	C 	0.19798 0.18267 0.20170 -0.01000
C 	C 	0.78389 0.45293 0.57190 -0.00400
H 	H 	0.79780 0.44090 0.62130 0.03700
C 	C 	0.07980 0.23753 0.31050 0.04500
H 	H 	0.05550 0.22630 0.34820 0.02100
C 	C 	0.03634 0.32538 0.31178 0.37900
C 	C 	0.00635 0.40418 0.13510 -0.00800
H 	H 	0.97540 0.38330 0.14120 0.03000
H 	H 	0.03640 0.38380 0.14960 0.03000
H 	H 	0.00950 0.41520 0.08040 0.02200
C 	C 	0.74265 0.48910 0.57160 -0.05200
H 	H 	0.73310 0.50120 0.63440 0.03600
C 	C 	0.27980 0.16780 0.13840 0.27300
H 	H 	0.30920 0.18250 0.11190 -0.05800
C 	C 	0.24000 0.20180 0.16260 0.22900
H 	H 	0.24260 0.23820 0.15160 -0.04700
C 	C 	0.19570 0.12740 0.21760 -0.09200
H 	H 	0.16660 0.11220 0.24420 0.04600
C 	C 	0.23840 0.09660 0.19210 -0.00500
H 	H 	0.23850 0.06040 0.20500 0.02600
C 	C 	0.15050 0.26830 0.19690 -0.12000
H 	H 	0.17430 0.27950 0.15670 0.06700
C 	C 	0.67590 0.54110 0.51240 0.02200
C 	C 	0.63750 0.53280 0.57420 -0.05700
H 	H 	0.64220 0.50540 0.61210 0.06600
C 	C 	0.59210 0.56590 0.57870 0.00300
H 	H 	0.56680 0.56050 0.61950 0.02200
N 	N 	0.58500 0.60730 0.52140 0.07700
C 	C 	0.62340 0.61560 0.45960 -0.01600
H 	H 	0.61870 0.64290 0.42170 0.27700
C 	C 	0.66880 0.58250 0.45510 0.00200
H 	H 	0.69410 0.58790 0.41430 0.16000
C 	C 	0.26470 0.15920 0.10530 -0.24100
H 	H 	0.28200 0.16570 0.05600 0.08500
C 	C 	0.22590 0.19270 0.12940 -0.31700
H 	H 	0.21770 0.22260 0.09800 0.12100
C 	C 	0.21300 0.14000 0.24240 0.00300
H 	H 	0.19590 0.13140 0.29120 0.02300
C 	C 	0.25280 0.10820 0.21470 0.02900
H 	H 	0.26130 0.07810 0.24550 0.00600
C 	C 	0.67770 0.54960 0.46550 -0.00200
C 	C 	0.64380 0.54400 0.40420 -0.03800
H 	H 	0.64880 0.51680 0.36620 -0.01500
C 	C 	0.60290 0.57690 0.39680 0.03500
H 	H 	0.57910 0.57300 0.35360 -0.00300
N 	N 	0.59590 0.61560 0.45060 -0.29200
C 	C 	0.62970 0.62120 0.51200 0.17000
H 	H 	0.62480 0.64840 0.54990 -0.20900
C 	C 	0.67060 0.58830 0.51940 -0.04100
H 	H 	0.69450 0.59230 0.56260 -0.12100
H 	H 	0.96440 0.23630 0.55510 0.02800
H 	H 	0.99010 0.24190 0.46820 0.04000
H 	H 	0.92920 0.22870 0.47670 0.04100
Co	Co	0.06729 0.66047 0.40036 1.18200
Co	Co	0.00307 0.56336 0.31171 1.16200
O 	O 	0.00310 0.69412 0.34462 -0.42900
O 	O 	0.95391 0.62630 0.30232 -0.42800
O 	O 	0.01951 0.58964 0.43299 -0.55200
O 	O 	0.06935 0.61276 0.29717 -0.57100
O 	O 	0.99697 0.55084 0.18598 -0.56800
O 	O 	0.13343 0.61839 0.43279 -0.43100
N 	N 	0.72045 0.88364 0.14974 -0.21600
C 	C 	0.84503 0.78199 0.22800 0.05200
C 	C 	0.88770 0.69780 0.22300 0.05100
H 	H 	0.89500 0.66810 0.19290 0.02500
C 	C 	0.92295 0.71241 0.28100 -0.13000
C 	C 	0.88100 0.79671 0.28470 -0.12000
H 	H 	0.87920 0.83090 0.30690 0.06300
C 	C 	0.80202 0.81733 0.20170 -0.01000
C 	C 	0.21611 0.54707 0.57190 -0.00400
H 	H 	0.20220 0.55910 0.62130 0.03700
C 	C 	0.92020 0.76247 0.31050 0.04500
H 	H 	0.94450 0.77370 0.34820 0.02100
C 	C 	0.96366 0.67462 0.31178 0.37900
C 	C 	0.99365 0.59582 0.13510 -0.00800
H 	H 	0.02460 0.61670 0.14120 0.03000
H 	H 	0.96360 0.61620 0.14960 0.03000
H 	H 	0.99050 0.58480 0.08040 0.02200
C 	C 	0.25735 0.51090 0.57160 -0.05200
H 	H 	0.26690 0.49880 0.63440 0.03600
C 	C 	0.72020 0.83220 0.13840 0.27300
H 	H 	0.69080 0.81750 0.11190 -0.05800
C 	C 	0.76000 0.79820 0.16260 0.22900
H 	H 	0.75740 0.76180 0.15160 -0.04700
C 	C 	0.80430 0.87260 0.21760 -0.09200
H 	H 	0.83340 0.88780 0.24420 0.04600
C 	C 	0.76160 0.90340 0.19210 -0.00500
H 	H 	0.76150 0.93960 0.20500 0.02600
C 	C 	0.84950 0.73170 0.19690 -0.12000
H 	H 	0.82570 0.72050 0.15670 0.06700
C 	C 	0.32410 0.45890 0.51240 0.02200
C 	C 	0.36250 0.46720 0.57420 -0.05700
H 	H 	0.35780 0.49460 0.61210 0.06600
C 	C 	0.40790 0.43410 0.57870 0.00300
H 	H 	0.43320 0.43950 0.61950 0.02200
N 	N 	0.41500 0.39270 0.52140 0.07700
C 	C 	0.37660 0.38440 0.45960 -0.01600
H 	H 	0.38130 0.35710 0.42170 0.27700
C 	C 	0.33120 0.41750 0.45510 0.00200
H 	H 	0.30590 0.41210 0.41430 0.16000
C 	C 	0.73530 0.84080 0.10530 -0.24100
H 	H 	0.71800 0.83430 0.05600 0.08500
C 	C 	0.77410 0.80730 0.12940 -0.31700
H 	H 	0.78230 0.77740 0.09800 0.12100
C 	C 	0.78700 0.86000 0.24240 0.00300
H 	H 	0.80410 0.86860 0.29120 0.02300
C 	C 	0.74720 0.89180 0.21470 0.02900
H 	H 	0.73870 0.92190 0.24550 0.00600
C 	C 	0.32230 0.45040 0.46550 -0.00200
C 	C 	0.35620 0.45600 0.40420 -0.03800
H 	H 	0.35120 0.48320 0.36620 -0.01500
C 	C 	0.39710 0.42310 0.39680 0.03500
H 	H 	0.42090 0.42700 0.35360 -0.00300
N 	N 	0.40410 0.38440 0.45060 -0.29200
C 	C 	0.37030 0.37880 0.51200 0.17000
H 	H 	0.37520 0.35160 0.54990 -0.20900
C 	C 	0.32940 0.41170 0.51940 -0.04100
H 	H 	0.30550 0.40770 0.56260 -0.12100
H 	H 	0.03560 0.76370 0.55510 0.02800
H 	H 	0.00990 0.75810 0.46820 0.04000
H 	H 	0.07080 0.77130 0.47670 0.04100
Co	Co	0.66047 0.93271 0.90036 1.18200
Co	Co	0.56336 0.99693 0.81171 1.16200
O 	O 	0.69412 0.99690 0.84462 -0.42900
O 	O 	0.62630 0.04609 0.80232 -0.42800
O 	O 	0.58964 0.98049 0.93299 -0.55100
O 	O 	0.61276 0.93065 0.79717 -0.57100
O 	O 	0.55084 0.00303 0.68598 -0.56800
O 	O 	0.61839 0.86657 0.93279 -0.43000
N 	N 	0.88364 0.27955 0.64974 -0.21600
C 	C 	0.78199 0.15497 0.72800 0.05200
C 	C 	0.69780 0.11230 0.72300 0.05100
H 	H 	0.66810 0.10500 0.69290 0.02500
C 	C 	0.71241 0.07705 0.78100 -0.13000
C 	C 	0.79671 0.11900 0.78470 -0.12000
H 	H 	0.83090 0.12080 0.80690 0.06300
C 	C 	0.81733 0.19798 0.70170 -0.01000
C 	C 	0.54707 0.78389 0.07190 -0.00400
H 	H 	0.55910 0.79780 0.12130 0.03700
C 	C 	0.76247 0.07980 0.81050 0.04600
H 	H 	0.77370 0.05550 0.84820 0.02000
C 	C 	0.67462 0.03634 0.81178 0.38000
C 	C 	0.59582 0.00635 0.63510 -0.00800
H 	H 	0.61670 0.97540 0.64120 0.03000
H 	H 	0.61620 0.03640 0.64960 0.03000
H 	H 	0.58480 0.00950 0.58040 0.02300
C 	C 	0.51090 0.74265 0.07160 -0.05100
H 	H 	0.49880 0.73310 0.13440 0.03600
C 	C 	0.83220 0.27980 0.63840 0.27100
H 	H 	0.81750 0.30920 0.61190 -0.05700
C 	C 	0.79820 0.24000 0.66260 0.22600
H 	H 	0.76180 0.24260 0.65160 -0.04600
C 	C 	0.87260 0.19570 0.71760 -0.09200
H 	H 	0.88780 0.16660 0.74420 0.04600
C 	C 	0.90340 0.23840 0.69210 -0.00400
H 	H 	0.93960 0.23850 0.70500 0.02600
C 	C 	0.73170 0.15050 0.69690 -0.12000
H 	H 	0.72050 0.17430 0.65670 0.06700
C 	C 	0.45890 0.67590 0.01240 0.02400
C 	C 	0.46720 0.63750 0.07420 -0.05700
H 	H 	0.49460 0.64220 0.11210 0.06600
C 	C 	0.43410 0.59210 0.07870 0.00100
H 	H 	0.43950 0.56680 0.11950 0.02200
N 	N 	0.39270 0.58500 0.02140 0.07500
C 	C 	0.38440 0.62340 0.95960 -0.02000
H 	H 	0.35710 0.61870 0.92170 0.27500
C 	C 	0.41750 0.66880 0.95510 0.00500
H 	H 	0.41210 0.69410 0.91430 0.15800
C 	C 	0.84080 0.26470 0.60530 -0.23900
H 	H 	0.83430 0.28200 0.55600 0.08500
C 	C 	0.80730 0.22590 0.62940 -0.31500
H 	H 	0.77740 0.21770 0.59800 0.12000
C 	C 	0.86000 0.21300 0.74240 0.00200
H 	H 	0.86860 0.19590 0.79120 0.02400
C 	C 	0.89180 0.25280 0.71470 0.02900
H 	H 	0.92190 0.26130 0.74550 0.00600
C 	C 	0.45040 0.67770 0.96550 0.00100
C 	C 	0.45600 0.64380 0.90420 -0.03900
H 	H 	0.48320 0.64880 0.86620 -0.01500
C 	C 	0.42310 0.60290 0.89680 0.03500
H 	H 	0.42700 0.57910 0.85360 -0.00300
N 	N 	0.38440 0.59590 0.95060 -0.29100
C 	C 	0.37880 0.62970 0.01200 0.17400
H 	H 	0.35160 0.62480 0.04990 -0.21400
C 	C 	0.41170 0.67060 0.01940 -0.04100
H 	H 	0.40770 0.69450 0.06260 -0.12400
H 	H 	0.76370 0.96440 0.05510 0.03100
H 	H 	0.75810 0.99010 0.96820 0.04300
H 	H 	0.77130 0.92920 0.97670 0.04500
Co	Co	0.33953 0.06729 0.90036 1.18200
Co	Co	0.43664 0.00307 0.81171 1.16200
O 	O 	0.30588 0.00310 0.84462 -0.42900
O 	O 	0.37370 0.95391 0.80232 -0.42800
O 	O 	0.41036 0.01951 0.93299 -0.55100
O 	O 	0.38724 0.06935 0.79717 -0.57100
O 	O 	0.44916 0.99697 0.68598 -0.56800
O 	O 	0.38161 0.13343 0.93279 -0.43000
N 	N 	0.11636 0.72045 0.64974 -0.21600
C 	C 	0.21801 0.84503 0.72800 0.05200
C 	C 	0.30220 0.88770 0.72300 0.05100
H 	H 	0.33190 0.89500 0.69290 0.02500
C 	C 	0.28759 0.92295 0.78100 -0.13000
C 	C 	0.20329 0.88100 0.78470 -0.12000
H 	H 	0.16910 0.87920 0.80690 0.06300
C 	C 	0.18267 0.80202 0.70170 -0.01000
C 	C 	0.45293 0.21611 0.07190 -0.00400
H 	H 	0.44090 0.20220 0.12130 0.03700
C 	C 	0.23753 0.92020 0.81050 0.04600
H 	H 	0.22630 0.94450 0.84820 0.02000
C 	C 	0.32538 0.96366 0.81178 0.38000
C 	C 	0.40418 0.99365 0.63510 -0.00800
H 	H 	0.38330 0.02460 0.64120 0.03000
H 	H 	0.38380 0.96360 0.64960 0.03000
H 	H 	0.41520 0.99050 0.58040 0.02300
C 	C 	0.48910 0.25735 0.07160 -0.05100
H 	H 	0.50120 0.26690 0.13440 0.03600
C 	C 	0.16780 0.72020 0.63840 0.27100
H 	H 	0.18250 0.69080 0.61190 -0.05700
C 	C 	0.20180 0.76000 0.66260 0.22600
H 	H 	0.23820 0.75740 0.65160 -0.04600
C 	C 	0.12740 0.80430 0.71760 -0.09200
H 	H 	0.11220 0.83340 0.74420 0.04600
C 	C 	0.09660 0.76160 0.69210 -0.00400
H 	H 	0.06040 0.76150 0.70500 0.02600
C 	C 	0.26830 0.84950 0.69690 -0.12000
H 	H 	0.27950 0.82570 0.65670 0.06700
C 	C 	0.54110 0.32410 0.01240 0.02400
C 	C 	0.53280 0.36250 0.07420 -0.05700
H 	H 	0.50540 0.35780 0.11210 0.06600
C 	C 	0.56590 0.40790 0.07870 0.00100
H 	H 	0.56050 0.43320 0.11950 0.02200
N 	N 	0.60730 0.41500 0.02140 0.07500
C 	C 	0.61560 0.37660 0.95960 -0.02000
H 	H 	0.64290 0.38130 0.92170 0.27500
C 	C 	0.58250 0.33120 0.95510 0.00500
H 	H 	0.58790 0.30590 0.91430 0.15800
C 	C 	0.15920 0.73530 0.60530 -0.23900
H 	H 	0.16570 0.71800 0.55600 0.08500
C 	C 	0.19270 0.77410 0.62940 -0.31500
H 	H 	0.22260 0.78230 0.59800 0.12000
C 	C 	0.14000 0.78700 0.74240 0.00200
H 	H 	0.13140 0.80410 0.79120 0.02400
C 	C 	0.10820 0.74720 0.71470 0.02900
H 	H 	0.07810 0.73870 0.74550 0.00600
C 	C 	0.54960 0.32230 0.96550 0.00100
C 	C 	0.54400 0.35620 0.90420 -0.03900
H 	H 	0.51680 0.35120 0.86620 -0.01500
C 	C 	0.57690 0.39710 0.89680 0.03500
H 	H 	0.57300 0.42090 0.85360 -0.00300
N 	N 	0.61560 0.40410 0.95060 -0.29100
C 	C 	0.62120 0.37030 0.01200 0.17400
H 	H 	0.64840 0.37520 0.04990 -0.21400
C 	C 	0.58830 0.32940 0.01940 -0.04100
H 	H 	0.59230 0.30550 0.06260 -0.12400
H 	H 	0.23630 0.03560 0.05510 0.03100
H 	H 	0.24190 0.00990 0.96820 0.04300
H 	H 	0.22870 0.07080 0.97670 0.04500
Co	Co	0.56729 0.83953 0.59964 1.18200
Co	Co	0.50307 0.93664 0.68829 1.16200
O 	O 	0.50310 0.80588 0.65538 -0.42900
O 	O 	0.45391 0.87370 0.69768 -0.42800
O 	O 	0.51951 0.91036 0.56701 -0.55200
O 	O 	0.56935 0.88724 0.70283 -0.57100
O 	O 	0.49697 0.94916 0.81402 -0.56800
O 	O 	0.63343 0.88161 0.56721 -0.43100
N 	N 	0.22045 0.61636 0.85026 -0.21600
C 	C 	0.34503 0.71801 0.77200 0.05200
C 	C 	0.38770 0.80220 0.77700 0.05100
H 	H 	0.39500 0.83190 0.80710 0.02500
C 	C 	0.42295 0.78759 0.71900 -0.13000
C 	C 	0.38100 0.70329 0.71530 -0.12000
H 	H 	0.37920 0.66910 0.69310 0.06300
C 	C 	0.30202 0.68267 0.79830 -0.01000
C 	C 	0.71611 0.95293 0.42810 -0.00400
H 	H 	0.70220 0.94090 0.37870 0.03700
C 	C 	0.42020 0.73753 0.68950 0.04500
H 	H 	0.44450 0.72630 0.65180 0.02100
C 	C 	0.46366 0.82538 0.68822 0.37900
C 	C 	0.49365 0.90418 0.86490 -0.00900
H 	H 	0.52460 0.88330 0.85880 0.03000
H 	H 	0.46360 0.88380 0.85040 0.03100
H 	H 	0.49050 0.91520 0.91960 0.02300
C 	C 	0.75735 0.98910 0.42840 -0.05200
H 	H 	0.76690 0.00120 0.36560 0.03600
C 	C 	0.22020 0.66780 0.86160 0.27100
H 	H 	0.19080 0.68250 0.88810 -0.05700
C 	C 	0.26000 0.70180 0.83740 0.22700
H 	H 	0.25740 0.73820 0.84840 -0.04600
C 	C 	0.30430 0.62740 0.78240 -0.09200
H 	H 	0.33340 0.61220 0.75580 0.04600
C 	C 	0.26160 0.59660 0.80790 -0.00400
H 	H 	0.26150 0.56040 0.79500 0.02600
C 	C 	0.34950 0.76830 0.80310 -0.12000
H 	H 	0.32570 0.77950 0.84330 0.06700
C 	C 	0.82410 0.04110 0.48760 0.02200
C 	C 	0.86250 0.03280 0.42580 -0.05700
H 	H 	0.85780 0.00540 0.38790 0.06600
C 	C 	0.90790 0.06590 0.42130 0.00200
H 	H 	0.93320 0.06050 0.38050 0.02200
N 	N 	0.91500 0.10730 0.47860 0.07700
C 	C 	0.87660 0.11560 0.54040 -0.01600
H 	H 	0.88130 0.14290 0.57830 0.27700
C 	C 	0.83120 0.08250 0.54490 0.00200
H 	H 	0.80590 0.08790 0.58570 0.16000
C 	C 	0.23530 0.65920 0.89470 -0.23900
H 	H 	0.21800 0.66570 0.94400 0.08600
C 	C 	0.27410 0.69270 0.87060 -0.31500
H 	H 	0.28230 0.72260 0.90200 0.12100
C 	C 	0.28700 0.64000 0.75760 0.00200
H 	H 	0.30410 0.63140 0.70880 0.02300
C 	C 	0.24720 0.60820 0.78530 0.02900
H 	H 	0.23870 0.57810 0.75450 0.00600
C 	C 	0.82230 0.04960 0.53450 -0.00200
C 	C 	0.85620 0.04400 0.59580 -0.03800
H 	H 	0.85120 0.01680 0.63380 -0.01500
C 	C 	0.89710 0.07690 0.60320 0.03500
H 	H 	0.92090 0.07300 0.64640 -0.00300
N 	N 	0.90410 0.11560 0.54940 -0.29200
C 	C 	0.87030 0.12120 0.48800 0.17000
H 	H 	0.87520 0.14840 0.45010 -0.20900
C 	C 	0.82940 0.08830 0.48060 -0.04100
H 	H 	0.80550 0.09230 0.43740 -0.12100
H 	H 	0.53560 0.73630 0.44490 0.02800
H 	H 	0.50990 0.74190 0.53180 0.04000
H 	H 	0.57080 0.72870 0.52330 0.04100
Co	Co	0.43271 0.16047 0.59964 1.18200
Co	Co	0.49693 0.06336 0.68829 1.16200
O 	O 	0.49690 0.19412 0.65538 -0.42900
O 	O 	0.54609 0.12630 0.69768 -0.42800
O 	O 	0.48049 0.08964 0.56701 -0.55200
O 	O 	0.43065 0.11276 0.70283 -0.57100
O 	O 	0.50303 0.05084 0.81402 -0.56800
O 	O 	0.36657 0.11839 0.56721 -0.43100
N 	N 	0.77955 0.38364 0.85026 -0.21600
C 	C 	0.65497 0.28199 0.77200 0.05200
C 	C 	0.61230 0.19780 0.77700 0.05100
H 	H 	0.60500 0.16810 0.80710 0.02500
C 	C 	0.57705 0.21241 0.71900 -0.13000
C 	C 	0.61900 0.29671 0.71530 -0.12000
H 	H 	0.62080 0.33090 0.69310 0.06300
C 	C 	0.69798 0.31733 0.79830 -0.01000
C 	C 	0.28389 0.04707 0.42810 -0.00400
H 	H 	0.29780 0.05910 0.37870 0.03700
C 	C 	0.57980 0.26247 0.68950 0.04500
H 	H 	0.55550 0.27370 0.65180 0.02100
C 	C 	0.53634 0.17462 0.68822 0.37900
C 	C 	0.50635 0.09582 0.86490 -0.00900
H 	H 	0.47540 0.11670 0.85880 0.03000
H 	H 	0.53640 0.11620 0.85040 0.03100
H 	H 	0.50950 0.08480 0.91960 0.02300
C 	C 	0.24265 0.01090 0.42840 -0.05200
H 	H 	0.23310 0.99880 0.36560 0.03600
C 	C 	0.77980 0.33220 0.86160 0.27100
H 	H 	0.80920 0.31750 0.88810 -0.05700
C 	C 	0.74000 0.29820 0.83740 0.22700
H 	H 	0.74260 0.26180 0.84840 -0.04600
C 	C 	0.69570 0.37260 0.78240 -0.09200
H 	H 	0.66660 0.38780 0.75580 0.04600
C 	C 	0.73840 0.40340 0.80790 -0.00400
H 	H 	0.73850 0.43960 0.79500 0.02600
C 	C 	0.65050 0.23170 0.80310 -0.12000
H 	H 	0.67430 0.22050 0.84330 0.06700
C 	C 	0.17590 0.95890 0.48760 0.02200
C 	C 	0.13750 0.96720 0.42580 -0.05700
H 	H 	0.14220 0.99460 0.38790 0.06600
C 	C 	0.09210 0.93410 0.42130 0.00200
H 	H 	0.06680 0.93950 0.38050 0.02200
N 	N 	0.08500 0.89270 0.47860 0.07700
C 	C 	0.12340 0.88440 0.54040 -0.01600
H 	H 	0.11870 0.85710 0.57830 0.27700
C 	C 	0.16880 0.91750 0.54490 0.00200
H 	H 	0.19410 0.91210 0.58570 0.16000
C 	C 	0.76470 0.34080 0.89470 -0.23900
H 	H 	0.78200 0.33430 0.94400 0.08600
C 	C 	0.72590 0.30730 0.87060 -0.31500
H 	H 	0.71770 0.27740 0.90200 0.12100
C 	C 	0.71300 0.36000 0.75760 0.00200
H 	H 	0.69590 0.36860 0.70880 0.02300
C 	C 	0.75280 0.39180 0.78530 0.02900
H 	H 	0.76130 0.42190 0.75450 0.00600
C 	C 	0.17770 0.95040 0.53450 -0.00200
C 	C 	0.14380 0.95600 0.59580 -0.03800
H 	H 	0.14880 0.98320 0.63380 -0.01500
C 	C 	0.10290 0.92310 0.60320 0.03500
H 	H 	0.07910 0.92700 0.64640 -0.00300
N 	N 	0.09590 0.88440 0.54940 -0.29200
C 	C 	0.12970 0.87880 0.48800 0.17000
H 	H 	0.12480 0.85160 0.45010 -0.20900
C 	C 	0.17060 0.91170 0.48060 -0.04100
H 	H 	0.19450 0.90770 0.43740 -0.12100
H 	H 	0.46440 0.26370 0.44490 0.02800
H 	H 	0.49010 0.25810 0.53180 0.04000
H 	H 	0.42920 0.27130 0.52330 0.04100
Co	Co	0.83953 0.43271 0.09964 1.18200
Co	Co	0.93664 0.49693 0.18829 1.16200
O 	O 	0.80588 0.49690 0.15538 -0.42900
O 	O 	0.87370 0.54609 0.19768 -0.42800
O 	O 	0.91036 0.48049 0.06701 -0.55200
O 	O 	0.88724 0.43065 0.20283 -0.57100
O 	O 	0.94916 0.50303 0.31402 -0.56800
O 	O 	0.88161 0.36657 0.06721 -0.43100
N 	N 	0.61636 0.77955 0.35026 -0.21600
C 	C 	0.71801 0.65497 0.27200 0.05200
C 	C 	0.80220 0.61230 0.27700 0.05100
H 	H 	0.83190 0.60500 0.30710 0.02500
C 	C 	0.78759 0.57705 0.21900 -0.13000
C 	C 	0.70329 0.61900 0.21530 -0.12000
H 	H 	0.66910 0.62080 0.19310 0.06300
C 	C 	0.68267 0.69798 0.29830 -0.01000
C 	C 	0.95293 0.28389 0.92810 -0.00300
H 	H 	0.94090 0.29780 0.87870 0.03700
C 	C 	0.73753 0.57980 0.18950 0.04500
H 	H 	0.72630 0.55550 0.15180 0.02000
C 	C 	0.82538 0.53634 0.18822 0.37900
C 	C 	0.90418 0.50635 0.36490 -0.00800
H 	H 	0.88330 0.47540 0.35880 0.03000
H 	H 	0.88380 0.53640 0.35040 0.03000
H 	H 	0.91520 0.50950 0.41960 0.02300
C 	C 	0.98910 0.24265 0.92840 -0.05000
H 	H 	0.00120 0.23310 0.86560 0.03600
C 	C 	0.66780 0.77980 0.36160 0.27000
H 	H 	0.68250 0.80920 0.38810 -0.05600
C 	C 	0.70180 0.74000 0.33740 0.22500
H 	H 	0.73820 0.74260 0.34840 -0.04600
C 	C 	0.62740 0.69570 0.28240 -0.09100
H 	H 	0.61220 0.66660 0.25580 0.04600
C 	C 	0.59660 0.73840 0.30790 -0.00400
H 	H 	0.56040 0.73850 0.29500 0.02600
C 	C 	0.76830 0.65050 0.30310 -0.12000
H 	H 	0.77950 0.67430 0.34330 0.06700
C 	C 	0.04110 0.17590 0.98760 0.02100
C 	C 	0.03280 0.13750 0.92580 -0.05800
H 	H 	0.00540 0.14220 0.88790 0.06700
C 	C 	0.06590 0.09210 0.92130 0.00400
H 	H 	0.06050 0.06680 0.88050 0.02100
N 	N 	0.10730 0.08500 0.97860 0.07900
C 	C 	0.11560 0.12340 0.04040 -0.01200
H 	H 	0.14290 0.11870 0.07830 0.28000
C 	C 	0.08250 0.16880 0.04490 -0.00000
H 	H 	0.08790 0.19410 0.08570 0.16300
C 	C 	0.65920 0.76470 0.39470 -0.23800
H 	H 	0.66570 0.78200 0.44400 0.08500
C 	C 	0.69270 0.72590 0.37060 -0.31400
H 	H 	0.72260 0.71770 0.40200 0.12000
C 	C 	0.64000 0.71300 0.25760 0.00200
H 	H 	0.63140 0.69590 0.20880 0.02300
C 	C 	0.60820 0.75280 0.28530 0.02800
H 	H 	0.57810 0.76130 0.25450 0.00600
C 	C 	0.04960 0.17770 0.03450 -0.00400
C 	C 	0.04400 0.14380 0.09580 -0.03800
H 	H 	0.01680 0.14880 0.13380 -0.01500
C 	C 	0.07690 0.10290 0.10320 0.03500
H 	H 	0.07300 0.07910 0.14640 -0.00400
N 	N 	0.11560 0.09590 0.04940 -0.29300
C 	C 	0.12120 0.12970 0.98800 0.16700
H 	H 	0.14840 0.12480 0.95010 -0.20500
C 	C 	0.08830 0.17060 0.98060 -0.04200
H 	H 	0.09230 0.19450 0.93740 -0.12000
H 	H 	0.73630 0.46440 0.94490 0.03000
H 	H 	0.74190 0.49010 0.03180 0.04100
H 	H 	0.72870 0.42920 0.02330 0.04200
Co	Co	0.16047 0.56729 0.09964 1.18200
Co	Co	0.06336 0.50307 0.18829 1.16200
O 	O 	0.19412 0.50310 0.15538 -0.42900
O 	O 	0.12630 0.45391 0.19768 -0.42800
O 	O 	0.08964 0.51951 0.06701 -0.55200
O 	O 	0.11276 0.56935 0.20283 -0.57100
O 	O 	0.05084 0.49697 0.31402 -0.56800
O 	O 	0.11839 0.63343 0.06721 -0.43100
N 	N 	0.38364 0.22045 0.35026 -0.21600
C 	C 	0.28199 0.34503 0.27200 0.05200
C 	C 	0.19780 0.38770 0.27700 0.05100
H 	H 	0.16810 0.39500 0.30710 0.02500
C 	C 	0.21241 0.42295 0.21900 -0.13000
C 	C 	0.29671 0.38100 0.21530 -0.12000
H 	H 	0.33090 0.37920 0.19310 0.06300
C 	C 	0.31733 0.30202 0.29830 -0.01000
C 	C 	0.04707 0.71611 0.92810 -0.00300
H 	H 	0.05910 0.70220 0.87870 0.03700
C 	C 	0.26247 0.42020 0.18950 0.04500
H 	H 	0.27370 0.44450 0.15180 0.02000
C 	C 	0.17462 0.46366 0.18822 0.37900
C 	C 	0.09582 0.49365 0.36490 -0.00800
H 	H 	0.11670 0.52460 0.35880 0.03000
H 	H 	0.11620 0.46360 0.35040 0.03000
H 	H 	0.08480 0.49050 0.41960 0.02300
C 	C 	0.01090 0.75735 0.92840 -0.05000
H 	H 	0.99880 0.76690 0.86560 0.03600
C 	C 	0.33220 0.22020 0.36160 0.27000
H 	H 	0.31750 0.19080 0.38810 -0.05600
C 	C 	0.29820 0.26000 0.33740 0.22500
H 	H 	0.26180 0.25740 0.34840 -0.04600
C 	C 	0.37260 0.30430 0.28240 -0.09100
H 	H 	0.38780 0.33340 0.25580 0.04600
C 	C 	0.40340 0.26160 0.30790 -0.00400
H 	H 	0.43960 0.26150 0.29500 0.02600
C 	C 	0.23170 0.34950 0.30310 -0.12000
H 	H 	0.22050 0.32570 0.34330 0.06700
C 	C 	0.95890 0.82410 0.98760 0.02100
C 	C 	0.96720 0.86250 0.92580 -0.05800
H 	H 	0.99460 0.85780 0.88790 0.06700
C 	C 	0.93410 0.90790 0.92130 0.00400
H 	H 	0.93950 0.93320 0.88050 0.02100
N 	N 	0.89270 0.91500 0.97860 0.07900
C 	C 	0.88440 0.87660 0.04040 -0.01200
H 	H 	0.85710 0.88130 0.07830 0.28000
C 	C 	0.91750 0.83120 0.04490 -0.00000
H 	H 	0.91210 0.80590 0.08570 0.16300
C 	C 	0.34080 0.23530 0.39470 -0.23800
H 	H 	0.33430 0.21800 0.44400 0.08500
C 	C 	0.30730 0.27410 0.37060 -0.31400
H 	H 	0.27740 0.28230 0.40200 0.12000
C 	C 	0.36000 0.28700 0.25760 0.00200
H 	H 	0.36860 0.30410 0.20880 0.02300
C 	C 	0.39180 0.24720 0.28530 0.02800
H 	H 	0.42190 0.23870 0.25450 0.00600
C 	C 	0.95040 0.82230 0.03450 -0.00400
C 	C 	0.95600 0.85620 0.09580 -0.03800
H 	H 	0.98320 0.85120 0.13380 -0.01500
C 	C 	0.92310 0.89710 0.10320 0.03500
H 	H 	0.92700 0.92090 0.14640 -0.00400
N 	N 	0.88440 0.90410 0.04940 -0.29300
C 	C 	0.87880 0.87030 0.98800 0.16700
H 	H 	0.85160 0.87520 0.95010 -0.20500
C 	C 	0.91170 0.82940 0.98060 -0.04200
H 	H 	0.90770 0.80550 0.93740 -0.12000
H 	H 	0.26370 0.53560 0.94490 0.03000
H 	H 	0.25810 0.50990 0.03180 0.04100
H 	H 	0.27130 0.57080 0.02330 0.04200
O 	O 	0.05310 0.69824 0.50000 -0.47800
C 	C 	0.00603 0.57221 0.50000 0.52000
H 	H 	0.98330 0.54280 0.50000 -0.16000
C 	C 	0.15078 0.60370 0.50000 0.35700
C 	C 	0.04150 0.75190 0.50000 -0.10200
C 	C 	0.27860 0.49300 0.50000 0.00300
C 	C 	0.19544 0.56540 0.50000 -0.09500
O 	O 	0.94690 0.30176 0.50000 -0.47800
C 	C 	0.99397 0.42779 0.50000 0.52000
H 	H 	0.01670 0.45720 0.50000 -0.16000
C 	C 	0.84922 0.39630 0.50000 0.35700
C 	C 	0.95850 0.24810 0.50000 -0.10200
C 	C 	0.72140 0.50700 0.50000 0.00300
C 	C 	0.80456 0.43460 0.50000 -0.09500
O 	O 	0.30176 0.05310 -0.00000 -0.47700
C 	C 	0.42779 0.00603 -0.00000 0.51800
H 	H 	0.45720 0.98330 -0.00000 -0.16000
C 	C 	0.39630 0.15078 -0.00000 0.35600
C 	C 	0.24810 0.04150 -0.00000 -0.11500
C 	C 	0.50700 0.27860 -0.00000 0.00000
C 	C 	0.43460 0.19544 -0.00000 -0.09600
O 	O 	0.69824 0.94690 -0.00000 -0.47700
C 	C 	0.57221 0.99397 -0.00000 0.51800
H 	H 	0.54280 0.01670 -0.00000 -0.16000
C 	C 	0.60370 0.84922 -0.00000 0.35600
C 	C 	0.75190 0.95850 -0.00000 -0.11500
C 	C 	0.49300 0.72140 -0.00000 0.00000
C 	C 	0.56540 0.80456 -0.00000 -0.09600
O 	O 	0.44690 0.19824 0.50000 -0.47800
C 	C 	0.49397 0.07221 0.50000 0.52000
H 	H 	0.51670 0.04280 0.50000 -0.16000
C 	C 	0.34922 0.10370 0.50000 0.35700
C 	C 	0.45850 0.25190 0.50000 -0.10200
C 	C 	0.22140 0.99300 0.50000 0.00300
C 	C 	0.30456 0.06540 0.50000 -0.09500
O 	O 	0.55310 0.80176 0.50000 -0.47800
C 	C 	0.50603 0.92779 0.50000 0.52000
H 	H 	0.48330 0.95720 0.50000 -0.16000
C 	C 	0.65078 0.89630 0.50000 0.35700
C 	C 	0.54150 0.74810 0.50000 -0.10200
C 	C 	0.77860 0.00700 0.50000 0.00300
C 	C 	0.69544 0.93460 0.50000 -0.09500
O 	O 	0.19824 0.55310 -0.00000 -0.47700
C 	C 	0.07221 0.50603 -0.00000 0.51700
H 	H 	0.04280 0.48330 -0.00000 -0.16000
C 	C 	0.10370 0.65078 -0.00000 0.35600
C 	C 	0.25190 0.54150 -0.00000 -0.11500
C 	C 	0.99300 0.77860 -0.00000 0.00000
C 	C 	0.06540 0.69544 -0.00000 -0.09600
O 	O 	0.80176 0.44690 -0.00000 -0.47700
C 	C 	0.92779 0.49397 -0.00000 0.51700
H 	H 	0.95720 0.51670 -0.00000 -0.16000
C 	C 	0.89630 0.34922 -0.00000 0.35600
C 	C 	0.74810 0.45850 -0.00000 -0.11500
C 	C 	0.00700 0.22140 -0.00000 0.00000
C 	C 	0.93460 0.30456 -0.00000 -0.09600
C 	C 	0.10736 0.60736 0.75000 0.51200
H 	H 	0.13400 0.63400 0.75000 -0.15000
C 	C 	0.89264 0.39264 0.75000 0.51200
H 	H 	0.86600 0.36600 0.75000 -0.15000
C 	C 	0.39264 0.10736 0.25000 0.51200
H 	H 	0.36600 0.13400 0.25000 -0.15000
C 	C 	0.60736 0.89264 0.25000 0.51200
H 	H 	0.63400 0.86600 0.25000 -0.15000
C 	C 	0.89264 0.39264 0.25000 0.51200
H 	H 	0.86600 0.36600 0.25000 -0.15000
C 	C 	0.10736 0.60736 0.25000 0.51200
H 	H 	0.13400 0.63400 0.25000 -0.15000
C 	C 	0.60736 0.89264 0.75000 0.51200
H 	H 	0.63400 0.86600 0.75000 -0.15000
C 	C 	0.39264 0.10736 0.75000 0.51200
H 	H 	0.36600 0.13400 0.75000 -0.15000
