data_crystal

_cell_length_a 37.07280
_cell_length_b 37.07280
_cell_length_c 37.07280
_cell_angle_alpha 90.00000
_cell_angle_beta  90.00000
_cell_angle_gamma 90.00000

_symmetry_space_group_name_	'P 1'
_symmetry_space_group_name_H-M	'P 1'

loop_
_symmetry_equiv_pos_as_xyz
  x,y,z

loop_
_atom_site_label
_atom_site_type_symbol
_atom_site_fract_x
_atom_site_fract_y
_atom_site_fract_z
_atom_site_charge
N 	N 	0.68459 0.71542 0.46313 -0.22000
N 	N 	0.68866 0.79089 0.46315 -0.18800
C 	C 	0.66340 0.70942 0.43473 0.01200
N 	N 	0.66673 0.79631 0.43549 -0.09800
C 	C 	0.67517 0.67990 0.41721 0.02700
H 	H 	0.64320 0.72370 0.42790 0.00700
C 	C 	0.66050 0.66281 0.38449 0.05400
C 	C 	0.67679 0.63223 0.37005 -0.11100
H 	H 	0.69780 0.62260 0.38120 0.06900
N 	N 	0.68459 0.21542 0.96313 -0.21300
N 	N 	0.68866 0.29089 0.96315 -0.18200
C 	C 	0.66340 0.20942 0.93473 0.01200
N 	N 	0.66673 0.29631 0.93549 -0.09600
C 	C 	0.67517 0.17990 0.91721 0.02800
H 	H 	0.64320 0.22370 0.92790 0.00900
C 	C 	0.66050 0.16281 0.88449 0.05400
C 	C 	0.67679 0.13223 0.87005 -0.11100
H 	H 	0.69780 0.12260 0.88120 0.06900
N 	N 	0.18459 0.71542 0.96313 -0.21300
N 	N 	0.18866 0.79089 0.96315 -0.18200
C 	C 	0.16340 0.70942 0.93473 0.01200
N 	N 	0.16673 0.79631 0.93549 -0.09700
C 	C 	0.17517 0.67990 0.91721 0.02800
H 	H 	0.14320 0.72370 0.92790 0.00800
C 	C 	0.16050 0.66281 0.88449 0.05400
C 	C 	0.17679 0.63223 0.87005 -0.11100
H 	H 	0.19780 0.62260 0.88120 0.07000
N 	N 	0.18459 0.21542 0.46313 -0.22000
N 	N 	0.18866 0.29089 0.46315 -0.18900
C 	C 	0.16340 0.20942 0.43473 0.01100
N 	N 	0.16673 0.29631 0.43549 -0.09900
C 	C 	0.17517 0.17990 0.41721 0.02700
H 	H 	0.14320 0.22370 0.42790 0.00600
C 	C 	0.16050 0.16281 0.38449 0.05300
C 	C 	0.17679 0.13223 0.37005 -0.11100
H 	H 	0.19780 0.12260 0.38120 0.06800
N 	N 	0.31541 0.28458 0.46313 -0.22000
N 	N 	0.31134 0.20911 0.46315 -0.18900
C 	C 	0.33660 0.29058 0.43473 0.01200
N 	N 	0.33327 0.20369 0.43549 -0.09800
C 	C 	0.32483 0.32010 0.41721 0.02700
H 	H 	0.35680 0.27630 0.42790 0.00700
C 	C 	0.33950 0.33719 0.38449 0.05300
C 	C 	0.32321 0.36777 0.37005 -0.11200
H 	H 	0.30220 0.37740 0.38120 0.06800
N 	N 	0.31541 0.78458 0.96313 -0.21400
N 	N 	0.31134 0.70911 0.96315 -0.18300
C 	C 	0.33660 0.79058 0.93473 0.01200
N 	N 	0.33327 0.70369 0.93549 -0.09700
C 	C 	0.32483 0.82010 0.91721 0.02800
H 	H 	0.35680 0.77630 0.92790 0.00800
C 	C 	0.33950 0.83719 0.88449 0.05500
C 	C 	0.32321 0.86777 0.87005 -0.11200
H 	H 	0.30220 0.87740 0.88120 0.07000
N 	N 	0.81541 0.28458 0.96313 -0.21400
N 	N 	0.81134 0.20911 0.96315 -0.18300
C 	C 	0.83660 0.29058 0.93473 0.01200
N 	N 	0.83327 0.20369 0.93549 -0.09700
C 	C 	0.82483 0.32010 0.91721 0.02800
H 	H 	0.85680 0.27630 0.92790 0.00900
C 	C 	0.83950 0.33719 0.88449 0.05500
C 	C 	0.82321 0.36777 0.87005 -0.11200
H 	H 	0.80220 0.37740 0.88120 0.06900
N 	N 	0.81541 0.78458 0.46313 -0.22000
N 	N 	0.81134 0.70911 0.46315 -0.18900
C 	C 	0.83660 0.79058 0.43473 0.01100
N 	N 	0.83327 0.70369 0.43549 -0.09800
C 	C 	0.82483 0.82010 0.41721 0.02700
H 	H 	0.85680 0.77630 0.42790 0.00700
C 	C 	0.83950 0.83719 0.38449 0.05400
C 	C 	0.82321 0.86777 0.37005 -0.11200
H 	H 	0.80220 0.87740 0.38120 0.06900
N 	N 	0.31541 0.71542 0.53687 -0.22000
N 	N 	0.31134 0.79089 0.53685 -0.18900
C 	C 	0.33660 0.70942 0.56527 0.01100
N 	N 	0.33327 0.79631 0.56451 -0.09900
C 	C 	0.32483 0.67990 0.58279 0.02600
H 	H 	0.35680 0.72370 0.57210 0.00600
C 	C 	0.33950 0.66281 0.61551 0.05300
C 	C 	0.32321 0.63223 0.62995 -0.11200
H 	H 	0.30220 0.62260 0.61880 0.06800
N 	N 	0.31541 0.21542 0.03687 -0.22300
N 	N 	0.31134 0.29089 0.03685 -0.19200
C 	C 	0.33660 0.20942 0.06527 0.00900
N 	N 	0.33327 0.29631 0.06451 -0.10000
C 	C 	0.32483 0.17990 0.08279 0.02500
H 	H 	0.35680 0.22370 0.07210 0.00400
C 	C 	0.33950 0.16281 0.11551 0.05100
C 	C 	0.32321 0.13223 0.12995 -0.11200
H 	H 	0.30220 0.12260 0.11880 0.06600
N 	N 	0.81541 0.71542 0.03687 -0.22200
N 	N 	0.81134 0.79089 0.03685 -0.19100
C 	C 	0.83660 0.70942 0.06527 0.01000
N 	N 	0.83327 0.79631 0.06451 -0.09900
C 	C 	0.82483 0.67990 0.08279 0.02600
H 	H 	0.85680 0.72370 0.07210 0.00500
C 	C 	0.83950 0.66281 0.11551 0.05300
C 	C 	0.82321 0.63223 0.12995 -0.11200
H 	H 	0.80220 0.62260 0.11880 0.06700
N 	N 	0.81541 0.21542 0.53687 -0.22000
N 	N 	0.81134 0.29089 0.53685 -0.18900
C 	C 	0.83660 0.20942 0.56527 0.01100
N 	N 	0.83327 0.29631 0.56451 -0.09800
C 	C 	0.82483 0.17990 0.58279 0.02600
H 	H 	0.85680 0.22370 0.57210 0.00600
C 	C 	0.83950 0.16281 0.61551 0.05300
C 	C 	0.82321 0.13223 0.62995 -0.11200
H 	H 	0.80220 0.12260 0.61880 0.06700
N 	N 	0.68459 0.28458 0.53687 -0.22100
N 	N 	0.68866 0.20911 0.53685 -0.19000
C 	C 	0.66340 0.29058 0.56527 0.01100
N 	N 	0.66673 0.20369 0.56451 -0.09900
C 	C 	0.67517 0.32010 0.58279 0.02600
H 	H 	0.64320 0.27630 0.57210 0.00500
C 	C 	0.66050 0.33719 0.61551 0.05300
C 	C 	0.67679 0.36777 0.62995 -0.11200
H 	H 	0.69780 0.37740 0.61880 0.06800
N 	N 	0.68459 0.78458 0.03687 -0.22300
N 	N 	0.68866 0.70911 0.03685 -0.19200
C 	C 	0.66340 0.79058 0.06527 0.01000
N 	N 	0.66673 0.70369 0.06451 -0.10000
C 	C 	0.67517 0.82010 0.08279 0.02600
H 	H 	0.64320 0.77630 0.07210 0.00400
C 	C 	0.66050 0.83719 0.11551 0.05300
C 	C 	0.67679 0.86777 0.12995 -0.11200
H 	H 	0.69780 0.87740 0.11880 0.06800
N 	N 	0.18459 0.28458 0.03687 -0.22300
N 	N 	0.18866 0.20911 0.03685 -0.19200
C 	C 	0.16340 0.29058 0.06527 0.00900
N 	N 	0.16673 0.20369 0.06451 -0.10100
C 	C 	0.17517 0.32010 0.08279 0.02500
H 	H 	0.14320 0.27630 0.07210 0.00300
C 	C 	0.16050 0.33719 0.11551 0.05100
C 	C 	0.17679 0.36777 0.12995 -0.11200
H 	H 	0.19780 0.37740 0.11880 0.06700
N 	N 	0.18459 0.78458 0.53687 -0.22100
N 	N 	0.18866 0.70911 0.53685 -0.19000
C 	C 	0.16340 0.79058 0.56527 0.01100
N 	N 	0.16673 0.70369 0.56451 -0.10000
C 	C 	0.17517 0.82010 0.58279 0.02600
H 	H 	0.14320 0.77630 0.57210 0.00500
C 	C 	0.16050 0.83719 0.61551 0.05300
C 	C 	0.17679 0.86777 0.62995 -0.11200
H 	H 	0.19780 0.87740 0.61880 0.06900
N 	N 	0.46313 0.68459 0.71542 -0.22100
N 	N 	0.46315 0.68866 0.79089 -0.18900
C 	C 	0.43473 0.66340 0.70942 0.01100
N 	N 	0.43549 0.66673 0.79631 -0.09900
C 	C 	0.41721 0.67517 0.67990 0.02600
H 	H 	0.42790 0.64320 0.72370 0.00600
C 	C 	0.38449 0.66050 0.66281 0.05300
C 	C 	0.37005 0.67679 0.63223 -0.11200
H 	H 	0.38120 0.69780 0.62260 0.06800
N 	N 	0.46313 0.18459 0.21542 -0.22100
N 	N 	0.46315 0.18866 0.29089 -0.19000
C 	C 	0.43473 0.16340 0.20942 0.01000
N 	N 	0.43549 0.16673 0.29631 -0.10000
C 	C 	0.41721 0.17517 0.17990 0.02600
H 	H 	0.42790 0.14320 0.22370 0.00500
C 	C 	0.38449 0.16050 0.16281 0.05200
C 	C 	0.37005 0.17679 0.13223 -0.11200
H 	H 	0.38120 0.19780 0.12260 0.06700
N 	N 	0.96313 0.68459 0.21542 -0.21400
N 	N 	0.96315 0.68866 0.29089 -0.18300
C 	C 	0.93473 0.66340 0.20942 0.01100
N 	N 	0.93549 0.66673 0.29631 -0.09700
C 	C 	0.91721 0.67517 0.17990 0.02700
H 	H 	0.92790 0.64320 0.22370 0.00800
C 	C 	0.88449 0.66050 0.16281 0.05300
C 	C 	0.87005 0.67679 0.13223 -0.11200
H 	H 	0.88120 0.69780 0.12260 0.06800
N 	N 	0.96313 0.18459 0.71542 -0.21400
N 	N 	0.96315 0.18866 0.79089 -0.18300
C 	C 	0.93473 0.16340 0.70942 0.01100
N 	N 	0.93549 0.16673 0.79631 -0.09800
C 	C 	0.91721 0.17517 0.67990 0.02700
H 	H 	0.92790 0.14320 0.72370 0.00700
C 	C 	0.88449 0.16050 0.66281 0.05300
C 	C 	0.87005 0.17679 0.63223 -0.11200
H 	H 	0.88120 0.19780 0.62260 0.06900
N 	N 	0.46313 0.31541 0.28458 -0.22100
N 	N 	0.46315 0.31134 0.20911 -0.19000
C 	C 	0.43473 0.33660 0.29058 0.01100
N 	N 	0.43549 0.33327 0.20369 -0.09900
C 	C 	0.41721 0.32483 0.32010 0.02600
H 	H 	0.42790 0.35680 0.27630 0.00600
C 	C 	0.38449 0.33950 0.33719 0.05300
C 	C 	0.37005 0.32321 0.36777 -0.11200
H 	H 	0.38120 0.30220 0.37740 0.06800
N 	N 	0.46313 0.81541 0.78458 -0.22000
N 	N 	0.46315 0.81134 0.70911 -0.18900
C 	C 	0.43473 0.83660 0.79058 0.01100
N 	N 	0.43549 0.83327 0.70369 -0.09800
C 	C 	0.41721 0.82483 0.82010 0.02700
H 	H 	0.42790 0.85680 0.77630 0.00700
C 	C 	0.38449 0.83950 0.83719 0.05400
C 	C 	0.37005 0.82321 0.86777 -0.11200
H 	H 	0.38120 0.80220 0.87740 0.06900
N 	N 	0.96313 0.31541 0.78458 -0.21400
N 	N 	0.96315 0.31134 0.70911 -0.18300
C 	C 	0.93473 0.33660 0.79058 0.01200
N 	N 	0.93549 0.33327 0.70369 -0.09700
C 	C 	0.91721 0.32483 0.82010 0.02800
H 	H 	0.92790 0.35680 0.77630 0.00800
C 	C 	0.88449 0.33950 0.83719 0.05500
C 	C 	0.87005 0.32321 0.86777 -0.11200
H 	H 	0.88120 0.30220 0.87740 0.07000
N 	N 	0.96313 0.81541 0.28458 -0.21400
N 	N 	0.96315 0.81134 0.20911 -0.18300
C 	C 	0.93473 0.83660 0.29058 0.01200
N 	N 	0.93549 0.83327 0.20369 -0.09700
C 	C 	0.91721 0.82483 0.32010 0.02800
H 	H 	0.92790 0.85680 0.27630 0.00900
C 	C 	0.88449 0.83950 0.33719 0.05500
C 	C 	0.87005 0.82321 0.36777 -0.11200
H 	H 	0.88120 0.80220 0.37740 0.06900
N 	N 	0.53687 0.31541 0.71542 -0.22000
N 	N 	0.53685 0.31134 0.79089 -0.18900
C 	C 	0.56527 0.33660 0.70942 0.01100
N 	N 	0.56451 0.33327 0.79631 -0.09900
C 	C 	0.58279 0.32483 0.67990 0.02600
H 	H 	0.57210 0.35680 0.72370 0.00600
C 	C 	0.61551 0.33950 0.66281 0.05300
C 	C 	0.62995 0.32321 0.63223 -0.11200
H 	H 	0.61880 0.30220 0.62260 0.06800
N 	N 	0.53687 0.81541 0.21542 -0.22000
N 	N 	0.53685 0.81134 0.29089 -0.18900
C 	C 	0.56527 0.83660 0.20942 0.01100
N 	N 	0.56451 0.83327 0.29631 -0.09800
C 	C 	0.58279 0.82483 0.17990 0.02600
H 	H 	0.57210 0.85680 0.22370 0.00600
C 	C 	0.61551 0.83950 0.16281 0.05300
C 	C 	0.62995 0.82321 0.13223 -0.11200
H 	H 	0.61880 0.80220 0.12260 0.06700
N 	N 	0.03687 0.31541 0.21542 -0.22300
N 	N 	0.03685 0.31134 0.29089 -0.19200
C 	C 	0.06527 0.33660 0.20942 0.00900
N 	N 	0.06451 0.33327 0.29631 -0.10000
C 	C 	0.08279 0.32483 0.17990 0.02500
H 	H 	0.07210 0.35680 0.22370 0.00400
C 	C 	0.11551 0.33950 0.16281 0.05100
C 	C 	0.12995 0.32321 0.13223 -0.11200
H 	H 	0.11880 0.30220 0.12260 0.06600
N 	N 	0.03687 0.81541 0.71542 -0.22200
N 	N 	0.03685 0.81134 0.79089 -0.19100
C 	C 	0.06527 0.83660 0.70942 0.01000
N 	N 	0.06451 0.83327 0.79631 -0.09900
C 	C 	0.08279 0.82483 0.67990 0.02600
H 	H 	0.07210 0.85680 0.72370 0.00500
C 	C 	0.11551 0.83950 0.66281 0.05300
C 	C 	0.12995 0.82321 0.63223 -0.11200
H 	H 	0.11880 0.80220 0.62260 0.06700
N 	N 	0.53687 0.68459 0.28458 -0.22100
N 	N 	0.53685 0.68866 0.20911 -0.19000
C 	C 	0.56527 0.66340 0.29058 0.01100
N 	N 	0.56451 0.66673 0.20369 -0.09900
C 	C 	0.58279 0.67517 0.32010 0.02600
H 	H 	0.57210 0.64320 0.27630 0.00500
C 	C 	0.61551 0.66050 0.33719 0.05300
C 	C 	0.62995 0.67679 0.36777 -0.11200
H 	H 	0.61880 0.69780 0.37740 0.06800
N 	N 	0.53687 0.18459 0.78458 -0.22100
N 	N 	0.53685 0.18866 0.70911 -0.19000
C 	C 	0.56527 0.16340 0.79058 0.01100
N 	N 	0.56451 0.16673 0.70369 -0.10000
C 	C 	0.58279 0.17517 0.82010 0.02600
H 	H 	0.57210 0.14320 0.77630 0.00500
C 	C 	0.61551 0.16050 0.83719 0.05300
C 	C 	0.62995 0.17679 0.86777 -0.11200
H 	H 	0.61880 0.19780 0.87740 0.06900
N 	N 	0.03687 0.68459 0.78458 -0.22300
N 	N 	0.03685 0.68866 0.70911 -0.19200
C 	C 	0.06527 0.66340 0.79058 0.01000
N 	N 	0.06451 0.66673 0.70369 -0.10000
C 	C 	0.08279 0.67517 0.82010 0.02600
H 	H 	0.07210 0.64320 0.77630 0.00400
C 	C 	0.11551 0.66050 0.83719 0.05300
C 	C 	0.12995 0.67679 0.86777 -0.11200
H 	H 	0.11880 0.69780 0.87740 0.06800
N 	N 	0.03687 0.18459 0.28458 -0.22300
N 	N 	0.03685 0.18866 0.20911 -0.19200
C 	C 	0.06527 0.16340 0.29058 0.00900
N 	N 	0.06451 0.16673 0.20369 -0.10100
C 	C 	0.08279 0.17517 0.32010 0.02500
H 	H 	0.07210 0.14320 0.27630 0.00300
C 	C 	0.11551 0.16050 0.33719 0.05100
C 	C 	0.12995 0.17679 0.36777 -0.11200
H 	H 	0.11880 0.19780 0.37740 0.06700
N 	N 	0.71542 0.46313 0.68459 -0.22100
N 	N 	0.79089 0.46315 0.68866 -0.18900
C 	C 	0.70942 0.43473 0.66340 0.01100
N 	N 	0.79631 0.43549 0.66673 -0.09900
C 	C 	0.67990 0.41721 0.67517 0.02600
H 	H 	0.72370 0.42790 0.64320 0.00600
C 	C 	0.66281 0.38449 0.66050 0.05300
C 	C 	0.63223 0.37005 0.67679 -0.11200
H 	H 	0.62260 0.38120 0.69780 0.06800
N 	N 	0.71542 0.96313 0.18459 -0.21400
N 	N 	0.79089 0.96315 0.18866 -0.18300
C 	C 	0.70942 0.93473 0.16340 0.01100
N 	N 	0.79631 0.93549 0.16673 -0.09800
C 	C 	0.67990 0.91721 0.17517 0.02700
H 	H 	0.72370 0.92790 0.14320 0.00700
C 	C 	0.66281 0.88449 0.16050 0.05300
C 	C 	0.63223 0.87005 0.17679 -0.11200
H 	H 	0.62260 0.88120 0.19780 0.06900
N 	N 	0.21542 0.46313 0.18459 -0.22100
N 	N 	0.29089 0.46315 0.18866 -0.19000
C 	C 	0.20942 0.43473 0.16340 0.01000
N 	N 	0.29631 0.43549 0.16673 -0.10000
C 	C 	0.17990 0.41721 0.17517 0.02600
H 	H 	0.22370 0.42790 0.14320 0.00500
C 	C 	0.16281 0.38449 0.16050 0.05200
C 	C 	0.13223 0.37005 0.17679 -0.11200
H 	H 	0.12260 0.38120 0.19780 0.06700
N 	N 	0.21542 0.96313 0.68459 -0.21400
N 	N 	0.29089 0.96315 0.68866 -0.18300
C 	C 	0.20942 0.93473 0.66340 0.01100
N 	N 	0.29631 0.93549 0.66673 -0.09700
C 	C 	0.17990 0.91721 0.67517 0.02700
H 	H 	0.22370 0.92790 0.64320 0.00800
C 	C 	0.16281 0.88449 0.66050 0.05300
C 	C 	0.13223 0.87005 0.67679 -0.11200
H 	H 	0.12260 0.88120 0.69780 0.06800
N 	N 	0.28458 0.46313 0.31541 -0.22100
N 	N 	0.20911 0.46315 0.31134 -0.19000
C 	C 	0.29058 0.43473 0.33660 0.01100
N 	N 	0.20369 0.43549 0.33327 -0.09900
C 	C 	0.32010 0.41721 0.32483 0.02600
H 	H 	0.27630 0.42790 0.35680 0.00600
C 	C 	0.33719 0.38449 0.33950 0.05300
C 	C 	0.36777 0.37005 0.32321 -0.11200
H 	H 	0.37740 0.38120 0.30220 0.06800
N 	N 	0.28458 0.96313 0.81541 -0.21400
N 	N 	0.20911 0.96315 0.81134 -0.18300
C 	C 	0.29058 0.93473 0.83660 0.01200
N 	N 	0.20369 0.93549 0.83327 -0.09700
C 	C 	0.32010 0.91721 0.82483 0.02800
H 	H 	0.27630 0.92790 0.85680 0.00900
C 	C 	0.33719 0.88449 0.83950 0.05500
C 	C 	0.36777 0.87005 0.82321 -0.11200
H 	H 	0.37740 0.88120 0.80220 0.06900
N 	N 	0.78458 0.46313 0.81541 -0.22000
N 	N 	0.70911 0.46315 0.81134 -0.18900
C 	C 	0.79058 0.43473 0.83660 0.01100
N 	N 	0.70369 0.43549 0.83327 -0.09800
C 	C 	0.82010 0.41721 0.82483 0.02700
H 	H 	0.77630 0.42790 0.85680 0.00700
C 	C 	0.83719 0.38449 0.83950 0.05400
C 	C 	0.86777 0.37005 0.82321 -0.11200
H 	H 	0.87740 0.38120 0.80220 0.06900
N 	N 	0.78458 0.96313 0.31541 -0.21400
N 	N 	0.70911 0.96315 0.31134 -0.18300
C 	C 	0.79058 0.93473 0.33660 0.01200
N 	N 	0.70369 0.93549 0.33327 -0.09700
C 	C 	0.82010 0.91721 0.32483 0.02800
H 	H 	0.77630 0.92790 0.35680 0.00800
C 	C 	0.83719 0.88449 0.33950 0.05500
C 	C 	0.86777 0.87005 0.32321 -0.11200
H 	H 	0.87740 0.88120 0.30220 0.07000
N 	N 	0.71542 0.53687 0.31541 -0.22000
N 	N 	0.79089 0.53685 0.31134 -0.18900
C 	C 	0.70942 0.56527 0.33660 0.01100
N 	N 	0.79631 0.56451 0.33327 -0.09900
C 	C 	0.67990 0.58279 0.32483 0.02600
H 	H 	0.72370 0.57210 0.35680 0.00600
C 	C 	0.66281 0.61551 0.33950 0.05300
C 	C 	0.63223 0.62995 0.32321 -0.11200
H 	H 	0.62260 0.61880 0.30220 0.06800
N 	N 	0.71542 0.03687 0.81541 -0.22200
N 	N 	0.79089 0.03685 0.81134 -0.19100
C 	C 	0.70942 0.06527 0.83660 0.01000
N 	N 	0.79631 0.06451 0.83327 -0.09900
C 	C 	0.67990 0.08279 0.82483 0.02600
H 	H 	0.72370 0.07210 0.85680 0.00500
C 	C 	0.66281 0.11551 0.83950 0.05300
C 	C 	0.63223 0.12995 0.82321 -0.11200
H 	H 	0.62260 0.11880 0.80220 0.06700
N 	N 	0.21542 0.53687 0.81541 -0.22000
N 	N 	0.29089 0.53685 0.81134 -0.18900
C 	C 	0.20942 0.56527 0.83660 0.01100
N 	N 	0.29631 0.56451 0.83327 -0.09800
C 	C 	0.17990 0.58279 0.82483 0.02600
H 	H 	0.22370 0.57210 0.85680 0.00600
C 	C 	0.16281 0.61551 0.83950 0.05300
C 	C 	0.13223 0.62995 0.82321 -0.11200
H 	H 	0.12260 0.61880 0.80220 0.06700
N 	N 	0.21542 0.03687 0.31541 -0.22300
N 	N 	0.29089 0.03685 0.31134 -0.19200
C 	C 	0.20942 0.06527 0.33660 0.00900
N 	N 	0.29631 0.06451 0.33327 -0.10000
C 	C 	0.17990 0.08279 0.32483 0.02500
H 	H 	0.22370 0.07210 0.35680 0.00400
C 	C 	0.16281 0.11551 0.33950 0.05100
C 	C 	0.13223 0.12995 0.32321 -0.11200
H 	H 	0.12260 0.11880 0.30220 0.06600
N 	N 	0.28458 0.53687 0.68459 -0.22100
N 	N 	0.20911 0.53685 0.68866 -0.19000
C 	C 	0.29058 0.56527 0.66340 0.01100
N 	N 	0.20369 0.56451 0.66673 -0.09900
C 	C 	0.32010 0.58279 0.67517 0.02600
H 	H 	0.27630 0.57210 0.64320 0.00500
C 	C 	0.33719 0.61551 0.66050 0.05300
C 	C 	0.36777 0.62995 0.67679 -0.11200
H 	H 	0.37740 0.61880 0.69780 0.06800
N 	N 	0.28458 0.03687 0.18459 -0.22300
N 	N 	0.20911 0.03685 0.18866 -0.19200
C 	C 	0.29058 0.06527 0.16340 0.00900
N 	N 	0.20369 0.06451 0.16673 -0.10100
C 	C 	0.32010 0.08279 0.17517 0.02500
H 	H 	0.27630 0.07210 0.14320 0.00300
C 	C 	0.33719 0.11551 0.16050 0.05100
C 	C 	0.36777 0.12995 0.17679 -0.11200
H 	H 	0.37740 0.11880 0.19780 0.06700
N 	N 	0.78458 0.53687 0.18459 -0.22100
N 	N 	0.70911 0.53685 0.18866 -0.19000
C 	C 	0.79058 0.56527 0.16340 0.01100
N 	N 	0.70369 0.56451 0.16673 -0.10000
C 	C 	0.82010 0.58279 0.17517 0.02600
H 	H 	0.77630 0.57210 0.14320 0.00500
C 	C 	0.83719 0.61551 0.16050 0.05300
C 	C 	0.86777 0.62995 0.17679 -0.11200
H 	H 	0.87740 0.61880 0.19780 0.06900
N 	N 	0.78458 0.03687 0.68459 -0.22300
N 	N 	0.70911 0.03685 0.68866 -0.19200
C 	C 	0.79058 0.06527 0.66340 0.01000
N 	N 	0.70369 0.06451 0.66673 -0.10000
C 	C 	0.82010 0.08279 0.67517 0.02600
H 	H 	0.77630 0.07210 0.64320 0.00400
C 	C 	0.83719 0.11551 0.66050 0.05300
C 	C 	0.86777 0.12995 0.67679 -0.11200
H 	H 	0.87740 0.11880 0.69780 0.06800
N 	N 	0.21542 0.18459 0.03687 -0.22300
N 	N 	0.29089 0.18866 0.03685 -0.19200
C 	C 	0.20942 0.16340 0.06527 0.00900
N 	N 	0.29631 0.16673 0.06451 -0.10100
C 	C 	0.17990 0.17517 0.08279 0.02500
H 	H 	0.22370 0.14320 0.07210 0.00300
C 	C 	0.16281 0.16050 0.11551 0.05100
C 	C 	0.13223 0.17679 0.12995 -0.11200
H 	H 	0.12260 0.19780 0.11880 0.06600
N 	N 	0.21542 0.68459 0.53687 -0.22100
N 	N 	0.29089 0.68866 0.53685 -0.19000
C 	C 	0.20942 0.66340 0.56527 0.01000
N 	N 	0.29631 0.66673 0.56451 -0.09900
C 	C 	0.17990 0.67517 0.58279 0.02600
H 	H 	0.22370 0.64320 0.57210 0.00500
C 	C 	0.16281 0.66050 0.61551 0.05200
C 	C 	0.13223 0.67679 0.62995 -0.11200
H 	H 	0.12260 0.69780 0.61880 0.06700
N 	N 	0.71542 0.18459 0.53687 -0.22100
N 	N 	0.79089 0.18866 0.53685 -0.19000
C 	C 	0.70942 0.16340 0.56527 0.01000
N 	N 	0.79631 0.16673 0.56451 -0.09900
C 	C 	0.67990 0.17517 0.58279 0.02600
H 	H 	0.72370 0.14320 0.57210 0.00500
C 	C 	0.66281 0.16050 0.61551 0.05200
C 	C 	0.63223 0.17679 0.62995 -0.11200
H 	H 	0.62260 0.19780 0.61880 0.06800
N 	N 	0.71542 0.68459 0.03687 -0.22300
N 	N 	0.79089 0.68866 0.03685 -0.19200
C 	C 	0.70942 0.66340 0.06527 0.01000
N 	N 	0.79631 0.66673 0.06451 -0.10000
C 	C 	0.67990 0.67517 0.08279 0.02500
H 	H 	0.72370 0.64320 0.07210 0.00400
C 	C 	0.66281 0.66050 0.11551 0.05200
C 	C 	0.63223 0.67679 0.12995 -0.11200
H 	H 	0.62260 0.69780 0.11880 0.06700
N 	N 	0.78458 0.81541 0.03687 -0.22200
N 	N 	0.70911 0.81134 0.03685 -0.19100
C 	C 	0.79058 0.83660 0.06527 0.01000
N 	N 	0.70369 0.83327 0.06451 -0.10000
C 	C 	0.82010 0.82483 0.08279 0.02600
H 	H 	0.77630 0.85680 0.07210 0.00500
C 	C 	0.83719 0.83950 0.11551 0.05300
C 	C 	0.86777 0.82321 0.12995 -0.11200
H 	H 	0.87740 0.80220 0.11880 0.06800
N 	N 	0.78458 0.31541 0.53687 -0.22000
N 	N 	0.70911 0.31134 0.53685 -0.18900
C 	C 	0.79058 0.33660 0.56527 0.01100
N 	N 	0.70369 0.33327 0.56451 -0.09900
C 	C 	0.82010 0.32483 0.58279 0.02700
H 	H 	0.77630 0.35680 0.57210 0.00600
C 	C 	0.83719 0.33950 0.61551 0.05400
C 	C 	0.86777 0.32321 0.62995 -0.11200
H 	H 	0.87740 0.30220 0.61880 0.06900
N 	N 	0.28458 0.81541 0.53687 -0.22000
N 	N 	0.20911 0.81134 0.53685 -0.18900
C 	C 	0.29058 0.83660 0.56527 0.01100
N 	N 	0.20369 0.83327 0.56451 -0.09900
C 	C 	0.32010 0.82483 0.58279 0.02700
H 	H 	0.27630 0.85680 0.57210 0.00700
C 	C 	0.33719 0.83950 0.61551 0.05400
C 	C 	0.36777 0.82321 0.62995 -0.11200
H 	H 	0.37740 0.80220 0.61880 0.06800
N 	N 	0.28458 0.31541 0.03687 -0.22300
N 	N 	0.20911 0.31134 0.03685 -0.19200
C 	C 	0.29058 0.33660 0.06527 0.01000
N 	N 	0.20369 0.33327 0.06451 -0.10000
C 	C 	0.32010 0.32483 0.08279 0.02600
H 	H 	0.27630 0.35680 0.07210 0.00400
C 	C 	0.33719 0.33950 0.11551 0.05200
C 	C 	0.36777 0.32321 0.12995 -0.11200
H 	H 	0.37740 0.30220 0.11880 0.06700
N 	N 	0.21542 0.81541 0.96313 -0.21400
N 	N 	0.29089 0.81134 0.96315 -0.18300
C 	C 	0.20942 0.83660 0.93473 0.01200
N 	N 	0.29631 0.83327 0.93549 -0.09700
C 	C 	0.17990 0.82483 0.91721 0.02800
H 	H 	0.22370 0.85680 0.92790 0.00900
C 	C 	0.16281 0.83950 0.88449 0.05400
C 	C 	0.13223 0.82321 0.87005 -0.11200
H 	H 	0.12260 0.80220 0.88120 0.06900
N 	N 	0.21542 0.31541 0.46313 -0.22100
N 	N 	0.29089 0.31134 0.46315 -0.18900
C 	C 	0.20942 0.33660 0.43473 0.01100
N 	N 	0.29631 0.33327 0.43549 -0.09900
C 	C 	0.17990 0.32483 0.41721 0.02600
H 	H 	0.22370 0.35680 0.42790 0.00500
C 	C 	0.16281 0.33950 0.38449 0.05200
C 	C 	0.13223 0.32321 0.37005 -0.11200
H 	H 	0.12260 0.30220 0.38120 0.06700
N 	N 	0.71542 0.81541 0.46313 -0.22000
N 	N 	0.79089 0.81134 0.46315 -0.18900
C 	C 	0.70942 0.83660 0.43473 0.01100
N 	N 	0.79631 0.83327 0.43549 -0.09800
C 	C 	0.67990 0.82483 0.41721 0.02700
H 	H 	0.72370 0.85680 0.42790 0.00700
C 	C 	0.66281 0.83950 0.38449 0.05400
C 	C 	0.63223 0.82321 0.37005 -0.11200
H 	H 	0.62260 0.80220 0.38120 0.06800
N 	N 	0.71542 0.31541 0.96313 -0.21400
N 	N 	0.79089 0.31134 0.96315 -0.18300
C 	C 	0.70942 0.33660 0.93473 0.01200
N 	N 	0.79631 0.33327 0.93549 -0.09700
C 	C 	0.67990 0.32483 0.91721 0.02800
H 	H 	0.72370 0.35680 0.92790 0.00800
C 	C 	0.66281 0.33950 0.88449 0.05400
C 	C 	0.63223 0.32321 0.87005 -0.11200
H 	H 	0.62260 0.30220 0.88120 0.06900
N 	N 	0.78458 0.18459 0.96313 -0.21400
N 	N 	0.70911 0.18866 0.96315 -0.18300
C 	C 	0.79058 0.16340 0.93473 0.01200
N 	N 	0.70369 0.16673 0.93549 -0.09800
C 	C 	0.82010 0.17517 0.91721 0.02700
H 	H 	0.77630 0.14320 0.92790 0.00700
C 	C 	0.83719 0.16050 0.88449 0.05400
C 	C 	0.86777 0.17679 0.87005 -0.11200
H 	H 	0.87740 0.19780 0.88120 0.07000
N 	N 	0.78458 0.68459 0.46313 -0.22000
N 	N 	0.70911 0.68866 0.46315 -0.19000
C 	C 	0.79058 0.66340 0.43473 0.01100
N 	N 	0.70369 0.66673 0.43549 -0.09900
C 	C 	0.82010 0.67517 0.41721 0.02700
H 	H 	0.77630 0.64320 0.42790 0.00600
C 	C 	0.83719 0.66050 0.38449 0.05400
C 	C 	0.86777 0.67679 0.37005 -0.11200
H 	H 	0.87740 0.69780 0.38120 0.06900
N 	N 	0.28458 0.18459 0.46313 -0.22100
N 	N 	0.20911 0.18866 0.46315 -0.19000
C 	C 	0.29058 0.16340 0.43473 0.01100
N 	N 	0.20369 0.16673 0.43549 -0.10000
C 	C 	0.32010 0.17517 0.41721 0.02600
H 	H 	0.27630 0.14320 0.42790 0.00500
C 	C 	0.33719 0.16050 0.38449 0.05200
C 	C 	0.36777 0.17679 0.37005 -0.11200
H 	H 	0.37740 0.19780 0.38120 0.06800
N 	N 	0.28458 0.68459 0.96313 -0.21400
N 	N 	0.20911 0.68866 0.96315 -0.18300
C 	C 	0.29058 0.66340 0.93473 0.01200
N 	N 	0.20369 0.66673 0.93549 -0.09700
C 	C 	0.32010 0.67517 0.91721 0.02800
H 	H 	0.27630 0.64320 0.92790 0.00800
C 	C 	0.33719 0.66050 0.88449 0.05400
C 	C 	0.36777 0.67679 0.87005 -0.11200
H 	H 	0.37740 0.69780 0.88120 0.06900
N 	N 	0.18459 0.96313 0.78458 -0.21400
N 	N 	0.18866 0.96315 0.70911 -0.18300
C 	C 	0.16340 0.93473 0.79058 0.01200
N 	N 	0.16673 0.93549 0.70369 -0.09800
C 	C 	0.17517 0.91721 0.82010 0.02700
H 	H 	0.14320 0.92790 0.77630 0.00700
C 	C 	0.16050 0.88449 0.83719 0.05400
C 	C 	0.17679 0.87005 0.86777 -0.11200
H 	H 	0.19780 0.88120 0.87740 0.07000
N 	N 	0.18459 0.46313 0.28458 -0.22100
N 	N 	0.18866 0.46315 0.20911 -0.19000
C 	C 	0.16340 0.43473 0.29058 0.01100
N 	N 	0.16673 0.43549 0.20369 -0.10000
C 	C 	0.17517 0.41721 0.32010 0.02600
H 	H 	0.14320 0.42790 0.27630 0.00500
C 	C 	0.16050 0.38449 0.33719 0.05200
C 	C 	0.17679 0.37005 0.36777 -0.11200
H 	H 	0.19780 0.38120 0.37740 0.06800
N 	N 	0.68459 0.96313 0.28458 -0.21400
N 	N 	0.68866 0.96315 0.20911 -0.18300
C 	C 	0.66340 0.93473 0.29058 0.01200
N 	N 	0.66673 0.93549 0.20369 -0.09700
C 	C 	0.67517 0.91721 0.32010 0.02800
H 	H 	0.64320 0.92790 0.27630 0.00800
C 	C 	0.66050 0.88449 0.33719 0.05400
C 	C 	0.67679 0.87005 0.36777 -0.11200
H 	H 	0.69780 0.88120 0.37740 0.06900
N 	N 	0.68459 0.46313 0.78458 -0.22000
N 	N 	0.68866 0.46315 0.70911 -0.19000
C 	C 	0.66340 0.43473 0.79058 0.01100
N 	N 	0.66673 0.43549 0.70369 -0.09900
C 	C 	0.67517 0.41721 0.82010 0.02700
H 	H 	0.64320 0.42790 0.77630 0.00600
C 	C 	0.66050 0.38449 0.83719 0.05400
C 	C 	0.67679 0.37005 0.86777 -0.11200
H 	H 	0.69780 0.38120 0.87740 0.06900
N 	N 	0.81541 0.96313 0.21542 -0.21400
N 	N 	0.81134 0.96315 0.29089 -0.18300
C 	C 	0.83660 0.93473 0.20942 0.01200
N 	N 	0.83327 0.93549 0.29631 -0.09700
C 	C 	0.82483 0.91721 0.17990 0.02800
H 	H 	0.85680 0.92790 0.22370 0.00900
C 	C 	0.83950 0.88449 0.16281 0.05400
C 	C 	0.82321 0.87005 0.13223 -0.11200
H 	H 	0.80220 0.88120 0.12260 0.06900
N 	N 	0.81541 0.46313 0.71542 -0.22000
N 	N 	0.81134 0.46315 0.79089 -0.18900
C 	C 	0.83660 0.43473 0.70942 0.01100
N 	N 	0.83327 0.43549 0.79631 -0.09800
C 	C 	0.82483 0.41721 0.67990 0.02700
H 	H 	0.85680 0.42790 0.72370 0.00700
C 	C 	0.83950 0.38449 0.66281 0.05400
C 	C 	0.82321 0.37005 0.63223 -0.11200
H 	H 	0.80220 0.38120 0.62260 0.06800
N 	N 	0.31541 0.96313 0.71542 -0.21400
N 	N 	0.31134 0.96315 0.79089 -0.18300
C 	C 	0.33660 0.93473 0.70942 0.01200
N 	N 	0.33327 0.93549 0.79631 -0.09700
C 	C 	0.32483 0.91721 0.67990 0.02800
H 	H 	0.35680 0.92790 0.72370 0.00800
C 	C 	0.33950 0.88449 0.66281 0.05400
C 	C 	0.32321 0.87005 0.63223 -0.11200
H 	H 	0.30220 0.88120 0.62260 0.06900
N 	N 	0.31541 0.46313 0.21542 -0.22100
N 	N 	0.31134 0.46315 0.29089 -0.18900
C 	C 	0.33660 0.43473 0.20942 0.01100
N 	N 	0.33327 0.43549 0.29631 -0.09900
C 	C 	0.32483 0.41721 0.17990 0.02600
H 	H 	0.35680 0.42790 0.22370 0.00500
C 	C 	0.33950 0.38449 0.16281 0.05200
C 	C 	0.32321 0.37005 0.13223 -0.11200
H 	H 	0.30220 0.38120 0.12260 0.06700
N 	N 	0.81541 0.03687 0.78458 -0.22200
N 	N 	0.81134 0.03685 0.70911 -0.19100
C 	C 	0.83660 0.06527 0.79058 0.01000
N 	N 	0.83327 0.06451 0.70369 -0.10000
C 	C 	0.82483 0.08279 0.82010 0.02600
H 	H 	0.85680 0.07210 0.77630 0.00500
C 	C 	0.83950 0.11551 0.83719 0.05300
C 	C 	0.82321 0.12995 0.86777 -0.11200
H 	H 	0.80220 0.11880 0.87740 0.06800
N 	N 	0.81541 0.53687 0.28458 -0.22000
N 	N 	0.81134 0.53685 0.20911 -0.18900
C 	C 	0.83660 0.56527 0.29058 0.01100
N 	N 	0.83327 0.56451 0.20369 -0.09900
C 	C 	0.82483 0.58279 0.32010 0.02700
H 	H 	0.85680 0.57210 0.27630 0.00700
C 	C 	0.83950 0.61551 0.33719 0.05400
C 	C 	0.82321 0.62995 0.36777 -0.11200
H 	H 	0.80220 0.61880 0.37740 0.06800
N 	N 	0.31541 0.03687 0.28458 -0.22300
N 	N 	0.31134 0.03685 0.20911 -0.19200
C 	C 	0.33660 0.06527 0.29058 0.01000
N 	N 	0.33327 0.06451 0.20369 -0.10000
C 	C 	0.32483 0.08279 0.32010 0.02600
H 	H 	0.35680 0.07210 0.27630 0.00400
C 	C 	0.33950 0.11551 0.33719 0.05200
C 	C 	0.32321 0.12995 0.36777 -0.11200
H 	H 	0.30220 0.11880 0.37740 0.06700
N 	N 	0.31541 0.53687 0.78458 -0.22000
N 	N 	0.31134 0.53685 0.70911 -0.18900
C 	C 	0.33660 0.56527 0.79058 0.01100
N 	N 	0.33327 0.56451 0.70369 -0.09900
C 	C 	0.32483 0.58279 0.82010 0.02700
H 	H 	0.35680 0.57210 0.77630 0.00600
C 	C 	0.33950 0.61551 0.83719 0.05400
C 	C 	0.32321 0.62995 0.86777 -0.11200
H 	H 	0.30220 0.61880 0.87740 0.06900
N 	N 	0.18459 0.03687 0.21542 -0.22300
N 	N 	0.18866 0.03685 0.29089 -0.19200
C 	C 	0.16340 0.06527 0.20942 0.00900
N 	N 	0.16673 0.06451 0.29631 -0.10100
C 	C 	0.17517 0.08279 0.17990 0.02500
H 	H 	0.14320 0.07210 0.22370 0.00300
C 	C 	0.16050 0.11551 0.16281 0.05100
C 	C 	0.17679 0.12995 0.13223 -0.11200
H 	H 	0.19780 0.11880 0.12260 0.06600
N 	N 	0.18459 0.53687 0.71542 -0.22100
N 	N 	0.18866 0.53685 0.79089 -0.19000
C 	C 	0.16340 0.56527 0.70942 0.01000
N 	N 	0.16673 0.56451 0.79631 -0.09900
C 	C 	0.17517 0.58279 0.67990 0.02600
H 	H 	0.14320 0.57210 0.72370 0.00500
C 	C 	0.16050 0.61551 0.66281 0.05200
C 	C 	0.17679 0.62995 0.63223 -0.11200
H 	H 	0.19780 0.61880 0.62260 0.06800
N 	N 	0.68459 0.03687 0.71542 -0.22300
N 	N 	0.68866 0.03685 0.79089 -0.19200
C 	C 	0.66340 0.06527 0.70942 0.01000
N 	N 	0.66673 0.06451 0.79631 -0.10000
C 	C 	0.67517 0.08279 0.67990 0.02500
H 	H 	0.64320 0.07210 0.72370 0.00400
C 	C 	0.66050 0.11551 0.66281 0.05200
C 	C 	0.67679 0.12995 0.63223 -0.11200
H 	H 	0.69780 0.11880 0.62260 0.06700
N 	N 	0.68459 0.53687 0.21542 -0.22100
N 	N 	0.68866 0.53685 0.29089 -0.19000
C 	C 	0.66340 0.56527 0.20942 0.01000
N 	N 	0.66673 0.56451 0.29631 -0.09900
C 	C 	0.67517 0.58279 0.17990 0.02600
H 	H 	0.64320 0.57210 0.22370 0.00500
C 	C 	0.66050 0.61551 0.16281 0.05200
C 	C 	0.67679 0.62995 0.13223 -0.11200
H 	H 	0.69780 0.61880 0.12260 0.06700
N 	N 	0.96313 0.21542 0.81541 -0.21400
N 	N 	0.96315 0.29089 0.81134 -0.18300
C 	C 	0.93473 0.20942 0.83660 0.01200
N 	N 	0.93549 0.29631 0.83327 -0.09700
C 	C 	0.91721 0.17990 0.82483 0.02800
H 	H 	0.92790 0.22370 0.85680 0.00900
C 	C 	0.88449 0.16281 0.83950 0.05400
C 	C 	0.87005 0.13223 0.82321 -0.11200
H 	H 	0.88120 0.12260 0.80220 0.06900
N 	N 	0.96313 0.71542 0.31541 -0.21400
N 	N 	0.96315 0.79089 0.31134 -0.18300
C 	C 	0.93473 0.70942 0.33660 0.01200
N 	N 	0.93549 0.79631 0.33327 -0.09700
C 	C 	0.91721 0.67990 0.32483 0.02800
H 	H 	0.92790 0.72370 0.35680 0.00800
C 	C 	0.88449 0.66281 0.33950 0.05400
C 	C 	0.87005 0.63223 0.32321 -0.11200
H 	H 	0.88120 0.62260 0.30220 0.06900
N 	N 	0.46313 0.21542 0.31541 -0.22100
N 	N 	0.46315 0.29089 0.31134 -0.18900
C 	C 	0.43473 0.20942 0.33660 0.01100
N 	N 	0.43549 0.29631 0.33327 -0.09900
C 	C 	0.41721 0.17990 0.32483 0.02600
H 	H 	0.42790 0.22370 0.35680 0.00500
C 	C 	0.38449 0.16281 0.33950 0.05200
C 	C 	0.37005 0.13223 0.32321 -0.11200
H 	H 	0.38120 0.12260 0.30220 0.06700
N 	N 	0.46313 0.71542 0.81541 -0.22000
N 	N 	0.46315 0.79089 0.81134 -0.18900
C 	C 	0.43473 0.70942 0.83660 0.01100
N 	N 	0.43549 0.79631 0.83327 -0.09800
C 	C 	0.41721 0.67990 0.82483 0.02700
H 	H 	0.42790 0.72370 0.85680 0.00700
C 	C 	0.38449 0.66281 0.83950 0.05400
C 	C 	0.37005 0.63223 0.82321 -0.11200
H 	H 	0.38120 0.62260 0.80220 0.06800
N 	N 	0.96313 0.78458 0.18459 -0.21400
N 	N 	0.96315 0.70911 0.18866 -0.18300
C 	C 	0.93473 0.79058 0.16340 0.01200
N 	N 	0.93549 0.70369 0.16673 -0.09800
C 	C 	0.91721 0.82010 0.17517 0.02700
H 	H 	0.92790 0.77630 0.14320 0.00700
C 	C 	0.88449 0.83719 0.16050 0.05400
C 	C 	0.87005 0.86777 0.17679 -0.11200
H 	H 	0.88120 0.87740 0.19780 0.07000
N 	N 	0.96313 0.28458 0.68459 -0.21400
N 	N 	0.96315 0.20911 0.68866 -0.18300
C 	C 	0.93473 0.29058 0.66340 0.01200
N 	N 	0.93549 0.20369 0.66673 -0.09700
C 	C 	0.91721 0.32010 0.67517 0.02800
H 	H 	0.92790 0.27630 0.64320 0.00800
C 	C 	0.88449 0.33719 0.66050 0.05400
C 	C 	0.87005 0.36777 0.67679 -0.11200
H 	H 	0.88120 0.37740 0.69780 0.06900
N 	N 	0.46313 0.78458 0.68459 -0.22000
N 	N 	0.46315 0.70911 0.68866 -0.19000
C 	C 	0.43473 0.79058 0.66340 0.01100
N 	N 	0.43549 0.70369 0.66673 -0.09900
C 	C 	0.41721 0.82010 0.67517 0.02700
H 	H 	0.42790 0.77630 0.64320 0.00600
C 	C 	0.38449 0.83719 0.66050 0.05400
C 	C 	0.37005 0.86777 0.67679 -0.11200
H 	H 	0.38120 0.87740 0.69780 0.06900
N 	N 	0.46313 0.28458 0.18459 -0.22100
N 	N 	0.46315 0.20911 0.18866 -0.19000
C 	C 	0.43473 0.29058 0.16340 0.01100
N 	N 	0.43549 0.20369 0.16673 -0.10000
C 	C 	0.41721 0.32010 0.17517 0.02600
H 	H 	0.42790 0.27630 0.14320 0.00500
C 	C 	0.38449 0.33719 0.16050 0.05200
C 	C 	0.37005 0.36777 0.17679 -0.11200
H 	H 	0.38120 0.37740 0.19780 0.06800
N 	N 	0.03687 0.21542 0.18459 -0.22300
N 	N 	0.03685 0.29089 0.18866 -0.19200
C 	C 	0.06527 0.20942 0.16340 0.00900
N 	N 	0.06451 0.29631 0.16673 -0.10100
C 	C 	0.08279 0.17990 0.17517 0.02500
H 	H 	0.07210 0.22370 0.14320 0.00300
C 	C 	0.11551 0.16281 0.16050 0.05100
C 	C 	0.12995 0.13223 0.17679 -0.11200
H 	H 	0.11880 0.12260 0.19780 0.06600
N 	N 	0.03687 0.71542 0.68459 -0.22300
N 	N 	0.03685 0.79089 0.68866 -0.19200
C 	C 	0.06527 0.70942 0.66340 0.01000
N 	N 	0.06451 0.79631 0.66673 -0.10000
C 	C 	0.08279 0.67990 0.67517 0.02500
H 	H 	0.07210 0.72370 0.64320 0.00400
C 	C 	0.11551 0.66281 0.66050 0.05200
C 	C 	0.12995 0.63223 0.67679 -0.11200
H 	H 	0.11880 0.62260 0.69780 0.06700
N 	N 	0.53687 0.21542 0.68459 -0.22100
N 	N 	0.53685 0.29089 0.68866 -0.19000
C 	C 	0.56527 0.20942 0.66340 0.01000
N 	N 	0.56451 0.29631 0.66673 -0.09900
C 	C 	0.58279 0.17990 0.67517 0.02600
H 	H 	0.57210 0.22370 0.64320 0.00500
C 	C 	0.61551 0.16281 0.66050 0.05200
C 	C 	0.62995 0.13223 0.67679 -0.11200
H 	H 	0.61880 0.12260 0.69780 0.06700
N 	N 	0.53687 0.71542 0.18459 -0.22100
N 	N 	0.53685 0.79089 0.18866 -0.19000
C 	C 	0.56527 0.70942 0.16340 0.01000
N 	N 	0.56451 0.79631 0.16673 -0.09900
C 	C 	0.58279 0.67990 0.17517 0.02600
H 	H 	0.57210 0.72370 0.14320 0.00500
C 	C 	0.61551 0.66281 0.16050 0.05200
C 	C 	0.62995 0.63223 0.17679 -0.11200
H 	H 	0.61880 0.62260 0.19780 0.06800
N 	N 	0.03687 0.78458 0.81541 -0.22200
N 	N 	0.03685 0.70911 0.81134 -0.19100
C 	C 	0.06527 0.79058 0.83660 0.01000
N 	N 	0.06451 0.70369 0.83327 -0.10000
C 	C 	0.08279 0.82010 0.82483 0.02600
H 	H 	0.07210 0.77630 0.85680 0.00500
C 	C 	0.11551 0.83719 0.83950 0.05300
C 	C 	0.12995 0.86777 0.82321 -0.11200
H 	H 	0.11880 0.87740 0.80220 0.06800
N 	N 	0.03687 0.28458 0.31541 -0.22300
N 	N 	0.03685 0.20911 0.31134 -0.19200
C 	C 	0.06527 0.29058 0.33660 0.01000
N 	N 	0.06451 0.20369 0.33327 -0.10000
C 	C 	0.08279 0.32010 0.32483 0.02600
H 	H 	0.07210 0.27630 0.35680 0.00400
C 	C 	0.11551 0.33719 0.33950 0.05200
C 	C 	0.12995 0.36777 0.32321 -0.11200
H 	H 	0.11880 0.37740 0.30220 0.06700
N 	N 	0.53687 0.78458 0.31541 -0.22000
N 	N 	0.53685 0.70911 0.31134 -0.18900
C 	C 	0.56527 0.79058 0.33660 0.01100
N 	N 	0.56451 0.70369 0.33327 -0.09900
C 	C 	0.58279 0.82010 0.32483 0.02700
H 	H 	0.57210 0.77630 0.35680 0.00600
C 	C 	0.61551 0.83719 0.33950 0.05400
C 	C 	0.62995 0.86777 0.32321 -0.11200
H 	H 	0.61880 0.87740 0.30220 0.06900
N 	N 	0.53687 0.28458 0.81541 -0.22000
N 	N 	0.53685 0.20911 0.81134 -0.18900
C 	C 	0.56527 0.29058 0.83660 0.01100
N 	N 	0.56451 0.20369 0.83327 -0.09900
C 	C 	0.58279 0.32010 0.82483 0.02700
H 	H 	0.57210 0.27630 0.85680 0.00700
C 	C 	0.61551 0.33719 0.83950 0.05400
C 	C 	0.62995 0.36777 0.82321 -0.11200
H 	H 	0.61880 0.37740 0.80220 0.06800
N 	N 	0.31541 0.28458 0.53687 -0.22100
N 	N 	0.31134 0.20911 0.53685 -0.19000
C 	C 	0.33660 0.29058 0.56527 0.01100
N 	N 	0.33327 0.20369 0.56451 -0.09900
C 	C 	0.32483 0.32010 0.58279 0.02600
H 	H 	0.35680 0.27630 0.57210 0.00600
C 	C 	0.33950 0.33719 0.61551 0.05300
C 	C 	0.32321 0.36777 0.62995 -0.11200
H 	H 	0.30220 0.37740 0.61880 0.06800
N 	N 	0.31541 0.78458 0.03687 -0.22300
N 	N 	0.31134 0.70911 0.03685 -0.19200
C 	C 	0.33660 0.79058 0.06527 0.01000
N 	N 	0.33327 0.70369 0.06451 -0.10000
C 	C 	0.32483 0.82010 0.08279 0.02600
H 	H 	0.35680 0.77630 0.07210 0.00400
C 	C 	0.33950 0.83719 0.11551 0.05300
C 	C 	0.32321 0.86777 0.12995 -0.11200
H 	H 	0.30220 0.87740 0.11880 0.06800
N 	N 	0.81541 0.28458 0.03687 -0.22200
N 	N 	0.81134 0.20911 0.03685 -0.19200
C 	C 	0.83660 0.29058 0.06527 0.01000
N 	N 	0.83327 0.20369 0.06451 -0.10000
C 	C 	0.82483 0.32010 0.08279 0.02600
H 	H 	0.85680 0.27630 0.07210 0.00500
C 	C 	0.83950 0.33719 0.11551 0.05300
C 	C 	0.82321 0.36777 0.12995 -0.11200
H 	H 	0.80220 0.37740 0.11880 0.06700
N 	N 	0.81541 0.78458 0.53687 -0.22000
N 	N 	0.81134 0.70911 0.53685 -0.18900
C 	C 	0.83660 0.79058 0.56527 0.01100
N 	N 	0.83327 0.70369 0.56451 -0.09800
C 	C 	0.82483 0.82010 0.58279 0.02700
H 	H 	0.85680 0.77630 0.57210 0.00700
C 	C 	0.83950 0.83719 0.61551 0.05400
C 	C 	0.82321 0.86777 0.62995 -0.11200
H 	H 	0.80220 0.87740 0.61880 0.06900
N 	N 	0.68459 0.71542 0.53687 -0.22100
N 	N 	0.68866 0.79089 0.53685 -0.18900
C 	C 	0.66340 0.70942 0.56527 0.01100
N 	N 	0.66673 0.79631 0.56451 -0.09900
C 	C 	0.67517 0.67990 0.58279 0.02600
H 	H 	0.64320 0.72370 0.57210 0.00600
C 	C 	0.66050 0.66281 0.61551 0.05300
C 	C 	0.67679 0.63223 0.62995 -0.11200
H 	H 	0.69780 0.62260 0.61880 0.06800
N 	N 	0.68459 0.21542 0.03687 -0.22300
N 	N 	0.68866 0.29089 0.03685 -0.19200
C 	C 	0.66340 0.20942 0.06527 0.00900
N 	N 	0.66673 0.29631 0.06451 -0.10000
C 	C 	0.67517 0.17990 0.08279 0.02500
H 	H 	0.64320 0.22370 0.07210 0.00400
C 	C 	0.66050 0.16281 0.11551 0.05100
C 	C 	0.67679 0.13223 0.12995 -0.11200
H 	H 	0.69780 0.12260 0.11880 0.06600
N 	N 	0.18459 0.71542 0.03687 -0.22300
N 	N 	0.18866 0.79089 0.03685 -0.19200
C 	C 	0.16340 0.70942 0.06527 0.00900
N 	N 	0.16673 0.79631 0.06451 -0.10100
C 	C 	0.17517 0.67990 0.08279 0.02500
H 	H 	0.14320 0.72370 0.07210 0.00300
C 	C 	0.16050 0.66281 0.11551 0.05100
C 	C 	0.17679 0.63223 0.12995 -0.11200
H 	H 	0.19780 0.62260 0.11880 0.06700
N 	N 	0.18459 0.21542 0.53687 -0.22100
N 	N 	0.18866 0.29089 0.53685 -0.19000
C 	C 	0.16340 0.20942 0.56527 0.01000
N 	N 	0.16673 0.29631 0.56451 -0.10000
C 	C 	0.17517 0.17990 0.58279 0.02600
H 	H 	0.14320 0.22370 0.57210 0.00500
C 	C 	0.16050 0.16281 0.61551 0.05200
C 	C 	0.17679 0.13223 0.62995 -0.11200
H 	H 	0.19780 0.12260 0.61880 0.06700
N 	N 	0.68459 0.28458 0.46313 -0.22100
N 	N 	0.68866 0.20911 0.46315 -0.19000
C 	C 	0.66340 0.29058 0.43473 0.01100
N 	N 	0.66673 0.20369 0.43549 -0.09900
C 	C 	0.67517 0.32010 0.41721 0.02600
H 	H 	0.64320 0.27630 0.42790 0.00500
C 	C 	0.66050 0.33719 0.38449 0.05300
C 	C 	0.67679 0.36777 0.37005 -0.11200
H 	H 	0.69780 0.37740 0.38120 0.06800
N 	N 	0.68459 0.78458 0.96313 -0.21400
N 	N 	0.68866 0.70911 0.96315 -0.18300
C 	C 	0.66340 0.79058 0.93473 0.01200
N 	N 	0.66673 0.70369 0.93549 -0.09700
C 	C 	0.67517 0.82010 0.91721 0.02800
H 	H 	0.64320 0.77630 0.92790 0.00800
C 	C 	0.66050 0.83719 0.88449 0.05500
C 	C 	0.67679 0.86777 0.87005 -0.11200
H 	H 	0.69780 0.87740 0.88120 0.07000
N 	N 	0.18459 0.28458 0.96313 -0.21400
N 	N 	0.18866 0.20911 0.96315 -0.18300
C 	C 	0.16340 0.29058 0.93473 0.01200
N 	N 	0.16673 0.20369 0.93549 -0.09800
C 	C 	0.17517 0.32010 0.91721 0.02700
H 	H 	0.14320 0.27630 0.92790 0.00700
C 	C 	0.16050 0.33719 0.88449 0.05300
C 	C 	0.17679 0.36777 0.87005 -0.11200
H 	H 	0.19780 0.37740 0.88120 0.06900
N 	N 	0.18459 0.78458 0.46313 -0.22100
N 	N 	0.18866 0.70911 0.46315 -0.19000
C 	C 	0.16340 0.79058 0.43473 0.01100
N 	N 	0.16673 0.70369 0.43549 -0.10000
C 	C 	0.17517 0.82010 0.41721 0.02600
H 	H 	0.14320 0.77630 0.42790 0.00500
C 	C 	0.16050 0.83719 0.38449 0.05300
C 	C 	0.17679 0.86777 0.37005 -0.11200
H 	H 	0.19780 0.87740 0.38120 0.06900
N 	N 	0.31541 0.71542 0.46313 -0.22000
N 	N 	0.31134 0.79089 0.46315 -0.18900
C 	C 	0.33660 0.70942 0.43473 0.01100
N 	N 	0.33327 0.79631 0.43549 -0.09900
C 	C 	0.32483 0.67990 0.41721 0.02600
H 	H 	0.35680 0.72370 0.42790 0.00600
C 	C 	0.33950 0.66281 0.38449 0.05300
C 	C 	0.32321 0.63223 0.37005 -0.11200
H 	H 	0.30220 0.62260 0.38120 0.06800
N 	N 	0.31541 0.21542 0.96313 -0.21400
N 	N 	0.31134 0.29089 0.96315 -0.18300
C 	C 	0.33660 0.20942 0.93473 0.01200
N 	N 	0.33327 0.29631 0.93549 -0.09700
C 	C 	0.32483 0.17990 0.91721 0.02700
H 	H 	0.35680 0.22370 0.92790 0.00800
C 	C 	0.33950 0.16281 0.88449 0.05300
C 	C 	0.32321 0.13223 0.87005 -0.11200
H 	H 	0.30220 0.12260 0.88120 0.06800
N 	N 	0.81541 0.71542 0.96313 -0.21400
N 	N 	0.81134 0.79089 0.96315 -0.18200
C 	C 	0.83660 0.70942 0.93473 0.01200
N 	N 	0.83327 0.79631 0.93549 -0.09600
C 	C 	0.82483 0.67990 0.91721 0.02800
H 	H 	0.85680 0.72370 0.92790 0.00900
C 	C 	0.83950 0.66281 0.88449 0.05500
C 	C 	0.82321 0.63223 0.87005 -0.11200
H 	H 	0.80220 0.62260 0.88120 0.06900
N 	N 	0.81541 0.21542 0.46313 -0.22000
N 	N 	0.81134 0.29089 0.46315 -0.18900
C 	C 	0.83660 0.20942 0.43473 0.01100
N 	N 	0.83327 0.29631 0.43549 -0.09800
C 	C 	0.82483 0.17990 0.41721 0.02600
H 	H 	0.85680 0.22370 0.42790 0.00700
C 	C 	0.83950 0.16281 0.38449 0.05300
C 	C 	0.82321 0.13223 0.37005 -0.11200
H 	H 	0.80220 0.12260 0.38120 0.06700
N 	N 	0.53687 0.31541 0.28458 -0.22100
N 	N 	0.53685 0.31134 0.20911 -0.19000
C 	C 	0.56527 0.33660 0.29058 0.01100
N 	N 	0.56451 0.33327 0.20369 -0.09900
C 	C 	0.58279 0.32483 0.32010 0.02600
H 	H 	0.57210 0.35680 0.27630 0.00600
C 	C 	0.61551 0.33950 0.33719 0.05300
C 	C 	0.62995 0.32321 0.36777 -0.11200
H 	H 	0.61880 0.30220 0.37740 0.06800
N 	N 	0.53687 0.81541 0.78458 -0.22000
N 	N 	0.53685 0.81134 0.70911 -0.18900
C 	C 	0.56527 0.83660 0.79058 0.01100
N 	N 	0.56451 0.83327 0.70369 -0.09800
C 	C 	0.58279 0.82483 0.82010 0.02700
H 	H 	0.57210 0.85680 0.77630 0.00700
C 	C 	0.61551 0.83950 0.83719 0.05400
C 	C 	0.62995 0.82321 0.86777 -0.11200
H 	H 	0.61880 0.80220 0.87740 0.06900
N 	N 	0.03687 0.31541 0.78458 -0.22300
N 	N 	0.03685 0.31134 0.70911 -0.19200
C 	C 	0.06527 0.33660 0.79058 0.01000
N 	N 	0.06451 0.33327 0.70369 -0.10000
C 	C 	0.08279 0.32483 0.82010 0.02600
H 	H 	0.07210 0.35680 0.77630 0.00400
C 	C 	0.11551 0.33950 0.83719 0.05300
C 	C 	0.12995 0.32321 0.86777 -0.11200
H 	H 	0.11880 0.30220 0.87740 0.06800
N 	N 	0.03687 0.81541 0.28458 -0.22200
N 	N 	0.03685 0.81134 0.20911 -0.19200
C 	C 	0.06527 0.83660 0.29058 0.01000
N 	N 	0.06451 0.83327 0.20369 -0.10000
C 	C 	0.08279 0.82483 0.32010 0.02600
H 	H 	0.07210 0.85680 0.27630 0.00500
C 	C 	0.11551 0.83950 0.33719 0.05300
C 	C 	0.12995 0.82321 0.36777 -0.11200
H 	H 	0.11880 0.80220 0.37740 0.06700
N 	N 	0.53687 0.68459 0.71542 -0.22100
N 	N 	0.53685 0.68866 0.79089 -0.18900
C 	C 	0.56527 0.66340 0.70942 0.01100
N 	N 	0.56451 0.66673 0.79631 -0.09900
C 	C 	0.58279 0.67517 0.67990 0.02600
H 	H 	0.57210 0.64320 0.72370 0.00600
C 	C 	0.61551 0.66050 0.66281 0.05300
C 	C 	0.62995 0.67679 0.63223 -0.11200
H 	H 	0.61880 0.69780 0.62260 0.06800
N 	N 	0.53687 0.18459 0.21542 -0.22100
N 	N 	0.53685 0.18866 0.29089 -0.19000
C 	C 	0.56527 0.16340 0.20942 0.01000
N 	N 	0.56451 0.16673 0.29631 -0.10000
C 	C 	0.58279 0.17517 0.17990 0.02600
H 	H 	0.57210 0.14320 0.22370 0.00500
C 	C 	0.61551 0.16050 0.16281 0.05200
C 	C 	0.62995 0.17679 0.13223 -0.11200
H 	H 	0.61880 0.19780 0.12260 0.06700
N 	N 	0.03687 0.68459 0.21542 -0.22300
N 	N 	0.03685 0.68866 0.29089 -0.19200
C 	C 	0.06527 0.66340 0.20942 0.00900
N 	N 	0.06451 0.66673 0.29631 -0.10000
C 	C 	0.08279 0.67517 0.17990 0.02500
H 	H 	0.07210 0.64320 0.22370 0.00400
C 	C 	0.11551 0.66050 0.16281 0.05100
C 	C 	0.12995 0.67679 0.13223 -0.11200
H 	H 	0.11880 0.69780 0.12260 0.06600
N 	N 	0.03687 0.18459 0.71542 -0.22300
N 	N 	0.03685 0.18866 0.79089 -0.19200
C 	C 	0.06527 0.16340 0.70942 0.00900
N 	N 	0.06451 0.16673 0.79631 -0.10100
C 	C 	0.08279 0.17517 0.67990 0.02500
H 	H 	0.07210 0.14320 0.72370 0.00300
C 	C 	0.11551 0.16050 0.66281 0.05100
C 	C 	0.12995 0.17679 0.63223 -0.11200
H 	H 	0.11880 0.19780 0.62260 0.06700
N 	N 	0.46313 0.68459 0.28458 -0.22100
N 	N 	0.46315 0.68866 0.20911 -0.19000
C 	C 	0.43473 0.66340 0.29058 0.01100
N 	N 	0.43549 0.66673 0.20369 -0.09900
C 	C 	0.41721 0.67517 0.32010 0.02600
H 	H 	0.42790 0.64320 0.27630 0.00500
C 	C 	0.38449 0.66050 0.33719 0.05300
C 	C 	0.37005 0.67679 0.36777 -0.11200
H 	H 	0.38120 0.69780 0.37740 0.06800
N 	N 	0.46313 0.18459 0.78458 -0.22100
N 	N 	0.46315 0.18866 0.70911 -0.19000
C 	C 	0.43473 0.16340 0.79058 0.01100
N 	N 	0.43549 0.16673 0.70369 -0.10000
C 	C 	0.41721 0.17517 0.82010 0.02600
H 	H 	0.42790 0.14320 0.77630 0.00500
C 	C 	0.38449 0.16050 0.83719 0.05300
C 	C 	0.37005 0.17679 0.86777 -0.11200
H 	H 	0.38120 0.19780 0.87740 0.06900
N 	N 	0.96313 0.68459 0.78458 -0.21400
N 	N 	0.96315 0.68866 0.70911 -0.18300
C 	C 	0.93473 0.66340 0.79058 0.01200
N 	N 	0.93549 0.66673 0.70369 -0.09700
C 	C 	0.91721 0.67517 0.82010 0.02800
H 	H 	0.92790 0.64320 0.77630 0.00800
C 	C 	0.88449 0.66050 0.83719 0.05500
C 	C 	0.87005 0.67679 0.86777 -0.11200
H 	H 	0.88120 0.69780 0.87740 0.07000
N 	N 	0.96313 0.18459 0.28458 -0.21400
N 	N 	0.96315 0.18866 0.20911 -0.18300
C 	C 	0.93473 0.16340 0.29058 0.01200
N 	N 	0.93549 0.16673 0.20369 -0.09800
C 	C 	0.91721 0.17517 0.32010 0.02700
H 	H 	0.92790 0.14320 0.27630 0.00700
C 	C 	0.88449 0.16050 0.33719 0.05300
C 	C 	0.87005 0.17679 0.36777 -0.11200
H 	H 	0.88120 0.19780 0.37740 0.06900
N 	N 	0.46313 0.31541 0.71542 -0.22000
N 	N 	0.46315 0.31134 0.79089 -0.18900
C 	C 	0.43473 0.33660 0.70942 0.01100
N 	N 	0.43549 0.33327 0.79631 -0.09900
C 	C 	0.41721 0.32483 0.67990 0.02600
H 	H 	0.42790 0.35680 0.72370 0.00600
C 	C 	0.38449 0.33950 0.66281 0.05300
C 	C 	0.37005 0.32321 0.63223 -0.11200
H 	H 	0.38120 0.30220 0.62260 0.06800
N 	N 	0.46313 0.81541 0.21542 -0.22000
N 	N 	0.46315 0.81134 0.29089 -0.18900
C 	C 	0.43473 0.83660 0.20942 0.01100
N 	N 	0.43549 0.83327 0.29631 -0.09800
C 	C 	0.41721 0.82483 0.17990 0.02600
H 	H 	0.42790 0.85680 0.22370 0.00700
C 	C 	0.38449 0.83950 0.16281 0.05300
C 	C 	0.37005 0.82321 0.13223 -0.11200
H 	H 	0.38120 0.80220 0.12260 0.06700
N 	N 	0.96313 0.31541 0.21542 -0.21400
N 	N 	0.96315 0.31134 0.29089 -0.18300
C 	C 	0.93473 0.33660 0.20942 0.01200
N 	N 	0.93549 0.33327 0.29631 -0.09700
C 	C 	0.91721 0.32483 0.17990 0.02700
H 	H 	0.92790 0.35680 0.22370 0.00800
C 	C 	0.88449 0.33950 0.16281 0.05300
C 	C 	0.87005 0.32321 0.13223 -0.11200
H 	H 	0.88120 0.30220 0.12260 0.06800
N 	N 	0.96313 0.81541 0.71542 -0.21400
N 	N 	0.96315 0.81134 0.79089 -0.18200
C 	C 	0.93473 0.83660 0.70942 0.01200
N 	N 	0.93549 0.83327 0.79631 -0.09600
C 	C 	0.91721 0.82483 0.67990 0.02800
H 	H 	0.92790 0.85680 0.72370 0.00900
C 	C 	0.88449 0.83950 0.66281 0.05500
C 	C 	0.87005 0.82321 0.63223 -0.11200
H 	H 	0.88120 0.80220 0.62260 0.06900
N 	N 	0.28458 0.53687 0.31541 -0.22100
N 	N 	0.20911 0.53685 0.31134 -0.19000
C 	C 	0.29058 0.56527 0.33660 0.01100
N 	N 	0.20369 0.56451 0.33327 -0.09900
C 	C 	0.32010 0.58279 0.32483 0.02600
H 	H 	0.27630 0.57210 0.35680 0.00600
C 	C 	0.33719 0.61551 0.33950 0.05300
C 	C 	0.36777 0.62995 0.32321 -0.11200
H 	H 	0.37740 0.61880 0.30220 0.06800
N 	N 	0.28458 0.03687 0.81541 -0.22200
N 	N 	0.20911 0.03685 0.81134 -0.19200
C 	C 	0.29058 0.06527 0.83660 0.01000
N 	N 	0.20369 0.06451 0.83327 -0.10000
C 	C 	0.32010 0.08279 0.82483 0.02600
H 	H 	0.27630 0.07210 0.85680 0.00500
C 	C 	0.33719 0.11551 0.83950 0.05300
C 	C 	0.36777 0.12995 0.82321 -0.11200
H 	H 	0.37740 0.11880 0.80220 0.06700
N 	N 	0.78458 0.53687 0.81541 -0.22000
N 	N 	0.70911 0.53685 0.81134 -0.18900
C 	C 	0.79058 0.56527 0.83660 0.01100
N 	N 	0.70369 0.56451 0.83327 -0.09800
C 	C 	0.82010 0.58279 0.82483 0.02700
H 	H 	0.77630 0.57210 0.85680 0.00700
C 	C 	0.83719 0.61551 0.83950 0.05400
C 	C 	0.86777 0.62995 0.82321 -0.11200
H 	H 	0.87740 0.61880 0.80220 0.06900
N 	N 	0.78458 0.03687 0.31541 -0.22300
N 	N 	0.70911 0.03685 0.31134 -0.19200
C 	C 	0.79058 0.06527 0.33660 0.01000
N 	N 	0.70369 0.06451 0.33327 -0.10000
C 	C 	0.82010 0.08279 0.32483 0.02600
H 	H 	0.77630 0.07210 0.35680 0.00400
C 	C 	0.83719 0.11551 0.33950 0.05300
C 	C 	0.86777 0.12995 0.32321 -0.11200
H 	H 	0.87740 0.11880 0.30220 0.06800
N 	N 	0.71542 0.53687 0.68459 -0.22100
N 	N 	0.79089 0.53685 0.68866 -0.18900
C 	C 	0.70942 0.56527 0.66340 0.01100
N 	N 	0.79631 0.56451 0.66673 -0.09900
C 	C 	0.67990 0.58279 0.67517 0.02600
H 	H 	0.72370 0.57210 0.64320 0.00600
C 	C 	0.66281 0.61551 0.66050 0.05300
C 	C 	0.63223 0.62995 0.67679 -0.11200
H 	H 	0.62260 0.61880 0.69780 0.06800
N 	N 	0.71542 0.03687 0.18459 -0.22300
N 	N 	0.79089 0.03685 0.18866 -0.19200
C 	C 	0.70942 0.06527 0.16340 0.00900
N 	N 	0.79631 0.06451 0.16673 -0.10100
C 	C 	0.67990 0.08279 0.17517 0.02500
H 	H 	0.72370 0.07210 0.14320 0.00300
C 	C 	0.66281 0.11551 0.16050 0.05100
C 	C 	0.63223 0.12995 0.17679 -0.11200
H 	H 	0.62260 0.11880 0.19780 0.06700
N 	N 	0.21542 0.53687 0.18459 -0.22100
N 	N 	0.29089 0.53685 0.18866 -0.19000
C 	C 	0.20942 0.56527 0.16340 0.01000
N 	N 	0.29631 0.56451 0.16673 -0.10000
C 	C 	0.17990 0.58279 0.17517 0.02600
H 	H 	0.22370 0.57210 0.14320 0.00500
C 	C 	0.16281 0.61551 0.16050 0.05200
C 	C 	0.13223 0.62995 0.17679 -0.11200
H 	H 	0.12260 0.61880 0.19780 0.06700
N 	N 	0.21542 0.03687 0.68459 -0.22300
N 	N 	0.29089 0.03685 0.68866 -0.19200
C 	C 	0.20942 0.06527 0.66340 0.00900
N 	N 	0.29631 0.06451 0.66673 -0.10000
C 	C 	0.17990 0.08279 0.67517 0.02500
H 	H 	0.22370 0.07210 0.64320 0.00400
C 	C 	0.16281 0.11551 0.66050 0.05100
C 	C 	0.13223 0.12995 0.67679 -0.11200
H 	H 	0.12260 0.11880 0.69780 0.06600
N 	N 	0.28458 0.46313 0.68459 -0.22100
N 	N 	0.20911 0.46315 0.68866 -0.19000
C 	C 	0.29058 0.43473 0.66340 0.01100
N 	N 	0.20369 0.43549 0.66673 -0.09900
C 	C 	0.32010 0.41721 0.67517 0.02600
H 	H 	0.27630 0.42790 0.64320 0.00500
C 	C 	0.33719 0.38449 0.66050 0.05300
C 	C 	0.36777 0.37005 0.67679 -0.11200
H 	H 	0.37740 0.38120 0.69780 0.06800
N 	N 	0.28458 0.96313 0.18459 -0.21400
N 	N 	0.20911 0.96315 0.18866 -0.18300
C 	C 	0.29058 0.93473 0.16340 0.01200
N 	N 	0.20369 0.93549 0.16673 -0.09800
C 	C 	0.32010 0.91721 0.17517 0.02700
H 	H 	0.27630 0.92790 0.14320 0.00700
C 	C 	0.33719 0.88449 0.16050 0.05300
C 	C 	0.36777 0.87005 0.17679 -0.11200
H 	H 	0.37740 0.88120 0.19780 0.06900
N 	N 	0.78458 0.46313 0.18459 -0.22100
N 	N 	0.70911 0.46315 0.18866 -0.19000
C 	C 	0.79058 0.43473 0.16340 0.01100
N 	N 	0.70369 0.43549 0.16673 -0.10000
C 	C 	0.82010 0.41721 0.17517 0.02600
H 	H 	0.77630 0.42790 0.14320 0.00500
C 	C 	0.83719 0.38449 0.16050 0.05300
C 	C 	0.86777 0.37005 0.17679 -0.11200
H 	H 	0.87740 0.38120 0.19780 0.06900
N 	N 	0.78458 0.96313 0.68459 -0.21400
N 	N 	0.70911 0.96315 0.68866 -0.18300
C 	C 	0.79058 0.93473 0.66340 0.01200
N 	N 	0.70369 0.93549 0.66673 -0.09700
C 	C 	0.82010 0.91721 0.67517 0.02800
H 	H 	0.77630 0.92790 0.64320 0.00800
C 	C 	0.83719 0.88449 0.66050 0.05500
C 	C 	0.86777 0.87005 0.67679 -0.11200
H 	H 	0.87740 0.88120 0.69780 0.07000
N 	N 	0.71542 0.46313 0.31541 -0.22000
N 	N 	0.79089 0.46315 0.31134 -0.18900
C 	C 	0.70942 0.43473 0.33660 0.01100
N 	N 	0.79631 0.43549 0.33327 -0.09900
C 	C 	0.67990 0.41721 0.32483 0.02600
H 	H 	0.72370 0.42790 0.35680 0.00600
C 	C 	0.66281 0.38449 0.33950 0.05300
C 	C 	0.63223 0.37005 0.32321 -0.11200
H 	H 	0.62260 0.38120 0.30220 0.06800
N 	N 	0.71542 0.96313 0.81541 -0.21400
N 	N 	0.79089 0.96315 0.81134 -0.18200
C 	C 	0.70942 0.93473 0.83660 0.01200
N 	N 	0.79631 0.93549 0.83327 -0.09600
C 	C 	0.67990 0.91721 0.82483 0.02800
H 	H 	0.72370 0.92790 0.85680 0.00900
C 	C 	0.66281 0.88449 0.83950 0.05500
C 	C 	0.63223 0.87005 0.82321 -0.11200
H 	H 	0.62260 0.88120 0.80220 0.06900
N 	N 	0.21542 0.46313 0.81541 -0.22000
N 	N 	0.29089 0.46315 0.81134 -0.18900
C 	C 	0.20942 0.43473 0.83660 0.01100
N 	N 	0.29631 0.43549 0.83327 -0.09800
C 	C 	0.17990 0.41721 0.82483 0.02600
H 	H 	0.22370 0.42790 0.85680 0.00700
C 	C 	0.16281 0.38449 0.83950 0.05300
C 	C 	0.13223 0.37005 0.82321 -0.11200
H 	H 	0.12260 0.38120 0.80220 0.06700
N 	N 	0.21542 0.96313 0.31541 -0.21400
N 	N 	0.29089 0.96315 0.31134 -0.18300
C 	C 	0.20942 0.93473 0.33660 0.01200
N 	N 	0.29631 0.93549 0.33327 -0.09700
C 	C 	0.17990 0.91721 0.32483 0.02700
H 	H 	0.22370 0.92790 0.35680 0.00800
C 	C 	0.16281 0.88449 0.33950 0.05300
C 	C 	0.13223 0.87005 0.32321 -0.11200
H 	H 	0.12260 0.88120 0.30220 0.06800
N 	N 	0.78458 0.81541 0.96313 -0.21300
N 	N 	0.70911 0.81134 0.96315 -0.18300
C 	C 	0.79058 0.83660 0.93473 0.01200
N 	N 	0.70369 0.83327 0.93549 -0.09700
C 	C 	0.82010 0.82483 0.91721 0.02800
H 	H 	0.77630 0.85680 0.92790 0.00900
C 	C 	0.83719 0.83950 0.88449 0.05500
C 	C 	0.86777 0.82321 0.87005 -0.11200
H 	H 	0.87740 0.80220 0.88120 0.07000
N 	N 	0.78458 0.31541 0.46313 -0.22000
N 	N 	0.70911 0.31134 0.46315 -0.18900
C 	C 	0.79058 0.33660 0.43473 0.01100
N 	N 	0.70369 0.33327 0.43549 -0.09900
C 	C 	0.82010 0.32483 0.41721 0.02700
H 	H 	0.77630 0.35680 0.42790 0.00600
C 	C 	0.83719 0.33950 0.38449 0.05400
C 	C 	0.86777 0.32321 0.37005 -0.11200
H 	H 	0.87740 0.30220 0.38120 0.06900
N 	N 	0.28458 0.81541 0.46313 -0.22000
N 	N 	0.20911 0.81134 0.46315 -0.18900
C 	C 	0.29058 0.83660 0.43473 0.01100
N 	N 	0.20369 0.83327 0.43549 -0.09900
C 	C 	0.32010 0.82483 0.41721 0.02700
H 	H 	0.27630 0.85680 0.42790 0.00700
C 	C 	0.33719 0.83950 0.38449 0.05400
C 	C 	0.36777 0.82321 0.37005 -0.11200
H 	H 	0.37740 0.80220 0.38120 0.06800
N 	N 	0.28458 0.31541 0.96313 -0.21400
N 	N 	0.20911 0.31134 0.96315 -0.18300
C 	C 	0.29058 0.33660 0.93473 0.01200
N 	N 	0.20369 0.33327 0.93549 -0.09700
C 	C 	0.32010 0.32483 0.91721 0.02800
H 	H 	0.27630 0.35680 0.92790 0.00800
C 	C 	0.33719 0.33950 0.88449 0.05400
C 	C 	0.36777 0.32321 0.87005 -0.11200
H 	H 	0.37740 0.30220 0.88120 0.06900
N 	N 	0.21542 0.18459 0.96313 -0.21400
N 	N 	0.29089 0.18866 0.96315 -0.18300
C 	C 	0.20942 0.16340 0.93473 0.01100
N 	N 	0.29631 0.16673 0.93549 -0.09800
C 	C 	0.17990 0.17517 0.91721 0.02700
H 	H 	0.22370 0.14320 0.92790 0.00700
C 	C 	0.16281 0.16050 0.88449 0.05300
C 	C 	0.13223 0.17679 0.87005 -0.11200
H 	H 	0.12260 0.19780 0.88120 0.06800
N 	N 	0.21542 0.68459 0.46313 -0.22100
N 	N 	0.29089 0.68866 0.46315 -0.18900
C 	C 	0.20942 0.66340 0.43473 0.01100
N 	N 	0.29631 0.66673 0.43549 -0.09900
C 	C 	0.17990 0.67517 0.41721 0.02600
H 	H 	0.22370 0.64320 0.42790 0.00500
C 	C 	0.16281 0.66050 0.38449 0.05200
C 	C 	0.13223 0.67679 0.37005 -0.11200
H 	H 	0.12260 0.69780 0.38120 0.06700
N 	N 	0.71542 0.18459 0.46313 -0.22100
N 	N 	0.79089 0.18866 0.46315 -0.19000
C 	C 	0.70942 0.16340 0.43473 0.01000
N 	N 	0.79631 0.16673 0.43549 -0.09900
C 	C 	0.67990 0.17517 0.41721 0.02600
H 	H 	0.72370 0.14320 0.42790 0.00500
C 	C 	0.66281 0.16050 0.38449 0.05200
C 	C 	0.63223 0.17679 0.37005 -0.11200
H 	H 	0.62260 0.19780 0.38120 0.06800
N 	N 	0.71542 0.68459 0.96313 -0.21400
N 	N 	0.79089 0.68866 0.96315 -0.18300
C 	C 	0.70942 0.66340 0.93473 0.01200
N 	N 	0.79631 0.66673 0.93549 -0.09700
C 	C 	0.67990 0.67517 0.91721 0.02700
H 	H 	0.72370 0.64320 0.92790 0.00800
C 	C 	0.66281 0.66050 0.88449 0.05400
C 	C 	0.63223 0.67679 0.87005 -0.11200
H 	H 	0.62260 0.69780 0.88120 0.06900
N 	N 	0.78458 0.18459 0.03687 -0.22300
N 	N 	0.70911 0.18866 0.03685 -0.19200
C 	C 	0.79058 0.16340 0.06527 0.01000
N 	N 	0.70369 0.16673 0.06451 -0.10100
C 	C 	0.82010 0.17517 0.08279 0.02500
H 	H 	0.77630 0.14320 0.07210 0.00300
C 	C 	0.83719 0.16050 0.11551 0.05200
C 	C 	0.86777 0.17679 0.12995 -0.11200
H 	H 	0.87740 0.19780 0.11880 0.06800
N 	N 	0.78458 0.68459 0.53687 -0.22000
N 	N 	0.70911 0.68866 0.53685 -0.19000
C 	C 	0.79058 0.66340 0.56527 0.01100
N 	N 	0.70369 0.66673 0.56451 -0.09900
C 	C 	0.82010 0.67517 0.58279 0.02600
H 	H 	0.77630 0.64320 0.57210 0.00600
C 	C 	0.83719 0.66050 0.61551 0.05400
C 	C 	0.86777 0.67679 0.62995 -0.11200
H 	H 	0.87740 0.69780 0.61880 0.06900
N 	N 	0.28458 0.18459 0.53687 -0.22100
N 	N 	0.20911 0.18866 0.53685 -0.19000
C 	C 	0.29058 0.16340 0.56527 0.01100
N 	N 	0.20369 0.16673 0.56451 -0.10000
C 	C 	0.32010 0.17517 0.58279 0.02600
H 	H 	0.27630 0.14320 0.57210 0.00500
C 	C 	0.33719 0.16050 0.61551 0.05200
C 	C 	0.36777 0.17679 0.62995 -0.11200
H 	H 	0.37740 0.19780 0.61880 0.06800
N 	N 	0.28458 0.68459 0.03687 -0.22300
N 	N 	0.20911 0.68866 0.03685 -0.19200
C 	C 	0.29058 0.66340 0.06527 0.01000
N 	N 	0.20369 0.66673 0.06451 -0.10000
C 	C 	0.32010 0.67517 0.08279 0.02500
H 	H 	0.27630 0.64320 0.07210 0.00400
C 	C 	0.33719 0.66050 0.11551 0.05200
C 	C 	0.36777 0.67679 0.12995 -0.11200
H 	H 	0.37740 0.69780 0.11880 0.06700
N 	N 	0.21542 0.81541 0.03687 -0.22200
N 	N 	0.29089 0.81134 0.03685 -0.19100
C 	C 	0.20942 0.83660 0.06527 0.01000
N 	N 	0.29631 0.83327 0.06451 -0.10000
C 	C 	0.17990 0.82483 0.08279 0.02600
H 	H 	0.22370 0.85680 0.07210 0.00500
C 	C 	0.16281 0.83950 0.11551 0.05200
C 	C 	0.13223 0.82321 0.12995 -0.11200
H 	H 	0.12260 0.80220 0.11880 0.06700
N 	N 	0.21542 0.31541 0.53687 -0.22100
N 	N 	0.29089 0.31134 0.53685 -0.18900
C 	C 	0.20942 0.33660 0.56527 0.01100
N 	N 	0.29631 0.33327 0.56451 -0.09900
C 	C 	0.17990 0.32483 0.58279 0.02600
H 	H 	0.22370 0.35680 0.57210 0.00500
C 	C 	0.16281 0.33950 0.61551 0.05200
C 	C 	0.13223 0.32321 0.62995 -0.11200
H 	H 	0.12260 0.30220 0.61880 0.06700
N 	N 	0.71542 0.81541 0.53687 -0.22000
N 	N 	0.79089 0.81134 0.53685 -0.18900
C 	C 	0.70942 0.83660 0.56527 0.01100
N 	N 	0.79631 0.83327 0.56451 -0.09800
C 	C 	0.67990 0.82483 0.58279 0.02700
H 	H 	0.72370 0.85680 0.57210 0.00700
C 	C 	0.66281 0.83950 0.61551 0.05400
C 	C 	0.63223 0.82321 0.62995 -0.11200
H 	H 	0.62260 0.80220 0.61880 0.06800
N 	N 	0.71542 0.31541 0.03687 -0.22300
N 	N 	0.79089 0.31134 0.03685 -0.19200
C 	C 	0.70942 0.33660 0.06527 0.01000
N 	N 	0.79631 0.33327 0.06451 -0.10000
C 	C 	0.67990 0.32483 0.08279 0.02500
H 	H 	0.72370 0.35680 0.07210 0.00400
C 	C 	0.66281 0.33950 0.11551 0.05200
C 	C 	0.63223 0.32321 0.12995 -0.11200
H 	H 	0.62260 0.30220 0.11880 0.06700
N 	N 	0.81541 0.03687 0.21542 -0.22200
N 	N 	0.81134 0.03685 0.29089 -0.19100
C 	C 	0.83660 0.06527 0.20942 0.01000
N 	N 	0.83327 0.06451 0.29631 -0.10000
C 	C 	0.82483 0.08279 0.17990 0.02600
H 	H 	0.85680 0.07210 0.22370 0.00500
C 	C 	0.83950 0.11551 0.16281 0.05200
C 	C 	0.82321 0.12995 0.13223 -0.11200
H 	H 	0.80220 0.11880 0.12260 0.06700
N 	N 	0.81541 0.53687 0.71542 -0.22000
N 	N 	0.81134 0.53685 0.79089 -0.18900
C 	C 	0.83660 0.56527 0.70942 0.01100
N 	N 	0.83327 0.56451 0.79631 -0.09800
C 	C 	0.82483 0.58279 0.67990 0.02700
H 	H 	0.85680 0.57210 0.72370 0.00700
C 	C 	0.83950 0.61551 0.66281 0.05400
C 	C 	0.82321 0.62995 0.63223 -0.11200
H 	H 	0.80220 0.61880 0.62260 0.06800
N 	N 	0.31541 0.03687 0.71542 -0.22300
N 	N 	0.31134 0.03685 0.79089 -0.19200
C 	C 	0.33660 0.06527 0.70942 0.01000
N 	N 	0.33327 0.06451 0.79631 -0.10000
C 	C 	0.32483 0.08279 0.67990 0.02500
H 	H 	0.35680 0.07210 0.72370 0.00400
C 	C 	0.33950 0.11551 0.66281 0.05200
C 	C 	0.32321 0.12995 0.63223 -0.11200
H 	H 	0.30220 0.11880 0.62260 0.06700
N 	N 	0.31541 0.53687 0.21542 -0.22100
N 	N 	0.31134 0.53685 0.29089 -0.18900
C 	C 	0.33660 0.56527 0.20942 0.01100
N 	N 	0.33327 0.56451 0.29631 -0.09900
C 	C 	0.32483 0.58279 0.17990 0.02600
H 	H 	0.35680 0.57210 0.22370 0.00500
C 	C 	0.33950 0.61551 0.16281 0.05200
C 	C 	0.32321 0.62995 0.13223 -0.11200
H 	H 	0.30220 0.61880 0.12260 0.06700
N 	N 	0.18459 0.03687 0.78458 -0.22300
N 	N 	0.18866 0.03685 0.70911 -0.19200
C 	C 	0.16340 0.06527 0.79058 0.01000
N 	N 	0.16673 0.06451 0.70369 -0.10100
C 	C 	0.17517 0.08279 0.82010 0.02500
H 	H 	0.14320 0.07210 0.77630 0.00300
C 	C 	0.16050 0.11551 0.83719 0.05200
C 	C 	0.17679 0.12995 0.86777 -0.11200
H 	H 	0.19780 0.11880 0.87740 0.06800
N 	N 	0.18459 0.53687 0.28458 -0.22100
N 	N 	0.18866 0.53685 0.20911 -0.19000
C 	C 	0.16340 0.56527 0.29058 0.01100
N 	N 	0.16673 0.56451 0.20369 -0.10000
C 	C 	0.17517 0.58279 0.32010 0.02600
H 	H 	0.14320 0.57210 0.27630 0.00500
C 	C 	0.16050 0.61551 0.33719 0.05200
C 	C 	0.17679 0.62995 0.36777 -0.11200
H 	H 	0.19780 0.61880 0.37740 0.06800
N 	N 	0.68459 0.03687 0.28458 -0.22300
N 	N 	0.68866 0.03685 0.20911 -0.19200
C 	C 	0.66340 0.06527 0.29058 0.01000
N 	N 	0.66673 0.06451 0.20369 -0.10000
C 	C 	0.67517 0.08279 0.32010 0.02500
H 	H 	0.64320 0.07210 0.27630 0.00400
C 	C 	0.66050 0.11551 0.33719 0.05200
C 	C 	0.67679 0.12995 0.36777 -0.11200
H 	H 	0.69780 0.11880 0.37740 0.06700
N 	N 	0.68459 0.53687 0.78458 -0.22000
N 	N 	0.68866 0.53685 0.70911 -0.19000
C 	C 	0.66340 0.56527 0.79058 0.01100
N 	N 	0.66673 0.56451 0.70369 -0.09900
C 	C 	0.67517 0.58279 0.82010 0.02600
H 	H 	0.64320 0.57210 0.77630 0.00600
C 	C 	0.66050 0.61551 0.83719 0.05400
C 	C 	0.67679 0.62995 0.86777 -0.11200
H 	H 	0.69780 0.61880 0.87740 0.06900
N 	N 	0.18459 0.96313 0.21542 -0.21400
N 	N 	0.18866 0.96315 0.29089 -0.18300
C 	C 	0.16340 0.93473 0.20942 0.01100
N 	N 	0.16673 0.93549 0.29631 -0.09800
C 	C 	0.17517 0.91721 0.17990 0.02700
H 	H 	0.14320 0.92790 0.22370 0.00700
C 	C 	0.16050 0.88449 0.16281 0.05300
C 	C 	0.17679 0.87005 0.13223 -0.11200
H 	H 	0.19780 0.88120 0.12260 0.06800
N 	N 	0.18459 0.46313 0.71542 -0.22100
N 	N 	0.18866 0.46315 0.79089 -0.19000
C 	C 	0.16340 0.43473 0.70942 0.01000
N 	N 	0.16673 0.43549 0.79631 -0.09900
C 	C 	0.17517 0.41721 0.67990 0.02600
H 	H 	0.14320 0.42790 0.72370 0.00500
C 	C 	0.16050 0.38449 0.66281 0.05200
C 	C 	0.17679 0.37005 0.63223 -0.11200
H 	H 	0.19780 0.38120 0.62260 0.06800
N 	N 	0.68459 0.96313 0.71542 -0.21400
N 	N 	0.68866 0.96315 0.79089 -0.18300
C 	C 	0.66340 0.93473 0.70942 0.01200
N 	N 	0.66673 0.93549 0.79631 -0.09700
C 	C 	0.67517 0.91721 0.67990 0.02700
H 	H 	0.64320 0.92790 0.72370 0.00800
C 	C 	0.66050 0.88449 0.66281 0.05400
C 	C 	0.67679 0.87005 0.63223 -0.11200
H 	H 	0.69780 0.88120 0.62260 0.06900
N 	N 	0.68459 0.46313 0.21542 -0.22100
N 	N 	0.68866 0.46315 0.29089 -0.18900
C 	C 	0.66340 0.43473 0.20942 0.01100
N 	N 	0.66673 0.43549 0.29631 -0.09900
C 	C 	0.67517 0.41721 0.17990 0.02600
H 	H 	0.64320 0.42790 0.22370 0.00500
C 	C 	0.66050 0.38449 0.16281 0.05200
C 	C 	0.67679 0.37005 0.13223 -0.11200
H 	H 	0.69780 0.38120 0.12260 0.06700
N 	N 	0.81541 0.96313 0.78458 -0.21300
N 	N 	0.81134 0.96315 0.70911 -0.18300
C 	C 	0.83660 0.93473 0.79058 0.01200
N 	N 	0.83327 0.93549 0.70369 -0.09700
C 	C 	0.82483 0.91721 0.82010 0.02800
H 	H 	0.85680 0.92790 0.77630 0.00900
C 	C 	0.83950 0.88449 0.83719 0.05500
C 	C 	0.82321 0.87005 0.86777 -0.11200
H 	H 	0.80220 0.88120 0.87740 0.07000
N 	N 	0.81541 0.46313 0.28458 -0.22000
N 	N 	0.81134 0.46315 0.20911 -0.18900
C 	C 	0.83660 0.43473 0.29058 0.01100
N 	N 	0.83327 0.43549 0.20369 -0.09900
C 	C 	0.82483 0.41721 0.32010 0.02700
H 	H 	0.85680 0.42790 0.27630 0.00700
C 	C 	0.83950 0.38449 0.33719 0.05400
C 	C 	0.82321 0.37005 0.36777 -0.11200
H 	H 	0.80220 0.38120 0.37740 0.06800
N 	N 	0.31541 0.96313 0.28458 -0.21400
N 	N 	0.31134 0.96315 0.20911 -0.18300
C 	C 	0.33660 0.93473 0.29058 0.01200
N 	N 	0.33327 0.93549 0.20369 -0.09700
C 	C 	0.32483 0.91721 0.32010 0.02800
H 	H 	0.35680 0.92790 0.27630 0.00800
C 	C 	0.33950 0.88449 0.33719 0.05400
C 	C 	0.32321 0.87005 0.36777 -0.11200
H 	H 	0.30220 0.88120 0.37740 0.06900
N 	N 	0.31541 0.46313 0.78458 -0.22000
N 	N 	0.31134 0.46315 0.70911 -0.18900
C 	C 	0.33660 0.43473 0.79058 0.01100
N 	N 	0.33327 0.43549 0.70369 -0.09900
C 	C 	0.32483 0.41721 0.82010 0.02700
H 	H 	0.35680 0.42790 0.77630 0.00600
C 	C 	0.33950 0.38449 0.83719 0.05400
C 	C 	0.32321 0.37005 0.86777 -0.11200
H 	H 	0.30220 0.38120 0.87740 0.06900
N 	N 	0.03687 0.78458 0.18459 -0.22300
N 	N 	0.03685 0.70911 0.18866 -0.19200
C 	C 	0.06527 0.79058 0.16340 0.01000
N 	N 	0.06451 0.70369 0.16673 -0.10100
C 	C 	0.08279 0.82010 0.17517 0.02500
H 	H 	0.07210 0.77630 0.14320 0.00300
C 	C 	0.11551 0.83719 0.16050 0.05200
C 	C 	0.12995 0.86777 0.17679 -0.11200
H 	H 	0.11880 0.87740 0.19780 0.06800
N 	N 	0.03687 0.28458 0.68459 -0.22300
N 	N 	0.03685 0.20911 0.68866 -0.19200
C 	C 	0.06527 0.29058 0.66340 0.01000
N 	N 	0.06451 0.20369 0.66673 -0.10000
C 	C 	0.08279 0.32010 0.67517 0.02500
H 	H 	0.07210 0.27630 0.64320 0.00400
C 	C 	0.11551 0.33719 0.66050 0.05200
C 	C 	0.12995 0.36777 0.67679 -0.11200
H 	H 	0.11880 0.37740 0.69780 0.06700
N 	N 	0.53687 0.78458 0.68459 -0.22000
N 	N 	0.53685 0.70911 0.68866 -0.19000
C 	C 	0.56527 0.79058 0.66340 0.01100
N 	N 	0.56451 0.70369 0.66673 -0.09900
C 	C 	0.58279 0.82010 0.67517 0.02600
H 	H 	0.57210 0.77630 0.64320 0.00600
C 	C 	0.61551 0.83719 0.66050 0.05400
C 	C 	0.62995 0.86777 0.67679 -0.11200
H 	H 	0.61880 0.87740 0.69780 0.06900
N 	N 	0.53687 0.28458 0.18459 -0.22100
N 	N 	0.53685 0.20911 0.18866 -0.19000
C 	C 	0.56527 0.29058 0.16340 0.01100
N 	N 	0.56451 0.20369 0.16673 -0.10000
C 	C 	0.58279 0.32010 0.17517 0.02600
H 	H 	0.57210 0.27630 0.14320 0.00500
C 	C 	0.61551 0.33719 0.16050 0.05200
C 	C 	0.62995 0.36777 0.17679 -0.11200
H 	H 	0.61880 0.37740 0.19780 0.06800
N 	N 	0.03687 0.21542 0.81541 -0.22200
N 	N 	0.03685 0.29089 0.81134 -0.19100
C 	C 	0.06527 0.20942 0.83660 0.01000
N 	N 	0.06451 0.29631 0.83327 -0.10000
C 	C 	0.08279 0.17990 0.82483 0.02600
H 	H 	0.07210 0.22370 0.85680 0.00500
C 	C 	0.11551 0.16281 0.83950 0.05200
C 	C 	0.12995 0.13223 0.82321 -0.11200
H 	H 	0.11880 0.12260 0.80220 0.06700
N 	N 	0.03687 0.71542 0.31541 -0.22300
N 	N 	0.03685 0.79089 0.31134 -0.19200
C 	C 	0.06527 0.70942 0.33660 0.01000
N 	N 	0.06451 0.79631 0.33327 -0.10000
C 	C 	0.08279 0.67990 0.32483 0.02500
H 	H 	0.07210 0.72370 0.35680 0.00400
C 	C 	0.11551 0.66281 0.33950 0.05200
C 	C 	0.12995 0.63223 0.32321 -0.11200
H 	H 	0.11880 0.62260 0.30220 0.06700
N 	N 	0.53687 0.21542 0.31541 -0.22100
N 	N 	0.53685 0.29089 0.31134 -0.18900
C 	C 	0.56527 0.20942 0.33660 0.01100
N 	N 	0.56451 0.29631 0.33327 -0.09900
C 	C 	0.58279 0.17990 0.32483 0.02600
H 	H 	0.57210 0.22370 0.35680 0.00500
C 	C 	0.61551 0.16281 0.33950 0.05200
C 	C 	0.62995 0.13223 0.32321 -0.11200
H 	H 	0.61880 0.12260 0.30220 0.06700
N 	N 	0.53687 0.71542 0.81541 -0.22000
N 	N 	0.53685 0.79089 0.81134 -0.18900
C 	C 	0.56527 0.70942 0.83660 0.01100
N 	N 	0.56451 0.79631 0.83327 -0.09800
C 	C 	0.58279 0.67990 0.82483 0.02700
H 	H 	0.57210 0.72370 0.85680 0.00700
C 	C 	0.61551 0.66281 0.83950 0.05400
C 	C 	0.62995 0.63223 0.82321 -0.11200
H 	H 	0.61880 0.62260 0.80220 0.06800
N 	N 	0.96313 0.78458 0.81541 -0.21300
N 	N 	0.96315 0.70911 0.81134 -0.18300
C 	C 	0.93473 0.79058 0.83660 0.01200
N 	N 	0.93549 0.70369 0.83327 -0.09700
C 	C 	0.91721 0.82010 0.82483 0.02800
H 	H 	0.92790 0.77630 0.85680 0.00900
C 	C 	0.88449 0.83719 0.83950 0.05500
C 	C 	0.87005 0.86777 0.82321 -0.11200
H 	H 	0.88120 0.87740 0.80220 0.07000
N 	N 	0.96313 0.28458 0.31541 -0.21400
N 	N 	0.96315 0.20911 0.31134 -0.18300
C 	C 	0.93473 0.29058 0.33660 0.01200
N 	N 	0.93549 0.20369 0.33327 -0.09700
C 	C 	0.91721 0.32010 0.32483 0.02800
H 	H 	0.92790 0.27630 0.35680 0.00800
C 	C 	0.88449 0.33719 0.33950 0.05400
C 	C 	0.87005 0.36777 0.32321 -0.11200
H 	H 	0.88120 0.37740 0.30220 0.06900
N 	N 	0.46313 0.78458 0.31541 -0.22000
N 	N 	0.46315 0.70911 0.31134 -0.18900
C 	C 	0.43473 0.79058 0.33660 0.01100
N 	N 	0.43549 0.70369 0.33327 -0.09900
C 	C 	0.41721 0.82010 0.32483 0.02700
H 	H 	0.42790 0.77630 0.35680 0.00600
C 	C 	0.38449 0.83719 0.33950 0.05400
C 	C 	0.37005 0.86777 0.32321 -0.11200
H 	H 	0.38120 0.87740 0.30220 0.06900
N 	N 	0.46313 0.28458 0.81541 -0.22000
N 	N 	0.46315 0.20911 0.81134 -0.18900
C 	C 	0.43473 0.29058 0.83660 0.01100
N 	N 	0.43549 0.20369 0.83327 -0.09900
C 	C 	0.41721 0.32010 0.82483 0.02700
H 	H 	0.42790 0.27630 0.85680 0.00700
C 	C 	0.38449 0.33719 0.83950 0.05400
C 	C 	0.37005 0.36777 0.82321 -0.11200
H 	H 	0.38120 0.37740 0.80220 0.06800
N 	N 	0.96313 0.21542 0.18459 -0.21400
N 	N 	0.96315 0.29089 0.18866 -0.18300
C 	C 	0.93473 0.20942 0.16340 0.01100
N 	N 	0.93549 0.29631 0.16673 -0.09800
C 	C 	0.91721 0.17990 0.17517 0.02700
H 	H 	0.92790 0.22370 0.14320 0.00700
C 	C 	0.88449 0.16281 0.16050 0.05300
C 	C 	0.87005 0.13223 0.17679 -0.11200
H 	H 	0.88120 0.12260 0.19780 0.06800
N 	N 	0.96313 0.71542 0.68459 -0.21400
N 	N 	0.96315 0.79089 0.68866 -0.18300
C 	C 	0.93473 0.70942 0.66340 0.01200
N 	N 	0.93549 0.79631 0.66673 -0.09700
C 	C 	0.91721 0.67990 0.67517 0.02700
H 	H 	0.92790 0.72370 0.64320 0.00800
C 	C 	0.88449 0.66281 0.66050 0.05400
C 	C 	0.87005 0.63223 0.67679 -0.11200
H 	H 	0.88120 0.62260 0.69780 0.06900
N 	N 	0.46313 0.21542 0.68459 -0.22100
N 	N 	0.46315 0.29089 0.68866 -0.18900
C 	C 	0.43473 0.20942 0.66340 0.01100
N 	N 	0.43549 0.29631 0.66673 -0.09900
C 	C 	0.41721 0.17990 0.67517 0.02600
H 	H 	0.42790 0.22370 0.64320 0.00500
C 	C 	0.38449 0.16281 0.66050 0.05200
C 	C 	0.37005 0.13223 0.67679 -0.11200
H 	H 	0.38120 0.12260 0.69780 0.06700
N 	N 	0.46313 0.71542 0.18459 -0.22100
N 	N 	0.46315 0.79089 0.18866 -0.19000
C 	C 	0.43473 0.70942 0.16340 0.01000
N 	N 	0.43549 0.79631 0.16673 -0.09900
C 	C 	0.41721 0.67990 0.17517 0.02600
H 	H 	0.42790 0.72370 0.14320 0.00500
C 	C 	0.38449 0.66281 0.16050 0.05200
C 	C 	0.37005 0.63223 0.17679 -0.11200
H 	H 	0.38120 0.62260 0.19780 0.06800
Co	Co	0.68434 0.75298 0.50000 1.13000
Co	Co	0.68434 0.25298 -0.00000 1.12200
Co	Co	0.18434 0.75298 -0.00000 1.12200
Co	Co	0.18434 0.25298 0.50000 1.13000
Co	Co	0.31566 0.24702 0.50000 1.13000
Co	Co	0.31566 0.74702 -0.00000 1.12200
Co	Co	0.81566 0.24702 -0.00000 1.12300
Co	Co	0.81566 0.74702 0.50000 1.13100
Co	Co	0.31566 0.75298 0.50000 1.13000
Co	Co	0.31566 0.25298 -0.00000 1.12200
Co	Co	0.81566 0.75298 -0.00000 1.12300
Co	Co	0.81566 0.25298 0.50000 1.13000
Co	Co	0.68434 0.24702 0.50000 1.13000
Co	Co	0.68434 0.74702 -0.00000 1.12200
Co	Co	0.18434 0.24702 -0.00000 1.12200
Co	Co	0.18434 0.74702 0.50000 1.13000
Co	Co	0.50000 0.68434 0.75298 1.13000
Co	Co	0.50000 0.18434 0.25298 1.13000
Co	Co	-0.00000 0.68434 0.25298 1.12200
Co	Co	0.00000 0.18434 0.75298 1.12200
Co	Co	0.50000 0.31566 0.24702 1.13000
Co	Co	0.50000 0.81566 0.74702 1.13100
Co	Co	-0.00000 0.31566 0.74702 1.12200
Co	Co	0.00000 0.81566 0.24702 1.12300
Co	Co	0.50000 0.31566 0.75298 1.13000
Co	Co	0.50000 0.81566 0.25298 1.13000
Co	Co	0.00000 0.31566 0.25298 1.12200
Co	Co	0.00000 0.81566 0.75298 1.12300
Co	Co	0.50000 0.68434 0.24702 1.13000
Co	Co	0.50000 0.18434 0.74702 1.13000
Co	Co	0.00000 0.68434 0.74702 1.12200
Co	Co	-0.00000 0.18434 0.24702 1.12200
Co	Co	0.75298 0.50000 0.68434 1.13000
Co	Co	0.75298 0.00000 0.18434 1.12200
Co	Co	0.25298 0.50000 0.18434 1.13000
Co	Co	0.25298 -0.00000 0.68434 1.12200
Co	Co	0.24702 0.50000 0.31566 1.13000
Co	Co	0.24702 0.00000 0.81566 1.12300
Co	Co	0.74702 0.50000 0.81566 1.13100
Co	Co	0.74702 0.00000 0.31566 1.12200
Co	Co	0.75298 0.50000 0.31566 1.13000
Co	Co	0.75298 0.00000 0.81566 1.12300
Co	Co	0.25298 0.50000 0.81566 1.13000
Co	Co	0.25298 0.00000 0.31566 1.12200
Co	Co	0.24702 0.50000 0.68434 1.13000
Co	Co	0.24702 0.00000 0.18434 1.12200
Co	Co	0.74702 0.50000 0.18434 1.13000
Co	Co	0.74702 -0.00000 0.68434 1.12200
Co	Co	0.25298 0.18434 -0.00000 1.12200
Co	Co	0.25298 0.68434 0.50000 1.13000
Co	Co	0.75298 0.18434 0.50000 1.13000
Co	Co	0.75298 0.68434 -0.00000 1.12200
Co	Co	0.74702 0.81566 -0.00000 1.12300
Co	Co	0.74702 0.31566 0.50000 1.13000
Co	Co	0.24702 0.81566 0.50000 1.13000
Co	Co	0.24702 0.31566 -0.00000 1.12200
Co	Co	0.25298 0.81566 -0.00000 1.12300
Co	Co	0.25298 0.31566 0.50000 1.13000
Co	Co	0.75298 0.81566 0.50000 1.13100
Co	Co	0.75298 0.31566 -0.00000 1.12200
Co	Co	0.74702 0.18434 -0.00000 1.12200
Co	Co	0.74702 0.68434 0.50000 1.13000
Co	Co	0.24702 0.18434 0.50000 1.13000
Co	Co	0.24702 0.68434 -0.00000 1.12200
Co	Co	0.18434 0.00000 0.74702 1.12200
Co	Co	0.18434 0.50000 0.24702 1.13000
Co	Co	0.68434 0.00000 0.24702 1.12200
Co	Co	0.68434 0.50000 0.74702 1.13000
Co	Co	0.81566 -0.00000 0.25298 1.12300
Co	Co	0.81566 0.50000 0.75298 1.13100
Co	Co	0.31566 0.00000 0.75298 1.12200
Co	Co	0.31566 0.50000 0.25298 1.13000
Co	Co	0.81566 0.00000 0.74702 1.12300
Co	Co	0.81566 0.50000 0.24702 1.13000
Co	Co	0.31566 0.00000 0.24702 1.12200
Co	Co	0.31566 0.50000 0.74702 1.13000
Co	Co	0.18434 -0.00000 0.25298 1.12200
Co	Co	0.18434 0.50000 0.75298 1.13000
Co	Co	0.68434 0.00000 0.75298 1.12200
Co	Co	0.68434 0.50000 0.25298 1.13000
Co	Co	0.00000 0.25298 0.81566 1.12300
Co	Co	0.00000 0.75298 0.31566 1.12200
Co	Co	0.50000 0.25298 0.31566 1.13000
Co	Co	0.50000 0.75298 0.81566 1.13100
Co	Co	0.00000 0.74702 0.18434 1.12200
Co	Co	-0.00000 0.24702 0.68434 1.12200
Co	Co	0.50000 0.74702 0.68434 1.13000
Co	Co	0.50000 0.24702 0.18434 1.13000
Co	Co	0.00000 0.25298 0.18434 1.12200
Co	Co	0.00000 0.75298 0.68434 1.12200
Co	Co	0.50000 0.25298 0.68434 1.13000
Co	Co	0.50000 0.75298 0.18434 1.13000
Co	Co	0.00000 0.74702 0.81566 1.12300
Co	Co	0.00000 0.24702 0.31566 1.12200
Co	Co	0.50000 0.74702 0.31566 1.13000
Co	Co	0.50000 0.24702 0.81566 1.13000
Cl	Cl	0.75000 0.75000 0.50000 -0.86400
Cl	Cl	0.25000 0.25000 0.50000 -0.86300
Cl	Cl	0.25000 0.75000 0.50000 -0.86300
Cl	Cl	0.75000 0.25000 0.50000 -0.86300
Cl	Cl	0.50000 0.75000 0.75000 -0.86400
Cl	Cl	0.50000 0.25000 0.25000 -0.86300
Cl	Cl	0.50000 0.25000 0.75000 -0.86300
Cl	Cl	0.50000 0.75000 0.25000 -0.86300
Cl	Cl	0.75000 0.50000 0.75000 -0.86400
Cl	Cl	0.25000 0.50000 0.25000 -0.86300
Cl	Cl	0.75000 0.50000 0.25000 -0.86300
Cl	Cl	0.25000 0.50000 0.75000 -0.86300
Cl	Cl	0.25000 0.25000 -0.00000 -0.87600
Cl	Cl	0.75000 0.75000 -0.00000 -0.87600
Cl	Cl	0.25000 0.75000 -0.00000 -0.87600
Cl	Cl	0.75000 0.25000 -0.00000 -0.87600
Cl	Cl	0.25000 0.00000 0.75000 -0.87600
Cl	Cl	0.75000 0.00000 0.25000 -0.87600
Cl	Cl	0.75000 0.00000 0.75000 -0.87600
Cl	Cl	0.25000 0.00000 0.25000 -0.87600
Cl	Cl	0.00000 0.25000 0.75000 -0.87600
Cl	Cl	-0.00000 0.75000 0.25000 -0.87600
Cl	Cl	0.00000 0.25000 0.25000 -0.87600
Cl	Cl	0.00000 0.75000 0.75000 -0.87600
