data_crystal

_cell_length_a 37.06680
_cell_length_b 37.06680
_cell_length_c 37.06680
_cell_angle_alpha 90.00000
_cell_angle_beta  90.00000
_cell_angle_gamma 90.00000

_symmetry_space_group_name_	'P 1'
_symmetry_space_group_name_H-M	'P 1'

loop_
_symmetry_equiv_pos_as_xyz
  x,y,z

loop_
_atom_site_label
_atom_site_type_symbol
_atom_site_fract_x
_atom_site_fract_y
_atom_site_fract_z
_atom_site_charge
N 	N 	0.28391 0.53665 0.31591 -0.38200
N 	N 	0.31070 0.53650 0.29175 -0.34300
C 	C 	0.32027 0.58208 0.32626 -0.51800
C 	C 	0.33780 0.61453 0.34077 0.25700
C 	C 	0.32421 0.63158 0.37132 -0.28600
H 	H 	0.30330 0.62220 0.38270 0.02300
C 	C 	0.33304 0.56378 0.29722 0.39900
C 	C 	0.28932 0.56494 0.33743 0.57500
H 	H 	0.27440 0.57200 0.35700 -0.85700
Co	Co	0.24830 0.57260 0.36408 1.31200
H 	H 	0.35390 0.56950 0.28350 -0.57300
N 	N 	0.29722 0.66696 0.43622 -0.01800
N 	N 	0.28391 0.03665 0.81591 -0.38400
N 	N 	0.31070 0.03650 0.79175 -0.34500
C 	C 	0.32027 0.08208 0.82626 -0.51800
C 	C 	0.33780 0.11453 0.84077 0.25700
C 	C 	0.32421 0.13158 0.87132 -0.28600
H 	H 	0.30330 0.12220 0.88270 0.02300
C 	C 	0.33304 0.06378 0.79722 0.39800
C 	C 	0.28932 0.06494 0.83743 0.57400
H 	H 	0.27440 0.07200 0.85700 -0.85700
Co	Co	0.24830 0.07260 0.86408 1.31200
H 	H 	0.35390 0.06950 0.78350 -0.57400
N 	N 	0.29722 0.16696 0.93622 -0.01800
N 	N 	0.78391 0.53665 0.81591 -0.38200
N 	N 	0.81070 0.53650 0.79175 -0.34300
C 	C 	0.82027 0.58208 0.82626 -0.51700
C 	C 	0.83780 0.61453 0.84077 0.25800
C 	C 	0.82421 0.63158 0.87132 -0.28600
H 	H 	0.80330 0.62220 0.88270 0.02400
C 	C 	0.83304 0.56378 0.79722 0.40000
C 	C 	0.78932 0.56494 0.83743 0.57500
H 	H 	0.77440 0.57200 0.85700 -0.85800
Co	Co	0.74830 0.57260 0.86408 1.31200
H 	H 	0.85390 0.56950 0.78350 -0.57300
N 	N 	0.79722 0.66696 0.93622 -0.01900
N 	N 	0.78391 0.03665 0.31591 -0.38500
N 	N 	0.81070 0.03650 0.29175 -0.34600
C 	C 	0.82027 0.08208 0.32626 -0.51900
C 	C 	0.83780 0.11453 0.34077 0.25600
C 	C 	0.82421 0.13158 0.37132 -0.28700
H 	H 	0.80330 0.12220 0.38270 0.02100
C 	C 	0.83304 0.06378 0.29722 0.39700
C 	C 	0.78932 0.06494 0.33743 0.57300
H 	H 	0.77440 0.07200 0.35700 -0.85900
Co	Co	0.74830 0.07260 0.36408 1.31000
H 	H 	0.85390 0.06950 0.28350 -0.57400
N 	N 	0.79722 0.16696 0.43622 -0.01900
N 	N 	0.71609 0.46335 0.31591 -0.38300
N 	N 	0.68930 0.46350 0.29175 -0.34500
C 	C 	0.67973 0.41792 0.32626 -0.51900
C 	C 	0.66220 0.38547 0.34077 0.25600
C 	C 	0.67579 0.36842 0.37132 -0.28700
H 	H 	0.69670 0.37780 0.38270 0.02200
C 	C 	0.66696 0.43622 0.29722 0.39800
C 	C 	0.71068 0.43506 0.33743 0.57400
H 	H 	0.72560 0.42800 0.35700 -0.85800
Co	Co	0.75170 0.42740 0.36408 1.31200
H 	H 	0.64610 0.43050 0.28350 -0.57400
N 	N 	0.70278 0.33304 0.43622 -0.01900
N 	N 	0.71609 0.96335 0.81591 -0.37700
N 	N 	0.68930 0.96350 0.79175 -0.33800
C 	C 	0.67973 0.91792 0.82626 -0.51800
C 	C 	0.66220 0.88547 0.84077 0.25800
C 	C 	0.67579 0.86842 0.87132 -0.28600
H 	H 	0.69670 0.87780 0.88270 0.02300
C 	C 	0.66696 0.93622 0.79722 0.40000
C 	C 	0.71068 0.93506 0.83743 0.57600
H 	H 	0.72560 0.92800 0.85700 -0.85700
Co	Co	0.75170 0.92740 0.86408 1.31400
H 	H 	0.64610 0.93050 0.78350 -0.57300
N 	N 	0.70278 0.83304 0.93622 -0.01900
N 	N 	0.21609 0.46335 0.81591 -0.38300
N 	N 	0.18930 0.46350 0.79175 -0.34500
C 	C 	0.17973 0.41792 0.82626 -0.51900
C 	C 	0.16220 0.38547 0.84077 0.25600
C 	C 	0.17579 0.36842 0.87132 -0.28700
H 	H 	0.19670 0.37780 0.88270 0.02200
C 	C 	0.16696 0.43622 0.79722 0.39800
C 	C 	0.21068 0.43506 0.83743 0.57400
H 	H 	0.22560 0.42800 0.85700 -0.85800
Co	Co	0.25170 0.42740 0.86408 1.31200
H 	H 	0.14610 0.43050 0.78350 -0.57400
N 	N 	0.20278 0.33304 0.93622 -0.01900
N 	N 	0.21609 0.96335 0.31591 -0.37800
N 	N 	0.18930 0.96350 0.29175 -0.33900
C 	C 	0.17973 0.91792 0.32626 -0.51800
C 	C 	0.16220 0.88547 0.34077 0.25700
C 	C 	0.17579 0.86842 0.37132 -0.28700
H 	H 	0.19670 0.87780 0.38270 0.02200
C 	C 	0.16696 0.93622 0.29722 0.39900
C 	C 	0.21068 0.93506 0.33743 0.57500
H 	H 	0.22560 0.92800 0.35700 -0.85700
Co	Co	0.25170 0.92740 0.36408 1.31300
H 	H 	0.14610 0.93050 0.28350 -0.57300
N 	N 	0.20278 0.83304 0.43622 -0.01900
N 	N 	0.71609 0.53665 0.68409 -0.38300
N 	N 	0.68930 0.53650 0.70825 -0.34500
C 	C 	0.67973 0.58208 0.67374 -0.51900
C 	C 	0.66220 0.61453 0.65923 0.25600
C 	C 	0.67579 0.63158 0.62868 -0.28700
H 	H 	0.69670 0.62220 0.61730 0.02200
C 	C 	0.66696 0.56378 0.70278 0.39800
C 	C 	0.71068 0.56494 0.66257 0.57400
H 	H 	0.72560 0.57200 0.64300 -0.85800
Co	Co	0.75170 0.57260 0.63592 1.31200
H 	H 	0.64610 0.56950 0.71650 -0.57400
N 	N 	0.70278 0.66696 0.56378 -0.01900
N 	N 	0.71609 0.03665 0.18409 -0.38500
N 	N 	0.68930 0.03650 0.20825 -0.34700
C 	C 	0.67973 0.08208 0.17374 -0.51900
C 	C 	0.66220 0.11453 0.15923 0.25500
C 	C 	0.67579 0.13158 0.12868 -0.28700
H 	H 	0.69670 0.12220 0.11730 0.02100
C 	C 	0.66696 0.06378 0.20278 0.39600
C 	C 	0.71068 0.06494 0.16257 0.57200
H 	H 	0.72560 0.07200 0.14300 -0.85900
Co	Co	0.75170 0.07260 0.13592 1.31000
H 	H 	0.64610 0.06950 0.21650 -0.57500
N 	N 	0.70278 0.16696 0.06378 -0.02000
N 	N 	0.21609 0.53665 0.18409 -0.38400
N 	N 	0.18930 0.53650 0.20825 -0.34500
C 	C 	0.17973 0.58208 0.17374 -0.51900
C 	C 	0.16220 0.61453 0.15923 0.25500
C 	C 	0.17579 0.63158 0.12868 -0.28700
H 	H 	0.19670 0.62220 0.11730 0.02100
C 	C 	0.16696 0.56378 0.20278 0.39700
C 	C 	0.21068 0.56494 0.16257 0.57300
H 	H 	0.22560 0.57200 0.14300 -0.85900
Co	Co	0.25170 0.57260 0.13592 1.31100
H 	H 	0.14610 0.56950 0.21650 -0.57500
N 	N 	0.20278 0.66696 0.06378 -0.02000
N 	N 	0.21609 0.03665 0.68409 -0.38500
N 	N 	0.18930 0.03650 0.70825 -0.34700
C 	C 	0.17973 0.08208 0.67374 -0.51900
C 	C 	0.16220 0.11453 0.65923 0.25500
C 	C 	0.17579 0.13158 0.62868 -0.28700
H 	H 	0.19670 0.12220 0.61730 0.02100
C 	C 	0.16696 0.06378 0.70278 0.39600
C 	C 	0.21068 0.06494 0.66257 0.57200
H 	H 	0.22560 0.07200 0.64300 -0.85900
Co	Co	0.25170 0.07260 0.63592 1.31000
H 	H 	0.14610 0.06950 0.71650 -0.57500
N 	N 	0.20278 0.16696 0.56378 -0.02000
N 	N 	0.28391 0.46335 0.68409 -0.38300
N 	N 	0.31070 0.46350 0.70825 -0.34400
C 	C 	0.32027 0.41792 0.67374 -0.51900
C 	C 	0.33780 0.38547 0.65923 0.25600
C 	C 	0.32421 0.36842 0.62868 -0.28700
H 	H 	0.30330 0.37780 0.61730 0.02200
C 	C 	0.33304 0.43622 0.70278 0.39800
C 	C 	0.28932 0.43506 0.66257 0.57400
H 	H 	0.27440 0.42800 0.64300 -0.85800
Co	Co	0.24830 0.42740 0.63592 1.31100
H 	H 	0.35390 0.43050 0.71650 -0.57400
N 	N 	0.29722 0.33304 0.56378 -0.01900
N 	N 	0.28391 0.96335 0.18409 -0.37800
N 	N 	0.31070 0.96350 0.20825 -0.33900
C 	C 	0.32027 0.91792 0.17374 -0.51800
C 	C 	0.33780 0.88547 0.15923 0.25700
C 	C 	0.32421 0.86842 0.12868 -0.28700
H 	H 	0.30330 0.87780 0.11730 0.02200
C 	C 	0.33304 0.93622 0.20278 0.39900
C 	C 	0.28932 0.93506 0.16257 0.57500
H 	H 	0.27440 0.92800 0.14300 -0.85800
Co	Co	0.24830 0.92740 0.13592 1.31200
H 	H 	0.35390 0.93050 0.21650 -0.57300
N 	N 	0.29722 0.83304 0.06378 -0.02000
N 	N 	0.78391 0.46335 0.18409 -0.38300
N 	N 	0.81070 0.46350 0.20825 -0.34400
C 	C 	0.82027 0.41792 0.17374 -0.51900
C 	C 	0.83780 0.38547 0.15923 0.25600
C 	C 	0.82421 0.36842 0.12868 -0.28700
H 	H 	0.80330 0.37780 0.11730 0.02100
C 	C 	0.83304 0.43622 0.20278 0.39800
C 	C 	0.78932 0.43506 0.16257 0.57400
H 	H 	0.77440 0.42800 0.14300 -0.85800
Co	Co	0.74830 0.42740 0.13592 1.31100
H 	H 	0.85390 0.43050 0.21650 -0.57400
N 	N 	0.79722 0.33304 0.06378 -0.02000
N 	N 	0.78391 0.96335 0.68409 -0.37700
N 	N 	0.81070 0.96350 0.70825 -0.33800
C 	C 	0.82027 0.91792 0.67374 -0.51800
C 	C 	0.83780 0.88547 0.65923 0.25800
C 	C 	0.82421 0.86842 0.62868 -0.28700
H 	H 	0.80330 0.87780 0.61730 0.02300
C 	C 	0.83304 0.93622 0.70278 0.40000
C 	C 	0.78932 0.93506 0.66257 0.57600
H 	H 	0.77440 0.92800 0.64300 -0.85700
Co	Co	0.74830 0.92740 0.63592 1.31300
H 	H 	0.85390 0.93050 0.71650 -0.57200
N 	N 	0.79722 0.83304 0.56378 -0.01900
N 	N 	0.31591 0.28391 0.53665 -0.36900
N 	N 	0.29175 0.31070 0.53650 -0.25000
C 	C 	0.32626 0.32027 0.58208 -0.28700
C 	C 	0.34077 0.33780 0.61453 0.17900
C 	C 	0.37132 0.32421 0.63158 -0.25300
H 	H 	0.38270 0.30330 0.62220 0.00700
C 	C 	0.33743 0.28932 0.56494 0.48200
H 	H 	0.35700 0.27440 0.57200 -0.82400
Co	Co	0.36408 0.24830 0.57260 1.30500
H 	H 	0.28350 0.35390 0.56950 -0.39500
N 	N 	0.43622 0.29722 0.66696 -0.02000
N 	N 	0.31591 0.78391 0.03665 -0.37100
N 	N 	0.29175 0.81070 0.03650 -0.25200
C 	C 	0.32626 0.82027 0.08208 -0.28800
C 	C 	0.34077 0.83780 0.11453 0.17800
C 	C 	0.37132 0.82421 0.13158 -0.25300
H 	H 	0.38270 0.80330 0.12220 0.00700
C 	C 	0.33743 0.78932 0.06494 0.48100
H 	H 	0.35700 0.77440 0.07200 -0.82400
Co	Co	0.36408 0.74830 0.07260 1.30400
H 	H 	0.28350 0.85390 0.06950 -0.39600
N 	N 	0.43622 0.79722 0.16696 -0.02000
N 	N 	0.81591 0.28391 0.03665 -0.37000
N 	N 	0.79175 0.31070 0.03650 -0.25200
C 	C 	0.82626 0.32027 0.08208 -0.28800
C 	C 	0.84077 0.33780 0.11453 0.17800
C 	C 	0.87132 0.32421 0.13158 -0.25300
H 	H 	0.88270 0.30330 0.12220 0.00700
C 	C 	0.83743 0.28932 0.06494 0.48100
H 	H 	0.85700 0.27440 0.07200 -0.82400
Co	Co	0.86408 0.24830 0.07260 1.30500
H 	H 	0.78350 0.35390 0.06950 -0.39600
N 	N 	0.93622 0.29722 0.16696 -0.01900
N 	N 	0.81591 0.78391 0.53665 -0.36800
N 	N 	0.79175 0.81070 0.53650 -0.24900
C 	C 	0.82626 0.82027 0.58208 -0.28600
C 	C 	0.84077 0.83780 0.61453 0.18000
C 	C 	0.87132 0.82421 0.63158 -0.25300
H 	H 	0.88270 0.80330 0.62220 0.00800
C 	C 	0.83743 0.78932 0.56494 0.48300
H 	H 	0.85700 0.77440 0.57200 -0.82300
Co	Co	0.86408 0.74830 0.57260 1.30600
H 	H 	0.78350 0.85390 0.56950 -0.39400
N 	N 	0.93622 0.79722 0.66696 -0.01900
N 	N 	0.31591 0.71609 0.46335 -0.36900
N 	N 	0.29175 0.68930 0.46350 -0.25000
C 	C 	0.32626 0.67973 0.41792 -0.28700
C 	C 	0.34077 0.66220 0.38547 0.17900
C 	C 	0.37132 0.67579 0.36842 -0.25300
H 	H 	0.38270 0.69670 0.37780 0.00700
C 	C 	0.33743 0.71068 0.43506 0.48200
H 	H 	0.35700 0.72560 0.42800 -0.82400
Co	Co	0.36408 0.75170 0.42740 1.30500
H 	H 	0.28350 0.64610 0.43050 -0.39500
N 	N 	0.43622 0.70278 0.33304 -0.02000
N 	N 	0.31591 0.21609 0.96335 -0.36300
N 	N 	0.29175 0.18930 0.96350 -0.24400
C 	C 	0.32626 0.17973 0.91792 -0.28600
C 	C 	0.34077 0.16220 0.88547 0.17900
C 	C 	0.37132 0.17579 0.86842 -0.25300
H 	H 	0.38270 0.19670 0.87780 0.00800
C 	C 	0.33743 0.21068 0.93506 0.48300
H 	H 	0.35700 0.22560 0.92800 -0.82300
Co	Co	0.36408 0.25170 0.92740 1.30600
H 	H 	0.28350 0.14610 0.93050 -0.39400
N 	N 	0.43622 0.20278 0.83304 -0.02000
N 	N 	0.81591 0.71609 0.96335 -0.36300
N 	N 	0.79175 0.68930 0.96350 -0.24300
C 	C 	0.82626 0.67973 0.91792 -0.28600
C 	C 	0.84077 0.66220 0.88547 0.18000
C 	C 	0.87132 0.67579 0.86842 -0.25300
H 	H 	0.88270 0.69670 0.87780 0.00800
C 	C 	0.83743 0.71068 0.93506 0.48400
H 	H 	0.85700 0.72560 0.92800 -0.82200
Co	Co	0.86408 0.75170 0.92740 1.30700
H 	H 	0.78350 0.64610 0.93050 -0.39300
N 	N 	0.93622 0.70278 0.83304 -0.01900
N 	N 	0.81591 0.21609 0.46335 -0.36900
N 	N 	0.79175 0.18930 0.46350 -0.25000
C 	C 	0.82626 0.17973 0.41792 -0.28700
C 	C 	0.84077 0.16220 0.38547 0.17900
C 	C 	0.87132 0.17579 0.36842 -0.25300
H 	H 	0.88270 0.19670 0.37780 0.00800
C 	C 	0.83743 0.21068 0.43506 0.48300
H 	H 	0.85700 0.22560 0.42800 -0.82300
Co	Co	0.86408 0.25170 0.42740 1.30600
H 	H 	0.78350 0.14610 0.43050 -0.39500
N 	N 	0.93622 0.20278 0.33304 -0.01900
N 	N 	0.68409 0.71609 0.53665 -0.36900
N 	N 	0.70825 0.68930 0.53650 -0.25000
C 	C 	0.67374 0.67973 0.58208 -0.28700
C 	C 	0.65923 0.66220 0.61453 0.17900
C 	C 	0.62868 0.67579 0.63158 -0.25300
H 	H 	0.61730 0.69670 0.62220 0.00700
C 	C 	0.66257 0.71068 0.56494 0.48200
H 	H 	0.64300 0.72560 0.57200 -0.82400
Co	Co	0.63592 0.75170 0.57260 1.30500
H 	H 	0.71650 0.64610 0.56950 -0.39500
N 	N 	0.56378 0.70278 0.66696 -0.02000
N 	N 	0.68409 0.21609 0.03665 -0.37100
N 	N 	0.70825 0.18930 0.03650 -0.25200
C 	C 	0.67374 0.17973 0.08208 -0.28800
C 	C 	0.65923 0.16220 0.11453 0.17700
C 	C 	0.62868 0.17579 0.13158 -0.25300
H 	H 	0.61730 0.19670 0.12220 0.00600
C 	C 	0.66257 0.21068 0.06494 0.48100
H 	H 	0.64300 0.22560 0.07200 -0.82400
Co	Co	0.63592 0.25170 0.07260 1.30400
H 	H 	0.71650 0.14610 0.06950 -0.39700
N 	N 	0.56378 0.20278 0.16696 -0.02000
N 	N 	0.18409 0.71609 0.03665 -0.37100
N 	N 	0.20825 0.68930 0.03650 -0.25200
C 	C 	0.17374 0.67973 0.08208 -0.28800
C 	C 	0.15923 0.66220 0.11453 0.17700
C 	C 	0.12868 0.67579 0.13158 -0.25300
H 	H 	0.11730 0.69670 0.12220 0.00600
C 	C 	0.16257 0.71068 0.06494 0.48000
H 	H 	0.14300 0.72560 0.07200 -0.82400
Co	Co	0.13592 0.75170 0.07260 1.30300
H 	H 	0.21650 0.64610 0.06950 -0.39600
N 	N 	0.06378 0.70278 0.16696 -0.02000
N 	N 	0.18409 0.21609 0.53665 -0.36900
N 	N 	0.20825 0.18930 0.53650 -0.25000
C 	C 	0.17374 0.17973 0.58208 -0.28800
C 	C 	0.15923 0.16220 0.61453 0.17800
C 	C 	0.12868 0.17579 0.63158 -0.25300
H 	H 	0.11730 0.19670 0.62220 0.00600
C 	C 	0.16257 0.21068 0.56494 0.48200
H 	H 	0.14300 0.22560 0.57200 -0.82400
Co	Co	0.13592 0.25170 0.57260 1.30400
H 	H 	0.21650 0.14610 0.56950 -0.39600
N 	N 	0.06378 0.20278 0.66696 -0.02000
N 	N 	0.68409 0.28391 0.46335 -0.36900
N 	N 	0.70825 0.31070 0.46350 -0.25000
C 	C 	0.67374 0.32027 0.41792 -0.28700
C 	C 	0.65923 0.33780 0.38547 0.17900
C 	C 	0.62868 0.32421 0.36842 -0.25300
H 	H 	0.61730 0.30330 0.37780 0.00700
C 	C 	0.66257 0.28932 0.43506 0.48200
H 	H 	0.64300 0.27440 0.42800 -0.82400
Co	Co	0.63592 0.24830 0.42740 1.30500
H 	H 	0.71650 0.35390 0.43050 -0.39500
N 	N 	0.56378 0.29722 0.33304 -0.02000
N 	N 	0.68409 0.78391 0.96335 -0.36300
N 	N 	0.70825 0.81070 0.96350 -0.24300
C 	C 	0.67374 0.82027 0.91792 -0.28600
C 	C 	0.65923 0.83780 0.88547 0.18000
C 	C 	0.62868 0.82421 0.86842 -0.25300
H 	H 	0.61730 0.80330 0.87780 0.00800
C 	C 	0.66257 0.78932 0.93506 0.48400
H 	H 	0.64300 0.77440 0.92800 -0.82200
Co	Co	0.63592 0.74830 0.92740 1.30700
H 	H 	0.71650 0.85390 0.93050 -0.39300
N 	N 	0.56378 0.79722 0.83304 -0.01900
N 	N 	0.18409 0.28391 0.96335 -0.36300
N 	N 	0.20825 0.31070 0.96350 -0.24400
C 	C 	0.17374 0.32027 0.91792 -0.28600
C 	C 	0.15923 0.33780 0.88547 0.17900
C 	C 	0.12868 0.32421 0.86842 -0.25300
H 	H 	0.11730 0.30330 0.87780 0.00700
C 	C 	0.16257 0.28932 0.93506 0.48300
H 	H 	0.14300 0.27440 0.92800 -0.82300
Co	Co	0.13592 0.24830 0.92740 1.30600
H 	H 	0.21650 0.35390 0.93050 -0.39300
N 	N 	0.06378 0.29722 0.83304 -0.02000
N 	N 	0.18409 0.78391 0.46335 -0.36900
N 	N 	0.20825 0.81070 0.46350 -0.25000
C 	C 	0.17374 0.82027 0.41792 -0.28700
C 	C 	0.15923 0.83780 0.38547 0.17900
C 	C 	0.12868 0.82421 0.36842 -0.25300
H 	H 	0.11730 0.80330 0.37780 0.00700
C 	C 	0.16257 0.78932 0.43506 0.48200
H 	H 	0.14300 0.77440 0.42800 -0.82400
Co	Co	0.13592 0.74830 0.42740 1.30400
H 	H 	0.21650 0.85390 0.43050 -0.39500
N 	N 	0.06378 0.79722 0.33304 -0.02000
N 	N 	0.53665 0.31591 0.28391 -0.37300
N 	N 	0.53650 0.29175 0.31070 -0.25100
C 	C 	0.58208 0.32626 0.32027 -0.29000
C 	C 	0.61453 0.34077 0.33780 0.18000
C 	C 	0.63158 0.37132 0.32421 -0.29200
H 	H 	0.62220 0.38270 0.30330 0.02100
C 	C 	0.56494 0.33743 0.28932 0.48400
H 	H 	0.57200 0.35700 0.27440 -0.83200
Co	Co	0.57260 0.36408 0.24830 1.32200
H 	H 	0.56950 0.28350 0.35390 -0.39700
N 	N 	0.53665 0.81591 0.78391 -0.37300
N 	N 	0.53650 0.79175 0.81070 -0.25000
C 	C 	0.58208 0.82626 0.82027 -0.29000
C 	C 	0.61453 0.84077 0.83780 0.18100
C 	C 	0.63158 0.87132 0.82421 -0.29200
H 	H 	0.62220 0.88270 0.80330 0.02200
C 	C 	0.56494 0.83743 0.78932 0.48400
H 	H 	0.57200 0.85700 0.77440 -0.83100
Co	Co	0.57260 0.86408 0.74830 1.32300
H 	H 	0.56950 0.78350 0.85390 -0.39600
N 	N 	0.03665 0.31591 0.78391 -0.37500
N 	N 	0.03650 0.29175 0.81070 -0.25300
C 	C 	0.08208 0.32626 0.82027 -0.29100
C 	C 	0.11453 0.34077 0.83780 0.18000
C 	C 	0.13158 0.37132 0.82421 -0.29200
H 	H 	0.12220 0.38270 0.80330 0.02000
C 	C 	0.06494 0.33743 0.78932 0.48300
H 	H 	0.07200 0.35700 0.77440 -0.83200
Co	Co	0.07260 0.36408 0.74830 1.32100
H 	H 	0.06950 0.28350 0.85390 -0.39800
N 	N 	0.03665 0.81591 0.28391 -0.37500
N 	N 	0.03650 0.79175 0.31070 -0.25300
C 	C 	0.08208 0.82626 0.32027 -0.29100
C 	C 	0.11453 0.84077 0.33780 0.18000
C 	C 	0.13158 0.87132 0.32421 -0.29200
H 	H 	0.12220 0.88270 0.30330 0.02100
C 	C 	0.06494 0.83743 0.28932 0.48300
H 	H 	0.07200 0.85700 0.27440 -0.83200
Co	Co	0.07260 0.86408 0.24830 1.32200
H 	H 	0.06950 0.78350 0.35390 -0.39800
N 	N 	0.46335 0.31591 0.71609 -0.37300
N 	N 	0.46350 0.29175 0.68930 -0.25100
C 	C 	0.41792 0.32626 0.67973 -0.29000
C 	C 	0.38547 0.34077 0.66220 0.18000
C 	C 	0.36842 0.37132 0.67579 -0.29200
H 	H 	0.37780 0.38270 0.69670 0.02100
C 	C 	0.43506 0.33743 0.71068 0.48400
H 	H 	0.42800 0.35700 0.72560 -0.83200
Co	Co	0.42740 0.36408 0.75170 1.32200
H 	H 	0.43050 0.28350 0.64610 -0.39700
N 	N 	0.46335 0.81591 0.21609 -0.37300
N 	N 	0.46350 0.79175 0.18930 -0.25100
C 	C 	0.41792 0.82626 0.17973 -0.29000
C 	C 	0.38547 0.84077 0.16220 0.18000
C 	C 	0.36842 0.87132 0.17579 -0.29200
H 	H 	0.37780 0.88270 0.19670 0.02100
C 	C 	0.43506 0.83743 0.21068 0.48400
H 	H 	0.42800 0.85700 0.22560 -0.83100
Co	Co	0.42740 0.86408 0.25170 1.32300
H 	H 	0.43050 0.78350 0.14610 -0.39700
N 	N 	0.96335 0.31591 0.21609 -0.36700
N 	N 	0.96350 0.29175 0.18930 -0.24500
C 	C 	0.91792 0.32626 0.17973 -0.28900
C 	C 	0.88547 0.34077 0.16220 0.18100
C 	C 	0.86842 0.37132 0.17579 -0.29200
H 	H 	0.87780 0.38270 0.19670 0.02100
C 	C 	0.93506 0.33743 0.21068 0.48500
H 	H 	0.92800 0.35700 0.22560 -0.83100
Co	Co	0.92740 0.36408 0.25170 1.32400
H 	H 	0.93050 0.28350 0.14610 -0.39600
N 	N 	0.96335 0.81591 0.71609 -0.36700
N 	N 	0.96350 0.79175 0.68930 -0.24500
C 	C 	0.91792 0.82626 0.67973 -0.28900
C 	C 	0.88547 0.84077 0.66220 0.18100
C 	C 	0.86842 0.87132 0.67579 -0.29200
H 	H 	0.87780 0.88270 0.69670 0.02200
C 	C 	0.93506 0.83743 0.71068 0.48600
H 	H 	0.92800 0.85700 0.72560 -0.83000
Co	Co	0.92740 0.86408 0.75170 1.32500
H 	H 	0.93050 0.78350 0.64610 -0.39500
N 	N 	0.53665 0.68409 0.71609 -0.37300
N 	N 	0.53650 0.70825 0.68930 -0.25100
C 	C 	0.58208 0.67374 0.67973 -0.29100
C 	C 	0.61453 0.65923 0.66220 0.18000
C 	C 	0.63158 0.62868 0.67579 -0.29300
H 	H 	0.62220 0.61730 0.69670 0.02100
C 	C 	0.56494 0.66257 0.71068 0.48400
H 	H 	0.57200 0.64300 0.72560 -0.83200
Co	Co	0.57260 0.63592 0.75170 1.32200
H 	H 	0.56950 0.71650 0.64610 -0.39700
N 	N 	0.53665 0.18409 0.21609 -0.37300
N 	N 	0.53650 0.20825 0.18930 -0.25100
C 	C 	0.58208 0.17374 0.17973 -0.29100
C 	C 	0.61453 0.15923 0.16220 0.17900
C 	C 	0.63158 0.12868 0.17579 -0.29300
H 	H 	0.62220 0.11730 0.19670 0.02000
C 	C 	0.56494 0.16257 0.21068 0.48300
H 	H 	0.57200 0.14300 0.22560 -0.83200
Co	Co	0.57260 0.13592 0.25170 1.32200
H 	H 	0.56950 0.21650 0.14610 -0.39800
N 	N 	0.03665 0.68409 0.21609 -0.37500
N 	N 	0.03650 0.70825 0.18930 -0.25300
C 	C 	0.08208 0.67374 0.17973 -0.29200
C 	C 	0.11453 0.65923 0.16220 0.17900
C 	C 	0.13158 0.62868 0.17579 -0.29300
H 	H 	0.12220 0.61730 0.19670 0.02000
C 	C 	0.06494 0.66257 0.21068 0.48200
H 	H 	0.07200 0.64300 0.22560 -0.83200
Co	Co	0.07260 0.63592 0.25170 1.32100
H 	H 	0.06950 0.71650 0.14610 -0.39900
N 	N 	0.03665 0.18409 0.71609 -0.37500
N 	N 	0.03650 0.20825 0.68930 -0.25300
C 	C 	0.08208 0.17374 0.67973 -0.29200
C 	C 	0.11453 0.15923 0.66220 0.17900
C 	C 	0.13158 0.12868 0.67579 -0.29300
H 	H 	0.12220 0.11730 0.69670 0.01900
C 	C 	0.06494 0.16257 0.71068 0.48200
H 	H 	0.07200 0.14300 0.72560 -0.83300
Co	Co	0.07260 0.13592 0.75170 1.32100
H 	H 	0.06950 0.21650 0.64610 -0.39800
N 	N 	0.46335 0.68409 0.28391 -0.37300
N 	N 	0.46350 0.70825 0.31070 -0.25100
C 	C 	0.41792 0.67374 0.32027 -0.29000
C 	C 	0.38547 0.65923 0.33780 0.18000
C 	C 	0.36842 0.62868 0.32421 -0.29200
H 	H 	0.37780 0.61730 0.30330 0.02100
C 	C 	0.43506 0.66257 0.28932 0.48400
H 	H 	0.42800 0.64300 0.27440 -0.83200
Co	Co	0.42740 0.63592 0.24830 1.32200
H 	H 	0.43050 0.71650 0.35390 -0.39700
N 	N 	0.46335 0.18409 0.78391 -0.37300
N 	N 	0.46350 0.20825 0.81070 -0.25100
C 	C 	0.41792 0.17374 0.82027 -0.29000
C 	C 	0.38547 0.15923 0.83780 0.18000
C 	C 	0.36842 0.12868 0.82421 -0.29200
H 	H 	0.37780 0.11730 0.80330 0.02000
C 	C 	0.43506 0.16257 0.78932 0.48400
H 	H 	0.42800 0.14300 0.77440 -0.83200
Co	Co	0.42740 0.13592 0.74830 1.32200
H 	H 	0.43050 0.21650 0.85390 -0.39700
N 	N 	0.96335 0.68409 0.78391 -0.36700
N 	N 	0.96350 0.70825 0.81070 -0.24400
C 	C 	0.91792 0.67374 0.82027 -0.28900
C 	C 	0.88547 0.65923 0.83780 0.18100
C 	C 	0.86842 0.62868 0.82421 -0.29200
H 	H 	0.87780 0.61730 0.80330 0.02100
C 	C 	0.93506 0.66257 0.78932 0.48500
H 	H 	0.92800 0.64300 0.77440 -0.83100
Co	Co	0.92740 0.63592 0.74830 1.32400
H 	H 	0.93050 0.71650 0.85390 -0.39500
N 	N 	0.96335 0.18409 0.28391 -0.36700
N 	N 	0.96350 0.20825 0.31070 -0.24500
C 	C 	0.91792 0.17374 0.32027 -0.28900
C 	C 	0.88547 0.15923 0.33780 0.18000
C 	C 	0.86842 0.12868 0.32421 -0.29200
H 	H 	0.87780 0.11730 0.30330 0.02100
C 	C 	0.93506 0.16257 0.28932 0.48500
H 	H 	0.92800 0.14300 0.27440 -0.83100
Co	Co	0.92740 0.13592 0.24830 1.32300
H 	H 	0.93050 0.21650 0.35390 -0.39500
N 	N 	0.03665 0.78391 0.18409 -0.38500
N 	N 	0.03650 0.81070 0.20825 -0.34600
C 	C 	0.08208 0.82027 0.17374 -0.51900
C 	C 	0.11453 0.83780 0.15923 0.25500
C 	C 	0.13158 0.82421 0.12868 -0.28700
H 	H 	0.12220 0.80330 0.11730 0.02100
C 	C 	0.06378 0.83304 0.20278 0.39700
C 	C 	0.06494 0.78932 0.16257 0.57200
H 	H 	0.07200 0.77440 0.14300 -0.85900
Co	Co	0.07260 0.74830 0.13592 1.31000
H 	H 	0.06950 0.85390 0.21650 -0.57400
N 	N 	0.16696 0.79722 0.06378 -0.02000
N 	N 	0.03665 0.28391 0.68409 -0.38500
N 	N 	0.03650 0.31070 0.70825 -0.34600
C 	C 	0.08208 0.32027 0.67374 -0.51900
C 	C 	0.11453 0.33780 0.65923 0.25500
C 	C 	0.13158 0.32421 0.62868 -0.28700
H 	H 	0.12220 0.30330 0.61730 0.02100
C 	C 	0.06378 0.33304 0.70278 0.39600
C 	C 	0.06494 0.28932 0.66257 0.57200
H 	H 	0.07200 0.27440 0.64300 -0.85900
Co	Co	0.07260 0.24830 0.63592 1.31000
H 	H 	0.06950 0.35390 0.71650 -0.57500
N 	N 	0.16696 0.29722 0.56378 -0.01900
N 	N 	0.53665 0.78391 0.68409 -0.38300
N 	N 	0.53650 0.81070 0.70825 -0.34400
C 	C 	0.58208 0.82027 0.67374 -0.51800
C 	C 	0.61453 0.83780 0.65923 0.25700
C 	C 	0.63158 0.82421 0.62868 -0.28700
H 	H 	0.62220 0.80330 0.61730 0.02200
C 	C 	0.56378 0.83304 0.70278 0.39800
C 	C 	0.56494 0.78932 0.66257 0.57400
H 	H 	0.57200 0.77440 0.64300 -0.85800
Co	Co	0.57260 0.74830 0.63592 1.31200
H 	H 	0.56950 0.85390 0.71650 -0.57300
N 	N 	0.66696 0.79722 0.56378 -0.01900
N 	N 	0.53665 0.28391 0.18409 -0.38400
N 	N 	0.53650 0.31070 0.20825 -0.34500
C 	C 	0.58208 0.32027 0.17374 -0.51900
C 	C 	0.61453 0.33780 0.15923 0.25600
C 	C 	0.63158 0.32421 0.12868 -0.28700
H 	H 	0.62220 0.30330 0.11730 0.02100
C 	C 	0.56378 0.33304 0.20278 0.39800
C 	C 	0.56494 0.28932 0.16257 0.57300
H 	H 	0.57200 0.27440 0.14300 -0.85900
Co	Co	0.57260 0.24830 0.13592 1.31100
H 	H 	0.56950 0.35390 0.21650 -0.57400
N 	N 	0.66696 0.29722 0.06378 -0.02000
N 	N 	0.96335 0.21609 0.18409 -0.37800
N 	N 	0.96350 0.18930 0.20825 -0.33900
C 	C 	0.91792 0.17973 0.17374 -0.51800
C 	C 	0.88547 0.16220 0.15923 0.25600
C 	C 	0.86842 0.17579 0.12868 -0.28700
H 	H 	0.87780 0.19670 0.11730 0.02200
C 	C 	0.93622 0.16696 0.20278 0.39900
C 	C 	0.93506 0.21068 0.16257 0.57500
H 	H 	0.92800 0.22560 0.14300 -0.85800
Co	Co	0.92740 0.25170 0.13592 1.31200
H 	H 	0.93050 0.14610 0.21650 -0.57300
N 	N 	0.83304 0.20278 0.06378 -0.02000
N 	N 	0.96335 0.71609 0.68409 -0.37800
N 	N 	0.96350 0.68930 0.70825 -0.33900
C 	C 	0.91792 0.67973 0.67374 -0.51800
C 	C 	0.88547 0.66220 0.65923 0.25700
C 	C 	0.86842 0.67579 0.62868 -0.28700
H 	H 	0.87780 0.69670 0.61730 0.02300
C 	C 	0.93622 0.66696 0.70278 0.39900
C 	C 	0.93506 0.71068 0.66257 0.57500
H 	H 	0.92800 0.72560 0.64300 -0.85700
Co	Co	0.92740 0.75170 0.63592 1.31300
H 	H 	0.93050 0.64610 0.71650 -0.57300
N 	N 	0.83304 0.70278 0.56378 -0.01900
N 	N 	0.46335 0.21609 0.68409 -0.38300
N 	N 	0.46350 0.18930 0.70825 -0.34500
C 	C 	0.41792 0.17973 0.67374 -0.51900
C 	C 	0.38547 0.16220 0.65923 0.25600
C 	C 	0.36842 0.17579 0.62868 -0.28700
H 	H 	0.37780 0.19670 0.61730 0.02200
C 	C 	0.43622 0.16696 0.70278 0.39800
C 	C 	0.43506 0.21068 0.66257 0.57400
H 	H 	0.42800 0.22560 0.64300 -0.85800
Co	Co	0.42740 0.25170 0.63592 1.31100
H 	H 	0.43050 0.14610 0.71650 -0.57400
N 	N 	0.33304 0.20278 0.56378 -0.01900
N 	N 	0.46335 0.71609 0.18409 -0.38400
N 	N 	0.46350 0.68930 0.20825 -0.34500
C 	C 	0.41792 0.67973 0.17374 -0.51900
C 	C 	0.38547 0.66220 0.15923 0.25600
C 	C 	0.36842 0.67579 0.12868 -0.28700
H 	H 	0.37780 0.69670 0.11730 0.02100
C 	C 	0.43622 0.66696 0.20278 0.39800
C 	C 	0.43506 0.71068 0.16257 0.57300
H 	H 	0.42800 0.72560 0.14300 -0.85800
Co	Co	0.42740 0.75170 0.13592 1.31100
H 	H 	0.43050 0.64610 0.21650 -0.57400
N 	N 	0.33304 0.70278 0.06378 -0.02000
N 	N 	0.03665 0.21609 0.81591 -0.38500
N 	N 	0.03650 0.18930 0.79175 -0.34600
C 	C 	0.08208 0.17973 0.82626 -0.51900
C 	C 	0.11453 0.16220 0.84077 0.25500
C 	C 	0.13158 0.17579 0.87132 -0.28700
H 	H 	0.12220 0.19670 0.88270 0.02200
C 	C 	0.06378 0.16696 0.79722 0.39600
C 	C 	0.06494 0.21068 0.83743 0.57300
H 	H 	0.07200 0.22560 0.85700 -0.85800
Co	Co	0.07260 0.25170 0.86408 1.31100
H 	H 	0.06950 0.14610 0.78350 -0.57500
N 	N 	0.16696 0.20278 0.93622 -0.01900
N 	N 	0.03665 0.71609 0.31591 -0.38500
N 	N 	0.03650 0.68930 0.29175 -0.34600
C 	C 	0.08208 0.67973 0.32626 -0.51900
C 	C 	0.11453 0.66220 0.34077 0.25500
C 	C 	0.13158 0.67579 0.37132 -0.28700
H 	H 	0.12220 0.69670 0.38270 0.02100
C 	C 	0.06378 0.66696 0.29722 0.39600
C 	C 	0.06494 0.71068 0.33743 0.57200
H 	H 	0.07200 0.72560 0.35700 -0.85900
Co	Co	0.07260 0.75170 0.36408 1.31000
H 	H 	0.06950 0.64610 0.28350 -0.57500
N 	N 	0.16696 0.70278 0.43622 -0.01900
N 	N 	0.53665 0.21609 0.31591 -0.38300
N 	N 	0.53650 0.18930 0.29175 -0.34500
C 	C 	0.58208 0.17973 0.32626 -0.51900
C 	C 	0.61453 0.16220 0.34077 0.25600
C 	C 	0.63158 0.17579 0.37132 -0.28700
H 	H 	0.62220 0.19670 0.38270 0.02200
C 	C 	0.56378 0.16696 0.29722 0.39800
C 	C 	0.56494 0.21068 0.33743 0.57400
H 	H 	0.57200 0.22560 0.35700 -0.85800
Co	Co	0.57260 0.25170 0.36408 1.31100
H 	H 	0.56950 0.14610 0.28350 -0.57400
N 	N 	0.66696 0.20278 0.43622 -0.01900
N 	N 	0.53665 0.71609 0.81591 -0.38300
N 	N 	0.53650 0.68930 0.79175 -0.34400
C 	C 	0.58208 0.67973 0.82626 -0.51800
C 	C 	0.61453 0.66220 0.84077 0.25700
C 	C 	0.63158 0.67579 0.87132 -0.28700
H 	H 	0.62220 0.69670 0.88270 0.02300
C 	C 	0.56378 0.66696 0.79722 0.39800
C 	C 	0.56494 0.71068 0.83743 0.57400
H 	H 	0.57200 0.72560 0.85700 -0.85800
Co	Co	0.57260 0.75170 0.86408 1.31200
H 	H 	0.56950 0.64610 0.78350 -0.57400
N 	N 	0.66696 0.70278 0.93622 -0.01900
N 	N 	0.96335 0.78391 0.81591 -0.37700
N 	N 	0.96350 0.81070 0.79175 -0.33800
C 	C 	0.91792 0.82027 0.82626 -0.51700
C 	C 	0.88547 0.83780 0.84077 0.25800
C 	C 	0.86842 0.82421 0.87132 -0.28600
H 	H 	0.87780 0.80330 0.88270 0.02300
C 	C 	0.93622 0.83304 0.79722 0.40000
C 	C 	0.93506 0.78932 0.83743 0.57600
H 	H 	0.92800 0.77440 0.85700 -0.85700
Co	Co	0.92740 0.74830 0.86408 1.31400
H 	H 	0.93050 0.85390 0.78350 -0.57200
N 	N 	0.83304 0.79722 0.93622 -0.01900
N 	N 	0.96335 0.28391 0.31591 -0.37700
N 	N 	0.96350 0.31070 0.29175 -0.33900
C 	C 	0.91792 0.32027 0.32626 -0.51800
C 	C 	0.88547 0.33780 0.34077 0.25700
C 	C 	0.86842 0.32421 0.37132 -0.28700
H 	H 	0.87780 0.30330 0.38270 0.02300
C 	C 	0.93622 0.33304 0.29722 0.39900
C 	C 	0.93506 0.28932 0.33743 0.57600
H 	H 	0.92800 0.27440 0.35700 -0.85700
Co	Co	0.92740 0.24830 0.36408 1.31300
H 	H 	0.93050 0.35390 0.28350 -0.57300
N 	N 	0.83304 0.29722 0.43622 -0.01900
N 	N 	0.46335 0.78391 0.31591 -0.38300
N 	N 	0.46350 0.81070 0.29175 -0.34400
C 	C 	0.41792 0.82027 0.32626 -0.51800
C 	C 	0.38547 0.83780 0.34077 0.25700
C 	C 	0.36842 0.82421 0.37132 -0.28700
H 	H 	0.37780 0.80330 0.38270 0.02200
C 	C 	0.43622 0.83304 0.29722 0.39800
C 	C 	0.43506 0.78932 0.33743 0.57400
H 	H 	0.42800 0.77440 0.35700 -0.85800
Co	Co	0.42740 0.74830 0.36408 1.31200
H 	H 	0.43050 0.85390 0.28350 -0.57400
N 	N 	0.33304 0.79722 0.43622 -0.01900
N 	N 	0.46335 0.28391 0.81591 -0.38300
N 	N 	0.46350 0.31070 0.79175 -0.34400
C 	C 	0.41792 0.32027 0.82626 -0.51800
C 	C 	0.38547 0.33780 0.84077 0.25700
C 	C 	0.36842 0.32421 0.87132 -0.28700
H 	H 	0.37780 0.30330 0.88270 0.02300
C 	C 	0.43622 0.33304 0.79722 0.39800
C 	C 	0.43506 0.28932 0.83743 0.57400
H 	H 	0.42800 0.27440 0.85700 -0.85800
Co	Co	0.42740 0.24830 0.86408 1.31200
H 	H 	0.43050 0.35390 0.78350 -0.57400
N 	N 	0.33304 0.29722 0.93622 -0.01900
N 	N 	0.78391 0.81591 0.96335 -0.36200
N 	N 	0.81070 0.79175 0.96350 -0.24300
C 	C 	0.82027 0.82626 0.91792 -0.28500
C 	C 	0.83780 0.84077 0.88547 0.18000
C 	C 	0.82421 0.87132 0.86842 -0.25200
H 	H 	0.80330 0.88270 0.87780 0.00900
C 	C 	0.78932 0.83743 0.93506 0.48400
H 	H 	0.77440 0.85700 0.92800 -0.82200
Co	Co	0.74830 0.86408 0.92740 1.30700
H 	H 	0.85390 0.78350 0.93050 -0.39200
N 	N 	0.79722 0.93622 0.83304 -0.01900
N 	N 	0.78391 0.31591 0.46335 -0.36900
N 	N 	0.81070 0.29175 0.46350 -0.24900
C 	C 	0.82027 0.32626 0.41792 -0.28700
C 	C 	0.83780 0.34077 0.38547 0.17900
C 	C 	0.82421 0.37132 0.36842 -0.25300
H 	H 	0.80330 0.38270 0.37780 0.00700
C 	C 	0.78932 0.33743 0.43506 0.48200
H 	H 	0.77440 0.35700 0.42800 -0.82300
Co	Co	0.74830 0.36408 0.42740 1.30500
H 	H 	0.85390 0.28350 0.43050 -0.39400
N 	N 	0.79722 0.43622 0.33304 -0.02000
N 	N 	0.28391 0.81591 0.46335 -0.36800
N 	N 	0.31070 0.79175 0.46350 -0.24900
C 	C 	0.32027 0.82626 0.41792 -0.28700
C 	C 	0.33780 0.84077 0.38547 0.17900
C 	C 	0.32421 0.87132 0.36842 -0.25300
H 	H 	0.30330 0.88270 0.37780 0.00800
C 	C 	0.28932 0.83743 0.43506 0.48300
H 	H 	0.27440 0.85700 0.42800 -0.82300
Co	Co	0.24830 0.86408 0.42740 1.30600
H 	H 	0.35390 0.78350 0.43050 -0.39500
N 	N 	0.29722 0.93622 0.33304 -0.01900
N 	N 	0.28391 0.31591 0.96335 -0.36300
N 	N 	0.31070 0.29175 0.96350 -0.24300
C 	C 	0.32027 0.32626 0.91792 -0.28600
C 	C 	0.33780 0.34077 0.88547 0.17900
C 	C 	0.32421 0.37132 0.86842 -0.25300
H 	H 	0.30330 0.38270 0.87780 0.00800
C 	C 	0.28932 0.33743 0.93506 0.48400
H 	H 	0.27440 0.35700 0.92800 -0.82300
Co	Co	0.24830 0.36408 0.92740 1.30600
H 	H 	0.35390 0.28350 0.93050 -0.39300
N 	N 	0.29722 0.43622 0.83304 -0.01900
N 	N 	0.21609 0.81591 0.03665 -0.37000
N 	N 	0.18930 0.79175 0.03650 -0.25200
C 	C 	0.17973 0.82626 0.08208 -0.28800
C 	C 	0.16220 0.84077 0.11453 0.17800
C 	C 	0.17579 0.87132 0.13158 -0.25300
H 	H 	0.19670 0.88270 0.12220 0.00700
C 	C 	0.21068 0.83743 0.06494 0.48100
H 	H 	0.22560 0.85700 0.07200 -0.82400
Co	Co	0.25170 0.86408 0.07260 1.30500
H 	H 	0.14610 0.78350 0.06950 -0.39700
N 	N 	0.20278 0.93622 0.16696 -0.01900
N 	N 	0.21609 0.31591 0.53665 -0.36900
N 	N 	0.18930 0.29175 0.53650 -0.25000
C 	C 	0.17973 0.32626 0.58208 -0.28700
C 	C 	0.16220 0.34077 0.61453 0.17800
C 	C 	0.17579 0.37132 0.63158 -0.25300
H 	H 	0.19670 0.38270 0.62220 0.00700
C 	C 	0.21068 0.33743 0.56494 0.48200
H 	H 	0.22560 0.35700 0.57200 -0.82400
Co	Co	0.25170 0.36408 0.57260 1.30500
H 	H 	0.14610 0.28350 0.56950 -0.39600
N 	N 	0.20278 0.43622 0.66696 -0.02000
N 	N 	0.71609 0.81591 0.53665 -0.36800
N 	N 	0.68930 0.79175 0.53650 -0.25000
C 	C 	0.67973 0.82626 0.58208 -0.28700
C 	C 	0.66220 0.84077 0.61453 0.17900
C 	C 	0.67579 0.87132 0.63158 -0.25300
H 	H 	0.69670 0.88270 0.62220 0.00800
C 	C 	0.71068 0.83743 0.56494 0.48300
H 	H 	0.72560 0.85700 0.57200 -0.82300
Co	Co	0.75170 0.86408 0.57260 1.30600
H 	H 	0.64610 0.78350 0.56950 -0.39500
N 	N 	0.70278 0.93622 0.66696 -0.01900
N 	N 	0.71609 0.31591 0.03665 -0.37100
N 	N 	0.68930 0.29175 0.03650 -0.25200
C 	C 	0.67973 0.32626 0.08208 -0.28800
C 	C 	0.66220 0.34077 0.11453 0.17800
C 	C 	0.67579 0.37132 0.13158 -0.25300
H 	H 	0.69670 0.38270 0.12220 0.00700
C 	C 	0.71068 0.33743 0.06494 0.48100
H 	H 	0.72560 0.35700 0.07200 -0.82400
Co	Co	0.75170 0.36408 0.07260 1.30400
H 	H 	0.64610 0.28350 0.06950 -0.39600
N 	N 	0.70278 0.43622 0.16696 -0.02000
N 	N 	0.21609 0.18409 0.96335 -0.36300
N 	N 	0.18930 0.20825 0.96350 -0.24400
C 	C 	0.17973 0.17374 0.91792 -0.28600
C 	C 	0.16220 0.15923 0.88547 0.17800
C 	C 	0.17579 0.12868 0.86842 -0.25300
H 	H 	0.19670 0.11730 0.87780 0.00700
C 	C 	0.21068 0.16257 0.93506 0.48300
H 	H 	0.22560 0.14300 0.92800 -0.82300
Co	Co	0.25170 0.13592 0.92740 1.30600
H 	H 	0.14610 0.21650 0.93050 -0.39400
N 	N 	0.20278 0.06378 0.83304 -0.02000
N 	N 	0.21609 0.68409 0.46335 -0.36900
N 	N 	0.18930 0.70825 0.46350 -0.25000
C 	C 	0.17973 0.67374 0.41792 -0.28700
C 	C 	0.16220 0.65923 0.38547 0.17800
C 	C 	0.17579 0.62868 0.36842 -0.25300
H 	H 	0.19670 0.61730 0.37780 0.00700
C 	C 	0.21068 0.66257 0.43506 0.48200
H 	H 	0.22560 0.64300 0.42800 -0.82400
Co	Co	0.25170 0.63592 0.42740 1.30500
H 	H 	0.14610 0.71650 0.43050 -0.39600
N 	N 	0.20278 0.56378 0.33304 -0.02000
N 	N 	0.71609 0.18409 0.46335 -0.36900
N 	N 	0.68930 0.20825 0.46350 -0.25000
C 	C 	0.67973 0.17374 0.41792 -0.28700
C 	C 	0.66220 0.15923 0.38547 0.17800
C 	C 	0.67579 0.12868 0.36842 -0.25300
H 	H 	0.69670 0.11730 0.37780 0.00700
C 	C 	0.71068 0.16257 0.43506 0.48200
H 	H 	0.72560 0.14300 0.42800 -0.82400
Co	Co	0.75170 0.13592 0.42740 1.30400
H 	H 	0.64610 0.21650 0.43050 -0.39500
N 	N 	0.70278 0.06378 0.33304 -0.02000
N 	N 	0.71609 0.68409 0.96335 -0.36300
N 	N 	0.68930 0.70825 0.96350 -0.24400
C 	C 	0.67973 0.67374 0.91792 -0.28600
C 	C 	0.66220 0.65923 0.88547 0.17900
C 	C 	0.67579 0.62868 0.86842 -0.25300
H 	H 	0.69670 0.61730 0.87780 0.00800
C 	C 	0.71068 0.66257 0.93506 0.48400
H 	H 	0.72560 0.64300 0.92800 -0.82300
Co	Co	0.75170 0.63592 0.92740 1.30700
H 	H 	0.64610 0.71650 0.93050 -0.39300
N 	N 	0.70278 0.56378 0.83304 -0.02000
N 	N 	0.78391 0.18409 0.03665 -0.37100
N 	N 	0.81070 0.20825 0.03650 -0.25200
C 	C 	0.82027 0.17374 0.08208 -0.28800
C 	C 	0.83780 0.15923 0.11453 0.17800
C 	C 	0.82421 0.12868 0.13158 -0.25300
H 	H 	0.80330 0.11730 0.12220 0.00600
C 	C 	0.78932 0.16257 0.06494 0.48100
H 	H 	0.77440 0.14300 0.07200 -0.82400
Co	Co	0.74830 0.13592 0.07260 1.30300
H 	H 	0.85390 0.21650 0.06950 -0.39600
N 	N 	0.79722 0.06378 0.16696 -0.02000
N 	N 	0.78391 0.68409 0.53665 -0.36900
N 	N 	0.81070 0.70825 0.53650 -0.24900
C 	C 	0.82027 0.67374 0.58208 -0.28700
C 	C 	0.83780 0.65923 0.61453 0.17900
C 	C 	0.82421 0.62868 0.63158 -0.25300
H 	H 	0.80330 0.61730 0.62220 0.00700
C 	C 	0.78932 0.66257 0.56494 0.48200
H 	H 	0.77440 0.64300 0.57200 -0.82300
Co	Co	0.74830 0.63592 0.57260 1.30500
H 	H 	0.85390 0.71650 0.56950 -0.39400
N 	N 	0.79722 0.56378 0.66696 -0.02000
N 	N 	0.28391 0.18409 0.53665 -0.36900
N 	N 	0.31070 0.20825 0.53650 -0.25000
C 	C 	0.32027 0.17374 0.58208 -0.28700
C 	C 	0.33780 0.15923 0.61453 0.17800
C 	C 	0.32421 0.12868 0.63158 -0.25300
H 	H 	0.30330 0.11730 0.62220 0.00700
C 	C 	0.28932 0.16257 0.56494 0.48200
H 	H 	0.27440 0.14300 0.57200 -0.82400
Co	Co	0.24830 0.13592 0.57260 1.30400
H 	H 	0.35390 0.21650 0.56950 -0.39500
N 	N 	0.29722 0.06378 0.66696 -0.02000
N 	N 	0.28391 0.68409 0.03665 -0.37100
N 	N 	0.31070 0.70825 0.03650 -0.25200
C 	C 	0.32027 0.67374 0.08208 -0.28800
C 	C 	0.33780 0.65923 0.11453 0.17800
C 	C 	0.32421 0.62868 0.13158 -0.25300
H 	H 	0.30330 0.61730 0.12220 0.00700
C 	C 	0.28932 0.66257 0.06494 0.48100
H 	H 	0.27440 0.64300 0.07200 -0.82400
Co	Co	0.24830 0.63592 0.07260 1.30400
H 	H 	0.35390 0.71650 0.06950 -0.39600
N 	N 	0.29722 0.56378 0.16696 -0.02000
N 	N 	0.81591 0.03665 0.21609 -0.37500
N 	N 	0.79175 0.03650 0.18930 -0.25300
C 	C 	0.82626 0.08208 0.17973 -0.29100
C 	C 	0.84077 0.11453 0.16220 0.18000
C 	C 	0.87132 0.13158 0.17579 -0.29300
H 	H 	0.88270 0.12220 0.19670 0.02100
C 	C 	0.83743 0.06494 0.21068 0.48300
H 	H 	0.85700 0.07200 0.22560 -0.83200
Co	Co	0.86408 0.07260 0.25170 1.32200
H 	H 	0.78350 0.06950 0.14610 -0.39900
N 	N 	0.81591 0.53665 0.71609 -0.37300
N 	N 	0.79175 0.53650 0.68930 -0.25100
C 	C 	0.82626 0.58208 0.67973 -0.29000
C 	C 	0.84077 0.61453 0.66220 0.18100
C 	C 	0.87132 0.63158 0.67579 -0.29200
H 	H 	0.88270 0.62220 0.69670 0.02100
C 	C 	0.83743 0.56494 0.71068 0.48400
H 	H 	0.85700 0.57200 0.72560 -0.83100
Co	Co	0.86408 0.57260 0.75170 1.32300
H 	H 	0.78350 0.56950 0.64610 -0.39700
N 	N 	0.31591 0.03665 0.71609 -0.37500
N 	N 	0.29175 0.03650 0.68930 -0.25300
C 	C 	0.32626 0.08208 0.67973 -0.29100
C 	C 	0.34077 0.11453 0.66220 0.17900
C 	C 	0.37132 0.13158 0.67579 -0.29300
H 	H 	0.38270 0.12220 0.69670 0.02000
C 	C 	0.33743 0.06494 0.71068 0.48300
H 	H 	0.35700 0.07200 0.72560 -0.83200
Co	Co	0.36408 0.07260 0.75170 1.32100
H 	H 	0.28350 0.06950 0.64610 -0.39800
N 	N 	0.31591 0.53665 0.21609 -0.37300
N 	N 	0.29175 0.53650 0.18930 -0.25100
C 	C 	0.32626 0.58208 0.17973 -0.29100
C 	C 	0.34077 0.61453 0.16220 0.18000
C 	C 	0.37132 0.63158 0.17579 -0.29300
H 	H 	0.38270 0.62220 0.19670 0.02000
C 	C 	0.33743 0.56494 0.21068 0.48400
H 	H 	0.35700 0.57200 0.22560 -0.83200
Co	Co	0.36408 0.57260 0.25170 1.32200
H 	H 	0.28350 0.56950 0.14610 -0.39800
N 	N 	0.81591 0.96335 0.78391 -0.36700
N 	N 	0.79175 0.96350 0.81070 -0.24400
C 	C 	0.82626 0.91792 0.82027 -0.28800
C 	C 	0.84077 0.88547 0.83780 0.18200
C 	C 	0.87132 0.86842 0.82421 -0.29200
H 	H 	0.88270 0.87780 0.80330 0.02200
C 	C 	0.83743 0.93506 0.78932 0.48600
H 	H 	0.85700 0.92800 0.77440 -0.83000
Co	Co	0.86408 0.92740 0.74830 1.32500
H 	H 	0.78350 0.93050 0.85390 -0.39400
N 	N 	0.81591 0.46335 0.28391 -0.37300
N 	N 	0.79175 0.46350 0.31070 -0.25100
C 	C 	0.82626 0.41792 0.32027 -0.29000
C 	C 	0.84077 0.38547 0.33780 0.18100
C 	C 	0.87132 0.36842 0.32421 -0.29200
H 	H 	0.88270 0.37780 0.30330 0.02100
C 	C 	0.83743 0.43506 0.28932 0.48400
H 	H 	0.85700 0.42800 0.27440 -0.83100
Co	Co	0.86408 0.42740 0.24830 1.32300
H 	H 	0.78350 0.43050 0.35390 -0.39700
N 	N 	0.31591 0.96335 0.28391 -0.36700
N 	N 	0.29175 0.96350 0.31070 -0.24500
C 	C 	0.32626 0.91792 0.32027 -0.28900
C 	C 	0.34077 0.88547 0.33780 0.18100
C 	C 	0.37132 0.86842 0.32421 -0.29200
H 	H 	0.38270 0.87780 0.30330 0.02100
C 	C 	0.33743 0.93506 0.28932 0.48500
H 	H 	0.35700 0.92800 0.27440 -0.83100
Co	Co	0.36408 0.92740 0.24830 1.32400
H 	H 	0.28350 0.93050 0.35390 -0.39500
N 	N 	0.31591 0.46335 0.78391 -0.37300
N 	N 	0.29175 0.46350 0.81070 -0.25100
C 	C 	0.32626 0.41792 0.82027 -0.29000
C 	C 	0.34077 0.38547 0.83780 0.18100
C 	C 	0.37132 0.36842 0.82421 -0.29200
H 	H 	0.38270 0.37780 0.80330 0.02100
C 	C 	0.33743 0.43506 0.78932 0.48400
H 	H 	0.35700 0.42800 0.77440 -0.83200
Co	Co	0.36408 0.42740 0.74830 1.32200
H 	H 	0.28350 0.43050 0.85390 -0.39600
N 	N 	0.18409 0.03665 0.78391 -0.37500
N 	N 	0.20825 0.03650 0.81070 -0.25300
C 	C 	0.17374 0.08208 0.82027 -0.29100
C 	C 	0.15923 0.11453 0.83780 0.17900
C 	C 	0.12868 0.13158 0.82421 -0.29200
H 	H 	0.11730 0.12220 0.80330 0.02000
C 	C 	0.16257 0.06494 0.78932 0.48200
H 	H 	0.14300 0.07200 0.77440 -0.83200
Co	Co	0.13592 0.07260 0.74830 1.32100
H 	H 	0.21650 0.06950 0.85390 -0.39800
N 	N 	0.18409 0.53665 0.28391 -0.37300
N 	N 	0.20825 0.53650 0.31070 -0.25100
C 	C 	0.17374 0.58208 0.32027 -0.29100
C 	C 	0.15923 0.61453 0.33780 0.18000
C 	C 	0.12868 0.63158 0.32421 -0.29200
H 	H 	0.11730 0.62220 0.30330 0.02000
C 	C 	0.16257 0.56494 0.28932 0.48300
H 	H 	0.14300 0.57200 0.27440 -0.83200
Co	Co	0.13592 0.57260 0.24830 1.32200
H 	H 	0.21650 0.56950 0.35390 -0.39700
N 	N 	0.68409 0.03665 0.28391 -0.37500
N 	N 	0.70825 0.03650 0.31070 -0.25300
C 	C 	0.67374 0.08208 0.32027 -0.29100
C 	C 	0.65923 0.11453 0.33780 0.17900
C 	C 	0.62868 0.13158 0.32421 -0.29300
H 	H 	0.61730 0.12220 0.30330 0.02000
C 	C 	0.66257 0.06494 0.28932 0.48200
H 	H 	0.64300 0.07200 0.27440 -0.83200
Co	Co	0.63592 0.07260 0.24830 1.32100
H 	H 	0.71650 0.06950 0.35390 -0.39800
N 	N 	0.68409 0.53665 0.78391 -0.37300
N 	N 	0.70825 0.53650 0.81070 -0.25100
C 	C 	0.67374 0.58208 0.82027 -0.29000
C 	C 	0.65923 0.61453 0.83780 0.18100
C 	C 	0.62868 0.63158 0.82421 -0.29200
H 	H 	0.61730 0.62220 0.80330 0.02100
C 	C 	0.66257 0.56494 0.78932 0.48400
H 	H 	0.64300 0.57200 0.77440 -0.83200
Co	Co	0.63592 0.57260 0.74830 1.32200
H 	H 	0.71650 0.56950 0.85390 -0.39600
N 	N 	0.18409 0.96335 0.21609 -0.36700
N 	N 	0.20825 0.96350 0.18930 -0.24500
C 	C 	0.17374 0.91792 0.17973 -0.29000
C 	C 	0.15923 0.88547 0.16220 0.18000
C 	C 	0.12868 0.86842 0.17579 -0.29200
H 	H 	0.11730 0.87780 0.19670 0.02000
C 	C 	0.16257 0.93506 0.21068 0.48500
H 	H 	0.14300 0.92800 0.22560 -0.83100
Co	Co	0.13592 0.92740 0.25170 1.32300
H 	H 	0.21650 0.93050 0.14610 -0.39600
N 	N 	0.18409 0.46335 0.71609 -0.37300
N 	N 	0.20825 0.46350 0.68930 -0.25100
C 	C 	0.17374 0.41792 0.67973 -0.29100
C 	C 	0.15923 0.38547 0.66220 0.18000
C 	C 	0.12868 0.36842 0.67579 -0.29300
H 	H 	0.11730 0.37780 0.69670 0.02000
C 	C 	0.16257 0.43506 0.71068 0.48300
H 	H 	0.14300 0.42800 0.72560 -0.83200
Co	Co	0.13592 0.42740 0.75170 1.32200
H 	H 	0.21650 0.43050 0.64610 -0.39700
N 	N 	0.68409 0.96335 0.71609 -0.36700
N 	N 	0.70825 0.96350 0.68930 -0.24500
C 	C 	0.67374 0.91792 0.67973 -0.28900
C 	C 	0.65923 0.88547 0.66220 0.18100
C 	C 	0.62868 0.86842 0.67579 -0.29200
H 	H 	0.61730 0.87780 0.69670 0.02100
C 	C 	0.66257 0.93506 0.71068 0.48500
H 	H 	0.64300 0.92800 0.72560 -0.83100
Co	Co	0.63592 0.92740 0.75170 1.32400
H 	H 	0.71650 0.93050 0.64610 -0.39500
N 	N 	0.68409 0.46335 0.21609 -0.37300
N 	N 	0.70825 0.46350 0.18930 -0.25100
C 	C 	0.67374 0.41792 0.17973 -0.29100
C 	C 	0.65923 0.38547 0.16220 0.18000
C 	C 	0.62868 0.36842 0.17579 -0.29300
H 	H 	0.61730 0.37780 0.19670 0.02000
C 	C 	0.66257 0.43506 0.21068 0.48400
H 	H 	0.64300 0.42800 0.22560 -0.83200
Co	Co	0.63592 0.42740 0.25170 1.32200
H 	H 	0.71650 0.43050 0.14610 -0.39800
N 	N 	0.71609 0.46335 0.68409 -0.38300
N 	N 	0.68930 0.46350 0.70825 -0.34500
C 	C 	0.67973 0.41792 0.67374 -0.51900
C 	C 	0.66220 0.38547 0.65923 0.25600
C 	C 	0.67579 0.36842 0.62868 -0.28700
H 	H 	0.69670 0.37780 0.61730 0.02200
C 	C 	0.66696 0.43622 0.70278 0.39800
C 	C 	0.71068 0.43506 0.66257 0.57400
H 	H 	0.72560 0.42800 0.64300 -0.85800
Co	Co	0.75170 0.42740 0.63592 1.31200
H 	H 	0.64610 0.43050 0.71650 -0.57400
N 	N 	0.70278 0.33304 0.56378 -0.01900
N 	N 	0.71609 0.96335 0.18409 -0.37800
N 	N 	0.68930 0.96350 0.20825 -0.33900
C 	C 	0.67973 0.91792 0.17374 -0.51800
C 	C 	0.66220 0.88547 0.15923 0.25700
C 	C 	0.67579 0.86842 0.12868 -0.28700
H 	H 	0.69670 0.87780 0.11730 0.02200
C 	C 	0.66696 0.93622 0.20278 0.39900
C 	C 	0.71068 0.93506 0.16257 0.57500
H 	H 	0.72560 0.92800 0.14300 -0.85800
Co	Co	0.75170 0.92740 0.13592 1.31200
H 	H 	0.64610 0.93050 0.21650 -0.57300
N 	N 	0.70278 0.83304 0.06378 -0.02000
N 	N 	0.21609 0.46335 0.18409 -0.38400
N 	N 	0.18930 0.46350 0.20825 -0.34500
C 	C 	0.17973 0.41792 0.17374 -0.51900
C 	C 	0.16220 0.38547 0.15923 0.25500
C 	C 	0.17579 0.36842 0.12868 -0.28700
H 	H 	0.19670 0.37780 0.11730 0.02100
C 	C 	0.16696 0.43622 0.20278 0.39700
C 	C 	0.21068 0.43506 0.16257 0.57300
H 	H 	0.22560 0.42800 0.14300 -0.85900
Co	Co	0.25170 0.42740 0.13592 1.31100
H 	H 	0.14610 0.43050 0.21650 -0.57500
N 	N 	0.20278 0.33304 0.06378 -0.02000
N 	N 	0.21609 0.96335 0.68409 -0.37800
N 	N 	0.18930 0.96350 0.70825 -0.33900
C 	C 	0.17973 0.91792 0.67374 -0.51800
C 	C 	0.16220 0.88547 0.65923 0.25700
C 	C 	0.17579 0.86842 0.62868 -0.28700
H 	H 	0.19670 0.87780 0.61730 0.02200
C 	C 	0.16696 0.93622 0.70278 0.39900
C 	C 	0.21068 0.93506 0.66257 0.57500
H 	H 	0.22560 0.92800 0.64300 -0.85700
Co	Co	0.25170 0.92740 0.63592 1.31300
H 	H 	0.14610 0.93050 0.71650 -0.57300
N 	N 	0.20278 0.83304 0.56378 -0.01900
N 	N 	0.28391 0.53665 0.68409 -0.38300
N 	N 	0.31070 0.53650 0.70825 -0.34500
C 	C 	0.32027 0.58208 0.67374 -0.51900
C 	C 	0.33780 0.61453 0.65923 0.25600
C 	C 	0.32421 0.63158 0.62868 -0.28700
H 	H 	0.30330 0.62220 0.61730 0.02200
C 	C 	0.33304 0.56378 0.70278 0.39800
C 	C 	0.28932 0.56494 0.66257 0.57400
H 	H 	0.27440 0.57200 0.64300 -0.85800
Co	Co	0.24830 0.57260 0.63592 1.31100
H 	H 	0.35390 0.56950 0.71650 -0.57400
N 	N 	0.29722 0.66696 0.56378 -0.01900
N 	N 	0.28391 0.03665 0.18409 -0.38500
N 	N 	0.31070 0.03650 0.20825 -0.34600
C 	C 	0.32027 0.08208 0.17374 -0.51900
C 	C 	0.33780 0.11453 0.15923 0.25500
C 	C 	0.32421 0.13158 0.12868 -0.28700
H 	H 	0.30330 0.12220 0.11730 0.02100
C 	C 	0.33304 0.06378 0.20278 0.39600
C 	C 	0.28932 0.06494 0.16257 0.57200
H 	H 	0.27440 0.07200 0.14300 -0.85900
Co	Co	0.24830 0.07260 0.13592 1.31000
H 	H 	0.35390 0.06950 0.21650 -0.57500
N 	N 	0.29722 0.16696 0.06378 -0.02000
N 	N 	0.78391 0.53665 0.18409 -0.38300
N 	N 	0.81070 0.53650 0.20825 -0.34400
C 	C 	0.82027 0.58208 0.17374 -0.51900
C 	C 	0.83780 0.61453 0.15923 0.25600
C 	C 	0.82421 0.63158 0.12868 -0.28700
H 	H 	0.80330 0.62220 0.11730 0.02100
C 	C 	0.83304 0.56378 0.20278 0.39800
C 	C 	0.78932 0.56494 0.16257 0.57400
H 	H 	0.77440 0.57200 0.14300 -0.85800
Co	Co	0.74830 0.57260 0.13592 1.31100
H 	H 	0.85390 0.56950 0.21650 -0.57400
N 	N 	0.79722 0.66696 0.06378 -0.02000
N 	N 	0.78391 0.03665 0.68409 -0.38500
N 	N 	0.81070 0.03650 0.70825 -0.34600
C 	C 	0.82027 0.08208 0.67374 -0.51900
C 	C 	0.83780 0.11453 0.65923 0.25600
C 	C 	0.82421 0.13158 0.62868 -0.28700
H 	H 	0.80330 0.12220 0.61730 0.02100
C 	C 	0.83304 0.06378 0.70278 0.39700
C 	C 	0.78932 0.06494 0.66257 0.57200
H 	H 	0.77440 0.07200 0.64300 -0.85900
Co	Co	0.74830 0.07260 0.63592 1.31000
H 	H 	0.85390 0.06950 0.71650 -0.57400
N 	N 	0.79722 0.16696 0.56378 -0.01900
N 	N 	0.28391 0.46335 0.31591 -0.38300
N 	N 	0.31070 0.46350 0.29175 -0.34400
C 	C 	0.32027 0.41792 0.32626 -0.51900
C 	C 	0.33780 0.38547 0.34077 0.25600
C 	C 	0.32421 0.36842 0.37132 -0.28700
H 	H 	0.30330 0.37780 0.38270 0.02200
C 	C 	0.33304 0.43622 0.29722 0.39800
C 	C 	0.28932 0.43506 0.33743 0.57400
H 	H 	0.27440 0.42800 0.35700 -0.85800
Co	Co	0.24830 0.42740 0.36408 1.31100
H 	H 	0.35390 0.43050 0.28350 -0.57400
N 	N 	0.29722 0.33304 0.43622 -0.01900
N 	N 	0.28391 0.96335 0.81591 -0.37700
N 	N 	0.31070 0.96350 0.79175 -0.33800
C 	C 	0.32027 0.91792 0.82626 -0.51800
C 	C 	0.33780 0.88547 0.84077 0.25800
C 	C 	0.32421 0.86842 0.87132 -0.28600
H 	H 	0.30330 0.87780 0.88270 0.02300
C 	C 	0.33304 0.93622 0.79722 0.40000
C 	C 	0.28932 0.93506 0.83743 0.57600
H 	H 	0.27440 0.92800 0.85700 -0.85700
Co	Co	0.24830 0.92740 0.86408 1.31400
H 	H 	0.35390 0.93050 0.78350 -0.57300
N 	N 	0.29722 0.83304 0.93622 -0.01900
N 	N 	0.78391 0.46335 0.81591 -0.38300
N 	N 	0.81070 0.46350 0.79175 -0.34400
C 	C 	0.82027 0.41792 0.82626 -0.51800
C 	C 	0.83780 0.38547 0.84077 0.25700
C 	C 	0.82421 0.36842 0.87132 -0.28600
H 	H 	0.80330 0.37780 0.88270 0.02300
C 	C 	0.83304 0.43622 0.79722 0.39900
C 	C 	0.78932 0.43506 0.83743 0.57500
H 	H 	0.77440 0.42800 0.85700 -0.85800
Co	Co	0.74830 0.42740 0.86408 1.31200
H 	H 	0.85390 0.43050 0.78350 -0.57300
N 	N 	0.79722 0.33304 0.93622 -0.01900
N 	N 	0.78391 0.96335 0.31591 -0.37700
N 	N 	0.81070 0.96350 0.29175 -0.33800
C 	C 	0.82027 0.91792 0.32626 -0.51800
C 	C 	0.83780 0.88547 0.34077 0.25800
C 	C 	0.82421 0.86842 0.37132 -0.28700
H 	H 	0.80330 0.87780 0.38270 0.02300
C 	C 	0.83304 0.93622 0.29722 0.40000
C 	C 	0.78932 0.93506 0.33743 0.57600
H 	H 	0.77440 0.92800 0.35700 -0.85700
Co	Co	0.74830 0.92740 0.36408 1.31300
H 	H 	0.85390 0.93050 0.28350 -0.57200
N 	N 	0.79722 0.83304 0.43622 -0.01900
N 	N 	0.71609 0.53665 0.31591 -0.38300
N 	N 	0.68930 0.53650 0.29175 -0.34500
C 	C 	0.67973 0.58208 0.32626 -0.51900
C 	C 	0.66220 0.61453 0.34077 0.25600
C 	C 	0.67579 0.63158 0.37132 -0.28700
H 	H 	0.69670 0.62220 0.38270 0.02200
C 	C 	0.66696 0.56378 0.29722 0.39800
C 	C 	0.71068 0.56494 0.33743 0.57400
H 	H 	0.72560 0.57200 0.35700 -0.85800
Co	Co	0.75170 0.57260 0.36408 1.31200
H 	H 	0.64610 0.56950 0.28350 -0.57400
N 	N 	0.70278 0.66696 0.43622 -0.01900
N 	N 	0.71609 0.03665 0.81591 -0.38500
N 	N 	0.68930 0.03650 0.79175 -0.34600
C 	C 	0.67973 0.08208 0.82626 -0.51900
C 	C 	0.66220 0.11453 0.84077 0.25600
C 	C 	0.67579 0.13158 0.87132 -0.28700
H 	H 	0.69670 0.12220 0.88270 0.02200
C 	C 	0.66696 0.06378 0.79722 0.39700
C 	C 	0.71068 0.06494 0.83743 0.57300
H 	H 	0.72560 0.07200 0.85700 -0.85800
Co	Co	0.75170 0.07260 0.86408 1.31100
H 	H 	0.64610 0.06950 0.78350 -0.57500
N 	N 	0.70278 0.16696 0.93622 -0.01900
N 	N 	0.21609 0.53665 0.81591 -0.38300
N 	N 	0.18930 0.53650 0.79175 -0.34500
C 	C 	0.17973 0.58208 0.82626 -0.51900
C 	C 	0.16220 0.61453 0.84077 0.25600
C 	C 	0.17579 0.63158 0.87132 -0.28700
H 	H 	0.19670 0.62220 0.88270 0.02200
C 	C 	0.16696 0.56378 0.79722 0.39800
C 	C 	0.21068 0.56494 0.83743 0.57400
H 	H 	0.22560 0.57200 0.85700 -0.85800
Co	Co	0.25170 0.57260 0.86408 1.31200
H 	H 	0.14610 0.56950 0.78350 -0.57400
N 	N 	0.20278 0.66696 0.93622 -0.01900
N 	N 	0.21609 0.03665 0.31591 -0.38500
N 	N 	0.18930 0.03650 0.29175 -0.34700
C 	C 	0.17973 0.08208 0.32626 -0.51900
C 	C 	0.16220 0.11453 0.34077 0.25500
C 	C 	0.17579 0.13158 0.37132 -0.28700
H 	H 	0.19670 0.12220 0.38270 0.02100
C 	C 	0.16696 0.06378 0.29722 0.39600
C 	C 	0.21068 0.06494 0.33743 0.57200
H 	H 	0.22560 0.07200 0.35700 -0.85900
Co	Co	0.25170 0.07260 0.36408 1.31000
H 	H 	0.14610 0.06950 0.28350 -0.57500
N 	N 	0.20278 0.16696 0.43622 -0.02000
N 	N 	0.68409 0.71609 0.46335 -0.36900
N 	N 	0.70825 0.68930 0.46350 -0.25000
C 	C 	0.67374 0.67973 0.41792 -0.28700
C 	C 	0.65923 0.66220 0.38547 0.17900
C 	C 	0.62868 0.67579 0.36842 -0.25300
H 	H 	0.61730 0.69670 0.37780 0.00700
C 	C 	0.66257 0.71068 0.43506 0.48200
H 	H 	0.64300 0.72560 0.42800 -0.82400
Co	Co	0.63592 0.75170 0.42740 1.30500
H 	H 	0.71650 0.64610 0.43050 -0.39500
N 	N 	0.56378 0.70278 0.33304 -0.02000
N 	N 	0.68409 0.21609 0.96335 -0.36300
N 	N 	0.70825 0.18930 0.96350 -0.24400
C 	C 	0.67374 0.17973 0.91792 -0.28600
C 	C 	0.65923 0.16220 0.88547 0.17900
C 	C 	0.62868 0.17579 0.86842 -0.25300
H 	H 	0.61730 0.19670 0.87780 0.00800
C 	C 	0.66257 0.21068 0.93506 0.48300
H 	H 	0.64300 0.22560 0.92800 -0.82300
Co	Co	0.63592 0.25170 0.92740 1.30600
H 	H 	0.71650 0.14610 0.93050 -0.39400
N 	N 	0.56378 0.20278 0.83304 -0.02000
N 	N 	0.18409 0.71609 0.96335 -0.36300
N 	N 	0.20825 0.68930 0.96350 -0.24400
C 	C 	0.17374 0.67973 0.91792 -0.28600
C 	C 	0.15923 0.66220 0.88547 0.17900
C 	C 	0.12868 0.67579 0.86842 -0.25300
H 	H 	0.11730 0.69670 0.87780 0.00700
C 	C 	0.16257 0.71068 0.93506 0.48300
H 	H 	0.14300 0.72560 0.92800 -0.82300
Co	Co	0.13592 0.75170 0.92740 1.30600
H 	H 	0.21650 0.64610 0.93050 -0.39400
N 	N 	0.06378 0.70278 0.83304 -0.02000
N 	N 	0.18409 0.21609 0.46335 -0.36900
N 	N 	0.20825 0.18930 0.46350 -0.25000
C 	C 	0.17374 0.17973 0.41792 -0.28800
C 	C 	0.15923 0.16220 0.38547 0.17800
C 	C 	0.12868 0.17579 0.36842 -0.25300
H 	H 	0.11730 0.19670 0.37780 0.00600
C 	C 	0.16257 0.21068 0.43506 0.48200
H 	H 	0.14300 0.22560 0.42800 -0.82400
Co	Co	0.13592 0.25170 0.42740 1.30400
H 	H 	0.21650 0.14610 0.43050 -0.39600
N 	N 	0.06378 0.20278 0.33304 -0.02000
N 	N 	0.68409 0.28391 0.53665 -0.36900
N 	N 	0.70825 0.31070 0.53650 -0.25000
C 	C 	0.67374 0.32027 0.58208 -0.28700
C 	C 	0.65923 0.33780 0.61453 0.17900
C 	C 	0.62868 0.32421 0.63158 -0.25300
H 	H 	0.61730 0.30330 0.62220 0.00700
C 	C 	0.66257 0.28932 0.56494 0.48200
H 	H 	0.64300 0.27440 0.57200 -0.82400
Co	Co	0.63592 0.24830 0.57260 1.30500
H 	H 	0.71650 0.35390 0.56950 -0.39500
N 	N 	0.56378 0.29722 0.66696 -0.02000
N 	N 	0.68409 0.78391 0.03665 -0.37100
N 	N 	0.70825 0.81070 0.03650 -0.25200
C 	C 	0.67374 0.82027 0.08208 -0.28800
C 	C 	0.65923 0.83780 0.11453 0.17800
C 	C 	0.62868 0.82421 0.13158 -0.25300
H 	H 	0.61730 0.80330 0.12220 0.00700
C 	C 	0.66257 0.78932 0.06494 0.48100
H 	H 	0.64300 0.77440 0.07200 -0.82400
Co	Co	0.63592 0.74830 0.07260 1.30400
H 	H 	0.71650 0.85390 0.06950 -0.39600
N 	N 	0.56378 0.79722 0.16696 -0.02000
N 	N 	0.18409 0.28391 0.03665 -0.37100
N 	N 	0.20825 0.31070 0.03650 -0.25200
C 	C 	0.17374 0.32027 0.08208 -0.28800
C 	C 	0.15923 0.33780 0.11453 0.17700
C 	C 	0.12868 0.32421 0.13158 -0.25300
H 	H 	0.11730 0.30330 0.12220 0.00600
C 	C 	0.16257 0.28932 0.06494 0.48000
H 	H 	0.14300 0.27440 0.07200 -0.82400
Co	Co	0.13592 0.24830 0.07260 1.30300
H 	H 	0.21650 0.35390 0.06950 -0.39600
N 	N 	0.06378 0.29722 0.16696 -0.02000
N 	N 	0.18409 0.78391 0.53665 -0.36900
N 	N 	0.20825 0.81070 0.53650 -0.25000
C 	C 	0.17374 0.82027 0.58208 -0.28700
C 	C 	0.15923 0.83780 0.61453 0.17900
C 	C 	0.12868 0.82421 0.63158 -0.25300
H 	H 	0.11730 0.80330 0.62220 0.00700
C 	C 	0.16257 0.78932 0.56494 0.48200
H 	H 	0.14300 0.77440 0.57200 -0.82400
Co	Co	0.13592 0.74830 0.57260 1.30400
H 	H 	0.21650 0.85390 0.56950 -0.39500
N 	N 	0.06378 0.79722 0.66696 -0.02000
N 	N 	0.31591 0.28391 0.46335 -0.36900
N 	N 	0.29175 0.31070 0.46350 -0.25000
C 	C 	0.32626 0.32027 0.41792 -0.28700
C 	C 	0.34077 0.33780 0.38547 0.17900
C 	C 	0.37132 0.32421 0.36842 -0.25300
H 	H 	0.38270 0.30330 0.37780 0.00700
C 	C 	0.33743 0.28932 0.43506 0.48200
H 	H 	0.35700 0.27440 0.42800 -0.82400
Co	Co	0.36408 0.24830 0.42740 1.30500
H 	H 	0.28350 0.35390 0.43050 -0.39500
N 	N 	0.43622 0.29722 0.33304 -0.02000
N 	N 	0.31591 0.78391 0.96335 -0.36300
N 	N 	0.29175 0.81070 0.96350 -0.24300
C 	C 	0.32626 0.82027 0.91792 -0.28500
C 	C 	0.34077 0.83780 0.88547 0.18000
C 	C 	0.37132 0.82421 0.86842 -0.25300
H 	H 	0.38270 0.80330 0.87780 0.00800
C 	C 	0.33743 0.78932 0.93506 0.48400
H 	H 	0.35700 0.77440 0.92800 -0.82200
Co	Co	0.36408 0.74830 0.92740 1.30700
H 	H 	0.28350 0.85390 0.93050 -0.39300
N 	N 	0.43622 0.79722 0.83304 -0.01900
N 	N 	0.81591 0.28391 0.96335 -0.36300
N 	N 	0.79175 0.31070 0.96350 -0.24300
C 	C 	0.82626 0.32027 0.91792 -0.28500
C 	C 	0.84077 0.33780 0.88547 0.18000
C 	C 	0.87132 0.32421 0.86842 -0.25200
H 	H 	0.88270 0.30330 0.87780 0.00800
C 	C 	0.83743 0.28932 0.93506 0.48400
H 	H 	0.85700 0.27440 0.92800 -0.82200
Co	Co	0.86408 0.24830 0.92740 1.30700
H 	H 	0.78350 0.35390 0.93050 -0.39300
N 	N 	0.93622 0.29722 0.83304 -0.01900
N 	N 	0.81591 0.78391 0.46335 -0.36800
N 	N 	0.79175 0.81070 0.46350 -0.24900
C 	C 	0.82626 0.82027 0.41792 -0.28600
C 	C 	0.84077 0.83780 0.38547 0.18000
C 	C 	0.87132 0.82421 0.36842 -0.25300
H 	H 	0.88270 0.80330 0.37780 0.00800
C 	C 	0.83743 0.78932 0.43506 0.48300
H 	H 	0.85700 0.77440 0.42800 -0.82300
Co	Co	0.86408 0.74830 0.42740 1.30600
H 	H 	0.78350 0.85390 0.43050 -0.39400
N 	N 	0.93622 0.79722 0.33304 -0.01900
N 	N 	0.31591 0.71609 0.53665 -0.36900
N 	N 	0.29175 0.68930 0.53650 -0.25000
C 	C 	0.32626 0.67973 0.58208 -0.28700
C 	C 	0.34077 0.66220 0.61453 0.17900
C 	C 	0.37132 0.67579 0.63158 -0.25300
H 	H 	0.38270 0.69670 0.62220 0.00700
C 	C 	0.33743 0.71068 0.56494 0.48200
H 	H 	0.35700 0.72560 0.57200 -0.82400
Co	Co	0.36408 0.75170 0.57260 1.30500
H 	H 	0.28350 0.64610 0.56950 -0.39500
N 	N 	0.43622 0.70278 0.66696 -0.02000
N 	N 	0.31591 0.21609 0.03665 -0.37100
N 	N 	0.29175 0.18930 0.03650 -0.25200
C 	C 	0.32626 0.17973 0.08208 -0.28800
C 	C 	0.34077 0.16220 0.11453 0.17700
C 	C 	0.37132 0.17579 0.13158 -0.25300
H 	H 	0.38270 0.19670 0.12220 0.00600
C 	C 	0.33743 0.21068 0.06494 0.48100
H 	H 	0.35700 0.22560 0.07200 -0.82400
Co	Co	0.36408 0.25170 0.07260 1.30400
H 	H 	0.28350 0.14610 0.06950 -0.39700
N 	N 	0.43622 0.20278 0.16696 -0.02000
N 	N 	0.81591 0.71609 0.03665 -0.37000
N 	N 	0.79175 0.68930 0.03650 -0.25200
C 	C 	0.82626 0.67973 0.08208 -0.28800
C 	C 	0.84077 0.66220 0.11453 0.17800
C 	C 	0.87132 0.67579 0.13158 -0.25300
H 	H 	0.88270 0.69670 0.12220 0.00700
C 	C 	0.83743 0.71068 0.06494 0.48100
H 	H 	0.85700 0.72560 0.07200 -0.82400
Co	Co	0.86408 0.75170 0.07260 1.30500
H 	H 	0.78350 0.64610 0.06950 -0.39600
N 	N 	0.93622 0.70278 0.16696 -0.01900
N 	N 	0.81591 0.21609 0.53665 -0.36900
N 	N 	0.79175 0.18930 0.53650 -0.25000
C 	C 	0.82626 0.17973 0.58208 -0.28700
C 	C 	0.84077 0.16220 0.61453 0.17900
C 	C 	0.87132 0.17579 0.63158 -0.25300
H 	H 	0.88270 0.19670 0.62220 0.00800
C 	C 	0.83743 0.21068 0.56494 0.48300
H 	H 	0.85700 0.22560 0.57200 -0.82300
Co	Co	0.86408 0.25170 0.57260 1.30600
H 	H 	0.78350 0.14610 0.56950 -0.39500
N 	N 	0.93622 0.20278 0.66696 -0.01900
N 	N 	0.46335 0.68409 0.71609 -0.37300
N 	N 	0.46350 0.70825 0.68930 -0.25100
C 	C 	0.41792 0.67374 0.67973 -0.29000
C 	C 	0.38547 0.65923 0.66220 0.18000
C 	C 	0.36842 0.62868 0.67579 -0.29300
H 	H 	0.37780 0.61730 0.69670 0.02100
C 	C 	0.43506 0.66257 0.71068 0.48400
H 	H 	0.42800 0.64300 0.72560 -0.83200
Co	Co	0.42740 0.63592 0.75170 1.32200
H 	H 	0.43050 0.71650 0.64610 -0.39700
N 	N 	0.46335 0.18409 0.21609 -0.37300
N 	N 	0.46350 0.20825 0.18930 -0.25100
C 	C 	0.41792 0.17374 0.17973 -0.29100
C 	C 	0.38547 0.15923 0.16220 0.17900
C 	C 	0.36842 0.12868 0.17579 -0.29300
H 	H 	0.37780 0.11730 0.19670 0.02000
C 	C 	0.43506 0.16257 0.21068 0.48300
H 	H 	0.42800 0.14300 0.22560 -0.83200
Co	Co	0.42740 0.13592 0.25170 1.32200
H 	H 	0.43050 0.21650 0.14610 -0.39800
N 	N 	0.96335 0.68409 0.21609 -0.36700
N 	N 	0.96350 0.70825 0.18930 -0.24500
C 	C 	0.91792 0.67374 0.17973 -0.29000
C 	C 	0.88547 0.65923 0.16220 0.18000
C 	C 	0.86842 0.62868 0.17579 -0.29200
H 	H 	0.87780 0.61730 0.19670 0.02100
C 	C 	0.93506 0.66257 0.21068 0.48500
H 	H 	0.92800 0.64300 0.22560 -0.83100
Co	Co	0.92740 0.63592 0.25170 1.32400
H 	H 	0.93050 0.71650 0.14610 -0.39600
N 	N 	0.96335 0.18409 0.71609 -0.36700
N 	N 	0.96350 0.20825 0.68930 -0.24500
C 	C 	0.91792 0.17374 0.67973 -0.28900
C 	C 	0.88547 0.15923 0.66220 0.18000
C 	C 	0.86842 0.12868 0.67579 -0.29200
H 	H 	0.87780 0.11730 0.69670 0.02100
C 	C 	0.93506 0.16257 0.71068 0.48500
H 	H 	0.92800 0.14300 0.72560 -0.83100
Co	Co	0.92740 0.13592 0.75170 1.32300
H 	H 	0.93050 0.21650 0.64610 -0.39500
N 	N 	0.53665 0.68409 0.28391 -0.37300
N 	N 	0.53650 0.70825 0.31070 -0.25100
C 	C 	0.58208 0.67374 0.32027 -0.29000
C 	C 	0.61453 0.65923 0.33780 0.18000
C 	C 	0.63158 0.62868 0.32421 -0.29200
H 	H 	0.62220 0.61730 0.30330 0.02100
C 	C 	0.56494 0.66257 0.28932 0.48400
H 	H 	0.57200 0.64300 0.27440 -0.83200
Co	Co	0.57260 0.63592 0.24830 1.32200
H 	H 	0.56950 0.71650 0.35390 -0.39700
N 	N 	0.53665 0.18409 0.78391 -0.37300
N 	N 	0.53650 0.20825 0.81070 -0.25100
C 	C 	0.58208 0.17374 0.82027 -0.29000
C 	C 	0.61453 0.15923 0.83780 0.18000
C 	C 	0.63158 0.12868 0.82421 -0.29200
H 	H 	0.62220 0.11730 0.80330 0.02000
C 	C 	0.56494 0.16257 0.78932 0.48400
H 	H 	0.57200 0.14300 0.77440 -0.83200
Co	Co	0.57260 0.13592 0.74830 1.32200
H 	H 	0.56950 0.21650 0.85390 -0.39700
N 	N 	0.03665 0.68409 0.78391 -0.37500
N 	N 	0.03650 0.70825 0.81070 -0.25300
C 	C 	0.08208 0.67374 0.82027 -0.29100
C 	C 	0.11453 0.65923 0.83780 0.18000
C 	C 	0.13158 0.62868 0.82421 -0.29300
H 	H 	0.12220 0.61730 0.80330 0.02000
C 	C 	0.06494 0.66257 0.78932 0.48300
H 	H 	0.07200 0.64300 0.77440 -0.83200
Co	Co	0.07260 0.63592 0.74830 1.32100
H 	H 	0.06950 0.71650 0.85390 -0.39800
N 	N 	0.03665 0.18409 0.28391 -0.37500
N 	N 	0.03650 0.20825 0.31070 -0.25300
C 	C 	0.08208 0.17374 0.32027 -0.29100
C 	C 	0.11453 0.15923 0.33780 0.17900
C 	C 	0.13158 0.12868 0.32421 -0.29300
H 	H 	0.12220 0.11730 0.30330 0.01900
C 	C 	0.06494 0.16257 0.28932 0.48200
H 	H 	0.07200 0.14300 0.27440 -0.83300
Co	Co	0.07260 0.13592 0.24830 1.32000
H 	H 	0.06950 0.21650 0.35390 -0.39800
N 	N 	0.46335 0.31591 0.28391 -0.37300
N 	N 	0.46350 0.29175 0.31070 -0.25100
C 	C 	0.41792 0.32626 0.32027 -0.29000
C 	C 	0.38547 0.34077 0.33780 0.18000
C 	C 	0.36842 0.37132 0.32421 -0.29200
H 	H 	0.37780 0.38270 0.30330 0.02100
C 	C 	0.43506 0.33743 0.28932 0.48400
H 	H 	0.42800 0.35700 0.27440 -0.83200
Co	Co	0.42740 0.36408 0.24830 1.32200
H 	H 	0.43050 0.28350 0.35390 -0.39700
N 	N 	0.46335 0.81591 0.78391 -0.37300
N 	N 	0.46350 0.79175 0.81070 -0.25000
C 	C 	0.41792 0.82626 0.82027 -0.29000
C 	C 	0.38547 0.84077 0.83780 0.18100
C 	C 	0.36842 0.87132 0.82421 -0.29200
H 	H 	0.37780 0.88270 0.80330 0.02200
C 	C 	0.43506 0.83743 0.78932 0.48500
H 	H 	0.42800 0.85700 0.77440 -0.83100
Co	Co	0.42740 0.86408 0.74830 1.32300
H 	H 	0.43050 0.78350 0.85390 -0.39600
N 	N 	0.96335 0.31591 0.78391 -0.36700
N 	N 	0.96350 0.29175 0.81070 -0.24400
C 	C 	0.91792 0.32626 0.82027 -0.28900
C 	C 	0.88547 0.34077 0.83780 0.18100
C 	C 	0.86842 0.37132 0.82421 -0.29200
H 	H 	0.87780 0.38270 0.80330 0.02100
C 	C 	0.93506 0.33743 0.78932 0.48500
H 	H 	0.92800 0.35700 0.77440 -0.83100
Co	Co	0.92740 0.36408 0.74830 1.32400
H 	H 	0.93050 0.28350 0.85390 -0.39500
N 	N 	0.96335 0.81591 0.28391 -0.36700
N 	N 	0.96350 0.79175 0.31070 -0.24500
C 	C 	0.91792 0.82626 0.32027 -0.28900
C 	C 	0.88547 0.84077 0.33780 0.18200
C 	C 	0.86842 0.87132 0.32421 -0.29200
H 	H 	0.87780 0.88270 0.30330 0.02200
C 	C 	0.93506 0.83743 0.28932 0.48600
H 	H 	0.92800 0.85700 0.27440 -0.83000
Co	Co	0.92740 0.86408 0.24830 1.32400
H 	H 	0.93050 0.78350 0.35390 -0.39500
N 	N 	0.53665 0.31591 0.71609 -0.37300
N 	N 	0.53650 0.29175 0.68930 -0.25100
C 	C 	0.58208 0.32626 0.67973 -0.29000
C 	C 	0.61453 0.34077 0.66220 0.18000
C 	C 	0.63158 0.37132 0.67579 -0.29300
H 	H 	0.62220 0.38270 0.69670 0.02100
C 	C 	0.56494 0.33743 0.71068 0.48400
H 	H 	0.57200 0.35700 0.72560 -0.83200
Co	Co	0.57260 0.36408 0.75170 1.32200
H 	H 	0.56950 0.28350 0.64610 -0.39700
N 	N 	0.53665 0.81591 0.21609 -0.37300
N 	N 	0.53650 0.79175 0.18930 -0.25100
C 	C 	0.58208 0.82626 0.17973 -0.29000
C 	C 	0.61453 0.84077 0.16220 0.18000
C 	C 	0.63158 0.87132 0.17579 -0.29200
H 	H 	0.62220 0.88270 0.19670 0.02100
C 	C 	0.56494 0.83743 0.21068 0.48400
H 	H 	0.57200 0.85700 0.22560 -0.83100
Co	Co	0.57260 0.86408 0.25170 1.32300
H 	H 	0.56950 0.78350 0.14610 -0.39700
N 	N 	0.03665 0.31591 0.21609 -0.37500
N 	N 	0.03650 0.29175 0.18930 -0.25300
C 	C 	0.08208 0.32626 0.17973 -0.29200
C 	C 	0.11453 0.34077 0.16220 0.17900
C 	C 	0.13158 0.37132 0.17579 -0.29300
H 	H 	0.12220 0.38270 0.19670 0.02000
C 	C 	0.06494 0.33743 0.21068 0.48200
H 	H 	0.07200 0.35700 0.22560 -0.83200
Co	Co	0.07260 0.36408 0.25170 1.32100
H 	H 	0.06950 0.28350 0.14610 -0.39900
N 	N 	0.03665 0.81591 0.71609 -0.37500
N 	N 	0.03650 0.79175 0.68930 -0.25300
C 	C 	0.08208 0.82626 0.67973 -0.29100
C 	C 	0.11453 0.84077 0.66220 0.18000
C 	C 	0.13158 0.87132 0.67579 -0.29300
H 	H 	0.12220 0.88270 0.69670 0.02100
C 	C 	0.06494 0.83743 0.71068 0.48300
H 	H 	0.07200 0.85700 0.72560 -0.83200
Co	Co	0.07260 0.86408 0.75170 1.32200
H 	H 	0.06950 0.78350 0.64610 -0.39800
N 	N 	0.96335 0.21609 0.81591 -0.37700
N 	N 	0.96350 0.18930 0.79175 -0.33900
C 	C 	0.91792 0.17973 0.82626 -0.51800
C 	C 	0.88547 0.16220 0.84077 0.25700
C 	C 	0.86842 0.17579 0.87132 -0.28700
H 	H 	0.87780 0.19670 0.88270 0.02300
C 	C 	0.93622 0.16696 0.79722 0.39900
C 	C 	0.93506 0.21068 0.83743 0.57600
H 	H 	0.92800 0.22560 0.85700 -0.85700
Co	Co	0.92740 0.25170 0.86408 1.31400
H 	H 	0.93050 0.14610 0.78350 -0.57300
N 	N 	0.83304 0.20278 0.93622 -0.01900
N 	N 	0.96335 0.71609 0.31591 -0.37700
N 	N 	0.96350 0.68930 0.29175 -0.33900
C 	C 	0.91792 0.67973 0.32626 -0.51800
C 	C 	0.88547 0.66220 0.34077 0.25700
C 	C 	0.86842 0.67579 0.37132 -0.28700
H 	H 	0.87780 0.69670 0.38270 0.02300
C 	C 	0.93622 0.66696 0.29722 0.39900
C 	C 	0.93506 0.71068 0.33743 0.57500
H 	H 	0.92800 0.72560 0.35700 -0.85700
Co	Co	0.92740 0.75170 0.36408 1.31300
H 	H 	0.93050 0.64610 0.28350 -0.57300
N 	N 	0.83304 0.70278 0.43622 -0.01900
N 	N 	0.46335 0.21609 0.31591 -0.38300
N 	N 	0.46350 0.18930 0.29175 -0.34500
C 	C 	0.41792 0.17973 0.32626 -0.51900
C 	C 	0.38547 0.16220 0.34077 0.25600
C 	C 	0.36842 0.17579 0.37132 -0.28700
H 	H 	0.37780 0.19670 0.38270 0.02200
C 	C 	0.43622 0.16696 0.29722 0.39800
C 	C 	0.43506 0.21068 0.33743 0.57400
H 	H 	0.42800 0.22560 0.35700 -0.85800
Co	Co	0.42740 0.25170 0.36408 1.31100
H 	H 	0.43050 0.14610 0.28350 -0.57400
N 	N 	0.33304 0.20278 0.43622 -0.01900
N 	N 	0.46335 0.71609 0.81591 -0.38300
N 	N 	0.46350 0.68930 0.79175 -0.34400
C 	C 	0.41792 0.67973 0.82626 -0.51800
C 	C 	0.38547 0.66220 0.84077 0.25700
C 	C 	0.36842 0.67579 0.87132 -0.28700
H 	H 	0.37780 0.69670 0.88270 0.02300
C 	C 	0.43622 0.66696 0.79722 0.39800
C 	C 	0.43506 0.71068 0.83743 0.57400
H 	H 	0.42800 0.72560 0.85700 -0.85800
Co	Co	0.42740 0.75170 0.86408 1.31200
H 	H 	0.43050 0.64610 0.78350 -0.57400
N 	N 	0.33304 0.70278 0.93622 -0.01900
N 	N 	0.03665 0.78391 0.81591 -0.38500
N 	N 	0.03650 0.81070 0.79175 -0.34600
C 	C 	0.08208 0.82027 0.82626 -0.51800
C 	C 	0.11453 0.83780 0.84077 0.25600
C 	C 	0.13158 0.82421 0.87132 -0.28700
H 	H 	0.12220 0.80330 0.88270 0.02200
C 	C 	0.06378 0.83304 0.79722 0.39700
C 	C 	0.06494 0.78932 0.83743 0.57300
H 	H 	0.07200 0.77440 0.85700 -0.85800
Co	Co	0.07260 0.74830 0.86408 1.31100
H 	H 	0.06950 0.85390 0.78350 -0.57400
N 	N 	0.16696 0.79722 0.93622 -0.01900
N 	N 	0.03665 0.28391 0.31591 -0.38500
N 	N 	0.03650 0.31070 0.29175 -0.34600
C 	C 	0.08208 0.32027 0.32626 -0.51900
C 	C 	0.11453 0.33780 0.34077 0.25500
C 	C 	0.13158 0.32421 0.37132 -0.28700
H 	H 	0.12220 0.30330 0.38270 0.02100
C 	C 	0.06378 0.33304 0.29722 0.39700
C 	C 	0.06494 0.28932 0.33743 0.57200
H 	H 	0.07200 0.27440 0.35700 -0.85900
Co	Co	0.07260 0.24830 0.36408 1.31000
H 	H 	0.06950 0.35390 0.28350 -0.57500
N 	N 	0.16696 0.29722 0.43622 -0.01900
N 	N 	0.53665 0.78391 0.31591 -0.38300
N 	N 	0.53650 0.81070 0.29175 -0.34400
C 	C 	0.58208 0.82027 0.32626 -0.51800
C 	C 	0.61453 0.83780 0.34077 0.25700
C 	C 	0.63158 0.82421 0.37132 -0.28700
H 	H 	0.62220 0.80330 0.38270 0.02200
C 	C 	0.56378 0.83304 0.29722 0.39800
C 	C 	0.56494 0.78932 0.33743 0.57400
H 	H 	0.57200 0.77440 0.35700 -0.85800
Co	Co	0.57260 0.74830 0.36408 1.31200
H 	H 	0.56950 0.85390 0.28350 -0.57400
N 	N 	0.66696 0.79722 0.43622 -0.01900
N 	N 	0.53665 0.28391 0.81591 -0.38300
N 	N 	0.53650 0.31070 0.79175 -0.34400
C 	C 	0.58208 0.32027 0.82626 -0.51800
C 	C 	0.61453 0.33780 0.84077 0.25700
C 	C 	0.63158 0.32421 0.87132 -0.28700
H 	H 	0.62220 0.30330 0.88270 0.02300
C 	C 	0.56378 0.33304 0.79722 0.39800
C 	C 	0.56494 0.28932 0.83743 0.57400
H 	H 	0.57200 0.27440 0.85700 -0.85800
Co	Co	0.57260 0.24830 0.86408 1.31200
H 	H 	0.56950 0.35390 0.78350 -0.57400
N 	N 	0.66696 0.29722 0.93622 -0.01900
N 	N 	0.96335 0.78391 0.18409 -0.37800
N 	N 	0.96350 0.81070 0.20825 -0.33800
C 	C 	0.91792 0.82027 0.17374 -0.51800
C 	C 	0.88547 0.83780 0.15923 0.25700
C 	C 	0.86842 0.82421 0.12868 -0.28700
H 	H 	0.87780 0.80330 0.11730 0.02200
C 	C 	0.93622 0.83304 0.20278 0.39900
C 	C 	0.93506 0.78932 0.16257 0.57500
H 	H 	0.92800 0.77440 0.14300 -0.85800
Co	Co	0.92740 0.74830 0.13592 1.31200
H 	H 	0.93050 0.85390 0.21650 -0.57200
N 	N 	0.83304 0.79722 0.06378 -0.02000
N 	N 	0.96335 0.28391 0.68409 -0.37800
N 	N 	0.96350 0.31070 0.70825 -0.33900
C 	C 	0.91792 0.32027 0.67374 -0.51800
C 	C 	0.88547 0.33780 0.65923 0.25700
C 	C 	0.86842 0.32421 0.62868 -0.28700
H 	H 	0.87780 0.30330 0.61730 0.02300
C 	C 	0.93622 0.33304 0.70278 0.39900
C 	C 	0.93506 0.28932 0.66257 0.57500
H 	H 	0.92800 0.27440 0.64300 -0.85700
Co	Co	0.92740 0.24830 0.63592 1.31300
H 	H 	0.93050 0.35390 0.71650 -0.57300
N 	N 	0.83304 0.29722 0.56378 -0.01900
N 	N 	0.46335 0.78391 0.68409 -0.38300
N 	N 	0.46350 0.81070 0.70825 -0.34400
C 	C 	0.41792 0.82027 0.67374 -0.51800
C 	C 	0.38547 0.83780 0.65923 0.25700
C 	C 	0.36842 0.82421 0.62868 -0.28700
H 	H 	0.37780 0.80330 0.61730 0.02200
C 	C 	0.43622 0.83304 0.70278 0.39800
C 	C 	0.43506 0.78932 0.66257 0.57400
H 	H 	0.42800 0.77440 0.64300 -0.85800
Co	Co	0.42740 0.74830 0.63592 1.31200
H 	H 	0.43050 0.85390 0.71650 -0.57300
N 	N 	0.33304 0.79722 0.56378 -0.01900
N 	N 	0.46335 0.28391 0.18409 -0.38400
N 	N 	0.46350 0.31070 0.20825 -0.34500
C 	C 	0.41792 0.32027 0.17374 -0.51900
C 	C 	0.38547 0.33780 0.15923 0.25600
C 	C 	0.36842 0.32421 0.12868 -0.28700
H 	H 	0.37780 0.30330 0.11730 0.02100
C 	C 	0.43622 0.33304 0.20278 0.39800
C 	C 	0.43506 0.28932 0.16257 0.57300
H 	H 	0.42800 0.27440 0.14300 -0.85900
Co	Co	0.42740 0.24830 0.13592 1.31100
H 	H 	0.43050 0.35390 0.21650 -0.57400
N 	N 	0.33304 0.29722 0.06378 -0.02000
N 	N 	0.03665 0.21609 0.18409 -0.38600
N 	N 	0.03650 0.18930 0.20825 -0.34700
C 	C 	0.08208 0.17973 0.17374 -0.51900
C 	C 	0.11453 0.16220 0.15923 0.25400
C 	C 	0.13158 0.17579 0.12868 -0.28700
H 	H 	0.12220 0.19670 0.11730 0.02000
C 	C 	0.06378 0.16696 0.20278 0.39600
C 	C 	0.06494 0.21068 0.16257 0.57200
H 	H 	0.07200 0.22560 0.14300 -0.85900
Co	Co	0.07260 0.25170 0.13592 1.31000
H 	H 	0.06950 0.14610 0.21650 -0.57500
N 	N 	0.16696 0.20278 0.06378 -0.02000
N 	N 	0.03665 0.71609 0.68409 -0.38500
N 	N 	0.03650 0.68930 0.70825 -0.34600
C 	C 	0.08208 0.67973 0.67374 -0.51900
C 	C 	0.11453 0.66220 0.65923 0.25500
C 	C 	0.13158 0.67579 0.62868 -0.28700
H 	H 	0.12220 0.69670 0.61730 0.02100
C 	C 	0.06378 0.66696 0.70278 0.39600
C 	C 	0.06494 0.71068 0.66257 0.57200
H 	H 	0.07200 0.72560 0.64300 -0.85900
Co	Co	0.07260 0.75170 0.63592 1.31000
H 	H 	0.06950 0.64610 0.71650 -0.57500
N 	N 	0.16696 0.70278 0.56378 -0.01900
N 	N 	0.53665 0.21609 0.68409 -0.38300
N 	N 	0.53650 0.18930 0.70825 -0.34500
C 	C 	0.58208 0.17973 0.67374 -0.51900
C 	C 	0.61453 0.16220 0.65923 0.25600
C 	C 	0.63158 0.17579 0.62868 -0.28700
H 	H 	0.62220 0.19670 0.61730 0.02200
C 	C 	0.56378 0.16696 0.70278 0.39700
C 	C 	0.56494 0.21068 0.66257 0.57400
H 	H 	0.57200 0.22560 0.64300 -0.85800
Co	Co	0.57260 0.25170 0.63592 1.31100
H 	H 	0.56950 0.14610 0.71650 -0.57400
N 	N 	0.66696 0.20278 0.56378 -0.01900
N 	N 	0.53665 0.71609 0.18409 -0.38400
N 	N 	0.53650 0.68930 0.20825 -0.34500
C 	C 	0.58208 0.67973 0.17374 -0.51900
C 	C 	0.61453 0.66220 0.15923 0.25600
C 	C 	0.63158 0.67579 0.12868 -0.28700
H 	H 	0.62220 0.69670 0.11730 0.02100
C 	C 	0.56378 0.66696 0.20278 0.39800
C 	C 	0.56494 0.71068 0.16257 0.57300
H 	H 	0.57200 0.72560 0.14300 -0.85900
Co	Co	0.57260 0.75170 0.13592 1.31100
H 	H 	0.56950 0.64610 0.21650 -0.57400
N 	N 	0.66696 0.70278 0.06378 -0.02000
N 	N 	0.21609 0.18409 0.03665 -0.37100
N 	N 	0.18930 0.20825 0.03650 -0.25200
C 	C 	0.17973 0.17374 0.08208 -0.28900
C 	C 	0.16220 0.15923 0.11453 0.17700
C 	C 	0.17579 0.12868 0.13158 -0.25300
H 	H 	0.19670 0.11730 0.12220 0.00600
C 	C 	0.21068 0.16257 0.06494 0.48000
H 	H 	0.22560 0.14300 0.07200 -0.82400
Co	Co	0.25170 0.13592 0.07260 1.30300
H 	H 	0.14610 0.21650 0.06950 -0.39700
N 	N 	0.20278 0.06378 0.16696 -0.02000
N 	N 	0.21609 0.68409 0.53665 -0.36900
N 	N 	0.18930 0.70825 0.53650 -0.25000
C 	C 	0.17973 0.67374 0.58208 -0.28700
C 	C 	0.16220 0.65923 0.61453 0.17800
C 	C 	0.17579 0.62868 0.63158 -0.25300
H 	H 	0.19670 0.61730 0.62220 0.00700
C 	C 	0.21068 0.66257 0.56494 0.48200
H 	H 	0.22560 0.64300 0.57200 -0.82400
Co	Co	0.25170 0.63592 0.57260 1.30500
H 	H 	0.14610 0.71650 0.56950 -0.39600
N 	N 	0.20278 0.56378 0.66696 -0.02000
N 	N 	0.71609 0.18409 0.53665 -0.36900
N 	N 	0.68930 0.20825 0.53650 -0.25000
C 	C 	0.67973 0.17374 0.58208 -0.28700
C 	C 	0.66220 0.15923 0.61453 0.17800
C 	C 	0.67579 0.12868 0.63158 -0.25300
H 	H 	0.69670 0.11730 0.62220 0.00700
C 	C 	0.71068 0.16257 0.56494 0.48200
H 	H 	0.72560 0.14300 0.57200 -0.82400
Co	Co	0.75170 0.13592 0.57260 1.30400
H 	H 	0.64610 0.21650 0.56950 -0.39500
N 	N 	0.70278 0.06378 0.66696 -0.02000
N 	N 	0.71609 0.68409 0.03665 -0.37100
N 	N 	0.68930 0.70825 0.03650 -0.25200
C 	C 	0.67973 0.67374 0.08208 -0.28800
C 	C 	0.66220 0.65923 0.11453 0.17800
C 	C 	0.67579 0.62868 0.13158 -0.25300
H 	H 	0.69670 0.61730 0.12220 0.00700
C 	C 	0.71068 0.66257 0.06494 0.48100
H 	H 	0.72560 0.64300 0.07200 -0.82400
Co	Co	0.75170 0.63592 0.07260 1.30400
H 	H 	0.64610 0.71650 0.06950 -0.39600
N 	N 	0.70278 0.56378 0.16696 -0.02000
N 	N 	0.78391 0.18409 0.96335 -0.36300
N 	N 	0.81070 0.20825 0.96350 -0.24300
C 	C 	0.82027 0.17374 0.91792 -0.28600
C 	C 	0.83780 0.15923 0.88547 0.17900
C 	C 	0.82421 0.12868 0.86842 -0.25300
H 	H 	0.80330 0.11730 0.87780 0.00700
C 	C 	0.78932 0.16257 0.93506 0.48300
H 	H 	0.77440 0.14300 0.92800 -0.82300
Co	Co	0.74830 0.13592 0.92740 1.30600
H 	H 	0.85390 0.21650 0.93050 -0.39300
N 	N 	0.79722 0.06378 0.83304 -0.02000
N 	N 	0.78391 0.68409 0.46335 -0.36900
N 	N 	0.81070 0.70825 0.46350 -0.24900
C 	C 	0.82027 0.67374 0.41792 -0.28700
C 	C 	0.83780 0.65923 0.38547 0.17900
C 	C 	0.82421 0.62868 0.36842 -0.25300
H 	H 	0.80330 0.61730 0.37780 0.00700
C 	C 	0.78932 0.66257 0.43506 0.48200
H 	H 	0.77440 0.64300 0.42800 -0.82300
Co	Co	0.74830 0.63592 0.42740 1.30500
H 	H 	0.85390 0.71650 0.43050 -0.39400
N 	N 	0.79722 0.56378 0.33304 -0.02000
N 	N 	0.28391 0.18409 0.46335 -0.36900
N 	N 	0.31070 0.20825 0.46350 -0.25000
C 	C 	0.32027 0.17374 0.41792 -0.28700
C 	C 	0.33780 0.15923 0.38547 0.17800
C 	C 	0.32421 0.12868 0.36842 -0.25300
H 	H 	0.30330 0.11730 0.37780 0.00700
C 	C 	0.28932 0.16257 0.43506 0.48200
H 	H 	0.27440 0.14300 0.42800 -0.82400
Co	Co	0.24830 0.13592 0.42740 1.30400
H 	H 	0.35390 0.21650 0.43050 -0.39500
N 	N 	0.29722 0.06378 0.33304 -0.02000
N 	N 	0.28391 0.68409 0.96335 -0.36300
N 	N 	0.31070 0.70825 0.96350 -0.24300
C 	C 	0.32027 0.67374 0.91792 -0.28600
C 	C 	0.33780 0.65923 0.88547 0.17900
C 	C 	0.32421 0.62868 0.86842 -0.25300
H 	H 	0.30330 0.61730 0.87780 0.00800
C 	C 	0.28932 0.66257 0.93506 0.48400
H 	H 	0.27440 0.64300 0.92800 -0.82300
Co	Co	0.24830 0.63592 0.92740 1.30600
H 	H 	0.35390 0.71650 0.93050 -0.39300
N 	N 	0.29722 0.56378 0.83304 -0.01900
N 	N 	0.78391 0.81591 0.03665 -0.37000
N 	N 	0.81070 0.79175 0.03650 -0.25100
C 	C 	0.82027 0.82626 0.08208 -0.28700
C 	C 	0.83780 0.84077 0.11453 0.17900
C 	C 	0.82421 0.87132 0.13158 -0.25300
H 	H 	0.80330 0.88270 0.12220 0.00700
C 	C 	0.78932 0.83743 0.06494 0.48200
H 	H 	0.77440 0.85700 0.07200 -0.82400
Co	Co	0.74830 0.86408 0.07260 1.30500
H 	H 	0.85390 0.78350 0.06950 -0.39500
N 	N 	0.79722 0.93622 0.16696 -0.01900
N 	N 	0.78391 0.31591 0.53665 -0.36900
N 	N 	0.81070 0.29175 0.53650 -0.24900
C 	C 	0.82027 0.32626 0.58208 -0.28700
C 	C 	0.83780 0.34077 0.61453 0.17900
C 	C 	0.82421 0.37132 0.63158 -0.25300
H 	H 	0.80330 0.38270 0.62220 0.00700
C 	C 	0.78932 0.33743 0.56494 0.48200
H 	H 	0.77440 0.35700 0.57200 -0.82300
Co	Co	0.74830 0.36408 0.57260 1.30500
H 	H 	0.85390 0.28350 0.56950 -0.39400
N 	N 	0.79722 0.43622 0.66696 -0.02000
N 	N 	0.28391 0.81591 0.53665 -0.36800
N 	N 	0.31070 0.79175 0.53650 -0.24900
C 	C 	0.32027 0.82626 0.58208 -0.28700
C 	C 	0.33780 0.84077 0.61453 0.17900
C 	C 	0.32421 0.87132 0.63158 -0.25300
H 	H 	0.30330 0.88270 0.62220 0.00800
C 	C 	0.28932 0.83743 0.56494 0.48300
H 	H 	0.27440 0.85700 0.57200 -0.82300
Co	Co	0.24830 0.86408 0.57260 1.30600
H 	H 	0.35390 0.78350 0.56950 -0.39500
N 	N 	0.29722 0.93622 0.66696 -0.01900
N 	N 	0.28391 0.31591 0.03665 -0.37100
N 	N 	0.31070 0.29175 0.03650 -0.25200
C 	C 	0.32027 0.32626 0.08208 -0.28800
C 	C 	0.33780 0.34077 0.11453 0.17800
C 	C 	0.32421 0.37132 0.13158 -0.25300
H 	H 	0.30330 0.38270 0.12220 0.00700
C 	C 	0.28932 0.33743 0.06494 0.48100
H 	H 	0.27440 0.35700 0.07200 -0.82400
Co	Co	0.24830 0.36408 0.07260 1.30400
H 	H 	0.35390 0.28350 0.06950 -0.39600
N 	N 	0.29722 0.43622 0.16696 -0.02000
N 	N 	0.21609 0.81591 0.96335 -0.36300
N 	N 	0.18930 0.79175 0.96350 -0.24400
C 	C 	0.17973 0.82626 0.91792 -0.28600
C 	C 	0.16220 0.84077 0.88547 0.17900
C 	C 	0.17579 0.87132 0.86842 -0.25200
H 	H 	0.19670 0.88270 0.87780 0.00800
C 	C 	0.21068 0.83743 0.93506 0.48400
H 	H 	0.22560 0.85700 0.92800 -0.82200
Co	Co	0.25170 0.86408 0.92740 1.30700
H 	H 	0.14610 0.78350 0.93050 -0.39400
N 	N 	0.20278 0.93622 0.83304 -0.01900
N 	N 	0.21609 0.31591 0.46335 -0.36900
N 	N 	0.18930 0.29175 0.46350 -0.25000
C 	C 	0.17973 0.32626 0.41792 -0.28700
C 	C 	0.16220 0.34077 0.38547 0.17800
C 	C 	0.17579 0.37132 0.36842 -0.25300
H 	H 	0.19670 0.38270 0.37780 0.00700
C 	C 	0.21068 0.33743 0.43506 0.48200
H 	H 	0.22560 0.35700 0.42800 -0.82400
Co	Co	0.25170 0.36408 0.42740 1.30500
H 	H 	0.14610 0.28350 0.43050 -0.39600
N 	N 	0.20278 0.43622 0.33304 -0.02000
N 	N 	0.71609 0.81591 0.46335 -0.36800
N 	N 	0.68930 0.79175 0.46350 -0.25000
C 	C 	0.67973 0.82626 0.41792 -0.28700
C 	C 	0.66220 0.84077 0.38547 0.17900
C 	C 	0.67579 0.87132 0.36842 -0.25300
H 	H 	0.69670 0.88270 0.37780 0.00800
C 	C 	0.71068 0.83743 0.43506 0.48300
H 	H 	0.72560 0.85700 0.42800 -0.82300
Co	Co	0.75170 0.86408 0.42740 1.30600
H 	H 	0.64610 0.78350 0.43050 -0.39500
N 	N 	0.70278 0.93622 0.33304 -0.01900
N 	N 	0.71609 0.31591 0.96335 -0.36300
N 	N 	0.68930 0.29175 0.96350 -0.24300
C 	C 	0.67973 0.32626 0.91792 -0.28600
C 	C 	0.66220 0.34077 0.88547 0.17900
C 	C 	0.67579 0.37132 0.86842 -0.25300
H 	H 	0.69670 0.38270 0.87780 0.00800
C 	C 	0.71068 0.33743 0.93506 0.48400
H 	H 	0.72560 0.35700 0.92800 -0.82300
Co	Co	0.75170 0.36408 0.92740 1.30700
H 	H 	0.64610 0.28350 0.93050 -0.39300
N 	N 	0.70278 0.43622 0.83304 -0.02000
N 	N 	0.18409 0.96335 0.78391 -0.36700
N 	N 	0.20825 0.96350 0.81070 -0.24500
C 	C 	0.17374 0.91792 0.82027 -0.28900
C 	C 	0.15923 0.88547 0.83780 0.18100
C 	C 	0.12868 0.86842 0.82421 -0.29200
H 	H 	0.11730 0.87780 0.80330 0.02100
C 	C 	0.16257 0.93506 0.78932 0.48500
H 	H 	0.14300 0.92800 0.77440 -0.83100
Co	Co	0.13592 0.92740 0.74830 1.32300
H 	H 	0.21650 0.93050 0.85390 -0.39500
N 	N 	0.18409 0.46335 0.28391 -0.37300
N 	N 	0.20825 0.46350 0.31070 -0.25100
C 	C 	0.17374 0.41792 0.32027 -0.29100
C 	C 	0.15923 0.38547 0.33780 0.18000
C 	C 	0.12868 0.36842 0.32421 -0.29200
H 	H 	0.11730 0.37780 0.30330 0.02000
C 	C 	0.16257 0.43506 0.28932 0.48300
H 	H 	0.14300 0.42800 0.27440 -0.83200
Co	Co	0.13592 0.42740 0.24830 1.32200
H 	H 	0.21650 0.43050 0.35390 -0.39700
N 	N 	0.68409 0.96335 0.28391 -0.36700
N 	N 	0.70825 0.96350 0.31070 -0.24500
C 	C 	0.67374 0.91792 0.32027 -0.28900
C 	C 	0.65923 0.88547 0.33780 0.18100
C 	C 	0.62868 0.86842 0.32421 -0.29200
H 	H 	0.61730 0.87780 0.30330 0.02100
C 	C 	0.66257 0.93506 0.28932 0.48500
H 	H 	0.64300 0.92800 0.27440 -0.83100
Co	Co	0.63592 0.92740 0.24830 1.32400
H 	H 	0.71650 0.93050 0.35390 -0.39500
N 	N 	0.68409 0.46335 0.78391 -0.37300
N 	N 	0.70825 0.46350 0.81070 -0.25100
C 	C 	0.67374 0.41792 0.82027 -0.29000
C 	C 	0.65923 0.38547 0.83780 0.18100
C 	C 	0.62868 0.36842 0.82421 -0.29200
H 	H 	0.61730 0.37780 0.80330 0.02100
C 	C 	0.66257 0.43506 0.78932 0.48400
H 	H 	0.64300 0.42800 0.77440 -0.83200
Co	Co	0.63592 0.42740 0.74830 1.32200
H 	H 	0.71650 0.43050 0.85390 -0.39600
N 	N 	0.18409 0.03665 0.21609 -0.37500
N 	N 	0.20825 0.03650 0.18930 -0.25300
C 	C 	0.17374 0.08208 0.17973 -0.29200
C 	C 	0.15923 0.11453 0.16220 0.17800
C 	C 	0.12868 0.13158 0.17579 -0.29300
H 	H 	0.11730 0.12220 0.19670 0.01900
C 	C 	0.16257 0.06494 0.21068 0.48200
H 	H 	0.14300 0.07200 0.22560 -0.83300
Co	Co	0.13592 0.07260 0.25170 1.32000
H 	H 	0.21650 0.06950 0.14610 -0.39900
N 	N 	0.18409 0.53665 0.71609 -0.37300
N 	N 	0.20825 0.53650 0.68930 -0.25100
C 	C 	0.17374 0.58208 0.67973 -0.29100
C 	C 	0.15923 0.61453 0.66220 0.18000
C 	C 	0.12868 0.63158 0.67579 -0.29300
H 	H 	0.11730 0.62220 0.69670 0.02000
C 	C 	0.16257 0.56494 0.71068 0.48300
H 	H 	0.14300 0.57200 0.72560 -0.83200
Co	Co	0.13592 0.57260 0.75170 1.32200
H 	H 	0.21650 0.56950 0.64610 -0.39700
N 	N 	0.68409 0.03665 0.71609 -0.37500
N 	N 	0.70825 0.03650 0.68930 -0.25300
C 	C 	0.67374 0.08208 0.67973 -0.29100
C 	C 	0.65923 0.11453 0.66220 0.17900
C 	C 	0.62868 0.13158 0.67579 -0.29300
H 	H 	0.61730 0.12220 0.69670 0.02000
C 	C 	0.66257 0.06494 0.71068 0.48200
H 	H 	0.64300 0.07200 0.72560 -0.83200
Co	Co	0.63592 0.07260 0.75170 1.32100
H 	H 	0.71650 0.06950 0.64610 -0.39800
N 	N 	0.68409 0.53665 0.21609 -0.37300
N 	N 	0.70825 0.53650 0.18930 -0.25100
C 	C 	0.67374 0.58208 0.17973 -0.29100
C 	C 	0.65923 0.61453 0.16220 0.18000
C 	C 	0.62868 0.63158 0.17579 -0.29300
H 	H 	0.61730 0.62220 0.19670 0.02000
C 	C 	0.66257 0.56494 0.21068 0.48400
H 	H 	0.64300 0.57200 0.22560 -0.83200
Co	Co	0.63592 0.57260 0.25170 1.32200
H 	H 	0.71650 0.56950 0.14610 -0.39800
N 	N 	0.81591 0.96335 0.21609 -0.36700
N 	N 	0.79175 0.96350 0.18930 -0.24500
C 	C 	0.82626 0.91792 0.17973 -0.28900
C 	C 	0.84077 0.88547 0.16220 0.18100
C 	C 	0.87132 0.86842 0.17579 -0.29200
H 	H 	0.88270 0.87780 0.19670 0.02200
C 	C 	0.83743 0.93506 0.21068 0.48600
H 	H 	0.85700 0.92800 0.22560 -0.83000
Co	Co	0.86408 0.92740 0.25170 1.32400
H 	H 	0.78350 0.93050 0.14610 -0.39600
N 	N 	0.81591 0.46335 0.71609 -0.37300
N 	N 	0.79175 0.46350 0.68930 -0.25100
C 	C 	0.82626 0.41792 0.67973 -0.29000
C 	C 	0.84077 0.38547 0.66220 0.18100
C 	C 	0.87132 0.36842 0.67579 -0.29200
H 	H 	0.88270 0.37780 0.69670 0.02100
C 	C 	0.83743 0.43506 0.71068 0.48400
H 	H 	0.85700 0.42800 0.72560 -0.83100
Co	Co	0.86408 0.42740 0.75170 1.32300
H 	H 	0.78350 0.43050 0.64610 -0.39700
N 	N 	0.31591 0.96335 0.71609 -0.36700
N 	N 	0.29175 0.96350 0.68930 -0.24500
C 	C 	0.32626 0.91792 0.67973 -0.28900
C 	C 	0.34077 0.88547 0.66220 0.18100
C 	C 	0.37132 0.86842 0.67579 -0.29200
H 	H 	0.38270 0.87780 0.69670 0.02100
C 	C 	0.33743 0.93506 0.71068 0.48500
H 	H 	0.35700 0.92800 0.72560 -0.83100
Co	Co	0.36408 0.92740 0.75170 1.32400
H 	H 	0.28350 0.93050 0.64610 -0.39500
N 	N 	0.31591 0.46335 0.21609 -0.37300
N 	N 	0.29175 0.46350 0.18930 -0.25100
C 	C 	0.32626 0.41792 0.17973 -0.29100
C 	C 	0.34077 0.38547 0.16220 0.18000
C 	C 	0.37132 0.36842 0.17579 -0.29300
H 	H 	0.38270 0.37780 0.19670 0.02000
C 	C 	0.33743 0.43506 0.21068 0.48400
H 	H 	0.35700 0.42800 0.22560 -0.83200
Co	Co	0.36408 0.42740 0.25170 1.32200
H 	H 	0.28350 0.43050 0.14610 -0.39800
N 	N 	0.81591 0.03665 0.78391 -0.37400
N 	N 	0.79175 0.03650 0.81070 -0.25300
C 	C 	0.82626 0.08208 0.82027 -0.29100
C 	C 	0.84077 0.11453 0.83780 0.18000
C 	C 	0.87132 0.13158 0.82421 -0.29200
H 	H 	0.88270 0.12220 0.80330 0.02100
C 	C 	0.83743 0.06494 0.78932 0.48300
H 	H 	0.85700 0.07200 0.77440 -0.83200
Co	Co	0.86408 0.07260 0.74830 1.32200
H 	H 	0.78350 0.06950 0.85390 -0.39700
N 	N 	0.81591 0.53665 0.28391 -0.37300
N 	N 	0.79175 0.53650 0.31070 -0.25100
C 	C 	0.82626 0.58208 0.32027 -0.29000
C 	C 	0.84077 0.61453 0.33780 0.18100
C 	C 	0.87132 0.63158 0.32421 -0.29200
H 	H 	0.88270 0.62220 0.30330 0.02100
C 	C 	0.83743 0.56494 0.28932 0.48400
H 	H 	0.85700 0.57200 0.27440 -0.83100
Co	Co	0.86408 0.57260 0.24830 1.32300
H 	H 	0.78350 0.56950 0.35390 -0.39700
N 	N 	0.31591 0.03665 0.28391 -0.37500
N 	N 	0.29175 0.03650 0.31070 -0.25300
C 	C 	0.32626 0.08208 0.32027 -0.29100
C 	C 	0.34077 0.11453 0.33780 0.17900
C 	C 	0.37132 0.13158 0.32421 -0.29300
H 	H 	0.38270 0.12220 0.30330 0.02000
C 	C 	0.33743 0.06494 0.28932 0.48300
H 	H 	0.35700 0.07200 0.27440 -0.83200
Co	Co	0.36408 0.07260 0.24830 1.32100
H 	H 	0.28350 0.06950 0.35390 -0.39800
N 	N 	0.31591 0.53665 0.78391 -0.37300
N 	N 	0.29175 0.53650 0.81070 -0.25100
C 	C 	0.32626 0.58208 0.82027 -0.29000
C 	C 	0.34077 0.61453 0.83780 0.18100
C 	C 	0.37132 0.63158 0.82421 -0.29200
H 	H 	0.38270 0.62220 0.80330 0.02100
C 	C 	0.33743 0.56494 0.78932 0.48400
H 	H 	0.35700 0.57200 0.77440 -0.83200
Co	Co	0.36408 0.57260 0.74830 1.32200
H 	H 	0.28350 0.56950 0.85390 -0.39600
Co	Co	0.24613 0.50000 0.31374 1.08600
Co	Co	0.24613 0.00000 0.81374 1.07900
Co	Co	0.74613 0.50000 0.81374 1.08600
Co	Co	0.74613 0.00000 0.31374 1.07900
Co	Co	0.75387 0.50000 0.31374 1.08600
Co	Co	0.75387 0.00000 0.81374 1.07900
Co	Co	0.25387 0.50000 0.81374 1.08600
Co	Co	0.25387 0.00000 0.31374 1.07900
Co	Co	0.75387 0.50000 0.68626 1.08600
Co	Co	0.75387 -0.00000 0.18626 1.07900
Co	Co	0.25387 0.50000 0.18626 1.08600
Co	Co	0.25387 -0.00000 0.68626 1.07900
Co	Co	0.24613 0.50000 0.68626 1.08600
Co	Co	0.24613 -0.00000 0.18626 1.07900
Co	Co	0.74613 0.50000 0.18626 1.08600
Co	Co	0.74613 -0.00000 0.68626 1.07900
Co	Co	0.31374 0.24613 0.50000 1.08600
Co	Co	0.31374 0.74613 -0.00000 1.07900
Co	Co	0.81374 0.24613 -0.00000 1.07900
Co	Co	0.81374 0.74613 0.50000 1.08600
Co	Co	0.31374 0.75387 0.50000 1.08600
Co	Co	0.31374 0.25387 -0.00000 1.07900
Co	Co	0.81374 0.75387 -0.00000 1.07900
Co	Co	0.81374 0.25387 0.50000 1.08600
Co	Co	0.68626 0.75387 0.50000 1.08600
Co	Co	0.68626 0.25387 -0.00000 1.07900
Co	Co	0.18626 0.75387 -0.00000 1.07900
Co	Co	0.18626 0.25387 0.50000 1.08600
Co	Co	0.68626 0.24613 0.50000 1.08600
Co	Co	0.68626 0.74613 -0.00000 1.07900
Co	Co	0.18626 0.24613 -0.00000 1.07800
Co	Co	0.18626 0.74613 0.50000 1.08600
Co	Co	0.50000 0.31374 0.24613 1.08500
Co	Co	0.50000 0.81374 0.74613 1.08500
Co	Co	-0.00000 0.31374 0.74613 1.07800
Co	Co	-0.00000 0.81374 0.24613 1.07800
Co	Co	0.50000 0.31374 0.75387 1.08500
Co	Co	0.50000 0.81374 0.25387 1.08500
Co	Co	-0.00000 0.31374 0.25387 1.07800
Co	Co	-0.00000 0.81374 0.75387 1.07800
Co	Co	0.50000 0.68626 0.75387 1.08500
Co	Co	0.50000 0.18626 0.25387 1.08500
Co	Co	-0.00000 0.68626 0.25387 1.07800
Co	Co	-0.00000 0.18626 0.75387 1.07800
Co	Co	0.50000 0.68626 0.24613 1.08500
Co	Co	0.50000 0.18626 0.74613 1.08500
Co	Co	-0.00000 0.68626 0.74613 1.07800
Co	Co	-0.00000 0.18626 0.24613 1.07800
Co	Co	-0.00000 0.74613 0.18626 1.07900
Co	Co	-0.00000 0.24613 0.68626 1.07900
Co	Co	0.50000 0.74613 0.68626 1.08600
Co	Co	0.50000 0.24613 0.18626 1.08600
Co	Co	-0.00000 0.25387 0.18626 1.07900
Co	Co	-0.00000 0.75387 0.68626 1.07900
Co	Co	0.50000 0.25387 0.68626 1.08600
Co	Co	0.50000 0.75387 0.18626 1.08600
Co	Co	-0.00000 0.25387 0.81374 1.07900
Co	Co	-0.00000 0.75387 0.31374 1.07900
Co	Co	0.50000 0.25387 0.31374 1.08600
Co	Co	0.50000 0.75387 0.81374 1.08600
Co	Co	-0.00000 0.74613 0.81374 1.07900
Co	Co	0.00000 0.24613 0.31374 1.07900
Co	Co	0.50000 0.74613 0.31374 1.08600
Co	Co	0.50000 0.24613 0.81374 1.08600
Co	Co	0.74613 0.81374 -0.00000 1.07900
Co	Co	0.74613 0.31374 0.50000 1.08600
Co	Co	0.24613 0.81374 0.50000 1.08600
Co	Co	0.24613 0.31374 -0.00000 1.07900
Co	Co	0.25387 0.81374 -0.00000 1.07900
Co	Co	0.25387 0.31374 0.50000 1.08600
Co	Co	0.75387 0.81374 0.50000 1.08600
Co	Co	0.75387 0.31374 -0.00000 1.07900
Co	Co	0.25387 0.18626 -0.00000 1.07900
Co	Co	0.25387 0.68626 0.50000 1.08600
Co	Co	0.75387 0.18626 0.50000 1.08600
Co	Co	0.75387 0.68626 -0.00000 1.07900
Co	Co	0.74613 0.18626 -0.00000 1.07900
Co	Co	0.74613 0.68626 0.50000 1.08600
Co	Co	0.24613 0.18626 0.50000 1.08600
Co	Co	0.24613 0.68626 -0.00000 1.07900
Co	Co	0.81374 -0.00000 0.25387 1.07800
Co	Co	0.81374 0.50000 0.75387 1.08500
Co	Co	0.31374 -0.00000 0.75387 1.07800
Co	Co	0.31374 0.50000 0.25387 1.08500
Co	Co	0.81374 0.00000 0.74613 1.07800
Co	Co	0.81374 0.50000 0.24613 1.08500
Co	Co	0.31374 0.00000 0.24613 1.07800
Co	Co	0.31374 0.50000 0.74613 1.08500
Co	Co	0.18626 0.00000 0.74613 1.07800
Co	Co	0.18626 0.50000 0.24613 1.08500
Co	Co	0.68626 0.00000 0.24613 1.07800
Co	Co	0.68626 0.50000 0.74613 1.08500
Co	Co	0.18626 -0.00000 0.25387 1.07800
Co	Co	0.18626 0.50000 0.75387 1.08500
Co	Co	0.68626 -0.00000 0.75387 1.07800
Co	Co	0.68626 0.50000 0.25387 1.08500
Cl	Cl	0.25000 0.50000 0.25000 -0.94200
Cl	Cl	0.25000 -0.00000 0.75000 -0.95400
Cl	Cl	0.75000 0.00000 0.25000 -0.95400
Cl	Cl	0.75000 0.50000 0.25000 -0.94200
Cl	Cl	0.25000 0.00000 0.25000 -0.95300
Cl	Cl	0.75000 0.50000 0.75000 -0.94200
Cl	Cl	0.25000 0.50000 0.75000 -0.94200
Cl	Cl	0.25000 0.25000 0.50000 -0.94300
Cl	Cl	0.25000 0.75000 -0.00000 -0.95500
Cl	Cl	0.75000 0.25000 -0.00000 -0.95500
Cl	Cl	0.25000 0.75000 0.50000 -0.94400
Cl	Cl	0.25000 0.25000 -0.00000 -0.95500
Cl	Cl	0.75000 0.75000 0.50000 -0.94400
Cl	Cl	0.75000 0.25000 0.50000 -0.94400
Cl	Cl	0.50000 0.25000 0.25000 -0.94200
Cl	Cl	-0.00000 0.25000 0.75000 -0.95400
Cl	Cl	-0.00000 0.75000 0.25000 -0.95400
Cl	Cl	0.50000 0.25000 0.75000 -0.94200
Cl	Cl	0.00000 0.25000 0.25000 -0.95300
Cl	Cl	0.50000 0.75000 0.75000 -0.94200
Cl	Cl	0.50000 0.75000 0.25000 -0.94200
Cl	Cl	-0.00000 0.75000 0.75000 -0.95400
Cl	Cl	0.75000 0.75000 -0.00000 -0.95600
Cl	Cl	0.75000 -0.00000 0.75000 -0.95400
