data_crystal

_cell_length_a 37.70480
_cell_length_b 37.70480
_cell_length_c 37.70480
_cell_angle_alpha 90.00000
_cell_angle_beta  90.00000
_cell_angle_gamma 90.00000

_symmetry_space_group_name_	'P 1'
_symmetry_space_group_name_H-M	'P 1'

loop_
_symmetry_equiv_pos_as_xyz
  x,y,z

loop_
_atom_site_label
_atom_site_type_symbol
_atom_site_fract_x
_atom_site_fract_y
_atom_site_fract_z
_atom_site_charge
N 	N 	0.68299 0.46194 0.28527 -0.21300
N 	N 	0.70678 0.46194 0.31211 -0.18200
N 	N 	0.70131 0.43492 0.33377 -0.10100
C 	C 	0.66224 0.43388 0.29014 0.00700
H 	H 	0.64350 0.42700 0.27560 0.00400
C 	C 	0.67329 0.41677 0.32053 0.02000
C 	C 	0.65929 0.38450 0.33775 0.06400
C 	C 	0.62944 0.36763 0.32424 -0.13000
H 	H 	0.61860 0.37650 0.30390 0.07400
N 	N 	0.68299 0.96194 0.78527 -0.20700
N 	N 	0.70678 0.96194 0.81211 -0.17700
N 	N 	0.70131 0.93492 0.83377 -0.09900
C 	C 	0.66224 0.93388 0.79014 0.00800
H 	H 	0.64350 0.92700 0.77560 0.00600
C 	C 	0.67329 0.91677 0.82053 0.02100
C 	C 	0.65929 0.88450 0.83775 0.06600
C 	C 	0.62944 0.86763 0.82424 -0.13000
H 	H 	0.61860 0.87650 0.80390 0.07500
N 	N 	0.18299 0.46194 0.78527 -0.21300
N 	N 	0.20678 0.46194 0.81211 -0.18200
N 	N 	0.20131 0.43492 0.83377 -0.10000
C 	C 	0.16224 0.43388 0.79014 0.00700
H 	H 	0.14350 0.42700 0.77560 0.00300
C 	C 	0.17329 0.41677 0.82053 0.02000
C 	C 	0.15929 0.38450 0.83775 0.06400
C 	C 	0.12944 0.36763 0.82424 -0.13000
H 	H 	0.11860 0.37650 0.80390 0.07400
N 	N 	0.18299 0.96194 0.28527 -0.20700
N 	N 	0.20678 0.96194 0.31211 -0.17700
N 	N 	0.20131 0.93492 0.33377 -0.09900
C 	C 	0.16224 0.93388 0.29014 0.00800
H 	H 	0.14350 0.92700 0.27560 0.00500
C 	C 	0.17329 0.91677 0.32053 0.02100
C 	C 	0.15929 0.88450 0.33775 0.06400
C 	C 	0.12944 0.86763 0.32424 -0.13000
H 	H 	0.11860 0.87650 0.30390 0.07400
N 	N 	0.31701 0.53806 0.28527 -0.21200
N 	N 	0.29322 0.53806 0.31211 -0.18200
N 	N 	0.29869 0.56508 0.33377 -0.10100
C 	C 	0.33776 0.56612 0.29014 0.00700
H 	H 	0.35650 0.57300 0.27560 0.00400
C 	C 	0.32671 0.58323 0.32053 0.02000
C 	C 	0.34071 0.61550 0.33775 0.06400
C 	C 	0.37056 0.63237 0.32424 -0.13000
H 	H 	0.38140 0.62350 0.30390 0.07400
N 	N 	0.31701 0.03806 0.78527 -0.21400
N 	N 	0.29322 0.03806 0.81211 -0.18400
N 	N 	0.29869 0.06508 0.83377 -0.10100
C 	C 	0.33776 0.06612 0.79014 0.00600
H 	H 	0.35650 0.07300 0.77560 0.00300
C 	C 	0.32671 0.08323 0.82053 0.02000
C 	C 	0.34071 0.11550 0.83775 0.06400
C 	C 	0.37056 0.13237 0.82424 -0.13000
H 	H 	0.38140 0.12350 0.80390 0.07400
N 	N 	0.81701 0.53806 0.78527 -0.21200
N 	N 	0.79322 0.53806 0.81211 -0.18200
N 	N 	0.79869 0.56508 0.83377 -0.10000
C 	C 	0.83776 0.56612 0.79014 0.00800
H 	H 	0.85650 0.57300 0.77560 0.00500
C 	C 	0.82671 0.58323 0.82053 0.02100
C 	C 	0.84071 0.61550 0.83775 0.06500
C 	C 	0.87056 0.63237 0.82424 -0.13000
H 	H 	0.88140 0.62350 0.80390 0.07500
N 	N 	0.81701 0.03806 0.28527 -0.21300
N 	N 	0.79322 0.03806 0.31211 -0.18300
N 	N 	0.79869 0.06508 0.33377 -0.10100
C 	C 	0.83776 0.06612 0.29014 0.00800
H 	H 	0.85650 0.07300 0.27560 0.00500
C 	C 	0.82671 0.08323 0.32053 0.02100
C 	C 	0.84071 0.11550 0.33775 0.06500
C 	C 	0.87056 0.13237 0.32424 -0.12900
H 	H 	0.88140 0.12350 0.30390 0.07500
N 	N 	0.31701 0.46194 0.71473 -0.21100
N 	N 	0.29322 0.46194 0.68789 -0.18100
N 	N 	0.29869 0.43492 0.66623 -0.10000
C 	C 	0.33776 0.43388 0.70986 0.00800
H 	H 	0.35650 0.42700 0.72440 0.00500
C 	C 	0.32671 0.41677 0.67947 0.02100
C 	C 	0.34071 0.38450 0.66225 0.06500
C 	C 	0.37056 0.36763 0.67576 -0.12900
H 	H 	0.38140 0.37650 0.69610 0.07500
N 	N 	0.31701 0.96194 0.21473 -0.20600
N 	N 	0.29322 0.96194 0.18789 -0.17600
N 	N 	0.29869 0.93492 0.16623 -0.09900
C 	C 	0.33776 0.93388 0.20986 0.00900
H 	H 	0.35650 0.92700 0.22440 0.00700
C 	C 	0.32671 0.91677 0.17947 0.02200
C 	C 	0.34071 0.88450 0.16225 0.06500
C 	C 	0.37056 0.86763 0.17576 -0.12900
H 	H 	0.38140 0.87650 0.19610 0.07600
N 	N 	0.81701 0.46194 0.21473 -0.21100
N 	N 	0.79322 0.46194 0.18789 -0.18100
N 	N 	0.79869 0.43492 0.16623 -0.10000
C 	C 	0.83776 0.43388 0.20986 0.00800
H 	H 	0.85650 0.42700 0.22440 0.00600
C 	C 	0.82671 0.41677 0.17947 0.02100
C 	C 	0.84071 0.38450 0.16225 0.06500
C 	C 	0.87056 0.36763 0.17576 -0.12900
H 	H 	0.88140 0.37650 0.19610 0.07600
N 	N 	0.81701 0.96194 0.71473 -0.20600
N 	N 	0.79322 0.96194 0.68789 -0.17600
N 	N 	0.79869 0.93492 0.66623 -0.09800
C 	C 	0.83776 0.93388 0.70986 0.00900
H 	H 	0.85650 0.92700 0.72440 0.00800
C 	C 	0.82671 0.91677 0.67947 0.02300
C 	C 	0.84071 0.88450 0.66225 0.06700
C 	C 	0.87056 0.86763 0.67576 -0.12900
H 	H 	0.88140 0.87650 0.69610 0.07700
N 	N 	0.68299 0.53806 0.71473 -0.21200
N 	N 	0.70678 0.53806 0.68789 -0.18100
N 	N 	0.70131 0.56508 0.66623 -0.10000
C 	C 	0.66224 0.56612 0.70986 0.00800
H 	H 	0.64350 0.57300 0.72440 0.00500
C 	C 	0.67329 0.58323 0.67947 0.02100
C 	C 	0.65929 0.61550 0.66225 0.06500
C 	C 	0.62944 0.63237 0.67576 -0.12900
H 	H 	0.61860 0.62350 0.69610 0.07500
N 	N 	0.68299 0.03806 0.21473 -0.21400
N 	N 	0.70678 0.03806 0.18789 -0.18400
N 	N 	0.70131 0.06508 0.16623 -0.10100
C 	C 	0.66224 0.06612 0.20986 0.00700
H 	H 	0.64350 0.07300 0.22440 0.00400
C 	C 	0.67329 0.08323 0.17947 0.02000
C 	C 	0.65929 0.11550 0.16225 0.06300
C 	C 	0.62944 0.13237 0.17576 -0.12900
H 	H 	0.61860 0.12350 0.19610 0.07400
N 	N 	0.18299 0.53806 0.21473 -0.21200
N 	N 	0.20678 0.53806 0.18789 -0.18200
N 	N 	0.20131 0.56508 0.16623 -0.10100
C 	C 	0.16224 0.56612 0.20986 0.00800
H 	H 	0.14350 0.57300 0.22440 0.00400
C 	C 	0.17329 0.58323 0.17947 0.02000
C 	C 	0.15929 0.61550 0.16225 0.06400
C 	C 	0.12944 0.63237 0.17576 -0.12900
H 	H 	0.11860 0.62350 0.19610 0.07400
N 	N 	0.18299 0.03806 0.71473 -0.21400
N 	N 	0.20678 0.03806 0.68789 -0.18400
N 	N 	0.20131 0.06508 0.66623 -0.10100
C 	C 	0.16224 0.06612 0.70986 0.00700
H 	H 	0.14350 0.07300 0.72440 0.00300
C 	C 	0.17329 0.08323 0.67947 0.02000
C 	C 	0.15929 0.11550 0.66225 0.06300
C 	C 	0.12944 0.13237 0.67576 -0.12900
H 	H 	0.11860 0.12350 0.69610 0.07400
N 	N 	0.28527 0.68299 0.46194 -0.21200
N 	N 	0.31211 0.70678 0.46194 -0.18100
N 	N 	0.33377 0.70131 0.43492 -0.10000
C 	C 	0.29014 0.66224 0.43388 0.00800
H 	H 	0.27560 0.64350 0.42700 0.00500
C 	C 	0.32053 0.67329 0.41677 0.02100
C 	C 	0.33775 0.65929 0.38450 0.06500
C 	C 	0.32424 0.62944 0.36763 -0.12900
H 	H 	0.30390 0.61860 0.37650 0.07500
N 	N 	0.28527 0.18299 0.96194 -0.20600
N 	N 	0.31211 0.20678 0.96194 -0.17600
N 	N 	0.33377 0.20131 0.93492 -0.09800
C 	C 	0.29014 0.16224 0.93388 0.00900
H 	H 	0.27560 0.14350 0.92700 0.00600
C 	C 	0.32053 0.17329 0.91677 0.02200
C 	C 	0.33775 0.15929 0.88450 0.06500
C 	C 	0.32424 0.12944 0.86763 -0.12900
H 	H 	0.30390 0.11860 0.87650 0.07500
N 	N 	0.78527 0.68299 0.96194 -0.20600
N 	N 	0.81211 0.70678 0.96194 -0.17600
N 	N 	0.83377 0.70131 0.93492 -0.09800
C 	C 	0.79014 0.66224 0.93388 0.00900
H 	H 	0.77560 0.64350 0.92700 0.00700
C 	C 	0.82053 0.67329 0.91677 0.02200
C 	C 	0.83775 0.65929 0.88450 0.06700
C 	C 	0.82424 0.62944 0.86763 -0.12900
H 	H 	0.80390 0.61860 0.87650 0.07600
N 	N 	0.78527 0.18299 0.46194 -0.21200
N 	N 	0.81211 0.20678 0.46194 -0.18100
N 	N 	0.83377 0.20131 0.43492 -0.09900
C 	C 	0.79014 0.16224 0.43388 0.00800
H 	H 	0.77560 0.14350 0.42700 0.00400
C 	C 	0.82053 0.17329 0.41677 0.02100
C 	C 	0.83775 0.15929 0.38450 0.06500
C 	C 	0.82424 0.12944 0.36763 -0.12900
H 	H 	0.80390 0.11860 0.37650 0.07500
N 	N 	0.28527 0.31701 0.53806 -0.21100
N 	N 	0.31211 0.29322 0.53806 -0.18100
N 	N 	0.33377 0.29869 0.56508 -0.10000
C 	C 	0.29014 0.33776 0.56612 0.00800
H 	H 	0.27560 0.35650 0.57300 0.00500
C 	C 	0.32053 0.32671 0.58323 0.02100
C 	C 	0.33775 0.34071 0.61550 0.06500
C 	C 	0.32424 0.37056 0.63237 -0.12900
H 	H 	0.30390 0.38140 0.62350 0.07500
N 	N 	0.28527 0.81701 0.03806 -0.21300
N 	N 	0.31211 0.79322 0.03806 -0.18300
N 	N 	0.33377 0.79869 0.06508 -0.10100
C 	C 	0.29014 0.83776 0.06612 0.00800
H 	H 	0.27560 0.85650 0.07300 0.00500
C 	C 	0.32053 0.82671 0.08323 0.02100
C 	C 	0.33775 0.84071 0.11550 0.06500
C 	C 	0.32424 0.87056 0.13237 -0.12900
H 	H 	0.30390 0.88140 0.12350 0.07500
N 	N 	0.78527 0.31701 0.03806 -0.21300
N 	N 	0.81211 0.29322 0.03806 -0.18300
N 	N 	0.83377 0.29869 0.06508 -0.10000
C 	C 	0.79014 0.33776 0.06612 0.00700
H 	H 	0.77560 0.35650 0.07300 0.00400
C 	C 	0.82053 0.32671 0.08323 0.02100
C 	C 	0.83775 0.34071 0.11550 0.06500
C 	C 	0.82424 0.37056 0.13237 -0.12900
H 	H 	0.80390 0.38140 0.12350 0.07500
N 	N 	0.78527 0.81701 0.53806 -0.21100
N 	N 	0.81211 0.79322 0.53806 -0.18100
N 	N 	0.83377 0.79869 0.56508 -0.09900
C 	C 	0.79014 0.83776 0.56612 0.00900
H 	H 	0.77560 0.85650 0.57300 0.00600
C 	C 	0.82053 0.82671 0.58323 0.02200
C 	C 	0.83775 0.84071 0.61550 0.06600
C 	C 	0.82424 0.87056 0.63237 -0.12900
H 	H 	0.80390 0.88140 0.62350 0.07600
N 	N 	0.71473 0.31701 0.46194 -0.21100
N 	N 	0.68789 0.29322 0.46194 -0.18100
N 	N 	0.66623 0.29869 0.43492 -0.10000
C 	C 	0.70986 0.33776 0.43388 0.00800
H 	H 	0.72440 0.35650 0.42700 0.00500
C 	C 	0.67947 0.32671 0.41677 0.02100
C 	C 	0.66225 0.34071 0.38450 0.06500
C 	C 	0.67576 0.37056 0.36763 -0.12900
H 	H 	0.69610 0.38140 0.37650 0.07500
N 	N 	0.71473 0.81701 0.96194 -0.20600
N 	N 	0.68789 0.79322 0.96194 -0.17600
N 	N 	0.66623 0.79869 0.93492 -0.09800
C 	C 	0.70986 0.83776 0.93388 0.00900
H 	H 	0.72440 0.85650 0.92700 0.00800
C 	C 	0.67947 0.82671 0.91677 0.02300
C 	C 	0.66225 0.84071 0.88450 0.06700
C 	C 	0.67576 0.87056 0.86763 -0.12900
H 	H 	0.69610 0.88140 0.87650 0.07700
N 	N 	0.21473 0.31701 0.96194 -0.20600
N 	N 	0.18789 0.29322 0.96194 -0.17600
N 	N 	0.16623 0.29869 0.93492 -0.09900
C 	C 	0.20986 0.33776 0.93388 0.00900
H 	H 	0.22440 0.35650 0.92700 0.00700
C 	C 	0.17947 0.32671 0.91677 0.02200
C 	C 	0.16225 0.34071 0.88450 0.06500
C 	C 	0.17576 0.37056 0.86763 -0.12900
H 	H 	0.19610 0.38140 0.87650 0.07600
N 	N 	0.21473 0.81701 0.46194 -0.21100
N 	N 	0.18789 0.79322 0.46194 -0.18100
N 	N 	0.16623 0.79869 0.43492 -0.10000
C 	C 	0.20986 0.83776 0.43388 0.00800
H 	H 	0.22440 0.85650 0.42700 0.00600
C 	C 	0.17947 0.82671 0.41677 0.02100
C 	C 	0.16225 0.84071 0.38450 0.06500
C 	C 	0.17576 0.87056 0.36763 -0.12900
H 	H 	0.19610 0.88140 0.37650 0.07600
N 	N 	0.71473 0.68299 0.53806 -0.21200
N 	N 	0.68789 0.70678 0.53806 -0.18100
N 	N 	0.66623 0.70131 0.56508 -0.10000
C 	C 	0.70986 0.66224 0.56612 0.00800
H 	H 	0.72440 0.64350 0.57300 0.00500
C 	C 	0.67947 0.67329 0.58323 0.02100
C 	C 	0.66225 0.65929 0.61550 0.06500
C 	C 	0.67576 0.62944 0.63237 -0.12900
H 	H 	0.69610 0.61860 0.62350 0.07500
N 	N 	0.71473 0.18299 0.03806 -0.21400
N 	N 	0.68789 0.20678 0.03806 -0.18400
N 	N 	0.66623 0.20131 0.06508 -0.10100
C 	C 	0.70986 0.16224 0.06612 0.00700
H 	H 	0.72440 0.14350 0.07300 0.00300
C 	C 	0.67947 0.17329 0.08323 0.02000
C 	C 	0.66225 0.15929 0.11550 0.06300
C 	C 	0.67576 0.12944 0.13237 -0.12900
H 	H 	0.69610 0.11860 0.12350 0.07400
N 	N 	0.21473 0.68299 0.03806 -0.21400
N 	N 	0.18789 0.70678 0.03806 -0.18400
N 	N 	0.16623 0.70131 0.06508 -0.10100
C 	C 	0.20986 0.66224 0.06612 0.00700
H 	H 	0.22440 0.64350 0.07300 0.00400
C 	C 	0.17947 0.67329 0.08323 0.02000
C 	C 	0.16225 0.65929 0.11550 0.06300
C 	C 	0.17576 0.62944 0.13237 -0.12900
H 	H 	0.19610 0.61860 0.12350 0.07400
N 	N 	0.21473 0.18299 0.53806 -0.21200
N 	N 	0.18789 0.20678 0.53806 -0.18200
N 	N 	0.16623 0.20131 0.56508 -0.10100
C 	C 	0.20986 0.16224 0.56612 0.00800
H 	H 	0.22440 0.14350 0.57300 0.00400
C 	C 	0.17947 0.17329 0.58323 0.02000
C 	C 	0.16225 0.15929 0.61550 0.06400
C 	C 	0.17576 0.12944 0.63237 -0.12900
H 	H 	0.19610 0.11860 0.62350 0.07400
N 	N 	0.46194 0.28527 0.68299 -0.21200
N 	N 	0.46194 0.31211 0.70678 -0.18100
N 	N 	0.43492 0.33377 0.70131 -0.10000
C 	C 	0.43388 0.29014 0.66224 0.00800
H 	H 	0.42700 0.27560 0.64350 0.00500
C 	C 	0.41677 0.32053 0.67329 0.02100
C 	C 	0.38450 0.33775 0.65929 0.06500
C 	C 	0.36763 0.32424 0.62944 -0.12900
H 	H 	0.37650 0.30390 0.61860 0.07500
N 	N 	0.46194 0.78527 0.18299 -0.21200
N 	N 	0.46194 0.81211 0.20678 -0.18100
N 	N 	0.43492 0.83377 0.20131 -0.09900
C 	C 	0.43388 0.79014 0.16224 0.00800
H 	H 	0.42700 0.77560 0.14350 0.00400
C 	C 	0.41677 0.82053 0.17329 0.02100
C 	C 	0.38450 0.83775 0.15929 0.06500
C 	C 	0.36763 0.82424 0.12944 -0.12900
H 	H 	0.37650 0.80390 0.11860 0.07500
N 	N 	0.96194 0.28527 0.18299 -0.20600
N 	N 	0.96194 0.31211 0.20678 -0.17600
N 	N 	0.93492 0.33377 0.20131 -0.09800
C 	C 	0.93388 0.29014 0.16224 0.00900
H 	H 	0.92700 0.27560 0.14350 0.00600
C 	C 	0.91677 0.32053 0.17329 0.02200
C 	C 	0.88450 0.33775 0.15929 0.06500
C 	C 	0.86763 0.32424 0.12944 -0.12900
H 	H 	0.87650 0.30390 0.11860 0.07500
N 	N 	0.96194 0.78527 0.68299 -0.20600
N 	N 	0.96194 0.81211 0.70678 -0.17600
N 	N 	0.93492 0.83377 0.70131 -0.09800
C 	C 	0.93388 0.79014 0.66224 0.00900
H 	H 	0.92700 0.77560 0.64350 0.00700
C 	C 	0.91677 0.82053 0.67329 0.02200
C 	C 	0.88450 0.83775 0.65929 0.06700
C 	C 	0.86763 0.82424 0.62944 -0.12900
H 	H 	0.87650 0.80390 0.61860 0.07600
N 	N 	0.53806 0.28527 0.31701 -0.21100
N 	N 	0.53806 0.31211 0.29322 -0.18100
N 	N 	0.56508 0.33377 0.29869 -0.10000
C 	C 	0.56612 0.29014 0.33776 0.00800
H 	H 	0.57300 0.27560 0.35650 0.00500
C 	C 	0.58323 0.32053 0.32671 0.02100
C 	C 	0.61550 0.33775 0.34071 0.06500
C 	C 	0.63237 0.32424 0.37056 -0.12900
H 	H 	0.62350 0.30390 0.38140 0.07500
N 	N 	0.53806 0.78527 0.81701 -0.21100
N 	N 	0.53806 0.81211 0.79322 -0.18100
N 	N 	0.56508 0.83377 0.79869 -0.09900
C 	C 	0.56612 0.79014 0.83776 0.00900
H 	H 	0.57300 0.77560 0.85650 0.00600
C 	C 	0.58323 0.82053 0.82671 0.02200
C 	C 	0.61550 0.83775 0.84071 0.06600
C 	C 	0.63237 0.82424 0.87056 -0.12900
H 	H 	0.62350 0.80390 0.88140 0.07600
N 	N 	0.03806 0.28527 0.81701 -0.21300
N 	N 	0.03806 0.31211 0.79322 -0.18300
N 	N 	0.06508 0.33377 0.79869 -0.10100
C 	C 	0.06612 0.29014 0.83776 0.00800
H 	H 	0.07300 0.27560 0.85650 0.00500
C 	C 	0.08323 0.32053 0.82671 0.02100
C 	C 	0.11550 0.33775 0.84071 0.06500
C 	C 	0.13237 0.32424 0.87056 -0.12900
H 	H 	0.12350 0.30390 0.88140 0.07500
N 	N 	0.03806 0.78527 0.31701 -0.21300
N 	N 	0.03806 0.81211 0.29322 -0.18300
N 	N 	0.06508 0.83377 0.29869 -0.10000
C 	C 	0.06612 0.79014 0.33776 0.00700
H 	H 	0.07300 0.77560 0.35650 0.00400
C 	C 	0.08323 0.82053 0.32671 0.02100
C 	C 	0.11550 0.83775 0.34071 0.06500
C 	C 	0.13237 0.82424 0.37056 -0.12900
H 	H 	0.12350 0.80390 0.38140 0.07500
N 	N 	0.46194 0.71473 0.31701 -0.21100
N 	N 	0.46194 0.68789 0.29322 -0.18100
N 	N 	0.43492 0.66623 0.29869 -0.10000
C 	C 	0.43388 0.70986 0.33776 0.00800
H 	H 	0.42700 0.72440 0.35650 0.00500
C 	C 	0.41677 0.67947 0.32671 0.02100
C 	C 	0.38450 0.66225 0.34071 0.06500
C 	C 	0.36763 0.67576 0.37056 -0.12900
H 	H 	0.37650 0.69610 0.38140 0.07500
N 	N 	0.46194 0.21473 0.81701 -0.21100
N 	N 	0.46194 0.18789 0.79322 -0.18100
N 	N 	0.43492 0.16623 0.79869 -0.10000
C 	C 	0.43388 0.20986 0.83776 0.00800
H 	H 	0.42700 0.22440 0.85650 0.00600
C 	C 	0.41677 0.17947 0.82671 0.02100
C 	C 	0.38450 0.16225 0.84071 0.06500
C 	C 	0.36763 0.17576 0.87056 -0.12900
H 	H 	0.37650 0.19610 0.88140 0.07600
N 	N 	0.96194 0.71473 0.81701 -0.20600
N 	N 	0.96194 0.68789 0.79322 -0.17600
N 	N 	0.93492 0.66623 0.79869 -0.09800
C 	C 	0.93388 0.70986 0.83776 0.00900
H 	H 	0.92700 0.72440 0.85650 0.00800
C 	C 	0.91677 0.67947 0.82671 0.02300
C 	C 	0.88450 0.66225 0.84071 0.06700
C 	C 	0.86763 0.67576 0.87056 -0.12900
H 	H 	0.87650 0.69610 0.88140 0.07700
N 	N 	0.96194 0.21473 0.31701 -0.20600
N 	N 	0.96194 0.18789 0.29322 -0.17600
N 	N 	0.93492 0.16623 0.29869 -0.09900
C 	C 	0.93388 0.20986 0.33776 0.00900
H 	H 	0.92700 0.22440 0.35650 0.00700
C 	C 	0.91677 0.17947 0.32671 0.02200
C 	C 	0.88450 0.16225 0.34071 0.06500
C 	C 	0.86763 0.17576 0.37056 -0.12900
H 	H 	0.87650 0.19610 0.38140 0.07600
N 	N 	0.53806 0.71473 0.68299 -0.21200
N 	N 	0.53806 0.68789 0.70678 -0.18100
N 	N 	0.56508 0.66623 0.70131 -0.10000
C 	C 	0.56612 0.70986 0.66224 0.00800
H 	H 	0.57300 0.72440 0.64350 0.00500
C 	C 	0.58323 0.67947 0.67329 0.02100
C 	C 	0.61550 0.66225 0.65929 0.06500
C 	C 	0.63237 0.67576 0.62944 -0.12900
H 	H 	0.62350 0.69610 0.61860 0.07500
N 	N 	0.53806 0.21473 0.18299 -0.21200
N 	N 	0.53806 0.18789 0.20678 -0.18200
N 	N 	0.56508 0.16623 0.20131 -0.10100
C 	C 	0.56612 0.20986 0.16224 0.00800
H 	H 	0.57300 0.22440 0.14350 0.00400
C 	C 	0.58323 0.17947 0.17329 0.02000
C 	C 	0.61550 0.16225 0.15929 0.06400
C 	C 	0.63237 0.17576 0.12944 -0.12900
H 	H 	0.62350 0.19610 0.11860 0.07400
N 	N 	0.03806 0.71473 0.18299 -0.21400
N 	N 	0.03806 0.68789 0.20678 -0.18400
N 	N 	0.06508 0.66623 0.20131 -0.10100
C 	C 	0.06612 0.70986 0.16224 0.00700
H 	H 	0.07300 0.72440 0.14350 0.00300
C 	C 	0.08323 0.67947 0.17329 0.02000
C 	C 	0.11550 0.66225 0.15929 0.06300
C 	C 	0.13237 0.67576 0.12944 -0.12900
H 	H 	0.12350 0.69610 0.11860 0.07400
N 	N 	0.03806 0.21473 0.68299 -0.21400
N 	N 	0.03806 0.18789 0.70678 -0.18400
N 	N 	0.06508 0.16623 0.70131 -0.10100
C 	C 	0.06612 0.20986 0.66224 0.00700
H 	H 	0.07300 0.22440 0.64350 0.00400
C 	C 	0.08323 0.17947 0.67329 0.02000
C 	C 	0.11550 0.16225 0.65929 0.06300
C 	C 	0.13237 0.17576 0.62944 -0.12900
H 	H 	0.12350 0.19610 0.61860 0.07400
N 	N 	0.96194 0.18299 0.21473 -0.20600
N 	N 	0.96194 0.20678 0.18789 -0.17600
N 	N 	0.93492 0.20131 0.16623 -0.09900
C 	C 	0.93388 0.16224 0.20986 0.00900
H 	H 	0.92700 0.14350 0.22440 0.00600
C 	C 	0.91677 0.17329 0.17947 0.02200
C 	C 	0.88450 0.15929 0.16225 0.06500
C 	C 	0.86763 0.12944 0.17576 -0.12900
H 	H 	0.87650 0.11860 0.19610 0.07500
N 	N 	0.96194 0.68299 0.71473 -0.20600
N 	N 	0.96194 0.70678 0.68789 -0.17600
N 	N 	0.93492 0.70131 0.66623 -0.09800
C 	C 	0.93388 0.66224 0.70986 0.00900
H 	H 	0.92700 0.64350 0.72440 0.00700
C 	C 	0.91677 0.67329 0.67947 0.02200
C 	C 	0.88450 0.65929 0.66225 0.06600
C 	C 	0.86763 0.62944 0.67576 -0.12900
H 	H 	0.87650 0.61860 0.69610 0.07600
N 	N 	0.46194 0.18299 0.71473 -0.21200
N 	N 	0.46194 0.20678 0.68789 -0.18200
N 	N 	0.43492 0.20131 0.66623 -0.10000
C 	C 	0.43388 0.16224 0.70986 0.00800
H 	H 	0.42700 0.14350 0.72440 0.00400
C 	C 	0.41677 0.17329 0.67947 0.02100
C 	C 	0.38450 0.15929 0.66225 0.06400
C 	C 	0.36763 0.12944 0.67576 -0.12900
H 	H 	0.37650 0.11860 0.69610 0.07400
N 	N 	0.46194 0.68299 0.21473 -0.21200
N 	N 	0.46194 0.70678 0.18789 -0.18200
N 	N 	0.43492 0.70131 0.16623 -0.10000
C 	C 	0.43388 0.66224 0.20986 0.00800
H 	H 	0.42700 0.64350 0.22440 0.00500
C 	C 	0.41677 0.67329 0.17947 0.02100
C 	C 	0.38450 0.65929 0.16225 0.06400
C 	C 	0.36763 0.62944 0.17576 -0.12900
H 	H 	0.37650 0.61860 0.19610 0.07500
N 	N 	0.03806 0.81701 0.21473 -0.21300
N 	N 	0.03806 0.79322 0.18789 -0.18300
N 	N 	0.06508 0.79869 0.16623 -0.10100
C 	C 	0.06612 0.83776 0.20986 0.00700
H 	H 	0.07300 0.85650 0.22440 0.00500
C 	C 	0.08323 0.82671 0.17947 0.02000
C 	C 	0.11550 0.84071 0.16225 0.06400
C 	C 	0.13237 0.87056 0.17576 -0.12900
H 	H 	0.12350 0.88140 0.19610 0.07500
N 	N 	0.03806 0.31701 0.71473 -0.21300
N 	N 	0.03806 0.29322 0.68789 -0.18300
N 	N 	0.06508 0.29869 0.66623 -0.10100
C 	C 	0.06612 0.33776 0.70986 0.00700
H 	H 	0.07300 0.35650 0.72440 0.00400
C 	C 	0.08323 0.32671 0.67947 0.02000
C 	C 	0.11550 0.34071 0.66225 0.06400
C 	C 	0.13237 0.37056 0.67576 -0.12900
H 	H 	0.12350 0.38140 0.69610 0.07500
N 	N 	0.53806 0.81701 0.71473 -0.21100
N 	N 	0.53806 0.79322 0.68789 -0.18100
N 	N 	0.56508 0.79869 0.66623 -0.10000
C 	C 	0.56612 0.83776 0.70986 0.00800
H 	H 	0.57300 0.85650 0.72440 0.00600
C 	C 	0.58323 0.82671 0.67947 0.02100
C 	C 	0.61550 0.84071 0.66225 0.06600
C 	C 	0.63237 0.87056 0.67576 -0.12900
H 	H 	0.62350 0.88140 0.69610 0.07600
N 	N 	0.53806 0.31701 0.21473 -0.21200
N 	N 	0.53806 0.29322 0.18789 -0.18200
N 	N 	0.56508 0.29869 0.16623 -0.10000
C 	C 	0.56612 0.33776 0.20986 0.00800
H 	H 	0.57300 0.35650 0.22440 0.00500
C 	C 	0.58323 0.32671 0.17947 0.02100
C 	C 	0.61550 0.34071 0.16225 0.06400
C 	C 	0.63237 0.37056 0.17576 -0.12900
H 	H 	0.62350 0.38140 0.19610 0.07500
N 	N 	0.96194 0.81701 0.78527 -0.20600
N 	N 	0.96194 0.79322 0.81211 -0.17500
N 	N 	0.93492 0.79869 0.83377 -0.09700
C 	C 	0.93388 0.83776 0.79014 0.00900
H 	H 	0.92700 0.85650 0.77560 0.00800
C 	C 	0.91677 0.82671 0.82053 0.02300
C 	C 	0.88450 0.84071 0.83775 0.06700
C 	C 	0.86763 0.87056 0.82424 -0.12900
H 	H 	0.87650 0.88140 0.80390 0.07700
N 	N 	0.96194 0.31701 0.28527 -0.20600
N 	N 	0.96194 0.29322 0.31211 -0.17600
N 	N 	0.93492 0.29869 0.33377 -0.09800
C 	C 	0.93388 0.33776 0.29014 0.00900
H 	H 	0.92700 0.35650 0.27560 0.00700
C 	C 	0.91677 0.32671 0.32053 0.02200
C 	C 	0.88450 0.34071 0.33775 0.06600
C 	C 	0.86763 0.37056 0.32424 -0.12900
H 	H 	0.87650 0.38140 0.30390 0.07600
N 	N 	0.46194 0.81701 0.28527 -0.21100
N 	N 	0.46194 0.79322 0.31211 -0.18100
N 	N 	0.43492 0.79869 0.33377 -0.10000
C 	C 	0.43388 0.83776 0.29014 0.00800
H 	H 	0.42700 0.85650 0.27560 0.00600
C 	C 	0.41677 0.82671 0.32053 0.02100
C 	C 	0.38450 0.84071 0.33775 0.06600
C 	C 	0.36763 0.87056 0.32424 -0.12900
H 	H 	0.37650 0.88140 0.30390 0.07600
N 	N 	0.46194 0.31701 0.78527 -0.21100
N 	N 	0.46194 0.29322 0.81211 -0.18100
N 	N 	0.43492 0.29869 0.83377 -0.09900
C 	C 	0.43388 0.33776 0.79014 0.00800
H 	H 	0.42700 0.35650 0.77560 0.00500
C 	C 	0.41677 0.32671 0.82053 0.02100
C 	C 	0.38450 0.34071 0.83775 0.06600
C 	C 	0.36763 0.37056 0.82424 -0.12900
H 	H 	0.37650 0.38140 0.80390 0.07600
N 	N 	0.03806 0.18299 0.78527 -0.21400
N 	N 	0.03806 0.20678 0.81211 -0.18300
N 	N 	0.06508 0.20131 0.83377 -0.10100
C 	C 	0.06612 0.16224 0.79014 0.00700
H 	H 	0.07300 0.14350 0.77560 0.00300
C 	C 	0.08323 0.17329 0.82053 0.02000
C 	C 	0.11550 0.15929 0.83775 0.06400
C 	C 	0.13237 0.12944 0.82424 -0.12900
H 	H 	0.12350 0.11860 0.80390 0.07400
N 	N 	0.03806 0.68299 0.28527 -0.21300
N 	N 	0.03806 0.70678 0.31211 -0.18300
N 	N 	0.06508 0.70131 0.33377 -0.10100
C 	C 	0.06612 0.66224 0.29014 0.00700
H 	H 	0.07300 0.64350 0.27560 0.00400
C 	C 	0.08323 0.67329 0.32053 0.02000
C 	C 	0.11550 0.65929 0.33775 0.06400
C 	C 	0.13237 0.62944 0.32424 -0.12900
H 	H 	0.12350 0.61860 0.30390 0.07400
N 	N 	0.53806 0.18299 0.28527 -0.21200
N 	N 	0.53806 0.20678 0.31211 -0.18200
N 	N 	0.56508 0.20131 0.33377 -0.10000
C 	C 	0.56612 0.16224 0.29014 0.00800
H 	H 	0.57300 0.14350 0.27560 0.00400
C 	C 	0.58323 0.17329 0.32053 0.02100
C 	C 	0.61550 0.15929 0.33775 0.06400
C 	C 	0.63237 0.12944 0.32424 -0.12900
H 	H 	0.62350 0.11860 0.30390 0.07400
N 	N 	0.53806 0.68299 0.78527 -0.21100
N 	N 	0.53806 0.70678 0.81211 -0.18100
N 	N 	0.56508 0.70131 0.83377 -0.09900
C 	C 	0.56612 0.66224 0.79014 0.00800
H 	H 	0.57300 0.64350 0.77560 0.00500
C 	C 	0.58323 0.67329 0.82053 0.02100
C 	C 	0.61550 0.65929 0.83775 0.06600
C 	C 	0.63237 0.62944 0.82424 -0.12900
H 	H 	0.62350 0.61860 0.80390 0.07500
N 	N 	0.18299 0.78527 0.03806 -0.21400
N 	N 	0.20678 0.81211 0.03806 -0.18300
N 	N 	0.20131 0.83377 0.06508 -0.10100
C 	C 	0.16224 0.79014 0.06612 0.00700
H 	H 	0.14350 0.77560 0.07300 0.00300
C 	C 	0.17329 0.82053 0.08323 0.02000
C 	C 	0.15929 0.83775 0.11550 0.06400
C 	C 	0.12944 0.82424 0.13237 -0.12900
H 	H 	0.11860 0.80390 0.12350 0.07400
N 	N 	0.18299 0.28527 0.53806 -0.21200
N 	N 	0.20678 0.31211 0.53806 -0.18200
N 	N 	0.20131 0.33377 0.56508 -0.10000
C 	C 	0.16224 0.29014 0.56612 0.00800
H 	H 	0.14350 0.27560 0.57300 0.00400
C 	C 	0.17329 0.32053 0.58323 0.02100
C 	C 	0.15929 0.33775 0.61550 0.06400
C 	C 	0.12944 0.32424 0.63237 -0.12900
H 	H 	0.11860 0.30390 0.62350 0.07400
N 	N 	0.68299 0.78527 0.53806 -0.21100
N 	N 	0.70678 0.81211 0.53806 -0.18100
N 	N 	0.70131 0.83377 0.56508 -0.09900
C 	C 	0.66224 0.79014 0.56612 0.00800
H 	H 	0.64350 0.77560 0.57300 0.00500
C 	C 	0.67329 0.82053 0.58323 0.02100
C 	C 	0.65929 0.83775 0.61550 0.06600
C 	C 	0.62944 0.82424 0.63237 -0.12900
H 	H 	0.61860 0.80390 0.62350 0.07500
N 	N 	0.68299 0.28527 0.03806 -0.21300
N 	N 	0.70678 0.31211 0.03806 -0.18300
N 	N 	0.70131 0.33377 0.06508 -0.10100
C 	C 	0.66224 0.29014 0.06612 0.00700
H 	H 	0.64350 0.27560 0.07300 0.00400
C 	C 	0.67329 0.32053 0.08323 0.02000
C 	C 	0.65929 0.33775 0.11550 0.06400
C 	C 	0.62944 0.32424 0.13237 -0.12900
H 	H 	0.61860 0.30390 0.12350 0.07400
N 	N 	0.81701 0.78527 0.96194 -0.20600
N 	N 	0.79322 0.81211 0.96194 -0.17500
N 	N 	0.79869 0.83377 0.93492 -0.09700
C 	C 	0.83776 0.79014 0.93388 0.00900
H 	H 	0.85650 0.77560 0.92700 0.00800
C 	C 	0.82671 0.82053 0.91677 0.02300
C 	C 	0.84071 0.83775 0.88450 0.06700
C 	C 	0.87056 0.82424 0.86763 -0.12900
H 	H 	0.88140 0.80390 0.87650 0.07700
N 	N 	0.81701 0.28527 0.46194 -0.21100
N 	N 	0.79322 0.31211 0.46194 -0.18100
N 	N 	0.79869 0.33377 0.43492 -0.10000
C 	C 	0.83776 0.29014 0.43388 0.00800
H 	H 	0.85650 0.27560 0.42700 0.00600
C 	C 	0.82671 0.32053 0.41677 0.02100
C 	C 	0.84071 0.33775 0.38450 0.06600
C 	C 	0.87056 0.32424 0.36763 -0.12900
H 	H 	0.88140 0.30390 0.37650 0.07600
N 	N 	0.31701 0.78527 0.46194 -0.21100
N 	N 	0.29322 0.81211 0.46194 -0.18100
N 	N 	0.29869 0.83377 0.43492 -0.09900
C 	C 	0.33776 0.79014 0.43388 0.00800
H 	H 	0.35650 0.77560 0.42700 0.00500
C 	C 	0.32671 0.82053 0.41677 0.02100
C 	C 	0.34071 0.83775 0.38450 0.06600
C 	C 	0.37056 0.82424 0.36763 -0.12900
H 	H 	0.38140 0.80390 0.37650 0.07600
N 	N 	0.31701 0.28527 0.96194 -0.20600
N 	N 	0.29322 0.31211 0.96194 -0.17600
N 	N 	0.29869 0.33377 0.93492 -0.09800
C 	C 	0.33776 0.29014 0.93388 0.00900
H 	H 	0.35650 0.27560 0.92700 0.00700
C 	C 	0.32671 0.32053 0.91677 0.02200
C 	C 	0.34071 0.33775 0.88450 0.06600
C 	C 	0.37056 0.32424 0.86763 -0.12900
H 	H 	0.38140 0.30390 0.87650 0.07600
N 	N 	0.81701 0.21473 0.03806 -0.21300
N 	N 	0.79322 0.18789 0.03806 -0.18300
N 	N 	0.79869 0.16623 0.06508 -0.10100
C 	C 	0.83776 0.20986 0.06612 0.00700
H 	H 	0.85650 0.22440 0.07300 0.00500
C 	C 	0.82671 0.17947 0.08323 0.02000
C 	C 	0.84071 0.16225 0.11550 0.06400
C 	C 	0.87056 0.17576 0.13237 -0.12900
H 	H 	0.88140 0.19610 0.12350 0.07500
N 	N 	0.81701 0.71473 0.53806 -0.21100
N 	N 	0.79322 0.68789 0.53806 -0.18100
N 	N 	0.79869 0.66623 0.56508 -0.10000
C 	C 	0.83776 0.70986 0.56612 0.00800
H 	H 	0.85650 0.72440 0.57300 0.00600
C 	C 	0.82671 0.67947 0.58323 0.02100
C 	C 	0.84071 0.66225 0.61550 0.06600
C 	C 	0.87056 0.67576 0.63237 -0.12900
H 	H 	0.88140 0.69610 0.62350 0.07600
N 	N 	0.31701 0.21473 0.53806 -0.21200
N 	N 	0.29322 0.18789 0.53806 -0.18200
N 	N 	0.29869 0.16623 0.56508 -0.10000
C 	C 	0.33776 0.20986 0.56612 0.00800
H 	H 	0.35650 0.22440 0.57300 0.00500
C 	C 	0.32671 0.17947 0.58323 0.02100
C 	C 	0.34071 0.16225 0.61550 0.06400
C 	C 	0.37056 0.17576 0.63237 -0.12900
H 	H 	0.38140 0.19610 0.62350 0.07500
N 	N 	0.31701 0.71473 0.03806 -0.21300
N 	N 	0.29322 0.68789 0.03806 -0.18300
N 	N 	0.29869 0.66623 0.06508 -0.10100
C 	C 	0.33776 0.70986 0.06612 0.00700
H 	H 	0.35650 0.72440 0.07300 0.00400
C 	C 	0.32671 0.67947 0.08323 0.02000
C 	C 	0.34071 0.66225 0.11550 0.06400
C 	C 	0.37056 0.67576 0.13237 -0.12900
H 	H 	0.38140 0.69610 0.12350 0.07500
N 	N 	0.18299 0.21473 0.96194 -0.20600
N 	N 	0.20678 0.18789 0.96194 -0.17600
N 	N 	0.20131 0.16623 0.93492 -0.09900
C 	C 	0.16224 0.20986 0.93388 0.00900
H 	H 	0.14350 0.22440 0.92700 0.00600
C 	C 	0.17329 0.17947 0.91677 0.02200
C 	C 	0.15929 0.16225 0.88450 0.06500
C 	C 	0.12944 0.17576 0.86763 -0.12900
H 	H 	0.11860 0.19610 0.87650 0.07500
N 	N 	0.18299 0.71473 0.46194 -0.21200
N 	N 	0.20678 0.68789 0.46194 -0.18200
N 	N 	0.20131 0.66623 0.43492 -0.10000
C 	C 	0.16224 0.70986 0.43388 0.00800
H 	H 	0.14350 0.72440 0.42700 0.00400
C 	C 	0.17329 0.67947 0.41677 0.02100
C 	C 	0.15929 0.66225 0.38450 0.06400
C 	C 	0.12944 0.67576 0.36763 -0.12900
H 	H 	0.11860 0.69610 0.37650 0.07400
N 	N 	0.68299 0.21473 0.46194 -0.21200
N 	N 	0.70678 0.18789 0.46194 -0.18200
N 	N 	0.70131 0.16623 0.43492 -0.10000
C 	C 	0.66224 0.20986 0.43388 0.00800
H 	H 	0.64350 0.22440 0.42700 0.00500
C 	C 	0.67329 0.17947 0.41677 0.02100
C 	C 	0.65929 0.16225 0.38450 0.06400
C 	C 	0.62944 0.17576 0.36763 -0.12900
H 	H 	0.61860 0.19610 0.37650 0.07500
N 	N 	0.68299 0.71473 0.96194 -0.20600
N 	N 	0.70678 0.68789 0.96194 -0.17600
N 	N 	0.70131 0.66623 0.93492 -0.09800
C 	C 	0.66224 0.70986 0.93388 0.00900
H 	H 	0.64350 0.72440 0.92700 0.00700
C 	C 	0.67329 0.67947 0.91677 0.02200
C 	C 	0.65929 0.66225 0.88450 0.06600
C 	C 	0.62944 0.67576 0.86763 -0.12900
H 	H 	0.61860 0.69610 0.87650 0.07600
N 	N 	0.78527 0.96194 0.81701 -0.20600
N 	N 	0.81211 0.96194 0.79322 -0.17500
N 	N 	0.83377 0.93492 0.79869 -0.09700
C 	C 	0.79014 0.93388 0.83776 0.00900
H 	H 	0.77560 0.92700 0.85650 0.00800
C 	C 	0.82053 0.91677 0.82671 0.02300
C 	C 	0.83775 0.88450 0.84071 0.06700
C 	C 	0.82424 0.86763 0.87056 -0.12900
H 	H 	0.80390 0.87650 0.88140 0.07700
N 	N 	0.78527 0.46194 0.31701 -0.21100
N 	N 	0.81211 0.46194 0.29322 -0.18100
N 	N 	0.83377 0.43492 0.29869 -0.09900
C 	C 	0.79014 0.43388 0.33776 0.00800
H 	H 	0.77560 0.42700 0.35650 0.00500
C 	C 	0.82053 0.41677 0.32671 0.02100
C 	C 	0.83775 0.38450 0.34071 0.06600
C 	C 	0.82424 0.36763 0.37056 -0.12900
H 	H 	0.80390 0.37650 0.38140 0.07600
N 	N 	0.28527 0.96194 0.31701 -0.20600
N 	N 	0.31211 0.96194 0.29322 -0.17600
N 	N 	0.33377 0.93492 0.29869 -0.09800
C 	C 	0.29014 0.93388 0.33776 0.00900
H 	H 	0.27560 0.92700 0.35650 0.00700
C 	C 	0.32053 0.91677 0.32671 0.02200
C 	C 	0.33775 0.88450 0.34071 0.06600
C 	C 	0.32424 0.86763 0.37056 -0.12900
H 	H 	0.30390 0.87650 0.38140 0.07600
N 	N 	0.28527 0.46194 0.81701 -0.21100
N 	N 	0.31211 0.46194 0.79322 -0.18100
N 	N 	0.33377 0.43492 0.79869 -0.10000
C 	C 	0.29014 0.43388 0.83776 0.00800
H 	H 	0.27560 0.42700 0.85650 0.00600
C 	C 	0.32053 0.41677 0.82671 0.02100
C 	C 	0.33775 0.38450 0.84071 0.06600
C 	C 	0.32424 0.36763 0.87056 -0.12900
H 	H 	0.30390 0.37650 0.88140 0.07600
N 	N 	0.78527 0.03806 0.18299 -0.21400
N 	N 	0.81211 0.03806 0.20678 -0.18300
N 	N 	0.83377 0.06508 0.20131 -0.10100
C 	C 	0.79014 0.06612 0.16224 0.00700
H 	H 	0.77560 0.07300 0.14350 0.00300
C 	C 	0.82053 0.08323 0.17329 0.02000
C 	C 	0.83775 0.11550 0.15929 0.06400
C 	C 	0.82424 0.13237 0.12944 -0.12900
H 	H 	0.80390 0.12350 0.11860 0.07400
N 	N 	0.78527 0.53806 0.68299 -0.21100
N 	N 	0.81211 0.53806 0.70678 -0.18100
N 	N 	0.83377 0.56508 0.70131 -0.09900
C 	C 	0.79014 0.56612 0.66224 0.00800
H 	H 	0.77560 0.57300 0.64350 0.00500
C 	C 	0.82053 0.58323 0.67329 0.02100
C 	C 	0.83775 0.61550 0.65929 0.06600
C 	C 	0.82424 0.63237 0.62944 -0.12900
H 	H 	0.80390 0.62350 0.61860 0.07500
N 	N 	0.28527 0.03806 0.68299 -0.21300
N 	N 	0.31211 0.03806 0.70678 -0.18300
N 	N 	0.33377 0.06508 0.70131 -0.10100
C 	C 	0.29014 0.06612 0.66224 0.00700
H 	H 	0.27560 0.07300 0.64350 0.00400
C 	C 	0.32053 0.08323 0.67329 0.02000
C 	C 	0.33775 0.11550 0.65929 0.06400
C 	C 	0.32424 0.13237 0.62944 -0.12900
H 	H 	0.30390 0.12350 0.61860 0.07400
N 	N 	0.28527 0.53806 0.18299 -0.21200
N 	N 	0.31211 0.53806 0.20678 -0.18200
N 	N 	0.33377 0.56508 0.20131 -0.10000
C 	C 	0.29014 0.56612 0.16224 0.00800
H 	H 	0.27560 0.57300 0.14350 0.00400
C 	C 	0.32053 0.58323 0.17329 0.02100
C 	C 	0.33775 0.61550 0.15929 0.06400
C 	C 	0.32424 0.63237 0.12944 -0.12900
H 	H 	0.30390 0.62350 0.11860 0.07400
N 	N 	0.21473 0.96194 0.18299 -0.20600
N 	N 	0.18789 0.96194 0.20678 -0.17600
N 	N 	0.16623 0.93492 0.20131 -0.09900
C 	C 	0.20986 0.93388 0.16224 0.00900
H 	H 	0.22440 0.92700 0.14350 0.00600
C 	C 	0.17947 0.91677 0.17329 0.02200
C 	C 	0.16225 0.88450 0.15929 0.06500
C 	C 	0.17576 0.86763 0.12944 -0.12900
H 	H 	0.19610 0.87650 0.11860 0.07500
N 	N 	0.21473 0.46194 0.68299 -0.21200
N 	N 	0.18789 0.46194 0.70678 -0.18200
N 	N 	0.16623 0.43492 0.70131 -0.10000
C 	C 	0.20986 0.43388 0.66224 0.00800
H 	H 	0.22440 0.42700 0.64350 0.00500
C 	C 	0.17947 0.41677 0.67329 0.02100
C 	C 	0.16225 0.38450 0.65929 0.06400
C 	C 	0.17576 0.36763 0.62944 -0.12900
H 	H 	0.19610 0.37650 0.61860 0.07500
N 	N 	0.71473 0.96194 0.68299 -0.20600
N 	N 	0.68789 0.96194 0.70678 -0.17600
N 	N 	0.66623 0.93492 0.70131 -0.09800
C 	C 	0.70986 0.93388 0.66224 0.00900
H 	H 	0.72440 0.92700 0.64350 0.00700
C 	C 	0.67947 0.91677 0.67329 0.02200
C 	C 	0.66225 0.88450 0.65929 0.06600
C 	C 	0.67576 0.86763 0.62944 -0.12900
H 	H 	0.69610 0.87650 0.61860 0.07600
N 	N 	0.71473 0.46194 0.18299 -0.21200
N 	N 	0.68789 0.46194 0.20678 -0.18200
N 	N 	0.66623 0.43492 0.20131 -0.10000
C 	C 	0.70986 0.43388 0.16224 0.00800
H 	H 	0.72440 0.42700 0.14350 0.00400
C 	C 	0.67947 0.41677 0.17329 0.02100
C 	C 	0.66225 0.38450 0.15929 0.06400
C 	C 	0.67576 0.36763 0.12944 -0.12900
H 	H 	0.69610 0.37650 0.11860 0.07400
N 	N 	0.21473 0.03806 0.81701 -0.21300
N 	N 	0.18789 0.03806 0.79322 -0.18300
N 	N 	0.16623 0.06508 0.79869 -0.10100
C 	C 	0.20986 0.06612 0.83776 0.00700
H 	H 	0.22440 0.07300 0.85650 0.00500
C 	C 	0.17947 0.08323 0.82671 0.02000
C 	C 	0.16225 0.11550 0.84071 0.06400
C 	C 	0.17576 0.13237 0.87056 -0.12900
H 	H 	0.19610 0.12350 0.88140 0.07500
N 	N 	0.21473 0.53806 0.31701 -0.21200
N 	N 	0.18789 0.53806 0.29322 -0.18200
N 	N 	0.16623 0.56508 0.29869 -0.10000
C 	C 	0.20986 0.56612 0.33776 0.00800
H 	H 	0.22440 0.57300 0.35650 0.00500
C 	C 	0.17947 0.58323 0.32671 0.02100
C 	C 	0.16225 0.61550 0.34071 0.06400
C 	C 	0.17576 0.63237 0.37056 -0.12900
H 	H 	0.19610 0.62350 0.38140 0.07500
N 	N 	0.71473 0.03806 0.31701 -0.21300
N 	N 	0.68789 0.03806 0.29322 -0.18300
N 	N 	0.66623 0.06508 0.29869 -0.10100
C 	C 	0.70986 0.06612 0.33776 0.00700
H 	H 	0.72440 0.07300 0.35650 0.00400
C 	C 	0.67947 0.08323 0.32671 0.02000
C 	C 	0.66225 0.11550 0.34071 0.06400
C 	C 	0.67576 0.13237 0.37056 -0.12900
H 	H 	0.69610 0.12350 0.38140 0.07500
N 	N 	0.71473 0.53806 0.81701 -0.21100
N 	N 	0.68789 0.53806 0.79322 -0.18100
N 	N 	0.66623 0.56508 0.79869 -0.10000
C 	C 	0.70986 0.56612 0.83776 0.00800
H 	H 	0.72440 0.57300 0.85650 0.00600
C 	C 	0.67947 0.58323 0.82671 0.02100
C 	C 	0.66225 0.61550 0.84071 0.06600
C 	C 	0.67576 0.63237 0.87056 -0.12900
H 	H 	0.69610 0.62350 0.88140 0.07600
N 	N 	0.31701 0.53806 0.71473 -0.21100
N 	N 	0.29322 0.53806 0.68789 -0.18100
N 	N 	0.29869 0.56508 0.66623 -0.10000
C 	C 	0.33776 0.56612 0.70986 0.00800
H 	H 	0.35650 0.57300 0.72440 0.00500
C 	C 	0.32671 0.58323 0.67947 0.02100
C 	C 	0.34071 0.61550 0.66225 0.06500
C 	C 	0.37056 0.63237 0.67576 -0.12900
H 	H 	0.38140 0.62350 0.69610 0.07500
N 	N 	0.31701 0.03806 0.21473 -0.21300
N 	N 	0.29322 0.03806 0.18789 -0.18400
N 	N 	0.29869 0.06508 0.16623 -0.10100
C 	C 	0.33776 0.06612 0.20986 0.00700
H 	H 	0.35650 0.07300 0.22440 0.00400
C 	C 	0.32671 0.08323 0.17947 0.02000
C 	C 	0.34071 0.11550 0.16225 0.06300
C 	C 	0.37056 0.13237 0.17576 -0.12900
H 	H 	0.38140 0.12350 0.19610 0.07400
N 	N 	0.81701 0.53806 0.21473 -0.21100
N 	N 	0.79322 0.53806 0.18789 -0.18200
N 	N 	0.79869 0.56508 0.16623 -0.10000
C 	C 	0.83776 0.56612 0.20986 0.00800
H 	H 	0.85650 0.57300 0.22440 0.00600
C 	C 	0.82671 0.58323 0.17947 0.02100
C 	C 	0.84071 0.61550 0.16225 0.06500
C 	C 	0.87056 0.63237 0.17576 -0.12900
H 	H 	0.88140 0.62350 0.19610 0.07600
N 	N 	0.81701 0.03806 0.71473 -0.21300
N 	N 	0.79322 0.03806 0.68789 -0.18300
N 	N 	0.79869 0.06508 0.66623 -0.10100
C 	C 	0.83776 0.06612 0.70986 0.00700
H 	H 	0.85650 0.07300 0.72440 0.00500
C 	C 	0.82671 0.08323 0.67947 0.02100
C 	C 	0.84071 0.11550 0.66225 0.06500
C 	C 	0.87056 0.13237 0.67576 -0.12900
H 	H 	0.88140 0.12350 0.69610 0.07600
N 	N 	0.68299 0.46194 0.71473 -0.21200
N 	N 	0.70678 0.46194 0.68789 -0.18100
N 	N 	0.70131 0.43492 0.66623 -0.10000
C 	C 	0.66224 0.43388 0.70986 0.00800
H 	H 	0.64350 0.42700 0.72440 0.00500
C 	C 	0.67329 0.41677 0.67947 0.02100
C 	C 	0.65929 0.38450 0.66225 0.06500
C 	C 	0.62944 0.36763 0.67576 -0.12900
H 	H 	0.61860 0.37650 0.69610 0.07500
N 	N 	0.68299 0.96194 0.21473 -0.20600
N 	N 	0.70678 0.96194 0.18789 -0.17600
N 	N 	0.70131 0.93492 0.16623 -0.09900
C 	C 	0.66224 0.93388 0.20986 0.00900
H 	H 	0.64350 0.92700 0.22440 0.00700
C 	C 	0.67329 0.91677 0.17947 0.02200
C 	C 	0.65929 0.88450 0.16225 0.06500
C 	C 	0.62944 0.86763 0.17576 -0.12900
H 	H 	0.61860 0.87650 0.19610 0.07600
N 	N 	0.18299 0.46194 0.21473 -0.21200
N 	N 	0.20678 0.46194 0.18789 -0.18200
N 	N 	0.20131 0.43492 0.16623 -0.10000
C 	C 	0.16224 0.43388 0.20986 0.00800
H 	H 	0.14350 0.42700 0.22440 0.00400
C 	C 	0.17329 0.41677 0.17947 0.02100
C 	C 	0.15929 0.38450 0.16225 0.06400
C 	C 	0.12944 0.36763 0.17576 -0.12900
H 	H 	0.11860 0.37650 0.19610 0.07400
N 	N 	0.18299 0.96194 0.71473 -0.20600
N 	N 	0.20678 0.96194 0.68789 -0.17600
N 	N 	0.20131 0.93492 0.66623 -0.09800
C 	C 	0.16224 0.93388 0.70986 0.00900
H 	H 	0.14350 0.92700 0.72440 0.00600
C 	C 	0.17329 0.91677 0.67947 0.02200
C 	C 	0.15929 0.88450 0.66225 0.06500
C 	C 	0.12944 0.86763 0.67576 -0.12900
H 	H 	0.11860 0.87650 0.69610 0.07500
N 	N 	0.68299 0.53806 0.28527 -0.21200
N 	N 	0.70678 0.53806 0.31211 -0.18100
N 	N 	0.70131 0.56508 0.33377 -0.10000
C 	C 	0.66224 0.56612 0.29014 0.00800
H 	H 	0.64350 0.57300 0.27560 0.00500
C 	C 	0.67329 0.58323 0.32053 0.02100
C 	C 	0.65929 0.61550 0.33775 0.06500
C 	C 	0.62944 0.63237 0.32424 -0.12900
H 	H 	0.61860 0.62350 0.30390 0.07500
N 	N 	0.68299 0.03806 0.78527 -0.21300
N 	N 	0.70678 0.03806 0.81211 -0.18300
N 	N 	0.70131 0.06508 0.83377 -0.10000
C 	C 	0.66224 0.06612 0.79014 0.00700
H 	H 	0.64350 0.07300 0.77560 0.00400
C 	C 	0.67329 0.08323 0.82053 0.02000
C 	C 	0.65929 0.11550 0.83775 0.06500
C 	C 	0.62944 0.13237 0.82424 -0.12900
H 	H 	0.61860 0.12350 0.80390 0.07500
N 	N 	0.18299 0.53806 0.78527 -0.21200
N 	N 	0.20678 0.53806 0.81211 -0.18100
N 	N 	0.20131 0.56508 0.83377 -0.09900
C 	C 	0.16224 0.56612 0.79014 0.00800
H 	H 	0.14350 0.57300 0.77560 0.00400
C 	C 	0.17329 0.58323 0.82053 0.02100
C 	C 	0.15929 0.61550 0.83775 0.06500
C 	C 	0.12944 0.63237 0.82424 -0.12900
H 	H 	0.11860 0.62350 0.80390 0.07500
N 	N 	0.18299 0.03806 0.28527 -0.21400
N 	N 	0.20678 0.03806 0.31211 -0.18300
N 	N 	0.20131 0.06508 0.33377 -0.10100
C 	C 	0.16224 0.06612 0.29014 0.00700
H 	H 	0.14350 0.07300 0.27560 0.00300
C 	C 	0.17329 0.08323 0.32053 0.02000
C 	C 	0.15929 0.11550 0.33775 0.06300
C 	C 	0.12944 0.13237 0.32424 -0.12900
H 	H 	0.11860 0.12350 0.30390 0.07400
N 	N 	0.31701 0.46194 0.28527 -0.21100
N 	N 	0.29322 0.46194 0.31211 -0.18100
N 	N 	0.29869 0.43492 0.33377 -0.10000
C 	C 	0.33776 0.43388 0.29014 0.00800
H 	H 	0.35650 0.42700 0.27560 0.00500
C 	C 	0.32671 0.41677 0.32053 0.02100
C 	C 	0.34071 0.38450 0.33775 0.06500
C 	C 	0.37056 0.36763 0.32424 -0.12900
H 	H 	0.38140 0.37650 0.30390 0.07500
N 	N 	0.31701 0.96194 0.78527 -0.20600
N 	N 	0.29322 0.96194 0.81211 -0.17600
N 	N 	0.29869 0.93492 0.83377 -0.09800
C 	C 	0.33776 0.93388 0.79014 0.00900
H 	H 	0.35650 0.92700 0.77560 0.00700
C 	C 	0.32671 0.91677 0.82053 0.02200
C 	C 	0.34071 0.88450 0.83775 0.06700
C 	C 	0.37056 0.86763 0.82424 -0.12900
H 	H 	0.38140 0.87650 0.80390 0.07600
N 	N 	0.81701 0.46194 0.78527 -0.21100
N 	N 	0.79322 0.46194 0.81211 -0.18100
N 	N 	0.79869 0.43492 0.83377 -0.09900
C 	C 	0.83776 0.43388 0.79014 0.00900
H 	H 	0.85650 0.42700 0.77560 0.00600
C 	C 	0.82671 0.41677 0.82053 0.02200
C 	C 	0.84071 0.38450 0.83775 0.06600
C 	C 	0.87056 0.36763 0.82424 -0.12900
H 	H 	0.88140 0.37650 0.80390 0.07600
N 	N 	0.81701 0.96194 0.28527 -0.20600
N 	N 	0.79322 0.96194 0.31211 -0.17600
N 	N 	0.79869 0.93492 0.33377 -0.09800
C 	C 	0.83776 0.93388 0.29014 0.00900
H 	H 	0.85650 0.92700 0.27560 0.00800
C 	C 	0.82671 0.91677 0.32053 0.02300
C 	C 	0.84071 0.88450 0.33775 0.06700
C 	C 	0.87056 0.86763 0.32424 -0.12900
H 	H 	0.88140 0.87650 0.30390 0.07700
N 	N 	0.71473 0.31701 0.53806 -0.21100
N 	N 	0.68789 0.29322 0.53806 -0.18100
N 	N 	0.66623 0.29869 0.56508 -0.10000
C 	C 	0.70986 0.33776 0.56612 0.00800
H 	H 	0.72440 0.35650 0.57300 0.00500
C 	C 	0.67947 0.32671 0.58323 0.02100
C 	C 	0.66225 0.34071 0.61550 0.06500
C 	C 	0.67576 0.37056 0.63237 -0.12900
H 	H 	0.69610 0.38140 0.62350 0.07500
N 	N 	0.71473 0.81701 0.03806 -0.21300
N 	N 	0.68789 0.79322 0.03806 -0.18300
N 	N 	0.66623 0.79869 0.06508 -0.10100
C 	C 	0.70986 0.83776 0.06612 0.00700
H 	H 	0.72440 0.85650 0.07300 0.00500
C 	C 	0.67947 0.82671 0.08323 0.02100
C 	C 	0.66225 0.84071 0.11550 0.06500
C 	C 	0.67576 0.87056 0.13237 -0.12900
H 	H 	0.69610 0.88140 0.12350 0.07600
N 	N 	0.21473 0.31701 0.03806 -0.21300
N 	N 	0.18789 0.29322 0.03806 -0.18400
N 	N 	0.16623 0.29869 0.06508 -0.10100
C 	C 	0.20986 0.33776 0.06612 0.00700
H 	H 	0.22440 0.35650 0.07300 0.00400
C 	C 	0.17947 0.32671 0.08323 0.02000
C 	C 	0.16225 0.34071 0.11550 0.06300
C 	C 	0.17576 0.37056 0.13237 -0.12900
H 	H 	0.19610 0.38140 0.12350 0.07400
N 	N 	0.21473 0.81701 0.53806 -0.21100
N 	N 	0.18789 0.79322 0.53806 -0.18200
N 	N 	0.16623 0.79869 0.56508 -0.10000
C 	C 	0.20986 0.83776 0.56612 0.00800
H 	H 	0.22440 0.85650 0.57300 0.00600
C 	C 	0.17947 0.82671 0.58323 0.02100
C 	C 	0.16225 0.84071 0.61550 0.06500
C 	C 	0.17576 0.87056 0.63237 -0.12900
H 	H 	0.19610 0.88140 0.62350 0.07600
N 	N 	0.71473 0.68299 0.46194 -0.21200
N 	N 	0.68789 0.70678 0.46194 -0.18100
N 	N 	0.66623 0.70131 0.43492 -0.10000
C 	C 	0.70986 0.66224 0.43388 0.00800
H 	H 	0.72440 0.64350 0.42700 0.00500
C 	C 	0.67947 0.67329 0.41677 0.02100
C 	C 	0.66225 0.65929 0.38450 0.06500
C 	C 	0.67576 0.62944 0.36763 -0.12900
H 	H 	0.69610 0.61860 0.37650 0.07500
N 	N 	0.71473 0.18299 0.96194 -0.20600
N 	N 	0.68789 0.20678 0.96194 -0.17600
N 	N 	0.66623 0.20131 0.93492 -0.09800
C 	C 	0.70986 0.16224 0.93388 0.00900
H 	H 	0.72440 0.14350 0.92700 0.00600
C 	C 	0.67947 0.17329 0.91677 0.02200
C 	C 	0.66225 0.15929 0.88450 0.06500
C 	C 	0.67576 0.12944 0.86763 -0.12900
H 	H 	0.69610 0.11860 0.87650 0.07500
N 	N 	0.21473 0.68299 0.96194 -0.20600
N 	N 	0.18789 0.70678 0.96194 -0.17600
N 	N 	0.16623 0.70131 0.93492 -0.09900
C 	C 	0.20986 0.66224 0.93388 0.00900
H 	H 	0.22440 0.64350 0.92700 0.00700
C 	C 	0.17947 0.67329 0.91677 0.02200
C 	C 	0.16225 0.65929 0.88450 0.06500
C 	C 	0.17576 0.62944 0.86763 -0.12900
H 	H 	0.19610 0.61860 0.87650 0.07600
N 	N 	0.21473 0.18299 0.46194 -0.21200
N 	N 	0.18789 0.20678 0.46194 -0.18200
N 	N 	0.16623 0.20131 0.43492 -0.10000
C 	C 	0.20986 0.16224 0.43388 0.00800
H 	H 	0.22440 0.14350 0.42700 0.00400
C 	C 	0.17947 0.17329 0.41677 0.02100
C 	C 	0.16225 0.15929 0.38450 0.06400
C 	C 	0.17576 0.12944 0.36763 -0.12900
H 	H 	0.19610 0.11860 0.37650 0.07400
N 	N 	0.28527 0.68299 0.53806 -0.21200
N 	N 	0.31211 0.70678 0.53806 -0.18100
N 	N 	0.33377 0.70131 0.56508 -0.10000
C 	C 	0.29014 0.66224 0.56612 0.00800
H 	H 	0.27560 0.64350 0.57300 0.00500
C 	C 	0.32053 0.67329 0.58323 0.02100
C 	C 	0.33775 0.65929 0.61550 0.06500
C 	C 	0.32424 0.62944 0.63237 -0.12900
H 	H 	0.30390 0.61860 0.62350 0.07500
N 	N 	0.28527 0.18299 0.03806 -0.21400
N 	N 	0.31211 0.20678 0.03806 -0.18300
N 	N 	0.33377 0.20131 0.06508 -0.10100
C 	C 	0.29014 0.16224 0.06612 0.00700
H 	H 	0.27560 0.14350 0.07300 0.00300
C 	C 	0.32053 0.17329 0.08323 0.02000
C 	C 	0.33775 0.15929 0.11550 0.06300
C 	C 	0.32424 0.12944 0.13237 -0.12900
H 	H 	0.30390 0.11860 0.12350 0.07400
N 	N 	0.78527 0.68299 0.03806 -0.21300
N 	N 	0.81211 0.70678 0.03806 -0.18300
N 	N 	0.83377 0.70131 0.06508 -0.10000
C 	C 	0.79014 0.66224 0.06612 0.00700
H 	H 	0.77560 0.64350 0.07300 0.00400
C 	C 	0.82053 0.67329 0.08323 0.02000
C 	C 	0.83775 0.65929 0.11550 0.06500
C 	C 	0.82424 0.62944 0.13237 -0.12900
H 	H 	0.80390 0.61860 0.12350 0.07500
N 	N 	0.78527 0.18299 0.53806 -0.21200
N 	N 	0.81211 0.20678 0.53806 -0.18100
N 	N 	0.83377 0.20131 0.56508 -0.09900
C 	C 	0.79014 0.16224 0.56612 0.00800
H 	H 	0.77560 0.14350 0.57300 0.00400
C 	C 	0.82053 0.17329 0.58323 0.02100
C 	C 	0.83775 0.15929 0.61550 0.06500
C 	C 	0.82424 0.12944 0.63237 -0.12900
H 	H 	0.80390 0.11860 0.62350 0.07500
N 	N 	0.28527 0.31701 0.46194 -0.21100
N 	N 	0.31211 0.29322 0.46194 -0.18100
N 	N 	0.33377 0.29869 0.43492 -0.10000
C 	C 	0.29014 0.33776 0.43388 0.00800
H 	H 	0.27560 0.35650 0.42700 0.00500
C 	C 	0.32053 0.32671 0.41677 0.02100
C 	C 	0.33775 0.34071 0.38450 0.06500
C 	C 	0.32424 0.37056 0.36763 -0.12900
H 	H 	0.30390 0.38140 0.37650 0.07500
N 	N 	0.28527 0.81701 0.96194 -0.20600
N 	N 	0.31211 0.79322 0.96194 -0.17600
N 	N 	0.33377 0.79869 0.93492 -0.09800
C 	C 	0.29014 0.83776 0.93388 0.00900
H 	H 	0.27560 0.85650 0.92700 0.00800
C 	C 	0.32053 0.82671 0.91677 0.02300
C 	C 	0.33775 0.84071 0.88450 0.06700
C 	C 	0.32424 0.87056 0.86763 -0.12900
H 	H 	0.30390 0.88140 0.87650 0.07700
N 	N 	0.78527 0.31701 0.96194 -0.20600
N 	N 	0.81211 0.29322 0.96194 -0.17600
N 	N 	0.83377 0.29869 0.93492 -0.09800
C 	C 	0.79014 0.33776 0.93388 0.00900
H 	H 	0.77560 0.35650 0.92700 0.00700
C 	C 	0.82053 0.32671 0.91677 0.02200
C 	C 	0.83775 0.34071 0.88450 0.06700
C 	C 	0.82424 0.37056 0.86763 -0.12900
H 	H 	0.80390 0.38140 0.87650 0.07600
N 	N 	0.78527 0.81701 0.46194 -0.21100
N 	N 	0.81211 0.79322 0.46194 -0.18100
N 	N 	0.83377 0.79869 0.43492 -0.09900
C 	C 	0.79014 0.83776 0.43388 0.00900
H 	H 	0.77560 0.85650 0.42700 0.00600
C 	C 	0.82053 0.82671 0.41677 0.02200
C 	C 	0.83775 0.84071 0.38450 0.06600
C 	C 	0.82424 0.87056 0.36763 -0.12900
H 	H 	0.80390 0.88140 0.37650 0.07600
N 	N 	0.53806 0.71473 0.31701 -0.21100
N 	N 	0.53806 0.68789 0.29322 -0.18100
N 	N 	0.56508 0.66623 0.29869 -0.10000
C 	C 	0.56612 0.70986 0.33776 0.00800
H 	H 	0.57300 0.72440 0.35650 0.00500
C 	C 	0.58323 0.67947 0.32671 0.02100
C 	C 	0.61550 0.66225 0.34071 0.06500
C 	C 	0.63237 0.67576 0.37056 -0.12900
H 	H 	0.62350 0.69610 0.38140 0.07500
N 	N 	0.53806 0.21473 0.81701 -0.21100
N 	N 	0.53806 0.18789 0.79322 -0.18200
N 	N 	0.56508 0.16623 0.79869 -0.10000
C 	C 	0.56612 0.20986 0.83776 0.00800
H 	H 	0.57300 0.22440 0.85650 0.00600
C 	C 	0.58323 0.17947 0.82671 0.02100
C 	C 	0.61550 0.16225 0.84071 0.06500
C 	C 	0.63237 0.17576 0.87056 -0.12900
H 	H 	0.62350 0.19610 0.88140 0.07600
N 	N 	0.03806 0.71473 0.81701 -0.21300
N 	N 	0.03806 0.68789 0.79322 -0.18300
N 	N 	0.06508 0.66623 0.79869 -0.10100
C 	C 	0.06612 0.70986 0.83776 0.00700
H 	H 	0.07300 0.72440 0.85650 0.00500
C 	C 	0.08323 0.67947 0.82671 0.02100
C 	C 	0.11550 0.66225 0.84071 0.06500
C 	C 	0.13237 0.67576 0.87056 -0.12900
H 	H 	0.12350 0.69610 0.88140 0.07600
N 	N 	0.03806 0.21473 0.31701 -0.21300
N 	N 	0.03806 0.18789 0.29322 -0.18400
N 	N 	0.06508 0.16623 0.29869 -0.10100
C 	C 	0.06612 0.20986 0.33776 0.00700
H 	H 	0.07300 0.22440 0.35650 0.00400
C 	C 	0.08323 0.17947 0.32671 0.02000
C 	C 	0.11550 0.16225 0.34071 0.06300
C 	C 	0.13237 0.17576 0.37056 -0.12900
H 	H 	0.12350 0.19610 0.38140 0.07400
N 	N 	0.46194 0.71473 0.68299 -0.21200
N 	N 	0.46194 0.68789 0.70678 -0.18100
N 	N 	0.43492 0.66623 0.70131 -0.10000
C 	C 	0.43388 0.70986 0.66224 0.00800
H 	H 	0.42700 0.72440 0.64350 0.00500
C 	C 	0.41677 0.67947 0.67329 0.02100
C 	C 	0.38450 0.66225 0.65929 0.06500
C 	C 	0.36763 0.67576 0.62944 -0.12900
H 	H 	0.37650 0.69610 0.61860 0.07500
N 	N 	0.46194 0.21473 0.18299 -0.21200
N 	N 	0.46194 0.18789 0.20678 -0.18200
N 	N 	0.43492 0.16623 0.20131 -0.10000
C 	C 	0.43388 0.20986 0.16224 0.00800
H 	H 	0.42700 0.22440 0.14350 0.00400
C 	C 	0.41677 0.17947 0.17329 0.02100
C 	C 	0.38450 0.16225 0.15929 0.06400
C 	C 	0.36763 0.17576 0.12944 -0.12900
H 	H 	0.37650 0.19610 0.11860 0.07400
N 	N 	0.96194 0.71473 0.18299 -0.20600
N 	N 	0.96194 0.68789 0.20678 -0.17600
N 	N 	0.93492 0.66623 0.20131 -0.09800
C 	C 	0.93388 0.70986 0.16224 0.00900
H 	H 	0.92700 0.72440 0.14350 0.00600
C 	C 	0.91677 0.67947 0.17329 0.02200
C 	C 	0.88450 0.66225 0.15929 0.06500
C 	C 	0.86763 0.67576 0.12944 -0.12900
H 	H 	0.87650 0.69610 0.11860 0.07500
N 	N 	0.96194 0.21473 0.68299 -0.20600
N 	N 	0.96194 0.18789 0.70678 -0.17600
N 	N 	0.93492 0.16623 0.70131 -0.09900
C 	C 	0.93388 0.20986 0.66224 0.00900
H 	H 	0.92700 0.22440 0.64350 0.00700
C 	C 	0.91677 0.17947 0.67329 0.02200
C 	C 	0.88450 0.16225 0.65929 0.06500
C 	C 	0.86763 0.17576 0.62944 -0.12900
H 	H 	0.87650 0.19610 0.61860 0.07600
N 	N 	0.53806 0.28527 0.68299 -0.21200
N 	N 	0.53806 0.31211 0.70678 -0.18100
N 	N 	0.56508 0.33377 0.70131 -0.10000
C 	C 	0.56612 0.29014 0.66224 0.00800
H 	H 	0.57300 0.27560 0.64350 0.00500
C 	C 	0.58323 0.32053 0.67329 0.02100
C 	C 	0.61550 0.33775 0.65929 0.06500
C 	C 	0.63237 0.32424 0.62944 -0.12900
H 	H 	0.62350 0.30390 0.61860 0.07500
N 	N 	0.53806 0.78527 0.18299 -0.21200
N 	N 	0.53806 0.81211 0.20678 -0.18100
N 	N 	0.56508 0.83377 0.20131 -0.09900
C 	C 	0.56612 0.79014 0.16224 0.00800
H 	H 	0.57300 0.77560 0.14350 0.00400
C 	C 	0.58323 0.82053 0.17329 0.02100
C 	C 	0.61550 0.83775 0.15929 0.06500
C 	C 	0.63237 0.82424 0.12944 -0.12900
H 	H 	0.62350 0.80390 0.11860 0.07500
N 	N 	0.03806 0.28527 0.18299 -0.21400
N 	N 	0.03806 0.31211 0.20678 -0.18300
N 	N 	0.06508 0.33377 0.20131 -0.10100
C 	C 	0.06612 0.29014 0.16224 0.00700
H 	H 	0.07300 0.27560 0.14350 0.00300
C 	C 	0.08323 0.32053 0.17329 0.02000
C 	C 	0.11550 0.33775 0.15929 0.06300
C 	C 	0.13237 0.32424 0.12944 -0.12900
H 	H 	0.12350 0.30390 0.11860 0.07400
N 	N 	0.03806 0.78527 0.68299 -0.21300
N 	N 	0.03806 0.81211 0.70678 -0.18300
N 	N 	0.06508 0.83377 0.70131 -0.10000
C 	C 	0.06612 0.79014 0.66224 0.00700
H 	H 	0.07300 0.77560 0.64350 0.00400
C 	C 	0.08323 0.82053 0.67329 0.02000
C 	C 	0.11550 0.83775 0.65929 0.06500
C 	C 	0.13237 0.82424 0.62944 -0.12900
H 	H 	0.12350 0.80390 0.61860 0.07500
N 	N 	0.46194 0.28527 0.31701 -0.21100
N 	N 	0.46194 0.31211 0.29322 -0.18100
N 	N 	0.43492 0.33377 0.29869 -0.10000
C 	C 	0.43388 0.29014 0.33776 0.00800
H 	H 	0.42700 0.27560 0.35650 0.00500
C 	C 	0.41677 0.32053 0.32671 0.02100
C 	C 	0.38450 0.33775 0.34071 0.06500
C 	C 	0.36763 0.32424 0.37056 -0.12900
H 	H 	0.37650 0.30390 0.38140 0.07500
N 	N 	0.46194 0.78527 0.81701 -0.21100
N 	N 	0.46194 0.81211 0.79322 -0.18100
N 	N 	0.43492 0.83377 0.79869 -0.09900
C 	C 	0.43388 0.79014 0.83776 0.00900
H 	H 	0.42700 0.77560 0.85650 0.00600
C 	C 	0.41677 0.82053 0.82671 0.02200
C 	C 	0.38450 0.83775 0.84071 0.06600
C 	C 	0.36763 0.82424 0.87056 -0.12900
H 	H 	0.37650 0.80390 0.88140 0.07600
N 	N 	0.96194 0.28527 0.81701 -0.20600
N 	N 	0.96194 0.31211 0.79322 -0.17600
N 	N 	0.93492 0.33377 0.79869 -0.09800
C 	C 	0.93388 0.29014 0.83776 0.00900
H 	H 	0.92700 0.27560 0.85650 0.00800
C 	C 	0.91677 0.32053 0.82671 0.02300
C 	C 	0.88450 0.33775 0.84071 0.06700
C 	C 	0.86763 0.32424 0.87056 -0.12900
H 	H 	0.87650 0.30390 0.88140 0.07700
N 	N 	0.96194 0.78527 0.31701 -0.20600
N 	N 	0.96194 0.81211 0.29322 -0.17600
N 	N 	0.93492 0.83377 0.29869 -0.09800
C 	C 	0.93388 0.79014 0.33776 0.00900
H 	H 	0.92700 0.77560 0.35650 0.00700
C 	C 	0.91677 0.82053 0.32671 0.02200
C 	C 	0.88450 0.83775 0.34071 0.06700
C 	C 	0.86763 0.82424 0.37056 -0.12900
H 	H 	0.87650 0.80390 0.38140 0.07600
N 	N 	0.03806 0.81701 0.78527 -0.21300
N 	N 	0.03806 0.79322 0.81211 -0.18300
N 	N 	0.06508 0.79869 0.83377 -0.10000
C 	C 	0.06612 0.83776 0.79014 0.00800
H 	H 	0.07300 0.85650 0.77560 0.00500
C 	C 	0.08323 0.82671 0.82053 0.02100
C 	C 	0.11550 0.84071 0.83775 0.06500
C 	C 	0.13237 0.87056 0.82424 -0.12900
H 	H 	0.12350 0.88140 0.80390 0.07600
N 	N 	0.03806 0.31701 0.28527 -0.21300
N 	N 	0.03806 0.29322 0.31211 -0.18300
N 	N 	0.06508 0.29869 0.33377 -0.10100
C 	C 	0.06612 0.33776 0.29014 0.00700
H 	H 	0.07300 0.35650 0.27560 0.00400
C 	C 	0.08323 0.32671 0.32053 0.02000
C 	C 	0.11550 0.34071 0.33775 0.06400
C 	C 	0.13237 0.37056 0.32424 -0.12900
H 	H 	0.12350 0.38140 0.30390 0.07500
N 	N 	0.53806 0.81701 0.28527 -0.21100
N 	N 	0.53806 0.79322 0.31211 -0.18100
N 	N 	0.56508 0.79869 0.33377 -0.10000
C 	C 	0.56612 0.83776 0.29014 0.00800
H 	H 	0.57300 0.85650 0.27560 0.00600
C 	C 	0.58323 0.82671 0.32053 0.02100
C 	C 	0.61550 0.84071 0.33775 0.06600
C 	C 	0.63237 0.87056 0.32424 -0.12900
H 	H 	0.62350 0.88140 0.30390 0.07600
N 	N 	0.53806 0.31701 0.78527 -0.21100
N 	N 	0.53806 0.29322 0.81211 -0.18100
N 	N 	0.56508 0.29869 0.83377 -0.09900
C 	C 	0.56612 0.33776 0.79014 0.00800
H 	H 	0.57300 0.35650 0.77560 0.00500
C 	C 	0.58323 0.32671 0.82053 0.02100
C 	C 	0.61550 0.34071 0.83775 0.06600
C 	C 	0.63237 0.37056 0.82424 -0.12900
H 	H 	0.62350 0.38140 0.80390 0.07500
N 	N 	0.96194 0.18299 0.78527 -0.20600
N 	N 	0.96194 0.20678 0.81211 -0.17600
N 	N 	0.93492 0.20131 0.83377 -0.09800
C 	C 	0.93388 0.16224 0.79014 0.00900
H 	H 	0.92700 0.14350 0.77560 0.00600
C 	C 	0.91677 0.17329 0.82053 0.02200
C 	C 	0.88450 0.15929 0.83775 0.06600
C 	C 	0.86763 0.12944 0.82424 -0.12900
H 	H 	0.87650 0.11860 0.80390 0.07600
N 	N 	0.96194 0.68299 0.28527 -0.20600
N 	N 	0.96194 0.70678 0.31211 -0.17600
N 	N 	0.93492 0.70131 0.33377 -0.09800
C 	C 	0.93388 0.66224 0.29014 0.00900
H 	H 	0.92700 0.64350 0.27560 0.00700
C 	C 	0.91677 0.67329 0.32053 0.02200
C 	C 	0.88450 0.65929 0.33775 0.06600
C 	C 	0.86763 0.62944 0.32424 -0.12900
H 	H 	0.87650 0.61860 0.30390 0.07600
N 	N 	0.46194 0.18299 0.28527 -0.21200
N 	N 	0.46194 0.20678 0.31211 -0.18200
N 	N 	0.43492 0.20131 0.33377 -0.10000
C 	C 	0.43388 0.16224 0.29014 0.00800
H 	H 	0.42700 0.14350 0.27560 0.00400
C 	C 	0.41677 0.17329 0.32053 0.02100
C 	C 	0.38450 0.15929 0.33775 0.06400
C 	C 	0.36763 0.12944 0.32424 -0.12900
H 	H 	0.37650 0.11860 0.30390 0.07400
N 	N 	0.46194 0.68299 0.78527 -0.21100
N 	N 	0.46194 0.70678 0.81211 -0.18100
N 	N 	0.43492 0.70131 0.83377 -0.09900
C 	C 	0.43388 0.66224 0.79014 0.00800
H 	H 	0.42700 0.64350 0.77560 0.00500
C 	C 	0.41677 0.67329 0.82053 0.02100
C 	C 	0.38450 0.65929 0.83775 0.06600
C 	C 	0.36763 0.62944 0.82424 -0.12900
H 	H 	0.37650 0.61860 0.80390 0.07500
N 	N 	0.03806 0.18299 0.21473 -0.21400
N 	N 	0.03806 0.20678 0.18789 -0.18400
N 	N 	0.06508 0.20131 0.16623 -0.10200
C 	C 	0.06612 0.16224 0.20986 0.00700
H 	H 	0.07300 0.14350 0.22440 0.00300
C 	C 	0.08323 0.17329 0.17947 0.02000
C 	C 	0.11550 0.15929 0.16225 0.06300
C 	C 	0.13237 0.12944 0.17576 -0.12900
H 	H 	0.12350 0.11860 0.19610 0.07400
N 	N 	0.03806 0.68299 0.71473 -0.21300
N 	N 	0.03806 0.70678 0.68789 -0.18300
N 	N 	0.06508 0.70131 0.66623 -0.10100
C 	C 	0.06612 0.66224 0.70986 0.00700
H 	H 	0.07300 0.64350 0.72440 0.00400
C 	C 	0.08323 0.67329 0.67947 0.02000
C 	C 	0.11550 0.65929 0.66225 0.06400
C 	C 	0.13237 0.62944 0.67576 -0.12900
H 	H 	0.12350 0.61860 0.69610 0.07500
N 	N 	0.53806 0.18299 0.71473 -0.21200
N 	N 	0.53806 0.20678 0.68789 -0.18200
N 	N 	0.56508 0.20131 0.66623 -0.10000
C 	C 	0.56612 0.16224 0.70986 0.00800
H 	H 	0.57300 0.14350 0.72440 0.00400
C 	C 	0.58323 0.17329 0.67947 0.02100
C 	C 	0.61550 0.15929 0.66225 0.06400
C 	C 	0.63237 0.12944 0.67576 -0.12900
H 	H 	0.62350 0.11860 0.69610 0.07400
N 	N 	0.53806 0.68299 0.21473 -0.21200
N 	N 	0.53806 0.70678 0.18789 -0.18200
N 	N 	0.56508 0.70131 0.16623 -0.10000
C 	C 	0.56612 0.66224 0.20986 0.00800
H 	H 	0.57300 0.64350 0.22440 0.00500
C 	C 	0.58323 0.67329 0.17947 0.02100
C 	C 	0.61550 0.65929 0.16225 0.06400
C 	C 	0.63237 0.62944 0.17576 -0.12900
H 	H 	0.62350 0.61860 0.19610 0.07500
N 	N 	0.96194 0.81701 0.21473 -0.20600
N 	N 	0.96194 0.79322 0.18789 -0.17600
N 	N 	0.93492 0.79869 0.16623 -0.09900
C 	C 	0.93388 0.83776 0.20986 0.00900
H 	H 	0.92700 0.85650 0.22440 0.00800
C 	C 	0.91677 0.82671 0.17947 0.02200
C 	C 	0.88450 0.84071 0.16225 0.06600
C 	C 	0.86763 0.87056 0.17576 -0.12900
H 	H 	0.87650 0.88140 0.19610 0.07700
N 	N 	0.96194 0.31701 0.71473 -0.20600
N 	N 	0.96194 0.29322 0.68789 -0.17600
N 	N 	0.93492 0.29869 0.66623 -0.09800
C 	C 	0.93388 0.33776 0.70986 0.00900
H 	H 	0.92700 0.35650 0.72440 0.00700
C 	C 	0.91677 0.32671 0.67947 0.02200
C 	C 	0.88450 0.34071 0.66225 0.06600
C 	C 	0.86763 0.37056 0.67576 -0.12900
H 	H 	0.87650 0.38140 0.69610 0.07600
N 	N 	0.46194 0.81701 0.71473 -0.21100
N 	N 	0.46194 0.79322 0.68789 -0.18100
N 	N 	0.43492 0.79869 0.66623 -0.10000
C 	C 	0.43388 0.83776 0.70986 0.00800
H 	H 	0.42700 0.85650 0.72440 0.00600
C 	C 	0.41677 0.82671 0.67947 0.02100
C 	C 	0.38450 0.84071 0.66225 0.06600
C 	C 	0.36763 0.87056 0.67576 -0.12900
H 	H 	0.37650 0.88140 0.69610 0.07600
N 	N 	0.46194 0.31701 0.21473 -0.21200
N 	N 	0.46194 0.29322 0.18789 -0.18200
N 	N 	0.43492 0.29869 0.16623 -0.10000
C 	C 	0.43388 0.33776 0.20986 0.00800
H 	H 	0.42700 0.35650 0.22440 0.00500
C 	C 	0.41677 0.32671 0.17947 0.02100
C 	C 	0.38450 0.34071 0.16225 0.06400
C 	C 	0.36763 0.37056 0.17576 -0.12900
H 	H 	0.37650 0.38140 0.19610 0.07500
N 	N 	0.81701 0.21473 0.96194 -0.20600
N 	N 	0.79322 0.18789 0.96194 -0.17600
N 	N 	0.79869 0.16623 0.93492 -0.09900
C 	C 	0.83776 0.20986 0.93388 0.00900
H 	H 	0.85650 0.22440 0.92700 0.00800
C 	C 	0.82671 0.17947 0.91677 0.02200
C 	C 	0.84071 0.16225 0.88450 0.06600
C 	C 	0.87056 0.17576 0.86763 -0.12900
H 	H 	0.88140 0.19610 0.87650 0.07700
N 	N 	0.81701 0.71473 0.46194 -0.21100
N 	N 	0.79322 0.68789 0.46194 -0.18100
N 	N 	0.79869 0.66623 0.43492 -0.10000
C 	C 	0.83776 0.70986 0.43388 0.00800
H 	H 	0.85650 0.72440 0.42700 0.00600
C 	C 	0.82671 0.67947 0.41677 0.02100
C 	C 	0.84071 0.66225 0.38450 0.06600
C 	C 	0.87056 0.67576 0.36763 -0.12900
H 	H 	0.88140 0.69610 0.37650 0.07600
N 	N 	0.31701 0.21473 0.46194 -0.21200
N 	N 	0.29322 0.18789 0.46194 -0.18200
N 	N 	0.29869 0.16623 0.43492 -0.10000
C 	C 	0.33776 0.20986 0.43388 0.00800
H 	H 	0.35650 0.22440 0.42700 0.00500
C 	C 	0.32671 0.17947 0.41677 0.02100
C 	C 	0.34071 0.16225 0.38450 0.06400
C 	C 	0.37056 0.17576 0.36763 -0.12900
H 	H 	0.38140 0.19610 0.37650 0.07500
N 	N 	0.31701 0.71473 0.96194 -0.20600
N 	N 	0.29322 0.68789 0.96194 -0.17600
N 	N 	0.29869 0.66623 0.93492 -0.09800
C 	C 	0.33776 0.70986 0.93388 0.00900
H 	H 	0.35650 0.72440 0.92700 0.00700
C 	C 	0.32671 0.67947 0.91677 0.02200
C 	C 	0.34071 0.66225 0.88450 0.06600
C 	C 	0.37056 0.67576 0.86763 -0.12900
H 	H 	0.38140 0.69610 0.87650 0.07600
N 	N 	0.18299 0.21473 0.03806 -0.21400
N 	N 	0.20678 0.18789 0.03806 -0.18400
N 	N 	0.20131 0.16623 0.06508 -0.10200
C 	C 	0.16224 0.20986 0.06612 0.00700
H 	H 	0.14350 0.22440 0.07300 0.00300
C 	C 	0.17329 0.17947 0.08323 0.02000
C 	C 	0.15929 0.16225 0.11550 0.06300
C 	C 	0.12944 0.17576 0.13237 -0.12900
H 	H 	0.11860 0.19610 0.12350 0.07400
N 	N 	0.18299 0.71473 0.53806 -0.21200
N 	N 	0.20678 0.68789 0.53806 -0.18200
N 	N 	0.20131 0.66623 0.56508 -0.10000
C 	C 	0.16224 0.70986 0.56612 0.00800
H 	H 	0.14350 0.72440 0.57300 0.00400
C 	C 	0.17329 0.67947 0.58323 0.02100
C 	C 	0.15929 0.66225 0.61550 0.06400
C 	C 	0.12944 0.67576 0.63237 -0.12900
H 	H 	0.11860 0.69610 0.62350 0.07400
N 	N 	0.68299 0.21473 0.53806 -0.21200
N 	N 	0.70678 0.18789 0.53806 -0.18200
N 	N 	0.70131 0.16623 0.56508 -0.10000
C 	C 	0.66224 0.20986 0.56612 0.00800
H 	H 	0.64350 0.22440 0.57300 0.00500
C 	C 	0.67329 0.17947 0.58323 0.02100
C 	C 	0.65929 0.16225 0.61550 0.06400
C 	C 	0.62944 0.17576 0.63237 -0.12900
H 	H 	0.61860 0.19610 0.62350 0.07500
N 	N 	0.68299 0.71473 0.03806 -0.21300
N 	N 	0.70678 0.68789 0.03806 -0.18300
N 	N 	0.70131 0.66623 0.06508 -0.10100
C 	C 	0.66224 0.70986 0.06612 0.00700
H 	H 	0.64350 0.72440 0.07300 0.00400
C 	C 	0.67329 0.67947 0.08323 0.02000
C 	C 	0.65929 0.66225 0.11550 0.06400
C 	C 	0.62944 0.67576 0.13237 -0.12900
H 	H 	0.61860 0.69610 0.12350 0.07500
N 	N 	0.18299 0.78527 0.96194 -0.20600
N 	N 	0.20678 0.81211 0.96194 -0.17600
N 	N 	0.20131 0.83377 0.93492 -0.09800
C 	C 	0.16224 0.79014 0.93388 0.00900
H 	H 	0.14350 0.77560 0.92700 0.00600
C 	C 	0.17329 0.82053 0.91677 0.02200
C 	C 	0.15929 0.83775 0.88450 0.06600
C 	C 	0.12944 0.82424 0.86763 -0.12900
H 	H 	0.11860 0.80390 0.87650 0.07600
N 	N 	0.18299 0.28527 0.46194 -0.21200
N 	N 	0.20678 0.31211 0.46194 -0.18200
N 	N 	0.20131 0.33377 0.43492 -0.10000
C 	C 	0.16224 0.29014 0.43388 0.00800
H 	H 	0.14350 0.27560 0.42700 0.00400
C 	C 	0.17329 0.32053 0.41677 0.02100
C 	C 	0.15929 0.33775 0.38450 0.06400
C 	C 	0.12944 0.32424 0.36763 -0.12900
H 	H 	0.11860 0.30390 0.37650 0.07400
N 	N 	0.68299 0.78527 0.46194 -0.21100
N 	N 	0.70678 0.81211 0.46194 -0.18100
N 	N 	0.70131 0.83377 0.43492 -0.09900
C 	C 	0.66224 0.79014 0.43388 0.00800
H 	H 	0.64350 0.77560 0.42700 0.00500
C 	C 	0.67329 0.82053 0.41677 0.02100
C 	C 	0.65929 0.83775 0.38450 0.06600
C 	C 	0.62944 0.82424 0.36763 -0.12900
H 	H 	0.61860 0.80390 0.37650 0.07500
N 	N 	0.68299 0.28527 0.96194 -0.20600
N 	N 	0.70678 0.31211 0.96194 -0.17600
N 	N 	0.70131 0.33377 0.93492 -0.09800
C 	C 	0.66224 0.29014 0.93388 0.00900
H 	H 	0.64350 0.27560 0.92700 0.00700
C 	C 	0.67329 0.32053 0.91677 0.02200
C 	C 	0.65929 0.33775 0.88450 0.06600
C 	C 	0.62944 0.32424 0.86763 -0.12900
H 	H 	0.61860 0.30390 0.87650 0.07600
N 	N 	0.81701 0.78527 0.03806 -0.21300
N 	N 	0.79322 0.81211 0.03806 -0.18300
N 	N 	0.79869 0.83377 0.06508 -0.10000
C 	C 	0.83776 0.79014 0.06612 0.00800
H 	H 	0.85650 0.77560 0.07300 0.00500
C 	C 	0.82671 0.82053 0.08323 0.02100
C 	C 	0.84071 0.83775 0.11550 0.06500
C 	C 	0.87056 0.82424 0.13237 -0.12900
H 	H 	0.88140 0.80390 0.12350 0.07600
N 	N 	0.81701 0.28527 0.53806 -0.21100
N 	N 	0.79322 0.31211 0.53806 -0.18100
N 	N 	0.79869 0.33377 0.56508 -0.10000
C 	C 	0.83776 0.29014 0.56612 0.00800
H 	H 	0.85650 0.27560 0.57300 0.00600
C 	C 	0.82671 0.32053 0.58323 0.02100
C 	C 	0.84071 0.33775 0.61550 0.06600
C 	C 	0.87056 0.32424 0.63237 -0.12900
H 	H 	0.88140 0.30390 0.62350 0.07600
N 	N 	0.31701 0.78527 0.53806 -0.21100
N 	N 	0.29322 0.81211 0.53806 -0.18100
N 	N 	0.29869 0.83377 0.56508 -0.09900
C 	C 	0.33776 0.79014 0.56612 0.00800
H 	H 	0.35650 0.77560 0.57300 0.00500
C 	C 	0.32671 0.82053 0.58323 0.02100
C 	C 	0.34071 0.83775 0.61550 0.06600
C 	C 	0.37056 0.82424 0.63237 -0.12900
H 	H 	0.38140 0.80390 0.62350 0.07500
N 	N 	0.31701 0.28527 0.03806 -0.21300
N 	N 	0.29322 0.31211 0.03806 -0.18300
N 	N 	0.29869 0.33377 0.06508 -0.10100
C 	C 	0.33776 0.29014 0.06612 0.00700
H 	H 	0.35650 0.27560 0.07300 0.00400
C 	C 	0.32671 0.32053 0.08323 0.02000
C 	C 	0.34071 0.33775 0.11550 0.06400
C 	C 	0.37056 0.32424 0.13237 -0.12900
H 	H 	0.38140 0.30390 0.12350 0.07500
N 	N 	0.21473 0.03806 0.18299 -0.21400
N 	N 	0.18789 0.03806 0.20678 -0.18400
N 	N 	0.16623 0.06508 0.20131 -0.10200
C 	C 	0.20986 0.06612 0.16224 0.00700
H 	H 	0.22440 0.07300 0.14350 0.00300
C 	C 	0.17947 0.08323 0.17329 0.02000
C 	C 	0.16225 0.11550 0.15929 0.06300
C 	C 	0.17576 0.13237 0.12944 -0.12900
H 	H 	0.19610 0.12350 0.11860 0.07400
N 	N 	0.21473 0.53806 0.68299 -0.21200
N 	N 	0.18789 0.53806 0.70678 -0.18200
N 	N 	0.16623 0.56508 0.70131 -0.10000
C 	C 	0.20986 0.56612 0.66224 0.00800
H 	H 	0.22440 0.57300 0.64350 0.00500
C 	C 	0.17947 0.58323 0.67329 0.02100
C 	C 	0.16225 0.61550 0.65929 0.06400
C 	C 	0.17576 0.63237 0.62944 -0.12900
H 	H 	0.19610 0.62350 0.61860 0.07500
N 	N 	0.71473 0.03806 0.68299 -0.21300
N 	N 	0.68789 0.03806 0.70678 -0.18300
N 	N 	0.66623 0.06508 0.70131 -0.10100
C 	C 	0.70986 0.06612 0.66224 0.00700
H 	H 	0.72440 0.07300 0.64350 0.00400
C 	C 	0.67947 0.08323 0.67329 0.02000
C 	C 	0.66225 0.11550 0.65929 0.06400
C 	C 	0.67576 0.13237 0.62944 -0.12900
H 	H 	0.69610 0.12350 0.61860 0.07500
N 	N 	0.71473 0.53806 0.18299 -0.21200
N 	N 	0.68789 0.53806 0.20678 -0.18200
N 	N 	0.66623 0.56508 0.20131 -0.10000
C 	C 	0.70986 0.56612 0.16224 0.00800
H 	H 	0.72440 0.57300 0.14350 0.00400
C 	C 	0.67947 0.58323 0.17329 0.02100
C 	C 	0.66225 0.61550 0.15929 0.06400
C 	C 	0.67576 0.63237 0.12944 -0.12900
H 	H 	0.69610 0.62350 0.11860 0.07400
N 	N 	0.21473 0.96194 0.81701 -0.20600
N 	N 	0.18789 0.96194 0.79322 -0.17600
N 	N 	0.16623 0.93492 0.79869 -0.09900
C 	C 	0.20986 0.93388 0.83776 0.00900
H 	H 	0.22440 0.92700 0.85650 0.00800
C 	C 	0.17947 0.91677 0.82671 0.02200
C 	C 	0.16225 0.88450 0.84071 0.06600
C 	C 	0.17576 0.86763 0.87056 -0.12900
H 	H 	0.19610 0.87650 0.88140 0.07700
N 	N 	0.21473 0.46194 0.31701 -0.21200
N 	N 	0.18789 0.46194 0.29322 -0.18200
N 	N 	0.16623 0.43492 0.29869 -0.10000
C 	C 	0.20986 0.43388 0.33776 0.00800
H 	H 	0.22440 0.42700 0.35650 0.00500
C 	C 	0.17947 0.41677 0.32671 0.02100
C 	C 	0.16225 0.38450 0.34071 0.06400
C 	C 	0.17576 0.36763 0.37056 -0.12900
H 	H 	0.19610 0.37650 0.38140 0.07500
N 	N 	0.71473 0.96194 0.31701 -0.20600
N 	N 	0.68789 0.96194 0.29322 -0.17600
N 	N 	0.66623 0.93492 0.29869 -0.09800
C 	C 	0.70986 0.93388 0.33776 0.00900
H 	H 	0.72440 0.92700 0.35650 0.00700
C 	C 	0.67947 0.91677 0.32671 0.02200
C 	C 	0.66225 0.88450 0.34071 0.06600
C 	C 	0.67576 0.86763 0.37056 -0.12900
H 	H 	0.69610 0.87650 0.38140 0.07600
N 	N 	0.71473 0.46194 0.81701 -0.21100
N 	N 	0.68789 0.46194 0.79322 -0.18100
N 	N 	0.66623 0.43492 0.79869 -0.10000
C 	C 	0.70986 0.43388 0.83776 0.00800
H 	H 	0.72440 0.42700 0.85650 0.00600
C 	C 	0.67947 0.41677 0.82671 0.02100
C 	C 	0.66225 0.38450 0.84071 0.06600
C 	C 	0.67576 0.36763 0.87056 -0.12900
H 	H 	0.69610 0.37650 0.88140 0.07600
N 	N 	0.78527 0.03806 0.81701 -0.21300
N 	N 	0.81211 0.03806 0.79322 -0.18300
N 	N 	0.83377 0.06508 0.79869 -0.10000
C 	C 	0.79014 0.06612 0.83776 0.00800
H 	H 	0.77560 0.07300 0.85650 0.00500
C 	C 	0.82053 0.08323 0.82671 0.02100
C 	C 	0.83775 0.11550 0.84071 0.06500
C 	C 	0.82424 0.13237 0.87056 -0.12900
H 	H 	0.80390 0.12350 0.88140 0.07600
N 	N 	0.78527 0.53806 0.31701 -0.21100
N 	N 	0.81211 0.53806 0.29322 -0.18100
N 	N 	0.83377 0.56508 0.29869 -0.09900
C 	C 	0.79014 0.56612 0.33776 0.00800
H 	H 	0.77560 0.57300 0.35650 0.00500
C 	C 	0.82053 0.58323 0.32671 0.02100
C 	C 	0.83775 0.61550 0.34071 0.06600
C 	C 	0.82424 0.63237 0.37056 -0.12900
H 	H 	0.80390 0.62350 0.38140 0.07500
N 	N 	0.28527 0.03806 0.31701 -0.21300
N 	N 	0.31211 0.03806 0.29322 -0.18300
N 	N 	0.33377 0.06508 0.29869 -0.10100
C 	C 	0.29014 0.06612 0.33776 0.00700
H 	H 	0.27560 0.07300 0.35650 0.00400
C 	C 	0.32053 0.08323 0.32671 0.02000
C 	C 	0.33775 0.11550 0.34071 0.06400
C 	C 	0.32424 0.13237 0.37056 -0.12900
H 	H 	0.30390 0.12350 0.38140 0.07500
N 	N 	0.28527 0.53806 0.81701 -0.21100
N 	N 	0.31211 0.53806 0.79322 -0.18100
N 	N 	0.33377 0.56508 0.79869 -0.10000
C 	C 	0.29014 0.56612 0.83776 0.00800
H 	H 	0.27560 0.57300 0.85650 0.00600
C 	C 	0.32053 0.58323 0.82671 0.02100
C 	C 	0.33775 0.61550 0.84071 0.06600
C 	C 	0.32424 0.63237 0.87056 -0.12900
H 	H 	0.30390 0.62350 0.88140 0.07600
N 	N 	0.78527 0.96194 0.18299 -0.20600
N 	N 	0.81211 0.96194 0.20678 -0.17600
N 	N 	0.83377 0.93492 0.20131 -0.09800
C 	C 	0.79014 0.93388 0.16224 0.00900
H 	H 	0.77560 0.92700 0.14350 0.00600
C 	C 	0.82053 0.91677 0.17329 0.02200
C 	C 	0.83775 0.88450 0.15929 0.06600
C 	C 	0.82424 0.86763 0.12944 -0.12900
H 	H 	0.80390 0.87650 0.11860 0.07600
N 	N 	0.78527 0.46194 0.68299 -0.21100
N 	N 	0.81211 0.46194 0.70678 -0.18100
N 	N 	0.83377 0.43492 0.70131 -0.09900
C 	C 	0.79014 0.43388 0.66224 0.00800
H 	H 	0.77560 0.42700 0.64350 0.00500
C 	C 	0.82053 0.41677 0.67329 0.02100
C 	C 	0.83775 0.38450 0.65929 0.06600
C 	C 	0.82424 0.36763 0.62944 -0.12900
H 	H 	0.80390 0.37650 0.61860 0.07500
N 	N 	0.28527 0.96194 0.68299 -0.20600
N 	N 	0.31211 0.96194 0.70678 -0.17600
N 	N 	0.33377 0.93492 0.70131 -0.09800
C 	C 	0.29014 0.93388 0.66224 0.00900
H 	H 	0.27560 0.92700 0.64350 0.00700
C 	C 	0.32053 0.91677 0.67329 0.02200
C 	C 	0.33775 0.88450 0.65929 0.06600
C 	C 	0.32424 0.86763 0.62944 -0.12900
H 	H 	0.30390 0.87650 0.61860 0.07600
N 	N 	0.28527 0.46194 0.18299 -0.21200
N 	N 	0.31211 0.46194 0.20678 -0.18200
N 	N 	0.33377 0.43492 0.20131 -0.10000
C 	C 	0.29014 0.43388 0.16224 0.00800
H 	H 	0.27560 0.42700 0.14350 0.00400
C 	C 	0.32053 0.41677 0.17329 0.02100
C 	C 	0.33775 0.38450 0.15929 0.06400
C 	C 	0.32424 0.36763 0.12944 -0.12900
H 	H 	0.30390 0.37650 0.11860 0.07400
Co	Co	0.74601 0.50000 0.31708 1.10600
Co	Co	0.74601 -0.00000 0.81708 1.09900
Co	Co	0.24601 0.50000 0.81708 1.10600
Co	Co	0.24601 0.00000 0.31708 1.09900
Co	Co	0.25399 0.50000 0.31708 1.10600
Co	Co	0.25399 -0.00000 0.81708 1.09900
Co	Co	0.75399 0.50000 0.81708 1.10600
Co	Co	0.75399 0.00000 0.31708 1.09900
Co	Co	0.25399 0.50000 0.68292 1.10600
Co	Co	0.25399 -0.00000 0.18292 1.09900
Co	Co	0.75399 0.50000 0.18292 1.10500
Co	Co	0.75399 -0.00000 0.68292 1.09900
Co	Co	0.74601 0.50000 0.68292 1.10600
Co	Co	0.74601 -0.00000 0.18292 1.09900
Co	Co	0.24601 0.50000 0.18292 1.10500
Co	Co	0.24601 -0.00000 0.68292 1.09900
Co	Co	0.31708 0.74601 0.50000 1.10600
Co	Co	0.31708 0.24601 -0.00000 1.09900
Co	Co	0.81708 0.74601 -0.00000 1.09900
Co	Co	0.81708 0.24601 0.50000 1.10600
Co	Co	0.31708 0.25399 0.50000 1.10600
Co	Co	0.31708 0.75399 -0.00000 1.09900
Co	Co	0.81708 0.25399 -0.00000 1.09900
Co	Co	0.81708 0.75399 0.50000 1.10600
Co	Co	0.68292 0.25399 0.50000 1.10600
Co	Co	0.68292 0.75399 -0.00000 1.09900
Co	Co	0.18292 0.25399 -0.00000 1.09900
Co	Co	0.18292 0.75399 0.50000 1.10500
Co	Co	0.68292 0.74601 0.50000 1.10600
Co	Co	0.68292 0.24601 -0.00000 1.09900
Co	Co	0.18292 0.74601 -0.00000 1.09900
Co	Co	0.18292 0.24601 0.50000 1.10500
Co	Co	0.50000 0.31708 0.74601 1.10600
Co	Co	0.50000 0.81708 0.24601 1.10600
Co	Co	0.00000 0.31708 0.24601 1.09900
Co	Co	-0.00000 0.81708 0.74601 1.09900
Co	Co	0.50000 0.31708 0.25399 1.10600
Co	Co	0.50000 0.81708 0.75399 1.10600
Co	Co	-0.00000 0.31708 0.75399 1.09900
Co	Co	-0.00000 0.81708 0.25399 1.09900
Co	Co	0.50000 0.68292 0.25399 1.10600
Co	Co	0.50000 0.18292 0.75399 1.10500
Co	Co	0.00000 0.68292 0.75399 1.09900
Co	Co	0.00000 0.18292 0.25399 1.09900
Co	Co	0.50000 0.68292 0.74601 1.10600
Co	Co	0.50000 0.18292 0.24601 1.10500
Co	Co	0.00000 0.68292 0.24601 1.09900
Co	Co	0.00000 0.18292 0.74601 1.09900
Co	Co	0.00000 0.24601 0.18292 1.09900
Co	Co	0.00000 0.74601 0.68292 1.09900
Co	Co	0.50000 0.24601 0.68292 1.10500
Co	Co	0.50000 0.74601 0.18292 1.10500
Co	Co	0.00000 0.75399 0.18292 1.09900
Co	Co	-0.00000 0.25399 0.68292 1.09900
Co	Co	0.50000 0.75399 0.68292 1.10600
Co	Co	0.50000 0.25399 0.18292 1.10500
Co	Co	-0.00000 0.75399 0.81708 1.09900
Co	Co	0.00000 0.25399 0.31708 1.09900
Co	Co	0.50000 0.75399 0.31708 1.10600
Co	Co	0.50000 0.25399 0.81708 1.10600
Co	Co	0.00000 0.24601 0.81708 1.09900
Co	Co	0.00000 0.74601 0.31708 1.09900
Co	Co	0.50000 0.24601 0.31708 1.10600
Co	Co	0.50000 0.74601 0.81708 1.10600
Co	Co	0.24601 0.81708 -0.00000 1.09900
Co	Co	0.24601 0.31708 0.50000 1.10600
Co	Co	0.74601 0.81708 0.50000 1.10600
Co	Co	0.74601 0.31708 -0.00000 1.09900
Co	Co	0.75399 0.81708 -0.00000 1.09900
Co	Co	0.75399 0.31708 0.50000 1.10600
Co	Co	0.25399 0.81708 0.50000 1.10600
Co	Co	0.25399 0.31708 -0.00000 1.09900
Co	Co	0.75399 0.18292 -0.00000 1.09900
Co	Co	0.75399 0.68292 0.50000 1.10600
Co	Co	0.25399 0.18292 0.50000 1.10500
Co	Co	0.25399 0.68292 -0.00000 1.09900
Co	Co	0.24601 0.18292 -0.00000 1.09900
Co	Co	0.24601 0.68292 0.50000 1.10500
Co	Co	0.74601 0.18292 0.50000 1.10500
Co	Co	0.74601 0.68292 -0.00000 1.09900
Co	Co	0.81708 0.00000 0.75399 1.09900
Co	Co	0.81708 0.50000 0.25399 1.10600
Co	Co	0.31708 -0.00000 0.25399 1.09900
Co	Co	0.31708 0.50000 0.75399 1.10600
Co	Co	0.81708 -0.00000 0.24601 1.09900
Co	Co	0.81708 0.50000 0.74601 1.10600
Co	Co	0.31708 0.00000 0.74601 1.09900
Co	Co	0.31708 0.50000 0.24601 1.10600
Co	Co	0.18292 -0.00000 0.24601 1.09900
Co	Co	0.18292 0.50000 0.74601 1.10500
Co	Co	0.68292 0.00000 0.74601 1.09900
Co	Co	0.68292 0.50000 0.24601 1.10500
Co	Co	0.18292 0.00000 0.75399 1.09900
Co	Co	0.18292 0.50000 0.25399 1.10500
Co	Co	0.68292 -0.00000 0.25399 1.09900
Co	Co	0.68292 0.50000 0.75399 1.10600
Cl	Cl	0.75000 0.50000 0.25000 -0.84100
Cl	Cl	0.25000 0.50000 0.25000 -0.84100
Cl	Cl	0.25000 0.50000 0.75000 -0.84100
Cl	Cl	0.75000 0.50000 0.75000 -0.84100
Cl	Cl	0.25000 0.75000 0.50000 -0.84100
Cl	Cl	0.25000 0.25000 0.50000 -0.84100
Cl	Cl	0.75000 0.25000 0.50000 -0.84100
Cl	Cl	0.75000 0.75000 0.50000 -0.84100
Cl	Cl	0.50000 0.25000 0.75000 -0.84100
Cl	Cl	0.50000 0.25000 0.25000 -0.84100
Cl	Cl	0.50000 0.75000 0.25000 -0.84100
Cl	Cl	0.50000 0.75000 0.75000 -0.84100
Cl	Cl	-0.00000 0.25000 0.25000 -0.85200
Cl	Cl	-0.00000 0.75000 0.25000 -0.85200
Cl	Cl	0.00000 0.75000 0.75000 -0.85200
Cl	Cl	-0.00000 0.25000 0.75000 -0.85200
Cl	Cl	0.25000 0.75000 -0.00000 -0.85200
Cl	Cl	0.75000 0.75000 -0.00000 -0.85200
Cl	Cl	0.75000 0.25000 -0.00000 -0.85200
Cl	Cl	0.25000 0.25000 -0.00000 -0.85200
Cl	Cl	0.75000 0.00000 0.75000 -0.85200
Cl	Cl	0.75000 0.00000 0.25000 -0.85200
Cl	Cl	0.25000 0.00000 0.25000 -0.85200
Cl	Cl	0.25000 0.00000 0.75000 -0.85200
