data_crystal

_cell_length_a 37.41390
_cell_length_b 37.41390
_cell_length_c 37.41390
_cell_angle_alpha 90.00000
_cell_angle_beta  90.00000
_cell_angle_gamma 90.00000

_symmetry_space_group_name_	'P 1'
_symmetry_space_group_name_H-M	'P 1'

loop_
_symmetry_equiv_pos_as_xyz
  x,y,z

loop_
_atom_site_label
_atom_site_type_symbol
_atom_site_fract_x
_atom_site_fract_y
_atom_site_fract_z
_atom_site_charge
N 	N 	0.53736 0.31172 0.29232 -0.18700
N 	N 	0.53752 0.28479 0.31631 -0.21500
N 	N 	0.56476 0.33353 0.29778 -0.10100
C 	C 	0.58313 0.32014 0.32616 0.02600
C 	C 	0.56580 0.28973 0.33755 0.00400
H 	H 	0.57270 0.27490 0.35700 0.00600
C 	C 	0.61540 0.33744 0.34016 0.05000
C 	C 	0.62962 0.36758 0.32359 -0.11100
H 	H 	0.61860 0.37670 0.30260 0.06700
N 	N 	0.53736 0.81172 0.79232 -0.18700
N 	N 	0.53752 0.78479 0.81631 -0.21400
N 	N 	0.56476 0.83353 0.79778 -0.10000
C 	C 	0.58313 0.82014 0.82616 0.02700
C 	C 	0.56580 0.78973 0.83755 0.00500
H 	H 	0.57270 0.77490 0.85700 0.00700
C 	C 	0.61540 0.83744 0.84016 0.05100
C 	C 	0.62962 0.86758 0.82359 -0.11100
H 	H 	0.61860 0.87670 0.80260 0.06800
N 	N 	0.03736 0.31172 0.79232 -0.18900
N 	N 	0.03752 0.28479 0.81631 -0.21600
N 	N 	0.06476 0.33353 0.79778 -0.10200
C 	C 	0.08313 0.32014 0.82616 0.02600
C 	C 	0.06580 0.28973 0.83755 0.00400
H 	H 	0.07270 0.27490 0.85700 0.00500
C 	C 	0.11540 0.33744 0.84016 0.05000
C 	C 	0.12962 0.36758 0.82359 -0.11100
H 	H 	0.11860 0.37670 0.80260 0.06600
N 	N 	0.03736 0.81172 0.29232 -0.18900
N 	N 	0.03752 0.78479 0.31631 -0.21700
N 	N 	0.06476 0.83353 0.29778 -0.10100
C 	C 	0.08313 0.82014 0.32616 0.02500
C 	C 	0.06580 0.78973 0.33755 0.00400
H 	H 	0.07270 0.77490 0.35700 0.00500
C 	C 	0.11540 0.83744 0.34016 0.05000
C 	C 	0.12962 0.86758 0.32359 -0.11100
H 	H 	0.11860 0.87670 0.30260 0.06700
N 	N 	0.46264 0.68828 0.29232 -0.18700
N 	N 	0.46248 0.71521 0.31631 -0.21500
N 	N 	0.43524 0.66647 0.29778 -0.10100
C 	C 	0.41687 0.67986 0.32616 0.02600
C 	C 	0.43420 0.71027 0.33755 0.00400
H 	H 	0.42730 0.72510 0.35700 0.00600
C 	C 	0.38460 0.66256 0.34016 0.05000
C 	C 	0.37038 0.63242 0.32359 -0.11100
H 	H 	0.38140 0.62330 0.30260 0.06700
N 	N 	0.46264 0.18828 0.79232 -0.18700
N 	N 	0.46248 0.21521 0.81631 -0.21400
N 	N 	0.43524 0.16647 0.79778 -0.10100
C 	C 	0.41687 0.17986 0.82616 0.02600
C 	C 	0.43420 0.21027 0.83755 0.00400
H 	H 	0.42730 0.22510 0.85700 0.00700
C 	C 	0.38460 0.16256 0.84016 0.05000
C 	C 	0.37038 0.13242 0.82359 -0.11100
H 	H 	0.38140 0.12330 0.80260 0.06600
N 	N 	0.96264 0.68828 0.79232 -0.18100
N 	N 	0.96248 0.71521 0.81631 -0.20800
N 	N 	0.93524 0.66647 0.79778 -0.09900
C 	C 	0.91687 0.67986 0.82616 0.02800
C 	C 	0.93420 0.71027 0.83755 0.00600
H 	H 	0.92730 0.72510 0.85700 0.00900
C 	C 	0.88460 0.66256 0.84016 0.05200
C 	C 	0.87038 0.63242 0.82359 -0.11100
H 	H 	0.88140 0.62330 0.80260 0.06800
N 	N 	0.96264 0.18828 0.29232 -0.18100
N 	N 	0.96248 0.21521 0.31631 -0.20900
N 	N 	0.93524 0.16647 0.29778 -0.10000
C 	C 	0.91687 0.17986 0.32616 0.02700
C 	C 	0.93420 0.21027 0.33755 0.00500
H 	H 	0.92730 0.22510 0.35700 0.00800
C 	C 	0.88460 0.16256 0.34016 0.05100
C 	C 	0.87038 0.13242 0.32359 -0.11100
H 	H 	0.88140 0.12330 0.30260 0.06700
N 	N 	0.46264 0.31172 0.70768 -0.18700
N 	N 	0.46248 0.28479 0.68369 -0.21500
N 	N 	0.43524 0.33353 0.70222 -0.10100
C 	C 	0.41687 0.32014 0.67384 0.02600
C 	C 	0.43420 0.28973 0.66245 0.00400
H 	H 	0.42730 0.27490 0.64300 0.00600
C 	C 	0.38460 0.33744 0.65984 0.05000
C 	C 	0.37038 0.36758 0.67641 -0.11100
H 	H 	0.38140 0.37670 0.69740 0.06700
N 	N 	0.46264 0.81172 0.20768 -0.18700
N 	N 	0.46248 0.78479 0.18369 -0.21500
N 	N 	0.43524 0.83353 0.20222 -0.10000
C 	C 	0.41687 0.82014 0.17384 0.02700
C 	C 	0.43420 0.78973 0.16245 0.00500
H 	H 	0.42730 0.77490 0.14300 0.00600
C 	C 	0.38460 0.83744 0.15984 0.05100
C 	C 	0.37038 0.86758 0.17641 -0.11000
H 	H 	0.38140 0.87670 0.19740 0.06800
N 	N 	0.96264 0.31172 0.20768 -0.18000
N 	N 	0.96248 0.28479 0.18369 -0.20800
N 	N 	0.93524 0.33353 0.20222 -0.09800
C 	C 	0.91687 0.32014 0.17384 0.02800
C 	C 	0.93420 0.28973 0.16245 0.00600
H 	H 	0.92730 0.27490 0.14300 0.00800
C 	C 	0.88460 0.33744 0.15984 0.05200
C 	C 	0.87038 0.36758 0.17641 -0.11000
H 	H 	0.88140 0.37670 0.19740 0.06800
N 	N 	0.96264 0.81172 0.70768 -0.18000
N 	N 	0.96248 0.78479 0.68369 -0.20800
N 	N 	0.93524 0.83353 0.70222 -0.09700
C 	C 	0.91687 0.82014 0.67384 0.02800
C 	C 	0.93420 0.78973 0.66245 0.00700
H 	H 	0.92730 0.77490 0.64300 0.00900
C 	C 	0.88460 0.83744 0.65984 0.05300
C 	C 	0.87038 0.86758 0.67641 -0.11000
H 	H 	0.88140 0.87670 0.69740 0.06900
N 	N 	0.53736 0.68828 0.70768 -0.18600
N 	N 	0.53752 0.71521 0.68369 -0.21400
N 	N 	0.56476 0.66647 0.70222 -0.10000
C 	C 	0.58313 0.67986 0.67384 0.02700
C 	C 	0.56580 0.71027 0.66245 0.00500
H 	H 	0.57270 0.72510 0.64300 0.00700
C 	C 	0.61540 0.66256 0.65984 0.05100
C 	C 	0.62962 0.63242 0.67641 -0.11100
H 	H 	0.61860 0.62330 0.69740 0.06800
N 	N 	0.53736 0.18828 0.20768 -0.18600
N 	N 	0.53752 0.21521 0.18369 -0.21400
N 	N 	0.56476 0.16647 0.20222 -0.10000
C 	C 	0.58313 0.17986 0.17384 0.02600
C 	C 	0.56580 0.21027 0.16245 0.00500
H 	H 	0.57270 0.22510 0.14300 0.00600
C 	C 	0.61540 0.16256 0.15984 0.05000
C 	C 	0.62962 0.13242 0.17641 -0.11000
H 	H 	0.61860 0.12330 0.19740 0.06700
N 	N 	0.03736 0.68828 0.20768 -0.18800
N 	N 	0.03752 0.71521 0.18369 -0.21600
N 	N 	0.06476 0.66647 0.20222 -0.10100
C 	C 	0.08313 0.67986 0.17384 0.02600
C 	C 	0.06580 0.71027 0.16245 0.00400
H 	H 	0.07270 0.72510 0.14300 0.00500
C 	C 	0.11540 0.66256 0.15984 0.05000
C 	C 	0.12962 0.63242 0.17641 -0.11000
H 	H 	0.11860 0.62330 0.19740 0.06700
N 	N 	0.03736 0.18828 0.70768 -0.18800
N 	N 	0.03752 0.21521 0.68369 -0.21600
N 	N 	0.06476 0.16647 0.70222 -0.10100
C 	C 	0.08313 0.17986 0.67384 0.02600
C 	C 	0.06580 0.21027 0.66245 0.00400
H 	H 	0.07270 0.22510 0.64300 0.00500
C 	C 	0.11540 0.16256 0.65984 0.05000
C 	C 	0.12962 0.13242 0.67641 -0.11100
H 	H 	0.11860 0.12330 0.69740 0.06600
N 	N 	0.29232 0.53736 0.31172 -0.18600
N 	N 	0.31631 0.53752 0.28479 -0.21400
N 	N 	0.29778 0.56476 0.33353 -0.10000
C 	C 	0.32616 0.58313 0.32014 0.02700
C 	C 	0.33755 0.56580 0.28973 0.00500
H 	H 	0.35700 0.57270 0.27490 0.00700
C 	C 	0.34016 0.61540 0.33744 0.05100
C 	C 	0.32359 0.62962 0.36758 -0.11000
H 	H 	0.30260 0.61860 0.37670 0.06800
N 	N 	0.29232 0.03736 0.81172 -0.18800
N 	N 	0.31631 0.03752 0.78479 -0.21600
N 	N 	0.29778 0.06476 0.83353 -0.10000
C 	C 	0.32616 0.08313 0.82014 0.02600
C 	C 	0.33755 0.06580 0.78973 0.00500
H 	H 	0.35700 0.07270 0.77490 0.00600
C 	C 	0.34016 0.11540 0.83744 0.05100
C 	C 	0.32359 0.12962 0.86758 -0.11000
H 	H 	0.30260 0.11860 0.87670 0.06800
N 	N 	0.79232 0.53736 0.81172 -0.18600
N 	N 	0.81631 0.53752 0.78479 -0.21300
N 	N 	0.79778 0.56476 0.83353 -0.09900
C 	C 	0.82616 0.58313 0.82014 0.02800
C 	C 	0.83755 0.56580 0.78973 0.00600
H 	H 	0.85700 0.57270 0.77490 0.00800
C 	C 	0.84016 0.61540 0.83744 0.05200
C 	C 	0.82359 0.62962 0.86758 -0.11000
H 	H 	0.80260 0.61860 0.87670 0.06900
N 	N 	0.79232 0.03736 0.31172 -0.18800
N 	N 	0.81631 0.03752 0.28479 -0.21500
N 	N 	0.79778 0.06476 0.33353 -0.10100
C 	C 	0.82616 0.08313 0.32014 0.02700
C 	C 	0.83755 0.06580 0.28973 0.00500
H 	H 	0.85700 0.07270 0.27490 0.00600
C 	C 	0.84016 0.11540 0.33744 0.05100
C 	C 	0.82359 0.12962 0.36758 -0.11000
H 	H 	0.80260 0.11860 0.37670 0.06700
N 	N 	0.29232 0.46264 0.68828 -0.18600
N 	N 	0.31631 0.46248 0.71521 -0.21400
N 	N 	0.29778 0.43524 0.66647 -0.10000
C 	C 	0.32616 0.41687 0.67986 0.02700
C 	C 	0.33755 0.43420 0.71027 0.00500
H 	H 	0.35700 0.42730 0.72510 0.00700
C 	C 	0.34016 0.38460 0.66256 0.05100
C 	C 	0.32359 0.37038 0.63242 -0.11000
H 	H 	0.30260 0.38140 0.62330 0.06800
N 	N 	0.29232 0.96264 0.18828 -0.18000
N 	N 	0.31631 0.96248 0.21521 -0.20800
N 	N 	0.29778 0.93524 0.16647 -0.09900
C 	C 	0.32616 0.91687 0.17986 0.02800
C 	C 	0.33755 0.93420 0.21027 0.00600
H 	H 	0.35700 0.92730 0.22510 0.00900
C 	C 	0.34016 0.88460 0.16256 0.05200
C 	C 	0.32359 0.87038 0.13242 -0.11000
H 	H 	0.30260 0.88140 0.12330 0.06800
N 	N 	0.79232 0.46264 0.18828 -0.18600
N 	N 	0.81631 0.46248 0.21521 -0.21300
N 	N 	0.79778 0.43524 0.16647 -0.10000
C 	C 	0.82616 0.41687 0.17986 0.02700
C 	C 	0.83755 0.43420 0.21027 0.00500
H 	H 	0.85700 0.42730 0.22510 0.00800
C 	C 	0.84016 0.38460 0.16256 0.05100
C 	C 	0.82359 0.37038 0.13242 -0.11000
H 	H 	0.80260 0.38140 0.12330 0.06700
N 	N 	0.79232 0.96264 0.68828 -0.18000
N 	N 	0.81631 0.96248 0.71521 -0.20700
N 	N 	0.79778 0.93524 0.66647 -0.09800
C 	C 	0.82616 0.91687 0.67986 0.02900
C 	C 	0.83755 0.93420 0.71027 0.00700
H 	H 	0.85700 0.92730 0.72510 0.01000
C 	C 	0.84016 0.88460 0.66256 0.05300
C 	C 	0.82359 0.87038 0.63242 -0.11000
H 	H 	0.80260 0.88140 0.62330 0.06900
N 	N 	0.70768 0.46264 0.31172 -0.18600
N 	N 	0.68369 0.46248 0.28479 -0.21400
N 	N 	0.70222 0.43524 0.33353 -0.10000
C 	C 	0.67384 0.41687 0.32014 0.02700
C 	C 	0.66245 0.43420 0.28973 0.00500
H 	H 	0.64300 0.42730 0.27490 0.00700
C 	C 	0.65984 0.38460 0.33744 0.05100
C 	C 	0.67641 0.37038 0.36758 -0.11000
H 	H 	0.69740 0.38140 0.37670 0.06800
N 	N 	0.70768 0.96264 0.81172 -0.18000
N 	N 	0.68369 0.96248 0.78479 -0.20800
N 	N 	0.70222 0.93524 0.83353 -0.09700
C 	C 	0.67384 0.91687 0.82014 0.02800
C 	C 	0.66245 0.93420 0.78973 0.00700
H 	H 	0.64300 0.92730 0.77490 0.00900
C 	C 	0.65984 0.88460 0.83744 0.05300
C 	C 	0.67641 0.87038 0.86758 -0.11000
H 	H 	0.69740 0.88140 0.87670 0.06900
N 	N 	0.20768 0.46264 0.81172 -0.18600
N 	N 	0.18369 0.46248 0.78479 -0.21400
N 	N 	0.20222 0.43524 0.83353 -0.09900
C 	C 	0.17384 0.41687 0.82014 0.02700
C 	C 	0.16245 0.43420 0.78973 0.00500
H 	H 	0.14300 0.42730 0.77490 0.00600
C 	C 	0.15984 0.38460 0.83744 0.05100
C 	C 	0.17641 0.37038 0.86758 -0.11000
H 	H 	0.19740 0.38140 0.87670 0.06800
N 	N 	0.20768 0.96264 0.31172 -0.18000
N 	N 	0.18369 0.96248 0.28479 -0.20800
N 	N 	0.20222 0.93524 0.33353 -0.09800
C 	C 	0.17384 0.91687 0.32014 0.02800
C 	C 	0.16245 0.93420 0.28973 0.00600
H 	H 	0.14300 0.92730 0.27490 0.00800
C 	C 	0.15984 0.88460 0.33744 0.05200
C 	C 	0.17641 0.87038 0.36758 -0.11000
H 	H 	0.19740 0.88140 0.37670 0.06800
N 	N 	0.70768 0.53736 0.68828 -0.18600
N 	N 	0.68369 0.53752 0.71521 -0.21400
N 	N 	0.70222 0.56476 0.66647 -0.10000
C 	C 	0.67384 0.58313 0.67986 0.02700
C 	C 	0.66245 0.56580 0.71027 0.00500
H 	H 	0.64300 0.57270 0.72510 0.00700
C 	C 	0.65984 0.61540 0.66256 0.05100
C 	C 	0.67641 0.62962 0.63242 -0.11100
H 	H 	0.69740 0.61860 0.62330 0.06800
N 	N 	0.70768 0.03736 0.18828 -0.18800
N 	N 	0.68369 0.03752 0.21521 -0.21600
N 	N 	0.70222 0.06476 0.16647 -0.10100
C 	C 	0.67384 0.08313 0.17986 0.02600
C 	C 	0.66245 0.06580 0.21027 0.00400
H 	H 	0.64300 0.07270 0.22510 0.00500
C 	C 	0.65984 0.11540 0.16256 0.05000
C 	C 	0.67641 0.12962 0.13242 -0.11100
H 	H 	0.69740 0.11860 0.12330 0.06600
N 	N 	0.20768 0.53736 0.18828 -0.18600
N 	N 	0.18369 0.53752 0.21521 -0.21400
N 	N 	0.20222 0.56476 0.16647 -0.10000
C 	C 	0.17384 0.58313 0.17986 0.02600
C 	C 	0.16245 0.56580 0.21027 0.00500
H 	H 	0.14300 0.57270 0.22510 0.00600
C 	C 	0.15984 0.61540 0.16256 0.05000
C 	C 	0.17641 0.62962 0.13242 -0.11000
H 	H 	0.19740 0.61860 0.12330 0.06700
N 	N 	0.20768 0.03736 0.68828 -0.18800
N 	N 	0.18369 0.03752 0.71521 -0.21600
N 	N 	0.20222 0.06476 0.66647 -0.10100
C 	C 	0.17384 0.08313 0.67986 0.02600
C 	C 	0.16245 0.06580 0.71027 0.00400
H 	H 	0.14300 0.07270 0.72510 0.00500
C 	C 	0.15984 0.11540 0.66256 0.05000
C 	C 	0.17641 0.12962 0.63242 -0.11000
H 	H 	0.19740 0.11860 0.62330 0.06700
N 	N 	0.31172 0.29232 0.53736 -0.18600
N 	N 	0.28479 0.31631 0.53752 -0.21400
N 	N 	0.33353 0.29778 0.56476 -0.10000
C 	C 	0.32014 0.32616 0.58313 0.02700
C 	C 	0.28973 0.33755 0.56580 0.00500
H 	H 	0.27490 0.35700 0.57270 0.00700
C 	C 	0.33744 0.34016 0.61540 0.05100
C 	C 	0.36758 0.32359 0.62962 -0.11000
H 	H 	0.37670 0.30260 0.61860 0.06800
N 	N 	0.31172 0.79232 0.03736 -0.18800
N 	N 	0.28479 0.81631 0.03752 -0.21500
N 	N 	0.33353 0.79778 0.06476 -0.10100
C 	C 	0.32014 0.82616 0.08313 0.02700
C 	C 	0.28973 0.83755 0.06580 0.00500
H 	H 	0.27490 0.85700 0.07270 0.00600
C 	C 	0.33744 0.84016 0.11540 0.05100
C 	C 	0.36758 0.82359 0.12962 -0.11000
H 	H 	0.37670 0.80260 0.11860 0.06700
N 	N 	0.81172 0.29232 0.03736 -0.18800
N 	N 	0.78479 0.31631 0.03752 -0.21600
N 	N 	0.83353 0.29778 0.06476 -0.10000
C 	C 	0.82014 0.32616 0.08313 0.02600
C 	C 	0.78973 0.33755 0.06580 0.00500
H 	H 	0.77490 0.35700 0.07270 0.00600
C 	C 	0.83744 0.34016 0.11540 0.05100
C 	C 	0.86758 0.32359 0.12962 -0.11000
H 	H 	0.87670 0.30260 0.11860 0.06800
N 	N 	0.81172 0.79232 0.53736 -0.18600
N 	N 	0.78479 0.81631 0.53752 -0.21300
N 	N 	0.83353 0.79778 0.56476 -0.09900
C 	C 	0.82014 0.82616 0.58313 0.02800
C 	C 	0.78973 0.83755 0.56580 0.00600
H 	H 	0.77490 0.85700 0.57270 0.00800
C 	C 	0.83744 0.84016 0.61540 0.05200
C 	C 	0.86758 0.82359 0.62962 -0.11000
H 	H 	0.87670 0.80260 0.61860 0.06900
N 	N 	0.68828 0.29232 0.46264 -0.18600
N 	N 	0.71521 0.31631 0.46248 -0.21400
N 	N 	0.66647 0.29778 0.43524 -0.10000
C 	C 	0.67986 0.32616 0.41687 0.02700
C 	C 	0.71027 0.33755 0.43420 0.00500
H 	H 	0.72510 0.35700 0.42730 0.00700
C 	C 	0.66256 0.34016 0.38460 0.05100
C 	C 	0.63242 0.32359 0.37038 -0.11000
H 	H 	0.62330 0.30260 0.38140 0.06800
N 	N 	0.68828 0.79232 0.96264 -0.18000
N 	N 	0.71521 0.81631 0.96248 -0.20700
N 	N 	0.66647 0.79778 0.93524 -0.09800
C 	C 	0.67986 0.82616 0.91687 0.02900
C 	C 	0.71027 0.83755 0.93420 0.00700
H 	H 	0.72510 0.85700 0.92730 0.01000
C 	C 	0.66256 0.84016 0.88460 0.05300
C 	C 	0.63242 0.82359 0.87038 -0.11000
H 	H 	0.62330 0.80260 0.88140 0.06900
N 	N 	0.18828 0.29232 0.96264 -0.18000
N 	N 	0.21521 0.31631 0.96248 -0.20800
N 	N 	0.16647 0.29778 0.93524 -0.09900
C 	C 	0.17986 0.32616 0.91687 0.02800
C 	C 	0.21027 0.33755 0.93420 0.00600
H 	H 	0.22510 0.35700 0.92730 0.00900
C 	C 	0.16256 0.34016 0.88460 0.05200
C 	C 	0.13242 0.32359 0.87038 -0.11000
H 	H 	0.12330 0.30260 0.88140 0.06800
N 	N 	0.18828 0.79232 0.46264 -0.18600
N 	N 	0.21521 0.81631 0.46248 -0.21300
N 	N 	0.16647 0.79778 0.43524 -0.10000
C 	C 	0.17986 0.82616 0.41687 0.02700
C 	C 	0.21027 0.83755 0.43420 0.00500
H 	H 	0.22510 0.85700 0.42730 0.00800
C 	C 	0.16256 0.84016 0.38460 0.05100
C 	C 	0.13242 0.82359 0.37038 -0.11000
H 	H 	0.12330 0.80260 0.38140 0.06700
N 	N 	0.31172 0.70768 0.46264 -0.18600
N 	N 	0.28479 0.68369 0.46248 -0.21400
N 	N 	0.33353 0.70222 0.43524 -0.10000
C 	C 	0.32014 0.67384 0.41687 0.02700
C 	C 	0.28973 0.66245 0.43420 0.00500
H 	H 	0.27490 0.64300 0.42730 0.00700
C 	C 	0.33744 0.65984 0.38460 0.05100
C 	C 	0.36758 0.67641 0.37038 -0.11000
H 	H 	0.37670 0.69740 0.38140 0.06800
N 	N 	0.31172 0.20768 0.96264 -0.18000
N 	N 	0.28479 0.18369 0.96248 -0.20800
N 	N 	0.33353 0.20222 0.93524 -0.09800
C 	C 	0.32014 0.17384 0.91687 0.02800
C 	C 	0.28973 0.16245 0.93420 0.00600
H 	H 	0.27490 0.14300 0.92730 0.00800
C 	C 	0.33744 0.15984 0.88460 0.05200
C 	C 	0.36758 0.17641 0.87038 -0.11000
H 	H 	0.37670 0.19740 0.88140 0.06800
N 	N 	0.81172 0.70768 0.96264 -0.18000
N 	N 	0.78479 0.68369 0.96248 -0.20800
N 	N 	0.83353 0.70222 0.93524 -0.09700
C 	C 	0.82014 0.67384 0.91687 0.02800
C 	C 	0.78973 0.66245 0.93420 0.00700
H 	H 	0.77490 0.64300 0.92730 0.00900
C 	C 	0.83744 0.65984 0.88460 0.05300
C 	C 	0.86758 0.67641 0.87038 -0.11000
H 	H 	0.87670 0.69740 0.88140 0.06900
N 	N 	0.81172 0.20768 0.46264 -0.18600
N 	N 	0.78479 0.18369 0.46248 -0.21400
N 	N 	0.83353 0.20222 0.43524 -0.09900
C 	C 	0.82014 0.17384 0.41687 0.02700
C 	C 	0.78973 0.16245 0.43420 0.00500
H 	H 	0.77490 0.14300 0.42730 0.00600
C 	C 	0.83744 0.15984 0.38460 0.05100
C 	C 	0.86758 0.17641 0.37038 -0.11000
H 	H 	0.87670 0.19740 0.38140 0.06800
N 	N 	0.68828 0.70768 0.53736 -0.18600
N 	N 	0.71521 0.68369 0.53752 -0.21400
N 	N 	0.66647 0.70222 0.56476 -0.10000
C 	C 	0.67986 0.67384 0.58313 0.02700
C 	C 	0.71027 0.66245 0.56580 0.00500
H 	H 	0.72510 0.64300 0.57270 0.00700
C 	C 	0.66256 0.65984 0.61540 0.05100
C 	C 	0.63242 0.67641 0.62962 -0.11100
H 	H 	0.62330 0.69740 0.61860 0.06800
N 	N 	0.68828 0.20768 0.03736 -0.18800
N 	N 	0.71521 0.18369 0.03752 -0.21600
N 	N 	0.66647 0.20222 0.06476 -0.10100
C 	C 	0.67986 0.17384 0.08313 0.02600
C 	C 	0.71027 0.16245 0.06580 0.00400
H 	H 	0.72510 0.14300 0.07270 0.00500
C 	C 	0.66256 0.15984 0.11540 0.05000
C 	C 	0.63242 0.17641 0.12962 -0.11000
H 	H 	0.62330 0.19740 0.11860 0.06700
N 	N 	0.18828 0.70768 0.03736 -0.18800
N 	N 	0.21521 0.68369 0.03752 -0.21600
N 	N 	0.16647 0.70222 0.06476 -0.10100
C 	C 	0.17986 0.67384 0.08313 0.02600
C 	C 	0.21027 0.66245 0.06580 0.00400
H 	H 	0.22510 0.64300 0.07270 0.00500
C 	C 	0.16256 0.65984 0.11540 0.05000
C 	C 	0.13242 0.67641 0.12962 -0.11100
H 	H 	0.12330 0.69740 0.11860 0.06600
N 	N 	0.18828 0.20768 0.53736 -0.18600
N 	N 	0.21521 0.18369 0.53752 -0.21400
N 	N 	0.16647 0.20222 0.56476 -0.10000
C 	C 	0.17986 0.17384 0.58313 0.02600
C 	C 	0.21027 0.16245 0.56580 0.00500
H 	H 	0.22510 0.14300 0.57270 0.00600
C 	C 	0.16256 0.15984 0.61540 0.05000
C 	C 	0.13242 0.17641 0.62962 -0.11000
H 	H 	0.12330 0.19740 0.61860 0.06700
N 	N 	0.81172 0.03736 0.20768 -0.18800
N 	N 	0.78479 0.03752 0.18369 -0.21600
N 	N 	0.83353 0.06476 0.20222 -0.10000
C 	C 	0.82014 0.08313 0.17384 0.02600
C 	C 	0.78973 0.06580 0.16245 0.00400
H 	H 	0.77490 0.07270 0.14300 0.00500
C 	C 	0.83744 0.11540 0.15984 0.05000
C 	C 	0.86758 0.12962 0.17641 -0.11000
H 	H 	0.87670 0.11860 0.19740 0.06700
N 	N 	0.81172 0.53736 0.70768 -0.18600
N 	N 	0.78479 0.53752 0.68369 -0.21400
N 	N 	0.83353 0.56476 0.70222 -0.09900
C 	C 	0.82014 0.58313 0.67384 0.02700
C 	C 	0.78973 0.56580 0.66245 0.00600
H 	H 	0.77490 0.57270 0.64300 0.00700
C 	C 	0.83744 0.61540 0.65984 0.05200
C 	C 	0.86758 0.62962 0.67641 -0.11000
H 	H 	0.87670 0.61860 0.69740 0.06800
N 	N 	0.31172 0.03736 0.70768 -0.18800
N 	N 	0.28479 0.03752 0.68369 -0.21600
N 	N 	0.33353 0.06476 0.70222 -0.10100
C 	C 	0.32014 0.08313 0.67384 0.02600
C 	C 	0.28973 0.06580 0.66245 0.00400
H 	H 	0.27490 0.07270 0.64300 0.00500
C 	C 	0.33744 0.11540 0.65984 0.05000
C 	C 	0.36758 0.12962 0.67641 -0.11000
H 	H 	0.37670 0.11860 0.69740 0.06700
N 	N 	0.31172 0.53736 0.20768 -0.18600
N 	N 	0.28479 0.53752 0.18369 -0.21400
N 	N 	0.33353 0.56476 0.20222 -0.10000
C 	C 	0.32014 0.58313 0.17384 0.02700
C 	C 	0.28973 0.56580 0.16245 0.00500
H 	H 	0.27490 0.57270 0.14300 0.00600
C 	C 	0.33744 0.61540 0.15984 0.05000
C 	C 	0.36758 0.62962 0.17641 -0.11000
H 	H 	0.37670 0.61860 0.19740 0.06700
N 	N 	0.18828 0.96264 0.20768 -0.18000
N 	N 	0.21521 0.96248 0.18369 -0.20800
N 	N 	0.16647 0.93524 0.20222 -0.09900
C 	C 	0.17986 0.91687 0.17384 0.02800
C 	C 	0.21027 0.93420 0.16245 0.00600
H 	H 	0.22510 0.92730 0.14300 0.00800
C 	C 	0.16256 0.88460 0.15984 0.05100
C 	C 	0.13242 0.87038 0.17641 -0.11000
H 	H 	0.12330 0.88140 0.19740 0.06800
N 	N 	0.18828 0.46264 0.70768 -0.18600
N 	N 	0.21521 0.46248 0.68369 -0.21400
N 	N 	0.16647 0.43524 0.70222 -0.10000
C 	C 	0.17986 0.41687 0.67384 0.02700
C 	C 	0.21027 0.43420 0.66245 0.00500
H 	H 	0.22510 0.42730 0.64300 0.00700
C 	C 	0.16256 0.38460 0.65984 0.05000
C 	C 	0.13242 0.37038 0.67641 -0.11000
H 	H 	0.12330 0.38140 0.69740 0.06700
N 	N 	0.68828 0.96264 0.70768 -0.18000
N 	N 	0.71521 0.96248 0.68369 -0.20800
N 	N 	0.66647 0.93524 0.70222 -0.09800
C 	C 	0.67986 0.91687 0.67384 0.02800
C 	C 	0.71027 0.93420 0.66245 0.00600
H 	H 	0.72510 0.92730 0.64300 0.00900
C 	C 	0.66256 0.88460 0.65984 0.05200
C 	C 	0.63242 0.87038 0.67641 -0.11000
H 	H 	0.62330 0.88140 0.69740 0.06900
N 	N 	0.68828 0.46264 0.20768 -0.18600
N 	N 	0.71521 0.46248 0.18369 -0.21400
N 	N 	0.66647 0.43524 0.20222 -0.10000
C 	C 	0.67986 0.41687 0.17384 0.02700
C 	C 	0.71027 0.43420 0.16245 0.00500
H 	H 	0.72510 0.42730 0.14300 0.00600
C 	C 	0.66256 0.38460 0.15984 0.05000
C 	C 	0.63242 0.37038 0.17641 -0.11000
H 	H 	0.62330 0.38140 0.19740 0.06700
N 	N 	0.81172 0.96264 0.79232 -0.18000
N 	N 	0.78479 0.96248 0.81631 -0.20700
N 	N 	0.83353 0.93524 0.79778 -0.09700
C 	C 	0.82014 0.91687 0.82616 0.02900
C 	C 	0.78973 0.93420 0.83755 0.00700
H 	H 	0.77490 0.92730 0.85700 0.01000
C 	C 	0.83744 0.88460 0.84016 0.05300
C 	C 	0.86758 0.87038 0.82359 -0.11000
H 	H 	0.87670 0.88140 0.80260 0.07000
N 	N 	0.81172 0.46264 0.29232 -0.18600
N 	N 	0.78479 0.46248 0.31631 -0.21400
N 	N 	0.83353 0.43524 0.29778 -0.09900
C 	C 	0.82014 0.41687 0.32616 0.02700
C 	C 	0.78973 0.43420 0.33755 0.00600
H 	H 	0.77490 0.42730 0.35700 0.00700
C 	C 	0.83744 0.38460 0.34016 0.05200
C 	C 	0.86758 0.37038 0.32359 -0.11000
H 	H 	0.87670 0.38140 0.30260 0.06800
N 	N 	0.31172 0.96264 0.29232 -0.18000
N 	N 	0.28479 0.96248 0.31631 -0.20800
N 	N 	0.33353 0.93524 0.29778 -0.09800
C 	C 	0.32014 0.91687 0.32616 0.02800
C 	C 	0.28973 0.93420 0.33755 0.00600
H 	H 	0.27490 0.92730 0.35700 0.00900
C 	C 	0.33744 0.88460 0.34016 0.05200
C 	C 	0.36758 0.87038 0.32359 -0.11000
H 	H 	0.37670 0.88140 0.30260 0.06900
N 	N 	0.31172 0.46264 0.79232 -0.18600
N 	N 	0.28479 0.46248 0.81631 -0.21300
N 	N 	0.33353 0.43524 0.79778 -0.09900
C 	C 	0.32014 0.41687 0.82616 0.02700
C 	C 	0.28973 0.43420 0.83755 0.00600
H 	H 	0.27490 0.42730 0.85700 0.00800
C 	C 	0.33744 0.38460 0.84016 0.05200
C 	C 	0.36758 0.37038 0.82359 -0.11000
H 	H 	0.37670 0.38140 0.80260 0.06800
N 	N 	0.18828 0.03736 0.79232 -0.18800
N 	N 	0.21521 0.03752 0.81631 -0.21600
N 	N 	0.16647 0.06476 0.79778 -0.10100
C 	C 	0.17986 0.08313 0.82616 0.02600
C 	C 	0.21027 0.06580 0.83755 0.00400
H 	H 	0.22510 0.07270 0.85700 0.00600
C 	C 	0.16256 0.11540 0.84016 0.05000
C 	C 	0.13242 0.12962 0.82359 -0.11000
H 	H 	0.12330 0.11860 0.80260 0.06600
N 	N 	0.18828 0.53736 0.29232 -0.18600
N 	N 	0.21521 0.53752 0.31631 -0.21400
N 	N 	0.16647 0.56476 0.29778 -0.10000
C 	C 	0.17986 0.58313 0.32616 0.02700
C 	C 	0.21027 0.56580 0.33755 0.00500
H 	H 	0.22510 0.57270 0.35700 0.00700
C 	C 	0.16256 0.61540 0.34016 0.05000
C 	C 	0.13242 0.62962 0.32359 -0.11000
H 	H 	0.12330 0.61860 0.30260 0.06700
N 	N 	0.68828 0.03736 0.29232 -0.18800
N 	N 	0.71521 0.03752 0.31631 -0.21600
N 	N 	0.66647 0.06476 0.29778 -0.10100
C 	C 	0.67986 0.08313 0.32616 0.02600
C 	C 	0.71027 0.06580 0.33755 0.00400
H 	H 	0.72510 0.07270 0.35700 0.00600
C 	C 	0.66256 0.11540 0.34016 0.05000
C 	C 	0.63242 0.12962 0.32359 -0.11000
H 	H 	0.62330 0.11860 0.30260 0.06700
N 	N 	0.68828 0.53736 0.79232 -0.18600
N 	N 	0.71521 0.53752 0.81631 -0.21300
N 	N 	0.66647 0.56476 0.79778 -0.10000
C 	C 	0.67986 0.58313 0.82616 0.02700
C 	C 	0.71027 0.56580 0.83755 0.00600
H 	H 	0.72510 0.57270 0.85700 0.00800
C 	C 	0.66256 0.61540 0.84016 0.05200
C 	C 	0.63242 0.62962 0.82359 -0.11000
H 	H 	0.62330 0.61860 0.80260 0.06800
N 	N 	0.03736 0.79232 0.18828 -0.18800
N 	N 	0.03752 0.81631 0.21521 -0.21600
N 	N 	0.06476 0.79778 0.16647 -0.10100
C 	C 	0.08313 0.82616 0.17986 0.02600
C 	C 	0.06580 0.83755 0.21027 0.00400
H 	H 	0.07270 0.85700 0.22510 0.00600
C 	C 	0.11540 0.84016 0.16256 0.05000
C 	C 	0.12962 0.82359 0.13242 -0.11000
H 	H 	0.11860 0.80260 0.12330 0.06600
N 	N 	0.03736 0.29232 0.68828 -0.18800
N 	N 	0.03752 0.31631 0.71521 -0.21600
N 	N 	0.06476 0.29778 0.66647 -0.10100
C 	C 	0.08313 0.32616 0.67986 0.02600
C 	C 	0.06580 0.33755 0.71027 0.00400
H 	H 	0.07270 0.35700 0.72510 0.00600
C 	C 	0.11540 0.34016 0.66256 0.05000
C 	C 	0.12962 0.32359 0.63242 -0.11000
H 	H 	0.11860 0.30260 0.62330 0.06700
N 	N 	0.53736 0.79232 0.68828 -0.18600
N 	N 	0.53752 0.81631 0.71521 -0.21300
N 	N 	0.56476 0.79778 0.66647 -0.10000
C 	C 	0.58313 0.82616 0.67986 0.02700
C 	C 	0.56580 0.83755 0.71027 0.00600
H 	H 	0.57270 0.85700 0.72510 0.00800
C 	C 	0.61540 0.84016 0.66256 0.05200
C 	C 	0.62962 0.82359 0.63242 -0.11000
H 	H 	0.61860 0.80260 0.62330 0.06800
N 	N 	0.53736 0.29232 0.18828 -0.18600
N 	N 	0.53752 0.31631 0.21521 -0.21400
N 	N 	0.56476 0.29778 0.16647 -0.10000
C 	C 	0.58313 0.32616 0.17986 0.02700
C 	C 	0.56580 0.33755 0.21027 0.00500
H 	H 	0.57270 0.35700 0.22510 0.00700
C 	C 	0.61540 0.34016 0.16256 0.05000
C 	C 	0.62962 0.32359 0.13242 -0.11000
H 	H 	0.61860 0.30260 0.12330 0.06700
N 	N 	0.96264 0.79232 0.81172 -0.18000
N 	N 	0.96248 0.81631 0.78479 -0.20700
N 	N 	0.93524 0.79778 0.83353 -0.09700
C 	C 	0.91687 0.82616 0.82014 0.02900
C 	C 	0.93420 0.83755 0.78973 0.00700
H 	H 	0.92730 0.85700 0.77490 0.01000
C 	C 	0.88460 0.84016 0.83744 0.05300
C 	C 	0.87038 0.82359 0.86758 -0.11000
H 	H 	0.88140 0.80260 0.87670 0.07000
N 	N 	0.96264 0.29232 0.31172 -0.18000
N 	N 	0.96248 0.31631 0.28479 -0.20800
N 	N 	0.93524 0.29778 0.33353 -0.09800
C 	C 	0.91687 0.32616 0.32014 0.02800
C 	C 	0.93420 0.33755 0.28973 0.00600
H 	H 	0.92730 0.35700 0.27490 0.00900
C 	C 	0.88460 0.34016 0.33744 0.05200
C 	C 	0.87038 0.32359 0.36758 -0.11000
H 	H 	0.88140 0.30260 0.37670 0.06900
N 	N 	0.46264 0.79232 0.31172 -0.18600
N 	N 	0.46248 0.81631 0.28479 -0.21300
N 	N 	0.43524 0.79778 0.33353 -0.09900
C 	C 	0.41687 0.82616 0.32014 0.02700
C 	C 	0.43420 0.83755 0.28973 0.00600
H 	H 	0.42730 0.85700 0.27490 0.00800
C 	C 	0.38460 0.84016 0.33744 0.05200
C 	C 	0.37038 0.82359 0.36758 -0.11000
H 	H 	0.38140 0.80260 0.37670 0.06800
N 	N 	0.46264 0.29232 0.81172 -0.18600
N 	N 	0.46248 0.31631 0.78479 -0.21400
N 	N 	0.43524 0.29778 0.83353 -0.09900
C 	C 	0.41687 0.32616 0.82014 0.02700
C 	C 	0.43420 0.33755 0.78973 0.00600
H 	H 	0.42730 0.35700 0.77490 0.00700
C 	C 	0.38460 0.34016 0.83744 0.05200
C 	C 	0.37038 0.32359 0.86758 -0.11000
H 	H 	0.38140 0.30260 0.87670 0.06800
N 	N 	0.96264 0.20768 0.18828 -0.18000
N 	N 	0.96248 0.18369 0.21521 -0.20800
N 	N 	0.93524 0.20222 0.16647 -0.09900
C 	C 	0.91687 0.17384 0.17986 0.02800
C 	C 	0.93420 0.16245 0.21027 0.00600
H 	H 	0.92730 0.14300 0.22510 0.00800
C 	C 	0.88460 0.15984 0.16256 0.05100
C 	C 	0.87038 0.17641 0.13242 -0.11000
H 	H 	0.88140 0.19740 0.12330 0.06800
N 	N 	0.96264 0.70768 0.68828 -0.18000
N 	N 	0.96248 0.68369 0.71521 -0.20800
N 	N 	0.93524 0.70222 0.66647 -0.09800
C 	C 	0.91687 0.67384 0.67986 0.02800
C 	C 	0.93420 0.66245 0.71027 0.00600
H 	H 	0.92730 0.64300 0.72510 0.00900
C 	C 	0.88460 0.65984 0.66256 0.05200
C 	C 	0.87038 0.67641 0.63242 -0.11000
H 	H 	0.88140 0.69740 0.62330 0.06900
N 	N 	0.46264 0.20768 0.68828 -0.18600
N 	N 	0.46248 0.18369 0.71521 -0.21400
N 	N 	0.43524 0.20222 0.66647 -0.10000
C 	C 	0.41687 0.17384 0.67986 0.02700
C 	C 	0.43420 0.16245 0.71027 0.00500
H 	H 	0.42730 0.14300 0.72510 0.00600
C 	C 	0.38460 0.15984 0.66256 0.05000
C 	C 	0.37038 0.17641 0.63242 -0.11000
H 	H 	0.38140 0.19740 0.62330 0.06700
N 	N 	0.46264 0.70768 0.18828 -0.18600
N 	N 	0.46248 0.68369 0.21521 -0.21400
N 	N 	0.43524 0.70222 0.16647 -0.10000
C 	C 	0.41687 0.67384 0.17986 0.02700
C 	C 	0.43420 0.66245 0.21027 0.00500
H 	H 	0.42730 0.64300 0.22510 0.00700
C 	C 	0.38460 0.65984 0.16256 0.05000
C 	C 	0.37038 0.67641 0.13242 -0.11000
H 	H 	0.38140 0.69740 0.12330 0.06700
N 	N 	0.03736 0.20768 0.81172 -0.18800
N 	N 	0.03752 0.18369 0.78479 -0.21600
N 	N 	0.06476 0.20222 0.83353 -0.10000
C 	C 	0.08313 0.17384 0.82014 0.02600
C 	C 	0.06580 0.16245 0.78973 0.00400
H 	H 	0.07270 0.14300 0.77490 0.00500
C 	C 	0.11540 0.15984 0.83744 0.05000
C 	C 	0.12962 0.17641 0.86758 -0.11000
H 	H 	0.11860 0.19740 0.87670 0.06700
N 	N 	0.03736 0.70768 0.31172 -0.18800
N 	N 	0.03752 0.68369 0.28479 -0.21600
N 	N 	0.06476 0.70222 0.33353 -0.10100
C 	C 	0.08313 0.67384 0.32014 0.02600
C 	C 	0.06580 0.66245 0.28973 0.00400
H 	H 	0.07270 0.64300 0.27490 0.00500
C 	C 	0.11540 0.65984 0.33744 0.05000
C 	C 	0.12962 0.67641 0.36758 -0.11000
H 	H 	0.11860 0.69740 0.37670 0.06700
N 	N 	0.53736 0.20768 0.31172 -0.18600
N 	N 	0.53752 0.18369 0.28479 -0.21400
N 	N 	0.56476 0.20222 0.33353 -0.10000
C 	C 	0.58313 0.17384 0.32014 0.02700
C 	C 	0.56580 0.16245 0.28973 0.00500
H 	H 	0.57270 0.14300 0.27490 0.00600
C 	C 	0.61540 0.15984 0.33744 0.05000
C 	C 	0.62962 0.17641 0.36758 -0.11000
H 	H 	0.61860 0.19740 0.37670 0.06700
N 	N 	0.53736 0.70768 0.81172 -0.18600
N 	N 	0.53752 0.68369 0.78479 -0.21400
N 	N 	0.56476 0.70222 0.83353 -0.09900
C 	C 	0.58313 0.67384 0.82014 0.02700
C 	C 	0.56580 0.66245 0.78973 0.00600
H 	H 	0.57270 0.64300 0.77490 0.00700
C 	C 	0.61540 0.65984 0.83744 0.05200
C 	C 	0.62962 0.67641 0.86758 -0.11000
H 	H 	0.61860 0.69740 0.87670 0.06800
N 	N 	0.79232 0.81172 0.96264 -0.18000
N 	N 	0.81631 0.78479 0.96248 -0.20700
N 	N 	0.79778 0.83353 0.93524 -0.09700
C 	C 	0.82616 0.82014 0.91687 0.02900
C 	C 	0.83755 0.78973 0.93420 0.00700
H 	H 	0.85700 0.77490 0.92730 0.01000
C 	C 	0.84016 0.83744 0.88460 0.05300
C 	C 	0.82359 0.86758 0.87038 -0.11000
H 	H 	0.80260 0.87670 0.88140 0.07000
N 	N 	0.79232 0.31172 0.46264 -0.18600
N 	N 	0.81631 0.28479 0.46248 -0.21300
N 	N 	0.79778 0.33353 0.43524 -0.09900
C 	C 	0.82616 0.32014 0.41687 0.02700
C 	C 	0.83755 0.28973 0.43420 0.00600
H 	H 	0.85700 0.27490 0.42730 0.00800
C 	C 	0.84016 0.33744 0.38460 0.05200
C 	C 	0.82359 0.36758 0.37038 -0.11000
H 	H 	0.80260 0.37670 0.38140 0.06800
N 	N 	0.29232 0.81172 0.46264 -0.18600
N 	N 	0.31631 0.78479 0.46248 -0.21400
N 	N 	0.29778 0.83353 0.43524 -0.09900
C 	C 	0.32616 0.82014 0.41687 0.02700
C 	C 	0.33755 0.78973 0.43420 0.00600
H 	H 	0.35700 0.77490 0.42730 0.00700
C 	C 	0.34016 0.83744 0.38460 0.05200
C 	C 	0.32359 0.86758 0.37038 -0.11000
H 	H 	0.30260 0.87670 0.38140 0.06800
N 	N 	0.29232 0.31172 0.96264 -0.18000
N 	N 	0.31631 0.28479 0.96248 -0.20800
N 	N 	0.29778 0.33353 0.93524 -0.09800
C 	C 	0.32616 0.32014 0.91687 0.02800
C 	C 	0.33755 0.28973 0.93420 0.00600
H 	H 	0.35700 0.27490 0.92730 0.00900
C 	C 	0.34016 0.33744 0.88460 0.05200
C 	C 	0.32359 0.36758 0.87038 -0.11000
H 	H 	0.30260 0.37670 0.88140 0.06900
N 	N 	0.79232 0.18828 0.03736 -0.18800
N 	N 	0.81631 0.21521 0.03752 -0.21600
N 	N 	0.79778 0.16647 0.06476 -0.10100
C 	C 	0.82616 0.17986 0.08313 0.02600
C 	C 	0.83755 0.21027 0.06580 0.00400
H 	H 	0.85700 0.22510 0.07270 0.00600
C 	C 	0.84016 0.16256 0.11540 0.05000
C 	C 	0.82359 0.13242 0.12962 -0.11000
H 	H 	0.80260 0.12330 0.11860 0.06600
N 	N 	0.79232 0.68828 0.53736 -0.18600
N 	N 	0.81631 0.71521 0.53752 -0.21300
N 	N 	0.79778 0.66647 0.56476 -0.10000
C 	C 	0.82616 0.67986 0.58313 0.02700
C 	C 	0.83755 0.71027 0.56580 0.00600
H 	H 	0.85700 0.72510 0.57270 0.00800
C 	C 	0.84016 0.66256 0.61540 0.05200
C 	C 	0.82359 0.63242 0.62962 -0.11000
H 	H 	0.80260 0.62330 0.61860 0.06800
N 	N 	0.29232 0.18828 0.53736 -0.18600
N 	N 	0.31631 0.21521 0.53752 -0.21400
N 	N 	0.29778 0.16647 0.56476 -0.10000
C 	C 	0.32616 0.17986 0.58313 0.02700
C 	C 	0.33755 0.21027 0.56580 0.00500
H 	H 	0.35700 0.22510 0.57270 0.00700
C 	C 	0.34016 0.16256 0.61540 0.05000
C 	C 	0.32359 0.13242 0.62962 -0.11000
H 	H 	0.30260 0.12330 0.61860 0.06700
N 	N 	0.29232 0.68828 0.03736 -0.18800
N 	N 	0.31631 0.71521 0.03752 -0.21600
N 	N 	0.29778 0.66647 0.06476 -0.10100
C 	C 	0.32616 0.67986 0.08313 0.02600
C 	C 	0.33755 0.71027 0.06580 0.00400
H 	H 	0.35700 0.72510 0.07270 0.00600
C 	C 	0.34016 0.66256 0.11540 0.05000
C 	C 	0.32359 0.63242 0.12962 -0.11000
H 	H 	0.30260 0.62330 0.11860 0.06700
N 	N 	0.20768 0.81172 0.03736 -0.18800
N 	N 	0.18369 0.78479 0.03752 -0.21600
N 	N 	0.20222 0.83353 0.06476 -0.10000
C 	C 	0.17384 0.82014 0.08313 0.02600
C 	C 	0.16245 0.78973 0.06580 0.00400
H 	H 	0.14300 0.77490 0.07270 0.00500
C 	C 	0.15984 0.83744 0.11540 0.05000
C 	C 	0.17641 0.86758 0.12962 -0.11000
H 	H 	0.19740 0.87670 0.11860 0.06700
N 	N 	0.20768 0.31172 0.53736 -0.18600
N 	N 	0.18369 0.28479 0.53752 -0.21400
N 	N 	0.20222 0.33353 0.56476 -0.10000
C 	C 	0.17384 0.32014 0.58313 0.02700
C 	C 	0.16245 0.28973 0.56580 0.00500
H 	H 	0.14300 0.27490 0.57270 0.00600
C 	C 	0.15984 0.33744 0.61540 0.05000
C 	C 	0.17641 0.36758 0.62962 -0.11000
H 	H 	0.19740 0.37670 0.61860 0.06700
N 	N 	0.70768 0.81172 0.53736 -0.18600
N 	N 	0.68369 0.78479 0.53752 -0.21400
N 	N 	0.70222 0.83353 0.56476 -0.09900
C 	C 	0.67384 0.82014 0.58313 0.02700
C 	C 	0.66245 0.78973 0.56580 0.00600
H 	H 	0.64300 0.77490 0.57270 0.00700
C 	C 	0.65984 0.83744 0.61540 0.05200
C 	C 	0.67641 0.86758 0.62962 -0.11000
H 	H 	0.69740 0.87670 0.61860 0.06800
N 	N 	0.70768 0.31172 0.03736 -0.18800
N 	N 	0.68369 0.28479 0.03752 -0.21600
N 	N 	0.70222 0.33353 0.06476 -0.10100
C 	C 	0.67384 0.32014 0.08313 0.02600
C 	C 	0.66245 0.28973 0.06580 0.00400
H 	H 	0.64300 0.27490 0.07270 0.00500
C 	C 	0.65984 0.33744 0.11540 0.05000
C 	C 	0.67641 0.36758 0.12962 -0.11000
H 	H 	0.69740 0.37670 0.11860 0.06700
N 	N 	0.20768 0.18828 0.96264 -0.18000
N 	N 	0.18369 0.21521 0.96248 -0.20800
N 	N 	0.20222 0.16647 0.93524 -0.09900
C 	C 	0.17384 0.17986 0.91687 0.02800
C 	C 	0.16245 0.21027 0.93420 0.00600
H 	H 	0.14300 0.22510 0.92730 0.00800
C 	C 	0.15984 0.16256 0.88460 0.05100
C 	C 	0.17641 0.13242 0.87038 -0.11000
H 	H 	0.19740 0.12330 0.88140 0.06800
N 	N 	0.20768 0.68828 0.46264 -0.18600
N 	N 	0.18369 0.71521 0.46248 -0.21400
N 	N 	0.20222 0.66647 0.43524 -0.10000
C 	C 	0.17384 0.67986 0.41687 0.02700
C 	C 	0.16245 0.71027 0.43420 0.00500
H 	H 	0.14300 0.72510 0.42730 0.00600
C 	C 	0.15984 0.66256 0.38460 0.05000
C 	C 	0.17641 0.63242 0.37038 -0.11000
H 	H 	0.19740 0.62330 0.38140 0.06700
N 	N 	0.70768 0.18828 0.46264 -0.18600
N 	N 	0.68369 0.21521 0.46248 -0.21400
N 	N 	0.70222 0.16647 0.43524 -0.10000
C 	C 	0.67384 0.17986 0.41687 0.02700
C 	C 	0.66245 0.21027 0.43420 0.00500
H 	H 	0.64300 0.22510 0.42730 0.00700
C 	C 	0.65984 0.16256 0.38460 0.05000
C 	C 	0.67641 0.13242 0.37038 -0.11000
H 	H 	0.69740 0.12330 0.38140 0.06700
N 	N 	0.70768 0.68828 0.96264 -0.18000
N 	N 	0.68369 0.71521 0.96248 -0.20800
N 	N 	0.70222 0.66647 0.93524 -0.09800
C 	C 	0.67384 0.67986 0.91687 0.02800
C 	C 	0.66245 0.71027 0.93420 0.00600
H 	H 	0.64300 0.72510 0.92730 0.00900
C 	C 	0.65984 0.66256 0.88460 0.05200
C 	C 	0.67641 0.63242 0.87038 -0.11000
H 	H 	0.69740 0.62330 0.88140 0.06900
N 	N 	0.46264 0.68828 0.70768 -0.18600
N 	N 	0.46248 0.71521 0.68369 -0.21400
N 	N 	0.43524 0.66647 0.70222 -0.10000
C 	C 	0.41687 0.67986 0.67384 0.02700
C 	C 	0.43420 0.71027 0.66245 0.00500
H 	H 	0.42730 0.72510 0.64300 0.00700
C 	C 	0.38460 0.66256 0.65984 0.05100
C 	C 	0.37038 0.63242 0.67641 -0.11000
H 	H 	0.38140 0.62330 0.69740 0.06800
N 	N 	0.46264 0.18828 0.20768 -0.18600
N 	N 	0.46248 0.21521 0.18369 -0.21400
N 	N 	0.43524 0.16647 0.20222 -0.10000
C 	C 	0.41687 0.17986 0.17384 0.02600
C 	C 	0.43420 0.21027 0.16245 0.00500
H 	H 	0.42730 0.22510 0.14300 0.00600
C 	C 	0.38460 0.16256 0.15984 0.05000
C 	C 	0.37038 0.13242 0.17641 -0.11000
H 	H 	0.38140 0.12330 0.19740 0.06700
N 	N 	0.96264 0.68828 0.20768 -0.18000
N 	N 	0.96248 0.71521 0.18369 -0.20800
N 	N 	0.93524 0.66647 0.20222 -0.09800
C 	C 	0.91687 0.67986 0.17384 0.02800
C 	C 	0.93420 0.71027 0.16245 0.00600
H 	H 	0.92730 0.72510 0.14300 0.00800
C 	C 	0.88460 0.66256 0.15984 0.05100
C 	C 	0.87038 0.63242 0.17641 -0.11000
H 	H 	0.88140 0.62330 0.19740 0.06800
N 	N 	0.96264 0.18828 0.70768 -0.18000
N 	N 	0.96248 0.21521 0.68369 -0.20800
N 	N 	0.93524 0.16647 0.70222 -0.09900
C 	C 	0.91687 0.17986 0.67384 0.02800
C 	C 	0.93420 0.21027 0.66245 0.00600
H 	H 	0.92730 0.22510 0.64300 0.00900
C 	C 	0.88460 0.16256 0.65984 0.05100
C 	C 	0.87038 0.13242 0.67641 -0.11000
H 	H 	0.88140 0.12330 0.69740 0.06800
N 	N 	0.53736 0.31172 0.70768 -0.18600
N 	N 	0.53752 0.28479 0.68369 -0.21400
N 	N 	0.56476 0.33353 0.70222 -0.10000
C 	C 	0.58313 0.32014 0.67384 0.02700
C 	C 	0.56580 0.28973 0.66245 0.00500
H 	H 	0.57270 0.27490 0.64300 0.00700
C 	C 	0.61540 0.33744 0.65984 0.05100
C 	C 	0.62962 0.36758 0.67641 -0.11000
H 	H 	0.61860 0.37670 0.69740 0.06800
N 	N 	0.53736 0.81172 0.20768 -0.18600
N 	N 	0.53752 0.78479 0.18369 -0.21400
N 	N 	0.56476 0.83353 0.20222 -0.09900
C 	C 	0.58313 0.82014 0.17384 0.02700
C 	C 	0.56580 0.78973 0.16245 0.00500
H 	H 	0.57270 0.77490 0.14300 0.00600
C 	C 	0.61540 0.83744 0.15984 0.05100
C 	C 	0.62962 0.86758 0.17641 -0.11000
H 	H 	0.61860 0.87670 0.19740 0.06800
N 	N 	0.03736 0.31172 0.20768 -0.18800
N 	N 	0.03752 0.28479 0.18369 -0.21600
N 	N 	0.06476 0.33353 0.20222 -0.10100
C 	C 	0.08313 0.32014 0.17384 0.02600
C 	C 	0.06580 0.28973 0.16245 0.00400
H 	H 	0.07270 0.27490 0.14300 0.00500
C 	C 	0.11540 0.33744 0.15984 0.05000
C 	C 	0.12962 0.36758 0.17641 -0.11000
H 	H 	0.11860 0.37670 0.19740 0.06700
N 	N 	0.03736 0.81172 0.70768 -0.18800
N 	N 	0.03752 0.78479 0.68369 -0.21600
N 	N 	0.06476 0.83353 0.70222 -0.10000
C 	C 	0.08313 0.82014 0.67384 0.02600
C 	C 	0.06580 0.78973 0.66245 0.00500
H 	H 	0.07270 0.77490 0.64300 0.00600
C 	C 	0.11540 0.83744 0.65984 0.05100
C 	C 	0.12962 0.86758 0.67641 -0.11000
H 	H 	0.11860 0.87670 0.69740 0.06800
N 	N 	0.53736 0.68828 0.29232 -0.18600
N 	N 	0.53752 0.71521 0.31631 -0.21400
N 	N 	0.56476 0.66647 0.29778 -0.10000
C 	C 	0.58313 0.67986 0.32616 0.02700
C 	C 	0.56580 0.71027 0.33755 0.00500
H 	H 	0.57270 0.72510 0.35700 0.00700
C 	C 	0.61540 0.66256 0.34016 0.05100
C 	C 	0.62962 0.63242 0.32359 -0.11000
H 	H 	0.61860 0.62330 0.30260 0.06800
N 	N 	0.53736 0.18828 0.79232 -0.18600
N 	N 	0.53752 0.21521 0.81631 -0.21400
N 	N 	0.56476 0.16647 0.79778 -0.10000
C 	C 	0.58313 0.17986 0.82616 0.02700
C 	C 	0.56580 0.21027 0.83755 0.00500
H 	H 	0.57270 0.22510 0.85700 0.00800
C 	C 	0.61540 0.16256 0.84016 0.05100
C 	C 	0.62962 0.13242 0.82359 -0.11000
H 	H 	0.61860 0.12330 0.80260 0.06700
N 	N 	0.03736 0.68828 0.79232 -0.18800
N 	N 	0.03752 0.71521 0.81631 -0.21500
N 	N 	0.06476 0.66647 0.79778 -0.10100
C 	C 	0.08313 0.67986 0.82616 0.02700
C 	C 	0.06580 0.71027 0.83755 0.00500
H 	H 	0.07270 0.72510 0.85700 0.00700
C 	C 	0.11540 0.66256 0.84016 0.05100
C 	C 	0.12962 0.63242 0.82359 -0.11000
H 	H 	0.11860 0.62330 0.80260 0.06700
N 	N 	0.03736 0.18828 0.29232 -0.18800
N 	N 	0.03752 0.21521 0.31631 -0.21600
N 	N 	0.06476 0.16647 0.29778 -0.10100
C 	C 	0.08313 0.17986 0.32616 0.02600
C 	C 	0.06580 0.21027 0.33755 0.00400
H 	H 	0.07270 0.22510 0.35700 0.00500
C 	C 	0.11540 0.16256 0.34016 0.05000
C 	C 	0.12962 0.13242 0.32359 -0.11000
H 	H 	0.11860 0.12330 0.30260 0.06600
N 	N 	0.46264 0.31172 0.29232 -0.18600
N 	N 	0.46248 0.28479 0.31631 -0.21400
N 	N 	0.43524 0.33353 0.29778 -0.10000
C 	C 	0.41687 0.32014 0.32616 0.02700
C 	C 	0.43420 0.28973 0.33755 0.00500
H 	H 	0.42730 0.27490 0.35700 0.00700
C 	C 	0.38460 0.33744 0.34016 0.05100
C 	C 	0.37038 0.36758 0.32359 -0.11000
H 	H 	0.38140 0.37670 0.30260 0.06800
N 	N 	0.46264 0.81172 0.79232 -0.18600
N 	N 	0.46248 0.78479 0.81631 -0.21300
N 	N 	0.43524 0.83353 0.79778 -0.09900
C 	C 	0.41687 0.82014 0.82616 0.02800
C 	C 	0.43420 0.78973 0.83755 0.00600
H 	H 	0.42730 0.77490 0.85700 0.00800
C 	C 	0.38460 0.83744 0.84016 0.05200
C 	C 	0.37038 0.86758 0.82359 -0.11000
H 	H 	0.38140 0.87670 0.80260 0.06900
N 	N 	0.96264 0.31172 0.79232 -0.18000
N 	N 	0.96248 0.28479 0.81631 -0.20700
N 	N 	0.93524 0.33353 0.79778 -0.09800
C 	C 	0.91687 0.32014 0.82616 0.02900
C 	C 	0.93420 0.28973 0.83755 0.00700
H 	H 	0.92730 0.27490 0.85700 0.01000
C 	C 	0.88460 0.33744 0.84016 0.05300
C 	C 	0.87038 0.36758 0.82359 -0.11000
H 	H 	0.88140 0.37670 0.80260 0.06900
N 	N 	0.96264 0.81172 0.29232 -0.18000
N 	N 	0.96248 0.78479 0.31631 -0.20800
N 	N 	0.93524 0.83353 0.29778 -0.09700
C 	C 	0.91687 0.82014 0.32616 0.02800
C 	C 	0.93420 0.78973 0.33755 0.00700
H 	H 	0.92730 0.77490 0.35700 0.00900
C 	C 	0.88460 0.83744 0.34016 0.05300
C 	C 	0.87038 0.86758 0.32359 -0.11000
H 	H 	0.88140 0.87670 0.30260 0.06900
N 	N 	0.70768 0.46264 0.68828 -0.18600
N 	N 	0.68369 0.46248 0.71521 -0.21400
N 	N 	0.70222 0.43524 0.66647 -0.10000
C 	C 	0.67384 0.41687 0.67986 0.02700
C 	C 	0.66245 0.43420 0.71027 0.00500
H 	H 	0.64300 0.42730 0.72510 0.00700
C 	C 	0.65984 0.38460 0.66256 0.05100
C 	C 	0.67641 0.37038 0.63242 -0.11000
H 	H 	0.69740 0.38140 0.62330 0.06800
N 	N 	0.70768 0.96264 0.18828 -0.18000
N 	N 	0.68369 0.96248 0.21521 -0.20800
N 	N 	0.70222 0.93524 0.16647 -0.09900
C 	C 	0.67384 0.91687 0.17986 0.02800
C 	C 	0.66245 0.93420 0.21027 0.00600
H 	H 	0.64300 0.92730 0.22510 0.00900
C 	C 	0.65984 0.88460 0.16256 0.05100
C 	C 	0.67641 0.87038 0.13242 -0.11000
H 	H 	0.69740 0.88140 0.12330 0.06800
N 	N 	0.20768 0.46264 0.18828 -0.18600
N 	N 	0.18369 0.46248 0.21521 -0.21400
N 	N 	0.20222 0.43524 0.16647 -0.10000
C 	C 	0.17384 0.41687 0.17986 0.02600
C 	C 	0.16245 0.43420 0.21027 0.00500
H 	H 	0.14300 0.42730 0.22510 0.00600
C 	C 	0.15984 0.38460 0.16256 0.05000
C 	C 	0.17641 0.37038 0.13242 -0.11000
H 	H 	0.19740 0.38140 0.12330 0.06700
N 	N 	0.20768 0.96264 0.68828 -0.18000
N 	N 	0.18369 0.96248 0.71521 -0.20800
N 	N 	0.20222 0.93524 0.66647 -0.09800
C 	C 	0.17384 0.91687 0.67986 0.02800
C 	C 	0.16245 0.93420 0.71027 0.00600
H 	H 	0.14300 0.92730 0.72510 0.00800
C 	C 	0.15984 0.88460 0.66256 0.05100
C 	C 	0.17641 0.87038 0.63242 -0.11000
H 	H 	0.19740 0.88140 0.62330 0.06800
N 	N 	0.70768 0.53736 0.31172 -0.18600
N 	N 	0.68369 0.53752 0.28479 -0.21400
N 	N 	0.70222 0.56476 0.33353 -0.10000
C 	C 	0.67384 0.58313 0.32014 0.02700
C 	C 	0.66245 0.56580 0.28973 0.00500
H 	H 	0.64300 0.57270 0.27490 0.00700
C 	C 	0.65984 0.61540 0.33744 0.05100
C 	C 	0.67641 0.62962 0.36758 -0.11000
H 	H 	0.69740 0.61860 0.37670 0.06800
N 	N 	0.70768 0.03736 0.81172 -0.18800
N 	N 	0.68369 0.03752 0.78479 -0.21600
N 	N 	0.70222 0.06476 0.83353 -0.10000
C 	C 	0.67384 0.08313 0.82014 0.02600
C 	C 	0.66245 0.06580 0.78973 0.00500
H 	H 	0.64300 0.07270 0.77490 0.00600
C 	C 	0.65984 0.11540 0.83744 0.05100
C 	C 	0.67641 0.12962 0.86758 -0.11000
H 	H 	0.69740 0.11860 0.87670 0.06800
N 	N 	0.20768 0.53736 0.81172 -0.18600
N 	N 	0.18369 0.53752 0.78479 -0.21400
N 	N 	0.20222 0.56476 0.83353 -0.09900
C 	C 	0.17384 0.58313 0.82014 0.02700
C 	C 	0.16245 0.56580 0.78973 0.00500
H 	H 	0.14300 0.57270 0.77490 0.00600
C 	C 	0.15984 0.61540 0.83744 0.05100
C 	C 	0.17641 0.62962 0.86758 -0.11000
H 	H 	0.19740 0.61860 0.87670 0.06800
N 	N 	0.20768 0.03736 0.31172 -0.18800
N 	N 	0.18369 0.03752 0.28479 -0.21600
N 	N 	0.20222 0.06476 0.33353 -0.10100
C 	C 	0.17384 0.08313 0.32014 0.02600
C 	C 	0.16245 0.06580 0.28973 0.00400
H 	H 	0.14300 0.07270 0.27490 0.00500
C 	C 	0.15984 0.11540 0.33744 0.05000
C 	C 	0.17641 0.12962 0.36758 -0.11000
H 	H 	0.19740 0.11860 0.37670 0.06700
N 	N 	0.29232 0.53736 0.68828 -0.18600
N 	N 	0.31631 0.53752 0.71521 -0.21400
N 	N 	0.29778 0.56476 0.66647 -0.10000
C 	C 	0.32616 0.58313 0.67986 0.02700
C 	C 	0.33755 0.56580 0.71027 0.00500
H 	H 	0.35700 0.57270 0.72510 0.00700
C 	C 	0.34016 0.61540 0.66256 0.05100
C 	C 	0.32359 0.62962 0.63242 -0.11000
H 	H 	0.30260 0.61860 0.62330 0.06800
N 	N 	0.29232 0.03736 0.18828 -0.18800
N 	N 	0.31631 0.03752 0.21521 -0.21600
N 	N 	0.29778 0.06476 0.16647 -0.10100
C 	C 	0.32616 0.08313 0.17986 0.02600
C 	C 	0.33755 0.06580 0.21027 0.00400
H 	H 	0.35700 0.07270 0.22510 0.00500
C 	C 	0.34016 0.11540 0.16256 0.05000
C 	C 	0.32359 0.12962 0.13242 -0.11000
H 	H 	0.30260 0.11860 0.12330 0.06600
N 	N 	0.79232 0.53736 0.18828 -0.18600
N 	N 	0.81631 0.53752 0.21521 -0.21400
N 	N 	0.79778 0.56476 0.16647 -0.10000
C 	C 	0.82616 0.58313 0.17986 0.02700
C 	C 	0.83755 0.56580 0.21027 0.00500
H 	H 	0.85700 0.57270 0.22510 0.00800
C 	C 	0.84016 0.61540 0.16256 0.05100
C 	C 	0.82359 0.62962 0.13242 -0.11000
H 	H 	0.80260 0.61860 0.12330 0.06700
N 	N 	0.79232 0.03736 0.68828 -0.18800
N 	N 	0.81631 0.03752 0.71521 -0.21500
N 	N 	0.79778 0.06476 0.66647 -0.10100
C 	C 	0.82616 0.08313 0.67986 0.02700
C 	C 	0.83755 0.06580 0.71027 0.00500
H 	H 	0.85700 0.07270 0.72510 0.00700
C 	C 	0.84016 0.11540 0.66256 0.05100
C 	C 	0.82359 0.12962 0.63242 -0.11000
H 	H 	0.80260 0.11860 0.62330 0.06700
N 	N 	0.29232 0.46264 0.31172 -0.18600
N 	N 	0.31631 0.46248 0.28479 -0.21400
N 	N 	0.29778 0.43524 0.33353 -0.10000
C 	C 	0.32616 0.41687 0.32014 0.02700
C 	C 	0.33755 0.43420 0.28973 0.00500
H 	H 	0.35700 0.42730 0.27490 0.00700
C 	C 	0.34016 0.38460 0.33744 0.05100
C 	C 	0.32359 0.37038 0.36758 -0.11000
H 	H 	0.30260 0.38140 0.37670 0.06800
N 	N 	0.29232 0.96264 0.81172 -0.18000
N 	N 	0.31631 0.96248 0.78479 -0.20800
N 	N 	0.29778 0.93524 0.83353 -0.09700
C 	C 	0.32616 0.91687 0.82014 0.02800
C 	C 	0.33755 0.93420 0.78973 0.00700
H 	H 	0.35700 0.92730 0.77490 0.00900
C 	C 	0.34016 0.88460 0.83744 0.05300
C 	C 	0.32359 0.87038 0.86758 -0.11000
H 	H 	0.30260 0.88140 0.87670 0.06900
N 	N 	0.79232 0.46264 0.81172 -0.18600
N 	N 	0.81631 0.46248 0.78479 -0.21300
N 	N 	0.79778 0.43524 0.83353 -0.09900
C 	C 	0.82616 0.41687 0.82014 0.02800
C 	C 	0.83755 0.43420 0.78973 0.00600
H 	H 	0.85700 0.42730 0.77490 0.00800
C 	C 	0.84016 0.38460 0.83744 0.05200
C 	C 	0.82359 0.37038 0.86758 -0.11000
H 	H 	0.80260 0.38140 0.87670 0.06900
N 	N 	0.79232 0.96264 0.31172 -0.18000
N 	N 	0.81631 0.96248 0.28479 -0.20700
N 	N 	0.79778 0.93524 0.33353 -0.09800
C 	C 	0.82616 0.91687 0.32014 0.02900
C 	C 	0.83755 0.93420 0.28973 0.00700
H 	H 	0.85700 0.92730 0.27490 0.01000
C 	C 	0.84016 0.88460 0.33744 0.05300
C 	C 	0.82359 0.87038 0.36758 -0.11000
H 	H 	0.80260 0.88140 0.37670 0.06900
N 	N 	0.68828 0.70768 0.46264 -0.18600
N 	N 	0.71521 0.68369 0.46248 -0.21400
N 	N 	0.66647 0.70222 0.43524 -0.10000
C 	C 	0.67986 0.67384 0.41687 0.02700
C 	C 	0.71027 0.66245 0.43420 0.00500
H 	H 	0.72510 0.64300 0.42730 0.00700
C 	C 	0.66256 0.65984 0.38460 0.05100
C 	C 	0.63242 0.67641 0.37038 -0.11000
H 	H 	0.62330 0.69740 0.38140 0.06800
N 	N 	0.68828 0.20768 0.96264 -0.18000
N 	N 	0.71521 0.18369 0.96248 -0.20800
N 	N 	0.66647 0.20222 0.93524 -0.09800
C 	C 	0.67986 0.17384 0.91687 0.02800
C 	C 	0.71027 0.16245 0.93420 0.00600
H 	H 	0.72510 0.14300 0.92730 0.00800
C 	C 	0.66256 0.15984 0.88460 0.05100
C 	C 	0.63242 0.17641 0.87038 -0.11000
H 	H 	0.62330 0.19740 0.88140 0.06800
N 	N 	0.18828 0.70768 0.96264 -0.18000
N 	N 	0.21521 0.68369 0.96248 -0.20800
N 	N 	0.16647 0.70222 0.93524 -0.09900
C 	C 	0.17986 0.67384 0.91687 0.02800
C 	C 	0.21027 0.66245 0.93420 0.00600
H 	H 	0.22510 0.64300 0.92730 0.00900
C 	C 	0.16256 0.65984 0.88460 0.05100
C 	C 	0.13242 0.67641 0.87038 -0.11000
H 	H 	0.12330 0.69740 0.88140 0.06800
N 	N 	0.18828 0.20768 0.46264 -0.18600
N 	N 	0.21521 0.18369 0.46248 -0.21400
N 	N 	0.16647 0.20222 0.43524 -0.10000
C 	C 	0.17986 0.17384 0.41687 0.02600
C 	C 	0.21027 0.16245 0.43420 0.00500
H 	H 	0.22510 0.14300 0.42730 0.00600
C 	C 	0.16256 0.15984 0.38460 0.05000
C 	C 	0.13242 0.17641 0.37038 -0.11000
H 	H 	0.12330 0.19740 0.38140 0.06700
N 	N 	0.31172 0.70768 0.53736 -0.18600
N 	N 	0.28479 0.68369 0.53752 -0.21400
N 	N 	0.33353 0.70222 0.56476 -0.10000
C 	C 	0.32014 0.67384 0.58313 0.02700
C 	C 	0.28973 0.66245 0.56580 0.00500
H 	H 	0.27490 0.64300 0.57270 0.00700
C 	C 	0.33744 0.65984 0.61540 0.05100
C 	C 	0.36758 0.67641 0.62962 -0.11000
H 	H 	0.37670 0.69740 0.61860 0.06800
N 	N 	0.31172 0.20768 0.03736 -0.18800
N 	N 	0.28479 0.18369 0.03752 -0.21600
N 	N 	0.33353 0.20222 0.06476 -0.10100
C 	C 	0.32014 0.17384 0.08313 0.02600
C 	C 	0.28973 0.16245 0.06580 0.00400
H 	H 	0.27490 0.14300 0.07270 0.00500
C 	C 	0.33744 0.15984 0.11540 0.05000
C 	C 	0.36758 0.17641 0.12962 -0.11000
H 	H 	0.37670 0.19740 0.11860 0.06700
N 	N 	0.81172 0.70768 0.03736 -0.18800
N 	N 	0.78479 0.68369 0.03752 -0.21600
N 	N 	0.83353 0.70222 0.06476 -0.10000
C 	C 	0.82014 0.67384 0.08313 0.02600
C 	C 	0.78973 0.66245 0.06580 0.00500
H 	H 	0.77490 0.64300 0.07270 0.00600
C 	C 	0.83744 0.65984 0.11540 0.05100
C 	C 	0.86758 0.67641 0.12962 -0.11000
H 	H 	0.87670 0.69740 0.11860 0.06800
N 	N 	0.81172 0.20768 0.53736 -0.18600
N 	N 	0.78479 0.18369 0.53752 -0.21400
N 	N 	0.83353 0.20222 0.56476 -0.09900
C 	C 	0.82014 0.17384 0.58313 0.02700
C 	C 	0.78973 0.16245 0.56580 0.00500
H 	H 	0.77490 0.14300 0.57270 0.00600
C 	C 	0.83744 0.15984 0.61540 0.05100
C 	C 	0.86758 0.17641 0.62962 -0.11000
H 	H 	0.87670 0.19740 0.61860 0.06800
N 	N 	0.68828 0.29232 0.53736 -0.18600
N 	N 	0.71521 0.31631 0.53752 -0.21400
N 	N 	0.66647 0.29778 0.56476 -0.10000
C 	C 	0.67986 0.32616 0.58313 0.02700
C 	C 	0.71027 0.33755 0.56580 0.00500
H 	H 	0.72510 0.35700 0.57270 0.00700
C 	C 	0.66256 0.34016 0.61540 0.05100
C 	C 	0.63242 0.32359 0.62962 -0.11000
H 	H 	0.62330 0.30260 0.61860 0.06800
N 	N 	0.68828 0.79232 0.03736 -0.18800
N 	N 	0.71521 0.81631 0.03752 -0.21500
N 	N 	0.66647 0.79778 0.06476 -0.10100
C 	C 	0.67986 0.82616 0.08313 0.02700
C 	C 	0.71027 0.83755 0.06580 0.00500
H 	H 	0.72510 0.85700 0.07270 0.00700
C 	C 	0.66256 0.84016 0.11540 0.05100
C 	C 	0.63242 0.82359 0.12962 -0.11000
H 	H 	0.62330 0.80260 0.11860 0.06700
N 	N 	0.18828 0.29232 0.03736 -0.18800
N 	N 	0.21521 0.31631 0.03752 -0.21600
N 	N 	0.16647 0.29778 0.06476 -0.10100
C 	C 	0.17986 0.32616 0.08313 0.02600
C 	C 	0.21027 0.33755 0.06580 0.00400
H 	H 	0.22510 0.35700 0.07270 0.00500
C 	C 	0.16256 0.34016 0.11540 0.05000
C 	C 	0.13242 0.32359 0.12962 -0.11000
H 	H 	0.12330 0.30260 0.11860 0.06600
N 	N 	0.18828 0.79232 0.53736 -0.18600
N 	N 	0.21521 0.81631 0.53752 -0.21400
N 	N 	0.16647 0.79778 0.56476 -0.10000
C 	C 	0.17986 0.82616 0.58313 0.02700
C 	C 	0.21027 0.83755 0.56580 0.00500
H 	H 	0.22510 0.85700 0.57270 0.00800
C 	C 	0.16256 0.84016 0.61540 0.05100
C 	C 	0.13242 0.82359 0.62962 -0.11000
H 	H 	0.12330 0.80260 0.61860 0.06700
N 	N 	0.31172 0.29232 0.46264 -0.18600
N 	N 	0.28479 0.31631 0.46248 -0.21400
N 	N 	0.33353 0.29778 0.43524 -0.10000
C 	C 	0.32014 0.32616 0.41687 0.02700
C 	C 	0.28973 0.33755 0.43420 0.00500
H 	H 	0.27490 0.35700 0.42730 0.00700
C 	C 	0.33744 0.34016 0.38460 0.05100
C 	C 	0.36758 0.32359 0.37038 -0.11000
H 	H 	0.37670 0.30260 0.38140 0.06800
N 	N 	0.31172 0.79232 0.96264 -0.18000
N 	N 	0.28479 0.81631 0.96248 -0.20700
N 	N 	0.33353 0.79778 0.93524 -0.09800
C 	C 	0.32014 0.82616 0.91687 0.02900
C 	C 	0.28973 0.83755 0.93420 0.00700
H 	H 	0.27490 0.85700 0.92730 0.01000
C 	C 	0.33744 0.84016 0.88460 0.05300
C 	C 	0.36758 0.82359 0.87038 -0.11000
H 	H 	0.37670 0.80260 0.88140 0.06900
N 	N 	0.81172 0.29232 0.96264 -0.18000
N 	N 	0.78479 0.31631 0.96248 -0.20800
N 	N 	0.83353 0.29778 0.93524 -0.09700
C 	C 	0.82014 0.32616 0.91687 0.02800
C 	C 	0.78973 0.33755 0.93420 0.00700
H 	H 	0.77490 0.35700 0.92730 0.00900
C 	C 	0.83744 0.34016 0.88460 0.05300
C 	C 	0.86758 0.32359 0.87038 -0.11000
H 	H 	0.87670 0.30260 0.88140 0.06900
N 	N 	0.81172 0.79232 0.46264 -0.18600
N 	N 	0.78479 0.81631 0.46248 -0.21300
N 	N 	0.83353 0.79778 0.43524 -0.09900
C 	C 	0.82014 0.82616 0.41687 0.02800
C 	C 	0.78973 0.83755 0.43420 0.00600
H 	H 	0.77490 0.85700 0.42730 0.00800
C 	C 	0.83744 0.84016 0.38460 0.05200
C 	C 	0.86758 0.82359 0.37038 -0.11000
H 	H 	0.87670 0.80260 0.38140 0.06900
N 	N 	0.18828 0.96264 0.79232 -0.18000
N 	N 	0.21521 0.96248 0.81631 -0.20800
N 	N 	0.16647 0.93524 0.79778 -0.09800
C 	C 	0.17986 0.91687 0.82616 0.02800
C 	C 	0.21027 0.93420 0.83755 0.00600
H 	H 	0.22510 0.92730 0.85700 0.01000
C 	C 	0.16256 0.88460 0.84016 0.05200
C 	C 	0.13242 0.87038 0.82359 -0.11000
H 	H 	0.12330 0.88140 0.80260 0.06800
N 	N 	0.18828 0.46264 0.29232 -0.18600
N 	N 	0.21521 0.46248 0.31631 -0.21400
N 	N 	0.16647 0.43524 0.29778 -0.10000
C 	C 	0.17986 0.41687 0.32616 0.02700
C 	C 	0.21027 0.43420 0.33755 0.00500
H 	H 	0.22510 0.42730 0.35700 0.00700
C 	C 	0.16256 0.38460 0.34016 0.05000
C 	C 	0.13242 0.37038 0.32359 -0.11000
H 	H 	0.12330 0.38140 0.30260 0.06700
N 	N 	0.68828 0.96264 0.29232 -0.18000
N 	N 	0.71521 0.96248 0.31631 -0.20800
N 	N 	0.66647 0.93524 0.29778 -0.09800
C 	C 	0.67986 0.91687 0.32616 0.02800
C 	C 	0.71027 0.93420 0.33755 0.00600
H 	H 	0.72510 0.92730 0.35700 0.00900
C 	C 	0.66256 0.88460 0.34016 0.05200
C 	C 	0.63242 0.87038 0.32359 -0.11000
H 	H 	0.62330 0.88140 0.30260 0.06900
N 	N 	0.68828 0.46264 0.79232 -0.18600
N 	N 	0.71521 0.46248 0.81631 -0.21300
N 	N 	0.66647 0.43524 0.79778 -0.09900
C 	C 	0.67986 0.41687 0.82616 0.02700
C 	C 	0.71027 0.43420 0.83755 0.00600
H 	H 	0.72510 0.42730 0.85700 0.00800
C 	C 	0.66256 0.38460 0.84016 0.05200
C 	C 	0.63242 0.37038 0.82359 -0.11000
H 	H 	0.62330 0.38140 0.80260 0.06800
N 	N 	0.81172 0.03736 0.79232 -0.18800
N 	N 	0.78479 0.03752 0.81631 -0.21500
N 	N 	0.83353 0.06476 0.79778 -0.10000
C 	C 	0.82014 0.08313 0.82616 0.02700
C 	C 	0.78973 0.06580 0.83755 0.00500
H 	H 	0.77490 0.07270 0.85700 0.00700
C 	C 	0.83744 0.11540 0.84016 0.05100
C 	C 	0.86758 0.12962 0.82359 -0.11000
H 	H 	0.87670 0.11860 0.80260 0.06800
N 	N 	0.81172 0.53736 0.29232 -0.18600
N 	N 	0.78479 0.53752 0.31631 -0.21400
N 	N 	0.83353 0.56476 0.29778 -0.09900
C 	C 	0.82014 0.58313 0.32616 0.02700
C 	C 	0.78973 0.56580 0.33755 0.00600
H 	H 	0.77490 0.57270 0.35700 0.00700
C 	C 	0.83744 0.61540 0.34016 0.05200
C 	C 	0.86758 0.62962 0.32359 -0.11000
H 	H 	0.87670 0.61860 0.30260 0.06800
N 	N 	0.31172 0.03736 0.29232 -0.18800
N 	N 	0.28479 0.03752 0.31631 -0.21600
N 	N 	0.33353 0.06476 0.29778 -0.10100
C 	C 	0.32014 0.08313 0.32616 0.02600
C 	C 	0.28973 0.06580 0.33755 0.00400
H 	H 	0.27490 0.07270 0.35700 0.00600
C 	C 	0.33744 0.11540 0.34016 0.05000
C 	C 	0.36758 0.12962 0.32359 -0.11000
H 	H 	0.37670 0.11860 0.30260 0.06700
N 	N 	0.31172 0.53736 0.79232 -0.18600
N 	N 	0.28479 0.53752 0.81631 -0.21300
N 	N 	0.33353 0.56476 0.79778 -0.09900
C 	C 	0.32014 0.58313 0.82616 0.02700
C 	C 	0.28973 0.56580 0.83755 0.00600
H 	H 	0.27490 0.57270 0.85700 0.00800
C 	C 	0.33744 0.61540 0.84016 0.05200
C 	C 	0.36758 0.62962 0.82359 -0.11000
H 	H 	0.37670 0.61860 0.80260 0.06800
N 	N 	0.18828 0.03736 0.20768 -0.18900
N 	N 	0.21521 0.03752 0.18369 -0.21600
N 	N 	0.16647 0.06476 0.20222 -0.10200
C 	C 	0.17986 0.08313 0.17384 0.02600
C 	C 	0.21027 0.06580 0.16245 0.00400
H 	H 	0.22510 0.07270 0.14300 0.00500
C 	C 	0.16256 0.11540 0.15984 0.04900
C 	C 	0.13242 0.12962 0.17641 -0.11000
H 	H 	0.12330 0.11860 0.19740 0.06600
N 	N 	0.18828 0.53736 0.70768 -0.18600
N 	N 	0.21521 0.53752 0.68369 -0.21400
N 	N 	0.16647 0.56476 0.70222 -0.10000
C 	C 	0.17986 0.58313 0.67384 0.02700
C 	C 	0.21027 0.56580 0.66245 0.00500
H 	H 	0.22510 0.57270 0.64300 0.00700
C 	C 	0.16256 0.61540 0.65984 0.05000
C 	C 	0.13242 0.62962 0.67641 -0.11100
H 	H 	0.12330 0.61860 0.69740 0.06700
N 	N 	0.68828 0.03736 0.70768 -0.18800
N 	N 	0.71521 0.03752 0.68369 -0.21600
N 	N 	0.66647 0.06476 0.70222 -0.10100
C 	C 	0.67986 0.08313 0.67384 0.02600
C 	C 	0.71027 0.06580 0.66245 0.00400
H 	H 	0.72510 0.07270 0.64300 0.00600
C 	C 	0.66256 0.11540 0.65984 0.05000
C 	C 	0.63242 0.12962 0.67641 -0.11100
H 	H 	0.62330 0.11860 0.69740 0.06700
N 	N 	0.68828 0.53736 0.20768 -0.18600
N 	N 	0.71521 0.53752 0.18369 -0.21400
N 	N 	0.66647 0.56476 0.20222 -0.10000
C 	C 	0.67986 0.58313 0.17384 0.02700
C 	C 	0.71027 0.56580 0.16245 0.00500
H 	H 	0.72510 0.57270 0.14300 0.00600
C 	C 	0.66256 0.61540 0.15984 0.05000
C 	C 	0.63242 0.62962 0.17641 -0.11000
H 	H 	0.62330 0.61860 0.19740 0.06700
N 	N 	0.81172 0.96264 0.20768 -0.18000
N 	N 	0.78479 0.96248 0.18369 -0.20800
N 	N 	0.83353 0.93524 0.20222 -0.09800
C 	C 	0.82014 0.91687 0.17384 0.02800
C 	C 	0.78973 0.93420 0.16245 0.00600
H 	H 	0.77490 0.92730 0.14300 0.00800
C 	C 	0.83744 0.88460 0.15984 0.05200
C 	C 	0.86758 0.87038 0.17641 -0.11000
H 	H 	0.87670 0.88140 0.19740 0.06900
N 	N 	0.81172 0.46264 0.70768 -0.18600
N 	N 	0.78479 0.46248 0.68369 -0.21400
N 	N 	0.83353 0.43524 0.70222 -0.09900
C 	C 	0.82014 0.41687 0.67384 0.02700
C 	C 	0.78973 0.43420 0.66245 0.00600
H 	H 	0.77490 0.42730 0.64300 0.00700
C 	C 	0.83744 0.38460 0.65984 0.05200
C 	C 	0.86758 0.37038 0.67641 -0.11000
H 	H 	0.87670 0.38140 0.69740 0.06800
N 	N 	0.31172 0.96264 0.70768 -0.18000
N 	N 	0.28479 0.96248 0.68369 -0.20800
N 	N 	0.33353 0.93524 0.70222 -0.09800
C 	C 	0.32014 0.91687 0.67384 0.02800
C 	C 	0.28973 0.93420 0.66245 0.00600
H 	H 	0.27490 0.92730 0.64300 0.00900
C 	C 	0.33744 0.88460 0.65984 0.05200
C 	C 	0.36758 0.87038 0.67641 -0.11000
H 	H 	0.37670 0.88140 0.69740 0.06900
N 	N 	0.31172 0.46264 0.20768 -0.18600
N 	N 	0.28479 0.46248 0.18369 -0.21400
N 	N 	0.33353 0.43524 0.20222 -0.10000
C 	C 	0.32014 0.41687 0.17384 0.02700
C 	C 	0.28973 0.43420 0.16245 0.00500
H 	H 	0.27490 0.42730 0.14300 0.00600
C 	C 	0.33744 0.38460 0.15984 0.05100
C 	C 	0.36758 0.37038 0.17641 -0.11000
H 	H 	0.37670 0.38140 0.19740 0.06700
N 	N 	0.96264 0.20768 0.81172 -0.18000
N 	N 	0.96248 0.18369 0.78479 -0.20800
N 	N 	0.93524 0.20222 0.83353 -0.09800
C 	C 	0.91687 0.17384 0.82014 0.02800
C 	C 	0.93420 0.16245 0.78973 0.00600
H 	H 	0.92730 0.14300 0.77490 0.00800
C 	C 	0.88460 0.15984 0.83744 0.05200
C 	C 	0.87038 0.17641 0.86758 -0.11000
H 	H 	0.88140 0.19740 0.87670 0.06900
N 	N 	0.96264 0.70768 0.31172 -0.18000
N 	N 	0.96248 0.68369 0.28479 -0.20800
N 	N 	0.93524 0.70222 0.33353 -0.09800
C 	C 	0.91687 0.67384 0.32014 0.02800
C 	C 	0.93420 0.66245 0.28973 0.00600
H 	H 	0.92730 0.64300 0.27490 0.00900
C 	C 	0.88460 0.65984 0.33744 0.05200
C 	C 	0.87038 0.67641 0.36758 -0.11000
H 	H 	0.88140 0.69740 0.37670 0.06900
N 	N 	0.46264 0.20768 0.31172 -0.18600
N 	N 	0.46248 0.18369 0.28479 -0.21400
N 	N 	0.43524 0.20222 0.33353 -0.10000
C 	C 	0.41687 0.17384 0.32014 0.02700
C 	C 	0.43420 0.16245 0.28973 0.00500
H 	H 	0.42730 0.14300 0.27490 0.00600
C 	C 	0.38460 0.15984 0.33744 0.05100
C 	C 	0.37038 0.17641 0.36758 -0.11000
H 	H 	0.38140 0.19740 0.37670 0.06700
N 	N 	0.46264 0.70768 0.81172 -0.18600
N 	N 	0.46248 0.68369 0.78479 -0.21400
N 	N 	0.43524 0.70222 0.83353 -0.09900
C 	C 	0.41687 0.67384 0.82014 0.02700
C 	C 	0.43420 0.66245 0.78973 0.00600
H 	H 	0.42730 0.64300 0.77490 0.00700
C 	C 	0.38460 0.65984 0.83744 0.05200
C 	C 	0.37038 0.67641 0.86758 -0.11000
H 	H 	0.38140 0.69740 0.87670 0.06800
N 	N 	0.03736 0.20768 0.18828 -0.18900
N 	N 	0.03752 0.18369 0.21521 -0.21600
N 	N 	0.06476 0.20222 0.16647 -0.10200
C 	C 	0.08313 0.17384 0.17986 0.02600
C 	C 	0.06580 0.16245 0.21027 0.00400
H 	H 	0.07270 0.14300 0.22510 0.00500
C 	C 	0.11540 0.15984 0.16256 0.04900
C 	C 	0.12962 0.17641 0.13242 -0.11000
H 	H 	0.11860 0.19740 0.12330 0.06600
N 	N 	0.03736 0.70768 0.68828 -0.18800
N 	N 	0.03752 0.68369 0.71521 -0.21600
N 	N 	0.06476 0.70222 0.66647 -0.10100
C 	C 	0.08313 0.67384 0.67986 0.02600
C 	C 	0.06580 0.66245 0.71027 0.00400
H 	H 	0.07270 0.64300 0.72510 0.00600
C 	C 	0.11540 0.65984 0.66256 0.05000
C 	C 	0.12962 0.67641 0.63242 -0.11100
H 	H 	0.11860 0.69740 0.62330 0.06700
N 	N 	0.53736 0.20768 0.68828 -0.18600
N 	N 	0.53752 0.18369 0.71521 -0.21400
N 	N 	0.56476 0.20222 0.66647 -0.10000
C 	C 	0.58313 0.17384 0.67986 0.02700
C 	C 	0.56580 0.16245 0.71027 0.00500
H 	H 	0.57270 0.14300 0.72510 0.00600
C 	C 	0.61540 0.15984 0.66256 0.05000
C 	C 	0.62962 0.17641 0.63242 -0.11000
H 	H 	0.61860 0.19740 0.62330 0.06700
N 	N 	0.53736 0.70768 0.18828 -0.18600
N 	N 	0.53752 0.68369 0.21521 -0.21400
N 	N 	0.56476 0.70222 0.16647 -0.10000
C 	C 	0.58313 0.67384 0.17986 0.02700
C 	C 	0.56580 0.66245 0.21027 0.00500
H 	H 	0.57270 0.64300 0.22510 0.00700
C 	C 	0.61540 0.65984 0.16256 0.05000
C 	C 	0.62962 0.67641 0.13242 -0.11100
H 	H 	0.61860 0.69740 0.12330 0.06700
N 	N 	0.03736 0.79232 0.81172 -0.18800
N 	N 	0.03752 0.81631 0.78479 -0.21500
N 	N 	0.06476 0.79778 0.83353 -0.10000
C 	C 	0.08313 0.82616 0.82014 0.02700
C 	C 	0.06580 0.83755 0.78973 0.00500
H 	H 	0.07270 0.85700 0.77490 0.00700
C 	C 	0.11540 0.84016 0.83744 0.05100
C 	C 	0.12962 0.82359 0.86758 -0.11000
H 	H 	0.11860 0.80260 0.87670 0.06800
N 	N 	0.03736 0.29232 0.31172 -0.18800
N 	N 	0.03752 0.31631 0.28479 -0.21600
N 	N 	0.06476 0.29778 0.33353 -0.10100
C 	C 	0.08313 0.32616 0.32014 0.02600
C 	C 	0.06580 0.33755 0.28973 0.00400
H 	H 	0.07270 0.35700 0.27490 0.00600
C 	C 	0.11540 0.34016 0.33744 0.05000
C 	C 	0.12962 0.32359 0.36758 -0.11000
H 	H 	0.11860 0.30260 0.37670 0.06700
N 	N 	0.53736 0.79232 0.31172 -0.18600
N 	N 	0.53752 0.81631 0.28479 -0.21300
N 	N 	0.56476 0.79778 0.33353 -0.09900
C 	C 	0.58313 0.82616 0.32014 0.02700
C 	C 	0.56580 0.83755 0.28973 0.00600
H 	H 	0.57270 0.85700 0.27490 0.00800
C 	C 	0.61540 0.84016 0.33744 0.05200
C 	C 	0.62962 0.82359 0.36758 -0.11000
H 	H 	0.61860 0.80260 0.37670 0.06800
N 	N 	0.53736 0.29232 0.81172 -0.18600
N 	N 	0.53752 0.31631 0.78479 -0.21400
N 	N 	0.56476 0.29778 0.83353 -0.09900
C 	C 	0.58313 0.32616 0.82014 0.02700
C 	C 	0.56580 0.33755 0.78973 0.00600
H 	H 	0.57270 0.35700 0.77490 0.00700
C 	C 	0.61540 0.34016 0.83744 0.05200
C 	C 	0.62962 0.32359 0.86758 -0.11000
H 	H 	0.61860 0.30260 0.87670 0.06800
N 	N 	0.96264 0.79232 0.18828 -0.18000
N 	N 	0.96248 0.81631 0.21521 -0.20800
N 	N 	0.93524 0.79778 0.16647 -0.09800
C 	C 	0.91687 0.82616 0.17986 0.02800
C 	C 	0.93420 0.83755 0.21027 0.00600
H 	H 	0.92730 0.85700 0.22510 0.01000
C 	C 	0.88460 0.84016 0.16256 0.05200
C 	C 	0.87038 0.82359 0.13242 -0.11000
H 	H 	0.88140 0.80260 0.12330 0.06800
N 	N 	0.96264 0.29232 0.68828 -0.18000
N 	N 	0.96248 0.31631 0.71521 -0.20800
N 	N 	0.93524 0.29778 0.66647 -0.09800
C 	C 	0.91687 0.32616 0.67986 0.02800
C 	C 	0.93420 0.33755 0.71027 0.00600
H 	H 	0.92730 0.35700 0.72510 0.00900
C 	C 	0.88460 0.34016 0.66256 0.05200
C 	C 	0.87038 0.32359 0.63242 -0.11000
H 	H 	0.88140 0.30260 0.62330 0.06900
N 	N 	0.46264 0.79232 0.68828 -0.18600
N 	N 	0.46248 0.81631 0.71521 -0.21300
N 	N 	0.43524 0.79778 0.66647 -0.09900
C 	C 	0.41687 0.82616 0.67986 0.02700
C 	C 	0.43420 0.83755 0.71027 0.00600
H 	H 	0.42730 0.85700 0.72510 0.00800
C 	C 	0.38460 0.84016 0.66256 0.05200
C 	C 	0.37038 0.82359 0.63242 -0.11000
H 	H 	0.38140 0.80260 0.62330 0.06800
N 	N 	0.46264 0.29232 0.18828 -0.18600
N 	N 	0.46248 0.31631 0.21521 -0.21400
N 	N 	0.43524 0.29778 0.16647 -0.10000
C 	C 	0.41687 0.32616 0.17986 0.02700
C 	C 	0.43420 0.33755 0.21027 0.00500
H 	H 	0.42730 0.35700 0.22510 0.00700
C 	C 	0.38460 0.34016 0.16256 0.05000
C 	C 	0.37038 0.32359 0.13242 -0.11000
H 	H 	0.38140 0.30260 0.12330 0.06700
N 	N 	0.20768 0.18828 0.03736 -0.18900
N 	N 	0.18369 0.21521 0.03752 -0.21600
N 	N 	0.20222 0.16647 0.06476 -0.10200
C 	C 	0.17384 0.17986 0.08313 0.02600
C 	C 	0.16245 0.21027 0.06580 0.00400
H 	H 	0.14300 0.22510 0.07270 0.00500
C 	C 	0.15984 0.16256 0.11540 0.04900
C 	C 	0.17641 0.13242 0.12962 -0.11000
H 	H 	0.19740 0.12330 0.11860 0.06600
N 	N 	0.20768 0.68828 0.53736 -0.18600
N 	N 	0.18369 0.71521 0.53752 -0.21400
N 	N 	0.20222 0.66647 0.56476 -0.10000
C 	C 	0.17384 0.67986 0.58313 0.02700
C 	C 	0.16245 0.71027 0.56580 0.00500
H 	H 	0.14300 0.72510 0.57270 0.00600
C 	C 	0.15984 0.66256 0.61540 0.05000
C 	C 	0.17641 0.63242 0.62962 -0.11000
H 	H 	0.19740 0.62330 0.61860 0.06700
N 	N 	0.70768 0.18828 0.53736 -0.18600
N 	N 	0.68369 0.21521 0.53752 -0.21400
N 	N 	0.70222 0.16647 0.56476 -0.10000
C 	C 	0.67384 0.17986 0.58313 0.02700
C 	C 	0.66245 0.21027 0.56580 0.00500
H 	H 	0.64300 0.22510 0.57270 0.00700
C 	C 	0.65984 0.16256 0.61540 0.05000
C 	C 	0.67641 0.13242 0.62962 -0.11100
H 	H 	0.69740 0.12330 0.61860 0.06700
N 	N 	0.70768 0.68828 0.03736 -0.18800
N 	N 	0.68369 0.71521 0.03752 -0.21600
N 	N 	0.70222 0.66647 0.06476 -0.10100
C 	C 	0.67384 0.67986 0.08313 0.02600
C 	C 	0.66245 0.71027 0.06580 0.00400
H 	H 	0.64300 0.72510 0.07270 0.00600
C 	C 	0.65984 0.66256 0.11540 0.05000
C 	C 	0.67641 0.63242 0.12962 -0.11100
H 	H 	0.69740 0.62330 0.11860 0.06700
N 	N 	0.20768 0.81172 0.96264 -0.18000
N 	N 	0.18369 0.78479 0.96248 -0.20800
N 	N 	0.20222 0.83353 0.93524 -0.09800
C 	C 	0.17384 0.82014 0.91687 0.02800
C 	C 	0.16245 0.78973 0.93420 0.00600
H 	H 	0.14300 0.77490 0.92730 0.00800
C 	C 	0.15984 0.83744 0.88460 0.05200
C 	C 	0.17641 0.86758 0.87038 -0.11000
H 	H 	0.19740 0.87670 0.88140 0.06900
N 	N 	0.20768 0.31172 0.46264 -0.18600
N 	N 	0.18369 0.28479 0.46248 -0.21400
N 	N 	0.20222 0.33353 0.43524 -0.10000
C 	C 	0.17384 0.32014 0.41687 0.02700
C 	C 	0.16245 0.28973 0.43420 0.00500
H 	H 	0.14300 0.27490 0.42730 0.00600
C 	C 	0.15984 0.33744 0.38460 0.05100
C 	C 	0.17641 0.36758 0.37038 -0.11000
H 	H 	0.19740 0.37670 0.38140 0.06700
N 	N 	0.70768 0.81172 0.46264 -0.18600
N 	N 	0.68369 0.78479 0.46248 -0.21400
N 	N 	0.70222 0.83353 0.43524 -0.09900
C 	C 	0.67384 0.82014 0.41687 0.02700
C 	C 	0.66245 0.78973 0.43420 0.00600
H 	H 	0.64300 0.77490 0.42730 0.00700
C 	C 	0.65984 0.83744 0.38460 0.05200
C 	C 	0.67641 0.86758 0.37038 -0.11000
H 	H 	0.69740 0.87670 0.38140 0.06800
N 	N 	0.70768 0.31172 0.96264 -0.18000
N 	N 	0.68369 0.28479 0.96248 -0.20800
N 	N 	0.70222 0.33353 0.93524 -0.09800
C 	C 	0.67384 0.32014 0.91687 0.02800
C 	C 	0.66245 0.28973 0.93420 0.00600
H 	H 	0.64300 0.27490 0.92730 0.00900
C 	C 	0.65984 0.33744 0.88460 0.05200
C 	C 	0.67641 0.36758 0.87038 -0.11000
H 	H 	0.69740 0.37670 0.88140 0.06900
N 	N 	0.79232 0.18828 0.96264 -0.18000
N 	N 	0.81631 0.21521 0.96248 -0.20800
N 	N 	0.79778 0.16647 0.93524 -0.09800
C 	C 	0.82616 0.17986 0.91687 0.02800
C 	C 	0.83755 0.21027 0.93420 0.00600
H 	H 	0.85700 0.22510 0.92730 0.01000
C 	C 	0.84016 0.16256 0.88460 0.05200
C 	C 	0.82359 0.13242 0.87038 -0.11000
H 	H 	0.80260 0.12330 0.88140 0.06800
N 	N 	0.79232 0.68828 0.46264 -0.18600
N 	N 	0.81631 0.71521 0.46248 -0.21300
N 	N 	0.79778 0.66647 0.43524 -0.09900
C 	C 	0.82616 0.67986 0.41687 0.02700
C 	C 	0.83755 0.71027 0.43420 0.00600
H 	H 	0.85700 0.72510 0.42730 0.00800
C 	C 	0.84016 0.66256 0.38460 0.05200
C 	C 	0.82359 0.63242 0.37038 -0.11000
H 	H 	0.80260 0.62330 0.38140 0.06800
N 	N 	0.29232 0.18828 0.46264 -0.18600
N 	N 	0.31631 0.21521 0.46248 -0.21400
N 	N 	0.29778 0.16647 0.43524 -0.10000
C 	C 	0.32616 0.17986 0.41687 0.02700
C 	C 	0.33755 0.21027 0.43420 0.00500
H 	H 	0.35700 0.22510 0.42730 0.00700
C 	C 	0.34016 0.16256 0.38460 0.05000
C 	C 	0.32359 0.13242 0.37038 -0.11000
H 	H 	0.30260 0.12330 0.38140 0.06700
N 	N 	0.29232 0.68828 0.96264 -0.18000
N 	N 	0.31631 0.71521 0.96248 -0.20800
N 	N 	0.29778 0.66647 0.93524 -0.09800
C 	C 	0.32616 0.67986 0.91687 0.02800
C 	C 	0.33755 0.71027 0.93420 0.00600
H 	H 	0.35700 0.72510 0.92730 0.00900
C 	C 	0.34016 0.66256 0.88460 0.05200
C 	C 	0.32359 0.63242 0.87038 -0.11000
H 	H 	0.30260 0.62330 0.88140 0.06900
N 	N 	0.79232 0.81172 0.03736 -0.18800
N 	N 	0.81631 0.78479 0.03752 -0.21500
N 	N 	0.79778 0.83353 0.06476 -0.10000
C 	C 	0.82616 0.82014 0.08313 0.02700
C 	C 	0.83755 0.78973 0.06580 0.00500
H 	H 	0.85700 0.77490 0.07270 0.00700
C 	C 	0.84016 0.83744 0.11540 0.05100
C 	C 	0.82359 0.86758 0.12962 -0.11000
H 	H 	0.80260 0.87670 0.11860 0.06800
N 	N 	0.79232 0.31172 0.53736 -0.18600
N 	N 	0.81631 0.28479 0.53752 -0.21300
N 	N 	0.79778 0.33353 0.56476 -0.09900
C 	C 	0.82616 0.32014 0.58313 0.02700
C 	C 	0.83755 0.28973 0.56580 0.00600
H 	H 	0.85700 0.27490 0.57270 0.00800
C 	C 	0.84016 0.33744 0.61540 0.05200
C 	C 	0.82359 0.36758 0.62962 -0.11000
H 	H 	0.80260 0.37670 0.61860 0.06800
N 	N 	0.29232 0.81172 0.53736 -0.18600
N 	N 	0.31631 0.78479 0.53752 -0.21400
N 	N 	0.29778 0.83353 0.56476 -0.09900
C 	C 	0.32616 0.82014 0.58313 0.02700
C 	C 	0.33755 0.78973 0.56580 0.00600
H 	H 	0.35700 0.77490 0.57270 0.00700
C 	C 	0.34016 0.83744 0.61540 0.05200
C 	C 	0.32359 0.86758 0.62962 -0.11000
H 	H 	0.30260 0.87670 0.61860 0.06800
N 	N 	0.29232 0.31172 0.03736 -0.18800
N 	N 	0.31631 0.28479 0.03752 -0.21600
N 	N 	0.29778 0.33353 0.06476 -0.10100
C 	C 	0.32616 0.32014 0.08313 0.02600
C 	C 	0.33755 0.28973 0.06580 0.00400
H 	H 	0.35700 0.27490 0.07270 0.00600
C 	C 	0.34016 0.33744 0.11540 0.05000
C 	C 	0.32359 0.36758 0.12962 -0.11000
H 	H 	0.30260 0.37670 0.11860 0.06700
Co	Co	0.50000 0.24617 0.31633 1.11700
Co	Co	0.50000 0.74617 0.81633 1.11800
Co	Co	-0.00000 0.24617 0.81633 1.11000
Co	Co	0.00000 0.74617 0.31633 1.11000
Co	Co	0.50000 0.75383 0.31633 1.11700
Co	Co	0.50000 0.25383 0.81633 1.11700
Co	Co	0.00000 0.75383 0.81633 1.11000
Co	Co	0.00000 0.25383 0.31633 1.11000
Co	Co	0.50000 0.24617 0.68367 1.11700
Co	Co	0.50000 0.74617 0.18367 1.11700
Co	Co	0.00000 0.24617 0.18367 1.11000
Co	Co	0.00000 0.74617 0.68367 1.11000
Co	Co	0.50000 0.75383 0.68367 1.11700
Co	Co	0.50000 0.25383 0.18367 1.11700
Co	Co	-0.00000 0.75383 0.18367 1.11000
Co	Co	0.00000 0.25383 0.68367 1.11000
Co	Co	0.31633 0.50000 0.24617 1.11700
Co	Co	0.31633 0.00000 0.74617 1.11000
Co	Co	0.81633 0.50000 0.74617 1.11800
Co	Co	0.81633 0.00000 0.24617 1.11000
Co	Co	0.31633 0.50000 0.75383 1.11700
Co	Co	0.31633 -0.00000 0.25383 1.11000
Co	Co	0.81633 0.50000 0.25383 1.11700
Co	Co	0.81633 0.00000 0.75383 1.11000
Co	Co	0.68367 0.50000 0.24617 1.11700
Co	Co	0.68367 0.00000 0.74617 1.11000
Co	Co	0.18367 0.50000 0.74617 1.11700
Co	Co	0.18367 0.00000 0.24617 1.11000
Co	Co	0.68367 0.50000 0.75383 1.11700
Co	Co	0.68367 -0.00000 0.25383 1.11000
Co	Co	0.18367 0.50000 0.25383 1.11700
Co	Co	0.18367 0.00000 0.75383 1.11000
Co	Co	0.24617 0.31633 0.50000 1.11700
Co	Co	0.24617 0.81633 -0.00000 1.11000
Co	Co	0.74617 0.31633 -0.00000 1.11000
Co	Co	0.74617 0.81633 0.50000 1.11800
Co	Co	0.75383 0.31633 0.50000 1.11700
Co	Co	0.75383 0.81633 -0.00000 1.11000
Co	Co	0.25383 0.31633 -0.00000 1.11000
Co	Co	0.25383 0.81633 0.50000 1.11700
Co	Co	0.24617 0.68367 0.50000 1.11700
Co	Co	0.24617 0.18367 -0.00000 1.11000
Co	Co	0.74617 0.68367 -0.00000 1.11000
Co	Co	0.74617 0.18367 0.50000 1.11700
Co	Co	0.75383 0.68367 0.50000 1.11700
Co	Co	0.75383 0.18367 -0.00000 1.11000
Co	Co	0.25383 0.68367 -0.00000 1.11000
Co	Co	0.25383 0.18367 0.50000 1.11700
Co	Co	0.74617 0.00000 0.18367 1.11000
Co	Co	0.74617 0.50000 0.68367 1.11700
Co	Co	0.24617 0.00000 0.68367 1.11000
Co	Co	0.24617 0.50000 0.18367 1.11700
Co	Co	0.25383 0.00000 0.18367 1.11000
Co	Co	0.25383 0.50000 0.68367 1.11700
Co	Co	0.75383 0.00000 0.68367 1.11000
Co	Co	0.75383 0.50000 0.18367 1.11700
Co	Co	0.74617 0.00000 0.81633 1.11000
Co	Co	0.74617 0.50000 0.31633 1.11700
Co	Co	0.24617 0.00000 0.31633 1.11000
Co	Co	0.24617 0.50000 0.81633 1.11700
Co	Co	0.25383 0.00000 0.81633 1.11000
Co	Co	0.25383 0.50000 0.31633 1.11700
Co	Co	0.75383 0.00000 0.31633 1.11000
Co	Co	0.75383 0.50000 0.81633 1.11800
Co	Co	-0.00000 0.81633 0.25383 1.11000
Co	Co	0.00000 0.31633 0.75383 1.11000
Co	Co	0.50000 0.81633 0.75383 1.11800
Co	Co	0.50000 0.31633 0.25383 1.11700
Co	Co	0.00000 0.81633 0.74617 1.11000
Co	Co	0.00000 0.31633 0.24617 1.11000
Co	Co	0.50000 0.81633 0.24617 1.11700
Co	Co	0.50000 0.31633 0.74617 1.11700
Co	Co	0.00000 0.18367 0.25383 1.11000
Co	Co	-0.00000 0.68367 0.75383 1.11000
Co	Co	0.50000 0.18367 0.75383 1.11700
Co	Co	0.50000 0.68367 0.25383 1.11700
Co	Co	0.00000 0.18367 0.74617 1.11000
Co	Co	0.00000 0.68367 0.24617 1.11000
Co	Co	0.50000 0.18367 0.24617 1.11700
Co	Co	0.50000 0.68367 0.74617 1.11700
Co	Co	0.81633 0.74617 -0.00000 1.11000
Co	Co	0.81633 0.24617 0.50000 1.11700
Co	Co	0.31633 0.74617 0.50000 1.11700
Co	Co	0.31633 0.24617 -0.00000 1.11000
Co	Co	0.81633 0.25383 -0.00000 1.11000
Co	Co	0.81633 0.75383 0.50000 1.11800
Co	Co	0.31633 0.25383 0.50000 1.11700
Co	Co	0.31633 0.75383 -0.00000 1.11000
Co	Co	0.18367 0.74617 -0.00000 1.11000
Co	Co	0.18367 0.24617 0.50000 1.11700
Co	Co	0.68367 0.74617 0.50000 1.11700
Co	Co	0.68367 0.24617 -0.00000 1.11000
Co	Co	0.18367 0.25383 -0.00000 1.11000
Co	Co	0.18367 0.75383 0.50000 1.11700
Co	Co	0.68367 0.25383 0.50000 1.11700
Co	Co	0.68367 0.75383 -0.00000 1.11000
Cl	Cl	0.50000 0.25000 0.25000 -0.85300
Cl	Cl	0.00000 0.25000 0.75000 -0.86500
Cl	Cl	0.00000 0.75000 0.25000 -0.86500
Cl	Cl	0.50000 0.75000 0.25000 -0.85300
Cl	Cl	0.00000 0.25000 0.25000 -0.86500
Cl	Cl	0.50000 0.25000 0.75000 -0.85300
Cl	Cl	0.50000 0.75000 0.75000 -0.85300
Cl	Cl	0.25000 0.50000 0.25000 -0.85300
Cl	Cl	0.25000 0.00000 0.75000 -0.86500
Cl	Cl	0.75000 0.00000 0.25000 -0.86500
Cl	Cl	0.25000 0.50000 0.75000 -0.85300
Cl	Cl	0.25000 0.00000 0.25000 -0.86500
Cl	Cl	0.75000 0.50000 0.25000 -0.85300
Cl	Cl	0.75000 0.50000 0.75000 -0.85300
Cl	Cl	0.25000 0.25000 0.50000 -0.85300
Cl	Cl	0.25000 0.75000 -0.00000 -0.86500
Cl	Cl	0.75000 0.25000 -0.00000 -0.86500
Cl	Cl	0.75000 0.25000 0.50000 -0.85300
Cl	Cl	0.25000 0.25000 -0.00000 -0.86500
Cl	Cl	0.25000 0.75000 0.50000 -0.85300
Cl	Cl	0.75000 0.75000 0.50000 -0.85300
Cl	Cl	0.75000 0.00000 0.75000 -0.86500
Cl	Cl	0.00000 0.75000 0.75000 -0.86500
Cl	Cl	0.75000 0.75000 -0.00000 -0.86500
