data_crystal

_cell_length_a 35.10440
_cell_length_b 35.10440
_cell_length_c 11.73520
_cell_angle_alpha 90.00000
_cell_angle_beta  90.00000
_cell_angle_gamma 90.00000

_symmetry_space_group_name_	'P 1'
_symmetry_space_group_name_H-M	'P 1'

loop_
_symmetry_equiv_pos_as_xyz
  x,y,z

loop_
_atom_site_label
_atom_site_type_symbol
_atom_site_fract_x
_atom_site_fract_y
_atom_site_fract_z
_atom_site_charge
C 	C 	0.88030 0.60310 0.99900 0.20400
C 	C 	0.89470 0.60470 0.88700 -0.21600
H 	H 	0.88480 0.58860 0.83090 0.10500
C 	C 	0.92380 0.63030 0.85900 0.11400
H 	H 	0.93340 0.63220 0.78580 -0.01700
C 	C 	0.93810 0.65350 0.95100 -0.21100
H 	H 	0.95800 0.67050 0.93810 0.10800
C 	C 	0.92190 0.65030 0.05900 0.19700
C 	C 	0.89340 0.62470 0.08500 -0.27300
H 	H 	0.88380 0.62250 0.15820 0.12600
C 	C 	0.94510 0.71300 0.13800 0.10400
H 	H 	0.94360 0.72720 0.07170 -0.03100
C 	C 	0.94160 0.66790 0.25700 0.10900
H 	H 	0.93720 0.64420 0.28960 -0.03100
C 	C 	0.81840 0.57170 0.96100 0.09900
H 	H 	0.81380 0.58240 0.88950 -0.01800
C 	C 	0.84520 0.55710 0.12000 0.08900
H 	H 	0.86230 0.55680 0.18100 -0.02200
C 	C 	0.83830 0.66430 0.66600 0.24400
C 	C 	0.83620 0.62950 0.60640 -0.31400
H 	H 	0.85730 0.61940 0.56910 0.13700
C 	C 	0.80260 0.61170 0.60600 0.25400
C 	C 	0.77200 0.62610 0.66100 -0.29500
H 	H 	0.74850 0.61420 0.65470 0.13500
C 	C 	0.77580 0.65930 0.72700 0.19000
H 	H 	0.75640 0.66720 0.77580 -0.04000
C 	C 	0.80960 0.68010 0.71800 -0.30100
H 	H 	0.81150 0.70450 0.74800 0.13600
C 	C 	0.88930 0.70900 0.72900 0.09400
H 	H 	0.87900 0.71350 0.80080 -0.00100
C 	C 	0.89640 0.68870 0.55900 0.09700
H 	H 	0.89190 0.67540 0.49220 -0.03500
C 	C 	0.80910 0.56970 0.43500 0.11100
H 	H 	0.82270 0.58650 0.38950 -0.02700
C 	C 	0.78030 0.54460 0.57300 0.12300
H 	H 	0.77030 0.54040 0.64570 -0.05600
Cu	Cu	0.96905 0.70842 0.47260 0.79700
Cu	Cu	0.78627 0.51152 0.24410 0.82700
N 	N 	0.93610 0.67580 0.14540 -0.17500
N 	N 	0.95380 0.69740 0.31180 -0.25700
N 	N 	0.95620 0.72660 0.23500 -0.27300
N 	N 	0.84940 0.57810 0.02120 -0.17400
N 	N 	0.81310 0.53750 0.11510 -0.22600
N 	N 	0.79450 0.54790 0.01430 -0.22600
N 	N 	0.79850 0.57730 0.54290 -0.19100
N 	N 	0.79810 0.53630 0.40360 -0.21400
N 	N 	0.77840 0.52030 0.49250 -0.23200
N 	N 	0.87440 0.68590 0.65120 -0.17600
N 	N 	0.92510 0.71210 0.57320 -0.23100
N 	N 	0.92150 0.72480 0.68800 -0.11200
C 	C 	0.38030 0.10310 0.49900 0.20200
C 	C 	0.39470 0.10470 0.38700 -0.21700
H 	H 	0.38480 0.08860 0.33090 0.10400
C 	C 	0.42380 0.13030 0.35900 0.11300
H 	H 	0.43340 0.13220 0.28580 -0.01800
C 	C 	0.43810 0.15350 0.45100 -0.21300
H 	H 	0.45800 0.17050 0.43810 0.10700
C 	C 	0.42190 0.15030 0.55900 0.19600
C 	C 	0.39340 0.12470 0.58500 -0.27400
H 	H 	0.38380 0.12250 0.65820 0.12500
C 	C 	0.44510 0.21300 0.63800 0.10300
H 	H 	0.44360 0.22720 0.57170 -0.03200
C 	C 	0.44160 0.16790 0.75700 0.10800
H 	H 	0.43720 0.14420 0.78960 -0.03200
C 	C 	0.31840 0.07170 0.46100 0.09800
H 	H 	0.31380 0.08240 0.38950 -0.01900
C 	C 	0.34520 0.05710 0.62000 0.08800
H 	H 	0.36230 0.05680 0.68100 -0.02300
C 	C 	0.33830 0.16430 0.16600 0.24400
C 	C 	0.33620 0.12950 0.10640 -0.31500
H 	H 	0.35730 0.11940 0.06910 0.13700
C 	C 	0.30260 0.11170 0.10600 0.25400
C 	C 	0.27200 0.12610 0.16100 -0.29600
H 	H 	0.24850 0.11420 0.15470 0.13400
C 	C 	0.27580 0.15930 0.22700 0.19000
H 	H 	0.25640 0.16720 0.27580 -0.04200
C 	C 	0.30960 0.18010 0.21800 -0.30200
H 	H 	0.31150 0.20450 0.24800 0.13600
C 	C 	0.38930 0.20900 0.22900 0.09400
H 	H 	0.37900 0.21350 0.30080 -0.00100
C 	C 	0.39640 0.18870 0.05900 0.10200
H 	H 	0.39190 0.17540 0.99220 -0.03800
C 	C 	0.30910 0.06970 0.93500 0.10900
H 	H 	0.32270 0.08650 0.88950 -0.02700
C 	C 	0.28030 0.04460 0.07300 0.12500
H 	H 	0.27030 0.04040 0.14570 -0.05600
Cu	Cu	0.46905 0.20842 0.97260 0.79600
Cu	Cu	0.28627 0.01152 0.74410 0.82700
N 	N 	0.43610 0.17580 0.64540 -0.17500
N 	N 	0.45380 0.19740 0.81180 -0.25700
N 	N 	0.45620 0.22660 0.73500 -0.27300
N 	N 	0.34940 0.07810 0.52120 -0.17400
N 	N 	0.31310 0.03750 0.61510 -0.22600
N 	N 	0.29450 0.04790 0.51430 -0.22600
N 	N 	0.29850 0.07730 0.04290 -0.19000
N 	N 	0.29810 0.03630 0.90360 -0.21400
N 	N 	0.27840 0.02030 0.99250 -0.23200
N 	N 	0.37440 0.18590 0.15120 -0.17700
N 	N 	0.42510 0.21210 0.07320 -0.23100
N 	N 	0.42150 0.22480 0.18800 -0.11200
C 	C 	0.61970 0.39690 0.49900 0.20200
C 	C 	0.60530 0.39530 0.38700 -0.21700
H 	H 	0.61520 0.41140 0.33090 0.10400
C 	C 	0.57620 0.36970 0.35900 0.11300
H 	H 	0.56660 0.36780 0.28580 -0.01800
C 	C 	0.56190 0.34650 0.45100 -0.21300
H 	H 	0.54200 0.32950 0.43810 0.10700
C 	C 	0.57810 0.34970 0.55900 0.19600
C 	C 	0.60660 0.37530 0.58500 -0.27400
H 	H 	0.61620 0.37750 0.65820 0.12500
C 	C 	0.55490 0.28700 0.63800 0.10300
H 	H 	0.55640 0.27280 0.57170 -0.03200
C 	C 	0.55840 0.33210 0.75700 0.10800
H 	H 	0.56280 0.35580 0.78960 -0.03200
C 	C 	0.68160 0.42830 0.46100 0.09800
H 	H 	0.68620 0.41760 0.38950 -0.01900
C 	C 	0.65480 0.44290 0.62000 0.08800
H 	H 	0.63770 0.44320 0.68100 -0.02300
C 	C 	0.66170 0.33570 0.16600 0.24400
C 	C 	0.66380 0.37050 0.10640 -0.31500
H 	H 	0.64270 0.38060 0.06910 0.13700
C 	C 	0.69740 0.38830 0.10600 0.25400
C 	C 	0.72800 0.37390 0.16100 -0.29600
H 	H 	0.75150 0.38580 0.15470 0.13400
C 	C 	0.72420 0.34070 0.22700 0.19000
H 	H 	0.74360 0.33280 0.27580 -0.04200
C 	C 	0.69040 0.31990 0.21800 -0.30200
H 	H 	0.68850 0.29550 0.24800 0.13600
C 	C 	0.61070 0.29100 0.22900 0.09400
H 	H 	0.62100 0.28650 0.30080 -0.00100
C 	C 	0.60360 0.31130 0.05900 0.10200
H 	H 	0.60810 0.32460 0.99220 -0.03800
C 	C 	0.69090 0.43030 0.93500 0.10900
H 	H 	0.67730 0.41350 0.88950 -0.02700
C 	C 	0.71970 0.45540 0.07300 0.12500
H 	H 	0.72970 0.45960 0.14570 -0.05600
Cu	Cu	0.53095 0.29158 0.97260 0.79600
Cu	Cu	0.71373 0.48848 0.74410 0.82700
N 	N 	0.56390 0.32420 0.64540 -0.17500
N 	N 	0.54620 0.30260 0.81180 -0.25700
N 	N 	0.54380 0.27340 0.73500 -0.27300
N 	N 	0.65060 0.42190 0.52120 -0.17400
N 	N 	0.68690 0.46250 0.61510 -0.22600
N 	N 	0.70550 0.45210 0.51430 -0.22600
N 	N 	0.70150 0.42270 0.04290 -0.19000
N 	N 	0.70190 0.46370 0.90360 -0.21400
N 	N 	0.72160 0.47970 0.99250 -0.23200
N 	N 	0.62560 0.31410 0.15120 -0.17700
N 	N 	0.57490 0.28790 0.07320 -0.23100
N 	N 	0.57850 0.27520 0.18800 -0.11200
C 	C 	0.11970 0.89690 0.99900 0.20300
C 	C 	0.10530 0.89530 0.88700 -0.21700
H 	H 	0.11520 0.91140 0.83090 0.10400
C 	C 	0.07620 0.86970 0.85900 0.11300
H 	H 	0.06660 0.86780 0.78580 -0.01800
C 	C 	0.06190 0.84650 0.95100 -0.21200
H 	H 	0.04200 0.82950 0.93810 0.10700
C 	C 	0.07810 0.84970 0.05900 0.19600
C 	C 	0.10660 0.87530 0.08500 -0.27400
H 	H 	0.11620 0.87750 0.15820 0.12500
C 	C 	0.05490 0.78700 0.13800 0.10300
H 	H 	0.05640 0.77280 0.07170 -0.03200
C 	C 	0.05840 0.83210 0.25700 0.10800
H 	H 	0.06280 0.85580 0.28960 -0.03200
C 	C 	0.18160 0.92830 0.96100 0.09800
H 	H 	0.18620 0.91760 0.88950 -0.01900
C 	C 	0.15480 0.94290 0.12000 0.08800
H 	H 	0.13770 0.94320 0.18100 -0.02300
C 	C 	0.16170 0.83570 0.66600 0.24300
C 	C 	0.16380 0.87050 0.60640 -0.31500
H 	H 	0.14270 0.88060 0.56910 0.13600
C 	C 	0.19740 0.88830 0.60600 0.25300
C 	C 	0.22800 0.87390 0.66100 -0.29600
H 	H 	0.25150 0.88580 0.65470 0.13400
C 	C 	0.22420 0.84070 0.72700 0.18900
H 	H 	0.24360 0.83280 0.77580 -0.04100
C 	C 	0.19040 0.81990 0.71800 -0.30200
H 	H 	0.18850 0.79550 0.74800 0.13500
C 	C 	0.11070 0.79100 0.72900 0.09400
H 	H 	0.12100 0.78650 0.80080 -0.00100
C 	C 	0.10360 0.81130 0.55900 0.09700
H 	H 	0.10810 0.82460 0.49220 -0.03500
C 	C 	0.19090 0.93030 0.43500 0.11100
H 	H 	0.17730 0.91350 0.38950 -0.02700
C 	C 	0.21970 0.95540 0.57300 0.12300
H 	H 	0.22970 0.95960 0.64570 -0.05600
Cu	Cu	0.03095 0.79158 0.47260 0.79700
Cu	Cu	0.21373 0.98848 0.24410 0.82700
N 	N 	0.06390 0.82420 0.14540 -0.17500
N 	N 	0.04620 0.80260 0.31180 -0.25700
N 	N 	0.04380 0.77340 0.23500 -0.27300
N 	N 	0.15060 0.92190 0.02120 -0.17400
N 	N 	0.18690 0.96250 0.11510 -0.22600
N 	N 	0.20550 0.95210 0.01430 -0.22600
N 	N 	0.20150 0.92270 0.54290 -0.19100
N 	N 	0.20190 0.96370 0.40360 -0.21400
N 	N 	0.22160 0.97970 0.49250 -0.23200
N 	N 	0.12560 0.81410 0.65120 -0.17600
N 	N 	0.07490 0.78790 0.57320 -0.23100
N 	N 	0.07850 0.77520 0.68800 -0.11200
C 	C 	0.14690 0.13030 0.24900 0.20200
C 	C 	0.14530 0.14470 0.13700 -0.21700
H 	H 	0.16140 0.13480 0.08090 0.10400
C 	C 	0.11970 0.17380 0.10900 0.11400
H 	H 	0.11780 0.18340 0.03580 -0.01800
C 	C 	0.09650 0.18810 0.20100 -0.21300
H 	H 	0.07950 0.20800 0.18810 0.10700
C 	C 	0.09970 0.17190 0.30900 0.19700
C 	C 	0.12530 0.14340 0.33500 -0.27400
H 	H 	0.12750 0.13380 0.40820 0.12500
C 	C 	0.03700 0.19510 0.38800 0.10300
H 	H 	0.02280 0.19360 0.32170 -0.03200
C 	C 	0.08210 0.19160 0.50700 0.10800
H 	H 	0.10580 0.18720 0.53960 -0.03200
C 	C 	0.17830 0.06840 0.21100 0.09800
H 	H 	0.16760 0.06380 0.13950 -0.01800
C 	C 	0.19290 0.09520 0.37000 0.08800
H 	H 	0.19320 0.11230 0.43100 -0.02300
C 	C 	0.08570 0.08830 0.91600 0.24200
C 	C 	0.12050 0.08620 0.85640 -0.31400
H 	H 	0.13060 0.10730 0.81910 0.13600
C 	C 	0.13830 0.05260 0.85600 0.25200
C 	C 	0.12390 0.02200 0.91100 -0.29400
H 	H 	0.13580 0.99850 0.90470 0.13300
C 	C 	0.09070 0.02580 0.97700 0.18800
H 	H 	0.08280 0.00640 0.02580 -0.04000
C 	C 	0.06990 0.05960 0.96800 -0.30000
H 	H 	0.04550 0.06150 0.99800 0.13500
C 	C 	0.04100 0.13930 0.97900 0.09200
H 	H 	0.03650 0.12900 0.05080 -0.00000
C 	C 	0.06130 0.14640 0.80900 0.09700
H 	H 	0.07460 0.14190 0.74220 -0.03500
C 	C 	0.18030 0.05910 0.68500 0.11100
H 	H 	0.16350 0.07270 0.63950 -0.02700
C 	C 	0.20540 0.03030 0.82300 0.12300
H 	H 	0.20960 0.02030 0.89570 -0.05600
Cu	Cu	0.04158 0.21905 0.72260 0.79700
Cu	Cu	0.23848 0.03627 0.49410 0.82700
N 	N 	0.07420 0.18610 0.39540 -0.17500
N 	N 	0.05260 0.20380 0.56180 -0.25700
N 	N 	0.02340 0.20620 0.48500 -0.27300
N 	N 	0.17190 0.09940 0.27120 -0.17400
N 	N 	0.21250 0.06310 0.36510 -0.22600
N 	N 	0.20210 0.04450 0.26430 -0.22600
N 	N 	0.17270 0.04850 0.79290 -0.19100
N 	N 	0.21370 0.04810 0.65360 -0.21400
N 	N 	0.22970 0.02840 0.74250 -0.23200
N 	N 	0.06410 0.12440 0.90120 -0.17600
N 	N 	0.03790 0.17510 0.82320 -0.23100
N 	N 	0.02520 0.17150 0.93800 -0.11200
C 	C 	0.64690 0.63030 0.74900 0.20200
C 	C 	0.64530 0.64470 0.63700 -0.21700
H 	H 	0.66140 0.63480 0.58090 0.10400
C 	C 	0.61970 0.67380 0.60900 0.11400
H 	H 	0.61780 0.68340 0.53580 -0.01900
C 	C 	0.59650 0.68810 0.70100 -0.21300
H 	H 	0.57950 0.70800 0.68810 0.10700
C 	C 	0.59970 0.67190 0.80900 0.19700
C 	C 	0.62530 0.64340 0.83500 -0.27400
H 	H 	0.62750 0.63380 0.90820 0.12500
C 	C 	0.53700 0.69510 0.88800 0.10300
H 	H 	0.52280 0.69360 0.82170 -0.03200
C 	C 	0.58210 0.69160 0.00700 0.10600
H 	H 	0.60580 0.68720 0.03960 -0.03100
C 	C 	0.67830 0.56840 0.71100 0.09800
H 	H 	0.66760 0.56380 0.63950 -0.01900
C 	C 	0.69290 0.59520 0.87000 0.08800
H 	H 	0.69320 0.61230 0.93100 -0.02300
C 	C 	0.58570 0.58830 0.41600 0.24300
C 	C 	0.62050 0.58620 0.35640 -0.31500
H 	H 	0.63060 0.60730 0.31910 0.13600
C 	C 	0.63830 0.55260 0.35600 0.25300
C 	C 	0.62390 0.52200 0.41100 -0.29600
H 	H 	0.63580 0.49850 0.40470 0.13400
C 	C 	0.59070 0.52580 0.47700 0.18900
H 	H 	0.58280 0.50640 0.52580 -0.04100
C 	C 	0.56990 0.55960 0.46800 -0.30200
H 	H 	0.54550 0.56150 0.49800 0.13500
C 	C 	0.54100 0.63930 0.47900 0.09400
H 	H 	0.53650 0.62900 0.55080 -0.00100
C 	C 	0.56130 0.64640 0.30900 0.09700
H 	H 	0.57460 0.64190 0.24220 -0.03500
C 	C 	0.68030 0.55910 0.18500 0.11100
H 	H 	0.66350 0.57270 0.13950 -0.02700
C 	C 	0.70540 0.53030 0.32300 0.12300
H 	H 	0.70960 0.52030 0.39570 -0.05600
Cu	Cu	0.54158 0.71905 0.22260 0.79700
Cu	Cu	0.73848 0.53627 0.99410 0.82700
N 	N 	0.57420 0.68610 0.89540 -0.17400
N 	N 	0.55260 0.70380 0.06180 -0.25800
N 	N 	0.52340 0.70620 0.98500 -0.27100
N 	N 	0.67190 0.59940 0.77120 -0.17400
N 	N 	0.71250 0.56310 0.86510 -0.22600
N 	N 	0.70210 0.54450 0.76430 -0.22600
N 	N 	0.67270 0.54850 0.29290 -0.19100
N 	N 	0.71370 0.54810 0.15360 -0.21400
N 	N 	0.72970 0.52840 0.24250 -0.23200
N 	N 	0.56410 0.62440 0.40120 -0.17600
N 	N 	0.53790 0.67510 0.32320 -0.23100
N 	N 	0.52520 0.67150 0.43800 -0.11200
C 	C 	0.35310 0.86970 0.74900 0.20200
C 	C 	0.35470 0.85530 0.63700 -0.21700
H 	H 	0.33860 0.86520 0.58090 0.10400
C 	C 	0.38030 0.82620 0.60900 0.11400
H 	H 	0.38220 0.81660 0.53580 -0.01900
C 	C 	0.40350 0.81190 0.70100 -0.21300
H 	H 	0.42050 0.79200 0.68810 0.10700
C 	C 	0.40030 0.82810 0.80900 0.19700
C 	C 	0.37470 0.85660 0.83500 -0.27400
H 	H 	0.37250 0.86620 0.90820 0.12500
C 	C 	0.46300 0.80490 0.88800 0.10300
H 	H 	0.47720 0.80640 0.82170 -0.03200
C 	C 	0.41790 0.80840 0.00700 0.10600
H 	H 	0.39420 0.81280 0.03960 -0.03100
C 	C 	0.32170 0.93160 0.71100 0.09800
H 	H 	0.33240 0.93620 0.63950 -0.01900
C 	C 	0.30710 0.90480 0.87000 0.08800
H 	H 	0.30680 0.88770 0.93100 -0.02300
C 	C 	0.41430 0.91170 0.41600 0.24300
C 	C 	0.37950 0.91380 0.35640 -0.31500
H 	H 	0.36940 0.89270 0.31910 0.13600
C 	C 	0.36170 0.94740 0.35600 0.25300
C 	C 	0.37610 0.97800 0.41100 -0.29600
H 	H 	0.36420 0.00150 0.40470 0.13400
C 	C 	0.40930 0.97420 0.47700 0.19000
H 	H 	0.41720 0.99360 0.52580 -0.04100
C 	C 	0.43010 0.94040 0.46800 -0.30200
H 	H 	0.45450 0.93850 0.49800 0.13500
C 	C 	0.45900 0.86070 0.47900 0.09400
H 	H 	0.46350 0.87100 0.55080 -0.00100
C 	C 	0.43870 0.85360 0.30900 0.09700
H 	H 	0.42540 0.85810 0.24220 -0.03500
C 	C 	0.31970 0.94090 0.18500 0.11100
H 	H 	0.33650 0.92730 0.13950 -0.02700
C 	C 	0.29460 0.96970 0.32300 0.12300
H 	H 	0.29040 0.97970 0.39570 -0.05600
Cu	Cu	0.45842 0.78095 0.22260 0.79700
Cu	Cu	0.26152 0.96373 0.99410 0.82700
N 	N 	0.42580 0.81390 0.89540 -0.17400
N 	N 	0.44740 0.79620 0.06180 -0.25800
N 	N 	0.47660 0.79380 0.98500 -0.27100
N 	N 	0.32810 0.90060 0.77120 -0.17400
N 	N 	0.28750 0.93690 0.86510 -0.22600
N 	N 	0.29790 0.95550 0.76430 -0.22600
N 	N 	0.32730 0.95150 0.29290 -0.19100
N 	N 	0.28630 0.95190 0.15360 -0.21400
N 	N 	0.27030 0.97160 0.24250 -0.23200
N 	N 	0.43590 0.87560 0.40120 -0.17600
N 	N 	0.46210 0.82490 0.32320 -0.23100
N 	N 	0.47480 0.82850 0.43800 -0.11200
C 	C 	0.85310 0.36970 0.24900 0.20200
C 	C 	0.85470 0.35530 0.13700 -0.21700
H 	H 	0.83860 0.36520 0.08090 0.10400
C 	C 	0.88030 0.32620 0.10900 0.11400
H 	H 	0.88220 0.31660 0.03580 -0.01800
C 	C 	0.90350 0.31190 0.20100 -0.21300
H 	H 	0.92050 0.29200 0.18810 0.10700
C 	C 	0.90030 0.32810 0.30900 0.19700
C 	C 	0.87470 0.35660 0.33500 -0.27400
H 	H 	0.87250 0.36620 0.40820 0.12500
C 	C 	0.96300 0.30490 0.38800 0.10300
H 	H 	0.97720 0.30640 0.32170 -0.03200
C 	C 	0.91790 0.30840 0.50700 0.10800
H 	H 	0.89420 0.31280 0.53960 -0.03200
C 	C 	0.82170 0.43160 0.21100 0.09800
H 	H 	0.83240 0.43620 0.13950 -0.01800
C 	C 	0.80710 0.40480 0.37000 0.08800
H 	H 	0.80680 0.38770 0.43100 -0.02300
C 	C 	0.91430 0.41170 0.91600 0.24200
C 	C 	0.87950 0.41380 0.85640 -0.31400
H 	H 	0.86940 0.39270 0.81910 0.13600
C 	C 	0.86170 0.44740 0.85600 0.25200
C 	C 	0.87610 0.47800 0.91100 -0.29500
H 	H 	0.86420 0.50150 0.90470 0.13300
C 	C 	0.90930 0.47420 0.97700 0.18800
H 	H 	0.91720 0.49360 0.02580 -0.04000
C 	C 	0.93010 0.44040 0.96800 -0.30000
H 	H 	0.95450 0.43850 0.99800 0.13500
C 	C 	0.95900 0.36070 0.97900 0.09200
H 	H 	0.96350 0.37100 0.05080 -0.00000
C 	C 	0.93870 0.35360 0.80900 0.09700
H 	H 	0.92540 0.35810 0.74220 -0.03500
C 	C 	0.81970 0.44090 0.68500 0.11100
H 	H 	0.83650 0.42730 0.63950 -0.02700
C 	C 	0.79460 0.46970 0.82300 0.12300
H 	H 	0.79040 0.47970 0.89570 -0.05600
Cu	Cu	0.95842 0.28095 0.72260 0.79700
Cu	Cu	0.76152 0.46373 0.49410 0.82700
N 	N 	0.92580 0.31390 0.39540 -0.17500
N 	N 	0.94740 0.29620 0.56180 -0.25700
N 	N 	0.97660 0.29380 0.48500 -0.27300
N 	N 	0.82810 0.40060 0.27120 -0.17400
N 	N 	0.78750 0.43690 0.36510 -0.22600
N 	N 	0.79790 0.45550 0.26430 -0.22600
N 	N 	0.82730 0.45150 0.79290 -0.19100
N 	N 	0.78630 0.45190 0.65360 -0.21400
N 	N 	0.77030 0.47160 0.74250 -0.23200
N 	N 	0.93590 0.37560 0.90120 -0.17600
N 	N 	0.96210 0.32490 0.82320 -0.23100
N 	N 	0.97480 0.32850 0.93800 -0.11200
C 	C 	0.11970 0.39690 0.00100 0.20300
C 	C 	0.10530 0.39530 0.11300 -0.21700
H 	H 	0.11520 0.41140 0.16910 0.10400
C 	C 	0.07620 0.36970 0.14100 0.11300
H 	H 	0.06660 0.36780 0.21420 -0.01800
C 	C 	0.06190 0.34650 0.04900 -0.21200
H 	H 	0.04200 0.32950 0.06190 0.10700
C 	C 	0.07810 0.34970 0.94100 0.19600
C 	C 	0.10660 0.37530 0.91500 -0.27400
H 	H 	0.11620 0.37750 0.84180 0.12500
C 	C 	0.05490 0.28700 0.86200 0.10300
H 	H 	0.05640 0.27280 0.92830 -0.03200
C 	C 	0.05840 0.33210 0.74300 0.10800
H 	H 	0.06280 0.35580 0.71040 -0.03200
C 	C 	0.18160 0.42830 0.03900 0.09800
H 	H 	0.18620 0.41760 0.11050 -0.01900
C 	C 	0.15480 0.44290 0.88000 0.08800
H 	H 	0.13770 0.44320 0.81900 -0.02300
C 	C 	0.16170 0.33570 0.33400 0.24300
C 	C 	0.16380 0.37050 0.39360 -0.31500
H 	H 	0.14270 0.38060 0.43090 0.13600
C 	C 	0.19740 0.38830 0.39400 0.25300
C 	C 	0.22800 0.37390 0.33900 -0.29600
H 	H 	0.25150 0.38580 0.34530 0.13400
C 	C 	0.22420 0.34070 0.27300 0.18900
H 	H 	0.24360 0.33280 0.22420 -0.04100
C 	C 	0.19040 0.31990 0.28200 -0.30200
H 	H 	0.18850 0.29550 0.25200 0.13500
C 	C 	0.11070 0.29100 0.27100 0.09400
H 	H 	0.12100 0.28650 0.19920 -0.00100
C 	C 	0.10360 0.31130 0.44100 0.09700
H 	H 	0.10810 0.32460 0.50780 -0.03500
C 	C 	0.19090 0.43030 0.56500 0.11100
H 	H 	0.17730 0.41350 0.61050 -0.02700
C 	C 	0.21970 0.45540 0.42700 0.12300
H 	H 	0.22970 0.45960 0.35430 -0.05600
Cu	Cu	0.03095 0.29158 0.52740 0.79700
Cu	Cu	0.21373 0.48848 0.75590 0.82700
N 	N 	0.06390 0.32420 0.85460 -0.17500
N 	N 	0.04620 0.30260 0.68820 -0.25700
N 	N 	0.04380 0.27340 0.76500 -0.27300
N 	N 	0.15060 0.42190 0.97880 -0.17400
N 	N 	0.18690 0.46250 0.88490 -0.22600
N 	N 	0.20550 0.45210 0.98570 -0.22600
N 	N 	0.20150 0.42270 0.45710 -0.19100
N 	N 	0.20190 0.46370 0.59640 -0.21400
N 	N 	0.22160 0.47970 0.50750 -0.23200
N 	N 	0.12560 0.31410 0.34880 -0.17600
N 	N 	0.07490 0.28790 0.42680 -0.23100
N 	N 	0.07850 0.27520 0.31200 -0.11200
C 	C 	0.61970 0.89690 0.50100 0.20200
C 	C 	0.60530 0.89530 0.61300 -0.21700
H 	H 	0.61520 0.91140 0.66910 0.10400
C 	C 	0.57620 0.86970 0.64100 0.11300
H 	H 	0.56660 0.86780 0.71420 -0.01800
C 	C 	0.56190 0.84650 0.54900 -0.21300
H 	H 	0.54200 0.82950 0.56190 0.10700
C 	C 	0.57810 0.84970 0.44100 0.19600
C 	C 	0.60660 0.87530 0.41500 -0.27400
H 	H 	0.61620 0.87750 0.34180 0.12500
C 	C 	0.55490 0.78700 0.36200 0.10300
H 	H 	0.55640 0.77280 0.42830 -0.03200
C 	C 	0.55840 0.83210 0.24300 0.10800
H 	H 	0.56280 0.85580 0.21040 -0.03200
C 	C 	0.68160 0.92830 0.53900 0.09800
H 	H 	0.68620 0.91760 0.61050 -0.01900
C 	C 	0.65480 0.94290 0.38000 0.08800
H 	H 	0.63770 0.94320 0.31900 -0.02300
C 	C 	0.66170 0.83570 0.83400 0.24400
C 	C 	0.66380 0.87050 0.89360 -0.31500
H 	H 	0.64270 0.88060 0.93090 0.13700
C 	C 	0.69740 0.88830 0.89400 0.25400
C 	C 	0.72800 0.87390 0.83900 -0.29600
H 	H 	0.75150 0.88580 0.84530 0.13400
C 	C 	0.72420 0.84070 0.77300 0.19000
H 	H 	0.74360 0.83280 0.72420 -0.04200
C 	C 	0.69040 0.81990 0.78200 -0.30200
H 	H 	0.68850 0.79550 0.75200 0.13600
C 	C 	0.61070 0.79100 0.77100 0.09400
H 	H 	0.62100 0.78650 0.69920 -0.00100
C 	C 	0.60360 0.81130 0.94100 0.10200
H 	H 	0.60810 0.82460 0.00780 -0.03800
C 	C 	0.69090 0.93030 0.06500 0.10900
H 	H 	0.67730 0.91350 0.11050 -0.02700
C 	C 	0.71970 0.95540 0.92700 0.12500
H 	H 	0.72970 0.95960 0.85430 -0.05600
Cu	Cu	0.53095 0.79158 0.02740 0.79600
Cu	Cu	0.71373 0.98848 0.25590 0.82700
N 	N 	0.56390 0.82420 0.35460 -0.17500
N 	N 	0.54620 0.80260 0.18820 -0.25700
N 	N 	0.54380 0.77340 0.26500 -0.27300
N 	N 	0.65060 0.92190 0.47880 -0.17400
N 	N 	0.68690 0.96250 0.38490 -0.22600
N 	N 	0.70550 0.95210 0.48570 -0.22600
N 	N 	0.70150 0.92270 0.95710 -0.19000
N 	N 	0.70190 0.96370 0.09640 -0.21400
N 	N 	0.72160 0.97970 0.00750 -0.23200
N 	N 	0.62560 0.81410 0.84880 -0.17700
N 	N 	0.57490 0.78790 0.92680 -0.23100
N 	N 	0.57850 0.77520 0.81200 -0.11200
C 	C 	0.38030 0.60310 0.50100 0.20200
C 	C 	0.39470 0.60470 0.61300 -0.21700
H 	H 	0.38480 0.58860 0.66910 0.10400
C 	C 	0.42380 0.63030 0.64100 0.11300
H 	H 	0.43340 0.63220 0.71420 -0.01800
C 	C 	0.43810 0.65350 0.54900 -0.21300
H 	H 	0.45800 0.67050 0.56190 0.10700
C 	C 	0.42190 0.65030 0.44100 0.19600
C 	C 	0.39340 0.62470 0.41500 -0.27400
H 	H 	0.38380 0.62250 0.34180 0.12500
C 	C 	0.44510 0.71300 0.36200 0.10300
H 	H 	0.44360 0.72720 0.42830 -0.03200
C 	C 	0.44160 0.66790 0.24300 0.10800
H 	H 	0.43720 0.64420 0.21040 -0.03200
C 	C 	0.31840 0.57170 0.53900 0.09800
H 	H 	0.31380 0.58240 0.61050 -0.01900
C 	C 	0.34520 0.55710 0.38000 0.08800
H 	H 	0.36230 0.55680 0.31900 -0.02300
C 	C 	0.33830 0.66430 0.83400 0.24400
C 	C 	0.33620 0.62950 0.89360 -0.31500
H 	H 	0.35730 0.61940 0.93090 0.13700
C 	C 	0.30260 0.61170 0.89400 0.25400
C 	C 	0.27200 0.62610 0.83900 -0.29600
H 	H 	0.24850 0.61420 0.84530 0.13400
C 	C 	0.27580 0.65930 0.77300 0.19000
H 	H 	0.25640 0.66720 0.72420 -0.04200
C 	C 	0.30960 0.68010 0.78200 -0.30200
H 	H 	0.31150 0.70450 0.75200 0.13600
C 	C 	0.38930 0.70900 0.77100 0.09400
H 	H 	0.37900 0.71350 0.69920 -0.00100
C 	C 	0.39640 0.68870 0.94100 0.10200
H 	H 	0.39190 0.67540 0.00780 -0.03800
C 	C 	0.30910 0.56970 0.06500 0.10900
H 	H 	0.32270 0.58650 0.11050 -0.02700
C 	C 	0.28030 0.54460 0.92700 0.12500
H 	H 	0.27030 0.54040 0.85430 -0.05600
Cu	Cu	0.46905 0.70842 0.02740 0.79600
Cu	Cu	0.28627 0.51152 0.25590 0.82700
N 	N 	0.43610 0.67580 0.35460 -0.17500
N 	N 	0.45380 0.69740 0.18820 -0.25700
N 	N 	0.45620 0.72660 0.26500 -0.27300
N 	N 	0.34940 0.57810 0.47880 -0.17400
N 	N 	0.31310 0.53750 0.38490 -0.22600
N 	N 	0.29450 0.54790 0.48570 -0.22600
N 	N 	0.29850 0.57730 0.95710 -0.19000
N 	N 	0.29810 0.53630 0.09640 -0.21400
N 	N 	0.27840 0.52030 0.00750 -0.23200
N 	N 	0.37440 0.68590 0.84880 -0.17700
N 	N 	0.42510 0.71210 0.92680 -0.23100
N 	N 	0.42150 0.72480 0.81200 -0.11200
C 	C 	0.88030 0.10310 0.00100 0.20300
C 	C 	0.89470 0.10470 0.11300 -0.21700
H 	H 	0.88480 0.08860 0.16910 0.10400
C 	C 	0.92380 0.13030 0.14100 0.11300
H 	H 	0.93340 0.13220 0.21420 -0.01800
C 	C 	0.93810 0.15350 0.04900 -0.21200
H 	H 	0.95800 0.17050 0.06190 0.10700
C 	C 	0.92190 0.15030 0.94100 0.19600
C 	C 	0.89340 0.12470 0.91500 -0.27400
H 	H 	0.88380 0.12250 0.84180 0.12500
C 	C 	0.94510 0.21300 0.86200 0.10300
H 	H 	0.94360 0.22720 0.92830 -0.03200
C 	C 	0.94160 0.16790 0.74300 0.10800
H 	H 	0.93720 0.14420 0.71040 -0.03200
C 	C 	0.81840 0.07170 0.03900 0.09800
H 	H 	0.81380 0.08240 0.11050 -0.01900
C 	C 	0.84520 0.05710 0.88000 0.08800
H 	H 	0.86230 0.05680 0.81900 -0.02300
C 	C 	0.83830 0.16430 0.33400 0.24300
C 	C 	0.83620 0.12950 0.39360 -0.31500
H 	H 	0.85730 0.11940 0.43090 0.13600
C 	C 	0.80260 0.11170 0.39400 0.25300
C 	C 	0.77200 0.12610 0.33900 -0.29600
H 	H 	0.74850 0.11420 0.34530 0.13400
C 	C 	0.77580 0.15930 0.27300 0.18900
H 	H 	0.75640 0.16720 0.22420 -0.04100
C 	C 	0.80960 0.18010 0.28200 -0.30200
H 	H 	0.81150 0.20450 0.25200 0.13500
C 	C 	0.88930 0.20900 0.27100 0.09400
H 	H 	0.87900 0.21350 0.19920 -0.00100
C 	C 	0.89640 0.18870 0.44100 0.09700
H 	H 	0.89190 0.17540 0.50780 -0.03500
C 	C 	0.80910 0.06970 0.56500 0.11100
H 	H 	0.82270 0.08650 0.61050 -0.02700
C 	C 	0.78030 0.04460 0.42700 0.12300
H 	H 	0.77030 0.04040 0.35430 -0.05600
Cu	Cu	0.96905 0.20842 0.52740 0.79700
Cu	Cu	0.78627 0.01152 0.75590 0.82700
N 	N 	0.93610 0.17580 0.85460 -0.17500
N 	N 	0.95380 0.19740 0.68820 -0.25700
N 	N 	0.95620 0.22660 0.76500 -0.27300
N 	N 	0.84940 0.07810 0.97880 -0.17400
N 	N 	0.81310 0.03750 0.88490 -0.22600
N 	N 	0.79450 0.04790 0.98570 -0.22600
N 	N 	0.79850 0.07730 0.45710 -0.19100
N 	N 	0.79810 0.03630 0.59640 -0.21400
N 	N 	0.77840 0.02030 0.50750 -0.23200
N 	N 	0.87440 0.18590 0.34880 -0.17600
N 	N 	0.92510 0.21210 0.42680 -0.23100
N 	N 	0.92150 0.22480 0.31200 -0.11200
C 	C 	0.85310 0.86970 0.75100 0.20200
C 	C 	0.85470 0.85530 0.86300 -0.21700
H 	H 	0.83860 0.86520 0.91910 0.10400
C 	C 	0.88030 0.82620 0.89100 0.11400
H 	H 	0.88220 0.81660 0.96420 -0.01800
C 	C 	0.90350 0.81190 0.79900 -0.21300
H 	H 	0.92050 0.79200 0.81190 0.10700
C 	C 	0.90030 0.82810 0.69100 0.19700
C 	C 	0.87470 0.85660 0.66500 -0.27400
H 	H 	0.87250 0.86620 0.59180 0.12500
C 	C 	0.96300 0.80490 0.61200 0.10300
H 	H 	0.97720 0.80640 0.67830 -0.03200
C 	C 	0.91790 0.80840 0.49300 0.10800
H 	H 	0.89420 0.81280 0.46040 -0.03200
C 	C 	0.82170 0.93160 0.78900 0.09800
H 	H 	0.83240 0.93620 0.86050 -0.01800
C 	C 	0.80710 0.90480 0.63000 0.08800
H 	H 	0.80680 0.88770 0.56900 -0.02300
C 	C 	0.91430 0.91170 0.08400 0.24200
C 	C 	0.87950 0.91380 0.14360 -0.31400
H 	H 	0.86940 0.89270 0.18090 0.13600
C 	C 	0.86170 0.94740 0.14400 0.25200
C 	C 	0.87610 0.97800 0.08900 -0.29400
H 	H 	0.86420 0.00150 0.09530 0.13300
C 	C 	0.90930 0.97420 0.02300 0.18800
H 	H 	0.91720 0.99360 0.97420 -0.04000
C 	C 	0.93010 0.94040 0.03200 -0.30000
H 	H 	0.95450 0.93850 0.00200 0.13500
C 	C 	0.95900 0.86070 0.02100 0.09200
H 	H 	0.96350 0.87100 0.94920 -0.00000
C 	C 	0.93870 0.85360 0.19100 0.09700
H 	H 	0.92540 0.85810 0.25780 -0.03500
C 	C 	0.81970 0.94090 0.31500 0.11100
H 	H 	0.83650 0.92730 0.36050 -0.02700
C 	C 	0.79460 0.96970 0.17700 0.12300
H 	H 	0.79040 0.97970 0.10430 -0.05600
Cu	Cu	0.95842 0.78095 0.27740 0.79700
Cu	Cu	0.76152 0.96373 0.50590 0.82700
N 	N 	0.92580 0.81390 0.60460 -0.17500
N 	N 	0.94740 0.79620 0.43820 -0.25700
N 	N 	0.97660 0.79380 0.51500 -0.27300
N 	N 	0.82810 0.90060 0.72880 -0.17400
N 	N 	0.78750 0.93690 0.63490 -0.22600
N 	N 	0.79790 0.95550 0.73570 -0.22600
N 	N 	0.82730 0.95150 0.20710 -0.19100
N 	N 	0.78630 0.95190 0.34640 -0.21400
N 	N 	0.77030 0.97160 0.25750 -0.23200
N 	N 	0.93590 0.87560 0.09880 -0.17600
N 	N 	0.96210 0.82490 0.17680 -0.23100
N 	N 	0.97480 0.82850 0.06200 -0.11200
C 	C 	0.35310 0.36970 0.25100 0.20200
C 	C 	0.35470 0.35530 0.36300 -0.21700
H 	H 	0.33860 0.36520 0.41910 0.10400
C 	C 	0.38030 0.32620 0.39100 0.11400
H 	H 	0.38220 0.31660 0.46420 -0.01900
C 	C 	0.40350 0.31190 0.29900 -0.21300
H 	H 	0.42050 0.29200 0.31190 0.10700
C 	C 	0.40030 0.32810 0.19100 0.19700
C 	C 	0.37470 0.35660 0.16500 -0.27400
H 	H 	0.37250 0.36620 0.09180 0.12500
C 	C 	0.46300 0.30490 0.11200 0.10300
H 	H 	0.47720 0.30640 0.17830 -0.03200
C 	C 	0.41790 0.30840 0.99300 0.10600
H 	H 	0.39420 0.31280 0.96040 -0.03100
C 	C 	0.32170 0.43160 0.28900 0.09800
H 	H 	0.33240 0.43620 0.36050 -0.01900
C 	C 	0.30710 0.40480 0.13000 0.08800
H 	H 	0.30680 0.38770 0.06900 -0.02300
C 	C 	0.41430 0.41170 0.58400 0.24300
C 	C 	0.37950 0.41380 0.64360 -0.31500
H 	H 	0.36940 0.39270 0.68090 0.13600
C 	C 	0.36170 0.44740 0.64400 0.25300
C 	C 	0.37610 0.47800 0.58900 -0.29600
H 	H 	0.36420 0.50150 0.59530 0.13400
C 	C 	0.40930 0.47420 0.52300 0.18900
H 	H 	0.41720 0.49360 0.47420 -0.04100
C 	C 	0.43010 0.44040 0.53200 -0.30200
H 	H 	0.45450 0.43850 0.50200 0.13500
C 	C 	0.45900 0.36070 0.52100 0.09400
H 	H 	0.46350 0.37100 0.44920 -0.00100
C 	C 	0.43870 0.35360 0.69100 0.09700
H 	H 	0.42540 0.35810 0.75780 -0.03500
C 	C 	0.31970 0.44090 0.81500 0.11100
H 	H 	0.33650 0.42730 0.86050 -0.02700
C 	C 	0.29460 0.46970 0.67700 0.12300
H 	H 	0.29040 0.47970 0.60430 -0.05600
Cu	Cu	0.45842 0.28095 0.77740 0.79700
Cu	Cu	0.26152 0.46373 0.00590 0.82700
N 	N 	0.42580 0.31390 0.10460 -0.17400
N 	N 	0.44740 0.29620 0.93820 -0.25800
N 	N 	0.47660 0.29380 0.01500 -0.27100
N 	N 	0.32810 0.40060 0.22880 -0.17400
N 	N 	0.28750 0.43690 0.13490 -0.22600
N 	N 	0.29790 0.45550 0.23570 -0.22600
N 	N 	0.32730 0.45150 0.70710 -0.19100
N 	N 	0.28630 0.45190 0.84640 -0.21400
N 	N 	0.27030 0.47160 0.75750 -0.23200
N 	N 	0.43590 0.37560 0.59880 -0.17600
N 	N 	0.46210 0.32490 0.67680 -0.23100
N 	N 	0.47480 0.32850 0.56200 -0.11200
C 	C 	0.64690 0.13030 0.25100 0.20200
C 	C 	0.64530 0.14470 0.36300 -0.21700
H 	H 	0.66140 0.13480 0.41910 0.10400
C 	C 	0.61970 0.17380 0.39100 0.11400
H 	H 	0.61780 0.18340 0.46420 -0.01900
C 	C 	0.59650 0.18810 0.29900 -0.21300
H 	H 	0.57950 0.20800 0.31190 0.10700
C 	C 	0.59970 0.17190 0.19100 0.19700
C 	C 	0.62530 0.14340 0.16500 -0.27400
H 	H 	0.62750 0.13380 0.09180 0.12500
C 	C 	0.53700 0.19510 0.11200 0.10300
H 	H 	0.52280 0.19360 0.17830 -0.03200
C 	C 	0.58210 0.19160 0.99300 0.10600
H 	H 	0.60580 0.18720 0.96040 -0.03100
C 	C 	0.67830 0.06840 0.28900 0.09800
H 	H 	0.66760 0.06380 0.36050 -0.01900
C 	C 	0.69290 0.09520 0.13000 0.08800
H 	H 	0.69320 0.11230 0.06900 -0.02300
C 	C 	0.58570 0.08830 0.58400 0.24300
C 	C 	0.62050 0.08620 0.64360 -0.31500
H 	H 	0.63060 0.10730 0.68090 0.13600
C 	C 	0.63830 0.05260 0.64400 0.25300
C 	C 	0.62390 0.02200 0.58900 -0.29600
H 	H 	0.63580 0.99850 0.59530 0.13400
C 	C 	0.59070 0.02580 0.52300 0.19000
H 	H 	0.58280 0.00640 0.47420 -0.04100
C 	C 	0.56990 0.05960 0.53200 -0.30200
H 	H 	0.54550 0.06150 0.50200 0.13500
C 	C 	0.54100 0.13930 0.52100 0.09400
H 	H 	0.53650 0.12900 0.44920 -0.00100
C 	C 	0.56130 0.14640 0.69100 0.09700
H 	H 	0.57460 0.14190 0.75780 -0.03500
C 	C 	0.68030 0.05910 0.81500 0.11100
H 	H 	0.66350 0.07270 0.86050 -0.02700
C 	C 	0.70540 0.03030 0.67700 0.12300
H 	H 	0.70960 0.02030 0.60430 -0.05600
Cu	Cu	0.54158 0.21905 0.77740 0.79700
Cu	Cu	0.73848 0.03627 0.00590 0.82700
N 	N 	0.57420 0.18610 0.10460 -0.17400
N 	N 	0.55260 0.20380 0.93820 -0.25800
N 	N 	0.52340 0.20620 0.01500 -0.27100
N 	N 	0.67190 0.09940 0.22880 -0.17400
N 	N 	0.71250 0.06310 0.13490 -0.22600
N 	N 	0.70210 0.04450 0.23570 -0.22600
N 	N 	0.67270 0.04850 0.70710 -0.19100
N 	N 	0.71370 0.04810 0.84640 -0.21400
N 	N 	0.72970 0.02840 0.75750 -0.23200
N 	N 	0.56410 0.12440 0.59880 -0.17600
N 	N 	0.53790 0.17510 0.67680 -0.23100
N 	N 	0.52520 0.17150 0.56200 -0.11200
C 	C 	0.14690 0.63030 0.75100 0.20200
C 	C 	0.14530 0.64470 0.86300 -0.21700
H 	H 	0.16140 0.63480 0.91910 0.10400
C 	C 	0.11970 0.67380 0.89100 0.11400
H 	H 	0.11780 0.68340 0.96420 -0.01800
C 	C 	0.09650 0.68810 0.79900 -0.21300
H 	H 	0.07950 0.70800 0.81190 0.10700
C 	C 	0.09970 0.67190 0.69100 0.19700
C 	C 	0.12530 0.64340 0.66500 -0.27400
H 	H 	0.12750 0.63380 0.59180 0.12500
C 	C 	0.03700 0.69510 0.61200 0.10300
H 	H 	0.02280 0.69360 0.67830 -0.03200
C 	C 	0.08210 0.69160 0.49300 0.10800
H 	H 	0.10580 0.68720 0.46040 -0.03200
C 	C 	0.17830 0.56840 0.78900 0.09800
H 	H 	0.16760 0.56380 0.86050 -0.01800
C 	C 	0.19290 0.59520 0.63000 0.08800
H 	H 	0.19320 0.61230 0.56900 -0.02300
C 	C 	0.08570 0.58830 0.08400 0.24200
C 	C 	0.12050 0.58620 0.14360 -0.31400
H 	H 	0.13060 0.60730 0.18090 0.13600
C 	C 	0.13830 0.55260 0.14400 0.25200
C 	C 	0.12390 0.52200 0.08900 -0.29500
H 	H 	0.13580 0.49850 0.09530 0.13300
C 	C 	0.09070 0.52580 0.02300 0.18800
H 	H 	0.08280 0.50640 0.97420 -0.04000
C 	C 	0.06990 0.55960 0.03200 -0.30000
H 	H 	0.04550 0.56150 0.00200 0.13500
C 	C 	0.04100 0.63930 0.02100 0.09200
H 	H 	0.03650 0.62900 0.94920 -0.00000
C 	C 	0.06130 0.64640 0.19100 0.09700
H 	H 	0.07460 0.64190 0.25780 -0.03500
C 	C 	0.18030 0.55910 0.31500 0.11100
H 	H 	0.16350 0.57270 0.36050 -0.02700
C 	C 	0.20540 0.53030 0.17700 0.12300
H 	H 	0.20960 0.52030 0.10430 -0.05600
Cu	Cu	0.04158 0.71905 0.27740 0.79700
Cu	Cu	0.23848 0.53627 0.50590 0.82700
N 	N 	0.07420 0.68610 0.60460 -0.17500
N 	N 	0.05260 0.70380 0.43820 -0.25700
N 	N 	0.02340 0.70620 0.51500 -0.27300
N 	N 	0.17190 0.59940 0.72880 -0.17400
N 	N 	0.21250 0.56310 0.63490 -0.22600
N 	N 	0.20210 0.54450 0.73570 -0.22600
N 	N 	0.17270 0.54850 0.20710 -0.19100
N 	N 	0.21370 0.54810 0.34640 -0.21400
N 	N 	0.22970 0.52840 0.25750 -0.23200
N 	N 	0.06410 0.62440 0.09880 -0.17600
N 	N 	0.03790 0.67510 0.17680 -0.23100
N 	N 	0.02520 0.67150 0.06200 -0.11200
