data_crystal

_cell_length_a 23.73900
_cell_length_b 7.07240
_cell_length_c 11.54050
_cell_angle_alpha 90.00000
_cell_angle_beta  90.00000
_cell_angle_gamma 90.00000

_symmetry_space_group_name_	'P 1'
_symmetry_space_group_name_H-M	'P 1'

loop_
_symmetry_equiv_pos_as_xyz
  x,y,z

loop_
_atom_site_label
_atom_site_type_symbol
_atom_site_fract_x
_atom_site_fract_y
_atom_site_fract_z
_atom_site_charge
N 	N 	0.44039 0.15650 0.42440 -0.19700
C 	C 	0.39154 0.09680 0.37760 -0.08500
H 	H 	0.38050 0.96890 0.36660 0.05100
C 	C 	0.27760 0.08940 0.27140 -0.09400
H 	H 	0.29650 0.97240 0.28240 0.06700
N 	N 	0.39154 0.40320 0.37760 -0.14400
N 	N 	0.94039 0.65650 0.92440 -0.15700
C 	C 	0.89154 0.59680 0.87760 -0.00900
H 	H 	0.88050 0.46890 0.86660 0.03400
C 	C 	0.77760 0.58940 0.77140 -0.04300
H 	H 	0.79650 0.47240 0.78240 0.04600
N 	N 	0.89154 0.90320 0.87760 -0.11400
N 	N 	0.55961 0.34350 0.42440 -0.20200
C 	C 	0.60846 0.40320 0.37760 -0.02000
H 	H 	0.61950 0.53110 0.36660 0.01200
C 	C 	0.72240 0.41060 0.27140 -0.05800
H 	H 	0.70350 0.52760 0.28240 0.03800
N 	N 	0.60846 0.09680 0.37760 -0.16300
N 	N 	0.05961 0.84350 0.92440 -0.18400
C 	C 	0.10846 0.90320 0.87760 0.05300
H 	H 	0.11950 0.03110 0.86660 -0.01400
C 	C 	0.22240 0.91060 0.77140 -0.00700
H 	H 	0.20350 0.02760 0.78240 0.01200
N 	N 	0.10846 0.59680 0.87760 -0.13500
N 	N 	0.55961 0.65650 0.57560 -0.19700
C 	C 	0.60846 0.59680 0.62240 -0.02100
H 	H 	0.61950 0.46890 0.63340 0.01900
C 	C 	0.72240 0.58940 0.72860 -0.03900
H 	H 	0.70350 0.47240 0.71760 0.04200
N 	N 	0.60846 0.90320 0.62240 -0.11800
N 	N 	0.05961 0.15650 0.07560 -0.21500
C 	C 	0.10846 0.09680 0.12240 -0.09400
H 	H 	0.11950 0.96890 0.13340 0.04000
C 	C 	0.22240 0.08940 0.22860 -0.09000
H 	H 	0.20350 0.97240 0.21760 0.06400
N 	N 	0.10846 0.40320 0.12240 -0.14800
N 	N 	0.44039 0.84350 0.57560 -0.20000
C 	C 	0.39154 0.90320 0.62240 0.04700
H 	H 	0.38050 0.03110 0.63340 -0.02200
C 	C 	0.27760 0.91060 0.72860 -0.00600
H 	H 	0.29650 0.02760 0.71760 0.01200
N 	N 	0.39154 0.59680 0.62240 -0.13700
N 	N 	0.94039 0.34350 0.07560 -0.19400
C 	C 	0.89154 0.40320 0.12240 -0.02500
H 	H 	0.88050 0.53110 0.13340 0.01000
C 	C 	0.77760 0.41060 0.22860 -0.05600
H 	H 	0.79650 0.52760 0.21760 0.03800
N 	N 	0.89154 0.09680 0.12240 -0.16300
N 	N 	0.55961 0.84350 0.57560 -0.16400
H 	H 	0.61950 0.03110 0.63340 0.05200
C 	C 	0.72240 0.91060 0.72860 0.00100
H 	H 	0.70350 0.02760 0.71760 0.01100
N 	N 	0.05961 0.34350 0.07560 -0.19600
H 	H 	0.11950 0.53110 0.13340 0.05500
C 	C 	0.22240 0.41060 0.22860 -0.05300
H 	H 	0.20350 0.52760 0.21760 0.03400
N 	N 	0.44039 0.65650 0.57560 -0.17100
H 	H 	0.38050 0.46890 0.63340 0.07400
C 	C 	0.27760 0.58940 0.72860 -0.04300
H 	H 	0.29650 0.47240 0.71760 0.04400
N 	N 	0.94039 0.15650 0.07560 -0.17300
H 	H 	0.88050 0.96890 0.13340 0.08600
C 	C 	0.77760 0.08940 0.22860 -0.09100
H 	H 	0.79650 0.97240 0.21760 0.06900
N 	N 	0.44039 0.34350 0.42440 -0.17600
H 	H 	0.38050 0.53110 0.36660 0.06800
C 	C 	0.27760 0.41060 0.27140 -0.05600
H 	H 	0.29650 0.52760 0.28240 0.03700
N 	N 	0.94039 0.84350 0.92440 -0.12300
H 	H 	0.88050 0.03110 0.86660 0.06900
C 	C 	0.77760 0.91060 0.77140 -0.00300
H 	H 	0.79650 0.02760 0.78240 0.01500
N 	N 	0.55961 0.15650 0.42440 -0.18000
H 	H 	0.61950 0.96890 0.36660 0.09100
C 	C 	0.72240 0.08940 0.27140 -0.09400
H 	H 	0.70350 0.97240 0.28240 0.07000
N 	N 	0.05961 0.65650 0.92440 -0.15500
H 	H 	0.11950 0.46890 0.86660 0.08300
C 	C 	0.22240 0.58940 0.77140 -0.04400
H 	H 	0.20350 0.47240 0.78240 0.04500
Cu	Cu	0.50000 0.00000 0.50000 0.81300
Cu	Cu	-0.00000 0.50000 -0.00000 0.76700
Cu	Cu	0.50000 0.50000 0.50000 0.82800
Cu	Cu	-0.00000 0.00000 -0.00000 0.75400
C 	C 	0.30430 0.25000 0.29700 -0.00000
C 	C 	0.36140 0.25000 0.34930 0.06200
C 	C 	0.80430 0.75000 0.79700 -0.00200
C 	C 	0.86140 0.75000 0.84930 0.07400
C 	C 	0.69570 0.25000 0.29700 0.00800
C 	C 	0.63860 0.25000 0.34930 0.04000
C 	C 	0.19570 0.75000 0.79700 0.00300
C 	C 	0.13860 0.75000 0.84930 0.04500
C 	C 	0.69570 0.75000 0.70300 -0.01000
C 	C 	0.63860 0.75000 0.65070 0.06600
C 	C 	0.19570 0.25000 0.20300 -0.00700
C 	C 	0.13860 0.25000 0.15070 0.05500
C 	C 	0.30430 0.75000 0.70300 -0.00000
C 	C 	0.36140 0.75000 0.65070 0.04300
C 	C 	0.80430 0.25000 0.20300 0.00500
C 	C 	0.86140 0.25000 0.15070 0.04000
