data_crystal

_cell_length_a 29.26490
_cell_length_b 7.89750
_cell_length_c 42.56540
_cell_angle_alpha 90.00000
_cell_angle_beta  90.00000
_cell_angle_gamma 90.00000

_symmetry_space_group_name_	'P 1'
_symmetry_space_group_name_H-M	'P 1'

loop_
_symmetry_equiv_pos_as_xyz
  x,y,z

loop_
_atom_site_label
_atom_site_type_symbol
_atom_site_fract_x
_atom_site_fract_y
_atom_site_fract_z
_atom_site_charge
Zn	Zn	0.84938 0.91663 0.84330 1.17900
O 	O 	0.78817 0.60950 0.50586 -0.31800
O 	O 	0.77970 0.68900 0.66132 -0.29900
O 	O 	0.82897 0.81300 0.80395 -0.46700
O 	O 	0.61890 0.54160 0.60683 -0.31300
C 	C 	0.75848 0.72180 0.60759 -0.34600
O 	O 	0.84892 0.49600 0.36454 -0.31000
C 	C 	0.75538 0.58110 0.55692 -0.35300
O 	O 	0.86335 0.03660 0.78359 -0.32900
C 	C 	0.80053 0.54570 0.47724 0.29900
C 	C 	0.77807 0.49040 0.53025 0.23000
H 	H 	0.80600 0.43740 0.53750 -0.04200
H 	H 	0.75800 0.40260 0.52230 -0.03800
C 	C 	0.70724 0.59060 0.55737 0.44400
C 	C 	0.78124 0.64970 0.58166 0.42000
C 	C 	0.68502 0.66040 0.58346 -0.38200
C 	C 	0.83869 0.93630 0.72217 0.07100
H 	H 	0.85800 0.02930 0.72420 0.02700
C 	C 	0.84027 0.90690 0.78070 0.31600
C 	C 	0.79501 0.74970 0.68922 0.25800
C 	C 	0.82476 0.88690 0.69268 -0.23700
H 	H 	0.83510 0.94490 0.67500 0.10000
N 	N 	0.80979 0.12830 0.85222 -0.14100
C 	C 	0.78481 0.79930 0.63455 0.20500
H 	H 	0.81680 0.81030 0.62900 -0.04100
H 	H 	0.77290 0.91100 0.63940 -0.03000
C 	C 	0.82449 0.84950 0.74911 -0.15500
C 	C 	0.71043 0.72440 0.60893 0.45300
C 	C 	0.68684 0.79450 0.63742 -0.99200
H 	H 	0.70930 0.83160 0.65240 0.34400
H 	H 	0.66810 0.70810 0.64670 0.33400
H 	H 	0.66800 0.88860 0.63140 0.32200
C 	C 	0.83289 0.64740 0.58060 -0.93900
H 	H 	0.84480 0.69910 0.59930 0.31400
H 	H 	0.84320 0.70920 0.56250 0.30600
H 	H 	0.84340 0.53250 0.57930 0.30400
C 	C 	0.79467 0.71270 0.74524 0.12200
H 	H 	0.78450 0.65400 0.76280 -0.00400
C 	C 	0.78971 0.38210 0.46704 -0.31000
H 	H 	0.77440 0.30740 0.48030 0.13700
C 	C 	0.82445 0.44250 0.41656 -0.23200
C 	C 	0.80203 0.33310 0.43708 0.17300
H 	H 	0.79520 0.22390 0.43040 -0.03200
C 	C 	0.83586 0.60170 0.42730 0.17200
H 	H 	0.85170 0.67520 0.41420 -0.03300
C 	C 	0.78018 0.66340 0.71592 -0.25700
H 	H 	0.76040 0.57200 0.71390 0.12800
C 	C 	0.63410 0.66890 0.58503 0.26400
H 	H 	0.62450 0.78010 0.59210 -0.07100
H 	H 	0.62110 0.64830 0.56440 -0.07300
C 	C 	0.68039 0.52930 0.52928 -0.97600
H 	H 	0.64830 0.54380 0.53320 0.31700
H 	H 	0.68680 0.41160 0.52570 0.32400
H 	H 	0.68900 0.59350 0.51110 0.32200
C 	C 	0.82411 0.65430 0.45739 -0.30100
H 	H 	0.83200 0.76220 0.46420 0.12800
C 	C 	0.78270 0.10720 0.88043 -0.41100
H 	H 	0.76470 0.20720 0.88390 0.16200
H 	H 	0.80260 0.08930 0.89810 0.13900
H 	H 	0.76290 0.01130 0.87800 0.14600
C 	C 	0.55950 0.42740 0.63467 -0.25300
H 	H 	0.58030 0.35980 0.64540 0.12000
C 	C 	0.57256 0.53590 0.61205 0.28700
C 	C 	0.78039 0.18670 0.82571 -0.41900
H 	H 	0.76330 0.28440 0.83210 0.15600
H 	H 	0.75970 0.09770 0.81990 0.15000
H 	H 	0.79930 0.21540 0.80810 0.15700
C 	C 	0.50970 0.42260 0.64131 0.08000
H 	H 	0.49830 0.35160 0.65690 -0.01000
C 	C 	0.48069 0.52360 0.62433 -0.14300
C 	C 	0.54078 0.63260 0.59701 -0.28600
H 	H 	0.55080 0.71150 0.58230 0.12100
C 	C 	0.49450 0.61900 0.60250 0.13400
H 	H 	0.47370 0.67920 0.59030 -0.02900
C 	C 	0.83584 0.38560 0.38389 0.39700
O 	O 	0.83126 0.23100 0.37841 -0.51100
Zn	Zn	0.84938 0.08337 0.34330 1.17800
O 	O 	0.78817 0.39050 0.00586 -0.31900
O 	O 	0.77970 0.31100 0.16132 -0.30000
O 	O 	0.82897 0.18700 0.30395 -0.46800
O 	O 	0.61890 0.45840 0.10683 -0.31400
C 	C 	0.75848 0.27820 0.10759 -0.34700
O 	O 	0.84892 0.50400 0.86454 -0.31100
C 	C 	0.75538 0.41890 0.05692 -0.35400
O 	O 	0.86335 0.96340 0.28359 -0.33000
C 	C 	0.80053 0.45430 0.97724 0.29800
C 	C 	0.77807 0.50960 0.03025 0.22900
H 	H 	0.80600 0.56260 0.03750 -0.04300
H 	H 	0.75800 0.59740 0.02230 -0.03900
C 	C 	0.70724 0.40940 0.05737 0.44300
C 	C 	0.78124 0.35030 0.08166 0.42000
C 	C 	0.68502 0.33960 0.08346 -0.38200
C 	C 	0.83869 0.06370 0.22217 0.07100
H 	H 	0.85800 0.97070 0.22420 0.02700
C 	C 	0.84027 0.09310 0.28070 0.31600
C 	C 	0.79501 0.25030 0.18922 0.25800
C 	C 	0.82476 0.11310 0.19268 -0.23700
H 	H 	0.83510 0.05510 0.17500 0.10000
N 	N 	0.80979 0.87170 0.35222 -0.14100
C 	C 	0.78481 0.20070 0.13455 0.20500
H 	H 	0.81680 0.18970 0.12900 -0.04100
H 	H 	0.77290 0.08900 0.13940 -0.03100
C 	C 	0.82449 0.15050 0.24911 -0.15500
C 	C 	0.71043 0.27560 0.10893 0.45300
C 	C 	0.68684 0.20550 0.13742 -0.99200
H 	H 	0.70930 0.16840 0.15240 0.34400
H 	H 	0.66810 0.29190 0.14670 0.33400
H 	H 	0.66800 0.11140 0.13140 0.32200
C 	C 	0.83289 0.35260 0.08060 -0.93900
H 	H 	0.84480 0.30090 0.09930 0.31400
H 	H 	0.84320 0.29080 0.06250 0.30600
H 	H 	0.84340 0.46750 0.07930 0.30400
C 	C 	0.79467 0.28730 0.24524 0.12200
H 	H 	0.78450 0.34600 0.26280 -0.00400
C 	C 	0.78971 0.61790 0.96704 -0.31000
H 	H 	0.77440 0.69260 0.98030 0.13700
C 	C 	0.82445 0.55750 0.91656 -0.23200
C 	C 	0.80203 0.66690 0.93708 0.17300
H 	H 	0.79520 0.77610 0.93040 -0.03200
C 	C 	0.83586 0.39830 0.92730 0.17200
H 	H 	0.85170 0.32480 0.91420 -0.03300
C 	C 	0.78018 0.33660 0.21592 -0.25700
H 	H 	0.76040 0.42800 0.21390 0.12800
C 	C 	0.63410 0.33110 0.08503 0.26400
H 	H 	0.62450 0.21990 0.09210 -0.07100
H 	H 	0.62110 0.35170 0.06440 -0.07300
C 	C 	0.68039 0.47070 0.02928 -0.97600
H 	H 	0.64830 0.45620 0.03320 0.31700
H 	H 	0.68680 0.58840 0.02570 0.32400
H 	H 	0.68900 0.40650 0.01110 0.32200
C 	C 	0.82411 0.34570 0.95739 -0.30100
H 	H 	0.83200 0.23780 0.96420 0.12800
C 	C 	0.78270 0.89280 0.38043 -0.41100
H 	H 	0.76470 0.79280 0.38390 0.16200
H 	H 	0.80260 0.91070 0.39810 0.13900
H 	H 	0.76290 0.98870 0.37800 0.14600
C 	C 	0.55950 0.57260 0.13467 -0.25300
H 	H 	0.58030 0.64020 0.14540 0.12000
C 	C 	0.57256 0.46410 0.11205 0.28700
C 	C 	0.78039 0.81330 0.32571 -0.41900
H 	H 	0.76330 0.71560 0.33210 0.15600
H 	H 	0.75970 0.90230 0.31990 0.15000
H 	H 	0.79930 0.78460 0.30810 0.15700
C 	C 	0.50970 0.57740 0.14131 0.08000
H 	H 	0.49830 0.64840 0.15690 -0.01000
C 	C 	0.48069 0.47640 0.12433 -0.14300
C 	C 	0.54078 0.36740 0.09701 -0.28600
H 	H 	0.55080 0.28850 0.08230 0.12100
C 	C 	0.49450 0.38100 0.10250 0.13400
H 	H 	0.47370 0.32080 0.09030 -0.02900
C 	C 	0.83584 0.61440 0.88389 0.39700
O 	O 	0.83126 0.76900 0.87841 -0.51100
Zn	Zn	0.34938 0.58337 0.15670 1.18300
O 	O 	0.28817 0.89050 0.49414 -0.31100
O 	O 	0.27970 0.81100 0.33868 -0.30200
O 	O 	0.32897 0.68700 0.19605 -0.47300
O 	O 	0.11890 0.95840 0.39317 -0.31100
C 	C 	0.25848 0.77820 0.39241 -0.34500
O 	O 	0.34892 0.00400 0.63546 -0.30200
C 	C 	0.25538 0.91890 0.44308 -0.34500
O 	O 	0.36335 0.46340 0.21641 -0.35600
C 	C 	0.30053 0.95430 0.52276 0.28200
C 	C 	0.27807 0.00960 0.46975 0.21400
H 	H 	0.30600 0.06260 0.46250 -0.04000
H 	H 	0.25800 0.09740 0.47770 -0.03400
C 	C 	0.20724 0.90940 0.44263 0.43700
C 	C 	0.28124 0.85030 0.41834 0.42200
C 	C 	0.18502 0.83960 0.41654 -0.37800
C 	C 	0.33869 0.56370 0.27783 0.14700
H 	H 	0.35800 0.47070 0.27580 -0.01300
C 	C 	0.34027 0.59310 0.21930 0.35700
C 	C 	0.29501 0.75030 0.31078 0.28600
C 	C 	0.32476 0.61310 0.30732 -0.28100
H 	H 	0.33510 0.55510 0.32500 0.12100
N 	N 	0.30979 0.37170 0.14778 -0.14800
C 	C 	0.28481 0.70070 0.36545 0.20600
H 	H 	0.31680 0.68970 0.37100 -0.03900
H 	H 	0.27290 0.58900 0.36060 -0.02700
C 	C 	0.32449 0.65050 0.25089 -0.19300
C 	C 	0.21043 0.77560 0.39107 0.46000
C 	C 	0.18684 0.70550 0.36258 -1.00900
H 	H 	0.20930 0.66840 0.34760 0.35300
H 	H 	0.16810 0.79190 0.35330 0.34400
H 	H 	0.16800 0.61140 0.36860 0.33100
C 	C 	0.33289 0.85260 0.41940 -0.94600
H 	H 	0.34480 0.80090 0.40070 0.31900
H 	H 	0.34320 0.79080 0.43750 0.30900
H 	H 	0.34340 0.96750 0.42070 0.31000
C 	C 	0.29467 0.78730 0.25476 0.15700
H 	H 	0.28450 0.84600 0.23720 -0.01200
C 	C 	0.28971 0.11790 0.53296 -0.29100
H 	H 	0.27440 0.19260 0.51970 0.13100
C 	C 	0.32445 0.05750 0.58344 -0.20800
C 	C 	0.30203 0.16690 0.56292 0.15500
H 	H 	0.29520 0.27610 0.56960 -0.02400
C 	C 	0.33586 0.89830 0.57270 0.14500
H 	H 	0.35170 0.82480 0.58580 -0.02600
C 	C 	0.28018 0.83660 0.28408 -0.28300
H 	H 	0.26040 0.92800 0.28610 0.14400
C 	C 	0.13410 0.83110 0.41497 0.26200
H 	H 	0.12450 0.71990 0.40790 -0.06900
H 	H 	0.12110 0.85170 0.43560 -0.07100
C 	C 	0.18039 0.97070 0.47072 -0.95400
H 	H 	0.14830 0.95620 0.46680 0.31100
H 	H 	0.18680 0.08840 0.47430 0.31500
H 	H 	0.18900 0.90650 0.48890 0.31400
C 	C 	0.32411 0.84570 0.54261 -0.28200
H 	H 	0.33200 0.73780 0.53580 0.12100
C 	C 	0.28270 0.39280 0.11957 -0.40200
H 	H 	0.26470 0.29280 0.11610 0.15600
H 	H 	0.30260 0.41070 0.10190 0.13300
H 	H 	0.26290 0.48870 0.12200 0.13900
C 	C 	0.05950 0.07260 0.36533 -0.26600
H 	H 	0.08030 0.14020 0.35460 0.12100
C 	C 	0.07256 0.96410 0.38795 0.30200
C 	C 	0.28039 0.31330 0.17429 -0.40500
H 	H 	0.26330 0.21560 0.16790 0.14800
H 	H 	0.25970 0.40230 0.18010 0.14100
H 	H 	0.29930 0.28460 0.19190 0.14800
C 	C 	0.00970 0.07740 0.35869 0.05800
H 	H 	0.99830 0.14840 0.34310 -0.00800
C 	C 	0.98069 0.97640 0.37567 -0.11700
C 	C 	0.04078 0.86740 0.40299 -0.28300
H 	H 	0.05080 0.78850 0.41770 0.12100
C 	C 	0.99450 0.88100 0.39750 0.12300
H 	H 	0.97370 0.82080 0.40970 -0.02300
C 	C 	0.33584 0.11440 0.61611 0.38900
O 	O 	0.33126 0.26900 0.62159 -0.50500
Zn	Zn	0.34938 0.41663 0.65670 1.18300
O 	O 	0.28817 0.10950 0.99414 -0.31100
O 	O 	0.27970 0.18900 0.83868 -0.30200
O 	O 	0.32897 0.31300 0.69605 -0.47300
O 	O 	0.11890 0.04160 0.89317 -0.31100
C 	C 	0.25848 0.22180 0.89241 -0.34500
O 	O 	0.34892 0.99600 0.13546 -0.30200
C 	C 	0.25538 0.08110 0.94308 -0.34500
O 	O 	0.36335 0.53660 0.71641 -0.35600
C 	C 	0.30053 0.04570 0.02276 0.28100
C 	C 	0.27807 0.99040 0.96975 0.21400
H 	H 	0.30600 0.93740 0.96250 -0.04000
H 	H 	0.25800 0.90260 0.97770 -0.03400
C 	C 	0.20724 0.09060 0.94263 0.43600
C 	C 	0.28124 0.14970 0.91834 0.42200
C 	C 	0.18502 0.16040 0.91654 -0.37800
C 	C 	0.33869 0.43630 0.77783 0.14700
H 	H 	0.35800 0.52930 0.77580 -0.01300
C 	C 	0.34027 0.40690 0.71930 0.35700
C 	C 	0.29501 0.24970 0.81078 0.28600
C 	C 	0.32476 0.38690 0.80732 -0.28100
H 	H 	0.33510 0.44490 0.82500 0.12100
N 	N 	0.30979 0.62830 0.64778 -0.14800
C 	C 	0.28481 0.29930 0.86545 0.20600
H 	H 	0.31680 0.31030 0.87100 -0.03900
H 	H 	0.27290 0.41100 0.86060 -0.02700
C 	C 	0.32449 0.34950 0.75089 -0.19300
C 	C 	0.21043 0.22440 0.89107 0.46000
C 	C 	0.18684 0.29450 0.86258 -1.00900
H 	H 	0.20930 0.33160 0.84760 0.35300
H 	H 	0.16810 0.20810 0.85330 0.34400
H 	H 	0.16800 0.38860 0.86860 0.33100
C 	C 	0.33289 0.14740 0.91940 -0.94600
H 	H 	0.34480 0.19910 0.90070 0.31900
H 	H 	0.34320 0.20920 0.93750 0.30900
H 	H 	0.34340 0.03250 0.92070 0.31000
C 	C 	0.29467 0.21270 0.75476 0.15700
H 	H 	0.28450 0.15400 0.73720 -0.01200
C 	C 	0.28971 0.88210 0.03296 -0.29000
H 	H 	0.27440 0.80740 0.01970 0.13000
C 	C 	0.32445 0.94250 0.08344 -0.20800
C 	C 	0.30203 0.83310 0.06292 0.15500
H 	H 	0.29520 0.72390 0.06960 -0.02400
C 	C 	0.33586 0.10170 0.07270 0.14500
H 	H 	0.35170 0.17520 0.08580 -0.02600
C 	C 	0.28018 0.16340 0.78408 -0.28300
H 	H 	0.26040 0.07200 0.78610 0.14400
C 	C 	0.13410 0.16890 0.91497 0.26200
H 	H 	0.12450 0.28010 0.90790 -0.06900
H 	H 	0.12110 0.14830 0.93560 -0.07100
C 	C 	0.18039 0.02930 0.97072 -0.95300
H 	H 	0.14830 0.04380 0.96680 0.31000
H 	H 	0.18680 0.91160 0.97430 0.31500
H 	H 	0.18900 0.09350 0.98890 0.31400
C 	C 	0.32411 0.15430 0.04261 -0.28200
H 	H 	0.33200 0.26220 0.03580 0.12100
C 	C 	0.28270 0.60720 0.61957 -0.40200
H 	H 	0.26470 0.70720 0.61610 0.15600
H 	H 	0.30260 0.58930 0.60190 0.13300
H 	H 	0.26290 0.51130 0.62200 0.13900
C 	C 	0.05950 0.92740 0.86533 -0.26600
H 	H 	0.08030 0.85980 0.85460 0.12100
C 	C 	0.07256 0.03590 0.88795 0.30200
C 	C 	0.28039 0.68670 0.67429 -0.40500
H 	H 	0.26330 0.78440 0.66790 0.14800
H 	H 	0.25970 0.59770 0.68010 0.14100
H 	H 	0.29930 0.71540 0.69190 0.14800
C 	C 	0.00970 0.92260 0.85869 0.05800
H 	H 	0.99830 0.85160 0.84310 -0.00800
C 	C 	0.98069 0.02360 0.87567 -0.11700
C 	C 	0.04078 0.13260 0.90299 -0.28300
H 	H 	0.05080 0.21150 0.91770 0.12100
C 	C 	0.99450 0.11900 0.89750 0.12300
H 	H 	0.97370 0.17920 0.90970 -0.02300
C 	C 	0.33584 0.88560 0.11611 0.38900
O 	O 	0.33126 0.73100 0.12159 -0.50500
Zn	Zn	0.65062 0.58337 0.34330 1.18300
O 	O 	0.71183 0.89050 0.00586 -0.31100
O 	O 	0.72030 0.81100 0.16132 -0.30200
O 	O 	0.67103 0.68700 0.30395 -0.47300
O 	O 	0.88110 0.95840 0.10683 -0.31100
C 	C 	0.74152 0.77820 0.10759 -0.34500
O 	O 	0.65108 0.00400 0.86454 -0.30200
C 	C 	0.74462 0.91890 0.05692 -0.34500
O 	O 	0.63665 0.46340 0.28359 -0.35600
C 	C 	0.69947 0.95430 0.97724 0.28100
C 	C 	0.72193 0.00960 0.03025 0.21400
H 	H 	0.69400 0.06260 0.03750 -0.04000
H 	H 	0.74200 0.09740 0.02230 -0.03400
C 	C 	0.79276 0.90940 0.05737 0.43600
C 	C 	0.71876 0.85030 0.08166 0.42200
C 	C 	0.81498 0.83960 0.08346 -0.37800
C 	C 	0.66131 0.56370 0.22217 0.14700
H 	H 	0.64200 0.47070 0.22420 -0.01300
C 	C 	0.65973 0.59310 0.28070 0.35700
C 	C 	0.70499 0.75030 0.18922 0.28600
C 	C 	0.67524 0.61310 0.19268 -0.28100
H 	H 	0.66490 0.55510 0.17500 0.12100
N 	N 	0.69021 0.37170 0.35222 -0.14800
C 	C 	0.71519 0.70070 0.13455 0.20600
H 	H 	0.68320 0.68970 0.12900 -0.03900
H 	H 	0.72710 0.58900 0.13940 -0.02700
C 	C 	0.67551 0.65050 0.24911 -0.19300
C 	C 	0.78957 0.77560 0.10893 0.46000
C 	C 	0.81316 0.70550 0.13742 -1.00900
H 	H 	0.79070 0.66840 0.15240 0.35300
H 	H 	0.83190 0.79190 0.14670 0.34400
H 	H 	0.83200 0.61140 0.13140 0.33100
C 	C 	0.66711 0.85260 0.08060 -0.94600
H 	H 	0.65520 0.80090 0.09930 0.31900
H 	H 	0.65680 0.79080 0.06250 0.30900
H 	H 	0.65660 0.96750 0.07930 0.31000
C 	C 	0.70533 0.78730 0.24524 0.15700
H 	H 	0.71550 0.84600 0.26280 -0.01200
C 	C 	0.71029 0.11790 0.96704 -0.29000
H 	H 	0.72560 0.19260 0.98030 0.13000
C 	C 	0.67555 0.05750 0.91656 -0.20800
C 	C 	0.69797 0.16690 0.93708 0.15500
H 	H 	0.70480 0.27610 0.93040 -0.02400
C 	C 	0.66414 0.89830 0.92730 0.14500
H 	H 	0.64830 0.82480 0.91420 -0.02600
C 	C 	0.71982 0.83660 0.21592 -0.28300
H 	H 	0.73960 0.92800 0.21390 0.14400
C 	C 	0.86590 0.83110 0.08503 0.26200
H 	H 	0.87550 0.71990 0.09210 -0.06900
H 	H 	0.87890 0.85170 0.06440 -0.07100
C 	C 	0.81961 0.97070 0.02928 -0.95300
H 	H 	0.85170 0.95620 0.03320 0.31000
H 	H 	0.81320 0.08840 0.02570 0.31500
H 	H 	0.81100 0.90650 0.01110 0.31400
C 	C 	0.67589 0.84570 0.95739 -0.28200
H 	H 	0.66800 0.73780 0.96420 0.12100
C 	C 	0.71730 0.39280 0.38043 -0.40200
H 	H 	0.73530 0.29280 0.38390 0.15600
H 	H 	0.69740 0.41070 0.39810 0.13300
H 	H 	0.73710 0.48870 0.37800 0.13900
C 	C 	0.94050 0.07260 0.13467 -0.26600
H 	H 	0.91970 0.14020 0.14540 0.12100
C 	C 	0.92744 0.96410 0.11205 0.30200
C 	C 	0.71961 0.31330 0.32571 -0.40500
H 	H 	0.73670 0.21560 0.33210 0.14800
H 	H 	0.74030 0.40230 0.31990 0.14100
H 	H 	0.70070 0.28460 0.30810 0.14800
C 	C 	0.99030 0.07740 0.14131 0.05800
H 	H 	0.00170 0.14840 0.15690 -0.00800
C 	C 	0.01931 0.97640 0.12433 -0.11700
C 	C 	0.95922 0.86740 0.09701 -0.28300
H 	H 	0.94920 0.78850 0.08230 0.12100
C 	C 	0.00550 0.88100 0.10250 0.12300
H 	H 	0.02630 0.82080 0.09030 -0.02300
C 	C 	0.66416 0.11440 0.88389 0.38900
O 	O 	0.66874 0.26900 0.87841 -0.50500
Zn	Zn	0.65062 0.41663 0.84330 1.18300
O 	O 	0.71183 0.10950 0.50586 -0.31100
O 	O 	0.72030 0.18900 0.66132 -0.30200
O 	O 	0.67103 0.31300 0.80395 -0.47300
O 	O 	0.88110 0.04160 0.60683 -0.31100
C 	C 	0.74152 0.22180 0.60759 -0.34500
O 	O 	0.65108 0.99600 0.36454 -0.30200
C 	C 	0.74462 0.08110 0.55692 -0.34500
O 	O 	0.63665 0.53660 0.78359 -0.35600
C 	C 	0.69947 0.04570 0.47724 0.28200
C 	C 	0.72193 0.99040 0.53025 0.21400
H 	H 	0.69400 0.93740 0.53750 -0.04000
H 	H 	0.74200 0.90260 0.52230 -0.03400
C 	C 	0.79276 0.09060 0.55737 0.43700
C 	C 	0.71876 0.14970 0.58166 0.42200
C 	C 	0.81498 0.16040 0.58346 -0.37800
C 	C 	0.66131 0.43630 0.72217 0.14700
H 	H 	0.64200 0.52930 0.72420 -0.01300
C 	C 	0.65973 0.40690 0.78070 0.35700
C 	C 	0.70499 0.24970 0.68922 0.28600
C 	C 	0.67524 0.38690 0.69268 -0.28100
H 	H 	0.66490 0.44490 0.67500 0.12100
N 	N 	0.69021 0.62830 0.85222 -0.14800
C 	C 	0.71519 0.29930 0.63455 0.20600
H 	H 	0.68320 0.31030 0.62900 -0.03900
H 	H 	0.72710 0.41100 0.63940 -0.02700
C 	C 	0.67551 0.34950 0.74911 -0.19300
C 	C 	0.78957 0.22440 0.60893 0.46000
C 	C 	0.81316 0.29450 0.63742 -1.00900
H 	H 	0.79070 0.33160 0.65240 0.35300
H 	H 	0.83190 0.20810 0.64670 0.34400
H 	H 	0.83200 0.38860 0.63140 0.33100
C 	C 	0.66711 0.14740 0.58060 -0.94600
H 	H 	0.65520 0.19910 0.59930 0.31900
H 	H 	0.65680 0.20920 0.56250 0.30900
H 	H 	0.65660 0.03250 0.57930 0.31000
C 	C 	0.70533 0.21270 0.74524 0.15700
H 	H 	0.71550 0.15400 0.76280 -0.01200
C 	C 	0.71029 0.88210 0.46704 -0.29100
H 	H 	0.72560 0.80740 0.48030 0.13100
C 	C 	0.67555 0.94250 0.41656 -0.20800
C 	C 	0.69797 0.83310 0.43708 0.15500
H 	H 	0.70480 0.72390 0.43040 -0.02400
C 	C 	0.66414 0.10170 0.42730 0.14500
H 	H 	0.64830 0.17520 0.41420 -0.02600
C 	C 	0.71982 0.16340 0.71592 -0.28300
H 	H 	0.73960 0.07200 0.71390 0.14400
C 	C 	0.86590 0.16890 0.58503 0.26200
H 	H 	0.87550 0.28010 0.59210 -0.06900
H 	H 	0.87890 0.14830 0.56440 -0.07100
C 	C 	0.81961 0.02930 0.52928 -0.95400
H 	H 	0.85170 0.04380 0.53320 0.31100
H 	H 	0.81320 0.91160 0.52570 0.31500
H 	H 	0.81100 0.09350 0.51110 0.31400
C 	C 	0.67589 0.15430 0.45739 -0.28200
H 	H 	0.66800 0.26220 0.46420 0.12100
C 	C 	0.71730 0.60720 0.88043 -0.40200
H 	H 	0.73530 0.70720 0.88390 0.15600
H 	H 	0.69740 0.58930 0.89810 0.13300
H 	H 	0.73710 0.51130 0.87800 0.13900
C 	C 	0.94050 0.92740 0.63467 -0.26600
H 	H 	0.91970 0.85980 0.64540 0.12100
C 	C 	0.92744 0.03590 0.61205 0.30200
C 	C 	0.71961 0.68670 0.82571 -0.40500
H 	H 	0.73670 0.78440 0.83210 0.14800
H 	H 	0.74030 0.59770 0.81990 0.14100
H 	H 	0.70070 0.71540 0.80810 0.14800
C 	C 	0.99030 0.92260 0.64131 0.05800
H 	H 	0.00170 0.85160 0.65690 -0.00800
C 	C 	0.01931 0.02360 0.62433 -0.11700
C 	C 	0.95922 0.13260 0.59701 -0.28300
H 	H 	0.94920 0.21150 0.58230 0.12100
C 	C 	0.00550 0.11900 0.60250 0.12300
H 	H 	0.02630 0.17920 0.59030 -0.02300
C 	C 	0.66416 0.88560 0.38389 0.38900
O 	O 	0.66874 0.73100 0.37841 -0.50500
Zn	Zn	0.15062 0.91663 0.65670 1.17800
O 	O 	0.21183 0.60950 0.99414 -0.31900
O 	O 	0.22030 0.68900 0.83868 -0.30000
O 	O 	0.17103 0.81300 0.69605 -0.46800
O 	O 	0.38110 0.54160 0.89317 -0.31400
C 	C 	0.24152 0.72180 0.89241 -0.34700
O 	O 	0.15108 0.49600 0.13546 -0.31100
C 	C 	0.24462 0.58110 0.94308 -0.35400
O 	O 	0.13665 0.03660 0.71641 -0.33000
C 	C 	0.19947 0.54570 0.02276 0.29800
C 	C 	0.22193 0.49040 0.96975 0.22900
H 	H 	0.19400 0.43740 0.96250 -0.04300
H 	H 	0.24200 0.40260 0.97770 -0.03900
C 	C 	0.29276 0.59060 0.94263 0.44300
C 	C 	0.21876 0.64970 0.91834 0.42000
C 	C 	0.31498 0.66040 0.91654 -0.38200
C 	C 	0.16131 0.93630 0.77783 0.07100
H 	H 	0.14200 0.02930 0.77580 0.02700
C 	C 	0.15973 0.90690 0.71930 0.31600
C 	C 	0.20499 0.74970 0.81078 0.25800
C 	C 	0.17524 0.88690 0.80732 -0.23700
H 	H 	0.16490 0.94490 0.82500 0.10000
N 	N 	0.19021 0.12830 0.64778 -0.14100
C 	C 	0.21519 0.79930 0.86545 0.20500
H 	H 	0.18320 0.81030 0.87100 -0.04100
H 	H 	0.22710 0.91100 0.86060 -0.03100
C 	C 	0.17551 0.84950 0.75089 -0.15500
C 	C 	0.28957 0.72440 0.89107 0.45300
C 	C 	0.31316 0.79450 0.86258 -0.99200
H 	H 	0.29070 0.83160 0.84760 0.34400
H 	H 	0.33190 0.70810 0.85330 0.33400
H 	H 	0.33200 0.88860 0.86860 0.32200
C 	C 	0.16711 0.64740 0.91940 -0.93900
H 	H 	0.15520 0.69910 0.90070 0.31400
H 	H 	0.15680 0.70920 0.93750 0.30600
H 	H 	0.15660 0.53250 0.92070 0.30400
C 	C 	0.20533 0.71270 0.75476 0.12200
H 	H 	0.21550 0.65400 0.73720 -0.00400
C 	C 	0.21029 0.38210 0.03296 -0.31000
H 	H 	0.22560 0.30740 0.01970 0.13700
C 	C 	0.17555 0.44250 0.08344 -0.23200
C 	C 	0.19797 0.33310 0.06292 0.17300
H 	H 	0.20480 0.22390 0.06960 -0.03200
C 	C 	0.16414 0.60170 0.07270 0.17200
H 	H 	0.14830 0.67520 0.08580 -0.03300
C 	C 	0.21982 0.66340 0.78408 -0.25700
H 	H 	0.23960 0.57200 0.78610 0.12800
C 	C 	0.36590 0.66890 0.91497 0.26400
H 	H 	0.37550 0.78010 0.90790 -0.07100
H 	H 	0.37890 0.64830 0.93560 -0.07300
C 	C 	0.31961 0.52930 0.97072 -0.97600
H 	H 	0.35170 0.54380 0.96680 0.31700
H 	H 	0.31320 0.41160 0.97430 0.32400
H 	H 	0.31100 0.59350 0.98890 0.32200
C 	C 	0.17589 0.65430 0.04261 -0.30100
H 	H 	0.16800 0.76220 0.03580 0.12800
C 	C 	0.21730 0.10720 0.61957 -0.41100
H 	H 	0.23530 0.20720 0.61610 0.16200
H 	H 	0.19740 0.08930 0.60190 0.13900
H 	H 	0.23710 0.01130 0.62200 0.14600
C 	C 	0.44050 0.42740 0.86533 -0.25300
H 	H 	0.41970 0.35980 0.85460 0.12000
C 	C 	0.42744 0.53590 0.88795 0.28700
C 	C 	0.21961 0.18670 0.67429 -0.41900
H 	H 	0.23670 0.28440 0.66790 0.15600
H 	H 	0.24030 0.09770 0.68010 0.15000
H 	H 	0.20070 0.21540 0.69190 0.15700
C 	C 	0.49030 0.42260 0.85869 0.08000
H 	H 	0.50170 0.35160 0.84310 -0.01000
C 	C 	0.51931 0.52360 0.87567 -0.14300
C 	C 	0.45922 0.63260 0.90299 -0.28600
H 	H 	0.44920 0.71150 0.91770 0.12100
C 	C 	0.50550 0.61900 0.89750 0.13400
H 	H 	0.52630 0.67920 0.90970 -0.02900
C 	C 	0.16416 0.38560 0.11611 0.39700
O 	O 	0.16874 0.23100 0.12159 -0.51100
Zn	Zn	0.15062 0.08337 0.15670 1.17800
O 	O 	0.21183 0.39050 0.49414 -0.31900
O 	O 	0.22030 0.31100 0.33868 -0.30000
O 	O 	0.17103 0.18700 0.19605 -0.46800
O 	O 	0.38110 0.45840 0.39317 -0.31400
C 	C 	0.24152 0.27820 0.39241 -0.34700
O 	O 	0.15108 0.50400 0.63546 -0.31100
C 	C 	0.24462 0.41890 0.44308 -0.35400
O 	O 	0.13665 0.96340 0.21641 -0.33000
C 	C 	0.19947 0.45430 0.52276 0.29800
C 	C 	0.22193 0.50960 0.46975 0.22900
H 	H 	0.19400 0.56260 0.46250 -0.04300
H 	H 	0.24200 0.59740 0.47770 -0.03900
C 	C 	0.29276 0.40940 0.44263 0.44300
C 	C 	0.21876 0.35030 0.41834 0.42000
C 	C 	0.31498 0.33960 0.41654 -0.38200
C 	C 	0.16131 0.06370 0.27783 0.07100
H 	H 	0.14200 0.97070 0.27580 0.02700
C 	C 	0.15973 0.09310 0.21930 0.31600
C 	C 	0.20499 0.25030 0.31078 0.25800
C 	C 	0.17524 0.11310 0.30732 -0.23700
H 	H 	0.16490 0.05510 0.32500 0.10000
N 	N 	0.19021 0.87170 0.14778 -0.14100
C 	C 	0.21519 0.20070 0.36545 0.20500
H 	H 	0.18320 0.18970 0.37100 -0.04100
H 	H 	0.22710 0.08900 0.36060 -0.03000
C 	C 	0.17551 0.15050 0.25089 -0.15500
C 	C 	0.28957 0.27560 0.39107 0.45300
C 	C 	0.31316 0.20550 0.36258 -0.99200
H 	H 	0.29070 0.16840 0.34760 0.34400
H 	H 	0.33190 0.29190 0.35330 0.33400
H 	H 	0.33200 0.11140 0.36860 0.32200
C 	C 	0.16711 0.35260 0.41940 -0.93900
H 	H 	0.15520 0.30090 0.40070 0.31400
H 	H 	0.15680 0.29080 0.43750 0.30600
H 	H 	0.15660 0.46750 0.42070 0.30400
C 	C 	0.20533 0.28730 0.25476 0.12200
H 	H 	0.21550 0.34600 0.23720 -0.00400
C 	C 	0.21029 0.61790 0.53296 -0.31000
H 	H 	0.22560 0.69260 0.51970 0.13700
C 	C 	0.17555 0.55750 0.58344 -0.23200
C 	C 	0.19797 0.66690 0.56292 0.17300
H 	H 	0.20480 0.77610 0.56960 -0.03200
C 	C 	0.16414 0.39830 0.57270 0.17200
H 	H 	0.14830 0.32480 0.58580 -0.03300
C 	C 	0.21982 0.33660 0.28408 -0.25700
H 	H 	0.23960 0.42800 0.28610 0.12800
C 	C 	0.36590 0.33110 0.41497 0.26400
H 	H 	0.37550 0.21990 0.40790 -0.07100
H 	H 	0.37890 0.35170 0.43560 -0.07300
C 	C 	0.31961 0.47070 0.47072 -0.97600
H 	H 	0.35170 0.45620 0.46680 0.31700
H 	H 	0.31320 0.58840 0.47430 0.32400
H 	H 	0.31100 0.40650 0.48890 0.32200
C 	C 	0.17589 0.34570 0.54261 -0.30100
H 	H 	0.16800 0.23780 0.53580 0.12800
C 	C 	0.21730 0.89280 0.11957 -0.41100
H 	H 	0.23530 0.79280 0.11610 0.16200
H 	H 	0.19740 0.91070 0.10190 0.13900
H 	H 	0.23710 0.98870 0.12200 0.14600
C 	C 	0.44050 0.57260 0.36533 -0.25300
H 	H 	0.41970 0.64020 0.35460 0.12000
C 	C 	0.42744 0.46410 0.38795 0.28700
C 	C 	0.21961 0.81330 0.17429 -0.41900
H 	H 	0.23670 0.71560 0.16790 0.15600
H 	H 	0.24030 0.90230 0.18010 0.15000
H 	H 	0.20070 0.78460 0.19190 0.15700
C 	C 	0.49030 0.57740 0.35869 0.08000
H 	H 	0.50170 0.64840 0.34310 -0.01000
C 	C 	0.51931 0.47640 0.37567 -0.14300
C 	C 	0.45922 0.36740 0.40299 -0.28600
H 	H 	0.44920 0.28850 0.41770 0.12100
C 	C 	0.50550 0.38100 0.39750 0.13400
H 	H 	0.52630 0.32080 0.40970 -0.02900
C 	C 	0.16416 0.61440 0.61611 0.39700
O 	O 	0.16874 0.76900 0.62159 -0.51100
