data_crystal

_cell_length_a 15.42000
_cell_length_b 15.84200
_cell_length_c 17.81900
_cell_angle_alpha 112.76300
_cell_angle_beta  112.20300
_cell_angle_gamma 95.42500

_symmetry_space_group_name_	'P 1'
_symmetry_space_group_name_H-M	'P 1'

loop_
_symmetry_equiv_pos_as_xyz
  x,y,z

loop_
_atom_site_label
_atom_site_type_symbol
_atom_site_fract_x
_atom_site_fract_y
_atom_site_fract_z
_atom_site_charge
Cd	Cd	0.35304 0.68624 0.95877 1.14200
Cd	Cd	0.22823 0.44949 0.92367 1.17800
Cd	Cd	0.59262 0.81935 0.99859 1.16900
Cd	Cd	0.00319 0.31406 0.90686 1.16500
Cd	Cd	0.85277 0.07800 0.84865 1.23200
Cd	Cd	0.77394 0.89512 0.92181 1.16000
H 	H 	0.50090 0.36400 0.25820 0.05400
H 	H 	0.47240 0.38420 0.34010 0.04900
H 	H 	0.95020 0.96480 0.66630 0.10600
H 	H 	0.56410 0.24010 0.39700 0.03300
H 	H 	0.57110 0.34450 0.46740 0.04100
H 	H 	0.51640 0.44480 0.14080 0.01500
H 	H 	0.58000 0.59440 0.59770 0.13600
H 	H 	0.93270 0.60200 0.45180 0.03400
H 	H 	0.93330 0.70090 0.52620 0.03700
H 	H 	0.04380 0.85710 0.46050 0.02700
H 	H 	0.11260 0.82270 0.52980 0.03700
H 	H 	0.67630 0.48480 0.25430 0.13100
H 	H 	0.65820 0.47620 0.37290 0.03400
H 	H 	0.73170 0.45580 0.45190 0.03800
H 	H 	0.86260 0.30970 0.58360 0.13400
H 	H 	0.26320 0.61680 0.75910 -0.03600
H 	H 	0.73130 0.74300 0.26140 0.13100
H 	H 	0.88370 0.74490 0.33080 0.03500
H 	H 	0.85700 0.77210 0.41440 0.03700
H 	H 	0.22640 0.68280 0.65920 0.12200
H 	H 	0.62290 0.17660 0.63480 -0.00800
H 	H 	0.57970 0.24620 0.53590 0.12400
H 	H 	0.90330 0.24970 0.68700 -0.03800
H 	H 	0.57450 0.69470 0.13920 0.00900
H 	H 	0.63880 0.75120 0.69730 -0.04100
H 	H 	0.60600 0.21580 0.27320 0.05300
H 	H 	0.71300 0.28700 0.34580 0.04600
H 	H 	0.21320 0.15610 0.68480 0.00300
H 	H 	0.30650 0.16850 0.60080 0.03900
H 	H 	0.28880 0.19890 0.52130 0.04200
H 	H 	0.34540 0.47540 0.77630 -0.01900
H 	H 	0.74530 0.07260 0.10310 0.06500
H 	H 	0.44730 0.11470 0.47240 0.03300
H 	H 	0.34360 0.11280 0.40180 0.04400
H 	H 	0.15320 0.99350 0.57800 0.10000
H 	H 	0.19230 0.01560 0.47560 0.02800
H 	H 	0.22310 0.94560 0.40290 0.03200
H 	H 	0.37880 0.82540 0.28330 0.12500
H 	H 	0.45870 0.06910 0.59470 0.03600
H 	H 	0.39220 0.96600 0.51200 0.03200
H 	H 	0.76190 0.62580 0.49150 0.13200
H 	H 	0.82310 0.78670 0.59450 -0.01600
H 	H 	0.50420 0.05490 0.22280 0.00200
H 	H 	0.30610 0.31570 0.66340 0.12800
H 	H 	0.88980 0.84160 0.24570 0.01000
H 	H 	0.68730 0.15000 0.20540 0.10000
H 	H 	0.51250 0.96720 0.63860 0.13100
H 	H 	0.05670 0.90020 0.34590 0.11900
H 	H 	0.43230 0.78030 0.17060 -0.01400
H 	H 	0.08700 0.09060 0.25580 0.12400
H 	H 	0.34510 0.36020 0.20160 0.09300
H 	H 	0.73220 0.28360 0.02640 0.09300
H 	H 	0.93630 0.57390 0.57010 0.10600
H 	H 	0.44360 0.09820 0.32760 0.12200
H 	H 	0.59060 0.92150 0.75210 -0.02200
H 	H 	0.92920 0.01280 0.13450 0.01000
H 	H 	0.61390 0.53180 0.79340 -0.04300
H 	H 	0.28920 0.97750 0.70610 0.12000
H 	H 	0.36100 0.91420 0.80550 -0.03500
H 	H 	0.97480 0.59890 0.32980 0.02200
H 	H 	0.08060 0.64960 0.41610 0.03200
H 	H 	0.97370 0.50200 0.66400 -0.03500
H 	H 	0.18960 0.31400 0.08600 0.07200
H 	H 	0.07920 0.53820 0.28580 0.12400
H 	H 	0.58330 0.37060 0.69690 0.12000
H 	H 	0.67660 0.35930 0.13170 0.10300
H 	H 	0.10530 0.45450 0.15740 0.00100
H 	H 	0.12110 0.77580 0.25570 0.13800
H 	H 	0.01640 0.12320 0.77500 -0.02400
H 	H 	0.30980 0.08660 0.16390 0.09500
H 	H 	0.15140 0.04960 0.05630 0.07900
H 	H 	0.17740 0.69870 0.15090 -0.00800
C 	C 	0.60230 0.34560 0.36380 0.01100
C 	C 	0.97800 0.71990 0.43410 -0.02900
C 	C 	0.49900 0.34180 0.30250 0.00100
C 	C 	0.52970 0.56640 0.13090 -0.18500
C 	C 	0.00500 0.00300 0.67080 -0.18500
C 	C 	0.71790 0.28150 0.54810 0.27500
C 	C 	0.60190 0.30820 0.43070 0.02900
C 	C 	0.56040 0.50510 0.16420 0.14600
C 	C 	0.62990 0.63370 0.59710 -0.29100
C 	C 	0.96860 0.67050 0.49170 0.02300
C 	C 	0.76580 0.20790 0.67280 -0.23800
C 	C 	0.12130 0.55450 0.72530 -0.23700
C 	C 	0.04460 0.82280 0.49680 0.05600
C 	C 	0.07740 0.63520 0.60680 0.25100
C 	C 	0.65520 0.52860 0.23200 -0.24100
C 	C 	0.66230 0.44950 0.41560 0.02300
C 	C 	0.81330 0.28340 0.59440 -0.27400
C 	C 	0.19690 0.60820 0.72090 0.12500
C 	C 	0.68900 0.68110 0.23570 -0.25300
C 	C 	0.79130 0.16340 0.73330 0.35400
C 	C 	0.04740 0.96280 0.61420 0.21400
C 	C 	0.87920 0.72490 0.37570 0.03400
C 	C 	0.17550 0.64760 0.66230 -0.24700
C 	C 	0.67230 0.20580 0.62590 0.15500
C 	C 	0.64510 0.24480 0.56480 -0.26600
C 	C 	0.83720 0.24770 0.65550 0.15100
C 	C 	0.66630 0.59450 0.53400 0.29000
C 	C 	0.59430 0.65280 0.16460 0.15000
C 	C 	0.66520 0.72570 0.65580 0.17300
C 	C 	0.64580 0.28320 0.30600 0.00700
C 	C 	0.73950 0.78630 0.65910 -0.24100
C 	C 	0.15910 0.11700 0.68040 0.11900
C 	C 	0.33220 0.17350 0.55900 0.02300
C 	C 	0.48340 0.51680 0.79620 -0.23900
C 	C 	0.33380 0.07580 0.49810 -0.00900
C 	C 	0.39300 0.45410 0.75800 0.14600
C 	C 	0.68040 0.26350 0.18130 0.20000
C 	C 	0.73200 0.13160 0.10890 0.01700
C 	C 	0.37690 0.07970 0.43630 0.03200
C 	C 	0.12460 0.01970 0.61740 -0.20100
C 	C 	0.78620 0.12400 0.99220 0.17000
C 	C 	0.74720 0.17160 0.05400 0.06800
C 	C 	0.50290 0.61910 0.86270 0.41700
C 	C 	0.40240 0.96520 0.31560 0.26700
C 	C 	0.22580 0.01290 0.43740 0.05100
C 	C 	0.14450 0.51620 0.79180 0.38500
C 	C 	0.40270 0.87240 0.26980 -0.23800
C 	C 	0.39060 0.02840 0.55380 0.04600
C 	C 	0.39430 0.97850 0.66270 0.26500
C 	C 	0.08550 0.00280 0.31240 0.26500
C 	C 	0.73700 0.65170 0.53420 -0.29500
C 	C 	0.77380 0.74730 0.59570 0.17200
C 	C 	0.44270 0.32950 0.67010 0.27300
C 	C 	0.89090 0.92070 0.17830 -0.17200
C 	C 	0.15430 0.25900 0.79850 0.38300
C 	C 	0.16310 0.51630 0.05960 0.39700
C 	C 	0.47770 0.91560 0.18850 -0.19700
C 	C 	0.47800 0.00730 0.23450 0.15300
C 	C 	0.42720 0.53860 0.05590 0.42600
C 	C 	0.36950 0.35830 0.69180 -0.25900
C 	C 	0.93020 0.88910 0.24390 0.11300
C 	C 	0.69830 0.17800 0.17010 -0.14600
C 	C 	0.48270 0.96000 0.67450 -0.27100
C 	C 	0.02880 0.92740 0.30660 -0.23600
C 	C 	0.43680 0.84530 0.20410 0.12400
C 	C 	0.51770 0.88730 0.12230 0.34700
C 	C 	0.04790 0.03680 0.25090 -0.20600
C 	C 	0.53380 0.87580 0.85400 0.41200
C 	C 	0.78290 0.88720 0.72900 0.36600
C 	C 	0.30700 0.29550 0.17090 -0.14800
C 	C 	0.72490 0.25620 0.06330 0.00800
C 	C 	0.00250 0.58200 0.60810 -0.25200
C 	C 	0.44190 0.03340 0.29690 -0.25000
C 	C 	0.78810 0.88070 0.11350 0.35600
C 	C 	0.34530 0.22990 0.19410 0.20400
C 	C 	0.52770 0.93030 0.74080 0.16900
C 	C 	0.95230 0.99300 0.18070 0.09300
C 	C 	0.55310 0.48760 0.77050 0.16100
C 	C 	0.15380 0.17560 0.05920 0.05700
C 	C 	0.11730 0.15710 0.73550 -0.20400
C 	C 	0.13860 0.56870 0.13740 -0.20500
C 	C 	0.34950 0.96350 0.71330 -0.26300
C 	C 	0.48550 0.91410 0.78810 -0.24100
C 	C 	0.71850 0.61830 0.26640 0.27300
C 	C 	0.39310 0.92840 0.77390 0.15200
C 	C 	0.02280 0.66140 0.37690 0.06900
C 	C 	0.02530 0.54120 0.66510 0.16800
C 	C 	0.21400 0.26810 0.10340 0.01400
C 	C 	0.09010 0.56870 0.25230 -0.24300
C 	C 	0.53320 0.39250 0.71040 -0.27800
C 	C 	0.69190 0.30120 0.12610 -0.13000
C 	C 	0.11060 0.52070 0.17880 0.13600
C 	C 	0.08630 0.66280 0.27430 0.28300
C 	C 	0.11870 0.71040 0.23730 -0.27000
C 	C 	0.05480 0.15220 0.98310 0.19600
C 	C 	0.04210 0.09760 0.73290 0.12100
C 	C 	0.28560 0.13400 0.14940 -0.12800
C 	C 	0.19200 0.11290 0.08490 0.00500
C 	C 	0.14860 0.66300 0.17210 0.16800
O 	O 	0.88170 0.18050 0.78980 -0.54500
O 	O 	0.72580 0.10900 0.73370 -0.36100
O 	O 	0.69960 0.31900 0.48830 -0.25200
O 	O 	0.81190 0.63260 0.32970 -0.24800
O 	O 	0.43740 0.24480 0.25460 -0.22300
O 	O 	0.06610 0.68150 0.55260 -0.23100
O 	O 	0.00830 0.86690 0.55850 -0.23500
O 	O 	0.62150 0.49830 0.47410 -0.25000
O 	O 	0.11420 0.29820 0.85130 -0.56500
O 	O 	0.14390 0.42610 0.02750 -0.41200
O 	O 	0.39920 0.59950 0.03310 -0.42400
O 	O 	0.57240 0.95070 0.12090 -0.31000
O 	O 	0.43470 0.64780 0.87470 -0.53200
O 	O 	0.49870 0.79890 0.06770 -0.45200
O 	O 	0.83740 0.94410 0.72140 -0.40300
O 	O 	0.81490 0.05380 0.99070 -0.50200
O 	O 	0.76320 0.91850 0.79770 -0.53400
O 	O 	0.22510 0.31120 0.80500 -0.41700
O 	O 	0.23440 0.54390 0.85410 -0.58600
O 	O 	0.75410 0.90050 0.04660 -0.43400
O 	O 	0.61070 0.85480 0.85950 -0.53000
O 	O 	0.73190 0.82780 0.12280 -0.33500
O 	O 	0.58960 0.67330 0.90590 -0.50100
O 	O 	0.79410 0.16130 0.93880 -0.43400
O 	O 	0.37550 0.45790 0.02490 -0.36000
O 	O 	0.01940 0.21390 0.96950 -0.52300
O 	O 	0.00010 0.06550 0.93830 -0.42000
O 	O 	0.64710 0.31570 0.24220 -0.22200
O 	O 	0.36350 0.98210 0.37430 -0.25100
O 	O 	0.42970 0.23690 0.61090 -0.25100
O 	O 	0.34640 0.01500 0.60550 -0.24900
O 	O 	0.08290 0.45900 0.78970 -0.40700
O 	O 	0.18080 0.04980 0.37710 -0.24500
O 	O 	0.49510 0.86780 0.90420 -0.49600
O 	O 	0.19570 0.55810 0.02900 -0.40100
O 	O 	0.05100 0.71070 0.33410 -0.25400
