data_crystal

_cell_length_a 13.34600
_cell_length_b 16.18640
_cell_length_c 17.78070
_cell_angle_alpha 112.59800
_cell_angle_beta  107.37500
_cell_angle_gamma 97.62500

_symmetry_space_group_name_	'P 1'
_symmetry_space_group_name_H-M	'P 1'

loop_
_symmetry_equiv_pos_as_xyz
  x,y,z

loop_
_atom_site_label
_atom_site_type_symbol
_atom_site_fract_x
_atom_site_fract_y
_atom_site_fract_z
_atom_site_charge
Cd	Cd	0.06721 0.61608 0.59303 1.19400
Cd	Cd	0.16268 0.54385 0.38386 1.23900
Cd	Cd	0.93279 0.38392 0.40697 1.19400
Cd	Cd	0.83732 0.45615 0.61614 1.23900
H 	H 	0.45430 0.34870 0.63270 0.13600
H 	H 	0.44630 0.50790 0.10460 0.12600
H 	H 	0.53700 0.38110 0.93280 0.03900
H 	H 	0.56320 0.31390 0.85160 0.04300
H 	H 	0.11210 0.98430 0.67270 0.12000
H 	H 	0.34020 0.36160 0.83610 0.03900
H 	H 	0.26660 0.25950 0.76070 0.04200
H 	H 	0.83130 0.29960 0.18680 -0.05000
H 	H 	0.19880 0.35150 0.71250 0.12200
H 	H 	0.67580 0.21870 0.05490 0.12300
H 	H 	0.42540 0.01290 0.68730 0.12200
H 	H 	0.06890 0.82330 0.57840 -0.02900
H 	H 	0.69480 0.45140 0.01720 0.12400
H 	H 	0.84960 0.53060 0.14960 -0.00200
H 	H 	0.39230 0.21650 0.94160 0.04300
H 	H 	0.28080 0.22820 0.88500 0.03600
H 	H 	0.37390 0.41080 0.54020 -0.00300
H 	H 	0.24180 0.24850 0.00640 0.11500
H 	H 	0.37650 0.85480 0.58710 -0.00100
H 	H 	0.19120 0.29980 0.12570 0.00200
H 	H 	0.45480 0.13400 0.82120 0.04300
H 	H 	0.43440 0.16210 0.74160 0.04700
H 	H 	0.39450 0.55630 0.22090 0.00400
H 	H 	0.11980 0.41130 0.61650 -0.02200
H 	H 	0.54570 0.65130 0.36730 0.13700
H 	H 	0.55370 0.49210 0.89540 0.12700
H 	H 	0.46300 0.61890 0.06720 0.03900
H 	H 	0.43680 0.68610 0.14840 0.04300
H 	H 	0.88790 0.01570 0.32730 0.12000
H 	H 	0.65980 0.63840 0.16390 0.03900
H 	H 	0.73340 0.74050 0.23930 0.04200
H 	H 	0.16870 0.70040 0.81320 -0.05000
H 	H 	0.80120 0.64850 0.28750 0.12200
H 	H 	0.32420 0.78130 0.94510 0.12300
H 	H 	0.57460 0.98710 0.31270 0.12200
H 	H 	0.93110 0.17670 0.42160 -0.02900
H 	H 	0.30520 0.54860 0.98280 0.12400
H 	H 	0.15040 0.46940 0.85040 -0.00200
H 	H 	0.60770 0.78350 0.05840 0.04300
H 	H 	0.71920 0.77180 0.11500 0.03600
H 	H 	0.62610 0.58920 0.45980 -0.00300
H 	H 	0.75820 0.75150 0.99360 0.11500
H 	H 	0.62350 0.14520 0.41290 -0.00100
H 	H 	0.80880 0.70020 0.87430 0.00200
H 	H 	0.54520 0.86600 0.17880 0.04300
H 	H 	0.56560 0.83790 0.25840 0.04700
H 	H 	0.60550 0.44370 0.77910 0.00400
H 	H 	0.88020 0.58870 0.38350 -0.02200
C 	C 	0.38660 0.36220 0.63050 -0.25300
C 	C 	0.39400 0.46540 0.10840 -0.24800
C 	C 	0.53040 0.31550 0.89510 0.02200
C 	C 	0.16640 0.95760 0.65690 -0.24200
C 	C 	0.34250 0.30040 0.79530 0.02000
C 	C 	0.80410 0.33060 0.15270 0.15100
C 	C 	0.23490 0.36350 0.67760 -0.25100
C 	C 	0.71150 0.28210 0.07390 -0.25900
C 	C 	0.35260 0.97500 0.66490 -0.25800
C 	C 	0.14110 0.86180 0.59930 0.12100
C 	C 	0.72250 0.42040 0.05120 -0.25000
C 	C 	0.81440 0.46700 0.13010 0.14600
C 	C 	0.36130 0.25490 0.91390 0.01800
C 	C 	0.33840 0.39850 0.57540 0.15100
C 	C 	0.27270 0.31140 0.05020 -0.24400
C 	C 	0.40910 0.25700 0.84780 0.01100
C 	C 	0.27480 0.01160 0.68980 0.26900
C 	C 	0.27780 0.43890 0.18300 -0.17600
C 	C 	0.32260 0.88000 0.60530 0.13900
C 	C 	0.33580 0.34520 0.68310 0.26500
C 	C 	0.24440 0.46950 0.25680 0.35000
C 	C 	0.67290 0.32700 0.02440 0.27400
C 	C 	0.24010 0.34280 0.11950 0.12800
C 	C 	0.40730 0.15990 0.78710 0.00900
C 	C 	0.85600 0.42270 0.18100 -0.21300
C 	C 	0.19120 0.46210 0.51350 0.35200
C 	C 	0.23940 0.41770 0.57020 -0.21900
C 	C 	0.36030 0.49430 0.17550 0.14100
C 	C 	0.18850 0.39930 0.62070 0.14200
C 	C 	0.35180 0.37170 0.04330 0.26700
C 	C 	0.19290 0.72360 0.51230 0.35500
C 	C 	0.21800 0.82170 0.57200 -0.21600
C 	C 	0.95520 0.47320 0.26180 0.37900
C 	C 	0.61340 0.63780 0.36950 -0.25300
C 	C 	0.60600 0.53460 0.89160 -0.24800
C 	C 	0.46960 0.68450 0.10490 0.02200
C 	C 	0.83360 0.04240 0.34310 -0.24200
C 	C 	0.65750 0.69960 0.20470 0.02000
C 	C 	0.19590 0.66940 0.84730 0.15100
C 	C 	0.76510 0.63650 0.32240 -0.25100
C 	C 	0.28850 0.71790 0.92610 -0.25900
C 	C 	0.64740 0.02500 0.33510 -0.25800
C 	C 	0.85890 0.13820 0.40070 0.12100
C 	C 	0.27750 0.57960 0.94880 -0.25000
C 	C 	0.18560 0.53300 0.86990 0.14600
C 	C 	0.63870 0.74510 0.08610 0.01800
C 	C 	0.66160 0.60150 0.42460 0.15100
C 	C 	0.72730 0.68860 0.94980 -0.24400
C 	C 	0.59090 0.74300 0.15220 0.01100
C 	C 	0.72520 0.98840 0.31020 0.26900
C 	C 	0.72220 0.56110 0.81700 -0.17600
C 	C 	0.67740 0.12000 0.39470 0.13900
C 	C 	0.66420 0.65480 0.31690 0.26500
C 	C 	0.75560 0.53050 0.74320 0.35000
C 	C 	0.32710 0.67300 0.97560 0.27400
C 	C 	0.75990 0.65720 0.88050 0.12800
C 	C 	0.59270 0.84010 0.21290 0.00900
C 	C 	0.14400 0.57730 0.81900 -0.21300
C 	C 	0.80880 0.53790 0.48650 0.35200
C 	C 	0.76060 0.58230 0.42980 -0.21900
C 	C 	0.63970 0.50570 0.82450 0.14100
C 	C 	0.81150 0.60070 0.37930 0.14200
C 	C 	0.64820 0.62830 0.95670 0.26700
C 	C 	0.80710 0.27640 0.48770 0.35500
C 	C 	0.78200 0.17830 0.42800 -0.21600
C 	C 	0.04480 0.52680 0.73820 0.37900
O 	O 	0.29480 0.10200 0.74590 -0.24600
O 	O 	0.01650 0.54700 0.27600 -0.38700
O 	O 	0.58400 0.27360 0.94750 -0.24400
O 	O 	0.24200 0.48100 0.47040 -0.43000
O 	O 	0.09800 0.48030 0.51300 -0.57600
O 	O 	0.39000 0.35110 0.97960 -0.25100
O 	O 	0.97780 0.43850 0.31790 -0.52900
O 	O 	0.39080 0.31180 0.73800 -0.24500
O 	O 	0.16880 0.41580 0.25870 -0.36100
O 	O 	0.10250 0.66640 0.49790 -0.49500
O 	O 	0.25290 0.69450 0.47310 -0.40500
O 	O 	0.28640 0.55240 0.31460 -0.36500
O 	O 	0.70520 0.89800 0.25410 -0.24600
O 	O 	0.98350 0.45300 0.72400 -0.38700
O 	O 	0.41600 0.72640 0.05250 -0.24400
O 	O 	0.75800 0.51900 0.52960 -0.43000
O 	O 	0.90200 0.51970 0.48700 -0.57600
O 	O 	0.61000 0.64890 0.02040 -0.25100
O 	O 	0.02220 0.56150 0.68210 -0.52900
O 	O 	0.60920 0.68820 0.26200 -0.24500
O 	O 	0.83120 0.58420 0.74130 -0.36100
O 	O 	0.89750 0.33360 0.50210 -0.49500
O 	O 	0.74710 0.30550 0.52690 -0.40500
O 	O 	0.71360 0.44760 0.68540 -0.36500
