data_crystal

_cell_length_a 12.05600
_cell_length_b 15.98700
_cell_length_c 15.38300
_cell_angle_alpha 90.00000
_cell_angle_beta  90.00000
_cell_angle_gamma 90.00000

_symmetry_space_group_name_	'P 1'
_symmetry_space_group_name_H-M	'P 1'

loop_
_symmetry_equiv_pos_as_xyz
  x,y,z

loop_
_atom_site_label
_atom_site_type_symbol
_atom_site_fract_x
_atom_site_fract_y
_atom_site_fract_z
_atom_site_charge
Zn	Zn	0.02506 0.94767 0.81324 1.21400
Zn	Zn	0.97494 0.55233 0.81324 1.24700
Zn	Zn	0.52506 0.55233 0.68676 1.23300
Zn	Zn	0.47494 0.94767 0.68676 1.23100
Zn	Zn	0.97494 0.05233 0.18676 1.24100
Zn	Zn	0.02506 0.44767 0.18676 1.22000
Zn	Zn	0.47494 0.44767 0.31324 1.23400
Zn	Zn	0.52506 0.05233 0.31324 1.23300
Zn	Zn	0.25000 0.84106 0.75000 1.23800
Zn	Zn	0.75000 0.65894 0.75000 1.23900
Zn	Zn	0.75000 0.15894 0.25000 1.23900
Zn	Zn	0.25000 0.34106 0.25000 1.23800
Zn	Zn	0.00000 0.25000 0.18636 1.21100
Zn	Zn	0.50000 0.25000 0.31364 1.22800
Zn	Zn	0.00000 0.75000 0.81364 1.20700
Zn	Zn	0.50000 0.75000 0.68636 1.22800
H 	H 	0.96700 0.08750 0.57430 0.13200
H 	H 	0.97230 0.15600 0.44480 0.11000
H 	H 	0.03300 0.41250 0.57430 0.00400
H 	H 	0.02770 0.34400 0.44480 -0.00700
H 	H 	0.46700 0.41250 0.92570 0.06900
H 	H 	0.47230 0.34400 0.05520 0.05500
H 	H 	0.53300 0.08750 0.92570 0.06800
H 	H 	0.52770 0.15600 0.05520 0.06000
H 	H 	0.03300 0.91250 0.42570 -0.00500
H 	H 	0.02770 0.84400 0.55520 -0.02000
H 	H 	0.96700 0.58750 0.42570 0.14200
H 	H 	0.97230 0.65600 0.55520 0.12400
H 	H 	0.53300 0.58750 0.07430 0.07200
H 	H 	0.52770 0.65600 0.94480 0.05500
H 	H 	0.46700 0.91250 0.07430 0.06500
H 	H 	0.47230 0.84400 0.94480 0.05900
C 	C 	0.03280 0.08890 0.54290 -0.09500
C 	C 	0.12640 0.04680 0.57500 -0.02600
C 	C 	0.11710 0.99370 0.65460 0.34600
C 	C 	0.22690 0.04880 0.52670 -0.01600
C 	C 	0.23080 0.10080 0.45020 -0.01500
C 	C 	0.34240 0.11120 0.40620 0.34200
C 	C 	0.13660 0.14010 0.42010 -0.05700
C 	C 	0.13390 0.19370 0.34050 0.38800
C 	C 	0.03670 0.13180 0.46660 -0.07400
C 	C 	0.32550 0.99760 0.55240 0.30700
C 	C 	0.96720 0.41110 0.54290 0.06800
C 	C 	0.87360 0.45320 0.57500 -0.07700
C 	C 	0.88290 0.50630 0.65460 0.40100
C 	C 	0.77310 0.45120 0.52670 -0.00800
C 	C 	0.76920 0.39920 0.45020 -0.00500
C 	C 	0.65760 0.38880 0.40620 0.33800
C 	C 	0.86340 0.35990 0.42010 -0.08600
C 	C 	0.86610 0.30630 0.34050 0.40700
C 	C 	0.96330 0.36820 0.46660 0.06400
C 	C 	0.67450 0.50240 0.55240 0.31600
C 	C 	0.53280 0.41110 0.95710 -0.01100
C 	C 	0.62640 0.45320 0.92500 -0.06100
C 	C 	0.61710 0.50630 0.84540 0.38900
C 	C 	0.72690 0.45120 0.97330 -0.01000
C 	C 	0.73080 0.39920 0.04980 -0.00800
C 	C 	0.84240 0.38880 0.09380 0.33500
C 	C 	0.63660 0.35990 0.07990 -0.07000
C 	C 	0.63390 0.30630 0.15950 0.39800
C 	C 	0.53670 0.36820 0.03340 -0.01300
C 	C 	0.82550 0.50240 0.94760 0.31500
C 	C 	0.46720 0.08890 0.95710 -0.00100
C 	C 	0.37360 0.04680 0.92500 -0.05900
C 	C 	0.38290 0.99370 0.84540 0.37200
C 	C 	0.27310 0.04880 0.97330 0.01200
C 	C 	0.26920 0.10080 0.04980 -0.03100
C 	C 	0.15760 0.11120 0.09380 0.35000
C 	C 	0.36340 0.14010 0.07990 -0.05900
C 	C 	0.36610 0.19370 0.15950 0.39400
C 	C 	0.46330 0.13180 0.03340 -0.02900
C 	C 	0.17450 0.99760 0.94760 0.28300
C 	C 	0.96720 0.91110 0.45710 0.07300
C 	C 	0.87360 0.95320 0.42500 -0.06700
C 	C 	0.88290 0.00630 0.34540 0.37900
C 	C 	0.77310 0.95120 0.47330 -0.00800
C 	C 	0.76920 0.89920 0.54980 -0.00300
C 	C 	0.65760 0.88880 0.59380 0.33800
C 	C 	0.86340 0.85990 0.57990 -0.09100
C 	C 	0.86610 0.80630 0.65950 0.41000
C 	C 	0.96330 0.86820 0.53340 0.08200
C 	C 	0.67450 0.00240 0.44760 0.31000
C 	C 	0.03280 0.58890 0.45710 -0.10100
C 	C 	0.12640 0.54680 0.42500 -0.04000
C 	C 	0.11710 0.49370 0.34540 0.37500
C 	C 	0.22690 0.54880 0.47330 -0.02000
C 	C 	0.23080 0.60080 0.54980 -0.01600
C 	C 	0.34240 0.61120 0.59380 0.34200
C 	C 	0.13660 0.64010 0.57990 -0.05100
C 	C 	0.13390 0.69370 0.65950 0.38600
C 	C 	0.03670 0.63180 0.53340 -0.09400
C 	C 	0.32550 0.49760 0.44760 0.31900
C 	C 	0.46720 0.58890 0.04290 -0.01300
C 	C 	0.37360 0.54680 0.07500 -0.06000
C 	C 	0.38290 0.49370 0.15460 0.38800
C 	C 	0.27310 0.54880 0.02670 -0.01500
C 	C 	0.26920 0.60080 0.95020 -0.01600
C 	C 	0.15760 0.61120 0.90620 0.34500
C 	C 	0.36340 0.64010 0.92010 -0.06800
C 	C 	0.36610 0.69370 0.84050 0.39700
C 	C 	0.46330 0.63180 0.96660 -0.01400
C 	C 	0.17450 0.49760 0.05240 0.32000
C 	C 	0.53280 0.91110 0.04290 0.00300
C 	C 	0.62640 0.95320 0.07500 -0.06400
C 	C 	0.61710 0.00630 0.15460 0.38100
C 	C 	0.72690 0.95120 0.02670 0.01400
C 	C 	0.73080 0.89920 0.95020 -0.02300
C 	C 	0.84240 0.88880 0.90620 0.33900
C 	C 	0.63660 0.85990 0.92010 -0.06000
C 	C 	0.63390 0.80630 0.84050 0.39400
C 	C 	0.53670 0.86820 0.96660 -0.03000
C 	C 	0.82550 0.00240 0.05240 0.28500
O 	O 	0.03710 0.01120 0.70530 -0.44700
O 	O 	0.18650 0.93900 0.66710 -0.44200
O 	O 	0.34230 0.93050 0.51610 -0.24000
O 	O 	0.38720 0.02800 0.61200 -0.37800
O 	O 	0.37240 0.05020 0.35860 -0.42200
O 	O 	0.39490 0.17630 0.41760 -0.36400
O 	O 	0.19470 0.25810 0.34280 -0.43200
O 	O 	0.06980 0.17340 0.28030 -0.53200
O 	O 	0.39060 0.84340 0.67280 -0.61900
O 	O 	0.96290 0.48880 0.70530 -0.41700
O 	O 	0.81350 0.56100 0.66710 -0.44600
O 	O 	0.65770 0.56950 0.51610 -0.23700
O 	O 	0.61280 0.47200 0.61200 -0.38500
O 	O 	0.62760 0.44980 0.35860 -0.41800
O 	O 	0.60510 0.32370 0.41760 -0.36300
O 	O 	0.80530 0.24190 0.34280 -0.42900
O 	O 	0.93020 0.32660 0.28030 -0.48300
O 	O 	0.60940 0.65660 0.67280 -0.61700
O 	O 	0.53710 0.48880 0.79470 -0.44300
O 	O 	0.68650 0.56100 0.83290 -0.44700
O 	O 	0.84230 0.56950 0.98390 -0.22600
O 	O 	0.88720 0.47200 0.88800 -0.36900
O 	O 	0.87240 0.44980 0.14140 -0.39700
O 	O 	0.89490 0.32370 0.08240 -0.34100
O 	O 	0.69470 0.24190 0.15720 -0.43000
O 	O 	0.56980 0.32660 0.21970 -0.51100
O 	O 	0.89060 0.65660 0.82720 -0.59500
O 	O 	0.46290 0.01120 0.79470 -0.43200
O 	O 	0.31350 0.93900 0.83290 -0.44600
O 	O 	0.15770 0.93050 0.98390 -0.25000
O 	O 	0.11280 0.02800 0.88800 -0.37800
O 	O 	0.12760 0.05020 0.14140 -0.44200
O 	O 	0.10510 0.17630 0.08240 -0.38400
O 	O 	0.30530 0.25810 0.15720 -0.43000
O 	O 	0.43020 0.17340 0.21970 -0.51000
O 	O 	0.10940 0.84340 0.82720 -0.63500
O 	O 	0.96290 0.98880 0.29470 -0.40300
O 	O 	0.81350 0.06100 0.33290 -0.44200
O 	O 	0.65770 0.06950 0.48390 -0.23700
O 	O 	0.61280 0.97200 0.38800 -0.38100
O 	O 	0.62760 0.94980 0.64140 -0.41900
O 	O 	0.60510 0.82370 0.58240 -0.36300
O 	O 	0.80530 0.74190 0.65720 -0.42800
O 	O 	0.93020 0.82660 0.71970 -0.47900
O 	O 	0.60940 0.15660 0.32720 -0.61700
O 	O 	0.03710 0.51120 0.29470 -0.46700
O 	O 	0.18650 0.43900 0.33290 -0.44700
O 	O 	0.34230 0.43050 0.48390 -0.24200
O 	O 	0.38720 0.52800 0.38800 -0.38700
O 	O 	0.37240 0.55020 0.64140 -0.42300
O 	O 	0.39490 0.67630 0.58240 -0.36500
O 	O 	0.19470 0.75810 0.65720 -0.43200
O 	O 	0.06980 0.67340 0.71970 -0.53500
O 	O 	0.39060 0.34340 0.32720 -0.61800
O 	O 	0.46290 0.51120 0.20530 -0.44200
O 	O 	0.31350 0.43900 0.16710 -0.44700
O 	O 	0.15770 0.43050 0.01610 -0.25400
O 	O 	0.11280 0.52800 0.11200 -0.40100
O 	O 	0.12760 0.55020 0.85860 -0.44400
O 	O 	0.10510 0.67630 0.91760 -0.38600
O 	O 	0.30530 0.75810 0.84280 -0.43200
O 	O 	0.43020 0.67340 0.78030 -0.51100
O 	O 	0.10940 0.34340 0.17280 -0.63100
O 	O 	0.53710 0.98880 0.20530 -0.43800
O 	O 	0.68650 0.06100 0.16710 -0.44700
O 	O 	0.84230 0.06950 0.01610 -0.22300
O 	O 	0.88720 0.97200 0.11200 -0.35100
O 	O 	0.87240 0.94980 0.85860 -0.39700
O 	O 	0.89490 0.82370 0.91760 -0.33900
O 	O 	0.69470 0.74190 0.84280 -0.42900
O 	O 	0.56980 0.82660 0.78030 -0.51000
O 	O 	0.89060 0.15660 0.17280 -0.60000
