data_crystal

_cell_length_a 11.94100
_cell_length_b 15.29860
_cell_length_c 17.31600
_cell_angle_alpha 84.72180
_cell_angle_beta  76.36610
_cell_angle_gamma 67.02910

_symmetry_space_group_name_	'P 1'
_symmetry_space_group_name_H-M	'P 1'

loop_
_symmetry_equiv_pos_as_xyz
  x,y,z

loop_
_atom_site_label
_atom_site_type_symbol
_atom_site_fract_x
_atom_site_fract_y
_atom_site_fract_z
_atom_site_charge
Cd	Cd	0.52726 0.56266 0.33444 1.22800
Cd	Cd	0.20915 0.36928 0.18588 1.23700
Cd	Cd	0.91008 0.56266 0.16556 1.22700
Cd	Cd	0.42157 0.36928 0.31412 1.23700
Cd	Cd	0.47274 0.43734 0.66556 1.22800
Cd	Cd	0.79085 0.63072 0.81412 1.23700
Cd	Cd	0.08992 0.43734 0.83444 1.22600
Cd	Cd	0.57843 0.63072 0.68588 1.23600
H 	H 	0.89210 0.65140 0.46430 0.06500
H 	H 	0.08920 0.61960 0.38560 0.05100
H 	H 	0.50900 0.70880 0.19280 0.00500
H 	H 	0.43840 0.86480 0.16200 0.07900
H 	H 	0.44580 0.00620 0.15040 0.07600
H 	H 	0.38890 0.16600 0.12500 0.00200
H 	H 	0.13510 0.22460 0.32040 0.00600
H 	H 	0.19030 0.06840 0.35290 0.08200
H 	H 	0.32270 0.92600 0.39320 0.07900
H 	H 	0.40150 0.76360 0.41770 -0.00100
H 	H 	0.15300 0.34800 0.02770 0.24700
H 	H 	0.45650 0.65140 0.03570 0.06400
H 	H 	0.29120 0.61960 0.11440 0.05200
H 	H 	0.78220 0.70880 0.30720 0.00500
H 	H 	0.69680 0.86480 0.33800 0.07900
H 	H 	0.54800 0.00620 0.34960 0.07600
H 	H 	0.44510 0.16600 0.37500 0.00200
H 	H 	0.64030 0.22460 0.17960 0.00600
H 	H 	0.74130 0.06840 0.14710 0.08200
H 	H 	0.75130 0.92600 0.10680 0.07900
H 	H 	0.83490 0.76360 0.08230 -0.00200
H 	H 	0.49900 0.34800 0.47230 0.24600
H 	H 	0.10790 0.34860 0.53570 0.06500
H 	H 	0.91080 0.38040 0.61440 0.05100
H 	H 	0.49100 0.29120 0.80720 0.00500
H 	H 	0.56160 0.13520 0.83800 0.07900
H 	H 	0.55420 0.99380 0.84960 0.07600
H 	H 	0.61110 0.83400 0.87500 0.00200
H 	H 	0.86490 0.77540 0.67960 0.00600
H 	H 	0.80970 0.93160 0.64710 0.08200
H 	H 	0.67730 0.07400 0.60680 0.07900
H 	H 	0.59850 0.23640 0.58230 -0.00100
H 	H 	0.84700 0.65200 0.97230 0.24700
H 	H 	0.54350 0.34860 0.96430 0.06400
H 	H 	0.70880 0.38040 0.88560 0.05200
H 	H 	0.21780 0.29120 0.69280 0.00500
H 	H 	0.30320 0.13520 0.66200 0.07900
H 	H 	0.45200 0.99380 0.65040 0.07600
H 	H 	0.55490 0.83400 0.62500 0.00200
H 	H 	0.35970 0.77540 0.82040 0.00600
H 	H 	0.25870 0.93160 0.85290 0.08200
H 	H 	0.24870 0.07400 0.89320 0.07900
H 	H 	0.16510 0.23640 0.91770 -0.00200
H 	H 	0.50100 0.65200 0.52770 0.24600
C 	C 	0.30720 0.56100 0.42460 0.33100
C 	C 	0.18220 0.56960 0.47380 -0.06400
C 	C 	0.16760 0.54660 0.55380 -0.00900
C 	C 	0.28100 0.49940 0.58880 0.30800
C 	C 	0.04890 0.56560 0.60220 -0.04100
C 	C 	0.04030 0.54020 0.68880 0.33800
C 	C 	0.94490 0.60720 0.56770 -0.04900
C 	C 	0.81490 0.62480 0.61500 0.32500
C 	C 	0.96130 0.62580 0.48720 -0.02700
C 	C 	0.07930 0.60700 0.43980 -0.01100
C 	C 	0.47120 0.75300 0.23380 0.07100
C 	C 	0.42820 0.84680 0.21510 -0.13300
C 	C 	0.37070 0.91480 0.27270 0.05900
C 	C 	0.32610 0.01760 0.25470 0.05900
C 	C 	0.38290 0.04960 0.18680 -0.12800
C 	C 	0.34760 0.14640 0.17150 0.07100
C 	C 	0.20030 0.18020 0.28600 0.08400
C 	C 	0.23190 0.08620 0.30560 -0.13600
C 	C 	0.36030 0.88320 0.35120 -0.13500
C 	C 	0.40810 0.78480 0.36530 0.08400
C 	C 	0.13180 0.56100 0.07540 0.33000
C 	C 	0.24820 0.56960 0.02620 -0.06100
C 	C 	0.28580 0.54660 0.94620 -0.01200
C 	C 	0.21960 0.49940 0.91120 0.30800
C 	C 	0.38550 0.56560 0.89780 -0.04000
C 	C 	0.41950 0.54020 0.81120 0.33900
C 	C 	0.44790 0.60720 0.93230 -0.05100
C 	C 	0.56030 0.62480 0.88500 0.32600
C 	C 	0.41290 0.62580 0.01280 -0.02500
C 	C 	0.31370 0.60700 0.06020 -0.01300
C 	C 	0.77580 0.75300 0.26620 0.07100
C 	C 	0.72500 0.84680 0.28490 -0.13300
C 	C 	0.71450 0.91480 0.22730 0.05800
C 	C 	0.65630 0.01760 0.24530 0.05900
C 	C 	0.56750 0.04960 0.31320 -0.12800
C 	C 	0.50600 0.14640 0.32850 0.07100
C 	C 	0.61950 0.18020 0.21400 0.08400
C 	C 	0.68190 0.08620 0.19440 -0.13600
C 	C 	0.75650 0.88320 0.14880 -0.13500
C 	C 	0.80710 0.78480 0.13470 0.08300
C 	C 	0.69280 0.43900 0.57540 0.33100
C 	C 	0.81780 0.43040 0.52620 -0.06400
C 	C 	0.83240 0.45340 0.44620 -0.00900
C 	C 	0.71900 0.50060 0.41120 0.30800
C 	C 	0.95110 0.43440 0.39780 -0.04100
C 	C 	0.95970 0.45980 0.31120 0.33800
C 	C 	0.05510 0.39280 0.43230 -0.04900
C 	C 	0.18510 0.37520 0.38500 0.32500
C 	C 	0.03870 0.37420 0.51280 -0.02700
C 	C 	0.92070 0.39300 0.56020 -0.01100
C 	C 	0.52880 0.24700 0.76620 0.07100
C 	C 	0.57180 0.15320 0.78490 -0.13300
C 	C 	0.62930 0.08520 0.72730 0.05900
C 	C 	0.67390 0.98240 0.74530 0.05900
C 	C 	0.61710 0.95040 0.81320 -0.12800
C 	C 	0.65240 0.85360 0.82850 0.07100
C 	C 	0.79970 0.81980 0.71400 0.08400
C 	C 	0.76810 0.91380 0.69440 -0.13600
C 	C 	0.63970 0.11680 0.64880 -0.13500
C 	C 	0.59190 0.21520 0.63470 0.08400
C 	C 	0.86820 0.43900 0.92460 0.33000
C 	C 	0.75180 0.43040 0.97380 -0.06100
C 	C 	0.71420 0.45340 0.05380 -0.01200
C 	C 	0.78040 0.50060 0.08880 0.30800
C 	C 	0.61450 0.43440 0.10220 -0.04000
C 	C 	0.58050 0.45980 0.18880 0.33900
C 	C 	0.55210 0.39280 0.06770 -0.05100
C 	C 	0.43970 0.37520 0.11500 0.32600
C 	C 	0.58710 0.37420 0.98720 -0.02500
C 	C 	0.68630 0.39300 0.93980 -0.01300
C 	C 	0.22420 0.24700 0.73380 0.07100
C 	C 	0.27500 0.15320 0.71510 -0.13300
C 	C 	0.28550 0.08520 0.77270 0.05800
C 	C 	0.34370 0.98240 0.75470 0.05900
C 	C 	0.43250 0.95040 0.68680 -0.12800
C 	C 	0.49400 0.85360 0.67150 0.07100
C 	C 	0.38050 0.81980 0.78600 0.08400
C 	C 	0.31810 0.91380 0.80560 -0.13600
C 	C 	0.24350 0.11680 0.85120 -0.13500
C 	C 	0.19290 0.21520 0.86530 0.08300
N 	N 	0.46140 0.72160 0.30870 -0.23900
N 	N 	0.25720 0.21220 0.22050 -0.23200
N 	N 	0.81700 0.72160 0.19130 -0.23900
N 	N 	0.53060 0.21220 0.27950 -0.23200
N 	N 	0.53860 0.27840 0.69130 -0.23900
N 	N 	0.74280 0.78780 0.77950 -0.23200
N 	N 	0.18300 0.27840 0.80870 -0.23900
N 	N 	0.46940 0.78780 0.72050 -0.23200
O 	O 	0.36970 0.59300 0.45280 -0.37200
O 	O 	0.34405 0.52830 0.35460 -0.48000
O 	O 	0.35798 0.41964 0.56420 -0.35100
O 	O 	0.29120 0.54040 0.64450 -0.37700
O 	O 	0.09010 0.45400 0.70480 -0.41300
O 	O 	0.98918 0.60464 0.74050 -0.40900
O 	O 	0.79779 0.58902 0.68320 -0.46700
O 	O 	0.72480 0.67060 0.58430 -0.37000
O 	O 	0.13230 0.34540 0.08030 -0.43900
O 	O 	0.03730 0.59300 0.04720 -0.37000
O 	O 	0.12765 0.52830 0.14540 -0.47900
O 	O 	0.22238 0.41964 0.93580 -0.35200
O 	O 	0.16840 0.54040 0.85550 -0.37800
O 	O 	0.45590 0.45400 0.79520 -0.41300
O 	O 	0.40618 0.60464 0.75950 -0.41100
O 	O 	0.61319 0.58902 0.81680 -0.46800
O 	O 	0.60460 0.67060 0.91570 -0.37000
O 	O 	0.52230 0.34540 0.41970 -0.43900
O 	O 	0.63030 0.40700 0.54720 -0.37200
O 	O 	0.65595 0.47170 0.64540 -0.48000
O 	O 	0.64202 0.58036 0.43580 -0.35100
O 	O 	0.70880 0.45960 0.35550 -0.37700
O 	O 	0.90990 0.54600 0.29520 -0.41300
O 	O 	0.01082 0.39536 0.25950 -0.40900
O 	O 	0.20221 0.41098 0.31680 -0.46700
O 	O 	0.27520 0.32940 0.41570 -0.37000
O 	O 	0.86770 0.65460 0.91970 -0.43900
O 	O 	0.96270 0.40700 0.95280 -0.37000
O 	O 	0.87235 0.47170 0.85460 -0.47900
O 	O 	0.77762 0.58036 0.06420 -0.35200
O 	O 	0.83160 0.45960 0.14450 -0.37800
O 	O 	0.54410 0.54600 0.20480 -0.41300
O 	O 	0.59382 0.39536 0.24050 -0.41100
O 	O 	0.38681 0.41098 0.18320 -0.46800
O 	O 	0.39540 0.32940 0.08430 -0.37000
O 	O 	0.47770 0.65460 0.58030 -0.43900
