data_crystal

_cell_length_a 17.01050
_cell_length_b 21.95940
_cell_length_c 24.80810
_cell_angle_alpha 90.00000
_cell_angle_beta  90.00000
_cell_angle_gamma 90.00000

_symmetry_space_group_name_	'P 1'
_symmetry_space_group_name_H-M	'P 1'

loop_
_symmetry_equiv_pos_as_xyz
  x,y,z

loop_
_atom_site_label
_atom_site_type_symbol
_atom_site_fract_x
_atom_site_fract_y
_atom_site_fract_z
_atom_site_charge
Th	Th	0.43088 0.59800 0.55477 0.04500
Th	Th	0.45300 0.54819 0.39889 0.04600
Th	Th	0.64543 0.56240 0.49495 0.04600
O 	O 	0.44690 0.59620 0.65270 -0.19200
O 	O 	0.50790 0.51130 0.67960 -0.19900
O 	O 	0.36210 0.82730 0.99600 -0.17800
O 	O 	0.37750 0.85560 0.90790 -0.18100
O 	O 	0.65800 0.87890 0.91310 -0.18600
O 	O 	0.55360 0.88300 0.85810 -0.18900
O 	O 	0.35130 0.65660 0.83280 -0.23600
O 	O 	0.51840 0.76910 0.93610 -0.20200
O 	O 	0.60000 0.69260 0.77600 -0.23700
O 	O 	0.29500 0.58330 0.58350 -0.19600
O 	O 	0.24880 0.49660 0.54970 -0.19400
O 	O 	0.32350 0.51470 0.37020 -0.20200
O 	O 	0.25940 0.45970 0.43090 -0.19000
O 	O 	0.01570 0.81060 0.43680 -0.19300
O 	O 	0.13630 0.83370 0.46630 -0.19400
O 	O 	0.09580 0.44840 0.48750 -0.21900
O 	O 	0.07710 0.60440 0.36770 -0.24100
O 	O 	0.05040 0.63880 0.54790 -0.24500
O 	O 	0.51420 0.60650 0.47300 -0.01600
O 	O 	0.38230 0.53890 0.48120 -0.02200
O 	O 	0.58090 0.50680 0.42160 -0.02200
O 	O 	0.55840 0.55540 0.57080 -0.02100
N 	N 	0.47390 0.67820 0.80150 -0.20100
N 	N 	0.43440 0.71060 0.88650 -0.19300
N 	N 	0.56230 0.72810 0.85740 -0.19400
N 	N 	0.08750 0.54530 0.51960 -0.19500
N 	N 	0.09690 0.52600 0.42690 -0.19900
N 	N 	0.06140 0.62330 0.45740 -0.19400
C 	C 	0.47830 0.56200 0.68770 0.37000
C 	C 	0.47850 0.58610 0.74450 -0.33800
H 	H 	0.44120 0.56200 0.76660 0.14500
H 	H 	0.53160 0.58090 0.76010 0.15600
C 	C 	0.45580 0.65210 0.74710 0.09100
H 	H 	0.48500 0.67510 0.71910 0.04800
H 	H 	0.39890 0.65640 0.73960 0.04100
C 	C 	0.41530 0.68050 0.83980 0.28700
C 	C 	0.37530 0.70940 0.92990 0.09000
H 	H 	0.40260 0.71200 0.96510 0.04700
H 	H 	0.34710 0.67000 0.92870 0.04800
C 	C 	0.31570 0.76080 0.92620 -0.32400
H 	H 	0.29720 0.76510 0.88860 0.15500
H 	H 	0.26970 0.75160 0.94930 0.14500
C 	C 	0.35400 0.81930 0.94460 0.34300
C 	C 	0.50500 0.73840 0.89580 0.30000
C 	C 	0.64360 0.75100 0.86790 0.09500
H 	H 	0.68230 0.72070 0.85480 0.03000
H 	H 	0.65140 0.75610 0.90720 0.04100
C 	C 	0.65740 0.81200 0.83950 -0.33900
H 	H 	0.71450 0.81960 0.83610 0.15400
H 	H 	0.63440 0.81070 0.80290 0.16200
C 	C 	0.61970 0.86260 0.87170 0.36500
C 	C 	0.54850 0.69860 0.80950 0.28800
C 	C 	0.24150 0.54360 0.57650 0.37200
C 	C 	0.16340 0.55570 0.60380 -0.35200
H 	H 	0.16610 0.54120 0.64150 0.15000
H 	H 	0.15410 0.60020 0.60470 0.16200
C 	C 	0.09490 0.52530 0.57610 0.11700
H 	H 	0.10220 0.48060 0.57710 0.03500
H 	H 	0.04580 0.53500 0.59570 0.01400
C 	C 	0.09430 0.50300 0.47810 0.29800
C 	C 	0.11200 0.48440 0.38110 0.12000
H 	H 	0.06950 0.48910 0.35420 0.00800
H 	H 	0.11100 0.44180 0.39430 0.03500
C 	C 	0.19040 0.49660 0.35430 -0.36200
H 	H 	0.19520 0.46880 0.32300 0.15800
H 	H 	0.18940 0.53870 0.34000 0.16800
C 	C 	0.26280 0.48990 0.38790 0.38400
C 	C 	0.07930 0.58610 0.41340 0.28500
C 	C 	0.03700 0.68750 0.44680 0.08600
H 	H 	0.99630 0.69980 0.47320 0.05000
H 	H 	0.01390 0.69050 0.41030 0.04500
C 	C 	0.10660 0.72960 0.45110 -0.32200
H 	H 	0.14250 0.72180 0.42050 0.14100
H 	H 	0.13550 0.72040 0.48480 0.15200
C 	C 	0.08330 0.79700 0.45110 0.36500
C 	C 	0.06530 0.60520 0.51060 0.29400
Th	Th	0.06912 0.40200 0.05477 0.04400
Th	Th	0.04700 0.45181 0.89889 0.04500
Th	Th	0.85457 0.43760 0.99495 0.04500
O 	O 	0.05310 0.40380 0.15270 -0.19300
O 	O 	0.99210 0.48870 0.17960 -0.20000
O 	O 	0.13790 0.17270 0.49600 -0.17900
O 	O 	0.12250 0.14440 0.40790 -0.18200
O 	O 	0.84200 0.12110 0.41310 -0.18700
O 	O 	0.94640 0.11700 0.35810 -0.19000
O 	O 	0.14870 0.34340 0.33280 -0.23700
O 	O 	0.98160 0.23090 0.43610 -0.20200
O 	O 	0.90000 0.30740 0.27600 -0.23700
O 	O 	0.20500 0.41670 0.08350 -0.19600
O 	O 	0.25120 0.50340 0.04970 -0.19400
O 	O 	0.17650 0.48530 0.87020 -0.20200
O 	O 	0.24060 0.54030 0.93090 -0.19000
O 	O 	0.48430 0.18940 0.93680 -0.19300
O 	O 	0.36370 0.16630 0.96630 -0.19400
O 	O 	0.40420 0.55160 0.98750 -0.21900
O 	O 	0.42290 0.39560 0.86770 -0.24100
O 	O 	0.44960 0.36120 0.04790 -0.24500
O 	O 	0.98580 0.39350 0.97300 -0.01700
O 	O 	0.11770 0.46110 0.98120 -0.02100
O 	O 	0.91910 0.49320 0.92160 -0.02200
O 	O 	0.94160 0.44460 0.07080 -0.02100
N 	N 	0.02610 0.32180 0.30150 -0.20100
N 	N 	0.06560 0.28940 0.38650 -0.19300
N 	N 	0.93770 0.27190 0.35740 -0.19400
N 	N 	0.41250 0.45470 0.01960 -0.19500
N 	N 	0.40310 0.47400 0.92690 -0.19900
N 	N 	0.43860 0.37670 0.95740 -0.19400
C 	C 	0.02170 0.43800 0.18770 0.37000
C 	C 	0.02150 0.41390 0.24450 -0.33800
H 	H 	0.05880 0.43800 0.26660 0.14500
H 	H 	0.96840 0.41910 0.26010 0.15600
C 	C 	0.04420 0.34790 0.24710 0.09100
H 	H 	0.01500 0.32490 0.21910 0.04800
H 	H 	0.10110 0.34360 0.23960 0.04100
C 	C 	0.08470 0.31950 0.33980 0.28700
C 	C 	0.12470 0.29060 0.42990 0.09000
H 	H 	0.09740 0.28800 0.46510 0.04700
H 	H 	0.15290 0.33000 0.42870 0.04800
C 	C 	0.18430 0.23920 0.42620 -0.32400
H 	H 	0.20280 0.23490 0.38860 0.15500
H 	H 	0.23030 0.24840 0.44930 0.14500
C 	C 	0.14600 0.18070 0.44460 0.34300
C 	C 	0.99500 0.26160 0.39580 0.30000
C 	C 	0.85640 0.24900 0.36790 0.09500
H 	H 	0.81770 0.27930 0.35480 0.03000
H 	H 	0.84860 0.24390 0.40720 0.04100
C 	C 	0.84260 0.18800 0.33950 -0.33900
H 	H 	0.78550 0.18040 0.33610 0.15400
H 	H 	0.86560 0.18930 0.30290 0.16200
C 	C 	0.88030 0.13740 0.37170 0.36500
C 	C 	0.95150 0.30140 0.30950 0.28800
C 	C 	0.25850 0.45640 0.07650 0.37200
C 	C 	0.33660 0.44430 0.10380 -0.35200
H 	H 	0.33390 0.45880 0.14150 0.15000
H 	H 	0.34590 0.39980 0.10470 0.16200
C 	C 	0.40510 0.47470 0.07610 0.11700
H 	H 	0.39780 0.51940 0.07710 0.03500
H 	H 	0.45420 0.46500 0.09570 0.01400
C 	C 	0.40570 0.49700 0.97810 0.29800
C 	C 	0.38800 0.51560 0.88110 0.12000
H 	H 	0.43050 0.51090 0.85420 0.00800
H 	H 	0.38900 0.55820 0.89430 0.03500
C 	C 	0.30960 0.50340 0.85430 -0.36200
H 	H 	0.30480 0.53120 0.82300 0.15800
H 	H 	0.31060 0.46130 0.84000 0.16800
C 	C 	0.23720 0.51010 0.88790 0.38400
C 	C 	0.42070 0.41390 0.91340 0.28500
C 	C 	0.46300 0.31250 0.94680 0.08600
H 	H 	0.50370 0.30020 0.97320 0.05000
H 	H 	0.48610 0.30950 0.91030 0.04500
C 	C 	0.39340 0.27040 0.95110 -0.32200
H 	H 	0.35750 0.27820 0.92050 0.14100
H 	H 	0.36450 0.27960 0.98480 0.15200
C 	C 	0.41670 0.20300 0.95110 0.36500
C 	C 	0.43470 0.39480 0.01060 0.29400
Th	Th	0.56912 0.09800 0.94523 0.04400
Th	Th	0.54700 0.04819 0.10111 0.04500
Th	Th	0.35457 0.06240 0.00505 0.04500
O 	O 	0.55310 0.09620 0.84730 -0.19300
O 	O 	0.49210 0.01130 0.82040 -0.20000
O 	O 	0.63790 0.32730 0.50400 -0.17900
O 	O 	0.62250 0.35560 0.59210 -0.18200
O 	O 	0.34200 0.37890 0.58690 -0.18700
O 	O 	0.44640 0.38300 0.64190 -0.19000
O 	O 	0.64870 0.15660 0.66720 -0.23700
O 	O 	0.48160 0.26910 0.56390 -0.20200
O 	O 	0.40000 0.19260 0.72400 -0.23700
O 	O 	0.70500 0.08330 0.91650 -0.19600
O 	O 	0.75120 0.99660 0.95030 -0.19400
O 	O 	0.67650 0.01470 0.12980 -0.20200
O 	O 	0.74060 0.95970 0.06910 -0.19000
O 	O 	0.98430 0.31060 0.06320 -0.19300
O 	O 	0.86370 0.33370 0.03370 -0.19400
O 	O 	0.90420 0.94840 0.01250 -0.21900
O 	O 	0.92290 0.10440 0.13230 -0.24100
O 	O 	0.94960 0.13880 0.95210 -0.24500
O 	O 	0.48580 0.10650 0.02700 -0.01600
O 	O 	0.61770 0.03890 0.01880 -0.02200
O 	O 	0.41910 0.00680 0.07840 -0.02200
O 	O 	0.44160 0.05540 0.92920 -0.02100
N 	N 	0.52610 0.17820 0.69850 -0.20100
N 	N 	0.56560 0.21060 0.61350 -0.19300
N 	N 	0.43770 0.22810 0.64260 -0.19400
N 	N 	0.91250 0.04530 0.98040 -0.19500
N 	N 	0.90310 0.02600 0.07310 -0.19900
N 	N 	0.93860 0.12330 0.04260 -0.19400
C 	C 	0.52170 0.06200 0.81230 0.37000
C 	C 	0.52150 0.08610 0.75550 -0.33800
H 	H 	0.55880 0.06200 0.73340 0.14500
H 	H 	0.46840 0.08090 0.73990 0.15600
C 	C 	0.54420 0.15210 0.75290 0.09100
H 	H 	0.51500 0.17510 0.78090 0.04800
H 	H 	0.60110 0.15640 0.76040 0.04100
C 	C 	0.58470 0.18050 0.66020 0.28700
C 	C 	0.62470 0.20940 0.57010 0.09000
H 	H 	0.59740 0.21200 0.53490 0.04700
H 	H 	0.65290 0.17000 0.57130 0.04800
C 	C 	0.68430 0.26080 0.57380 -0.32400
H 	H 	0.70280 0.26510 0.61140 0.15400
H 	H 	0.73030 0.25160 0.55070 0.14500
C 	C 	0.64600 0.31930 0.55540 0.34300
C 	C 	0.49500 0.23840 0.60420 0.30000
C 	C 	0.35640 0.25100 0.63210 0.09500
H 	H 	0.31770 0.22070 0.64520 0.03000
H 	H 	0.34860 0.25610 0.59280 0.04100
C 	C 	0.34260 0.31200 0.66050 -0.33900
H 	H 	0.28550 0.31960 0.66390 0.15400
H 	H 	0.36560 0.31070 0.69710 0.16200
C 	C 	0.38030 0.36260 0.62830 0.36500
C 	C 	0.45150 0.19860 0.69050 0.28800
C 	C 	0.75850 0.04360 0.92350 0.37200
C 	C 	0.83660 0.05570 0.89620 -0.35100
H 	H 	0.83390 0.04120 0.85850 0.15000
H 	H 	0.84590 0.10020 0.89530 0.16200
C 	C 	0.90510 0.02530 0.92390 0.11600
H 	H 	0.89780 0.98060 0.92290 0.03500
H 	H 	0.95420 0.03500 0.90430 0.01400
C 	C 	0.90570 0.00300 0.02190 0.29800
C 	C 	0.88800 0.98440 0.11890 0.12000
H 	H 	0.93050 0.98910 0.14580 0.00900
H 	H 	0.88900 0.94180 0.10570 0.03500
C 	C 	0.80960 0.99660 0.14570 -0.36200
H 	H 	0.80480 0.96880 0.17700 0.15800
H 	H 	0.81060 0.03870 0.16000 0.16800
C 	C 	0.73720 0.98990 0.11210 0.38400
C 	C 	0.92070 0.08610 0.08660 0.28500
C 	C 	0.96300 0.18750 0.05320 0.08700
H 	H 	0.00370 0.19980 0.02680 0.05000
H 	H 	0.98610 0.19050 0.08970 0.04500
C 	C 	0.89340 0.22960 0.04890 -0.32200
H 	H 	0.85750 0.22180 0.07950 0.14100
H 	H 	0.86450 0.22040 0.01520 0.15200
C 	C 	0.91670 0.29700 0.04890 0.36600
C 	C 	0.93470 0.10520 0.98940 0.29300
Th	Th	0.93088 0.90200 0.44523 0.04400
Th	Th	0.95300 0.95181 0.60111 0.04500
Th	Th	0.14543 0.93760 0.50505 0.04500
O 	O 	0.94690 0.90380 0.34730 -0.19300
O 	O 	0.00790 0.98870 0.32040 -0.20100
O 	O 	0.86210 0.67270 0.00400 -0.17900
O 	O 	0.87750 0.64440 0.09210 -0.18100
O 	O 	0.15800 0.62110 0.08690 -0.18700
O 	O 	0.05360 0.61700 0.14190 -0.19000
O 	O 	0.85130 0.84340 0.16720 -0.23700
O 	O 	0.01840 0.73090 0.06390 -0.20200
O 	O 	0.10000 0.80740 0.22400 -0.23700
O 	O 	0.79500 0.91670 0.41650 -0.19600
O 	O 	0.74880 0.00340 0.45030 -0.19400
O 	O 	0.82350 0.98530 0.62980 -0.20200
O 	O 	0.75940 0.04030 0.56910 -0.19000
O 	O 	0.51570 0.68940 0.56320 -0.19300
O 	O 	0.63630 0.66630 0.53370 -0.19400
O 	O 	0.59580 0.05160 0.51250 -0.21900
O 	O 	0.57710 0.89560 0.63230 -0.24100
O 	O 	0.55040 0.86120 0.45210 -0.24500
O 	O 	0.01420 0.89350 0.52700 -0.01700
O 	O 	0.88230 0.96110 0.51880 -0.02100
O 	O 	0.08090 0.99320 0.57840 -0.02200
O 	O 	0.05840 0.94460 0.42920 -0.02100
N 	N 	0.97390 0.82180 0.19850 -0.20100
N 	N 	0.93440 0.78940 0.11350 -0.19300
N 	N 	0.06230 0.77190 0.14260 -0.19400
N 	N 	0.58750 0.95470 0.48040 -0.19500
N 	N 	0.59690 0.97400 0.57310 -0.19900
N 	N 	0.56140 0.87670 0.54260 -0.19400
C 	C 	0.97830 0.93800 0.31230 0.37000
C 	C 	0.97850 0.91390 0.25550 -0.33700
H 	H 	0.94120 0.93800 0.23340 0.14500
H 	H 	0.03160 0.91910 0.23990 0.15500
C 	C 	0.95580 0.84790 0.25290 0.09000
H 	H 	0.98500 0.82490 0.28090 0.04800
H 	H 	0.89890 0.84360 0.26040 0.04100
C 	C 	0.91530 0.81950 0.16020 0.28700
C 	C 	0.87530 0.79060 0.07010 0.09000
H 	H 	0.90260 0.78800 0.03490 0.04700
H 	H 	0.84710 0.83000 0.07130 0.04800
C 	C 	0.81570 0.73920 0.07380 -0.32400
H 	H 	0.79720 0.73490 0.11140 0.15500
H 	H 	0.76970 0.74840 0.05070 0.14500
C 	C 	0.85400 0.68070 0.05540 0.34300
C 	C 	0.00500 0.76160 0.10420 0.29900
C 	C 	0.14360 0.74900 0.13210 0.09500
H 	H 	0.18230 0.77930 0.14520 0.03000
H 	H 	0.15140 0.74390 0.09280 0.04100
C 	C 	0.15740 0.68800 0.16050 -0.33900
H 	H 	0.21450 0.68040 0.16390 0.15400
H 	H 	0.13440 0.68930 0.19710 0.16200
C 	C 	0.11970 0.63740 0.12830 0.36500
C 	C 	0.04850 0.80140 0.19050 0.28800
C 	C 	0.74150 0.95640 0.42350 0.37200
C 	C 	0.66340 0.94430 0.39620 -0.35200
H 	H 	0.66610 0.95880 0.35850 0.15000
H 	H 	0.65410 0.89980 0.39530 0.16200
C 	C 	0.59490 0.97470 0.42390 0.11700
H 	H 	0.60220 0.01940 0.42290 0.03500
H 	H 	0.54580 0.96500 0.40430 0.01400
C 	C 	0.59430 0.99700 0.52190 0.29800
C 	C 	0.61200 0.01560 0.61890 0.12000
H 	H 	0.56950 0.01090 0.64580 0.00800
H 	H 	0.61100 0.05820 0.60570 0.03500
C 	C 	0.69040 0.00340 0.64570 -0.36200
H 	H 	0.69520 0.03120 0.67700 0.15800
H 	H 	0.68940 0.96130 0.66000 0.16800
C 	C 	0.76280 0.01010 0.61210 0.38400
C 	C 	0.57930 0.91390 0.58660 0.28500
C 	C 	0.53700 0.81250 0.55320 0.08600
H 	H 	0.49630 0.80020 0.52680 0.05000
H 	H 	0.51390 0.80950 0.58970 0.04500
C 	C 	0.60660 0.77040 0.54890 -0.32200
H 	H 	0.64250 0.77820 0.57950 0.14100
H 	H 	0.63550 0.77960 0.51520 0.15200
C 	C 	0.58330 0.70300 0.54890 0.36500
C 	C 	0.56530 0.89480 0.48940 0.29400
Th	Th	0.56912 0.40200 0.44523 0.04400
Th	Th	0.54700 0.45181 0.60111 0.04500
Th	Th	0.35457 0.43760 0.50505 0.04500
O 	O 	0.55310 0.40380 0.34730 -0.19300
O 	O 	0.49210 0.48870 0.32040 -0.20000
O 	O 	0.63790 0.17270 0.00400 -0.17900
O 	O 	0.62250 0.14440 0.09210 -0.18200
O 	O 	0.34200 0.12110 0.08690 -0.18700
O 	O 	0.44640 0.11700 0.14190 -0.19000
O 	O 	0.64870 0.34340 0.16720 -0.23700
O 	O 	0.48160 0.23090 0.06390 -0.20200
O 	O 	0.40000 0.30740 0.22400 -0.23700
O 	O 	0.70500 0.41670 0.41650 -0.19600
O 	O 	0.75120 0.50340 0.45030 -0.19400
O 	O 	0.67650 0.48530 0.62980 -0.20200
O 	O 	0.74060 0.54030 0.56910 -0.19000
O 	O 	0.98430 0.18940 0.56320 -0.19300
O 	O 	0.86370 0.16630 0.53370 -0.19400
O 	O 	0.90420 0.55160 0.51250 -0.21900
O 	O 	0.92290 0.39560 0.63230 -0.24100
O 	O 	0.94960 0.36120 0.45210 -0.24500
O 	O 	0.48580 0.39350 0.52700 -0.01600
O 	O 	0.61770 0.46110 0.51880 -0.02200
O 	O 	0.41910 0.49320 0.57840 -0.02200
O 	O 	0.44160 0.44460 0.42920 -0.02100
N 	N 	0.52610 0.32180 0.19850 -0.20100
N 	N 	0.56560 0.28940 0.11350 -0.19300
N 	N 	0.43770 0.27190 0.14260 -0.19400
N 	N 	0.91250 0.45470 0.48040 -0.19500
N 	N 	0.90310 0.47400 0.57310 -0.19900
N 	N 	0.93860 0.37670 0.54260 -0.19400
C 	C 	0.52170 0.43800 0.31230 0.37000
C 	C 	0.52150 0.41390 0.25550 -0.33800
H 	H 	0.55880 0.43800 0.23340 0.14500
H 	H 	0.46840 0.41910 0.23990 0.15600
C 	C 	0.54420 0.34790 0.25290 0.09100
H 	H 	0.51500 0.32490 0.28090 0.04800
H 	H 	0.60110 0.34360 0.26040 0.04100
C 	C 	0.58470 0.31950 0.16020 0.28700
C 	C 	0.62470 0.29060 0.07010 0.09000
H 	H 	0.59740 0.28800 0.03490 0.04700
H 	H 	0.65290 0.33000 0.07130 0.04800
C 	C 	0.68430 0.23920 0.07380 -0.32400
H 	H 	0.70280 0.23490 0.11140 0.15500
H 	H 	0.73030 0.24840 0.05070 0.14500
C 	C 	0.64600 0.18070 0.05540 0.34300
C 	C 	0.49500 0.26160 0.10420 0.30000
C 	C 	0.35640 0.24900 0.13210 0.09500
H 	H 	0.31770 0.27930 0.14520 0.03000
H 	H 	0.34860 0.24390 0.09280 0.04100
C 	C 	0.34260 0.18800 0.16050 -0.33900
H 	H 	0.28550 0.18040 0.16390 0.15400
H 	H 	0.36560 0.18930 0.19710 0.16200
C 	C 	0.38030 0.13740 0.12830 0.36500
C 	C 	0.45150 0.30140 0.19050 0.28800
C 	C 	0.75850 0.45640 0.42350 0.37200
C 	C 	0.83660 0.44430 0.39620 -0.35200
H 	H 	0.83390 0.45880 0.35850 0.15000
H 	H 	0.84590 0.39980 0.39530 0.16200
C 	C 	0.90510 0.47470 0.42390 0.11700
H 	H 	0.89780 0.51940 0.42290 0.03500
H 	H 	0.95420 0.46500 0.40430 0.01400
C 	C 	0.90570 0.49700 0.52190 0.29800
C 	C 	0.88800 0.51560 0.61890 0.12000
H 	H 	0.93050 0.51090 0.64580 0.00800
H 	H 	0.88900 0.55820 0.60570 0.03500
C 	C 	0.80960 0.50340 0.64570 -0.36200
H 	H 	0.80480 0.53120 0.67700 0.15800
H 	H 	0.81060 0.46130 0.66000 0.16800
C 	C 	0.73720 0.51010 0.61210 0.38400
C 	C 	0.92070 0.41390 0.58660 0.28500
C 	C 	0.96300 0.31250 0.55320 0.08600
H 	H 	0.00370 0.30020 0.52680 0.05000
H 	H 	0.98610 0.30950 0.58970 0.04500
C 	C 	0.89340 0.27040 0.54890 -0.32200
H 	H 	0.85750 0.27820 0.57950 0.14100
H 	H 	0.86450 0.27960 0.51520 0.15200
C 	C 	0.91670 0.20300 0.54890 0.36500
C 	C 	0.93470 0.39480 0.48940 0.29400
Th	Th	0.93088 0.59800 0.94523 0.04400
Th	Th	0.95300 0.54819 0.10111 0.04500
Th	Th	0.14543 0.56240 0.00505 0.04500
O 	O 	0.94690 0.59620 0.84730 -0.19300
O 	O 	0.00790 0.51130 0.82040 -0.20000
O 	O 	0.86210 0.82730 0.50400 -0.17900
O 	O 	0.87750 0.85560 0.59210 -0.18200
O 	O 	0.15800 0.87890 0.58690 -0.18700
O 	O 	0.05360 0.88300 0.64190 -0.19000
O 	O 	0.85130 0.65660 0.66720 -0.23700
O 	O 	0.01840 0.76910 0.56390 -0.20200
O 	O 	0.10000 0.69260 0.72400 -0.23700
O 	O 	0.79500 0.58330 0.91650 -0.19600
O 	O 	0.74880 0.49660 0.95030 -0.19400
O 	O 	0.82350 0.51470 0.12980 -0.20200
O 	O 	0.75940 0.45970 0.06910 -0.19000
O 	O 	0.51570 0.81060 0.06320 -0.19300
O 	O 	0.63630 0.83370 0.03370 -0.19400
O 	O 	0.59580 0.44840 0.01250 -0.21900
O 	O 	0.57710 0.60440 0.13230 -0.24100
O 	O 	0.55040 0.63880 0.95210 -0.24500
O 	O 	0.01420 0.60650 0.02700 -0.01700
O 	O 	0.88230 0.53890 0.01880 -0.02100
O 	O 	0.08090 0.50680 0.07840 -0.02200
O 	O 	0.05840 0.55540 0.92920 -0.02100
N 	N 	0.97390 0.67820 0.69850 -0.20100
N 	N 	0.93440 0.71060 0.61350 -0.19300
N 	N 	0.06230 0.72810 0.64260 -0.19400
N 	N 	0.58750 0.54530 0.98040 -0.19500
N 	N 	0.59690 0.52600 0.07310 -0.19900
N 	N 	0.56140 0.62330 0.04260 -0.19400
C 	C 	0.97830 0.56200 0.81230 0.37000
C 	C 	0.97850 0.58610 0.75550 -0.33800
H 	H 	0.94120 0.56200 0.73340 0.14500
H 	H 	0.03160 0.58090 0.73990 0.15600
C 	C 	0.95580 0.65210 0.75290 0.09100
H 	H 	0.98500 0.67510 0.78090 0.04800
H 	H 	0.89890 0.65640 0.76040 0.04100
C 	C 	0.91530 0.68050 0.66020 0.28700
C 	C 	0.87530 0.70940 0.57010 0.09000
H 	H 	0.90260 0.71200 0.53490 0.04700
H 	H 	0.84710 0.67000 0.57130 0.04800
C 	C 	0.81570 0.76080 0.57380 -0.32400
H 	H 	0.79720 0.76510 0.61140 0.15500
H 	H 	0.76970 0.75160 0.55070 0.14500
C 	C 	0.85400 0.81930 0.55540 0.34300
C 	C 	0.00500 0.73840 0.60420 0.30000
C 	C 	0.14360 0.75100 0.63210 0.09500
H 	H 	0.18230 0.72070 0.64520 0.03000
H 	H 	0.15140 0.75610 0.59280 0.04100
C 	C 	0.15740 0.81200 0.66050 -0.33900
H 	H 	0.21450 0.81960 0.66390 0.15400
H 	H 	0.13440 0.81070 0.69710 0.16200
C 	C 	0.11970 0.86260 0.62830 0.36500
C 	C 	0.04850 0.69860 0.69050 0.28800
C 	C 	0.74150 0.54360 0.92350 0.37200
C 	C 	0.66340 0.55570 0.89620 -0.35200
H 	H 	0.66610 0.54120 0.85850 0.15000
H 	H 	0.65410 0.60020 0.89530 0.16200
C 	C 	0.59490 0.52530 0.92390 0.11700
H 	H 	0.60220 0.48060 0.92290 0.03500
H 	H 	0.54580 0.53500 0.90430 0.01400
C 	C 	0.59430 0.50300 0.02190 0.29800
C 	C 	0.61200 0.48440 0.11890 0.12000
H 	H 	0.56950 0.48910 0.14580 0.00800
H 	H 	0.61100 0.44180 0.10570 0.03500
C 	C 	0.69040 0.49660 0.14570 -0.36200
H 	H 	0.69520 0.46880 0.17700 0.15800
H 	H 	0.68940 0.53870 0.16000 0.16800
C 	C 	0.76280 0.48990 0.11210 0.38400
C 	C 	0.57930 0.58610 0.08660 0.28500
C 	C 	0.53700 0.68750 0.05320 0.08600
H 	H 	0.49630 0.69980 0.02680 0.05000
H 	H 	0.51390 0.69050 0.08970 0.04500
C 	C 	0.60660 0.72960 0.04890 -0.32200
H 	H 	0.64250 0.72180 0.07950 0.14100
H 	H 	0.63550 0.72040 0.01520 0.15200
C 	C 	0.58330 0.79700 0.04890 0.36500
C 	C 	0.56530 0.60520 0.98940 0.29400
Th	Th	0.43088 0.90200 0.05477 0.04400
Th	Th	0.45300 0.95181 0.89889 0.04500
Th	Th	0.64543 0.93760 0.99495 0.04500
O 	O 	0.44690 0.90380 0.15270 -0.19300
O 	O 	0.50790 0.98870 0.17960 -0.20000
O 	O 	0.36210 0.67270 0.49600 -0.17900
O 	O 	0.37750 0.64440 0.40790 -0.18200
O 	O 	0.65800 0.62110 0.41310 -0.18700
O 	O 	0.55360 0.61700 0.35810 -0.19000
O 	O 	0.35130 0.84340 0.33280 -0.23700
O 	O 	0.51840 0.73090 0.43610 -0.20200
O 	O 	0.60000 0.80740 0.27600 -0.23700
O 	O 	0.29500 0.91670 0.08350 -0.19600
O 	O 	0.24880 0.00340 0.04970 -0.19400
O 	O 	0.32350 0.98530 0.87020 -0.20200
O 	O 	0.25940 0.04030 0.93090 -0.19000
O 	O 	0.01570 0.68940 0.93680 -0.19300
O 	O 	0.13630 0.66630 0.96630 -0.19400
O 	O 	0.09580 0.05160 0.98750 -0.21900
O 	O 	0.07710 0.89560 0.86770 -0.24100
O 	O 	0.05040 0.86120 0.04790 -0.24500
O 	O 	0.51420 0.89350 0.97300 -0.01600
O 	O 	0.38230 0.96110 0.98120 -0.02200
O 	O 	0.58090 0.99320 0.92160 -0.02200
O 	O 	0.55840 0.94460 0.07080 -0.02100
N 	N 	0.47390 0.82180 0.30150 -0.20100
N 	N 	0.43440 0.78940 0.38650 -0.19300
N 	N 	0.56230 0.77190 0.35740 -0.19400
N 	N 	0.08750 0.95470 0.01960 -0.19500
N 	N 	0.09690 0.97400 0.92690 -0.19900
N 	N 	0.06140 0.87670 0.95740 -0.19400
C 	C 	0.47830 0.93800 0.18770 0.37000
C 	C 	0.47850 0.91390 0.24450 -0.33800
H 	H 	0.44120 0.93800 0.26660 0.14500
H 	H 	0.53160 0.91910 0.26010 0.15600
C 	C 	0.45580 0.84790 0.24710 0.09100
H 	H 	0.48500 0.82490 0.21910 0.04800
H 	H 	0.39890 0.84360 0.23960 0.04100
C 	C 	0.41530 0.81950 0.33980 0.28700
C 	C 	0.37530 0.79060 0.42990 0.09000
H 	H 	0.40260 0.78800 0.46510 0.04700
H 	H 	0.34710 0.83000 0.42870 0.04800
C 	C 	0.31570 0.73920 0.42620 -0.32400
H 	H 	0.29720 0.73490 0.38860 0.15400
H 	H 	0.26970 0.74840 0.44930 0.14500
C 	C 	0.35400 0.68070 0.44460 0.34300
C 	C 	0.50500 0.76160 0.39580 0.30000
C 	C 	0.64360 0.74900 0.36790 0.09500
H 	H 	0.68230 0.77930 0.35480 0.03000
H 	H 	0.65140 0.74390 0.40720 0.04100
C 	C 	0.65740 0.68800 0.33950 -0.33900
H 	H 	0.71450 0.68040 0.33610 0.15400
H 	H 	0.63440 0.68930 0.30290 0.16200
C 	C 	0.61970 0.63740 0.37170 0.36500
C 	C 	0.54850 0.80140 0.30950 0.28800
C 	C 	0.24150 0.95640 0.07650 0.37200
C 	C 	0.16340 0.94430 0.10380 -0.35100
H 	H 	0.16610 0.95880 0.14150 0.15000
H 	H 	0.15410 0.89980 0.10470 0.16200
C 	C 	0.09490 0.97470 0.07610 0.11600
H 	H 	0.10220 0.01940 0.07710 0.03500
H 	H 	0.04580 0.96500 0.09570 0.01400
C 	C 	0.09430 0.99700 0.97810 0.29800
C 	C 	0.11200 0.01560 0.88110 0.12000
H 	H 	0.06950 0.01090 0.85420 0.00900
H 	H 	0.11100 0.05820 0.89430 0.03500
C 	C 	0.19040 0.00340 0.85430 -0.36200
H 	H 	0.19520 0.03120 0.82300 0.15800
H 	H 	0.18940 0.96130 0.84000 0.16800
C 	C 	0.26280 0.01010 0.88790 0.38400
C 	C 	0.07930 0.91390 0.91340 0.28500
C 	C 	0.03700 0.81250 0.94680 0.08700
H 	H 	0.99630 0.80020 0.97320 0.05000
H 	H 	0.01390 0.80950 0.91030 0.04500
C 	C 	0.10660 0.77040 0.95110 -0.32200
H 	H 	0.14250 0.77820 0.92050 0.14100
H 	H 	0.13550 0.77960 0.98480 0.15200
C 	C 	0.08330 0.70300 0.95110 0.36600
C 	C 	0.06530 0.89480 0.01060 0.29300
Th	Th	0.06912 0.09800 0.55477 0.04400
Th	Th	0.04700 0.04819 0.39889 0.04500
Th	Th	0.85457 0.06240 0.49495 0.04500
O 	O 	0.05310 0.09620 0.65270 -0.19300
O 	O 	0.99210 0.01130 0.67960 -0.20100
O 	O 	0.13790 0.32730 0.99600 -0.17900
O 	O 	0.12250 0.35560 0.90790 -0.18100
O 	O 	0.84200 0.37890 0.91310 -0.18700
O 	O 	0.94640 0.38300 0.85810 -0.19000
O 	O 	0.14870 0.15660 0.83280 -0.23700
O 	O 	0.98160 0.26910 0.93610 -0.20200
O 	O 	0.90000 0.19260 0.77600 -0.23700
O 	O 	0.20500 0.08330 0.58350 -0.19600
O 	O 	0.25120 0.99660 0.54970 -0.19400
O 	O 	0.17650 0.01470 0.37020 -0.20200
O 	O 	0.24060 0.95970 0.43090 -0.19000
O 	O 	0.48430 0.31060 0.43680 -0.19300
O 	O 	0.36370 0.33370 0.46630 -0.19400
O 	O 	0.40420 0.94840 0.48750 -0.21900
O 	O 	0.42290 0.10440 0.36770 -0.24100
O 	O 	0.44960 0.13880 0.54790 -0.24500
O 	O 	0.98580 0.10650 0.47300 -0.01700
O 	O 	0.11770 0.03890 0.48120 -0.02100
O 	O 	0.91910 0.00680 0.42160 -0.02200
O 	O 	0.94160 0.05540 0.57080 -0.02100
N 	N 	0.02610 0.17820 0.80150 -0.20100
N 	N 	0.06560 0.21060 0.88650 -0.19300
N 	N 	0.93770 0.22810 0.85740 -0.19400
N 	N 	0.41250 0.04530 0.51960 -0.19500
N 	N 	0.40310 0.02600 0.42690 -0.19900
N 	N 	0.43860 0.12330 0.45740 -0.19400
C 	C 	0.02170 0.06200 0.68770 0.37000
C 	C 	0.02150 0.08610 0.74450 -0.33700
H 	H 	0.05880 0.06200 0.76660 0.14500
H 	H 	0.96840 0.08090 0.76010 0.15500
C 	C 	0.04420 0.15210 0.74710 0.09000
H 	H 	0.01500 0.17510 0.71910 0.04800
H 	H 	0.10110 0.15640 0.73960 0.04100
C 	C 	0.08470 0.18050 0.83980 0.28700
C 	C 	0.12470 0.20940 0.92990 0.09000
H 	H 	0.09740 0.21200 0.96510 0.04700
H 	H 	0.15290 0.17000 0.92870 0.04800
C 	C 	0.18430 0.26080 0.92620 -0.32400
H 	H 	0.20280 0.26510 0.88860 0.15500
H 	H 	0.23030 0.25160 0.94930 0.14500
C 	C 	0.14600 0.31930 0.94460 0.34300
C 	C 	0.99500 0.23840 0.89580 0.29900
C 	C 	0.85640 0.25100 0.86790 0.09500
H 	H 	0.81770 0.22070 0.85480 0.03000
H 	H 	0.84860 0.25610 0.90720 0.04100
C 	C 	0.84260 0.31200 0.83950 -0.33900
H 	H 	0.78550 0.31960 0.83610 0.15400
H 	H 	0.86560 0.31070 0.80290 0.16200
C 	C 	0.88030 0.36260 0.87170 0.36500
C 	C 	0.95150 0.19860 0.80950 0.28800
C 	C 	0.25850 0.04360 0.57650 0.37200
C 	C 	0.33660 0.05570 0.60380 -0.35200
H 	H 	0.33390 0.04120 0.64150 0.15000
H 	H 	0.34590 0.10020 0.60470 0.16200
C 	C 	0.40510 0.02530 0.57610 0.11700
H 	H 	0.39780 0.98060 0.57710 0.03500
H 	H 	0.45420 0.03500 0.59570 0.01400
C 	C 	0.40570 0.00300 0.47810 0.29800
C 	C 	0.38800 0.98440 0.38110 0.12000
H 	H 	0.43050 0.98910 0.35420 0.00800
H 	H 	0.38900 0.94180 0.39430 0.03500
C 	C 	0.30960 0.99660 0.35430 -0.36200
H 	H 	0.30480 0.96880 0.32300 0.15800
H 	H 	0.31060 0.03870 0.34000 0.16800
C 	C 	0.23720 0.98990 0.38790 0.38400
C 	C 	0.42070 0.08610 0.41340 0.28500
C 	C 	0.46300 0.18750 0.44680 0.08600
H 	H 	0.50370 0.19980 0.47320 0.05000
H 	H 	0.48610 0.19050 0.41030 0.04500
C 	C 	0.39340 0.22960 0.45110 -0.32200
H 	H 	0.35750 0.22180 0.42050 0.14100
H 	H 	0.36450 0.22040 0.48480 0.15200
C 	C 	0.41670 0.29700 0.45110 0.36500
C 	C 	0.43470 0.10520 0.51060 0.29400
