data_crystal

_cell_length_a 8.55360
_cell_length_b 19.39190
_cell_length_c 44.30140
_cell_angle_alpha 90.00000
_cell_angle_beta  91.11100
_cell_angle_gamma 90.00000

_symmetry_space_group_name_	'P 1'
_symmetry_space_group_name_H-M	'P 1'

loop_
_symmetry_equiv_pos_as_xyz
  x,y,z

loop_
_atom_site_label
_atom_site_type_symbol
_atom_site_fract_x
_atom_site_fract_y
_atom_site_fract_z
_atom_site_charge
U 	U 	0.08011 0.80385 0.84339 -0.00500
O 	O 	0.01260 0.73330 0.79763 -0.24600
C 	C 	0.68870 0.55750 0.73630 0.07300
C 	C 	0.54830 0.62430 0.70270 0.11100
N 	N 	0.65240 0.61890 0.72620 -0.12200
O 	O 	0.16380 0.85710 0.89200 -0.17700
C 	C 	0.15790 0.47180 0.84330 -0.03300
H 	H 	0.23650 0.46560 0.85790 0.06200
C 	C 	0.18870 0.79660 0.90520 0.24700
C 	C 	0.11720 0.53980 0.83590 -0.05500
H 	H 	0.15290 0.57800 0.84660 0.08800
C 	C 	0.51800 0.80050 0.96380 0.08400
C 	C 	0.20400 0.76990 0.95880 -0.05800
H 	H 	0.09860 0.75800 0.95740 0.07000
C 	C 	0.43700 0.80860 0.93570 0.01800
C 	C 	0.27670 0.79370 0.93430 -0.03500
C 	C 	0.52750 0.49880 0.70020 -0.03800
C 	C 	0.97150 0.61200 0.79920 -0.02900
C 	C 	0.62830 0.49490 0.72420 -0.07200
H 	H 	0.65680 0.45250 0.73250 0.08300
C 	C 	0.86830 0.61440 0.77490 -0.07400
H 	H 	0.83960 0.65690 0.76680 0.08700
C 	C 	0.94920 0.48810 0.79620 0.09200
C 	C 	0.98780 0.41720 0.80620 -0.07600
H 	H 	0.94730 0.37770 0.79710 0.10100
C 	C 	0.36830 0.57610 0.66440 -0.04600
H 	H 	0.31840 0.53910 0.65500 0.07500
C 	C 	0.09440 0.41630 0.83150 -0.00900
H 	H 	0.12010 0.37380 0.84000 0.04600
C 	C 	0.48120 0.56330 0.68810 0.00800
C 	C 	0.50640 0.68610 0.69240 -0.11300
H 	H 	0.55140 0.72320 0.70270 0.11100
C 	C 	0.02330 0.67930 0.81310 0.28600
C 	C 	0.47370 0.43290 0.68690 0.25600
C 	C 	0.33320 0.64090 0.65550 -0.04100
H 	H 	0.25800 0.64580 0.64020 0.06700
O 	O 	0.14410 0.74370 0.89160 -0.18600
C 	C 	0.40320 0.70470 0.66790 0.01500
H 	H 	0.38370 0.74930 0.66090 0.04200
N 	N 	0.84130 0.49160 0.77220 -0.11800
C 	C 	0.76800 0.83670 0.94210 -0.00500
H 	H 	0.87510 0.84460 0.94380 0.04900
C 	C 	0.68400 0.84710 0.91430 -0.03500
H 	H 	0.73750 0.86390 0.89770 0.06100
C 	C 	0.28800 0.76280 0.98700 0.06000
C 	C 	0.01860 0.54400 0.81090 0.00400
N 	N 	0.44010 0.77700 0.98900 -0.12300
C 	C 	0.68000 0.81390 0.96660 -0.09200
H 	H 	0.72970 0.80740 0.98530 0.07800
C 	C 	0.52500 0.83310 0.91100 -0.05400
H 	H 	0.47510 0.84000 0.89240 0.07200
C 	C 	0.80530 0.55310 0.76210 0.07200
O 	O 	0.27750 0.83770 0.75030 -0.12600
O 	O 	0.06720 0.67670 0.84027 -0.20700
O 	O 	0.48240 0.37560 0.70159 -0.22500
O 	O 	0.42940 0.42590 0.65890 -0.18400
O 	O 	0.27970 0.76590 0.75090 -0.12300
U 	U 	0.58011 0.30385 0.84339 -0.00500
O 	O 	0.51260 0.23330 0.79763 -0.24700
C 	C 	0.18870 0.05750 0.73630 0.06700
C 	C 	0.04830 0.12430 0.70270 0.10000
N 	N 	0.15240 0.11890 0.72620 -0.12200
O 	O 	0.66380 0.35710 0.89200 -0.17800
C 	C 	0.65790 0.97180 0.84330 -0.03200
H 	H 	0.73650 0.96560 0.85790 0.06100
C 	C 	0.68870 0.29660 0.90520 0.25000
C 	C 	0.61720 0.03980 0.83590 -0.06400
H 	H 	0.65290 0.07800 0.84660 0.09100
C 	C 	0.01800 0.30050 0.96380 0.05900
C 	C 	0.70400 0.26990 0.95880 -0.05100
H 	H 	0.59860 0.25800 0.95740 0.06800
C 	C 	0.93700 0.30860 0.93570 0.04700
C 	C 	0.77670 0.29370 0.93430 -0.04800
C 	C 	0.02750 0.99880 0.70020 -0.05900
C 	C 	0.47150 0.11200 0.79920 -0.04700
C 	C 	0.12830 0.99490 0.72420 -0.06200
H 	H 	0.15680 0.95250 0.73250 0.07800
C 	C 	0.36830 0.11440 0.77490 -0.06600
H 	H 	0.33960 0.15690 0.76680 0.08200
C 	C 	0.44920 0.98810 0.79620 0.08300
C 	C 	0.48780 0.91720 0.80620 -0.08100
H 	H 	0.44730 0.87770 0.79710 0.10100
C 	C 	0.86830 0.07610 0.66440 -0.05400
H 	H 	0.81840 0.03910 0.65500 0.07900
C 	C 	0.59440 0.91630 0.83150 -0.00200
H 	H 	0.62010 0.87380 0.84000 0.04600
C 	C 	0.98120 0.06330 0.68810 0.02700
C 	C 	0.00640 0.18610 0.69240 -0.11900
H 	H 	0.05140 0.22320 0.70270 0.11100
C 	C 	0.52330 0.17930 0.81310 0.29600
C 	C 	0.97370 0.93290 0.68690 0.26800
C 	C 	0.83320 0.14090 0.65550 -0.03600
H 	H 	0.75800 0.14580 0.64020 0.06700
O 	O 	0.64410 0.24370 0.89160 -0.18600
C 	C 	0.90320 0.20470 0.66790 0.02100
H 	H 	0.88370 0.24930 0.66090 0.04300
N 	N 	0.34130 0.99160 0.77220 -0.11600
C 	C 	0.26800 0.33670 0.94210 -0.02600
H 	H 	0.37510 0.34460 0.94380 0.05500
C 	C 	0.18400 0.34710 0.91430 -0.00900
H 	H 	0.23750 0.36390 0.89770 0.05000
C 	C 	0.78800 0.26280 0.98700 0.05900
C 	C 	0.51860 0.04400 0.81090 0.02200
N 	N 	0.94010 0.27700 0.98900 -0.11600
C 	C 	0.18000 0.31390 0.96660 -0.07400
H 	H 	0.22970 0.30740 0.98530 0.07100
C 	C 	0.02500 0.33310 0.91100 -0.09400
H 	H 	0.97510 0.34000 0.89240 0.09000
C 	C 	0.30530 0.05310 0.76210 0.06800
O 	O 	0.77750 0.33770 0.75030 -0.12400
O 	O 	0.56720 0.17670 0.84027 -0.20800
O 	O 	0.98240 0.87560 0.70159 -0.22500
O 	O 	0.92940 0.92590 0.65890 -0.18500
O 	O 	0.77970 0.26590 0.75090 -0.12100
U 	U 	0.91989 0.80385 0.65661 -0.00400
O 	O 	0.98740 0.73330 0.70237 -0.24700
C 	C 	0.31130 0.55750 0.76370 0.07400
C 	C 	0.45170 0.62430 0.79730 0.11000
N 	N 	0.34760 0.61890 0.77380 -0.12400
O 	O 	0.83620 0.85710 0.60800 -0.17500
C 	C 	0.84210 0.47180 0.65670 -0.03000
H 	H 	0.76350 0.46560 0.64210 0.06000
C 	C 	0.81130 0.79660 0.59480 0.24500
C 	C 	0.88280 0.53980 0.66410 -0.07200
H 	H 	0.84710 0.57800 0.65340 0.09400
C 	C 	0.48200 0.80050 0.53620 0.08400
C 	C 	0.79600 0.76990 0.54120 -0.06200
H 	H 	0.90140 0.75800 0.54260 0.07400
C 	C 	0.56300 0.80860 0.56430 0.01500
C 	C 	0.72330 0.79370 0.56570 -0.03300
C 	C 	0.47250 0.49880 0.79980 -0.03800
C 	C 	0.02850 0.61200 0.70080 -0.06700
C 	C 	0.37170 0.49490 0.77580 -0.07400
H 	H 	0.34320 0.45250 0.76750 0.08300
C 	C 	0.13170 0.61440 0.72510 -0.05600
H 	H 	0.16040 0.65690 0.73320 0.07800
C 	C 	0.05080 0.48810 0.70380 0.07100
C 	C 	0.01220 0.41720 0.69380 -0.08700
H 	H 	0.05270 0.37770 0.70290 0.10100
C 	C 	0.63170 0.57610 0.83560 -0.04500
H 	H 	0.68160 0.53910 0.84500 0.07600
C 	C 	0.90560 0.41630 0.66850 0.00400
H 	H 	0.87990 0.37380 0.66000 0.04500
C 	C 	0.51880 0.56330 0.81190 0.00800
C 	C 	0.49360 0.68610 0.80760 -0.11400
H 	H 	0.44860 0.72320 0.79730 0.11100
C 	C 	0.97670 0.67930 0.68690 0.30700
C 	C 	0.52630 0.43290 0.81310 0.25600
C 	C 	0.66680 0.64090 0.84450 -0.04100
H 	H 	0.74200 0.64580 0.85980 0.07000
O 	O 	0.85590 0.74370 0.60840 -0.18300
C 	C 	0.59680 0.70470 0.83210 0.01600
H 	H 	0.61630 0.74930 0.83910 0.04300
N 	N 	0.15870 0.49160 0.72780 -0.11400
C 	C 	0.23200 0.83670 0.55790 -0.00500
H 	H 	0.12490 0.84460 0.55620 0.04500
C 	C 	0.31600 0.84710 0.58570 -0.03600
H 	H 	0.26250 0.86390 0.60230 0.05900
C 	C 	0.71200 0.76280 0.51300 0.06500
C 	C 	0.98140 0.54400 0.68910 0.04300
N 	N 	0.55990 0.77700 0.51100 -0.12400
C 	C 	0.32000 0.81390 0.53340 -0.09400
H 	H 	0.27030 0.80740 0.51470 0.07800
C 	C 	0.47500 0.83310 0.58900 -0.05300
H 	H 	0.52490 0.84000 0.60760 0.07100
C 	C 	0.19470 0.55310 0.73790 0.06200
O 	O 	0.72250 0.83770 0.74970 -0.12500
O 	O 	0.93280 0.67670 0.65973 -0.20900
O 	O 	0.51760 0.37560 0.79841 -0.22500
O 	O 	0.57060 0.42590 0.84110 -0.18400
O 	O 	0.72030 0.76590 0.74910 -0.12100
U 	U 	0.41989 0.30385 0.65661 -0.00500
O 	O 	0.48740 0.23330 0.70237 -0.24700
C 	C 	0.81130 0.05750 0.76370 0.07800
C 	C 	0.95170 0.12430 0.79730 0.11900
N 	N 	0.84760 0.11890 0.77380 -0.12600
O 	O 	0.33620 0.35710 0.60800 -0.17600
C 	C 	0.34210 0.97180 0.65670 -0.03100
H 	H 	0.26350 0.96560 0.64210 0.05800
C 	C 	0.31130 0.29660 0.59480 0.24000
C 	C 	0.38280 0.03980 0.66410 -0.06500
H 	H 	0.34710 0.07800 0.65340 0.09000
C 	C 	0.98200 0.30050 0.53620 0.10800
C 	C 	0.29600 0.26990 0.54120 -0.07100
H 	H 	0.40140 0.25800 0.54260 0.07500
C 	C 	0.06300 0.30860 0.56430 -0.01600
C 	C 	0.22330 0.29370 0.56570 -0.02100
C 	C 	0.97250 0.99880 0.79980 -0.01700
C 	C 	0.52850 0.11200 0.70080 -0.04800
C 	C 	0.87170 0.99490 0.77580 -0.08300
H 	H 	0.84320 0.95250 0.76750 0.08800
C 	C 	0.63170 0.11440 0.72510 -0.06400
H 	H 	0.66040 0.15690 0.73320 0.08200
C 	C 	0.55080 0.98810 0.70380 0.08200
C 	C 	0.51220 0.91720 0.69380 -0.08100
H 	H 	0.55270 0.87770 0.70290 0.10100
C 	C 	0.13170 0.07610 0.83560 -0.03700
H 	H 	0.18160 0.03910 0.84500 0.07200
C 	C 	0.40560 0.91630 0.66850 -0.00400
H 	H 	0.37990 0.87380 0.66000 0.04500
C 	C 	0.01880 0.06330 0.81190 -0.01200
C 	C 	0.99360 0.18610 0.80760 -0.10900
H 	H 	0.94860 0.22320 0.79730 0.11100
C 	C 	0.47670 0.17930 0.68690 0.29600
C 	C 	0.02630 0.93290 0.81310 0.24500
C 	C 	0.16680 0.14090 0.84450 -0.04500
H 	H 	0.24200 0.14580 0.85980 0.07000
O 	O 	0.35590 0.24370 0.60840 -0.18400
C 	C 	0.09680 0.20470 0.83210 0.01000
H 	H 	0.11630 0.24930 0.83910 0.04300
N 	N 	0.65870 0.99160 0.72780 -0.11500
C 	C 	0.73200 0.33670 0.55790 0.01700
H 	H 	0.62490 0.34460 0.55620 0.03900
C 	C 	0.81600 0.34710 0.58570 -0.06300
H 	H 	0.76250 0.36390 0.60230 0.07000
C 	C 	0.21200 0.26280 0.51300 0.06700
C 	C 	0.48140 0.04400 0.68910 0.02300
N 	N 	0.05990 0.27700 0.51100 -0.13100
C 	C 	0.82000 0.31390 0.53340 -0.11200
H 	H 	0.77030 0.30740 0.51470 0.08500
C 	C 	0.97500 0.33310 0.58900 -0.01100
H 	H 	0.02490 0.34000 0.60760 0.05200
C 	C 	0.69470 0.05310 0.73790 0.06600
O 	O 	0.22250 0.33770 0.74970 -0.12700
O 	O 	0.43280 0.17670 0.65973 -0.20800
O 	O 	0.01760 0.87560 0.79841 -0.22500
O 	O 	0.07060 0.92590 0.84110 -0.18200
O 	O 	0.22030 0.26590 0.74910 -0.12300
U 	U 	0.91989 0.19615 0.15661 -0.00400
O 	O 	0.98740 0.26670 0.20237 -0.24700
C 	C 	0.31130 0.44250 0.26370 0.07400
C 	C 	0.45170 0.37570 0.29730 0.11000
N 	N 	0.34760 0.38110 0.27380 -0.12400
O 	O 	0.83620 0.14290 0.10800 -0.17500
C 	C 	0.84210 0.52820 0.15670 -0.03000
H 	H 	0.76350 0.53440 0.14210 0.06000
C 	C 	0.81130 0.20340 0.09480 0.24500
C 	C 	0.88280 0.46020 0.16410 -0.07200
H 	H 	0.84710 0.42200 0.15340 0.09400
C 	C 	0.48200 0.19950 0.03620 0.08400
C 	C 	0.79600 0.23010 0.04120 -0.06200
H 	H 	0.90140 0.24200 0.04260 0.07400
C 	C 	0.56300 0.19140 0.06430 0.01500
C 	C 	0.72330 0.20630 0.06570 -0.03300
C 	C 	0.47250 0.50120 0.29980 -0.03800
C 	C 	0.02850 0.38800 0.20080 -0.06700
C 	C 	0.37170 0.50510 0.27580 -0.07400
H 	H 	0.34320 0.54750 0.26750 0.08300
C 	C 	0.13170 0.38560 0.22510 -0.05600
H 	H 	0.16040 0.34310 0.23320 0.07800
C 	C 	0.05080 0.51190 0.20380 0.07100
C 	C 	0.01220 0.58280 0.19380 -0.08700
H 	H 	0.05270 0.62230 0.20290 0.10100
C 	C 	0.63170 0.42390 0.33560 -0.04500
H 	H 	0.68160 0.46090 0.34500 0.07600
C 	C 	0.90560 0.58370 0.16850 0.00400
H 	H 	0.87990 0.62620 0.16000 0.04500
C 	C 	0.51880 0.43670 0.31190 0.00800
C 	C 	0.49360 0.31390 0.30760 -0.11400
H 	H 	0.44860 0.27680 0.29730 0.11100
C 	C 	0.97670 0.32070 0.18690 0.30700
C 	C 	0.52630 0.56710 0.31310 0.25600
C 	C 	0.66680 0.35910 0.34450 -0.04100
H 	H 	0.74200 0.35420 0.35980 0.07000
O 	O 	0.85590 0.25630 0.10840 -0.18300
C 	C 	0.59680 0.29530 0.33210 0.01600
H 	H 	0.61630 0.25070 0.33910 0.04300
N 	N 	0.15870 0.50840 0.22780 -0.11400
C 	C 	0.23200 0.16330 0.05790 -0.00500
H 	H 	0.12490 0.15540 0.05620 0.04500
C 	C 	0.31600 0.15290 0.08570 -0.03600
H 	H 	0.26250 0.13610 0.10230 0.05900
C 	C 	0.71200 0.23720 0.01300 0.06500
C 	C 	0.98140 0.45600 0.18910 0.04300
N 	N 	0.55990 0.22300 0.01100 -0.12400
C 	C 	0.32000 0.18610 0.03340 -0.09400
H 	H 	0.27030 0.19260 0.01470 0.07800
C 	C 	0.47500 0.16690 0.08900 -0.05300
H 	H 	0.52490 0.16000 0.10760 0.07100
C 	C 	0.19470 0.44690 0.23790 0.06200
O 	O 	0.72250 0.16230 0.24970 -0.12500
O 	O 	0.93280 0.32330 0.15973 -0.20900
O 	O 	0.51760 0.62440 0.29841 -0.22500
O 	O 	0.57060 0.57410 0.34110 -0.18400
O 	O 	0.72030 0.23410 0.24910 -0.12100
U 	U 	0.41989 0.69615 0.15661 -0.00500
O 	O 	0.48740 0.76670 0.20237 -0.24700
C 	C 	0.81130 0.94250 0.26370 0.07800
C 	C 	0.95170 0.87570 0.29730 0.11900
N 	N 	0.84760 0.88110 0.27380 -0.12600
O 	O 	0.33620 0.64290 0.10800 -0.17600
C 	C 	0.34210 0.02820 0.15670 -0.03100
H 	H 	0.26350 0.03440 0.14210 0.05800
C 	C 	0.31130 0.70340 0.09480 0.24000
C 	C 	0.38280 0.96020 0.16410 -0.06500
H 	H 	0.34710 0.92200 0.15340 0.09000
C 	C 	0.98200 0.69950 0.03620 0.10800
C 	C 	0.29600 0.73010 0.04120 -0.07100
H 	H 	0.40140 0.74200 0.04260 0.07500
C 	C 	0.06300 0.69140 0.06430 -0.01600
C 	C 	0.22330 0.70630 0.06570 -0.02100
C 	C 	0.97250 0.00120 0.29980 -0.01700
C 	C 	0.52850 0.88800 0.20080 -0.04800
C 	C 	0.87170 0.00510 0.27580 -0.08300
H 	H 	0.84320 0.04750 0.26750 0.08800
C 	C 	0.63170 0.88560 0.22510 -0.06400
H 	H 	0.66040 0.84310 0.23320 0.08200
C 	C 	0.55080 0.01190 0.20380 0.08200
C 	C 	0.51220 0.08280 0.19380 -0.08100
H 	H 	0.55270 0.12230 0.20290 0.10100
C 	C 	0.13170 0.92390 0.33560 -0.03700
H 	H 	0.18160 0.96090 0.34500 0.07200
C 	C 	0.40560 0.08370 0.16850 -0.00400
H 	H 	0.37990 0.12620 0.16000 0.04600
C 	C 	0.01880 0.93670 0.31190 -0.01200
C 	C 	0.99360 0.81390 0.30760 -0.10900
H 	H 	0.94860 0.77680 0.29730 0.11100
C 	C 	0.47670 0.82070 0.18690 0.29600
C 	C 	0.02630 0.06710 0.31310 0.24500
C 	C 	0.16680 0.85910 0.34450 -0.04500
H 	H 	0.24200 0.85420 0.35980 0.07000
O 	O 	0.35590 0.75630 0.10840 -0.18400
C 	C 	0.09680 0.79530 0.33210 0.01000
H 	H 	0.11630 0.75070 0.33910 0.04300
N 	N 	0.65870 0.00840 0.22780 -0.11500
C 	C 	0.73200 0.66330 0.05790 0.01700
H 	H 	0.62490 0.65540 0.05620 0.03900
C 	C 	0.81600 0.65290 0.08570 -0.06300
H 	H 	0.76250 0.63610 0.10230 0.07000
C 	C 	0.21200 0.73720 0.01300 0.06700
C 	C 	0.48140 0.95600 0.18910 0.02300
N 	N 	0.05990 0.72300 0.01100 -0.13100
C 	C 	0.82000 0.68610 0.03340 -0.11200
H 	H 	0.77030 0.69260 0.01470 0.08500
C 	C 	0.97500 0.66690 0.08900 -0.01100
H 	H 	0.02490 0.66000 0.10760 0.05200
C 	C 	0.69470 0.94690 0.23790 0.06600
O 	O 	0.22250 0.66230 0.24970 -0.12700
O 	O 	0.43280 0.82330 0.15973 -0.20800
O 	O 	0.01760 0.12440 0.29841 -0.22500
O 	O 	0.07060 0.07410 0.34110 -0.18200
O 	O 	0.22030 0.73410 0.24910 -0.12300
U 	U 	0.08011 0.19615 0.34339 -0.00600
O 	O 	0.01260 0.26670 0.29763 -0.24700
C 	C 	0.68870 0.44250 0.23630 0.07200
C 	C 	0.54830 0.37570 0.20270 0.11000
N 	N 	0.65240 0.38110 0.22620 -0.12300
O 	O 	0.16380 0.14290 0.39200 -0.17800
C 	C 	0.15790 0.52820 0.34330 -0.03400
H 	H 	0.23650 0.53440 0.35790 0.06100
C 	C 	0.18870 0.20340 0.40520 0.24600
C 	C 	0.11720 0.46020 0.33590 -0.05600
H 	H 	0.15290 0.42200 0.34660 0.08700
C 	C 	0.51800 0.19950 0.46380 0.08300
C 	C 	0.20400 0.23010 0.45880 -0.05900
H 	H 	0.09860 0.24200 0.45740 0.06900
C 	C 	0.43700 0.19140 0.43570 0.01700
C 	C 	0.27670 0.20630 0.43430 -0.03600
C 	C 	0.52750 0.50120 0.20020 -0.03800
C 	C 	0.97150 0.38800 0.29920 -0.02900
C 	C 	0.62830 0.50510 0.22420 -0.07200
H 	H 	0.65680 0.54750 0.23250 0.08300
C 	C 	0.86830 0.38560 0.27490 -0.07400
H 	H 	0.83960 0.34310 0.26680 0.08700
C 	C 	0.94920 0.51190 0.29620 0.09200
C 	C 	0.98780 0.58280 0.30620 -0.07600
H 	H 	0.94730 0.62230 0.29710 0.10100
C 	C 	0.36830 0.42390 0.16440 -0.04600
H 	H 	0.31840 0.46090 0.15500 0.07500
C 	C 	0.09440 0.58370 0.33150 -0.00900
H 	H 	0.12010 0.62620 0.34000 0.04600
C 	C 	0.48120 0.43670 0.18810 0.00800
C 	C 	0.50640 0.31390 0.19240 -0.11300
H 	H 	0.55140 0.27680 0.20270 0.11100
C 	C 	0.02330 0.32070 0.31310 0.28500
C 	C 	0.47370 0.56710 0.18690 0.25600
C 	C 	0.33320 0.35910 0.15550 -0.04100
H 	H 	0.25800 0.35420 0.14020 0.06700
O 	O 	0.14410 0.25630 0.39160 -0.18600
C 	C 	0.40320 0.29530 0.16790 0.01500
H 	H 	0.38370 0.25070 0.16090 0.04200
N 	N 	0.84130 0.50840 0.27220 -0.11800
C 	C 	0.76800 0.16330 0.44210 -0.00500
H 	H 	0.87510 0.15540 0.44380 0.04900
C 	C 	0.68400 0.15290 0.41430 -0.03500
H 	H 	0.73750 0.13610 0.39770 0.06100
C 	C 	0.28800 0.23720 0.48700 0.06000
C 	C 	0.01860 0.45600 0.31090 0.00400
N 	N 	0.44010 0.22300 0.48900 -0.12300
C 	C 	0.68000 0.18610 0.46660 -0.09200
H 	H 	0.72970 0.19260 0.48530 0.07800
C 	C 	0.52500 0.16690 0.41100 -0.05400
H 	H 	0.47510 0.16000 0.39240 0.07200
C 	C 	0.80530 0.44690 0.26210 0.07200
O 	O 	0.27750 0.16230 0.25030 -0.12600
O 	O 	0.06720 0.32330 0.34027 -0.20700
O 	O 	0.48240 0.62440 0.20159 -0.22500
O 	O 	0.42940 0.57410 0.15890 -0.18400
O 	O 	0.27970 0.23410 0.25090 -0.12300
U 	U 	0.58011 0.69615 0.34339 -0.00500
O 	O 	0.51260 0.76670 0.29763 -0.24700
C 	C 	0.18870 0.94250 0.23630 0.06700
C 	C 	0.04830 0.87570 0.20270 0.10000
N 	N 	0.15240 0.88110 0.22620 -0.12200
O 	O 	0.66380 0.64290 0.39200 -0.17800
C 	C 	0.65790 0.02820 0.34330 -0.03200
H 	H 	0.73650 0.03440 0.35790 0.06100
C 	C 	0.68870 0.70340 0.40520 0.25000
C 	C 	0.61720 0.96020 0.33590 -0.06400
H 	H 	0.65290 0.92200 0.34660 0.09100
C 	C 	0.01800 0.69950 0.46380 0.05900
C 	C 	0.70400 0.73010 0.45880 -0.05100
H 	H 	0.59860 0.74200 0.45740 0.06800
C 	C 	0.93700 0.69140 0.43570 0.04700
C 	C 	0.77670 0.70630 0.43430 -0.04800
C 	C 	0.02750 0.00120 0.20020 -0.05900
C 	C 	0.47150 0.88800 0.29920 -0.04700
C 	C 	0.12830 0.00510 0.22420 -0.06200
H 	H 	0.15680 0.04750 0.23250 0.07800
C 	C 	0.36830 0.88560 0.27490 -0.06600
H 	H 	0.33960 0.84310 0.26680 0.08200
C 	C 	0.44920 0.01190 0.29620 0.08300
C 	C 	0.48780 0.08280 0.30620 -0.08100
H 	H 	0.44730 0.12230 0.29710 0.10100
C 	C 	0.86830 0.92390 0.16440 -0.05400
H 	H 	0.81840 0.96090 0.15500 0.07900
C 	C 	0.59440 0.08370 0.33150 -0.00200
H 	H 	0.62010 0.12620 0.34000 0.04600
C 	C 	0.98120 0.93670 0.18810 0.02700
C 	C 	0.00640 0.81390 0.19240 -0.11900
H 	H 	0.05140 0.77680 0.20270 0.11100
C 	C 	0.52330 0.82070 0.31310 0.29600
C 	C 	0.97370 0.06710 0.18690 0.26800
C 	C 	0.83320 0.85910 0.15550 -0.03600
H 	H 	0.75800 0.85420 0.14020 0.06700
O 	O 	0.64410 0.75630 0.39160 -0.18600
C 	C 	0.90320 0.79530 0.16790 0.02100
H 	H 	0.88370 0.75070 0.16090 0.04300
N 	N 	0.34130 0.00840 0.27220 -0.11600
C 	C 	0.26800 0.66330 0.44210 -0.02600
H 	H 	0.37510 0.65540 0.44380 0.05500
C 	C 	0.18400 0.65290 0.41430 -0.00900
H 	H 	0.23750 0.63610 0.39770 0.05000
C 	C 	0.78800 0.73720 0.48700 0.05900
C 	C 	0.51860 0.95600 0.31090 0.02200
N 	N 	0.94010 0.72300 0.48900 -0.11600
C 	C 	0.18000 0.68610 0.46660 -0.07400
H 	H 	0.22970 0.69260 0.48530 0.07100
C 	C 	0.02500 0.66690 0.41100 -0.09400
H 	H 	0.97510 0.66000 0.39240 0.09000
C 	C 	0.30530 0.94690 0.26210 0.06800
O 	O 	0.77750 0.66230 0.25030 -0.12400
O 	O 	0.56720 0.82330 0.34027 -0.20800
O 	O 	0.98240 0.12440 0.20159 -0.22500
O 	O 	0.92940 0.07410 0.15890 -0.18500
O 	O 	0.77970 0.73410 0.25090 -0.12100
Na	Na	0.00000 0.80430 0.75000 0.59700
Na	Na	0.50000 0.30430 0.75000 0.59800
Na	Na	0.00000 0.19570 0.25000 0.59700
Na	Na	0.50000 0.69570 0.25000 0.59800
