data_crystal

_cell_length_a 21.00700
_cell_length_b 21.09900
_cell_length_c 21.24000
_cell_angle_alpha 63.47700
_cell_angle_beta  63.69100
_cell_angle_gamma 84.66000

_symmetry_space_group_name_	'P 1'
_symmetry_space_group_name_H-M	'P 1'

loop_
_symmetry_equiv_pos_as_xyz
  x,y,z

loop_
_atom_site_label
_atom_site_type_symbol
_atom_site_fract_x
_atom_site_fract_y
_atom_site_fract_z
_atom_site_charge
Zn	Zn	0.03820 0.43734 0.33950 1.21900
O 	O 	0.09951 0.47420 0.21720 -0.41800
O 	O 	0.09721 0.29558 0.44280 -0.47800
O 	O 	0.93414 0.42810 0.35630 -0.40100
O 	O 	0.06935 0.35770 0.28790 -0.55300
O 	O 	0.94781 0.38620 0.46400 -0.37500
O 	O 	0.10961 0.41580 0.38270 -0.48600
N 	N 	0.02230 0.77590 0.35880 -0.09000
N 	N 	0.04930 0.01810 0.35940 -0.26300
C 	C 	0.01090 0.67080 0.33350 0.08700
C 	C 	0.22140 0.36410 0.56150 0.10200
N 	N 	0.96390 0.84770 0.29650 -0.08900
C 	C 	0.99760 0.74290 0.32940 0.08300
N 	N 	0.07010 0.75510 0.39180 -0.25100
H 	H 	0.08780 0.78490 0.39900 0.14600
H 	H 	0.08170 0.71260 0.40470 0.15400
N 	N 	0.37560 0.36980 0.72250 -0.17600
C 	C 	0.14970 0.35910 0.47990 -0.14100
C 	C 	0.01560 0.90050 0.34800 0.08600
C 	C 	0.68140 0.38360 0.56250 0.08400
C 	C 	0.20320 0.42650 0.51530 -0.14700
H 	H 	0.21420 0.46980 0.51240 0.08900
N 	N 	0.03160 0.53820 0.33490 -0.25700
C 	C 	0.26210 0.36550 0.60250 -0.06200
C 	C 	0.10150 0.41220 0.22310 0.34900
C 	C 	0.99980 0.84040 0.33600 0.08100
C 	C 	0.20280 0.30040 0.56580 -0.15000
H 	H 	0.21550 0.25850 0.59610 0.09000
N 	N 	0.96440 0.78430 0.29200 -0.09000
C 	C 	0.90830 0.40310 0.42970 0.30300
C 	C 	0.02570 0.61630 0.39000 -0.16300
H 	H 	0.02990 0.62310 0.42830 0.10300
C 	C 	0.22330 0.38770 0.01110 0.10200
C 	C 	0.03410 0.55060 0.38850 0.10900
H 	H 	0.04190 0.51340 0.42830 -0.01100
C 	C 	0.60100 0.37860 0.60760 -0.06000
C 	C 	0.33810 0.37040 0.68090 0.14100
C 	C 	0.04830 0.95330 0.40780 0.12600
H 	H 	0.05900 0.94660 0.44820 -0.01900
C 	C 	0.56280 0.33390 0.68420 0.02700
H 	H 	0.58670 0.30400 0.71170 0.01800
C 	C 	0.71250 0.40350 0.48120 -0.13000
H 	H 	0.68320 0.41300 0.45650 0.07600
C 	C 	0.16770 0.42440 0.47260 0.06700
H 	H 	0.15680 0.46620 0.44020 0.02100
C 	C 	0.11600 0.35720 0.43120 0.38400
C 	C 	0.48990 0.42180 0.60640 -0.15900
H 	H 	0.46550 0.45190 0.57950 0.08700
C 	C 	0.26490 0.37920 0.93930 -0.06700
C 	C 	0.34080 0.37160 0.79620 0.14600
C 	C 	0.79770 0.37120 0.55790 0.04000
H 	H 	0.82600 0.35860 0.58410 0.02200
C 	C 	0.72330 0.36720 0.59990 -0.13900
H 	H 	0.70250 0.35320 0.65370 0.07900
C 	C 	0.01720 0.59030 0.28100 0.10200
H 	H 	0.01430 0.58170 0.24300 -0.00900
C 	C 	0.78590 0.40930 0.43750 0.03200
H 	H 	0.80640 0.42270 0.38390 0.03600
C 	C 	0.01320 0.96950 0.29510 -0.14400
H 	H 	0.00000 0.97690 0.25610 0.08900
C 	C 	0.35670 0.32770 0.64220 -0.15200
H 	H 	0.39420 0.30050 0.64210 0.08800
C 	C 	0.37100 0.40850 0.81800 -0.16300
H 	H 	0.41710 0.43270 0.78360 0.09000
C 	C 	0.23020 0.45050 0.01290 -0.15200
H 	H 	0.26390 0.48750 0.96750 0.08400
C 	C 	0.14380 0.40400 0.14870 -0.14600
C 	C 	0.28410 0.41150 0.67840 -0.15800
H 	H 	0.27270 0.44070 0.70320 0.09000
C 	C 	0.45360 0.37610 0.68320 0.14000
C 	C 	0.48940 0.33020 0.72420 -0.15600
H 	H 	0.46440 0.29790 0.77720 0.08900
C 	C 	0.17570 0.32990 0.08060 -0.14600
H 	H 	0.17040 0.28620 0.08140 0.09200
C 	C 	0.03270 0.89300 0.40460 -0.17600
H 	H 	0.03400 0.84790 0.44110 0.09900
C 	C 	0.82880 0.39400 0.47750 -0.10400
C 	C 	0.16650 0.29640 0.52740 0.07400
H 	H 	0.15350 0.25250 0.53300 0.02500
C 	C 	0.23410 0.33990 0.91920 0.03100
H 	H 	0.18800 0.31570 0.95360 0.02100
C 	C 	0.31780 0.32630 0.60330 0.02300
H 	H 	0.33020 0.29800 0.57740 0.02300
C 	C 	0.33580 0.41070 0.88820 0.03700
H 	H 	0.35920 0.43360 0.90220 0.01600
C 	C 	0.00640 0.65680 0.27800 -0.15900
H 	H 	0.99610 0.69200 0.23890 0.09800
C 	C 	0.13580 0.33890 0.14940 0.06000
H 	H 	0.10400 0.30090 0.19550 0.00300
C 	C 	0.56320 0.42440 0.56680 0.02500
H 	H 	0.58800 0.45610 0.51360 0.01900
C 	C 	0.24620 0.41010 0.63950 0.02600
H 	H 	0.21000 0.43890 0.63780 0.02600
C 	C 	0.27210 0.33660 0.84780 -0.15600
H 	H 	0.25080 0.31060 0.83490 0.08900
C 	C 	0.19060 0.46290 0.07780 0.06500
H 	H 	0.19450 0.50770 0.07500 0.02100
C 	C 	0.03080 0.02570 0.30300 0.08000
H 	H 	0.03010 0.07170 0.26750 -0.00400
Zn	Zn	0.10117 0.27385 0.35989 1.20900
Zn	Zn	0.08608 0.10995 0.35064 1.22200
O 	O 	0.99876 0.23030 0.41430 -0.46800
O 	O 	0.13731 0.17730 0.37560 -0.56600
O 	O 	0.10791 0.06100 0.44870 -0.42400
O 	O 	0.13710 0.15880 0.23260 -0.43600
O 	O 	0.99368 0.14840 0.37560 -0.47900
C 	C 	0.13820 0.11780 0.43270 0.36800
C 	C 	0.73560 0.15970 0.53110 0.13300
C 	C 	0.17740 0.11950 0.47590 -0.17100
N 	N 	0.42890 0.12140 0.69630 -0.18300
C 	C 	0.88590 0.17610 0.45360 -0.18200
C 	C 	0.26610 0.17700 0.48080 -0.19400
H 	H 	0.29920 0.21650 0.45810 0.09600
C 	C 	0.96450 0.18590 0.41150 0.41700
C 	C 	0.30130 0.13090 0.99220 0.13800
C 	C 	0.77130 0.11050 0.50690 -0.18100
H 	H 	0.74530 0.07140 0.51590 0.10000
C 	C 	0.77710 0.21840 0.51560 -0.18400
H 	H 	0.75440 0.25290 0.53060 0.10100
C 	C 	0.30660 0.15880 0.86240 0.06300
H 	H 	0.26590 0.18150 0.87450 0.00600
C 	C 	0.30200 0.11940 0.58990 -0.08700
C 	C 	0.25770 0.12100 0.55030 0.12400
C 	C 	0.84560 0.11850 0.46910 0.11000
H 	H 	0.86860 0.08420 0.45390 0.01300
C 	C 	0.65590 0.15220 0.57160 -0.09800
C 	C 	0.42720 0.09160 0.82380 -0.19000
H 	H 	0.46670 0.06710 0.81250 0.10100
C 	C 	0.54760 0.17920 0.65420 -0.18900
H 	H 	0.52540 0.20400 0.68340 0.10100
C 	C 	0.54000 0.09790 0.60750 -0.18300
H 	H 	0.51360 0.06800 0.60360 0.09900
C 	C 	0.50630 0.13230 0.65290 0.15800
C 	C 	0.33580 0.12880 0.91580 -0.10300
C 	C 	0.19790 0.14270 0.09380 0.09800
H 	H 	0.14970 0.14900 0.11300 0.00600
C 	C 	0.20470 0.06110 0.58740 -0.16400
H 	H 	0.19590 0.02330 0.63630 0.09000
C 	C 	0.23390 0.13410 0.13900 -0.15000
C 	C 	0.61300 0.10850 0.56820 0.06200
H 	H 	0.63540 0.08520 0.53730 0.00900
C 	C 	0.38700 0.12080 0.66040 0.16200
C 	C 	0.22790 0.17680 0.44380 0.11600
H 	H 	0.23560 0.21580 0.39610 -0.02400
C 	C 	0.23100 0.14190 0.02440 -0.18800
H 	H 	0.20520 0.14900 0.99620 0.09600
C 	C 	0.36870 0.15900 0.54800 0.05700
H 	H 	0.38650 0.18600 0.49370 0.00800
C 	C 	0.39580 0.09760 0.89210 0.06900
H 	H 	0.41720 0.07870 0.92560 0.00500
C 	C 	0.33780 0.15490 0.79220 -0.18700
H 	H 	0.31720 0.17410 0.75780 0.10000
C 	C 	0.16650 0.06160 0.54740 0.09000
H 	H 	0.13320 0.02250 0.56910 0.01400
C 	C 	0.39790 0.12330 0.77230 0.16100
O 	O 	0.22060 0.10370 0.26540 -0.32600
C 	C 	0.40970 0.16070 0.58220 -0.19100
H 	H 	0.45370 0.18950 0.55140 0.09900
C 	C 	0.30410 0.12290 0.10720 0.09600
H 	H 	0.33020 0.11590 0.13500 0.01100
C 	C 	0.19740 0.13300 0.21670 0.32800
C 	C 	0.33700 0.12180 0.03600 -0.18300
H 	H 	0.38490 0.11460 0.01650 0.09400
C 	C 	0.85030 0.22540 0.47880 0.11000
H 	H 	0.87660 0.26390 0.47050 0.00800
C 	C 	0.32100 0.07680 0.70810 -0.16800
H 	H 	0.30590 0.04710 0.76160 0.09400
C 	C 	0.27850 0.08010 0.67010 0.03900
H 	H 	0.23280 0.05460 0.70080 0.01700
C 	C 	0.61870 0.18860 0.61390 0.07100
H 	H 	0.64460 0.22160 0.61450 0.00600
Zn	Zn	0.96180 0.56266 0.66050 1.22100
O 	O 	0.90049 0.52580 0.78280 -0.41600
O 	O 	0.90279 0.70442 0.55720 -0.47600
O 	O 	0.06586 0.57190 0.64370 -0.40300
O 	O 	0.93065 0.64230 0.71210 -0.55100
O 	O 	0.05219 0.61380 0.53600 -0.37800
O 	O 	0.89039 0.58420 0.61730 -0.48500
N 	N 	0.97770 0.22410 0.64120 -0.08300
N 	N 	0.95070 0.98190 0.64060 -0.26200
C 	C 	0.98910 0.32920 0.66650 0.08900
C 	C 	0.77860 0.63590 0.43850 0.10200
N 	N 	0.03610 0.15230 0.70350 -0.08900
C 	C 	0.00240 0.25710 0.67060 0.07400
N 	N 	0.92990 0.24490 0.60820 -0.25200
H 	H 	0.91220 0.21510 0.60100 0.14600
H 	H 	0.91830 0.28740 0.59530 0.15500
N 	N 	0.62440 0.63020 0.27750 -0.17600
C 	C 	0.85030 0.64090 0.52010 -0.14000
C 	C 	0.98440 0.09950 0.65200 0.09100
C 	C 	0.31860 0.61640 0.43750 0.08400
C 	C 	0.79680 0.57350 0.48470 -0.14600
H 	H 	0.78580 0.53020 0.48760 0.08900
N 	N 	0.96840 0.46180 0.66510 -0.25500
C 	C 	0.73790 0.63450 0.39750 -0.06100
C 	C 	0.89850 0.58780 0.77690 0.34900
C 	C 	0.00020 0.15960 0.66400 0.07200
C 	C 	0.79720 0.69960 0.43420 -0.14900
H 	H 	0.78450 0.74150 0.40390 0.09000
N 	N 	0.03560 0.21570 0.70800 -0.09000
C 	C 	0.09170 0.59690 0.57030 0.30400
C 	C 	0.97430 0.38370 0.61000 -0.16400
H 	H 	0.97010 0.37690 0.57170 0.10400
C 	C 	0.77670 0.61230 0.98890 0.10200
C 	C 	0.96590 0.44940 0.61150 0.11000
H 	H 	0.95810 0.48660 0.57170 -0.00900
C 	C 	0.39900 0.62140 0.39240 -0.06100
C 	C 	0.66190 0.62960 0.31910 0.14100
C 	C 	0.95170 0.04670 0.59220 0.12800
H 	H 	0.94100 0.05340 0.55180 -0.01900
C 	C 	0.43720 0.66610 0.31580 0.02700
H 	H 	0.41330 0.69600 0.28830 0.01800
C 	C 	0.28750 0.59650 0.51880 -0.13100
H 	H 	0.31680 0.58700 0.54350 0.07600
C 	C 	0.83230 0.57560 0.52740 0.06700
H 	H 	0.84320 0.53380 0.55980 0.02100
C 	C 	0.88400 0.64280 0.56880 0.38400
C 	C 	0.51010 0.57820 0.39360 -0.15900
H 	H 	0.53450 0.54810 0.42050 0.08700
C 	C 	0.73510 0.62080 0.06070 -0.06700
C 	C 	0.65920 0.62840 0.20380 0.14600
C 	C 	0.20230 0.62880 0.44210 0.04000
H 	H 	0.17400 0.64140 0.41590 0.02200
C 	C 	0.27670 0.63280 0.40010 -0.13900
H 	H 	0.29750 0.64680 0.34630 0.07900
C 	C 	0.98280 0.40970 0.71900 0.09800
H 	H 	0.98570 0.41830 0.75700 -0.00600
C 	C 	0.21410 0.59070 0.56250 0.03200
H 	H 	0.19360 0.57730 0.61610 0.03500
C 	C 	0.98680 0.03050 0.70490 -0.13500
H 	H 	-0.00000 0.02310 0.74390 0.08400
C 	C 	0.64330 0.67230 0.35780 -0.15200
H 	H 	0.60580 0.69950 0.35790 0.08800
C 	C 	0.62900 0.59150 0.18200 -0.16300
H 	H 	0.58290 0.56730 0.21640 0.09000
C 	C 	0.76980 0.54950 0.98710 -0.15100
H 	H 	0.73610 0.51250 0.03250 0.08400
C 	C 	0.85620 0.59600 0.85130 -0.14400
C 	C 	0.71590 0.58850 0.32160 -0.15800
H 	H 	0.72730 0.55930 0.29680 0.09000
C 	C 	0.54640 0.62390 0.31680 0.14000
C 	C 	0.51060 0.66980 0.27580 -0.15600
H 	H 	0.53560 0.70210 0.22280 0.08900
C 	C 	0.82430 0.67010 0.91940 -0.14500
H 	H 	0.82960 0.71380 0.91860 0.09200
C 	C 	0.96730 0.10700 0.59540 -0.17800
H 	H 	0.96600 0.15210 0.55890 0.10100
C 	C 	0.17120 0.60600 0.52250 -0.10500
C 	C 	0.83350 0.70360 0.47260 0.07400
H 	H 	0.84650 0.74750 0.46700 0.02500
C 	C 	0.76590 0.66010 0.08080 0.03100
H 	H 	0.81200 0.68430 0.04640 0.02100
C 	C 	0.68220 0.67370 0.39670 0.02200
H 	H 	0.66980 0.70200 0.42260 0.02300
C 	C 	0.66420 0.58930 0.11180 0.03700
H 	H 	0.64080 0.56640 0.09780 0.01600
C 	C 	0.99360 0.34320 0.72200 -0.14700
H 	H 	0.00390 0.30800 0.76110 0.09000
C 	C 	0.86420 0.66110 0.85060 0.05900
H 	H 	0.89600 0.69910 0.80450 0.00400
C 	C 	0.43680 0.57560 0.43320 0.02500
H 	H 	0.41200 0.54390 0.48640 0.01900
C 	C 	0.75380 0.58990 0.36050 0.02600
H 	H 	0.79000 0.56110 0.36220 0.02600
C 	C 	0.72790 0.66340 0.15220 -0.15600
H 	H 	0.74920 0.68940 0.16510 0.08900
C 	C 	0.80940 0.53710 0.92220 0.06500
H 	H 	0.80550 0.49230 0.92500 0.02100
C 	C 	0.96920 0.97430 0.69700 0.07700
H 	H 	0.96990 0.92830 0.73250 -0.00200
Zn	Zn	0.89883 0.72615 0.64011 1.21000
Zn	Zn	0.91392 0.89005 0.64936 1.22300
O 	O 	0.00124 0.76970 0.58570 -0.47100
O 	O 	0.86269 0.82270 0.62440 -0.56500
O 	O 	0.89209 0.93900 0.55130 -0.42300
O 	O 	0.86290 0.84120 0.76740 -0.43500
O 	O 	0.00632 0.85160 0.62440 -0.48200
C 	C 	0.86180 0.88220 0.56730 0.36800
C 	C 	0.26440 0.84030 0.46890 0.13400
C 	C 	0.82260 0.88050 0.52410 -0.17000
N 	N 	0.57110 0.87860 0.30370 -0.18300
C 	C 	0.11410 0.82390 0.54640 -0.18300
C 	C 	0.73390 0.82300 0.51920 -0.19400
H 	H 	0.70080 0.78350 0.54190 0.09600
C 	C 	0.03550 0.81410 0.58850 0.41800
C 	C 	0.69870 0.86910 0.00780 0.13600
C 	C 	0.22870 0.88950 0.49310 -0.18200
H 	H 	0.25470 0.92860 0.48410 0.10000
C 	C 	0.22290 0.78160 0.48440 -0.18500
H 	H 	0.24560 0.74710 0.46940 0.10100
C 	C 	0.69340 0.84120 0.13760 0.06200
H 	H 	0.73410 0.81850 0.12550 0.00600
C 	C 	0.69800 0.88060 0.41010 -0.08700
C 	C 	0.74230 0.87900 0.44970 0.12300
C 	C 	0.15440 0.88150 0.53090 0.11000
H 	H 	0.13140 0.91580 0.54610 0.01300
C 	C 	0.34410 0.84780 0.42840 -0.09800
C 	C 	0.57280 0.90840 0.17620 -0.18900
H 	H 	0.53330 0.93290 0.18750 0.10100
C 	C 	0.45240 0.82080 0.34580 -0.18900
H 	H 	0.47460 0.79600 0.31660 0.10100
C 	C 	0.46000 0.90210 0.39250 -0.18300
H 	H 	0.48640 0.93200 0.39640 0.09900
C 	C 	0.49370 0.86770 0.34710 0.15800
C 	C 	0.66420 0.87120 0.08420 -0.10200
C 	C 	0.80210 0.85730 0.90620 0.09600
H 	H 	0.85030 0.85100 0.88700 0.00700
C 	C 	0.79530 0.93890 0.41260 -0.16300
H 	H 	0.80410 0.97670 0.36370 0.09000
C 	C 	0.76610 0.86590 0.86100 -0.14800
C 	C 	0.38700 0.89150 0.43180 0.06200
H 	H 	0.36460 0.91480 0.46270 0.00900
C 	C 	0.61300 0.87920 0.33960 0.16200
C 	C 	0.77210 0.82320 0.55620 0.11500
H 	H 	0.76440 0.78420 0.60390 -0.02400
C 	C 	0.76900 0.85810 0.97560 -0.18600
H 	H 	0.79480 0.85100 0.00380 0.09500
C 	C 	0.63130 0.84100 0.45200 0.05700
H 	H 	0.61350 0.81400 0.50630 0.00800
C 	C 	0.60420 0.90240 0.10790 0.06800
H 	H 	0.58280 0.92130 0.07440 0.00500
C 	C 	0.66220 0.84510 0.20780 -0.18600
H 	H 	0.68280 0.82590 0.24220 0.10000
C 	C 	0.83350 0.93840 0.45260 0.09000
H 	H 	0.86680 0.97750 0.43090 0.01500
C 	C 	0.60210 0.87670 0.22770 0.16100
O 	O 	0.77940 0.89630 0.73460 -0.32500
C 	C 	0.59030 0.83930 0.41780 -0.19100
H 	H 	0.54630 0.81050 0.44860 0.09900
C 	C 	0.69590 0.87710 0.89280 0.09400
H 	H 	0.66980 0.88410 0.86500 0.01100
C 	C 	0.80260 0.86700 0.78330 0.32800
C 	C 	0.66300 0.87820 0.96400 -0.18100
H 	H 	0.61510 0.88540 0.98350 0.09400
C 	C 	0.14970 0.77460 0.52120 0.11100
H 	H 	0.12340 0.73610 0.52950 0.00700
C 	C 	0.67900 0.92320 0.29190 -0.16800
H 	H 	0.69410 0.95290 0.23840 0.09400
C 	C 	0.72150 0.91990 0.32990 0.03900
H 	H 	0.76720 0.94540 0.29920 0.01800
C 	C 	0.38130 0.81140 0.38610 0.07100
H 	H 	0.35540 0.77840 0.38550 0.00600
