data_crystal

_cell_length_a 75.03300
_cell_length_b 29.38000
_cell_length_c 29.56900
_cell_angle_alpha 90.00000
_cell_angle_beta  90.00000
_cell_angle_gamma 90.00000

_symmetry_space_group_name_	'P 1'
_symmetry_space_group_name_H-M	'P 1'

loop_
_symmetry_equiv_pos_as_xyz
  x,y,z

loop_
_atom_site_label
_atom_site_type_symbol
_atom_site_fract_x
_atom_site_fract_y
_atom_site_fract_z
_atom_site_charge
C 	C 	0.92972 0.12710 0.12830 0.04200
H 	H 	0.93310 0.12030 0.09800 0.01100
C 	C 	0.86523 0.40760 0.23590 0.13900
H 	H 	0.85720 0.39520 0.25750 -0.00400
C 	C 	0.93940 0.15800 0.15300 -0.16200
H 	H 	0.94880 0.17410 0.13860 0.08600
C 	C 	0.91992 0.20600 0.02970 -0.16500
H 	H 	0.92960 0.19300 0.04610 0.08700
C 	C 	0.87164 0.09170 0.93140 0.10800
H 	H 	0.87000 0.06050 0.93890 0.00800
C 	C 	0.86600 0.15430 0.88450 0.08400
H 	H 	0.85980 0.16700 0.85940 0.01800
C 	C 	0.91699 0.31010 0.08930 0.20900
C 	C 	0.85578 0.48340 0.26500 0.41100
C 	C 	0.87956 0.46670 0.20840 0.17700
H 	H 	0.88240 0.49830 0.20950 -0.01400
C 	C 	0.91636 0.24880 0.03520 0.13200
C 	C 	0.94574 0.27700 0.06180 0.15800
C 	C 	0.85537 0.07850 0.86250 0.37700
C 	C 	0.92234 0.34970 0.10190 -0.24200
H 	H 	0.93330 0.36010 0.08990 0.11400
C 	C 	0.05049 0.21410 0.18620 0.02800
H 	H 	0.05910 0.19480 0.17260 0.04000
C 	C 	0.08670 0.95140 0.81100 0.03500
C 	C 	0.03793 0.25010 0.06380 -0.16200
C 	C 	0.03016 0.27510 0.09820 0.08600
H 	H 	0.03700 0.28690 0.12250 0.01200
C 	C 	0.88717 0.34110 0.39580 0.11700
H 	H 	0.88360 0.33410 0.42580 0.00900
C 	C 	0.90105 0.29430 0.11020 -0.21300
H 	H 	0.89690 0.26430 0.10420 0.10300
C 	C 	0.87436 0.37690 0.20790 -0.22300
H 	H 	0.87190 0.34520 0.20870 0.10400
C 	C 	0.88897 0.44170 0.17980 -0.24300
H 	H 	0.89710 0.45580 0.15960 0.11300
C 	C 	0.02015 0.23420 0.20890 0.07500
C 	C 	0.87596 0.18230 0.91270 -0.15500
H 	H 	0.87720 0.21370 0.90560 0.08900
C 	C 	0.86695 0.45290 0.23490 -0.22300
C 	C 	0.89471 0.19320 0.97990 -0.08100
C 	C 	0.89811 0.31170 0.36970 -0.20200
H 	H 	0.90170 0.28310 0.38160 0.10200
C 	C 	0.90338 0.32440 0.32760 0.18000
C 	C 	0.02866 0.23360 0.02900 0.08200
H 	H 	0.03440 0.21690 0.00560 0.01900
C 	C 	0.03147 0.20220 0.18600 -0.10600
H 	H 	0.02700 0.17550 0.17180 0.06900
C 	C 	0.91468 0.29030 0.29950 -0.14100
C 	C 	0.93599 0.16670 0.19810 0.14700
C 	C 	0.89832 0.36180 0.30910 -0.22800
H 	H 	0.90150 0.36900 0.27880 0.11500
C 	C 	0.07161 0.14990 0.95260 0.05900
H 	H 	0.06520 0.17780 0.95130 0.00800
C 	C 	0.91357 0.37800 0.13090 0.11000
H 	H 	0.91880 0.40660 0.13790 -0.00800
C 	C 	0.07987 0.99060 0.83620 0.08600
C 	C 	0.07546 0.26870 0.20300 0.34500
C 	C 	0.00138 0.26490 0.06030 0.11900
C 	C 	0.09133 0.10260 0.98900 0.09000
H 	H 	0.09930 0.09720 0.01340 0.00700
C 	C 	0.88025 0.02260 0.06900 -0.16600
C 	C 	0.04455 0.27880 0.23210 0.04300
H 	H 	0.04900 0.30260 0.25060 0.03000
C 	C 	0.05818 0.23990 0.06390 0.46200
C 	C 	0.90338 0.07570 0.11800 0.12400
C 	C 	0.86503 0.10660 0.89300 -0.17500
C 	C 	0.93504 0.23000 0.24900 0.22100
C 	C 	0.91176 0.28190 0.25490 0.14000
H 	H 	0.90220 0.29740 0.24070 -0.01800
C 	C 	0.07912 0.07670 0.91990 0.06400
C 	C 	0.00002 0.22210 0.21180 -0.04200
C 	C 	0.08962 0.07170 0.95770 -0.13200
H 	H 	0.09600 0.04400 0.96120 0.08100
C 	C 	0.88407 0.16480 0.95110 0.11600
C 	C 	0.96371 0.20610 0.21810 0.14000
C 	C 	0.06986 0.11640 0.91750 -0.11400
H 	H 	0.06220 0.12210 0.89260 0.07900
C 	C 	0.89218 0.32080 0.13760 0.09300
H 	H 	0.88140 0.30930 0.15020 -0.00400
C 	C 	0.07766 0.04820 0.88290 0.07200
C 	C 	0.91566 0.10670 0.14660 -0.07500
C 	C 	0.93805 0.23690 0.29080 -0.24800
H 	H 	0.94790 0.22110 0.30340 0.11600
C 	C 	0.92094 0.25500 0.23100 -0.25100
H 	H 	0.91810 0.25170 0.19990 0.11700
C 	C 	0.97339 0.27200 0.10080 0.04700
H 	H 	0.97970 0.27300 0.12860 0.01700
C 	C 	0.91009 0.17790 0.00030 0.05300
H 	H 	0.91410 0.14790 0.99440 0.01000
C 	C 	0.02619 0.26890 0.23090 -0.12800
H 	H 	0.01810 0.28820 0.24650 0.07300
C 	C 	0.90065 0.26930 0.01030 -0.12700
H 	H 	0.89800 0.30090 0.01180 0.07800
C 	C 	0.89103 0.24080 0.98680 0.02300
H 	H 	0.88060 0.25270 0.97280 0.02100
C 	C 	0.10470 0.94440 0.80350 -0.09700
H 	H 	0.11380 0.96350 0.81580 0.08300
C 	C 	0.97237 0.27130 0.02190 0.05300
H 	H 	0.97850 0.27170 0.99370 0.00700
C 	C 	0.88797 0.39140 0.33480 0.14100
H 	H 	0.88500 0.42050 0.32300 0.00300
C 	C 	0.92887 0.26400 0.31910 0.10900
H 	H 	0.93160 0.26560 0.35040 -0.00800
C 	C 	0.89762 0.36700 0.15040 -0.13900
C 	C 	0.98221 0.26800 0.06380 -0.08800
C 	C 	0.98850 0.25780 0.21940 0.01200
H 	H 	0.99300 0.28780 0.22250 0.02300
C 	C 	0.07560 0.91690 0.79600 -0.07700
H 	H 	0.06320 0.92330 0.79920 0.06300
C 	C 	0.88506 0.07140 0.13050 -0.17400
H 	H 	0.88030 0.08710 0.15590 0.08800
C 	C 	0.87100 0.41330 0.40160 0.38100
C 	C 	0.92198 0.14260 0.21790 -0.15400
H 	H 	0.91940 0.14700 0.24910 0.08500
C 	C 	0.10860 0.90470 0.77480 0.05400
H 	H 	0.11950 0.90530 0.75830 0.01900
C 	C 	0.88223 0.37980 0.37490 -0.19000
C 	C 	0.07920 0.87400 0.77710 0.01900
H 	H 	0.07040 0.85210 0.77000 0.04000
C 	C 	0.88689 0.39440 0.17950 0.17900
C 	C 	0.99397 0.17940 0.20410 0.00500
H 	H 	0.00200 0.15530 0.19750 0.02900
C 	C 	0.89854 0.02860 0.05650 0.08100
H 	H 	0.90320 0.01330 0.03080 0.01400
C 	C 	0.00958 0.24210 0.02790 -0.15900
H 	H 	0.00280 0.23090 0.00320 0.08600
C 	C 	0.05539 0.25400 0.20680 -0.09600
C 	C 	0.95421 0.27520 0.10140 -0.17100
H 	H 	0.94780 0.27590 0.12920 0.09000
C 	C 	0.91199 0.11350 0.19380 0.03700
H 	H 	0.90250 0.09740 0.20790 0.01600
C 	C 	0.95412 0.27390 0.02340 -0.17100
H 	H 	0.94750 0.27340 0.99600 0.08900
C 	C 	0.87037 0.99260 0.04080 0.32100
C 	C 	0.97440 0.17160 0.20630 -0.14100
H 	H 	0.96960 0.14250 0.19950 0.08200
C 	C 	0.88079 0.11870 0.96110 -0.16900
H 	H 	0.88500 0.10620 0.98870 0.09100
C 	C 	0.90945 0.05680 0.08210 -0.17500
H 	H 	0.92140 0.06220 0.07290 0.09000
C 	C 	0.87471 0.04420 0.10460 0.10700
H 	H 	0.86260 0.04070 0.11300 0.01000
C 	C 	0.97028 0.25000 0.22260 -0.14300
H 	H 	0.96240 0.27470 0.22780 0.08200
C 	C 	0.01215 0.28210 0.09580 -0.15500
H 	H 	0.00660 0.29930 0.11910 0.08300
N 	N 	0.08708 0.00770 0.87540 -0.08500
N 	N 	0.08256 0.14050 0.98770 -0.21500
N 	N 	0.06694 0.05230 0.84750 -0.08400
N 	N 	0.09993 0.98940 0.90240 -0.23300
H 	H 	0.10470 0.96300 0.89540 0.14400
H 	H 	0.10340 0.00400 0.92680 0.14000
N 	N 	0.09820 0.86730 0.76960 -0.20200
N 	N 	0.06802 0.01870 0.81840 -0.08600
N 	N 	0.92593 0.28310 0.06020 -0.19100
N 	N 	0.94519 0.19930 0.22290 -0.19500
O 	O 	0.87425 0.97320 0.00710 -0.40500
O 	O 	0.85494 0.52370 0.25500 -0.44000
O 	O 	0.84815 0.46300 0.29780 -0.40700
O 	O 	0.08519 0.24540 0.17700 -0.38900
O 	O 	0.85787 0.03670 0.86330 -0.39700
O 	O 	0.07962 0.29850 0.22980 -0.41800
O 	O 	0.84471 0.09770 0.83350 -0.40500
O 	O 	0.86728 0.45140 0.38650 -0.39400
O 	O 	0.86600 0.40070 0.44080 -0.41800
O 	O 	0.06620 0.25440 0.09690 -0.42900
O 	O 	0.85255 0.98460 0.05710 -0.26200
O 	O 	0.06371 0.21720 0.03440 -0.47200
Cu	Cu	0.08695 0.19067 0.03400 0.92500
Cu	Cu	0.10446 0.31361 0.23610 0.93400
Cu	Cu	0.09300 0.27168 0.11606 0.91900
C 	C 	0.92972 0.62710 0.62830 0.04400
H 	H 	0.93310 0.62030 0.59800 0.01100
C 	C 	0.86523 0.90760 0.73590 0.13900
H 	H 	0.85720 0.89520 0.75750 -0.00300
C 	C 	0.93940 0.65800 0.65300 -0.16200
H 	H 	0.94880 0.67410 0.63860 0.08700
C 	C 	0.91992 0.70600 0.52970 -0.15300
H 	H 	0.92960 0.69300 0.54610 0.08300
C 	C 	0.87164 0.59170 0.43140 0.10600
H 	H 	0.87000 0.56050 0.43890 0.01100
C 	C 	0.86600 0.65430 0.38450 0.08300
H 	H 	0.85980 0.66700 0.35940 0.02000
C 	C 	0.91699 0.81010 0.58930 0.21000
C 	C 	0.85578 0.98340 0.76500 0.41000
C 	C 	0.87956 0.96670 0.70840 0.17700
H 	H 	0.88240 0.99830 0.70950 -0.01300
C 	C 	0.91636 0.74880 0.53520 0.12800
C 	C 	0.94574 0.77700 0.56180 0.16100
C 	C 	0.85537 0.57850 0.36250 0.37700
C 	C 	0.92234 0.84970 0.60190 -0.24100
H 	H 	0.93330 0.86010 0.58990 0.11400
C 	C 	0.05049 0.71410 0.68620 0.02800
H 	H 	0.05910 0.69480 0.67260 0.04100
C 	C 	0.08670 0.45140 0.31100 0.03500
C 	C 	0.03793 0.75010 0.56380 -0.16200
C 	C 	0.03016 0.77510 0.59820 0.08600
H 	H 	0.03700 0.78690 0.62250 0.01300
C 	C 	0.88717 0.84110 0.89580 0.11800
H 	H 	0.88360 0.83410 0.92580 0.00900
C 	C 	0.90105 0.79430 0.61020 -0.21200
H 	H 	0.89690 0.76430 0.60420 0.10400
C 	C 	0.87436 0.87690 0.70790 -0.22100
H 	H 	0.87190 0.84520 0.70870 0.10500
C 	C 	0.88897 0.94170 0.67980 -0.24100
H 	H 	0.89710 0.95580 0.65960 0.11300
C 	C 	0.02015 0.73420 0.70890 0.07600
C 	C 	0.87596 0.68230 0.41270 -0.14900
H 	H 	0.87720 0.71370 0.40560 0.08800
C 	C 	0.86695 0.95290 0.73490 -0.22100
C 	C 	0.89471 0.69320 0.47990 -0.06700
C 	C 	0.89811 0.81170 0.86970 -0.20200
H 	H 	0.90170 0.78310 0.88160 0.10200
C 	C 	0.90338 0.82440 0.82760 0.18100
C 	C 	0.02866 0.73360 0.52900 0.08100
H 	H 	0.03440 0.71690 0.50560 0.01800
C 	C 	0.03147 0.70220 0.68600 -0.10600
H 	H 	0.02700 0.67550 0.67180 0.06900
C 	C 	0.91468 0.79030 0.79950 -0.14100
C 	C 	0.93599 0.66670 0.69810 0.14700
C 	C 	0.89832 0.86180 0.80910 -0.22900
H 	H 	0.90150 0.86900 0.77880 0.11500
C 	C 	0.07161 0.64990 0.45260 0.06200
H 	H 	0.06520 0.67780 0.45130 0.00900
C 	C 	0.91357 0.87800 0.63090 0.10900
H 	H 	0.91880 0.90660 0.63790 -0.00800
C 	C 	0.07987 0.49060 0.33620 0.08800
C 	C 	0.07546 0.76870 0.70300 0.34500
C 	C 	0.00138 0.76490 0.56030 0.11700
C 	C 	0.09133 0.60260 0.48900 0.10700
H 	H 	0.09930 0.59720 0.51340 -0.00200
C 	C 	0.88025 0.52260 0.56900 -0.17000
C 	C 	0.04455 0.77880 0.73210 0.04200
H 	H 	0.04900 0.80260 0.75060 0.03000
C 	C 	0.05818 0.73990 0.56390 0.46200
C 	C 	0.90338 0.57570 0.61800 0.12500
C 	C 	0.86503 0.60660 0.39300 -0.17200
C 	C 	0.93504 0.73000 0.74900 0.22100
C 	C 	0.91176 0.78190 0.75490 0.14100
H 	H 	0.90220 0.79740 0.74070 -0.01800
C 	C 	0.07912 0.57670 0.41990 0.07000
C 	C 	0.00002 0.72210 0.71180 -0.04200
C 	C 	0.08962 0.57170 0.45770 -0.14200
H 	H 	0.09600 0.54400 0.46120 0.08600
C 	C 	0.88407 0.66480 0.45110 0.11000
C 	C 	0.96371 0.70610 0.71810 0.14000
C 	C 	0.06986 0.61640 0.41750 -0.11700
H 	H 	0.06220 0.62210 0.39260 0.08100
C 	C 	0.89218 0.82080 0.63760 0.09300
H 	H 	0.88140 0.80930 0.65020 -0.00400
C 	C 	0.07766 0.54820 0.38290 0.07100
C 	C 	0.91566 0.60670 0.64660 -0.07600
C 	C 	0.93805 0.73690 0.79080 -0.24800
H 	H 	0.94790 0.72110 0.80340 0.11500
C 	C 	0.92094 0.75500 0.73100 -0.25100
H 	H 	0.91810 0.75170 0.69990 0.11700
C 	C 	0.97339 0.77200 0.60080 0.04600
H 	H 	0.97970 0.77300 0.62860 0.01700
C 	C 	0.91009 0.67790 0.50030 0.02800
H 	H 	0.91410 0.64790 0.49440 0.02200
C 	C 	0.02619 0.76890 0.73090 -0.12800
H 	H 	0.01810 0.78820 0.74650 0.07300
C 	C 	0.90065 0.76930 0.51030 -0.13100
H 	H 	0.89800 0.80090 0.51180 0.07800
C 	C 	0.89103 0.74080 0.48680 0.02700
H 	H 	0.88060 0.75270 0.47280 0.02100
C 	C 	0.10470 0.44440 0.30350 -0.09700
H 	H 	0.11380 0.46350 0.31580 0.08300
C 	C 	0.97237 0.77130 0.52190 0.04600
H 	H 	0.97850 0.77170 0.49370 0.01400
C 	C 	0.88797 0.89140 0.83480 0.14200
H 	H 	0.88500 0.92050 0.82300 0.00300
C 	C 	0.92887 0.76400 0.81910 0.10900
H 	H 	0.93160 0.76560 0.85040 -0.00900
C 	C 	0.89762 0.86700 0.65040 -0.13900
C 	C 	0.98221 0.76800 0.56380 -0.08500
C 	C 	0.98850 0.75780 0.71940 0.01200
H 	H 	0.99300 0.78780 0.72250 0.02200
C 	C 	0.07560 0.41690 0.29600 -0.07700
H 	H 	0.06320 0.42330 0.29920 0.06300
C 	C 	0.88506 0.57140 0.63050 -0.17700
H 	H 	0.88030 0.58710 0.65590 0.08900
C 	C 	0.87100 0.91330 0.90160 0.38100
C 	C 	0.92198 0.64260 0.71790 -0.15500
H 	H 	0.91940 0.64700 0.74910 0.08500
C 	C 	0.10860 0.40470 0.27480 0.05400
H 	H 	0.11950 0.40530 0.25830 0.01900
C 	C 	0.88223 0.87980 0.87490 -0.19100
C 	C 	0.07920 0.37400 0.27710 0.01900
H 	H 	0.07040 0.35210 0.27000 0.04000
C 	C 	0.88689 0.89440 0.67950 0.17900
C 	C 	0.99397 0.67940 0.70410 0.00500
H 	H 	0.00200 0.65530 0.69750 0.02800
C 	C 	0.89854 0.52860 0.55650 0.08200
H 	H 	0.90320 0.51330 0.53080 0.01100
C 	C 	0.00958 0.74210 0.52790 -0.15800
H 	H 	0.00280 0.73090 0.50320 0.08400
C 	C 	0.05539 0.75400 0.70680 -0.09600
C 	C 	0.95421 0.77520 0.60140 -0.17200
H 	H 	0.94780 0.77590 0.62920 0.09000
C 	C 	0.91199 0.61350 0.69380 0.03700
H 	H 	0.90250 0.59740 0.70790 0.01500
C 	C 	0.95412 0.77390 0.52340 -0.17900
H 	H 	0.94750 0.77340 0.49600 0.09600
C 	C 	0.87037 0.49260 0.54080 0.32300
C 	C 	0.97440 0.67160 0.70630 -0.14200
H 	H 	0.96960 0.64250 0.69950 0.08200
C 	C 	0.88079 0.61870 0.46110 -0.16500
H 	H 	0.88500 0.60620 0.48870 0.09100
C 	C 	0.90945 0.55680 0.58210 -0.17800
H 	H 	0.92140 0.56220 0.57290 0.09000
C 	C 	0.87471 0.54420 0.60460 0.11000
H 	H 	0.86260 0.54070 0.61300 0.00800
C 	C 	0.97028 0.75000 0.72260 -0.14300
H 	H 	0.96240 0.77470 0.72780 0.08200
C 	C 	0.01215 0.78210 0.59580 -0.15400
H 	H 	0.00660 0.79930 0.61910 0.08200
N 	N 	0.08708 0.50770 0.37540 -0.08500
N 	N 	0.08256 0.64050 0.48770 -0.21600
N 	N 	0.06694 0.55230 0.34750 -0.08400
N 	N 	0.09993 0.48940 0.40240 -0.23200
H 	H 	0.10470 0.46300 0.39540 0.14400
H 	H 	0.10340 0.50400 0.42680 0.14000
N 	N 	0.09820 0.36730 0.26960 -0.20200
N 	N 	0.06802 0.51870 0.31840 -0.08700
N 	N 	0.92593 0.78310 0.56020 -0.19100
N 	N 	0.94519 0.69930 0.72290 -0.19500
O 	O 	0.87425 0.47320 0.50710 -0.40900
O 	O 	0.85494 0.02370 0.75500 -0.43900
O 	O 	0.84815 0.96300 0.79780 -0.40700
O 	O 	0.08519 0.74540 0.67700 -0.38900
O 	O 	0.85787 0.53670 0.36330 -0.39700
O 	O 	0.07962 0.79850 0.72980 -0.41800
O 	O 	0.84471 0.59770 0.33350 -0.40500
O 	O 	0.86728 0.95140 0.88650 -0.39500
O 	O 	0.86600 0.90070 0.94080 -0.42000
O 	O 	0.06620 0.75440 0.59690 -0.43000
O 	O 	0.85255 0.48460 0.55710 -0.26400
O 	O 	0.06371 0.71720 0.53440 -0.47300
Cu	Cu	0.08695 0.69067 0.53400 0.92400
Cu	Cu	0.10446 0.81361 0.73610 0.93400
Cu	Cu	0.09300 0.77168 0.61606 0.91900
C 	C 	0.42972 0.12710 0.62830 0.04300
H 	H 	0.43310 0.12030 0.59800 0.01100
C 	C 	0.36523 0.40760 0.73590 0.13900
H 	H 	0.35720 0.39520 0.75750 -0.00300
C 	C 	0.43940 0.15800 0.65300 -0.16200
H 	H 	0.44880 0.17410 0.63860 0.08700
C 	C 	0.41992 0.20600 0.52970 -0.15300
H 	H 	0.42960 0.19300 0.54610 0.08300
C 	C 	0.37164 0.09170 0.43140 0.10600
H 	H 	0.37000 0.06050 0.43890 0.01100
C 	C 	0.36600 0.15430 0.38450 0.08300
H 	H 	0.35980 0.16700 0.35940 0.02000
C 	C 	0.41699 0.31010 0.58930 0.21000
C 	C 	0.35578 0.48340 0.76500 0.41200
C 	C 	0.37956 0.46670 0.70840 0.17800
H 	H 	0.38240 0.49830 0.70950 -0.01300
C 	C 	0.41636 0.24880 0.53520 0.12800
C 	C 	0.44574 0.27700 0.56180 0.16100
C 	C 	0.35537 0.07850 0.36250 0.37700
C 	C 	0.42234 0.34970 0.60190 -0.24100
H 	H 	0.43330 0.36010 0.58990 0.11400
C 	C 	0.55049 0.21410 0.68620 0.02800
H 	H 	0.55910 0.19480 0.67260 0.04100
C 	C 	0.58670 0.95140 0.31100 0.03600
C 	C 	0.53793 0.25010 0.56380 -0.16200
C 	C 	0.53016 0.27510 0.59820 0.08700
H 	H 	0.53700 0.28690 0.62250 0.01300
C 	C 	0.38717 0.34110 0.89580 0.11800
H 	H 	0.38360 0.33410 0.92580 0.00900
C 	C 	0.40105 0.29430 0.61020 -0.21200
H 	H 	0.39690 0.26430 0.60420 0.10400
C 	C 	0.37436 0.37690 0.70790 -0.22200
H 	H 	0.37190 0.34520 0.70870 0.10500
C 	C 	0.38897 0.44170 0.67980 -0.24200
H 	H 	0.39710 0.45580 0.65960 0.11300
C 	C 	0.52015 0.23420 0.70890 0.07600
C 	C 	0.37596 0.18230 0.41270 -0.14900
H 	H 	0.37720 0.21370 0.40560 0.08800
C 	C 	0.36695 0.45290 0.73490 -0.22200
C 	C 	0.39471 0.19320 0.47990 -0.06700
C 	C 	0.39811 0.31170 0.86970 -0.20200
H 	H 	0.40170 0.28310 0.88160 0.10200
C 	C 	0.40338 0.32440 0.82760 0.18100
C 	C 	0.52866 0.23360 0.52900 0.08100
H 	H 	0.53440 0.21690 0.50560 0.01800
C 	C 	0.53147 0.20220 0.68600 -0.10600
H 	H 	0.52700 0.17550 0.67180 0.06900
C 	C 	0.41468 0.29030 0.79950 -0.14100
C 	C 	0.43599 0.16670 0.69810 0.14700
C 	C 	0.39832 0.36180 0.80910 -0.22900
H 	H 	0.40150 0.36900 0.77880 0.11500
C 	C 	0.57161 0.14990 0.45260 0.06200
H 	H 	0.56520 0.17780 0.45130 0.00900
C 	C 	0.41357 0.37800 0.63090 0.10900
H 	H 	0.41880 0.40660 0.63790 -0.00800
C 	C 	0.57987 0.99060 0.33620 0.08600
C 	C 	0.57546 0.26870 0.70300 0.34500
C 	C 	0.50138 0.26490 0.56030 0.11700
C 	C 	0.59133 0.10260 0.48900 0.10700
H 	H 	0.59930 0.09720 0.51340 -0.00200
C 	C 	0.38025 0.02260 0.56900 -0.16800
C 	C 	0.54455 0.27880 0.73210 0.04300
H 	H 	0.54900 0.30260 0.75060 0.03000
C 	C 	0.55818 0.23990 0.56390 0.46200
C 	C 	0.40338 0.07570 0.61800 0.12400
C 	C 	0.36503 0.10660 0.39300 -0.17200
C 	C 	0.43504 0.23000 0.74900 0.22100
C 	C 	0.41176 0.28190 0.75490 0.14100
H 	H 	0.40220 0.29740 0.74070 -0.01800
C 	C 	0.57912 0.07670 0.41990 0.07000
C 	C 	0.50002 0.22210 0.71180 -0.04200
C 	C 	0.58962 0.07170 0.45770 -0.14200
H 	H 	0.59600 0.04400 0.46120 0.08600
C 	C 	0.38407 0.16480 0.45110 0.11000
C 	C 	0.46371 0.20610 0.71810 0.14000
C 	C 	0.56986 0.11640 0.41750 -0.11700
H 	H 	0.56220 0.12210 0.39260 0.08100
C 	C 	0.39218 0.32080 0.63760 0.09300
H 	H 	0.38140 0.30930 0.65020 -0.00400
C 	C 	0.57766 0.04820 0.38290 0.07100
C 	C 	0.41566 0.10670 0.64660 -0.07600
C 	C 	0.43805 0.23690 0.79080 -0.24800
H 	H 	0.44790 0.22110 0.80340 0.11500
C 	C 	0.42094 0.25500 0.73100 -0.25100
H 	H 	0.41810 0.25170 0.69990 0.11700
C 	C 	0.47339 0.27200 0.60080 0.04600
H 	H 	0.47970 0.27300 0.62860 0.01700
C 	C 	0.41009 0.17790 0.50030 0.02800
H 	H 	0.41410 0.14790 0.49440 0.02200
C 	C 	0.52619 0.26890 0.73090 -0.12800
H 	H 	0.51810 0.28820 0.74650 0.07300
C 	C 	0.40065 0.26930 0.51030 -0.13100
H 	H 	0.39800 0.30090 0.51180 0.07800
C 	C 	0.39103 0.24080 0.48680 0.02700
H 	H 	0.38060 0.25270 0.47280 0.02100
C 	C 	0.60470 0.94440 0.30350 -0.09700
H 	H 	0.61380 0.96350 0.31580 0.08300
C 	C 	0.47237 0.27130 0.52190 0.04600
H 	H 	0.47850 0.27170 0.49370 0.01400
C 	C 	0.38797 0.39140 0.83480 0.14200
H 	H 	0.38500 0.42050 0.82300 0.00300
C 	C 	0.42887 0.26400 0.81910 0.10900
H 	H 	0.43160 0.26560 0.85040 -0.00900
C 	C 	0.39762 0.36700 0.65040 -0.14000
C 	C 	0.48221 0.26800 0.56380 -0.08500
C 	C 	0.48850 0.25780 0.71940 0.01200
H 	H 	0.49300 0.28780 0.72250 0.02200
C 	C 	0.57560 0.91690 0.29600 -0.07700
H 	H 	0.56320 0.92330 0.29920 0.06300
C 	C 	0.38506 0.07140 0.63050 -0.17600
H 	H 	0.38030 0.08710 0.65590 0.08800
C 	C 	0.37100 0.41330 0.90160 0.38100
C 	C 	0.42198 0.14260 0.71790 -0.15500
H 	H 	0.41940 0.14700 0.74910 0.08500
C 	C 	0.60860 0.90470 0.27480 0.05400
H 	H 	0.61950 0.90530 0.25830 0.01900
C 	C 	0.38223 0.37980 0.87490 -0.19100
C 	C 	0.57920 0.87400 0.27710 0.01900
H 	H 	0.57040 0.85210 0.27000 0.04000
C 	C 	0.38689 0.39440 0.67950 0.17900
C 	C 	0.49397 0.17940 0.70410 0.00500
H 	H 	0.50200 0.15530 0.69750 0.02900
C 	C 	0.39854 0.02860 0.55650 0.08100
H 	H 	0.40320 0.01330 0.53080 0.01200
C 	C 	0.50958 0.24210 0.52790 -0.15800
H 	H 	0.50280 0.23090 0.50320 0.08400
C 	C 	0.55539 0.25400 0.70680 -0.09600
C 	C 	0.45421 0.27520 0.60140 -0.17200
H 	H 	0.44780 0.27590 0.62920 0.09000
C 	C 	0.41199 0.11350 0.69380 0.03700
H 	H 	0.40250 0.09740 0.70790 0.01600
C 	C 	0.45412 0.27390 0.52340 -0.17900
H 	H 	0.44750 0.27340 0.49600 0.09600
C 	C 	0.37037 0.99260 0.54080 0.32200
C 	C 	0.47440 0.17160 0.70630 -0.14200
H 	H 	0.46960 0.14250 0.69950 0.08200
C 	C 	0.38079 0.11870 0.46110 -0.16500
H 	H 	0.38500 0.10620 0.48870 0.09100
C 	C 	0.40945 0.05680 0.58210 -0.17700
H 	H 	0.42140 0.06220 0.57290 0.08900
C 	C 	0.37471 0.04420 0.60460 0.10900
H 	H 	0.36260 0.04070 0.61300 0.00900
C 	C 	0.47028 0.25000 0.72260 -0.14300
H 	H 	0.46240 0.27470 0.72780 0.08200
C 	C 	0.51215 0.28210 0.59580 -0.15400
H 	H 	0.50660 0.29930 0.61910 0.08200
N 	N 	0.58708 0.00770 0.37540 -0.08500
N 	N 	0.58256 0.14050 0.48770 -0.21600
N 	N 	0.56694 0.05230 0.34750 -0.08400
N 	N 	0.59993 0.98940 0.40240 -0.23300
H 	H 	0.60470 0.96300 0.39540 0.14400
H 	H 	0.60340 0.00400 0.42680 0.14100
N 	N 	0.59820 0.86730 0.26960 -0.20200
N 	N 	0.56802 0.01870 0.31840 -0.08600
N 	N 	0.42593 0.28310 0.56020 -0.19100
N 	N 	0.44519 0.19930 0.72290 -0.19500
O 	O 	0.37425 0.97320 0.50710 -0.40900
O 	O 	0.35494 0.52370 0.75500 -0.44000
O 	O 	0.34815 0.46300 0.79780 -0.40700
O 	O 	0.58519 0.24540 0.67700 -0.38900
O 	O 	0.35787 0.03670 0.36330 -0.39700
O 	O 	0.57962 0.29850 0.72980 -0.41800
O 	O 	0.34471 0.09770 0.33350 -0.40500
O 	O 	0.36728 0.45140 0.88650 -0.39400
O 	O 	0.36600 0.40070 0.94080 -0.42000
O 	O 	0.56620 0.25440 0.59690 -0.43000
O 	O 	0.35255 0.98460 0.55710 -0.26400
O 	O 	0.56371 0.21720 0.53440 -0.47300
Cu	Cu	0.58695 0.19067 0.53400 0.92400
Cu	Cu	0.60446 0.31361 0.73610 0.93400
Cu	Cu	0.59300 0.27168 0.61606 0.91900
C 	C 	0.42972 0.62710 0.12830 0.04300
H 	H 	0.43310 0.62030 0.09800 0.01100
C 	C 	0.36523 0.90760 0.23590 0.13900
H 	H 	0.35720 0.89520 0.25750 -0.00300
C 	C 	0.43940 0.65800 0.15300 -0.16200
H 	H 	0.44880 0.67410 0.13860 0.08700
C 	C 	0.41992 0.70600 0.02970 -0.16400
H 	H 	0.42960 0.69300 0.04610 0.08800
C 	C 	0.37164 0.59170 0.93140 0.10900
H 	H 	0.37000 0.56050 0.93890 0.00900
C 	C 	0.36600 0.65430 0.88450 0.08500
H 	H 	0.35980 0.66700 0.85940 0.01900
C 	C 	0.41699 0.81010 0.08930 0.21000
C 	C 	0.35578 0.98340 0.26500 0.41000
C 	C 	0.37956 0.96670 0.20840 0.17700
H 	H 	0.38240 0.99830 0.20950 -0.01300
C 	C 	0.41636 0.74880 0.03520 0.13300
C 	C 	0.44574 0.77700 0.06180 0.15900
C 	C 	0.35537 0.57850 0.86250 0.37800
C 	C 	0.42234 0.84970 0.10190 -0.24100
H 	H 	0.43330 0.86010 0.08990 0.11500
C 	C 	0.55049 0.71410 0.18620 0.02900
H 	H 	0.55910 0.69480 0.17260 0.04100
C 	C 	0.58670 0.45140 0.81100 0.03500
C 	C 	0.53793 0.75010 0.06380 -0.16200
C 	C 	0.53016 0.77510 0.09820 0.08700
H 	H 	0.53700 0.78690 0.12250 0.01300
C 	C 	0.38717 0.84110 0.39580 0.11800
H 	H 	0.38360 0.83410 0.42580 0.01000
C 	C 	0.40105 0.79430 0.11020 -0.21200
H 	H 	0.39690 0.76430 0.10420 0.10400
C 	C 	0.37436 0.87690 0.20790 -0.22100
H 	H 	0.37190 0.84520 0.20870 0.10500
C 	C 	0.38897 0.94170 0.17980 -0.24100
H 	H 	0.39710 0.95580 0.15960 0.11400
C 	C 	0.52015 0.73420 0.20890 0.07600
C 	C 	0.37596 0.68230 0.91270 -0.15400
H 	H 	0.37720 0.71370 0.90560 0.09000
C 	C 	0.36695 0.95290 0.23490 -0.22100
C 	C 	0.39471 0.69320 0.97990 -0.08100
C 	C 	0.39811 0.81170 0.36970 -0.20100
H 	H 	0.40170 0.78310 0.38160 0.10200
C 	C 	0.40338 0.82440 0.32760 0.18000
C 	C 	0.52866 0.73360 0.02900 0.08200
H 	H 	0.53440 0.71690 0.00560 0.01900
C 	C 	0.53147 0.70220 0.18600 -0.10600
H 	H 	0.52700 0.67550 0.17180 0.06900
C 	C 	0.41468 0.79030 0.29950 -0.14100
C 	C 	0.43599 0.66670 0.19810 0.14700
C 	C 	0.39832 0.86180 0.30910 -0.22800
H 	H 	0.40150 0.86900 0.27880 0.11500
C 	C 	0.57161 0.64990 0.95260 0.05900
H 	H 	0.56520 0.67780 0.95130 0.00800
C 	C 	0.41357 0.87800 0.13090 0.11000
H 	H 	0.41880 0.90660 0.13790 -0.00800
C 	C 	0.57987 0.49060 0.83620 0.08800
C 	C 	0.57546 0.76870 0.20300 0.34500
C 	C 	0.50138 0.76490 0.06030 0.11900
C 	C 	0.59133 0.60260 0.98900 0.09000
H 	H 	0.59930 0.59720 0.01340 0.00700
C 	C 	0.38025 0.52260 0.06900 -0.16800
C 	C 	0.54455 0.77880 0.23210 0.04300
H 	H 	0.54900 0.80260 0.25060 0.03000
C 	C 	0.55818 0.73990 0.06390 0.46200
C 	C 	0.40338 0.57570 0.11800 0.12500
C 	C 	0.36503 0.60660 0.89300 -0.17500
C 	C 	0.43504 0.73000 0.24900 0.22100
C 	C 	0.41176 0.78190 0.25490 0.14000
H 	H 	0.40220 0.79740 0.24070 -0.01800
C 	C 	0.57912 0.57670 0.91990 0.06400
C 	C 	0.50002 0.72210 0.21180 -0.04200
C 	C 	0.58962 0.57170 0.95770 -0.13100
H 	H 	0.59600 0.54400 0.96120 0.08000
C 	C 	0.38407 0.66480 0.95110 0.11700
C 	C 	0.46371 0.70610 0.21810 0.14000
C 	C 	0.56986 0.61640 0.91750 -0.11400
H 	H 	0.56220 0.62210 0.89260 0.07900
C 	C 	0.39218 0.82080 0.13760 0.09300
H 	H 	0.38140 0.80930 0.15020 -0.00400
C 	C 	0.57766 0.54820 0.88290 0.07200
C 	C 	0.41566 0.60670 0.14660 -0.07600
C 	C 	0.43805 0.73690 0.29080 -0.24800
H 	H 	0.44790 0.72110 0.30340 0.11600
C 	C 	0.42094 0.75500 0.23100 -0.25100
H 	H 	0.41810 0.75170 0.19990 0.11700
C 	C 	0.47339 0.77200 0.10080 0.04700
H 	H 	0.47970 0.77300 0.12860 0.01700
C 	C 	0.41009 0.67790 0.00030 0.05300
H 	H 	0.41410 0.64790 0.99440 0.01000
C 	C 	0.52619 0.76890 0.23090 -0.12800
H 	H 	0.51810 0.78820 0.24650 0.07300
C 	C 	0.40065 0.76930 0.01030 -0.12700
H 	H 	0.39800 0.80090 0.01180 0.07800
C 	C 	0.39103 0.74080 0.98680 0.02400
H 	H 	0.38060 0.75270 0.97280 0.02100
C 	C 	0.60470 0.44440 0.80350 -0.09700
H 	H 	0.61380 0.46350 0.81580 0.08300
C 	C 	0.47237 0.77130 0.02190 0.05300
H 	H 	0.47850 0.77170 0.99370 0.00700
C 	C 	0.38797 0.89140 0.33480 0.14100
H 	H 	0.38500 0.92050 0.32300 0.00300
C 	C 	0.42887 0.76400 0.31910 0.10900
H 	H 	0.43160 0.76560 0.35040 -0.00800
C 	C 	0.39762 0.86700 0.15040 -0.13900
C 	C 	0.48221 0.76800 0.06380 -0.08800
C 	C 	0.48850 0.75780 0.21940 0.01200
H 	H 	0.49300 0.78780 0.22250 0.02300
C 	C 	0.57560 0.41690 0.79600 -0.07700
H 	H 	0.56320 0.42330 0.79920 0.06300
C 	C 	0.38506 0.57140 0.13050 -0.17600
H 	H 	0.38030 0.58710 0.15590 0.08900
C 	C 	0.37100 0.91330 0.40160 0.38100
C 	C 	0.42198 0.64260 0.21790 -0.15400
H 	H 	0.41940 0.64700 0.24910 0.08500
C 	C 	0.60860 0.40470 0.77480 0.05400
H 	H 	0.61950 0.40530 0.75830 0.01900
C 	C 	0.38223 0.87980 0.37490 -0.19000
C 	C 	0.57920 0.37400 0.77710 0.01800
H 	H 	0.57040 0.35210 0.77000 0.04000
C 	C 	0.38689 0.89440 0.17950 0.17900
C 	C 	0.49397 0.67940 0.20410 0.00500
H 	H 	0.50200 0.65530 0.19750 0.02900
C 	C 	0.39854 0.52860 0.05650 0.08200
H 	H 	0.40320 0.51330 0.03080 0.01300
C 	C 	0.50958 0.74210 0.02790 -0.15900
H 	H 	0.50280 0.73090 0.00320 0.08600
C 	C 	0.55539 0.75400 0.20680 -0.09600
C 	C 	0.45421 0.77520 0.10140 -0.17100
H 	H 	0.44780 0.77590 0.12920 0.09000
C 	C 	0.41199 0.61350 0.19380 0.03700
H 	H 	0.40250 0.59740 0.20790 0.01600
C 	C 	0.45412 0.77390 0.02340 -0.17100
H 	H 	0.44750 0.77340 0.99600 0.08900
C 	C 	0.37037 0.49260 0.04080 0.32300
C 	C 	0.47440 0.67160 0.20630 -0.14100
H 	H 	0.46960 0.64250 0.19950 0.08200
C 	C 	0.38079 0.61870 0.96110 -0.17000
H 	H 	0.38500 0.60620 0.98870 0.09100
C 	C 	0.40945 0.55680 0.08210 -0.17600
H 	H 	0.42140 0.56220 0.07290 0.09000
C 	C 	0.37471 0.54420 0.10460 0.10900
H 	H 	0.36260 0.54070 0.11300 0.00900
C 	C 	0.47028 0.75000 0.22260 -0.14300
H 	H 	0.46240 0.77470 0.22780 0.08200
C 	C 	0.51215 0.78210 0.09580 -0.15500
H 	H 	0.50660 0.79930 0.11910 0.08300
N 	N 	0.58708 0.50770 0.87540 -0.08600
N 	N 	0.58256 0.64050 0.98770 -0.21500
N 	N 	0.56694 0.55230 0.84750 -0.08400
N 	N 	0.59993 0.48940 0.90240 -0.23200
H 	H 	0.60470 0.46300 0.89540 0.14400
H 	H 	0.60340 0.50400 0.92680 0.13900
N 	N 	0.59820 0.36730 0.76960 -0.20200
N 	N 	0.56802 0.51870 0.81840 -0.08700
N 	N 	0.42593 0.78310 0.06020 -0.19100
N 	N 	0.44519 0.69930 0.22290 -0.19500
O 	O 	0.37425 0.47320 0.00710 -0.40500
O 	O 	0.35494 0.02370 0.25500 -0.43900
O 	O 	0.34815 0.96300 0.29780 -0.40700
O 	O 	0.58519 0.74540 0.17700 -0.38900
O 	O 	0.35787 0.53670 0.86330 -0.39800
O 	O 	0.57962 0.79850 0.22980 -0.41800
O 	O 	0.34471 0.59770 0.83350 -0.40500
O 	O 	0.36728 0.95140 0.38650 -0.39400
O 	O 	0.36600 0.90070 0.44080 -0.41800
O 	O 	0.56620 0.75440 0.09690 -0.42900
O 	O 	0.35255 0.48460 0.05710 -0.26200
O 	O 	0.56371 0.71720 0.03440 -0.47200
Cu	Cu	0.58695 0.69067 0.03400 0.92500
Cu	Cu	0.60446 0.81361 0.23610 0.93400
Cu	Cu	0.59300 0.77168 0.11606 0.91900
C 	C 	0.17972 0.12290 0.37830 0.04400
H 	H 	0.18310 0.12970 0.34800 0.01100
C 	C 	0.11523 0.84240 0.48590 0.13900
H 	H 	0.10720 0.85480 0.50750 -0.00300
C 	C 	0.18940 0.09200 0.40300 -0.16200
H 	H 	0.19880 0.07590 0.38860 0.08700
C 	C 	0.16992 0.04400 0.27970 -0.15600
H 	H 	0.17960 0.05700 0.29610 0.08400
C 	C 	0.12164 0.15830 0.18140 0.10700
H 	H 	0.12000 0.18950 0.18890 0.01000
C 	C 	0.11600 0.09570 0.13450 0.08400
H 	H 	0.10980 0.08300 0.10940 0.02000
C 	C 	0.16699 0.93990 0.33930 0.21000
C 	C 	0.10578 0.76660 0.51500 0.41200
C 	C 	0.12956 0.78330 0.45840 0.17800
H 	H 	0.13240 0.75170 0.45950 -0.01300
C 	C 	0.16636 0.00120 0.28520 0.13300
C 	C 	0.19574 0.97300 0.31180 0.16100
C 	C 	0.10537 0.17150 0.11250 0.37700
C 	C 	0.17234 0.90030 0.35190 -0.24100
H 	H 	0.18330 0.88990 0.33990 0.11400
C 	C 	0.30049 0.03590 0.43620 0.03100
H 	H 	0.30910 0.05520 0.42260 0.04000
C 	C 	0.33670 0.29860 0.06100 0.03600
C 	C 	0.28793 0.99990 0.31380 -0.16400
C 	C 	0.28016 0.97490 0.34820 0.08800
H 	H 	0.28700 0.96310 0.37250 0.01300
C 	C 	0.13717 0.90890 0.64580 0.11700
H 	H 	0.13360 0.91590 0.67580 0.01000
C 	C 	0.15105 0.95570 0.36020 -0.21300
H 	H 	0.14690 0.98570 0.35420 0.10300
C 	C 	0.12436 0.87310 0.45790 -0.22200
H 	H 	0.12190 0.90480 0.45870 0.10500
C 	C 	0.13897 0.80830 0.42980 -0.24200
H 	H 	0.14710 0.79420 0.40960 0.11400
C 	C 	0.27015 0.01580 0.45890 0.07800
C 	C 	0.12596 0.06770 0.16270 -0.15100
H 	H 	0.12720 0.03630 0.15560 0.08900
C 	C 	0.11695 0.79710 0.48490 -0.22200
C 	C 	0.14471 0.05680 0.22990 -0.07000
C 	C 	0.14811 0.93830 0.61970 -0.20100
H 	H 	0.15170 0.96690 0.63160 0.10200
C 	C 	0.15338 0.92560 0.57760 0.18000
C 	C 	0.27866 0.01640 0.27900 0.08300
H 	H 	0.28440 0.03310 0.25560 0.01700
C 	C 	0.28147 0.04780 0.43600 -0.10700
H 	H 	0.27700 0.07450 0.42180 0.06900
C 	C 	0.16468 0.95970 0.54950 -0.14100
C 	C 	0.18599 0.08330 0.44810 0.14700
C 	C 	0.14832 0.88820 0.55910 -0.22800
H 	H 	0.15150 0.88100 0.52880 0.11500
C 	C 	0.32161 0.10010 0.20260 0.06200
H 	H 	0.31520 0.07220 0.20130 0.00900
C 	C 	0.16357 0.87200 0.38090 0.11000
H 	H 	0.16880 0.84340 0.38790 -0.00800
C 	C 	0.32987 0.25940 0.08620 0.08800
C 	C 	0.32546 0.98130 0.45300 0.34500
C 	C 	0.25138 0.98510 0.31030 0.11600
C 	C 	0.34133 0.14740 0.23900 0.10700
H 	H 	0.34930 0.15280 0.26340 -0.00200
C 	C 	0.13025 0.22740 0.31900 -0.17000
C 	C 	0.29455 0.97120 0.48210 0.04400
H 	H 	0.29900 0.94740 0.50060 0.02900
C 	C 	0.30818 0.01010 0.31390 0.46500
C 	C 	0.15338 0.17430 0.36800 0.12500
C 	C 	0.11503 0.14340 0.14300 -0.17300
C 	C 	0.18504 0.02000 0.49900 0.22100
C 	C 	0.16176 0.96810 0.50490 0.14100
H 	H 	0.15220 0.95260 0.49070 -0.01800
C 	C 	0.32912 0.17330 0.16990 0.07000
C 	C 	0.25002 0.02790 0.46180 -0.03900
C 	C 	0.33962 0.17830 0.20770 -0.14200
H 	H 	0.34600 0.20600 0.21120 0.08600
C 	C 	0.13407 0.08520 0.20110 0.11200
C 	C 	0.21371 0.04390 0.46810 0.13800
C 	C 	0.31986 0.13360 0.16750 -0.11700
H 	H 	0.31220 0.12790 0.14260 0.08100
C 	C 	0.14218 0.92920 0.38760 0.09300
H 	H 	0.13140 0.94070 0.40020 -0.00400
C 	C 	0.32766 0.20180 0.13290 0.07100
C 	C 	0.16566 0.14330 0.39660 -0.07600
C 	C 	0.18805 0.01310 0.54080 -0.24600
H 	H 	0.19790 0.02890 0.55340 0.11500
C 	C 	0.17094 0.99500 0.48100 -0.25200
H 	H 	0.16810 0.99830 0.44990 0.11700
C 	C 	0.22339 0.97800 0.35080 0.04500
H 	H 	0.22970 0.97700 0.37860 0.01700
C 	C 	0.16009 0.07210 0.25030 0.03100
H 	H 	0.16410 0.10210 0.24440 0.02100
C 	C 	0.27619 0.98110 0.48090 -0.13100
H 	H 	0.26810 0.96180 0.49650 0.07300
C 	C 	0.15065 0.98070 0.26030 -0.13800
H 	H 	0.14800 0.94910 0.26180 0.08000
C 	C 	0.14103 0.00920 0.23680 0.03400
H 	H 	0.13060 0.99730 0.22280 0.01800
C 	C 	0.35470 0.30560 0.05350 -0.09600
H 	H 	0.36380 0.28650 0.06580 0.08300
C 	C 	0.22237 0.97870 0.27190 0.04600
H 	H 	0.22850 0.97830 0.24370 0.01400
C 	C 	0.13797 0.85860 0.58480 0.14100
H 	H 	0.13500 0.82950 0.57300 0.00300
C 	C 	0.17887 0.98600 0.56910 0.10700
H 	H 	0.18160 0.98440 0.60040 -0.00800
C 	C 	0.14762 0.88300 0.40040 -0.14000
C 	C 	0.23221 0.98200 0.31380 -0.08500
C 	C 	0.23850 0.99220 0.46940 0.00700
H 	H 	0.24300 0.96220 0.47250 0.02400
C 	C 	0.32560 0.33310 0.04600 -0.07700
H 	H 	0.31320 0.32670 0.04920 0.06400
C 	C 	0.13506 0.17860 0.38050 -0.17700
H 	H 	0.13030 0.16290 0.40590 0.08900
C 	C 	0.12100 0.83670 0.65160 0.38100
C 	C 	0.17198 0.10740 0.46790 -0.15500
H 	H 	0.16940 0.10300 0.49910 0.08600
C 	C 	0.35860 0.34530 0.02480 0.05400
H 	H 	0.36950 0.34470 0.00830 0.02100
C 	C 	0.13223 0.87020 0.62490 -0.19000
C 	C 	0.32920 0.37600 0.02710 0.02000
H 	H 	0.32040 0.39790 0.02000 0.04200
C 	C 	0.13689 0.85560 0.42950 0.17900
C 	C 	0.24397 0.07060 0.45410 0.00300
H 	H 	0.25200 0.09470 0.44750 0.02900
C 	C 	0.14854 0.22140 0.30650 0.08300
H 	H 	0.15320 0.23670 0.28080 0.01100
C 	C 	0.25958 0.00790 0.27790 -0.15700
H 	H 	0.25280 0.01910 0.25320 0.08500
C 	C 	0.30539 0.99600 0.45680 -0.09800
C 	C 	0.20421 0.97480 0.35140 -0.17200
H 	H 	0.19780 0.97410 0.37920 0.09000
C 	C 	0.16199 0.13650 0.44380 0.03700
H 	H 	0.15250 0.15260 0.45790 0.01600
C 	C 	0.20412 0.97610 0.27340 -0.17900
H 	H 	0.19750 0.97660 0.24600 0.09600
C 	C 	0.12037 0.25740 0.29080 0.32300
C 	C 	0.22440 0.07840 0.45630 -0.13900
H 	H 	0.21960 0.10750 0.44950 0.08200
C 	C 	0.13079 0.13130 0.21110 -0.16600
H 	H 	0.13500 0.14380 0.23870 0.09100
C 	C 	0.15945 0.19320 0.33210 -0.17800
H 	H 	0.17140 0.18780 0.32290 0.09000
C 	C 	0.12471 0.20580 0.35460 0.11000
H 	H 	0.11260 0.20930 0.36300 0.00800
C 	C 	0.22028 -0.00000 0.47260 -0.13800
H 	H 	0.21240 0.97530 0.47780 0.07900
C 	C 	0.26215 0.96790 0.34580 -0.15500
H 	H 	0.25660 0.95070 0.36910 0.08300
N 	N 	0.33708 0.24230 0.12540 -0.08500
N 	N 	0.33256 0.10950 0.23770 -0.21600
N 	N 	0.31694 0.19770 0.09750 -0.08300
N 	N 	0.34993 0.26060 0.15240 -0.23200
H 	H 	0.35470 0.28700 0.14540 0.14400
H 	H 	0.35340 0.24600 0.17680 0.14000
N 	N 	0.34820 0.38270 0.01960 -0.20000
N 	N 	0.31802 0.23130 0.06840 -0.08600
N 	N 	0.17593 0.96690 0.31020 -0.19100
N 	N 	0.19519 0.05070 0.47290 -0.19500
O 	O 	0.12425 0.27680 0.25710 -0.40900
O 	O 	0.10494 0.72630 0.50500 -0.44000
O 	O 	0.09815 0.78700 0.54780 -0.40700
O 	O 	0.33519 0.00460 0.42700 -0.38800
O 	O 	0.10787 0.21330 0.11330 -0.39700
O 	O 	0.32962 0.95150 0.47980 -0.41800
O 	O 	0.09471 0.15230 0.08350 -0.40400
O 	O 	0.11728 0.79860 0.63650 -0.39400
O 	O 	0.11600 0.84930 0.69080 -0.41800
O 	O 	0.31620 0.99560 0.34690 -0.43100
O 	O 	0.10255 0.26540 0.30710 -0.26400
O 	O 	0.31371 0.03280 0.28440 -0.47400
Cu	Cu	0.33695 0.05933 0.28400 0.92400
Cu	Cu	0.35446 0.93639 0.48610 0.93400
Cu	Cu	0.34300 0.97832 0.36606 0.91900
C 	C 	0.17972 0.62290 0.87830 0.04400
H 	H 	0.18310 0.62970 0.84800 0.01100
C 	C 	0.11523 0.34240 0.98590 0.12700
H 	H 	0.10720 0.35480 0.00750 0.00500
C 	C 	0.18940 0.59200 0.90300 -0.16200
H 	H 	0.19880 0.57590 0.88860 0.08700
C 	C 	0.16992 0.54400 0.77970 -0.15300
H 	H 	0.17960 0.55700 0.79610 0.08300
C 	C 	0.12164 0.65830 0.68140 0.10600
H 	H 	0.12000 0.68950 0.68890 0.01100
C 	C 	0.11600 0.59570 0.63450 0.08300
H 	H 	0.10980 0.58300 0.60940 0.02000
C 	C 	0.16699 0.43990 0.83930 0.20900
C 	C 	0.10578 0.26660 0.01500 0.41500
C 	C 	0.12956 0.28330 0.95840 0.17700
H 	H 	0.13240 0.25170 0.95950 -0.01400
C 	C 	0.16636 0.50120 0.78520 0.12800
C 	C 	0.19574 0.47300 0.81180 0.16100
C 	C 	0.10537 0.67150 0.61250 0.37700
C 	C 	0.17234 0.40030 0.85190 -0.24000
H 	H 	0.18330 0.38990 0.83990 0.11400
C 	C 	0.30049 0.53590 0.93620 0.02200
H 	H 	0.30910 0.55520 0.92260 0.04300
C 	C 	0.33670 0.79860 0.56100 0.03500
C 	C 	0.28793 0.49990 0.81380 -0.16200
C 	C 	0.28016 0.47490 0.84820 0.08600
H 	H 	0.28700 0.46310 0.87250 0.01300
C 	C 	0.13717 0.40890 0.14580 0.12500
H 	H 	0.13360 0.41590 0.17580 0.00800
C 	C 	0.15105 0.45570 0.86020 -0.21200
H 	H 	0.14690 0.48570 0.85420 0.10300
C 	C 	0.12436 0.37310 0.95790 -0.21600
H 	H 	0.12190 0.40480 0.95870 0.10200
C 	C 	0.13897 0.30830 0.92980 -0.24000
H 	H 	0.14710 0.29420 0.90960 0.11200
C 	C 	0.27015 0.51580 0.95890 0.06900
C 	C 	0.12596 0.56770 0.66270 -0.14900
H 	H 	0.12720 0.53630 0.65560 0.08800
C 	C 	0.11695 0.29710 0.98490 -0.22300
C 	C 	0.14471 0.55680 0.72990 -0.06700
C 	C 	0.14811 0.43830 0.11970 -0.21000
H 	H 	0.15170 0.46690 0.13160 0.10600
C 	C 	0.15338 0.42560 0.07760 0.19400
C 	C 	0.27866 0.51640 0.77900 0.08100
H 	H 	0.28440 0.53310 0.75560 0.01800
C 	C 	0.28147 0.54780 0.93600 -0.10100
H 	H 	0.27700 0.57450 0.92180 0.06700
C 	C 	0.16468 0.45970 0.04950 -0.16100
C 	C 	0.18599 0.58330 0.94810 0.14700
C 	C 	0.14832 0.38820 0.05910 -0.23900
H 	H 	0.15150 0.38100 0.02880 0.12100
C 	C 	0.32161 0.60010 0.70260 0.06200
H 	H 	0.31520 0.57220 0.70130 0.00900
C 	C 	0.16357 0.37200 0.88090 0.10800
H 	H 	0.16880 0.34340 0.88790 -0.00800
C 	C 	0.32987 0.75940 0.58620 0.08800
C 	C 	0.32546 0.48130 0.95300 0.34200
C 	C 	0.25138 0.48510 0.81030 0.11700
C 	C 	0.34133 0.64740 0.73900 0.10700
H 	H 	0.34930 0.65280 0.76340 -0.00200
C 	C 	0.13025 0.72740 0.81900 -0.17000
C 	C 	0.29455 0.47120 0.98210 0.02400
H 	H 	0.29900 0.44740 0.00060 0.04100
C 	C 	0.30818 0.51010 0.81390 0.46200
C 	C 	0.15338 0.67430 0.86800 0.12500
C 	C 	0.11503 0.64340 0.64300 -0.17200
C 	C 	0.18504 0.52000 0.99900 0.23000
C 	C 	0.16176 0.46810 0.00490 0.18400
H 	H 	0.15220 0.45260 0.99070 -0.03600
C 	C 	0.32912 0.67330 0.66990 0.07000
C 	C 	0.25002 0.52790 0.96180 -0.03900
C 	C 	0.33962 0.67830 0.70770 -0.14200
H 	H 	0.34600 0.70600 0.71120 0.08600
C 	C 	0.13407 0.58520 0.70110 0.11000
C 	C 	0.21371 0.54390 0.96810 0.13900
C 	C 	0.31986 0.63360 0.66750 -0.11700
H 	H 	0.31220 0.62790 0.64260 0.08100
C 	C 	0.14218 0.42920 0.88760 0.09200
H 	H 	0.13140 0.44070 0.90020 -0.00400
C 	C 	0.32766 0.70180 0.63290 0.07100
C 	C 	0.16566 0.64330 0.89660 -0.07600
C 	C 	0.18805 0.51310 0.04080 -0.25400
H 	H 	0.19790 0.52890 0.05340 0.11900
C 	C 	0.17094 0.49500 0.98100 -0.28600
H 	H 	0.16810 0.49830 0.94990 0.12800
C 	C 	0.22339 0.47800 0.85080 0.04500
H 	H 	0.22970 0.47700 0.87860 0.01700
C 	C 	0.16009 0.57210 0.75030 0.02800
H 	H 	0.16410 0.60210 0.74440 0.02200
C 	C 	0.27619 0.48110 0.98090 -0.11700
H 	H 	0.26810 0.46180 0.99650 0.06800
C 	C 	0.15065 0.48070 0.76030 -0.13100
H 	H 	0.14800 0.44910 0.76180 0.07800
C 	C 	0.14103 0.50920 0.73680 0.02700
H 	H 	0.13060 0.49730 0.72280 0.02100
C 	C 	0.35470 0.80560 0.55350 -0.09700
H 	H 	0.36380 0.78650 0.56580 0.08300
C 	C 	0.22237 0.47870 0.77190 0.04600
H 	H 	0.22850 0.47830 0.74370 0.01400
C 	C 	0.13797 0.35860 0.08480 0.15000
H 	H 	0.13500 0.32950 0.07300 0.00100
C 	C 	0.17887 0.48600 0.06910 0.12100
H 	H 	0.18160 0.48440 0.10040 -0.01200
C 	C 	0.14762 0.38300 0.90040 -0.13800
C 	C 	0.23221 0.48200 0.81380 -0.08500
C 	C 	0.23850 0.49220 0.96940 0.01000
H 	H 	0.24300 0.46220 0.97250 0.02300
C 	C 	0.32560 0.83310 0.54600 -0.07700
H 	H 	0.31320 0.82670 0.54920 0.06300
C 	C 	0.13506 0.67860 0.88050 -0.17700
H 	H 	0.13030 0.66290 0.90590 0.08800
C 	C 	0.12100 0.33670 0.15160 0.38300
C 	C 	0.17198 0.60740 0.96790 -0.15500
H 	H 	0.16940 0.60300 0.99910 0.08400
C 	C 	0.35860 0.84530 0.52480 0.05400
H 	H 	0.36950 0.84470 0.50830 0.01900
C 	C 	0.13223 0.37020 0.12490 -0.19600
C 	C 	0.32920 0.87600 0.52710 0.01900
H 	H 	0.32040 0.89790 0.52000 0.04000
C 	C 	0.13689 0.35560 0.92950 0.17500
C 	C 	0.24397 0.57060 0.95410 0.00300
H 	H 	0.25200 0.59470 0.94750 0.02900
C 	C 	0.14854 0.72140 0.80650 0.08200
H 	H 	0.15320 0.73670 0.78080 0.01100
C 	C 	0.25958 0.50790 0.77790 -0.15800
H 	H 	0.25280 0.51910 0.75320 0.08400
C 	C 	0.30539 0.49600 0.95680 -0.08700
C 	C 	0.20421 0.47480 0.85140 -0.17200
H 	H 	0.19780 0.47410 0.87920 0.09000
C 	C 	0.16199 0.63650 0.94380 0.03700
H 	H 	0.15250 0.65260 0.95790 0.01500
C 	C 	0.20412 0.47610 0.77340 -0.17900
H 	H 	0.19750 0.47660 0.74600 0.09600
C 	C 	0.12037 0.75740 0.79080 0.32300
C 	C 	0.22440 0.57840 0.95630 -0.14100
H 	H 	0.21960 0.60750 0.94950 0.08200
C 	C 	0.13079 0.63130 0.71110 -0.16500
H 	H 	0.13500 0.64380 0.73870 0.09100
C 	C 	0.15945 0.69320 0.83210 -0.17800
H 	H 	0.17140 0.68780 0.82290 0.09000
C 	C 	0.12471 0.70580 0.85460 0.11000
H 	H 	0.11260 0.70930 0.86300 0.00800
C 	C 	0.22028 0.50000 0.97260 -0.14300
H 	H 	0.21240 0.47530 0.97780 0.08000
C 	C 	0.26215 0.46790 0.84580 -0.15400
H 	H 	0.25660 0.45070 0.86910 0.08200
N 	N 	0.33708 0.74230 0.62540 -0.08500
N 	N 	0.33256 0.60950 0.73770 -0.21600
N 	N 	0.31694 0.69770 0.59750 -0.08400
N 	N 	0.34993 0.76060 0.65240 -0.23200
H 	H 	0.35470 0.78700 0.64540 0.14400
H 	H 	0.35340 0.74600 0.67680 0.14000
N 	N 	0.34820 0.88270 0.51960 -0.20200
N 	N 	0.31802 0.73130 0.56840 -0.08700
N 	N 	0.17593 0.46690 0.81020 -0.19000
N 	N 	0.19519 0.55070 0.97290 -0.19700
O 	O 	0.12425 0.77680 0.75710 -0.40900
O 	O 	0.10494 0.22630 0.00500 -0.43800
O 	O 	0.09815 0.28700 0.04780 -0.40700
O 	O 	0.33519 0.50460 0.92700 -0.38900
O 	O 	0.10787 0.71330 0.61330 -0.39700
O 	O 	0.32962 0.45150 0.97980 -0.42000
O 	O 	0.09471 0.65230 0.58350 -0.40500
O 	O 	0.11728 0.29860 0.13650 -0.39400
O 	O 	0.11600 0.34930 0.19080 -0.41800
O 	O 	0.31620 0.49560 0.84690 -0.43000
O 	O 	0.10255 0.76540 0.80710 -0.26400
O 	O 	0.31371 0.53280 0.78440 -0.47300
Cu	Cu	0.33695 0.55933 0.78400 0.92400
Cu	Cu	0.35446 0.43639 0.98610 0.93100
Cu	Cu	0.34300 0.47832 0.86606 0.91900
C 	C 	0.67972 0.12290 0.87830 0.04400
H 	H 	0.68310 0.12970 0.84800 0.01100
C 	C 	0.61523 0.84240 0.98590 0.12700
H 	H 	0.60720 0.85480 0.00750 0.00500
C 	C 	0.68940 0.09200 0.90300 -0.16200
H 	H 	0.69880 0.07590 0.88860 0.08700
C 	C 	0.66992 0.04400 0.77970 -0.15600
H 	H 	0.67960 0.05700 0.79610 0.08400
C 	C 	0.62164 0.15830 0.68140 0.10700
H 	H 	0.62000 0.18950 0.68890 0.01000
C 	C 	0.61600 0.09570 0.63450 0.08400
H 	H 	0.60980 0.08300 0.60940 0.02000
C 	C 	0.66699 0.93990 0.83930 0.20900
C 	C 	0.60578 0.76660 0.01500 0.41500
C 	C 	0.62956 0.78330 0.95840 0.17700
H 	H 	0.63240 0.75170 0.95950 -0.01400
C 	C 	0.66636 0.00120 0.78520 0.13200
C 	C 	0.69574 0.97300 0.81180 0.16100
C 	C 	0.60537 0.17150 0.61250 0.37800
C 	C 	0.67234 0.90030 0.85190 -0.24100
H 	H 	0.68330 0.88990 0.83990 0.11400
C 	C 	0.80049 0.03590 0.93620 0.02400
H 	H 	0.80910 0.05520 0.92260 0.04200
C 	C 	0.83670 0.29860 0.56100 0.03500
C 	C 	0.78793 0.99990 0.81380 -0.16500
C 	C 	0.78016 0.97490 0.84820 0.08800
H 	H 	0.78700 0.96310 0.87250 0.01300
C 	C 	0.63717 0.90890 0.14580 0.12400
H 	H 	0.63360 0.91590 0.17580 0.00800
C 	C 	0.65105 0.95570 0.86020 -0.21200
H 	H 	0.64690 0.98570 0.85420 0.10300
C 	C 	0.62436 0.87310 0.95790 -0.21600
H 	H 	0.62190 0.90480 0.95870 0.10200
C 	C 	0.63897 0.80830 0.92980 -0.24000
H 	H 	0.64710 0.79420 0.90960 0.11200
C 	C 	0.77015 0.01580 0.95890 0.07100
C 	C 	0.62596 0.06770 0.66270 -0.15100
H 	H 	0.62720 0.03630 0.65560 0.08900
C 	C 	0.61695 0.79710 0.98490 -0.22300
C 	C 	0.64471 0.05680 0.72990 -0.07100
C 	C 	0.64811 0.93830 0.11970 -0.21000
H 	H 	0.65170 0.96690 0.13160 0.10500
C 	C 	0.65338 0.92560 0.07760 0.19400
C 	C 	0.77866 0.01640 0.77900 0.08300
H 	H 	0.78440 0.03310 0.75560 0.01700
C 	C 	0.78147 0.04780 0.93600 -0.10200
H 	H 	0.77700 0.07450 0.92180 0.06700
C 	C 	0.66468 0.95970 0.04950 -0.16100
C 	C 	0.68599 0.08330 0.94810 0.14700
C 	C 	0.64832 0.88820 0.05910 -0.23900
H 	H 	0.65150 0.88100 0.02880 0.12000
C 	C 	0.82161 0.10010 0.70260 0.06200
H 	H 	0.81520 0.07220 0.70130 0.00900
C 	C 	0.66357 0.87200 0.88090 0.10800
H 	H 	0.66880 0.84340 0.88790 -0.00800
C 	C 	0.82987 0.25940 0.58620 0.08800
C 	C 	0.82546 0.98130 0.95300 0.34200
C 	C 	0.75138 0.98510 0.81030 0.11600
C 	C 	0.84133 0.14740 0.73900 0.10700
H 	H 	0.84930 0.15280 0.76340 -0.00200
C 	C 	0.63025 0.22740 0.81900 -0.17000
C 	C 	0.79455 0.97120 0.98210 0.02600
H 	H 	0.79900 0.94740 0.00060 0.04000
C 	C 	0.80818 0.01010 0.81390 0.46500
C 	C 	0.65338 0.17430 0.86800 0.12500
C 	C 	0.61503 0.14340 0.64300 -0.17300
C 	C 	0.68504 0.02000 0.99900 0.23100
C 	C 	0.66176 0.96810 0.00490 0.18400
H 	H 	0.65220 0.95260 0.99070 -0.03600
C 	C 	0.82912 0.17330 0.66990 0.07000
C 	C 	0.75002 0.02790 0.96180 -0.03700
C 	C 	0.83962 0.17830 0.70770 -0.14200
H 	H 	0.84600 0.20600 0.71120 0.08600
C 	C 	0.63407 0.08520 0.70110 0.11200
C 	C 	0.71371 0.04390 0.96810 0.13600
C 	C 	0.81986 0.13360 0.66750 -0.11700
H 	H 	0.81220 0.12790 0.64260 0.08100
C 	C 	0.64218 0.92920 0.88760 0.09200
H 	H 	0.63140 0.94070 0.90020 -0.00400
C 	C 	0.82766 0.20180 0.63290 0.07100
C 	C 	0.66566 0.14330 0.89660 -0.07600
C 	C 	0.68805 0.01310 0.04080 -0.25300
H 	H 	0.69790 0.02890 0.05340 0.11900
C 	C 	0.67094 0.99500 0.98100 -0.28700
H 	H 	0.66810 0.99830 0.94990 0.12800
C 	C 	0.72339 0.97800 0.85080 0.04500
H 	H 	0.72970 0.97700 0.87860 0.01700
C 	C 	0.66009 0.07210 0.75030 0.03100
H 	H 	0.66410 0.10210 0.74440 0.02100
C 	C 	0.77619 0.98110 0.98090 -0.11900
H 	H 	0.76810 0.96180 0.99650 0.06800
C 	C 	0.65065 0.98070 0.76030 -0.13800
H 	H 	0.64800 0.94910 0.76180 0.08000
C 	C 	0.64103 0.00920 0.73680 0.03400
H 	H 	0.63060 0.99730 0.72280 0.01800
C 	C 	0.85470 0.30560 0.55350 -0.09700
H 	H 	0.86380 0.28650 0.56580 0.08300
C 	C 	0.72237 0.97870 0.77190 0.04600
H 	H 	0.72850 0.97830 0.74370 0.01300
C 	C 	0.63797 0.85860 0.08480 0.14900
H 	H 	0.63500 0.82950 0.07300 0.00100
C 	C 	0.67887 0.98600 0.06910 0.12000
H 	H 	0.68160 0.98440 0.10040 -0.01200
C 	C 	0.64762 0.88300 0.90040 -0.13800
C 	C 	0.73221 0.98200 0.81380 -0.08500
C 	C 	0.73850 0.99220 0.96940 0.00500
H 	H 	0.74300 0.96220 0.97250 0.02400
C 	C 	0.82560 0.33310 0.54600 -0.07700
H 	H 	0.81320 0.32670 0.54920 0.06300
C 	C 	0.63506 0.17860 0.88050 -0.17700
H 	H 	0.63030 0.16290 0.90590 0.08800
C 	C 	0.62100 0.83670 0.15160 0.38300
C 	C 	0.67198 0.10740 0.96790 -0.15500
H 	H 	0.66940 0.10300 0.99910 0.08400
C 	C 	0.85860 0.34530 0.52480 0.05400
H 	H 	0.86950 0.34470 0.50830 0.01900
C 	C 	0.63223 0.87020 0.12490 -0.19600
C 	C 	0.82920 0.37600 0.52710 0.01900
H 	H 	0.82040 0.39790 0.52000 0.04000
C 	C 	0.63689 0.85560 0.92950 0.17500
C 	C 	0.74397 0.07060 0.95410 0.00100
H 	H 	0.75200 0.09470 0.94750 0.03000
C 	C 	0.64854 0.22140 0.80650 0.08200
H 	H 	0.65320 0.23670 0.78080 0.01100
C 	C 	0.75958 0.00790 0.77790 -0.15700
H 	H 	0.75280 0.01910 0.75320 0.08400
C 	C 	0.80539 0.99600 0.95680 -0.08900
C 	C 	0.70421 0.97480 0.85140 -0.17200
H 	H 	0.69780 0.97410 0.87920 0.08900
C 	C 	0.66199 0.13650 0.94380 0.03700
H 	H 	0.65250 0.15260 0.95790 0.01500
C 	C 	0.70412 0.97610 0.77340 -0.17900
H 	H 	0.69750 0.97660 0.74600 0.09600
C 	C 	0.62037 0.25740 0.79080 0.32300
C 	C 	0.72440 0.07840 0.95630 -0.13900
H 	H 	0.71960 0.10750 0.94950 0.08100
C 	C 	0.63079 0.13130 0.71110 -0.16600
H 	H 	0.63500 0.14380 0.73870 0.09100
C 	C 	0.65945 0.19320 0.83210 -0.17800
H 	H 	0.67140 0.18780 0.82290 0.09000
C 	C 	0.62471 0.20580 0.85460 0.11000
H 	H 	0.61260 0.20930 0.86300 0.00800
C 	C 	0.72028 -0.00000 0.97260 -0.13700
H 	H 	0.71240 0.97530 0.97780 0.07800
C 	C 	0.76215 0.96790 0.84580 -0.15500
H 	H 	0.75660 0.95070 0.86910 0.08200
N 	N 	0.83708 0.24230 0.62540 -0.08500
N 	N 	0.83256 0.10950 0.73770 -0.21600
N 	N 	0.81694 0.19770 0.59750 -0.08400
N 	N 	0.84993 0.26060 0.65240 -0.23200
H 	H 	0.85470 0.28700 0.64540 0.14400
H 	H 	0.85340 0.24600 0.67680 0.14000
N 	N 	0.84820 0.38270 0.51960 -0.20200
N 	N 	0.81802 0.23130 0.56840 -0.08700
N 	N 	0.67593 0.96690 0.81020 -0.19100
N 	N 	0.69519 0.05070 0.97290 -0.19700
O 	O 	0.62425 0.27680 0.75710 -0.40900
O 	O 	0.60494 0.72630 0.00500 -0.43800
O 	O 	0.59815 0.78700 0.04780 -0.40700
O 	O 	0.83519 0.00460 0.92700 -0.38800
O 	O 	0.60787 0.21330 0.61330 -0.39700
O 	O 	0.82962 0.95150 0.97980 -0.42000
O 	O 	0.59471 0.15230 0.58350 -0.40500
O 	O 	0.61728 0.79860 0.13650 -0.39400
O 	O 	0.61600 0.84930 0.19080 -0.41800
O 	O 	0.81620 0.99560 0.84690 -0.43100
O 	O 	0.60255 0.26540 0.80710 -0.26400
O 	O 	0.81371 0.03280 0.78440 -0.47400
Cu	Cu	0.83695 0.05933 0.78400 0.92400
Cu	Cu	0.85446 0.93639 0.98610 0.93100
Cu	Cu	0.84300 0.97832 0.86606 0.91900
C 	C 	0.67972 0.62290 0.37830 0.04400
H 	H 	0.68310 0.62970 0.34800 0.01100
C 	C 	0.61523 0.34240 0.48590 0.13900
H 	H 	0.60720 0.35480 0.50750 -0.00300
C 	C 	0.68940 0.59200 0.40300 -0.16200
H 	H 	0.69880 0.57590 0.38860 0.08700
C 	C 	0.66992 0.54400 0.27970 -0.15300
H 	H 	0.67960 0.55700 0.29610 0.08300
C 	C 	0.62164 0.65830 0.18140 0.10600
H 	H 	0.62000 0.68950 0.18890 0.01100
C 	C 	0.61600 0.59570 0.13450 0.08300
H 	H 	0.60980 0.58300 0.10940 0.02000
C 	C 	0.66699 0.43990 0.33930 0.21000
C 	C 	0.60578 0.26660 0.51500 0.41200
C 	C 	0.62956 0.28330 0.45840 0.17800
H 	H 	0.63240 0.25170 0.45950 -0.01300
C 	C 	0.66636 0.50120 0.28520 0.12900
C 	C 	0.69574 0.47300 0.31180 0.16100
C 	C 	0.60537 0.67150 0.11250 0.37700
C 	C 	0.67234 0.40030 0.35190 -0.24100
H 	H 	0.68330 0.38990 0.33990 0.11400
C 	C 	0.80049 0.53590 0.43620 0.02800
H 	H 	0.80910 0.55520 0.42260 0.04100
C 	C 	0.83670 0.79860 0.06100 0.03600
C 	C 	0.78793 0.49990 0.31380 -0.16200
C 	C 	0.78016 0.47490 0.34820 0.08700
H 	H 	0.78700 0.46310 0.37250 0.01300
C 	C 	0.63717 0.40890 0.64580 0.11800
H 	H 	0.63360 0.41590 0.67580 0.01000
C 	C 	0.65105 0.45570 0.36020 -0.21200
H 	H 	0.64690 0.48570 0.35420 0.10400
C 	C 	0.62436 0.37310 0.45790 -0.22200
H 	H 	0.62190 0.40480 0.45870 0.10500
C 	C 	0.63897 0.30830 0.42980 -0.24200
H 	H 	0.64710 0.29420 0.40960 0.11400
C 	C 	0.77015 0.51580 0.45890 0.07600
C 	C 	0.62596 0.56770 0.16270 -0.14900
H 	H 	0.62720 0.53630 0.15560 0.08800
C 	C 	0.61695 0.29710 0.48490 -0.22200
C 	C 	0.64471 0.55680 0.22990 -0.06700
C 	C 	0.64811 0.43830 0.61970 -0.20100
H 	H 	0.65170 0.46690 0.63160 0.10200
C 	C 	0.65338 0.42560 0.57760 0.18000
C 	C 	0.77866 0.51640 0.27900 0.08100
H 	H 	0.78440 0.53310 0.25560 0.01800
C 	C 	0.78147 0.54780 0.43600 -0.10600
H 	H 	0.77700 0.57450 0.42180 0.06900
C 	C 	0.66468 0.45970 0.54950 -0.14100
C 	C 	0.68599 0.58330 0.44810 0.14700
C 	C 	0.64832 0.38820 0.55910 -0.22800
H 	H 	0.65150 0.38100 0.52880 0.11500
C 	C 	0.82161 0.60010 0.20260 0.06200
H 	H 	0.81520 0.57220 0.20130 0.00900
C 	C 	0.66357 0.37200 0.38090 0.11000
H 	H 	0.66880 0.34340 0.38790 -0.00800
C 	C 	0.82987 0.75940 0.08620 0.08800
C 	C 	0.82546 0.48130 0.45300 0.34500
C 	C 	0.75138 0.48510 0.31030 0.11700
C 	C 	0.84133 0.64740 0.23900 0.10700
H 	H 	0.84930 0.65280 0.26340 -0.00200
C 	C 	0.63025 0.72740 0.31900 -0.17000
C 	C 	0.79455 0.47120 0.48210 0.04300
H 	H 	0.79900 0.44740 0.50060 0.03000
C 	C 	0.80818 0.51010 0.31390 0.46200
C 	C 	0.65338 0.67430 0.36800 0.12500
C 	C 	0.61503 0.64340 0.14300 -0.17200
C 	C 	0.68504 0.52000 0.49900 0.22100
C 	C 	0.66176 0.46810 0.50490 0.14000
H 	H 	0.65220 0.45260 0.49070 -0.01800
C 	C 	0.82912 0.67330 0.16990 0.07000
C 	C 	0.75002 0.52790 0.46180 -0.04200
C 	C 	0.83962 0.67830 0.20770 -0.14200
H 	H 	0.84600 0.70600 0.21120 0.08600
C 	C 	0.63407 0.58520 0.20110 0.11000
C 	C 	0.71371 0.54390 0.46810 0.14000
C 	C 	0.81986 0.63360 0.16750 -0.11700
H 	H 	0.81220 0.62790 0.14260 0.08100
C 	C 	0.64218 0.42920 0.38760 0.09300
H 	H 	0.63140 0.44070 0.40020 -0.00400
C 	C 	0.82766 0.70180 0.13290 0.07100
C 	C 	0.66566 0.64330 0.39660 -0.07600
C 	C 	0.68805 0.51310 0.54080 -0.24800
H 	H 	0.69790 0.52890 0.55340 0.11600
C 	C 	0.67094 0.49500 0.48100 -0.25100
H 	H 	0.66810 0.49830 0.44990 0.11700
C 	C 	0.72339 0.47800 0.35080 0.04600
H 	H 	0.72970 0.47700 0.37860 0.01700
C 	C 	0.66009 0.57210 0.25030 0.02800
H 	H 	0.66410 0.60210 0.24440 0.02200
C 	C 	0.77619 0.48110 0.48090 -0.12800
H 	H 	0.76810 0.46180 0.49650 0.07300
C 	C 	0.65065 0.48070 0.26030 -0.13100
H 	H 	0.64800 0.44910 0.26180 0.07800
C 	C 	0.64103 0.50920 0.23680 0.02700
H 	H 	0.63060 0.49730 0.22280 0.02100
C 	C 	0.85470 0.80560 0.05350 -0.09600
H 	H 	0.86380 0.78650 0.06580 0.08300
C 	C 	0.72237 0.47870 0.27190 0.04600
H 	H 	0.72850 0.47830 0.24370 0.01400
C 	C 	0.63797 0.35860 0.58480 0.14100
H 	H 	0.63500 0.32950 0.57300 0.00300
C 	C 	0.67887 0.48600 0.56910 0.10800
H 	H 	0.68160 0.48440 0.60040 -0.00800
C 	C 	0.64762 0.38300 0.40040 -0.14000
C 	C 	0.73221 0.48200 0.31380 -0.08500
C 	C 	0.73850 0.49220 0.46940 0.01200
H 	H 	0.74300 0.46220 0.47250 0.02300
C 	C 	0.82560 0.83310 0.04600 -0.07700
H 	H 	0.81320 0.82670 0.04920 0.06400
C 	C 	0.63506 0.67860 0.38050 -0.17700
H 	H 	0.63030 0.66290 0.40590 0.08900
C 	C 	0.62100 0.33670 0.65160 0.38100
C 	C 	0.67198 0.60740 0.46790 -0.15500
H 	H 	0.66940 0.60300 0.49910 0.08500
C 	C 	0.85860 0.84530 0.02480 0.05400
H 	H 	0.86950 0.84470 0.00830 0.02100
C 	C 	0.63223 0.37020 0.62490 -0.19000
C 	C 	0.82920 0.87600 0.02710 0.02000
H 	H 	0.82040 0.89790 0.02000 0.04200
C 	C 	0.63689 0.35560 0.42950 0.17900
C 	C 	0.74397 0.57060 0.45410 0.00500
H 	H 	0.75200 0.59470 0.44750 0.02900
C 	C 	0.64854 0.72140 0.30650 0.08200
H 	H 	0.65320 0.73670 0.28080 0.01100
C 	C 	0.75958 0.50790 0.27790 -0.15800
H 	H 	0.75280 0.51910 0.25320 0.08400
C 	C 	0.80539 0.49600 0.45680 -0.09600
C 	C 	0.70421 0.47480 0.35140 -0.17200
H 	H 	0.69780 0.47410 0.37920 0.09000
C 	C 	0.66199 0.63650 0.44380 0.03700
H 	H 	0.65250 0.65260 0.45790 0.01600
C 	C 	0.70412 0.47610 0.27340 -0.17900
H 	H 	0.69750 0.47660 0.24600 0.09700
C 	C 	0.62037 0.75740 0.29080 0.32300
C 	C 	0.72440 0.57840 0.45630 -0.14100
H 	H 	0.71960 0.60750 0.44950 0.08200
C 	C 	0.63079 0.63130 0.21110 -0.16500
H 	H 	0.63500 0.64380 0.23870 0.09100
C 	C 	0.65945 0.69320 0.33210 -0.17800
H 	H 	0.67140 0.68780 0.32290 0.09000
C 	C 	0.62471 0.70580 0.35460 0.11000
H 	H 	0.61260 0.70930 0.36300 0.00800
C 	C 	0.72028 0.50000 0.47260 -0.14300
H 	H 	0.71240 0.47530 0.47780 0.08200
C 	C 	0.76215 0.46790 0.34580 -0.15400
H 	H 	0.75660 0.45070 0.36910 0.08300
N 	N 	0.83708 0.74230 0.12540 -0.08500
N 	N 	0.83256 0.60950 0.23770 -0.21600
N 	N 	0.81694 0.69770 0.09750 -0.08300
N 	N 	0.84993 0.76060 0.15240 -0.23200
H 	H 	0.85470 0.78700 0.14540 0.14400
H 	H 	0.85340 0.74600 0.17680 0.14000
N 	N 	0.84820 0.88270 0.01960 -0.20000
N 	N 	0.81802 0.73130 0.06840 -0.08600
N 	N 	0.67593 0.46690 0.31020 -0.19000
N 	N 	0.69519 0.55070 0.47290 -0.19500
O 	O 	0.62425 0.77680 0.25710 -0.40900
O 	O 	0.60494 0.22630 0.50500 -0.44000
O 	O 	0.59815 0.28700 0.54780 -0.40700
O 	O 	0.83519 0.50460 0.42700 -0.38900
O 	O 	0.60787 0.71330 0.11330 -0.39700
O 	O 	0.82962 0.45150 0.47980 -0.41800
O 	O 	0.59471 0.65230 0.08350 -0.40400
O 	O 	0.61728 0.29860 0.63650 -0.39400
O 	O 	0.61600 0.34930 0.69080 -0.41800
O 	O 	0.81620 0.49560 0.34690 -0.43000
O 	O 	0.60255 0.76540 0.30710 -0.26400
O 	O 	0.81371 0.53280 0.28440 -0.47300
Cu	Cu	0.83695 0.55933 0.28400 0.92400
Cu	Cu	0.85446 0.43639 0.48610 0.93400
Cu	Cu	0.84300 0.47832 0.36606 0.91900
C 	C 	0.07028 0.87290 0.12830 0.04300
H 	H 	0.06690 0.87970 0.09800 0.01100
C 	C 	0.13477 0.59240 0.23590 0.14000
H 	H 	0.14280 0.60480 0.25750 -0.00300
C 	C 	0.06060 0.84200 0.15300 -0.16200
H 	H 	0.05120 0.82590 0.13860 0.08700
C 	C 	0.08008 0.79400 0.02970 -0.16400
H 	H 	0.07040 0.80700 0.04610 0.08800
C 	C 	0.12836 0.90830 0.93140 0.10900
H 	H 	0.13000 0.93950 0.93890 0.00900
C 	C 	0.13400 0.84570 0.88450 0.08600
H 	H 	0.14020 0.83300 0.85940 0.01900
C 	C 	0.08301 0.68990 0.08930 0.21000
C 	C 	0.14422 0.51660 0.26500 0.41200
C 	C 	0.12044 0.53330 0.20840 0.17800
H 	H 	0.11760 0.50170 0.20950 -0.01300
C 	C 	0.08364 0.75120 0.03520 0.13300
C 	C 	0.05426 0.72300 0.06180 0.15900
C 	C 	0.14463 0.92150 0.86250 0.37800
C 	C 	0.07766 0.65030 0.10190 -0.24100
H 	H 	0.06670 0.63990 0.08990 0.11500
C 	C 	0.94951 0.78590 0.18620 0.02800
H 	H 	0.94090 0.80520 0.17260 0.04100
C 	C 	0.91330 0.04860 0.81100 0.03500
C 	C 	0.96207 0.74990 0.06380 -0.16200
C 	C 	0.96984 0.72490 0.09820 0.08700
H 	H 	0.96300 0.71310 0.12250 0.01300
C 	C 	0.11283 0.65890 0.39580 0.11800
H 	H 	0.11640 0.66590 0.42580 0.01000
C 	C 	0.09895 0.70570 0.11020 -0.21200
H 	H 	0.10310 0.73570 0.10420 0.10400
C 	C 	0.12564 0.62310 0.20790 -0.22200
H 	H 	0.12810 0.65480 0.20870 0.10500
C 	C 	0.11103 0.55830 0.17980 -0.24200
H 	H 	0.10290 0.54420 0.15960 0.11400
C 	C 	0.97985 0.76580 0.20890 0.07600
C 	C 	0.12404 0.81770 0.91270 -0.15400
H 	H 	0.12280 0.78630 0.90560 0.09000
C 	C 	0.13305 0.54710 0.23490 -0.22200
C 	C 	0.10529 0.80680 0.97990 -0.08100
C 	C 	0.10189 0.68830 0.36970 -0.20100
H 	H 	0.09830 0.71690 0.38160 0.10200
C 	C 	0.09662 0.67560 0.32760 0.18000
C 	C 	0.97134 0.76640 0.02900 0.08200
H 	H 	0.96560 0.78310 0.00560 0.01900
C 	C 	0.96853 0.79780 0.18600 -0.10600
H 	H 	0.97300 0.82450 0.17180 0.06900
C 	C 	0.08532 0.70970 0.29950 -0.14100
C 	C 	0.06401 0.83330 0.19810 0.14700
C 	C 	0.10168 0.63820 0.30910 -0.22800
H 	H 	0.09850 0.63100 0.27880 0.11500
C 	C 	0.92839 0.85010 0.95260 0.05900
H 	H 	0.93480 0.82220 0.95130 0.00800
C 	C 	0.08643 0.62200 0.13090 0.11000
H 	H 	0.08120 0.59340 0.13790 -0.00800
C 	C 	0.92013 0.00940 0.83620 0.08900
C 	C 	0.92454 0.73130 0.20300 0.34500
C 	C 	0.99862 0.73510 0.06030 0.11900
C 	C 	0.90867 0.89740 0.98900 0.09000
H 	H 	0.90070 0.90280 0.01340 0.00700
C 	C 	0.11975 0.97740 0.06900 -0.17000
C 	C 	0.95545 0.72120 0.23210 0.04300
H 	H 	0.95100 0.69740 0.25060 0.03000
C 	C 	0.94182 0.76010 0.06390 0.46200
C 	C 	0.09662 0.92430 0.11800 0.12500
C 	C 	0.13497 0.89340 0.89300 -0.17500
C 	C 	0.06496 0.77000 0.24900 0.22100
C 	C 	0.08824 0.71810 0.25490 0.14000
H 	H 	0.09780 0.70260 0.24070 -0.01800
C 	C 	0.92088 0.92330 0.91990 0.06400
C 	C 	0.99998 0.77790 0.21180 -0.04200
C 	C 	0.91038 0.92830 0.95770 -0.13200
H 	H 	0.90400 0.95600 0.96120 0.08000
C 	C 	0.11593 0.83520 0.95110 0.11700
C 	C 	0.03629 0.79390 0.21810 0.14000
C 	C 	0.93014 0.88360 0.91750 -0.11400
H 	H 	0.93780 0.87790 0.89260 0.07900
C 	C 	0.10782 0.67920 0.13760 0.09300
H 	H 	0.11860 0.69070 0.15020 -0.00400
C 	C 	0.92234 0.95180 0.88290 0.07200
C 	C 	0.08434 0.89330 0.14660 -0.07600
C 	C 	0.06195 0.76310 0.29080 -0.24800
H 	H 	0.05210 0.77890 0.30340 0.11600
C 	C 	0.07906 0.74500 0.23100 -0.25100
H 	H 	0.08190 0.74830 0.19990 0.11700
C 	C 	0.02661 0.72800 0.10080 0.04700
H 	H 	0.02030 0.72700 0.12860 0.01700
C 	C 	0.08991 0.82210 0.00030 0.05300
H 	H 	0.08590 0.85210 0.99440 0.01000
C 	C 	0.97381 0.73110 0.23090 -0.12800
H 	H 	0.98190 0.71180 0.24650 0.07300
C 	C 	0.09935 0.73070 0.01030 -0.12700
H 	H 	0.10200 0.69910 0.01180 0.07800
C 	C 	0.10897 0.75920 0.98680 0.02400
H 	H 	0.11940 0.74730 0.97280 0.02100
C 	C 	0.89530 0.05560 0.80350 -0.09600
H 	H 	0.88620 0.03650 0.81580 0.08300
C 	C 	0.02763 0.72870 0.02190 0.05300
H 	H 	0.02150 0.72830 0.99370 0.00700
C 	C 	0.11203 0.60860 0.33480 0.14100
H 	H 	0.11500 0.57950 0.32300 0.00300
C 	C 	0.07113 0.73600 0.31910 0.10800
H 	H 	0.06840 0.73440 0.35040 -0.00800
C 	C 	0.10238 0.63300 0.15040 -0.13900
C 	C 	0.01779 0.73200 0.06380 -0.08800
C 	C 	0.01150 0.74220 0.21940 0.01200
H 	H 	0.00700 0.71220 0.22250 0.02300
C 	C 	0.92440 0.08310 0.79600 -0.07600
H 	H 	0.93680 0.07670 0.79920 0.06300
C 	C 	0.11494 0.92860 0.13050 -0.17700
H 	H 	0.11970 0.91290 0.15590 0.08900
C 	C 	0.12900 0.58670 0.40160 0.38100
C 	C 	0.07802 0.85740 0.21790 -0.15500
H 	H 	0.08060 0.85300 0.24910 0.08500
C 	C 	0.89140 0.09530 0.77480 0.05400
H 	H 	0.88050 0.09470 0.75830 0.01900
C 	C 	0.11777 0.62020 0.37490 -0.19000
C 	C 	0.92080 0.12600 0.77710 0.01800
H 	H 	0.92960 0.14790 0.77000 0.04000
C 	C 	0.11311 0.60560 0.17950 0.17900
C 	C 	0.00603 0.82060 0.20410 0.00500
H 	H 	0.99800 0.84470 0.19750 0.02900
C 	C 	0.10146 0.97140 0.05650 0.08300
H 	H 	0.09680 0.98670 0.03080 0.01200
C 	C 	0.99042 0.75790 0.02790 -0.15900
H 	H 	0.99720 0.76910 0.00320 0.08600
C 	C 	0.94461 0.74600 0.20680 -0.09600
C 	C 	0.04579 0.72480 0.10140 -0.17100
H 	H 	0.05220 0.72410 0.12920 0.09000
C 	C 	0.08801 0.88650 0.19380 0.03700
H 	H 	0.09750 0.90260 0.20790 0.01600
C 	C 	0.04588 0.72610 0.02340 -0.17100
H 	H 	0.05250 0.72660 0.99600 0.08900
C 	C 	0.12963 0.00740 0.04080 0.32400
C 	C 	0.02560 0.82840 0.20630 -0.14100
H 	H 	0.03040 0.85750 0.19950 0.08200
C 	C 	0.11921 0.88130 0.96110 -0.17000
H 	H 	0.11500 0.89380 0.98870 0.09100
C 	C 	0.09055 0.94320 0.08210 -0.17800
H 	H 	0.07860 0.93780 0.07290 0.09000
C 	C 	0.12529 0.95580 0.10460 0.11000
H 	H 	0.13740 0.95930 0.11300 0.00800
C 	C 	0.02972 0.75000 0.22260 -0.14300
H 	H 	0.03760 0.72530 0.22780 0.08200
C 	C 	0.98785 0.71790 0.09580 -0.15500
H 	H 	0.99340 0.70070 0.11910 0.08300
N 	N 	0.91292 0.99230 0.87540 -0.08700
N 	N 	0.91744 0.85950 0.98770 -0.21500
N 	N 	0.93306 0.94770 0.84750 -0.08500
N 	N 	0.90007 0.01060 0.90240 -0.23000
H 	H 	0.89530 0.03700 0.89540 0.14300
H 	H 	0.89660 0.99600 0.92680 0.13800
N 	N 	0.90180 0.13270 0.76960 -0.20200
N 	N 	0.93198 0.98130 0.81840 -0.08700
N 	N 	0.07407 0.71690 0.06020 -0.19100
N 	N 	0.05481 0.80070 0.22290 -0.19500
O 	O 	0.12575 0.02680 0.00710 -0.40500
O 	O 	0.14506 0.47630 0.25500 -0.44000
O 	O 	0.15185 0.53700 0.29780 -0.40700
O 	O 	0.91481 0.75460 0.17700 -0.38900
O 	O 	0.14213 0.96330 0.86330 -0.39800
O 	O 	0.92038 0.70150 0.22980 -0.41800
O 	O 	0.15529 0.90230 0.83350 -0.40500
O 	O 	0.13272 0.54860 0.38650 -0.39400
O 	O 	0.13400 0.59930 0.44080 -0.41800
O 	O 	0.93380 0.74560 0.09690 -0.42900
O 	O 	0.14745 0.01540 0.05710 -0.26200
O 	O 	0.93629 0.78280 0.03440 -0.47200
Cu	Cu	0.91306 0.80933 0.03400 0.92500
Cu	Cu	0.89554 0.68639 0.23610 0.93400
Cu	Cu	0.90700 0.72832 0.11606 0.91900
C 	C 	0.07028 0.37290 0.62830 0.04400
H 	H 	0.06690 0.37970 0.59800 0.01100
C 	C 	0.13477 0.09240 0.73590 0.14000
H 	H 	0.14280 0.10480 0.75750 -0.00300
C 	C 	0.06060 0.34200 0.65300 -0.16200
H 	H 	0.05120 0.32590 0.63860 0.08700
C 	C 	0.08008 0.29400 0.52970 -0.15300
H 	H 	0.07040 0.30700 0.54610 0.08300
C 	C 	0.12836 0.40830 0.43140 0.10600
H 	H 	0.13000 0.43950 0.43890 0.01100
C 	C 	0.13400 0.34570 0.38450 0.08300
H 	H 	0.14020 0.33300 0.35940 0.02000
C 	C 	0.08301 0.18990 0.58930 0.21000
C 	C 	0.14422 0.01660 0.76500 0.41300
C 	C 	0.12044 0.03330 0.70840 0.17800
H 	H 	0.11760 0.00170 0.70950 -0.01300
C 	C 	0.08364 0.25120 0.53520 0.12800
C 	C 	0.05426 0.22300 0.56180 0.16100
C 	C 	0.14463 0.42150 0.36250 0.37700
C 	C 	0.07766 0.15030 0.60190 -0.24100
H 	H 	0.06670 0.13990 0.58990 0.11400
C 	C 	0.94951 0.28590 0.68620 0.02800
H 	H 	0.94090 0.30520 0.67260 0.04100
C 	C 	0.91330 0.54860 0.31100 0.03500
C 	C 	0.96207 0.24990 0.56380 -0.16200
C 	C 	0.96984 0.22490 0.59820 0.08700
H 	H 	0.96300 0.21310 0.62250 0.01300
C 	C 	0.11283 0.15890 0.89580 0.11800
H 	H 	0.11640 0.16590 0.92580 0.00900
C 	C 	0.09895 0.20570 0.61020 -0.21200
H 	H 	0.10310 0.23570 0.60420 0.10400
C 	C 	0.12564 0.12310 0.70790 -0.22200
H 	H 	0.12810 0.15480 0.70870 0.10500
C 	C 	0.11103 0.05830 0.67980 -0.24200
H 	H 	0.10290 0.04420 0.65960 0.11400
C 	C 	0.97985 0.26580 0.70890 0.07600
C 	C 	0.12404 0.31770 0.41270 -0.14900
H 	H 	0.12280 0.28630 0.40560 0.08800
C 	C 	0.13305 0.04710 0.73490 -0.22200
C 	C 	0.10529 0.30680 0.47990 -0.06700
C 	C 	0.10189 0.18830 0.86970 -0.20200
H 	H 	0.09830 0.21690 0.88160 0.10200
C 	C 	0.09662 0.17560 0.82760 0.18100
C 	C 	0.97134 0.26640 0.52900 0.08100
H 	H 	0.96560 0.28310 0.50560 0.01800
C 	C 	0.96853 0.29780 0.68600 -0.10600
H 	H 	0.97300 0.32450 0.67180 0.06900
C 	C 	0.08532 0.20970 0.79950 -0.14100
C 	C 	0.06401 0.33330 0.69810 0.14700
C 	C 	0.10168 0.13820 0.80910 -0.22900
H 	H 	0.09850 0.13100 0.77880 0.11500
C 	C 	0.92839 0.35010 0.45260 0.06200
H 	H 	0.93480 0.32220 0.45130 0.00900
C 	C 	0.08643 0.12200 0.63090 0.11000
H 	H 	0.08120 0.09340 0.63790 -0.00800
C 	C 	0.92013 0.50940 0.33620 0.08800
C 	C 	0.92454 0.23130 0.70300 0.34500
C 	C 	0.99862 0.23510 0.56030 0.11700
C 	C 	0.90867 0.39740 0.48900 0.10700
H 	H 	0.90070 0.40280 0.51340 -0.00200
C 	C 	0.11975 0.47740 0.56900 -0.17000
C 	C 	0.95545 0.22120 0.73210 0.04300
H 	H 	0.95100 0.19740 0.75060 0.03000
C 	C 	0.94182 0.26010 0.56390 0.46200
C 	C 	0.09662 0.42430 0.61800 0.12500
C 	C 	0.13497 0.39340 0.39300 -0.17200
C 	C 	0.06496 0.27000 0.74900 0.22100
C 	C 	0.08824 0.21810 0.75490 0.14100
H 	H 	0.09780 0.20260 0.74070 -0.01800
C 	C 	0.92088 0.42330 0.41990 0.07000
C 	C 	0.99998 0.27790 0.71180 -0.04200
C 	C 	0.91038 0.42830 0.45770 -0.14200
H 	H 	0.90400 0.45600 0.46120 0.08600
C 	C 	0.11593 0.33520 0.45110 0.11000
C 	C 	0.03629 0.29390 0.71810 0.14000
C 	C 	0.93014 0.38360 0.41750 -0.11700
H 	H 	0.93780 0.37790 0.39260 0.08100
C 	C 	0.10782 0.17920 0.63760 0.09300
H 	H 	0.11860 0.19070 0.65020 -0.00400
C 	C 	0.92234 0.45180 0.38290 0.07100
C 	C 	0.08434 0.39330 0.64660 -0.07600
C 	C 	0.06195 0.26310 0.79080 -0.24800
H 	H 	0.05210 0.27890 0.80340 0.11500
C 	C 	0.07906 0.24500 0.73100 -0.25100
H 	H 	0.08190 0.24830 0.69990 0.11700
C 	C 	0.02661 0.22800 0.60080 0.04600
H 	H 	0.02030 0.22700 0.62860 0.01700
C 	C 	0.08991 0.32210 0.50030 0.02800
H 	H 	0.08590 0.35210 0.49440 0.02200
C 	C 	0.97381 0.23110 0.73090 -0.12800
H 	H 	0.98190 0.21180 0.74650 0.07300
C 	C 	0.09935 0.23070 0.51030 -0.13100
H 	H 	0.10200 0.19910 0.51180 0.07800
C 	C 	0.10897 0.25920 0.48680 0.02700
H 	H 	0.11940 0.24730 0.47280 0.02100
C 	C 	0.89530 0.55560 0.30350 -0.09700
H 	H 	0.88620 0.53650 0.31580 0.08300
C 	C 	0.02763 0.22870 0.52190 0.04600
H 	H 	0.02150 0.22830 0.49370 0.01400
C 	C 	0.11203 0.10860 0.83480 0.14200
H 	H 	0.11500 0.07950 0.82300 0.00300
C 	C 	0.07113 0.23600 0.81910 0.10900
H 	H 	0.06840 0.23440 0.85040 -0.00900
C 	C 	0.10238 0.13300 0.65040 -0.14000
C 	C 	0.01779 0.23200 0.56380 -0.08500
C 	C 	0.01150 0.24220 0.71940 0.01200
H 	H 	0.00700 0.21220 0.72250 0.02200
C 	C 	0.92440 0.58310 0.29600 -0.07700
H 	H 	0.93680 0.57670 0.29920 0.06300
C 	C 	0.11494 0.42860 0.63050 -0.17700
H 	H 	0.11970 0.41290 0.65590 0.08900
C 	C 	0.12900 0.08670 0.90160 0.38100
C 	C 	0.07802 0.35740 0.71790 -0.15500
H 	H 	0.08060 0.35300 0.74910 0.08500
C 	C 	0.89140 0.59530 0.27480 0.05400
H 	H 	0.88050 0.59470 0.25830 0.01900
C 	C 	0.11777 0.12020 0.87490 -0.19100
C 	C 	0.92080 0.62600 0.27710 0.01900
H 	H 	0.92960 0.64790 0.27000 0.04000
C 	C 	0.11311 0.10560 0.67950 0.17900
C 	C 	0.00603 0.32060 0.70410 0.00500
H 	H 	0.99800 0.34470 0.69750 0.02800
C 	C 	0.10146 0.47140 0.55650 0.08200
H 	H 	0.09680 0.48670 0.53080 0.01100
C 	C 	0.99042 0.25790 0.52790 -0.15800
H 	H 	0.99720 0.26910 0.50320 0.08400
C 	C 	0.94461 0.24600 0.70680 -0.09600
C 	C 	0.04579 0.22480 0.60140 -0.17200
H 	H 	0.05220 0.22410 0.62920 0.09000
C 	C 	0.08801 0.38650 0.69380 0.03700
H 	H 	0.09750 0.40260 0.70790 0.01500
C 	C 	0.04588 0.22610 0.52340 -0.17900
H 	H 	0.05250 0.22660 0.49600 0.09600
C 	C 	0.12963 0.50740 0.54080 0.32300
C 	C 	0.02560 0.32840 0.70630 -0.14200
H 	H 	0.03040 0.35750 0.69950 0.08200
C 	C 	0.11921 0.38130 0.46110 -0.16500
H 	H 	0.11500 0.39380 0.48870 0.09100
C 	C 	0.09055 0.44320 0.58210 -0.17800
H 	H 	0.07860 0.43780 0.57290 0.09000
C 	C 	0.12529 0.45580 0.60460 0.11000
H 	H 	0.13740 0.45930 0.61300 0.00800
C 	C 	0.02972 0.25000 0.72260 -0.14300
H 	H 	0.03760 0.22530 0.72780 0.08200
C 	C 	0.98785 0.21790 0.59580 -0.15400
H 	H 	0.99340 0.20070 0.61910 0.08300
N 	N 	0.91292 0.49230 0.37540 -0.08500
N 	N 	0.91744 0.35950 0.48770 -0.21600
N 	N 	0.93306 0.44770 0.34750 -0.08400
N 	N 	0.90007 0.51060 0.40240 -0.23200
H 	H 	0.89530 0.53700 0.39540 0.14400
H 	H 	0.89660 0.49600 0.42680 0.14000
N 	N 	0.90180 0.63270 0.26960 -0.20200
N 	N 	0.93198 0.48130 0.31840 -0.08700
N 	N 	0.07407 0.21690 0.56020 -0.19100
N 	N 	0.05481 0.30070 0.72290 -0.19500
O 	O 	0.12575 0.52680 0.50710 -0.40900
O 	O 	0.14506 0.97630 0.75500 -0.44100
O 	O 	0.15185 0.03700 0.79780 -0.40700
O 	O 	0.91481 0.25460 0.67700 -0.38900
O 	O 	0.14213 0.46330 0.36330 -0.39700
O 	O 	0.92038 0.20150 0.72980 -0.41800
O 	O 	0.15529 0.40230 0.33350 -0.40500
O 	O 	0.13272 0.04860 0.88650 -0.39400
O 	O 	0.13400 0.09930 0.94080 -0.42000
O 	O 	0.93380 0.24560 0.59690 -0.43000
O 	O 	0.14745 0.51540 0.55710 -0.26400
O 	O 	0.93629 0.28280 0.53440 -0.47400
Cu	Cu	0.91306 0.30933 0.53400 0.92400
Cu	Cu	0.89554 0.18639 0.73610 0.93400
Cu	Cu	0.90700 0.22832 0.61606 0.91900
C 	C 	0.57028 0.87290 0.62830 0.04400
H 	H 	0.56690 0.87970 0.59800 0.01000
C 	C 	0.63477 0.59240 0.73590 0.13900
H 	H 	0.64280 0.60480 0.75750 -0.00300
C 	C 	0.56060 0.84200 0.65300 -0.16200
H 	H 	0.55120 0.82590 0.63860 0.08700
C 	C 	0.58008 0.79400 0.52970 -0.15300
H 	H 	0.57040 0.80700 0.54610 0.08300
C 	C 	0.62836 0.90830 0.43140 0.10600
H 	H 	0.63000 0.93950 0.43890 0.01000
C 	C 	0.63400 0.84570 0.38450 0.08300
H 	H 	0.64020 0.83300 0.35940 0.02000
C 	C 	0.58301 0.68990 0.58930 0.21000
C 	C 	0.64422 0.51660 0.76500 0.41200
C 	C 	0.62044 0.53330 0.70840 0.17800
H 	H 	0.61760 0.50170 0.70950 -0.01300
C 	C 	0.58364 0.75120 0.53520 0.12800
C 	C 	0.55426 0.72300 0.56180 0.16100
C 	C 	0.64463 0.92150 0.36250 0.37700
C 	C 	0.57766 0.65030 0.60190 -0.24100
H 	H 	0.56670 0.63990 0.58990 0.11400
C 	C 	0.44951 0.78590 0.68620 0.02800
H 	H 	0.44090 0.80520 0.67260 0.04100
C 	C 	0.41330 0.04860 0.31100 0.03500
C 	C 	0.46207 0.74990 0.56380 -0.16200
C 	C 	0.46984 0.72490 0.59820 0.08700
H 	H 	0.46300 0.71310 0.62250 0.01300
C 	C 	0.61283 0.65890 0.89580 0.11800
H 	H 	0.61640 0.66590 0.92580 0.00900
C 	C 	0.59895 0.70570 0.61020 -0.21200
H 	H 	0.60310 0.73570 0.60420 0.10400
C 	C 	0.62564 0.62310 0.70790 -0.22200
H 	H 	0.62810 0.65480 0.70870 0.10500
C 	C 	0.61103 0.55830 0.67980 -0.24200
H 	H 	0.60290 0.54420 0.65960 0.11300
C 	C 	0.47985 0.76580 0.70890 0.07600
C 	C 	0.62404 0.81770 0.41270 -0.15000
H 	H 	0.62280 0.78630 0.40560 0.08800
C 	C 	0.63305 0.54710 0.73490 -0.22200
C 	C 	0.60529 0.80680 0.47990 -0.06700
C 	C 	0.60189 0.68830 0.86970 -0.20200
H 	H 	0.59830 0.71690 0.88160 0.10200
C 	C 	0.59662 0.67560 0.82760 0.18100
C 	C 	0.47134 0.76640 0.52900 0.08100
H 	H 	0.46560 0.78310 0.50560 0.01800
C 	C 	0.46853 0.79780 0.68600 -0.10600
H 	H 	0.47300 0.82450 0.67180 0.06900
C 	C 	0.58532 0.70970 0.79950 -0.14100
C 	C 	0.56401 0.83330 0.69810 0.14700
C 	C 	0.60168 0.63820 0.80910 -0.22900
H 	H 	0.59850 0.63100 0.77880 0.11500
C 	C 	0.42839 0.85010 0.45260 0.06200
H 	H 	0.43480 0.82220 0.45130 0.00900
C 	C 	0.58643 0.62200 0.63090 0.11000
H 	H 	0.58120 0.59340 0.63790 -0.00800
C 	C 	0.42013 0.00940 0.33620 0.08900
C 	C 	0.42454 0.73130 0.70300 0.34500
C 	C 	0.49862 0.73510 0.56030 0.11700
C 	C 	0.40867 0.89740 0.48900 0.10700
H 	H 	0.40070 0.90280 0.51340 -0.00200
C 	C 	0.61975 0.97740 0.56900 -0.17300
C 	C 	0.45545 0.72120 0.73210 0.04200
H 	H 	0.45100 0.69740 0.75060 0.03000
C 	C 	0.44182 0.76010 0.56390 0.46200
C 	C 	0.59662 0.92430 0.61800 0.12600
C 	C 	0.63497 0.89340 0.39300 -0.17300
C 	C 	0.56496 0.77000 0.74900 0.22100
C 	C 	0.58824 0.71810 0.75490 0.14100
H 	H 	0.59780 0.70260 0.74070 -0.01800
C 	C 	0.42088 0.92330 0.41990 0.06900
C 	C 	0.49998 0.77790 0.71180 -0.04200
C 	C 	0.41038 0.92830 0.45770 -0.14200
H 	H 	0.40400 0.95600 0.46120 0.08500
C 	C 	0.61593 0.83520 0.45110 0.11000
C 	C 	0.53629 0.79390 0.71810 0.14000
C 	C 	0.43014 0.88360 0.41750 -0.11700
H 	H 	0.43780 0.87790 0.39260 0.08000
C 	C 	0.60782 0.67920 0.63760 0.09300
H 	H 	0.61860 0.69070 0.65020 -0.00400
C 	C 	0.42234 0.95180 0.38290 0.07000
C 	C 	0.58434 0.89330 0.64660 -0.07700
C 	C 	0.56195 0.76310 0.79080 -0.24800
H 	H 	0.55210 0.77890 0.80340 0.11500
C 	C 	0.57906 0.74500 0.73100 -0.25100
H 	H 	0.58190 0.74830 0.69990 0.11700
C 	C 	0.52661 0.72800 0.60080 0.04600
H 	H 	0.52030 0.72700 0.62860 0.01700
C 	C 	0.58991 0.82210 0.50030 0.02800
H 	H 	0.58590 0.85210 0.49440 0.02200
C 	C 	0.47381 0.73110 0.73090 -0.12800
H 	H 	0.48190 0.71180 0.74650 0.07300
C 	C 	0.59935 0.73070 0.51030 -0.13200
H 	H 	0.60200 0.69910 0.51180 0.07800
C 	C 	0.60897 0.75920 0.48680 0.02700
H 	H 	0.61940 0.74730 0.47280 0.02100
C 	C 	0.39530 0.05560 0.30350 -0.09600
H 	H 	0.38620 0.03650 0.31580 0.08300
C 	C 	0.52763 0.72870 0.52190 0.04600
H 	H 	0.52150 0.72830 0.49370 0.01400
C 	C 	0.61203 0.60860 0.83480 0.14200
H 	H 	0.61500 0.57950 0.82300 0.00300
C 	C 	0.57113 0.73600 0.81910 0.10900
H 	H 	0.56840 0.73440 0.85040 -0.00900
C 	C 	0.60238 0.63300 0.65040 -0.14000
C 	C 	0.51779 0.73200 0.56380 -0.08500
C 	C 	0.51150 0.74220 0.71940 0.01200
H 	H 	0.50700 0.71220 0.72250 0.02200
C 	C 	0.42440 0.08310 0.29600 -0.07600
H 	H 	0.43680 0.07670 0.29920 0.06300
C 	C 	0.61494 0.92860 0.63050 -0.17800
H 	H 	0.61970 0.91290 0.65590 0.08900
C 	C 	0.62900 0.58670 0.90160 0.38100
C 	C 	0.57802 0.85740 0.71790 -0.15500
H 	H 	0.58060 0.85300 0.74910 0.08500
C 	C 	0.39140 0.09530 0.27480 0.05400
H 	H 	0.38050 0.09470 0.25830 0.01900
C 	C 	0.61777 0.62020 0.87490 -0.19100
C 	C 	0.42080 0.12600 0.27710 0.01900
H 	H 	0.42960 0.14790 0.27000 0.04100
C 	C 	0.61311 0.60560 0.67950 0.17900
C 	C 	0.50603 0.82060 0.70410 0.00500
H 	H 	0.49800 0.84470 0.69750 0.02800
C 	C 	0.60146 0.97140 0.55650 0.08400
H 	H 	0.59680 0.98670 0.53080 0.01000
C 	C 	0.49042 0.75790 0.52790 -0.15800
H 	H 	0.49720 0.76910 0.50320 0.08400
C 	C 	0.44461 0.74600 0.70680 -0.09600
C 	C 	0.54579 0.72480 0.60140 -0.17200
H 	H 	0.55220 0.72410 0.62920 0.09000
C 	C 	0.58801 0.88650 0.69380 0.03700
H 	H 	0.59750 0.90260 0.70790 0.01500
C 	C 	0.54588 0.72610 0.52340 -0.17900
H 	H 	0.55250 0.72660 0.49600 0.09600
C 	C 	0.62963 0.00740 0.54080 0.32500
C 	C 	0.52560 0.82840 0.70630 -0.14200
H 	H 	0.53040 0.85750 0.69950 0.08200
C 	C 	0.61921 0.88130 0.46110 -0.16500
H 	H 	0.61500 0.89380 0.48870 0.09100
C 	C 	0.59055 0.94320 0.58210 -0.17900
H 	H 	0.57860 0.93780 0.57290 0.09000
C 	C 	0.62529 0.95580 0.60460 0.11200
H 	H 	0.63740 0.95930 0.61300 0.00700
C 	C 	0.52972 0.75000 0.72260 -0.14300
H 	H 	0.53760 0.72530 0.72780 0.08200
C 	C 	0.48785 0.71790 0.59580 -0.15400
H 	H 	0.49340 0.70070 0.61910 0.08200
N 	N 	0.41292 0.99230 0.37540 -0.08600
N 	N 	0.41744 0.85950 0.48770 -0.21600
N 	N 	0.43306 0.94770 0.34750 -0.08400
N 	N 	0.40007 0.01060 0.40240 -0.23000
H 	H 	0.39530 0.03700 0.39540 0.14400
H 	H 	0.39660 0.99600 0.42680 0.13900
N 	N 	0.40180 0.13270 0.26960 -0.20200
N 	N 	0.43198 0.98130 0.31840 -0.08700
N 	N 	0.57407 0.71690 0.56020 -0.19100
N 	N 	0.55481 0.80070 0.72290 -0.19500
O 	O 	0.62575 0.02680 0.50710 -0.40900
O 	O 	0.64506 0.47630 0.75500 -0.44000
O 	O 	0.65185 0.53700 0.79780 -0.40700
O 	O 	0.41481 0.75460 0.67700 -0.38900
O 	O 	0.64213 0.96330 0.36330 -0.39800
O 	O 	0.42038 0.70150 0.72980 -0.41800
O 	O 	0.65529 0.90230 0.33350 -0.40500
O 	O 	0.63272 0.54860 0.88650 -0.39400
O 	O 	0.63400 0.59930 0.94080 -0.42000
O 	O 	0.43380 0.74560 0.59690 -0.43000
O 	O 	0.64745 0.01540 0.55710 -0.26400
O 	O 	0.43629 0.78280 0.53440 -0.47300
Cu	Cu	0.41305 0.80933 0.53400 0.92400
Cu	Cu	0.39554 0.68639 0.73610 0.93400
Cu	Cu	0.40700 0.72832 0.61606 0.91900
C 	C 	0.57028 0.37290 0.12830 0.04300
H 	H 	0.56690 0.37970 0.09800 0.01100
C 	C 	0.63477 0.09240 0.23590 0.14000
H 	H 	0.64280 0.10480 0.25750 -0.00300
C 	C 	0.56060 0.34200 0.15300 -0.16200
H 	H 	0.55120 0.32590 0.13860 0.08700
C 	C 	0.58008 0.29400 0.02970 -0.16400
H 	H 	0.57040 0.30700 0.04610 0.08800
C 	C 	0.62836 0.40830 0.93140 0.10900
H 	H 	0.63000 0.43950 0.93890 0.00900
C 	C 	0.63400 0.34570 0.88450 0.08500
H 	H 	0.64020 0.33300 0.85940 0.01900
C 	C 	0.58301 0.18990 0.08930 0.21000
C 	C 	0.64422 0.01660 0.26500 0.41300
C 	C 	0.62044 0.03330 0.20840 0.17800
H 	H 	0.61760 0.00170 0.20950 -0.01300
C 	C 	0.58364 0.25120 0.03520 0.13300
C 	C 	0.55426 0.22300 0.06180 0.15900
C 	C 	0.64463 0.42150 0.86250 0.37800
C 	C 	0.57766 0.15030 0.10190 -0.24100
H 	H 	0.56670 0.13990 0.08990 0.11500
C 	C 	0.44951 0.28590 0.18620 0.02900
H 	H 	0.44090 0.30520 0.17260 0.04100
C 	C 	0.41330 0.54860 0.81100 0.03500
C 	C 	0.46207 0.24990 0.06380 -0.16100
C 	C 	0.46984 0.22490 0.09820 0.08700
H 	H 	0.46300 0.21310 0.12250 0.01300
C 	C 	0.61283 0.15890 0.39580 0.11700
H 	H 	0.61640 0.16590 0.42580 0.01000
C 	C 	0.59895 0.20570 0.11020 -0.21300
H 	H 	0.60310 0.23570 0.10420 0.10400
C 	C 	0.62564 0.12310 0.20790 -0.22200
H 	H 	0.62810 0.15480 0.20870 0.10500
C 	C 	0.61103 0.05830 0.17980 -0.24200
H 	H 	0.60290 0.04420 0.15960 0.11400
C 	C 	0.47985 0.26580 0.20890 0.07600
C 	C 	0.62404 0.31770 0.91270 -0.15400
H 	H 	0.62280 0.28630 0.90560 0.09000
C 	C 	0.63305 0.04710 0.23490 -0.22200
C 	C 	0.60529 0.30680 0.97990 -0.08100
C 	C 	0.60189 0.18830 0.36970 -0.20100
H 	H 	0.59830 0.21690 0.38160 0.10200
C 	C 	0.59662 0.17560 0.32760 0.18000
C 	C 	0.47134 0.26640 0.02900 0.08200
H 	H 	0.46560 0.28310 0.00560 0.01900
C 	C 	0.46853 0.29780 0.18600 -0.10600
H 	H 	0.47300 0.32450 0.17180 0.06900
C 	C 	0.58532 0.20970 0.29950 -0.14100
C 	C 	0.56401 0.33330 0.19810 0.14700
C 	C 	0.60168 0.13820 0.30910 -0.22800
H 	H 	0.59850 0.13100 0.27880 0.11500
C 	C 	0.42839 0.35010 0.95260 0.05900
H 	H 	0.43480 0.32220 0.95130 0.00800
C 	C 	0.58643 0.12200 0.13090 0.11000
H 	H 	0.58120 0.09340 0.13790 -0.00800
C 	C 	0.42013 0.50940 0.83620 0.08800
C 	C 	0.42454 0.23130 0.20300 0.34500
C 	C 	0.49862 0.23510 0.06030 0.11900
C 	C 	0.40867 0.39740 0.98900 0.09000
H 	H 	0.40070 0.40280 0.01340 0.00700
C 	C 	0.61975 0.47740 0.06900 -0.16800
C 	C 	0.45545 0.22120 0.23210 0.04300
H 	H 	0.45100 0.19740 0.25060 0.03000
C 	C 	0.44182 0.26010 0.06390 0.46200
C 	C 	0.59662 0.42430 0.11800 0.12500
C 	C 	0.63497 0.39340 0.89300 -0.17500
C 	C 	0.56496 0.27000 0.24900 0.22100
C 	C 	0.58824 0.21810 0.25490 0.14000
H 	H 	0.59780 0.20260 0.24070 -0.01800
C 	C 	0.42088 0.42330 0.91990 0.06400
C 	C 	0.49998 0.27790 0.21180 -0.04200
C 	C 	0.41038 0.42830 0.95770 -0.13100
H 	H 	0.40400 0.45600 0.96120 0.08000
C 	C 	0.61593 0.33520 0.95110 0.11700
C 	C 	0.53629 0.29390 0.21810 0.14000
C 	C 	0.43014 0.38360 0.91750 -0.11400
H 	H 	0.43780 0.37790 0.89260 0.07900
C 	C 	0.60782 0.17920 0.13760 0.09300
H 	H 	0.61860 0.19070 0.15020 -0.00400
C 	C 	0.42234 0.45180 0.88290 0.07200
C 	C 	0.58434 0.39330 0.14660 -0.07600
C 	C 	0.56195 0.26310 0.29080 -0.24800
H 	H 	0.55210 0.27890 0.30340 0.11600
C 	C 	0.57906 0.24500 0.23100 -0.25100
H 	H 	0.58190 0.24830 0.19990 0.11700
C 	C 	0.52661 0.22800 0.10080 0.04700
H 	H 	0.52030 0.22700 0.12860 0.01700
C 	C 	0.58991 0.32210 0.00030 0.05300
H 	H 	0.58590 0.35210 0.99440 0.01000
C 	C 	0.47381 0.23110 0.23090 -0.12800
H 	H 	0.48190 0.21180 0.24650 0.07300
C 	C 	0.59935 0.23070 0.01030 -0.12700
H 	H 	0.60200 0.19910 0.01180 0.07800
C 	C 	0.60897 0.25920 0.98680 0.02400
H 	H 	0.61940 0.24730 0.97280 0.02100
C 	C 	0.39530 0.55560 0.80350 -0.09700
H 	H 	0.38620 0.53650 0.81580 0.08300
C 	C 	0.52763 0.22870 0.02190 0.05300
H 	H 	0.52150 0.22830 0.99370 0.00700
C 	C 	0.61203 0.10860 0.33480 0.14100
H 	H 	0.61500 0.07950 0.32300 0.00300
C 	C 	0.57113 0.23600 0.31910 0.10800
H 	H 	0.56840 0.23440 0.35040 -0.00800
C 	C 	0.60238 0.13300 0.15040 -0.14000
C 	C 	0.51779 0.23200 0.06380 -0.08800
C 	C 	0.51150 0.24220 0.21940 0.01200
H 	H 	0.50700 0.21220 0.22250 0.02300
C 	C 	0.42440 0.58310 0.79600 -0.07700
H 	H 	0.43680 0.57670 0.79920 0.06300
C 	C 	0.61494 0.42860 0.13050 -0.17500
H 	H 	0.61970 0.41290 0.15590 0.08900
C 	C 	0.62900 0.08670 0.40160 0.38100
C 	C 	0.57802 0.35740 0.21790 -0.15400
H 	H 	0.58060 0.35300 0.24910 0.08500
C 	C 	0.39140 0.59530 0.77480 0.05400
H 	H 	0.38050 0.59470 0.75830 0.01900
C 	C 	0.61777 0.12020 0.37490 -0.19000
C 	C 	0.42080 0.62600 0.77710 0.01800
H 	H 	0.42960 0.64790 0.77000 0.04000
C 	C 	0.61311 0.10560 0.17950 0.18000
C 	C 	0.50603 0.32060 0.20410 0.00500
H 	H 	0.49800 0.34470 0.19750 0.02900
C 	C 	0.60146 0.47140 0.05650 0.08200
H 	H 	0.59680 0.48670 0.03080 0.01300
C 	C 	0.49042 0.25790 0.02790 -0.15900
H 	H 	0.49720 0.26910 0.00320 0.08600
C 	C 	0.44461 0.24600 0.20680 -0.09600
C 	C 	0.54579 0.22480 0.10140 -0.17100
H 	H 	0.55220 0.22410 0.12920 0.09000
C 	C 	0.58801 0.38650 0.19380 0.03700
H 	H 	0.59750 0.40260 0.20790 0.01600
C 	C 	0.54588 0.22610 0.02340 -0.17100
H 	H 	0.55250 0.22660 0.99600 0.08900
C 	C 	0.62963 0.50740 0.04080 0.32300
C 	C 	0.52560 0.32840 0.20630 -0.14100
H 	H 	0.53040 0.35750 0.19950 0.08200
C 	C 	0.61921 0.38130 0.96110 -0.17000
H 	H 	0.61500 0.39380 0.98870 0.09100
C 	C 	0.59055 0.44320 0.08210 -0.17600
H 	H 	0.57860 0.43780 0.07290 0.09000
C 	C 	0.62529 0.45580 0.10460 0.10900
H 	H 	0.63740 0.45930 0.11300 0.00900
C 	C 	0.52972 0.25000 0.22260 -0.14300
H 	H 	0.53760 0.22530 0.22780 0.08200
C 	C 	0.48785 0.21790 0.09580 -0.15500
H 	H 	0.49340 0.20070 0.11910 0.08300
N 	N 	0.41292 0.49230 0.87540 -0.08600
N 	N 	0.41744 0.35950 0.98770 -0.21500
N 	N 	0.43306 0.44770 0.84750 -0.08400
N 	N 	0.40007 0.51060 0.90240 -0.23200
H 	H 	0.39530 0.53700 0.89540 0.14400
H 	H 	0.39660 0.49600 0.92680 0.13900
N 	N 	0.40180 0.63270 0.76960 -0.20200
N 	N 	0.43198 0.48130 0.81840 -0.08700
N 	N 	0.57407 0.21690 0.06020 -0.19100
N 	N 	0.55481 0.30070 0.22290 -0.19500
O 	O 	0.62575 0.52680 0.00710 -0.40500
O 	O 	0.64506 0.97630 0.25500 -0.44100
O 	O 	0.65185 0.03700 0.29780 -0.40700
O 	O 	0.41481 0.25460 0.17700 -0.38900
O 	O 	0.64213 0.46330 0.86330 -0.39800
O 	O 	0.42038 0.20150 0.22980 -0.41800
O 	O 	0.65529 0.40230 0.83350 -0.40500
O 	O 	0.63272 0.04860 0.38650 -0.39400
O 	O 	0.63400 0.09930 0.44080 -0.41800
O 	O 	0.43380 0.24560 0.09690 -0.42900
O 	O 	0.64745 0.51540 0.05710 -0.26200
O 	O 	0.43629 0.28280 0.03440 -0.47200
Cu	Cu	0.41305 0.30933 0.03400 0.92500
Cu	Cu	0.39554 0.18639 0.23610 0.93400
Cu	Cu	0.40700 0.22832 0.11606 0.91900
C 	C 	0.32028 0.37710 0.37830 0.04400
H 	H 	0.31690 0.37030 0.34800 0.01100
C 	C 	0.38477 0.65760 0.48590 0.13900
H 	H 	0.39280 0.64520 0.50750 -0.00300
C 	C 	0.31060 0.40800 0.40300 -0.16200
H 	H 	0.30120 0.42410 0.38860 0.08700
C 	C 	0.33008 0.45600 0.27970 -0.15300
H 	H 	0.32040 0.44300 0.29610 0.08300
C 	C 	0.37836 0.34170 0.18140 0.10600
H 	H 	0.38000 0.31050 0.18890 0.01100
C 	C 	0.38400 0.40430 0.13450 0.08300
H 	H 	0.39020 0.41700 0.10940 0.02000
C 	C 	0.33301 0.56010 0.33930 0.21000
C 	C 	0.39422 0.73340 0.51500 0.41200
C 	C 	0.37044 0.71670 0.45840 0.17800
H 	H 	0.36760 0.74830 0.45950 -0.01300
C 	C 	0.33364 0.49880 0.28520 0.12900
C 	C 	0.30426 0.52700 0.31180 0.16100
C 	C 	0.39463 0.32850 0.11250 0.37700
C 	C 	0.32766 0.59970 0.35190 -0.24100
H 	H 	0.31670 0.61010 0.33990 0.11400
C 	C 	0.19951 0.46410 0.43620 0.02800
H 	H 	0.19090 0.44480 0.42260 0.04100
C 	C 	0.16330 0.20140 0.06100 0.03600
C 	C 	0.21207 0.50010 0.31380 -0.16200
C 	C 	0.21984 0.52510 0.34820 0.08700
H 	H 	0.21300 0.53690 0.37250 0.01300
C 	C 	0.36283 0.59110 0.64580 0.11800
H 	H 	0.36640 0.58410 0.67580 0.01000
C 	C 	0.34895 0.54430 0.36020 -0.21200
H 	H 	0.35310 0.51430 0.35420 0.10400
C 	C 	0.37564 0.62690 0.45790 -0.22200
H 	H 	0.37810 0.59520 0.45870 0.10500
C 	C 	0.36103 0.69170 0.42980 -0.24200
H 	H 	0.35290 0.70580 0.40960 0.11400
C 	C 	0.22985 0.48420 0.45890 0.07600
C 	C 	0.37404 0.43230 0.16270 -0.14900
H 	H 	0.37280 0.46370 0.15560 0.08800
C 	C 	0.38305 0.70290 0.48490 -0.22200
C 	C 	0.35529 0.44320 0.22990 -0.06700
C 	C 	0.35189 0.56170 0.61970 -0.20100
H 	H 	0.34830 0.53310 0.63160 0.10200
C 	C 	0.34662 0.57440 0.57760 0.18000
C 	C 	0.22134 0.48360 0.27900 0.08100
H 	H 	0.21560 0.46690 0.25560 0.01800
C 	C 	0.21853 0.45220 0.43600 -0.10600
H 	H 	0.22300 0.42550 0.42180 0.06900
C 	C 	0.33532 0.54030 0.54950 -0.14100
C 	C 	0.31401 0.41670 0.44810 0.14700
C 	C 	0.35168 0.61180 0.55910 -0.22800
H 	H 	0.34850 0.61900 0.52880 0.11500
C 	C 	0.17839 0.39990 0.20260 0.06200
H 	H 	0.18480 0.42780 0.20130 0.00900
C 	C 	0.33643 0.62800 0.38090 0.11000
H 	H 	0.33120 0.65660 0.38790 -0.00800
C 	C 	0.17013 0.24060 0.08620 0.08800
C 	C 	0.17454 0.51870 0.45300 0.34500
C 	C 	0.24862 0.51490 0.31030 0.11700
C 	C 	0.15867 0.35260 0.23900 0.10700
H 	H 	0.15070 0.34720 0.26340 -0.00200
C 	C 	0.36975 0.27260 0.31900 -0.17000
C 	C 	0.20545 0.52880 0.48210 0.04300
H 	H 	0.20100 0.55260 0.50060 0.03000
C 	C 	0.19182 0.48990 0.31390 0.46200
C 	C 	0.34662 0.32570 0.36800 0.12500
C 	C 	0.38497 0.35660 0.14300 -0.17200
C 	C 	0.31496 0.48000 0.49900 0.22100
C 	C 	0.33824 0.53190 0.50490 0.14000
H 	H 	0.34780 0.54740 0.49070 -0.01800
C 	C 	0.17088 0.32670 0.16990 0.07000
C 	C 	0.24998 0.47210 0.46180 -0.04200
C 	C 	0.16038 0.32170 0.20770 -0.14200
H 	H 	0.15400 0.29400 0.21120 0.08600
C 	C 	0.36593 0.41480 0.20110 0.11000
C 	C 	0.28629 0.45610 0.46810 0.14000
C 	C 	0.18014 0.36640 0.16750 -0.11700
H 	H 	0.18780 0.37210 0.14260 0.08100
C 	C 	0.35782 0.57080 0.38760 0.09300
H 	H 	0.36860 0.55930 0.40020 -0.00400
C 	C 	0.17234 0.29820 0.13290 0.07100
C 	C 	0.33434 0.35670 0.39660 -0.07600
C 	C 	0.31195 0.48690 0.54080 -0.24800
H 	H 	0.30210 0.47110 0.55340 0.11600
C 	C 	0.32906 0.50500 0.48100 -0.25100
H 	H 	0.33190 0.50170 0.44990 0.11700
C 	C 	0.27661 0.52200 0.35080 0.04600
H 	H 	0.27030 0.52300 0.37860 0.01700
C 	C 	0.33991 0.42790 0.25030 0.02800
H 	H 	0.33590 0.39790 0.24440 0.02200
C 	C 	0.22381 0.51890 0.48090 -0.12800
H 	H 	0.23190 0.53820 0.49650 0.07300
C 	C 	0.34935 0.51930 0.26030 -0.13100
H 	H 	0.35200 0.55090 0.26180 0.07800
C 	C 	0.35897 0.49080 0.23680 0.02700
H 	H 	0.36940 0.50270 0.22280 0.02100
C 	C 	0.14530 0.19440 0.05350 -0.09600
H 	H 	0.13620 0.21350 0.06580 0.08300
C 	C 	0.27763 0.52130 0.27190 0.04600
H 	H 	0.27150 0.52170 0.24370 0.01400
C 	C 	0.36203 0.64140 0.58480 0.14100
H 	H 	0.36500 0.67050 0.57300 0.00300
C 	C 	0.32113 0.51400 0.56910 0.10800
H 	H 	0.31840 0.51560 0.60040 -0.00800
C 	C 	0.35238 0.61700 0.40040 -0.14000
C 	C 	0.26779 0.51800 0.31380 -0.08500
C 	C 	0.26150 0.50780 0.46940 0.01200
H 	H 	0.25700 0.53780 0.47250 0.02300
C 	C 	0.17440 0.16690 0.04600 -0.07700
H 	H 	0.18680 0.17330 0.04920 0.06400
C 	C 	0.36494 0.32140 0.38050 -0.17700
H 	H 	0.36970 0.33710 0.40590 0.08900
C 	C 	0.37900 0.66330 0.65160 0.38100
C 	C 	0.32802 0.39260 0.46790 -0.15500
H 	H 	0.33060 0.39700 0.49910 0.08500
C 	C 	0.14140 0.15470 0.02480 0.05400
H 	H 	0.13050 0.15530 0.00830 0.02100
C 	C 	0.36777 0.62980 0.62490 -0.19000
C 	C 	0.17080 0.12400 0.02710 0.02000
H 	H 	0.17960 0.10210 0.02000 0.04100
C 	C 	0.36311 0.64440 0.42950 0.17900
C 	C 	0.25603 0.42940 0.45410 0.00500
H 	H 	0.24800 0.40530 0.44750 0.02900
C 	C 	0.35146 0.27860 0.30650 0.08200
H 	H 	0.34680 0.26330 0.28080 0.01100
C 	C 	0.24042 0.49210 0.27790 -0.15800
H 	H 	0.24720 0.48090 0.25320 0.08400
C 	C 	0.19461 0.50400 0.45680 -0.09600
C 	C 	0.29579 0.52520 0.35140 -0.17200
H 	H 	0.30220 0.52590 0.37920 0.09000
C 	C 	0.33801 0.36350 0.44380 0.03700
H 	H 	0.34750 0.34740 0.45790 0.01600
C 	C 	0.29588 0.52390 0.27340 -0.17900
H 	H 	0.30250 0.52340 0.24600 0.09700
C 	C 	0.37963 0.24260 0.29080 0.32300
C 	C 	0.27560 0.42160 0.45630 -0.14100
H 	H 	0.28040 0.39250 0.44950 0.08200
C 	C 	0.36921 0.36870 0.21110 -0.16500
H 	H 	0.36500 0.35620 0.23870 0.09100
C 	C 	0.34055 0.30680 0.33210 -0.17800
H 	H 	0.32860 0.31220 0.32290 0.09000
C 	C 	0.37529 0.29420 0.35460 0.11000
H 	H 	0.38740 0.29070 0.36300 0.00800
C 	C 	0.27972 0.50000 0.47260 -0.14300
H 	H 	0.28760 0.52470 0.47780 0.08200
C 	C 	0.23785 0.53210 0.34580 -0.15400
H 	H 	0.24340 0.54930 0.36910 0.08300
N 	N 	0.16292 0.25770 0.12540 -0.08500
N 	N 	0.16744 0.39050 0.23770 -0.21600
N 	N 	0.18306 0.30230 0.09750 -0.08300
N 	N 	0.15007 0.23940 0.15240 -0.23200
H 	H 	0.14530 0.21300 0.14540 0.14400
H 	H 	0.14660 0.25400 0.17680 0.14000
N 	N 	0.15180 0.11730 0.01960 -0.20000
N 	N 	0.18198 0.26870 0.06840 -0.08600
N 	N 	0.32407 0.53310 0.31020 -0.19000
N 	N 	0.30481 0.44930 0.47290 -0.19500
O 	O 	0.37575 0.22320 0.25710 -0.40900
O 	O 	0.39506 0.77370 0.50500 -0.44000
O 	O 	0.40185 0.71300 0.54780 -0.40700
O 	O 	0.16481 0.49540 0.42700 -0.38900
O 	O 	0.39213 0.28670 0.11330 -0.39700
O 	O 	0.17038 0.54850 0.47980 -0.41800
O 	O 	0.40529 0.34770 0.08350 -0.40400
O 	O 	0.38272 0.70140 0.63650 -0.39400
O 	O 	0.38400 0.65070 0.69080 -0.41800
O 	O 	0.18380 0.50440 0.34690 -0.43000
O 	O 	0.39745 0.23460 0.30710 -0.26400
O 	O 	0.18629 0.46720 0.28440 -0.47300
Cu	Cu	0.16305 0.44067 0.28400 0.92400
Cu	Cu	0.14554 0.56361 0.48610 0.93400
Cu	Cu	0.15700 0.52168 0.36606 0.91900
C 	C 	0.32028 0.87710 0.87830 0.04300
H 	H 	0.31690 0.87030 0.84800 0.01100
C 	C 	0.38477 0.15760 0.98590 0.12700
H 	H 	0.39280 0.14520 0.00750 0.00500
C 	C 	0.31060 0.90800 0.90300 -0.16200
H 	H 	0.30120 0.92410 0.88860 0.08700
C 	C 	0.33008 0.95600 0.77970 -0.14900
H 	H 	0.32040 0.94300 0.79610 0.08200
C 	C 	0.37836 0.84170 0.68140 0.10500
H 	H 	0.38000 0.81050 0.68890 0.01100
C 	C 	0.38400 0.90430 0.63450 0.08200
H 	H 	0.39020 0.91700 0.60940 0.02000
C 	C 	0.33301 0.06010 0.83930 0.20900
C 	C 	0.39422 0.23340 0.01500 0.41500
C 	C 	0.37044 0.21670 0.95840 0.17700
H 	H 	0.36760 0.24830 0.95950 -0.01400
C 	C 	0.33364 0.99880 0.78520 0.12400
C 	C 	0.30426 0.02700 0.81180 0.16100
C 	C 	0.39463 0.82850 0.61250 0.37700
C 	C 	0.32766 0.09970 0.85190 -0.24000
H 	H 	0.31670 0.11010 0.83990 0.11400
C 	C 	0.19951 0.96410 0.93620 0.01900
H 	H 	0.19090 0.94480 0.92260 0.04300
C 	C 	0.16330 0.70140 0.56100 0.03500
C 	C 	0.21207 0.00010 0.81380 -0.15900
C 	C 	0.21984 0.02510 0.84820 0.08500
H 	H 	0.21300 0.03690 0.87250 0.01400
C 	C 	0.36283 0.09110 0.14580 0.12500
H 	H 	0.36640 0.08410 0.17580 0.00800
C 	C 	0.34895 0.04430 0.86020 -0.21200
H 	H 	0.35310 0.01430 0.85420 0.10300
C 	C 	0.37564 0.12690 0.95790 -0.21600
H 	H 	0.37810 0.09520 0.95870 0.10200
C 	C 	0.36103 0.19170 0.92980 -0.24000
H 	H 	0.35290 0.20580 0.90960 0.11200
C 	C 	0.22985 0.98420 0.95890 0.06700
C 	C 	0.37404 0.93230 0.66270 -0.14800
H 	H 	0.37280 0.96370 0.65560 0.08700
C 	C 	0.38305 0.20290 0.98490 -0.22300
C 	C 	0.35529 0.94320 0.72990 -0.06400
C 	C 	0.35189 0.06170 0.11970 -0.21000
H 	H 	0.34830 0.03310 0.13160 0.10600
C 	C 	0.34662 0.07440 0.07760 0.19400
C 	C 	0.22134 0.98360 0.77900 0.07900
H 	H 	0.21560 0.96690 0.75560 0.01800
C 	C 	0.21853 0.95220 0.93600 -0.09900
H 	H 	0.22300 0.92550 0.92180 0.06600
C 	C 	0.33532 0.04030 0.04950 -0.16100
C 	C 	0.31401 0.91670 0.94810 0.14700
C 	C 	0.35168 0.11180 0.05910 -0.23900
H 	H 	0.34850 0.11900 0.02880 0.12100
C 	C 	0.17839 0.89990 0.70260 0.06200
H 	H 	0.18480 0.92780 0.70130 0.00900
C 	C 	0.33643 0.12800 0.88090 0.10800
H 	H 	0.33120 0.15660 0.88790 -0.00800
C 	C 	0.17013 0.74060 0.58620 0.08800
C 	C 	0.17454 0.01870 0.95300 0.34300
C 	C 	0.24862 0.01490 0.81030 0.11700
C 	C 	0.15867 0.85260 0.73900 0.10700
H 	H 	0.15070 0.84720 0.76340 -0.00200
C 	C 	0.36975 0.77260 0.81900 -0.17000
C 	C 	0.20545 0.02880 0.98210 0.02200
H 	H 	0.20100 0.05260 0.00060 0.04200
C 	C 	0.19182 0.98990 0.81390 0.45900
C 	C 	0.34662 0.82570 0.86800 0.12500
C 	C 	0.38497 0.85660 0.64300 -0.17200
C 	C 	0.31496 0.98000 0.99900 0.22900
C 	C 	0.33824 0.03190 0.00490 0.18300
H 	H 	0.34780 0.04740 0.99070 -0.03600
C 	C 	0.17088 0.82670 0.66990 0.07000
C 	C 	0.24998 0.97210 0.96180 -0.03900
C 	C 	0.16038 0.82170 0.70770 -0.14200
H 	H 	0.15400 0.79400 0.71120 0.08600
C 	C 	0.36593 0.91480 0.70110 0.10800
C 	C 	0.28629 0.95610 0.96810 0.13700
C 	C 	0.18014 0.86640 0.66750 -0.11700
H 	H 	0.18780 0.87210 0.64260 0.08100
C 	C 	0.35782 0.07080 0.88760 0.09200
H 	H 	0.36860 0.05930 0.90020 -0.00400
C 	C 	0.17234 0.79820 0.63290 0.07100
C 	C 	0.33434 0.85670 0.89660 -0.07600
C 	C 	0.31195 0.98690 0.04080 -0.25500
H 	H 	0.30210 0.97110 0.05340 0.11900
C 	C 	0.32906 0.00500 0.98100 -0.28400
H 	H 	0.33190 0.00170 0.94990 0.12800
C 	C 	0.27661 0.02200 0.85080 0.04600
H 	H 	0.27030 0.02300 0.87860 0.01700
C 	C 	0.33991 0.92790 0.75030 0.02500
H 	H 	0.33590 0.89790 0.74440 0.02300
C 	C 	0.22381 0.01890 0.98090 -0.11400
H 	H 	0.23190 0.03820 0.99650 0.06700
C 	C 	0.34935 0.01930 0.76030 -0.12500
H 	H 	0.35200 0.05090 0.76180 0.07600
C 	C 	0.35897 0.99080 0.73680 0.02000
H 	H 	0.36940 0.00270 0.72280 0.02400
C 	C 	0.14530 0.69440 0.55350 -0.09700
H 	H 	0.13620 0.71350 0.56580 0.08300
C 	C 	0.27763 0.02130 0.77190 0.04600
H 	H 	0.27150 0.02170 0.74370 0.01400
C 	C 	0.36203 0.14140 0.08480 0.15000
H 	H 	0.36500 0.17050 0.07300 0.00100
C 	C 	0.32113 0.01400 0.06910 0.12300
H 	H 	0.31840 0.01560 0.10040 -0.01200
C 	C 	0.35238 0.11700 0.90040 -0.13800
C 	C 	0.26779 0.01800 0.81380 -0.08500
C 	C 	0.26150 0.00780 0.96940 0.01000
H 	H 	0.25700 0.03780 0.97250 0.02300
C 	C 	0.17440 0.66690 0.54600 -0.07700
H 	H 	0.18680 0.67330 0.54920 0.06300
C 	C 	0.36494 0.82140 0.88050 -0.17700
H 	H 	0.36970 0.83710 0.90590 0.08800
C 	C 	0.37900 0.16330 0.15160 0.38300
C 	C 	0.32802 0.89260 0.96790 -0.15500
H 	H 	0.33060 0.89700 0.99910 0.08400
C 	C 	0.14140 0.65470 0.52480 0.05400
H 	H 	0.13050 0.65530 0.50830 0.01900
C 	C 	0.36777 0.12980 0.12490 -0.19600
C 	C 	0.17080 0.62400 0.52710 0.01900
H 	H 	0.17960 0.60210 0.52000 0.04000
C 	C 	0.36311 0.14440 0.92950 0.17500
C 	C 	0.25603 0.92940 0.95410 0.00200
H 	H 	0.24800 0.90530 0.94750 0.02900
C 	C 	0.35146 0.77860 0.80650 0.08200
H 	H 	0.34680 0.76330 0.78080 0.01100
C 	C 	0.24042 0.99210 0.77790 -0.15800
H 	H 	0.24720 0.98090 0.75320 0.08400
C 	C 	0.19461 0.00400 0.95680 -0.08500
C 	C 	0.29579 0.02520 0.85140 -0.17200
H 	H 	0.30220 0.02590 0.87920 0.09000
C 	C 	0.33801 0.86350 0.94380 0.03700
H 	H 	0.34750 0.84740 0.95790 0.01500
C 	C 	0.29588 0.02390 0.77340 -0.17800
H 	H 	0.30250 0.02340 0.74600 0.09600
C 	C 	0.37963 0.74260 0.79080 0.32300
C 	C 	0.27560 0.92160 0.95630 -0.14000
H 	H 	0.28040 0.89250 0.94950 0.08100
C 	C 	0.36921 0.86870 0.71110 -0.16400
H 	H 	0.36500 0.85620 0.73870 0.09000
C 	C 	0.34055 0.80680 0.83210 -0.17800
H 	H 	0.32860 0.81220 0.82290 0.09000
C 	C 	0.37529 0.79420 0.85460 0.11000
H 	H 	0.38740 0.79070 0.86300 0.00800
C 	C 	0.27972 -0.00000 0.97260 -0.14100
H 	H 	0.28760 0.02470 0.97780 0.08000
C 	C 	0.23785 0.03210 0.84580 -0.15300
H 	H 	0.24340 0.04930 0.86910 0.08200
N 	N 	0.16292 0.75770 0.62540 -0.08500
N 	N 	0.16744 0.89050 0.73770 -0.21600
N 	N 	0.18306 0.80230 0.59750 -0.08400
N 	N 	0.15007 0.73940 0.65240 -0.23200
H 	H 	0.14530 0.71300 0.64540 0.14400
H 	H 	0.14660 0.75400 0.67680 0.14000
N 	N 	0.15180 0.61730 0.51960 -0.20200
N 	N 	0.18198 0.76870 0.56840 -0.08700
N 	N 	0.32407 0.03310 0.81020 -0.19000
N 	N 	0.30481 0.94930 0.97290 -0.19700
O 	O 	0.37575 0.72320 0.75710 -0.40900
O 	O 	0.39506 0.27370 0.00500 -0.43800
O 	O 	0.40185 0.21300 0.04780 -0.40700
O 	O 	0.16481 0.99540 0.92700 -0.39000
O 	O 	0.39213 0.78670 0.61330 -0.39700
O 	O 	0.17038 0.04850 0.97980 -0.42000
O 	O 	0.40529 0.84770 0.58350 -0.40500
O 	O 	0.38272 0.20140 0.13650 -0.39400
O 	O 	0.38400 0.15070 0.19080 -0.41800
O 	O 	0.18380 0.00440 0.84690 -0.42800
O 	O 	0.39745 0.73460 0.80710 -0.26400
O 	O 	0.18629 0.96720 0.78440 -0.47300
Cu	Cu	0.16305 0.94067 0.78400 0.92400
Cu	Cu	0.14554 0.06361 0.98610 0.93100
Cu	Cu	0.15700 0.02168 0.86606 0.91900
C 	C 	0.82028 0.37710 0.87830 0.04400
H 	H 	0.81690 0.37030 0.84800 0.01100
C 	C 	0.88477 0.65760 0.98590 0.12700
H 	H 	0.89280 0.64520 0.00750 0.00500
C 	C 	0.81060 0.40800 0.90300 -0.16200
H 	H 	0.80120 0.42410 0.88860 0.08700
C 	C 	0.83008 0.45600 0.77970 -0.15300
H 	H 	0.82040 0.44300 0.79610 0.08300
C 	C 	0.87836 0.34170 0.68140 0.10600
H 	H 	0.88000 0.31050 0.68890 0.01100
C 	C 	0.88400 0.40430 0.63450 0.08300
H 	H 	0.89020 0.41700 0.60940 0.02000
C 	C 	0.83301 0.56010 0.83930 0.20900
C 	C 	0.89422 0.73340 0.01500 0.41500
C 	C 	0.87044 0.71670 0.95840 0.17600
H 	H 	0.86760 0.74830 0.95950 -0.01400
C 	C 	0.83364 0.49880 0.78520 0.12800
C 	C 	0.80426 0.52700 0.81180 0.16100
C 	C 	0.89463 0.32850 0.61250 0.37700
C 	C 	0.82766 0.59970 0.85190 -0.24000
H 	H 	0.81670 0.61010 0.83990 0.11400
C 	C 	0.69951 0.46410 0.93620 0.02200
H 	H 	0.69090 0.44480 0.92260 0.04300
C 	C 	0.66330 0.20140 0.56100 0.03500
C 	C 	0.71207 0.50010 0.81380 -0.16200
C 	C 	0.71984 0.52510 0.84820 0.08600
H 	H 	0.71300 0.53690 0.87250 0.01300
C 	C 	0.86283 0.59110 0.14580 0.12500
H 	H 	0.86640 0.58410 0.17580 0.00800
C 	C 	0.84895 0.54430 0.86020 -0.21200
H 	H 	0.85310 0.51430 0.85420 0.10300
C 	C 	0.87564 0.62690 0.95790 -0.21600
H 	H 	0.87810 0.59520 0.95870 0.10200
C 	C 	0.86103 0.69170 0.92980 -0.24000
H 	H 	0.85290 0.70580 0.90960 0.11200
C 	C 	0.72985 0.48420 0.95890 0.06900
C 	C 	0.87404 0.43230 0.66270 -0.14900
H 	H 	0.87280 0.46370 0.65560 0.08800
C 	C 	0.88305 0.70290 0.98490 -0.22300
C 	C 	0.85529 0.44320 0.72990 -0.06700
C 	C 	0.85189 0.56170 0.11970 -0.21000
H 	H 	0.84830 0.53310 0.13160 0.10600
C 	C 	0.84662 0.57440 0.07760 0.19400
C 	C 	0.72134 0.48360 0.77900 0.08100
H 	H 	0.71560 0.46690 0.75560 0.01800
C 	C 	0.71853 0.45220 0.93600 -0.10000
H 	H 	0.72300 0.42550 0.92180 0.06700
C 	C 	0.83532 0.54030 0.04950 -0.16100
C 	C 	0.81401 0.41670 0.94810 0.14700
C 	C 	0.85168 0.61180 0.05910 -0.23900
H 	H 	0.84850 0.61900 0.02880 0.12100
C 	C 	0.67839 0.39990 0.70260 0.06200
H 	H 	0.68480 0.42780 0.70130 0.00900
C 	C 	0.83643 0.62800 0.88090 0.10800
H 	H 	0.83120 0.65660 0.88790 -0.00800
C 	C 	0.67013 0.24060 0.58620 0.08800
C 	C 	0.67454 0.51870 0.95300 0.34200
C 	C 	0.74862 0.51490 0.81030 0.11700
C 	C 	0.65867 0.35260 0.73900 0.10700
H 	H 	0.65070 0.34720 0.76340 -0.00200
C 	C 	0.86975 0.27260 0.81900 -0.17000
C 	C 	0.70545 0.52880 0.98210 0.02400
H 	H 	0.70100 0.55260 0.00060 0.04100
C 	C 	0.69182 0.48990 0.81390 0.46200
C 	C 	0.84662 0.32570 0.86800 0.12500
C 	C 	0.88497 0.35660 0.64300 -0.17200
C 	C 	0.81496 0.48000 0.99900 0.23000
C 	C 	0.83824 0.53190 0.00490 0.18400
H 	H 	0.84780 0.54740 0.99070 -0.03600
C 	C 	0.67088 0.32670 0.66990 0.07000
C 	C 	0.74998 0.47210 0.96180 -0.03900
C 	C 	0.66038 0.32170 0.70770 -0.14200
H 	H 	0.65400 0.29400 0.71120 0.08600
C 	C 	0.86593 0.41480 0.70110 0.11000
C 	C 	0.78629 0.45610 0.96810 0.13900
C 	C 	0.68014 0.36640 0.66750 -0.11700
H 	H 	0.68780 0.37210 0.64260 0.08100
C 	C 	0.85782 0.57080 0.88760 0.09200
H 	H 	0.86860 0.55930 0.90020 -0.00400
C 	C 	0.67234 0.29820 0.63290 0.07100
C 	C 	0.83434 0.35670 0.89660 -0.07600
C 	C 	0.81195 0.48690 0.04080 -0.25400
H 	H 	0.80210 0.47110 0.05340 0.11900
C 	C 	0.82906 0.50500 0.98100 -0.28600
H 	H 	0.83190 0.50170 0.94990 0.12800
C 	C 	0.77661 0.52200 0.85080 0.04500
H 	H 	0.77030 0.52300 0.87860 0.01700
C 	C 	0.83991 0.42790 0.75030 0.02800
H 	H 	0.83590 0.39790 0.74440 0.02200
C 	C 	0.72381 0.51890 0.98090 -0.11700
H 	H 	0.73190 0.53820 0.99650 0.06800
C 	C 	0.84935 0.51930 0.76030 -0.13100
H 	H 	0.85200 0.55090 0.76180 0.07800
C 	C 	0.85897 0.49080 0.73680 0.02700
H 	H 	0.86940 0.50270 0.72280 0.02100
C 	C 	0.64530 0.19440 0.55350 -0.09700
H 	H 	0.63620 0.21350 0.56580 0.08300
C 	C 	0.77763 0.52130 0.77190 0.04600
H 	H 	0.77150 0.52170 0.74370 0.01400
C 	C 	0.86203 0.64140 0.08480 0.15000
H 	H 	0.86500 0.67050 0.07300 0.00100
C 	C 	0.82113 0.51400 0.06910 0.12100
H 	H 	0.81840 0.51560 0.10040 -0.01200
C 	C 	0.85238 0.61700 0.90040 -0.13800
C 	C 	0.76779 0.51800 0.81380 -0.08500
C 	C 	0.76150 0.50780 0.96940 0.01000
H 	H 	0.75700 0.53780 0.97250 0.02300
C 	C 	0.67440 0.16690 0.54600 -0.07700
H 	H 	0.68680 0.17330 0.54920 0.06300
C 	C 	0.86494 0.32140 0.88050 -0.17700
H 	H 	0.86970 0.33710 0.90590 0.08800
C 	C 	0.87900 0.66330 0.15160 0.38300
C 	C 	0.82802 0.39260 0.96790 -0.15500
H 	H 	0.83060 0.39700 0.99910 0.08400
C 	C 	0.64140 0.15470 0.52480 0.05400
H 	H 	0.63050 0.15530 0.50830 0.01900
C 	C 	0.86777 0.62980 0.12490 -0.19600
C 	C 	0.67080 0.12400 0.52710 0.01900
H 	H 	0.67960 0.10210 0.52000 0.04000
C 	C 	0.86311 0.64440 0.92950 0.17500
C 	C 	0.75603 0.42940 0.95410 0.00300
H 	H 	0.74800 0.40530 0.94750 0.02900
C 	C 	0.85146 0.27860 0.80650 0.08200
H 	H 	0.84680 0.26330 0.78080 0.01100
C 	C 	0.74042 0.49210 0.77790 -0.15800
H 	H 	0.74720 0.48090 0.75320 0.08400
C 	C 	0.69461 0.50400 0.95680 -0.08700
C 	C 	0.79579 0.52520 0.85140 -0.17200
H 	H 	0.80220 0.52590 0.87920 0.09000
C 	C 	0.83801 0.36350 0.94380 0.03700
H 	H 	0.84750 0.34740 0.95790 0.01500
C 	C 	0.79588 0.52390 0.77340 -0.17900
H 	H 	0.80250 0.52340 0.74600 0.09600
C 	C 	0.87963 0.24260 0.79080 0.32300
C 	C 	0.77560 0.42160 0.95630 -0.14100
H 	H 	0.78040 0.39250 0.94950 0.08200
C 	C 	0.86921 0.36870 0.71110 -0.16500
H 	H 	0.86500 0.35620 0.73870 0.09100
C 	C 	0.84055 0.30680 0.83210 -0.17800
H 	H 	0.82860 0.31220 0.82290 0.09000
C 	C 	0.87529 0.29420 0.85460 0.11000
H 	H 	0.88740 0.29070 0.86300 0.00800
C 	C 	0.77972 0.50000 0.97260 -0.14300
H 	H 	0.78760 0.52470 0.97780 0.08000
C 	C 	0.73785 0.53210 0.84580 -0.15400
H 	H 	0.74340 0.54930 0.86910 0.08200
N 	N 	0.66292 0.25770 0.62540 -0.08500
N 	N 	0.66744 0.39050 0.73770 -0.21600
N 	N 	0.68306 0.30230 0.59750 -0.08400
N 	N 	0.65007 0.23940 0.65240 -0.23200
H 	H 	0.64530 0.21300 0.64540 0.14400
H 	H 	0.64660 0.25400 0.67680 0.14000
N 	N 	0.65180 0.11730 0.51960 -0.20200
N 	N 	0.68198 0.26870 0.56840 -0.08700
N 	N 	0.82407 0.53310 0.81020 -0.19000
N 	N 	0.80481 0.44930 0.97290 -0.19700
O 	O 	0.87575 0.22320 0.75710 -0.40900
O 	O 	0.89506 0.77370 0.00500 -0.43800
O 	O 	0.90185 0.71300 0.04780 -0.40700
O 	O 	0.66481 0.49540 0.92700 -0.38900
O 	O 	0.89213 0.28670 0.61330 -0.39700
O 	O 	0.67038 0.54850 0.97980 -0.42000
O 	O 	0.90529 0.34770 0.58350 -0.40500
O 	O 	0.88272 0.70140 0.13650 -0.39400
O 	O 	0.88400 0.65070 0.19080 -0.41800
O 	O 	0.68380 0.50440 0.84690 -0.43000
O 	O 	0.89745 0.23460 0.80710 -0.26400
O 	O 	0.68629 0.46720 0.78440 -0.47300
Cu	Cu	0.66305 0.44067 0.78400 0.92400
Cu	Cu	0.64554 0.56361 0.98610 0.93100
Cu	Cu	0.65700 0.52168 0.86606 0.91900
C 	C 	0.82028 0.87710 0.37830 0.04300
H 	H 	0.81690 0.87030 0.34800 0.01100
C 	C 	0.88477 0.15760 0.48590 0.13900
H 	H 	0.89280 0.14520 0.50750 -0.00300
C 	C 	0.81060 0.90800 0.40300 -0.16200
H 	H 	0.80120 0.92410 0.38860 0.08700
C 	C 	0.83008 0.95600 0.27970 -0.14900
H 	H 	0.82040 0.94300 0.29610 0.08200
C 	C 	0.87836 0.84170 0.18140 0.10500
H 	H 	0.88000 0.81050 0.18890 0.01100
C 	C 	0.88400 0.90430 0.13450 0.08200
H 	H 	0.89020 0.91700 0.10940 0.02000
C 	C 	0.83301 0.06010 0.33930 0.21000
C 	C 	0.89422 0.23340 0.51500 0.41100
C 	C 	0.87044 0.21670 0.45840 0.17800
H 	H 	0.86760 0.24830 0.45950 -0.01300
C 	C 	0.83364 0.99880 0.28520 0.12400
C 	C 	0.80426 0.02700 0.31180 0.16200
C 	C 	0.89463 0.82850 0.11250 0.37700
C 	C 	0.82766 0.09970 0.35190 -0.24100
H 	H 	0.81670 0.11010 0.33990 0.11400
C 	C 	0.69951 0.96410 0.43620 0.02600
H 	H 	0.69090 0.94480 0.42260 0.04200
C 	C 	0.66330 0.70140 0.06100 0.03600
C 	C 	0.71207 0.00010 0.31380 -0.15900
C 	C 	0.71984 0.02510 0.34820 0.08500
H 	H 	0.71300 0.03690 0.37250 0.01400
C 	C 	0.86283 0.09110 0.64580 0.11800
H 	H 	0.86640 0.08410 0.67580 0.01000
C 	C 	0.84895 0.04430 0.36020 -0.21200
H 	H 	0.85310 0.01430 0.35420 0.10400
C 	C 	0.87564 0.12690 0.45790 -0.22200
H 	H 	0.87810 0.09520 0.45870 0.10500
C 	C 	0.86103 0.19170 0.42980 -0.24200
H 	H 	0.85290 0.20580 0.40960 0.11400
C 	C 	0.72985 0.98420 0.45890 0.07400
C 	C 	0.87404 0.93230 0.16270 -0.14800
H 	H 	0.87280 0.96370 0.15560 0.08700
C 	C 	0.88305 0.20290 0.48490 -0.22200
C 	C 	0.85529 0.94320 0.22990 -0.06300
C 	C 	0.85189 0.06170 0.61970 -0.20100
H 	H 	0.84830 0.03310 0.63160 0.10200
C 	C 	0.84662 0.07440 0.57760 0.18100
C 	C 	0.72134 0.98360 0.27900 0.07900
H 	H 	0.71560 0.96690 0.25560 0.01900
C 	C 	0.71853 0.95220 0.43600 -0.10400
H 	H 	0.72300 0.92550 0.42180 0.06800
C 	C 	0.83532 0.04030 0.54950 -0.14100
C 	C 	0.81401 0.91670 0.44810 0.14700
C 	C 	0.85168 0.11180 0.55910 -0.22800
H 	H 	0.84850 0.11900 0.52880 0.11500
C 	C 	0.67839 0.89990 0.20260 0.06200
H 	H 	0.68480 0.92780 0.20130 0.00900
C 	C 	0.83643 0.12800 0.38090 0.10900
H 	H 	0.83120 0.15660 0.38790 -0.00800
C 	C 	0.67013 0.74060 0.08620 0.08800
C 	C 	0.67454 0.01870 0.45300 0.34600
C 	C 	0.74862 0.01490 0.31030 0.11700
C 	C 	0.65867 0.85260 0.23900 0.10700
H 	H 	0.65070 0.84720 0.26340 -0.00200
C 	C 	0.86975 0.77260 0.31900 -0.17000
C 	C 	0.70545 0.02880 0.48210 0.04000
H 	H 	0.70100 0.05260 0.50060 0.03100
C 	C 	0.69182 0.98990 0.31390 0.45900
C 	C 	0.84662 0.82570 0.36800 0.12500
C 	C 	0.88497 0.85660 0.14300 -0.17100
C 	C 	0.81496 0.98000 0.49900 0.22000
C 	C 	0.83824 0.03190 0.50490 0.14000
H 	H 	0.84780 0.04740 0.49070 -0.01700
C 	C 	0.67088 0.82670 0.16990 0.07000
C 	C 	0.74998 0.97210 0.46180 -0.04200
C 	C 	0.66038 0.82170 0.20770 -0.14200
H 	H 	0.65400 0.79400 0.21120 0.08600
C 	C 	0.86593 0.91480 0.20110 0.10800
C 	C 	0.78629 0.95610 0.46810 0.13900
C 	C 	0.68014 0.86640 0.16750 -0.11700
H 	H 	0.68780 0.87210 0.14260 0.08100
C 	C 	0.85782 0.07080 0.38760 0.09300
H 	H 	0.86860 0.05930 0.40020 -0.00400
C 	C 	0.67234 0.79820 0.13290 0.07100
C 	C 	0.83434 0.85670 0.39660 -0.07600
C 	C 	0.81195 0.98690 0.54080 -0.24900
H 	H 	0.80210 0.97110 0.55340 0.11600
C 	C 	0.82906 0.00500 0.48100 -0.25000
H 	H 	0.83190 0.00170 0.44990 0.11700
C 	C 	0.77661 0.02200 0.35080 0.04600
H 	H 	0.77030 0.02300 0.37860 0.01700
C 	C 	0.83991 0.92790 0.25030 0.02500
H 	H 	0.83590 0.89790 0.24440 0.02300
C 	C 	0.72381 0.01890 0.48090 -0.12500
H 	H 	0.73190 0.03820 0.49650 0.07200
C 	C 	0.84935 0.01930 0.26030 -0.12500
H 	H 	0.85200 0.05090 0.26180 0.07600
C 	C 	0.85897 0.99080 0.23680 0.02000
H 	H 	0.86940 0.00270 0.22280 0.02400
C 	C 	0.64530 0.69440 0.05350 -0.09600
H 	H 	0.63620 0.71350 0.06580 0.08300
C 	C 	0.77763 0.02130 0.27190 0.04600
H 	H 	0.77150 0.02170 0.24370 0.01400
C 	C 	0.86203 0.14140 0.58480 0.14100
H 	H 	0.86500 0.17050 0.57300 0.00300
C 	C 	0.82113 0.01400 0.56910 0.11000
H 	H 	0.81840 0.01560 0.60040 -0.00800
C 	C 	0.85238 0.11700 0.40040 -0.13900
C 	C 	0.76779 0.01800 0.31380 -0.08500
C 	C 	0.76150 0.00780 0.46940 0.01200
H 	H 	0.75700 0.03780 0.47250 0.02300
C 	C 	0.67440 0.66690 0.04600 -0.07700
H 	H 	0.68680 0.67330 0.04920 0.06400
C 	C 	0.86494 0.82140 0.38050 -0.17700
H 	H 	0.86970 0.83710 0.40590 0.08900
C 	C 	0.87900 0.16330 0.65160 0.38100
C 	C 	0.82802 0.89260 0.46790 -0.15500
H 	H 	0.83060 0.89700 0.49910 0.08500
C 	C 	0.64140 0.65470 0.02480 0.05400
H 	H 	0.63050 0.65530 0.00830 0.02100
C 	C 	0.86777 0.12980 0.62490 -0.19000
C 	C 	0.67080 0.62400 0.02710 0.02000
H 	H 	0.67960 0.60210 0.02000 0.04200
C 	C 	0.86311 0.14440 0.42950 0.17900
C 	C 	0.75603 0.92940 0.45410 0.00400
H 	H 	0.74800 0.90530 0.44750 0.02900
C 	C 	0.85146 0.77860 0.30650 0.08200
H 	H 	0.84680 0.76330 0.28080 0.01100
C 	C 	0.74042 0.99210 0.27790 -0.15800
H 	H 	0.74720 0.98090 0.25320 0.08400
C 	C 	0.69461 0.00400 0.45680 -0.09300
C 	C 	0.79579 0.02520 0.35140 -0.17200
H 	H 	0.80220 0.02590 0.37920 0.09000
C 	C 	0.83801 0.86350 0.44380 0.03700
H 	H 	0.84750 0.84740 0.45790 0.01600
C 	C 	0.79588 0.02390 0.27340 -0.17900
H 	H 	0.80250 0.02340 0.24600 0.09700
C 	C 	0.87963 0.74260 0.29080 0.32300
C 	C 	0.77560 0.92160 0.45630 -0.14100
H 	H 	0.78040 0.89250 0.44950 0.08200
C 	C 	0.86921 0.86870 0.21110 -0.16300
H 	H 	0.86500 0.85620 0.23870 0.09000
C 	C 	0.84055 0.80680 0.33210 -0.17800
H 	H 	0.82860 0.81220 0.32290 0.09000
C 	C 	0.87529 0.79420 0.35460 0.11000
H 	H 	0.88740 0.79070 0.36300 0.00800
C 	C 	0.77972 -0.00000 0.47260 -0.14200
H 	H 	0.78760 0.02470 0.47780 0.08100
C 	C 	0.73785 0.03210 0.34580 -0.15300
H 	H 	0.74340 0.04930 0.36910 0.08200
N 	N 	0.66292 0.75770 0.12540 -0.08500
N 	N 	0.66744 0.89050 0.23770 -0.21600
N 	N 	0.68306 0.80230 0.09750 -0.08300
N 	N 	0.65007 0.73940 0.15240 -0.23200
H 	H 	0.64530 0.71300 0.14540 0.14400
H 	H 	0.64660 0.75400 0.17680 0.14000
N 	N 	0.65180 0.61730 0.01960 -0.20000
N 	N 	0.68198 0.76870 0.06840 -0.08600
N 	N 	0.82407 0.03310 0.31020 -0.19000
N 	N 	0.80481 0.94930 0.47290 -0.19500
O 	O 	0.87575 0.72320 0.25710 -0.40900
O 	O 	0.89506 0.27370 0.50500 -0.44000
O 	O 	0.90185 0.21300 0.54780 -0.40700
O 	O 	0.66481 0.99540 0.42700 -0.39000
O 	O 	0.89213 0.78670 0.11330 -0.39700
O 	O 	0.67038 0.04850 0.47980 -0.41800
O 	O 	0.90529 0.84770 0.08350 -0.40400
O 	O 	0.88272 0.20140 0.63650 -0.39400
O 	O 	0.88400 0.15070 0.69080 -0.41800
O 	O 	0.68380 0.00440 0.34690 -0.42800
O 	O 	0.89745 0.73460 0.30710 -0.26400
O 	O 	0.68629 0.96720 0.28440 -0.47300
Cu	Cu	0.66305 0.94067 0.28400 0.92400
Cu	Cu	0.64554 0.06361 0.48610 0.93400
Cu	Cu	0.65700 0.02168 0.36606 0.91900
