data_crystal

_cell_length_a 74.91000
_cell_length_b 29.61400
_cell_length_c 29.75500
_cell_angle_alpha 90.00000
_cell_angle_beta  90.00000
_cell_angle_gamma 90.00000

_symmetry_space_group_name_	'P 1'
_symmetry_space_group_name_H-M	'P 1'

loop_
_symmetry_equiv_pos_as_xyz
  x,y,z

loop_
_atom_site_label
_atom_site_type_symbol
_atom_site_fract_x
_atom_site_fract_y
_atom_site_fract_z
_atom_site_charge
C 	C 	0.07520 0.91490 0.45620 -0.08600
H 	H 	0.06320 0.91840 0.46600 0.06700
C 	C 	0.10807 0.90430 0.42880 0.11000
H 	H 	0.12000 0.90150 0.41850 -0.02000
C 	C 	0.14418 0.56000 0.38340 -0.06600
C 	C 	0.07960 0.87280 0.43460 0.01900
H 	H 	0.07140 0.84890 0.42960 0.03400
C 	C 	0.20398 0.47660 0.50560 -0.16900
H 	H 	0.19770 0.47650 0.53330 0.09100
C 	C 	0.08692 0.95140 0.46410 0.05700
C 	C 	0.08029 0.99170 0.48840 0.09100
C 	C 	0.16596 0.50200 0.43800 0.12600
C 	C 	0.22262 0.47940 0.50300 0.04700
H 	H 	0.22910 0.47980 0.53050 0.01800
C 	C 	0.15926 0.57500 0.40580 0.02500
H 	H 	0.16300 0.60540 0.40220 0.02300
C 	C 	0.10346 0.94650 0.45100 -0.13800
H 	H 	0.11210 0.96950 0.45580 0.09200
C 	C 	0.09194 0.10310 0.64110 0.09900
H 	H 	0.10000 0.09840 0.66530 -0.01300
C 	C 	0.10531 0.67230 0.26310 0.39100
C 	C 	0.11445 0.64230 0.29620 -0.15400
C 	C 	0.12135 0.65880 0.33550 0.09000
H 	H 	0.11950 0.68960 0.34290 0.01100
C 	C 	0.13068 0.63230 0.36390 -0.16000
H 	H 	0.13510 0.64510 0.39100 0.08800
C 	C 	0.13405 0.58710 0.35500 0.10900
C 	C 	0.12559 0.56940 0.31640 -0.14400
H 	H 	0.12660 0.53810 0.31000 0.08600
C 	C 	0.11583 0.59680 0.28740 0.07800
H 	H 	0.11020 0.58420 0.26170 0.01900
C 	C 	0.07903 0.07790 0.57240 0.06500
C 	C 	0.09031 0.07150 0.61050 -0.13600
H 	H 	0.09670 0.04400 0.61380 0.08200
C 	C 	0.16915 0.54580 0.43390 -0.14400
H 	H 	0.17870 0.55830 0.45100 0.08100
C 	C 	0.06980 0.11720 0.56980 -0.12300
H 	H 	0.06220 0.12350 0.54510 0.08200
C 	C 	0.15047 0.48290 0.41390 -0.13200
H 	H 	0.14760 0.45160 0.41500 0.07800
C 	C 	0.14078 0.51190 0.39060 0.02400
H 	H 	0.13030 0.50000 0.37680 0.02200
C 	C 	0.30874 0.51120 0.46630 0.49200
C 	C 	0.28813 0.50100 0.46520 -0.15800
C 	C 	0.27799 0.51690 0.42930 0.08100
H 	H 	0.28350 0.53330 0.40560 0.01700
C 	C 	0.25991 0.50860 0.42850 -0.15300
H 	H 	0.25300 0.51790 0.40330 0.08200
C 	C 	0.25151 0.48660 0.46460 0.11200
C 	C 	0.26231 0.47160 0.49930 -0.16300
H 	H 	0.25670 0.45730 0.52420 0.08500
C 	C 	0.27990 0.47580 0.50000 0.09100
H 	H 	0.28680 0.46230 0.52320 0.00900
C 	C 	0.23200 0.48140 0.46460 -0.08700
C 	C 	0.22173 0.48070 0.42440 0.06300
H 	H 	0.22740 0.48220 0.39590 0.00700
C 	C 	0.20393 0.47800 0.42730 -0.19800
H 	H 	0.19730 0.47890 0.40010 0.10200
C 	C 	0.19530 0.47420 0.46420 0.16900
C 	C 	0.07203 0.14870 0.60560 0.07200
H 	H 	0.06550 0.17620 0.60490 -0.00400
C 	C 	0.07769 0.04640 0.53490 0.08400
C 	C 	0.10548 0.26870 0.66730 0.40500
C 	C 	0.11675 0.29920 0.63740 -0.16700
C 	C 	0.12946 0.28260 0.60870 0.10400
H 	H 	0.13180 0.25100 0.60750 0.00800
C 	C 	0.13856 0.31100 0.58250 -0.17700
H 	H 	0.14700 0.29810 0.56240 0.08900
C 	C 	0.13691 0.35610 0.58170 0.11800
C 	C 	0.12348 0.37340 0.61090 -0.16500
H 	H 	0.12100 0.40490 0.61140 0.08300
C 	C 	0.11429 0.34480 0.63800 0.09400
H 	H 	0.10580 0.35700 0.65830 0.00700
C 	C 	0.14754 0.38550 0.55310 -0.07800
C 	C 	0.16425 0.37390 0.53430 0.04700
H 	H 	0.16950 0.34580 0.54230 0.01200
C 	C 	0.17276 0.40030 0.50640 -0.16200
H 	H 	0.18360 0.38980 0.49370 0.08800
C 	C 	0.16673 0.44310 0.49450 0.14200
C 	C 	0.15070 0.45750 0.51340 -0.14800
H 	H 	0.14630 0.48690 0.50670 0.08400
C 	C 	0.14095 0.42920 0.54220 0.02700
H 	H 	0.12990 0.43930 0.55440 0.01800
N 	N 	0.17605 0.47010 0.46390 -0.17800
N 	N 	0.08294 0.14108 0.63980 -0.26100
N 	N 	0.08697 0.00857 0.52700 -0.09400
N 	N 	0.06775 0.01650 0.47210 -0.09000
N 	N 	0.06621 0.05130 0.50130 -0.08700
N 	N 	0.10035 0.98910 0.55430 -0.23100
H 	H 	0.10340 0.00200 0.57970 0.13800
H 	H 	0.10560 0.96390 0.54580 0.14500
N 	N 	0.09799 0.87150 0.42180 -0.25100
O 	O 	0.09452 0.65327 0.23550 -0.48300
O 	O 	0.10817 0.71348 0.26500 -0.46900
O 	O 	0.09775 0.28696 0.69980 -0.48000
O 	O 	0.10563 0.22745 0.65740 -0.49200
O 	O 	0.31377 0.53271 0.43570 -0.54800
O 	O 	0.31670 0.49660 0.49900 -0.51100
Zn	Zn	0.08733 0.19071 0.68550 1.22100
Zn	Zn	0.09303 0.27147 0.76790 1.21600
C 	C 	0.12087 0.33710 0.80360 0.39400
C 	C 	0.13223 0.36940 0.77730 -0.13500
C 	C 	0.13804 0.35670 0.73500 0.05700
H 	H 	0.13490 0.32810 0.72280 0.02900
C 	C 	0.14878 0.38700 0.71040 -0.12800
H 	H 	0.15280 0.37910 0.68110 0.08000
C 	C 	0.15353 0.42810 0.72850 0.08500
C 	C 	0.14833 0.44010 0.77090 -0.12900
H 	H 	0.15230 0.46780 0.78360 0.07500
C 	C 	0.13693 0.41100 0.79610 0.05300
H 	H 	0.13270 0.41960 0.82490 0.02800
C 	C 	0.16456 0.46100 0.70160 -0.04700
C 	C 	0.16129 0.46660 0.65470 0.01500
H 	H 	0.15220 0.44960 0.64010 0.02500
C 	C 	0.17122 0.49620 0.63150 -0.13400
H 	H 	0.16900 0.50060 0.60040 0.08000
C 	C 	0.18462 0.52050 0.65240 0.11900
C 	C 	0.18843 0.51470 0.69660 -0.13500
H 	H 	0.19810 0.53080 0.70950 0.08000
C 	C 	0.17868 0.48630 0.72300 0.01200
H 	H 	0.18110 0.48330 0.75420 0.02500
C 	C 	0.11905 0.76060 0.44320 0.31100
C 	C 	0.13077 0.72990 0.47110 -0.11200
C 	C 	0.14728 0.72330 0.45790 0.04400
H 	H 	0.15150 0.73660 0.43090 0.02600
C 	C 	0.15908 0.69530 0.48550 -0.13400
H 	H 	0.17120 0.69200 0.47710 0.07500
C 	C 	0.15321 0.67490 0.52110 0.08600
C 	C 	0.13487 0.68050 0.53440 -0.12500
H 	H 	0.13030 0.66640 0.56070 0.07100
C 	C 	0.12423 0.70710 0.50750 0.04200
H 	H 	0.11190 0.70980 0.51450 0.03100
C 	C 	0.16540 0.64420 0.54900 -0.05700
C 	C 	0.17929 0.62340 0.53160 0.02500
H 	H 	0.18270 0.63100 0.50180 0.01900
C 	C 	0.18929 0.59070 0.55410 -0.15000
H 	H 	0.19800 0.57290 0.53890 0.08300
C 	C 	0.18601 0.58560 0.59870 0.13300
C 	C 	0.17163 0.60970 0.61980 -0.13800
H 	H 	0.16920 0.60460 0.65070 0.08100
C 	C 	0.16187 0.63840 0.59750 0.02300
H 	H 	0.15270 0.65500 0.61200 0.02000
C 	C 	0.32510 0.48310 0.60550 0.35800
C 	C 	0.30561 0.49650 0.60830 -0.11600
C 	C 	0.29394 0.46820 0.63090 0.05000
H 	H 	0.29810 0.44160 0.64530 0.02600
C 	C 	0.27588 0.47970 0.63190 -0.13100
H 	H 	0.26770 0.46040 0.64700 0.07300
C 	C 	0.26979 0.51730 0.61220 0.08300
C 	C 	0.28120 0.54620 0.58980 -0.11700
H 	H 	0.27660 0.57260 0.57580 0.07200
C 	C 	0.30027 0.53620 0.58770 0.04200
H 	H 	0.30850 0.55570 0.57310 0.03200
C 	C 	0.25016 0.52840 0.61390 -0.04700
C 	C 	0.23813 0.49260 0.62210 0.01300
H 	H 	0.24250 0.46280 0.62640 0.02200
C 	C 	0.22017 0.50070 0.62400 -0.13700
H 	H 	0.21210 0.47640 0.62850 0.08000
C 	C 	0.21373 0.54480 0.61930 0.13000
C 	C 	0.22505 0.57890 0.61170 -0.13800
H 	H 	0.22050 0.60870 0.60870 0.08100
C 	C 	0.24397 0.57150 0.60810 0.01000
H 	H 	0.25190 0.59570 0.60180 0.02600
N 	N 	0.19508 0.55390 0.62520 -0.16800
O 	O 	0.33551 0.50433 0.58030 -0.45600
O 	O 	0.32948 0.45060 0.63080 -0.47900
O 	O 	0.11776 0.29896 0.78720 -0.45300
O 	O 	0.11601 0.35083 0.84100 -0.49400
O 	O 	0.12407 0.77708 0.40900 -0.46800
O 	O 	0.10249 0.76830 0.46060 -0.30200
Zn	Zn	0.10448 0.81473 0.38770 1.22500
C 	C 	0.07520 0.41490 0.95620 -0.08500
H 	H 	0.06320 0.41840 0.96600 0.06700
C 	C 	0.10807 0.40430 0.92880 0.10900
H 	H 	0.12000 0.40150 0.91850 -0.02100
C 	C 	0.14418 0.06000 0.88340 -0.06700
C 	C 	0.07960 0.37280 0.93460 0.01900
H 	H 	0.07140 0.34890 0.92960 0.03400
C 	C 	0.20398 0.97660 0.00560 -0.16900
H 	H 	0.19770 0.97650 0.03330 0.08800
C 	C 	0.08692 0.45140 0.96410 0.05500
C 	C 	0.08029 0.49170 0.98840 0.09700
C 	C 	0.16596 0.00200 0.93800 0.12800
C 	C 	0.22262 0.97940 0.00300 0.02300
H 	H 	0.22910 0.97980 0.03050 0.02400
C 	C 	0.15926 0.07500 0.90580 0.02600
H 	H 	0.16300 0.10540 0.90220 0.02300
C 	C 	0.10346 0.44650 0.95100 -0.13600
H 	H 	0.11210 0.46950 0.95580 0.09300
C 	C 	0.09194 0.60310 0.14110 0.09900
H 	H 	0.10000 0.59840 0.16530 -0.01200
C 	C 	0.10531 0.17230 0.76310 0.39200
C 	C 	0.11445 0.14230 0.79620 -0.15400
C 	C 	0.12135 0.15880 0.83550 0.09100
H 	H 	0.11950 0.18960 0.84290 0.01100
C 	C 	0.13068 0.13230 0.86390 -0.16000
H 	H 	0.13510 0.14510 0.89100 0.08900
C 	C 	0.13405 0.08710 0.85500 0.10900
C 	C 	0.12559 0.06940 0.81640 -0.14500
H 	H 	0.12660 0.03810 0.81000 0.08600
C 	C 	0.11583 0.09680 0.78740 0.07800
H 	H 	0.11020 0.08420 0.76170 0.01900
C 	C 	0.07903 0.57790 0.07240 0.06400
C 	C 	0.09031 0.57150 0.11050 -0.13600
H 	H 	0.09670 0.54400 0.11380 0.08200
C 	C 	0.16915 0.04580 0.93390 -0.14500
H 	H 	0.17870 0.05830 0.95100 0.08300
C 	C 	0.06980 0.61720 0.06980 -0.12300
H 	H 	0.06220 0.62350 0.04510 0.08100
C 	C 	0.15047 0.98290 0.91390 -0.13200
H 	H 	0.14760 0.95160 0.91500 0.07900
C 	C 	0.14078 0.01190 0.89060 0.02500
H 	H 	0.13030 0.00000 0.87680 0.02200
C 	C 	0.30874 0.01120 0.96630 0.48100
C 	C 	0.28813 0.00100 0.96520 -0.12500
C 	C 	0.27799 0.01690 0.92930 0.05300
H 	H 	0.28350 0.03330 0.90560 0.02700
C 	C 	0.25991 0.00860 0.92850 -0.12300
H 	H 	0.25300 0.01790 0.90330 0.07200
C 	C 	0.25151 0.98660 0.96460 0.07700
C 	C 	0.26231 0.97160 0.99930 -0.10000
H 	H 	0.25670 0.95730 0.02420 0.06000
C 	C 	0.27990 0.97580 -0.00000 0.03200
H 	H 	0.28680 0.96230 0.02320 0.02600
C 	C 	0.23200 0.98140 0.96460 -0.05900
C 	C 	0.22173 0.98070 0.92440 0.05000
H 	H 	0.22740 0.98220 0.89590 0.01300
C 	C 	0.20393 0.97800 0.92730 -0.19100
H 	H 	0.19730 0.97890 0.90010 0.09900
C 	C 	0.19530 0.97420 0.96420 0.17200
C 	C 	0.07203 0.64870 0.10560 0.07200
H 	H 	0.06550 0.67620 0.10490 -0.00400
C 	C 	0.07769 0.54640 0.03490 0.08200
C 	C 	0.10548 0.76870 0.16730 0.40700
C 	C 	0.11675 0.79920 0.13740 -0.17200
C 	C 	0.12946 0.78260 0.10870 0.11100
H 	H 	0.13180 0.75100 0.10750 0.00500
C 	C 	0.13856 0.81100 0.08250 -0.18800
H 	H 	0.14700 0.79810 0.06240 0.09200
C 	C 	0.13691 0.85610 0.08170 0.13100
C 	C 	0.12348 0.87340 0.11090 -0.17400
H 	H 	0.12100 0.90490 0.11140 0.08600
C 	C 	0.11429 0.84480 0.13800 0.10100
H 	H 	0.10580 0.85700 0.15830 0.00400
C 	C 	0.14754 0.88550 0.05310 -0.10200
C 	C 	0.16425 0.87390 0.03430 0.08300
H 	H 	0.16950 0.84580 0.04230 -0.00100
C 	C 	0.17276 0.90030 0.00640 -0.21600
H 	H 	0.18360 0.88980 0.99370 0.11100
C 	C 	0.16673 0.94310 0.99450 0.18000
C 	C 	0.15070 0.95750 0.01340 -0.18000
H 	H 	0.14630 0.98690 0.00670 0.09200
C 	C 	0.14095 0.92920 0.04220 0.04900
H 	H 	0.12990 0.93930 0.05440 0.00900
N 	N 	0.17605 0.97010 0.96390 -0.18400
N 	N 	0.08294 0.64108 0.13980 -0.26100
N 	N 	0.08697 0.50857 0.02700 -0.09800
N 	N 	0.06775 0.51650 0.97210 -0.08800
N 	N 	0.06621 0.55130 0.00130 -0.09100
N 	N 	0.10035 0.48910 0.05430 -0.23200
H 	H 	0.10340 0.50200 0.07970 0.13700
H 	H 	0.10560 0.46390 0.04580 0.14300
N 	N 	0.09799 0.37150 0.92180 -0.25100
O 	O 	0.09452 0.15327 0.73550 -0.48300
O 	O 	0.10817 0.21348 0.76500 -0.46900
O 	O 	0.09775 0.78696 0.19980 -0.48000
O 	O 	0.10563 0.72745 0.15740 -0.49300
O 	O 	0.31377 0.03271 0.93570 -0.54400
O 	O 	0.31670 0.99660 0.99900 -0.50300
Zn	Zn	0.08733 0.69071 0.18550 1.22100
Zn	Zn	0.09303 0.77147 0.26790 1.21600
C 	C 	0.12087 0.83710 0.30360 0.39400
C 	C 	0.13223 0.86940 0.27730 -0.13500
C 	C 	0.13804 0.85670 0.23500 0.05700
H 	H 	0.13490 0.82810 0.22280 0.02900
C 	C 	0.14878 0.88700 0.21040 -0.12800
H 	H 	0.15280 0.87910 0.18110 0.08000
C 	C 	0.15353 0.92810 0.22850 0.08500
C 	C 	0.14833 0.94010 0.27090 -0.12900
H 	H 	0.15230 0.96780 0.28360 0.07500
C 	C 	0.13693 0.91100 0.29610 0.05300
H 	H 	0.13270 0.91960 0.32490 0.02800
C 	C 	0.16456 0.96100 0.20160 -0.04700
C 	C 	0.16129 0.96660 0.15470 0.01400
H 	H 	0.15220 0.94960 0.14010 0.02500
C 	C 	0.17122 0.99620 0.13150 -0.13300
H 	H 	0.16900 0.00060 0.10040 0.07900
C 	C 	0.18462 0.02050 0.15240 0.11800
C 	C 	0.18843 0.01470 0.19660 -0.13500
H 	H 	0.19810 0.03080 0.20950 0.08000
C 	C 	0.17868 0.98630 0.22300 0.01200
H 	H 	0.18110 0.98330 0.25420 0.02500
C 	C 	0.11905 0.26060 0.94320 0.30300
C 	C 	0.13077 0.22990 0.97110 -0.08600
C 	C 	0.14728 0.22330 0.95790 0.02200
H 	H 	0.15150 0.23660 0.93090 0.03400
C 	C 	0.15908 0.19530 0.98550 -0.10300
H 	H 	0.17120 0.19200 0.97710 0.06700
C 	C 	0.15321 0.17490 0.02110 0.06000
C 	C 	0.13487 0.18050 0.03440 -0.10400
H 	H 	0.13030 0.16640 0.06070 0.06300
C 	C 	0.12423 0.20710 0.00750 0.01300
H 	H 	0.11190 0.20980 0.01450 0.03800
C 	C 	0.16540 0.14420 0.04900 -0.04600
C 	C 	0.17929 0.12340 0.03160 0.01600
H 	H 	0.18270 0.13100 0.00180 0.01900
C 	C 	0.18929 0.09070 0.05410 -0.14500
H 	H 	0.19800 0.07290 0.03890 0.08100
C 	C 	0.18601 0.08560 0.09870 0.13000
C 	C 	0.17163 0.10970 0.11980 -0.13300
H 	H 	0.16920 0.10460 0.15070 0.08000
C 	C 	0.16187 0.13840 0.09750 0.01500
H 	H 	0.15270 0.15500 0.11200 0.02300
C 	C 	0.32510 0.98310 0.10550 0.35800
C 	C 	0.30561 0.99650 0.10830 -0.11700
C 	C 	0.29394 0.96820 0.13090 0.04900
H 	H 	0.29810 0.94160 0.14530 0.02600
C 	C 	0.27588 0.97970 0.13190 -0.13100
H 	H 	0.26770 0.96040 0.14700 0.07300
C 	C 	0.26979 0.01730 0.11220 0.08300
C 	C 	0.28120 0.04620 0.08980 -0.11700
H 	H 	0.27660 0.07260 0.07580 0.07100
C 	C 	0.30027 0.03620 0.08770 0.04100
H 	H 	0.30850 0.05570 0.07310 0.03100
C 	C 	0.25016 0.02840 0.11390 -0.04800
C 	C 	0.23813 0.99260 0.12210 0.01300
H 	H 	0.24250 0.96280 0.12640 0.02100
C 	C 	0.22017 0.00070 0.12400 -0.13800
H 	H 	0.21210 0.97640 0.12850 0.08000
C 	C 	0.21373 0.04480 0.11930 0.13000
C 	C 	0.22505 0.07890 0.11170 -0.13800
H 	H 	0.22050 0.10870 0.10870 0.08100
C 	C 	0.24397 0.07150 0.10810 0.01000
H 	H 	0.25190 0.09570 0.10180 0.02500
N 	N 	0.19508 0.05390 0.12520 -0.16700
O 	O 	0.33551 0.00433 0.08030 -0.45700
O 	O 	0.32948 0.95060 0.13080 -0.47900
O 	O 	0.11776 0.79896 0.28720 -0.45300
O 	O 	0.11601 0.85083 0.34100 -0.49400
O 	O 	0.12407 0.27708 0.90900 -0.46500
O 	O 	0.10249 0.26830 0.96060 -0.29800
Zn	Zn	0.10448 0.31473 0.88770 1.22500
C 	C 	0.57520 0.91490 0.95620 -0.08500
H 	H 	0.56320 0.91840 0.96600 0.06700
C 	C 	0.60807 0.90430 0.92880 0.10900
H 	H 	0.62000 0.90150 0.91850 -0.02100
C 	C 	0.64418 0.56000 0.88340 -0.06800
C 	C 	0.57960 0.87280 0.93460 0.01900
H 	H 	0.57140 0.84890 0.92960 0.03400
C 	C 	0.70398 0.47660 0.00560 -0.16900
H 	H 	0.69770 0.47650 0.03330 0.08800
C 	C 	0.58692 0.95140 0.96410 0.05500
C 	C 	0.58029 0.99170 0.98840 0.09700
C 	C 	0.66596 0.50200 0.93800 0.12800
C 	C 	0.72262 0.47940 0.00300 0.02300
H 	H 	0.72910 0.47980 0.03050 0.02400
C 	C 	0.65926 0.57500 0.90580 0.02600
H 	H 	0.66300 0.60540 0.90220 0.02300
C 	C 	0.60346 0.94650 0.95100 -0.13600
H 	H 	0.61210 0.96950 0.95580 0.09300
C 	C 	0.59194 0.10310 0.14110 0.09900
H 	H 	0.60000 0.09840 0.16530 -0.01200
C 	C 	0.60531 0.67230 0.76310 0.39200
C 	C 	0.61445 0.64230 0.79620 -0.15400
C 	C 	0.62135 0.65880 0.83550 0.09100
H 	H 	0.61950 0.68960 0.84290 0.01100
C 	C 	0.63068 0.63230 0.86390 -0.16000
H 	H 	0.63510 0.64510 0.89100 0.08900
C 	C 	0.63405 0.58710 0.85500 0.11000
C 	C 	0.62559 0.56940 0.81640 -0.14500
H 	H 	0.62660 0.53810 0.81000 0.08700
C 	C 	0.61583 0.59680 0.78740 0.07800
H 	H 	0.61020 0.58420 0.76170 0.01900
C 	C 	0.57903 0.07790 0.07240 0.06400
C 	C 	0.59031 0.07150 0.11050 -0.13600
H 	H 	0.59670 0.04400 0.11380 0.08200
C 	C 	0.66915 0.54580 0.93390 -0.14600
H 	H 	0.67870 0.55830 0.95100 0.08300
C 	C 	0.56980 0.11720 0.06980 -0.12300
H 	H 	0.56220 0.12350 0.04510 0.08100
C 	C 	0.65047 0.48290 0.91390 -0.13300
H 	H 	0.64760 0.45160 0.91500 0.07900
C 	C 	0.64078 0.51190 0.89060 0.02600
H 	H 	0.63030 0.50000 0.87680 0.02200
C 	C 	0.80874 0.51120 0.96630 0.48100
C 	C 	0.78813 0.50100 0.96520 -0.12400
C 	C 	0.77799 0.51690 0.92930 0.05200
H 	H 	0.78350 0.53330 0.90560 0.02700
C 	C 	0.75991 0.50860 0.92850 -0.12200
H 	H 	0.75300 0.51790 0.90330 0.07200
C 	C 	0.75151 0.48660 0.96460 0.07600
C 	C 	0.76231 0.47160 0.99930 -0.09900
H 	H 	0.75670 0.45730 0.02420 0.06000
C 	C 	0.77990 0.47580 -0.00000 0.03100
H 	H 	0.78680 0.46230 0.02320 0.02600
C 	C 	0.73200 0.48140 0.96460 -0.05800
C 	C 	0.72173 0.48070 0.92440 0.04900
H 	H 	0.72740 0.48220 0.89590 0.01300
C 	C 	0.70393 0.47800 0.92730 -0.19000
H 	H 	0.69730 0.47890 0.90010 0.09900
C 	C 	0.69530 0.47420 0.96420 0.17100
C 	C 	0.57203 0.14870 0.10560 0.07200
H 	H 	0.56550 0.17620 0.10490 -0.00400
C 	C 	0.57769 0.04640 0.03490 0.08200
C 	C 	0.60548 0.26870 0.16730 0.40700
C 	C 	0.61675 0.29920 0.13740 -0.17200
C 	C 	0.62946 0.28260 0.10870 0.11200
H 	H 	0.63180 0.25100 0.10750 0.00500
C 	C 	0.63856 0.31100 0.08250 -0.18800
H 	H 	0.64700 0.29810 0.06240 0.09200
C 	C 	0.63691 0.35610 0.08170 0.13100
C 	C 	0.62348 0.37340 0.11090 -0.17400
H 	H 	0.62100 0.40490 0.11140 0.08600
C 	C 	0.61429 0.34480 0.13800 0.10100
H 	H 	0.60580 0.35700 0.15830 0.00400
C 	C 	0.64754 0.38550 0.05310 -0.10200
C 	C 	0.66425 0.37390 0.03430 0.08400
H 	H 	0.66950 0.34580 0.04230 -0.00100
C 	C 	0.67276 0.40030 0.00640 -0.21600
H 	H 	0.68360 0.38980 0.99370 0.11100
C 	C 	0.66673 0.44310 0.99450 0.18000
C 	C 	0.65070 0.45750 0.01340 -0.18100
H 	H 	0.64630 0.48690 0.00670 0.09200
C 	C 	0.64095 0.42920 0.04220 0.04900
H 	H 	0.62990 0.43930 0.05440 0.00900
N 	N 	0.67605 0.47010 0.96390 -0.18400
N 	N 	0.58294 0.14108 0.13980 -0.26100
N 	N 	0.58697 0.00857 0.02700 -0.09800
N 	N 	0.56775 0.01650 0.97210 -0.08800
N 	N 	0.56621 0.05130 0.00130 -0.09100
N 	N 	0.60035 0.98910 0.05430 -0.23200
H 	H 	0.60340 0.00200 0.07970 0.13700
H 	H 	0.60560 0.96390 0.04580 0.14300
N 	N 	0.59799 0.87150 0.92180 -0.25000
O 	O 	0.59452 0.65327 0.73550 -0.48300
O 	O 	0.60817 0.71348 0.76500 -0.46900
O 	O 	0.59775 0.28696 0.19980 -0.48000
O 	O 	0.60563 0.22745 0.15740 -0.49300
O 	O 	0.81377 0.53271 0.93570 -0.54400
O 	O 	0.81670 0.49660 0.99900 -0.50300
Zn	Zn	0.58733 0.19071 0.18550 1.22100
Zn	Zn	0.59303 0.27147 0.26790 1.21600
C 	C 	0.62087 0.33710 0.30360 0.39400
C 	C 	0.63223 0.36940 0.27730 -0.13500
C 	C 	0.63804 0.35670 0.23500 0.05700
H 	H 	0.63490 0.32810 0.22280 0.02900
C 	C 	0.64878 0.38700 0.21040 -0.12800
H 	H 	0.65280 0.37910 0.18110 0.08000
C 	C 	0.65353 0.42810 0.22850 0.08500
C 	C 	0.64833 0.44010 0.27090 -0.12900
H 	H 	0.65230 0.46780 0.28360 0.07500
C 	C 	0.63693 0.41100 0.29610 0.05300
H 	H 	0.63270 0.41960 0.32490 0.02800
C 	C 	0.66456 0.46100 0.20160 -0.04700
C 	C 	0.66129 0.46660 0.15470 0.01400
H 	H 	0.65220 0.44960 0.14010 0.02500
C 	C 	0.67122 0.49620 0.13150 -0.13400
H 	H 	0.66900 0.50060 0.10040 0.07900
C 	C 	0.68462 0.52050 0.15240 0.11900
C 	C 	0.68843 0.51470 0.19660 -0.13500
H 	H 	0.69810 0.53080 0.20950 0.08000
C 	C 	0.67868 0.48630 0.22300 0.01200
H 	H 	0.68110 0.48330 0.25420 0.02500
C 	C 	0.61905 0.76060 0.94320 0.30300
C 	C 	0.63077 0.72990 0.97110 -0.08600
C 	C 	0.64728 0.72330 0.95790 0.02100
H 	H 	0.65150 0.73660 0.93090 0.03400
C 	C 	0.65908 0.69530 0.98550 -0.10300
H 	H 	0.67120 0.69200 0.97710 0.06700
C 	C 	0.65321 0.67490 0.02110 0.06000
C 	C 	0.63487 0.68050 0.03440 -0.10400
H 	H 	0.63030 0.66640 0.06070 0.06300
C 	C 	0.62423 0.70710 0.00750 0.01300
H 	H 	0.61190 0.70980 0.01450 0.03800
C 	C 	0.66540 0.64420 0.04900 -0.04600
C 	C 	0.67929 0.62340 0.03160 0.01600
H 	H 	0.68270 0.63100 0.00180 0.01900
C 	C 	0.68929 0.59070 0.05410 -0.14500
H 	H 	0.69800 0.57290 0.03890 0.08100
C 	C 	0.68601 0.58560 0.09870 0.13000
C 	C 	0.67163 0.60970 0.11980 -0.13300
H 	H 	0.66920 0.60460 0.15070 0.08000
C 	C 	0.66187 0.63840 0.09750 0.01500
H 	H 	0.65270 0.65500 0.11200 0.02300
C 	C 	0.82510 0.48310 0.10550 0.35800
C 	C 	0.80561 0.49650 0.10830 -0.11700
C 	C 	0.79394 0.46820 0.13090 0.04900
H 	H 	0.79810 0.44160 0.14530 0.02600
C 	C 	0.77588 0.47970 0.13190 -0.13100
H 	H 	0.76770 0.46040 0.14700 0.07300
C 	C 	0.76979 0.51730 0.11220 0.08300
C 	C 	0.78120 0.54620 0.08980 -0.11800
H 	H 	0.77660 0.57260 0.07580 0.07100
C 	C 	0.80027 0.53620 0.08770 0.04100
H 	H 	0.80850 0.55570 0.07310 0.03100
C 	C 	0.75016 0.52840 0.11390 -0.04800
C 	C 	0.73813 0.49260 0.12210 0.01300
H 	H 	0.74250 0.46280 0.12640 0.02200
C 	C 	0.72017 0.50070 0.12400 -0.13700
H 	H 	0.71210 0.47640 0.12850 0.08000
C 	C 	0.71373 0.54480 0.11930 0.12900
C 	C 	0.72505 0.57890 0.11170 -0.13800
H 	H 	0.72050 0.60870 0.10870 0.08100
C 	C 	0.74397 0.57150 0.10810 0.01000
H 	H 	0.75190 0.59570 0.10180 0.02500
N 	N 	0.69508 0.55390 0.12520 -0.16700
O 	O 	0.83551 0.50433 0.08030 -0.45700
O 	O 	0.82948 0.45060 0.13080 -0.47900
O 	O 	0.61776 0.29896 0.28720 -0.45300
O 	O 	0.61601 0.35083 0.34100 -0.49400
O 	O 	0.62407 0.77708 0.90900 -0.46500
O 	O 	0.60249 0.76830 0.96060 -0.29800
Zn	Zn	0.60448 0.81473 0.88770 1.22500
C 	C 	0.57520 0.41490 0.45620 -0.08700
H 	H 	0.56320 0.41840 0.46600 0.06600
C 	C 	0.60807 0.40430 0.42880 0.10900
H 	H 	0.62000 0.40150 0.41850 -0.02100
C 	C 	0.64418 0.06000 0.38340 -0.06700
C 	C 	0.57960 0.37280 0.43460 0.01800
H 	H 	0.57140 0.34890 0.42960 0.03300
C 	C 	0.70398 0.97660 0.50560 -0.17000
H 	H 	0.69770 0.97650 0.53330 0.09000
C 	C 	0.58692 0.45140 0.46410 0.05600
C 	C 	0.58029 0.49170 0.48840 0.09000
C 	C 	0.66596 0.00200 0.43800 0.12500
C 	C 	0.72262 0.97940 0.50300 0.04600
H 	H 	0.72910 0.97980 0.53050 0.01700
C 	C 	0.65926 0.07500 0.40580 0.02400
H 	H 	0.66300 0.10540 0.40220 0.02300
C 	C 	0.60346 0.44650 0.45100 -0.13800
H 	H 	0.61210 0.46950 0.45580 0.09200
C 	C 	0.59194 0.60310 0.64110 0.09900
H 	H 	0.60000 0.59840 0.66530 -0.01300
C 	C 	0.60531 0.17230 0.26310 0.39100
C 	C 	0.61445 0.14230 0.29620 -0.15400
C 	C 	0.62135 0.15880 0.33550 0.09000
H 	H 	0.61950 0.18960 0.34290 0.01100
C 	C 	0.63068 0.13230 0.36390 -0.16000
H 	H 	0.63510 0.14510 0.39100 0.08800
C 	C 	0.63405 0.08710 0.35500 0.10800
C 	C 	0.62559 0.06940 0.31640 -0.14400
H 	H 	0.62660 0.03810 0.31000 0.08600
C 	C 	0.61583 0.09680 0.28740 0.07800
H 	H 	0.61020 0.08420 0.26170 0.01900
C 	C 	0.57903 0.57790 0.57240 0.06500
C 	C 	0.59031 0.57150 0.61050 -0.13600
H 	H 	0.59670 0.54400 0.61380 0.08200
C 	C 	0.66915 0.04580 0.43390 -0.14400
H 	H 	0.67870 0.05830 0.45100 0.08000
C 	C 	0.56980 0.61720 0.56980 -0.12300
H 	H 	0.56220 0.62350 0.54510 0.08200
C 	C 	0.65047 0.98290 0.41390 -0.13100
H 	H 	0.64760 0.95160 0.41500 0.07700
C 	C 	0.64078 0.01190 0.39060 0.02400
H 	H 	0.63030 -0.00000 0.37680 0.02200
C 	C 	0.80874 0.01120 0.46630 0.49200
C 	C 	0.78813 0.00100 0.46520 -0.15900
C 	C 	0.77799 0.01690 0.42930 0.08100
H 	H 	0.78350 0.03330 0.40560 0.01700
C 	C 	0.75991 0.00860 0.42850 -0.15300
H 	H 	0.75300 0.01790 0.40330 0.08200
C 	C 	0.75151 0.98660 0.46460 0.11200
C 	C 	0.76231 0.97160 0.49930 -0.16400
H 	H 	0.75670 0.95730 0.52420 0.08500
C 	C 	0.77990 0.97580 0.50000 0.09100
H 	H 	0.78680 0.96230 0.52320 0.00900
C 	C 	0.73200 0.98140 0.46460 -0.08700
C 	C 	0.72173 0.98070 0.42440 0.06400
H 	H 	0.72740 0.98220 0.39590 0.00700
C 	C 	0.70393 0.97800 0.42730 -0.19800
H 	H 	0.69730 0.97890 0.40010 0.10200
C 	C 	0.69530 0.97420 0.46420 0.16900
C 	C 	0.57203 0.64870 0.60560 0.07200
H 	H 	0.56550 0.67620 0.60490 -0.00400
C 	C 	0.57769 0.54640 0.53490 0.08400
C 	C 	0.60548 0.76870 0.66730 0.40500
C 	C 	0.61675 0.79920 0.63740 -0.16700
C 	C 	0.62946 0.78260 0.60870 0.10400
H 	H 	0.63180 0.75100 0.60750 0.00800
C 	C 	0.63856 0.81100 0.58250 -0.17700
H 	H 	0.64700 0.79810 0.56240 0.08900
C 	C 	0.63691 0.85610 0.58170 0.11800
C 	C 	0.62348 0.87340 0.61090 -0.16500
H 	H 	0.62100 0.90490 0.61140 0.08300
C 	C 	0.61429 0.84480 0.63800 0.09400
H 	H 	0.60580 0.85700 0.65830 0.00700
C 	C 	0.64754 0.88550 0.55310 -0.07800
C 	C 	0.66425 0.87390 0.53430 0.04700
H 	H 	0.66950 0.84580 0.54230 0.01200
C 	C 	0.67276 0.90030 0.50640 -0.16200
H 	H 	0.68360 0.88980 0.49370 0.08800
C 	C 	0.66673 0.94310 0.49450 0.14200
C 	C 	0.65070 0.95750 0.51340 -0.14800
H 	H 	0.64630 0.98690 0.50670 0.08400
C 	C 	0.64095 0.92920 0.54220 0.02700
H 	H 	0.62990 0.93930 0.55440 0.01800
N 	N 	0.67605 0.97010 0.46390 -0.17800
N 	N 	0.58294 0.64108 0.63980 -0.26100
N 	N 	0.58697 0.50857 0.52700 -0.09400
N 	N 	0.56775 0.51650 0.47210 -0.09000
N 	N 	0.56621 0.55130 0.50130 -0.08700
N 	N 	0.60035 0.48910 0.55430 -0.23200
H 	H 	0.60340 0.50200 0.57970 0.13800
H 	H 	0.60560 0.46390 0.54580 0.14500
N 	N 	0.59799 0.37150 0.42180 -0.25100
O 	O 	0.59452 0.15327 0.23550 -0.48300
O 	O 	0.60817 0.21348 0.26500 -0.46900
O 	O 	0.59775 0.78696 0.69980 -0.48000
O 	O 	0.60563 0.72745 0.65740 -0.49200
O 	O 	0.81377 0.03271 0.43570 -0.54800
O 	O 	0.81670 0.99660 0.49900 -0.51100
Zn	Zn	0.58733 0.69071 0.68550 1.22100
Zn	Zn	0.59303 0.77147 0.76790 1.21600
C 	C 	0.62087 0.83710 0.80360 0.39400
C 	C 	0.63223 0.86940 0.77730 -0.13500
C 	C 	0.63804 0.85670 0.73500 0.05700
H 	H 	0.63490 0.82810 0.72280 0.02900
C 	C 	0.64878 0.88700 0.71040 -0.12800
H 	H 	0.65280 0.87910 0.68110 0.08000
C 	C 	0.65353 0.92810 0.72850 0.08500
C 	C 	0.64833 0.94010 0.77090 -0.12900
H 	H 	0.65230 0.96780 0.78360 0.07500
C 	C 	0.63693 0.91100 0.79610 0.05300
H 	H 	0.63270 0.91960 0.82490 0.02800
C 	C 	0.66456 0.96100 0.70160 -0.04700
C 	C 	0.66129 0.96660 0.65470 0.01500
H 	H 	0.65220 0.94960 0.64010 0.02500
C 	C 	0.67122 0.99620 0.63150 -0.13400
H 	H 	0.66900 0.00060 0.60040 0.07900
C 	C 	0.68462 0.02050 0.65240 0.11900
C 	C 	0.68843 0.01470 0.69660 -0.13500
H 	H 	0.69810 0.03080 0.70950 0.08000
C 	C 	0.67868 0.98630 0.72300 0.01200
H 	H 	0.68110 0.98330 0.75420 0.02500
C 	C 	0.61905 0.26060 0.44320 0.31100
C 	C 	0.63077 0.22990 0.47110 -0.11200
C 	C 	0.64728 0.22330 0.45790 0.04400
H 	H 	0.65150 0.23660 0.43090 0.02600
C 	C 	0.65908 0.19530 0.48550 -0.13400
H 	H 	0.67120 0.19200 0.47710 0.07500
C 	C 	0.65321 0.17490 0.52110 0.08600
C 	C 	0.63487 0.18050 0.53440 -0.12500
H 	H 	0.63030 0.16640 0.56070 0.07100
C 	C 	0.62423 0.20710 0.50750 0.04200
H 	H 	0.61190 0.20980 0.51450 0.03100
C 	C 	0.66540 0.14420 0.54900 -0.05700
C 	C 	0.67929 0.12340 0.53160 0.02500
H 	H 	0.68270 0.13100 0.50180 0.01900
C 	C 	0.68929 0.09070 0.55410 -0.15000
H 	H 	0.69800 0.07290 0.53890 0.08300
C 	C 	0.68601 0.08560 0.59870 0.13300
C 	C 	0.67163 0.10970 0.61980 -0.13800
H 	H 	0.66920 0.10460 0.65070 0.08100
C 	C 	0.66187 0.13840 0.59750 0.02300
H 	H 	0.65270 0.15500 0.61200 0.02000
C 	C 	0.82510 0.98310 0.60550 0.35800
C 	C 	0.80561 0.99650 0.60830 -0.11600
C 	C 	0.79394 0.96820 0.63090 0.04900
H 	H 	0.79810 0.94160 0.64530 0.02600
C 	C 	0.77588 0.97970 0.63190 -0.13100
H 	H 	0.76770 0.96040 0.64700 0.07300
C 	C 	0.76979 0.01730 0.61220 0.08300
C 	C 	0.78120 0.04620 0.58980 -0.11700
H 	H 	0.77660 0.07260 0.57580 0.07200
C 	C 	0.80027 0.03620 0.58770 0.04200
H 	H 	0.80850 0.05570 0.57310 0.03200
C 	C 	0.75016 0.02840 0.61390 -0.04800
C 	C 	0.73813 0.99260 0.62210 0.01300
H 	H 	0.74250 0.96280 0.62640 0.02200
C 	C 	0.72017 0.00070 0.62400 -0.13700
H 	H 	0.71210 0.97640 0.62850 0.08000
C 	C 	0.71373 0.04480 0.61930 0.13000
C 	C 	0.72505 0.07890 0.61170 -0.13800
H 	H 	0.72050 0.10870 0.60870 0.08100
C 	C 	0.74397 0.07150 0.60810 0.01000
H 	H 	0.75190 0.09570 0.60180 0.02600
N 	N 	0.69508 0.05390 0.62520 -0.16800
O 	O 	0.83551 0.00433 0.58030 -0.45600
O 	O 	0.82948 0.95060 0.63080 -0.47900
O 	O 	0.61776 0.79896 0.78720 -0.45300
O 	O 	0.61601 0.85083 0.84100 -0.49400
O 	O 	0.62407 0.27708 0.40900 -0.46800
O 	O 	0.60249 0.26830 0.46060 -0.30200
Zn	Zn	0.60448 0.31473 0.38770 1.22500
C 	C 	0.32520 0.33510 0.70620 -0.08700
H 	H 	0.31320 0.33160 0.71600 0.06600
C 	C 	0.35807 0.34570 0.67880 0.10900
H 	H 	0.37000 0.34850 0.66850 -0.02100
C 	C 	0.39418 0.69000 0.63340 -0.06700
C 	C 	0.32960 0.37720 0.68460 0.01800
H 	H 	0.32140 0.40110 0.67960 0.03300
C 	C 	0.45398 0.77340 0.75560 -0.17000
H 	H 	0.44770 0.77350 0.78330 0.09000
C 	C 	0.33692 0.29860 0.71410 0.05600
C 	C 	0.33029 0.25830 0.73840 0.09000
C 	C 	0.41596 0.74800 0.68800 0.12500
C 	C 	0.47262 0.77060 0.75300 0.04600
H 	H 	0.47910 0.77020 0.78050 0.01700
C 	C 	0.40926 0.67500 0.65580 0.02400
H 	H 	0.41300 0.64460 0.65220 0.02300
C 	C 	0.35346 0.30350 0.70100 -0.13800
H 	H 	0.36210 0.28050 0.70580 0.09200
C 	C 	0.34194 0.14690 0.89110 0.09900
H 	H 	0.35000 0.15160 0.91530 -0.01200
C 	C 	0.35531 0.57770 0.51310 0.39100
C 	C 	0.36445 0.60770 0.54620 -0.15400
C 	C 	0.37135 0.59120 0.58550 0.09000
H 	H 	0.36950 0.56040 0.59290 0.01100
C 	C 	0.38068 0.61770 0.61390 -0.16000
H 	H 	0.38510 0.60490 0.64100 0.08800
C 	C 	0.38405 0.66290 0.60500 0.10900
C 	C 	0.37559 0.68060 0.56640 -0.14400
H 	H 	0.37660 0.71190 0.56000 0.08600
C 	C 	0.36583 0.65320 0.53740 0.07800
H 	H 	0.36020 0.66580 0.51170 0.01900
C 	C 	0.32903 0.17210 0.82240 0.06500
C 	C 	0.34031 0.17850 0.86050 -0.13500
H 	H 	0.34670 0.20600 0.86380 0.08200
C 	C 	0.41915 0.70420 0.68390 -0.14400
H 	H 	0.42870 0.69170 0.70100 0.08100
C 	C 	0.31980 0.13280 0.81980 -0.12300
H 	H 	0.31220 0.12650 0.79510 0.08200
C 	C 	0.40047 0.76710 0.66390 -0.13200
H 	H 	0.39760 0.79840 0.66500 0.07800
C 	C 	0.39078 0.73810 0.64060 0.02400
H 	H 	0.38030 0.75000 0.62680 0.02200
C 	C 	0.55874 0.73880 0.71630 0.49200
C 	C 	0.53813 0.74900 0.71520 -0.15800
C 	C 	0.52799 0.73310 0.67930 0.08100
H 	H 	0.53350 0.71670 0.65560 0.01700
C 	C 	0.50991 0.74140 0.67850 -0.15300
H 	H 	0.50300 0.73210 0.65330 0.08200
C 	C 	0.50151 0.76340 0.71460 0.11200
C 	C 	0.51231 0.77840 0.74930 -0.16300
H 	H 	0.50670 0.79270 0.77420 0.08500
C 	C 	0.52990 0.77420 0.75000 0.09100
H 	H 	0.53680 0.78770 0.77320 0.00900
C 	C 	0.48200 0.76860 0.71460 -0.08700
C 	C 	0.47173 0.76930 0.67440 0.06300
H 	H 	0.47740 0.76780 0.64590 0.00700
C 	C 	0.45393 0.77200 0.67730 -0.19800
H 	H 	0.44730 0.77110 0.65010 0.10200
C 	C 	0.44530 0.77580 0.71420 0.16900
C 	C 	0.32203 0.10130 0.85560 0.07300
H 	H 	0.31550 0.07380 0.85490 -0.00400
C 	C 	0.32769 0.20360 0.78490 0.08400
C 	C 	0.35548 0.98130 0.91730 0.40500
C 	C 	0.36675 0.95080 0.88740 -0.16600
C 	C 	0.37946 0.96740 0.85870 0.10400
H 	H 	0.38180 0.99900 0.85750 0.00800
C 	C 	0.38856 0.93900 0.83250 -0.17700
H 	H 	0.39700 0.95190 0.81240 0.08900
C 	C 	0.38691 0.89390 0.83170 0.11800
C 	C 	0.37348 0.87660 0.86090 -0.16400
H 	H 	0.37100 0.84510 0.86140 0.08400
C 	C 	0.36429 0.90520 0.88800 0.09400
H 	H 	0.35580 0.89300 0.90830 0.00800
C 	C 	0.39754 0.86450 0.80310 -0.07800
C 	C 	0.41425 0.87610 0.78430 0.04700
H 	H 	0.41950 0.90420 0.79230 0.01300
C 	C 	0.42276 0.84970 0.75640 -0.16200
H 	H 	0.43360 0.86020 0.74370 0.08800
C 	C 	0.41673 0.80690 0.74450 0.14200
C 	C 	0.40070 0.79250 0.76340 -0.14800
H 	H 	0.39630 0.76310 0.75670 0.08400
C 	C 	0.39095 0.82080 0.79220 0.02600
H 	H 	0.37990 0.81070 0.80440 0.01800
N 	N 	0.42605 0.77990 0.71390 -0.17800
N 	N 	0.33294 0.10892 0.88980 -0.26100
N 	N 	0.33697 0.24143 0.77700 -0.09400
N 	N 	0.31775 0.23350 0.72210 -0.09000
N 	N 	0.31621 0.19870 0.75130 -0.08700
N 	N 	0.35035 0.26090 0.80430 -0.23200
H 	H 	0.35340 0.24800 0.82970 0.13800
H 	H 	0.35560 0.28610 0.79580 0.14500
N 	N 	0.34799 0.37850 0.67180 -0.25100
O 	O 	0.34452 0.59673 0.48550 -0.48300
O 	O 	0.35817 0.53652 0.51500 -0.46900
O 	O 	0.34775 0.96304 0.94980 -0.47700
O 	O 	0.35563 0.02255 0.90740 -0.49200
O 	O 	0.56377 0.71729 0.68570 -0.54800
O 	O 	0.56670 0.75340 0.74900 -0.51100
Zn	Zn	0.33733 0.05929 0.93550 1.22200
Zn	Zn	0.34303 0.97853 0.01790 1.21400
C 	C 	0.37087 0.91290 0.05360 0.40000
C 	C 	0.38223 0.88060 0.02730 -0.15700
C 	C 	0.38804 0.89330 0.98500 0.08300
H 	H 	0.38490 0.92190 0.97280 0.02200
C 	C 	0.39878 0.86300 0.96040 -0.14800
H 	H 	0.40280 0.87090 0.93110 0.08800
C 	C 	0.40353 0.82190 0.97850 0.11100
C 	C 	0.39833 0.80990 0.02090 -0.15600
H 	H 	0.40230 0.78220 0.03360 0.08200
C 	C 	0.38693 0.83900 0.04610 0.07200
H 	H 	0.38270 0.83040 0.07490 0.02200
C 	C 	0.41456 0.78900 0.95160 -0.06400
C 	C 	0.41129 0.78340 0.90470 0.02800
H 	H 	0.40220 0.80040 0.89010 0.02100
C 	C 	0.42122 0.75380 0.88150 -0.14500
H 	H 	0.41900 0.74940 0.85040 0.08300
C 	C 	0.43462 0.72950 0.90240 0.12900
C 	C 	0.43843 0.73530 0.94660 -0.15200
H 	H 	0.44810 0.71920 0.95950 0.08700
C 	C 	0.42868 0.76370 0.97300 0.03900
H 	H 	0.43110 0.76670 0.00420 0.01000
C 	C 	0.36905 0.48940 0.69320 0.31100
C 	C 	0.38077 0.52010 0.72110 -0.11200
C 	C 	0.39728 0.52670 0.70790 0.04400
H 	H 	0.40150 0.51340 0.68090 0.02600
C 	C 	0.40908 0.55470 0.73550 -0.13400
H 	H 	0.42120 0.55800 0.72710 0.07500
C 	C 	0.40321 0.57510 0.77110 0.08600
C 	C 	0.38487 0.56950 0.78440 -0.12500
H 	H 	0.38030 0.58360 0.81070 0.07200
C 	C 	0.37423 0.54290 0.75750 0.04200
H 	H 	0.36190 0.54020 0.76450 0.03100
C 	C 	0.41540 0.60580 0.79900 -0.05700
C 	C 	0.42929 0.62660 0.78160 0.02600
H 	H 	0.43270 0.61900 0.75180 0.01900
C 	C 	0.43929 0.65930 0.80410 -0.15000
H 	H 	0.44800 0.67710 0.78890 0.08300
C 	C 	0.43601 0.66440 0.84870 0.13400
C 	C 	0.42163 0.64030 0.86980 -0.13900
H 	H 	0.41920 0.64540 0.90070 0.08200
C 	C 	0.41187 0.61160 0.84750 0.02300
H 	H 	0.40270 0.59500 0.86200 0.02100
C 	C 	0.57510 0.76690 0.85550 0.35800
C 	C 	0.55561 0.75350 0.85830 -0.11600
C 	C 	0.54394 0.78180 0.88090 0.05000
H 	H 	0.54810 0.80840 0.89530 0.02700
C 	C 	0.52588 0.77030 0.88190 -0.13100
H 	H 	0.51770 0.78960 0.89700 0.07400
C 	C 	0.51979 0.73270 0.86220 0.08300
C 	C 	0.53120 0.70380 0.83980 -0.11700
H 	H 	0.52660 0.67740 0.82580 0.07200
C 	C 	0.55027 0.71380 0.83770 0.04200
H 	H 	0.55850 0.69430 0.82310 0.03200
C 	C 	0.50016 0.72160 0.86390 -0.04700
C 	C 	0.48813 0.75740 0.87210 0.01300
H 	H 	0.49250 0.78720 0.87640 0.02200
C 	C 	0.47017 0.74930 0.87400 -0.13700
H 	H 	0.46210 0.77360 0.87850 0.08000
C 	C 	0.46373 0.70520 0.86930 0.13000
C 	C 	0.47505 0.67110 0.86170 -0.13800
H 	H 	0.47050 0.64130 0.85870 0.08100
C 	C 	0.49397 0.67850 0.85810 0.01000
H 	H 	0.50190 0.65430 0.85180 0.02600
N 	N 	0.44508 0.69610 0.87520 -0.16900
O 	O 	0.58551 0.74567 0.83030 -0.45600
O 	O 	0.57948 0.79940 0.88080 -0.47800
O 	O 	0.36776 0.95104 0.03720 -0.45700
O 	O 	0.36601 0.89917 0.09100 -0.49600
O 	O 	0.37407 0.47292 0.65900 -0.46800
O 	O 	0.35249 0.48170 0.71060 -0.30200
Zn	Zn	0.35448 0.43527 0.63770 1.22500
C 	C 	0.32520 0.83510 0.20620 -0.08700
H 	H 	0.31320 0.83160 0.21600 0.06600
C 	C 	0.35807 0.84570 0.17880 0.10900
H 	H 	0.37000 0.84850 0.16850 -0.02100
C 	C 	0.39418 0.19000 0.13340 -0.06700
C 	C 	0.32960 0.87720 0.18460 0.01800
H 	H 	0.32140 0.90110 0.17960 0.03300
C 	C 	0.45398 0.27340 0.25560 -0.17000
H 	H 	0.44770 0.27350 0.28330 0.09000
C 	C 	0.33692 0.79860 0.21410 0.05500
C 	C 	0.33029 0.75830 0.23840 0.09000
C 	C 	0.41596 0.24800 0.18800 0.12500
C 	C 	0.47262 0.27060 0.25300 0.04600
H 	H 	0.47910 0.27020 0.28050 0.01700
C 	C 	0.40926 0.17500 0.15580 0.02300
H 	H 	0.41300 0.14460 0.15220 0.02300
C 	C 	0.35346 0.80350 0.20100 -0.13800
H 	H 	0.36210 0.78050 0.20580 0.09200
C 	C 	0.34194 0.64690 0.39110 0.09900
H 	H 	0.35000 0.65160 0.41530 -0.01300
C 	C 	0.35531 0.07770 0.01310 0.38200
C 	C 	0.36445 0.10770 0.04620 -0.15200
C 	C 	0.37135 0.09120 0.08550 0.08800
H 	H 	0.36950 0.06040 0.09290 0.01200
C 	C 	0.38068 0.11770 0.11390 -0.15900
H 	H 	0.38510 0.10490 0.14100 0.08700
C 	C 	0.38405 0.16290 0.10500 0.10700
C 	C 	0.37559 0.18060 0.06640 -0.14400
H 	H 	0.37660 0.21190 0.06000 0.08500
C 	C 	0.36583 0.15320 0.03740 0.07500
H 	H 	0.36020 0.16580 0.01170 0.01700
C 	C 	0.32903 0.67210 0.32240 0.06500
C 	C 	0.34031 0.67850 0.36050 -0.13600
H 	H 	0.34670 0.70600 0.36380 0.08200
C 	C 	0.41915 0.20420 0.18390 -0.14400
H 	H 	0.42870 0.19170 0.20100 0.08000
C 	C 	0.31980 0.63280 0.31980 -0.12300
H 	H 	0.31220 0.62650 0.29510 0.08200
C 	C 	0.40047 0.26710 0.16390 -0.13200
H 	H 	0.39760 0.29840 0.16500 0.07700
C 	C 	0.39078 0.23810 0.14060 0.02400
H 	H 	0.38030 0.25000 0.12680 0.02200
C 	C 	0.55874 0.23880 0.21630 0.49200
C 	C 	0.53813 0.24900 0.21520 -0.15800
C 	C 	0.52799 0.23310 0.17930 0.08000
H 	H 	0.53350 0.21670 0.15560 0.01700
C 	C 	0.50991 0.24140 0.17850 -0.15300
H 	H 	0.50300 0.23210 0.15330 0.08100
C 	C 	0.50151 0.26340 0.21460 0.11100
C 	C 	0.51231 0.27840 0.24930 -0.16300
H 	H 	0.50670 0.29270 0.27420 0.08500
C 	C 	0.52990 0.27420 0.25000 0.09100
H 	H 	0.53680 0.28770 0.27320 0.00900
C 	C 	0.48200 0.26860 0.21460 -0.08700
C 	C 	0.47173 0.26930 0.17440 0.06300
H 	H 	0.47740 0.26780 0.14590 0.00600
C 	C 	0.45393 0.27200 0.17730 -0.19800
H 	H 	0.44730 0.27110 0.15010 0.10100
C 	C 	0.44530 0.27580 0.21420 0.16900
C 	C 	0.32203 0.60130 0.35560 0.07200
H 	H 	0.31550 0.57380 0.35490 -0.00400
C 	C 	0.32769 0.70360 0.28490 0.08400
C 	C 	0.35548 0.48130 0.41730 0.40500
C 	C 	0.36675 0.45080 0.38740 -0.16700
C 	C 	0.37946 0.46740 0.35870 0.10400
H 	H 	0.38180 0.49900 0.35750 0.00800
C 	C 	0.38856 0.43900 0.33250 -0.17700
H 	H 	0.39700 0.45190 0.31240 0.08900
C 	C 	0.38691 0.39390 0.33170 0.11800
C 	C 	0.37348 0.37660 0.36090 -0.16500
H 	H 	0.37100 0.34510 0.36140 0.08300
C 	C 	0.36429 0.40520 0.38800 0.09400
H 	H 	0.35580 0.39300 0.40830 0.00700
C 	C 	0.39754 0.36450 0.30310 -0.07800
C 	C 	0.41425 0.37610 0.28430 0.04700
H 	H 	0.41950 0.40420 0.29230 0.01200
C 	C 	0.42276 0.34970 0.25640 -0.16200
H 	H 	0.43360 0.36020 0.24370 0.08800
C 	C 	0.41673 0.30690 0.24450 0.14200
C 	C 	0.40070 0.29250 0.26340 -0.14800
H 	H 	0.39630 0.26310 0.25670 0.08400
C 	C 	0.39095 0.32080 0.29220 0.02600
H 	H 	0.37990 0.31070 0.30440 0.01800
N 	N 	0.42605 0.27990 0.21390 -0.17800
N 	N 	0.33294 0.60892 0.38980 -0.26100
N 	N 	0.33697 0.74143 0.27700 -0.09400
N 	N 	0.31775 0.73350 0.22210 -0.09000
N 	N 	0.31621 0.69870 0.25130 -0.08700
N 	N 	0.35035 0.76090 0.30430 -0.23200
H 	H 	0.35340 0.74800 0.32970 0.13800
H 	H 	0.35560 0.78610 0.29580 0.14500
N 	N 	0.34799 0.87850 0.17180 -0.25100
O 	O 	0.34452 0.09673 0.98550 -0.47500
O 	O 	0.35817 0.03652 0.01500 -0.46900
O 	O 	0.34775 0.46304 0.44980 -0.48000
O 	O 	0.35563 0.52255 0.40740 -0.49200
O 	O 	0.56377 0.21729 0.18570 -0.54800
O 	O 	0.56670 0.25340 0.24900 -0.51100
Zn	Zn	0.33733 0.55929 0.43550 1.22100
Zn	Zn	0.34303 0.47853 0.51790 1.21600
C 	C 	0.37087 0.41290 0.55360 0.39400
C 	C 	0.38223 0.38060 0.52730 -0.13500
C 	C 	0.38804 0.39330 0.48500 0.05700
H 	H 	0.38490 0.42190 0.47280 0.02900
C 	C 	0.39878 0.36300 0.46040 -0.12800
H 	H 	0.40280 0.37090 0.43110 0.08000
C 	C 	0.40353 0.32190 0.47850 0.08500
C 	C 	0.39833 0.30990 0.52090 -0.12900
H 	H 	0.40230 0.28220 0.53360 0.07500
C 	C 	0.38693 0.33900 0.54610 0.05300
H 	H 	0.38270 0.33040 0.57490 0.02800
C 	C 	0.41456 0.28900 0.45160 -0.04700
C 	C 	0.41129 0.28340 0.40470 0.01500
H 	H 	0.40220 0.30040 0.39010 0.02500
C 	C 	0.42122 0.25380 0.38150 -0.13400
H 	H 	0.41900 0.24940 0.35040 0.08000
C 	C 	0.43462 0.22950 0.40240 0.11900
C 	C 	0.43843 0.23530 0.44660 -0.13500
H 	H 	0.44810 0.21920 0.45950 0.08000
C 	C 	0.42868 0.26370 0.47300 0.01200
H 	H 	0.43110 0.26670 0.50420 0.02500
C 	C 	0.36905 0.98940 0.19320 0.31100
C 	C 	0.38077 0.02010 0.22110 -0.11200
C 	C 	0.39728 0.02670 0.20790 0.04400
H 	H 	0.40150 0.01340 0.18090 0.02600
C 	C 	0.40908 0.05470 0.23550 -0.13400
H 	H 	0.42120 0.05800 0.22710 0.07500
C 	C 	0.40321 0.07510 0.27110 0.08600
C 	C 	0.38487 0.06950 0.28440 -0.12500
H 	H 	0.38030 0.08360 0.31070 0.07100
C 	C 	0.37423 0.04290 0.25750 0.04200
H 	H 	0.36190 0.04020 0.26450 0.03100
C 	C 	0.41540 0.10580 0.29900 -0.05700
C 	C 	0.42929 0.12660 0.28160 0.02500
H 	H 	0.43270 0.11900 0.25180 0.01800
C 	C 	0.43929 0.15930 0.30410 -0.15000
H 	H 	0.44800 0.17710 0.28890 0.08300
C 	C 	0.43601 0.16440 0.34870 0.13300
C 	C 	0.42163 0.14030 0.36980 -0.13800
H 	H 	0.41920 0.14540 0.40070 0.08100
C 	C 	0.41187 0.11160 0.34750 0.02300
H 	H 	0.40270 0.09500 0.36200 0.02000
C 	C 	0.57510 0.26690 0.35550 0.35800
C 	C 	0.55561 0.25350 0.35830 -0.11600
C 	C 	0.54394 0.28180 0.38090 0.04900
H 	H 	0.54810 0.30840 0.39530 0.02600
C 	C 	0.52588 0.27030 0.38190 -0.13100
H 	H 	0.51770 0.28960 0.39700 0.07300
C 	C 	0.51979 0.23270 0.36220 0.08300
C 	C 	0.53120 0.20380 0.33980 -0.11700
H 	H 	0.52660 0.17740 0.32580 0.07200
C 	C 	0.55027 0.21380 0.33770 0.04200
H 	H 	0.55850 0.19430 0.32310 0.03200
C 	C 	0.50016 0.22160 0.36390 -0.04700
C 	C 	0.48813 0.25740 0.37210 0.01300
H 	H 	0.49250 0.28720 0.37640 0.02200
C 	C 	0.47017 0.24930 0.37400 -0.13700
H 	H 	0.46210 0.27360 0.37850 0.08000
C 	C 	0.46373 0.20520 0.36930 0.13000
C 	C 	0.47505 0.17110 0.36170 -0.13800
H 	H 	0.47050 0.14130 0.35870 0.08100
C 	C 	0.49397 0.17850 0.35810 0.01000
H 	H 	0.50190 0.15430 0.35180 0.02600
N 	N 	0.44508 0.19610 0.37520 -0.16800
O 	O 	0.58551 0.24567 0.33030 -0.45600
O 	O 	0.57948 0.29940 0.38080 -0.47900
O 	O 	0.36776 0.45104 0.53720 -0.45300
O 	O 	0.36601 0.39917 0.59100 -0.49400
O 	O 	0.37407 0.97292 0.15900 -0.46800
O 	O 	0.35249 0.98170 0.21060 -0.30200
Zn	Zn	0.35448 0.93527 0.13770 1.22500
C 	C 	0.82520 0.33510 0.20620 -0.08700
H 	H 	0.81320 0.33160 0.21600 0.06600
C 	C 	0.85807 0.34570 0.17880 0.10900
H 	H 	0.87000 0.34850 0.16850 -0.02100
C 	C 	0.89418 0.69000 0.13340 -0.06700
C 	C 	0.82960 0.37720 0.18460 0.01800
H 	H 	0.82140 0.40110 0.17960 0.03300
C 	C 	0.95398 0.77340 0.25560 -0.17000
H 	H 	0.94770 0.77350 0.28330 0.09000
C 	C 	0.83692 0.29860 0.21410 0.05500
C 	C 	0.83029 0.25830 0.23840 0.09000
C 	C 	0.91596 0.74800 0.18800 0.12500
C 	C 	0.97262 0.77060 0.25300 0.04600
H 	H 	0.97910 0.77020 0.28050 0.01700
C 	C 	0.90926 0.67500 0.15580 0.02300
H 	H 	0.91300 0.64460 0.15220 0.02300
C 	C 	0.85346 0.30350 0.20100 -0.13800
H 	H 	0.86210 0.28050 0.20580 0.09200
C 	C 	0.84194 0.14690 0.39110 0.09900
H 	H 	0.85000 0.15160 0.41530 -0.01300
C 	C 	0.85531 0.57770 0.01310 0.38200
C 	C 	0.86445 0.60770 0.04620 -0.15200
C 	C 	0.87135 0.59120 0.08550 0.08800
H 	H 	0.86950 0.56040 0.09290 0.01200
C 	C 	0.88068 0.61770 0.11390 -0.15900
H 	H 	0.88510 0.60490 0.14100 0.08700
C 	C 	0.88405 0.66290 0.10500 0.10700
C 	C 	0.87559 0.68060 0.06640 -0.14400
H 	H 	0.87660 0.71190 0.06000 0.08500
C 	C 	0.86583 0.65320 0.03740 0.07500
H 	H 	0.86020 0.66580 0.01170 0.01700
C 	C 	0.82903 0.17210 0.32240 0.06500
C 	C 	0.84031 0.17850 0.36050 -0.13600
H 	H 	0.84670 0.20600 0.36380 0.08200
C 	C 	0.91915 0.70420 0.18390 -0.14400
H 	H 	0.92870 0.69170 0.20100 0.08000
C 	C 	0.81980 0.13280 0.31980 -0.12300
H 	H 	0.81220 0.12650 0.29510 0.08200
C 	C 	0.90047 0.76710 0.16390 -0.13200
H 	H 	0.89760 0.79840 0.16500 0.07700
C 	C 	0.89078 0.73810 0.14060 0.02400
H 	H 	0.88030 0.75000 0.12680 0.02200
C 	C 	0.05874 0.73880 0.21630 0.49200
C 	C 	0.03813 0.74900 0.21520 -0.15800
C 	C 	0.02799 0.73310 0.17930 0.08000
H 	H 	0.03350 0.71670 0.15560 0.01700
C 	C 	0.00991 0.74140 0.17850 -0.15300
H 	H 	0.00300 0.73210 0.15330 0.08100
C 	C 	0.00151 0.76340 0.21460 0.11100
C 	C 	0.01231 0.77840 0.24930 -0.16300
H 	H 	0.00670 0.79270 0.27420 0.08500
C 	C 	0.02990 0.77420 0.25000 0.09100
H 	H 	0.03680 0.78770 0.27320 0.00900
C 	C 	0.98200 0.76860 0.21460 -0.08700
C 	C 	0.97173 0.76930 0.17440 0.06300
H 	H 	0.97740 0.76780 0.14590 0.00600
C 	C 	0.95393 0.77200 0.17730 -0.19800
H 	H 	0.94730 0.77110 0.15010 0.10100
C 	C 	0.94530 0.77580 0.21420 0.16900
C 	C 	0.82203 0.10130 0.35560 0.07200
H 	H 	0.81550 0.07380 0.35490 -0.00400
C 	C 	0.82769 0.20360 0.28490 0.08400
C 	C 	0.85548 0.98130 0.41730 0.40500
C 	C 	0.86675 0.95080 0.38740 -0.16700
C 	C 	0.87946 0.96740 0.35870 0.10400
H 	H 	0.88180 0.99900 0.35750 0.00800
C 	C 	0.88856 0.93900 0.33250 -0.17700
H 	H 	0.89700 0.95190 0.31240 0.08900
C 	C 	0.88691 0.89390 0.33170 0.11800
C 	C 	0.87348 0.87660 0.36090 -0.16500
H 	H 	0.87100 0.84510 0.36140 0.08300
C 	C 	0.86429 0.90520 0.38800 0.09400
H 	H 	0.85580 0.89300 0.40830 0.00700
C 	C 	0.89754 0.86450 0.30310 -0.07800
C 	C 	0.91425 0.87610 0.28430 0.04700
H 	H 	0.91950 0.90420 0.29230 0.01200
C 	C 	0.92276 0.84970 0.25640 -0.16200
H 	H 	0.93360 0.86020 0.24370 0.08800
C 	C 	0.91673 0.80690 0.24450 0.14200
C 	C 	0.90070 0.79250 0.26340 -0.14800
H 	H 	0.89630 0.76310 0.25670 0.08400
C 	C 	0.89095 0.82080 0.29220 0.02600
H 	H 	0.87990 0.81070 0.30440 0.01800
N 	N 	0.92605 0.77990 0.21390 -0.17800
N 	N 	0.83294 0.10892 0.38980 -0.26100
N 	N 	0.83697 0.24143 0.27700 -0.09400
N 	N 	0.81775 0.23350 0.22210 -0.09000
N 	N 	0.81621 0.19870 0.25130 -0.08700
N 	N 	0.85035 0.26090 0.30430 -0.23200
H 	H 	0.85340 0.24800 0.32970 0.13800
H 	H 	0.85560 0.28610 0.29580 0.14500
N 	N 	0.84799 0.37850 0.17180 -0.25100
O 	O 	0.84452 0.59673 0.98550 -0.47500
O 	O 	0.85817 0.53652 0.01500 -0.46900
O 	O 	0.84775 0.96304 0.44980 -0.48000
O 	O 	0.85563 0.02255 0.40740 -0.49200
O 	O 	0.06377 0.71729 0.18570 -0.54800
O 	O 	0.06670 0.75340 0.24900 -0.51100
Zn	Zn	0.83733 0.05929 0.43550 1.22100
Zn	Zn	0.84303 0.97853 0.51790 1.21600
C 	C 	0.87087 0.91290 0.55360 0.39400
C 	C 	0.88223 0.88060 0.52730 -0.13500
C 	C 	0.88804 0.89330 0.48500 0.05700
H 	H 	0.88490 0.92190 0.47280 0.02900
C 	C 	0.89878 0.86300 0.46040 -0.12800
H 	H 	0.90280 0.87090 0.43110 0.08000
C 	C 	0.90353 0.82190 0.47850 0.08500
C 	C 	0.89833 0.80990 0.52090 -0.12900
H 	H 	0.90230 0.78220 0.53360 0.07500
C 	C 	0.88693 0.83900 0.54610 0.05300
H 	H 	0.88270 0.83040 0.57490 0.02800
C 	C 	0.91456 0.78900 0.45160 -0.04700
C 	C 	0.91129 0.78340 0.40470 0.01500
H 	H 	0.90220 0.80040 0.39010 0.02500
C 	C 	0.92122 0.75380 0.38150 -0.13400
H 	H 	0.91900 0.74940 0.35040 0.08000
C 	C 	0.93462 0.72950 0.40240 0.11900
C 	C 	0.93843 0.73530 0.44660 -0.13500
H 	H 	0.94810 0.71920 0.45950 0.08000
C 	C 	0.92868 0.76370 0.47300 0.01200
H 	H 	0.93110 0.76670 0.50420 0.02500
C 	C 	0.86905 0.48940 0.19320 0.31100
C 	C 	0.88077 0.52010 0.22110 -0.11200
C 	C 	0.89728 0.52670 0.20790 0.04400
H 	H 	0.90150 0.51340 0.18090 0.02600
C 	C 	0.90908 0.55470 0.23550 -0.13400
H 	H 	0.92120 0.55800 0.22710 0.07500
C 	C 	0.90321 0.57510 0.27110 0.08600
C 	C 	0.88487 0.56950 0.28440 -0.12500
H 	H 	0.88030 0.58360 0.31070 0.07100
C 	C 	0.87423 0.54290 0.25750 0.04200
H 	H 	0.86190 0.54020 0.26450 0.03100
C 	C 	0.91540 0.60580 0.29900 -0.05700
C 	C 	0.92929 0.62660 0.28160 0.02500
H 	H 	0.93270 0.61900 0.25180 0.01800
C 	C 	0.93929 0.65930 0.30410 -0.15000
H 	H 	0.94800 0.67710 0.28890 0.08300
C 	C 	0.93601 0.66440 0.34870 0.13300
C 	C 	0.92163 0.64030 0.36980 -0.13800
H 	H 	0.91920 0.64540 0.40070 0.08100
C 	C 	0.91187 0.61160 0.34750 0.02300
H 	H 	0.90270 0.59500 0.36200 0.02000
C 	C 	0.07510 0.76690 0.35550 0.35800
C 	C 	0.05561 0.75350 0.35830 -0.11600
C 	C 	0.04394 0.78180 0.38090 0.04900
H 	H 	0.04810 0.80840 0.39530 0.02600
C 	C 	0.02588 0.77030 0.38190 -0.13100
H 	H 	0.01770 0.78960 0.39700 0.07300
C 	C 	0.01979 0.73270 0.36220 0.08300
C 	C 	0.03120 0.70380 0.33980 -0.11700
H 	H 	0.02660 0.67740 0.32580 0.07200
C 	C 	0.05027 0.71380 0.33770 0.04200
H 	H 	0.05850 0.69430 0.32310 0.03200
C 	C 	0.00016 0.72160 0.36390 -0.04700
C 	C 	0.98813 0.75740 0.37210 0.01300
H 	H 	0.99250 0.78720 0.37640 0.02200
C 	C 	0.97017 0.74930 0.37400 -0.13700
H 	H 	0.96210 0.77360 0.37850 0.08000
C 	C 	0.96373 0.70520 0.36930 0.13000
C 	C 	0.97505 0.67110 0.36170 -0.13800
H 	H 	0.97050 0.64130 0.35870 0.08100
C 	C 	0.99397 0.67850 0.35810 0.01000
H 	H 	0.00190 0.65430 0.35180 0.02600
N 	N 	0.94508 0.69610 0.37520 -0.16800
O 	O 	0.08551 0.74567 0.33030 -0.45600
O 	O 	0.07948 0.79940 0.38080 -0.47900
O 	O 	0.86776 0.95104 0.53720 -0.45300
O 	O 	0.86601 0.89917 0.59100 -0.49400
O 	O 	0.87407 0.47292 0.15900 -0.46800
O 	O 	0.85249 0.48170 0.21060 -0.30200
Zn	Zn	0.85448 0.43527 0.13770 1.22500
C 	C 	0.82520 0.83510 0.70620 -0.08700
H 	H 	0.81320 0.83160 0.71600 0.06600
C 	C 	0.85807 0.84570 0.67880 0.10900
H 	H 	0.87000 0.84850 0.66850 -0.02100
C 	C 	0.89418 0.19000 0.63340 -0.06700
C 	C 	0.82960 0.87720 0.68460 0.01800
H 	H 	0.82140 0.90110 0.67960 0.03300
C 	C 	0.95398 0.27340 0.75560 -0.17000
H 	H 	0.94770 0.27350 0.78330 0.09000
C 	C 	0.83692 0.79860 0.71410 0.05600
C 	C 	0.83029 0.75830 0.73840 0.09000
C 	C 	0.91596 0.24800 0.68800 0.12500
C 	C 	0.97262 0.27060 0.75300 0.04600
H 	H 	0.97910 0.27020 0.78050 0.01700
C 	C 	0.90926 0.17500 0.65580 0.02400
H 	H 	0.91300 0.14460 0.65220 0.02300
C 	C 	0.85346 0.80350 0.70100 -0.13800
H 	H 	0.86210 0.78050 0.70580 0.09200
C 	C 	0.84194 0.64690 0.89110 0.09900
H 	H 	0.85000 0.65160 0.91530 -0.01200
C 	C 	0.85531 0.07770 0.51310 0.39100
C 	C 	0.86445 0.10770 0.54620 -0.15400
C 	C 	0.87135 0.09120 0.58550 0.09000
H 	H 	0.86950 0.06040 0.59290 0.01100
C 	C 	0.88068 0.11770 0.61390 -0.16000
H 	H 	0.88510 0.10490 0.64100 0.08800
C 	C 	0.88405 0.16290 0.60500 0.10900
C 	C 	0.87559 0.18060 0.56640 -0.14400
H 	H 	0.87660 0.21190 0.56000 0.08600
C 	C 	0.86583 0.15320 0.53740 0.07800
H 	H 	0.86020 0.16580 0.51170 0.01900
C 	C 	0.82903 0.67210 0.82240 0.06500
C 	C 	0.84031 0.67850 0.86050 -0.13500
H 	H 	0.84670 0.70600 0.86380 0.08200
C 	C 	0.91915 0.20420 0.68390 -0.14400
H 	H 	0.92870 0.19170 0.70100 0.08100
C 	C 	0.81980 0.63280 0.81980 -0.12300
H 	H 	0.81220 0.62650 0.79510 0.08200
C 	C 	0.90047 0.26710 0.66390 -0.13200
H 	H 	0.89760 0.29840 0.66500 0.07800
C 	C 	0.89078 0.23810 0.64060 0.02400
H 	H 	0.88030 0.25000 0.62680 0.02200
C 	C 	0.05874 0.23880 0.71630 0.49200
C 	C 	0.03813 0.24900 0.71520 -0.15800
C 	C 	0.02799 0.23310 0.67930 0.08100
H 	H 	0.03350 0.21670 0.65560 0.01700
C 	C 	0.00991 0.24140 0.67850 -0.15300
H 	H 	0.00300 0.23210 0.65330 0.08200
C 	C 	0.00151 0.26340 0.71460 0.11200
C 	C 	0.01231 0.27840 0.74930 -0.16300
H 	H 	0.00670 0.29270 0.77420 0.08500
C 	C 	0.02990 0.27420 0.75000 0.09100
H 	H 	0.03680 0.28770 0.77320 0.00900
C 	C 	0.98200 0.26860 0.71460 -0.08700
C 	C 	0.97173 0.26930 0.67440 0.06300
H 	H 	0.97740 0.26780 0.64590 0.00700
C 	C 	0.95393 0.27200 0.67730 -0.19800
H 	H 	0.94730 0.27110 0.65010 0.10200
C 	C 	0.94530 0.27580 0.71420 0.16900
C 	C 	0.82203 0.60130 0.85560 0.07300
H 	H 	0.81550 0.57380 0.85490 -0.00400
C 	C 	0.82769 0.70360 0.78490 0.08400
C 	C 	0.85548 0.48130 0.91730 0.40500
C 	C 	0.86675 0.45080 0.88740 -0.16600
C 	C 	0.87946 0.46740 0.85870 0.10400
H 	H 	0.88180 0.49900 0.85750 0.00800
C 	C 	0.88856 0.43900 0.83250 -0.17700
H 	H 	0.89700 0.45190 0.81240 0.08900
C 	C 	0.88691 0.39390 0.83170 0.11800
C 	C 	0.87348 0.37660 0.86090 -0.16400
H 	H 	0.87100 0.34510 0.86140 0.08400
C 	C 	0.86429 0.40520 0.88800 0.09400
H 	H 	0.85580 0.39300 0.90830 0.00800
C 	C 	0.89754 0.36450 0.80310 -0.07800
C 	C 	0.91425 0.37610 0.78430 0.04700
H 	H 	0.91950 0.40420 0.79230 0.01300
C 	C 	0.92276 0.34970 0.75640 -0.16200
H 	H 	0.93360 0.36020 0.74370 0.08800
C 	C 	0.91673 0.30690 0.74450 0.14200
C 	C 	0.90070 0.29250 0.76340 -0.14800
H 	H 	0.89630 0.26310 0.75670 0.08400
C 	C 	0.89095 0.32080 0.79220 0.02600
H 	H 	0.87990 0.31070 0.80440 0.01800
N 	N 	0.92605 0.27990 0.71390 -0.17800
N 	N 	0.83294 0.60892 0.88980 -0.26100
N 	N 	0.83697 0.74143 0.77700 -0.09400
N 	N 	0.81775 0.73350 0.72210 -0.09000
N 	N 	0.81621 0.69870 0.75130 -0.08700
N 	N 	0.85035 0.76090 0.80430 -0.23200
H 	H 	0.85340 0.74800 0.82970 0.13800
H 	H 	0.85560 0.78610 0.79580 0.14500
N 	N 	0.84799 0.87850 0.67180 -0.25100
O 	O 	0.84452 0.09673 0.48550 -0.48300
O 	O 	0.85817 0.03652 0.51500 -0.46900
O 	O 	0.84775 0.46304 0.94980 -0.47700
O 	O 	0.85563 0.52255 0.90740 -0.49200
O 	O 	0.06377 0.21729 0.68570 -0.54800
O 	O 	0.06670 0.25340 0.74900 -0.51100
Zn	Zn	0.83733 0.55929 0.93550 1.22200
Zn	Zn	0.84303 0.47853 0.01790 1.21400
C 	C 	0.87087 0.41290 0.05360 0.40000
C 	C 	0.88223 0.38060 0.02730 -0.15700
C 	C 	0.88804 0.39330 0.98500 0.08300
H 	H 	0.88490 0.42190 0.97280 0.02200
C 	C 	0.89878 0.36300 0.96040 -0.14800
H 	H 	0.90280 0.37090 0.93110 0.08800
C 	C 	0.90353 0.32190 0.97850 0.11100
C 	C 	0.89833 0.30990 0.02090 -0.15600
H 	H 	0.90230 0.28220 0.03360 0.08200
C 	C 	0.88693 0.33900 0.04610 0.07200
H 	H 	0.88270 0.33040 0.07490 0.02200
C 	C 	0.91456 0.28900 0.95160 -0.06400
C 	C 	0.91129 0.28340 0.90470 0.02800
H 	H 	0.90220 0.30040 0.89010 0.02100
C 	C 	0.92122 0.25380 0.88150 -0.14500
H 	H 	0.91900 0.24940 0.85040 0.08300
C 	C 	0.93462 0.22950 0.90240 0.12900
C 	C 	0.93843 0.23530 0.94660 -0.15200
H 	H 	0.94810 0.21920 0.95950 0.08700
C 	C 	0.92868 0.26370 0.97300 0.03900
H 	H 	0.93110 0.26670 0.00420 0.01000
C 	C 	0.86905 0.98940 0.69320 0.31100
C 	C 	0.88077 0.02010 0.72110 -0.11200
C 	C 	0.89728 0.02670 0.70790 0.04400
H 	H 	0.90150 0.01340 0.68090 0.02600
C 	C 	0.90908 0.05470 0.73550 -0.13400
H 	H 	0.92120 0.05800 0.72710 0.07500
C 	C 	0.90321 0.07510 0.77110 0.08600
C 	C 	0.88487 0.06950 0.78440 -0.12500
H 	H 	0.88030 0.08360 0.81070 0.07200
C 	C 	0.87423 0.04290 0.75750 0.04300
H 	H 	0.86190 0.04020 0.76450 0.03100
C 	C 	0.91540 0.10580 0.79900 -0.05700
C 	C 	0.92929 0.12660 0.78160 0.02600
H 	H 	0.93270 0.11900 0.75180 0.01900
C 	C 	0.93929 0.15930 0.80410 -0.15000
H 	H 	0.94800 0.17710 0.78890 0.08300
C 	C 	0.93601 0.16440 0.84870 0.13400
C 	C 	0.92163 0.14030 0.86980 -0.13900
H 	H 	0.91920 0.14540 0.90070 0.08200
C 	C 	0.91187 0.11160 0.84750 0.02300
H 	H 	0.90270 0.09500 0.86200 0.02100
C 	C 	0.07510 0.26690 0.85550 0.35800
C 	C 	0.05561 0.25350 0.85830 -0.11600
C 	C 	0.04394 0.28180 0.88090 0.05000
H 	H 	0.04810 0.30840 0.89530 0.02700
C 	C 	0.02588 0.27030 0.88190 -0.13100
H 	H 	0.01770 0.28960 0.89700 0.07400
C 	C 	0.01979 0.23270 0.86220 0.08300
C 	C 	0.03120 0.20380 0.83980 -0.11700
H 	H 	0.02660 0.17740 0.82580 0.07200
C 	C 	0.05027 0.21380 0.83770 0.04200
H 	H 	0.05850 0.19430 0.82310 0.03200
C 	C 	0.00016 0.22160 0.86390 -0.04700
C 	C 	0.98813 0.25740 0.87210 0.01300
H 	H 	0.99250 0.28720 0.87640 0.02200
C 	C 	0.97017 0.24930 0.87400 -0.13700
H 	H 	0.96210 0.27360 0.87850 0.08000
C 	C 	0.96373 0.20520 0.86930 0.13000
C 	C 	0.97505 0.17110 0.86170 -0.13800
H 	H 	0.97050 0.14130 0.85870 0.08100
C 	C 	0.99397 0.17850 0.85810 0.01000
H 	H 	0.00190 0.15430 0.85180 0.02600
N 	N 	0.94508 0.19610 0.87520 -0.16900
O 	O 	0.08551 0.24567 0.83030 -0.45600
O 	O 	0.07948 0.29940 0.88080 -0.47800
O 	O 	0.86776 0.45104 0.03720 -0.45800
O 	O 	0.86601 0.39917 0.09100 -0.49600
O 	O 	0.87407 0.97292 0.65900 -0.46800
O 	O 	0.85249 0.98170 0.71060 -0.30200
Zn	Zn	0.85448 0.93527 0.63770 1.22500
C 	C 	0.92480 0.08510 0.45620 -0.08700
H 	H 	0.93680 0.08160 0.46600 0.06600
C 	C 	0.89193 0.09570 0.42880 0.10900
H 	H 	0.88000 0.09850 0.41850 -0.02100
C 	C 	0.85582 0.44000 0.38340 -0.06700
C 	C 	0.92040 0.12720 0.43460 0.01800
H 	H 	0.92860 0.15110 0.42960 0.03300
C 	C 	0.79602 0.52340 0.50560 -0.17000
H 	H 	0.80230 0.52350 0.53330 0.09000
C 	C 	0.91308 0.04860 0.46410 0.05600
C 	C 	0.91971 0.00830 0.48840 0.08900
C 	C 	0.83404 0.49800 0.43800 0.12500
C 	C 	0.77738 0.52060 0.50300 0.04600
H 	H 	0.77090 0.52020 0.53050 0.01700
C 	C 	0.84074 0.42500 0.40580 0.02400
H 	H 	0.83700 0.39460 0.40220 0.02300
C 	C 	0.89654 0.05350 0.45100 -0.13800
H 	H 	0.88790 0.03050 0.45580 0.09200
C 	C 	0.90806 0.89690 0.64110 0.09900
H 	H 	0.90000 0.90160 0.66530 -0.01300
C 	C 	0.89469 0.32770 0.26310 0.39100
C 	C 	0.88555 0.35770 0.29620 -0.15400
C 	C 	0.87865 0.34120 0.33550 0.09000
H 	H 	0.88050 0.31040 0.34290 0.01100
C 	C 	0.86932 0.36770 0.36390 -0.16000
H 	H 	0.86490 0.35490 0.39100 0.08800
C 	C 	0.86595 0.41290 0.35500 0.10900
C 	C 	0.87441 0.43060 0.31640 -0.14400
H 	H 	0.87340 0.46190 0.31000 0.08600
C 	C 	0.88417 0.40320 0.28740 0.07800
H 	H 	0.88980 0.41580 0.26170 0.01900
C 	C 	0.92097 0.92210 0.57240 0.06500
C 	C 	0.90969 0.92850 0.61050 -0.13600
H 	H 	0.90330 0.95600 0.61380 0.08200
C 	C 	0.83085 0.45420 0.43390 -0.14400
H 	H 	0.82130 0.44170 0.45100 0.08100
C 	C 	0.93020 0.88280 0.56980 -0.12300
H 	H 	0.93780 0.87650 0.54510 0.08200
C 	C 	0.84953 0.51710 0.41390 -0.13200
H 	H 	0.85240 0.54840 0.41500 0.07800
C 	C 	0.85922 0.48810 0.39060 0.02400
H 	H 	0.86970 0.50000 0.37680 0.02200
C 	C 	0.69126 0.48880 0.46630 0.49200
C 	C 	0.71187 0.49900 0.46520 -0.15800
C 	C 	0.72201 0.48310 0.42930 0.08100
H 	H 	0.71650 0.46670 0.40560 0.01700
C 	C 	0.74009 0.49140 0.42850 -0.15300
H 	H 	0.74700 0.48210 0.40330 0.08200
C 	C 	0.74849 0.51340 0.46460 0.11200
C 	C 	0.73769 0.52840 0.49930 -0.16300
H 	H 	0.74330 0.54270 0.52420 0.08500
C 	C 	0.72010 0.52420 0.50000 0.09100
H 	H 	0.71320 0.53770 0.52320 0.00900
C 	C 	0.76800 0.51860 0.46460 -0.08700
C 	C 	0.77827 0.51930 0.42440 0.06300
H 	H 	0.77260 0.51780 0.39590 0.00700
C 	C 	0.79607 0.52200 0.42730 -0.19800
H 	H 	0.80270 0.52110 0.40010 0.10200
C 	C 	0.80470 0.52580 0.46420 0.16900
C 	C 	0.92797 0.85130 0.60560 0.07200
H 	H 	0.93450 0.82380 0.60490 -0.00400
C 	C 	0.92231 0.95360 0.53490 0.08400
C 	C 	0.89452 0.73130 0.66730 0.40500
C 	C 	0.88325 0.70080 0.63740 -0.16700
C 	C 	0.87054 0.71740 0.60870 0.10400
H 	H 	0.86820 0.74900 0.60750 0.00800
C 	C 	0.86144 0.68900 0.58250 -0.17700
H 	H 	0.85300 0.70190 0.56240 0.08900
C 	C 	0.86309 0.64390 0.58170 0.11800
C 	C 	0.87652 0.62660 0.61090 -0.16500
H 	H 	0.87900 0.59510 0.61140 0.08300
C 	C 	0.88571 0.65520 0.63800 0.09400
H 	H 	0.89420 0.64300 0.65830 0.00700
C 	C 	0.85246 0.61450 0.55310 -0.07800
C 	C 	0.83575 0.62610 0.53430 0.04700
H 	H 	0.83050 0.65420 0.54230 0.01200
C 	C 	0.82724 0.59970 0.50640 -0.16200
H 	H 	0.81640 0.61020 0.49370 0.08800
C 	C 	0.83327 0.55690 0.49450 0.14200
C 	C 	0.84930 0.54250 0.51340 -0.14800
H 	H 	0.85370 0.51310 0.50670 0.08400
C 	C 	0.85905 0.57080 0.54220 0.02700
H 	H 	0.87010 0.56070 0.55440 0.01800
N 	N 	0.82395 0.52990 0.46390 -0.17800
N 	N 	0.91706 0.85892 0.63980 -0.26100
N 	N 	0.91303 0.99143 0.52700 -0.09400
N 	N 	0.93225 0.98350 0.47210 -0.09000
N 	N 	0.93379 0.94870 0.50130 -0.08700
N 	N 	0.89965 0.01090 0.55430 -0.23200
H 	H 	0.89660 0.99800 0.57970 0.13800
H 	H 	0.89440 0.03610 0.54580 0.14500
N 	N 	0.90201 0.12850 0.42180 -0.25100
O 	O 	0.90548 0.34673 0.23550 -0.48300
O 	O 	0.89183 0.28652 0.26500 -0.46900
O 	O 	0.90225 0.71304 0.69980 -0.48000
O 	O 	0.89437 0.77255 0.65740 -0.49200
O 	O 	0.68623 0.46729 0.43570 -0.54800
O 	O 	0.68330 0.50340 0.49900 -0.51100
Zn	Zn	0.91267 0.80929 0.68550 1.22100
Zn	Zn	0.90697 0.72853 0.76790 1.21600
C 	C 	0.87913 0.66290 0.80360 0.39400
C 	C 	0.86777 0.63060 0.77730 -0.13500
C 	C 	0.86196 0.64330 0.73500 0.05700
H 	H 	0.86510 0.67190 0.72280 0.02900
C 	C 	0.85122 0.61300 0.71040 -0.12800
H 	H 	0.84720 0.62090 0.68110 0.08000
C 	C 	0.84647 0.57190 0.72850 0.08500
C 	C 	0.85167 0.55990 0.77090 -0.12900
H 	H 	0.84770 0.53220 0.78360 0.07500
C 	C 	0.86307 0.58900 0.79610 0.05300
H 	H 	0.86730 0.58040 0.82490 0.02800
C 	C 	0.83544 0.53900 0.70160 -0.04700
C 	C 	0.83871 0.53340 0.65470 0.01500
H 	H 	0.84780 0.55040 0.64010 0.02500
C 	C 	0.82878 0.50380 0.63150 -0.13400
H 	H 	0.83100 0.49940 0.60040 0.08000
C 	C 	0.81538 0.47950 0.65240 0.11900
C 	C 	0.81157 0.48530 0.69660 -0.13500
H 	H 	0.80190 0.46920 0.70950 0.08000
C 	C 	0.82132 0.51370 0.72300 0.01200
H 	H 	0.81890 0.51670 0.75420 0.02500
C 	C 	0.88095 0.23940 0.44320 0.31100
C 	C 	0.86923 0.27010 0.47110 -0.11200
C 	C 	0.85272 0.27670 0.45790 0.04400
H 	H 	0.84850 0.26340 0.43090 0.02600
C 	C 	0.84092 0.30470 0.48550 -0.13400
H 	H 	0.82880 0.30800 0.47710 0.07500
C 	C 	0.84679 0.32510 0.52110 0.08600
C 	C 	0.86513 0.31950 0.53440 -0.12500
H 	H 	0.86970 0.33360 0.56070 0.07100
C 	C 	0.87577 0.29290 0.50750 0.04200
H 	H 	0.88810 0.29020 0.51450 0.03100
C 	C 	0.83460 0.35580 0.54900 -0.05700
C 	C 	0.82071 0.37660 0.53160 0.02500
H 	H 	0.81730 0.36900 0.50180 0.01900
C 	C 	0.81071 0.40930 0.55410 -0.15000
H 	H 	0.80200 0.42710 0.53890 0.08300
C 	C 	0.81399 0.41440 0.59870 0.13300
C 	C 	0.82837 0.39030 0.61980 -0.13800
H 	H 	0.83080 0.39540 0.65070 0.08100
C 	C 	0.83813 0.36160 0.59750 0.02300
H 	H 	0.84730 0.34500 0.61200 0.02000
C 	C 	0.67490 0.51690 0.60550 0.35800
C 	C 	0.69439 0.50350 0.60830 -0.11600
C 	C 	0.70606 0.53180 0.63090 0.05000
H 	H 	0.70190 0.55840 0.64530 0.02600
C 	C 	0.72412 0.52030 0.63190 -0.13100
H 	H 	0.73230 0.53960 0.64700 0.07300
C 	C 	0.73021 0.48270 0.61220 0.08300
C 	C 	0.71880 0.45380 0.58980 -0.11700
H 	H 	0.72340 0.42740 0.57580 0.07200
C 	C 	0.69973 0.46380 0.58770 0.04200
H 	H 	0.69150 0.44430 0.57310 0.03200
C 	C 	0.74984 0.47160 0.61390 -0.04700
C 	C 	0.76187 0.50740 0.62210 0.01300
H 	H 	0.75750 0.53720 0.62640 0.02200
C 	C 	0.77983 0.49930 0.62400 -0.13600
H 	H 	0.78790 0.52360 0.62850 0.08000
C 	C 	0.78627 0.45520 0.61930 0.13000
C 	C 	0.77495 0.42110 0.61170 -0.13800
H 	H 	0.77950 0.39130 0.60870 0.08100
C 	C 	0.75603 0.42850 0.60810 0.01000
H 	H 	0.74810 0.40430 0.60180 0.02600
N 	N 	0.80492 0.44610 0.62520 -0.16800
O 	O 	0.66449 0.49567 0.58030 -0.45600
O 	O 	0.67052 0.54940 0.63080 -0.47900
O 	O 	0.88224 0.70104 0.78720 -0.45300
O 	O 	0.88399 0.64917 0.84100 -0.49400
O 	O 	0.87593 0.22292 0.40900 -0.46800
O 	O 	0.89751 0.23170 0.46060 -0.30200
Zn	Zn	0.89552 0.18527 0.38770 1.22500
C 	C 	0.92480 0.58510 0.95620 -0.08500
H 	H 	0.93680 0.58160 0.96600 0.06700
C 	C 	0.89193 0.59570 0.92880 0.10900
H 	H 	0.88000 0.59850 0.91850 -0.02100
C 	C 	0.85582 0.94000 0.88340 -0.06800
C 	C 	0.92040 0.62720 0.93460 0.01900
H 	H 	0.92860 0.65110 0.92960 0.03400
C 	C 	0.79602 0.02340 0.00560 -0.16900
H 	H 	0.80230 0.02350 0.03330 0.08800
C 	C 	0.91308 0.54860 0.96410 0.05500
C 	C 	0.91971 0.50830 0.98840 0.09700
C 	C 	0.83404 0.99800 0.93800 0.12900
C 	C 	0.77738 0.02060 0.00300 0.02300
H 	H 	0.77090 0.02020 0.03050 0.02400
C 	C 	0.84074 0.92500 0.90580 0.02600
H 	H 	0.83700 0.89460 0.90220 0.02300
C 	C 	0.89654 0.55350 0.95100 -0.13600
H 	H 	0.88790 0.53050 0.95580 0.09300
C 	C 	0.90806 0.39690 0.14110 0.09900
H 	H 	0.90000 0.40160 0.16530 -0.01200
C 	C 	0.89469 0.82770 0.76310 0.39200
C 	C 	0.88555 0.85770 0.79620 -0.15400
C 	C 	0.87865 0.84120 0.83550 0.09100
H 	H 	0.88050 0.81040 0.84290 0.01100
C 	C 	0.86932 0.86770 0.86390 -0.16100
H 	H 	0.86490 0.85490 0.89100 0.08900
C 	C 	0.86595 0.91290 0.85500 0.11000
C 	C 	0.87441 0.93060 0.81640 -0.14500
H 	H 	0.87340 0.96190 0.81000 0.08700
C 	C 	0.88417 0.90320 0.78740 0.07800
H 	H 	0.88980 0.91580 0.76170 0.01900
C 	C 	0.92097 0.42210 0.07240 0.06400
C 	C 	0.90969 0.42850 0.11050 -0.13600
H 	H 	0.90330 0.45600 0.11380 0.08200
C 	C 	0.83085 0.95420 0.93390 -0.14600
H 	H 	0.82130 0.94170 0.95100 0.08300
C 	C 	0.93020 0.38280 0.06980 -0.12300
H 	H 	0.93780 0.37650 0.04510 0.08100
C 	C 	0.84953 0.01710 0.91390 -0.13400
H 	H 	0.85240 0.04840 0.91500 0.07900
C 	C 	0.85922 0.98810 0.89060 0.02700
H 	H 	0.86970 0.00000 0.87680 0.02200
C 	C 	0.69126 0.98880 0.96630 0.48200
C 	C 	0.71187 0.99900 0.96520 -0.12500
C 	C 	0.72201 0.98310 0.92930 0.05300
H 	H 	0.71650 0.96670 0.90560 0.02700
C 	C 	0.74009 0.99140 0.92850 -0.12300
H 	H 	0.74700 0.98210 0.90330 0.07200
C 	C 	0.74849 0.01340 0.96460 0.07600
C 	C 	0.73769 0.02840 0.99930 -0.10000
H 	H 	0.74330 0.04270 0.02420 0.06000
C 	C 	0.72010 0.02420 -0.00000 0.03200
H 	H 	0.71320 0.03770 0.02320 0.02600
C 	C 	0.76800 0.01860 0.96460 -0.05800
C 	C 	0.77827 0.01930 0.92440 0.04900
H 	H 	0.77260 0.01780 0.89590 0.01300
C 	C 	0.79607 0.02200 0.92730 -0.19000
H 	H 	0.80270 0.02110 0.90010 0.09900
C 	C 	0.80470 0.02580 0.96420 0.17100
C 	C 	0.92797 0.35130 0.10560 0.07200
H 	H 	0.93450 0.32380 0.10490 -0.00400
C 	C 	0.92231 0.45360 0.03490 0.08200
C 	C 	0.89452 0.23130 0.16730 0.40700
C 	C 	0.88325 0.20080 0.13740 -0.17200
C 	C 	0.87054 0.21740 0.10870 0.11100
H 	H 	0.86820 0.24900 0.10750 0.00500
C 	C 	0.86144 0.18900 0.08250 -0.18800
H 	H 	0.85300 0.20190 0.06240 0.09200
C 	C 	0.86309 0.14390 0.08170 0.13100
C 	C 	0.87652 0.12660 0.11090 -0.17400
H 	H 	0.87900 0.09510 0.11140 0.08600
C 	C 	0.88571 0.15520 0.13800 0.10100
H 	H 	0.89420 0.14300 0.15830 0.00400
C 	C 	0.85246 0.11450 0.05310 -0.10200
C 	C 	0.83575 0.12610 0.03430 0.08300
H 	H 	0.83050 0.15420 0.04230 -0.00100
C 	C 	0.82724 0.09970 0.00640 -0.21600
H 	H 	0.81640 0.11020 0.99370 0.11100
C 	C 	0.83327 0.05690 0.99450 0.18000
C 	C 	0.84930 0.04250 0.01340 -0.18000
H 	H 	0.85370 0.01310 0.00670 0.09100
C 	C 	0.85905 0.07080 0.04220 0.04900
H 	H 	0.87010 0.06070 0.05440 0.00900
N 	N 	0.82395 0.02990 0.96390 -0.18400
N 	N 	0.91706 0.35892 0.13980 -0.26100
N 	N 	0.91303 0.49143 0.02700 -0.09800
N 	N 	0.93225 0.48350 0.97210 -0.08800
N 	N 	0.93379 0.44870 0.00130 -0.09100
N 	N 	0.89965 0.51090 0.05430 -0.23200
H 	H 	0.89660 0.49800 0.07970 0.13700
H 	H 	0.89440 0.53610 0.04580 0.14300
N 	N 	0.90201 0.62850 0.92180 -0.25100
O 	O 	0.90548 0.84673 0.73550 -0.48300
O 	O 	0.89183 0.78652 0.76500 -0.46900
O 	O 	0.90225 0.21304 0.19980 -0.48000
O 	O 	0.89437 0.27255 0.15740 -0.49300
O 	O 	0.68623 0.96729 0.93570 -0.54400
O 	O 	0.68330 0.00340 0.99900 -0.50300
Zn	Zn	0.91267 0.30929 0.18550 1.22100
Zn	Zn	0.90697 0.22853 0.26790 1.21600
C 	C 	0.87913 0.16290 0.30360 0.39400
C 	C 	0.86777 0.13060 0.27730 -0.13500
C 	C 	0.86196 0.14330 0.23500 0.05700
H 	H 	0.86510 0.17190 0.22280 0.02900
C 	C 	0.85122 0.11300 0.21040 -0.12800
H 	H 	0.84720 0.12090 0.18110 0.08000
C 	C 	0.84647 0.07190 0.22850 0.08500
C 	C 	0.85167 0.05990 0.27090 -0.12900
H 	H 	0.84770 0.03220 0.28360 0.07500
C 	C 	0.86307 0.08900 0.29610 0.05300
H 	H 	0.86730 0.08040 0.32490 0.02800
C 	C 	0.83544 0.03900 0.20160 -0.04700
C 	C 	0.83871 0.03340 0.15470 0.01500
H 	H 	0.84780 0.05040 0.14010 0.02500
C 	C 	0.82878 0.00380 0.13150 -0.13400
H 	H 	0.83100 0.99940 0.10040 0.07900
C 	C 	0.81538 0.97950 0.15240 0.11900
C 	C 	0.81157 0.98530 0.19660 -0.13500
H 	H 	0.80190 0.96920 0.20950 0.08000
C 	C 	0.82132 0.01370 0.22300 0.01100
H 	H 	0.81890 0.01670 0.25420 0.02500
C 	C 	0.88095 0.73940 0.94320 0.30300
C 	C 	0.86923 0.77010 0.97110 -0.08600
C 	C 	0.85272 0.77670 0.95790 0.02200
H 	H 	0.84850 0.76340 0.93090 0.03400
C 	C 	0.84092 0.80470 0.98550 -0.10300
H 	H 	0.82880 0.80800 0.97710 0.06700
C 	C 	0.84679 0.82510 0.02110 0.06000
C 	C 	0.86513 0.81950 0.03440 -0.10400
H 	H 	0.86970 0.83360 0.06070 0.06300
C 	C 	0.87577 0.79290 0.00750 0.01300
H 	H 	0.88810 0.79020 0.01450 0.03800
C 	C 	0.83460 0.85580 0.04900 -0.04600
C 	C 	0.82071 0.87660 0.03160 0.01600
H 	H 	0.81730 0.86900 0.00180 0.01900
C 	C 	0.81071 0.90930 0.05410 -0.14500
H 	H 	0.80200 0.92710 0.03890 0.08100
C 	C 	0.81399 0.91440 0.09870 0.13000
C 	C 	0.82837 0.89030 0.11980 -0.13300
H 	H 	0.83080 0.89540 0.15070 0.08000
C 	C 	0.83813 0.86160 0.09750 0.01600
H 	H 	0.84730 0.84500 0.11200 0.02300
C 	C 	0.67490 0.01690 0.10550 0.35800
C 	C 	0.69439 0.00350 0.10830 -0.11700
C 	C 	0.70606 0.03180 0.13090 0.04900
H 	H 	0.70190 0.05840 0.14530 0.02600
C 	C 	0.72412 0.02030 0.13190 -0.13100
H 	H 	0.73230 0.03960 0.14700 0.07300
C 	C 	0.73021 0.98270 0.11220 0.08300
C 	C 	0.71880 0.95380 0.08980 -0.11800
H 	H 	0.72340 0.92740 0.07580 0.07100
C 	C 	0.69973 0.96380 0.08770 0.04100
H 	H 	0.69150 0.94430 0.07310 0.03100
C 	C 	0.74984 0.97160 0.11390 -0.04700
C 	C 	0.76187 0.00740 0.12210 0.01200
H 	H 	0.75750 0.03720 0.12640 0.02200
C 	C 	0.77983 0.99930 0.12400 -0.13600
H 	H 	0.78790 0.02360 0.12850 0.07900
C 	C 	0.78627 0.95520 0.11930 0.12900
C 	C 	0.77495 0.92110 0.11170 -0.13800
H 	H 	0.77950 0.89130 0.10870 0.08000
C 	C 	0.75603 0.92850 0.10810 0.00900
H 	H 	0.74810 0.90430 0.10180 0.02500
N 	N 	0.80492 0.94610 0.12520 -0.16700
O 	O 	0.66449 0.99567 0.08030 -0.45700
O 	O 	0.67052 0.04940 0.13080 -0.47900
O 	O 	0.88224 0.20104 0.28720 -0.45300
O 	O 	0.88399 0.14917 0.34100 -0.49400
O 	O 	0.87593 0.72292 0.90900 -0.46500
O 	O 	0.89751 0.73170 0.96060 -0.29800
Zn	Zn	0.89552 0.68527 0.88770 1.22500
C 	C 	0.42480 0.08510 0.95620 -0.08600
H 	H 	0.43680 0.08160 0.96600 0.06700
C 	C 	0.39193 0.09570 0.92880 0.10900
H 	H 	0.38000 0.09850 0.91850 -0.02100
C 	C 	0.35582 0.44000 0.88340 -0.06800
C 	C 	0.42040 0.12720 0.93460 0.01900
H 	H 	0.42860 0.15110 0.92960 0.03400
C 	C 	0.29602 0.52340 0.00560 -0.16900
H 	H 	0.30230 0.52350 0.03330 0.08800
C 	C 	0.41308 0.04860 0.96410 0.05500
C 	C 	0.41971 0.00830 0.98840 0.09600
C 	C 	0.33404 0.49800 0.93800 0.12800
C 	C 	0.27738 0.52060 0.00300 0.02300
H 	H 	0.27090 0.52020 0.03050 0.02400
C 	C 	0.34074 0.42500 0.90580 0.02600
H 	H 	0.33700 0.39460 0.90220 0.02300
C 	C 	0.39654 0.05350 0.95100 -0.13600
H 	H 	0.38790 0.03050 0.95580 0.09300
C 	C 	0.40806 0.89690 0.14110 0.09900
H 	H 	0.40000 0.90160 0.16530 -0.01200
C 	C 	0.39469 0.32770 0.76310 0.39200
C 	C 	0.38555 0.35770 0.79620 -0.15400
C 	C 	0.37865 0.34120 0.83550 0.09100
H 	H 	0.38050 0.31040 0.84290 0.01100
C 	C 	0.36932 0.36770 0.86390 -0.16000
H 	H 	0.36490 0.35490 0.89100 0.08900
C 	C 	0.36595 0.41290 0.85500 0.11000
C 	C 	0.37441 0.43060 0.81640 -0.14500
H 	H 	0.37340 0.46190 0.81000 0.08700
C 	C 	0.38417 0.40320 0.78740 0.07800
H 	H 	0.38980 0.41580 0.76170 0.01900
C 	C 	0.42097 0.92210 0.07240 0.06400
C 	C 	0.40969 0.92850 0.11050 -0.13600
H 	H 	0.40330 0.95600 0.11380 0.08200
C 	C 	0.33085 0.45420 0.93390 -0.14600
H 	H 	0.32130 0.44170 0.95100 0.08300
C 	C 	0.43020 0.88280 0.06980 -0.12300
H 	H 	0.43780 0.87650 0.04510 0.08100
C 	C 	0.34953 0.51710 0.91390 -0.13300
H 	H 	0.35240 0.54840 0.91500 0.07900
C 	C 	0.35922 0.48810 0.89060 0.02600
H 	H 	0.36970 0.50000 0.87680 0.02200
C 	C 	0.19126 0.48880 0.96630 0.48100
C 	C 	0.21187 0.49900 0.96520 -0.12400
C 	C 	0.22201 0.48310 0.92930 0.05200
H 	H 	0.21650 0.46670 0.90560 0.02700
C 	C 	0.24009 0.49140 0.92850 -0.12200
H 	H 	0.24700 0.48210 0.90330 0.07200
C 	C 	0.24849 0.51340 0.96460 0.07600
C 	C 	0.23769 0.52840 0.99930 -0.09900
H 	H 	0.24330 0.54270 0.02420 0.06000
C 	C 	0.22010 0.52420 -0.00000 0.03100
H 	H 	0.21320 0.53770 0.02320 0.02600
C 	C 	0.26800 0.51860 0.96460 -0.05800
C 	C 	0.27827 0.51930 0.92440 0.04900
H 	H 	0.27260 0.51780 0.89590 0.01300
C 	C 	0.29607 0.52200 0.92730 -0.19000
H 	H 	0.30270 0.52110 0.90010 0.09900
C 	C 	0.30470 0.52580 0.96420 0.17100
C 	C 	0.42797 0.85130 0.10560 0.07200
H 	H 	0.43450 0.82380 0.10490 -0.00400
C 	C 	0.42231 0.95360 0.03490 0.08200
C 	C 	0.39452 0.73130 0.16730 0.40700
C 	C 	0.38325 0.70080 0.13740 -0.17200
C 	C 	0.37054 0.71740 0.10870 0.11200
H 	H 	0.36820 0.74900 0.10750 0.00500
C 	C 	0.36144 0.68900 0.08250 -0.18800
H 	H 	0.35300 0.70190 0.06240 0.09200
C 	C 	0.36309 0.64390 0.08170 0.13100
C 	C 	0.37652 0.62660 0.11090 -0.17400
H 	H 	0.37900 0.59510 0.11140 0.08600
C 	C 	0.38571 0.65520 0.13800 0.10100
H 	H 	0.39420 0.64300 0.15830 0.00400
C 	C 	0.35246 0.61450 0.05310 -0.10200
C 	C 	0.33575 0.62610 0.03430 0.08400
H 	H 	0.33050 0.65420 0.04230 -0.00100
C 	C 	0.32724 0.59970 0.00640 -0.21600
H 	H 	0.31640 0.61020 0.99370 0.11100
C 	C 	0.33327 0.55690 0.99450 0.18000
C 	C 	0.34930 0.54250 0.01340 -0.18100
H 	H 	0.35370 0.51310 0.00670 0.09200
C 	C 	0.35905 0.57080 0.04220 0.04900
H 	H 	0.37010 0.56070 0.05440 0.00900
N 	N 	0.32395 0.52990 0.96390 -0.18400
N 	N 	0.41706 0.85892 0.13980 -0.26100
N 	N 	0.41303 0.99143 0.02700 -0.09800
N 	N 	0.43225 0.98350 0.97210 -0.08800
N 	N 	0.43379 0.94870 0.00130 -0.09100
N 	N 	0.39965 0.01090 0.05430 -0.23200
H 	H 	0.39660 0.99800 0.07970 0.13800
H 	H 	0.39440 0.03610 0.04580 0.14300
N 	N 	0.40201 0.12850 0.92180 -0.25100
O 	O 	0.40548 0.34673 0.73550 -0.48300
O 	O 	0.39183 0.28652 0.76500 -0.46900
O 	O 	0.40225 0.71304 0.19980 -0.48000
O 	O 	0.39437 0.77255 0.15740 -0.49300
O 	O 	0.18623 0.46729 0.93570 -0.54400
O 	O 	0.18330 0.50340 0.99900 -0.50300
Zn	Zn	0.41267 0.80929 0.18550 1.22100
Zn	Zn	0.40697 0.72853 0.26790 1.21600
C 	C 	0.37913 0.66290 0.30360 0.39400
C 	C 	0.36777 0.63060 0.27730 -0.13500
C 	C 	0.36196 0.64330 0.23500 0.05700
H 	H 	0.36510 0.67190 0.22280 0.02900
C 	C 	0.35122 0.61300 0.21040 -0.12800
H 	H 	0.34720 0.62090 0.18110 0.08000
C 	C 	0.34647 0.57190 0.22850 0.08500
C 	C 	0.35167 0.55990 0.27090 -0.12900
H 	H 	0.34770 0.53220 0.28360 0.07500
C 	C 	0.36307 0.58900 0.29610 0.05300
H 	H 	0.36730 0.58040 0.32490 0.02800
C 	C 	0.33544 0.53900 0.20160 -0.04700
C 	C 	0.33871 0.53340 0.15470 0.01400
H 	H 	0.34780 0.55040 0.14010 0.02500
C 	C 	0.32878 0.50380 0.13150 -0.13400
H 	H 	0.33100 0.49940 0.10040 0.07900
C 	C 	0.31538 0.47950 0.15240 0.11900
C 	C 	0.31157 0.48530 0.19660 -0.13500
H 	H 	0.30190 0.46920 0.20950 0.08000
C 	C 	0.32132 0.51370 0.22300 0.01200
H 	H 	0.31890 0.51670 0.25420 0.02500
C 	C 	0.38095 0.23940 0.94320 0.30300
C 	C 	0.36923 0.27010 0.97110 -0.08600
C 	C 	0.35272 0.27670 0.95790 0.02100
H 	H 	0.34850 0.26340 0.93090 0.03400
C 	C 	0.34092 0.30470 0.98550 -0.10300
H 	H 	0.32880 0.30800 0.97710 0.06700
C 	C 	0.34679 0.32510 0.02110 0.06000
C 	C 	0.36513 0.31950 0.03440 -0.10400
H 	H 	0.36970 0.33360 0.06070 0.06300
C 	C 	0.37577 0.29290 0.00750 0.01300
H 	H 	0.38810 0.29020 0.01450 0.03800
C 	C 	0.33460 0.35580 0.04900 -0.04600
C 	C 	0.32071 0.37660 0.03160 0.01600
H 	H 	0.31730 0.36900 0.00180 0.01900
C 	C 	0.31071 0.40930 0.05410 -0.14500
H 	H 	0.30200 0.42710 0.03890 0.08100
C 	C 	0.31399 0.41440 0.09870 0.13000
C 	C 	0.32837 0.39030 0.11980 -0.13300
H 	H 	0.33080 0.39540 0.15070 0.08000
C 	C 	0.33813 0.36160 0.09750 0.01500
H 	H 	0.34730 0.34500 0.11200 0.02300
C 	C 	0.17490 0.51690 0.10550 0.35800
C 	C 	0.19439 0.50350 0.10830 -0.11700
C 	C 	0.20606 0.53180 0.13090 0.04900
H 	H 	0.20190 0.55840 0.14530 0.02600
C 	C 	0.22412 0.52030 0.13190 -0.13100
H 	H 	0.23230 0.53960 0.14700 0.07300
C 	C 	0.23021 0.48270 0.11220 0.08300
C 	C 	0.21880 0.45380 0.08980 -0.11800
H 	H 	0.22340 0.42740 0.07580 0.07100
C 	C 	0.19973 0.46380 0.08770 0.04100
H 	H 	0.19150 0.44430 0.07310 0.03100
C 	C 	0.24984 0.47160 0.11390 -0.04800
C 	C 	0.26187 0.50740 0.12210 0.01300
H 	H 	0.25750 0.53720 0.12640 0.02200
C 	C 	0.27983 0.49930 0.12400 -0.13700
H 	H 	0.28790 0.52360 0.12850 0.08000
C 	C 	0.28627 0.45520 0.11930 0.12900
C 	C 	0.27495 0.42110 0.11170 -0.13800
H 	H 	0.27950 0.39130 0.10870 0.08100
C 	C 	0.25603 0.42850 0.10810 0.01000
H 	H 	0.24810 0.40430 0.10180 0.02500
N 	N 	0.30492 0.44610 0.12520 -0.16700
O 	O 	0.16449 0.49567 0.08030 -0.45700
O 	O 	0.17052 0.54940 0.13080 -0.47900
O 	O 	0.38224 0.70104 0.28720 -0.45300
O 	O 	0.38399 0.64917 0.34100 -0.49400
O 	O 	0.37593 0.22292 0.90900 -0.46500
O 	O 	0.39751 0.23170 0.96060 -0.29800
Zn	Zn	0.39552 0.18527 0.88770 1.22500
C 	C 	0.42480 0.58510 0.45620 -0.08700
H 	H 	0.43680 0.58160 0.46600 0.06600
C 	C 	0.39193 0.59570 0.42880 0.10900
H 	H 	0.38000 0.59850 0.41850 -0.02100
C 	C 	0.35582 0.94000 0.38340 -0.06800
C 	C 	0.42040 0.62720 0.43460 0.01800
H 	H 	0.42860 0.65110 0.42960 0.03300
C 	C 	0.29602 0.02340 0.50560 -0.17000
H 	H 	0.30230 0.02350 0.53330 0.09000
C 	C 	0.41308 0.54860 0.46410 0.05600
C 	C 	0.41971 0.50830 0.48840 0.09000
C 	C 	0.33404 0.99800 0.43800 0.12600
C 	C 	0.27738 0.02060 0.50300 0.04500
H 	H 	0.27090 0.02020 0.53050 0.01700
C 	C 	0.34074 0.92500 0.40580 0.02400
H 	H 	0.33700 0.89460 0.40220 0.02300
C 	C 	0.39654 0.55350 0.45100 -0.13800
H 	H 	0.38790 0.53050 0.45580 0.09200
C 	C 	0.40806 0.39690 0.64110 0.09900
H 	H 	0.40000 0.40160 0.66530 -0.01300
C 	C 	0.39469 0.82770 0.26310 0.39200
C 	C 	0.38555 0.85770 0.29620 -0.15400
C 	C 	0.37865 0.84120 0.33550 0.09000
H 	H 	0.38050 0.81040 0.34290 0.01100
C 	C 	0.36932 0.86770 0.36390 -0.16000
H 	H 	0.36490 0.85490 0.39100 0.08800
C 	C 	0.36595 0.91290 0.35500 0.10900
C 	C 	0.37441 0.93060 0.31640 -0.14500
H 	H 	0.37340 0.96190 0.31000 0.08600
C 	C 	0.38417 0.90320 0.28740 0.07800
H 	H 	0.38980 0.91580 0.26170 0.01900
C 	C 	0.42097 0.42210 0.57240 0.06500
C 	C 	0.40969 0.42850 0.61050 -0.13600
H 	H 	0.40330 0.45600 0.61380 0.08200
C 	C 	0.33085 0.95420 0.43390 -0.14500
H 	H 	0.32130 0.94170 0.45100 0.08100
C 	C 	0.43020 0.38280 0.56980 -0.12300
H 	H 	0.43780 0.37650 0.54510 0.08200
C 	C 	0.34953 0.01710 0.41390 -0.13300
H 	H 	0.35240 0.04840 0.41500 0.07800
C 	C 	0.35922 0.98810 0.39060 0.02500
H 	H 	0.36970 -0.00000 0.37680 0.02200
C 	C 	0.19126 0.98880 0.46630 0.49300
C 	C 	0.21187 0.99900 0.46520 -0.15800
C 	C 	0.22201 0.98310 0.42930 0.08000
H 	H 	0.21650 0.96670 0.40560 0.01700
C 	C 	0.24009 0.99140 0.42850 -0.15200
H 	H 	0.24700 0.98210 0.40330 0.08200
C 	C 	0.24849 0.01340 0.46460 0.11100
C 	C 	0.23769 0.02840 0.49930 -0.16300
H 	H 	0.24330 0.04270 0.52420 0.08500
C 	C 	0.22010 0.02420 0.50000 0.09000
H 	H 	0.21320 0.03770 0.52320 0.00900
C 	C 	0.26800 0.01860 0.46460 -0.08700
C 	C 	0.27827 0.01930 0.42440 0.06300
H 	H 	0.27260 0.01780 0.39590 0.00700
C 	C 	0.29607 0.02200 0.42730 -0.19800
H 	H 	0.30270 0.02110 0.40010 0.10200
C 	C 	0.30470 0.02580 0.46420 0.16900
C 	C 	0.42797 0.35130 0.60560 0.07200
H 	H 	0.43450 0.32380 0.60490 -0.00400
C 	C 	0.42231 0.45360 0.53490 0.08400
C 	C 	0.39452 0.23130 0.66730 0.40500
C 	C 	0.38325 0.20080 0.63740 -0.16700
C 	C 	0.37054 0.21740 0.60870 0.10400
H 	H 	0.36820 0.24900 0.60750 0.00800
C 	C 	0.36144 0.18900 0.58250 -0.17700
H 	H 	0.35300 0.20190 0.56240 0.08900
C 	C 	0.36309 0.14390 0.58170 0.11800
C 	C 	0.37652 0.12660 0.61090 -0.16500
H 	H 	0.37900 0.09510 0.61140 0.08300
C 	C 	0.38571 0.15520 0.63800 0.09400
H 	H 	0.39420 0.14300 0.65830 0.00700
C 	C 	0.35246 0.11450 0.55310 -0.07800
C 	C 	0.33575 0.12610 0.53430 0.04700
H 	H 	0.33050 0.15420 0.54230 0.01200
C 	C 	0.32724 0.09970 0.50640 -0.16200
H 	H 	0.31640 0.11020 0.49370 0.08800
C 	C 	0.33327 0.05690 0.49450 0.14200
C 	C 	0.34930 0.04250 0.51340 -0.14800
H 	H 	0.35370 0.01310 0.50670 0.08400
C 	C 	0.35905 0.07080 0.54220 0.02700
H 	H 	0.37010 0.06070 0.55440 0.01800
N 	N 	0.32395 0.02990 0.46390 -0.17800
N 	N 	0.41706 0.35892 0.63980 -0.26100
N 	N 	0.41303 0.49143 0.52700 -0.09400
N 	N 	0.43225 0.48350 0.47210 -0.09000
N 	N 	0.43379 0.44870 0.50130 -0.08700
N 	N 	0.39965 0.51090 0.55430 -0.23200
H 	H 	0.39660 0.49800 0.57970 0.13800
H 	H 	0.39440 0.53610 0.54580 0.14500
N 	N 	0.40201 0.62850 0.42180 -0.25100
O 	O 	0.40548 0.84673 0.23550 -0.48300
O 	O 	0.39183 0.78652 0.26500 -0.46900
O 	O 	0.40225 0.21304 0.69980 -0.48000
O 	O 	0.39437 0.27255 0.65740 -0.49200
O 	O 	0.18623 0.96729 0.43570 -0.54800
O 	O 	0.18330 0.00340 0.49900 -0.51100
Zn	Zn	0.41267 0.30929 0.68550 1.22100
Zn	Zn	0.40697 0.22853 0.76790 1.21600
C 	C 	0.37913 0.16290 0.80360 0.39400
C 	C 	0.36777 0.13060 0.77730 -0.13500
C 	C 	0.36196 0.14330 0.73500 0.05700
H 	H 	0.36510 0.17190 0.72280 0.02900
C 	C 	0.35122 0.11300 0.71040 -0.12800
H 	H 	0.34720 0.12090 0.68110 0.08000
C 	C 	0.34647 0.07190 0.72850 0.08500
C 	C 	0.35167 0.05990 0.77090 -0.12900
H 	H 	0.34770 0.03220 0.78360 0.07500
C 	C 	0.36307 0.08900 0.79610 0.05300
H 	H 	0.36730 0.08040 0.82490 0.02800
C 	C 	0.33544 0.03900 0.70160 -0.04700
C 	C 	0.33871 0.03340 0.65470 0.01500
H 	H 	0.34780 0.05040 0.64010 0.02500
C 	C 	0.32878 0.00380 0.63150 -0.13500
H 	H 	0.33100 0.99940 0.60040 0.08000
C 	C 	0.31538 0.97950 0.65240 0.11900
C 	C 	0.31157 0.98530 0.69660 -0.13500
H 	H 	0.30190 0.96920 0.70950 0.08000
C 	C 	0.32132 0.01370 0.72300 0.01200
H 	H 	0.31890 0.01670 0.75420 0.02500
C 	C 	0.38095 0.73940 0.44320 0.31100
C 	C 	0.36923 0.77010 0.47110 -0.11200
C 	C 	0.35272 0.77670 0.45790 0.04400
H 	H 	0.34850 0.76340 0.43090 0.02600
C 	C 	0.34092 0.80470 0.48550 -0.13400
H 	H 	0.32880 0.80800 0.47710 0.07500
C 	C 	0.34679 0.82510 0.52110 0.08600
C 	C 	0.36513 0.81950 0.53440 -0.12500
H 	H 	0.36970 0.83360 0.56070 0.07100
C 	C 	0.37577 0.79290 0.50750 0.04200
H 	H 	0.38810 0.79020 0.51450 0.03100
C 	C 	0.33460 0.85580 0.54900 -0.05700
C 	C 	0.32071 0.87660 0.53160 0.02500
H 	H 	0.31730 0.86900 0.50180 0.01900
C 	C 	0.31071 0.90930 0.55410 -0.15000
H 	H 	0.30200 0.92710 0.53890 0.08300
C 	C 	0.31399 0.91440 0.59870 0.13300
C 	C 	0.32837 0.89030 0.61980 -0.13800
H 	H 	0.33080 0.89540 0.65070 0.08100
C 	C 	0.33813 0.86160 0.59750 0.02300
H 	H 	0.34730 0.84500 0.61200 0.02000
C 	C 	0.17490 0.01690 0.60550 0.35800
C 	C 	0.19439 0.00350 0.60830 -0.11700
C 	C 	0.20606 0.03180 0.63090 0.05000
H 	H 	0.20190 0.05840 0.64530 0.02600
C 	C 	0.22412 0.02030 0.63190 -0.13100
H 	H 	0.23230 0.03960 0.64700 0.07300
C 	C 	0.23021 0.98270 0.61220 0.08300
C 	C 	0.21880 0.95380 0.58980 -0.11700
H 	H 	0.22340 0.92740 0.57580 0.07200
C 	C 	0.19973 0.96380 0.58770 0.04200
H 	H 	0.19150 0.94430 0.57310 0.03200
C 	C 	0.24984 0.97160 0.61390 -0.04700
C 	C 	0.26187 0.00740 0.62210 0.01200
H 	H 	0.25750 0.03720 0.62640 0.02200
C 	C 	0.27983 0.99930 0.62400 -0.13600
H 	H 	0.28790 0.02360 0.62850 0.07900
C 	C 	0.28627 0.95520 0.61930 0.12900
C 	C 	0.27495 0.92110 0.61170 -0.13700
H 	H 	0.27950 0.89130 0.60870 0.08100
C 	C 	0.25603 0.92850 0.60810 0.01000
H 	H 	0.24810 0.90430 0.60180 0.02600
N 	N 	0.30492 0.94610 0.62520 -0.16800
O 	O 	0.16449 0.99567 0.58030 -0.45600
O 	O 	0.17052 0.04940 0.63080 -0.47800
O 	O 	0.38224 0.20104 0.78720 -0.45300
O 	O 	0.38399 0.14917 0.84100 -0.49400
O 	O 	0.37593 0.72292 0.40900 -0.46800
O 	O 	0.39751 0.73170 0.46060 -0.30200
Zn	Zn	0.39552 0.68527 0.38770 1.22500
C 	C 	0.17480 0.16490 0.70620 -0.08700
H 	H 	0.18680 0.16840 0.71600 0.06600
C 	C 	0.14193 0.15430 0.67880 0.10900
H 	H 	0.13000 0.15150 0.66850 -0.02100
C 	C 	0.10582 0.81000 0.63340 -0.06700
C 	C 	0.17040 0.12280 0.68460 0.01800
H 	H 	0.17860 0.09890 0.67960 0.03300
C 	C 	0.04602 0.72660 0.75560 -0.17000
H 	H 	0.05230 0.72650 0.78330 0.09000
C 	C 	0.16308 0.20140 0.71410 0.05600
C 	C 	0.16971 0.24170 0.73840 0.09000
C 	C 	0.08404 0.75200 0.68800 0.12500
C 	C 	0.02738 0.72940 0.75300 0.04600
H 	H 	0.02090 0.72980 0.78050 0.01700
C 	C 	0.09074 0.82500 0.65580 0.02400
H 	H 	0.08700 0.85540 0.65220 0.02300
C 	C 	0.14654 0.19650 0.70100 -0.13800
H 	H 	0.13790 0.21950 0.70580 0.09200
C 	C 	0.15806 0.35310 0.89110 0.09900
H 	H 	0.15000 0.34840 0.91530 -0.01200
C 	C 	0.14469 0.92230 0.51310 0.39100
C 	C 	0.13555 0.89230 0.54620 -0.15400
C 	C 	0.12865 0.90880 0.58550 0.09000
H 	H 	0.13050 0.93960 0.59290 0.01100
C 	C 	0.11932 0.88230 0.61390 -0.16000
H 	H 	0.11490 0.89510 0.64100 0.08800
C 	C 	0.11595 0.83710 0.60500 0.10900
C 	C 	0.12441 0.81940 0.56640 -0.14400
H 	H 	0.12340 0.78810 0.56000 0.08600
C 	C 	0.13417 0.84680 0.53740 0.07800
H 	H 	0.13980 0.83420 0.51170 0.01900
C 	C 	0.17097 0.32790 0.82240 0.06500
C 	C 	0.15969 0.32150 0.86050 -0.13500
H 	H 	0.15330 0.29400 0.86380 0.08200
C 	C 	0.08085 0.79580 0.68390 -0.14400
H 	H 	0.07130 0.80830 0.70100 0.08100
C 	C 	0.18020 0.36720 0.81980 -0.12300
H 	H 	0.18780 0.37350 0.79510 0.08200
C 	C 	0.09953 0.73290 0.66390 -0.13200
H 	H 	0.10240 0.70160 0.66500 0.07800
C 	C 	0.10922 0.76190 0.64060 0.02400
H 	H 	0.11970 0.75000 0.62680 0.02200
C 	C 	0.94126 0.76120 0.71630 0.49200
C 	C 	0.96187 0.75100 0.71520 -0.15800
C 	C 	0.97201 0.76690 0.67930 0.08100
H 	H 	0.96650 0.78330 0.65560 0.01700
C 	C 	0.99009 0.75860 0.67850 -0.15300
H 	H 	0.99700 0.76790 0.65330 0.08200
C 	C 	0.99849 0.73660 0.71460 0.11200
C 	C 	0.98769 0.72160 0.74930 -0.16300
H 	H 	0.99330 0.70730 0.77420 0.08500
C 	C 	0.97010 0.72580 0.75000 0.09100
H 	H 	0.96320 0.71230 0.77320 0.00900
C 	C 	0.01800 0.73140 0.71460 -0.08700
C 	C 	0.02827 0.73070 0.67440 0.06300
H 	H 	0.02260 0.73220 0.64590 0.00700
C 	C 	0.04607 0.72800 0.67730 -0.19800
H 	H 	0.05270 0.72890 0.65010 0.10200
C 	C 	0.05470 0.72420 0.71420 0.16900
C 	C 	0.17797 0.39870 0.85560 0.07300
H 	H 	0.18450 0.42620 0.85490 -0.00400
C 	C 	0.17231 0.29640 0.78490 0.08400
C 	C 	0.14452 0.51870 0.91730 0.40500
C 	C 	0.13325 0.54920 0.88740 -0.16600
C 	C 	0.12054 0.53260 0.85870 0.10400
H 	H 	0.11820 0.50100 0.85750 0.00800
C 	C 	0.11144 0.56100 0.83250 -0.17700
H 	H 	0.10300 0.54810 0.81240 0.08900
C 	C 	0.11309 0.60610 0.83170 0.11800
C 	C 	0.12652 0.62340 0.86090 -0.16400
H 	H 	0.12900 0.65490 0.86140 0.08400
C 	C 	0.13571 0.59480 0.88800 0.09400
H 	H 	0.14420 0.60700 0.90830 0.00800
C 	C 	0.10246 0.63550 0.80310 -0.07800
C 	C 	0.08575 0.62390 0.78430 0.04700
H 	H 	0.08050 0.59580 0.79230 0.01300
C 	C 	0.07724 0.65030 0.75640 -0.16200
H 	H 	0.06640 0.63980 0.74370 0.08800
C 	C 	0.08327 0.69310 0.74450 0.14200
C 	C 	0.09930 0.70750 0.76340 -0.14800
H 	H 	0.10370 0.73690 0.75670 0.08400
C 	C 	0.10905 0.67920 0.79220 0.02600
H 	H 	0.12010 0.68930 0.80440 0.01800
N 	N 	0.07395 0.72010 0.71390 -0.17800
N 	N 	0.16706 0.39108 0.88980 -0.26100
N 	N 	0.16303 0.25857 0.77700 -0.09400
N 	N 	0.18225 0.26650 0.72210 -0.09000
N 	N 	0.18379 0.30130 0.75130 -0.08700
N 	N 	0.14965 0.23910 0.80430 -0.23200
H 	H 	0.14660 0.25200 0.82970 0.13800
H 	H 	0.14440 0.21390 0.79580 0.14500
N 	N 	0.15201 0.12150 0.67180 -0.25100
O 	O 	0.15548 0.90327 0.48550 -0.48300
O 	O 	0.14183 0.96348 0.51500 -0.46900
O 	O 	0.15225 0.53696 0.94980 -0.47700
O 	O 	0.14437 0.47745 0.90740 -0.49200
O 	O 	0.93623 0.78271 0.68570 -0.54800
O 	O 	0.93330 0.74660 0.74900 -0.51100
Zn	Zn	0.16267 0.44071 0.93550 1.22200
Zn	Zn	0.15697 0.52147 0.01790 1.21400
C 	C 	0.12913 0.58710 0.05360 0.40000
C 	C 	0.11777 0.61940 0.02730 -0.15700
C 	C 	0.11196 0.60670 0.98500 0.08300
H 	H 	0.11510 0.57810 0.97280 0.02200
C 	C 	0.10122 0.63700 0.96040 -0.14800
H 	H 	0.09720 0.62910 0.93110 0.08800
C 	C 	0.09647 0.67810 0.97850 0.11100
C 	C 	0.10167 0.69010 0.02090 -0.15600
H 	H 	0.09770 0.71780 0.03360 0.08200
C 	C 	0.11307 0.66100 0.04610 0.07200
H 	H 	0.11730 0.66960 0.07490 0.02200
C 	C 	0.08544 0.71100 0.95160 -0.06400
C 	C 	0.08871 0.71660 0.90470 0.02800
H 	H 	0.09780 0.69960 0.89010 0.02100
C 	C 	0.07878 0.74620 0.88150 -0.14500
H 	H 	0.08100 0.75060 0.85040 0.08300
C 	C 	0.06538 0.77050 0.90240 0.12900
C 	C 	0.06157 0.76470 0.94660 -0.15200
H 	H 	0.05190 0.78080 0.95950 0.08700
C 	C 	0.07132 0.73630 0.97300 0.03900
H 	H 	0.06890 0.73330 0.00420 0.01000
C 	C 	0.13095 0.01060 0.69320 0.31000
C 	C 	0.11923 0.97990 0.72110 -0.11100
C 	C 	0.10272 0.97330 0.70790 0.04400
H 	H 	0.09850 0.98660 0.68090 0.02600
C 	C 	0.09092 0.94530 0.73550 -0.13400
H 	H 	0.07880 0.94200 0.72710 0.07500
C 	C 	0.09679 0.92490 0.77110 0.08600
C 	C 	0.11513 0.93050 0.78440 -0.12500
H 	H 	0.11970 0.91640 0.81070 0.07200
C 	C 	0.12577 0.95710 0.75750 0.04200
H 	H 	0.13810 0.95980 0.76450 0.03100
C 	C 	0.08460 0.89420 0.79900 -0.05700
C 	C 	0.07071 0.87340 0.78160 0.02600
H 	H 	0.06730 0.88100 0.75180 0.01900
C 	C 	0.06071 0.84070 0.80410 -0.15000
H 	H 	0.05200 0.82290 0.78890 0.08300
C 	C 	0.06399 0.83560 0.84870 0.13400
C 	C 	0.07837 0.85970 0.86980 -0.13900
H 	H 	0.08080 0.85460 0.90070 0.08200
C 	C 	0.08813 0.88840 0.84750 0.02300
H 	H 	0.09730 0.90500 0.86200 0.02100
C 	C 	0.92490 0.73310 0.85550 0.35800
C 	C 	0.94439 0.74650 0.85830 -0.11600
C 	C 	0.95606 0.71820 0.88090 0.05000
H 	H 	0.95190 0.69160 0.89530 0.02700
C 	C 	0.97412 0.72970 0.88190 -0.13100
H 	H 	0.98230 0.71040 0.89700 0.07400
C 	C 	0.98021 0.76730 0.86220 0.08300
C 	C 	0.96880 0.79620 0.83980 -0.11700
H 	H 	0.97340 0.82260 0.82580 0.07200
C 	C 	0.94973 0.78620 0.83770 0.04200
H 	H 	0.94150 0.80570 0.82310 0.03200
C 	C 	0.99984 0.77840 0.86390 -0.04700
C 	C 	0.01187 0.74260 0.87210 0.01300
H 	H 	0.00750 0.71280 0.87640 0.02200
C 	C 	0.02983 0.75070 0.87400 -0.13700
H 	H 	0.03790 0.72640 0.87850 0.08000
C 	C 	0.03627 0.79480 0.86930 0.13000
C 	C 	0.02495 0.82890 0.86170 -0.13800
H 	H 	0.02950 0.85870 0.85870 0.08100
C 	C 	0.00603 0.82150 0.85810 0.01000
H 	H 	0.99810 0.84570 0.85180 0.02600
N 	N 	0.05492 0.80390 0.87520 -0.16900
O 	O 	0.91449 0.75433 0.83030 -0.45600
O 	O 	0.92052 0.70060 0.88080 -0.47800
O 	O 	0.13224 0.54896 0.03720 -0.45800
O 	O 	0.13399 0.60083 0.09100 -0.49600
O 	O 	0.12593 0.02708 0.65900 -0.46800
O 	O 	0.14751 0.01830 0.71060 -0.30200
Zn	Zn	0.14552 0.06473 0.63770 1.22500
C 	C 	0.17480 0.66490 0.20620 -0.08700
H 	H 	0.18680 0.66840 0.21600 0.06600
C 	C 	0.14193 0.65430 0.17880 0.10900
H 	H 	0.13000 0.65150 0.16850 -0.02100
C 	C 	0.10582 0.31000 0.13340 -0.06700
C 	C 	0.17040 0.62280 0.18460 0.01800
H 	H 	0.17860 0.59890 0.17960 0.03300
C 	C 	0.04602 0.22660 0.25560 -0.17000
H 	H 	0.05230 0.22650 0.28330 0.09000
C 	C 	0.16308 0.70140 0.21410 0.05500
C 	C 	0.16971 0.74170 0.23840 0.09000
C 	C 	0.08404 0.25200 0.18800 0.12500
C 	C 	0.02738 0.22940 0.25300 0.04600
H 	H 	0.02090 0.22980 0.28050 0.01700
C 	C 	0.09074 0.32500 0.15580 0.02300
H 	H 	0.08700 0.35540 0.15220 0.02300
C 	C 	0.14654 0.69650 0.20100 -0.13800
H 	H 	0.13790 0.71950 0.20580 0.09200
C 	C 	0.15806 0.85310 0.39110 0.09900
H 	H 	0.15000 0.84840 0.41530 -0.01300
C 	C 	0.14469 0.42230 0.01310 0.38200
C 	C 	0.13555 0.39230 0.04620 -0.15200
C 	C 	0.12865 0.40880 0.08550 0.08800
H 	H 	0.13050 0.43960 0.09290 0.01200
C 	C 	0.11932 0.38230 0.11390 -0.15900
H 	H 	0.11490 0.39510 0.14100 0.08700
C 	C 	0.11595 0.33710 0.10500 0.10700
C 	C 	0.12441 0.31940 0.06640 -0.14400
H 	H 	0.12340 0.28810 0.06000 0.08500
C 	C 	0.13417 0.34680 0.03740 0.07500
H 	H 	0.13980 0.33420 0.01170 0.01700
C 	C 	0.17097 0.82790 0.32240 0.06500
C 	C 	0.15969 0.82150 0.36050 -0.13600
H 	H 	0.15330 0.79400 0.36380 0.08200
C 	C 	0.08085 0.29580 0.18390 -0.14400
H 	H 	0.07130 0.30830 0.20100 0.08000
C 	C 	0.18020 0.86720 0.31980 -0.12300
H 	H 	0.18780 0.87350 0.29510 0.08200
C 	C 	0.09953 0.23290 0.16390 -0.13200
H 	H 	0.10240 0.20160 0.16500 0.07700
C 	C 	0.10922 0.26190 0.14060 0.02400
H 	H 	0.11970 0.25000 0.12680 0.02200
C 	C 	0.94126 0.26120 0.21630 0.49200
C 	C 	0.96187 0.25100 0.21520 -0.15800
C 	C 	0.97201 0.26690 0.17930 0.08000
H 	H 	0.96650 0.28330 0.15560 0.01700
C 	C 	0.99009 0.25860 0.17850 -0.15300
H 	H 	0.99700 0.26790 0.15330 0.08100
C 	C 	0.99849 0.23660 0.21460 0.11100
C 	C 	0.98769 0.22160 0.24930 -0.16300
H 	H 	0.99330 0.20730 0.27420 0.08500
C 	C 	0.97010 0.22580 0.25000 0.09100
H 	H 	0.96320 0.21230 0.27320 0.00900
C 	C 	0.01800 0.23140 0.21460 -0.08700
C 	C 	0.02827 0.23070 0.17440 0.06300
H 	H 	0.02260 0.23220 0.14590 0.00600
C 	C 	0.04607 0.22800 0.17730 -0.19800
H 	H 	0.05270 0.22890 0.15010 0.10100
C 	C 	0.05470 0.22420 0.21420 0.16900
C 	C 	0.17797 0.89870 0.35560 0.07200
H 	H 	0.18450 0.92620 0.35490 -0.00400
C 	C 	0.17231 0.79640 0.28490 0.08400
C 	C 	0.14452 0.01870 0.41730 0.40500
C 	C 	0.13325 0.04920 0.38740 -0.16600
C 	C 	0.12054 0.03260 0.35870 0.10400
H 	H 	0.11820 0.00100 0.35750 0.00800
C 	C 	0.11144 0.06100 0.33250 -0.17700
H 	H 	0.10300 0.04810 0.31240 0.08900
C 	C 	0.11309 0.10610 0.33170 0.11800
C 	C 	0.12652 0.12340 0.36090 -0.16500
H 	H 	0.12900 0.15490 0.36140 0.08300
C 	C 	0.13571 0.09480 0.38800 0.09400
H 	H 	0.14420 0.10700 0.40830 0.00700
C 	C 	0.10246 0.13550 0.30310 -0.07800
C 	C 	0.08575 0.12390 0.28430 0.04700
H 	H 	0.08050 0.09580 0.29230 0.01200
C 	C 	0.07724 0.15030 0.25640 -0.16200
H 	H 	0.06640 0.13980 0.24370 0.08800
C 	C 	0.08327 0.19310 0.24450 0.14200
C 	C 	0.09930 0.20750 0.26340 -0.14800
H 	H 	0.10370 0.23690 0.25670 0.08400
C 	C 	0.10905 0.17920 0.29220 0.02600
H 	H 	0.12010 0.18930 0.30440 0.01800
N 	N 	0.07395 0.22010 0.21390 -0.17800
N 	N 	0.16706 0.89108 0.38980 -0.26100
N 	N 	0.16303 0.75857 0.27700 -0.09400
N 	N 	0.18225 0.76650 0.22210 -0.09000
N 	N 	0.18379 0.80130 0.25130 -0.08700
N 	N 	0.14965 0.73910 0.30430 -0.23200
H 	H 	0.14660 0.75200 0.32970 0.13800
H 	H 	0.14440 0.71390 0.29580 0.14500
N 	N 	0.15201 0.62150 0.17180 -0.25100
O 	O 	0.15548 0.40327 0.98550 -0.47500
O 	O 	0.14183 0.46348 0.01500 -0.46900
O 	O 	0.15225 0.03696 0.44980 -0.48000
O 	O 	0.14437 0.97745 0.40740 -0.49200
O 	O 	0.93623 0.28271 0.18570 -0.54800
O 	O 	0.93330 0.24660 0.24900 -0.51100
Zn	Zn	0.16267 0.94071 0.43550 1.22100
Zn	Zn	0.15697 0.02147 0.51790 1.21600
C 	C 	0.12913 0.08710 0.55360 0.39400
C 	C 	0.11777 0.11940 0.52730 -0.13500
C 	C 	0.11196 0.10670 0.48500 0.05700
H 	H 	0.11510 0.07810 0.47280 0.02900
C 	C 	0.10122 0.13700 0.46040 -0.12800
H 	H 	0.09720 0.12910 0.43110 0.08000
C 	C 	0.09647 0.17810 0.47850 0.08500
C 	C 	0.10167 0.19010 0.52090 -0.12900
H 	H 	0.09770 0.21780 0.53360 0.07500
C 	C 	0.11307 0.16100 0.54610 0.05300
H 	H 	0.11730 0.16960 0.57490 0.02800
C 	C 	0.08544 0.21100 0.45160 -0.04700
C 	C 	0.08871 0.21660 0.40470 0.01500
H 	H 	0.09780 0.19960 0.39010 0.02500
C 	C 	0.07878 0.24620 0.38150 -0.13400
H 	H 	0.08100 0.25060 0.35040 0.08000
C 	C 	0.06538 0.27050 0.40240 0.11900
C 	C 	0.06157 0.26470 0.44660 -0.13500
H 	H 	0.05190 0.28080 0.45950 0.08000
C 	C 	0.07132 0.23630 0.47300 0.01200
H 	H 	0.06890 0.23330 0.50420 0.02500
C 	C 	0.13095 0.51060 0.19320 0.31100
C 	C 	0.11923 0.47990 0.22110 -0.11200
C 	C 	0.10272 0.47330 0.20790 0.04400
H 	H 	0.09850 0.48660 0.18090 0.02600
C 	C 	0.09092 0.44530 0.23550 -0.13400
H 	H 	0.07880 0.44200 0.22710 0.07500
C 	C 	0.09679 0.42490 0.27110 0.08600
C 	C 	0.11513 0.43050 0.28440 -0.12500
H 	H 	0.11970 0.41640 0.31070 0.07100
C 	C 	0.12577 0.45710 0.25750 0.04200
H 	H 	0.13810 0.45980 0.26450 0.03100
C 	C 	0.08460 0.39420 0.29900 -0.05700
C 	C 	0.07071 0.37340 0.28160 0.02500
H 	H 	0.06730 0.38100 0.25180 0.01800
C 	C 	0.06071 0.34070 0.30410 -0.15000
H 	H 	0.05200 0.32290 0.28890 0.08300
C 	C 	0.06399 0.33560 0.34870 0.13300
C 	C 	0.07837 0.35970 0.36980 -0.13800
H 	H 	0.08080 0.35460 0.40070 0.08100
C 	C 	0.08813 0.38840 0.34750 0.02300
H 	H 	0.09730 0.40500 0.36200 0.02000
C 	C 	0.92490 0.23310 0.35550 0.35800
C 	C 	0.94439 0.24650 0.35830 -0.11600
C 	C 	0.95606 0.21820 0.38090 0.04900
H 	H 	0.95190 0.19160 0.39530 0.02600
C 	C 	0.97412 0.22970 0.38190 -0.13100
H 	H 	0.98230 0.21040 0.39700 0.07300
C 	C 	0.98021 0.26730 0.36220 0.08300
C 	C 	0.96880 0.29620 0.33980 -0.11700
H 	H 	0.97340 0.32260 0.32580 0.07200
C 	C 	0.94973 0.28620 0.33770 0.04200
H 	H 	0.94150 0.30570 0.32310 0.03200
C 	C 	0.99984 0.27840 0.36390 -0.04700
C 	C 	0.01187 0.24260 0.37210 0.01300
H 	H 	0.00750 0.21280 0.37640 0.02200
C 	C 	0.02983 0.25070 0.37400 -0.13700
H 	H 	0.03790 0.22640 0.37850 0.08000
C 	C 	0.03627 0.29480 0.36930 0.13000
C 	C 	0.02495 0.32890 0.36170 -0.13800
H 	H 	0.02950 0.35870 0.35870 0.08100
C 	C 	0.00603 0.32150 0.35810 0.01000
H 	H 	0.99810 0.34570 0.35180 0.02600
N 	N 	0.05492 0.30390 0.37520 -0.16800
O 	O 	0.91449 0.25433 0.33030 -0.45600
O 	O 	0.92052 0.20060 0.38080 -0.47900
O 	O 	0.13224 0.04896 0.53720 -0.45400
O 	O 	0.13399 0.10083 0.59100 -0.49400
O 	O 	0.12593 0.52708 0.15900 -0.46800
O 	O 	0.14751 0.51830 0.21060 -0.30200
Zn	Zn	0.14552 0.56473 0.13770 1.22500
C 	C 	0.67480 0.16490 0.20620 -0.08700
H 	H 	0.68680 0.16840 0.21600 0.06600
C 	C 	0.64193 0.15430 0.17880 0.10900
H 	H 	0.63000 0.15150 0.16850 -0.02100
C 	C 	0.60582 0.81000 0.13340 -0.06700
C 	C 	0.67040 0.12280 0.18460 0.01800
H 	H 	0.67860 0.09890 0.17960 0.03300
C 	C 	0.54602 0.72660 0.25560 -0.17000
H 	H 	0.55230 0.72650 0.28330 0.09000
C 	C 	0.66308 0.20140 0.21410 0.05500
C 	C 	0.66971 0.24170 0.23840 0.09000
C 	C 	0.58404 0.75200 0.18800 0.12500
C 	C 	0.52738 0.72940 0.25300 0.04600
H 	H 	0.52090 0.72980 0.28050 0.01700
C 	C 	0.59074 0.82500 0.15580 0.02300
H 	H 	0.58700 0.85540 0.15220 0.02300
C 	C 	0.64654 0.19650 0.20100 -0.13800
H 	H 	0.63790 0.21950 0.20580 0.09200
C 	C 	0.65806 0.35310 0.39110 0.09900
H 	H 	0.65000 0.34840 0.41530 -0.01300
C 	C 	0.64469 0.92230 0.01310 0.38200
C 	C 	0.63555 0.89230 0.04620 -0.15200
C 	C 	0.62865 0.90880 0.08550 0.08800
H 	H 	0.63050 0.93960 0.09290 0.01200
C 	C 	0.61932 0.88230 0.11390 -0.15900
H 	H 	0.61490 0.89510 0.14100 0.08700
C 	C 	0.61595 0.83710 0.10500 0.10700
C 	C 	0.62441 0.81940 0.06640 -0.14400
H 	H 	0.62340 0.78810 0.06000 0.08500
C 	C 	0.63417 0.84680 0.03740 0.07500
H 	H 	0.63980 0.83420 0.01170 0.01700
C 	C 	0.67097 0.32790 0.32240 0.06500
C 	C 	0.65969 0.32150 0.36050 -0.13600
H 	H 	0.65330 0.29400 0.36380 0.08200
C 	C 	0.58085 0.79580 0.18390 -0.14400
H 	H 	0.57130 0.80830 0.20100 0.08000
C 	C 	0.68020 0.36720 0.31980 -0.12300
H 	H 	0.68780 0.37350 0.29510 0.08200
C 	C 	0.59953 0.73290 0.16390 -0.13200
H 	H 	0.60240 0.70160 0.16500 0.07700
C 	C 	0.60922 0.76190 0.14060 0.02400
H 	H 	0.61970 0.75000 0.12680 0.02200
C 	C 	0.44126 0.76120 0.21630 0.49200
C 	C 	0.46187 0.75100 0.21520 -0.15800
C 	C 	0.47201 0.76690 0.17930 0.08000
H 	H 	0.46650 0.78330 0.15560 0.01700
C 	C 	0.49009 0.75860 0.17850 -0.15300
H 	H 	0.49700 0.76790 0.15330 0.08100
C 	C 	0.49849 0.73660 0.21460 0.11100
C 	C 	0.48769 0.72160 0.24930 -0.16300
H 	H 	0.49330 0.70730 0.27420 0.08500
C 	C 	0.47010 0.72580 0.25000 0.09100
H 	H 	0.46320 0.71230 0.27320 0.00900
C 	C 	0.51800 0.73140 0.21460 -0.08700
C 	C 	0.52827 0.73070 0.17440 0.06300
H 	H 	0.52260 0.73220 0.14590 0.00600
C 	C 	0.54607 0.72800 0.17730 -0.19800
H 	H 	0.55270 0.72890 0.15010 0.10100
C 	C 	0.55470 0.72420 0.21420 0.16900
C 	C 	0.67797 0.39870 0.35560 0.07200
H 	H 	0.68450 0.42620 0.35490 -0.00400
C 	C 	0.67231 0.29640 0.28490 0.08400
C 	C 	0.64452 0.51870 0.41730 0.40500
C 	C 	0.63325 0.54920 0.38740 -0.16700
C 	C 	0.62054 0.53260 0.35870 0.10400
H 	H 	0.61820 0.50100 0.35750 0.00800
C 	C 	0.61144 0.56100 0.33250 -0.17700
H 	H 	0.60300 0.54810 0.31240 0.08900
C 	C 	0.61309 0.60610 0.33170 0.11800
C 	C 	0.62652 0.62340 0.36090 -0.16500
H 	H 	0.62900 0.65490 0.36140 0.08300
C 	C 	0.63571 0.59480 0.38800 0.09400
H 	H 	0.64420 0.60700 0.40830 0.00700
C 	C 	0.60246 0.63550 0.30310 -0.07800
C 	C 	0.58575 0.62390 0.28430 0.04700
H 	H 	0.58050 0.59580 0.29230 0.01200
C 	C 	0.57724 0.65030 0.25640 -0.16200
H 	H 	0.56640 0.63980 0.24370 0.08800
C 	C 	0.58327 0.69310 0.24450 0.14200
C 	C 	0.59930 0.70750 0.26340 -0.14800
H 	H 	0.60370 0.73690 0.25670 0.08400
C 	C 	0.60905 0.67920 0.29220 0.02600
H 	H 	0.62010 0.68930 0.30440 0.01800
N 	N 	0.57395 0.72010 0.21390 -0.17800
N 	N 	0.66706 0.39108 0.38980 -0.26100
N 	N 	0.66303 0.25857 0.27700 -0.09400
N 	N 	0.68225 0.26650 0.22210 -0.09000
N 	N 	0.68379 0.30130 0.25130 -0.08700
N 	N 	0.64965 0.23910 0.30430 -0.23200
H 	H 	0.64660 0.25200 0.32970 0.13800
H 	H 	0.64440 0.21390 0.29580 0.14500
N 	N 	0.65201 0.12150 0.17180 -0.25100
O 	O 	0.65548 0.90327 0.98550 -0.47500
O 	O 	0.64183 0.96348 0.01500 -0.46900
O 	O 	0.65225 0.53696 0.44980 -0.48000
O 	O 	0.64437 0.47745 0.40740 -0.49200
O 	O 	0.43623 0.78271 0.18570 -0.54800
O 	O 	0.43330 0.74660 0.24900 -0.51100
Zn	Zn	0.66267 0.44071 0.43550 1.22100
Zn	Zn	0.65697 0.52147 0.51790 1.21600
C 	C 	0.62913 0.58710 0.55360 0.39400
C 	C 	0.61777 0.61940 0.52730 -0.13500
C 	C 	0.61196 0.60670 0.48500 0.05700
H 	H 	0.61510 0.57810 0.47280 0.02900
C 	C 	0.60122 0.63700 0.46040 -0.12800
H 	H 	0.59720 0.62910 0.43110 0.08000
C 	C 	0.59647 0.67810 0.47850 0.08500
C 	C 	0.60167 0.69010 0.52090 -0.12900
H 	H 	0.59770 0.71780 0.53360 0.07500
C 	C 	0.61307 0.66100 0.54610 0.05300
H 	H 	0.61730 0.66960 0.57490 0.02800
C 	C 	0.58544 0.71100 0.45160 -0.04700
C 	C 	0.58871 0.71660 0.40470 0.01500
H 	H 	0.59780 0.69960 0.39010 0.02500
C 	C 	0.57878 0.74620 0.38150 -0.13400
H 	H 	0.58100 0.75060 0.35040 0.08000
C 	C 	0.56538 0.77050 0.40240 0.11900
C 	C 	0.56157 0.76470 0.44660 -0.13500
H 	H 	0.55190 0.78080 0.45950 0.08000
C 	C 	0.57132 0.73630 0.47300 0.01200
H 	H 	0.56890 0.73330 0.50420 0.02500
C 	C 	0.63095 0.01060 0.19320 0.31000
C 	C 	0.61923 0.97990 0.22110 -0.11100
C 	C 	0.60272 0.97330 0.20790 0.04400
H 	H 	0.59850 0.98660 0.18090 0.02600
C 	C 	0.59092 0.94530 0.23550 -0.13400
H 	H 	0.57880 0.94200 0.22710 0.07500
C 	C 	0.59679 0.92490 0.27110 0.08600
C 	C 	0.61513 0.93050 0.28440 -0.12500
H 	H 	0.61970 0.91640 0.31070 0.07100
C 	C 	0.62577 0.95710 0.25750 0.04200
H 	H 	0.63810 0.95980 0.26450 0.03100
C 	C 	0.58460 0.89420 0.29900 -0.05700
C 	C 	0.57071 0.87340 0.28160 0.02500
H 	H 	0.56730 0.88100 0.25180 0.01800
C 	C 	0.56071 0.84070 0.30410 -0.15000
H 	H 	0.55200 0.82290 0.28890 0.08300
C 	C 	0.56399 0.83560 0.34870 0.13300
C 	C 	0.57837 0.85970 0.36980 -0.13800
H 	H 	0.58080 0.85460 0.40070 0.08100
C 	C 	0.58813 0.88840 0.34750 0.02300
H 	H 	0.59730 0.90500 0.36200 0.02000
C 	C 	0.42490 0.73310 0.35550 0.35800
C 	C 	0.44439 0.74650 0.35830 -0.11600
C 	C 	0.45606 0.71820 0.38090 0.04900
H 	H 	0.45190 0.69160 0.39530 0.02600
C 	C 	0.47412 0.72970 0.38190 -0.13100
H 	H 	0.48230 0.71040 0.39700 0.07300
C 	C 	0.48021 0.76730 0.36220 0.08300
C 	C 	0.46880 0.79620 0.33980 -0.11700
H 	H 	0.47340 0.82260 0.32580 0.07200
C 	C 	0.44973 0.78620 0.33770 0.04200
H 	H 	0.44150 0.80570 0.32310 0.03200
C 	C 	0.49984 0.77840 0.36390 -0.04700
C 	C 	0.51187 0.74260 0.37210 0.01300
H 	H 	0.50750 0.71280 0.37640 0.02200
C 	C 	0.52983 0.75070 0.37400 -0.13700
H 	H 	0.53790 0.72640 0.37850 0.08000
C 	C 	0.53627 0.79480 0.36930 0.13000
C 	C 	0.52495 0.82890 0.36170 -0.13800
H 	H 	0.52950 0.85870 0.35870 0.08100
C 	C 	0.50603 0.82150 0.35810 0.01000
H 	H 	0.49810 0.84570 0.35180 0.02600
N 	N 	0.55492 0.80390 0.37520 -0.16800
O 	O 	0.41449 0.75433 0.33030 -0.45600
O 	O 	0.42052 0.70060 0.38080 -0.47900
O 	O 	0.63224 0.54896 0.53720 -0.45300
O 	O 	0.63399 0.60083 0.59100 -0.49400
O 	O 	0.62593 0.02708 0.15900 -0.46800
O 	O 	0.64751 0.01830 0.21060 -0.30200
Zn	Zn	0.64552 0.06473 0.13770 1.22500
C 	C 	0.67480 0.66490 0.70620 -0.08700
H 	H 	0.68680 0.66840 0.71600 0.06600
C 	C 	0.64193 0.65430 0.67880 0.10900
H 	H 	0.63000 0.65150 0.66850 -0.02100
C 	C 	0.60582 0.31000 0.63340 -0.06700
C 	C 	0.67040 0.62280 0.68460 0.01800
H 	H 	0.67860 0.59890 0.67960 0.03300
C 	C 	0.54602 0.22660 0.75560 -0.17000
H 	H 	0.55230 0.22650 0.78330 0.09000
C 	C 	0.66308 0.70140 0.71410 0.05600
C 	C 	0.66971 0.74170 0.73840 0.09000
C 	C 	0.58404 0.25200 0.68800 0.12500
C 	C 	0.52738 0.22940 0.75300 0.04600
H 	H 	0.52090 0.22980 0.78050 0.01700
C 	C 	0.59074 0.32500 0.65580 0.02400
H 	H 	0.58700 0.35540 0.65220 0.02300
C 	C 	0.64654 0.69650 0.70100 -0.13800
H 	H 	0.63790 0.71950 0.70580 0.09200
C 	C 	0.65806 0.85310 0.89110 0.09900
H 	H 	0.65000 0.84840 0.91530 -0.01200
C 	C 	0.64469 0.42230 0.51310 0.39100
C 	C 	0.63555 0.39230 0.54620 -0.15400
C 	C 	0.62865 0.40880 0.58550 0.09000
H 	H 	0.63050 0.43960 0.59290 0.01100
C 	C 	0.61932 0.38230 0.61390 -0.16000
H 	H 	0.61490 0.39510 0.64100 0.08800
C 	C 	0.61595 0.33710 0.60500 0.10900
C 	C 	0.62441 0.31940 0.56640 -0.14400
H 	H 	0.62340 0.28810 0.56000 0.08600
C 	C 	0.63417 0.34680 0.53740 0.07800
H 	H 	0.63980 0.33420 0.51170 0.01900
C 	C 	0.67097 0.82790 0.82240 0.06500
C 	C 	0.65969 0.82150 0.86050 -0.13500
H 	H 	0.65330 0.79400 0.86380 0.08200
C 	C 	0.58085 0.29580 0.68390 -0.14400
H 	H 	0.57130 0.30830 0.70100 0.08100
C 	C 	0.68020 0.86720 0.81980 -0.12300
H 	H 	0.68780 0.87350 0.79510 0.08200
C 	C 	0.59953 0.23290 0.66390 -0.13200
H 	H 	0.60240 0.20160 0.66500 0.07800
C 	C 	0.60922 0.26190 0.64060 0.02400
H 	H 	0.61970 0.25000 0.62680 0.02200
C 	C 	0.44126 0.26120 0.71630 0.49200
C 	C 	0.46187 0.25100 0.71520 -0.15800
C 	C 	0.47201 0.26690 0.67930 0.08100
H 	H 	0.46650 0.28330 0.65560 0.01700
C 	C 	0.49009 0.25860 0.67850 -0.15300
H 	H 	0.49700 0.26790 0.65330 0.08200
C 	C 	0.49849 0.23660 0.71460 0.11200
C 	C 	0.48769 0.22160 0.74930 -0.16300
H 	H 	0.49330 0.20730 0.77420 0.08500
C 	C 	0.47010 0.22580 0.75000 0.09100
H 	H 	0.46320 0.21230 0.77320 0.00900
C 	C 	0.51800 0.23140 0.71460 -0.08700
C 	C 	0.52827 0.23070 0.67440 0.06300
H 	H 	0.52260 0.23220 0.64590 0.00700
C 	C 	0.54607 0.22800 0.67730 -0.19800
H 	H 	0.55270 0.22890 0.65010 0.10200
C 	C 	0.55470 0.22420 0.71420 0.16900
C 	C 	0.67797 0.89870 0.85560 0.07300
H 	H 	0.68450 0.92620 0.85490 -0.00400
C 	C 	0.67231 0.79640 0.78490 0.08400
C 	C 	0.64452 0.01870 0.91730 0.40500
C 	C 	0.63325 0.04920 0.88740 -0.16600
C 	C 	0.62054 0.03260 0.85870 0.10400
H 	H 	0.61820 0.00100 0.85750 0.00800
C 	C 	0.61144 0.06100 0.83250 -0.17700
H 	H 	0.60300 0.04810 0.81240 0.08900
C 	C 	0.61309 0.10610 0.83170 0.11800
C 	C 	0.62652 0.12340 0.86090 -0.16400
H 	H 	0.62900 0.15490 0.86140 0.08400
C 	C 	0.63571 0.09480 0.88800 0.09400
H 	H 	0.64420 0.10700 0.90830 0.00800
C 	C 	0.60246 0.13550 0.80310 -0.07800
C 	C 	0.58575 0.12390 0.78430 0.04700
H 	H 	0.58050 0.09580 0.79230 0.01200
C 	C 	0.57724 0.15030 0.75640 -0.16200
H 	H 	0.56640 0.13980 0.74370 0.08800
C 	C 	0.58327 0.19310 0.74450 0.14200
C 	C 	0.59930 0.20750 0.76340 -0.14800
H 	H 	0.60370 0.23690 0.75670 0.08400
C 	C 	0.60905 0.17920 0.79220 0.02600
H 	H 	0.62010 0.18930 0.80440 0.01800
N 	N 	0.57395 0.22010 0.71390 -0.17800
N 	N 	0.66706 0.89108 0.88980 -0.26100
N 	N 	0.66303 0.75857 0.77700 -0.09400
N 	N 	0.68225 0.76650 0.72210 -0.09000
N 	N 	0.68379 0.80130 0.75130 -0.08700
N 	N 	0.64965 0.73910 0.80430 -0.23200
H 	H 	0.64660 0.75200 0.82970 0.13800
H 	H 	0.64440 0.71390 0.79580 0.14500
N 	N 	0.65201 0.62150 0.67180 -0.25100
O 	O 	0.65548 0.40327 0.48550 -0.48300
O 	O 	0.64183 0.46348 0.51500 -0.46900
O 	O 	0.65225 0.03696 0.94980 -0.47700
O 	O 	0.64437 0.97745 0.90740 -0.49200
O 	O 	0.43623 0.28271 0.68570 -0.54800
O 	O 	0.43330 0.24660 0.74900 -0.51100
Zn	Zn	0.66267 0.94071 0.93550 1.22200
Zn	Zn	0.65697 0.02147 0.01790 1.21400
C 	C 	0.62913 0.08710 0.05360 0.40000
C 	C 	0.61777 0.11940 0.02730 -0.15700
C 	C 	0.61196 0.10670 0.98500 0.08300
H 	H 	0.61510 0.07810 0.97280 0.02200
C 	C 	0.60122 0.13700 0.96040 -0.14800
H 	H 	0.59720 0.12910 0.93110 0.08800
C 	C 	0.59647 0.17810 0.97850 0.11100
C 	C 	0.60167 0.19010 0.02090 -0.15600
H 	H 	0.59770 0.21780 0.03360 0.08200
C 	C 	0.61307 0.16100 0.04610 0.07200
H 	H 	0.61730 0.16960 0.07490 0.02200
C 	C 	0.58544 0.21100 0.95160 -0.06400
C 	C 	0.58871 0.21660 0.90470 0.02800
H 	H 	0.59780 0.19960 0.89010 0.02100
C 	C 	0.57878 0.24620 0.88150 -0.14500
H 	H 	0.58100 0.25060 0.85040 0.08300
C 	C 	0.56538 0.27050 0.90240 0.12900
C 	C 	0.56157 0.26470 0.94660 -0.15200
H 	H 	0.55190 0.28080 0.95950 0.08700
C 	C 	0.57132 0.23630 0.97300 0.03900
H 	H 	0.56890 0.23330 0.00420 0.01000
C 	C 	0.63095 0.51060 0.69320 0.31100
C 	C 	0.61923 0.47990 0.72110 -0.11200
C 	C 	0.60272 0.47330 0.70790 0.04400
H 	H 	0.59850 0.48660 0.68090 0.02600
C 	C 	0.59092 0.44530 0.73550 -0.13400
H 	H 	0.57880 0.44200 0.72710 0.07500
C 	C 	0.59679 0.42490 0.77110 0.08600
C 	C 	0.61513 0.43050 0.78440 -0.12500
H 	H 	0.61970 0.41640 0.81070 0.07200
C 	C 	0.62577 0.45710 0.75750 0.04200
H 	H 	0.63810 0.45980 0.76450 0.03100
C 	C 	0.58460 0.39420 0.79900 -0.05700
C 	C 	0.57071 0.37340 0.78160 0.02600
H 	H 	0.56730 0.38100 0.75180 0.01900
C 	C 	0.56071 0.34070 0.80410 -0.15000
H 	H 	0.55200 0.32290 0.78890 0.08300
C 	C 	0.56399 0.33560 0.84870 0.13400
C 	C 	0.57837 0.35970 0.86980 -0.13900
H 	H 	0.58080 0.35460 0.90070 0.08200
C 	C 	0.58813 0.38840 0.84750 0.02300
H 	H 	0.59730 0.40500 0.86200 0.02100
C 	C 	0.42490 0.23310 0.85550 0.35800
C 	C 	0.44439 0.24650 0.85830 -0.11600
C 	C 	0.45606 0.21820 0.88090 0.05000
H 	H 	0.45190 0.19160 0.89530 0.02700
C 	C 	0.47412 0.22970 0.88190 -0.13100
H 	H 	0.48230 0.21040 0.89700 0.07400
C 	C 	0.48021 0.26730 0.86220 0.08300
C 	C 	0.46880 0.29620 0.83980 -0.11700
H 	H 	0.47340 0.32260 0.82580 0.07200
C 	C 	0.44973 0.28620 0.83770 0.04200
H 	H 	0.44150 0.30570 0.82310 0.03200
C 	C 	0.49984 0.27840 0.86390 -0.04700
C 	C 	0.51187 0.24260 0.87210 0.01300
H 	H 	0.50750 0.21280 0.87640 0.02200
C 	C 	0.52983 0.25070 0.87400 -0.13700
H 	H 	0.53790 0.22640 0.87850 0.08000
C 	C 	0.53627 0.29480 0.86930 0.13000
C 	C 	0.52495 0.32890 0.86170 -0.13800
H 	H 	0.52950 0.35870 0.85870 0.08100
C 	C 	0.50603 0.32150 0.85810 0.01000
H 	H 	0.49810 0.34570 0.85180 0.02600
N 	N 	0.55492 0.30390 0.87520 -0.16900
O 	O 	0.41449 0.25433 0.83030 -0.45600
O 	O 	0.42052 0.20060 0.88080 -0.47800
O 	O 	0.63224 0.04896 0.03720 -0.45800
O 	O 	0.63399 0.10083 0.09100 -0.49600
O 	O 	0.62593 0.52708 0.65900 -0.46800
O 	O 	0.64751 0.51830 0.71060 -0.30200
Zn	Zn	0.64552 0.56473 0.63770 1.22500
