data_crystal

_cell_length_a 18.12000
_cell_length_b 18.12000
_cell_length_c 12.90500
_cell_angle_alpha 90.00000
_cell_angle_beta  90.00000
_cell_angle_gamma 90.00000

_symmetry_space_group_name_	'P 1'
_symmetry_space_group_name_H-M	'P 1'

loop_
_symmetry_equiv_pos_as_xyz
  x,y,z

loop_
_atom_site_label
_atom_site_type_symbol
_atom_site_fract_x
_atom_site_fract_y
_atom_site_fract_z
_atom_site_charge
N 	N 	0.51440 0.01000 0.34570 -0.25800
C 	C 	0.49100 0.00650 0.17480 -0.13800
H 	H 	0.46830 0.99800 0.11130 0.09900
N 	N 	0.55770 0.04240 0.19050 -0.12900
C 	C 	0.46510 0.98610 0.26920 0.12200
H 	H 	0.42160 0.96040 0.28120 -0.00800
N 	N 	0.79800 0.10700 0.04000 -0.13300
C 	C 	0.60230 0.07680 0.11230 0.16800
C 	C 	0.60820 0.15020 0.95620 0.07400
N 	N 	0.91320 0.06680 0.02480 -0.22000
C 	C 	0.84210 0.04730 0.02970 0.03700
H 	H 	0.82510 0.99890 0.02660 0.03000
C 	C 	0.68460 0.14560 0.95900 -0.11400
H 	H 	0.71260 0.16770 0.90720 0.09900
C 	C 	0.84390 0.16670 0.04700 0.01100
H 	H 	0.82940 0.21550 0.05630 0.03300
C 	C 	0.67850 0.07170 0.11460 -0.21400
H 	H 	0.70230 0.04460 0.16580 0.12900
C 	C 	0.71880 0.10840 0.03810 0.12200
C 	C 	0.56860 0.04340 0.29530 0.08900
H 	H 	0.60920 0.06500 0.32730 0.00200
C 	C 	0.56680 0.11590 0.03580 -0.21500
H 	H 	0.51560 0.11990 0.03640 0.10300
O 	O 	0.60210 0.21710 0.80050 -0.23600
C 	C 	0.56960 0.19230 0.87270 0.25100
O 	O 	0.49890 0.20250 0.88650 -0.21100
C 	C 	0.91370 0.14230 0.03820 -0.00400
H 	H 	0.95580 0.17170 0.04070 0.02100
N 	N 	0.98560 0.49000 0.34570 -0.20200
C 	C 	0.00900 0.49350 0.17480 -0.01500
H 	H 	0.03170 0.50200 0.11130 0.02300
N 	N 	0.94230 0.45760 0.19050 -0.13500
C 	C 	0.03490 0.51390 0.26920 -0.03400
H 	H 	0.07840 0.53960 0.28120 0.03700
N 	N 	0.70200 0.39300 0.04000 -0.14300
C 	C 	0.89770 0.42320 0.11230 0.18200
C 	C 	0.89180 0.34980 0.95620 0.06900
N 	N 	0.58680 0.43320 0.02480 -0.23300
C 	C 	0.65790 0.45270 0.02970 0.09400
H 	H 	0.67490 0.50110 0.02660 -0.01800
C 	C 	0.81540 0.35440 0.95900 -0.11400
H 	H 	0.78740 0.33230 0.90720 0.10000
C 	C 	0.65610 0.33330 0.04700 0.00900
H 	H 	0.67060 0.28450 0.05630 0.03200
C 	C 	0.82150 0.42830 0.11460 -0.21900
H 	H 	0.79770 0.45540 0.16580 0.13800
C 	C 	0.78120 0.39160 0.03810 0.13100
C 	C 	0.93140 0.45660 0.29530 0.10000
H 	H 	0.89080 0.43500 0.32730 0.00300
C 	C 	0.93320 0.38410 0.03580 -0.21400
H 	H 	0.98440 0.38010 0.03640 0.11900
O 	O 	0.89790 0.28290 0.80050 -0.24200
C 	C 	0.93040 0.30770 0.87270 0.28600
O 	O 	0.00110 0.29750 0.88650 -0.24600
C 	C 	0.58630 0.35770 0.03820 -0.00500
H 	H 	0.54420 0.32830 0.04070 0.01400
N 	N 	0.99000 0.01440 0.84570 -0.19600
C 	C 	0.99350 0.99100 0.67480 0.17400
H 	H 	0.00200 0.96830 0.61130 -0.03500
N 	N 	0.95760 0.05770 0.69050 -0.18000
C 	C 	0.01390 0.96510 0.76920 -0.10400
H 	H 	0.03960 0.92160 0.78120 0.07000
N 	N 	0.89300 0.29800 0.54000 -0.15900
C 	C 	0.92320 0.10230 0.61230 0.19500
C 	C 	0.84980 0.10820 0.45620 0.06300
N 	N 	0.93320 0.41320 0.52480 -0.23000
C 	C 	0.95270 0.34210 0.52970 0.16300
H 	H 	0.00110 0.32510 0.52660 -0.06200
C 	C 	0.85440 0.18460 0.45900 -0.19100
H 	H 	0.83230 0.21260 0.40720 0.11600
C 	C 	0.83330 0.34390 0.54700 0.02100
H 	H 	0.78450 0.32940 0.55630 0.03900
C 	C 	0.92830 0.17850 0.61460 -0.24600
H 	H 	0.95540 0.20230 0.66580 0.15300
C 	C 	0.89160 0.21880 0.53810 0.19800
C 	C 	0.95660 0.06860 0.79530 0.09900
H 	H 	0.93500 0.10920 0.82730 0.01400
C 	C 	0.88410 0.06680 0.53580 -0.18900
H 	H 	0.88010 0.01560 0.53640 0.10700
O 	O 	0.78290 0.10210 0.30050 -0.23100
C 	C 	0.80770 0.06960 0.37270 0.21600
O 	O 	0.79750 0.99890 0.38650 -0.17900
C 	C 	0.85770 0.41370 0.53820 -0.00100
H 	H 	0.82830 0.45580 0.54070 0.02900
N 	N 	0.51000 0.48560 0.84570 -0.21400
C 	C 	0.50650 0.50900 0.67480 0.01400
H 	H 	0.49800 0.53170 0.61130 0.03500
N 	N 	0.54240 0.44230 0.69050 -0.14800
C 	C 	0.48610 0.53490 0.76920 -0.00400
H 	H 	0.46040 0.57840 0.78120 0.03600
N 	N 	0.60700 0.20200 0.54000 -0.14800
C 	C 	0.57680 0.39770 0.61230 0.18100
C 	C 	0.65020 0.39180 0.45620 0.04600
N 	N 	0.56680 0.08680 0.52480 -0.23000
C 	C 	0.54730 0.15790 0.52970 0.10200
H 	H 	0.49890 0.17490 0.52660 -0.01800
C 	C 	0.64560 0.31540 0.45900 -0.17700
H 	H 	0.66770 0.28740 0.40720 0.11000
C 	C 	0.66670 0.15610 0.54700 0.01800
H 	H 	0.71550 0.17060 0.55630 0.03900
C 	C 	0.57170 0.32150 0.61460 -0.23400
H 	H 	0.54460 0.29770 0.66580 0.14300
C 	C 	0.60840 0.28120 0.53810 0.18300
C 	C 	0.54340 0.43140 0.79530 0.09900
H 	H 	0.56500 0.39080 0.82730 0.01200
C 	C 	0.61590 0.43320 0.53580 -0.17200
H 	H 	0.61990 0.48440 0.53640 0.10900
O 	O 	0.71710 0.39790 0.30050 -0.24000
C 	C 	0.69230 0.43040 0.37270 0.25300
O 	O 	0.70250 0.50110 0.38650 -0.22000
C 	C 	0.64230 0.08630 0.53820 -0.00100
H 	H 	0.67170 0.04420 0.54070 0.02100
N 	N 	0.48560 0.99000 0.65430 -0.19100
C 	C 	0.50900 0.99350 0.82520 0.14900
H 	H 	0.53170 0.00200 0.88870 -0.02300
N 	N 	0.44230 0.95760 0.80950 -0.16500
C 	C 	0.53490 0.01390 0.73080 -0.12500
H 	H 	0.57840 0.03960 0.71880 0.07300
N 	N 	0.20200 0.89300 0.96000 -0.16100
C 	C 	0.39770 0.92320 0.88770 0.19000
C 	C 	0.39180 0.84980 0.04380 0.01800
N 	N 	0.08680 0.93320 0.97520 -0.22000
C 	C 	0.15790 0.95270 0.97030 0.16500
H 	H 	0.17490 0.00110 0.97340 -0.05100
C 	C 	0.31540 0.85440 0.04100 -0.23800
H 	H 	0.28740 0.83230 0.09280 0.12200
C 	C 	0.15610 0.83330 0.95300 0.02800
H 	H 	0.17060 0.78450 0.94370 0.04400
C 	C 	0.32150 0.92830 0.88540 -0.25300
H 	H 	0.29770 0.95540 0.83420 0.15600
C 	C 	0.28120 0.89160 0.96190 0.24500
C 	C 	0.43140 0.95660 0.70470 0.10200
H 	H 	0.39080 0.93500 0.67270 0.00500
C 	C 	0.43320 0.88410 0.96420 -0.12900
H 	H 	0.48440 0.88010 0.96360 0.11000
O 	O 	0.39790 0.78290 0.19950 -0.24400
C 	C 	0.43040 0.80770 0.12730 0.25700
O 	O 	0.50110 0.79750 0.11350 -0.23200
C 	C 	0.08630 0.85770 0.96180 0.00300
H 	H 	0.04420 0.82830 0.95930 0.03200
N 	N 	0.01440 0.51000 0.65430 -0.24200
C 	C 	0.99100 0.50650 0.82520 0.03600
H 	H 	0.96830 0.49800 0.88870 0.04500
N 	N 	0.05770 0.54240 0.80950 -0.15900
C 	C 	0.96510 0.48610 0.73080 0.02100
H 	H 	0.92160 0.46040 0.71880 0.03000
N 	N 	0.29800 0.60700 0.96000 -0.15300
C 	C 	0.10230 0.57680 0.88770 0.17600
C 	C 	0.10820 0.65020 0.04380 0.01900
N 	N 	0.41320 0.56680 0.97520 -0.21600
C 	C 	0.34210 0.54730 0.97030 0.11200
H 	H 	0.32510 0.49890 0.97340 -0.00900
C 	C 	0.18460 0.64560 0.04100 -0.24100
H 	H 	0.21260 0.66770 0.09280 0.12100
C 	C 	0.34390 0.66670 0.95300 0.02900
H 	H 	0.32940 0.71550 0.94370 0.04500
C 	C 	0.17850 0.57170 0.88540 -0.24700
H 	H 	0.20230 0.54460 0.83420 0.14700
C 	C 	0.21880 0.60840 0.96190 0.23800
C 	C 	0.06860 0.54340 0.70470 0.09100
H 	H 	0.10920 0.56500 0.67270 0.00400
C 	C 	0.06680 0.61590 0.96420 -0.12500
H 	H 	0.01560 0.61990 0.96360 0.09500
O 	O 	0.10210 0.71710 0.19950 -0.23800
C 	C 	0.06960 0.69230 0.12730 0.22000
O 	O 	0.99890 0.70250 0.11350 -0.19400
C 	C 	0.41370 0.64230 0.96180 0.00400
H 	H 	0.45580 0.67170 0.95930 0.03700
N 	N 	0.01000 0.98560 0.15430 -0.24200
C 	C 	0.00650 0.00900 0.32520 -0.17200
H 	H 	0.99800 0.03170 0.38870 0.11400
N 	N 	0.04240 0.94230 0.30950 -0.11100
C 	C 	0.98610 0.03490 0.23080 0.10800
H 	H 	0.96040 0.07840 0.21880 -0.00500
N 	N 	0.10700 0.70200 0.46000 -0.13700
C 	C 	0.07680 0.89770 0.38770 0.16300
C 	C 	0.15020 0.89180 0.54380 0.02600
N 	N 	0.06680 0.58680 0.47520 -0.22100
C 	C 	0.04730 0.65790 0.47030 0.04300
H 	H 	0.99890 0.67490 0.47340 0.03300
C 	C 	0.14560 0.81540 0.54100 -0.16100
H 	H 	0.16770 0.78740 0.59280 0.10500
C 	C 	0.16670 0.65610 0.45300 0.01700
H 	H 	0.21550 0.67060 0.44370 0.03800
C 	C 	0.07170 0.82150 0.38540 -0.22000
H 	H 	0.04460 0.79770 0.33420 0.13200
C 	C 	0.10840 0.78120 0.46190 0.16900
C 	C 	0.04340 0.93140 0.20470 0.09200
H 	H 	0.06500 0.89080 0.17270 -0.00600
C 	C 	0.11590 0.93320 0.46420 -0.15200
H 	H 	0.11990 0.98440 0.46360 0.10700
O 	O 	0.21710 0.89790 0.69950 -0.25000
C 	C 	0.19230 0.93040 0.62730 0.29300
O 	O 	0.20250 0.00110 0.61350 -0.26600
C 	C 	0.14230 0.58630 0.46180 -0.00000
H 	H 	0.17170 0.54420 0.45930 0.02100
N 	N 	0.49000 0.51440 0.15430 -0.23000
C 	C 	0.49350 0.49100 0.32520 0.01100
H 	H 	0.50200 0.46830 0.38870 0.03400
N 	N 	0.45760 0.55770 0.30950 -0.14800
C 	C 	0.51390 0.46510 0.23080 -0.00900
H 	H 	0.53960 0.42160 0.21880 0.03200
N 	N 	0.39300 0.79800 0.46000 -0.14800
C 	C 	0.42320 0.60230 0.38770 0.17700
C 	C 	0.34980 0.60820 0.54380 0.04400
N 	N 	0.43320 0.91320 0.47520 -0.22100
C 	C 	0.45270 0.84210 0.47030 0.10400
H 	H 	0.50110 0.82510 0.47340 -0.01000
C 	C 	0.35440 0.68460 0.54100 -0.17600
H 	H 	0.33230 0.71260 0.59280 0.11100
C 	C 	0.33330 0.84390 0.45300 0.02000
H 	H 	0.28450 0.82940 0.44370 0.03800
C 	C 	0.42830 0.67850 0.38540 -0.23300
H 	H 	0.45540 0.70230 0.33420 0.14200
C 	C 	0.39160 0.71880 0.46190 0.18400
C 	C 	0.45660 0.56860 0.20470 0.09200
H 	H 	0.43500 0.60920 0.17270 -0.00500
C 	C 	0.38410 0.56680 0.46420 -0.17000
H 	H 	0.38010 0.51560 0.46360 0.10400
O 	O 	0.28290 0.60210 0.69950 -0.24100
C 	C 	0.30770 0.56960 0.62730 0.25500
O 	O 	0.29750 0.49890 0.61350 -0.22500
C 	C 	0.35770 0.91370 0.46180 0.00000
H 	H 	0.32830 0.95580 0.45930 0.03000
Cu	Cu	0.50000 0.00000 0.50000 0.84300
Cu	Cu	0.00000 0.50000 0.50000 0.84200
Cu	Cu	-0.00000 0.00000 -0.00000 0.80900
Cu	Cu	0.50000 0.50000 -0.00000 0.83700
