data_crystal

_cell_length_a 10.89300
_cell_length_b 6.61800
_cell_length_c 17.33700
_cell_angle_alpha 90.00000
_cell_angle_beta  106.88500
_cell_angle_gamma 90.00000

_symmetry_space_group_name_	'P 1'
_symmetry_space_group_name_H-M	'P 1'

loop_
_symmetry_equiv_pos_as_xyz
  x,y,z

loop_
_atom_site_label
_atom_site_type_symbol
_atom_site_fract_x
_atom_site_fract_y
_atom_site_fract_z
_atom_site_charge
Mn	Mn	0.46859 0.49677 0.08739 1.22900
O 	O 	0.27340 0.35280 0.03820 -0.49300
O 	O 	0.34850 0.03850 0.06010 -0.51600
O 	O 	0.36280 0.14540 0.33810 -0.52600
O 	O 	0.35990 0.45440 0.38620 -0.50200
O 	O 	0.56240 0.31270 0.01860 -0.75800
H 	H 	0.65450 0.31280 0.04670 0.15600
C 	C 	0.25740 0.16570 0.04140 0.41000
C 	C 	0.12360 0.08180 0.02220 -0.28200
C 	C 	0.03380 0.15070 0.05990 0.16500
C 	C 	0.07210 0.29790 0.12830 -0.08200
C 	C 	0.17170 0.24730 0.19660 0.03300
H 	H 	0.21110 0.12180 0.19900 0.01300
C 	C 	0.21350 0.37980 0.26120 -0.16000
C 	C 	0.15360 0.56850 0.25640 0.04400
H 	H 	0.18070 0.65950 0.29890 0.01500
C 	C 	0.05440 0.62090 0.18910 -0.11100
H 	H 	0.01610 0.74740 0.18630 0.07700
C 	C 	0.01140 0.48370 0.12520 0.00800
H 	H 	0.94250 0.51700 0.08100 0.02200
C 	C 	0.32260 0.32200 0.33450 0.42400
C 	C 	0.08770 0.93030 0.96330 0.18100
H 	H 	0.14810 0.88310 0.93920 -0.01700
Mn	Mn	0.53141 0.99677 0.41261 1.24600
O 	O 	0.72660 0.85280 0.46180 -0.45300
O 	O 	0.65150 0.53850 0.43990 -0.48000
O 	O 	0.63720 0.64540 0.16190 -0.51800
O 	O 	0.64010 0.95440 0.11380 -0.49400
O 	O 	0.43760 0.81270 0.48140 -0.72200
H 	H 	0.34550 0.81280 0.45330 0.17100
C 	C 	0.74260 0.66570 0.45860 0.36300
C 	C 	0.87640 0.58180 0.47780 -0.11500
C 	C 	0.96620 0.65070 0.44010 0.06400
C 	C 	0.92790 0.79790 0.37170 -0.05500
C 	C 	0.82830 0.74730 0.30340 0.01000
H 	H 	0.78890 0.62180 0.30100 0.02500
C 	C 	0.78650 0.87980 0.23880 -0.12700
C 	C 	0.84640 0.06850 0.24360 0.02000
H 	H 	0.81930 0.15950 0.20110 0.01200
C 	C 	0.94560 0.12090 0.31090 -0.15100
H 	H 	0.98390 0.24740 0.31370 0.08600
C 	C 	0.98860 0.98370 0.37480 0.07200
H 	H 	0.05750 0.01700 0.41900 -0.00000
C 	C 	0.67740 0.82200 0.16550 0.41200
C 	C 	0.91230 0.43030 0.53670 -0.01900
H 	H 	0.85190 0.38310 0.56080 0.03100
Mn	Mn	0.53141 0.50323 0.91261 1.24500
O 	O 	0.72660 0.64720 0.96180 -0.42100
O 	O 	0.65150 0.96150 0.93990 -0.42900
O 	O 	0.63720 0.85460 0.66190 -0.49900
O 	O 	0.64010 0.54560 0.61380 -0.49500
O 	O 	0.43760 0.68730 0.98140 -0.69100
H 	H 	0.34550 0.68720 0.95330 0.17700
C 	C 	0.74260 0.83430 0.95860 0.30200
C 	C 	0.87640 0.91820 0.97780 0.09100
C 	C 	0.96620 0.84930 0.94010 -0.09300
C 	C 	0.92790 0.70210 0.87170 0.07000
C 	C 	0.82830 0.75270 0.80340 -0.06700
H 	H 	0.78890 0.87820 0.80100 0.05700
C 	C 	0.78650 0.62020 0.73880 -0.09500
C 	C 	0.84640 0.43150 0.74360 -0.02900
H 	H 	0.81930 0.34050 0.70110 0.03400
C 	C 	0.94560 0.37910 0.81090 -0.01900
H 	H 	0.98390 0.25260 0.81370 0.03800
C 	C 	0.98860 0.51630 0.87480 -0.10500
H 	H 	0.05750 0.48300 0.91900 0.09100
C 	C 	0.67740 0.67800 0.66550 0.39900
C 	C 	0.91230 0.06970 0.03670 -0.26800
H 	H 	0.85190 0.11690 0.06080 0.10000
Mn	Mn	0.46859 0.00323 0.58739 1.22800
O 	O 	0.27340 0.14720 0.53820 -0.46100
O 	O 	0.34850 0.46150 0.56010 -0.47600
O 	O 	0.36280 0.35460 0.83810 -0.50600
O 	O 	0.35990 0.04560 0.88620 -0.49200
O 	O 	0.56240 0.18730 0.51860 -0.73600
H 	H 	0.65450 0.18720 0.54670 0.16200
C 	C 	0.25740 0.33430 0.54140 0.35200
C 	C 	0.12360 0.41820 0.52220 -0.08100
C 	C 	0.03380 0.34930 0.55990 0.00500
C 	C 	0.07210 0.20210 0.62830 0.04300
C 	C 	0.17170 0.25270 0.69660 -0.04600
H 	H 	0.21110 0.37820 0.69900 0.04500
C 	C 	0.21350 0.12020 0.76120 -0.12700
C 	C 	0.15360 0.93150 0.75640 -0.00500
H 	H 	0.18070 0.84050 0.79890 0.03700
C 	C 	0.05440 0.87910 0.68910 0.01800
H 	H 	0.01610 0.75260 0.68630 0.03100
C 	C 	0.01140 0.01630 0.62520 -0.16600
H 	H 	0.94250 0.98300 0.58100 0.11400
C 	C 	0.32260 0.17800 0.83450 0.40800
C 	C 	0.08770 0.56970 0.46330 -0.06100
H 	H 	0.14810 0.61690 0.43920 0.05000
Mn	Mn	0.50000 0.00000 -0.00000 1.26600
Mn	Mn	0.50000 0.50000 0.50000 1.29700
