data_crystal

_cell_length_a 34.16680
_cell_length_b 34.16680
_cell_length_c 19.34250
_cell_angle_alpha 90.00000
_cell_angle_beta  90.00000
_cell_angle_gamma 90.00000

_symmetry_space_group_name_	'P 1'
_symmetry_space_group_name_H-M	'P 1'

loop_
_symmetry_equiv_pos_as_xyz
  x,y,z

loop_
_atom_site_label
_atom_site_type_symbol
_atom_site_fract_x
_atom_site_fract_y
_atom_site_fract_z
_atom_site_charge
Cu	Cu	0.24755 0.24618 0.81631 0.91500
O 	O 	0.27576 0.19798 0.80370 -0.39900
O 	O 	0.53306 0.45959 0.92620 -0.38200
O 	O 	0.45863 0.03549 0.56830 -0.34900
O 	O 	0.30309 0.28098 0.69820 -0.40300
O 	O 	0.27930 0.20243 0.68690 -0.39100
O 	O 	0.29839 0.27229 0.81370 -0.39400
C 	C 	0.46420 0.36130 0.80380 -0.07200
C 	C 	0.31420 0.28440 0.75790 0.35600
C 	C 	0.39650 0.03520 0.65710 -0.02800
H 	H 	0.40990 0.05820 0.64710 0.06600
C 	C 	0.34030 0.07610 0.71260 0.13100
C 	C 	0.36020 0.03490 0.69420 -0.06400
C 	C 	0.28550 0.18510 0.74440 0.34900
C 	C 	0.40450 0.32910 0.84620 -0.14400
H 	H 	0.41410 0.33260 0.89070 0.09200
C 	C 	0.33090 0.09640 0.65810 -0.16900
H 	H 	0.33500 0.08640 0.61400 0.09700
H 	H 	0.47630 0.30000 0.73290 0.14900
C 	C 	0.42490 0.34010 0.79290 0.10300
C 	C 	0.46590 0.39470 0.84490 0.01400
H 	H 	0.44280 0.40680 0.85850 0.04800
C 	C 	0.31360 0.13540 0.66750 0.07800
H 	H 	0.30920 0.15210 0.63020 0.02500
C 	C 	0.30450 0.14600 0.73300 -0.14000
C 	C 	0.33040 0.08680 0.77530 -0.16900
H 	H 	0.33400 0.07000 0.81260 0.09000
C 	C 	0.31330 0.12680 0.78560 0.08200
H 	H 	0.30940 0.13700 0.82970 0.02200
C 	C 	0.36660 0.31140 0.83510 0.04600
H 	H 	0.35090 0.30470 0.87260 0.04100
C 	C 	0.35380 0.30460 0.76800 -0.09800
C 	C 	0.41240 0.33420 0.72490 -0.13100
H 	H 	0.42800 0.34220 0.68820 0.07700
C 	C 	0.37380 0.31490 0.71100 0.03600
H 	H 	0.36440 0.31050 0.66650 0.03800
N 	N 	0.24650 0.24400 0.92780 -0.18500
C 	C 	0.25810 0.21220 0.95776 0.05400
H 	H 	0.26610 0.19050 0.93250 0.03000
C 	C 	0.22310 0.26230 0.96000 0.08100
H 	H 	0.20440 0.27690 0.93650 0.01900
H 	H 	0.29960 0.97800 0.77700 0.14200
O 	O 	0.51210 0.10250 0.47970 -0.00100
Cu	Cu	0.74755 0.74618 0.31631 0.91400
O 	O 	0.77576 0.69798 0.30370 -0.40200
O 	O 	0.03306 0.95959 0.42620 -0.39200
O 	O 	0.95863 0.53549 0.06830 -0.34900
O 	O 	0.80309 0.78098 0.19820 -0.40500
O 	O 	0.77930 0.70243 0.18690 -0.39300
O 	O 	0.79839 0.77229 0.31370 -0.39700
C 	C 	0.96420 0.86130 0.30380 -0.07200
C 	C 	0.81420 0.78440 0.25790 0.35600
C 	C 	0.89650 0.53520 0.15710 -0.03400
H 	H 	0.90990 0.55820 0.14710 0.06700
C 	C 	0.84030 0.57610 0.21260 0.13000
C 	C 	0.86020 0.53490 0.19420 -0.06400
C 	C 	0.78550 0.68510 0.24440 0.34900
C 	C 	0.90450 0.82910 0.34620 -0.14500
H 	H 	0.91410 0.83260 0.39070 0.08800
C 	C 	0.83090 0.59640 0.15810 -0.17000
H 	H 	0.83500 0.58640 0.11400 0.09300
H 	H 	0.97630 0.80000 0.23290 0.15200
C 	C 	0.92490 0.84010 0.29290 0.10200
C 	C 	0.96590 0.89470 0.34490 0.02400
H 	H 	0.94280 0.90680 0.35850 0.04300
C 	C 	0.81360 0.63540 0.16750 0.07700
H 	H 	0.80920 0.65210 0.13020 0.02200
C 	C 	0.80450 0.64600 0.23300 -0.14200
C 	C 	0.83040 0.58680 0.27530 -0.17000
H 	H 	0.83400 0.57000 0.31260 0.08800
C 	C 	0.81330 0.62680 0.28560 0.08200
H 	H 	0.80940 0.63700 0.32970 0.01900
C 	C 	0.86660 0.81140 0.33510 0.04500
H 	H 	0.85090 0.80470 0.37260 0.03700
C 	C 	0.85380 0.80460 0.26800 -0.10000
C 	C 	0.91240 0.83420 0.22490 -0.13200
H 	H 	0.92800 0.84220 0.18820 0.07600
C 	C 	0.87380 0.81490 0.21100 0.03600
H 	H 	0.86440 0.81050 0.16650 0.03500
N 	N 	0.74650 0.74400 0.42780 -0.17100
C 	C 	0.75810 0.71220 0.45776 0.01500
H 	H 	0.76610 0.69050 0.43250 0.03700
C 	C 	0.72310 0.76230 0.46000 0.03300
H 	H 	0.70440 0.77690 0.43650 0.02900
H 	H 	0.79960 0.47800 0.27700 0.13300
O 	O 	0.01210 0.60250 0.97970 -0.00500
Cu	Cu	0.75245 0.75382 0.81631 0.91400
O 	O 	0.72424 0.80202 0.80370 -0.39900
O 	O 	0.46694 0.54041 0.92620 -0.38300
O 	O 	0.54137 0.96451 0.56830 -0.34300
O 	O 	0.69691 0.71902 0.69820 -0.40300
O 	O 	0.72070 0.79757 0.68690 -0.39100
O 	O 	0.70161 0.72771 0.81370 -0.39400
C 	C 	0.53580 0.63870 0.80380 -0.07200
C 	C 	0.68580 0.71560 0.75790 0.35600
C 	C 	0.60350 0.96480 0.65710 -0.02000
H 	H 	0.59010 0.94180 0.64710 0.06500
C 	C 	0.65970 0.92390 0.71260 0.13100
C 	C 	0.63980 0.96510 0.69420 -0.05900
C 	C 	0.71450 0.81490 0.74440 0.34900
C 	C 	0.59550 0.67090 0.84620 -0.14400
H 	H 	0.58590 0.66740 0.89070 0.09200
C 	C 	0.66910 0.90360 0.65810 -0.16900
H 	H 	0.66500 0.91360 0.61400 0.09800
H 	H 	0.52370 0.70000 0.73290 0.14900
C 	C 	0.57510 0.65990 0.79290 0.10300
C 	C 	0.53410 0.60530 0.84490 0.01400
H 	H 	0.55720 0.59320 0.85850 0.04800
C 	C 	0.68640 0.86460 0.66750 0.07900
H 	H 	0.69080 0.84790 0.63020 0.02600
C 	C 	0.69550 0.85400 0.73300 -0.14000
C 	C 	0.66960 0.91320 0.77530 -0.16900
H 	H 	0.66600 0.93000 0.81260 0.09200
C 	C 	0.68670 0.87320 0.78560 0.08300
H 	H 	0.69060 0.86300 0.82970 0.02300
C 	C 	0.63340 0.68860 0.83510 0.04600
H 	H 	0.64910 0.69530 0.87260 0.04100
C 	C 	0.64620 0.69540 0.76800 -0.09800
C 	C 	0.58760 0.66580 0.72490 -0.13100
H 	H 	0.57200 0.65780 0.68820 0.07700
C 	C 	0.62620 0.68510 0.71100 0.03700
H 	H 	0.63560 0.68950 0.66650 0.03800
N 	N 	0.75350 0.75600 0.92780 -0.18500
C 	C 	0.74190 0.78780 0.95776 0.05400
H 	H 	0.73390 0.80950 0.93250 0.03000
C 	C 	0.77690 0.73770 0.96000 0.08100
H 	H 	0.79560 0.72310 0.93650 0.01900
H 	H 	0.70040 0.02200 0.77700 0.13600
O 	O 	0.48790 0.89750 0.47970 -0.00100
Cu	Cu	0.25245 0.25382 0.31631 0.91400
O 	O 	0.22424 0.30202 0.30370 -0.40200
O 	O 	0.96694 0.04041 0.42620 -0.39200
O 	O 	0.04137 0.46451 0.06830 -0.35300
O 	O 	0.19691 0.21902 0.19820 -0.40500
O 	O 	0.22070 0.29757 0.18690 -0.39300
O 	O 	0.20161 0.22771 0.31370 -0.39700
C 	C 	0.03580 0.13870 0.30380 -0.07700
C 	C 	0.18580 0.21560 0.25790 0.35600
C 	C 	0.10350 0.46480 0.15710 -0.03300
H 	H 	0.09010 0.44180 0.14710 0.06500
C 	C 	0.15970 0.42390 0.21260 0.12900
C 	C 	0.13980 0.46510 0.19420 -0.06500
C 	C 	0.21450 0.31490 0.24440 0.34900
C 	C 	0.09550 0.17090 0.34620 -0.14500
H 	H 	0.08590 0.16740 0.39070 0.08600
C 	C 	0.16910 0.40360 0.15810 -0.17000
H 	H 	0.16500 0.41360 0.11400 0.09300
H 	H 	0.02370 0.20000 0.23290 0.14600
C 	C 	0.07510 0.15990 0.29290 0.10200
C 	C 	0.03410 0.10530 0.34490 0.01800
H 	H 	0.05720 0.09320 0.35850 0.04200
C 	C 	0.18640 0.36460 0.16750 0.07700
H 	H 	0.19080 0.34790 0.13020 0.02200
C 	C 	0.19550 0.35400 0.23300 -0.14200
C 	C 	0.16960 0.41320 0.27530 -0.17000
H 	H 	0.16600 0.43000 0.31260 0.08800
C 	C 	0.18670 0.37320 0.28560 0.08100
H 	H 	0.19060 0.36300 0.32970 0.01900
C 	C 	0.13340 0.18860 0.33510 0.04500
H 	H 	0.14910 0.19530 0.37260 0.03700
C 	C 	0.14620 0.19540 0.26800 -0.10100
C 	C 	0.08760 0.16580 0.22490 -0.13300
H 	H 	0.07200 0.15780 0.18820 0.07300
C 	C 	0.12620 0.18510 0.21100 0.03500
H 	H 	0.13560 0.18950 0.16650 0.03400
N 	N 	0.25350 0.25600 0.42780 -0.17100
C 	C 	0.24190 0.28780 0.45776 0.01500
H 	H 	0.23390 0.30950 0.43250 0.03700
C 	C 	0.27690 0.23770 0.46000 0.03200
H 	H 	0.29560 0.22310 0.43650 0.02900
H 	H 	0.20040 0.52200 0.27700 0.13300
O 	O 	0.98790 0.39750 0.97970 0.01700
Cu	Cu	0.75245 0.24618 0.18369 0.91300
O 	O 	0.72424 0.19798 0.19630 -0.40400
O 	O 	0.46694 0.45959 0.07380 -0.40200
O 	O 	0.54137 0.03549 0.43170 -0.35000
O 	O 	0.69691 0.28098 0.30180 -0.40300
O 	O 	0.72070 0.20243 0.31310 -0.39100
O 	O 	0.70161 0.27229 0.18630 -0.39900
C 	C 	0.53580 0.36130 0.19620 -0.07700
C 	C 	0.68580 0.28440 0.24210 0.35600
C 	C 	0.60350 0.03520 0.34290 -0.02900
H 	H 	0.59010 0.05820 0.35290 0.06400
C 	C 	0.65970 0.07610 0.28740 0.13000
C 	C 	0.63980 0.03490 0.30580 -0.06600
C 	C 	0.71450 0.18510 0.25560 0.34900
C 	C 	0.59550 0.32910 0.15380 -0.14600
H 	H 	0.58590 0.33260 0.10930 0.08200
C 	C 	0.66910 0.09640 0.34190 -0.17000
H 	H 	0.66500 0.08640 0.38600 0.09700
H 	H 	0.52370 0.30000 0.26710 0.14700
C 	C 	0.57510 0.34010 0.20710 0.10100
C 	C 	0.53410 0.39470 0.15510 0.01600
H 	H 	0.55720 0.40680 0.14150 0.04200
C 	C 	0.68640 0.13540 0.33250 0.07800
H 	H 	0.69080 0.15210 0.36980 0.02500
C 	C 	0.69550 0.14600 0.26700 -0.14200
C 	C 	0.66960 0.08680 0.22470 -0.17100
H 	H 	0.66600 0.07000 0.18740 0.08400
C 	C 	0.68670 0.12680 0.21440 0.08100
H 	H 	0.69060 0.13700 0.17030 0.01500
C 	C 	0.63340 0.31140 0.16490 0.04400
H 	H 	0.64910 0.30470 0.12740 0.03300
C 	C 	0.64620 0.30460 0.23200 -0.10100
C 	C 	0.58760 0.33420 0.27510 -0.13200
H 	H 	0.57200 0.34220 0.31180 0.07700
C 	C 	0.62620 0.31490 0.28900 0.03600
H 	H 	0.63560 0.31050 0.33350 0.03700
N 	N 	0.75350 0.24400 0.07220 -0.15700
C 	C 	0.74190 0.21220 0.04224 -0.02500
H 	H 	0.73390 0.19050 0.06750 0.04500
C 	C 	0.77690 0.26230 0.04000 -0.01600
H 	H 	0.79560 0.27690 0.06350 0.04000
H 	H 	0.70040 0.97800 0.22300 0.13700
O 	O 	0.48790 0.10250 0.52030 0.00100
Cu	Cu	0.25245 0.74618 0.68369 0.91400
O 	O 	0.22424 0.69798 0.69630 -0.40100
O 	O 	0.96694 0.95959 0.57380 -0.38600
O 	O 	0.04137 0.53549 0.93170 -0.33800
O 	O 	0.19691 0.78098 0.80180 -0.40100
O 	O 	0.22070 0.70243 0.81310 -0.38900
O 	O 	0.20161 0.77229 0.68630 -0.39700
C 	C 	0.03580 0.86130 0.69620 -0.07400
C 	C 	0.18580 0.78440 0.74210 0.35600
C 	C 	0.10350 0.53520 0.84290 -0.03200
H 	H 	0.09010 0.55820 0.85290 0.06900
C 	C 	0.15970 0.57610 0.78740 0.13100
C 	C 	0.13980 0.53490 0.80580 -0.06200
C 	C 	0.21450 0.68510 0.75560 0.34900
C 	C 	0.09550 0.82910 0.65380 -0.14400
H 	H 	0.08590 0.83260 0.60930 0.08600
C 	C 	0.16910 0.59640 0.84190 -0.16900
H 	H 	0.16500 0.58640 0.88600 0.10300
H 	H 	0.02370 0.80000 0.76710 0.15100
C 	C 	0.07510 0.84010 0.70710 0.10200
C 	C 	0.03410 0.89470 0.65510 0.01800
H 	H 	0.05720 0.90680 0.64150 0.04500
C 	C 	0.18640 0.63540 0.83250 0.08000
H 	H 	0.19080 0.65210 0.86980 0.02900
C 	C 	0.19550 0.64600 0.76700 -0.14000
C 	C 	0.16960 0.58680 0.72470 -0.17000
H 	H 	0.16600 0.57000 0.68740 0.08800
C 	C 	0.18670 0.62680 0.71440 0.08200
H 	H 	0.19060 0.63700 0.67030 0.01900
C 	C 	0.13340 0.81140 0.66490 0.04500
H 	H 	0.14910 0.80470 0.62740 0.03700
C 	C 	0.14620 0.80460 0.73200 -0.09800
C 	C 	0.08760 0.83420 0.77510 -0.13000
H 	H 	0.07200 0.84220 0.81180 0.08000
C 	C 	0.12620 0.81490 0.78900 0.03700
H 	H 	0.13560 0.81050 0.83350 0.04100
N 	N 	0.25350 0.74400 0.57220 -0.17100
C 	C 	0.24190 0.71220 0.54224 0.01500
H 	H 	0.23390 0.69050 0.56750 0.03700
C 	C 	0.27690 0.76230 0.54000 0.03200
H 	H 	0.29560 0.77690 0.56350 0.02900
H 	H 	0.20040 0.47800 0.72300 0.13400
O 	O 	0.98790 0.60250 0.02030 -0.06200
Cu	Cu	0.24755 0.75382 0.18369 0.91300
O 	O 	0.27576 0.80202 0.19630 -0.40300
O 	O 	0.53306 0.54041 0.07380 -0.40200
O 	O 	0.45863 0.96451 0.43170 -0.34400
O 	O 	0.30309 0.71902 0.30180 -0.40300
O 	O 	0.27930 0.79757 0.31310 -0.39100
O 	O 	0.29839 0.72771 0.18630 -0.39900
C 	C 	0.46420 0.63870 0.19620 -0.07700
C 	C 	0.31420 0.71560 0.24210 0.35600
C 	C 	0.39650 0.96480 0.34290 -0.02100
H 	H 	0.40990 0.94180 0.35290 0.06300
C 	C 	0.34030 0.92390 0.28740 0.13000
C 	C 	0.36020 0.96510 0.30580 -0.06000
C 	C 	0.28550 0.81490 0.25560 0.34900
C 	C 	0.40450 0.67090 0.15380 -0.14600
H 	H 	0.41410 0.66740 0.10930 0.08200
C 	C 	0.33090 0.90360 0.34190 -0.17000
H 	H 	0.33500 0.91360 0.38600 0.09800
H 	H 	0.47630 0.70000 0.26710 0.14700
C 	C 	0.42490 0.65990 0.20710 0.10100
C 	C 	0.46590 0.60530 0.15510 0.01600
H 	H 	0.44280 0.59320 0.14150 0.04200
C 	C 	0.31360 0.86460 0.33250 0.07900
H 	H 	0.30920 0.84790 0.36980 0.02500
C 	C 	0.30450 0.85400 0.26700 -0.14200
C 	C 	0.33040 0.91320 0.22470 -0.17100
H 	H 	0.33400 0.93000 0.18740 0.08600
C 	C 	0.31330 0.87320 0.21440 0.08100
H 	H 	0.30940 0.86300 0.17030 0.01600
C 	C 	0.36660 0.68860 0.16490 0.04400
H 	H 	0.35090 0.69530 0.12740 0.03300
C 	C 	0.35380 0.69540 0.23200 -0.10100
C 	C 	0.41240 0.66580 0.27510 -0.13200
H 	H 	0.42800 0.65780 0.31180 0.07700
C 	C 	0.37380 0.68510 0.28900 0.03600
H 	H 	0.36440 0.68950 0.33350 0.03700
N 	N 	0.24650 0.75600 0.07220 -0.15700
C 	C 	0.25810 0.78780 0.04224 -0.02500
H 	H 	0.26610 0.80950 0.06750 0.04500
C 	C 	0.22310 0.73770 0.04000 -0.01600
H 	H 	0.20440 0.72310 0.06350 0.04000
H 	H 	0.29960 0.02200 0.22300 0.13100
O 	O 	0.51210 0.89750 0.52030 0.00000
Cu	Cu	0.74755 0.25382 0.68369 0.91400
O 	O 	0.77576 0.30202 0.69630 -0.40100
O 	O 	0.03306 0.04041 0.57380 -0.39700
O 	O 	0.95863 0.46451 0.93170 -0.33500
O 	O 	0.80309 0.21902 0.80180 -0.40100
O 	O 	0.77930 0.29757 0.81310 -0.38900
O 	O 	0.79839 0.22771 0.68630 -0.39700
C 	C 	0.96420 0.13870 0.69620 -0.07200
C 	C 	0.81420 0.21560 0.74210 0.35600
C 	C 	0.89650 0.46480 0.84290 -0.03200
H 	H 	0.90990 0.44180 0.85290 0.07000
C 	C 	0.84030 0.42390 0.78740 0.13200
C 	C 	0.86020 0.46510 0.80580 -0.06100
C 	C 	0.78550 0.31490 0.75560 0.34900
C 	C 	0.90450 0.17090 0.65380 -0.14400
H 	H 	0.91410 0.16740 0.60930 0.08700
C 	C 	0.83090 0.40360 0.84190 -0.16900
H 	H 	0.83500 0.41360 0.88600 0.10300
H 	H 	0.97630 0.20000 0.76710 0.15600
C 	C 	0.92490 0.15990 0.70710 0.10300
C 	C 	0.96590 0.10530 0.65510 0.02600
H 	H 	0.94280 0.09320 0.64150 0.04200
C 	C 	0.81360 0.36460 0.83250 0.08000
H 	H 	0.80920 0.34790 0.86980 0.02900
C 	C 	0.80450 0.35400 0.76700 -0.14000
C 	C 	0.83040 0.41320 0.72470 -0.17000
H 	H 	0.83400 0.43000 0.68740 0.08800
C 	C 	0.81330 0.37320 0.71440 0.08200
H 	H 	0.80940 0.36300 0.67030 0.01900
C 	C 	0.86660 0.18860 0.66490 0.04500
H 	H 	0.85090 0.19530 0.62740 0.03700
C 	C 	0.85380 0.19540 0.73200 -0.09800
C 	C 	0.91240 0.16580 0.77510 -0.13100
H 	H 	0.92800 0.15780 0.81180 0.08100
C 	C 	0.87380 0.18510 0.78900 0.03700
H 	H 	0.86440 0.18950 0.83350 0.04100
N 	N 	0.74650 0.25600 0.57220 -0.17100
C 	C 	0.75810 0.28780 0.54224 0.01500
H 	H 	0.76610 0.30950 0.56750 0.03800
C 	C 	0.72310 0.23770 0.54000 0.03200
H 	H 	0.70440 0.22310 0.56350 0.02900
H 	H 	0.79960 0.52200 0.72300 0.13400
O 	O 	0.01210 0.39750 0.02030 -0.06700
Cu	Cu	0.75245 0.75382 0.18369 0.91300
O 	O 	0.72424 0.80202 0.19630 -0.40300
O 	O 	0.46694 0.54041 0.07380 -0.40200
O 	O 	0.54137 0.96451 0.43170 -0.34400
O 	O 	0.69691 0.71902 0.30180 -0.40300
O 	O 	0.72070 0.79757 0.31310 -0.39100
O 	O 	0.70161 0.72771 0.18630 -0.39900
C 	C 	0.53580 0.63870 0.19620 -0.07700
C 	C 	0.68580 0.71560 0.24210 0.35600
C 	C 	0.60350 0.96480 0.34290 -0.02100
H 	H 	0.59010 0.94180 0.35290 0.06300
C 	C 	0.65970 0.92390 0.28740 0.13000
C 	C 	0.63980 0.96510 0.30580 -0.06000
C 	C 	0.71450 0.81490 0.25560 0.34900
C 	C 	0.59550 0.67090 0.15380 -0.14600
H 	H 	0.58590 0.66740 0.10930 0.08200
C 	C 	0.66910 0.90360 0.34190 -0.17000
H 	H 	0.66500 0.91360 0.38600 0.09800
H 	H 	0.52370 0.70000 0.26710 0.14700
C 	C 	0.57510 0.65990 0.20710 0.10100
C 	C 	0.53410 0.60530 0.15510 0.01600
H 	H 	0.55720 0.59320 0.14150 0.04200
C 	C 	0.68640 0.86460 0.33250 0.07900
H 	H 	0.69080 0.84790 0.36980 0.02500
C 	C 	0.69550 0.85400 0.26700 -0.14200
C 	C 	0.66960 0.91320 0.22470 -0.17100
H 	H 	0.66600 0.93000 0.18740 0.08600
C 	C 	0.68670 0.87320 0.21440 0.08100
H 	H 	0.69060 0.86300 0.17030 0.01600
C 	C 	0.63340 0.68860 0.16490 0.04400
H 	H 	0.64910 0.69530 0.12740 0.03300
C 	C 	0.64620 0.69540 0.23200 -0.10100
C 	C 	0.58760 0.66580 0.27510 -0.13200
H 	H 	0.57200 0.65780 0.31180 0.07700
C 	C 	0.62620 0.68510 0.28900 0.03600
H 	H 	0.63560 0.68950 0.33350 0.03700
N 	N 	0.75350 0.75600 0.07220 -0.15700
C 	C 	0.74190 0.78780 0.04224 -0.02500
H 	H 	0.73390 0.80950 0.06750 0.04500
C 	C 	0.77690 0.73770 0.04000 -0.01600
H 	H 	0.79560 0.72310 0.06350 0.04000
H 	H 	0.70040 0.02200 0.22300 0.13100
O 	O 	0.48790 0.89750 0.52030 0.00000
Cu	Cu	0.25245 0.25382 0.68369 0.91400
O 	O 	0.22424 0.30202 0.69630 -0.40100
O 	O 	0.96694 0.04041 0.57380 -0.39100
O 	O 	0.04137 0.46451 0.93170 -0.33800
O 	O 	0.19691 0.21902 0.80180 -0.40100
O 	O 	0.22070 0.29757 0.81310 -0.38900
O 	O 	0.20161 0.22771 0.68630 -0.39700
C 	C 	0.03580 0.13870 0.69620 -0.07600
C 	C 	0.18580 0.21560 0.74210 0.35600
C 	C 	0.10350 0.46480 0.84290 -0.03200
H 	H 	0.09010 0.44180 0.85290 0.06900
C 	C 	0.15970 0.42390 0.78740 0.13100
C 	C 	0.13980 0.46510 0.80580 -0.06200
C 	C 	0.21450 0.31490 0.75560 0.34900
C 	C 	0.09550 0.17090 0.65380 -0.14500
H 	H 	0.08590 0.16740 0.60930 0.08600
C 	C 	0.16910 0.40360 0.84190 -0.16900
H 	H 	0.16500 0.41360 0.88600 0.10300
H 	H 	0.02370 0.20000 0.76710 0.15100
C 	C 	0.07510 0.15990 0.70710 0.10200
C 	C 	0.03410 0.10530 0.65510 0.01900
H 	H 	0.05720 0.09320 0.64150 0.04300
C 	C 	0.18640 0.36460 0.83250 0.08000
H 	H 	0.19080 0.34790 0.86980 0.02900
C 	C 	0.19550 0.35400 0.76700 -0.14000
C 	C 	0.16960 0.41320 0.72470 -0.17000
H 	H 	0.16600 0.43000 0.68740 0.08800
C 	C 	0.18670 0.37320 0.71440 0.08200
H 	H 	0.19060 0.36300 0.67030 0.01900
C 	C 	0.13340 0.18860 0.66490 0.04500
H 	H 	0.14910 0.19530 0.62740 0.03700
C 	C 	0.14620 0.19540 0.73200 -0.09800
C 	C 	0.08760 0.16580 0.77510 -0.13100
H 	H 	0.07200 0.15780 0.81180 0.08000
C 	C 	0.12620 0.18510 0.78900 0.03700
H 	H 	0.13560 0.18950 0.83350 0.04100
N 	N 	0.25350 0.25600 0.57220 -0.17100
C 	C 	0.24190 0.28780 0.54224 0.01500
H 	H 	0.23390 0.30950 0.56750 0.03700
C 	C 	0.27690 0.23770 0.54000 0.03200
H 	H 	0.29560 0.22310 0.56350 0.02900
H 	H 	0.20040 0.52200 0.72300 0.13400
O 	O 	0.98790 0.39750 0.02030 -0.06200
Cu	Cu	0.24755 0.24618 0.18369 0.91300
O 	O 	0.27576 0.19798 0.19630 -0.40400
O 	O 	0.53306 0.45959 0.07380 -0.40200
O 	O 	0.45863 0.03549 0.43170 -0.35000
O 	O 	0.30309 0.28098 0.30180 -0.40300
O 	O 	0.27930 0.20243 0.31310 -0.39100
O 	O 	0.29839 0.27229 0.18630 -0.39900
C 	C 	0.46420 0.36130 0.19620 -0.07700
C 	C 	0.31420 0.28440 0.24210 0.35600
C 	C 	0.39650 0.03520 0.34290 -0.02900
H 	H 	0.40990 0.05820 0.35290 0.06400
C 	C 	0.34030 0.07610 0.28740 0.13000
C 	C 	0.36020 0.03490 0.30580 -0.06600
C 	C 	0.28550 0.18510 0.25560 0.34900
C 	C 	0.40450 0.32910 0.15380 -0.14600
H 	H 	0.41410 0.33260 0.10930 0.08200
C 	C 	0.33090 0.09640 0.34190 -0.17000
H 	H 	0.33500 0.08640 0.38600 0.09700
H 	H 	0.47630 0.30000 0.26710 0.14700
C 	C 	0.42490 0.34010 0.20710 0.10100
C 	C 	0.46590 0.39470 0.15510 0.01600
H 	H 	0.44280 0.40680 0.14150 0.04200
C 	C 	0.31360 0.13540 0.33250 0.07800
H 	H 	0.30920 0.15210 0.36980 0.02500
C 	C 	0.30450 0.14600 0.26700 -0.14200
C 	C 	0.33040 0.08680 0.22470 -0.17100
H 	H 	0.33400 0.07000 0.18740 0.08400
C 	C 	0.31330 0.12680 0.21440 0.08100
H 	H 	0.30940 0.13700 0.17030 0.01500
C 	C 	0.36660 0.31140 0.16490 0.04400
H 	H 	0.35090 0.30470 0.12740 0.03300
C 	C 	0.35380 0.30460 0.23200 -0.10100
C 	C 	0.41240 0.33420 0.27510 -0.13200
H 	H 	0.42800 0.34220 0.31180 0.07700
C 	C 	0.37380 0.31490 0.28900 0.03600
H 	H 	0.36440 0.31050 0.33350 0.03700
N 	N 	0.24650 0.24400 0.07220 -0.15700
C 	C 	0.25810 0.21220 0.04224 -0.02500
H 	H 	0.26610 0.19050 0.06750 0.04500
C 	C 	0.22310 0.26230 0.04000 -0.01600
H 	H 	0.20440 0.27690 0.06350 0.04000
H 	H 	0.29960 0.97800 0.22300 0.13700
O 	O 	0.51210 0.10250 0.52030 0.00100
Cu	Cu	0.74755 0.74618 0.68369 0.91400
O 	O 	0.77576 0.69798 0.69630 -0.40100
O 	O 	0.03306 0.95959 0.57380 -0.39100
O 	O 	0.95863 0.53549 0.93170 -0.33500
O 	O 	0.80309 0.78098 0.80180 -0.40100
O 	O 	0.77930 0.70243 0.81310 -0.38900
O 	O 	0.79839 0.77229 0.68630 -0.39600
C 	C 	0.96420 0.86130 0.69620 -0.07000
C 	C 	0.81420 0.78440 0.74210 0.35600
C 	C 	0.89650 0.53520 0.84290 -0.03200
H 	H 	0.90990 0.55820 0.85290 0.07000
C 	C 	0.84030 0.57610 0.78740 0.13200
C 	C 	0.86020 0.53490 0.80580 -0.06100
C 	C 	0.78550 0.68510 0.75560 0.34900
C 	C 	0.90450 0.82910 0.65380 -0.14400
H 	H 	0.91410 0.83260 0.60930 0.08700
C 	C 	0.83090 0.59640 0.84190 -0.16900
H 	H 	0.83500 0.58640 0.88600 0.10300
H 	H 	0.97630 0.80000 0.76710 0.15600
C 	C 	0.92490 0.84010 0.70710 0.10300
C 	C 	0.96590 0.89470 0.65510 0.02500
H 	H 	0.94280 0.90680 0.64150 0.04400
C 	C 	0.81360 0.63540 0.83250 0.08000
H 	H 	0.80920 0.65210 0.86980 0.02900
C 	C 	0.80450 0.64600 0.76700 -0.14000
C 	C 	0.83040 0.58680 0.72470 -0.17000
H 	H 	0.83400 0.57000 0.68740 0.08800
C 	C 	0.81330 0.62680 0.71440 0.08200
H 	H 	0.80940 0.63700 0.67030 0.01900
C 	C 	0.86660 0.81140 0.66490 0.04500
H 	H 	0.85090 0.80470 0.62740 0.03800
C 	C 	0.85380 0.80460 0.73200 -0.09800
C 	C 	0.91240 0.83420 0.77510 -0.13000
H 	H 	0.92800 0.84220 0.81180 0.08200
C 	C 	0.87380 0.81490 0.78900 0.03800
H 	H 	0.86440 0.81050 0.83350 0.04100
N 	N 	0.74650 0.74400 0.57220 -0.17100
C 	C 	0.75810 0.71220 0.54224 0.01500
H 	H 	0.76610 0.69050 0.56750 0.03800
C 	C 	0.72310 0.76230 0.54000 0.03200
H 	H 	0.70440 0.77690 0.56350 0.02900
H 	H 	0.79960 0.47800 0.72300 0.13400
O 	O 	0.01210 0.60250 0.02030 -0.06700
Cu	Cu	0.24755 0.75382 0.81631 0.91400
O 	O 	0.27576 0.80202 0.80370 -0.39900
O 	O 	0.53306 0.54041 0.92620 -0.38300
O 	O 	0.45863 0.96451 0.56830 -0.34300
O 	O 	0.30309 0.71902 0.69820 -0.40300
O 	O 	0.27930 0.79757 0.68690 -0.39100
O 	O 	0.29839 0.72771 0.81370 -0.39400
C 	C 	0.46420 0.63870 0.80380 -0.07200
C 	C 	0.31420 0.71560 0.75790 0.35600
C 	C 	0.39650 0.96480 0.65710 -0.02000
H 	H 	0.40990 0.94180 0.64710 0.06500
C 	C 	0.34030 0.92390 0.71260 0.13100
C 	C 	0.36020 0.96510 0.69420 -0.05900
C 	C 	0.28550 0.81490 0.74440 0.34900
C 	C 	0.40450 0.67090 0.84620 -0.14400
H 	H 	0.41410 0.66740 0.89070 0.09200
C 	C 	0.33090 0.90360 0.65810 -0.16900
H 	H 	0.33500 0.91360 0.61400 0.09800
H 	H 	0.47630 0.70000 0.73290 0.14900
C 	C 	0.42490 0.65990 0.79290 0.10300
C 	C 	0.46590 0.60530 0.84490 0.01400
H 	H 	0.44280 0.59320 0.85850 0.04800
C 	C 	0.31360 0.86460 0.66750 0.07900
H 	H 	0.30920 0.84790 0.63020 0.02600
C 	C 	0.30450 0.85400 0.73300 -0.14000
C 	C 	0.33040 0.91320 0.77530 -0.16900
H 	H 	0.33400 0.93000 0.81260 0.09200
C 	C 	0.31330 0.87320 0.78560 0.08300
H 	H 	0.30940 0.86300 0.82970 0.02300
C 	C 	0.36660 0.68860 0.83510 0.04600
H 	H 	0.35090 0.69530 0.87260 0.04100
C 	C 	0.35380 0.69540 0.76800 -0.09800
C 	C 	0.41240 0.66580 0.72490 -0.13100
H 	H 	0.42800 0.65780 0.68820 0.07700
C 	C 	0.37380 0.68510 0.71100 0.03700
H 	H 	0.36440 0.68950 0.66650 0.03800
N 	N 	0.24650 0.75600 0.92780 -0.18500
C 	C 	0.25810 0.78780 0.95776 0.05500
H 	H 	0.26610 0.80950 0.93250 0.03000
C 	C 	0.22310 0.73770 0.96000 0.08100
H 	H 	0.20440 0.72310 0.93650 0.01900
H 	H 	0.29960 0.02200 0.77700 0.13600
O 	O 	0.51210 0.89750 0.47970 -0.00100
Cu	Cu	0.74755 0.25382 0.31631 0.91400
O 	O 	0.77576 0.30202 0.30370 -0.40200
O 	O 	0.03306 0.04041 0.42620 -0.39800
O 	O 	0.95863 0.46451 0.06830 -0.34900
O 	O 	0.80309 0.21902 0.19820 -0.40500
O 	O 	0.77930 0.29757 0.18690 -0.39300
O 	O 	0.79839 0.22771 0.31370 -0.39700
C 	C 	0.96420 0.13870 0.30380 -0.07300
C 	C 	0.81420 0.21560 0.25790 0.35600
C 	C 	0.89650 0.46480 0.15710 -0.03400
H 	H 	0.90990 0.44180 0.14710 0.06700
C 	C 	0.84030 0.42390 0.21260 0.13000
C 	C 	0.86020 0.46510 0.19420 -0.06400
C 	C 	0.78550 0.31490 0.24440 0.34900
C 	C 	0.90450 0.17090 0.34620 -0.14500
H 	H 	0.91410 0.16740 0.39070 0.08700
C 	C 	0.83090 0.40360 0.15810 -0.17000
H 	H 	0.83500 0.41360 0.11400 0.09300
H 	H 	0.97630 0.20000 0.23290 0.15200
C 	C 	0.92490 0.15990 0.29290 0.10200
C 	C 	0.96590 0.10530 0.34490 0.02600
H 	H 	0.94280 0.09320 0.35850 0.04100
C 	C 	0.81360 0.36460 0.16750 0.07700
H 	H 	0.80920 0.34790 0.13020 0.02200
C 	C 	0.80450 0.35400 0.23300 -0.14200
C 	C 	0.83040 0.41320 0.27530 -0.17000
H 	H 	0.83400 0.43000 0.31260 0.08800
C 	C 	0.81330 0.37320 0.28560 0.08200
H 	H 	0.80940 0.36300 0.32970 0.01900
C 	C 	0.86660 0.18860 0.33510 0.04500
H 	H 	0.85090 0.19530 0.37260 0.03700
C 	C 	0.85380 0.19540 0.26800 -0.10000
C 	C 	0.91240 0.16580 0.22490 -0.13300
H 	H 	0.92800 0.15780 0.18820 0.07500
C 	C 	0.87380 0.18510 0.21100 0.03600
H 	H 	0.86440 0.18950 0.16650 0.03400
N 	N 	0.74650 0.25600 0.42780 -0.17100
C 	C 	0.75810 0.28780 0.45776 0.01500
H 	H 	0.76610 0.30950 0.43250 0.03700
C 	C 	0.72310 0.23770 0.46000 0.03200
H 	H 	0.70440 0.22310 0.43650 0.02900
H 	H 	0.79960 0.52200 0.27700 0.13300
O 	O 	0.01210 0.39750 0.97970 -0.00500
Cu	Cu	0.75245 0.24618 0.81631 0.91400
O 	O 	0.72424 0.19798 0.80370 -0.40000
O 	O 	0.46694 0.45959 0.92620 -0.38300
O 	O 	0.54137 0.03549 0.56830 -0.34900
O 	O 	0.69691 0.28098 0.69820 -0.40300
O 	O 	0.72070 0.20243 0.68690 -0.39100
O 	O 	0.70161 0.27229 0.81370 -0.39400
C 	C 	0.53580 0.36130 0.80380 -0.07200
C 	C 	0.68580 0.28440 0.75790 0.35600
C 	C 	0.60350 0.03520 0.65710 -0.02800
H 	H 	0.59010 0.05820 0.64710 0.06600
C 	C 	0.65970 0.07610 0.71260 0.13100
C 	C 	0.63980 0.03490 0.69420 -0.06400
C 	C 	0.71450 0.18510 0.74440 0.34900
C 	C 	0.59550 0.32910 0.84620 -0.14400
H 	H 	0.58590 0.33260 0.89070 0.09200
C 	C 	0.66910 0.09640 0.65810 -0.16900
H 	H 	0.66500 0.08640 0.61400 0.09700
H 	H 	0.52370 0.30000 0.73290 0.14900
C 	C 	0.57510 0.34010 0.79290 0.10300
C 	C 	0.53410 0.39470 0.84490 0.01400
H 	H 	0.55720 0.40680 0.85850 0.04800
C 	C 	0.68640 0.13540 0.66750 0.07800
H 	H 	0.69080 0.15210 0.63020 0.02500
C 	C 	0.69550 0.14600 0.73300 -0.14000
C 	C 	0.66960 0.08680 0.77530 -0.16900
H 	H 	0.66600 0.07000 0.81260 0.09000
C 	C 	0.68670 0.12680 0.78560 0.08200
H 	H 	0.69060 0.13700 0.82970 0.02200
C 	C 	0.63340 0.31140 0.83510 0.04600
H 	H 	0.64910 0.30470 0.87260 0.04100
C 	C 	0.64620 0.30460 0.76800 -0.09800
C 	C 	0.58760 0.33420 0.72490 -0.13100
H 	H 	0.57200 0.34220 0.68820 0.07700
C 	C 	0.62620 0.31490 0.71100 0.03600
H 	H 	0.63560 0.31050 0.66650 0.03800
N 	N 	0.75350 0.24400 0.92780 -0.18500
C 	C 	0.74190 0.21220 0.95776 0.05400
H 	H 	0.73390 0.19050 0.93250 0.03000
C 	C 	0.77690 0.26230 0.96000 0.08100
H 	H 	0.79560 0.27690 0.93650 0.01900
H 	H 	0.70040 0.97800 0.77700 0.14200
O 	O 	0.48790 0.10250 0.47970 -0.00100
Cu	Cu	0.25245 0.74618 0.31631 0.91400
O 	O 	0.22424 0.69798 0.30370 -0.40200
O 	O 	0.96694 0.95959 0.42620 -0.38700
O 	O 	0.04137 0.53549 0.06830 -0.35300
O 	O 	0.19691 0.78098 0.19820 -0.40500
O 	O 	0.22070 0.70243 0.18690 -0.39300
O 	O 	0.20161 0.77229 0.31370 -0.39700
C 	C 	0.03580 0.86130 0.30380 -0.07600
C 	C 	0.18580 0.78440 0.25790 0.35600
C 	C 	0.10350 0.53520 0.15710 -0.03300
H 	H 	0.09010 0.55820 0.14710 0.06500
C 	C 	0.15970 0.57610 0.21260 0.12900
C 	C 	0.13980 0.53490 0.19420 -0.06500
C 	C 	0.21450 0.68510 0.24440 0.34900
C 	C 	0.09550 0.82910 0.34620 -0.14500
H 	H 	0.08590 0.83260 0.39070 0.08600
C 	C 	0.16910 0.59640 0.15810 -0.17000
H 	H 	0.16500 0.58640 0.11400 0.09300
H 	H 	0.02370 0.80000 0.23290 0.14700
C 	C 	0.07510 0.84010 0.29290 0.10200
C 	C 	0.03410 0.89470 0.34490 0.01700
H 	H 	0.05720 0.90680 0.35850 0.04400
C 	C 	0.18640 0.63540 0.16750 0.07700
H 	H 	0.19080 0.65210 0.13020 0.02200
C 	C 	0.19550 0.64600 0.23300 -0.14200
C 	C 	0.16960 0.58680 0.27530 -0.17100
H 	H 	0.16600 0.57000 0.31260 0.08800
C 	C 	0.18670 0.62680 0.28560 0.08100
H 	H 	0.19060 0.63700 0.32970 0.01900
C 	C 	0.13340 0.81140 0.33510 0.04500
H 	H 	0.14910 0.80470 0.37260 0.03700
C 	C 	0.14620 0.80460 0.26800 -0.10000
C 	C 	0.08760 0.83420 0.22490 -0.13300
H 	H 	0.07200 0.84220 0.18820 0.07400
C 	C 	0.12620 0.81490 0.21100 0.03500
H 	H 	0.13560 0.81050 0.16650 0.03400
N 	N 	0.25350 0.74400 0.42780 -0.17100
C 	C 	0.24190 0.71220 0.45776 0.01500
H 	H 	0.23390 0.69050 0.43250 0.03700
C 	C 	0.27690 0.76230 0.46000 0.03200
H 	H 	0.29560 0.77690 0.43650 0.02900
H 	H 	0.20040 0.47800 0.27700 0.13300
O 	O 	0.98790 0.60250 0.97970 0.01700
Cu	Cu	0.50000 0.03849 0.50000 0.91700
O 	O 	0.50000 0.10380 0.50000 -0.19900
Cu	Cu	-0.00000 0.53849 -0.00000 0.90500
O 	O 	-0.00000 0.60380 -0.00000 -0.10300
Cu	Cu	0.50000 0.96151 0.50000 0.91900
O 	O 	0.50000 0.89620 0.50000 -0.19800
Cu	Cu	-0.00000 0.46151 -0.00000 0.90500
O 	O 	0.00000 0.39620 -0.00000 -0.10300
Cu	Cu	0.53790 0.50000 -0.00000 0.87800
Cu	Cu	0.03790 -0.00000 0.50000 0.88700
Cu	Cu	0.46210 0.50000 -0.00000 0.87800
Cu	Cu	0.96210 -0.00000 0.50000 0.88900
C 	C 	0.50000 0.40970 0.86530 -0.08800
C 	C 	0.50000 0.44500 0.91110 0.33500
N 	N 	0.50000 0.30690 0.74580 -0.29100
C 	C 	0.50000 0.34300 0.77930 0.10200
C 	C 	0.00000 0.90970 0.36530 -0.10200
C 	C 	0.00000 0.94500 0.41110 0.33000
N 	N 	0.00000 0.80690 0.24580 -0.29700
C 	C 	0.00000 0.84300 0.27930 0.09600
C 	C 	0.50000 0.59030 0.86530 -0.08800
C 	C 	0.50000 0.55500 0.91110 0.33500
N 	N 	0.50000 0.69310 0.74580 -0.29100
C 	C 	0.50000 0.65700 0.77930 0.10200
C 	C 	0.00000 0.09030 0.36530 -0.10400
C 	C 	0.00000 0.05500 0.41110 0.33100
N 	N 	-0.00000 0.19310 0.24580 -0.29700
C 	C 	0.00000 0.15700 0.27930 0.09600
C 	C 	0.50000 0.40970 0.13470 -0.09800
C 	C 	0.50000 0.44500 0.08890 0.33600
N 	N 	0.50000 0.30690 0.25420 -0.29200
C 	C 	0.50000 0.34300 0.22070 0.10200
C 	C 	0.00000 0.90970 0.63470 -0.10000
C 	C 	0.00000 0.94500 0.58890 0.33100
N 	N 	0.00000 0.80690 0.75420 -0.29800
C 	C 	0.00000 0.84300 0.72070 0.09800
C 	C 	0.50000 0.59030 0.13470 -0.09800
C 	C 	0.50000 0.55500 0.08890 0.33600
N 	N 	0.50000 0.69310 0.25420 -0.29200
C 	C 	0.50000 0.65700 0.22070 0.10200
C 	C 	-0.00000 0.09030 0.63470 -0.10300
C 	C 	0.00000 0.05500 0.58890 0.33200
N 	N 	0.00000 0.19310 0.75420 -0.29800
C 	C 	0.00000 0.15700 0.72070 0.09800
N 	N 	0.30870 0.00000 0.75860 -0.28700
C 	C 	0.40970 0.00000 0.63780 -0.02600
C 	C 	0.44490 0.00000 0.58440 0.23000
C 	C 	0.34140 0.00000 0.71920 0.10500
N 	N 	0.80870 0.50000 0.25860 -0.28100
C 	C 	0.90970 0.50000 0.13780 -0.01600
C 	C 	0.94490 0.50000 0.08440 0.23100
C 	C 	0.84140 0.50000 0.21920 0.10800
N 	N 	0.69130 0.00000 0.75860 -0.28700
C 	C 	0.59030 0.00000 0.63780 -0.02600
C 	C 	0.55510 0.00000 0.58440 0.23000
C 	C 	0.65860 0.00000 0.71920 0.10500
N 	N 	0.19130 0.50000 0.25860 -0.28100
C 	C 	0.09030 0.50000 0.13780 -0.01800
C 	C 	0.05510 0.50000 0.08440 0.23000
C 	C 	0.15860 0.50000 0.21920 0.10800
N 	N 	0.69130 0.00000 0.24140 -0.28600
C 	C 	0.59030 0.00000 0.36220 -0.02700
C 	C 	0.55510 0.00000 0.41560 0.22900
C 	C 	0.65860 0.00000 0.28080 0.10200
N 	N 	0.19130 0.50000 0.74140 -0.28100
C 	C 	0.09030 0.50000 0.86220 -0.01300
C 	C 	0.05510 0.50000 0.91560 0.23600
C 	C 	0.15860 0.50000 0.78080 0.11000
N 	N 	0.30870 0.00000 0.24140 -0.28600
C 	C 	0.40970 0.00000 0.36220 -0.02700
C 	C 	0.44490 0.00000 0.41560 0.22900
C 	C 	0.34140 0.00000 0.28080 0.10200
N 	N 	0.80870 0.50000 0.74140 -0.28100
C 	C 	0.90970 0.50000 0.86220 -0.01200
C 	C 	0.94490 0.50000 0.91560 0.23700
C 	C 	0.84140 0.50000 0.78080 0.11000
