data_crystal

_cell_length_a 34.14490
_cell_length_b 34.14490
_cell_length_c 19.88430
_cell_angle_alpha 90.00000
_cell_angle_beta  90.00000
_cell_angle_gamma 90.00000

_symmetry_space_group_name_	'P 1'
_symmetry_space_group_name_H-M	'P 1'

loop_
_symmetry_equiv_pos_as_xyz
  x,y,z

loop_
_atom_site_label
_atom_site_type_symbol
_atom_site_fract_x
_atom_site_fract_y
_atom_site_fract_z
_atom_site_charge
Cu	Cu	0.24658 0.25458 0.31462 0.90300
O 	O 	0.19785 0.28048 0.30070 -0.39900
O 	O 	0.45842 0.46701 0.06600 -0.40400
C 	C 	0.13460 0.31240 0.15690 0.03200
H 	H 	0.15000 0.30550 0.12010 0.02800
C 	C 	0.31560 0.36460 0.15420 0.02200
H 	H 	0.31170 0.34840 0.11730 0.03100
C 	C 	0.07428 0.34107 0.20230 0.12300
C 	C 	0.09780 0.33120 0.15110 -0.14600
H 	H 	0.08920 0.33730 0.10790 0.07700
C 	C 	0.33180 0.40350 0.15130 -0.12100
H 	H 	0.33640 0.41350 0.10850 0.07100
C 	C 	0.34134 0.42730 0.20350 0.08800
O 	O 	0.03312 0.45924 0.06770 -0.41100
C 	C 	0.31310 0.37570 0.28480 0.03200
H 	H 	0.30790 0.36810 0.32890 0.03300
O 	O 	0.27389 0.30299 0.30370 -0.39300
C 	C 	0.30510 0.35340 0.23020 -0.10000
O 	O 	0.28161 0.29761 0.19170 -0.45400
C 	C 	0.03465 0.39326 0.15100 0.02900
H 	H 	0.05810 0.40470 0.13760 0.03400
C 	C 	0.35970 0.46448 0.19310 -0.07000
C 	C 	0.39457 0.46422 0.14990 -0.00100
C 	C 	0.03591 0.35940 0.19030 -0.10600
C 	C 	0.12319 0.31490 0.27960 0.03700
H 	H 	0.13080 0.31080 0.32400 0.03000
O 	O 	0.20407 0.27237 0.18320 -0.38200
C 	C 	0.08670 0.33180 0.26080 -0.15600
H 	H 	0.06960 0.33690 0.29600 0.07600
C 	C 	0.14583 0.30511 0.22560 -0.07500
C 	C 	0.33120 0.41360 0.26600 -0.12000
H 	H 	0.33630 0.43050 0.30150 0.07100
C 	C 	0.28520 0.31430 0.23860 0.39300
C 	C 	0.18616 0.28434 0.24190 0.29100
H 	H 	0.02200 0.30700 0.26600 0.17600
H 	H 	0.30600 0.47300 0.27400 0.09100
H 	H 	0.41010 0.44220 0.14700 0.04600
Cu	Cu	0.74658 0.75458 0.81462 0.90600
O 	O 	0.69785 0.78048 0.80070 -0.39300
O 	O 	0.95842 0.96701 0.56600 -0.38200
C 	C 	0.63460 0.81240 0.65690 0.03500
H 	H 	0.65000 0.80550 0.62010 0.03500
C 	C 	0.81560 0.86460 0.65420 0.02500
H 	H 	0.81170 0.84840 0.61730 0.03900
C 	C 	0.57428 0.84107 0.70230 0.12600
C 	C 	0.59780 0.83120 0.65110 -0.14200
H 	H 	0.58920 0.83730 0.60790 0.08500
C 	C 	0.83180 0.90350 0.65130 -0.11600
H 	H 	0.83640 0.91350 0.60850 0.07800
C 	C 	0.84134 0.92730 0.70350 0.08900
O 	O 	0.53312 0.95924 0.56770 -0.39800
C 	C 	0.81310 0.87570 0.78480 0.03200
H 	H 	0.80790 0.86810 0.82890 0.03900
O 	O 	0.77389 0.80299 0.80370 -0.38800
C 	C 	0.80510 0.85340 0.73020 -0.09500
O 	O 	0.78161 0.79761 0.69170 -0.44900
C 	C 	0.53465 0.89326 0.65100 0.02600
H 	H 	0.55810 0.90470 0.63760 0.04000
C 	C 	0.85970 0.96448 0.69310 -0.05900
C 	C 	0.89457 0.96422 0.64990 0.00800
C 	C 	0.53591 0.85940 0.69030 -0.10200
C 	C 	0.62319 0.81490 0.77960 0.03900
H 	H 	0.63080 0.81080 0.82400 0.03600
O 	O 	0.70407 0.77237 0.68320 -0.37800
C 	C 	0.58670 0.83180 0.76080 -0.15400
H 	H 	0.56960 0.83690 0.79600 0.08000
C 	C 	0.64583 0.80511 0.72560 -0.07100
C 	C 	0.83120 0.91360 0.76600 -0.11600
H 	H 	0.83630 0.93050 0.80150 0.07500
C 	C 	0.78520 0.81430 0.73860 0.39200
C 	C 	0.68616 0.78434 0.74190 0.29100
H 	H 	0.52200 0.80700 0.76600 0.17900
H 	H 	0.80600 0.97300 0.77400 0.10000
H 	H 	0.91010 0.94220 0.64700 0.04900
Cu	Cu	0.75342 0.74542 0.31462 0.90500
O 	O 	0.80215 0.71952 0.30070 -0.39800
O 	O 	0.54158 0.53299 0.06600 -0.40300
C 	C 	0.86540 0.68760 0.15690 0.03300
H 	H 	0.85000 0.69450 0.12010 0.02900
C 	C 	0.68440 0.63540 0.15420 0.02300
H 	H 	0.68830 0.65160 0.11730 0.03200
C 	C 	0.92572 0.65893 0.20230 0.12400
C 	C 	0.90220 0.66880 0.15110 -0.14300
H 	H 	0.91080 0.66270 0.10790 0.07900
C 	C 	0.66820 0.59650 0.15130 -0.11900
H 	H 	0.66360 0.58650 0.10850 0.07200
C 	C 	0.65866 0.57270 0.20350 0.08900
O 	O 	0.96688 0.54076 0.06770 -0.40500
C 	C 	0.68690 0.62430 0.28480 0.03200
H 	H 	0.69210 0.63190 0.32890 0.03300
O 	O 	0.72611 0.69701 0.30370 -0.39300
C 	C 	0.69490 0.64660 0.23020 -0.10000
O 	O 	0.71839 0.70239 0.19170 -0.45400
C 	C 	0.96535 0.60674 0.15100 0.03600
H 	H 	0.94190 0.59530 0.13760 0.03300
C 	C 	0.64030 0.53552 0.19310 -0.07000
C 	C 	0.60543 0.53578 0.14990 -0.00100
C 	C 	0.96409 0.64060 0.19030 -0.10200
C 	C 	0.87681 0.68510 0.27960 0.03800
H 	H 	0.86920 0.68920 0.32400 0.03100
O 	O 	0.79593 0.72763 0.18320 -0.38200
C 	C 	0.91330 0.66820 0.26080 -0.15500
H 	H 	0.93040 0.66310 0.29600 0.07700
C 	C 	0.85417 0.69489 0.22560 -0.07400
C 	C 	0.66880 0.58640 0.26600 -0.12000
H 	H 	0.66370 0.56950 0.30150 0.07100
C 	C 	0.71480 0.68570 0.23860 0.39300
C 	C 	0.81384 0.71566 0.24190 0.29100
H 	H 	0.97800 0.69300 0.26600 0.18200
H 	H 	0.69400 0.52700 0.27400 0.09100
H 	H 	0.58990 0.55780 0.14700 0.04600
Cu	Cu	0.25342 0.24542 0.81462 0.90600
O 	O 	0.30215 0.21952 0.80070 -0.39300
O 	O 	0.04158 0.03299 0.56600 -0.39400
C 	C 	0.36540 0.18760 0.65690 0.03500
H 	H 	0.35000 0.19450 0.62010 0.03500
C 	C 	0.18440 0.13540 0.65420 0.02400
H 	H 	0.18830 0.15160 0.61730 0.03800
C 	C 	0.42572 0.15893 0.70230 0.12600
C 	C 	0.40220 0.16880 0.65110 -0.14300
H 	H 	0.41080 0.16270 0.60790 0.08500
C 	C 	0.16820 0.09650 0.65130 -0.11700
H 	H 	0.16360 0.08650 0.60850 0.07700
C 	C 	0.15866 0.07270 0.70350 0.09000
O 	O 	0.46688 0.04076 0.56770 -0.40400
C 	C 	0.18690 0.12430 0.78480 0.03200
H 	H 	0.19210 0.13190 0.82890 0.03800
O 	O 	0.22611 0.19701 0.80370 -0.38900
C 	C 	0.19490 0.14660 0.73020 -0.09600
O 	O 	0.21839 0.20239 0.69170 -0.44900
C 	C 	0.46535 0.10674 0.65100 0.02700
H 	H 	0.44190 0.09530 0.63760 0.03900
C 	C 	0.14030 0.03552 0.69310 -0.06700
C 	C 	0.10543 0.03578 0.64990 0.00100
C 	C 	0.46409 0.14060 0.69030 -0.10300
C 	C 	0.37681 0.18510 0.77960 0.03800
H 	H 	0.36920 0.18920 0.82400 0.03600
O 	O 	0.29593 0.22763 0.68320 -0.37800
C 	C 	0.41330 0.16820 0.76080 -0.15400
H 	H 	0.43040 0.16310 0.79600 0.08000
C 	C 	0.35417 0.19489 0.72560 -0.07100
C 	C 	0.16880 0.08640 0.76600 -0.11800
H 	H 	0.16370 0.06950 0.80150 0.07300
C 	C 	0.21480 0.18570 0.73860 0.39200
C 	C 	0.31384 0.21566 0.74190 0.29100
H 	H 	0.47800 0.19300 0.76600 0.17900
H 	H 	0.19400 0.02700 0.77400 0.09400
H 	H 	0.08990 0.05780 0.64700 0.04800
Cu	Cu	0.75342 0.25458 0.68538 0.90400
O 	O 	0.80215 0.28048 0.69930 -0.39700
O 	O 	0.54158 0.46701 0.93400 -0.37500
C 	C 	0.86540 0.31240 0.84310 0.03600
H 	H 	0.85000 0.30550 0.87990 0.04100
C 	C 	0.68440 0.36460 0.84580 0.02700
H 	H 	0.68830 0.34840 0.88270 0.04400
C 	C 	0.92572 0.34107 0.79770 0.12500
C 	C 	0.90220 0.33120 0.84890 -0.14000
H 	H 	0.91080 0.33730 0.89210 0.09200
C 	C 	0.66820 0.40350 0.84870 -0.11800
H 	H 	0.66360 0.41350 0.89150 0.08500
C 	C 	0.65866 0.42730 0.79650 0.09300
O 	O 	0.96688 0.45924 0.93230 -0.37900
C 	C 	0.68690 0.37570 0.71520 0.03200
H 	H 	0.69210 0.36810 0.67110 0.03400
O 	O 	0.72611 0.30299 0.69630 -0.39200
C 	C 	0.69490 0.35340 0.76980 -0.09500
O 	O 	0.71839 0.29761 0.80830 -0.44600
C 	C 	0.96535 0.39326 0.84900 0.03300
H 	H 	0.94190 0.40470 0.86240 0.04100
C 	C 	0.64030 0.46448 0.80690 -0.06800
C 	C 	0.60543 0.46422 0.85010 0.00200
C 	C 	0.96409 0.35940 0.80970 -0.09600
C 	C 	0.87681 0.31490 0.72040 0.03800
H 	H 	0.86920 0.31080 0.67600 0.03200
O 	O 	0.79593 0.27237 0.81680 -0.37400
C 	C 	0.91330 0.33180 0.73920 -0.15300
H 	H 	0.93040 0.33690 0.70400 0.07700
C 	C 	0.85417 0.30511 0.77440 -0.07000
C 	C 	0.66880 0.41360 0.73400 -0.11900
H 	H 	0.66370 0.43050 0.69850 0.07100
C 	C 	0.71480 0.31430 0.76140 0.39100
C 	C 	0.81384 0.28434 0.75810 0.29100
H 	H 	0.97800 0.30700 0.73400 0.18400
H 	H 	0.69400 0.47300 0.72600 0.09200
H 	H 	0.58990 0.44220 0.85300 0.05100
Cu	Cu	0.25342 0.75458 0.18538 0.90200
O 	O 	0.30215 0.78048 0.19930 -0.40100
O 	O 	0.04158 0.96701 0.43400 -0.38800
C 	C 	0.36540 0.81240 0.34310 0.03500
H 	H 	0.35000 0.80550 0.37990 0.03400
C 	C 	0.18440 0.86460 0.34580 0.02400
H 	H 	0.18830 0.84840 0.38270 0.03800
C 	C 	0.42572 0.84107 0.29770 0.12500
C 	C 	0.40220 0.83120 0.34890 -0.14400
H 	H 	0.41080 0.83730 0.39210 0.08600
C 	C 	0.16820 0.90350 0.34870 -0.11800
H 	H 	0.16360 0.91350 0.39150 0.07800
C 	C 	0.15866 0.92730 0.29650 0.08900
O 	O 	0.46688 0.95924 0.43230 -0.39900
C 	C 	0.18690 0.87570 0.21520 0.03100
H 	H 	0.19210 0.86810 0.17110 0.02900
O 	O 	0.22611 0.80299 0.19630 -0.39700
C 	C 	0.19490 0.85340 0.26980 -0.09900
O 	O 	0.21839 0.79761 0.30830 -0.45000
C 	C 	0.46535 0.89326 0.34900 0.02600
H 	H 	0.44190 0.90470 0.36240 0.03900
C 	C 	0.14030 0.96448 0.30690 -0.06300
C 	C 	0.10543 0.96422 0.35010 0.01000
C 	C 	0.46409 0.85940 0.30970 -0.10400
C 	C 	0.37681 0.81490 0.22040 0.03800
H 	H 	0.36920 0.81080 0.17600 0.02700
O 	O 	0.29593 0.77237 0.31680 -0.37800
C 	C 	0.41330 0.83180 0.23920 -0.15600
H 	H 	0.43040 0.83690 0.20400 0.07400
C 	C 	0.35417 0.80511 0.27440 -0.07500
C 	C 	0.16880 0.91360 0.23400 -0.12000
H 	H 	0.16370 0.93050 0.19850 0.06800
C 	C 	0.21480 0.81430 0.26140 0.39200
C 	C 	0.31384 0.78434 0.25810 0.29200
H 	H 	0.47800 0.80700 0.23400 0.17300
H 	H 	0.19400 0.97300 0.22600 0.09500
H 	H 	0.08990 0.94220 0.35300 0.04400
Cu	Cu	0.24658 0.74542 0.68538 0.90400
O 	O 	0.19785 0.71952 0.69930 -0.39700
O 	O 	0.45842 0.53299 0.93400 -0.37500
C 	C 	0.13460 0.68760 0.84310 0.03600
H 	H 	0.15000 0.69450 0.87990 0.04100
C 	C 	0.31560 0.63540 0.84580 0.02700
H 	H 	0.31170 0.65160 0.88270 0.04400
C 	C 	0.07428 0.65893 0.79770 0.12500
C 	C 	0.09780 0.66880 0.84890 -0.14100
H 	H 	0.08920 0.66270 0.89210 0.09100
C 	C 	0.33180 0.59650 0.84870 -0.11800
H 	H 	0.33640 0.58650 0.89150 0.08500
C 	C 	0.34134 0.57270 0.79650 0.09300
O 	O 	0.03312 0.54076 0.93230 -0.38400
C 	C 	0.31310 0.62430 0.71520 0.03200
H 	H 	0.30790 0.63190 0.67110 0.03300
O 	O 	0.27389 0.69701 0.69630 -0.39200
C 	C 	0.30510 0.64660 0.76980 -0.09600
O 	O 	0.28161 0.70239 0.80830 -0.44600
C 	C 	0.03465 0.60674 0.84900 0.02600
H 	H 	0.05810 0.59530 0.86240 0.04200
C 	C 	0.35970 0.53552 0.80690 -0.06800
C 	C 	0.39457 0.53578 0.85010 0.00200
C 	C 	0.03591 0.64060 0.80970 -0.10100
C 	C 	0.12319 0.68510 0.72040 0.03700
H 	H 	0.13080 0.68920 0.67600 0.03100
O 	O 	0.20407 0.72763 0.81680 -0.37400
C 	C 	0.08670 0.66820 0.73920 -0.15400
H 	H 	0.06960 0.66310 0.70400 0.07600
C 	C 	0.14583 0.69489 0.77440 -0.07100
C 	C 	0.33120 0.58640 0.73400 -0.11900
H 	H 	0.33630 0.56950 0.69850 0.07100
C 	C 	0.28520 0.68570 0.76140 0.39100
C 	C 	0.18616 0.71566 0.75810 0.29100
H 	H 	0.02200 0.69300 0.73400 0.17800
H 	H 	0.30600 0.52700 0.72600 0.09200
H 	H 	0.41010 0.55780 0.85300 0.05100
Cu	Cu	0.74658 0.24542 0.18538 0.90200
O 	O 	0.69785 0.21952 0.19930 -0.40200
O 	O 	0.95842 0.03299 0.43400 -0.39000
C 	C 	0.63460 0.18760 0.34310 0.03500
H 	H 	0.65000 0.19450 0.37990 0.03400
C 	C 	0.81560 0.13540 0.34580 0.02400
H 	H 	0.81170 0.15160 0.38270 0.03800
C 	C 	0.57428 0.15893 0.29770 0.12500
C 	C 	0.59780 0.16880 0.34890 -0.14400
H 	H 	0.58920 0.16270 0.39210 0.08500
C 	C 	0.83180 0.09650 0.34870 -0.11800
H 	H 	0.83640 0.08650 0.39150 0.07800
C 	C 	0.84134 0.07270 0.29650 0.08900
O 	O 	0.53312 0.04076 0.43230 -0.40500
C 	C 	0.81310 0.12430 0.21520 0.03000
H 	H 	0.80790 0.13190 0.17110 0.02800
O 	O 	0.77389 0.19701 0.19630 -0.39700
C 	C 	0.80510 0.14660 0.26980 -0.09900
O 	O 	0.78161 0.20239 0.30830 -0.45000
C 	C 	0.53465 0.10674 0.34900 0.02700
H 	H 	0.55810 0.09530 0.36240 0.03700
C 	C 	0.85970 0.03552 0.30690 -0.06900
C 	C 	0.89457 0.03578 0.35010 0.00000
C 	C 	0.53591 0.14060 0.30970 -0.10500
C 	C 	0.62319 0.18510 0.22040 0.03800
H 	H 	0.63080 0.18920 0.17600 0.02600
O 	O 	0.70407 0.22763 0.31680 -0.37900
C 	C 	0.58670 0.16820 0.23920 -0.15700
H 	H 	0.56960 0.16310 0.20400 0.07300
C 	C 	0.64583 0.19489 0.27440 -0.07500
C 	C 	0.83120 0.08640 0.23400 -0.12000
H 	H 	0.83630 0.06950 0.19850 0.06600
C 	C 	0.78520 0.18570 0.26140 0.39200
C 	C 	0.68616 0.21566 0.25810 0.29100
H 	H 	0.52200 0.19300 0.23400 0.17300
H 	H 	0.80600 0.02700 0.22600 0.08800
H 	H 	0.91010 0.05780 0.35300 0.04700
Cu	Cu	0.75342 0.74542 0.68538 0.90400
O 	O 	0.80215 0.71952 0.69930 -0.39700
O 	O 	0.54158 0.53299 0.93400 -0.37500
C 	C 	0.86540 0.68760 0.84310 0.03600
H 	H 	0.85000 0.69450 0.87990 0.04100
C 	C 	0.68440 0.63540 0.84580 0.02700
H 	H 	0.68830 0.65160 0.88270 0.04400
C 	C 	0.92572 0.65893 0.79770 0.12500
C 	C 	0.90220 0.66880 0.84890 -0.14000
H 	H 	0.91080 0.66270 0.89210 0.09200
C 	C 	0.66820 0.59650 0.84870 -0.11800
H 	H 	0.66360 0.58650 0.89150 0.08500
C 	C 	0.65866 0.57270 0.79650 0.09300
O 	O 	0.96688 0.54076 0.93230 -0.37900
C 	C 	0.68690 0.62430 0.71520 0.03200
H 	H 	0.69210 0.63190 0.67110 0.03400
O 	O 	0.72611 0.69701 0.69630 -0.39200
C 	C 	0.69490 0.64660 0.76980 -0.09500
O 	O 	0.71839 0.70239 0.80830 -0.44600
C 	C 	0.96535 0.60674 0.84900 0.03300
H 	H 	0.94190 0.59530 0.86240 0.04100
C 	C 	0.64030 0.53552 0.80690 -0.06800
C 	C 	0.60543 0.53578 0.85010 0.00200
C 	C 	0.96409 0.64060 0.80970 -0.09600
C 	C 	0.87681 0.68510 0.72040 0.03800
H 	H 	0.86920 0.68920 0.67600 0.03200
O 	O 	0.79593 0.72763 0.81680 -0.37400
C 	C 	0.91330 0.66820 0.73920 -0.15300
H 	H 	0.93040 0.66310 0.70400 0.07700
C 	C 	0.85417 0.69489 0.77440 -0.07000
C 	C 	0.66880 0.58640 0.73400 -0.11900
H 	H 	0.66370 0.56950 0.69850 0.07100
C 	C 	0.71480 0.68570 0.76140 0.39100
C 	C 	0.81384 0.71566 0.75810 0.29100
H 	H 	0.97800 0.69300 0.73400 0.18400
H 	H 	0.69400 0.52700 0.72600 0.09200
H 	H 	0.58990 0.55780 0.85300 0.05100
Cu	Cu	0.25342 0.24542 0.18538 0.90200
O 	O 	0.30215 0.21952 0.19930 -0.40200
O 	O 	0.04158 0.03299 0.43400 -0.39500
C 	C 	0.36540 0.18760 0.34310 0.03500
H 	H 	0.35000 0.19450 0.37990 0.03400
C 	C 	0.18440 0.13540 0.34580 0.02400
H 	H 	0.18830 0.15160 0.38270 0.03800
C 	C 	0.42572 0.15893 0.29770 0.12500
C 	C 	0.40220 0.16880 0.34890 -0.14400
H 	H 	0.41080 0.16270 0.39210 0.08500
C 	C 	0.16820 0.09650 0.34870 -0.11900
H 	H 	0.16360 0.08650 0.39150 0.07700
C 	C 	0.15866 0.07270 0.29650 0.08900
O 	O 	0.46688 0.04076 0.43230 -0.40500
C 	C 	0.18690 0.12430 0.21520 0.03000
H 	H 	0.19210 0.13190 0.17110 0.02800
O 	O 	0.22611 0.19701 0.19630 -0.39700
C 	C 	0.19490 0.14660 0.26980 -0.09900
O 	O 	0.21839 0.20239 0.30830 -0.45000
C 	C 	0.46535 0.10674 0.34900 0.02700
H 	H 	0.44190 0.09530 0.36240 0.03700
C 	C 	0.14030 0.03552 0.30690 -0.07000
C 	C 	0.10543 0.03578 0.35010 0.00200
C 	C 	0.46409 0.14060 0.30970 -0.10500
C 	C 	0.37681 0.18510 0.22040 0.03800
H 	H 	0.36920 0.18920 0.17600 0.02600
O 	O 	0.29593 0.22763 0.31680 -0.37900
C 	C 	0.41330 0.16820 0.23920 -0.15700
H 	H 	0.43040 0.16310 0.20400 0.07300
C 	C 	0.35417 0.19489 0.27440 -0.07500
C 	C 	0.16880 0.08640 0.23400 -0.12100
H 	H 	0.16370 0.06950 0.19850 0.06600
C 	C 	0.21480 0.18570 0.26140 0.39200
C 	C 	0.31384 0.21566 0.25810 0.29200
H 	H 	0.47800 0.19300 0.23400 0.17300
H 	H 	0.19400 0.02700 0.22600 0.08800
H 	H 	0.08990 0.05780 0.35300 0.04600
Cu	Cu	0.24658 0.25458 0.68538 0.90400
O 	O 	0.19785 0.28048 0.69930 -0.39700
O 	O 	0.45842 0.46701 0.93400 -0.37500
C 	C 	0.13460 0.31240 0.84310 0.03600
H 	H 	0.15000 0.30550 0.87990 0.04000
C 	C 	0.31560 0.36460 0.84580 0.02700
H 	H 	0.31170 0.34840 0.88270 0.04400
C 	C 	0.07428 0.34107 0.79770 0.12500
C 	C 	0.09780 0.33120 0.84890 -0.14100
H 	H 	0.08920 0.33730 0.89210 0.09100
C 	C 	0.33180 0.40350 0.84870 -0.11800
H 	H 	0.33640 0.41350 0.89150 0.08500
C 	C 	0.34134 0.42730 0.79650 0.09300
O 	O 	0.03312 0.45924 0.93230 -0.38400
C 	C 	0.31310 0.37570 0.71520 0.03200
H 	H 	0.30790 0.36810 0.67110 0.03300
O 	O 	0.27389 0.30299 0.69630 -0.39200
C 	C 	0.30510 0.35340 0.76980 -0.09600
O 	O 	0.28161 0.29761 0.80830 -0.44600
C 	C 	0.03465 0.39326 0.84900 0.02600
H 	H 	0.05810 0.40470 0.86240 0.04200
C 	C 	0.35970 0.46448 0.80690 -0.06800
C 	C 	0.39457 0.46422 0.85010 0.00200
C 	C 	0.03591 0.35940 0.80970 -0.10100
C 	C 	0.12319 0.31490 0.72040 0.03700
H 	H 	0.13080 0.31080 0.67600 0.03100
O 	O 	0.20407 0.27237 0.81680 -0.37400
C 	C 	0.08670 0.33180 0.73920 -0.15400
H 	H 	0.06960 0.33690 0.70400 0.07600
C 	C 	0.14583 0.30511 0.77440 -0.07100
C 	C 	0.33120 0.41360 0.73400 -0.11900
H 	H 	0.33630 0.43050 0.69850 0.07100
C 	C 	0.28520 0.31430 0.76140 0.39100
C 	C 	0.18616 0.28434 0.75810 0.29100
H 	H 	0.02200 0.30700 0.73400 0.17800
H 	H 	0.30600 0.47300 0.72600 0.09200
H 	H 	0.41010 0.44220 0.85300 0.05100
Cu	Cu	0.74658 0.75458 0.18538 0.90300
O 	O 	0.69785 0.78048 0.19930 -0.40100
O 	O 	0.95842 0.96701 0.43400 -0.38300
C 	C 	0.63460 0.81240 0.34310 0.03500
H 	H 	0.65000 0.80550 0.37990 0.03400
C 	C 	0.81560 0.86460 0.34580 0.02400
H 	H 	0.81170 0.84840 0.38270 0.03800
C 	C 	0.57428 0.84107 0.29770 0.12500
C 	C 	0.59780 0.83120 0.34890 -0.14400
H 	H 	0.58920 0.83730 0.39210 0.08600
C 	C 	0.83180 0.90350 0.34870 -0.11700
H 	H 	0.83640 0.91350 0.39150 0.07900
C 	C 	0.84134 0.92730 0.29650 0.08800
O 	O 	0.53312 0.95924 0.43230 -0.39900
C 	C 	0.81310 0.87570 0.21520 0.03100
H 	H 	0.80790 0.86810 0.17110 0.02900
O 	O 	0.77389 0.80299 0.19630 -0.39700
C 	C 	0.80510 0.85340 0.26980 -0.09800
O 	O 	0.78161 0.79761 0.30830 -0.45000
C 	C 	0.53465 0.89326 0.34900 0.02600
H 	H 	0.55810 0.90470 0.36240 0.03900
C 	C 	0.85970 0.96448 0.30690 -0.06200
C 	C 	0.89457 0.96422 0.35010 0.00900
C 	C 	0.53591 0.85940 0.30970 -0.10400
C 	C 	0.62319 0.81490 0.22040 0.03800
H 	H 	0.63080 0.81080 0.17600 0.02700
O 	O 	0.70407 0.77237 0.31680 -0.37800
C 	C 	0.58670 0.83180 0.23920 -0.15600
H 	H 	0.56960 0.83690 0.20400 0.07400
C 	C 	0.64583 0.80511 0.27440 -0.07500
C 	C 	0.83120 0.91360 0.23400 -0.11900
H 	H 	0.83630 0.93050 0.19850 0.06800
C 	C 	0.78520 0.81430 0.26140 0.39200
C 	C 	0.68616 0.78434 0.25810 0.29200
H 	H 	0.52200 0.80700 0.23400 0.17300
H 	H 	0.80600 0.97300 0.22600 0.09500
H 	H 	0.91010 0.94220 0.35300 0.04600
Cu	Cu	0.24658 0.74542 0.31462 0.90400
O 	O 	0.19785 0.71952 0.30070 -0.39800
O 	O 	0.45842 0.53299 0.06600 -0.40300
C 	C 	0.13460 0.68760 0.15690 0.03300
H 	H 	0.15000 0.69450 0.12010 0.02900
C 	C 	0.31560 0.63540 0.15420 0.02300
H 	H 	0.31170 0.65160 0.11730 0.03200
C 	C 	0.07428 0.65893 0.20230 0.12400
C 	C 	0.09780 0.66880 0.15110 -0.14400
H 	H 	0.08920 0.66270 0.10790 0.07900
C 	C 	0.33180 0.59650 0.15130 -0.12000
H 	H 	0.33640 0.58650 0.10850 0.07200
C 	C 	0.34134 0.57270 0.20350 0.08900
O 	O 	0.03312 0.54076 0.06770 -0.41100
C 	C 	0.31310 0.62430 0.28480 0.03200
H 	H 	0.30790 0.63190 0.32890 0.03300
O 	O 	0.27389 0.69701 0.30370 -0.39400
C 	C 	0.30510 0.64660 0.23020 -0.10000
O 	O 	0.28161 0.70239 0.19170 -0.45400
C 	C 	0.03465 0.60674 0.15100 0.02900
H 	H 	0.05810 0.59530 0.13760 0.03400
C 	C 	0.35970 0.53552 0.19310 -0.07000
C 	C 	0.39457 0.53578 0.14990 -0.00100
C 	C 	0.03591 0.64060 0.19030 -0.10600
C 	C 	0.12319 0.68510 0.27960 0.03700
H 	H 	0.13080 0.68920 0.32400 0.03000
O 	O 	0.20407 0.72763 0.18320 -0.38200
C 	C 	0.08670 0.66820 0.26080 -0.15600
H 	H 	0.06960 0.66310 0.29600 0.07600
C 	C 	0.14583 0.69489 0.22560 -0.07500
C 	C 	0.33120 0.58640 0.26600 -0.12000
H 	H 	0.33630 0.56950 0.30150 0.07100
C 	C 	0.28520 0.68570 0.23860 0.39300
C 	C 	0.18616 0.71566 0.24190 0.29100
H 	H 	0.02200 0.69300 0.26600 0.17600
H 	H 	0.30600 0.52700 0.27400 0.09100
H 	H 	0.41010 0.55780 0.14700 0.04600
Cu	Cu	0.74658 0.24542 0.81462 0.90600
O 	O 	0.69785 0.21952 0.80070 -0.39300
O 	O 	0.95842 0.03299 0.56600 -0.38900
C 	C 	0.63460 0.18760 0.65690 0.03500
H 	H 	0.65000 0.19450 0.62010 0.03500
C 	C 	0.81560 0.13540 0.65420 0.02400
H 	H 	0.81170 0.15160 0.61730 0.03800
C 	C 	0.57428 0.15893 0.70230 0.12600
C 	C 	0.59780 0.16880 0.65110 -0.14300
H 	H 	0.58920 0.16270 0.60790 0.08500
C 	C 	0.83180 0.09650 0.65130 -0.11700
H 	H 	0.83640 0.08650 0.60850 0.07700
C 	C 	0.84134 0.07270 0.70350 0.09000
O 	O 	0.53312 0.04076 0.56770 -0.40400
C 	C 	0.81310 0.12430 0.78480 0.03200
H 	H 	0.80790 0.13190 0.82890 0.03800
O 	O 	0.77389 0.19701 0.80370 -0.38900
C 	C 	0.80510 0.14660 0.73020 -0.09500
O 	O 	0.78161 0.20239 0.69170 -0.44900
C 	C 	0.53465 0.10674 0.65100 0.02700
H 	H 	0.55810 0.09530 0.63760 0.03900
C 	C 	0.85970 0.03552 0.69310 -0.06600
C 	C 	0.89457 0.03578 0.64990 -0.00000
C 	C 	0.53591 0.14060 0.69030 -0.10300
C 	C 	0.62319 0.18510 0.77960 0.03800
H 	H 	0.63080 0.18920 0.82400 0.03600
O 	O 	0.70407 0.22763 0.68320 -0.37800
C 	C 	0.58670 0.16820 0.76080 -0.15400
H 	H 	0.56960 0.16310 0.79600 0.08000
C 	C 	0.64583 0.19489 0.72560 -0.07100
C 	C 	0.83120 0.08640 0.76600 -0.11700
H 	H 	0.83630 0.06950 0.80150 0.07300
C 	C 	0.78520 0.18570 0.73860 0.39200
C 	C 	0.68616 0.21566 0.74190 0.29100
H 	H 	0.52200 0.19300 0.76600 0.17900
H 	H 	0.80600 0.02700 0.77400 0.09400
H 	H 	0.91010 0.05780 0.64700 0.05000
Cu	Cu	0.75342 0.25458 0.31462 0.90400
O 	O 	0.80215 0.28048 0.30070 -0.39800
O 	O 	0.54158 0.46701 0.06600 -0.40300
C 	C 	0.86540 0.31240 0.15690 0.03300
H 	H 	0.85000 0.30550 0.12010 0.02900
C 	C 	0.68440 0.36460 0.15420 0.02300
H 	H 	0.68830 0.34840 0.11730 0.03200
C 	C 	0.92572 0.34107 0.20230 0.12400
C 	C 	0.90220 0.33120 0.15110 -0.14300
H 	H 	0.91080 0.33730 0.10790 0.07900
C 	C 	0.66820 0.40350 0.15130 -0.11900
H 	H 	0.66360 0.41350 0.10850 0.07200
C 	C 	0.65866 0.42730 0.20350 0.08900
O 	O 	0.96688 0.45924 0.06770 -0.40500
C 	C 	0.68690 0.37570 0.28480 0.03200
H 	H 	0.69210 0.36810 0.32890 0.03300
O 	O 	0.72611 0.30299 0.30370 -0.39300
C 	C 	0.69490 0.35340 0.23020 -0.10000
O 	O 	0.71839 0.29761 0.19170 -0.45400
C 	C 	0.96535 0.39326 0.15100 0.03600
H 	H 	0.94190 0.40470 0.13760 0.03300
C 	C 	0.64030 0.46448 0.19310 -0.07000
C 	C 	0.60543 0.46422 0.14990 -0.00100
C 	C 	0.96409 0.35940 0.19030 -0.10200
C 	C 	0.87681 0.31490 0.27960 0.03800
H 	H 	0.86920 0.31080 0.32400 0.03100
O 	O 	0.79593 0.27237 0.18320 -0.38200
C 	C 	0.91330 0.33180 0.26080 -0.15500
H 	H 	0.93040 0.33690 0.29600 0.07700
C 	C 	0.85417 0.30511 0.22560 -0.07400
C 	C 	0.66880 0.41360 0.26600 -0.12000
H 	H 	0.66370 0.43050 0.30150 0.07100
C 	C 	0.71480 0.31430 0.23860 0.39300
C 	C 	0.81384 0.28434 0.24190 0.29100
H 	H 	0.97800 0.30700 0.26600 0.18200
H 	H 	0.69400 0.47300 0.27400 0.09100
H 	H 	0.58990 0.44220 0.14700 0.04600
Cu	Cu	0.25342 0.75458 0.81462 0.90600
O 	O 	0.30215 0.78048 0.80070 -0.39300
O 	O 	0.04158 0.96701 0.56600 -0.38700
C 	C 	0.36540 0.81240 0.65690 0.03500
H 	H 	0.35000 0.80550 0.62010 0.03500
C 	C 	0.18440 0.86460 0.65420 0.02400
H 	H 	0.18830 0.84840 0.61730 0.03800
C 	C 	0.42572 0.84107 0.70230 0.12600
C 	C 	0.40220 0.83120 0.65110 -0.14200
H 	H 	0.41080 0.83730 0.60790 0.08500
C 	C 	0.16820 0.90350 0.65130 -0.11600
H 	H 	0.16360 0.91350 0.60850 0.07800
C 	C 	0.15866 0.92730 0.70350 0.08900
O 	O 	0.46688 0.95924 0.56770 -0.39800
C 	C 	0.18690 0.87570 0.78480 0.03200
H 	H 	0.19210 0.86810 0.82890 0.03900
O 	O 	0.22611 0.80299 0.80370 -0.38800
C 	C 	0.19490 0.85340 0.73020 -0.09500
O 	O 	0.21839 0.79761 0.69170 -0.44900
C 	C 	0.46535 0.89326 0.65100 0.02600
H 	H 	0.44190 0.90470 0.63760 0.04000
C 	C 	0.14030 0.96448 0.69310 -0.06000
C 	C 	0.10543 0.96422 0.64990 0.00900
C 	C 	0.46409 0.85940 0.69030 -0.10200
C 	C 	0.37681 0.81490 0.77960 0.03900
H 	H 	0.36920 0.81080 0.82400 0.03600
O 	O 	0.29593 0.77237 0.68320 -0.37800
C 	C 	0.41330 0.83180 0.76080 -0.15400
H 	H 	0.43040 0.83690 0.79600 0.08000
C 	C 	0.35417 0.80511 0.72560 -0.07100
C 	C 	0.16880 0.91360 0.76600 -0.11700
H 	H 	0.16370 0.93050 0.80150 0.07400
C 	C 	0.21480 0.81430 0.73860 0.39200
C 	C 	0.31384 0.78434 0.74190 0.29100
H 	H 	0.47800 0.80700 0.76600 0.17900
H 	H 	0.19400 0.97300 0.77400 0.10000
H 	H 	0.08990 0.94220 0.64700 0.04700
Cu	Cu	0.03829 0.50000 -0.00000 0.88900
Cu	Cu	0.53829 0.00000 0.50000 0.90200
Cu	Cu	0.96171 0.50000 -0.00000 0.89000
Cu	Cu	0.46171 0.00000 0.50000 0.90200
Cu	Cu	0.50000 0.46178 -0.00000 0.88900
Cu	Cu	-0.00000 0.96178 0.50000 0.90300
Cu	Cu	0.50000 0.53822 -0.00000 0.88900
Cu	Cu	-0.00000 0.03822 0.50000 0.90100
N 	N 	-0.00000 0.30870 0.24860 -0.35900
C 	C 	-0.00000 0.41030 0.13150 -0.11000
C 	C 	0.00000 0.34230 0.21340 0.12400
C 	C 	-0.00000 0.44680 0.08740 0.33700
N 	N 	0.50000 0.80870 0.74860 -0.35300
C 	C 	0.50000 0.91030 0.63150 -0.09400
C 	C 	0.50000 0.84230 0.71340 0.13200
C 	C 	0.50000 0.94680 0.58740 0.34300
N 	N 	0.00000 0.69130 0.24860 -0.35900
C 	C 	0.00000 0.58970 0.13150 -0.11000
C 	C 	0.00000 0.65770 0.21340 0.12400
C 	C 	-0.00000 0.55320 0.08740 0.33700
N 	N 	0.50000 0.19130 0.74860 -0.35300
C 	C 	0.50000 0.08970 0.63150 -0.09700
C 	C 	0.50000 0.15770 0.71340 0.13200
C 	C 	0.50000 0.05320 0.58740 0.34300
N 	N 	-0.00000 0.30870 0.75140 -0.35800
C 	C 	-0.00000 0.41030 0.86850 -0.09700
C 	C 	-0.00000 0.34230 0.78660 0.12500
C 	C 	-0.00000 0.44680 0.91260 0.33400
N 	N 	0.50000 0.80870 0.25140 -0.35100
C 	C 	0.50000 0.91030 0.36850 -0.09600
C 	C 	0.50000 0.84230 0.28660 0.12900
C 	C 	0.50000 0.94680 0.41260 0.34200
N 	N 	-0.00000 0.69130 0.75140 -0.35800
C 	C 	-0.00000 0.58970 0.86850 -0.09700
C 	C 	0.00000 0.65770 0.78660 0.12500
C 	C 	-0.00000 0.55320 0.91260 0.33400
N 	N 	0.50000 0.19130 0.25140 -0.35000
C 	C 	0.50000 0.08970 0.36850 -0.09900
C 	C 	0.50000 0.15770 0.28660 0.12900
C 	C 	0.50000 0.05320 0.41260 0.34300
N 	N 	0.30830 0.50000 0.25200 -0.19900
C 	C 	0.41160 0.50000 0.13140 -0.08900
C 	C 	0.34250 0.50000 0.20970 0.08600
C 	C 	0.44690 0.50000 0.09060 0.32900
N 	N 	0.80830 -0.00000 0.75200 -0.20300
C 	C 	0.91160 0.00000 0.63140 -0.09000
C 	C 	0.84250 0.00000 0.70970 0.07800
C 	C 	0.94690 -0.00000 0.59060 0.32000
N 	N 	0.69170 0.50000 0.25200 -0.19900
C 	C 	0.58840 0.50000 0.13140 -0.08900
C 	C 	0.65750 0.50000 0.20970 0.08600
C 	C 	0.55310 0.50000 0.09060 0.32900
N 	N 	0.19170 -0.00000 0.75200 -0.20300
C 	C 	0.08840 0.00000 0.63140 -0.09200
C 	C 	0.15750 0.00000 0.70970 0.07900
C 	C 	0.05310 -0.00000 0.59060 0.32000
N 	N 	0.69170 0.50000 0.74800 -0.19800
C 	C 	0.58840 0.50000 0.86860 -0.07900
C 	C 	0.65750 0.50000 0.79030 0.09000
C 	C 	0.55310 0.50000 0.90940 0.32400
N 	N 	0.19170 0.00000 0.24800 -0.20300
C 	C 	0.08840 0.00000 0.36860 -0.09500
C 	C 	0.15750 -0.00000 0.29030 0.07800
C 	C 	0.05310 0.00000 0.40940 0.32000
N 	N 	0.30830 0.50000 0.74800 -0.19800
C 	C 	0.41160 0.50000 0.86860 -0.07900
C 	C 	0.34250 0.50000 0.79030 0.09000
C 	C 	0.44690 0.50000 0.90940 0.32400
N 	N 	0.80830 0.00000 0.24800 -0.20300
C 	C 	0.91160 0.00000 0.36860 -0.09300
C 	C 	0.84250 -0.00000 0.29030 0.07700
C 	C 	0.94690 0.00000 0.40940 0.31900
