data_crystal

_cell_length_a 22.26100
_cell_length_b 22.26100
_cell_length_c 32.92000
_cell_angle_alpha 90.00000
_cell_angle_beta  90.00000
_cell_angle_gamma 90.00000

_symmetry_space_group_name_	'P 1'
_symmetry_space_group_name_H-M	'P 1'

loop_
_symmetry_equiv_pos_as_xyz
  x,y,z

loop_
_atom_site_label
_atom_site_type_symbol
_atom_site_fract_x
_atom_site_fract_y
_atom_site_fract_z
_atom_site_charge
Cd	Cd	0.83590 0.38553 0.25245 1.21500
Cd	Cd	0.33691 0.36036 0.10486 1.13500
O 	O 	0.87490 0.41730 0.19016 -0.38400
O 	O 	0.88560 0.31900 0.18769 -0.32400
O 	O 	0.97486 0.20676 0.03006 -0.37500
O 	O 	0.89703 0.20737 0.07266 -0.34100
N 	N 	0.42480 0.34570 0.07339 -0.29100
N 	N 	0.52360 0.33280 0.06757 -0.16800
N 	N 	0.74650 0.38280 0.21344 -0.21400
N 	N 	0.69010 0.36450 0.15955 -0.16600
N 	N 	0.25660 0.38730 0.14521 -0.26700
N 	N 	0.19940 0.39060 0.20053 -0.16600
N 	N 	0.02560 0.39200 0.28872 -0.16800
N 	N 	0.19940 0.26920 0.32176 -0.16700
N 	N 	0.26850 0.20750 0.34555 -0.27200
N 	N 	0.92810 0.40060 0.28020 -0.23600
C 	C 	0.69900 0.29390 0.10290 -0.29000
H 	H 	0.73800 0.28450 0.11080 0.14100
C 	C 	0.71140 0.43170 0.20510 -0.02000
H 	H 	0.71160 0.46730 0.21990 0.02700
C 	C 	0.67370 0.26610 0.06920 0.23700
N 	N 	0.70950 0.22340 0.04703 -0.16300
C 	C 	0.66640 0.33520 0.12476 0.21500
C 	C 	0.67650 0.42080 0.17230 0.01600
H 	H 	0.64860 0.44690 0.16080 -0.00800
C 	C 	0.73160 0.34280 0.18520 0.09700
H 	H 	0.74810 0.30450 0.18330 -0.00800
C 	C 	0.60750 0.34990 0.11200 -0.28100
H 	H 	0.58540 0.37910 0.12560 0.11400
C 	C 	0.58380 0.32060 0.07930 0.21900
C 	C 	0.61710 0.27720 0.05830 -0.29900
H 	H 	0.59980 0.25630 0.03680 0.13400
C 	C 	0.47810 0.34250 0.09150 0.09500
H 	H 	0.48260 0.34690 0.11950 -0.05600
C 	C 	0.95180 0.22080 0.06380 0.29000
C 	C 	0.19830 0.33250 0.26126 -0.29100
H 	H 	0.23650 0.31850 0.25490 0.12300
C 	C 	0.08590 0.37310 0.28142 0.23400
C 	C 	0.11390 0.33210 0.30590 -0.30100
H 	H 	0.09480 0.31750 0.32900 0.13700
C 	C 	0.97930 0.38660 0.26426 0.11900
H 	H 	0.98300 0.37370 0.23750 -0.01500
C 	C 	0.11340 0.39430 0.24620 -0.28200
H 	H 	0.09420 0.42240 0.22970 0.13500
C 	C 	0.17020 0.37250 0.23605 0.23400
C 	C 	0.17000 0.31290 0.29620 0.23400
C 	C 	0.82690 0.40310 0.10920 0.01500
H 	H 	0.80270 0.42410 0.12730 0.02700
C 	C 	0.87690 0.37160 0.12466 -0.09100
C 	C 	0.88100 0.36740 0.17100 0.30900
C 	C 	0.81270 0.40440 0.07000 -0.09000
H 	H 	0.77850 0.42410 0.06070 0.04300
C 	C 	0.98920 0.25380 0.09370 -0.09900
C 	C 	0.91510 0.34140 0.09814 0.04600
C 	C 	0.90210 0.34470 0.05653 -0.09700
H 	H 	0.92790 0.32650 0.03800 0.05900
C 	C 	0.97160 0.30860 0.11095 0.05700
C 	C 	0.85260 0.37370 0.04270 0.00300
H 	H 	0.84440 0.37380 0.01500 0.01900
C 	C 	0.04380 0.22920 0.10480 0.03300
H 	H 	0.05570 0.19280 0.09360 0.02800
C 	C 	0.23250 0.44540 0.15020 -0.02800
H 	H 	0.24010 0.47770 0.13310 0.00200
C 	C 	0.23370 0.35630 0.17560 0.09100
H 	H 	0.24040 0.31550 0.17950 -0.03400
C 	C 	0.25640 0.25100 0.32080 0.11300
H 	H 	0.28500 0.26810 0.30380 -0.05400
C 	C 	0.19810 0.44750 0.18230 0.01000
H 	H 	0.17670 0.48070 0.19140 0.03200
C 	C 	0.06330 0.31090 0.14890 0.03000
H 	H 	0.08850 0.33010 0.16730 0.02100
C 	C 	0.08040 0.25710 0.13170 -0.10500
H 	H 	0.11710 0.23990 0.13860 0.06400
C 	C 	0.01060 0.33550 0.13925 -0.10800
H 	H 	0.99940 0.37140 0.15150 0.07400
C 	C 	0.00140 0.40600 0.32550 0.01000
H 	H 	0.02210 0.41260 0.34960 0.02500
C 	C 	0.50110 0.32860 0.02890 -0.01900
H 	H 	0.52140 0.32010 0.00490 0.02500
C 	C 	0.43790 0.34050 0.03490 0.01400
H 	H 	0.41010 0.34400 0.01390 -0.02200
C 	C 	0.94160 0.40840 0.32000 -0.00200
H 	H 	0.91360 0.41450 0.34060 0.02900
C 	C 	0.21550 0.19400 0.36250 0.00400
H 	H 	0.20950 0.16360 0.38140 -0.01200
C 	C 	0.17240 0.23060 0.34840 -0.00500
H 	H 	0.13190 0.22980 0.35540 0.02300
N 	N 	0.78720 0.17860 0.01968 -0.22800
C 	C 	0.77020 0.22270 0.04300 0.09700
H 	H 	0.79610 0.25010 0.05520 -0.00500
C 	C 	0.73850 0.14710 0.00960 -0.01800
H 	H 	0.73810 0.11130 0.99500 0.04700
C 	C 	0.68950 0.17600 0.02430 0.01900
H 	H 	0.64960 0.16560 0.01970 0.01800
Cd	Cd	0.33590 0.88553 0.75245 1.21500
Cd	Cd	0.83691 0.86036 0.60486 1.13600
O 	O 	0.37490 0.91730 0.69016 -0.38400
O 	O 	0.38560 0.81900 0.68769 -0.32400
O 	O 	0.47486 0.70676 0.53006 -0.37100
O 	O 	0.39703 0.70737 0.57266 -0.34000
N 	N 	0.92480 0.84570 0.57339 -0.29100
N 	N 	0.02360 0.83280 0.56757 -0.16700
N 	N 	0.24650 0.88280 0.71344 -0.21400
N 	N 	0.19010 0.86450 0.65955 -0.16600
N 	N 	0.75660 0.88730 0.64521 -0.26700
N 	N 	0.69940 0.89060 0.70053 -0.16600
N 	N 	0.52560 0.89200 0.78872 -0.16800
N 	N 	0.69940 0.76920 0.82176 -0.16700
N 	N 	0.76850 0.70750 0.84555 -0.27200
N 	N 	0.42810 0.90060 0.78020 -0.23500
C 	C 	0.19900 0.79390 0.60290 -0.29000
H 	H 	0.23800 0.78450 0.61080 0.14100
C 	C 	0.21140 0.93170 0.70510 -0.02000
H 	H 	0.21160 0.96730 0.71990 0.02700
C 	C 	0.17370 0.76610 0.56920 0.23700
N 	N 	0.20950 0.72340 0.54703 -0.16100
C 	C 	0.16640 0.83520 0.62476 0.21600
C 	C 	0.17650 0.92080 0.67230 0.01600
H 	H 	0.14860 0.94690 0.66080 -0.00700
C 	C 	0.23160 0.84280 0.68520 0.09700
H 	H 	0.24810 0.80450 0.68330 -0.00800
C 	C 	0.10750 0.84990 0.61200 -0.28100
H 	H 	0.08540 0.87910 0.62560 0.11400
C 	C 	0.08380 0.82060 0.57930 0.21900
C 	C 	0.11710 0.77720 0.55830 -0.29900
H 	H 	0.09980 0.75630 0.53680 0.13500
C 	C 	0.97810 0.84250 0.59150 0.09500
H 	H 	0.98260 0.84690 0.61950 -0.05600
C 	C 	0.45180 0.72080 0.56380 0.28900
C 	C 	0.69830 0.83250 0.76126 -0.29100
H 	H 	0.73650 0.81850 0.75490 0.12400
C 	C 	0.58590 0.87310 0.78142 0.23500
C 	C 	0.61390 0.83210 0.80590 -0.30200
H 	H 	0.59480 0.81750 0.82900 0.13800
C 	C 	0.47930 0.88660 0.76426 0.11900
H 	H 	0.48300 0.87370 0.73750 -0.01500
C 	C 	0.61340 0.89430 0.74620 -0.28200
H 	H 	0.59420 0.92240 0.72970 0.13500
C 	C 	0.67020 0.87250 0.73605 0.23400
C 	C 	0.67000 0.81290 0.79620 0.23500
C 	C 	0.32690 0.90310 0.60920 0.01600
H 	H 	0.30270 0.92410 0.62730 0.02700
C 	C 	0.37690 0.87160 0.62466 -0.09100
C 	C 	0.38100 0.86740 0.67100 0.30900
C 	C 	0.31270 0.90440 0.57000 -0.08900
H 	H 	0.27850 0.92410 0.56070 0.04400
C 	C 	0.48920 0.75380 0.59370 -0.09700
C 	C 	0.41510 0.84140 0.59814 0.04700
C 	C 	0.40210 0.84470 0.55653 -0.09700
H 	H 	0.42790 0.82650 0.53800 0.06200
C 	C 	0.47160 0.80860 0.61095 0.05600
C 	C 	0.35260 0.87370 0.54270 0.00400
H 	H 	0.34440 0.87380 0.51500 0.02100
C 	C 	0.54380 0.72920 0.60480 0.03200
H 	H 	0.55570 0.69280 0.59360 0.02900
C 	C 	0.73250 0.94540 0.65020 -0.02700
H 	H 	0.74010 0.97770 0.63310 0.00200
C 	C 	0.73370 0.85630 0.67560 0.09100
H 	H 	0.74040 0.81550 0.67950 -0.03400
C 	C 	0.75640 0.75100 0.82080 0.11300
H 	H 	0.78500 0.76810 0.80380 -0.05400
C 	C 	0.69810 0.94750 0.68230 0.01000
H 	H 	0.67670 0.98070 0.69140 0.03200
C 	C 	0.56330 0.81090 0.64890 0.02900
H 	H 	0.58850 0.83010 0.66730 0.02200
C 	C 	0.58040 0.75710 0.63170 -0.10400
H 	H 	0.61710 0.73990 0.63860 0.06400
C 	C 	0.51060 0.83550 0.63925 -0.10700
H 	H 	0.49940 0.87140 0.65150 0.07400
C 	C 	0.50140 0.90600 0.82550 0.01000
H 	H 	0.52210 0.91260 0.84960 0.02600
C 	C 	0.00110 0.82860 0.52890 -0.01800
H 	H 	0.02140 0.82010 0.50490 0.02700
C 	C 	0.93790 0.84050 0.53490 0.01400
H 	H 	0.91010 0.84400 0.51390 -0.02000
C 	C 	0.44160 0.90840 0.82000 -0.00200
H 	H 	0.41360 0.91450 0.84060 0.02900
C 	C 	0.71550 0.69400 0.86250 0.00400
H 	H 	0.70950 0.66360 0.88140 -0.01000
C 	C 	0.67240 0.73060 0.84840 -0.00400
H 	H 	0.63190 0.72980 0.85540 0.02400
N 	N 	0.28720 0.67860 0.51968 -0.23100
C 	C 	0.27020 0.72270 0.54300 0.09800
H 	H 	0.29610 0.75010 0.55520 -0.00500
C 	C 	0.23850 0.64710 0.50960 0.00900
H 	H 	0.23810 0.61130 0.49500 0.03000
C 	C 	0.18950 0.67600 0.52430 0.00700
H 	H 	0.14960 0.66560 0.51970 0.02400
Cd	Cd	0.66410 0.11447 0.75245 1.21500
Cd	Cd	0.16309 0.13964 0.60486 1.13600
O 	O 	0.62510 0.08270 0.69016 -0.38400
O 	O 	0.61440 0.18100 0.68769 -0.32400
O 	O 	0.52514 0.29324 0.53006 -0.37100
O 	O 	0.60297 0.29263 0.57266 -0.34000
N 	N 	0.07520 0.15430 0.57339 -0.29100
N 	N 	0.97640 0.16720 0.56757 -0.16700
N 	N 	0.75350 0.11720 0.71344 -0.21400
N 	N 	0.80990 0.13550 0.65955 -0.16600
N 	N 	0.24340 0.11270 0.64521 -0.26700
N 	N 	0.30060 0.10940 0.70053 -0.16600
N 	N 	0.47440 0.10800 0.78872 -0.16800
N 	N 	0.30060 0.23080 0.82176 -0.16700
N 	N 	0.23150 0.29250 0.84555 -0.27200
N 	N 	0.57190 0.09940 0.78020 -0.23500
C 	C 	0.80100 0.20610 0.60290 -0.29000
H 	H 	0.76200 0.21550 0.61080 0.14100
C 	C 	0.78860 0.06830 0.70510 -0.02000
H 	H 	0.78840 0.03270 0.71990 0.02700
C 	C 	0.82630 0.23390 0.56920 0.23700
N 	N 	0.79050 0.27660 0.54703 -0.16100
C 	C 	0.83360 0.16480 0.62476 0.21600
C 	C 	0.82350 0.07920 0.67230 0.01600
H 	H 	0.85140 0.05310 0.66080 -0.00700
C 	C 	0.76840 0.15720 0.68520 0.09700
H 	H 	0.75190 0.19550 0.68330 -0.00800
C 	C 	0.89250 0.15010 0.61200 -0.28100
H 	H 	0.91460 0.12090 0.62560 0.11400
C 	C 	0.91620 0.17940 0.57930 0.21900
C 	C 	0.88290 0.22280 0.55830 -0.29900
H 	H 	0.90020 0.24370 0.53680 0.13500
C 	C 	0.02190 0.15750 0.59150 0.09500
H 	H 	0.01740 0.15310 0.61950 -0.05600
C 	C 	0.54820 0.27920 0.56380 0.28900
C 	C 	0.30170 0.16750 0.76126 -0.29100
H 	H 	0.26350 0.18150 0.75490 0.12400
C 	C 	0.41410 0.12690 0.78142 0.23500
C 	C 	0.38610 0.16790 0.80590 -0.30200
H 	H 	0.40520 0.18250 0.82900 0.13800
C 	C 	0.52070 0.11340 0.76426 0.11900
H 	H 	0.51700 0.12630 0.73750 -0.01500
C 	C 	0.38660 0.10570 0.74620 -0.28200
H 	H 	0.40580 0.07760 0.72970 0.13500
C 	C 	0.32980 0.12750 0.73605 0.23400
C 	C 	0.33000 0.18710 0.79620 0.23500
C 	C 	0.67310 0.09690 0.60920 0.01600
H 	H 	0.69730 0.07590 0.62730 0.02700
C 	C 	0.62310 0.12840 0.62466 -0.09100
C 	C 	0.61900 0.13260 0.67100 0.30900
C 	C 	0.68730 0.09560 0.57000 -0.08900
H 	H 	0.72150 0.07590 0.56070 0.04400
C 	C 	0.51080 0.24620 0.59370 -0.09700
C 	C 	0.58490 0.15860 0.59814 0.04700
C 	C 	0.59790 0.15530 0.55653 -0.09700
H 	H 	0.57210 0.17350 0.53800 0.06200
C 	C 	0.52840 0.19140 0.61095 0.05600
C 	C 	0.64740 0.12630 0.54270 0.00400
H 	H 	0.65560 0.12620 0.51500 0.02100
C 	C 	0.45620 0.27080 0.60480 0.03200
H 	H 	0.44430 0.30720 0.59360 0.02900
C 	C 	0.26750 0.05460 0.65020 -0.02700
H 	H 	0.25990 0.02230 0.63310 0.00200
C 	C 	0.26630 0.14370 0.67560 0.09100
H 	H 	0.25960 0.18450 0.67950 -0.03400
C 	C 	0.24360 0.24900 0.82080 0.11300
H 	H 	0.21500 0.23190 0.80380 -0.05400
C 	C 	0.30190 0.05250 0.68230 0.01000
H 	H 	0.32330 0.01930 0.69140 0.03200
C 	C 	0.43670 0.18910 0.64890 0.02900
H 	H 	0.41150 0.16990 0.66730 0.02200
C 	C 	0.41960 0.24290 0.63170 -0.10400
H 	H 	0.38290 0.26010 0.63860 0.06400
C 	C 	0.48940 0.16450 0.63925 -0.10700
H 	H 	0.50060 0.12860 0.65150 0.07400
C 	C 	0.49860 0.09400 0.82550 0.01000
H 	H 	0.47790 0.08740 0.84960 0.02600
C 	C 	0.99890 0.17140 0.52890 -0.01800
H 	H 	0.97860 0.17990 0.50490 0.02700
C 	C 	0.06210 0.15950 0.53490 0.01400
H 	H 	0.08990 0.15600 0.51390 -0.02000
C 	C 	0.55840 0.09160 0.82000 -0.00200
H 	H 	0.58640 0.08550 0.84060 0.02900
C 	C 	0.28450 0.30600 0.86250 0.00400
H 	H 	0.29050 0.33640 0.88140 -0.01000
C 	C 	0.32760 0.26940 0.84840 -0.00400
H 	H 	0.36810 0.27020 0.85540 0.02400
N 	N 	0.71280 0.32140 0.51968 -0.23100
C 	C 	0.72980 0.27730 0.54300 0.09800
H 	H 	0.70390 0.24990 0.55520 -0.00500
C 	C 	0.76150 0.35290 0.50960 0.00900
H 	H 	0.76190 0.38870 0.49500 0.03000
C 	C 	0.81050 0.32400 0.52430 0.00700
H 	H 	0.85040 0.33440 0.51970 0.02400
Cd	Cd	0.16410 0.61447 0.25245 1.21500
Cd	Cd	0.66309 0.63964 0.10486 1.13500
O 	O 	0.12510 0.58270 0.19016 -0.38400
O 	O 	0.11440 0.68100 0.18769 -0.32400
O 	O 	0.02514 0.79324 0.03006 -0.37500
O 	O 	0.10297 0.79263 0.07266 -0.34100
N 	N 	0.57520 0.65430 0.07339 -0.29100
N 	N 	0.47640 0.66720 0.06757 -0.16800
N 	N 	0.25350 0.61720 0.21344 -0.21400
N 	N 	0.30990 0.63550 0.15955 -0.16600
N 	N 	0.74340 0.61270 0.14521 -0.26700
N 	N 	0.80060 0.60940 0.20053 -0.16600
N 	N 	0.97440 0.60800 0.28872 -0.16800
N 	N 	0.80060 0.73080 0.32176 -0.16700
N 	N 	0.73150 0.79250 0.34555 -0.27200
N 	N 	0.07190 0.59940 0.28020 -0.23600
C 	C 	0.30100 0.70610 0.10290 -0.29000
H 	H 	0.26200 0.71550 0.11080 0.14100
C 	C 	0.28860 0.56830 0.20510 -0.02000
H 	H 	0.28840 0.53270 0.21990 0.02700
C 	C 	0.32630 0.73390 0.06920 0.23700
N 	N 	0.29050 0.77660 0.04703 -0.16300
C 	C 	0.33360 0.66480 0.12476 0.21500
C 	C 	0.32350 0.57920 0.17230 0.01600
H 	H 	0.35140 0.55310 0.16080 -0.00800
C 	C 	0.26840 0.65720 0.18520 0.09700
H 	H 	0.25190 0.69550 0.18330 -0.00800
C 	C 	0.39250 0.65010 0.11200 -0.28100
H 	H 	0.41460 0.62090 0.12560 0.11400
C 	C 	0.41620 0.67940 0.07930 0.21900
C 	C 	0.38290 0.72280 0.05830 -0.29900
H 	H 	0.40020 0.74370 0.03680 0.13400
C 	C 	0.52190 0.65750 0.09150 0.09500
H 	H 	0.51740 0.65310 0.11950 -0.05600
C 	C 	0.04820 0.77920 0.06380 0.29000
C 	C 	0.80170 0.66750 0.26126 -0.29100
H 	H 	0.76350 0.68150 0.25490 0.12300
C 	C 	0.91410 0.62690 0.28142 0.23400
C 	C 	0.88610 0.66790 0.30590 -0.30100
H 	H 	0.90520 0.68250 0.32900 0.13700
C 	C 	0.02070 0.61340 0.26426 0.11900
H 	H 	0.01700 0.62630 0.23750 -0.01500
C 	C 	0.88660 0.60570 0.24620 -0.28200
H 	H 	0.90580 0.57760 0.22970 0.13500
C 	C 	0.82980 0.62750 0.23605 0.23400
C 	C 	0.83000 0.68710 0.29620 0.23400
C 	C 	0.17310 0.59690 0.10920 0.01500
H 	H 	0.19730 0.57590 0.12730 0.02700
C 	C 	0.12310 0.62840 0.12466 -0.09100
C 	C 	0.11900 0.63260 0.17100 0.30900
C 	C 	0.18730 0.59560 0.07000 -0.09000
H 	H 	0.22150 0.57590 0.06070 0.04300
C 	C 	0.01080 0.74620 0.09370 -0.09900
C 	C 	0.08490 0.65860 0.09814 0.04600
C 	C 	0.09790 0.65530 0.05653 -0.09700
H 	H 	0.07210 0.67350 0.03800 0.05900
C 	C 	0.02840 0.69140 0.11095 0.05700
C 	C 	0.14740 0.62630 0.04270 0.00300
H 	H 	0.15560 0.62620 0.01500 0.01900
C 	C 	0.95620 0.77080 0.10480 0.03300
H 	H 	0.94430 0.80720 0.09360 0.02800
C 	C 	0.76750 0.55460 0.15020 -0.02800
H 	H 	0.75990 0.52230 0.13310 0.00200
C 	C 	0.76630 0.64370 0.17560 0.09100
H 	H 	0.75960 0.68450 0.17950 -0.03400
C 	C 	0.74360 0.74900 0.32080 0.11300
H 	H 	0.71500 0.73190 0.30380 -0.05400
C 	C 	0.80190 0.55250 0.18230 0.01000
H 	H 	0.82330 0.51930 0.19140 0.03200
C 	C 	0.93670 0.68910 0.14890 0.03000
H 	H 	0.91150 0.66990 0.16730 0.02100
C 	C 	0.91960 0.74290 0.13170 -0.10500
H 	H 	0.88290 0.76010 0.13860 0.06400
C 	C 	0.98940 0.66450 0.13925 -0.10800
H 	H 	0.00060 0.62860 0.15150 0.07400
C 	C 	0.99860 0.59400 0.32550 0.01000
H 	H 	0.97790 0.58740 0.34960 0.02500
C 	C 	0.49890 0.67140 0.02890 -0.01900
H 	H 	0.47860 0.67990 0.00490 0.02500
C 	C 	0.56210 0.65950 0.03490 0.01400
H 	H 	0.58990 0.65600 0.01390 -0.02200
C 	C 	0.05840 0.59160 0.32000 -0.00200
H 	H 	0.08640 0.58550 0.34060 0.02900
C 	C 	0.78450 0.80600 0.36250 0.00400
H 	H 	0.79050 0.83640 0.38140 -0.01200
C 	C 	0.82760 0.76940 0.34840 -0.00500
H 	H 	0.86810 0.77020 0.35540 0.02300
N 	N 	0.21280 0.82140 0.01968 -0.22800
C 	C 	0.22980 0.77730 0.04300 0.09700
H 	H 	0.20390 0.74990 0.05520 -0.00500
C 	C 	0.26150 0.85290 0.00960 -0.01800
H 	H 	0.26190 0.88870 0.99500 0.04700
C 	C 	0.31050 0.82400 0.02430 0.01900
H 	H 	0.35040 0.83440 0.01970 0.01800
Cd	Cd	0.61447 0.33590 0.50245 1.21500
Cd	Cd	0.63964 0.83691 0.35486 1.13600
O 	O 	0.58270 0.37490 0.44016 -0.38400
O 	O 	0.68100 0.38560 0.43769 -0.32400
O 	O 	0.79324 0.47486 0.28006 -0.37100
O 	O 	0.79263 0.39703 0.32266 -0.34000
N 	N 	0.65430 0.92480 0.32339 -0.29100
N 	N 	0.66720 0.02360 0.31757 -0.16700
N 	N 	0.61720 0.24650 0.46344 -0.21400
N 	N 	0.63550 0.19010 0.40955 -0.16600
N 	N 	0.61270 0.75660 0.39521 -0.26700
N 	N 	0.60940 0.69940 0.45053 -0.16600
N 	N 	0.60800 0.52560 0.53872 -0.16800
N 	N 	0.73080 0.69940 0.57176 -0.16700
N 	N 	0.79250 0.76850 0.59555 -0.27200
N 	N 	0.59940 0.42810 0.53020 -0.23600
C 	C 	0.70610 0.19900 0.35290 -0.29000
H 	H 	0.71550 0.23800 0.36080 0.14100
C 	C 	0.56830 0.21140 0.45510 -0.02000
H 	H 	0.53270 0.21160 0.46990 0.02700
C 	C 	0.73390 0.17370 0.31920 0.23700
N 	N 	0.77660 0.20950 0.29703 -0.16100
C 	C 	0.66480 0.16640 0.37476 0.21600
C 	C 	0.57920 0.17650 0.42230 0.01600
H 	H 	0.55310 0.14860 0.41080 -0.00700
C 	C 	0.65720 0.23160 0.43520 0.09700
H 	H 	0.69550 0.24810 0.43330 -0.00800
C 	C 	0.65010 0.10750 0.36200 -0.28100
H 	H 	0.62090 0.08540 0.37560 0.11400
C 	C 	0.67940 0.08380 0.32930 0.21900
C 	C 	0.72280 0.11710 0.30830 -0.29900
H 	H 	0.74370 0.09980 0.28680 0.13500
C 	C 	0.65750 0.97810 0.34150 0.09500
H 	H 	0.65310 0.98260 0.36950 -0.05600
C 	C 	0.77920 0.45180 0.31380 0.28900
C 	C 	0.66750 0.69830 0.51126 -0.29100
H 	H 	0.68150 0.73650 0.50490 0.12300
C 	C 	0.62690 0.58590 0.53142 0.23400
C 	C 	0.66790 0.61390 0.55590 -0.30100
H 	H 	0.68250 0.59480 0.57900 0.13700
C 	C 	0.61340 0.47930 0.51426 0.11900
H 	H 	0.62630 0.48300 0.48750 -0.01500
C 	C 	0.60570 0.61340 0.49620 -0.28200
H 	H 	0.57760 0.59420 0.47970 0.13500
C 	C 	0.62750 0.67020 0.48605 0.23400
C 	C 	0.68710 0.67000 0.54620 0.23400
C 	C 	0.59690 0.32690 0.35920 0.01600
H 	H 	0.57590 0.30270 0.37730 0.02700
C 	C 	0.62840 0.37690 0.37466 -0.09100
C 	C 	0.63260 0.38100 0.42100 0.30900
C 	C 	0.59560 0.31270 0.32000 -0.08900
H 	H 	0.57590 0.27850 0.31070 0.04400
C 	C 	0.74620 0.48920 0.34370 -0.09700
C 	C 	0.65860 0.41510 0.34814 0.04700
C 	C 	0.65530 0.40210 0.30653 -0.09700
H 	H 	0.67350 0.42790 0.28800 0.06200
C 	C 	0.69140 0.47160 0.36095 0.05600
C 	C 	0.62630 0.35260 0.29270 0.00400
H 	H 	0.62620 0.34440 0.26500 0.02100
C 	C 	0.77080 0.54380 0.35480 0.03200
H 	H 	0.80720 0.55570 0.34360 0.02900
C 	C 	0.55460 0.73250 0.40020 -0.02700
H 	H 	0.52230 0.74010 0.38310 0.00200
C 	C 	0.64370 0.73370 0.42560 0.09100
H 	H 	0.68450 0.74040 0.42950 -0.03400
C 	C 	0.74900 0.75640 0.57080 0.11300
H 	H 	0.73190 0.78500 0.55380 -0.05400
C 	C 	0.55250 0.69810 0.43230 0.01000
H 	H 	0.51930 0.67670 0.44140 0.03200
C 	C 	0.68910 0.56330 0.39890 0.02900
H 	H 	0.66990 0.58850 0.41730 0.02200
C 	C 	0.74290 0.58040 0.38170 -0.10400
H 	H 	0.76010 0.61710 0.38860 0.06400
C 	C 	0.66450 0.51060 0.38925 -0.10700
H 	H 	0.62860 0.49940 0.40150 0.07400
C 	C 	0.59400 0.50140 0.57550 0.01000
H 	H 	0.58740 0.52210 0.59960 0.02500
C 	C 	0.67140 0.00110 0.27890 -0.01800
H 	H 	0.67990 0.02140 0.25490 0.02700
C 	C 	0.65950 0.93790 0.28490 0.01400
H 	H 	0.65600 0.91010 0.26390 -0.02000
C 	C 	0.59160 0.44160 0.57000 -0.00200
H 	H 	0.58550 0.41360 0.59060 0.02900
C 	C 	0.80600 0.71550 0.61250 0.00400
H 	H 	0.83640 0.70950 0.63140 -0.01200
C 	C 	0.76940 0.67240 0.59840 -0.00500
H 	H 	0.77020 0.63190 0.60540 0.02300
N 	N 	0.82140 0.28720 0.26968 -0.23000
C 	C 	0.77730 0.27020 0.29300 0.09800
H 	H 	0.74990 0.29610 0.30520 -0.00500
C 	C 	0.85290 0.23850 0.25960 0.00900
H 	H 	0.88870 0.23810 0.24500 0.03000
C 	C 	0.82400 0.18950 0.27430 0.00700
H 	H 	0.83440 0.14960 0.26970 0.02400
Cd	Cd	0.11447 0.83590 0.00245 1.21200
Cd	Cd	0.13964 0.33691 0.85486 1.13600
O 	O 	0.08270 0.87490 0.94016 -0.38100
O 	O 	0.18100 0.88560 0.93769 -0.32100
O 	O 	0.29324 0.97486 0.78006 -0.37100
O 	O 	0.29263 0.89703 0.82266 -0.34000
N 	N 	0.15430 0.42480 0.82339 -0.29000
N 	N 	0.16720 0.52360 0.81757 -0.16700
N 	N 	0.11720 0.74650 0.96344 -0.21100
N 	N 	0.13550 0.69010 0.90955 -0.16600
N 	N 	0.11270 0.25660 0.89521 -0.26600
N 	N 	0.10940 0.19940 0.95053 -0.16700
N 	N 	0.10800 0.02560 0.03872 -0.16400
N 	N 	0.23080 0.19940 0.07176 -0.16800
N 	N 	0.29250 0.26850 0.09555 -0.27200
N 	N 	0.09940 0.92810 0.03020 -0.23400
C 	C 	0.20610 0.69900 0.85290 -0.29100
H 	H 	0.21550 0.73800 0.86080 0.14100
C 	C 	0.06830 0.71140 0.95510 -0.01900
H 	H 	0.03270 0.71160 0.96990 0.03000
C 	C 	0.23390 0.67370 0.81920 0.23800
N 	N 	0.27660 0.70950 0.79703 -0.16100
C 	C 	0.16480 0.66640 0.87476 0.21700
C 	C 	0.07920 0.67650 0.92230 0.01700
H 	H 	0.05310 0.64860 0.91080 -0.00700
C 	C 	0.15720 0.73160 0.93520 0.09800
H 	H 	0.19550 0.74810 0.93330 -0.00600
C 	C 	0.15010 0.60750 0.86200 -0.28100
H 	H 	0.12090 0.58540 0.87560 0.11500
C 	C 	0.17940 0.58380 0.82930 0.22000
C 	C 	0.22280 0.61710 0.80830 -0.29900
H 	H 	0.24370 0.59980 0.78680 0.13600
C 	C 	0.15750 0.47810 0.84150 0.09600
H 	H 	0.15310 0.48260 0.86950 -0.05500
C 	C 	0.27920 0.95180 0.81380 0.28900
C 	C 	0.16750 0.19830 0.01126 -0.30600
H 	H 	0.18150 0.23650 0.00490 0.12500
C 	C 	0.12690 0.08590 0.03142 0.22100
C 	C 	0.16790 0.11390 0.05590 -0.29800
H 	H 	0.18250 0.09480 0.07900 0.13500
C 	C 	0.11340 0.97930 0.01426 0.09800
H 	H 	0.12630 0.98300 0.98750 -0.00100
C 	C 	0.10570 0.11340 0.99620 -0.26900
H 	H 	0.07760 0.09420 0.97970 0.13300
C 	C 	0.12750 0.17020 0.98605 0.24400
C 	C 	0.18710 0.17000 0.04620 0.23500
C 	C 	0.09690 0.82690 0.85920 0.01500
H 	H 	0.07590 0.80270 0.87730 0.02700
C 	C 	0.12840 0.87690 0.87466 -0.09000
C 	C 	0.13260 0.88100 0.92100 0.30800
C 	C 	0.09560 0.81270 0.82000 -0.08900
H 	H 	0.07590 0.77850 0.81070 0.04400
C 	C 	0.24620 0.98920 0.84370 -0.09800
C 	C 	0.15860 0.91510 0.84814 0.04600
C 	C 	0.15530 0.90210 0.80653 -0.09600
H 	H 	0.17350 0.92790 0.78800 0.06100
C 	C 	0.19140 0.97160 0.86095 0.05800
C 	C 	0.12630 0.85260 0.79270 0.00300
H 	H 	0.12620 0.84440 0.76500 0.02200
C 	C 	0.27080 0.04380 0.85480 0.03400
H 	H 	0.30720 0.05570 0.84360 0.02900
C 	C 	0.05460 0.23250 0.90020 -0.02700
H 	H 	0.02230 0.24010 0.88310 0.00200
C 	C 	0.14370 0.23370 0.92560 0.09300
H 	H 	0.18450 0.24040 0.92950 -0.03200
C 	C 	0.24900 0.25640 0.07080 0.11200
H 	H 	0.23190 0.28500 0.05380 -0.05500
C 	C 	0.05250 0.19810 0.93230 0.01100
H 	H 	0.01930 0.17670 0.94140 0.03300
C 	C 	0.18910 0.06330 0.89890 0.03200
H 	H 	0.16990 0.08850 0.91730 0.02100
C 	C 	0.24290 0.08040 0.88170 -0.10500
H 	H 	0.26010 0.11710 0.88860 0.06600
C 	C 	0.16450 0.01060 0.88925 -0.11000
H 	H 	0.12860 0.99940 0.90150 0.07500
C 	C 	0.09400 0.00140 0.07550 0.00800
H 	H 	0.08740 0.02210 0.09960 0.02600
C 	C 	0.17140 0.50110 0.77890 -0.01800
H 	H 	0.17990 0.52140 0.75490 0.02700
C 	C 	0.15950 0.43790 0.78490 0.01400
H 	H 	0.15600 0.41010 0.76390 -0.02000
C 	C 	0.09160 0.94160 0.07000 -0.00100
H 	H 	0.08550 0.91360 0.09060 0.02800
C 	C 	0.30600 0.21550 0.11250 0.00400
H 	H 	0.33640 0.20950 0.13140 -0.01200
C 	C 	0.26940 0.17240 0.09840 -0.00500
H 	H 	0.27020 0.13190 0.10540 0.02200
N 	N 	0.32140 0.78720 0.76968 -0.23000
C 	C 	0.27730 0.77020 0.79300 0.09900
H 	H 	0.24990 0.79610 0.80520 -0.00500
C 	C 	0.35290 0.73850 0.75960 0.00900
H 	H 	0.38870 0.73810 0.74500 0.03000
C 	C 	0.32400 0.68950 0.77430 0.00700
H 	H 	0.33440 0.64960 0.76970 0.02400
Cd	Cd	0.88553 0.16410 0.00245 1.21200
Cd	Cd	0.86036 0.66309 0.85486 1.13600
O 	O 	0.91730 0.12510 0.94016 -0.38100
O 	O 	0.81900 0.11440 0.93769 -0.32100
O 	O 	0.70676 0.02514 0.78006 -0.37100
O 	O 	0.70737 0.10297 0.82266 -0.34000
N 	N 	0.84570 0.57520 0.82339 -0.29000
N 	N 	0.83280 0.47640 0.81757 -0.16700
N 	N 	0.88280 0.25350 0.96344 -0.21100
N 	N 	0.86450 0.30990 0.90955 -0.16600
N 	N 	0.88730 0.74340 0.89521 -0.26600
N 	N 	0.89060 0.80060 0.95053 -0.16700
N 	N 	0.89200 0.97440 0.03872 -0.16400
N 	N 	0.76920 0.80060 0.07176 -0.16800
N 	N 	0.70750 0.73150 0.09555 -0.27200
N 	N 	0.90060 0.07190 0.03020 -0.23400
C 	C 	0.79390 0.30100 0.85290 -0.29100
H 	H 	0.78450 0.26200 0.86080 0.14100
C 	C 	0.93170 0.28860 0.95510 -0.01900
H 	H 	0.96730 0.28840 0.96990 0.03000
C 	C 	0.76610 0.32630 0.81920 0.23800
N 	N 	0.72340 0.29050 0.79703 -0.16100
C 	C 	0.83520 0.33360 0.87476 0.21700
C 	C 	0.92080 0.32350 0.92230 0.01700
H 	H 	0.94690 0.35140 0.91080 -0.00700
C 	C 	0.84280 0.26840 0.93520 0.09800
H 	H 	0.80450 0.25190 0.93330 -0.00600
C 	C 	0.84990 0.39250 0.86200 -0.28100
H 	H 	0.87910 0.41460 0.87560 0.11500
C 	C 	0.82060 0.41620 0.82930 0.22000
C 	C 	0.77720 0.38290 0.80830 -0.29900
H 	H 	0.75630 0.40020 0.78680 0.13600
C 	C 	0.84250 0.52190 0.84150 0.09600
H 	H 	0.84690 0.51740 0.86950 -0.05500
C 	C 	0.72080 0.04820 0.81380 0.28900
C 	C 	0.83250 0.80170 0.01126 -0.30600
H 	H 	0.81850 0.76350 0.00490 0.12500
C 	C 	0.87310 0.91410 0.03142 0.22100
C 	C 	0.83210 0.88610 0.05590 -0.29800
H 	H 	0.81750 0.90520 0.07900 0.13500
C 	C 	0.88660 0.02070 0.01426 0.09800
H 	H 	0.87370 0.01700 0.98750 -0.00100
C 	C 	0.89430 0.88660 0.99620 -0.26900
H 	H 	0.92240 0.90580 0.97970 0.13300
C 	C 	0.87250 0.82980 0.98605 0.24400
C 	C 	0.81290 0.83000 0.04620 0.23500
C 	C 	0.90310 0.17310 0.85920 0.01500
H 	H 	0.92410 0.19730 0.87730 0.02700
C 	C 	0.87160 0.12310 0.87466 -0.09000
C 	C 	0.86740 0.11900 0.92100 0.30800
C 	C 	0.90440 0.18730 0.82000 -0.08900
H 	H 	0.92410 0.22150 0.81070 0.04400
C 	C 	0.75380 0.01080 0.84370 -0.09800
C 	C 	0.84140 0.08490 0.84814 0.04600
C 	C 	0.84470 0.09790 0.80653 -0.09600
H 	H 	0.82650 0.07210 0.78800 0.06100
C 	C 	0.80860 0.02840 0.86095 0.05800
C 	C 	0.87370 0.14740 0.79270 0.00300
H 	H 	0.87380 0.15560 0.76500 0.02200
C 	C 	0.72920 0.95620 0.85480 0.03400
H 	H 	0.69280 0.94430 0.84360 0.02900
C 	C 	0.94540 0.76750 0.90020 -0.02700
H 	H 	0.97770 0.75990 0.88310 0.00200
C 	C 	0.85630 0.76630 0.92560 0.09300
H 	H 	0.81550 0.75960 0.92950 -0.03200
C 	C 	0.75100 0.74360 0.07080 0.11200
H 	H 	0.76810 0.71500 0.05380 -0.05500
C 	C 	0.94750 0.80190 0.93230 0.01100
H 	H 	0.98070 0.82330 0.94140 0.03300
C 	C 	0.81090 0.93670 0.89890 0.03200
H 	H 	0.83010 0.91150 0.91730 0.02100
C 	C 	0.75710 0.91960 0.88170 -0.10500
H 	H 	0.73990 0.88290 0.88860 0.06600
C 	C 	0.83550 0.98940 0.88925 -0.11000
H 	H 	0.87140 0.00060 0.90150 0.07500
C 	C 	0.90600 0.99860 0.07550 0.00800
H 	H 	0.91260 0.97790 0.09960 0.02600
C 	C 	0.82860 0.49890 0.77890 -0.01800
H 	H 	0.82010 0.47860 0.75490 0.02700
C 	C 	0.84050 0.56210 0.78490 0.01400
H 	H 	0.84400 0.58990 0.76390 -0.02000
C 	C 	0.90840 0.05840 0.07000 -0.00100
H 	H 	0.91450 0.08640 0.09060 0.02800
C 	C 	0.69400 0.78450 0.11250 0.00400
H 	H 	0.66360 0.79050 0.13140 -0.01200
C 	C 	0.73060 0.82760 0.09840 -0.00500
H 	H 	0.72980 0.86810 0.10540 0.02200
N 	N 	0.67860 0.21280 0.76968 -0.23000
C 	C 	0.72270 0.22980 0.79300 0.09900
H 	H 	0.75010 0.20390 0.80520 -0.00500
C 	C 	0.64710 0.26150 0.75960 0.00900
H 	H 	0.61130 0.26190 0.74500 0.03000
C 	C 	0.67600 0.31050 0.77430 0.00700
H 	H 	0.66560 0.35040 0.76970 0.02400
Cd	Cd	0.38553 0.66410 0.50245 1.21500
Cd	Cd	0.36036 0.16309 0.35486 1.13600
O 	O 	0.41730 0.62510 0.44016 -0.38400
O 	O 	0.31900 0.61440 0.43769 -0.32400
O 	O 	0.20676 0.52514 0.28006 -0.37100
O 	O 	0.20737 0.60297 0.32266 -0.34000
N 	N 	0.34570 0.07520 0.32339 -0.29100
N 	N 	0.33280 0.97640 0.31757 -0.16700
N 	N 	0.38280 0.75350 0.46344 -0.21400
N 	N 	0.36450 0.80990 0.40955 -0.16600
N 	N 	0.38730 0.24340 0.39521 -0.26700
N 	N 	0.39060 0.30060 0.45053 -0.16600
N 	N 	0.39200 0.47440 0.53872 -0.16800
N 	N 	0.26920 0.30060 0.57176 -0.16700
N 	N 	0.20750 0.23150 0.59555 -0.27200
N 	N 	0.40060 0.57190 0.53020 -0.23600
C 	C 	0.29390 0.80100 0.35290 -0.29000
H 	H 	0.28450 0.76200 0.36080 0.14100
C 	C 	0.43170 0.78860 0.45510 -0.02000
H 	H 	0.46730 0.78840 0.46990 0.02700
C 	C 	0.26610 0.82630 0.31920 0.23700
N 	N 	0.22340 0.79050 0.29703 -0.16100
C 	C 	0.33520 0.83360 0.37476 0.21600
C 	C 	0.42080 0.82350 0.42230 0.01600
H 	H 	0.44690 0.85140 0.41080 -0.00700
C 	C 	0.34280 0.76840 0.43520 0.09700
H 	H 	0.30450 0.75190 0.43330 -0.00800
C 	C 	0.34990 0.89250 0.36200 -0.28100
H 	H 	0.37910 0.91460 0.37560 0.11400
C 	C 	0.32060 0.91620 0.32930 0.21900
C 	C 	0.27720 0.88290 0.30830 -0.29900
H 	H 	0.25630 0.90020 0.28680 0.13500
C 	C 	0.34250 0.02190 0.34150 0.09500
H 	H 	0.34690 0.01740 0.36950 -0.05600
C 	C 	0.22080 0.54820 0.31380 0.28900
C 	C 	0.33250 0.30170 0.51126 -0.29100
H 	H 	0.31850 0.26350 0.50490 0.12300
C 	C 	0.37310 0.41410 0.53142 0.23400
C 	C 	0.33210 0.38610 0.55590 -0.30100
H 	H 	0.31750 0.40520 0.57900 0.13700
C 	C 	0.38660 0.52070 0.51426 0.11900
H 	H 	0.37370 0.51700 0.48750 -0.01500
C 	C 	0.39430 0.38660 0.49620 -0.28200
H 	H 	0.42240 0.40580 0.47970 0.13500
C 	C 	0.37250 0.32980 0.48605 0.23400
C 	C 	0.31290 0.33000 0.54620 0.23400
C 	C 	0.40310 0.67310 0.35920 0.01600
H 	H 	0.42410 0.69730 0.37730 0.02700
C 	C 	0.37160 0.62310 0.37466 -0.09100
C 	C 	0.36740 0.61900 0.42100 0.30900
C 	C 	0.40440 0.68730 0.32000 -0.08900
H 	H 	0.42410 0.72150 0.31070 0.04400
C 	C 	0.25380 0.51080 0.34370 -0.09700
C 	C 	0.34140 0.58490 0.34814 0.04700
C 	C 	0.34470 0.59790 0.30653 -0.09700
H 	H 	0.32650 0.57210 0.28800 0.06200
C 	C 	0.30860 0.52840 0.36095 0.05600
C 	C 	0.37370 0.64740 0.29270 0.00400
H 	H 	0.37380 0.65560 0.26500 0.02100
C 	C 	0.22920 0.45620 0.35480 0.03200
H 	H 	0.19280 0.44430 0.34360 0.02900
C 	C 	0.44540 0.26750 0.40020 -0.02700
H 	H 	0.47770 0.25990 0.38310 0.00200
C 	C 	0.35630 0.26630 0.42560 0.09100
H 	H 	0.31550 0.25960 0.42950 -0.03400
C 	C 	0.25100 0.24360 0.57080 0.11300
H 	H 	0.26810 0.21500 0.55380 -0.05400
C 	C 	0.44750 0.30190 0.43230 0.01000
H 	H 	0.48070 0.32330 0.44140 0.03200
C 	C 	0.31090 0.43670 0.39890 0.02900
H 	H 	0.33010 0.41150 0.41730 0.02200
C 	C 	0.25710 0.41960 0.38170 -0.10400
H 	H 	0.23990 0.38290 0.38860 0.06400
C 	C 	0.33550 0.48940 0.38925 -0.10700
H 	H 	0.37140 0.50060 0.40150 0.07400
C 	C 	0.40600 0.49860 0.57550 0.01000
H 	H 	0.41260 0.47790 0.59960 0.02500
C 	C 	0.32860 0.99890 0.27890 -0.01800
H 	H 	0.32010 0.97860 0.25490 0.02700
C 	C 	0.34050 0.06210 0.28490 0.01400
H 	H 	0.34400 0.08990 0.26390 -0.02000
C 	C 	0.40840 0.55840 0.57000 -0.00200
H 	H 	0.41450 0.58640 0.59060 0.02900
C 	C 	0.19400 0.28450 0.61250 0.00400
H 	H 	0.16360 0.29050 0.63140 -0.01200
C 	C 	0.23060 0.32760 0.59840 -0.00500
H 	H 	0.22980 0.36810 0.60540 0.02300
N 	N 	0.17860 0.71280 0.26968 -0.23000
C 	C 	0.22270 0.72980 0.29300 0.09800
H 	H 	0.25010 0.70390 0.30520 -0.00500
C 	C 	0.14710 0.76150 0.25960 0.00900
H 	H 	0.11130 0.76190 0.24500 0.03000
C 	C 	0.17600 0.81050 0.27430 0.00700
H 	H 	0.16560 0.85040 0.26970 0.02400
