data_crystal

_cell_length_a 10.94400
_cell_length_b 11.12900
_cell_length_c 15.99800
_cell_angle_alpha 75.57000
_cell_angle_beta  82.96000
_cell_angle_gamma 75.56000

_symmetry_space_group_name_	'P 1'
_symmetry_space_group_name_H-M	'P 1'

loop_
_symmetry_equiv_pos_as_xyz
  x,y,z

loop_
_atom_site_label
_atom_site_type_symbol
_atom_site_fract_x
_atom_site_fract_y
_atom_site_fract_z
_atom_site_charge
O 	O 	0.35960 0.28660 0.72700 -0.52300
O 	O 	0.57390 0.99600 0.24350 -0.54500
O 	O 	0.97950 0.07370 0.08450 -0.54200
O 	O 	0.14750 0.06970 0.99230 -0.52200
C 	C 	0.09350 0.07460 0.06520 0.51300
O 	O 	0.22640 0.20200 0.82620 -0.54000
O 	O 	0.57140 0.02000 0.10370 -0.46900
C 	C 	0.51440 0.02330 0.17480 0.40800
C 	C 	0.37400 0.06250 0.18310 -0.15500
C 	C 	0.30260 0.05980 0.11920 0.09500
H 	H 	0.34080 0.04260 0.06700 0.00600
C 	C 	0.27720 0.29090 0.78740 0.51800
C 	C 	0.23510 0.41410 0.81650 -0.17600
C 	C 	0.27770 0.52190 0.77240 0.10700
H 	H 	0.33270 0.51840 0.72340 0.00100
O 	O 	0.61080 0.11740 0.54180 -0.47000
O 	O 	0.62020 0.18320 0.65820 -0.41100
C 	C 	0.67070 0.15710 0.58960 0.31900
C 	C 	0.80410 0.16290 0.56370 -0.08800
C 	C 	0.85070 0.16390 0.47980 -0.04600
H 	H 	0.79710 0.16690 0.43810 0.06600
Eu	Eu	0.41255 0.16000 0.62672 1.73800
Eu	Eu	0.20768 0.99481 0.86643 2.06400
O 	O 	0.06830 0.09520 0.74930 -0.48200
O 	O 	0.24480 0.84720 0.78430 -0.53700
N 	N 	0.01980 0.15440 0.36980 -0.08000
O 	O 	0.35790 0.74600 0.68990 -0.32400
C 	C 	0.28530 0.74760 0.75530 0.44200
N 	N 	0.13640 0.13900 0.35580 -0.08700
C 	C 	0.15630 0.63780 0.87340 0.00700
H 	H 	0.13020 0.71230 0.89360 0.01900
C 	C 	0.24040 0.63200 0.79980 -0.17400
C 	C 	0.01030 0.15530 0.60380 -0.15100
O 	O 	0.20340 0.16610 0.64680 -0.58000
C 	C 	0.18280 0.12190 0.27130 0.02800
N 	N 	0.02680 0.54540 0.98550 -0.08500
C 	C 	0.11350 0.11070 0.20840 0.02800
H 	H 	0.02620 0.12220 0.21760 0.04000
C 	C 	0.05960 0.15800 0.52110 0.00900
H 	H 	0.14450 0.15830 0.50640 0.01200
C 	C 	0.10020 0.13890 0.67270 0.50300
C 	C 	0.88250 0.15940 0.62480 0.05100
H 	H 	0.84990 0.15970 0.68130 0.03300
C 	C 	0.15370 0.41680 0.88790 0.01000
H 	H 	0.12590 0.34440 0.91770 0.05100
C 	C 	0.97760 0.16030 0.45760 0.04700
C 	C 	0.17040 0.08360 0.13440 -0.18100
C 	C 	0.31450 0.09600 0.25990 0.01200
H 	H 	0.36250 0.10070 0.30260 0.00600
C 	C 	0.11350 0.52930 0.91510 0.03700
O 	O 	0.64040 0.71340 0.27300 -0.52400
O 	O 	0.42610 0.00400 0.75650 -0.54600
O 	O 	0.02050 0.92630 0.91550 -0.54300
O 	O 	0.85250 0.93030 0.00770 -0.52300
C 	C 	0.90650 0.92540 0.93480 0.51300
O 	O 	0.77360 0.79800 0.17380 -0.54000
O 	O 	0.42860 0.98000 0.89630 -0.46900
C 	C 	0.48560 0.97670 0.82520 0.40800
C 	C 	0.62600 0.93750 0.81690 -0.15500
C 	C 	0.69740 0.94020 0.88080 0.09500
H 	H 	0.65920 0.95740 0.93300 0.00600
C 	C 	0.72280 0.70910 0.21260 0.51800
C 	C 	0.76490 0.58590 0.18350 -0.17600
C 	C 	0.72230 0.47810 0.22760 0.10700
H 	H 	0.66730 0.48160 0.27660 0.00100
O 	O 	0.38920 0.88260 0.45820 -0.47000
O 	O 	0.37980 0.81680 0.34180 -0.41100
C 	C 	0.32930 0.84290 0.41040 0.31900
C 	C 	0.19590 0.83710 0.43630 -0.08800
C 	C 	0.14930 0.83610 0.52020 -0.04600
H 	H 	0.20290 0.83310 0.56190 0.06600
Eu	Eu	0.58745 0.84000 0.37328 1.73800
Eu	Eu	0.79232 0.00519 0.13357 2.06400
O 	O 	0.93170 0.90480 0.25070 -0.48200
O 	O 	0.75520 0.15280 0.21570 -0.53700
N 	N 	0.98020 0.84560 0.63020 -0.08000
O 	O 	0.64210 0.25400 0.31010 -0.32400
C 	C 	0.71470 0.25240 0.24470 0.44200
N 	N 	0.86360 0.86100 0.64420 -0.08700
C 	C 	0.84370 0.36220 0.12660 0.00700
H 	H 	0.86980 0.28770 0.10640 0.01900
C 	C 	0.75960 0.36800 0.20020 -0.17400
C 	C 	0.98970 0.84470 0.39620 -0.15100
O 	O 	0.79660 0.83390 0.35320 -0.58000
C 	C 	0.81720 0.87810 0.72870 0.02800
N 	N 	0.97320 0.45460 0.01450 -0.08500
C 	C 	0.88650 0.88930 0.79160 0.02800
H 	H 	0.97380 0.87780 0.78240 0.04000
C 	C 	0.94040 0.84200 0.47890 0.00900
H 	H 	0.85550 0.84170 0.49360 0.01200
C 	C 	0.89980 0.86110 0.32730 0.50300
C 	C 	0.11750 0.84060 0.37520 0.05100
H 	H 	0.15010 0.84030 0.31870 0.03300
C 	C 	0.84630 0.58320 0.11210 0.01000
H 	H 	0.87410 0.65560 0.08230 0.05100
C 	C 	0.02240 0.83970 0.54240 0.04700
C 	C 	0.82960 0.91640 0.86560 -0.18100
C 	C 	0.68550 0.90400 0.74010 0.01200
H 	H 	0.63750 0.89930 0.69740 0.00600
C 	C 	0.88650 0.47070 0.08490 0.03700
