data_crystal

_cell_length_a 18.77700
_cell_length_b 23.35930
_cell_length_c 30.42310
_cell_angle_alpha 90.00000
_cell_angle_beta  90.00000
_cell_angle_gamma 90.00000

_symmetry_space_group_name_	'P 1'
_symmetry_space_group_name_H-M	'P 1'

loop_
_symmetry_equiv_pos_as_xyz
  x,y,z

loop_
_atom_site_label
_atom_site_type_symbol
_atom_site_fract_x
_atom_site_fract_y
_atom_site_fract_z
_atom_site_charge
Cu	Cu	0.23583 0.36023 0.12145 0.82300
N 	N 	0.28780 0.40542 0.16730 -0.25900
N 	N 	0.43710 0.58827 0.32842 -0.26000
N 	N 	0.22920 0.27642 0.12170 -0.26500
C 	C 	0.32660 0.45130 0.15647 0.08000
H 	H 	0.33360 0.45900 0.12680 -0.04100
C 	C 	0.35640 0.48750 0.18631 -0.16100
H 	H 	0.38220 0.51910 0.17670 0.07900
C 	C 	0.28090 0.39510 0.21022 0.08800
H 	H 	0.25550 0.36280 0.21870 -0.02700
C 	C 	0.30900 0.42910 0.24246 -0.14900
H 	H 	0.30190 0.42000 0.27190 0.07700
C 	C 	0.34840 0.47740 0.23094 0.06500
C 	C 	0.37950 0.51510 0.26475 0.04200
C 	C 	0.40420 0.49460 0.30455 -0.13600
H 	H 	0.40200 0.45570 0.31070 0.06900
C 	C 	0.43210 0.53150 0.33479 0.05900
H 	H 	0.44840 0.51660 0.36130 -0.01600
C 	C 	0.38560 0.57410 0.25745 -0.13200
H 	H 	0.37090 0.58980 0.23090 0.06700
C 	C 	0.41360 0.60850 0.28969 0.04600
H 	H 	0.41640 0.64770 0.28450 -0.02900
C 	C 	0.24990 0.24540 0.08708 0.07300
H 	H 	0.26440 0.26440 0.06180 -0.03700
C 	C 	0.25060 0.18630 0.08723 -0.14500
H 	H 	0.26510 0.16640 0.06230 0.06900
C 	C 	0.20770 0.24760 0.15745 0.07400
H 	H 	0.19180 0.26840 0.18160 -0.03200
C 	C 	0.20790 0.18890 0.15999 -0.14200
H 	H 	0.19350 0.17090 0.18570 0.07100
C 	C 	0.22960 0.15680 0.12447 0.05400
Cu	Cu	0.23583 0.86023 0.62145 0.82200
N 	N 	0.28780 0.90542 0.66730 -0.26000
N 	N 	0.43710 0.08827 0.82842 -0.26200
N 	N 	0.22920 0.77642 0.62170 -0.26600
C 	C 	0.32660 0.95130 0.65647 0.07900
H 	H 	0.33360 0.95900 0.62680 -0.04200
C 	C 	0.35640 0.98750 0.68631 -0.16100
H 	H 	0.38220 0.01910 0.67670 0.08000
C 	C 	0.28090 0.89510 0.71022 0.08800
H 	H 	0.25550 0.86280 0.71870 -0.02700
C 	C 	0.30900 0.92910 0.74246 -0.14900
H 	H 	0.30190 0.92000 0.77190 0.07700
C 	C 	0.34840 0.97740 0.73094 0.06400
C 	C 	0.37950 0.01510 0.76475 0.04300
C 	C 	0.40420 0.99460 0.80455 -0.13800
H 	H 	0.40200 0.95570 0.81070 0.06900
C 	C 	0.43210 0.03150 0.83479 0.06000
H 	H 	0.44840 0.01660 0.86130 -0.01700
C 	C 	0.38560 0.07410 0.75745 -0.13300
H 	H 	0.37090 0.08980 0.73090 0.06800
C 	C 	0.41360 0.10850 0.78969 0.04700
H 	H 	0.41640 0.14770 0.78450 -0.02900
C 	C 	0.24990 0.74540 0.58708 0.07300
H 	H 	0.26440 0.76440 0.56180 -0.03600
C 	C 	0.25060 0.68630 0.58723 -0.14500
H 	H 	0.26510 0.66640 0.56230 0.06900
C 	C 	0.20770 0.74760 0.65745 0.07400
H 	H 	0.19180 0.76840 0.68160 -0.03200
C 	C 	0.20790 0.68890 0.65999 -0.14200
H 	H 	0.19350 0.67090 0.68570 0.07100
C 	C 	0.22960 0.65680 0.62447 0.05500
Cu	Cu	0.73583 0.36023 0.62145 0.82200
N 	N 	0.78780 0.40542 0.66730 -0.26000
N 	N 	0.93710 0.58827 0.82842 -0.26100
N 	N 	0.72920 0.27642 0.62170 -0.26700
C 	C 	0.82660 0.45130 0.65647 0.07900
H 	H 	0.83360 0.45900 0.62680 -0.04200
C 	C 	0.85640 0.48750 0.68631 -0.16100
H 	H 	0.88220 0.51910 0.67670 0.07900
C 	C 	0.78090 0.39510 0.71022 0.08800
H 	H 	0.75550 0.36280 0.71870 -0.02700
C 	C 	0.80900 0.42910 0.74246 -0.14900
H 	H 	0.80190 0.42000 0.77190 0.07700
C 	C 	0.84840 0.47740 0.73094 0.06500
C 	C 	0.87950 0.51510 0.76475 0.04200
C 	C 	0.90420 0.49460 0.80455 -0.13600
H 	H 	0.90200 0.45570 0.81070 0.06900
C 	C 	0.93210 0.53150 0.83479 0.05900
H 	H 	0.94840 0.51660 0.86130 -0.01600
C 	C 	0.88560 0.57410 0.75745 -0.13200
H 	H 	0.87090 0.58980 0.73090 0.06700
C 	C 	0.91360 0.60850 0.78969 0.04700
H 	H 	0.91640 0.64770 0.78450 -0.02900
C 	C 	0.74990 0.24540 0.58708 0.07300
H 	H 	0.76440 0.26440 0.56180 -0.03700
C 	C 	0.75060 0.18630 0.58723 -0.14500
H 	H 	0.76510 0.16640 0.56230 0.06900
C 	C 	0.70770 0.24760 0.65745 0.07400
H 	H 	0.69180 0.26840 0.68160 -0.03200
C 	C 	0.70790 0.18890 0.65999 -0.14200
H 	H 	0.69350 0.17090 0.68570 0.07100
C 	C 	0.72960 0.15680 0.62447 0.05500
Cu	Cu	0.73583 0.86023 0.12145 0.82200
N 	N 	0.78780 0.90542 0.16730 -0.26000
N 	N 	0.93710 0.08827 0.32842 -0.26100
N 	N 	0.72920 0.77642 0.12170 -0.26600
C 	C 	0.82660 0.95130 0.15647 0.07900
H 	H 	0.83360 0.95900 0.12680 -0.04200
C 	C 	0.85640 0.98750 0.18631 -0.16000
H 	H 	0.88220 0.01910 0.17670 0.07900
C 	C 	0.78090 0.89510 0.21022 0.08800
H 	H 	0.75550 0.86280 0.21870 -0.02700
C 	C 	0.80900 0.92910 0.24246 -0.15000
H 	H 	0.80190 0.92000 0.27190 0.07700
C 	C 	0.84840 0.97740 0.23094 0.06600
C 	C 	0.87950 0.01510 0.26475 0.03900
C 	C 	0.90420 0.99460 0.30455 -0.13200
H 	H 	0.90200 0.95570 0.31070 0.06800
C 	C 	0.93210 0.03150 0.33479 0.05600
H 	H 	0.94840 0.01660 0.36130 -0.01600
C 	C 	0.88560 0.07410 0.25745 -0.13000
H 	H 	0.87090 0.08980 0.23090 0.06700
C 	C 	0.91360 0.10850 0.28969 0.04500
H 	H 	0.91640 0.14770 0.28450 -0.02800
C 	C 	0.74990 0.74540 0.08708 0.07300
H 	H 	0.76440 0.76440 0.06180 -0.03600
C 	C 	0.75060 0.68630 0.08723 -0.14500
H 	H 	0.76510 0.66640 0.06230 0.06900
C 	C 	0.70770 0.74760 0.15745 0.07400
H 	H 	0.69180 0.76840 0.18160 -0.03200
C 	C 	0.70790 0.68890 0.15999 -0.14200
H 	H 	0.69350 0.67090 0.18570 0.07100
C 	C 	0.72960 0.65680 0.12447 0.05500
Cu	Cu	0.23583 0.38977 0.62855 0.82200
N 	N 	0.28780 0.34458 0.58270 -0.26000
N 	N 	0.43710 0.16173 0.42158 -0.26100
N 	N 	0.22920 0.47358 0.62830 -0.26600
C 	C 	0.32660 0.29870 0.59353 0.07900
H 	H 	0.33360 0.29100 0.62320 -0.04200
C 	C 	0.35640 0.26250 0.56369 -0.16100
H 	H 	0.38220 0.23090 0.57330 0.07900
C 	C 	0.28090 0.35490 0.53978 0.08800
H 	H 	0.25550 0.38720 0.53130 -0.02700
C 	C 	0.30900 0.32090 0.50754 -0.14900
H 	H 	0.30190 0.33000 0.47810 0.07700
C 	C 	0.34840 0.27260 0.51906 0.06500
C 	C 	0.37950 0.23490 0.48525 0.04200
C 	C 	0.40420 0.25540 0.44545 -0.13600
H 	H 	0.40200 0.29430 0.43930 0.06900
C 	C 	0.43210 0.21850 0.41521 0.05900
H 	H 	0.44840 0.23340 0.38870 -0.01600
C 	C 	0.38560 0.17590 0.49255 -0.13200
H 	H 	0.37090 0.16020 0.51910 0.06700
C 	C 	0.41360 0.14150 0.46031 0.04700
H 	H 	0.41640 0.10230 0.46550 -0.02900
C 	C 	0.24990 0.50460 0.66292 0.07300
H 	H 	0.26440 0.48560 0.68820 -0.03600
C 	C 	0.25060 0.56370 0.66277 -0.14500
H 	H 	0.26510 0.58360 0.68770 0.06900
C 	C 	0.20770 0.50240 0.59255 0.07400
H 	H 	0.19180 0.48160 0.56840 -0.03200
C 	C 	0.20790 0.56110 0.59001 -0.14200
H 	H 	0.19350 0.57910 0.56430 0.07100
C 	C 	0.22960 0.59320 0.62553 0.05500
Cu	Cu	0.23583 0.88977 0.12855 0.82200
N 	N 	0.28780 0.84458 0.08270 -0.26000
N 	N 	0.43710 0.66173 0.92158 -0.26100
N 	N 	0.22920 0.97358 0.12830 -0.26700
C 	C 	0.32660 0.79870 0.09353 0.07900
H 	H 	0.33360 0.79100 0.12320 -0.04200
C 	C 	0.35640 0.76250 0.06369 -0.16100
H 	H 	0.38220 0.73090 0.07330 0.07900
C 	C 	0.28090 0.85490 0.03978 0.08800
H 	H 	0.25550 0.88720 0.03130 -0.02700
C 	C 	0.30900 0.82090 0.00754 -0.14900
H 	H 	0.30190 0.83000 0.97810 0.07700
C 	C 	0.34840 0.77260 0.01906 0.06500
C 	C 	0.37950 0.73490 0.98525 0.04200
C 	C 	0.40420 0.75540 0.94545 -0.13500
H 	H 	0.40200 0.79430 0.93930 0.06900
C 	C 	0.43210 0.71850 0.91521 0.05800
H 	H 	0.44840 0.73340 0.88870 -0.01600
C 	C 	0.38560 0.67590 0.99255 -0.13200
H 	H 	0.37090 0.66020 0.01910 0.06700
C 	C 	0.41360 0.64150 0.96031 0.04600
H 	H 	0.41640 0.60230 0.96550 -0.02900
C 	C 	0.24990 0.00460 0.16292 0.07300
H 	H 	0.26440 0.98560 0.18820 -0.03700
C 	C 	0.25060 0.06370 0.16277 -0.14600
H 	H 	0.26510 0.08360 0.18770 0.06900
C 	C 	0.20770 0.00240 0.09255 0.07400
H 	H 	0.19180 0.98160 0.06840 -0.03300
C 	C 	0.20790 0.06110 0.09001 -0.14200
H 	H 	0.19350 0.07910 0.06430 0.07100
C 	C 	0.22960 0.09320 0.12553 0.05500
Cu	Cu	0.73583 0.38977 0.12855 0.82200
N 	N 	0.78780 0.34458 0.08270 -0.26000
N 	N 	0.93710 0.16173 0.92158 -0.26200
N 	N 	0.72920 0.47358 0.12830 -0.26600
C 	C 	0.82660 0.29870 0.09353 0.07900
H 	H 	0.83360 0.29100 0.12320 -0.04200
C 	C 	0.85640 0.26250 0.06369 -0.16100
H 	H 	0.88220 0.23090 0.07330 0.07900
C 	C 	0.78090 0.35490 0.03978 0.08800
H 	H 	0.75550 0.38720 0.03130 -0.02700
C 	C 	0.80900 0.32090 0.00754 -0.14900
H 	H 	0.80190 0.33000 0.97810 0.07600
C 	C 	0.84840 0.27260 0.01906 0.06500
C 	C 	0.87950 0.23490 0.98525 0.04200
C 	C 	0.90420 0.25540 0.94545 -0.13600
H 	H 	0.90200 0.29430 0.93930 0.06900
C 	C 	0.93210 0.21850 0.91521 0.05900
H 	H 	0.94840 0.23340 0.88870 -0.01600
C 	C 	0.88560 0.17590 0.99255 -0.13300
H 	H 	0.87090 0.16020 0.01910 0.06800
C 	C 	0.91360 0.14150 0.96031 0.04700
H 	H 	0.91640 0.10230 0.96550 -0.02900
C 	C 	0.74990 0.50460 0.16292 0.07300
H 	H 	0.76440 0.48560 0.18820 -0.03600
C 	C 	0.75060 0.56370 0.16277 -0.14500
H 	H 	0.76510 0.58360 0.18770 0.06900
C 	C 	0.70770 0.50240 0.09255 0.07400
H 	H 	0.69180 0.48160 0.06840 -0.03200
C 	C 	0.70790 0.56110 0.09001 -0.14200
H 	H 	0.69350 0.57910 0.06430 0.07100
C 	C 	0.72960 0.59320 0.12553 0.05500
Cu	Cu	0.73583 0.88977 0.62855 0.82200
N 	N 	0.78780 0.84458 0.58270 -0.26000
N 	N 	0.93710 0.66173 0.42158 -0.26100
N 	N 	0.72920 0.97358 0.62830 -0.26600
C 	C 	0.82660 0.79870 0.59353 0.07900
H 	H 	0.83360 0.79100 0.62320 -0.04200
C 	C 	0.85640 0.76250 0.56369 -0.16100
H 	H 	0.88220 0.73090 0.57330 0.07900
C 	C 	0.78090 0.85490 0.53978 0.08800
H 	H 	0.75550 0.88720 0.53130 -0.02700
C 	C 	0.80900 0.82090 0.50754 -0.14900
H 	H 	0.80190 0.83000 0.47810 0.07700
C 	C 	0.84840 0.77260 0.51906 0.06500
C 	C 	0.87950 0.73490 0.48525 0.04200
C 	C 	0.90420 0.75540 0.44545 -0.13600
H 	H 	0.90200 0.79430 0.43930 0.06900
C 	C 	0.93210 0.71850 0.41521 0.05900
H 	H 	0.94840 0.73340 0.38870 -0.01600
C 	C 	0.88560 0.67590 0.49255 -0.13200
H 	H 	0.87090 0.66020 0.51910 0.06700
C 	C 	0.91360 0.64150 0.46031 0.04700
H 	H 	0.91640 0.60230 0.46550 -0.02900
C 	C 	0.74990 0.00460 0.66292 0.07100
H 	H 	0.76440 0.98560 0.68820 -0.03600
C 	C 	0.75060 0.06370 0.66277 -0.14400
H 	H 	0.76510 0.08360 0.68770 0.06900
C 	C 	0.70770 0.00240 0.59255 0.07200
H 	H 	0.69180 0.98160 0.56840 -0.03200
C 	C 	0.70790 0.06110 0.59001 -0.14100
H 	H 	0.69350 0.07910 0.56430 0.07000
C 	C 	0.72960 0.09320 0.62553 0.05400
Cu	Cu	0.48583 0.61023 0.87855 0.82200
N 	N 	0.53780 0.65542 0.83270 -0.26000
N 	N 	0.68710 0.83827 0.67158 -0.26100
N 	N 	0.47920 0.52642 0.87830 -0.26600
C 	C 	0.57660 0.70130 0.84353 0.07900
H 	H 	0.58360 0.70900 0.87320 -0.04200
C 	C 	0.60640 0.73750 0.81369 -0.16100
H 	H 	0.63220 0.76910 0.82330 0.07900
C 	C 	0.53090 0.64510 0.78978 0.08800
H 	H 	0.50550 0.61280 0.78130 -0.02700
C 	C 	0.55900 0.67910 0.75754 -0.14900
H 	H 	0.55190 0.67000 0.72810 0.07700
C 	C 	0.59840 0.72740 0.76906 0.06500
C 	C 	0.62950 0.76510 0.73525 0.04200
C 	C 	0.65420 0.74460 0.69545 -0.13600
H 	H 	0.65200 0.70570 0.68930 0.06900
C 	C 	0.68210 0.78150 0.66521 0.05900
H 	H 	0.69840 0.76660 0.63870 -0.01600
C 	C 	0.63560 0.82410 0.74255 -0.13200
H 	H 	0.62090 0.83980 0.76910 0.06700
C 	C 	0.66360 0.85850 0.71031 0.04600
H 	H 	0.66640 0.89770 0.71550 -0.02900
C 	C 	0.49990 0.49540 0.91292 0.07300
H 	H 	0.51440 0.51440 0.93820 -0.03600
C 	C 	0.50060 0.43630 0.91277 -0.14500
H 	H 	0.51510 0.41640 0.93770 0.06900
C 	C 	0.45770 0.49760 0.84255 0.07400
H 	H 	0.44180 0.51840 0.81840 -0.03200
C 	C 	0.45790 0.43890 0.84001 -0.14200
H 	H 	0.44350 0.42090 0.81430 0.07100
C 	C 	0.47960 0.40680 0.87553 0.05500
Cu	Cu	0.48583 0.11023 0.37855 0.82200
N 	N 	0.53780 0.15542 0.33270 -0.26000
N 	N 	0.68710 0.33827 0.17158 -0.26100
N 	N 	0.47920 0.02642 0.37830 -0.26600
C 	C 	0.57660 0.20130 0.34353 0.07900
H 	H 	0.58360 0.20900 0.37320 -0.04200
C 	C 	0.60640 0.23750 0.31369 -0.16100
H 	H 	0.63220 0.26910 0.32330 0.07900
C 	C 	0.53090 0.14510 0.28978 0.08800
H 	H 	0.50550 0.11280 0.28130 -0.02700
C 	C 	0.55900 0.17910 0.25754 -0.14900
H 	H 	0.55190 0.17000 0.22810 0.07700
C 	C 	0.59840 0.22740 0.26906 0.06500
C 	C 	0.62950 0.26510 0.23525 0.04200
C 	C 	0.65420 0.24460 0.19545 -0.13600
H 	H 	0.65200 0.20570 0.18930 0.06900
C 	C 	0.68210 0.28150 0.16521 0.05900
H 	H 	0.69840 0.26660 0.13870 -0.01600
C 	C 	0.63560 0.32410 0.24255 -0.13200
H 	H 	0.62090 0.33980 0.26910 0.06700
C 	C 	0.66360 0.35850 0.21031 0.04600
H 	H 	0.66640 0.39770 0.21550 -0.02900
C 	C 	0.49990 0.99540 0.41292 0.07300
H 	H 	0.51440 0.01440 0.43820 -0.03700
C 	C 	0.50060 0.93630 0.41277 -0.14500
H 	H 	0.51510 0.91640 0.43770 0.06900
C 	C 	0.45770 0.99760 0.34255 0.07300
H 	H 	0.44180 0.01840 0.31840 -0.03200
C 	C 	0.45790 0.93890 0.34001 -0.14200
H 	H 	0.44350 0.92090 0.31430 0.07100
C 	C 	0.47960 0.90680 0.37553 0.05500
Cu	Cu	0.98583 0.61023 0.37855 0.82200
N 	N 	0.03780 0.65542 0.33270 -0.26000
N 	N 	0.18710 0.83827 0.17158 -0.26200
N 	N 	0.97920 0.52642 0.37830 -0.26700
C 	C 	0.07660 0.70130 0.34353 0.07900
H 	H 	0.08360 0.70900 0.37320 -0.04200
C 	C 	0.10640 0.73750 0.31369 -0.16100
H 	H 	0.13220 0.76910 0.32330 0.07900
C 	C 	0.03090 0.64510 0.28978 0.08800
H 	H 	0.00550 0.61280 0.28130 -0.02700
C 	C 	0.05900 0.67910 0.25754 -0.14900
H 	H 	0.05190 0.67000 0.22810 0.07700
C 	C 	0.09840 0.72740 0.26906 0.06500
C 	C 	0.12950 0.76510 0.23525 0.04200
C 	C 	0.15420 0.74460 0.19545 -0.13600
H 	H 	0.15200 0.70570 0.18930 0.06900
C 	C 	0.18210 0.78150 0.16521 0.05900
H 	H 	0.19840 0.76660 0.13870 -0.01600
C 	C 	0.13560 0.82410 0.24255 -0.13200
H 	H 	0.12090 0.83980 0.26910 0.06700
C 	C 	0.16360 0.85850 0.21031 0.04600
H 	H 	0.16640 0.89770 0.21550 -0.02900
C 	C 	0.99990 0.49540 0.41292 0.07300
H 	H 	0.01440 0.51440 0.43820 -0.03700
C 	C 	0.00060 0.43630 0.41277 -0.14500
H 	H 	0.01510 0.41640 0.43770 0.06900
C 	C 	0.95770 0.49760 0.34255 0.07400
H 	H 	0.94180 0.51840 0.31840 -0.03200
C 	C 	0.95790 0.43890 0.34001 -0.14200
H 	H 	0.94350 0.42090 0.31430 0.07100
C 	C 	0.97960 0.40680 0.37553 0.05500
Cu	Cu	0.98583 0.11023 0.87855 0.82200
N 	N 	0.03780 0.15542 0.83270 -0.25900
N 	N 	0.18710 0.33827 0.67158 -0.26100
N 	N 	0.97920 0.02642 0.87830 -0.26700
C 	C 	0.07660 0.20130 0.84353 0.07900
H 	H 	0.08360 0.20900 0.87320 -0.04200
C 	C 	0.10640 0.23750 0.81369 -0.16100
H 	H 	0.13220 0.26910 0.82330 0.07900
C 	C 	0.03090 0.14510 0.78978 0.08800
H 	H 	0.00550 0.11280 0.78130 -0.02700
C 	C 	0.05900 0.17910 0.75754 -0.14900
H 	H 	0.05190 0.17000 0.72810 0.07700
C 	C 	0.09840 0.22740 0.76906 0.06500
C 	C 	0.12950 0.26510 0.73525 0.04200
C 	C 	0.15420 0.24460 0.69545 -0.13600
H 	H 	0.15200 0.20570 0.68930 0.06900
C 	C 	0.18210 0.28150 0.66521 0.05900
H 	H 	0.19840 0.26660 0.63870 -0.01600
C 	C 	0.13560 0.32410 0.74255 -0.13200
H 	H 	0.12090 0.33980 0.76910 0.06800
C 	C 	0.16360 0.35850 0.71031 0.04700
H 	H 	0.16640 0.39770 0.71550 -0.02900
C 	C 	0.99990 0.99540 0.91292 0.07300
H 	H 	0.01440 0.01440 0.93820 -0.03600
C 	C 	0.00060 0.93630 0.91277 -0.14600
H 	H 	0.01510 0.91640 0.93770 0.06900
C 	C 	0.95770 0.99760 0.84255 0.07600
H 	H 	0.94180 0.01840 0.81840 -0.03300
C 	C 	0.95790 0.93890 0.84001 -0.14300
H 	H 	0.94350 0.92090 0.81430 0.07100
C 	C 	0.97960 0.90680 0.87553 0.05600
Cu	Cu	0.48583 0.63977 0.37145 0.82200
N 	N 	0.53780 0.59458 0.41730 -0.26000
N 	N 	0.68710 0.41173 0.57842 -0.26100
N 	N 	0.47920 0.72358 0.37170 -0.26600
C 	C 	0.57660 0.54870 0.40647 0.07900
H 	H 	0.58360 0.54100 0.37680 -0.04200
C 	C 	0.60640 0.51250 0.43631 -0.16100
H 	H 	0.63220 0.48090 0.42670 0.07900
C 	C 	0.53090 0.60490 0.46022 0.08800
H 	H 	0.50550 0.63720 0.46870 -0.02700
C 	C 	0.55900 0.57090 0.49246 -0.14900
H 	H 	0.55190 0.58000 0.52190 0.07700
C 	C 	0.59840 0.52260 0.48094 0.06500
C 	C 	0.62950 0.48490 0.51475 0.04200
C 	C 	0.65420 0.50540 0.55455 -0.13600
H 	H 	0.65200 0.54430 0.56070 0.06900
C 	C 	0.68210 0.46850 0.58479 0.05900
H 	H 	0.69840 0.48340 0.61130 -0.01600
C 	C 	0.63560 0.42590 0.50745 -0.13200
H 	H 	0.62090 0.41020 0.48090 0.06700
C 	C 	0.66360 0.39150 0.53969 0.04600
H 	H 	0.66640 0.35230 0.53450 -0.02900
C 	C 	0.49990 0.75460 0.33708 0.07300
H 	H 	0.51440 0.73560 0.31180 -0.03600
C 	C 	0.50060 0.81370 0.33723 -0.14500
H 	H 	0.51510 0.83360 0.31230 0.06900
C 	C 	0.45770 0.75240 0.40745 0.07400
H 	H 	0.44180 0.73160 0.43160 -0.03200
C 	C 	0.45790 0.81110 0.40999 -0.14200
H 	H 	0.44350 0.82910 0.43570 0.07100
C 	C 	0.47960 0.84320 0.37447 0.05500
Cu	Cu	0.48583 0.13977 0.87145 0.82200
N 	N 	0.53780 0.09458 0.91730 -0.26000
N 	N 	0.68710 0.91173 0.07842 -0.26200
N 	N 	0.47920 0.22358 0.87170 -0.26600
C 	C 	0.57660 0.04870 0.90647 0.07900
H 	H 	0.58360 0.04100 0.87680 -0.04200
C 	C 	0.60640 0.01250 0.93631 -0.16000
H 	H 	0.63220 0.98090 0.92670 0.07900
C 	C 	0.53090 0.10490 0.96022 0.08700
H 	H 	0.50550 0.13720 0.96870 -0.02700
C 	C 	0.55900 0.07090 0.99246 -0.14800
H 	H 	0.55190 0.08000 0.02190 0.07600
C 	C 	0.59840 0.02260 0.98094 0.06400
C 	C 	0.62950 0.98490 0.01475 0.04400
C 	C 	0.65420 0.00540 0.05455 -0.13800
H 	H 	0.65200 0.04430 0.06070 0.06900
C 	C 	0.68210 0.96850 0.08479 0.06000
H 	H 	0.69840 0.98340 0.11130 -0.01700
C 	C 	0.63560 0.92590 0.00745 -0.13200
H 	H 	0.62090 0.91020 0.98090 0.06700
C 	C 	0.66360 0.89150 0.03969 0.04700
H 	H 	0.66640 0.85230 0.03450 -0.02900
C 	C 	0.49990 0.25460 0.83708 0.07300
H 	H 	0.51440 0.23560 0.81180 -0.03600
C 	C 	0.50060 0.31370 0.83723 -0.14500
H 	H 	0.51510 0.33360 0.81230 0.06900
C 	C 	0.45770 0.25240 0.90745 0.07400
H 	H 	0.44180 0.23160 0.93160 -0.03200
C 	C 	0.45790 0.31110 0.90999 -0.14200
H 	H 	0.44350 0.32910 0.93570 0.07100
C 	C 	0.47960 0.34320 0.87447 0.05500
Cu	Cu	0.98583 0.63977 0.87145 0.82200
N 	N 	0.03780 0.59458 0.91730 -0.26000
N 	N 	0.18710 0.41173 0.07842 -0.26200
N 	N 	0.97920 0.72358 0.87170 -0.26700
C 	C 	0.07660 0.54870 0.90647 0.07900
H 	H 	0.08360 0.54100 0.87680 -0.04200
C 	C 	0.10640 0.51250 0.93631 -0.16000
H 	H 	0.13220 0.48090 0.92670 0.07900
C 	C 	0.03090 0.60490 0.96022 0.08700
H 	H 	0.00550 0.63720 0.96870 -0.02700
C 	C 	0.05900 0.57090 0.99246 -0.14800
H 	H 	0.05190 0.58000 0.02190 0.07600
C 	C 	0.09840 0.52260 0.98094 0.06500
C 	C 	0.12950 0.48490 0.01475 0.04200
C 	C 	0.15420 0.50540 0.05455 -0.13600
H 	H 	0.15200 0.54430 0.06070 0.06900
C 	C 	0.18210 0.46850 0.08479 0.05900
H 	H 	0.19840 0.48340 0.11130 -0.01600
C 	C 	0.13560 0.42590 0.00745 -0.13300
H 	H 	0.12090 0.41020 0.98090 0.06800
C 	C 	0.16360 0.39150 0.03969 0.04700
H 	H 	0.16640 0.35230 0.03450 -0.02900
C 	C 	0.99990 0.75460 0.83708 0.07300
H 	H 	0.01440 0.73560 0.81180 -0.03700
C 	C 	0.00060 0.81370 0.83723 -0.14500
H 	H 	0.01510 0.83360 0.81230 0.06900
C 	C 	0.95770 0.75240 0.90745 0.07400
H 	H 	0.94180 0.73160 0.93160 -0.03200
C 	C 	0.95790 0.81110 0.90999 -0.14200
H 	H 	0.94350 0.82910 0.93570 0.07100
C 	C 	0.97960 0.84320 0.87447 0.05500
Cu	Cu	0.98583 0.13977 0.37145 0.82200
N 	N 	0.03780 0.09458 0.41730 -0.26000
N 	N 	0.18710 0.91173 0.57842 -0.26100
N 	N 	0.97920 0.22358 0.37170 -0.26600
C 	C 	0.07660 0.04870 0.40647 0.07900
H 	H 	0.08360 0.04100 0.37680 -0.04200
C 	C 	0.10640 0.01250 0.43631 -0.16000
H 	H 	0.13220 0.98090 0.42670 0.07900
C 	C 	0.03090 0.10490 0.46022 0.08800
H 	H 	0.00550 0.13720 0.46870 -0.02700
C 	C 	0.05900 0.07090 0.49246 -0.15000
H 	H 	0.05190 0.08000 0.52190 0.07700
C 	C 	0.09840 0.02260 0.48094 0.06600
C 	C 	0.12950 0.98490 0.51475 0.03900
C 	C 	0.15420 0.00540 0.55455 -0.13300
H 	H 	0.15200 0.04430 0.56070 0.06800
C 	C 	0.18210 0.96850 0.58479 0.05700
H 	H 	0.19840 0.98340 0.61130 -0.01600
C 	C 	0.13560 0.92590 0.50745 -0.13100
H 	H 	0.12090 0.91020 0.48090 0.06700
C 	C 	0.16360 0.89150 0.53969 0.04600
H 	H 	0.16640 0.85230 0.53450 -0.02900
C 	C 	0.99990 0.25460 0.33708 0.07200
H 	H 	0.01440 0.23560 0.31180 -0.03600
C 	C 	0.00060 0.31370 0.33723 -0.14400
H 	H 	0.01510 0.33360 0.31230 0.06900
C 	C 	0.95770 0.25240 0.40745 0.07300
H 	H 	0.94180 0.23160 0.43160 -0.03200
C 	C 	0.95790 0.31110 0.40999 -0.14100
H 	H 	0.94350 0.32910 0.43570 0.07100
C 	C 	0.97960 0.34320 0.37447 0.05400
Cu	Cu	0.51417 0.38977 0.12145 0.82200
N 	N 	0.46220 0.34458 0.16730 -0.26000
N 	N 	0.31290 0.16173 0.32842 -0.26100
N 	N 	0.52080 0.47358 0.12170 -0.26600
C 	C 	0.42340 0.29870 0.15647 0.07900
H 	H 	0.41640 0.29100 0.12680 -0.04200
C 	C 	0.39360 0.26250 0.18631 -0.16100
H 	H 	0.36780 0.23090 0.17670 0.07900
C 	C 	0.46910 0.35490 0.21022 0.08800
H 	H 	0.49450 0.38720 0.21870 -0.02700
C 	C 	0.44100 0.32090 0.24246 -0.14900
H 	H 	0.44810 0.33000 0.27190 0.07700
C 	C 	0.40160 0.27260 0.23094 0.06500
C 	C 	0.37050 0.23490 0.26475 0.04200
C 	C 	0.34580 0.25540 0.30455 -0.13600
H 	H 	0.34800 0.29430 0.31070 0.06900
C 	C 	0.31790 0.21850 0.33479 0.05900
H 	H 	0.30160 0.23340 0.36130 -0.01600
C 	C 	0.36440 0.17590 0.25745 -0.13200
H 	H 	0.37910 0.16020 0.23090 0.06700
C 	C 	0.33640 0.14150 0.28969 0.04600
H 	H 	0.33360 0.10230 0.28450 -0.02900
C 	C 	0.50010 0.50460 0.08708 0.07300
H 	H 	0.48560 0.48560 0.06180 -0.03600
C 	C 	0.49940 0.56370 0.08723 -0.14500
H 	H 	0.48490 0.58360 0.06230 0.06900
C 	C 	0.54230 0.50240 0.15745 0.07400
H 	H 	0.55820 0.48160 0.18160 -0.03200
C 	C 	0.54210 0.56110 0.15999 -0.14200
H 	H 	0.55650 0.57910 0.18570 0.07100
C 	C 	0.52040 0.59320 0.12447 0.05500
Cu	Cu	0.51417 0.88977 0.62145 0.82200
N 	N 	0.46220 0.84458 0.66730 -0.26000
N 	N 	0.31290 0.66173 0.82842 -0.26100
N 	N 	0.52080 0.97358 0.62170 -0.26600
C 	C 	0.42340 0.79870 0.65647 0.07900
H 	H 	0.41640 0.79100 0.62680 -0.04200
C 	C 	0.39360 0.76250 0.68631 -0.16100
H 	H 	0.36780 0.73090 0.67670 0.07900
C 	C 	0.46910 0.85490 0.71022 0.08800
H 	H 	0.49450 0.88720 0.71870 -0.02700
C 	C 	0.44100 0.82090 0.74246 -0.14900
H 	H 	0.44810 0.83000 0.77190 0.07700
C 	C 	0.40160 0.77260 0.73094 0.06500
C 	C 	0.37050 0.73490 0.76475 0.04200
C 	C 	0.34580 0.75540 0.80455 -0.13600
H 	H 	0.34800 0.79430 0.81070 0.06900
C 	C 	0.31790 0.71850 0.83479 0.05900
H 	H 	0.30160 0.73340 0.86130 -0.01600
C 	C 	0.36440 0.67590 0.75745 -0.13200
H 	H 	0.37910 0.66020 0.73090 0.06700
C 	C 	0.33640 0.64150 0.78969 0.04600
H 	H 	0.33360 0.60230 0.78450 -0.02900
C 	C 	0.50010 0.00460 0.58708 0.07300
H 	H 	0.48560 0.98560 0.56180 -0.03700
C 	C 	0.49940 0.06370 0.58723 -0.14500
H 	H 	0.48490 0.08360 0.56230 0.06900
C 	C 	0.54230 0.00240 0.65745 0.07300
H 	H 	0.55820 0.98160 0.68160 -0.03200
C 	C 	0.54210 0.06110 0.65999 -0.14200
H 	H 	0.55650 0.07910 0.68570 0.07100
C 	C 	0.52040 0.09320 0.62447 0.05500
Cu	Cu	0.01417 0.38977 0.62145 0.82200
N 	N 	0.96220 0.34458 0.66730 -0.26000
N 	N 	0.81290 0.16173 0.82842 -0.26200
N 	N 	0.02080 0.47358 0.62170 -0.26700
C 	C 	0.92340 0.29870 0.65647 0.07900
H 	H 	0.91640 0.29100 0.62680 -0.04200
C 	C 	0.89360 0.26250 0.68631 -0.16100
H 	H 	0.86780 0.23090 0.67670 0.07900
C 	C 	0.96910 0.35490 0.71022 0.08800
H 	H 	0.99450 0.38720 0.71870 -0.02700
C 	C 	0.94100 0.32090 0.74246 -0.14900
H 	H 	0.94810 0.33000 0.77190 0.07700
C 	C 	0.90160 0.27260 0.73094 0.06500
C 	C 	0.87050 0.23490 0.76475 0.04200
C 	C 	0.84580 0.25540 0.80455 -0.13600
H 	H 	0.84800 0.29430 0.81070 0.06900
C 	C 	0.81790 0.21850 0.83479 0.05900
H 	H 	0.80160 0.23340 0.86130 -0.01600
C 	C 	0.86440 0.17590 0.75745 -0.13200
H 	H 	0.87910 0.16020 0.73090 0.06700
C 	C 	0.83640 0.14150 0.78969 0.04600
H 	H 	0.83360 0.10230 0.78450 -0.02900
C 	C 	0.00010 0.50460 0.58708 0.07300
H 	H 	0.98560 0.48560 0.56180 -0.03700
C 	C 	0.99940 0.56370 0.58723 -0.14500
H 	H 	0.98490 0.58360 0.56230 0.06900
C 	C 	0.04230 0.50240 0.65745 0.07400
H 	H 	0.05820 0.48160 0.68160 -0.03200
C 	C 	0.04210 0.56110 0.65999 -0.14200
H 	H 	0.05650 0.57910 0.68570 0.07100
C 	C 	0.02040 0.59320 0.62447 0.05500
Cu	Cu	0.01417 0.88977 0.12145 0.82200
N 	N 	0.96220 0.84458 0.16730 -0.25900
N 	N 	0.81290 0.66173 0.32842 -0.26100
N 	N 	0.02080 0.97358 0.12170 -0.26700
C 	C 	0.92340 0.79870 0.15647 0.07900
H 	H 	0.91640 0.79100 0.12680 -0.04200
C 	C 	0.89360 0.76250 0.18631 -0.16100
H 	H 	0.86780 0.73090 0.17670 0.07900
C 	C 	0.96910 0.85490 0.21022 0.08800
H 	H 	0.99450 0.88720 0.21870 -0.02700
C 	C 	0.94100 0.82090 0.24246 -0.14900
H 	H 	0.94810 0.83000 0.27190 0.07700
C 	C 	0.90160 0.77260 0.23094 0.06500
C 	C 	0.87050 0.73490 0.26475 0.04200
C 	C 	0.84580 0.75540 0.30455 -0.13600
H 	H 	0.84800 0.79430 0.31070 0.06900
C 	C 	0.81790 0.71850 0.33479 0.05900
H 	H 	0.80160 0.73340 0.36130 -0.01600
C 	C 	0.86440 0.67590 0.25745 -0.13200
H 	H 	0.87910 0.66020 0.23090 0.06800
C 	C 	0.83640 0.64150 0.28969 0.04700
H 	H 	0.83360 0.60230 0.28450 -0.02900
C 	C 	0.00010 0.00460 0.08708 0.07300
H 	H 	0.98560 0.98560 0.06180 -0.03600
C 	C 	0.99940 0.06370 0.08723 -0.14600
H 	H 	0.98490 0.08360 0.06230 0.06900
C 	C 	0.04230 0.00240 0.15745 0.07600
H 	H 	0.05820 0.98160 0.18160 -0.03300
C 	C 	0.04210 0.06110 0.15999 -0.14300
H 	H 	0.05650 0.07910 0.18570 0.07100
C 	C 	0.02040 0.09320 0.12447 0.05600
Cu	Cu	0.51417 0.36023 0.62855 0.82200
N 	N 	0.46220 0.40542 0.58270 -0.26000
N 	N 	0.31290 0.58827 0.42158 -0.26100
N 	N 	0.52080 0.27642 0.62830 -0.26600
C 	C 	0.42340 0.45130 0.59353 0.07900
H 	H 	0.41640 0.45900 0.62320 -0.04200
C 	C 	0.39360 0.48750 0.56369 -0.16100
H 	H 	0.36780 0.51910 0.57330 0.07900
C 	C 	0.46910 0.39510 0.53978 0.08800
H 	H 	0.49450 0.36280 0.53130 -0.02700
C 	C 	0.44100 0.42910 0.50754 -0.14900
H 	H 	0.44810 0.42000 0.47810 0.07700
C 	C 	0.40160 0.47740 0.51906 0.06500
C 	C 	0.37050 0.51510 0.48525 0.04200
C 	C 	0.34580 0.49460 0.44545 -0.13600
H 	H 	0.34800 0.45570 0.43930 0.06900
C 	C 	0.31790 0.53150 0.41521 0.05900
H 	H 	0.30160 0.51660 0.38870 -0.01600
C 	C 	0.36440 0.57410 0.49255 -0.13200
H 	H 	0.37910 0.58980 0.51910 0.06700
C 	C 	0.33640 0.60850 0.46031 0.04600
H 	H 	0.33360 0.64770 0.46550 -0.02900
C 	C 	0.50010 0.24540 0.66292 0.07300
H 	H 	0.48560 0.26440 0.68820 -0.03600
C 	C 	0.49940 0.18630 0.66277 -0.14500
H 	H 	0.48490 0.16640 0.68770 0.06900
C 	C 	0.54230 0.24760 0.59255 0.07400
H 	H 	0.55820 0.26840 0.56840 -0.03200
C 	C 	0.54210 0.18890 0.59001 -0.14200
H 	H 	0.55650 0.17090 0.56430 0.07100
C 	C 	0.52040 0.15680 0.62553 0.05500
Cu	Cu	0.51417 0.86023 0.12855 0.82200
N 	N 	0.46220 0.90542 0.08270 -0.26000
N 	N 	0.31290 0.08827 0.92158 -0.26200
N 	N 	0.52080 0.77642 0.12830 -0.26600
C 	C 	0.42340 0.95130 0.09353 0.07900
H 	H 	0.41640 0.95900 0.12320 -0.04200
C 	C 	0.39360 0.98750 0.06369 -0.16000
H 	H 	0.36780 0.01910 0.07330 0.07900
C 	C 	0.46910 0.89510 0.03978 0.08700
H 	H 	0.49450 0.86280 0.03130 -0.02700
C 	C 	0.44100 0.92910 0.00754 -0.14800
H 	H 	0.44810 0.92000 0.97810 0.07600
C 	C 	0.40160 0.97740 0.01906 0.06400
C 	C 	0.37050 0.01510 0.98525 0.04400
C 	C 	0.34580 0.99460 0.94545 -0.13800
H 	H 	0.34800 0.95570 0.93930 0.06900
C 	C 	0.31790 0.03150 0.91521 0.06000
H 	H 	0.30160 0.01660 0.88870 -0.01700
C 	C 	0.36440 0.07410 0.99255 -0.13200
H 	H 	0.37910 0.08980 0.01910 0.06700
C 	C 	0.33640 0.10850 0.96031 0.04700
H 	H 	0.33360 0.14770 0.96550 -0.02900
C 	C 	0.50010 0.74540 0.16292 0.07300
H 	H 	0.48560 0.76440 0.18820 -0.03600
C 	C 	0.49940 0.68630 0.16277 -0.14500
H 	H 	0.48490 0.66640 0.18770 0.06900
C 	C 	0.54230 0.74760 0.09255 0.07400
H 	H 	0.55820 0.76840 0.06840 -0.03200
C 	C 	0.54210 0.68890 0.09001 -0.14200
H 	H 	0.55650 0.67090 0.06430 0.07100
C 	C 	0.52040 0.65680 0.12553 0.05500
Cu	Cu	0.01417 0.36023 0.12855 0.82200
N 	N 	0.96220 0.40542 0.08270 -0.26000
N 	N 	0.81290 0.58827 0.92158 -0.26200
N 	N 	0.02080 0.27642 0.12830 -0.26700
C 	C 	0.92340 0.45130 0.09353 0.07900
H 	H 	0.91640 0.45900 0.12320 -0.04200
C 	C 	0.89360 0.48750 0.06369 -0.16000
H 	H 	0.86780 0.51910 0.07330 0.07900
C 	C 	0.96910 0.39510 0.03978 0.08700
H 	H 	0.99450 0.36280 0.03130 -0.02700
C 	C 	0.94100 0.42910 0.00754 -0.14800
H 	H 	0.94810 0.42000 0.97810 0.07600
C 	C 	0.90160 0.47740 0.01906 0.06500
C 	C 	0.87050 0.51510 0.98525 0.04200
C 	C 	0.84580 0.49460 0.94545 -0.13600
H 	H 	0.84800 0.45570 0.93930 0.06900
C 	C 	0.81790 0.53150 0.91521 0.05900
H 	H 	0.80160 0.51660 0.88870 -0.01600
C 	C 	0.86440 0.57410 0.99255 -0.13300
H 	H 	0.87910 0.58980 0.01910 0.06800
C 	C 	0.83640 0.60850 0.96031 0.04700
H 	H 	0.83360 0.64770 0.96550 -0.02900
C 	C 	0.00010 0.24540 0.16292 0.07300
H 	H 	0.98560 0.26440 0.18820 -0.03700
C 	C 	0.99940 0.18630 0.16277 -0.14500
H 	H 	0.98490 0.16640 0.18770 0.06900
C 	C 	0.04230 0.24760 0.09255 0.07400
H 	H 	0.05820 0.26840 0.06840 -0.03200
C 	C 	0.04210 0.18890 0.09001 -0.14200
H 	H 	0.05650 0.17090 0.06430 0.07100
C 	C 	0.02040 0.15680 0.12553 0.05500
Cu	Cu	0.01417 0.86023 0.62855 0.82200
N 	N 	0.96220 0.90542 0.58270 -0.26000
N 	N 	0.81290 0.08827 0.42158 -0.26100
N 	N 	0.02080 0.77642 0.62830 -0.26600
C 	C 	0.92340 0.95130 0.59353 0.07900
H 	H 	0.91640 0.95900 0.62320 -0.04200
C 	C 	0.89360 0.98750 0.56369 -0.16000
H 	H 	0.86780 0.01910 0.57330 0.07900
C 	C 	0.96910 0.89510 0.53978 0.08800
H 	H 	0.99450 0.86280 0.53130 -0.02700
C 	C 	0.94100 0.92910 0.50754 -0.15000
H 	H 	0.94810 0.92000 0.47810 0.07700
C 	C 	0.90160 0.97740 0.51906 0.06600
C 	C 	0.87050 0.01510 0.48525 0.03900
C 	C 	0.84580 0.99460 0.44545 -0.13300
H 	H 	0.84800 0.95570 0.43930 0.06800
C 	C 	0.81790 0.03150 0.41521 0.05700
H 	H 	0.80160 0.01660 0.38870 -0.01600
C 	C 	0.86440 0.07410 0.49255 -0.13100
H 	H 	0.87910 0.08980 0.51910 0.06700
C 	C 	0.83640 0.10850 0.46031 0.04600
H 	H 	0.83360 0.14770 0.46550 -0.02900
C 	C 	0.00010 0.74540 0.66292 0.07200
H 	H 	0.98560 0.76440 0.68820 -0.03600
C 	C 	0.99940 0.68630 0.66277 -0.14400
H 	H 	0.98490 0.66640 0.68770 0.06900
C 	C 	0.04230 0.74760 0.59255 0.07300
H 	H 	0.05820 0.76840 0.56840 -0.03200
C 	C 	0.04210 0.68890 0.59001 -0.14100
H 	H 	0.05650 0.67090 0.56430 0.07100
C 	C 	0.02040 0.65680 0.62553 0.05400
Cu	Cu	0.76417 0.63977 0.87855 0.82200
N 	N 	0.71220 0.59458 0.83270 -0.26000
N 	N 	0.56290 0.41173 0.67158 -0.26100
N 	N 	0.77080 0.72358 0.87830 -0.26600
C 	C 	0.67340 0.54870 0.84353 0.07900
H 	H 	0.66640 0.54100 0.87320 -0.04200
C 	C 	0.64360 0.51250 0.81369 -0.16100
H 	H 	0.61780 0.48090 0.82330 0.07900
C 	C 	0.71910 0.60490 0.78978 0.08800
H 	H 	0.74450 0.63720 0.78130 -0.02700
C 	C 	0.69100 0.57090 0.75754 -0.14900
H 	H 	0.69810 0.58000 0.72810 0.07700
C 	C 	0.65160 0.52260 0.76906 0.06500
C 	C 	0.62050 0.48490 0.73525 0.04200
C 	C 	0.59580 0.50540 0.69545 -0.13600
H 	H 	0.59800 0.54430 0.68930 0.06900
C 	C 	0.56790 0.46850 0.66521 0.05900
H 	H 	0.55160 0.48340 0.63870 -0.01600
C 	C 	0.61440 0.42590 0.74255 -0.13200
H 	H 	0.62910 0.41020 0.76910 0.06700
C 	C 	0.58640 0.39150 0.71031 0.04600
H 	H 	0.58360 0.35230 0.71550 -0.02900
C 	C 	0.75010 0.75460 0.91292 0.07300
H 	H 	0.73560 0.73560 0.93820 -0.03700
C 	C 	0.74940 0.81370 0.91277 -0.14500
H 	H 	0.73490 0.83360 0.93770 0.06900
C 	C 	0.79230 0.75240 0.84255 0.07400
H 	H 	0.80820 0.73160 0.81840 -0.03200
C 	C 	0.79210 0.81110 0.84001 -0.14200
H 	H 	0.80650 0.82910 0.81430 0.07100
C 	C 	0.77040 0.84320 0.87553 0.05400
Cu	Cu	0.76417 0.13977 0.37855 0.82200
N 	N 	0.71220 0.09458 0.33270 -0.26000
N 	N 	0.56290 0.91173 0.17158 -0.26200
N 	N 	0.77080 0.22358 0.37830 -0.26600
C 	C 	0.67340 0.04870 0.34353 0.07900
H 	H 	0.66640 0.04100 0.37320 -0.04200
C 	C 	0.64360 0.01250 0.31369 -0.16100
H 	H 	0.61780 0.98090 0.32330 0.08000
C 	C 	0.71910 0.10490 0.28978 0.08800
H 	H 	0.74450 0.13720 0.28130 -0.02700
C 	C 	0.69100 0.07090 0.25754 -0.14900
H 	H 	0.69810 0.08000 0.22810 0.07700
C 	C 	0.65160 0.02260 0.26906 0.06400
C 	C 	0.62050 0.98490 0.23525 0.04300
C 	C 	0.59580 0.00540 0.19545 -0.13800
H 	H 	0.59800 0.04430 0.18930 0.06900
C 	C 	0.56790 0.96850 0.16521 0.06000
H 	H 	0.55160 0.98340 0.13870 -0.01700
C 	C 	0.61440 0.92590 0.24255 -0.13300
H 	H 	0.62910 0.91020 0.26910 0.06800
C 	C 	0.58640 0.89150 0.21031 0.04700
H 	H 	0.58360 0.85230 0.21550 -0.02900
C 	C 	0.75010 0.25460 0.41292 0.07300
H 	H 	0.73560 0.23560 0.43820 -0.03600
C 	C 	0.74940 0.31370 0.41277 -0.14500
H 	H 	0.73490 0.33360 0.43770 0.06900
C 	C 	0.79230 0.25240 0.34255 0.07400
H 	H 	0.80820 0.23160 0.31840 -0.03200
C 	C 	0.79210 0.31110 0.34001 -0.14200
H 	H 	0.80650 0.32910 0.31430 0.07100
C 	C 	0.77040 0.34320 0.37553 0.05500
Cu	Cu	0.26417 0.63977 0.37855 0.82200
N 	N 	0.21220 0.59458 0.33270 -0.26000
N 	N 	0.06290 0.41173 0.17158 -0.26100
N 	N 	0.27080 0.72358 0.37830 -0.26700
C 	C 	0.17340 0.54870 0.34353 0.07900
H 	H 	0.16640 0.54100 0.37320 -0.04200
C 	C 	0.14360 0.51250 0.31369 -0.16100
H 	H 	0.11780 0.48090 0.32330 0.07900
C 	C 	0.21910 0.60490 0.28978 0.08800
H 	H 	0.24450 0.63720 0.28130 -0.02700
C 	C 	0.19100 0.57090 0.25754 -0.14900
H 	H 	0.19810 0.58000 0.22810 0.07700
C 	C 	0.15160 0.52260 0.26906 0.06500
C 	C 	0.12050 0.48490 0.23525 0.04200
C 	C 	0.09580 0.50540 0.19545 -0.13600
H 	H 	0.09800 0.54430 0.18930 0.06900
C 	C 	0.06790 0.46850 0.16521 0.05900
H 	H 	0.05160 0.48340 0.13870 -0.01600
C 	C 	0.11440 0.42590 0.24255 -0.13200
H 	H 	0.12910 0.41020 0.26910 0.06700
C 	C 	0.08640 0.39150 0.21031 0.04700
H 	H 	0.08360 0.35230 0.21550 -0.02900
C 	C 	0.25010 0.75460 0.41292 0.07300
H 	H 	0.23560 0.73560 0.43820 -0.03700
C 	C 	0.24940 0.81370 0.41277 -0.14500
H 	H 	0.23490 0.83360 0.43770 0.06900
C 	C 	0.29230 0.75240 0.34255 0.07400
H 	H 	0.30820 0.73160 0.31840 -0.03200
C 	C 	0.29210 0.81110 0.34001 -0.14200
H 	H 	0.30650 0.82910 0.31430 0.07100
C 	C 	0.27040 0.84320 0.37553 0.05500
Cu	Cu	0.26417 0.13977 0.87855 0.82200
N 	N 	0.21220 0.09458 0.83270 -0.26000
N 	N 	0.06290 0.91173 0.67158 -0.26100
N 	N 	0.27080 0.22358 0.87830 -0.26600
C 	C 	0.17340 0.04870 0.84353 0.07900
H 	H 	0.16640 0.04100 0.87320 -0.04200
C 	C 	0.14360 0.01250 0.81369 -0.16000
H 	H 	0.11780 0.98090 0.82330 0.07900
C 	C 	0.21910 0.10490 0.78978 0.08800
H 	H 	0.24450 0.13720 0.78130 -0.02700
C 	C 	0.19100 0.07090 0.75754 -0.15000
H 	H 	0.19810 0.08000 0.72810 0.07700
C 	C 	0.15160 0.02260 0.76906 0.06600
C 	C 	0.12050 0.98490 0.73525 0.03900
C 	C 	0.09580 0.00540 0.69545 -0.13200
H 	H 	0.09800 0.04430 0.68930 0.06800
C 	C 	0.06790 0.96850 0.66521 0.05600
H 	H 	0.05160 0.98340 0.63870 -0.01600
C 	C 	0.11440 0.92590 0.74255 -0.13000
H 	H 	0.12910 0.91020 0.76910 0.06700
C 	C 	0.08640 0.89150 0.71031 0.04500
H 	H 	0.08360 0.85230 0.71550 -0.02800
C 	C 	0.25010 0.25460 0.91292 0.07300
H 	H 	0.23560 0.23560 0.93820 -0.03600
C 	C 	0.24940 0.31370 0.91277 -0.14500
H 	H 	0.23490 0.33360 0.93770 0.06900
C 	C 	0.29230 0.25240 0.84255 0.07400
H 	H 	0.30820 0.23160 0.81840 -0.03200
C 	C 	0.29210 0.31110 0.84001 -0.14200
H 	H 	0.30650 0.32910 0.81430 0.07100
C 	C 	0.27040 0.34320 0.87553 0.05500
Cu	Cu	0.76417 0.61023 0.37145 0.82200
N 	N 	0.71220 0.65542 0.41730 -0.26000
N 	N 	0.56290 0.83827 0.57842 -0.26100
N 	N 	0.77080 0.52642 0.37170 -0.26600
C 	C 	0.67340 0.70130 0.40647 0.07900
H 	H 	0.66640 0.70900 0.37680 -0.04200
C 	C 	0.64360 0.73750 0.43631 -0.16100
H 	H 	0.61780 0.76910 0.42670 0.07900
C 	C 	0.71910 0.64510 0.46022 0.08800
H 	H 	0.74450 0.61280 0.46870 -0.02700
C 	C 	0.69100 0.67910 0.49246 -0.14900
H 	H 	0.69810 0.67000 0.52190 0.07700
C 	C 	0.65160 0.72740 0.48094 0.06500
C 	C 	0.62050 0.76510 0.51475 0.04200
C 	C 	0.59580 0.74460 0.55455 -0.13600
H 	H 	0.59800 0.70570 0.56070 0.06900
C 	C 	0.56790 0.78150 0.58479 0.05900
H 	H 	0.55160 0.76660 0.61130 -0.01600
C 	C 	0.61440 0.82410 0.50745 -0.13200
H 	H 	0.62910 0.83980 0.48090 0.06700
C 	C 	0.58640 0.85850 0.53969 0.04700
H 	H 	0.58360 0.89770 0.53450 -0.02900
C 	C 	0.75010 0.49540 0.33708 0.07300
H 	H 	0.73560 0.51440 0.31180 -0.03600
C 	C 	0.74940 0.43630 0.33723 -0.14500
H 	H 	0.73490 0.41640 0.31230 0.06900
C 	C 	0.79230 0.49760 0.40745 0.07400
H 	H 	0.80820 0.51840 0.43160 -0.03200
C 	C 	0.79210 0.43890 0.40999 -0.14200
H 	H 	0.80650 0.42090 0.43570 0.07100
C 	C 	0.77040 0.40680 0.37447 0.05500
Cu	Cu	0.76417 0.11023 0.87145 0.82200
N 	N 	0.71220 0.15542 0.91730 -0.26000
N 	N 	0.56290 0.33827 0.07842 -0.26100
N 	N 	0.77080 0.02642 0.87170 -0.26700
C 	C 	0.67340 0.20130 0.90647 0.07900
H 	H 	0.66640 0.20900 0.87680 -0.04200
C 	C 	0.64360 0.23750 0.93631 -0.16100
H 	H 	0.61780 0.26910 0.92670 0.07900
C 	C 	0.71910 0.14510 0.96022 0.08800
H 	H 	0.74450 0.11280 0.96870 -0.02700
C 	C 	0.69100 0.17910 0.99246 -0.14900
H 	H 	0.69810 0.17000 0.02190 0.07700
C 	C 	0.65160 0.22740 0.98094 0.06500
C 	C 	0.62050 0.26510 0.01475 0.04200
C 	C 	0.59580 0.24460 0.05455 -0.13500
H 	H 	0.59800 0.20570 0.06070 0.06900
C 	C 	0.56790 0.28150 0.08479 0.05800
H 	H 	0.55160 0.26660 0.11130 -0.01600
C 	C 	0.61440 0.32410 0.00745 -0.13200
H 	H 	0.62910 0.33980 0.98090 0.06700
C 	C 	0.58640 0.35850 0.03969 0.04600
H 	H 	0.58360 0.39770 0.03450 -0.02900
C 	C 	0.75010 0.99540 0.83708 0.07300
H 	H 	0.73560 0.01440 0.81180 -0.03700
C 	C 	0.74940 0.93630 0.83723 -0.14600
H 	H 	0.73490 0.91640 0.81230 0.06900
C 	C 	0.79230 0.99760 0.90745 0.07400
H 	H 	0.80820 0.01840 0.93160 -0.03300
C 	C 	0.79210 0.93890 0.90999 -0.14200
H 	H 	0.80650 0.92090 0.93570 0.07100
C 	C 	0.77040 0.90680 0.87447 0.05500
Cu	Cu	0.26417 0.61023 0.87145 0.82200
N 	N 	0.21220 0.65542 0.91730 -0.26000
N 	N 	0.06290 0.83827 0.07842 -0.26200
N 	N 	0.27080 0.52642 0.87170 -0.26600
C 	C 	0.17340 0.70130 0.90647 0.07900
H 	H 	0.16640 0.70900 0.87680 -0.04200
C 	C 	0.14360 0.73750 0.93631 -0.16100
H 	H 	0.11780 0.76910 0.92670 0.07900
C 	C 	0.21910 0.64510 0.96022 0.08800
H 	H 	0.24450 0.61280 0.96870 -0.02700
C 	C 	0.19100 0.67910 0.99246 -0.14900
H 	H 	0.19810 0.67000 0.02190 0.07600
C 	C 	0.15160 0.72740 0.98094 0.06500
C 	C 	0.12050 0.76510 0.01475 0.04200
C 	C 	0.09580 0.74460 0.05455 -0.13600
H 	H 	0.09800 0.70570 0.06070 0.06900
C 	C 	0.06790 0.78150 0.08479 0.05900
H 	H 	0.05160 0.76660 0.11130 -0.01600
C 	C 	0.11440 0.82410 0.00745 -0.13300
H 	H 	0.12910 0.83980 0.98090 0.06800
C 	C 	0.08640 0.85850 0.03969 0.04700
H 	H 	0.08360 0.89770 0.03450 -0.02900
C 	C 	0.25010 0.49540 0.83708 0.07300
H 	H 	0.23560 0.51440 0.81180 -0.03600
C 	C 	0.24940 0.43630 0.83723 -0.14500
H 	H 	0.23490 0.41640 0.81230 0.06900
C 	C 	0.29230 0.49760 0.90745 0.07400
H 	H 	0.30820 0.51840 0.93160 -0.03200
C 	C 	0.29210 0.43890 0.90999 -0.14200
H 	H 	0.30650 0.42090 0.93570 0.07100
C 	C 	0.27040 0.40680 0.87447 0.05500
Cu	Cu	0.26417 0.11023 0.37145 0.82200
N 	N 	0.21220 0.15542 0.41730 -0.26000
N 	N 	0.06290 0.33827 0.57842 -0.26100
N 	N 	0.27080 0.02642 0.37170 -0.26600
C 	C 	0.17340 0.20130 0.40647 0.07900
H 	H 	0.16640 0.20900 0.37680 -0.04200
C 	C 	0.14360 0.23750 0.43631 -0.16100
H 	H 	0.11780 0.26910 0.42670 0.07900
C 	C 	0.21910 0.14510 0.46022 0.08800
H 	H 	0.24450 0.11280 0.46870 -0.02700
C 	C 	0.19100 0.17910 0.49246 -0.14900
H 	H 	0.19810 0.17000 0.52190 0.07700
C 	C 	0.15160 0.22740 0.48094 0.06500
C 	C 	0.12050 0.26510 0.51475 0.04200
C 	C 	0.09580 0.24460 0.55455 -0.13600
H 	H 	0.09800 0.20570 0.56070 0.06900
C 	C 	0.06790 0.28150 0.58479 0.05900
H 	H 	0.05160 0.26660 0.61130 -0.01600
C 	C 	0.11440 0.32410 0.50745 -0.13200
H 	H 	0.12910 0.33980 0.48090 0.06700
C 	C 	0.08640 0.35850 0.53969 0.04700
H 	H 	0.08360 0.39770 0.53450 -0.02900
C 	C 	0.25010 0.99540 0.33708 0.07100
H 	H 	0.23560 0.01440 0.31180 -0.03600
C 	C 	0.24940 0.93630 0.33723 -0.14400
H 	H 	0.23490 0.91640 0.31230 0.06900
C 	C 	0.29230 0.99760 0.40745 0.07200
H 	H 	0.30820 0.01840 0.43160 -0.03200
C 	C 	0.29210 0.93890 0.40999 -0.14100
H 	H 	0.30650 0.92090 0.43570 0.07000
C 	C 	0.27040 0.90680 0.37447 0.05400
