data_crystal

_cell_length_a 18.74700
_cell_length_b 23.35500
_cell_length_c 30.40400
_cell_angle_alpha 90.00000
_cell_angle_beta  90.00000
_cell_angle_gamma 90.00000

_symmetry_space_group_name_	'P 1'
_symmetry_space_group_name_H-M	'P 1'

loop_
_symmetry_equiv_pos_as_xyz
  x,y,z

loop_
_atom_site_label
_atom_site_type_symbol
_atom_site_fract_x
_atom_site_fract_y
_atom_site_fract_z
_atom_site_charge
Cu	Cu	0.51418 0.38975 0.12143 0.82300
N 	N 	0.52065 0.47349 0.12170 -0.26500
N 	N 	0.46219 0.34458 0.16732 -0.25700
N 	N 	0.31272 0.16160 0.32837 -0.26200
C 	C 	0.54213 0.50213 0.15739 0.07300
H 	H 	0.55790 0.48130 0.18160 -0.03100
C 	C 	0.54201 0.56136 0.16007 -0.13800
H 	H 	0.55650 0.57950 0.18580 0.07100
C 	C 	0.52038 0.59318 0.12440 0.05500
C 	C 	0.49930 0.56371 0.08695 -0.14400
H 	H 	0.48490 0.58360 0.06200 0.06900
C 	C 	0.49982 0.50469 0.08705 0.07200
H 	H 	0.48500 0.48560 0.06180 -0.03600
C 	C 	0.46957 0.35530 0.21029 0.08300
H 	H 	0.49540 0.38750 0.21880 -0.02600
C 	C 	0.42367 0.29865 0.15625 0.07600
H 	H 	0.41700 0.29100 0.12650 -0.04100
C 	C 	0.44084 0.32112 0.24258 -0.14400
H 	H 	0.44760 0.33020 0.27210 0.07500
C 	C 	0.39353 0.26227 0.18631 -0.15700
H 	H 	0.36770 0.23060 0.17690 0.07800
C 	C 	0.40175 0.27295 0.23094 0.06200
C 	C 	0.37050 0.23469 0.26458 0.04500
C 	C 	0.34628 0.25540 0.30453 -0.13600
H 	H 	0.34930 0.29430 0.31080 0.06900
C 	C 	0.36441 0.17610 0.25736 -0.13600
H 	H 	0.37940 0.16020 0.23090 0.06900
C 	C 	0.33609 0.14174 0.28974 0.05100
H 	H 	0.33310 0.10260 0.28450 -0.03000
C 	C 	0.31778 0.21821 0.33490 0.05800
H 	H 	0.30110 0.23310 0.36130 -0.01600
Cu	Cu	0.51418 0.88975 0.62143 0.82200
N 	N 	0.52065 0.97349 0.62170 -0.26600
N 	N 	0.46219 0.84458 0.66732 -0.25800
N 	N 	0.31272 0.66160 0.82837 -0.26300
C 	C 	0.54213 0.00213 0.65739 0.07200
H 	H 	0.55790 0.98130 0.68160 -0.03200
C 	C 	0.54201 0.06136 0.66007 -0.13900
H 	H 	0.55650 0.07950 0.68580 0.07000
C 	C 	0.52038 0.09318 0.62440 0.05400
C 	C 	0.49930 0.06371 0.58695 -0.14500
H 	H 	0.48490 0.08360 0.56200 0.06900
C 	C 	0.49982 0.00469 0.58705 0.07200
H 	H 	0.48500 0.98560 0.56180 -0.03600
C 	C 	0.46957 0.85530 0.71029 0.08300
H 	H 	0.49540 0.88750 0.71880 -0.02600
C 	C 	0.42367 0.79865 0.65625 0.07600
H 	H 	0.41700 0.79100 0.62650 -0.04100
C 	C 	0.44084 0.82112 0.74258 -0.14400
H 	H 	0.44760 0.83020 0.77210 0.07500
C 	C 	0.39353 0.76227 0.68631 -0.15700
H 	H 	0.36770 0.73060 0.67690 0.07800
C 	C 	0.40175 0.77295 0.73094 0.06200
C 	C 	0.37050 0.73469 0.76458 0.04500
C 	C 	0.34628 0.75540 0.80453 -0.13600
H 	H 	0.34930 0.79430 0.81080 0.06900
C 	C 	0.36441 0.67610 0.75736 -0.13600
H 	H 	0.37940 0.66020 0.73090 0.06900
C 	C 	0.33609 0.64174 0.78974 0.05100
H 	H 	0.33310 0.60260 0.78450 -0.03000
C 	C 	0.31778 0.71821 0.83490 0.05800
H 	H 	0.30110 0.73310 0.86130 -0.01600
Cu	Cu	0.01418 0.38975 0.62143 0.82300
N 	N 	0.02065 0.47349 0.62170 -0.26600
N 	N 	0.96219 0.34458 0.66732 -0.25800
N 	N 	0.81272 0.16160 0.82837 -0.26300
C 	C 	0.04213 0.50213 0.65739 0.07200
H 	H 	0.05790 0.48130 0.68160 -0.03200
C 	C 	0.04201 0.56136 0.66007 -0.13900
H 	H 	0.05650 0.57950 0.68580 0.07000
C 	C 	0.02038 0.59318 0.62440 0.05400
C 	C 	0.99930 0.56371 0.58695 -0.14500
H 	H 	0.98490 0.58360 0.56200 0.06900
C 	C 	0.99982 0.50469 0.58705 0.07200
H 	H 	0.98500 0.48560 0.56180 -0.03600
C 	C 	0.96957 0.35530 0.71029 0.08300
H 	H 	0.99540 0.38750 0.71880 -0.02600
C 	C 	0.92367 0.29865 0.65625 0.07600
H 	H 	0.91700 0.29100 0.62650 -0.04100
C 	C 	0.94084 0.32112 0.74258 -0.14400
H 	H 	0.94760 0.33020 0.77210 0.07500
C 	C 	0.89353 0.26227 0.68631 -0.15700
H 	H 	0.86770 0.23060 0.67690 0.07800
C 	C 	0.90175 0.27295 0.73094 0.06200
C 	C 	0.87050 0.23469 0.76458 0.04500
C 	C 	0.84628 0.25540 0.80453 -0.13600
H 	H 	0.84930 0.29430 0.81080 0.06900
C 	C 	0.86441 0.17610 0.75736 -0.13600
H 	H 	0.87940 0.16020 0.73090 0.06900
C 	C 	0.83609 0.14174 0.78974 0.05100
H 	H 	0.83310 0.10260 0.78450 -0.03000
C 	C 	0.81778 0.21821 0.83490 0.05800
H 	H 	0.80110 0.23310 0.86130 -0.01600
Cu	Cu	0.01418 0.88975 0.12143 0.82200
N 	N 	0.02065 0.97349 0.12170 -0.26700
N 	N 	0.96219 0.84458 0.16732 -0.25800
N 	N 	0.81272 0.66160 0.32837 -0.26300
C 	C 	0.04213 0.00213 0.15739 0.07400
H 	H 	0.05790 0.98130 0.18160 -0.03300
C 	C 	0.04201 0.06136 0.16007 -0.14000
H 	H 	0.05650 0.07950 0.18580 0.07100
C 	C 	0.02038 0.09318 0.12440 0.05500
C 	C 	0.99930 0.06371 0.08695 -0.14400
H 	H 	0.98490 0.08360 0.06200 0.06900
C 	C 	0.99982 0.00469 0.08705 0.07000
H 	H 	0.98500 0.98560 0.06180 -0.03400
C 	C 	0.96957 0.85530 0.21029 0.08300
H 	H 	0.99540 0.88750 0.21880 -0.02500
C 	C 	0.92367 0.79865 0.15625 0.07600
H 	H 	0.91700 0.79100 0.12650 -0.04000
C 	C 	0.94084 0.82112 0.24258 -0.14400
H 	H 	0.94760 0.83020 0.27210 0.07500
C 	C 	0.89353 0.76227 0.18631 -0.15700
H 	H 	0.86770 0.73060 0.17690 0.07800
C 	C 	0.90175 0.77295 0.23094 0.06200
C 	C 	0.87050 0.73469 0.26458 0.04500
C 	C 	0.84628 0.75540 0.30453 -0.13600
H 	H 	0.84930 0.79430 0.31080 0.06900
C 	C 	0.86441 0.67610 0.25736 -0.13600
H 	H 	0.87940 0.66020 0.23090 0.06900
C 	C 	0.83609 0.64174 0.28974 0.05100
H 	H 	0.83310 0.60260 0.28450 -0.03000
C 	C 	0.81778 0.71821 0.33490 0.05800
H 	H 	0.80110 0.73310 0.36130 -0.01600
Cu	Cu	0.51418 0.36025 0.62857 0.82200
N 	N 	0.52065 0.27651 0.62830 -0.26600
N 	N 	0.46219 0.40542 0.58268 -0.25800
N 	N 	0.31272 0.58840 0.42163 -0.26300
C 	C 	0.54213 0.24787 0.59261 0.07200
H 	H 	0.55790 0.26870 0.56840 -0.03200
C 	C 	0.54201 0.18864 0.58993 -0.13900
H 	H 	0.55650 0.17050 0.56420 0.07000
C 	C 	0.52038 0.15682 0.62560 0.05400
C 	C 	0.49930 0.18629 0.66305 -0.14500
H 	H 	0.48490 0.16640 0.68800 0.06900
C 	C 	0.49982 0.24531 0.66295 0.07200
H 	H 	0.48500 0.26440 0.68820 -0.03600
C 	C 	0.46957 0.39470 0.53971 0.08300
H 	H 	0.49540 0.36250 0.53120 -0.02600
C 	C 	0.42367 0.45135 0.59375 0.07600
H 	H 	0.41700 0.45900 0.62350 -0.04100
C 	C 	0.44084 0.42888 0.50742 -0.14400
H 	H 	0.44760 0.41980 0.47790 0.07500
C 	C 	0.39353 0.48773 0.56369 -0.15700
H 	H 	0.36770 0.51940 0.57310 0.07800
C 	C 	0.40175 0.47705 0.51906 0.06200
C 	C 	0.37050 0.51531 0.48542 0.04500
C 	C 	0.34628 0.49460 0.44547 -0.13600
H 	H 	0.34930 0.45570 0.43920 0.06900
C 	C 	0.36441 0.57390 0.49264 -0.13600
H 	H 	0.37940 0.58980 0.51910 0.06900
C 	C 	0.33609 0.60826 0.46026 0.05100
H 	H 	0.33310 0.64740 0.46550 -0.03000
C 	C 	0.31778 0.53179 0.41510 0.05800
H 	H 	0.30110 0.51690 0.38870 -0.01600
Cu	Cu	0.51418 0.86025 0.12857 0.82200
N 	N 	0.52065 0.77651 0.12830 -0.26600
N 	N 	0.46219 0.90542 0.08268 -0.25800
N 	N 	0.31272 0.08840 0.92163 -0.26300
C 	C 	0.54213 0.74787 0.09261 0.07200
H 	H 	0.55790 0.76870 0.06840 -0.03200
C 	C 	0.54201 0.68864 0.08993 -0.13900
H 	H 	0.55650 0.67050 0.06420 0.07000
C 	C 	0.52038 0.65682 0.12560 0.05400
C 	C 	0.49930 0.68629 0.16305 -0.14500
H 	H 	0.48490 0.66640 0.18800 0.06900
C 	C 	0.49982 0.74531 0.16295 0.07200
H 	H 	0.48500 0.76440 0.18820 -0.03600
C 	C 	0.46957 0.89470 0.03971 0.08200
H 	H 	0.49540 0.86250 0.03120 -0.02500
C 	C 	0.42367 0.95135 0.09375 0.07600
H 	H 	0.41700 0.95900 0.12350 -0.04100
C 	C 	0.44084 0.92888 0.00742 -0.14300
H 	H 	0.44760 0.91980 0.97790 0.07400
C 	C 	0.39353 0.98773 0.06369 -0.15700
H 	H 	0.36770 0.01940 0.07310 0.07800
C 	C 	0.40175 0.97705 0.01906 0.06100
C 	C 	0.37050 0.01531 0.98542 0.04700
C 	C 	0.34628 0.99460 0.94547 -0.13900
H 	H 	0.34930 0.95570 0.93920 0.06900
C 	C 	0.36441 0.07390 0.99264 -0.13600
H 	H 	0.37940 0.08980 0.01910 0.06900
C 	C 	0.33609 0.10826 0.96026 0.05100
H 	H 	0.33310 0.14740 0.96550 -0.03000
C 	C 	0.31778 0.03179 0.91510 0.06000
H 	H 	0.30110 0.01690 0.88870 -0.01700
Cu	Cu	0.01418 0.36025 0.12857 0.82200
N 	N 	0.02065 0.27651 0.12830 -0.26600
N 	N 	0.96219 0.40542 0.08268 -0.25800
N 	N 	0.81272 0.58840 0.92163 -0.26300
C 	C 	0.04213 0.24787 0.09261 0.07200
H 	H 	0.05790 0.26870 0.06840 -0.03200
C 	C 	0.04201 0.18864 0.08993 -0.13900
H 	H 	0.05650 0.17050 0.06420 0.07000
C 	C 	0.02038 0.15682 0.12560 0.05400
C 	C 	0.99930 0.18629 0.16305 -0.14500
H 	H 	0.98490 0.16640 0.18800 0.06900
C 	C 	0.99982 0.24531 0.16295 0.07200
H 	H 	0.98500 0.26440 0.18820 -0.03600
C 	C 	0.96957 0.39470 0.03971 0.08200
H 	H 	0.99540 0.36250 0.03120 -0.02500
C 	C 	0.92367 0.45135 0.09375 0.07600
H 	H 	0.91700 0.45900 0.12350 -0.04100
C 	C 	0.94084 0.42888 0.00742 -0.14400
H 	H 	0.94760 0.41980 0.97790 0.07400
C 	C 	0.89353 0.48773 0.06369 -0.15700
H 	H 	0.86770 0.51940 0.07310 0.07800
C 	C 	0.90175 0.47705 0.01906 0.06200
C 	C 	0.87050 0.51531 0.98542 0.04500
C 	C 	0.84628 0.49460 0.94547 -0.13600
H 	H 	0.84930 0.45570 0.93920 0.06900
C 	C 	0.86441 0.57390 0.99264 -0.13700
H 	H 	0.87940 0.58980 0.01910 0.06900
C 	C 	0.83609 0.60826 0.96026 0.05100
H 	H 	0.83310 0.64740 0.96550 -0.03100
C 	C 	0.81778 0.53179 0.91510 0.05800
H 	H 	0.80110 0.51690 0.88870 -0.01600
Cu	Cu	0.01418 0.86025 0.62857 0.82200
N 	N 	0.02065 0.77651 0.62830 -0.26700
N 	N 	0.96219 0.90542 0.58268 -0.25800
N 	N 	0.81272 0.08840 0.42163 -0.26200
C 	C 	0.04213 0.74787 0.59261 0.07200
H 	H 	0.05790 0.76870 0.56840 -0.03200
C 	C 	0.04201 0.68864 0.58993 -0.13900
H 	H 	0.05650 0.67050 0.56420 0.07000
C 	C 	0.02038 0.65682 0.62560 0.05400
C 	C 	0.99930 0.68629 0.66305 -0.14500
H 	H 	0.98490 0.66640 0.68800 0.06900
C 	C 	0.99982 0.74531 0.66295 0.07300
H 	H 	0.98500 0.76440 0.68820 -0.03600
C 	C 	0.96957 0.89470 0.53971 0.08300
H 	H 	0.99540 0.86250 0.53120 -0.02500
C 	C 	0.92367 0.95135 0.59375 0.07600
H 	H 	0.91700 0.95900 0.62350 -0.04000
C 	C 	0.94084 0.92888 0.50742 -0.14500
H 	H 	0.94760 0.91980 0.47790 0.07600
C 	C 	0.89353 0.98773 0.56369 -0.15700
H 	H 	0.86770 0.01940 0.57310 0.07800
C 	C 	0.90175 0.97705 0.51906 0.06400
C 	C 	0.87050 0.01531 0.48542 0.04200
C 	C 	0.84628 0.99460 0.44547 -0.13200
H 	H 	0.84930 0.95570 0.43920 0.06700
C 	C 	0.86441 0.07390 0.49264 -0.13400
H 	H 	0.87940 0.08980 0.51910 0.06800
C 	C 	0.83609 0.10826 0.46026 0.04900
H 	H 	0.83310 0.14740 0.46550 -0.03000
C 	C 	0.81778 0.03179 0.41510 0.05600
H 	H 	0.80110 0.01690 0.38870 -0.01600
Cu	Cu	0.76418 0.63975 0.87857 0.82200
N 	N 	0.77065 0.72349 0.87830 -0.26600
N 	N 	0.71219 0.59458 0.83268 -0.25800
N 	N 	0.56272 0.41160 0.67163 -0.26300
C 	C 	0.79213 0.75213 0.84261 0.07200
H 	H 	0.80790 0.73130 0.81840 -0.03200
C 	C 	0.79201 0.81136 0.83993 -0.13900
H 	H 	0.80650 0.82950 0.81420 0.07000
C 	C 	0.77038 0.84318 0.87560 0.05400
C 	C 	0.74930 0.81371 0.91305 -0.14500
H 	H 	0.73490 0.83360 0.93800 0.06900
C 	C 	0.74982 0.75469 0.91295 0.07200
H 	H 	0.73500 0.73560 0.93820 -0.03600
C 	C 	0.71957 0.60530 0.78971 0.08300
H 	H 	0.74540 0.63750 0.78120 -0.02600
C 	C 	0.67367 0.54865 0.84375 0.07600
H 	H 	0.66700 0.54100 0.87350 -0.04100
C 	C 	0.69084 0.57112 0.75742 -0.14400
H 	H 	0.69760 0.58020 0.72790 0.07500
C 	C 	0.64353 0.51227 0.81369 -0.15700
H 	H 	0.61770 0.48060 0.82310 0.07800
C 	C 	0.65175 0.52295 0.76906 0.06200
C 	C 	0.62050 0.48469 0.73542 0.04500
C 	C 	0.59628 0.50540 0.69547 -0.13600
H 	H 	0.59930 0.54430 0.68920 0.06900
C 	C 	0.61441 0.42610 0.74264 -0.13600
H 	H 	0.62940 0.41020 0.76910 0.06900
C 	C 	0.58609 0.39174 0.71026 0.05100
H 	H 	0.58310 0.35260 0.71550 -0.03000
C 	C 	0.56778 0.46821 0.66510 0.05800
H 	H 	0.55110 0.48310 0.63870 -0.01600
Cu	Cu	0.76418 0.13975 0.37857 0.82200
N 	N 	0.77065 0.22349 0.37830 -0.26600
N 	N 	0.71219 0.09458 0.33268 -0.25800
N 	N 	0.56272 0.91160 0.17163 -0.26300
C 	C 	0.79213 0.25213 0.34261 0.07200
H 	H 	0.80790 0.23130 0.31840 -0.03200
C 	C 	0.79201 0.31136 0.33993 -0.13900
H 	H 	0.80650 0.32950 0.31420 0.07000
C 	C 	0.77038 0.34318 0.37560 0.05400
C 	C 	0.74930 0.31371 0.41305 -0.14500
H 	H 	0.73490 0.33360 0.43800 0.06900
C 	C 	0.74982 0.25469 0.41295 0.07200
H 	H 	0.73500 0.23560 0.43820 -0.03600
C 	C 	0.71957 0.10530 0.28971 0.08200
H 	H 	0.74540 0.13750 0.28120 -0.02500
C 	C 	0.67367 0.04865 0.34375 0.07600
H 	H 	0.66700 0.04100 0.37350 -0.04100
C 	C 	0.69084 0.07112 0.25742 -0.14400
H 	H 	0.69760 0.08020 0.22790 0.07500
C 	C 	0.64353 0.01227 0.31369 -0.15800
H 	H 	0.61770 0.98060 0.32310 0.07900
C 	C 	0.65175 0.02295 0.26906 0.06100
C 	C 	0.62050 0.98469 0.23542 0.04600
C 	C 	0.59628 0.00540 0.19547 -0.13800
H 	H 	0.59930 0.04430 0.18920 0.06900
C 	C 	0.61441 0.92610 0.24264 -0.13600
H 	H 	0.62940 0.91020 0.26910 0.06900
C 	C 	0.58609 0.89174 0.21026 0.05100
H 	H 	0.58310 0.85260 0.21550 -0.03100
C 	C 	0.56778 0.96821 0.16510 0.05900
H 	H 	0.55110 0.98310 0.13870 -0.01700
Cu	Cu	0.26418 0.63975 0.37857 0.82200
N 	N 	0.27065 0.72349 0.37830 -0.26600
N 	N 	0.21219 0.59458 0.33268 -0.25800
N 	N 	0.06272 0.41160 0.17163 -0.26300
C 	C 	0.29213 0.75213 0.34261 0.07200
H 	H 	0.30790 0.73130 0.31840 -0.03200
C 	C 	0.29201 0.81136 0.33993 -0.14000
H 	H 	0.30650 0.82950 0.31420 0.07000
C 	C 	0.27038 0.84318 0.37560 0.05400
C 	C 	0.24930 0.81371 0.41305 -0.14500
H 	H 	0.23490 0.83360 0.43800 0.06900
C 	C 	0.24982 0.75469 0.41295 0.07200
H 	H 	0.23500 0.73560 0.43820 -0.03600
C 	C 	0.21957 0.60530 0.28971 0.08300
H 	H 	0.24540 0.63750 0.28120 -0.02600
C 	C 	0.17367 0.54865 0.34375 0.07600
H 	H 	0.16700 0.54100 0.37350 -0.04100
C 	C 	0.19084 0.57112 0.25742 -0.14400
H 	H 	0.19760 0.58020 0.22790 0.07500
C 	C 	0.14353 0.51227 0.31369 -0.15700
H 	H 	0.11770 0.48060 0.32310 0.07800
C 	C 	0.15175 0.52295 0.26906 0.06200
C 	C 	0.12050 0.48469 0.23542 0.04500
C 	C 	0.09628 0.50540 0.19547 -0.13600
H 	H 	0.09930 0.54430 0.18920 0.06900
C 	C 	0.11441 0.42610 0.24264 -0.13600
H 	H 	0.12940 0.41020 0.26910 0.06900
C 	C 	0.08609 0.39174 0.21026 0.05100
H 	H 	0.08310 0.35260 0.21550 -0.03000
C 	C 	0.06778 0.46821 0.16510 0.05800
H 	H 	0.05110 0.48310 0.13870 -0.01600
Cu	Cu	0.26418 0.13975 0.87857 0.82200
N 	N 	0.27065 0.22349 0.87830 -0.26600
N 	N 	0.21219 0.09458 0.83268 -0.25800
N 	N 	0.06272 0.91160 0.67163 -0.26200
C 	C 	0.29213 0.25213 0.84261 0.07200
H 	H 	0.30790 0.23130 0.81840 -0.03200
C 	C 	0.29201 0.31136 0.83993 -0.13900
H 	H 	0.30650 0.32950 0.81420 0.07000
C 	C 	0.27038 0.34318 0.87560 0.05400
C 	C 	0.24930 0.31371 0.91305 -0.14500
H 	H 	0.23490 0.33360 0.93800 0.06900
C 	C 	0.24982 0.25469 0.91295 0.07200
H 	H 	0.23500 0.23560 0.93820 -0.03600
C 	C 	0.21957 0.10530 0.78971 0.08300
H 	H 	0.24540 0.13750 0.78120 -0.02600
C 	C 	0.17367 0.04865 0.84375 0.07600
H 	H 	0.16700 0.04100 0.87350 -0.04000
C 	C 	0.19084 0.07112 0.75742 -0.14500
H 	H 	0.19760 0.08020 0.72790 0.07500
C 	C 	0.14353 0.01227 0.81369 -0.15600
H 	H 	0.11770 0.98060 0.82310 0.07700
C 	C 	0.15175 0.02295 0.76906 0.06400
C 	C 	0.12050 0.98469 0.73542 0.04100
C 	C 	0.09628 0.00540 0.69547 -0.13100
H 	H 	0.09930 0.04430 0.68920 0.06700
C 	C 	0.11441 0.92610 0.74264 -0.13300
H 	H 	0.12940 0.91020 0.76910 0.06800
C 	C 	0.08609 0.89174 0.71026 0.04900
H 	H 	0.08310 0.85260 0.71550 -0.03000
C 	C 	0.06778 0.96821 0.66510 0.05500
H 	H 	0.05110 0.98310 0.63870 -0.01500
Cu	Cu	0.76418 0.61025 0.37143 0.82200
N 	N 	0.77065 0.52651 0.37170 -0.26600
N 	N 	0.71219 0.65542 0.41732 -0.25800
N 	N 	0.56272 0.83840 0.57837 -0.26300
C 	C 	0.79213 0.49787 0.40739 0.07200
H 	H 	0.80790 0.51870 0.43160 -0.03200
C 	C 	0.79201 0.43864 0.41007 -0.13900
H 	H 	0.80650 0.42050 0.43580 0.07000
C 	C 	0.77038 0.40682 0.37440 0.05400
C 	C 	0.74930 0.43629 0.33695 -0.14500
H 	H 	0.73490 0.41640 0.31200 0.06900
C 	C 	0.74982 0.49531 0.33705 0.07200
H 	H 	0.73500 0.51440 0.31180 -0.03600
C 	C 	0.71957 0.64470 0.46029 0.08300
H 	H 	0.74540 0.61250 0.46880 -0.02600
C 	C 	0.67367 0.70135 0.40625 0.07600
H 	H 	0.66700 0.70900 0.37650 -0.04100
C 	C 	0.69084 0.67888 0.49258 -0.14400
H 	H 	0.69760 0.66980 0.52210 0.07500
C 	C 	0.64353 0.73773 0.43631 -0.15700
H 	H 	0.61770 0.76940 0.42690 0.07800
C 	C 	0.65175 0.72705 0.48094 0.06200
C 	C 	0.62050 0.76531 0.51458 0.04500
C 	C 	0.59628 0.74460 0.55453 -0.13600
H 	H 	0.59930 0.70570 0.56080 0.06900
C 	C 	0.61441 0.82390 0.50736 -0.13600
H 	H 	0.62940 0.83980 0.48090 0.06900
C 	C 	0.58609 0.85826 0.53974 0.05100
H 	H 	0.58310 0.89740 0.53450 -0.03000
C 	C 	0.56778 0.78179 0.58490 0.05800
H 	H 	0.55110 0.76690 0.61130 -0.01600
Cu	Cu	0.76418 0.11025 0.87143 0.82200
N 	N 	0.77065 0.02651 0.87170 -0.26700
N 	N 	0.71219 0.15542 0.91732 -0.25800
N 	N 	0.56272 0.33840 0.07837 -0.26300
C 	C 	0.79213 0.99787 0.90739 0.07300
H 	H 	0.80790 0.01870 0.93160 -0.03300
C 	C 	0.79201 0.93864 0.91007 -0.14000
H 	H 	0.80650 0.92050 0.93580 0.07000
C 	C 	0.77038 0.90682 0.87440 0.05500
C 	C 	0.74930 0.93629 0.83695 -0.14600
H 	H 	0.73490 0.91640 0.81200 0.07000
C 	C 	0.74982 0.99531 0.83705 0.07300
H 	H 	0.73500 0.01440 0.81180 -0.03700
C 	C 	0.71957 0.14470 0.96029 0.08300
H 	H 	0.74540 0.11250 0.96880 -0.02600
C 	C 	0.67367 0.20135 0.90625 0.07600
H 	H 	0.66700 0.20900 0.87650 -0.04100
C 	C 	0.69084 0.17888 0.99258 -0.14500
H 	H 	0.69760 0.16980 0.02210 0.07500
C 	C 	0.64353 0.23773 0.93631 -0.15700
H 	H 	0.61770 0.26940 0.92690 0.07800
C 	C 	0.65175 0.22705 0.98094 0.06200
C 	C 	0.62050 0.26531 0.01458 0.04500
C 	C 	0.59628 0.24460 0.05453 -0.13600
H 	H 	0.59930 0.20570 0.06080 0.06800
C 	C 	0.61441 0.32390 0.00736 -0.13600
H 	H 	0.62940 0.33980 0.98090 0.06900
C 	C 	0.58609 0.35826 0.03974 0.05100
H 	H 	0.58310 0.39740 0.03450 -0.03000
C 	C 	0.56778 0.28179 0.08490 0.05800
H 	H 	0.55110 0.26690 0.11130 -0.01600
Cu	Cu	0.26418 0.61025 0.87143 0.82200
N 	N 	0.27065 0.52651 0.87170 -0.26600
N 	N 	0.21219 0.65542 0.91732 -0.25800
N 	N 	0.06272 0.83840 0.07837 -0.26300
C 	C 	0.29213 0.49787 0.90739 0.07200
H 	H 	0.30790 0.51870 0.93160 -0.03200
C 	C 	0.29201 0.43864 0.91007 -0.13900
H 	H 	0.30650 0.42050 0.93580 0.07000
C 	C 	0.27038 0.40682 0.87440 0.05400
C 	C 	0.24930 0.43629 0.83695 -0.14500
H 	H 	0.23490 0.41640 0.81200 0.06900
C 	C 	0.24982 0.49531 0.83705 0.07200
H 	H 	0.23500 0.51440 0.81180 -0.03600
C 	C 	0.21957 0.64470 0.96029 0.08300
H 	H 	0.24540 0.61250 0.96880 -0.02500
C 	C 	0.17367 0.70135 0.90625 0.07600
H 	H 	0.16700 0.70900 0.87650 -0.04100
C 	C 	0.19084 0.67888 0.99258 -0.14400
H 	H 	0.19760 0.66980 0.02210 0.07500
C 	C 	0.14353 0.73773 0.93631 -0.15700
H 	H 	0.11770 0.76940 0.92690 0.07800
C 	C 	0.15175 0.72705 0.98094 0.06200
C 	C 	0.12050 0.76531 0.01458 0.04500
C 	C 	0.09628 0.74460 0.05453 -0.13600
H 	H 	0.09930 0.70570 0.06080 0.06800
C 	C 	0.11441 0.82390 0.00736 -0.13600
H 	H 	0.12940 0.83980 0.98090 0.06900
C 	C 	0.08609 0.85826 0.03974 0.05100
H 	H 	0.08310 0.89740 0.03450 -0.03100
C 	C 	0.06778 0.78179 0.08490 0.05800
H 	H 	0.05110 0.76690 0.11130 -0.01600
Cu	Cu	0.26418 0.11025 0.37143 0.82200
N 	N 	0.27065 0.02651 0.37170 -0.26500
N 	N 	0.21219 0.15542 0.41732 -0.25800
N 	N 	0.06272 0.33840 0.57837 -0.26300
C 	C 	0.29213 0.99787 0.40739 0.07000
H 	H 	0.30790 0.01870 0.43160 -0.03100
C 	C 	0.29201 0.93864 0.41007 -0.13800
H 	H 	0.30650 0.92050 0.43580 0.06900
C 	C 	0.27038 0.90682 0.37440 0.05300
C 	C 	0.24930 0.93629 0.33695 -0.14300
H 	H 	0.23490 0.91640 0.31200 0.06900
C 	C 	0.24982 0.99531 0.33705 0.07000
H 	H 	0.23500 0.01440 0.31180 -0.03500
C 	C 	0.21957 0.14470 0.46029 0.08300
H 	H 	0.24540 0.11250 0.46880 -0.02600
C 	C 	0.17367 0.20135 0.40625 0.07600
H 	H 	0.16700 0.20900 0.37650 -0.04100
C 	C 	0.19084 0.17888 0.49258 -0.14400
H 	H 	0.19760 0.16980 0.52210 0.07500
C 	C 	0.14353 0.23773 0.43631 -0.15700
H 	H 	0.11770 0.26940 0.42690 0.07800
C 	C 	0.15175 0.22705 0.48094 0.06200
C 	C 	0.12050 0.26531 0.51458 0.04500
C 	C 	0.09628 0.24460 0.55453 -0.13600
H 	H 	0.09930 0.20570 0.56080 0.06900
C 	C 	0.11441 0.32390 0.50736 -0.13500
H 	H 	0.12940 0.33980 0.48090 0.06900
C 	C 	0.08609 0.35826 0.53974 0.05100
H 	H 	0.08310 0.39740 0.53450 -0.03000
C 	C 	0.06778 0.28179 0.58490 0.05800
H 	H 	0.05110 0.26690 0.61130 -0.01600
Cu	Cu	0.23582 0.36025 0.12143 0.82200
N 	N 	0.22935 0.27651 0.12170 -0.26600
N 	N 	0.28781 0.40542 0.16732 -0.25800
N 	N 	0.43728 0.58840 0.32837 -0.26300
C 	C 	0.20787 0.24787 0.15739 0.07200
H 	H 	0.19210 0.26870 0.18160 -0.03200
C 	C 	0.20799 0.18864 0.16007 -0.13900
H 	H 	0.19350 0.17050 0.18580 0.07000
C 	C 	0.22962 0.15682 0.12440 0.05400
C 	C 	0.25070 0.18629 0.08695 -0.14500
H 	H 	0.26510 0.16640 0.06200 0.06900
C 	C 	0.25018 0.24531 0.08705 0.07200
H 	H 	0.26500 0.26440 0.06180 -0.03600
C 	C 	0.28043 0.39470 0.21029 0.08300
H 	H 	0.25460 0.36250 0.21880 -0.02600
C 	C 	0.32633 0.45135 0.15625 0.07600
H 	H 	0.33300 0.45900 0.12650 -0.04100
C 	C 	0.30916 0.42888 0.24258 -0.14400
H 	H 	0.30240 0.41980 0.27210 0.07500
C 	C 	0.35647 0.48773 0.18631 -0.15700
H 	H 	0.38230 0.51940 0.17690 0.07800
C 	C 	0.34825 0.47705 0.23094 0.06200
C 	C 	0.37950 0.51531 0.26458 0.04500
C 	C 	0.40372 0.49460 0.30453 -0.13600
H 	H 	0.40070 0.45570 0.31080 0.06900
C 	C 	0.38559 0.57390 0.25736 -0.13600
H 	H 	0.37060 0.58980 0.23090 0.06900
C 	C 	0.41391 0.60826 0.28974 0.05100
H 	H 	0.41690 0.64740 0.28450 -0.03000
C 	C 	0.43222 0.53179 0.33490 0.05800
H 	H 	0.44890 0.51690 0.36130 -0.01600
Cu	Cu	0.23582 0.86025 0.62143 0.82200
N 	N 	0.22935 0.77651 0.62170 -0.26600
N 	N 	0.28781 0.90542 0.66732 -0.25800
N 	N 	0.43728 0.08840 0.82837 -0.26300
C 	C 	0.20787 0.74787 0.65739 0.07200
H 	H 	0.19210 0.76870 0.68160 -0.03200
C 	C 	0.20799 0.68864 0.66007 -0.13900
H 	H 	0.19350 0.67050 0.68580 0.07000
C 	C 	0.22962 0.65682 0.62440 0.05400
C 	C 	0.25070 0.68629 0.58695 -0.14500
H 	H 	0.26510 0.66640 0.56200 0.06900
C 	C 	0.25018 0.74531 0.58705 0.07200
H 	H 	0.26500 0.76440 0.56180 -0.03600
C 	C 	0.28043 0.89470 0.71029 0.08200
H 	H 	0.25460 0.86250 0.71880 -0.02500
C 	C 	0.32633 0.95135 0.65625 0.07600
H 	H 	0.33300 0.95900 0.62650 -0.04100
C 	C 	0.30916 0.92888 0.74258 -0.14400
H 	H 	0.30240 0.91980 0.77210 0.07500
C 	C 	0.35647 0.98773 0.68631 -0.15800
H 	H 	0.38230 0.01940 0.67690 0.07900
C 	C 	0.34825 0.97705 0.73094 0.06100
C 	C 	0.37950 0.01531 0.76458 0.04600
C 	C 	0.40372 0.99460 0.80453 -0.13800
H 	H 	0.40070 0.95570 0.81080 0.06900
C 	C 	0.38559 0.07390 0.75736 -0.13600
H 	H 	0.37060 0.08980 0.73090 0.06900
C 	C 	0.41391 0.10826 0.78974 0.05100
H 	H 	0.41690 0.14740 0.78450 -0.03100
C 	C 	0.43222 0.03179 0.83490 0.05900
H 	H 	0.44890 0.01690 0.86130 -0.01700
Cu	Cu	0.73582 0.36025 0.62143 0.82200
N 	N 	0.72935 0.27651 0.62170 -0.26600
N 	N 	0.78781 0.40542 0.66732 -0.25800
N 	N 	0.93728 0.58840 0.82837 -0.26300
C 	C 	0.70787 0.24787 0.65739 0.07200
H 	H 	0.69210 0.26870 0.68160 -0.03200
C 	C 	0.70799 0.18864 0.66007 -0.14000
H 	H 	0.69350 0.17050 0.68580 0.07000
C 	C 	0.72962 0.15682 0.62440 0.05400
C 	C 	0.75070 0.18629 0.58695 -0.14500
H 	H 	0.76510 0.16640 0.56200 0.06900
C 	C 	0.75018 0.24531 0.58705 0.07200
H 	H 	0.76500 0.26440 0.56180 -0.03600
C 	C 	0.78043 0.39470 0.71029 0.08300
H 	H 	0.75460 0.36250 0.71880 -0.02600
C 	C 	0.82633 0.45135 0.65625 0.07600
H 	H 	0.83300 0.45900 0.62650 -0.04100
C 	C 	0.80916 0.42888 0.74258 -0.14400
H 	H 	0.80240 0.41980 0.77210 0.07500
C 	C 	0.85647 0.48773 0.68631 -0.15700
H 	H 	0.88230 0.51940 0.67690 0.07800
C 	C 	0.84825 0.47705 0.73094 0.06200
C 	C 	0.87950 0.51531 0.76458 0.04500
C 	C 	0.90372 0.49460 0.80453 -0.13600
H 	H 	0.90070 0.45570 0.81080 0.06900
C 	C 	0.88559 0.57390 0.75736 -0.13600
H 	H 	0.87060 0.58980 0.73090 0.06900
C 	C 	0.91391 0.60826 0.78974 0.05100
H 	H 	0.91690 0.64740 0.78450 -0.03000
C 	C 	0.93222 0.53179 0.83490 0.05800
H 	H 	0.94890 0.51690 0.86130 -0.01600
Cu	Cu	0.73582 0.86025 0.12143 0.82200
N 	N 	0.72935 0.77651 0.12170 -0.26600
N 	N 	0.78781 0.90542 0.16732 -0.25800
N 	N 	0.93728 0.08840 0.32837 -0.26200
C 	C 	0.70787 0.74787 0.15739 0.07200
H 	H 	0.69210 0.76870 0.18160 -0.03200
C 	C 	0.70799 0.68864 0.16007 -0.13900
H 	H 	0.69350 0.67050 0.18580 0.07000
C 	C 	0.72962 0.65682 0.12440 0.05400
C 	C 	0.75070 0.68629 0.08695 -0.14500
H 	H 	0.76510 0.66640 0.06200 0.06900
C 	C 	0.75018 0.74531 0.08705 0.07200
H 	H 	0.76500 0.76440 0.06180 -0.03600
C 	C 	0.78043 0.89470 0.21029 0.08300
H 	H 	0.75460 0.86250 0.21880 -0.02600
C 	C 	0.82633 0.95135 0.15625 0.07600
H 	H 	0.83300 0.95900 0.12650 -0.04000
C 	C 	0.80916 0.92888 0.24258 -0.14500
H 	H 	0.80240 0.91980 0.27210 0.07500
C 	C 	0.85647 0.98773 0.18631 -0.15600
H 	H 	0.88230 0.01940 0.17690 0.07700
C 	C 	0.84825 0.97705 0.23094 0.06400
C 	C 	0.87950 0.01531 0.26458 0.04100
C 	C 	0.90372 0.99460 0.30453 -0.13100
H 	H 	0.90070 0.95570 0.31080 0.06700
C 	C 	0.88559 0.07390 0.25736 -0.13300
H 	H 	0.87060 0.08980 0.23090 0.06800
C 	C 	0.91391 0.10826 0.28974 0.04900
H 	H 	0.91690 0.14740 0.28450 -0.03000
C 	C 	0.93222 0.03179 0.33490 0.05500
H 	H 	0.94890 0.01690 0.36130 -0.01500
Cu	Cu	0.23582 0.38975 0.62857 0.82200
N 	N 	0.22935 0.47349 0.62830 -0.26600
N 	N 	0.28781 0.34458 0.58268 -0.25800
N 	N 	0.43728 0.16160 0.42163 -0.26300
C 	C 	0.20787 0.50213 0.59261 0.07200
H 	H 	0.19210 0.48130 0.56840 -0.03200
C 	C 	0.20799 0.56136 0.58993 -0.13900
H 	H 	0.19350 0.57950 0.56420 0.07000
C 	C 	0.22962 0.59318 0.62560 0.05400
C 	C 	0.25070 0.56371 0.66305 -0.14500
H 	H 	0.26510 0.58360 0.68800 0.06900
C 	C 	0.25018 0.50469 0.66295 0.07200
H 	H 	0.26500 0.48560 0.68820 -0.03600
C 	C 	0.28043 0.35530 0.53971 0.08300
H 	H 	0.25460 0.38750 0.53120 -0.02600
C 	C 	0.32633 0.29865 0.59375 0.07600
H 	H 	0.33300 0.29100 0.62350 -0.04100
C 	C 	0.30916 0.32112 0.50742 -0.14400
H 	H 	0.30240 0.33020 0.47790 0.07500
C 	C 	0.35647 0.26227 0.56369 -0.15700
H 	H 	0.38230 0.23060 0.57310 0.07800
C 	C 	0.34825 0.27295 0.51906 0.06200
C 	C 	0.37950 0.23469 0.48542 0.04500
C 	C 	0.40372 0.25540 0.44547 -0.13600
H 	H 	0.40070 0.29430 0.43920 0.06900
C 	C 	0.38559 0.17610 0.49264 -0.13600
H 	H 	0.37060 0.16020 0.51910 0.06900
C 	C 	0.41391 0.14174 0.46026 0.05100
H 	H 	0.41690 0.10260 0.46550 -0.03000
C 	C 	0.43222 0.21821 0.41510 0.05800
H 	H 	0.44890 0.23310 0.38870 -0.01600
Cu	Cu	0.23582 0.88975 0.12857 0.82200
N 	N 	0.22935 0.97349 0.12830 -0.26700
N 	N 	0.28781 0.84458 0.08268 -0.25800
N 	N 	0.43728 0.66160 0.92163 -0.26300
C 	C 	0.20787 0.00213 0.09261 0.07300
H 	H 	0.19210 0.98130 0.06840 -0.03300
C 	C 	0.20799 0.06136 0.08993 -0.14000
H 	H 	0.19350 0.07950 0.06420 0.07000
C 	C 	0.22962 0.09318 0.12560 0.05500
C 	C 	0.25070 0.06371 0.16305 -0.14600
H 	H 	0.26510 0.08360 0.18800 0.07000
C 	C 	0.25018 0.00469 0.16295 0.07300
H 	H 	0.26500 0.98560 0.18820 -0.03700
C 	C 	0.28043 0.85530 0.03971 0.08300
H 	H 	0.25460 0.88750 0.03120 -0.02600
C 	C 	0.32633 0.79865 0.09375 0.07600
H 	H 	0.33300 0.79100 0.12350 -0.04100
C 	C 	0.30916 0.82112 0.00742 -0.14500
H 	H 	0.30240 0.83020 0.97790 0.07500
C 	C 	0.35647 0.76227 0.06369 -0.15700
H 	H 	0.38230 0.73060 0.07310 0.07800
C 	C 	0.34825 0.77295 0.01906 0.06200
C 	C 	0.37950 0.73469 0.98542 0.04500
C 	C 	0.40372 0.75540 0.94547 -0.13600
H 	H 	0.40070 0.79430 0.93920 0.06800
C 	C 	0.38559 0.67610 0.99264 -0.13600
H 	H 	0.37060 0.66020 0.01910 0.06900
C 	C 	0.41391 0.64174 0.96026 0.05100
H 	H 	0.41690 0.60260 0.96550 -0.03000
C 	C 	0.43222 0.71821 0.91510 0.05800
H 	H 	0.44890 0.73310 0.88870 -0.01600
Cu	Cu	0.73582 0.38975 0.12857 0.82200
N 	N 	0.72935 0.47349 0.12830 -0.26600
N 	N 	0.78781 0.34458 0.08268 -0.25800
N 	N 	0.93728 0.16160 0.92163 -0.26300
C 	C 	0.70787 0.50213 0.09261 0.07200
H 	H 	0.69210 0.48130 0.06840 -0.03200
C 	C 	0.70799 0.56136 0.08993 -0.13900
H 	H 	0.69350 0.57950 0.06420 0.07000
C 	C 	0.72962 0.59318 0.12560 0.05400
C 	C 	0.75070 0.56371 0.16305 -0.14500
H 	H 	0.76510 0.58360 0.18800 0.06900
C 	C 	0.75018 0.50469 0.16295 0.07200
H 	H 	0.76500 0.48560 0.18820 -0.03600
C 	C 	0.78043 0.35530 0.03971 0.08300
H 	H 	0.75460 0.38750 0.03120 -0.02500
C 	C 	0.82633 0.29865 0.09375 0.07600
H 	H 	0.83300 0.29100 0.12350 -0.04100
C 	C 	0.80916 0.32112 0.00742 -0.14400
H 	H 	0.80240 0.33020 0.97790 0.07500
C 	C 	0.85647 0.26227 0.06369 -0.15700
H 	H 	0.88230 0.23060 0.07310 0.07800
C 	C 	0.84825 0.27295 0.01906 0.06200
C 	C 	0.87950 0.23469 0.98542 0.04500
C 	C 	0.90372 0.25540 0.94547 -0.13600
H 	H 	0.90070 0.29430 0.93920 0.06800
C 	C 	0.88559 0.17610 0.99264 -0.13600
H 	H 	0.87060 0.16020 0.01910 0.06900
C 	C 	0.91391 0.14174 0.96026 0.05100
H 	H 	0.91690 0.10260 0.96550 -0.03100
C 	C 	0.93222 0.21821 0.91510 0.05800
H 	H 	0.94890 0.23310 0.88870 -0.01600
Cu	Cu	0.73582 0.88975 0.62857 0.82200
N 	N 	0.72935 0.97349 0.62830 -0.26500
N 	N 	0.78781 0.84458 0.58268 -0.25800
N 	N 	0.93728 0.66160 0.42163 -0.26300
C 	C 	0.70787 0.00213 0.59261 0.07000
H 	H 	0.69210 0.98130 0.56840 -0.03100
C 	C 	0.70799 0.06136 0.58993 -0.13800
H 	H 	0.69350 0.07950 0.56420 0.06900
C 	C 	0.72962 0.09318 0.62560 0.05300
C 	C 	0.75070 0.06371 0.66305 -0.14300
H 	H 	0.76510 0.08360 0.68800 0.06900
C 	C 	0.75018 0.00469 0.66295 0.07000
H 	H 	0.76500 0.98560 0.68820 -0.03500
C 	C 	0.78043 0.85530 0.53971 0.08300
H 	H 	0.75460 0.88750 0.53120 -0.02600
C 	C 	0.82633 0.79865 0.59375 0.07600
H 	H 	0.83300 0.79100 0.62350 -0.04100
C 	C 	0.80916 0.82112 0.50742 -0.14400
H 	H 	0.80240 0.83020 0.47790 0.07500
C 	C 	0.85647 0.76227 0.56369 -0.15700
H 	H 	0.88230 0.73060 0.57310 0.07800
C 	C 	0.84825 0.77295 0.51906 0.06200
C 	C 	0.87950 0.73469 0.48542 0.04500
C 	C 	0.90372 0.75540 0.44547 -0.13600
H 	H 	0.90070 0.79430 0.43920 0.06900
C 	C 	0.88559 0.67610 0.49264 -0.13500
H 	H 	0.87060 0.66020 0.51910 0.06900
C 	C 	0.91391 0.64174 0.46026 0.05100
H 	H 	0.91690 0.60260 0.46550 -0.03000
C 	C 	0.93222 0.71821 0.41510 0.05800
H 	H 	0.94890 0.73310 0.38870 -0.01600
Cu	Cu	0.48582 0.61025 0.87857 0.82200
N 	N 	0.47935 0.52651 0.87830 -0.26600
N 	N 	0.53781 0.65542 0.83268 -0.25800
N 	N 	0.68728 0.83840 0.67163 -0.26300
C 	C 	0.45787 0.49787 0.84261 0.07200
H 	H 	0.44210 0.51870 0.81840 -0.03200
C 	C 	0.45799 0.43864 0.83993 -0.13900
H 	H 	0.44350 0.42050 0.81420 0.07000
C 	C 	0.47962 0.40682 0.87560 0.05400
C 	C 	0.50070 0.43629 0.91305 -0.14500
H 	H 	0.51510 0.41640 0.93800 0.06900
C 	C 	0.50018 0.49531 0.91295 0.07200
H 	H 	0.51500 0.51440 0.93820 -0.03600
C 	C 	0.53043 0.64470 0.78971 0.08300
H 	H 	0.50460 0.61250 0.78120 -0.02600
C 	C 	0.57633 0.70135 0.84375 0.07600
H 	H 	0.58300 0.70900 0.87350 -0.04100
C 	C 	0.55916 0.67888 0.75742 -0.14400
H 	H 	0.55240 0.66980 0.72790 0.07500
C 	C 	0.60647 0.73773 0.81369 -0.15700
H 	H 	0.63230 0.76940 0.82310 0.07800
C 	C 	0.59825 0.72705 0.76906 0.06200
C 	C 	0.62950 0.76531 0.73542 0.04500
C 	C 	0.65372 0.74460 0.69547 -0.13600
H 	H 	0.65070 0.70570 0.68920 0.06900
C 	C 	0.63559 0.82390 0.74264 -0.13600
H 	H 	0.62060 0.83980 0.76910 0.06900
C 	C 	0.66391 0.85826 0.71026 0.05100
H 	H 	0.66690 0.89740 0.71550 -0.03000
C 	C 	0.68222 0.78179 0.66510 0.05800
H 	H 	0.69890 0.76690 0.63870 -0.01600
Cu	Cu	0.48582 0.11025 0.37857 0.82200
N 	N 	0.47935 0.02651 0.37830 -0.26600
N 	N 	0.53781 0.15542 0.33268 -0.25800
N 	N 	0.68728 0.33840 0.17163 -0.26300
C 	C 	0.45787 0.99787 0.34261 0.07200
H 	H 	0.44210 0.01870 0.31840 -0.03200
C 	C 	0.45799 0.93864 0.33993 -0.13900
H 	H 	0.44350 0.92050 0.31420 0.07000
C 	C 	0.47962 0.90682 0.37560 0.05400
C 	C 	0.50070 0.93629 0.41305 -0.14500
H 	H 	0.51510 0.91640 0.43800 0.06900
C 	C 	0.50018 0.99531 0.41295 0.07200
H 	H 	0.51500 0.01440 0.43820 -0.03600
C 	C 	0.53043 0.14470 0.28971 0.08300
H 	H 	0.50460 0.11250 0.28120 -0.02600
C 	C 	0.57633 0.20135 0.34375 0.07600
H 	H 	0.58300 0.20900 0.37350 -0.04100
C 	C 	0.55916 0.17888 0.25742 -0.14400
H 	H 	0.55240 0.16980 0.22790 0.07500
C 	C 	0.60647 0.23773 0.31369 -0.15700
H 	H 	0.63230 0.26940 0.32310 0.07800
C 	C 	0.59825 0.22705 0.26906 0.06200
C 	C 	0.62950 0.26531 0.23542 0.04500
C 	C 	0.65372 0.24460 0.19547 -0.13600
H 	H 	0.65070 0.20570 0.18920 0.06900
C 	C 	0.63559 0.32390 0.24264 -0.13600
H 	H 	0.62060 0.33980 0.26910 0.06900
C 	C 	0.66391 0.35826 0.21026 0.05100
H 	H 	0.66690 0.39740 0.21550 -0.03000
C 	C 	0.68222 0.28179 0.16510 0.05800
H 	H 	0.69890 0.26690 0.13870 -0.01600
Cu	Cu	0.98582 0.61025 0.37857 0.82300
N 	N 	0.97935 0.52651 0.37830 -0.26600
N 	N 	0.03781 0.65542 0.33268 -0.25800
N 	N 	0.18728 0.83840 0.17163 -0.26300
C 	C 	0.95787 0.49787 0.34261 0.07200
H 	H 	0.94210 0.51870 0.31840 -0.03200
C 	C 	0.95799 0.43864 0.33993 -0.13900
H 	H 	0.94350 0.42050 0.31420 0.07000
C 	C 	0.97962 0.40682 0.37560 0.05400
C 	C 	0.00070 0.43629 0.41305 -0.14500
H 	H 	0.01510 0.41640 0.43800 0.06900
C 	C 	0.00018 0.49531 0.41295 0.07200
H 	H 	0.01500 0.51440 0.43820 -0.03600
C 	C 	0.03043 0.64470 0.28971 0.08300
H 	H 	0.00460 0.61250 0.28120 -0.02600
C 	C 	0.07633 0.70135 0.34375 0.07600
H 	H 	0.08300 0.70900 0.37350 -0.04100
C 	C 	0.05916 0.67888 0.25742 -0.14400
H 	H 	0.05240 0.66980 0.22790 0.07500
C 	C 	0.10647 0.73773 0.31369 -0.15700
H 	H 	0.13230 0.76940 0.32310 0.07800
C 	C 	0.09825 0.72705 0.26906 0.06200
C 	C 	0.12950 0.76531 0.23542 0.04500
C 	C 	0.15372 0.74460 0.19547 -0.13600
H 	H 	0.15070 0.70570 0.18920 0.06900
C 	C 	0.13559 0.82390 0.24264 -0.13600
H 	H 	0.12060 0.83980 0.26910 0.06900
C 	C 	0.16391 0.85826 0.21026 0.05100
H 	H 	0.16690 0.89740 0.21550 -0.03000
C 	C 	0.18222 0.78179 0.16510 0.05800
H 	H 	0.19890 0.76690 0.13870 -0.01600
Cu	Cu	0.98582 0.11025 0.87857 0.82200
N 	N 	0.97935 0.02651 0.87830 -0.26700
N 	N 	0.03781 0.15542 0.83268 -0.25800
N 	N 	0.18728 0.33840 0.67163 -0.26300
C 	C 	0.95787 0.99787 0.84261 0.07400
H 	H 	0.94210 0.01870 0.81840 -0.03300
C 	C 	0.95799 0.93864 0.83993 -0.14000
H 	H 	0.94350 0.92050 0.81420 0.07100
C 	C 	0.97962 0.90682 0.87560 0.05500
C 	C 	0.00070 0.93629 0.91305 -0.14400
H 	H 	0.01510 0.91640 0.93800 0.06900
C 	C 	0.00018 0.99531 0.91295 0.07000
H 	H 	0.01500 0.01440 0.93820 -0.03400
C 	C 	0.03043 0.14470 0.78971 0.08300
H 	H 	0.00460 0.11250 0.78120 -0.02500
C 	C 	0.07633 0.20135 0.84375 0.07600
H 	H 	0.08300 0.20900 0.87350 -0.04000
C 	C 	0.05916 0.17888 0.75742 -0.14400
H 	H 	0.05240 0.16980 0.72790 0.07500
C 	C 	0.10647 0.23773 0.81369 -0.15700
H 	H 	0.13230 0.26940 0.82310 0.07800
C 	C 	0.09825 0.22705 0.76906 0.06200
C 	C 	0.12950 0.26531 0.73542 0.04500
C 	C 	0.15372 0.24460 0.69547 -0.13600
H 	H 	0.15070 0.20570 0.68920 0.06900
C 	C 	0.13559 0.32390 0.74264 -0.13600
H 	H 	0.12060 0.33980 0.76910 0.06900
C 	C 	0.16391 0.35826 0.71026 0.05100
H 	H 	0.16690 0.39740 0.71550 -0.03000
C 	C 	0.18222 0.28179 0.66510 0.05800
H 	H 	0.19890 0.26690 0.63870 -0.01600
Cu	Cu	0.48582 0.63975 0.37143 0.82200
N 	N 	0.47935 0.72349 0.37170 -0.26600
N 	N 	0.53781 0.59458 0.41732 -0.25800
N 	N 	0.68728 0.41160 0.57837 -0.26300
C 	C 	0.45787 0.75213 0.40739 0.07200
H 	H 	0.44210 0.73130 0.43160 -0.03200
C 	C 	0.45799 0.81136 0.41007 -0.13900
H 	H 	0.44350 0.82950 0.43580 0.07000
C 	C 	0.47962 0.84318 0.37440 0.05400
C 	C 	0.50070 0.81371 0.33695 -0.14500
H 	H 	0.51510 0.83360 0.31200 0.06900
C 	C 	0.50018 0.75469 0.33705 0.07200
H 	H 	0.51500 0.73560 0.31180 -0.03600
C 	C 	0.53043 0.60530 0.46029 0.08300
H 	H 	0.50460 0.63750 0.46880 -0.02600
C 	C 	0.57633 0.54865 0.40625 0.07600
H 	H 	0.58300 0.54100 0.37650 -0.04100
C 	C 	0.55916 0.57112 0.49258 -0.14400
H 	H 	0.55240 0.58020 0.52210 0.07500
C 	C 	0.60647 0.51227 0.43631 -0.15700
H 	H 	0.63230 0.48060 0.42690 0.07800
C 	C 	0.59825 0.52295 0.48094 0.06200
C 	C 	0.62950 0.48469 0.51458 0.04500
C 	C 	0.65372 0.50540 0.55453 -0.13600
H 	H 	0.65070 0.54430 0.56080 0.06900
C 	C 	0.63559 0.42610 0.50736 -0.13600
H 	H 	0.62060 0.41020 0.48090 0.06900
C 	C 	0.66391 0.39174 0.53974 0.05100
H 	H 	0.66690 0.35260 0.53450 -0.03000
C 	C 	0.68222 0.46821 0.58490 0.05800
H 	H 	0.69890 0.48310 0.61130 -0.01600
Cu	Cu	0.48582 0.13975 0.87143 0.82200
N 	N 	0.47935 0.22349 0.87170 -0.26600
N 	N 	0.53781 0.09458 0.91732 -0.25800
N 	N 	0.68728 0.91160 0.07837 -0.26300
C 	C 	0.45787 0.25213 0.90739 0.07200
H 	H 	0.44210 0.23130 0.93160 -0.03200
C 	C 	0.45799 0.31136 0.91007 -0.13900
H 	H 	0.44350 0.32950 0.93580 0.07000
C 	C 	0.47962 0.34318 0.87440 0.05400
C 	C 	0.50070 0.31371 0.83695 -0.14500
H 	H 	0.51510 0.33360 0.81200 0.06900
C 	C 	0.50018 0.25469 0.83705 0.07200
H 	H 	0.51500 0.23560 0.81180 -0.03600
C 	C 	0.53043 0.10530 0.96029 0.08200
H 	H 	0.50460 0.13750 0.96880 -0.02500
C 	C 	0.57633 0.04865 0.90625 0.07600
H 	H 	0.58300 0.04100 0.87650 -0.04100
C 	C 	0.55916 0.07112 0.99258 -0.14300
H 	H 	0.55240 0.08020 0.02210 0.07400
C 	C 	0.60647 0.01227 0.93631 -0.15700
H 	H 	0.63230 0.98060 0.92690 0.07800
C 	C 	0.59825 0.02295 0.98094 0.06100
C 	C 	0.62950 0.98469 0.01458 0.04700
C 	C 	0.65372 0.00540 0.05453 -0.13900
H 	H 	0.65070 0.04430 0.06080 0.06900
C 	C 	0.63559 0.92610 0.00736 -0.13600
H 	H 	0.62060 0.91020 0.98090 0.06900
C 	C 	0.66391 0.89174 0.03974 0.05100
H 	H 	0.66690 0.85260 0.03450 -0.03000
C 	C 	0.68222 0.96821 0.08490 0.06000
H 	H 	0.69890 0.98310 0.11130 -0.01700
Cu	Cu	0.98582 0.63975 0.87143 0.82200
N 	N 	0.97935 0.72349 0.87170 -0.26600
N 	N 	0.03781 0.59458 0.91732 -0.25800
N 	N 	0.18728 0.41160 0.07837 -0.26300
C 	C 	0.95787 0.75213 0.90739 0.07200
H 	H 	0.94210 0.73130 0.93160 -0.03200
C 	C 	0.95799 0.81136 0.91007 -0.13900
H 	H 	0.94350 0.82950 0.93580 0.07000
C 	C 	0.97962 0.84318 0.87440 0.05400
C 	C 	0.00070 0.81371 0.83695 -0.14500
H 	H 	0.01510 0.83360 0.81200 0.06900
C 	C 	0.00018 0.75469 0.83705 0.07200
H 	H 	0.01500 0.73560 0.81180 -0.03600
C 	C 	0.03043 0.60530 0.96029 0.08200
H 	H 	0.00460 0.63750 0.96880 -0.02500
C 	C 	0.07633 0.54865 0.90625 0.07600
H 	H 	0.08300 0.54100 0.87650 -0.04100
C 	C 	0.05916 0.57112 0.99258 -0.14400
H 	H 	0.05240 0.58020 0.02210 0.07400
C 	C 	0.10647 0.51227 0.93631 -0.15700
H 	H 	0.13230 0.48060 0.92690 0.07800
C 	C 	0.09825 0.52295 0.98094 0.06200
C 	C 	0.12950 0.48469 0.01458 0.04500
C 	C 	0.15372 0.50540 0.05453 -0.13600
H 	H 	0.15070 0.54430 0.06080 0.06900
C 	C 	0.13559 0.42610 0.00736 -0.13700
H 	H 	0.12060 0.41020 0.98090 0.06900
C 	C 	0.16391 0.39174 0.03974 0.05100
H 	H 	0.16690 0.35260 0.03450 -0.03100
C 	C 	0.18222 0.46821 0.08490 0.05800
H 	H 	0.19890 0.48310 0.11130 -0.01600
Cu	Cu	0.98582 0.13975 0.37143 0.82200
N 	N 	0.97935 0.22349 0.37170 -0.26700
N 	N 	0.03781 0.09458 0.41732 -0.25800
N 	N 	0.18728 0.91160 0.57837 -0.26200
C 	C 	0.95787 0.25213 0.40739 0.07200
H 	H 	0.94210 0.23130 0.43160 -0.03200
C 	C 	0.95799 0.31136 0.41007 -0.13900
H 	H 	0.94350 0.32950 0.43580 0.07000
C 	C 	0.97962 0.34318 0.37440 0.05400
C 	C 	0.00070 0.31371 0.33695 -0.14500
H 	H 	0.01510 0.33360 0.31200 0.06900
C 	C 	0.00018 0.25469 0.33705 0.07300
H 	H 	0.01500 0.23560 0.31180 -0.03600
C 	C 	0.03043 0.10530 0.46029 0.08300
H 	H 	0.00460 0.13750 0.46880 -0.02500
C 	C 	0.07633 0.04865 0.40625 0.07600
H 	H 	0.08300 0.04100 0.37650 -0.04000
C 	C 	0.05916 0.07112 0.49258 -0.14500
H 	H 	0.05240 0.08020 0.52210 0.07600
C 	C 	0.10647 0.01227 0.43631 -0.15700
H 	H 	0.13230 0.98060 0.42690 0.07800
C 	C 	0.09825 0.02295 0.48094 0.06400
C 	C 	0.12950 0.98469 0.51458 0.04200
C 	C 	0.15372 0.00540 0.55453 -0.13200
H 	H 	0.15070 0.04430 0.56080 0.06700
C 	C 	0.13559 0.92610 0.50736 -0.13400
H 	H 	0.12060 0.91020 0.48090 0.06800
C 	C 	0.16391 0.89174 0.53974 0.04900
H 	H 	0.16690 0.85260 0.53450 -0.03000
C 	C 	0.18222 0.96821 0.58490 0.05600
H 	H 	0.19890 0.98310 0.61130 -0.01600
