data_crystal

_cell_length_a 18.55700
_cell_length_b 18.55700
_cell_length_c 24.18900
_cell_angle_alpha 90.00000
_cell_angle_beta  90.00000
_cell_angle_gamma 120.00000

_symmetry_space_group_name_	'P 1'
_symmetry_space_group_name_H-M	'P 1'

loop_
_symmetry_equiv_pos_as_xyz
  x,y,z

loop_
_atom_site_label
_atom_site_type_symbol
_atom_site_fract_x
_atom_site_fract_y
_atom_site_fract_z
_atom_site_charge
C 	C 	0.90880 0.55020 0.54520 0.42000
C 	C 	0.85410 0.57740 0.57125 -0.14200
C 	C 	0.87410 0.61940 0.62090 0.04000
H 	H 	0.92520 0.63320 0.63840 0.03200
O 	O 	0.89041 0.51930 0.49778 -0.49000
O 	O 	0.97170 0.56260 0.57241 -0.48400
C 	C 	0.44980 0.35860 0.54520 0.41900
C 	C 	0.42260 0.27670 0.57125 -0.14200
C 	C 	0.38060 0.25470 0.62090 0.04000
H 	H 	0.36680 0.29200 0.63840 0.03200
O 	O 	0.48070 0.37111 0.49778 -0.49000
O 	O 	0.43740 0.40910 0.57241 -0.48300
C 	C 	0.64140 0.09120 0.54520 0.42100
C 	C 	0.72330 0.14590 0.57125 -0.14100
C 	C 	0.74530 0.12590 0.62090 0.04100
H 	H 	0.70800 0.07480 0.63840 0.03300
O 	O 	0.62889 0.10959 0.49778 -0.48900
O 	O 	0.59090 0.02830 0.57241 -0.48300
C 	C 	0.09120 0.44980 0.04520 0.42200
C 	C 	0.14590 0.42260 0.07125 -0.14100
C 	C 	0.12590 0.38060 0.12090 0.04100
H 	H 	0.07480 0.36680 0.13840 0.03300
O 	O 	0.10959 0.48070 0.99778 -0.49000
O 	O 	0.02830 0.43740 0.07241 -0.48300
C 	C 	0.55020 0.64140 0.04520 0.42100
C 	C 	0.57740 0.72330 0.07125 -0.14100
C 	C 	0.61940 0.74530 0.12090 0.04100
H 	H 	0.63320 0.70800 0.13840 0.03300
O 	O 	0.51930 0.62889 0.99778 -0.49000
O 	O 	0.56260 0.59090 0.07241 -0.48300
C 	C 	0.35860 0.90880 0.04520 0.42200
C 	C 	0.27670 0.85410 0.07125 -0.14100
C 	C 	0.25470 0.87410 0.12090 0.04100
H 	H 	0.29200 0.92520 0.13840 0.03300
O 	O 	0.37111 0.89041 0.99778 -0.49100
O 	O 	0.40910 0.97170 0.07241 -0.48300
C 	C 	0.55020 0.90880 0.45480 0.42100
C 	C 	0.57740 0.85410 0.42875 -0.14100
C 	C 	0.61940 0.87410 0.37910 0.04100
H 	H 	0.63320 0.92520 0.36160 0.03300
O 	O 	0.51930 0.89041 0.50222 -0.48900
O 	O 	0.56260 0.97170 0.42759 -0.48300
C 	C 	0.35860 0.44980 0.45480 0.42000
C 	C 	0.27670 0.42260 0.42875 -0.14100
C 	C 	0.25470 0.38060 0.37910 0.04100
H 	H 	0.29200 0.36680 0.36160 0.03300
O 	O 	0.37111 0.48070 0.50222 -0.48900
O 	O 	0.40910 0.43740 0.42759 -0.48300
C 	C 	0.09120 0.64140 0.45480 0.42100
C 	C 	0.14590 0.72330 0.42875 -0.14100
C 	C 	0.12590 0.74530 0.37910 0.04100
H 	H 	0.07480 0.70800 0.36160 0.03300
O 	O 	0.10959 0.62889 0.50222 -0.48900
O 	O 	0.02830 0.59090 0.42759 -0.48300
C 	C 	0.44980 0.09120 0.95480 0.42200
C 	C 	0.42260 0.14590 0.92875 -0.14100
C 	C 	0.38060 0.12590 0.87910 0.04100
H 	H 	0.36680 0.07480 0.86160 0.03300
O 	O 	0.48070 0.10959 0.00222 -0.49000
O 	O 	0.43740 0.02830 0.92759 -0.48300
C 	C 	0.64140 0.55020 0.95480 0.42100
C 	C 	0.72330 0.57740 0.92875 -0.14100
C 	C 	0.74530 0.61940 0.87910 0.04100
H 	H 	0.70800 0.63320 0.86160 0.03300
O 	O 	0.62889 0.51930 0.00222 -0.49000
O 	O 	0.59090 0.56260 0.92759 -0.48300
C 	C 	0.90880 0.35860 0.95480 0.42200
C 	C 	0.85410 0.27670 0.92875 -0.14100
C 	C 	0.87410 0.25470 0.87910 0.04100
H 	H 	0.92520 0.29200 0.86160 0.03300
O 	O 	0.89041 0.37111 0.00222 -0.49100
O 	O 	0.97170 0.40910 0.92759 -0.48300
C 	C 	0.09120 0.44980 0.45480 0.42100
C 	C 	0.14590 0.42260 0.42875 -0.14100
C 	C 	0.12590 0.38060 0.37910 0.04100
H 	H 	0.07480 0.36680 0.36160 0.03300
O 	O 	0.10959 0.48070 0.50222 -0.48900
O 	O 	0.02830 0.43740 0.42759 -0.48300
C 	C 	0.55020 0.64140 0.45480 0.42100
C 	C 	0.57740 0.72330 0.42875 -0.14100
C 	C 	0.61940 0.74530 0.37910 0.04100
H 	H 	0.63320 0.70800 0.36160 0.03300
O 	O 	0.51930 0.62889 0.50222 -0.48900
O 	O 	0.56260 0.59090 0.42759 -0.48300
C 	C 	0.35860 0.90880 0.45480 0.42100
C 	C 	0.27670 0.85410 0.42875 -0.14100
C 	C 	0.25470 0.87410 0.37910 0.04100
H 	H 	0.29200 0.92520 0.36160 0.03300
O 	O 	0.37111 0.89041 0.50222 -0.48900
O 	O 	0.40910 0.97170 0.42759 -0.48300
C 	C 	0.90880 0.55020 0.95480 0.42200
C 	C 	0.85410 0.57740 0.92875 -0.14100
C 	C 	0.87410 0.61940 0.87910 0.04100
H 	H 	0.92520 0.63320 0.86160 0.03300
O 	O 	0.89041 0.51930 0.00222 -0.49000
O 	O 	0.97170 0.56260 0.92759 -0.48300
C 	C 	0.44980 0.35860 0.95480 0.42100
C 	C 	0.42260 0.27670 0.92875 -0.14100
C 	C 	0.38060 0.25470 0.87910 0.04100
H 	H 	0.36680 0.29200 0.86160 0.03300
O 	O 	0.48070 0.37111 0.00222 -0.49000
O 	O 	0.43740 0.40910 0.92759 -0.48300
C 	C 	0.64140 0.09120 0.95480 0.42200
C 	C 	0.72330 0.14590 0.92875 -0.14100
C 	C 	0.74530 0.12590 0.87910 0.04100
H 	H 	0.70800 0.07480 0.86160 0.03300
O 	O 	0.62889 0.10959 0.00222 -0.49100
O 	O 	0.59090 0.02830 0.92759 -0.48300
C 	C 	0.44980 0.09120 0.54520 0.42100
C 	C 	0.42260 0.14590 0.57125 -0.14100
C 	C 	0.38060 0.12590 0.62090 0.04100
H 	H 	0.36680 0.07480 0.63840 0.03300
O 	O 	0.48070 0.10959 0.49778 -0.48900
O 	O 	0.43740 0.02830 0.57241 -0.48300
C 	C 	0.64140 0.55020 0.54520 0.42000
C 	C 	0.72330 0.57740 0.57125 -0.14100
C 	C 	0.74530 0.61940 0.62090 0.04100
H 	H 	0.70800 0.63320 0.63840 0.03300
O 	O 	0.62889 0.51930 0.49778 -0.48900
O 	O 	0.59090 0.56260 0.57241 -0.48300
C 	C 	0.90880 0.35860 0.54520 0.42100
C 	C 	0.85410 0.27670 0.57125 -0.14100
C 	C 	0.87410 0.25470 0.62090 0.04100
H 	H 	0.92520 0.29200 0.63840 0.03300
O 	O 	0.89041 0.37111 0.49778 -0.48900
O 	O 	0.97170 0.40910 0.57241 -0.48300
C 	C 	0.55020 0.90880 0.04520 0.42200
C 	C 	0.57740 0.85410 0.07125 -0.14100
C 	C 	0.61940 0.87410 0.12090 0.04100
H 	H 	0.63320 0.92520 0.13840 0.03300
O 	O 	0.51930 0.89041 0.99778 -0.49000
O 	O 	0.56260 0.97170 0.07241 -0.48300
C 	C 	0.35860 0.44980 0.04520 0.42100
C 	C 	0.27670 0.42260 0.07125 -0.14100
C 	C 	0.25470 0.38060 0.12090 0.04100
H 	H 	0.29200 0.36680 0.13840 0.03300
O 	O 	0.37111 0.48070 0.99778 -0.49000
O 	O 	0.40910 0.43740 0.07241 -0.48300
C 	C 	0.09120 0.64140 0.04520 0.42200
C 	C 	0.14590 0.72330 0.07125 -0.14100
C 	C 	0.12590 0.74530 0.12090 0.04100
H 	H 	0.07480 0.70800 0.13840 0.03300
O 	O 	0.10959 0.62889 0.99778 -0.49100
O 	O 	0.02830 0.59090 0.07241 -0.48300
C 	C 	0.88320 0.76640 0.69790 -0.29400
H 	H 	0.89805 0.79610 0.66390 0.17000
C 	C 	0.77860 0.55720 0.54530 0.07400
H 	H 	0.76500 0.53000 0.51050 0.02800
C 	C 	0.84325 0.68650 0.70020 0.13400
C 	C 	0.82090 0.64180 0.64570 -0.07200
H 	H 	0.76565 0.53130 0.78150 0.13200
C 	C 	0.23360 0.11680 0.69790 -0.29400
H 	H 	0.20390 0.10195 0.66390 0.17000
C 	C 	0.44280 0.22140 0.54530 0.07400
H 	H 	0.47000 0.23500 0.51050 0.02800
C 	C 	0.31350 0.15675 0.70020 0.13400
C 	C 	0.35820 0.17910 0.64570 -0.07200
H 	H 	0.46870 0.23435 0.78150 0.13200
C 	C 	0.88320 0.11680 0.69790 -0.29400
H 	H 	0.89805 0.10195 0.66390 0.17000
C 	C 	0.77860 0.22140 0.54530 0.07400
H 	H 	0.76500 0.23500 0.51050 0.02800
C 	C 	0.84325 0.15675 0.70020 0.13400
C 	C 	0.82090 0.17910 0.64570 -0.07200
H 	H 	0.76565 0.23435 0.78150 0.13200
C 	C 	0.11680 0.23360 0.19790 -0.29400
H 	H 	0.10195 0.20390 0.16390 0.17000
C 	C 	0.22140 0.44280 0.04530 0.07500
H 	H 	0.23500 0.47000 0.01050 0.02800
C 	C 	0.15675 0.31350 0.20020 0.13400
C 	C 	0.17910 0.35820 0.14570 -0.07200
H 	H 	0.23435 0.46870 0.28150 0.13200
C 	C 	0.76640 0.88320 0.19790 -0.29400
H 	H 	0.79610 0.89805 0.16390 0.17000
C 	C 	0.55720 0.77860 0.04530 0.07500
H 	H 	0.53000 0.76500 0.01050 0.02800
C 	C 	0.68650 0.84325 0.20020 0.13400
C 	C 	0.64180 0.82090 0.14570 -0.07200
H 	H 	0.53130 0.76565 0.28150 0.13200
C 	C 	0.11680 0.88320 0.19790 -0.29400
H 	H 	0.10195 0.89805 0.16390 0.17000
C 	C 	0.22140 0.77860 0.04530 0.07500
H 	H 	0.23500 0.76500 0.01050 0.02800
C 	C 	0.15675 0.84325 0.20020 0.13500
C 	C 	0.17910 0.82090 0.14570 -0.07200
H 	H 	0.23435 0.76565 0.28150 0.13200
C 	C 	0.76640 0.88320 0.30210 -0.29400
H 	H 	0.79610 0.89805 0.33610 0.17000
C 	C 	0.55720 0.77860 0.45470 0.07400
H 	H 	0.53000 0.76500 0.48950 0.02800
C 	C 	0.68650 0.84325 0.29980 0.13400
C 	C 	0.64180 0.82090 0.35430 -0.07200
H 	H 	0.53130 0.76565 0.21850 0.13200
C 	C 	0.11680 0.23360 0.30210 -0.29400
H 	H 	0.10195 0.20390 0.33610 0.17000
C 	C 	0.22140 0.44280 0.45470 0.07400
H 	H 	0.23500 0.47000 0.48950 0.02800
C 	C 	0.15675 0.31350 0.29980 0.13400
C 	C 	0.17910 0.35820 0.35430 -0.07200
H 	H 	0.23435 0.46870 0.21850 0.13200
C 	C 	0.11680 0.88320 0.30210 -0.29400
H 	H 	0.10195 0.89805 0.33610 0.17000
C 	C 	0.22140 0.77860 0.45470 0.07400
H 	H 	0.23500 0.76500 0.48950 0.02800
C 	C 	0.15675 0.84325 0.29980 0.13400
C 	C 	0.17910 0.82090 0.35430 -0.07200
H 	H 	0.23435 0.76565 0.21850 0.13200
C 	C 	0.23360 0.11680 0.80210 -0.29400
H 	H 	0.20390 0.10195 0.83610 0.17000
C 	C 	0.44280 0.22140 0.95470 0.07500
H 	H 	0.47000 0.23500 0.98950 0.02800
C 	C 	0.31350 0.15675 0.79980 0.13400
C 	C 	0.35820 0.17910 0.85430 -0.07200
H 	H 	0.46870 0.23435 0.71850 0.13200
C 	C 	0.88320 0.76640 0.80210 -0.29400
H 	H 	0.89805 0.79610 0.83610 0.17000
C 	C 	0.77860 0.55720 0.95470 0.07500
H 	H 	0.76500 0.53000 0.98950 0.02800
C 	C 	0.84325 0.68650 0.79980 0.13400
C 	C 	0.82090 0.64180 0.85430 -0.07200
H 	H 	0.76565 0.53130 0.71850 0.13200
C 	C 	0.88320 0.11680 0.80210 -0.29400
H 	H 	0.89805 0.10195 0.83610 0.17000
C 	C 	0.77860 0.22140 0.95470 0.07500
H 	H 	0.76500 0.23500 0.98950 0.02800
C 	C 	0.84325 0.15675 0.79980 0.13500
C 	C 	0.82090 0.17910 0.85430 -0.07200
H 	H 	0.76565 0.23435 0.71850 0.13200
C 	C 	0.90335 0.80670 0.75000 0.40300
C 	C 	0.82375 0.64750 0.75000 -0.03900
N 	N 	0.77935 0.55870 0.75000 -0.25500
F 	F 	0.94835 0.89670 0.75000 -0.38400
C 	C 	0.19330 0.09665 0.75000 0.40300
C 	C 	0.35250 0.17625 0.75000 -0.03900
N 	N 	0.44130 0.22065 0.75000 -0.25500
F 	F 	0.10330 0.05165 0.75000 -0.38400
C 	C 	0.90335 0.09665 0.75000 0.40300
C 	C 	0.82375 0.17625 0.75000 -0.03900
N 	N 	0.77935 0.22065 0.75000 -0.25500
F 	F 	0.94835 0.05165 0.75000 -0.38400
C 	C 	0.09665 0.19330 0.25000 0.40300
C 	C 	0.17625 0.35250 0.25000 -0.03900
N 	N 	0.22065 0.44130 0.25000 -0.25500
F 	F 	0.05165 0.10330 0.25000 -0.38400
C 	C 	0.80670 0.90335 0.25000 0.40300
C 	C 	0.64750 0.82375 0.25000 -0.03900
N 	N 	0.55870 0.77935 0.25000 -0.25500
F 	F 	0.89670 0.94835 0.25000 -0.38400
C 	C 	0.09665 0.90335 0.25000 0.40300
C 	C 	0.17625 0.82375 0.25000 -0.03900
N 	N 	0.22065 0.77935 0.25000 -0.25500
F 	F 	0.05165 0.94835 0.25000 -0.38400
Zn	Zn	0.94603 0.47302 0.44975 1.20300
Zn	Zn	0.52698 0.47302 0.44975 1.20300
Zn	Zn	0.52698 0.05397 0.44975 1.20300
Zn	Zn	0.05397 0.52698 0.94975 1.20200
Zn	Zn	0.47302 0.52698 0.94975 1.20300
Zn	Zn	0.47302 0.94603 0.94975 1.20200
Zn	Zn	0.47302 0.94603 0.55025 1.20300
Zn	Zn	0.47302 0.52699 0.55025 1.20300
Zn	Zn	0.05397 0.52698 0.55025 1.20300
Zn	Zn	0.52698 0.05397 0.05025 1.20200
Zn	Zn	0.52698 0.47302 0.05025 1.20300
Zn	Zn	0.94603 0.47302 0.05025 1.20200
