data_crystal

_cell_length_a 17.01920
_cell_length_b 57.82050
_cell_length_c 32.38460
_cell_angle_alpha 90.00000
_cell_angle_beta  90.00000
_cell_angle_gamma 90.00000

_symmetry_space_group_name_	'P 1'
_symmetry_space_group_name_H-M	'P 1'

loop_
_symmetry_equiv_pos_as_xyz
  x,y,z

loop_
_atom_site_label
_atom_site_type_symbol
_atom_site_fract_x
_atom_site_fract_y
_atom_site_fract_z
_atom_site_charge
Gd	Gd	0.76830 0.13576 0.73058 1.41700
O 	O 	0.00420 0.13001 0.70492 -0.52300
O 	O 	0.89210 0.14860 0.71427 -0.48200
O 	O 	0.19640 0.13789 0.33364 -0.42200
O 	O 	0.23220 0.17022 0.30871 -0.43800
O 	O 	0.11470 0.09485 0.71863 -0.56500
O 	O 	0.21000 0.11795 0.70540 -0.54700
O 	O 	0.32420 0.10700 0.30910 -0.49900
O 	O 	0.43160 0.08646 0.30702 -0.51800
C 	C 	0.01060 0.23761 0.51359 -0.12300
C 	C 	0.99790 0.22406 0.54978 0.04900
H 	H 	0.97610 0.23080 0.57320 0.02000
C 	C 	0.01770 0.20094 0.55021 -0.05900
C 	C 	0.05160 0.19083 0.51682 -0.02100
H 	H 	0.06670 0.17540 0.51790 0.03100
C 	C 	0.06390 0.20400 0.47970 -0.07600
C 	C 	0.04400 0.22737 0.47997 0.01100
H 	H 	0.05370 0.23620 0.45660 0.01200
C 	C 	0.00120 0.18696 0.58821 0.03500
C 	C 	0.93370 0.19010 0.61170 -0.08500
H 	H 	0.89770 0.20140 0.60400 0.06500
C 	C 	0.91890 0.17666 0.64650 0.04000
H 	H 	0.87270 0.17880 0.66150 0.02800
C 	C 	0.97190 0.16047 0.65872 -0.12100
C 	C 	0.03970 0.15695 0.63660 0.01100
H 	H 	0.07570 0.14590 0.64530 0.02800
C 	C 	0.05440 0.16981 0.60154 -0.11000
H 	H 	0.10000 0.16710 0.58650 0.06300
C 	C 	0.95550 0.14459 0.69620 0.50700
C 	C 	0.10030 0.19250 0.44284 0.17600
C 	C 	0.09510 0.16965 0.43630 -0.24300
H 	H 	0.06840 0.16060 0.45540 0.10600
C 	C 	0.12900 0.15892 0.40120 0.16700
H 	H 	0.12410 0.14300 0.39760 -0.02300
C 	C 	0.16640 0.17097 0.37415 -0.24700
C 	C 	0.16850 0.19347 0.37970 0.18400
H 	H 	0.19310 0.20250 0.35980 -0.03000
C 	C 	0.13640 0.20412 0.41320 -0.26500
H 	H 	0.14000 0.22010 0.41530 0.11400
C 	C 	0.20280 0.15949 0.33630 0.40700
C 	C 	0.25120 0.01308 0.51348 0.02800
C 	C 	0.23280 0.02595 0.54822 -0.08500
H 	H 	0.21880 0.01830 0.57240 0.05400
C 	C 	0.23480 0.05007 0.54796 -0.00700
C 	C 	0.25750 0.06115 0.51162 -0.07900
H 	H 	0.25970 0.07720 0.51090 0.05400
C 	C 	0.27670 0.04870 0.47652 0.01300
C 	C 	0.27530 0.02488 0.47794 -0.09500
H 	H 	0.29070 0.01650 0.45480 0.06000
C 	C 	0.21570 0.06349 0.58579 0.13200
C 	C 	0.26050 0.08271 0.59610 -0.22200
H 	H 	0.30190 0.08700 0.57900 0.10300
C 	C 	0.24530 0.09538 0.63040 0.16300
H 	H 	0.27510 0.10840 0.63650 -0.03000
C 	C 	0.18430 0.08857 0.65660 -0.27500
C 	C 	0.14110 0.07047 0.64650 0.18800
H 	H 	0.09900 0.06640 0.66340 -0.04200
C 	C 	0.15660 0.05733 0.61165 -0.23400
H 	H 	0.12650 0.04430 0.60600 0.10300
C 	C 	0.16990 0.10190 0.69710 0.57600
C 	C 	0.30180 0.06061 0.43739 0.08400
C 	C 	0.36390 0.05189 0.41456 -0.16200
H 	H 	0.39020 0.03870 0.42350 0.08300
C 	C 	0.38680 0.06284 0.37834 0.09800
H 	H 	0.42950 0.05730 0.36340 -0.00000
C 	C 	0.34610 0.08210 0.36435 -0.19900
C 	C 	0.28490 0.09049 0.38698 0.09800
H 	H 	0.25740 0.10340 0.37770 0.01000
C 	C 	0.26280 0.07987 0.42429 -0.16300
H 	H 	0.22190 0.08590 0.43990 0.08400
C 	C 	0.36980 0.09269 0.32280 0.52000
Gd	Gd	0.26830 0.63576 0.73058 1.40800
O 	O 	0.50420 0.63001 0.70492 -0.50200
O 	O 	0.39210 0.64860 0.71427 -0.48000
O 	O 	0.69640 0.63789 0.33364 -0.41600
O 	O 	0.73220 0.67022 0.30871 -0.43100
O 	O 	0.61470 0.59485 0.71863 -0.56800
O 	O 	0.71000 0.61795 0.70540 -0.54500
O 	O 	0.82420 0.60700 0.30910 -0.49400
O 	O 	0.93160 0.58646 0.30702 -0.49600
C 	C 	0.51060 0.73761 0.51359 0.03300
C 	C 	0.49790 0.72406 0.54978 -0.09900
H 	H 	0.47610 0.73080 0.57320 0.06300
C 	C 	0.51770 0.70094 0.55021 0.02600
C 	C 	0.55160 0.69083 0.51682 -0.08500
H 	H 	0.56670 0.67540 0.51790 0.05700
C 	C 	0.56390 0.70400 0.47970 -0.00100
C 	C 	0.54400 0.72737 0.47997 -0.08800
H 	H 	0.55370 0.73620 0.45660 0.05700
C 	C 	0.50120 0.68696 0.58821 0.06600
C 	C 	0.43370 0.69010 0.61170 -0.14300
H 	H 	0.39770 0.70140 0.60400 0.08000
C 	C 	0.41890 0.67666 0.64650 0.08500
H 	H 	0.37270 0.67880 0.66150 0.01200
C 	C 	0.47190 0.66047 0.65872 -0.17700
C 	C 	0.53970 0.65695 0.63660 0.08300
H 	H 	0.57570 0.64590 0.64530 0.01000
C 	C 	0.55440 0.66981 0.60154 -0.14300
H 	H 	0.60000 0.66710 0.58650 0.07800
C 	C 	0.45550 0.64459 0.69620 0.49100
C 	C 	0.60030 0.69250 0.44284 0.12600
C 	C 	0.59510 0.66965 0.43630 -0.19600
H 	H 	0.56840 0.66060 0.45540 0.09500
C 	C 	0.62900 0.65892 0.40120 0.13100
H 	H 	0.62410 0.64300 0.39760 -0.00600
C 	C 	0.66640 0.67097 0.37415 -0.21000
C 	C 	0.66850 0.69347 0.37970 0.14400
H 	H 	0.69310 0.70250 0.35980 -0.01200
C 	C 	0.63640 0.70412 0.41320 -0.21300
H 	H 	0.64000 0.72010 0.41530 0.10100
C 	C 	0.70280 0.65949 0.33630 0.39600
C 	C 	0.75120 0.51308 0.51348 0.03100
C 	C 	0.73280 0.52595 0.54822 -0.08500
H 	H 	0.71880 0.51830 0.57240 0.05700
C 	C 	0.73480 0.55007 0.54796 -0.00400
C 	C 	0.75750 0.56115 0.51162 -0.07900
H 	H 	0.75970 0.57720 0.51090 0.05700
C 	C 	0.77670 0.54870 0.47652 0.01600
C 	C 	0.77530 0.52488 0.47794 -0.09400
H 	H 	0.79070 0.51650 0.45480 0.06200
C 	C 	0.71570 0.56349 0.58579 0.13400
C 	C 	0.76050 0.58271 0.59610 -0.22100
H 	H 	0.80190 0.58700 0.57900 0.10600
C 	C 	0.74530 0.59538 0.63040 0.16500
H 	H 	0.77510 0.60840 0.63650 -0.02700
C 	C 	0.68430 0.58857 0.65660 -0.27400
C 	C 	0.64110 0.57047 0.64650 0.19000
H 	H 	0.59900 0.56640 0.66340 -0.03700
C 	C 	0.65660 0.55733 0.61165 -0.23300
H 	H 	0.62650 0.54430 0.60600 0.10800
C 	C 	0.66990 0.60190 0.69710 0.58000
C 	C 	0.80180 0.56061 0.43739 0.08400
C 	C 	0.86390 0.55189 0.41456 -0.15700
H 	H 	0.89020 0.53870 0.42350 0.08700
C 	C 	0.88680 0.56284 0.37834 0.09700
H 	H 	0.92950 0.55730 0.36340 0.00700
C 	C 	0.84610 0.58210 0.36435 -0.19200
C 	C 	0.78490 0.59049 0.38698 0.09600
H 	H 	0.75740 0.60340 0.37770 0.01200
C 	C 	0.76280 0.57987 0.42429 -0.15900
H 	H 	0.72190 0.58590 0.43990 0.08500
C 	C 	0.86980 0.59269 0.32280 0.51600
Gd	Gd	0.73170 0.86424 0.73058 1.42100
O 	O 	0.49580 0.86999 0.70492 -0.50200
O 	O 	0.60790 0.85140 0.71427 -0.48100
O 	O 	0.30360 0.86211 0.33364 -0.41600
O 	O 	0.26780 0.82978 0.30871 -0.43200
O 	O 	0.38530 0.90515 0.71863 -0.56900
O 	O 	0.29000 0.88205 0.70540 -0.54900
O 	O 	0.17580 0.89300 0.30910 -0.49800
O 	O 	0.06840 0.91354 0.30702 -0.51900
C 	C 	0.48940 0.76239 0.51359 0.03200
C 	C 	0.50210 0.77594 0.54978 -0.10000
H 	H 	0.52390 0.76920 0.57320 0.06400
C 	C 	0.48230 0.79906 0.55021 0.02500
C 	C 	0.44840 0.80917 0.51682 -0.08500
H 	H 	0.43330 0.82460 0.51790 0.05600
C 	C 	0.43610 0.79600 0.47970 -0.00300
C 	C 	0.45600 0.77263 0.47997 -0.08800
H 	H 	0.44630 0.76380 0.45660 0.05600
C 	C 	0.49880 0.81304 0.58821 0.06500
C 	C 	0.56630 0.80990 0.61170 -0.14300
H 	H 	0.60230 0.79860 0.60400 0.08100
C 	C 	0.58110 0.82334 0.64650 0.08600
H 	H 	0.62730 0.82120 0.66150 0.01200
C 	C 	0.52810 0.83953 0.65872 -0.17700
C 	C 	0.46030 0.84305 0.63660 0.08200
H 	H 	0.42430 0.85410 0.64530 0.00900
C 	C 	0.44560 0.83019 0.60154 -0.14300
H 	H 	0.40000 0.83290 0.58650 0.07600
C 	C 	0.54450 0.85541 0.69620 0.49100
C 	C 	0.39970 0.80750 0.44284 0.12700
C 	C 	0.40490 0.83035 0.43630 -0.19800
H 	H 	0.43160 0.83940 0.45540 0.09500
C 	C 	0.37100 0.84108 0.40120 0.13100
H 	H 	0.37590 0.85700 0.39760 -0.00700
C 	C 	0.33360 0.82903 0.37415 -0.21300
C 	C 	0.33150 0.80653 0.37970 0.14500
H 	H 	0.30690 0.79750 0.35980 -0.01500
C 	C 	0.36360 0.79588 0.41320 -0.21500
H 	H 	0.36000 0.77990 0.41530 0.10000
C 	C 	0.29720 0.84051 0.33630 0.39600
C 	C 	0.24880 0.98692 0.51348 0.02800
C 	C 	0.26720 0.97405 0.54822 -0.08500
H 	H 	0.28120 0.98170 0.57240 0.05500
C 	C 	0.26520 0.94993 0.54796 -0.00800
C 	C 	0.24250 0.93885 0.51162 -0.07800
H 	H 	0.24030 0.92280 0.51090 0.05300
C 	C 	0.22330 0.95130 0.47652 0.01100
C 	C 	0.22470 0.97512 0.47794 -0.09400
H 	H 	0.20930 0.98350 0.45480 0.05900
C 	C 	0.28430 0.93651 0.58579 0.13300
C 	C 	0.23950 0.91729 0.59610 -0.22300
H 	H 	0.19810 0.91300 0.57900 0.10000
C 	C 	0.25470 0.90462 0.63040 0.16400
H 	H 	0.22490 0.89160 0.63650 -0.03300
C 	C 	0.31570 0.91143 0.65660 -0.27700
C 	C 	0.35890 0.92953 0.64650 0.19000
H 	H 	0.40100 0.93360 0.66340 -0.03800
C 	C 	0.34340 0.94267 0.61165 -0.23400
H 	H 	0.37350 0.95570 0.60600 0.10800
C 	C 	0.33010 0.89810 0.69710 0.58000
C 	C 	0.19820 0.93939 0.43739 0.08400
C 	C 	0.13610 0.94811 0.41456 -0.16500
H 	H 	0.10980 0.96130 0.42350 0.08000
C 	C 	0.11320 0.93716 0.37834 0.09800
H 	H 	0.07050 0.94270 0.36340 -0.00600
C 	C 	0.15390 0.91790 0.36435 -0.20200
C 	C 	0.21510 0.90951 0.38698 0.09900
H 	H 	0.24260 0.89660 0.37770 0.00900
C 	C 	0.23720 0.92013 0.42429 -0.16500
H 	H 	0.27810 0.91410 0.43990 0.08600
C 	C 	0.13020 0.90731 0.32280 0.51900
Gd	Gd	0.23170 0.36424 0.73058 1.41100
O 	O 	0.99580 0.36999 0.70492 -0.46300
O 	O 	0.10790 0.35140 0.71427 -0.47600
O 	O 	0.80360 0.36211 0.33364 -0.41000
O 	O 	0.76780 0.32978 0.30871 -0.42600
O 	O 	0.88530 0.40515 0.71863 -0.55200
O 	O 	0.79000 0.38205 0.70540 -0.54300
O 	O 	0.67580 0.39300 0.30910 -0.49800
O 	O 	0.56840 0.41354 0.30702 -0.51700
C 	C 	0.98940 0.26239 0.51359 0.18700
C 	C 	0.00210 0.27594 0.54978 -0.24900
H 	H 	0.02390 0.26920 0.57320 0.10600
C 	C 	0.98230 0.29906 0.55021 0.10900
C 	C 	0.94840 0.30917 0.51682 -0.15100
H 	H 	0.93330 0.32460 0.51790 0.08100
C 	C 	0.93610 0.29600 0.47970 0.07000
C 	C 	0.95600 0.27263 0.47997 -0.18900
H 	H 	0.94630 0.26380 0.45660 0.10000
C 	C 	0.99880 0.31304 0.58821 0.09400
C 	C 	0.06630 0.30990 0.61170 -0.20100
H 	H 	0.10230 0.29860 0.60400 0.09400
C 	C 	0.08110 0.32334 0.64650 0.12700
H 	H 	0.12730 0.32120 0.66150 -0.00400
C 	C 	0.02810 0.33953 0.65872 -0.23000
C 	C 	0.96030 0.34305 0.63660 0.15000
H 	H 	0.92430 0.35410 0.64530 -0.01000
C 	C 	0.94560 0.33019 0.60154 -0.17600
H 	H 	0.90000 0.33290 0.58650 0.08900
C 	C 	0.04450 0.35541 0.69620 0.46700
C 	C 	0.89970 0.30750 0.44284 0.07600
C 	C 	0.90490 0.33035 0.43630 -0.15200
H 	H 	0.93160 0.33940 0.45540 0.08200
C 	C 	0.87100 0.34108 0.40120 0.09500
H 	H 	0.87590 0.35700 0.39760 0.00900
C 	C 	0.83360 0.32903 0.37415 -0.17700
C 	C 	0.83150 0.30653 0.37970 0.10400
H 	H 	0.80690 0.29750 0.35980 0.00300
C 	C 	0.86360 0.29588 0.41320 -0.16400
H 	H 	0.86000 0.27990 0.41530 0.08500
C 	C 	0.79720 0.34051 0.33630 0.38400
C 	C 	0.74880 0.48692 0.51348 0.03100
C 	C 	0.76720 0.47405 0.54822 -0.08500
H 	H 	0.78120 0.48170 0.57240 0.05800
C 	C 	0.76520 0.44993 0.54796 -0.00300
C 	C 	0.74250 0.43885 0.51162 -0.07900
H 	H 	0.74030 0.42280 0.51090 0.05600
C 	C 	0.72330 0.45130 0.47652 0.01500
C 	C 	0.72470 0.47512 0.47794 -0.09400
H 	H 	0.70930 0.48350 0.45480 0.06100
C 	C 	0.78430 0.43651 0.58579 0.13100
C 	C 	0.73950 0.41729 0.59610 -0.21700
H 	H 	0.69810 0.41300 0.57900 0.10200
C 	C 	0.75470 0.40462 0.63040 0.16000
H 	H 	0.72490 0.39160 0.63650 -0.02800
C 	C 	0.81570 0.41143 0.65660 -0.26700
C 	C 	0.85890 0.42953 0.64650 0.18500
H 	H 	0.90100 0.43360 0.66340 -0.02900
C 	C 	0.84340 0.44267 0.61165 -0.22700
H 	H 	0.87350 0.45570 0.60600 0.11000
C 	C 	0.83010 0.39810 0.69710 0.57300
C 	C 	0.69820 0.43939 0.43739 0.08600
C 	C 	0.63610 0.44811 0.41456 -0.16200
H 	H 	0.60980 0.46130 0.42350 0.08400
C 	C 	0.61320 0.43716 0.37834 0.10000
H 	H 	0.57050 0.44270 0.36340 -0.00000
C 	C 	0.65390 0.41790 0.36435 -0.19900
C 	C 	0.71510 0.40951 0.38698 0.10100
H 	H 	0.74260 0.39660 0.37770 0.01100
C 	C 	0.73720 0.42013 0.42429 -0.16300
H 	H 	0.77810 0.41410 0.43990 0.08800
C 	C 	0.63020 0.40731 0.32280 0.52200
Gd	Gd	0.23170 0.13576 0.76942 1.41100
O 	O 	0.99580 0.13001 0.79508 -0.46400
O 	O 	0.10790 0.14860 0.78573 -0.47600
O 	O 	0.80360 0.13789 0.16636 -0.41100
O 	O 	0.76780 0.17022 0.19129 -0.42600
O 	O 	0.88530 0.09485 0.78137 -0.55200
O 	O 	0.79000 0.11795 0.79460 -0.54300
O 	O 	0.67580 0.10700 0.19090 -0.49800
O 	O 	0.56840 0.08646 0.19298 -0.51700
C 	C 	0.98940 0.23761 0.98641 0.18600
C 	C 	0.00210 0.22406 0.95022 -0.24900
H 	H 	0.02390 0.23080 0.92680 0.10600
C 	C 	0.98230 0.20094 0.94979 0.10900
C 	C 	0.94840 0.19083 0.98318 -0.15000
H 	H 	0.93330 0.17540 0.98210 0.08100
C 	C 	0.93610 0.20400 0.02030 0.07000
C 	C 	0.95600 0.22737 0.02003 -0.18800
H 	H 	0.94630 0.23620 0.04340 0.09900
C 	C 	0.99880 0.18696 0.91179 0.09400
C 	C 	0.06630 0.19010 0.88830 -0.20100
H 	H 	0.10230 0.20140 0.89600 0.09400
C 	C 	0.08110 0.17666 0.85350 0.12700
H 	H 	0.12730 0.17880 0.83850 -0.00300
C 	C 	0.02810 0.16047 0.84128 -0.23000
C 	C 	0.96030 0.15695 0.86340 0.15000
H 	H 	0.92430 0.14590 0.85470 -0.01000
C 	C 	0.94560 0.16981 0.89846 -0.17600
H 	H 	0.90000 0.16710 0.91350 0.08900
C 	C 	0.04450 0.14459 0.80380 0.46700
C 	C 	0.89970 0.19250 0.05716 0.07600
C 	C 	0.90490 0.16965 0.06370 -0.15200
H 	H 	0.93160 0.16060 0.04460 0.08200
C 	C 	0.87100 0.15892 0.09880 0.09500
H 	H 	0.87590 0.14300 0.10240 0.00900
C 	C 	0.83360 0.17097 0.12585 -0.17700
C 	C 	0.83150 0.19347 0.12030 0.10400
H 	H 	0.80690 0.20250 0.14020 0.00200
C 	C 	0.86360 0.20412 0.08680 -0.16400
H 	H 	0.86000 0.22010 0.08470 0.08500
C 	C 	0.79720 0.15949 0.16370 0.38400
C 	C 	0.74880 0.01308 0.98652 0.03100
C 	C 	0.76720 0.02595 0.95178 -0.08500
H 	H 	0.78120 0.01830 0.92760 0.05800
C 	C 	0.76520 0.05007 0.95204 -0.00300
C 	C 	0.74250 0.06115 0.98838 -0.07900
H 	H 	0.74030 0.07720 0.98910 0.05600
C 	C 	0.72330 0.04870 0.02348 0.01500
C 	C 	0.72470 0.02488 0.02206 -0.09400
H 	H 	0.70930 0.01650 0.04520 0.06100
C 	C 	0.78430 0.06349 0.91421 0.13100
C 	C 	0.73950 0.08271 0.90390 -0.21700
H 	H 	0.69810 0.08700 0.92100 0.10200
C 	C 	0.75470 0.09538 0.86960 0.16000
H 	H 	0.72490 0.10840 0.86350 -0.02800
C 	C 	0.81570 0.08857 0.84340 -0.26700
C 	C 	0.85890 0.07047 0.85350 0.18500
H 	H 	0.90100 0.06640 0.83660 -0.02900
C 	C 	0.84340 0.05733 0.88835 -0.22700
H 	H 	0.87350 0.04430 0.89400 0.11000
C 	C 	0.83010 0.10190 0.80290 0.57300
C 	C 	0.69820 0.06061 0.06261 0.08600
C 	C 	0.63610 0.05189 0.08544 -0.16200
H 	H 	0.60980 0.03870 0.07650 0.08400
C 	C 	0.61320 0.06284 0.12166 0.10000
H 	H 	0.57050 0.05730 0.13660 -0.00000
C 	C 	0.65390 0.08210 0.13565 -0.19900
C 	C 	0.71510 0.09049 0.11302 0.10100
H 	H 	0.74260 0.10340 0.12230 0.01100
C 	C 	0.73720 0.07987 0.07571 -0.16300
H 	H 	0.77810 0.08590 0.06010 0.08800
C 	C 	0.63020 0.09269 0.17720 0.52200
Gd	Gd	0.73170 0.63576 0.76942 1.42100
O 	O 	0.49580 0.63001 0.79508 -0.50200
O 	O 	0.60790 0.64860 0.78573 -0.48100
O 	O 	0.30360 0.63789 0.16636 -0.41600
O 	O 	0.26780 0.67022 0.19129 -0.43200
O 	O 	0.38530 0.59485 0.78137 -0.56900
O 	O 	0.29000 0.61795 0.79460 -0.54900
O 	O 	0.17580 0.60700 0.19090 -0.49800
O 	O 	0.06840 0.58646 0.19298 -0.51900
C 	C 	0.48940 0.73761 0.98641 0.03200
C 	C 	0.50210 0.72406 0.95022 -0.10000
H 	H 	0.52390 0.73080 0.92680 0.06400
C 	C 	0.48230 0.70094 0.94979 0.02500
C 	C 	0.44840 0.69083 0.98318 -0.08500
H 	H 	0.43330 0.67540 0.98210 0.05600
C 	C 	0.43610 0.70400 0.02030 -0.00300
C 	C 	0.45600 0.72737 0.02003 -0.08800
H 	H 	0.44630 0.73620 0.04340 0.05600
C 	C 	0.49880 0.68696 0.91179 0.06500
C 	C 	0.56630 0.69010 0.88830 -0.14300
H 	H 	0.60230 0.70140 0.89600 0.08100
C 	C 	0.58110 0.67666 0.85350 0.08600
H 	H 	0.62730 0.67880 0.83850 0.01200
C 	C 	0.52810 0.66047 0.84128 -0.17700
C 	C 	0.46030 0.65695 0.86340 0.08200
H 	H 	0.42430 0.64590 0.85470 0.00900
C 	C 	0.44560 0.66981 0.89846 -0.14300
H 	H 	0.40000 0.66710 0.91350 0.07600
C 	C 	0.54450 0.64459 0.80380 0.49100
C 	C 	0.39970 0.69250 0.05716 0.12700
C 	C 	0.40490 0.66965 0.06370 -0.19800
H 	H 	0.43160 0.66060 0.04460 0.09500
C 	C 	0.37100 0.65892 0.09880 0.13100
H 	H 	0.37590 0.64300 0.10240 -0.00700
C 	C 	0.33360 0.67097 0.12585 -0.21300
C 	C 	0.33150 0.69347 0.12030 0.14500
H 	H 	0.30690 0.70250 0.14020 -0.01500
C 	C 	0.36360 0.70412 0.08680 -0.21500
H 	H 	0.36000 0.72010 0.08470 0.10000
C 	C 	0.29720 0.65949 0.16370 0.39600
C 	C 	0.24880 0.51308 0.98652 0.02800
C 	C 	0.26720 0.52595 0.95178 -0.08500
H 	H 	0.28120 0.51830 0.92760 0.05500
C 	C 	0.26520 0.55007 0.95204 -0.00800
C 	C 	0.24250 0.56115 0.98838 -0.07800
H 	H 	0.24030 0.57720 0.98910 0.05300
C 	C 	0.22330 0.54870 0.02348 0.01100
C 	C 	0.22470 0.52488 0.02206 -0.09400
H 	H 	0.20930 0.51650 0.04520 0.05900
C 	C 	0.28430 0.56349 0.91421 0.13300
C 	C 	0.23950 0.58271 0.90390 -0.22300
H 	H 	0.19810 0.58700 0.92100 0.10000
C 	C 	0.25470 0.59538 0.86960 0.16400
H 	H 	0.22490 0.60840 0.86350 -0.03300
C 	C 	0.31570 0.58857 0.84340 -0.27700
C 	C 	0.35890 0.57047 0.85350 0.19000
H 	H 	0.40100 0.56640 0.83660 -0.03800
C 	C 	0.34340 0.55733 0.88835 -0.23400
H 	H 	0.37350 0.54430 0.89400 0.10800
C 	C 	0.33010 0.60190 0.80290 0.58000
C 	C 	0.19820 0.56061 0.06261 0.08400
C 	C 	0.13610 0.55189 0.08544 -0.16500
H 	H 	0.10980 0.53870 0.07650 0.08000
C 	C 	0.11320 0.56284 0.12166 0.09800
H 	H 	0.07050 0.55730 0.13660 -0.00600
C 	C 	0.15390 0.58210 0.13565 -0.20200
C 	C 	0.21510 0.59049 0.11302 0.09900
H 	H 	0.24260 0.60340 0.12230 0.00900
C 	C 	0.23720 0.57987 0.07571 -0.16500
H 	H 	0.27810 0.58590 0.06010 0.08600
C 	C 	0.13020 0.59269 0.17720 0.51900
Gd	Gd	0.26830 0.86424 0.76942 1.40800
O 	O 	0.50420 0.86999 0.79508 -0.50200
O 	O 	0.39210 0.85140 0.78573 -0.48000
O 	O 	0.69640 0.86211 0.16636 -0.41600
O 	O 	0.73220 0.82978 0.19129 -0.43100
O 	O 	0.61470 0.90515 0.78137 -0.56800
O 	O 	0.71000 0.88205 0.79460 -0.54500
O 	O 	0.82420 0.89300 0.19090 -0.49400
O 	O 	0.93160 0.91354 0.19298 -0.49600
C 	C 	0.51060 0.76239 0.98641 0.03200
C 	C 	0.49790 0.77594 0.95022 -0.09900
H 	H 	0.47610 0.76920 0.92680 0.06300
C 	C 	0.51770 0.79906 0.94979 0.02600
C 	C 	0.55160 0.80917 0.98318 -0.08500
H 	H 	0.56670 0.82460 0.98210 0.05700
C 	C 	0.56390 0.79600 0.02030 -0.00100
C 	C 	0.54400 0.77263 0.02003 -0.08800
H 	H 	0.55370 0.76380 0.04340 0.05700
C 	C 	0.50120 0.81304 0.91179 0.06500
C 	C 	0.43370 0.80990 0.88830 -0.14300
H 	H 	0.39770 0.79860 0.89600 0.08000
C 	C 	0.41890 0.82334 0.85350 0.08500
H 	H 	0.37270 0.82120 0.83850 0.01200
C 	C 	0.47190 0.83953 0.84128 -0.17700
C 	C 	0.53970 0.84305 0.86340 0.08300
H 	H 	0.57570 0.85410 0.85470 0.01000
C 	C 	0.55440 0.83019 0.89846 -0.14300
H 	H 	0.60000 0.83290 0.91350 0.07800
C 	C 	0.45550 0.85541 0.80380 0.49100
C 	C 	0.60030 0.80750 0.05716 0.12600
C 	C 	0.59510 0.83035 0.06370 -0.19600
H 	H 	0.56840 0.83940 0.04460 0.09500
C 	C 	0.62900 0.84108 0.09880 0.13100
H 	H 	0.62410 0.85700 0.10240 -0.00600
C 	C 	0.66640 0.82903 0.12585 -0.21000
C 	C 	0.66850 0.80653 0.12030 0.14400
H 	H 	0.69310 0.79750 0.14020 -0.01200
C 	C 	0.63640 0.79588 0.08680 -0.21300
H 	H 	0.64000 0.77990 0.08470 0.10100
C 	C 	0.70280 0.84051 0.16370 0.39600
C 	C 	0.75120 0.98692 0.98652 0.03100
C 	C 	0.73280 0.97405 0.95178 -0.08500
H 	H 	0.71880 0.98170 0.92760 0.05700
C 	C 	0.73480 0.94993 0.95204 -0.00400
C 	C 	0.75750 0.93885 0.98838 -0.07900
H 	H 	0.75970 0.92280 0.98910 0.05700
C 	C 	0.77670 0.95130 0.02348 0.01600
C 	C 	0.77530 0.97512 0.02206 -0.09400
H 	H 	0.79070 0.98350 0.04520 0.06200
C 	C 	0.71570 0.93651 0.91421 0.13400
C 	C 	0.76050 0.91729 0.90390 -0.22100
H 	H 	0.80190 0.91300 0.92100 0.10600
C 	C 	0.74530 0.90462 0.86960 0.16500
H 	H 	0.77510 0.89160 0.86350 -0.02700
C 	C 	0.68430 0.91143 0.84340 -0.27400
C 	C 	0.64110 0.92953 0.85350 0.19000
H 	H 	0.59900 0.93360 0.83660 -0.03700
C 	C 	0.65660 0.94267 0.88835 -0.23300
H 	H 	0.62650 0.95570 0.89400 0.10800
C 	C 	0.66990 0.89810 0.80290 0.58000
C 	C 	0.80180 0.93939 0.06261 0.08400
C 	C 	0.86390 0.94811 0.08544 -0.15700
H 	H 	0.89020 0.96130 0.07650 0.08700
C 	C 	0.88680 0.93716 0.12166 0.09600
H 	H 	0.92950 0.94270 0.13660 0.00700
C 	C 	0.84610 0.91790 0.13565 -0.19200
C 	C 	0.78490 0.90951 0.11302 0.09600
H 	H 	0.75740 0.89660 0.12230 0.01200
C 	C 	0.76280 0.92013 0.07571 -0.15900
H 	H 	0.72190 0.91410 0.06010 0.08500
C 	C 	0.86980 0.90731 0.17720 0.51600
Gd	Gd	0.76830 0.36424 0.76942 1.41800
O 	O 	0.00420 0.36999 0.79508 -0.52200
O 	O 	0.89210 0.35140 0.78573 -0.48100
O 	O 	0.19640 0.36211 0.16636 -0.42100
O 	O 	0.23220 0.32978 0.19129 -0.43700
O 	O 	0.11470 0.40515 0.78137 -0.56400
O 	O 	0.21000 0.38205 0.79460 -0.54600
O 	O 	0.32420 0.39300 0.19090 -0.49800
O 	O 	0.43160 0.41354 0.19298 -0.51700
C 	C 	0.01060 0.26239 0.98641 -0.12200
C 	C 	0.99790 0.27594 0.95022 0.04900
H 	H 	0.97610 0.26920 0.92680 0.02200
C 	C 	0.01770 0.29906 0.94979 -0.05700
C 	C 	0.05160 0.30917 0.98318 -0.02000
H 	H 	0.06670 0.32460 0.98210 0.03200
C 	C 	0.06390 0.29600 0.02030 -0.07400
C 	C 	0.04400 0.27263 0.02003 0.01200
H 	H 	0.05370 0.26380 0.04340 0.01300
C 	C 	0.00120 0.31304 0.91179 0.03600
C 	C 	0.93370 0.30990 0.88830 -0.08400
H 	H 	0.89770 0.29860 0.89600 0.06600
C 	C 	0.91890 0.32334 0.85350 0.04100
H 	H 	0.87270 0.32120 0.83850 0.02900
C 	C 	0.97190 0.33953 0.84128 -0.12000
C 	C 	0.03970 0.34305 0.86340 0.01200
H 	H 	0.07570 0.35410 0.85470 0.02900
C 	C 	0.05440 0.33019 0.89846 -0.10900
H 	H 	0.10000 0.33290 0.91350 0.06400
C 	C 	0.95550 0.35541 0.80380 0.50800
C 	C 	0.10030 0.30750 0.05716 0.17700
C 	C 	0.09510 0.33035 0.06370 -0.24100
H 	H 	0.06840 0.33940 0.04460 0.10700
C 	C 	0.12900 0.34108 0.09880 0.16700
H 	H 	0.12410 0.35700 0.10240 -0.02200
C 	C 	0.16640 0.32903 0.12585 -0.24600
C 	C 	0.16850 0.30653 0.12030 0.18500
H 	H 	0.19310 0.29750 0.14020 -0.02900
C 	C 	0.13640 0.29588 0.08680 -0.26300
H 	H 	0.14000 0.27990 0.08470 0.11500
C 	C 	0.20280 0.34051 0.16370 0.40800
C 	C 	0.25120 0.48692 0.98652 0.02800
C 	C 	0.23280 0.47405 0.95178 -0.08500
H 	H 	0.21880 0.48170 0.92760 0.05400
C 	C 	0.23480 0.44993 0.95204 -0.00700
C 	C 	0.25750 0.43885 0.98838 -0.07900
H 	H 	0.25970 0.42280 0.98910 0.05400
C 	C 	0.27670 0.45130 0.02348 0.01300
C 	C 	0.27530 0.47512 0.02206 -0.09500
H 	H 	0.29070 0.48350 0.04520 0.06000
C 	C 	0.21570 0.43651 0.91421 0.13200
C 	C 	0.26050 0.41729 0.90390 -0.22200
H 	H 	0.30190 0.41300 0.92100 0.10300
C 	C 	0.24530 0.40462 0.86960 0.16300
H 	H 	0.27510 0.39160 0.86350 -0.03000
C 	C 	0.18430 0.41143 0.84340 -0.27500
C 	C 	0.14110 0.42953 0.85350 0.18800
H 	H 	0.09900 0.43360 0.83660 -0.04200
C 	C 	0.15660 0.44267 0.88835 -0.23400
H 	H 	0.12650 0.45570 0.89400 0.10300
C 	C 	0.16990 0.39810 0.80290 0.57600
C 	C 	0.30180 0.43939 0.06261 0.08400
C 	C 	0.36390 0.44811 0.08544 -0.16200
H 	H 	0.39020 0.46130 0.07650 0.08300
C 	C 	0.38680 0.43716 0.12166 0.09800
H 	H 	0.42950 0.44270 0.13660 -0.00000
C 	C 	0.34610 0.41790 0.13565 -0.19900
C 	C 	0.28490 0.40951 0.11302 0.09800
H 	H 	0.25740 0.39660 0.12230 0.01000
C 	C 	0.26280 0.42013 0.07571 -0.16300
H 	H 	0.22190 0.41410 0.06010 0.08400
C 	C 	0.36980 0.40731 0.17720 0.52000
Gd	Gd	0.23170 0.86424 0.26942 1.41100
O 	O 	0.99580 0.86999 0.29508 -0.46300
O 	O 	0.10790 0.85140 0.28573 -0.47600
O 	O 	0.80360 0.86211 0.66636 -0.41000
O 	O 	0.76780 0.82978 0.69129 -0.42600
O 	O 	0.88530 0.90515 0.28137 -0.55200
O 	O 	0.79000 0.88205 0.29460 -0.54300
O 	O 	0.67580 0.89300 0.69090 -0.49800
O 	O 	0.56840 0.91354 0.69298 -0.51700
C 	C 	0.98940 0.76239 0.48641 0.18700
C 	C 	0.00210 0.77594 0.45022 -0.24900
H 	H 	0.02390 0.76920 0.42680 0.10600
C 	C 	0.98230 0.79906 0.44979 0.10900
C 	C 	0.94840 0.80917 0.48318 -0.15100
H 	H 	0.93330 0.82460 0.48210 0.08100
C 	C 	0.93610 0.79600 0.52030 0.07000
C 	C 	0.95600 0.77263 0.52003 -0.18900
H 	H 	0.94630 0.76380 0.54340 0.10000
C 	C 	0.99880 0.81304 0.41179 0.09400
C 	C 	0.06630 0.80990 0.38830 -0.20100
H 	H 	0.10230 0.79860 0.39600 0.09400
C 	C 	0.08110 0.82334 0.35350 0.12700
H 	H 	0.12730 0.82120 0.33850 -0.00400
C 	C 	0.02810 0.83953 0.34128 -0.23000
C 	C 	0.96030 0.84305 0.36340 0.15000
H 	H 	0.92430 0.85410 0.35470 -0.01000
C 	C 	0.94560 0.83019 0.39846 -0.17600
H 	H 	0.90000 0.83290 0.41350 0.08900
C 	C 	0.04450 0.85541 0.30380 0.46700
C 	C 	0.89970 0.80750 0.55716 0.07600
C 	C 	0.90490 0.83035 0.56370 -0.15200
H 	H 	0.93160 0.83940 0.54460 0.08200
C 	C 	0.87100 0.84108 0.59880 0.09500
H 	H 	0.87590 0.85700 0.60240 0.00900
C 	C 	0.83360 0.82903 0.62585 -0.17700
C 	C 	0.83150 0.80653 0.62030 0.10400
H 	H 	0.80690 0.79750 0.64020 0.00300
C 	C 	0.86360 0.79588 0.58680 -0.16400
H 	H 	0.86000 0.77990 0.58470 0.08500
C 	C 	0.79720 0.84051 0.66370 0.38400
C 	C 	0.74880 0.98692 0.48652 0.03100
C 	C 	0.76720 0.97405 0.45178 -0.08500
H 	H 	0.78120 0.98170 0.42760 0.05800
C 	C 	0.76520 0.94993 0.45204 -0.00300
C 	C 	0.74250 0.93885 0.48838 -0.07900
H 	H 	0.74030 0.92280 0.48910 0.05600
C 	C 	0.72330 0.95130 0.52348 0.01500
C 	C 	0.72470 0.97512 0.52206 -0.09400
H 	H 	0.70930 0.98350 0.54520 0.06100
C 	C 	0.78430 0.93651 0.41421 0.13100
C 	C 	0.73950 0.91729 0.40390 -0.21700
H 	H 	0.69810 0.91300 0.42100 0.10200
C 	C 	0.75470 0.90462 0.36960 0.16000
H 	H 	0.72490 0.89160 0.36350 -0.02800
C 	C 	0.81570 0.91143 0.34340 -0.26700
C 	C 	0.85890 0.92953 0.35350 0.18500
H 	H 	0.90100 0.93360 0.33660 -0.02900
C 	C 	0.84340 0.94267 0.38835 -0.22700
H 	H 	0.87350 0.95570 0.39400 0.11000
C 	C 	0.83010 0.89810 0.30290 0.57300
C 	C 	0.69820 0.93939 0.56261 0.08600
C 	C 	0.63610 0.94811 0.58544 -0.16200
H 	H 	0.60980 0.96130 0.57650 0.08400
C 	C 	0.61320 0.93716 0.62166 0.10000
H 	H 	0.57050 0.94270 0.63660 -0.00000
C 	C 	0.65390 0.91790 0.63565 -0.19900
C 	C 	0.71510 0.90951 0.61302 0.10100
H 	H 	0.74260 0.89660 0.62230 0.01100
C 	C 	0.73720 0.92013 0.57571 -0.16300
H 	H 	0.77810 0.91410 0.56010 0.08800
C 	C 	0.63020 0.90731 0.67720 0.52200
Gd	Gd	0.73170 0.36424 0.26942 1.42100
O 	O 	0.49580 0.36999 0.29508 -0.50200
O 	O 	0.60790 0.35140 0.28573 -0.48100
O 	O 	0.30360 0.36211 0.66636 -0.41600
O 	O 	0.26780 0.32978 0.69129 -0.43200
O 	O 	0.38530 0.40515 0.28137 -0.56900
O 	O 	0.29000 0.38205 0.29460 -0.54900
O 	O 	0.17580 0.39300 0.69090 -0.49800
O 	O 	0.06840 0.41354 0.69298 -0.51900
C 	C 	0.48940 0.26239 0.48641 0.03200
C 	C 	0.50210 0.27594 0.45022 -0.10000
H 	H 	0.52390 0.26920 0.42680 0.06400
C 	C 	0.48230 0.29906 0.44979 0.02500
C 	C 	0.44840 0.30917 0.48318 -0.08500
H 	H 	0.43330 0.32460 0.48210 0.05600
C 	C 	0.43610 0.29600 0.52030 -0.00300
C 	C 	0.45600 0.27263 0.52003 -0.08800
H 	H 	0.44630 0.26380 0.54340 0.05600
C 	C 	0.49880 0.31304 0.41179 0.06500
C 	C 	0.56630 0.30990 0.38830 -0.14300
H 	H 	0.60230 0.29860 0.39600 0.08100
C 	C 	0.58110 0.32334 0.35350 0.08600
H 	H 	0.62730 0.32120 0.33850 0.01200
C 	C 	0.52810 0.33953 0.34128 -0.17700
C 	C 	0.46030 0.34305 0.36340 0.08200
H 	H 	0.42430 0.35410 0.35470 0.00900
C 	C 	0.44560 0.33019 0.39846 -0.14300
H 	H 	0.40000 0.33290 0.41350 0.07600
C 	C 	0.54450 0.35541 0.30380 0.49100
C 	C 	0.39970 0.30750 0.55716 0.12700
C 	C 	0.40490 0.33035 0.56370 -0.19800
H 	H 	0.43160 0.33940 0.54460 0.09500
C 	C 	0.37100 0.34108 0.59880 0.13100
H 	H 	0.37590 0.35700 0.60240 -0.00700
C 	C 	0.33360 0.32903 0.62585 -0.21300
C 	C 	0.33150 0.30653 0.62030 0.14500
H 	H 	0.30690 0.29750 0.64020 -0.01500
C 	C 	0.36360 0.29588 0.58680 -0.21500
H 	H 	0.36000 0.27990 0.58470 0.10000
C 	C 	0.29720 0.34051 0.66370 0.39600
C 	C 	0.24880 0.48692 0.48652 0.02800
C 	C 	0.26720 0.47405 0.45178 -0.08500
H 	H 	0.28120 0.48170 0.42760 0.05500
C 	C 	0.26520 0.44993 0.45204 -0.00800
C 	C 	0.24250 0.43885 0.48838 -0.07800
H 	H 	0.24030 0.42280 0.48910 0.05300
C 	C 	0.22330 0.45130 0.52348 0.01100
C 	C 	0.22470 0.47512 0.52206 -0.09400
H 	H 	0.20930 0.48350 0.54520 0.05900
C 	C 	0.28430 0.43651 0.41421 0.13300
C 	C 	0.23950 0.41729 0.40390 -0.22300
H 	H 	0.19810 0.41300 0.42100 0.10000
C 	C 	0.25470 0.40462 0.36960 0.16400
H 	H 	0.22490 0.39160 0.36350 -0.03300
C 	C 	0.31570 0.41143 0.34340 -0.27700
C 	C 	0.35890 0.42953 0.35350 0.19000
H 	H 	0.40100 0.43360 0.33660 -0.03800
C 	C 	0.34340 0.44267 0.38835 -0.23400
H 	H 	0.37350 0.45570 0.39400 0.10800
C 	C 	0.33010 0.39810 0.30290 0.58000
C 	C 	0.19820 0.43939 0.56261 0.08400
C 	C 	0.13610 0.44811 0.58544 -0.16500
H 	H 	0.10980 0.46130 0.57650 0.08000
C 	C 	0.11320 0.43716 0.62166 0.09800
H 	H 	0.07050 0.44270 0.63660 -0.00600
C 	C 	0.15390 0.41790 0.63565 -0.20200
C 	C 	0.21510 0.40951 0.61302 0.09900
H 	H 	0.24260 0.39660 0.62230 0.00900
C 	C 	0.23720 0.42013 0.57571 -0.16500
H 	H 	0.27810 0.41410 0.56010 0.08600
C 	C 	0.13020 0.40731 0.67720 0.51900
Gd	Gd	0.26830 0.13576 0.26942 1.40800
O 	O 	0.50420 0.13001 0.29508 -0.50200
O 	O 	0.39210 0.14860 0.28573 -0.48000
O 	O 	0.69640 0.13789 0.66636 -0.41600
O 	O 	0.73220 0.17022 0.69129 -0.43100
O 	O 	0.61470 0.09485 0.28137 -0.56800
O 	O 	0.71000 0.11795 0.29460 -0.54500
O 	O 	0.82420 0.10700 0.69090 -0.49400
O 	O 	0.93160 0.08646 0.69298 -0.49600
C 	C 	0.51060 0.23761 0.48641 0.03300
C 	C 	0.49790 0.22406 0.45022 -0.09900
H 	H 	0.47610 0.23080 0.42680 0.06300
C 	C 	0.51770 0.20094 0.44979 0.02600
C 	C 	0.55160 0.19083 0.48318 -0.08500
H 	H 	0.56670 0.17540 0.48210 0.05700
C 	C 	0.56390 0.20400 0.52030 -0.00100
C 	C 	0.54400 0.22737 0.52003 -0.08800
H 	H 	0.55370 0.23620 0.54340 0.05700
C 	C 	0.50120 0.18696 0.41179 0.06600
C 	C 	0.43370 0.19010 0.38830 -0.14300
H 	H 	0.39770 0.20140 0.39600 0.08000
C 	C 	0.41890 0.17666 0.35350 0.08500
H 	H 	0.37270 0.17880 0.33850 0.01200
C 	C 	0.47190 0.16047 0.34128 -0.17700
C 	C 	0.53970 0.15695 0.36340 0.08300
H 	H 	0.57570 0.14590 0.35470 0.01000
C 	C 	0.55440 0.16981 0.39846 -0.14300
H 	H 	0.60000 0.16710 0.41350 0.07800
C 	C 	0.45550 0.14459 0.30380 0.49100
C 	C 	0.60030 0.19250 0.55716 0.12600
C 	C 	0.59510 0.16965 0.56370 -0.19600
H 	H 	0.56840 0.16060 0.54460 0.09500
C 	C 	0.62900 0.15892 0.59880 0.13100
H 	H 	0.62410 0.14300 0.60240 -0.00600
C 	C 	0.66640 0.17097 0.62585 -0.21000
C 	C 	0.66850 0.19347 0.62030 0.14400
H 	H 	0.69310 0.20250 0.64020 -0.01200
C 	C 	0.63640 0.20412 0.58680 -0.21300
H 	H 	0.64000 0.22010 0.58470 0.10100
C 	C 	0.70280 0.15949 0.66370 0.39600
C 	C 	0.75120 0.01308 0.48652 0.03100
C 	C 	0.73280 0.02595 0.45178 -0.08500
H 	H 	0.71880 0.01830 0.42760 0.05700
C 	C 	0.73480 0.05007 0.45204 -0.00400
C 	C 	0.75750 0.06115 0.48838 -0.07900
H 	H 	0.75970 0.07720 0.48910 0.05700
C 	C 	0.77670 0.04870 0.52348 0.01600
C 	C 	0.77530 0.02488 0.52206 -0.09400
H 	H 	0.79070 0.01650 0.54520 0.06200
C 	C 	0.71570 0.06349 0.41421 0.13400
C 	C 	0.76050 0.08271 0.40390 -0.22100
H 	H 	0.80190 0.08700 0.42100 0.10600
C 	C 	0.74530 0.09538 0.36960 0.16500
H 	H 	0.77510 0.10840 0.36350 -0.02700
C 	C 	0.68430 0.08857 0.34340 -0.27400
C 	C 	0.64110 0.07047 0.35350 0.19000
H 	H 	0.59900 0.06640 0.33660 -0.03700
C 	C 	0.65660 0.05733 0.38835 -0.23300
H 	H 	0.62650 0.04430 0.39400 0.10800
C 	C 	0.66990 0.10190 0.30290 0.58000
C 	C 	0.80180 0.06061 0.56261 0.08400
C 	C 	0.86390 0.05189 0.58544 -0.15700
H 	H 	0.89020 0.03870 0.57650 0.08700
C 	C 	0.88680 0.06284 0.62166 0.09700
H 	H 	0.92950 0.05730 0.63660 0.00700
C 	C 	0.84610 0.08210 0.63565 -0.19200
C 	C 	0.78490 0.09049 0.61302 0.09600
H 	H 	0.75740 0.10340 0.62230 0.01200
C 	C 	0.76280 0.07987 0.57571 -0.15900
H 	H 	0.72190 0.08590 0.56010 0.08500
C 	C 	0.86980 0.09269 0.67720 0.51600
Gd	Gd	0.76830 0.63576 0.26942 1.41800
O 	O 	0.00420 0.63001 0.29508 -0.52200
O 	O 	0.89210 0.64860 0.28573 -0.48100
O 	O 	0.19640 0.63789 0.66636 -0.42100
O 	O 	0.23220 0.67022 0.69129 -0.43700
O 	O 	0.11470 0.59485 0.28137 -0.56400
O 	O 	0.21000 0.61795 0.29460 -0.54600
O 	O 	0.32420 0.60700 0.69090 -0.49800
O 	O 	0.43160 0.58646 0.69298 -0.51700
C 	C 	0.01060 0.73761 0.48641 -0.12200
C 	C 	0.99790 0.72406 0.45022 0.05000
H 	H 	0.97610 0.73080 0.42680 0.02100
C 	C 	0.01770 0.70094 0.44979 -0.05800
C 	C 	0.05160 0.69083 0.48318 -0.02000
H 	H 	0.06670 0.67540 0.48210 0.03200
C 	C 	0.06390 0.70400 0.52030 -0.07500
C 	C 	0.04400 0.72737 0.52003 0.01200
H 	H 	0.05370 0.73620 0.54340 0.01300
C 	C 	0.00120 0.68696 0.41179 0.03600
C 	C 	0.93370 0.69010 0.38830 -0.08400
H 	H 	0.89770 0.70140 0.39600 0.06600
C 	C 	0.91890 0.67666 0.35350 0.04100
H 	H 	0.87270 0.67880 0.33850 0.02900
C 	C 	0.97190 0.66047 0.34128 -0.12000
C 	C 	0.03970 0.65695 0.36340 0.01200
H 	H 	0.07570 0.64590 0.35470 0.02900
C 	C 	0.05440 0.66981 0.39846 -0.10900
H 	H 	0.10000 0.66710 0.41350 0.06400
C 	C 	0.95550 0.64459 0.30380 0.50800
C 	C 	0.10030 0.69250 0.55716 0.17700
C 	C 	0.09510 0.66965 0.56370 -0.24200
H 	H 	0.06840 0.66060 0.54460 0.10700
C 	C 	0.12900 0.65892 0.59880 0.16800
H 	H 	0.12410 0.64300 0.60240 -0.02200
C 	C 	0.16640 0.67097 0.62585 -0.24600
C 	C 	0.16850 0.69347 0.62030 0.18500
H 	H 	0.19310 0.70250 0.64020 -0.02900
C 	C 	0.13640 0.70412 0.58680 -0.26400
H 	H 	0.14000 0.72010 0.58470 0.11500
C 	C 	0.20280 0.65949 0.66370 0.40800
C 	C 	0.25120 0.51308 0.48652 0.02800
C 	C 	0.23280 0.52595 0.45178 -0.08500
H 	H 	0.21880 0.51830 0.42760 0.05400
C 	C 	0.23480 0.55007 0.45204 -0.00700
C 	C 	0.25750 0.56115 0.48838 -0.07900
H 	H 	0.25970 0.57720 0.48910 0.05400
C 	C 	0.27670 0.54870 0.52348 0.01300
C 	C 	0.27530 0.52488 0.52206 -0.09500
H 	H 	0.29070 0.51650 0.54520 0.06000
C 	C 	0.21570 0.56349 0.41421 0.13200
C 	C 	0.26050 0.58271 0.40390 -0.22200
H 	H 	0.30190 0.58700 0.42100 0.10300
C 	C 	0.24530 0.59538 0.36960 0.16300
H 	H 	0.27510 0.60840 0.36350 -0.03000
C 	C 	0.18430 0.58857 0.34340 -0.27500
C 	C 	0.14110 0.57047 0.35350 0.18800
H 	H 	0.09900 0.56640 0.33660 -0.04200
C 	C 	0.15660 0.55733 0.38835 -0.23400
H 	H 	0.12650 0.54430 0.39400 0.10300
C 	C 	0.16990 0.60190 0.30290 0.57600
C 	C 	0.30180 0.56061 0.56261 0.08400
C 	C 	0.36390 0.55189 0.58544 -0.16200
H 	H 	0.39020 0.53870 0.57650 0.08300
C 	C 	0.38680 0.56284 0.62166 0.09800
H 	H 	0.42950 0.55730 0.63660 -0.00000
C 	C 	0.34610 0.58210 0.63565 -0.19900
C 	C 	0.28490 0.59049 0.61302 0.09800
H 	H 	0.25740 0.60340 0.62230 0.01000
C 	C 	0.26280 0.57987 0.57571 -0.16300
H 	H 	0.22190 0.58590 0.56010 0.08400
C 	C 	0.36980 0.59269 0.67720 0.52000
Gd	Gd	0.76830 0.86424 0.23058 1.41800
O 	O 	0.00420 0.86999 0.20492 -0.52200
O 	O 	0.89210 0.85140 0.21427 -0.48100
O 	O 	0.19640 0.86211 0.83364 -0.42100
O 	O 	0.23220 0.82978 0.80871 -0.43700
O 	O 	0.11470 0.90515 0.21863 -0.56400
O 	O 	0.21000 0.88205 0.20540 -0.54600
O 	O 	0.32420 0.89300 0.80910 -0.49800
O 	O 	0.43160 0.91354 0.80702 -0.51700
C 	C 	0.01060 0.76239 0.01359 -0.12200
C 	C 	0.99790 0.77594 0.04978 0.04900
H 	H 	0.97610 0.76920 0.07320 0.02200
C 	C 	0.01770 0.79906 0.05021 -0.05700
C 	C 	0.05160 0.80917 0.01682 -0.02000
H 	H 	0.06670 0.82460 0.01790 0.03200
C 	C 	0.06390 0.79600 0.97970 -0.07400
C 	C 	0.04400 0.77263 0.97997 0.01200
H 	H 	0.05370 0.76380 0.95660 0.01300
C 	C 	0.00120 0.81304 0.08821 0.03600
C 	C 	0.93370 0.80990 0.11170 -0.08400
H 	H 	0.89770 0.79860 0.10400 0.06600
C 	C 	0.91890 0.82334 0.14650 0.04100
H 	H 	0.87270 0.82120 0.16150 0.02900
C 	C 	0.97190 0.83953 0.15872 -0.12000
C 	C 	0.03970 0.84305 0.13660 0.01200
H 	H 	0.07570 0.85410 0.14530 0.02900
C 	C 	0.05440 0.83019 0.10154 -0.10900
H 	H 	0.10000 0.83290 0.08650 0.06400
C 	C 	0.95550 0.85541 0.19620 0.50800
C 	C 	0.10030 0.80750 0.94284 0.17700
C 	C 	0.09510 0.83035 0.93630 -0.24100
H 	H 	0.06840 0.83940 0.95540 0.10700
C 	C 	0.12900 0.84108 0.90120 0.16700
H 	H 	0.12410 0.85700 0.89760 -0.02200
C 	C 	0.16640 0.82903 0.87415 -0.24600
C 	C 	0.16850 0.80653 0.87970 0.18500
H 	H 	0.19310 0.79750 0.85980 -0.02900
C 	C 	0.13640 0.79588 0.91320 -0.26300
H 	H 	0.14000 0.77990 0.91530 0.11500
C 	C 	0.20280 0.84051 0.83630 0.40800
C 	C 	0.25120 0.98692 0.01348 0.02800
C 	C 	0.23280 0.97405 0.04822 -0.08500
H 	H 	0.21880 0.98170 0.07240 0.05400
C 	C 	0.23480 0.94993 0.04796 -0.00700
C 	C 	0.25750 0.93885 0.01162 -0.07900
H 	H 	0.25970 0.92280 0.01090 0.05400
C 	C 	0.27670 0.95130 0.97652 0.01300
C 	C 	0.27530 0.97512 0.97794 -0.09500
H 	H 	0.29070 0.98350 0.95480 0.06000
C 	C 	0.21570 0.93651 0.08579 0.13200
C 	C 	0.26050 0.91729 0.09610 -0.22200
H 	H 	0.30190 0.91300 0.07900 0.10300
C 	C 	0.24530 0.90462 0.13040 0.16300
H 	H 	0.27510 0.89160 0.13650 -0.03000
C 	C 	0.18430 0.91143 0.15660 -0.27500
C 	C 	0.14110 0.92953 0.14650 0.18800
H 	H 	0.09900 0.93360 0.16340 -0.04200
C 	C 	0.15660 0.94267 0.11165 -0.23400
H 	H 	0.12650 0.95570 0.10600 0.10300
C 	C 	0.16990 0.89810 0.19710 0.57600
C 	C 	0.30180 0.93939 0.93739 0.08400
C 	C 	0.36390 0.94811 0.91456 -0.16200
H 	H 	0.39020 0.96130 0.92350 0.08300
C 	C 	0.38680 0.93716 0.87834 0.09800
H 	H 	0.42950 0.94270 0.86340 -0.00000
C 	C 	0.34610 0.91790 0.86435 -0.19900
C 	C 	0.28490 0.90951 0.88698 0.09800
H 	H 	0.25740 0.89660 0.87770 0.01000
C 	C 	0.26280 0.92013 0.92429 -0.16300
H 	H 	0.22190 0.91410 0.93990 0.08400
C 	C 	0.36980 0.90731 0.82280 0.52000
Gd	Gd	0.26830 0.36424 0.23058 1.40800
O 	O 	0.50420 0.36999 0.20492 -0.50200
O 	O 	0.39210 0.35140 0.21427 -0.48000
O 	O 	0.69640 0.36211 0.83364 -0.41600
O 	O 	0.73220 0.32978 0.80871 -0.43100
O 	O 	0.61470 0.40515 0.21863 -0.56800
O 	O 	0.71000 0.38205 0.20540 -0.54500
O 	O 	0.82420 0.39300 0.80910 -0.49400
O 	O 	0.93160 0.41354 0.80702 -0.49600
C 	C 	0.51060 0.26239 0.01359 0.03200
C 	C 	0.49790 0.27594 0.04978 -0.09900
H 	H 	0.47610 0.26920 0.07320 0.06300
C 	C 	0.51770 0.29906 0.05021 0.02600
C 	C 	0.55160 0.30917 0.01682 -0.08500
H 	H 	0.56670 0.32460 0.01790 0.05700
C 	C 	0.56390 0.29600 0.97970 -0.00100
C 	C 	0.54400 0.27263 0.97997 -0.08800
H 	H 	0.55370 0.26380 0.95660 0.05700
C 	C 	0.50120 0.31304 0.08821 0.06500
C 	C 	0.43370 0.30990 0.11170 -0.14300
H 	H 	0.39770 0.29860 0.10400 0.08000
C 	C 	0.41890 0.32334 0.14650 0.08500
H 	H 	0.37270 0.32120 0.16150 0.01200
C 	C 	0.47190 0.33953 0.15872 -0.17700
C 	C 	0.53970 0.34305 0.13660 0.08300
H 	H 	0.57570 0.35410 0.14530 0.01000
C 	C 	0.55440 0.33019 0.10154 -0.14300
H 	H 	0.60000 0.33290 0.08650 0.07800
C 	C 	0.45550 0.35541 0.19620 0.49100
C 	C 	0.60030 0.30750 0.94284 0.12600
C 	C 	0.59510 0.33035 0.93630 -0.19600
H 	H 	0.56840 0.33940 0.95540 0.09500
C 	C 	0.62900 0.34108 0.90120 0.13100
H 	H 	0.62410 0.35700 0.89760 -0.00600
C 	C 	0.66640 0.32903 0.87415 -0.21000
C 	C 	0.66850 0.30653 0.87970 0.14400
H 	H 	0.69310 0.29750 0.85980 -0.01200
C 	C 	0.63640 0.29588 0.91320 -0.21300
H 	H 	0.64000 0.27990 0.91530 0.10100
C 	C 	0.70280 0.34051 0.83630 0.39600
C 	C 	0.75120 0.48692 0.01348 0.03100
C 	C 	0.73280 0.47405 0.04822 -0.08500
H 	H 	0.71880 0.48170 0.07240 0.05700
C 	C 	0.73480 0.44993 0.04796 -0.00400
C 	C 	0.75750 0.43885 0.01162 -0.07900
H 	H 	0.75970 0.42280 0.01090 0.05700
C 	C 	0.77670 0.45130 0.97652 0.01600
C 	C 	0.77530 0.47512 0.97794 -0.09400
H 	H 	0.79070 0.48350 0.95480 0.06200
C 	C 	0.71570 0.43651 0.08579 0.13400
C 	C 	0.76050 0.41729 0.09610 -0.22100
H 	H 	0.80190 0.41300 0.07900 0.10600
C 	C 	0.74530 0.40462 0.13040 0.16500
H 	H 	0.77510 0.39160 0.13650 -0.02700
C 	C 	0.68430 0.41143 0.15660 -0.27400
C 	C 	0.64110 0.42953 0.14650 0.19000
H 	H 	0.59900 0.43360 0.16340 -0.03700
C 	C 	0.65660 0.44267 0.11165 -0.23300
H 	H 	0.62650 0.45570 0.10600 0.10800
C 	C 	0.66990 0.39810 0.19710 0.58000
C 	C 	0.80180 0.43939 0.93739 0.08400
C 	C 	0.86390 0.44811 0.91456 -0.15700
H 	H 	0.89020 0.46130 0.92350 0.08700
C 	C 	0.88680 0.43716 0.87834 0.09600
H 	H 	0.92950 0.44270 0.86340 0.00700
C 	C 	0.84610 0.41790 0.86435 -0.19200
C 	C 	0.78490 0.40951 0.88698 0.09600
H 	H 	0.75740 0.39660 0.87770 0.01200
C 	C 	0.76280 0.42013 0.92429 -0.15900
H 	H 	0.72190 0.41410 0.93990 0.08500
C 	C 	0.86980 0.40731 0.82280 0.51600
Gd	Gd	0.73170 0.13576 0.23058 1.42100
O 	O 	0.49580 0.13001 0.20492 -0.50200
O 	O 	0.60790 0.14860 0.21427 -0.48100
O 	O 	0.30360 0.13789 0.83364 -0.41600
O 	O 	0.26780 0.17022 0.80871 -0.43200
O 	O 	0.38530 0.09485 0.21863 -0.56900
O 	O 	0.29000 0.11795 0.20540 -0.54900
O 	O 	0.17580 0.10700 0.80910 -0.49800
O 	O 	0.06840 0.08646 0.80702 -0.51900
C 	C 	0.48940 0.23761 0.01359 0.03200
C 	C 	0.50210 0.22406 0.04978 -0.10000
H 	H 	0.52390 0.23080 0.07320 0.06400
C 	C 	0.48230 0.20094 0.05021 0.02500
C 	C 	0.44840 0.19083 0.01682 -0.08500
H 	H 	0.43330 0.17540 0.01790 0.05600
C 	C 	0.43610 0.20400 0.97970 -0.00300
C 	C 	0.45600 0.22737 0.97997 -0.08800
H 	H 	0.44630 0.23620 0.95660 0.05600
C 	C 	0.49880 0.18696 0.08821 0.06500
C 	C 	0.56630 0.19010 0.11170 -0.14300
H 	H 	0.60230 0.20140 0.10400 0.08100
C 	C 	0.58110 0.17666 0.14650 0.08600
H 	H 	0.62730 0.17880 0.16150 0.01200
C 	C 	0.52810 0.16047 0.15872 -0.17700
C 	C 	0.46030 0.15695 0.13660 0.08200
H 	H 	0.42430 0.14590 0.14530 0.00900
C 	C 	0.44560 0.16981 0.10154 -0.14300
H 	H 	0.40000 0.16710 0.08650 0.07600
C 	C 	0.54450 0.14459 0.19620 0.49100
C 	C 	0.39970 0.19250 0.94284 0.12700
C 	C 	0.40490 0.16965 0.93630 -0.19800
H 	H 	0.43160 0.16060 0.95540 0.09500
C 	C 	0.37100 0.15892 0.90120 0.13100
H 	H 	0.37590 0.14300 0.89760 -0.00700
C 	C 	0.33360 0.17097 0.87415 -0.21300
C 	C 	0.33150 0.19347 0.87970 0.14500
H 	H 	0.30690 0.20250 0.85980 -0.01500
C 	C 	0.36360 0.20412 0.91320 -0.21500
H 	H 	0.36000 0.22010 0.91530 0.10000
C 	C 	0.29720 0.15949 0.83630 0.39600
C 	C 	0.24880 0.01308 0.01348 0.02800
C 	C 	0.26720 0.02595 0.04822 -0.08500
H 	H 	0.28120 0.01830 0.07240 0.05500
C 	C 	0.26520 0.05007 0.04796 -0.00800
C 	C 	0.24250 0.06115 0.01162 -0.07800
H 	H 	0.24030 0.07720 0.01090 0.05300
C 	C 	0.22330 0.04870 0.97652 0.01100
C 	C 	0.22470 0.02488 0.97794 -0.09400
H 	H 	0.20930 0.01650 0.95480 0.05900
C 	C 	0.28430 0.06349 0.08579 0.13300
C 	C 	0.23950 0.08271 0.09610 -0.22300
H 	H 	0.19810 0.08700 0.07900 0.10000
C 	C 	0.25470 0.09538 0.13040 0.16400
H 	H 	0.22490 0.10840 0.13650 -0.03300
C 	C 	0.31570 0.08857 0.15660 -0.27700
C 	C 	0.35890 0.07047 0.14650 0.19000
H 	H 	0.40100 0.06640 0.16340 -0.03800
C 	C 	0.34340 0.05733 0.11165 -0.23400
H 	H 	0.37350 0.04430 0.10600 0.10800
C 	C 	0.33010 0.10190 0.19710 0.58000
C 	C 	0.19820 0.06061 0.93739 0.08400
C 	C 	0.13610 0.05189 0.91456 -0.16500
H 	H 	0.10980 0.03870 0.92350 0.08000
C 	C 	0.11320 0.06284 0.87834 0.09800
H 	H 	0.07050 0.05730 0.86340 -0.00600
C 	C 	0.15390 0.08210 0.86435 -0.20200
C 	C 	0.21510 0.09049 0.88698 0.09900
H 	H 	0.24260 0.10340 0.87770 0.00900
C 	C 	0.23720 0.07987 0.92429 -0.16500
H 	H 	0.27810 0.08590 0.93990 0.08600
C 	C 	0.13020 0.09269 0.82280 0.51900
Gd	Gd	0.23170 0.63576 0.23058 1.41100
O 	O 	0.99580 0.63001 0.20492 -0.46400
O 	O 	0.10790 0.64860 0.21427 -0.47600
O 	O 	0.80360 0.63789 0.83364 -0.41100
O 	O 	0.76780 0.67022 0.80871 -0.42600
O 	O 	0.88530 0.59485 0.21863 -0.55200
O 	O 	0.79000 0.61795 0.20540 -0.54300
O 	O 	0.67580 0.60700 0.80910 -0.49800
O 	O 	0.56840 0.58646 0.80702 -0.51700
C 	C 	0.98940 0.73761 0.01359 0.18600
C 	C 	0.00210 0.72406 0.04978 -0.24900
H 	H 	0.02390 0.73080 0.07320 0.10600
C 	C 	0.98230 0.70094 0.05021 0.10900
C 	C 	0.94840 0.69083 0.01682 -0.15000
H 	H 	0.93330 0.67540 0.01790 0.08100
C 	C 	0.93610 0.70400 0.97970 0.07000
C 	C 	0.95600 0.72737 0.97997 -0.18800
H 	H 	0.94630 0.73620 0.95660 0.09900
C 	C 	0.99880 0.68696 0.08821 0.09400
C 	C 	0.06630 0.69010 0.11170 -0.20100
H 	H 	0.10230 0.70140 0.10400 0.09400
C 	C 	0.08110 0.67666 0.14650 0.12700
H 	H 	0.12730 0.67880 0.16150 -0.00300
C 	C 	0.02810 0.66047 0.15872 -0.23000
C 	C 	0.96030 0.65695 0.13660 0.15000
H 	H 	0.92430 0.64590 0.14530 -0.01000
C 	C 	0.94560 0.66981 0.10154 -0.17600
H 	H 	0.90000 0.66710 0.08650 0.08900
C 	C 	0.04450 0.64459 0.19620 0.46700
C 	C 	0.89970 0.69250 0.94284 0.07600
C 	C 	0.90490 0.66965 0.93630 -0.15200
H 	H 	0.93160 0.66060 0.95540 0.08200
C 	C 	0.87100 0.65892 0.90120 0.09500
H 	H 	0.87590 0.64300 0.89760 0.00900
C 	C 	0.83360 0.67097 0.87415 -0.17700
C 	C 	0.83150 0.69347 0.87970 0.10400
H 	H 	0.80690 0.70250 0.85980 0.00200
C 	C 	0.86360 0.70412 0.91320 -0.16400
H 	H 	0.86000 0.72010 0.91530 0.08500
C 	C 	0.79720 0.65949 0.83630 0.38400
C 	C 	0.74880 0.51308 0.01348 0.03100
C 	C 	0.76720 0.52595 0.04822 -0.08500
H 	H 	0.78120 0.51830 0.07240 0.05800
C 	C 	0.76520 0.55007 0.04796 -0.00300
C 	C 	0.74250 0.56115 0.01162 -0.07900
H 	H 	0.74030 0.57720 0.01090 0.05600
C 	C 	0.72330 0.54870 0.97652 0.01500
C 	C 	0.72470 0.52488 0.97794 -0.09400
H 	H 	0.70930 0.51650 0.95480 0.06100
C 	C 	0.78430 0.56349 0.08579 0.13100
C 	C 	0.73950 0.58271 0.09610 -0.21700
H 	H 	0.69810 0.58700 0.07900 0.10200
C 	C 	0.75470 0.59538 0.13040 0.16000
H 	H 	0.72490 0.60840 0.13650 -0.02800
C 	C 	0.81570 0.58857 0.15660 -0.26700
C 	C 	0.85890 0.57047 0.14650 0.18500
H 	H 	0.90100 0.56640 0.16340 -0.02900
C 	C 	0.84340 0.55733 0.11165 -0.22700
H 	H 	0.87350 0.54430 0.10600 0.11000
C 	C 	0.83010 0.60190 0.19710 0.57300
C 	C 	0.69820 0.56061 0.93739 0.08600
C 	C 	0.63610 0.55189 0.91456 -0.16200
H 	H 	0.60980 0.53870 0.92350 0.08400
C 	C 	0.61320 0.56284 0.87834 0.10000
H 	H 	0.57050 0.55730 0.86340 -0.00000
C 	C 	0.65390 0.58210 0.86435 -0.19900
C 	C 	0.71510 0.59049 0.88698 0.10100
H 	H 	0.74260 0.60340 0.87770 0.01100
C 	C 	0.73720 0.57987 0.92429 -0.16300
H 	H 	0.77810 0.58590 0.93990 0.08800
C 	C 	0.63020 0.59269 0.82280 0.52200
Gd	Gd	-0.00000 0.09952 0.75000 1.75600
Gd	Gd	0.50000 0.59952 0.75000 1.81700
Gd	Gd	0.50000 0.90048 0.75000 1.81700
Gd	Gd	0.00000 0.40048 0.75000 1.75600
Gd	Gd	0.00000 0.90048 0.25000 1.75600
Gd	Gd	0.50000 0.40048 0.25000 1.81700
Gd	Gd	0.50000 0.09952 0.25000 1.81700
Gd	Gd	-0.00000 0.59952 0.25000 1.75600
