data_crystal

_cell_length_a 16.32570
_cell_length_b 59.16770
_cell_length_c 32.15080
_cell_angle_alpha 90.00000
_cell_angle_beta  90.00000
_cell_angle_gamma 90.00000

_symmetry_space_group_name_	'P 1'
_symmetry_space_group_name_H-M	'P 1'

loop_
_symmetry_equiv_pos_as_xyz
  x,y,z

loop_
_atom_site_label
_atom_site_type_symbol
_atom_site_fract_x
_atom_site_fract_y
_atom_site_fract_z
_atom_site_charge
Ho	Ho	0.76137 0.13427 0.72949 1.57200
O 	O 	0.00813 0.13063 0.70539 -0.54700
O 	O 	0.88850 0.14640 0.71318 -0.52500
O 	O 	0.19830 0.13789 0.33620 -0.43500
O 	O 	0.22657 0.16994 0.30754 -0.43300
O 	O 	0.11990 0.09533 0.71876 -0.59800
O 	O 	0.22720 0.11614 0.70764 -0.58700
O 	O 	0.31370 0.10509 0.30768 -0.53800
O 	O 	0.43109 0.08760 0.30751 -0.56100
C 	C 	0.00980 0.23760 0.51569 -0.12300
C 	C 	0.99772 0.22439 0.55114 0.06100
H 	H 	0.97620 0.23120 0.57480 0.01900
C 	C 	0.01710 0.20097 0.55231 -0.06700
C 	C 	0.05160 0.19124 0.51742 -0.02300
H 	H 	0.06630 0.17610 0.51790 0.03400
C 	C 	0.06480 0.20401 0.48123 -0.05500
C 	C 	0.04290 0.22737 0.48114 0.00200
H 	H 	0.05130 0.23590 0.45720 0.01700
C 	C 	0.00250 0.18716 0.58932 0.05500
C 	C 	0.93290 0.18973 0.61245 -0.10000
H 	H 	0.89550 0.20090 0.60520 0.07200
C 	C 	0.91660 0.17610 0.64636 0.06200
H 	H 	0.86830 0.17790 0.66130 0.02000
C 	C 	0.97270 0.15965 0.65808 -0.15200
C 	C 	0.04190 0.15701 0.63621 0.04000
H 	H 	0.07980 0.14600 0.64390 0.01400
C 	C 	0.05680 0.17062 0.60226 -0.13500
H 	H 	0.10520 0.16860 0.58750 0.07200
C 	C 	0.95600 0.14429 0.69531 0.54100
C 	C 	0.09950 0.19273 0.44393 0.12800
C 	C 	0.09640 0.16985 0.43857 -0.19200
H 	H 	0.07170 0.16110 0.45900 0.08900
C 	C 	0.12880 0.15907 0.40374 0.11100
H 	H 	0.12460 0.14350 0.40110 -0.00400
C 	C 	0.16550 0.17108 0.37441 -0.18900
C 	C 	0.16840 0.19325 0.37873 0.11200
H 	H 	0.19390 0.20180 0.35820 -0.00500
C 	C 	0.13430 0.20434 0.41324 -0.19800
H 	H 	0.13610 0.22000 0.41470 0.09200
C 	C 	0.20020 0.15947 0.33677 0.37100
C 	C 	0.25300 0.01299 0.51398 0.02700
C 	C 	0.23370 0.02572 0.54871 -0.08500
H 	H 	0.21710 0.01840 0.57290 0.05300
C 	C 	0.23850 0.04971 0.54857 -0.00600
C 	C 	0.26140 0.06070 0.51216 -0.07600
H 	H 	0.26520 0.07640 0.51150 0.05300
C 	C 	0.27830 0.04823 0.47700 0.00500
C 	C 	0.27540 0.02479 0.47830 -0.09100
H 	H 	0.28900 0.01670 0.45450 0.05800
C 	C 	0.22070 0.06290 0.58635 0.11900
C 	C 	0.26760 0.08180 0.59707 -0.21100
H 	H 	0.30980 0.08620 0.57940 0.09800
C 	C 	0.25400 0.09400 0.63247 0.16000
H 	H 	0.28660 0.10640 0.63860 -0.03000
C 	C 	0.19240 0.08784 0.65869 -0.26800
C 	C 	0.14250 0.06989 0.64784 0.16400
H 	H 	0.09750 0.06640 0.66440 -0.03700
C 	C 	0.15840 0.05711 0.61269 -0.21600
H 	H 	0.12650 0.04450 0.60690 0.09600
C 	C 	0.18050 0.10151 0.69859 0.59600
C 	C 	0.30300 0.06024 0.43788 0.10100
C 	C 	0.36670 0.05203 0.41405 -0.19300
H 	H 	0.39560 0.03930 0.42280 0.09300
C 	C 	0.38740 0.06235 0.37798 0.13600
H 	H 	0.43080 0.05680 0.36230 -0.01600
C 	C 	0.34440 0.08122 0.36406 -0.23200
C 	C 	0.28110 0.08973 0.38759 0.12200
H 	H 	0.25160 0.10230 0.37850 -0.00200
C 	C 	0.26200 0.07940 0.42484 -0.18300
H 	H 	0.22080 0.08540 0.44140 0.09000
C 	C 	0.36530 0.09257 0.32311 0.55800
Ho	Ho	0.26137 0.63427 0.72949 1.55900
O 	O 	0.50813 0.63063 0.70539 -0.52700
O 	O 	0.38850 0.64640 0.71318 -0.52700
O 	O 	0.69830 0.63789 0.33620 -0.43100
O 	O 	0.72657 0.66994 0.30754 -0.42900
O 	O 	0.61990 0.59533 0.71876 -0.60500
O 	O 	0.72720 0.61614 0.70764 -0.58700
O 	O 	0.81370 0.60509 0.30768 -0.53400
O 	O 	0.93109 0.58760 0.30751 -0.53700
C 	C 	0.50980 0.73760 0.51569 0.03000
C 	C 	0.49772 0.72439 0.55114 -0.08700
H 	H 	0.47620 0.73120 0.57480 0.05800
C 	C 	0.51710 0.70097 0.55231 0.00300
C 	C 	0.55160 0.69124 0.51742 -0.07800
H 	H 	0.56630 0.67610 0.51790 0.05400
C 	C 	0.56480 0.70401 0.48123 0.00700
C 	C 	0.54290 0.72737 0.48114 -0.08900
H 	H 	0.55130 0.73590 0.45720 0.05700
C 	C 	0.50250 0.68716 0.58932 0.10400
C 	C 	0.43290 0.68973 0.61245 -0.18200
H 	H 	0.39550 0.70090 0.60520 0.09300
C 	C 	0.41660 0.67610 0.64636 0.12300
H 	H 	0.36830 0.67790 0.66130 -0.00300
C 	C 	0.47270 0.65965 0.65808 -0.22700
C 	C 	0.54190 0.65701 0.63621 0.13400
H 	H 	0.57980 0.64600 0.64390 -0.01300
C 	C 	0.55680 0.67062 0.60226 -0.18800
H 	H 	0.60520 0.66860 0.58750 0.09300
C 	C 	0.45600 0.64429 0.69531 0.52700
C 	C 	0.59950 0.69273 0.44393 0.09000
C 	C 	0.59640 0.66985 0.43857 -0.15800
H 	H 	0.57170 0.66110 0.45900 0.08100
C 	C 	0.62880 0.65907 0.40374 0.08600
H 	H 	0.62460 0.64350 0.40110 0.00800
C 	C 	0.66550 0.67108 0.37441 -0.16400
C 	C 	0.66840 0.69325 0.37873 0.08700
H 	H 	0.69390 0.70180 0.35820 0.00700
C 	C 	0.63430 0.70434 0.41324 -0.16200
H 	H 	0.63610 0.72000 0.41470 0.08300
C 	C 	0.70020 0.65947 0.33677 0.36300
C 	C 	0.75300 0.51299 0.51398 0.03100
C 	C 	0.73370 0.52572 0.54871 -0.08500
H 	H 	0.71710 0.51840 0.57290 0.05600
C 	C 	0.73850 0.54971 0.54857 -0.00300
C 	C 	0.76140 0.56070 0.51216 -0.07600
H 	H 	0.76520 0.57640 0.51150 0.05600
C 	C 	0.77830 0.54823 0.47700 0.01000
C 	C 	0.77540 0.52479 0.47830 -0.09000
H 	H 	0.78900 0.51670 0.45450 0.06100
C 	C 	0.72070 0.56290 0.58635 0.12100
C 	C 	0.76760 0.58180 0.59707 -0.20900
H 	H 	0.80980 0.58620 0.57940 0.10200
C 	C 	0.75400 0.59400 0.63247 0.16200
H 	H 	0.78660 0.60640 0.63860 -0.02600
C 	C 	0.69240 0.58784 0.65869 -0.26600
C 	C 	0.64250 0.56989 0.64784 0.16600
H 	H 	0.59750 0.56640 0.66440 -0.03200
C 	C 	0.65840 0.55711 0.61269 -0.21400
H 	H 	0.62650 0.54450 0.60690 0.10100
C 	C 	0.68050 0.60151 0.69859 0.60100
C 	C 	0.80300 0.56024 0.43788 0.10000
C 	C 	0.86670 0.55203 0.41405 -0.18700
H 	H 	0.89560 0.53930 0.42280 0.09700
C 	C 	0.88740 0.56235 0.37798 0.13300
H 	H 	0.93080 0.55680 0.36230 -0.00700
C 	C 	0.84440 0.58122 0.36406 -0.22300
C 	C 	0.78110 0.58973 0.38759 0.12000
H 	H 	0.75160 0.60230 0.37850 0.00100
C 	C 	0.76200 0.57940 0.42484 -0.17800
H 	H 	0.72080 0.58540 0.44140 0.09100
C 	C 	0.86530 0.59257 0.32311 0.55300
Ho	Ho	0.73863 0.86573 0.72949 1.57600
O 	O 	0.49187 0.86937 0.70539 -0.52800
O 	O 	0.61150 0.85360 0.71318 -0.52800
O 	O 	0.30170 0.86211 0.33620 -0.43100
O 	O 	0.27343 0.83006 0.30754 -0.43000
O 	O 	0.38010 0.90467 0.71876 -0.60500
O 	O 	0.27280 0.88386 0.70764 -0.59100
O 	O 	0.18630 0.89491 0.30768 -0.53800
O 	O 	0.06891 0.91240 0.30751 -0.56300
C 	C 	0.49020 0.76240 0.51569 0.03000
C 	C 	0.50228 0.77561 0.55114 -0.08800
H 	H 	0.52380 0.76880 0.57480 0.05900
C 	C 	0.48290 0.79903 0.55231 0.00200
C 	C 	0.44840 0.80876 0.51742 -0.07800
H 	H 	0.43370 0.82390 0.51790 0.05300
C 	C 	0.43520 0.79599 0.48123 0.00500
C 	C 	0.45710 0.77263 0.48114 -0.08900
H 	H 	0.44870 0.76410 0.45720 0.05600
C 	C 	0.49750 0.81284 0.58932 0.10300
C 	C 	0.56710 0.81027 0.61245 -0.18300
H 	H 	0.60450 0.79910 0.60520 0.09400
C 	C 	0.58340 0.82390 0.64636 0.12300
H 	H 	0.63170 0.82210 0.66130 -0.00300
C 	C 	0.52730 0.84035 0.65808 -0.22700
C 	C 	0.45810 0.84299 0.63621 0.13300
H 	H 	0.42020 0.85400 0.64390 -0.01400
C 	C 	0.44320 0.82938 0.60226 -0.18800
H 	H 	0.39480 0.83140 0.58750 0.08900
C 	C 	0.54400 0.85571 0.69531 0.52800
C 	C 	0.40050 0.80727 0.44393 0.09000
C 	C 	0.40360 0.83015 0.43857 -0.16000
H 	H 	0.42830 0.83890 0.45900 0.08100
C 	C 	0.37120 0.84093 0.40374 0.08600
H 	H 	0.37540 0.85650 0.40110 0.00700
C 	C 	0.33450 0.82892 0.37441 -0.16700
C 	C 	0.33160 0.80675 0.37873 0.08800
H 	H 	0.30610 0.79820 0.35820 0.00400
C 	C 	0.36570 0.79566 0.41324 -0.16500
H 	H 	0.36390 0.78000 0.41470 0.08200
C 	C 	0.29980 0.84053 0.33677 0.36400
C 	C 	0.24700 0.98701 0.51398 0.02600
C 	C 	0.26630 0.97428 0.54871 -0.08500
H 	H 	0.28290 0.98160 0.57290 0.05400
C 	C 	0.26150 0.95029 0.54857 -0.00700
C 	C 	0.23860 0.93930 0.51216 -0.07600
H 	H 	0.23480 0.92360 0.51150 0.05100
C 	C 	0.22170 0.95177 0.47700 0.00400
C 	C 	0.22460 0.97521 0.47830 -0.09000
H 	H 	0.21100 0.98330 0.45450 0.05700
C 	C 	0.27930 0.93710 0.58635 0.12000
C 	C 	0.23240 0.91820 0.59707 -0.21300
H 	H 	0.19020 0.91380 0.57940 0.09500
C 	C 	0.24600 0.90600 0.63247 0.16100
H 	H 	0.21340 0.89360 0.63860 -0.03400
C 	C 	0.30760 0.91216 0.65869 -0.27000
C 	C 	0.35750 0.93011 0.64784 0.16700
H 	H 	0.40250 0.93360 0.66440 -0.03300
C 	C 	0.34160 0.94289 0.61269 -0.21600
H 	H 	0.37350 0.95550 0.60690 0.10100
C 	C 	0.31950 0.89849 0.69859 0.60100
C 	C 	0.19700 0.93976 0.43788 0.10100
C 	C 	0.13330 0.94797 0.41405 -0.19600
H 	H 	0.10440 0.96070 0.42280 0.08900
C 	C 	0.11260 0.93765 0.37798 0.13600
H 	H 	0.06920 0.94320 0.36230 -0.02200
C 	C 	0.15560 0.91878 0.36406 -0.23500
C 	C 	0.21890 0.91027 0.38759 0.12400
H 	H 	0.24840 0.89770 0.37850 -0.00200
C 	C 	0.23800 0.92060 0.42484 -0.18500
H 	H 	0.27920 0.91460 0.44140 0.09200
C 	C 	0.13470 0.90743 0.32311 0.55700
Ho	Ho	0.23863 0.36573 0.72949 1.56300
O 	O 	0.99187 0.36937 0.70539 -0.48600
O 	O 	0.11150 0.35360 0.71318 -0.52400
O 	O 	0.80170 0.36211 0.33620 -0.42700
O 	O 	0.77343 0.33006 0.30754 -0.42500
O 	O 	0.88010 0.40467 0.71876 -0.58600
O 	O 	0.77280 0.38386 0.70764 -0.58500
O 	O 	0.68630 0.39491 0.30768 -0.53900
O 	O 	0.56891 0.41240 0.30751 -0.56200
C 	C 	0.99020 0.26240 0.51569 0.18400
C 	C 	0.00228 0.27561 0.55114 -0.23600
H 	H 	0.02380 0.26880 0.57480 0.09900
C 	C 	0.98290 0.29903 0.55231 0.07400
C 	C 	0.94840 0.30876 0.51742 -0.13200
H 	H 	0.93370 0.32390 0.51790 0.07400
C 	C 	0.93520 0.29599 0.48123 0.06900
C 	C 	0.95710 0.27263 0.48114 -0.17800
H 	H 	0.94870 0.26410 0.45720 0.09700
C 	C 	0.99750 0.31284 0.58932 0.15000
C 	C 	0.06710 0.31027 0.61245 -0.26100
H 	H 	0.10450 0.29910 0.60520 0.11400
C 	C 	0.08340 0.32390 0.64636 0.18000
H 	H 	0.13170 0.32210 0.66130 -0.02500
C 	C 	0.02730 0.34035 0.65808 -0.29600
C 	C 	0.95810 0.34299 0.63621 0.22300
H 	H 	0.92020 0.35400 0.64390 -0.03900
C 	C 	0.94320 0.32938 0.60226 -0.23900
H 	H 	0.89480 0.33140 0.58750 0.10900
C 	C 	0.04400 0.35571 0.69531 0.50600
C 	C 	0.90050 0.30727 0.44393 0.05300
C 	C 	0.90360 0.33015 0.43857 -0.12600
H 	H 	0.92830 0.33890 0.45900 0.07300
C 	C 	0.87120 0.34093 0.40374 0.06200
H 	H 	0.87540 0.35650 0.40110 0.01900
C 	C 	0.83450 0.32892 0.37441 -0.14200
C 	C 	0.83160 0.30675 0.37873 0.06300
H 	H 	0.80610 0.29820 0.35820 0.01700
C 	C 	0.86570 0.29566 0.41324 -0.12900
H 	H 	0.86390 0.28000 0.41470 0.07300
C 	C 	0.79980 0.34053 0.33677 0.35600
C 	C 	0.74700 0.48701 0.51398 0.03000
C 	C 	0.76630 0.47428 0.54871 -0.08500
H 	H 	0.78290 0.48160 0.57290 0.05800
C 	C 	0.76150 0.45029 0.54857 -0.00100
C 	C 	0.73860 0.43930 0.51216 -0.07600
H 	H 	0.73480 0.42360 0.51150 0.05500
C 	C 	0.72170 0.45177 0.47700 0.00800
C 	C 	0.72460 0.47521 0.47830 -0.09000
H 	H 	0.71100 0.48330 0.45450 0.05900
C 	C 	0.77930 0.43710 0.58635 0.11800
C 	C 	0.73240 0.41820 0.59707 -0.20600
H 	H 	0.69020 0.41380 0.57940 0.09700
C 	C 	0.74600 0.40600 0.63247 0.15600
H 	H 	0.71340 0.39360 0.63860 -0.02700
C 	C 	0.80760 0.41216 0.65869 -0.26000
C 	C 	0.85750 0.43011 0.64784 0.16200
H 	H 	0.90250 0.43360 0.66440 -0.02200
C 	C 	0.84160 0.44289 0.61269 -0.20800
H 	H 	0.87350 0.45550 0.60690 0.10400
C 	C 	0.81950 0.39849 0.69859 0.59300
C 	C 	0.69700 0.43976 0.43788 0.10300
C 	C 	0.63330 0.44797 0.41405 -0.19300
H 	H 	0.60440 0.46070 0.42280 0.09400
C 	C 	0.61260 0.43765 0.37798 0.13800
H 	H 	0.56920 0.44320 0.36230 -0.01600
C 	C 	0.65560 0.41878 0.36406 -0.23200
C 	C 	0.71890 0.41027 0.38759 0.12600
H 	H 	0.74840 0.39770 0.37850 -0.00000
C 	C 	0.73800 0.42060 0.42484 -0.18300
H 	H 	0.77920 0.41460 0.44140 0.09500
C 	C 	0.63470 0.40743 0.32311 0.56000
Ho	Ho	0.23863 0.13427 0.77051 1.56300
O 	O 	0.99187 0.13063 0.79461 -0.48600
O 	O 	0.11150 0.14640 0.78682 -0.52400
O 	O 	0.80170 0.13789 0.16380 -0.42700
O 	O 	0.77343 0.16994 0.19246 -0.42500
O 	O 	0.88010 0.09533 0.78124 -0.58600
O 	O 	0.77280 0.11614 0.79236 -0.58500
O 	O 	0.68630 0.10509 0.19232 -0.53900
O 	O 	0.56891 0.08760 0.19249 -0.56200
C 	C 	0.99020 0.23760 0.98431 0.18400
C 	C 	0.00228 0.22439 0.94886 -0.23500
H 	H 	0.02380 0.23120 0.92520 0.09900
C 	C 	0.98290 0.20097 0.94769 0.07400
C 	C 	0.94840 0.19124 0.98258 -0.13200
H 	H 	0.93370 0.17610 0.98210 0.07400
C 	C 	0.93520 0.20401 0.01877 0.06900
C 	C 	0.95710 0.22737 0.01886 -0.17800
H 	H 	0.94870 0.23590 0.04280 0.09700
C 	C 	0.99750 0.18716 0.91068 0.15000
C 	C 	0.06710 0.18973 0.88755 -0.26100
H 	H 	0.10450 0.20090 0.89480 0.11400
C 	C 	0.08340 0.17610 0.85364 0.18000
H 	H 	0.13170 0.17790 0.83870 -0.02500
C 	C 	0.02730 0.15965 0.84192 -0.29600
C 	C 	0.95810 0.15701 0.86379 0.22300
H 	H 	0.92020 0.14600 0.85610 -0.03900
C 	C 	0.94320 0.17062 0.89774 -0.23800
H 	H 	0.89480 0.16860 0.91250 0.10900
C 	C 	0.04400 0.14429 0.80469 0.50600
C 	C 	0.90050 0.19273 0.05607 0.05300
C 	C 	0.90360 0.16985 0.06143 -0.12600
H 	H 	0.92830 0.16110 0.04100 0.07300
C 	C 	0.87120 0.15907 0.09626 0.06200
H 	H 	0.87540 0.14350 0.09890 0.01900
C 	C 	0.83450 0.17108 0.12559 -0.14200
C 	C 	0.83160 0.19325 0.12127 0.06300
H 	H 	0.80610 0.20180 0.14180 0.01700
C 	C 	0.86570 0.20434 0.08676 -0.12900
H 	H 	0.86390 0.22000 0.08530 0.07300
C 	C 	0.79980 0.15947 0.16323 0.35600
C 	C 	0.74700 0.01299 0.98602 0.03000
C 	C 	0.76630 0.02572 0.95129 -0.08500
H 	H 	0.78290 0.01840 0.92710 0.05800
C 	C 	0.76150 0.04971 0.95143 -0.00100
C 	C 	0.73860 0.06070 0.98784 -0.07600
H 	H 	0.73480 0.07640 0.98850 0.05500
C 	C 	0.72170 0.04823 0.02300 0.00800
C 	C 	0.72460 0.02479 0.02170 -0.09000
H 	H 	0.71100 0.01670 0.04550 0.05900
C 	C 	0.77930 0.06290 0.91365 0.11800
C 	C 	0.73240 0.08180 0.90293 -0.20600
H 	H 	0.69020 0.08620 0.92060 0.09700
C 	C 	0.74600 0.09400 0.86753 0.15600
H 	H 	0.71340 0.10640 0.86140 -0.02700
C 	C 	0.80760 0.08784 0.84131 -0.25900
C 	C 	0.85750 0.06989 0.85216 0.16200
H 	H 	0.90250 0.06640 0.83560 -0.02200
C 	C 	0.84160 0.05711 0.88731 -0.20800
H 	H 	0.87350 0.04450 0.89310 0.10400
C 	C 	0.81950 0.10151 0.80141 0.59300
C 	C 	0.69700 0.06024 0.06212 0.10300
C 	C 	0.63330 0.05203 0.08595 -0.19300
H 	H 	0.60440 0.03930 0.07720 0.09400
C 	C 	0.61260 0.06235 0.12202 0.13800
H 	H 	0.56920 0.05680 0.13770 -0.01600
C 	C 	0.65560 0.08122 0.13594 -0.23200
C 	C 	0.71890 0.08973 0.11241 0.12600
H 	H 	0.74840 0.10230 0.12150 -0.00000
C 	C 	0.73800 0.07940 0.07516 -0.18300
H 	H 	0.77920 0.08540 0.05860 0.09500
C 	C 	0.63470 0.09257 0.17689 0.56000
Ho	Ho	0.73863 0.63427 0.77051 1.57600
O 	O 	0.49187 0.63063 0.79461 -0.52800
O 	O 	0.61150 0.64640 0.78682 -0.52800
O 	O 	0.30170 0.63789 0.16380 -0.43100
O 	O 	0.27343 0.66994 0.19246 -0.43000
O 	O 	0.38010 0.59533 0.78124 -0.60500
O 	O 	0.27280 0.61614 0.79236 -0.59100
O 	O 	0.18630 0.60509 0.19232 -0.53800
O 	O 	0.06891 0.58760 0.19249 -0.56300
C 	C 	0.49020 0.73760 0.98431 0.03000
C 	C 	0.50228 0.72439 0.94886 -0.08800
H 	H 	0.52380 0.73120 0.92520 0.05900
C 	C 	0.48290 0.70097 0.94769 0.00200
C 	C 	0.44840 0.69124 0.98258 -0.07800
H 	H 	0.43370 0.67610 0.98210 0.05300
C 	C 	0.43520 0.70401 0.01877 0.00500
C 	C 	0.45710 0.72737 0.01886 -0.08900
H 	H 	0.44870 0.73590 0.04280 0.05600
C 	C 	0.49750 0.68716 0.91068 0.10300
C 	C 	0.56710 0.68973 0.88755 -0.18300
H 	H 	0.60450 0.70090 0.89480 0.09400
C 	C 	0.58340 0.67610 0.85364 0.12300
H 	H 	0.63170 0.67790 0.83870 -0.00300
C 	C 	0.52730 0.65965 0.84192 -0.22700
C 	C 	0.45810 0.65701 0.86379 0.13300
H 	H 	0.42020 0.64600 0.85610 -0.01400
C 	C 	0.44320 0.67062 0.89774 -0.18800
H 	H 	0.39480 0.66860 0.91250 0.08900
C 	C 	0.54400 0.64429 0.80469 0.52800
C 	C 	0.40050 0.69273 0.05607 0.09000
C 	C 	0.40360 0.66985 0.06143 -0.16000
H 	H 	0.42830 0.66110 0.04100 0.08100
C 	C 	0.37120 0.65907 0.09626 0.08600
H 	H 	0.37540 0.64350 0.09890 0.00700
C 	C 	0.33450 0.67108 0.12559 -0.16700
C 	C 	0.33160 0.69325 0.12127 0.08800
H 	H 	0.30610 0.70180 0.14180 0.00400
C 	C 	0.36570 0.70434 0.08676 -0.16500
H 	H 	0.36390 0.72000 0.08530 0.08200
C 	C 	0.29980 0.65947 0.16323 0.36400
C 	C 	0.24700 0.51299 0.98602 0.02600
C 	C 	0.26630 0.52572 0.95129 -0.08500
H 	H 	0.28290 0.51840 0.92710 0.05400
C 	C 	0.26150 0.54971 0.95143 -0.00700
C 	C 	0.23860 0.56070 0.98784 -0.07600
H 	H 	0.23480 0.57640 0.98850 0.05100
C 	C 	0.22170 0.54823 0.02300 0.00400
C 	C 	0.22460 0.52479 0.02170 -0.09000
H 	H 	0.21100 0.51670 0.04550 0.05700
C 	C 	0.27930 0.56290 0.91365 0.12000
C 	C 	0.23240 0.58180 0.90293 -0.21300
H 	H 	0.19020 0.58620 0.92060 0.09500
C 	C 	0.24600 0.59400 0.86753 0.16100
H 	H 	0.21340 0.60640 0.86140 -0.03400
C 	C 	0.30760 0.58784 0.84131 -0.27000
C 	C 	0.35750 0.56989 0.85216 0.16700
H 	H 	0.40250 0.56640 0.83560 -0.03300
C 	C 	0.34160 0.55711 0.88731 -0.21600
H 	H 	0.37350 0.54450 0.89310 0.10100
C 	C 	0.31950 0.60151 0.80141 0.60100
C 	C 	0.19700 0.56024 0.06212 0.10100
C 	C 	0.13330 0.55203 0.08595 -0.19600
H 	H 	0.10440 0.53930 0.07720 0.08900
C 	C 	0.11260 0.56235 0.12202 0.13600
H 	H 	0.06920 0.55680 0.13770 -0.02200
C 	C 	0.15560 0.58122 0.13594 -0.23500
C 	C 	0.21890 0.58973 0.11241 0.12400
H 	H 	0.24840 0.60230 0.12150 -0.00200
C 	C 	0.23800 0.57940 0.07516 -0.18500
H 	H 	0.27920 0.58540 0.05860 0.09200
C 	C 	0.13470 0.59257 0.17689 0.55700
Ho	Ho	0.26137 0.86573 0.77051 1.55900
O 	O 	0.50813 0.86937 0.79461 -0.52700
O 	O 	0.38850 0.85360 0.78682 -0.52700
O 	O 	0.69830 0.86211 0.16380 -0.43100
O 	O 	0.72657 0.83006 0.19246 -0.42900
O 	O 	0.61990 0.90467 0.78124 -0.60500
O 	O 	0.72720 0.88386 0.79236 -0.58700
O 	O 	0.81370 0.89491 0.19232 -0.53400
O 	O 	0.93109 0.91240 0.19249 -0.53700
C 	C 	0.50980 0.76240 0.98431 0.03000
C 	C 	0.49772 0.77561 0.94886 -0.08700
H 	H 	0.47620 0.76880 0.92520 0.05800
C 	C 	0.51710 0.79903 0.94769 0.00300
C 	C 	0.55160 0.80876 0.98258 -0.07800
H 	H 	0.56630 0.82390 0.98210 0.05400
C 	C 	0.56480 0.79599 0.01877 0.00700
C 	C 	0.54290 0.77263 0.01886 -0.08900
H 	H 	0.55130 0.76410 0.04280 0.05700
C 	C 	0.50250 0.81284 0.91068 0.10300
C 	C 	0.43290 0.81027 0.88755 -0.18200
H 	H 	0.39550 0.79910 0.89480 0.09300
C 	C 	0.41660 0.82390 0.85364 0.12300
H 	H 	0.36830 0.82210 0.83870 -0.00300
C 	C 	0.47270 0.84035 0.84192 -0.22700
C 	C 	0.54190 0.84299 0.86379 0.13400
H 	H 	0.57980 0.85400 0.85610 -0.01300
C 	C 	0.55680 0.82938 0.89774 -0.18800
H 	H 	0.60520 0.83140 0.91250 0.09300
C 	C 	0.45600 0.85571 0.80469 0.52700
C 	C 	0.59950 0.80727 0.05607 0.09000
C 	C 	0.59640 0.83015 0.06143 -0.15800
H 	H 	0.57170 0.83890 0.04100 0.08100
C 	C 	0.62880 0.84093 0.09626 0.08600
H 	H 	0.62460 0.85650 0.09890 0.00800
C 	C 	0.66550 0.82892 0.12559 -0.16400
C 	C 	0.66840 0.80675 0.12127 0.08700
H 	H 	0.69390 0.79820 0.14180 0.00700
C 	C 	0.63430 0.79566 0.08676 -0.16200
H 	H 	0.63610 0.78000 0.08530 0.08300
C 	C 	0.70020 0.84053 0.16323 0.36300
C 	C 	0.75300 0.98701 0.98602 0.03100
C 	C 	0.73370 0.97428 0.95129 -0.08500
H 	H 	0.71710 0.98160 0.92710 0.05600
C 	C 	0.73850 0.95029 0.95143 -0.00300
C 	C 	0.76140 0.93930 0.98784 -0.07600
H 	H 	0.76520 0.92360 0.98850 0.05600
C 	C 	0.77830 0.95177 0.02300 0.01000
C 	C 	0.77540 0.97521 0.02170 -0.09100
H 	H 	0.78900 0.98330 0.04550 0.06100
C 	C 	0.72070 0.93710 0.91365 0.12100
C 	C 	0.76760 0.91820 0.90293 -0.20900
H 	H 	0.80980 0.91380 0.92060 0.10200
C 	C 	0.75400 0.90600 0.86753 0.16200
H 	H 	0.78660 0.89360 0.86140 -0.02600
C 	C 	0.69240 0.91216 0.84131 -0.26600
C 	C 	0.64250 0.93011 0.85216 0.16600
H 	H 	0.59750 0.93360 0.83560 -0.03200
C 	C 	0.65840 0.94289 0.88731 -0.21400
H 	H 	0.62650 0.95550 0.89310 0.10100
C 	C 	0.68050 0.89849 0.80141 0.60100
C 	C 	0.80300 0.93976 0.06212 0.10000
C 	C 	0.86670 0.94797 0.08595 -0.18700
H 	H 	0.89560 0.96070 0.07720 0.09700
C 	C 	0.88740 0.93765 0.12202 0.13300
H 	H 	0.93080 0.94320 0.13770 -0.00700
C 	C 	0.84440 0.91878 0.13594 -0.22300
C 	C 	0.78110 0.91027 0.11241 0.12000
H 	H 	0.75160 0.89770 0.12150 0.00100
C 	C 	0.76200 0.92060 0.07516 -0.17800
H 	H 	0.72080 0.91460 0.05860 0.09100
C 	C 	0.86530 0.90743 0.17689 0.55300
Ho	Ho	0.76137 0.36573 0.77051 1.57100
O 	O 	0.00813 0.36937 0.79461 -0.54800
O 	O 	0.88850 0.35360 0.78682 -0.52600
O 	O 	0.19830 0.36211 0.16380 -0.43500
O 	O 	0.22657 0.33006 0.19246 -0.43400
O 	O 	0.11990 0.40467 0.78124 -0.59900
O 	O 	0.22720 0.38386 0.79236 -0.58800
O 	O 	0.31370 0.39491 0.19232 -0.53900
O 	O 	0.43109 0.41240 0.19249 -0.56200
C 	C 	0.00980 0.26240 0.98431 -0.12400
C 	C 	0.99772 0.27561 0.94886 0.06000
H 	H 	0.97620 0.26880 0.92520 0.01800
C 	C 	0.01710 0.29903 0.94769 -0.06700
C 	C 	0.05160 0.30876 0.98258 -0.02400
H 	H 	0.06630 0.32390 0.98210 0.03300
C 	C 	0.06480 0.29599 0.01877 -0.05600
C 	C 	0.04290 0.27263 0.01886 0.00000
H 	H 	0.05130 0.26410 0.04280 0.01700
C 	C 	0.00250 0.31284 0.91068 0.05400
C 	C 	0.93290 0.31027 0.88755 -0.10100
H 	H 	0.89550 0.29910 0.89480 0.07200
C 	C 	0.91660 0.32390 0.85364 0.06200
H 	H 	0.86830 0.32210 0.83870 0.02000
C 	C 	0.97270 0.34035 0.84192 -0.15200
C 	C 	0.04190 0.34299 0.86379 0.04000
H 	H 	0.07980 0.35400 0.85610 0.01400
C 	C 	0.05680 0.32938 0.89774 -0.13500
H 	H 	0.10520 0.33140 0.91250 0.07200
C 	C 	0.95600 0.35571 0.80469 0.54100
C 	C 	0.09950 0.30727 0.05607 0.12700
C 	C 	0.09640 0.33015 0.06143 -0.19200
H 	H 	0.07170 0.33890 0.04100 0.08900
C 	C 	0.12880 0.34093 0.09626 0.11100
H 	H 	0.12460 0.35650 0.09890 -0.00400
C 	C 	0.16550 0.32892 0.12559 -0.18900
C 	C 	0.16840 0.30675 0.12127 0.11200
H 	H 	0.19390 0.29820 0.14180 -0.00500
C 	C 	0.13430 0.29566 0.08676 -0.19800
H 	H 	0.13610 0.28000 0.08530 0.09200
C 	C 	0.20020 0.34053 0.16323 0.37100
C 	C 	0.25300 0.48701 0.98602 0.02700
C 	C 	0.23370 0.47428 0.95129 -0.08500
H 	H 	0.21710 0.48160 0.92710 0.05300
C 	C 	0.23850 0.45029 0.95143 -0.00600
C 	C 	0.26140 0.43930 0.98784 -0.07600
H 	H 	0.26520 0.42360 0.98850 0.05300
C 	C 	0.27830 0.45177 0.02300 0.00500
C 	C 	0.27540 0.47521 0.02170 -0.09100
H 	H 	0.28900 0.48330 0.04550 0.05800
C 	C 	0.22070 0.43710 0.91365 0.11900
C 	C 	0.26760 0.41820 0.90293 -0.21100
H 	H 	0.30980 0.41380 0.92060 0.09800
C 	C 	0.25400 0.40600 0.86753 0.16000
H 	H 	0.28660 0.39360 0.86140 -0.03000
C 	C 	0.19240 0.41216 0.84131 -0.26800
C 	C 	0.14250 0.43011 0.85216 0.16400
H 	H 	0.09750 0.43360 0.83560 -0.03700
C 	C 	0.15840 0.44289 0.88731 -0.21600
H 	H 	0.12650 0.45550 0.89310 0.09600
C 	C 	0.18050 0.39849 0.80141 0.59600
C 	C 	0.30300 0.43976 0.06212 0.10100
C 	C 	0.36670 0.44797 0.08595 -0.19300
H 	H 	0.39560 0.46070 0.07720 0.09300
C 	C 	0.38740 0.43765 0.12202 0.13600
H 	H 	0.43080 0.44320 0.13770 -0.01600
C 	C 	0.34440 0.41878 0.13594 -0.23200
C 	C 	0.28110 0.41027 0.11241 0.12200
H 	H 	0.25160 0.39770 0.12150 -0.00200
C 	C 	0.26200 0.42060 0.07516 -0.18300
H 	H 	0.22080 0.41460 0.05860 0.09000
C 	C 	0.36530 0.40743 0.17689 0.55800
Ho	Ho	0.23863 0.86573 0.27051 1.56300
O 	O 	0.99187 0.86937 0.29461 -0.48600
O 	O 	0.11150 0.85360 0.28682 -0.52400
O 	O 	0.80170 0.86211 0.66380 -0.42700
O 	O 	0.77343 0.83006 0.69246 -0.42500
O 	O 	0.88010 0.90467 0.28124 -0.58600
O 	O 	0.77280 0.88386 0.29236 -0.58500
O 	O 	0.68630 0.89491 0.69232 -0.53900
O 	O 	0.56891 0.91240 0.69249 -0.56200
C 	C 	0.99020 0.76240 0.48431 0.18400
C 	C 	0.00228 0.77561 0.44886 -0.23600
H 	H 	0.02380 0.76880 0.42520 0.09900
C 	C 	0.98290 0.79903 0.44769 0.07400
C 	C 	0.94840 0.80876 0.48258 -0.13200
H 	H 	0.93370 0.82390 0.48210 0.07400
C 	C 	0.93520 0.79599 0.51877 0.06900
C 	C 	0.95710 0.77263 0.51886 -0.17800
H 	H 	0.94870 0.76410 0.54280 0.09700
C 	C 	0.99750 0.81284 0.41068 0.15000
C 	C 	0.06710 0.81027 0.38755 -0.26100
H 	H 	0.10450 0.79910 0.39480 0.11400
C 	C 	0.08340 0.82390 0.35364 0.18000
H 	H 	0.13170 0.82210 0.33870 -0.02500
C 	C 	0.02730 0.84035 0.34192 -0.29600
C 	C 	0.95810 0.84299 0.36379 0.22300
H 	H 	0.92020 0.85400 0.35610 -0.03900
C 	C 	0.94320 0.82938 0.39774 -0.23900
H 	H 	0.89480 0.83140 0.41250 0.10900
C 	C 	0.04400 0.85571 0.30469 0.50600
C 	C 	0.90050 0.80727 0.55607 0.05300
C 	C 	0.90360 0.83015 0.56143 -0.12600
H 	H 	0.92830 0.83890 0.54100 0.07300
C 	C 	0.87120 0.84093 0.59626 0.06200
H 	H 	0.87540 0.85650 0.59890 0.01900
C 	C 	0.83450 0.82892 0.62559 -0.14200
C 	C 	0.83160 0.80675 0.62127 0.06300
H 	H 	0.80610 0.79820 0.64180 0.01700
C 	C 	0.86570 0.79566 0.58676 -0.12900
H 	H 	0.86390 0.78000 0.58530 0.07300
C 	C 	0.79980 0.84053 0.66323 0.35600
C 	C 	0.74700 0.98701 0.48602 0.03000
C 	C 	0.76630 0.97428 0.45129 -0.08500
H 	H 	0.78290 0.98160 0.42710 0.05800
C 	C 	0.76150 0.95029 0.45143 -0.00100
C 	C 	0.73860 0.93930 0.48784 -0.07600
H 	H 	0.73480 0.92360 0.48850 0.05500
C 	C 	0.72170 0.95177 0.52300 0.00800
C 	C 	0.72460 0.97521 0.52170 -0.09000
H 	H 	0.71100 0.98330 0.54550 0.05900
C 	C 	0.77930 0.93710 0.41365 0.11800
C 	C 	0.73240 0.91820 0.40293 -0.20600
H 	H 	0.69020 0.91380 0.42060 0.09700
C 	C 	0.74600 0.90600 0.36753 0.15600
H 	H 	0.71340 0.89360 0.36140 -0.02700
C 	C 	0.80760 0.91216 0.34131 -0.26000
C 	C 	0.85750 0.93011 0.35216 0.16200
H 	H 	0.90250 0.93360 0.33560 -0.02200
C 	C 	0.84160 0.94289 0.38731 -0.20800
H 	H 	0.87350 0.95550 0.39310 0.10400
C 	C 	0.81950 0.89849 0.30141 0.59300
C 	C 	0.69700 0.93976 0.56212 0.10300
C 	C 	0.63330 0.94797 0.58595 -0.19300
H 	H 	0.60440 0.96070 0.57720 0.09400
C 	C 	0.61260 0.93765 0.62202 0.13800
H 	H 	0.56920 0.94320 0.63770 -0.01600
C 	C 	0.65560 0.91878 0.63594 -0.23200
C 	C 	0.71890 0.91027 0.61241 0.12600
H 	H 	0.74840 0.89770 0.62150 -0.00000
C 	C 	0.73800 0.92060 0.57516 -0.18300
H 	H 	0.77920 0.91460 0.55860 0.09500
C 	C 	0.63470 0.90743 0.67689 0.56000
Ho	Ho	0.73863 0.36573 0.27051 1.57600
O 	O 	0.49187 0.36937 0.29461 -0.52800
O 	O 	0.61150 0.35360 0.28682 -0.52800
O 	O 	0.30170 0.36211 0.66380 -0.43100
O 	O 	0.27343 0.33006 0.69246 -0.43000
O 	O 	0.38010 0.40467 0.28124 -0.60500
O 	O 	0.27280 0.38386 0.29236 -0.59100
O 	O 	0.18630 0.39491 0.69232 -0.53800
O 	O 	0.06891 0.41240 0.69249 -0.56300
C 	C 	0.49020 0.26240 0.48431 0.03000
C 	C 	0.50228 0.27561 0.44886 -0.08800
H 	H 	0.52380 0.26880 0.42520 0.05900
C 	C 	0.48290 0.29903 0.44769 0.00200
C 	C 	0.44840 0.30876 0.48258 -0.07800
H 	H 	0.43370 0.32390 0.48210 0.05300
C 	C 	0.43520 0.29599 0.51877 0.00500
C 	C 	0.45710 0.27263 0.51886 -0.08900
H 	H 	0.44870 0.26410 0.54280 0.05600
C 	C 	0.49750 0.31284 0.41068 0.10300
C 	C 	0.56710 0.31027 0.38755 -0.18300
H 	H 	0.60450 0.29910 0.39480 0.09400
C 	C 	0.58340 0.32390 0.35364 0.12300
H 	H 	0.63170 0.32210 0.33870 -0.00300
C 	C 	0.52730 0.34035 0.34192 -0.22700
C 	C 	0.45810 0.34299 0.36379 0.13300
H 	H 	0.42020 0.35400 0.35610 -0.01400
C 	C 	0.44320 0.32938 0.39774 -0.18800
H 	H 	0.39480 0.33140 0.41250 0.08900
C 	C 	0.54400 0.35571 0.30469 0.52800
C 	C 	0.40050 0.30727 0.55607 0.09000
C 	C 	0.40360 0.33015 0.56143 -0.16000
H 	H 	0.42830 0.33890 0.54100 0.08100
C 	C 	0.37120 0.34093 0.59626 0.08600
H 	H 	0.37540 0.35650 0.59890 0.00700
C 	C 	0.33450 0.32892 0.62559 -0.16700
C 	C 	0.33160 0.30675 0.62127 0.08800
H 	H 	0.30610 0.29820 0.64180 0.00400
C 	C 	0.36570 0.29566 0.58676 -0.16500
H 	H 	0.36390 0.28000 0.58530 0.08200
C 	C 	0.29980 0.34053 0.66323 0.36400
C 	C 	0.24700 0.48701 0.48602 0.02600
C 	C 	0.26630 0.47428 0.45129 -0.08500
H 	H 	0.28290 0.48160 0.42710 0.05400
C 	C 	0.26150 0.45029 0.45143 -0.00700
C 	C 	0.23860 0.43930 0.48784 -0.07600
H 	H 	0.23480 0.42360 0.48850 0.05100
C 	C 	0.22170 0.45177 0.52300 0.00400
C 	C 	0.22460 0.47521 0.52170 -0.09000
H 	H 	0.21100 0.48330 0.54550 0.05700
C 	C 	0.27930 0.43710 0.41365 0.12000
C 	C 	0.23240 0.41820 0.40293 -0.21300
H 	H 	0.19020 0.41380 0.42060 0.09500
C 	C 	0.24600 0.40600 0.36753 0.16100
H 	H 	0.21340 0.39360 0.36140 -0.03400
C 	C 	0.30760 0.41216 0.34131 -0.27000
C 	C 	0.35750 0.43011 0.35216 0.16700
H 	H 	0.40250 0.43360 0.33560 -0.03300
C 	C 	0.34160 0.44289 0.38731 -0.21600
H 	H 	0.37350 0.45550 0.39310 0.10100
C 	C 	0.31950 0.39849 0.30141 0.60100
C 	C 	0.19700 0.43976 0.56212 0.10100
C 	C 	0.13330 0.44797 0.58595 -0.19600
H 	H 	0.10440 0.46070 0.57720 0.08900
C 	C 	0.11260 0.43765 0.62202 0.13600
H 	H 	0.06920 0.44320 0.63770 -0.02200
C 	C 	0.15560 0.41878 0.63594 -0.23500
C 	C 	0.21890 0.41027 0.61241 0.12400
H 	H 	0.24840 0.39770 0.62150 -0.00200
C 	C 	0.23800 0.42060 0.57516 -0.18500
H 	H 	0.27920 0.41460 0.55860 0.09200
C 	C 	0.13470 0.40743 0.67689 0.55700
Ho	Ho	0.26137 0.13427 0.27051 1.55900
O 	O 	0.50813 0.13063 0.29461 -0.52700
O 	O 	0.38850 0.14640 0.28682 -0.52700
O 	O 	0.69830 0.13789 0.66380 -0.43100
O 	O 	0.72657 0.16994 0.69246 -0.42900
O 	O 	0.61990 0.09533 0.28124 -0.60500
O 	O 	0.72720 0.11614 0.29236 -0.58700
O 	O 	0.81370 0.10509 0.69232 -0.53400
O 	O 	0.93109 0.08760 0.69249 -0.53700
C 	C 	0.50980 0.23760 0.48431 0.03000
C 	C 	0.49772 0.22439 0.44886 -0.08700
H 	H 	0.47620 0.23120 0.42520 0.05800
C 	C 	0.51710 0.20097 0.44769 0.00300
C 	C 	0.55160 0.19124 0.48258 -0.07800
H 	H 	0.56630 0.17610 0.48210 0.05400
C 	C 	0.56480 0.20401 0.51877 0.00700
C 	C 	0.54290 0.22737 0.51886 -0.08900
H 	H 	0.55130 0.23590 0.54280 0.05700
C 	C 	0.50250 0.18716 0.41068 0.10400
C 	C 	0.43290 0.18973 0.38755 -0.18200
H 	H 	0.39550 0.20090 0.39480 0.09300
C 	C 	0.41660 0.17610 0.35364 0.12300
H 	H 	0.36830 0.17790 0.33870 -0.00300
C 	C 	0.47270 0.15965 0.34192 -0.22700
C 	C 	0.54190 0.15701 0.36379 0.13400
H 	H 	0.57980 0.14600 0.35610 -0.01300
C 	C 	0.55680 0.17062 0.39774 -0.18800
H 	H 	0.60520 0.16860 0.41250 0.09300
C 	C 	0.45600 0.14429 0.30469 0.52700
C 	C 	0.59950 0.19273 0.55607 0.09000
C 	C 	0.59640 0.16985 0.56143 -0.15800
H 	H 	0.57170 0.16110 0.54100 0.08100
C 	C 	0.62880 0.15907 0.59626 0.08600
H 	H 	0.62460 0.14350 0.59890 0.00800
C 	C 	0.66550 0.17108 0.62559 -0.16400
C 	C 	0.66840 0.19325 0.62127 0.08700
H 	H 	0.69390 0.20180 0.64180 0.00700
C 	C 	0.63430 0.20434 0.58676 -0.16200
H 	H 	0.63610 0.22000 0.58530 0.08300
C 	C 	0.70020 0.15947 0.66323 0.36300
C 	C 	0.75300 0.01299 0.48602 0.03100
C 	C 	0.73370 0.02572 0.45129 -0.08500
H 	H 	0.71710 0.01840 0.42710 0.05600
C 	C 	0.73850 0.04971 0.45143 -0.00300
C 	C 	0.76140 0.06070 0.48784 -0.07600
H 	H 	0.76520 0.07640 0.48850 0.05600
C 	C 	0.77830 0.04823 0.52300 0.01000
C 	C 	0.77540 0.02479 0.52170 -0.09000
H 	H 	0.78900 0.01670 0.54550 0.06100
C 	C 	0.72070 0.06290 0.41365 0.12100
C 	C 	0.76760 0.08180 0.40293 -0.20900
H 	H 	0.80980 0.08620 0.42060 0.10200
C 	C 	0.75400 0.09400 0.36753 0.16200
H 	H 	0.78660 0.10640 0.36140 -0.02600
C 	C 	0.69240 0.08784 0.34131 -0.26600
C 	C 	0.64250 0.06989 0.35216 0.16600
H 	H 	0.59750 0.06640 0.33560 -0.03200
C 	C 	0.65840 0.05711 0.38731 -0.21400
H 	H 	0.62650 0.04450 0.39310 0.10100
C 	C 	0.68050 0.10151 0.30141 0.60100
C 	C 	0.80300 0.06024 0.56212 0.10000
C 	C 	0.86670 0.05203 0.58595 -0.18700
H 	H 	0.89560 0.03930 0.57720 0.09700
C 	C 	0.88740 0.06235 0.62202 0.13300
H 	H 	0.93080 0.05680 0.63770 -0.00700
C 	C 	0.84440 0.08122 0.63594 -0.22300
C 	C 	0.78110 0.08973 0.61241 0.12000
H 	H 	0.75160 0.10230 0.62150 0.00100
C 	C 	0.76200 0.07940 0.57516 -0.17800
H 	H 	0.72080 0.08540 0.55860 0.09100
C 	C 	0.86530 0.09257 0.67689 0.55300
Ho	Ho	0.76137 0.63427 0.27051 1.57100
O 	O 	0.00813 0.63063 0.29461 -0.54800
O 	O 	0.88850 0.64640 0.28682 -0.52600
O 	O 	0.19830 0.63789 0.66380 -0.43600
O 	O 	0.22657 0.66994 0.69246 -0.43400
O 	O 	0.11990 0.59533 0.28124 -0.59900
O 	O 	0.22720 0.61614 0.29236 -0.58800
O 	O 	0.31370 0.60509 0.69232 -0.53900
O 	O 	0.43109 0.58760 0.69249 -0.56200
C 	C 	0.00980 0.73760 0.48431 -0.12400
C 	C 	0.99772 0.72439 0.44886 0.06000
H 	H 	0.97620 0.73120 0.42520 0.01800
C 	C 	0.01710 0.70097 0.44769 -0.06800
C 	C 	0.05160 0.69124 0.48258 -0.02400
H 	H 	0.06630 0.67610 0.48210 0.03300
C 	C 	0.06480 0.70401 0.51877 -0.05600
C 	C 	0.04290 0.72737 0.51886 0.00100
H 	H 	0.05130 0.73590 0.54280 0.01600
C 	C 	0.00250 0.68716 0.41068 0.05400
C 	C 	0.93290 0.68973 0.38755 -0.10100
H 	H 	0.89550 0.70090 0.39480 0.07200
C 	C 	0.91660 0.67610 0.35364 0.06200
H 	H 	0.86830 0.67790 0.33870 0.02000
C 	C 	0.97270 0.65965 0.34192 -0.15200
C 	C 	0.04190 0.65701 0.36379 0.04000
H 	H 	0.07980 0.64600 0.35610 0.01400
C 	C 	0.05680 0.67062 0.39774 -0.13500
H 	H 	0.10520 0.66860 0.41250 0.07200
C 	C 	0.95600 0.64429 0.30469 0.54100
C 	C 	0.09950 0.69273 0.55607 0.12800
C 	C 	0.09640 0.66985 0.56143 -0.19200
H 	H 	0.07170 0.66110 0.54100 0.08900
C 	C 	0.12880 0.65907 0.59626 0.11100
H 	H 	0.12460 0.64350 0.59890 -0.00400
C 	C 	0.16550 0.67108 0.62559 -0.18900
C 	C 	0.16840 0.69325 0.62127 0.11200
H 	H 	0.19390 0.70180 0.64180 -0.00500
C 	C 	0.13430 0.70434 0.58676 -0.19800
H 	H 	0.13610 0.72000 0.58530 0.09200
C 	C 	0.20020 0.65947 0.66323 0.37100
C 	C 	0.25300 0.51299 0.48602 0.02700
C 	C 	0.23370 0.52572 0.45129 -0.08500
H 	H 	0.21710 0.51840 0.42710 0.05300
C 	C 	0.23850 0.54971 0.45143 -0.00600
C 	C 	0.26140 0.56070 0.48784 -0.07600
H 	H 	0.26520 0.57640 0.48850 0.05300
C 	C 	0.27830 0.54823 0.52300 0.00500
C 	C 	0.27540 0.52479 0.52170 -0.09100
H 	H 	0.28900 0.51670 0.54550 0.05800
C 	C 	0.22070 0.56290 0.41365 0.11900
C 	C 	0.26760 0.58180 0.40293 -0.21100
H 	H 	0.30980 0.58620 0.42060 0.09800
C 	C 	0.25400 0.59400 0.36753 0.16000
H 	H 	0.28660 0.60640 0.36140 -0.03000
C 	C 	0.19240 0.58784 0.34131 -0.26800
C 	C 	0.14250 0.56989 0.35216 0.16400
H 	H 	0.09750 0.56640 0.33560 -0.03700
C 	C 	0.15840 0.55711 0.38731 -0.21600
H 	H 	0.12650 0.54450 0.39310 0.09600
C 	C 	0.18050 0.60151 0.30141 0.59600
C 	C 	0.30300 0.56024 0.56212 0.10100
C 	C 	0.36670 0.55203 0.58595 -0.19300
H 	H 	0.39560 0.53930 0.57720 0.09300
C 	C 	0.38740 0.56235 0.62202 0.13600
H 	H 	0.43080 0.55680 0.63770 -0.01600
C 	C 	0.34440 0.58122 0.63594 -0.23200
C 	C 	0.28110 0.58973 0.61241 0.12200
H 	H 	0.25160 0.60230 0.62150 -0.00200
C 	C 	0.26200 0.57940 0.57516 -0.18300
H 	H 	0.22080 0.58540 0.55860 0.09000
C 	C 	0.36530 0.59257 0.67689 0.55800
Ho	Ho	0.76137 0.86573 0.22949 1.57100
O 	O 	0.00813 0.86937 0.20539 -0.54800
O 	O 	0.88850 0.85360 0.21318 -0.52600
O 	O 	0.19830 0.86211 0.83620 -0.43500
O 	O 	0.22657 0.83006 0.80754 -0.43400
O 	O 	0.11990 0.90467 0.21876 -0.59900
O 	O 	0.22720 0.88386 0.20764 -0.58800
O 	O 	0.31370 0.89491 0.80768 -0.53900
O 	O 	0.43109 0.91240 0.80751 -0.56200
C 	C 	0.00980 0.76240 0.01569 -0.12400
C 	C 	0.99772 0.77561 0.05114 0.06000
H 	H 	0.97620 0.76880 0.07480 0.01800
C 	C 	0.01710 0.79903 0.05231 -0.06700
C 	C 	0.05160 0.80876 0.01742 -0.02400
H 	H 	0.06630 0.82390 0.01790 0.03300
C 	C 	0.06480 0.79599 0.98123 -0.05600
C 	C 	0.04290 0.77263 0.98114 0.00000
H 	H 	0.05130 0.76410 0.95720 0.01700
C 	C 	0.00250 0.81284 0.08932 0.05400
C 	C 	0.93290 0.81027 0.11245 -0.10100
H 	H 	0.89550 0.79910 0.10520 0.07200
C 	C 	0.91660 0.82390 0.14636 0.06200
H 	H 	0.86830 0.82210 0.16130 0.02000
C 	C 	0.97270 0.84035 0.15808 -0.15200
C 	C 	0.04190 0.84299 0.13621 0.04000
H 	H 	0.07980 0.85400 0.14390 0.01400
C 	C 	0.05680 0.82938 0.10226 -0.13500
H 	H 	0.10520 0.83140 0.08750 0.07200
C 	C 	0.95600 0.85571 0.19531 0.54100
C 	C 	0.09950 0.80727 0.94393 0.12700
C 	C 	0.09640 0.83015 0.93857 -0.19200
H 	H 	0.07170 0.83890 0.95900 0.08900
C 	C 	0.12880 0.84093 0.90374 0.11100
H 	H 	0.12460 0.85650 0.90110 -0.00400
C 	C 	0.16550 0.82892 0.87441 -0.18900
C 	C 	0.16840 0.80675 0.87873 0.11200
H 	H 	0.19390 0.79820 0.85820 -0.00500
C 	C 	0.13430 0.79566 0.91324 -0.19800
H 	H 	0.13610 0.78000 0.91470 0.09200
C 	C 	0.20020 0.84053 0.83677 0.37100
C 	C 	0.25300 0.98701 0.01398 0.02700
C 	C 	0.23370 0.97428 0.04871 -0.08500
H 	H 	0.21710 0.98160 0.07290 0.05300
C 	C 	0.23850 0.95029 0.04857 -0.00600
C 	C 	0.26140 0.93930 0.01216 -0.07600
H 	H 	0.26520 0.92360 0.01150 0.05300
C 	C 	0.27830 0.95177 0.97700 0.00500
C 	C 	0.27540 0.97521 0.97830 -0.09100
H 	H 	0.28900 0.98330 0.95450 0.05800
C 	C 	0.22070 0.93710 0.08635 0.11900
C 	C 	0.26760 0.91820 0.09707 -0.21100
H 	H 	0.30980 0.91380 0.07940 0.09800
C 	C 	0.25400 0.90600 0.13247 0.16000
H 	H 	0.28660 0.89360 0.13860 -0.03000
C 	C 	0.19240 0.91216 0.15869 -0.26800
C 	C 	0.14250 0.93011 0.14784 0.16400
H 	H 	0.09750 0.93360 0.16440 -0.03700
C 	C 	0.15840 0.94289 0.11269 -0.21600
H 	H 	0.12650 0.95550 0.10690 0.09600
C 	C 	0.18050 0.89849 0.19859 0.59600
C 	C 	0.30300 0.93976 0.93788 0.10100
C 	C 	0.36670 0.94797 0.91405 -0.19300
H 	H 	0.39560 0.96070 0.92280 0.09300
C 	C 	0.38740 0.93765 0.87798 0.13600
H 	H 	0.43080 0.94320 0.86230 -0.01600
C 	C 	0.34440 0.91878 0.86406 -0.23200
C 	C 	0.28110 0.91027 0.88759 0.12200
H 	H 	0.25160 0.89770 0.87850 -0.00200
C 	C 	0.26200 0.92060 0.92484 -0.18300
H 	H 	0.22080 0.91460 0.94140 0.09000
C 	C 	0.36530 0.90743 0.82311 0.55800
Ho	Ho	0.26137 0.36573 0.22949 1.55900
O 	O 	0.50813 0.36937 0.20539 -0.52700
O 	O 	0.38850 0.35360 0.21318 -0.52700
O 	O 	0.69830 0.36211 0.83620 -0.43100
O 	O 	0.72657 0.33006 0.80754 -0.42900
O 	O 	0.61990 0.40467 0.21876 -0.60500
O 	O 	0.72720 0.38386 0.20764 -0.58700
O 	O 	0.81370 0.39491 0.80768 -0.53400
O 	O 	0.93109 0.41240 0.80751 -0.53700
C 	C 	0.50980 0.26240 0.01569 0.03000
C 	C 	0.49772 0.27561 0.05114 -0.08700
H 	H 	0.47620 0.26880 0.07480 0.05800
C 	C 	0.51710 0.29903 0.05231 0.00300
C 	C 	0.55160 0.30876 0.01742 -0.07800
H 	H 	0.56630 0.32390 0.01790 0.05400
C 	C 	0.56480 0.29599 0.98123 0.00700
C 	C 	0.54290 0.27263 0.98114 -0.08900
H 	H 	0.55130 0.26410 0.95720 0.05700
C 	C 	0.50250 0.31284 0.08932 0.10300
C 	C 	0.43290 0.31027 0.11245 -0.18200
H 	H 	0.39550 0.29910 0.10520 0.09300
C 	C 	0.41660 0.32390 0.14636 0.12300
H 	H 	0.36830 0.32210 0.16130 -0.00300
C 	C 	0.47270 0.34035 0.15808 -0.22700
C 	C 	0.54190 0.34299 0.13621 0.13400
H 	H 	0.57980 0.35400 0.14390 -0.01300
C 	C 	0.55680 0.32938 0.10226 -0.18800
H 	H 	0.60520 0.33140 0.08750 0.09300
C 	C 	0.45600 0.35571 0.19531 0.52700
C 	C 	0.59950 0.30727 0.94393 0.09000
C 	C 	0.59640 0.33015 0.93857 -0.15800
H 	H 	0.57170 0.33890 0.95900 0.08100
C 	C 	0.62880 0.34093 0.90374 0.08600
H 	H 	0.62460 0.35650 0.90110 0.00800
C 	C 	0.66550 0.32892 0.87441 -0.16400
C 	C 	0.66840 0.30675 0.87873 0.08700
H 	H 	0.69390 0.29820 0.85820 0.00700
C 	C 	0.63430 0.29566 0.91324 -0.16200
H 	H 	0.63610 0.28000 0.91470 0.08300
C 	C 	0.70020 0.34053 0.83677 0.36300
C 	C 	0.75300 0.48701 0.01398 0.03100
C 	C 	0.73370 0.47428 0.04871 -0.08500
H 	H 	0.71710 0.48160 0.07290 0.05600
C 	C 	0.73850 0.45029 0.04857 -0.00300
C 	C 	0.76140 0.43930 0.01216 -0.07600
H 	H 	0.76520 0.42360 0.01150 0.05600
C 	C 	0.77830 0.45177 0.97700 0.01000
C 	C 	0.77540 0.47521 0.97830 -0.09100
H 	H 	0.78900 0.48330 0.95450 0.06100
C 	C 	0.72070 0.43710 0.08635 0.12100
C 	C 	0.76760 0.41820 0.09707 -0.20900
H 	H 	0.80980 0.41380 0.07940 0.10200
C 	C 	0.75400 0.40600 0.13247 0.16200
H 	H 	0.78660 0.39360 0.13860 -0.02600
C 	C 	0.69240 0.41216 0.15869 -0.26600
C 	C 	0.64250 0.43011 0.14784 0.16600
H 	H 	0.59750 0.43360 0.16440 -0.03200
C 	C 	0.65840 0.44289 0.11269 -0.21400
H 	H 	0.62650 0.45550 0.10690 0.10100
C 	C 	0.68050 0.39849 0.19859 0.60100
C 	C 	0.80300 0.43976 0.93788 0.10000
C 	C 	0.86670 0.44797 0.91405 -0.18700
H 	H 	0.89560 0.46070 0.92280 0.09700
C 	C 	0.88740 0.43765 0.87798 0.13300
H 	H 	0.93080 0.44320 0.86230 -0.00700
C 	C 	0.84440 0.41878 0.86406 -0.22300
C 	C 	0.78110 0.41027 0.88759 0.12000
H 	H 	0.75160 0.39770 0.87850 0.00100
C 	C 	0.76200 0.42060 0.92484 -0.17800
H 	H 	0.72080 0.41460 0.94140 0.09100
C 	C 	0.86530 0.40743 0.82311 0.55300
Ho	Ho	0.73863 0.13427 0.22949 1.57600
O 	O 	0.49187 0.13063 0.20539 -0.52800
O 	O 	0.61150 0.14640 0.21318 -0.52800
O 	O 	0.30170 0.13789 0.83620 -0.43100
O 	O 	0.27343 0.16994 0.80754 -0.43000
O 	O 	0.38010 0.09533 0.21876 -0.60500
O 	O 	0.27280 0.11614 0.20764 -0.59100
O 	O 	0.18630 0.10509 0.80768 -0.53800
O 	O 	0.06891 0.08760 0.80751 -0.56300
C 	C 	0.49020 0.23760 0.01569 0.03000
C 	C 	0.50228 0.22439 0.05114 -0.08800
H 	H 	0.52380 0.23120 0.07480 0.05900
C 	C 	0.48290 0.20097 0.05231 0.00200
C 	C 	0.44840 0.19124 0.01742 -0.07800
H 	H 	0.43370 0.17610 0.01790 0.05300
C 	C 	0.43520 0.20401 0.98123 0.00500
C 	C 	0.45710 0.22737 0.98114 -0.08900
H 	H 	0.44870 0.23590 0.95720 0.05600
C 	C 	0.49750 0.18716 0.08932 0.10300
C 	C 	0.56710 0.18973 0.11245 -0.18300
H 	H 	0.60450 0.20090 0.10520 0.09400
C 	C 	0.58340 0.17610 0.14636 0.12300
H 	H 	0.63170 0.17790 0.16130 -0.00300
C 	C 	0.52730 0.15965 0.15808 -0.22700
C 	C 	0.45810 0.15701 0.13621 0.13300
H 	H 	0.42020 0.14600 0.14390 -0.01400
C 	C 	0.44320 0.17062 0.10226 -0.18800
H 	H 	0.39480 0.16860 0.08750 0.08900
C 	C 	0.54400 0.14429 0.19531 0.52800
C 	C 	0.40050 0.19273 0.94393 0.09000
C 	C 	0.40360 0.16985 0.93857 -0.16000
H 	H 	0.42830 0.16110 0.95900 0.08100
C 	C 	0.37120 0.15907 0.90374 0.08600
H 	H 	0.37540 0.14350 0.90110 0.00700
C 	C 	0.33450 0.17108 0.87441 -0.16700
C 	C 	0.33160 0.19325 0.87873 0.08800
H 	H 	0.30610 0.20180 0.85820 0.00400
C 	C 	0.36570 0.20434 0.91324 -0.16500
H 	H 	0.36390 0.22000 0.91470 0.08200
C 	C 	0.29980 0.15947 0.83677 0.36400
C 	C 	0.24700 0.01299 0.01398 0.02600
C 	C 	0.26630 0.02572 0.04871 -0.08500
H 	H 	0.28290 0.01840 0.07290 0.05400
C 	C 	0.26150 0.04971 0.04857 -0.00700
C 	C 	0.23860 0.06070 0.01216 -0.07600
H 	H 	0.23480 0.07640 0.01150 0.05100
C 	C 	0.22170 0.04823 0.97700 0.00400
C 	C 	0.22460 0.02479 0.97830 -0.09000
H 	H 	0.21100 0.01670 0.95450 0.05700
C 	C 	0.27930 0.06290 0.08635 0.12000
C 	C 	0.23240 0.08180 0.09707 -0.21300
H 	H 	0.19020 0.08620 0.07940 0.09500
C 	C 	0.24600 0.09400 0.13247 0.16100
H 	H 	0.21340 0.10640 0.13860 -0.03400
C 	C 	0.30760 0.08784 0.15869 -0.27000
C 	C 	0.35750 0.06989 0.14784 0.16700
H 	H 	0.40250 0.06640 0.16440 -0.03300
C 	C 	0.34160 0.05711 0.11269 -0.21600
H 	H 	0.37350 0.04450 0.10690 0.10100
C 	C 	0.31950 0.10151 0.19859 0.60100
C 	C 	0.19700 0.06024 0.93788 0.10100
C 	C 	0.13330 0.05203 0.91405 -0.19600
H 	H 	0.10440 0.03930 0.92280 0.08900
C 	C 	0.11260 0.06235 0.87798 0.13600
H 	H 	0.06920 0.05680 0.86230 -0.02200
C 	C 	0.15560 0.08122 0.86406 -0.23500
C 	C 	0.21890 0.08973 0.88759 0.12400
H 	H 	0.24840 0.10230 0.87850 -0.00200
C 	C 	0.23800 0.07940 0.92484 -0.18500
H 	H 	0.27920 0.08540 0.94140 0.09200
C 	C 	0.13470 0.09257 0.82311 0.55700
Ho	Ho	0.23863 0.63427 0.22949 1.56300
O 	O 	0.99187 0.63063 0.20539 -0.48600
O 	O 	0.11150 0.64640 0.21318 -0.52400
O 	O 	0.80170 0.63789 0.83620 -0.42700
O 	O 	0.77343 0.66994 0.80754 -0.42500
O 	O 	0.88010 0.59533 0.21876 -0.58600
O 	O 	0.77280 0.61614 0.20764 -0.58500
O 	O 	0.68630 0.60509 0.80768 -0.53900
O 	O 	0.56891 0.58760 0.80751 -0.56200
C 	C 	0.99020 0.73760 0.01569 0.18400
C 	C 	0.00228 0.72439 0.05114 -0.23500
H 	H 	0.02380 0.73120 0.07480 0.09900
C 	C 	0.98290 0.70097 0.05231 0.07400
C 	C 	0.94840 0.69124 0.01742 -0.13200
H 	H 	0.93370 0.67610 0.01790 0.07400
C 	C 	0.93520 0.70401 0.98123 0.06900
C 	C 	0.95710 0.72737 0.98114 -0.17800
H 	H 	0.94870 0.73590 0.95720 0.09700
C 	C 	0.99750 0.68716 0.08932 0.15000
C 	C 	0.06710 0.68973 0.11245 -0.26100
H 	H 	0.10450 0.70090 0.10520 0.11400
C 	C 	0.08340 0.67610 0.14636 0.18000
H 	H 	0.13170 0.67790 0.16130 -0.02500
C 	C 	0.02730 0.65965 0.15808 -0.29600
C 	C 	0.95810 0.65701 0.13621 0.22300
H 	H 	0.92020 0.64600 0.14390 -0.03900
C 	C 	0.94320 0.67062 0.10226 -0.23800
H 	H 	0.89480 0.66860 0.08750 0.10900
C 	C 	0.04400 0.64429 0.19531 0.50600
C 	C 	0.90050 0.69273 0.94393 0.05300
C 	C 	0.90360 0.66985 0.93857 -0.12600
H 	H 	0.92830 0.66110 0.95900 0.07300
C 	C 	0.87120 0.65907 0.90374 0.06200
H 	H 	0.87540 0.64350 0.90110 0.01900
C 	C 	0.83450 0.67108 0.87441 -0.14200
C 	C 	0.83160 0.69325 0.87873 0.06300
H 	H 	0.80610 0.70180 0.85820 0.01700
C 	C 	0.86570 0.70434 0.91324 -0.12900
H 	H 	0.86390 0.72000 0.91470 0.07300
C 	C 	0.79980 0.65947 0.83677 0.35600
C 	C 	0.74700 0.51299 0.01398 0.03000
C 	C 	0.76630 0.52572 0.04871 -0.08500
H 	H 	0.78290 0.51840 0.07290 0.05800
C 	C 	0.76150 0.54971 0.04857 -0.00100
C 	C 	0.73860 0.56070 0.01216 -0.07600
H 	H 	0.73480 0.57640 0.01150 0.05500
C 	C 	0.72170 0.54823 0.97700 0.00800
C 	C 	0.72460 0.52479 0.97830 -0.09000
H 	H 	0.71100 0.51670 0.95450 0.05900
C 	C 	0.77930 0.56290 0.08635 0.11800
C 	C 	0.73240 0.58180 0.09707 -0.20600
H 	H 	0.69020 0.58620 0.07940 0.09700
C 	C 	0.74600 0.59400 0.13247 0.15600
H 	H 	0.71340 0.60640 0.13860 -0.02700
C 	C 	0.80760 0.58784 0.15869 -0.25900
C 	C 	0.85750 0.56989 0.14784 0.16200
H 	H 	0.90250 0.56640 0.16440 -0.02200
C 	C 	0.84160 0.55711 0.11269 -0.20800
H 	H 	0.87350 0.54450 0.10690 0.10400
C 	C 	0.81950 0.60151 0.19859 0.59300
C 	C 	0.69700 0.56024 0.93788 0.10300
C 	C 	0.63330 0.55203 0.91405 -0.19300
H 	H 	0.60440 0.53930 0.92280 0.09400
C 	C 	0.61260 0.56235 0.87798 0.13800
H 	H 	0.56920 0.55680 0.86230 -0.01600
C 	C 	0.65560 0.58122 0.86406 -0.23200
C 	C 	0.71890 0.58973 0.88759 0.12600
H 	H 	0.74840 0.60230 0.87850 -0.00000
C 	C 	0.73800 0.57940 0.92484 -0.18300
H 	H 	0.77920 0.58540 0.94140 0.09500
C 	C 	0.63470 0.59257 0.82311 0.56000
Ho	Ho	0.00000 0.09987 0.75000 1.91500
Ho	Ho	0.50000 0.59987 0.75000 1.98700
Ho	Ho	0.50000 0.90013 0.75000 1.98700
Ho	Ho	0.00000 0.40013 0.75000 1.91500
Ho	Ho	0.00000 0.90013 0.25000 1.91500
Ho	Ho	0.50000 0.40013 0.25000 1.98700
Ho	Ho	0.50000 0.09987 0.25000 1.98700
Ho	Ho	-0.00000 0.59987 0.25000 1.91500
