data_crystal

_cell_length_a 32.30100
_cell_length_b 28.82500
_cell_length_c 18.69200
_cell_angle_alpha 90.00000
_cell_angle_beta  104.24000
_cell_angle_gamma 90.00000

_symmetry_space_group_name_	'P 1'
_symmetry_space_group_name_H-M	'P 1'

loop_
_symmetry_equiv_pos_as_xyz
  x,y,z

loop_
_atom_site_label
_atom_site_type_symbol
_atom_site_fract_x
_atom_site_fract_y
_atom_site_fract_z
_atom_site_charge
Lu	Lu	0.01456 0.22588 0.54907 1.13500
O 	O 	0.03834 0.20350 0.66460 -0.42100
O 	O 	0.04538 0.24440 0.76670 -0.41500
O 	O 	0.46058 0.18520 0.13910 -0.42400
O 	O 	0.45376 0.23570 0.04740 -0.44400
O 	O 	0.08510 0.78060 0.03280 -0.36400
O 	O 	0.04720 0.84270 0.02010 -0.38000
O 	O 	0.45369 0.79143 0.91170 -0.42700
O 	O 	0.44677 0.82550 0.80200 -0.37800
C 	C 	0.24788 0.04070 0.89860 0.04200
C 	C 	0.21077 0.06450 0.86580 -0.11100
H 	H 	0.18630 0.04800 0.84290 0.06500
C 	C 	0.20980 0.11190 0.86660 0.03600
C 	C 	0.24616 0.13550 0.89950 -0.10700
H 	H 	0.24570 0.16770 0.89900 0.06700
C 	C 	0.28380 0.11280 0.93380 0.03300
C 	C 	0.28369 0.06610 0.93200 -0.11000
H 	H 	0.30870 0.05040 0.95410 0.06700
C 	C 	0.16924 0.13750 0.82930 0.06300
C 	C 	0.15640 0.17330 0.86500 -0.13600
H 	H 	0.17310 0.18200 0.91090 0.07600
C 	C 	0.11880 0.19760 0.83530 0.06400
H 	H 	0.10920 0.22040 0.86260 0.01800
C 	C 	0.09570 0.18690 0.76280 -0.15700
C 	C 	0.10790 0.14970 0.72590 0.06600
H 	H 	0.09220 0.14120 0.67910 0.01800
C 	C 	0.14500 0.12480 0.76160 -0.13200
H 	H 	0.15320 0.09910 0.73830 0.07400
C 	C 	0.05630 0.21370 0.73040 0.43700
C 	C 	0.32306 0.13800 0.97110 0.07300
C 	C 	0.34870 0.12130 0.03790 -0.16000
H 	H 	0.34080 0.09450 0.05900 0.08400
C 	C 	0.38570 0.14470 0.07260 0.11400
H 	H 	0.40170 0.13370 0.11780 0.00100
C 	C 	0.39908 0.18200 0.04360 -0.20100
C 	C 	0.37380 0.19990 0.97850 0.09400
H 	H 	0.38190 0.22730 0.95950 -0.00200
C 	C 	0.33610 0.17720 0.94050 -0.15400
H 	H 	0.32030 0.18850 0.89550 0.08100
C 	C 	0.44023 0.20370 0.07910 0.45000
C 	C 	0.24915 0.98970 0.90220 0.04300
C 	C 	0.28524 0.96630 0.89460 -0.11600
H 	H 	0.30790 0.98280 0.88480 0.06900
C 	C 	0.28785 0.91880 0.90160 0.04300
C 	C 	0.25401 0.89560 0.92060 -0.11200
H 	H 	0.25570 0.86360 0.92710 0.06500
C 	C 	0.21781 0.91900 0.93000 0.04000
C 	C 	0.21516 0.96550 0.91970 -0.11400
H 	H 	0.19090 0.98140 0.92430 0.06500
C 	C 	0.18210 0.89350 0.95360 0.04100
C 	C 	0.17510 0.84890 0.93650 0.11700
H 	H 	0.19240 0.83360 0.91110 -0.01700
C 	C 	0.14150 0.82450 0.95650 -0.20500
H 	H 	0.13690 0.79320 0.94470 0.09800
C 	C 	0.11970 0.89220 0.99930 0.08900
H 	H 	0.09850 0.90880 0.01380 0.00500
C 	C 	0.15400 0.91660 0.98500 -0.11500
H 	H 	0.15770 0.94790 0.99650 0.06400
C 	C 	0.11590 0.84770 0.99350 -0.09700
C 	C 	0.07950 0.82060 0.01490 0.33200
C 	C 	0.32630 0.89440 0.89340 0.04200
C 	C 	0.34210 0.85670 0.93820 -0.10900
H 	H 	0.32830 0.84710 0.97380 0.06500
C 	C 	0.37920 0.83250 0.93060 0.04300
H 	H 	0.39010 0.80790 0.96180 0.03000
C 	C 	0.39883 0.84600 0.87660 -0.13400
C 	C 	0.38350 0.88260 0.83010 0.04900
H 	H 	0.39660 0.89110 0.79300 0.02100
C 	C 	0.34770 0.90680 0.84020 -0.11300
H 	H 	0.33780 0.93210 0.81010 0.06800
C 	C 	0.43600 0.81770 0.86510 0.40800
C 	C 	0.19040 0.85600 0.00100 -0.24600
H 	H 	0.21860 0.84860 0.02390 0.11100
C 	C 	0.15820 0.82920 0.01510 0.21000
H 	H 	0.16360 0.80030 0.03780 -0.03500
C 	C 	0.10540 0.88510 0.94210 -0.08000
H 	H 	0.07740 0.89400 0.92140 0.05400
C 	C 	0.14000 0.90720 0.92510 -0.00600
H 	H 	0.13470 0.93230 0.89300 0.02400
Lu	Lu	0.51456 0.72588 0.54907 1.14500
O 	O 	0.53834 0.70350 0.66460 -0.42000
O 	O 	0.54538 0.74440 0.76670 -0.41400
O 	O 	0.96058 0.68520 0.13910 -0.41500
O 	O 	0.95376 0.73570 0.04740 -0.43500
O 	O 	0.58510 0.28060 0.03280 -0.36400
O 	O 	0.54720 0.34270 0.02010 -0.37800
O 	O 	0.95369 0.29143 0.91170 -0.42400
O 	O 	0.94677 0.32550 0.80200 -0.37300
C 	C 	0.74788 0.54070 0.89860 0.04200
C 	C 	0.71077 0.56450 0.86580 -0.11200
H 	H 	0.68630 0.54800 0.84290 0.06600
C 	C 	0.70980 0.61190 0.86660 0.03800
C 	C 	0.74616 0.63550 0.89950 -0.10900
H 	H 	0.74570 0.66770 0.89900 0.06700
C 	C 	0.78380 0.61280 0.93380 0.03600
C 	C 	0.78369 0.56610 0.93200 -0.11200
H 	H 	0.80870 0.55040 0.95410 0.06800
C 	C 	0.66924 0.63750 0.82930 0.06200
C 	C 	0.65640 0.67330 0.86500 -0.13500
H 	H 	0.67310 0.68200 0.91090 0.07600
C 	C 	0.61880 0.69760 0.83530 0.06400
H 	H 	0.60920 0.72040 0.86260 0.01900
C 	C 	0.59570 0.68690 0.76280 -0.15600
C 	C 	0.60790 0.64970 0.72590 0.06600
H 	H 	0.59220 0.64120 0.67910 0.01900
C 	C 	0.64500 0.62480 0.76160 -0.13200
H 	H 	0.65320 0.59910 0.73830 0.07500
C 	C 	0.55630 0.71370 0.73040 0.43800
C 	C 	0.82306 0.63800 0.97110 0.06900
C 	C 	0.84870 0.62130 0.03790 -0.15400
H 	H 	0.84080 0.59450 0.05900 0.08300
C 	C 	0.88570 0.64470 0.07260 0.10800
H 	H 	0.90170 0.63370 0.11780 0.00400
C 	C 	0.89908 0.68200 0.04360 -0.19300
C 	C 	0.87380 0.69990 0.97850 0.08800
H 	H 	0.88190 0.72730 0.95950 0.00100
C 	C 	0.83610 0.67720 0.94050 -0.14900
H 	H 	0.82030 0.68850 0.89550 0.08000
C 	C 	0.94023 0.70370 0.07910 0.44600
C 	C 	0.74915 0.48970 0.90220 0.04300
C 	C 	0.78524 0.46630 0.89460 -0.11600
H 	H 	0.80790 0.48280 0.88480 0.07000
C 	C 	0.78785 0.41880 0.90160 0.04400
C 	C 	0.75401 0.39560 0.92060 -0.11300
H 	H 	0.75570 0.36360 0.92710 0.06500
C 	C 	0.71781 0.41900 0.93000 0.04100
C 	C 	0.71516 0.46550 0.91970 -0.11400
H 	H 	0.69090 0.48140 0.92430 0.06500
C 	C 	0.68210 0.39350 0.95360 0.04000
C 	C 	0.67510 0.34890 0.93650 0.11300
H 	H 	0.69240 0.33360 0.91110 -0.01500
C 	C 	0.64150 0.32450 0.95650 -0.20000
H 	H 	0.63690 0.29320 0.94470 0.09700
C 	C 	0.61970 0.39220 0.99930 0.08600
H 	H 	0.59850 0.40880 0.01380 0.00800
C 	C 	0.65400 0.41660 0.98500 -0.11300
H 	H 	0.65770 0.44790 0.99650 0.06400
C 	C 	0.61590 0.34770 0.99350 -0.09600
C 	C 	0.57950 0.32060 0.01490 0.33200
C 	C 	0.82630 0.39440 0.89340 0.04100
C 	C 	0.84210 0.35670 0.93820 -0.10700
H 	H 	0.82830 0.34710 0.97380 0.06500
C 	C 	0.87920 0.33250 0.93060 0.04200
H 	H 	0.89010 0.30790 0.96180 0.03100
C 	C 	0.89883 0.34600 0.87660 -0.13200
C 	C 	0.88350 0.38260 0.83010 0.04800
H 	H 	0.89660 0.39110 0.79300 0.02300
C 	C 	0.84770 0.40680 0.84020 -0.11200
H 	H 	0.83780 0.43210 0.81010 0.06800
C 	C 	0.93600 0.31770 0.86510 0.40800
C 	C 	0.69040 0.35600 0.00100 -0.24000
H 	H 	0.71860 0.34860 0.02390 0.11000
C 	C 	0.65820 0.32920 0.01510 0.20400
H 	H 	0.66360 0.30030 0.03780 -0.03300
C 	C 	0.60540 0.38510 0.94210 -0.07800
H 	H 	0.57740 0.39400 0.92140 0.05500
C 	C 	0.64000 0.40720 0.92510 -0.00600
H 	H 	0.63470 0.43230 0.89300 0.02600
Lu	Lu	0.98544 0.22588 0.95093 1.15600
O 	O 	0.96166 0.20350 0.83540 -0.41600
O 	O 	0.95462 0.24440 0.73330 -0.40700
O 	O 	0.53942 0.18520 0.36090 -0.42500
O 	O 	0.54624 0.23570 0.45260 -0.44500
O 	O 	0.91490 0.78060 0.46720 -0.36400
O 	O 	0.95280 0.84270 0.47990 -0.37500
O 	O 	0.54631 0.79143 0.58830 -0.42800
O 	O 	0.55323 0.82550 0.69800 -0.37900
C 	C 	0.75212 0.04070 0.60140 0.04100
C 	C 	0.78923 0.06450 0.63420 -0.11100
H 	H 	0.81370 0.04800 0.65710 0.06700
C 	C 	0.79020 0.11190 0.63340 0.03700
C 	C 	0.75384 0.13550 0.60050 -0.10700
H 	H 	0.75430 0.16770 0.60100 0.06700
C 	C 	0.71620 0.11280 0.56620 0.03300
C 	C 	0.71631 0.06610 0.56800 -0.11000
H 	H 	0.69130 0.05040 0.54590 0.06700
C 	C 	0.83076 0.13750 0.67070 0.06300
C 	C 	0.84360 0.17330 0.63500 -0.13400
H 	H 	0.82690 0.18200 0.58910 0.07600
C 	C 	0.88120 0.19760 0.66470 0.06400
H 	H 	0.89080 0.22040 0.63740 0.02000
C 	C 	0.90430 0.18690 0.73720 -0.15500
C 	C 	0.89210 0.14970 0.77410 0.06600
H 	H 	0.90780 0.14120 0.82090 0.02000
C 	C 	0.85500 0.12480 0.73840 -0.13100
H 	H 	0.84680 0.09910 0.76170 0.07500
C 	C 	0.94370 0.21370 0.76960 0.43700
C 	C 	0.67694 0.13800 0.52890 0.07400
C 	C 	0.65130 0.12130 0.46210 -0.16000
H 	H 	0.65920 0.09450 0.44100 0.08500
C 	C 	0.61430 0.14470 0.42740 0.11500
H 	H 	0.59830 0.13370 0.38220 0.00100
C 	C 	0.60092 0.18200 0.45640 -0.20100
C 	C 	0.62620 0.19990 0.52150 0.09500
H 	H 	0.61810 0.22730 0.54050 -0.00200
C 	C 	0.66390 0.17720 0.55950 -0.15500
H 	H 	0.67970 0.18850 0.60450 0.08100
C 	C 	0.55977 0.20370 0.42090 0.45100
C 	C 	0.75085 0.98970 0.59780 0.04400
C 	C 	0.71476 0.96630 0.60540 -0.11700
H 	H 	0.69210 0.98280 0.61520 0.07000
C 	C 	0.71215 0.91880 0.59840 0.04400
C 	C 	0.74599 0.89560 0.57940 -0.11300
H 	H 	0.74430 0.86360 0.57290 0.06600
C 	C 	0.78219 0.91900 0.57000 0.04100
C 	C 	0.78484 0.96550 0.58030 -0.11500
H 	H 	0.80910 0.98140 0.57570 0.06600
C 	C 	0.81790 0.89350 0.54640 0.04000
C 	C 	0.82490 0.84890 0.56350 0.11400
H 	H 	0.80760 0.83360 0.58890 -0.01500
C 	C 	0.85850 0.82450 0.54350 -0.19900
H 	H 	0.86310 0.79320 0.55530 0.09800
C 	C 	0.88030 0.89220 0.50070 0.08400
H 	H 	0.90150 0.90880 0.48620 0.00900
C 	C 	0.84600 0.91660 0.51500 -0.11200
H 	H 	0.84230 0.94790 0.50350 0.06400
C 	C 	0.88410 0.84770 0.50650 -0.09400
C 	C 	0.92050 0.82060 0.48510 0.33100
C 	C 	0.67370 0.89440 0.60660 0.04100
C 	C 	0.65790 0.85670 0.56180 -0.10800
H 	H 	0.67170 0.84710 0.52620 0.06500
C 	C 	0.62080 0.83250 0.56940 0.04300
H 	H 	0.60990 0.80790 0.53820 0.03000
C 	C 	0.60117 0.84600 0.62340 -0.13400
C 	C 	0.61650 0.88260 0.66990 0.04900
H 	H 	0.60340 0.89110 0.70700 0.02100
C 	C 	0.65230 0.90680 0.65980 -0.11300
H 	H 	0.66220 0.93210 0.68990 0.06800
C 	C 	0.56400 0.81770 0.63490 0.40800
C 	C 	0.80960 0.85600 0.49900 -0.24100
H 	H 	0.78140 0.84860 0.47610 0.10900
C 	C 	0.84180 0.82920 0.48490 0.20300
H 	H 	0.83640 0.80030 0.46220 -0.03300
C 	C 	0.89460 0.88510 0.55790 -0.07700
H 	H 	0.92260 0.89400 0.57860 0.05700
C 	C 	0.86000 0.90720 0.57490 -0.00700
H 	H 	0.86530 0.93230 0.60700 0.02700
Lu	Lu	0.48544 0.72588 0.95093 1.14500
O 	O 	0.46166 0.70350 0.83540 -0.42000
O 	O 	0.45462 0.74440 0.73330 -0.41400
O 	O 	0.03942 0.68520 0.36090 -0.42900
O 	O 	0.04624 0.73570 0.45260 -0.45400
O 	O 	0.41490 0.28060 0.46720 -0.36400
O 	O 	0.45280 0.34270 0.47990 -0.37800
O 	O 	0.04631 0.29143 0.58830 -0.43000
O 	O 	0.05323 0.32550 0.69800 -0.38000
C 	C 	0.25212 0.54070 0.60140 0.04000
C 	C 	0.28923 0.56450 0.63420 -0.11100
H 	H 	0.31370 0.54800 0.65710 0.06600
C 	C 	0.29020 0.61190 0.63340 0.03600
C 	C 	0.25384 0.63550 0.60050 -0.10700
H 	H 	0.25430 0.66770 0.60100 0.06600
C 	C 	0.21620 0.61280 0.56620 0.03200
C 	C 	0.21631 0.56610 0.56800 -0.10900
H 	H 	0.19130 0.55040 0.54590 0.06600
C 	C 	0.33076 0.63750 0.67070 0.06300
C 	C 	0.34360 0.67330 0.63500 -0.13600
H 	H 	0.32690 0.68200 0.58910 0.07600
C 	C 	0.38120 0.69760 0.66470 0.06500
H 	H 	0.39080 0.72040 0.63740 0.01900
C 	C 	0.40430 0.68690 0.73720 -0.15600
C 	C 	0.39210 0.64970 0.77410 0.06700
H 	H 	0.40780 0.64120 0.82090 0.01900
C 	C 	0.35500 0.62480 0.73840 -0.13200
H 	H 	0.34680 0.59910 0.76170 0.07500
C 	C 	0.44370 0.71370 0.76960 0.43800
C 	C 	0.17694 0.63800 0.52890 0.07500
C 	C 	0.15130 0.62130 0.46210 -0.16200
H 	H 	0.15920 0.59450 0.44100 0.08500
C 	C 	0.11430 0.64470 0.42740 0.11600
H 	H 	0.09830 0.63370 0.38220 -0.00100
C 	C 	0.10092 0.68200 0.45640 -0.20400
C 	C 	0.12620 0.69990 0.52150 0.09600
H 	H 	0.11810 0.72730 0.54050 -0.00400
C 	C 	0.16390 0.67720 0.55950 -0.15700
H 	H 	0.17970 0.68850 0.60450 0.08100
C 	C 	0.05977 0.70370 0.42090 0.45200
C 	C 	0.25085 0.48970 0.59780 0.04300
C 	C 	0.21476 0.46630 0.60540 -0.11600
H 	H 	0.19210 0.48280 0.61520 0.06900
C 	C 	0.21215 0.41880 0.59840 0.04300
C 	C 	0.24599 0.39560 0.57940 -0.11200
H 	H 	0.24430 0.36360 0.57290 0.06500
C 	C 	0.28219 0.41900 0.57000 0.04100
C 	C 	0.28484 0.46550 0.58030 -0.11500
H 	H 	0.30910 0.48140 0.57570 0.06500
C 	C 	0.31790 0.39350 0.54640 0.04100
C 	C 	0.32490 0.34890 0.56350 0.11600
H 	H 	0.30760 0.33360 0.58890 -0.01600
C 	C 	0.35850 0.32450 0.54350 -0.20200
H 	H 	0.36310 0.29320 0.55530 0.09800
C 	C 	0.38030 0.39220 0.50070 0.08700
H 	H 	0.40150 0.40880 0.48620 0.00700
C 	C 	0.34600 0.41660 0.51500 -0.11300
H 	H 	0.34230 0.44790 0.50350 0.06400
C 	C 	0.38410 0.34770 0.50650 -0.09600
C 	C 	0.42050 0.32060 0.48510 0.33100
C 	C 	0.17370 0.39440 0.60660 0.04200
C 	C 	0.15790 0.35670 0.56180 -0.10900
H 	H 	0.17170 0.34710 0.52620 0.06500
C 	C 	0.12080 0.33250 0.56940 0.04300
H 	H 	0.10990 0.30790 0.53820 0.03000
C 	C 	0.10117 0.34600 0.62340 -0.13500
C 	C 	0.11650 0.38260 0.66990 0.04900
H 	H 	0.10340 0.39110 0.70700 0.02000
C 	C 	0.15230 0.40680 0.65980 -0.11400
H 	H 	0.16220 0.43210 0.68990 0.06800
C 	C 	0.06400 0.31770 0.63490 0.40800
C 	C 	0.30960 0.35600 0.49900 -0.24400
H 	H 	0.28140 0.34860 0.47610 0.11000
C 	C 	0.34180 0.32920 0.48490 0.20600
H 	H 	0.33640 0.30030 0.46220 -0.03400
C 	C 	0.39460 0.38510 0.55790 -0.07800
H 	H 	0.42260 0.39400 0.57860 0.05500
C 	C 	0.36000 0.40720 0.57490 -0.00700
H 	H 	0.36530 0.43230 0.60700 0.02600
Lu	Lu	0.98544 0.77412 0.45093 1.15700
O 	O 	0.96166 0.79650 0.33540 -0.41600
O 	O 	0.95462 0.75560 0.23330 -0.40700
O 	O 	0.53942 0.81480 0.86090 -0.42500
O 	O 	0.54624 0.76430 0.95260 -0.44600
O 	O 	0.91490 0.21940 0.96720 -0.36400
O 	O 	0.95280 0.15730 0.97990 -0.37500
O 	O 	0.54631 0.20857 0.08830 -0.42800
O 	O 	0.55323 0.17450 0.19800 -0.37900
C 	C 	0.75212 0.95930 0.10140 0.04100
C 	C 	0.78923 0.93550 0.13420 -0.11100
H 	H 	0.81370 0.95200 0.15710 0.06700
C 	C 	0.79020 0.88810 0.13340 0.03700
C 	C 	0.75384 0.86450 0.10050 -0.10700
H 	H 	0.75430 0.83230 0.10100 0.06700
C 	C 	0.71620 0.88720 0.06620 0.03200
C 	C 	0.71631 0.93390 0.06800 -0.10900
H 	H 	0.69130 0.94960 0.04590 0.06700
C 	C 	0.83076 0.86250 0.17070 0.06300
C 	C 	0.84360 0.82670 0.13500 -0.13400
H 	H 	0.82690 0.81800 0.08910 0.07600
C 	C 	0.88120 0.80240 0.16470 0.06400
H 	H 	0.89080 0.77960 0.13740 0.02000
C 	C 	0.90430 0.81310 0.23720 -0.15500
C 	C 	0.89210 0.85030 0.27410 0.06600
H 	H 	0.90780 0.85880 0.32090 0.02000
C 	C 	0.85500 0.87520 0.23840 -0.13100
H 	H 	0.84680 0.90090 0.26170 0.07500
C 	C 	0.94370 0.78630 0.26960 0.43700
C 	C 	0.67694 0.86200 0.02890 0.07500
C 	C 	0.65130 0.87870 0.96210 -0.16200
H 	H 	0.65920 0.90550 0.94100 0.08500
C 	C 	0.61430 0.85530 0.92740 0.11600
H 	H 	0.59830 0.86630 0.88220 -0.00000
C 	C 	0.60092 0.81800 0.95640 -0.20300
C 	C 	0.62620 0.80010 0.02150 0.09700
H 	H 	0.61810 0.77270 0.04050 -0.00300
C 	C 	0.66390 0.82280 0.05950 -0.15600
H 	H 	0.67970 0.81150 0.10450 0.08200
C 	C 	0.55977 0.79630 0.92090 0.45100
C 	C 	0.75085 0.01030 0.09780 0.04400
C 	C 	0.71476 0.03370 0.10540 -0.11700
H 	H 	0.69210 0.01720 0.11520 0.07000
C 	C 	0.71215 0.08120 0.09840 0.04400
C 	C 	0.74599 0.10440 0.07940 -0.11300
H 	H 	0.74430 0.13640 0.07290 0.06600
C 	C 	0.78219 0.08100 0.07000 0.04100
C 	C 	0.78484 0.03450 0.08030 -0.11500
H 	H 	0.80910 0.01860 0.07570 0.06600
C 	C 	0.81790 0.10650 0.04640 0.04100
C 	C 	0.82490 0.15110 0.06350 0.12200
H 	H 	0.80760 0.16640 0.08890 -0.01800
C 	C 	0.85850 0.17550 0.04350 -0.20500
H 	H 	0.86310 0.20680 0.05530 0.10000
C 	C 	0.88030 0.10780 0.00070 0.08700
H 	H 	0.90150 0.09120 0.98620 0.00700
C 	C 	0.84600 0.08340 0.01500 -0.11200
H 	H 	0.84230 0.05210 0.00350 0.06500
C 	C 	0.88410 0.15230 0.00650 -0.09300
C 	C 	0.92050 0.17940 0.98510 0.33000
C 	C 	0.67370 0.10560 0.10660 0.04100
C 	C 	0.65790 0.14330 0.06180 -0.10800
H 	H 	0.67170 0.15290 0.02620 0.06500
C 	C 	0.62080 0.16750 0.06940 0.04300
H 	H 	0.60990 0.19210 0.03820 0.03000
C 	C 	0.60117 0.15400 0.12340 -0.13400
C 	C 	0.61650 0.11740 0.16990 0.04900
H 	H 	0.60340 0.10890 0.20700 0.02100
C 	C 	0.65230 0.09320 0.15980 -0.11300
H 	H 	0.66220 0.06790 0.18990 0.06800
C 	C 	0.56400 0.18230 0.13490 0.40800
C 	C 	0.80960 0.14400 0.99900 -0.24900
H 	H 	0.78140 0.15140 0.97610 0.11200
C 	C 	0.84180 0.17080 0.98490 0.20800
H 	H 	0.83640 0.19970 0.96220 -0.03500
C 	C 	0.89460 0.11490 0.05790 -0.07900
H 	H 	0.92260 0.10600 0.07860 0.05800
C 	C 	0.86000 0.09280 0.07490 -0.00700
H 	H 	0.86530 0.06770 0.10700 0.02700
Lu	Lu	0.48544 0.27412 0.45093 1.14500
O 	O 	0.46166 0.29650 0.33540 -0.42000
O 	O 	0.45462 0.25560 0.23330 -0.41400
O 	O 	0.03942 0.31480 0.86090 -0.42900
O 	O 	0.04624 0.26430 0.95260 -0.45300
O 	O 	0.41490 0.71940 0.96720 -0.36400
O 	O 	0.45280 0.65730 0.97990 -0.37800
O 	O 	0.04631 0.70857 0.08830 -0.43000
O 	O 	0.05323 0.67450 0.19800 -0.38000
C 	C 	0.25212 0.45930 0.10140 0.04000
C 	C 	0.28923 0.43550 0.13420 -0.11000
H 	H 	0.31370 0.45200 0.15710 0.06600
C 	C 	0.29020 0.38810 0.13340 0.03600
C 	C 	0.25384 0.36450 0.10050 -0.10600
H 	H 	0.25430 0.33230 0.10100 0.06600
C 	C 	0.21620 0.38720 0.06620 0.03100
C 	C 	0.21631 0.43390 0.06800 -0.10900
H 	H 	0.19130 0.44960 0.04590 0.06600
C 	C 	0.33076 0.36250 0.17070 0.06300
C 	C 	0.34360 0.32670 0.13500 -0.13600
H 	H 	0.32690 0.31800 0.08910 0.07600
C 	C 	0.38120 0.30240 0.16470 0.06500
H 	H 	0.39080 0.27960 0.13740 0.01900
C 	C 	0.40430 0.31310 0.23720 -0.15700
C 	C 	0.39210 0.35030 0.27410 0.06700
H 	H 	0.40780 0.35880 0.32090 0.01900
C 	C 	0.35500 0.37520 0.23840 -0.13200
H 	H 	0.34680 0.40090 0.26170 0.07500
C 	C 	0.44370 0.28630 0.26960 0.43800
C 	C 	0.17694 0.36200 0.02890 0.07500
C 	C 	0.15130 0.37870 0.96210 -0.16300
H 	H 	0.15920 0.40550 0.94100 0.08500
C 	C 	0.11430 0.35530 0.92740 0.11700
H 	H 	0.09830 0.36630 0.88220 -0.00100
C 	C 	0.10092 0.31800 0.95640 -0.20500
C 	C 	0.12620 0.30010 0.02150 0.09700
H 	H 	0.11810 0.27270 0.04050 -0.00400
C 	C 	0.16390 0.32280 0.05950 -0.15700
H 	H 	0.17970 0.31150 0.10450 0.08100
C 	C 	0.05977 0.29630 0.92090 0.45200
C 	C 	0.25085 0.51030 0.09780 0.04300
C 	C 	0.21476 0.53370 0.10540 -0.11600
H 	H 	0.19210 0.51720 0.11520 0.06900
C 	C 	0.21215 0.58120 0.09840 0.04300
C 	C 	0.24599 0.60440 0.07940 -0.11200
H 	H 	0.24430 0.63640 0.07290 0.06500
C 	C 	0.28219 0.58100 0.07000 0.04100
C 	C 	0.28484 0.53450 0.08030 -0.11500
H 	H 	0.30910 0.51860 0.07570 0.06500
C 	C 	0.31790 0.60650 0.04640 0.04100
C 	C 	0.32490 0.65110 0.06350 0.11700
H 	H 	0.30760 0.66640 0.08890 -0.01700
C 	C 	0.35850 0.67550 0.04350 -0.20300
H 	H 	0.36310 0.70680 0.05530 0.09800
C 	C 	0.38030 0.60780 0.00070 0.08700
H 	H 	0.40150 0.59120 0.98620 0.00700
C 	C 	0.34600 0.58340 0.01500 -0.11300
H 	H 	0.34230 0.55210 0.00350 0.06400
C 	C 	0.38410 0.65230 0.00650 -0.09500
C 	C 	0.42050 0.67940 0.98510 0.33100
C 	C 	0.17370 0.60560 0.10660 0.04200
C 	C 	0.15790 0.64330 0.06180 -0.10900
H 	H 	0.17170 0.65290 0.02620 0.06500
C 	C 	0.12080 0.66750 0.06940 0.04300
H 	H 	0.10990 0.69210 0.03820 0.03000
C 	C 	0.10117 0.65400 0.12340 -0.13500
C 	C 	0.11650 0.61740 0.16990 0.04900
H 	H 	0.10340 0.60890 0.20700 0.02000
C 	C 	0.15230 0.59320 0.15980 -0.11400
H 	H 	0.16220 0.56790 0.18990 0.06800
C 	C 	0.06400 0.68230 0.13490 0.40800
C 	C 	0.30960 0.64400 0.99900 -0.24600
H 	H 	0.28140 0.65140 0.97610 0.11100
C 	C 	0.34180 0.67080 0.98490 0.20700
H 	H 	0.33640 0.69970 0.96220 -0.03400
C 	C 	0.39460 0.61490 0.05790 -0.07800
H 	H 	0.42260 0.60600 0.07860 0.05600
C 	C 	0.36000 0.59280 0.07490 -0.00700
H 	H 	0.36530 0.56770 0.10700 0.02600
Lu	Lu	0.01456 0.77412 0.04907 1.13400
O 	O 	0.03834 0.79650 0.16460 -0.42200
O 	O 	0.04538 0.75560 0.26670 -0.41600
O 	O 	0.46058 0.81480 0.63910 -0.42500
O 	O 	0.45376 0.76430 0.54740 -0.44500
O 	O 	0.08510 0.21940 0.53280 -0.36500
O 	O 	0.04720 0.15730 0.52010 -0.38100
O 	O 	0.45369 0.20857 0.41170 -0.42800
O 	O 	0.44677 0.17450 0.30200 -0.37900
C 	C 	0.24788 0.95930 0.39860 0.04100
C 	C 	0.21077 0.93550 0.36580 -0.11100
H 	H 	0.18630 0.95200 0.34290 0.06500
C 	C 	0.20980 0.88810 0.36660 0.03600
C 	C 	0.24616 0.86450 0.39950 -0.10700
H 	H 	0.24570 0.83230 0.39900 0.06700
C 	C 	0.28380 0.88720 0.43380 0.03200
C 	C 	0.28369 0.93390 0.43200 -0.11000
H 	H 	0.30870 0.94960 0.45410 0.06700
C 	C 	0.16924 0.86250 0.32930 0.06300
C 	C 	0.15640 0.82670 0.36500 -0.13600
H 	H 	0.17310 0.81800 0.41090 0.07600
C 	C 	0.11880 0.80240 0.33530 0.06400
H 	H 	0.10920 0.77960 0.36260 0.01800
C 	C 	0.09570 0.81310 0.26280 -0.15700
C 	C 	0.10790 0.85030 0.22590 0.06600
H 	H 	0.09220 0.85880 0.17910 0.01800
C 	C 	0.14500 0.87520 0.26160 -0.13200
H 	H 	0.15320 0.90090 0.23830 0.07400
C 	C 	0.05630 0.78630 0.23040 0.43700
C 	C 	0.32306 0.86200 0.47110 0.07400
C 	C 	0.34870 0.87870 0.53790 -0.16100
H 	H 	0.34080 0.90550 0.55900 0.08500
C 	C 	0.38570 0.85530 0.57260 0.11500
H 	H 	0.40170 0.86630 0.61780 0.00000
C 	C 	0.39908 0.81800 0.54360 -0.20200
C 	C 	0.37380 0.80010 0.47850 0.09500
H 	H 	0.38190 0.77270 0.45950 -0.00200
C 	C 	0.33610 0.82280 0.44050 -0.15500
H 	H 	0.32030 0.81150 0.39550 0.08100
C 	C 	0.44023 0.79630 0.57910 0.45100
C 	C 	0.24915 0.01030 0.40220 0.04300
C 	C 	0.28524 0.03370 0.39460 -0.11600
H 	H 	0.30790 0.01720 0.38480 0.06900
C 	C 	0.28785 0.08120 0.40160 0.04300
C 	C 	0.25401 0.10440 0.42060 -0.11200
H 	H 	0.25570 0.13640 0.42710 0.06500
C 	C 	0.21781 0.08100 0.43000 0.04000
C 	C 	0.21516 0.03450 0.41970 -0.11400
H 	H 	0.19090 0.01860 0.42430 0.06500
C 	C 	0.18210 0.10650 0.45360 0.04200
C 	C 	0.17510 0.15110 0.43650 0.11800
H 	H 	0.19240 0.16640 0.41110 -0.01700
C 	C 	0.14150 0.17550 0.45650 -0.20500
H 	H 	0.13690 0.20680 0.44470 0.09800
C 	C 	0.11970 0.10780 0.49930 0.09000
H 	H 	0.09850 0.09120 0.51380 0.00500
C 	C 	0.15400 0.08340 0.48500 -0.11500
H 	H 	0.15770 0.05210 0.49650 0.06400
C 	C 	0.11590 0.15230 0.49350 -0.09700
C 	C 	0.07950 0.17940 0.51490 0.33200
C 	C 	0.32630 0.10560 0.39340 0.04200
C 	C 	0.34210 0.14330 0.43820 -0.10900
H 	H 	0.32830 0.15290 0.47380 0.06500
C 	C 	0.37920 0.16750 0.43060 0.04300
H 	H 	0.39010 0.19210 0.46180 0.03000
C 	C 	0.39883 0.15400 0.37660 -0.13400
C 	C 	0.38350 0.11740 0.33010 0.04900
H 	H 	0.39660 0.10890 0.29300 0.02100
C 	C 	0.34770 0.09320 0.34020 -0.11300
H 	H 	0.33780 0.06790 0.31010 0.06800
C 	C 	0.43600 0.18230 0.36510 0.40800
C 	C 	0.19040 0.14400 0.50100 -0.24700
H 	H 	0.21860 0.15140 0.52390 0.11100
C 	C 	0.15820 0.17080 0.51510 0.21000
H 	H 	0.16360 0.19970 0.53780 -0.03500
C 	C 	0.10540 0.11490 0.44210 -0.08000
H 	H 	0.07740 0.10600 0.42140 0.05400
C 	C 	0.14000 0.09280 0.42510 -0.00600
H 	H 	0.13470 0.06770 0.39300 0.02400
Lu	Lu	0.51456 0.27412 0.04907 1.14500
O 	O 	0.53834 0.29650 0.16460 -0.42000
O 	O 	0.54538 0.25560 0.26670 -0.41400
O 	O 	0.96058 0.31480 0.63910 -0.41500
O 	O 	0.95376 0.26430 0.54740 -0.43600
O 	O 	0.58510 0.71940 0.53280 -0.36400
O 	O 	0.54720 0.65730 0.52010 -0.37800
O 	O 	0.95369 0.70857 0.41170 -0.42400
O 	O 	0.94677 0.67450 0.30200 -0.37200
C 	C 	0.74788 0.45930 0.39860 0.04200
C 	C 	0.71077 0.43550 0.36580 -0.11100
H 	H 	0.68630 0.45200 0.34290 0.06600
C 	C 	0.70980 0.38810 0.36660 0.03700
C 	C 	0.74616 0.36450 0.39950 -0.10800
H 	H 	0.74570 0.33230 0.39900 0.06700
C 	C 	0.78380 0.38720 0.43380 0.03400
C 	C 	0.78369 0.43390 0.43200 -0.11000
H 	H 	0.80870 0.44960 0.45410 0.06800
C 	C 	0.66924 0.36250 0.32930 0.06300
C 	C 	0.65640 0.32670 0.36500 -0.13500
H 	H 	0.67310 0.31800 0.41090 0.07600
C 	C 	0.61880 0.30240 0.33530 0.06400
H 	H 	0.60920 0.27960 0.36260 0.01900
C 	C 	0.59570 0.31310 0.26280 -0.15600
C 	C 	0.60790 0.35030 0.22590 0.06600
H 	H 	0.59220 0.35880 0.17910 0.01900
C 	C 	0.64500 0.37520 0.26160 -0.13200
H 	H 	0.65320 0.40090 0.23830 0.07500
C 	C 	0.55630 0.28630 0.23040 0.43800
C 	C 	0.82306 0.36200 0.47110 0.07200
C 	C 	0.84870 0.37870 0.53790 -0.15700
H 	H 	0.84080 0.40550 0.55900 0.08400
C 	C 	0.88570 0.35530 0.57260 0.11100
H 	H 	0.90170 0.36630 0.61780 0.00300
C 	C 	0.89908 0.31800 0.54360 -0.19700
C 	C 	0.87380 0.30010 0.47850 0.09200
H 	H 	0.88190 0.27270 0.45950 0.00000
C 	C 	0.83610 0.32280 0.44050 -0.15200
H 	H 	0.82030 0.31150 0.39550 0.08100
C 	C 	0.94023 0.29630 0.57910 0.44700
C 	C 	0.74915 0.51030 0.40220 0.04400
C 	C 	0.78524 0.53370 0.39460 -0.11700
H 	H 	0.80790 0.51720 0.38480 0.07000
C 	C 	0.78785 0.58120 0.40160 0.04400
C 	C 	0.75401 0.60440 0.42060 -0.11300
H 	H 	0.75570 0.63640 0.42710 0.06600
C 	C 	0.71781 0.58100 0.43000 0.04100
C 	C 	0.71516 0.53450 0.41970 -0.11500
H 	H 	0.69090 0.51860 0.42430 0.06500
C 	C 	0.68210 0.60650 0.45360 0.04100
C 	C 	0.67510 0.65110 0.43650 0.11600
H 	H 	0.69240 0.66640 0.41110 -0.01600
C 	C 	0.64150 0.67550 0.45650 -0.20300
H 	H 	0.63690 0.70680 0.44470 0.09800
C 	C 	0.61970 0.60780 0.49930 0.08700
H 	H 	0.59850 0.59120 0.51380 0.00700
C 	C 	0.65400 0.58340 0.48500 -0.11400
H 	H 	0.65770 0.55210 0.49650 0.06400
C 	C 	0.61590 0.65230 0.49350 -0.09600
C 	C 	0.57950 0.67940 0.51490 0.33100
C 	C 	0.82630 0.60560 0.39340 0.04100
C 	C 	0.84210 0.64330 0.43820 -0.10700
H 	H 	0.82830 0.65290 0.47380 0.06500
C 	C 	0.87920 0.66750 0.43060 0.04200
H 	H 	0.89010 0.69210 0.46180 0.03100
C 	C 	0.89883 0.65400 0.37660 -0.13100
C 	C 	0.88350 0.61740 0.33010 0.04800
H 	H 	0.89660 0.60890 0.29300 0.02300
C 	C 	0.84770 0.59320 0.34020 -0.11200
H 	H 	0.83780 0.56790 0.31010 0.06800
C 	C 	0.93600 0.68230 0.36510 0.40800
C 	C 	0.69040 0.64400 0.50100 -0.24500
H 	H 	0.71860 0.65140 0.52390 0.11100
C 	C 	0.65820 0.67080 0.51510 0.20700
H 	H 	0.66360 0.69970 0.53780 -0.03400
C 	C 	0.60540 0.61490 0.44210 -0.07900
H 	H 	0.57740 0.60600 0.42140 0.05600
C 	C 	0.64000 0.59280 0.42510 -0.00600
H 	H 	0.63470 0.56770 0.39300 0.02600
Lu	Lu	0.00000 0.30355 0.75000 1.26100
Lu	Lu	0.50000 0.80355 0.75000 1.28000
Lu	Lu	0.00000 0.69645 0.25000 1.26100
Lu	Lu	0.50000 0.19645 0.25000 1.28000
