data_crystal

_cell_length_a 32.48500
_cell_length_b 29.08900
_cell_length_c 17.62900
_cell_angle_alpha 90.00000
_cell_angle_beta  104.34700
_cell_angle_gamma 90.00000

_symmetry_space_group_name_	'P 1'
_symmetry_space_group_name_H-M	'P 1'

loop_
_symmetry_equiv_pos_as_xyz
  x,y,z

loop_
_atom_site_label
_atom_site_type_symbol
_atom_site_fract_x
_atom_site_fract_y
_atom_site_fract_z
_atom_site_charge
Yb	Yb	0.01464 0.22814 0.54257 1.48600
O 	O 	0.03580 0.20750 0.66440 -0.48700
O 	O 	0.04629 0.24657 0.77300 -0.48700
O 	O 	0.46409 0.18190 0.13040 -0.47000
O 	O 	0.45290 0.23490 0.03810 -0.51800
O 	O 	0.08130 0.77680 0.01670 -0.41300
O 	O 	0.04720 0.83990 0.01390 -0.43000
O 	O 	0.45490 0.79310 0.91740 -0.46500
O 	O 	0.44548 0.82970 0.80180 -0.45000
C 	C 	0.24540 0.04130 0.89720 0.03300
C 	C 	0.20780 0.06330 0.86130 -0.10000
H 	H 	0.18380 0.04730 0.83450 0.06100
C 	C 	0.20840 0.11370 0.86840 0.02200
C 	C 	0.24440 0.13660 0.90190 -0.09500
H 	H 	0.24410 0.16850 0.90210 0.06100
C 	C 	0.28170 0.11390 0.93570 0.01600
C 	C 	0.28190 0.06590 0.93290 -0.09700
H 	H 	0.30680 0.05010 0.95540 0.06200
C 	C 	0.16730 0.13850 0.82930 0.07100
C 	C 	0.15520 0.17530 0.86900 -0.15300
H 	H 	0.17230 0.18360 0.91760 0.08000
C 	C 	0.11900 0.19950 0.83920 0.09000
H 	H 	0.11130 0.22390 0.86700 0.00800
C 	C 	0.09410 0.18740 0.76770 -0.18500
C 	C 	0.10410 0.15080 0.72460 0.08100
H 	H 	0.08670 0.14320 0.67590 0.00700
C 	C 	0.14130 0.12580 0.75740 -0.14500
H 	H 	0.14850 0.10070 0.73080 0.07800
C 	C 	0.05560 0.21710 0.73720 0.47100
C 	C 	0.32210 0.14050 0.97160 0.10000
C 	C 	0.34960 0.12070 0.03730 -0.19000
H 	H 	0.34230 0.09360 0.05870 0.09400
C 	C 	0.38710 0.14180 0.06920 0.13900
H 	H 	0.40500 0.12930 0.11390 -0.01300
C 	C 	0.39900 0.17960 0.03840 -0.20700
C 	C 	0.37130 0.20050 0.96950 0.09200
H 	H 	0.37890 0.22720 0.94750 -0.00600
C 	C 	0.33250 0.17790 0.93800 -0.17100
H 	H 	0.31400 0.18950 0.89310 0.08600
C 	C 	0.44100 0.20220 0.06790 0.46200
C 	C 	0.24760 0.99050 0.90310 0.04000
C 	C 	0.28370 0.96600 0.89430 -0.11000
H 	H 	0.30550 0.98210 0.88080 0.06600
C 	C 	0.28760 0.91930 0.90500 0.03700
C 	C 	0.25330 0.89500 0.92210 -0.10900
H 	H 	0.25490 0.86320 0.92740 0.06200
C 	C 	0.21780 0.91760 0.93110 0.03900
C 	C 	0.21480 0.96560 0.92310 -0.11100
H 	H 	0.19110 0.98090 0.93110 0.06500
C 	C 	0.18250 0.89160 0.95070 0.03400
C 	C 	0.17450 0.84850 0.92750 0.00100
H 	H 	0.19060 0.83480 0.89690 0.02000
C 	C 	0.14250 0.82310 0.94790 -0.04900
H 	H 	0.13870 0.79210 0.93530 0.04300
C 	C 	0.12450 0.88990 0.00910 0.02900
H 	H 	0.10700 0.90450 0.03610 0.01900
C 	C 	0.15710 0.91490 0.99340 -0.07200
H 	H 	0.16220 0.94520 0.00970 0.04800
C 	C 	0.11590 0.84590 0.98840 -0.10400
C 	C 	0.07950 0.81910 0.00600 0.32400
C 	C 	0.32530 0.89510 0.89430 0.04800
C 	C 	0.34140 0.85600 0.93820 -0.11300
H 	H 	0.32690 0.84550 0.97430 0.06500
C 	C 	0.37680 0.83190 0.93190 0.04300
H 	H 	0.38680 0.80700 0.96410 0.02700
C 	C 	0.39790 0.84700 0.87330 -0.14400
C 	C 	0.38140 0.88450 0.82860 0.06600
H 	H 	0.39420 0.89420 0.78960 0.01400
C 	C 	0.34670 0.90820 0.83960 -0.12800
H 	H 	0.33730 0.93390 0.80890 0.07200
C 	C 	0.43580 0.82170 0.86300 0.41600
C 	C 	0.18690 0.84990 0.98760 -0.10500
H 	H 	0.21330 0.83580 0.99680 0.05900
C 	C 	0.15500 0.82690 0.01240 0.05100
H 	H 	0.16020 0.80050 0.04310 0.01800
C 	C 	0.10890 0.88880 0.95320 -0.01800
H 	H 	0.08430 0.90520 0.95280 0.03100
C 	C 	0.13850 0.90630 0.91950 -0.05200
H 	H 	0.13130 0.92690 0.87800 0.03900
Yb	Yb	0.51464 0.72814 0.54257 1.49300
O 	O 	0.53580 0.70750 0.66440 -0.48300
O 	O 	0.54629 0.74657 0.77300 -0.48400
O 	O 	0.96409 0.68190 0.13040 -0.45800
O 	O 	0.95290 0.73490 0.03810 -0.50700
O 	O 	0.58130 0.27680 0.01670 -0.41100
O 	O 	0.54720 0.33990 0.01390 -0.42600
O 	O 	0.95490 0.29310 0.91740 -0.45900
O 	O 	0.94548 0.32970 0.80180 -0.44300
C 	C 	0.74540 0.54130 0.89720 0.03500
C 	C 	0.70780 0.56330 0.86130 -0.10200
H 	H 	0.68380 0.54730 0.83450 0.06200
C 	C 	0.70840 0.61370 0.86840 0.02400
C 	C 	0.74440 0.63660 0.90190 -0.09700
H 	H 	0.74410 0.66850 0.90210 0.06200
C 	C 	0.78170 0.61390 0.93570 0.01900
C 	C 	0.78190 0.56590 0.93290 -0.09900
H 	H 	0.80680 0.55010 0.95540 0.06400
C 	C 	0.66730 0.63850 0.82930 0.07000
C 	C 	0.65520 0.67530 0.86900 -0.15200
H 	H 	0.67230 0.68360 0.91760 0.08000
C 	C 	0.61900 0.69950 0.83920 0.09000
H 	H 	0.61130 0.72390 0.86700 0.00900
C 	C 	0.59410 0.68740 0.76770 -0.18300
C 	C 	0.60410 0.65080 0.72460 0.08100
H 	H 	0.58670 0.64320 0.67590 0.00900
C 	C 	0.64130 0.62580 0.75740 -0.14300
H 	H 	0.64850 0.60070 0.73080 0.07800
C 	C 	0.55560 0.71710 0.73720 0.47100
C 	C 	0.82210 0.64050 0.97160 0.09500
C 	C 	0.84960 0.62070 0.03730 -0.18300
H 	H 	0.84230 0.59360 0.05870 0.09300
C 	C 	0.88710 0.64180 0.06920 0.13300
H 	H 	0.90500 0.62930 0.11390 -0.00900
C 	C 	0.89900 0.67960 0.03840 -0.19900
C 	C 	0.87130 0.70050 0.96950 0.08600
H 	H 	0.87890 0.72720 0.94750 -0.00300
C 	C 	0.83250 0.67790 0.93800 -0.16500
H 	H 	0.81400 0.68950 0.89310 0.08400
C 	C 	0.94100 0.70220 0.06790 0.45800
C 	C 	0.74760 0.49050 0.90310 0.04000
C 	C 	0.78370 0.46600 0.89430 -0.11000
H 	H 	0.80550 0.48210 0.88080 0.06700
C 	C 	0.78760 0.41930 0.90500 0.03700
C 	C 	0.75330 0.39500 0.92210 -0.10900
H 	H 	0.75490 0.36320 0.92740 0.06200
C 	C 	0.71780 0.41760 0.93110 0.03800
C 	C 	0.71480 0.46560 0.92310 -0.11000
H 	H 	0.69110 0.48090 0.93110 0.06500
C 	C 	0.68250 0.39160 0.95070 0.03600
C 	C 	0.67450 0.34850 0.92750 -0.01700
H 	H 	0.69060 0.33480 0.89690 0.02700
C 	C 	0.64250 0.32310 0.94790 -0.03500
H 	H 	0.63870 0.29210 0.93530 0.03900
C 	C 	0.62450 0.38990 0.00910 0.00700
H 	H 	0.60700 0.40450 0.03610 0.02800
C 	C 	0.65710 0.41490 0.99340 -0.06100
H 	H 	0.66220 0.44520 0.00970 0.04500
C 	C 	0.61590 0.34590 0.98840 -0.10300
C 	C 	0.57950 0.31910 0.00600 0.32300
C 	C 	0.82530 0.39510 0.89430 0.04800
C 	C 	0.84140 0.35600 0.93820 -0.11100
H 	H 	0.82690 0.34550 0.97430 0.06500
C 	C 	0.87680 0.33190 0.93190 0.04300
H 	H 	0.88680 0.30700 0.96410 0.02800
C 	C 	0.89790 0.34700 0.87330 -0.14100
C 	C 	0.88140 0.38450 0.82860 0.06500
H 	H 	0.89420 0.39420 0.78960 0.01600
C 	C 	0.84670 0.40820 0.83960 -0.12600
H 	H 	0.83730 0.43390 0.80890 0.07200
C 	C 	0.93580 0.32170 0.86300 0.41600
C 	C 	0.68690 0.34990 0.98760 -0.08800
H 	H 	0.71330 0.33580 0.99680 0.05300
C 	C 	0.65500 0.32690 0.01240 0.03700
H 	H 	0.66020 0.30050 0.04310 0.02300
C 	C 	0.60890 0.38880 0.95320 0.00400
H 	H 	0.58430 0.40520 0.95280 0.02600
C 	C 	0.63850 0.40630 0.91950 -0.06600
H 	H 	0.63130 0.42690 0.87800 0.04500
Yb	Yb	0.98536 0.22814 0.95743 1.50000
O 	O 	0.96420 0.20750 0.83560 -0.47800
O 	O 	0.95371 0.24657 0.72700 -0.47700
O 	O 	0.53591 0.18190 0.36960 -0.47000
O 	O 	0.54710 0.23490 0.46190 -0.51800
O 	O 	0.91870 0.77680 0.48330 -0.41000
O 	O 	0.95280 0.83990 0.48610 -0.42100
O 	O 	0.54510 0.79310 0.58260 -0.46500
O 	O 	0.55452 0.82970 0.69820 -0.45000
C 	C 	0.75460 0.04130 0.60280 0.03500
C 	C 	0.79220 0.06330 0.63870 -0.10100
H 	H 	0.81620 0.04730 0.66550 0.06300
C 	C 	0.79160 0.11370 0.63160 0.02400
C 	C 	0.75560 0.13660 0.59810 -0.09600
H 	H 	0.75590 0.16850 0.59790 0.06200
C 	C 	0.71830 0.11390 0.56430 0.01700
C 	C 	0.71810 0.06590 0.56710 -0.09800
H 	H 	0.69320 0.05010 0.54460 0.06200
C 	C 	0.83270 0.13850 0.67070 0.07000
C 	C 	0.84480 0.17530 0.63100 -0.15100
H 	H 	0.82770 0.18360 0.58240 0.08000
C 	C 	0.88100 0.19950 0.66080 0.08900
H 	H 	0.88870 0.22390 0.63300 0.01000
C 	C 	0.90590 0.18740 0.73230 -0.18100
C 	C 	0.89590 0.15080 0.77540 0.08100
H 	H 	0.91330 0.14320 0.82410 0.01000
C 	C 	0.85870 0.12580 0.74260 -0.14200
H 	H 	0.85150 0.10070 0.76920 0.07800
C 	C 	0.94440 0.21710 0.76280 0.47000
C 	C 	0.67790 0.14050 0.52840 0.09800
C 	C 	0.65040 0.12070 0.46270 -0.18800
H 	H 	0.65770 0.09360 0.44130 0.09400
C 	C 	0.61290 0.14180 0.43080 0.13700
H 	H 	0.59500 0.12930 0.38610 -0.01200
C 	C 	0.60100 0.17960 0.46160 -0.20500
C 	C 	0.62870 0.20050 0.53050 0.09000
H 	H 	0.62110 0.22720 0.55250 -0.00500
C 	C 	0.66750 0.17790 0.56200 -0.17000
H 	H 	0.68600 0.18950 0.60690 0.08500
C 	C 	0.55900 0.20220 0.43210 0.46200
C 	C 	0.75240 0.99050 0.59690 0.04000
C 	C 	0.71630 0.96600 0.60570 -0.11000
H 	H 	0.69450 0.98210 0.61920 0.06600
C 	C 	0.71240 0.91930 0.59500 0.03600
C 	C 	0.74670 0.89500 0.57790 -0.10900
H 	H 	0.74510 0.86320 0.57260 0.06200
C 	C 	0.78220 0.91760 0.56890 0.03900
C 	C 	0.78520 0.96560 0.57690 -0.11000
H 	H 	0.80890 0.98090 0.56890 0.06500
C 	C 	0.81750 0.89160 0.54930 0.03600
C 	C 	0.82550 0.84850 0.57250 -0.01800
H 	H 	0.80940 0.83480 0.60310 0.02800
C 	C 	0.85750 0.82310 0.55210 -0.03400
H 	H 	0.86130 0.79210 0.56470 0.04000
C 	C 	0.87550 0.88990 0.49090 0.00500
H 	H 	0.89300 0.90450 0.46390 0.03000
C 	C 	0.84290 0.91490 0.50660 -0.06100
H 	H 	0.83780 0.94520 0.49030 0.04600
C 	C 	0.88410 0.84590 0.51160 -0.10200
C 	C 	0.92050 0.81910 0.49400 0.32300
C 	C 	0.67470 0.89510 0.60570 0.04900
C 	C 	0.65860 0.85600 0.56180 -0.11300
H 	H 	0.67310 0.84550 0.52570 0.06500
C 	C 	0.62320 0.83190 0.56810 0.04300
H 	H 	0.61320 0.80700 0.53590 0.02700
C 	C 	0.60210 0.84700 0.62670 -0.14400
C 	C 	0.61860 0.88450 0.67140 0.06600
H 	H 	0.60580 0.89420 0.71040 0.01400
C 	C 	0.65330 0.90820 0.66040 -0.12800
H 	H 	0.66270 0.93390 0.69110 0.07200
C 	C 	0.56420 0.82170 0.63700 0.41600
C 	C 	0.81310 0.84990 0.51240 -0.08700
H 	H 	0.78670 0.83580 0.50320 0.05300
C 	C 	0.84500 0.82690 0.48760 0.03500
H 	H 	0.83980 0.80050 0.45690 0.02400
C 	C 	0.89110 0.88880 0.54680 0.00600
H 	H 	0.91570 0.90520 0.54720 0.02800
C 	C 	0.86150 0.90630 0.58050 -0.06500
H 	H 	0.86870 0.92690 0.62200 0.04700
Yb	Yb	0.48536 0.72814 0.95743 1.49300
O 	O 	0.46420 0.70750 0.83560 -0.48300
O 	O 	0.45371 0.74657 0.72700 -0.48400
O 	O 	0.03591 0.68190 0.36960 -0.47600
O 	O 	0.04710 0.73490 0.46190 -0.52700
O 	O 	0.41870 0.27680 0.48330 -0.41100
O 	O 	0.45280 0.33990 0.48610 -0.42600
O 	O 	0.04510 0.29310 0.58260 -0.46900
O 	O 	0.05452 0.32970 0.69820 -0.45300
C 	C 	0.25460 0.54130 0.60280 0.03400
C 	C 	0.29220 0.56330 0.63870 -0.10100
H 	H 	0.31620 0.54730 0.66550 0.06200
C 	C 	0.29160 0.61370 0.63160 0.02300
C 	C 	0.25560 0.63660 0.59810 -0.09500
H 	H 	0.25590 0.66850 0.59790 0.06100
C 	C 	0.21830 0.61390 0.56430 0.01600
C 	C 	0.21810 0.56590 0.56710 -0.09700
H 	H 	0.19320 0.55010 0.54460 0.06100
C 	C 	0.33270 0.63850 0.67070 0.07100
C 	C 	0.34480 0.67530 0.63100 -0.15200
H 	H 	0.32770 0.68360 0.58240 0.08000
C 	C 	0.38100 0.69950 0.66080 0.09000
H 	H 	0.38870 0.72390 0.63300 0.00900
C 	C 	0.40590 0.68740 0.73230 -0.18300
C 	C 	0.39590 0.65080 0.77540 0.08100
H 	H 	0.41330 0.64320 0.82410 0.00900
C 	C 	0.35870 0.62580 0.74260 -0.14400
H 	H 	0.35150 0.60070 0.76920 0.07800
C 	C 	0.44440 0.71710 0.76280 0.47100
C 	C 	0.17790 0.64050 0.52840 0.10000
C 	C 	0.15040 0.62070 0.46270 -0.19100
H 	H 	0.15770 0.59360 0.44130 0.09400
C 	C 	0.11290 0.64180 0.43080 0.14000
H 	H 	0.09500 0.62930 0.38610 -0.01400
C 	C 	0.10100 0.67960 0.46160 -0.20800
C 	C 	0.12870 0.70050 0.53050 0.09200
H 	H 	0.12110 0.72720 0.55250 -0.00800
C 	C 	0.16750 0.67790 0.56200 -0.17200
H 	H 	0.18600 0.68950 0.60690 0.08500
C 	C 	0.05900 0.70220 0.43210 0.46400
C 	C 	0.25240 0.49050 0.59690 0.03900
C 	C 	0.21630 0.46600 0.60570 -0.10900
H 	H 	0.19450 0.48210 0.61920 0.06500
C 	C 	0.21240 0.41930 0.59500 0.03500
C 	C 	0.24670 0.39500 0.57790 -0.10800
H 	H 	0.24510 0.36320 0.57260 0.06200
C 	C 	0.28220 0.41760 0.56890 0.03800
C 	C 	0.28520 0.46560 0.57690 -0.11000
H 	H 	0.30890 0.48090 0.56890 0.06500
C 	C 	0.31750 0.39160 0.54930 0.03700
C 	C 	0.32550 0.34850 0.57250 -0.02400
H 	H 	0.30940 0.33480 0.60310 0.03000
C 	C 	0.35750 0.32310 0.55210 -0.03000
H 	H 	0.36130 0.29210 0.56470 0.03700
C 	C 	0.37550 0.38990 0.49090 -0.00200
H 	H 	0.39300 0.40450 0.46390 0.03100
C 	C 	0.34290 0.41490 0.50660 -0.05600
H 	H 	0.33780 0.44520 0.49030 0.04400
C 	C 	0.38410 0.34590 0.51160 -0.10300
C 	C 	0.42050 0.31910 0.49400 0.32300
C 	C 	0.17470 0.39510 0.60570 0.04900
C 	C 	0.15860 0.35600 0.56180 -0.11400
H 	H 	0.17310 0.34550 0.52570 0.06500
C 	C 	0.12320 0.33190 0.56810 0.04400
H 	H 	0.11320 0.30700 0.53590 0.02600
C 	C 	0.10210 0.34700 0.62670 -0.14600
C 	C 	0.11860 0.38450 0.67140 0.06700
H 	H 	0.10580 0.39420 0.71040 0.01300
C 	C 	0.15330 0.40820 0.66040 -0.12900
H 	H 	0.16270 0.43390 0.69110 0.07200
C 	C 	0.06420 0.32170 0.63700 0.41600
C 	C 	0.31310 0.34990 0.51240 -0.08200
H 	H 	0.28670 0.33580 0.50320 0.05100
C 	C 	0.34500 0.32690 0.48760 0.03200
H 	H 	0.33980 0.30050 0.45690 0.02500
C 	C 	0.39110 0.38880 0.54680 0.01400
H 	H 	0.41570 0.40520 0.54720 0.02300
C 	C 	0.36150 0.40630 0.58050 -0.07200
H 	H 	0.36870 0.42690 0.62200 0.04700
Yb	Yb	0.98536 0.77186 0.45743 1.50000
O 	O 	0.96420 0.79250 0.33560 -0.47700
O 	O 	0.95371 0.75343 0.22700 -0.47600
O 	O 	0.53591 0.81810 0.86960 -0.46900
O 	O 	0.54710 0.76510 0.96190 -0.51800
O 	O 	0.91870 0.22320 0.98330 -0.41000
O 	O 	0.95280 0.16010 0.98610 -0.42100
O 	O 	0.54510 0.20690 0.08260 -0.46500
O 	O 	0.55452 0.17030 0.19820 -0.45000
C 	C 	0.75460 0.95870 0.10280 0.03400
C 	C 	0.79220 0.93670 0.13870 -0.10100
H 	H 	0.81620 0.95270 0.16550 0.06300
C 	C 	0.79160 0.88630 0.13160 0.02400
C 	C 	0.75560 0.86340 0.09810 -0.09600
H 	H 	0.75590 0.83150 0.09790 0.06200
C 	C 	0.71830 0.88610 0.06430 0.01700
C 	C 	0.71810 0.93410 0.06710 -0.09800
H 	H 	0.69320 0.94990 0.04460 0.06200
C 	C 	0.83270 0.86150 0.17070 0.07000
C 	C 	0.84480 0.82470 0.13100 -0.15000
H 	H 	0.82770 0.81640 0.08240 0.08000
C 	C 	0.88100 0.80050 0.16080 0.08900
H 	H 	0.88870 0.77610 0.13300 0.01000
C 	C 	0.90590 0.81260 0.23230 -0.18000
C 	C 	0.89590 0.84920 0.27540 0.08100
H 	H 	0.91330 0.85680 0.32410 0.01100
C 	C 	0.85870 0.87420 0.24260 -0.14200
H 	H 	0.85150 0.89930 0.26920 0.07900
C 	C 	0.94440 0.78290 0.26280 0.47000
C 	C 	0.67790 0.85950 0.02840 0.09700
C 	C 	0.65040 0.87930 0.96270 -0.18600
H 	H 	0.65770 0.90640 0.94130 0.09300
C 	C 	0.61290 0.85820 0.93080 0.13600
H 	H 	0.59500 0.87070 0.88610 -0.01200
C 	C 	0.60100 0.82040 0.96160 -0.20400
C 	C 	0.62870 0.79950 0.03050 0.08800
H 	H 	0.62110 0.77280 0.05250 -0.00500
C 	C 	0.66750 0.82210 0.06200 -0.16900
H 	H 	0.68600 0.81050 0.10690 0.08400
C 	C 	0.55900 0.79780 0.93210 0.46100
C 	C 	0.75240 0.00950 0.09690 0.04000
C 	C 	0.71630 0.03400 0.10570 -0.11000
H 	H 	0.69450 0.01790 0.11920 0.06600
C 	C 	0.71240 0.08070 0.09500 0.03700
C 	C 	0.74670 0.10500 0.07790 -0.11000
H 	H 	0.74510 0.13680 0.07260 0.06300
C 	C 	0.78220 0.08240 0.06890 0.04000
C 	C 	0.78520 0.03440 0.07690 -0.11100
H 	H 	0.80890 0.01910 0.06890 0.06600
C 	C 	0.81750 0.10840 0.04930 0.03400
C 	C 	0.82550 0.15150 0.07250 0.00200
H 	H 	0.80940 0.16520 0.10310 0.02100
C 	C 	0.85750 0.17690 0.05210 -0.04800
H 	H 	0.86130 0.20790 0.06470 0.04500
C 	C 	0.87550 0.11010 0.99090 0.02900
H 	H 	0.89300 0.09550 0.96390 0.02200
C 	C 	0.84290 0.08510 0.00660 -0.07400
H 	H 	0.83780 0.05480 0.99030 0.05000
C 	C 	0.88410 0.15410 0.01160 -0.10200
C 	C 	0.92050 0.18090 0.99400 0.32300
C 	C 	0.67470 0.10490 0.10570 0.04800
C 	C 	0.65860 0.14400 0.06180 -0.11300
H 	H 	0.67310 0.15450 0.02570 0.06500
C 	C 	0.62320 0.16810 0.06810 0.04300
H 	H 	0.61320 0.19300 0.03590 0.02700
C 	C 	0.60210 0.15300 0.12670 -0.14400
C 	C 	0.61860 0.11550 0.17140 0.06600
H 	H 	0.60580 0.10580 0.21040 0.01400
C 	C 	0.65330 0.09180 0.16040 -0.12800
H 	H 	0.66270 0.06610 0.19110 0.07200
C 	C 	0.56420 0.17830 0.13700 0.41600
C 	C 	0.81310 0.15010 0.01240 -0.10500
H 	H 	0.78670 0.16420 0.00320 0.05900
C 	C 	0.84500 0.17310 0.98760 0.04900
H 	H 	0.83980 0.19950 0.95690 0.01900
C 	C 	0.89110 0.11120 0.04680 -0.01900
H 	H 	0.91570 0.09480 0.04720 0.03700
C 	C 	0.86150 0.09370 0.08050 -0.04900
H 	H 	0.86870 0.07310 0.12200 0.04100
Yb	Yb	0.48536 0.27186 0.45743 1.49300
O 	O 	0.46420 0.29250 0.33560 -0.48300
O 	O 	0.45371 0.25343 0.22700 -0.48400
O 	O 	0.03591 0.31810 0.86960 -0.47600
O 	O 	0.04710 0.26510 0.96190 -0.52600
O 	O 	0.41870 0.72320 0.98330 -0.41100
O 	O 	0.45280 0.66010 0.98610 -0.42600
O 	O 	0.04510 0.70690 0.08260 -0.47000
O 	O 	0.05452 0.67030 0.19820 -0.45300
C 	C 	0.25460 0.45870 0.10280 0.03400
C 	C 	0.29220 0.43670 0.13870 -0.10100
H 	H 	0.31620 0.45270 0.16550 0.06200
C 	C 	0.29160 0.38630 0.13160 0.02300
C 	C 	0.25560 0.36340 0.09810 -0.09600
H 	H 	0.25590 0.33150 0.09790 0.06100
C 	C 	0.21830 0.38610 0.06430 0.01700
C 	C 	0.21810 0.43410 0.06710 -0.09800
H 	H 	0.19320 0.44990 0.04460 0.06200
C 	C 	0.33270 0.36150 0.17070 0.07000
C 	C 	0.34480 0.32470 0.13100 -0.15200
H 	H 	0.32770 0.31640 0.08240 0.08000
C 	C 	0.38100 0.30050 0.16080 0.09000
H 	H 	0.38870 0.27610 0.13300 0.00900
C 	C 	0.40590 0.31260 0.23230 -0.18300
C 	C 	0.39590 0.34920 0.27540 0.08100
H 	H 	0.41330 0.35680 0.32410 0.00900
C 	C 	0.35870 0.37420 0.24260 -0.14300
H 	H 	0.35150 0.39930 0.26920 0.07800
C 	C 	0.44440 0.28290 0.26280 0.47100
C 	C 	0.17790 0.35950 0.02840 0.09700
C 	C 	0.15040 0.37930 0.96270 -0.18800
H 	H 	0.15770 0.40640 0.94130 0.09300
C 	C 	0.11290 0.35820 0.93080 0.13700
H 	H 	0.09500 0.37070 0.88610 -0.01400
C 	C 	0.10100 0.32040 0.96160 -0.20600
C 	C 	0.12870 0.29950 0.03050 0.08900
H 	H 	0.12110 0.27280 0.05250 -0.00700
C 	C 	0.16750 0.32210 0.06200 -0.17000
H 	H 	0.18600 0.31050 0.10690 0.08400
C 	C 	0.05900 0.29780 0.93210 0.46300
C 	C 	0.25240 0.50950 0.09690 0.03900
C 	C 	0.21630 0.53400 0.10570 -0.10900
H 	H 	0.19450 0.51790 0.11920 0.06500
C 	C 	0.21240 0.58070 0.09500 0.03500
C 	C 	0.24670 0.60500 0.07790 -0.10800
H 	H 	0.24510 0.63680 0.07260 0.06200
C 	C 	0.28220 0.58240 0.06890 0.03600
C 	C 	0.28520 0.53440 0.07690 -0.10900
H 	H 	0.30890 0.51910 0.06890 0.06400
C 	C 	0.31750 0.60840 0.04930 0.04000
C 	C 	0.32550 0.65150 0.07250 -0.05100
H 	H 	0.30940 0.66520 0.10310 0.03900
C 	C 	0.35750 0.67690 0.05210 -0.01200
H 	H 	0.36130 0.70790 0.06470 0.03100
C 	C 	0.37550 0.61010 0.99090 -0.03300
H 	H 	0.39300 0.59550 0.96390 0.04200
C 	C 	0.34290 0.58510 0.00660 -0.04000
H 	H 	0.33780 0.55480 0.99030 0.03900
C 	C 	0.38410 0.65410 0.01160 -0.10300
C 	C 	0.42050 0.68090 0.99400 0.32400
C 	C 	0.17470 0.60490 0.10570 0.04900
C 	C 	0.15860 0.64400 0.06180 -0.11400
H 	H 	0.17310 0.65450 0.02570 0.06500
C 	C 	0.12320 0.66810 0.06810 0.04400
H 	H 	0.11320 0.69300 0.03590 0.02600
C 	C 	0.10210 0.65300 0.12670 -0.14600
C 	C 	0.11860 0.61550 0.17140 0.06700
H 	H 	0.10580 0.60580 0.21040 0.01300
C 	C 	0.15330 0.59180 0.16040 -0.12900
H 	H 	0.16270 0.56610 0.19110 0.07200
C 	C 	0.06420 0.67830 0.13700 0.41600
C 	C 	0.31310 0.65010 0.01240 -0.05800
H 	H 	0.28670 0.66420 0.00320 0.04300
C 	C 	0.34500 0.67310 0.98760 0.01300
H 	H 	0.33980 0.69950 0.95690 0.03200
C 	C 	0.39110 0.61120 0.04680 0.04600
H 	H 	0.41570 0.59480 0.04720 0.01200
C 	C 	0.36150 0.59370 0.08050 -0.09200
H 	H 	0.36870 0.57310 0.12200 0.05500
Yb	Yb	0.01464 0.77186 0.04257 1.48500
O 	O 	0.03580 0.79250 0.16440 -0.48800
O 	O 	0.04629 0.75343 0.27300 -0.48800
O 	O 	0.46409 0.81810 0.63040 -0.47000
O 	O 	0.45290 0.76510 0.53810 -0.51800
O 	O 	0.08130 0.22320 0.51670 -0.41300
O 	O 	0.04720 0.16010 0.51390 -0.43000
O 	O 	0.45490 0.20690 0.41740 -0.46500
O 	O 	0.44548 0.17030 0.30180 -0.45000
C 	C 	0.24540 0.95870 0.39720 0.03400
C 	C 	0.20780 0.93670 0.36130 -0.10100
H 	H 	0.18380 0.95270 0.33450 0.06100
C 	C 	0.20840 0.88630 0.36840 0.02200
C 	C 	0.24440 0.86340 0.40190 -0.09500
H 	H 	0.24410 0.83150 0.40210 0.06100
C 	C 	0.28170 0.88610 0.43570 0.01600
C 	C 	0.28190 0.93410 0.43290 -0.09800
H 	H 	0.30680 0.94990 0.45540 0.06200
C 	C 	0.16730 0.86150 0.32930 0.07100
C 	C 	0.15520 0.82470 0.36900 -0.15300
H 	H 	0.17230 0.81640 0.41760 0.08000
C 	C 	0.11900 0.80050 0.33920 0.09000
H 	H 	0.11130 0.77610 0.36700 0.00800
C 	C 	0.09410 0.81260 0.26770 -0.18500
C 	C 	0.10410 0.84920 0.22460 0.08100
H 	H 	0.08670 0.85680 0.17590 0.00700
C 	C 	0.14130 0.87420 0.25740 -0.14500
H 	H 	0.14850 0.89930 0.23080 0.07800
C 	C 	0.05560 0.78290 0.23720 0.47100
C 	C 	0.32210 0.85950 0.47160 0.09800
C 	C 	0.34960 0.87930 0.53730 -0.18800
H 	H 	0.34230 0.90640 0.55870 0.09400
C 	C 	0.38710 0.85820 0.56920 0.13700
H 	H 	0.40500 0.87070 0.61390 -0.01200
C 	C 	0.39900 0.82040 0.53840 -0.20500
C 	C 	0.37130 0.79950 0.46950 0.09000
H 	H 	0.37890 0.77280 0.44750 -0.00500
C 	C 	0.33250 0.82210 0.43800 -0.17000
H 	H 	0.31400 0.81050 0.39310 0.08500
C 	C 	0.44100 0.79780 0.56790 0.46200
C 	C 	0.24760 0.00950 0.40310 0.03900
C 	C 	0.28370 0.03400 0.39430 -0.10900
H 	H 	0.30550 0.01790 0.38080 0.06600
C 	C 	0.28760 0.08070 0.40500 0.03600
C 	C 	0.25330 0.10500 0.42210 -0.10800
H 	H 	0.25490 0.13680 0.42740 0.06200
C 	C 	0.21780 0.08240 0.43110 0.03700
C 	C 	0.21480 0.03440 0.42310 -0.11000
H 	H 	0.19110 0.01910 0.43110 0.06400
C 	C 	0.18250 0.10840 0.45070 0.03800
C 	C 	0.17450 0.15150 0.42750 -0.03000
H 	H 	0.19060 0.16520 0.39690 0.03100
C 	C 	0.14250 0.17690 0.44790 -0.02700
H 	H 	0.13870 0.20790 0.43530 0.03500
C 	C 	0.12450 0.11010 0.50910 -0.00900
H 	H 	0.10700 0.09550 0.53610 0.03200
C 	C 	0.15710 0.08510 0.49340 -0.05200
H 	H 	0.16220 0.05480 0.50970 0.04200
C 	C 	0.11590 0.15410 0.48840 -0.10400
C 	C 	0.07950 0.18090 0.50600 0.32400
C 	C 	0.32530 0.10490 0.39430 0.04900
C 	C 	0.34140 0.14400 0.43820 -0.11300
H 	H 	0.32690 0.15450 0.47430 0.06500
C 	C 	0.37680 0.16810 0.43190 0.04300
H 	H 	0.38680 0.19300 0.46410 0.02700
C 	C 	0.39790 0.15300 0.37330 -0.14400
C 	C 	0.38140 0.11550 0.32860 0.06600
H 	H 	0.39420 0.10580 0.28960 0.01400
C 	C 	0.34670 0.09180 0.33960 -0.12800
H 	H 	0.33730 0.06610 0.30890 0.07200
C 	C 	0.43580 0.17830 0.36300 0.41600
C 	C 	0.18690 0.15010 0.48760 -0.07700
H 	H 	0.21330 0.16420 0.49680 0.04900
C 	C 	0.15500 0.17310 0.51240 0.02900
H 	H 	0.16020 0.19950 0.54310 0.02600
C 	C 	0.10890 0.11120 0.45320 0.02200
H 	H 	0.08430 0.09480 0.45280 0.01800
C 	C 	0.13850 0.09370 0.41950 -0.07800
H 	H 	0.13130 0.07310 0.37800 0.04800
Yb	Yb	0.51464 0.27186 0.04257 1.49300
O 	O 	0.53580 0.29250 0.16440 -0.48300
O 	O 	0.54629 0.25343 0.27300 -0.48400
O 	O 	0.96409 0.31810 0.63040 -0.45900
O 	O 	0.95290 0.26510 0.53810 -0.50800
O 	O 	0.58130 0.72320 0.51670 -0.41100
O 	O 	0.54720 0.66010 0.51390 -0.42600
O 	O 	0.95490 0.70690 0.41740 -0.45900
O 	O 	0.94548 0.67030 0.30180 -0.44300
C 	C 	0.74540 0.45870 0.39720 0.03500
C 	C 	0.70780 0.43670 0.36130 -0.10100
H 	H 	0.68380 0.45270 0.33450 0.06200
C 	C 	0.70840 0.38630 0.36840 0.02400
C 	C 	0.74440 0.36340 0.40190 -0.09700
H 	H 	0.74410 0.33150 0.40210 0.06200
C 	C 	0.78170 0.38610 0.43570 0.01800
C 	C 	0.78190 0.43410 0.43290 -0.09900
H 	H 	0.80680 0.44990 0.45540 0.06300
C 	C 	0.66730 0.36150 0.32930 0.07000
C 	C 	0.65520 0.32470 0.36900 -0.15200
H 	H 	0.67230 0.31640 0.41760 0.08000
C 	C 	0.61900 0.30050 0.33920 0.09000
H 	H 	0.61130 0.27610 0.36700 0.00900
C 	C 	0.59410 0.31260 0.26770 -0.18300
C 	C 	0.60410 0.34920 0.22460 0.08100
H 	H 	0.58670 0.35680 0.17590 0.00900
C 	C 	0.64130 0.37420 0.25740 -0.14300
H 	H 	0.64850 0.39930 0.23080 0.07800
C 	C 	0.55560 0.28290 0.23720 0.47100
C 	C 	0.82210 0.35950 0.47160 0.09600
C 	C 	0.84960 0.37930 0.53730 -0.18400
H 	H 	0.84230 0.40640 0.55870 0.09300
C 	C 	0.88710 0.35820 0.56920 0.13400
H 	H 	0.90500 0.37070 0.61390 -0.00900
C 	C 	0.89900 0.32040 0.53840 -0.20000
C 	C 	0.87130 0.29950 0.46950 0.08800
H 	H 	0.87890 0.27280 0.44750 -0.00300
C 	C 	0.83250 0.32210 0.43800 -0.16700
H 	H 	0.81400 0.31050 0.39310 0.08500
C 	C 	0.94100 0.29780 0.56790 0.45800
C 	C 	0.74760 0.50950 0.40310 0.04000
C 	C 	0.78370 0.53400 0.39430 -0.11000
H 	H 	0.80550 0.51790 0.38080 0.06700
C 	C 	0.78760 0.58070 0.40500 0.03700
C 	C 	0.75330 0.60500 0.42210 -0.10900
H 	H 	0.75490 0.63680 0.42740 0.06200
C 	C 	0.71780 0.58240 0.43110 0.03800
C 	C 	0.71480 0.53440 0.42310 -0.11000
H 	H 	0.69110 0.51910 0.43110 0.06500
C 	C 	0.68250 0.60840 0.45070 0.03700
C 	C 	0.67450 0.65150 0.42750 -0.02400
H 	H 	0.69060 0.66520 0.39690 0.03000
C 	C 	0.64250 0.67690 0.44790 -0.03000
H 	H 	0.63870 0.70790 0.43530 0.03700
C 	C 	0.62450 0.61010 0.50910 -0.00200
H 	H 	0.60700 0.59550 0.53610 0.03100
C 	C 	0.65710 0.58510 0.49340 -0.05600
H 	H 	0.66220 0.55480 0.50970 0.04400
C 	C 	0.61590 0.65410 0.48840 -0.10300
C 	C 	0.57950 0.68090 0.50600 0.32300
C 	C 	0.82530 0.60490 0.39430 0.04800
C 	C 	0.84140 0.64400 0.43820 -0.11100
H 	H 	0.82690 0.65450 0.47430 0.06500
C 	C 	0.87680 0.66810 0.43190 0.04300
H 	H 	0.88680 0.69300 0.46410 0.02800
C 	C 	0.89790 0.65300 0.37330 -0.14100
C 	C 	0.88140 0.61550 0.32860 0.06500
H 	H 	0.89420 0.60580 0.28960 0.01700
C 	C 	0.84670 0.59180 0.33960 -0.12600
H 	H 	0.83730 0.56610 0.30890 0.07200
C 	C 	0.93580 0.67830 0.36300 0.41600
C 	C 	0.68690 0.65010 0.48760 -0.08200
H 	H 	0.71330 0.66420 0.49680 0.05100
C 	C 	0.65500 0.67310 0.51240 0.03200
H 	H 	0.66020 0.69950 0.54310 0.02500
C 	C 	0.60890 0.61120 0.45320 0.01400
H 	H 	0.58430 0.59480 0.45280 0.02300
C 	C 	0.63850 0.59370 0.41950 -0.07200
H 	H 	0.63130 0.57310 0.37800 0.04700
Yb	Yb	0.00000 0.30699 0.75000 1.55000
Yb	Yb	0.50000 0.80699 0.75000 1.56100
Yb	Yb	0.00000 0.69301 0.25000 1.54900
Yb	Yb	0.50000 0.19301 0.25000 1.56100
