data_crystal

_cell_length_a 32.31800
_cell_length_b 29.35400
_cell_length_c 18.52320
_cell_angle_alpha 90.00000
_cell_angle_beta  104.27700
_cell_angle_gamma 90.00000

_symmetry_space_group_name_	'P 1'
_symmetry_space_group_name_H-M	'P 1'

loop_
_symmetry_equiv_pos_as_xyz
  x,y,z

loop_
_atom_site_label
_atom_site_type_symbol
_atom_site_fract_x
_atom_site_fract_y
_atom_site_fract_z
_atom_site_charge
Er	Er	0.01436 0.22832 0.04623 1.53600
O 	O 	0.03692 0.20545 0.16360 -0.52000
O 	O 	0.04525 0.24637 0.26780 -0.52000
O 	O 	0.46091 0.18313 0.63610 -0.56800
O 	O 	0.45224 0.23387 0.54600 -0.55800
O 	O 	0.08177 0.77806 0.51880 -0.47400
O 	O 	0.04683 0.83988 0.51550 -0.47800
O 	O 	0.45260 0.79307 0.40890 -0.51800
O 	O 	0.44612 0.82973 0.30280 -0.53600
C 	C 	0.24582 0.03994 0.39850 0.07100
C 	C 	0.20855 0.06385 0.36720 -0.12100
H 	H 	0.18370 0.04790 0.34570 0.07000
C 	C 	0.20785 0.11092 0.36740 0.03000
C 	C 	0.24458 0.13549 0.40210 -0.09800
H 	H 	0.24410 0.16720 0.40250 0.06200
C 	C 	0.28184 0.11221 0.43600 0.01900
C 	C 	0.28194 0.06445 0.43330 -0.11600
H 	H 	0.30690 0.04880 0.45540 0.06900
C 	C 	0.16767 0.13716 0.32970 0.07500
C 	C 	0.15455 0.17325 0.36640 -0.16100
H 	H 	0.17060 0.18100 0.41370 0.08100
C 	C 	0.11854 0.19800 0.33510 0.09700
H 	H 	0.11040 0.22220 0.36100 -0.00000
C 	C 	0.09444 0.18650 0.26460 -0.20000
C 	C 	0.10664 0.15034 0.22720 0.10100
H 	H 	0.09080 0.14290 0.17960 0.00100
C 	C 	0.14241 0.12505 0.26030 -0.15900
H 	H 	0.14960 0.09970 0.23580 0.08300
C 	C 	0.05575 0.21519 0.22960 0.49500
C 	C 	0.32140 0.13725 0.47250 0.10200
C 	C 	0.34757 0.12020 0.53810 -0.19600
H 	H 	0.33950 0.09410 0.55950 0.09500
C 	C 	0.38538 0.14160 0.57170 0.14900
H 	H 	0.40250 0.12990 0.61560 -0.02200
C 	C 	0.39784 0.18030 0.54050 -0.25500
C 	C 	0.37149 0.19813 0.47710 0.14600
H 	H 	0.37920 0.22480 0.45680 -0.02700
C 	C 	0.33358 0.17684 0.44320 -0.19700
H 	H 	0.31610 0.18930 0.40020 0.09400
C 	C 	0.43986 0.20190 0.57660 0.55900
C 	C 	0.24737 0.98985 0.40230 -0.04600
C 	C 	0.28265 0.96645 0.39330 -0.02400
H 	H 	0.30480 0.98260 0.38120 0.03600
C 	C 	0.28630 0.91832 0.40210 -0.06300
C 	C 	0.25279 0.89496 0.41880 0.04900
H 	H 	0.25450 0.86350 0.42450 0.00200
C 	C 	0.21633 0.91777 0.42730 -0.19700
C 	C 	0.21416 0.96490 0.41930 0.04000
H 	H 	0.19000 0.98020 0.42540 0.00200
C 	C 	0.18148 0.89259 0.45000 0.50500
C 	C 	0.11430 0.84600 0.48810 -0.57900
C 	C 	0.07927 0.81910 0.50810 0.53300
C 	C 	0.32459 0.89410 0.39110 0.12100
C 	C 	0.34066 0.85552 0.43520 -0.18500
H 	H 	0.32680 0.84530 0.47060 0.09300
C 	C 	0.37638 0.83300 0.42640 0.12000
H 	H 	0.38700 0.80820 0.45670 0.00100
C 	C 	0.39677 0.84713 0.37230 -0.22000
C 	C 	0.38048 0.88396 0.32750 0.13000
H 	H 	0.39300 0.89280 0.28950 -0.01300
C 	C 	0.34592 0.90734 0.33910 -0.19600
H 	H 	0.33660 0.93320 0.31060 0.09500
C 	C 	0.43473 0.82094 0.35950 0.52900
C 	C 	0.11400 0.88640 0.47790 0.59000
H 	H 	0.09100 0.90310 0.48550 -0.16300
C 	C 	0.18170 0.85060 0.45470 -0.52100
H 	H 	0.19970 0.83300 0.43380 0.20600
C 	C 	0.15150 0.82840 0.49570 0.42300
H 	H 	0.15970 0.80280 0.52540 -0.10400
C 	C 	0.14630 0.90980 0.45540 -0.62800
H 	H 	0.14160 0.94050 0.44330 0.23700
Er	Er	0.51436 0.72832 0.04623 1.56700
O 	O 	0.53692 0.70545 0.16360 -0.52200
O 	O 	0.54525 0.74637 0.26780 -0.52300
O 	O 	0.96091 0.68313 0.63610 -0.54800
O 	O 	0.95224 0.73387 0.54600 -0.54000
O 	O 	0.58177 0.27806 0.51880 -0.47600
O 	O 	0.54683 0.33988 0.51550 -0.47600
O 	O 	0.95260 0.29307 0.40890 -0.51600
O 	O 	0.94612 0.32973 0.30280 -0.52200
C 	C 	0.74582 0.53994 0.39850 0.07100
C 	C 	0.70855 0.56385 0.36720 -0.12200
H 	H 	0.68370 0.54790 0.34570 0.07000
C 	C 	0.70785 0.61092 0.36740 0.03100
C 	C 	0.74458 0.63549 0.40210 -0.09900
H 	H 	0.74410 0.66720 0.40250 0.06200
C 	C 	0.78184 0.61221 0.43600 0.02100
C 	C 	0.78194 0.56445 0.43330 -0.11600
H 	H 	0.80690 0.54880 0.45540 0.07000
C 	C 	0.66767 0.63716 0.32970 0.07600
C 	C 	0.65455 0.67325 0.36640 -0.16100
H 	H 	0.67060 0.68100 0.41370 0.08200
C 	C 	0.61854 0.69800 0.33510 0.09900
H 	H 	0.61040 0.72220 0.36100 -0.00000
C 	C 	0.59444 0.68650 0.26460 -0.20000
C 	C 	0.60664 0.65034 0.22720 0.10300
H 	H 	0.59080 0.64290 0.17960 0.00200
C 	C 	0.64241 0.62505 0.26030 -0.15900
H 	H 	0.64960 0.59970 0.23580 0.08400
C 	C 	0.55575 0.71519 0.22960 0.50000
C 	C 	0.82140 0.63725 0.47250 0.09900
C 	C 	0.84757 0.62020 0.53810 -0.19000
H 	H 	0.83950 0.59410 0.55950 0.09400
C 	C 	0.88538 0.64160 0.57170 0.14300
H 	H 	0.90250 0.62990 0.61560 -0.01700
C 	C 	0.89784 0.68030 0.54050 -0.24500
C 	C 	0.87149 0.69813 0.47710 0.14000
H 	H 	0.87920 0.72480 0.45680 -0.02300
C 	C 	0.83358 0.67684 0.44320 -0.19100
H 	H 	0.81610 0.68930 0.40020 0.09300
C 	C 	0.93986 0.70190 0.57660 0.55000
C 	C 	0.74737 0.48985 0.40230 -0.04300
C 	C 	0.78265 0.46645 0.39330 -0.02600
H 	H 	0.80480 0.48260 0.38120 0.03800
C 	C 	0.78630 0.41832 0.40210 -0.06000
C 	C 	0.75279 0.39496 0.41880 0.04500
H 	H 	0.75450 0.36350 0.42450 0.00400
C 	C 	0.71633 0.41777 0.42730 -0.19200
C 	C 	0.71416 0.46490 0.41930 0.03700
H 	H 	0.69000 0.48020 0.42540 0.00500
C 	C 	0.68148 0.39259 0.45000 0.49600
C 	C 	0.61430 0.34600 0.48810 -0.56800
C 	C 	0.57927 0.31910 0.50810 0.52900
C 	C 	0.82459 0.39410 0.39110 0.11900
C 	C 	0.84066 0.35552 0.43520 -0.18200
H 	H 	0.82680 0.34530 0.47060 0.09200
C 	C 	0.87638 0.33300 0.42640 0.11800
H 	H 	0.88700 0.30820 0.45670 0.00300
C 	C 	0.89677 0.34713 0.37230 -0.21500
C 	C 	0.88048 0.38396 0.32750 0.12800
H 	H 	0.89300 0.39280 0.28950 -0.01000
C 	C 	0.84592 0.40734 0.33910 -0.19300
H 	H 	0.83660 0.43320 0.31060 0.09500
C 	C 	0.93473 0.32094 0.35950 0.52600
C 	C 	0.61400 0.38640 0.47790 0.57800
H 	H 	0.59100 0.40310 0.48550 -0.15700
C 	C 	0.68170 0.35060 0.45470 -0.51200
H 	H 	0.69970 0.33300 0.43380 0.20300
C 	C 	0.65150 0.32840 0.49570 0.41500
H 	H 	0.65970 0.30280 0.52540 -0.10100
C 	C 	0.64630 0.40980 0.45540 -0.61700
H 	H 	0.64160 0.44050 0.44330 0.23500
Er	Er	0.98564 0.22832 0.45377 1.60000
O 	O 	0.96308 0.20545 0.33640 -0.51800
O 	O 	0.95475 0.24637 0.23220 -0.50700
O 	O 	0.53909 0.18313 0.86390 -0.56900
O 	O 	0.54776 0.23387 0.95400 -0.55900
O 	O 	0.91823 0.77806 0.98120 -0.47600
O 	O 	0.95317 0.83988 0.98450 -0.47400
O 	O 	0.54740 0.79307 0.09110 -0.51900
O 	O 	0.55388 0.82973 0.19720 -0.53700
C 	C 	0.75418 0.03994 0.10150 0.06900
C 	C 	0.79145 0.06385 0.13280 -0.12100
H 	H 	0.81630 0.04790 0.15430 0.07100
C 	C 	0.79215 0.11092 0.13260 0.03000
C 	C 	0.75542 0.13549 0.09790 -0.09700
H 	H 	0.75590 0.16720 0.09750 0.06100
C 	C 	0.71816 0.11221 0.06400 0.01800
C 	C 	0.71806 0.06445 0.06670 -0.11400
H 	H 	0.69310 0.04880 0.04460 0.06800
C 	C 	0.83233 0.13716 0.17030 0.07600
C 	C 	0.84545 0.17325 0.13360 -0.15900
H 	H 	0.82940 0.18100 0.08630 0.08300
C 	C 	0.88146 0.19800 0.16490 0.09800
H 	H 	0.88960 0.22220 0.13900 0.00200
C 	C 	0.90556 0.18650 0.23540 -0.19700
C 	C 	0.89336 0.15034 0.27280 0.10300
H 	H 	0.90920 0.14290 0.32040 0.00400
C 	C 	0.85759 0.12505 0.23970 -0.15800
H 	H 	0.85040 0.09970 0.26420 0.08500
C 	C 	0.94425 0.21519 0.27040 0.49900
C 	C 	0.67860 0.13725 0.02750 0.10500
C 	C 	0.65243 0.12020 0.96190 -0.19900
H 	H 	0.66050 0.09410 0.94050 0.09600
C 	C 	0.61462 0.14160 0.92830 0.15200
H 	H 	0.59750 0.12990 0.88440 -0.02300
C 	C 	0.60216 0.18030 0.95950 -0.25800
C 	C 	0.62851 0.19813 0.02290 0.14900
H 	H 	0.62080 0.22480 0.04320 -0.02800
C 	C 	0.66642 0.17684 0.05680 -0.19900
H 	H 	0.68390 0.18930 0.09980 0.09500
C 	C 	0.56014 0.20190 0.92340 0.56000
C 	C 	0.75263 0.98985 0.09770 -0.04100
C 	C 	0.71735 0.96645 0.10670 -0.02700
H 	H 	0.69520 0.98260 0.11880 0.03700
C 	C 	0.71370 0.91832 0.09790 -0.05900
C 	C 	0.74721 0.89496 0.08120 0.04300
H 	H 	0.74550 0.86350 0.07550 0.00500
C 	C 	0.78367 0.91777 0.07270 -0.18700
C 	C 	0.78584 0.96490 0.08070 0.03400
H 	H 	0.81000 0.98020 0.07460 0.00700
C 	C 	0.81852 0.89259 0.05000 0.48800
C 	C 	0.88570 0.84600 0.01190 -0.55600
C 	C 	0.92073 0.81910 0.99190 0.52400
C 	C 	0.67541 0.89410 0.10890 0.11900
C 	C 	0.65934 0.85552 0.06480 -0.18300
H 	H 	0.67320 0.84530 0.02940 0.09200
C 	C 	0.62362 0.83300 0.07360 0.11900
H 	H 	0.61300 0.80820 0.04330 0.00200
C 	C 	0.60323 0.84713 0.12770 -0.21900
C 	C 	0.61952 0.88396 0.17250 0.12900
H 	H 	0.60700 0.89280 0.21050 -0.01300
C 	C 	0.65408 0.90734 0.16090 -0.19400
H 	H 	0.66340 0.93320 0.18940 0.09500
C 	C 	0.56527 0.82094 0.14050 0.52900
C 	C 	0.88600 0.88640 0.02210 0.56700
H 	H 	0.90900 0.90310 0.01450 -0.14900
C 	C 	0.81830 0.85060 0.04530 -0.50500
H 	H 	0.80030 0.83300 0.06620 0.20200
C 	C 	0.84850 0.82840 0.00430 0.41000
H 	H 	0.84030 0.80280 0.97460 -0.10000
C 	C 	0.85370 0.90980 0.04460 -0.60600
H 	H 	0.85840 0.94050 0.05670 0.23300
Er	Er	0.48564 0.72832 0.45377 1.56700
O 	O 	0.46308 0.70545 0.33640 -0.52200
O 	O 	0.45475 0.74637 0.23220 -0.52300
O 	O 	0.03909 0.68313 0.86390 -0.57000
O 	O 	0.04776 0.73387 0.95400 -0.57200
O 	O 	0.41823 0.27806 0.98120 -0.47600
O 	O 	0.45317 0.33988 0.98450 -0.47700
O 	O 	0.04740 0.29307 0.09110 -0.51900
O 	O 	0.05388 0.32973 0.19720 -0.53300
C 	C 	0.25418 0.53994 0.10150 0.06900
C 	C 	0.29145 0.56385 0.13280 -0.12100
H 	H 	0.31630 0.54790 0.15430 0.06900
C 	C 	0.29215 0.61092 0.13260 0.02900
C 	C 	0.25542 0.63549 0.09790 -0.09700
H 	H 	0.25590 0.66720 0.09750 0.06100
C 	C 	0.21816 0.61221 0.06400 0.01700
C 	C 	0.21806 0.56445 0.06670 -0.11400
H 	H 	0.19310 0.54880 0.04460 0.06700
C 	C 	0.33233 0.63716 0.17030 0.07600
C 	C 	0.34545 0.67325 0.13360 -0.16100
H 	H 	0.32940 0.68100 0.08630 0.08200
C 	C 	0.38146 0.69800 0.16490 0.09900
H 	H 	0.38960 0.72220 0.13900 -0.00000
C 	C 	0.40556 0.68650 0.23540 -0.20000
C 	C 	0.39336 0.65034 0.27280 0.10300
H 	H 	0.40920 0.64290 0.32040 0.00200
C 	C 	0.35759 0.62505 0.23970 -0.16000
H 	H 	0.35040 0.59970 0.26420 0.08400
C 	C 	0.44425 0.71519 0.27040 0.50000
C 	C 	0.17860 0.63725 0.02750 0.10500
C 	C 	0.15243 0.62020 0.96190 -0.19900
H 	H 	0.16050 0.59410 0.94050 0.09500
C 	C 	0.11462 0.64160 0.92830 0.15100
H 	H 	0.09750 0.62990 0.88440 -0.02400
C 	C 	0.10216 0.68030 0.95950 -0.26000
C 	C 	0.12851 0.69813 0.02290 0.15000
H 	H 	0.12080 0.72480 0.04320 -0.03100
C 	C 	0.16642 0.67684 0.05680 -0.20000
H 	H 	0.18390 0.68930 0.09980 0.09400
C 	C 	0.06014 0.70190 0.92340 0.56100
C 	C 	0.25263 0.48985 0.09770 -0.04400
C 	C 	0.21735 0.46645 0.10670 -0.02600
H 	H 	0.19520 0.48260 0.11880 0.03600
C 	C 	0.21370 0.41832 0.09790 -0.06100
C 	C 	0.24721 0.39496 0.08120 0.04600
H 	H 	0.24550 0.36350 0.07550 0.00300
C 	C 	0.28367 0.41777 0.07270 -0.19200
C 	C 	0.28584 0.46490 0.08070 0.03700
H 	H 	0.31000 0.48020 0.07460 0.00500
C 	C 	0.31852 0.39259 0.05000 0.49700
C 	C 	0.38570 0.34600 0.01190 -0.56900
C 	C 	0.42073 0.31910 0.99190 0.52900
C 	C 	0.17541 0.39410 0.10890 0.11900
C 	C 	0.15934 0.35552 0.06480 -0.18400
H 	H 	0.17320 0.34530 0.02940 0.09200
C 	C 	0.12362 0.33300 0.07360 0.11800
H 	H 	0.11300 0.30820 0.04330 0.00100
C 	C 	0.10323 0.34713 0.12770 -0.21900
C 	C 	0.11952 0.38396 0.17250 0.12800
H 	H 	0.10700 0.39280 0.21050 -0.01400
C 	C 	0.15408 0.40734 0.16090 -0.19500
H 	H 	0.16340 0.43320 0.18940 0.09400
C 	C 	0.06527 0.32094 0.14050 0.52400
C 	C 	0.38600 0.38640 0.02210 0.57900
H 	H 	0.40900 0.40310 0.01450 -0.15700
C 	C 	0.31830 0.35060 0.04530 -0.51300
H 	H 	0.30030 0.33300 0.06620 0.20400
C 	C 	0.34850 0.32840 0.00430 0.41700
H 	H 	0.34030 0.30280 0.97460 -0.10200
C 	C 	0.35370 0.40980 0.04460 -0.61800
H 	H 	0.35840 0.44050 0.05670 0.23500
Er	Er	0.98564 0.77168 0.95377 1.59800
O 	O 	0.96308 0.79455 0.83640 -0.51800
O 	O 	0.95475 0.75363 0.73220 -0.50800
O 	O 	0.53909 0.81687 0.36390 -0.56900
O 	O 	0.54776 0.76613 0.45400 -0.55900
O 	O 	0.91823 0.22194 0.48120 -0.47600
O 	O 	0.95317 0.16012 0.48450 -0.47300
O 	O 	0.54740 0.20693 0.59110 -0.51900
O 	O 	0.55388 0.17027 0.69720 -0.53700
C 	C 	0.75418 0.96006 0.60150 0.06900
C 	C 	0.79145 0.93615 0.63280 -0.12200
H 	H 	0.81630 0.95210 0.65430 0.07100
C 	C 	0.79215 0.88908 0.63260 0.03100
C 	C 	0.75542 0.86451 0.59790 -0.09800
H 	H 	0.75590 0.83280 0.59750 0.06200
C 	C 	0.71816 0.88779 0.56400 0.01900
C 	C 	0.71806 0.93555 0.56670 -0.11500
H 	H 	0.69310 0.95120 0.54460 0.06800
C 	C 	0.83233 0.86284 0.67030 0.07500
C 	C 	0.84545 0.82675 0.63360 -0.15900
H 	H 	0.82940 0.81900 0.58630 0.08300
C 	C 	0.88146 0.80200 0.66490 0.09800
H 	H 	0.88960 0.77780 0.63900 0.00200
C 	C 	0.90556 0.81350 0.73540 -0.19700
C 	C 	0.89336 0.84966 0.77280 0.10200
H 	H 	0.90920 0.85710 0.82040 0.00300
C 	C 	0.85759 0.87495 0.73970 -0.15800
H 	H 	0.85040 0.90030 0.76420 0.08400
C 	C 	0.94425 0.78481 0.77040 0.49800
C 	C 	0.67860 0.86275 0.52750 0.10200
C 	C 	0.65243 0.87980 0.46190 -0.19600
H 	H 	0.66050 0.90590 0.44050 0.09500
C 	C 	0.61462 0.85840 0.42830 0.14900
H 	H 	0.59750 0.87010 0.38440 -0.02200
C 	C 	0.60216 0.81970 0.45950 -0.25500
C 	C 	0.62851 0.80187 0.52290 0.14600
H 	H 	0.62080 0.77520 0.54320 -0.02800
C 	C 	0.66642 0.82316 0.55680 -0.19700
H 	H 	0.68390 0.81070 0.59980 0.09400
C 	C 	0.56014 0.79810 0.42340 0.55900
C 	C 	0.75263 0.01015 0.59770 -0.04200
C 	C 	0.71735 0.03355 0.60670 -0.02700
H 	H 	0.69520 0.01740 0.61880 0.03700
C 	C 	0.71370 0.08168 0.59790 -0.05900
C 	C 	0.74721 0.10504 0.58120 0.04200
H 	H 	0.74550 0.13650 0.57550 0.00500
C 	C 	0.78367 0.08223 0.57270 -0.18700
C 	C 	0.78584 0.03510 0.58070 0.03400
H 	H 	0.81000 0.01980 0.57460 0.00700
C 	C 	0.81852 0.10741 0.55000 0.48700
C 	C 	0.88570 0.15400 0.51190 -0.55700
C 	C 	0.92073 0.18090 0.49190 0.52600
C 	C 	0.67541 0.10590 0.60890 0.11900
C 	C 	0.65934 0.14448 0.56480 -0.18300
H 	H 	0.67320 0.15470 0.52940 0.09200
C 	C 	0.62362 0.16700 0.57360 0.11900
H 	H 	0.61300 0.19180 0.54330 0.00200
C 	C 	0.60323 0.15287 0.62770 -0.21900
C 	C 	0.61952 0.11604 0.67250 0.12900
H 	H 	0.60700 0.10720 0.71050 -0.01300
C 	C 	0.65408 0.09266 0.66090 -0.19400
H 	H 	0.66340 0.06680 0.68940 0.09500
C 	C 	0.56527 0.17906 0.64050 0.52900
C 	C 	0.88600 0.11360 0.52210 0.56700
H 	H 	0.90900 0.09690 0.51450 -0.15000
C 	C 	0.81830 0.14940 0.54530 -0.50400
H 	H 	0.80030 0.16700 0.56620 0.20100
C 	C 	0.84850 0.17160 0.50430 0.40700
H 	H 	0.84030 0.19720 0.47460 -0.09800
C 	C 	0.85370 0.09020 0.54460 -0.60600
H 	H 	0.85840 0.05950 0.55670 0.23300
Er	Er	0.48564 0.27168 0.95377 1.56700
O 	O 	0.46308 0.29455 0.83640 -0.52200
O 	O 	0.45475 0.25363 0.73220 -0.52300
O 	O 	0.03909 0.31687 0.36390 -0.57000
O 	O 	0.04776 0.26613 0.45400 -0.57300
O 	O 	0.41823 0.72194 0.48120 -0.47600
O 	O 	0.45317 0.66012 0.48450 -0.47600
O 	O 	0.04740 0.70693 0.59110 -0.51900
O 	O 	0.05388 0.67027 0.69720 -0.53300
C 	C 	0.25418 0.46006 0.60150 0.06900
C 	C 	0.29145 0.43615 0.63280 -0.12100
H 	H 	0.31630 0.45210 0.65430 0.06900
C 	C 	0.29215 0.38908 0.63260 0.02900
C 	C 	0.25542 0.36451 0.59790 -0.09700
H 	H 	0.25590 0.33280 0.59750 0.06100
C 	C 	0.21816 0.38779 0.56400 0.01800
C 	C 	0.21806 0.43555 0.56670 -0.11400
H 	H 	0.19310 0.45120 0.54460 0.06700
C 	C 	0.33233 0.36284 0.67030 0.07600
C 	C 	0.34545 0.32675 0.63360 -0.16100
H 	H 	0.32940 0.31900 0.58630 0.08200
C 	C 	0.38146 0.30200 0.66490 0.09900
H 	H 	0.38960 0.27780 0.63900 -0.00000
C 	C 	0.40556 0.31350 0.73540 -0.20000
C 	C 	0.39336 0.34966 0.77280 0.10300
H 	H 	0.40920 0.35710 0.82040 0.00200
C 	C 	0.35759 0.37495 0.73970 -0.16000
H 	H 	0.35040 0.40030 0.76420 0.08400
C 	C 	0.44425 0.28481 0.77040 0.50000
C 	C 	0.17860 0.36275 0.52750 0.10300
C 	C 	0.15243 0.37980 0.46190 -0.19800
H 	H 	0.16050 0.40590 0.44050 0.09500
C 	C 	0.11462 0.35840 0.42830 0.15000
H 	H 	0.09750 0.37010 0.38440 -0.02400
C 	C 	0.10216 0.31970 0.45950 -0.25800
C 	C 	0.12851 0.30187 0.52290 0.14800
H 	H 	0.12080 0.27520 0.54320 -0.03000
C 	C 	0.16642 0.32316 0.55680 -0.19900
H 	H 	0.18390 0.31070 0.59980 0.09400
C 	C 	0.06014 0.29810 0.42340 0.56000
C 	C 	0.25263 0.51015 0.59770 -0.04400
C 	C 	0.21735 0.53355 0.60670 -0.02600
H 	H 	0.19520 0.51740 0.61880 0.03600
C 	C 	0.21370 0.58168 0.59790 -0.06200
C 	C 	0.24721 0.60504 0.58120 0.04500
H 	H 	0.24550 0.63650 0.57550 0.00300
C 	C 	0.28367 0.58223 0.57270 -0.19200
C 	C 	0.28584 0.53510 0.58070 0.03700
H 	H 	0.31000 0.51980 0.57460 0.00500
C 	C 	0.31852 0.60741 0.55000 0.49600
C 	C 	0.38570 0.65400 0.51190 -0.56900
C 	C 	0.42073 0.68090 0.49190 0.52900
C 	C 	0.17541 0.60590 0.60890 0.11900
C 	C 	0.15934 0.64448 0.56480 -0.18400
H 	H 	0.17320 0.65470 0.52940 0.09200
C 	C 	0.12362 0.66700 0.57360 0.11800
H 	H 	0.11300 0.69180 0.54330 0.00100
C 	C 	0.10323 0.65287 0.62770 -0.21900
C 	C 	0.11952 0.61604 0.67250 0.12800
H 	H 	0.10700 0.60720 0.71050 -0.01400
C 	C 	0.15408 0.59266 0.66090 -0.19500
H 	H 	0.16340 0.56680 0.68940 0.09400
C 	C 	0.06527 0.67906 0.64050 0.52400
C 	C 	0.38600 0.61360 0.52210 0.57900
H 	H 	0.40900 0.59690 0.51450 -0.15700
C 	C 	0.31830 0.64940 0.54530 -0.51300
H 	H 	0.30030 0.66700 0.56620 0.20300
C 	C 	0.34850 0.67160 0.50430 0.41600
H 	H 	0.34030 0.69720 0.47460 -0.10100
C 	C 	0.35370 0.59020 0.54460 -0.61800
H 	H 	0.35840 0.55950 0.55670 0.23500
Er	Er	0.01436 0.77168 0.54623 1.53500
O 	O 	0.03692 0.79455 0.66360 -0.52100
O 	O 	0.04525 0.75363 0.76780 -0.52100
O 	O 	0.46091 0.81687 0.13610 -0.56900
O 	O 	0.45224 0.76613 0.04600 -0.55800
O 	O 	0.08177 0.22194 0.01880 -0.47500
O 	O 	0.04683 0.16012 0.01550 -0.47900
O 	O 	0.45260 0.20693 0.90890 -0.51900
O 	O 	0.44612 0.17027 0.80280 -0.53700
C 	C 	0.24582 0.96006 0.89850 0.07000
C 	C 	0.20855 0.93615 0.86720 -0.12200
H 	H 	0.18370 0.95210 0.84570 0.06900
C 	C 	0.20785 0.88908 0.86740 0.03000
C 	C 	0.24458 0.86451 0.90210 -0.09800
H 	H 	0.24410 0.83280 0.90250 0.06200
C 	C 	0.28184 0.88779 0.93600 0.01900
C 	C 	0.28194 0.93555 0.93330 -0.11600
H 	H 	0.30690 0.95120 0.95540 0.06900
C 	C 	0.16767 0.86284 0.82970 0.07400
C 	C 	0.15455 0.82675 0.86640 -0.16100
H 	H 	0.17060 0.81900 0.91370 0.08100
C 	C 	0.11854 0.80200 0.83510 0.09700
H 	H 	0.11040 0.77780 0.86100 -0.00000
C 	C 	0.09444 0.81350 0.76460 -0.20000
C 	C 	0.10664 0.84966 0.72720 0.10100
H 	H 	0.09080 0.85710 0.67960 0.00100
C 	C 	0.14241 0.87495 0.76030 -0.15900
H 	H 	0.14960 0.90030 0.73580 0.08300
C 	C 	0.05575 0.78481 0.72960 0.49500
C 	C 	0.32140 0.86275 0.97250 0.10000
C 	C 	0.34757 0.87980 0.03810 -0.19400
H 	H 	0.33950 0.90590 0.05950 0.09400
C 	C 	0.38538 0.85840 0.07170 0.14700
H 	H 	0.40250 0.87010 0.11560 -0.02100
C 	C 	0.39784 0.81970 0.04050 -0.25300
C 	C 	0.37149 0.80187 0.97710 0.14400
H 	H 	0.37920 0.77520 0.95680 -0.02700
C 	C 	0.33358 0.82316 0.94320 -0.19500
H 	H 	0.31610 0.81070 0.90020 0.09300
C 	C 	0.43986 0.79810 0.07660 0.55900
C 	C 	0.24737 0.01015 0.90230 -0.04600
C 	C 	0.28265 0.03355 0.89330 -0.02400
H 	H 	0.30480 0.01740 0.88120 0.03600
C 	C 	0.28630 0.08168 0.90210 -0.06300
C 	C 	0.25279 0.10504 0.91880 0.04800
H 	H 	0.25450 0.13650 0.92450 0.00200
C 	C 	0.21633 0.08223 0.92730 -0.19700
C 	C 	0.21416 0.03510 0.91930 0.04000
H 	H 	0.19000 0.01980 0.92540 0.00200
C 	C 	0.18148 0.10741 0.95000 0.50400
C 	C 	0.11430 0.15400 0.98810 -0.57900
C 	C 	0.07927 0.18090 0.00810 0.53300
C 	C 	0.32459 0.10590 0.89110 0.12100
C 	C 	0.34066 0.14448 0.93520 -0.18500
H 	H 	0.32680 0.15470 0.97060 0.09300
C 	C 	0.37638 0.16700 0.92640 0.12000
H 	H 	0.38700 0.19180 0.95670 0.00100
C 	C 	0.39677 0.15287 0.87230 -0.22000
C 	C 	0.38048 0.11604 0.82750 0.13000
H 	H 	0.39300 0.10720 0.78950 -0.01300
C 	C 	0.34592 0.09266 0.83910 -0.19600
H 	H 	0.33660 0.06680 0.81060 0.09500
C 	C 	0.43473 0.17906 0.85950 0.52900
C 	C 	0.11400 0.11360 0.97790 0.58900
H 	H 	0.09100 0.09690 0.98550 -0.16300
C 	C 	0.18170 0.14940 0.95470 -0.52100
H 	H 	0.19970 0.16700 0.93380 0.20600
C 	C 	0.15150 0.17160 0.99570 0.42200
H 	H 	0.15970 0.19720 0.02540 -0.10300
C 	C 	0.14630 0.09020 0.95540 -0.62800
H 	H 	0.14160 0.05950 0.94330 0.23700
Er	Er	0.51436 0.27168 0.54623 1.56700
O 	O 	0.53692 0.29455 0.66360 -0.52100
O 	O 	0.54525 0.25363 0.76780 -0.52300
O 	O 	0.96091 0.31687 0.13610 -0.54700
O 	O 	0.95224 0.26613 0.04600 -0.53900
O 	O 	0.58177 0.72194 0.01880 -0.47500
O 	O 	0.54683 0.66012 0.01550 -0.47600
O 	O 	0.95260 0.70693 0.90890 -0.51600
O 	O 	0.94612 0.67027 0.80280 -0.52200
C 	C 	0.74582 0.46006 0.89850 0.07100
C 	C 	0.70855 0.43615 0.86720 -0.12300
H 	H 	0.68370 0.45210 0.84570 0.07000
C 	C 	0.70785 0.38908 0.86740 0.03100
C 	C 	0.74458 0.36451 0.90210 -0.10000
H 	H 	0.74410 0.33280 0.90250 0.06300
C 	C 	0.78184 0.38779 0.93600 0.02300
C 	C 	0.78194 0.43555 0.93330 -0.11800
H 	H 	0.80690 0.45120 0.95540 0.07000
C 	C 	0.66767 0.36284 0.82970 0.07500
C 	C 	0.65455 0.32675 0.86640 -0.16100
H 	H 	0.67060 0.31900 0.91370 0.08200
C 	C 	0.61854 0.30200 0.83510 0.09900
H 	H 	0.61040 0.27780 0.86100 -0.00000
C 	C 	0.59444 0.31350 0.76460 -0.20000
C 	C 	0.60664 0.34966 0.72720 0.10300
H 	H 	0.59080 0.35710 0.67960 0.00200
C 	C 	0.64241 0.37495 0.76030 -0.15900
H 	H 	0.64960 0.40030 0.73580 0.08400
C 	C 	0.55575 0.28481 0.72960 0.50000
C 	C 	0.82140 0.36275 0.97250 0.09300
C 	C 	0.84757 0.37980 0.03810 -0.18400
H 	H 	0.83950 0.40590 0.05950 0.09200
C 	C 	0.88538 0.35840 0.07170 0.13800
H 	H 	0.90250 0.37010 0.11560 -0.01500
C 	C 	0.89784 0.31970 0.04050 -0.24000
C 	C 	0.87149 0.30187 0.97710 0.13300
H 	H 	0.87920 0.27520 0.95680 -0.02100
C 	C 	0.83358 0.32316 0.94320 -0.18600
H 	H 	0.81610 0.31070 0.90020 0.09100
C 	C 	0.93986 0.29810 0.07660 0.54800
C 	C 	0.74737 0.51015 0.90230 -0.04400
C 	C 	0.78265 0.53355 0.89330 -0.02600
H 	H 	0.80480 0.51740 0.88120 0.03700
C 	C 	0.78630 0.58168 0.90210 -0.06000
C 	C 	0.75279 0.60504 0.91880 0.04400
H 	H 	0.75450 0.63650 0.92450 0.00400
C 	C 	0.71633 0.58223 0.92730 -0.19100
C 	C 	0.71416 0.53510 0.91930 0.03600
H 	H 	0.69000 0.51980 0.92540 0.00500
C 	C 	0.68148 0.60741 0.95000 0.49300
C 	C 	0.61430 0.65400 0.98810 -0.56600
C 	C 	0.57927 0.68090 0.00810 0.52900
C 	C 	0.82459 0.60590 0.89110 0.11900
C 	C 	0.84066 0.64448 0.93520 -0.18200
H 	H 	0.82680 0.65470 0.97060 0.09200
C 	C 	0.87638 0.66700 0.92640 0.11800
H 	H 	0.88700 0.69180 0.95670 0.00300
C 	C 	0.89677 0.65287 0.87230 -0.21500
C 	C 	0.88048 0.61604 0.82750 0.12800
H 	H 	0.89300 0.60720 0.78950 -0.01000
C 	C 	0.84592 0.59266 0.83910 -0.19300
H 	H 	0.83660 0.56680 0.81060 0.09500
C 	C 	0.93473 0.67906 0.85950 0.52600
C 	C 	0.61400 0.61360 0.97790 0.57600
H 	H 	0.59100 0.59690 0.98550 -0.15600
C 	C 	0.68170 0.64940 0.95470 -0.50900
H 	H 	0.69970 0.66700 0.93380 0.20200
C 	C 	0.65150 0.67160 0.99570 0.41100
H 	H 	0.65970 0.69720 0.02540 -0.09900
C 	C 	0.64630 0.59020 0.95540 -0.61400
H 	H 	0.64160 0.55950 0.94330 0.23400
Er	Er	-0.00000 0.30618 0.25000 1.88800
Er	Er	0.50000 0.80618 0.25000 1.94600
Er	Er	0.00000 0.69382 0.75000 1.88900
Er	Er	0.50000 0.19382 0.75000 1.94600
