data_crystal

_cell_length_a 11.68800
_cell_length_b 10.24380
_cell_length_c 18.75300
_cell_angle_alpha 90.00000
_cell_angle_beta  127.40800
_cell_angle_gamma 90.00000

_symmetry_space_group_name_	'P 1'
_symmetry_space_group_name_H-M	'P 1'

loop_
_symmetry_equiv_pos_as_xyz
  x,y,z

loop_
_atom_site_label
_atom_site_type_symbol
_atom_site_fract_x
_atom_site_fract_y
_atom_site_fract_z
_atom_site_charge
Mn	Mn	0.37545 0.08643 0.12980 1.25600
Mn	Mn	0.57461 0.89962 0.31488 1.32900
O 	O 	0.44320 0.20820 0.24617 -0.57000
O 	O 	0.55900 0.07740 0.36620 -0.47900
O 	O 	0.59000 0.99830 0.21870 -0.55600
O 	O 	0.67720 0.00150 0.14160 -0.57500
O 	O 	0.45680 0.26280 0.10820 -0.59800
O 	O 	0.47850 0.20640 0.00230 -0.50600
O 	O 	0.34520 0.92870 0.19800 -0.51300
O 	O 	0.11010 0.90120 0.12740 -0.41100
O 	O 	0.33650 0.97200 0.02170 -0.56200
O 	O 	0.11880 0.89680 0.96660 -0.40600
O 	O 	0.15770 0.16140 0.05780 -0.59100
O 	O 	0.20190 0.37390 0.09080 -0.43000
C 	C 	0.50750 0.18510 0.32890 0.34300
C 	C 	0.69240 0.99080 0.21210 0.56600
C 	C 	0.48180 0.28560 0.05220 0.42800
C 	C 	0.23870 0.88100 0.19040 0.35400
C 	C 	0.22520 0.90030 0.96780 0.43100
C 	C 	0.11970 0.28010 0.05040 0.22300
C 	C 	0.83100 0.98500 0.28400 -0.06000
C 	C 	0.56900 0.40050 0.06240 -0.12100
C 	C 	0.97600 0.33000 0.99100 0.12900
Mn	Mn	0.62455 0.58643 0.37020 1.30200
Mn	Mn	0.42539 0.39962 0.18512 1.30900
O 	O 	0.55680 0.70820 0.25383 -0.54500
O 	O 	0.44100 0.57740 0.13380 -0.43600
O 	O 	0.41000 0.49830 0.28130 -0.58500
O 	O 	0.32280 0.50150 0.35840 -0.46800
O 	O 	0.54320 0.76280 0.39180 -0.56500
O 	O 	0.52150 0.70640 0.49770 -0.44400
O 	O 	0.65480 0.42870 0.30200 -0.54300
O 	O 	0.88990 0.40120 0.37260 -0.37800
O 	O 	0.66350 0.47200 0.47830 -0.55400
O 	O 	0.88120 0.39680 0.53340 -0.40100
O 	O 	0.84230 0.66140 0.44220 -0.55500
O 	O 	0.79810 0.87390 0.40920 -0.42600
C 	C 	0.49250 0.68510 0.17110 0.34500
C 	C 	0.30760 0.49080 0.28790 0.46500
C 	C 	0.51820 0.78560 0.44780 0.42900
C 	C 	0.76130 0.38100 0.30960 0.34100
C 	C 	0.77480 0.40030 0.53220 0.37000
C 	C 	0.88030 0.78010 0.44960 0.51400
C 	C 	0.16900 0.48500 0.21600 -0.17600
C 	C 	0.43100 0.90050 0.43760 -0.04200
C 	C 	0.02400 0.83000 0.50900 -0.14700
Mn	Mn	0.62455 0.91357 0.87020 1.34100
Mn	Mn	0.42539 0.10038 0.68512 1.29400
O 	O 	0.55680 0.79180 0.75383 -0.52500
O 	O 	0.44100 0.92260 0.63380 -0.36700
O 	O 	0.41000 0.00170 0.78130 -0.59300
O 	O 	0.32280 0.99850 0.85840 -0.30800
O 	O 	0.54320 0.73720 0.89180 -0.55200
O 	O 	0.52150 0.79360 0.99770 -0.38400
O 	O 	0.65480 0.07130 0.80200 -0.57100
O 	O 	0.88990 0.09880 0.87260 -0.38000
O 	O 	0.66350 0.02800 0.97830 -0.51400
O 	O 	0.88120 0.10320 0.03340 -0.43200
O 	O 	0.84230 0.83860 0.94220 -0.51900
O 	O 	0.79810 0.62610 0.90920 -0.45600
C 	C 	0.49250 0.81490 0.67110 0.35500
C 	C 	0.30760 0.00920 0.78790 0.33100
C 	C 	0.51820 0.71440 0.94780 0.42000
C 	C 	0.76130 0.11900 0.80960 0.34700
C 	C 	0.77480 0.09970 0.03220 0.28100
C 	C 	0.88030 0.71990 0.94960 0.59900
C 	C 	0.16900 0.01500 0.71600 -0.18200
C 	C 	0.43100 0.59950 0.93760 -0.06100
C 	C 	0.02400 0.67000 0.00900 -0.27500
Mn	Mn	0.37545 0.41357 0.62980 1.29900
Mn	Mn	0.57461 0.60038 0.81488 1.31400
O 	O 	0.44320 0.29180 0.74617 -0.54900
O 	O 	0.55900 0.42260 0.86620 -0.40900
O 	O 	0.59000 0.50170 0.71870 -0.56900
O 	O 	0.67720 0.49850 0.64160 -0.43300
O 	O 	0.45680 0.23720 0.60820 -0.58700
O 	O 	0.47850 0.29360 0.50230 -0.46400
O 	O 	0.34520 0.57130 0.69800 -0.55100
O 	O 	0.11010 0.59880 0.62740 -0.44300
O 	O 	0.33650 0.52800 0.52170 -0.56200
O 	O 	0.11880 0.60320 0.46660 -0.46500
O 	O 	0.15770 0.33860 0.55780 -0.56700
O 	O 	0.20190 0.12610 0.59080 -0.46200
C 	C 	0.50750 0.31490 0.82890 0.35700
C 	C 	0.69240 0.50920 0.71210 0.43100
C 	C 	0.48180 0.21440 0.55220 0.42400
C 	C 	0.23870 0.61900 0.69040 0.36500
C 	C 	0.22520 0.59970 0.46780 0.36100
C 	C 	0.11970 0.21990 0.55040 0.31100
C 	C 	0.83100 0.51500 0.78400 -0.06500
C 	C 	0.56900 0.09950 0.56240 -0.14100
C 	C 	0.97600 0.17000 0.49100 -0.00300
Mn	Mn	0.50000 0.00000 -0.00000 1.25100
Mn	Mn	0.50000 0.50000 0.50000 1.32100
Mn	Mn	-0.00000 0.00000 -0.00000 1.21200
Mn	Mn	0.00000 0.50000 0.50000 1.28400
