data_crystal

_cell_length_a 10.00500
_cell_length_b 11.51900
_cell_length_c 14.96100
_cell_angle_alpha 91.22850
_cell_angle_beta  90.00000
_cell_angle_gamma 90.00000

_symmetry_space_group_name_	'P 1'
_symmetry_space_group_name_H-M	'P 1'

loop_
_symmetry_equiv_pos_as_xyz
  x,y,z

loop_
_atom_site_label
_atom_site_type_symbol
_atom_site_fract_x
_atom_site_fract_y
_atom_site_fract_z
_atom_site_charge
Mn	Mn	0.91411 0.75624 0.13161 1.33200
Mn	Mn	0.09713 0.73582 0.31485 1.28600
Mn	Mn	0.41411 0.74376 0.36839 1.30500
Mn	Mn	0.59713 0.76418 0.18515 1.31700
Mn	Mn	0.08589 0.24376 0.86839 1.27500
Mn	Mn	0.90287 0.26418 0.68515 1.34300
Mn	Mn	0.58589 0.25624 0.63161 1.30000
Mn	Mn	0.40287 0.23582 0.81485 1.31300
Mn	Mn	-0.00000 0.50000 -0.00000 1.23500
Mn	Mn	0.50000 0.00000 0.50000 1.29400
Mn	Mn	-0.00000 0.00000 -0.00000 1.20400
Mn	Mn	0.50000 0.50000 0.50000 1.32300
H 	H 	0.74600 0.86800 0.36400 -0.08800
H 	H 	0.02600 0.47150 0.26450 -0.09000
H 	H 	0.61100 0.55170 0.04570 -0.12500
H 	H 	0.19500 0.97300 0.23100 -0.14600
H 	H 	0.16300 0.69700 0.93500 -0.18200
H 	H 	0.70100 0.99050 0.00450 -0.10500
H 	H 	0.24600 0.63200 0.13600 -0.14600
H 	H 	0.52600 0.02850 0.23550 -0.26300
H 	H 	0.11100 0.94830 0.45430 -0.09800
H 	H 	0.69500 0.52700 0.26900 -0.10000
H 	H 	0.66300 0.80300 0.56500 -0.09900
H 	H 	0.20100 0.50950 0.49550 -0.11800
H 	H 	0.25400 0.13200 0.63600 -0.13700
H 	H 	0.97400 0.52850 0.73550 -0.11700
H 	H 	0.38900 0.44830 0.95430 -0.05300
H 	H 	0.80500 0.02700 0.76900 -0.06800
H 	H 	0.83700 0.30300 0.06500 -0.05600
H 	H 	0.29900 0.00950 0.99550 -0.08100
H 	H 	0.75400 0.36800 0.86400 -0.07900
H 	H 	0.47400 0.97150 0.76450 0.05400
H 	H 	0.88900 0.05170 0.54570 -0.08100
H 	H 	0.30500 0.47300 0.73100 -0.11700
H 	H 	0.33700 0.19700 0.43500 -0.14800
H 	H 	0.79900 0.49050 0.50450 -0.07800
C 	C 	0.81690 0.83620 0.32820 0.47800
C 	C 	0.00790 0.51286 0.21116 0.33500
C 	C 	0.70550 0.57332 0.05232 0.49100
C 	C 	0.12840 0.94929 0.18659 0.63400
C 	C 	0.10810 0.74222 0.97112 0.74200
C 	C 	0.71440 0.93212 0.04842 0.47900
C 	C 	0.31690 0.66380 0.17180 0.49600
C 	C 	0.50790 0.98714 0.28884 0.79500
C 	C 	0.20550 0.92668 0.44768 0.47200
C 	C 	0.62840 0.55071 0.31341 0.48300
C 	C 	0.60810 0.75778 0.52888 0.51800
C 	C 	0.21440 0.56788 0.45158 0.49900
C 	C 	0.18310 0.16380 0.67180 0.49700
C 	C 	0.99210 0.48714 0.78884 0.64100
C 	C 	0.29450 0.42668 0.94768 0.45500
C 	C 	0.87160 0.05071 0.81341 0.33400
C 	C 	0.89190 0.25778 0.02888 0.30900
C 	C 	0.28560 0.06788 0.95158 0.48400
C 	C 	0.68310 0.33620 0.82820 0.47800
C 	C 	0.49210 0.01286 0.71116 0.19200
C 	C 	0.79450 0.07332 0.55232 0.48100
C 	C 	0.37160 0.44929 0.68659 0.49400
C 	C 	0.39190 0.24222 0.47112 0.54300
C 	C 	0.78560 0.43212 0.54842 0.47700
O 	O 	0.79148 0.81348 0.24635 -0.55500
O 	O 	0.92286 0.81581 0.36771 -0.39000
O 	O 	0.99500 0.62283 0.21985 -0.44300
O 	O 	0.00206 0.45674 0.14044 -0.48400
O 	O 	0.73392 0.65254 0.10953 -0.58700
O 	O 	0.78527 0.51754 0.00554 -0.47500
O 	O 	0.07764 0.84888 0.19695 -0.66600
O 	O 	0.10551 0.01572 0.12572 -0.62300
O 	O 	0.03015 0.68649 0.02251 -0.78300
O 	O 	0.11568 0.84818 0.96548 -0.46700
O 	O 	0.83505 0.89960 0.05777 -0.55300
O 	O 	0.61635 0.89664 0.09015 -0.45800
O 	O 	0.29148 0.68652 0.25365 -0.59100
O 	O 	0.42286 0.68419 0.13229 -0.48500
O 	O 	0.49500 0.87717 0.28015 -0.64800
O 	O 	0.50206 0.04326 0.35956 -0.59400
O 	O 	0.23392 0.84746 0.39047 -0.58800
O 	O 	0.28527 0.98246 0.49446 -0.40800
O 	O 	0.57764 0.65112 0.30305 -0.57900
O 	O 	0.60551 0.48428 0.37428 -0.45300
O 	O 	0.53015 0.81351 0.47749 -0.57800
O 	O 	0.61568 0.65182 0.53452 -0.46000
O 	O 	0.33505 0.60040 0.44223 -0.59600
O 	O 	0.11635 0.60336 0.40985 -0.50200
O 	O 	0.20852 0.18652 0.75365 -0.60600
O 	O 	0.07714 0.18419 0.63229 -0.52600
O 	O 	0.00500 0.37717 0.78015 -0.71300
O 	O 	0.99794 0.54326 0.85956 -0.39300
O 	O 	0.26608 0.34746 0.89047 -0.58100
O 	O 	0.21473 0.48246 0.99446 -0.38500
O 	O 	0.92236 0.15112 0.80305 -0.49500
O 	O 	0.89449 0.98428 0.87428 -0.25800
O 	O 	0.96985 0.31351 0.97749 -0.38700
O 	O 	0.88432 0.15182 0.03452 -0.43500
O 	O 	0.16495 0.10040 0.94223 -0.58700
O 	O 	0.38365 0.10336 0.90985 -0.46000
O 	O 	0.70852 0.31348 0.74635 -0.57100
O 	O 	0.57714 0.31581 0.86771 -0.43200
O 	O 	0.50500 0.12283 0.71985 -0.51600
O 	O 	0.49794 0.95674 0.64044 -0.30100
O 	O 	0.76608 0.15254 0.60953 -0.58400
O 	O 	0.71473 0.01754 0.50554 -0.47400
O 	O 	0.42236 0.34888 0.69695 -0.58700
O 	O 	0.39449 0.51572 0.62572 -0.46000
O 	O 	0.46985 0.18649 0.52251 -0.60900
O 	O 	0.38432 0.34818 0.46548 -0.48600
O 	O 	0.66495 0.39960 0.55777 -0.58100
O 	O 	0.88365 0.39664 0.59015 -0.42000
