data_crystal

_cell_length_a 10.09460
_cell_length_b 11.70470
_cell_length_c 14.70980
_cell_angle_alpha 91.50640
_cell_angle_beta  90.00000
_cell_angle_gamma 90.00000

_symmetry_space_group_name_	'P 1'
_symmetry_space_group_name_H-M	'P 1'

loop_
_symmetry_equiv_pos_as_xyz
  x,y,z

loop_
_atom_site_label
_atom_site_type_symbol
_atom_site_fract_x
_atom_site_fract_y
_atom_site_fract_z
_atom_site_charge
Mn	Mn	0.91471 0.75644 0.13052 1.32100
Mn	Mn	0.09805 0.73927 0.31711 1.29200
Mn	Mn	0.41471 0.74356 0.36948 1.30400
Mn	Mn	0.59805 0.76073 0.18289 1.31300
Mn	Mn	0.08529 0.24356 0.86948 1.28900
Mn	Mn	0.90195 0.26073 0.68289 1.33900
Mn	Mn	0.58529 0.25644 0.63052 1.30400
Mn	Mn	0.40195 0.23927 0.81711 1.31800
Mn	Mn	-0.00000 0.50000 -0.00000 1.24800
Mn	Mn	0.50000 1.00000 0.50000 1.32200
Mn	Mn	-0.00000 0.00000 -0.00000 1.24800
Mn	Mn	0.50000 0.50000 0.50000 1.32300
H 	H 	0.74000 0.85160 0.36760 -0.10900
H 	H 	0.02600 0.48220 0.26920 -0.04200
H 	H 	0.61100 0.55960 0.03760 -0.06500
H 	H 	0.20100 0.96540 0.23440 -0.11700
H 	H 	0.16100 0.69680 0.92880 -0.14300
H 	H 	0.70600 0.01090 0.02190 -0.10100
H 	H 	0.24000 0.64840 0.13240 -0.13400
H 	H 	0.52600 0.01780 0.23080 -0.09900
H 	H 	0.11100 0.94040 0.46240 -0.11200
H 	H 	0.70100 0.53460 0.26560 -0.09700
H 	H 	0.66100 0.80320 0.57120 -0.10100
H 	H 	0.20600 0.48910 0.47810 -0.09700
H 	H 	0.26000 0.14840 0.63240 -0.12100
H 	H 	0.97400 0.51780 0.73080 -0.15400
H 	H 	0.38900 0.44040 0.96240 -0.10700
H 	H 	0.79900 0.03460 0.76560 -0.08500
H 	H 	0.83900 0.30320 0.07120 -0.06700
H 	H 	0.29400 0.98910 0.97810 -0.05100
H 	H 	0.76000 0.35160 0.86760 -0.09300
H 	H 	0.47400 0.98220 0.76920 -0.10200
H 	H 	0.88900 0.05960 0.53760 -0.05900
H 	H 	0.29900 0.46540 0.73440 -0.10600
H 	H 	0.33900 0.19680 0.42880 -0.11600
H 	H 	0.79400 0.51090 0.52190 -0.06700
C 	C 	0.81320 0.82122 0.33272 0.48000
C 	C 	0.00510 0.51904 0.21304 0.20300
C 	C 	0.70790 0.57818 0.04268 0.28000
C 	C 	0.13510 0.94391 0.18581 0.47400
C 	C 	0.10280 0.74158 0.96578 0.68700
C 	C 	0.71970 0.94161 0.05771 0.44400
C 	C 	0.31320 0.67878 0.16728 0.49000
C 	C 	0.50510 0.98096 0.28696 0.47500
C 	C 	0.20790 0.92182 0.45732 0.46500
C 	C 	0.63510 0.55609 0.31419 0.46700
C 	C 	0.60280 0.75842 0.53422 0.50000
C 	C 	0.21970 0.55839 0.44229 0.46800
C 	C 	0.18680 0.17878 0.66728 0.49600
C 	C 	0.99490 0.48096 0.78696 0.75700
C 	C 	0.29210 0.42182 0.95732 0.64400
C 	C 	0.86490 0.05609 0.81419 0.45900
C 	C 	0.89720 0.25842 0.03422 0.31400
C 	C 	0.28030 0.05839 0.94229 0.46200
C 	C 	0.68680 0.32122 0.83272 0.48400
C 	C 	0.49490 0.01904 0.71304 0.50800
C 	C 	0.79210 0.07818 0.54268 0.45800
C 	C 	0.36490 0.44391 0.68581 0.47100
C 	C 	0.39720 0.24158 0.46578 0.50300
C 	C 	0.78030 0.44161 0.55771 0.45300
O 	O 	0.79068 0.80491 0.24833 -0.56800
O 	O 	0.91997 0.80551 0.37196 -0.41900
O 	O 	0.99705 0.62704 0.21952 -0.43300
O 	O 	0.99417 0.46041 0.14271 -0.31500
O 	O 	0.73492 0.65714 0.10202 -0.54100
O 	O 	0.78879 0.52492 0.99607 -0.27400
O 	O 	0.07350 0.85083 0.19945 -0.63000
O 	O 	0.11989 0.00647 0.12075 -0.50700
O 	O 	0.02925 0.68570 0.02072 -0.74200
O 	O 	0.10265 0.84544 0.95793 -0.48900
O 	O 	0.83784 0.90467 0.06360 -0.57300
O 	O 	0.61999 0.89984 0.09305 -0.46600
O 	O 	0.29068 0.69509 0.25167 -0.58700
O 	O 	0.41997 0.69449 0.12804 -0.48600
O 	O 	0.49705 0.87296 0.28048 -0.58400
O 	O 	0.49417 0.03959 0.35729 -0.44700
O 	O 	0.23492 0.84286 0.39798 -0.59200
O 	O 	0.28879 0.97508 0.50393 -0.45800
O 	O 	0.57350 0.64917 0.30055 -0.58100
O 	O 	0.61989 0.49353 0.37925 -0.45000
O 	O 	0.52925 0.81430 0.47928 -0.58500
O 	O 	0.60265 0.65456 0.54207 -0.46100
O 	O 	0.33784 0.59533 0.43640 -0.58600
O 	O 	0.11999 0.60016 0.40695 -0.48100
O 	O 	0.20932 0.19509 0.75167 -0.58800
O 	O 	0.08003 0.19449 0.62804 -0.50500
O 	O 	0.00295 0.37296 0.78048 -0.72300
O 	O 	0.00583 0.53959 0.85729 -0.55700
O 	O 	0.26508 0.34286 0.89798 -0.61800
O 	O 	0.21121 0.47508 0.00393 -0.60400
O 	O 	0.92650 0.14917 0.80055 -0.52800
O 	O 	0.88011 0.99353 0.87925 -0.38100
O 	O 	0.97075 0.31430 0.97928 -0.41200
O 	O 	0.89735 0.15456 0.04207 -0.41700
O 	O 	0.16216 0.09533 0.93640 -0.56300
O 	O 	0.38001 0.10016 0.90695 -0.42500
O 	O 	0.70932 0.30491 0.74833 -0.56800
O 	O 	0.58003 0.30551 0.87196 -0.43800
O 	O 	0.50295 0.12704 0.71952 -0.58600
O 	O 	0.50583 0.96041 0.64271 -0.45900
O 	O 	0.76508 0.15714 0.60202 -0.57100
O 	O 	0.71121 0.02492 0.49607 -0.43700
O 	O 	0.42650 0.35083 0.69945 -0.57900
O 	O 	0.38011 0.50647 0.62075 -0.45600
O 	O 	0.47075 0.18570 0.52072 -0.58500
O 	O 	0.39735 0.34544 0.45793 -0.47400
O 	O 	0.66216 0.40467 0.56360 -0.57500
O 	O 	0.88001 0.39984 0.59305 -0.41400
