data_crystal

_cell_length_a 10.12790
_cell_length_b 11.64950
_cell_length_c 14.86080
_cell_angle_alpha 91.67000
_cell_angle_beta  90.00000
_cell_angle_gamma 90.00000

_symmetry_space_group_name_	'P 1'
_symmetry_space_group_name_H-M	'P 1'

loop_
_symmetry_equiv_pos_as_xyz
  x,y,z

loop_
_atom_site_label
_atom_site_type_symbol
_atom_site_fract_x
_atom_site_fract_y
_atom_site_fract_z
_atom_site_charge
Mn	Mn	0.91559 0.75683 0.13115 1.32700
Mn	Mn	0.10029 0.73955 0.31508 1.29300
Mn	Mn	0.41559 0.74317 0.36885 1.30800
Mn	Mn	0.60029 0.76045 0.18492 1.31900
Mn	Mn	0.08441 0.24317 0.86885 1.28600
Mn	Mn	0.89971 0.26045 0.68492 1.34000
Mn	Mn	0.58441 0.25683 0.63115 1.30200
Mn	Mn	0.39971 0.23955 0.81508 1.31500
Mn	Mn	-0.00000 0.50000 -0.00000 1.23900
Mn	Mn	0.50000 0.00000 0.50000 1.29600
Mn	Mn	-0.00000 0.00000 -0.00000 1.21000
Mn	Mn	0.50000 0.50000 0.50000 1.32500
H 	H 	0.74940 0.86390 0.36460 -0.09400
H 	H 	0.02340 0.47850 0.26500 -0.05200
H 	H 	0.61880 0.55400 0.04260 -0.14600
H 	H 	0.18770 0.97550 0.23230 -0.16800
H 	H 	0.15760 0.69890 0.92880 -0.15600
H 	H 	0.70210 0.99420 0.01300 -0.11200
H 	H 	0.24940 0.63610 0.13540 -0.15500
H 	H 	0.52340 0.02150 0.23500 -0.27700
H 	H 	0.11880 0.94600 0.45740 -0.11000
H 	H 	0.68770 0.52450 0.26770 -0.12300
H 	H 	0.65760 0.80110 0.57120 -0.08800
H 	H 	0.20210 0.50580 0.48700 -0.12300
H 	H 	0.25060 0.13610 0.63540 -0.14100
H 	H 	0.97660 0.52150 0.73500 -0.16500
H 	H 	0.38120 0.44600 0.95740 -0.06900
H 	H 	0.81230 0.02450 0.76770 -0.08300
H 	H 	0.84240 0.30110 0.07120 -0.06100
H 	H 	0.29790 0.00580 0.98700 -0.08900
H 	H 	0.75060 0.36390 0.86460 -0.08100
H 	H 	0.47660 0.97850 0.76500 0.05100
H 	H 	0.88120 0.05400 0.54260 -0.10600
H 	H 	0.31230 0.47550 0.73230 -0.13000
H 	H 	0.34240 0.19890 0.42880 -0.13300
H 	H 	0.79790 0.49420 0.51300 -0.08800
C 	C 	0.81860 0.83115 0.32915 0.48900
C 	C 	0.00730 0.51900 0.21150 0.20700
C 	C 	0.70930 0.57378 0.04908 0.51600
C 	C 	0.12740 0.94947 0.18717 0.67000
C 	C 	0.10170 0.74269 0.96809 0.74100
C 	C 	0.71840 0.93282 0.05222 0.49500
C 	C 	0.31860 0.66885 0.17085 0.50900
C 	C 	0.50730 0.98100 0.28850 0.82700
C 	C 	0.20930 0.92622 0.45092 0.49700
C 	C 	0.62740 0.55053 0.31283 0.51400
C 	C 	0.60170 0.75731 0.53191 0.51100
C 	C 	0.21840 0.56718 0.44778 0.51200
C 	C 	0.18140 0.16885 0.67085 0.50900
C 	C 	0.99270 0.48100 0.78850 0.78900
C 	C 	0.29070 0.42622 0.95092 0.47900
C 	C 	0.87260 0.05053 0.81283 0.35800
C 	C 	0.89830 0.25731 0.03191 0.30500
C 	C 	0.28160 0.06718 0.94778 0.49800
C 	C 	0.68140 0.33115 0.82915 0.48900
C 	C 	0.49270 0.01900 0.71150 0.20700
C 	C 	0.79070 0.07378 0.54908 0.50500
C 	C 	0.37260 0.44947 0.68717 0.52200
C 	C 	0.39830 0.24269 0.46809 0.53200
C 	C 	0.78160 0.43282 0.55222 0.49300
O 	O 	0.79272 0.80811 0.24728 -0.56300
O 	O 	0.92548 0.81493 0.36767 -0.40200
O 	O 	0.99950 0.62737 0.21930 -0.43300
O 	O 	0.99627 0.46169 0.14175 -0.32300
O 	O 	0.73732 0.65364 0.10609 -0.59400
O 	O 	0.78908 0.51969 0.00144 -0.48900
O 	O 	0.07601 0.85156 0.19747 -0.67200
O 	O 	0.10724 0.01397 0.12488 -0.63000
O 	O 	0.02882 0.68646 0.02115 -0.77500
O 	O 	0.10695 0.84640 0.96261 -0.46400
O 	O 	0.83768 0.90078 0.05982 -0.56100
O 	O 	0.62173 0.89258 0.09046 -0.46400
O 	O 	0.29272 0.69189 0.25272 -0.59500
O 	O 	0.42548 0.68507 0.13233 -0.48900
O 	O 	0.49950 0.87263 0.28070 -0.66300
O 	O 	0.49627 0.03831 0.35825 -0.60900
O 	O 	0.23732 0.84636 0.39391 -0.58900
O 	O 	0.28908 0.98031 0.49856 -0.41500
O 	O 	0.57601 0.64844 0.30253 -0.58800
O 	O 	0.60724 0.48603 0.37512 -0.46400
O 	O 	0.52882 0.81354 0.47885 -0.57400
O 	O 	0.60695 0.65360 0.53739 -0.46300
O 	O 	0.33768 0.59922 0.44018 -0.59600
O 	O 	0.12173 0.60742 0.40954 -0.49900
O 	O 	0.20728 0.19189 0.75272 -0.60500
O 	O 	0.07452 0.18507 0.63233 -0.51800
O 	O 	0.00050 0.37263 0.78070 -0.73400
O 	O 	0.00373 0.53831 0.85825 -0.55600
O 	O 	0.26268 0.34636 0.89391 -0.57900
O 	O 	0.21092 0.48031 0.99856 -0.38700
O 	O 	0.92399 0.14844 0.80253 -0.50800
O 	O 	0.89276 0.98603 0.87512 -0.27000
O 	O 	0.97118 0.31354 0.97885 -0.39900
O 	O 	0.89305 0.15360 0.03739 -0.44600
O 	O 	0.16232 0.09922 0.94018 -0.58000
O 	O 	0.37827 0.10742 0.90954 -0.46200
O 	O 	0.70728 0.30811 0.74728 -0.57400
O 	O 	0.57452 0.31493 0.86767 -0.43300
O 	O 	0.50050 0.12737 0.71930 -0.52200
O 	O 	0.50373 0.96169 0.64175 -0.30700
O 	O 	0.76268 0.15364 0.60609 -0.59000
O 	O 	0.71092 0.01969 0.50144 -0.48400
O 	O 	0.42399 0.35156 0.69747 -0.59400
O 	O 	0.39276 0.51397 0.62488 -0.46500
O 	O 	0.47118 0.18646 0.52115 -0.60500
O 	O 	0.39305 0.34640 0.46261 -0.48800
O 	O 	0.66232 0.40078 0.55982 -0.58300
O 	O 	0.87827 0.39258 0.59046 -0.43200
