data_crystal

_cell_length_a 9.91440
_cell_length_b 14.44140
_cell_length_c 14.97850
_cell_angle_alpha 90.00000
_cell_angle_beta  98.88700
_cell_angle_gamma 90.00000

_symmetry_space_group_name_	'P 1'
_symmetry_space_group_name_H-M	'P 1'

loop_
_symmetry_equiv_pos_as_xyz
  x,y,z

loop_
_atom_site_label
_atom_site_type_symbol
_atom_site_fract_x
_atom_site_fract_y
_atom_site_fract_z
_atom_site_charge
Zn	Zn	0.34068 0.74059 0.99796 1.23600
Zn	Zn	0.31511 0.62062 0.37396 1.23100
Zn	Zn	0.20854 0.41675 0.18358 1.23400
P 	P 	0.25290 0.91561 0.09966 0.43900
H 	H 	0.14400 0.85800 0.10550 -0.05200
P 	P 	0.29000 0.62290 0.16588 0.45100
H 	H 	0.21000 0.68900 0.17710 -0.07900
P 	P 	0.02330 0.71399 0.94175 0.46900
H 	H 	0.03800 0.67700 0.02700 -0.03900
P 	P 	0.60080 0.72572 0.88969 0.44200
H 	H 	0.68800 0.70810 0.97300 -0.05900
O 	O 	0.34000 0.86900 0.03720 -0.41500
O 	O 	0.16620 0.72520 0.91820 -0.41700
O 	O 	0.37760 0.65590 0.09710 -0.44100
O 	O 	0.45560 0.71950 0.90840 -0.41800
O 	O 	0.37960 0.60610 0.25710 -0.44500
O 	O 	0.19570 0.00630 0.06040 -0.42800
O 	O 	0.63320 0.82240 0.85910 -0.43500
O 	O 	0.95030 0.80450 0.94520 -0.45800
O 	O 	0.20240 0.54130 0.13420 -0.44800
O 	O 	0.62560 0.65000 0.82430 -0.44600
O 	O 	0.33190 0.92620 0.19460 -0.45800
O 	O 	0.94720 0.64470 0.88030 -0.45900
Zn	Zn	0.15932 0.24059 0.50204 1.23500
Zn	Zn	0.18489 0.12062 0.12604 1.23000
Zn	Zn	0.29146 0.91675 0.31642 1.23400
P 	P 	0.24710 0.41561 0.40034 0.43900
H 	H 	0.35600 0.35800 0.39450 -0.05300
P 	P 	0.21000 0.12290 0.33412 0.45100
H 	H 	0.29000 0.18900 0.32290 -0.07900
P 	P 	0.47670 0.21399 0.55825 0.48100
H 	H 	0.46200 0.17700 0.47300 -0.04300
P 	P 	0.89920 0.22572 0.61031 0.44000
H 	H 	0.81200 0.20810 0.52700 -0.06100
O 	O 	0.16000 0.36900 0.46280 -0.41600
O 	O 	0.33380 0.22520 0.58180 -0.41700
O 	O 	0.12240 0.15590 0.40290 -0.44100
O 	O 	0.04440 0.21950 0.59160 -0.41600
O 	O 	0.12040 0.10610 0.24290 -0.44400
O 	O 	0.30430 0.50630 0.43960 -0.42900
O 	O 	0.86680 0.32240 0.64090 -0.43500
O 	O 	0.54970 0.30450 0.55480 -0.46300
O 	O 	0.29760 0.04130 0.36580 -0.44900
O 	O 	0.87440 0.15000 0.67570 -0.44600
O 	O 	0.16810 0.42620 0.30540 -0.45800
O 	O 	0.55280 0.14470 0.61970 -0.46400
Zn	Zn	0.65932 0.25941 0.00204 1.23500
Zn	Zn	0.68489 0.37938 0.62604 1.23000
Zn	Zn	0.79146 0.58325 0.81642 1.23400
P 	P 	0.74710 0.08439 0.90034 0.43900
H 	H 	0.85600 0.14200 0.89450 -0.05200
P 	P 	0.71000 0.37710 0.83412 0.45100
H 	H 	0.79000 0.31100 0.82290 -0.07900
P 	P 	0.97670 0.28601 0.05825 0.46900
H 	H 	0.96200 0.32300 0.97300 -0.03900
P 	P 	0.39920 0.27428 0.11031 0.44200
H 	H 	0.31200 0.29190 0.02700 -0.05900
O 	O 	0.66000 0.13100 0.96280 -0.41500
O 	O 	0.83380 0.27480 0.08180 -0.41700
O 	O 	0.62240 0.34410 0.90290 -0.44100
O 	O 	0.54440 0.28050 0.09160 -0.41800
O 	O 	0.62040 0.39390 0.74290 -0.44500
O 	O 	0.80430 0.99370 0.93960 -0.42800
O 	O 	0.36680 0.17760 0.14090 -0.43500
O 	O 	0.04970 0.19550 0.05480 -0.45800
O 	O 	0.79760 0.45870 0.86580 -0.44800
O 	O 	0.37440 0.35000 0.17570 -0.44600
O 	O 	0.66810 0.07380 0.80540 -0.45800
O 	O 	0.05280 0.35530 0.11970 -0.45900
Zn	Zn	0.84068 0.75941 0.49796 1.23500
Zn	Zn	0.81511 0.87938 0.87396 1.23000
Zn	Zn	0.70854 0.08325 0.68358 1.23400
P 	P 	0.75290 0.58439 0.59966 0.43900
H 	H 	0.64400 0.64200 0.60550 -0.05300
P 	P 	0.79000 0.87710 0.66588 0.45100
H 	H 	0.71000 0.81100 0.67710 -0.07900
P 	P 	0.52330 0.78601 0.44175 0.48100
H 	H 	0.53800 0.82300 0.52700 -0.04300
P 	P 	0.10080 0.77428 0.38969 0.44000
H 	H 	0.18800 0.79190 0.47300 -0.06100
O 	O 	0.84000 0.63100 0.53720 -0.41600
O 	O 	0.66620 0.77480 0.41820 -0.41700
O 	O 	0.87760 0.84410 0.59710 -0.44100
O 	O 	0.95560 0.78050 0.40840 -0.41600
O 	O 	0.87960 0.89390 0.75710 -0.44400
O 	O 	0.69570 0.49370 0.56040 -0.42900
O 	O 	0.13320 0.67760 0.35910 -0.43500
O 	O 	0.45030 0.69550 0.44520 -0.46300
O 	O 	0.70240 0.95870 0.63420 -0.44900
O 	O 	0.12560 0.85000 0.32430 -0.44600
O 	O 	0.83190 0.57380 0.69460 -0.45800
O 	O 	0.44720 0.85530 0.38030 -0.46400
