data_crystal

_cell_length_a 11.07200
_cell_length_b 12.67600
_cell_length_c 16.02200
_cell_angle_alpha 100.29100
_cell_angle_beta  105.88400
_cell_angle_gamma 95.92700

_symmetry_space_group_name_	'P 1'
_symmetry_space_group_name_H-M	'P 1'

loop_
_symmetry_equiv_pos_as_xyz
  x,y,z

loop_
_atom_site_label
_atom_site_type_symbol
_atom_site_fract_x
_atom_site_fract_y
_atom_site_fract_z
_atom_site_charge
Eu	Eu	0.00183 0.75874 0.38251 1.88600
Eu	Eu	0.44208 0.25877 0.87204 1.87900
O 	O 	0.08890 0.12050 0.10030 -0.27100
O 	O 	0.90450 0.92450 0.32960 -0.41100
O 	O 	0.11230 0.93670 0.37620 -0.42700
O 	O 	0.00690 0.29770 0.47460 -0.40100
O 	O 	0.01190 0.12330 0.47950 -0.46200
O 	O 	0.62530 0.18140 0.82950 -0.38900
O 	O 	0.65310 0.24380 0.97150 -0.43800
O 	O 	0.23070 0.27680 0.87330 -0.53300
O 	O 	0.05500 0.28350 0.77010 -0.53500
O 	O 	0.63570 0.61560 0.60990 -0.27600
O 	O 	0.40380 0.43760 0.82850 -0.42000
O 	O 	0.60390 0.41760 0.87010 -0.42500
O 	O 	0.53610 0.62360 0.98270 -0.48700
O 	O 	0.57740 0.79860 0.99110 -0.41800
O 	O 	0.22080 0.77680 0.48770 -0.43500
O 	O 	0.20220 0.72460 0.34620 -0.39200
O 	O 	0.78560 0.71200 0.36440 -0.52200
O 	O 	0.62720 0.77670 0.28370 -0.54100
C 	C 	0.06060 0.14110 0.17950 0.24000
C 	C 	0.04640 0.05620 0.21980 -0.18200
H 	H 	0.04660 0.98580 0.19080 0.10400
C 	C 	0.03180 0.07570 0.30430 0.03500
C 	C 	0.02840 0.17750 0.34710 -0.12800
C 	C 	0.03650 0.26360 0.30440 0.08700
H 	H 	0.02930 0.33270 0.33220 0.00400
C 	C 	0.05530 0.24750 0.21940 -0.21900
H 	H 	0.06380 0.30490 0.19140 0.10400
C 	C 	0.01660 0.97500 0.34090 0.27300
C 	C 	0.01330 0.20170 0.43840 0.31400
C 	C 	0.02620 0.16210 0.02860 0.19800
C 	C 	0.89730 0.16680 0.00810 -0.14900
H 	H 	0.85220 0.14980 0.04640 0.08900
C 	C 	0.83540 0.19720 0.93010 -0.03100
C 	C 	0.90470 0.22740 0.87440 -0.02700
H 	H 	0.86410 0.24710 0.82180 0.05600
C 	C 	0.03480 0.22730 0.89920 -0.09600
C 	C 	0.09580 0.19410 0.97730 -0.12300
H 	H 	0.18320 0.19410 0.99350 0.08800
C 	C 	0.69540 0.20540 0.90860 0.29100
C 	C 	0.11270 0.26390 0.84290 0.46300
C 	C 	0.60830 0.64000 0.69060 0.24500
C 	C 	0.57450 0.55360 0.72460 -0.19800
H 	H 	0.56420 0.48300 0.69210 0.11700
C 	C 	0.55580 0.57240 0.80790 0.03100
C 	C 	0.56980 0.67950 0.85660 -0.15300
C 	C 	0.60370 0.76450 0.81970 0.11100
H 	H 	0.61580 0.83520 0.85230 0.00800
C 	C 	0.62050 0.74840 0.73570 -0.23300
H 	H 	0.63880 0.80640 0.71050 0.12500
C 	C 	0.52430 0.47240 0.83970 0.28700
C 	C 	0.56030 0.70040 0.94720 0.35100
C 	C 	0.57990 0.66090 0.54090 0.19100
C 	C 	0.45760 0.68490 0.52330 -0.13800
H 	H 	0.41190 0.67730 0.56330 0.09100
C 	C 	0.40250 0.72010 0.44650 -0.02600
C 	C 	0.47230 0.73630 0.38880 -0.00100
H 	H 	0.43590 0.76090 0.33780 0.05000
C 	C 	0.59630 0.71600 0.40720 -0.11200
C 	C 	0.65070 0.67640 0.48220 -0.09800
H 	H 	0.73300 0.66030 0.49330 0.08200
C 	C 	0.26810 0.74190 0.42780 0.29800
C 	C 	0.67560 0.73800 0.34750 0.46200
K 	K 	0.23160 0.00900 0.55780 0.64600
K 	K 	0.71770 0.47800 0.05510 0.63800
O 	O 	0.44400 0.99800 0.49600 -0.14600
Eu	Eu	0.99817 0.24126 0.61749 1.88500
Eu	Eu	0.55792 0.74123 0.12796 1.87800
O 	O 	0.91110 0.87950 0.89970 -0.27100
O 	O 	0.09550 0.07550 0.67040 -0.41100
O 	O 	0.88770 0.06330 0.62380 -0.42700
O 	O 	0.99310 0.70230 0.52540 -0.40100
O 	O 	0.98810 0.87670 0.52050 -0.46200
O 	O 	0.37470 0.81860 0.17050 -0.38900
O 	O 	0.34690 0.75620 0.02850 -0.43800
O 	O 	0.76930 0.72320 0.12670 -0.53300
O 	O 	0.94500 0.71650 0.22990 -0.53500
O 	O 	0.36430 0.38440 0.39010 -0.27600
O 	O 	0.59620 0.56240 0.17150 -0.42000
O 	O 	0.39610 0.58240 0.12990 -0.42500
O 	O 	0.46390 0.37640 0.01730 -0.48700
O 	O 	0.42260 0.20140 0.00890 -0.41800
O 	O 	0.77920 0.22320 0.51230 -0.43500
O 	O 	0.79780 0.27540 0.65380 -0.39200
O 	O 	0.21440 0.28800 0.63560 -0.52200
O 	O 	0.37280 0.22330 0.71630 -0.54100
C 	C 	0.93940 0.85890 0.82050 0.24000
C 	C 	0.95360 0.94380 0.78020 -0.18200
H 	H 	0.95340 0.01420 0.80920 0.10400
C 	C 	0.96820 0.92430 0.69570 0.03500
C 	C 	0.97160 0.82250 0.65290 -0.12800
C 	C 	0.96350 0.73640 0.69560 0.08700
H 	H 	0.97070 0.66730 0.66780 0.00400
C 	C 	0.94470 0.75250 0.78060 -0.21900
H 	H 	0.93620 0.69510 0.80860 0.10400
C 	C 	0.98340 0.02500 0.65910 0.27300
C 	C 	0.98670 0.79830 0.56160 0.31400
C 	C 	0.97380 0.83790 0.97140 0.19800
C 	C 	0.10270 0.83320 0.99190 -0.14900
H 	H 	0.14780 0.85020 0.95360 0.08900
C 	C 	0.16460 0.80280 0.06990 -0.03100
C 	C 	0.09530 0.77260 0.12560 -0.02700
H 	H 	0.13590 0.75290 0.17820 0.05600
C 	C 	0.96520 0.77270 0.10080 -0.09600
C 	C 	0.90420 0.80590 0.02270 -0.12300
H 	H 	0.81680 0.80590 0.00650 0.08800
C 	C 	0.30460 0.79460 0.09140 0.29100
C 	C 	0.88730 0.73610 0.15710 0.46300
C 	C 	0.39170 0.36000 0.30940 0.24500
C 	C 	0.42550 0.44640 0.27540 -0.19800
H 	H 	0.43580 0.51700 0.30790 0.11700
C 	C 	0.44420 0.42760 0.19210 0.03100
C 	C 	0.43020 0.32050 0.14340 -0.15300
C 	C 	0.39630 0.23550 0.18030 0.11100
H 	H 	0.38420 0.16480 0.14770 0.00800
C 	C 	0.37950 0.25160 0.26430 -0.23300
H 	H 	0.36120 0.19360 0.28950 0.12500
C 	C 	0.47570 0.52760 0.16030 0.28700
C 	C 	0.43970 0.29960 0.05280 0.35100
C 	C 	0.42010 0.33910 0.45910 0.19100
C 	C 	0.54240 0.31510 0.47670 -0.13800
H 	H 	0.58810 0.32270 0.43670 0.09100
C 	C 	0.59750 0.27990 0.55350 -0.02600
C 	C 	0.52770 0.26370 0.61120 -0.00100
H 	H 	0.56410 0.23910 0.66220 0.05000
C 	C 	0.40370 0.28400 0.59280 -0.11200
C 	C 	0.34930 0.32360 0.51780 -0.09800
H 	H 	0.26700 0.33970 0.50670 0.08200
C 	C 	0.73190 0.25810 0.57220 0.29800
C 	C 	0.32440 0.26200 0.65250 0.46200
K 	K 	0.76840 0.99100 0.44220 0.64600
K 	K 	0.28230 0.52200 0.94490 0.63800
O 	O 	0.55600 0.00200 0.50400 -0.14600
