data_crystal

_cell_length_a 11.02520
_cell_length_b 12.60450
_cell_length_c 16.00800
_cell_angle_alpha 100.23700
_cell_angle_beta  106.07000
_cell_angle_gamma 95.72500

_symmetry_space_group_name_	'P 1'
_symmetry_space_group_name_H-M	'P 1'

loop_
_symmetry_equiv_pos_as_xyz
  x,y,z

loop_
_atom_site_label
_atom_site_type_symbol
_atom_site_fract_x
_atom_site_fract_y
_atom_site_fract_z
_atom_site_charge
Tb	Tb	0.05916 0.24040 0.62800 1.79600
Tb	Tb	0.50248 0.25910 0.88275 1.79900
O 	O 	0.41200 0.38030 0.40000 -0.26900
O 	O 	0.59650 0.57660 0.17040 -0.41500
O 	O 	0.38690 0.56430 0.12300 -0.41600
O 	O 	0.49300 0.20280 0.02380 -0.39600
O 	O 	0.48690 0.37560 0.01880 -0.45800
O 	O 	0.87810 0.32070 0.67070 -0.37900
O 	O 	0.84890 0.25560 0.52920 -0.43300
O 	O 	0.26900 0.22380 0.62780 -0.52600
O 	O 	0.44700 0.21730 0.73090 -0.52100
O 	O 	0.13780 0.11550 0.11090 -0.27700
O 	O 	0.10590 0.91660 0.37070 -0.41000
O 	O 	0.90390 0.93800 0.32920 -0.42200
O 	O 	0.03800 0.12250 0.48460 -0.47000
O 	O 	0.07880 0.29940 0.49190 -0.40900
O 	O 	0.12700 0.27570 0.78130 -0.51900
O 	O 	0.28780 0.21110 0.86530 -0.51000
O 	O 	0.70070 0.22430 0.84520 -0.38700
O 	O 	0.72190 0.27750 0.98720 -0.42800
C 	C 	0.44070 0.35670 0.32030 0.25000
C 	C 	0.45320 0.44310 0.28020 -0.19700
H 	H 	0.45070 0.51330 0.30930 0.11800
C 	C 	0.46980 0.42560 0.19530 0.03400
C 	C 	0.47380 0.32090 0.15240 -0.13900
C 	C 	0.46190 0.23510 0.19540 0.11300
H 	H 	0.46460 0.16470 0.16700 -0.00300
C 	C 	0.44630 0.25180 0.27870 -0.24200
H 	H 	0.43960 0.19380 0.30670 0.11200
C 	C 	0.48670 0.52690 0.15930 0.28500
C 	C 	0.48600 0.29770 0.06020 0.33400
C 	C 	0.47660 0.33810 0.47150 0.18800
C 	C 	0.60480 0.33280 0.49180 -0.14500
H 	H 	0.65050 0.34980 0.45370 0.09000
C 	C 	0.66580 0.30160 0.57030 -0.03300
C 	C 	0.59640 0.27340 0.62560 -0.01600
H 	H 	0.63760 0.25470 0.67880 0.05500
C 	C 	0.46540 0.27320 0.60120 -0.10400
C 	C 	0.40490 0.30670 0.52390 -0.11200
H 	H 	0.31730 0.30800 0.50780 0.08600
C 	C 	0.80620 0.29320 0.59170 0.29600
C 	C 	0.38710 0.23610 0.65760 0.46000
C 	C 	0.10820 0.14130 0.18990 0.25600
C 	C 	0.07540 0.05410 0.22470 -0.19600
H 	H 	0.06530 0.98310 0.19240 0.11600
C 	C 	0.05740 0.07290 0.30920 0.03600
C 	C 	0.07180 0.17900 0.35690 -0.14100
C 	C 	0.10320 0.26590 0.31880 0.11200
H 	H 	0.11210 0.33720 0.35020 0.00800
C 	C 	0.12110 0.24750 0.23560 -0.24500
H 	H 	0.14150 0.30570 0.21090 0.13100
C 	C 	0.02060 0.97080 0.34030 0.28300
C 	C 	0.06100 0.20330 0.44950 0.33700
C 	C 	0.08120 0.16180 0.04010 0.21300
C 	C 	0.15220 0.17620 0.98340 -0.13500
H 	H 	0.23520 0.16050 0.99580 0.09100
C 	C 	0.09780 0.21480 0.90650 -0.09400
C 	C 	0.97270 0.23570 0.88770 -0.01100
H 	H 	0.93530 0.25880 0.83590 0.05500
C 	C 	0.90370 0.22190 0.94660 -0.03000
C 	C 	0.95810 0.18530 0.02400 -0.13500
H 	H 	0.91230 0.17680 0.06390 0.09300
C 	C 	0.17700 0.23450 0.84620 0.43900
C 	C 	0.76790 0.24310 0.92530 0.29900
K 	K 	0.73197 0.50936 0.05690 0.65000
K 	K 	0.78170 0.02368 0.44521 0.64000
O 	O 	0.94200 0.50800 -0.00000 -0.15000
Tb	Tb	0.94084 0.75960 0.37200 1.79700
Tb	Tb	0.49752 0.74090 0.11725 1.82300
O 	O 	0.58800 0.61970 0.60000 -0.27100
O 	O 	0.40350 0.42340 0.82960 -0.41600
O 	O 	0.61310 0.43570 0.87700 -0.41800
O 	O 	0.50700 0.79720 0.97620 -0.41100
O 	O 	0.51310 0.62440 0.98120 -0.47300
O 	O 	0.12190 0.67930 0.32930 -0.37900
O 	O 	0.15110 0.74440 0.47080 -0.43300
O 	O 	0.73100 0.77620 0.37220 -0.52700
O 	O 	0.55300 0.78270 0.26910 -0.52400
O 	O 	0.86220 0.88450 0.88910 -0.27800
O 	O 	0.89410 0.08340 0.62930 -0.41000
O 	O 	0.09610 0.06200 0.67080 -0.42300
O 	O 	0.96200 0.87750 0.51540 -0.46900
O 	O 	0.92120 0.70060 0.50810 -0.40900
O 	O 	0.87300 0.72430 0.21870 -0.51900
O 	O 	0.71220 0.78890 0.13470 -0.50800
O 	O 	0.29930 0.77570 0.15480 -0.38600
O 	O 	0.27810 0.72250 0.01280 -0.41500
C 	C 	0.55930 0.64330 0.67970 0.25000
C 	C 	0.54680 0.55690 0.71980 -0.19900
H 	H 	0.54930 0.48670 0.69070 0.11800
C 	C 	0.53020 0.57440 0.80470 0.03400
C 	C 	0.52620 0.67910 0.84760 -0.14400
C 	C 	0.53810 0.76490 0.80460 0.11500
H 	H 	0.53540 0.83530 0.83300 -0.00600
C 	C 	0.55370 0.74820 0.72130 -0.24400
H 	H 	0.56040 0.80620 0.69330 0.11200
C 	C 	0.51330 0.47310 0.84070 0.28500
C 	C 	0.51400 0.70230 0.93980 0.33500
C 	C 	0.52340 0.66190 0.52850 0.18800
C 	C 	0.39520 0.66720 0.50820 -0.14500
H 	H 	0.34950 0.65020 0.54630 0.09000
C 	C 	0.33420 0.69840 0.42970 -0.03300
C 	C 	0.40360 0.72660 0.37440 -0.01500
H 	H 	0.36240 0.74530 0.32120 0.05500
C 	C 	0.53460 0.72680 0.39880 -0.10500
C 	C 	0.59510 0.69330 0.47610 -0.11100
H 	H 	0.68270 0.69200 0.49220 0.08600
C 	C 	0.19380 0.70680 0.40830 0.29600
C 	C 	0.61290 0.76390 0.34240 0.46200
C 	C 	0.89180 0.85870 0.81010 0.25400
C 	C 	0.92460 0.94590 0.77530 -0.19400
H 	H 	0.93470 0.01690 0.80760 0.11400
C 	C 	0.94260 0.92710 0.69080 0.03500
C 	C 	0.92820 0.82100 0.64310 -0.14000
C 	C 	0.89680 0.73410 0.68120 0.11100
H 	H 	0.88790 0.66280 0.64980 0.00800
C 	C 	0.87890 0.75250 0.76440 -0.24400
H 	H 	0.85850 0.69430 0.78910 0.12900
C 	C 	0.97940 0.02920 0.65970 0.28400
C 	C 	0.93900 0.79670 0.55050 0.33700
C 	C 	0.91880 0.83820 0.95990 0.19600
C 	C 	0.84780 0.82380 0.01660 -0.10700
H 	H 	0.76480 0.83950 0.00420 0.09100
C 	C 	0.90220 0.78520 0.09350 -0.09300
C 	C 	0.02730 0.76430 0.11230 -0.02000
H 	H 	0.06470 0.74120 0.16410 0.05900
C 	C 	0.09630 0.77810 0.05340 0.00100
C 	C 	0.04190 0.81470 0.97600 -0.16700
H 	H 	0.08770 0.82320 0.93610 0.09800
C 	C 	0.82300 0.76550 0.15380 0.44100
C 	C 	0.23210 0.75690 0.07470 0.29100
K 	K 	0.26803 0.49064 0.94310 0.64600
K 	K 	0.21830 0.97632 0.55479 0.64000
O 	O 	0.05800 0.49200 -0.00000 -0.14700
