data_crystal

_cell_length_a 11.00300
_cell_length_b 12.48600
_cell_length_c 15.92500
_cell_angle_alpha 100.09100
_cell_angle_beta  106.02800
_cell_angle_gamma 95.76200

_symmetry_space_group_name_	'P 1'
_symmetry_space_group_name_H-M	'P 1'

loop_
_symmetry_equiv_pos_as_xyz
  x,y,z

loop_
_atom_site_label
_atom_site_type_symbol
_atom_site_fract_x
_atom_site_fract_y
_atom_site_fract_z
_atom_site_charge
Gd	Gd	0.05985 0.24120 0.62837 1.54000
Gd	Gd	0.49636 0.74142 0.11713 1.55300
O 	O 	0.86150 0.88620 0.88840 -0.29100
O 	O 	0.89370 0.08350 0.62840 -0.38900
O 	O 	0.09560 0.06130 0.67170 -0.39300
O 	O 	0.96220 0.87770 0.51540 -0.44800
O 	O 	0.91960 0.70030 0.50820 -0.38200
O 	O 	0.29800 0.77660 0.15420 -0.36100
O 	O 	0.27650 0.72310 0.01230 -0.40300
O 	O 	0.71190 0.79100 0.13490 -0.45800
O 	O 	0.87030 0.72130 0.21740 -0.47300
O 	O 	0.41120 0.37880 0.39940 -0.28000
O 	O 	0.59490 0.57640 0.17030 -0.39600
O 	O 	0.38580 0.56420 0.12330 -0.40500
O 	O 	0.48810 0.37540 0.01950 -0.44900
O 	O 	0.49510 0.20290 0.02460 -0.38000
O 	O 	0.87800 0.32120 0.67000 -0.36100
O 	O 	0.84900 0.25670 0.52900 -0.40500
O 	O 	0.44700 0.21420 0.72980 -0.47100
O 	O 	0.27070 0.22320 0.62700 -0.48800
C 	C 	0.89210 0.86200 0.81030 0.29000
C 	C 	0.92280 0.94490 0.77590 -0.23700
H 	H 	0.93140 0.01670 0.80760 0.13300
C 	C 	0.94330 0.92570 0.69020 0.05800
C 	C 	0.92840 0.82050 0.64320 -0.16300
C 	C 	0.89520 0.73370 0.68020 0.13400
H 	H 	0.88460 0.66170 0.64840 0.00100
C 	C 	0.87760 0.75270 0.76380 -0.26200
H 	H 	0.85670 0.69430 0.78890 0.13000
C 	C 	0.97820 0.02940 0.65930 0.27700
C 	C 	0.93920 0.79840 0.55120 0.34800
C 	C 	0.91850 0.84030 0.95940 0.21600
C 	C 	0.04140 0.81590 0.97510 -0.16700
H 	H 	0.08810 0.82510 0.93560 0.10000
C 	C 	0.09330 0.77700 0.05210 -0.02000
C 	C 	0.02550 0.76430 0.11210 -0.04300
H 	H 	0.06310 0.74120 0.16440 0.05800
C 	C 	0.90050 0.78640 0.09300 -0.07900
C 	C 	0.84710 0.82530 0.01650 -0.13900
H 	H 	0.76390 0.84110 0.00400 0.10000
C 	C 	0.22990 0.75810 0.07400 0.28600
C 	C 	0.82140 0.76550 0.15300 0.39900
C 	C 	0.44120 0.35770 0.32100 0.26000
C 	C 	0.45280 0.44400 0.28040 -0.21200
H 	H 	0.45110 0.51520 0.30900 0.12400
C 	C 	0.46760 0.42320 0.19450 0.04100
C 	C 	0.47540 0.32140 0.15340 -0.15400
C 	C 	0.46110 0.23310 0.19420 0.11500
H 	H 	0.46200 0.16220 0.16450 -0.00100
C 	C 	0.44550 0.24990 0.27870 -0.24200
H 	H 	0.43820 0.19140 0.30680 0.11400
C 	C 	0.48560 0.52630 0.15960 0.28500
C 	C 	0.48890 0.29880 0.06150 0.34500
C 	C 	0.47680 0.33770 0.47070 0.20000
C 	C 	0.60660 0.33560 0.49250 -0.15100
H 	H 	0.65380 0.35720 0.45630 0.09300
C 	C 	0.66500 0.30080 0.56920 -0.03300
C 	C 	0.59620 0.27230 0.62440 -0.02400
H 	H 	0.63730 0.25220 0.67740 0.05800
C 	C 	0.46620 0.27360 0.60080 -0.08700
C 	C 	0.40660 0.30730 0.52460 -0.12500
H 	H 	0.31910 0.30970 0.50920 0.09400
C 	C 	0.80500 0.29480 0.59110 0.30000
C 	C 	0.38600 0.23410 0.65590 0.43600
K 	K 	0.78170 0.02420 0.44486 0.64300
K 	K 	0.26880 0.49040 0.94218 0.64100
Gd	Gd	0.94015 0.75880 0.37163 1.54000
Gd	Gd	0.50364 0.25858 0.88287 1.55300
O 	O 	0.13850 0.11380 0.11160 -0.29100
O 	O 	0.10630 0.91650 0.37160 -0.38900
O 	O 	0.90440 0.93870 0.32830 -0.39300
O 	O 	0.03780 0.12230 0.48460 -0.44800
O 	O 	0.08040 0.29970 0.49180 -0.38200
O 	O 	0.70200 0.22340 0.84580 -0.36100
O 	O 	0.72350 0.27690 0.98770 -0.40300
O 	O 	0.28810 0.20900 0.86510 -0.45800
O 	O 	0.12970 0.27870 0.78260 -0.47300
O 	O 	0.58880 0.62120 0.60060 -0.28000
O 	O 	0.40510 0.42360 0.82970 -0.39600
O 	O 	0.61420 0.43580 0.87670 -0.40500
O 	O 	0.51190 0.62460 0.98050 -0.44900
O 	O 	0.50490 0.79710 0.97540 -0.38000
O 	O 	0.12200 0.67880 0.33000 -0.36100
O 	O 	0.15100 0.74330 0.47100 -0.40500
O 	O 	0.55300 0.78580 0.27020 -0.47100
O 	O 	0.72930 0.77680 0.37300 -0.48800
C 	C 	0.10790 0.13800 0.18970 0.29000
C 	C 	0.07720 0.05510 0.22410 -0.23700
H 	H 	0.06860 0.98330 0.19240 0.13300
C 	C 	0.05670 0.07430 0.30980 0.05800
C 	C 	0.07160 0.17950 0.35680 -0.16300
C 	C 	0.10480 0.26630 0.31980 0.13400
H 	H 	0.11540 0.33830 0.35160 0.00100
C 	C 	0.12240 0.24730 0.23620 -0.26200
H 	H 	0.14330 0.30570 0.21110 0.13000
C 	C 	0.02180 0.97060 0.34070 0.27700
C 	C 	0.06080 0.20160 0.44880 0.34800
C 	C 	0.08150 0.15970 0.04060 0.21600
C 	C 	0.95860 0.18410 0.02490 -0.16700
H 	H 	0.91190 0.17490 0.06440 0.10000
C 	C 	0.90670 0.22300 0.94790 -0.02000
C 	C 	0.97450 0.23570 0.88790 -0.04300
H 	H 	0.93690 0.25880 0.83560 0.05800
C 	C 	0.09950 0.21360 0.90700 -0.07900
C 	C 	0.15290 0.17470 0.98350 -0.13900
H 	H 	0.23610 0.15890 0.99600 0.10000
C 	C 	0.77010 0.24190 0.92600 0.28600
C 	C 	0.17860 0.23450 0.84700 0.39900
C 	C 	0.55880 0.64230 0.67900 0.26000
C 	C 	0.54720 0.55600 0.71960 -0.21200
H 	H 	0.54890 0.48480 0.69100 0.12400
C 	C 	0.53240 0.57680 0.80550 0.04100
C 	C 	0.52460 0.67860 0.84660 -0.15400
C 	C 	0.53890 0.76690 0.80580 0.11500
H 	H 	0.53800 0.83780 0.83550 -0.00100
C 	C 	0.55450 0.75010 0.72130 -0.24200
H 	H 	0.56180 0.80860 0.69320 0.11400
C 	C 	0.51440 0.47370 0.84040 0.28500
C 	C 	0.51110 0.70120 0.93850 0.34500
C 	C 	0.52320 0.66230 0.52930 0.20000
C 	C 	0.39340 0.66440 0.50750 -0.15100
H 	H 	0.34620 0.64280 0.54370 0.09300
C 	C 	0.33500 0.69920 0.43080 -0.03300
C 	C 	0.40380 0.72770 0.37560 -0.02400
H 	H 	0.36270 0.74780 0.32260 0.05800
C 	C 	0.53380 0.72640 0.39920 -0.08700
C 	C 	0.59340 0.69270 0.47540 -0.12500
H 	H 	0.68090 0.69030 0.49080 0.09400
C 	C 	0.19500 0.70520 0.40890 0.30000
C 	C 	0.61400 0.76590 0.34410 0.43600
K 	K 	0.21830 0.97580 0.55514 0.64300
K 	K 	0.73120 0.50960 0.05782 0.64100
