data_crystal

_cell_length_a 31.06500
_cell_length_b 31.06500
_cell_length_c 8.00030
_cell_angle_alpha 90.00000
_cell_angle_beta  90.00000
_cell_angle_gamma 90.00000

_symmetry_space_group_name_	'P 1'
_symmetry_space_group_name_H-M	'P 1'

loop_
_symmetry_equiv_pos_as_xyz
  x,y,z

loop_
_atom_site_label
_atom_site_type_symbol
_atom_site_fract_x
_atom_site_fract_y
_atom_site_fract_z
_atom_site_charge
Ag	Ag	0.18630 0.30562 0.08931 0.51700
N 	N 	0.98963 0.38574 0.06010 -0.19000
N 	N 	0.06745 0.25558 0.83460 -0.09200
N 	N 	0.10268 0.23472 0.76790 -0.09400
N 	N 	0.11614 0.30411 0.77050 -0.16300
N 	N 	0.25021 0.22621 0.51280 -0.18500
N 	N 	0.17085 0.35119 0.84950 -0.20400
C 	C 	0.06168 0.36492 0.99500 -0.09400
H 	H 	0.09100 0.37050 0.00340 0.05000
C 	C 	0.03202 0.39243 0.06730 0.05500
H 	H 	0.04210 0.41660 0.12350 -0.00500
C 	C 	0.97605 0.35063 0.97810 0.09000
H 	H 	0.94660 0.34560 0.97200 -0.00400
C 	C 	0.00299 0.32187 0.90340 -0.12600
H 	H 	0.99200 0.29780 0.84880 0.09800
C 	C 	0.04714 0.32899 0.91010 0.04700
C 	C 	0.07610 0.29673 0.83680 0.09400
C 	C 	0.13146 0.26412 0.73050 0.07900
C 	C 	0.17311 0.25339 0.65600 0.05000
C 	C 	0.19250 0.21533 0.70430 -0.13300
H 	H 	0.17990 0.19820 0.78620 0.07400
C 	C 	0.23019 0.20310 0.63120 0.07200
H 	H 	0.24270 0.17730 0.66520 -0.00700
C 	C 	0.23188 0.26336 0.46860 0.06700
H 	H 	0.24550 0.28010 0.38820 -0.02400
C 	C 	0.19360 0.27819 0.53660 -0.13400
H 	H 	0.18190 0.30430 0.50240 0.06100
C 	C 	0.13774 0.34479 0.75000 0.17400
C 	C 	0.19088 0.38904 0.83480 0.09700
H 	H 	0.21420 0.39460 0.90410 -0.02400
C 	C 	0.17865 0.42007 0.72230 -0.19300
H 	H 	0.19350 0.44600 0.71570 0.08400
C 	C 	0.14435 0.41228 0.62020 0.11400
H 	H 	0.13560 0.43280 0.54280 -0.02200
C 	C 	0.12285 0.37358 0.63330 -0.22500
H 	H 	0.09930 0.36730 0.56590 0.11500
Ag	Ag	0.68630 0.80562 0.58931 0.52000
N 	N 	0.48963 0.88574 0.56010 -0.19200
N 	N 	0.56745 0.75558 0.33460 -0.09300
N 	N 	0.60268 0.73472 0.26790 -0.09500
N 	N 	0.61614 0.80411 0.27050 -0.16300
N 	N 	0.75021 0.72621 0.01280 -0.18500
N 	N 	0.67085 0.85119 0.34950 -0.20600
C 	C 	0.56168 0.86492 0.49500 -0.13200
H 	H 	0.59100 0.87050 0.50340 0.06700
C 	C 	0.53202 0.89243 0.56730 0.08000
H 	H 	0.54210 0.91660 0.62350 -0.01300
C 	C 	0.47605 0.85063 0.47810 0.08600
H 	H 	0.44660 0.84560 0.47200 -0.00600
C 	C 	0.50299 0.82187 0.40340 -0.13300
H 	H 	0.49200 0.79780 0.34880 0.10000
C 	C 	0.54714 0.82899 0.41010 0.06100
C 	C 	0.57610 0.79673 0.33680 0.08700
C 	C 	0.63146 0.76412 0.23050 0.07900
C 	C 	0.67311 0.75339 0.15600 0.04800
C 	C 	0.69250 0.71533 0.20430 -0.13200
H 	H 	0.67990 0.69820 0.28620 0.07200
C 	C 	0.73019 0.70310 0.13120 0.07100
H 	H 	0.74270 0.67730 0.16520 -0.00700
C 	C 	0.73188 0.76336 0.96860 0.06500
H 	H 	0.74550 0.78010 0.88820 -0.02300
C 	C 	0.69360 0.77819 0.03660 -0.13200
H 	H 	0.68190 0.80430 0.00240 0.06100
C 	C 	0.63774 0.84479 0.25000 0.17300
C 	C 	0.69088 0.88904 0.33480 0.09600
H 	H 	0.71420 0.89460 0.40410 -0.02500
C 	C 	0.67865 0.92007 0.22230 -0.19300
H 	H 	0.69350 0.94600 0.21570 0.08300
C 	C 	0.64435 0.91228 0.12020 0.11300
H 	H 	0.63560 0.93280 0.04280 -0.02300
C 	C 	0.62285 0.87358 0.13330 -0.22500
H 	H 	0.59930 0.86730 0.06590 0.11400
Ag	Ag	0.31370 0.69438 0.58931 0.52000
N 	N 	0.51037 0.61426 0.56010 -0.19200
N 	N 	0.43255 0.74442 0.33460 -0.09300
N 	N 	0.39732 0.76528 0.26790 -0.09500
N 	N 	0.38386 0.69589 0.27050 -0.16300
N 	N 	0.24979 0.77379 0.01280 -0.18500
N 	N 	0.32915 0.64881 0.34950 -0.20600
C 	C 	0.43832 0.63508 0.49500 -0.13200
H 	H 	0.40900 0.62950 0.50340 0.06700
C 	C 	0.46798 0.60757 0.56730 0.08000
H 	H 	0.45790 0.58340 0.62350 -0.01300
C 	C 	0.52395 0.64937 0.47810 0.08600
H 	H 	0.55340 0.65440 0.47200 -0.00600
C 	C 	0.49701 0.67813 0.40340 -0.13300
H 	H 	0.50800 0.70220 0.34880 0.10000
C 	C 	0.45286 0.67101 0.41010 0.06100
C 	C 	0.42390 0.70327 0.33680 0.08700
C 	C 	0.36854 0.73588 0.23050 0.07900
C 	C 	0.32689 0.74661 0.15600 0.04800
C 	C 	0.30750 0.78467 0.20430 -0.13200
H 	H 	0.32010 0.80180 0.28620 0.07200
C 	C 	0.26981 0.79690 0.13120 0.07100
H 	H 	0.25730 0.82270 0.16520 -0.00700
C 	C 	0.26812 0.73664 0.96860 0.06500
H 	H 	0.25450 0.71990 0.88820 -0.02300
C 	C 	0.30640 0.72181 0.03660 -0.13200
H 	H 	0.31810 0.69570 0.00240 0.06100
C 	C 	0.36226 0.65521 0.25000 0.17300
C 	C 	0.30912 0.61096 0.33480 0.09600
H 	H 	0.28580 0.60540 0.40410 -0.02500
C 	C 	0.32135 0.57993 0.22230 -0.19300
H 	H 	0.30650 0.55400 0.21570 0.08300
C 	C 	0.35565 0.58772 0.12020 0.11300
H 	H 	0.36440 0.56720 0.04280 -0.02300
C 	C 	0.37715 0.62642 0.13330 -0.22500
H 	H 	0.40070 0.63270 0.06590 0.11400
Ag	Ag	0.81370 0.19438 0.08931 0.51600
N 	N 	0.01037 0.11426 0.06010 -0.19100
N 	N 	0.93255 0.24442 0.83460 -0.09300
N 	N 	0.89732 0.26528 0.76790 -0.09500
N 	N 	0.88386 0.19589 0.77050 -0.16400
N 	N 	0.74979 0.27379 0.51280 -0.18600
N 	N 	0.82915 0.14881 0.84950 -0.20500
C 	C 	0.93832 0.13508 0.99500 -0.09500
H 	H 	0.90900 0.12950 0.00340 0.04900
C 	C 	0.96798 0.10757 0.06730 0.05400
H 	H 	0.95790 0.08340 0.12350 -0.00600
C 	C 	0.02395 0.14937 0.97810 0.08900
H 	H 	0.05340 0.15440 0.97200 -0.00500
C 	C 	0.99701 0.17813 0.90340 -0.12500
H 	H 	0.00800 0.20220 0.84880 0.09800
C 	C 	0.95286 0.17101 0.91010 0.04700
C 	C 	0.92390 0.20327 0.83680 0.09400
C 	C 	0.86854 0.23588 0.73050 0.07900
C 	C 	0.82689 0.24661 0.65600 0.05000
C 	C 	0.80750 0.28467 0.70430 -0.13300
H 	H 	0.82010 0.30180 0.78620 0.07400
C 	C 	0.76981 0.29690 0.63120 0.07200
H 	H 	0.75730 0.32270 0.66520 -0.00700
C 	C 	0.76812 0.23664 0.46860 0.06700
H 	H 	0.75450 0.21990 0.38820 -0.02400
C 	C 	0.80640 0.22181 0.53660 -0.13400
H 	H 	0.81810 0.19570 0.50240 0.06100
C 	C 	0.86226 0.15521 0.75000 0.17400
C 	C 	0.80912 0.11096 0.83480 0.09700
H 	H 	0.78580 0.10540 0.90410 -0.02400
C 	C 	0.82135 0.07993 0.72230 -0.19300
H 	H 	0.80650 0.05400 0.71570 0.08400
C 	C 	0.85565 0.08772 0.62020 0.11400
H 	H 	0.86440 0.06720 0.54280 -0.02200
C 	C 	0.87715 0.12642 0.63330 -0.22500
H 	H 	0.90070 0.13270 0.56590 0.11500
Ag	Ag	0.44438 0.43630 0.33931 0.52000
N 	N 	0.36426 0.23963 0.31010 -0.19200
N 	N 	0.49442 0.31745 0.08460 -0.09300
N 	N 	0.51528 0.35268 0.01790 -0.10200
N 	N 	0.44589 0.36614 0.02050 -0.16600
N 	N 	0.52379 0.50021 0.76280 -0.18300
N 	N 	0.39881 0.42085 0.09950 -0.20100
C 	C 	0.38508 0.31168 0.24500 -0.13300
H 	H 	0.37950 0.34100 0.25340 0.06700
C 	C 	0.35757 0.28202 0.31730 0.07900
H 	H 	0.33340 0.29210 0.37350 -0.01400
C 	C 	0.39937 0.22605 0.22810 0.08500
H 	H 	0.40440 0.19660 0.22200 -0.00700
C 	C 	0.42813 0.25299 0.15340 -0.13400
H 	H 	0.45220 0.24200 0.09880 0.09800
C 	C 	0.42101 0.29714 0.16010 0.06000
C 	C 	0.45327 0.32610 0.08680 0.08500
C 	C 	0.48588 0.38146 0.98050 0.09400
C 	C 	0.49661 0.42311 0.90600 0.03800
C 	C 	0.53467 0.44250 0.95430 -0.11100
H 	H 	0.55180 0.42990 0.03620 0.06000
C 	C 	0.54690 0.48019 0.88120 0.06100
H 	H 	0.57270 0.49270 0.91520 -0.00300
C 	C 	0.48664 0.48188 0.71860 0.06300
H 	H 	0.46990 0.49550 0.63820 -0.02200
C 	C 	0.47181 0.44360 0.78660 -0.12500
H 	H 	0.44570 0.43190 0.75240 0.05900
C 	C 	0.40521 0.38774 -0.00000 0.15700
C 	C 	0.36096 0.44088 0.08480 0.07500
H 	H 	0.35540 0.46420 0.15410 -0.01900
C 	C 	0.32993 0.42865 0.97230 -0.16600
H 	H 	0.30400 0.44350 0.96570 0.07600
C 	C 	0.33772 0.39435 0.87020 0.09200
H 	H 	0.31720 0.38560 0.79280 -0.01400
C 	C 	0.37642 0.37285 0.88330 -0.20000
H 	H 	0.38270 0.34930 0.81590 0.10800
Ag	Ag	0.94438 0.93630 0.83931 0.52000
N 	N 	0.86426 0.73963 0.81010 -0.19200
N 	N 	0.99442 0.81745 0.58460 -0.09300
N 	N 	0.01528 0.85268 0.51790 -0.09500
N 	N 	0.94589 0.86614 0.52050 -0.16300
N 	N 	0.02379 0.00021 0.26280 -0.18600
N 	N 	0.89881 0.92085 0.59950 -0.20600
C 	C 	0.88508 0.81168 0.74500 -0.13200
H 	H 	0.87950 0.84100 0.75340 0.06700
C 	C 	0.85757 0.78202 0.81730 0.07900
H 	H 	0.83340 0.79210 0.87350 -0.01400
C 	C 	0.89937 0.72605 0.72810 0.08600
H 	H 	0.90440 0.69660 0.72200 -0.00600
C 	C 	0.92813 0.75299 0.65340 -0.13300
H 	H 	0.95220 0.74200 0.59880 0.10000
C 	C 	0.92101 0.79714 0.66010 0.06100
C 	C 	0.95327 0.82610 0.58680 0.08700
C 	C 	0.98588 0.88146 0.48050 0.07800
C 	C 	0.99661 0.92311 0.40600 0.04900
C 	C 	0.03467 0.94250 0.45430 -0.13300
H 	H 	0.05180 0.92990 0.53620 0.07300
C 	C 	0.04690 0.98019 0.38120 0.07200
H 	H 	0.07270 0.99270 0.41520 -0.00800
C 	C 	0.98664 0.98188 0.21860 0.06700
H 	H 	0.96990 0.99550 0.13820 -0.02400
C 	C 	0.97181 0.94360 0.28660 -0.13400
H 	H 	0.94570 0.93190 0.25240 0.06100
C 	C 	0.90521 0.88774 0.50000 0.17300
C 	C 	0.86096 0.94088 0.58480 0.09600
H 	H 	0.85540 0.96420 0.65410 -0.02500
C 	C 	0.82993 0.92865 0.47230 -0.19300
H 	H 	0.80400 0.94350 0.46570 0.08400
C 	C 	0.83772 0.89435 0.37020 0.11300
H 	H 	0.81720 0.88560 0.29280 -0.02200
C 	C 	0.87642 0.87285 0.38330 -0.22500
H 	H 	0.88270 0.84930 0.31590 0.11500
Ag	Ag	0.05562 0.56370 0.83931 0.52000
N 	N 	0.13574 0.76037 0.81010 -0.19200
N 	N 	0.00558 0.68255 0.58460 -0.09300
N 	N 	0.98472 0.64732 0.51790 -0.09500
N 	N 	0.05411 0.63386 0.52050 -0.16300
N 	N 	0.97621 0.49979 0.26280 -0.18600
N 	N 	0.10119 0.57915 0.59950 -0.20600
C 	C 	0.11492 0.68832 0.74500 -0.13200
H 	H 	0.12050 0.65900 0.75340 0.06700
C 	C 	0.14243 0.71798 0.81730 0.07900
H 	H 	0.16660 0.70790 0.87350 -0.01400
C 	C 	0.10063 0.77395 0.72810 0.08600
H 	H 	0.09560 0.80340 0.72200 -0.00600
C 	C 	0.07187 0.74701 0.65340 -0.13300
H 	H 	0.04780 0.75800 0.59880 0.10000
C 	C 	0.07899 0.70286 0.66010 0.06100
C 	C 	0.04673 0.67390 0.58680 0.08700
C 	C 	0.01412 0.61854 0.48050 0.07800
C 	C 	0.00339 0.57689 0.40600 0.04900
C 	C 	0.96533 0.55750 0.45430 -0.13300
H 	H 	0.94820 0.57010 0.53620 0.07300
C 	C 	0.95310 0.51981 0.38120 0.07200
H 	H 	0.92730 0.50730 0.41520 -0.00800
C 	C 	0.01336 0.51812 0.21860 0.06700
H 	H 	0.03010 0.50450 0.13820 -0.02400
C 	C 	0.02819 0.55640 0.28660 -0.13400
H 	H 	0.05430 0.56810 0.25240 0.06100
C 	C 	0.09479 0.61226 0.50000 0.17300
C 	C 	0.13904 0.55912 0.58480 0.09600
H 	H 	0.14460 0.53580 0.65410 -0.02500
C 	C 	0.17007 0.57135 0.47230 -0.19300
H 	H 	0.19600 0.55650 0.46570 0.08400
C 	C 	0.16228 0.60565 0.37020 0.11300
H 	H 	0.18280 0.61440 0.29280 -0.02200
C 	C 	0.12358 0.62715 0.38330 -0.22500
H 	H 	0.11730 0.65070 0.31590 0.11500
Ag	Ag	0.55562 0.06370 0.33931 0.52000
N 	N 	0.63574 0.26037 0.31010 -0.19200
N 	N 	0.50558 0.18255 0.08460 -0.09300
N 	N 	0.48472 0.14732 0.01790 -0.10200
N 	N 	0.55411 0.13386 0.02050 -0.16600
N 	N 	0.47621 0.99979 0.76280 -0.18300
N 	N 	0.60119 0.07915 0.09950 -0.20100
C 	C 	0.61492 0.18832 0.24500 -0.13300
H 	H 	0.62050 0.15900 0.25340 0.06700
C 	C 	0.64243 0.21798 0.31730 0.07900
H 	H 	0.66660 0.20790 0.37350 -0.01400
C 	C 	0.60063 0.27395 0.22810 0.08500
H 	H 	0.59560 0.30340 0.22200 -0.00700
C 	C 	0.57187 0.24701 0.15340 -0.13400
H 	H 	0.54780 0.25800 0.09880 0.09800
C 	C 	0.57899 0.20286 0.16010 0.06000
C 	C 	0.54673 0.17390 0.08680 0.08500
C 	C 	0.51412 0.11854 0.98050 0.09400
C 	C 	0.50339 0.07689 0.90600 0.03700
C 	C 	0.46533 0.05750 0.95430 -0.11000
H 	H 	0.44820 0.07010 0.03620 0.06000
C 	C 	0.45310 0.01981 0.88120 0.06100
H 	H 	0.42730 0.00730 0.91520 -0.00300
C 	C 	0.51336 0.01812 0.71860 0.06300
H 	H 	0.53010 0.00450 0.63820 -0.02200
C 	C 	0.52819 0.05640 0.78660 -0.12500
H 	H 	0.55430 0.06810 0.75240 0.05900
C 	C 	0.59479 0.11226 -0.00000 0.15700
C 	C 	0.63904 0.05912 0.08480 0.07500
H 	H 	0.64460 0.03580 0.15410 -0.01900
C 	C 	0.67007 0.07135 0.97230 -0.16600
H 	H 	0.69600 0.05650 0.96570 0.07600
C 	C 	0.66228 0.10565 0.87020 0.09100
H 	H 	0.68280 0.11440 0.79280 -0.01400
C 	C 	0.62358 0.12715 0.88330 -0.20000
H 	H 	0.61730 0.15070 0.81590 0.10800
Ag	Ag	0.81370 0.69438 0.91069 0.52000
N 	N 	0.01037 0.61426 0.93990 -0.19200
N 	N 	0.93255 0.74442 0.16540 -0.09300
N 	N 	0.89732 0.76528 0.23210 -0.09500
N 	N 	0.88386 0.69589 0.22950 -0.16300
N 	N 	0.74979 0.77379 0.48720 -0.18600
N 	N 	0.82915 0.64881 0.15050 -0.20600
C 	C 	0.93832 0.63508 0.00500 -0.12800
H 	H 	0.90900 0.62950 0.99660 0.06500
C 	C 	0.96798 0.60757 0.93270 0.07700
H 	H 	0.95790 0.58340 0.87650 -0.01200
C 	C 	0.02395 0.64937 0.02190 0.08700
H 	H 	0.05340 0.65440 0.02800 -0.00600
C 	C 	0.99701 0.67813 0.09660 -0.13200
H 	H 	0.00800 0.70220 0.15120 0.10000
C 	C 	0.95286 0.67101 0.08990 0.05900
C 	C 	0.92390 0.70327 0.16320 0.08800
C 	C 	0.86854 0.73588 0.26950 0.07900
C 	C 	0.82689 0.74661 0.34400 0.04900
C 	C 	0.80750 0.78467 0.29570 -0.13200
H 	H 	0.82010 0.80180 0.21380 0.07300
C 	C 	0.76981 0.79690 0.36880 0.07200
H 	H 	0.75730 0.82270 0.33480 -0.00800
C 	C 	0.76812 0.73664 0.53140 0.06700
H 	H 	0.75450 0.71990 0.61180 -0.02400
C 	C 	0.80640 0.72181 0.46340 -0.13400
H 	H 	0.81810 0.69570 0.49760 0.06100
C 	C 	0.86226 0.65521 0.25000 0.17300
C 	C 	0.80912 0.61096 0.16520 0.09600
H 	H 	0.78580 0.60540 0.09590 -0.02500
C 	C 	0.82135 0.57993 0.27770 -0.19300
H 	H 	0.80650 0.55400 0.28430 0.08400
C 	C 	0.85565 0.58772 0.37980 0.11300
H 	H 	0.86440 0.56720 0.45720 -0.02200
C 	C 	0.87715 0.62642 0.36670 -0.22500
H 	H 	0.90070 0.63270 0.43410 0.11500
Ag	Ag	0.31370 0.19438 0.41069 0.51900
N 	N 	0.51037 0.11426 0.43990 -0.19200
N 	N 	0.43255 0.24442 0.66540 -0.09200
N 	N 	0.39732 0.26528 0.73210 -0.09500
N 	N 	0.38386 0.19589 0.72950 -0.16400
N 	N 	0.24979 0.27379 0.98720 -0.17500
N 	N 	0.32915 0.14881 0.65050 -0.20700
C 	C 	0.43832 0.13508 0.50500 -0.13200
H 	H 	0.40900 0.12950 0.49660 0.06700
C 	C 	0.46798 0.10757 0.43270 0.07900
H 	H 	0.45790 0.08340 0.37650 -0.01400
C 	C 	0.52395 0.14937 0.52190 0.08700
H 	H 	0.55340 0.15440 0.52800 -0.00600
C 	C 	0.49701 0.17813 0.59660 -0.13300
H 	H 	0.50800 0.20220 0.65120 0.10100
C 	C 	0.45286 0.17101 0.58990 0.06100
C 	C 	0.42390 0.20327 0.66320 0.08800
C 	C 	0.36854 0.23588 0.76950 0.08300
C 	C 	0.32689 0.24661 0.84400 0.03800
C 	C 	0.30750 0.28467 0.79570 -0.12200
H 	H 	0.32010 0.30180 0.71380 0.07000
C 	C 	0.26981 0.29690 0.86880 0.06600
H 	H 	0.25730 0.32270 0.83480 -0.00500
C 	C 	0.26812 0.23664 0.03140 0.03700
H 	H 	0.25450 0.21990 0.11180 -0.01500
C 	C 	0.30640 0.22181 0.96340 -0.10800
H 	H 	0.31810 0.19570 0.99760 0.05500
C 	C 	0.36226 0.15521 0.75000 0.17400
C 	C 	0.30912 0.11096 0.66520 0.09700
H 	H 	0.28580 0.10540 0.59590 -0.02500
C 	C 	0.32135 0.07993 0.77770 -0.19400
H 	H 	0.30650 0.05400 0.78430 0.08500
C 	C 	0.35565 0.08772 0.87980 0.11500
H 	H 	0.36440 0.06720 0.95720 -0.02100
C 	C 	0.37715 0.12642 0.86670 -0.22500
H 	H 	0.40070 0.13270 0.93410 0.11800
Ag	Ag	0.68630 0.30562 0.41069 0.51900
N 	N 	0.48963 0.38574 0.43990 -0.19200
N 	N 	0.56745 0.25558 0.66540 -0.09200
N 	N 	0.60268 0.23472 0.73210 -0.09500
N 	N 	0.61614 0.30411 0.72950 -0.16400
N 	N 	0.75021 0.22621 0.98720 -0.17500
N 	N 	0.67085 0.35119 0.65050 -0.20700
C 	C 	0.56168 0.36492 0.50500 -0.13200
H 	H 	0.59100 0.37050 0.49660 0.06700
C 	C 	0.53202 0.39243 0.43270 0.07900
H 	H 	0.54210 0.41660 0.37650 -0.01400
C 	C 	0.47605 0.35063 0.52190 0.08700
H 	H 	0.44660 0.34560 0.52800 -0.00600
C 	C 	0.50299 0.32187 0.59660 -0.13300
H 	H 	0.49200 0.29780 0.65120 0.10100
C 	C 	0.54714 0.32899 0.58990 0.06100
C 	C 	0.57610 0.29673 0.66320 0.08800
C 	C 	0.63146 0.26412 0.76950 0.08300
C 	C 	0.67311 0.25339 0.84400 0.03800
C 	C 	0.69250 0.21533 0.79570 -0.12200
H 	H 	0.67990 0.19820 0.71380 0.07000
C 	C 	0.73019 0.20310 0.86880 0.06600
H 	H 	0.74270 0.17730 0.83480 -0.00500
C 	C 	0.73188 0.26336 0.03140 0.03700
H 	H 	0.74550 0.28010 0.11180 -0.01500
C 	C 	0.69360 0.27819 0.96340 -0.10800
H 	H 	0.68190 0.30430 0.99760 0.05500
C 	C 	0.63774 0.34479 0.75000 0.17400
C 	C 	0.69088 0.38904 0.66520 0.09700
H 	H 	0.71420 0.39460 0.59590 -0.02500
C 	C 	0.67865 0.42007 0.77770 -0.19400
H 	H 	0.69350 0.44600 0.78430 0.08500
C 	C 	0.64435 0.41228 0.87980 0.11500
H 	H 	0.63560 0.43280 0.95720 -0.02100
C 	C 	0.62285 0.37358 0.86670 -0.22500
H 	H 	0.59930 0.36730 0.93410 0.11800
Ag	Ag	0.18630 0.80562 0.91069 0.51900
N 	N 	0.98963 0.88574 0.93990 -0.19200
N 	N 	0.06745 0.75558 0.16540 -0.09300
N 	N 	0.10268 0.73472 0.23210 -0.09500
N 	N 	0.11614 0.80411 0.22950 -0.16300
N 	N 	0.25021 0.72621 0.48720 -0.18600
N 	N 	0.17085 0.85119 0.15050 -0.20600
C 	C 	0.06168 0.86492 0.00500 -0.12700
H 	H 	0.09100 0.87050 0.99660 0.06500
C 	C 	0.03202 0.89243 0.93270 0.07600
H 	H 	0.04210 0.91660 0.87650 -0.01200
C 	C 	0.97605 0.85063 0.02190 0.08700
H 	H 	0.94660 0.84560 0.02800 -0.00600
C 	C 	0.00299 0.82187 0.09660 -0.13200
H 	H 	0.99200 0.79780 0.15120 0.09900
C 	C 	0.04714 0.82899 0.08990 0.05900
C 	C 	0.07610 0.79673 0.16320 0.08800
C 	C 	0.13146 0.76412 0.26950 0.07900
C 	C 	0.17311 0.75339 0.34400 0.04900
C 	C 	0.19250 0.71533 0.29570 -0.13200
H 	H 	0.17990 0.69820 0.21380 0.07300
C 	C 	0.23019 0.70310 0.36880 0.07200
H 	H 	0.24270 0.67730 0.33480 -0.00800
C 	C 	0.23188 0.76336 0.53140 0.06700
H 	H 	0.24550 0.78010 0.61180 -0.02400
C 	C 	0.19360 0.77819 0.46340 -0.13400
H 	H 	0.18190 0.80430 0.49760 0.06100
C 	C 	0.13774 0.84479 0.25000 0.17300
C 	C 	0.19088 0.88904 0.16520 0.09600
H 	H 	0.21420 0.89460 0.09590 -0.02500
C 	C 	0.17865 0.92007 0.27770 -0.19300
H 	H 	0.19350 0.94600 0.28430 0.08400
C 	C 	0.14435 0.91228 0.37980 0.11300
H 	H 	0.13560 0.93280 0.45720 -0.02200
C 	C 	0.12285 0.87358 0.36670 -0.22500
H 	H 	0.09930 0.86730 0.43410 0.11500
Ag	Ag	0.55562 0.56370 0.66069 0.52000
N 	N 	0.63574 0.76037 0.68990 -0.19200
N 	N 	0.50558 0.68255 0.91540 -0.09300
N 	N 	0.48472 0.64732 0.98210 -0.09400
N 	N 	0.55411 0.63386 0.97950 -0.16100
N 	N 	0.47621 0.49979 0.23720 -0.18800
N 	N 	0.60119 0.57915 0.90050 -0.20600
C 	C 	0.61492 0.68832 0.75500 -0.13200
H 	H 	0.62050 0.65900 0.74660 0.06800
C 	C 	0.64243 0.71798 0.68270 0.08000
H 	H 	0.66660 0.70790 0.62650 -0.01400
C 	C 	0.60063 0.77395 0.77190 0.08600
H 	H 	0.59560 0.80340 0.77800 -0.00600
C 	C 	0.57187 0.74701 0.84660 -0.13300
H 	H 	0.54780 0.75800 0.90120 0.10000
C 	C 	0.57899 0.70286 0.83990 0.06100
C 	C 	0.54673 0.67390 0.91320 0.08700
C 	C 	0.51412 0.61854 0.01950 0.07400
C 	C 	0.50339 0.57689 0.09400 0.05400
C 	C 	0.46533 0.55750 0.04570 -0.14300
H 	H 	0.44820 0.57010 0.96380 0.07900
C 	C 	0.45310 0.51981 0.11880 0.07600
H 	H 	0.42730 0.50730 0.08480 -0.01000
C 	C 	0.51336 0.51812 0.28140 0.06900
H 	H 	0.53010 0.50450 0.36180 -0.02400
C 	C 	0.52819 0.55640 0.21340 -0.13800
H 	H 	0.55430 0.56810 0.24760 0.06200
C 	C 	0.59479 0.61226 -0.00000 0.17000
C 	C 	0.63904 0.55912 0.91520 0.10000
H 	H 	0.64460 0.53580 0.84590 -0.02600
C 	C 	0.67007 0.57135 0.02770 -0.19900
H 	H 	0.69600 0.55650 0.03430 0.08500
C 	C 	0.66228 0.60565 0.12980 0.11500
H 	H 	0.68280 0.61440 0.20720 -0.02300
C 	C 	0.62358 0.62715 0.11670 -0.22500
H 	H 	0.61730 0.65070 0.18410 0.11500
Ag	Ag	0.05562 0.06370 0.16069 0.51900
N 	N 	0.13574 0.26037 0.18990 -0.19300
N 	N 	0.00558 0.18255 0.41540 -0.09300
N 	N 	0.98472 0.14732 0.48210 -0.09500
N 	N 	0.05411 0.13386 0.47950 -0.16300
N 	N 	0.97621 0.99979 0.73720 -0.18600
N 	N 	0.10119 0.07915 0.40050 -0.20700
C 	C 	0.11492 0.18832 0.25500 -0.13300
H 	H 	0.12050 0.15900 0.24660 0.06700
C 	C 	0.14243 0.21798 0.18270 0.07900
H 	H 	0.16660 0.20790 0.12650 -0.01500
C 	C 	0.10063 0.27395 0.27190 0.08500
H 	H 	0.09560 0.30340 0.27800 -0.00700
C 	C 	0.07187 0.24701 0.34660 -0.13400
H 	H 	0.04780 0.25800 0.40120 0.09900
C 	C 	0.07899 0.20286 0.33990 0.06000
C 	C 	0.04673 0.17390 0.41320 0.08700
C 	C 	0.01412 0.11854 0.51950 0.07800
C 	C 	0.00339 0.07689 0.59400 0.04900
C 	C 	0.96533 0.05750 0.54570 -0.13200
H 	H 	0.94820 0.07010 0.46380 0.07200
C 	C 	0.95310 0.01981 0.61880 0.07200
H 	H 	0.92730 0.00730 0.58480 -0.00800
C 	C 	0.01336 0.01812 0.78140 0.06800
H 	H 	0.03010 0.00450 0.86180 -0.02300
C 	C 	0.02819 0.05640 0.71340 -0.13400
H 	H 	0.05430 0.06810 0.74760 0.06200
C 	C 	0.09479 0.11226 0.50000 0.17200
C 	C 	0.13904 0.05912 0.41520 0.09600
H 	H 	0.14460 0.03580 0.34590 -0.02500
C 	C 	0.17007 0.07135 0.52770 -0.19300
H 	H 	0.19600 0.05650 0.53430 0.08400
C 	C 	0.16228 0.10565 0.62980 0.11300
H 	H 	0.18280 0.11440 0.70720 -0.02100
C 	C 	0.12358 0.12715 0.61670 -0.22500
H 	H 	0.11730 0.15070 0.68410 0.11500
Ag	Ag	0.94438 0.43630 0.16069 0.51900
N 	N 	0.86426 0.23963 0.18990 -0.19300
N 	N 	0.99442 0.31745 0.41540 -0.09300
N 	N 	0.01528 0.35268 0.48210 -0.09500
N 	N 	0.94589 0.36614 0.47950 -0.16300
N 	N 	0.02379 0.50021 0.73720 -0.18600
N 	N 	0.89881 0.42085 0.40050 -0.20700
C 	C 	0.88508 0.31168 0.25500 -0.13300
H 	H 	0.87950 0.34100 0.24660 0.06700
C 	C 	0.85757 0.28202 0.18270 0.07900
H 	H 	0.83340 0.29210 0.12650 -0.01500
C 	C 	0.89937 0.22605 0.27190 0.08500
H 	H 	0.90440 0.19660 0.27800 -0.00700
C 	C 	0.92813 0.25299 0.34660 -0.13400
H 	H 	0.95220 0.24200 0.40120 0.09900
C 	C 	0.92101 0.29714 0.33990 0.06000
C 	C 	0.95327 0.32610 0.41320 0.08700
C 	C 	0.98588 0.38146 0.51950 0.07800
C 	C 	0.99661 0.42311 0.59400 0.04900
C 	C 	0.03467 0.44250 0.54570 -0.13200
H 	H 	0.05180 0.42990 0.46380 0.07200
C 	C 	0.04690 0.48019 0.61880 0.07200
H 	H 	0.07270 0.49270 0.58480 -0.00800
C 	C 	0.98664 0.48188 0.78140 0.06800
H 	H 	0.96990 0.49550 0.86180 -0.02300
C 	C 	0.97181 0.44360 0.71340 -0.13400
H 	H 	0.94570 0.43190 0.74760 0.06200
C 	C 	0.90521 0.38774 0.50000 0.17200
C 	C 	0.86096 0.44088 0.41520 0.09600
H 	H 	0.85540 0.46420 0.34590 -0.02500
C 	C 	0.82993 0.42865 0.52770 -0.19300
H 	H 	0.80400 0.44350 0.53430 0.08400
C 	C 	0.83772 0.39435 0.62980 0.11300
H 	H 	0.81720 0.38560 0.70720 -0.02100
C 	C 	0.87642 0.37285 0.61670 -0.22500
H 	H 	0.88270 0.34930 0.68410 0.11500
Ag	Ag	0.44438 0.93630 0.66069 0.52000
N 	N 	0.36426 0.73963 0.68990 -0.19200
N 	N 	0.49442 0.81745 0.91540 -0.09300
N 	N 	0.51528 0.85268 0.98210 -0.09400
N 	N 	0.44589 0.86614 0.97950 -0.16100
N 	N 	0.52379 0.00021 0.23720 -0.18800
N 	N 	0.39881 0.92085 0.90050 -0.20600
C 	C 	0.38508 0.81168 0.75500 -0.13200
H 	H 	0.37950 0.84100 0.74660 0.06800
C 	C 	0.35757 0.78202 0.68270 0.08000
H 	H 	0.33340 0.79210 0.62650 -0.01400
C 	C 	0.39937 0.72605 0.77190 0.08600
H 	H 	0.40440 0.69660 0.77800 -0.00600
C 	C 	0.42813 0.75299 0.84660 -0.13300
H 	H 	0.45220 0.74200 0.90120 0.10000
C 	C 	0.42101 0.79714 0.83990 0.06100
C 	C 	0.45327 0.82610 0.91320 0.08700
C 	C 	0.48588 0.88146 0.01950 0.07400
C 	C 	0.49661 0.92311 0.09400 0.05400
C 	C 	0.53467 0.94250 0.04570 -0.14300
H 	H 	0.55180 0.92990 0.96380 0.07800
C 	C 	0.54690 0.98019 0.11880 0.07600
H 	H 	0.57270 0.99270 0.08480 -0.01000
C 	C 	0.48664 0.98188 0.28140 0.06900
H 	H 	0.46990 0.99550 0.36180 -0.02400
C 	C 	0.47181 0.94360 0.21340 -0.13800
H 	H 	0.44570 0.93190 0.24760 0.06200
C 	C 	0.40521 0.88774 -0.00000 0.17000
C 	C 	0.36096 0.94088 0.91520 0.10000
H 	H 	0.35540 0.96420 0.84590 -0.02600
C 	C 	0.32993 0.92865 0.02770 -0.19800
H 	H 	0.30400 0.94350 0.03430 0.08500
C 	C 	0.33772 0.89435 0.12980 0.11500
H 	H 	0.31720 0.88560 0.20720 -0.02200
C 	C 	0.37642 0.87285 0.11670 -0.22500
H 	H 	0.38270 0.84930 0.18410 0.11500
