data_crystal

_cell_length_a 31.37000
_cell_length_b 31.37000
_cell_length_c 7.84670
_cell_angle_alpha 90.00000
_cell_angle_beta  90.00000
_cell_angle_gamma 90.00000

_symmetry_space_group_name_	'P 1'
_symmetry_space_group_name_H-M	'P 1'

loop_
_symmetry_equiv_pos_as_xyz
  x,y,z

loop_
_atom_site_label
_atom_site_type_symbol
_atom_site_fract_x
_atom_site_fract_y
_atom_site_fract_z
_atom_site_charge
Ag	Ag	0.81390 0.79947 0.92353 0.52400
N 	N 	0.75126 0.72461 0.48620 -0.19200
N 	N 	0.89850 0.73337 0.23170 -0.09200
N 	N 	0.93303 0.75465 0.16820 -0.09100
N 	N 	0.88425 0.80214 0.23150 -0.16300
N 	N 	0.00853 0.88563 0.94320 -0.19400
N 	N 	0.83095 0.84852 0.14080 -0.21100
C 	C 	0.80955 0.71238 0.30030 -0.14200
H 	H 	0.82280 0.69470 0.22140 0.07600
C 	C 	0.77243 0.70055 0.37290 0.07900
H 	H 	0.76090 0.67430 0.34290 -0.01100
C 	C 	0.76859 0.76199 0.52500 0.07400
H 	H 	0.75420 0.77940 0.60180 -0.02600
C 	C 	0.80637 0.77640 0.45870 -0.14400
H 	H 	0.81730 0.80280 0.49070 0.06700
C 	C 	0.82787 0.75120 0.34400 0.05400
C 	C 	0.86923 0.76181 0.26950 0.07200
C 	C 	0.92423 0.79558 0.16690 0.08800
C 	C 	0.95247 0.82765 0.09380 0.06000
C 	C 	0.99610 0.82084 0.09640 -0.13000
H 	H 	0.00730 0.79670 0.14900 0.09900
C 	C 	0.02266 0.84995 0.02070 0.08700
H 	H 	0.05190 0.84480 0.02290 -0.00300
C 	C 	0.96662 0.89173 0.94140 0.07800
H 	H 	0.95620 0.91610 0.88840 -0.01500
C 	C 	0.93771 0.86422 0.01300 -0.12900
H 	H 	0.90870 0.87000 0.00750 0.07100
C 	C 	0.86215 0.84191 0.25030 0.17500
C 	C 	0.87489 0.87022 0.37250 -0.23000
H 	H 	0.89730 0.86410 0.44630 0.11500
C 	C 	0.85297 0.90833 0.38140 0.12200
H 	H 	0.86010 0.92850 0.46350 -0.02400
C 	C 	0.82096 0.91611 0.26960 -0.20100
H 	H 	0.80630 0.94190 0.27270 0.08800
C 	C 	0.81049 0.88571 0.15260 0.10300
H 	H 	0.78810 0.89110 0.07790 -0.02600
Ag	Ag	0.31390 0.29947 0.42353 0.52500
N 	N 	0.25126 0.22461 0.98620 -0.18700
N 	N 	0.39850 0.23337 0.73170 -0.09300
N 	N 	0.43303 0.25465 0.66820 -0.09200
N 	N 	0.38425 0.30214 0.73150 -0.16300
N 	N 	0.50853 0.38563 0.44320 -0.19300
N 	N 	0.33095 0.34852 0.64080 -0.21200
C 	C 	0.30955 0.21238 0.80030 -0.13700
H 	H 	0.32280 0.19470 0.72140 0.07400
C 	C 	0.27243 0.20055 0.87290 0.07600
H 	H 	0.26090 0.17430 0.84290 -0.00900
C 	C 	0.26859 0.26199 0.02500 0.05900
H 	H 	0.25420 0.27940 0.10180 -0.02100
C 	C 	0.30637 0.27640 0.95870 -0.13000
H 	H 	0.31730 0.30280 0.99070 0.06300
C 	C 	0.32787 0.25120 0.84400 0.04800
C 	C 	0.36923 0.26181 0.76950 0.07400
C 	C 	0.42423 0.29558 0.66690 0.08700
C 	C 	0.45247 0.32765 0.59380 0.06200
C 	C 	0.49610 0.32084 0.59640 -0.13100
H 	H 	0.50730 0.29670 0.64900 0.09900
C 	C 	0.52266 0.34995 0.52070 0.08400
H 	H 	0.55190 0.34480 0.52290 -0.00300
C 	C 	0.46662 0.39173 0.44140 0.08500
H 	H 	0.45620 0.41610 0.38840 -0.01700
C 	C 	0.43771 0.36422 0.51300 -0.13700
H 	H 	0.40870 0.37000 0.50750 0.07300
C 	C 	0.36215 0.34191 0.75030 0.17600
C 	C 	0.37489 0.37022 0.87250 -0.23000
H 	H 	0.39730 0.36410 0.94630 0.11600
C 	C 	0.35297 0.40833 0.88140 0.12200
H 	H 	0.36010 0.42850 0.96350 -0.02400
C 	C 	0.32096 0.41611 0.76960 -0.20100
H 	H 	0.30630 0.44190 0.77270 0.08800
C 	C 	0.31049 0.38571 0.65260 0.10400
H 	H 	0.28810 0.39110 0.57790 -0.02700
Ag	Ag	0.68610 0.20053 0.42353 0.52500
N 	N 	0.74874 0.27539 0.98620 -0.18700
N 	N 	0.60150 0.26663 0.73170 -0.09300
N 	N 	0.56697 0.24535 0.66820 -0.09200
N 	N 	0.61575 0.19786 0.73150 -0.16300
N 	N 	0.49147 0.11437 0.44320 -0.19300
N 	N 	0.66905 0.15148 0.64080 -0.21200
C 	C 	0.69045 0.28762 0.80030 -0.13700
H 	H 	0.67720 0.30530 0.72140 0.07400
C 	C 	0.72757 0.29945 0.87290 0.07600
H 	H 	0.73910 0.32570 0.84290 -0.00900
C 	C 	0.73141 0.23801 0.02500 0.05900
H 	H 	0.74580 0.22060 0.10180 -0.02100
C 	C 	0.69363 0.22360 0.95870 -0.13000
H 	H 	0.68270 0.19720 0.99070 0.06300
C 	C 	0.67213 0.24880 0.84400 0.04800
C 	C 	0.63077 0.23819 0.76950 0.07400
C 	C 	0.57577 0.20442 0.66690 0.08700
C 	C 	0.54753 0.17235 0.59380 0.06200
C 	C 	0.50390 0.17916 0.59640 -0.13100
H 	H 	0.49270 0.20330 0.64900 0.09900
C 	C 	0.47734 0.15005 0.52070 0.08400
H 	H 	0.44810 0.15520 0.52290 -0.00300
C 	C 	0.53338 0.10827 0.44140 0.08500
H 	H 	0.54380 0.08390 0.38840 -0.01700
C 	C 	0.56229 0.13578 0.51300 -0.13700
H 	H 	0.59130 0.13000 0.50750 0.07300
C 	C 	0.63785 0.15809 0.75030 0.17600
C 	C 	0.62511 0.12978 0.87250 -0.23000
H 	H 	0.60270 0.13590 0.94630 0.11700
C 	C 	0.64703 0.09167 0.88140 0.12200
H 	H 	0.63990 0.07150 0.96350 -0.02400
C 	C 	0.67904 0.08389 0.76960 -0.20100
H 	H 	0.69370 0.05810 0.77270 0.08800
C 	C 	0.68951 0.11429 0.65260 0.10400
H 	H 	0.71190 0.10890 0.57790 -0.02700
Ag	Ag	0.18610 0.70053 0.92353 0.52300
N 	N 	0.24874 0.77539 0.48620 -0.19300
N 	N 	0.10150 0.76663 0.23170 -0.09300
N 	N 	0.06697 0.74535 0.16820 -0.09200
N 	N 	0.11575 0.69786 0.23150 -0.16300
N 	N 	0.99147 0.61437 0.94320 -0.19400
N 	N 	0.16905 0.65148 0.14080 -0.21100
C 	C 	0.19045 0.78762 0.30030 -0.14200
H 	H 	0.17720 0.80530 0.22140 0.07600
C 	C 	0.22757 0.79945 0.37290 0.07900
H 	H 	0.23910 0.82570 0.34290 -0.01100
C 	C 	0.23141 0.73801 0.52500 0.07400
H 	H 	0.24580 0.72060 0.60180 -0.02600
C 	C 	0.19363 0.72360 0.45870 -0.14400
H 	H 	0.18270 0.69720 0.49070 0.06700
C 	C 	0.17213 0.74880 0.34400 0.05400
C 	C 	0.13077 0.73819 0.26950 0.07200
C 	C 	0.07577 0.70442 0.16690 0.08800
C 	C 	0.04753 0.67235 0.09380 0.06000
C 	C 	0.00390 0.67916 0.09640 -0.13000
H 	H 	0.99270 0.70330 0.14900 0.09900
C 	C 	0.97734 0.65005 0.02070 0.08700
H 	H 	0.94810 0.65520 0.02290 -0.00300
C 	C 	0.03338 0.60827 0.94140 0.07800
H 	H 	0.04380 0.58390 0.88840 -0.01500
C 	C 	0.06229 0.63578 0.01300 -0.12900
H 	H 	0.09130 0.63000 0.00750 0.07100
C 	C 	0.13785 0.65809 0.25030 0.17500
C 	C 	0.12511 0.62978 0.37250 -0.23000
H 	H 	0.10270 0.63590 0.44630 0.11500
C 	C 	0.14703 0.59167 0.38140 0.12200
H 	H 	0.13990 0.57150 0.46350 -0.02400
C 	C 	0.17904 0.58389 0.26960 -0.20100
H 	H 	0.19370 0.55810 0.27270 0.08800
C 	C 	0.18951 0.61429 0.15260 0.10300
H 	H 	0.21190 0.60890 0.07790 -0.02600
Ag	Ag	0.95053 0.06390 0.17353 0.52500
N 	N 	0.02539 0.00126 0.73620 -0.19300
N 	N 	0.01663 0.14850 0.48170 -0.09300
N 	N 	0.99535 0.18303 0.41820 -0.09300
N 	N 	0.94786 0.13425 0.48150 -0.16300
N 	N 	0.86437 0.25853 0.19320 -0.19400
N 	N 	0.90148 0.08095 0.39080 -0.21200
C 	C 	0.03762 0.05955 0.55030 -0.14200
H 	H 	0.05530 0.07280 0.47140 0.07500
C 	C 	0.04945 0.02243 0.62290 0.07900
H 	H 	0.07570 0.01090 0.59290 -0.01100
C 	C 	0.98801 0.01859 0.77500 0.07400
H 	H 	0.97060 0.00420 0.85180 -0.02500
C 	C 	0.97360 0.05637 0.70870 -0.14300
H 	H 	0.94720 0.06730 0.74070 0.06700
C 	C 	0.99880 0.07787 0.59400 0.05300
C 	C 	0.98819 0.11923 0.51950 0.07100
C 	C 	0.95442 0.17423 0.41690 0.08700
C 	C 	0.92235 0.20247 0.34380 0.06100
C 	C 	0.92916 0.24610 0.34640 -0.13100
H 	H 	0.95330 0.25730 0.39900 0.09900
C 	C 	0.90005 0.27266 0.27070 0.08300
H 	H 	0.90520 0.30190 0.27290 -0.00400
C 	C 	0.85827 0.21662 0.19140 0.08500
H 	H 	0.83390 0.20620 0.13840 -0.01800
C 	C 	0.88578 0.18771 0.26300 -0.13700
H 	H 	0.88000 0.15870 0.25750 0.07200
C 	C 	0.90809 0.11215 0.50030 0.17500
C 	C 	0.87978 0.12489 0.62250 -0.23000
H 	H 	0.88590 0.14730 0.69630 0.11600
C 	C 	0.84167 0.10297 0.63140 0.12200
H 	H 	0.82150 0.11010 0.71350 -0.02400
C 	C 	0.83389 0.07096 0.51960 -0.20100
H 	H 	0.80810 0.05630 0.52270 0.08800
C 	C 	0.86429 0.06049 0.40260 0.10300
H 	H 	0.85890 0.03810 0.32790 -0.02700
Ag	Ag	0.45053 0.56390 0.67353 0.52500
N 	N 	0.52539 0.50126 0.23620 -0.19200
N 	N 	0.51663 0.64850 0.98170 -0.09600
N 	N 	0.49535 0.68303 0.91820 -0.09300
N 	N 	0.44786 0.63425 0.98150 -0.16600
N 	N 	0.36437 0.75853 0.69320 -0.19400
N 	N 	0.40148 0.58095 0.89080 -0.21300
C 	C 	0.53762 0.55955 0.05030 -0.13700
H 	H 	0.55530 0.57280 0.97140 0.07300
C 	C 	0.54945 0.52243 0.12290 0.07600
H 	H 	0.57570 0.51090 0.09290 -0.01000
C 	C 	0.48801 0.51859 0.27500 0.07200
H 	H 	0.47060 0.50420 0.35180 -0.02500
C 	C 	0.47360 0.55637 0.20870 -0.14100
H 	H 	0.44720 0.56730 0.24070 0.06600
C 	C 	0.49880 0.57787 0.09400 0.05000
C 	C 	0.48819 0.61923 0.01950 0.07600
C 	C 	0.45442 0.67423 0.91690 0.08600
C 	C 	0.42235 0.70247 0.84380 0.06100
C 	C 	0.42916 0.74610 0.84640 -0.13100
H 	H 	0.45330 0.75730 0.89900 0.09800
C 	C 	0.40005 0.77266 0.77070 0.08300
H 	H 	0.40520 0.80190 0.77290 -0.00300
C 	C 	0.35827 0.71662 0.69140 0.08500
H 	H 	0.33390 0.70620 0.63840 -0.01700
C 	C 	0.38578 0.68771 0.76300 -0.13700
H 	H 	0.38000 0.65870 0.75750 0.07200
C 	C 	0.40809 0.61215 0.00030 0.17800
C 	C 	0.37978 0.62489 0.12250 -0.23000
H 	H 	0.38590 0.64730 0.19630 0.11600
C 	C 	0.34167 0.60297 0.13140 0.12100
H 	H 	0.32150 0.61010 0.21350 -0.02400
C 	C 	0.33389 0.57096 0.01960 -0.19800
H 	H 	0.30810 0.55630 0.02270 0.08700
C 	C 	0.36429 0.56049 0.90260 0.10000
H 	H 	0.35890 0.53810 0.82790 -0.02600
Ag	Ag	0.54947 0.93610 0.67353 0.52500
N 	N 	0.47461 0.99874 0.23620 -0.19200
N 	N 	0.48337 0.85150 0.98170 -0.09600
N 	N 	0.50465 0.81697 0.91820 -0.09300
N 	N 	0.55214 0.86575 0.98150 -0.16600
N 	N 	0.63563 0.74147 0.69320 -0.19400
N 	N 	0.59852 0.91905 0.89080 -0.21300
C 	C 	0.46238 0.94045 0.05030 -0.13600
H 	H 	0.44470 0.92720 0.97140 0.07200
C 	C 	0.45055 0.97757 0.12290 0.07500
H 	H 	0.42430 0.98910 0.09290 -0.01000
C 	C 	0.51199 0.98141 0.27500 0.07200
H 	H 	0.52940 0.99580 0.35180 -0.02500
C 	C 	0.52640 0.94363 0.20870 -0.14100
H 	H 	0.55280 0.93270 0.24070 0.06600
C 	C 	0.50120 0.92213 0.09400 0.05000
C 	C 	0.51181 0.88077 0.01950 0.07600
C 	C 	0.54558 0.82577 0.91690 0.08600
C 	C 	0.57765 0.79753 0.84380 0.06100
C 	C 	0.57084 0.75390 0.84640 -0.13100
H 	H 	0.54670 0.74270 0.89900 0.09800
C 	C 	0.59995 0.72734 0.77070 0.08300
H 	H 	0.59480 0.69810 0.77290 -0.00300
C 	C 	0.64173 0.78338 0.69140 0.08500
H 	H 	0.66610 0.79380 0.63840 -0.01700
C 	C 	0.61422 0.81229 0.76300 -0.13700
H 	H 	0.62000 0.84130 0.75750 0.07200
C 	C 	0.59191 0.88785 0.00030 0.17900
C 	C 	0.62022 0.87511 0.12250 -0.23000
H 	H 	0.61410 0.85270 0.19630 0.11600
C 	C 	0.65833 0.89703 0.13140 0.12100
H 	H 	0.67850 0.88990 0.21350 -0.02400
C 	C 	0.66611 0.92904 0.01960 -0.19700
H 	H 	0.69190 0.94370 0.02270 0.08700
C 	C 	0.63571 0.93951 0.90260 0.10000
H 	H 	0.64110 0.96190 0.82790 -0.02600
Ag	Ag	0.04947 0.43610 0.17353 0.52500
N 	N 	0.97461 0.49874 0.73620 -0.19300
N 	N 	0.98337 0.35150 0.48170 -0.09300
N 	N 	0.00465 0.31697 0.41820 -0.09300
N 	N 	0.05214 0.36575 0.48150 -0.16300
N 	N 	0.13563 0.24147 0.19320 -0.19400
N 	N 	0.09852 0.41905 0.39080 -0.21200
C 	C 	0.96238 0.44045 0.55030 -0.14200
H 	H 	0.94470 0.42720 0.47140 0.07600
C 	C 	0.95055 0.47757 0.62290 0.07900
H 	H 	0.92430 0.48910 0.59290 -0.01100
C 	C 	0.01199 0.48141 0.77500 0.07400
H 	H 	0.02940 0.49580 0.85180 -0.02600
C 	C 	0.02640 0.44363 0.70870 -0.14400
H 	H 	0.05280 0.43270 0.74070 0.06700
C 	C 	0.00120 0.42213 0.59400 0.05400
C 	C 	0.01181 0.38077 0.51950 0.07100
C 	C 	0.04558 0.32577 0.41690 0.08700
C 	C 	0.07765 0.29753 0.34380 0.06100
C 	C 	0.07084 0.25390 0.34640 -0.13100
H 	H 	0.04670 0.24270 0.39900 0.09900
C 	C 	0.09995 0.22734 0.27070 0.08300
H 	H 	0.09480 0.19810 0.27290 -0.00400
C 	C 	0.14173 0.28338 0.19140 0.08500
H 	H 	0.16610 0.29380 0.13840 -0.01800
C 	C 	0.11422 0.31229 0.26300 -0.13700
H 	H 	0.12000 0.34130 0.25750 0.07200
C 	C 	0.09191 0.38785 0.50030 0.17500
C 	C 	0.12022 0.37511 0.62250 -0.23000
H 	H 	0.11410 0.35270 0.69630 0.11600
C 	C 	0.15833 0.39703 0.63140 0.12200
H 	H 	0.17850 0.38990 0.71350 -0.02400
C 	C 	0.16611 0.42904 0.51960 -0.20100
H 	H 	0.19190 0.44370 0.52270 0.08800
C 	C 	0.13571 0.43951 0.40260 0.10300
H 	H 	0.14110 0.46190 0.32790 -0.02700
Ag	Ag	0.18610 0.20053 0.07647 0.52300
N 	N 	0.24874 0.27539 0.51380 -0.19300
N 	N 	0.10150 0.26663 0.76830 -0.09300
N 	N 	0.06697 0.24535 0.83180 -0.09200
N 	N 	0.11575 0.19786 0.76850 -0.16300
N 	N 	0.99147 0.11437 0.05680 -0.19400
N 	N 	0.16905 0.15148 0.85920 -0.21100
C 	C 	0.19045 0.28762 0.69970 -0.14200
H 	H 	0.17720 0.30530 0.77860 0.07600
C 	C 	0.22757 0.29945 0.62710 0.07900
H 	H 	0.23910 0.32570 0.65710 -0.01100
C 	C 	0.23141 0.23801 0.47500 0.07400
H 	H 	0.24580 0.22060 0.39820 -0.02600
C 	C 	0.19363 0.22360 0.54130 -0.14400
H 	H 	0.18270 0.19720 0.50930 0.06700
C 	C 	0.17213 0.24880 0.65600 0.05400
C 	C 	0.13077 0.23819 0.73050 0.07200
C 	C 	0.07577 0.20442 0.83310 0.08800
C 	C 	0.04753 0.17235 0.90620 0.06000
C 	C 	0.00390 0.17916 0.90360 -0.13000
H 	H 	0.99270 0.20330 0.85100 0.09900
C 	C 	0.97734 0.15005 0.97930 0.08700
H 	H 	0.94810 0.15520 0.97710 -0.00300
C 	C 	0.03338 0.10827 0.05860 0.07800
H 	H 	0.04380 0.08390 0.11160 -0.01500
C 	C 	0.06229 0.13578 0.98700 -0.12900
H 	H 	0.09130 0.13000 0.99250 0.07100
C 	C 	0.13785 0.15809 0.74970 0.17500
C 	C 	0.12511 0.12978 0.62750 -0.23000
H 	H 	0.10270 0.13590 0.55370 0.11500
C 	C 	0.14703 0.09167 0.61860 0.12200
H 	H 	0.13990 0.07150 0.53650 -0.02400
C 	C 	0.17904 0.08389 0.73040 -0.20100
H 	H 	0.19370 0.05810 0.72730 0.08800
C 	C 	0.18951 0.11429 0.84740 0.10300
H 	H 	0.21190 0.10890 0.92210 -0.02600
Ag	Ag	0.68610 0.70053 0.57647 0.52500
N 	N 	0.74874 0.77539 0.01380 -0.18700
N 	N 	0.60150 0.76663 0.26830 -0.09300
N 	N 	0.56697 0.74535 0.33180 -0.09200
N 	N 	0.61575 0.69786 0.26850 -0.16300
N 	N 	0.49147 0.61437 0.55680 -0.19300
N 	N 	0.66905 0.65148 0.35920 -0.21200
C 	C 	0.69045 0.78762 0.19970 -0.13700
H 	H 	0.67720 0.80530 0.27860 0.07400
C 	C 	0.72757 0.79945 0.12710 0.07600
H 	H 	0.73910 0.82570 0.15710 -0.00900
C 	C 	0.73141 0.73801 0.97500 0.05900
H 	H 	0.74580 0.72060 0.89820 -0.02100
C 	C 	0.69363 0.72360 0.04130 -0.13000
H 	H 	0.68270 0.69720 0.00930 0.06300
C 	C 	0.67213 0.74880 0.15600 0.04800
C 	C 	0.63077 0.73819 0.23050 0.07400
C 	C 	0.57577 0.70442 0.33310 0.08700
C 	C 	0.54753 0.67235 0.40620 0.06200
C 	C 	0.50390 0.67916 0.40360 -0.13100
H 	H 	0.49270 0.70330 0.35100 0.09900
C 	C 	0.47734 0.65005 0.47930 0.08400
H 	H 	0.44810 0.65520 0.47710 -0.00300
C 	C 	0.53338 0.60827 0.55860 0.08500
H 	H 	0.54380 0.58390 0.61160 -0.01700
C 	C 	0.56229 0.63578 0.48700 -0.13700
H 	H 	0.59130 0.63000 0.49250 0.07300
C 	C 	0.63785 0.65809 0.24970 0.17600
C 	C 	0.62511 0.62978 0.12750 -0.23000
H 	H 	0.60270 0.63590 0.05370 0.11600
C 	C 	0.64703 0.59167 0.11860 0.12200
H 	H 	0.63990 0.57150 0.03650 -0.02400
C 	C 	0.67904 0.58389 0.23040 -0.20100
H 	H 	0.69370 0.55810 0.22730 0.08800
C 	C 	0.68951 0.61429 0.34740 0.10400
H 	H 	0.71190 0.60890 0.42210 -0.02700
Ag	Ag	0.31390 0.79947 0.57647 0.52500
N 	N 	0.25126 0.72461 0.01380 -0.18700
N 	N 	0.39850 0.73337 0.26830 -0.09300
N 	N 	0.43303 0.75465 0.33180 -0.09200
N 	N 	0.38425 0.80214 0.26850 -0.16300
N 	N 	0.50853 0.88563 0.55680 -0.19300
N 	N 	0.33095 0.84852 0.35920 -0.21200
C 	C 	0.30955 0.71238 0.19970 -0.13700
H 	H 	0.32280 0.69470 0.27860 0.07400
C 	C 	0.27243 0.70055 0.12710 0.07600
H 	H 	0.26090 0.67430 0.15710 -0.00900
C 	C 	0.26859 0.76199 0.97500 0.05900
H 	H 	0.25420 0.77940 0.89820 -0.02100
C 	C 	0.30637 0.77640 0.04130 -0.13000
H 	H 	0.31730 0.80280 0.00930 0.06300
C 	C 	0.32787 0.75120 0.15600 0.04800
C 	C 	0.36923 0.76181 0.23050 0.07400
C 	C 	0.42423 0.79558 0.33310 0.08700
C 	C 	0.45247 0.82765 0.40620 0.06200
C 	C 	0.49610 0.82084 0.40360 -0.13100
H 	H 	0.50730 0.79670 0.35100 0.09900
C 	C 	0.52266 0.84995 0.47930 0.08400
H 	H 	0.55190 0.84480 0.47710 -0.00300
C 	C 	0.46662 0.89173 0.55860 0.08500
H 	H 	0.45620 0.91610 0.61160 -0.01700
C 	C 	0.43771 0.86422 0.48700 -0.13700
H 	H 	0.40870 0.87000 0.49250 0.07300
C 	C 	0.36215 0.84191 0.24970 0.17600
C 	C 	0.37489 0.87022 0.12750 -0.23000
H 	H 	0.39730 0.86410 0.05370 0.11700
C 	C 	0.35297 0.90833 0.11860 0.12200
H 	H 	0.36010 0.92850 0.03650 -0.02400
C 	C 	0.32096 0.91611 0.23040 -0.20100
H 	H 	0.30630 0.94190 0.22730 0.08800
C 	C 	0.31049 0.88571 0.34740 0.10400
H 	H 	0.28810 0.89110 0.42210 -0.02700
Ag	Ag	0.81390 0.29947 0.07647 0.52300
N 	N 	0.75126 0.22461 0.51380 -0.19300
N 	N 	0.89850 0.23337 0.76830 -0.09300
N 	N 	0.93303 0.25465 0.83180 -0.09200
N 	N 	0.88425 0.30214 0.76850 -0.16300
N 	N 	0.00853 0.38563 0.05680 -0.19400
N 	N 	0.83095 0.34852 0.85920 -0.21100
C 	C 	0.80955 0.21238 0.69970 -0.14200
H 	H 	0.82280 0.19470 0.77860 0.07600
C 	C 	0.77243 0.20055 0.62710 0.07900
H 	H 	0.76090 0.17430 0.65710 -0.01100
C 	C 	0.76859 0.26199 0.47500 0.07400
H 	H 	0.75420 0.27940 0.39820 -0.02600
C 	C 	0.80637 0.27640 0.54130 -0.14400
H 	H 	0.81730 0.30280 0.50930 0.06700
C 	C 	0.82787 0.25120 0.65600 0.05400
C 	C 	0.86923 0.26181 0.73050 0.07200
C 	C 	0.92423 0.29558 0.83310 0.08800
C 	C 	0.95247 0.32765 0.90620 0.06000
C 	C 	0.99610 0.32084 0.90360 -0.13000
H 	H 	0.00730 0.29670 0.85100 0.09900
C 	C 	0.02266 0.34995 0.97930 0.08700
H 	H 	0.05190 0.34480 0.97710 -0.00300
C 	C 	0.96662 0.39173 0.05860 0.07800
H 	H 	0.95620 0.41610 0.11160 -0.01500
C 	C 	0.93771 0.36422 0.98700 -0.12900
H 	H 	0.90870 0.37000 0.99250 0.07100
C 	C 	0.86215 0.34191 0.74970 0.17500
C 	C 	0.87489 0.37022 0.62750 -0.23000
H 	H 	0.89730 0.36410 0.55370 0.11500
C 	C 	0.85297 0.40833 0.61860 0.12200
H 	H 	0.86010 0.42850 0.53650 -0.02400
C 	C 	0.82096 0.41611 0.73040 -0.20100
H 	H 	0.80630 0.44190 0.72730 0.08800
C 	C 	0.81049 0.38571 0.84740 0.10300
H 	H 	0.78810 0.39110 0.92210 -0.02600
Ag	Ag	0.04947 0.93610 0.82647 0.52500
N 	N 	0.97461 0.99874 0.26380 -0.19300
N 	N 	0.98337 0.85150 0.51830 -0.09300
N 	N 	0.00465 0.81697 0.58180 -0.09300
N 	N 	0.05214 0.86575 0.51850 -0.16300
N 	N 	0.13563 0.74147 0.80680 -0.19400
N 	N 	0.09852 0.91905 0.60920 -0.21200
C 	C 	0.96238 0.94045 0.44970 -0.14200
H 	H 	0.94470 0.92720 0.52860 0.07500
C 	C 	0.95055 0.97757 0.37710 0.07900
H 	H 	0.92430 0.98910 0.40710 -0.01100
C 	C 	0.01199 0.98141 0.22500 0.07400
H 	H 	0.02940 0.99580 0.14820 -0.02500
C 	C 	0.02640 0.94363 0.29130 -0.14300
H 	H 	0.05280 0.93270 0.25930 0.06700
C 	C 	0.00120 0.92213 0.40600 0.05300
C 	C 	0.01181 0.88077 0.48050 0.07100
C 	C 	0.04558 0.82577 0.58310 0.08700
C 	C 	0.07765 0.79753 0.65620 0.06100
C 	C 	0.07084 0.75390 0.65360 -0.13100
H 	H 	0.04670 0.74270 0.60100 0.09900
C 	C 	0.09995 0.72734 0.72930 0.08300
H 	H 	0.09480 0.69810 0.72710 -0.00400
C 	C 	0.14173 0.78338 0.80860 0.08500
H 	H 	0.16610 0.79380 0.86160 -0.01800
C 	C 	0.11422 0.81229 0.73700 -0.13700
H 	H 	0.12000 0.84130 0.74250 0.07200
C 	C 	0.09191 0.88785 0.49970 0.17500
C 	C 	0.12022 0.87511 0.37750 -0.23000
H 	H 	0.11410 0.85270 0.30370 0.11600
C 	C 	0.15833 0.89703 0.36860 0.12200
H 	H 	0.17850 0.88990 0.28650 -0.02400
C 	C 	0.16611 0.92904 0.48040 -0.20100
H 	H 	0.19190 0.94370 0.47730 0.08800
C 	C 	0.13571 0.93951 0.59740 0.10300
H 	H 	0.14110 0.96190 0.67210 -0.02700
Ag	Ag	0.54947 0.43610 0.32647 0.52500
N 	N 	0.47461 0.49874 0.76380 -0.19200
N 	N 	0.48337 0.35150 0.01830 -0.09600
N 	N 	0.50465 0.31697 0.08180 -0.09300
N 	N 	0.55214 0.36575 0.01850 -0.16600
N 	N 	0.63563 0.24147 0.30680 -0.19400
N 	N 	0.59852 0.41905 0.10920 -0.21300
C 	C 	0.46238 0.44045 0.94970 -0.13700
H 	H 	0.44470 0.42720 0.02860 0.07300
C 	C 	0.45055 0.47757 0.87710 0.07600
H 	H 	0.42430 0.48910 0.90710 -0.01000
C 	C 	0.51199 0.48141 0.72500 0.07200
H 	H 	0.52940 0.49580 0.64820 -0.02500
C 	C 	0.52640 0.44363 0.79130 -0.14100
H 	H 	0.55280 0.43270 0.75930 0.06600
C 	C 	0.50120 0.42213 0.90600 0.05000
C 	C 	0.51181 0.38077 0.98050 0.07600
C 	C 	0.54558 0.32577 0.08310 0.08600
C 	C 	0.57765 0.29753 0.15620 0.06100
C 	C 	0.57084 0.25390 0.15360 -0.13100
H 	H 	0.54670 0.24270 0.10100 0.09800
C 	C 	0.59995 0.22734 0.22930 0.08300
H 	H 	0.59480 0.19810 0.22710 -0.00300
C 	C 	0.64173 0.28338 0.30860 0.08500
H 	H 	0.66610 0.29380 0.36160 -0.01700
C 	C 	0.61422 0.31229 0.23700 -0.13700
H 	H 	0.62000 0.34130 0.24250 0.07200
C 	C 	0.59191 0.38785 0.99970 0.17800
C 	C 	0.62022 0.37511 0.87750 -0.23000
H 	H 	0.61410 0.35270 0.80370 0.11600
C 	C 	0.65833 0.39703 0.86860 0.12100
H 	H 	0.67850 0.38990 0.78650 -0.02400
C 	C 	0.66611 0.42904 0.98040 -0.19800
H 	H 	0.69190 0.44370 0.97730 0.08700
C 	C 	0.63571 0.43951 0.09740 0.10000
H 	H 	0.64110 0.46190 0.17210 -0.02600
Ag	Ag	0.45053 0.06390 0.32647 0.52500
N 	N 	0.52539 0.00126 0.76380 -0.19200
N 	N 	0.51663 0.14850 0.01830 -0.09600
N 	N 	0.49535 0.18303 0.08180 -0.09300
N 	N 	0.44786 0.13425 0.01850 -0.16600
N 	N 	0.36437 0.25853 0.30680 -0.19400
N 	N 	0.40148 0.08095 0.10920 -0.21300
C 	C 	0.53762 0.05955 0.94970 -0.13600
H 	H 	0.55530 0.07280 0.02860 0.07200
C 	C 	0.54945 0.02243 0.87710 0.07500
H 	H 	0.57570 0.01090 0.90710 -0.01000
C 	C 	0.48801 0.01859 0.72500 0.07200
H 	H 	0.47060 0.00420 0.64820 -0.02500
C 	C 	0.47360 0.05637 0.79130 -0.14100
H 	H 	0.44720 0.06730 0.75930 0.06600
C 	C 	0.49880 0.07787 0.90600 0.05000
C 	C 	0.48819 0.11923 0.98050 0.07600
C 	C 	0.45442 0.17423 0.08310 0.08600
C 	C 	0.42235 0.20247 0.15620 0.06100
C 	C 	0.42916 0.24610 0.15360 -0.13100
H 	H 	0.45330 0.25730 0.10100 0.09800
C 	C 	0.40005 0.27266 0.22930 0.08300
H 	H 	0.40520 0.30190 0.22710 -0.00300
C 	C 	0.35827 0.21662 0.30860 0.08500
H 	H 	0.33390 0.20620 0.36160 -0.01700
C 	C 	0.38578 0.18771 0.23700 -0.13700
H 	H 	0.38000 0.15870 0.24250 0.07200
C 	C 	0.40809 0.11215 0.99970 0.17900
C 	C 	0.37978 0.12489 0.87750 -0.23000
H 	H 	0.38590 0.14730 0.80370 0.11600
C 	C 	0.34167 0.10297 0.86860 0.12100
H 	H 	0.32150 0.11010 0.78650 -0.02400
C 	C 	0.33389 0.07096 0.98040 -0.19700
H 	H 	0.30810 0.05630 0.97730 0.08700
C 	C 	0.36429 0.06049 0.09740 0.10000
H 	H 	0.35890 0.03810 0.17210 -0.02600
Ag	Ag	0.95053 0.56390 0.82647 0.52500
N 	N 	0.02539 0.50126 0.26380 -0.19300
N 	N 	0.01663 0.64850 0.51830 -0.09300
N 	N 	0.99535 0.68303 0.58180 -0.09300
N 	N 	0.94786 0.63425 0.51850 -0.16300
N 	N 	0.86437 0.75853 0.80680 -0.19400
N 	N 	0.90148 0.58095 0.60920 -0.21200
C 	C 	0.03762 0.55955 0.44970 -0.14200
H 	H 	0.05530 0.57280 0.52860 0.07600
C 	C 	0.04945 0.52243 0.37710 0.07900
H 	H 	0.07570 0.51090 0.40710 -0.01100
C 	C 	0.98801 0.51859 0.22500 0.07400
H 	H 	0.97060 0.50420 0.14820 -0.02600
C 	C 	0.97360 0.55637 0.29130 -0.14400
H 	H 	0.94720 0.56730 0.25930 0.06700
C 	C 	0.99880 0.57787 0.40600 0.05400
C 	C 	0.98819 0.61923 0.48050 0.07100
C 	C 	0.95442 0.67423 0.58310 0.08700
C 	C 	0.92235 0.70247 0.65620 0.06100
C 	C 	0.92916 0.74610 0.65360 -0.13100
H 	H 	0.95330 0.75730 0.60100 0.09900
C 	C 	0.90005 0.77266 0.72930 0.08300
H 	H 	0.90520 0.80190 0.72710 -0.00400
C 	C 	0.85827 0.71662 0.80860 0.08500
H 	H 	0.83390 0.70620 0.86160 -0.01800
C 	C 	0.88578 0.68771 0.73700 -0.13700
H 	H 	0.88000 0.65870 0.74250 0.07200
C 	C 	0.90809 0.61215 0.49970 0.17500
C 	C 	0.87978 0.62489 0.37750 -0.23000
H 	H 	0.88590 0.64730 0.30370 0.11600
C 	C 	0.84167 0.60297 0.36860 0.12200
H 	H 	0.82150 0.61010 0.28650 -0.02400
C 	C 	0.83389 0.57096 0.48040 -0.20100
H 	H 	0.80810 0.55630 0.47730 0.08800
C 	C 	0.86429 0.56049 0.59740 0.10300
H 	H 	0.85890 0.53810 0.67210 -0.02700
