data_crystal

_cell_length_a 60.91000
_cell_length_b 60.91000
_cell_length_c 60.91000
_cell_angle_alpha 90.00000
_cell_angle_beta  90.00000
_cell_angle_gamma 90.00000

_symmetry_space_group_name_	'P 1'
_symmetry_space_group_name_H-M	'P 1'

loop_
_symmetry_equiv_pos_as_xyz
  x,y,z

loop_
_atom_site_label
_atom_site_type_symbol
_atom_site_fract_x
_atom_site_fract_y
_atom_site_fract_z
_atom_site_charge
O 	O 	0.01716 0.74529 0.22161 -0.41200
O 	O 	0.02485 0.71933 0.25032 -0.35900
C 	C 	0.02813 0.73010 0.23223 0.27300
C 	C 	0.04703 0.71661 0.21935 -0.04000
C 	C 	0.05543 0.72485 0.19980 0.00200
H 	H 	0.04930 0.73740 0.19350 0.04500
C 	C 	0.07294 0.71437 0.18958 -0.09700
H 	H 	0.07860 0.71990 0.17650 0.06600
C 	C 	0.08205 0.69564 0.19892 0.05900
C 	C 	0.07365 0.68740 0.21847 -0.09800
H 	H 	0.07970 0.67490 0.22470 0.06800
C 	C 	0.05614 0.69788 0.22869 0.00400
H 	H 	0.05050 0.69240 0.24180 0.05100
C 	C 	0.10055 0.68335 0.18791 -0.03300
C 	C 	0.11512 0.69676 0.17656 0.00300
H 	H 	0.11320 0.71190 0.17660 0.03000
C 	C 	0.13254 0.68752 0.16507 -0.13000
H 	H 	0.14230 0.69650 0.15750 0.08200
C 	C 	0.13540 0.66488 0.16495 0.11900
C 	C 	0.12083 0.65148 0.17630 -0.13000
H 	H 	0.12270 0.63630 0.17620 0.08100
C 	C 	0.10341 0.66071 0.18779 0.00300
H 	H 	0.09370 0.65170 0.19540 0.03100
O 	O 	0.01716 0.24529 0.72161 -0.41200
O 	O 	0.02485 0.21933 0.75032 -0.35900
C 	C 	0.02813 0.23010 0.73223 0.27300
C 	C 	0.04703 0.21661 0.71935 -0.04000
C 	C 	0.05543 0.22485 0.69980 0.00200
H 	H 	0.04930 0.23740 0.69350 0.04500
C 	C 	0.07294 0.21437 0.68958 -0.09700
H 	H 	0.07860 0.21990 0.67650 0.06600
C 	C 	0.08205 0.19564 0.69892 0.05900
C 	C 	0.07365 0.18740 0.71847 -0.09800
H 	H 	0.07970 0.17490 0.72470 0.06800
C 	C 	0.05614 0.19788 0.72869 0.00400
H 	H 	0.05050 0.19240 0.74180 0.05100
C 	C 	0.10055 0.18335 0.68791 -0.03300
C 	C 	0.11512 0.19676 0.67656 0.00300
H 	H 	0.11320 0.21190 0.67660 0.03000
C 	C 	0.13254 0.18752 0.66507 -0.13000
H 	H 	0.14230 0.19650 0.65750 0.08200
C 	C 	0.13540 0.16488 0.66495 0.11900
C 	C 	0.12083 0.15148 0.67630 -0.13000
H 	H 	0.12270 0.13630 0.67620 0.08100
C 	C 	0.10341 0.16071 0.68779 0.00300
H 	H 	0.09370 0.15170 0.69540 0.03100
O 	O 	0.51716 0.74529 0.72161 -0.41200
O 	O 	0.52485 0.71933 0.75032 -0.35900
C 	C 	0.52813 0.73010 0.73223 0.27200
C 	C 	0.54703 0.71661 0.71935 -0.04100
C 	C 	0.55543 0.72485 0.69980 0.00100
H 	H 	0.54930 0.73740 0.69350 0.04400
C 	C 	0.57294 0.71437 0.68958 -0.09800
H 	H 	0.57860 0.71990 0.67650 0.06500
C 	C 	0.58205 0.69564 0.69892 0.05800
C 	C 	0.57365 0.68740 0.71847 -0.09900
H 	H 	0.57970 0.67490 0.72470 0.06700
C 	C 	0.55614 0.69788 0.72869 0.00300
H 	H 	0.55050 0.69240 0.74180 0.05000
C 	C 	0.60055 0.68335 0.68791 -0.03400
C 	C 	0.61512 0.69676 0.67656 0.00200
H 	H 	0.61320 0.71190 0.67660 0.02900
C 	C 	0.63254 0.68752 0.66507 -0.13100
H 	H 	0.64230 0.69650 0.65750 0.08100
C 	C 	0.63540 0.66488 0.66495 0.11800
C 	C 	0.62083 0.65148 0.67630 -0.13100
H 	H 	0.62270 0.63630 0.67620 0.08000
C 	C 	0.60341 0.66071 0.68779 0.00200
H 	H 	0.59370 0.65170 0.69540 0.03000
O 	O 	0.51716 0.24529 0.22161 -0.41300
O 	O 	0.52485 0.21933 0.25032 -0.36000
C 	C 	0.52813 0.23010 0.23223 0.27200
C 	C 	0.54703 0.21661 0.21935 -0.04100
C 	C 	0.55543 0.22485 0.19980 0.00100
H 	H 	0.54930 0.23740 0.19350 0.04400
C 	C 	0.57294 0.21437 0.18958 -0.09800
H 	H 	0.57860 0.21990 0.17650 0.06500
C 	C 	0.58205 0.19564 0.19892 0.05800
C 	C 	0.57365 0.18740 0.21847 -0.09900
H 	H 	0.57970 0.17490 0.22470 0.06700
C 	C 	0.55614 0.19788 0.22869 0.00300
H 	H 	0.55050 0.19240 0.24180 0.05000
C 	C 	0.60055 0.18335 0.18791 -0.03400
C 	C 	0.61512 0.19676 0.17656 0.00200
H 	H 	0.61320 0.21190 0.17660 0.02900
C 	C 	0.63254 0.18752 0.16507 -0.13100
H 	H 	0.64230 0.19650 0.15750 0.08100
C 	C 	0.63540 0.16488 0.16495 0.11800
C 	C 	0.62083 0.15148 0.17630 -0.13100
H 	H 	0.62270 0.13630 0.17620 0.08000
C 	C 	0.60341 0.16071 0.18779 0.00200
H 	H 	0.59370 0.15170 0.19540 0.03000
O 	O 	0.98284 0.25471 0.22161 -0.41300
O 	O 	0.97515 0.28067 0.25032 -0.36000
C 	C 	0.97187 0.26990 0.23223 0.27200
C 	C 	0.95297 0.28339 0.21935 -0.04100
C 	C 	0.94457 0.27515 0.19980 0.00100
H 	H 	0.95070 0.26260 0.19350 0.04400
C 	C 	0.92706 0.28563 0.18958 -0.09800
H 	H 	0.92140 0.28010 0.17650 0.06500
C 	C 	0.91795 0.30436 0.19892 0.05800
C 	C 	0.92635 0.31260 0.21847 -0.09900
H 	H 	0.92030 0.32510 0.22470 0.06700
C 	C 	0.94386 0.30212 0.22869 0.00300
H 	H 	0.94950 0.30760 0.24180 0.05000
C 	C 	0.89945 0.31665 0.18791 -0.03400
C 	C 	0.88488 0.30324 0.17656 0.00200
H 	H 	0.88680 0.28810 0.17660 0.02900
C 	C 	0.86746 0.31248 0.16507 -0.13100
H 	H 	0.85770 0.30350 0.15750 0.08100
C 	C 	0.86460 0.33512 0.16495 0.11800
C 	C 	0.87917 0.34852 0.17630 -0.13100
H 	H 	0.87730 0.36370 0.17620 0.08000
C 	C 	0.89659 0.33929 0.18779 0.00200
H 	H 	0.90630 0.34830 0.19540 0.03000
O 	O 	0.98284 0.75471 0.72161 -0.41300
O 	O 	0.97515 0.78067 0.75032 -0.36000
C 	C 	0.97187 0.76990 0.73223 0.27200
C 	C 	0.95297 0.78339 0.71935 -0.04100
C 	C 	0.94457 0.77515 0.69980 0.00100
H 	H 	0.95070 0.76260 0.69350 0.04400
C 	C 	0.92706 0.78563 0.68958 -0.09800
H 	H 	0.92140 0.78010 0.67650 0.06500
C 	C 	0.91795 0.80436 0.69892 0.05800
C 	C 	0.92635 0.81260 0.71847 -0.09900
H 	H 	0.92030 0.82510 0.72470 0.06700
C 	C 	0.94386 0.80212 0.72869 0.00300
H 	H 	0.94950 0.80760 0.74180 0.05000
C 	C 	0.89945 0.81665 0.68791 -0.03400
C 	C 	0.88488 0.80324 0.67656 0.00200
H 	H 	0.88680 0.78810 0.67660 0.02900
C 	C 	0.86746 0.81248 0.66507 -0.13100
H 	H 	0.85770 0.80350 0.65750 0.08100
C 	C 	0.86460 0.83512 0.66495 0.11800
C 	C 	0.87917 0.84852 0.67630 -0.13100
H 	H 	0.87730 0.86370 0.67620 0.08000
C 	C 	0.89659 0.83929 0.68779 0.00200
H 	H 	0.90630 0.84830 0.69540 0.03000
O 	O 	0.48284 0.25471 0.72161 -0.41300
O 	O 	0.47515 0.28067 0.75032 -0.36000
C 	C 	0.47187 0.26990 0.73223 0.27200
C 	C 	0.45297 0.28339 0.71935 -0.04100
C 	C 	0.44457 0.27515 0.69980 0.00100
H 	H 	0.45070 0.26260 0.69350 0.04400
C 	C 	0.42706 0.28563 0.68958 -0.09800
H 	H 	0.42140 0.28010 0.67650 0.06500
C 	C 	0.41795 0.30436 0.69892 0.05800
C 	C 	0.42635 0.31260 0.71847 -0.09900
H 	H 	0.42030 0.32510 0.72470 0.06700
C 	C 	0.44386 0.30212 0.72869 0.00300
H 	H 	0.44950 0.30760 0.74180 0.05000
C 	C 	0.39945 0.31665 0.68791 -0.03400
C 	C 	0.38488 0.30324 0.67656 0.00200
H 	H 	0.38680 0.28810 0.67660 0.02900
C 	C 	0.36746 0.31248 0.66507 -0.13100
H 	H 	0.35770 0.30350 0.65750 0.08100
C 	C 	0.36460 0.33512 0.66495 0.11800
C 	C 	0.37917 0.34852 0.67630 -0.13100
H 	H 	0.37730 0.36370 0.67620 0.08000
C 	C 	0.39659 0.33929 0.68779 0.00200
H 	H 	0.40630 0.34830 0.69540 0.03000
O 	O 	0.48284 0.75471 0.22161 -0.41300
O 	O 	0.47515 0.78067 0.25032 -0.36000
C 	C 	0.47187 0.76990 0.23223 0.27200
C 	C 	0.45297 0.78339 0.21935 -0.04100
C 	C 	0.44457 0.77515 0.19980 0.00100
H 	H 	0.45070 0.76260 0.19350 0.04400
C 	C 	0.42706 0.78563 0.18958 -0.09800
H 	H 	0.42140 0.78010 0.17650 0.06500
C 	C 	0.41795 0.80436 0.19892 0.05800
C 	C 	0.42635 0.81260 0.21847 -0.09900
H 	H 	0.42030 0.82510 0.22470 0.06700
C 	C 	0.44386 0.80212 0.22869 0.00300
H 	H 	0.44950 0.80760 0.24180 0.05000
C 	C 	0.39945 0.81665 0.18791 -0.03400
C 	C 	0.38488 0.80324 0.17656 0.00200
H 	H 	0.38680 0.78810 0.17660 0.02900
C 	C 	0.36746 0.81248 0.16507 -0.13100
H 	H 	0.35770 0.80350 0.15750 0.08100
C 	C 	0.36460 0.83512 0.16495 0.11800
C 	C 	0.37917 0.84852 0.17630 -0.13100
H 	H 	0.37730 0.86370 0.17620 0.08000
C 	C 	0.39659 0.83929 0.18779 0.00200
H 	H 	0.40630 0.84830 0.19540 0.03000
O 	O 	0.98284 0.74529 0.77839 -0.41300
O 	O 	0.97515 0.71933 0.74968 -0.36000
C 	C 	0.97187 0.73010 0.76777 0.27200
C 	C 	0.95297 0.71661 0.78065 -0.04100
C 	C 	0.94457 0.72485 0.80020 0.00100
H 	H 	0.95070 0.73740 0.80650 0.04400
C 	C 	0.92706 0.71437 0.81042 -0.09800
H 	H 	0.92140 0.71990 0.82350 0.06500
C 	C 	0.91795 0.69564 0.80108 0.05800
C 	C 	0.92635 0.68740 0.78153 -0.09900
H 	H 	0.92030 0.67490 0.77530 0.06700
C 	C 	0.94386 0.69788 0.77131 0.00300
H 	H 	0.94950 0.69240 0.75820 0.05000
C 	C 	0.89945 0.68335 0.81209 -0.03400
C 	C 	0.88488 0.69676 0.82344 0.00200
H 	H 	0.88680 0.71190 0.82340 0.02900
C 	C 	0.86746 0.68752 0.83493 -0.13100
H 	H 	0.85770 0.69650 0.84250 0.08100
C 	C 	0.86460 0.66488 0.83505 0.11800
C 	C 	0.87917 0.65148 0.82370 -0.13100
H 	H 	0.87730 0.63630 0.82380 0.08000
C 	C 	0.89659 0.66071 0.81221 0.00200
H 	H 	0.90630 0.65170 0.80460 0.03000
O 	O 	0.98284 0.24529 0.27839 -0.41300
O 	O 	0.97515 0.21933 0.24968 -0.36000
C 	C 	0.97187 0.23010 0.26777 0.27200
C 	C 	0.95297 0.21661 0.28065 -0.04100
C 	C 	0.94457 0.22485 0.30020 0.00100
H 	H 	0.95070 0.23740 0.30650 0.04400
C 	C 	0.92706 0.21437 0.31042 -0.09800
H 	H 	0.92140 0.21990 0.32350 0.06500
C 	C 	0.91795 0.19564 0.30108 0.05800
C 	C 	0.92635 0.18740 0.28153 -0.09900
H 	H 	0.92030 0.17490 0.27530 0.06700
C 	C 	0.94386 0.19788 0.27131 0.00300
H 	H 	0.94950 0.19240 0.25820 0.05000
C 	C 	0.89945 0.18335 0.31209 -0.03400
C 	C 	0.88488 0.19676 0.32344 0.00200
H 	H 	0.88680 0.21190 0.32340 0.02900
C 	C 	0.86746 0.18752 0.33493 -0.13100
H 	H 	0.85770 0.19650 0.34250 0.08100
C 	C 	0.86460 0.16488 0.33505 0.11800
C 	C 	0.87917 0.15148 0.32370 -0.13100
H 	H 	0.87730 0.13630 0.32380 0.08000
C 	C 	0.89659 0.16071 0.31221 0.00200
H 	H 	0.90630 0.15170 0.30460 0.03000
O 	O 	0.48284 0.74529 0.27839 -0.41300
O 	O 	0.47515 0.71933 0.24968 -0.36000
C 	C 	0.47187 0.73010 0.26777 0.27200
C 	C 	0.45297 0.71661 0.28065 -0.04100
C 	C 	0.44457 0.72485 0.30020 0.00100
H 	H 	0.45070 0.73740 0.30650 0.04400
C 	C 	0.42706 0.71437 0.31042 -0.09800
H 	H 	0.42140 0.71990 0.32350 0.06500
C 	C 	0.41795 0.69564 0.30108 0.05800
C 	C 	0.42635 0.68740 0.28153 -0.09900
H 	H 	0.42030 0.67490 0.27530 0.06700
C 	C 	0.44386 0.69788 0.27131 0.00300
H 	H 	0.44950 0.69240 0.25820 0.05000
C 	C 	0.39945 0.68335 0.31209 -0.03400
C 	C 	0.38488 0.69676 0.32344 0.00200
H 	H 	0.38680 0.71190 0.32340 0.02900
C 	C 	0.36746 0.68752 0.33493 -0.13100
H 	H 	0.35770 0.69650 0.34250 0.08100
C 	C 	0.36460 0.66488 0.33505 0.11800
C 	C 	0.37917 0.65148 0.32370 -0.13100
H 	H 	0.37730 0.63630 0.32380 0.08000
C 	C 	0.39659 0.66071 0.31221 0.00200
H 	H 	0.40630 0.65170 0.30460 0.03000
O 	O 	0.48284 0.24529 0.77839 -0.41300
O 	O 	0.47515 0.21933 0.74968 -0.36000
C 	C 	0.47187 0.23010 0.76777 0.27200
C 	C 	0.45297 0.21661 0.78065 -0.04100
C 	C 	0.44457 0.22485 0.80020 0.00100
H 	H 	0.45070 0.23740 0.80650 0.04400
C 	C 	0.42706 0.21437 0.81042 -0.09800
H 	H 	0.42140 0.21990 0.82350 0.06500
C 	C 	0.41795 0.19564 0.80108 0.05800
C 	C 	0.42635 0.18740 0.78153 -0.09900
H 	H 	0.42030 0.17490 0.77530 0.06700
C 	C 	0.44386 0.19788 0.77131 0.00300
H 	H 	0.44950 0.19240 0.75820 0.05000
C 	C 	0.39945 0.18335 0.81209 -0.03400
C 	C 	0.38488 0.19676 0.82344 0.00200
H 	H 	0.38680 0.21190 0.82340 0.02900
C 	C 	0.36746 0.18752 0.83493 -0.13100
H 	H 	0.35770 0.19650 0.84250 0.08100
C 	C 	0.36460 0.16488 0.83505 0.11800
C 	C 	0.37917 0.15148 0.82370 -0.13100
H 	H 	0.37730 0.13630 0.82380 0.08000
C 	C 	0.39659 0.16071 0.81221 0.00200
H 	H 	0.40630 0.15170 0.80460 0.03000
O 	O 	0.01716 0.25471 0.77839 -0.41300
O 	O 	0.02485 0.28067 0.74968 -0.36000
C 	C 	0.02813 0.26990 0.76777 0.27200
C 	C 	0.04703 0.28339 0.78065 -0.04100
C 	C 	0.05543 0.27515 0.80020 0.00100
H 	H 	0.04930 0.26260 0.80650 0.04400
C 	C 	0.07294 0.28563 0.81042 -0.09800
H 	H 	0.07860 0.28010 0.82350 0.06500
C 	C 	0.08205 0.30436 0.80108 0.05800
C 	C 	0.07365 0.31260 0.78153 -0.09900
H 	H 	0.07970 0.32510 0.77530 0.06700
C 	C 	0.05614 0.30212 0.77131 0.00300
H 	H 	0.05050 0.30760 0.75820 0.05000
C 	C 	0.10055 0.31665 0.81209 -0.03400
C 	C 	0.11512 0.30324 0.82344 0.00200
H 	H 	0.11320 0.28810 0.82340 0.02900
C 	C 	0.13254 0.31248 0.83493 -0.13100
H 	H 	0.14230 0.30350 0.84250 0.08100
C 	C 	0.13540 0.33512 0.83505 0.11800
C 	C 	0.12083 0.34852 0.82370 -0.13100
H 	H 	0.12270 0.36370 0.82380 0.08000
C 	C 	0.10341 0.33929 0.81221 0.00200
H 	H 	0.09370 0.34830 0.80460 0.03000
O 	O 	0.01716 0.75471 0.27839 -0.41300
O 	O 	0.02485 0.78067 0.24968 -0.36000
C 	C 	0.02813 0.76990 0.26777 0.27200
C 	C 	0.04703 0.78339 0.28065 -0.04100
C 	C 	0.05543 0.77515 0.30020 0.00100
H 	H 	0.04930 0.76260 0.30650 0.04400
C 	C 	0.07294 0.78563 0.31042 -0.09800
H 	H 	0.07860 0.78010 0.32350 0.06500
C 	C 	0.08205 0.80436 0.30108 0.05800
C 	C 	0.07365 0.81260 0.28153 -0.09900
H 	H 	0.07970 0.82510 0.27530 0.06700
C 	C 	0.05614 0.80212 0.27131 0.00300
H 	H 	0.05050 0.80760 0.25820 0.05000
C 	C 	0.10055 0.81665 0.31209 -0.03400
C 	C 	0.11512 0.80324 0.32344 0.00200
H 	H 	0.11320 0.78810 0.32340 0.02900
C 	C 	0.13254 0.81248 0.33493 -0.13100
H 	H 	0.14230 0.80350 0.34250 0.08100
C 	C 	0.13540 0.83512 0.33505 0.11800
C 	C 	0.12083 0.84852 0.32370 -0.13100
H 	H 	0.12270 0.86370 0.32380 0.08000
C 	C 	0.10341 0.83929 0.31221 0.00200
H 	H 	0.09370 0.84830 0.30460 0.03000
O 	O 	0.51716 0.25471 0.27839 -0.41300
O 	O 	0.52485 0.28067 0.24968 -0.36000
C 	C 	0.52813 0.26990 0.26777 0.27200
C 	C 	0.54703 0.28339 0.28065 -0.04100
C 	C 	0.55543 0.27515 0.30020 0.00100
H 	H 	0.54930 0.26260 0.30650 0.04400
C 	C 	0.57294 0.28563 0.31042 -0.09800
H 	H 	0.57860 0.28010 0.32350 0.06500
C 	C 	0.58205 0.30436 0.30108 0.05800
C 	C 	0.57365 0.31260 0.28153 -0.09900
H 	H 	0.57970 0.32510 0.27530 0.06700
C 	C 	0.55614 0.30212 0.27131 0.00300
H 	H 	0.55050 0.30760 0.25820 0.05000
C 	C 	0.60055 0.31665 0.31209 -0.03400
C 	C 	0.61512 0.30324 0.32344 0.00200
H 	H 	0.61320 0.28810 0.32340 0.02900
C 	C 	0.63254 0.31248 0.33493 -0.13100
H 	H 	0.64230 0.30350 0.34250 0.08100
C 	C 	0.63540 0.33512 0.33505 0.11800
C 	C 	0.62083 0.34852 0.32370 -0.13100
H 	H 	0.62270 0.36370 0.32380 0.08000
C 	C 	0.60341 0.33929 0.31221 0.00200
H 	H 	0.59370 0.34830 0.30460 0.03000
O 	O 	0.51716 0.75471 0.77839 -0.41300
O 	O 	0.52485 0.78067 0.74968 -0.36000
C 	C 	0.52813 0.76990 0.76777 0.27200
C 	C 	0.54703 0.78339 0.78065 -0.04100
C 	C 	0.55543 0.77515 0.80020 0.00100
H 	H 	0.54930 0.76260 0.80650 0.04400
C 	C 	0.57294 0.78563 0.81042 -0.09800
H 	H 	0.57860 0.78010 0.82350 0.06500
C 	C 	0.58205 0.80436 0.80108 0.05800
C 	C 	0.57365 0.81260 0.78153 -0.09900
H 	H 	0.57970 0.82510 0.77530 0.06700
C 	C 	0.55614 0.80212 0.77131 0.00300
H 	H 	0.55050 0.80760 0.75820 0.05000
C 	C 	0.60055 0.81665 0.81209 -0.03400
C 	C 	0.61512 0.80324 0.82344 0.00200
H 	H 	0.61320 0.78810 0.82340 0.02900
C 	C 	0.63254 0.81248 0.83493 -0.13100
H 	H 	0.64230 0.80350 0.84250 0.08100
C 	C 	0.63540 0.83512 0.83505 0.11800
C 	C 	0.62083 0.84852 0.82370 -0.13100
H 	H 	0.62270 0.86370 0.82380 0.08000
C 	C 	0.60341 0.83929 0.81221 0.00200
H 	H 	0.59370 0.84830 0.80460 0.03000
O 	O 	0.22161 0.01716 0.74529 -0.41300
O 	O 	0.25032 0.02485 0.71933 -0.36000
C 	C 	0.23223 0.02813 0.73010 0.27200
C 	C 	0.21935 0.04703 0.71661 -0.04100
C 	C 	0.19980 0.05543 0.72485 0.00100
H 	H 	0.19350 0.04930 0.73740 0.04400
C 	C 	0.18958 0.07294 0.71437 -0.09800
H 	H 	0.17650 0.07860 0.71990 0.06500
C 	C 	0.19892 0.08205 0.69564 0.05800
C 	C 	0.21847 0.07365 0.68740 -0.09900
H 	H 	0.22470 0.07970 0.67490 0.06700
C 	C 	0.22869 0.05614 0.69788 0.00300
H 	H 	0.24180 0.05050 0.69240 0.05000
C 	C 	0.18791 0.10055 0.68335 -0.03400
C 	C 	0.17656 0.11512 0.69676 0.00200
H 	H 	0.17660 0.11320 0.71190 0.02900
C 	C 	0.16507 0.13254 0.68752 -0.13100
H 	H 	0.15750 0.14230 0.69650 0.08100
C 	C 	0.16495 0.13540 0.66488 0.11800
C 	C 	0.17630 0.12083 0.65148 -0.13100
H 	H 	0.17620 0.12270 0.63630 0.08000
C 	C 	0.18779 0.10341 0.66071 0.00200
H 	H 	0.19540 0.09370 0.65170 0.03000
O 	O 	0.22161 0.51716 0.24529 -0.41300
O 	O 	0.25032 0.52485 0.21933 -0.36000
C 	C 	0.23223 0.52813 0.23010 0.27200
C 	C 	0.21935 0.54703 0.21661 -0.04100
C 	C 	0.19980 0.55543 0.22485 0.00100
H 	H 	0.19350 0.54930 0.23740 0.04400
C 	C 	0.18958 0.57294 0.21437 -0.09800
H 	H 	0.17650 0.57860 0.21990 0.06500
C 	C 	0.19892 0.58205 0.19564 0.05800
C 	C 	0.21847 0.57365 0.18740 -0.09900
H 	H 	0.22470 0.57970 0.17490 0.06700
C 	C 	0.22869 0.55614 0.19788 0.00300
H 	H 	0.24180 0.55050 0.19240 0.05000
C 	C 	0.18791 0.60055 0.18335 -0.03400
C 	C 	0.17656 0.61512 0.19676 0.00200
H 	H 	0.17660 0.61320 0.21190 0.02900
C 	C 	0.16507 0.63254 0.18752 -0.13100
H 	H 	0.15750 0.64230 0.19650 0.08100
C 	C 	0.16495 0.63540 0.16488 0.11800
C 	C 	0.17630 0.62083 0.15148 -0.13100
H 	H 	0.17620 0.62270 0.13630 0.08000
C 	C 	0.18779 0.60341 0.16071 0.00200
H 	H 	0.19540 0.59370 0.15170 0.03000
O 	O 	0.72161 0.01716 0.24529 -0.41300
O 	O 	0.75032 0.02485 0.21933 -0.36000
C 	C 	0.73223 0.02813 0.23010 0.27200
C 	C 	0.71935 0.04703 0.21661 -0.04100
C 	C 	0.69980 0.05543 0.22485 0.00100
H 	H 	0.69350 0.04930 0.23740 0.04400
C 	C 	0.68958 0.07294 0.21437 -0.09800
H 	H 	0.67650 0.07860 0.21990 0.06500
C 	C 	0.69892 0.08205 0.19564 0.05800
C 	C 	0.71847 0.07365 0.18740 -0.09900
H 	H 	0.72470 0.07970 0.17490 0.06700
C 	C 	0.72869 0.05614 0.19788 0.00300
H 	H 	0.74180 0.05050 0.19240 0.05000
C 	C 	0.68791 0.10055 0.18335 -0.03400
C 	C 	0.67656 0.11512 0.19676 0.00200
H 	H 	0.67660 0.11320 0.21190 0.02900
C 	C 	0.66507 0.13254 0.18752 -0.13100
H 	H 	0.65750 0.14230 0.19650 0.08100
C 	C 	0.66495 0.13540 0.16488 0.11800
C 	C 	0.67630 0.12083 0.15148 -0.13100
H 	H 	0.67620 0.12270 0.13630 0.08000
C 	C 	0.68779 0.10341 0.16071 0.00200
H 	H 	0.69540 0.09370 0.15170 0.03000
O 	O 	0.72161 0.51716 0.74529 -0.41300
O 	O 	0.75032 0.52485 0.71933 -0.36000
C 	C 	0.73223 0.52813 0.73010 0.27200
C 	C 	0.71935 0.54703 0.71661 -0.04100
C 	C 	0.69980 0.55543 0.72485 0.00100
H 	H 	0.69350 0.54930 0.73740 0.04400
C 	C 	0.68958 0.57294 0.71437 -0.09800
H 	H 	0.67650 0.57860 0.71990 0.06500
C 	C 	0.69892 0.58205 0.69564 0.05800
C 	C 	0.71847 0.57365 0.68740 -0.09900
H 	H 	0.72470 0.57970 0.67490 0.06700
C 	C 	0.72869 0.55614 0.69788 0.00300
H 	H 	0.74180 0.55050 0.69240 0.05000
C 	C 	0.68791 0.60055 0.68335 -0.03400
C 	C 	0.67656 0.61512 0.69676 0.00200
H 	H 	0.67660 0.61320 0.71190 0.02900
C 	C 	0.66507 0.63254 0.68752 -0.13100
H 	H 	0.65750 0.64230 0.69650 0.08100
C 	C 	0.66495 0.63540 0.66488 0.11800
C 	C 	0.67630 0.62083 0.65148 -0.13100
H 	H 	0.67620 0.62270 0.63630 0.08000
C 	C 	0.68779 0.60341 0.66071 0.00200
H 	H 	0.69540 0.59370 0.65170 0.03000
O 	O 	0.22161 0.98284 0.25471 -0.41300
O 	O 	0.25032 0.97515 0.28067 -0.36000
C 	C 	0.23223 0.97187 0.26990 0.27200
C 	C 	0.21935 0.95297 0.28339 -0.04100
C 	C 	0.19980 0.94457 0.27515 0.00100
H 	H 	0.19350 0.95070 0.26260 0.04400
C 	C 	0.18958 0.92706 0.28563 -0.09800
H 	H 	0.17650 0.92140 0.28010 0.06500
C 	C 	0.19892 0.91795 0.30436 0.05800
C 	C 	0.21847 0.92635 0.31260 -0.09900
H 	H 	0.22470 0.92030 0.32510 0.06700
C 	C 	0.22869 0.94386 0.30212 0.00300
H 	H 	0.24180 0.94950 0.30760 0.05000
C 	C 	0.18791 0.89945 0.31665 -0.03400
C 	C 	0.17656 0.88488 0.30324 0.00200
H 	H 	0.17660 0.88680 0.28810 0.02900
C 	C 	0.16507 0.86746 0.31248 -0.13100
H 	H 	0.15750 0.85770 0.30350 0.08100
C 	C 	0.16495 0.86460 0.33512 0.11800
C 	C 	0.17630 0.87917 0.34852 -0.13100
H 	H 	0.17620 0.87730 0.36370 0.08000
C 	C 	0.18779 0.89659 0.33929 0.00200
H 	H 	0.19540 0.90630 0.34830 0.03000
O 	O 	0.22161 0.48284 0.75471 -0.41300
O 	O 	0.25032 0.47515 0.78067 -0.36000
C 	C 	0.23223 0.47187 0.76990 0.27200
C 	C 	0.21935 0.45297 0.78339 -0.04100
C 	C 	0.19980 0.44457 0.77515 0.00100
H 	H 	0.19350 0.45070 0.76260 0.04400
C 	C 	0.18958 0.42706 0.78563 -0.09800
H 	H 	0.17650 0.42140 0.78010 0.06500
C 	C 	0.19892 0.41795 0.80436 0.05800
C 	C 	0.21847 0.42635 0.81260 -0.09900
H 	H 	0.22470 0.42030 0.82510 0.06700
C 	C 	0.22869 0.44386 0.80212 0.00300
H 	H 	0.24180 0.44950 0.80760 0.05000
C 	C 	0.18791 0.39945 0.81665 -0.03400
C 	C 	0.17656 0.38488 0.80324 0.00200
H 	H 	0.17660 0.38680 0.78810 0.02900
C 	C 	0.16507 0.36746 0.81248 -0.13100
H 	H 	0.15750 0.35770 0.80350 0.08100
C 	C 	0.16495 0.36460 0.83512 0.11800
C 	C 	0.17630 0.37917 0.84852 -0.13100
H 	H 	0.17620 0.37730 0.86370 0.08000
C 	C 	0.18779 0.39659 0.83929 0.00200
H 	H 	0.19540 0.40630 0.84830 0.03000
O 	O 	0.72161 0.98284 0.75471 -0.41300
O 	O 	0.75032 0.97515 0.78067 -0.36000
C 	C 	0.73223 0.97187 0.76990 0.27200
C 	C 	0.71935 0.95297 0.78339 -0.04100
C 	C 	0.69980 0.94457 0.77515 0.00100
H 	H 	0.69350 0.95070 0.76260 0.04400
C 	C 	0.68958 0.92706 0.78563 -0.09800
H 	H 	0.67650 0.92140 0.78010 0.06500
C 	C 	0.69892 0.91795 0.80436 0.05800
C 	C 	0.71847 0.92635 0.81260 -0.09900
H 	H 	0.72470 0.92030 0.82510 0.06700
C 	C 	0.72869 0.94386 0.80212 0.00300
H 	H 	0.74180 0.94950 0.80760 0.05000
C 	C 	0.68791 0.89945 0.81665 -0.03400
C 	C 	0.67656 0.88488 0.80324 0.00200
H 	H 	0.67660 0.88680 0.78810 0.02900
C 	C 	0.66507 0.86746 0.81248 -0.13100
H 	H 	0.65750 0.85770 0.80350 0.08100
C 	C 	0.66495 0.86460 0.83512 0.11800
C 	C 	0.67630 0.87917 0.84852 -0.13100
H 	H 	0.67620 0.87730 0.86370 0.08000
C 	C 	0.68779 0.89659 0.83929 0.00200
H 	H 	0.69540 0.90630 0.84830 0.03000
O 	O 	0.72161 0.48284 0.25471 -0.41300
O 	O 	0.75032 0.47515 0.28067 -0.36000
C 	C 	0.73223 0.47187 0.26990 0.27200
C 	C 	0.71935 0.45297 0.28339 -0.04100
C 	C 	0.69980 0.44457 0.27515 0.00100
H 	H 	0.69350 0.45070 0.26260 0.04400
C 	C 	0.68958 0.42706 0.28563 -0.09800
H 	H 	0.67650 0.42140 0.28010 0.06500
C 	C 	0.69892 0.41795 0.30436 0.05800
C 	C 	0.71847 0.42635 0.31260 -0.09900
H 	H 	0.72470 0.42030 0.32510 0.06700
C 	C 	0.72869 0.44386 0.30212 0.00300
H 	H 	0.74180 0.44950 0.30760 0.05000
C 	C 	0.68791 0.39945 0.31665 -0.03400
C 	C 	0.67656 0.38488 0.30324 0.00200
H 	H 	0.67660 0.38680 0.28810 0.02900
C 	C 	0.66507 0.36746 0.31248 -0.13100
H 	H 	0.65750 0.35770 0.30350 0.08100
C 	C 	0.66495 0.36460 0.33512 0.11800
C 	C 	0.67630 0.37917 0.34852 -0.13100
H 	H 	0.67620 0.37730 0.36370 0.08000
C 	C 	0.68779 0.39659 0.33929 0.00200
H 	H 	0.69540 0.40630 0.34830 0.03000
O 	O 	0.77839 0.98284 0.74529 -0.41300
O 	O 	0.74968 0.97515 0.71933 -0.36000
C 	C 	0.76777 0.97187 0.73010 0.27200
C 	C 	0.78065 0.95297 0.71661 -0.04100
C 	C 	0.80020 0.94457 0.72485 0.00100
H 	H 	0.80650 0.95070 0.73740 0.04400
C 	C 	0.81042 0.92706 0.71437 -0.09800
H 	H 	0.82350 0.92140 0.71990 0.06500
C 	C 	0.80108 0.91795 0.69564 0.05800
C 	C 	0.78153 0.92635 0.68740 -0.09900
H 	H 	0.77530 0.92030 0.67490 0.06700
C 	C 	0.77131 0.94386 0.69788 0.00300
H 	H 	0.75820 0.94950 0.69240 0.05000
C 	C 	0.81209 0.89945 0.68335 -0.03400
C 	C 	0.82344 0.88488 0.69676 0.00200
H 	H 	0.82340 0.88680 0.71190 0.02900
C 	C 	0.83493 0.86746 0.68752 -0.13100
H 	H 	0.84250 0.85770 0.69650 0.08100
C 	C 	0.83505 0.86460 0.66488 0.11800
C 	C 	0.82370 0.87917 0.65148 -0.13100
H 	H 	0.82380 0.87730 0.63630 0.08000
C 	C 	0.81221 0.89659 0.66071 0.00200
H 	H 	0.80460 0.90630 0.65170 0.03000
O 	O 	0.77839 0.48284 0.24529 -0.41300
O 	O 	0.74968 0.47515 0.21933 -0.36000
C 	C 	0.76777 0.47187 0.23010 0.27200
C 	C 	0.78065 0.45297 0.21661 -0.04100
C 	C 	0.80020 0.44457 0.22485 0.00100
H 	H 	0.80650 0.45070 0.23740 0.04400
C 	C 	0.81042 0.42706 0.21437 -0.09800
H 	H 	0.82350 0.42140 0.21990 0.06500
C 	C 	0.80108 0.41795 0.19564 0.05800
C 	C 	0.78153 0.42635 0.18740 -0.09900
H 	H 	0.77530 0.42030 0.17490 0.06700
C 	C 	0.77131 0.44386 0.19788 0.00300
H 	H 	0.75820 0.44950 0.19240 0.05000
C 	C 	0.81209 0.39945 0.18335 -0.03400
C 	C 	0.82344 0.38488 0.19676 0.00200
H 	H 	0.82340 0.38680 0.21190 0.02900
C 	C 	0.83493 0.36746 0.18752 -0.13100
H 	H 	0.84250 0.35770 0.19650 0.08100
C 	C 	0.83505 0.36460 0.16488 0.11800
C 	C 	0.82370 0.37917 0.15148 -0.13100
H 	H 	0.82380 0.37730 0.13630 0.08000
C 	C 	0.81221 0.39659 0.16071 0.00200
H 	H 	0.80460 0.40630 0.15170 0.03000
O 	O 	0.27839 0.98284 0.24529 -0.41300
O 	O 	0.24968 0.97515 0.21933 -0.36000
C 	C 	0.26777 0.97187 0.23010 0.27200
C 	C 	0.28065 0.95297 0.21661 -0.04100
C 	C 	0.30020 0.94457 0.22485 0.00100
H 	H 	0.30650 0.95070 0.23740 0.04400
C 	C 	0.31042 0.92706 0.21437 -0.09800
H 	H 	0.32350 0.92140 0.21990 0.06500
C 	C 	0.30108 0.91795 0.19564 0.05800
C 	C 	0.28153 0.92635 0.18740 -0.09900
H 	H 	0.27530 0.92030 0.17490 0.06700
C 	C 	0.27131 0.94386 0.19788 0.00300
H 	H 	0.25820 0.94950 0.19240 0.05000
C 	C 	0.31209 0.89945 0.18335 -0.03400
C 	C 	0.32344 0.88488 0.19676 0.00200
H 	H 	0.32340 0.88680 0.21190 0.02900
C 	C 	0.33493 0.86746 0.18752 -0.13100
H 	H 	0.34250 0.85770 0.19650 0.08100
C 	C 	0.33505 0.86460 0.16488 0.11800
C 	C 	0.32370 0.87917 0.15148 -0.13100
H 	H 	0.32380 0.87730 0.13630 0.08000
C 	C 	0.31221 0.89659 0.16071 0.00200
H 	H 	0.30460 0.90630 0.15170 0.03000
O 	O 	0.27839 0.48284 0.74529 -0.41300
O 	O 	0.24968 0.47515 0.71933 -0.36000
C 	C 	0.26777 0.47187 0.73010 0.27200
C 	C 	0.28065 0.45297 0.71661 -0.04100
C 	C 	0.30020 0.44457 0.72485 0.00100
H 	H 	0.30650 0.45070 0.73740 0.04400
C 	C 	0.31042 0.42706 0.71437 -0.09800
H 	H 	0.32350 0.42140 0.71990 0.06500
C 	C 	0.30108 0.41795 0.69564 0.05800
C 	C 	0.28153 0.42635 0.68740 -0.09900
H 	H 	0.27530 0.42030 0.67490 0.06700
C 	C 	0.27131 0.44386 0.69788 0.00300
H 	H 	0.25820 0.44950 0.69240 0.05000
C 	C 	0.31209 0.39945 0.68335 -0.03400
C 	C 	0.32344 0.38488 0.69676 0.00200
H 	H 	0.32340 0.38680 0.71190 0.02900
C 	C 	0.33493 0.36746 0.68752 -0.13100
H 	H 	0.34250 0.35770 0.69650 0.08100
C 	C 	0.33505 0.36460 0.66488 0.11800
C 	C 	0.32370 0.37917 0.65148 -0.13100
H 	H 	0.32380 0.37730 0.63630 0.08000
C 	C 	0.31221 0.39659 0.66071 0.00200
H 	H 	0.30460 0.40630 0.65170 0.03000
O 	O 	0.77839 0.01716 0.25471 -0.41300
O 	O 	0.74968 0.02485 0.28067 -0.36000
C 	C 	0.76777 0.02813 0.26990 0.27200
C 	C 	0.78065 0.04703 0.28339 -0.04100
C 	C 	0.80020 0.05543 0.27515 0.00100
H 	H 	0.80650 0.04930 0.26260 0.04400
C 	C 	0.81042 0.07294 0.28563 -0.09800
H 	H 	0.82350 0.07860 0.28010 0.06500
C 	C 	0.80108 0.08205 0.30436 0.05800
C 	C 	0.78153 0.07365 0.31260 -0.09900
H 	H 	0.77530 0.07970 0.32510 0.06700
C 	C 	0.77131 0.05614 0.30212 0.00300
H 	H 	0.75820 0.05050 0.30760 0.05000
C 	C 	0.81209 0.10055 0.31665 -0.03400
C 	C 	0.82344 0.11512 0.30324 0.00200
H 	H 	0.82340 0.11320 0.28810 0.02900
C 	C 	0.83493 0.13254 0.31248 -0.13100
H 	H 	0.84250 0.14230 0.30350 0.08100
C 	C 	0.83505 0.13540 0.33512 0.11800
C 	C 	0.82370 0.12083 0.34852 -0.13100
H 	H 	0.82380 0.12270 0.36370 0.08000
C 	C 	0.81221 0.10341 0.33929 0.00200
H 	H 	0.80460 0.09370 0.34830 0.03000
O 	O 	0.77839 0.51716 0.75471 -0.41300
O 	O 	0.74968 0.52485 0.78067 -0.36000
C 	C 	0.76777 0.52813 0.76990 0.27200
C 	C 	0.78065 0.54703 0.78339 -0.04100
C 	C 	0.80020 0.55543 0.77515 0.00100
H 	H 	0.80650 0.54930 0.76260 0.04400
C 	C 	0.81042 0.57294 0.78563 -0.09800
H 	H 	0.82350 0.57860 0.78010 0.06500
C 	C 	0.80108 0.58205 0.80436 0.05800
C 	C 	0.78153 0.57365 0.81260 -0.09900
H 	H 	0.77530 0.57970 0.82510 0.06700
C 	C 	0.77131 0.55614 0.80212 0.00300
H 	H 	0.75820 0.55050 0.80760 0.05000
C 	C 	0.81209 0.60055 0.81665 -0.03400
C 	C 	0.82344 0.61512 0.80324 0.00200
H 	H 	0.82340 0.61320 0.78810 0.02900
C 	C 	0.83493 0.63254 0.81248 -0.13100
H 	H 	0.84250 0.64230 0.80350 0.08100
C 	C 	0.83505 0.63540 0.83512 0.11800
C 	C 	0.82370 0.62083 0.84852 -0.13100
H 	H 	0.82380 0.62270 0.86370 0.08000
C 	C 	0.81221 0.60341 0.83929 0.00200
H 	H 	0.80460 0.59370 0.84830 0.03000
O 	O 	0.27839 0.01716 0.75471 -0.41300
O 	O 	0.24968 0.02485 0.78067 -0.36000
C 	C 	0.26777 0.02813 0.76990 0.27200
C 	C 	0.28065 0.04703 0.78339 -0.04100
C 	C 	0.30020 0.05543 0.77515 0.00100
H 	H 	0.30650 0.04930 0.76260 0.04400
C 	C 	0.31042 0.07294 0.78563 -0.09800
H 	H 	0.32350 0.07860 0.78010 0.06500
C 	C 	0.30108 0.08205 0.80436 0.05800
C 	C 	0.28153 0.07365 0.81260 -0.09900
H 	H 	0.27530 0.07970 0.82510 0.06700
C 	C 	0.27131 0.05614 0.80212 0.00300
H 	H 	0.25820 0.05050 0.80760 0.05000
C 	C 	0.31209 0.10055 0.81665 -0.03400
C 	C 	0.32344 0.11512 0.80324 0.00200
H 	H 	0.32340 0.11320 0.78810 0.02900
C 	C 	0.33493 0.13254 0.81248 -0.13100
H 	H 	0.34250 0.14230 0.80350 0.08100
C 	C 	0.33505 0.13540 0.83512 0.11800
C 	C 	0.32370 0.12083 0.84852 -0.13100
H 	H 	0.32380 0.12270 0.86370 0.08000
C 	C 	0.31221 0.10341 0.83929 0.00200
H 	H 	0.30460 0.09370 0.84830 0.03000
O 	O 	0.27839 0.51716 0.25471 -0.41300
O 	O 	0.24968 0.52485 0.28067 -0.36000
C 	C 	0.26777 0.52813 0.26990 0.27200
C 	C 	0.28065 0.54703 0.28339 -0.04100
C 	C 	0.30020 0.55543 0.27515 0.00100
H 	H 	0.30650 0.54930 0.26260 0.04400
C 	C 	0.31042 0.57294 0.28563 -0.09800
H 	H 	0.32350 0.57860 0.28010 0.06500
C 	C 	0.30108 0.58205 0.30436 0.05800
C 	C 	0.28153 0.57365 0.31260 -0.09900
H 	H 	0.27530 0.57970 0.32510 0.06700
C 	C 	0.27131 0.55614 0.30212 0.00300
H 	H 	0.25820 0.55050 0.30760 0.05000
C 	C 	0.31209 0.60055 0.31665 -0.03400
C 	C 	0.32344 0.61512 0.30324 0.00200
H 	H 	0.32340 0.61320 0.28810 0.02900
C 	C 	0.33493 0.63254 0.31248 -0.13100
H 	H 	0.34250 0.64230 0.30350 0.08100
C 	C 	0.33505 0.63540 0.33512 0.11800
C 	C 	0.32370 0.62083 0.34852 -0.13100
H 	H 	0.32380 0.62270 0.36370 0.08000
C 	C 	0.31221 0.60341 0.33929 0.00200
H 	H 	0.30460 0.59370 0.34830 0.03000
O 	O 	0.74529 0.22161 0.01716 -0.41300
O 	O 	0.71933 0.25032 0.02485 -0.36000
C 	C 	0.73010 0.23223 0.02813 0.27200
C 	C 	0.71661 0.21935 0.04703 -0.04100
C 	C 	0.72485 0.19980 0.05543 0.00100
H 	H 	0.73740 0.19350 0.04930 0.04400
C 	C 	0.71437 0.18958 0.07294 -0.09800
H 	H 	0.71990 0.17650 0.07860 0.06500
C 	C 	0.69564 0.19892 0.08205 0.05800
C 	C 	0.68740 0.21847 0.07365 -0.09900
H 	H 	0.67490 0.22470 0.07970 0.06700
C 	C 	0.69788 0.22869 0.05614 0.00300
H 	H 	0.69240 0.24180 0.05050 0.05000
C 	C 	0.68335 0.18791 0.10055 -0.03400
C 	C 	0.69676 0.17656 0.11512 0.00200
H 	H 	0.71190 0.17660 0.11320 0.02900
C 	C 	0.68752 0.16507 0.13254 -0.13100
H 	H 	0.69650 0.15750 0.14230 0.08100
C 	C 	0.66488 0.16495 0.13540 0.11800
C 	C 	0.65148 0.17630 0.12083 -0.13100
H 	H 	0.63630 0.17620 0.12270 0.08000
C 	C 	0.66071 0.18779 0.10341 0.00200
H 	H 	0.65170 0.19540 0.09370 0.03000
O 	O 	0.74529 0.72161 0.51716 -0.41300
O 	O 	0.71933 0.75032 0.52485 -0.36000
C 	C 	0.73010 0.73223 0.52813 0.27200
C 	C 	0.71661 0.71935 0.54703 -0.04100
C 	C 	0.72485 0.69980 0.55543 0.00100
H 	H 	0.73740 0.69350 0.54930 0.04400
C 	C 	0.71437 0.68958 0.57294 -0.09800
H 	H 	0.71990 0.67650 0.57860 0.06500
C 	C 	0.69564 0.69892 0.58205 0.05800
C 	C 	0.68740 0.71847 0.57365 -0.09900
H 	H 	0.67490 0.72470 0.57970 0.06700
C 	C 	0.69788 0.72869 0.55614 0.00300
H 	H 	0.69240 0.74180 0.55050 0.05000
C 	C 	0.68335 0.68791 0.60055 -0.03400
C 	C 	0.69676 0.67656 0.61512 0.00200
H 	H 	0.71190 0.67660 0.61320 0.02900
C 	C 	0.68752 0.66507 0.63254 -0.13100
H 	H 	0.69650 0.65750 0.64230 0.08100
C 	C 	0.66488 0.66495 0.63540 0.11800
C 	C 	0.65148 0.67630 0.62083 -0.13100
H 	H 	0.63630 0.67620 0.62270 0.08000
C 	C 	0.66071 0.68779 0.60341 0.00200
H 	H 	0.65170 0.69540 0.59370 0.03000
O 	O 	0.24529 0.22161 0.51716 -0.41300
O 	O 	0.21933 0.25032 0.52485 -0.36000
C 	C 	0.23010 0.23223 0.52813 0.27200
C 	C 	0.21661 0.21935 0.54703 -0.04100
C 	C 	0.22485 0.19980 0.55543 0.00100
H 	H 	0.23740 0.19350 0.54930 0.04400
C 	C 	0.21437 0.18958 0.57294 -0.09800
H 	H 	0.21990 0.17650 0.57860 0.06500
C 	C 	0.19564 0.19892 0.58205 0.05800
C 	C 	0.18740 0.21847 0.57365 -0.09900
H 	H 	0.17490 0.22470 0.57970 0.06700
C 	C 	0.19788 0.22869 0.55614 0.00300
H 	H 	0.19240 0.24180 0.55050 0.05000
C 	C 	0.18335 0.18791 0.60055 -0.03400
C 	C 	0.19676 0.17656 0.61512 0.00200
H 	H 	0.21190 0.17660 0.61320 0.02900
C 	C 	0.18752 0.16507 0.63254 -0.13100
H 	H 	0.19650 0.15750 0.64230 0.08100
C 	C 	0.16488 0.16495 0.63540 0.11800
C 	C 	0.15148 0.17630 0.62083 -0.13100
H 	H 	0.13630 0.17620 0.62270 0.08000
C 	C 	0.16071 0.18779 0.60341 0.00200
H 	H 	0.15170 0.19540 0.59370 0.03000
O 	O 	0.24529 0.72161 0.01716 -0.41300
O 	O 	0.21933 0.75032 0.02485 -0.36000
C 	C 	0.23010 0.73223 0.02813 0.27200
C 	C 	0.21661 0.71935 0.04703 -0.04100
C 	C 	0.22485 0.69980 0.05543 0.00100
H 	H 	0.23740 0.69350 0.04930 0.04400
C 	C 	0.21437 0.68958 0.07294 -0.09800
H 	H 	0.21990 0.67650 0.07860 0.06500
C 	C 	0.19564 0.69892 0.08205 0.05800
C 	C 	0.18740 0.71847 0.07365 -0.09900
H 	H 	0.17490 0.72470 0.07970 0.06700
C 	C 	0.19788 0.72869 0.05614 0.00300
H 	H 	0.19240 0.74180 0.05050 0.05000
C 	C 	0.18335 0.68791 0.10055 -0.03400
C 	C 	0.19676 0.67656 0.11512 0.00200
H 	H 	0.21190 0.67660 0.11320 0.02900
C 	C 	0.18752 0.66507 0.13254 -0.13100
H 	H 	0.19650 0.65750 0.14230 0.08100
C 	C 	0.16488 0.66495 0.13540 0.11800
C 	C 	0.15148 0.67630 0.12083 -0.13100
H 	H 	0.13630 0.67620 0.12270 0.08000
C 	C 	0.16071 0.68779 0.10341 0.00200
H 	H 	0.15170 0.69540 0.09370 0.03000
O 	O 	0.25471 0.22161 0.98284 -0.41300
O 	O 	0.28067 0.25032 0.97515 -0.36000
C 	C 	0.26990 0.23223 0.97187 0.27200
C 	C 	0.28339 0.21935 0.95297 -0.04100
C 	C 	0.27515 0.19980 0.94457 0.00100
H 	H 	0.26260 0.19350 0.95070 0.04400
C 	C 	0.28563 0.18958 0.92706 -0.09800
H 	H 	0.28010 0.17650 0.92140 0.06500
C 	C 	0.30436 0.19892 0.91795 0.05800
C 	C 	0.31260 0.21847 0.92635 -0.09900
H 	H 	0.32510 0.22470 0.92030 0.06700
C 	C 	0.30212 0.22869 0.94386 0.00300
H 	H 	0.30760 0.24180 0.94950 0.05000
C 	C 	0.31665 0.18791 0.89945 -0.03400
C 	C 	0.30324 0.17656 0.88488 0.00200
H 	H 	0.28810 0.17660 0.88680 0.02900
C 	C 	0.31248 0.16507 0.86746 -0.13100
H 	H 	0.30350 0.15750 0.85770 0.08100
C 	C 	0.33512 0.16495 0.86460 0.11800
C 	C 	0.34852 0.17630 0.87917 -0.13100
H 	H 	0.36370 0.17620 0.87730 0.08000
C 	C 	0.33929 0.18779 0.89659 0.00200
H 	H 	0.34830 0.19540 0.90630 0.03000
O 	O 	0.25471 0.72161 0.48284 -0.41300
O 	O 	0.28067 0.75032 0.47515 -0.36000
C 	C 	0.26990 0.73223 0.47187 0.27200
C 	C 	0.28339 0.71935 0.45297 -0.04100
C 	C 	0.27515 0.69980 0.44457 0.00100
H 	H 	0.26260 0.69350 0.45070 0.04400
C 	C 	0.28563 0.68958 0.42706 -0.09800
H 	H 	0.28010 0.67650 0.42140 0.06500
C 	C 	0.30436 0.69892 0.41795 0.05800
C 	C 	0.31260 0.71847 0.42635 -0.09900
H 	H 	0.32510 0.72470 0.42030 0.06700
C 	C 	0.30212 0.72869 0.44386 0.00300
H 	H 	0.30760 0.74180 0.44950 0.05000
C 	C 	0.31665 0.68791 0.39945 -0.03400
C 	C 	0.30324 0.67656 0.38488 0.00200
H 	H 	0.28810 0.67660 0.38680 0.02900
C 	C 	0.31248 0.66507 0.36746 -0.13100
H 	H 	0.30350 0.65750 0.35770 0.08100
C 	C 	0.33512 0.66495 0.36460 0.11800
C 	C 	0.34852 0.67630 0.37917 -0.13100
H 	H 	0.36370 0.67620 0.37730 0.08000
C 	C 	0.33929 0.68779 0.39659 0.00200
H 	H 	0.34830 0.69540 0.40630 0.03000
O 	O 	0.75471 0.22161 0.48284 -0.41300
O 	O 	0.78067 0.25032 0.47515 -0.36000
C 	C 	0.76990 0.23223 0.47187 0.27200
C 	C 	0.78339 0.21935 0.45297 -0.04100
C 	C 	0.77515 0.19980 0.44457 0.00100
H 	H 	0.76260 0.19350 0.45070 0.04400
C 	C 	0.78563 0.18958 0.42706 -0.09800
H 	H 	0.78010 0.17650 0.42140 0.06500
C 	C 	0.80436 0.19892 0.41795 0.05800
C 	C 	0.81260 0.21847 0.42635 -0.09900
H 	H 	0.82510 0.22470 0.42030 0.06700
C 	C 	0.80212 0.22869 0.44386 0.00300
H 	H 	0.80760 0.24180 0.44950 0.05000
C 	C 	0.81665 0.18791 0.39945 -0.03400
C 	C 	0.80324 0.17656 0.38488 0.00200
H 	H 	0.78810 0.17660 0.38680 0.02900
C 	C 	0.81248 0.16507 0.36746 -0.13100
H 	H 	0.80350 0.15750 0.35770 0.08100
C 	C 	0.83512 0.16495 0.36460 0.11800
C 	C 	0.84852 0.17630 0.37917 -0.13100
H 	H 	0.86370 0.17620 0.37730 0.08000
C 	C 	0.83929 0.18779 0.39659 0.00200
H 	H 	0.84830 0.19540 0.40630 0.03000
O 	O 	0.75471 0.72161 0.98284 -0.41300
O 	O 	0.78067 0.75032 0.97515 -0.36000
C 	C 	0.76990 0.73223 0.97187 0.27200
C 	C 	0.78339 0.71935 0.95297 -0.04100
C 	C 	0.77515 0.69980 0.94457 0.00100
H 	H 	0.76260 0.69350 0.95070 0.04400
C 	C 	0.78563 0.68958 0.92706 -0.09800
H 	H 	0.78010 0.67650 0.92140 0.06500
C 	C 	0.80436 0.69892 0.91795 0.05800
C 	C 	0.81260 0.71847 0.92635 -0.09900
H 	H 	0.82510 0.72470 0.92030 0.06700
C 	C 	0.80212 0.72869 0.94386 0.00300
H 	H 	0.80760 0.74180 0.94950 0.05000
C 	C 	0.81665 0.68791 0.89945 -0.03400
C 	C 	0.80324 0.67656 0.88488 0.00200
H 	H 	0.78810 0.67660 0.88680 0.02900
C 	C 	0.81248 0.66507 0.86746 -0.13100
H 	H 	0.80350 0.65750 0.85770 0.08100
C 	C 	0.83512 0.66495 0.86460 0.11800
C 	C 	0.84852 0.67630 0.87917 -0.13100
H 	H 	0.86370 0.67620 0.87730 0.08000
C 	C 	0.83929 0.68779 0.89659 0.00200
H 	H 	0.84830 0.69540 0.90630 0.03000
O 	O 	0.74529 0.77839 0.98284 -0.41300
O 	O 	0.71933 0.74968 0.97515 -0.36000
C 	C 	0.73010 0.76777 0.97187 0.27200
C 	C 	0.71661 0.78065 0.95297 -0.04100
C 	C 	0.72485 0.80020 0.94457 0.00100
H 	H 	0.73740 0.80650 0.95070 0.04400
C 	C 	0.71437 0.81042 0.92706 -0.09800
H 	H 	0.71990 0.82350 0.92140 0.06500
C 	C 	0.69564 0.80108 0.91795 0.05800
C 	C 	0.68740 0.78153 0.92635 -0.09900
H 	H 	0.67490 0.77530 0.92030 0.06700
C 	C 	0.69788 0.77131 0.94386 0.00300
H 	H 	0.69240 0.75820 0.94950 0.05000
C 	C 	0.68335 0.81209 0.89945 -0.03400
C 	C 	0.69676 0.82344 0.88488 0.00200
H 	H 	0.71190 0.82340 0.88680 0.02900
C 	C 	0.68752 0.83493 0.86746 -0.13100
H 	H 	0.69650 0.84250 0.85770 0.08100
C 	C 	0.66488 0.83505 0.86460 0.11800
C 	C 	0.65148 0.82370 0.87917 -0.13100
H 	H 	0.63630 0.82380 0.87730 0.08000
C 	C 	0.66071 0.81221 0.89659 0.00200
H 	H 	0.65170 0.80460 0.90630 0.03000
O 	O 	0.74529 0.27839 0.48284 -0.41300
O 	O 	0.71933 0.24968 0.47515 -0.36000
C 	C 	0.73010 0.26777 0.47187 0.27200
C 	C 	0.71661 0.28065 0.45297 -0.04100
C 	C 	0.72485 0.30020 0.44457 0.00100
H 	H 	0.73740 0.30650 0.45070 0.04400
C 	C 	0.71437 0.31042 0.42706 -0.09800
H 	H 	0.71990 0.32350 0.42140 0.06500
C 	C 	0.69564 0.30108 0.41795 0.05800
C 	C 	0.68740 0.28153 0.42635 -0.09900
H 	H 	0.67490 0.27530 0.42030 0.06700
C 	C 	0.69788 0.27131 0.44386 0.00300
H 	H 	0.69240 0.25820 0.44950 0.05000
C 	C 	0.68335 0.31209 0.39945 -0.03400
C 	C 	0.69676 0.32344 0.38488 0.00200
H 	H 	0.71190 0.32340 0.38680 0.02900
C 	C 	0.68752 0.33493 0.36746 -0.13100
H 	H 	0.69650 0.34250 0.35770 0.08100
C 	C 	0.66488 0.33505 0.36460 0.11800
C 	C 	0.65148 0.32370 0.37917 -0.13100
H 	H 	0.63630 0.32380 0.37730 0.08000
C 	C 	0.66071 0.31221 0.39659 0.00200
H 	H 	0.65170 0.30460 0.40630 0.03000
O 	O 	0.24529 0.77839 0.48284 -0.41300
O 	O 	0.21933 0.74968 0.47515 -0.36000
C 	C 	0.23010 0.76777 0.47187 0.27200
C 	C 	0.21661 0.78065 0.45297 -0.04100
C 	C 	0.22485 0.80020 0.44457 0.00100
H 	H 	0.23740 0.80650 0.45070 0.04400
C 	C 	0.21437 0.81042 0.42706 -0.09800
H 	H 	0.21990 0.82350 0.42140 0.06500
C 	C 	0.19564 0.80108 0.41795 0.05800
C 	C 	0.18740 0.78153 0.42635 -0.09900
H 	H 	0.17490 0.77530 0.42030 0.06700
C 	C 	0.19788 0.77131 0.44386 0.00300
H 	H 	0.19240 0.75820 0.44950 0.05000
C 	C 	0.18335 0.81209 0.39945 -0.03400
C 	C 	0.19676 0.82344 0.38488 0.00200
H 	H 	0.21190 0.82340 0.38680 0.02900
C 	C 	0.18752 0.83493 0.36746 -0.13100
H 	H 	0.19650 0.84250 0.35770 0.08100
C 	C 	0.16488 0.83505 0.36460 0.11800
C 	C 	0.15148 0.82370 0.37917 -0.13100
H 	H 	0.13630 0.82380 0.37730 0.08000
C 	C 	0.16071 0.81221 0.39659 0.00200
H 	H 	0.15170 0.80460 0.40630 0.03000
O 	O 	0.24529 0.27839 0.98284 -0.41300
O 	O 	0.21933 0.24968 0.97515 -0.36000
C 	C 	0.23010 0.26777 0.97187 0.27200
C 	C 	0.21661 0.28065 0.95297 -0.04100
C 	C 	0.22485 0.30020 0.94457 0.00100
H 	H 	0.23740 0.30650 0.95070 0.04400
C 	C 	0.21437 0.31042 0.92706 -0.09800
H 	H 	0.21990 0.32350 0.92140 0.06500
C 	C 	0.19564 0.30108 0.91795 0.05800
C 	C 	0.18740 0.28153 0.92635 -0.09900
H 	H 	0.17490 0.27530 0.92030 0.06700
C 	C 	0.19788 0.27131 0.94386 0.00300
H 	H 	0.19240 0.25820 0.94950 0.05000
C 	C 	0.18335 0.31209 0.89945 -0.03400
C 	C 	0.19676 0.32344 0.88488 0.00200
H 	H 	0.21190 0.32340 0.88680 0.02900
C 	C 	0.18752 0.33493 0.86746 -0.13100
H 	H 	0.19650 0.34250 0.85770 0.08100
C 	C 	0.16488 0.33505 0.86460 0.11800
C 	C 	0.15148 0.32370 0.87917 -0.13100
H 	H 	0.13630 0.32380 0.87730 0.08000
C 	C 	0.16071 0.31221 0.89659 0.00200
H 	H 	0.15170 0.30460 0.90630 0.03000
O 	O 	0.25471 0.77839 0.01716 -0.41300
O 	O 	0.28067 0.74968 0.02485 -0.36000
C 	C 	0.26990 0.76777 0.02813 0.27200
C 	C 	0.28339 0.78065 0.04703 -0.04100
C 	C 	0.27515 0.80020 0.05543 0.00100
H 	H 	0.26260 0.80650 0.04930 0.04400
C 	C 	0.28563 0.81042 0.07294 -0.09800
H 	H 	0.28010 0.82350 0.07860 0.06500
C 	C 	0.30436 0.80108 0.08205 0.05800
C 	C 	0.31260 0.78153 0.07365 -0.09900
H 	H 	0.32510 0.77530 0.07970 0.06700
C 	C 	0.30212 0.77131 0.05614 0.00300
H 	H 	0.30760 0.75820 0.05050 0.05000
C 	C 	0.31665 0.81209 0.10055 -0.03400
C 	C 	0.30324 0.82344 0.11512 0.00200
H 	H 	0.28810 0.82340 0.11320 0.02900
C 	C 	0.31248 0.83493 0.13254 -0.13100
H 	H 	0.30350 0.84250 0.14230 0.08100
C 	C 	0.33512 0.83505 0.13540 0.11800
C 	C 	0.34852 0.82370 0.12083 -0.13100
H 	H 	0.36370 0.82380 0.12270 0.08000
C 	C 	0.33929 0.81221 0.10341 0.00200
H 	H 	0.34830 0.80460 0.09370 0.03000
O 	O 	0.25471 0.27839 0.51716 -0.41300
O 	O 	0.28067 0.24968 0.52485 -0.36000
C 	C 	0.26990 0.26777 0.52813 0.27200
C 	C 	0.28339 0.28065 0.54703 -0.04100
C 	C 	0.27515 0.30020 0.55543 0.00100
H 	H 	0.26260 0.30650 0.54930 0.04400
C 	C 	0.28563 0.31042 0.57294 -0.09800
H 	H 	0.28010 0.32350 0.57860 0.06500
C 	C 	0.30436 0.30108 0.58205 0.05800
C 	C 	0.31260 0.28153 0.57365 -0.09900
H 	H 	0.32510 0.27530 0.57970 0.06700
C 	C 	0.30212 0.27131 0.55614 0.00300
H 	H 	0.30760 0.25820 0.55050 0.05000
C 	C 	0.31665 0.31209 0.60055 -0.03400
C 	C 	0.30324 0.32344 0.61512 0.00200
H 	H 	0.28810 0.32340 0.61320 0.02900
C 	C 	0.31248 0.33493 0.63254 -0.13100
H 	H 	0.30350 0.34250 0.64230 0.08100
C 	C 	0.33512 0.33505 0.63540 0.11800
C 	C 	0.34852 0.32370 0.62083 -0.13100
H 	H 	0.36370 0.32380 0.62270 0.08000
C 	C 	0.33929 0.31221 0.60341 0.00200
H 	H 	0.34830 0.30460 0.59370 0.03000
O 	O 	0.75471 0.77839 0.51716 -0.41300
O 	O 	0.78067 0.74968 0.52485 -0.36000
C 	C 	0.76990 0.76777 0.52813 0.27200
C 	C 	0.78339 0.78065 0.54703 -0.04100
C 	C 	0.77515 0.80020 0.55543 0.00100
H 	H 	0.76260 0.80650 0.54930 0.04400
C 	C 	0.78563 0.81042 0.57294 -0.09800
H 	H 	0.78010 0.82350 0.57860 0.06500
C 	C 	0.80436 0.80108 0.58205 0.05800
C 	C 	0.81260 0.78153 0.57365 -0.09900
H 	H 	0.82510 0.77530 0.57970 0.06700
C 	C 	0.80212 0.77131 0.55614 0.00300
H 	H 	0.80760 0.75820 0.55050 0.05000
C 	C 	0.81665 0.81209 0.60055 -0.03400
C 	C 	0.80324 0.82344 0.61512 0.00200
H 	H 	0.78810 0.82340 0.61320 0.02900
C 	C 	0.81248 0.83493 0.63254 -0.13100
H 	H 	0.80350 0.84250 0.64230 0.08100
C 	C 	0.83512 0.83505 0.63540 0.11800
C 	C 	0.84852 0.82370 0.62083 -0.13100
H 	H 	0.86370 0.82380 0.62270 0.08000
C 	C 	0.83929 0.81221 0.60341 0.00200
H 	H 	0.84830 0.80460 0.59370 0.03000
O 	O 	0.75471 0.27839 0.01716 -0.41300
O 	O 	0.78067 0.24968 0.02485 -0.36000
C 	C 	0.76990 0.26777 0.02813 0.27200
C 	C 	0.78339 0.28065 0.04703 -0.04100
C 	C 	0.77515 0.30020 0.05543 0.00100
H 	H 	0.76260 0.30650 0.04930 0.04400
C 	C 	0.78563 0.31042 0.07294 -0.09800
H 	H 	0.78010 0.32350 0.07860 0.06500
C 	C 	0.80436 0.30108 0.08205 0.05800
C 	C 	0.81260 0.28153 0.07365 -0.09900
H 	H 	0.82510 0.27530 0.07970 0.06700
C 	C 	0.80212 0.27131 0.05614 0.00300
H 	H 	0.80760 0.25820 0.05050 0.05000
C 	C 	0.81665 0.31209 0.10055 -0.03400
C 	C 	0.80324 0.32344 0.11512 0.00200
H 	H 	0.78810 0.32340 0.11320 0.02900
C 	C 	0.81248 0.33493 0.13254 -0.13100
H 	H 	0.80350 0.34250 0.14230 0.08100
C 	C 	0.83512 0.33505 0.13540 0.11800
C 	C 	0.84852 0.32370 0.12083 -0.13100
H 	H 	0.86370 0.32380 0.12270 0.08000
C 	C 	0.83929 0.31221 0.10341 0.00200
H 	H 	0.84830 0.30460 0.09370 0.03000
O 	O 	0.74529 0.01716 0.77839 -0.41300
O 	O 	0.71933 0.02485 0.74968 -0.36000
C 	C 	0.73010 0.02813 0.76777 0.27200
C 	C 	0.71661 0.04703 0.78065 -0.04100
C 	C 	0.72485 0.05543 0.80020 0.00100
H 	H 	0.73740 0.04930 0.80650 0.04400
C 	C 	0.71437 0.07294 0.81042 -0.09800
H 	H 	0.71990 0.07860 0.82350 0.06500
C 	C 	0.69564 0.08205 0.80108 0.05800
C 	C 	0.68740 0.07365 0.78153 -0.09900
H 	H 	0.67490 0.07970 0.77530 0.06700
C 	C 	0.69788 0.05614 0.77131 0.00300
H 	H 	0.69240 0.05050 0.75820 0.05000
C 	C 	0.68335 0.10055 0.81209 -0.03400
C 	C 	0.69676 0.11512 0.82344 0.00200
H 	H 	0.71190 0.11320 0.82340 0.02900
C 	C 	0.68752 0.13254 0.83493 -0.13100
H 	H 	0.69650 0.14230 0.84250 0.08100
C 	C 	0.66488 0.13540 0.83505 0.11800
C 	C 	0.65148 0.12083 0.82370 -0.13100
H 	H 	0.63630 0.12270 0.82380 0.08000
C 	C 	0.66071 0.10341 0.81221 0.00200
H 	H 	0.65170 0.09370 0.80460 0.03000
O 	O 	0.74529 0.51716 0.27839 -0.41300
O 	O 	0.71933 0.52485 0.24968 -0.36000
C 	C 	0.73010 0.52813 0.26777 0.27200
C 	C 	0.71661 0.54703 0.28065 -0.04100
C 	C 	0.72485 0.55543 0.30020 0.00100
H 	H 	0.73740 0.54930 0.30650 0.04400
C 	C 	0.71437 0.57294 0.31042 -0.09800
H 	H 	0.71990 0.57860 0.32350 0.06500
C 	C 	0.69564 0.58205 0.30108 0.05800
C 	C 	0.68740 0.57365 0.28153 -0.09900
H 	H 	0.67490 0.57970 0.27530 0.06700
C 	C 	0.69788 0.55614 0.27131 0.00300
H 	H 	0.69240 0.55050 0.25820 0.05000
C 	C 	0.68335 0.60055 0.31209 -0.03400
C 	C 	0.69676 0.61512 0.32344 0.00200
H 	H 	0.71190 0.61320 0.32340 0.02900
C 	C 	0.68752 0.63254 0.33493 -0.13100
H 	H 	0.69650 0.64230 0.34250 0.08100
C 	C 	0.66488 0.63540 0.33505 0.11800
C 	C 	0.65148 0.62083 0.32370 -0.13100
H 	H 	0.63630 0.62270 0.32380 0.08000
C 	C 	0.66071 0.60341 0.31221 0.00200
H 	H 	0.65170 0.59370 0.30460 0.03000
O 	O 	0.24529 0.01716 0.27839 -0.41300
O 	O 	0.21933 0.02485 0.24968 -0.36000
C 	C 	0.23010 0.02813 0.26777 0.27200
C 	C 	0.21661 0.04703 0.28065 -0.04100
C 	C 	0.22485 0.05543 0.30020 0.00100
H 	H 	0.23740 0.04930 0.30650 0.04400
C 	C 	0.21437 0.07294 0.31042 -0.09800
H 	H 	0.21990 0.07860 0.32350 0.06500
C 	C 	0.19564 0.08205 0.30108 0.05800
C 	C 	0.18740 0.07365 0.28153 -0.09900
H 	H 	0.17490 0.07970 0.27530 0.06700
C 	C 	0.19788 0.05614 0.27131 0.00300
H 	H 	0.19240 0.05050 0.25820 0.05000
C 	C 	0.18335 0.10055 0.31209 -0.03400
C 	C 	0.19676 0.11512 0.32344 0.00200
H 	H 	0.21190 0.11320 0.32340 0.02900
C 	C 	0.18752 0.13254 0.33493 -0.13100
H 	H 	0.19650 0.14230 0.34250 0.08100
C 	C 	0.16488 0.13540 0.33505 0.11800
C 	C 	0.15148 0.12083 0.32370 -0.13100
H 	H 	0.13630 0.12270 0.32380 0.08000
C 	C 	0.16071 0.10341 0.31221 0.00200
H 	H 	0.15170 0.09370 0.30460 0.03000
O 	O 	0.24529 0.51716 0.77839 -0.41300
O 	O 	0.21933 0.52485 0.74968 -0.36000
C 	C 	0.23010 0.52813 0.76777 0.27200
C 	C 	0.21661 0.54703 0.78065 -0.04100
C 	C 	0.22485 0.55543 0.80020 0.00100
H 	H 	0.23740 0.54930 0.80650 0.04400
C 	C 	0.21437 0.57294 0.81042 -0.09800
H 	H 	0.21990 0.57860 0.82350 0.06500
C 	C 	0.19564 0.58205 0.80108 0.05800
C 	C 	0.18740 0.57365 0.78153 -0.09900
H 	H 	0.17490 0.57970 0.77530 0.06700
C 	C 	0.19788 0.55614 0.77131 0.00300
H 	H 	0.19240 0.55050 0.75820 0.05000
C 	C 	0.18335 0.60055 0.81209 -0.03400
C 	C 	0.19676 0.61512 0.82344 0.00200
H 	H 	0.21190 0.61320 0.82340 0.02900
C 	C 	0.18752 0.63254 0.83493 -0.13100
H 	H 	0.19650 0.64230 0.84250 0.08100
C 	C 	0.16488 0.63540 0.83505 0.11800
C 	C 	0.15148 0.62083 0.82370 -0.13100
H 	H 	0.13630 0.62270 0.82380 0.08000
C 	C 	0.16071 0.60341 0.81221 0.00200
H 	H 	0.15170 0.59370 0.80460 0.03000
O 	O 	0.25471 0.98284 0.77839 -0.41300
O 	O 	0.28067 0.97515 0.74968 -0.36000
C 	C 	0.26990 0.97187 0.76777 0.27200
C 	C 	0.28339 0.95297 0.78065 -0.04100
C 	C 	0.27515 0.94457 0.80020 0.00100
H 	H 	0.26260 0.95070 0.80650 0.04400
C 	C 	0.28563 0.92706 0.81042 -0.09800
H 	H 	0.28010 0.92140 0.82350 0.06500
C 	C 	0.30436 0.91795 0.80108 0.05800
C 	C 	0.31260 0.92635 0.78153 -0.09900
H 	H 	0.32510 0.92030 0.77530 0.06700
C 	C 	0.30212 0.94386 0.77131 0.00300
H 	H 	0.30760 0.94950 0.75820 0.05000
C 	C 	0.31665 0.89945 0.81209 -0.03400
C 	C 	0.30324 0.88488 0.82344 0.00200
H 	H 	0.28810 0.88680 0.82340 0.02900
C 	C 	0.31248 0.86746 0.83493 -0.13100
H 	H 	0.30350 0.85770 0.84250 0.08100
C 	C 	0.33512 0.86460 0.83505 0.11800
C 	C 	0.34852 0.87917 0.82370 -0.13100
H 	H 	0.36370 0.87730 0.82380 0.08000
C 	C 	0.33929 0.89659 0.81221 0.00200
H 	H 	0.34830 0.90630 0.80460 0.03000
O 	O 	0.25471 0.48284 0.27839 -0.41300
O 	O 	0.28067 0.47515 0.24968 -0.36000
C 	C 	0.26990 0.47187 0.26777 0.27200
C 	C 	0.28339 0.45297 0.28065 -0.04100
C 	C 	0.27515 0.44457 0.30020 0.00100
H 	H 	0.26260 0.45070 0.30650 0.04400
C 	C 	0.28563 0.42706 0.31042 -0.09800
H 	H 	0.28010 0.42140 0.32350 0.06500
C 	C 	0.30436 0.41795 0.30108 0.05800
C 	C 	0.31260 0.42635 0.28153 -0.09900
H 	H 	0.32510 0.42030 0.27530 0.06700
C 	C 	0.30212 0.44386 0.27131 0.00300
H 	H 	0.30760 0.44950 0.25820 0.05000
C 	C 	0.31665 0.39945 0.31209 -0.03400
C 	C 	0.30324 0.38488 0.32344 0.00200
H 	H 	0.28810 0.38680 0.32340 0.02900
C 	C 	0.31248 0.36746 0.33493 -0.13100
H 	H 	0.30350 0.35770 0.34250 0.08100
C 	C 	0.33512 0.36460 0.33505 0.11800
C 	C 	0.34852 0.37917 0.32370 -0.13100
H 	H 	0.36370 0.37730 0.32380 0.08000
C 	C 	0.33929 0.39659 0.31221 0.00200
H 	H 	0.34830 0.40630 0.30460 0.03000
O 	O 	0.75471 0.98284 0.27839 -0.41300
O 	O 	0.78067 0.97515 0.24968 -0.36000
C 	C 	0.76990 0.97187 0.26777 0.27200
C 	C 	0.78339 0.95297 0.28065 -0.04100
C 	C 	0.77515 0.94457 0.30020 0.00100
H 	H 	0.76260 0.95070 0.30650 0.04400
C 	C 	0.78563 0.92706 0.31042 -0.09800
H 	H 	0.78010 0.92140 0.32350 0.06500
C 	C 	0.80436 0.91795 0.30108 0.05800
C 	C 	0.81260 0.92635 0.28153 -0.09900
H 	H 	0.82510 0.92030 0.27530 0.06700
C 	C 	0.80212 0.94386 0.27131 0.00300
H 	H 	0.80760 0.94950 0.25820 0.05000
C 	C 	0.81665 0.89945 0.31209 -0.03400
C 	C 	0.80324 0.88488 0.32344 0.00200
H 	H 	0.78810 0.88680 0.32340 0.02900
C 	C 	0.81248 0.86746 0.33493 -0.13100
H 	H 	0.80350 0.85770 0.34250 0.08100
C 	C 	0.83512 0.86460 0.33505 0.11800
C 	C 	0.84852 0.87917 0.32370 -0.13100
H 	H 	0.86370 0.87730 0.32380 0.08000
C 	C 	0.83929 0.89659 0.31221 0.00200
H 	H 	0.84830 0.90630 0.30460 0.03000
O 	O 	0.75471 0.48284 0.77839 -0.41300
O 	O 	0.78067 0.47515 0.74968 -0.36000
C 	C 	0.76990 0.47187 0.76777 0.27200
C 	C 	0.78339 0.45297 0.78065 -0.04100
C 	C 	0.77515 0.44457 0.80020 0.00100
H 	H 	0.76260 0.45070 0.80650 0.04400
C 	C 	0.78563 0.42706 0.81042 -0.09800
H 	H 	0.78010 0.42140 0.82350 0.06500
C 	C 	0.80436 0.41795 0.80108 0.05800
C 	C 	0.81260 0.42635 0.78153 -0.09900
H 	H 	0.82510 0.42030 0.77530 0.06700
C 	C 	0.80212 0.44386 0.77131 0.00300
H 	H 	0.80760 0.44950 0.75820 0.05000
C 	C 	0.81665 0.39945 0.81209 -0.03400
C 	C 	0.80324 0.38488 0.82344 0.00200
H 	H 	0.78810 0.38680 0.82340 0.02900
C 	C 	0.81248 0.36746 0.83493 -0.13100
H 	H 	0.80350 0.35770 0.84250 0.08100
C 	C 	0.83512 0.36460 0.83505 0.11800
C 	C 	0.84852 0.37917 0.82370 -0.13100
H 	H 	0.86370 0.37730 0.82380 0.08000
C 	C 	0.83929 0.39659 0.81221 0.00200
H 	H 	0.84830 0.40630 0.80460 0.03000
O 	O 	0.74529 0.98284 0.22161 -0.41300
O 	O 	0.71933 0.97515 0.25032 -0.36000
C 	C 	0.73010 0.97187 0.23223 0.27200
C 	C 	0.71661 0.95297 0.21935 -0.04100
C 	C 	0.72485 0.94457 0.19980 0.00100
H 	H 	0.73740 0.95070 0.19350 0.04400
C 	C 	0.71437 0.92706 0.18958 -0.09800
H 	H 	0.71990 0.92140 0.17650 0.06500
C 	C 	0.69564 0.91795 0.19892 0.05800
C 	C 	0.68740 0.92635 0.21847 -0.09900
H 	H 	0.67490 0.92030 0.22470 0.06700
C 	C 	0.69788 0.94386 0.22869 0.00300
H 	H 	0.69240 0.94950 0.24180 0.05000
C 	C 	0.68335 0.89945 0.18791 -0.03400
C 	C 	0.69676 0.88488 0.17656 0.00200
H 	H 	0.71190 0.88680 0.17660 0.02900
C 	C 	0.68752 0.86746 0.16507 -0.13100
H 	H 	0.69650 0.85770 0.15750 0.08100
C 	C 	0.66488 0.86460 0.16495 0.11800
C 	C 	0.65148 0.87917 0.17630 -0.13100
H 	H 	0.63630 0.87730 0.17620 0.08000
C 	C 	0.66071 0.89659 0.18779 0.00200
H 	H 	0.65170 0.90630 0.19540 0.03000
O 	O 	0.74529 0.48284 0.72161 -0.41300
O 	O 	0.71933 0.47515 0.75032 -0.36000
C 	C 	0.73010 0.47187 0.73223 0.27200
C 	C 	0.71661 0.45297 0.71935 -0.04100
C 	C 	0.72485 0.44457 0.69980 0.00100
H 	H 	0.73740 0.45070 0.69350 0.04400
C 	C 	0.71437 0.42706 0.68958 -0.09800
H 	H 	0.71990 0.42140 0.67650 0.06500
C 	C 	0.69564 0.41795 0.69892 0.05800
C 	C 	0.68740 0.42635 0.71847 -0.09900
H 	H 	0.67490 0.42030 0.72470 0.06700
C 	C 	0.69788 0.44386 0.72869 0.00300
H 	H 	0.69240 0.44950 0.74180 0.05000
C 	C 	0.68335 0.39945 0.68791 -0.03400
C 	C 	0.69676 0.38488 0.67656 0.00200
H 	H 	0.71190 0.38680 0.67660 0.02900
C 	C 	0.68752 0.36746 0.66507 -0.13100
H 	H 	0.69650 0.35770 0.65750 0.08100
C 	C 	0.66488 0.36460 0.66495 0.11800
C 	C 	0.65148 0.37917 0.67630 -0.13100
H 	H 	0.63630 0.37730 0.67620 0.08000
C 	C 	0.66071 0.39659 0.68779 0.00200
H 	H 	0.65170 0.40630 0.69540 0.03000
O 	O 	0.24529 0.98284 0.72161 -0.41300
O 	O 	0.21933 0.97515 0.75032 -0.36000
C 	C 	0.23010 0.97187 0.73223 0.27200
C 	C 	0.21661 0.95297 0.71935 -0.04100
C 	C 	0.22485 0.94457 0.69980 0.00100
H 	H 	0.23740 0.95070 0.69350 0.04400
C 	C 	0.21437 0.92706 0.68958 -0.09800
H 	H 	0.21990 0.92140 0.67650 0.06500
C 	C 	0.19564 0.91795 0.69892 0.05800
C 	C 	0.18740 0.92635 0.71847 -0.09900
H 	H 	0.17490 0.92030 0.72470 0.06700
C 	C 	0.19788 0.94386 0.72869 0.00300
H 	H 	0.19240 0.94950 0.74180 0.05000
C 	C 	0.18335 0.89945 0.68791 -0.03400
C 	C 	0.19676 0.88488 0.67656 0.00200
H 	H 	0.21190 0.88680 0.67660 0.02900
C 	C 	0.18752 0.86746 0.66507 -0.13100
H 	H 	0.19650 0.85770 0.65750 0.08100
C 	C 	0.16488 0.86460 0.66495 0.11800
C 	C 	0.15148 0.87917 0.67630 -0.13100
H 	H 	0.13630 0.87730 0.67620 0.08000
C 	C 	0.16071 0.89659 0.68779 0.00200
H 	H 	0.15170 0.90630 0.69540 0.03000
O 	O 	0.24529 0.48284 0.22161 -0.41300
O 	O 	0.21933 0.47515 0.25032 -0.36000
C 	C 	0.23010 0.47187 0.23223 0.27200
C 	C 	0.21661 0.45297 0.21935 -0.04100
C 	C 	0.22485 0.44457 0.19980 0.00100
H 	H 	0.23740 0.45070 0.19350 0.04400
C 	C 	0.21437 0.42706 0.18958 -0.09800
H 	H 	0.21990 0.42140 0.17650 0.06500
C 	C 	0.19564 0.41795 0.19892 0.05800
C 	C 	0.18740 0.42635 0.21847 -0.09900
H 	H 	0.17490 0.42030 0.22470 0.06700
C 	C 	0.19788 0.44386 0.22869 0.00300
H 	H 	0.19240 0.44950 0.24180 0.05000
C 	C 	0.18335 0.39945 0.18791 -0.03400
C 	C 	0.19676 0.38488 0.17656 0.00200
H 	H 	0.21190 0.38680 0.17660 0.02900
C 	C 	0.18752 0.36746 0.16507 -0.13100
H 	H 	0.19650 0.35770 0.15750 0.08100
C 	C 	0.16488 0.36460 0.16495 0.11800
C 	C 	0.15148 0.37917 0.17630 -0.13100
H 	H 	0.13630 0.37730 0.17620 0.08000
C 	C 	0.16071 0.39659 0.18779 0.00200
H 	H 	0.15170 0.40630 0.19540 0.03000
O 	O 	0.25471 0.01716 0.22161 -0.41300
O 	O 	0.28067 0.02485 0.25032 -0.36000
C 	C 	0.26990 0.02813 0.23223 0.27200
C 	C 	0.28339 0.04703 0.21935 -0.04100
C 	C 	0.27515 0.05543 0.19980 0.00100
H 	H 	0.26260 0.04930 0.19350 0.04400
C 	C 	0.28563 0.07294 0.18958 -0.09800
H 	H 	0.28010 0.07860 0.17650 0.06500
C 	C 	0.30436 0.08205 0.19892 0.05800
C 	C 	0.31260 0.07365 0.21847 -0.09900
H 	H 	0.32510 0.07970 0.22470 0.06700
C 	C 	0.30212 0.05614 0.22869 0.00300
H 	H 	0.30760 0.05050 0.24180 0.05000
C 	C 	0.31665 0.10055 0.18791 -0.03400
C 	C 	0.30324 0.11512 0.17656 0.00200
H 	H 	0.28810 0.11320 0.17660 0.02900
C 	C 	0.31248 0.13254 0.16507 -0.13100
H 	H 	0.30350 0.14230 0.15750 0.08100
C 	C 	0.33512 0.13540 0.16495 0.11800
C 	C 	0.34852 0.12083 0.17630 -0.13100
H 	H 	0.36370 0.12270 0.17620 0.08000
C 	C 	0.33929 0.10341 0.18779 0.00200
H 	H 	0.34830 0.09370 0.19540 0.03000
O 	O 	0.25471 0.51716 0.72161 -0.41300
O 	O 	0.28067 0.52485 0.75032 -0.36000
C 	C 	0.26990 0.52813 0.73223 0.27200
C 	C 	0.28339 0.54703 0.71935 -0.04100
C 	C 	0.27515 0.55543 0.69980 0.00100
H 	H 	0.26260 0.54930 0.69350 0.04400
C 	C 	0.28563 0.57294 0.68958 -0.09800
H 	H 	0.28010 0.57860 0.67650 0.06500
C 	C 	0.30436 0.58205 0.69892 0.05800
C 	C 	0.31260 0.57365 0.71847 -0.09900
H 	H 	0.32510 0.57970 0.72470 0.06700
C 	C 	0.30212 0.55614 0.72869 0.00300
H 	H 	0.30760 0.55050 0.74180 0.05000
C 	C 	0.31665 0.60055 0.68791 -0.03400
C 	C 	0.30324 0.61512 0.67656 0.00200
H 	H 	0.28810 0.61320 0.67660 0.02900
C 	C 	0.31248 0.63254 0.66507 -0.13100
H 	H 	0.30350 0.64230 0.65750 0.08100
C 	C 	0.33512 0.63540 0.66495 0.11800
C 	C 	0.34852 0.62083 0.67630 -0.13100
H 	H 	0.36370 0.62270 0.67620 0.08000
C 	C 	0.33929 0.60341 0.68779 0.00200
H 	H 	0.34830 0.59370 0.69540 0.03000
O 	O 	0.75471 0.01716 0.72161 -0.41300
O 	O 	0.78067 0.02485 0.75032 -0.36000
C 	C 	0.76990 0.02813 0.73223 0.27200
C 	C 	0.78339 0.04703 0.71935 -0.04100
C 	C 	0.77515 0.05543 0.69980 0.00100
H 	H 	0.76260 0.04930 0.69350 0.04400
C 	C 	0.78563 0.07294 0.68958 -0.09800
H 	H 	0.78010 0.07860 0.67650 0.06500
C 	C 	0.80436 0.08205 0.69892 0.05800
C 	C 	0.81260 0.07365 0.71847 -0.09900
H 	H 	0.82510 0.07970 0.72470 0.06700
C 	C 	0.80212 0.05614 0.72869 0.00300
H 	H 	0.80760 0.05050 0.74180 0.05000
C 	C 	0.81665 0.10055 0.68791 -0.03400
C 	C 	0.80324 0.11512 0.67656 0.00200
H 	H 	0.78810 0.11320 0.67660 0.02900
C 	C 	0.81248 0.13254 0.66507 -0.13100
H 	H 	0.80350 0.14230 0.65750 0.08100
C 	C 	0.83512 0.13540 0.66495 0.11800
C 	C 	0.84852 0.12083 0.67630 -0.13100
H 	H 	0.86370 0.12270 0.67620 0.08000
C 	C 	0.83929 0.10341 0.68779 0.00200
H 	H 	0.84830 0.09370 0.69540 0.03000
O 	O 	0.75471 0.51716 0.22161 -0.41300
O 	O 	0.78067 0.52485 0.25032 -0.36000
C 	C 	0.76990 0.52813 0.23223 0.27200
C 	C 	0.78339 0.54703 0.21935 -0.04100
C 	C 	0.77515 0.55543 0.19980 0.00100
H 	H 	0.76260 0.54930 0.19350 0.04400
C 	C 	0.78563 0.57294 0.18958 -0.09800
H 	H 	0.78010 0.57860 0.17650 0.06500
C 	C 	0.80436 0.58205 0.19892 0.05800
C 	C 	0.81260 0.57365 0.21847 -0.09900
H 	H 	0.82510 0.57970 0.22470 0.06700
C 	C 	0.80212 0.55614 0.22869 0.00300
H 	H 	0.80760 0.55050 0.24180 0.05000
C 	C 	0.81665 0.60055 0.18791 -0.03400
C 	C 	0.80324 0.61512 0.17656 0.00200
H 	H 	0.78810 0.61320 0.17660 0.02900
C 	C 	0.81248 0.63254 0.16507 -0.13100
H 	H 	0.80350 0.64230 0.15750 0.08100
C 	C 	0.83512 0.63540 0.16495 0.11800
C 	C 	0.84852 0.62083 0.17630 -0.13100
H 	H 	0.86370 0.62270 0.17620 0.08000
C 	C 	0.83929 0.60341 0.18779 0.00200
H 	H 	0.84830 0.59370 0.19540 0.03000
O 	O 	0.01716 0.22161 0.25471 -0.41300
O 	O 	0.02485 0.25032 0.28067 -0.36000
C 	C 	0.02813 0.23223 0.26990 0.27200
C 	C 	0.04703 0.21935 0.28339 -0.04100
C 	C 	0.05543 0.19980 0.27515 0.00100
H 	H 	0.04930 0.19350 0.26260 0.04400
C 	C 	0.07294 0.18958 0.28563 -0.09800
H 	H 	0.07860 0.17650 0.28010 0.06500
C 	C 	0.08205 0.19892 0.30436 0.05800
C 	C 	0.07365 0.21847 0.31260 -0.09900
H 	H 	0.07970 0.22470 0.32510 0.06700
C 	C 	0.05614 0.22869 0.30212 0.00300
H 	H 	0.05050 0.24180 0.30760 0.05000
C 	C 	0.10055 0.18791 0.31665 -0.03400
C 	C 	0.11512 0.17656 0.30324 0.00200
H 	H 	0.11320 0.17660 0.28810 0.02900
C 	C 	0.13254 0.16507 0.31248 -0.13100
H 	H 	0.14230 0.15750 0.30350 0.08100
C 	C 	0.13540 0.16495 0.33512 0.11800
C 	C 	0.12083 0.17630 0.34852 -0.13100
H 	H 	0.12270 0.17620 0.36370 0.08000
C 	C 	0.10341 0.18779 0.33929 0.00200
H 	H 	0.09370 0.19540 0.34830 0.03000
O 	O 	0.01716 0.72161 0.75471 -0.41300
O 	O 	0.02485 0.75032 0.78067 -0.36000
C 	C 	0.02813 0.73223 0.76990 0.27200
C 	C 	0.04703 0.71935 0.78339 -0.04100
C 	C 	0.05543 0.69980 0.77515 0.00100
H 	H 	0.04930 0.69350 0.76260 0.04400
C 	C 	0.07294 0.68958 0.78563 -0.09800
H 	H 	0.07860 0.67650 0.78010 0.06500
C 	C 	0.08205 0.69892 0.80436 0.05800
C 	C 	0.07365 0.71847 0.81260 -0.09900
H 	H 	0.07970 0.72470 0.82510 0.06700
C 	C 	0.05614 0.72869 0.80212 0.00300
H 	H 	0.05050 0.74180 0.80760 0.05000
C 	C 	0.10055 0.68791 0.81665 -0.03400
C 	C 	0.11512 0.67656 0.80324 0.00200
H 	H 	0.11320 0.67660 0.78810 0.02900
C 	C 	0.13254 0.66507 0.81248 -0.13100
H 	H 	0.14230 0.65750 0.80350 0.08100
C 	C 	0.13540 0.66495 0.83512 0.11800
C 	C 	0.12083 0.67630 0.84852 -0.13100
H 	H 	0.12270 0.67620 0.86370 0.08000
C 	C 	0.10341 0.68779 0.83929 0.00200
H 	H 	0.09370 0.69540 0.84830 0.03000
O 	O 	0.51716 0.22161 0.75471 -0.41300
O 	O 	0.52485 0.25032 0.78067 -0.36000
C 	C 	0.52813 0.23223 0.76990 0.27200
C 	C 	0.54703 0.21935 0.78339 -0.04100
C 	C 	0.55543 0.19980 0.77515 0.00100
H 	H 	0.54930 0.19350 0.76260 0.04400
C 	C 	0.57294 0.18958 0.78563 -0.09800
H 	H 	0.57860 0.17650 0.78010 0.06500
C 	C 	0.58205 0.19892 0.80436 0.05800
C 	C 	0.57365 0.21847 0.81260 -0.09900
H 	H 	0.57970 0.22470 0.82510 0.06700
C 	C 	0.55614 0.22869 0.80212 0.00300
H 	H 	0.55050 0.24180 0.80760 0.05000
C 	C 	0.60055 0.18791 0.81665 -0.03400
C 	C 	0.61512 0.17656 0.80324 0.00200
H 	H 	0.61320 0.17660 0.78810 0.02900
C 	C 	0.63254 0.16507 0.81248 -0.13100
H 	H 	0.64230 0.15750 0.80350 0.08100
C 	C 	0.63540 0.16495 0.83512 0.11800
C 	C 	0.62083 0.17630 0.84852 -0.13100
H 	H 	0.62270 0.17620 0.86370 0.08000
C 	C 	0.60341 0.18779 0.83929 0.00200
H 	H 	0.59370 0.19540 0.84830 0.03000
O 	O 	0.51716 0.72161 0.25471 -0.41300
O 	O 	0.52485 0.75032 0.28067 -0.36000
C 	C 	0.52813 0.73223 0.26990 0.27200
C 	C 	0.54703 0.71935 0.28339 -0.04100
C 	C 	0.55543 0.69980 0.27515 0.00100
H 	H 	0.54930 0.69350 0.26260 0.04400
C 	C 	0.57294 0.68958 0.28563 -0.09800
H 	H 	0.57860 0.67650 0.28010 0.06500
C 	C 	0.58205 0.69892 0.30436 0.05800
C 	C 	0.57365 0.71847 0.31260 -0.09900
H 	H 	0.57970 0.72470 0.32510 0.06700
C 	C 	0.55614 0.72869 0.30212 0.00300
H 	H 	0.55050 0.74180 0.30760 0.05000
C 	C 	0.60055 0.68791 0.31665 -0.03400
C 	C 	0.61512 0.67656 0.30324 0.00200
H 	H 	0.61320 0.67660 0.28810 0.02900
C 	C 	0.63254 0.66507 0.31248 -0.13100
H 	H 	0.64230 0.65750 0.30350 0.08100
C 	C 	0.63540 0.66495 0.33512 0.11800
C 	C 	0.62083 0.67630 0.34852 -0.13100
H 	H 	0.62270 0.67620 0.36370 0.08000
C 	C 	0.60341 0.68779 0.33929 0.00200
H 	H 	0.59370 0.69540 0.34830 0.03000
O 	O 	0.98284 0.22161 0.74529 -0.41300
O 	O 	0.97515 0.25032 0.71933 -0.36000
C 	C 	0.97187 0.23223 0.73010 0.27200
C 	C 	0.95297 0.21935 0.71661 -0.04100
C 	C 	0.94457 0.19980 0.72485 0.00100
H 	H 	0.95070 0.19350 0.73740 0.04400
C 	C 	0.92706 0.18958 0.71437 -0.09800
H 	H 	0.92140 0.17650 0.71990 0.06500
C 	C 	0.91795 0.19892 0.69564 0.05800
C 	C 	0.92635 0.21847 0.68740 -0.09900
H 	H 	0.92030 0.22470 0.67490 0.06700
C 	C 	0.94386 0.22869 0.69788 0.00300
H 	H 	0.94950 0.24180 0.69240 0.05000
C 	C 	0.89945 0.18791 0.68335 -0.03400
C 	C 	0.88488 0.17656 0.69676 0.00200
H 	H 	0.88680 0.17660 0.71190 0.02900
C 	C 	0.86746 0.16507 0.68752 -0.13100
H 	H 	0.85770 0.15750 0.69650 0.08100
C 	C 	0.86460 0.16495 0.66488 0.11800
C 	C 	0.87917 0.17630 0.65148 -0.13100
H 	H 	0.87730 0.17620 0.63630 0.08000
C 	C 	0.89659 0.18779 0.66071 0.00200
H 	H 	0.90630 0.19540 0.65170 0.03000
O 	O 	0.98284 0.72161 0.24529 -0.41300
O 	O 	0.97515 0.75032 0.21933 -0.36000
C 	C 	0.97187 0.73223 0.23010 0.27200
C 	C 	0.95297 0.71935 0.21661 -0.04100
C 	C 	0.94457 0.69980 0.22485 0.00100
H 	H 	0.95070 0.69350 0.23740 0.04400
C 	C 	0.92706 0.68958 0.21437 -0.09800
H 	H 	0.92140 0.67650 0.21990 0.06500
C 	C 	0.91795 0.69892 0.19564 0.05800
C 	C 	0.92635 0.71847 0.18740 -0.09900
H 	H 	0.92030 0.72470 0.17490 0.06700
C 	C 	0.94386 0.72869 0.19788 0.00300
H 	H 	0.94950 0.74180 0.19240 0.05000
C 	C 	0.89945 0.68791 0.18335 -0.03400
C 	C 	0.88488 0.67656 0.19676 0.00200
H 	H 	0.88680 0.67660 0.21190 0.02900
C 	C 	0.86746 0.66507 0.18752 -0.13100
H 	H 	0.85770 0.65750 0.19650 0.08100
C 	C 	0.86460 0.66495 0.16488 0.11800
C 	C 	0.87917 0.67630 0.15148 -0.13100
H 	H 	0.87730 0.67620 0.13630 0.08000
C 	C 	0.89659 0.68779 0.16071 0.00200
H 	H 	0.90630 0.69540 0.15170 0.03000
O 	O 	0.48284 0.22161 0.24529 -0.41300
O 	O 	0.47515 0.25032 0.21933 -0.36000
C 	C 	0.47187 0.23223 0.23010 0.27200
C 	C 	0.45297 0.21935 0.21661 -0.04100
C 	C 	0.44457 0.19980 0.22485 0.00100
H 	H 	0.45070 0.19350 0.23740 0.04400
C 	C 	0.42706 0.18958 0.21437 -0.09800
H 	H 	0.42140 0.17650 0.21990 0.06500
C 	C 	0.41795 0.19892 0.19564 0.05800
C 	C 	0.42635 0.21847 0.18740 -0.09900
H 	H 	0.42030 0.22470 0.17490 0.06700
C 	C 	0.44386 0.22869 0.19788 0.00300
H 	H 	0.44950 0.24180 0.19240 0.05000
C 	C 	0.39945 0.18791 0.18335 -0.03400
C 	C 	0.38488 0.17656 0.19676 0.00200
H 	H 	0.38680 0.17660 0.21190 0.02900
C 	C 	0.36746 0.16507 0.18752 -0.13100
H 	H 	0.35770 0.15750 0.19650 0.08100
C 	C 	0.36460 0.16495 0.16488 0.11800
C 	C 	0.37917 0.17630 0.15148 -0.13100
H 	H 	0.37730 0.17620 0.13630 0.08000
C 	C 	0.39659 0.18779 0.16071 0.00200
H 	H 	0.40630 0.19540 0.15170 0.03000
O 	O 	0.48284 0.72161 0.74529 -0.41300
O 	O 	0.47515 0.75032 0.71933 -0.36000
C 	C 	0.47187 0.73223 0.73010 0.27200
C 	C 	0.45297 0.71935 0.71661 -0.04100
C 	C 	0.44457 0.69980 0.72485 0.00100
H 	H 	0.45070 0.69350 0.73740 0.04400
C 	C 	0.42706 0.68958 0.71437 -0.09800
H 	H 	0.42140 0.67650 0.71990 0.06500
C 	C 	0.41795 0.69892 0.69564 0.05800
C 	C 	0.42635 0.71847 0.68740 -0.09900
H 	H 	0.42030 0.72470 0.67490 0.06700
C 	C 	0.44386 0.72869 0.69788 0.00300
H 	H 	0.44950 0.74180 0.69240 0.05000
C 	C 	0.39945 0.68791 0.68335 -0.03400
C 	C 	0.38488 0.67656 0.69676 0.00200
H 	H 	0.38680 0.67660 0.71190 0.02900
C 	C 	0.36746 0.66507 0.68752 -0.13100
H 	H 	0.35770 0.65750 0.69650 0.08100
C 	C 	0.36460 0.66495 0.66488 0.11800
C 	C 	0.37917 0.67630 0.65148 -0.13100
H 	H 	0.37730 0.67620 0.63630 0.08000
C 	C 	0.39659 0.68779 0.66071 0.00200
H 	H 	0.40630 0.69540 0.65170 0.03000
O 	O 	0.98284 0.77839 0.25471 -0.41300
O 	O 	0.97515 0.74968 0.28067 -0.36000
C 	C 	0.97187 0.76777 0.26990 0.27200
C 	C 	0.95297 0.78065 0.28339 -0.04100
C 	C 	0.94457 0.80020 0.27515 0.00100
H 	H 	0.95070 0.80650 0.26260 0.04400
C 	C 	0.92706 0.81042 0.28563 -0.09800
H 	H 	0.92140 0.82350 0.28010 0.06500
C 	C 	0.91795 0.80108 0.30436 0.05800
C 	C 	0.92635 0.78153 0.31260 -0.09900
H 	H 	0.92030 0.77530 0.32510 0.06700
C 	C 	0.94386 0.77131 0.30212 0.00300
H 	H 	0.94950 0.75820 0.30760 0.05000
C 	C 	0.89945 0.81209 0.31665 -0.03400
C 	C 	0.88488 0.82344 0.30324 0.00200
H 	H 	0.88680 0.82340 0.28810 0.02900
C 	C 	0.86746 0.83493 0.31248 -0.13100
H 	H 	0.85770 0.84250 0.30350 0.08100
C 	C 	0.86460 0.83505 0.33512 0.11800
C 	C 	0.87917 0.82370 0.34852 -0.13100
H 	H 	0.87730 0.82380 0.36370 0.08000
C 	C 	0.89659 0.81221 0.33929 0.00200
H 	H 	0.90630 0.80460 0.34830 0.03000
O 	O 	0.98284 0.27839 0.75471 -0.41300
O 	O 	0.97515 0.24968 0.78067 -0.36000
C 	C 	0.97187 0.26777 0.76990 0.27200
C 	C 	0.95297 0.28065 0.78339 -0.04100
C 	C 	0.94457 0.30020 0.77515 0.00100
H 	H 	0.95070 0.30650 0.76260 0.04400
C 	C 	0.92706 0.31042 0.78563 -0.09800
H 	H 	0.92140 0.32350 0.78010 0.06500
C 	C 	0.91795 0.30108 0.80436 0.05800
C 	C 	0.92635 0.28153 0.81260 -0.09900
H 	H 	0.92030 0.27530 0.82510 0.06700
C 	C 	0.94386 0.27131 0.80212 0.00300
H 	H 	0.94950 0.25820 0.80760 0.05000
C 	C 	0.89945 0.31209 0.81665 -0.03400
C 	C 	0.88488 0.32344 0.80324 0.00200
H 	H 	0.88680 0.32340 0.78810 0.02900
C 	C 	0.86746 0.33493 0.81248 -0.13100
H 	H 	0.85770 0.34250 0.80350 0.08100
C 	C 	0.86460 0.33505 0.83512 0.11800
C 	C 	0.87917 0.32370 0.84852 -0.13100
H 	H 	0.87730 0.32380 0.86370 0.08000
C 	C 	0.89659 0.31221 0.83929 0.00200
H 	H 	0.90630 0.30460 0.84830 0.03000
O 	O 	0.48284 0.77839 0.75471 -0.41300
O 	O 	0.47515 0.74968 0.78067 -0.36000
C 	C 	0.47187 0.76777 0.76990 0.27200
C 	C 	0.45297 0.78065 0.78339 -0.04100
C 	C 	0.44457 0.80020 0.77515 0.00100
H 	H 	0.45070 0.80650 0.76260 0.04400
C 	C 	0.42706 0.81042 0.78563 -0.09800
H 	H 	0.42140 0.82350 0.78010 0.06500
C 	C 	0.41795 0.80108 0.80436 0.05800
C 	C 	0.42635 0.78153 0.81260 -0.09900
H 	H 	0.42030 0.77530 0.82510 0.06700
C 	C 	0.44386 0.77131 0.80212 0.00300
H 	H 	0.44950 0.75820 0.80760 0.05000
C 	C 	0.39945 0.81209 0.81665 -0.03400
C 	C 	0.38488 0.82344 0.80324 0.00200
H 	H 	0.38680 0.82340 0.78810 0.02900
C 	C 	0.36746 0.83493 0.81248 -0.13100
H 	H 	0.35770 0.84250 0.80350 0.08100
C 	C 	0.36460 0.83505 0.83512 0.11800
C 	C 	0.37917 0.82370 0.84852 -0.13100
H 	H 	0.37730 0.82380 0.86370 0.08000
C 	C 	0.39659 0.81221 0.83929 0.00200
H 	H 	0.40630 0.80460 0.84830 0.03000
O 	O 	0.48284 0.27839 0.25471 -0.41300
O 	O 	0.47515 0.24968 0.28067 -0.36000
C 	C 	0.47187 0.26777 0.26990 0.27200
C 	C 	0.45297 0.28065 0.28339 -0.04100
C 	C 	0.44457 0.30020 0.27515 0.00100
H 	H 	0.45070 0.30650 0.26260 0.04400
C 	C 	0.42706 0.31042 0.28563 -0.09800
H 	H 	0.42140 0.32350 0.28010 0.06500
C 	C 	0.41795 0.30108 0.30436 0.05800
C 	C 	0.42635 0.28153 0.31260 -0.09900
H 	H 	0.42030 0.27530 0.32510 0.06700
C 	C 	0.44386 0.27131 0.30212 0.00300
H 	H 	0.44950 0.25820 0.30760 0.05000
C 	C 	0.39945 0.31209 0.31665 -0.03400
C 	C 	0.38488 0.32344 0.30324 0.00200
H 	H 	0.38680 0.32340 0.28810 0.02900
C 	C 	0.36746 0.33493 0.31248 -0.13100
H 	H 	0.35770 0.34250 0.30350 0.08100
C 	C 	0.36460 0.33505 0.33512 0.11800
C 	C 	0.37917 0.32370 0.34852 -0.13100
H 	H 	0.37730 0.32380 0.36370 0.08000
C 	C 	0.39659 0.31221 0.33929 0.00200
H 	H 	0.40630 0.30460 0.34830 0.03000
O 	O 	0.01716 0.77839 0.74529 -0.41300
O 	O 	0.02485 0.74968 0.71933 -0.36000
C 	C 	0.02813 0.76777 0.73010 0.27200
C 	C 	0.04703 0.78065 0.71661 -0.04100
C 	C 	0.05543 0.80020 0.72485 0.00100
H 	H 	0.04930 0.80650 0.73740 0.04400
C 	C 	0.07294 0.81042 0.71437 -0.09800
H 	H 	0.07860 0.82350 0.71990 0.06500
C 	C 	0.08205 0.80108 0.69564 0.05800
C 	C 	0.07365 0.78153 0.68740 -0.09900
H 	H 	0.07970 0.77530 0.67490 0.06700
C 	C 	0.05614 0.77131 0.69788 0.00300
H 	H 	0.05050 0.75820 0.69240 0.05000
C 	C 	0.10055 0.81209 0.68335 -0.03400
C 	C 	0.11512 0.82344 0.69676 0.00200
H 	H 	0.11320 0.82340 0.71190 0.02900
C 	C 	0.13254 0.83493 0.68752 -0.13100
H 	H 	0.14230 0.84250 0.69650 0.08100
C 	C 	0.13540 0.83505 0.66488 0.11800
C 	C 	0.12083 0.82370 0.65148 -0.13100
H 	H 	0.12270 0.82380 0.63630 0.08000
C 	C 	0.10341 0.81221 0.66071 0.00200
H 	H 	0.09370 0.80460 0.65170 0.03000
O 	O 	0.01716 0.27839 0.24529 -0.41300
O 	O 	0.02485 0.24968 0.21933 -0.36000
C 	C 	0.02813 0.26777 0.23010 0.27200
C 	C 	0.04703 0.28065 0.21661 -0.04100
C 	C 	0.05543 0.30020 0.22485 0.00100
H 	H 	0.04930 0.30650 0.23740 0.04400
C 	C 	0.07294 0.31042 0.21437 -0.09800
H 	H 	0.07860 0.32350 0.21990 0.06500
C 	C 	0.08205 0.30108 0.19564 0.05800
C 	C 	0.07365 0.28153 0.18740 -0.09900
H 	H 	0.07970 0.27530 0.17490 0.06700
C 	C 	0.05614 0.27131 0.19788 0.00300
H 	H 	0.05050 0.25820 0.19240 0.05000
C 	C 	0.10055 0.31209 0.18335 -0.03400
C 	C 	0.11512 0.32344 0.19676 0.00200
H 	H 	0.11320 0.32340 0.21190 0.02900
C 	C 	0.13254 0.33493 0.18752 -0.13100
H 	H 	0.14230 0.34250 0.19650 0.08100
C 	C 	0.13540 0.33505 0.16488 0.11800
C 	C 	0.12083 0.32370 0.15148 -0.13100
H 	H 	0.12270 0.32380 0.13630 0.08000
C 	C 	0.10341 0.31221 0.16071 0.00200
H 	H 	0.09370 0.30460 0.15170 0.03000
O 	O 	0.51716 0.77839 0.24529 -0.41300
O 	O 	0.52485 0.74968 0.21933 -0.36000
C 	C 	0.52813 0.76777 0.23010 0.27200
C 	C 	0.54703 0.78065 0.21661 -0.04100
C 	C 	0.55543 0.80020 0.22485 0.00100
H 	H 	0.54930 0.80650 0.23740 0.04400
C 	C 	0.57294 0.81042 0.21437 -0.09800
H 	H 	0.57860 0.82350 0.21990 0.06500
C 	C 	0.58205 0.80108 0.19564 0.05800
C 	C 	0.57365 0.78153 0.18740 -0.09900
H 	H 	0.57970 0.77530 0.17490 0.06700
C 	C 	0.55614 0.77131 0.19788 0.00300
H 	H 	0.55050 0.75820 0.19240 0.05000
C 	C 	0.60055 0.81209 0.18335 -0.03400
C 	C 	0.61512 0.82344 0.19676 0.00200
H 	H 	0.61320 0.82340 0.21190 0.02900
C 	C 	0.63254 0.83493 0.18752 -0.13100
H 	H 	0.64230 0.84250 0.19650 0.08100
C 	C 	0.63540 0.83505 0.16488 0.11800
C 	C 	0.62083 0.82370 0.15148 -0.13100
H 	H 	0.62270 0.82380 0.13630 0.08000
C 	C 	0.60341 0.81221 0.16071 0.00200
H 	H 	0.59370 0.80460 0.15170 0.03000
O 	O 	0.51716 0.27839 0.74529 -0.41300
O 	O 	0.52485 0.24968 0.71933 -0.36000
C 	C 	0.52813 0.26777 0.73010 0.27200
C 	C 	0.54703 0.28065 0.71661 -0.04100
C 	C 	0.55543 0.30020 0.72485 0.00100
H 	H 	0.54930 0.30650 0.73740 0.04400
C 	C 	0.57294 0.31042 0.71437 -0.09800
H 	H 	0.57860 0.32350 0.71990 0.06500
C 	C 	0.58205 0.30108 0.69564 0.05800
C 	C 	0.57365 0.28153 0.68740 -0.09900
H 	H 	0.57970 0.27530 0.67490 0.06700
C 	C 	0.55614 0.27131 0.69788 0.00300
H 	H 	0.55050 0.25820 0.69240 0.05000
C 	C 	0.60055 0.31209 0.68335 -0.03400
C 	C 	0.61512 0.32344 0.69676 0.00200
H 	H 	0.61320 0.32340 0.71190 0.02900
C 	C 	0.63254 0.33493 0.68752 -0.13100
H 	H 	0.64230 0.34250 0.69650 0.08100
C 	C 	0.63540 0.33505 0.66488 0.11800
C 	C 	0.62083 0.32370 0.65148 -0.13100
H 	H 	0.62270 0.32380 0.63630 0.08000
C 	C 	0.60341 0.31221 0.66071 0.00200
H 	H 	0.59370 0.30460 0.65170 0.03000
O 	O 	0.22161 0.74529 0.98284 -0.41300
O 	O 	0.25032 0.71933 0.97515 -0.36000
C 	C 	0.23223 0.73010 0.97187 0.27200
C 	C 	0.21935 0.71661 0.95297 -0.04100
C 	C 	0.19980 0.72485 0.94457 0.00100
H 	H 	0.19350 0.73740 0.95070 0.04400
C 	C 	0.18958 0.71437 0.92706 -0.09800
H 	H 	0.17650 0.71990 0.92140 0.06500
C 	C 	0.19892 0.69564 0.91795 0.05800
C 	C 	0.21847 0.68740 0.92635 -0.09900
H 	H 	0.22470 0.67490 0.92030 0.06700
C 	C 	0.22869 0.69788 0.94386 0.00300
H 	H 	0.24180 0.69240 0.94950 0.05000
C 	C 	0.18791 0.68335 0.89945 -0.03400
C 	C 	0.17656 0.69676 0.88488 0.00200
H 	H 	0.17660 0.71190 0.88680 0.02900
C 	C 	0.16507 0.68752 0.86746 -0.13100
H 	H 	0.15750 0.69650 0.85770 0.08100
C 	C 	0.16495 0.66488 0.86460 0.11800
C 	C 	0.17630 0.65148 0.87917 -0.13100
H 	H 	0.17620 0.63630 0.87730 0.08000
C 	C 	0.18779 0.66071 0.89659 0.00200
H 	H 	0.19540 0.65170 0.90630 0.03000
O 	O 	0.22161 0.24529 0.48284 -0.41300
O 	O 	0.25032 0.21933 0.47515 -0.36000
C 	C 	0.23223 0.23010 0.47187 0.27200
C 	C 	0.21935 0.21661 0.45297 -0.04100
C 	C 	0.19980 0.22485 0.44457 0.00100
H 	H 	0.19350 0.23740 0.45070 0.04400
C 	C 	0.18958 0.21437 0.42706 -0.09800
H 	H 	0.17650 0.21990 0.42140 0.06500
C 	C 	0.19892 0.19564 0.41795 0.05800
C 	C 	0.21847 0.18740 0.42635 -0.09900
H 	H 	0.22470 0.17490 0.42030 0.06700
C 	C 	0.22869 0.19788 0.44386 0.00300
H 	H 	0.24180 0.19240 0.44950 0.05000
C 	C 	0.18791 0.18335 0.39945 -0.03400
C 	C 	0.17656 0.19676 0.38488 0.00200
H 	H 	0.17660 0.21190 0.38680 0.02900
C 	C 	0.16507 0.18752 0.36746 -0.13100
H 	H 	0.15750 0.19650 0.35770 0.08100
C 	C 	0.16495 0.16488 0.36460 0.11800
C 	C 	0.17630 0.15148 0.37917 -0.13100
H 	H 	0.17620 0.13630 0.37730 0.08000
C 	C 	0.18779 0.16071 0.39659 0.00200
H 	H 	0.19540 0.15170 0.40630 0.03000
O 	O 	0.72161 0.74529 0.48284 -0.41300
O 	O 	0.75032 0.71933 0.47515 -0.36000
C 	C 	0.73223 0.73010 0.47187 0.27200
C 	C 	0.71935 0.71661 0.45297 -0.04100
C 	C 	0.69980 0.72485 0.44457 0.00100
H 	H 	0.69350 0.73740 0.45070 0.04400
C 	C 	0.68958 0.71437 0.42706 -0.09800
H 	H 	0.67650 0.71990 0.42140 0.06500
C 	C 	0.69892 0.69564 0.41795 0.05800
C 	C 	0.71847 0.68740 0.42635 -0.09900
H 	H 	0.72470 0.67490 0.42030 0.06700
C 	C 	0.72869 0.69788 0.44386 0.00300
H 	H 	0.74180 0.69240 0.44950 0.05000
C 	C 	0.68791 0.68335 0.39945 -0.03400
C 	C 	0.67656 0.69676 0.38488 0.00200
H 	H 	0.67660 0.71190 0.38680 0.02900
C 	C 	0.66507 0.68752 0.36746 -0.13100
H 	H 	0.65750 0.69650 0.35770 0.08100
C 	C 	0.66495 0.66488 0.36460 0.11800
C 	C 	0.67630 0.65148 0.37917 -0.13100
H 	H 	0.67620 0.63630 0.37730 0.08000
C 	C 	0.68779 0.66071 0.39659 0.00200
H 	H 	0.69540 0.65170 0.40630 0.03000
O 	O 	0.72161 0.24529 0.98284 -0.41300
O 	O 	0.75032 0.21933 0.97515 -0.36000
C 	C 	0.73223 0.23010 0.97187 0.27200
C 	C 	0.71935 0.21661 0.95297 -0.04100
C 	C 	0.69980 0.22485 0.94457 0.00100
H 	H 	0.69350 0.23740 0.95070 0.04400
C 	C 	0.68958 0.21437 0.92706 -0.09800
H 	H 	0.67650 0.21990 0.92140 0.06500
C 	C 	0.69892 0.19564 0.91795 0.05800
C 	C 	0.71847 0.18740 0.92635 -0.09900
H 	H 	0.72470 0.17490 0.92030 0.06700
C 	C 	0.72869 0.19788 0.94386 0.00300
H 	H 	0.74180 0.19240 0.94950 0.05000
C 	C 	0.68791 0.18335 0.89945 -0.03400
C 	C 	0.67656 0.19676 0.88488 0.00200
H 	H 	0.67660 0.21190 0.88680 0.02900
C 	C 	0.66507 0.18752 0.86746 -0.13100
H 	H 	0.65750 0.19650 0.85770 0.08100
C 	C 	0.66495 0.16488 0.86460 0.11800
C 	C 	0.67630 0.15148 0.87917 -0.13100
H 	H 	0.67620 0.13630 0.87730 0.08000
C 	C 	0.68779 0.16071 0.89659 0.00200
H 	H 	0.69540 0.15170 0.90630 0.03000
O 	O 	0.22161 0.25471 0.01716 -0.41300
O 	O 	0.25032 0.28067 0.02485 -0.36000
C 	C 	0.23223 0.26990 0.02813 0.27200
C 	C 	0.21935 0.28339 0.04703 -0.04100
C 	C 	0.19980 0.27515 0.05543 0.00100
H 	H 	0.19350 0.26260 0.04930 0.04400
C 	C 	0.18958 0.28563 0.07294 -0.09800
H 	H 	0.17650 0.28010 0.07860 0.06500
C 	C 	0.19892 0.30436 0.08205 0.05800
C 	C 	0.21847 0.31260 0.07365 -0.09900
H 	H 	0.22470 0.32510 0.07970 0.06700
C 	C 	0.22869 0.30212 0.05614 0.00300
H 	H 	0.24180 0.30760 0.05050 0.05000
C 	C 	0.18791 0.31665 0.10055 -0.03400
C 	C 	0.17656 0.30324 0.11512 0.00200
H 	H 	0.17660 0.28810 0.11320 0.02900
C 	C 	0.16507 0.31248 0.13254 -0.13100
H 	H 	0.15750 0.30350 0.14230 0.08100
C 	C 	0.16495 0.33512 0.13540 0.11800
C 	C 	0.17630 0.34852 0.12083 -0.13100
H 	H 	0.17620 0.36370 0.12270 0.08000
C 	C 	0.18779 0.33929 0.10341 0.00200
H 	H 	0.19540 0.34830 0.09370 0.03000
O 	O 	0.22161 0.75471 0.51716 -0.41300
O 	O 	0.25032 0.78067 0.52485 -0.36000
C 	C 	0.23223 0.76990 0.52813 0.27200
C 	C 	0.21935 0.78339 0.54703 -0.04100
C 	C 	0.19980 0.77515 0.55543 0.00100
H 	H 	0.19350 0.76260 0.54930 0.04400
C 	C 	0.18958 0.78563 0.57294 -0.09800
H 	H 	0.17650 0.78010 0.57860 0.06500
C 	C 	0.19892 0.80436 0.58205 0.05800
C 	C 	0.21847 0.81260 0.57365 -0.09900
H 	H 	0.22470 0.82510 0.57970 0.06700
C 	C 	0.22869 0.80212 0.55614 0.00300
H 	H 	0.24180 0.80760 0.55050 0.05000
C 	C 	0.18791 0.81665 0.60055 -0.03400
C 	C 	0.17656 0.80324 0.61512 0.00200
H 	H 	0.17660 0.78810 0.61320 0.02900
C 	C 	0.16507 0.81248 0.63254 -0.13100
H 	H 	0.15750 0.80350 0.64230 0.08100
C 	C 	0.16495 0.83512 0.63540 0.11800
C 	C 	0.17630 0.84852 0.62083 -0.13100
H 	H 	0.17620 0.86370 0.62270 0.08000
C 	C 	0.18779 0.83929 0.60341 0.00200
H 	H 	0.19540 0.84830 0.59370 0.03000
O 	O 	0.72161 0.25471 0.51716 -0.41300
O 	O 	0.75032 0.28067 0.52485 -0.36000
C 	C 	0.73223 0.26990 0.52813 0.27200
C 	C 	0.71935 0.28339 0.54703 -0.04100
C 	C 	0.69980 0.27515 0.55543 0.00100
H 	H 	0.69350 0.26260 0.54930 0.04400
C 	C 	0.68958 0.28563 0.57294 -0.09800
H 	H 	0.67650 0.28010 0.57860 0.06500
C 	C 	0.69892 0.30436 0.58205 0.05800
C 	C 	0.71847 0.31260 0.57365 -0.09900
H 	H 	0.72470 0.32510 0.57970 0.06700
C 	C 	0.72869 0.30212 0.55614 0.00300
H 	H 	0.74180 0.30760 0.55050 0.05000
C 	C 	0.68791 0.31665 0.60055 -0.03400
C 	C 	0.67656 0.30324 0.61512 0.00200
H 	H 	0.67660 0.28810 0.61320 0.02900
C 	C 	0.66507 0.31248 0.63254 -0.13100
H 	H 	0.65750 0.30350 0.64230 0.08100
C 	C 	0.66495 0.33512 0.63540 0.11800
C 	C 	0.67630 0.34852 0.62083 -0.13100
H 	H 	0.67620 0.36370 0.62270 0.08000
C 	C 	0.68779 0.33929 0.60341 0.00200
H 	H 	0.69540 0.34830 0.59370 0.03000
O 	O 	0.72161 0.75471 0.01716 -0.41300
O 	O 	0.75032 0.78067 0.02485 -0.36000
C 	C 	0.73223 0.76990 0.02813 0.27200
C 	C 	0.71935 0.78339 0.04703 -0.04100
C 	C 	0.69980 0.77515 0.05543 0.00100
H 	H 	0.69350 0.76260 0.04930 0.04400
C 	C 	0.68958 0.78563 0.07294 -0.09800
H 	H 	0.67650 0.78010 0.07860 0.06500
C 	C 	0.69892 0.80436 0.08205 0.05800
C 	C 	0.71847 0.81260 0.07365 -0.09900
H 	H 	0.72470 0.82510 0.07970 0.06700
C 	C 	0.72869 0.80212 0.05614 0.00300
H 	H 	0.74180 0.80760 0.05050 0.05000
C 	C 	0.68791 0.81665 0.10055 -0.03400
C 	C 	0.67656 0.80324 0.11512 0.00200
H 	H 	0.67660 0.78810 0.11320 0.02900
C 	C 	0.66507 0.81248 0.13254 -0.13100
H 	H 	0.65750 0.80350 0.14230 0.08100
C 	C 	0.66495 0.83512 0.13540 0.11800
C 	C 	0.67630 0.84852 0.12083 -0.13100
H 	H 	0.67620 0.86370 0.12270 0.08000
C 	C 	0.68779 0.83929 0.10341 0.00200
H 	H 	0.69540 0.84830 0.09370 0.03000
O 	O 	0.77839 0.74529 0.01716 -0.41300
O 	O 	0.74968 0.71933 0.02485 -0.36000
C 	C 	0.76777 0.73010 0.02813 0.27200
C 	C 	0.78065 0.71661 0.04703 -0.04100
C 	C 	0.80020 0.72485 0.05543 0.00100
H 	H 	0.80650 0.73740 0.04930 0.04400
C 	C 	0.81042 0.71437 0.07294 -0.09800
H 	H 	0.82350 0.71990 0.07860 0.06500
C 	C 	0.80108 0.69564 0.08205 0.05800
C 	C 	0.78153 0.68740 0.07365 -0.09900
H 	H 	0.77530 0.67490 0.07970 0.06700
C 	C 	0.77131 0.69788 0.05614 0.00300
H 	H 	0.75820 0.69240 0.05050 0.05000
C 	C 	0.81209 0.68335 0.10055 -0.03400
C 	C 	0.82344 0.69676 0.11512 0.00200
H 	H 	0.82340 0.71190 0.11320 0.02900
C 	C 	0.83493 0.68752 0.13254 -0.13100
H 	H 	0.84250 0.69650 0.14230 0.08100
C 	C 	0.83505 0.66488 0.13540 0.11800
C 	C 	0.82370 0.65148 0.12083 -0.13100
H 	H 	0.82380 0.63630 0.12270 0.08000
C 	C 	0.81221 0.66071 0.10341 0.00200
H 	H 	0.80460 0.65170 0.09370 0.03000
O 	O 	0.77839 0.24529 0.51716 -0.41300
O 	O 	0.74968 0.21933 0.52485 -0.36000
C 	C 	0.76777 0.23010 0.52813 0.27200
C 	C 	0.78065 0.21661 0.54703 -0.04100
C 	C 	0.80020 0.22485 0.55543 0.00100
H 	H 	0.80650 0.23740 0.54930 0.04400
C 	C 	0.81042 0.21437 0.57294 -0.09800
H 	H 	0.82350 0.21990 0.57860 0.06500
C 	C 	0.80108 0.19564 0.58205 0.05800
C 	C 	0.78153 0.18740 0.57365 -0.09900
H 	H 	0.77530 0.17490 0.57970 0.06700
C 	C 	0.77131 0.19788 0.55614 0.00300
H 	H 	0.75820 0.19240 0.55050 0.05000
C 	C 	0.81209 0.18335 0.60055 -0.03400
C 	C 	0.82344 0.19676 0.61512 0.00200
H 	H 	0.82340 0.21190 0.61320 0.02900
C 	C 	0.83493 0.18752 0.63254 -0.13100
H 	H 	0.84250 0.19650 0.64230 0.08100
C 	C 	0.83505 0.16488 0.63540 0.11800
C 	C 	0.82370 0.15148 0.62083 -0.13100
H 	H 	0.82380 0.13630 0.62270 0.08000
C 	C 	0.81221 0.16071 0.60341 0.00200
H 	H 	0.80460 0.15170 0.59370 0.03000
O 	O 	0.27839 0.74529 0.51716 -0.41300
O 	O 	0.24968 0.71933 0.52485 -0.36000
C 	C 	0.26777 0.73010 0.52813 0.27200
C 	C 	0.28065 0.71661 0.54703 -0.04100
C 	C 	0.30020 0.72485 0.55543 0.00100
H 	H 	0.30650 0.73740 0.54930 0.04400
C 	C 	0.31042 0.71437 0.57294 -0.09800
H 	H 	0.32350 0.71990 0.57860 0.06500
C 	C 	0.30108 0.69564 0.58205 0.05800
C 	C 	0.28153 0.68740 0.57365 -0.09900
H 	H 	0.27530 0.67490 0.57970 0.06700
C 	C 	0.27131 0.69788 0.55614 0.00300
H 	H 	0.25820 0.69240 0.55050 0.05000
C 	C 	0.31209 0.68335 0.60055 -0.03400
C 	C 	0.32344 0.69676 0.61512 0.00200
H 	H 	0.32340 0.71190 0.61320 0.02900
C 	C 	0.33493 0.68752 0.63254 -0.13100
H 	H 	0.34250 0.69650 0.64230 0.08100
C 	C 	0.33505 0.66488 0.63540 0.11800
C 	C 	0.32370 0.65148 0.62083 -0.13100
H 	H 	0.32380 0.63630 0.62270 0.08000
C 	C 	0.31221 0.66071 0.60341 0.00200
H 	H 	0.30460 0.65170 0.59370 0.03000
O 	O 	0.27839 0.24529 0.01716 -0.41300
O 	O 	0.24968 0.21933 0.02485 -0.36000
C 	C 	0.26777 0.23010 0.02813 0.27200
C 	C 	0.28065 0.21661 0.04703 -0.04100
C 	C 	0.30020 0.22485 0.05543 0.00100
H 	H 	0.30650 0.23740 0.04930 0.04400
C 	C 	0.31042 0.21437 0.07294 -0.09800
H 	H 	0.32350 0.21990 0.07860 0.06500
C 	C 	0.30108 0.19564 0.08205 0.05800
C 	C 	0.28153 0.18740 0.07365 -0.09900
H 	H 	0.27530 0.17490 0.07970 0.06700
C 	C 	0.27131 0.19788 0.05614 0.00300
H 	H 	0.25820 0.19240 0.05050 0.05000
C 	C 	0.31209 0.18335 0.10055 -0.03400
C 	C 	0.32344 0.19676 0.11512 0.00200
H 	H 	0.32340 0.21190 0.11320 0.02900
C 	C 	0.33493 0.18752 0.13254 -0.13100
H 	H 	0.34250 0.19650 0.14230 0.08100
C 	C 	0.33505 0.16488 0.13540 0.11800
C 	C 	0.32370 0.15148 0.12083 -0.13100
H 	H 	0.32380 0.13630 0.12270 0.08000
C 	C 	0.31221 0.16071 0.10341 0.00200
H 	H 	0.30460 0.15170 0.09370 0.03000
O 	O 	0.77839 0.25471 0.98284 -0.41300
O 	O 	0.74968 0.28067 0.97515 -0.36000
C 	C 	0.76777 0.26990 0.97187 0.27200
C 	C 	0.78065 0.28339 0.95297 -0.04100
C 	C 	0.80020 0.27515 0.94457 0.00100
H 	H 	0.80650 0.26260 0.95070 0.04400
C 	C 	0.81042 0.28563 0.92706 -0.09800
H 	H 	0.82350 0.28010 0.92140 0.06500
C 	C 	0.80108 0.30436 0.91795 0.05800
C 	C 	0.78153 0.31260 0.92635 -0.09900
H 	H 	0.77530 0.32510 0.92030 0.06700
C 	C 	0.77131 0.30212 0.94386 0.00300
H 	H 	0.75820 0.30760 0.94950 0.05000
C 	C 	0.81209 0.31665 0.89945 -0.03400
C 	C 	0.82344 0.30324 0.88488 0.00200
H 	H 	0.82340 0.28810 0.88680 0.02900
C 	C 	0.83493 0.31248 0.86746 -0.13100
H 	H 	0.84250 0.30350 0.85770 0.08100
C 	C 	0.83505 0.33512 0.86460 0.11800
C 	C 	0.82370 0.34852 0.87917 -0.13100
H 	H 	0.82380 0.36370 0.87730 0.08000
C 	C 	0.81221 0.33929 0.89659 0.00200
H 	H 	0.80460 0.34830 0.90630 0.03000
O 	O 	0.77839 0.75471 0.48284 -0.41300
O 	O 	0.74968 0.78067 0.47515 -0.36000
C 	C 	0.76777 0.76990 0.47187 0.27200
C 	C 	0.78065 0.78339 0.45297 -0.04100
C 	C 	0.80020 0.77515 0.44457 0.00100
H 	H 	0.80650 0.76260 0.45070 0.04400
C 	C 	0.81042 0.78563 0.42706 -0.09800
H 	H 	0.82350 0.78010 0.42140 0.06500
C 	C 	0.80108 0.80436 0.41795 0.05800
C 	C 	0.78153 0.81260 0.42635 -0.09900
H 	H 	0.77530 0.82510 0.42030 0.06700
C 	C 	0.77131 0.80212 0.44386 0.00300
H 	H 	0.75820 0.80760 0.44950 0.05000
C 	C 	0.81209 0.81665 0.39945 -0.03400
C 	C 	0.82344 0.80324 0.38488 0.00200
H 	H 	0.82340 0.78810 0.38680 0.02900
C 	C 	0.83493 0.81248 0.36746 -0.13100
H 	H 	0.84250 0.80350 0.35770 0.08100
C 	C 	0.83505 0.83512 0.36460 0.11800
C 	C 	0.82370 0.84852 0.37917 -0.13100
H 	H 	0.82380 0.86370 0.37730 0.08000
C 	C 	0.81221 0.83929 0.39659 0.00200
H 	H 	0.80460 0.84830 0.40630 0.03000
O 	O 	0.27839 0.25471 0.48284 -0.41300
O 	O 	0.24968 0.28067 0.47515 -0.36000
C 	C 	0.26777 0.26990 0.47187 0.27200
C 	C 	0.28065 0.28339 0.45297 -0.04100
C 	C 	0.30020 0.27515 0.44457 0.00100
H 	H 	0.30650 0.26260 0.45070 0.04400
C 	C 	0.31042 0.28563 0.42706 -0.09800
H 	H 	0.32350 0.28010 0.42140 0.06500
C 	C 	0.30108 0.30436 0.41795 0.05800
C 	C 	0.28153 0.31260 0.42635 -0.09900
H 	H 	0.27530 0.32510 0.42030 0.06700
C 	C 	0.27131 0.30212 0.44386 0.00300
H 	H 	0.25820 0.30760 0.44950 0.05000
C 	C 	0.31209 0.31665 0.39945 -0.03400
C 	C 	0.32344 0.30324 0.38488 0.00200
H 	H 	0.32340 0.28810 0.38680 0.02900
C 	C 	0.33493 0.31248 0.36746 -0.13100
H 	H 	0.34250 0.30350 0.35770 0.08100
C 	C 	0.33505 0.33512 0.36460 0.11800
C 	C 	0.32370 0.34852 0.37917 -0.13100
H 	H 	0.32380 0.36370 0.37730 0.08000
C 	C 	0.31221 0.33929 0.39659 0.00200
H 	H 	0.30460 0.34830 0.40630 0.03000
O 	O 	0.27839 0.75471 0.98284 -0.41300
O 	O 	0.24968 0.78067 0.97515 -0.36000
C 	C 	0.26777 0.76990 0.97187 0.27200
C 	C 	0.28065 0.78339 0.95297 -0.04100
C 	C 	0.30020 0.77515 0.94457 0.00100
H 	H 	0.30650 0.76260 0.95070 0.04400
C 	C 	0.31042 0.78563 0.92706 -0.09800
H 	H 	0.32350 0.78010 0.92140 0.06500
C 	C 	0.30108 0.80436 0.91795 0.05800
C 	C 	0.28153 0.81260 0.92635 -0.09900
H 	H 	0.27530 0.82510 0.92030 0.06700
C 	C 	0.27131 0.80212 0.94386 0.00300
H 	H 	0.25820 0.80760 0.94950 0.05000
C 	C 	0.31209 0.81665 0.89945 -0.03400
C 	C 	0.32344 0.80324 0.88488 0.00200
H 	H 	0.32340 0.78810 0.88680 0.02900
C 	C 	0.33493 0.81248 0.86746 -0.13100
H 	H 	0.34250 0.80350 0.85770 0.08100
C 	C 	0.33505 0.83512 0.86460 0.11800
C 	C 	0.32370 0.84852 0.87917 -0.13100
H 	H 	0.32380 0.86370 0.87730 0.08000
C 	C 	0.31221 0.83929 0.89659 0.00200
H 	H 	0.30460 0.84830 0.90630 0.03000
Cu	Cu	-0.00000 0.76524 0.23476 0.91500
Cu	Cu	0.00000 0.26524 0.73476 0.91500
Cu	Cu	0.50000 0.76524 0.73476 0.91500
Cu	Cu	0.50000 0.26524 0.23476 0.91500
Cu	Cu	0.00000 0.23476 0.23476 0.91500
Cu	Cu	0.00000 0.73476 0.73476 0.91500
Cu	Cu	0.50000 0.23476 0.73476 0.91500
Cu	Cu	0.50000 0.73476 0.23476 0.91500
Cu	Cu	0.00000 0.76524 0.76524 0.91500
Cu	Cu	0.00000 0.26524 0.26524 0.91500
Cu	Cu	0.50000 0.76524 0.26524 0.91500
Cu	Cu	0.50000 0.26524 0.76524 0.91500
Cu	Cu	-0.00000 0.23476 0.76524 0.91500
Cu	Cu	0.00000 0.73476 0.26524 0.91500
Cu	Cu	0.50000 0.23476 0.26524 0.91500
Cu	Cu	0.50000 0.73476 0.76524 0.91500
Cu	Cu	0.23476 0.00000 0.76524 0.91500
Cu	Cu	0.23476 0.50000 0.26524 0.91500
Cu	Cu	0.73476 0.00000 0.26524 0.91500
Cu	Cu	0.73476 0.50000 0.76524 0.91500
Cu	Cu	0.23476 0.00000 0.23476 0.91500
Cu	Cu	0.23476 0.50000 0.73476 0.91500
Cu	Cu	0.73476 0.00000 0.73476 0.91500
Cu	Cu	0.73476 0.50000 0.23476 0.91500
Cu	Cu	0.76524 0.00000 0.76524 0.91500
Cu	Cu	0.76524 0.50000 0.26524 0.91500
Cu	Cu	0.26524 0.00000 0.26524 0.91500
Cu	Cu	0.26524 0.50000 0.76524 0.91500
Cu	Cu	0.76524 0.00000 0.23476 0.91500
Cu	Cu	0.76524 0.50000 0.73476 0.91500
Cu	Cu	0.26524 0.00000 0.73476 0.91500
Cu	Cu	0.26524 0.50000 0.23476 0.91500
Cu	Cu	0.76524 0.23476 -0.00000 0.91500
Cu	Cu	0.76524 0.73476 0.50000 0.91500
Cu	Cu	0.26524 0.23476 0.50000 0.91500
Cu	Cu	0.26524 0.73476 -0.00000 0.91500
Cu	Cu	0.23476 0.23476 -0.00000 0.91500
Cu	Cu	0.23476 0.73476 0.50000 0.91500
Cu	Cu	0.73476 0.23476 0.50000 0.91500
Cu	Cu	0.73476 0.73476 -0.00000 0.91500
Cu	Cu	0.76524 0.76524 -0.00000 0.91500
Cu	Cu	0.76524 0.26524 0.50000 0.91500
Cu	Cu	0.26524 0.76524 0.50000 0.91500
Cu	Cu	0.26524 0.26524 -0.00000 0.91500
Cu	Cu	0.23476 0.76524 -0.00000 0.91500
Cu	Cu	0.23476 0.26524 0.50000 0.91500
Cu	Cu	0.73476 0.76524 0.50000 0.91500
Cu	Cu	0.73476 0.26524 -0.00000 0.91500
N 	N 	0.15502 0.65502 0.15502 -0.15900
N 	N 	0.65502 0.65502 0.65502 -0.15900
N 	N 	0.84498 0.34498 0.15502 -0.15900
N 	N 	0.84498 0.84498 0.65502 -0.15900
N 	N 	0.84498 0.65502 0.84498 -0.15900
N 	N 	0.15502 0.34498 0.84498 -0.15900
N 	N 	0.65502 0.84498 0.84498 -0.15900
N 	N 	0.15502 0.15502 0.65502 -0.15900
N 	N 	0.15502 0.84498 0.34498 -0.15900
N 	N 	0.84498 0.15502 0.34498 -0.15900
N 	N 	0.65502 0.15502 0.15502 -0.15900
N 	N 	0.34498 0.15502 0.84498 -0.15900
N 	N 	0.34498 0.65502 0.34498 -0.15900
N 	N 	0.65502 0.34498 0.34498 -0.15900
N 	N 	0.34498 0.84498 0.15502 -0.15900
N 	N 	0.34498 0.34498 0.65502 -0.15900
N 	N 	0.65502 0.15502 0.84498 -0.15900
N 	N 	0.65502 0.65502 0.34498 -0.15900
N 	N 	0.34498 0.84498 0.84498 -0.15900
N 	N 	0.34498 0.34498 0.34498 -0.15900
N 	N 	0.65502 0.84498 0.15502 -0.15900
N 	N 	0.65502 0.34498 0.65502 -0.15900
N 	N 	0.34498 0.15502 0.15502 -0.15900
N 	N 	0.34498 0.65502 0.65502 -0.15900
N 	N 	0.84498 0.15502 0.65502 -0.15900
N 	N 	0.84498 0.65502 0.15502 -0.15900
N 	N 	0.15502 0.15502 0.34498 -0.15900
N 	N 	0.15502 0.65502 0.84498 -0.15900
N 	N 	0.84498 0.84498 0.34498 -0.15900
N 	N 	0.15502 0.84498 0.65502 -0.15900
N 	N 	0.15502 0.34498 0.15502 -0.15900
N 	N 	0.84498 0.34498 0.84498 -0.15900
