data_crystal

_cell_length_a 35.40000
_cell_length_b 35.40000
_cell_length_c 35.40000
_cell_angle_alpha 90.00000
_cell_angle_beta  90.00000
_cell_angle_gamma 90.00000

_symmetry_space_group_name_	'P 1'
_symmetry_space_group_name_H-M	'P 1'

loop_
_symmetry_equiv_pos_as_xyz
  x,y,z

loop_
_atom_site_label
_atom_site_type_symbol
_atom_site_fract_x
_atom_site_fract_y
_atom_site_fract_z
_atom_site_charge
O 	O 	0.03940 0.53921 0.78158 -0.42200
C 	C 	0.09580 0.59220 0.78380 0.07800
H 	H 	0.08760 0.58210 0.80660 0.00900
C 	C 	0.12400 0.61930 0.78310 -0.16800
H 	H 	0.13510 0.62660 0.80580 0.07700
C 	C 	0.19260 0.66710 0.77790 0.06200
H 	H 	0.19290 0.64930 0.79720 -0.01300
C 	C 	0.21980 0.69600 0.77680 -0.20200
C 	C 	0.26950 0.65220 0.80620 -0.75300
H 	H 	0.25030 0.63320 0.80770 0.24300
H 	H 	0.28360 0.64900 0.78330 0.24600
H 	H 	0.28620 0.65000 0.82750 0.24100
O 	O 	0.96060 0.46079 0.78158 -0.41700
C 	C 	0.90420 0.40780 0.78380 0.07700
H 	H 	0.91240 0.41790 0.80660 0.01100
C 	C 	0.87600 0.38070 0.78310 -0.16600
H 	H 	0.86490 0.37340 0.80580 0.07700
C 	C 	0.80740 0.33290 0.77790 0.06300
H 	H 	0.80710 0.35070 0.79720 -0.01200
C 	C 	0.78020 0.30400 0.77680 -0.20100
C 	C 	0.73050 0.34780 0.80620 -0.75200
H 	H 	0.74970 0.36680 0.80770 0.24400
H 	H 	0.71640 0.35100 0.78330 0.24700
H 	H 	0.71380 0.35000 0.82750 0.24200
O 	O 	0.96060 0.53921 0.21842 -0.41700
C 	C 	0.90420 0.59220 0.21620 0.07800
H 	H 	0.91240 0.58210 0.19340 0.01100
C 	C 	0.87600 0.61930 0.21690 -0.16600
H 	H 	0.86490 0.62660 0.19420 0.07700
C 	C 	0.80740 0.66710 0.22210 0.06300
H 	H 	0.80710 0.64930 0.20280 -0.01200
C 	C 	0.78020 0.69600 0.22320 -0.20000
C 	C 	0.73050 0.65220 0.19380 -0.75000
H 	H 	0.74970 0.63320 0.19230 0.24300
H 	H 	0.71640 0.64900 0.21670 0.24600
H 	H 	0.71380 0.65000 0.17250 0.24000
O 	O 	0.03940 0.46079 0.21842 -0.42200
C 	C 	0.09580 0.40780 0.21620 0.07800
H 	H 	0.08760 0.41790 0.19340 0.00900
C 	C 	0.12400 0.38070 0.21690 -0.16700
H 	H 	0.13510 0.37340 0.19420 0.07700
C 	C 	0.19260 0.33290 0.22210 0.06200
H 	H 	0.19290 0.35070 0.20280 -0.01200
C 	C 	0.21980 0.30400 0.22320 -0.20000
C 	C 	0.26950 0.34780 0.19380 -0.74800
H 	H 	0.25030 0.36680 0.19230 0.24200
H 	H 	0.28360 0.35100 0.21670 0.24500
H 	H 	0.28620 0.35000 0.17250 0.24000
O 	O 	0.78158 0.03940 0.53921 -0.42100
C 	C 	0.78380 0.09580 0.59220 0.07900
H 	H 	0.80660 0.08760 0.58210 0.01000
C 	C 	0.78310 0.12400 0.61930 -0.16700
H 	H 	0.80580 0.13510 0.62660 0.07800
C 	C 	0.77790 0.19260 0.66710 0.06300
H 	H 	0.79720 0.19290 0.64930 -0.01200
C 	C 	0.77680 0.21980 0.69600 -0.20100
C 	C 	0.80620 0.26950 0.65220 -0.75200
H 	H 	0.80770 0.25030 0.63320 0.24400
H 	H 	0.78330 0.28360 0.64900 0.24700
H 	H 	0.82750 0.28620 0.65000 0.24200
O 	O 	0.78158 0.96060 0.46079 -0.41600
C 	C 	0.78380 0.90420 0.40780 0.07800
H 	H 	0.80660 0.91240 0.41790 0.01200
C 	C 	0.78310 0.87600 0.38070 -0.16500
H 	H 	0.80580 0.86490 0.37340 0.07800
C 	C 	0.77790 0.80740 0.33290 0.06300
H 	H 	0.79720 0.80710 0.35070 -0.01200
C 	C 	0.77680 0.78020 0.30400 -0.20100
C 	C 	0.80620 0.73050 0.34780 -0.75200
H 	H 	0.80770 0.74970 0.36680 0.24400
H 	H 	0.78330 0.71640 0.35100 0.24700
H 	H 	0.82750 0.71380 0.35000 0.24200
O 	O 	0.21842 0.96060 0.53921 -0.41700
C 	C 	0.21620 0.90420 0.59220 0.07800
H 	H 	0.19340 0.91240 0.58210 0.01100
C 	C 	0.21690 0.87600 0.61930 -0.16600
H 	H 	0.19420 0.86490 0.62660 0.07700
C 	C 	0.22210 0.80740 0.66710 0.06300
H 	H 	0.20280 0.80710 0.64930 -0.01200
C 	C 	0.22320 0.78020 0.69600 -0.20000
C 	C 	0.19380 0.73050 0.65220 -0.75000
H 	H 	0.19230 0.74970 0.63320 0.24300
H 	H 	0.21670 0.71640 0.64900 0.24600
H 	H 	0.17250 0.71380 0.65000 0.24000
O 	O 	0.21842 0.03940 0.46079 -0.42200
C 	C 	0.21620 0.09580 0.40780 0.07800
H 	H 	0.19340 0.08760 0.41790 0.00900
C 	C 	0.21690 0.12400 0.38070 -0.16700
H 	H 	0.19420 0.13510 0.37340 0.07700
C 	C 	0.22210 0.19260 0.33290 0.06200
H 	H 	0.20280 0.19290 0.35070 -0.01200
C 	C 	0.22320 0.21980 0.30400 -0.20000
C 	C 	0.19380 0.26950 0.34780 -0.74800
H 	H 	0.19230 0.25030 0.36680 0.24200
H 	H 	0.21670 0.28360 0.35100 0.24500
H 	H 	0.17250 0.28620 0.35000 0.24000
O 	O 	0.53921 0.78158 0.03940 -0.42100
C 	C 	0.59220 0.78380 0.09580 0.07900
H 	H 	0.58210 0.80660 0.08760 0.01000
C 	C 	0.61930 0.78310 0.12400 -0.16700
H 	H 	0.62660 0.80580 0.13510 0.07800
C 	C 	0.66710 0.77790 0.19260 0.06300
H 	H 	0.64930 0.79720 0.19290 -0.01200
C 	C 	0.69600 0.77680 0.21980 -0.20100
C 	C 	0.65220 0.80620 0.26950 -0.75200
H 	H 	0.63320 0.80770 0.25030 0.24400
H 	H 	0.64900 0.78330 0.28360 0.24700
H 	H 	0.65000 0.82750 0.28620 0.24200
O 	O 	0.46079 0.78158 0.96060 -0.41600
C 	C 	0.40780 0.78380 0.90420 0.07800
H 	H 	0.41790 0.80660 0.91240 0.01200
C 	C 	0.38070 0.78310 0.87600 -0.16500
H 	H 	0.37340 0.80580 0.86490 0.07800
C 	C 	0.33290 0.77790 0.80740 0.06300
H 	H 	0.35070 0.79720 0.80710 -0.01200
C 	C 	0.30400 0.77680 0.78020 -0.20100
C 	C 	0.34780 0.80620 0.73050 -0.75200
H 	H 	0.36680 0.80770 0.74970 0.24400
H 	H 	0.35100 0.78330 0.71640 0.24700
H 	H 	0.35000 0.82750 0.71380 0.24200
O 	O 	0.53921 0.21842 0.96060 -0.41700
C 	C 	0.59220 0.21620 0.90420 0.07800
H 	H 	0.58210 0.19340 0.91240 0.01100
C 	C 	0.61930 0.21690 0.87600 -0.16600
H 	H 	0.62660 0.19420 0.86490 0.07700
C 	C 	0.66710 0.22210 0.80740 0.06300
H 	H 	0.64930 0.20280 0.80710 -0.01200
C 	C 	0.69600 0.22320 0.78020 -0.20000
C 	C 	0.65220 0.19380 0.73050 -0.75000
H 	H 	0.63320 0.19230 0.74970 0.24300
H 	H 	0.64900 0.21670 0.71640 0.24600
H 	H 	0.65000 0.17250 0.71380 0.24000
O 	O 	0.46079 0.21842 0.03940 -0.42200
C 	C 	0.40780 0.21620 0.09580 0.07800
H 	H 	0.41790 0.19340 0.08760 0.00900
C 	C 	0.38070 0.21690 0.12400 -0.16700
H 	H 	0.37340 0.19420 0.13510 0.07700
C 	C 	0.33290 0.22210 0.19260 0.06200
H 	H 	0.35070 0.20280 0.19290 -0.01200
C 	C 	0.30400 0.22320 0.21980 -0.20000
C 	C 	0.34780 0.19380 0.26950 -0.74800
H 	H 	0.36680 0.19230 0.25030 0.24200
H 	H 	0.35100 0.21670 0.28360 0.24500
H 	H 	0.35000 0.17250 0.28620 0.24000
O 	O 	0.03921 0.53940 0.71842 -0.42200
C 	C 	0.09220 0.59580 0.71620 0.07900
H 	H 	0.08210 0.58760 0.69340 0.01000
C 	C 	0.11930 0.62400 0.71690 -0.16700
H 	H 	0.12660 0.63510 0.69420 0.07700
C 	C 	0.16710 0.69260 0.72210 0.06300
H 	H 	0.14930 0.69290 0.70280 -0.01300
C 	C 	0.19600 0.71980 0.72320 -0.20100
C 	C 	0.15220 0.76950 0.69380 -0.75000
H 	H 	0.13320 0.75030 0.69230 0.24300
H 	H 	0.14900 0.78360 0.71670 0.24600
H 	H 	0.15000 0.78620 0.67250 0.24000
O 	O 	0.96079 0.46060 0.71842 -0.41600
C 	C 	0.90780 0.40420 0.71620 0.07800
H 	H 	0.91790 0.41240 0.69340 0.01200
C 	C 	0.88070 0.37600 0.71690 -0.16500
H 	H 	0.87340 0.36490 0.69420 0.07800
C 	C 	0.83290 0.30740 0.72210 0.06300
H 	H 	0.85070 0.30710 0.70280 -0.01200
C 	C 	0.80400 0.28020 0.72320 -0.20100
C 	C 	0.84780 0.23050 0.69380 -0.75300
H 	H 	0.86680 0.24970 0.69230 0.24500
H 	H 	0.85100 0.21640 0.71670 0.24700
H 	H 	0.85000 0.21380 0.67250 0.24200
O 	O 	0.03921 0.46060 0.28158 -0.42200
C 	C 	0.09220 0.40420 0.28380 0.07900
H 	H 	0.08210 0.41240 0.30660 0.01000
C 	C 	0.11930 0.37600 0.28310 -0.16700
H 	H 	0.12660 0.36490 0.30580 0.07700
C 	C 	0.16710 0.30740 0.27790 0.06200
H 	H 	0.14930 0.30710 0.29720 -0.01200
C 	C 	0.19600 0.28020 0.27680 -0.20000
C 	C 	0.15220 0.23050 0.30620 -0.74600
H 	H 	0.13320 0.24970 0.30770 0.24100
H 	H 	0.14900 0.21640 0.28330 0.24400
H 	H 	0.15000 0.21380 0.32750 0.23900
O 	O 	0.96079 0.53940 0.28158 -0.41600
C 	C 	0.90780 0.59580 0.28380 0.07800
H 	H 	0.91790 0.58760 0.30660 0.01200
C 	C 	0.88070 0.62400 0.28310 -0.16500
H 	H 	0.87340 0.63510 0.30580 0.07800
C 	C 	0.83290 0.69260 0.27790 0.06300
H 	H 	0.85070 0.69290 0.29720 -0.01200
C 	C 	0.80400 0.71980 0.27680 -0.20100
C 	C 	0.84780 0.76950 0.30620 -0.75400
H 	H 	0.86680 0.75030 0.30770 0.24500
H 	H 	0.85100 0.78360 0.28330 0.24800
H 	H 	0.85000 0.78620 0.32750 0.24300
O 	O 	0.53940 0.28158 0.96079 -0.41600
C 	C 	0.59580 0.28380 0.90780 0.07800
H 	H 	0.58760 0.30660 0.91790 0.01200
C 	C 	0.62400 0.28310 0.88070 -0.16500
H 	H 	0.63510 0.30580 0.87340 0.07800
C 	C 	0.69260 0.27790 0.83290 0.06300
H 	H 	0.69290 0.29720 0.85070 -0.01200
C 	C 	0.71980 0.27680 0.80400 -0.20100
C 	C 	0.76950 0.30620 0.84780 -0.75400
H 	H 	0.75030 0.30770 0.86680 0.24500
H 	H 	0.78360 0.28330 0.85100 0.24800
H 	H 	0.78620 0.32750 0.85000 0.24300
O 	O 	0.46060 0.28158 0.03921 -0.42200
C 	C 	0.40420 0.28380 0.09220 0.07900
H 	H 	0.41240 0.30660 0.08210 0.01000
C 	C 	0.37600 0.28310 0.11930 -0.16700
H 	H 	0.36490 0.30580 0.12660 0.07700
C 	C 	0.30740 0.27790 0.16710 0.06200
H 	H 	0.30710 0.29720 0.14930 -0.01200
C 	C 	0.28020 0.27680 0.19600 -0.20000
C 	C 	0.23050 0.30620 0.15220 -0.74600
H 	H 	0.24970 0.30770 0.13320 0.24100
H 	H 	0.21640 0.28330 0.14900 0.24400
H 	H 	0.21380 0.32750 0.15000 0.23900
O 	O 	0.46060 0.71842 0.96079 -0.41600
C 	C 	0.40420 0.71620 0.90780 0.07800
H 	H 	0.41240 0.69340 0.91790 0.01200
C 	C 	0.37600 0.71690 0.88070 -0.16500
H 	H 	0.36490 0.69420 0.87340 0.07800
C 	C 	0.30740 0.72210 0.83290 0.06300
H 	H 	0.30710 0.70280 0.85070 -0.01200
C 	C 	0.28020 0.72320 0.80400 -0.20100
C 	C 	0.23050 0.69380 0.84780 -0.75300
H 	H 	0.24970 0.69230 0.86680 0.24500
H 	H 	0.21640 0.71670 0.85100 0.24700
H 	H 	0.21380 0.67250 0.85000 0.24200
O 	O 	0.53940 0.71842 0.03921 -0.42200
C 	C 	0.59580 0.71620 0.09220 0.07900
H 	H 	0.58760 0.69340 0.08210 0.01000
C 	C 	0.62400 0.71690 0.11930 -0.16700
H 	H 	0.63510 0.69420 0.12660 0.07700
C 	C 	0.69260 0.72210 0.16710 0.06300
H 	H 	0.69290 0.70280 0.14930 -0.01300
C 	C 	0.71980 0.72320 0.19600 -0.20100
C 	C 	0.76950 0.69380 0.15220 -0.75000
H 	H 	0.75030 0.69230 0.13320 0.24300
H 	H 	0.78360 0.71670 0.14900 0.24600
H 	H 	0.78620 0.67250 0.15000 0.24000
O 	O 	0.28158 0.03921 0.46060 -0.42200
C 	C 	0.28380 0.09220 0.40420 0.07900
H 	H 	0.30660 0.08210 0.41240 0.01000
C 	C 	0.28310 0.11930 0.37600 -0.16700
H 	H 	0.30580 0.12660 0.36490 0.07700
C 	C 	0.27790 0.16710 0.30740 0.06200
H 	H 	0.29720 0.14930 0.30710 -0.01200
C 	C 	0.27680 0.19600 0.28020 -0.20000
C 	C 	0.30620 0.15220 0.23050 -0.74600
H 	H 	0.30770 0.13320 0.24970 0.24100
H 	H 	0.28330 0.14900 0.21640 0.24400
H 	H 	0.32750 0.15000 0.21380 0.23900
O 	O 	0.28158 0.96079 0.53940 -0.41600
C 	C 	0.28380 0.90780 0.59580 0.07800
H 	H 	0.30660 0.91790 0.58760 0.01200
C 	C 	0.28310 0.88070 0.62400 -0.16500
H 	H 	0.30580 0.87340 0.63510 0.07800
C 	C 	0.27790 0.83290 0.69260 0.06300
H 	H 	0.29720 0.85070 0.69290 -0.01200
C 	C 	0.27680 0.80400 0.71980 -0.20100
C 	C 	0.30620 0.84780 0.76950 -0.75400
H 	H 	0.30770 0.86680 0.75030 0.24500
H 	H 	0.28330 0.85100 0.78360 0.24800
H 	H 	0.32750 0.85000 0.78620 0.24300
O 	O 	0.71842 0.03921 0.53940 -0.42200
C 	C 	0.71620 0.09220 0.59580 0.07900
H 	H 	0.69340 0.08210 0.58760 0.01000
C 	C 	0.71690 0.11930 0.62400 -0.16700
H 	H 	0.69420 0.12660 0.63510 0.07700
C 	C 	0.72210 0.16710 0.69260 0.06300
H 	H 	0.70280 0.14930 0.69290 -0.01300
C 	C 	0.72320 0.19600 0.71980 -0.20100
C 	C 	0.69380 0.15220 0.76950 -0.75000
H 	H 	0.69230 0.13320 0.75030 0.24300
H 	H 	0.71670 0.14900 0.78360 0.24600
H 	H 	0.67250 0.15000 0.78620 0.24000
O 	O 	0.71842 0.96079 0.46060 -0.41600
C 	C 	0.71620 0.90780 0.40420 0.07800
H 	H 	0.69340 0.91790 0.41240 0.01200
C 	C 	0.71690 0.88070 0.37600 -0.16500
H 	H 	0.69420 0.87340 0.36490 0.07800
C 	C 	0.72210 0.83290 0.30740 0.06300
H 	H 	0.70280 0.85070 0.30710 -0.01200
C 	C 	0.72320 0.80400 0.28020 -0.20100
C 	C 	0.69380 0.84780 0.23050 -0.75300
H 	H 	0.69230 0.86680 0.24970 0.24500
H 	H 	0.71670 0.85100 0.21640 0.24700
H 	H 	0.67250 0.85000 0.21380 0.24200
O 	O 	0.96060 0.46079 0.21842 -0.41700
C 	C 	0.90420 0.40780 0.21620 0.07800
H 	H 	0.91240 0.41790 0.19340 0.01100
C 	C 	0.87600 0.38070 0.21690 -0.16600
H 	H 	0.86490 0.37340 0.19420 0.07700
C 	C 	0.80740 0.33290 0.22210 0.06300
H 	H 	0.80710 0.35070 0.20280 -0.01200
C 	C 	0.78020 0.30400 0.22320 -0.20000
C 	C 	0.73050 0.34780 0.19380 -0.74900
H 	H 	0.74970 0.36680 0.19230 0.24300
H 	H 	0.71640 0.35100 0.21670 0.24600
H 	H 	0.71380 0.35000 0.17250 0.24000
O 	O 	0.03940 0.53921 0.21842 -0.42200
C 	C 	0.09580 0.59220 0.21620 0.07900
H 	H 	0.08760 0.58210 0.19340 0.00900
C 	C 	0.12400 0.61930 0.21690 -0.16700
H 	H 	0.13510 0.62660 0.19420 0.07700
C 	C 	0.19260 0.66710 0.22210 0.06300
H 	H 	0.19290 0.64930 0.20280 -0.01200
C 	C 	0.21980 0.69600 0.22320 -0.20000
C 	C 	0.26950 0.65220 0.19380 -0.74800
H 	H 	0.25030 0.63320 0.19230 0.24300
H 	H 	0.28360 0.64900 0.21670 0.24500
H 	H 	0.28620 0.65000 0.17250 0.24000
O 	O 	0.03940 0.46079 0.78158 -0.42100
C 	C 	0.09580 0.40780 0.78380 0.07900
H 	H 	0.08760 0.41790 0.80660 0.01000
C 	C 	0.12400 0.38070 0.78310 -0.16700
H 	H 	0.13510 0.37340 0.80580 0.07800
C 	C 	0.19260 0.33290 0.77790 0.06300
H 	H 	0.19290 0.35070 0.79720 -0.01200
C 	C 	0.21980 0.30400 0.77680 -0.20100
C 	C 	0.26950 0.34780 0.80620 -0.75100
H 	H 	0.25030 0.36680 0.80770 0.24400
H 	H 	0.28360 0.35100 0.78330 0.24700
H 	H 	0.28620 0.35000 0.82750 0.24100
O 	O 	0.96060 0.53921 0.78158 -0.41600
C 	C 	0.90420 0.59220 0.78380 0.07800
H 	H 	0.91240 0.58210 0.80660 0.01200
C 	C 	0.87600 0.61930 0.78310 -0.16500
H 	H 	0.86490 0.62660 0.80580 0.07800
C 	C 	0.80740 0.66710 0.77790 0.06400
H 	H 	0.80710 0.64930 0.79720 -0.01200
C 	C 	0.78020 0.69600 0.77680 -0.20100
C 	C 	0.73050 0.65220 0.80620 -0.75300
H 	H 	0.74970 0.63320 0.80770 0.24500
H 	H 	0.71640 0.64900 0.78330 0.24700
H 	H 	0.71380 0.65000 0.82750 0.24200
O 	O 	0.21842 0.96060 0.46079 -0.41700
C 	C 	0.21620 0.90420 0.40780 0.07800
H 	H 	0.19340 0.91240 0.41790 0.01100
C 	C 	0.21690 0.87600 0.38070 -0.16600
H 	H 	0.19420 0.86490 0.37340 0.07700
C 	C 	0.22210 0.80740 0.33290 0.06300
H 	H 	0.20280 0.80710 0.35070 -0.01200
C 	C 	0.22320 0.78020 0.30400 -0.20000
C 	C 	0.19380 0.73050 0.34780 -0.74900
H 	H 	0.19230 0.74970 0.36680 0.24300
H 	H 	0.21670 0.71640 0.35100 0.24600
H 	H 	0.17250 0.71380 0.35000 0.24000
O 	O 	0.21842 0.03940 0.53921 -0.42200
C 	C 	0.21620 0.09580 0.59220 0.07900
H 	H 	0.19340 0.08760 0.58210 0.00900
C 	C 	0.21690 0.12400 0.61930 -0.16700
H 	H 	0.19420 0.13510 0.62660 0.07700
C 	C 	0.22210 0.19260 0.66710 0.06300
H 	H 	0.20280 0.19290 0.64930 -0.01200
C 	C 	0.22320 0.21980 0.69600 -0.20000
C 	C 	0.19380 0.26950 0.65220 -0.74800
H 	H 	0.19230 0.25030 0.63320 0.24300
H 	H 	0.21670 0.28360 0.64900 0.24500
H 	H 	0.17250 0.28620 0.65000 0.24000
O 	O 	0.78158 0.03940 0.46079 -0.42100
C 	C 	0.78380 0.09580 0.40780 0.07900
H 	H 	0.80660 0.08760 0.41790 0.01000
C 	C 	0.78310 0.12400 0.38070 -0.16700
H 	H 	0.80580 0.13510 0.37340 0.07800
C 	C 	0.77790 0.19260 0.33290 0.06300
H 	H 	0.79720 0.19290 0.35070 -0.01200
C 	C 	0.77680 0.21980 0.30400 -0.20100
C 	C 	0.80620 0.26950 0.34780 -0.75100
H 	H 	0.80770 0.25030 0.36680 0.24400
H 	H 	0.78330 0.28360 0.35100 0.24700
H 	H 	0.82750 0.28620 0.35000 0.24100
O 	O 	0.78158 0.96060 0.53921 -0.41600
C 	C 	0.78380 0.90420 0.59220 0.07800
H 	H 	0.80660 0.91240 0.58210 0.01200
C 	C 	0.78310 0.87600 0.61930 -0.16500
H 	H 	0.80580 0.86490 0.62660 0.07800
C 	C 	0.77790 0.80740 0.66710 0.06400
H 	H 	0.79720 0.80710 0.64930 -0.01200
C 	C 	0.77680 0.78020 0.69600 -0.20100
C 	C 	0.80620 0.73050 0.65220 -0.75300
H 	H 	0.80770 0.74970 0.63320 0.24500
H 	H 	0.78330 0.71640 0.64900 0.24700
H 	H 	0.82750 0.71380 0.65000 0.24200
O 	O 	0.46079 0.21842 0.96060 -0.41700
C 	C 	0.40780 0.21620 0.90420 0.07800
H 	H 	0.41790 0.19340 0.91240 0.01100
C 	C 	0.38070 0.21690 0.87600 -0.16600
H 	H 	0.37340 0.19420 0.86490 0.07700
C 	C 	0.33290 0.22210 0.80740 0.06300
H 	H 	0.35070 0.20280 0.80710 -0.01200
C 	C 	0.30400 0.22320 0.78020 -0.20000
C 	C 	0.34780 0.19380 0.73050 -0.74900
H 	H 	0.36680 0.19230 0.74970 0.24300
H 	H 	0.35100 0.21670 0.71640 0.24600
H 	H 	0.35000 0.17250 0.71380 0.24000
O 	O 	0.53921 0.21842 0.03940 -0.42200
C 	C 	0.59220 0.21620 0.09580 0.07900
H 	H 	0.58210 0.19340 0.08760 0.00900
C 	C 	0.61930 0.21690 0.12400 -0.16700
H 	H 	0.62660 0.19420 0.13510 0.07700
C 	C 	0.66710 0.22210 0.19260 0.06300
H 	H 	0.64930 0.20280 0.19290 -0.01200
C 	C 	0.69600 0.22320 0.21980 -0.20000
C 	C 	0.65220 0.19380 0.26950 -0.74800
H 	H 	0.63320 0.19230 0.25030 0.24300
H 	H 	0.64900 0.21670 0.28360 0.24500
H 	H 	0.65000 0.17250 0.28620 0.24000
O 	O 	0.46079 0.78158 0.03940 -0.42100
C 	C 	0.40780 0.78380 0.09580 0.07900
H 	H 	0.41790 0.80660 0.08760 0.01000
C 	C 	0.38070 0.78310 0.12400 -0.16700
H 	H 	0.37340 0.80580 0.13510 0.07800
C 	C 	0.33290 0.77790 0.19260 0.06300
H 	H 	0.35070 0.79720 0.19290 -0.01200
C 	C 	0.30400 0.77680 0.21980 -0.20100
C 	C 	0.34780 0.80620 0.26950 -0.75100
H 	H 	0.36680 0.80770 0.25030 0.24400
H 	H 	0.35100 0.78330 0.28360 0.24700
H 	H 	0.35000 0.82750 0.28620 0.24100
O 	O 	0.53921 0.78158 0.96060 -0.41600
C 	C 	0.59220 0.78380 0.90420 0.07800
H 	H 	0.58210 0.80660 0.91240 0.01200
C 	C 	0.61930 0.78310 0.87600 -0.16500
H 	H 	0.62660 0.80580 0.86490 0.07800
C 	C 	0.66710 0.77790 0.80740 0.06400
H 	H 	0.64930 0.79720 0.80710 -0.01200
C 	C 	0.69600 0.77680 0.78020 -0.20100
C 	C 	0.65220 0.80620 0.73050 -0.75300
H 	H 	0.63320 0.80770 0.74970 0.24500
H 	H 	0.64900 0.78330 0.71640 0.24700
H 	H 	0.65000 0.82750 0.71380 0.24200
O 	O 	0.96079 0.46060 0.28158 -0.41600
C 	C 	0.90780 0.40420 0.28380 0.07800
H 	H 	0.91790 0.41240 0.30660 0.01200
C 	C 	0.88070 0.37600 0.28310 -0.16500
H 	H 	0.87340 0.36490 0.30580 0.07800
C 	C 	0.83290 0.30740 0.27790 0.06300
H 	H 	0.85070 0.30710 0.29720 -0.01200
C 	C 	0.80400 0.28020 0.27680 -0.20100
C 	C 	0.84780 0.23050 0.30620 -0.75100
H 	H 	0.86680 0.24970 0.30770 0.24400
H 	H 	0.85100 0.21640 0.28330 0.24600
H 	H 	0.85000 0.21380 0.32750 0.24100
O 	O 	0.03921 0.53940 0.28158 -0.42200
C 	C 	0.09220 0.59580 0.28380 0.07900
H 	H 	0.08210 0.58760 0.30660 0.01000
C 	C 	0.11930 0.62400 0.28310 -0.16700
H 	H 	0.12660 0.63510 0.30580 0.07700
C 	C 	0.16710 0.69260 0.27790 0.06300
H 	H 	0.14930 0.69290 0.29720 -0.01300
C 	C 	0.19600 0.71980 0.27680 -0.20000
C 	C 	0.15220 0.76950 0.30620 -0.74800
H 	H 	0.13320 0.75030 0.30770 0.24200
H 	H 	0.14900 0.78360 0.28330 0.24500
H 	H 	0.15000 0.78620 0.32750 0.24000
O 	O 	0.96079 0.53940 0.71842 -0.41600
C 	C 	0.90780 0.59580 0.71620 0.07800
H 	H 	0.91790 0.58760 0.69340 0.01200
C 	C 	0.88070 0.62400 0.71690 -0.16500
H 	H 	0.87340 0.63510 0.69420 0.07800
C 	C 	0.83290 0.69260 0.72210 0.06400
H 	H 	0.85070 0.69290 0.70280 -0.01200
C 	C 	0.80400 0.71980 0.72320 -0.20100
C 	C 	0.84780 0.76950 0.69380 -0.75500
H 	H 	0.86680 0.75030 0.69230 0.24600
H 	H 	0.85100 0.78360 0.71670 0.24900
H 	H 	0.85000 0.78620 0.67250 0.24300
O 	O 	0.03921 0.46060 0.71842 -0.42200
C 	C 	0.09220 0.40420 0.71620 0.07900
H 	H 	0.08210 0.41240 0.69340 0.01000
C 	C 	0.11930 0.37600 0.71690 -0.16700
H 	H 	0.12660 0.36490 0.69420 0.07700
C 	C 	0.16710 0.30740 0.72210 0.06300
H 	H 	0.14930 0.30710 0.70280 -0.01300
C 	C 	0.19600 0.28020 0.72320 -0.20000
C 	C 	0.15220 0.23050 0.69380 -0.74700
H 	H 	0.13320 0.24970 0.69230 0.24200
H 	H 	0.14900 0.21640 0.71670 0.24400
H 	H 	0.15000 0.21380 0.67250 0.23900
O 	O 	0.46060 0.71842 0.03921 -0.42200
C 	C 	0.40420 0.71620 0.09220 0.07900
H 	H 	0.41240 0.69340 0.08210 0.01000
C 	C 	0.37600 0.71690 0.11930 -0.16700
H 	H 	0.36490 0.69420 0.12660 0.07700
C 	C 	0.30740 0.72210 0.16710 0.06300
H 	H 	0.30710 0.70280 0.14930 -0.01300
C 	C 	0.28020 0.72320 0.19600 -0.20000
C 	C 	0.23050 0.69380 0.15220 -0.74700
H 	H 	0.24970 0.69230 0.13320 0.24200
H 	H 	0.21640 0.71670 0.14900 0.24400
H 	H 	0.21380 0.67250 0.15000 0.23900
O 	O 	0.53940 0.71842 0.96079 -0.41600
C 	C 	0.59580 0.71620 0.90780 0.07800
H 	H 	0.58760 0.69340 0.91790 0.01200
C 	C 	0.62400 0.71690 0.88070 -0.16500
H 	H 	0.63510 0.69420 0.87340 0.07800
C 	C 	0.69260 0.72210 0.83290 0.06400
H 	H 	0.69290 0.70280 0.85070 -0.01200
C 	C 	0.71980 0.72320 0.80400 -0.20100
C 	C 	0.76950 0.69380 0.84780 -0.75500
H 	H 	0.75030 0.69230 0.86680 0.24600
H 	H 	0.78360 0.71670 0.85100 0.24900
H 	H 	0.78620 0.67250 0.85000 0.24300
O 	O 	0.53940 0.28158 0.03921 -0.42200
C 	C 	0.59580 0.28380 0.09220 0.07900
H 	H 	0.58760 0.30660 0.08210 0.01000
C 	C 	0.62400 0.28310 0.11930 -0.16700
H 	H 	0.63510 0.30580 0.12660 0.07700
C 	C 	0.69260 0.27790 0.16710 0.06300
H 	H 	0.69290 0.29720 0.14930 -0.01300
C 	C 	0.71980 0.27680 0.19600 -0.20000
C 	C 	0.76950 0.30620 0.15220 -0.74800
H 	H 	0.75030 0.30770 0.13320 0.24200
H 	H 	0.78360 0.28330 0.14900 0.24500
H 	H 	0.78620 0.32750 0.15000 0.24000
O 	O 	0.46060 0.28158 0.96079 -0.41600
C 	C 	0.40420 0.28380 0.90780 0.07800
H 	H 	0.41240 0.30660 0.91790 0.01200
C 	C 	0.37600 0.28310 0.88070 -0.16500
H 	H 	0.36490 0.30580 0.87340 0.07800
C 	C 	0.30740 0.27790 0.83290 0.06300
H 	H 	0.30710 0.29720 0.85070 -0.01200
C 	C 	0.28020 0.27680 0.80400 -0.20100
C 	C 	0.23050 0.30620 0.84780 -0.75100
H 	H 	0.24970 0.30770 0.86680 0.24400
H 	H 	0.21640 0.28330 0.85100 0.24600
H 	H 	0.21380 0.32750 0.85000 0.24100
O 	O 	0.71842 0.96079 0.53940 -0.41600
C 	C 	0.71620 0.90780 0.59580 0.07800
H 	H 	0.69340 0.91790 0.58760 0.01200
C 	C 	0.71690 0.88070 0.62400 -0.16500
H 	H 	0.69420 0.87340 0.63510 0.07800
C 	C 	0.72210 0.83290 0.69260 0.06400
H 	H 	0.70280 0.85070 0.69290 -0.01200
C 	C 	0.72320 0.80400 0.71980 -0.20100
C 	C 	0.69380 0.84780 0.76950 -0.75500
H 	H 	0.69230 0.86680 0.75030 0.24600
H 	H 	0.71670 0.85100 0.78360 0.24900
H 	H 	0.67250 0.85000 0.78620 0.24300
O 	O 	0.71842 0.03921 0.46060 -0.42200
C 	C 	0.71620 0.09220 0.40420 0.07900
H 	H 	0.69340 0.08210 0.41240 0.01000
C 	C 	0.71690 0.11930 0.37600 -0.16700
H 	H 	0.69420 0.12660 0.36490 0.07700
C 	C 	0.72210 0.16710 0.30740 0.06300
H 	H 	0.70280 0.14930 0.30710 -0.01300
C 	C 	0.72320 0.19600 0.28020 -0.20000
C 	C 	0.69380 0.15220 0.23050 -0.74700
H 	H 	0.69230 0.13320 0.24970 0.24200
H 	H 	0.71670 0.14900 0.21640 0.24400
H 	H 	0.67250 0.15000 0.21380 0.23900
O 	O 	0.28158 0.96079 0.46060 -0.41600
C 	C 	0.28380 0.90780 0.40420 0.07800
H 	H 	0.30660 0.91790 0.41240 0.01200
C 	C 	0.28310 0.88070 0.37600 -0.16500
H 	H 	0.30580 0.87340 0.36490 0.07800
C 	C 	0.27790 0.83290 0.30740 0.06300
H 	H 	0.29720 0.85070 0.30710 -0.01200
C 	C 	0.27680 0.80400 0.28020 -0.20100
C 	C 	0.30620 0.84780 0.23050 -0.75100
H 	H 	0.30770 0.86680 0.24970 0.24400
H 	H 	0.28330 0.85100 0.21640 0.24600
H 	H 	0.32750 0.85000 0.21380 0.24100
O 	O 	0.28158 0.03921 0.53940 -0.42200
C 	C 	0.28380 0.09220 0.59580 0.07900
H 	H 	0.30660 0.08210 0.58760 0.01000
C 	C 	0.28310 0.11930 0.62400 -0.16700
H 	H 	0.30580 0.12660 0.63510 0.07700
C 	C 	0.27790 0.16710 0.69260 0.06300
H 	H 	0.29720 0.14930 0.69290 -0.01300
C 	C 	0.27680 0.19600 0.71980 -0.20000
C 	C 	0.30620 0.15220 0.76950 -0.74800
H 	H 	0.30770 0.13320 0.75030 0.24200
H 	H 	0.28330 0.14900 0.78360 0.24500
H 	H 	0.32750 0.15000 0.78620 0.24000
Cu	Cu	-0.00000 0.50000 0.78772 0.89500
Cu	Cu	0.00000 0.50000 0.21228 0.89500
Cu	Cu	0.78772 0.00000 0.50000 0.89500
Cu	Cu	0.21228 0.00000 0.50000 0.89500
Cu	Cu	0.50000 0.78772 -0.00000 0.89500
Cu	Cu	0.50000 0.21228 -0.00000 0.89500
Cu	Cu	0.00000 0.50000 0.71228 0.89500
Cu	Cu	-0.00000 0.50000 0.28772 0.89500
Cu	Cu	0.50000 0.28772 -0.00000 0.89500
Cu	Cu	0.50000 0.71228 -0.00000 0.89500
Cu	Cu	0.28772 0.00000 0.50000 0.89500
Cu	Cu	0.71228 0.00000 0.50000 0.89500
N 	N 	0.25000 0.75000 0.75000 -0.23100
N 	N 	0.75000 0.25000 0.75000 -0.23100
N 	N 	0.75000 0.75000 0.25000 -0.23100
N 	N 	0.25000 0.25000 0.25000 -0.23100
N 	N 	0.75000 0.25000 0.25000 -0.23100
N 	N 	0.25000 0.75000 0.25000 -0.23100
N 	N 	0.25000 0.25000 0.75000 -0.23100
N 	N 	0.75000 0.75000 0.75000 -0.23200
C 	C 	0.05050 0.55050 0.75000 0.38600
C 	C 	0.08020 0.58020 0.75000 -0.15100
C 	C 	0.13600 0.63600 0.75000 0.11400
C 	C 	0.16550 0.66550 0.75000 -0.10100
C 	C 	0.22350 0.72350 0.75000 0.19700
C 	C 	0.94950 0.44950 0.75000 0.38500
C 	C 	0.91980 0.41980 0.75000 -0.14800
C 	C 	0.86400 0.36400 0.75000 0.11300
C 	C 	0.83450 0.33450 0.75000 -0.10000
C 	C 	0.77650 0.27650 0.75000 0.19800
C 	C 	0.94950 0.55050 0.25000 0.38600
C 	C 	0.91980 0.58020 0.25000 -0.14800
C 	C 	0.86400 0.63600 0.25000 0.11300
C 	C 	0.83450 0.66550 0.25000 -0.10000
C 	C 	0.77650 0.72350 0.25000 0.19700
C 	C 	0.05050 0.44950 0.25000 0.38600
C 	C 	0.08020 0.41980 0.25000 -0.15100
C 	C 	0.13600 0.36400 0.25000 0.11300
C 	C 	0.16550 0.33450 0.25000 -0.10100
C 	C 	0.22350 0.27650 0.25000 0.19600
C 	C 	0.75000 0.05050 0.55050 0.38600
C 	C 	0.75000 0.08020 0.58020 -0.15100
C 	C 	0.75000 0.13600 0.63600 0.11400
C 	C 	0.75000 0.16550 0.66550 -0.10100
C 	C 	0.75000 0.22350 0.72350 0.19700
C 	C 	0.75000 0.94950 0.44950 0.38500
C 	C 	0.75000 0.91980 0.41980 -0.14800
C 	C 	0.75000 0.86400 0.36400 0.11300
C 	C 	0.75000 0.83450 0.33450 -0.10000
C 	C 	0.75000 0.77650 0.27650 0.19800
C 	C 	0.25000 0.94950 0.55050 0.38600
C 	C 	0.25000 0.91980 0.58020 -0.14800
C 	C 	0.25000 0.86400 0.63600 0.11300
C 	C 	0.25000 0.83450 0.66550 -0.10000
C 	C 	0.25000 0.77650 0.72350 0.19700
C 	C 	0.25000 0.05050 0.44950 0.38600
C 	C 	0.25000 0.08020 0.41980 -0.15100
C 	C 	0.25000 0.13600 0.36400 0.11300
C 	C 	0.25000 0.16550 0.33450 -0.10100
C 	C 	0.25000 0.22350 0.27650 0.19600
C 	C 	0.55050 0.75000 0.05050 0.38600
C 	C 	0.58020 0.75000 0.08020 -0.15100
C 	C 	0.63600 0.75000 0.13600 0.11400
C 	C 	0.66550 0.75000 0.16550 -0.10100
C 	C 	0.72350 0.75000 0.22350 0.19700
C 	C 	0.44950 0.75000 0.94950 0.38500
C 	C 	0.41980 0.75000 0.91980 -0.14800
C 	C 	0.36400 0.75000 0.86400 0.11300
C 	C 	0.33450 0.75000 0.83450 -0.10000
C 	C 	0.27650 0.75000 0.77650 0.19800
C 	C 	0.55050 0.25000 0.94950 0.38600
C 	C 	0.58020 0.25000 0.91980 -0.14800
C 	C 	0.63600 0.25000 0.86400 0.11300
C 	C 	0.66550 0.25000 0.83450 -0.10000
C 	C 	0.72350 0.25000 0.77650 0.19700
C 	C 	0.44950 0.25000 0.05050 0.38600
C 	C 	0.41980 0.25000 0.08020 -0.15100
C 	C 	0.36400 0.25000 0.13600 0.11300
C 	C 	0.33450 0.25000 0.16550 -0.10100
C 	C 	0.27650 0.25000 0.22350 0.19600
C 	C 	0.94950 0.44950 0.25000 0.38500
C 	C 	0.91980 0.41980 0.25000 -0.14800
C 	C 	0.86400 0.36400 0.25000 0.11300
C 	C 	0.83450 0.33450 0.25000 -0.10000
C 	C 	0.77650 0.27650 0.25000 0.19700
C 	C 	0.05050 0.55050 0.25000 0.38600
C 	C 	0.08020 0.58020 0.25000 -0.15100
C 	C 	0.13600 0.63600 0.25000 0.11300
C 	C 	0.16550 0.66550 0.25000 -0.10100
C 	C 	0.22350 0.72350 0.25000 0.19700
C 	C 	0.05050 0.44950 0.75000 0.38600
C 	C 	0.08020 0.41980 0.75000 -0.15100
C 	C 	0.13600 0.36400 0.75000 0.11300
C 	C 	0.16550 0.33450 0.75000 -0.10100
C 	C 	0.22350 0.27650 0.75000 0.19700
C 	C 	0.94950 0.55050 0.75000 0.38500
C 	C 	0.91980 0.58020 0.75000 -0.14800
C 	C 	0.86400 0.63600 0.75000 0.11300
C 	C 	0.83450 0.66550 0.75000 -0.10000
C 	C 	0.77650 0.72350 0.75000 0.19800
C 	C 	0.25000 0.94950 0.44950 0.38500
C 	C 	0.25000 0.91980 0.41980 -0.14800
C 	C 	0.25000 0.86400 0.36400 0.11300
C 	C 	0.25000 0.83450 0.33450 -0.10000
C 	C 	0.25000 0.77650 0.27650 0.19700
C 	C 	0.25000 0.05050 0.55050 0.38600
C 	C 	0.25000 0.08020 0.58020 -0.15100
C 	C 	0.25000 0.13600 0.63600 0.11300
C 	C 	0.25000 0.16550 0.66550 -0.10100
C 	C 	0.25000 0.22350 0.72350 0.19700
C 	C 	0.75000 0.05050 0.44950 0.38600
C 	C 	0.75000 0.08020 0.41980 -0.15100
C 	C 	0.75000 0.13600 0.36400 0.11300
C 	C 	0.75000 0.16550 0.33450 -0.10100
C 	C 	0.75000 0.22350 0.27650 0.19700
C 	C 	0.75000 0.94950 0.55050 0.38500
C 	C 	0.75000 0.91980 0.58020 -0.14800
C 	C 	0.75000 0.86400 0.63600 0.11300
C 	C 	0.75000 0.83450 0.66550 -0.10000
C 	C 	0.75000 0.77650 0.72350 0.19800
C 	C 	0.44950 0.25000 0.94950 0.38500
C 	C 	0.41980 0.25000 0.91980 -0.14800
C 	C 	0.36400 0.25000 0.86400 0.11300
C 	C 	0.33450 0.25000 0.83450 -0.10000
C 	C 	0.27650 0.25000 0.77650 0.19700
C 	C 	0.55050 0.25000 0.05050 0.38600
C 	C 	0.58020 0.25000 0.08020 -0.15100
C 	C 	0.63600 0.25000 0.13600 0.11300
C 	C 	0.66550 0.25000 0.16550 -0.10100
C 	C 	0.72350 0.25000 0.22350 0.19700
C 	C 	0.44950 0.75000 0.05050 0.38600
C 	C 	0.41980 0.75000 0.08020 -0.15100
C 	C 	0.36400 0.75000 0.13600 0.11300
C 	C 	0.33450 0.75000 0.16550 -0.10100
C 	C 	0.27650 0.75000 0.22350 0.19700
C 	C 	0.55050 0.75000 0.94950 0.38500
C 	C 	0.58020 0.75000 0.91980 -0.14800
C 	C 	0.63600 0.75000 0.86400 0.11300
C 	C 	0.66550 0.75000 0.83450 -0.10000
C 	C 	0.72350 0.75000 0.77650 0.19800
C 	C 	0.25000 0.69360 0.80640 0.36100
C 	C 	0.75000 0.30640 0.80640 0.36200
C 	C 	0.75000 0.69360 0.19360 0.36000
C 	C 	0.25000 0.30640 0.19360 0.35900
C 	C 	0.80640 0.25000 0.69360 0.36100
C 	C 	0.80640 0.75000 0.30640 0.36200
C 	C 	0.19360 0.75000 0.69360 0.36000
C 	C 	0.19360 0.25000 0.30640 0.35900
C 	C 	0.69360 0.80640 0.25000 0.36100
C 	C 	0.30640 0.80640 0.75000 0.36200
C 	C 	0.69360 0.19360 0.75000 0.36000
C 	C 	0.30640 0.19360 0.25000 0.35900
C 	C 	0.75000 0.30640 0.19360 0.36000
C 	C 	0.25000 0.69360 0.19360 0.35900
C 	C 	0.25000 0.30640 0.80640 0.36100
C 	C 	0.75000 0.69360 0.80640 0.36200
C 	C 	0.19360 0.75000 0.30640 0.36000
C 	C 	0.19360 0.25000 0.69360 0.35900
C 	C 	0.80640 0.25000 0.30640 0.36100
C 	C 	0.80640 0.75000 0.69360 0.36200
C 	C 	0.30640 0.19360 0.75000 0.36000
C 	C 	0.69360 0.19360 0.25000 0.35900
C 	C 	0.30640 0.80640 0.25000 0.36100
C 	C 	0.69360 0.80640 0.75000 0.36200
