data_crystal

_cell_length_a 13.73270
_cell_length_b 13.73270
_cell_length_c 25.46600
_cell_angle_alpha 90.00000
_cell_angle_beta  90.00000
_cell_angle_gamma 90.00000

_symmetry_space_group_name_	'P 1'
_symmetry_space_group_name_H-M	'P 1'

loop_
_symmetry_equiv_pos_as_xyz
  x,y,z

loop_
_atom_site_label
_atom_site_type_symbol
_atom_site_fract_x
_atom_site_fract_y
_atom_site_fract_z
_atom_site_charge
Ni	Ni	0.25231 0.40585 0.52372 1.07500
Ni	Ni	0.74769 0.59415 0.52372 1.07500
Ni	Ni	0.90585 0.75231 0.97628 1.07500
Ni	Ni	0.09415 0.24769 0.97628 1.07500
H 	H 	0.29470 0.30100 0.44290 0.15900
H 	H 	0.24860 0.45510 0.41360 -0.17000
H 	H 	0.32770 0.50500 0.35720 0.50400
H 	H 	0.40450 0.42220 0.36610 0.49000
H 	H 	0.29620 0.39560 0.35290 0.48800
H 	H 	0.11700 0.56830 0.55160 -0.02700
H 	H 	0.07430 0.65320 0.62660 0.08200
H 	H 	0.19360 0.44200 0.71460 0.09000
H 	H 	0.24850 0.38000 0.63570 -0.04500
H 	H 	0.04060 0.65250 0.71940 0.05400
H 	H 	0.05440 0.33190 0.53850 -0.02600
H 	H 	0.97160 0.18420 0.56760 0.07200
H 	H 	0.23510 0.04700 0.56240 0.06700
H 	H 	0.30640 0.19670 0.54580 -0.00300
H 	H 	0.08870 0.94660 0.56510 0.04700
H 	H 	0.70530 0.69900 0.44290 0.16000
H 	H 	0.75140 0.54490 0.41360 -0.16900
H 	H 	0.67230 0.49500 0.35720 0.50500
H 	H 	0.59550 0.57780 0.36610 0.49100
H 	H 	0.70380 0.60440 0.35290 0.48900
H 	H 	0.88300 0.43170 0.55160 -0.02600
H 	H 	0.92570 0.34680 0.62660 0.08300
H 	H 	0.80640 0.55800 0.71460 0.09100
H 	H 	0.75150 0.62000 0.63570 -0.04400
H 	H 	0.95940 0.34750 0.71940 0.05500
H 	H 	0.94560 0.66810 0.53850 -0.02500
H 	H 	0.02840 0.81580 0.56760 0.07300
H 	H 	0.76490 0.95300 0.56240 0.06700
H 	H 	0.69360 0.80330 0.54580 -0.00300
H 	H 	0.91130 0.05340 0.56510 0.04700
H 	H 	0.80100 0.79470 0.05710 0.16000
H 	H 	0.95510 0.74860 0.08640 -0.16900
H 	H 	0.00500 0.82770 0.14280 0.50500
H 	H 	0.92220 0.90450 0.13390 0.49100
H 	H 	0.89560 0.79620 0.14710 0.48800
H 	H 	0.06830 0.61700 0.94840 -0.02600
H 	H 	0.15320 0.57430 0.87340 0.08300
H 	H 	0.94200 0.69360 0.78540 0.09100
H 	H 	0.88000 0.74850 0.86430 -0.04400
H 	H 	0.15250 0.54060 0.78060 0.05500
H 	H 	0.83190 0.55440 0.96150 -0.02500
H 	H 	0.68420 0.47160 0.93240 0.07300
H 	H 	0.54700 0.73510 0.93760 0.06700
H 	H 	0.69670 0.80640 0.95420 -0.00300
H 	H 	0.44660 0.58870 0.93490 0.04700
H 	H 	0.19900 0.20530 0.05710 0.16000
H 	H 	0.04490 0.25140 0.08640 -0.16900
H 	H 	0.99500 0.17230 0.14280 0.50500
H 	H 	0.07780 0.09550 0.13390 0.49100
H 	H 	0.10440 0.20380 0.14710 0.48800
H 	H 	0.93170 0.38300 0.94840 -0.02600
H 	H 	0.84680 0.42570 0.87340 0.08300
H 	H 	0.05800 0.30640 0.78540 0.09100
H 	H 	0.12000 0.25150 0.86430 -0.04400
H 	H 	0.84750 0.45940 0.78060 0.05500
H 	H 	0.16810 0.44560 0.96150 -0.02500
H 	H 	0.31580 0.52840 0.93240 0.07300
H 	H 	0.45300 0.26490 0.93760 0.06700
H 	H 	0.30330 0.19360 0.95420 -0.00300
H 	H 	0.55340 0.41130 0.93490 0.04700
C 	C 	0.33350 0.53490 0.45080 0.08000
C 	C 	0.31700 0.44000 0.42010 0.70100
C 	C 	0.33800 0.44100 0.37100 -1.62700
C 	C 	0.13790 0.54710 0.58440 0.07600
C 	C 	0.10720 0.59430 0.62980 -0.18700
C 	C 	0.12350 0.55740 0.67890 0.12800
C 	C 	0.17930 0.47230 0.68280 -0.21400
C 	C 	0.21190 0.43690 0.63360 0.13800
C 	C 	0.08510 0.60270 0.72550 -0.09900
C 	C 	0.09090 0.27640 0.54550 0.05500
C 	C 	0.03790 0.18470 0.56030 -0.15000
C 	C 	0.09200 0.10380 0.56230 0.08900
C 	C 	0.19810 0.10320 0.55850 -0.14800
C 	C 	0.23890 0.19420 0.54850 0.05400
C 	C 	0.04710 0.00170 0.56690 -0.07700
C 	C 	0.66650 0.46510 0.45080 0.08000
C 	C 	0.68300 0.56000 0.42010 0.70100
C 	C 	0.66200 0.55900 0.37100 -1.62700
C 	C 	0.86210 0.45290 0.58440 0.07600
C 	C 	0.89280 0.40570 0.62980 -0.18700
C 	C 	0.87650 0.44260 0.67890 0.12800
C 	C 	0.82070 0.52770 0.68280 -0.21400
C 	C 	0.78810 0.56310 0.63360 0.13800
C 	C 	0.91490 0.39730 0.72550 -0.09900
C 	C 	0.90910 0.72360 0.54550 0.05500
C 	C 	0.96210 0.81530 0.56030 -0.15000
C 	C 	0.90800 0.89620 0.56230 0.08900
C 	C 	0.80190 0.89680 0.55850 -0.14800
C 	C 	0.76110 0.80580 0.54850 0.05400
C 	C 	0.95290 0.99830 0.56690 -0.07700
C 	C 	0.03490 0.83350 0.04920 0.08000
C 	C 	0.94000 0.81700 0.07990 0.70100
C 	C 	0.94100 0.83800 0.12900 -1.62700
C 	C 	0.04710 0.63790 0.91560 0.07600
C 	C 	0.09430 0.60720 0.87020 -0.18700
C 	C 	0.05740 0.62350 0.82110 0.12800
C 	C 	0.97230 0.67930 0.81720 -0.21400
C 	C 	0.93690 0.71190 0.86640 0.13800
C 	C 	0.10270 0.58510 0.77450 -0.09900
C 	C 	0.77640 0.59090 0.95450 0.05500
C 	C 	0.68470 0.53790 0.93970 -0.15000
C 	C 	0.60380 0.59200 0.93770 0.08900
C 	C 	0.60320 0.69810 0.94150 -0.14800
C 	C 	0.69420 0.73890 0.95150 0.05400
C 	C 	0.50170 0.54710 0.93310 -0.07600
C 	C 	0.96510 0.16650 0.04920 0.08000
C 	C 	0.06000 0.18300 0.07990 0.70100
C 	C 	0.05900 0.16200 0.12900 -1.62700
C 	C 	0.95290 0.36210 0.91560 0.07600
C 	C 	0.90570 0.39280 0.87020 -0.18700
C 	C 	0.94260 0.37650 0.82110 0.12800
C 	C 	0.02770 0.32070 0.81720 -0.21400
C 	C 	0.06310 0.28810 0.86640 0.13800
C 	C 	0.89730 0.41490 0.77450 -0.09900
C 	C 	0.22360 0.40910 0.95450 0.05500
C 	C 	0.31530 0.46210 0.93970 -0.15000
C 	C 	0.39620 0.40800 0.93770 0.08900
C 	C 	0.39680 0.30190 0.94150 -0.14800
C 	C 	0.30580 0.26110 0.95150 0.05400
C 	C 	0.49830 0.45290 0.93310 -0.07600
N 	N 	0.29400 0.36090 0.45280 -0.43700
N 	N 	0.20040 0.46780 0.58870 -0.27600
N 	N 	0.18880 0.28240 0.54190 -0.25800
N 	N 	0.70600 0.63910 0.45280 -0.43700
N 	N 	0.79960 0.53220 0.58870 -0.27600
N 	N 	0.81120 0.71760 0.54190 -0.25800
N 	N 	0.86090 0.79400 0.04720 -0.43700
N 	N 	0.96780 0.70040 0.91130 -0.27600
N 	N 	0.78240 0.68880 0.95810 -0.25800
N 	N 	0.13910 0.20600 0.04720 -0.43700
N 	N 	0.03220 0.29960 0.91130 -0.27600
N 	N 	0.21760 0.31120 0.95810 -0.25800
O 	O 	0.29520 0.53300 0.49760 -0.38300
O 	O 	0.37150 0.60660 0.43440 -0.33300
O 	O 	0.70480 0.46700 0.49760 -0.38300
O 	O 	0.62850 0.39340 0.43440 -0.33300
O 	O 	0.03300 0.79520 0.00240 -0.38300
O 	O 	0.10660 0.87150 0.06560 -0.33300
O 	O 	0.96700 0.20480 0.00240 -0.38300
O 	O 	0.89340 0.12850 0.06560 -0.33300
Ni	Ni	0.40585 0.74769 0.47628 1.07600
Ni	Ni	0.59415 0.25231 0.47628 1.07600
Ni	Ni	0.75231 0.09415 0.02372 1.07600
Ni	Ni	0.24769 0.90585 0.02372 1.07600
H 	H 	0.30100 0.70530 0.55710 0.16000
H 	H 	0.45510 0.75140 0.58640 -0.16900
H 	H 	0.50500 0.67230 0.64280 0.50500
H 	H 	0.42220 0.59550 0.63390 0.49100
H 	H 	0.39560 0.70380 0.64710 0.48900
H 	H 	0.56830 0.88300 0.44840 -0.02600
H 	H 	0.65320 0.92570 0.37340 0.08300
H 	H 	0.44200 0.80640 0.28540 0.09100
H 	H 	0.38000 0.75150 0.36430 -0.04400
H 	H 	0.65250 0.95940 0.28060 0.05500
H 	H 	0.33190 0.94560 0.46150 -0.02500
H 	H 	0.18420 0.02840 0.43240 0.07300
H 	H 	0.04700 0.76490 0.43760 0.06700
H 	H 	0.19670 0.69360 0.45420 -0.00300
H 	H 	0.94660 0.91130 0.43490 0.04700
H 	H 	0.69900 0.29470 0.55710 0.16000
H 	H 	0.54490 0.24860 0.58640 -0.16900
H 	H 	0.49500 0.32770 0.64280 0.50500
H 	H 	0.57780 0.40450 0.63390 0.49100
H 	H 	0.60440 0.29620 0.64710 0.48900
H 	H 	0.43170 0.11700 0.44840 -0.02600
H 	H 	0.34680 0.07430 0.37340 0.08300
H 	H 	0.55800 0.19360 0.28540 0.09100
H 	H 	0.62000 0.24850 0.36430 -0.04400
H 	H 	0.34750 0.04060 0.28060 0.05500
H 	H 	0.66810 0.05440 0.46150 -0.02500
H 	H 	0.81580 0.97160 0.43240 0.07300
H 	H 	0.95300 0.23510 0.43760 0.06700
H 	H 	0.80330 0.30640 0.45420 -0.00300
H 	H 	0.05340 0.08870 0.43490 0.04700
H 	H 	0.79470 0.19900 0.94290 0.16000
H 	H 	0.74860 0.04490 0.91360 -0.16900
H 	H 	0.82770 0.99500 0.85720 0.50500
H 	H 	0.90450 0.07780 0.86610 0.49100
H 	H 	0.79620 0.10440 0.85290 0.48800
H 	H 	0.61700 0.93170 0.05160 -0.02600
H 	H 	0.57430 0.84680 0.12660 0.08300
H 	H 	0.69360 0.05800 0.21460 0.09100
H 	H 	0.74850 0.12000 0.13570 -0.04400
H 	H 	0.54060 0.84750 0.21940 0.05500
H 	H 	0.55440 0.16810 0.03850 -0.02500
H 	H 	0.47160 0.31580 0.06760 0.07300
H 	H 	0.73510 0.45300 0.06240 0.06700
H 	H 	0.80640 0.30330 0.04580 -0.00300
H 	H 	0.58870 0.55340 0.06510 0.04700
H 	H 	0.20530 0.80100 0.94290 0.16000
H 	H 	0.25140 0.95510 0.91360 -0.16900
H 	H 	0.17230 0.00500 0.85720 0.50500
H 	H 	0.09550 0.92220 0.86610 0.49100
H 	H 	0.20380 0.89560 0.85290 0.48800
H 	H 	0.38300 0.06830 0.05160 -0.02600
H 	H 	0.42570 0.15320 0.12660 0.08300
H 	H 	0.30640 0.94200 0.21460 0.09100
H 	H 	0.25150 0.88000 0.13570 -0.04400
H 	H 	0.45940 0.15250 0.21940 0.05500
H 	H 	0.44560 0.83190 0.03850 -0.02500
H 	H 	0.52840 0.68420 0.06760 0.07300
H 	H 	0.26490 0.54700 0.06240 0.06700
H 	H 	0.19360 0.69670 0.04580 -0.00300
H 	H 	0.41130 0.44660 0.06510 0.04700
C 	C 	0.53490 0.66650 0.54920 0.08000
C 	C 	0.44000 0.68300 0.57990 0.70100
C 	C 	0.44100 0.66200 0.62900 -1.62700
C 	C 	0.54710 0.86210 0.41560 0.07600
C 	C 	0.59430 0.89280 0.37020 -0.18700
C 	C 	0.55740 0.87650 0.32110 0.12800
C 	C 	0.47230 0.82070 0.31720 -0.21400
C 	C 	0.43690 0.78810 0.36640 0.13800
C 	C 	0.60270 0.91490 0.27450 -0.09900
C 	C 	0.27640 0.90910 0.45450 0.05500
C 	C 	0.18470 0.96210 0.43970 -0.15000
C 	C 	0.10380 0.90800 0.43770 0.08900
C 	C 	0.10320 0.80190 0.44150 -0.14800
C 	C 	0.19420 0.76110 0.45150 0.05400
C 	C 	0.00170 0.95290 0.43310 -0.07700
C 	C 	0.46510 0.33350 0.54920 0.08000
C 	C 	0.56000 0.31700 0.57990 0.70100
C 	C 	0.55900 0.33800 0.62900 -1.62700
C 	C 	0.45290 0.13790 0.41560 0.07600
C 	C 	0.40570 0.10720 0.37020 -0.18700
C 	C 	0.44260 0.12350 0.32110 0.12800
C 	C 	0.52770 0.17930 0.31720 -0.21400
C 	C 	0.56310 0.21190 0.36640 0.13800
C 	C 	0.39730 0.08510 0.27450 -0.09900
C 	C 	0.72360 0.09090 0.45450 0.05500
C 	C 	0.81530 0.03790 0.43970 -0.15000
C 	C 	0.89620 0.09200 0.43770 0.08900
C 	C 	0.89680 0.19810 0.44150 -0.14800
C 	C 	0.80580 0.23890 0.45150 0.05400
C 	C 	0.99830 0.04710 0.43310 -0.07700
C 	C 	0.83350 0.96510 0.95080 0.08000
C 	C 	0.81700 0.06000 0.92010 0.70100
C 	C 	0.83800 0.05900 0.87100 -1.62700
C 	C 	0.63790 0.95290 0.08440 0.07600
C 	C 	0.60720 0.90570 0.12980 -0.18700
C 	C 	0.62350 0.94260 0.17890 0.12800
C 	C 	0.67930 0.02770 0.18280 -0.21400
C 	C 	0.71190 0.06310 0.13360 0.13800
C 	C 	0.58510 0.89730 0.22550 -0.09900
C 	C 	0.59090 0.22360 0.04550 0.05500
C 	C 	0.53790 0.31530 0.06030 -0.15000
C 	C 	0.59200 0.39620 0.06230 0.08900
C 	C 	0.69810 0.39680 0.05850 -0.14800
C 	C 	0.73890 0.30580 0.04850 0.05400
C 	C 	0.54710 0.49830 0.06690 -0.07600
C 	C 	0.16650 0.03490 0.95080 0.08000
C 	C 	0.18300 0.94000 0.92010 0.70100
C 	C 	0.16200 0.94100 0.87100 -1.62700
C 	C 	0.36210 0.04710 0.08440 0.07600
C 	C 	0.39280 0.09430 0.12980 -0.18700
C 	C 	0.37650 0.05740 0.17890 0.12800
C 	C 	0.32070 0.97230 0.18280 -0.21400
C 	C 	0.28810 0.93690 0.13360 0.13800
C 	C 	0.41490 0.10270 0.22550 -0.09900
C 	C 	0.40910 0.77640 0.04550 0.05500
C 	C 	0.46210 0.68470 0.06030 -0.15000
C 	C 	0.40800 0.60380 0.06230 0.08900
C 	C 	0.30190 0.60320 0.05850 -0.14800
C 	C 	0.26110 0.69420 0.04850 0.05400
C 	C 	0.45290 0.50170 0.06690 -0.07600
N 	N 	0.36090 0.70600 0.54720 -0.43700
N 	N 	0.46780 0.79960 0.41130 -0.27600
N 	N 	0.28240 0.81120 0.45810 -0.25800
N 	N 	0.63910 0.29400 0.54720 -0.43700
N 	N 	0.53220 0.20040 0.41130 -0.27600
N 	N 	0.71760 0.18880 0.45810 -0.25800
N 	N 	0.79400 0.13910 0.95280 -0.43700
N 	N 	0.70040 0.03220 0.08870 -0.27600
N 	N 	0.68880 0.21760 0.04190 -0.25800
N 	N 	0.20600 0.86090 0.95280 -0.43700
N 	N 	0.29960 0.96780 0.08870 -0.27600
N 	N 	0.31120 0.78240 0.04190 -0.25800
O 	O 	0.53300 0.70480 0.50240 -0.38300
O 	O 	0.60660 0.62850 0.56560 -0.33300
O 	O 	0.46700 0.29520 0.50240 -0.38300
O 	O 	0.39340 0.37150 0.56560 -0.33300
O 	O 	0.79520 0.96700 0.99760 -0.38300
O 	O 	0.87150 0.89340 0.93440 -0.33300
O 	O 	0.20480 0.03300 0.99760 -0.38300
O 	O 	0.12850 0.10660 0.93440 -0.33300
