data_crystal

_cell_length_a 12.49570
_cell_length_b 15.31630
_cell_length_c 24.25400
_cell_angle_alpha 90.00000
_cell_angle_beta  102.30400
_cell_angle_gamma 90.00000

_symmetry_space_group_name_	'P 1'
_symmetry_space_group_name_H-M	'P 1'

loop_
_symmetry_equiv_pos_as_xyz
  x,y,z

loop_
_atom_site_label
_atom_site_type_symbol
_atom_site_fract_x
_atom_site_fract_y
_atom_site_fract_z
_atom_site_charge
C 	C 	0.36600 0.47770 0.26012 0.43000
C 	C 	0.32272 0.40525 0.22071 -0.14600
C 	C 	0.22850 0.41778 0.17842 0.00700
H 	H 	0.19200 0.47110 0.17550 0.02600
C 	C 	0.18947 0.35131 0.14096 -0.01600
C 	C 	0.24600 0.27389 0.14511 -0.00200
H 	H 	0.22160 0.22950 0.11940 0.04600
C 	C 	0.33990 0.26079 0.18750 -0.13400
C 	C 	0.37620 0.32655 0.22529 0.07000
H 	H 	0.43740 0.31770 0.25410 0.01100
C 	C 	0.40450 0.17772 0.18945 0.39200
C 	C 	0.09056 0.36728 0.09489 -0.01300
C 	C 	0.08692 0.44063 0.06228 -0.07900
H 	H 	0.14520 0.47960 0.07060 0.05300
C 	C 	0.00032 0.46004 0.01725 0.01900
C 	C 	0.91318 0.39968 0.00763 -0.07800
H 	H 	0.85370 0.41000 0.97800 0.05300
C 	C 	0.91235 0.32587 0.04032 -0.01700
C 	C 	0.00160 0.30760 0.08502 0.07500
C 	C 	0.81701 0.26371 0.02862 -0.00800
C 	C 	0.78210 0.22622 0.97552 -0.01500
H 	H 	0.81430 0.24320 0.94600 0.03600
C 	C 	0.69910 0.16338 0.96608 -0.10200
C 	C 	0.65090 0.13875 0.00991 0.04500
H 	H 	0.59810 0.09500 0.00430 0.04300
C 	C 	0.68070 0.17875 0.06236 -0.12700
C 	C 	0.76280 0.24115 0.07121 -0.00700
H 	H 	0.78210 0.26850 0.10620 0.03000
C 	C 	0.66280 0.11977 0.90916 0.36800
C 	C 	0.62830 0.15130 0.10950 0.42100
N 	N 	0.00430 0.23393 0.11780 -0.29900
H 	H 	0.95060 0.19770 0.11120 0.14400
H 	H 	0.05980 0.22420 0.14490 0.14400
O 	O 	0.45556 0.46141 0.29452 -0.50300
O 	O 	0.31470 0.54711 0.25678 -0.52400
O 	O 	0.48737 0.16775 0.22820 -0.50300
O 	O 	0.37003 0.12233 0.15150 -0.47700
O 	O 	0.64430 0.19544 0.15284 -0.51200
O 	O 	0.57025 0.08237 0.10072 -0.48000
O 	O 	0.61091 0.04908 0.91116 -0.45100
O 	O 	0.68280 0.15324 0.86612 -0.32900
Zn	Zn	0.52892 0.53079 0.35635 1.24300
Zn	Zn	0.34189 0.67874 0.26134 1.17000
C 	C 	0.63400 0.97770 0.23988 0.43100
C 	C 	0.67728 0.90525 0.27929 -0.14700
C 	C 	0.77150 0.91778 0.32158 0.00600
H 	H 	0.80800 0.97110 0.32450 0.02500
C 	C 	0.81053 0.85131 0.35904 -0.01700
C 	C 	0.75400 0.77389 0.35489 -0.00300
H 	H 	0.77840 0.72950 0.38060 0.04600
C 	C 	0.66010 0.76079 0.31250 -0.13400
C 	C 	0.62380 0.82655 0.27471 0.07000
H 	H 	0.56260 0.81770 0.24590 0.01100
C 	C 	0.59550 0.67772 0.31055 0.39200
C 	C 	0.90944 0.86728 0.40511 -0.01300
C 	C 	0.91308 0.94063 0.43772 -0.07900
H 	H 	0.85480 0.97960 0.42940 0.05300
C 	C 	0.99968 0.96004 0.48275 0.01900
C 	C 	0.08682 0.89968 0.49237 -0.07700
H 	H 	0.14630 0.91000 0.52200 0.05200
C 	C 	0.08765 0.82587 0.45968 -0.01800
C 	C 	0.99840 0.80760 0.41498 0.07600
C 	C 	0.18299 0.76371 0.47138 -0.00700
C 	C 	0.21790 0.72622 0.52448 -0.01500
H 	H 	0.18570 0.74320 0.55400 0.03600
C 	C 	0.30090 0.66338 0.53392 -0.10300
C 	C 	0.34910 0.63875 0.49009 0.04700
H 	H 	0.40190 0.59500 0.49570 0.04300
C 	C 	0.31930 0.67875 0.43764 -0.12700
C 	C 	0.23720 0.74115 0.42879 -0.00700
H 	H 	0.21790 0.76850 0.39380 0.03000
C 	C 	0.33720 0.61977 0.59084 0.36800
C 	C 	0.37170 0.65130 0.39050 0.42100
N 	N 	0.99570 0.73393 0.38220 -0.29900
H 	H 	0.04940 0.69770 0.38880 0.14400
H 	H 	0.94020 0.72420 0.35510 0.14400
O 	O 	0.54444 0.96141 0.20548 -0.50300
O 	O 	0.68530 0.04711 0.24322 -0.52500
O 	O 	0.51263 0.66775 0.27180 -0.50300
O 	O 	0.62997 0.62233 0.34850 -0.47700
O 	O 	0.35570 0.69544 0.34716 -0.51200
O 	O 	0.42975 0.58237 0.39928 -0.48000
O 	O 	0.38909 0.54908 0.58884 -0.45200
O 	O 	0.31720 0.65324 0.63388 -0.32900
Zn	Zn	0.47108 0.03079 0.14365 1.24200
Zn	Zn	0.65811 0.17874 0.23866 1.17000
C 	C 	0.63400 0.52230 0.73988 0.42900
C 	C 	0.67728 0.59475 0.77929 -0.14700
C 	C 	0.77150 0.58222 0.82158 0.00600
H 	H 	0.80800 0.52890 0.82450 0.02500
C 	C 	0.81053 0.64869 0.85904 -0.01700
C 	C 	0.75400 0.72611 0.85489 -0.00300
H 	H 	0.77840 0.77050 0.88060 0.04600
C 	C 	0.66010 0.73921 0.81250 -0.13400
C 	C 	0.62380 0.67345 0.77471 0.07000
H 	H 	0.56260 0.68230 0.74590 0.01100
C 	C 	0.59550 0.82228 0.81055 0.39200
C 	C 	0.90944 0.63272 0.90511 -0.01300
C 	C 	0.91308 0.55937 0.93772 -0.07900
H 	H 	0.85480 0.52040 0.92940 0.05300
C 	C 	0.99968 0.53996 0.98275 0.01900
C 	C 	0.08682 0.60032 0.99237 -0.07800
H 	H 	0.14630 0.59000 0.02200 0.05300
C 	C 	0.08765 0.67413 0.95968 -0.01700
C 	C 	0.99840 0.69240 0.91498 0.07500
C 	C 	0.18299 0.73629 0.97138 -0.00800
C 	C 	0.21790 0.77378 0.02448 -0.01500
H 	H 	0.18570 0.75680 0.05400 0.03600
C 	C 	0.30090 0.83662 0.03392 -0.10200
C 	C 	0.34910 0.86125 0.99009 0.04500
H 	H 	0.40190 0.90500 0.99570 0.04300
C 	C 	0.31930 0.82125 0.93764 -0.12700
C 	C 	0.23720 0.75885 0.92879 -0.00700
H 	H 	0.21790 0.73150 0.89380 0.03000
C 	C 	0.33720 0.88023 0.09084 0.36800
C 	C 	0.37170 0.84870 0.89050 0.42100
N 	N 	0.99570 0.76607 0.88220 -0.29900
H 	H 	0.04940 0.80230 0.88880 0.14400
H 	H 	0.94020 0.77580 0.85510 0.14400
O 	O 	0.54444 0.53859 0.70548 -0.50300
O 	O 	0.68530 0.45289 0.74322 -0.52400
O 	O 	0.51263 0.83225 0.77180 -0.50300
O 	O 	0.62997 0.87767 0.84850 -0.47700
O 	O 	0.35570 0.80456 0.84716 -0.51200
O 	O 	0.42975 0.91763 0.89928 -0.48000
O 	O 	0.38909 0.95092 0.08884 -0.45100
O 	O 	0.31720 0.84676 0.13388 -0.32900
Zn	Zn	0.47108 0.46921 0.64365 1.24300
Zn	Zn	0.65811 0.32126 0.73866 1.17000
C 	C 	0.36600 0.02230 0.76012 0.43100
C 	C 	0.32272 0.09475 0.72071 -0.14700
C 	C 	0.22850 0.08222 0.67842 0.00600
H 	H 	0.19200 0.02890 0.67550 0.02500
C 	C 	0.18947 0.14869 0.64096 -0.01700
C 	C 	0.24600 0.22611 0.64511 -0.00300
H 	H 	0.22160 0.27050 0.61940 0.04600
C 	C 	0.33990 0.23921 0.68750 -0.13400
C 	C 	0.37620 0.17345 0.72529 0.07000
H 	H 	0.43740 0.18230 0.75410 0.01100
C 	C 	0.40450 0.32228 0.68945 0.39200
C 	C 	0.09056 0.13272 0.59489 -0.01300
C 	C 	0.08692 0.05937 0.56228 -0.07900
H 	H 	0.14520 0.02040 0.57060 0.05300
C 	C 	0.00032 0.03996 0.51725 0.01900
C 	C 	0.91318 0.10032 0.50763 -0.07700
H 	H 	0.85370 0.09000 0.47800 0.05200
C 	C 	0.91235 0.17413 0.54032 -0.01800
C 	C 	0.00160 0.19240 0.58502 0.07600
C 	C 	0.81701 0.23629 0.52862 -0.00700
C 	C 	0.78210 0.27378 0.47552 -0.01500
H 	H 	0.81430 0.25680 0.44600 0.03600
C 	C 	0.69910 0.33662 0.46608 -0.10300
C 	C 	0.65090 0.36125 0.50991 0.04700
H 	H 	0.59810 0.40500 0.50430 0.04300
C 	C 	0.68070 0.32125 0.56236 -0.12700
C 	C 	0.76280 0.25885 0.57121 -0.00700
H 	H 	0.78210 0.23150 0.60620 0.03000
C 	C 	0.66280 0.38023 0.40916 0.36800
C 	C 	0.62830 0.34870 0.60950 0.42100
N 	N 	0.00430 0.26607 0.61780 -0.29900
H 	H 	0.95060 0.30230 0.61120 0.14400
H 	H 	0.05980 0.27580 0.64490 0.14400
O 	O 	0.45556 0.03859 0.79452 -0.50300
O 	O 	0.31470 0.95289 0.75678 -0.52500
O 	O 	0.48737 0.33225 0.72820 -0.50300
O 	O 	0.37003 0.37767 0.65150 -0.47700
O 	O 	0.64430 0.30456 0.65284 -0.51200
O 	O 	0.57025 0.41763 0.60072 -0.48000
O 	O 	0.61091 0.45092 0.41116 -0.45200
O 	O 	0.68280 0.34676 0.36612 -0.32900
Zn	Zn	0.52892 0.96921 0.85635 1.24200
Zn	Zn	0.34189 0.82126 0.76134 1.17000
