data_crystal

_cell_length_a 29.21800
_cell_length_b 11.19120
_cell_length_c 22.98330
_cell_angle_alpha 90.00000
_cell_angle_beta  90.00000
_cell_angle_gamma 90.00000

_symmetry_space_group_name_	'P 1'
_symmetry_space_group_name_H-M	'P 1'

loop_
_symmetry_equiv_pos_as_xyz
  x,y,z

loop_
_atom_site_label
_atom_site_type_symbol
_atom_site_fract_x
_atom_site_fract_y
_atom_site_fract_z
_atom_site_charge
Cd	Cd	0.11480 0.54311 0.19135 1.22400
Cd	Cd	0.06184 0.75361 0.09348 1.22700
O 	O 	0.10890 0.57890 0.09210 -0.49600
O 	O 	0.17900 0.54800 0.11990 -0.35700
O 	O 	0.32450 0.53550 0.76240 -0.35800
O 	O 	0.39530 0.53620 0.79170 -0.37600
O 	O 	0.37300 0.65610 0.05880 -0.38800
O 	O 	0.42520 0.69650 0.99510 -0.38300
O 	O 	0.96270 0.44680 0.81260 -0.45200
O 	O 	0.99190 0.37640 0.89610 -0.44000
O 	O 	0.12260 0.75370 0.70980 -0.41300
O 	O 	0.05980 0.66400 0.67980 -0.44700
C 	C 	0.15140 0.56530 0.08120 0.32000
C 	C 	0.16640 0.56990 0.01810 -0.02800
C 	C 	0.21190 0.57240 0.00480 -0.08000
H 	H 	0.23360 0.56920 0.03430 0.07800
C 	C 	0.22590 0.57970 0.94680 0.06300
C 	C 	0.19280 0.58240 0.90390 -0.12800
H 	H 	0.20200 0.58890 0.86530 0.08400
C 	C 	0.14660 0.57570 0.91620 0.07000
C 	C 	0.13350 0.57020 0.97460 -0.07900
H 	H 	0.10260 0.56660 0.98440 0.06500
C 	C 	0.35330 0.54260 0.80120 0.31500
C 	C 	0.38560 0.65930 0.00790 0.32000
C 	C 	0.33790 0.56830 0.86200 -0.07100
C 	C 	0.36860 0.59660 0.90440 0.01300
H 	H 	0.39970 0.59810 0.89580 0.05200
C 	C 	0.35350 0.62390 0.96170 -0.07800
C 	C 	0.30840 0.61430 0.97350 -0.01300
H 	H 	0.29880 0.62720 0.01160 0.05600
C 	C 	0.27590 0.58650 0.93220 -0.01500
C 	C 	0.29160 0.55840 0.87630 -0.02100
H 	H 	0.27090 0.53280 0.84820 0.05600
C 	C 	0.99360 0.43820 0.84840 0.37000
C 	C 	0.08910 0.68660 0.71770 0.37500
C 	C 	0.03750 0.50590 0.83750 -0.10900
C 	C 	0.04320 0.56090 0.78580 0.04500
H 	H 	0.02050 0.55640 0.75760 0.04000
C 	C 	0.08320 0.62430 0.77480 -0.10600
C 	C 	0.11630 0.63060 0.81770 0.00600
H 	H 	0.14280 0.67460 0.81060 0.04800
C 	C 	0.11140 0.57400 0.87050 -0.03100
C 	C 	0.07110 0.51070 0.88000 0.00500
H 	H 	0.06660 0.47130 0.91520 0.04200
Cd	Cd	0.38520 0.95689 0.19135 1.22300
Cd	Cd	0.43816 0.74639 0.09348 1.22600
O 	O 	0.39110 0.92110 0.09210 -0.49600
O 	O 	0.32100 0.95200 0.11990 -0.35700
O 	O 	0.17550 0.96450 0.76240 -0.35800
O 	O 	0.10470 0.96380 0.79170 -0.37600
O 	O 	0.12700 0.84390 0.05880 -0.38800
O 	O 	0.07480 0.80350 0.99510 -0.38200
O 	O 	0.53730 0.05320 0.81260 -0.45200
O 	O 	0.50810 0.12360 0.89610 -0.44000
O 	O 	0.37740 0.74630 0.70980 -0.41300
O 	O 	0.44020 0.83600 0.67980 -0.44700
C 	C 	0.34860 0.93470 0.08120 0.31900
C 	C 	0.33360 0.93010 0.01810 -0.02800
C 	C 	0.28810 0.92760 0.00480 -0.08100
H 	H 	0.26640 0.93080 0.03430 0.07800
C 	C 	0.27410 0.92030 0.94680 0.06500
C 	C 	0.30720 0.91760 0.90390 -0.12900
H 	H 	0.29800 0.91110 0.86530 0.08400
C 	C 	0.35340 0.92430 0.91620 0.07100
C 	C 	0.36650 0.92980 0.97460 -0.07900
H 	H 	0.39740 0.93340 0.98440 0.06500
C 	C 	0.14670 0.95740 0.80120 0.31500
C 	C 	0.11440 0.84070 0.00790 0.31800
C 	C 	0.16210 0.93170 0.86200 -0.07100
C 	C 	0.13140 0.90340 0.90440 0.01300
H 	H 	0.10030 0.90190 0.89580 0.05200
C 	C 	0.14650 0.87610 0.96170 -0.07700
C 	C 	0.19160 0.88570 0.97350 -0.01200
H 	H 	0.20120 0.87280 0.01160 0.05400
C 	C 	0.22410 0.91350 0.93220 -0.01600
C 	C 	0.20840 0.94160 0.87630 -0.02000
H 	H 	0.22910 0.96720 0.84820 0.05600
C 	C 	0.50640 0.06180 0.84840 0.37000
C 	C 	0.41090 0.81340 0.71770 0.37500
C 	C 	0.46250 0.99410 0.83750 -0.11000
C 	C 	0.45680 0.93910 0.78580 0.04500
H 	H 	0.47950 0.94360 0.75760 0.03900
C 	C 	0.41680 0.87570 0.77480 -0.10700
C 	C 	0.38370 0.86940 0.81770 0.00700
H 	H 	0.35720 0.82540 0.81060 0.04800
C 	C 	0.38860 0.92600 0.87050 -0.03300
C 	C 	0.42890 0.98930 0.88000 0.00800
H 	H 	0.43340 0.02870 0.91520 0.04000
Cd	Cd	0.88520 0.04311 0.30865 1.22300
Cd	Cd	0.93816 0.25361 0.40652 1.22600
O 	O 	0.89110 0.07890 0.40790 -0.49600
O 	O 	0.82100 0.04800 0.38010 -0.35700
O 	O 	0.67550 0.03550 0.73760 -0.35800
O 	O 	0.60470 0.03620 0.70830 -0.37600
O 	O 	0.62700 0.15610 0.44120 -0.38800
O 	O 	0.57480 0.19650 0.50490 -0.38400
O 	O 	0.03730 0.94680 0.68740 -0.45200
O 	O 	0.00810 0.87640 0.60390 -0.44000
O 	O 	0.87740 0.25370 0.79020 -0.41400
O 	O 	0.94020 0.16400 0.82020 -0.44700
C 	C 	0.84860 0.06530 0.41880 0.31900
C 	C 	0.83360 0.06990 0.48190 -0.02800
C 	C 	0.78810 0.07240 0.49520 -0.07900
H 	H 	0.76640 0.06920 0.46570 0.07800
C 	C 	0.77410 0.07970 0.55320 0.06300
C 	C 	0.80720 0.08240 0.59610 -0.12800
H 	H 	0.79800 0.08890 0.63470 0.08400
C 	C 	0.85340 0.07570 0.58380 0.07000
C 	C 	0.86650 0.07020 0.52540 -0.08100
H 	H 	0.89740 0.06660 0.51560 0.06500
C 	C 	0.64670 0.04260 0.69880 0.31500
C 	C 	0.61440 0.15930 0.49210 0.32100
C 	C 	0.66210 0.06830 0.63800 -0.07100
C 	C 	0.63140 0.09660 0.59560 0.01300
H 	H 	0.60030 0.09810 0.60420 0.05200
C 	C 	0.64650 0.12390 0.53830 -0.07800
C 	C 	0.69160 0.11430 0.52650 -0.01400
H 	H 	0.70120 0.12720 0.48840 0.05600
C 	C 	0.72410 0.08650 0.56780 -0.01400
C 	C 	0.70840 0.05840 0.62370 -0.02100
H 	H 	0.72910 0.03280 0.65180 0.05600
C 	C 	0.00640 0.93820 0.65160 0.37100
C 	C 	0.91090 0.18660 0.78230 0.37500
C 	C 	0.96250 0.00590 0.66250 -0.11100
C 	C 	0.95680 0.06090 0.71420 0.04600
H 	H 	0.97950 0.05640 0.74240 0.03900
C 	C 	0.91680 0.12430 0.72520 -0.10700
C 	C 	0.88370 0.13060 0.68230 0.00600
H 	H 	0.85720 0.17460 0.68940 0.04800
C 	C 	0.88860 0.07400 0.62950 -0.03200
C 	C 	0.92890 0.01070 0.62000 0.00500
H 	H 	0.93340 0.97130 0.58480 0.04200
Cd	Cd	0.61480 0.45689 0.30865 1.22300
Cd	Cd	0.56184 0.24639 0.40652 1.22600
O 	O 	0.60890 0.42110 0.40790 -0.49600
O 	O 	0.67900 0.45200 0.38010 -0.35700
O 	O 	0.82450 0.46450 0.73760 -0.35800
O 	O 	0.89530 0.46380 0.70830 -0.37600
O 	O 	0.87300 0.34390 0.44120 -0.38800
O 	O 	0.92520 0.30350 0.50490 -0.38400
O 	O 	0.46270 0.55320 0.68740 -0.45200
O 	O 	0.49190 0.62360 0.60390 -0.43900
O 	O 	0.62260 0.24630 0.79020 -0.41300
O 	O 	0.55980 0.33600 0.82020 -0.44700
C 	C 	0.65140 0.43470 0.41880 0.31900
C 	C 	0.66640 0.43010 0.48190 -0.02800
C 	C 	0.71190 0.42760 0.49520 -0.07900
H 	H 	0.73360 0.43080 0.46570 0.07700
C 	C 	0.72590 0.42030 0.55320 0.06300
C 	C 	0.69280 0.41760 0.59610 -0.12800
H 	H 	0.70200 0.41110 0.63470 0.08400
C 	C 	0.64660 0.42430 0.58380 0.07000
C 	C 	0.63350 0.42980 0.52540 -0.08100
H 	H 	0.60260 0.43340 0.51560 0.06500
C 	C 	0.85330 0.45740 0.69880 0.31500
C 	C 	0.88560 0.34070 0.49210 0.32100
C 	C 	0.83790 0.43170 0.63800 -0.07000
C 	C 	0.86860 0.40340 0.59560 0.01300
H 	H 	0.89970 0.40190 0.60420 0.05200
C 	C 	0.85350 0.37610 0.53830 -0.07800
C 	C 	0.80840 0.38570 0.52650 -0.01400
H 	H 	0.79880 0.37280 0.48840 0.05600
C 	C 	0.77590 0.41350 0.56780 -0.01400
C 	C 	0.79160 0.44160 0.62370 -0.02100
H 	H 	0.77090 0.46720 0.65180 0.05600
C 	C 	0.49360 0.56180 0.65160 0.37100
C 	C 	0.58910 0.31340 0.78230 0.37500
C 	C 	0.53750 0.49410 0.66250 -0.11000
C 	C 	0.54320 0.43910 0.71420 0.04500
H 	H 	0.52050 0.44360 0.74240 0.03900
C 	C 	0.58320 0.37570 0.72520 -0.10700
C 	C 	0.61630 0.36940 0.68230 0.00600
H 	H 	0.64280 0.32540 0.68940 0.04800
C 	C 	0.61140 0.42600 0.62950 -0.03100
C 	C 	0.57110 0.48930 0.62000 0.00500
H 	H 	0.56660 0.52870 0.58480 0.04200
Cd	Cd	0.88520 0.45689 0.80865 1.22300
Cd	Cd	0.93816 0.24639 0.90652 1.22600
O 	O 	0.89110 0.42110 0.90790 -0.49600
O 	O 	0.82100 0.45200 0.88010 -0.35700
O 	O 	0.67550 0.46450 0.23760 -0.35800
O 	O 	0.60470 0.46380 0.20830 -0.37600
O 	O 	0.62700 0.34390 0.94120 -0.38800
O 	O 	0.57480 0.30350 0.00490 -0.38300
O 	O 	0.03730 0.55320 0.18740 -0.45200
O 	O 	0.00810 0.62360 0.10390 -0.44000
O 	O 	0.87740 0.24630 0.29020 -0.41300
O 	O 	0.94020 0.33600 0.32020 -0.44700
C 	C 	0.84860 0.43470 0.91880 0.32000
C 	C 	0.83360 0.43010 0.98190 -0.02800
C 	C 	0.78810 0.42760 0.99520 -0.08000
H 	H 	0.76640 0.43080 0.96570 0.07800
C 	C 	0.77410 0.42030 0.05320 0.06300
C 	C 	0.80720 0.41760 0.09610 -0.12800
H 	H 	0.79800 0.41110 0.13470 0.08400
C 	C 	0.85340 0.42430 0.08380 0.07000
C 	C 	0.86650 0.42980 0.02540 -0.07900
H 	H 	0.89740 0.43340 0.01560 0.06500
C 	C 	0.64670 0.45740 0.19880 0.31500
C 	C 	0.61440 0.34070 0.99210 0.32000
C 	C 	0.66210 0.43170 0.13800 -0.07100
C 	C 	0.63140 0.40340 0.09560 0.01300
H 	H 	0.60030 0.40190 0.10420 0.05200
C 	C 	0.64650 0.37610 0.03830 -0.07800
C 	C 	0.69160 0.38570 0.02650 -0.01300
H 	H 	0.70120 0.37280 0.98840 0.05600
C 	C 	0.72410 0.41350 0.06780 -0.01500
C 	C 	0.70840 0.44160 0.12370 -0.02100
H 	H 	0.72910 0.46720 0.15180 0.05600
C 	C 	0.00640 0.56180 0.15160 0.37000
C 	C 	0.91090 0.31340 0.28230 0.37500
C 	C 	0.96250 0.49410 0.16250 -0.10900
C 	C 	0.95680 0.43910 0.21420 0.04500
H 	H 	0.97950 0.44360 0.24240 0.04000
C 	C 	0.91680 0.37570 0.22520 -0.10600
C 	C 	0.88370 0.36940 0.18230 0.00600
H 	H 	0.85720 0.32540 0.18940 0.04800
C 	C 	0.88860 0.42600 0.12950 -0.03100
C 	C 	0.92890 0.48930 0.12000 0.00500
H 	H 	0.93340 0.52870 0.08480 0.04200
Cd	Cd	0.61480 0.04311 0.80865 1.22300
Cd	Cd	0.56184 0.25361 0.90652 1.22600
O 	O 	0.60890 0.07890 0.90790 -0.49600
O 	O 	0.67900 0.04800 0.88010 -0.35700
O 	O 	0.82450 0.03550 0.23760 -0.35800
O 	O 	0.89530 0.03620 0.20830 -0.37600
O 	O 	0.87300 0.15610 0.94120 -0.38800
O 	O 	0.92520 0.19650 0.00490 -0.38200
O 	O 	0.46270 0.94680 0.18740 -0.45200
O 	O 	0.49190 0.87640 0.10390 -0.44000
O 	O 	0.62260 0.25370 0.29020 -0.41300
O 	O 	0.55980 0.16400 0.32020 -0.44700
C 	C 	0.65140 0.06530 0.91880 0.31900
C 	C 	0.66640 0.06990 0.98190 -0.02800
C 	C 	0.71190 0.07240 0.99520 -0.08100
H 	H 	0.73360 0.06920 0.96570 0.07800
C 	C 	0.72590 0.07970 0.05320 0.06500
C 	C 	0.69280 0.08240 0.09610 -0.12900
H 	H 	0.70200 0.08890 0.13470 0.08400
C 	C 	0.64660 0.07570 0.08380 0.07100
C 	C 	0.63350 0.07020 0.02540 -0.07900
H 	H 	0.60260 0.06660 0.01560 0.06500
C 	C 	0.85330 0.04260 0.19880 0.31500
C 	C 	0.88560 0.15930 0.99210 0.31800
C 	C 	0.83790 0.06830 0.13800 -0.07100
C 	C 	0.86860 0.09660 0.09560 0.01300
H 	H 	0.89970 0.09810 0.10420 0.05200
C 	C 	0.85350 0.12390 0.03830 -0.07700
C 	C 	0.80840 0.11430 0.02650 -0.01200
H 	H 	0.79880 0.12720 0.98840 0.05400
C 	C 	0.77590 0.08650 0.06780 -0.01600
C 	C 	0.79160 0.05840 0.12370 -0.02000
H 	H 	0.77090 0.03280 0.15180 0.05600
C 	C 	0.49360 0.93820 0.15160 0.37000
C 	C 	0.58910 0.18660 0.28230 0.37500
C 	C 	0.53750 0.00590 0.16250 -0.11000
C 	C 	0.54320 0.06090 0.21420 0.04500
H 	H 	0.52050 0.05640 0.24240 0.03900
C 	C 	0.58320 0.12430 0.22520 -0.10700
C 	C 	0.61630 0.13060 0.18230 0.00700
H 	H 	0.64280 0.17460 0.18940 0.04800
C 	C 	0.61140 0.07400 0.12950 -0.03300
C 	C 	0.57110 0.01070 0.12000 0.00800
H 	H 	0.56660 0.97130 0.08480 0.04000
Cd	Cd	0.11480 0.95689 0.69135 1.22300
Cd	Cd	0.06184 0.74639 0.59348 1.22600
O 	O 	0.10890 0.92110 0.59210 -0.49600
O 	O 	0.17900 0.95200 0.61990 -0.35700
O 	O 	0.32450 0.96450 0.26240 -0.35800
O 	O 	0.39530 0.96380 0.29170 -0.37600
O 	O 	0.37300 0.84390 0.55880 -0.38800
O 	O 	0.42520 0.80350 0.49510 -0.38400
O 	O 	0.96270 0.05320 0.31260 -0.45200
O 	O 	0.99190 0.12360 0.39610 -0.44000
O 	O 	0.12260 0.74630 0.20980 -0.41400
O 	O 	0.05980 0.83600 0.17980 -0.44700
C 	C 	0.15140 0.93470 0.58120 0.31900
C 	C 	0.16640 0.93010 0.51810 -0.02800
C 	C 	0.21190 0.92760 0.50480 -0.07900
H 	H 	0.23360 0.93080 0.53430 0.07800
C 	C 	0.22590 0.92030 0.44680 0.06300
C 	C 	0.19280 0.91760 0.40390 -0.12800
H 	H 	0.20200 0.91110 0.36530 0.08400
C 	C 	0.14660 0.92430 0.41620 0.07000
C 	C 	0.13350 0.92980 0.47460 -0.08100
H 	H 	0.10260 0.93340 0.48440 0.06500
C 	C 	0.35330 0.95740 0.30120 0.31500
C 	C 	0.38560 0.84070 0.50790 0.32100
C 	C 	0.33790 0.93170 0.36200 -0.07100
C 	C 	0.36860 0.90340 0.40440 0.01300
H 	H 	0.39970 0.90190 0.39580 0.05200
C 	C 	0.35350 0.87610 0.46170 -0.07800
C 	C 	0.30840 0.88570 0.47350 -0.01400
H 	H 	0.29880 0.87280 0.51160 0.05600
C 	C 	0.27590 0.91350 0.43220 -0.01400
C 	C 	0.29160 0.94160 0.37630 -0.02100
H 	H 	0.27090 0.96720 0.34820 0.05600
C 	C 	0.99360 0.06180 0.34840 0.37100
C 	C 	0.08910 0.81340 0.21770 0.37500
C 	C 	0.03750 0.99410 0.33750 -0.11100
C 	C 	0.04320 0.93910 0.28580 0.04600
H 	H 	0.02050 0.94360 0.25760 0.03900
C 	C 	0.08320 0.87570 0.27480 -0.10700
C 	C 	0.11630 0.86940 0.31770 0.00600
H 	H 	0.14280 0.82540 0.31060 0.04800
C 	C 	0.11140 0.92600 0.37050 -0.03200
C 	C 	0.07110 0.98930 0.38000 0.00500
H 	H 	0.06660 0.02870 0.41520 0.04200
Cd	Cd	0.38520 0.54311 0.69135 1.22300
Cd	Cd	0.43816 0.75361 0.59348 1.22600
O 	O 	0.39110 0.57890 0.59210 -0.49600
O 	O 	0.32100 0.54800 0.61990 -0.35700
O 	O 	0.17550 0.53550 0.26240 -0.35800
O 	O 	0.10470 0.53620 0.29170 -0.37600
O 	O 	0.12700 0.65610 0.55880 -0.38800
O 	O 	0.07480 0.69650 0.49510 -0.38400
O 	O 	0.53730 0.44680 0.31260 -0.45200
O 	O 	0.50810 0.37640 0.39610 -0.43900
O 	O 	0.37740 0.75370 0.20980 -0.41300
O 	O 	0.44020 0.66400 0.17980 -0.44700
C 	C 	0.34860 0.56530 0.58120 0.31900
C 	C 	0.33360 0.56990 0.51810 -0.02800
C 	C 	0.28810 0.57240 0.50480 -0.07900
H 	H 	0.26640 0.56920 0.53430 0.07700
C 	C 	0.27410 0.57970 0.44680 0.06300
C 	C 	0.30720 0.58240 0.40390 -0.12800
H 	H 	0.29800 0.58890 0.36530 0.08400
C 	C 	0.35340 0.57570 0.41620 0.07000
C 	C 	0.36650 0.57020 0.47460 -0.08100
H 	H 	0.39740 0.56660 0.48440 0.06500
C 	C 	0.14670 0.54260 0.30120 0.31500
C 	C 	0.11440 0.65930 0.50790 0.32100
C 	C 	0.16210 0.56830 0.36200 -0.07000
C 	C 	0.13140 0.59660 0.40440 0.01300
H 	H 	0.10030 0.59810 0.39580 0.05200
C 	C 	0.14650 0.62390 0.46170 -0.07800
C 	C 	0.19160 0.61430 0.47350 -0.01400
H 	H 	0.20120 0.62720 0.51160 0.05600
C 	C 	0.22410 0.58650 0.43220 -0.01400
C 	C 	0.20840 0.55840 0.37630 -0.02100
H 	H 	0.22910 0.53280 0.34820 0.05600
C 	C 	0.50640 0.43820 0.34840 0.37100
C 	C 	0.41090 0.68660 0.21770 0.37500
C 	C 	0.46250 0.50590 0.33750 -0.11000
C 	C 	0.45680 0.56090 0.28580 0.04500
H 	H 	0.47950 0.55640 0.25760 0.03900
C 	C 	0.41680 0.62430 0.27480 -0.10700
C 	C 	0.38370 0.63060 0.31770 0.00600
H 	H 	0.35720 0.67460 0.31060 0.04800
C 	C 	0.38860 0.57400 0.37050 -0.03100
C 	C 	0.42890 0.51070 0.38000 0.00500
H 	H 	0.43340 0.47130 0.41520 0.04200
