data_crystal

_cell_length_a 10.34170
_cell_length_b 13.41480
_cell_length_c 17.56770
_cell_angle_alpha 90.00000
_cell_angle_beta  107.11800
_cell_angle_gamma 90.00000

_symmetry_space_group_name_	'P 1'
_symmetry_space_group_name_H-M	'P 1'

loop_
_symmetry_equiv_pos_as_xyz
  x,y,z

loop_
_atom_site_label
_atom_site_type_symbol
_atom_site_fract_x
_atom_site_fract_y
_atom_site_fract_z
_atom_site_charge
Cd	Cd	0.43468 0.52753 0.86936 1.17100
Cd	Cd	0.35658 0.75208 0.71316 1.18700
Cd	Cd	0.31361 0.01246 0.62722 1.17400
Cd	Cd	0.26836 0.27614 0.53672 1.19100
Cd	Cd	0.56532 0.02753 0.13064 1.14500
Cd	Cd	0.64342 0.25208 0.28684 1.18300
Cd	Cd	0.68639 0.51246 0.37278 1.20100
Cd	Cd	0.73164 0.77614 0.46328 1.19400
Cd	Cd	0.89437 0.24716 0.78874 1.16800
Cd	Cd	0.10563 0.74716 0.21125 1.17400
Cd	Cd	0.98492 0.78934 0.96984 1.17900
Cd	Cd	0.01508 0.28934 0.03016 1.17600
H 	H 	0.20490 0.62240 0.95420 -0.04400
H 	H 	0.09850 0.82690 0.79300 -0.01900
H 	H 	0.58100 0.69330 0.59760 -0.01800
H 	H 	0.54770 0.96540 0.52380 -0.00000
H 	H 	0.01530 0.32210 0.63400 -0.03600
H 	H 	0.09200 0.06710 0.73860 -0.05400
H 	H 	0.62120 0.39770 0.78120 -0.04800
H 	H 	0.69890 0.39380 0.00860 -0.03500
H 	H 	0.79510 0.12240 0.04580 -0.05800
H 	H 	0.90150 0.32690 0.20700 -0.02900
H 	H 	0.41900 0.19330 0.40240 -0.02700
H 	H 	0.45230 0.46540 0.47620 -0.02900
H 	H 	0.98470 0.82210 0.36600 -0.02600
H 	H 	0.90800 0.56710 0.26140 -0.03000
H 	H 	0.37880 0.89770 0.21880 -0.03300
H 	H 	0.30110 0.89380 0.99140 -0.02300
H 	H 	0.25070 0.12240 0.04580 -0.05900
H 	H 	0.30550 0.32690 0.20700 -0.03000
H 	H 	0.98340 0.19330 0.40240 -0.02700
H 	H 	0.02390 0.46540 0.47620 -0.02900
H 	H 	0.38130 0.82210 0.36600 -0.02600
H 	H 	0.35340 0.56710 0.26140 -0.03000
H 	H 	0.84000 0.89770 0.21880 -0.03300
H 	H 	0.69030 0.89380 0.99140 -0.02900
H 	H 	0.74930 0.62240 0.95420 -0.04600
H 	H 	0.69450 0.82690 0.79300 -0.02100
H 	H 	0.01660 0.69330 0.59760 -0.01800
H 	H 	0.97610 0.96540 0.52380 -0.00400
H 	H 	0.61870 0.32210 0.63400 -0.03700
H 	H 	0.64660 0.06710 0.73860 -0.05500
H 	H 	0.16000 0.39770 0.78120 -0.04700
H 	H 	0.30970 0.39380 0.00860 -0.04100
H 	H 	0.35690 0.35890 0.71380 -0.04600
H 	H 	0.27810 0.56650 0.55620 -0.03300
H 	H 	0.64310 0.85890 0.28620 -0.07300
H 	H 	0.72190 0.06650 0.44380 -0.02100
H 	H 	0.02020 0.02100 0.04040 -0.04900
H 	H 	0.90730 0.98580 0.81460 0.10200
H 	H 	0.97980 0.52100 0.95960 -0.04400
H 	H 	0.09270 0.48580 0.18540 -0.04100
C 	C 	0.19827 0.66180 0.90954 0.07900
C 	C 	0.14098 0.77230 0.82256 0.10700
C 	C 	0.55501 0.75970 0.58962 0.09400
C 	C 	0.53704 0.90680 0.54968 0.10400
C 	C 	0.05301 0.25990 0.65062 0.08500
C 	C 	0.09416 0.12240 0.70712 0.08600
C 	C 	0.66263 0.38510 0.83486 0.09300
C 	C 	0.70425 0.38330 0.95730 0.08800
C 	C 	0.80173 0.16180 0.09046 0.07100
C 	C 	0.85902 0.27230 0.17744 0.10200
C 	C 	0.44499 0.25970 0.41038 0.09000
C 	C 	0.46296 0.40680 0.45032 0.09800
C 	C 	0.94699 0.75990 0.34938 0.08800
C 	C 	0.90584 0.62240 0.29288 0.09400
C 	C 	0.33737 0.88510 0.16514 0.10600
C 	C 	0.29575 0.88330 0.04270 0.10300
C 	C 	0.28873 0.16180 0.09046 0.07000
C 	C 	0.31842 0.27230 0.17744 0.10100
C 	C 	0.96539 0.25970 0.41038 0.09000
C 	C 	0.98736 0.40680 0.45032 0.09700
C 	C 	0.40239 0.75990 0.34938 0.08800
C 	C 	0.38704 0.62240 0.29288 0.09400
C 	C 	0.82777 0.88510 0.16514 0.10600
C 	C 	0.74695 0.88330 0.04270 0.11000
C 	C 	0.71127 0.66180 0.90954 0.07800
C 	C 	0.68158 0.77230 0.82256 0.10600
C 	C 	0.03461 0.75970 0.58962 0.09600
C 	C 	0.01264 0.90680 0.54968 0.11000
C 	C 	0.59761 0.25990 0.65062 0.08500
C 	C 	0.61296 0.12240 0.70712 0.08500
C 	C 	0.17223 0.38510 0.83486 0.09300
C 	C 	0.25305 0.38330 0.95730 0.09600
C 	C 	0.34487 0.42130 0.68974 0.08800
C 	C 	0.30247 0.53330 0.60494 0.10300
C 	C 	0.65513 0.92130 0.31026 0.19200
C 	C 	0.69753 0.03330 0.39506 -0.00000
C 	C 	0.99309 0.03490 0.98618 0.01800
C 	C 	0.93248 0.01470 0.86496 -0.14200
C 	C 	0.00691 0.53490 0.01382 0.09400
C 	C 	0.06752 0.51470 0.13504 0.10500
N 	N 	0.27333 0.64840 0.86146 -0.23100
N 	N 	0.23711 0.72050 0.80462 -0.21500
N 	N 	0.11054 0.73900 0.88728 -0.25400
N 	N 	0.46805 0.80220 0.62170 -0.21600
N 	N 	0.45632 0.89900 0.59524 -0.19700
N 	N 	0.60184 0.82190 0.54448 -0.24800
N 	N 	0.14978 0.21940 0.62516 -0.21100
N 	N 	0.17642 0.13000 0.66184 -0.22400
N 	N 	0.01484 0.20190 0.70308 -0.26900
N 	N 	0.77630 0.33540 0.86060 -0.23400
N 	N 	0.80462 0.33440 0.94164 -0.22200
N 	N 	0.61158 0.41600 0.89196 -0.26700
N 	N 	0.72667 0.14840 0.13854 -0.24200
N 	N 	0.76289 0.22050 0.19538 -0.21900
N 	N 	0.88946 0.23900 0.11272 -0.25900
N 	N 	0.53195 0.30220 0.37830 -0.22100
N 	N 	0.54368 0.39900 0.40476 -0.21700
N 	N 	0.39816 0.32190 0.45552 -0.25300
N 	N 	0.85022 0.71940 0.37484 -0.20800
N 	N 	0.82358 0.63000 0.33816 -0.21000
N 	N 	0.98516 0.70190 0.29692 -0.26300
N 	N 	0.22370 0.83540 0.13940 -0.22700
N 	N 	0.19538 0.83440 0.05836 -0.21600
N 	N 	0.38842 0.91600 0.10804 -0.24700
N 	N 	0.41187 0.14840 0.13854 -0.24200
N 	N 	0.43249 0.22050 0.19538 -0.21900
N 	N 	0.22326 0.23900 0.11272 -0.26000
N 	N 	0.84635 0.30220 0.37830 -0.22100
N 	N 	0.86108 0.39900 0.40476 -0.21700
N 	N 	0.05736 0.32190 0.45552 -0.25300
N 	N 	0.52462 0.71940 0.37484 -0.20800
N 	N 	0.51458 0.63000 0.33816 -0.21000
N 	N 	0.31176 0.70190 0.29692 -0.26300
N 	N 	0.91570 0.83540 0.13940 -0.22600
N 	N 	0.86298 0.83440 0.05836 -0.21500
N 	N 	0.71962 0.91600 0.10804 -0.24800
N 	N 	0.58813 0.64840 0.86146 -0.23100
N 	N 	0.56751 0.72050 0.80462 -0.21500
N 	N 	0.77674 0.73900 0.88728 -0.25700
N 	N 	0.15365 0.80220 0.62170 -0.21700
N 	N 	0.13892 0.89900 0.59524 -0.19800
N 	N 	0.94264 0.82190 0.54448 -0.25100
N 	N 	0.47538 0.21940 0.62516 -0.21200
N 	N 	0.48542 0.13000 0.66184 -0.22400
N 	N 	0.68824 0.20190 0.70308 -0.27000
N 	N 	0.08430 0.33540 0.86060 -0.23200
N 	N 	0.13702 0.33440 0.94164 -0.22100
N 	N 	0.28038 0.41600 0.89196 -0.26800
N 	N 	0.36540 0.50510 0.73080 -0.22600
N 	N 	0.33713 0.58040 0.67426 -0.22100
N 	N 	0.30549 0.43300 0.61098 -0.24200
N 	N 	0.63460 0.00510 0.26920 -0.29100
N 	N 	0.66287 0.08040 0.32574 -0.21400
N 	N 	0.69451 0.93300 0.38902 -0.20800
N 	N 	0.93819 0.11430 0.87638 -0.20000
N 	N 	0.97927 0.12540 0.95854 -0.20100
N 	N 	0.96521 0.96260 0.93042 -0.13800
N 	N 	0.06181 0.61430 0.12362 -0.23100
N 	N 	0.02073 0.62540 0.04146 -0.20900
N 	N 	0.03479 0.46260 0.06958 -0.25100
Cl	Cl	0.38642 0.93834 0.77284 -0.58900
Cl	Cl	0.23979 0.09007 0.47958 -0.69000
Cl	Cl	0.61358 0.43834 0.22716 -0.64700
Cl	Cl	0.76021 0.59007 0.52042 -0.64200
