data_crystal

_cell_length_a 11.84540
_cell_length_b 28.39350
_cell_length_c 34.53640
_cell_angle_alpha 90.00000
_cell_angle_beta  90.00000
_cell_angle_gamma 90.00000

_symmetry_space_group_name_	'P 1'
_symmetry_space_group_name_H-M	'P 1'

loop_
_symmetry_equiv_pos_as_xyz
  x,y,z

loop_
_atom_site_label
_atom_site_type_symbol
_atom_site_fract_x
_atom_site_fract_y
_atom_site_fract_z
_atom_site_charge
Ni	Ni	0.78365 0.39007 0.12687 1.12700
O 	O 	0.38420 0.60552 0.89038 -0.39800
O 	O 	0.39430 0.54147 0.92795 -0.41500
O 	O 	0.66929 0.54648 0.03824 -0.39800
O 	O 	0.67130 0.61545 0.07015 -0.41500
O 	O 	0.46890 0.74600 0.02849 -0.08600
O 	O 	0.80776 0.45964 0.12429 -0.81500
O 	O 	0.80240 0.45656 0.21139 -0.42100
O 	O 	0.72720 0.39224 0.18425 -0.40900
O 	O 	0.05310 0.37679 0.35425 -0.39400
O 	O 	0.95440 0.44304 0.34686 -0.32800
O 	O 	0.87240 0.23774 0.30055 -0.12600
N 	N 	0.50380 0.73830 0.99234 -0.00100
N 	N 	0.76710 0.31697 0.12621 -0.21400
N 	N 	0.72820 0.07276 0.08854 -0.28400
N 	N 	0.86390 0.25854 0.26716 -0.04500
C 	C 	0.41050 0.58458 0.92107 0.33100
C 	C 	0.46490 0.61420 0.95470 -0.05900
C 	C 	0.46140 0.66360 0.95590 -0.01500
H 	H 	0.42440 0.68050 0.93670 0.05900
C 	C 	0.51450 0.68690 0.98670 0.03700
C 	C 	0.57380 0.66250 0.01400 -0.00400
H 	H 	0.61170 0.67850 0.03360 0.05000
C 	C 	0.57700 0.61340 0.01210 -0.01700
C 	C 	0.52680 0.58917 0.98159 -0.00600
H 	H 	0.53480 0.55670 0.97940 0.02500
C 	C 	0.64650 0.58954 0.04234 0.35200
C 	C 	0.77880 0.41346 0.21097 0.33500
C 	C 	0.81810 0.38504 0.24470 -0.04600
C 	C 	0.86710 0.40578 0.27700 -0.01200
H 	H 	0.86760 0.43840 0.27940 0.05600
C 	C 	0.91530 0.37804 0.30564 -0.04600
C 	C 	0.91300 0.32919 0.30208 -0.08100
H 	H 	0.94510 0.31030 0.32110 0.10000
C 	C 	0.86250 0.30894 0.26985 0.12200
C 	C 	0.81460 0.33649 0.24116 -0.08600
H 	H 	0.78060 0.32260 0.21980 0.09900
C 	C 	0.97840 0.40102 0.33833 0.32800
C 	C 	0.85010 0.29259 0.10960 0.09500
H 	H 	0.91580 0.30850 0.10280 0.01100
C 	C 	0.84340 0.24496 0.10194 -0.13100
H 	H 	0.90310 0.22960 0.08990 0.09300
C 	C 	0.74750 0.22025 0.11228 0.06500
C 	C 	0.66290 0.24516 0.13099 -0.12900
H 	H 	0.59800 0.22980 0.13940 0.07900
C 	C 	0.67570 0.29295 0.13711 0.09200
H 	H 	0.61770 0.30920 0.14940 0.00700
C 	C 	0.73750 0.16923 0.10361 0.07300
C 	C 	0.67430 0.13952 0.12653 -0.14600
H 	H 	0.63400 0.15130 0.14750 0.08700
C 	C 	0.67130 0.09197 0.11805 0.09300
H 	H 	0.62770 0.07240 0.13360 -0.04400
C 	C 	0.78720 0.10154 0.06575 0.09100
H 	H 	0.82570 0.08890 0.04470 -0.03700
C 	C 	0.79330 0.14940 0.07216 -0.14700
H 	H 	0.83480 0.16840 0.05550 0.09600
H 	H 	0.87600 0.46060 0.12720 0.30300
N 	N 	0.53230 0.73651 0.96771 -0.06100
C 	C 	0.47540 0.61080 0.94940 -0.00100
C 	C 	0.47540 0.65950 0.94650 -0.02900
H 	H 	0.44050 0.67420 0.92560 0.01000
C 	C 	0.52780 0.68610 0.97488 0.03200
C 	C 	0.58550 0.66400 0.00560 -0.03000
H 	H 	0.62110 0.68220 0.02440 0.01900
C 	C 	0.58920 0.61520 0.00780 -0.04900
H 	H 	0.51870 0.55690 0.98520 0.00500
Ni	Ni	0.28365 0.89007 0.12687 1.12900
O 	O 	0.88420 0.10552 0.89038 -0.40500
O 	O 	0.89430 0.04147 0.92795 -0.44900
O 	O 	0.16929 0.04648 0.03824 -0.42900
O 	O 	0.17130 0.11545 0.07015 -0.41700
O 	O 	0.96890 0.24600 0.02849 -0.08400
O 	O 	0.30776 0.95964 0.12429 -0.76200
O 	O 	0.30240 0.95656 0.21139 -0.36700
O 	O 	0.22720 0.89224 0.18425 -0.39400
O 	O 	0.55310 0.87679 0.35425 -0.38800
O 	O 	0.45440 0.94304 0.34686 -0.29200
O 	O 	0.37240 0.73774 0.30055 -0.12600
N 	N 	0.00380 0.23830 0.99234 -0.00000
N 	N 	0.26710 0.81697 0.12621 -0.21400
N 	N 	0.22820 0.57276 0.08854 -0.27200
N 	N 	0.36390 0.75854 0.26716 -0.04500
C 	C 	0.91050 0.08458 0.92107 0.33900
C 	C 	0.96490 0.11420 0.95470 -0.06300
C 	C 	0.96140 0.16360 0.95590 -0.01400
H 	H 	0.92440 0.18050 0.93670 0.05800
C 	C 	0.01450 0.18690 0.98670 0.03600
C 	C 	0.07380 0.16250 0.01400 -0.00300
H 	H 	0.11170 0.17850 0.03360 0.04900
C 	C 	0.07700 0.11340 0.01210 -0.02000
C 	C 	0.02680 0.08917 0.98159 -0.00100
H 	H 	0.03480 0.05670 0.97940 0.01500
C 	C 	0.14650 0.08954 0.04234 0.35700
C 	C 	0.27880 0.91346 0.21097 0.32400
C 	C 	0.31810 0.88504 0.24470 -0.02600
C 	C 	0.36710 0.90578 0.27700 -0.02800
H 	H 	0.36760 0.93840 0.27940 0.08000
C 	C 	0.41530 0.87804 0.30564 -0.02900
C 	C 	0.41300 0.82919 0.30208 -0.09100
H 	H 	0.44510 0.81030 0.32110 0.10400
C 	C 	0.36250 0.80894 0.26985 0.13000
C 	C 	0.31460 0.83649 0.24116 -0.09700
H 	H 	0.28060 0.82260 0.21980 0.10300
C 	C 	0.47840 0.90102 0.33833 0.31700
C 	C 	0.35010 0.79259 0.10960 0.09400
H 	H 	0.41580 0.80850 0.10280 0.01000
C 	C 	0.34340 0.74496 0.10194 -0.13200
H 	H 	0.40310 0.72960 0.08990 0.09300
C 	C 	0.24750 0.72025 0.11228 0.06600
C 	C 	0.16290 0.74516 0.13099 -0.12900
H 	H 	0.09800 0.72980 0.13940 0.08000
C 	C 	0.17570 0.79295 0.13711 0.09100
H 	H 	0.11770 0.80920 0.14940 0.00800
C 	C 	0.23750 0.66923 0.10361 0.07100
C 	C 	0.17430 0.63952 0.12653 -0.14100
H 	H 	0.13400 0.65130 0.14750 0.08800
C 	C 	0.17130 0.59197 0.11805 0.09000
H 	H 	0.12770 0.57240 0.13360 -0.02600
C 	C 	0.28720 0.60154 0.06575 0.09000
H 	H 	0.32570 0.58890 0.04470 -0.02700
C 	C 	0.29330 0.64940 0.07216 -0.14300
H 	H 	0.33480 0.66840 0.05550 0.09500
H 	H 	0.37600 0.96060 0.12720 0.31100
N 	N 	0.03230 0.23651 0.96771 -0.06100
C 	C 	0.97540 0.11080 0.94940 -0.00400
C 	C 	0.97540 0.15950 0.94650 -0.02800
H 	H 	0.94050 0.17420 0.92560 0.01100
C 	C 	0.02780 0.18610 0.97488 0.03200
C 	C 	0.08550 0.16400 0.00560 -0.02900
H 	H 	0.12110 0.18220 0.02440 0.02000
C 	C 	0.08920 0.11520 0.00780 -0.05400
H 	H 	0.01870 0.05690 0.98520 -0.00400
Ni	Ni	0.71635 0.60993 0.12687 1.12800
O 	O 	0.11580 0.39448 0.89038 -0.39700
O 	O 	0.10570 0.45853 0.92795 -0.41400
O 	O 	0.83071 0.45352 0.03824 -0.39700
O 	O 	0.82870 0.38455 0.07015 -0.41400
O 	O 	0.03110 0.25400 0.02849 -0.08400
O 	O 	0.69224 0.54036 0.12429 -0.81400
O 	O 	0.69760 0.54344 0.21139 -0.42000
O 	O 	0.77280 0.60776 0.18425 -0.40800
O 	O 	0.44690 0.62321 0.35425 -0.39300
O 	O 	0.54560 0.55696 0.34686 -0.32700
O 	O 	0.62760 0.76226 0.30055 -0.12600
N 	N 	0.99620 0.26170 0.99234 -0.00100
N 	N 	0.73290 0.68303 0.12621 -0.21400
N 	N 	0.77180 0.92724 0.08854 -0.24600
N 	N 	0.63610 0.74146 0.26716 -0.04400
C 	C 	0.08950 0.41542 0.92107 0.33200
C 	C 	0.03510 0.38580 0.95470 -0.05800
C 	C 	0.03860 0.33640 0.95590 -0.01500
H 	H 	0.07560 0.31950 0.93670 0.06000
C 	C 	0.98550 0.31310 0.98670 0.03700
C 	C 	0.92620 0.33750 0.01400 -0.00400
H 	H 	0.88830 0.32150 0.03360 0.05000
C 	C 	0.92300 0.38660 0.01210 -0.01700
C 	C 	0.97320 0.41083 0.98159 -0.00600
H 	H 	0.96520 0.44330 0.97940 0.02500
C 	C 	0.85350 0.41046 0.04234 0.35200
C 	C 	0.72120 0.58654 0.21097 0.33500
C 	C 	0.68190 0.61496 0.24470 -0.04600
C 	C 	0.63290 0.59422 0.27700 -0.01200
H 	H 	0.63240 0.56160 0.27940 0.05600
C 	C 	0.58470 0.62196 0.30564 -0.04600
C 	C 	0.58700 0.67081 0.30208 -0.08100
H 	H 	0.55490 0.68970 0.32110 0.10000
C 	C 	0.63750 0.69106 0.26985 0.12200
C 	C 	0.68540 0.66351 0.24116 -0.08600
H 	H 	0.71940 0.67740 0.21980 0.09900
C 	C 	0.52160 0.59898 0.33833 0.32800
C 	C 	0.64990 0.70741 0.10960 0.09600
H 	H 	0.58420 0.69150 0.10280 0.01000
C 	C 	0.65660 0.75504 0.10194 -0.13400
H 	H 	0.59690 0.77040 0.08990 0.09400
C 	C 	0.75250 0.77975 0.11228 0.06900
C 	C 	0.83710 0.75484 0.13099 -0.13100
H 	H 	0.90200 0.77020 0.13940 0.08100
C 	C 	0.82430 0.70705 0.13711 0.09300
H 	H 	0.88230 0.69080 0.14940 0.00600
C 	C 	0.76250 0.83077 0.10361 0.06700
C 	C 	0.82570 0.86048 0.12653 -0.13300
H 	H 	0.86600 0.84870 0.14750 0.08900
C 	C 	0.82870 0.90803 0.11805 0.08700
H 	H 	0.87230 0.92760 0.13360 -0.00200
C 	C 	0.71280 0.89846 0.06575 0.08800
H 	H 	0.67430 0.91110 0.04470 -0.01300
C 	C 	0.70670 0.85060 0.07216 -0.13800
H 	H 	0.66520 0.83160 0.05550 0.09300
H 	H 	0.62400 0.53940 0.12720 0.30300
N 	N 	0.96770 0.26349 0.96771 -0.06100
C 	C 	0.02460 0.38920 0.94940 -0.00100
C 	C 	0.02460 0.34050 0.94650 -0.02900
H 	H 	0.05950 0.32580 0.92560 0.01000
C 	C 	0.97220 0.31390 0.97488 0.03300
C 	C 	0.91450 0.33600 0.00560 -0.03000
H 	H 	0.87890 0.31780 0.02440 0.01900
C 	C 	0.91080 0.38480 0.00780 -0.04900
H 	H 	0.98130 0.44310 0.98520 0.00500
Ni	Ni	0.21635 0.10993 0.12687 1.12800
O 	O 	0.61580 0.89448 0.89038 -0.38400
O 	O 	0.60570 0.95853 0.92795 -0.35800
O 	O 	0.33071 0.95352 0.03824 -0.34600
O 	O 	0.32870 0.88455 0.07015 -0.40800
O 	O 	0.53110 0.75400 0.02849 -0.08400
O 	O 	0.19224 0.04036 0.12429 -0.83200
O 	O 	0.19760 0.04344 0.21139 -0.45300
O 	O 	0.27280 0.10776 0.18425 -0.41600
O 	O 	0.94690 0.12321 0.35425 -0.39700
O 	O 	0.04560 0.05696 0.34686 -0.35400
O 	O 	0.12760 0.26226 0.30055 -0.12600
N 	N 	0.49620 0.76170 0.99234 -0.00100
N 	N 	0.23290 0.18303 0.12621 -0.21400
N 	N 	0.27180 0.42724 0.08854 -0.27200
N 	N 	0.13610 0.24146 0.26716 -0.04300
C 	C 	0.58950 0.91542 0.92107 0.32100
C 	C 	0.53510 0.88580 0.95470 -0.05100
C 	C 	0.53860 0.83640 0.95590 -0.01700
H 	H 	0.57560 0.81950 0.93670 0.06200
C 	C 	0.48550 0.81310 0.98670 0.03800
C 	C 	0.42620 0.83750 0.01400 -0.00500
H 	H 	0.38830 0.82150 0.03360 0.05200
C 	C 	0.42300 0.88660 0.01210 -0.01300
C 	C 	0.47320 0.91083 0.98159 -0.01200
H 	H 	0.46520 0.94330 0.97940 0.03600
C 	C 	0.35350 0.91046 0.04234 0.34300
C 	C 	0.22120 0.08654 0.21097 0.34200
C 	C 	0.18190 0.11496 0.24470 -0.06200
C 	C 	0.13290 0.09422 0.27700 0.00100
H 	H 	0.13240 0.06160 0.27940 0.03500
C 	C 	0.08470 0.12196 0.30564 -0.05900
C 	C 	0.08700 0.17081 0.30208 -0.07300
H 	H 	0.05490 0.18970 0.32110 0.09700
C 	C 	0.13750 0.19106 0.26985 0.11600
C 	C 	0.18540 0.16351 0.24116 -0.07700
H 	H 	0.21940 0.17740 0.21980 0.09500
C 	C 	0.02160 0.09898 0.33833 0.33700
C 	C 	0.14990 0.20741 0.10960 0.09600
H 	H 	0.08420 0.19150 0.10280 0.01000
C 	C 	0.15660 0.25504 0.10194 -0.13200
H 	H 	0.09690 0.27040 0.08990 0.09400
C 	C 	0.25250 0.27975 0.11228 0.06700
C 	C 	0.33710 0.25484 0.13099 -0.13000
H 	H 	0.40200 0.27020 0.13940 0.08000
C 	C 	0.32430 0.20705 0.13711 0.09300
H 	H 	0.38230 0.19080 0.14940 0.00600
C 	C 	0.26250 0.33077 0.10361 0.07100
C 	C 	0.32570 0.36048 0.12653 -0.14000
H 	H 	0.36600 0.34870 0.14750 0.08800
C 	C 	0.32870 0.40803 0.11805 0.09000
H 	H 	0.37230 0.42760 0.13360 -0.02600
C 	C 	0.21280 0.39846 0.06575 0.09000
H 	H 	0.17430 0.41110 0.04470 -0.02700
C 	C 	0.20670 0.35060 0.07216 -0.14300
H 	H 	0.16520 0.33160 0.05550 0.09500
H 	H 	0.12400 0.03940 0.12720 0.29300
N 	N 	0.46770 0.76349 0.96771 -0.06200
C 	C 	0.52460 0.88920 0.94940 0.00300
C 	C 	0.52460 0.84050 0.94650 -0.03200
H 	H 	0.55950 0.82580 0.92560 0.00800
C 	C 	0.47220 0.81390 0.97488 0.03300
C 	C 	0.41450 0.83600 0.00560 -0.03200
H 	H 	0.37890 0.81780 0.02440 0.01900
C 	C 	0.41080 0.88480 0.00780 -0.04300
H 	H 	0.48130 0.94310 0.98520 0.01600
Ni	Ni	0.21635 0.39007 0.37313 1.12800
O 	O 	0.61580 0.60552 0.60962 -0.39700
O 	O 	0.60570 0.54147 0.57205 -0.41400
O 	O 	0.33071 0.54648 0.46176 -0.39700
O 	O 	0.32870 0.61545 0.42985 -0.41400
O 	O 	0.53110 0.74600 0.47151 -0.08500
O 	O 	0.19224 0.45964 0.37571 -0.81400
O 	O 	0.19760 0.45656 0.28861 -0.42000
O 	O 	0.27280 0.39224 0.31575 -0.40800
O 	O 	0.94690 0.37679 0.14575 -0.39300
O 	O 	0.04560 0.44304 0.15314 -0.32700
O 	O 	0.12760 0.23774 0.19945 -0.12500
N 	N 	0.49620 0.73830 0.50766 -0.00000
N 	N 	0.23290 0.31697 0.37379 -0.21300
N 	N 	0.27180 0.07276 0.41146 -0.28300
N 	N 	0.13610 0.25854 0.23284 -0.04400
C 	C 	0.58950 0.58458 0.57893 0.33200
C 	C 	0.53510 0.61420 0.54530 -0.05800
C 	C 	0.53860 0.66360 0.54410 -0.01500
H 	H 	0.57560 0.68050 0.56330 0.06000
C 	C 	0.48550 0.68690 0.51330 0.03700
C 	C 	0.42620 0.66250 0.48600 -0.00400
H 	H 	0.38830 0.67850 0.46640 0.05000
C 	C 	0.42300 0.61340 0.48790 -0.01700
C 	C 	0.47320 0.58917 0.51841 -0.00600
H 	H 	0.46520 0.55670 0.52060 0.02500
C 	C 	0.35350 0.58954 0.45766 0.35200
C 	C 	0.22120 0.41346 0.28903 0.33500
C 	C 	0.18190 0.38504 0.25530 -0.04600
C 	C 	0.13290 0.40578 0.22300 -0.01200
H 	H 	0.13240 0.43840 0.22060 0.05600
C 	C 	0.08470 0.37804 0.19436 -0.04600
C 	C 	0.08700 0.32919 0.19792 -0.08100
H 	H 	0.05490 0.31030 0.17890 0.10000
C 	C 	0.13750 0.30894 0.23015 0.12200
C 	C 	0.18540 0.33649 0.25884 -0.08600
H 	H 	0.21940 0.32260 0.28020 0.09900
C 	C 	0.02160 0.40102 0.16167 0.32800
C 	C 	0.14990 0.29259 0.39040 0.09500
H 	H 	0.08420 0.30850 0.39720 0.01100
C 	C 	0.15660 0.24496 0.39806 -0.13100
H 	H 	0.09690 0.22960 0.41010 0.09300
C 	C 	0.25250 0.22025 0.38772 0.06500
C 	C 	0.33710 0.24516 0.36901 -0.12900
H 	H 	0.40200 0.22980 0.36060 0.07900
C 	C 	0.32430 0.29295 0.36289 0.09200
H 	H 	0.38230 0.30920 0.35060 0.00700
C 	C 	0.26250 0.16923 0.39639 0.07300
C 	C 	0.32570 0.13952 0.37347 -0.14600
H 	H 	0.36600 0.15130 0.35250 0.08700
C 	C 	0.32870 0.09197 0.38195 0.09300
H 	H 	0.37230 0.07240 0.36640 -0.04400
C 	C 	0.21280 0.10154 0.43425 0.09100
H 	H 	0.17430 0.08890 0.45530 -0.03700
C 	C 	0.20670 0.14940 0.42784 -0.14700
H 	H 	0.16520 0.16840 0.44450 0.09600
H 	H 	0.12400 0.46060 0.37280 0.30300
N 	N 	0.46770 0.73651 0.53229 -0.06100
C 	C 	0.52460 0.61080 0.55060 -0.00100
C 	C 	0.52460 0.65950 0.55350 -0.02900
H 	H 	0.55950 0.67420 0.57440 0.01000
C 	C 	0.47220 0.68610 0.52512 0.03200
C 	C 	0.41450 0.66400 0.49440 -0.03000
H 	H 	0.37890 0.68220 0.47560 0.01900
C 	C 	0.41080 0.61520 0.49220 -0.04900
H 	H 	0.48130 0.55690 0.51480 0.00500
Ni	Ni	0.71635 0.89007 0.37313 1.12900
O 	O 	0.11580 0.10552 0.60962 -0.40500
O 	O 	0.10570 0.04147 0.57205 -0.44900
O 	O 	0.83071 0.04648 0.46176 -0.43000
O 	O 	0.82870 0.11545 0.42985 -0.41700
O 	O 	0.03110 0.24600 0.47151 -0.08400
O 	O 	0.69224 0.95964 0.37571 -0.76200
O 	O 	0.69760 0.95656 0.28861 -0.36700
O 	O 	0.77280 0.89224 0.31575 -0.39400
O 	O 	0.44690 0.87679 0.14575 -0.38800
O 	O 	0.54560 0.94304 0.15314 -0.29200
O 	O 	0.62760 0.73774 0.19945 -0.12600
N 	N 	0.99620 0.23830 0.50766 -0.00000
N 	N 	0.73290 0.81697 0.37379 -0.21400
N 	N 	0.77180 0.57276 0.41146 -0.27200
N 	N 	0.63610 0.75854 0.23284 -0.04500
C 	C 	0.08950 0.08458 0.57893 0.33900
C 	C 	0.03510 0.11420 0.54530 -0.06300
C 	C 	0.03860 0.16360 0.54410 -0.01400
H 	H 	0.07560 0.18050 0.56330 0.05800
C 	C 	0.98550 0.18690 0.51330 0.03600
C 	C 	0.92620 0.16250 0.48600 -0.00300
H 	H 	0.88830 0.17850 0.46640 0.04900
C 	C 	0.92300 0.11340 0.48790 -0.02000
C 	C 	0.97320 0.08917 0.51841 -0.00100
H 	H 	0.96520 0.05670 0.52060 0.01500
C 	C 	0.85350 0.08954 0.45766 0.35700
C 	C 	0.72120 0.91346 0.28903 0.32400
C 	C 	0.68190 0.88504 0.25530 -0.02600
C 	C 	0.63290 0.90578 0.22300 -0.02800
H 	H 	0.63240 0.93840 0.22060 0.08000
C 	C 	0.58470 0.87804 0.19436 -0.02900
C 	C 	0.58700 0.82919 0.19792 -0.09100
H 	H 	0.55490 0.81030 0.17890 0.10400
C 	C 	0.63750 0.80894 0.23015 0.13000
C 	C 	0.68540 0.83649 0.25884 -0.09700
H 	H 	0.71940 0.82260 0.28020 0.10300
C 	C 	0.52160 0.90102 0.16167 0.31700
C 	C 	0.64990 0.79259 0.39040 0.09400
H 	H 	0.58420 0.80850 0.39720 0.01000
C 	C 	0.65660 0.74496 0.39806 -0.13200
H 	H 	0.59690 0.72960 0.41010 0.09300
C 	C 	0.75250 0.72025 0.38772 0.06600
C 	C 	0.83710 0.74516 0.36901 -0.12900
H 	H 	0.90200 0.72980 0.36060 0.08000
C 	C 	0.82430 0.79295 0.36289 0.09100
H 	H 	0.88230 0.80920 0.35060 0.00800
C 	C 	0.76250 0.66923 0.39639 0.07100
C 	C 	0.82570 0.63952 0.37347 -0.14100
H 	H 	0.86600 0.65130 0.35250 0.08800
C 	C 	0.82870 0.59197 0.38195 0.09000
H 	H 	0.87230 0.57240 0.36640 -0.02600
C 	C 	0.71280 0.60154 0.43425 0.09000
H 	H 	0.67430 0.58890 0.45530 -0.02700
C 	C 	0.70670 0.64940 0.42784 -0.14300
H 	H 	0.66520 0.66840 0.44450 0.09500
H 	H 	0.62400 0.96060 0.37280 0.31100
N 	N 	0.96770 0.23651 0.53229 -0.06100
C 	C 	0.02460 0.11080 0.55060 -0.00400
C 	C 	0.02460 0.15950 0.55350 -0.02800
H 	H 	0.05950 0.17420 0.57440 0.01100
C 	C 	0.97220 0.18610 0.52512 0.03200
C 	C 	0.91450 0.16400 0.49440 -0.02900
H 	H 	0.87890 0.18220 0.47560 0.02000
C 	C 	0.91080 0.11520 0.49220 -0.05400
H 	H 	0.98130 0.05690 0.51480 -0.00400
Ni	Ni	0.28365 0.60993 0.37313 1.12800
O 	O 	0.88420 0.39448 0.60962 -0.39700
O 	O 	0.89430 0.45853 0.57205 -0.41400
O 	O 	0.16929 0.45352 0.46176 -0.39700
O 	O 	0.17130 0.38455 0.42985 -0.41400
O 	O 	0.96890 0.25400 0.47151 -0.08400
O 	O 	0.30776 0.54036 0.37571 -0.81400
O 	O 	0.30240 0.54344 0.28861 -0.42000
O 	O 	0.22720 0.60776 0.31575 -0.40800
O 	O 	0.55310 0.62321 0.14575 -0.39300
O 	O 	0.45440 0.55696 0.15314 -0.32700
O 	O 	0.37240 0.76226 0.19945 -0.12600
N 	N 	0.00380 0.26170 0.50766 -0.00100
N 	N 	0.26710 0.68303 0.37379 -0.21400
N 	N 	0.22820 0.92724 0.41146 -0.24600
N 	N 	0.36390 0.74146 0.23284 -0.04400
C 	C 	0.91050 0.41542 0.57893 0.33200
C 	C 	0.96490 0.38580 0.54530 -0.05800
C 	C 	0.96140 0.33640 0.54410 -0.01500
H 	H 	0.92440 0.31950 0.56330 0.06000
C 	C 	0.01450 0.31310 0.51330 0.03700
C 	C 	0.07380 0.33750 0.48600 -0.00400
H 	H 	0.11170 0.32150 0.46640 0.05000
C 	C 	0.07700 0.38660 0.48790 -0.01700
C 	C 	0.02680 0.41083 0.51841 -0.00600
H 	H 	0.03480 0.44330 0.52060 0.02500
C 	C 	0.14650 0.41046 0.45766 0.35200
C 	C 	0.27880 0.58654 0.28903 0.33500
C 	C 	0.31810 0.61496 0.25530 -0.04600
C 	C 	0.36710 0.59422 0.22300 -0.01200
H 	H 	0.36760 0.56160 0.22060 0.05600
C 	C 	0.41530 0.62196 0.19436 -0.04600
C 	C 	0.41300 0.67081 0.19792 -0.08100
H 	H 	0.44510 0.68970 0.17890 0.10000
C 	C 	0.36250 0.69106 0.23015 0.12200
C 	C 	0.31460 0.66351 0.25884 -0.08600
H 	H 	0.28060 0.67740 0.28020 0.09900
C 	C 	0.47840 0.59898 0.16167 0.32800
C 	C 	0.35010 0.70741 0.39040 0.09600
H 	H 	0.41580 0.69150 0.39720 0.01000
C 	C 	0.34340 0.75504 0.39806 -0.13400
H 	H 	0.40310 0.77040 0.41010 0.09400
C 	C 	0.24750 0.77975 0.38772 0.06900
C 	C 	0.16290 0.75484 0.36901 -0.13100
H 	H 	0.09800 0.77020 0.36060 0.08100
C 	C 	0.17570 0.70705 0.36289 0.09300
H 	H 	0.11770 0.69080 0.35060 0.00600
C 	C 	0.23750 0.83077 0.39639 0.06700
C 	C 	0.17430 0.86048 0.37347 -0.13300
H 	H 	0.13400 0.84870 0.35250 0.08900
C 	C 	0.17130 0.90803 0.38195 0.08700
H 	H 	0.12770 0.92760 0.36640 -0.00200
C 	C 	0.28720 0.89846 0.43425 0.08800
H 	H 	0.32570 0.91110 0.45530 -0.01200
C 	C 	0.29330 0.85060 0.42784 -0.13800
H 	H 	0.33480 0.83160 0.44450 0.09300
H 	H 	0.37600 0.53940 0.37280 0.30300
N 	N 	0.03230 0.26349 0.53229 -0.06100
C 	C 	0.97540 0.38920 0.55060 -0.00100
C 	C 	0.97540 0.34050 0.55350 -0.02900
H 	H 	0.94050 0.32580 0.57440 0.01000
C 	C 	0.02780 0.31390 0.52512 0.03300
C 	C 	0.08550 0.33600 0.49440 -0.03000
H 	H 	0.12110 0.31780 0.47560 0.01900
C 	C 	0.08920 0.38480 0.49220 -0.04900
H 	H 	0.01870 0.44310 0.51480 0.00500
Ni	Ni	0.78365 0.10993 0.37313 1.12800
O 	O 	0.38420 0.89448 0.60962 -0.38400
O 	O 	0.39430 0.95853 0.57205 -0.35700
O 	O 	0.66929 0.95352 0.46176 -0.34600
O 	O 	0.67130 0.88455 0.42985 -0.40800
O 	O 	0.46890 0.75400 0.47151 -0.08400
O 	O 	0.80776 0.04036 0.37571 -0.83200
O 	O 	0.80240 0.04344 0.28861 -0.45300
O 	O 	0.72720 0.10776 0.31575 -0.41600
O 	O 	0.05310 0.12321 0.14575 -0.39700
O 	O 	0.95440 0.05696 0.15314 -0.35400
O 	O 	0.87240 0.26226 0.19945 -0.12600
N 	N 	0.50380 0.76170 0.50766 -0.00100
N 	N 	0.76710 0.18303 0.37379 -0.21400
N 	N 	0.72820 0.42724 0.41146 -0.27200
N 	N 	0.86390 0.24146 0.23284 -0.04300
C 	C 	0.41050 0.91542 0.57893 0.32100
C 	C 	0.46490 0.88580 0.54530 -0.05100
C 	C 	0.46140 0.83640 0.54410 -0.01700
H 	H 	0.42440 0.81950 0.56330 0.06200
C 	C 	0.51450 0.81310 0.51330 0.03800
C 	C 	0.57380 0.83750 0.48600 -0.00500
H 	H 	0.61170 0.82150 0.46640 0.05200
C 	C 	0.57700 0.88660 0.48790 -0.01300
C 	C 	0.52680 0.91083 0.51841 -0.01200
H 	H 	0.53480 0.94330 0.52060 0.03600
C 	C 	0.64650 0.91046 0.45766 0.34300
C 	C 	0.77880 0.08654 0.28903 0.34200
C 	C 	0.81810 0.11496 0.25530 -0.06200
C 	C 	0.86710 0.09422 0.22300 0.00100
H 	H 	0.86760 0.06160 0.22060 0.03500
C 	C 	0.91530 0.12196 0.19436 -0.05900
C 	C 	0.91300 0.17081 0.19792 -0.07300
H 	H 	0.94510 0.18970 0.17890 0.09700
C 	C 	0.86250 0.19106 0.23015 0.11600
C 	C 	0.81460 0.16351 0.25884 -0.07700
H 	H 	0.78060 0.17740 0.28020 0.09500
C 	C 	0.97840 0.09898 0.16167 0.33700
C 	C 	0.85010 0.20741 0.39040 0.09600
H 	H 	0.91580 0.19150 0.39720 0.01000
C 	C 	0.84340 0.25504 0.39806 -0.13200
H 	H 	0.90310 0.27040 0.41010 0.09400
C 	C 	0.74750 0.27975 0.38772 0.06700
C 	C 	0.66290 0.25484 0.36901 -0.13000
H 	H 	0.59800 0.27020 0.36060 0.08000
C 	C 	0.67570 0.20705 0.36289 0.09300
H 	H 	0.61770 0.19080 0.35060 0.00600
C 	C 	0.73750 0.33077 0.39639 0.07100
C 	C 	0.67430 0.36048 0.37347 -0.14000
H 	H 	0.63400 0.34870 0.35250 0.08800
C 	C 	0.67130 0.40803 0.38195 0.09000
H 	H 	0.62770 0.42760 0.36640 -0.02600
C 	C 	0.78720 0.39846 0.43425 0.09000
H 	H 	0.82570 0.41110 0.45530 -0.02700
C 	C 	0.79330 0.35060 0.42784 -0.14300
H 	H 	0.83480 0.33160 0.44450 0.09500
H 	H 	0.87600 0.03940 0.37280 0.29300
N 	N 	0.53230 0.76349 0.53229 -0.06200
C 	C 	0.47540 0.88920 0.55060 0.00300
C 	C 	0.47540 0.84050 0.55350 -0.03200
H 	H 	0.44050 0.82580 0.57440 0.00800
C 	C 	0.52780 0.81390 0.52512 0.03300
C 	C 	0.58550 0.83600 0.49440 -0.03200
H 	H 	0.62110 0.81780 0.47560 0.01900
C 	C 	0.58920 0.88480 0.49220 -0.04300
H 	H 	0.51870 0.94310 0.51480 0.01600
Ni	Ni	0.21635 0.60993 0.87313 1.12800
O 	O 	0.61580 0.39448 0.10962 -0.39700
O 	O 	0.60570 0.45853 0.07205 -0.41400
O 	O 	0.33071 0.45352 0.96176 -0.39700
O 	O 	0.32870 0.38455 0.92985 -0.41400
O 	O 	0.53110 0.25400 0.97151 -0.08400
O 	O 	0.19224 0.54036 0.87571 -0.81400
O 	O 	0.19760 0.54344 0.78861 -0.42000
O 	O 	0.27280 0.60776 0.81575 -0.40800
O 	O 	0.94690 0.62321 0.64575 -0.39300
O 	O 	0.04560 0.55696 0.65314 -0.32700
O 	O 	0.12760 0.76226 0.69945 -0.12600
N 	N 	0.49620 0.26170 0.00766 -0.00100
N 	N 	0.23290 0.68303 0.87379 -0.21400
N 	N 	0.27180 0.92724 0.91146 -0.24600
N 	N 	0.13610 0.74146 0.73284 -0.04400
C 	C 	0.58950 0.41542 0.07893 0.33200
C 	C 	0.53510 0.38580 0.04530 -0.05800
C 	C 	0.53860 0.33640 0.04410 -0.01500
H 	H 	0.57560 0.31950 0.06330 0.06000
C 	C 	0.48550 0.31310 0.01330 0.03700
C 	C 	0.42620 0.33750 0.98600 -0.00400
H 	H 	0.38830 0.32150 0.96640 0.05000
C 	C 	0.42300 0.38660 0.98790 -0.01700
C 	C 	0.47320 0.41083 0.01841 -0.00600
H 	H 	0.46520 0.44330 0.02060 0.02500
C 	C 	0.35350 0.41046 0.95766 0.35200
C 	C 	0.22120 0.58654 0.78903 0.33500
C 	C 	0.18190 0.61496 0.75530 -0.04600
C 	C 	0.13290 0.59422 0.72300 -0.01200
H 	H 	0.13240 0.56160 0.72060 0.05600
C 	C 	0.08470 0.62196 0.69436 -0.04600
C 	C 	0.08700 0.67081 0.69792 -0.08100
H 	H 	0.05490 0.68970 0.67890 0.10000
C 	C 	0.13750 0.69106 0.73015 0.12200
C 	C 	0.18540 0.66351 0.75884 -0.08600
H 	H 	0.21940 0.67740 0.78020 0.09900
C 	C 	0.02160 0.59898 0.66167 0.32800
C 	C 	0.14990 0.70741 0.89040 0.09600
H 	H 	0.08420 0.69150 0.89720 0.01000
C 	C 	0.15660 0.75504 0.89806 -0.13400
H 	H 	0.09690 0.77040 0.91010 0.09400
C 	C 	0.25250 0.77975 0.88772 0.06900
C 	C 	0.33710 0.75484 0.86901 -0.13100
H 	H 	0.40200 0.77020 0.86060 0.08100
C 	C 	0.32430 0.70705 0.86289 0.09300
H 	H 	0.38230 0.69080 0.85060 0.00700
C 	C 	0.26250 0.83077 0.89639 0.06700
C 	C 	0.32570 0.86048 0.87347 -0.13300
H 	H 	0.36600 0.84870 0.85250 0.08900
C 	C 	0.32870 0.90803 0.88195 0.08700
H 	H 	0.37230 0.92760 0.86640 -0.00200
C 	C 	0.21280 0.89846 0.93425 0.08800
H 	H 	0.17430 0.91110 0.95530 -0.01300
C 	C 	0.20670 0.85060 0.92784 -0.13800
H 	H 	0.16520 0.83160 0.94450 0.09300
H 	H 	0.12400 0.53940 0.87280 0.30300
N 	N 	0.46770 0.26349 0.03229 -0.06100
C 	C 	0.52460 0.38920 0.05060 -0.00100
C 	C 	0.52460 0.34050 0.05350 -0.02900
H 	H 	0.55950 0.32580 0.07440 0.01000
C 	C 	0.47220 0.31390 0.02512 0.03300
C 	C 	0.41450 0.33600 0.99440 -0.03000
H 	H 	0.37890 0.31780 0.97560 0.01900
C 	C 	0.41080 0.38480 0.99220 -0.04900
H 	H 	0.48130 0.44310 0.01480 0.00500
Ni	Ni	0.71635 0.10993 0.87313 1.12800
O 	O 	0.11580 0.89448 0.10962 -0.38500
O 	O 	0.10570 0.95853 0.07205 -0.35800
O 	O 	0.83071 0.95352 0.96176 -0.34700
O 	O 	0.82870 0.88455 0.92985 -0.40800
O 	O 	0.03110 0.75400 0.97151 -0.08400
O 	O 	0.69224 0.04036 0.87571 -0.83200
O 	O 	0.69760 0.04344 0.78861 -0.45300
O 	O 	0.77280 0.10776 0.81575 -0.41600
O 	O 	0.44690 0.12321 0.64575 -0.39700
O 	O 	0.54560 0.05696 0.65314 -0.35400
O 	O 	0.62760 0.26226 0.69945 -0.12600
N 	N 	0.99620 0.76170 0.00766 -0.00100
N 	N 	0.73290 0.18303 0.87379 -0.21400
N 	N 	0.77180 0.42724 0.91146 -0.27200
N 	N 	0.63610 0.24146 0.73284 -0.04300
C 	C 	0.08950 0.91542 0.07893 0.32100
C 	C 	0.03510 0.88580 0.04530 -0.05200
C 	C 	0.03860 0.83640 0.04410 -0.01700
H 	H 	0.07560 0.81950 0.06330 0.06300
C 	C 	0.98550 0.81310 0.01330 0.03900
C 	C 	0.92620 0.83750 0.98600 -0.00500
H 	H 	0.88830 0.82150 0.96640 0.05200
C 	C 	0.92300 0.88660 0.98790 -0.01300
C 	C 	0.97320 0.91083 0.01841 -0.01200
H 	H 	0.96520 0.94330 0.02060 0.03600
C 	C 	0.85350 0.91046 0.95766 0.34300
C 	C 	0.72120 0.08654 0.78903 0.34200
C 	C 	0.68190 0.11496 0.75530 -0.06200
C 	C 	0.63290 0.09422 0.72300 0.00100
H 	H 	0.63240 0.06160 0.72060 0.03500
C 	C 	0.58470 0.12196 0.69436 -0.05900
C 	C 	0.58700 0.17081 0.69792 -0.07300
H 	H 	0.55490 0.18970 0.67890 0.09700
C 	C 	0.63750 0.19106 0.73015 0.11600
C 	C 	0.68540 0.16351 0.75884 -0.07700
H 	H 	0.71940 0.17740 0.78020 0.09500
C 	C 	0.52160 0.09898 0.66167 0.33600
C 	C 	0.64990 0.20741 0.89040 0.09600
H 	H 	0.58420 0.19150 0.89720 0.01000
C 	C 	0.65660 0.25504 0.89806 -0.13200
H 	H 	0.59690 0.27040 0.91010 0.09400
C 	C 	0.75250 0.27975 0.88772 0.06700
C 	C 	0.83710 0.25484 0.86901 -0.13000
H 	H 	0.90200 0.27020 0.86060 0.08000
C 	C 	0.82430 0.20705 0.86289 0.09300
H 	H 	0.88230 0.19080 0.85060 0.00600
C 	C 	0.76250 0.33077 0.89639 0.07100
C 	C 	0.82570 0.36048 0.87347 -0.14000
H 	H 	0.86600 0.34870 0.85250 0.08800
C 	C 	0.82870 0.40803 0.88195 0.09000
H 	H 	0.87230 0.42760 0.86640 -0.02600
C 	C 	0.71280 0.39846 0.93425 0.09000
H 	H 	0.67430 0.41110 0.95530 -0.02700
C 	C 	0.70670 0.35060 0.92784 -0.14300
H 	H 	0.66520 0.33160 0.94450 0.09500
H 	H 	0.62400 0.03940 0.87280 0.29300
N 	N 	0.96770 0.76349 0.03229 -0.06200
C 	C 	0.02460 0.88920 0.05060 0.00300
C 	C 	0.02460 0.84050 0.05350 -0.03200
H 	H 	0.05950 0.82580 0.07440 0.00800
C 	C 	0.97220 0.81390 0.02512 0.03300
C 	C 	0.91450 0.83600 0.99440 -0.03200
H 	H 	0.87890 0.81780 0.97560 0.01800
C 	C 	0.91080 0.88480 0.99220 -0.04300
H 	H 	0.98130 0.94310 0.01480 0.01600
Ni	Ni	0.28365 0.39007 0.87313 1.12800
O 	O 	0.88420 0.60552 0.10962 -0.39700
O 	O 	0.89430 0.54147 0.07205 -0.41400
O 	O 	0.16929 0.54648 0.96176 -0.39700
O 	O 	0.17130 0.61545 0.92985 -0.41400
O 	O 	0.96890 0.74600 0.97151 -0.08500
O 	O 	0.30776 0.45964 0.87571 -0.81400
O 	O 	0.30240 0.45656 0.78861 -0.42000
O 	O 	0.22720 0.39224 0.81575 -0.40800
O 	O 	0.55310 0.37679 0.64575 -0.39300
O 	O 	0.45440 0.44304 0.65314 -0.32700
O 	O 	0.37240 0.23774 0.69945 -0.12500
N 	N 	0.00380 0.73830 0.00766 -0.00000
N 	N 	0.26710 0.31697 0.87379 -0.21300
N 	N 	0.22820 0.07276 0.91146 -0.28300
N 	N 	0.36390 0.25854 0.73284 -0.04400
C 	C 	0.91050 0.58458 0.07893 0.33200
C 	C 	0.96490 0.61420 0.04530 -0.05800
C 	C 	0.96140 0.66360 0.04410 -0.01500
H 	H 	0.92440 0.68050 0.06330 0.06000
C 	C 	0.01450 0.68690 0.01330 0.03700
C 	C 	0.07380 0.66250 0.98600 -0.00400
H 	H 	0.11170 0.67850 0.96640 0.05000
C 	C 	0.07700 0.61340 0.98790 -0.01700
C 	C 	0.02680 0.58917 0.01841 -0.00600
H 	H 	0.03480 0.55670 0.02060 0.02500
C 	C 	0.14650 0.58954 0.95766 0.35200
C 	C 	0.27880 0.41346 0.78903 0.33500
C 	C 	0.31810 0.38504 0.75530 -0.04600
C 	C 	0.36710 0.40578 0.72300 -0.01200
H 	H 	0.36760 0.43840 0.72060 0.05600
C 	C 	0.41530 0.37804 0.69436 -0.04600
C 	C 	0.41300 0.32919 0.69792 -0.08100
H 	H 	0.44510 0.31030 0.67890 0.10000
C 	C 	0.36250 0.30894 0.73015 0.12200
C 	C 	0.31460 0.33649 0.75884 -0.08600
H 	H 	0.28060 0.32260 0.78020 0.09900
C 	C 	0.47840 0.40102 0.66167 0.32800
C 	C 	0.35010 0.29259 0.89040 0.09500
H 	H 	0.41580 0.30850 0.89720 0.01100
C 	C 	0.34340 0.24496 0.89806 -0.13100
H 	H 	0.40310 0.22960 0.91010 0.09300
C 	C 	0.24750 0.22025 0.88772 0.06500
C 	C 	0.16290 0.24516 0.86901 -0.12900
H 	H 	0.09800 0.22980 0.86060 0.07900
C 	C 	0.17570 0.29295 0.86289 0.09200
H 	H 	0.11770 0.30920 0.85060 0.00700
C 	C 	0.23750 0.16923 0.89639 0.07300
C 	C 	0.17430 0.13952 0.87347 -0.14600
H 	H 	0.13400 0.15130 0.85250 0.08800
C 	C 	0.17130 0.09197 0.88195 0.09300
H 	H 	0.12770 0.07240 0.86640 -0.04400
C 	C 	0.28720 0.10154 0.93425 0.09100
H 	H 	0.32570 0.08890 0.95530 -0.03700
C 	C 	0.29330 0.14940 0.92784 -0.14700
H 	H 	0.33480 0.16840 0.94450 0.09600
H 	H 	0.37600 0.46060 0.87280 0.30300
N 	N 	0.03230 0.73651 0.03229 -0.06200
C 	C 	0.97540 0.61080 0.05060 -0.00100
C 	C 	0.97540 0.65950 0.05350 -0.02900
H 	H 	0.94050 0.67420 0.07440 0.00900
C 	C 	0.02780 0.68610 0.02512 0.03200
C 	C 	0.08550 0.66400 0.99440 -0.03000
H 	H 	0.12110 0.68220 0.97560 0.01900
C 	C 	0.08920 0.61520 0.99220 -0.04900
H 	H 	0.01870 0.55690 0.01480 0.00500
Ni	Ni	0.78365 0.89007 0.87313 1.12900
O 	O 	0.38420 0.10552 0.10962 -0.40500
O 	O 	0.39430 0.04147 0.07205 -0.44900
O 	O 	0.66929 0.04648 0.96176 -0.43000
O 	O 	0.67130 0.11545 0.92985 -0.41800
O 	O 	0.46890 0.24600 0.97151 -0.08400
O 	O 	0.80776 0.95964 0.87571 -0.76200
O 	O 	0.80240 0.95656 0.78861 -0.36700
O 	O 	0.72720 0.89224 0.81575 -0.39300
O 	O 	0.05310 0.87679 0.64575 -0.38800
O 	O 	0.95440 0.94304 0.65314 -0.29200
O 	O 	0.87240 0.73774 0.69945 -0.12600
N 	N 	0.50380 0.23830 0.00766 -0.00000
N 	N 	0.76710 0.81697 0.87379 -0.21400
N 	N 	0.72820 0.57276 0.91146 -0.27200
N 	N 	0.86390 0.75854 0.73284 -0.04500
C 	C 	0.41050 0.08458 0.07893 0.33900
C 	C 	0.46490 0.11420 0.04530 -0.06300
C 	C 	0.46140 0.16360 0.04410 -0.01400
H 	H 	0.42440 0.18050 0.06330 0.05800
C 	C 	0.51450 0.18690 0.01330 0.03600
C 	C 	0.57380 0.16250 0.98600 -0.00300
H 	H 	0.61170 0.17850 0.96640 0.04900
C 	C 	0.57700 0.11340 0.98790 -0.02000
C 	C 	0.52680 0.08917 0.01841 -0.00100
H 	H 	0.53480 0.05670 0.02060 0.01400
C 	C 	0.64650 0.08954 0.95766 0.35700
C 	C 	0.77880 0.91346 0.78903 0.32400
C 	C 	0.81810 0.88504 0.75530 -0.02600
C 	C 	0.86710 0.90578 0.72300 -0.02800
H 	H 	0.86760 0.93840 0.72060 0.08000
C 	C 	0.91530 0.87804 0.69436 -0.03000
C 	C 	0.91300 0.82919 0.69792 -0.09100
H 	H 	0.94510 0.81030 0.67890 0.10400
C 	C 	0.86250 0.80894 0.73015 0.13000
C 	C 	0.81460 0.83649 0.75884 -0.09700
H 	H 	0.78060 0.82260 0.78020 0.10300
C 	C 	0.97840 0.90102 0.66167 0.31700
C 	C 	0.85010 0.79259 0.89040 0.09400
H 	H 	0.91580 0.80850 0.89720 0.01000
C 	C 	0.84340 0.74496 0.89806 -0.13200
H 	H 	0.90310 0.72960 0.91010 0.09300
C 	C 	0.74750 0.72025 0.88772 0.06600
C 	C 	0.66290 0.74516 0.86901 -0.12900
H 	H 	0.59800 0.72980 0.86060 0.08000
C 	C 	0.67570 0.79295 0.86289 0.09100
H 	H 	0.61770 0.80920 0.85060 0.00800
C 	C 	0.73750 0.66923 0.89639 0.07100
C 	C 	0.67430 0.63952 0.87347 -0.14100
H 	H 	0.63400 0.65130 0.85250 0.08800
C 	C 	0.67130 0.59197 0.88195 0.09000
H 	H 	0.62770 0.57240 0.86640 -0.02600
C 	C 	0.78720 0.60154 0.93425 0.09000
H 	H 	0.82570 0.58890 0.95530 -0.02700
C 	C 	0.79330 0.64940 0.92784 -0.14300
H 	H 	0.83480 0.66840 0.94450 0.09500
H 	H 	0.87600 0.96060 0.87280 0.31000
N 	N 	0.53230 0.23651 0.03229 -0.06100
C 	C 	0.47540 0.11080 0.05060 -0.00400
C 	C 	0.47540 0.15950 0.05350 -0.02800
H 	H 	0.44050 0.17420 0.07440 0.01100
C 	C 	0.52780 0.18610 0.02512 0.03200
C 	C 	0.58550 0.16400 0.99440 -0.02900
H 	H 	0.62110 0.18220 0.97560 0.02000
C 	C 	0.58920 0.11520 0.99220 -0.05400
H 	H 	0.51870 0.05690 0.01480 -0.00400
Ni	Ni	0.78365 0.60993 0.62687 1.12800
O 	O 	0.38420 0.39448 0.39038 -0.39700
O 	O 	0.39430 0.45853 0.42795 -0.41400
O 	O 	0.66929 0.45352 0.53824 -0.39700
O 	O 	0.67130 0.38455 0.57015 -0.41400
O 	O 	0.46890 0.25400 0.52849 -0.08400
O 	O 	0.80776 0.54036 0.62429 -0.81400
O 	O 	0.80240 0.54344 0.71139 -0.42000
O 	O 	0.72720 0.60776 0.68425 -0.40800
O 	O 	0.05310 0.62321 0.85425 -0.39300
O 	O 	0.95440 0.55696 0.84686 -0.32700
O 	O 	0.87240 0.76226 0.80055 -0.12600
N 	N 	0.50380 0.26170 0.49234 -0.00100
N 	N 	0.76710 0.68303 0.62621 -0.21400
N 	N 	0.72820 0.92724 0.58854 -0.24600
N 	N 	0.86390 0.74146 0.76716 -0.04400
C 	C 	0.41050 0.41542 0.42107 0.33200
C 	C 	0.46490 0.38580 0.45470 -0.05800
C 	C 	0.46140 0.33640 0.45590 -0.01500
H 	H 	0.42440 0.31950 0.43670 0.06000
C 	C 	0.51450 0.31310 0.48670 0.03700
C 	C 	0.57380 0.33750 0.51400 -0.00400
H 	H 	0.61170 0.32150 0.53360 0.05000
C 	C 	0.57700 0.38660 0.51210 -0.01700
C 	C 	0.52680 0.41083 0.48159 -0.00600
H 	H 	0.53480 0.44330 0.47940 0.02500
C 	C 	0.64650 0.41046 0.54234 0.35200
C 	C 	0.77880 0.58654 0.71097 0.33500
C 	C 	0.81810 0.61496 0.74470 -0.04600
C 	C 	0.86710 0.59422 0.77700 -0.01200
H 	H 	0.86760 0.56160 0.77940 0.05600
C 	C 	0.91530 0.62196 0.80564 -0.04600
C 	C 	0.91300 0.67081 0.80208 -0.08100
H 	H 	0.94510 0.68970 0.82110 0.10000
C 	C 	0.86250 0.69106 0.76985 0.12200
C 	C 	0.81460 0.66351 0.74116 -0.08600
H 	H 	0.78060 0.67740 0.71980 0.09900
C 	C 	0.97840 0.59898 0.83833 0.32800
C 	C 	0.85010 0.70741 0.60960 0.09600
H 	H 	0.91580 0.69150 0.60280 0.01000
C 	C 	0.84340 0.75504 0.60194 -0.13400
H 	H 	0.90310 0.77040 0.58990 0.09400
C 	C 	0.74750 0.77975 0.61228 0.06900
C 	C 	0.66290 0.75484 0.63099 -0.13100
H 	H 	0.59800 0.77020 0.63940 0.08100
C 	C 	0.67570 0.70705 0.63711 0.09300
H 	H 	0.61770 0.69080 0.64940 0.00700
C 	C 	0.73750 0.83077 0.60361 0.06700
C 	C 	0.67430 0.86048 0.62653 -0.13300
H 	H 	0.63400 0.84870 0.64750 0.08900
C 	C 	0.67130 0.90803 0.61805 0.08700
H 	H 	0.62770 0.92760 0.63360 -0.00200
C 	C 	0.78720 0.89846 0.56575 0.08800
H 	H 	0.82570 0.91110 0.54470 -0.01300
C 	C 	0.79330 0.85060 0.57216 -0.13800
H 	H 	0.83480 0.83160 0.55550 0.09300
H 	H 	0.87600 0.53940 0.62720 0.30300
N 	N 	0.53230 0.26349 0.46771 -0.06100
C 	C 	0.47540 0.38920 0.44940 -0.00100
C 	C 	0.47540 0.34050 0.44650 -0.02900
H 	H 	0.44050 0.32580 0.42560 0.01000
C 	C 	0.52780 0.31390 0.47488 0.03300
C 	C 	0.58550 0.33600 0.50560 -0.03000
H 	H 	0.62110 0.31780 0.52440 0.01900
C 	C 	0.58920 0.38480 0.50780 -0.04900
H 	H 	0.51870 0.44310 0.48520 0.00500
Ni	Ni	0.28365 0.10993 0.62687 1.12800
O 	O 	0.88420 0.89448 0.39038 -0.38500
O 	O 	0.89430 0.95853 0.42795 -0.35800
O 	O 	0.16929 0.95352 0.53824 -0.34600
O 	O 	0.17130 0.88455 0.57015 -0.40800
O 	O 	0.96890 0.75400 0.52849 -0.08400
O 	O 	0.30776 0.04036 0.62429 -0.83200
O 	O 	0.30240 0.04344 0.71139 -0.45300
O 	O 	0.22720 0.10776 0.68425 -0.41600
O 	O 	0.55310 0.12321 0.85425 -0.39700
O 	O 	0.45440 0.05696 0.84686 -0.35400
O 	O 	0.37240 0.26226 0.80055 -0.12600
N 	N 	0.00380 0.76170 0.49234 -0.00100
N 	N 	0.26710 0.18303 0.62621 -0.21400
N 	N 	0.22820 0.42724 0.58854 -0.27200
N 	N 	0.36390 0.24146 0.76716 -0.04300
C 	C 	0.91050 0.91542 0.42107 0.32100
C 	C 	0.96490 0.88580 0.45470 -0.05200
C 	C 	0.96140 0.83640 0.45590 -0.01700
H 	H 	0.92440 0.81950 0.43670 0.06300
C 	C 	0.01450 0.81310 0.48670 0.03900
C 	C 	0.07380 0.83750 0.51400 -0.00500
H 	H 	0.11170 0.82150 0.53360 0.05200
C 	C 	0.07700 0.88660 0.51210 -0.01300
C 	C 	0.02680 0.91083 0.48159 -0.01200
H 	H 	0.03480 0.94330 0.47940 0.03600
C 	C 	0.14650 0.91046 0.54234 0.34300
C 	C 	0.27880 0.08654 0.71097 0.34200
C 	C 	0.31810 0.11496 0.74470 -0.06200
C 	C 	0.36710 0.09422 0.77700 0.00100
H 	H 	0.36760 0.06160 0.77940 0.03500
C 	C 	0.41530 0.12196 0.80564 -0.05900
C 	C 	0.41300 0.17081 0.80208 -0.07300
H 	H 	0.44510 0.18970 0.82110 0.09700
C 	C 	0.36250 0.19106 0.76985 0.11600
C 	C 	0.31460 0.16351 0.74116 -0.07700
H 	H 	0.28060 0.17740 0.71980 0.09500
C 	C 	0.47840 0.09898 0.83833 0.33600
C 	C 	0.35010 0.20741 0.60960 0.09600
H 	H 	0.41580 0.19150 0.60280 0.01000
C 	C 	0.34340 0.25504 0.60194 -0.13200
H 	H 	0.40310 0.27040 0.58990 0.09400
C 	C 	0.24750 0.27975 0.61228 0.06700
C 	C 	0.16290 0.25484 0.63099 -0.13000
H 	H 	0.09800 0.27020 0.63940 0.08000
C 	C 	0.17570 0.20705 0.63711 0.09300
H 	H 	0.11770 0.19080 0.64940 0.00600
C 	C 	0.23750 0.33077 0.60361 0.07100
C 	C 	0.17430 0.36048 0.62653 -0.14000
H 	H 	0.13400 0.34870 0.64750 0.08800
C 	C 	0.17130 0.40803 0.61805 0.09000
H 	H 	0.12770 0.42760 0.63360 -0.02600
C 	C 	0.28720 0.39846 0.56575 0.09000
H 	H 	0.32570 0.41110 0.54470 -0.02700
C 	C 	0.29330 0.35060 0.57216 -0.14300
H 	H 	0.33480 0.33160 0.55550 0.09500
H 	H 	0.37600 0.03940 0.62720 0.29300
N 	N 	0.03230 0.76349 0.46771 -0.06200
C 	C 	0.97540 0.88920 0.44940 0.00300
C 	C 	0.97540 0.84050 0.44650 -0.03200
H 	H 	0.94050 0.82580 0.42560 0.00800
C 	C 	0.02780 0.81390 0.47488 0.03300
C 	C 	0.08550 0.83600 0.50560 -0.03200
H 	H 	0.12110 0.81780 0.52440 0.01800
C 	C 	0.08920 0.88480 0.50780 -0.04300
H 	H 	0.01870 0.94310 0.48520 0.01600
Ni	Ni	0.71635 0.39007 0.62687 1.12800
O 	O 	0.11580 0.60552 0.39038 -0.39700
O 	O 	0.10570 0.54147 0.42795 -0.41400
O 	O 	0.83071 0.54648 0.53824 -0.39700
O 	O 	0.82870 0.61545 0.57015 -0.41400
O 	O 	0.03110 0.74600 0.52849 -0.08500
O 	O 	0.69224 0.45964 0.62429 -0.81400
O 	O 	0.69760 0.45656 0.71139 -0.42000
O 	O 	0.77280 0.39224 0.68425 -0.40800
O 	O 	0.44690 0.37679 0.85425 -0.39300
O 	O 	0.54560 0.44304 0.84686 -0.32700
O 	O 	0.62760 0.23774 0.80055 -0.12500
N 	N 	0.99620 0.73830 0.49234 -0.00000
N 	N 	0.73290 0.31697 0.62621 -0.21300
N 	N 	0.77180 0.07276 0.58854 -0.28300
N 	N 	0.63610 0.25854 0.76716 -0.04400
C 	C 	0.08950 0.58458 0.42107 0.33200
C 	C 	0.03510 0.61420 0.45470 -0.05800
C 	C 	0.03860 0.66360 0.45590 -0.01500
H 	H 	0.07560 0.68050 0.43670 0.06000
C 	C 	0.98550 0.68690 0.48670 0.03700
C 	C 	0.92620 0.66250 0.51400 -0.00400
H 	H 	0.88830 0.67850 0.53360 0.05000
C 	C 	0.92300 0.61340 0.51210 -0.01700
C 	C 	0.97320 0.58917 0.48159 -0.00600
H 	H 	0.96520 0.55670 0.47940 0.02500
C 	C 	0.85350 0.58954 0.54234 0.35200
C 	C 	0.72120 0.41346 0.71097 0.33500
C 	C 	0.68190 0.38504 0.74470 -0.04600
C 	C 	0.63290 0.40578 0.77700 -0.01200
H 	H 	0.63240 0.43840 0.77940 0.05600
C 	C 	0.58470 0.37804 0.80564 -0.04600
C 	C 	0.58700 0.32919 0.80208 -0.08100
H 	H 	0.55490 0.31030 0.82110 0.10000
C 	C 	0.63750 0.30894 0.76985 0.12200
C 	C 	0.68540 0.33649 0.74116 -0.08600
H 	H 	0.71940 0.32260 0.71980 0.09900
C 	C 	0.52160 0.40102 0.83833 0.32800
C 	C 	0.64990 0.29259 0.60960 0.09500
H 	H 	0.58420 0.30850 0.60280 0.01100
C 	C 	0.65660 0.24496 0.60194 -0.13100
H 	H 	0.59690 0.22960 0.58990 0.09300
C 	C 	0.75250 0.22025 0.61228 0.06500
C 	C 	0.83710 0.24516 0.63099 -0.12900
H 	H 	0.90200 0.22980 0.63940 0.07900
C 	C 	0.82430 0.29295 0.63711 0.09200
H 	H 	0.88230 0.30920 0.64940 0.00700
C 	C 	0.76250 0.16923 0.60361 0.07300
C 	C 	0.82570 0.13952 0.62653 -0.14600
H 	H 	0.86600 0.15130 0.64750 0.08800
C 	C 	0.82870 0.09197 0.61805 0.09300
H 	H 	0.87230 0.07240 0.63360 -0.04400
C 	C 	0.71280 0.10154 0.56575 0.09100
H 	H 	0.67430 0.08890 0.54470 -0.03700
C 	C 	0.70670 0.14940 0.57216 -0.14700
H 	H 	0.66520 0.16840 0.55550 0.09600
H 	H 	0.62400 0.46060 0.62720 0.30300
N 	N 	0.96770 0.73651 0.46771 -0.06200
C 	C 	0.02460 0.61080 0.44940 -0.00100
C 	C 	0.02460 0.65950 0.44650 -0.02900
H 	H 	0.05950 0.67420 0.42560 0.00900
C 	C 	0.97220 0.68610 0.47488 0.03200
C 	C 	0.91450 0.66400 0.50560 -0.03000
H 	H 	0.87890 0.68220 0.52440 0.01900
C 	C 	0.91080 0.61520 0.50780 -0.04900
H 	H 	0.98130 0.55690 0.48520 0.00500
Ni	Ni	0.21635 0.89007 0.62687 1.12900
O 	O 	0.61580 0.10552 0.39038 -0.40500
O 	O 	0.60570 0.04147 0.42795 -0.45000
O 	O 	0.33071 0.04648 0.53824 -0.43000
O 	O 	0.32870 0.11545 0.57015 -0.41800
O 	O 	0.53110 0.24600 0.52849 -0.08400
O 	O 	0.19224 0.95964 0.62429 -0.76200
O 	O 	0.19760 0.95656 0.71139 -0.36700
O 	O 	0.27280 0.89224 0.68425 -0.39300
O 	O 	0.94690 0.87679 0.85425 -0.38800
O 	O 	0.04560 0.94304 0.84686 -0.29200
O 	O 	0.12760 0.73774 0.80055 -0.12600
N 	N 	0.49620 0.23830 0.49234 -0.00000
N 	N 	0.23290 0.81697 0.62621 -0.21400
N 	N 	0.27180 0.57276 0.58854 -0.27200
N 	N 	0.13610 0.75854 0.76716 -0.04500
C 	C 	0.58950 0.08458 0.42107 0.33900
C 	C 	0.53510 0.11420 0.45470 -0.06300
C 	C 	0.53860 0.16360 0.45590 -0.01400
H 	H 	0.57560 0.18050 0.43670 0.05800
C 	C 	0.48550 0.18690 0.48670 0.03600
C 	C 	0.42620 0.16250 0.51400 -0.00300
H 	H 	0.38830 0.17850 0.53360 0.04900
C 	C 	0.42300 0.11340 0.51210 -0.02000
C 	C 	0.47320 0.08917 0.48159 -0.00100
H 	H 	0.46520 0.05670 0.47940 0.01400
C 	C 	0.35350 0.08954 0.54234 0.35700
C 	C 	0.22120 0.91346 0.71097 0.32400
C 	C 	0.18190 0.88504 0.74470 -0.02600
C 	C 	0.13290 0.90578 0.77700 -0.02800
H 	H 	0.13240 0.93840 0.77940 0.08000
C 	C 	0.08470 0.87804 0.80564 -0.03000
C 	C 	0.08700 0.82919 0.80208 -0.09100
H 	H 	0.05490 0.81030 0.82110 0.10400
C 	C 	0.13750 0.80894 0.76985 0.13000
C 	C 	0.18540 0.83649 0.74116 -0.09700
H 	H 	0.21940 0.82260 0.71980 0.10300
C 	C 	0.02160 0.90102 0.83833 0.31700
C 	C 	0.14990 0.79259 0.60960 0.09400
H 	H 	0.08420 0.80850 0.60280 0.01000
C 	C 	0.15660 0.74496 0.60194 -0.13200
H 	H 	0.09690 0.72960 0.58990 0.09300
C 	C 	0.25250 0.72025 0.61228 0.06600
C 	C 	0.33710 0.74516 0.63099 -0.12900
H 	H 	0.40200 0.72980 0.63940 0.08000
C 	C 	0.32430 0.79295 0.63711 0.09100
H 	H 	0.38230 0.80920 0.64940 0.00800
C 	C 	0.26250 0.66923 0.60361 0.07100
C 	C 	0.32570 0.63952 0.62653 -0.14100
H 	H 	0.36600 0.65130 0.64750 0.08800
C 	C 	0.32870 0.59197 0.61805 0.09000
H 	H 	0.37230 0.57240 0.63360 -0.02600
C 	C 	0.21280 0.60154 0.56575 0.09000
H 	H 	0.17430 0.58890 0.54470 -0.02700
C 	C 	0.20670 0.64940 0.57216 -0.14300
H 	H 	0.16520 0.66840 0.55550 0.09500
H 	H 	0.12400 0.96060 0.62720 0.31000
N 	N 	0.46770 0.23651 0.46771 -0.06100
C 	C 	0.52460 0.11080 0.44940 -0.00400
C 	C 	0.52460 0.15950 0.44650 -0.02800
H 	H 	0.55950 0.17420 0.42560 0.01100
C 	C 	0.47220 0.18610 0.47488 0.03200
C 	C 	0.41450 0.16400 0.50560 -0.02900
H 	H 	0.37890 0.18220 0.52440 0.02000
C 	C 	0.41080 0.11520 0.50780 -0.05400
H 	H 	0.48130 0.05690 0.48520 -0.00400
Ni	Ni	0.75000 0.50000 0.07962 1.12600
Ni	Ni	0.75000 0.50000 0.16855 1.08100
Ni	Ni	0.25000 -0.00000 0.07962 1.07800
Ni	Ni	0.25000 -0.00000 0.16855 1.03400
Ni	Ni	0.25000 0.50000 0.42038 1.12600
Ni	Ni	0.25000 0.50000 0.33145 1.08100
Ni	Ni	0.75000 -0.00000 0.42038 1.07800
Ni	Ni	0.75000 0.00000 0.33145 1.03400
Ni	Ni	0.25000 0.50000 0.92038 1.12600
Ni	Ni	0.25000 0.50000 0.83145 1.08100
Ni	Ni	0.75000 0.00000 0.92038 1.07800
Ni	Ni	0.75000 -0.00000 0.83145 1.03400
Ni	Ni	0.75000 0.50000 0.57962 1.12600
Ni	Ni	0.75000 0.50000 0.66855 1.08100
Ni	Ni	0.25000 0.00000 0.57962 1.07800
Ni	Ni	0.25000 0.00000 0.66855 1.03400
Ni	Ni	0.75000 -0.00000 0.08514 0.93700
Ni	Ni	0.25000 0.50000 0.08514 0.98200
Ni	Ni	0.25000 -0.00000 0.41486 0.93700
Ni	Ni	0.75000 0.50000 0.41486 0.98200
Ni	Ni	0.25000 0.00000 0.91486 0.93700
Ni	Ni	0.75000 0.50000 0.91486 0.98200
Ni	Ni	0.75000 0.00000 0.58514 0.93700
Ni	Ni	0.25000 0.50000 0.58514 0.98200
