data_crystal

_cell_length_a 10.25500
_cell_length_b 10.25500
_cell_length_c 14.49400
_cell_angle_alpha 90.00000
_cell_angle_beta  90.00000
_cell_angle_gamma 90.00000

_symmetry_space_group_name_	'P 1'
_symmetry_space_group_name_H-M	'P 1'

loop_
_symmetry_equiv_pos_as_xyz
  x,y,z

loop_
_atom_site_label
_atom_site_type_symbol
_atom_site_fract_x
_atom_site_fract_y
_atom_site_fract_z
_atom_site_charge
Ho	Ho	0.85022 0.84983 0.70535 1.96900
O 	O 	0.93390 0.66430 0.64080 -0.56200
C 	C 	0.90900 0.18310 0.74060 0.57100
C 	C 	0.04470 0.39360 0.50400 0.22400
H 	H 	0.07560 0.43870 0.45290 -0.03700
C 	C 	0.08440 0.18270 0.41990 0.55200
O 	O 	0.09430 0.24120 0.34430 -0.54000
C 	C 	0.95820 0.39380 0.65830 0.22300
H 	H 	0.93040 0.43930 0.71020 -0.04000
C 	C 	0.00200 0.46180 0.58140 -0.29500
O 	O 	0.07890 0.66290 0.52510 -0.55000
C 	C 	0.95580 0.25950 0.65830 -0.30800
O 	O 	0.10820 0.06520 0.42960 -0.55500
C 	C 	0.04120 0.26040 0.50320 -0.30500
C 	C 	0.00360 0.61050 0.58290 0.56600
C 	C 	0.99780 0.19170 0.57970 0.23700
H 	H 	0.99660 0.10100 0.57890 -0.05900
O 	O 	0.90530 0.23880 0.81620 -0.54700
O 	O 	0.87980 0.06790 0.72970 -0.55600
Ho	Ho	0.14978 0.15017 0.20535 1.99600
O 	O 	0.06610 0.33570 0.14080 -0.55600
C 	C 	0.09100 0.81690 0.24060 0.58100
C 	C 	0.95530 0.60640 0.00400 0.40900
H 	H 	0.92440 0.56130 0.95290 -0.16800
C 	C 	0.91560 0.81730 0.91990 0.46400
O 	O 	0.90570 0.75880 0.84430 -0.52900
C 	C 	0.04180 0.60620 0.15830 0.24300
H 	H 	0.06960 0.56070 0.21020 -0.04000
C 	C 	0.99800 0.53820 0.08140 -0.33500
O 	O 	0.92110 0.33710 0.02510 -0.47700
C 	C 	0.04420 0.74050 0.15830 -0.30600
O 	O 	0.89180 0.93480 0.92960 -0.54100
C 	C 	0.95880 0.73960 0.00320 -0.25100
C 	C 	0.99640 0.38950 0.08290 0.59000
C 	C 	0.00220 0.80830 0.07970 0.22100
H 	H 	0.00340 0.89900 0.07890 -0.03100
O 	O 	0.09470 0.76120 0.31620 -0.55600
O 	O 	0.12020 0.93210 0.22970 -0.56400
Ho	Ho	0.15017 0.85022 0.45535 1.98000
O 	O 	0.33570 0.93390 0.39080 -0.56200
C 	C 	0.81690 0.90900 0.49060 0.57200
C 	C 	0.60640 0.04470 0.25400 0.20800
H 	H 	0.56130 0.07560 0.20290 -0.02000
C 	C 	0.81730 0.08440 0.16990 0.53200
O 	O 	0.75880 0.09430 0.09430 -0.47000
C 	C 	0.60620 0.95820 0.40830 0.20700
H 	H 	0.56070 0.93040 0.46020 -0.03100
C 	C 	0.53820 0.00200 0.33140 -0.27600
O 	O 	0.33710 0.07890 0.27510 -0.54600
C 	C 	0.74050 0.95580 0.40830 -0.29400
O 	O 	0.93480 0.10820 0.17960 -0.53300
C 	C 	0.73960 0.04120 0.25320 -0.27700
C 	C 	0.38950 0.00360 0.33290 0.56800
C 	C 	0.80830 0.99780 0.32970 0.21600
H 	H 	0.89900 0.99660 0.32890 -0.05300
O 	O 	0.76120 0.90530 0.56620 -0.55400
O 	O 	0.93210 0.87980 0.47970 -0.56000
Ho	Ho	0.84983 0.14978 0.95535 1.79600
O 	O 	0.66430 0.06610 0.89080 -0.55600
C 	C 	0.18310 0.09100 0.99060 0.43400
C 	C 	0.39360 0.95530 0.75400 0.20800
H 	H 	0.43870 0.92440 0.70290 -0.03300
C 	C 	0.18270 0.91560 0.66990 0.54500
O 	O 	0.24120 0.90570 0.59430 -0.53900
C 	C 	0.39380 0.04180 0.90830 0.19000
H 	H 	0.43930 0.06960 0.96020 -0.05200
C 	C 	0.46180 0.99800 0.83140 -0.28500
O 	O 	0.66290 0.92110 0.77510 -0.54800
C 	C 	0.25950 0.04420 0.90830 -0.27200
O 	O 	0.06520 0.89180 0.67960 -0.55400
C 	C 	0.26040 0.95880 0.75320 -0.29200
C 	C 	0.61050 0.99640 0.83290 0.55200
C 	C 	0.19170 0.00220 0.82970 0.20400
H 	H 	0.10100 0.00340 0.82890 -0.04800
O 	O 	0.23880 0.09470 0.06620 -0.44900
O 	O 	0.06790 0.12020 0.97970 -0.54600
