data_crystal

_cell_length_a 10.20000
_cell_length_b 10.20000
_cell_length_c 14.43860
_cell_angle_alpha 90.00000
_cell_angle_beta  90.00000
_cell_angle_gamma 90.00000

_symmetry_space_group_name_	'P 1'
_symmetry_space_group_name_H-M	'P 1'

loop_
_symmetry_equiv_pos_as_xyz
  x,y,z

loop_
_atom_site_label
_atom_site_type_symbol
_atom_site_fract_x
_atom_site_fract_y
_atom_site_fract_z
_atom_site_charge
O 	O 	0.33500 0.92650 0.19190 -0.42300
O 	O 	0.93520 0.88520 0.10010 -0.43500
O 	O 	0.76010 0.90390 0.01280 -0.43700
C 	C 	0.81890 0.91150 0.08980 0.43500
C 	C 	0.74060 0.95840 0.17270 -0.15600
C 	C 	0.60570 0.95730 0.17270 0.15300
H 	H 	0.55930 0.92720 0.11980 0.00300
O 	O 	0.66500 0.07350 0.69190 -0.44900
O 	O 	0.06480 0.11480 0.60010 -0.48400
O 	O 	0.23990 0.09610 0.51280 -0.45000
C 	C 	0.18110 0.08850 0.58980 0.43800
C 	C 	0.25940 0.04160 0.67270 -0.19600
C 	C 	0.39430 0.04270 0.67270 0.13000
H 	H 	0.44070 0.07280 0.61980 0.00500
O 	O 	0.07350 0.33500 0.44190 -0.44900
O 	O 	0.11480 0.93520 0.35010 -0.45000
O 	O 	0.09610 0.76010 0.26280 -0.44400
C 	C 	0.08850 0.81890 0.33980 0.43300
C 	C 	0.04160 0.74060 0.42270 -0.18200
C 	C 	0.04270 0.60570 0.42270 0.12400
H 	H 	0.07280 0.55930 0.36980 0.00800
O 	O 	0.92650 0.66500 0.94190 -0.41400
O 	O 	0.88520 0.06480 0.85010 -0.47000
O 	O 	0.90390 0.23990 0.76280 -0.43900
C 	C 	0.91150 0.18110 0.83980 0.43800
C 	C 	0.95840 0.25940 0.92270 -0.16300
C 	C 	0.95730 0.39430 0.92270 0.16800
H 	H 	0.92720 0.44070 0.86980 0.00000
O 	O 	0.66500 0.92650 0.80810 -0.42100
O 	O 	0.06480 0.88520 0.89990 -0.46300
O 	O 	0.23990 0.90390 0.98720 -0.42900
C 	C 	0.18110 0.91150 0.91020 0.43800
C 	C 	0.25940 0.95840 0.82730 -0.16800
C 	C 	0.39430 0.95730 0.82730 0.15800
H 	H 	0.44070 0.92720 0.88020 0.00500
O 	O 	0.33500 0.07350 0.30810 -0.44900
O 	O 	0.93520 0.11480 0.39990 -0.45100
O 	O 	0.76010 0.09610 0.48720 -0.44400
C 	C 	0.81890 0.08850 0.41020 0.43200
C 	C 	0.74060 0.04160 0.32730 -0.18200
C 	C 	0.60570 0.04270 0.32730 0.12400
H 	H 	0.55930 0.07280 0.38020 0.00700
O 	O 	0.92650 0.33500 0.55810 -0.42400
O 	O 	0.88520 0.93520 0.64990 -0.43600
O 	O 	0.90390 0.76010 0.73720 -0.43200
C 	C 	0.91150 0.81890 0.66020 0.43300
C 	C 	0.95840 0.74060 0.57730 -0.15800
C 	C 	0.95730 0.60570 0.57730 0.14900
H 	H 	0.92720 0.55930 0.63020 0.00600
O 	O 	0.07350 0.66500 0.05810 -0.45100
O 	O 	0.11480 0.06480 0.14990 -0.48700
O 	O 	0.09610 0.23990 0.23720 -0.45000
C 	C 	0.08850 0.18110 0.16020 0.43700
C 	C 	0.04160 0.25940 0.07730 -0.19600
C 	C 	0.04270 0.39430 0.07730 0.13100
H 	H 	0.07280 0.44070 0.13020 0.00400
Tm	Tm	0.14978 0.85022 0.12500 1.57800
Tm	Tm	0.85022 0.14978 0.62500 1.58200
Tm	Tm	0.14978 0.14978 0.37500 1.57000
Tm	Tm	0.85022 0.85022 0.87500 1.59700
C 	C 	0.53750 0.00000 0.25000 -0.21400
C 	C 	0.80820 0.00000 0.25000 0.08600
H 	H 	0.90130 0.00000 0.25000 0.00600
C 	C 	0.38980 0.00000 0.25000 0.41100
C 	C 	0.46250 0.00000 0.75000 -0.21900
C 	C 	0.19180 0.00000 0.75000 0.09400
H 	H 	0.09870 0.00000 0.75000 -0.01400
C 	C 	0.61020 0.00000 0.75000 0.41200
C 	C 	-0.00000 0.53750 0.50000 -0.21000
C 	C 	0.00000 0.80820 0.50000 0.09000
H 	H 	0.00000 0.90130 0.50000 0.00600
C 	C 	-0.00000 0.38980 0.50000 0.41300
C 	C 	-0.00000 0.46250 -0.00000 -0.23000
C 	C 	-0.00000 0.19180 -0.00000 0.08000
H 	H 	-0.00000 0.09870 -0.00000 -0.01600
C 	C 	-0.00000 0.61020 -0.00000 0.40100
