data_crystal

_cell_length_a 38.32070
_cell_length_b 38.32070
_cell_length_c 38.32070
_cell_angle_alpha 90.00000
_cell_angle_beta  90.00000
_cell_angle_gamma 90.00000

_symmetry_space_group_name_	'P 1'
_symmetry_space_group_name_H-M	'P 1'

loop_
_symmetry_equiv_pos_as_xyz
  x,y,z

loop_
_atom_site_label
_atom_site_type_symbol
_atom_site_fract_x
_atom_site_fract_y
_atom_site_fract_z
_atom_site_charge
O 	O 	0.31550 0.22240 0.17210 -0.46400
C 	C 	0.47120 0.24680 0.07240 0.15400
C 	C 	0.48140 0.24430 0.10870 -0.08800
H 	H 	0.46650 0.24290 0.12840 0.06600
C 	C 	0.40280 0.27910 0.10880 -0.23400
H 	H 	0.41630 0.29940 0.10450 0.11700
C 	C 	0.37640 0.27980 0.13390 0.14500
H 	H 	0.37090 0.30090 0.14570 -0.00600
O 	O 	0.81550 0.72240 0.67210 -0.46400
C 	C 	0.97120 0.74680 0.57240 0.15300
C 	C 	0.98140 0.74430 0.60870 -0.09100
H 	H 	0.96650 0.74290 0.62840 0.06700
C 	C 	0.90280 0.77910 0.60880 -0.23400
H 	H 	0.91630 0.79940 0.60450 0.11600
C 	C 	0.87640 0.77980 0.63390 0.14400
H 	H 	0.87090 0.80090 0.64570 -0.00700
O 	O 	0.68450 0.77760 0.17210 -0.46400
C 	C 	0.52880 0.75320 0.07240 0.15400
C 	C 	0.51860 0.75570 0.10870 -0.08800
H 	H 	0.53350 0.75710 0.12840 0.06600
C 	C 	0.59720 0.72090 0.10880 -0.23400
H 	H 	0.58370 0.70060 0.10450 0.11700
C 	C 	0.62360 0.72020 0.13390 0.14500
H 	H 	0.62910 0.69910 0.14570 -0.00600
O 	O 	0.18450 0.27760 0.67210 -0.46400
C 	C 	0.02880 0.25320 0.57240 0.15400
C 	C 	0.01860 0.25570 0.60870 -0.08500
H 	H 	0.03350 0.25710 0.62840 0.06600
C 	C 	0.09720 0.22090 0.60880 -0.23400
H 	H 	0.08370 0.20060 0.60450 0.11700
C 	C 	0.12360 0.22020 0.63390 0.14500
H 	H 	0.12910 0.19910 0.64570 -0.00600
O 	O 	0.68450 0.22240 0.82790 -0.46400
C 	C 	0.52880 0.24680 0.92760 0.15400
C 	C 	0.51860 0.24430 0.89130 -0.08800
H 	H 	0.53350 0.24290 0.87160 0.06600
C 	C 	0.59720 0.27910 0.89120 -0.23400
H 	H 	0.58370 0.29940 0.89550 0.11600
C 	C 	0.62360 0.27980 0.86610 0.14400
H 	H 	0.62910 0.30090 0.85430 -0.00700
O 	O 	0.18450 0.72240 0.32790 -0.46400
C 	C 	0.02880 0.74680 0.42760 0.15400
C 	C 	0.01860 0.74430 0.39130 -0.08500
H 	H 	0.03350 0.74290 0.37160 0.06600
C 	C 	0.09720 0.77910 0.39120 -0.23400
H 	H 	0.08370 0.79940 0.39550 0.11700
C 	C 	0.12360 0.77980 0.36610 0.14500
H 	H 	0.12910 0.80090 0.35430 -0.00800
O 	O 	0.31550 0.77760 0.82790 -0.46500
C 	C 	0.47120 0.75320 0.92760 0.15300
C 	C 	0.48140 0.75570 0.89130 -0.08900
H 	H 	0.46650 0.75710 0.87160 0.06500
C 	C 	0.40280 0.72090 0.89120 -0.23500
H 	H 	0.41630 0.70060 0.89550 0.11500
C 	C 	0.37640 0.72020 0.86610 0.14300
H 	H 	0.37090 0.69910 0.85430 -0.00800
O 	O 	0.81550 0.27760 0.32790 -0.46500
C 	C 	0.97120 0.25320 0.42760 0.15200
C 	C 	0.98140 0.25570 0.39130 -0.09200
H 	H 	0.96650 0.25710 0.37160 0.06600
C 	C 	0.90280 0.22090 0.39120 -0.23500
H 	H 	0.91630 0.20060 0.39550 0.11500
C 	C 	0.87640 0.22020 0.36610 0.14300
H 	H 	0.87090 0.19910 0.35430 -0.00800
O 	O 	0.17210 0.31550 0.22240 -0.46500
C 	C 	0.07240 0.47120 0.24680 0.15300
C 	C 	0.10870 0.48140 0.24430 -0.08900
H 	H 	0.12840 0.46650 0.24290 0.06500
C 	C 	0.10880 0.40280 0.27910 -0.23500
H 	H 	0.10450 0.41630 0.29940 0.11600
C 	C 	0.13390 0.37640 0.27980 0.14400
H 	H 	0.14570 0.37090 0.30090 -0.00700
O 	O 	0.67210 0.81550 0.72240 -0.46500
C 	C 	0.57240 0.97120 0.74680 0.15200
C 	C 	0.60870 0.98140 0.74430 -0.09200
H 	H 	0.62840 0.96650 0.74290 0.06600
C 	C 	0.60880 0.90280 0.77910 -0.23500
H 	H 	0.60450 0.91630 0.79940 0.11500
C 	C 	0.63390 0.87640 0.77980 0.14300
H 	H 	0.64570 0.87090 0.80090 -0.00800
O 	O 	0.17210 0.68450 0.77760 -0.46500
C 	C 	0.07240 0.52880 0.75320 0.15300
C 	C 	0.10870 0.51860 0.75570 -0.08900
H 	H 	0.12840 0.53350 0.75710 0.06500
C 	C 	0.10880 0.59720 0.72090 -0.23500
H 	H 	0.10450 0.58370 0.70060 0.11600
C 	C 	0.13390 0.62360 0.72020 0.14400
H 	H 	0.14570 0.62910 0.69910 -0.00700
O 	O 	0.67210 0.18450 0.27760 -0.46500
C 	C 	0.57240 0.02880 0.25320 0.15300
C 	C 	0.60870 0.01860 0.25570 -0.08600
H 	H 	0.62840 0.03350 0.25710 0.06500
C 	C 	0.60880 0.09720 0.22090 -0.23500
H 	H 	0.60450 0.08370 0.20060 0.11600
C 	C 	0.63390 0.12360 0.22020 0.14400
H 	H 	0.64570 0.12910 0.19910 -0.00700
O 	O 	0.82790 0.68450 0.22240 -0.46500
C 	C 	0.92760 0.52880 0.24680 0.15300
C 	C 	0.89130 0.51860 0.24430 -0.08900
H 	H 	0.87160 0.53350 0.24290 0.06500
C 	C 	0.89120 0.59720 0.27910 -0.23500
H 	H 	0.89550 0.58370 0.29940 0.11500
C 	C 	0.86610 0.62360 0.27980 0.14300
H 	H 	0.85430 0.62910 0.30090 -0.00800
O 	O 	0.32790 0.18450 0.72240 -0.46500
C 	C 	0.42760 0.02880 0.74680 0.15300
C 	C 	0.39130 0.01860 0.74430 -0.08600
H 	H 	0.37160 0.03350 0.74290 0.06500
C 	C 	0.39120 0.09720 0.77910 -0.23500
H 	H 	0.39550 0.08370 0.79940 0.11600
C 	C 	0.36610 0.12360 0.77980 0.14400
H 	H 	0.35430 0.12910 0.80090 -0.00800
O 	O 	0.82790 0.31550 0.77760 -0.46500
C 	C 	0.92760 0.47120 0.75320 0.15300
C 	C 	0.89130 0.48140 0.75570 -0.08900
H 	H 	0.87160 0.46650 0.75710 0.06500
C 	C 	0.89120 0.40280 0.72090 -0.23500
H 	H 	0.89550 0.41630 0.70060 0.11500
C 	C 	0.86610 0.37640 0.72020 0.14300
H 	H 	0.85430 0.37090 0.69910 -0.00800
O 	O 	0.32790 0.81550 0.27760 -0.46500
C 	C 	0.42760 0.97120 0.25320 0.15200
C 	C 	0.39130 0.98140 0.25570 -0.09200
H 	H 	0.37160 0.96650 0.25710 0.06600
C 	C 	0.39120 0.90280 0.22090 -0.23500
H 	H 	0.39550 0.91630 0.20060 0.11500
C 	C 	0.36610 0.87640 0.22020 0.14300
H 	H 	0.35430 0.87090 0.19910 -0.00800
O 	O 	0.22240 0.17210 0.31550 -0.46500
C 	C 	0.24680 0.07240 0.47120 0.15300
C 	C 	0.24430 0.10870 0.48140 -0.08900
H 	H 	0.24290 0.12840 0.46650 0.06500
C 	C 	0.27910 0.10880 0.40280 -0.23500
H 	H 	0.29940 0.10450 0.41630 0.11600
C 	C 	0.27980 0.13390 0.37640 0.14400
H 	H 	0.30090 0.14570 0.37090 -0.00700
O 	O 	0.72240 0.67210 0.81550 -0.46500
C 	C 	0.74680 0.57240 0.97120 0.15200
C 	C 	0.74430 0.60870 0.98140 -0.09200
H 	H 	0.74290 0.62840 0.96650 0.06600
C 	C 	0.77910 0.60880 0.90280 -0.23500
H 	H 	0.79940 0.60450 0.91630 0.11500
C 	C 	0.77980 0.63390 0.87640 0.14300
H 	H 	0.80090 0.64570 0.87090 -0.00800
O 	O 	0.77760 0.17210 0.68450 -0.46500
C 	C 	0.75320 0.07240 0.52880 0.15300
C 	C 	0.75570 0.10870 0.51860 -0.08900
H 	H 	0.75710 0.12840 0.53350 0.06500
C 	C 	0.72090 0.10880 0.59720 -0.23500
H 	H 	0.70060 0.10450 0.58370 0.11600
C 	C 	0.72020 0.13390 0.62360 0.14400
H 	H 	0.69910 0.14570 0.62910 -0.00700
O 	O 	0.27760 0.67210 0.18450 -0.46500
C 	C 	0.25320 0.57240 0.02880 0.15300
C 	C 	0.25570 0.60870 0.01860 -0.08600
H 	H 	0.25710 0.62840 0.03350 0.06500
C 	C 	0.22090 0.60880 0.09720 -0.23500
H 	H 	0.20060 0.60450 0.08370 0.11600
C 	C 	0.22020 0.63390 0.12360 0.14400
H 	H 	0.19910 0.64570 0.12910 -0.00700
O 	O 	0.22240 0.82790 0.68450 -0.46500
C 	C 	0.24680 0.92760 0.52880 0.15300
C 	C 	0.24430 0.89130 0.51860 -0.08900
H 	H 	0.24290 0.87160 0.53350 0.06500
C 	C 	0.27910 0.89120 0.59720 -0.23500
H 	H 	0.29940 0.89550 0.58370 0.11500
C 	C 	0.27980 0.86610 0.62360 0.14300
H 	H 	0.30090 0.85430 0.62910 -0.00800
O 	O 	0.72240 0.32790 0.18450 -0.46500
C 	C 	0.74680 0.42760 0.02880 0.15300
C 	C 	0.74430 0.39130 0.01860 -0.08600
H 	H 	0.74290 0.37160 0.03350 0.06500
C 	C 	0.77910 0.39120 0.09720 -0.23500
H 	H 	0.79940 0.39550 0.08370 0.11600
C 	C 	0.77980 0.36610 0.12360 0.14400
H 	H 	0.80090 0.35430 0.12910 -0.00800
O 	O 	0.77760 0.82790 0.31550 -0.46500
C 	C 	0.75320 0.92760 0.47120 0.15300
C 	C 	0.75570 0.89130 0.48140 -0.08900
H 	H 	0.75710 0.87160 0.46650 0.06500
C 	C 	0.72090 0.89120 0.40280 -0.23500
H 	H 	0.70060 0.89550 0.41630 0.11500
C 	C 	0.72020 0.86610 0.37640 0.14300
H 	H 	0.69910 0.85430 0.37090 -0.00800
O 	O 	0.27760 0.32790 0.81550 -0.46500
C 	C 	0.25320 0.42760 0.97120 0.15200
C 	C 	0.25570 0.39130 0.98140 -0.09200
H 	H 	0.25710 0.37160 0.96650 0.06600
C 	C 	0.22090 0.39120 0.90280 -0.23500
H 	H 	0.20060 0.39550 0.91630 0.11500
C 	C 	0.22020 0.36610 0.87640 0.14300
H 	H 	0.19910 0.35430 0.87090 -0.00800
O 	O 	0.22240 0.31550 0.82790 -0.46500
C 	C 	0.24680 0.47120 0.92760 0.15300
C 	C 	0.24430 0.48140 0.89130 -0.08900
H 	H 	0.24290 0.46650 0.87160 0.06500
C 	C 	0.27910 0.40280 0.89120 -0.23500
H 	H 	0.29940 0.41630 0.89550 0.11500
C 	C 	0.27980 0.37640 0.86610 0.14300
H 	H 	0.30090 0.37090 0.85430 -0.00800
O 	O 	0.72240 0.81550 0.32790 -0.46500
C 	C 	0.74680 0.97120 0.42760 0.15200
C 	C 	0.74430 0.98140 0.39130 -0.09200
H 	H 	0.74290 0.96650 0.37160 0.06600
C 	C 	0.77910 0.90280 0.39120 -0.23500
H 	H 	0.79940 0.91630 0.39550 0.11500
C 	C 	0.77980 0.87640 0.36610 0.14300
H 	H 	0.80090 0.87090 0.35430 -0.00800
O 	O 	0.77760 0.68450 0.82790 -0.46500
C 	C 	0.75320 0.52880 0.92760 0.15300
C 	C 	0.75570 0.51860 0.89130 -0.08900
H 	H 	0.75710 0.53350 0.87160 0.06500
C 	C 	0.72090 0.59720 0.89120 -0.23500
H 	H 	0.70060 0.58370 0.89550 0.11500
C 	C 	0.72020 0.62360 0.86610 0.14300
H 	H 	0.69910 0.62910 0.85430 -0.00800
O 	O 	0.27760 0.18450 0.32790 -0.46500
C 	C 	0.25320 0.02880 0.42760 0.15300
C 	C 	0.25570 0.01860 0.39130 -0.08600
H 	H 	0.25710 0.03350 0.37160 0.06500
C 	C 	0.22090 0.09720 0.39120 -0.23500
H 	H 	0.20060 0.08370 0.39550 0.11600
C 	C 	0.22020 0.12360 0.36610 0.14400
H 	H 	0.19910 0.12910 0.35430 -0.00700
O 	O 	0.22240 0.68450 0.17210 -0.46500
C 	C 	0.24680 0.52880 0.07240 0.15300
C 	C 	0.24430 0.51860 0.10870 -0.08900
H 	H 	0.24290 0.53350 0.12840 0.06500
C 	C 	0.27910 0.59720 0.10880 -0.23500
H 	H 	0.29940 0.58370 0.10450 0.11600
C 	C 	0.27980 0.62360 0.13390 0.14400
H 	H 	0.30090 0.62910 0.14570 -0.00700
O 	O 	0.72240 0.18450 0.67210 -0.46500
C 	C 	0.74680 0.02880 0.57240 0.15300
C 	C 	0.74430 0.01860 0.60870 -0.08600
H 	H 	0.74290 0.03350 0.62840 0.06500
C 	C 	0.77910 0.09720 0.60880 -0.23500
H 	H 	0.79940 0.08370 0.60450 0.11600
C 	C 	0.77980 0.12360 0.63390 0.14400
H 	H 	0.80090 0.12910 0.64570 -0.00800
O 	O 	0.77760 0.31550 0.17210 -0.46500
C 	C 	0.75320 0.47120 0.07240 0.15300
C 	C 	0.75570 0.48140 0.10870 -0.08900
H 	H 	0.75710 0.46650 0.12840 0.06500
C 	C 	0.72090 0.40280 0.10880 -0.23500
H 	H 	0.70060 0.41630 0.10450 0.11600
C 	C 	0.72020 0.37640 0.13390 0.14400
H 	H 	0.69910 0.37090 0.14570 -0.00700
O 	O 	0.27760 0.81550 0.67210 -0.46500
C 	C 	0.25320 0.97120 0.57240 0.15200
C 	C 	0.25570 0.98140 0.60870 -0.09200
H 	H 	0.25710 0.96650 0.62840 0.06600
C 	C 	0.22090 0.90280 0.60880 -0.23500
H 	H 	0.20060 0.91630 0.60450 0.11500
C 	C 	0.22020 0.87640 0.63390 0.14300
H 	H 	0.19910 0.87090 0.64570 -0.00800
O 	O 	0.31550 0.17210 0.77760 -0.46500
C 	C 	0.47120 0.07240 0.75320 0.15300
C 	C 	0.48140 0.10870 0.75570 -0.08900
H 	H 	0.46650 0.12840 0.75710 0.06500
C 	C 	0.40280 0.10880 0.72090 -0.23500
H 	H 	0.41630 0.10450 0.70060 0.11600
C 	C 	0.37640 0.13390 0.72020 0.14400
H 	H 	0.37090 0.14570 0.69910 -0.00700
O 	O 	0.81550 0.67210 0.27760 -0.46500
C 	C 	0.97120 0.57240 0.25320 0.15200
C 	C 	0.98140 0.60870 0.25570 -0.09200
H 	H 	0.96650 0.62840 0.25710 0.06600
C 	C 	0.90280 0.60880 0.22090 -0.23500
H 	H 	0.91630 0.60450 0.20060 0.11500
C 	C 	0.87640 0.63390 0.22020 0.14300
H 	H 	0.87090 0.64570 0.19910 -0.00800
O 	O 	0.68450 0.17210 0.22240 -0.46500
C 	C 	0.52880 0.07240 0.24680 0.15300
C 	C 	0.51860 0.10870 0.24430 -0.08900
H 	H 	0.53350 0.12840 0.24290 0.06500
C 	C 	0.59720 0.10880 0.27910 -0.23500
H 	H 	0.58370 0.10450 0.29940 0.11600
C 	C 	0.62360 0.13390 0.27980 0.14400
H 	H 	0.62910 0.14570 0.30090 -0.00700
O 	O 	0.18450 0.67210 0.72240 -0.46500
C 	C 	0.02880 0.57240 0.74680 0.15300
C 	C 	0.01860 0.60870 0.74430 -0.08600
H 	H 	0.03350 0.62840 0.74290 0.06500
C 	C 	0.09720 0.60880 0.77910 -0.23500
H 	H 	0.08370 0.60450 0.79940 0.11600
C 	C 	0.12360 0.63390 0.77980 0.14400
H 	H 	0.12910 0.64570 0.80090 -0.00800
O 	O 	0.68450 0.82790 0.77760 -0.46500
C 	C 	0.52880 0.92760 0.75320 0.15300
C 	C 	0.51860 0.89130 0.75570 -0.08900
H 	H 	0.53350 0.87160 0.75710 0.06500
C 	C 	0.59720 0.89120 0.72090 -0.23500
H 	H 	0.58370 0.89550 0.70060 0.11500
C 	C 	0.62360 0.86610 0.72020 0.14300
H 	H 	0.62910 0.85430 0.69910 -0.00800
O 	O 	0.18450 0.32790 0.27760 -0.46500
C 	C 	0.02880 0.42760 0.25320 0.15300
C 	C 	0.01860 0.39130 0.25570 -0.08600
H 	H 	0.03350 0.37160 0.25710 0.06500
C 	C 	0.09720 0.39120 0.22090 -0.23500
H 	H 	0.08370 0.39550 0.20060 0.11600
C 	C 	0.12360 0.36610 0.22020 0.14400
H 	H 	0.12910 0.35430 0.19910 -0.00700
O 	O 	0.31550 0.82790 0.22240 -0.46500
C 	C 	0.47120 0.92760 0.24680 0.15300
C 	C 	0.48140 0.89130 0.24430 -0.08900
H 	H 	0.46650 0.87160 0.24290 0.06500
C 	C 	0.40280 0.89120 0.27910 -0.23500
H 	H 	0.41630 0.89550 0.29940 0.11500
C 	C 	0.37640 0.86610 0.27980 0.14300
H 	H 	0.37090 0.85430 0.30090 -0.00800
O 	O 	0.81550 0.32790 0.72240 -0.46500
C 	C 	0.97120 0.42760 0.74680 0.15200
C 	C 	0.98140 0.39130 0.74430 -0.09200
H 	H 	0.96650 0.37160 0.74290 0.06600
C 	C 	0.90280 0.39120 0.77910 -0.23500
H 	H 	0.91630 0.39550 0.79940 0.11500
C 	C 	0.87640 0.36610 0.77980 0.14300
H 	H 	0.87090 0.35430 0.80090 -0.00800
O 	O 	0.17210 0.22240 0.68450 -0.46500
C 	C 	0.07240 0.24680 0.52880 0.15300
C 	C 	0.10870 0.24430 0.51860 -0.08900
H 	H 	0.12840 0.24290 0.53350 0.06500
C 	C 	0.10880 0.27910 0.59720 -0.23500
H 	H 	0.10450 0.29940 0.58370 0.11600
C 	C 	0.13390 0.27980 0.62360 0.14400
H 	H 	0.14570 0.30090 0.62910 -0.00700
O 	O 	0.67210 0.72240 0.18450 -0.46500
C 	C 	0.57240 0.74680 0.02880 0.15300
C 	C 	0.60870 0.74430 0.01860 -0.08600
H 	H 	0.62840 0.74290 0.03350 0.06500
C 	C 	0.60880 0.77910 0.09720 -0.23500
H 	H 	0.60450 0.79940 0.08370 0.11600
C 	C 	0.63390 0.77980 0.12360 0.14400
H 	H 	0.64570 0.80090 0.12910 -0.00800
O 	O 	0.17210 0.77760 0.31550 -0.46500
C 	C 	0.07240 0.75320 0.47120 0.15300
C 	C 	0.10870 0.75570 0.48140 -0.08900
H 	H 	0.12840 0.75710 0.46650 0.06500
C 	C 	0.10880 0.72090 0.40280 -0.23500
H 	H 	0.10450 0.70060 0.41630 0.11600
C 	C 	0.13390 0.72020 0.37640 0.14400
H 	H 	0.14570 0.69910 0.37090 -0.00700
O 	O 	0.67210 0.27760 0.81550 -0.46500
C 	C 	0.57240 0.25320 0.97120 0.15200
C 	C 	0.60870 0.25570 0.98140 -0.09200
H 	H 	0.62840 0.25710 0.96650 0.06600
C 	C 	0.60880 0.22090 0.90280 -0.23500
H 	H 	0.60450 0.20060 0.91630 0.11500
C 	C 	0.63390 0.22020 0.87640 0.14300
H 	H 	0.64570 0.19910 0.87090 -0.00800
O 	O 	0.82790 0.22240 0.31550 -0.46500
C 	C 	0.92760 0.24680 0.47120 0.15300
C 	C 	0.89130 0.24430 0.48140 -0.08900
H 	H 	0.87160 0.24290 0.46650 0.06500
C 	C 	0.89120 0.27910 0.40280 -0.23500
H 	H 	0.89550 0.29940 0.41630 0.11500
C 	C 	0.86610 0.27980 0.37640 0.14300
H 	H 	0.85430 0.30090 0.37090 -0.00800
O 	O 	0.32790 0.72240 0.81550 -0.46500
C 	C 	0.42760 0.74680 0.97120 0.15200
C 	C 	0.39130 0.74430 0.98140 -0.09200
H 	H 	0.37160 0.74290 0.96650 0.06600
C 	C 	0.39120 0.77910 0.90280 -0.23500
H 	H 	0.39550 0.79940 0.91630 0.11500
C 	C 	0.36610 0.77980 0.87640 0.14300
H 	H 	0.35430 0.80090 0.87090 -0.00800
O 	O 	0.82790 0.77760 0.68450 -0.46500
C 	C 	0.92760 0.75320 0.52880 0.15300
C 	C 	0.89130 0.75570 0.51860 -0.08900
H 	H 	0.87160 0.75710 0.53350 0.06500
C 	C 	0.89120 0.72090 0.59720 -0.23500
H 	H 	0.89550 0.70060 0.58370 0.11500
C 	C 	0.86610 0.72020 0.62360 0.14300
H 	H 	0.85430 0.69910 0.62910 -0.00800
O 	O 	0.32790 0.27760 0.18450 -0.46500
C 	C 	0.42760 0.25320 0.02880 0.15300
C 	C 	0.39130 0.25570 0.01860 -0.08600
H 	H 	0.37160 0.25710 0.03350 0.06500
C 	C 	0.39120 0.22090 0.09720 -0.23500
H 	H 	0.39550 0.20060 0.08370 0.11600
C 	C 	0.36610 0.22020 0.12360 0.14400
H 	H 	0.35430 0.19910 0.12910 -0.00700
O 	O 	0.68450 0.77760 0.82790 -0.46500
C 	C 	0.52880 0.75320 0.92760 0.15300
C 	C 	0.51860 0.75570 0.89130 -0.08900
H 	H 	0.53350 0.75710 0.87160 0.06500
C 	C 	0.59720 0.72090 0.89120 -0.23500
H 	H 	0.58370 0.70060 0.89550 0.11500
C 	C 	0.62360 0.72020 0.86610 0.14300
H 	H 	0.62910 0.69910 0.85430 -0.00800
O 	O 	0.18450 0.27760 0.32790 -0.46500
C 	C 	0.02880 0.25320 0.42760 0.15300
C 	C 	0.01860 0.25570 0.39130 -0.08600
H 	H 	0.03350 0.25710 0.37160 0.06500
C 	C 	0.09720 0.22090 0.39120 -0.23500
H 	H 	0.08370 0.20060 0.39550 0.11600
C 	C 	0.12360 0.22020 0.36610 0.14400
H 	H 	0.12910 0.19910 0.35430 -0.00700
O 	O 	0.31550 0.22240 0.82790 -0.46500
C 	C 	0.47120 0.24680 0.92760 0.15300
C 	C 	0.48140 0.24430 0.89130 -0.08900
H 	H 	0.46650 0.24290 0.87160 0.06500
C 	C 	0.40280 0.27910 0.89120 -0.23500
H 	H 	0.41630 0.29940 0.89550 0.11500
C 	C 	0.37640 0.27980 0.86610 0.14300
H 	H 	0.37090 0.30090 0.85430 -0.00800
O 	O 	0.81550 0.72240 0.32790 -0.46500
C 	C 	0.97120 0.74680 0.42760 0.15200
C 	C 	0.98140 0.74430 0.39130 -0.09200
H 	H 	0.96650 0.74290 0.37160 0.06600
C 	C 	0.90280 0.77910 0.39120 -0.23500
H 	H 	0.91630 0.79940 0.39550 0.11500
C 	C 	0.87640 0.77980 0.36610 0.14300
H 	H 	0.87090 0.80090 0.35430 -0.00800
O 	O 	0.31550 0.77760 0.17210 -0.46500
C 	C 	0.47120 0.75320 0.07240 0.15300
C 	C 	0.48140 0.75570 0.10870 -0.08900
H 	H 	0.46650 0.75710 0.12840 0.06500
C 	C 	0.40280 0.72090 0.10880 -0.23500
H 	H 	0.41630 0.70060 0.10450 0.11600
C 	C 	0.37640 0.72020 0.13390 0.14400
H 	H 	0.37090 0.69910 0.14570 -0.00700
O 	O 	0.81550 0.27760 0.67210 -0.46500
C 	C 	0.97120 0.25320 0.57240 0.15200
C 	C 	0.98140 0.25570 0.60870 -0.09200
H 	H 	0.96650 0.25710 0.62840 0.06600
C 	C 	0.90280 0.22090 0.60880 -0.23500
H 	H 	0.91630 0.20060 0.60450 0.11500
C 	C 	0.87640 0.22020 0.63390 0.14300
H 	H 	0.87090 0.19910 0.64570 -0.00800
O 	O 	0.68450 0.22240 0.17210 -0.46500
C 	C 	0.52880 0.24680 0.07240 0.15300
C 	C 	0.51860 0.24430 0.10870 -0.08900
H 	H 	0.53350 0.24290 0.12840 0.06500
C 	C 	0.59720 0.27910 0.10880 -0.23500
H 	H 	0.58370 0.29940 0.10450 0.11600
C 	C 	0.62360 0.27980 0.13390 0.14400
H 	H 	0.62910 0.30090 0.14570 -0.00700
O 	O 	0.18450 0.72240 0.67210 -0.46500
C 	C 	0.02880 0.74680 0.57240 0.15300
C 	C 	0.01860 0.74430 0.60870 -0.08600
H 	H 	0.03350 0.74290 0.62840 0.06500
C 	C 	0.09720 0.77910 0.60880 -0.23500
H 	H 	0.08370 0.79940 0.60450 0.11600
C 	C 	0.12360 0.77980 0.63390 0.14400
H 	H 	0.12910 0.80090 0.64570 -0.00800
O 	O 	0.82790 0.68450 0.77760 -0.46500
C 	C 	0.92760 0.52880 0.75320 0.15300
C 	C 	0.89130 0.51860 0.75570 -0.08900
H 	H 	0.87160 0.53350 0.75710 0.06500
C 	C 	0.89120 0.59720 0.72090 -0.23500
H 	H 	0.89550 0.58370 0.70060 0.11500
C 	C 	0.86610 0.62360 0.72020 0.14300
H 	H 	0.85430 0.62910 0.69910 -0.00800
O 	O 	0.32790 0.18450 0.27760 -0.46500
C 	C 	0.42760 0.02880 0.25320 0.15300
C 	C 	0.39130 0.01860 0.25570 -0.08600
H 	H 	0.37160 0.03350 0.25710 0.06500
C 	C 	0.39120 0.09720 0.22090 -0.23500
H 	H 	0.39550 0.08370 0.20060 0.11600
C 	C 	0.36610 0.12360 0.22020 0.14400
H 	H 	0.35430 0.12910 0.19910 -0.00700
O 	O 	0.82790 0.31550 0.22240 -0.46500
C 	C 	0.92760 0.47120 0.24680 0.15300
C 	C 	0.89130 0.48140 0.24430 -0.08900
H 	H 	0.87160 0.46650 0.24290 0.06500
C 	C 	0.89120 0.40280 0.27910 -0.23500
H 	H 	0.89550 0.41630 0.29940 0.11500
C 	C 	0.86610 0.37640 0.27980 0.14300
H 	H 	0.85430 0.37090 0.30090 -0.00800
O 	O 	0.32790 0.81550 0.72240 -0.46500
C 	C 	0.42760 0.97120 0.74680 0.15200
C 	C 	0.39130 0.98140 0.74430 -0.09200
H 	H 	0.37160 0.96650 0.74290 0.06600
C 	C 	0.39120 0.90280 0.77910 -0.23500
H 	H 	0.39550 0.91630 0.79940 0.11500
C 	C 	0.36610 0.87640 0.77980 0.14300
H 	H 	0.35430 0.87090 0.80090 -0.00800
O 	O 	0.17210 0.31550 0.77760 -0.46500
C 	C 	0.07240 0.47120 0.75320 0.15300
C 	C 	0.10870 0.48140 0.75570 -0.08900
H 	H 	0.12840 0.46650 0.75710 0.06500
C 	C 	0.10880 0.40280 0.72090 -0.23500
H 	H 	0.10450 0.41630 0.70060 0.11600
C 	C 	0.13390 0.37640 0.72020 0.14400
H 	H 	0.14570 0.37090 0.69910 -0.00700
O 	O 	0.67210 0.81550 0.27760 -0.46500
C 	C 	0.57240 0.97120 0.25320 0.15200
C 	C 	0.60870 0.98140 0.25570 -0.09200
H 	H 	0.62840 0.96650 0.25710 0.06600
C 	C 	0.60880 0.90280 0.22090 -0.23500
H 	H 	0.60450 0.91630 0.20060 0.11500
C 	C 	0.63390 0.87640 0.22020 0.14300
H 	H 	0.64570 0.87090 0.19910 -0.00800
O 	O 	0.17210 0.68450 0.22240 -0.46500
C 	C 	0.07240 0.52880 0.24680 0.15300
C 	C 	0.10870 0.51860 0.24430 -0.08900
H 	H 	0.12840 0.53350 0.24290 0.06500
C 	C 	0.10880 0.59720 0.27910 -0.23500
H 	H 	0.10450 0.58370 0.29940 0.11600
C 	C 	0.13390 0.62360 0.27980 0.14400
H 	H 	0.14570 0.62910 0.30090 -0.00700
O 	O 	0.67210 0.18450 0.72240 -0.46500
C 	C 	0.57240 0.02880 0.74680 0.15300
C 	C 	0.60870 0.01860 0.74430 -0.08600
H 	H 	0.62840 0.03350 0.74290 0.06500
C 	C 	0.60880 0.09720 0.77910 -0.23500
H 	H 	0.60450 0.08370 0.79940 0.11600
C 	C 	0.63390 0.12360 0.77980 0.14400
H 	H 	0.64570 0.12910 0.80090 -0.00800
O 	O 	0.77760 0.82790 0.68450 -0.46500
C 	C 	0.75320 0.92760 0.52880 0.15300
C 	C 	0.75570 0.89130 0.51860 -0.08900
H 	H 	0.75710 0.87160 0.53350 0.06500
C 	C 	0.72090 0.89120 0.59720 -0.23500
H 	H 	0.70060 0.89550 0.58370 0.11500
C 	C 	0.72020 0.86610 0.62360 0.14300
H 	H 	0.69910 0.85430 0.62910 -0.00800
O 	O 	0.27760 0.32790 0.18450 -0.46500
C 	C 	0.25320 0.42760 0.02880 0.15300
C 	C 	0.25570 0.39130 0.01860 -0.08600
H 	H 	0.25710 0.37160 0.03350 0.06500
C 	C 	0.22090 0.39120 0.09720 -0.23500
H 	H 	0.20060 0.39550 0.08370 0.11600
C 	C 	0.22020 0.36610 0.12360 0.14400
H 	H 	0.19910 0.35430 0.12910 -0.00700
O 	O 	0.22240 0.82790 0.31550 -0.46500
C 	C 	0.24680 0.92760 0.47120 0.15300
C 	C 	0.24430 0.89130 0.48140 -0.08900
H 	H 	0.24290 0.87160 0.46650 0.06500
C 	C 	0.27910 0.89120 0.40280 -0.23500
H 	H 	0.29940 0.89550 0.41630 0.11500
C 	C 	0.27980 0.86610 0.37640 0.14300
H 	H 	0.30090 0.85430 0.37090 -0.00800
O 	O 	0.72240 0.32790 0.81550 -0.46500
C 	C 	0.74680 0.42760 0.97120 0.15200
C 	C 	0.74430 0.39130 0.98140 -0.09200
H 	H 	0.74290 0.37160 0.96650 0.06600
C 	C 	0.77910 0.39120 0.90280 -0.23500
H 	H 	0.79940 0.39550 0.91630 0.11500
C 	C 	0.77980 0.36610 0.87640 0.14300
H 	H 	0.80090 0.35430 0.87090 -0.00800
O 	O 	0.77760 0.17210 0.31550 -0.46500
C 	C 	0.75320 0.07240 0.47120 0.15300
C 	C 	0.75570 0.10870 0.48140 -0.08900
H 	H 	0.75710 0.12840 0.46650 0.06500
C 	C 	0.72090 0.10880 0.40280 -0.23500
H 	H 	0.70060 0.10450 0.41630 0.11600
C 	C 	0.72020 0.13390 0.37640 0.14400
H 	H 	0.69910 0.14570 0.37090 -0.00700
O 	O 	0.27760 0.67210 0.81550 -0.46500
C 	C 	0.25320 0.57240 0.97120 0.15200
C 	C 	0.25570 0.60870 0.98140 -0.09200
H 	H 	0.25710 0.62840 0.96650 0.06600
C 	C 	0.22090 0.60880 0.90280 -0.23500
H 	H 	0.20060 0.60450 0.91630 0.11500
C 	C 	0.22020 0.63390 0.87640 0.14300
H 	H 	0.19910 0.64570 0.87090 -0.00800
O 	O 	0.22240 0.17210 0.68450 -0.46500
C 	C 	0.24680 0.07240 0.52880 0.15300
C 	C 	0.24430 0.10870 0.51860 -0.08900
H 	H 	0.24290 0.12840 0.53350 0.06500
C 	C 	0.27910 0.10880 0.59720 -0.23500
H 	H 	0.29940 0.10450 0.58370 0.11600
C 	C 	0.27980 0.13390 0.62360 0.14400
H 	H 	0.30090 0.14570 0.62910 -0.00700
O 	O 	0.72240 0.67210 0.18450 -0.46500
C 	C 	0.74680 0.57240 0.02880 0.15300
C 	C 	0.74430 0.60870 0.01860 -0.08600
H 	H 	0.74290 0.62840 0.03350 0.06500
C 	C 	0.77910 0.60880 0.09720 -0.23500
H 	H 	0.79940 0.60450 0.08370 0.11600
C 	C 	0.77980 0.63390 0.12360 0.14400
H 	H 	0.80090 0.64570 0.12910 -0.00800
O 	O 	0.77760 0.68450 0.17210 -0.46500
C 	C 	0.75320 0.52880 0.07240 0.15300
C 	C 	0.75570 0.51860 0.10870 -0.08900
H 	H 	0.75710 0.53350 0.12840 0.06500
C 	C 	0.72090 0.59720 0.10880 -0.23500
H 	H 	0.70060 0.58370 0.10450 0.11600
C 	C 	0.72020 0.62360 0.13390 0.14400
H 	H 	0.69910 0.62910 0.14570 -0.00700
O 	O 	0.27760 0.18450 0.67210 -0.46500
C 	C 	0.25320 0.02880 0.57240 0.15300
C 	C 	0.25570 0.01860 0.60870 -0.08600
H 	H 	0.25710 0.03350 0.62840 0.06500
C 	C 	0.22090 0.09720 0.60880 -0.23500
H 	H 	0.20060 0.08370 0.60450 0.11600
C 	C 	0.22020 0.12360 0.63390 0.14400
H 	H 	0.19910 0.12910 0.64570 -0.00700
O 	O 	0.22240 0.31550 0.17210 -0.46500
C 	C 	0.24680 0.47120 0.07240 0.15300
C 	C 	0.24430 0.48140 0.10870 -0.08900
H 	H 	0.24290 0.46650 0.12840 0.06500
C 	C 	0.27910 0.40280 0.10880 -0.23500
H 	H 	0.29940 0.41630 0.10450 0.11600
C 	C 	0.27980 0.37640 0.13390 0.14400
H 	H 	0.30090 0.37090 0.14570 -0.00700
O 	O 	0.72240 0.81550 0.67210 -0.46500
C 	C 	0.74680 0.97120 0.57240 0.15200
C 	C 	0.74430 0.98140 0.60870 -0.09200
H 	H 	0.74290 0.96650 0.62840 0.06600
C 	C 	0.77910 0.90280 0.60880 -0.23500
H 	H 	0.79940 0.91630 0.60450 0.11500
C 	C 	0.77980 0.87640 0.63390 0.14300
H 	H 	0.80090 0.87090 0.64570 -0.00800
O 	O 	0.77760 0.31550 0.82790 -0.46500
C 	C 	0.75320 0.47120 0.92760 0.15300
C 	C 	0.75570 0.48140 0.89130 -0.08900
H 	H 	0.75710 0.46650 0.87160 0.06500
C 	C 	0.72090 0.40280 0.89120 -0.23500
H 	H 	0.70060 0.41630 0.89550 0.11500
C 	C 	0.72020 0.37640 0.86610 0.14300
H 	H 	0.69910 0.37090 0.85430 -0.00800
O 	O 	0.27760 0.81550 0.32790 -0.46500
C 	C 	0.25320 0.97120 0.42760 0.15200
C 	C 	0.25570 0.98140 0.39130 -0.09200
H 	H 	0.25710 0.96650 0.37160 0.06600
C 	C 	0.22090 0.90280 0.39120 -0.23500
H 	H 	0.20060 0.91630 0.39550 0.11500
C 	C 	0.22020 0.87640 0.36610 0.14300
H 	H 	0.19910 0.87090 0.35430 -0.00800
O 	O 	0.22240 0.68450 0.82790 -0.46500
C 	C 	0.24680 0.52880 0.92760 0.15300
C 	C 	0.24430 0.51860 0.89130 -0.08900
H 	H 	0.24290 0.53350 0.87160 0.06500
C 	C 	0.27910 0.59720 0.89120 -0.23500
H 	H 	0.29940 0.58370 0.89550 0.11500
C 	C 	0.27980 0.62360 0.86610 0.14300
H 	H 	0.30090 0.62910 0.85430 -0.00800
O 	O 	0.72240 0.18450 0.32790 -0.46500
C 	C 	0.74680 0.02880 0.42760 0.15300
C 	C 	0.74430 0.01860 0.39130 -0.08600
H 	H 	0.74290 0.03350 0.37160 0.06500
C 	C 	0.77910 0.09720 0.39120 -0.23500
H 	H 	0.79940 0.08370 0.39550 0.11600
C 	C 	0.77980 0.12360 0.36610 0.14400
H 	H 	0.80090 0.12910 0.35430 -0.00800
O 	O 	0.68450 0.82790 0.22240 -0.46500
C 	C 	0.52880 0.92760 0.24680 0.15300
C 	C 	0.51860 0.89130 0.24430 -0.08900
H 	H 	0.53350 0.87160 0.24290 0.06500
C 	C 	0.59720 0.89120 0.27910 -0.23500
H 	H 	0.58370 0.89550 0.29940 0.11500
C 	C 	0.62360 0.86610 0.27980 0.14300
H 	H 	0.62910 0.85430 0.30090 -0.00800
O 	O 	0.18450 0.32790 0.72240 -0.46500
C 	C 	0.02880 0.42760 0.74680 0.15300
C 	C 	0.01860 0.39130 0.74430 -0.08600
H 	H 	0.03350 0.37160 0.74290 0.06500
C 	C 	0.09720 0.39120 0.77910 -0.23500
H 	H 	0.08370 0.39550 0.79940 0.11600
C 	C 	0.12360 0.36610 0.77980 0.14400
H 	H 	0.12910 0.35430 0.80090 -0.00800
O 	O 	0.31550 0.82790 0.77760 -0.46500
C 	C 	0.47120 0.92760 0.75320 0.15300
C 	C 	0.48140 0.89130 0.75570 -0.08900
H 	H 	0.46650 0.87160 0.75710 0.06500
C 	C 	0.40280 0.89120 0.72090 -0.23500
H 	H 	0.41630 0.89550 0.70060 0.11500
C 	C 	0.37640 0.86610 0.72020 0.14300
H 	H 	0.37090 0.85430 0.69910 -0.00800
O 	O 	0.81550 0.32790 0.27760 -0.46500
C 	C 	0.97120 0.42760 0.25320 0.15200
C 	C 	0.98140 0.39130 0.25570 -0.09200
H 	H 	0.96650 0.37160 0.25710 0.06600
C 	C 	0.90280 0.39120 0.22090 -0.23500
H 	H 	0.91630 0.39550 0.20060 0.11500
C 	C 	0.87640 0.36610 0.22020 0.14300
H 	H 	0.87090 0.35430 0.19910 -0.00800
O 	O 	0.31550 0.17210 0.22240 -0.46500
C 	C 	0.47120 0.07240 0.24680 0.15300
C 	C 	0.48140 0.10870 0.24430 -0.08900
H 	H 	0.46650 0.12840 0.24290 0.06500
C 	C 	0.40280 0.10880 0.27910 -0.23500
H 	H 	0.41630 0.10450 0.29940 0.11600
C 	C 	0.37640 0.13390 0.27980 0.14400
H 	H 	0.37090 0.14570 0.30090 -0.00700
O 	O 	0.81550 0.67210 0.72240 -0.46500
C 	C 	0.97120 0.57240 0.74680 0.15200
C 	C 	0.98140 0.60870 0.74430 -0.09200
H 	H 	0.96650 0.62840 0.74290 0.06600
C 	C 	0.90280 0.60880 0.77910 -0.23500
H 	H 	0.91630 0.60450 0.79940 0.11500
C 	C 	0.87640 0.63390 0.77980 0.14300
H 	H 	0.87090 0.64570 0.80090 -0.00800
O 	O 	0.68450 0.17210 0.77760 -0.46500
C 	C 	0.52880 0.07240 0.75320 0.15300
C 	C 	0.51860 0.10870 0.75570 -0.08900
H 	H 	0.53350 0.12840 0.75710 0.06500
C 	C 	0.59720 0.10880 0.72090 -0.23500
H 	H 	0.58370 0.10450 0.70060 0.11600
C 	C 	0.62360 0.13390 0.72020 0.14400
H 	H 	0.62910 0.14570 0.69910 -0.00700
O 	O 	0.18450 0.67210 0.27760 -0.46500
C 	C 	0.02880 0.57240 0.25320 0.15300
C 	C 	0.01860 0.60870 0.25570 -0.08600
H 	H 	0.03350 0.62840 0.25710 0.06500
C 	C 	0.09720 0.60880 0.22090 -0.23500
H 	H 	0.08370 0.60450 0.20060 0.11600
C 	C 	0.12360 0.63390 0.22020 0.14400
H 	H 	0.12910 0.64570 0.19910 -0.00700
O 	O 	0.82790 0.77760 0.31550 -0.46500
C 	C 	0.92760 0.75320 0.47120 0.15300
C 	C 	0.89130 0.75570 0.48140 -0.08900
H 	H 	0.87160 0.75710 0.46650 0.06500
C 	C 	0.89120 0.72090 0.40280 -0.23500
H 	H 	0.89550 0.70060 0.41630 0.11500
C 	C 	0.86610 0.72020 0.37640 0.14300
H 	H 	0.85430 0.69910 0.37090 -0.00800
O 	O 	0.32790 0.27760 0.81550 -0.46500
C 	C 	0.42760 0.25320 0.97120 0.15200
C 	C 	0.39130 0.25570 0.98140 -0.09200
H 	H 	0.37160 0.25710 0.96650 0.06600
C 	C 	0.39120 0.22090 0.90280 -0.23500
H 	H 	0.39550 0.20060 0.91630 0.11500
C 	C 	0.36610 0.22020 0.87640 0.14300
H 	H 	0.35430 0.19910 0.87090 -0.00800
O 	O 	0.82790 0.22240 0.68450 -0.46500
C 	C 	0.92760 0.24680 0.52880 0.15300
C 	C 	0.89130 0.24430 0.51860 -0.08900
H 	H 	0.87160 0.24290 0.53350 0.06500
C 	C 	0.89120 0.27910 0.59720 -0.23500
H 	H 	0.89550 0.29940 0.58370 0.11500
C 	C 	0.86610 0.27980 0.62360 0.14300
H 	H 	0.85430 0.30090 0.62910 -0.00800
O 	O 	0.32790 0.72240 0.18450 -0.46500
C 	C 	0.42760 0.74680 0.02880 0.15300
C 	C 	0.39130 0.74430 0.01860 -0.08600
H 	H 	0.37160 0.74290 0.03350 0.06500
C 	C 	0.39120 0.77910 0.09720 -0.23500
H 	H 	0.39550 0.79940 0.08370 0.11600
C 	C 	0.36610 0.77980 0.12360 0.14400
H 	H 	0.35430 0.80090 0.12910 -0.00800
O 	O 	0.17210 0.77760 0.68450 -0.46500
C 	C 	0.07240 0.75320 0.52880 0.15300
C 	C 	0.10870 0.75570 0.51860 -0.08900
H 	H 	0.12840 0.75710 0.53350 0.06500
C 	C 	0.10880 0.72090 0.59720 -0.23500
H 	H 	0.10450 0.70060 0.58370 0.11600
C 	C 	0.13390 0.72020 0.62360 0.14400
H 	H 	0.14570 0.69910 0.62910 -0.00700
O 	O 	0.67210 0.27760 0.18450 -0.46500
C 	C 	0.57240 0.25320 0.02880 0.15300
C 	C 	0.60870 0.25570 0.01860 -0.08600
H 	H 	0.62840 0.25710 0.03350 0.06500
C 	C 	0.60880 0.22090 0.09720 -0.23500
H 	H 	0.60450 0.20060 0.08370 0.11600
C 	C 	0.63390 0.22020 0.12360 0.14400
H 	H 	0.64570 0.19910 0.12910 -0.00700
O 	O 	0.17210 0.22240 0.31550 -0.46500
C 	C 	0.07240 0.24680 0.47120 0.15300
C 	C 	0.10870 0.24430 0.48140 -0.08900
H 	H 	0.12840 0.24290 0.46650 0.06500
C 	C 	0.10880 0.27910 0.40280 -0.23500
H 	H 	0.10450 0.29940 0.41630 0.11600
C 	C 	0.13390 0.27980 0.37640 0.14400
H 	H 	0.14570 0.30090 0.37090 -0.00700
O 	O 	0.67210 0.72240 0.81550 -0.46500
C 	C 	0.57240 0.74680 0.97120 0.15200
C 	C 	0.60870 0.74430 0.98140 -0.09200
H 	H 	0.62840 0.74290 0.96650 0.06600
C 	C 	0.60880 0.77910 0.90280 -0.23500
H 	H 	0.60450 0.79940 0.91630 0.11500
C 	C 	0.63390 0.77980 0.87640 0.14300
H 	H 	0.64570 0.80090 0.87090 -0.00800
Hf	Hf	0.27144 0.20721 0.20721 1.34300
O 	O 	0.30560 0.24220 0.24220 -0.60400
Hf	Hf	0.77144 0.70721 0.70721 1.34300
O 	O 	0.80560 0.74220 0.74220 -0.60400
Hf	Hf	0.72856 0.79279 0.20721 1.34300
O 	O 	0.69440 0.75780 0.24220 -0.60400
Hf	Hf	0.22856 0.29279 0.70721 1.34300
O 	O 	0.19440 0.25780 0.74220 -0.60400
Hf	Hf	0.72856 0.20721 0.79279 1.34300
O 	O 	0.69440 0.24220 0.75780 -0.60400
Hf	Hf	0.22856 0.70721 0.29279 1.34300
O 	O 	0.19440 0.74220 0.25780 -0.60400
Hf	Hf	0.27144 0.79279 0.79279 1.34300
O 	O 	0.30560 0.75780 0.75780 -0.60400
Hf	Hf	0.77144 0.29279 0.29279 1.34300
O 	O 	0.80560 0.25780 0.25780 -0.60400
Hf	Hf	0.20721 0.27144 0.20721 1.34300
O 	O 	0.24220 0.30560 0.24220 -0.60400
Hf	Hf	0.70721 0.77144 0.70721 1.34300
O 	O 	0.74220 0.80560 0.74220 -0.60400
Hf	Hf	0.20721 0.72856 0.79279 1.34300
O 	O 	0.24220 0.69440 0.75780 -0.60400
Hf	Hf	0.70721 0.22856 0.29279 1.34300
O 	O 	0.74220 0.19440 0.25780 -0.60400
Hf	Hf	0.79279 0.72856 0.20721 1.34300
O 	O 	0.75780 0.69440 0.24220 -0.60400
Hf	Hf	0.29279 0.22856 0.70721 1.34300
O 	O 	0.25780 0.19440 0.74220 -0.60400
Hf	Hf	0.79279 0.27144 0.79279 1.34300
O 	O 	0.75780 0.30560 0.75780 -0.60400
Hf	Hf	0.29279 0.77144 0.29279 1.34300
O 	O 	0.25780 0.80560 0.25780 -0.60400
Hf	Hf	0.20721 0.20721 0.27144 1.34300
O 	O 	0.24220 0.24220 0.30560 -0.60400
Hf	Hf	0.70721 0.70721 0.77144 1.34300
O 	O 	0.74220 0.74220 0.80560 -0.60400
Hf	Hf	0.79279 0.20721 0.72856 1.34300
O 	O 	0.75780 0.24220 0.69440 -0.60400
Hf	Hf	0.29279 0.70721 0.22856 1.34300
O 	O 	0.25780 0.74220 0.19440 -0.60400
Hf	Hf	0.20721 0.79279 0.72856 1.34300
O 	O 	0.24220 0.75780 0.69440 -0.60400
Hf	Hf	0.70721 0.29279 0.22856 1.34300
O 	O 	0.74220 0.25780 0.19440 -0.60400
Hf	Hf	0.79279 0.79279 0.27144 1.34300
O 	O 	0.75780 0.75780 0.30560 -0.60400
Hf	Hf	0.29279 0.29279 0.77144 1.34300
O 	O 	0.25780 0.25780 0.80560 -0.60400
Hf	Hf	0.20721 0.27144 0.79279 1.34300
O 	O 	0.24220 0.30560 0.75780 -0.60400
Hf	Hf	0.70721 0.77144 0.29279 1.34300
O 	O 	0.74220 0.80560 0.25780 -0.60400
Hf	Hf	0.79279 0.72856 0.79279 1.34300
O 	O 	0.75780 0.69440 0.75780 -0.60400
Hf	Hf	0.29279 0.22856 0.29279 1.34300
O 	O 	0.25780 0.19440 0.25780 -0.60400
Hf	Hf	0.20721 0.72856 0.20721 1.34300
O 	O 	0.24220 0.69440 0.24220 -0.60400
Hf	Hf	0.70721 0.22856 0.70721 1.34300
O 	O 	0.74220 0.19440 0.74220 -0.60400
Hf	Hf	0.79279 0.27144 0.20721 1.34300
O 	O 	0.75780 0.30560 0.24220 -0.60400
Hf	Hf	0.29279 0.77144 0.70721 1.34300
O 	O 	0.25780 0.80560 0.74220 -0.60400
Hf	Hf	0.27144 0.20721 0.79279 1.34300
O 	O 	0.30560 0.24220 0.75780 -0.60400
Hf	Hf	0.77144 0.70721 0.29279 1.34300
O 	O 	0.80560 0.74220 0.25780 -0.60400
Hf	Hf	0.72856 0.20721 0.20721 1.34300
O 	O 	0.69440 0.24220 0.24220 -0.60400
Hf	Hf	0.22856 0.70721 0.70721 1.34300
O 	O 	0.19440 0.74220 0.74220 -0.60400
Hf	Hf	0.72856 0.79279 0.79279 1.34300
O 	O 	0.69440 0.75780 0.75780 -0.60400
Hf	Hf	0.22856 0.29279 0.29279 1.34300
O 	O 	0.19440 0.25780 0.25780 -0.60400
Hf	Hf	0.27144 0.79279 0.20721 1.34300
O 	O 	0.30560 0.75780 0.24220 -0.60400
Hf	Hf	0.77144 0.29279 0.70721 1.34300
O 	O 	0.80560 0.25780 0.74220 -0.60400
Hf	Hf	0.20721 0.20721 0.72856 1.34300
O 	O 	0.24220 0.24220 0.69440 -0.60400
Hf	Hf	0.70721 0.70721 0.22856 1.34300
O 	O 	0.74220 0.74220 0.19440 -0.60400
Hf	Hf	0.20721 0.79279 0.27144 1.34300
O 	O 	0.24220 0.75780 0.30560 -0.60400
Hf	Hf	0.70721 0.29279 0.77144 1.34300
O 	O 	0.74220 0.25780 0.80560 -0.60400
Hf	Hf	0.79279 0.20721 0.27144 1.34300
O 	O 	0.75780 0.24220 0.30560 -0.60400
Hf	Hf	0.29279 0.70721 0.77144 1.34300
O 	O 	0.25780 0.74220 0.80560 -0.60400
Hf	Hf	0.79279 0.79279 0.72856 1.34300
O 	O 	0.75780 0.75780 0.69440 -0.60400
Hf	Hf	0.29279 0.29279 0.22856 1.34300
O 	O 	0.25780 0.25780 0.19440 -0.60400
Ir	Ir	0.50000 0.25000 -0.00000 0.53100
Ir	Ir	0.50000 0.75000 -0.00000 0.53100
Ir	Ir	0.00000 0.50000 0.25000 0.53100
Ir	Ir	0.00000 0.50000 0.75000 0.53100
Ir	Ir	0.25000 0.00000 0.50000 0.53100
Ir	Ir	0.75000 0.00000 0.50000 0.53100
Ir	Ir	0.25000 0.50000 -0.00000 0.53100
Ir	Ir	0.75000 0.50000 -0.00000 0.53100
Ir	Ir	0.50000 0.00000 0.75000 0.53100
Ir	Ir	0.50000 0.00000 0.25000 0.53100
Ir	Ir	0.00000 0.25000 0.50000 0.53100
Ir	Ir	0.00000 0.75000 0.50000 0.53100
Cl	Cl	0.50000 0.31430 -0.00000 -0.33200
Cl	Cl	0.00000 0.81430 0.50000 -0.33200
Cl	Cl	0.50000 0.68570 -0.00000 -0.33200
Cl	Cl	0.00000 0.18570 0.50000 -0.33200
Cl	Cl	0.00000 0.50000 0.31430 -0.33200
Cl	Cl	0.50000 0.00000 0.81430 -0.33200
Cl	Cl	-0.00000 0.50000 0.68570 -0.33200
Cl	Cl	0.50000 0.00000 0.18570 -0.33200
Cl	Cl	0.31430 0.00000 0.50000 -0.33200
Cl	Cl	0.81430 0.50000 -0.00000 -0.33200
Cl	Cl	0.68570 0.00000 0.50000 -0.33200
Cl	Cl	0.18570 0.50000 -0.00000 -0.33200
Cl	Cl	0.31430 0.50000 -0.00000 -0.33200
Cl	Cl	0.81430 0.00000 0.50000 -0.33200
Cl	Cl	0.68570 0.50000 -0.00000 -0.33200
Cl	Cl	0.18570 0.00000 0.50000 -0.33200
Cl	Cl	0.50000 0.00000 0.68570 -0.33200
Cl	Cl	0.00000 0.50000 0.18570 -0.33200
Cl	Cl	0.50000 0.00000 0.31430 -0.33200
Cl	Cl	0.00000 0.50000 0.81430 -0.33200
Cl	Cl	0.00000 0.31430 0.50000 -0.33200
Cl	Cl	0.50000 0.81430 -0.00000 -0.33200
Cl	Cl	-0.00000 0.68570 0.50000 -0.33200
Cl	Cl	0.50000 0.18570 -0.00000 -0.33200
O 	O 	0.21440 0.21440 0.21440 -0.61400
O 	O 	0.71440 0.71440 0.71440 -0.61500
O 	O 	0.78560 0.78560 0.21440 -0.61500
O 	O 	0.28560 0.28560 0.71440 -0.61500
O 	O 	0.78560 0.21440 0.78560 -0.61500
O 	O 	0.28560 0.71440 0.28560 -0.61500
O 	O 	0.21440 0.78560 0.78560 -0.61500
O 	O 	0.71440 0.28560 0.28560 -0.61500
O 	O 	0.21440 0.21440 0.78560 -0.61500
O 	O 	0.71440 0.71440 0.28560 -0.61500
O 	O 	0.78560 0.78560 0.78560 -0.61500
O 	O 	0.28560 0.28560 0.28560 -0.61500
O 	O 	0.21440 0.78560 0.21440 -0.61500
O 	O 	0.71440 0.28560 0.71440 -0.61500
O 	O 	0.78560 0.21440 0.21440 -0.61500
O 	O 	0.28560 0.71440 0.71440 -0.61500
N 	N 	0.50000 0.24790 0.05220 -0.17600
N 	N 	0.00000 0.74790 0.55220 -0.17400
N 	N 	0.50000 0.75210 0.05220 -0.17600
N 	N 	0.00000 0.25210 0.55220 -0.17400
N 	N 	0.50000 0.24790 0.94780 -0.17600
N 	N 	0.00000 0.74790 0.44780 -0.17400
N 	N 	0.50000 0.75210 0.94780 -0.17600
N 	N 	-0.00000 0.25210 0.44780 -0.17400
N 	N 	0.05220 0.50000 0.24790 -0.17600
N 	N 	0.55220 0.00000 0.74790 -0.17400
N 	N 	0.05220 0.50000 0.75210 -0.17600
N 	N 	0.55220 0.00000 0.25210 -0.17400
N 	N 	0.94780 0.50000 0.24790 -0.17600
N 	N 	0.44780 0.00000 0.74790 -0.17400
N 	N 	0.94780 0.50000 0.75210 -0.17600
N 	N 	0.44780 0.00000 0.25210 -0.17400
N 	N 	0.24790 0.05220 0.50000 -0.17600
N 	N 	0.74790 0.55220 -0.00000 -0.17400
N 	N 	0.75210 0.05220 0.50000 -0.17600
N 	N 	0.25210 0.55220 -0.00000 -0.17400
N 	N 	0.24790 0.94780 0.50000 -0.17600
N 	N 	0.74790 0.44780 -0.00000 -0.17400
N 	N 	0.75210 0.94780 0.50000 -0.17600
N 	N 	0.25210 0.44780 -0.00000 -0.17400
N 	N 	0.24790 0.50000 0.94780 -0.17600
N 	N 	0.74790 -0.00000 0.44780 -0.17400
N 	N 	0.75210 0.50000 0.94780 -0.17600
N 	N 	0.25210 -0.00000 0.44780 -0.17400
N 	N 	0.24790 0.50000 0.05220 -0.17600
N 	N 	0.74790 0.00000 0.55220 -0.17400
N 	N 	0.75210 0.50000 0.05220 -0.17600
N 	N 	0.25210 0.00000 0.55220 -0.17400
N 	N 	0.50000 0.05220 0.75210 -0.17600
N 	N 	0.00000 0.55220 0.25210 -0.17400
N 	N 	0.50000 0.05220 0.24790 -0.17600
N 	N 	0.00000 0.55220 0.74790 -0.17400
N 	N 	0.50000 0.94780 0.75210 -0.17600
N 	N 	-0.00000 0.44780 0.25210 -0.17400
N 	N 	0.50000 0.94780 0.24790 -0.17600
N 	N 	0.00000 0.44780 0.74790 -0.17400
N 	N 	0.05220 0.24790 0.50000 -0.17600
N 	N 	0.55220 0.74790 -0.00000 -0.17400
N 	N 	0.05220 0.75210 0.50000 -0.17600
N 	N 	0.55220 0.25210 -0.00000 -0.17400
N 	N 	0.94780 0.24790 0.50000 -0.17600
N 	N 	0.44780 0.74790 -0.00000 -0.17400
N 	N 	0.94780 0.75210 0.50000 -0.17600
N 	N 	0.44780 0.25210 -0.00000 -0.17400
C 	C 	0.43730 0.25000 0.06270 -0.16300
C 	C 	0.40930 0.25000 0.09070 0.19500
C 	C 	0.35870 0.25000 0.14130 -0.21300
C 	C 	0.33030 0.25000 0.16970 0.49400
C 	C 	0.56270 0.75000 0.06270 -0.16300
C 	C 	0.59070 0.75000 0.09070 0.19500
C 	C 	0.64130 0.75000 0.14130 -0.21300
C 	C 	0.66970 0.75000 0.16970 0.49400
C 	C 	0.56270 0.25000 0.93730 -0.16400
C 	C 	0.59070 0.25000 0.90930 0.19500
C 	C 	0.64130 0.25000 0.85870 -0.21300
C 	C 	0.66970 0.25000 0.83030 0.49400
C 	C 	0.43730 0.75000 0.93730 -0.16400
C 	C 	0.40930 0.75000 0.90930 0.19500
C 	C 	0.35870 0.75000 0.85870 -0.21300
C 	C 	0.33030 0.75000 0.83030 0.49400
C 	C 	0.06270 0.43730 0.25000 -0.16300
C 	C 	0.09070 0.40930 0.25000 0.19500
C 	C 	0.14130 0.35870 0.25000 -0.21300
C 	C 	0.16970 0.33030 0.25000 0.49400
C 	C 	0.06270 0.56270 0.75000 -0.16300
C 	C 	0.09070 0.59070 0.75000 0.19500
C 	C 	0.14130 0.64130 0.75000 -0.21300
C 	C 	0.16970 0.66970 0.75000 0.49400
C 	C 	0.93730 0.56270 0.25000 -0.16400
C 	C 	0.90930 0.59070 0.25000 0.19500
C 	C 	0.85870 0.64130 0.25000 -0.21300
C 	C 	0.83030 0.66970 0.25000 0.49400
C 	C 	0.93730 0.43730 0.75000 -0.16400
C 	C 	0.90930 0.40930 0.75000 0.19500
C 	C 	0.85870 0.35870 0.75000 -0.21300
C 	C 	0.83030 0.33030 0.75000 0.49400
C 	C 	0.25000 0.06270 0.43730 -0.16300
C 	C 	0.25000 0.09070 0.40930 0.19500
C 	C 	0.25000 0.14130 0.35870 -0.21300
C 	C 	0.25000 0.16970 0.33030 0.49400
C 	C 	0.75000 0.06270 0.56270 -0.16300
C 	C 	0.75000 0.09070 0.59070 0.19500
C 	C 	0.75000 0.14130 0.64130 -0.21300
C 	C 	0.75000 0.16970 0.66970 0.49400
C 	C 	0.25000 0.93730 0.56270 -0.16400
C 	C 	0.25000 0.90930 0.59070 0.19500
C 	C 	0.25000 0.85870 0.64130 -0.21300
C 	C 	0.25000 0.83030 0.66970 0.49400
C 	C 	0.75000 0.93730 0.43730 -0.16400
C 	C 	0.75000 0.90930 0.40930 0.19500
C 	C 	0.75000 0.85870 0.35870 -0.21300
C 	C 	0.75000 0.83030 0.33030 0.49400
C 	C 	0.25000 0.43730 0.93730 -0.16400
C 	C 	0.25000 0.40930 0.90930 0.19500
C 	C 	0.25000 0.35870 0.85870 -0.21300
C 	C 	0.25000 0.33030 0.83030 0.49400
C 	C 	0.75000 0.56270 0.93730 -0.16400
C 	C 	0.75000 0.59070 0.90930 0.19500
C 	C 	0.75000 0.64130 0.85870 -0.21300
C 	C 	0.75000 0.66970 0.83030 0.49400
C 	C 	0.25000 0.56270 0.06270 -0.16300
C 	C 	0.25000 0.59070 0.09070 0.19500
C 	C 	0.25000 0.64130 0.14130 -0.21300
C 	C 	0.25000 0.66970 0.16970 0.49400
C 	C 	0.75000 0.43730 0.06270 -0.16300
C 	C 	0.75000 0.40930 0.09070 0.19500
C 	C 	0.75000 0.35870 0.14130 -0.21300
C 	C 	0.75000 0.33030 0.16970 0.49400
C 	C 	0.43730 0.06270 0.75000 -0.16300
C 	C 	0.40930 0.09070 0.75000 0.19500
C 	C 	0.35870 0.14130 0.75000 -0.21300
C 	C 	0.33030 0.16970 0.75000 0.49400
C 	C 	0.56270 0.06270 0.25000 -0.16300
C 	C 	0.59070 0.09070 0.25000 0.19500
C 	C 	0.64130 0.14130 0.25000 -0.21300
C 	C 	0.66970 0.16970 0.25000 0.49400
C 	C 	0.56270 0.93730 0.75000 -0.16400
C 	C 	0.59070 0.90930 0.75000 0.19500
C 	C 	0.64130 0.85870 0.75000 -0.21300
C 	C 	0.66970 0.83030 0.75000 0.49400
C 	C 	0.43730 0.93730 0.25000 -0.16400
C 	C 	0.40930 0.90930 0.25000 0.19500
C 	C 	0.35870 0.85870 0.25000 -0.21300
C 	C 	0.33030 0.83030 0.25000 0.49400
C 	C 	0.06270 0.25000 0.56270 -0.16300
C 	C 	0.09070 0.25000 0.59070 0.19500
C 	C 	0.14130 0.25000 0.64130 -0.21300
C 	C 	0.16970 0.25000 0.66970 0.49400
C 	C 	0.06270 0.75000 0.43730 -0.16300
C 	C 	0.09070 0.75000 0.40930 0.19500
C 	C 	0.14130 0.75000 0.35870 -0.21300
C 	C 	0.16970 0.75000 0.33030 0.49400
C 	C 	0.93730 0.25000 0.43730 -0.16400
C 	C 	0.90930 0.25000 0.40930 0.19500
C 	C 	0.85870 0.25000 0.35870 -0.21300
C 	C 	0.83030 0.25000 0.33030 0.49400
C 	C 	0.93730 0.75000 0.56270 -0.16400
C 	C 	0.90930 0.75000 0.59070 0.19500
C 	C 	0.85870 0.75000 0.64130 -0.21300
C 	C 	0.83030 0.75000 0.66970 0.49400
C 	C 	0.56270 0.75000 0.93730 -0.16400
C 	C 	0.59070 0.75000 0.90930 0.19500
C 	C 	0.64130 0.75000 0.85870 -0.21300
C 	C 	0.66970 0.75000 0.83030 0.49400
C 	C 	0.06270 0.25000 0.43730 -0.16300
C 	C 	0.09070 0.25000 0.40930 0.19500
C 	C 	0.14130 0.25000 0.35870 -0.21300
C 	C 	0.16970 0.25000 0.33030 0.49400
C 	C 	0.43730 0.25000 0.93730 -0.16400
C 	C 	0.40930 0.25000 0.90930 0.19500
C 	C 	0.35870 0.25000 0.85870 -0.21300
C 	C 	0.33030 0.25000 0.83030 0.49400
C 	C 	0.43730 0.75000 0.06270 -0.16300
C 	C 	0.40930 0.75000 0.09070 0.19500
C 	C 	0.35870 0.75000 0.14130 -0.21300
C 	C 	0.33030 0.75000 0.16970 0.49400
C 	C 	0.56270 0.25000 0.06270 -0.16300
C 	C 	0.59070 0.25000 0.09070 0.19500
C 	C 	0.64130 0.25000 0.14130 -0.21300
C 	C 	0.66970 0.25000 0.16970 0.49400
C 	C 	0.93730 0.56270 0.75000 -0.16400
C 	C 	0.90930 0.59070 0.75000 0.19500
C 	C 	0.85870 0.64130 0.75000 -0.21300
C 	C 	0.83030 0.66970 0.75000 0.49400
C 	C 	0.43730 0.06270 0.25000 -0.16300
C 	C 	0.40930 0.09070 0.25000 0.19500
C 	C 	0.35870 0.14130 0.25000 -0.21300
C 	C 	0.33030 0.16970 0.25000 0.49400
C 	C 	0.93730 0.43730 0.25000 -0.16400
C 	C 	0.90930 0.40930 0.25000 0.19500
C 	C 	0.85870 0.35870 0.25000 -0.21300
C 	C 	0.83030 0.33030 0.25000 0.49400
C 	C 	0.06270 0.43730 0.75000 -0.16300
C 	C 	0.09070 0.40930 0.75000 0.19500
C 	C 	0.14130 0.35870 0.75000 -0.21300
C 	C 	0.16970 0.33030 0.75000 0.49400
C 	C 	0.06270 0.56270 0.25000 -0.16300
C 	C 	0.09070 0.59070 0.25000 0.19500
C 	C 	0.14130 0.64130 0.25000 -0.21300
C 	C 	0.16970 0.66970 0.25000 0.49400
C 	C 	0.75000 0.93730 0.56270 -0.16400
C 	C 	0.75000 0.90930 0.59070 0.19500
C 	C 	0.75000 0.85870 0.64130 -0.21300
C 	C 	0.75000 0.83030 0.66970 0.49400
C 	C 	0.25000 0.43730 0.06270 -0.16300
C 	C 	0.25000 0.40930 0.09070 0.19500
C 	C 	0.25000 0.35870 0.14130 -0.21300
C 	C 	0.25000 0.33030 0.16970 0.49400
C 	C 	0.25000 0.93730 0.43730 -0.16400
C 	C 	0.25000 0.90930 0.40930 0.19500
C 	C 	0.25000 0.85870 0.35870 -0.21300
C 	C 	0.25000 0.83030 0.33030 0.49400
C 	C 	0.75000 0.06270 0.43730 -0.16300
C 	C 	0.75000 0.09070 0.40930 0.19500
C 	C 	0.75000 0.14130 0.35870 -0.21300
C 	C 	0.75000 0.16970 0.33030 0.49400
C 	C 	0.25000 0.06270 0.56270 -0.16300
C 	C 	0.25000 0.09070 0.59070 0.19500
C 	C 	0.25000 0.14130 0.64130 -0.21300
C 	C 	0.25000 0.16970 0.66970 0.49400
C 	C 	0.75000 0.56270 0.06270 -0.16300
C 	C 	0.75000 0.59070 0.09070 0.19500
C 	C 	0.75000 0.64130 0.14130 -0.21300
C 	C 	0.75000 0.66970 0.16970 0.49400
C 	C 	0.75000 0.43730 0.93730 -0.16400
C 	C 	0.75000 0.40930 0.90930 0.19500
C 	C 	0.75000 0.35870 0.85870 -0.21300
C 	C 	0.75000 0.33030 0.83030 0.49400
C 	C 	0.25000 0.56270 0.93730 -0.16400
C 	C 	0.25000 0.59070 0.90930 0.19500
C 	C 	0.25000 0.64130 0.85870 -0.21300
C 	C 	0.25000 0.66970 0.83030 0.49400
C 	C 	0.56270 0.93730 0.25000 -0.16400
C 	C 	0.59070 0.90930 0.25000 0.19500
C 	C 	0.64130 0.85870 0.25000 -0.21300
C 	C 	0.66970 0.83030 0.25000 0.49400
C 	C 	0.43730 0.93730 0.75000 -0.16400
C 	C 	0.40930 0.90930 0.75000 0.19500
C 	C 	0.35870 0.85870 0.75000 -0.21300
C 	C 	0.33030 0.83030 0.75000 0.49400
C 	C 	0.56270 0.06270 0.75000 -0.16300
C 	C 	0.59070 0.09070 0.75000 0.19500
C 	C 	0.64130 0.14130 0.75000 -0.21300
C 	C 	0.66970 0.16970 0.75000 0.49400
C 	C 	0.93730 0.75000 0.43730 -0.16400
C 	C 	0.90930 0.75000 0.40930 0.19500
C 	C 	0.85870 0.75000 0.35870 -0.21300
C 	C 	0.83030 0.75000 0.33030 0.49400
C 	C 	0.93730 0.25000 0.56270 -0.16400
C 	C 	0.90930 0.25000 0.59070 0.19500
C 	C 	0.85870 0.25000 0.64130 -0.21300
C 	C 	0.83030 0.25000 0.66970 0.49400
C 	C 	0.06270 0.75000 0.56270 -0.16300
C 	C 	0.09070 0.75000 0.59070 0.19500
C 	C 	0.14130 0.75000 0.64130 -0.21300
C 	C 	0.16970 0.75000 0.66970 0.49400
