data_crystal

_cell_length_a 22.52200
_cell_length_b 22.52200
_cell_length_c 33.60000
_cell_angle_alpha 90.00000
_cell_angle_beta  90.00000
_cell_angle_gamma 90.00000

_symmetry_space_group_name_	'P 1'
_symmetry_space_group_name_H-M	'P 1'

loop_
_symmetry_equiv_pos_as_xyz
  x,y,z

loop_
_atom_site_label
_atom_site_type_symbol
_atom_site_fract_x
_atom_site_fract_y
_atom_site_fract_z
_atom_site_charge
N 	N 	0.23688 0.08135 0.64243 -0.24300
C 	C 	0.22020 0.11390 0.67355 0.08800
H 	H 	0.25050 0.13350 0.68810 -0.02300
C 	C 	0.16330 0.12130 0.68613 -0.16000
H 	H 	0.15480 0.14610 0.70830 0.08200
C 	C 	0.11770 0.09200 0.66610 0.09500
C 	C 	0.13430 0.05760 0.63369 -0.15500
H 	H 	0.10480 0.03750 0.61870 0.08000
C 	C 	0.19282 0.05240 0.62312 0.07800
H 	H 	0.20290 0.02750 0.60130 -0.01700
C 	C 	0.05520 0.09600 0.67830 -0.03600
C 	C 	0.03207 0.10050 0.71567 -0.02700
C 	C 	0.06700 0.09650 0.75313 0.09800
C 	C 	0.09090 0.04400 0.76507 -0.16200
H 	H 	0.08760 0.00990 0.74860 0.08300
C 	C 	0.12030 0.04040 0.80151 0.08900
H 	H 	0.13550 0.00290 0.80950 -0.02500
N 	N 	0.12803 0.08557 0.82541 -0.25500
C 	C 	0.10410 0.13690 0.81397 0.08100
H 	H 	0.10730 0.17010 0.83120 -0.02600
C 	C 	0.07440 0.14410 0.77775 -0.16000
H 	H 	0.05950 0.18200 0.77030 0.07600
N 	N 	0.73688 0.58135 0.14243 -0.24300
C 	C 	0.72020 0.61390 0.17355 0.08800
H 	H 	0.75050 0.63350 0.18810 -0.02300
C 	C 	0.66330 0.62130 0.18613 -0.16000
H 	H 	0.65480 0.64610 0.20830 0.08200
C 	C 	0.61770 0.59200 0.16610 0.09500
C 	C 	0.63430 0.55760 0.13369 -0.15500
H 	H 	0.60480 0.53750 0.11870 0.08000
C 	C 	0.69282 0.55240 0.12312 0.07800
H 	H 	0.70290 0.52750 0.10130 -0.01700
C 	C 	0.55520 0.59600 0.17830 -0.03600
C 	C 	0.53207 0.60050 0.21567 -0.02800
C 	C 	0.56700 0.59650 0.25313 0.09800
C 	C 	0.59090 0.54400 0.26507 -0.16200
H 	H 	0.58760 0.50990 0.24860 0.08300
C 	C 	0.62030 0.54040 0.30151 0.08900
H 	H 	0.63550 0.50290 0.30950 -0.02500
N 	N 	0.62803 0.58557 0.32541 -0.25500
C 	C 	0.60410 0.63690 0.31397 0.08200
H 	H 	0.60730 0.67010 0.33120 -0.02700
C 	C 	0.57440 0.64410 0.27775 -0.16100
H 	H 	0.55950 0.68200 0.27030 0.07600
N 	N 	0.26312 0.91865 0.14243 -0.24300
C 	C 	0.27980 0.88610 0.17355 0.08800
H 	H 	0.24950 0.86650 0.18810 -0.02300
C 	C 	0.33670 0.87870 0.18613 -0.16000
H 	H 	0.34520 0.85390 0.20830 0.08200
C 	C 	0.38230 0.90800 0.16610 0.09500
C 	C 	0.36570 0.94240 0.13369 -0.15500
H 	H 	0.39520 0.96250 0.11870 0.08000
C 	C 	0.30718 0.94760 0.12312 0.07800
H 	H 	0.29710 0.97250 0.10130 -0.01700
C 	C 	0.44480 0.90400 0.17830 -0.03600
C 	C 	0.46793 0.89950 0.21567 -0.02800
C 	C 	0.43300 0.90350 0.25313 0.09800
C 	C 	0.40910 0.95600 0.26507 -0.16200
H 	H 	0.41240 0.99010 0.24860 0.08300
C 	C 	0.37970 0.95960 0.30151 0.08900
H 	H 	0.36450 0.99710 0.30950 -0.02500
N 	N 	0.37197 0.91443 0.32541 -0.25500
C 	C 	0.39590 0.86310 0.31397 0.08200
H 	H 	0.39270 0.82990 0.33120 -0.02700
C 	C 	0.42560 0.85590 0.27775 -0.16100
H 	H 	0.44050 0.81800 0.27030 0.07600
N 	N 	0.76312 0.41865 0.64243 -0.24300
C 	C 	0.77980 0.38610 0.67355 0.08800
H 	H 	0.74950 0.36650 0.68810 -0.02300
C 	C 	0.83670 0.37870 0.68613 -0.16000
H 	H 	0.84520 0.35390 0.70830 0.08200
C 	C 	0.88230 0.40800 0.66610 0.09500
C 	C 	0.86570 0.44240 0.63369 -0.15400
H 	H 	0.89520 0.46250 0.61870 0.08000
C 	C 	0.80718 0.44760 0.62312 0.07900
H 	H 	0.79710 0.47250 0.60130 -0.01600
C 	C 	0.94480 0.40400 0.67830 -0.03500
C 	C 	0.96793 0.39950 0.71567 -0.02700
C 	C 	0.93300 0.40350 0.75313 0.09900
C 	C 	0.90910 0.45600 0.76507 -0.16100
H 	H 	0.91240 0.49010 0.74860 0.08400
C 	C 	0.87970 0.45960 0.80151 0.09000
H 	H 	0.86450 0.49710 0.80950 -0.02400
N 	N 	0.87197 0.41443 0.82541 -0.25400
C 	C 	0.89590 0.36310 0.81397 0.08200
H 	H 	0.89270 0.32990 0.83120 -0.02600
C 	C 	0.92560 0.35590 0.77775 -0.16000
H 	H 	0.94050 0.31800 0.77030 0.07700
N 	N 	0.16865 0.98688 0.89243 -0.24200
C 	C 	0.13610 0.97020 0.92355 0.08900
H 	H 	0.11650 0.00050 0.93810 -0.02200
C 	C 	0.12870 0.91330 0.93613 -0.16000
H 	H 	0.10390 0.90480 0.95830 0.08300
C 	C 	0.15800 0.86770 0.91610 0.09600
C 	C 	0.19240 0.88430 0.88369 -0.15400
H 	H 	0.21250 0.85480 0.86870 0.08100
C 	C 	0.19760 0.94282 0.87312 0.07900
H 	H 	0.22250 0.95290 0.85130 -0.01600
C 	C 	0.15400 0.80520 0.92830 -0.03500
C 	C 	0.14950 0.78207 0.96567 -0.02700
C 	C 	0.15350 0.81700 0.00313 0.09900
C 	C 	0.20600 0.84090 0.01507 -0.16200
H 	H 	0.24010 0.83760 0.99860 0.08400
C 	C 	0.20960 0.87030 0.05151 0.09000
H 	H 	0.24710 0.88550 0.05950 -0.02400
N 	N 	0.16443 0.87803 0.07541 -0.25400
C 	C 	0.11310 0.85410 0.06397 0.08300
H 	H 	0.07990 0.85730 0.08120 -0.02500
C 	C 	0.10590 0.82440 0.02775 -0.16000
H 	H 	0.06800 0.80950 0.02030 0.07700
N 	N 	0.66865 0.48688 0.39243 -0.24200
C 	C 	0.63610 0.47020 0.42355 0.08900
H 	H 	0.61650 0.50050 0.43810 -0.02200
C 	C 	0.62870 0.41330 0.43613 -0.15900
H 	H 	0.60390 0.40480 0.45830 0.08300
C 	C 	0.65800 0.36770 0.41610 0.09600
C 	C 	0.69240 0.38430 0.38369 -0.15400
H 	H 	0.71250 0.35480 0.36870 0.08100
C 	C 	0.69760 0.44282 0.37312 0.07900
H 	H 	0.72250 0.45290 0.35130 -0.01600
C 	C 	0.65400 0.30520 0.42830 -0.03500
C 	C 	0.64950 0.28207 0.46567 -0.02700
C 	C 	0.65350 0.31700 0.50313 0.09900
C 	C 	0.70600 0.34090 0.51507 -0.16100
H 	H 	0.74010 0.33760 0.49860 0.08400
C 	C 	0.70960 0.37030 0.55151 0.09000
H 	H 	0.74710 0.38550 0.55950 -0.02400
N 	N 	0.66443 0.37803 0.57541 -0.25400
C 	C 	0.61310 0.35410 0.56397 0.08300
H 	H 	0.57990 0.35730 0.58120 -0.02600
C 	C 	0.60590 0.32440 0.52775 -0.16000
H 	H 	0.56800 0.30950 0.52030 0.07700
N 	N 	0.33135 0.01312 0.39243 -0.24200
C 	C 	0.36390 0.02980 0.42355 0.08900
H 	H 	0.38350 0.99950 0.43810 -0.02200
C 	C 	0.37130 0.08670 0.43613 -0.15900
H 	H 	0.39610 0.09520 0.45830 0.08300
C 	C 	0.34200 0.13230 0.41610 0.09600
C 	C 	0.30760 0.11570 0.38369 -0.15400
H 	H 	0.28750 0.14520 0.36870 0.08100
C 	C 	0.30240 0.05718 0.37312 0.07900
H 	H 	0.27750 0.04710 0.35130 -0.01600
C 	C 	0.34600 0.19480 0.42830 -0.03500
C 	C 	0.35050 0.21793 0.46567 -0.02700
C 	C 	0.34650 0.18300 0.50313 0.09900
C 	C 	0.29400 0.15910 0.51507 -0.16100
H 	H 	0.25990 0.16240 0.49860 0.08400
C 	C 	0.29040 0.12970 0.55151 0.09000
H 	H 	0.25290 0.11450 0.55950 -0.02400
N 	N 	0.33557 0.12197 0.57541 -0.25400
C 	C 	0.38690 0.14590 0.56397 0.08300
H 	H 	0.42010 0.14270 0.58120 -0.02600
C 	C 	0.39410 0.17560 0.52775 -0.16000
H 	H 	0.43200 0.19050 0.52030 0.07700
N 	N 	0.83135 0.51312 0.89243 -0.24200
C 	C 	0.86390 0.52980 0.92355 0.08900
H 	H 	0.88350 0.49950 0.93810 -0.02200
C 	C 	0.87130 0.58670 0.93613 -0.15900
H 	H 	0.89610 0.59520 0.95830 0.08300
C 	C 	0.84200 0.63230 0.91610 0.09600
C 	C 	0.80760 0.61570 0.88369 -0.15400
H 	H 	0.78750 0.64520 0.86870 0.08100
C 	C 	0.80240 0.55718 0.87312 0.07900
H 	H 	0.77750 0.54710 0.85130 -0.01600
C 	C 	0.84600 0.69480 0.92830 -0.03500
C 	C 	0.85050 0.71793 0.96567 -0.02700
C 	C 	0.84650 0.68300 0.00313 0.09900
C 	C 	0.79400 0.65910 0.01507 -0.16100
H 	H 	0.75990 0.66240 0.99860 0.08400
C 	C 	0.79040 0.62970 0.05151 0.09000
H 	H 	0.75290 0.61450 0.05950 -0.02400
N 	N 	0.83557 0.62197 0.07541 -0.25400
C 	C 	0.88690 0.64590 0.06397 0.08200
H 	H 	0.92010 0.64270 0.08120 -0.02600
C 	C 	0.89410 0.67560 0.02775 -0.16000
H 	H 	0.93200 0.69050 0.02030 0.07700
N 	N 	0.26312 0.08135 0.85757 -0.24200
C 	C 	0.27980 0.11390 0.82645 0.08900
H 	H 	0.24950 0.13350 0.81190 -0.02200
C 	C 	0.33670 0.12130 0.81387 -0.15900
H 	H 	0.34520 0.14610 0.79170 0.08300
C 	C 	0.38230 0.09200 0.83390 0.09600
C 	C 	0.36570 0.05760 0.86631 -0.15400
H 	H 	0.39520 0.03750 0.88130 0.08100
C 	C 	0.30718 0.05240 0.87688 0.07900
H 	H 	0.29710 0.02750 0.89870 -0.01600
C 	C 	0.44480 0.09600 0.82170 -0.03500
C 	C 	0.46793 0.10050 0.78433 -0.02700
C 	C 	0.43300 0.09650 0.74687 0.09900
C 	C 	0.40910 0.04400 0.73493 -0.16100
H 	H 	0.41240 0.00990 0.75140 0.08400
C 	C 	0.37970 0.04040 0.69849 0.09000
H 	H 	0.36450 0.00290 0.69050 -0.02400
N 	N 	0.37197 0.08557 0.67459 -0.25400
C 	C 	0.39590 0.13690 0.68603 0.08300
H 	H 	0.39270 0.17010 0.66880 -0.02600
C 	C 	0.42560 0.14410 0.72225 -0.16000
H 	H 	0.44050 0.18200 0.72970 0.07700
N 	N 	0.76312 0.58135 0.35757 -0.24200
C 	C 	0.77980 0.61390 0.32645 0.08900
H 	H 	0.74950 0.63350 0.31190 -0.02200
C 	C 	0.83670 0.62130 0.31387 -0.15900
H 	H 	0.84520 0.64610 0.29170 0.08300
C 	C 	0.88230 0.59200 0.33390 0.09600
C 	C 	0.86570 0.55760 0.36631 -0.15400
H 	H 	0.89520 0.53750 0.38130 0.08000
C 	C 	0.80718 0.55240 0.37688 0.07900
H 	H 	0.79710 0.52750 0.39870 -0.01600
C 	C 	0.94480 0.59600 0.32170 -0.03500
C 	C 	0.96793 0.60050 0.28433 -0.02700
C 	C 	0.93300 0.59650 0.24687 0.09900
C 	C 	0.90910 0.54400 0.23493 -0.16100
H 	H 	0.91240 0.50990 0.25140 0.08400
C 	C 	0.87970 0.54040 0.19849 0.09000
H 	H 	0.86450 0.50290 0.19050 -0.02400
N 	N 	0.87197 0.58557 0.17459 -0.25400
C 	C 	0.89590 0.63690 0.18603 0.08200
H 	H 	0.89270 0.67010 0.16880 -0.02600
C 	C 	0.92560 0.64410 0.22225 -0.16000
H 	H 	0.94050 0.68200 0.22970 0.07700
N 	N 	0.23688 0.91865 0.35757 -0.24200
C 	C 	0.22020 0.88610 0.32645 0.08900
H 	H 	0.25050 0.86650 0.31190 -0.02200
C 	C 	0.16330 0.87870 0.31387 -0.15900
H 	H 	0.15480 0.85390 0.29170 0.08300
C 	C 	0.11770 0.90800 0.33390 0.09600
C 	C 	0.13430 0.94240 0.36631 -0.15400
H 	H 	0.10480 0.96250 0.38130 0.08100
C 	C 	0.19282 0.94760 0.37688 0.07900
H 	H 	0.20290 0.97250 0.39870 -0.01600
C 	C 	0.05520 0.90400 0.32170 -0.03500
C 	C 	0.03207 0.89950 0.28433 -0.02600
C 	C 	0.06700 0.90350 0.24687 0.09900
C 	C 	0.09090 0.95600 0.23493 -0.16100
H 	H 	0.08760 0.99010 0.25140 0.08400
C 	C 	0.12030 0.95960 0.19849 0.09000
H 	H 	0.13550 0.99710 0.19050 -0.02400
N 	N 	0.12803 0.91443 0.17459 -0.25400
C 	C 	0.10410 0.86310 0.18603 0.08200
H 	H 	0.10730 0.82990 0.16880 -0.02500
C 	C 	0.07440 0.85590 0.22225 -0.15900
H 	H 	0.05950 0.81800 0.22970 0.07700
N 	N 	0.73688 0.41865 0.85757 -0.24200
C 	C 	0.72020 0.38610 0.82645 0.08900
H 	H 	0.75050 0.36650 0.81190 -0.02200
C 	C 	0.66330 0.37870 0.81387 -0.15900
H 	H 	0.65480 0.35390 0.79170 0.08300
C 	C 	0.61770 0.40800 0.83390 0.09600
C 	C 	0.63430 0.44240 0.86631 -0.15400
H 	H 	0.60480 0.46250 0.88130 0.08100
C 	C 	0.69282 0.44760 0.87688 0.07900
H 	H 	0.70290 0.47250 0.89870 -0.01600
C 	C 	0.55520 0.40400 0.82170 -0.03500
C 	C 	0.53207 0.39950 0.78433 -0.02700
C 	C 	0.56700 0.40350 0.74687 0.09900
C 	C 	0.59090 0.45600 0.73493 -0.16100
H 	H 	0.58760 0.49010 0.75140 0.08400
C 	C 	0.62030 0.45960 0.69849 0.09000
H 	H 	0.63550 0.49710 0.69050 -0.02400
N 	N 	0.62803 0.41443 0.67459 -0.25400
C 	C 	0.60410 0.36310 0.68603 0.08300
H 	H 	0.60730 0.32990 0.66880 -0.02600
C 	C 	0.57440 0.35590 0.72225 -0.16000
H 	H 	0.55950 0.31800 0.72970 0.07700
N 	N 	0.33135 0.98688 0.60757 -0.24200
C 	C 	0.36390 0.97020 0.57645 0.08900
H 	H 	0.38350 0.00050 0.56190 -0.02200
C 	C 	0.37130 0.91330 0.56387 -0.15900
H 	H 	0.39610 0.90480 0.54170 0.08300
C 	C 	0.34200 0.86770 0.58390 0.09600
C 	C 	0.30760 0.88430 0.61631 -0.15400
H 	H 	0.28750 0.85480 0.63130 0.08100
C 	C 	0.30240 0.94282 0.62688 0.07900
H 	H 	0.27750 0.95290 0.64870 -0.01600
C 	C 	0.34600 0.80520 0.57170 -0.03500
C 	C 	0.35050 0.78207 0.53433 -0.02700
C 	C 	0.34650 0.81700 0.49687 0.09900
C 	C 	0.29400 0.84090 0.48493 -0.16100
H 	H 	0.25990 0.83760 0.50140 0.08400
C 	C 	0.29040 0.87030 0.44849 0.09000
H 	H 	0.25290 0.88550 0.44050 -0.02400
N 	N 	0.33557 0.87803 0.42459 -0.25400
C 	C 	0.38690 0.85410 0.43603 0.08300
H 	H 	0.42010 0.85730 0.41880 -0.02600
C 	C 	0.39410 0.82440 0.47225 -0.16000
H 	H 	0.43200 0.80950 0.47970 0.07700
N 	N 	0.83135 0.48688 0.10757 -0.24200
C 	C 	0.86390 0.47020 0.07645 0.08900
H 	H 	0.88350 0.50050 0.06190 -0.02200
C 	C 	0.87130 0.41330 0.06387 -0.15900
H 	H 	0.89610 0.40480 0.04170 0.08300
C 	C 	0.84200 0.36770 0.08390 0.09600
C 	C 	0.80760 0.38430 0.11631 -0.15400
H 	H 	0.78750 0.35480 0.13130 0.08100
C 	C 	0.80240 0.44282 0.12688 0.07900
H 	H 	0.77750 0.45290 0.14870 -0.01600
C 	C 	0.84600 0.30520 0.07170 -0.03500
C 	C 	0.85050 0.28207 0.03433 -0.02700
C 	C 	0.84650 0.31700 0.99687 0.09900
C 	C 	0.79400 0.34090 0.98493 -0.16100
H 	H 	0.75990 0.33760 0.00140 0.08400
C 	C 	0.79040 0.37030 0.94849 0.09000
H 	H 	0.75290 0.38550 0.94050 -0.02400
N 	N 	0.83557 0.37803 0.92459 -0.25400
C 	C 	0.88690 0.35410 0.93603 0.08200
H 	H 	0.92010 0.35730 0.91880 -0.02600
C 	C 	0.89410 0.32440 0.97225 -0.16000
H 	H 	0.93200 0.30950 0.97970 0.07700
N 	N 	0.16865 0.01312 0.10757 -0.24200
C 	C 	0.13610 0.02980 0.07645 0.08900
H 	H 	0.11650 0.99950 0.06190 -0.02200
C 	C 	0.12870 0.08670 0.06387 -0.16000
H 	H 	0.10390 0.09520 0.04170 0.08300
C 	C 	0.15800 0.13230 0.08390 0.09600
C 	C 	0.19240 0.11570 0.11631 -0.15400
H 	H 	0.21250 0.14520 0.13130 0.08100
C 	C 	0.19760 0.05718 0.12688 0.07900
H 	H 	0.22250 0.04710 0.14870 -0.01600
C 	C 	0.15400 0.19480 0.07170 -0.03500
C 	C 	0.14950 0.21793 0.03433 -0.02700
C 	C 	0.15350 0.18300 0.99687 0.09900
C 	C 	0.20600 0.15910 0.98493 -0.16200
H 	H 	0.24010 0.16240 0.00140 0.08400
C 	C 	0.20960 0.12970 0.94849 0.09000
H 	H 	0.24710 0.11450 0.94050 -0.02400
N 	N 	0.16443 0.12197 0.92459 -0.25400
C 	C 	0.11310 0.14590 0.93603 0.08300
H 	H 	0.07990 0.14270 0.91880 -0.02500
C 	C 	0.10590 0.17560 0.97225 -0.16000
H 	H 	0.06800 0.19050 0.97970 0.07700
N 	N 	0.66865 0.51312 0.60757 -0.24200
C 	C 	0.63610 0.52980 0.57645 0.08900
H 	H 	0.61650 0.49950 0.56190 -0.02200
C 	C 	0.62870 0.58670 0.56387 -0.15900
H 	H 	0.60390 0.59520 0.54170 0.08300
C 	C 	0.65800 0.63230 0.58390 0.09600
C 	C 	0.69240 0.61570 0.61631 -0.15400
H 	H 	0.71250 0.64520 0.63130 0.08100
C 	C 	0.69760 0.55718 0.62688 0.07900
H 	H 	0.72250 0.54710 0.64870 -0.01600
C 	C 	0.65400 0.69480 0.57170 -0.03500
C 	C 	0.64950 0.71793 0.53433 -0.02700
C 	C 	0.65350 0.68300 0.49687 0.09900
C 	C 	0.70600 0.65910 0.48493 -0.16100
H 	H 	0.74010 0.66240 0.50140 0.08400
C 	C 	0.70960 0.62970 0.44849 0.09000
H 	H 	0.74710 0.61450 0.44050 -0.02400
N 	N 	0.66443 0.62197 0.42459 -0.25400
C 	C 	0.61310 0.64590 0.43603 0.08300
H 	H 	0.57990 0.64270 0.41880 -0.02600
C 	C 	0.60590 0.67560 0.47225 -0.16000
H 	H 	0.56800 0.69050 0.47970 0.07700
N 	N 	0.76312 0.91865 0.35757 -0.24200
C 	C 	0.77980 0.88610 0.32645 0.08900
H 	H 	0.74950 0.86650 0.31190 -0.02200
C 	C 	0.83670 0.87870 0.31387 -0.15900
H 	H 	0.84520 0.85390 0.29170 0.08300
C 	C 	0.88230 0.90800 0.33390 0.09600
C 	C 	0.86570 0.94240 0.36631 -0.15400
H 	H 	0.89520 0.96250 0.38130 0.08000
C 	C 	0.80718 0.94760 0.37688 0.07900
H 	H 	0.79710 0.97250 0.39870 -0.01600
C 	C 	0.94480 0.90400 0.32170 -0.03500
C 	C 	0.96793 0.89950 0.28433 -0.02700
C 	C 	0.93300 0.90350 0.24687 0.09900
C 	C 	0.90910 0.95600 0.23493 -0.16100
H 	H 	0.91240 0.99010 0.25140 0.08400
C 	C 	0.87970 0.95960 0.19849 0.09000
H 	H 	0.86450 0.99710 0.19050 -0.02400
N 	N 	0.87197 0.91443 0.17459 -0.25400
C 	C 	0.89590 0.86310 0.18603 0.08200
H 	H 	0.89270 0.82990 0.16880 -0.02600
C 	C 	0.92560 0.85590 0.22225 -0.16000
H 	H 	0.94050 0.81800 0.22970 0.07700
N 	N 	0.26312 0.41865 0.85757 -0.24200
C 	C 	0.27980 0.38610 0.82645 0.08900
H 	H 	0.24950 0.36650 0.81190 -0.02200
C 	C 	0.33670 0.37870 0.81387 -0.15900
H 	H 	0.34520 0.35390 0.79170 0.08300
C 	C 	0.38230 0.40800 0.83390 0.09600
C 	C 	0.36570 0.44240 0.86631 -0.15400
H 	H 	0.39520 0.46250 0.88130 0.08100
C 	C 	0.30718 0.44760 0.87688 0.07900
H 	H 	0.29710 0.47250 0.89870 -0.01600
C 	C 	0.44480 0.40400 0.82170 -0.03500
C 	C 	0.46793 0.39950 0.78433 -0.02700
C 	C 	0.43300 0.40350 0.74687 0.09900
C 	C 	0.40910 0.45600 0.73493 -0.16100
H 	H 	0.41240 0.49010 0.75140 0.08400
C 	C 	0.37970 0.45960 0.69849 0.09000
H 	H 	0.36450 0.49710 0.69050 -0.02400
N 	N 	0.37197 0.41443 0.67459 -0.25400
C 	C 	0.39590 0.36310 0.68603 0.08300
H 	H 	0.39270 0.32990 0.66880 -0.02600
C 	C 	0.42560 0.35590 0.72225 -0.16000
H 	H 	0.44050 0.31800 0.72970 0.07700
N 	N 	0.73688 0.08135 0.85757 -0.24200
C 	C 	0.72020 0.11390 0.82645 0.08900
H 	H 	0.75050 0.13350 0.81190 -0.02200
C 	C 	0.66330 0.12130 0.81387 -0.15900
H 	H 	0.65480 0.14610 0.79170 0.08300
C 	C 	0.61770 0.09200 0.83390 0.09600
C 	C 	0.63430 0.05760 0.86631 -0.15400
H 	H 	0.60480 0.03750 0.88130 0.08100
C 	C 	0.69282 0.05240 0.87688 0.07900
H 	H 	0.70290 0.02750 0.89870 -0.01600
C 	C 	0.55520 0.09600 0.82170 -0.03500
C 	C 	0.53207 0.10050 0.78433 -0.02700
C 	C 	0.56700 0.09650 0.74687 0.09900
C 	C 	0.59090 0.04400 0.73493 -0.16100
H 	H 	0.58760 0.00990 0.75140 0.08400
C 	C 	0.62030 0.04040 0.69849 0.09000
H 	H 	0.63550 0.00290 0.69050 -0.02400
N 	N 	0.62803 0.08557 0.67459 -0.25400
C 	C 	0.60410 0.13690 0.68603 0.08300
H 	H 	0.60730 0.17010 0.66880 -0.02600
C 	C 	0.57440 0.14410 0.72225 -0.16000
H 	H 	0.55950 0.18200 0.72970 0.07700
N 	N 	0.23688 0.58135 0.35757 -0.24200
C 	C 	0.22020 0.61390 0.32645 0.08900
H 	H 	0.25050 0.63350 0.31190 -0.02200
C 	C 	0.16330 0.62130 0.31387 -0.15900
H 	H 	0.15480 0.64610 0.29170 0.08300
C 	C 	0.11770 0.59200 0.33390 0.09600
C 	C 	0.13430 0.55760 0.36631 -0.15400
H 	H 	0.10480 0.53750 0.38130 0.08100
C 	C 	0.19282 0.55240 0.37688 0.07900
H 	H 	0.20290 0.52750 0.39870 -0.01600
C 	C 	0.05520 0.59600 0.32170 -0.03500
C 	C 	0.03207 0.60050 0.28433 -0.02600
C 	C 	0.06700 0.59650 0.24687 0.09900
C 	C 	0.09090 0.54400 0.23493 -0.16100
H 	H 	0.08760 0.50990 0.25140 0.08400
C 	C 	0.12030 0.54040 0.19849 0.09000
H 	H 	0.13550 0.50290 0.19050 -0.02400
N 	N 	0.12803 0.58557 0.17459 -0.25400
C 	C 	0.10410 0.63690 0.18603 0.08200
H 	H 	0.10730 0.67010 0.16880 -0.02500
C 	C 	0.07440 0.64410 0.22225 -0.15900
H 	H 	0.05950 0.68200 0.22970 0.07700
N 	N 	0.83135 0.01312 0.10757 -0.24200
C 	C 	0.86390 0.02980 0.07645 0.08900
H 	H 	0.88350 0.99950 0.06190 -0.02200
C 	C 	0.87130 0.08670 0.06387 -0.16000
H 	H 	0.89610 0.09520 0.04170 0.08300
C 	C 	0.84200 0.13230 0.08390 0.09600
C 	C 	0.80760 0.11570 0.11631 -0.15400
H 	H 	0.78750 0.14520 0.13130 0.08100
C 	C 	0.80240 0.05718 0.12688 0.07900
H 	H 	0.77750 0.04710 0.14870 -0.01600
C 	C 	0.84600 0.19480 0.07170 -0.03500
C 	C 	0.85050 0.21793 0.03433 -0.02700
C 	C 	0.84650 0.18300 0.99687 0.09900
C 	C 	0.79400 0.15910 0.98493 -0.16100
H 	H 	0.75990 0.16240 0.00140 0.08400
C 	C 	0.79040 0.12970 0.94849 0.09000
H 	H 	0.75290 0.11450 0.94050 -0.02400
N 	N 	0.83557 0.12197 0.92459 -0.25400
C 	C 	0.88690 0.14590 0.93603 0.08200
H 	H 	0.92010 0.14270 0.91880 -0.02600
C 	C 	0.89410 0.17560 0.97225 -0.16000
H 	H 	0.93200 0.19050 0.97970 0.07700
N 	N 	0.33135 0.51312 0.60757 -0.24200
C 	C 	0.36390 0.52980 0.57645 0.08900
H 	H 	0.38350 0.49950 0.56190 -0.02200
C 	C 	0.37130 0.58670 0.56387 -0.15900
H 	H 	0.39610 0.59520 0.54170 0.08300
C 	C 	0.34200 0.63230 0.58390 0.09600
C 	C 	0.30760 0.61570 0.61631 -0.15400
H 	H 	0.28750 0.64520 0.63130 0.08100
C 	C 	0.30240 0.55718 0.62688 0.07900
H 	H 	0.27750 0.54710 0.64870 -0.01600
C 	C 	0.34600 0.69480 0.57170 -0.03500
C 	C 	0.35050 0.71793 0.53433 -0.02700
C 	C 	0.34650 0.68300 0.49687 0.09900
C 	C 	0.29400 0.65910 0.48493 -0.16100
H 	H 	0.25990 0.66240 0.50140 0.08400
C 	C 	0.29040 0.62970 0.44849 0.09000
H 	H 	0.25290 0.61450 0.44050 -0.02400
N 	N 	0.33557 0.62197 0.42459 -0.25400
C 	C 	0.38690 0.64590 0.43603 0.08300
H 	H 	0.42010 0.64270 0.41880 -0.02600
C 	C 	0.39410 0.67560 0.47225 -0.16000
H 	H 	0.43200 0.69050 0.47970 0.07700
N 	N 	0.66865 0.98688 0.60757 -0.24200
C 	C 	0.63610 0.97020 0.57645 0.08900
H 	H 	0.61650 0.00050 0.56190 -0.02200
C 	C 	0.62870 0.91330 0.56387 -0.15900
H 	H 	0.60390 0.90480 0.54170 0.08300
C 	C 	0.65800 0.86770 0.58390 0.09600
C 	C 	0.69240 0.88430 0.61631 -0.15400
H 	H 	0.71250 0.85480 0.63130 0.08100
C 	C 	0.69760 0.94282 0.62688 0.07900
H 	H 	0.72250 0.95290 0.64870 -0.01600
C 	C 	0.65400 0.80520 0.57170 -0.03500
C 	C 	0.64950 0.78207 0.53433 -0.02700
C 	C 	0.65350 0.81700 0.49687 0.09900
C 	C 	0.70600 0.84090 0.48493 -0.16100
H 	H 	0.74010 0.83760 0.50140 0.08400
C 	C 	0.70960 0.87030 0.44849 0.09000
H 	H 	0.74710 0.88550 0.44050 -0.02400
N 	N 	0.66443 0.87803 0.42459 -0.25400
C 	C 	0.61310 0.85410 0.43603 0.08300
H 	H 	0.57990 0.85730 0.41880 -0.02600
C 	C 	0.60590 0.82440 0.47225 -0.16000
H 	H 	0.56800 0.80950 0.47970 0.07700
N 	N 	0.16865 0.48688 0.10757 -0.24200
C 	C 	0.13610 0.47020 0.07645 0.08900
H 	H 	0.11650 0.50050 0.06190 -0.02200
C 	C 	0.12870 0.41330 0.06387 -0.15900
H 	H 	0.10390 0.40480 0.04170 0.08300
C 	C 	0.15800 0.36770 0.08390 0.09600
C 	C 	0.19240 0.38430 0.11631 -0.15400
H 	H 	0.21250 0.35480 0.13130 0.08100
C 	C 	0.19760 0.44282 0.12688 0.07900
H 	H 	0.22250 0.45290 0.14870 -0.01600
C 	C 	0.15400 0.30520 0.07170 -0.03500
C 	C 	0.14950 0.28207 0.03433 -0.02700
C 	C 	0.15350 0.31700 0.99687 0.09900
C 	C 	0.20600 0.34090 0.98493 -0.16100
H 	H 	0.24010 0.33760 0.00140 0.08400
C 	C 	0.20960 0.37030 0.94849 0.09000
H 	H 	0.24710 0.38550 0.94050 -0.02400
N 	N 	0.16443 0.37803 0.92459 -0.25400
C 	C 	0.11310 0.35410 0.93603 0.08300
H 	H 	0.07990 0.35730 0.91880 -0.02500
C 	C 	0.10590 0.32440 0.97225 -0.16000
H 	H 	0.06800 0.30950 0.97970 0.07700
N 	N 	0.73688 0.91865 0.14243 -0.24200
C 	C 	0.72020 0.88610 0.17355 0.08900
H 	H 	0.75050 0.86650 0.18810 -0.02200
C 	C 	0.66330 0.87870 0.18613 -0.15900
H 	H 	0.65480 0.85390 0.20830 0.08300
C 	C 	0.61770 0.90800 0.16610 0.09600
C 	C 	0.63430 0.94240 0.13369 -0.15400
H 	H 	0.60480 0.96250 0.11870 0.08100
C 	C 	0.69282 0.94760 0.12312 0.07900
H 	H 	0.70290 0.97250 0.10130 -0.01600
C 	C 	0.55520 0.90400 0.17830 -0.03500
C 	C 	0.53207 0.89950 0.21567 -0.02700
C 	C 	0.56700 0.90350 0.25313 0.09900
C 	C 	0.59090 0.95600 0.26507 -0.16100
H 	H 	0.58760 0.99010 0.24860 0.08400
C 	C 	0.62030 0.95960 0.30151 0.09000
H 	H 	0.63550 0.99710 0.30950 -0.02400
N 	N 	0.62803 0.91443 0.32541 -0.25400
C 	C 	0.60410 0.86310 0.31397 0.08300
H 	H 	0.60730 0.82990 0.33120 -0.02600
C 	C 	0.57440 0.85590 0.27775 -0.16000
H 	H 	0.55950 0.81800 0.27030 0.07700
N 	N 	0.23688 0.41865 0.64243 -0.24200
C 	C 	0.22020 0.38610 0.67355 0.08900
H 	H 	0.25050 0.36650 0.68810 -0.02200
C 	C 	0.16330 0.37870 0.68613 -0.15900
H 	H 	0.15480 0.35390 0.70830 0.08300
C 	C 	0.11770 0.40800 0.66610 0.09600
C 	C 	0.13430 0.44240 0.63369 -0.15400
H 	H 	0.10480 0.46250 0.61870 0.08100
C 	C 	0.19282 0.44760 0.62312 0.07900
H 	H 	0.20290 0.47250 0.60130 -0.01600
C 	C 	0.05520 0.40400 0.67830 -0.03500
C 	C 	0.03207 0.39950 0.71567 -0.02600
C 	C 	0.06700 0.40350 0.75313 0.09900
C 	C 	0.09090 0.45600 0.76507 -0.16100
H 	H 	0.08760 0.49010 0.74860 0.08400
C 	C 	0.12030 0.45960 0.80151 0.09000
H 	H 	0.13550 0.49710 0.80950 -0.02400
N 	N 	0.12803 0.41443 0.82541 -0.25400
C 	C 	0.10410 0.36310 0.81397 0.08200
H 	H 	0.10730 0.32990 0.83120 -0.02500
C 	C 	0.07440 0.35590 0.77775 -0.15900
H 	H 	0.05950 0.31800 0.77030 0.07700
N 	N 	0.76312 0.08135 0.64243 -0.24200
C 	C 	0.77980 0.11390 0.67355 0.08900
H 	H 	0.74950 0.13350 0.68810 -0.02200
C 	C 	0.83670 0.12130 0.68613 -0.15900
H 	H 	0.84520 0.14610 0.70830 0.08300
C 	C 	0.88230 0.09200 0.66610 0.09600
C 	C 	0.86570 0.05760 0.63369 -0.15400
H 	H 	0.89520 0.03750 0.61870 0.08000
C 	C 	0.80718 0.05240 0.62312 0.07900
H 	H 	0.79710 0.02750 0.60130 -0.01600
C 	C 	0.94480 0.09600 0.67830 -0.03500
C 	C 	0.96793 0.10050 0.71567 -0.02700
C 	C 	0.93300 0.09650 0.75313 0.09900
C 	C 	0.90910 0.04400 0.76507 -0.16100
H 	H 	0.91240 0.00990 0.74860 0.08400
C 	C 	0.87970 0.04040 0.80151 0.09000
H 	H 	0.86450 0.00290 0.80950 -0.02400
N 	N 	0.87197 0.08557 0.82541 -0.25400
C 	C 	0.89590 0.13690 0.81397 0.08200
H 	H 	0.89270 0.17010 0.83120 -0.02600
C 	C 	0.92560 0.14410 0.77775 -0.16000
H 	H 	0.94050 0.18200 0.77030 0.07700
N 	N 	0.26312 0.58135 0.14243 -0.24200
C 	C 	0.27980 0.61390 0.17355 0.08900
H 	H 	0.24950 0.63350 0.18810 -0.02200
C 	C 	0.33670 0.62130 0.18613 -0.15900
H 	H 	0.34520 0.64610 0.20830 0.08300
C 	C 	0.38230 0.59200 0.16610 0.09600
C 	C 	0.36570 0.55760 0.13369 -0.15400
H 	H 	0.39520 0.53750 0.11870 0.08100
C 	C 	0.30718 0.55240 0.12312 0.07900
H 	H 	0.29710 0.52750 0.10130 -0.01600
C 	C 	0.44480 0.59600 0.17830 -0.03500
C 	C 	0.46793 0.60050 0.21567 -0.02700
C 	C 	0.43300 0.59650 0.25313 0.09900
C 	C 	0.40910 0.54400 0.26507 -0.16100
H 	H 	0.41240 0.50990 0.24860 0.08400
C 	C 	0.37970 0.54040 0.30151 0.09000
H 	H 	0.36450 0.50290 0.30950 -0.02400
N 	N 	0.37197 0.58557 0.32541 -0.25400
C 	C 	0.39590 0.63690 0.31397 0.08300
H 	H 	0.39270 0.67010 0.33120 -0.02600
C 	C 	0.42560 0.64410 0.27775 -0.16000
H 	H 	0.44050 0.68200 0.27030 0.07700
N 	N 	0.66865 0.01312 0.39243 -0.24200
C 	C 	0.63610 0.02980 0.42355 0.08900
H 	H 	0.61650 0.99950 0.43810 -0.02200
C 	C 	0.62870 0.08670 0.43613 -0.15900
H 	H 	0.60390 0.09520 0.45830 0.08300
C 	C 	0.65800 0.13230 0.41610 0.09600
C 	C 	0.69240 0.11570 0.38369 -0.15400
H 	H 	0.71250 0.14520 0.36870 0.08100
C 	C 	0.69760 0.05718 0.37312 0.07900
H 	H 	0.72250 0.04710 0.35130 -0.01600
C 	C 	0.65400 0.19480 0.42830 -0.03500
C 	C 	0.64950 0.21793 0.46567 -0.02700
C 	C 	0.65350 0.18300 0.50313 0.09900
C 	C 	0.70600 0.15910 0.51507 -0.16100
H 	H 	0.74010 0.16240 0.49860 0.08400
C 	C 	0.70960 0.12970 0.55151 0.09000
H 	H 	0.74710 0.11450 0.55950 -0.02400
N 	N 	0.66443 0.12197 0.57541 -0.25400
C 	C 	0.61310 0.14590 0.56397 0.08300
H 	H 	0.57990 0.14270 0.58120 -0.02600
C 	C 	0.60590 0.17560 0.52775 -0.16000
H 	H 	0.56800 0.19050 0.52030 0.07700
N 	N 	0.16865 0.51312 0.89243 -0.24200
C 	C 	0.13610 0.52980 0.92355 0.08900
H 	H 	0.11650 0.49950 0.93810 -0.02200
C 	C 	0.12870 0.58670 0.93613 -0.15900
H 	H 	0.10390 0.59520 0.95830 0.08300
C 	C 	0.15800 0.63230 0.91610 0.09600
C 	C 	0.19240 0.61570 0.88369 -0.15400
H 	H 	0.21250 0.64520 0.86870 0.08100
C 	C 	0.19760 0.55718 0.87312 0.07900
H 	H 	0.22250 0.54710 0.85130 -0.01600
C 	C 	0.15400 0.69480 0.92830 -0.03500
C 	C 	0.14950 0.71793 0.96567 -0.02700
C 	C 	0.15350 0.68300 0.00313 0.09900
C 	C 	0.20600 0.65910 0.01507 -0.16100
H 	H 	0.24010 0.66240 0.99860 0.08400
C 	C 	0.20960 0.62970 0.05151 0.09000
H 	H 	0.24710 0.61450 0.05950 -0.02400
N 	N 	0.16443 0.62197 0.07541 -0.25400
C 	C 	0.11310 0.64590 0.06397 0.08300
H 	H 	0.07990 0.64270 0.08120 -0.02500
C 	C 	0.10590 0.67560 0.02775 -0.16000
H 	H 	0.06800 0.69050 0.02030 0.07700
N 	N 	0.83135 0.98688 0.89243 -0.24200
C 	C 	0.86390 0.97020 0.92355 0.08900
H 	H 	0.88350 0.00050 0.93810 -0.02200
C 	C 	0.87130 0.91330 0.93613 -0.16000
H 	H 	0.89610 0.90480 0.95830 0.08300
C 	C 	0.84200 0.86770 0.91610 0.09600
C 	C 	0.80760 0.88430 0.88369 -0.15400
H 	H 	0.78750 0.85480 0.86870 0.08100
C 	C 	0.80240 0.94282 0.87312 0.07900
H 	H 	0.77750 0.95290 0.85130 -0.01600
C 	C 	0.84600 0.80520 0.92830 -0.03500
C 	C 	0.85050 0.78207 0.96567 -0.02700
C 	C 	0.84650 0.81700 0.00313 0.09900
C 	C 	0.79400 0.84090 0.01507 -0.16100
H 	H 	0.75990 0.83760 0.99860 0.08400
C 	C 	0.79040 0.87030 0.05151 0.09000
H 	H 	0.75290 0.88550 0.05950 -0.02400
N 	N 	0.83557 0.87803 0.07541 -0.25400
C 	C 	0.88690 0.85410 0.06397 0.08200
H 	H 	0.92010 0.85730 0.08120 -0.02600
C 	C 	0.89410 0.82440 0.02775 -0.16000
H 	H 	0.93200 0.80950 0.02030 0.07700
N 	N 	0.33135 0.48688 0.39243 -0.24200
C 	C 	0.36390 0.47020 0.42355 0.08900
H 	H 	0.38350 0.50050 0.43810 -0.02200
C 	C 	0.37130 0.41330 0.43613 -0.15900
H 	H 	0.39610 0.40480 0.45830 0.08300
C 	C 	0.34200 0.36770 0.41610 0.09600
C 	C 	0.30760 0.38430 0.38369 -0.15400
H 	H 	0.28750 0.35480 0.36870 0.08100
C 	C 	0.30240 0.44282 0.37312 0.07900
H 	H 	0.27750 0.45290 0.35130 -0.01600
C 	C 	0.34600 0.30520 0.42830 -0.03500
C 	C 	0.35050 0.28207 0.46567 -0.02700
C 	C 	0.34650 0.31700 0.50313 0.09900
C 	C 	0.29400 0.34090 0.51507 -0.16100
H 	H 	0.25990 0.33760 0.49860 0.08400
C 	C 	0.29040 0.37030 0.55151 0.09000
H 	H 	0.25290 0.38550 0.55950 -0.02400
N 	N 	0.33557 0.37803 0.57541 -0.25400
C 	C 	0.38690 0.35410 0.56397 0.08300
H 	H 	0.42010 0.35730 0.58120 -0.02600
C 	C 	0.39410 0.32440 0.52775 -0.16000
H 	H 	0.43200 0.30950 0.52030 0.07700
Cu	Cu	0.32392 0.07392 0.62500 0.85300
Cu	Cu	0.82392 0.57392 0.12500 0.85300
Cu	Cu	0.17608 0.92608 0.12500 0.85300
Cu	Cu	0.67608 0.42608 0.62500 0.85300
Cu	Cu	0.17608 0.07392 0.87500 0.85300
Cu	Cu	0.67608 0.57392 0.37500 0.85300
Cu	Cu	0.32392 0.92608 0.37500 0.85300
Cu	Cu	0.82392 0.42608 0.87500 0.85300
Cu	Cu	0.67608 0.92608 0.37500 0.85300
Cu	Cu	0.17608 0.42608 0.87500 0.85300
Cu	Cu	0.82392 0.07392 0.87500 0.85300
Cu	Cu	0.32392 0.57392 0.37500 0.85300
Cu	Cu	0.82392 0.92608 0.12500 0.85300
Cu	Cu	0.32392 0.42608 0.62500 0.85300
Cu	Cu	0.67608 0.07392 0.62500 0.85300
Cu	Cu	0.17608 0.57392 0.12500 0.85300
S 	S 	0.00000 0.09321 0.64275 -0.01000
S 	S 	0.50000 0.59321 0.14275 -0.01000
S 	S 	0.50000 0.90679 0.14275 -0.01000
S 	S 	0.00000 0.40679 0.64275 -0.01000
S 	S 	0.15679 0.75000 0.89275 -0.01000
S 	S 	0.34321 0.25000 0.39275 -0.01000
S 	S 	0.50000 0.09321 0.85725 -0.01000
S 	S 	0.00000 0.59321 0.35725 -0.01000
S 	S 	0.00000 0.90679 0.35725 -0.01000
S 	S 	0.50000 0.40679 0.85725 -0.01000
S 	S 	0.34321 0.75000 0.60725 -0.01000
S 	S 	0.15679 0.25000 0.10725 -0.01000
S 	S 	0.84321 0.25000 0.10725 -0.01100
S 	S 	0.65679 0.75000 0.60725 -0.01000
S 	S 	0.65679 0.25000 0.39275 -0.01000
S 	S 	0.84321 0.75000 0.89275 -0.01100
