data_crystal

_cell_length_a 22.96300
_cell_length_b 22.96300
_cell_length_c 34.54600
_cell_angle_alpha 90.00000
_cell_angle_beta  90.00000
_cell_angle_gamma 90.00000

_symmetry_space_group_name_	'P 1'
_symmetry_space_group_name_H-M	'P 1'

loop_
_symmetry_equiv_pos_as_xyz
  x,y,z

loop_
_atom_site_label
_atom_site_type_symbol
_atom_site_fract_x
_atom_site_fract_y
_atom_site_fract_z
_atom_site_charge
N 	N 	0.23307 0.08930 0.63810 -0.19600
C 	C 	0.21550 0.12270 0.66703 0.09600
H 	H 	0.24330 0.14480 0.68000 -0.01800
C 	C 	0.15880 0.12670 0.67894 -0.17300
H 	H 	0.14910 0.15100 0.69950 0.09000
C 	C 	0.11565 0.09430 0.66027 0.10700
C 	C 	0.13430 0.06030 0.62941 -0.17700
H 	H 	0.10780 0.03850 0.61520 0.09000
C 	C 	0.19260 0.05930 0.62018 0.10100
H 	H 	0.20420 0.03560 0.59970 -0.01400
C 	C 	0.05417 0.09645 0.67219 -0.03900
C 	C 	0.03119 0.10155 0.70862 -0.02700
C 	C 	0.06515 0.10040 0.74531 0.10300
C 	C 	0.08800 0.05010 0.75954 -0.17300
H 	H 	0.08460 0.01600 0.74520 0.09100
C 	C 	0.11560 0.04870 0.79415 0.09400
H 	H 	0.13000 0.01310 0.80270 -0.01400
N 	N 	0.34535 0.12659 0.56701 -0.20000
C 	C 	0.39540 0.14790 0.55312 0.08800
H 	H 	0.42910 0.14290 0.56770 -0.01900
C 	C 	0.07330 0.14950 0.76832 -0.16800
H 	H 	0.05900 0.18530 0.76010 0.08200
N 	N 	0.73307 0.58930 0.13810 -0.19500
C 	C 	0.71550 0.62270 0.16703 0.09700
H 	H 	0.74330 0.64480 0.18000 -0.01700
C 	C 	0.65880 0.62670 0.17894 -0.17200
H 	H 	0.64910 0.65100 0.19950 0.09100
C 	C 	0.61565 0.59430 0.16027 0.10800
C 	C 	0.63430 0.56030 0.12941 -0.17600
H 	H 	0.60780 0.53850 0.11520 0.09100
C 	C 	0.69260 0.55930 0.12018 0.10200
H 	H 	0.70420 0.53560 0.09970 -0.01300
C 	C 	0.55417 0.59645 0.17219 -0.03900
C 	C 	0.53119 0.60155 0.20862 -0.02700
C 	C 	0.56515 0.60040 0.24531 0.10300
C 	C 	0.58800 0.55010 0.25954 -0.17300
H 	H 	0.58460 0.51600 0.24520 0.09100
C 	C 	0.61560 0.54870 0.29415 0.09400
H 	H 	0.63000 0.51310 0.30270 -0.01400
N 	N 	0.84535 0.62659 0.06701 -0.20000
C 	C 	0.89540 0.64790 0.05312 0.08800
H 	H 	0.92910 0.64290 0.06770 -0.01900
C 	C 	0.57330 0.64950 0.26832 -0.16800
H 	H 	0.55900 0.68530 0.26010 0.08200
N 	N 	0.26693 0.91070 0.13810 -0.19500
C 	C 	0.28450 0.87730 0.16703 0.09700
H 	H 	0.25670 0.85520 0.18000 -0.01700
C 	C 	0.34120 0.87330 0.17894 -0.17200
H 	H 	0.35090 0.84900 0.19950 0.09100
C 	C 	0.38435 0.90570 0.16027 0.10800
C 	C 	0.36570 0.93970 0.12941 -0.17600
H 	H 	0.39220 0.96150 0.11520 0.09100
C 	C 	0.30740 0.94070 0.12018 0.10200
H 	H 	0.29580 0.96440 0.09970 -0.01300
C 	C 	0.44583 0.90355 0.17219 -0.03900
C 	C 	0.46881 0.89845 0.20862 -0.02700
C 	C 	0.43485 0.89960 0.24531 0.10300
C 	C 	0.41200 0.94990 0.25954 -0.17300
H 	H 	0.41540 0.98400 0.24520 0.09100
C 	C 	0.38440 0.95130 0.29415 0.09400
H 	H 	0.37000 0.98690 0.30270 -0.01400
N 	N 	0.15465 0.87341 0.06701 -0.20000
C 	C 	0.10460 0.85210 0.05312 0.08800
H 	H 	0.07090 0.85710 0.06770 -0.01900
C 	C 	0.42670 0.85050 0.26832 -0.16800
H 	H 	0.44100 0.81470 0.26010 0.08200
N 	N 	0.76693 0.41070 0.63810 -0.19500
C 	C 	0.78450 0.37730 0.66703 0.09700
H 	H 	0.75670 0.35520 0.68000 -0.01700
C 	C 	0.84120 0.37330 0.67894 -0.17200
H 	H 	0.85090 0.34900 0.69950 0.09100
C 	C 	0.88435 0.40570 0.66027 0.10800
C 	C 	0.86570 0.43970 0.62941 -0.17600
H 	H 	0.89220 0.46150 0.61520 0.09100
C 	C 	0.80740 0.44070 0.62018 0.10200
H 	H 	0.79580 0.46440 0.59970 -0.01300
C 	C 	0.94583 0.40355 0.67219 -0.03900
C 	C 	0.96881 0.39845 0.70862 -0.02700
C 	C 	0.93485 0.39960 0.74531 0.10300
C 	C 	0.91200 0.44990 0.75954 -0.17300
H 	H 	0.91540 0.48400 0.74520 0.09100
C 	C 	0.88440 0.45130 0.79415 0.09400
H 	H 	0.87000 0.48690 0.80270 -0.01400
N 	N 	0.65465 0.37341 0.56701 -0.20000
C 	C 	0.60460 0.35210 0.55312 0.08800
H 	H 	0.57090 0.35710 0.56770 -0.01900
C 	C 	0.92670 0.35050 0.76832 -0.16800
H 	H 	0.94100 0.31470 0.76010 0.08200
N 	N 	0.16070 0.98307 0.88810 -0.19500
C 	C 	0.12730 0.96550 0.91703 0.09700
H 	H 	0.10520 0.99330 0.93000 -0.01700
C 	C 	0.12330 0.90880 0.92894 -0.17200
H 	H 	0.09900 0.89910 0.94950 0.09100
C 	C 	0.15570 0.86565 0.91027 0.10800
C 	C 	0.18970 0.88430 0.87941 -0.17600
H 	H 	0.21150 0.85780 0.86520 0.09100
C 	C 	0.19070 0.94260 0.87018 0.10200
H 	H 	0.21440 0.95420 0.84970 -0.01300
C 	C 	0.15355 0.80417 0.92219 -0.03900
C 	C 	0.14845 0.78119 0.95862 -0.02700
C 	C 	0.14960 0.81515 0.99531 0.10200
C 	C 	0.19990 0.83800 0.00954 -0.17200
H 	H 	0.23400 0.83460 0.99520 0.09100
C 	C 	0.20130 0.86560 0.04415 0.09400
H 	H 	0.23690 0.88000 0.05270 -0.01400
N 	N 	0.12341 0.09535 0.81701 -0.20000
C 	C 	0.10210 0.14540 0.80312 0.08800
H 	H 	0.10710 0.17910 0.81770 -0.01900
C 	C 	0.10050 0.82330 0.01832 -0.16800
H 	H 	0.06470 0.80900 0.01010 0.08200
N 	N 	0.66070 0.48307 0.38810 -0.19500
C 	C 	0.62730 0.46550 0.41703 0.09700
H 	H 	0.60520 0.49330 0.43000 -0.01700
C 	C 	0.62330 0.40880 0.42894 -0.17200
H 	H 	0.59900 0.39910 0.44950 0.09100
C 	C 	0.65570 0.36565 0.41027 0.10800
C 	C 	0.68970 0.38430 0.37941 -0.17600
H 	H 	0.71150 0.35780 0.36520 0.09100
C 	C 	0.69070 0.44260 0.37018 0.10200
H 	H 	0.71440 0.45420 0.34970 -0.01300
C 	C 	0.65355 0.30417 0.42219 -0.03900
C 	C 	0.64845 0.28119 0.45862 -0.02700
C 	C 	0.64960 0.31515 0.49531 0.10300
C 	C 	0.69990 0.33800 0.50954 -0.17300
H 	H 	0.73400 0.33460 0.49520 0.09100
C 	C 	0.70130 0.36560 0.54415 0.09400
H 	H 	0.73690 0.38000 0.55270 -0.01400
N 	N 	0.62341 0.59535 0.31701 -0.20000
C 	C 	0.60210 0.64540 0.30312 0.08800
H 	H 	0.60710 0.67910 0.31770 -0.01900
C 	C 	0.60050 0.32330 0.51832 -0.16800
H 	H 	0.56470 0.30900 0.51010 0.08200
N 	N 	0.33930 0.01693 0.38810 -0.19500
C 	C 	0.37270 0.03450 0.41703 0.09700
H 	H 	0.39480 0.00670 0.43000 -0.01700
C 	C 	0.37670 0.09120 0.42894 -0.17200
H 	H 	0.40100 0.10090 0.44950 0.09100
C 	C 	0.34430 0.13435 0.41027 0.10800
C 	C 	0.31030 0.11570 0.37941 -0.17600
H 	H 	0.28850 0.14220 0.36520 0.09100
C 	C 	0.30930 0.05740 0.37018 0.10200
H 	H 	0.28560 0.04580 0.34970 -0.01300
C 	C 	0.34645 0.19583 0.42219 -0.03900
C 	C 	0.35155 0.21881 0.45862 -0.02700
C 	C 	0.35040 0.18485 0.49531 0.10300
C 	C 	0.30010 0.16200 0.50954 -0.17300
H 	H 	0.26600 0.16540 0.49520 0.09100
C 	C 	0.29870 0.13440 0.54415 0.09400
H 	H 	0.26310 0.12000 0.55270 -0.01400
N 	N 	0.37659 0.90465 0.31701 -0.20000
C 	C 	0.39790 0.85460 0.30312 0.08800
H 	H 	0.39290 0.82090 0.31770 -0.01900
C 	C 	0.39950 0.17670 0.51832 -0.16800
H 	H 	0.43530 0.19100 0.51010 0.08200
N 	N 	0.83930 0.51693 0.88810 -0.19500
C 	C 	0.87270 0.53450 0.91703 0.09700
H 	H 	0.89480 0.50670 0.93000 -0.01700
C 	C 	0.87670 0.59120 0.92894 -0.17200
H 	H 	0.90100 0.60090 0.94950 0.09100
C 	C 	0.84430 0.63435 0.91027 0.10800
C 	C 	0.81030 0.61570 0.87941 -0.17600
H 	H 	0.78850 0.64220 0.86520 0.09100
C 	C 	0.80930 0.55740 0.87018 0.10200
H 	H 	0.78560 0.54580 0.84970 -0.01300
C 	C 	0.84645 0.69583 0.92219 -0.03900
C 	C 	0.85155 0.71881 0.95862 -0.02700
C 	C 	0.85040 0.68485 0.99531 0.10300
C 	C 	0.80010 0.66200 0.00954 -0.17300
H 	H 	0.76600 0.66540 0.99520 0.09100
C 	C 	0.79870 0.63440 0.04415 0.09400
H 	H 	0.76310 0.62000 0.05270 -0.01400
N 	N 	0.87659 0.40465 0.81701 -0.20000
C 	C 	0.89790 0.35460 0.80312 0.08800
H 	H 	0.89290 0.32090 0.81770 -0.01900
C 	C 	0.89950 0.67670 0.01832 -0.16800
H 	H 	0.93530 0.69100 0.01010 0.08200
N 	N 	0.26693 0.08930 0.86190 -0.19500
C 	C 	0.28450 0.12270 0.83297 0.09700
H 	H 	0.25670 0.14480 0.82000 -0.01700
C 	C 	0.34120 0.12670 0.82106 -0.17200
H 	H 	0.35090 0.15100 0.80050 0.09100
C 	C 	0.38435 0.09430 0.83973 0.10800
C 	C 	0.36570 0.06030 0.87059 -0.17600
H 	H 	0.39220 0.03850 0.88480 0.09100
C 	C 	0.30740 0.05930 0.87982 0.10200
H 	H 	0.29580 0.03560 0.90030 -0.01300
C 	C 	0.44583 0.09645 0.82781 -0.03900
C 	C 	0.46881 0.10155 0.79138 -0.02700
C 	C 	0.43485 0.10040 0.75469 0.10300
C 	C 	0.41200 0.05010 0.74046 -0.17300
H 	H 	0.41540 0.01600 0.75480 0.09100
C 	C 	0.38440 0.04870 0.70585 0.09400
H 	H 	0.37000 0.01310 0.69730 -0.01400
N 	N 	0.15465 0.12659 0.93299 -0.20000
C 	C 	0.10460 0.14790 0.94688 0.08800
H 	H 	0.07090 0.14290 0.93230 -0.01900
C 	C 	0.42670 0.14950 0.73168 -0.16800
H 	H 	0.44100 0.18530 0.73990 0.08200
N 	N 	0.76693 0.58930 0.36190 -0.19500
C 	C 	0.78450 0.62270 0.33297 0.09700
H 	H 	0.75670 0.64480 0.32000 -0.01700
C 	C 	0.84120 0.62670 0.32106 -0.17200
H 	H 	0.85090 0.65100 0.30050 0.09100
C 	C 	0.88435 0.59430 0.33973 0.10800
C 	C 	0.86570 0.56030 0.37059 -0.17600
H 	H 	0.89220 0.53850 0.38480 0.09100
C 	C 	0.80740 0.55930 0.37982 0.10200
H 	H 	0.79580 0.53560 0.40030 -0.01300
C 	C 	0.94583 0.59645 0.32781 -0.03900
C 	C 	0.96881 0.60155 0.29138 -0.02700
C 	C 	0.93485 0.60040 0.25469 0.10300
C 	C 	0.91200 0.55010 0.24046 -0.17300
H 	H 	0.91540 0.51600 0.25480 0.09100
C 	C 	0.88440 0.54870 0.20585 0.09400
H 	H 	0.87000 0.51310 0.19730 -0.01400
N 	N 	0.65465 0.62659 0.43299 -0.20000
C 	C 	0.60460 0.64790 0.44688 0.08800
H 	H 	0.57090 0.64290 0.43230 -0.01900
C 	C 	0.92670 0.64950 0.23168 -0.16800
H 	H 	0.94100 0.68530 0.23990 0.08200
N 	N 	0.23307 0.91070 0.36190 -0.19500
C 	C 	0.21550 0.87730 0.33297 0.09700
H 	H 	0.24330 0.85520 0.32000 -0.01700
C 	C 	0.15880 0.87330 0.32106 -0.17200
H 	H 	0.14910 0.84900 0.30050 0.09100
C 	C 	0.11565 0.90570 0.33973 0.10800
C 	C 	0.13430 0.93970 0.37059 -0.17600
H 	H 	0.10780 0.96150 0.38480 0.09100
C 	C 	0.19260 0.94070 0.37982 0.10200
H 	H 	0.20420 0.96440 0.40030 -0.01300
C 	C 	0.05417 0.90355 0.32781 -0.03900
C 	C 	0.03119 0.89845 0.29138 -0.02700
C 	C 	0.06515 0.89960 0.25469 0.10300
C 	C 	0.08800 0.94990 0.24046 -0.17300
H 	H 	0.08460 0.98400 0.25480 0.09100
C 	C 	0.11560 0.95130 0.20585 0.09400
H 	H 	0.13000 0.98690 0.19730 -0.01400
N 	N 	0.34535 0.87341 0.43299 -0.20000
C 	C 	0.39540 0.85210 0.44688 0.08800
H 	H 	0.42910 0.85710 0.43230 -0.01900
C 	C 	0.07330 0.85050 0.23168 -0.16800
H 	H 	0.05900 0.81470 0.23990 0.08200
N 	N 	0.73307 0.41070 0.86190 -0.19500
C 	C 	0.71550 0.37730 0.83297 0.09700
H 	H 	0.74330 0.35520 0.82000 -0.01700
C 	C 	0.65880 0.37330 0.82106 -0.17200
H 	H 	0.64910 0.34900 0.80050 0.09100
C 	C 	0.61565 0.40570 0.83973 0.10800
C 	C 	0.63430 0.43970 0.87059 -0.17600
H 	H 	0.60780 0.46150 0.88480 0.09100
C 	C 	0.69260 0.44070 0.87982 0.10200
H 	H 	0.70420 0.46440 0.90030 -0.01300
C 	C 	0.55417 0.40355 0.82781 -0.03900
C 	C 	0.53119 0.39845 0.79138 -0.02700
C 	C 	0.56515 0.39960 0.75469 0.10300
C 	C 	0.58800 0.44990 0.74046 -0.17300
H 	H 	0.58460 0.48400 0.75480 0.09100
C 	C 	0.61560 0.45130 0.70585 0.09400
H 	H 	0.63000 0.48690 0.69730 -0.01400
N 	N 	0.84535 0.37341 0.93299 -0.20000
C 	C 	0.89540 0.35210 0.94688 0.08800
H 	H 	0.92910 0.35710 0.93230 -0.01900
C 	C 	0.57330 0.35050 0.73168 -0.16800
H 	H 	0.55900 0.31470 0.73990 0.08200
N 	N 	0.33930 0.98307 0.61190 -0.19500
C 	C 	0.37270 0.96550 0.58297 0.09700
H 	H 	0.39480 0.99330 0.57000 -0.01700
C 	C 	0.37670 0.90880 0.57106 -0.17200
H 	H 	0.40100 0.89910 0.55050 0.09100
C 	C 	0.34430 0.86565 0.58973 0.10800
C 	C 	0.31030 0.88430 0.62059 -0.17600
H 	H 	0.28850 0.85780 0.63480 0.09100
C 	C 	0.30930 0.94260 0.62982 0.10200
H 	H 	0.28560 0.95420 0.65030 -0.01300
C 	C 	0.34645 0.80417 0.57781 -0.03900
C 	C 	0.35155 0.78119 0.54138 -0.02700
C 	C 	0.35040 0.81515 0.50469 0.10300
C 	C 	0.30010 0.83800 0.49046 -0.17300
H 	H 	0.26600 0.83460 0.50480 0.09100
C 	C 	0.29870 0.86560 0.45585 0.09400
H 	H 	0.26310 0.88000 0.44730 -0.01400
N 	N 	0.37659 0.09535 0.68299 -0.20000
C 	C 	0.39790 0.14540 0.69688 0.08800
H 	H 	0.39290 0.17910 0.68230 -0.01900
C 	C 	0.39950 0.82330 0.48168 -0.16800
H 	H 	0.43530 0.80900 0.48990 0.08200
N 	N 	0.83930 0.48307 0.11190 -0.19500
C 	C 	0.87270 0.46550 0.08297 0.09700
H 	H 	0.89480 0.49330 0.07000 -0.01700
C 	C 	0.87670 0.40880 0.07106 -0.17200
H 	H 	0.90100 0.39910 0.05050 0.09100
C 	C 	0.84430 0.36565 0.08973 0.10800
C 	C 	0.81030 0.38430 0.12059 -0.17600
H 	H 	0.78850 0.35780 0.13480 0.09100
C 	C 	0.80930 0.44260 0.12982 0.10200
H 	H 	0.78560 0.45420 0.15030 -0.01300
C 	C 	0.84645 0.30417 0.07781 -0.03900
C 	C 	0.85155 0.28119 0.04138 -0.02700
C 	C 	0.85040 0.31515 0.00469 0.10300
C 	C 	0.80010 0.33800 0.99046 -0.17300
H 	H 	0.76600 0.33460 0.00480 0.09100
C 	C 	0.79870 0.36560 0.95585 0.09400
H 	H 	0.76310 0.38000 0.94730 -0.01400
N 	N 	0.87659 0.59535 0.18299 -0.20000
C 	C 	0.89790 0.64540 0.19688 0.08800
H 	H 	0.89290 0.67910 0.18230 -0.01900
C 	C 	0.89950 0.32330 0.98168 -0.16800
H 	H 	0.93530 0.30900 0.98990 0.08200
N 	N 	0.16070 0.01693 0.11190 -0.19500
C 	C 	0.12730 0.03450 0.08297 0.09700
H 	H 	0.10520 0.00670 0.07000 -0.01700
C 	C 	0.12330 0.09120 0.07106 -0.17200
H 	H 	0.09900 0.10090 0.05050 0.09100
C 	C 	0.15570 0.13435 0.08973 0.10800
C 	C 	0.18970 0.11570 0.12059 -0.17600
H 	H 	0.21150 0.14220 0.13480 0.09100
C 	C 	0.19070 0.05740 0.12982 0.10200
H 	H 	0.21440 0.04580 0.15030 -0.01300
C 	C 	0.15355 0.19583 0.07781 -0.03900
C 	C 	0.14845 0.21881 0.04138 -0.02700
C 	C 	0.14960 0.18485 0.00469 0.10200
C 	C 	0.19990 0.16200 0.99046 -0.17200
H 	H 	0.23400 0.16540 0.00480 0.09100
C 	C 	0.20130 0.13440 0.95585 0.09400
H 	H 	0.23690 0.12000 0.94730 -0.01400
N 	N 	0.12341 0.90465 0.18299 -0.20000
C 	C 	0.10210 0.85460 0.19688 0.08800
H 	H 	0.10710 0.82090 0.18230 -0.01900
C 	C 	0.10050 0.17670 0.98168 -0.16800
H 	H 	0.06470 0.19100 0.98990 0.08200
N 	N 	0.66070 0.51693 0.61190 -0.19500
C 	C 	0.62730 0.53450 0.58297 0.09700
H 	H 	0.60520 0.50670 0.57000 -0.01700
C 	C 	0.62330 0.59120 0.57106 -0.17200
H 	H 	0.59900 0.60090 0.55050 0.09100
C 	C 	0.65570 0.63435 0.58973 0.10800
C 	C 	0.68970 0.61570 0.62059 -0.17600
H 	H 	0.71150 0.64220 0.63480 0.09100
C 	C 	0.69070 0.55740 0.62982 0.10200
H 	H 	0.71440 0.54580 0.65030 -0.01300
C 	C 	0.65355 0.69583 0.57781 -0.03900
C 	C 	0.64845 0.71881 0.54138 -0.02700
C 	C 	0.64960 0.68485 0.50469 0.10300
C 	C 	0.69990 0.66200 0.49046 -0.17300
H 	H 	0.73400 0.66540 0.50480 0.09100
C 	C 	0.70130 0.63440 0.45585 0.09400
H 	H 	0.73690 0.62000 0.44730 -0.01400
N 	N 	0.62341 0.40465 0.68299 -0.20000
C 	C 	0.60210 0.35460 0.69688 0.08800
H 	H 	0.60710 0.32090 0.68230 -0.01900
C 	C 	0.60050 0.67670 0.48168 -0.16800
H 	H 	0.56470 0.69100 0.48990 0.08200
N 	N 	0.76693 0.91070 0.36190 -0.19500
C 	C 	0.78450 0.87730 0.33297 0.09700
H 	H 	0.75670 0.85520 0.32000 -0.01700
C 	C 	0.84120 0.87330 0.32106 -0.17200
H 	H 	0.85090 0.84900 0.30050 0.09100
C 	C 	0.88435 0.90570 0.33973 0.10800
C 	C 	0.86570 0.93970 0.37059 -0.17600
H 	H 	0.89220 0.96150 0.38480 0.09100
C 	C 	0.80740 0.94070 0.37982 0.10200
H 	H 	0.79580 0.96440 0.40030 -0.01300
C 	C 	0.94583 0.90355 0.32781 -0.03900
C 	C 	0.96881 0.89845 0.29138 -0.02700
C 	C 	0.93485 0.89960 0.25469 0.10300
C 	C 	0.91200 0.94990 0.24046 -0.17300
H 	H 	0.91540 0.98400 0.25480 0.09100
C 	C 	0.88440 0.95130 0.20585 0.09400
H 	H 	0.87000 0.98690 0.19730 -0.01400
N 	N 	0.65465 0.87341 0.43299 -0.20000
C 	C 	0.60460 0.85210 0.44688 0.08800
H 	H 	0.57090 0.85710 0.43230 -0.01900
C 	C 	0.92670 0.85050 0.23168 -0.16800
H 	H 	0.94100 0.81470 0.23990 0.08200
N 	N 	0.26693 0.41070 0.86190 -0.19500
C 	C 	0.28450 0.37730 0.83297 0.09700
H 	H 	0.25670 0.35520 0.82000 -0.01700
C 	C 	0.34120 0.37330 0.82106 -0.17200
H 	H 	0.35090 0.34900 0.80050 0.09100
C 	C 	0.38435 0.40570 0.83973 0.10800
C 	C 	0.36570 0.43970 0.87059 -0.17600
H 	H 	0.39220 0.46150 0.88480 0.09100
C 	C 	0.30740 0.44070 0.87982 0.10200
H 	H 	0.29580 0.46440 0.90030 -0.01300
C 	C 	0.44583 0.40355 0.82781 -0.03900
C 	C 	0.46881 0.39845 0.79138 -0.02700
C 	C 	0.43485 0.39960 0.75469 0.10300
C 	C 	0.41200 0.44990 0.74046 -0.17300
H 	H 	0.41540 0.48400 0.75480 0.09100
C 	C 	0.38440 0.45130 0.70585 0.09400
H 	H 	0.37000 0.48690 0.69730 -0.01400
N 	N 	0.15465 0.37341 0.93299 -0.20000
C 	C 	0.10460 0.35210 0.94688 0.08800
H 	H 	0.07090 0.35710 0.93230 -0.01900
C 	C 	0.42670 0.35050 0.73168 -0.16800
H 	H 	0.44100 0.31470 0.73990 0.08200
N 	N 	0.73307 0.08930 0.86190 -0.19500
C 	C 	0.71550 0.12270 0.83297 0.09700
H 	H 	0.74330 0.14480 0.82000 -0.01700
C 	C 	0.65880 0.12670 0.82106 -0.17200
H 	H 	0.64910 0.15100 0.80050 0.09100
C 	C 	0.61565 0.09430 0.83973 0.10800
C 	C 	0.63430 0.06030 0.87059 -0.17600
H 	H 	0.60780 0.03850 0.88480 0.09100
C 	C 	0.69260 0.05930 0.87982 0.10200
H 	H 	0.70420 0.03560 0.90030 -0.01300
C 	C 	0.55417 0.09645 0.82781 -0.03900
C 	C 	0.53119 0.10155 0.79138 -0.02700
C 	C 	0.56515 0.10040 0.75469 0.10300
C 	C 	0.58800 0.05010 0.74046 -0.17300
H 	H 	0.58460 0.01600 0.75480 0.09100
C 	C 	0.61560 0.04870 0.70585 0.09400
H 	H 	0.63000 0.01310 0.69730 -0.01400
N 	N 	0.84535 0.12659 0.93299 -0.20000
C 	C 	0.89540 0.14790 0.94688 0.08800
H 	H 	0.92910 0.14290 0.93230 -0.01900
C 	C 	0.57330 0.14950 0.73168 -0.16800
H 	H 	0.55900 0.18530 0.73990 0.08200
N 	N 	0.23307 0.58930 0.36190 -0.19500
C 	C 	0.21550 0.62270 0.33297 0.09700
H 	H 	0.24330 0.64480 0.32000 -0.01700
C 	C 	0.15880 0.62670 0.32106 -0.17200
H 	H 	0.14910 0.65100 0.30050 0.09100
C 	C 	0.11565 0.59430 0.33973 0.10800
C 	C 	0.13430 0.56030 0.37059 -0.17600
H 	H 	0.10780 0.53850 0.38480 0.09100
C 	C 	0.19260 0.55930 0.37982 0.10200
H 	H 	0.20420 0.53560 0.40030 -0.01300
C 	C 	0.05417 0.59645 0.32781 -0.03900
C 	C 	0.03119 0.60155 0.29138 -0.02700
C 	C 	0.06515 0.60040 0.25469 0.10300
C 	C 	0.08800 0.55010 0.24046 -0.17300
H 	H 	0.08460 0.51600 0.25480 0.09100
C 	C 	0.11560 0.54870 0.20585 0.09400
H 	H 	0.13000 0.51310 0.19730 -0.01400
N 	N 	0.34535 0.62659 0.43299 -0.20000
C 	C 	0.39540 0.64790 0.44688 0.08800
H 	H 	0.42910 0.64290 0.43230 -0.01900
C 	C 	0.07330 0.64950 0.23168 -0.16800
H 	H 	0.05900 0.68530 0.23990 0.08200
N 	N 	0.83930 0.01693 0.11190 -0.19500
C 	C 	0.87270 0.03450 0.08297 0.09700
H 	H 	0.89480 0.00670 0.07000 -0.01700
C 	C 	0.87670 0.09120 0.07106 -0.17200
H 	H 	0.90100 0.10090 0.05050 0.09100
C 	C 	0.84430 0.13435 0.08973 0.10800
C 	C 	0.81030 0.11570 0.12059 -0.17600
H 	H 	0.78850 0.14220 0.13480 0.09100
C 	C 	0.80930 0.05740 0.12982 0.10200
H 	H 	0.78560 0.04580 0.15030 -0.01300
C 	C 	0.84645 0.19583 0.07781 -0.03900
C 	C 	0.85155 0.21881 0.04138 -0.02700
C 	C 	0.85040 0.18485 0.00469 0.10200
C 	C 	0.80010 0.16200 0.99046 -0.17200
H 	H 	0.76600 0.16540 0.00480 0.09100
C 	C 	0.79870 0.13440 0.95585 0.09400
H 	H 	0.76310 0.12000 0.94730 -0.01400
N 	N 	0.87659 0.90465 0.18299 -0.20000
C 	C 	0.89790 0.85460 0.19688 0.08800
H 	H 	0.89290 0.82090 0.18230 -0.01900
C 	C 	0.89950 0.17670 0.98168 -0.16800
H 	H 	0.93530 0.19100 0.98990 0.08200
N 	N 	0.33930 0.51693 0.61190 -0.19500
C 	C 	0.37270 0.53450 0.58297 0.09700
H 	H 	0.39480 0.50670 0.57000 -0.01700
C 	C 	0.37670 0.59120 0.57106 -0.17200
H 	H 	0.40100 0.60090 0.55050 0.09100
C 	C 	0.34430 0.63435 0.58973 0.10800
C 	C 	0.31030 0.61570 0.62059 -0.17600
H 	H 	0.28850 0.64220 0.63480 0.09100
C 	C 	0.30930 0.55740 0.62982 0.10200
H 	H 	0.28560 0.54580 0.65030 -0.01300
C 	C 	0.34645 0.69583 0.57781 -0.03900
C 	C 	0.35155 0.71881 0.54138 -0.02700
C 	C 	0.35040 0.68485 0.50469 0.10300
C 	C 	0.30010 0.66200 0.49046 -0.17300
H 	H 	0.26600 0.66540 0.50480 0.09100
C 	C 	0.29870 0.63440 0.45585 0.09400
H 	H 	0.26310 0.62000 0.44730 -0.01400
N 	N 	0.37659 0.40465 0.68299 -0.20000
C 	C 	0.39790 0.35460 0.69688 0.08800
H 	H 	0.39290 0.32090 0.68230 -0.01900
C 	C 	0.39950 0.67670 0.48168 -0.16800
H 	H 	0.43530 0.69100 0.48990 0.08200
N 	N 	0.66070 0.98307 0.61190 -0.19500
C 	C 	0.62730 0.96550 0.58297 0.09700
H 	H 	0.60520 0.99330 0.57000 -0.01700
C 	C 	0.62330 0.90880 0.57106 -0.17200
H 	H 	0.59900 0.89910 0.55050 0.09100
C 	C 	0.65570 0.86565 0.58973 0.10800
C 	C 	0.68970 0.88430 0.62059 -0.17600
H 	H 	0.71150 0.85780 0.63480 0.09100
C 	C 	0.69070 0.94260 0.62982 0.10200
H 	H 	0.71440 0.95420 0.65030 -0.01300
C 	C 	0.65355 0.80417 0.57781 -0.03900
C 	C 	0.64845 0.78119 0.54138 -0.02700
C 	C 	0.64960 0.81515 0.50469 0.10300
C 	C 	0.69990 0.83800 0.49046 -0.17300
H 	H 	0.73400 0.83460 0.50480 0.09100
C 	C 	0.70130 0.86560 0.45585 0.09400
H 	H 	0.73690 0.88000 0.44730 -0.01400
N 	N 	0.62341 0.09535 0.68299 -0.20000
C 	C 	0.60210 0.14540 0.69688 0.08800
H 	H 	0.60710 0.17910 0.68230 -0.01900
C 	C 	0.60050 0.82330 0.48168 -0.16800
H 	H 	0.56470 0.80900 0.48990 0.08200
N 	N 	0.16070 0.48307 0.11190 -0.19500
C 	C 	0.12730 0.46550 0.08297 0.09700
H 	H 	0.10520 0.49330 0.07000 -0.01700
C 	C 	0.12330 0.40880 0.07106 -0.17200
H 	H 	0.09900 0.39910 0.05050 0.09100
C 	C 	0.15570 0.36565 0.08973 0.10800
C 	C 	0.18970 0.38430 0.12059 -0.17600
H 	H 	0.21150 0.35780 0.13480 0.09100
C 	C 	0.19070 0.44260 0.12982 0.10200
H 	H 	0.21440 0.45420 0.15030 -0.01300
C 	C 	0.15355 0.30417 0.07781 -0.03900
C 	C 	0.14845 0.28119 0.04138 -0.02700
C 	C 	0.14960 0.31515 0.00469 0.10300
C 	C 	0.19990 0.33800 0.99046 -0.17300
H 	H 	0.23400 0.33460 0.00480 0.09100
C 	C 	0.20130 0.36560 0.95585 0.09400
H 	H 	0.23690 0.38000 0.94730 -0.01400
N 	N 	0.12341 0.59535 0.18299 -0.20000
C 	C 	0.10210 0.64540 0.19688 0.08800
H 	H 	0.10710 0.67910 0.18230 -0.01900
C 	C 	0.10050 0.32330 0.98168 -0.16800
H 	H 	0.06470 0.30900 0.98990 0.08200
N 	N 	0.73307 0.91070 0.13810 -0.19500
C 	C 	0.71550 0.87730 0.16703 0.09700
H 	H 	0.74330 0.85520 0.18000 -0.01700
C 	C 	0.65880 0.87330 0.17894 -0.17200
H 	H 	0.64910 0.84900 0.19950 0.09100
C 	C 	0.61565 0.90570 0.16027 0.10800
C 	C 	0.63430 0.93970 0.12941 -0.17600
H 	H 	0.60780 0.96150 0.11520 0.09100
C 	C 	0.69260 0.94070 0.12018 0.10200
H 	H 	0.70420 0.96440 0.09970 -0.01300
C 	C 	0.55417 0.90355 0.17219 -0.03900
C 	C 	0.53119 0.89845 0.20862 -0.02700
C 	C 	0.56515 0.89960 0.24531 0.10300
C 	C 	0.58800 0.94990 0.25954 -0.17300
H 	H 	0.58460 0.98400 0.24520 0.09100
C 	C 	0.61560 0.95130 0.29415 0.09400
H 	H 	0.63000 0.98690 0.30270 -0.01400
N 	N 	0.84535 0.87341 0.06701 -0.20000
C 	C 	0.89540 0.85210 0.05312 0.08800
H 	H 	0.92910 0.85710 0.06770 -0.01900
C 	C 	0.57330 0.85050 0.26832 -0.16800
H 	H 	0.55900 0.81470 0.26010 0.08200
N 	N 	0.23307 0.41070 0.63810 -0.19500
C 	C 	0.21550 0.37730 0.66703 0.09700
H 	H 	0.24330 0.35520 0.68000 -0.01700
C 	C 	0.15880 0.37330 0.67894 -0.17200
H 	H 	0.14910 0.34900 0.69950 0.09100
C 	C 	0.11565 0.40570 0.66027 0.10800
C 	C 	0.13430 0.43970 0.62941 -0.17600
H 	H 	0.10780 0.46150 0.61520 0.09100
C 	C 	0.19260 0.44070 0.62018 0.10200
H 	H 	0.20420 0.46440 0.59970 -0.01300
C 	C 	0.05417 0.40355 0.67219 -0.03900
C 	C 	0.03119 0.39845 0.70862 -0.02700
C 	C 	0.06515 0.39960 0.74531 0.10300
C 	C 	0.08800 0.44990 0.75954 -0.17300
H 	H 	0.08460 0.48400 0.74520 0.09100
C 	C 	0.11560 0.45130 0.79415 0.09400
H 	H 	0.13000 0.48690 0.80270 -0.01400
N 	N 	0.34535 0.37341 0.56701 -0.20000
C 	C 	0.39540 0.35210 0.55312 0.08800
H 	H 	0.42910 0.35710 0.56770 -0.01900
C 	C 	0.07330 0.35050 0.76832 -0.16800
H 	H 	0.05900 0.31470 0.76010 0.08200
N 	N 	0.76693 0.08930 0.63810 -0.19500
C 	C 	0.78450 0.12270 0.66703 0.09700
H 	H 	0.75670 0.14480 0.68000 -0.01700
C 	C 	0.84120 0.12670 0.67894 -0.17200
H 	H 	0.85090 0.15100 0.69950 0.09100
C 	C 	0.88435 0.09430 0.66027 0.10800
C 	C 	0.86570 0.06030 0.62941 -0.17600
H 	H 	0.89220 0.03850 0.61520 0.09100
C 	C 	0.80740 0.05930 0.62018 0.10200
H 	H 	0.79580 0.03560 0.59970 -0.01300
C 	C 	0.94583 0.09645 0.67219 -0.03900
C 	C 	0.96881 0.10155 0.70862 -0.02700
C 	C 	0.93485 0.10040 0.74531 0.10300
C 	C 	0.91200 0.05010 0.75954 -0.17300
H 	H 	0.91540 0.01600 0.74520 0.09100
C 	C 	0.88440 0.04870 0.79415 0.09400
H 	H 	0.87000 0.01310 0.80270 -0.01400
N 	N 	0.65465 0.12659 0.56701 -0.20000
C 	C 	0.60460 0.14790 0.55312 0.08800
H 	H 	0.57090 0.14290 0.56770 -0.01900
C 	C 	0.92670 0.14950 0.76832 -0.16800
H 	H 	0.94100 0.18530 0.76010 0.08200
N 	N 	0.26693 0.58930 0.13810 -0.19500
C 	C 	0.28450 0.62270 0.16703 0.09700
H 	H 	0.25670 0.64480 0.18000 -0.01700
C 	C 	0.34120 0.62670 0.17894 -0.17200
H 	H 	0.35090 0.65100 0.19950 0.09100
C 	C 	0.38435 0.59430 0.16027 0.10800
C 	C 	0.36570 0.56030 0.12941 -0.17600
H 	H 	0.39220 0.53850 0.11520 0.09100
C 	C 	0.30740 0.55930 0.12018 0.10200
H 	H 	0.29580 0.53560 0.09970 -0.01300
C 	C 	0.44583 0.59645 0.17219 -0.03900
C 	C 	0.46881 0.60155 0.20862 -0.02700
C 	C 	0.43485 0.60040 0.24531 0.10300
C 	C 	0.41200 0.55010 0.25954 -0.17300
H 	H 	0.41540 0.51600 0.24520 0.09100
C 	C 	0.38440 0.54870 0.29415 0.09400
H 	H 	0.37000 0.51310 0.30270 -0.01400
N 	N 	0.15465 0.62659 0.06701 -0.20000
C 	C 	0.10460 0.64790 0.05312 0.08800
H 	H 	0.07090 0.64290 0.06770 -0.01900
C 	C 	0.42670 0.64950 0.26832 -0.16800
H 	H 	0.44100 0.68530 0.26010 0.08200
N 	N 	0.66070 0.01693 0.38810 -0.19500
C 	C 	0.62730 0.03450 0.41703 0.09700
H 	H 	0.60520 0.00670 0.43000 -0.01700
C 	C 	0.62330 0.09120 0.42894 -0.17200
H 	H 	0.59900 0.10090 0.44950 0.09100
C 	C 	0.65570 0.13435 0.41027 0.10800
C 	C 	0.68970 0.11570 0.37941 -0.17600
H 	H 	0.71150 0.14220 0.36520 0.09100
C 	C 	0.69070 0.05740 0.37018 0.10200
H 	H 	0.71440 0.04580 0.34970 -0.01300
C 	C 	0.65355 0.19583 0.42219 -0.03900
C 	C 	0.64845 0.21881 0.45862 -0.02700
C 	C 	0.64960 0.18485 0.49531 0.10300
C 	C 	0.69990 0.16200 0.50954 -0.17300
H 	H 	0.73400 0.16540 0.49520 0.09100
C 	C 	0.70130 0.13440 0.54415 0.09400
H 	H 	0.73690 0.12000 0.55270 -0.01400
N 	N 	0.62341 0.90465 0.31701 -0.20000
C 	C 	0.60210 0.85460 0.30312 0.08800
H 	H 	0.60710 0.82090 0.31770 -0.01900
C 	C 	0.60050 0.17670 0.51832 -0.16800
H 	H 	0.56470 0.19100 0.51010 0.08200
N 	N 	0.16070 0.51693 0.88810 -0.19500
C 	C 	0.12730 0.53450 0.91703 0.09700
H 	H 	0.10520 0.50670 0.93000 -0.01700
C 	C 	0.12330 0.59120 0.92894 -0.17200
H 	H 	0.09900 0.60090 0.94950 0.09100
C 	C 	0.15570 0.63435 0.91027 0.10800
C 	C 	0.18970 0.61570 0.87941 -0.17600
H 	H 	0.21150 0.64220 0.86520 0.09100
C 	C 	0.19070 0.55740 0.87018 0.10200
H 	H 	0.21440 0.54580 0.84970 -0.01300
C 	C 	0.15355 0.69583 0.92219 -0.03900
C 	C 	0.14845 0.71881 0.95862 -0.02700
C 	C 	0.14960 0.68485 0.99531 0.10300
C 	C 	0.19990 0.66200 0.00954 -0.17300
H 	H 	0.23400 0.66540 0.99520 0.09100
C 	C 	0.20130 0.63440 0.04415 0.09400
H 	H 	0.23690 0.62000 0.05270 -0.01400
N 	N 	0.12341 0.40465 0.81701 -0.20000
C 	C 	0.10210 0.35460 0.80312 0.08800
H 	H 	0.10710 0.32090 0.81770 -0.01900
C 	C 	0.10050 0.67670 0.01832 -0.16800
H 	H 	0.06470 0.69100 0.01010 0.08200
N 	N 	0.83930 0.98307 0.88810 -0.19500
C 	C 	0.87270 0.96550 0.91703 0.09700
H 	H 	0.89480 0.99330 0.93000 -0.01700
C 	C 	0.87670 0.90880 0.92894 -0.17200
H 	H 	0.90100 0.89910 0.94950 0.09100
C 	C 	0.84430 0.86565 0.91027 0.10800
C 	C 	0.81030 0.88430 0.87941 -0.17600
H 	H 	0.78850 0.85780 0.86520 0.09100
C 	C 	0.80930 0.94260 0.87018 0.10200
H 	H 	0.78560 0.95420 0.84970 -0.01300
C 	C 	0.84645 0.80417 0.92219 -0.03900
C 	C 	0.85155 0.78119 0.95862 -0.02700
C 	C 	0.85040 0.81515 0.99531 0.10200
C 	C 	0.80010 0.83800 0.00954 -0.17200
H 	H 	0.76600 0.83460 0.99520 0.09100
C 	C 	0.79870 0.86560 0.04415 0.09400
H 	H 	0.76310 0.88000 0.05270 -0.01400
N 	N 	0.87659 0.09535 0.81701 -0.20000
C 	C 	0.89790 0.14540 0.80312 0.08800
H 	H 	0.89290 0.17910 0.81770 -0.01900
C 	C 	0.89950 0.82330 0.01832 -0.16800
H 	H 	0.93530 0.80900 0.01010 0.08200
N 	N 	0.33930 0.48307 0.38810 -0.19500
C 	C 	0.37270 0.46550 0.41703 0.09700
H 	H 	0.39480 0.49330 0.43000 -0.01700
C 	C 	0.37670 0.40880 0.42894 -0.17200
H 	H 	0.40100 0.39910 0.44950 0.09100
C 	C 	0.34430 0.36565 0.41027 0.10800
C 	C 	0.31030 0.38430 0.37941 -0.17600
H 	H 	0.28850 0.35780 0.36520 0.09100
C 	C 	0.30930 0.44260 0.37018 0.10200
H 	H 	0.28560 0.45420 0.34970 -0.01300
C 	C 	0.34645 0.30417 0.42219 -0.03900
C 	C 	0.35155 0.28119 0.45862 -0.02700
C 	C 	0.35040 0.31515 0.49531 0.10300
C 	C 	0.30010 0.33800 0.50954 -0.17300
H 	H 	0.26600 0.33460 0.49520 0.09100
C 	C 	0.29870 0.36560 0.54415 0.09400
H 	H 	0.26310 0.38000 0.55270 -0.01400
N 	N 	0.37659 0.59535 0.31701 -0.20000
C 	C 	0.39790 0.64540 0.30312 0.08800
H 	H 	0.39290 0.67910 0.31770 -0.01900
C 	C 	0.39950 0.32330 0.51832 -0.16800
H 	H 	0.43530 0.30900 0.51010 0.08200
Ag	Ag	0.33398 0.08398 0.62500 0.54000
Ag	Ag	0.83398 0.58398 0.12500 0.53900
Ag	Ag	0.16602 0.91602 0.12500 0.54000
Ag	Ag	0.66602 0.41602 0.62500 0.53900
Ag	Ag	0.16602 0.08398 0.87500 0.54000
Ag	Ag	0.66602 0.58398 0.37500 0.53900
Ag	Ag	0.33398 0.91602 0.37500 0.54000
Ag	Ag	0.83398 0.41602 0.87500 0.53900
Ag	Ag	0.66602 0.91602 0.37500 0.53900
Ag	Ag	0.16602 0.41602 0.87500 0.54000
Ag	Ag	0.83398 0.08398 0.87500 0.53900
Ag	Ag	0.33398 0.58398 0.37500 0.53900
Ag	Ag	0.83398 0.91602 0.12500 0.53900
Ag	Ag	0.33398 0.41602 0.62500 0.53900
Ag	Ag	0.66602 0.08398 0.62500 0.53900
Ag	Ag	0.16602 0.58398 0.12500 0.54000
S 	S 	-0.00000 0.09255 0.63801 -0.00600
S 	S 	0.50000 0.59255 0.13801 -0.00700
S 	S 	0.50000 0.90745 0.13801 -0.00700
S 	S 	-0.00000 0.40745 0.63801 -0.00600
S 	S 	0.15745 0.75000 0.88801 -0.00700
S 	S 	0.34255 0.25000 0.38801 -0.00700
S 	S 	0.50000 0.09255 0.86199 -0.00700
S 	S 	-0.00000 0.59255 0.36199 -0.00600
S 	S 	0.00000 0.90745 0.36199 -0.00600
S 	S 	0.50000 0.40745 0.86199 -0.00700
S 	S 	0.34255 0.75000 0.61199 -0.00700
S 	S 	0.15745 0.25000 0.11199 -0.00700
S 	S 	0.84255 0.25000 0.11199 -0.00700
S 	S 	0.65745 0.75000 0.61199 -0.00700
S 	S 	0.65745 0.25000 0.38801 -0.00700
S 	S 	0.84255 0.75000 0.88801 -0.00700
