data_crystal

_cell_length_a 22.63600
_cell_length_b 22.63600
_cell_length_c 35.39300
_cell_angle_alpha 90.00000
_cell_angle_beta  90.00000
_cell_angle_gamma 90.00000

_symmetry_space_group_name_	'P 1'
_symmetry_space_group_name_H-M	'P 1'

loop_
_symmetry_equiv_pos_as_xyz
  x,y,z

loop_
_atom_site_label
_atom_site_type_symbol
_atom_site_fract_x
_atom_site_fract_y
_atom_site_fract_z
_atom_site_charge
N 	N 	0.23512 0.09194 0.64049 -0.19300
C 	C 	0.21733 0.12485 0.66954 0.09600
H 	H 	0.24550 0.14730 0.68220 -0.01600
C 	C 	0.16035 0.12773 0.68193 -0.17600
H 	H 	0.15050 0.15170 0.70230 0.09100
C 	C 	0.11730 0.09469 0.66391 0.10800
C 	C 	0.13478 0.06016 0.63380 -0.17100
H 	H 	0.10740 0.03740 0.62080 0.08800
C 	C 	0.19411 0.05989 0.62317 0.09000
H 	H 	0.20550 0.03610 0.60300 -0.01000
C 	C 	0.05478 0.09583 0.67599 -0.03800
C 	C 	0.03144 0.10007 0.71144 -0.03100
C 	C 	0.06519 0.09951 0.74734 0.11500
C 	C 	0.08324 0.04764 0.76305 -0.18100
H 	H 	0.07660 0.01210 0.75060 0.09200
C 	C 	0.11162 0.04834 0.79782 0.10000
H 	H 	0.12280 0.01230 0.80820 -0.01800
N 	N 	0.12380 0.09621 0.81705 -0.20800
C 	C 	0.10759 0.14606 0.80130 0.10200
H 	H 	0.11650 0.18120 0.81370 -0.02600
C 	C 	0.07782 0.14906 0.76719 -0.18600
H 	H 	0.06630 0.18570 0.75780 0.08600
N 	N 	0.73512 0.59194 0.14049 -0.19300
C 	C 	0.71733 0.62485 0.16954 0.09600
H 	H 	0.74550 0.64730 0.18220 -0.01600
C 	C 	0.66035 0.62773 0.18193 -0.17500
H 	H 	0.65050 0.65170 0.20230 0.09100
C 	C 	0.61730 0.59469 0.16391 0.10800
C 	C 	0.63478 0.56016 0.13380 -0.17100
H 	H 	0.60740 0.53740 0.12080 0.08800
C 	C 	0.69411 0.55989 0.12317 0.09000
H 	H 	0.70550 0.53610 0.10300 -0.01000
C 	C 	0.55478 0.59583 0.17599 -0.03800
C 	C 	0.53144 0.60007 0.21144 -0.03200
C 	C 	0.56519 0.59951 0.24734 0.11500
C 	C 	0.58324 0.54764 0.26305 -0.18100
H 	H 	0.57660 0.51210 0.25060 0.09300
C 	C 	0.61162 0.54834 0.29782 0.10100
H 	H 	0.62280 0.51230 0.30820 -0.01700
N 	N 	0.62380 0.59621 0.31705 -0.20700
C 	C 	0.60759 0.64606 0.30130 0.10300
H 	H 	0.61650 0.68120 0.31370 -0.02500
C 	C 	0.57782 0.64906 0.26719 -0.18500
H 	H 	0.56630 0.68570 0.25780 0.08700
N 	N 	0.26488 0.90806 0.14049 -0.19200
C 	C 	0.28267 0.87515 0.16954 0.09700
H 	H 	0.25450 0.85270 0.18220 -0.01500
C 	C 	0.33965 0.87227 0.18193 -0.17400
H 	H 	0.34950 0.84830 0.20230 0.09200
C 	C 	0.38270 0.90531 0.16391 0.10900
C 	C 	0.36522 0.93984 0.13380 -0.17000
H 	H 	0.39260 0.96260 0.12080 0.08900
C 	C 	0.30589 0.94011 0.12317 0.09100
H 	H 	0.29450 0.96390 0.10300 -0.00900
C 	C 	0.44522 0.90417 0.17599 -0.03700
C 	C 	0.46856 0.89993 0.21144 -0.03100
C 	C 	0.43481 0.90049 0.24734 0.11600
C 	C 	0.41676 0.95236 0.26305 -0.18000
H 	H 	0.42340 0.98790 0.25060 0.09300
C 	C 	0.38838 0.95166 0.29782 0.10100
H 	H 	0.37720 0.98770 0.30820 -0.01700
N 	N 	0.37620 0.90379 0.31705 -0.20700
C 	C 	0.39241 0.85394 0.30130 0.10300
H 	H 	0.38350 0.81880 0.31370 -0.02500
C 	C 	0.42218 0.85094 0.26719 -0.18500
H 	H 	0.43370 0.81430 0.25780 0.08700
N 	N 	0.76488 0.40806 0.64049 -0.19200
C 	C 	0.78267 0.37515 0.66954 0.09700
H 	H 	0.75450 0.35270 0.68220 -0.01500
C 	C 	0.83965 0.37227 0.68193 -0.17400
H 	H 	0.84950 0.34830 0.70230 0.09200
C 	C 	0.88270 0.40531 0.66391 0.10900
C 	C 	0.86522 0.43984 0.63380 -0.17000
H 	H 	0.89260 0.46260 0.62080 0.08900
C 	C 	0.80589 0.44011 0.62317 0.09100
H 	H 	0.79450 0.46390 0.60300 -0.00900
C 	C 	0.94522 0.40417 0.67599 -0.03700
C 	C 	0.96856 0.39993 0.71144 -0.03100
C 	C 	0.93481 0.40049 0.74734 0.11600
C 	C 	0.91676 0.45236 0.76305 -0.18000
H 	H 	0.92340 0.48790 0.75060 0.09300
C 	C 	0.88838 0.45166 0.79782 0.10100
H 	H 	0.87720 0.48770 0.80820 -0.01700
N 	N 	0.87620 0.40379 0.81705 -0.20700
C 	C 	0.89241 0.35394 0.80130 0.10300
H 	H 	0.88350 0.31880 0.81370 -0.02500
C 	C 	0.92218 0.35094 0.76719 -0.18500
H 	H 	0.93370 0.31430 0.75780 0.08700
N 	N 	0.15806 0.98512 0.89049 -0.19200
C 	C 	0.12515 0.96733 0.91954 0.09700
H 	H 	0.10270 0.99550 0.93220 -0.01500
C 	C 	0.12227 0.91035 0.93193 -0.17400
H 	H 	0.09830 0.90050 0.95230 0.09200
C 	C 	0.15531 0.86730 0.91391 0.10900
C 	C 	0.18984 0.88478 0.88380 -0.17000
H 	H 	0.21260 0.85740 0.87080 0.08900
C 	C 	0.19011 0.94411 0.87317 0.09100
H 	H 	0.21390 0.95550 0.85300 -0.00900
C 	C 	0.15417 0.80478 0.92599 -0.03700
C 	C 	0.14993 0.78144 0.96144 -0.03100
C 	C 	0.15049 0.81519 0.99734 0.11600
C 	C 	0.20236 0.83324 0.01305 -0.18000
H 	H 	0.23790 0.82660 0.00060 0.09300
C 	C 	0.20166 0.86162 0.04782 0.10100
H 	H 	0.23770 0.87280 0.05820 -0.01700
N 	N 	0.15379 0.87380 0.06705 -0.20700
C 	C 	0.10394 0.85759 0.05130 0.10300
H 	H 	0.06880 0.86650 0.06370 -0.02500
C 	C 	0.10094 0.82782 0.01719 -0.18500
H 	H 	0.06430 0.81630 0.00780 0.08700
N 	N 	0.65806 0.48512 0.39049 -0.19200
C 	C 	0.62515 0.46733 0.41954 0.09700
H 	H 	0.60270 0.49550 0.43220 -0.01500
C 	C 	0.62227 0.41035 0.43193 -0.17400
H 	H 	0.59830 0.40050 0.45230 0.09200
C 	C 	0.65531 0.36730 0.41391 0.10900
C 	C 	0.68984 0.38478 0.38380 -0.17000
H 	H 	0.71260 0.35740 0.37080 0.08900
C 	C 	0.69011 0.44411 0.37317 0.09100
H 	H 	0.71390 0.45550 0.35300 -0.00900
C 	C 	0.65417 0.30478 0.42599 -0.03700
C 	C 	0.64993 0.28144 0.46144 -0.03100
C 	C 	0.65049 0.31519 0.49734 0.11600
C 	C 	0.70236 0.33324 0.51305 -0.18000
H 	H 	0.73790 0.32660 0.50060 0.09300
C 	C 	0.70166 0.36162 0.54782 0.10100
H 	H 	0.73770 0.37280 0.55820 -0.01700
N 	N 	0.65379 0.37380 0.56705 -0.20700
C 	C 	0.60394 0.35759 0.55130 0.10300
H 	H 	0.56880 0.36650 0.56370 -0.02500
C 	C 	0.60094 0.32782 0.51719 -0.18500
H 	H 	0.56430 0.31630 0.50780 0.08700
N 	N 	0.34194 0.01488 0.39049 -0.19200
C 	C 	0.37485 0.03267 0.41954 0.09700
H 	H 	0.39730 0.00450 0.43220 -0.01500
C 	C 	0.37773 0.08965 0.43193 -0.17400
H 	H 	0.40170 0.09950 0.45230 0.09200
C 	C 	0.34469 0.13270 0.41391 0.10900
C 	C 	0.31016 0.11522 0.38380 -0.17000
H 	H 	0.28740 0.14260 0.37080 0.08900
C 	C 	0.30989 0.05589 0.37317 0.09100
H 	H 	0.28610 0.04450 0.35300 -0.00900
C 	C 	0.34583 0.19522 0.42599 -0.03700
C 	C 	0.35007 0.21856 0.46144 -0.03100
C 	C 	0.34951 0.18481 0.49734 0.11600
C 	C 	0.29764 0.16676 0.51305 -0.18000
H 	H 	0.26210 0.17340 0.50060 0.09300
C 	C 	0.29834 0.13838 0.54782 0.10100
H 	H 	0.26230 0.12720 0.55820 -0.01700
N 	N 	0.34621 0.12620 0.56705 -0.20700
C 	C 	0.39606 0.14241 0.55130 0.10300
H 	H 	0.43120 0.13350 0.56370 -0.02500
C 	C 	0.39906 0.17218 0.51719 -0.18500
H 	H 	0.43570 0.18370 0.50780 0.08700
N 	N 	0.84194 0.51488 0.89049 -0.19200
C 	C 	0.87485 0.53267 0.91954 0.09700
H 	H 	0.89730 0.50450 0.93220 -0.01500
C 	C 	0.87773 0.58965 0.93193 -0.17400
H 	H 	0.90170 0.59950 0.95230 0.09200
C 	C 	0.84469 0.63270 0.91391 0.10900
C 	C 	0.81016 0.61522 0.88380 -0.17000
H 	H 	0.78740 0.64260 0.87080 0.08900
C 	C 	0.80989 0.55589 0.87317 0.09100
H 	H 	0.78610 0.54450 0.85300 -0.00900
C 	C 	0.84583 0.69522 0.92599 -0.03700
C 	C 	0.85007 0.71856 0.96144 -0.03100
C 	C 	0.84951 0.68481 0.99734 0.11600
C 	C 	0.79764 0.66676 0.01305 -0.18000
H 	H 	0.76210 0.67340 0.00060 0.09300
C 	C 	0.79834 0.63838 0.04782 0.10100
H 	H 	0.76230 0.62720 0.05820 -0.01700
N 	N 	0.84621 0.62620 0.06705 -0.20700
C 	C 	0.89606 0.64241 0.05130 0.10300
H 	H 	0.93120 0.63350 0.06370 -0.02500
C 	C 	0.89906 0.67218 0.01719 -0.18500
H 	H 	0.93570 0.68370 0.00780 0.08700
N 	N 	0.26488 0.09194 0.85951 -0.19200
C 	C 	0.28267 0.12485 0.83046 0.09700
H 	H 	0.25450 0.14730 0.81780 -0.01500
C 	C 	0.33965 0.12773 0.81807 -0.17400
H 	H 	0.34950 0.15170 0.79770 0.09200
C 	C 	0.38270 0.09469 0.83609 0.10900
C 	C 	0.36522 0.06016 0.86620 -0.17000
H 	H 	0.39260 0.03740 0.87920 0.08900
C 	C 	0.30589 0.05989 0.87683 0.09100
H 	H 	0.29450 0.03610 0.89700 -0.00900
C 	C 	0.44522 0.09583 0.82401 -0.03700
C 	C 	0.46856 0.10007 0.78856 -0.03100
C 	C 	0.43481 0.09951 0.75266 0.11600
C 	C 	0.41676 0.04764 0.73695 -0.18000
H 	H 	0.42340 0.01210 0.74940 0.09300
C 	C 	0.38838 0.04834 0.70218 0.10100
H 	H 	0.37720 0.01230 0.69180 -0.01700
N 	N 	0.37620 0.09621 0.68295 -0.20700
C 	C 	0.39241 0.14606 0.69870 0.10300
H 	H 	0.38350 0.18120 0.68630 -0.02500
C 	C 	0.42218 0.14906 0.73281 -0.18500
H 	H 	0.43370 0.18570 0.74220 0.08700
N 	N 	0.76488 0.59194 0.35951 -0.19200
C 	C 	0.78267 0.62485 0.33046 0.09700
H 	H 	0.75450 0.64730 0.31780 -0.01500
C 	C 	0.83965 0.62773 0.31807 -0.17400
H 	H 	0.84950 0.65170 0.29770 0.09200
C 	C 	0.88270 0.59469 0.33609 0.10900
C 	C 	0.86522 0.56016 0.36620 -0.17000
H 	H 	0.89260 0.53740 0.37920 0.08900
C 	C 	0.80589 0.55989 0.37683 0.09100
H 	H 	0.79450 0.53610 0.39700 -0.00900
C 	C 	0.94522 0.59583 0.32401 -0.03700
C 	C 	0.96856 0.60007 0.28856 -0.03100
C 	C 	0.93481 0.59951 0.25266 0.11600
C 	C 	0.91676 0.54764 0.23695 -0.18000
H 	H 	0.92340 0.51210 0.24940 0.09300
C 	C 	0.88838 0.54834 0.20218 0.10100
H 	H 	0.87720 0.51230 0.19180 -0.01700
N 	N 	0.87620 0.59621 0.18295 -0.20700
C 	C 	0.89241 0.64606 0.19870 0.10300
H 	H 	0.88350 0.68120 0.18630 -0.02500
C 	C 	0.92218 0.64906 0.23281 -0.18500
H 	H 	0.93370 0.68570 0.24220 0.08700
N 	N 	0.23512 0.90806 0.35951 -0.19200
C 	C 	0.21733 0.87515 0.33046 0.09700
H 	H 	0.24550 0.85270 0.31780 -0.01500
C 	C 	0.16035 0.87227 0.31807 -0.17500
H 	H 	0.15050 0.84830 0.29770 0.09200
C 	C 	0.11730 0.90531 0.33609 0.10900
C 	C 	0.13478 0.93984 0.36620 -0.17000
H 	H 	0.10740 0.96260 0.37920 0.08900
C 	C 	0.19411 0.94011 0.37683 0.09100
H 	H 	0.20550 0.96390 0.39700 -0.00900
C 	C 	0.05478 0.90417 0.32401 -0.03700
C 	C 	0.03144 0.89993 0.28856 -0.03000
C 	C 	0.06519 0.90049 0.25266 0.11600
C 	C 	0.08324 0.95236 0.23695 -0.18000
H 	H 	0.07660 0.98790 0.24940 0.09300
C 	C 	0.11162 0.95166 0.20218 0.10100
H 	H 	0.12280 0.98770 0.19180 -0.01700
N 	N 	0.12380 0.90379 0.18295 -0.20700
C 	C 	0.10759 0.85394 0.19870 0.10300
H 	H 	0.11650 0.81880 0.18630 -0.02500
C 	C 	0.07782 0.85094 0.23281 -0.18500
H 	H 	0.06630 0.81430 0.24220 0.08700
N 	N 	0.73512 0.40806 0.85951 -0.19200
C 	C 	0.71733 0.37515 0.83046 0.09700
H 	H 	0.74550 0.35270 0.81780 -0.01500
C 	C 	0.66035 0.37227 0.81807 -0.17400
H 	H 	0.65050 0.34830 0.79770 0.09200
C 	C 	0.61730 0.40531 0.83609 0.10900
C 	C 	0.63478 0.43984 0.86620 -0.17000
H 	H 	0.60740 0.46260 0.87920 0.08900
C 	C 	0.69411 0.44011 0.87683 0.09100
H 	H 	0.70550 0.46390 0.89700 -0.00900
C 	C 	0.55478 0.40417 0.82401 -0.03700
C 	C 	0.53144 0.39993 0.78856 -0.03100
C 	C 	0.56519 0.40049 0.75266 0.11600
C 	C 	0.58324 0.45236 0.73695 -0.18000
H 	H 	0.57660 0.48790 0.74940 0.09300
C 	C 	0.61162 0.45166 0.70218 0.10100
H 	H 	0.62280 0.48770 0.69180 -0.01700
N 	N 	0.62380 0.40379 0.68295 -0.20700
C 	C 	0.60759 0.35394 0.69870 0.10300
H 	H 	0.61650 0.31880 0.68630 -0.02500
C 	C 	0.57782 0.35094 0.73281 -0.18500
H 	H 	0.56630 0.31430 0.74220 0.08700
N 	N 	0.34194 0.98512 0.60951 -0.19200
C 	C 	0.37485 0.96733 0.58046 0.09700
H 	H 	0.39730 0.99550 0.56780 -0.01500
C 	C 	0.37773 0.91035 0.56807 -0.17400
H 	H 	0.40170 0.90050 0.54770 0.09200
C 	C 	0.34469 0.86730 0.58609 0.10900
C 	C 	0.31016 0.88478 0.61620 -0.17000
H 	H 	0.28740 0.85740 0.62920 0.08900
C 	C 	0.30989 0.94411 0.62683 0.09100
H 	H 	0.28610 0.95550 0.64700 -0.00900
C 	C 	0.34583 0.80478 0.57401 -0.03700
C 	C 	0.35007 0.78144 0.53856 -0.03100
C 	C 	0.34951 0.81519 0.50266 0.11600
C 	C 	0.29764 0.83324 0.48695 -0.18000
H 	H 	0.26210 0.82660 0.49940 0.09300
C 	C 	0.29834 0.86162 0.45218 0.10100
H 	H 	0.26230 0.87280 0.44180 -0.01700
N 	N 	0.34621 0.87380 0.43295 -0.20700
C 	C 	0.39606 0.85759 0.44870 0.10300
H 	H 	0.43120 0.86650 0.43630 -0.02500
C 	C 	0.39906 0.82782 0.48281 -0.18500
H 	H 	0.43570 0.81630 0.49220 0.08700
N 	N 	0.84194 0.48512 0.10951 -0.19200
C 	C 	0.87485 0.46733 0.08046 0.09700
H 	H 	0.89730 0.49550 0.06780 -0.01500
C 	C 	0.87773 0.41035 0.06807 -0.17400
H 	H 	0.90170 0.40050 0.04770 0.09200
C 	C 	0.84469 0.36730 0.08609 0.10900
C 	C 	0.81016 0.38478 0.11620 -0.17000
H 	H 	0.78740 0.35740 0.12920 0.08900
C 	C 	0.80989 0.44411 0.12683 0.09100
H 	H 	0.78610 0.45550 0.14700 -0.00900
C 	C 	0.84583 0.30478 0.07401 -0.03700
C 	C 	0.85007 0.28144 0.03856 -0.03100
C 	C 	0.84951 0.31519 0.00266 0.11600
C 	C 	0.79764 0.33324 0.98695 -0.18000
H 	H 	0.76210 0.32660 0.99940 0.09300
C 	C 	0.79834 0.36162 0.95218 0.10100
H 	H 	0.76230 0.37280 0.94180 -0.01700
N 	N 	0.84621 0.37380 0.93295 -0.20700
C 	C 	0.89606 0.35759 0.94870 0.10300
H 	H 	0.93120 0.36650 0.93630 -0.02500
C 	C 	0.89906 0.32782 0.98281 -0.18500
H 	H 	0.93570 0.31630 0.99220 0.08700
N 	N 	0.15806 0.01488 0.10951 -0.19200
C 	C 	0.12515 0.03267 0.08046 0.09700
H 	H 	0.10270 0.00450 0.06780 -0.01500
C 	C 	0.12227 0.08965 0.06807 -0.17400
H 	H 	0.09830 0.09950 0.04770 0.09200
C 	C 	0.15531 0.13270 0.08609 0.10900
C 	C 	0.18984 0.11522 0.11620 -0.17000
H 	H 	0.21260 0.14260 0.12920 0.08900
C 	C 	0.19011 0.05589 0.12683 0.09100
H 	H 	0.21390 0.04450 0.14700 -0.00900
C 	C 	0.15417 0.19522 0.07401 -0.03700
C 	C 	0.14993 0.21856 0.03856 -0.03100
C 	C 	0.15049 0.18481 0.00266 0.11600
C 	C 	0.20236 0.16676 0.98695 -0.18000
H 	H 	0.23790 0.17340 0.99940 0.09300
C 	C 	0.20166 0.13838 0.95218 0.10100
H 	H 	0.23770 0.12720 0.94180 -0.01700
N 	N 	0.15379 0.12620 0.93295 -0.20700
C 	C 	0.10394 0.14241 0.94870 0.10300
H 	H 	0.06880 0.13350 0.93630 -0.02500
C 	C 	0.10094 0.17218 0.98281 -0.18500
H 	H 	0.06430 0.18370 0.99220 0.08700
N 	N 	0.65806 0.51488 0.60951 -0.19200
C 	C 	0.62515 0.53267 0.58046 0.09700
H 	H 	0.60270 0.50450 0.56780 -0.01500
C 	C 	0.62227 0.58965 0.56807 -0.17400
H 	H 	0.59830 0.59950 0.54770 0.09200
C 	C 	0.65531 0.63270 0.58609 0.10900
C 	C 	0.68984 0.61522 0.61620 -0.17000
H 	H 	0.71260 0.64260 0.62920 0.08900
C 	C 	0.69011 0.55589 0.62683 0.09100
H 	H 	0.71390 0.54450 0.64700 -0.00900
C 	C 	0.65417 0.69522 0.57401 -0.03700
C 	C 	0.64993 0.71856 0.53856 -0.03100
C 	C 	0.65049 0.68481 0.50266 0.11600
C 	C 	0.70236 0.66676 0.48695 -0.18000
H 	H 	0.73790 0.67340 0.49940 0.09300
C 	C 	0.70166 0.63838 0.45218 0.10100
H 	H 	0.73770 0.62720 0.44180 -0.01700
N 	N 	0.65379 0.62620 0.43295 -0.20700
C 	C 	0.60394 0.64241 0.44870 0.10300
H 	H 	0.56880 0.63350 0.43630 -0.02500
C 	C 	0.60094 0.67218 0.48281 -0.18500
H 	H 	0.56430 0.68370 0.49220 0.08700
N 	N 	0.76488 0.90806 0.35951 -0.19200
C 	C 	0.78267 0.87515 0.33046 0.09700
H 	H 	0.75450 0.85270 0.31780 -0.01500
C 	C 	0.83965 0.87227 0.31807 -0.17400
H 	H 	0.84950 0.84830 0.29770 0.09200
C 	C 	0.88270 0.90531 0.33609 0.10900
C 	C 	0.86522 0.93984 0.36620 -0.17000
H 	H 	0.89260 0.96260 0.37920 0.08900
C 	C 	0.80589 0.94011 0.37683 0.09100
H 	H 	0.79450 0.96390 0.39700 -0.00900
C 	C 	0.94522 0.90417 0.32401 -0.03700
C 	C 	0.96856 0.89993 0.28856 -0.03100
C 	C 	0.93481 0.90049 0.25266 0.11600
C 	C 	0.91676 0.95236 0.23695 -0.18000
H 	H 	0.92340 0.98790 0.24940 0.09300
C 	C 	0.88838 0.95166 0.20218 0.10100
H 	H 	0.87720 0.98770 0.19180 -0.01700
N 	N 	0.87620 0.90379 0.18295 -0.20700
C 	C 	0.89241 0.85394 0.19870 0.10300
H 	H 	0.88350 0.81880 0.18630 -0.02500
C 	C 	0.92218 0.85094 0.23281 -0.18500
H 	H 	0.93370 0.81430 0.24220 0.08700
N 	N 	0.26488 0.40806 0.85951 -0.19200
C 	C 	0.28267 0.37515 0.83046 0.09700
H 	H 	0.25450 0.35270 0.81780 -0.01500
C 	C 	0.33965 0.37227 0.81807 -0.17400
H 	H 	0.34950 0.34830 0.79770 0.09200
C 	C 	0.38270 0.40531 0.83609 0.10900
C 	C 	0.36522 0.43984 0.86620 -0.17000
H 	H 	0.39260 0.46260 0.87920 0.08900
C 	C 	0.30589 0.44011 0.87683 0.09100
H 	H 	0.29450 0.46390 0.89700 -0.00900
C 	C 	0.44522 0.40417 0.82401 -0.03700
C 	C 	0.46856 0.39993 0.78856 -0.03100
C 	C 	0.43481 0.40049 0.75266 0.11600
C 	C 	0.41676 0.45236 0.73695 -0.18000
H 	H 	0.42340 0.48790 0.74940 0.09300
C 	C 	0.38838 0.45166 0.70218 0.10100
H 	H 	0.37720 0.48770 0.69180 -0.01700
N 	N 	0.37620 0.40379 0.68295 -0.20700
C 	C 	0.39241 0.35394 0.69870 0.10300
H 	H 	0.38350 0.31880 0.68630 -0.02500
C 	C 	0.42218 0.35094 0.73281 -0.18500
H 	H 	0.43370 0.31430 0.74220 0.08700
N 	N 	0.73512 0.09194 0.85951 -0.19200
C 	C 	0.71733 0.12485 0.83046 0.09700
H 	H 	0.74550 0.14730 0.81780 -0.01500
C 	C 	0.66035 0.12773 0.81807 -0.17400
H 	H 	0.65050 0.15170 0.79770 0.09200
C 	C 	0.61730 0.09469 0.83609 0.10900
C 	C 	0.63478 0.06016 0.86620 -0.17000
H 	H 	0.60740 0.03740 0.87920 0.08900
C 	C 	0.69411 0.05989 0.87683 0.09100
H 	H 	0.70550 0.03610 0.89700 -0.00900
C 	C 	0.55478 0.09583 0.82401 -0.03700
C 	C 	0.53144 0.10007 0.78856 -0.03100
C 	C 	0.56519 0.09951 0.75266 0.11600
C 	C 	0.58324 0.04764 0.73695 -0.18000
H 	H 	0.57660 0.01210 0.74940 0.09300
C 	C 	0.61162 0.04834 0.70218 0.10100
H 	H 	0.62280 0.01230 0.69180 -0.01700
N 	N 	0.62380 0.09621 0.68295 -0.20700
C 	C 	0.60759 0.14606 0.69870 0.10300
H 	H 	0.61650 0.18120 0.68630 -0.02500
C 	C 	0.57782 0.14906 0.73281 -0.18500
H 	H 	0.56630 0.18570 0.74220 0.08700
N 	N 	0.23512 0.59194 0.35951 -0.19200
C 	C 	0.21733 0.62485 0.33046 0.09700
H 	H 	0.24550 0.64730 0.31780 -0.01500
C 	C 	0.16035 0.62773 0.31807 -0.17500
H 	H 	0.15050 0.65170 0.29770 0.09200
C 	C 	0.11730 0.59469 0.33609 0.10900
C 	C 	0.13478 0.56016 0.36620 -0.17000
H 	H 	0.10740 0.53740 0.37920 0.08900
C 	C 	0.19411 0.55989 0.37683 0.09100
H 	H 	0.20550 0.53610 0.39700 -0.00900
C 	C 	0.05478 0.59583 0.32401 -0.03700
C 	C 	0.03144 0.60007 0.28856 -0.03000
C 	C 	0.06519 0.59951 0.25266 0.11600
C 	C 	0.08324 0.54764 0.23695 -0.18000
H 	H 	0.07660 0.51210 0.24940 0.09300
C 	C 	0.11162 0.54834 0.20218 0.10100
H 	H 	0.12280 0.51230 0.19180 -0.01700
N 	N 	0.12380 0.59621 0.18295 -0.20700
C 	C 	0.10759 0.64606 0.19870 0.10300
H 	H 	0.11650 0.68120 0.18630 -0.02500
C 	C 	0.07782 0.64906 0.23281 -0.18500
H 	H 	0.06630 0.68570 0.24220 0.08700
N 	N 	0.84194 0.01488 0.10951 -0.19200
C 	C 	0.87485 0.03267 0.08046 0.09700
H 	H 	0.89730 0.00450 0.06780 -0.01500
C 	C 	0.87773 0.08965 0.06807 -0.17400
H 	H 	0.90170 0.09950 0.04770 0.09200
C 	C 	0.84469 0.13270 0.08609 0.10900
C 	C 	0.81016 0.11522 0.11620 -0.17000
H 	H 	0.78740 0.14260 0.12920 0.08900
C 	C 	0.80989 0.05589 0.12683 0.09100
H 	H 	0.78610 0.04450 0.14700 -0.00900
C 	C 	0.84583 0.19522 0.07401 -0.03700
C 	C 	0.85007 0.21856 0.03856 -0.03100
C 	C 	0.84951 0.18481 0.00266 0.11600
C 	C 	0.79764 0.16676 0.98695 -0.18000
H 	H 	0.76210 0.17340 0.99940 0.09300
C 	C 	0.79834 0.13838 0.95218 0.10100
H 	H 	0.76230 0.12720 0.94180 -0.01700
N 	N 	0.84621 0.12620 0.93295 -0.20700
C 	C 	0.89606 0.14241 0.94870 0.10300
H 	H 	0.93120 0.13350 0.93630 -0.02500
C 	C 	0.89906 0.17218 0.98281 -0.18500
H 	H 	0.93570 0.18370 0.99220 0.08700
N 	N 	0.34194 0.51488 0.60951 -0.19200
C 	C 	0.37485 0.53267 0.58046 0.09700
H 	H 	0.39730 0.50450 0.56780 -0.01500
C 	C 	0.37773 0.58965 0.56807 -0.17400
H 	H 	0.40170 0.59950 0.54770 0.09200
C 	C 	0.34469 0.63270 0.58609 0.10900
C 	C 	0.31016 0.61522 0.61620 -0.17000
H 	H 	0.28740 0.64260 0.62920 0.08900
C 	C 	0.30989 0.55589 0.62683 0.09100
H 	H 	0.28610 0.54450 0.64700 -0.00900
C 	C 	0.34583 0.69522 0.57401 -0.03700
C 	C 	0.35007 0.71856 0.53856 -0.03100
C 	C 	0.34951 0.68481 0.50266 0.11600
C 	C 	0.29764 0.66676 0.48695 -0.18000
H 	H 	0.26210 0.67340 0.49940 0.09300
C 	C 	0.29834 0.63838 0.45218 0.10100
H 	H 	0.26230 0.62720 0.44180 -0.01700
N 	N 	0.34621 0.62620 0.43295 -0.20700
C 	C 	0.39606 0.64241 0.44870 0.10300
H 	H 	0.43120 0.63350 0.43630 -0.02500
C 	C 	0.39906 0.67218 0.48281 -0.18500
H 	H 	0.43570 0.68370 0.49220 0.08700
N 	N 	0.65806 0.98512 0.60951 -0.19200
C 	C 	0.62515 0.96733 0.58046 0.09700
H 	H 	0.60270 0.99550 0.56780 -0.01500
C 	C 	0.62227 0.91035 0.56807 -0.17400
H 	H 	0.59830 0.90050 0.54770 0.09200
C 	C 	0.65531 0.86730 0.58609 0.10900
C 	C 	0.68984 0.88478 0.61620 -0.17000
H 	H 	0.71260 0.85740 0.62920 0.08900
C 	C 	0.69011 0.94411 0.62683 0.09100
H 	H 	0.71390 0.95550 0.64700 -0.00900
C 	C 	0.65417 0.80478 0.57401 -0.03700
C 	C 	0.64993 0.78144 0.53856 -0.03100
C 	C 	0.65049 0.81519 0.50266 0.11600
C 	C 	0.70236 0.83324 0.48695 -0.18000
H 	H 	0.73790 0.82660 0.49940 0.09300
C 	C 	0.70166 0.86162 0.45218 0.10100
H 	H 	0.73770 0.87280 0.44180 -0.01700
N 	N 	0.65379 0.87380 0.43295 -0.20700
C 	C 	0.60394 0.85759 0.44870 0.10300
H 	H 	0.56880 0.86650 0.43630 -0.02500
C 	C 	0.60094 0.82782 0.48281 -0.18500
H 	H 	0.56430 0.81630 0.49220 0.08700
N 	N 	0.15806 0.48512 0.10951 -0.19200
C 	C 	0.12515 0.46733 0.08046 0.09700
H 	H 	0.10270 0.49550 0.06780 -0.01500
C 	C 	0.12227 0.41035 0.06807 -0.17400
H 	H 	0.09830 0.40050 0.04770 0.09200
C 	C 	0.15531 0.36730 0.08609 0.10900
C 	C 	0.18984 0.38478 0.11620 -0.17000
H 	H 	0.21260 0.35740 0.12920 0.08900
C 	C 	0.19011 0.44411 0.12683 0.09100
H 	H 	0.21390 0.45550 0.14700 -0.00900
C 	C 	0.15417 0.30478 0.07401 -0.03700
C 	C 	0.14993 0.28144 0.03856 -0.03100
C 	C 	0.15049 0.31519 0.00266 0.11600
C 	C 	0.20236 0.33324 0.98695 -0.18000
H 	H 	0.23790 0.32660 0.99940 0.09300
C 	C 	0.20166 0.36162 0.95218 0.10100
H 	H 	0.23770 0.37280 0.94180 -0.01700
N 	N 	0.15379 0.37380 0.93295 -0.20700
C 	C 	0.10394 0.35759 0.94870 0.10300
H 	H 	0.06880 0.36650 0.93630 -0.02500
C 	C 	0.10094 0.32782 0.98281 -0.18500
H 	H 	0.06430 0.31630 0.99220 0.08700
N 	N 	0.73512 0.90806 0.14049 -0.19200
C 	C 	0.71733 0.87515 0.16954 0.09700
H 	H 	0.74550 0.85270 0.18220 -0.01500
C 	C 	0.66035 0.87227 0.18193 -0.17400
H 	H 	0.65050 0.84830 0.20230 0.09200
C 	C 	0.61730 0.90531 0.16391 0.10900
C 	C 	0.63478 0.93984 0.13380 -0.17000
H 	H 	0.60740 0.96260 0.12080 0.08900
C 	C 	0.69411 0.94011 0.12317 0.09100
H 	H 	0.70550 0.96390 0.10300 -0.00900
C 	C 	0.55478 0.90417 0.17599 -0.03700
C 	C 	0.53144 0.89993 0.21144 -0.03100
C 	C 	0.56519 0.90049 0.24734 0.11600
C 	C 	0.58324 0.95236 0.26305 -0.18000
H 	H 	0.57660 0.98790 0.25060 0.09300
C 	C 	0.61162 0.95166 0.29782 0.10100
H 	H 	0.62280 0.98770 0.30820 -0.01700
N 	N 	0.62380 0.90379 0.31705 -0.20700
C 	C 	0.60759 0.85394 0.30130 0.10300
H 	H 	0.61650 0.81880 0.31370 -0.02500
C 	C 	0.57782 0.85094 0.26719 -0.18500
H 	H 	0.56630 0.81430 0.25780 0.08700
N 	N 	0.23512 0.40806 0.64049 -0.19200
C 	C 	0.21733 0.37515 0.66954 0.09700
H 	H 	0.24550 0.35270 0.68220 -0.01500
C 	C 	0.16035 0.37227 0.68193 -0.17500
H 	H 	0.15050 0.34830 0.70230 0.09200
C 	C 	0.11730 0.40531 0.66391 0.10900
C 	C 	0.13478 0.43984 0.63380 -0.17000
H 	H 	0.10740 0.46260 0.62080 0.08900
C 	C 	0.19411 0.44011 0.62317 0.09100
H 	H 	0.20550 0.46390 0.60300 -0.00900
C 	C 	0.05478 0.40417 0.67599 -0.03700
C 	C 	0.03144 0.39993 0.71144 -0.03000
C 	C 	0.06519 0.40049 0.74734 0.11600
C 	C 	0.08324 0.45236 0.76305 -0.18000
H 	H 	0.07660 0.48790 0.75060 0.09300
C 	C 	0.11162 0.45166 0.79782 0.10100
H 	H 	0.12280 0.48770 0.80820 -0.01700
N 	N 	0.12380 0.40379 0.81705 -0.20700
C 	C 	0.10759 0.35394 0.80130 0.10300
H 	H 	0.11650 0.31880 0.81370 -0.02500
C 	C 	0.07782 0.35094 0.76719 -0.18500
H 	H 	0.06630 0.31430 0.75780 0.08700
N 	N 	0.76488 0.09194 0.64049 -0.19200
C 	C 	0.78267 0.12485 0.66954 0.09700
H 	H 	0.75450 0.14730 0.68220 -0.01500
C 	C 	0.83965 0.12773 0.68193 -0.17400
H 	H 	0.84950 0.15170 0.70230 0.09200
C 	C 	0.88270 0.09469 0.66391 0.10900
C 	C 	0.86522 0.06016 0.63380 -0.17000
H 	H 	0.89260 0.03740 0.62080 0.08900
C 	C 	0.80589 0.05989 0.62317 0.09100
H 	H 	0.79450 0.03610 0.60300 -0.00900
C 	C 	0.94522 0.09583 0.67599 -0.03700
C 	C 	0.96856 0.10007 0.71144 -0.03100
C 	C 	0.93481 0.09951 0.74734 0.11600
C 	C 	0.91676 0.04764 0.76305 -0.18000
H 	H 	0.92340 0.01210 0.75060 0.09300
C 	C 	0.88838 0.04834 0.79782 0.10100
H 	H 	0.87720 0.01230 0.80820 -0.01700
N 	N 	0.87620 0.09621 0.81705 -0.20700
C 	C 	0.89241 0.14606 0.80130 0.10300
H 	H 	0.88350 0.18120 0.81370 -0.02500
C 	C 	0.92218 0.14906 0.76719 -0.18500
H 	H 	0.93370 0.18570 0.75780 0.08700
N 	N 	0.26488 0.59194 0.14049 -0.19200
C 	C 	0.28267 0.62485 0.16954 0.09700
H 	H 	0.25450 0.64730 0.18220 -0.01500
C 	C 	0.33965 0.62773 0.18193 -0.17400
H 	H 	0.34950 0.65170 0.20230 0.09200
C 	C 	0.38270 0.59469 0.16391 0.10900
C 	C 	0.36522 0.56016 0.13380 -0.17000
H 	H 	0.39260 0.53740 0.12080 0.08900
C 	C 	0.30589 0.55989 0.12317 0.09100
H 	H 	0.29450 0.53610 0.10300 -0.00900
C 	C 	0.44522 0.59583 0.17599 -0.03700
C 	C 	0.46856 0.60007 0.21144 -0.03100
C 	C 	0.43481 0.59951 0.24734 0.11600
C 	C 	0.41676 0.54764 0.26305 -0.18000
H 	H 	0.42340 0.51210 0.25060 0.09300
C 	C 	0.38838 0.54834 0.29782 0.10100
H 	H 	0.37720 0.51230 0.30820 -0.01700
N 	N 	0.37620 0.59621 0.31705 -0.20700
C 	C 	0.39241 0.64606 0.30130 0.10300
H 	H 	0.38350 0.68120 0.31370 -0.02500
C 	C 	0.42218 0.64906 0.26719 -0.18500
H 	H 	0.43370 0.68570 0.25780 0.08700
N 	N 	0.65806 0.01488 0.39049 -0.19200
C 	C 	0.62515 0.03267 0.41954 0.09700
H 	H 	0.60270 0.00450 0.43220 -0.01500
C 	C 	0.62227 0.08965 0.43193 -0.17400
H 	H 	0.59830 0.09950 0.45230 0.09200
C 	C 	0.65531 0.13270 0.41391 0.10900
C 	C 	0.68984 0.11522 0.38380 -0.17000
H 	H 	0.71260 0.14260 0.37080 0.08900
C 	C 	0.69011 0.05589 0.37317 0.09100
H 	H 	0.71390 0.04450 0.35300 -0.00900
C 	C 	0.65417 0.19522 0.42599 -0.03700
C 	C 	0.64993 0.21856 0.46144 -0.03100
C 	C 	0.65049 0.18481 0.49734 0.11600
C 	C 	0.70236 0.16676 0.51305 -0.18000
H 	H 	0.73790 0.17340 0.50060 0.09300
C 	C 	0.70166 0.13838 0.54782 0.10100
H 	H 	0.73770 0.12720 0.55820 -0.01700
N 	N 	0.65379 0.12620 0.56705 -0.20700
C 	C 	0.60394 0.14241 0.55130 0.10300
H 	H 	0.56880 0.13350 0.56370 -0.02500
C 	C 	0.60094 0.17218 0.51719 -0.18500
H 	H 	0.56430 0.18370 0.50780 0.08700
N 	N 	0.15806 0.51488 0.89049 -0.19200
C 	C 	0.12515 0.53267 0.91954 0.09700
H 	H 	0.10270 0.50450 0.93220 -0.01500
C 	C 	0.12227 0.58965 0.93193 -0.17400
H 	H 	0.09830 0.59950 0.95230 0.09200
C 	C 	0.15531 0.63270 0.91391 0.10900
C 	C 	0.18984 0.61522 0.88380 -0.17000
H 	H 	0.21260 0.64260 0.87080 0.08900
C 	C 	0.19011 0.55589 0.87317 0.09100
H 	H 	0.21390 0.54450 0.85300 -0.00900
C 	C 	0.15417 0.69522 0.92599 -0.03700
C 	C 	0.14993 0.71856 0.96144 -0.03100
C 	C 	0.15049 0.68481 0.99734 0.11600
C 	C 	0.20236 0.66676 0.01305 -0.18000
H 	H 	0.23790 0.67340 0.00060 0.09300
C 	C 	0.20166 0.63838 0.04782 0.10100
H 	H 	0.23770 0.62720 0.05820 -0.01700
N 	N 	0.15379 0.62620 0.06705 -0.20700
C 	C 	0.10394 0.64241 0.05130 0.10300
H 	H 	0.06880 0.63350 0.06370 -0.02500
C 	C 	0.10094 0.67218 0.01719 -0.18500
H 	H 	0.06430 0.68370 0.00780 0.08700
N 	N 	0.84194 0.98512 0.89049 -0.19200
C 	C 	0.87485 0.96733 0.91954 0.09700
H 	H 	0.89730 0.99550 0.93220 -0.01500
C 	C 	0.87773 0.91035 0.93193 -0.17400
H 	H 	0.90170 0.90050 0.95230 0.09200
C 	C 	0.84469 0.86730 0.91391 0.10900
C 	C 	0.81016 0.88478 0.88380 -0.17000
H 	H 	0.78740 0.85740 0.87080 0.08900
C 	C 	0.80989 0.94411 0.87317 0.09100
H 	H 	0.78610 0.95550 0.85300 -0.00900
C 	C 	0.84583 0.80478 0.92599 -0.03700
C 	C 	0.85007 0.78144 0.96144 -0.03100
C 	C 	0.84951 0.81519 0.99734 0.11600
C 	C 	0.79764 0.83324 0.01305 -0.18000
H 	H 	0.76210 0.82660 0.00060 0.09300
C 	C 	0.79834 0.86162 0.04782 0.10100
H 	H 	0.76230 0.87280 0.05820 -0.01700
N 	N 	0.84621 0.87380 0.06705 -0.20700
C 	C 	0.89606 0.85759 0.05130 0.10300
H 	H 	0.93120 0.86650 0.06370 -0.02500
C 	C 	0.89906 0.82782 0.01719 -0.18500
H 	H 	0.93570 0.81630 0.00780 0.08700
N 	N 	0.34194 0.48512 0.39049 -0.19200
C 	C 	0.37485 0.46733 0.41954 0.09700
H 	H 	0.39730 0.49550 0.43220 -0.01500
C 	C 	0.37773 0.41035 0.43193 -0.17400
H 	H 	0.40170 0.40050 0.45230 0.09200
C 	C 	0.34469 0.36730 0.41391 0.10900
C 	C 	0.31016 0.38478 0.38380 -0.17000
H 	H 	0.28740 0.35740 0.37080 0.08900
C 	C 	0.30989 0.44411 0.37317 0.09100
H 	H 	0.28610 0.45550 0.35300 -0.00900
C 	C 	0.34583 0.30478 0.42599 -0.03700
C 	C 	0.35007 0.28144 0.46144 -0.03100
C 	C 	0.34951 0.31519 0.49734 0.11600
C 	C 	0.29764 0.33324 0.51305 -0.18000
H 	H 	0.26210 0.32660 0.50060 0.09300
C 	C 	0.29834 0.36162 0.54782 0.10100
H 	H 	0.26230 0.37280 0.55820 -0.01700
N 	N 	0.34621 0.37380 0.56705 -0.20700
C 	C 	0.39606 0.35759 0.55130 0.10300
H 	H 	0.43120 0.36650 0.56370 -0.02500
C 	C 	0.39906 0.32782 0.51719 -0.18500
H 	H 	0.43570 0.31630 0.50780 0.08700
Ag	Ag	0.33671 0.08671 0.62500 0.53900
Ag	Ag	0.83671 0.58671 0.12500 0.53900
Ag	Ag	0.16329 0.91329 0.12500 0.53900
Ag	Ag	0.66329 0.41329 0.62500 0.53900
Ag	Ag	0.16329 0.08671 0.87500 0.53900
Ag	Ag	0.66329 0.58671 0.37500 0.53900
Ag	Ag	0.33671 0.91329 0.37500 0.53900
Ag	Ag	0.83671 0.41329 0.87500 0.53900
Ag	Ag	0.66329 0.91329 0.37500 0.53900
Ag	Ag	0.16329 0.41329 0.87500 0.53900
Ag	Ag	0.83671 0.08671 0.87500 0.53900
Ag	Ag	0.33671 0.58671 0.37500 0.53900
Ag	Ag	0.83671 0.91329 0.12500 0.53900
Ag	Ag	0.33671 0.41329 0.62500 0.53900
Ag	Ag	0.66329 0.08671 0.62500 0.53900
Ag	Ag	0.16329 0.58671 0.12500 0.53900
S 	S 	0.00000 0.09223 0.64206 -0.00800
S 	S 	0.50000 0.59223 0.14206 -0.00900
S 	S 	0.50000 0.90777 0.14206 -0.00900
S 	S 	0.00000 0.40777 0.64206 -0.00800
S 	S 	0.15777 0.75000 0.89206 -0.00900
S 	S 	0.34223 0.25000 0.39206 -0.00900
S 	S 	0.50000 0.09223 0.85794 -0.00900
S 	S 	-0.00000 0.59223 0.35794 -0.00800
S 	S 	0.00000 0.90777 0.35794 -0.00800
S 	S 	0.50000 0.40777 0.85794 -0.00900
S 	S 	0.34223 0.75000 0.60794 -0.00900
S 	S 	0.15777 0.25000 0.10794 -0.00900
S 	S 	0.84223 0.25000 0.10794 -0.00900
S 	S 	0.65777 0.75000 0.60794 -0.00900
S 	S 	0.65777 0.25000 0.39206 -0.00900
S 	S 	0.84223 0.75000 0.89206 -0.00900
