data_crystal

_cell_length_a 23.16600
_cell_length_b 23.16600
_cell_length_c 34.93100
_cell_angle_alpha 90.00000
_cell_angle_beta  90.00000
_cell_angle_gamma 90.00000

_symmetry_space_group_name_	'P 1'
_symmetry_space_group_name_H-M	'P 1'

loop_
_symmetry_equiv_pos_as_xyz
  x,y,z

loop_
_atom_site_label
_atom_site_type_symbol
_atom_site_fract_x
_atom_site_fract_y
_atom_site_fract_z
_atom_site_charge
N 	N 	0.23046 0.08597 0.63974 -0.19200
C 	C 	0.21340 0.11920 0.66856 0.09300
H 	H 	0.24110 0.14110 0.68130 -0.01400
C 	C 	0.15670 0.12320 0.68069 -0.16800
H 	H 	0.14680 0.14800 0.70060 0.09000
C 	C 	0.11487 0.09006 0.66313 0.10800
C 	C 	0.13302 0.05560 0.63295 -0.17100
H 	H 	0.10660 0.03260 0.61990 0.09100
C 	C 	0.19030 0.05560 0.62231 0.09900
H 	H 	0.20120 0.03280 0.60160 -0.01100
C 	C 	0.05376 0.09157 0.67541 -0.03600
C 	C 	0.03083 0.09648 0.71143 -0.02900
C 	C 	0.06440 0.09457 0.74782 0.11500
C 	C 	0.08500 0.04450 0.76174 -0.17700
H 	H 	0.07880 0.01020 0.74860 0.09300
C 	C 	0.11590 0.04460 0.79628 0.09700
H 	H 	0.13140 0.00980 0.80460 -0.01400
N 	N 	0.12440 0.09043 0.81781 -0.20500
C 	C 	0.10360 0.13800 0.80423 0.10600
H 	H 	0.10890 0.17140 0.81850 -0.02400
C 	C 	0.07390 0.14280 0.76959 -0.18200
H 	H 	0.06060 0.17860 0.76140 0.08800
N 	N 	0.73046 0.58597 0.13974 -0.19200
C 	C 	0.71340 0.61920 0.16856 0.09300
H 	H 	0.74110 0.64110 0.18130 -0.01400
C 	C 	0.65670 0.62320 0.18069 -0.16800
H 	H 	0.64680 0.64800 0.20060 0.09000
C 	C 	0.61487 0.59006 0.16313 0.10800
C 	C 	0.63302 0.55560 0.13295 -0.17100
H 	H 	0.60660 0.53260 0.11990 0.09100
C 	C 	0.69030 0.55560 0.12231 0.09900
H 	H 	0.70120 0.53280 0.10160 -0.01100
C 	C 	0.55376 0.59157 0.17541 -0.03600
C 	C 	0.53083 0.59648 0.21143 -0.02900
C 	C 	0.56440 0.59457 0.24782 0.11500
C 	C 	0.58500 0.54450 0.26174 -0.17700
H 	H 	0.57880 0.51020 0.24860 0.09300
C 	C 	0.61590 0.54460 0.29628 0.09700
H 	H 	0.63140 0.50980 0.30460 -0.01400
N 	N 	0.62440 0.59043 0.31781 -0.20600
C 	C 	0.60360 0.63800 0.30423 0.10600
H 	H 	0.60890 0.67140 0.31850 -0.02400
C 	C 	0.57390 0.64280 0.26959 -0.18200
H 	H 	0.56060 0.67860 0.26140 0.08800
N 	N 	0.26954 0.91403 0.13974 -0.19200
C 	C 	0.28660 0.88080 0.16856 0.09300
H 	H 	0.25890 0.85890 0.18130 -0.01400
C 	C 	0.34330 0.87680 0.18069 -0.16800
H 	H 	0.35320 0.85200 0.20060 0.09000
C 	C 	0.38513 0.90994 0.16313 0.10800
C 	C 	0.36698 0.94440 0.13295 -0.17200
H 	H 	0.39340 0.96740 0.11990 0.09000
C 	C 	0.30970 0.94440 0.12231 0.09800
H 	H 	0.29880 0.96720 0.10160 -0.01200
C 	C 	0.44624 0.90843 0.17541 -0.03700
C 	C 	0.46917 0.90352 0.21143 -0.03000
C 	C 	0.43560 0.90543 0.24782 0.11400
C 	C 	0.41500 0.95550 0.26174 -0.17800
H 	H 	0.42120 0.98980 0.24860 0.09200
C 	C 	0.38410 0.95540 0.29628 0.09600
H 	H 	0.36860 0.99020 0.30460 -0.01500
N 	N 	0.37560 0.90957 0.31781 -0.20700
C 	C 	0.39640 0.86200 0.30423 0.10500
H 	H 	0.39110 0.82860 0.31850 -0.02500
C 	C 	0.42610 0.85720 0.26959 -0.18300
H 	H 	0.43940 0.82140 0.26140 0.08700
N 	N 	0.76954 0.41403 0.63974 -0.19300
C 	C 	0.78660 0.38080 0.66856 0.09200
H 	H 	0.75890 0.35890 0.68130 -0.01500
C 	C 	0.84330 0.37680 0.68069 -0.16900
H 	H 	0.85320 0.35200 0.70060 0.08900
C 	C 	0.88513 0.40994 0.66313 0.10700
C 	C 	0.86698 0.44440 0.63295 -0.17200
H 	H 	0.89340 0.46740 0.61990 0.08900
C 	C 	0.80970 0.44440 0.62231 0.09800
H 	H 	0.79880 0.46720 0.60160 -0.01200
C 	C 	0.94624 0.40843 0.67541 -0.03700
C 	C 	0.96917 0.40352 0.71143 -0.03100
C 	C 	0.93560 0.40543 0.74782 0.11400
C 	C 	0.91500 0.45550 0.76174 -0.17800
H 	H 	0.92120 0.48980 0.74860 0.09200
C 	C 	0.88410 0.45540 0.79628 0.09600
H 	H 	0.86860 0.49020 0.80460 -0.01500
N 	N 	0.87560 0.40957 0.81781 -0.20700
C 	C 	0.89640 0.36200 0.80423 0.10500
H 	H 	0.89110 0.32860 0.81850 -0.02500
C 	C 	0.92610 0.35720 0.76959 -0.18300
H 	H 	0.93940 0.32140 0.76140 0.08700
N 	N 	0.16403 0.98046 0.88974 -0.19300
C 	C 	0.13080 0.96340 0.91856 0.09200
H 	H 	0.10890 0.99110 0.93130 -0.01500
C 	C 	0.12680 0.90670 0.93069 -0.16900
H 	H 	0.10200 0.89680 0.95060 0.08900
C 	C 	0.15994 0.86487 0.91313 0.10700
C 	C 	0.19440 0.88302 0.88295 -0.17200
H 	H 	0.21740 0.85660 0.86990 0.09000
C 	C 	0.19440 0.94030 0.87231 0.09800
H 	H 	0.21720 0.95120 0.85160 -0.01200
C 	C 	0.15843 0.80376 0.92541 -0.03700
C 	C 	0.15352 0.78083 0.96143 -0.03000
C 	C 	0.15543 0.81440 0.99782 0.11400
C 	C 	0.20550 0.83500 0.01174 -0.17800
H 	H 	0.23980 0.82880 0.99860 0.09200
C 	C 	0.20540 0.86590 0.04628 0.09600
H 	H 	0.24020 0.88140 0.05460 -0.01500
N 	N 	0.15957 0.87440 0.06781 -0.20600
C 	C 	0.11200 0.85360 0.05423 0.10500
H 	H 	0.07860 0.85890 0.06850 -0.02500
C 	C 	0.10720 0.82390 0.01959 -0.18300
H 	H 	0.07140 0.81060 0.01140 0.08700
N 	N 	0.66403 0.48046 0.38974 -0.19300
C 	C 	0.63080 0.46340 0.41856 0.09200
H 	H 	0.60890 0.49110 0.43130 -0.01500
C 	C 	0.62680 0.40670 0.43069 -0.16900
H 	H 	0.60200 0.39680 0.45060 0.08900
C 	C 	0.65994 0.36487 0.41313 0.10700
C 	C 	0.69440 0.38302 0.38295 -0.17200
H 	H 	0.71740 0.35660 0.36990 0.08900
C 	C 	0.69440 0.44030 0.37231 0.09800
H 	H 	0.71720 0.45120 0.35160 -0.01200
C 	C 	0.65843 0.30376 0.42541 -0.03700
C 	C 	0.65352 0.28083 0.46143 -0.03000
C 	C 	0.65543 0.31440 0.49782 0.11400
C 	C 	0.70550 0.33500 0.51174 -0.17800
H 	H 	0.73980 0.32880 0.49860 0.09200
C 	C 	0.70540 0.36590 0.54628 0.09600
H 	H 	0.74020 0.38140 0.55460 -0.01500
N 	N 	0.65957 0.37440 0.56781 -0.20700
C 	C 	0.61200 0.35360 0.55423 0.10500
H 	H 	0.57860 0.35890 0.56850 -0.02500
C 	C 	0.60720 0.32390 0.51959 -0.18300
H 	H 	0.57140 0.31060 0.51140 0.08700
N 	N 	0.33597 0.01954 0.38974 -0.19300
C 	C 	0.36920 0.03660 0.41856 0.09200
H 	H 	0.39110 0.00890 0.43130 -0.01500
C 	C 	0.37320 0.09330 0.43069 -0.16900
H 	H 	0.39800 0.10320 0.45060 0.08900
C 	C 	0.34006 0.13513 0.41313 0.10700
C 	C 	0.30560 0.11698 0.38295 -0.17200
H 	H 	0.28260 0.14340 0.36990 0.09000
C 	C 	0.30560 0.05970 0.37231 0.09800
H 	H 	0.28280 0.04880 0.35160 -0.01200
C 	C 	0.34157 0.19624 0.42541 -0.03700
C 	C 	0.34648 0.21917 0.46143 -0.03000
C 	C 	0.34457 0.18560 0.49782 0.11400
C 	C 	0.29450 0.16500 0.51174 -0.17800
H 	H 	0.26020 0.17120 0.49860 0.09200
C 	C 	0.29460 0.13410 0.54628 0.09600
H 	H 	0.25980 0.11860 0.55460 -0.01500
N 	N 	0.34043 0.12560 0.56781 -0.20700
C 	C 	0.38800 0.14640 0.55423 0.10500
H 	H 	0.42140 0.14110 0.56850 -0.02500
C 	C 	0.39280 0.17610 0.51959 -0.18300
H 	H 	0.42860 0.18940 0.51140 0.08700
N 	N 	0.83597 0.51954 0.88974 -0.19300
C 	C 	0.86920 0.53660 0.91856 0.09200
H 	H 	0.89110 0.50890 0.93130 -0.01500
C 	C 	0.87320 0.59330 0.93069 -0.16900
H 	H 	0.89800 0.60320 0.95060 0.08900
C 	C 	0.84006 0.63513 0.91313 0.10700
C 	C 	0.80560 0.61698 0.88295 -0.17200
H 	H 	0.78260 0.64340 0.86990 0.08900
C 	C 	0.80560 0.55970 0.87231 0.09800
H 	H 	0.78280 0.54880 0.85160 -0.01200
C 	C 	0.84157 0.69624 0.92541 -0.03700
C 	C 	0.84648 0.71917 0.96143 -0.03000
C 	C 	0.84457 0.68560 0.99782 0.11400
C 	C 	0.79450 0.66500 0.01174 -0.17800
H 	H 	0.76020 0.67120 0.99860 0.09200
C 	C 	0.79460 0.63410 0.04628 0.09600
H 	H 	0.75980 0.61860 0.05460 -0.01500
N 	N 	0.84043 0.62560 0.06781 -0.20700
C 	C 	0.88800 0.64640 0.05423 0.10500
H 	H 	0.92140 0.64110 0.06850 -0.02500
C 	C 	0.89280 0.67610 0.01959 -0.18300
H 	H 	0.92860 0.68940 0.01140 0.08700
N 	N 	0.26954 0.08597 0.86026 -0.19300
C 	C 	0.28660 0.11920 0.83144 0.09200
H 	H 	0.25890 0.14110 0.81870 -0.01500
C 	C 	0.34330 0.12320 0.81931 -0.16900
H 	H 	0.35320 0.14800 0.79940 0.08900
C 	C 	0.38513 0.09006 0.83687 0.10700
C 	C 	0.36698 0.05560 0.86705 -0.17200
H 	H 	0.39340 0.03260 0.88010 0.09000
C 	C 	0.30970 0.05560 0.87769 0.09800
H 	H 	0.29880 0.03280 0.89840 -0.01200
C 	C 	0.44624 0.09157 0.82459 -0.03700
C 	C 	0.46917 0.09648 0.78857 -0.03000
C 	C 	0.43560 0.09457 0.75218 0.11400
C 	C 	0.41500 0.04450 0.73826 -0.17800
H 	H 	0.42120 0.01020 0.75140 0.09200
C 	C 	0.38410 0.04460 0.70372 0.09600
H 	H 	0.36860 0.00980 0.69540 -0.01500
N 	N 	0.37560 0.09043 0.68219 -0.20700
C 	C 	0.39640 0.13800 0.69577 0.10500
H 	H 	0.39110 0.17140 0.68150 -0.02500
C 	C 	0.42610 0.14280 0.73041 -0.18300
H 	H 	0.43940 0.17860 0.73860 0.08700
N 	N 	0.76954 0.58597 0.36026 -0.19300
C 	C 	0.78660 0.61920 0.33144 0.09200
H 	H 	0.75890 0.64110 0.31870 -0.01500
C 	C 	0.84330 0.62320 0.31931 -0.16900
H 	H 	0.85320 0.64800 0.29940 0.08900
C 	C 	0.88513 0.59006 0.33687 0.10700
C 	C 	0.86698 0.55560 0.36705 -0.17200
H 	H 	0.89340 0.53260 0.38010 0.08900
C 	C 	0.80970 0.55560 0.37769 0.09800
H 	H 	0.79880 0.53280 0.39840 -0.01200
C 	C 	0.94624 0.59157 0.32459 -0.03700
C 	C 	0.96917 0.59648 0.28857 -0.03100
C 	C 	0.93560 0.59457 0.25218 0.11400
C 	C 	0.91500 0.54450 0.23826 -0.17800
H 	H 	0.92120 0.51020 0.25140 0.09200
C 	C 	0.88410 0.54460 0.20372 0.09600
H 	H 	0.86860 0.50980 0.19540 -0.01500
N 	N 	0.87560 0.59043 0.18219 -0.20700
C 	C 	0.89640 0.63800 0.19577 0.10500
H 	H 	0.89110 0.67140 0.18150 -0.02500
C 	C 	0.92610 0.64280 0.23041 -0.18300
H 	H 	0.93940 0.67860 0.23860 0.08700
N 	N 	0.23046 0.91403 0.36026 -0.19300
C 	C 	0.21340 0.88080 0.33144 0.09200
H 	H 	0.24110 0.85890 0.31870 -0.01500
C 	C 	0.15670 0.87680 0.31931 -0.16900
H 	H 	0.14680 0.85200 0.29940 0.08900
C 	C 	0.11487 0.90994 0.33687 0.10700
C 	C 	0.13302 0.94440 0.36705 -0.17200
H 	H 	0.10660 0.96740 0.38010 0.09000
C 	C 	0.19030 0.94440 0.37769 0.09800
H 	H 	0.20120 0.96720 0.39840 -0.01200
C 	C 	0.05376 0.90843 0.32459 -0.03700
C 	C 	0.03083 0.90352 0.28857 -0.03000
C 	C 	0.06440 0.90543 0.25218 0.11400
C 	C 	0.08500 0.95550 0.23826 -0.17800
H 	H 	0.07880 0.98980 0.25140 0.09200
C 	C 	0.11590 0.95540 0.20372 0.09600
H 	H 	0.13140 0.99020 0.19540 -0.01500
N 	N 	0.12440 0.90957 0.18219 -0.20600
C 	C 	0.10360 0.86200 0.19577 0.10500
H 	H 	0.10890 0.82860 0.18150 -0.02500
C 	C 	0.07390 0.85720 0.23041 -0.18300
H 	H 	0.06060 0.82140 0.23860 0.08700
N 	N 	0.73046 0.41403 0.86026 -0.19300
C 	C 	0.71340 0.38080 0.83144 0.09200
H 	H 	0.74110 0.35890 0.81870 -0.01500
C 	C 	0.65670 0.37680 0.81931 -0.16900
H 	H 	0.64680 0.35200 0.79940 0.08900
C 	C 	0.61487 0.40994 0.83687 0.10700
C 	C 	0.63302 0.44440 0.86705 -0.17200
H 	H 	0.60660 0.46740 0.88010 0.09000
C 	C 	0.69030 0.44440 0.87769 0.09800
H 	H 	0.70120 0.46720 0.89840 -0.01200
C 	C 	0.55376 0.40843 0.82459 -0.03700
C 	C 	0.53083 0.40352 0.78857 -0.03000
C 	C 	0.56440 0.40543 0.75218 0.11400
C 	C 	0.58500 0.45550 0.73826 -0.17800
H 	H 	0.57880 0.48980 0.75140 0.09200
C 	C 	0.61590 0.45540 0.70372 0.09600
H 	H 	0.63140 0.49020 0.69540 -0.01500
N 	N 	0.62440 0.40957 0.68219 -0.20700
C 	C 	0.60360 0.36200 0.69577 0.10500
H 	H 	0.60890 0.32860 0.68150 -0.02500
C 	C 	0.57390 0.35720 0.73041 -0.18300
H 	H 	0.56060 0.32140 0.73860 0.08700
N 	N 	0.33597 0.98046 0.61026 -0.19300
C 	C 	0.36920 0.96340 0.58144 0.09200
H 	H 	0.39110 0.99110 0.56870 -0.01500
C 	C 	0.37320 0.90670 0.56931 -0.16900
H 	H 	0.39800 0.89680 0.54940 0.08900
C 	C 	0.34006 0.86487 0.58687 0.10700
C 	C 	0.30560 0.88302 0.61705 -0.17200
H 	H 	0.28260 0.85660 0.63010 0.09000
C 	C 	0.30560 0.94030 0.62769 0.09800
H 	H 	0.28280 0.95120 0.64840 -0.01200
C 	C 	0.34157 0.80376 0.57459 -0.03700
C 	C 	0.34648 0.78083 0.53857 -0.03000
C 	C 	0.34457 0.81440 0.50218 0.11400
C 	C 	0.29450 0.83500 0.48826 -0.17800
H 	H 	0.26020 0.82880 0.50140 0.09200
C 	C 	0.29460 0.86590 0.45372 0.09600
H 	H 	0.25980 0.88140 0.44540 -0.01500
N 	N 	0.34043 0.87440 0.43219 -0.20700
C 	C 	0.38800 0.85360 0.44577 0.10500
H 	H 	0.42140 0.85890 0.43150 -0.02500
C 	C 	0.39280 0.82390 0.48041 -0.18300
H 	H 	0.42860 0.81060 0.48860 0.08700
N 	N 	0.83597 0.48046 0.11026 -0.19300
C 	C 	0.86920 0.46340 0.08144 0.09200
H 	H 	0.89110 0.49110 0.06870 -0.01500
C 	C 	0.87320 0.40670 0.06931 -0.16900
H 	H 	0.89800 0.39680 0.04940 0.08900
C 	C 	0.84006 0.36487 0.08687 0.10700
C 	C 	0.80560 0.38302 0.11705 -0.17200
H 	H 	0.78260 0.35660 0.13010 0.08900
C 	C 	0.80560 0.44030 0.12769 0.09800
H 	H 	0.78280 0.45120 0.14840 -0.01200
C 	C 	0.84157 0.30376 0.07459 -0.03700
C 	C 	0.84648 0.28083 0.03857 -0.03000
C 	C 	0.84457 0.31440 0.00218 0.11400
C 	C 	0.79450 0.33500 0.98826 -0.17800
H 	H 	0.76020 0.32880 0.00140 0.09200
C 	C 	0.79460 0.36590 0.95372 0.09600
H 	H 	0.75980 0.38140 0.94540 -0.01500
N 	N 	0.84043 0.37440 0.93219 -0.20700
C 	C 	0.88800 0.35360 0.94577 0.10500
H 	H 	0.92140 0.35890 0.93150 -0.02500
C 	C 	0.89280 0.32390 0.98041 -0.18300
H 	H 	0.92860 0.31060 0.98860 0.08700
N 	N 	0.16403 0.01954 0.11026 -0.19300
C 	C 	0.13080 0.03660 0.08144 0.09200
H 	H 	0.10890 0.00890 0.06870 -0.01500
C 	C 	0.12680 0.09330 0.06931 -0.16900
H 	H 	0.10200 0.10320 0.04940 0.08900
C 	C 	0.15994 0.13513 0.08687 0.10700
C 	C 	0.19440 0.11698 0.11705 -0.17200
H 	H 	0.21740 0.14340 0.13010 0.09000
C 	C 	0.19440 0.05970 0.12769 0.09800
H 	H 	0.21720 0.04880 0.14840 -0.01200
C 	C 	0.15843 0.19624 0.07459 -0.03700
C 	C 	0.15352 0.21917 0.03857 -0.03000
C 	C 	0.15543 0.18560 0.00218 0.11400
C 	C 	0.20550 0.16500 0.98826 -0.17800
H 	H 	0.23980 0.17120 0.00140 0.09200
C 	C 	0.20540 0.13410 0.95372 0.09600
H 	H 	0.24020 0.11860 0.94540 -0.01500
N 	N 	0.15957 0.12560 0.93219 -0.20600
C 	C 	0.11200 0.14640 0.94577 0.10500
H 	H 	0.07860 0.14110 0.93150 -0.02500
C 	C 	0.10720 0.17610 0.98041 -0.18300
H 	H 	0.07140 0.18940 0.98860 0.08700
N 	N 	0.66403 0.51954 0.61026 -0.19300
C 	C 	0.63080 0.53660 0.58144 0.09200
H 	H 	0.60890 0.50890 0.56870 -0.01500
C 	C 	0.62680 0.59330 0.56931 -0.16900
H 	H 	0.60200 0.60320 0.54940 0.08900
C 	C 	0.65994 0.63513 0.58687 0.10700
C 	C 	0.69440 0.61698 0.61705 -0.17200
H 	H 	0.71740 0.64340 0.63010 0.08900
C 	C 	0.69440 0.55970 0.62769 0.09800
H 	H 	0.71720 0.54880 0.64840 -0.01200
C 	C 	0.65843 0.69624 0.57459 -0.03700
C 	C 	0.65352 0.71917 0.53857 -0.03000
C 	C 	0.65543 0.68560 0.50218 0.11400
C 	C 	0.70550 0.66500 0.48826 -0.17800
H 	H 	0.73980 0.67120 0.50140 0.09200
C 	C 	0.70540 0.63410 0.45372 0.09600
H 	H 	0.74020 0.61860 0.44540 -0.01500
N 	N 	0.65957 0.62560 0.43219 -0.20700
C 	C 	0.61200 0.64640 0.44577 0.10500
H 	H 	0.57860 0.64110 0.43150 -0.02500
C 	C 	0.60720 0.67610 0.48041 -0.18300
H 	H 	0.57140 0.68940 0.48860 0.08700
N 	N 	0.76954 0.91403 0.36026 -0.19300
C 	C 	0.78660 0.88080 0.33144 0.09200
H 	H 	0.75890 0.85890 0.31870 -0.01500
C 	C 	0.84330 0.87680 0.31931 -0.16900
H 	H 	0.85320 0.85200 0.29940 0.08900
C 	C 	0.88513 0.90994 0.33687 0.10700
C 	C 	0.86698 0.94440 0.36705 -0.17200
H 	H 	0.89340 0.96740 0.38010 0.08900
C 	C 	0.80970 0.94440 0.37769 0.09800
H 	H 	0.79880 0.96720 0.39840 -0.01200
C 	C 	0.94624 0.90843 0.32459 -0.03700
C 	C 	0.96917 0.90352 0.28857 -0.03100
C 	C 	0.93560 0.90543 0.25218 0.11400
C 	C 	0.91500 0.95550 0.23826 -0.17800
H 	H 	0.92120 0.98980 0.25140 0.09200
C 	C 	0.88410 0.95540 0.20372 0.09600
H 	H 	0.86860 0.99020 0.19540 -0.01500
N 	N 	0.87560 0.90957 0.18219 -0.20700
C 	C 	0.89640 0.86200 0.19577 0.10500
H 	H 	0.89110 0.82860 0.18150 -0.02500
C 	C 	0.92610 0.85720 0.23041 -0.18300
H 	H 	0.93940 0.82140 0.23860 0.08700
N 	N 	0.26954 0.41403 0.86026 -0.19300
C 	C 	0.28660 0.38080 0.83144 0.09200
H 	H 	0.25890 0.35890 0.81870 -0.01500
C 	C 	0.34330 0.37680 0.81931 -0.16900
H 	H 	0.35320 0.35200 0.79940 0.08900
C 	C 	0.38513 0.40994 0.83687 0.10700
C 	C 	0.36698 0.44440 0.86705 -0.17200
H 	H 	0.39340 0.46740 0.88010 0.09000
C 	C 	0.30970 0.44440 0.87769 0.09800
H 	H 	0.29880 0.46720 0.89840 -0.01200
C 	C 	0.44624 0.40843 0.82459 -0.03700
C 	C 	0.46917 0.40352 0.78857 -0.03000
C 	C 	0.43560 0.40543 0.75218 0.11400
C 	C 	0.41500 0.45550 0.73826 -0.17800
H 	H 	0.42120 0.48980 0.75140 0.09200
C 	C 	0.38410 0.45540 0.70372 0.09600
H 	H 	0.36860 0.49020 0.69540 -0.01500
N 	N 	0.37560 0.40957 0.68219 -0.20700
C 	C 	0.39640 0.36200 0.69577 0.10500
H 	H 	0.39110 0.32860 0.68150 -0.02500
C 	C 	0.42610 0.35720 0.73041 -0.18300
H 	H 	0.43940 0.32140 0.73860 0.08700
N 	N 	0.73046 0.08597 0.86026 -0.19300
C 	C 	0.71340 0.11920 0.83144 0.09200
H 	H 	0.74110 0.14110 0.81870 -0.01500
C 	C 	0.65670 0.12320 0.81931 -0.16900
H 	H 	0.64680 0.14800 0.79940 0.08900
C 	C 	0.61487 0.09006 0.83687 0.10700
C 	C 	0.63302 0.05560 0.86705 -0.17200
H 	H 	0.60660 0.03260 0.88010 0.09000
C 	C 	0.69030 0.05560 0.87769 0.09800
H 	H 	0.70120 0.03280 0.89840 -0.01200
C 	C 	0.55376 0.09157 0.82459 -0.03700
C 	C 	0.53083 0.09648 0.78857 -0.03000
C 	C 	0.56440 0.09457 0.75218 0.11400
C 	C 	0.58500 0.04450 0.73826 -0.17800
H 	H 	0.57880 0.01020 0.75140 0.09200
C 	C 	0.61590 0.04460 0.70372 0.09600
H 	H 	0.63140 0.00980 0.69540 -0.01500
N 	N 	0.62440 0.09043 0.68219 -0.20700
C 	C 	0.60360 0.13800 0.69577 0.10500
H 	H 	0.60890 0.17140 0.68150 -0.02500
C 	C 	0.57390 0.14280 0.73041 -0.18300
H 	H 	0.56060 0.17860 0.73860 0.08700
N 	N 	0.23046 0.58597 0.36026 -0.19300
C 	C 	0.21340 0.61920 0.33144 0.09200
H 	H 	0.24110 0.64110 0.31870 -0.01500
C 	C 	0.15670 0.62320 0.31931 -0.16900
H 	H 	0.14680 0.64800 0.29940 0.08900
C 	C 	0.11487 0.59006 0.33687 0.10700
C 	C 	0.13302 0.55560 0.36705 -0.17200
H 	H 	0.10660 0.53260 0.38010 0.09000
C 	C 	0.19030 0.55560 0.37769 0.09800
H 	H 	0.20120 0.53280 0.39840 -0.01200
C 	C 	0.05376 0.59157 0.32459 -0.03700
C 	C 	0.03083 0.59648 0.28857 -0.03000
C 	C 	0.06440 0.59457 0.25218 0.11400
C 	C 	0.08500 0.54450 0.23826 -0.17800
H 	H 	0.07880 0.51020 0.25140 0.09200
C 	C 	0.11590 0.54460 0.20372 0.09600
H 	H 	0.13140 0.50980 0.19540 -0.01500
N 	N 	0.12440 0.59043 0.18219 -0.20600
C 	C 	0.10360 0.63800 0.19577 0.10500
H 	H 	0.10890 0.67140 0.18150 -0.02500
C 	C 	0.07390 0.64280 0.23041 -0.18300
H 	H 	0.06060 0.67860 0.23860 0.08700
N 	N 	0.83597 0.01954 0.11026 -0.19300
C 	C 	0.86920 0.03660 0.08144 0.09200
H 	H 	0.89110 0.00890 0.06870 -0.01500
C 	C 	0.87320 0.09330 0.06931 -0.16900
H 	H 	0.89800 0.10320 0.04940 0.08900
C 	C 	0.84006 0.13513 0.08687 0.10700
C 	C 	0.80560 0.11698 0.11705 -0.17200
H 	H 	0.78260 0.14340 0.13010 0.08900
C 	C 	0.80560 0.05970 0.12769 0.09800
H 	H 	0.78280 0.04880 0.14840 -0.01200
C 	C 	0.84157 0.19624 0.07459 -0.03700
C 	C 	0.84648 0.21917 0.03857 -0.03000
C 	C 	0.84457 0.18560 0.00218 0.11400
C 	C 	0.79450 0.16500 0.98826 -0.17800
H 	H 	0.76020 0.17120 0.00140 0.09200
C 	C 	0.79460 0.13410 0.95372 0.09600
H 	H 	0.75980 0.11860 0.94540 -0.01500
N 	N 	0.84043 0.12560 0.93219 -0.20600
C 	C 	0.88800 0.14640 0.94577 0.10500
H 	H 	0.92140 0.14110 0.93150 -0.02500
C 	C 	0.89280 0.17610 0.98041 -0.18300
H 	H 	0.92860 0.18940 0.98860 0.08700
N 	N 	0.33597 0.51954 0.61026 -0.19300
C 	C 	0.36920 0.53660 0.58144 0.09200
H 	H 	0.39110 0.50890 0.56870 -0.01500
C 	C 	0.37320 0.59330 0.56931 -0.16900
H 	H 	0.39800 0.60320 0.54940 0.08900
C 	C 	0.34006 0.63513 0.58687 0.10700
C 	C 	0.30560 0.61698 0.61705 -0.17200
H 	H 	0.28260 0.64340 0.63010 0.09000
C 	C 	0.30560 0.55970 0.62769 0.09800
H 	H 	0.28280 0.54880 0.64840 -0.01200
C 	C 	0.34157 0.69624 0.57459 -0.03700
C 	C 	0.34648 0.71917 0.53857 -0.03000
C 	C 	0.34457 0.68560 0.50218 0.11400
C 	C 	0.29450 0.66500 0.48826 -0.17800
H 	H 	0.26020 0.67120 0.50140 0.09200
C 	C 	0.29460 0.63410 0.45372 0.09600
H 	H 	0.25980 0.61860 0.44540 -0.01500
N 	N 	0.34043 0.62560 0.43219 -0.20700
C 	C 	0.38800 0.64640 0.44577 0.10500
H 	H 	0.42140 0.64110 0.43150 -0.02500
C 	C 	0.39280 0.67610 0.48041 -0.18300
H 	H 	0.42860 0.68940 0.48860 0.08700
N 	N 	0.66403 0.98046 0.61026 -0.19300
C 	C 	0.63080 0.96340 0.58144 0.09200
H 	H 	0.60890 0.99110 0.56870 -0.01500
C 	C 	0.62680 0.90670 0.56931 -0.16900
H 	H 	0.60200 0.89680 0.54940 0.08900
C 	C 	0.65994 0.86487 0.58687 0.10700
C 	C 	0.69440 0.88302 0.61705 -0.17200
H 	H 	0.71740 0.85660 0.63010 0.08900
C 	C 	0.69440 0.94030 0.62769 0.09800
H 	H 	0.71720 0.95120 0.64840 -0.01200
C 	C 	0.65843 0.80376 0.57459 -0.03700
C 	C 	0.65352 0.78083 0.53857 -0.03000
C 	C 	0.65543 0.81440 0.50218 0.11400
C 	C 	0.70550 0.83500 0.48826 -0.17800
H 	H 	0.73980 0.82880 0.50140 0.09200
C 	C 	0.70540 0.86590 0.45372 0.09600
H 	H 	0.74020 0.88140 0.44540 -0.01500
N 	N 	0.65957 0.87440 0.43219 -0.20700
C 	C 	0.61200 0.85360 0.44577 0.10500
H 	H 	0.57860 0.85890 0.43150 -0.02500
C 	C 	0.60720 0.82390 0.48041 -0.18300
H 	H 	0.57140 0.81060 0.48860 0.08700
N 	N 	0.16403 0.48046 0.11026 -0.19300
C 	C 	0.13080 0.46340 0.08144 0.09200
H 	H 	0.10890 0.49110 0.06870 -0.01500
C 	C 	0.12680 0.40670 0.06931 -0.16900
H 	H 	0.10200 0.39680 0.04940 0.08900
C 	C 	0.15994 0.36487 0.08687 0.10700
C 	C 	0.19440 0.38302 0.11705 -0.17200
H 	H 	0.21740 0.35660 0.13010 0.09000
C 	C 	0.19440 0.44030 0.12769 0.09800
H 	H 	0.21720 0.45120 0.14840 -0.01200
C 	C 	0.15843 0.30376 0.07459 -0.03700
C 	C 	0.15352 0.28083 0.03857 -0.03000
C 	C 	0.15543 0.31440 0.00218 0.11400
C 	C 	0.20550 0.33500 0.98826 -0.17800
H 	H 	0.23980 0.32880 0.00140 0.09200
C 	C 	0.20540 0.36590 0.95372 0.09600
H 	H 	0.24020 0.38140 0.94540 -0.01500
N 	N 	0.15957 0.37440 0.93219 -0.20600
C 	C 	0.11200 0.35360 0.94577 0.10500
H 	H 	0.07860 0.35890 0.93150 -0.02500
C 	C 	0.10720 0.32390 0.98041 -0.18300
H 	H 	0.07140 0.31060 0.98860 0.08700
N 	N 	0.73046 0.91403 0.13974 -0.19300
C 	C 	0.71340 0.88080 0.16856 0.09200
H 	H 	0.74110 0.85890 0.18130 -0.01500
C 	C 	0.65670 0.87680 0.18069 -0.16900
H 	H 	0.64680 0.85200 0.20060 0.08900
C 	C 	0.61487 0.90994 0.16313 0.10700
C 	C 	0.63302 0.94440 0.13295 -0.17200
H 	H 	0.60660 0.96740 0.11990 0.09000
C 	C 	0.69030 0.94440 0.12231 0.09800
H 	H 	0.70120 0.96720 0.10160 -0.01200
C 	C 	0.55376 0.90843 0.17541 -0.03700
C 	C 	0.53083 0.90352 0.21143 -0.03000
C 	C 	0.56440 0.90543 0.24782 0.11400
C 	C 	0.58500 0.95550 0.26174 -0.17800
H 	H 	0.57880 0.98980 0.24860 0.09200
C 	C 	0.61590 0.95540 0.29628 0.09600
H 	H 	0.63140 0.99020 0.30460 -0.01500
N 	N 	0.62440 0.90957 0.31781 -0.20700
C 	C 	0.60360 0.86200 0.30423 0.10500
H 	H 	0.60890 0.82860 0.31850 -0.02500
C 	C 	0.57390 0.85720 0.26959 -0.18300
H 	H 	0.56060 0.82140 0.26140 0.08700
N 	N 	0.23046 0.41403 0.63974 -0.19300
C 	C 	0.21340 0.38080 0.66856 0.09200
H 	H 	0.24110 0.35890 0.68130 -0.01500
C 	C 	0.15670 0.37680 0.68069 -0.16900
H 	H 	0.14680 0.35200 0.70060 0.08900
C 	C 	0.11487 0.40994 0.66313 0.10700
C 	C 	0.13302 0.44440 0.63295 -0.17200
H 	H 	0.10660 0.46740 0.61990 0.09000
C 	C 	0.19030 0.44440 0.62231 0.09800
H 	H 	0.20120 0.46720 0.60160 -0.01200
C 	C 	0.05376 0.40843 0.67541 -0.03700
C 	C 	0.03083 0.40352 0.71143 -0.03000
C 	C 	0.06440 0.40543 0.74782 0.11400
C 	C 	0.08500 0.45550 0.76174 -0.17800
H 	H 	0.07880 0.48980 0.74860 0.09200
C 	C 	0.11590 0.45540 0.79628 0.09600
H 	H 	0.13140 0.49020 0.80460 -0.01500
N 	N 	0.12440 0.40957 0.81781 -0.20600
C 	C 	0.10360 0.36200 0.80423 0.10500
H 	H 	0.10890 0.32860 0.81850 -0.02500
C 	C 	0.07390 0.35720 0.76959 -0.18300
H 	H 	0.06060 0.32140 0.76140 0.08700
N 	N 	0.76954 0.08597 0.63974 -0.19300
C 	C 	0.78660 0.11920 0.66856 0.09200
H 	H 	0.75890 0.14110 0.68130 -0.01500
C 	C 	0.84330 0.12320 0.68069 -0.16900
H 	H 	0.85320 0.14800 0.70060 0.08900
C 	C 	0.88513 0.09006 0.66313 0.10700
C 	C 	0.86698 0.05560 0.63295 -0.17200
H 	H 	0.89340 0.03260 0.61990 0.08900
C 	C 	0.80970 0.05560 0.62231 0.09800
H 	H 	0.79880 0.03280 0.60160 -0.01200
C 	C 	0.94624 0.09157 0.67541 -0.03700
C 	C 	0.96917 0.09648 0.71143 -0.03100
C 	C 	0.93560 0.09457 0.74782 0.11400
C 	C 	0.91500 0.04450 0.76174 -0.17800
H 	H 	0.92120 0.01020 0.74860 0.09200
C 	C 	0.88410 0.04460 0.79628 0.09600
H 	H 	0.86860 0.00980 0.80460 -0.01500
N 	N 	0.87560 0.09043 0.81781 -0.20700
C 	C 	0.89640 0.13800 0.80423 0.10500
H 	H 	0.89110 0.17140 0.81850 -0.02500
C 	C 	0.92610 0.14280 0.76959 -0.18300
H 	H 	0.93940 0.17860 0.76140 0.08700
N 	N 	0.26954 0.58597 0.13974 -0.19300
C 	C 	0.28660 0.61920 0.16856 0.09200
H 	H 	0.25890 0.64110 0.18130 -0.01500
C 	C 	0.34330 0.62320 0.18069 -0.16900
H 	H 	0.35320 0.64800 0.20060 0.08900
C 	C 	0.38513 0.59006 0.16313 0.10700
C 	C 	0.36698 0.55560 0.13295 -0.17200
H 	H 	0.39340 0.53260 0.11990 0.09000
C 	C 	0.30970 0.55560 0.12231 0.09800
H 	H 	0.29880 0.53280 0.10160 -0.01200
C 	C 	0.44624 0.59157 0.17541 -0.03700
C 	C 	0.46917 0.59648 0.21143 -0.03000
C 	C 	0.43560 0.59457 0.24782 0.11400
C 	C 	0.41500 0.54450 0.26174 -0.17800
H 	H 	0.42120 0.51020 0.24860 0.09200
C 	C 	0.38410 0.54460 0.29628 0.09600
H 	H 	0.36860 0.50980 0.30460 -0.01500
N 	N 	0.37560 0.59043 0.31781 -0.20700
C 	C 	0.39640 0.63800 0.30423 0.10500
H 	H 	0.39110 0.67140 0.31850 -0.02500
C 	C 	0.42610 0.64280 0.26959 -0.18300
H 	H 	0.43940 0.67860 0.26140 0.08700
N 	N 	0.66403 0.01954 0.38974 -0.19300
C 	C 	0.63080 0.03660 0.41856 0.09200
H 	H 	0.60890 0.00890 0.43130 -0.01500
C 	C 	0.62680 0.09330 0.43069 -0.16900
H 	H 	0.60200 0.10320 0.45060 0.08900
C 	C 	0.65994 0.13513 0.41313 0.10700
C 	C 	0.69440 0.11698 0.38295 -0.17200
H 	H 	0.71740 0.14340 0.36990 0.08900
C 	C 	0.69440 0.05970 0.37231 0.09800
H 	H 	0.71720 0.04880 0.35160 -0.01200
C 	C 	0.65843 0.19624 0.42541 -0.03700
C 	C 	0.65352 0.21917 0.46143 -0.03000
C 	C 	0.65543 0.18560 0.49782 0.11400
C 	C 	0.70550 0.16500 0.51174 -0.17800
H 	H 	0.73980 0.17120 0.49860 0.09200
C 	C 	0.70540 0.13410 0.54628 0.09600
H 	H 	0.74020 0.11860 0.55460 -0.01500
N 	N 	0.65957 0.12560 0.56781 -0.20700
C 	C 	0.61200 0.14640 0.55423 0.10500
H 	H 	0.57860 0.14110 0.56850 -0.02500
C 	C 	0.60720 0.17610 0.51959 -0.18300
H 	H 	0.57140 0.18940 0.51140 0.08700
N 	N 	0.16403 0.51954 0.88974 -0.19300
C 	C 	0.13080 0.53660 0.91856 0.09200
H 	H 	0.10890 0.50890 0.93130 -0.01500
C 	C 	0.12680 0.59330 0.93069 -0.16900
H 	H 	0.10200 0.60320 0.95060 0.08900
C 	C 	0.15994 0.63513 0.91313 0.10700
C 	C 	0.19440 0.61698 0.88295 -0.17200
H 	H 	0.21740 0.64340 0.86990 0.09000
C 	C 	0.19440 0.55970 0.87231 0.09800
H 	H 	0.21720 0.54880 0.85160 -0.01200
C 	C 	0.15843 0.69624 0.92541 -0.03700
C 	C 	0.15352 0.71917 0.96143 -0.03000
C 	C 	0.15543 0.68560 0.99782 0.11400
C 	C 	0.20550 0.66500 0.01174 -0.17800
H 	H 	0.23980 0.67120 0.99860 0.09200
C 	C 	0.20540 0.63410 0.04628 0.09600
H 	H 	0.24020 0.61860 0.05460 -0.01500
N 	N 	0.15957 0.62560 0.06781 -0.20600
C 	C 	0.11200 0.64640 0.05423 0.10500
H 	H 	0.07860 0.64110 0.06850 -0.02500
C 	C 	0.10720 0.67610 0.01959 -0.18300
H 	H 	0.07140 0.68940 0.01140 0.08700
N 	N 	0.83597 0.98046 0.88974 -0.19300
C 	C 	0.86920 0.96340 0.91856 0.09200
H 	H 	0.89110 0.99110 0.93130 -0.01500
C 	C 	0.87320 0.90670 0.93069 -0.16900
H 	H 	0.89800 0.89680 0.95060 0.08900
C 	C 	0.84006 0.86487 0.91313 0.10700
C 	C 	0.80560 0.88302 0.88295 -0.17200
H 	H 	0.78260 0.85660 0.86990 0.08900
C 	C 	0.80560 0.94030 0.87231 0.09800
H 	H 	0.78280 0.95120 0.85160 -0.01200
C 	C 	0.84157 0.80376 0.92541 -0.03700
C 	C 	0.84648 0.78083 0.96143 -0.03000
C 	C 	0.84457 0.81440 0.99782 0.11400
C 	C 	0.79450 0.83500 0.01174 -0.17800
H 	H 	0.76020 0.82880 0.99860 0.09200
C 	C 	0.79460 0.86590 0.04628 0.09600
H 	H 	0.75980 0.88140 0.05460 -0.01500
N 	N 	0.84043 0.87440 0.06781 -0.20600
C 	C 	0.88800 0.85360 0.05423 0.10500
H 	H 	0.92140 0.85890 0.06850 -0.02500
C 	C 	0.89280 0.82390 0.01959 -0.18300
H 	H 	0.92860 0.81060 0.01140 0.08700
N 	N 	0.33597 0.48046 0.38974 -0.19300
C 	C 	0.36920 0.46340 0.41856 0.09200
H 	H 	0.39110 0.49110 0.43130 -0.01500
C 	C 	0.37320 0.40670 0.43069 -0.16900
H 	H 	0.39800 0.39680 0.45060 0.08900
C 	C 	0.34006 0.36487 0.41313 0.10700
C 	C 	0.30560 0.38302 0.38295 -0.17200
H 	H 	0.28260 0.35660 0.36990 0.09000
C 	C 	0.30560 0.44030 0.37231 0.09800
H 	H 	0.28280 0.45120 0.35160 -0.01200
C 	C 	0.34157 0.30376 0.42541 -0.03700
C 	C 	0.34648 0.28083 0.46143 -0.03000
C 	C 	0.34457 0.31440 0.49782 0.11400
C 	C 	0.29450 0.33500 0.51174 -0.17800
H 	H 	0.26020 0.32880 0.49860 0.09200
C 	C 	0.29460 0.36590 0.54628 0.09600
H 	H 	0.25980 0.38140 0.55460 -0.01500
N 	N 	0.34043 0.37440 0.56781 -0.20700
C 	C 	0.38800 0.35360 0.55423 0.10500
H 	H 	0.42140 0.35890 0.56850 -0.02500
C 	C 	0.39280 0.32390 0.51959 -0.18300
H 	H 	0.42860 0.31060 0.51140 0.08700
Ag	Ag	0.33050 0.08050 0.62500 0.53800
Ag	Ag	0.83050 0.58050 0.12500 0.53800
Ag	Ag	0.16950 0.91950 0.12500 0.53800
Ag	Ag	0.66950 0.41950 0.62500 0.53800
Ag	Ag	0.16950 0.08050 0.87500 0.53800
Ag	Ag	0.66950 0.58050 0.37500 0.53800
Ag	Ag	0.33050 0.91950 0.37500 0.53800
Ag	Ag	0.83050 0.41950 0.87500 0.53800
Ag	Ag	0.66950 0.91950 0.37500 0.53800
Ag	Ag	0.16950 0.41950 0.87500 0.53800
Ag	Ag	0.83050 0.08050 0.87500 0.53800
Ag	Ag	0.33050 0.58050 0.37500 0.53800
Ag	Ag	0.83050 0.91950 0.12500 0.53800
Ag	Ag	0.33050 0.41950 0.62500 0.53800
Ag	Ag	0.66950 0.08050 0.62500 0.53800
Ag	Ag	0.16950 0.58050 0.12500 0.53800
S 	S 	0.00000 0.08796 0.64076 -0.00800
S 	S 	0.50000 0.58796 0.14076 -0.00900
S 	S 	0.50000 0.91204 0.14076 -0.00900
S 	S 	-0.00000 0.41204 0.64076 -0.00800
S 	S 	0.16204 0.75000 0.89076 -0.00900
S 	S 	0.33796 0.25000 0.39076 -0.00900
S 	S 	0.50000 0.08796 0.85924 -0.00900
S 	S 	0.00000 0.58796 0.35924 -0.00800
S 	S 	0.00000 0.91204 0.35924 -0.00800
S 	S 	0.50000 0.41204 0.85924 -0.00900
S 	S 	0.33796 0.75000 0.60924 -0.00900
S 	S 	0.16204 0.25000 0.10924 -0.00900
S 	S 	0.83796 0.25000 0.10924 -0.00900
S 	S 	0.66204 0.75000 0.60924 -0.00900
S 	S 	0.66204 0.25000 0.39076 -0.00900
S 	S 	0.83796 0.75000 0.89076 -0.00900
