data_crystal

_cell_length_a 22.54300
_cell_length_b 22.54300
_cell_length_c 35.51670
_cell_angle_alpha 90.00000
_cell_angle_beta  90.00000
_cell_angle_gamma 90.00000

_symmetry_space_group_name_	'P 1'
_symmetry_space_group_name_H-M	'P 1'

loop_
_symmetry_equiv_pos_as_xyz
  x,y,z

loop_
_atom_site_label
_atom_site_type_symbol
_atom_site_fract_x
_atom_site_fract_y
_atom_site_fract_z
_atom_site_charge
N 	N 	0.23632 0.09176 0.64109 -0.18800
C 	C 	0.21900 0.12319 0.67091 0.07900
H 	H 	0.24830 0.14410 0.68480 -0.01000
C 	C 	0.16087 0.12711 0.68276 -0.15300
H 	H 	0.15060 0.15140 0.70360 0.08100
C 	C 	0.11773 0.09512 0.66383 0.09400
C 	C 	0.13575 0.06162 0.63315 -0.15400
H 	H 	0.10770 0.03910 0.61920 0.08000
C 	C 	0.19464 0.06127 0.62305 0.08200
H 	H 	0.20620 0.03790 0.60200 -0.00600
C 	C 	0.05506 0.09613 0.67555 -0.03500
C 	C 	0.03178 0.10078 0.71134 -0.02700
C 	C 	0.06565 0.10069 0.74718 0.09600
C 	C 	0.08374 0.04801 0.76310 -0.15500
H 	H 	0.07730 0.01160 0.75030 0.08100
C 	C 	0.11120 0.04843 0.79768 0.08000
H 	H 	0.12290 0.01150 0.80830 -0.01000
N 	N 	0.12238 0.09776 0.81718 -0.20300
C 	C 	0.10661 0.14722 0.80118 0.09400
H 	H 	0.11590 0.18320 0.81380 -0.02100
C 	C 	0.07743 0.15108 0.76721 -0.16500
H 	H 	0.06550 0.18860 0.75770 0.07900
N 	N 	0.73632 0.59176 0.14109 -0.18700
C 	C 	0.71900 0.62319 0.17091 0.08000
H 	H 	0.74830 0.64410 0.18480 -0.00900
C 	C 	0.66087 0.62711 0.18276 -0.15200
H 	H 	0.65060 0.65140 0.20360 0.08200
C 	C 	0.61773 0.59512 0.16383 0.09500
C 	C 	0.63575 0.56162 0.13315 -0.15300
H 	H 	0.60770 0.53910 0.11920 0.08100
C 	C 	0.69464 0.56127 0.12305 0.08300
H 	H 	0.70620 0.53790 0.10200 -0.00500
C 	C 	0.55506 0.59613 0.17555 -0.03400
C 	C 	0.53178 0.60078 0.21134 -0.02700
C 	C 	0.56565 0.60069 0.24718 0.09700
C 	C 	0.58374 0.54801 0.26310 -0.15400
H 	H 	0.57730 0.51160 0.25030 0.08200
C 	C 	0.61120 0.54843 0.29768 0.08100
H 	H 	0.62290 0.51150 0.30830 -0.00900
N 	N 	0.62238 0.59776 0.31718 -0.20200
C 	C 	0.60661 0.64722 0.30118 0.09400
H 	H 	0.61590 0.68320 0.31380 -0.02100
C 	C 	0.57743 0.65108 0.26721 -0.16500
H 	H 	0.56550 0.68860 0.25770 0.07900
N 	N 	0.26368 0.90824 0.14109 -0.18700
C 	C 	0.28100 0.87681 0.17091 0.08000
H 	H 	0.25170 0.85590 0.18480 -0.00900
C 	C 	0.33913 0.87289 0.18276 -0.15200
H 	H 	0.34940 0.84860 0.20360 0.08200
C 	C 	0.38227 0.90488 0.16383 0.09500
C 	C 	0.36425 0.93838 0.13315 -0.15300
H 	H 	0.39230 0.96090 0.11920 0.08100
C 	C 	0.30536 0.93873 0.12305 0.08300
H 	H 	0.29380 0.96210 0.10200 -0.00500
C 	C 	0.44494 0.90387 0.17555 -0.03400
C 	C 	0.46822 0.89922 0.21134 -0.02700
C 	C 	0.43435 0.89931 0.24718 0.09700
C 	C 	0.41626 0.95199 0.26310 -0.15400
H 	H 	0.42270 0.98840 0.25030 0.08200
C 	C 	0.38880 0.95157 0.29768 0.08100
H 	H 	0.37710 0.98850 0.30830 -0.00900
N 	N 	0.37762 0.90224 0.31718 -0.20200
C 	C 	0.39339 0.85278 0.30118 0.09400
H 	H 	0.38410 0.81680 0.31380 -0.02100
C 	C 	0.42257 0.84892 0.26721 -0.16500
H 	H 	0.43450 0.81140 0.25770 0.07900
N 	N 	0.76368 0.40824 0.64109 -0.18700
C 	C 	0.78100 0.37681 0.67091 0.08000
H 	H 	0.75170 0.35590 0.68480 -0.00900
C 	C 	0.83913 0.37289 0.68276 -0.15200
H 	H 	0.84940 0.34860 0.70360 0.08200
C 	C 	0.88227 0.40488 0.66383 0.09500
C 	C 	0.86425 0.43838 0.63315 -0.15300
H 	H 	0.89230 0.46090 0.61920 0.08100
C 	C 	0.80536 0.43873 0.62305 0.08300
H 	H 	0.79380 0.46210 0.60200 -0.00500
C 	C 	0.94494 0.40387 0.67555 -0.03500
C 	C 	0.96822 0.39922 0.71134 -0.02700
C 	C 	0.93435 0.39931 0.74718 0.09700
C 	C 	0.91626 0.45199 0.76310 -0.15400
H 	H 	0.92270 0.48840 0.75030 0.08200
C 	C 	0.88880 0.45157 0.79768 0.08100
H 	H 	0.87710 0.48850 0.80830 -0.00900
N 	N 	0.87762 0.40224 0.81718 -0.20200
C 	C 	0.89339 0.35278 0.80118 0.09400
H 	H 	0.88410 0.31680 0.81380 -0.02100
C 	C 	0.92257 0.34892 0.76721 -0.16600
H 	H 	0.93450 0.31140 0.75770 0.07900
N 	N 	0.15824 0.98632 0.89109 -0.18700
C 	C 	0.12681 0.96900 0.92091 0.08000
H 	H 	0.10590 0.99830 0.93480 -0.00900
C 	C 	0.12289 0.91087 0.93276 -0.15200
H 	H 	0.09860 0.90060 0.95360 0.08200
C 	C 	0.15488 0.86773 0.91383 0.09500
C 	C 	0.18838 0.88575 0.88315 -0.15300
H 	H 	0.21090 0.85770 0.86920 0.08100
C 	C 	0.18873 0.94464 0.87305 0.08300
H 	H 	0.21210 0.95620 0.85200 -0.00500
C 	C 	0.15387 0.80506 0.92555 -0.03400
C 	C 	0.14922 0.78178 0.96134 -0.02700
C 	C 	0.14931 0.81565 0.99718 0.09800
C 	C 	0.20199 0.83374 0.01310 -0.15400
H 	H 	0.23840 0.82730 0.00030 0.08200
C 	C 	0.20157 0.86120 0.04768 0.08100
H 	H 	0.23850 0.87290 0.05830 -0.00900
N 	N 	0.15224 0.87238 0.06718 -0.20200
C 	C 	0.10278 0.85661 0.05118 0.09400
H 	H 	0.06680 0.86590 0.06380 -0.02100
C 	C 	0.09892 0.82743 0.01721 -0.16600
H 	H 	0.06140 0.81550 0.00770 0.07900
N 	N 	0.65824 0.48632 0.39109 -0.18700
C 	C 	0.62681 0.46900 0.42091 0.08000
H 	H 	0.60590 0.49830 0.43480 -0.00900
C 	C 	0.62289 0.41087 0.43276 -0.15200
H 	H 	0.59860 0.40060 0.45360 0.08200
C 	C 	0.65488 0.36773 0.41383 0.09500
C 	C 	0.68838 0.38575 0.38315 -0.15300
H 	H 	0.71090 0.35770 0.36920 0.08100
C 	C 	0.68873 0.44464 0.37305 0.08300
H 	H 	0.71210 0.45620 0.35200 -0.00500
C 	C 	0.65387 0.30506 0.42555 -0.03400
C 	C 	0.64922 0.28178 0.46134 -0.02700
C 	C 	0.64931 0.31565 0.49718 0.09700
C 	C 	0.70199 0.33374 0.51310 -0.15400
H 	H 	0.73840 0.32730 0.50030 0.08200
C 	C 	0.70157 0.36120 0.54768 0.08100
H 	H 	0.73850 0.37290 0.55830 -0.00900
N 	N 	0.65224 0.37238 0.56718 -0.20200
C 	C 	0.60278 0.35661 0.55118 0.09400
H 	H 	0.56680 0.36590 0.56380 -0.02100
C 	C 	0.59892 0.32743 0.51721 -0.16500
H 	H 	0.56140 0.31550 0.50770 0.07900
N 	N 	0.34176 0.01368 0.39109 -0.18700
C 	C 	0.37319 0.03100 0.42091 0.08000
H 	H 	0.39410 0.00170 0.43480 -0.00900
C 	C 	0.37711 0.08913 0.43276 -0.15200
H 	H 	0.40140 0.09940 0.45360 0.08200
C 	C 	0.34512 0.13227 0.41383 0.09500
C 	C 	0.31162 0.11425 0.38315 -0.15300
H 	H 	0.28910 0.14230 0.36920 0.08100
C 	C 	0.31127 0.05536 0.37305 0.08300
H 	H 	0.28790 0.04380 0.35200 -0.00500
C 	C 	0.34613 0.19494 0.42555 -0.03400
C 	C 	0.35078 0.21822 0.46134 -0.02700
C 	C 	0.35069 0.18435 0.49718 0.09700
C 	C 	0.29801 0.16626 0.51310 -0.15400
H 	H 	0.26160 0.17270 0.50030 0.08200
C 	C 	0.29843 0.13880 0.54768 0.08100
H 	H 	0.26150 0.12710 0.55830 -0.00900
N 	N 	0.34776 0.12762 0.56718 -0.20200
C 	C 	0.39722 0.14339 0.55118 0.09400
H 	H 	0.43320 0.13410 0.56380 -0.02100
C 	C 	0.40108 0.17257 0.51721 -0.16500
H 	H 	0.43860 0.18450 0.50770 0.07900
N 	N 	0.84176 0.51368 0.89109 -0.18700
C 	C 	0.87319 0.53100 0.92091 0.08000
H 	H 	0.89410 0.50170 0.93480 -0.00900
C 	C 	0.87711 0.58913 0.93276 -0.15200
H 	H 	0.90140 0.59940 0.95360 0.08200
C 	C 	0.84512 0.63227 0.91383 0.09500
C 	C 	0.81162 0.61425 0.88315 -0.15300
H 	H 	0.78910 0.64230 0.86920 0.08100
C 	C 	0.81127 0.55536 0.87305 0.08300
H 	H 	0.78790 0.54380 0.85200 -0.00500
C 	C 	0.84613 0.69494 0.92555 -0.03400
C 	C 	0.85078 0.71822 0.96134 -0.02700
C 	C 	0.85069 0.68435 0.99718 0.09700
C 	C 	0.79801 0.66626 0.01310 -0.15400
H 	H 	0.76160 0.67270 0.00030 0.08200
C 	C 	0.79843 0.63880 0.04768 0.08100
H 	H 	0.76150 0.62710 0.05830 -0.00900
N 	N 	0.84776 0.62762 0.06718 -0.20200
C 	C 	0.89722 0.64339 0.05118 0.09400
H 	H 	0.93320 0.63410 0.06380 -0.02100
C 	C 	0.90108 0.67257 0.01721 -0.16600
H 	H 	0.93860 0.68450 0.00770 0.07800
N 	N 	0.26368 0.09176 0.85891 -0.18700
C 	C 	0.28100 0.12319 0.82909 0.08000
H 	H 	0.25170 0.14410 0.81520 -0.00900
C 	C 	0.33913 0.12711 0.81724 -0.15200
H 	H 	0.34940 0.15140 0.79640 0.08200
C 	C 	0.38227 0.09512 0.83617 0.09500
C 	C 	0.36425 0.06162 0.86685 -0.15300
H 	H 	0.39230 0.03910 0.88080 0.08100
C 	C 	0.30536 0.06127 0.87695 0.08300
H 	H 	0.29380 0.03790 0.89800 -0.00500
C 	C 	0.44494 0.09613 0.82445 -0.03400
C 	C 	0.46822 0.10078 0.78866 -0.02700
C 	C 	0.43435 0.10069 0.75282 0.09700
C 	C 	0.41626 0.04801 0.73690 -0.15400
H 	H 	0.42270 0.01160 0.74970 0.08200
C 	C 	0.38880 0.04843 0.70232 0.08100
H 	H 	0.37710 0.01150 0.69170 -0.00900
N 	N 	0.37762 0.09776 0.68282 -0.20200
C 	C 	0.39339 0.14722 0.69882 0.09400
H 	H 	0.38410 0.18320 0.68620 -0.02100
C 	C 	0.42257 0.15108 0.73279 -0.16500
H 	H 	0.43450 0.18860 0.74230 0.07900
N 	N 	0.76368 0.59176 0.35891 -0.18700
C 	C 	0.78100 0.62319 0.32909 0.08000
H 	H 	0.75170 0.64410 0.31520 -0.00900
C 	C 	0.83913 0.62711 0.31724 -0.15200
H 	H 	0.84940 0.65140 0.29640 0.08200
C 	C 	0.88227 0.59512 0.33617 0.09500
C 	C 	0.86425 0.56162 0.36685 -0.15300
H 	H 	0.89230 0.53910 0.38080 0.08100
C 	C 	0.80536 0.56127 0.37695 0.08300
H 	H 	0.79380 0.53790 0.39800 -0.00500
C 	C 	0.94494 0.59613 0.32445 -0.03500
C 	C 	0.96822 0.60078 0.28866 -0.02700
C 	C 	0.93435 0.60069 0.25282 0.09700
C 	C 	0.91626 0.54801 0.23690 -0.15400
H 	H 	0.92270 0.51160 0.24970 0.08200
C 	C 	0.88880 0.54843 0.20232 0.08100
H 	H 	0.87710 0.51150 0.19170 -0.00900
N 	N 	0.87762 0.59776 0.18282 -0.20200
C 	C 	0.89339 0.64722 0.19882 0.09400
H 	H 	0.88410 0.68320 0.18620 -0.02100
C 	C 	0.92257 0.65108 0.23279 -0.16600
H 	H 	0.93450 0.68860 0.24230 0.07900
N 	N 	0.23632 0.90824 0.35891 -0.18700
C 	C 	0.21900 0.87681 0.32909 0.08000
H 	H 	0.24830 0.85590 0.31520 -0.00900
C 	C 	0.16087 0.87289 0.31724 -0.15200
H 	H 	0.15060 0.84860 0.29640 0.08200
C 	C 	0.11773 0.90488 0.33617 0.09500
C 	C 	0.13575 0.93838 0.36685 -0.15300
H 	H 	0.10770 0.96090 0.38080 0.08100
C 	C 	0.19464 0.93873 0.37695 0.08300
H 	H 	0.20620 0.96210 0.39800 -0.00500
C 	C 	0.05506 0.90387 0.32445 -0.03400
C 	C 	0.03178 0.89922 0.28866 -0.02600
C 	C 	0.06565 0.89931 0.25282 0.09700
C 	C 	0.08374 0.95199 0.23690 -0.15400
H 	H 	0.07730 0.98840 0.24970 0.08200
C 	C 	0.11120 0.95157 0.20232 0.08100
H 	H 	0.12290 0.98850 0.19170 -0.00900
N 	N 	0.12238 0.90224 0.18282 -0.20200
C 	C 	0.10661 0.85278 0.19882 0.09400
H 	H 	0.11590 0.81680 0.18620 -0.02100
C 	C 	0.07743 0.84892 0.23279 -0.16500
H 	H 	0.06550 0.81140 0.24230 0.07900
N 	N 	0.73632 0.40824 0.85891 -0.18700
C 	C 	0.71900 0.37681 0.82909 0.08000
H 	H 	0.74830 0.35590 0.81520 -0.00900
C 	C 	0.66087 0.37289 0.81724 -0.15200
H 	H 	0.65060 0.34860 0.79640 0.08200
C 	C 	0.61773 0.40488 0.83617 0.09500
C 	C 	0.63575 0.43838 0.86685 -0.15300
H 	H 	0.60770 0.46090 0.88080 0.08100
C 	C 	0.69464 0.43873 0.87695 0.08300
H 	H 	0.70620 0.46210 0.89800 -0.00500
C 	C 	0.55506 0.40387 0.82445 -0.03400
C 	C 	0.53178 0.39922 0.78866 -0.02700
C 	C 	0.56565 0.39931 0.75282 0.09700
C 	C 	0.58374 0.45199 0.73690 -0.15400
H 	H 	0.57730 0.48840 0.74970 0.08200
C 	C 	0.61120 0.45157 0.70232 0.08100
H 	H 	0.62290 0.48850 0.69170 -0.00900
N 	N 	0.62238 0.40224 0.68282 -0.20200
C 	C 	0.60661 0.35278 0.69882 0.09400
H 	H 	0.61590 0.31680 0.68620 -0.02100
C 	C 	0.57743 0.34892 0.73279 -0.16500
H 	H 	0.56550 0.31140 0.74230 0.07900
N 	N 	0.34176 0.98632 0.60891 -0.18700
C 	C 	0.37319 0.96900 0.57909 0.08000
H 	H 	0.39410 0.99830 0.56520 -0.00900
C 	C 	0.37711 0.91087 0.56724 -0.15200
H 	H 	0.40140 0.90060 0.54640 0.08200
C 	C 	0.34512 0.86773 0.58617 0.09500
C 	C 	0.31162 0.88575 0.61685 -0.15300
H 	H 	0.28910 0.85770 0.63080 0.08100
C 	C 	0.31127 0.94464 0.62695 0.08300
H 	H 	0.28790 0.95620 0.64800 -0.00500
C 	C 	0.34613 0.80506 0.57445 -0.03400
C 	C 	0.35078 0.78178 0.53866 -0.02700
C 	C 	0.35069 0.81565 0.50282 0.09700
C 	C 	0.29801 0.83374 0.48690 -0.15400
H 	H 	0.26160 0.82730 0.49970 0.08200
C 	C 	0.29843 0.86120 0.45232 0.08100
H 	H 	0.26150 0.87290 0.44170 -0.00900
N 	N 	0.34776 0.87238 0.43282 -0.20200
C 	C 	0.39722 0.85661 0.44882 0.09400
H 	H 	0.43320 0.86590 0.43620 -0.02100
C 	C 	0.40108 0.82743 0.48279 -0.16500
H 	H 	0.43860 0.81550 0.49230 0.07900
N 	N 	0.84176 0.48632 0.10891 -0.18700
C 	C 	0.87319 0.46900 0.07909 0.08000
H 	H 	0.89410 0.49830 0.06520 -0.00900
C 	C 	0.87711 0.41087 0.06724 -0.15200
H 	H 	0.90140 0.40060 0.04640 0.08200
C 	C 	0.84512 0.36773 0.08617 0.09500
C 	C 	0.81162 0.38575 0.11685 -0.15300
H 	H 	0.78910 0.35770 0.13080 0.08100
C 	C 	0.81127 0.44464 0.12695 0.08300
H 	H 	0.78790 0.45620 0.14800 -0.00500
C 	C 	0.84613 0.30506 0.07445 -0.03400
C 	C 	0.85078 0.28178 0.03866 -0.02700
C 	C 	0.85069 0.31565 0.00282 0.09700
C 	C 	0.79801 0.33374 0.98690 -0.15400
H 	H 	0.76160 0.32730 0.99970 0.08200
C 	C 	0.79843 0.36120 0.95232 0.08100
H 	H 	0.76150 0.37290 0.94170 -0.00900
N 	N 	0.84776 0.37238 0.93282 -0.20200
C 	C 	0.89722 0.35661 0.94882 0.09400
H 	H 	0.93320 0.36590 0.93620 -0.02100
C 	C 	0.90108 0.32743 0.98279 -0.16600
H 	H 	0.93860 0.31550 0.99230 0.07800
N 	N 	0.15824 0.01368 0.10891 -0.18700
C 	C 	0.12681 0.03100 0.07909 0.08000
H 	H 	0.10590 0.00170 0.06520 -0.00900
C 	C 	0.12289 0.08913 0.06724 -0.15200
H 	H 	0.09860 0.09940 0.04640 0.08200
C 	C 	0.15488 0.13227 0.08617 0.09500
C 	C 	0.18838 0.11425 0.11685 -0.15300
H 	H 	0.21090 0.14230 0.13080 0.08100
C 	C 	0.18873 0.05536 0.12695 0.08300
H 	H 	0.21210 0.04380 0.14800 -0.00500
C 	C 	0.15387 0.19494 0.07445 -0.03400
C 	C 	0.14922 0.21822 0.03866 -0.02700
C 	C 	0.14931 0.18435 0.00282 0.09800
C 	C 	0.20199 0.16626 0.98690 -0.15400
H 	H 	0.23840 0.17270 0.99970 0.08200
C 	C 	0.20157 0.13880 0.95232 0.08100
H 	H 	0.23850 0.12710 0.94170 -0.00900
N 	N 	0.15224 0.12762 0.93282 -0.20200
C 	C 	0.10278 0.14339 0.94882 0.09400
H 	H 	0.06680 0.13410 0.93620 -0.02100
C 	C 	0.09892 0.17257 0.98279 -0.16600
H 	H 	0.06140 0.18450 0.99230 0.07900
N 	N 	0.65824 0.51368 0.60891 -0.18700
C 	C 	0.62681 0.53100 0.57909 0.08000
H 	H 	0.60590 0.50170 0.56520 -0.00900
C 	C 	0.62289 0.58913 0.56724 -0.15200
H 	H 	0.59860 0.59940 0.54640 0.08200
C 	C 	0.65488 0.63227 0.58617 0.09500
C 	C 	0.68838 0.61425 0.61685 -0.15300
H 	H 	0.71090 0.64230 0.63080 0.08100
C 	C 	0.68873 0.55536 0.62695 0.08300
H 	H 	0.71210 0.54380 0.64800 -0.00500
C 	C 	0.65387 0.69494 0.57445 -0.03400
C 	C 	0.64922 0.71822 0.53866 -0.02700
C 	C 	0.64931 0.68435 0.50282 0.09700
C 	C 	0.70199 0.66626 0.48690 -0.15400
H 	H 	0.73840 0.67270 0.49970 0.08200
C 	C 	0.70157 0.63880 0.45232 0.08100
H 	H 	0.73850 0.62710 0.44170 -0.00900
N 	N 	0.65224 0.62762 0.43282 -0.20200
C 	C 	0.60278 0.64339 0.44882 0.09400
H 	H 	0.56680 0.63410 0.43620 -0.02100
C 	C 	0.59892 0.67257 0.48279 -0.16500
H 	H 	0.56140 0.68450 0.49230 0.07900
N 	N 	0.76368 0.90824 0.35891 -0.18700
C 	C 	0.78100 0.87681 0.32909 0.08000
H 	H 	0.75170 0.85590 0.31520 -0.00900
C 	C 	0.83913 0.87289 0.31724 -0.15200
H 	H 	0.84940 0.84860 0.29640 0.08200
C 	C 	0.88227 0.90488 0.33617 0.09500
C 	C 	0.86425 0.93838 0.36685 -0.15300
H 	H 	0.89230 0.96090 0.38080 0.08100
C 	C 	0.80536 0.93873 0.37695 0.08300
H 	H 	0.79380 0.96210 0.39800 -0.00500
C 	C 	0.94494 0.90387 0.32445 -0.03500
C 	C 	0.96822 0.89922 0.28866 -0.02700
C 	C 	0.93435 0.89931 0.25282 0.09700
C 	C 	0.91626 0.95199 0.23690 -0.15400
H 	H 	0.92270 0.98840 0.24970 0.08200
C 	C 	0.88880 0.95157 0.20232 0.08100
H 	H 	0.87710 0.98850 0.19170 -0.00900
N 	N 	0.87762 0.90224 0.18282 -0.20200
C 	C 	0.89339 0.85278 0.19882 0.09400
H 	H 	0.88410 0.81680 0.18620 -0.02100
C 	C 	0.92257 0.84892 0.23279 -0.16600
H 	H 	0.93450 0.81140 0.24230 0.07900
N 	N 	0.26368 0.40824 0.85891 -0.18700
C 	C 	0.28100 0.37681 0.82909 0.08000
H 	H 	0.25170 0.35590 0.81520 -0.00900
C 	C 	0.33913 0.37289 0.81724 -0.15200
H 	H 	0.34940 0.34860 0.79640 0.08200
C 	C 	0.38227 0.40488 0.83617 0.09500
C 	C 	0.36425 0.43838 0.86685 -0.15300
H 	H 	0.39230 0.46090 0.88080 0.08100
C 	C 	0.30536 0.43873 0.87695 0.08300
H 	H 	0.29380 0.46210 0.89800 -0.00500
C 	C 	0.44494 0.40387 0.82445 -0.03400
C 	C 	0.46822 0.39922 0.78866 -0.02700
C 	C 	0.43435 0.39931 0.75282 0.09700
C 	C 	0.41626 0.45199 0.73690 -0.15400
H 	H 	0.42270 0.48840 0.74970 0.08200
C 	C 	0.38880 0.45157 0.70232 0.08100
H 	H 	0.37710 0.48850 0.69170 -0.00900
N 	N 	0.37762 0.40224 0.68282 -0.20200
C 	C 	0.39339 0.35278 0.69882 0.09400
H 	H 	0.38410 0.31680 0.68620 -0.02100
C 	C 	0.42257 0.34892 0.73279 -0.16500
H 	H 	0.43450 0.31140 0.74230 0.07900
N 	N 	0.73632 0.09176 0.85891 -0.18700
C 	C 	0.71900 0.12319 0.82909 0.08000
H 	H 	0.74830 0.14410 0.81520 -0.00900
C 	C 	0.66087 0.12711 0.81724 -0.15200
H 	H 	0.65060 0.15140 0.79640 0.08200
C 	C 	0.61773 0.09512 0.83617 0.09500
C 	C 	0.63575 0.06162 0.86685 -0.15300
H 	H 	0.60770 0.03910 0.88080 0.08100
C 	C 	0.69464 0.06127 0.87695 0.08300
H 	H 	0.70620 0.03790 0.89800 -0.00500
C 	C 	0.55506 0.09613 0.82445 -0.03400
C 	C 	0.53178 0.10078 0.78866 -0.02700
C 	C 	0.56565 0.10069 0.75282 0.09700
C 	C 	0.58374 0.04801 0.73690 -0.15400
H 	H 	0.57730 0.01160 0.74970 0.08200
C 	C 	0.61120 0.04843 0.70232 0.08100
H 	H 	0.62290 0.01150 0.69170 -0.00900
N 	N 	0.62238 0.09776 0.68282 -0.20200
C 	C 	0.60661 0.14722 0.69882 0.09400
H 	H 	0.61590 0.18320 0.68620 -0.02100
C 	C 	0.57743 0.15108 0.73279 -0.16500
H 	H 	0.56550 0.18860 0.74230 0.07900
N 	N 	0.23632 0.59176 0.35891 -0.18700
C 	C 	0.21900 0.62319 0.32909 0.08000
H 	H 	0.24830 0.64410 0.31520 -0.00900
C 	C 	0.16087 0.62711 0.31724 -0.15200
H 	H 	0.15060 0.65140 0.29640 0.08200
C 	C 	0.11773 0.59512 0.33617 0.09500
C 	C 	0.13575 0.56162 0.36685 -0.15300
H 	H 	0.10770 0.53910 0.38080 0.08100
C 	C 	0.19464 0.56127 0.37695 0.08300
H 	H 	0.20620 0.53790 0.39800 -0.00500
C 	C 	0.05506 0.59613 0.32445 -0.03400
C 	C 	0.03178 0.60078 0.28866 -0.02600
C 	C 	0.06565 0.60069 0.25282 0.09700
C 	C 	0.08374 0.54801 0.23690 -0.15400
H 	H 	0.07730 0.51160 0.24970 0.08200
C 	C 	0.11120 0.54843 0.20232 0.08100
H 	H 	0.12290 0.51150 0.19170 -0.00900
N 	N 	0.12238 0.59776 0.18282 -0.20200
C 	C 	0.10661 0.64722 0.19882 0.09400
H 	H 	0.11590 0.68320 0.18620 -0.02100
C 	C 	0.07743 0.65108 0.23279 -0.16500
H 	H 	0.06550 0.68860 0.24230 0.07900
N 	N 	0.84176 0.01368 0.10891 -0.18700
C 	C 	0.87319 0.03100 0.07909 0.08000
H 	H 	0.89410 0.00170 0.06520 -0.00900
C 	C 	0.87711 0.08913 0.06724 -0.15200
H 	H 	0.90140 0.09940 0.04640 0.08200
C 	C 	0.84512 0.13227 0.08617 0.09500
C 	C 	0.81162 0.11425 0.11685 -0.15300
H 	H 	0.78910 0.14230 0.13080 0.08100
C 	C 	0.81127 0.05536 0.12695 0.08300
H 	H 	0.78790 0.04380 0.14800 -0.00500
C 	C 	0.84613 0.19494 0.07445 -0.03400
C 	C 	0.85078 0.21822 0.03866 -0.02700
C 	C 	0.85069 0.18435 0.00282 0.09700
C 	C 	0.79801 0.16626 0.98690 -0.15400
H 	H 	0.76160 0.17270 0.99970 0.08200
C 	C 	0.79843 0.13880 0.95232 0.08100
H 	H 	0.76150 0.12710 0.94170 -0.00900
N 	N 	0.84776 0.12762 0.93282 -0.20200
C 	C 	0.89722 0.14339 0.94882 0.09400
H 	H 	0.93320 0.13410 0.93620 -0.02100
C 	C 	0.90108 0.17257 0.98279 -0.16600
H 	H 	0.93860 0.18450 0.99230 0.07900
N 	N 	0.34176 0.51368 0.60891 -0.18700
C 	C 	0.37319 0.53100 0.57909 0.08000
H 	H 	0.39410 0.50170 0.56520 -0.00900
C 	C 	0.37711 0.58913 0.56724 -0.15200
H 	H 	0.40140 0.59940 0.54640 0.08200
C 	C 	0.34512 0.63227 0.58617 0.09500
C 	C 	0.31162 0.61425 0.61685 -0.15300
H 	H 	0.28910 0.64230 0.63080 0.08100
C 	C 	0.31127 0.55536 0.62695 0.08300
H 	H 	0.28790 0.54380 0.64800 -0.00500
C 	C 	0.34613 0.69494 0.57445 -0.03400
C 	C 	0.35078 0.71822 0.53866 -0.02700
C 	C 	0.35069 0.68435 0.50282 0.09700
C 	C 	0.29801 0.66626 0.48690 -0.15400
H 	H 	0.26160 0.67270 0.49970 0.08200
C 	C 	0.29843 0.63880 0.45232 0.08100
H 	H 	0.26150 0.62710 0.44170 -0.00900
N 	N 	0.34776 0.62762 0.43282 -0.20200
C 	C 	0.39722 0.64339 0.44882 0.09400
H 	H 	0.43320 0.63410 0.43620 -0.02100
C 	C 	0.40108 0.67257 0.48279 -0.16500
H 	H 	0.43860 0.68450 0.49230 0.07900
N 	N 	0.65824 0.98632 0.60891 -0.18700
C 	C 	0.62681 0.96900 0.57909 0.08000
H 	H 	0.60590 0.99830 0.56520 -0.00900
C 	C 	0.62289 0.91087 0.56724 -0.15200
H 	H 	0.59860 0.90060 0.54640 0.08200
C 	C 	0.65488 0.86773 0.58617 0.09500
C 	C 	0.68838 0.88575 0.61685 -0.15300
H 	H 	0.71090 0.85770 0.63080 0.08100
C 	C 	0.68873 0.94464 0.62695 0.08300
H 	H 	0.71210 0.95620 0.64800 -0.00500
C 	C 	0.65387 0.80506 0.57445 -0.03400
C 	C 	0.64922 0.78178 0.53866 -0.02700
C 	C 	0.64931 0.81565 0.50282 0.09700
C 	C 	0.70199 0.83374 0.48690 -0.15400
H 	H 	0.73840 0.82730 0.49970 0.08200
C 	C 	0.70157 0.86120 0.45232 0.08100
H 	H 	0.73850 0.87290 0.44170 -0.00900
N 	N 	0.65224 0.87238 0.43282 -0.20200
C 	C 	0.60278 0.85661 0.44882 0.09400
H 	H 	0.56680 0.86590 0.43620 -0.02100
C 	C 	0.59892 0.82743 0.48279 -0.16500
H 	H 	0.56140 0.81550 0.49230 0.07900
N 	N 	0.15824 0.48632 0.10891 -0.18700
C 	C 	0.12681 0.46900 0.07909 0.08000
H 	H 	0.10590 0.49830 0.06520 -0.00900
C 	C 	0.12289 0.41087 0.06724 -0.15200
H 	H 	0.09860 0.40060 0.04640 0.08200
C 	C 	0.15488 0.36773 0.08617 0.09500
C 	C 	0.18838 0.38575 0.11685 -0.15300
H 	H 	0.21090 0.35770 0.13080 0.08100
C 	C 	0.18873 0.44464 0.12695 0.08300
H 	H 	0.21210 0.45620 0.14800 -0.00500
C 	C 	0.15387 0.30506 0.07445 -0.03400
C 	C 	0.14922 0.28178 0.03866 -0.02700
C 	C 	0.14931 0.31565 0.00282 0.09700
C 	C 	0.20199 0.33374 0.98690 -0.15400
H 	H 	0.23840 0.32730 0.99970 0.08200
C 	C 	0.20157 0.36120 0.95232 0.08100
H 	H 	0.23850 0.37290 0.94170 -0.00900
N 	N 	0.15224 0.37238 0.93282 -0.20200
C 	C 	0.10278 0.35661 0.94882 0.09400
H 	H 	0.06680 0.36590 0.93620 -0.02100
C 	C 	0.09892 0.32743 0.98279 -0.16600
H 	H 	0.06140 0.31550 0.99230 0.07900
N 	N 	0.73632 0.90824 0.14109 -0.18700
C 	C 	0.71900 0.87681 0.17091 0.08000
H 	H 	0.74830 0.85590 0.18480 -0.00900
C 	C 	0.66087 0.87289 0.18276 -0.15200
H 	H 	0.65060 0.84860 0.20360 0.08200
C 	C 	0.61773 0.90488 0.16383 0.09500
C 	C 	0.63575 0.93838 0.13315 -0.15300
H 	H 	0.60770 0.96090 0.11920 0.08100
C 	C 	0.69464 0.93873 0.12305 0.08300
H 	H 	0.70620 0.96210 0.10200 -0.00500
C 	C 	0.55506 0.90387 0.17555 -0.03400
C 	C 	0.53178 0.89922 0.21134 -0.02700
C 	C 	0.56565 0.89931 0.24718 0.09700
C 	C 	0.58374 0.95199 0.26310 -0.15400
H 	H 	0.57730 0.98840 0.25030 0.08200
C 	C 	0.61120 0.95157 0.29768 0.08100
H 	H 	0.62290 0.98850 0.30830 -0.00900
N 	N 	0.62238 0.90224 0.31718 -0.20200
C 	C 	0.60661 0.85278 0.30118 0.09400
H 	H 	0.61590 0.81680 0.31380 -0.02100
C 	C 	0.57743 0.84892 0.26721 -0.16500
H 	H 	0.56550 0.81140 0.25770 0.07900
N 	N 	0.23632 0.40824 0.64109 -0.18700
C 	C 	0.21900 0.37681 0.67091 0.08000
H 	H 	0.24830 0.35590 0.68480 -0.00900
C 	C 	0.16087 0.37289 0.68276 -0.15200
H 	H 	0.15060 0.34860 0.70360 0.08200
C 	C 	0.11773 0.40488 0.66383 0.09500
C 	C 	0.13575 0.43838 0.63315 -0.15300
H 	H 	0.10770 0.46090 0.61920 0.08100
C 	C 	0.19464 0.43873 0.62305 0.08300
H 	H 	0.20620 0.46210 0.60200 -0.00500
C 	C 	0.05506 0.40387 0.67555 -0.03400
C 	C 	0.03178 0.39922 0.71134 -0.02600
C 	C 	0.06565 0.39931 0.74718 0.09700
C 	C 	0.08374 0.45199 0.76310 -0.15400
H 	H 	0.07730 0.48840 0.75030 0.08200
C 	C 	0.11120 0.45157 0.79768 0.08100
H 	H 	0.12290 0.48850 0.80830 -0.00900
N 	N 	0.12238 0.40224 0.81718 -0.20200
C 	C 	0.10661 0.35278 0.80118 0.09400
H 	H 	0.11590 0.31680 0.81380 -0.02100
C 	C 	0.07743 0.34892 0.76721 -0.16500
H 	H 	0.06550 0.31140 0.75770 0.07900
N 	N 	0.76368 0.09176 0.64109 -0.18700
C 	C 	0.78100 0.12319 0.67091 0.08000
H 	H 	0.75170 0.14410 0.68480 -0.00900
C 	C 	0.83913 0.12711 0.68276 -0.15200
H 	H 	0.84940 0.15140 0.70360 0.08200
C 	C 	0.88227 0.09512 0.66383 0.09500
C 	C 	0.86425 0.06162 0.63315 -0.15300
H 	H 	0.89230 0.03910 0.61920 0.08100
C 	C 	0.80536 0.06127 0.62305 0.08300
H 	H 	0.79380 0.03790 0.60200 -0.00500
C 	C 	0.94494 0.09613 0.67555 -0.03500
C 	C 	0.96822 0.10078 0.71134 -0.02700
C 	C 	0.93435 0.10069 0.74718 0.09700
C 	C 	0.91626 0.04801 0.76310 -0.15400
H 	H 	0.92270 0.01160 0.75030 0.08200
C 	C 	0.88880 0.04843 0.79768 0.08100
H 	H 	0.87710 0.01150 0.80830 -0.00900
N 	N 	0.87762 0.09776 0.81718 -0.20200
C 	C 	0.89339 0.14722 0.80118 0.09400
H 	H 	0.88410 0.18320 0.81380 -0.02100
C 	C 	0.92257 0.15108 0.76721 -0.16600
H 	H 	0.93450 0.18860 0.75770 0.07900
N 	N 	0.26368 0.59176 0.14109 -0.18700
C 	C 	0.28100 0.62319 0.17091 0.08000
H 	H 	0.25170 0.64410 0.18480 -0.00900
C 	C 	0.33913 0.62711 0.18276 -0.15200
H 	H 	0.34940 0.65140 0.20360 0.08200
C 	C 	0.38227 0.59512 0.16383 0.09500
C 	C 	0.36425 0.56162 0.13315 -0.15300
H 	H 	0.39230 0.53910 0.11920 0.08100
C 	C 	0.30536 0.56127 0.12305 0.08300
H 	H 	0.29380 0.53790 0.10200 -0.00500
C 	C 	0.44494 0.59613 0.17555 -0.03400
C 	C 	0.46822 0.60078 0.21134 -0.02700
C 	C 	0.43435 0.60069 0.24718 0.09700
C 	C 	0.41626 0.54801 0.26310 -0.15400
H 	H 	0.42270 0.51160 0.25030 0.08200
C 	C 	0.38880 0.54843 0.29768 0.08100
H 	H 	0.37710 0.51150 0.30830 -0.00900
N 	N 	0.37762 0.59776 0.31718 -0.20200
C 	C 	0.39339 0.64722 0.30118 0.09400
H 	H 	0.38410 0.68320 0.31380 -0.02100
C 	C 	0.42257 0.65108 0.26721 -0.16500
H 	H 	0.43450 0.68860 0.25770 0.07900
N 	N 	0.65824 0.01368 0.39109 -0.18700
C 	C 	0.62681 0.03100 0.42091 0.08000
H 	H 	0.60590 0.00170 0.43480 -0.00900
C 	C 	0.62289 0.08913 0.43276 -0.15200
H 	H 	0.59860 0.09940 0.45360 0.08200
C 	C 	0.65488 0.13227 0.41383 0.09500
C 	C 	0.68838 0.11425 0.38315 -0.15300
H 	H 	0.71090 0.14230 0.36920 0.08100
C 	C 	0.68873 0.05536 0.37305 0.08300
H 	H 	0.71210 0.04380 0.35200 -0.00500
C 	C 	0.65387 0.19494 0.42555 -0.03400
C 	C 	0.64922 0.21822 0.46134 -0.02700
C 	C 	0.64931 0.18435 0.49718 0.09700
C 	C 	0.70199 0.16626 0.51310 -0.15400
H 	H 	0.73840 0.17270 0.50030 0.08200
C 	C 	0.70157 0.13880 0.54768 0.08100
H 	H 	0.73850 0.12710 0.55830 -0.00900
N 	N 	0.65224 0.12762 0.56718 -0.20200
C 	C 	0.60278 0.14339 0.55118 0.09400
H 	H 	0.56680 0.13410 0.56380 -0.02100
C 	C 	0.59892 0.17257 0.51721 -0.16500
H 	H 	0.56140 0.18450 0.50770 0.07900
N 	N 	0.15824 0.51368 0.89109 -0.18700
C 	C 	0.12681 0.53100 0.92091 0.08000
H 	H 	0.10590 0.50170 0.93480 -0.00900
C 	C 	0.12289 0.58913 0.93276 -0.15200
H 	H 	0.09860 0.59940 0.95360 0.08200
C 	C 	0.15488 0.63227 0.91383 0.09500
C 	C 	0.18838 0.61425 0.88315 -0.15300
H 	H 	0.21090 0.64230 0.86920 0.08100
C 	C 	0.18873 0.55536 0.87305 0.08300
H 	H 	0.21210 0.54380 0.85200 -0.00500
C 	C 	0.15387 0.69494 0.92555 -0.03400
C 	C 	0.14922 0.71822 0.96134 -0.02700
C 	C 	0.14931 0.68435 0.99718 0.09700
C 	C 	0.20199 0.66626 0.01310 -0.15400
H 	H 	0.23840 0.67270 0.00030 0.08200
C 	C 	0.20157 0.63880 0.04768 0.08100
H 	H 	0.23850 0.62710 0.05830 -0.00900
N 	N 	0.15224 0.62762 0.06718 -0.20200
C 	C 	0.10278 0.64339 0.05118 0.09400
H 	H 	0.06680 0.63410 0.06380 -0.02100
C 	C 	0.09892 0.67257 0.01721 -0.16600
H 	H 	0.06140 0.68450 0.00770 0.07900
N 	N 	0.84176 0.98632 0.89109 -0.18700
C 	C 	0.87319 0.96900 0.92091 0.08000
H 	H 	0.89410 0.99830 0.93480 -0.00900
C 	C 	0.87711 0.91087 0.93276 -0.15200
H 	H 	0.90140 0.90060 0.95360 0.08200
C 	C 	0.84512 0.86773 0.91383 0.09500
C 	C 	0.81162 0.88575 0.88315 -0.15300
H 	H 	0.78910 0.85770 0.86920 0.08100
C 	C 	0.81127 0.94464 0.87305 0.08300
H 	H 	0.78790 0.95620 0.85200 -0.00500
C 	C 	0.84613 0.80506 0.92555 -0.03400
C 	C 	0.85078 0.78178 0.96134 -0.02700
C 	C 	0.85069 0.81565 0.99718 0.09700
C 	C 	0.79801 0.83374 0.01310 -0.15400
H 	H 	0.76160 0.82730 0.00030 0.08200
C 	C 	0.79843 0.86120 0.04768 0.08100
H 	H 	0.76150 0.87290 0.05830 -0.00900
N 	N 	0.84776 0.87238 0.06718 -0.20200
C 	C 	0.89722 0.85661 0.05118 0.09400
H 	H 	0.93320 0.86590 0.06380 -0.02100
C 	C 	0.90108 0.82743 0.01721 -0.16600
H 	H 	0.93860 0.81550 0.00770 0.07900
N 	N 	0.34176 0.48632 0.39109 -0.18700
C 	C 	0.37319 0.46900 0.42091 0.08000
H 	H 	0.39410 0.49830 0.43480 -0.00900
C 	C 	0.37711 0.41087 0.43276 -0.15200
H 	H 	0.40140 0.40060 0.45360 0.08200
C 	C 	0.34512 0.36773 0.41383 0.09500
C 	C 	0.31162 0.38575 0.38315 -0.15300
H 	H 	0.28910 0.35770 0.36920 0.08100
C 	C 	0.31127 0.44464 0.37305 0.08300
H 	H 	0.28790 0.45620 0.35200 -0.00500
C 	C 	0.34613 0.30506 0.42555 -0.03400
C 	C 	0.35078 0.28178 0.46134 -0.02700
C 	C 	0.35069 0.31565 0.49718 0.09700
C 	C 	0.29801 0.33374 0.51310 -0.15400
H 	H 	0.26160 0.32730 0.50030 0.08200
C 	C 	0.29843 0.36120 0.54768 0.08100
H 	H 	0.26150 0.37290 0.55830 -0.00900
N 	N 	0.34776 0.37238 0.56718 -0.20200
C 	C 	0.39722 0.35661 0.55118 0.09400
H 	H 	0.43320 0.36590 0.56380 -0.02100
C 	C 	0.40108 0.32743 0.51721 -0.16500
H 	H 	0.43860 0.31550 0.50770 0.07900
Ag	Ag	0.33857 0.08857 0.62500 0.53800
Ag	Ag	0.83857 0.58857 0.12500 0.53800
Ag	Ag	0.16143 0.91143 0.12500 0.53800
Ag	Ag	0.66143 0.41143 0.62500 0.53800
Ag	Ag	0.16143 0.08857 0.87500 0.53800
Ag	Ag	0.66143 0.58857 0.37500 0.53800
Ag	Ag	0.33857 0.91143 0.37500 0.53800
Ag	Ag	0.83857 0.41143 0.87500 0.53800
Ag	Ag	0.66143 0.91143 0.37500 0.53800
Ag	Ag	0.16143 0.41143 0.87500 0.53800
Ag	Ag	0.83857 0.08857 0.87500 0.53800
Ag	Ag	0.33857 0.58857 0.37500 0.53800
Ag	Ag	0.83857 0.91143 0.12500 0.53800
Ag	Ag	0.33857 0.41143 0.62500 0.53800
Ag	Ag	0.66143 0.08857 0.62500 0.53800
Ag	Ag	0.16143 0.58857 0.12500 0.53800
S 	S 	0.00000 0.09296 0.64217 -0.00800
S 	S 	0.50000 0.59296 0.14217 -0.00800
S 	S 	0.50000 0.90704 0.14217 -0.00800
S 	S 	0.00000 0.40704 0.64217 -0.00800
S 	S 	0.15704 0.75000 0.89217 -0.00800
S 	S 	0.34296 0.25000 0.39217 -0.00800
S 	S 	0.50000 0.09296 0.85783 -0.00800
S 	S 	0.00000 0.59296 0.35783 -0.00800
S 	S 	-0.00000 0.90704 0.35783 -0.00800
S 	S 	0.50000 0.40704 0.85783 -0.00800
S 	S 	0.34296 0.75000 0.60783 -0.00800
S 	S 	0.15704 0.25000 0.10783 -0.00800
S 	S 	0.84296 0.25000 0.10783 -0.00900
S 	S 	0.65704 0.75000 0.60783 -0.00800
S 	S 	0.65704 0.25000 0.39217 -0.00800
S 	S 	0.84296 0.75000 0.89217 -0.00900
