data_crystal

_cell_length_a 22.97500
_cell_length_b 22.97500
_cell_length_c 34.29800
_cell_angle_alpha 90.00000
_cell_angle_beta  90.00000
_cell_angle_gamma 90.00000

_symmetry_space_group_name_	'P 1'
_symmetry_space_group_name_H-M	'P 1'

loop_
_symmetry_equiv_pos_as_xyz
  x,y,z

loop_
_atom_site_label
_atom_site_type_symbol
_atom_site_fract_x
_atom_site_fract_y
_atom_site_fract_z
_atom_site_charge
N 	N 	0.23260 0.08770 0.63622 -0.19000
C 	C 	0.21430 0.12070 0.66530 0.08900
H 	H 	0.24250 0.14360 0.67850 -0.01500
C 	C 	0.15850 0.12450 0.67790 -0.15900
H 	H 	0.14860 0.14900 0.69920 0.08300
C 	C 	0.11580 0.09170 0.65890 0.09600
C 	C 	0.13470 0.05590 0.62890 -0.15600
H 	H 	0.10770 0.03190 0.61550 0.08100
C 	C 	0.19270 0.05510 0.61870 0.08400
H 	H 	0.20480 0.03010 0.59820 -0.00600
C 	C 	0.05480 0.09370 0.67088 -0.03600
C 	C 	0.03210 0.09870 0.70768 -0.02900
C 	C 	0.06580 0.09890 0.74514 0.10500
C 	C 	0.08880 0.04900 0.75860 -0.16700
H 	H 	0.08480 0.01400 0.74420 0.08500
C 	C 	0.11770 0.04920 0.79310 0.08400
H 	H 	0.13380 0.01340 0.80180 -0.01000
N 	N 	0.12540 0.09650 0.81602 -0.20100
C 	C 	0.10360 0.14510 0.80152 0.08900
H 	H 	0.10870 0.18010 0.81590 -0.02000
C 	C 	0.07380 0.14780 0.76680 -0.16800
H 	H 	0.05890 0.18400 0.75780 0.07800
N 	N 	0.73260 0.58770 0.13622 -0.19000
C 	C 	0.71430 0.62070 0.16530 0.08900
H 	H 	0.74250 0.64360 0.17850 -0.01500
C 	C 	0.65850 0.62450 0.17790 -0.15900
H 	H 	0.64860 0.64900 0.19920 0.08300
C 	C 	0.61580 0.59170 0.15890 0.09600
C 	C 	0.63470 0.55590 0.12890 -0.15600
H 	H 	0.60770 0.53190 0.11550 0.08100
C 	C 	0.69270 0.55510 0.11870 0.08400
H 	H 	0.70480 0.53010 0.09820 -0.00600
C 	C 	0.55480 0.59370 0.17088 -0.03600
C 	C 	0.53210 0.59870 0.20768 -0.02900
C 	C 	0.56580 0.59890 0.24514 0.10500
C 	C 	0.58880 0.54900 0.25860 -0.16700
H 	H 	0.58480 0.51400 0.24420 0.08500
C 	C 	0.61770 0.54920 0.29310 0.08400
H 	H 	0.63380 0.51340 0.30180 -0.01000
N 	N 	0.62540 0.59650 0.31602 -0.20100
C 	C 	0.60360 0.64510 0.30152 0.08900
H 	H 	0.60870 0.68010 0.31590 -0.02000
C 	C 	0.57380 0.64780 0.26680 -0.16800
H 	H 	0.55890 0.68400 0.25780 0.07800
N 	N 	0.26740 0.91230 0.13622 -0.19000
C 	C 	0.28570 0.87930 0.16530 0.08900
H 	H 	0.25750 0.85640 0.17850 -0.01500
C 	C 	0.34150 0.87550 0.17790 -0.15900
H 	H 	0.35140 0.85100 0.19920 0.08300
C 	C 	0.38420 0.90830 0.15890 0.09600
C 	C 	0.36530 0.94410 0.12890 -0.15600
H 	H 	0.39230 0.96810 0.11550 0.08100
C 	C 	0.30730 0.94490 0.11870 0.08400
H 	H 	0.29520 0.96990 0.09820 -0.00600
C 	C 	0.44520 0.90630 0.17088 -0.03600
C 	C 	0.46790 0.90130 0.20768 -0.02900
C 	C 	0.43420 0.90110 0.24514 0.10500
C 	C 	0.41120 0.95100 0.25860 -0.16700
H 	H 	0.41520 0.98600 0.24420 0.08500
C 	C 	0.38230 0.95080 0.29310 0.08400
H 	H 	0.36620 0.98660 0.30180 -0.01000
N 	N 	0.37460 0.90350 0.31602 -0.20100
C 	C 	0.39640 0.85490 0.30152 0.08900
H 	H 	0.39130 0.81990 0.31590 -0.02000
C 	C 	0.42620 0.85220 0.26680 -0.16800
H 	H 	0.44110 0.81600 0.25780 0.07800
N 	N 	0.76740 0.41230 0.63622 -0.19000
C 	C 	0.78570 0.37930 0.66530 0.08900
H 	H 	0.75750 0.35640 0.67850 -0.01500
C 	C 	0.84150 0.37550 0.67790 -0.15900
H 	H 	0.85140 0.35100 0.69920 0.08300
C 	C 	0.88420 0.40830 0.65890 0.09600
C 	C 	0.86530 0.44410 0.62890 -0.15600
H 	H 	0.89230 0.46810 0.61550 0.08100
C 	C 	0.80730 0.44490 0.61870 0.08400
H 	H 	0.79520 0.46990 0.59820 -0.00600
C 	C 	0.94520 0.40630 0.67088 -0.03600
C 	C 	0.96790 0.40130 0.70768 -0.03000
C 	C 	0.93420 0.40110 0.74514 0.10500
C 	C 	0.91120 0.45100 0.75860 -0.16700
H 	H 	0.91520 0.48600 0.74420 0.08500
C 	C 	0.88230 0.45080 0.79310 0.08400
H 	H 	0.86620 0.48660 0.80180 -0.01000
N 	N 	0.87460 0.40350 0.81602 -0.20100
C 	C 	0.89640 0.35490 0.80152 0.08900
H 	H 	0.89130 0.31990 0.81590 -0.02000
C 	C 	0.92620 0.35220 0.76680 -0.16800
H 	H 	0.94110 0.31600 0.75780 0.07800
N 	N 	0.16230 0.98260 0.88622 -0.19000
C 	C 	0.12930 0.96430 0.91530 0.08900
H 	H 	0.10640 0.99250 0.92850 -0.01500
C 	C 	0.12550 0.90850 0.92790 -0.15900
H 	H 	0.10100 0.89860 0.94920 0.08300
C 	C 	0.15830 0.86580 0.90890 0.09600
C 	C 	0.19410 0.88470 0.87890 -0.15600
H 	H 	0.21810 0.85770 0.86550 0.08100
C 	C 	0.19490 0.94270 0.86870 0.08400
H 	H 	0.21990 0.95480 0.84820 -0.00600
C 	C 	0.15630 0.80480 0.92088 -0.03600
C 	C 	0.15130 0.78210 0.95768 -0.02900
C 	C 	0.15110 0.81580 0.99514 0.10400
C 	C 	0.20100 0.83880 0.00860 -0.16700
H 	H 	0.23600 0.83480 0.99420 0.08500
C 	C 	0.20080 0.86770 0.04310 0.08400
H 	H 	0.23660 0.88380 0.05180 -0.01000
N 	N 	0.15350 0.87540 0.06602 -0.20100
C 	C 	0.10490 0.85360 0.05152 0.08800
H 	H 	0.06990 0.85870 0.06590 -0.01900
C 	C 	0.10220 0.82380 0.01680 -0.16800
H 	H 	0.06600 0.80890 0.00780 0.07800
N 	N 	0.66230 0.48260 0.38622 -0.19000
C 	C 	0.62930 0.46430 0.41530 0.08900
H 	H 	0.60640 0.49250 0.42850 -0.01500
C 	C 	0.62550 0.40850 0.42790 -0.15900
H 	H 	0.60100 0.39860 0.44920 0.08300
C 	C 	0.65830 0.36580 0.40890 0.09600
C 	C 	0.69410 0.38470 0.37890 -0.15600
H 	H 	0.71810 0.35770 0.36550 0.08100
C 	C 	0.69490 0.44270 0.36870 0.08400
H 	H 	0.71990 0.45480 0.34820 -0.00600
C 	C 	0.65630 0.30480 0.42088 -0.03600
C 	C 	0.65130 0.28210 0.45768 -0.02900
C 	C 	0.65110 0.31580 0.49514 0.10500
C 	C 	0.70100 0.33880 0.50860 -0.16700
H 	H 	0.73600 0.33480 0.49420 0.08500
C 	C 	0.70080 0.36770 0.54310 0.08400
H 	H 	0.73660 0.38380 0.55180 -0.00900
N 	N 	0.65350 0.37540 0.56602 -0.20000
C 	C 	0.60490 0.35360 0.55152 0.09000
H 	H 	0.56990 0.35870 0.56590 -0.01900
C 	C 	0.60220 0.32380 0.51680 -0.16700
H 	H 	0.56600 0.30890 0.50780 0.07900
N 	N 	0.33770 0.01740 0.38622 -0.18900
C 	C 	0.37070 0.03570 0.41530 0.09000
H 	H 	0.39360 0.00750 0.42850 -0.01400
C 	C 	0.37450 0.09150 0.42790 -0.15800
H 	H 	0.39900 0.10140 0.44920 0.08400
C 	C 	0.34170 0.13420 0.40890 0.09700
C 	C 	0.30590 0.11530 0.37890 -0.15500
H 	H 	0.28190 0.14230 0.36550 0.08200
C 	C 	0.30510 0.05730 0.36870 0.08500
H 	H 	0.28010 0.04520 0.34820 -0.00500
C 	C 	0.34370 0.19520 0.42088 -0.03500
C 	C 	0.34870 0.21790 0.45768 -0.02800
C 	C 	0.34890 0.18420 0.49514 0.10600
C 	C 	0.29900 0.16120 0.50860 -0.16600
H 	H 	0.26400 0.16520 0.49420 0.08600
C 	C 	0.29920 0.13230 0.54310 0.08500
H 	H 	0.26340 0.11620 0.55180 -0.00900
N 	N 	0.34650 0.12460 0.56602 -0.20000
C 	C 	0.39510 0.14640 0.55152 0.09000
H 	H 	0.43010 0.14130 0.56590 -0.01900
C 	C 	0.39780 0.17620 0.51680 -0.16700
H 	H 	0.43400 0.19110 0.50780 0.07900
N 	N 	0.83770 0.51740 0.88622 -0.18900
C 	C 	0.87070 0.53570 0.91530 0.08900
H 	H 	0.89360 0.50750 0.92850 -0.01400
C 	C 	0.87450 0.59150 0.92790 -0.15800
H 	H 	0.89900 0.60140 0.94920 0.08400
C 	C 	0.84170 0.63420 0.90890 0.09700
C 	C 	0.80590 0.61530 0.87890 -0.15500
H 	H 	0.78190 0.64230 0.86550 0.08200
C 	C 	0.80510 0.55730 0.86870 0.08500
H 	H 	0.78010 0.54520 0.84820 -0.00500
C 	C 	0.84370 0.69520 0.92088 -0.03500
C 	C 	0.84870 0.71790 0.95768 -0.02800
C 	C 	0.84890 0.68420 0.99514 0.10500
C 	C 	0.79900 0.66120 0.00860 -0.16600
H 	H 	0.76400 0.66520 0.99420 0.08600
C 	C 	0.79920 0.63230 0.04310 0.08500
H 	H 	0.76340 0.61620 0.05180 -0.00900
N 	N 	0.84650 0.62460 0.06602 -0.20000
C 	C 	0.89510 0.64640 0.05152 0.09000
H 	H 	0.93010 0.64130 0.06590 -0.01900
C 	C 	0.89780 0.67620 0.01680 -0.16700
H 	H 	0.93400 0.69110 0.00780 0.07900
N 	N 	0.26740 0.08770 0.86378 -0.18900
C 	C 	0.28570 0.12070 0.83470 0.09000
H 	H 	0.25750 0.14360 0.82150 -0.01400
C 	C 	0.34150 0.12450 0.82210 -0.15800
H 	H 	0.35140 0.14900 0.80080 0.08400
C 	C 	0.38420 0.09170 0.84110 0.09700
C 	C 	0.36530 0.05590 0.87110 -0.15500
H 	H 	0.39230 0.03190 0.88450 0.08200
C 	C 	0.30730 0.05510 0.88130 0.08500
H 	H 	0.29520 0.03010 0.90180 -0.00500
C 	C 	0.44520 0.09370 0.82912 -0.03500
C 	C 	0.46790 0.09870 0.79232 -0.02800
C 	C 	0.43420 0.09890 0.75486 0.10600
C 	C 	0.41120 0.04900 0.74140 -0.16600
H 	H 	0.41520 0.01400 0.75580 0.08600
C 	C 	0.38230 0.04920 0.70690 0.08500
H 	H 	0.36620 0.01340 0.69820 -0.00900
N 	N 	0.37460 0.09650 0.68398 -0.20000
C 	C 	0.39640 0.14510 0.69848 0.09000
H 	H 	0.39130 0.18010 0.68410 -0.01900
C 	C 	0.42620 0.14780 0.73320 -0.16700
H 	H 	0.44110 0.18400 0.74220 0.07900
N 	N 	0.76740 0.58770 0.36378 -0.18900
C 	C 	0.78570 0.62070 0.33470 0.09000
H 	H 	0.75750 0.64360 0.32150 -0.01400
C 	C 	0.84150 0.62450 0.32210 -0.15800
H 	H 	0.85140 0.64900 0.30080 0.08400
C 	C 	0.88420 0.59170 0.34110 0.09700
C 	C 	0.86530 0.55590 0.37110 -0.15500
H 	H 	0.89230 0.53190 0.38450 0.08200
C 	C 	0.80730 0.55510 0.38130 0.08500
H 	H 	0.79520 0.53010 0.40180 -0.00500
C 	C 	0.94520 0.59370 0.32912 -0.03500
C 	C 	0.96790 0.59870 0.29232 -0.02900
C 	C 	0.93420 0.59890 0.25486 0.10600
C 	C 	0.91120 0.54900 0.24140 -0.16600
H 	H 	0.91520 0.51400 0.25580 0.08600
C 	C 	0.88230 0.54920 0.20690 0.08500
H 	H 	0.86620 0.51340 0.19820 -0.00900
N 	N 	0.87460 0.59650 0.18398 -0.20000
C 	C 	0.89640 0.64510 0.19848 0.09000
H 	H 	0.89130 0.68010 0.18410 -0.01900
C 	C 	0.92620 0.64780 0.23320 -0.16700
H 	H 	0.94110 0.68400 0.24220 0.07900
N 	N 	0.23260 0.91230 0.36378 -0.18900
C 	C 	0.21430 0.87930 0.33470 0.09000
H 	H 	0.24250 0.85640 0.32150 -0.01400
C 	C 	0.15850 0.87550 0.32210 -0.15800
H 	H 	0.14860 0.85100 0.30080 0.08400
C 	C 	0.11580 0.90830 0.34110 0.09700
C 	C 	0.13470 0.94410 0.37110 -0.15500
H 	H 	0.10770 0.96810 0.38450 0.08200
C 	C 	0.19270 0.94490 0.38130 0.08500
H 	H 	0.20480 0.96990 0.40180 -0.00500
C 	C 	0.05480 0.90630 0.32912 -0.03500
C 	C 	0.03210 0.90130 0.29232 -0.02800
C 	C 	0.06580 0.90110 0.25486 0.10600
C 	C 	0.08880 0.95100 0.24140 -0.16600
H 	H 	0.08480 0.98600 0.25580 0.08600
C 	C 	0.11770 0.95080 0.20690 0.08500
H 	H 	0.13380 0.98660 0.19820 -0.00900
N 	N 	0.12540 0.90350 0.18398 -0.20000
C 	C 	0.10360 0.85490 0.19848 0.09000
H 	H 	0.10870 0.81990 0.18410 -0.01900
C 	C 	0.07380 0.85220 0.23320 -0.16700
H 	H 	0.05890 0.81600 0.24220 0.07900
N 	N 	0.73260 0.41230 0.86378 -0.18900
C 	C 	0.71430 0.37930 0.83470 0.09000
H 	H 	0.74250 0.35640 0.82150 -0.01400
C 	C 	0.65850 0.37550 0.82210 -0.15800
H 	H 	0.64860 0.35100 0.80080 0.08400
C 	C 	0.61580 0.40830 0.84110 0.09700
C 	C 	0.63470 0.44410 0.87110 -0.15500
H 	H 	0.60770 0.46810 0.88450 0.08200
C 	C 	0.69270 0.44490 0.88130 0.08500
H 	H 	0.70480 0.46990 0.90180 -0.00500
C 	C 	0.55480 0.40630 0.82912 -0.03500
C 	C 	0.53210 0.40130 0.79232 -0.02800
C 	C 	0.56580 0.40110 0.75486 0.10600
C 	C 	0.58880 0.45100 0.74140 -0.16600
H 	H 	0.58480 0.48600 0.75580 0.08600
C 	C 	0.61770 0.45080 0.70690 0.08500
H 	H 	0.63380 0.48660 0.69820 -0.00900
N 	N 	0.62540 0.40350 0.68398 -0.20000
C 	C 	0.60360 0.35490 0.69848 0.09000
H 	H 	0.60870 0.31990 0.68410 -0.01900
C 	C 	0.57380 0.35220 0.73320 -0.16700
H 	H 	0.55890 0.31600 0.74220 0.07900
N 	N 	0.33770 0.98260 0.61378 -0.18900
C 	C 	0.37070 0.96430 0.58470 0.09000
H 	H 	0.39360 0.99250 0.57150 -0.01400
C 	C 	0.37450 0.90850 0.57210 -0.15800
H 	H 	0.39900 0.89860 0.55080 0.08400
C 	C 	0.34170 0.86580 0.59110 0.09700
C 	C 	0.30590 0.88470 0.62110 -0.15500
H 	H 	0.28190 0.85770 0.63450 0.08200
C 	C 	0.30510 0.94270 0.63130 0.08500
H 	H 	0.28010 0.95480 0.65180 -0.00500
C 	C 	0.34370 0.80480 0.57912 -0.03500
C 	C 	0.34870 0.78210 0.54232 -0.02800
C 	C 	0.34890 0.81580 0.50486 0.10600
C 	C 	0.29900 0.83880 0.49140 -0.16600
H 	H 	0.26400 0.83480 0.50580 0.08600
C 	C 	0.29920 0.86770 0.45690 0.08500
H 	H 	0.26340 0.88380 0.44820 -0.00900
N 	N 	0.34650 0.87540 0.43398 -0.20000
C 	C 	0.39510 0.85360 0.44848 0.09000
H 	H 	0.43010 0.85870 0.43410 -0.01900
C 	C 	0.39780 0.82380 0.48320 -0.16700
H 	H 	0.43400 0.80890 0.49220 0.07900
N 	N 	0.83770 0.48260 0.11378 -0.18900
C 	C 	0.87070 0.46430 0.08470 0.08900
H 	H 	0.89360 0.49250 0.07150 -0.01400
C 	C 	0.87450 0.40850 0.07210 -0.15800
H 	H 	0.89900 0.39860 0.05080 0.08400
C 	C 	0.84170 0.36580 0.09110 0.09700
C 	C 	0.80590 0.38470 0.12110 -0.15500
H 	H 	0.78190 0.35770 0.13450 0.08200
C 	C 	0.80510 0.44270 0.13130 0.08500
H 	H 	0.78010 0.45480 0.15180 -0.00500
C 	C 	0.84370 0.30480 0.07912 -0.03500
C 	C 	0.84870 0.28210 0.04232 -0.02800
C 	C 	0.84890 0.31580 0.00486 0.10500
C 	C 	0.79900 0.33880 0.99140 -0.16600
H 	H 	0.76400 0.33480 0.00580 0.08600
C 	C 	0.79920 0.36770 0.95690 0.08500
H 	H 	0.76340 0.38380 0.94820 -0.00900
N 	N 	0.84650 0.37540 0.93398 -0.20000
C 	C 	0.89510 0.35360 0.94848 0.09000
H 	H 	0.93010 0.35870 0.93410 -0.01900
C 	C 	0.89780 0.32380 0.98320 -0.16700
H 	H 	0.93400 0.30890 0.99220 0.07900
N 	N 	0.16230 0.01740 0.11378 -0.18900
C 	C 	0.12930 0.03570 0.08470 0.09000
H 	H 	0.10640 0.00750 0.07150 -0.01400
C 	C 	0.12550 0.09150 0.07210 -0.15800
H 	H 	0.10100 0.10140 0.05080 0.08400
C 	C 	0.15830 0.13420 0.09110 0.09700
C 	C 	0.19410 0.11530 0.12110 -0.15500
H 	H 	0.21810 0.14230 0.13450 0.08200
C 	C 	0.19490 0.05730 0.13130 0.08500
H 	H 	0.21990 0.04520 0.15180 -0.00500
C 	C 	0.15630 0.19520 0.07912 -0.03500
C 	C 	0.15130 0.21790 0.04232 -0.02800
C 	C 	0.15110 0.18420 0.00486 0.10500
C 	C 	0.20100 0.16120 0.99140 -0.16600
H 	H 	0.23600 0.16520 0.00580 0.08600
C 	C 	0.20080 0.13230 0.95690 0.08500
H 	H 	0.23660 0.11620 0.94820 -0.00900
N 	N 	0.15350 0.12460 0.93398 -0.20000
C 	C 	0.10490 0.14640 0.94848 0.08900
H 	H 	0.06990 0.14130 0.93410 -0.01800
C 	C 	0.10220 0.17620 0.98320 -0.16700
H 	H 	0.06600 0.19110 0.99220 0.07900
N 	N 	0.66230 0.51740 0.61378 -0.18900
C 	C 	0.62930 0.53570 0.58470 0.09000
H 	H 	0.60640 0.50750 0.57150 -0.01400
C 	C 	0.62550 0.59150 0.57210 -0.15800
H 	H 	0.60100 0.60140 0.55080 0.08400
C 	C 	0.65830 0.63420 0.59110 0.09700
C 	C 	0.69410 0.61530 0.62110 -0.15500
H 	H 	0.71810 0.64230 0.63450 0.08200
C 	C 	0.69490 0.55730 0.63130 0.08500
H 	H 	0.71990 0.54520 0.65180 -0.00500
C 	C 	0.65630 0.69520 0.57912 -0.03500
C 	C 	0.65130 0.71790 0.54232 -0.02800
C 	C 	0.65110 0.68420 0.50486 0.10600
C 	C 	0.70100 0.66120 0.49140 -0.16600
H 	H 	0.73600 0.66520 0.50580 0.08600
C 	C 	0.70080 0.63230 0.45690 0.08500
H 	H 	0.73660 0.61620 0.44820 -0.00900
N 	N 	0.65350 0.62460 0.43398 -0.20000
C 	C 	0.60490 0.64640 0.44848 0.09000
H 	H 	0.56990 0.64130 0.43410 -0.01900
C 	C 	0.60220 0.67620 0.48320 -0.16700
H 	H 	0.56600 0.69110 0.49220 0.07900
N 	N 	0.76740 0.91230 0.36378 -0.18900
C 	C 	0.78570 0.87930 0.33470 0.09000
H 	H 	0.75750 0.85640 0.32150 -0.01400
C 	C 	0.84150 0.87550 0.32210 -0.15800
H 	H 	0.85140 0.85100 0.30080 0.08400
C 	C 	0.88420 0.90830 0.34110 0.09700
C 	C 	0.86530 0.94410 0.37110 -0.15500
H 	H 	0.89230 0.96810 0.38450 0.08200
C 	C 	0.80730 0.94490 0.38130 0.08500
H 	H 	0.79520 0.96990 0.40180 -0.00500
C 	C 	0.94520 0.90630 0.32912 -0.03500
C 	C 	0.96790 0.90130 0.29232 -0.02900
C 	C 	0.93420 0.90110 0.25486 0.10600
C 	C 	0.91120 0.95100 0.24140 -0.16600
H 	H 	0.91520 0.98600 0.25580 0.08600
C 	C 	0.88230 0.95080 0.20690 0.08500
H 	H 	0.86620 0.98660 0.19820 -0.00900
N 	N 	0.87460 0.90350 0.18398 -0.20000
C 	C 	0.89640 0.85490 0.19848 0.09000
H 	H 	0.89130 0.81990 0.18410 -0.01900
C 	C 	0.92620 0.85220 0.23320 -0.16700
H 	H 	0.94110 0.81600 0.24220 0.07900
N 	N 	0.26740 0.41230 0.86378 -0.18900
C 	C 	0.28570 0.37930 0.83470 0.09000
H 	H 	0.25750 0.35640 0.82150 -0.01400
C 	C 	0.34150 0.37550 0.82210 -0.15800
H 	H 	0.35140 0.35100 0.80080 0.08400
C 	C 	0.38420 0.40830 0.84110 0.09700
C 	C 	0.36530 0.44410 0.87110 -0.15500
H 	H 	0.39230 0.46810 0.88450 0.08200
C 	C 	0.30730 0.44490 0.88130 0.08500
H 	H 	0.29520 0.46990 0.90180 -0.00500
C 	C 	0.44520 0.40630 0.82912 -0.03500
C 	C 	0.46790 0.40130 0.79232 -0.02800
C 	C 	0.43420 0.40110 0.75486 0.10600
C 	C 	0.41120 0.45100 0.74140 -0.16600
H 	H 	0.41520 0.48600 0.75580 0.08600
C 	C 	0.38230 0.45080 0.70690 0.08500
H 	H 	0.36620 0.48660 0.69820 -0.00900
N 	N 	0.37460 0.40350 0.68398 -0.20000
C 	C 	0.39640 0.35490 0.69848 0.09000
H 	H 	0.39130 0.31990 0.68410 -0.01900
C 	C 	0.42620 0.35220 0.73320 -0.16700
H 	H 	0.44110 0.31600 0.74220 0.07900
N 	N 	0.73260 0.08770 0.86378 -0.18900
C 	C 	0.71430 0.12070 0.83470 0.09000
H 	H 	0.74250 0.14360 0.82150 -0.01400
C 	C 	0.65850 0.12450 0.82210 -0.15800
H 	H 	0.64860 0.14900 0.80080 0.08400
C 	C 	0.61580 0.09170 0.84110 0.09700
C 	C 	0.63470 0.05590 0.87110 -0.15500
H 	H 	0.60770 0.03190 0.88450 0.08200
C 	C 	0.69270 0.05510 0.88130 0.08500
H 	H 	0.70480 0.03010 0.90180 -0.00500
C 	C 	0.55480 0.09370 0.82912 -0.03500
C 	C 	0.53210 0.09870 0.79232 -0.02800
C 	C 	0.56580 0.09890 0.75486 0.10600
C 	C 	0.58880 0.04900 0.74140 -0.16600
H 	H 	0.58480 0.01400 0.75580 0.08600
C 	C 	0.61770 0.04920 0.70690 0.08500
H 	H 	0.63380 0.01340 0.69820 -0.00900
N 	N 	0.62540 0.09650 0.68398 -0.20000
C 	C 	0.60360 0.14510 0.69848 0.09000
H 	H 	0.60870 0.18010 0.68410 -0.01900
C 	C 	0.57380 0.14780 0.73320 -0.16700
H 	H 	0.55890 0.18400 0.74220 0.07900
N 	N 	0.23260 0.58770 0.36378 -0.18900
C 	C 	0.21430 0.62070 0.33470 0.09000
H 	H 	0.24250 0.64360 0.32150 -0.01400
C 	C 	0.15850 0.62450 0.32210 -0.15800
H 	H 	0.14860 0.64900 0.30080 0.08400
C 	C 	0.11580 0.59170 0.34110 0.09700
C 	C 	0.13470 0.55590 0.37110 -0.15500
H 	H 	0.10770 0.53190 0.38450 0.08200
C 	C 	0.19270 0.55510 0.38130 0.08500
H 	H 	0.20480 0.53010 0.40180 -0.00500
C 	C 	0.05480 0.59370 0.32912 -0.03500
C 	C 	0.03210 0.59870 0.29232 -0.02800
C 	C 	0.06580 0.59890 0.25486 0.10600
C 	C 	0.08880 0.54900 0.24140 -0.16600
H 	H 	0.08480 0.51400 0.25580 0.08600
C 	C 	0.11770 0.54920 0.20690 0.08500
H 	H 	0.13380 0.51340 0.19820 -0.00900
N 	N 	0.12540 0.59650 0.18398 -0.20000
C 	C 	0.10360 0.64510 0.19848 0.09000
H 	H 	0.10870 0.68010 0.18410 -0.01900
C 	C 	0.07380 0.64780 0.23320 -0.16700
H 	H 	0.05890 0.68400 0.24220 0.07900
N 	N 	0.83770 0.01740 0.11378 -0.18900
C 	C 	0.87070 0.03570 0.08470 0.08900
H 	H 	0.89360 0.00750 0.07150 -0.01400
C 	C 	0.87450 0.09150 0.07210 -0.15800
H 	H 	0.89900 0.10140 0.05080 0.08400
C 	C 	0.84170 0.13420 0.09110 0.09700
C 	C 	0.80590 0.11530 0.12110 -0.15500
H 	H 	0.78190 0.14230 0.13450 0.08200
C 	C 	0.80510 0.05730 0.13130 0.08500
H 	H 	0.78010 0.04520 0.15180 -0.00500
C 	C 	0.84370 0.19520 0.07912 -0.03500
C 	C 	0.84870 0.21790 0.04232 -0.02800
C 	C 	0.84890 0.18420 0.00486 0.10500
C 	C 	0.79900 0.16120 0.99140 -0.16600
H 	H 	0.76400 0.16520 0.00580 0.08600
C 	C 	0.79920 0.13230 0.95690 0.08500
H 	H 	0.76340 0.11620 0.94820 -0.00900
N 	N 	0.84650 0.12460 0.93398 -0.20000
C 	C 	0.89510 0.14640 0.94848 0.08900
H 	H 	0.93010 0.14130 0.93410 -0.01900
C 	C 	0.89780 0.17620 0.98320 -0.16700
H 	H 	0.93400 0.19110 0.99220 0.07900
N 	N 	0.33770 0.51740 0.61378 -0.18900
C 	C 	0.37070 0.53570 0.58470 0.09000
H 	H 	0.39360 0.50750 0.57150 -0.01400
C 	C 	0.37450 0.59150 0.57210 -0.15800
H 	H 	0.39900 0.60140 0.55080 0.08400
C 	C 	0.34170 0.63420 0.59110 0.09700
C 	C 	0.30590 0.61530 0.62110 -0.15500
H 	H 	0.28190 0.64230 0.63450 0.08200
C 	C 	0.30510 0.55730 0.63130 0.08500
H 	H 	0.28010 0.54520 0.65180 -0.00500
C 	C 	0.34370 0.69520 0.57912 -0.03500
C 	C 	0.34870 0.71790 0.54232 -0.02800
C 	C 	0.34890 0.68420 0.50486 0.10600
C 	C 	0.29900 0.66120 0.49140 -0.16600
H 	H 	0.26400 0.66520 0.50580 0.08600
C 	C 	0.29920 0.63230 0.45690 0.08500
H 	H 	0.26340 0.61620 0.44820 -0.00900
N 	N 	0.34650 0.62460 0.43398 -0.20000
C 	C 	0.39510 0.64640 0.44848 0.09000
H 	H 	0.43010 0.64130 0.43410 -0.01900
C 	C 	0.39780 0.67620 0.48320 -0.16700
H 	H 	0.43400 0.69110 0.49220 0.07900
N 	N 	0.66230 0.98260 0.61378 -0.18900
C 	C 	0.62930 0.96430 0.58470 0.09000
H 	H 	0.60640 0.99250 0.57150 -0.01400
C 	C 	0.62550 0.90850 0.57210 -0.15800
H 	H 	0.60100 0.89860 0.55080 0.08400
C 	C 	0.65830 0.86580 0.59110 0.09700
C 	C 	0.69410 0.88470 0.62110 -0.15500
H 	H 	0.71810 0.85770 0.63450 0.08200
C 	C 	0.69490 0.94270 0.63130 0.08500
H 	H 	0.71990 0.95480 0.65180 -0.00500
C 	C 	0.65630 0.80480 0.57912 -0.03500
C 	C 	0.65130 0.78210 0.54232 -0.02800
C 	C 	0.65110 0.81580 0.50486 0.10600
C 	C 	0.70100 0.83880 0.49140 -0.16600
H 	H 	0.73600 0.83480 0.50580 0.08600
C 	C 	0.70080 0.86770 0.45690 0.08500
H 	H 	0.73660 0.88380 0.44820 -0.00900
N 	N 	0.65350 0.87540 0.43398 -0.20000
C 	C 	0.60490 0.85360 0.44848 0.09000
H 	H 	0.56990 0.85870 0.43410 -0.01900
C 	C 	0.60220 0.82380 0.48320 -0.16700
H 	H 	0.56600 0.80890 0.49220 0.07900
N 	N 	0.16230 0.48260 0.11378 -0.18900
C 	C 	0.12930 0.46430 0.08470 0.09000
H 	H 	0.10640 0.49250 0.07150 -0.01400
C 	C 	0.12550 0.40850 0.07210 -0.15800
H 	H 	0.10100 0.39860 0.05080 0.08400
C 	C 	0.15830 0.36580 0.09110 0.09700
C 	C 	0.19410 0.38470 0.12110 -0.15500
H 	H 	0.21810 0.35770 0.13450 0.08200
C 	C 	0.19490 0.44270 0.13130 0.08500
H 	H 	0.21990 0.45480 0.15180 -0.00500
C 	C 	0.15630 0.30480 0.07912 -0.03500
C 	C 	0.15130 0.28210 0.04232 -0.02800
C 	C 	0.15110 0.31580 0.00486 0.10500
C 	C 	0.20100 0.33880 0.99140 -0.16600
H 	H 	0.23600 0.33480 0.00580 0.08600
C 	C 	0.20080 0.36770 0.95690 0.08500
H 	H 	0.23660 0.38380 0.94820 -0.00900
N 	N 	0.15350 0.37540 0.93398 -0.20000
C 	C 	0.10490 0.35360 0.94848 0.09000
H 	H 	0.06990 0.35870 0.93410 -0.01900
C 	C 	0.10220 0.32380 0.98320 -0.16700
H 	H 	0.06600 0.30890 0.99220 0.07900
N 	N 	0.73260 0.91230 0.13622 -0.18900
C 	C 	0.71430 0.87930 0.16530 0.09000
H 	H 	0.74250 0.85640 0.17850 -0.01400
C 	C 	0.65850 0.87550 0.17790 -0.15800
H 	H 	0.64860 0.85100 0.19920 0.08400
C 	C 	0.61580 0.90830 0.15890 0.09700
C 	C 	0.63470 0.94410 0.12890 -0.15500
H 	H 	0.60770 0.96810 0.11550 0.08200
C 	C 	0.69270 0.94490 0.11870 0.08500
H 	H 	0.70480 0.96990 0.09820 -0.00500
C 	C 	0.55480 0.90630 0.17088 -0.03500
C 	C 	0.53210 0.90130 0.20768 -0.02800
C 	C 	0.56580 0.90110 0.24514 0.10600
C 	C 	0.58880 0.95100 0.25860 -0.16600
H 	H 	0.58480 0.98600 0.24420 0.08600
C 	C 	0.61770 0.95080 0.29310 0.08500
H 	H 	0.63380 0.98660 0.30180 -0.00900
N 	N 	0.62540 0.90350 0.31602 -0.20000
C 	C 	0.60360 0.85490 0.30152 0.09000
H 	H 	0.60870 0.81990 0.31590 -0.01900
C 	C 	0.57380 0.85220 0.26680 -0.16700
H 	H 	0.55890 0.81600 0.25780 0.07900
N 	N 	0.23260 0.41230 0.63622 -0.18900
C 	C 	0.21430 0.37930 0.66530 0.09000
H 	H 	0.24250 0.35640 0.67850 -0.01400
C 	C 	0.15850 0.37550 0.67790 -0.15800
H 	H 	0.14860 0.35100 0.69920 0.08400
C 	C 	0.11580 0.40830 0.65890 0.09700
C 	C 	0.13470 0.44410 0.62890 -0.15500
H 	H 	0.10770 0.46810 0.61550 0.08200
C 	C 	0.19270 0.44490 0.61870 0.08500
H 	H 	0.20480 0.46990 0.59820 -0.00500
C 	C 	0.05480 0.40630 0.67088 -0.03500
C 	C 	0.03210 0.40130 0.70768 -0.02800
C 	C 	0.06580 0.40110 0.74514 0.10600
C 	C 	0.08880 0.45100 0.75860 -0.16600
H 	H 	0.08480 0.48600 0.74420 0.08600
C 	C 	0.11770 0.45080 0.79310 0.08500
H 	H 	0.13380 0.48660 0.80180 -0.00900
N 	N 	0.12540 0.40350 0.81602 -0.20000
C 	C 	0.10360 0.35490 0.80152 0.09000
H 	H 	0.10870 0.31990 0.81590 -0.01900
C 	C 	0.07380 0.35220 0.76680 -0.16700
H 	H 	0.05890 0.31600 0.75780 0.07900
N 	N 	0.76740 0.08770 0.63622 -0.18900
C 	C 	0.78570 0.12070 0.66530 0.09000
H 	H 	0.75750 0.14360 0.67850 -0.01400
C 	C 	0.84150 0.12450 0.67790 -0.15800
H 	H 	0.85140 0.14900 0.69920 0.08400
C 	C 	0.88420 0.09170 0.65890 0.09700
C 	C 	0.86530 0.05590 0.62890 -0.15500
H 	H 	0.89230 0.03190 0.61550 0.08200
C 	C 	0.80730 0.05510 0.61870 0.08500
H 	H 	0.79520 0.03010 0.59820 -0.00500
C 	C 	0.94520 0.09370 0.67088 -0.03500
C 	C 	0.96790 0.09870 0.70768 -0.02900
C 	C 	0.93420 0.09890 0.74514 0.10600
C 	C 	0.91120 0.04900 0.75860 -0.16600
H 	H 	0.91520 0.01400 0.74420 0.08600
C 	C 	0.88230 0.04920 0.79310 0.08500
H 	H 	0.86620 0.01340 0.80180 -0.00900
N 	N 	0.87460 0.09650 0.81602 -0.20000
C 	C 	0.89640 0.14510 0.80152 0.09000
H 	H 	0.89130 0.18010 0.81590 -0.01900
C 	C 	0.92620 0.14780 0.76680 -0.16700
H 	H 	0.94110 0.18400 0.75780 0.07900
N 	N 	0.26740 0.58770 0.13622 -0.18900
C 	C 	0.28570 0.62070 0.16530 0.09000
H 	H 	0.25750 0.64360 0.17850 -0.01400
C 	C 	0.34150 0.62450 0.17790 -0.15800
H 	H 	0.35140 0.64900 0.19920 0.08400
C 	C 	0.38420 0.59170 0.15890 0.09700
C 	C 	0.36530 0.55590 0.12890 -0.15500
H 	H 	0.39230 0.53190 0.11550 0.08200
C 	C 	0.30730 0.55510 0.11870 0.08500
H 	H 	0.29520 0.53010 0.09820 -0.00500
C 	C 	0.44520 0.59370 0.17088 -0.03500
C 	C 	0.46790 0.59870 0.20768 -0.02800
C 	C 	0.43420 0.59890 0.24514 0.10600
C 	C 	0.41120 0.54900 0.25860 -0.16600
H 	H 	0.41520 0.51400 0.24420 0.08600
C 	C 	0.38230 0.54920 0.29310 0.08500
H 	H 	0.36620 0.51340 0.30180 -0.00900
N 	N 	0.37460 0.59650 0.31602 -0.20000
C 	C 	0.39640 0.64510 0.30152 0.09000
H 	H 	0.39130 0.68010 0.31590 -0.01900
C 	C 	0.42620 0.64780 0.26680 -0.16700
H 	H 	0.44110 0.68400 0.25780 0.07900
N 	N 	0.66230 0.01740 0.38622 -0.18900
C 	C 	0.62930 0.03570 0.41530 0.09000
H 	H 	0.60640 0.00750 0.42850 -0.01400
C 	C 	0.62550 0.09150 0.42790 -0.15800
H 	H 	0.60100 0.10140 0.44920 0.08400
C 	C 	0.65830 0.13420 0.40890 0.09700
C 	C 	0.69410 0.11530 0.37890 -0.15500
H 	H 	0.71810 0.14230 0.36550 0.08200
C 	C 	0.69490 0.05730 0.36870 0.08500
H 	H 	0.71990 0.04520 0.34820 -0.00500
C 	C 	0.65630 0.19520 0.42088 -0.03500
C 	C 	0.65130 0.21790 0.45768 -0.02800
C 	C 	0.65110 0.18420 0.49514 0.10600
C 	C 	0.70100 0.16120 0.50860 -0.16600
H 	H 	0.73600 0.16520 0.49420 0.08600
C 	C 	0.70080 0.13230 0.54310 0.08500
H 	H 	0.73660 0.11620 0.55180 -0.00900
N 	N 	0.65350 0.12460 0.56602 -0.20000
C 	C 	0.60490 0.14640 0.55152 0.09000
H 	H 	0.56990 0.14130 0.56590 -0.01900
C 	C 	0.60220 0.17620 0.51680 -0.16700
H 	H 	0.56600 0.19110 0.50780 0.07900
N 	N 	0.16230 0.51740 0.88622 -0.18900
C 	C 	0.12930 0.53570 0.91530 0.09000
H 	H 	0.10640 0.50750 0.92850 -0.01400
C 	C 	0.12550 0.59150 0.92790 -0.15800
H 	H 	0.10100 0.60140 0.94920 0.08400
C 	C 	0.15830 0.63420 0.90890 0.09700
C 	C 	0.19410 0.61530 0.87890 -0.15500
H 	H 	0.21810 0.64230 0.86550 0.08200
C 	C 	0.19490 0.55730 0.86870 0.08500
H 	H 	0.21990 0.54520 0.84820 -0.00500
C 	C 	0.15630 0.69520 0.92088 -0.03500
C 	C 	0.15130 0.71790 0.95768 -0.02800
C 	C 	0.15110 0.68420 0.99514 0.10500
C 	C 	0.20100 0.66120 0.00860 -0.16600
H 	H 	0.23600 0.66520 0.99420 0.08600
C 	C 	0.20080 0.63230 0.04310 0.08500
H 	H 	0.23660 0.61620 0.05180 -0.00900
N 	N 	0.15350 0.62460 0.06602 -0.20000
C 	C 	0.10490 0.64640 0.05152 0.09000
H 	H 	0.06990 0.64130 0.06590 -0.01900
C 	C 	0.10220 0.67620 0.01680 -0.16700
H 	H 	0.06600 0.69110 0.00780 0.07900
N 	N 	0.83770 0.98260 0.88622 -0.18900
C 	C 	0.87070 0.96430 0.91530 0.08900
H 	H 	0.89360 0.99250 0.92850 -0.01400
C 	C 	0.87450 0.90850 0.92790 -0.15800
H 	H 	0.89900 0.89860 0.94920 0.08400
C 	C 	0.84170 0.86580 0.90890 0.09700
C 	C 	0.80590 0.88470 0.87890 -0.15500
H 	H 	0.78190 0.85770 0.86550 0.08200
C 	C 	0.80510 0.94270 0.86870 0.08500
H 	H 	0.78010 0.95480 0.84820 -0.00500
C 	C 	0.84370 0.80480 0.92088 -0.03500
C 	C 	0.84870 0.78210 0.95768 -0.02800
C 	C 	0.84890 0.81580 0.99514 0.10500
C 	C 	0.79900 0.83880 0.00860 -0.16600
H 	H 	0.76400 0.83480 0.99420 0.08600
C 	C 	0.79920 0.86770 0.04310 0.08500
H 	H 	0.76340 0.88380 0.05180 -0.00900
N 	N 	0.84650 0.87540 0.06602 -0.20000
C 	C 	0.89510 0.85360 0.05152 0.08900
H 	H 	0.93010 0.85870 0.06590 -0.01900
C 	C 	0.89780 0.82380 0.01680 -0.16700
H 	H 	0.93400 0.80890 0.00780 0.07900
N 	N 	0.33770 0.48260 0.38622 -0.18900
C 	C 	0.37070 0.46430 0.41530 0.09000
H 	H 	0.39360 0.49250 0.42850 -0.01400
C 	C 	0.37450 0.40850 0.42790 -0.15800
H 	H 	0.39900 0.39860 0.44920 0.08400
C 	C 	0.34170 0.36580 0.40890 0.09700
C 	C 	0.30590 0.38470 0.37890 -0.15500
H 	H 	0.28190 0.35770 0.36550 0.08200
C 	C 	0.30510 0.44270 0.36870 0.08500
H 	H 	0.28010 0.45480 0.34820 -0.00500
C 	C 	0.34370 0.30480 0.42088 -0.03500
C 	C 	0.34870 0.28210 0.45768 -0.02800
C 	C 	0.34890 0.31580 0.49514 0.10600
C 	C 	0.29900 0.33880 0.50860 -0.16600
H 	H 	0.26400 0.33480 0.49420 0.08600
C 	C 	0.29920 0.36770 0.54310 0.08500
H 	H 	0.26340 0.38380 0.55180 -0.00900
N 	N 	0.34650 0.37540 0.56602 -0.20000
C 	C 	0.39510 0.35360 0.55152 0.09000
H 	H 	0.43010 0.35870 0.56590 -0.01900
C 	C 	0.39780 0.32380 0.51680 -0.16700
H 	H 	0.43400 0.30890 0.50780 0.07900
Ag	Ag	0.33474 0.08474 0.62500 0.53900
Ag	Ag	0.83474 0.58474 0.12500 0.53900
Ag	Ag	0.16526 0.91526 0.12500 0.53900
Ag	Ag	0.66526 0.41526 0.62500 0.53900
Ag	Ag	0.16526 0.08474 0.87500 0.53900
Ag	Ag	0.66526 0.58474 0.37500 0.53900
Ag	Ag	0.33474 0.91526 0.37500 0.53900
Ag	Ag	0.83474 0.41526 0.87500 0.53900
Ag	Ag	0.66526 0.91526 0.37500 0.53900
Ag	Ag	0.16526 0.41526 0.87500 0.53900
Ag	Ag	0.83474 0.08474 0.87500 0.53900
Ag	Ag	0.33474 0.58474 0.37500 0.53900
Ag	Ag	0.83474 0.91526 0.12500 0.53900
Ag	Ag	0.33474 0.41526 0.62500 0.53900
Ag	Ag	0.66526 0.08474 0.62500 0.53900
Ag	Ag	0.16526 0.58474 0.12500 0.53900
S 	S 	-0.00000 0.08912 0.63623 -0.00800
S 	S 	0.50000 0.58912 0.13623 -0.00800
S 	S 	0.50000 0.91088 0.13623 -0.00800
S 	S 	-0.00000 0.41088 0.63623 -0.00800
S 	S 	0.16088 0.75000 0.88623 -0.00800
S 	S 	0.33912 0.25000 0.38623 -0.00800
S 	S 	0.50000 0.08912 0.86377 -0.00800
S 	S 	-0.00000 0.58912 0.36377 -0.00800
S 	S 	-0.00000 0.91088 0.36377 -0.00800
S 	S 	0.50000 0.41088 0.86377 -0.00800
S 	S 	0.33912 0.75000 0.61377 -0.00800
S 	S 	0.16088 0.25000 0.11377 -0.00800
S 	S 	0.83912 0.25000 0.11377 -0.00800
S 	S 	0.66088 0.75000 0.61377 -0.00800
S 	S 	0.66088 0.25000 0.38623 -0.00800
S 	S 	0.83912 0.75000 0.88623 -0.00800
