data_crystal

_cell_length_a 32.81950
_cell_length_b 32.81950
_cell_length_c 19.07930
_cell_angle_alpha 90.00000
_cell_angle_beta  90.00000
_cell_angle_gamma 120.00000

_symmetry_space_group_name_	'P 1'
_symmetry_space_group_name_H-M	'P 1'

loop_
_symmetry_equiv_pos_as_xyz
  x,y,z

loop_
_atom_site_label
_atom_site_type_symbol
_atom_site_fract_x
_atom_site_fract_y
_atom_site_fract_z
_atom_site_charge
Co	Co	0.51848 0.04872 0.19288 1.16800
Co	Co	0.48262 0.02170 0.67425 1.16600
O 	O 	0.51989 0.07242 0.09391 -0.40500
O 	O 	0.54410 0.14782 0.11130 -0.27600
O 	O 	0.51187 0.01809 0.84706 -0.41700
O 	O 	0.49325 0.05620 0.76660 -0.44300
O 	O 	0.59250 0.25651 0.91660 -0.18500
O 	O 	0.57050 0.23037 0.80910 -0.19800
O 	O 	0.58291 0.05366 0.19872 -0.43600
O 	O 	0.58650 0.02792 0.30629 -0.41600
O 	O 	0.79429 0.13876 0.10284 -0.37000
O 	O 	0.72730 0.12047 0.05309 -0.34200
C 	C 	0.53270 0.12075 0.99550 -0.10000
C 	C 	0.51966 0.08399 0.94860 0.05600
C 	C 	0.52099 0.09190 0.87670 -0.10200
C 	C 	0.53666 0.13729 0.85190 0.02800
C 	C 	0.55174 0.17495 0.89810 -0.07100
C 	C 	0.54900 0.16630 0.96970 0.03800
C 	C 	0.53200 0.11314 0.07340 0.35500
C 	C 	0.57320 0.22474 0.87270 0.31200
C 	C 	0.50750 0.05207 0.82590 0.38000
C 	C 	0.65729 0.07728 0.24810 -0.11500
C 	C 	0.67923 0.09110 0.18290 0.04800
C 	C 	0.72810 0.11330 0.17770 -0.09400
C 	C 	0.75514 0.12596 0.23860 0.05000
C 	C 	0.73350 0.11440 0.30410 -0.12800
C 	C 	0.68436 0.08820 0.30797 0.06400
C 	C 	0.60425 0.05087 0.25166 0.38200
C 	C 	0.75101 0.12488 0.10747 0.30600
H 	H 	0.50890 0.05150 0.97200 0.05200
H 	H 	0.53890 0.14180 0.80900 0.05400
H 	H 	0.55800 0.19100 0.00500 0.06200
H 	H 	0.66090 0.08470 0.14200 0.05300
H 	H 	0.78830 0.14280 0.23500 0.03300
H 	H 	0.66970 0.07980 0.35300 0.04400
C 	C 	0.76162 0.13270 0.36980 0.34900
O 	O 	0.74264 0.11965 0.42803 -0.37100
O 	O 	0.80436 0.16559 0.36552 -0.54300
Co	Co	0.18514 0.38205 0.52621 1.16900
Co	Co	0.14929 0.35503 0.00758 1.16700
O 	O 	0.18656 0.40575 0.42724 -0.40400
O 	O 	0.21077 0.48115 0.44463 -0.27500
O 	O 	0.17854 0.35142 0.18039 -0.41500
O 	O 	0.15992 0.38953 0.09993 -0.44200
O 	O 	0.25917 0.58984 0.24993 -0.18400
O 	O 	0.23717 0.56370 0.14243 -0.19700
O 	O 	0.24958 0.38699 0.53205 -0.43500
O 	O 	0.25317 0.36125 0.63962 -0.41500
O 	O 	0.46096 0.47209 0.43617 -0.36900
O 	O 	0.39397 0.45380 0.38642 -0.34200
C 	C 	0.19937 0.45408 0.32883 -0.09900
C 	C 	0.18633 0.41732 0.28193 0.05700
C 	C 	0.18766 0.42523 0.21003 -0.10200
C 	C 	0.20333 0.47062 0.18523 0.02800
C 	C 	0.21841 0.50828 0.23143 -0.07100
C 	C 	0.21567 0.49963 0.30303 0.03800
C 	C 	0.19867 0.44647 0.40673 0.35400
C 	C 	0.23987 0.55807 0.20603 0.31200
C 	C 	0.17417 0.38540 0.15923 0.38000
C 	C 	0.32396 0.41061 0.58143 -0.11500
C 	C 	0.34590 0.42443 0.51623 0.04800
C 	C 	0.39477 0.44663 0.51103 -0.09400
C 	C 	0.42181 0.45929 0.57193 0.05100
C 	C 	0.40017 0.44773 0.63743 -0.12800
C 	C 	0.35103 0.42153 0.64130 0.06400
C 	C 	0.27092 0.38420 0.58499 0.38200
C 	C 	0.41768 0.45821 0.44080 0.30600
H 	H 	0.17557 0.38483 0.30533 0.05200
H 	H 	0.20557 0.47513 0.14233 0.05400
H 	H 	0.22467 0.52433 0.33833 0.06100
H 	H 	0.32757 0.41803 0.47533 0.05300
H 	H 	0.45497 0.47613 0.56833 0.03300
H 	H 	0.33637 0.41313 0.68633 0.04400
C 	C 	0.42829 0.46603 0.70313 0.34900
O 	O 	0.40931 0.45298 0.76136 -0.37100
O 	O 	0.47103 0.49892 0.69885 -0.54300
Co	Co	0.85181 0.71539 0.85955 1.16900
Co	Co	0.81595 0.68837 0.34092 1.16700
O 	O 	0.85322 0.73909 0.76058 -0.40400
O 	O 	0.87743 0.81449 0.77797 -0.27500
O 	O 	0.84520 0.68476 0.51373 -0.41500
O 	O 	0.82658 0.72287 0.43327 -0.44200
O 	O 	0.92583 0.92318 0.58327 -0.18400
O 	O 	0.90383 0.89704 0.47577 -0.19700
O 	O 	0.91624 0.72033 0.86539 -0.43500
O 	O 	0.91983 0.69459 0.97296 -0.41500
O 	O 	0.12762 0.80543 0.76951 -0.36900
O 	O 	0.06063 0.78714 0.71976 -0.34200
C 	C 	0.86603 0.78742 0.66217 -0.09900
C 	C 	0.85299 0.75066 0.61527 0.05700
C 	C 	0.85432 0.75857 0.54337 -0.10200
C 	C 	0.86999 0.80396 0.51857 0.02800
C 	C 	0.88507 0.84162 0.56477 -0.07100
C 	C 	0.88233 0.83297 0.63637 0.03800
C 	C 	0.86533 0.77981 0.74007 0.35400
C 	C 	0.90653 0.89141 0.53937 0.31200
C 	C 	0.84083 0.71874 0.49257 0.38000
C 	C 	0.99062 0.74395 0.91477 -0.11800
C 	C 	0.01256 0.75777 0.84957 0.05100
C 	C 	0.06143 0.77997 0.84437 -0.09500
C 	C 	0.08847 0.79263 0.90527 0.05100
C 	C 	0.06683 0.78107 0.97077 -0.12900
C 	C 	0.01769 0.75487 0.97464 0.06700
C 	C 	0.93758 0.71754 0.91833 0.38300
C 	C 	0.08434 0.79155 0.77414 0.30600
H 	H 	0.84223 0.71817 0.63867 0.05200
H 	H 	0.87223 0.80847 0.47567 0.05400
H 	H 	0.89133 0.85767 0.67167 0.06100
H 	H 	0.99423 0.75137 0.80867 0.05200
H 	H 	0.12163 0.80947 0.90167 0.03300
H 	H 	0.00303 0.74647 0.01967 0.04300
C 	C 	0.09495 0.79937 0.03647 0.34900
O 	O 	0.07597 0.78632 0.09470 -0.37100
O 	O 	0.13769 0.83226 0.03219 -0.54300
Co	Co	0.95128 0.46976 0.19288 1.16900
Co	Co	0.97830 0.46092 0.67425 1.16700
O 	O 	0.92758 0.44747 0.09391 -0.40400
O 	O 	0.85218 0.39628 0.11130 -0.27500
O 	O 	0.98191 0.49378 0.84706 -0.41600
O 	O 	0.94380 0.43705 0.76660 -0.44200
O 	O 	0.74349 0.33599 0.91660 -0.18400
O 	O 	0.76963 0.34013 0.80910 -0.19700
O 	O 	0.94634 0.52925 0.19872 -0.43500
O 	O 	0.97208 0.55858 0.30629 -0.41500
O 	O 	0.86124 0.65553 0.10284 -0.36900
O 	O 	0.87953 0.60683 0.05309 -0.34200
C 	C 	0.87925 0.41195 0.99550 -0.09900
C 	C 	0.91601 0.43567 0.94860 0.05700
C 	C 	0.90810 0.42909 0.87670 -0.10200
C 	C 	0.86271 0.39937 0.85190 0.02800
C 	C 	0.82505 0.37679 0.89810 -0.07100
C 	C 	0.83370 0.38270 0.96970 0.03700
C 	C 	0.88686 0.41886 0.07340 0.35500
C 	C 	0.77526 0.34846 0.87270 0.31200
C 	C 	0.94793 0.45543 0.82590 0.38000
C 	C 	0.92272 0.58001 0.24810 -0.11500
C 	C 	0.90890 0.58813 0.18290 0.04800
C 	C 	0.88670 0.61480 0.17770 -0.09400
C 	C 	0.87404 0.62918 0.23860 0.05100
C 	C 	0.88560 0.61910 0.30410 -0.12800
C 	C 	0.91180 0.59616 0.30797 0.06400
C 	C 	0.94913 0.55338 0.25166 0.38200
C 	C 	0.87512 0.62613 0.10747 0.30600
H 	H 	0.94850 0.45740 0.97200 0.05200
H 	H 	0.85820 0.39710 0.80900 0.05400
H 	H 	0.80900 0.36700 0.00500 0.06200
H 	H 	0.91530 0.57620 0.14200 0.05300
H 	H 	0.85720 0.64550 0.23500 0.03300
H 	H 	0.92020 0.58990 0.35300 0.04400
C 	C 	0.86730 0.62892 0.36980 0.34900
O 	O 	0.88035 0.62299 0.42803 -0.37100
O 	O 	0.83441 0.63877 0.36552 -0.54300
Co	Co	0.61795 0.80309 0.52621 1.16900
Co	Co	0.64497 0.79425 0.00758 1.16700
O 	O 	0.59425 0.78080 0.42724 -0.40400
O 	O 	0.51885 0.72961 0.44463 -0.27500
O 	O 	0.64858 0.82711 0.18039 -0.41500
O 	O 	0.61047 0.77038 0.09993 -0.44200
O 	O 	0.41016 0.66932 0.24993 -0.18400
O 	O 	0.43630 0.67346 0.14243 -0.19700
O 	O 	0.61301 0.86258 0.53205 -0.43500
O 	O 	0.63875 0.89191 0.63962 -0.41500
O 	O 	0.52791 0.98886 0.43617 -0.36900
O 	O 	0.54620 0.94016 0.38642 -0.34200
C 	C 	0.54592 0.74528 0.32883 -0.09900
C 	C 	0.58268 0.76900 0.28193 0.05700
C 	C 	0.57477 0.76242 0.21003 -0.10200
C 	C 	0.52938 0.73270 0.18523 0.02800
C 	C 	0.49172 0.71012 0.23143 -0.07100
C 	C 	0.50037 0.71603 0.30303 0.03800
C 	C 	0.55353 0.75219 0.40673 0.35400
C 	C 	0.44193 0.68179 0.20603 0.31200
C 	C 	0.61460 0.78876 0.15923 0.38000
C 	C 	0.58939 0.91334 0.58143 -0.11500
C 	C 	0.57557 0.92146 0.51623 0.04800
C 	C 	0.55337 0.94813 0.51103 -0.09400
C 	C 	0.54071 0.96251 0.57193 0.05100
C 	C 	0.55227 0.95243 0.63743 -0.12800
C 	C 	0.57847 0.92949 0.64130 0.06400
C 	C 	0.61580 0.88671 0.58499 0.38200
C 	C 	0.54179 0.95946 0.44080 0.30600
H 	H 	0.61517 0.79073 0.30533 0.05200
H 	H 	0.52487 0.73043 0.14233 0.05400
H 	H 	0.47567 0.70033 0.33833 0.06100
H 	H 	0.58197 0.90953 0.47533 0.05300
H 	H 	0.52387 0.97883 0.56833 0.03300
H 	H 	0.58687 0.92323 0.68633 0.04400
C 	C 	0.53397 0.96225 0.70313 0.34900
O 	O 	0.54702 0.95632 0.76136 -0.37100
O 	O 	0.50108 0.97210 0.69885 -0.54300
Co	Co	0.28461 0.13642 0.85955 1.16900
Co	Co	0.31163 0.12759 0.34092 1.16700
O 	O 	0.26091 0.11414 0.76058 -0.40400
O 	O 	0.18551 0.06295 0.77797 -0.27500
O 	O 	0.31524 0.16045 0.51373 -0.41500
O 	O 	0.27713 0.10372 0.43327 -0.44200
O 	O 	0.07682 0.00266 0.58327 -0.18400
O 	O 	0.10296 0.00680 0.47577 -0.19700
O 	O 	0.27967 0.19592 0.86539 -0.43500
O 	O 	0.30541 0.22525 0.97296 -0.41500
O 	O 	0.19457 0.32220 0.76951 -0.36900
O 	O 	0.21286 0.27350 0.71976 -0.34200
C 	C 	0.21258 0.07862 0.66217 -0.09900
C 	C 	0.24934 0.10234 0.61527 0.05700
C 	C 	0.24143 0.09576 0.54337 -0.10200
C 	C 	0.19604 0.06604 0.51857 0.02800
C 	C 	0.15838 0.04346 0.56477 -0.07100
C 	C 	0.16703 0.04937 0.63637 0.03800
C 	C 	0.22019 0.08553 0.74007 0.35400
C 	C 	0.10859 0.01513 0.53937 0.31200
C 	C 	0.28126 0.12210 0.49257 0.38000
C 	C 	0.25605 0.24668 0.91477 -0.11500
C 	C 	0.24223 0.25480 0.84957 0.04800
C 	C 	0.22003 0.28147 0.84437 -0.09400
C 	C 	0.20737 0.29585 0.90527 0.05000
C 	C 	0.21893 0.28577 0.97077 -0.12800
C 	C 	0.24513 0.26283 0.97464 0.06400
C 	C 	0.28246 0.22005 0.91833 0.38200
C 	C 	0.20845 0.29280 0.77414 0.30600
H 	H 	0.28183 0.12407 0.63867 0.05200
H 	H 	0.19153 0.06377 0.47567 0.05400
H 	H 	0.14233 0.03367 0.67167 0.06100
H 	H 	0.24863 0.24287 0.80867 0.05300
H 	H 	0.19053 0.31217 0.90167 0.03300
H 	H 	0.25353 0.25657 0.01967 0.04400
C 	C 	0.20063 0.29559 0.03647 0.34900
O 	O 	0.21368 0.28966 0.09470 -0.37100
O 	O 	0.16774 0.30544 0.03219 -0.54300
Co	Co	0.53024 0.48152 0.19288 1.16900
Co	Co	0.53908 0.51738 0.67425 1.16700
O 	O 	0.55253 0.48011 0.09391 -0.40400
O 	O 	0.60372 0.45590 0.11130 -0.27500
O 	O 	0.50622 0.48813 0.84706 -0.41500
O 	O 	0.56295 0.50675 0.76660 -0.44200
O 	O 	0.66401 0.40750 0.91660 -0.18400
O 	O 	0.65987 0.42950 0.80910 -0.19700
O 	O 	0.47075 0.41709 0.19872 -0.43500
O 	O 	0.44142 0.41350 0.30629 -0.41500
O 	O 	0.34447 0.20571 0.10284 -0.36900
O 	O 	0.39317 0.27270 0.05309 -0.34200
C 	C 	0.58805 0.46730 0.99550 -0.09900
C 	C 	0.56433 0.48034 0.94860 0.05700
C 	C 	0.57091 0.47901 0.87670 -0.10200
C 	C 	0.60063 0.46334 0.85190 0.02800
C 	C 	0.62321 0.44826 0.89810 -0.07100
C 	C 	0.61730 0.45100 0.96970 0.03800
C 	C 	0.58114 0.46800 0.07340 0.35400
C 	C 	0.65154 0.42680 0.87270 0.31200
C 	C 	0.54457 0.49250 0.82590 0.38000
C 	C 	0.41999 0.34271 0.24810 -0.11500
C 	C 	0.41187 0.32077 0.18290 0.04800
C 	C 	0.38520 0.27190 0.17770 -0.09400
C 	C 	0.37082 0.24486 0.23860 0.05100
C 	C 	0.38090 0.26650 0.30410 -0.12800
C 	C 	0.40384 0.31564 0.30797 0.06400
C 	C 	0.44662 0.39575 0.25166 0.38200
C 	C 	0.37387 0.24899 0.10747 0.30600
H 	H 	0.54260 0.49110 0.97200 0.05200
H 	H 	0.60290 0.46110 0.80900 0.05400
H 	H 	0.63300 0.44200 0.00500 0.06200
H 	H 	0.42380 0.33910 0.14200 0.05300
H 	H 	0.35450 0.21170 0.23500 0.03300
H 	H 	0.41010 0.33030 0.35300 0.04400
C 	C 	0.37108 0.23838 0.36980 0.34900
O 	O 	0.37701 0.25736 0.42803 -0.37100
O 	O 	0.36123 0.19564 0.36552 -0.54300
Co	Co	0.19691 0.81486 0.52621 1.16900
Co	Co	0.20575 0.85071 0.00758 1.16700
O 	O 	0.21920 0.81344 0.42724 -0.40400
O 	O 	0.27039 0.78923 0.44463 -0.27500
O 	O 	0.17289 0.82146 0.18039 -0.41500
O 	O 	0.22962 0.84008 0.09993 -0.44200
O 	O 	0.33068 0.74083 0.24993 -0.18400
O 	O 	0.32654 0.76283 0.14243 -0.19700
O 	O 	0.13742 0.75042 0.53205 -0.43500
O 	O 	0.10809 0.74683 0.63962 -0.41500
O 	O 	0.01114 0.53904 0.43617 -0.36900
O 	O 	0.05984 0.60603 0.38642 -0.34200
C 	C 	0.25472 0.80063 0.32883 -0.09900
C 	C 	0.23100 0.81367 0.28193 0.05700
C 	C 	0.23758 0.81234 0.21003 -0.10200
C 	C 	0.26730 0.79667 0.18523 0.02800
C 	C 	0.28988 0.78159 0.23143 -0.07100
C 	C 	0.28397 0.78433 0.30303 0.03800
C 	C 	0.24781 0.80133 0.40673 0.35400
C 	C 	0.31821 0.76013 0.20603 0.31200
C 	C 	0.21124 0.82583 0.15923 0.38000
C 	C 	0.08666 0.67604 0.58143 -0.11500
C 	C 	0.07854 0.65410 0.51623 0.04800
C 	C 	0.05187 0.60523 0.51103 -0.09400
C 	C 	0.03749 0.57819 0.57193 0.05100
C 	C 	0.04757 0.59983 0.63743 -0.12800
C 	C 	0.07051 0.64897 0.64130 0.06400
C 	C 	0.11329 0.72908 0.58499 0.38200
C 	C 	0.04054 0.58232 0.44080 0.30600
H 	H 	0.20927 0.82443 0.30533 0.05200
H 	H 	0.26957 0.79443 0.14233 0.05400
H 	H 	0.29967 0.77533 0.33833 0.06100
H 	H 	0.09047 0.67243 0.47533 0.05300
H 	H 	0.02117 0.54503 0.56833 0.03300
H 	H 	0.07677 0.66363 0.68633 0.04400
C 	C 	0.03775 0.57171 0.70313 0.34900
O 	O 	0.04368 0.59069 0.76136 -0.37100
O 	O 	0.02790 0.52897 0.69885 -0.54300
Co	Co	0.86358 0.14819 0.85955 1.16900
Co	Co	0.87241 0.18405 0.34092 1.16700
O 	O 	0.88586 0.14678 0.76058 -0.40400
O 	O 	0.93705 0.12257 0.77797 -0.27600
O 	O 	0.83955 0.15480 0.51373 -0.41500
O 	O 	0.89628 0.17342 0.43327 -0.44200
O 	O 	0.99734 0.07417 0.58327 -0.18400
O 	O 	0.99320 0.09617 0.47577 -0.19700
O 	O 	0.80408 0.08376 0.86539 -0.43500
O 	O 	0.77475 0.08017 0.97296 -0.41600
O 	O 	0.67780 0.87238 0.76951 -0.36900
O 	O 	0.72650 0.93937 0.71976 -0.34200
C 	C 	0.92138 0.13397 0.66217 -0.09900
C 	C 	0.89766 0.14701 0.61527 0.05700
C 	C 	0.90424 0.14568 0.54337 -0.10200
C 	C 	0.93396 0.13001 0.51857 0.02800
C 	C 	0.95654 0.11493 0.56477 -0.07100
C 	C 	0.95063 0.11767 0.63637 0.03800
C 	C 	0.91447 0.13467 0.74007 0.35400
C 	C 	0.98487 0.09347 0.53937 0.31200
C 	C 	0.87790 0.15917 0.49257 0.38000
C 	C 	0.75332 0.00938 0.91477 -0.11800
C 	C 	0.74520 0.98744 0.84957 0.05100
C 	C 	0.71853 0.93857 0.84437 -0.09500
C 	C 	0.70415 0.91153 0.90527 0.05200
C 	C 	0.71423 0.93317 0.97077 -0.12900
C 	C 	0.73717 0.98231 0.97464 0.06600
C 	C 	0.77995 0.06242 0.91833 0.38300
C 	C 	0.70720 0.91566 0.77414 0.30600
H 	H 	0.87593 0.15777 0.63867 0.05200
H 	H 	0.93623 0.12777 0.47567 0.05400
H 	H 	0.96633 0.10867 0.67167 0.06100
H 	H 	0.75713 0.00577 0.80867 0.05100
H 	H 	0.68783 0.87837 0.90167 0.03300
H 	H 	0.74343 0.99697 0.01967 0.04300
C 	C 	0.70441 0.90505 0.03647 0.34900
O 	O 	0.71034 0.92403 0.09470 -0.37100
O 	O 	0.69456 0.86231 0.03219 -0.54300
Co	Co	0.48152 0.95128 0.80712 1.16900
Co	Co	0.51738 0.97830 0.32575 1.16700
O 	O 	0.48011 0.92758 0.90609 -0.40400
O 	O 	0.45590 0.85218 0.88870 -0.27500
O 	O 	0.48813 0.98191 0.15294 -0.41600
O 	O 	0.50675 0.94380 0.23340 -0.44200
O 	O 	0.40750 0.74349 0.08340 -0.18400
O 	O 	0.42950 0.76963 0.19090 -0.19700
O 	O 	0.41709 0.94634 0.80128 -0.43500
O 	O 	0.41350 0.97208 0.69371 -0.41500
O 	O 	0.20571 0.86124 0.89716 -0.36900
O 	O 	0.27270 0.87953 0.94691 -0.34100
C 	C 	0.46730 0.87925 0.00450 -0.09900
C 	C 	0.48034 0.91601 0.05140 0.05700
C 	C 	0.47901 0.90810 0.12330 -0.10200
C 	C 	0.46334 0.86271 0.14810 0.02800
C 	C 	0.44826 0.82505 0.10190 -0.07100
C 	C 	0.45100 0.83370 0.03030 0.03800
C 	C 	0.46800 0.88686 0.92660 0.35500
C 	C 	0.42680 0.77526 0.12730 0.31200
C 	C 	0.49250 0.94793 0.17410 0.38000
C 	C 	0.34271 0.92272 0.75190 -0.11500
C 	C 	0.32077 0.90890 0.81710 0.04800
C 	C 	0.27190 0.88670 0.82230 -0.09400
C 	C 	0.24486 0.87404 0.76140 0.05000
C 	C 	0.26650 0.88560 0.69590 -0.12800
C 	C 	0.31564 0.91180 0.69203 0.06400
C 	C 	0.39575 0.94913 0.74834 0.38200
C 	C 	0.24899 0.87512 0.89253 0.30600
H 	H 	0.49110 0.94850 0.02800 0.05200
H 	H 	0.46110 0.85820 0.19100 0.05400
H 	H 	0.44200 0.80900 0.99500 0.06200
H 	H 	0.33910 0.91530 0.85800 0.05300
H 	H 	0.21170 0.85720 0.76500 0.03300
H 	H 	0.33030 0.92020 0.64700 0.04400
C 	C 	0.23838 0.86730 0.63020 0.34900
O 	O 	0.25736 0.88035 0.57197 -0.37100
O 	O 	0.19564 0.83441 0.63448 -0.54300
Co	Co	0.14819 0.28461 0.14045 1.16900
Co	Co	0.18405 0.31163 0.65908 1.16700
O 	O 	0.14678 0.26091 0.23942 -0.40400
O 	O 	0.12257 0.18551 0.22203 -0.27500
O 	O 	0.15480 0.31524 0.48627 -0.41500
O 	O 	0.17342 0.27713 0.56673 -0.44200
O 	O 	0.07417 0.07682 0.41673 -0.18400
O 	O 	0.09617 0.10296 0.52423 -0.19700
O 	O 	0.08376 0.27967 0.13461 -0.43500
O 	O 	0.08017 0.30541 0.02704 -0.41500
O 	O 	0.87238 0.19457 0.23049 -0.36900
O 	O 	0.93937 0.21286 0.28024 -0.34200
C 	C 	0.13397 0.21258 0.33783 -0.09900
C 	C 	0.14701 0.24934 0.38473 0.05700
C 	C 	0.14568 0.24143 0.45663 -0.10200
C 	C 	0.13001 0.19604 0.48143 0.02800
C 	C 	0.11493 0.15838 0.43523 -0.07100
C 	C 	0.11767 0.16703 0.36363 0.03800
C 	C 	0.13467 0.22019 0.25993 0.35400
C 	C 	0.09347 0.10859 0.46063 0.31200
C 	C 	0.15917 0.28126 0.50743 0.38000
C 	C 	0.00938 0.25605 0.08523 -0.11800
C 	C 	0.98744 0.24223 0.15043 0.05100
C 	C 	0.93857 0.22003 0.15563 -0.09500
C 	C 	0.91153 0.20737 0.09473 0.05100
C 	C 	0.93317 0.21893 0.02923 -0.12900
C 	C 	0.98231 0.24513 0.02536 0.06700
C 	C 	0.06242 0.28246 0.08167 0.38300
C 	C 	0.91566 0.20845 0.22586 0.30600
H 	H 	0.15777 0.28183 0.36133 0.05200
H 	H 	0.12777 0.19153 0.52433 0.05400
H 	H 	0.10867 0.14233 0.32833 0.06100
H 	H 	0.00577 0.24863 0.19133 0.05200
H 	H 	0.87837 0.19053 0.09833 0.03300
H 	H 	0.99697 0.25353 0.98033 0.04300
C 	C 	0.90505 0.20063 0.96353 0.34900
O 	O 	0.92403 0.21368 0.90530 -0.37100
O 	O 	0.86231 0.16774 0.96781 -0.54300
Co	Co	0.81486 0.61795 0.47379 1.16900
Co	Co	0.85071 0.64497 0.99242 1.16700
O 	O 	0.81344 0.59425 0.57276 -0.40400
O 	O 	0.78923 0.51885 0.55537 -0.27500
O 	O 	0.82146 0.64858 0.81961 -0.41500
O 	O 	0.84008 0.61047 0.90007 -0.44200
O 	O 	0.74083 0.41016 0.75007 -0.18400
O 	O 	0.76283 0.43630 0.85757 -0.19700
O 	O 	0.75042 0.61301 0.46795 -0.43500
O 	O 	0.74683 0.63875 0.36038 -0.41500
O 	O 	0.53904 0.52791 0.56383 -0.36900
O 	O 	0.60603 0.54620 0.61358 -0.34200
C 	C 	0.80063 0.54592 0.67117 -0.09900
C 	C 	0.81367 0.58268 0.71807 0.05700
C 	C 	0.81234 0.57477 0.78997 -0.10200
C 	C 	0.79667 0.52938 0.81477 0.02800
C 	C 	0.78159 0.49172 0.76857 -0.07100
C 	C 	0.78433 0.50037 0.69697 0.03800
C 	C 	0.80133 0.55353 0.59327 0.35400
C 	C 	0.76013 0.44193 0.79397 0.31200
C 	C 	0.82583 0.61460 0.84077 0.38000
C 	C 	0.67604 0.58939 0.41857 -0.11500
C 	C 	0.65410 0.57557 0.48377 0.04800
C 	C 	0.60523 0.55337 0.48897 -0.09400
C 	C 	0.57819 0.54071 0.42807 0.05100
C 	C 	0.59983 0.55227 0.36257 -0.12800
C 	C 	0.64897 0.57847 0.35870 0.06400
C 	C 	0.72908 0.61580 0.41501 0.38200
C 	C 	0.58232 0.54179 0.55920 0.30600
H 	H 	0.82443 0.61517 0.69467 0.05200
H 	H 	0.79443 0.52487 0.85767 0.05400
H 	H 	0.77533 0.47567 0.66167 0.06100
H 	H 	0.67243 0.58197 0.52467 0.05300
H 	H 	0.54503 0.52387 0.43167 0.03300
H 	H 	0.66363 0.58687 0.31367 0.04400
C 	C 	0.57171 0.53397 0.29687 0.34900
O 	O 	0.59069 0.54702 0.23864 -0.37100
O 	O 	0.52897 0.50108 0.30115 -0.54300
Co	Co	0.04872 0.53024 0.80712 1.16900
Co	Co	0.02170 0.53908 0.32575 1.16700
O 	O 	0.07242 0.55253 0.90609 -0.40400
O 	O 	0.14782 0.60372 0.88870 -0.27500
O 	O 	0.01809 0.50622 0.15294 -0.41600
O 	O 	0.05620 0.56295 0.23340 -0.44200
O 	O 	0.25651 0.66401 0.08340 -0.18400
O 	O 	0.23037 0.65987 0.19090 -0.19700
O 	O 	0.05366 0.47075 0.80128 -0.43500
O 	O 	0.02792 0.44142 0.69371 -0.41500
O 	O 	0.13876 0.34447 0.89716 -0.36900
O 	O 	0.12047 0.39317 0.94691 -0.34200
C 	C 	0.12075 0.58805 0.00450 -0.09900
C 	C 	0.08399 0.56433 0.05140 0.05700
C 	C 	0.09190 0.57091 0.12330 -0.10200
C 	C 	0.13729 0.60063 0.14810 0.02800
C 	C 	0.17495 0.62321 0.10190 -0.07100
C 	C 	0.16630 0.61730 0.03030 0.03700
C 	C 	0.11314 0.58114 0.92660 0.35500
C 	C 	0.22474 0.65154 0.12730 0.31200
C 	C 	0.05207 0.54457 0.17410 0.38000
C 	C 	0.07728 0.41999 0.75190 -0.11500
C 	C 	0.09110 0.41187 0.81710 0.04800
C 	C 	0.11330 0.38520 0.82230 -0.09400
C 	C 	0.12596 0.37082 0.76140 0.05100
C 	C 	0.11440 0.38090 0.69590 -0.12800
C 	C 	0.08820 0.40384 0.69203 0.06400
C 	C 	0.05087 0.44662 0.74834 0.38200
C 	C 	0.12488 0.37387 0.89253 0.30600
H 	H 	0.05150 0.54260 0.02800 0.05200
H 	H 	0.14180 0.60290 0.19100 0.05400
H 	H 	0.19100 0.63300 0.99500 0.06200
H 	H 	0.08470 0.42380 0.85800 0.05300
H 	H 	0.14280 0.35450 0.76500 0.03300
H 	H 	0.07980 0.41010 0.64700 0.04400
C 	C 	0.13270 0.37108 0.63020 0.34900
O 	O 	0.11965 0.37701 0.57197 -0.37100
O 	O 	0.16559 0.36123 0.63448 -0.54300
Co	Co	0.71539 0.86358 0.14045 1.16900
Co	Co	0.68837 0.87241 0.65908 1.16700
O 	O 	0.73909 0.88586 0.23942 -0.40400
O 	O 	0.81449 0.93705 0.22203 -0.27500
O 	O 	0.68476 0.83955 0.48627 -0.41500
O 	O 	0.72287 0.89628 0.56673 -0.44200
O 	O 	0.92318 0.99734 0.41673 -0.18400
O 	O 	0.89704 0.99320 0.52423 -0.19700
O 	O 	0.72033 0.80408 0.13461 -0.43500
O 	O 	0.69459 0.77475 0.02704 -0.41500
O 	O 	0.80543 0.67780 0.23049 -0.36900
O 	O 	0.78714 0.72650 0.28024 -0.34200
C 	C 	0.78742 0.92138 0.33783 -0.09900
C 	C 	0.75066 0.89766 0.38473 0.05700
C 	C 	0.75857 0.90424 0.45663 -0.10200
C 	C 	0.80396 0.93396 0.48143 0.02800
C 	C 	0.84162 0.95654 0.43523 -0.07100
C 	C 	0.83297 0.95063 0.36363 0.03800
C 	C 	0.77981 0.91447 0.25993 0.35400
C 	C 	0.89141 0.98487 0.46063 0.31200
C 	C 	0.71874 0.87790 0.50743 0.38000
C 	C 	0.74395 0.75332 0.08523 -0.11500
C 	C 	0.75777 0.74520 0.15043 0.04800
C 	C 	0.77997 0.71853 0.15563 -0.09400
C 	C 	0.79263 0.70415 0.09473 0.05000
C 	C 	0.78107 0.71423 0.02923 -0.12800
C 	C 	0.75487 0.73717 0.02536 0.06400
C 	C 	0.71754 0.77995 0.08167 0.38200
C 	C 	0.79155 0.70720 0.22586 0.30600
H 	H 	0.71817 0.87593 0.36133 0.05200
H 	H 	0.80847 0.93623 0.52433 0.05400
H 	H 	0.85767 0.96633 0.32833 0.06100
H 	H 	0.75137 0.75713 0.19133 0.05300
H 	H 	0.80947 0.68783 0.09833 0.03300
H 	H 	0.74647 0.74343 0.98033 0.04400
C 	C 	0.79937 0.70441 0.96353 0.34900
O 	O 	0.78632 0.71034 0.90530 -0.37100
O 	O 	0.83226 0.69456 0.96781 -0.54300
Co	Co	0.38205 0.19691 0.47379 1.16900
Co	Co	0.35503 0.20575 0.99242 1.16700
O 	O 	0.40575 0.21920 0.57276 -0.40400
O 	O 	0.48115 0.27039 0.55537 -0.27500
O 	O 	0.35142 0.17289 0.81961 -0.41500
O 	O 	0.38953 0.22962 0.90007 -0.44200
O 	O 	0.58984 0.33068 0.75007 -0.18400
O 	O 	0.56370 0.32654 0.85757 -0.19700
O 	O 	0.38699 0.13742 0.46795 -0.43500
O 	O 	0.36125 0.10809 0.36038 -0.41500
O 	O 	0.47209 0.01114 0.56383 -0.36900
O 	O 	0.45380 0.05984 0.61358 -0.34200
C 	C 	0.45408 0.25472 0.67117 -0.09900
C 	C 	0.41732 0.23100 0.71807 0.05700
C 	C 	0.42523 0.23758 0.78997 -0.10200
C 	C 	0.47062 0.26730 0.81477 0.02800
C 	C 	0.50828 0.28988 0.76857 -0.07100
C 	C 	0.49963 0.28397 0.69697 0.03800
C 	C 	0.44647 0.24781 0.59327 0.35400
C 	C 	0.55807 0.31821 0.79397 0.31200
C 	C 	0.38540 0.21124 0.84077 0.38000
C 	C 	0.41061 0.08666 0.41857 -0.11500
C 	C 	0.42443 0.07854 0.48377 0.04800
C 	C 	0.44663 0.05187 0.48897 -0.09400
C 	C 	0.45929 0.03749 0.42807 0.05100
C 	C 	0.44773 0.04757 0.36257 -0.12800
C 	C 	0.42153 0.07051 0.35870 0.06400
C 	C 	0.38420 0.11329 0.41501 0.38200
C 	C 	0.45821 0.04054 0.55920 0.30600
H 	H 	0.38483 0.20927 0.69467 0.05200
H 	H 	0.47513 0.26957 0.85767 0.05400
H 	H 	0.52433 0.29967 0.66167 0.06100
H 	H 	0.41803 0.09047 0.52467 0.05300
H 	H 	0.47613 0.02117 0.43167 0.03300
H 	H 	0.41313 0.07677 0.31367 0.04400
C 	C 	0.46603 0.03775 0.29687 0.34900
O 	O 	0.45298 0.04368 0.23864 -0.37100
O 	O 	0.49892 0.02790 0.30115 -0.54300
Co	Co	0.46976 0.51848 0.80712 1.16900
Co	Co	0.46092 0.48262 0.32575 1.16700
O 	O 	0.44747 0.51989 0.90609 -0.40400
O 	O 	0.39628 0.54410 0.88870 -0.27500
O 	O 	0.49378 0.51187 0.15294 -0.41500
O 	O 	0.43705 0.49325 0.23340 -0.44200
O 	O 	0.33599 0.59250 0.08340 -0.18400
O 	O 	0.34013 0.57050 0.19090 -0.19700
O 	O 	0.52925 0.58291 0.80128 -0.43500
O 	O 	0.55858 0.58650 0.69371 -0.41500
O 	O 	0.65553 0.79429 0.89716 -0.36900
O 	O 	0.60683 0.72730 0.94691 -0.34200
C 	C 	0.41195 0.53270 0.00450 -0.09900
C 	C 	0.43567 0.51966 0.05140 0.05700
C 	C 	0.42909 0.52099 0.12330 -0.10200
C 	C 	0.39937 0.53666 0.14810 0.02800
C 	C 	0.37679 0.55174 0.10190 -0.07100
C 	C 	0.38270 0.54900 0.03030 0.03800
C 	C 	0.41886 0.53200 0.92660 0.35400
C 	C 	0.34846 0.57320 0.12730 0.31200
C 	C 	0.45543 0.50750 0.17410 0.38000
C 	C 	0.58001 0.65729 0.75190 -0.11500
C 	C 	0.58813 0.67923 0.81710 0.04800
C 	C 	0.61480 0.72810 0.82230 -0.09400
C 	C 	0.62918 0.75514 0.76140 0.05100
C 	C 	0.61910 0.73350 0.69590 -0.12800
C 	C 	0.59616 0.68436 0.69203 0.06400
C 	C 	0.55338 0.60425 0.74834 0.38200
C 	C 	0.62613 0.75101 0.89253 0.30600
H 	H 	0.45740 0.50890 0.02800 0.05200
H 	H 	0.39710 0.53890 0.19100 0.05400
H 	H 	0.36700 0.55800 0.99500 0.06200
H 	H 	0.57620 0.66090 0.85800 0.05300
H 	H 	0.64550 0.78830 0.76500 0.03300
H 	H 	0.58990 0.66970 0.64700 0.04400
C 	C 	0.62892 0.76162 0.63020 0.34900
O 	O 	0.62299 0.74264 0.57197 -0.37100
O 	O 	0.63877 0.80436 0.63448 -0.54300
Co	Co	0.13642 0.85181 0.14045 1.16900
Co	Co	0.12759 0.81595 0.65908 1.16700
O 	O 	0.11414 0.85322 0.23942 -0.40400
O 	O 	0.06295 0.87743 0.22203 -0.27600
O 	O 	0.16045 0.84520 0.48627 -0.41500
O 	O 	0.10372 0.82658 0.56673 -0.44200
O 	O 	0.00266 0.92583 0.41673 -0.18400
O 	O 	0.00680 0.90383 0.52423 -0.19700
O 	O 	0.19592 0.91624 0.13461 -0.43500
O 	O 	0.22525 0.91983 0.02704 -0.41600
O 	O 	0.32220 0.12762 0.23049 -0.36900
O 	O 	0.27350 0.06063 0.28024 -0.34200
C 	C 	0.07862 0.86603 0.33783 -0.09900
C 	C 	0.10234 0.85299 0.38473 0.05700
C 	C 	0.09576 0.85432 0.45663 -0.10200
C 	C 	0.06604 0.86999 0.48143 0.02800
C 	C 	0.04346 0.88507 0.43523 -0.07100
C 	C 	0.04937 0.88233 0.36363 0.03800
C 	C 	0.08553 0.86533 0.25993 0.35400
C 	C 	0.01513 0.90653 0.46063 0.31200
C 	C 	0.12210 0.84083 0.50743 0.38000
C 	C 	0.24668 0.99062 0.08523 -0.11800
C 	C 	0.25480 0.01256 0.15043 0.05100
C 	C 	0.28147 0.06143 0.15563 -0.09500
C 	C 	0.29585 0.08847 0.09473 0.05200
C 	C 	0.28577 0.06683 0.02923 -0.12900
C 	C 	0.26283 0.01769 0.02536 0.06600
C 	C 	0.22005 0.93758 0.08167 0.38300
C 	C 	0.29280 0.08434 0.22586 0.30600
H 	H 	0.12407 0.84223 0.36133 0.05200
H 	H 	0.06377 0.87223 0.52433 0.05400
H 	H 	0.03367 0.89133 0.32833 0.06100
H 	H 	0.24287 0.99423 0.19133 0.05100
H 	H 	0.31217 0.12163 0.09833 0.03300
H 	H 	0.25657 0.00303 0.98033 0.04300
C 	C 	0.29559 0.09495 0.96353 0.34900
O 	O 	0.28966 0.07597 0.90530 -0.37100
O 	O 	0.30544 0.13769 0.96781 -0.54300
Co	Co	0.80309 0.18514 0.47379 1.16900
Co	Co	0.79425 0.14929 0.99242 1.16700
O 	O 	0.78080 0.18656 0.57276 -0.40400
O 	O 	0.72961 0.21077 0.55537 -0.27500
O 	O 	0.82711 0.17854 0.81961 -0.41500
O 	O 	0.77038 0.15992 0.90007 -0.44200
O 	O 	0.66932 0.25917 0.75007 -0.18400
O 	O 	0.67346 0.23717 0.85757 -0.19700
O 	O 	0.86258 0.24958 0.46795 -0.43500
O 	O 	0.89191 0.25317 0.36038 -0.41500
O 	O 	0.98886 0.46096 0.56383 -0.36900
O 	O 	0.94016 0.39397 0.61358 -0.34200
C 	C 	0.74528 0.19937 0.67117 -0.09900
C 	C 	0.76900 0.18633 0.71807 0.05700
C 	C 	0.76242 0.18766 0.78997 -0.10200
C 	C 	0.73270 0.20333 0.81477 0.02800
C 	C 	0.71012 0.21841 0.76857 -0.07100
C 	C 	0.71603 0.21567 0.69697 0.03800
C 	C 	0.75219 0.19867 0.59327 0.35400
C 	C 	0.68179 0.23987 0.79397 0.31200
C 	C 	0.78876 0.17417 0.84077 0.38000
C 	C 	0.91334 0.32396 0.41857 -0.11500
C 	C 	0.92146 0.34590 0.48377 0.04800
C 	C 	0.94813 0.39477 0.48897 -0.09400
C 	C 	0.96251 0.42181 0.42807 0.05100
C 	C 	0.95243 0.40017 0.36257 -0.12800
C 	C 	0.92949 0.35103 0.35870 0.06400
C 	C 	0.88671 0.27092 0.41501 0.38200
C 	C 	0.95946 0.41768 0.55920 0.30600
H 	H 	0.79073 0.17557 0.69467 0.05200
H 	H 	0.73043 0.20557 0.85767 0.05400
H 	H 	0.70033 0.22467 0.66167 0.06100
H 	H 	0.90953 0.32757 0.52467 0.05300
H 	H 	0.97883 0.45497 0.43167 0.03300
H 	H 	0.92323 0.33637 0.31367 0.04400
C 	C 	0.96225 0.42829 0.29687 0.34900
O 	O 	0.95632 0.40931 0.23864 -0.37100
O 	O 	0.97210 0.47103 0.30115 -0.54300
