data_crystal

_cell_length_a 17.51900
_cell_length_b 10.08000
_cell_length_c 22.93100
_cell_angle_alpha 90.00000
_cell_angle_beta  98.72000
_cell_angle_gamma 90.00000

_symmetry_space_group_name_	'P 1'
_symmetry_space_group_name_H-M	'P 1'

loop_
_symmetry_equiv_pos_as_xyz
  x,y,z

loop_
_atom_site_label
_atom_site_type_symbol
_atom_site_fract_x
_atom_site_fract_y
_atom_site_fract_z
_atom_site_charge
Co	Co	0.65934 0.81017 0.66017 1.15000
N 	N 	0.67720 0.81050 0.75090 -0.25500
N 	N 	0.72120 0.87150 0.84340 -0.09400
N 	N 	0.68120 0.75820 0.84330 -0.08500
N 	N 	0.54870 0.81430 0.61520 -0.25400
N 	N 	0.44550 0.88490 0.55440 -0.09400
N 	N 	0.42830 0.77410 0.58330 -0.07700
N 	N 	0.94970 0.15790 0.82470 -0.11500
N 	N 	0.90030 0.05650 0.81690 -0.08500
N 	N 	0.95470 0.06810 0.91210 -0.24400
O 	O 	0.63840 0.06050 0.67050 -0.34300
O 	O 	0.72490 0.95460 0.63076 -0.39800
O 	O 	0.63580 0.55790 0.67276 -0.33200
O 	O 	0.72249 0.66430 0.63094 -0.41300
O 	O 	0.90770 0.43020 0.53460 -0.43000
O 	O 	0.92610 0.21220 0.54431 -0.28600
C 	C 	0.69530 0.06200 0.64490 0.31600
C 	C 	0.72940 0.19030 0.62950 -0.10900
C 	C 	0.69720 0.30950 0.64510 0.03800
H 	H 	0.65530 0.30830 0.66560 0.04000
C 	C 	0.72750 0.42890 0.63012 -0.11400
C 	C 	0.69310 0.55660 0.64640 0.30900
C 	C 	0.78950 0.43010 0.59920 0.04300
H 	H 	0.80940 0.51060 0.58860 0.03900
C 	C 	0.82220 0.31220 0.58390 -0.11700
C 	C 	0.79200 0.19290 0.59960 0.04200
H 	H 	0.81410 0.11370 0.58990 0.03800
C 	C 	0.89110 0.31630 0.55140 0.35200
C 	C 	0.71750 0.89970 0.78740 0.09800
H 	H 	0.74050 0.97450 0.77390 0.00900
C 	C 	0.65620 0.72380 0.78870 0.09400
H 	H 	0.62730 0.64800 0.77790 0.00300
C 	C 	0.66930 0.69620 0.89840 -0.09500
H 	H 	0.71870 0.68340 0.92320 0.07100
H 	H 	0.64570 0.60980 0.89030 0.07200
C 	C 	0.61750 0.78170 0.93090 0.00800
C 	C 	0.54030 0.79000 0.91360 0.01300
H 	H 	0.51740 0.73640 0.88280 0.04100
C 	C 	0.49510 0.87420 0.93980 -0.16200
H 	H 	0.44250 0.87740 0.92590 0.10500
C 	C 	0.52430 0.95410 0.98590 0.19600
C 	C 	0.60250 0.94400 0.00310 -0.19500
H 	H 	0.62540 0.99660 0.03420 0.10800
C 	C 	0.64870 0.85930 0.97660 0.02500
H 	H 	0.70140 0.85550 0.99010 0.03400
C 	C 	0.51760 0.90440 0.57460 0.10100
H 	H 	0.54580 0.97450 0.56230 0.00500
C 	C 	0.48920 0.73440 0.61830 0.09200
H 	H 	0.49100 0.65980 0.64230 0.00300
C 	C 	0.34980 0.71950 0.57360 -0.15700
H 	H 	0.35100 0.62970 0.58900 0.08900
H 	H 	0.33150 0.71530 0.53160 0.09100
C 	C 	0.23470 0.86740 0.56970 -0.11700
H 	H 	0.22940 0.86330 0.52880 0.08100
C 	C 	0.18300 0.93960 0.59550 -0.01600
H 	H 	0.14250 0.98190 0.57180 0.04300
C 	C 	0.18950 0.95120 0.65670 0.01700
C 	C 	0.25070 0.88750 0.68870 -0.01500
H 	H 	0.25770 0.89360 0.72970 0.04500
C 	C 	0.30210 0.81490 0.66240 -0.11300
H 	H 	0.34340 0.77410 0.68590 0.08300
C 	C 	0.29430 0.80100 0.60280 0.11200
C 	C 	0.13370 0.02940 0.68490 -0.02300
C 	C 	0.05720 0.05600 0.65390 -0.18000
H 	H 	0.04360 0.03080 0.61470 0.08200
C 	C 	0.00420 0.12100 0.68350 0.00500
H 	H 	0.95450 0.13810 0.66430 0.06900
C 	C 	0.02590 0.16210 0.74350 -0.01100
C 	C 	0.09720 0.14000 0.76780 0.02000
H 	H 	0.11360 0.16890 0.80620 0.02400
C 	C 	0.14930 0.07400 0.73770 -0.00900
H 	H 	0.19920 0.06150 0.75740 0.02800
C 	C 	0.96750 0.23590 0.77410 0.06900
C 	C 	0.98170 0.16230 0.88100 0.19500
H 	H 	0.01850 0.22430 0.89660 -0.07700
C 	C 	0.90390 0.00680 0.87070 0.07000
H 	H 	0.87370 0.93550 0.87930 0.01400
C 	C 	0.09600 0.12900 0.66330 0.14400
C 	C 	0.03940 0.19300 0.69030 -0.12100
C 	C 	0.07960 0.06400 0.77680 -0.07200
C 	C 	0.13230 0.00100 0.74990 -0.06900
H 	H 	0.10570 0.16190 0.62740 -0.02500
H 	H 	0.01040 0.26000 0.66970 0.05200
H 	H 	0.07660 0.04680 0.81630 0.04500
H 	H 	0.16710 0.94150 0.77050 0.06600
Co	Co	0.34066 0.31017 0.83983 1.14900
N 	N 	0.32280 0.31050 0.74910 -0.25500
N 	N 	0.27880 0.37150 0.65660 -0.09800
N 	N 	0.31880 0.25820 0.65670 -0.07900
N 	N 	0.45130 0.31430 0.88480 -0.25500
N 	N 	0.55450 0.38490 0.94560 -0.09500
N 	N 	0.57170 0.27410 0.91670 -0.07500
N 	N 	0.05030 0.65790 0.67530 -0.08300
N 	N 	0.09970 0.55650 0.68310 -0.09400
N 	N 	0.04530 0.56810 0.58790 -0.23500
O 	O 	0.36160 0.56050 0.82950 -0.34000
O 	O 	0.27510 0.45460 0.86924 -0.41500
O 	O 	0.36420 0.05790 0.82724 -0.33600
O 	O 	0.27751 0.16430 0.86906 -0.41500
O 	O 	0.09230 0.93020 0.96540 -0.44400
O 	O 	0.07390 0.71220 0.95569 -0.31200
C 	C 	0.30470 0.56200 0.85510 0.33600
C 	C 	0.27060 0.69030 0.87050 -0.11900
C 	C 	0.30280 0.80950 0.85490 0.04400
H 	H 	0.34470 0.80830 0.83440 0.04000
C 	C 	0.27250 0.92890 0.86988 -0.11400
C 	C 	0.30690 0.05660 0.85360 0.30100
C 	C 	0.21050 0.93010 0.90080 0.08200
H 	H 	0.19060 0.01060 0.91140 0.01200
C 	C 	0.17780 0.81220 0.91610 -0.13700
C 	C 	0.20800 0.69290 0.90040 0.05800
H 	H 	0.18590 0.61370 0.91010 0.03300
C 	C 	0.10890 0.81630 0.94860 0.36200
C 	C 	0.28250 0.39970 0.71260 0.09500
H 	H 	0.25950 0.47450 0.72610 0.00400
C 	C 	0.34380 0.22380 0.71130 0.08800
H 	H 	0.37270 0.14800 0.72210 0.00200
C 	C 	0.33070 0.19620 0.60160 -0.15000
H 	H 	0.28130 0.18340 0.57680 0.08000
H 	H 	0.35430 0.10980 0.60970 0.08200
C 	C 	0.38250 0.28170 0.56910 0.11200
C 	C 	0.45970 0.29000 0.58640 -0.12100
H 	H 	0.48260 0.23640 0.61720 0.08400
C 	C 	0.50490 0.37420 0.56020 -0.00700
H 	H 	0.55750 0.37740 0.57410 0.04200
C 	C 	0.47570 0.45410 0.51410 0.00000
C 	C 	0.39750 0.44400 0.49690 -0.01600
H 	H 	0.37460 0.49660 0.46580 0.04100
C 	C 	0.35130 0.35930 0.52340 -0.12400
H 	H 	0.29860 0.35550 0.50990 0.07800
C 	C 	0.48240 0.40440 0.92540 0.10100
H 	H 	0.45420 0.47450 0.93770 0.00300
C 	C 	0.51080 0.23440 0.88170 0.09000
H 	H 	0.50900 0.15980 0.85770 0.00100
C 	C 	0.65020 0.21950 0.92640 -0.17800
H 	H 	0.64900 0.12970 0.91100 0.09300
H 	H 	0.66850 0.21530 0.96840 0.09800
C 	C 	0.76530 0.36740 0.93030 -0.16400
H 	H 	0.77060 0.36330 0.97120 0.10000
C 	C 	0.81700 0.43960 0.90450 0.04200
H 	H 	0.85750 0.48190 0.92820 0.02500
C 	C 	0.81050 0.45120 0.84330 -0.06900
C 	C 	0.74930 0.38750 0.81130 0.04700
H 	H 	0.74230 0.39360 0.77030 0.01900
C 	C 	0.69790 0.31490 0.83760 -0.16400
H 	H 	0.65660 0.27410 0.81410 0.09800
C 	C 	0.70570 0.30100 0.89720 0.14900
C 	C 	0.86630 0.52940 0.81510 0.08700
C 	C 	0.94280 0.55600 0.84610 0.07700
H 	H 	0.95640 0.53080 0.88530 0.02300
C 	C 	0.99580 0.62100 0.81650 -0.06400
H 	H 	0.04550 0.63810 0.83570 0.03400
C 	C 	0.97410 0.66210 0.75650 0.05500
C 	C 	0.90280 0.64000 0.73220 -0.00700
H 	H 	0.88640 0.66890 0.69380 0.04600
C 	C 	0.85070 0.57400 0.76230 -0.05100
H 	H 	0.80080 0.56150 0.74260 0.04700
C 	C 	0.03250 0.73590 0.72590 -0.01200
C 	C 	0.01830 0.66230 0.61900 0.00700
H 	H 	0.98150 0.72430 0.60340 0.05700
C 	C 	0.09610 0.50680 0.62930 0.08900
H 	H 	0.12630 0.43550 0.62070 -0.00900
C 	C 	0.90400 0.62900 0.83670 -0.19800
C 	C 	0.96060 0.69300 0.80970 0.03800
C 	C 	0.92040 0.56400 0.72320 -0.06500
C 	C 	0.86770 0.50100 0.75010 -0.03400
H 	H 	0.89430 0.66190 0.87260 0.10000
H 	H 	0.98960 0.76000 0.83030 0.04300
H 	H 	0.92340 0.54680 0.68370 0.06800
H 	H 	0.83290 0.44150 0.72950 0.04400
Co	Co	0.34066 0.18983 0.33983 1.14700
N 	N 	0.32280 0.18950 0.24910 -0.25600
N 	N 	0.27880 0.12850 0.15660 -0.10100
N 	N 	0.31880 0.24180 0.15670 -0.06800
N 	N 	0.45130 0.18570 0.38480 -0.25700
N 	N 	0.55450 0.11510 0.44560 -0.10100
N 	N 	0.57170 0.22590 0.41670 -0.07400
N 	N 	0.05030 0.84210 0.17530 -0.08200
N 	N 	0.09970 0.94350 0.18310 -0.09600
N 	N 	0.04530 0.93190 0.08790 -0.23700
O 	O 	0.36160 0.93950 0.32950 -0.33900
O 	O 	0.27510 0.04540 0.36924 -0.43300
O 	O 	0.36420 0.44210 0.32724 -0.33300
O 	O 	0.27751 0.33570 0.36906 -0.41800
O 	O 	0.09230 0.56980 0.46540 -0.45900
O 	O 	0.07390 0.78780 0.45569 -0.31600
C 	C 	0.30470 0.93800 0.35510 0.35600
C 	C 	0.27060 0.80970 0.37050 -0.12400
C 	C 	0.30280 0.69050 0.35490 0.05000
H 	H 	0.34470 0.69170 0.33440 0.03600
C 	C 	0.27250 0.57110 0.36988 -0.12300
C 	C 	0.30690 0.44340 0.35360 0.31300
C 	C 	0.21050 0.56990 0.40080 0.05300
H 	H 	0.19060 0.48940 0.41140 0.03100
C 	C 	0.17780 0.68780 0.41610 -0.13200
C 	C 	0.20800 0.80710 0.40040 0.05700
H 	H 	0.18590 0.88630 0.41010 0.03500
C 	C 	0.10890 0.68370 0.44860 0.35900
C 	C 	0.28250 0.10030 0.21260 0.09400
H 	H 	0.25950 0.02550 0.22610 -0.00200
C 	C 	0.34380 0.27620 0.21130 0.08300
H 	H 	0.37270 0.35200 0.22210 0.00600
C 	C 	0.33070 0.30380 0.10160 -0.22200
H 	H 	0.28130 0.31660 0.07680 0.10200
H 	H 	0.35430 0.39020 0.10970 0.10700
C 	C 	0.38250 0.21830 0.06910 0.23700
C 	C 	0.45970 0.21000 0.08640 -0.27500
H 	H 	0.48260 0.26360 0.11720 0.13700
C 	C 	0.50490 0.12580 0.06020 0.16700
H 	H 	0.55750 0.12260 0.07410 -0.02600
C 	C 	0.47570 0.04590 0.01410 -0.21300
C 	C 	0.39750 0.05600 0.99690 0.18500
H 	H 	0.37460 0.00340 0.96580 -0.03500
C 	C 	0.35130 0.14070 0.02340 -0.29500
H 	H 	0.29860 0.14450 0.00990 0.13100
C 	C 	0.48240 0.09560 0.42540 0.09800
H 	H 	0.45420 0.02550 0.43770 -0.00500
C 	C 	0.51080 0.26560 0.38170 0.08800
H 	H 	0.50900 0.34020 0.35770 0.00400
C 	C 	0.65020 0.28050 0.42640 -0.18700
H 	H 	0.64900 0.37030 0.41100 0.09800
H 	H 	0.66850 0.28470 0.46840 0.09800
C 	C 	0.76530 0.13260 0.43030 -0.18100
H 	H 	0.77060 0.13670 0.47120 0.10100
C 	C 	0.81700 0.06040 0.40450 0.05800
H 	H 	0.85750 0.01810 0.42820 0.01200
C 	C 	0.81050 0.04880 0.34330 -0.09600
C 	C 	0.74930 0.11250 0.31130 0.06400
H 	H 	0.74230 0.10640 0.27030 0.01000
C 	C 	0.69790 0.18510 0.33760 -0.18100
H 	H 	0.65660 0.22590 0.31410 0.10300
C 	C 	0.70570 0.19900 0.39720 0.16000
C 	C 	0.86630 0.97060 0.31510 0.10700
C 	C 	0.94280 0.94400 0.34610 0.06600
H 	H 	0.95640 0.96920 0.38530 0.03000
C 	C 	0.99580 0.87900 0.31650 -0.05600
H 	H 	0.04550 0.86190 0.33570 0.03200
C 	C 	0.97410 0.83790 0.25650 0.06600
C 	C 	0.90280 0.86000 0.23220 -0.05800
H 	H 	0.88640 0.83110 0.19380 0.06000
C 	C 	0.85070 0.92600 0.26230 -0.05800
H 	H 	0.80080 0.93850 0.24260 0.05400
C 	C 	0.03250 0.76410 0.22590 -0.02000
C 	C 	0.01830 0.83770 0.11900 0.00400
H 	H 	0.98150 0.77570 0.10340 0.05700
C 	C 	0.09610 0.99320 0.12930 0.12200
H 	H 	0.12630 0.06450 0.12070 -0.03100
C 	C 	0.90400 0.87100 0.33670 -0.19500
C 	C 	0.96060 0.80700 0.30970 0.03200
C 	C 	0.92040 0.93600 0.22320 -0.01900
C 	C 	0.86770 0.99900 0.25010 -0.02300
H 	H 	0.89430 0.83810 0.37260 0.10000
H 	H 	0.98960 0.74000 0.33030 0.04300
H 	H 	0.92340 0.95320 0.18370 0.05500
H 	H 	0.83290 0.05850 0.22950 0.03200
Co	Co	0.65934 0.68983 0.16017 1.14900
N 	N 	0.67720 0.68950 0.25090 -0.25400
N 	N 	0.72120 0.62850 0.34340 -0.09700
N 	N 	0.68120 0.74180 0.34330 -0.07500
N 	N 	0.54870 0.68570 0.11520 -0.25600
N 	N 	0.44550 0.61510 0.05440 -0.10000
N 	N 	0.42830 0.72590 0.08330 -0.07700
N 	N 	0.94970 0.34210 0.32470 -0.11500
N 	N 	0.90030 0.44350 0.31690 -0.08600
N 	N 	0.95470 0.43190 0.41210 -0.24900
O 	O 	0.63840 0.43950 0.17050 -0.34200
O 	O 	0.72490 0.54540 0.13076 -0.41300
O 	O 	0.63580 0.94210 0.17276 -0.32900
O 	O 	0.72249 0.83570 0.13094 -0.41600
O 	O 	0.90770 0.06980 0.03460 -0.43700
O 	O 	0.92610 0.28780 0.04431 -0.28600
C 	C 	0.69530 0.43800 0.14490 0.33300
C 	C 	0.72940 0.30970 0.12950 -0.11300
C 	C 	0.69720 0.19050 0.14510 0.04300
H 	H 	0.65530 0.19170 0.16560 0.03600
C 	C 	0.72750 0.07110 0.13012 -0.12300
C 	C 	0.69310 0.94340 0.14640 0.31900
C 	C 	0.78950 0.06990 0.09920 0.01800
H 	H 	0.80940 0.98940 0.08860 0.05500
C 	C 	0.82220 0.18780 0.08390 -0.11100
C 	C 	0.79200 0.30710 0.09960 0.04100
H 	H 	0.81410 0.38630 0.08990 0.04000
C 	C 	0.89110 0.18370 0.05140 0.34800
C 	C 	0.71750 0.60030 0.28740 0.09700
H 	H 	0.74050 0.52550 0.27390 0.00400
C 	C 	0.65620 0.77620 0.28870 0.08900
H 	H 	0.62730 0.85200 0.27790 0.00700
C 	C 	0.66930 0.80380 0.39840 -0.16400
H 	H 	0.71870 0.81660 0.42320 0.09100
H 	H 	0.64570 0.89020 0.39030 0.09500
C 	C 	0.61750 0.71830 0.43090 0.12900
C 	C 	0.54030 0.71000 0.41360 -0.13600
H 	H 	0.51740 0.76360 0.38280 0.09200
C 	C 	0.49510 0.62580 0.43980 0.00900
H 	H 	0.44250 0.62260 0.42590 0.03800
C 	C 	0.52430 0.54590 0.48590 -0.01400
C 	C 	0.60250 0.55600 0.50310 -0.00200
H 	H 	0.62540 0.50340 0.53420 0.03500
C 	C 	0.64870 0.64070 0.47660 -0.13900
H 	H 	0.70140 0.64450 0.49010 0.08500
C 	C 	0.51760 0.59560 0.07460 0.09800
H 	H 	0.54580 0.52550 0.06230 -0.00200
C 	C 	0.48920 0.76560 0.11830 0.08900
H 	H 	0.49100 0.84020 0.14230 0.00600
C 	C 	0.34980 0.78050 0.07360 -0.16800
H 	H 	0.35100 0.87030 0.08900 0.09500
H 	H 	0.33150 0.78470 0.03160 0.09200
C 	C 	0.23470 0.63260 0.06970 -0.13800
H 	H 	0.22940 0.63670 0.02880 0.08300
C 	C 	0.18300 0.56040 0.09550 0.00500
H 	H 	0.14250 0.51810 0.07180 0.02700
C 	C 	0.18950 0.54880 0.15670 -0.01800
C 	C 	0.25070 0.61250 0.18870 0.00800
H 	H 	0.25770 0.60640 0.22970 0.03400
C 	C 	0.30210 0.68510 0.16240 -0.13400
H 	H 	0.34340 0.72590 0.18590 0.09000
C 	C 	0.29430 0.69900 0.10280 0.12600
C 	C 	0.13370 0.47060 0.18490 0.00100
C 	C 	0.05720 0.44400 0.15390 -0.20100
H 	H 	0.04360 0.46920 0.11470 0.09400
C 	C 	0.00420 0.37900 0.18350 0.02000
H 	H 	0.95450 0.36190 0.16430 0.06500
C 	C 	0.02590 0.33790 0.24350 -0.00300
C 	C 	0.09720 0.36000 0.26780 -0.04500
H 	H 	0.11360 0.33110 0.30620 0.04200
C 	C 	0.14930 0.42600 0.23770 -0.01700
H 	H 	0.19920 0.43850 0.25740 0.03600
C 	C 	0.96750 0.26410 0.27410 0.06400
C 	C 	0.98170 0.33770 0.38100 0.20000
H 	H 	0.01850 0.27570 0.39660 -0.08300
C 	C 	0.90390 0.49320 0.37070 0.09400
H 	H 	0.87370 0.56450 0.37930 -0.00200
C 	C 	0.09600 0.37100 0.16330 0.15600
C 	C 	0.03940 0.30700 0.19030 -0.13200
C 	C 	0.07960 0.43600 0.27680 -0.01000
C 	C 	0.13230 0.49900 0.24990 -0.05700
H 	H 	0.10570 0.33810 0.12740 -0.02700
H 	H 	0.01040 0.24000 0.16970 0.05100
H 	H 	0.07660 0.45320 0.31630 0.02700
H 	H 	0.16710 0.55850 0.27050 0.05200
Co	Co	0.00000 0.50000 0.50000 1.10200
Co	Co	-0.00000 0.00000 -0.00000 1.08900
