data_crystal

_cell_length_a 11.94640
_cell_length_b 11.94640
_cell_length_c 11.94640
_cell_angle_alpha 113.14020
_cell_angle_beta  113.14020
_cell_angle_gamma 113.14020

_symmetry_space_group_name_	'P 1'
_symmetry_space_group_name_H-M	'P 1'

loop_
_symmetry_equiv_pos_as_xyz
  x,y,z

loop_
_atom_site_label
_atom_site_type_symbol
_atom_site_fract_x
_atom_site_fract_y
_atom_site_fract_z
_atom_site_charge
P 	P 	0.22580 0.13470 0.38290 0.52400
C 	C 	0.26790 0.00180 0.31350 -0.32000
C 	C 	0.31670 0.83080 0.34240 -0.05300
C 	C 	0.53020 0.14410 0.57310 -0.11100
N 	N 	0.37920 0.99920 0.41810 0.03100
O 	O 	0.36510 0.30340 0.45530 -0.72200
O 	O 	0.19510 0.12850 0.49900 -0.29700
O 	O 	0.08680 0.07050 0.21320 -0.81800
H 	H 	0.31192 0.02562 0.25006 0.05900
H 	H 	0.23917 0.77226 0.36697 0.03600
H 	H 	0.55651 0.23910 0.56075 0.06200
H 	H 	0.75121 0.24580 0.79144 0.06200
H 	H 	0.50003 0.83214 0.34550 0.03600
H 	H 	0.84924 0.12661 0.77958 0.01900
H 	H 	0.87150 0.40997 0.76913 0.17700
P 	P 	0.38290 0.22580 0.13470 0.54300
C 	C 	0.31350 0.26790 0.00180 -0.32500
C 	C 	0.34240 0.31670 0.83080 -0.05500
C 	C 	0.57310 0.53020 0.14410 -0.10700
N 	N 	0.41810 0.37920 0.99920 0.02900
O 	O 	0.45530 0.36510 0.30340 -0.72500
O 	O 	0.49900 0.19510 0.12850 -0.39000
O 	O 	0.21320 0.08680 0.07050 -0.82100
H 	H 	0.25006 0.31192 0.02562 0.06000
H 	H 	0.36697 0.23917 0.77226 0.05800
H 	H 	0.56075 0.55651 0.23910 0.06300
H 	H 	0.79144 0.75121 0.24580 0.07500
H 	H 	0.34550 0.50003 0.83214 0.03100
H 	H 	0.77958 0.84924 0.12661 0.02300
P 	P 	0.13470 0.38290 0.22580 0.54300
C 	C 	0.00180 0.31350 0.26790 -0.32500
C 	C 	0.83080 0.34240 0.31670 -0.05300
C 	C 	0.14410 0.57310 0.53020 -0.11000
N 	N 	0.99920 0.41810 0.37920 0.03000
O 	O 	0.30340 0.45530 0.36510 -0.72500
O 	O 	0.12850 0.49900 0.19510 -0.39000
O 	O 	0.07050 0.21320 0.08680 -0.82100
H 	H 	0.02562 0.25006 0.31192 0.06100
H 	H 	0.77226 0.36697 0.23917 0.03500
H 	H 	0.23910 0.56075 0.55651 0.06100
H 	H 	0.24580 0.79144 0.75121 0.06200
H 	H 	0.83214 0.34550 0.50003 0.03200
H 	H 	0.12661 0.77958 0.84924 0.02000
H 	H 	0.40997 0.76913 0.87150 0.17700
P 	P 	0.77420 0.86530 0.61710 0.51100
C 	C 	0.73210 0.99820 0.68650 0.03400
C 	C 	0.68330 0.16920 0.65760 -0.01500
C 	C 	0.46980 0.85590 0.42690 0.07500
N 	N 	0.62080 0.00080 0.58190 -0.19000
O 	O 	0.63490 0.69660 0.54470 -0.72300
O 	O 	0.80490 0.87150 0.50100 -0.18200
O 	O 	0.91320 0.92950 0.78680 -0.60000
H 	H 	0.68808 0.97438 0.74994 0.08000
H 	H 	0.76083 0.22774 0.63303 0.02800
H 	H 	0.44349 0.76090 0.43925 0.02800
H 	H 	0.24879 0.75420 0.20856 0.02300
H 	H 	0.49997 0.16786 0.65450 0.05700
H 	H 	0.15076 0.87339 0.22042 0.11300
H 	H 	0.12850 0.59003 0.23087 0.14000
P 	P 	0.61710 0.77420 0.86530 0.53500
C 	C 	0.68650 0.73210 0.99820 0.02600
C 	C 	0.65760 0.68330 0.16920 -0.01700
C 	C 	0.42690 0.46980 0.85590 0.07700
N 	N 	0.58190 0.62080 0.00080 -0.19000
O 	O 	0.54470 0.63490 0.69660 -0.72700
O 	O 	0.50100 0.80490 0.87150 -0.29900
O 	O 	0.78680 0.91320 0.92950 -0.60300
H 	H 	0.74994 0.68808 0.97438 0.08200
H 	H 	0.63303 0.76083 0.22774 0.05600
H 	H 	0.43925 0.44349 0.76090 0.02900
H 	H 	0.20856 0.24879 0.75420 0.03400
H 	H 	0.65450 0.49997 0.16786 0.05300
H 	H 	0.22042 0.15076 0.87339 0.11500
P 	P 	0.86530 0.61710 0.77420 0.53400
C 	C 	0.99820 0.68650 0.73210 0.02700
C 	C 	0.16920 0.65760 0.68330 -0.01500
C 	C 	0.85590 0.42690 0.46980 0.07500
N 	N 	0.00080 0.58190 0.62080 -0.19000
O 	O 	0.69660 0.54470 0.63490 -0.72700
O 	O 	0.87150 0.50100 0.80490 -0.30000
O 	O 	0.92950 0.78680 0.91320 -0.60300
H 	H 	0.97438 0.74994 0.68808 0.08200
H 	H 	0.22774 0.63303 0.76083 0.02700
H 	H 	0.76090 0.43925 0.44349 0.02800
H 	H 	0.75420 0.20856 0.24879 0.02400
H 	H 	0.16786 0.65450 0.49997 0.05400
H 	H 	0.87339 0.22042 0.15076 0.11300
H 	H 	0.59003 0.23087 0.12850 0.14000
Zr	Zr	-0.00000 0.00000 -0.00000 3.19600
Zr	Zr	0.50000 0.50000 0.50000 3.24400
