data_crystal

_cell_length_a 22.86420
_cell_length_b 22.86420
_cell_length_c 22.86420
_cell_angle_alpha 109.47100
_cell_angle_beta  109.47100
_cell_angle_gamma 109.47100

_symmetry_space_group_name_	'P 1'
_symmetry_space_group_name_H-M	'P 1'

loop_
_symmetry_equiv_pos_as_xyz
  x,y,z

loop_
_atom_site_label
_atom_site_type_symbol
_atom_site_fract_x
_atom_site_fract_y
_atom_site_fract_z
_atom_site_charge
U 	U 	0.33337 0.91550 0.72561 0.00300
U 	U 	0.18988 0.60775 0.27438 -0.00400
U 	U 	0.81012 0.08451 0.41788 -0.00400
U 	U 	0.66663 0.39224 0.58213 0.00000
U 	U 	0.41787 0.81011 0.08450 -0.01300
U 	U 	0.58213 0.66663 0.39225 -0.00200
U 	U 	0.72561 0.33337 0.91549 0.01200
U 	U 	0.27439 0.18989 0.60776 -0.00400
U 	U 	0.60776 0.27439 0.18989 -0.01100
U 	U 	0.91550 0.72562 0.33337 0.00100
U 	U 	0.39224 0.58212 0.66663 -0.00100
U 	U 	0.08450 0.41787 0.81011 0.00400
U 	U 	0.66663 0.08450 0.27439 -0.00600
U 	U 	0.81012 0.39225 0.72562 0.00100
U 	U 	0.18988 0.91549 0.58212 0.00000
U 	U 	0.33337 0.60776 0.41787 -0.00300
U 	U 	0.58213 0.18989 0.91550 0.01000
U 	U 	0.41787 0.33337 0.60775 -0.00200
U 	U 	0.27439 0.66663 0.08451 -0.01500
U 	U 	0.72561 0.81011 0.39224 0.00000
U 	U 	0.39224 0.72561 0.81011 0.00700
U 	U 	0.08450 0.27438 0.66663 -0.00400
U 	U 	0.60776 0.41788 0.33337 -0.00300
U 	U 	0.91550 0.58213 0.18989 -0.00600
U 	U 	0.65109 0.13178 0.78287 0.01400
U 	U 	0.34891 0.86822 0.21713 0.00500
U 	U 	0.65109 0.86823 0.51931 0.01300
U 	U 	0.34891 0.13177 0.48069 0.00500
U 	U 	0.51931 0.65109 0.86822 0.01600
U 	U 	0.48069 0.34891 0.13178 0.00100
U 	U 	0.78286 0.65108 0.13177 0.00500
U 	U 	0.21714 0.34892 0.86823 0.01400
U 	U 	0.86822 0.21713 0.34891 0.00700
U 	U 	0.13178 0.78287 0.65109 0.01100
U 	U 	0.13178 0.48069 0.34892 0.00500
U 	U 	0.86822 0.51931 0.65108 0.01300
U 	U 	0.56706 0.93061 0.63645 -0.01500
U 	U 	0.29416 0.93061 0.36355 -0.02100
U 	U 	0.70584 0.06939 0.63645 -0.04000
U 	U 	0.43294 0.06939 0.36355 -0.04600
U 	U 	0.63645 0.70584 0.06939 -0.07800
U 	U 	0.36355 0.43294 0.06939 -0.08200
U 	U 	0.63645 0.56706 0.93061 0.02000
U 	U 	0.36355 0.29416 0.93061 0.01900
U 	U 	0.93061 0.36355 0.29416 -0.02400
U 	U 	0.93061 0.63645 0.56706 -0.01700
U 	U 	0.06939 0.36355 0.43294 -0.04300
U 	U 	0.06939 0.63645 0.70584 -0.03600
Mn	Mn	0.63424 0.00000 -0.00000 1.15200
Mn	Mn	-0.00000 0.63424 -0.00000 1.14400
Mn	Mn	-0.00000 1.00000 0.63424 1.20100
Mn	Mn	0.36576 0.36576 0.36576 1.19100
Mn	Mn	0.36576 0.00000 -0.00000 1.14000
Mn	Mn	-0.00000 0.36576 -0.00000 1.15300
Mn	Mn	1.00000 1.00000 0.36576 1.21500
Mn	Mn	0.63424 0.63424 0.63424 1.20200
Mn	Mn	0.50000 0.00000 -0.00000 1.25900
Mn	Mn	0.00000 0.50000 -0.00000 1.26100
Mn	Mn	1.00000 0.00000 0.50000 1.30900
Mn	Mn	0.50000 0.50000 0.50000 1.31200
Mn	Mn	0.50000 0.14180 0.64180 1.20800
Mn	Mn	0.50000 0.85820 0.35820 1.21200
Mn	Mn	0.35820 0.50000 0.85820 1.22200
Mn	Mn	0.64180 0.50000 0.14180 1.19800
Mn	Mn	0.85820 0.35820 0.50000 1.21200
Mn	Mn	0.14180 0.64180 0.50000 1.20700
P 	P 	0.51912 0.00812 0.77572 0.41800
P 	P 	0.23240 0.74340 0.22428 0.45100
P 	P 	0.76760 0.99188 0.51100 0.49500
P 	P 	0.48088 0.25660 0.48900 0.45000
P 	P 	0.51100 0.76760 0.99188 0.59600
P 	P 	0.48900 0.48088 0.25660 0.44900
P 	P 	0.77572 0.51912 0.00812 0.30700
P 	P 	0.22428 0.23240 0.74340 0.45300
P 	P 	0.74340 0.22428 0.23240 0.44900
P 	P 	0.00812 0.77572 0.51912 0.41700
P 	P 	0.25660 0.48900 0.48088 0.45000
P 	P 	0.99188 0.51100 0.76760 0.48500
P 	P 	0.48088 0.99188 0.22428 0.49300
P 	P 	0.76760 0.25660 0.77572 0.45300
P 	P 	0.23240 0.00812 0.48900 0.41500
P 	P 	0.51912 0.74340 0.51100 0.45300
P 	P 	0.48900 0.23240 0.00812 0.30100
P 	P 	0.51100 0.51912 0.74340 0.45400
P 	P 	0.22428 0.48088 0.99188 0.60100
P 	P 	0.77572 0.76760 0.25660 0.45100
P 	P 	0.25660 0.77572 0.76760 0.45400
P 	P 	0.99188 0.22428 0.48088 0.48200
P 	P 	0.74340 0.51100 0.51912 0.45300
P 	P 	0.00812 0.48900 0.23240 0.41400
H 	H 	0.49680 0.89700 0.76320 0.19400
H 	H 	0.57140 0.95670 0.83150 0.15900
H 	H 	0.13380 0.73360 0.23680 0.19200
H 	H 	0.12520 0.73990 0.16850 0.13400
H 	H 	0.86620 0.10300 0.59980 0.20900
H 	H 	0.87480 0.04330 0.61470 0.15300
H 	H 	0.50320 0.26640 0.40020 0.19200
H 	H 	0.42860 0.26010 0.38530 0.13800
H 	H 	0.59980 0.86620 0.10300 0.22100
H 	H 	0.61470 0.87480 0.04330 0.15300
H 	H 	0.40020 0.50320 0.26640 0.18900
H 	H 	0.38530 0.42860 0.26010 0.13500
H 	H 	0.76320 0.49680 0.89700 0.17800
H 	H 	0.83150 0.57140 0.95670 0.15000
H 	H 	0.23680 0.13380 0.73360 0.19800
H 	H 	0.16850 0.12520 0.73990 0.14700
H 	H 	0.73360 0.23680 0.13380 0.17900
H 	H 	0.73990 0.16850 0.12520 0.12900
H 	H 	0.89700 0.76320 0.49680 0.19300
H 	H 	0.95670 0.83150 0.57140 0.15100
H 	H 	0.26640 0.40020 0.50320 0.19300
H 	H 	0.26010 0.38530 0.42860 0.13800
H 	H 	0.10300 0.59980 0.86620 0.21900
H 	H 	0.04330 0.61470 0.87480 0.16400
H 	H 	0.50320 0.10300 0.23680 0.19900
H 	H 	0.42860 0.04330 0.16850 0.13600
H 	H 	0.86620 0.26640 0.76320 0.20000
H 	H 	0.87480 0.26010 0.83150 0.15900
H 	H 	0.13380 0.89700 0.40020 0.18500
H 	H 	0.12520 0.95670 0.38530 0.13600
H 	H 	0.49680 0.73360 0.59980 0.20100
H 	H 	0.57140 0.73990 0.61470 0.15200
H 	H 	0.40020 0.13380 0.89700 0.17200
H 	H 	0.38530 0.12520 0.95670 0.14200
H 	H 	0.59980 0.49680 0.73360 0.20400
H 	H 	0.61470 0.57140 0.73990 0.15500
H 	H 	0.23680 0.50320 0.10300 0.21500
H 	H 	0.16850 0.42860 0.04330 0.14400
H 	H 	0.76320 0.86620 0.26640 0.19600
H 	H 	0.83150 0.87480 0.26010 0.14500
H 	H 	0.26640 0.76320 0.86620 0.21400
H 	H 	0.26010 0.83150 0.87480 0.16400
H 	H 	0.10300 0.23680 0.50320 0.19800
H 	H 	0.04330 0.16850 0.42860 0.13800
H 	H 	0.73360 0.59980 0.49680 0.20000
H 	H 	0.73990 0.61470 0.57140 0.15200
H 	H 	0.89700 0.40020 0.13380 0.17300
H 	H 	0.95670 0.38530 0.12520 0.12900
C 	C 	0.52200 0.94433 0.80469 -0.46500
C 	C 	0.48796 0.94337 0.85151 0.48200
C 	C 	0.13964 0.71731 0.19531 -0.49600
C 	C 	0.09186 0.63645 0.14849 0.49700
C 	C 	0.86036 0.05567 0.57767 -0.53200
C 	C 	0.90814 0.05663 0.54459 0.50400
C 	C 	0.47800 0.28269 0.42233 -0.49200
C 	C 	0.51204 0.36355 0.45541 0.49300
C 	C 	0.57767 0.86036 0.05567 -0.60700
C 	C 	0.54459 0.90814 0.05663 0.51400
C 	C 	0.42233 0.47800 0.28269 -0.49100
C 	C 	0.45541 0.51204 0.36355 0.49200
C 	C 	0.80469 0.52200 0.94433 -0.38400
C 	C 	0.85151 0.48796 0.94337 0.47100
C 	C 	0.19531 0.13964 0.71731 -0.50000
C 	C 	0.14849 0.09186 0.63645 0.49900
C 	C 	0.71731 0.19531 0.13964 -0.48900
C 	C 	0.63645 0.14849 0.09186 0.48900
C 	C 	0.94433 0.80469 0.52200 -0.47000
C 	C 	0.94337 0.85151 0.48796 0.49000
C 	C 	0.28269 0.42233 0.47800 -0.49300
C 	C 	0.36355 0.45541 0.51204 0.49400
C 	C 	0.05567 0.57767 0.86036 -0.52600
C 	C 	0.05663 0.54459 0.90814 0.50200
C 	C 	0.47800 0.05567 0.19531 -0.52800
C 	C 	0.51204 0.05663 0.14849 0.50400
C 	C 	0.86036 0.28269 0.80469 -0.49200
C 	C 	0.90814 0.36355 0.85151 0.48700
C 	C 	0.13964 0.94433 0.42233 -0.46500
C 	C 	0.09186 0.94337 0.45541 0.48900
C 	C 	0.52200 0.71731 0.57767 -0.50000
C 	C 	0.48796 0.63645 0.54459 0.49800
C 	C 	0.42233 0.13964 0.94433 -0.37700
C 	C 	0.45541 0.09186 0.94337 0.47000
C 	C 	0.57767 0.52200 0.71731 -0.50200
C 	C 	0.54459 0.48796 0.63645 0.49900
C 	C 	0.19531 0.47800 0.05567 -0.60800
C 	C 	0.14849 0.51204 0.05663 0.51400
C 	C 	0.80469 0.86036 0.28269 -0.49400
C 	C 	0.85151 0.90814 0.36355 0.49400
C 	C 	0.28269 0.80469 0.86036 -0.50000
C 	C 	0.36355 0.85151 0.90814 0.49600
C 	C 	0.05567 0.19531 0.47800 -0.51900
C 	C 	0.05663 0.14849 0.51204 0.50100
C 	C 	0.71731 0.57767 0.52200 -0.50000
C 	C 	0.63645 0.54459 0.48796 0.49800
C 	C 	0.94433 0.42233 0.13964 -0.45900
C 	C 	0.94337 0.45541 0.09186 0.48100
O 	O 	0.44431 0.99580 0.74705 -0.16800
O 	O 	0.54558 0.00043 0.72177 -0.20200
O 	O 	0.26297 0.83883 0.75452 -0.18400
O 	O 	0.42261 0.92368 0.82493 -0.26200
O 	O 	0.52730 0.96416 0.91618 -0.52400
O 	O 	0.24875 0.69726 0.25295 -0.19300
O 	O 	0.27866 0.82381 0.27823 -0.19600
O 	O 	0.08431 0.50845 0.24548 -0.19200
O 	O 	0.09875 0.59768 0.17507 -0.28500
O 	O 	0.04798 0.61112 0.08382 -0.63000
O 	O 	0.75125 0.00420 0.44851 -0.22100
O 	O 	0.72134 0.99957 0.54515 -0.18400
O 	O 	0.91569 0.16117 0.42414 -0.19300
O 	O 	0.90125 0.07632 0.49893 -0.27900
O 	O 	0.95202 0.03584 0.56314 -0.59800
O 	O 	0.55569 0.30274 0.55149 -0.19200
O 	O 	0.45442 0.17619 0.45485 -0.19900
O 	O 	0.73703 0.49155 0.57586 -0.18700
O 	O 	0.57739 0.40232 0.50107 -0.27600
O 	O 	0.47270 0.38888 0.43686 -0.59600
O 	O 	0.44851 0.75125 0.00420 -0.29100
O 	O 	0.54515 0.72134 0.99957 -0.16000
O 	O 	0.42414 0.91569 0.16117 -0.19700
O 	O 	0.49893 0.90125 0.07632 -0.29300
O 	O 	0.56314 0.95202 0.03584 -0.61300
O 	O 	0.55149 0.55569 0.30274 -0.19400
O 	O 	0.45485 0.45442 0.17619 -0.20300
O 	O 	0.57586 0.73703 0.49155 -0.18700
O 	O 	0.50107 0.57739 0.40232 -0.27600
O 	O 	0.43686 0.47270 0.38888 -0.59600
O 	O 	0.74705 0.44431 0.99580 -0.09300
O 	O 	0.72177 0.54558 0.00043 -0.23000
O 	O 	0.75452 0.26297 0.83883 -0.17800
O 	O 	0.82493 0.42261 0.92368 -0.24500
O 	O 	0.91618 0.52730 0.96416 -0.52000
O 	O 	0.25295 0.24875 0.69726 -0.19100
O 	O 	0.27823 0.27866 0.82381 -0.19000
O 	O 	0.24548 0.08431 0.50845 -0.19200
O 	O 	0.17507 0.09875 0.59768 -0.28500
O 	O 	0.08382 0.04798 0.61112 -0.61200
O 	O 	0.69726 0.25295 0.24875 -0.19400
O 	O 	0.82381 0.27823 0.27866 -0.19700
O 	O 	0.50845 0.24548 0.08431 -0.19400
O 	O 	0.59768 0.17507 0.09875 -0.30300
O 	O 	0.61112 0.08382 0.04798 -0.63300
O 	O 	0.99580 0.74705 0.44431 -0.16800
O 	O 	0.00043 0.72177 0.54558 -0.20200
O 	O 	0.83883 0.75452 0.26297 -0.18800
O 	O 	0.92368 0.82493 0.42261 -0.26900
O 	O 	0.96416 0.91618 0.52730 -0.57000
O 	O 	0.30274 0.55149 0.55569 -0.19200
O 	O 	0.17619 0.45485 0.45442 -0.19800
O 	O 	0.49155 0.57586 0.73703 -0.18600
O 	O 	0.40232 0.50107 0.57739 -0.27600
O 	O 	0.38888 0.43686 0.47270 -0.59600
O 	O 	0.00420 0.44851 0.75125 -0.21200
O 	O 	0.99957 0.54515 0.72134 -0.18400
O 	O 	0.16117 0.42414 0.91569 -0.18500
O 	O 	0.07632 0.49893 0.90125 -0.25100
O 	O 	0.03584 0.56314 0.95202 -0.54300
O 	O 	0.55569 0.00420 0.25295 -0.22100
O 	O 	0.45442 0.99957 0.27823 -0.18800
O 	O 	0.73703 0.16117 0.24548 -0.19300
O 	O 	0.57739 0.07632 0.17507 -0.28600
O 	O 	0.47270 0.03584 0.08382 -0.63400
O 	O 	0.75125 0.30274 0.74705 -0.19200
O 	O 	0.72134 0.17619 0.72177 -0.19500
O 	O 	0.91569 0.49155 0.75452 -0.18400
O 	O 	0.90125 0.40232 0.82493 -0.26300
O 	O 	0.95202 0.38888 0.91618 -0.52800
O 	O 	0.24875 0.99580 0.55149 -0.16700
O 	O 	0.27866 0.00043 0.45485 -0.20600
O 	O 	0.08431 0.83883 0.57586 -0.18600
O 	O 	0.09875 0.92368 0.50107 -0.27600
O 	O 	0.04798 0.96416 0.43686 -0.59700
O 	O 	0.44431 0.69726 0.44851 -0.19300
O 	O 	0.54558 0.82381 0.54515 -0.19300
O 	O 	0.26297 0.50845 0.42414 -0.19200
O 	O 	0.42261 0.59768 0.49893 -0.27700
O 	O 	0.52730 0.61112 0.56314 -0.59300
O 	O 	0.55149 0.24875 0.99580 -0.09000
O 	O 	0.45485 0.27866 0.00043 -0.23300
O 	O 	0.57586 0.08431 0.83883 -0.17800
O 	O 	0.50107 0.09875 0.92368 -0.25100
O 	O 	0.43686 0.04798 0.96416 -0.53600
O 	O 	0.44851 0.44431 0.69726 -0.19100
O 	O 	0.54515 0.54558 0.82381 -0.18800
O 	O 	0.42414 0.26297 0.50845 -0.19100
O 	O 	0.49893 0.42261 0.59768 -0.27700
O 	O 	0.56314 0.52730 0.61112 -0.59300
O 	O 	0.25295 0.55569 0.00420 -0.29500
O 	O 	0.27823 0.45442 0.99957 -0.16000
O 	O 	0.24548 0.73703 0.16117 -0.19800
O 	O 	0.17507 0.57739 0.07632 -0.30300
O 	O 	0.08382 0.47270 0.03584 -0.63800
O 	O 	0.74705 0.75125 0.30274 -0.19400
O 	O 	0.72177 0.72134 0.17619 -0.20100
O 	O 	0.75452 0.91569 0.49155 -0.18600
O 	O 	0.82493 0.90125 0.40232 -0.26700
O 	O 	0.91618 0.95202 0.38888 -0.57600
O 	O 	0.30274 0.74705 0.75125 -0.19200
O 	O 	0.17619 0.72177 0.72134 -0.19400
O 	O 	0.49155 0.75452 0.91569 -0.18200
O 	O 	0.40232 0.82493 0.90125 -0.24500
O 	O 	0.38888 0.91618 0.95202 -0.52500
O 	O 	0.00420 0.25295 0.55569 -0.21300
O 	O 	0.99957 0.27823 0.45442 -0.18900
O 	O 	0.16117 0.24548 0.73703 -0.18900
O 	O 	0.07632 0.17507 0.57739 -0.28300
O 	O 	0.03584 0.08382 0.47270 -0.62000
O 	O 	0.69726 0.44851 0.44431 -0.19300
O 	O 	0.82381 0.54515 0.54558 -0.19300
O 	O 	0.50845 0.42414 0.26297 -0.19200
O 	O 	0.59768 0.49893 0.42261 -0.27700
O 	O 	0.61112 0.56314 0.52730 -0.59300
O 	O 	0.99580 0.55149 0.24875 -0.16900
O 	O 	0.00043 0.45485 0.27866 -0.20600
O 	O 	0.83883 0.57586 0.08431 -0.19000
O 	O 	0.92368 0.50107 0.09875 -0.29400
O 	O 	0.96416 0.43686 0.04798 -0.60900
O 	O 	0.58204 0.13680 0.71884 -0.29100
O 	O 	0.65032 0.04877 0.69909 -0.07600
O 	O 	0.41796 0.86320 0.28116 -0.28400
O 	O 	0.34968 0.95123 0.30091 -0.06200
O 	O 	0.58204 0.86320 0.44524 -0.28500
O 	O 	0.65032 0.95123 0.60155 -0.05400
O 	O 	0.41796 0.13680 0.55476 -0.29000
O 	O 	0.34968 0.04877 0.39845 -0.08500
O 	O 	0.44524 0.58204 0.86320 -0.27400
O 	O 	0.60155 0.65032 0.95123 -0.02200
O 	O 	0.55476 0.41796 0.13680 -0.30100
O 	O 	0.39845 0.34968 0.04877 -0.11900
O 	O 	0.71884 0.58204 0.13680 -0.30100
O 	O 	0.69909 0.65032 0.04877 -0.11400
O 	O 	0.28116 0.41796 0.86320 -0.27400
O 	O 	0.30091 0.34968 0.95123 -0.02300
O 	O 	0.86320 0.28116 0.41796 -0.28400
O 	O 	0.95123 0.30091 0.34968 -0.06300
O 	O 	0.13680 0.71884 0.58204 -0.29100
O 	O 	0.04877 0.69909 0.65032 -0.07600
O 	O 	0.13680 0.55476 0.41796 -0.29000
O 	O 	0.04877 0.39845 0.34968 -0.08400
O 	O 	0.86320 0.44524 0.58204 -0.28500
O 	O 	0.95123 0.60155 0.65032 -0.05500
O 	O 	0.21460 0.86748 0.65288 -0.06200
O 	O 	0.31210 0.95370 0.64160 -0.07300
O 	O 	0.21460 0.56172 0.34712 -0.06800
O 	O 	0.31210 0.67050 0.35840 -0.08200
O 	O 	0.78540 0.13252 0.34712 -0.06800
O 	O 	0.68790 0.04630 0.35840 -0.08900
O 	O 	0.78540 0.43828 0.65288 -0.06200
O 	O 	0.68790 0.32950 0.64160 -0.08000
O 	O 	0.34712 0.78540 0.13252 -0.07400
O 	O 	0.35840 0.68790 0.04630 -0.10800
O 	O 	0.65288 0.78540 0.43828 -0.06300
O 	O 	0.64160 0.68790 0.32950 -0.08300
O 	O 	0.65288 0.21460 0.86748 -0.05500
O 	O 	0.64160 0.31210 0.95370 -0.05300
O 	O 	0.34712 0.21460 0.56172 -0.06700
O 	O 	0.35840 0.31210 0.67050 -0.07800
O 	O 	0.56172 0.34712 0.21460 -0.07000
O 	O 	0.67050 0.35840 0.31210 -0.08300
O 	O 	0.86748 0.65288 0.21460 -0.06700
O 	O 	0.95370 0.64160 0.31210 -0.07500
O 	O 	0.43828 0.65288 0.78540 -0.05900
O 	O 	0.32950 0.64160 0.68790 -0.07900
O 	O 	0.13252 0.34712 0.78540 -0.06200
O 	O 	0.04630 0.35840 0.68790 -0.08500
