data_crystal

_cell_length_a 18.50590
_cell_length_b 18.50590
_cell_length_c 9.91680
_cell_angle_alpha 90.00000
_cell_angle_beta  90.00000
_cell_angle_gamma 120.00000

_symmetry_space_group_name_	'P 1'
_symmetry_space_group_name_H-M	'P 1'

loop_
_symmetry_equiv_pos_as_xyz
  x,y,z

loop_
_atom_site_label
_atom_site_type_symbol
_atom_site_fract_x
_atom_site_fract_y
_atom_site_fract_z
_atom_site_charge
C 	C 	0.37251 0.21493 0.33085 0.68500
H 	H 	0.40500 0.21570 0.25870 -0.89600
N 	N 	0.42970 0.21870 0.23480 0.81200
H 	H 	0.45930 0.26390 0.18980 -0.13500
H 	H 	0.43520 0.17580 0.22060 -0.19100
N 	N 	0.35905 0.27668 0.35996 -0.33400
C 	C 	0.03918 0.54826 0.66418 0.68300
H 	H 	0.07167 0.54903 0.59203 -0.89600
N 	N 	0.09637 0.55203 0.56813 0.81100
H 	H 	0.12597 0.59723 0.52313 -0.13600
H 	H 	0.10187 0.50913 0.55393 -0.19300
N 	N 	0.02572 0.61001 0.69329 -0.33800
C 	C 	0.70584 0.88160 0.99752 0.68800
H 	H 	0.73833 0.88237 0.92537 -0.89900
N 	N 	0.76303 0.88537 0.90147 0.81300
H 	H 	0.79263 0.93057 0.85647 -0.13300
H 	H 	0.76853 0.84247 0.88727 -0.19200
N 	N 	0.69238 0.94335 0.02663 -0.33300
C 	C 	0.78507 0.15758 0.33085 0.68500
H 	H 	0.78430 0.18930 0.25870 -0.89800
N 	N 	0.78130 0.21100 0.23480 0.81200
H 	H 	0.73610 0.19540 0.18980 -0.13600
H 	H 	0.82420 0.25940 0.22060 -0.19200
N 	N 	0.72332 0.08237 0.35996 -0.33600
C 	C 	0.45174 0.49091 0.66418 0.68400
H 	H 	0.45097 0.52263 0.59203 -0.89700
N 	N 	0.44797 0.54433 0.56813 0.81100
H 	H 	0.40277 0.52873 0.52313 -0.13600
H 	H 	0.49087 0.59273 0.55393 -0.19200
N 	N 	0.38999 0.41570 0.69329 -0.33500
C 	C 	0.11840 0.82425 0.99752 0.68600
H 	H 	0.11763 0.85597 0.92537 -0.89700
N 	N 	0.11463 0.87767 0.90147 0.80900
H 	H 	0.06943 0.86207 0.85647 -0.13600
H 	H 	0.15753 0.92607 0.88727 -0.18900
N 	N 	0.05665 0.74904 0.02663 -0.33800
C 	C 	0.84242 0.62749 0.33085 0.68500
H 	H 	0.81070 0.59500 0.25870 -0.89800
N 	N 	0.78900 0.57030 0.23480 0.81100
H 	H 	0.80460 0.54070 0.18980 -0.13600
H 	H 	0.74060 0.56480 0.22060 -0.19200
N 	N 	0.91763 0.64095 0.35996 -0.33300
C 	C 	0.50909 0.96082 0.66418 0.69100
H 	H 	0.47737 0.92833 0.59203 -0.89300
N 	N 	0.45567 0.90363 0.56813 0.80400
H 	H 	0.47127 0.87403 0.52313 -0.13400
H 	H 	0.40727 0.89813 0.55393 -0.18900
N 	N 	0.58430 0.97428 0.69329 -0.33100
C 	C 	0.17575 0.29416 0.99752 0.68300
H 	H 	0.14403 0.26167 0.92537 -0.89500
N 	N 	0.12233 0.23697 0.90147 0.80900
H 	H 	0.13793 0.20737 0.85647 -0.13700
H 	H 	0.07393 0.23147 0.88727 -0.19400
N 	N 	0.25096 0.30762 0.02663 -0.33400
C 	C 	0.21493 0.37251 0.16915 0.68400
H 	H 	0.21570 0.40500 0.24130 -0.89700
N 	N 	0.21870 0.42970 0.26520 0.81100
H 	H 	0.26390 0.45930 0.31020 -0.13600
H 	H 	0.17580 0.43520 0.27940 -0.19300
N 	N 	0.27668 0.35905 0.14004 -0.33500
C 	C 	0.88160 0.70584 0.50248 0.68700
H 	H 	0.88237 0.73833 0.57463 -0.89900
N 	N 	0.88537 0.76303 0.59853 0.81300
H 	H 	0.93057 0.79263 0.64353 -0.13300
H 	H 	0.84247 0.76853 0.61273 -0.19200
N 	N 	0.94335 0.69238 0.47337 -0.33200
C 	C 	0.54826 0.03918 0.83582 0.68200
H 	H 	0.54903 0.07167 0.90797 -0.89700
N 	N 	0.55203 0.09637 0.93187 0.81000
H 	H 	0.59723 0.12597 0.97687 -0.13700
H 	H 	0.50913 0.10187 0.94607 -0.19300
N 	N 	0.61001 0.02572 0.80671 -0.33800
C 	C 	0.15758 0.78507 0.16915 0.68500
H 	H 	0.18930 0.78430 0.24130 -0.89800
N 	N 	0.21100 0.78130 0.26520 0.81100
H 	H 	0.19540 0.73610 0.31020 -0.13600
H 	H 	0.25940 0.82420 0.27940 -0.19200
N 	N 	0.08237 0.72332 0.14004 -0.33600
C 	C 	0.82425 0.11840 0.50248 0.68500
H 	H 	0.85597 0.11763 0.57463 -0.89800
N 	N 	0.87767 0.11463 0.59853 0.81100
H 	H 	0.86207 0.06943 0.64353 -0.13700
H 	H 	0.92607 0.15753 0.61273 -0.19000
N 	N 	0.74904 0.05665 0.47337 -0.33700
C 	C 	0.49091 0.45174 0.83582 0.68400
H 	H 	0.52263 0.45097 0.90797 -0.89700
N 	N 	0.54433 0.44797 0.93187 0.81100
H 	H 	0.52873 0.40277 0.97687 -0.13600
H 	H 	0.59273 0.49087 0.94607 -0.19200
N 	N 	0.41570 0.38999 0.80671 -0.33500
C 	C 	0.62749 0.84242 0.16915 0.68500
H 	H 	0.59500 0.81070 0.24130 -0.89800
N 	N 	0.57030 0.78900 0.26520 0.81100
H 	H 	0.54070 0.80460 0.31020 -0.13600
H 	H 	0.56480 0.74060 0.27940 -0.19200
N 	N 	0.64095 0.91763 0.14004 -0.33300
C 	C 	0.29416 0.17575 0.50248 0.68200
H 	H 	0.26167 0.14403 0.57463 -0.89500
N 	N 	0.23697 0.12233 0.59853 0.80900
H 	H 	0.20737 0.13793 0.64353 -0.13700
H 	H 	0.23147 0.07393 0.61273 -0.19500
N 	N 	0.30762 0.25096 0.47337 -0.33400
C 	C 	0.96082 0.50909 0.83582 0.69000
H 	H 	0.92833 0.47737 0.90797 -0.89300
N 	N 	0.90363 0.45567 0.93187 0.80500
H 	H 	0.87403 0.47127 0.97687 -0.13400
H 	H 	0.89813 0.40727 0.94607 -0.18900
N 	N 	0.97428 0.58430 0.80671 -0.33200
C 	C 	0.62749 0.78507 0.66915 0.68500
H 	H 	0.59500 0.78430 0.74130 -0.89800
N 	N 	0.57030 0.78130 0.76520 0.81100
H 	H 	0.54070 0.73610 0.81020 -0.13600
H 	H 	0.56480 0.82420 0.77940 -0.19200
N 	N 	0.64095 0.72332 0.64004 -0.33500
C 	C 	0.29416 0.11840 0.00248 0.68300
H 	H 	0.26167 0.11763 0.07463 -0.89500
N 	N 	0.23697 0.11463 0.09853 0.80900
H 	H 	0.20737 0.06943 0.14353 -0.13800
H 	H 	0.23147 0.15753 0.11273 -0.19300
N 	N 	0.30762 0.05665 0.97337 -0.33700
C 	C 	0.96082 0.45174 0.33582 0.69100
H 	H 	0.92833 0.45097 0.40797 -0.89300
N 	N 	0.90363 0.44797 0.43187 0.80400
H 	H 	0.87403 0.40277 0.47687 -0.13400
H 	H 	0.89813 0.49087 0.44607 -0.18900
N 	N 	0.97428 0.38999 0.30671 -0.33100
C 	C 	0.21493 0.84242 0.66915 0.68500
H 	H 	0.21570 0.81070 0.74130 -0.89700
N 	N 	0.21870 0.78900 0.76520 0.81100
H 	H 	0.26390 0.80460 0.81020 -0.13600
H 	H 	0.17580 0.74060 0.77940 -0.19300
N 	N 	0.27668 0.91763 0.64004 -0.33300
C 	C 	0.88160 0.17575 0.00248 0.68700
H 	H 	0.88237 0.14403 0.07463 -0.89600
N 	N 	0.88537 0.12233 0.09853 0.80900
H 	H 	0.93057 0.13793 0.14353 -0.13300
H 	H 	0.84247 0.07393 0.11273 -0.19300
N 	N 	0.94335 0.25096 0.97337 -0.33300
C 	C 	0.54826 0.50909 0.33582 0.68400
H 	H 	0.54903 0.47737 0.40797 -0.89700
N 	N 	0.55203 0.45567 0.43187 0.81100
H 	H 	0.59723 0.47127 0.47687 -0.13600
H 	H 	0.50913 0.40727 0.44607 -0.19200
N 	N 	0.61001 0.58430 0.30671 -0.33500
C 	C 	0.15758 0.37251 0.66915 0.68400
H 	H 	0.18930 0.40500 0.74130 -0.89700
N 	N 	0.21100 0.42970 0.76520 0.81100
H 	H 	0.19540 0.45930 0.81020 -0.13600
H 	H 	0.25940 0.43520 0.77940 -0.19200
N 	N 	0.08237 0.35905 0.64004 -0.33600
C 	C 	0.82425 0.70584 0.00248 0.68700
H 	H 	0.85597 0.73833 0.07463 -0.89900
N 	N 	0.87767 0.76303 0.09853 0.81200
H 	H 	0.86207 0.79263 0.14353 -0.13400
H 	H 	0.92607 0.76853 0.11273 -0.18900
N 	N 	0.74904 0.69238 0.97337 -0.33500
C 	C 	0.49091 0.03918 0.33582 0.68200
H 	H 	0.52263 0.07167 0.40797 -0.89700
N 	N 	0.54433 0.09637 0.43187 0.81100
H 	H 	0.52873 0.12597 0.47687 -0.13600
H 	H 	0.59273 0.10187 0.44607 -0.19300
N 	N 	0.41570 0.02572 0.30671 -0.33800
C 	C 	0.78507 0.62749 0.83085 0.68500
H 	H 	0.78430 0.59500 0.75870 -0.89800
N 	N 	0.78130 0.57030 0.73480 0.81100
H 	H 	0.73610 0.54070 0.68980 -0.13600
H 	H 	0.82420 0.56480 0.72060 -0.19200
N 	N 	0.72332 0.64095 0.85996 -0.33500
C 	C 	0.45174 0.96082 0.16418 0.69000
H 	H 	0.45097 0.92833 0.09203 -0.89300
N 	N 	0.44797 0.90363 0.06813 0.80500
H 	H 	0.40277 0.87403 0.02313 -0.13400
H 	H 	0.49087 0.89813 0.05393 -0.18900
N 	N 	0.38999 0.97428 0.19329 -0.33100
C 	C 	0.11840 0.29416 0.49752 0.68200
H 	H 	0.11763 0.26167 0.42537 -0.89600
N 	N 	0.11463 0.23697 0.40147 0.81000
H 	H 	0.06943 0.20737 0.35647 -0.13800
H 	H 	0.15753 0.23147 0.38727 -0.19300
N 	N 	0.05665 0.30762 0.52663 -0.33700
C 	C 	0.84242 0.21493 0.83085 0.68400
H 	H 	0.81070 0.21570 0.75870 -0.89700
N 	N 	0.78900 0.21870 0.73480 0.81100
H 	H 	0.80460 0.26390 0.68980 -0.13600
H 	H 	0.74060 0.17580 0.72060 -0.19300
N 	N 	0.91763 0.27668 0.85996 -0.33300
C 	C 	0.50909 0.54826 0.16418 0.68400
H 	H 	0.47737 0.54903 0.09203 -0.89700
N 	N 	0.45567 0.55203 0.06813 0.81100
H 	H 	0.47127 0.59723 0.02313 -0.13600
H 	H 	0.40727 0.50913 0.05393 -0.19200
N 	N 	0.58430 0.61001 0.19329 -0.33500
C 	C 	0.17575 0.88160 0.49752 0.68500
H 	H 	0.14403 0.88237 0.42537 -0.89800
N 	N 	0.12233 0.88537 0.40147 0.81200
H 	H 	0.13793 0.93057 0.35647 -0.13400
H 	H 	0.07393 0.84247 0.38727 -0.19400
N 	N 	0.25096 0.94335 0.52663 -0.33200
C 	C 	0.37251 0.15758 0.83085 0.68400
H 	H 	0.40500 0.18930 0.75870 -0.89700
N 	N 	0.42970 0.21100 0.73480 0.81100
H 	H 	0.45930 0.19540 0.68980 -0.13600
H 	H 	0.43520 0.25940 0.72060 -0.19200
N 	N 	0.35905 0.08237 0.85996 -0.33600
C 	C 	0.03918 0.49091 0.16418 0.68200
H 	H 	0.07167 0.52263 0.09203 -0.89700
N 	N 	0.09637 0.54433 0.06813 0.81000
H 	H 	0.12597 0.52873 0.02313 -0.13600
H 	H 	0.10187 0.59273 0.05393 -0.19300
N 	N 	0.02572 0.41570 0.19329 -0.33800
C 	C 	0.70584 0.82425 0.49752 0.68700
H 	H 	0.73833 0.85597 0.42537 -0.89900
N 	N 	0.76303 0.87767 0.40147 0.81200
H 	H 	0.79263 0.86207 0.35647 -0.13500
H 	H 	0.76853 0.92607 0.38727 -0.19000
N 	N 	0.69238 0.74904 0.52663 -0.33500
Zn	Zn	0.37554 0.37554 0.25000 1.24100
Zn	Zn	0.04220 0.70887 0.58333 1.24000
Zn	Zn	0.70887 0.04220 0.91667 1.24000
Zn	Zn	0.62446 -0.00000 0.25000 1.23900
Zn	Zn	0.29113 0.33333 0.58333 1.24100
Zn	Zn	0.95780 0.66667 0.91667 1.24300
Zn	Zn	0.00000 0.62446 0.25000 1.23900
Zn	Zn	0.66667 0.95780 0.58333 1.24400
Zn	Zn	0.33333 0.29113 0.91667 1.24100
Zn	Zn	0.62446 0.62446 0.75000 1.24100
Zn	Zn	0.29113 0.95780 0.08333 1.24300
Zn	Zn	0.95780 0.29113 0.41667 1.24400
Zn	Zn	0.37554 0.00000 0.75000 1.23900
Zn	Zn	0.04220 0.33333 0.08333 1.24000
Zn	Zn	0.70887 0.66667 0.41667 1.24100
Zn	Zn	0.00000 0.37554 0.75000 1.23900
Zn	Zn	0.66667 0.70887 0.08333 1.24100
Zn	Zn	0.33333 0.04220 0.41667 1.24000
F 	F 	0.41223 0.33333 0.08333 -0.65100
F 	F 	0.66667 0.07889 0.08333 -0.65200
F 	F 	0.33333 0.41223 0.41667 -0.65100
F 	F 	0.92111 0.58777 0.08333 -0.64800
F 	F 	0.25444 0.25444 0.75000 -0.65200
F 	F 	0.00000 0.74556 0.75000 -0.65500
F 	F 	0.07889 0.66667 0.41667 -0.65300
F 	F 	0.74556 0.00000 0.75000 -0.65600
F 	F 	0.58777 0.92111 0.41667 -0.64900
F 	F 	0.58777 0.66667 0.91667 -0.65100
F 	F 	0.25444 -0.00000 0.25000 -0.65600
F 	F 	0.92111 0.33333 0.58333 -0.64900
F 	F 	0.33333 0.92111 0.91667 -0.64800
F 	F 	-0.00000 0.25444 0.25000 -0.65600
F 	F 	0.07889 0.41223 0.91667 -0.65300
F 	F 	0.74556 0.74556 0.25000 -0.65100
F 	F 	0.66667 0.58777 0.58333 -0.65100
F 	F 	0.41223 0.07889 0.58333 -0.65300
N 	N 	0.33333 0.15020 0.41667 -0.46100
N 	N 	0.00000 0.48353 0.75000 -0.46500
N 	N 	0.84980 0.18314 0.41667 -0.46000
N 	N 	0.51647 0.51647 0.75000 -0.46100
N 	N 	0.81686 0.66667 0.41667 -0.46100
N 	N 	0.48353 0.00000 0.75000 -0.46600
N 	N 	0.15020 0.33333 0.08333 -0.46100
N 	N 	0.18314 0.84980 0.08333 -0.46100
N 	N 	0.66667 0.81686 0.08333 -0.46100
N 	N 	0.66667 0.84980 0.58333 -0.46000
N 	N 	0.15020 0.81686 0.58333 -0.46100
N 	N 	0.18314 0.33333 0.58333 -0.46000
N 	N 	0.84980 0.66667 0.91667 -0.46100
N 	N 	0.51647 -0.00000 0.25000 -0.46500
N 	N 	0.81686 0.15020 0.91667 -0.46200
N 	N 	0.48353 0.48353 0.25000 -0.46100
N 	N 	0.33333 0.18314 0.91667 -0.46100
N 	N 	0.00000 0.51647 0.25000 -0.46600
