data_crystal

_cell_length_a 15.09500
_cell_length_b 25.05320
_cell_length_c 29.75880
_cell_angle_alpha 90.00000
_cell_angle_beta  107.93600
_cell_angle_gamma 90.00000

_symmetry_space_group_name_	'P 1'
_symmetry_space_group_name_H-M	'P 1'

loop_
_symmetry_equiv_pos_as_xyz
  x,y,z

loop_
_atom_site_label
_atom_site_type_symbol
_atom_site_fract_x
_atom_site_fract_y
_atom_site_fract_z
_atom_site_charge
Pr	Pr	0.04151 0.59997 0.46473 2.05400
Pr	Pr	0.95673 0.75910 0.50388 2.05800
Pr	Pr	0.03358 0.92362 0.48509 2.05800
I 	I 	0.32773 0.56718 0.81614 -0.59700
I 	I 	0.52221 0.64482 0.73936 -0.76300
I 	I 	0.48761 0.71180 0.87306 -0.56100
I 	I 	0.25937 0.71886 0.73034 -0.57000
I 	I 	0.49778 0.81161 0.75989 -0.76600
I 	I 	0.68420 0.74907 0.67205 -0.58800
I 	I 	0.74218 0.60336 0.26497 -0.59900
I 	I 	0.50352 0.89191 0.62795 -0.55500
I 	I 	0.48719 0.97890 0.74946 -0.76400
I 	I 	0.30404 0.91135 0.83579 -0.61500
I 	I 	0.47135 0.44514 0.38098 -0.57600
I 	I 	0.22655 0.05547 0.74678 -0.57500
Cu	Cu	0.34893 0.62282 0.74230 0.72200
Cu	Cu	0.48280 0.62318 0.81973 0.72000
Cu	Cu	0.32287 0.67056 0.81434 0.71800
Cu	Cu	0.43604 0.71875 0.77916 0.73200
Cu	Cu	0.53122 0.79579 0.67644 0.72100
Cu	Cu	0.66925 0.70177 0.25279 0.72800
Cu	Cu	0.67649 0.85354 0.67835 0.71800
Cu	Cu	0.56390 0.89428 0.72018 0.74800
Cu	Cu	0.31834 0.96106 0.75718 0.73100
Cu	Cu	0.45986 0.53951 0.33406 0.73300
Cu	Cu	0.70255 0.51629 0.66576 0.73400
Cu	Cu	0.59286 0.55644 0.71173 0.73900
O 	O 	0.12300 0.52979 0.51706 -0.50900
O 	O 	0.06460 0.47166 0.55718 -0.53900
O 	O 	0.17930 0.64484 0.51968 -0.48600
O 	O 	0.10220 0.71664 0.53080 -0.53900
O 	O 	0.98810 0.60802 0.53502 -0.48400
O 	O 	0.92670 0.68537 0.54900 -0.49800
O 	O 	0.89870 0.65300 0.44264 -0.55400
O 	O 	0.81060 0.71716 0.45559 -0.49400
O 	O 	0.07560 0.68105 0.42942 -0.54400
O 	O 	0.01430 0.76039 0.43629 -0.52000
O 	O 	0.02410 0.79634 0.58520 -0.45600
O 	O 	0.08060 0.84437 0.53817 -0.57400
O 	O 	0.90730 0.84479 0.45580 -0.57800
O 	O 	0.95530 0.88924 0.40357 -0.44700
O 	O 	0.19520 0.95430 0.52925 -0.46400
O 	O 	0.09730 0.01400 0.54019 -0.57100
O 	O 	0.03500 0.07114 0.45198 -0.51700
O 	O 	0.07910 0.98982 0.43661 -0.50400
N 	N 	0.28330 0.57902 0.68533 -0.21600
N 	N 	0.42170 0.75409 0.63631 -0.21900
N 	N 	0.78350 0.55342 0.63125 -0.21800
N 	N 	0.57280 0.58352 0.36867 -0.21700
N 	N 	0.23250 0.79810 0.34410 -0.21900
N 	N 	0.24900 0.91390 0.70224 -0.22100
N 	N 	0.73730 0.75490 0.30241 -0.22500
N 	N 	0.41140 0.07825 0.64067 -0.22100
N 	N 	0.24130 0.11280 0.35540 -0.21900
C 	C 	0.29990 0.58950 0.64450 0.00300
H 	H 	0.34940 0.61310 0.64490 0.01700
C 	C 	0.24850 0.56750 0.60184 -0.01200
H 	H 	0.26330 0.57540 0.57380 0.05300
C 	C 	0.17510 0.53390 0.60070 -0.11600
C 	C 	0.15960 0.52120 0.64290 0.00200
H 	H 	0.11180 0.49670 0.64350 0.02500
C 	C 	0.21400 0.54440 0.68400 0.00200
H 	H 	0.20230 0.53570 0.71280 0.02800
C 	C 	0.11590 0.51020 0.55448 0.45100
C 	C 	0.42710 0.71420 0.60690 0.01300
H 	H 	0.48690 0.70120 0.60810 0.02700
C 	C 	0.34960 0.69160 0.57500 -0.02400
H 	H 	0.35620 0.66390 0.55440 0.05600
C 	C 	0.26190 0.70990 0.57349 -0.09100
C 	C 	0.25610 0.74900 0.60520 -0.02200
H 	H 	0.19710 0.76150 0.60600 0.05900
C 	C 	0.33690 0.76970 0.63580 0.01100
H 	H 	0.33200 0.79640 0.65760 0.01400
C 	C 	0.17450 0.68830 0.53846 0.43100
C 	C 	0.84020 0.52700 0.61220 0.02400
H 	H 	0.84600 0.48950 0.61650 -0.02800
C 	C 	0.89100 0.55180 0.58650 -0.04100
H 	H 	0.92970 0.53150 0.57310 0.02600
C 	C 	0.88440 0.60670 0.58066 -0.07500
C 	C 	0.82810 0.63450 0.60170 -0.02900
H 	H 	0.82360 0.67220 0.59930 0.05700
C 	C 	0.77870 0.60650 0.62610 0.02300
H 	H 	0.73950 0.62590 0.63980 0.01800
C 	C 	0.93800 0.63540 0.55247 0.41500
C 	C 	0.65760 0.56690 0.36880 0.00800
H 	H 	0.66190 0.53470 0.35270 0.01600
C 	C 	0.73900 0.59400 0.39110 -0.02100
H 	H 	0.79750 0.58040 0.39070 0.04000
C 	C 	0.73400 0.64130 0.41400 -0.09300
C 	C 	0.64690 0.65960 0.41340 -0.02900
H 	H 	0.64080 0.69210 0.42870 0.06400
C 	C 	0.56910 0.63000 0.39030 0.01900
H 	H 	0.50980 0.64320 0.38980 0.02300
C 	C 	0.82130 0.67280 0.43920 0.42000
C 	C 	0.23370 0.74530 0.35230 0.01400
H 	H 	0.27430 0.72330 0.34160 0.01800
C 	C 	0.17810 0.72200 0.37570 -0.01500
H 	H 	0.18080 0.68460 0.38130 0.04300
C 	C 	0.11840 0.75360 0.39100 -0.10200
C 	C 	0.11090 0.80650 0.37875 -0.03000
H 	H 	0.06600 0.82860 0.38600 0.04000
C 	C 	0.16950 0.82710 0.35570 0.02000
H 	H 	0.16460 0.86390 0.34780 0.01000
C 	C 	0.06440 0.72940 0.42119 0.44200
C 	C 	0.17620 0.88350 0.70330 0.03000
H 	H 	0.16320 0.88030 0.73240 0.01100
C 	C 	0.11970 0.85670 0.66490 -0.03700
H 	H 	0.06910 0.83580 0.66760 0.06300
C 	C 	0.13770 0.86090 0.62200 -0.06400
C 	C 	0.21430 0.88990 0.62050 -0.05100
H 	H 	0.23050 0.89190 0.59220 0.05900
C 	C 	0.26760 0.91620 0.66090 0.02200
H 	H 	0.31950 0.93670 0.65920 0.01200
C 	C 	0.07630 0.83220 0.57890 0.35400
C 	C 	0.71670 0.76180 0.34230 0.02500
H 	H 	0.66420 0.74350 0.34600 0.00500
C 	C 	0.76750 0.79420 0.37889 -0.05700
H 	H 	0.75010 0.79810 0.40680 0.05100
C 	C 	0.84400 0.82090 0.37393 -0.06100
C 	C 	0.86270 0.81670 0.33150 -0.03800
H 	H 	0.91170 0.83680 0.32600 0.06900
C 	C 	0.80950 0.78310 0.29740 0.02600
H 	H 	0.82440 0.77960 0.26870 0.01400
C 	C 	0.90640 0.85410 0.41334 0.33700
C 	C 	0.42030 0.04760 0.60530 0.02700
H 	H 	0.47990 0.04460 0.60100 0.01600
C 	C 	0.34690 0.02020 0.57490 -0.03500
H 	H 	0.35590 0.99840 0.55050 0.06400
C 	C 	0.25950 0.02530 0.58080 -0.07100
C 	C 	0.25040 0.05480 0.61760 -0.04600
H 	H 	0.19170 0.05770 0.62310 0.06400
C 	C 	0.32780 0.08060 0.64706 0.01600
H 	H 	0.32110 0.10080 0.67280 0.00900
C 	C 	0.17850 0.99590 0.54752 0.37800
C 	C 	0.17990 0.13990 0.36900 0.02100
H 	H 	0.17250 0.17680 0.36140 0.00800
C 	C 	0.12570 0.11770 0.39370 -0.03000
H 	H 	0.08380 0.13950 0.40370 0.04100
C 	C 	0.13180 0.06460 0.40390 -0.09400
C 	C 	0.19580 0.03550 0.38960 -0.01200
H 	H 	0.20210 0.99820 0.39560 0.04900
C 	C 	0.25050 0.06060 0.36670 0.01000
H 	H 	0.29650 0.04040 0.35840 0.02700
C 	C 	0.07700 0.03920 0.43270 0.43200
Pr	Pr	0.95849 0.09997 0.03527 2.05200
Pr	Pr	0.04327 0.25910 0.99612 2.05700
Pr	Pr	0.96642 0.42362 0.01491 2.05800
I 	I 	0.67227 0.06718 0.68386 -0.59600
I 	I 	0.47779 0.14482 0.76064 -0.76200
I 	I 	0.51239 0.21180 0.62694 -0.56100
I 	I 	0.74063 0.21886 0.76966 -0.56800
I 	I 	0.50222 0.31161 0.74011 -0.76500
I 	I 	0.31580 0.24907 0.82795 -0.58700
I 	I 	0.25782 0.10336 0.23503 -0.59700
I 	I 	0.49648 0.39191 0.87204 -0.55400
I 	I 	0.51281 0.47890 0.75054 -0.76300
I 	I 	0.69596 0.41135 0.66421 -0.61400
I 	I 	0.52865 0.94514 0.11902 -0.57500
I 	I 	0.77345 0.55547 0.75322 -0.57500
Cu	Cu	0.65107 0.12282 0.75770 0.72200
Cu	Cu	0.51720 0.12318 0.68027 0.72000
Cu	Cu	0.67713 0.17056 0.68566 0.71800
Cu	Cu	0.56396 0.21875 0.72084 0.73200
Cu	Cu	0.46878 0.29579 0.82356 0.72100
Cu	Cu	0.33075 0.20177 0.24721 0.72800
Cu	Cu	0.32351 0.35354 0.82165 0.71800
Cu	Cu	0.43610 0.39428 0.77982 0.74800
Cu	Cu	0.68166 0.46106 0.74282 0.73200
Cu	Cu	0.54014 0.03951 0.16594 0.73300
Cu	Cu	0.29745 0.01629 0.83424 0.73500
Cu	Cu	0.40714 0.05644 0.78827 0.73900
O 	O 	0.87700 0.02979 0.98294 -0.50600
O 	O 	0.93540 0.97166 0.94282 -0.53400
O 	O 	0.82070 0.14484 0.98032 -0.48400
O 	O 	0.89780 0.21664 0.96920 -0.53600
O 	O 	0.01190 0.10802 0.96498 -0.48500
O 	O 	0.07330 0.18537 0.95100 -0.49900
O 	O 	0.10130 0.15300 0.05736 -0.55100
O 	O 	0.18940 0.21716 0.04441 -0.49200
O 	O 	0.92440 0.18105 0.07058 -0.54600
O 	O 	0.98570 0.26039 0.06371 -0.52300
O 	O 	0.97590 0.29634 0.91480 -0.45300
O 	O 	0.91940 0.34437 0.96183 -0.57000
O 	O 	0.09270 0.34479 0.04420 -0.57600
O 	O 	0.04470 0.38924 0.09643 -0.44500
O 	O 	0.80480 0.45430 0.97075 -0.46200
O 	O 	0.90270 0.51400 0.95981 -0.57100
O 	O 	0.96500 0.57114 0.04802 -0.51900
O 	O 	0.92090 0.48982 0.06339 -0.50200
N 	N 	0.71670 0.07902 0.81467 -0.21700
N 	N 	0.57830 0.25409 0.86369 -0.21900
N 	N 	0.21650 0.05342 0.86875 -0.21900
N 	N 	0.42720 0.08352 0.13133 -0.21700
N 	N 	0.76750 0.29810 0.15590 -0.21900
N 	N 	0.75100 0.41390 0.79776 -0.22100
N 	N 	0.26270 0.25490 0.19759 -0.22500
N 	N 	0.58860 0.57825 0.85933 -0.22100
N 	N 	0.75870 0.61280 0.14460 -0.22000
C 	C 	0.70010 0.08950 0.85550 0.00400
H 	H 	0.65060 0.11310 0.85510 0.01600
C 	C 	0.75150 0.06750 0.89816 -0.01400
H 	H 	0.73670 0.07540 0.92620 0.05500
C 	C 	0.82490 0.03390 0.89930 -0.11200
C 	C 	0.84040 0.02120 0.85710 -0.00500
H 	H 	0.88820 0.99670 0.85650 0.02900
C 	C 	0.78600 0.04440 0.81600 0.00500
H 	H 	0.79770 0.03570 0.78720 0.02700
C 	C 	0.88410 0.01020 0.94552 0.44700
C 	C 	0.57290 0.21420 0.89310 0.01300
H 	H 	0.51310 0.20120 0.89190 0.02700
C 	C 	0.65040 0.19160 0.92500 -0.02400
H 	H 	0.64380 0.16390 0.94560 0.05700
C 	C 	0.73810 0.20990 0.92651 -0.09000
C 	C 	0.74390 0.24900 0.89480 -0.02200
H 	H 	0.80290 0.26150 0.89400 0.06000
C 	C 	0.66310 0.26970 0.86420 0.01100
H 	H 	0.66800 0.29640 0.84240 0.01400
C 	C 	0.82550 0.18830 0.96154 0.43100
C 	C 	0.15980 0.02700 0.88780 0.03000
H 	H 	0.15400 0.98950 0.88350 -0.03200
C 	C 	0.10900 0.05180 0.91350 -0.04400
H 	H 	0.07030 0.03150 0.92690 0.02600
C 	C 	0.11560 0.10670 0.91934 -0.07400
C 	C 	0.17190 0.13450 0.89830 -0.03000
H 	H 	0.17640 0.17220 0.90070 0.05700
C 	C 	0.22130 0.10650 0.87390 0.02400
H 	H 	0.26050 0.12590 0.86020 0.01700
C 	C 	0.06200 0.13540 0.94753 0.41500
C 	C 	0.34240 0.06690 0.13120 0.00800
H 	H 	0.33810 0.03470 0.14730 0.01600
C 	C 	0.26100 0.09400 0.10890 -0.02100
H 	H 	0.20250 0.08040 0.10930 0.04000
C 	C 	0.26600 0.14130 0.08600 -0.09200
C 	C 	0.35310 0.15960 0.08660 -0.02900
H 	H 	0.35920 0.19210 0.07130 0.06500
C 	C 	0.43090 0.13000 0.10970 0.01900
H 	H 	0.49020 0.14320 0.11020 0.02300
C 	C 	0.17870 0.17280 0.06080 0.42000
C 	C 	0.76630 0.24530 0.14770 0.01400
H 	H 	0.72570 0.22330 0.15840 0.01800
C 	C 	0.82190 0.22200 0.12430 -0.01400
H 	H 	0.81920 0.18460 0.11870 0.04200
C 	C 	0.88160 0.25360 0.10900 -0.10400
C 	C 	0.88910 0.30650 0.12125 -0.03000
H 	H 	0.93400 0.32860 0.11400 0.03900
C 	C 	0.83050 0.32710 0.14430 0.01900
H 	H 	0.83540 0.36390 0.15220 0.01000
C 	C 	0.93560 0.22940 0.07881 0.44200
C 	C 	0.82380 0.38350 0.79670 0.03100
H 	H 	0.83680 0.38030 0.76760 0.01100
C 	C 	0.88030 0.35670 0.83510 -0.03700
H 	H 	0.93090 0.33580 0.83240 0.06400
C 	C 	0.86230 0.36090 0.87800 -0.06200
C 	C 	0.78570 0.38990 0.87950 -0.05200
H 	H 	0.76950 0.39190 0.90780 0.05900
C 	C 	0.73240 0.41620 0.83910 0.02200
H 	H 	0.68050 0.43670 0.84080 0.01200
C 	C 	0.92370 0.33220 0.92110 0.35400
C 	C 	0.28330 0.26180 0.15770 0.02600
H 	H 	0.33580 0.24350 0.15400 0.00500
C 	C 	0.23250 0.29420 0.12111 -0.05800
H 	H 	0.24990 0.29810 0.09320 0.05200
C 	C 	0.15600 0.32090 0.12607 -0.06000
C 	C 	0.13730 0.31670 0.16850 -0.03900
H 	H 	0.08830 0.33680 0.17400 0.07000
C 	C 	0.19050 0.28310 0.20260 0.02700
H 	H 	0.17560 0.27960 0.23130 0.01400
C 	C 	0.09360 0.35410 0.08666 0.33700
C 	C 	0.57970 0.54760 0.89470 0.02700
H 	H 	0.52010 0.54460 0.89900 0.01600
C 	C 	0.65310 0.52020 0.92510 -0.03600
H 	H 	0.64410 0.49840 0.94950 0.06600
C 	C 	0.74050 0.52530 0.91920 -0.07300
C 	C 	0.74960 0.55480 0.88240 -0.04500
H 	H 	0.80830 0.55770 0.87690 0.06400
C 	C 	0.67220 0.58060 0.85294 0.01500
H 	H 	0.67890 0.60080 0.82720 0.00900
C 	C 	0.82150 0.49590 0.95248 0.38300
C 	C 	0.82010 0.63990 0.13100 0.02200
H 	H 	0.82750 0.67680 0.13860 0.00700
C 	C 	0.87430 0.61770 0.10630 -0.03200
H 	H 	0.91620 0.63950 0.09630 0.04000
C 	C 	0.86820 0.56460 0.09610 -0.09200
C 	C 	0.80420 0.53550 0.11040 -0.01700
H 	H 	0.79790 0.49820 0.10440 0.05200
C 	C 	0.74950 0.56060 0.13330 0.01200
H 	H 	0.70350 0.54040 0.14160 0.02600
C 	C 	0.92300 0.53920 0.06730 0.42800
Pr	Pr	0.95849 0.40003 0.53527 2.05500
Pr	Pr	0.04327 0.24090 0.49612 2.05900
Pr	Pr	0.96642 0.07638 0.51491 2.05900
I 	I 	0.67227 0.43282 0.18386 -0.59600
I 	I 	0.47779 0.35518 0.26064 -0.76200
I 	I 	0.51239 0.28820 0.12694 -0.56000
I 	I 	0.74063 0.28114 0.26966 -0.56900
I 	I 	0.50222 0.18839 0.24011 -0.76500
I 	I 	0.31580 0.25093 0.32795 -0.58700
I 	I 	0.25782 0.39664 0.73503 -0.59900
I 	I 	0.49648 0.10809 0.37204 -0.55500
I 	I 	0.51281 0.02110 0.25054 -0.76300
I 	I 	0.69596 0.08865 0.16421 -0.61500
I 	I 	0.52865 0.55486 0.61902 -0.57600
I 	I 	0.77345 0.94452 0.25322 -0.57500
Cu	Cu	0.65107 0.37718 0.25770 0.72200
Cu	Cu	0.51720 0.37682 0.18027 0.72000
Cu	Cu	0.67713 0.32944 0.18566 0.71800
Cu	Cu	0.56396 0.28125 0.22084 0.73200
Cu	Cu	0.46878 0.20421 0.32356 0.72100
Cu	Cu	0.33075 0.29823 0.74721 0.72800
Cu	Cu	0.32351 0.14646 0.32165 0.71800
Cu	Cu	0.43610 0.10572 0.27982 0.74800
Cu	Cu	0.68166 0.03894 0.24282 0.73100
Cu	Cu	0.54014 0.46049 0.66594 0.73300
Cu	Cu	0.29745 0.48371 0.33424 0.73400
Cu	Cu	0.40714 0.44356 0.28827 0.73900
O 	O 	0.87700 0.47021 0.48294 -0.50900
O 	O 	0.93540 0.52834 0.44282 -0.53900
O 	O 	0.82070 0.35516 0.48032 -0.48600
O 	O 	0.89780 0.28336 0.46920 -0.53900
O 	O 	0.01190 0.39198 0.46498 -0.48400
O 	O 	0.07330 0.31463 0.45100 -0.49800
O 	O 	0.10130 0.34700 0.55736 -0.55400
O 	O 	0.18940 0.28284 0.54441 -0.49400
O 	O 	0.92440 0.31895 0.57058 -0.54400
O 	O 	0.98570 0.23961 0.56371 -0.52000
O 	O 	0.97590 0.20366 0.41480 -0.45600
O 	O 	0.91940 0.15563 0.46183 -0.57400
O 	O 	0.09270 0.15521 0.54420 -0.57800
O 	O 	0.04470 0.11076 0.59643 -0.44700
O 	O 	0.80480 0.04570 0.47075 -0.46400
O 	O 	0.90270 0.98600 0.45981 -0.57100
O 	O 	0.96500 0.92886 0.54802 -0.51700
O 	O 	0.92090 0.01018 0.56339 -0.50400
N 	N 	0.71670 0.42098 0.31467 -0.21600
N 	N 	0.57830 0.24591 0.36369 -0.21900
N 	N 	0.21650 0.44658 0.36875 -0.21800
N 	N 	0.42720 0.41648 0.63133 -0.21700
N 	N 	0.76750 0.20190 0.65590 -0.21900
N 	N 	0.75100 0.08610 0.29776 -0.22100
N 	N 	0.26270 0.24510 0.69759 -0.22500
N 	N 	0.58860 0.92175 0.35933 -0.22100
N 	N 	0.75870 0.88720 0.64460 -0.21900
C 	C 	0.70010 0.41050 0.35550 0.00300
H 	H 	0.65060 0.38690 0.35510 0.01700
C 	C 	0.75150 0.43250 0.39816 -0.01200
H 	H 	0.73670 0.42460 0.42620 0.05300
C 	C 	0.82490 0.46610 0.39930 -0.11600
C 	C 	0.84040 0.47880 0.35710 0.00200
H 	H 	0.88820 0.50330 0.35650 0.02500
C 	C 	0.78600 0.45560 0.31600 0.00200
H 	H 	0.79770 0.46430 0.28720 0.02800
C 	C 	0.88410 0.48980 0.44552 0.45100
C 	C 	0.57290 0.28580 0.39310 0.01300
H 	H 	0.51310 0.29880 0.39190 0.02700
C 	C 	0.65040 0.30840 0.42500 -0.02400
H 	H 	0.64380 0.33610 0.44560 0.05600
C 	C 	0.73810 0.29010 0.42651 -0.09100
C 	C 	0.74390 0.25100 0.39480 -0.02200
H 	H 	0.80290 0.23850 0.39400 0.05900
C 	C 	0.66310 0.23030 0.36420 0.01100
H 	H 	0.66800 0.20360 0.34240 0.01400
C 	C 	0.82550 0.31170 0.46154 0.43100
C 	C 	0.15980 0.47300 0.38780 0.02400
H 	H 	0.15400 0.51050 0.38350 -0.02800
C 	C 	0.10900 0.44820 0.41350 -0.04100
H 	H 	0.07030 0.46850 0.42690 0.02600
C 	C 	0.11560 0.39330 0.41934 -0.07500
C 	C 	0.17190 0.36550 0.39830 -0.02900
H 	H 	0.17640 0.32780 0.40070 0.05700
C 	C 	0.22130 0.39350 0.37390 0.02300
H 	H 	0.26050 0.37410 0.36020 0.01800
C 	C 	0.06200 0.36460 0.44753 0.41500
C 	C 	0.34240 0.43310 0.63120 0.00800
H 	H 	0.33810 0.46530 0.64730 0.01600
C 	C 	0.26100 0.40600 0.60890 -0.02100
H 	H 	0.20250 0.41960 0.60930 0.04000
C 	C 	0.26600 0.35870 0.58600 -0.09300
C 	C 	0.35310 0.34040 0.58660 -0.02900
H 	H 	0.35920 0.30790 0.57130 0.06400
C 	C 	0.43090 0.37000 0.60970 0.01900
H 	H 	0.49020 0.35680 0.61020 0.02300
C 	C 	0.17870 0.32720 0.56080 0.42000
C 	C 	0.76630 0.25470 0.64770 0.01400
H 	H 	0.72570 0.27670 0.65840 0.01800
C 	C 	0.82190 0.27800 0.62430 -0.01500
H 	H 	0.81920 0.31540 0.61870 0.04300
C 	C 	0.88160 0.24640 0.60900 -0.10200
C 	C 	0.88910 0.19350 0.62125 -0.03000
H 	H 	0.93400 0.17140 0.61400 0.04000
C 	C 	0.83050 0.17290 0.64430 0.02000
H 	H 	0.83540 0.13610 0.65220 0.01000
C 	C 	0.93560 0.27060 0.57881 0.44200
C 	C 	0.82380 0.11650 0.29670 0.03000
H 	H 	0.83680 0.11970 0.26760 0.01100
C 	C 	0.88030 0.14330 0.33510 -0.03700
H 	H 	0.93090 0.16420 0.33240 0.06300
C 	C 	0.86230 0.13910 0.37800 -0.06400
C 	C 	0.78570 0.11010 0.37950 -0.05100
H 	H 	0.76950 0.10810 0.40780 0.05900
C 	C 	0.73240 0.08380 0.33910 0.02200
H 	H 	0.68050 0.06330 0.34080 0.01200
C 	C 	0.92370 0.16780 0.42110 0.35400
C 	C 	0.28330 0.23820 0.65770 0.02500
H 	H 	0.33580 0.25650 0.65400 0.00500
C 	C 	0.23250 0.20580 0.62111 -0.05700
H 	H 	0.24990 0.20190 0.59320 0.05100
C 	C 	0.15600 0.17910 0.62607 -0.06100
C 	C 	0.13730 0.18330 0.66850 -0.03800
H 	H 	0.08830 0.16320 0.67400 0.06900
C 	C 	0.19050 0.21690 0.70260 0.02600
H 	H 	0.17560 0.22040 0.73130 0.01400
C 	C 	0.09360 0.14590 0.58666 0.33700
C 	C 	0.57970 0.95240 0.39470 0.02700
H 	H 	0.52010 0.95540 0.39900 0.01600
C 	C 	0.65310 0.97980 0.42510 -0.03500
H 	H 	0.64410 0.00160 0.44950 0.06400
C 	C 	0.74050 0.97470 0.41920 -0.07100
C 	C 	0.74960 0.94520 0.38240 -0.04600
H 	H 	0.80830 0.94230 0.37690 0.06400
C 	C 	0.67220 0.91940 0.35294 0.01600
H 	H 	0.67890 0.89920 0.32720 0.00900
C 	C 	0.82150 0.00410 0.45248 0.37800
C 	C 	0.82010 0.86010 0.63100 0.02100
H 	H 	0.82750 0.82320 0.63860 0.00800
C 	C 	0.87430 0.88230 0.60630 -0.03000
H 	H 	0.91620 0.86050 0.59630 0.04100
C 	C 	0.86820 0.93540 0.59610 -0.09400
C 	C 	0.80420 0.96450 0.61040 -0.01200
H 	H 	0.79790 0.00180 0.60440 0.04900
C 	C 	0.74950 0.93940 0.63330 0.01000
H 	H 	0.70350 0.95960 0.64160 0.02700
C 	C 	0.92300 0.96080 0.56730 0.43200
Pr	Pr	0.04151 0.90003 0.96473 2.05200
Pr	Pr	0.95673 0.74090 0.00388 2.05700
Pr	Pr	0.03358 0.57638 0.98509 2.05800
I 	I 	0.32773 0.93282 0.31614 -0.59600
I 	I 	0.52221 0.85518 0.23936 -0.76200
I 	I 	0.48761 0.78820 0.37306 -0.56100
I 	I 	0.25937 0.78114 0.23034 -0.56800
I 	I 	0.49778 0.68839 0.25989 -0.76500
I 	I 	0.68420 0.75093 0.17205 -0.58700
I 	I 	0.74218 0.89664 0.76497 -0.59700
I 	I 	0.50352 0.60809 0.12795 -0.55400
I 	I 	0.48719 0.52110 0.24946 -0.76300
I 	I 	0.30404 0.58865 0.33579 -0.61400
I 	I 	0.47135 0.05486 0.88098 -0.57500
I 	I 	0.22655 0.44452 0.24678 -0.57500
Cu	Cu	0.34893 0.87718 0.24230 0.72200
Cu	Cu	0.48280 0.87682 0.31973 0.72000
Cu	Cu	0.32287 0.82944 0.31434 0.71800
Cu	Cu	0.43604 0.78125 0.27916 0.73200
Cu	Cu	0.53122 0.70421 0.17644 0.72100
Cu	Cu	0.66925 0.79823 0.75279 0.72800
Cu	Cu	0.67649 0.64646 0.17835 0.71800
Cu	Cu	0.56390 0.60572 0.22018 0.74800
Cu	Cu	0.31834 0.53894 0.25718 0.73200
Cu	Cu	0.45986 0.96049 0.83406 0.73300
Cu	Cu	0.70255 0.98371 0.16576 0.73500
Cu	Cu	0.59286 0.94356 0.21173 0.73900
O 	O 	0.12300 0.97021 0.01706 -0.50600
O 	O 	0.06460 0.02834 0.05718 -0.53400
O 	O 	0.17930 0.85516 0.01968 -0.48400
O 	O 	0.10220 0.78336 0.03080 -0.53600
O 	O 	0.98810 0.89198 0.03502 -0.48500
O 	O 	0.92670 0.81463 0.04900 -0.49900
O 	O 	0.89870 0.84700 0.94264 -0.55100
O 	O 	0.81060 0.78284 0.95559 -0.49200
O 	O 	0.07560 0.81895 0.92942 -0.54600
O 	O 	0.01430 0.73961 0.93629 -0.52300
O 	O 	0.02410 0.70366 0.08520 -0.45300
O 	O 	0.08060 0.65563 0.03817 -0.57000
O 	O 	0.90730 0.65521 0.95580 -0.57600
O 	O 	0.95530 0.61076 0.90357 -0.44500
O 	O 	0.19520 0.54570 0.02925 -0.46200
O 	O 	0.09730 0.48600 0.04019 -0.57100
O 	O 	0.03500 0.42886 0.95198 -0.51900
O 	O 	0.07910 0.51018 0.93661 -0.50200
N 	N 	0.28330 0.92098 0.18533 -0.21700
N 	N 	0.42170 0.74591 0.13631 -0.21900
N 	N 	0.78350 0.94658 0.13125 -0.21900
N 	N 	0.57280 0.91648 0.86867 -0.21700
N 	N 	0.23250 0.70190 0.84410 -0.21900
N 	N 	0.24900 0.58610 0.20224 -0.22100
N 	N 	0.73730 0.74510 0.80241 -0.22500
N 	N 	0.41140 0.42175 0.14067 -0.22100
N 	N 	0.24130 0.38720 0.85540 -0.22000
C 	C 	0.29990 0.91050 0.14450 0.00400
H 	H 	0.34940 0.88690 0.14490 0.01600
C 	C 	0.24850 0.93250 0.10184 -0.01400
H 	H 	0.26330 0.92460 0.07380 0.05500
C 	C 	0.17510 0.96610 0.10070 -0.11200
C 	C 	0.15960 0.97880 0.14290 -0.00500
H 	H 	0.11180 0.00330 0.14350 0.02900
C 	C 	0.21400 0.95560 0.18400 0.00500
H 	H 	0.20230 0.96430 0.21280 0.02700
C 	C 	0.11590 0.98980 0.05448 0.44700
C 	C 	0.42710 0.78580 0.10690 0.01300
H 	H 	0.48690 0.79880 0.10810 0.02700
C 	C 	0.34960 0.80840 0.07500 -0.02400
H 	H 	0.35620 0.83610 0.05440 0.05700
C 	C 	0.26190 0.79010 0.07349 -0.09000
C 	C 	0.25610 0.75100 0.10520 -0.02200
H 	H 	0.19710 0.73850 0.10600 0.06000
C 	C 	0.33690 0.73030 0.13580 0.01100
H 	H 	0.33200 0.70360 0.15760 0.01400
C 	C 	0.17450 0.81170 0.03846 0.43100
C 	C 	0.84020 0.97300 0.11220 0.03000
H 	H 	0.84600 0.01050 0.11650 -0.03200
C 	C 	0.89100 0.94820 0.08650 -0.04400
H 	H 	0.92970 0.96850 0.07310 0.02600
C 	C 	0.88440 0.89330 0.08066 -0.07400
C 	C 	0.82810 0.86550 0.10170 -0.03000
H 	H 	0.82360 0.82780 0.09930 0.05700
C 	C 	0.77870 0.89350 0.12610 0.02400
H 	H 	0.73950 0.87410 0.13980 0.01700
C 	C 	0.93800 0.86460 0.05247 0.41500
C 	C 	0.65760 0.93310 0.86880 0.00800
H 	H 	0.66190 0.96530 0.85270 0.01600
C 	C 	0.73900 0.90600 0.89110 -0.02100
H 	H 	0.79750 0.91960 0.89070 0.04000
C 	C 	0.73400 0.85870 0.91400 -0.09200
C 	C 	0.64690 0.84040 0.91340 -0.02900
H 	H 	0.64080 0.80790 0.92870 0.06500
C 	C 	0.56910 0.87000 0.89030 0.01900
H 	H 	0.50980 0.85680 0.88980 0.02300
C 	C 	0.82130 0.82720 0.93920 0.42000
C 	C 	0.23370 0.75470 0.85230 0.01400
H 	H 	0.27430 0.77670 0.84160 0.01800
C 	C 	0.17810 0.77800 0.87570 -0.01400
H 	H 	0.18080 0.81540 0.88130 0.04200
C 	C 	0.11840 0.74640 0.89100 -0.10400
C 	C 	0.11090 0.69350 0.87875 -0.03000
H 	H 	0.06600 0.67140 0.88600 0.03900
C 	C 	0.16950 0.67290 0.85570 0.01900
H 	H 	0.16460 0.63610 0.84780 0.01000
C 	C 	0.06440 0.77060 0.92119 0.44200
C 	C 	0.17620 0.61650 0.20330 0.03100
H 	H 	0.16320 0.61970 0.23240 0.01100
C 	C 	0.11970 0.64330 0.16490 -0.03700
H 	H 	0.06910 0.66420 0.16760 0.06400
C 	C 	0.13770 0.63910 0.12200 -0.06200
C 	C 	0.21430 0.61010 0.12050 -0.05200
H 	H 	0.23050 0.60810 0.09220 0.05900
C 	C 	0.26760 0.58380 0.16090 0.02200
H 	H 	0.31950 0.56330 0.15920 0.01200
C 	C 	0.07630 0.66780 0.07890 0.35400
C 	C 	0.71670 0.73820 0.84230 0.02600
H 	H 	0.66420 0.75650 0.84600 0.00500
C 	C 	0.76750 0.70580 0.87889 -0.05800
H 	H 	0.75010 0.70190 0.90680 0.05200
C 	C 	0.84400 0.67910 0.87393 -0.06000
C 	C 	0.86270 0.68330 0.83150 -0.03900
H 	H 	0.91170 0.66320 0.82600 0.07000
C 	C 	0.80950 0.71690 0.79740 0.02700
H 	H 	0.82440 0.72040 0.76870 0.01400
C 	C 	0.90640 0.64590 0.91334 0.33700
C 	C 	0.42030 0.45240 0.10530 0.02700
H 	H 	0.47990 0.45540 0.10100 0.01600
C 	C 	0.34690 0.47980 0.07490 -0.03600
H 	H 	0.35590 0.50160 0.05050 0.06600
C 	C 	0.25950 0.47470 0.08080 -0.07300
C 	C 	0.25040 0.44520 0.11760 -0.04500
H 	H 	0.19170 0.44230 0.12310 0.06400
C 	C 	0.32780 0.41940 0.14706 0.01500
H 	H 	0.32110 0.39920 0.17280 0.00900
C 	C 	0.17850 0.50410 0.04752 0.38300
C 	C 	0.17990 0.36010 0.86900 0.02200
H 	H 	0.17250 0.32320 0.86140 0.00700
C 	C 	0.12570 0.38230 0.89370 -0.03200
H 	H 	0.08380 0.36050 0.90370 0.04000
C 	C 	0.13180 0.43540 0.90390 -0.09200
C 	C 	0.19580 0.46450 0.88960 -0.01700
H 	H 	0.20210 0.50180 0.89560 0.05200
C 	C 	0.25050 0.43940 0.86670 0.01200
H 	H 	0.29650 0.45960 0.85840 0.02600
C 	C 	0.07700 0.46080 0.93270 0.42800
