data_crystal

_cell_length_a 30.33200
_cell_length_b 46.35400
_cell_length_c 18.13000
_cell_angle_alpha 90.00000
_cell_angle_beta  116.72900
_cell_angle_gamma 90.00000

_symmetry_space_group_name_	'P 1'
_symmetry_space_group_name_H-M	'P 1'

loop_
_symmetry_equiv_pos_as_xyz
  x,y,z

loop_
_atom_site_label
_atom_site_type_symbol
_atom_site_fract_x
_atom_site_fract_y
_atom_site_fract_z
_atom_site_charge
Pr	Pr	0.92753 0.82788 0.76702 2.04000
Cu	Cu	0.69395 0.84907 0.08690 0.71300
Cu	Cu	0.76640 0.81957 0.08880 0.71200
Cu	Cu	0.74506 0.81331 0.20920 0.71200
Cu	Cu	0.68292 0.79328 0.06910 0.71300
Cu	Cu	0.14490 0.97192 0.80520 0.72300
I 	I 	0.21909 0.04797 0.77770 -0.63600
I 	I 	0.67573 0.82639 0.94319 -0.55300
I 	I 	0.77141 0.76705 0.14805 -0.58800
I 	I 	0.78741 0.86323 0.18995 -0.56900
I 	I 	0.65053 0.81931 0.16905 -0.58200
O 	O 	0.90950 0.84630 0.88540 -0.50000
O 	O 	0.86130 0.81330 0.80740 -0.47800
O 	O 	0.98850 0.80530 0.90040 -0.46000
O 	O 	0.00910 0.80280 0.79830 -0.42300
O 	O 	0.84850 0.82280 0.63580 -0.44600
O 	O 	0.91430 0.81150 0.62380 -0.40600
O 	O 	0.99400 0.86530 0.84760 -0.47600
O 	O 	0.97830 0.86040 0.71570 -0.39400
N 	N 	0.80900 0.82070 0.03060 -0.21300
C 	C 	0.84410 0.84200 0.04530 -0.02600
H 	H 	0.85290 0.85470 0.09080 0.03300
C 	C 	0.86630 0.84480 0.99320 0.02000
H 	H 	0.89030 0.85940 0.00320 0.01800
C 	C 	0.85340 0.82620 0.92650 -0.09200
C 	C 	0.81820 0.80480 0.91190 -0.01100
H 	H 	0.80940 0.79210 0.86630 0.05200
C 	C 	0.79600 0.80210 0.96390 0.00500
H 	H 	0.77200 0.78750 0.95390 0.02300
C 	C 	0.87490 0.82870 0.86610 0.37700
N 	N 	0.13320 0.73830 0.01330 -0.21800
C 	C 	0.10190 0.74870 0.04460 -0.00700
H 	H 	0.10600 0.74240 0.09710 0.01800
C 	C 	0.06480 0.76820 0.99900 -0.01900
H 	H 	0.04350 0.77520 0.02040 0.04300
C 	C 	0.05890 0.77740 0.92210 -0.03800
C 	C 	0.09020 0.76710 0.89080 -0.04400
H 	H 	0.08610 0.77330 0.83830 0.06500
C 	C 	0.12730 0.74750 0.93640 0.01800
H 	H 	0.14860 0.74050 0.91500 0.02300
C 	C 	0.01530 0.79780 0.86800 0.30100
N 	N 	0.78000 0.80910 0.33100 -0.21800
C 	C 	0.75960 0.81940 0.38090 0.01100
H 	H 	0.72590 0.82510 0.35690 0.01600
C 	C 	0.78840 0.82130 0.46580 -0.04200
H 	H 	0.77440 0.82840 0.49990 0.05500
C 	C 	0.83770 0.81300 0.50090 -0.05100
C 	C 	0.85810 0.80270 0.45110 -0.03900
H 	H 	0.89180 0.79700 0.47510 0.06400
C 	C 	0.82930 0.80070 0.36610 0.01200
H 	H 	0.84320 0.79370 0.33210 0.01300
C 	C 	0.86760 0.81620 0.58990 0.29500
N 	N 	0.10810 0.93640 0.81200 -0.21200
C 	C 	0.09540 0.93230 0.87600 0.00700
H 	H 	0.10980 0.94400 0.92400 0.01800
C 	C 	0.06170 0.91090 0.86980 -0.04800
H 	H 	0.05310 0.90810 0.91350 0.03800
C 	C 	0.04070 0.89370 0.79960 -0.03500
C 	C 	0.05340 0.89790 0.73560 -0.05200
H 	H 	0.03900 0.88610 0.68760 0.06900
C 	C 	0.08710 0.91920 0.74180 0.02400
H 	H 	0.09570 0.92210 0.69800 0.01100
C 	C 	0.00040 0.87140 0.78800 0.28700
N 	N 	0.65810 0.88610 0.06360 -0.21400
C 	C 	0.66470 0.90310 0.13090 -0.02300
H 	H 	0.68970 0.89840 0.18440 0.02600
C 	C 	0.63460 0.92700 0.11990 0.01200
H 	H 	0.63910 0.93860 0.16600 0.01100
C 	C 	0.59800 0.93380 0.04200 -0.14800
C 	C 	0.59140 0.91680 0.97430 0.01800
H 	H 	0.56630 0.92150 0.92080 0.00400
C 	C 	0.62140 0.89290 0.98530 -0.02000
H 	H 	0.61690 0.88130 0.93930 0.02300
O 	O 	0.53870 0.96790 0.95300 -0.53600
O 	O 	0.56480 0.96950 0.09600 -0.54200
C 	C 	0.56630 0.95770 0.03000 0.36500
Pr	Pr	0.42753 0.32788 0.76702 2.04100
Cu	Cu	0.19395 0.34907 0.08690 0.71400
Cu	Cu	0.26640 0.31957 0.08880 0.71300
Cu	Cu	0.24506 0.31331 0.20920 0.71300
Cu	Cu	0.18292 0.29328 0.06910 0.71300
Cu	Cu	0.64490 0.47192 0.80520 0.72200
I 	I 	0.71909 0.54797 0.77770 -0.63500
I 	I 	0.17573 0.32639 0.94319 -0.55300
I 	I 	0.27141 0.26705 0.14805 -0.58900
I 	I 	0.28741 0.36323 0.18995 -0.56900
I 	I 	0.15053 0.31931 0.16905 -0.58400
O 	O 	0.40950 0.34630 0.88540 -0.50100
O 	O 	0.36130 0.31330 0.80740 -0.47900
O 	O 	0.48850 0.30530 0.90040 -0.46600
O 	O 	0.50910 0.30280 0.79830 -0.42200
O 	O 	0.34850 0.32280 0.63580 -0.44600
O 	O 	0.41430 0.31150 0.62380 -0.40700
O 	O 	0.49400 0.36530 0.84760 -0.48600
O 	O 	0.47830 0.36040 0.71570 -0.40300
N 	N 	0.30900 0.32070 0.03060 -0.21300
C 	C 	0.34410 0.34200 0.04530 -0.02900
H 	H 	0.35290 0.35470 0.09080 0.03400
C 	C 	0.36630 0.34480 0.99320 0.02500
H 	H 	0.39030 0.35940 0.00320 0.01400
C 	C 	0.35340 0.32620 0.92650 -0.09500
C 	C 	0.31820 0.30480 0.91190 -0.01000
H 	H 	0.30940 0.29210 0.86630 0.05200
C 	C 	0.29600 0.30210 0.96390 0.00500
H 	H 	0.27200 0.28750 0.95390 0.02300
C 	C 	0.37490 0.32870 0.86610 0.37800
N 	N 	0.63320 0.23830 0.01330 -0.21700
C 	C 	0.60190 0.24870 0.04460 -0.00500
H 	H 	0.60600 0.24240 0.09710 0.01800
C 	C 	0.56480 0.26820 0.99900 -0.02100
H 	H 	0.54350 0.27520 0.02040 0.04600
C 	C 	0.55890 0.27740 0.92210 -0.03800
C 	C 	0.59020 0.26710 0.89080 -0.04400
H 	H 	0.58610 0.27330 0.83830 0.06500
C 	C 	0.62730 0.24750 0.93640 0.01800
H 	H 	0.64860 0.24050 0.91500 0.02400
C 	C 	0.51530 0.29780 0.86800 0.30700
N 	N 	0.28000 0.30910 0.33100 -0.21800
C 	C 	0.25960 0.31940 0.38090 0.01000
H 	H 	0.22590 0.32510 0.35690 0.01500
C 	C 	0.28840 0.32130 0.46580 -0.04100
H 	H 	0.27440 0.32840 0.49990 0.05500
C 	C 	0.33770 0.31300 0.50090 -0.05200
C 	C 	0.35810 0.30270 0.45110 -0.03900
H 	H 	0.39180 0.29700 0.47510 0.06300
C 	C 	0.32930 0.30070 0.36610 0.01200
H 	H 	0.34320 0.29370 0.33210 0.01300
C 	C 	0.36760 0.31620 0.58990 0.29500
N 	N 	0.60810 0.43640 0.81200 -0.21200
C 	C 	0.59540 0.43230 0.87600 0.00600
H 	H 	0.60980 0.44400 0.92400 0.01800
C 	C 	0.56170 0.41090 0.86980 -0.04500
H 	H 	0.55310 0.40810 0.91350 0.03800
C 	C 	0.54070 0.39370 0.79960 -0.03900
C 	C 	0.55340 0.39790 0.73560 -0.04900
H 	H 	0.53900 0.38610 0.68760 0.06900
C 	C 	0.58710 0.41920 0.74180 0.02300
H 	H 	0.59570 0.42210 0.69800 0.01100
C 	C 	0.50040 0.37140 0.78800 0.30300
N 	N 	0.15810 0.38610 0.06360 -0.21400
C 	C 	0.16470 0.40310 0.13090 -0.02400
H 	H 	0.18970 0.39840 0.18440 0.02600
C 	C 	0.13460 0.42700 0.11990 0.01300
H 	H 	0.13910 0.43860 0.16600 0.01000
C 	C 	0.09800 0.43380 0.04200 -0.15000
C 	C 	0.09140 0.41680 0.97430 0.01900
H 	H 	0.06630 0.42150 0.92080 0.00300
C 	C 	0.12140 0.39290 0.98530 -0.02000
H 	H 	0.11690 0.38130 0.93930 0.02200
O 	O 	0.03870 0.46790 0.95300 -0.54000
O 	O 	0.06480 0.46950 0.09600 -0.54500
C 	C 	0.06630 0.45770 0.03000 0.36500
Pr	Pr	0.07247 0.82788 0.23298 2.04000
Cu	Cu	0.30605 0.84907 0.91310 0.71800
Cu	Cu	0.23360 0.81957 0.91120 0.71600
Cu	Cu	0.25494 0.81331 0.79080 0.71200
Cu	Cu	0.31708 0.79328 0.93090 0.71800
Cu	Cu	0.85510 0.97192 0.19480 0.72300
I 	I 	0.78091 0.04797 0.22230 -0.63700
I 	I 	0.32427 0.82639 0.05681 -0.57200
I 	I 	0.22859 0.76705 0.85195 -0.58300
I 	I 	0.21259 0.86323 0.81005 -0.56600
I 	I 	0.34947 0.81931 0.83095 -0.57600
O 	O 	0.09050 0.84630 0.11460 -0.50400
O 	O 	0.13870 0.81330 0.19260 -0.47700
O 	O 	0.01150 0.80530 0.09960 -0.47500
O 	O 	0.99090 0.80280 0.20170 -0.41900
O 	O 	0.15150 0.82280 0.36420 -0.44700
O 	O 	0.08570 0.81150 0.37620 -0.40900
O 	O 	0.00600 0.86530 0.15240 -0.50000
O 	O 	0.02170 0.86040 0.28430 -0.41400
N 	N 	0.19100 0.82070 0.96940 -0.21100
C 	C 	0.15590 0.84200 0.95470 0.02900
H 	H 	0.14710 0.85470 0.90920 0.01600
C 	C 	0.13370 0.84480 0.00680 -0.06300
H 	H 	0.10970 0.85940 0.99680 0.05600
C 	C 	0.14660 0.82620 0.07350 -0.06700
C 	C 	0.18180 0.80480 0.08810 -0.02500
H 	H 	0.19060 0.79210 0.13370 0.05600
C 	C 	0.20400 0.80210 0.03610 -0.00500
H 	H 	0.22800 0.78750 0.04610 0.02200
C 	C 	0.12510 0.82870 0.13390 0.36500
N 	N 	0.86680 0.73830 0.98670 -0.21500
C 	C 	0.89810 0.74870 0.95540 0.04800
H 	H 	0.89400 0.74240 0.90290 0.00300
C 	C 	0.93520 0.76820 0.00100 -0.09900
H 	H 	0.95650 0.77520 0.97960 0.08600
C 	C 	0.94110 0.77740 0.07790 -0.01400
C 	C 	0.90980 0.76710 0.10920 -0.05500
H 	H 	0.91390 0.77330 0.16170 0.06800
C 	C 	0.87270 0.74750 0.06360 0.00700
H 	H 	0.85140 0.74050 0.08500 0.02400
C 	C 	0.98470 0.79780 0.13200 0.30600
N 	N 	0.22000 0.80910 0.66900 -0.21800
C 	C 	0.24040 0.81940 0.61910 0.01000
H 	H 	0.27410 0.82510 0.64310 0.01600
C 	C 	0.21160 0.82130 0.53420 -0.04100
H 	H 	0.22560 0.82840 0.50010 0.05400
C 	C 	0.16230 0.81300 0.49910 -0.05200
C 	C 	0.14190 0.80270 0.54890 -0.03800
H 	H 	0.10820 0.79700 0.52490 0.06200
C 	C 	0.17070 0.80070 0.63390 0.01200
H 	H 	0.15680 0.79370 0.66790 0.01200
C 	C 	0.13240 0.81620 0.41010 0.29600
N 	N 	0.89190 0.93640 0.18800 -0.21100
C 	C 	0.90460 0.93230 0.12400 0.00400
H 	H 	0.89020 0.94400 0.07600 0.01800
C 	C 	0.93830 0.91090 0.13020 -0.04100
H 	H 	0.94690 0.90810 0.08650 0.03500
C 	C 	0.95930 0.89370 0.20040 -0.04500
C 	C 	0.94660 0.89790 0.26440 -0.04500
H 	H 	0.96100 0.88610 0.31240 0.07000
C 	C 	0.91290 0.91920 0.25820 0.02100
H 	H 	0.90430 0.92210 0.30200 0.01300
C 	C 	0.99960 0.87140 0.21200 0.32200
N 	N 	0.34190 0.88610 0.93640 -0.20500
C 	C 	0.33530 0.90310 0.86910 -0.01600
H 	H 	0.31030 0.89840 0.81560 0.02400
C 	C 	0.36540 0.92700 0.88010 0.00500
H 	H 	0.36090 0.93860 0.83400 0.01400
C 	C 	0.40200 0.93380 0.95800 -0.12700
C 	C 	0.40860 0.91680 0.02570 -0.00600
H 	H 	0.43370 0.92150 0.07920 0.00900
C 	C 	0.37860 0.89290 0.01470 -0.03200
H 	H 	0.38310 0.88130 0.06070 0.02300
O 	O 	0.46130 0.96790 0.04700 -0.55200
O 	O 	0.43520 0.96950 0.90400 -0.54200
C 	C 	0.43370 0.95770 0.97000 0.37900
Pr	Pr	0.57247 0.32788 0.23298 2.04000
Cu	Cu	0.80605 0.34907 0.91310 0.71800
Cu	Cu	0.73360 0.31957 0.91120 0.71600
Cu	Cu	0.75494 0.31331 0.79080 0.71200
Cu	Cu	0.81708 0.29328 0.93090 0.71800
Cu	Cu	0.35510 0.47192 0.19480 0.72200
I 	I 	0.28091 0.54797 0.22230 -0.63700
I 	I 	0.82427 0.32639 0.05681 -0.57100
I 	I 	0.72859 0.26705 0.85195 -0.58300
I 	I 	0.71259 0.36323 0.81005 -0.56600
I 	I 	0.84947 0.31931 0.83095 -0.57500
O 	O 	0.59050 0.34630 0.11460 -0.50400
O 	O 	0.63870 0.31330 0.19260 -0.47700
O 	O 	0.51150 0.30530 0.09960 -0.46700
O 	O 	0.49090 0.30280 0.20170 -0.42000
O 	O 	0.65150 0.32280 0.36420 -0.44700
O 	O 	0.58570 0.31150 0.37620 -0.40800
O 	O 	0.50600 0.36530 0.15240 -0.48900
O 	O 	0.52170 0.36040 0.28430 -0.40400
N 	N 	0.69100 0.32070 0.96940 -0.21100
C 	C 	0.65590 0.34200 0.95470 0.02700
H 	H 	0.64710 0.35470 0.90920 0.01700
C 	C 	0.63370 0.34480 0.00680 -0.06000
H 	H 	0.60970 0.35940 0.99680 0.05500
C 	C 	0.64660 0.32620 0.07350 -0.06700
C 	C 	0.68180 0.30480 0.08810 -0.02400
H 	H 	0.69060 0.29210 0.13370 0.05600
C 	C 	0.70400 0.30210 0.03610 -0.00500
H 	H 	0.72800 0.28750 0.04610 0.02200
C 	C 	0.62510 0.32870 0.13390 0.36500
N 	N 	0.36680 0.23830 0.98670 -0.21500
C 	C 	0.39810 0.24870 0.95540 0.05200
H 	H 	0.39400 0.24240 0.90290 0.00100
C 	C 	0.43520 0.26820 0.00100 -0.10600
H 	H 	0.45650 0.27520 0.97960 0.08800
C 	C 	0.44110 0.27740 0.07790 -0.01100
C 	C 	0.40980 0.26710 0.10920 -0.05800
H 	H 	0.41390 0.27330 0.16170 0.06900
C 	C 	0.37270 0.24750 0.06360 0.00700
H 	H 	0.35140 0.24050 0.08500 0.02400
C 	C 	0.48470 0.29780 0.13200 0.29600
N 	N 	0.72000 0.30910 0.66900 -0.21800
C 	C 	0.74040 0.31940 0.61910 0.01000
H 	H 	0.77410 0.32510 0.64310 0.01600
C 	C 	0.71160 0.32130 0.53420 -0.04100
H 	H 	0.72560 0.32840 0.50010 0.05500
C 	C 	0.66230 0.31300 0.49910 -0.05200
C 	C 	0.64190 0.30270 0.54890 -0.03900
H 	H 	0.60820 0.29700 0.52490 0.06300
C 	C 	0.67070 0.30070 0.63390 0.01200
H 	H 	0.65680 0.29370 0.66790 0.01300
C 	C 	0.63240 0.31620 0.41010 0.29600
N 	N 	0.39190 0.43640 0.18800 -0.21200
C 	C 	0.40460 0.43230 0.12400 0.00500
H 	H 	0.39020 0.44400 0.07600 0.01600
C 	C 	0.43830 0.41090 0.13020 -0.04500
H 	H 	0.44690 0.40810 0.08650 0.03500
C 	C 	0.45930 0.39370 0.20040 -0.04100
C 	C 	0.44660 0.39790 0.26440 -0.04800
H 	H 	0.46100 0.38610 0.31240 0.06900
C 	C 	0.41290 0.41920 0.25820 0.02200
H 	H 	0.40430 0.42210 0.30200 0.01200
C 	C 	0.49960 0.37140 0.21200 0.30300
N 	N 	0.84190 0.38610 0.93640 -0.20500
C 	C 	0.83530 0.40310 0.86910 -0.01600
H 	H 	0.81030 0.39840 0.81560 0.02400
C 	C 	0.86540 0.42700 0.88010 0.00600
H 	H 	0.86090 0.43860 0.83400 0.01400
C 	C 	0.90200 0.43380 0.95800 -0.12800
C 	C 	0.90860 0.41680 0.02570 -0.00500
H 	H 	0.93370 0.42150 0.07920 0.00900
C 	C 	0.87860 0.39290 0.01470 -0.03100
H 	H 	0.88310 0.38130 0.06070 0.02300
O 	O 	0.96130 0.46790 0.04700 -0.54900
O 	O 	0.93520 0.46950 0.90400 -0.54200
C 	C 	0.93370 0.45770 0.97000 0.37800
Pr	Pr	0.07247 0.17212 0.23298 2.03900
Cu	Cu	0.30605 0.15093 0.91310 0.71800
Cu	Cu	0.23360 0.18043 0.91120 0.71600
Cu	Cu	0.25494 0.18669 0.79080 0.71200
Cu	Cu	0.31708 0.20672 0.93090 0.71800
Cu	Cu	0.85510 0.02808 0.19480 0.72100
I 	I 	0.78091 0.95203 0.22230 -0.63400
I 	I 	0.32427 0.17361 0.05681 -0.57300
I 	I 	0.22859 0.23295 0.85195 -0.58300
I 	I 	0.21259 0.13677 0.81005 -0.56700
I 	I 	0.34947 0.18069 0.83095 -0.57600
O 	O 	0.09050 0.15370 0.11460 -0.50500
O 	O 	0.13870 0.18670 0.19260 -0.47700
O 	O 	0.01150 0.19470 0.09960 -0.47500
O 	O 	0.99090 0.19720 0.20170 -0.41900
O 	O 	0.15150 0.17720 0.36420 -0.44700
O 	O 	0.08570 0.18850 0.37620 -0.40900
O 	O 	0.00600 0.13470 0.15240 -0.50000
O 	O 	0.02170 0.13960 0.28430 -0.41400
N 	N 	0.19100 0.17930 0.96940 -0.21100
C 	C 	0.15590 0.15800 0.95470 0.02900
H 	H 	0.14710 0.14530 0.90920 0.01600
C 	C 	0.13370 0.15520 0.00680 -0.06300
H 	H 	0.10970 0.14060 0.99680 0.05600
C 	C 	0.14660 0.17380 0.07350 -0.06700
C 	C 	0.18180 0.19520 0.08810 -0.02500
H 	H 	0.19060 0.20790 0.13370 0.05600
C 	C 	0.20400 0.19790 0.03610 -0.00500
H 	H 	0.22800 0.21250 0.04610 0.02200
C 	C 	0.12510 0.17130 0.13390 0.36500
N 	N 	0.86680 0.26170 0.98670 -0.21500
C 	C 	0.89810 0.25130 0.95540 0.04800
H 	H 	0.89400 0.25760 0.90290 0.00300
C 	C 	0.93520 0.23180 0.00100 -0.09900
H 	H 	0.95650 0.22480 0.97960 0.08600
C 	C 	0.94110 0.22260 0.07790 -0.01400
C 	C 	0.90980 0.23290 0.10920 -0.05500
H 	H 	0.91390 0.22670 0.16170 0.06800
C 	C 	0.87270 0.25250 0.06360 0.00700
H 	H 	0.85140 0.25950 0.08500 0.02400
C 	C 	0.98470 0.20220 0.13200 0.30600
N 	N 	0.22000 0.19090 0.66900 -0.21800
C 	C 	0.24040 0.18060 0.61910 0.01000
H 	H 	0.27410 0.17490 0.64310 0.01600
C 	C 	0.21160 0.17870 0.53420 -0.04100
H 	H 	0.22560 0.17160 0.50010 0.05400
C 	C 	0.16230 0.18700 0.49910 -0.05300
C 	C 	0.14190 0.19730 0.54890 -0.03800
H 	H 	0.10820 0.20300 0.52490 0.06200
C 	C 	0.17070 0.19930 0.63390 0.01100
H 	H 	0.15680 0.20630 0.66790 0.01200
C 	C 	0.13240 0.18380 0.41010 0.29600
N 	N 	0.89190 0.06360 0.18800 -0.21100
C 	C 	0.90460 0.06770 0.12400 0.00300
H 	H 	0.89020 0.05600 0.07600 0.01700
C 	C 	0.93830 0.08910 0.13020 -0.04200
H 	H 	0.94690 0.09190 0.08650 0.03500
C 	C 	0.95930 0.10630 0.20040 -0.04500
C 	C 	0.94660 0.10210 0.26440 -0.04500
H 	H 	0.96100 0.11390 0.31240 0.06900
C 	C 	0.91290 0.08080 0.25820 0.02100
H 	H 	0.90430 0.07790 0.30200 0.01300
C 	C 	0.99960 0.12860 0.21200 0.32200
N 	N 	0.34190 0.11390 0.93640 -0.20500
C 	C 	0.33530 0.09690 0.86910 -0.01700
H 	H 	0.31030 0.10160 0.81560 0.02400
C 	C 	0.36540 0.07300 0.88010 0.00600
H 	H 	0.36090 0.06140 0.83400 0.01300
C 	C 	0.40200 0.06620 0.95800 -0.12800
C 	C 	0.40860 0.08320 0.02570 -0.00600
H 	H 	0.43370 0.07850 0.07920 0.00800
C 	C 	0.37860 0.10710 0.01470 -0.03200
H 	H 	0.38310 0.11870 0.06070 0.02300
O 	O 	0.46130 0.03210 0.04700 -0.55400
O 	O 	0.43520 0.03050 0.90400 -0.54400
C 	C 	0.43370 0.04230 0.97000 0.37900
Pr	Pr	0.57247 0.67212 0.23298 2.04000
Cu	Cu	0.80605 0.65093 0.91310 0.71800
Cu	Cu	0.73360 0.68043 0.91120 0.71600
Cu	Cu	0.75494 0.68669 0.79080 0.71200
Cu	Cu	0.81708 0.70672 0.93090 0.71800
Cu	Cu	0.35510 0.52808 0.19480 0.72200
I 	I 	0.28091 0.45203 0.22230 -0.63700
I 	I 	0.82427 0.67361 0.05681 -0.57100
I 	I 	0.72859 0.73295 0.85195 -0.58300
I 	I 	0.71259 0.63677 0.81005 -0.56600
I 	I 	0.84947 0.68069 0.83095 -0.57500
O 	O 	0.59050 0.65370 0.11460 -0.50400
O 	O 	0.63870 0.68670 0.19260 -0.47700
O 	O 	0.51150 0.69470 0.09960 -0.46700
O 	O 	0.49090 0.69720 0.20170 -0.42000
O 	O 	0.65150 0.67720 0.36420 -0.44700
O 	O 	0.58570 0.68850 0.37620 -0.40800
O 	O 	0.50600 0.63470 0.15240 -0.48900
O 	O 	0.52170 0.63960 0.28430 -0.40400
N 	N 	0.69100 0.67930 0.96940 -0.21100
C 	C 	0.65590 0.65800 0.95470 0.02700
H 	H 	0.64710 0.64530 0.90920 0.01700
C 	C 	0.63370 0.65520 0.00680 -0.06000
H 	H 	0.60970 0.64060 0.99680 0.05500
C 	C 	0.64660 0.67380 0.07350 -0.06700
C 	C 	0.68180 0.69520 0.08810 -0.02400
H 	H 	0.69060 0.70790 0.13370 0.05600
C 	C 	0.70400 0.69790 0.03610 -0.00500
H 	H 	0.72800 0.71250 0.04610 0.02200
C 	C 	0.62510 0.67130 0.13390 0.36500
N 	N 	0.36680 0.76170 0.98670 -0.21500
C 	C 	0.39810 0.75130 0.95540 0.05200
H 	H 	0.39400 0.75760 0.90290 0.00100
C 	C 	0.43520 0.73180 0.00100 -0.10600
H 	H 	0.45650 0.72480 0.97960 0.08800
C 	C 	0.44110 0.72260 0.07790 -0.01100
C 	C 	0.40980 0.73290 0.10920 -0.05800
H 	H 	0.41390 0.72670 0.16170 0.06900
C 	C 	0.37270 0.75250 0.06360 0.00700
H 	H 	0.35140 0.75950 0.08500 0.02400
C 	C 	0.48470 0.70220 0.13200 0.29600
N 	N 	0.72000 0.69090 0.66900 -0.21800
C 	C 	0.74040 0.68060 0.61910 0.01000
H 	H 	0.77410 0.67490 0.64310 0.01600
C 	C 	0.71160 0.67870 0.53420 -0.04100
H 	H 	0.72560 0.67160 0.50010 0.05500
C 	C 	0.66230 0.68700 0.49910 -0.05200
C 	C 	0.64190 0.69730 0.54890 -0.03900
H 	H 	0.60820 0.70300 0.52490 0.06300
C 	C 	0.67070 0.69930 0.63390 0.01200
H 	H 	0.65680 0.70630 0.66790 0.01300
C 	C 	0.63240 0.68380 0.41010 0.29600
N 	N 	0.39190 0.56360 0.18800 -0.21200
C 	C 	0.40460 0.56770 0.12400 0.00500
H 	H 	0.39020 0.55600 0.07600 0.01600
C 	C 	0.43830 0.58910 0.13020 -0.04500
H 	H 	0.44690 0.59190 0.08650 0.03500
C 	C 	0.45930 0.60630 0.20040 -0.04100
C 	C 	0.44660 0.60210 0.26440 -0.04800
H 	H 	0.46100 0.61390 0.31240 0.06900
C 	C 	0.41290 0.58080 0.25820 0.02200
H 	H 	0.40430 0.57790 0.30200 0.01200
C 	C 	0.49960 0.62860 0.21200 0.30300
N 	N 	0.84190 0.61390 0.93640 -0.20500
C 	C 	0.83530 0.59690 0.86910 -0.01600
H 	H 	0.81030 0.60160 0.81560 0.02400
C 	C 	0.86540 0.57300 0.88010 0.00600
H 	H 	0.86090 0.56140 0.83400 0.01400
C 	C 	0.90200 0.56620 0.95800 -0.12800
C 	C 	0.90860 0.58320 0.02570 -0.00500
H 	H 	0.93370 0.57850 0.07920 0.00900
C 	C 	0.87860 0.60710 0.01470 -0.03100
H 	H 	0.88310 0.61870 0.06070 0.02300
O 	O 	0.96130 0.53210 0.04700 -0.54900
O 	O 	0.93520 0.53050 0.90400 -0.54200
C 	C 	0.93370 0.54230 0.97000 0.37800
Pr	Pr	0.92753 0.17212 0.76702 2.04100
Cu	Cu	0.69395 0.15093 0.08690 0.71400
Cu	Cu	0.76640 0.18043 0.08880 0.71300
Cu	Cu	0.74506 0.18669 0.20920 0.71300
Cu	Cu	0.68292 0.20672 0.06910 0.71300
Cu	Cu	0.14490 0.02808 0.80520 0.72200
I 	I 	0.21909 0.95203 0.77770 -0.63200
I 	I 	0.67573 0.17361 0.94319 -0.55300
I 	I 	0.77141 0.23295 0.14805 -0.58800
I 	I 	0.78741 0.13677 0.18995 -0.56900
I 	I 	0.65053 0.18069 0.16905 -0.58200
O 	O 	0.90950 0.15370 0.88540 -0.50000
O 	O 	0.86130 0.18670 0.80740 -0.47900
O 	O 	0.98850 0.19470 0.90040 -0.46000
O 	O 	0.00910 0.19720 0.79830 -0.42300
O 	O 	0.84850 0.17720 0.63580 -0.44600
O 	O 	0.91430 0.18850 0.62380 -0.40600
O 	O 	0.99400 0.13470 0.84760 -0.47600
O 	O 	0.97830 0.13960 0.71570 -0.39500
N 	N 	0.80900 0.17930 0.03060 -0.21300
C 	C 	0.84410 0.15800 0.04530 -0.02600
H 	H 	0.85290 0.14530 0.09080 0.03300
C 	C 	0.86630 0.15520 0.99320 0.02000
H 	H 	0.89030 0.14060 0.00320 0.01700
C 	C 	0.85340 0.17380 0.92650 -0.09200
C 	C 	0.81820 0.19520 0.91190 -0.01100
H 	H 	0.80940 0.20790 0.86630 0.05200
C 	C 	0.79600 0.19790 0.96390 0.00500
H 	H 	0.77200 0.21250 0.95390 0.02300
C 	C 	0.87490 0.17130 0.86610 0.37700
N 	N 	0.13320 0.26170 0.01330 -0.21800
C 	C 	0.10190 0.25130 0.04460 -0.00700
H 	H 	0.10600 0.25760 0.09710 0.01800
C 	C 	0.06480 0.23180 0.99900 -0.01900
H 	H 	0.04350 0.22480 0.02040 0.04300
C 	C 	0.05890 0.22260 0.92210 -0.03800
C 	C 	0.09020 0.23290 0.89080 -0.04400
H 	H 	0.08610 0.22670 0.83830 0.06500
C 	C 	0.12730 0.25250 0.93640 0.01800
H 	H 	0.14860 0.25950 0.91500 0.02300
C 	C 	0.01530 0.20220 0.86800 0.30100
N 	N 	0.78000 0.19090 0.33100 -0.21800
C 	C 	0.75960 0.18060 0.38090 0.01100
H 	H 	0.72590 0.17490 0.35690 0.01600
C 	C 	0.78840 0.17870 0.46580 -0.04200
H 	H 	0.77440 0.17160 0.49990 0.05500
C 	C 	0.83770 0.18700 0.50090 -0.05100
C 	C 	0.85810 0.19730 0.45110 -0.03900
H 	H 	0.89180 0.20300 0.47510 0.06400
C 	C 	0.82930 0.19930 0.36610 0.01200
H 	H 	0.84320 0.20630 0.33210 0.01300
C 	C 	0.86760 0.18380 0.58990 0.29500
N 	N 	0.10810 0.06360 0.81200 -0.21200
C 	C 	0.09540 0.06770 0.87600 0.00700
H 	H 	0.10980 0.05600 0.92400 0.01700
C 	C 	0.06170 0.08910 0.86980 -0.04800
H 	H 	0.05310 0.09190 0.91350 0.03700
C 	C 	0.04070 0.10630 0.79960 -0.03500
C 	C 	0.05340 0.10210 0.73560 -0.05200
H 	H 	0.03900 0.11390 0.68760 0.06900
C 	C 	0.08710 0.08080 0.74180 0.02300
H 	H 	0.09570 0.07790 0.69800 0.01100
C 	C 	0.00040 0.12860 0.78800 0.28700
N 	N 	0.65810 0.11390 0.06360 -0.21400
C 	C 	0.66470 0.09690 0.13090 -0.02300
H 	H 	0.68970 0.10160 0.18440 0.02600
C 	C 	0.63460 0.07300 0.11990 0.01200
H 	H 	0.63910 0.06140 0.16600 0.01100
C 	C 	0.59800 0.06620 0.04200 -0.14900
C 	C 	0.59140 0.08320 0.97430 0.01800
H 	H 	0.56630 0.07850 0.92080 0.00400
C 	C 	0.62140 0.10710 0.98530 -0.02000
H 	H 	0.61690 0.11870 0.93930 0.02300
O 	O 	0.53870 0.03210 0.95300 -0.53800
O 	O 	0.56480 0.03050 0.09600 -0.54400
C 	C 	0.56630 0.04230 0.03000 0.36500
Pr	Pr	0.42753 0.67212 0.76702 2.04100
Cu	Cu	0.19395 0.65093 0.08690 0.71400
Cu	Cu	0.26640 0.68043 0.08880 0.71300
Cu	Cu	0.24506 0.68669 0.20920 0.71300
Cu	Cu	0.18292 0.70672 0.06910 0.71300
Cu	Cu	0.64490 0.52808 0.80520 0.72200
I 	I 	0.71909 0.45203 0.77770 -0.63400
I 	I 	0.17573 0.67361 0.94319 -0.55300
I 	I 	0.27141 0.73295 0.14805 -0.58900
I 	I 	0.28741 0.63677 0.18995 -0.57000
I 	I 	0.15053 0.68069 0.16905 -0.58400
O 	O 	0.40950 0.65370 0.88540 -0.50100
O 	O 	0.36130 0.68670 0.80740 -0.47900
O 	O 	0.48850 0.69470 0.90040 -0.46600
O 	O 	0.50910 0.69720 0.79830 -0.42200
O 	O 	0.34850 0.67720 0.63580 -0.44600
O 	O 	0.41430 0.68850 0.62380 -0.40700
O 	O 	0.49400 0.63470 0.84760 -0.48600
O 	O 	0.47830 0.63960 0.71570 -0.40300
N 	N 	0.30900 0.67930 0.03060 -0.21300
C 	C 	0.34410 0.65800 0.04530 -0.02900
H 	H 	0.35290 0.64530 0.09080 0.03400
C 	C 	0.36630 0.65520 0.99320 0.02500
H 	H 	0.39030 0.64060 0.00320 0.01400
C 	C 	0.35340 0.67380 0.92650 -0.09500
C 	C 	0.31820 0.69520 0.91190 -0.01000
H 	H 	0.30940 0.70790 0.86630 0.05200
C 	C 	0.29600 0.69790 0.96390 0.00500
H 	H 	0.27200 0.71250 0.95390 0.02300
C 	C 	0.37490 0.67130 0.86610 0.37800
N 	N 	0.63320 0.76170 0.01330 -0.21700
C 	C 	0.60190 0.75130 0.04460 -0.00500
H 	H 	0.60600 0.75760 0.09710 0.01800
C 	C 	0.56480 0.73180 0.99900 -0.02100
H 	H 	0.54350 0.72480 0.02040 0.04600
C 	C 	0.55890 0.72260 0.92210 -0.03800
C 	C 	0.59020 0.73290 0.89080 -0.04400
H 	H 	0.58610 0.72670 0.83830 0.06500
C 	C 	0.62730 0.75250 0.93640 0.01800
H 	H 	0.64860 0.75950 0.91500 0.02400
C 	C 	0.51530 0.70220 0.86800 0.30700
N 	N 	0.28000 0.69090 0.33100 -0.21800
C 	C 	0.25960 0.68060 0.38090 0.01000
H 	H 	0.22590 0.67490 0.35690 0.01500
C 	C 	0.28840 0.67870 0.46580 -0.04100
H 	H 	0.27440 0.67160 0.49990 0.05500
C 	C 	0.33770 0.68700 0.50090 -0.05200
C 	C 	0.35810 0.69730 0.45110 -0.03900
H 	H 	0.39180 0.70300 0.47510 0.06300
C 	C 	0.32930 0.69930 0.36610 0.01200
H 	H 	0.34320 0.70630 0.33210 0.01300
C 	C 	0.36760 0.68380 0.58990 0.29500
N 	N 	0.60810 0.56360 0.81200 -0.21200
C 	C 	0.59540 0.56770 0.87600 0.00600
H 	H 	0.60980 0.55600 0.92400 0.01800
C 	C 	0.56170 0.58910 0.86980 -0.04500
H 	H 	0.55310 0.59190 0.91350 0.03800
C 	C 	0.54070 0.60630 0.79960 -0.03900
C 	C 	0.55340 0.60210 0.73560 -0.04900
H 	H 	0.53900 0.61390 0.68760 0.06900
C 	C 	0.58710 0.58080 0.74180 0.02300
H 	H 	0.59570 0.57790 0.69800 0.01100
C 	C 	0.50040 0.62860 0.78800 0.30300
N 	N 	0.15810 0.61390 0.06360 -0.21400
C 	C 	0.16470 0.59690 0.13090 -0.02400
H 	H 	0.18970 0.60160 0.18440 0.02600
C 	C 	0.13460 0.57300 0.11990 0.01300
H 	H 	0.13910 0.56140 0.16600 0.01000
C 	C 	0.09800 0.56620 0.04200 -0.15000
C 	C 	0.09140 0.58320 0.97430 0.01900
H 	H 	0.06630 0.57850 0.92080 0.00300
C 	C 	0.12140 0.60710 0.98530 -0.02000
H 	H 	0.11690 0.61870 0.93930 0.02200
O 	O 	0.03870 0.53210 0.95300 -0.54000
O 	O 	0.06480 0.53050 0.09600 -0.54500
C 	C 	0.06630 0.54230 0.03000 0.36500
Cu	Cu	0.22670 -0.00000 0.85870 0.67500
Cu	Cu	0.17300 -0.00000 0.70220 0.69300
I 	I 	0.16822 -0.00000 0.94270 -0.62100
I 	I 	0.07900 -0.00000 0.66890 -0.60100
Pr	Pr	0.48013 -0.00000 0.86150 1.97600
Cu	Cu	0.72670 0.50000 0.85870 0.67600
Cu	Cu	0.67300 0.50000 0.70220 0.69400
I 	I 	0.66822 0.50000 0.94270 -0.61800
I 	I 	0.57900 0.50000 0.66890 -0.59500
Pr	Pr	0.98013 0.50000 0.86150 1.97900
Cu	Cu	0.77330 0.00000 0.14130 0.67400
Cu	Cu	0.82700 0.00000 0.29780 0.69300
I 	I 	0.83178 0.00000 0.05730 -0.62900
I 	I 	0.92100 -0.00000 0.33110 -0.59500
Pr	Pr	0.51987 -0.00000 0.13850 1.97500
Cu	Cu	0.27330 0.50000 0.14130 0.67500
Cu	Cu	0.32700 0.50000 0.29780 0.69400
I 	I 	0.33178 0.50000 0.05730 -0.62800
I 	I 	0.42100 0.50000 0.33110 -0.59600
Pr	Pr	0.01987 0.50000 0.13850 1.97300
K 	K 	-0.00000 0.85610 -0.00000 0.65100
K 	K 	0.50000 0.35610 -0.00000 0.65200
K 	K 	-0.00000 0.14390 -0.00000 0.65100
K 	K 	0.50000 0.64390 -0.00000 0.65200
