data_crystal

_cell_length_a 7.14220
_cell_length_b 21.21100
_cell_length_c 22.18100
_cell_angle_alpha 62.41200
_cell_angle_beta  81.39200
_cell_angle_gamma 89.53800

_symmetry_space_group_name_	'P 1'
_symmetry_space_group_name_H-M	'P 1'

loop_
_symmetry_equiv_pos_as_xyz
  x,y,z

loop_
_atom_site_label
_atom_site_type_symbol
_atom_site_fract_x
_atom_site_fract_y
_atom_site_fract_z
_atom_site_charge
Cd	Cd	0.16505 0.69050 0.56925 1.21700
Cd	Cd	0.66359 0.74660 0.56965 1.22700
Cd	Cd	0.25874 0.90729 0.01583 1.17800
Cd	Cd	0.83495 0.30950 0.43075 1.21600
Cd	Cd	0.33641 0.25340 0.43035 1.22600
Cd	Cd	0.74126 0.09271 0.98417 1.17800
H 	H 	0.89360 0.90890 0.91110 0.00400
H 	H 	0.13310 0.91560 0.82540 0.08100
H 	H 	0.73840 0.87170 0.73400 0.07400
H 	H 	0.50230 0.87470 0.81980 0.02700
H 	H 	0.99900 0.80550 0.71570 0.03800
H 	H 	0.48600 0.88690 0.58460 0.02600
H 	H 	0.27840 0.97180 0.70510 0.04500
H 	H 	0.41990 0.07600 0.60540 0.08100
H 	H 	0.66770 0.16240 0.56070 -0.00500
H 	H 	0.02730 0.01910 0.55220 0.01900
H 	H 	0.77840 0.93410 0.59410 0.08500
H 	H 	0.47030 0.56560 0.45250 0.01800
H 	H 	0.71590 0.52410 0.40380 0.08700
H 	H 	0.08560 0.65960 0.41340 0.09400
H 	H 	0.83780 0.70220 0.46030 -0.00900
H 	H 	0.01250 0.46080 0.41210 0.01400
H 	H 	0.50660 0.51250 0.28320 0.02600
H 	H 	0.21280 0.66610 0.30500 0.04300
H 	H 	0.36600 0.73040 0.19020 0.09300
H 	H 	0.76010 0.58840 0.26430 0.07900
H 	H 	0.99850 0.67300 0.19500 0.02000
H 	H 	0.60880 0.81740 0.11580 -0.01300
H 	H 	0.10640 0.09110 0.08890 0.00400
H 	H 	0.86690 0.08440 0.17460 0.08100
H 	H 	0.26160 0.12830 0.26600 0.07400
H 	H 	0.49770 0.12530 0.18020 0.02700
H 	H 	0.00100 0.19450 0.28430 0.03800
H 	H 	0.51400 0.11310 0.41540 0.02600
H 	H 	0.72160 0.02820 0.29490 0.04500
H 	H 	0.58010 0.92400 0.39460 0.08100
H 	H 	0.33230 0.83760 0.43930 -0.00500
H 	H 	0.97270 0.98090 0.44780 0.01900
H 	H 	0.22160 0.06590 0.40590 0.08500
H 	H 	0.52970 0.43440 0.54750 0.01800
H 	H 	0.28410 0.47590 0.59620 0.08700
H 	H 	0.91440 0.34040 0.58660 0.09400
H 	H 	0.16220 0.29780 0.53970 -0.00900
H 	H 	0.98750 0.53920 0.58790 0.01400
H 	H 	0.49340 0.48750 0.71680 0.02600
H 	H 	0.78720 0.33390 0.69500 0.04300
H 	H 	0.63400 0.26960 0.80980 0.09300
H 	H 	0.23990 0.41160 0.73570 0.07900
H 	H 	0.00150 0.32700 0.80500 0.02000
H 	H 	0.39120 0.18260 0.88420 -0.01300
C 	C 	0.52640 0.89760 0.92360 0.30500
C 	C 	0.67910 0.89750 0.86820 -0.12200
C 	C 	0.86390 0.90490 0.87350 0.05500
C 	C 	0.00730 0.90640 0.82380 -0.13900
C 	C 	0.96100 0.89390 0.77060 0.07300
C 	C 	0.77140 0.88120 0.76810 -0.12600
C 	C 	0.62980 0.88330 0.81990 0.04700
C 	C 	0.11460 0.88900 0.71890 -0.02100
C 	C 	0.10340 0.83860 0.69700 -0.00100
C 	C 	0.24330 0.83510 0.64760 -0.12600
C 	C 	0.39340 0.88720 0.61870 0.00100
C 	C 	0.41030 0.93920 0.63860 -0.02900
C 	C 	0.26830 0.93790 0.68990 -0.04700
C 	C 	0.56760 0.99500 0.60540 0.08600
C 	C 	0.54130 0.06430 0.59410 -0.14900
C 	C 	0.68940 0.11670 0.56680 0.07500
C 	C 	0.86890 0.10020 0.54860 -0.16000
C 	C 	0.90430 0.03080 0.56140 0.07600
C 	C 	0.75530 0.97980 0.58770 -0.14300
C 	C 	0.02500 0.15860 0.51750 0.39000
C 	C 	0.22270 0.78100 0.62500 0.39000
C 	C 	0.47140 0.66720 0.49020 0.37100
C 	C 	0.62800 0.63830 0.46030 -0.15800
C 	C 	0.59360 0.58510 0.44380 0.08400
C 	C 	0.74030 0.56040 0.41450 -0.15300
C 	C 	0.92780 0.59020 0.40060 0.10000
C 	C 	0.96190 0.64160 0.41980 -0.16100
C 	C 	0.81390 0.66660 0.44860 0.08100
C 	C 	0.08770 0.56660 0.36600 -0.04000
C 	C 	0.10640 0.49480 0.38010 0.02400
C 	C 	0.25680 0.47160 0.34900 -0.15800
C 	C 	0.39950 0.52550 0.30310 0.02100
C 	C 	0.38620 0.59800 0.28650 -0.03600
C 	C 	0.22620 0.61830 0.31720 -0.03500
C 	C 	0.27710 0.39840 0.36790 0.42900
C 	C 	0.53810 0.65200 0.23640 0.09000
C 	C 	0.49230 0.71950 0.19090 -0.15700
C 	C 	0.73100 0.63440 0.23550 -0.14200
C 	C 	0.87280 0.68440 0.19290 0.06400
C 	C 	0.83120 0.75460 0.14490 -0.14500
C 	C 	0.63880 0.77180 0.14540 0.07300
C 	C 	0.98610 0.80590 0.09690 0.35300
C 	C 	0.47360 0.10240 0.07640 0.30500
C 	C 	0.32090 0.10250 0.13180 -0.12200
C 	C 	0.13610 0.09510 0.12650 0.05500
C 	C 	0.99270 0.09360 0.17620 -0.13900
C 	C 	0.03900 0.10610 0.22940 0.07300
C 	C 	0.22860 0.11880 0.23190 -0.12600
C 	C 	0.37020 0.11670 0.18010 0.04700
C 	C 	0.88540 0.11100 0.28110 -0.02100
C 	C 	0.89660 0.16140 0.30300 -0.00100
C 	C 	0.75670 0.16490 0.35240 -0.12600
C 	C 	0.60660 0.11280 0.38130 0.00100
C 	C 	0.58970 0.06080 0.36140 -0.02900
C 	C 	0.73170 0.06210 0.31010 -0.04700
C 	C 	0.43240 0.00500 0.39460 0.08600
C 	C 	0.45870 0.93570 0.40590 -0.14900
C 	C 	0.31060 0.88330 0.43320 0.07500
C 	C 	0.13110 0.89980 0.45140 -0.16000
C 	C 	0.09570 0.96920 0.43860 0.07600
C 	C 	0.24470 0.02020 0.41230 -0.14300
C 	C 	0.97500 0.84140 0.48250 0.39000
C 	C 	0.77730 0.21900 0.37500 0.39000
C 	C 	0.52860 0.33280 0.50980 0.37100
C 	C 	0.37200 0.36170 0.53970 -0.15800
C 	C 	0.40640 0.41490 0.55620 0.08400
C 	C 	0.25970 0.43960 0.58550 -0.15300
C 	C 	0.07220 0.40980 0.59940 0.10000
C 	C 	0.03810 0.35840 0.58020 -0.16100
C 	C 	0.18610 0.33340 0.55140 0.08100
C 	C 	0.91230 0.43340 0.63400 -0.04000
C 	C 	0.89360 0.50520 0.61990 0.02400
C 	C 	0.74320 0.52840 0.65100 -0.15800
C 	C 	0.60050 0.47450 0.69690 0.02100
C 	C 	0.61380 0.40200 0.71350 -0.03600
C 	C 	0.77380 0.38170 0.68280 -0.03500
C 	C 	0.72290 0.60160 0.63210 0.42900
C 	C 	0.46190 0.34800 0.76360 0.09000
C 	C 	0.50770 0.28050 0.80910 -0.15700
C 	C 	0.26900 0.36560 0.76450 -0.14200
C 	C 	0.12720 0.31560 0.80710 0.06400
C 	C 	0.16880 0.24540 0.85510 -0.14500
C 	C 	0.36120 0.22820 0.85460 0.07300
C 	C 	0.01390 0.19410 0.90310 0.35300
O 	O 	0.56720 0.91920 0.96620 -0.44700
O 	O 	0.35790 0.88130 0.92420 -0.39600
O 	O 	0.06720 0.74560 0.63990 -0.42700
O 	O 	0.35520 0.77160 0.58850 -0.53600
O 	O 	0.00390 0.21250 0.52270 -0.45200
O 	O 	0.16910 0.15440 0.47980 -0.45700
O 	O 	0.30640 0.63650 0.50670 -0.41400
O 	O 	0.50770 0.71770 0.50180 -0.48500
O 	O 	0.13640 0.35790 0.38530 -0.54900
O 	O 	0.43870 0.37370 0.37060 -0.45000
O 	O 	0.15370 0.79730 0.10470 -0.43000
O 	O 	0.94700 0.86630 0.05120 -0.44500
O 	O 	0.43280 0.08080 0.03380 -0.44700
O 	O 	0.64210 0.11870 0.07580 -0.39600
O 	O 	0.93280 0.25440 0.36010 -0.42700
O 	O 	0.64480 0.22840 0.41150 -0.53600
O 	O 	0.99610 0.78750 0.47730 -0.45200
O 	O 	0.83090 0.84560 0.52020 -0.45700
O 	O 	0.69360 0.36350 0.49330 -0.41400
O 	O 	0.49230 0.28230 0.49820 -0.48500
O 	O 	0.86360 0.64210 0.61470 -0.54900
O 	O 	0.56130 0.62630 0.62940 -0.45000
O 	O 	0.84630 0.20270 0.89530 -0.43000
O 	O 	0.05300 0.13370 0.94880 -0.44500
