data_crystal

_cell_length_a 38.53100
_cell_length_b 20.84000
_cell_length_c 38.68800
_cell_angle_alpha 90.00000
_cell_angle_beta  91.60000
_cell_angle_gamma 90.00000

_symmetry_space_group_name_	'P 1'
_symmetry_space_group_name_H-M	'P 1'

loop_
_symmetry_equiv_pos_as_xyz
  x,y,z

loop_
_atom_site_label
_atom_site_type_symbol
_atom_site_fract_x
_atom_site_fract_y
_atom_site_fract_z
_atom_site_charge
C 	C 	0.30870 0.47050 0.02220 0.02700
H 	H 	0.30990 0.42930 0.01180 0.01700
C 	C 	0.33870 0.50660 0.02730 -0.11900
H 	H 	0.36040 0.49000 0.02050 0.06800
C 	C 	0.33690 0.56690 0.04250 0.06800
C 	C 	0.30510 0.59110 0.05250 0.04500
C 	C 	0.27510 0.55500 0.04730 0.07000
C 	C 	0.27690 0.49470 0.03220 -0.11900
H 	H 	0.25630 0.47000 0.02860 0.06700
O 	O 	0.30240 0.65580 0.05850 -0.18100
C 	C 	0.29180 0.69240 0.02950 -0.00200
H 	H 	0.26620 0.69100 0.02630 0.02800
H 	H 	0.30230 0.67510 0.00830 0.02600
C 	C 	0.30440 0.76390 0.03610 0.00400
C 	C 	0.28200 0.81400 0.04400 -0.03100
H 	H 	0.25780 0.80640 0.04550 0.03900
C 	C 	0.29500 0.87320 0.04950 -0.07700
H 	H 	0.28040 0.90750 0.05620 0.04900
C 	C 	0.33050 0.88310 0.04520 0.03000
H 	H 	0.33980 0.92410 0.05100 -0.02100
N 	N 	0.35270 0.83790 0.03340 -0.25900
C 	C 	0.33860 0.77590 0.02910 -0.00800
H 	H 	0.35280 0.74200 0.02140 0.00600
C 	C 	0.24010 0.57600 0.05930 -0.19900
H 	H 	0.22230 0.56820 0.04080 0.08300
H 	H 	0.24050 0.62250 0.06450 0.10000
C 	C 	0.20460 0.44560 0.11690 0.01700
H 	H 	0.19100 0.40780 0.11450 0.02400
C 	C 	0.21110 0.48320 0.08810 -0.11200
H 	H 	0.20200 0.47100 0.06600 0.06400
C 	C 	0.23100 0.53850 0.09170 0.05500
C 	C 	0.24440 0.55640 0.12400 0.05200
C 	C 	0.23780 0.51880 0.15280 0.05200
C 	C 	0.21790 0.46340 0.14920 -0.11000
H 	H 	0.21340 0.43780 0.16890 0.05800
O 	O 	0.26290 0.61030 0.12800 -0.16600
C 	C 	0.30960 0.78890 0.12960 -0.04900
H 	H 	0.33380 0.79230 0.12600 0.04300
C 	C 	0.29430 0.73010 0.13060 -0.05900
H 	H 	0.30770 0.69200 0.12890 0.09600
C 	C 	0.26030 0.72750 0.13400 0.03600
C 	C 	0.24090 0.78120 0.14000 -0.02100
H 	H 	0.21690 0.77680 0.14450 0.01500
N 	N 	0.25560 0.84190 0.13950 -0.23500
C 	C 	0.28980 0.84410 0.13390 0.02600
H 	H 	0.30090 0.88470 0.13280 -0.02100
C 	C 	0.23780 0.66250 0.13490 -0.03400
H 	H 	0.22740 0.65670 0.15780 0.03800
H 	H 	0.21900 0.66340 0.11690 0.03600
C 	C 	0.25360 0.53560 0.18850 -0.18500
H 	H 	0.23900 0.51620 0.20650 0.07500
H 	H 	0.25280 0.58270 0.19160 0.10100
C 	C 	0.32850 0.42100 0.20500 0.02400
H 	H 	0.33110 0.37650 0.20970 0.01400
C 	C 	0.29540 0.44740 0.20140 -0.11300
H 	H 	0.27550 0.42090 0.20360 0.06200
C 	C 	0.29150 0.51250 0.19450 0.06300
C 	C 	0.32060 0.55120 0.19130 0.04500
C 	C 	0.35360 0.52490 0.19500 0.06000
C 	C 	0.35750 0.45980 0.20180 -0.11200
H 	H 	0.38010 0.44180 0.20440 0.06200
O 	O 	0.31510 0.61620 0.18550 -0.16800
C 	C 	0.32320 0.65440 0.21640 -0.02600
H 	H 	0.34360 0.63600 0.22900 0.03400
H 	H 	0.32890 0.69900 0.20970 0.04100
C 	C 	0.29200 0.65450 0.23980 0.01000
C 	C 	0.26120 0.67990 0.23100 -0.05100
H 	H 	0.25990 0.70640 0.21100 0.05200
C 	C 	0.23060 0.67080 0.24890 -0.05800
H 	H 	0.20840 0.68470 0.24060 0.04000
C 	C 	0.23650 0.63670 0.28260 0.00400
H 	H 	0.21780 0.63250 0.29780 -0.00700
N 	N 	0.26860 0.61120 0.29230 -0.23600
C 	C 	0.29610 0.61790 0.27210 -0.00100
H 	H 	0.31780 0.59930 0.27850 0.01100
C 	C 	0.38530 0.56150 0.18540 -0.18900
H 	H 	0.40460 0.55110 0.20180 0.07500
H 	H 	0.38060 0.60810 0.18700 0.09500
C 	C 	0.41940 0.47060 0.10670 0.01700
H 	H 	0.43200 0.43260 0.10190 0.01400
C 	C 	0.41450 0.48910 0.14070 -0.10700
H 	H 	0.42370 0.46370 0.15920 0.05800
C 	C 	0.39600 0.54470 0.14780 0.04800
C 	C 	0.38250 0.58180 0.12070 0.05600
C 	C 	0.38740 0.56340 0.08670 0.05500
C 	C 	0.40580 0.50780 0.07970 -0.10800
H 	H 	0.40920 0.49520 0.05640 0.06000
O 	O 	0.36930 0.64230 0.12600 -0.17400
C 	C 	0.39610 0.69180 0.13540 -0.02600
H 	H 	0.38470 0.73100 0.14400 0.03600
H 	H 	0.41200 0.67520 0.15380 0.03400
C 	C 	0.41480 0.70630 0.10580 -0.00000
C 	C 	0.44360 0.67220 0.09570 -0.03800
H 	H 	0.45330 0.63950 0.11010 0.04000
C 	C 	0.45870 0.68730 0.06240 -0.08500
H 	H 	0.47660 0.66160 0.05320 0.05400
C 	C 	0.44600 0.73990 0.04500 0.04100
H 	H 	0.45680 0.75090 0.02410 -0.01800
N 	N 	0.41960 0.77740 0.05460 -0.25900
C 	C 	0.40650 0.76070 0.08490 0.01100
H 	H 	0.38950 0.78880 0.09370 -0.00400
C 	C 	0.36930 0.59840 0.05390 -0.19600
H 	H 	0.36440 0.64360 0.05990 0.10900
H 	H 	0.38560 0.59850 0.03460 0.08000
C 	C 	0.37020 0.34260 0.04760 0.02100
H 	H 	0.36950 0.38120 0.06070 0.02100
C 	C 	0.40160 0.32010 0.03570 -0.11500
H 	H 	0.42240 0.34330 0.04070 0.06000
C 	C 	0.40270 0.26370 0.01670 0.06000
C 	C 	0.37230 0.22970 0.00950 0.03700
C 	C 	0.34080 0.25220 0.02140 0.05500
C 	C 	0.33980 0.30860 0.04050 -0.11400
H 	H 	0.31830 0.32400 0.04860 0.06600
O 	O 	0.37380 0.17410 0.98900 -0.15700
C 	C 	0.37920 0.11760 0.01240 -0.03900
H 	H 	0.40120 0.12260 0.02600 0.03700
H 	H 	0.36000 0.11470 0.02880 0.03800
C 	C 	0.38050 0.06160 0.99240 0.02400
C 	C 	0.37670 0.05570 0.95790 -0.04900
H 	H 	0.37260 0.09370 0.94490 0.09300
C 	C 	0.37840 0.99910 0.94030 -0.05700
H 	H 	0.37600 0.99680 0.91580 0.04700
C 	C 	0.38420 0.94360 0.96150 0.03400
H 	H 	0.38510 0.90270 0.95070 -0.02600
N 	N 	0.38840 0.94670 0.99570 -0.24200
C 	C 	0.38600 0.00420 0.01000 -0.00100
H 	H 	0.38830 0.00650 0.03450 -0.01200
C 	C 	0.30640 0.21580 0.01010 -0.19000
H 	H 	0.31080 0.16920 0.00850 0.09700
H 	H 	0.28840 0.22280 0.02750 0.08100
C 	C 	0.26940 0.32710 0.93860 0.01800
H 	H 	0.25960 0.36880 0.93650 0.02000
C 	C 	0.27920 0.30340 0.97100 -0.11300
H 	H 	0.27610 0.32890 0.99100 0.06400
C 	C 	0.29350 0.24240 0.97410 0.05900
C 	C 	0.29810 0.20510 0.94480 0.03900
C 	C 	0.28830 0.22880 0.91240 0.05400
C 	C 	0.27400 0.28980 0.90930 -0.10700
H 	H 	0.26730 0.30610 0.88710 0.06300
O 	O 	0.30620 0.13730 0.94520 -0.16800
C 	C 	0.27530 0.10070 0.95450 -0.03100
H 	H 	0.27190 0.10240 0.97970 0.03700
H 	H 	0.25430 0.11820 0.94250 0.03500
C 	C 	0.28160 0.03500 0.94340 0.02100
C 	C 	0.29300 0.98410 0.96690 -0.04300
H 	H 	0.29730 0.99400 0.99060 0.04400
C 	C 	0.29750 0.92240 0.95570 -0.06300
H 	H 	0.30480 0.89040 0.97180 0.04500
C 	C 	0.29160 0.90590 0.92180 0.01900
H 	H 	0.29440 0.86270 0.91460 0.00100
N 	N 	0.28150 0.95240 0.89800 -0.23200
C 	C 	0.27680 0.01760 0.90780 -0.02300
H 	H 	0.27050 0.04910 0.89100 0.00900
C 	C 	0.29900 0.19330 0.87750 -0.18200
H 	H 	0.30670 0.14900 0.88270 0.10600
H 	H 	0.27880 0.19120 0.86120 0.07600
C 	C 	0.35320 0.32660 0.83360 0.01600
H 	H 	0.34980 0.36610 0.82170 0.01500
C 	C 	0.32470 0.29060 0.84340 -0.10700
H 	H 	0.30190 0.30550 0.83830 0.05900
C 	C 	0.32970 0.23270 0.86070 0.04800
C 	C 	0.36320 0.21090 0.86820 0.05500
C 	C 	0.39170 0.24690 0.85840 0.04800
C 	C 	0.38660 0.30470 0.84100 -0.10500
H 	H 	0.40610 0.32930 0.83430 0.05800
O 	O 	0.37090 0.15170 0.88310 -0.17100
C 	C 	0.38000 0.10100 0.85750 -0.02100
H 	H 	0.39850 0.11740 0.84260 0.03400
H 	H 	0.38920 0.06300 0.87010 0.03800
C 	C 	0.35220 0.08300 0.83730 -0.00800
C 	C 	0.33710 0.11770 0.80480 -0.04100
H 	H 	0.34820 0.15420 0.79540 0.04000
C 	C 	0.30670 0.09300 0.79020 -0.06400
H 	H 	0.29710 0.11490 0.77060 0.04300
C 	C 	0.29030 0.04330 0.80060 0.01000
H 	H 	0.26890 0.03200 0.78940 -0.01100
N 	N 	0.30340 0.00420 0.82860 -0.25100
C 	C 	0.33170 0.02380 0.84410 0.02600
H 	H 	0.34050 0.99710 0.86220 0.00300
C 	C 	0.43030 0.23070 0.86900 -0.17400
H 	H 	0.43290 0.18360 0.87090 0.09000
H 	H 	0.44560 0.24560 0.85050 0.07100
C 	C 	0.45600 0.36240 0.93170 0.01800
H 	H 	0.46190 0.40650 0.93030 0.01500
C 	C 	0.45060 0.32680 0.90160 -0.10400
H 	H 	0.45290 0.34660 0.87970 0.05900
C 	C 	0.44190 0.26220 0.90370 0.04900
C 	C 	0.43860 0.23320 0.93580 0.05600
C 	C 	0.44400 0.26880 0.96580 0.06000
C 	C 	0.45270 0.33340 0.96380 -0.11200
H 	H 	0.45640 0.35770 0.98430 0.06100
O 	O 	0.43160 0.16820 0.93960 -0.18500
C 	C 	0.45760 0.12640 0.92860 0.05800
C 	C 	0.49690 0.07590 0.01630 -0.00900
C 	C 	0.47360 0.08340 0.98880 -0.06100
H 	H 	0.45020 0.07040 0.99130 0.05500
C 	C 	0.48340 0.10960 0.95740 -0.01000
C 	C 	0.51780 0.12270 0.95620 0.00000
H 	H 	0.52500 0.14020 0.93490 -0.00000
N 	N 	0.54450 0.11480 0.98120 -0.26400
C 	C 	0.53160 0.09150 0.01320 -0.01700
H 	H 	0.54700 0.08680 0.03260 0.00600
C 	C 	0.43690 0.24030 0.00180 -0.19100
H 	H 	0.43640 0.19290 -0.00000 0.10400
H 	H 	0.45630 0.25200 0.01800 0.07600
Zn	Zn	0.27351 0.92524 0.84435 1.16300
Zn	Zn	0.40501 0.86133 0.02588 1.14900
N 	N 	0.32360 0.87310 0.85120 -0.32400
C 	C 	0.34830 0.85200 0.85450 0.25900
C 	C 	0.38370 0.82250 0.86240 -0.61200
H 	H 	0.40190 0.85160 0.85470 0.18700
H 	H 	0.38560 0.78140 0.85020 0.18500
H 	H 	0.38660 0.81520 0.88730 0.18400
C 	C 	0.80870 0.97050 0.52220 0.02700
H 	H 	0.80990 0.92930 0.51180 0.01600
C 	C 	0.83870 0.00660 0.52730 -0.12100
H 	H 	0.86040 0.99000 0.52050 0.06700
C 	C 	0.83690 0.06690 0.54250 0.06800
C 	C 	0.80510 0.09110 0.55250 0.04400
C 	C 	0.77510 0.05500 0.54730 0.06900
C 	C 	0.77690 0.99470 0.53220 -0.12000
H 	H 	0.75630 0.97000 0.52860 0.06600
O 	O 	0.80240 0.15580 0.55850 -0.18100
C 	C 	0.79180 0.19240 0.52950 -0.00200
H 	H 	0.76620 0.19100 0.52630 0.02900
H 	H 	0.80230 0.17510 0.50830 0.02600
C 	C 	0.80440 0.26390 0.53610 0.00400
C 	C 	0.78200 0.31400 0.54400 -0.03100
H 	H 	0.75780 0.30640 0.54550 0.03900
C 	C 	0.79500 0.37320 0.54950 -0.07700
H 	H 	0.78040 0.40750 0.55620 0.05000
C 	C 	0.83050 0.38310 0.54520 0.03000
H 	H 	0.83980 0.42410 0.55100 -0.02100
N 	N 	0.85270 0.33790 0.53340 -0.25900
C 	C 	0.83860 0.27590 0.52910 -0.00800
H 	H 	0.85280 0.24200 0.52140 0.00600
C 	C 	0.74010 0.07600 0.55930 -0.19900
H 	H 	0.72230 0.06820 0.54080 0.08300
H 	H 	0.74050 0.12250 0.56450 0.10000
C 	C 	0.70460 0.94560 0.61690 0.01600
H 	H 	0.69100 0.90780 0.61450 0.02400
C 	C 	0.71110 0.98320 0.58810 -0.11200
H 	H 	0.70200 0.97100 0.56600 0.06400
C 	C 	0.73100 0.03850 0.59170 0.05500
C 	C 	0.74440 0.05640 0.62400 0.05200
C 	C 	0.73780 0.01880 0.65280 0.05100
C 	C 	0.71790 0.96340 0.64920 -0.11000
H 	H 	0.71340 0.93780 0.66890 0.05800
O 	O 	0.76290 0.11030 0.62800 -0.16600
C 	C 	0.80960 0.28890 0.62960 -0.04900
H 	H 	0.83380 0.29230 0.62600 0.04300
C 	C 	0.79430 0.23010 0.63060 -0.05900
H 	H 	0.80770 0.19200 0.62890 0.09600
C 	C 	0.76030 0.22750 0.63400 0.03600
C 	C 	0.74090 0.28120 0.64000 -0.02100
H 	H 	0.71690 0.27680 0.64450 0.01500
N 	N 	0.75560 0.34190 0.63950 -0.23500
C 	C 	0.78980 0.34410 0.63390 0.02600
H 	H 	0.80090 0.38470 0.63280 -0.02100
C 	C 	0.73780 0.16250 0.63490 -0.03400
H 	H 	0.72740 0.15670 0.65780 0.03800
H 	H 	0.71900 0.16340 0.61690 0.03600
C 	C 	0.75360 0.03560 0.68850 -0.18500
H 	H 	0.73900 0.01620 0.70650 0.07500
H 	H 	0.75280 0.08270 0.69160 0.10100
C 	C 	0.82850 0.92100 0.70500 0.02400
H 	H 	0.83110 0.87650 0.70970 0.01400
C 	C 	0.79540 0.94740 0.70140 -0.11300
H 	H 	0.77550 0.92090 0.70360 0.06200
C 	C 	0.79150 0.01250 0.69450 0.06300
C 	C 	0.82060 0.05120 0.69130 0.04500
C 	C 	0.85360 0.02490 0.69500 0.05900
C 	C 	0.85750 0.95980 0.70180 -0.11200
H 	H 	0.88010 0.94180 0.70440 0.06200
O 	O 	0.81510 0.11620 0.68550 -0.16800
C 	C 	0.82320 0.15440 0.71640 -0.02600
H 	H 	0.84360 0.13600 0.72900 0.03400
H 	H 	0.82890 0.19900 0.70970 0.04100
C 	C 	0.79200 0.15450 0.73980 0.01000
C 	C 	0.76120 0.17990 0.73100 -0.05100
H 	H 	0.75990 0.20640 0.71100 0.05200
C 	C 	0.73060 0.17080 0.74890 -0.05800
H 	H 	0.70840 0.18470 0.74060 0.04000
C 	C 	0.73650 0.13670 0.78260 0.00400
H 	H 	0.71780 0.13250 0.79780 -0.00700
N 	N 	0.76860 0.11120 0.79230 -0.23600
C 	C 	0.79610 0.11790 0.77210 -0.00100
H 	H 	0.81780 0.09930 0.77850 0.01100
C 	C 	0.88530 0.06150 0.68540 -0.18900
H 	H 	0.90460 0.05110 0.70180 0.07500
H 	H 	0.88060 0.10810 0.68700 0.09500
C 	C 	0.91940 0.97060 0.60670 0.01800
H 	H 	0.93200 0.93260 0.60190 0.01400
C 	C 	0.91450 0.98910 0.64070 -0.10700
H 	H 	0.92370 0.96370 0.65920 0.05800
C 	C 	0.89600 0.04470 0.64780 0.04800
C 	C 	0.88250 0.08180 0.62070 0.05500
C 	C 	0.88740 0.06340 0.58670 0.05500
C 	C 	0.90580 0.00780 0.57970 -0.10800
H 	H 	0.90920 0.99520 0.55640 0.06000
O 	O 	0.86930 0.14230 0.62600 -0.17400
C 	C 	0.89610 0.19180 0.63540 -0.02600
H 	H 	0.88470 0.23100 0.64400 0.03600
H 	H 	0.91200 0.17520 0.65380 0.03400
C 	C 	0.91480 0.20630 0.60580 -0.00000
C 	C 	0.94360 0.17220 0.59570 -0.03800
H 	H 	0.95330 0.13950 0.61010 0.04000
C 	C 	0.95870 0.18730 0.56240 -0.08400
H 	H 	0.97660 0.16160 0.55320 0.05400
C 	C 	0.94600 0.23990 0.54500 0.04100
H 	H 	0.95680 0.25090 0.52410 -0.01800
N 	N 	0.91960 0.27740 0.55460 -0.25900
C 	C 	0.90650 0.26070 0.58490 0.01100
H 	H 	0.88950 0.28880 0.59370 -0.00400
C 	C 	0.86930 0.09840 0.55390 -0.19700
H 	H 	0.86440 0.14360 0.55990 0.10900
H 	H 	0.88560 0.09850 0.53460 0.08000
C 	C 	0.87020 0.84260 0.54760 0.02100
H 	H 	0.86950 0.88120 0.56070 0.02100
C 	C 	0.90160 0.82010 0.53570 -0.11500
H 	H 	0.92240 0.84330 0.54070 0.06000
C 	C 	0.90270 0.76370 0.51670 0.06000
C 	C 	0.87230 0.72970 0.50950 0.03800
C 	C 	0.84080 0.75220 0.52140 0.05500
C 	C 	0.83980 0.80860 0.54050 -0.11300
H 	H 	0.81830 0.82400 0.54860 0.06600
O 	O 	0.87380 0.67410 0.48900 -0.15900
C 	C 	0.87920 0.61760 0.51240 -0.03600
H 	H 	0.90120 0.62260 0.52600 0.03600
H 	H 	0.86000 0.61470 0.52880 0.03700
C 	C 	0.88050 0.56160 0.49240 0.02100
C 	C 	0.87670 0.55570 0.45790 -0.04700
H 	H 	0.87260 0.59370 0.44490 0.09300
C 	C 	0.87840 0.49910 0.44030 -0.05800
H 	H 	0.87600 0.49680 0.41580 0.04700
C 	C 	0.88420 0.44360 0.46150 0.03500
H 	H 	0.88510 0.40270 0.45070 -0.02700
N 	N 	0.88840 0.44670 0.49570 -0.24300
C 	C 	0.88600 0.50420 0.51000 0.00200
H 	H 	0.88830 0.50650 0.53450 -0.01300
C 	C 	0.80640 0.71580 0.51010 -0.18900
H 	H 	0.81080 0.66920 0.50850 0.09700
H 	H 	0.78840 0.72280 0.52750 0.08100
C 	C 	0.76940 0.82710 0.43860 0.01800
H 	H 	0.75960 0.86880 0.43650 0.02000
C 	C 	0.77920 0.80340 0.47100 -0.11200
H 	H 	0.77610 0.82890 0.49100 0.06400
C 	C 	0.79350 0.74240 0.47410 0.05800
C 	C 	0.79810 0.70510 0.44480 0.04000
C 	C 	0.78830 0.72880 0.41240 0.05300
C 	C 	0.77400 0.78980 0.40930 -0.10700
H 	H 	0.76730 0.80610 0.38710 0.06300
O 	O 	0.80620 0.63730 0.44520 -0.16800
C 	C 	0.77530 0.60070 0.45450 -0.03100
H 	H 	0.77190 0.60240 0.47970 0.03600
H 	H 	0.75430 0.61820 0.44250 0.03500
C 	C 	0.78160 0.53500 0.44340 0.02000
C 	C 	0.79300 0.48410 0.46690 -0.04300
H 	H 	0.79730 0.49400 0.49060 0.04300
C 	C 	0.79750 0.42240 0.45570 -0.06300
H 	H 	0.80480 0.39040 0.47180 0.04500
C 	C 	0.79160 0.40590 0.42180 0.01900
H 	H 	0.79440 0.36270 0.41460 0.00100
N 	N 	0.78150 0.45240 0.39800 -0.23200
C 	C 	0.77680 0.51760 0.40780 -0.02300
H 	H 	0.77050 0.54910 0.39100 0.00900
C 	C 	0.79900 0.69330 0.37750 -0.18200
H 	H 	0.80670 0.64900 0.38270 0.10600
H 	H 	0.77880 0.69120 0.36120 0.07600
C 	C 	0.85320 0.82660 0.33360 0.01600
H 	H 	0.84980 0.86610 0.32170 0.01500
C 	C 	0.82470 0.79060 0.34340 -0.10700
H 	H 	0.80190 0.80550 0.33830 0.05900
C 	C 	0.82970 0.73270 0.36070 0.04800
C 	C 	0.86320 0.71090 0.36820 0.05500
C 	C 	0.89170 0.74690 0.35840 0.04800
C 	C 	0.88660 0.80470 0.34100 -0.10500
H 	H 	0.90610 0.82930 0.33430 0.05800
O 	O 	0.87090 0.65170 0.38310 -0.17100
C 	C 	0.88000 0.60100 0.35750 -0.02100
H 	H 	0.89850 0.61740 0.34260 0.03400
H 	H 	0.88920 0.56300 0.37010 0.03800
C 	C 	0.85220 0.58300 0.33730 -0.00800
C 	C 	0.83710 0.61770 0.30480 -0.04100
H 	H 	0.84820 0.65420 0.29540 0.04000
C 	C 	0.80670 0.59300 0.29020 -0.06400
H 	H 	0.79710 0.61490 0.27060 0.04300
C 	C 	0.79030 0.54330 0.30060 0.01000
H 	H 	0.76890 0.53200 0.28940 -0.01100
N 	N 	0.80340 0.50420 0.32860 -0.25100
C 	C 	0.83170 0.52380 0.34410 0.02600
H 	H 	0.84050 0.49710 0.36220 0.00300
C 	C 	0.93030 0.73070 0.36900 -0.17400
H 	H 	0.93290 0.68360 0.37090 0.09000
H 	H 	0.94560 0.74560 0.35050 0.07100
C 	C 	0.95600 0.86240 0.43170 0.01700
H 	H 	0.96190 0.90650 0.43030 0.01500
C 	C 	0.95060 0.82680 0.40160 -0.10400
H 	H 	0.95290 0.84660 0.37970 0.05900
C 	C 	0.94190 0.76220 0.40370 0.04800
C 	C 	0.93860 0.73320 0.43580 0.05600
C 	C 	0.94400 0.76880 0.46580 0.05900
C 	C 	0.95270 0.83340 0.46380 -0.11100
H 	H 	0.95640 0.85770 0.48430 0.06100
O 	O 	0.93160 0.66820 0.43960 -0.18600
C 	C 	0.95760 0.62640 0.42860 0.05800
C 	C 	0.99690 0.57590 0.51630 -0.00800
C 	C 	0.97360 0.58340 0.48880 -0.06200
H 	H 	0.95020 0.57040 0.49130 0.05600
C 	C 	0.98340 0.60960 0.45740 -0.01000
C 	C 	0.01780 0.62270 0.45620 0.00000
H 	H 	0.02500 0.64020 0.43490 -0.00000
N 	N 	0.04450 0.61480 0.48120 -0.26400
C 	C 	0.03160 0.59150 0.51320 -0.01600
H 	H 	0.04700 0.58680 0.53260 0.00600
C 	C 	0.93690 0.74030 0.50180 -0.18900
H 	H 	0.93640 0.69290 0.50000 0.10400
H 	H 	0.95630 0.75200 0.51800 0.07600
Zn	Zn	0.77351 0.42524 0.34435 1.16300
Zn	Zn	0.90501 0.36133 0.52588 1.14900
N 	N 	0.82360 0.37310 0.35120 -0.32400
C 	C 	0.84830 0.35200 0.35450 0.25900
C 	C 	0.88370 0.32250 0.36240 -0.61200
H 	H 	0.90190 0.35160 0.35470 0.18700
H 	H 	0.88560 0.28140 0.35020 0.18500
H 	H 	0.88660 0.31520 0.38730 0.18300
C 	C 	0.19130 0.47050 0.97780 0.02600
H 	H 	0.19010 0.42930 0.98820 0.01600
C 	C 	0.16130 0.50660 0.97270 -0.12000
H 	H 	0.13960 0.49000 0.97950 0.06700
C 	C 	0.16310 0.56690 0.95750 0.06700
C 	C 	0.19490 0.59110 0.94750 0.04400
C 	C 	0.22490 0.55500 0.95270 0.06900
C 	C 	0.22310 0.49470 0.96780 -0.12000
H 	H 	0.24370 0.47000 0.97140 0.06600
O 	O 	0.19760 0.65580 0.94150 -0.18100
C 	C 	0.20820 0.69240 0.97050 -0.00200
H 	H 	0.23380 0.69100 0.97370 0.02900
H 	H 	0.19770 0.67510 0.99170 0.02600
C 	C 	0.19560 0.76390 0.96390 0.00500
C 	C 	0.21800 0.81400 0.95600 -0.03100
H 	H 	0.24220 0.80640 0.95450 0.03900
C 	C 	0.20500 0.87320 0.95050 -0.07700
H 	H 	0.21960 0.90750 0.94380 0.05000
C 	C 	0.16950 0.88310 0.95480 0.03000
H 	H 	0.16020 0.92410 0.94900 -0.02100
N 	N 	0.14730 0.83790 0.96660 -0.25900
C 	C 	0.16140 0.77590 0.97090 -0.00800
H 	H 	0.14720 0.74200 0.97860 0.00600
C 	C 	0.25990 0.57600 0.94070 -0.19900
H 	H 	0.27770 0.56820 0.95920 0.08300
H 	H 	0.25950 0.62250 0.93550 0.10000
C 	C 	0.29540 0.44560 0.88310 0.01700
H 	H 	0.30900 0.40780 0.88550 0.02400
C 	C 	0.28890 0.48320 0.91190 -0.11300
H 	H 	0.29800 0.47100 0.93400 0.06400
C 	C 	0.26900 0.53850 0.90830 0.05600
C 	C 	0.25560 0.55640 0.87600 0.05200
C 	C 	0.26220 0.51880 0.84720 0.05200
C 	C 	0.28210 0.46340 0.85080 -0.11000
H 	H 	0.28660 0.43780 0.83110 0.05800
O 	O 	0.23710 0.61030 0.87200 -0.16600
C 	C 	0.19040 0.78890 0.87040 -0.04900
H 	H 	0.16620 0.79230 0.87400 0.04300
C 	C 	0.20570 0.73010 0.86940 -0.05900
H 	H 	0.19230 0.69200 0.87110 0.09600
C 	C 	0.23970 0.72750 0.86600 0.03600
C 	C 	0.25910 0.78120 0.86000 -0.02100
H 	H 	0.28310 0.77680 0.85550 0.01500
N 	N 	0.24440 0.84190 0.86050 -0.23500
C 	C 	0.21020 0.84410 0.86610 0.02600
H 	H 	0.19910 0.88470 0.86720 -0.02100
C 	C 	0.26220 0.66250 0.86510 -0.03400
H 	H 	0.27260 0.65670 0.84220 0.03800
H 	H 	0.28100 0.66340 0.88310 0.03600
C 	C 	0.24640 0.53560 0.81150 -0.18500
H 	H 	0.26100 0.51620 0.79350 0.07500
H 	H 	0.24720 0.58270 0.80840 0.10100
C 	C 	0.17150 0.42100 0.79500 0.02500
H 	H 	0.16890 0.37650 0.79030 0.01400
C 	C 	0.20460 0.44740 0.79860 -0.11300
H 	H 	0.22450 0.42090 0.79640 0.06200
C 	C 	0.20850 0.51250 0.80550 0.06300
C 	C 	0.17940 0.55120 0.80870 0.04500
C 	C 	0.14640 0.52490 0.80500 0.06000
C 	C 	0.14250 0.45980 0.79820 -0.11200
H 	H 	0.11990 0.44180 0.79560 0.06200
O 	O 	0.18490 0.61620 0.81450 -0.16800
C 	C 	0.17680 0.65440 0.78360 -0.02600
H 	H 	0.15640 0.63600 0.77100 0.03400
H 	H 	0.17110 0.69900 0.79030 0.04100
C 	C 	0.20800 0.65450 0.76020 0.01000
C 	C 	0.23880 0.67990 0.76900 -0.05100
H 	H 	0.24010 0.70640 0.78900 0.05200
C 	C 	0.26940 0.67080 0.75110 -0.05800
H 	H 	0.29160 0.68470 0.75940 0.04000
C 	C 	0.26350 0.63670 0.71740 0.00400
H 	H 	0.28220 0.63250 0.70220 -0.00700
N 	N 	0.23140 0.61120 0.70770 -0.23600
C 	C 	0.20390 0.61790 0.72790 -0.00100
H 	H 	0.18220 0.59930 0.72150 0.01100
C 	C 	0.11470 0.56150 0.81460 -0.18900
H 	H 	0.09540 0.55110 0.79820 0.07500
H 	H 	0.11940 0.60810 0.81300 0.09500
C 	C 	0.08060 0.47060 0.89330 0.01700
H 	H 	0.06800 0.43260 0.89810 0.01400
C 	C 	0.08550 0.48910 0.85930 -0.10700
H 	H 	0.07630 0.46370 0.84080 0.05800
C 	C 	0.10400 0.54470 0.85220 0.04800
C 	C 	0.11750 0.58180 0.87930 0.05600
C 	C 	0.11260 0.56340 0.91330 0.05500
C 	C 	0.09420 0.50780 0.92030 -0.10800
H 	H 	0.09080 0.49520 0.94360 0.06000
O 	O 	0.13070 0.64230 0.87400 -0.17400
C 	C 	0.10390 0.69180 0.86460 -0.02600
H 	H 	0.11530 0.73100 0.85600 0.03600
H 	H 	0.08800 0.67520 0.84620 0.03400
C 	C 	0.08520 0.70630 0.89420 -0.00000
C 	C 	0.05640 0.67220 0.90430 -0.03800
H 	H 	0.04670 0.63950 0.88990 0.04000
C 	C 	0.04130 0.68730 0.93760 -0.08400
H 	H 	0.02340 0.66160 0.94680 0.05400
C 	C 	0.05400 0.73990 0.95500 0.04100
H 	H 	0.04320 0.75090 0.97590 -0.01800
N 	N 	0.08040 0.77740 0.94540 -0.25900
C 	C 	0.09350 0.76070 0.91510 0.01100
H 	H 	0.11050 0.78880 0.90630 -0.00400
C 	C 	0.13070 0.59840 0.94610 -0.19600
H 	H 	0.13560 0.64360 0.94010 0.10900
H 	H 	0.11440 0.59850 0.96540 0.08000
C 	C 	0.12980 0.34260 0.95240 0.02000
H 	H 	0.13050 0.38120 0.93930 0.02200
C 	C 	0.09840 0.32010 0.96430 -0.11400
H 	H 	0.07760 0.34330 0.95930 0.06000
C 	C 	0.09730 0.26370 0.98330 0.05800
C 	C 	0.12770 0.22970 0.99050 0.03900
C 	C 	0.15920 0.25220 0.97860 0.05400
C 	C 	0.16020 0.30860 0.95950 -0.11200
H 	H 	0.18170 0.32400 0.95140 0.06600
O 	O 	0.12620 0.17410 0.01100 -0.16000
C 	C 	0.12080 0.11760 0.98760 -0.03200
H 	H 	0.09880 0.12260 0.97400 0.03600
H 	H 	0.14000 0.11470 0.97120 0.03700
C 	C 	0.11950 0.06160 0.00760 0.01700
C 	C 	0.12330 0.05570 0.04210 -0.04500
H 	H 	0.12740 0.09370 0.05510 0.09200
C 	C 	0.12160 0.99910 0.05970 -0.06000
H 	H 	0.12400 0.99680 0.08420 0.04800
C 	C 	0.11580 0.94360 0.03850 0.03600
H 	H 	0.11490 0.90270 0.04930 -0.02700
N 	N 	0.11160 0.94670 0.00430 -0.24400
C 	C 	0.11400 0.00420 0.99000 0.00500
H 	H 	0.11170 0.00650 0.96550 -0.01300
C 	C 	0.19360 0.21580 0.98990 -0.18800
H 	H 	0.18920 0.16920 0.99150 0.09700
H 	H 	0.21160 0.22280 0.97250 0.08100
C 	C 	0.23060 0.32710 0.06140 0.01700
H 	H 	0.24040 0.36880 0.06350 0.02000
C 	C 	0.22080 0.30340 0.02900 -0.11200
H 	H 	0.22390 0.32890 0.00900 0.06300
C 	C 	0.20650 0.24240 0.02590 0.05700
C 	C 	0.20190 0.20510 0.05520 0.04000
C 	C 	0.21170 0.22880 0.08760 0.05300
C 	C 	0.22600 0.28980 0.09070 -0.10700
H 	H 	0.23270 0.30610 0.11290 0.06300
O 	O 	0.19380 0.13730 0.05480 -0.16800
C 	C 	0.22470 0.10070 0.04550 -0.03100
H 	H 	0.22810 0.10240 0.02030 0.03600
H 	H 	0.24570 0.11820 0.05750 0.03500
C 	C 	0.21840 0.03500 0.05660 0.02000
C 	C 	0.20700 0.98410 0.03310 -0.04300
H 	H 	0.20270 0.99400 0.00940 0.04300
C 	C 	0.20250 0.92240 0.04430 -0.06300
H 	H 	0.19520 0.89040 0.02820 0.04400
C 	C 	0.20840 0.90590 0.07820 0.01900
H 	H 	0.20560 0.86270 0.08540 0.00100
N 	N 	0.21850 0.95240 0.10200 -0.23200
C 	C 	0.22320 0.01760 0.09220 -0.02300
H 	H 	0.22950 0.04910 0.10900 0.00900
C 	C 	0.20100 0.19330 0.12250 -0.18200
H 	H 	0.19330 0.14900 0.11730 0.10600
H 	H 	0.22120 0.19120 0.13880 0.07600
C 	C 	0.14680 0.32660 0.16640 0.01600
H 	H 	0.15020 0.36610 0.17830 0.01500
C 	C 	0.17530 0.29060 0.15660 -0.10700
H 	H 	0.19810 0.30550 0.16170 0.05900
C 	C 	0.17030 0.23270 0.13930 0.04800
C 	C 	0.13680 0.21090 0.13180 0.05500
C 	C 	0.10830 0.24690 0.14160 0.04800
C 	C 	0.11340 0.30470 0.15900 -0.10500
H 	H 	0.09390 0.32930 0.16570 0.05800
O 	O 	0.12910 0.15170 0.11690 -0.17100
C 	C 	0.12000 0.10100 0.14250 -0.02100
H 	H 	0.10150 0.11740 0.15740 0.03400
H 	H 	0.11080 0.06300 0.12990 0.03800
C 	C 	0.14780 0.08300 0.16270 -0.00800
C 	C 	0.16290 0.11770 0.19520 -0.04100
H 	H 	0.15180 0.15420 0.20460 0.04000
C 	C 	0.19330 0.09300 0.20980 -0.06400
H 	H 	0.20290 0.11490 0.22940 0.04300
C 	C 	0.20970 0.04330 0.19940 0.01000
H 	H 	0.23110 0.03200 0.21060 -0.01100
N 	N 	0.19660 0.00420 0.17140 -0.25100
C 	C 	0.16830 0.02380 0.15590 0.02600
H 	H 	0.15950 0.99710 0.13780 0.00300
C 	C 	0.06970 0.23070 0.13100 -0.17400
H 	H 	0.06710 0.18360 0.12910 0.09000
H 	H 	0.05440 0.24560 0.14950 0.07100
C 	C 	0.04400 0.36240 0.06830 0.01700
H 	H 	0.03810 0.40650 0.06970 0.01500
C 	C 	0.04940 0.32680 0.09840 -0.10400
H 	H 	0.04710 0.34660 0.12030 0.05900
C 	C 	0.05810 0.26220 0.09630 0.04800
C 	C 	0.06140 0.23320 0.06420 0.05700
C 	C 	0.05600 0.26880 0.03420 0.05700
C 	C 	0.04730 0.33340 0.03620 -0.11000
H 	H 	0.04360 0.35770 0.01570 0.06100
O 	O 	0.06840 0.16820 0.06040 -0.18600
C 	C 	0.04240 0.12640 0.07140 0.05800
C 	C 	0.00310 0.07590 0.98370 -0.00700
C 	C 	0.02640 0.08340 0.01120 -0.06300
H 	H 	0.04980 0.07040 0.00870 0.05600
C 	C 	0.01660 0.10960 0.04260 -0.00900
C 	C 	0.98220 0.12270 0.04380 -0.00000
H 	H 	0.97500 0.14020 0.06510 0.00000
N 	N 	0.95550 0.11480 0.01880 -0.26500
C 	C 	0.96840 0.09150 0.98680 -0.01600
H 	H 	0.95300 0.08680 0.96740 0.00600
C 	C 	0.06310 0.24030 0.99820 -0.18700
H 	H 	0.06360 0.19290 -0.00000 0.10300
H 	H 	0.04370 0.25200 0.98200 0.07500
Zn	Zn	0.22649 0.92524 0.15565 1.16300
Zn	Zn	0.09499 0.86133 0.97412 1.14900
N 	N 	0.17640 0.87310 0.14880 -0.32400
C 	C 	0.15170 0.85200 0.14550 0.25900
C 	C 	0.11630 0.82250 0.13760 -0.61200
H 	H 	0.09810 0.85160 0.14530 0.18600
H 	H 	0.11440 0.78140 0.14980 0.18500
H 	H 	0.11340 0.81520 0.11270 0.18300
C 	C 	0.69130 0.97050 0.47780 0.02600
H 	H 	0.69010 0.92930 0.48820 0.01600
C 	C 	0.66130 0.00660 0.47270 -0.12100
H 	H 	0.63960 0.99000 0.47950 0.06700
C 	C 	0.66310 0.06690 0.45750 0.06800
C 	C 	0.69490 0.09110 0.44750 0.04400
C 	C 	0.72490 0.05500 0.45270 0.06900
C 	C 	0.72310 0.99470 0.46780 -0.12000
H 	H 	0.74370 0.97000 0.47140 0.06600
O 	O 	0.69760 0.15580 0.44150 -0.18100
C 	C 	0.70820 0.19240 0.47050 -0.00200
H 	H 	0.73380 0.19100 0.47370 0.02900
H 	H 	0.69770 0.17510 0.49170 0.02600
C 	C 	0.69560 0.26390 0.46390 0.00400
C 	C 	0.71800 0.31400 0.45600 -0.03100
H 	H 	0.74220 0.30640 0.45450 0.03900
C 	C 	0.70500 0.37320 0.45050 -0.07700
H 	H 	0.71960 0.40750 0.44380 0.05000
C 	C 	0.66950 0.38310 0.45480 0.03000
H 	H 	0.66020 0.42410 0.44900 -0.02100
N 	N 	0.64730 0.33790 0.46660 -0.25900
C 	C 	0.66140 0.27590 0.47090 -0.00800
H 	H 	0.64720 0.24200 0.47860 0.00600
C 	C 	0.75990 0.07600 0.44070 -0.19900
H 	H 	0.77770 0.06820 0.45920 0.08300
H 	H 	0.75950 0.12250 0.43550 0.10000
C 	C 	0.79540 0.94560 0.38310 0.01600
H 	H 	0.80900 0.90780 0.38550 0.02400
C 	C 	0.78890 0.98320 0.41190 -0.11200
H 	H 	0.79800 0.97100 0.43400 0.06400
C 	C 	0.76900 0.03850 0.40830 0.05500
C 	C 	0.75560 0.05640 0.37600 0.05200
C 	C 	0.76220 0.01880 0.34720 0.05100
C 	C 	0.78210 0.96340 0.35080 -0.11000
H 	H 	0.78660 0.93780 0.33110 0.05800
O 	O 	0.73710 0.11030 0.37200 -0.16600
C 	C 	0.69040 0.28890 0.37040 -0.04900
H 	H 	0.66620 0.29230 0.37400 0.04300
C 	C 	0.70570 0.23010 0.36940 -0.05900
H 	H 	0.69230 0.19200 0.37110 0.09600
C 	C 	0.73970 0.22750 0.36600 0.03600
C 	C 	0.75910 0.28120 0.36000 -0.02100
H 	H 	0.78310 0.27680 0.35550 0.01500
N 	N 	0.74440 0.34190 0.36050 -0.23500
C 	C 	0.71020 0.34410 0.36610 0.02600
H 	H 	0.69910 0.38470 0.36720 -0.02100
C 	C 	0.76220 0.16250 0.36510 -0.03400
H 	H 	0.77260 0.15670 0.34220 0.03800
H 	H 	0.78100 0.16340 0.38310 0.03600
C 	C 	0.74640 0.03560 0.31150 -0.18500
H 	H 	0.76100 0.01620 0.29350 0.07500
H 	H 	0.74720 0.08270 0.30840 0.10100
C 	C 	0.67150 0.92100 0.29500 0.02400
H 	H 	0.66890 0.87650 0.29030 0.01400
C 	C 	0.70460 0.94740 0.29860 -0.11300
H 	H 	0.72450 0.92090 0.29640 0.06200
C 	C 	0.70850 0.01250 0.30550 0.06300
C 	C 	0.67940 0.05120 0.30870 0.04500
C 	C 	0.64640 0.02490 0.30500 0.06000
C 	C 	0.64250 0.95980 0.29820 -0.11200
H 	H 	0.61990 0.94180 0.29560 0.06200
O 	O 	0.68490 0.11620 0.31450 -0.16800
C 	C 	0.67680 0.15440 0.28360 -0.02600
H 	H 	0.65640 0.13600 0.27100 0.03400
H 	H 	0.67110 0.19900 0.29030 0.04100
C 	C 	0.70800 0.15450 0.26020 0.01000
C 	C 	0.73880 0.17990 0.26900 -0.05100
H 	H 	0.74010 0.20640 0.28900 0.05200
C 	C 	0.76940 0.17080 0.25110 -0.05800
H 	H 	0.79160 0.18470 0.25940 0.04000
C 	C 	0.76350 0.13670 0.21740 0.00400
H 	H 	0.78220 0.13250 0.20220 -0.00700
N 	N 	0.73140 0.11120 0.20770 -0.23600
C 	C 	0.70390 0.11790 0.22790 -0.00100
H 	H 	0.68220 0.09930 0.22150 0.01100
C 	C 	0.61470 0.06150 0.31460 -0.18900
H 	H 	0.59540 0.05110 0.29820 0.07500
H 	H 	0.61940 0.10810 0.31300 0.09500
C 	C 	0.58060 0.97060 0.39330 0.01700
H 	H 	0.56800 0.93260 0.39810 0.01400
C 	C 	0.58550 0.98910 0.35930 -0.10700
H 	H 	0.57630 0.96370 0.34080 0.05800
C 	C 	0.60400 0.04470 0.35220 0.04800
C 	C 	0.61750 0.08180 0.37930 0.05600
C 	C 	0.61260 0.06340 0.41330 0.05500
C 	C 	0.59420 0.00780 0.42030 -0.10800
H 	H 	0.59080 0.99520 0.44360 0.06000
O 	O 	0.63070 0.14230 0.37400 -0.17400
C 	C 	0.60390 0.19180 0.36460 -0.02600
H 	H 	0.61530 0.23100 0.35600 0.03600
H 	H 	0.58800 0.17520 0.34620 0.03400
C 	C 	0.58520 0.20630 0.39420 -0.00000
C 	C 	0.55640 0.17220 0.40430 -0.03800
H 	H 	0.54670 0.13950 0.38990 0.04000
C 	C 	0.54130 0.18730 0.43760 -0.08400
H 	H 	0.52340 0.16160 0.44680 0.05400
C 	C 	0.55400 0.23990 0.45500 0.04100
H 	H 	0.54320 0.25090 0.47590 -0.01800
N 	N 	0.58040 0.27740 0.44540 -0.25900
C 	C 	0.59350 0.26070 0.41510 0.01100
H 	H 	0.61050 0.28880 0.40630 -0.00400
C 	C 	0.63070 0.09840 0.44610 -0.19600
H 	H 	0.63560 0.14360 0.44010 0.10900
H 	H 	0.61440 0.09850 0.46540 0.08000
C 	C 	0.62980 0.84260 0.45240 0.02100
H 	H 	0.63050 0.88120 0.43930 0.02100
C 	C 	0.59840 0.82010 0.46430 -0.11500
H 	H 	0.57760 0.84330 0.45930 0.06000
C 	C 	0.59730 0.76370 0.48330 0.06000
C 	C 	0.62770 0.72970 0.49050 0.03800
C 	C 	0.65920 0.75220 0.47860 0.05500
C 	C 	0.66020 0.80860 0.45950 -0.11300
H 	H 	0.68170 0.82400 0.45140 0.06600
O 	O 	0.62620 0.67410 0.51100 -0.15900
C 	C 	0.62080 0.61760 0.48760 -0.03600
H 	H 	0.59880 0.62260 0.47400 0.03600
H 	H 	0.64000 0.61470 0.47120 0.03700
C 	C 	0.61950 0.56160 0.50760 0.02100
C 	C 	0.62330 0.55570 0.54210 -0.04700
H 	H 	0.62740 0.59370 0.55510 0.09300
C 	C 	0.62160 0.49910 0.55970 -0.05800
H 	H 	0.62400 0.49680 0.58420 0.04700
C 	C 	0.61580 0.44360 0.53850 0.03500
H 	H 	0.61490 0.40270 0.54930 -0.02700
N 	N 	0.61160 0.44670 0.50430 -0.24300
C 	C 	0.61400 0.50420 0.49000 0.00200
H 	H 	0.61170 0.50650 0.46550 -0.01300
C 	C 	0.69360 0.71580 0.48990 -0.18900
H 	H 	0.68920 0.66920 0.49150 0.09700
H 	H 	0.71160 0.72280 0.47250 0.08100
C 	C 	0.73060 0.82710 0.56140 0.01800
H 	H 	0.74040 0.86880 0.56350 0.02000
C 	C 	0.72080 0.80340 0.52900 -0.11200
H 	H 	0.72390 0.82890 0.50900 0.06400
C 	C 	0.70650 0.74240 0.52590 0.05800
C 	C 	0.70190 0.70510 0.55520 0.04000
C 	C 	0.71170 0.72880 0.58760 0.05300
C 	C 	0.72600 0.78980 0.59070 -0.10700
H 	H 	0.73270 0.80610 0.61290 0.06300
O 	O 	0.69380 0.63730 0.55480 -0.16800
C 	C 	0.72470 0.60070 0.54550 -0.03100
H 	H 	0.72810 0.60240 0.52030 0.03600
H 	H 	0.74570 0.61820 0.55750 0.03500
C 	C 	0.71840 0.53500 0.55660 0.02000
C 	C 	0.70700 0.48410 0.53310 -0.04300
H 	H 	0.70270 0.49400 0.50940 0.04300
C 	C 	0.70250 0.42240 0.54430 -0.06300
H 	H 	0.69520 0.39040 0.52820 0.04500
C 	C 	0.70840 0.40590 0.57820 0.01900
H 	H 	0.70560 0.36270 0.58540 0.00100
N 	N 	0.71850 0.45240 0.60200 -0.23200
C 	C 	0.72320 0.51760 0.59220 -0.02300
H 	H 	0.72950 0.54910 0.60900 0.00900
C 	C 	0.70100 0.69330 0.62250 -0.18200
H 	H 	0.69330 0.64900 0.61730 0.10600
H 	H 	0.72120 0.69120 0.63880 0.07600
C 	C 	0.64680 0.82660 0.66640 0.01600
H 	H 	0.65020 0.86610 0.67830 0.01500
C 	C 	0.67530 0.79060 0.65660 -0.10700
H 	H 	0.69810 0.80550 0.66170 0.05900
C 	C 	0.67030 0.73270 0.63930 0.04800
C 	C 	0.63680 0.71090 0.63180 0.05500
C 	C 	0.60830 0.74690 0.64160 0.04800
C 	C 	0.61340 0.80470 0.65900 -0.10500
H 	H 	0.59390 0.82930 0.66570 0.05800
O 	O 	0.62910 0.65170 0.61690 -0.17100
C 	C 	0.62000 0.60100 0.64250 -0.02100
H 	H 	0.60150 0.61740 0.65740 0.03400
H 	H 	0.61080 0.56300 0.62990 0.03800
C 	C 	0.64780 0.58300 0.66270 -0.00800
C 	C 	0.66290 0.61770 0.69520 -0.04100
H 	H 	0.65180 0.65420 0.70460 0.04000
C 	C 	0.69330 0.59300 0.70980 -0.06400
H 	H 	0.70290 0.61490 0.72940 0.04300
C 	C 	0.70970 0.54330 0.69940 0.01000
H 	H 	0.73110 0.53200 0.71060 -0.01100
N 	N 	0.69660 0.50420 0.67140 -0.25100
C 	C 	0.66830 0.52380 0.65590 0.02600
H 	H 	0.65950 0.49710 0.63780 0.00300
C 	C 	0.56970 0.73070 0.63100 -0.17400
H 	H 	0.56710 0.68360 0.62910 0.09000
H 	H 	0.55440 0.74560 0.64950 0.07100
C 	C 	0.54400 0.86240 0.56830 0.01700
H 	H 	0.53810 0.90650 0.56970 0.01500
C 	C 	0.54940 0.82680 0.59840 -0.10400
H 	H 	0.54710 0.84660 0.62030 0.05900
C 	C 	0.55810 0.76220 0.59630 0.04800
C 	C 	0.56140 0.73320 0.56420 0.05600
C 	C 	0.55600 0.76880 0.53420 0.05900
C 	C 	0.54730 0.83340 0.53620 -0.11100
H 	H 	0.54360 0.85770 0.51570 0.06100
O 	O 	0.56840 0.66820 0.56040 -0.18600
C 	C 	0.54240 0.62640 0.57140 0.05800
C 	C 	0.50310 0.57590 0.48370 -0.00800
C 	C 	0.52640 0.58340 0.51120 -0.06200
H 	H 	0.54980 0.57040 0.50870 0.05600
C 	C 	0.51660 0.60960 0.54260 -0.01000
C 	C 	0.48220 0.62270 0.54380 0.00000
H 	H 	0.47500 0.64020 0.56510 -0.00000
N 	N 	0.45550 0.61480 0.51880 -0.26400
C 	C 	0.46840 0.59150 0.48680 -0.01600
H 	H 	0.45300 0.58680 0.46740 0.00600
C 	C 	0.56310 0.74030 0.49820 -0.18900
H 	H 	0.56360 0.69290 0.50000 0.10400
H 	H 	0.54370 0.75200 0.48200 0.07600
Zn	Zn	0.72649 0.42524 0.65565 1.16300
Zn	Zn	0.59499 0.36133 0.47412 1.14900
N 	N 	0.67640 0.37310 0.64880 -0.32400
C 	C 	0.65170 0.35200 0.64550 0.25900
C 	C 	0.61630 0.32250 0.63760 -0.61200
H 	H 	0.59810 0.35160 0.64530 0.18700
H 	H 	0.61440 0.28140 0.64980 0.18500
H 	H 	0.61340 0.31520 0.61270 0.18300
C 	C 	0.69130 0.52950 0.97780 0.02600
H 	H 	0.69010 0.57070 0.98820 0.01600
C 	C 	0.66130 0.49340 0.97270 -0.12000
H 	H 	0.63960 0.51000 0.97950 0.06700
C 	C 	0.66310 0.43310 0.95750 0.06700
C 	C 	0.69490 0.40890 0.94750 0.04400
C 	C 	0.72490 0.44500 0.95270 0.06900
C 	C 	0.72310 0.50530 0.96780 -0.12000
H 	H 	0.74370 0.53000 0.97140 0.06600
O 	O 	0.69760 0.34420 0.94150 -0.18100
C 	C 	0.70820 0.30760 0.97050 -0.00200
H 	H 	0.73380 0.30900 0.97370 0.02900
H 	H 	0.69770 0.32490 0.99170 0.02600
C 	C 	0.69560 0.23610 0.96390 0.00500
C 	C 	0.71800 0.18600 0.95600 -0.03100
H 	H 	0.74220 0.19360 0.95450 0.03900
C 	C 	0.70500 0.12680 0.95050 -0.07700
H 	H 	0.71960 0.09250 0.94380 0.05000
C 	C 	0.66950 0.11690 0.95480 0.03000
H 	H 	0.66020 0.07590 0.94900 -0.02100
N 	N 	0.64730 0.16210 0.96660 -0.25900
C 	C 	0.66140 0.22410 0.97090 -0.00800
H 	H 	0.64720 0.25800 0.97860 0.00600
C 	C 	0.75990 0.42400 0.94070 -0.19900
H 	H 	0.77770 0.43180 0.95920 0.08300
H 	H 	0.75950 0.37750 0.93550 0.10000
C 	C 	0.79540 0.55440 0.88310 0.01700
H 	H 	0.80900 0.59220 0.88550 0.02400
C 	C 	0.78890 0.51680 0.91190 -0.11300
H 	H 	0.79800 0.52900 0.93400 0.06400
C 	C 	0.76900 0.46150 0.90830 0.05600
C 	C 	0.75560 0.44360 0.87600 0.05200
C 	C 	0.76220 0.48120 0.84720 0.05200
C 	C 	0.78210 0.53660 0.85080 -0.11000
H 	H 	0.78660 0.56220 0.83110 0.05800
O 	O 	0.73710 0.38970 0.87200 -0.16600
C 	C 	0.69040 0.21110 0.87040 -0.04900
H 	H 	0.66620 0.20770 0.87400 0.04300
C 	C 	0.70570 0.26990 0.86940 -0.05900
H 	H 	0.69230 0.30800 0.87110 0.09600
C 	C 	0.73970 0.27250 0.86600 0.03600
C 	C 	0.75910 0.21880 0.86000 -0.02100
H 	H 	0.78310 0.22320 0.85550 0.01500
N 	N 	0.74440 0.15810 0.86050 -0.23500
C 	C 	0.71020 0.15590 0.86610 0.02600
H 	H 	0.69910 0.11530 0.86720 -0.02100
C 	C 	0.76220 0.33750 0.86510 -0.03400
H 	H 	0.77260 0.34330 0.84220 0.03800
H 	H 	0.78100 0.33660 0.88310 0.03600
C 	C 	0.74640 0.46440 0.81150 -0.18500
H 	H 	0.76100 0.48380 0.79350 0.07500
H 	H 	0.74720 0.41730 0.80840 0.10100
C 	C 	0.67150 0.57900 0.79500 0.02500
H 	H 	0.66890 0.62350 0.79030 0.01400
C 	C 	0.70460 0.55260 0.79860 -0.11300
H 	H 	0.72450 0.57910 0.79640 0.06200
C 	C 	0.70850 0.48750 0.80550 0.06300
C 	C 	0.67940 0.44880 0.80870 0.04500
C 	C 	0.64640 0.47510 0.80500 0.06000
C 	C 	0.64250 0.54020 0.79820 -0.11200
H 	H 	0.61990 0.55820 0.79560 0.06200
O 	O 	0.68490 0.38380 0.81450 -0.16800
C 	C 	0.67680 0.34560 0.78360 -0.02600
H 	H 	0.65640 0.36400 0.77100 0.03400
H 	H 	0.67110 0.30100 0.79030 0.04100
C 	C 	0.70800 0.34550 0.76020 0.01000
C 	C 	0.73880 0.32010 0.76900 -0.05100
H 	H 	0.74010 0.29360 0.78900 0.05200
C 	C 	0.76940 0.32920 0.75110 -0.05800
H 	H 	0.79160 0.31530 0.75940 0.04000
C 	C 	0.76350 0.36330 0.71740 0.00400
H 	H 	0.78220 0.36750 0.70220 -0.00700
N 	N 	0.73140 0.38880 0.70770 -0.23600
C 	C 	0.70390 0.38210 0.72790 -0.00100
H 	H 	0.68220 0.40070 0.72150 0.01100
C 	C 	0.61470 0.43850 0.81460 -0.18900
H 	H 	0.59540 0.44890 0.79820 0.07500
H 	H 	0.61940 0.39190 0.81300 0.09500
C 	C 	0.58060 0.52940 0.89330 0.01700
H 	H 	0.56800 0.56740 0.89810 0.01400
C 	C 	0.58550 0.51090 0.85930 -0.10700
H 	H 	0.57630 0.53630 0.84080 0.05800
C 	C 	0.60400 0.45530 0.85220 0.04800
C 	C 	0.61750 0.41820 0.87930 0.05600
C 	C 	0.61260 0.43660 0.91330 0.05500
C 	C 	0.59420 0.49220 0.92030 -0.10800
H 	H 	0.59080 0.50480 0.94360 0.06000
O 	O 	0.63070 0.35770 0.87400 -0.17400
C 	C 	0.60390 0.30820 0.86460 -0.02600
H 	H 	0.61530 0.26900 0.85600 0.03600
H 	H 	0.58800 0.32480 0.84620 0.03400
C 	C 	0.58520 0.29370 0.89420 -0.00000
C 	C 	0.55640 0.32780 0.90430 -0.03800
H 	H 	0.54670 0.36050 0.88990 0.04000
C 	C 	0.54130 0.31270 0.93760 -0.08400
H 	H 	0.52340 0.33840 0.94680 0.05400
C 	C 	0.55400 0.26010 0.95500 0.04100
H 	H 	0.54320 0.24910 0.97590 -0.01800
N 	N 	0.58040 0.22260 0.94540 -0.25900
C 	C 	0.59350 0.23930 0.91510 0.01100
H 	H 	0.61050 0.21120 0.90630 -0.00400
C 	C 	0.63070 0.40160 0.94610 -0.19600
H 	H 	0.63560 0.35640 0.94010 0.10900
H 	H 	0.61440 0.40150 0.96540 0.08000
C 	C 	0.62980 0.65740 0.95240 0.02000
H 	H 	0.63050 0.61880 0.93930 0.02200
C 	C 	0.59840 0.67990 0.96430 -0.11400
H 	H 	0.57760 0.65670 0.95930 0.06000
C 	C 	0.59730 0.73630 0.98330 0.05800
C 	C 	0.62770 0.77030 0.99050 0.03900
C 	C 	0.65920 0.74780 0.97860 0.05400
C 	C 	0.66020 0.69140 0.95950 -0.11200
H 	H 	0.68170 0.67600 0.95140 0.06600
O 	O 	0.62620 0.82590 0.01100 -0.16000
C 	C 	0.62080 0.88240 0.98760 -0.03200
H 	H 	0.59880 0.87740 0.97400 0.03600
H 	H 	0.64000 0.88530 0.97120 0.03700
C 	C 	0.61950 0.93840 0.00760 0.01700
C 	C 	0.62330 0.94430 0.04210 -0.04500
H 	H 	0.62740 0.90630 0.05510 0.09200
C 	C 	0.62160 0.00090 0.05970 -0.06000
H 	H 	0.62400 0.00320 0.08420 0.04800
C 	C 	0.61580 0.05640 0.03850 0.03500
H 	H 	0.61490 0.09730 0.04930 -0.02700
N 	N 	0.61160 0.05330 0.00430 -0.24400
C 	C 	0.61400 0.99580 0.99000 0.00500
H 	H 	0.61170 0.99350 0.96550 -0.01300
C 	C 	0.69360 0.78420 0.98990 -0.18800
H 	H 	0.68920 0.83080 0.99150 0.09700
H 	H 	0.71160 0.77720 0.97250 0.08100
C 	C 	0.73060 0.67290 0.06140 0.01700
H 	H 	0.74040 0.63120 0.06350 0.02000
C 	C 	0.72080 0.69660 0.02900 -0.11200
H 	H 	0.72390 0.67110 0.00900 0.06300
C 	C 	0.70650 0.75760 0.02590 0.05700
C 	C 	0.70190 0.79490 0.05520 0.04000
C 	C 	0.71170 0.77120 0.08760 0.05300
C 	C 	0.72600 0.71020 0.09070 -0.10700
H 	H 	0.73270 0.69390 0.11290 0.06300
O 	O 	0.69380 0.86270 0.05480 -0.16800
C 	C 	0.72470 0.89930 0.04550 -0.03100
H 	H 	0.72810 0.89760 0.02030 0.03600
H 	H 	0.74570 0.88180 0.05750 0.03500
C 	C 	0.71840 0.96500 0.05660 0.02000
C 	C 	0.70700 0.01590 0.03310 -0.04300
H 	H 	0.70270 0.00600 0.00940 0.04300
C 	C 	0.70250 0.07760 0.04430 -0.06300
H 	H 	0.69520 0.10960 0.02820 0.04400
C 	C 	0.70840 0.09410 0.07820 0.01900
H 	H 	0.70560 0.13730 0.08540 0.00100
N 	N 	0.71850 0.04760 0.10200 -0.23200
C 	C 	0.72320 0.98240 0.09220 -0.02300
H 	H 	0.72950 0.95090 0.10900 0.00900
C 	C 	0.70100 0.80670 0.12250 -0.18200
H 	H 	0.69330 0.85100 0.11730 0.10600
H 	H 	0.72120 0.80880 0.13880 0.07600
C 	C 	0.64680 0.67340 0.16640 0.01600
H 	H 	0.65020 0.63390 0.17830 0.01500
C 	C 	0.67530 0.70940 0.15660 -0.10700
H 	H 	0.69810 0.69450 0.16170 0.05900
C 	C 	0.67030 0.76730 0.13930 0.04800
C 	C 	0.63680 0.78910 0.13180 0.05500
C 	C 	0.60830 0.75310 0.14160 0.04800
C 	C 	0.61340 0.69530 0.15900 -0.10500
H 	H 	0.59390 0.67070 0.16570 0.05800
O 	O 	0.62910 0.84830 0.11690 -0.17100
C 	C 	0.62000 0.89900 0.14250 -0.02100
H 	H 	0.60150 0.88260 0.15740 0.03400
H 	H 	0.61080 0.93700 0.12990 0.03800
C 	C 	0.64780 0.91700 0.16270 -0.00800
C 	C 	0.66290 0.88230 0.19520 -0.04100
H 	H 	0.65180 0.84580 0.20460 0.04000
C 	C 	0.69330 0.90700 0.20980 -0.06400
H 	H 	0.70290 0.88510 0.22940 0.04300
C 	C 	0.70970 0.95670 0.19940 0.01000
H 	H 	0.73110 0.96800 0.21060 -0.01100
N 	N 	0.69660 0.99580 0.17140 -0.25100
C 	C 	0.66830 0.97620 0.15590 0.02600
H 	H 	0.65950 0.00290 0.13780 0.00300
C 	C 	0.56970 0.76930 0.13100 -0.17400
H 	H 	0.56710 0.81640 0.12910 0.09000
H 	H 	0.55440 0.75440 0.14950 0.07100
C 	C 	0.54400 0.63760 0.06830 0.01700
H 	H 	0.53810 0.59350 0.06970 0.01500
C 	C 	0.54940 0.67320 0.09840 -0.10400
H 	H 	0.54710 0.65340 0.12030 0.05900
C 	C 	0.55810 0.73780 0.09630 0.04800
C 	C 	0.56140 0.76680 0.06420 0.05700
C 	C 	0.55600 0.73120 0.03420 0.05700
C 	C 	0.54730 0.66660 0.03620 -0.11000
H 	H 	0.54360 0.64230 0.01570 0.06100
O 	O 	0.56840 0.83180 0.06040 -0.18600
C 	C 	0.54240 0.87360 0.07140 0.05800
C 	C 	0.50310 0.92410 0.98370 -0.00700
C 	C 	0.52640 0.91660 0.01120 -0.06300
H 	H 	0.54980 0.92960 0.00870 0.05600
C 	C 	0.51660 0.89040 0.04260 -0.01000
C 	C 	0.48220 0.87730 0.04380 -0.00000
H 	H 	0.47500 0.85980 0.06510 0.00000
N 	N 	0.45550 0.88520 0.01880 -0.26500
C 	C 	0.46840 0.90850 0.98680 -0.01600
H 	H 	0.45300 0.91320 0.96740 0.00600
C 	C 	0.56310 0.75970 0.99820 -0.18700
H 	H 	0.56360 0.80710 -0.00000 0.10300
H 	H 	0.54370 0.74800 0.98200 0.07500
Zn	Zn	0.72649 0.07476 0.15565 1.16300
Zn	Zn	0.59499 0.13867 0.97412 1.14900
N 	N 	0.67640 0.12690 0.14880 -0.32400
C 	C 	0.65170 0.14800 0.14550 0.25900
C 	C 	0.61630 0.17750 0.13760 -0.61200
H 	H 	0.59810 0.14840 0.14530 0.18600
H 	H 	0.61440 0.21860 0.14980 0.18500
H 	H 	0.61340 0.18480 0.11270 0.18300
C 	C 	0.19130 0.02950 0.47780 0.02700
H 	H 	0.19010 0.07070 0.48820 0.01600
C 	C 	0.16130 0.99340 0.47270 -0.12100
H 	H 	0.13960 0.01000 0.47950 0.06700
C 	C 	0.16310 0.93310 0.45750 0.06800
C 	C 	0.19490 0.90890 0.44750 0.04400
C 	C 	0.22490 0.94500 0.45270 0.06900
C 	C 	0.22310 0.00530 0.46780 -0.12000
H 	H 	0.24370 0.03000 0.47140 0.06600
O 	O 	0.19760 0.84420 0.44150 -0.18100
C 	C 	0.20820 0.80760 0.47050 -0.00200
H 	H 	0.23380 0.80900 0.47370 0.02900
H 	H 	0.19770 0.82490 0.49170 0.02600
C 	C 	0.19560 0.73610 0.46390 0.00400
C 	C 	0.21800 0.68600 0.45600 -0.03100
H 	H 	0.24220 0.69360 0.45450 0.03900
C 	C 	0.20500 0.62680 0.45050 -0.07700
H 	H 	0.21960 0.59250 0.44380 0.05000
C 	C 	0.16950 0.61690 0.45480 0.03000
H 	H 	0.16020 0.57590 0.44900 -0.02100
N 	N 	0.14730 0.66210 0.46660 -0.25900
C 	C 	0.16140 0.72410 0.47090 -0.00800
H 	H 	0.14720 0.75800 0.47860 0.00600
C 	C 	0.25990 0.92400 0.44070 -0.19900
H 	H 	0.27770 0.93180 0.45920 0.08300
H 	H 	0.25950 0.87750 0.43550 0.10000
C 	C 	0.29540 0.05440 0.38310 0.01600
H 	H 	0.30900 0.09220 0.38550 0.02400
C 	C 	0.28890 0.01680 0.41190 -0.11200
H 	H 	0.29800 0.02900 0.43400 0.06400
C 	C 	0.26900 0.96150 0.40830 0.05500
C 	C 	0.25560 0.94360 0.37600 0.05200
C 	C 	0.26220 0.98120 0.34720 0.05100
C 	C 	0.28210 0.03660 0.35080 -0.11000
H 	H 	0.28660 0.06220 0.33110 0.05800
O 	O 	0.23710 0.88970 0.37200 -0.16600
C 	C 	0.19040 0.71110 0.37040 -0.04900
H 	H 	0.16620 0.70770 0.37400 0.04300
C 	C 	0.20570 0.76990 0.36940 -0.05900
H 	H 	0.19230 0.80800 0.37110 0.09600
C 	C 	0.23970 0.77250 0.36600 0.03600
C 	C 	0.25910 0.71880 0.36000 -0.02100
H 	H 	0.28310 0.72320 0.35550 0.01500
N 	N 	0.24440 0.65810 0.36050 -0.23500
C 	C 	0.21020 0.65590 0.36610 0.02600
H 	H 	0.19910 0.61530 0.36720 -0.02100
C 	C 	0.26220 0.83750 0.36510 -0.03400
H 	H 	0.27260 0.84330 0.34220 0.03800
H 	H 	0.28100 0.83660 0.38310 0.03600
C 	C 	0.24640 0.96440 0.31150 -0.18500
H 	H 	0.26100 0.98380 0.29350 0.07500
H 	H 	0.24720 0.91730 0.30840 0.10100
C 	C 	0.17150 0.07900 0.29500 0.02400
H 	H 	0.16890 0.12350 0.29030 0.01400
C 	C 	0.20460 0.05260 0.29860 -0.11300
H 	H 	0.22450 0.07910 0.29640 0.06200
C 	C 	0.20850 0.98750 0.30550 0.06300
C 	C 	0.17940 0.94880 0.30870 0.04500
C 	C 	0.14640 0.97510 0.30500 0.05900
C 	C 	0.14250 0.04020 0.29820 -0.11200
H 	H 	0.11990 0.05820 0.29560 0.06200
O 	O 	0.18490 0.88380 0.31450 -0.16800
C 	C 	0.17680 0.84560 0.28360 -0.02600
H 	H 	0.15640 0.86400 0.27100 0.03400
H 	H 	0.17110 0.80100 0.29030 0.04100
C 	C 	0.20800 0.84550 0.26020 0.01000
C 	C 	0.23880 0.82010 0.26900 -0.05100
H 	H 	0.24010 0.79360 0.28900 0.05200
C 	C 	0.26940 0.82920 0.25110 -0.05800
H 	H 	0.29160 0.81530 0.25940 0.04000
C 	C 	0.26350 0.86330 0.21740 0.00400
H 	H 	0.28220 0.86750 0.20220 -0.00700
N 	N 	0.23140 0.88880 0.20770 -0.23600
C 	C 	0.20390 0.88210 0.22790 -0.00100
H 	H 	0.18220 0.90070 0.22150 0.01100
C 	C 	0.11470 0.93850 0.31460 -0.18900
H 	H 	0.09540 0.94890 0.29820 0.07500
H 	H 	0.11940 0.89190 0.31300 0.09500
C 	C 	0.08060 0.02940 0.39330 0.01800
H 	H 	0.06800 0.06740 0.39810 0.01400
C 	C 	0.08550 0.01090 0.35930 -0.10700
H 	H 	0.07630 0.03630 0.34080 0.05800
C 	C 	0.10400 0.95530 0.35220 0.04800
C 	C 	0.11750 0.91820 0.37930 0.05500
C 	C 	0.11260 0.93660 0.41330 0.05500
C 	C 	0.09420 0.99220 0.42030 -0.10800
H 	H 	0.09080 0.00480 0.44360 0.06000
O 	O 	0.13070 0.85770 0.37400 -0.17400
C 	C 	0.10390 0.80820 0.36460 -0.02600
H 	H 	0.11530 0.76900 0.35600 0.03600
H 	H 	0.08800 0.82480 0.34620 0.03400
C 	C 	0.08520 0.79370 0.39420 -0.00000
C 	C 	0.05640 0.82780 0.40430 -0.03800
H 	H 	0.04670 0.86050 0.38990 0.04000
C 	C 	0.04130 0.81270 0.43760 -0.08400
H 	H 	0.02340 0.83840 0.44680 0.05400
C 	C 	0.05400 0.76010 0.45500 0.04100
H 	H 	0.04320 0.74910 0.47590 -0.01800
N 	N 	0.08040 0.72260 0.44540 -0.25900
C 	C 	0.09350 0.73930 0.41510 0.01100
H 	H 	0.11050 0.71120 0.40630 -0.00400
C 	C 	0.13070 0.90160 0.44610 -0.19700
H 	H 	0.13560 0.85640 0.44010 0.10900
H 	H 	0.11440 0.90150 0.46540 0.08000
C 	C 	0.12980 0.15740 0.45240 0.02100
H 	H 	0.13050 0.11880 0.43930 0.02100
C 	C 	0.09840 0.17990 0.46430 -0.11500
H 	H 	0.07760 0.15670 0.45930 0.06000
C 	C 	0.09730 0.23630 0.48330 0.06000
C 	C 	0.12770 0.27030 0.49050 0.03800
C 	C 	0.15920 0.24780 0.47860 0.05500
C 	C 	0.16020 0.19140 0.45950 -0.11300
H 	H 	0.18170 0.17600 0.45140 0.06600
O 	O 	0.12620 0.32590 0.51100 -0.15900
C 	C 	0.12080 0.38240 0.48760 -0.03600
H 	H 	0.09880 0.37740 0.47400 0.03600
H 	H 	0.14000 0.38530 0.47120 0.03700
C 	C 	0.11950 0.43840 0.50760 0.02100
C 	C 	0.12330 0.44430 0.54210 -0.04700
H 	H 	0.12740 0.40630 0.55510 0.09300
C 	C 	0.12160 0.50090 0.55970 -0.05800
H 	H 	0.12400 0.50320 0.58420 0.04700
C 	C 	0.11580 0.55640 0.53850 0.03500
H 	H 	0.11490 0.59730 0.54930 -0.02700
N 	N 	0.11160 0.55330 0.50430 -0.24300
C 	C 	0.11400 0.49580 0.49000 0.00200
H 	H 	0.11170 0.49350 0.46550 -0.01300
C 	C 	0.19360 0.28420 0.48990 -0.18900
H 	H 	0.18920 0.33080 0.49150 0.09700
H 	H 	0.21160 0.27720 0.47250 0.08100
C 	C 	0.23060 0.17290 0.56140 0.01800
H 	H 	0.24040 0.13120 0.56350 0.02000
C 	C 	0.22080 0.19660 0.52900 -0.11200
H 	H 	0.22390 0.17110 0.50900 0.06400
C 	C 	0.20650 0.25760 0.52590 0.05800
C 	C 	0.20190 0.29490 0.55520 0.04000
C 	C 	0.21170 0.27120 0.58760 0.05300
C 	C 	0.22600 0.21020 0.59070 -0.10700
H 	H 	0.23270 0.19390 0.61290 0.06300
O 	O 	0.19380 0.36270 0.55480 -0.16800
C 	C 	0.22470 0.39930 0.54550 -0.03100
H 	H 	0.22810 0.39760 0.52030 0.03600
H 	H 	0.24570 0.38180 0.55750 0.03500
C 	C 	0.21840 0.46500 0.55660 0.02000
C 	C 	0.20700 0.51590 0.53310 -0.04300
H 	H 	0.20270 0.50600 0.50940 0.04300
C 	C 	0.20250 0.57760 0.54430 -0.06300
H 	H 	0.19520 0.60960 0.52820 0.04500
C 	C 	0.20840 0.59410 0.57820 0.01900
H 	H 	0.20560 0.63730 0.58540 0.00100
N 	N 	0.21850 0.54760 0.60200 -0.23200
C 	C 	0.22320 0.48240 0.59220 -0.02300
H 	H 	0.22950 0.45090 0.60900 0.00900
C 	C 	0.20100 0.30670 0.62250 -0.18200
H 	H 	0.19330 0.35100 0.61730 0.10600
H 	H 	0.22120 0.30880 0.63880 0.07600
C 	C 	0.14680 0.17340 0.66640 0.01600
H 	H 	0.15020 0.13390 0.67830 0.01500
C 	C 	0.17530 0.20940 0.65660 -0.10700
H 	H 	0.19810 0.19450 0.66170 0.05900
C 	C 	0.17030 0.26730 0.63930 0.04800
C 	C 	0.13680 0.28910 0.63180 0.05500
C 	C 	0.10830 0.25310 0.64160 0.04800
C 	C 	0.11340 0.19530 0.65900 -0.10500
H 	H 	0.09390 0.17070 0.66570 0.05800
O 	O 	0.12910 0.34830 0.61690 -0.17100
C 	C 	0.12000 0.39900 0.64250 -0.02100
H 	H 	0.10150 0.38260 0.65740 0.03400
H 	H 	0.11080 0.43700 0.62990 0.03800
C 	C 	0.14780 0.41700 0.66270 -0.00800
C 	C 	0.16290 0.38230 0.69520 -0.04100
H 	H 	0.15180 0.34580 0.70460 0.04000
C 	C 	0.19330 0.40700 0.70980 -0.06400
H 	H 	0.20290 0.38510 0.72940 0.04300
C 	C 	0.20970 0.45670 0.69940 0.01000
H 	H 	0.23110 0.46800 0.71060 -0.01100
N 	N 	0.19660 0.49580 0.67140 -0.25100
C 	C 	0.16830 0.47620 0.65590 0.02600
H 	H 	0.15950 0.50290 0.63780 0.00300
C 	C 	0.06970 0.26930 0.63100 -0.17400
H 	H 	0.06710 0.31640 0.62910 0.09000
H 	H 	0.05440 0.25440 0.64950 0.07100
C 	C 	0.04400 0.13760 0.56830 0.01700
H 	H 	0.03810 0.09350 0.56970 0.01500
C 	C 	0.04940 0.17320 0.59840 -0.10400
H 	H 	0.04710 0.15340 0.62030 0.05900
C 	C 	0.05810 0.23780 0.59630 0.04800
C 	C 	0.06140 0.26680 0.56420 0.05600
C 	C 	0.05600 0.23120 0.53420 0.05900
C 	C 	0.04730 0.16660 0.53620 -0.11100
H 	H 	0.04360 0.14230 0.51570 0.06100
O 	O 	0.06840 0.33180 0.56040 -0.18600
C 	C 	0.04240 0.37360 0.57140 0.05800
C 	C 	0.00310 0.42410 0.48370 -0.00800
C 	C 	0.02640 0.41660 0.51120 -0.06200
H 	H 	0.04980 0.42960 0.50870 0.05600
C 	C 	0.01660 0.39040 0.54260 -0.01000
C 	C 	0.98220 0.37730 0.54380 0.00000
H 	H 	0.97500 0.35980 0.56510 -0.00000
N 	N 	0.95550 0.38520 0.51880 -0.26400
C 	C 	0.96840 0.40850 0.48680 -0.01600
H 	H 	0.95300 0.41320 0.46740 0.00600
C 	C 	0.06310 0.25970 0.49820 -0.18900
H 	H 	0.06360 0.30710 0.50000 0.10400
H 	H 	0.04370 0.24800 0.48200 0.07600
Zn	Zn	0.22649 0.57476 0.65565 1.16300
Zn	Zn	0.09499 0.63867 0.47412 1.14900
N 	N 	0.17640 0.62690 0.64880 -0.32400
C 	C 	0.15170 0.64800 0.64550 0.25900
C 	C 	0.11630 0.67750 0.63760 -0.61200
H 	H 	0.09810 0.64840 0.64530 0.18600
H 	H 	0.11440 0.71860 0.64980 0.18500
H 	H 	0.11340 0.68480 0.61270 0.18300
C 	C 	0.80870 0.52950 0.02220 0.02600
H 	H 	0.80990 0.57070 0.01180 0.01600
C 	C 	0.83870 0.49340 0.02730 -0.12000
H 	H 	0.86040 0.51000 0.02050 0.06600
C 	C 	0.83690 0.43310 0.04250 0.06700
C 	C 	0.80510 0.40890 0.05250 0.04400
C 	C 	0.77510 0.44500 0.04730 0.06900
C 	C 	0.77690 0.50530 0.03220 -0.12000
H 	H 	0.75630 0.53000 0.02860 0.06600
O 	O 	0.80240 0.34420 0.05850 -0.18100
C 	C 	0.79180 0.30760 0.02950 -0.00200
H 	H 	0.76620 0.30900 0.02630 0.02800
H 	H 	0.80230 0.32490 0.00830 0.02600
C 	C 	0.80440 0.23610 0.03610 0.00400
C 	C 	0.78200 0.18600 0.04400 -0.03100
H 	H 	0.75780 0.19360 0.04550 0.03900
C 	C 	0.79500 0.12680 0.04950 -0.07700
H 	H 	0.78040 0.09250 0.05620 0.04900
C 	C 	0.83050 0.11690 0.04520 0.03000
H 	H 	0.83980 0.07590 0.05100 -0.02100
N 	N 	0.85270 0.16210 0.03340 -0.25900
C 	C 	0.83860 0.22410 0.02910 -0.00800
H 	H 	0.85280 0.25800 0.02140 0.00600
C 	C 	0.74010 0.42400 0.05930 -0.19900
H 	H 	0.72230 0.43180 0.04080 0.08300
H 	H 	0.74050 0.37750 0.06450 0.10000
C 	C 	0.70460 0.55440 0.11690 0.01700
H 	H 	0.69100 0.59220 0.11450 0.02400
C 	C 	0.71110 0.51680 0.08810 -0.11200
H 	H 	0.70200 0.52900 0.06600 0.06400
C 	C 	0.73100 0.46150 0.09170 0.05500
C 	C 	0.74440 0.44360 0.12400 0.05200
C 	C 	0.73780 0.48120 0.15280 0.05200
C 	C 	0.71790 0.53660 0.14920 -0.11000
H 	H 	0.71340 0.56220 0.16890 0.05800
O 	O 	0.76290 0.38970 0.12800 -0.16600
C 	C 	0.80960 0.21110 0.12960 -0.04900
H 	H 	0.83380 0.20770 0.12600 0.04300
C 	C 	0.79430 0.26990 0.13060 -0.05900
H 	H 	0.80770 0.30800 0.12890 0.09600
C 	C 	0.76030 0.27250 0.13400 0.03600
C 	C 	0.74090 0.21880 0.14000 -0.02100
H 	H 	0.71690 0.22320 0.14450 0.01500
N 	N 	0.75560 0.15810 0.13950 -0.23500
C 	C 	0.78980 0.15590 0.13390 0.02600
H 	H 	0.80090 0.11530 0.13280 -0.02100
C 	C 	0.73780 0.33750 0.13490 -0.03400
H 	H 	0.72740 0.34330 0.15780 0.03800
H 	H 	0.71900 0.33660 0.11690 0.03600
C 	C 	0.75360 0.46440 0.18850 -0.18500
H 	H 	0.73900 0.48380 0.20650 0.07500
H 	H 	0.75280 0.41730 0.19160 0.10100
C 	C 	0.82850 0.57900 0.20500 0.02400
H 	H 	0.83110 0.62350 0.20970 0.01400
C 	C 	0.79540 0.55260 0.20140 -0.11300
H 	H 	0.77550 0.57910 0.20360 0.06200
C 	C 	0.79150 0.48750 0.19450 0.06300
C 	C 	0.82060 0.44880 0.19130 0.04500
C 	C 	0.85360 0.47510 0.19500 0.06000
C 	C 	0.85750 0.54020 0.20180 -0.11200
H 	H 	0.88010 0.55820 0.20440 0.06200
O 	O 	0.81510 0.38380 0.18550 -0.16800
C 	C 	0.82320 0.34560 0.21640 -0.02600
H 	H 	0.84360 0.36400 0.22900 0.03400
H 	H 	0.82890 0.30100 0.20970 0.04100
C 	C 	0.79200 0.34550 0.23980 0.01000
C 	C 	0.76120 0.32010 0.23100 -0.05100
H 	H 	0.75990 0.29360 0.21100 0.05200
C 	C 	0.73060 0.32920 0.24890 -0.05800
H 	H 	0.70840 0.31530 0.24060 0.04000
C 	C 	0.73650 0.36330 0.28260 0.00400
H 	H 	0.71780 0.36750 0.29780 -0.00700
N 	N 	0.76860 0.38880 0.29230 -0.23600
C 	C 	0.79610 0.38210 0.27210 -0.00100
H 	H 	0.81780 0.40070 0.27850 0.01100
C 	C 	0.88530 0.43850 0.18540 -0.18900
H 	H 	0.90460 0.44890 0.20180 0.07500
H 	H 	0.88060 0.39190 0.18700 0.09500
C 	C 	0.91940 0.52940 0.10670 0.01700
H 	H 	0.93200 0.56740 0.10190 0.01400
C 	C 	0.91450 0.51090 0.14070 -0.10700
H 	H 	0.92370 0.53630 0.15920 0.05800
C 	C 	0.89600 0.45530 0.14780 0.04800
C 	C 	0.88250 0.41820 0.12070 0.05600
C 	C 	0.88740 0.43660 0.08670 0.05500
C 	C 	0.90580 0.49220 0.07970 -0.10800
H 	H 	0.90920 0.50480 0.05640 0.06000
O 	O 	0.86930 0.35770 0.12600 -0.17400
C 	C 	0.89610 0.30820 0.13540 -0.02600
H 	H 	0.88470 0.26900 0.14400 0.03600
H 	H 	0.91200 0.32480 0.15380 0.03400
C 	C 	0.91480 0.29370 0.10580 -0.00000
C 	C 	0.94360 0.32780 0.09570 -0.03800
H 	H 	0.95330 0.36050 0.11010 0.04000
C 	C 	0.95870 0.31270 0.06240 -0.08500
H 	H 	0.97660 0.33840 0.05320 0.05400
C 	C 	0.94600 0.26010 0.04500 0.04100
H 	H 	0.95680 0.24910 0.02410 -0.01800
N 	N 	0.91960 0.22260 0.05460 -0.25900
C 	C 	0.90650 0.23930 0.08490 0.01100
H 	H 	0.88950 0.21120 0.09370 -0.00400
C 	C 	0.86930 0.40160 0.05390 -0.19600
H 	H 	0.86440 0.35640 0.05990 0.10900
H 	H 	0.88560 0.40150 0.03460 0.08000
C 	C 	0.87020 0.65740 0.04760 0.02100
H 	H 	0.86950 0.61880 0.06070 0.02100
C 	C 	0.90160 0.67990 0.03570 -0.11500
H 	H 	0.92240 0.65670 0.04070 0.06000
C 	C 	0.90270 0.73630 0.01670 0.06000
C 	C 	0.87230 0.77030 0.00950 0.03700
C 	C 	0.84080 0.74780 0.02140 0.05500
C 	C 	0.83980 0.69140 0.04050 -0.11400
H 	H 	0.81830 0.67600 0.04860 0.06600
O 	O 	0.87380 0.82590 0.98900 -0.15700
C 	C 	0.87920 0.88240 0.01240 -0.03900
H 	H 	0.90120 0.87740 0.02600 0.03700
H 	H 	0.86000 0.88530 0.02880 0.03800
C 	C 	0.88050 0.93840 0.99240 0.02400
C 	C 	0.87670 0.94430 0.95790 -0.04900
H 	H 	0.87260 0.90630 0.94490 0.09300
C 	C 	0.87840 0.00090 0.94030 -0.05700
H 	H 	0.87600 0.00320 0.91580 0.04700
C 	C 	0.88420 0.05640 0.96150 0.03400
H 	H 	0.88510 0.09730 0.95070 -0.02600
N 	N 	0.88840 0.05330 0.99570 -0.24200
C 	C 	0.88600 0.99580 0.01000 -0.00100
H 	H 	0.88830 0.99350 0.03450 -0.01200
C 	C 	0.80640 0.78420 0.01010 -0.19000
H 	H 	0.81080 0.83080 0.00850 0.09700
H 	H 	0.78840 0.77720 0.02750 0.08100
C 	C 	0.76940 0.67290 0.93860 0.01800
H 	H 	0.75960 0.63120 0.93650 0.02000
C 	C 	0.77920 0.69660 0.97100 -0.11300
H 	H 	0.77610 0.67110 0.99100 0.06400
C 	C 	0.79350 0.75760 0.97410 0.05900
C 	C 	0.79810 0.79490 0.94480 0.03900
C 	C 	0.78830 0.77120 0.91240 0.05400
C 	C 	0.77400 0.71020 0.90930 -0.10700
H 	H 	0.76730 0.69390 0.88710 0.06300
O 	O 	0.80620 0.86270 0.94520 -0.16800
C 	C 	0.77530 0.89930 0.95450 -0.03100
H 	H 	0.77190 0.89760 0.97970 0.03700
H 	H 	0.75430 0.88180 0.94250 0.03500
C 	C 	0.78160 0.96500 0.94340 0.02100
C 	C 	0.79300 0.01590 0.96690 -0.04300
H 	H 	0.79730 0.00600 0.99060 0.04400
C 	C 	0.79750 0.07760 0.95570 -0.06300
H 	H 	0.80480 0.10960 0.97180 0.04500
C 	C 	0.79160 0.09410 0.92180 0.01900
H 	H 	0.79440 0.13730 0.91460 0.00100
N 	N 	0.78150 0.04760 0.89800 -0.23200
C 	C 	0.77680 0.98240 0.90780 -0.02300
H 	H 	0.77050 0.95090 0.89100 0.00900
C 	C 	0.79900 0.80670 0.87750 -0.18200
H 	H 	0.80670 0.85100 0.88270 0.10600
H 	H 	0.77880 0.80880 0.86120 0.07600
C 	C 	0.85320 0.67340 0.83360 0.01600
H 	H 	0.84980 0.63390 0.82170 0.01500
C 	C 	0.82470 0.70940 0.84340 -0.10700
H 	H 	0.80190 0.69450 0.83830 0.05900
C 	C 	0.82970 0.76730 0.86070 0.04800
C 	C 	0.86320 0.78910 0.86820 0.05500
C 	C 	0.89170 0.75310 0.85840 0.04800
C 	C 	0.88660 0.69530 0.84100 -0.10500
H 	H 	0.90610 0.67070 0.83430 0.05800
O 	O 	0.87090 0.84830 0.88310 -0.17100
C 	C 	0.88000 0.89900 0.85750 -0.02100
H 	H 	0.89850 0.88260 0.84260 0.03400
H 	H 	0.88920 0.93700 0.87010 0.03800
C 	C 	0.85220 0.91700 0.83730 -0.00800
C 	C 	0.83710 0.88230 0.80480 -0.04100
H 	H 	0.84820 0.84580 0.79540 0.04000
C 	C 	0.80670 0.90700 0.79020 -0.06400
H 	H 	0.79710 0.88510 0.77060 0.04300
C 	C 	0.79030 0.95670 0.80060 0.01000
H 	H 	0.76890 0.96800 0.78940 -0.01100
N 	N 	0.80340 0.99580 0.82860 -0.25100
C 	C 	0.83170 0.97620 0.84410 0.02600
H 	H 	0.84050 0.00290 0.86220 0.00300
C 	C 	0.93030 0.76930 0.86900 -0.17400
H 	H 	0.93290 0.81640 0.87090 0.09000
H 	H 	0.94560 0.75440 0.85050 0.07100
C 	C 	0.95600 0.63760 0.93170 0.01800
H 	H 	0.96190 0.59350 0.93030 0.01500
C 	C 	0.95060 0.67320 0.90160 -0.10400
H 	H 	0.95290 0.65340 0.87970 0.05900
C 	C 	0.94190 0.73780 0.90370 0.04900
C 	C 	0.93860 0.76680 0.93580 0.05600
C 	C 	0.94400 0.73120 0.96580 0.06000
C 	C 	0.95270 0.66660 0.96380 -0.11200
H 	H 	0.95640 0.64230 0.98430 0.06100
O 	O 	0.93160 0.83180 0.93960 -0.18500
C 	C 	0.95760 0.87360 0.92860 0.05800
C 	C 	0.99690 0.92410 0.01630 -0.00900
C 	C 	0.97360 0.91660 0.98880 -0.06100
H 	H 	0.95020 0.92960 0.99130 0.05500
C 	C 	0.98340 0.89040 0.95740 -0.01000
C 	C 	0.01780 0.87730 0.95620 0.00000
H 	H 	0.02500 0.85980 0.93490 -0.00000
N 	N 	0.04450 0.88520 0.98120 -0.26400
C 	C 	0.03160 0.90850 0.01320 -0.01700
H 	H 	0.04700 0.91320 0.03260 0.00600
C 	C 	0.93690 0.75970 0.00180 -0.19100
H 	H 	0.93640 0.80710 -0.00000 0.10400
H 	H 	0.95630 0.74800 0.01800 0.07600
Zn	Zn	0.77351 0.07476 0.84435 1.16300
Zn	Zn	0.90501 0.13867 0.02588 1.14900
N 	N 	0.82360 0.12690 0.85120 -0.32400
C 	C 	0.84830 0.14800 0.85450 0.25900
C 	C 	0.88370 0.17750 0.86240 -0.61200
H 	H 	0.90190 0.14840 0.85470 0.18700
H 	H 	0.88560 0.21860 0.85020 0.18500
H 	H 	0.88660 0.18480 0.88730 0.18400
C 	C 	0.30870 0.02950 0.52220 0.02600
H 	H 	0.30990 0.07070 0.51180 0.01600
C 	C 	0.33870 0.99340 0.52730 -0.12100
H 	H 	0.36040 0.01000 0.52050 0.06700
C 	C 	0.33690 0.93310 0.54250 0.06800
C 	C 	0.30510 0.90890 0.55250 0.04400
C 	C 	0.27510 0.94500 0.54730 0.06900
C 	C 	0.27690 0.00530 0.53220 -0.12000
H 	H 	0.25630 0.03000 0.52860 0.06600
O 	O 	0.30240 0.84420 0.55850 -0.18100
C 	C 	0.29180 0.80760 0.52950 -0.00200
H 	H 	0.26620 0.80900 0.52630 0.02900
H 	H 	0.30230 0.82490 0.50830 0.02600
C 	C 	0.30440 0.73610 0.53610 0.00400
C 	C 	0.28200 0.68600 0.54400 -0.03100
H 	H 	0.25780 0.69360 0.54550 0.03900
C 	C 	0.29500 0.62680 0.54950 -0.07700
H 	H 	0.28040 0.59250 0.55620 0.05000
C 	C 	0.33050 0.61690 0.54520 0.03000
H 	H 	0.33980 0.57590 0.55100 -0.02100
N 	N 	0.35270 0.66210 0.53340 -0.25900
C 	C 	0.33860 0.72410 0.52910 -0.00800
H 	H 	0.35280 0.75800 0.52140 0.00600
C 	C 	0.24010 0.92400 0.55930 -0.19900
H 	H 	0.22230 0.93180 0.54080 0.08300
H 	H 	0.24050 0.87750 0.56450 0.10000
C 	C 	0.20460 0.05440 0.61690 0.01600
H 	H 	0.19100 0.09220 0.61450 0.02400
C 	C 	0.21110 0.01680 0.58810 -0.11200
H 	H 	0.20200 0.02900 0.56600 0.06400
C 	C 	0.23100 0.96150 0.59170 0.05500
C 	C 	0.24440 0.94360 0.62400 0.05200
C 	C 	0.23780 0.98120 0.65280 0.05100
C 	C 	0.21790 0.03660 0.64920 -0.11000
H 	H 	0.21340 0.06220 0.66890 0.05800
O 	O 	0.26290 0.88970 0.62800 -0.16600
C 	C 	0.30960 0.71110 0.62960 -0.04900
H 	H 	0.33380 0.70770 0.62600 0.04300
C 	C 	0.29430 0.76990 0.63060 -0.05900
H 	H 	0.30770 0.80800 0.62890 0.09600
C 	C 	0.26030 0.77250 0.63400 0.03600
C 	C 	0.24090 0.71880 0.64000 -0.02100
H 	H 	0.21690 0.72320 0.64450 0.01500
N 	N 	0.25560 0.65810 0.63950 -0.23500
C 	C 	0.28980 0.65590 0.63390 0.02600
H 	H 	0.30090 0.61530 0.63280 -0.02100
C 	C 	0.23780 0.83750 0.63490 -0.03400
H 	H 	0.22740 0.84330 0.65780 0.03800
H 	H 	0.21900 0.83660 0.61690 0.03600
C 	C 	0.25360 0.96440 0.68850 -0.18500
H 	H 	0.23900 0.98380 0.70650 0.07500
H 	H 	0.25280 0.91730 0.69160 0.10100
C 	C 	0.32850 0.07900 0.70500 0.02400
H 	H 	0.33110 0.12350 0.70970 0.01400
C 	C 	0.29540 0.05260 0.70140 -0.11300
H 	H 	0.27550 0.07910 0.70360 0.06200
C 	C 	0.29150 0.98750 0.69450 0.06300
C 	C 	0.32060 0.94880 0.69130 0.04500
C 	C 	0.35360 0.97510 0.69500 0.05900
C 	C 	0.35750 0.04020 0.70180 -0.11200
H 	H 	0.38010 0.05820 0.70440 0.06200
O 	O 	0.31510 0.88380 0.68550 -0.16800
C 	C 	0.32320 0.84560 0.71640 -0.02600
H 	H 	0.34360 0.86400 0.72900 0.03400
H 	H 	0.32890 0.80100 0.70970 0.04100
C 	C 	0.29200 0.84550 0.73980 0.01000
C 	C 	0.26120 0.82010 0.73100 -0.05100
H 	H 	0.25990 0.79360 0.71100 0.05200
C 	C 	0.23060 0.82920 0.74890 -0.05800
H 	H 	0.20840 0.81530 0.74060 0.04000
C 	C 	0.23650 0.86330 0.78260 0.00400
H 	H 	0.21780 0.86750 0.79780 -0.00700
N 	N 	0.26860 0.88880 0.79230 -0.23600
C 	C 	0.29610 0.88210 0.77210 -0.00100
H 	H 	0.31780 0.90070 0.77850 0.01100
C 	C 	0.38530 0.93850 0.68540 -0.18900
H 	H 	0.40460 0.94890 0.70180 0.07500
H 	H 	0.38060 0.89190 0.68700 0.09500
C 	C 	0.41940 0.02940 0.60670 0.01700
H 	H 	0.43200 0.06740 0.60190 0.01400
C 	C 	0.41450 0.01090 0.64070 -0.10700
H 	H 	0.42370 0.03630 0.65920 0.05800
C 	C 	0.39600 0.95530 0.64780 0.04800
C 	C 	0.38250 0.91820 0.62070 0.05600
C 	C 	0.38740 0.93660 0.58670 0.05500
C 	C 	0.40580 0.99220 0.57970 -0.10800
H 	H 	0.40920 0.00480 0.55640 0.06000
O 	O 	0.36930 0.85770 0.62600 -0.17400
C 	C 	0.39610 0.80820 0.63540 -0.02600
H 	H 	0.38470 0.76900 0.64400 0.03600
H 	H 	0.41200 0.82480 0.65380 0.03400
C 	C 	0.41480 0.79370 0.60580 -0.00000
C 	C 	0.44360 0.82780 0.59570 -0.03800
H 	H 	0.45330 0.86050 0.61010 0.04000
C 	C 	0.45870 0.81270 0.56240 -0.08400
H 	H 	0.47660 0.83840 0.55320 0.05400
C 	C 	0.44600 0.76010 0.54500 0.04100
H 	H 	0.45680 0.74910 0.52410 -0.01800
N 	N 	0.41960 0.72260 0.55460 -0.25900
C 	C 	0.40650 0.73930 0.58490 0.01100
H 	H 	0.38950 0.71120 0.59370 -0.00400
C 	C 	0.36930 0.90160 0.55390 -0.19600
H 	H 	0.36440 0.85640 0.55990 0.10900
H 	H 	0.38560 0.90150 0.53460 0.08000
C 	C 	0.37020 0.15740 0.54760 0.02100
H 	H 	0.36950 0.11880 0.56070 0.02100
C 	C 	0.40160 0.17990 0.53570 -0.11500
H 	H 	0.42240 0.15670 0.54070 0.06000
C 	C 	0.40270 0.23630 0.51670 0.06000
C 	C 	0.37230 0.27030 0.50950 0.03800
C 	C 	0.34080 0.24780 0.52140 0.05500
C 	C 	0.33980 0.19140 0.54050 -0.11300
H 	H 	0.31830 0.17600 0.54860 0.06600
O 	O 	0.37380 0.32590 0.48900 -0.15900
C 	C 	0.37920 0.38240 0.51240 -0.03600
H 	H 	0.40120 0.37740 0.52600 0.03600
H 	H 	0.36000 0.38530 0.52880 0.03700
C 	C 	0.38050 0.43840 0.49240 0.02100
C 	C 	0.37670 0.44430 0.45790 -0.04700
H 	H 	0.37260 0.40630 0.44490 0.09300
C 	C 	0.37840 0.50090 0.44030 -0.05800
H 	H 	0.37600 0.50320 0.41580 0.04700
C 	C 	0.38420 0.55640 0.46150 0.03500
H 	H 	0.38510 0.59730 0.45070 -0.02700
N 	N 	0.38840 0.55330 0.49570 -0.24300
C 	C 	0.38600 0.49580 0.51000 0.00200
H 	H 	0.38830 0.49350 0.53450 -0.01300
C 	C 	0.30640 0.28420 0.51010 -0.18900
H 	H 	0.31080 0.33080 0.50850 0.09700
H 	H 	0.28840 0.27720 0.52750 0.08100
C 	C 	0.26940 0.17290 0.43860 0.01800
H 	H 	0.25960 0.13120 0.43650 0.02000
C 	C 	0.27920 0.19660 0.47100 -0.11200
H 	H 	0.27610 0.17110 0.49100 0.06400
C 	C 	0.29350 0.25760 0.47410 0.05800
C 	C 	0.29810 0.29490 0.44480 0.04000
C 	C 	0.28830 0.27120 0.41240 0.05300
C 	C 	0.27400 0.21020 0.40930 -0.10700
H 	H 	0.26730 0.19390 0.38710 0.06300
O 	O 	0.30620 0.36270 0.44520 -0.16800
C 	C 	0.27530 0.39930 0.45450 -0.03100
H 	H 	0.27190 0.39760 0.47970 0.03600
H 	H 	0.25430 0.38180 0.44250 0.03500
C 	C 	0.28160 0.46500 0.44340 0.02000
C 	C 	0.29300 0.51590 0.46690 -0.04300
H 	H 	0.29730 0.50600 0.49060 0.04300
C 	C 	0.29750 0.57760 0.45570 -0.06300
H 	H 	0.30480 0.60960 0.47180 0.04500
C 	C 	0.29160 0.59410 0.42180 0.01900
H 	H 	0.29440 0.63730 0.41460 0.00100
N 	N 	0.28150 0.54760 0.39800 -0.23200
C 	C 	0.27680 0.48240 0.40780 -0.02300
H 	H 	0.27050 0.45090 0.39100 0.00900
C 	C 	0.29900 0.30670 0.37750 -0.18200
H 	H 	0.30670 0.35100 0.38270 0.10600
H 	H 	0.27880 0.30880 0.36120 0.07600
C 	C 	0.35320 0.17340 0.33360 0.01600
H 	H 	0.34980 0.13390 0.32170 0.01500
C 	C 	0.32470 0.20940 0.34340 -0.10700
H 	H 	0.30190 0.19450 0.33830 0.05900
C 	C 	0.32970 0.26730 0.36070 0.04800
C 	C 	0.36320 0.28910 0.36820 0.05500
C 	C 	0.39170 0.25310 0.35840 0.04800
C 	C 	0.38660 0.19530 0.34100 -0.10500
H 	H 	0.40610 0.17070 0.33430 0.05800
O 	O 	0.37090 0.34830 0.38310 -0.17100
C 	C 	0.38000 0.39900 0.35750 -0.02100
H 	H 	0.39850 0.38260 0.34260 0.03400
H 	H 	0.38920 0.43700 0.37010 0.03800
C 	C 	0.35220 0.41700 0.33730 -0.00800
C 	C 	0.33710 0.38230 0.30480 -0.04100
H 	H 	0.34820 0.34580 0.29540 0.04000
C 	C 	0.30670 0.40700 0.29020 -0.06400
H 	H 	0.29710 0.38510 0.27060 0.04300
C 	C 	0.29030 0.45670 0.30060 0.01000
H 	H 	0.26890 0.46800 0.28940 -0.01100
N 	N 	0.30340 0.49580 0.32860 -0.25100
C 	C 	0.33170 0.47620 0.34410 0.02600
H 	H 	0.34050 0.50290 0.36220 0.00300
C 	C 	0.43030 0.26930 0.36900 -0.17400
H 	H 	0.43290 0.31640 0.37090 0.09000
H 	H 	0.44560 0.25440 0.35050 0.07100
C 	C 	0.45600 0.13760 0.43170 0.01700
H 	H 	0.46190 0.09350 0.43030 0.01500
C 	C 	0.45060 0.17320 0.40160 -0.10400
H 	H 	0.45290 0.15340 0.37970 0.05900
C 	C 	0.44190 0.23780 0.40370 0.04800
C 	C 	0.43860 0.26680 0.43580 0.05600
C 	C 	0.44400 0.23120 0.46580 0.05900
C 	C 	0.45270 0.16660 0.46380 -0.11100
H 	H 	0.45640 0.14230 0.48430 0.06100
O 	O 	0.43160 0.33180 0.43960 -0.18600
C 	C 	0.45760 0.37360 0.42860 0.05800
C 	C 	0.49690 0.42410 0.51630 -0.00800
C 	C 	0.47360 0.41660 0.48880 -0.06200
H 	H 	0.45020 0.42960 0.49130 0.05600
C 	C 	0.48340 0.39040 0.45740 -0.01000
C 	C 	0.51780 0.37730 0.45620 0.00000
H 	H 	0.52500 0.35980 0.43490 -0.00000
N 	N 	0.54450 0.38520 0.48120 -0.26400
C 	C 	0.53160 0.40850 0.51320 -0.01600
H 	H 	0.54700 0.41320 0.53260 0.00600
C 	C 	0.43690 0.25970 0.50180 -0.18900
H 	H 	0.43640 0.30710 0.50000 0.10400
H 	H 	0.45630 0.24800 0.51800 0.07600
Zn	Zn	0.27351 0.57476 0.34435 1.16300
Zn	Zn	0.40501 0.63867 0.52588 1.14900
N 	N 	0.32360 0.62690 0.35120 -0.32400
C 	C 	0.34830 0.64800 0.35450 0.25900
C 	C 	0.38370 0.67750 0.36240 -0.61200
H 	H 	0.40190 0.64840 0.35470 0.18700
H 	H 	0.38560 0.71860 0.35020 0.18500
H 	H 	0.38660 0.68480 0.38730 0.18300
