data_crystal

_cell_length_a 20.01400
_cell_length_b 37.95600
_cell_length_c 25.08500
_cell_angle_alpha 90.00000
_cell_angle_beta  109.38400
_cell_angle_gamma 90.00000

_symmetry_space_group_name_	'P 1'
_symmetry_space_group_name_H-M	'P 1'

loop_
_symmetry_equiv_pos_as_xyz
  x,y,z

loop_
_atom_site_label
_atom_site_type_symbol
_atom_site_fract_x
_atom_site_fract_y
_atom_site_fract_z
_atom_site_charge
Cu	Cu	0.53865 0.12826 0.33196 0.76400
Cu	Cu	0.55307 0.97457 0.36768 0.82500
Cu	Cu	0.09300 0.25492 0.49668 0.81500
Cu	Cu	0.79502 0.21825 0.38115 0.82700
Cu	Cu	0.00634 0.32893 0.43232 0.81200
Cu	Cu	0.31690 0.20605 0.38771 0.83600
Cu	Cu	0.15240 0.33112 0.41289 0.81800
Cu	Cu	0.60893 0.09461 0.24641 0.77900
Cl	Cl	0.12511 0.31878 0.50799 -0.79700
N 	N 	0.55012 0.07755 0.32777 -0.27900
N 	N 	0.55340 0.01956 0.33808 -0.28800
N 	N 	0.59146 0.06399 0.29842 -0.26600
N 	N 	0.27897 0.20438 0.58386 -0.28400
N 	N 	0.22367 0.25427 0.58871 -0.24300
N 	N 	0.18237 0.23589 0.54165 -0.24600
N 	N 	0.99482 0.25465 0.45217 -0.24800
N 	N 	0.95906 0.28523 0.42782 -0.25200
N 	N 	0.88142 0.24169 0.41105 -0.28600
N 	N 	0.53355 0.87367 0.41139 -0.24700
N 	N 	0.59514 0.87236 0.39774 -0.25400
N 	N 	0.56071 0.92786 0.39313 -0.29000
N 	N 	0.38568 0.13066 0.30225 -0.27100
N 	N 	0.44753 0.14824 0.33091 -0.27700
N 	N 	0.35886 0.17459 0.34936 -0.27600
N 	N 	0.70591 0.19760 0.35084 -0.28900
N 	N 	0.61398 0.16198 0.33571 -0.26800
N 	N 	0.59319 0.19055 0.29998 -0.27200
N 	N 	0.67560 0.37580 0.30510 -0.32800
H 	H 	0.68170 0.39230 0.28360 0.13400
H 	H 	0.63690 0.37480 0.31290 0.13200
N 	N 	0.63170 0.33283 0.17660 -0.32900
H 	H 	0.59630 0.34690 0.17050 0.13300
H 	H 	0.66290 0.33660 0.16060 0.13800
N 	N 	0.32480 0.08512 0.45380 -0.33000
H 	H 	0.33330 0.10210 0.47780 0.15300
H 	H 	0.28550 0.07380 0.44530 0.14100
N 	N 	0.74150 0.94861 0.19170 -0.32700
H 	H 	0.72400 0.92910 0.17560 0.14500
H 	H 	0.78100 0.95620 0.18960 0.13600
N 	N 	0.64550 0.27249 0.46150 -0.31800
H 	H 	0.68450 0.26570 0.48630 0.11200
H 	H 	0.64030 0.29410 0.45070 0.13300
N 	N 	0.07660 0.09369 0.39890 -0.32300
H 	H 	0.08290 0.07250 0.41190 0.12800
H 	H 	0.04670 0.09770 0.36590 0.13000
N 	N 	0.00910 0.08704 0.50960 -0.34400
H 	H 	0.04140 0.08240 0.54120 0.14100
H 	H 	0.98720 0.07020 0.48780 0.14300
N 	N 	0.47820 0.27397 0.82545 -0.31900
H 	H 	0.48360 0.29570 0.83550 0.13600
H 	H 	0.50270 0.25790 0.84770 0.11800
N 	N 	0.85190 0.07688 0.53890 -0.32700
H 	H 	0.87220 0.08520 0.57230 0.13300
H 	H 	0.85680 0.05500 0.53210 0.12800
N 	N 	0.86660 0.94291 0.35560 -0.32800
H 	H 	0.88410 0.92990 0.33550 0.13100
H 	H 	0.88940 0.96110 0.37270 0.13200
N 	N 	0.29470 0.96467 0.47630 -0.34100
H 	H 	0.29570 0.98670 0.48460 0.13200
H 	H 	0.25970 0.95180 0.47700 0.14600
N 	N 	0.06790 0.08070 0.21880 -0.31700
H 	H 	0.05370 0.07470 0.18380 0.12500
H 	H 	0.04240 0.07580 0.23950 0.12100
C 	C 	0.21649 0.20606 0.54039 0.12300
C 	C 	0.14220 0.18353 0.44551 0.09600
H 	H 	0.13590 0.20640 0.43140 -0.05700
C 	C 	0.11470 0.12147 0.43160 0.20700
C 	C 	0.16220 0.11498 0.48430 -0.23400
H 	H 	0.17140 0.09190 0.49710 0.09900
C 	C 	0.18673 0.17743 0.50038 -0.17400
C 	C 	0.19710 0.14267 0.51906 0.09900
H 	H 	0.22770 0.13780 0.55530 -0.05400
C 	C 	0.10690 0.15587 0.41130 -0.23300
H 	H 	0.07780 0.16040 0.37450 0.09600
C 	C 	0.28098 0.23462 0.61307 0.11700
C 	C 	0.33520 0.24498 0.66641 -0.18200
C 	C 	0.37570 0.21980 0.70420 0.09000
H 	H 	0.37120 0.19610 0.69410 -0.06300
C 	C 	0.42240 0.22975 0.75630 -0.22800
H 	H 	0.44930 0.21260 0.78050 0.07700
C 	C 	0.34320 0.28015 0.68390 0.10200
H 	H 	0.31680 0.29750 0.65980 -0.06000
C 	C 	0.42980 0.26468 0.77310 0.20000
C 	C 	0.38960 0.28976 0.73640 -0.24600
H 	H 	0.39380 0.31330 0.74700 0.10500
C 	C 	0.60996 0.90500 0.38748 0.12600
C 	C 	0.67400 0.91539 0.37586 -0.19400
C 	C 	0.70140 0.89592 0.34180 0.11000
H 	H 	0.67750 0.87590 0.32380 -0.05100
C 	C 	0.76450 0.90564 0.33390 -0.25100
H 	H 	0.78170 0.89240 0.31020 0.10100
C 	C 	0.71130 0.94517 0.40210 0.10700
H 	H 	0.69350 0.95900 0.42490 -0.06000
C 	C 	0.80140 0.93445 0.36070 0.21900
C 	C 	0.77410 0.95454 0.39480 -0.24600
H 	H 	0.79840 0.97440 0.41290 0.09600
C 	C 	0.51493 0.90737 0.40922 0.14600
C 	C 	0.45740 0.95670 0.44260 0.15900
H 	H 	0.49440 0.97130 0.44190 -0.08400
C 	C 	0.40480 0.97014 0.46020 -0.28900
H 	H 	0.40720 0.99360 0.47140 0.11700
C 	C 	0.45660 0.92145 0.42574 -0.21000
C 	C 	0.40190 0.90080 0.43020 0.15400
H 	H 	0.40100 0.87700 0.42120 -0.07000
C 	C 	0.34920 0.91423 0.44740 -0.28100
H 	H 	0.31310 0.89960 0.44980 0.12100
C 	C 	0.34900 0.95009 0.46160 0.24400
C 	C 	0.72524 0.14306 0.41061 -0.19200
C 	C 	0.76120 0.15571 0.46400 0.10300
H 	H 	0.75710 0.17940 0.47200 -0.04800
C 	C 	0.73170 0.10786 0.40080 0.11800
H 	H 	0.70690 0.09840 0.36560 -0.06100
C 	C 	0.68172 0.16685 0.36582 0.12700
C 	C 	0.80330 0.13379 0.50620 -0.24600
H 	H 	0.82640 0.14290 0.54200 0.09900
C 	C 	0.77490 0.08608 0.44290 -0.25500
H 	H 	0.77930 0.06240 0.43510 0.09900
C 	C 	0.81110 0.09902 0.49550 0.21300
C 	C 	0.64844 0.24420 0.27895 -0.18500
C 	C 	0.69940 0.25122 0.25416 0.09700
H 	H 	0.73710 0.23570 0.25960 -0.05300
C 	C 	0.69480 0.28078 0.22170 -0.25000
H 	H 	0.73000 0.28530 0.20600 0.10100
C 	C 	0.59340 0.26824 0.27086 0.09900
H 	H 	0.55940 0.26430 0.28800 -0.03800
C 	C 	0.64922 0.21131 0.30991 0.13100
C 	C 	0.63830 0.30409 0.21197 0.21200
C 	C 	0.58870 0.29744 0.23819 -0.24000
H 	H 	0.55160 0.31320 0.23340 0.09500
C 	C 	0.59299 0.02938 0.30547 0.12100
C 	C 	0.63330 0.00662 0.27999 -0.18000
C 	C 	0.60640 0.97464 0.25413 0.08900
H 	H 	0.56410 0.96600 0.25660 -0.06700
C 	C 	0.70570 0.96788 0.22140 0.20600
C 	C 	0.69790 0.01808 0.27710 0.09600
H 	H 	0.71700 0.03910 0.29460 -0.04100
C 	C 	0.64200 0.95575 0.22500 -0.24100
H 	H 	0.62310 0.93470 0.20760 0.09100
C 	C 	0.73410 0.99926 0.24920 -0.23400
H 	H 	0.77770 0.00730 0.24860 0.09800
C 	C 	0.41440 0.03805 0.36800 0.06500
H 	H 	0.40610 0.01900 0.34320 -0.02500
C 	C 	0.43800 0.09405 0.44198 -0.22400
H 	H 	0.44630 0.11310 0.46650 0.09600
C 	C 	0.47790 0.05615 0.38114 -0.18300
C 	C 	0.52742 0.05063 0.35043 0.10800
C 	C 	0.48900 0.08429 0.41957 0.08300
H 	H 	0.53180 0.09650 0.42990 -0.04000
C 	C 	0.37450 0.07608 0.42880 0.20000
C 	C 	0.36320 0.04766 0.39080 -0.22700
H 	H 	0.32080 0.03520 0.38100 0.09600
C 	C 	0.96180 0.19244 0.45944 -0.17900
C 	C 	0.01250 0.18391 0.51115 0.11100
H 	H 	0.03720 0.20190 0.53470 -0.06400
C 	C 	0.92630 0.16467 0.42510 0.11500
H 	H 	0.89200 0.16950 0.39040 -0.06500
C 	C 	0.94170 0.13011 0.44190 -0.24800
H 	H 	0.91770 0.11200 0.41830 0.10400
C 	C 	0.94680 0.22912 0.44171 0.13400
C 	C 	0.02700 0.14928 0.52814 -0.26000
H 	H 	0.06050 0.14430 0.56320 0.10500
C 	C 	0.99220 0.12186 0.49350 0.23900
C 	C 	0.89180 0.27642 0.40382 0.13000
C 	C 	0.77050 0.30004 0.38537 0.11300
H 	H 	0.76270 0.28240 0.40840 -0.06300
C 	C 	0.71800 0.32441 0.36170 -0.24600
H 	H 	0.67550 0.32310 0.36900 0.10100
C 	C 	0.72800 0.35090 0.32710 0.22100
C 	C 	0.79060 0.35173 0.31560 -0.25200
H 	H 	0.79730 0.36890 0.29150 0.10300
C 	C 	0.84360 0.32746 0.33912 0.11500
H 	H 	0.88550 0.32850 0.33070 -0.05800
C 	C 	0.83489 0.30130 0.37546 -0.19300
C 	C 	0.33383 0.14706 0.31374 0.13600
C 	C 	0.26076 0.13408 0.28937 -0.17000
C 	C 	0.23680 0.12445 0.23360 0.08100
H 	H 	0.26370 0.13010 0.21090 -0.05200
C 	C 	0.21950 0.12705 0.32260 0.08900
H 	H 	0.23440 0.13400 0.36020 -0.02200
C 	C 	0.17360 0.10645 0.21000 -0.23700
H 	H 	0.15900 0.09980 0.17220 0.09500
C 	C 	0.13310 0.09860 0.24250 0.18900
C 	C 	0.15560 0.10940 0.29920 -0.22300
H 	H 	0.12740 0.10480 0.32130 0.09500
C 	C 	0.48230 0.20002 0.39056 -0.18500
C 	C 	0.47440 0.23541 0.37543 0.04600
H 	H 	0.43220 0.24310 0.34900 -0.02800
C 	C 	0.52790 0.25933 0.39890 -0.22200
H 	H 	0.52200 0.28290 0.38800 0.09300
C 	C 	0.59800 0.21359 0.45580 -0.22500
H 	H 	0.63930 0.20630 0.48370 0.09100
C 	C 	0.59020 0.24829 0.43880 0.18600
C 	C 	0.42948 0.17422 0.35828 0.11000
C 	C 	0.54450 0.18936 0.43160 0.06800
H 	H 	0.55040 0.16590 0.44300 -0.03700
Cu	Cu	0.03865 0.62826 0.33196 0.76300
Cu	Cu	0.05307 0.47457 0.36768 0.82400
Cu	Cu	0.59300 0.75492 0.49668 0.81700
Cu	Cu	0.29502 0.71825 0.38115 0.82700
Cu	Cu	0.50634 0.82893 0.43232 0.81600
Cu	Cu	0.81690 0.70605 0.38771 0.83600
Cu	Cu	0.65240 0.83112 0.41289 0.81900
Cu	Cu	0.10893 0.59461 0.24641 0.77800
Cl	Cl	0.62511 0.81878 0.50799 -0.79500
N 	N 	0.05012 0.57755 0.32777 -0.28000
N 	N 	0.05340 0.51956 0.33808 -0.28800
N 	N 	0.09146 0.56399 0.29842 -0.26700
N 	N 	0.77897 0.70438 0.58386 -0.28400
N 	N 	0.72367 0.75427 0.58871 -0.24300
N 	N 	0.68237 0.73589 0.54165 -0.24600
N 	N 	0.49482 0.75465 0.45217 -0.25200
N 	N 	0.45906 0.78523 0.42782 -0.25500
N 	N 	0.38142 0.74169 0.41105 -0.28600
N 	N 	0.03355 0.37367 0.41139 -0.24700
N 	N 	0.09514 0.37236 0.39774 -0.25500
N 	N 	0.06071 0.42786 0.39313 -0.28900
N 	N 	0.88568 0.63066 0.30225 -0.27100
N 	N 	0.94753 0.64824 0.33091 -0.27400
N 	N 	0.85886 0.67459 0.34936 -0.27600
N 	N 	0.20591 0.69760 0.35084 -0.28900
N 	N 	0.11398 0.66198 0.33571 -0.26900
N 	N 	0.09319 0.69055 0.29998 -0.27300
N 	N 	0.17560 0.87580 0.30510 -0.32800
H 	H 	0.18170 0.89230 0.28360 0.13300
H 	H 	0.13690 0.87480 0.31290 0.13100
N 	N 	0.13170 0.83283 0.17660 -0.32900
H 	H 	0.09630 0.84690 0.17050 0.13200
H 	H 	0.16290 0.83660 0.16060 0.13700
N 	N 	0.82480 0.58512 0.45380 -0.33200
H 	H 	0.83330 0.60210 0.47780 0.15300
H 	H 	0.78550 0.57380 0.44530 0.14100
N 	N 	0.24150 0.44861 0.19170 -0.32700
H 	H 	0.22400 0.42910 0.17560 0.14400
H 	H 	0.28100 0.45620 0.18960 0.13500
N 	N 	0.14550 0.77249 0.46150 -0.31800
H 	H 	0.18450 0.76570 0.48630 0.11200
H 	H 	0.14030 0.79410 0.45070 0.13200
N 	N 	0.57660 0.59369 0.39890 -0.32400
H 	H 	0.58290 0.57250 0.41190 0.13000
H 	H 	0.54670 0.59770 0.36590 0.13300
N 	N 	0.50910 0.58704 0.50960 -0.32700
H 	H 	0.54140 0.58240 0.54120 0.13900
H 	H 	0.48720 0.57020 0.48780 0.13300
N 	N 	0.97820 0.77397 0.82545 -0.30900
H 	H 	0.98360 0.79570 0.83550 0.13700
H 	H 	0.00270 0.75790 0.84770 0.10700
N 	N 	0.35190 0.57688 0.53890 -0.32600
H 	H 	0.37220 0.58520 0.57230 0.13200
H 	H 	0.35680 0.55500 0.53210 0.12700
N 	N 	0.36660 0.44291 0.35560 -0.32800
H 	H 	0.38410 0.42990 0.33550 0.13000
H 	H 	0.38940 0.46110 0.37270 0.13000
N 	N 	0.79470 0.46467 0.47630 -0.33900
H 	H 	0.79570 0.48670 0.48460 0.13200
H 	H 	0.75970 0.45180 0.47700 0.14600
N 	N 	0.56790 0.58070 0.21880 -0.31800
H 	H 	0.55370 0.57470 0.18380 0.12700
H 	H 	0.54240 0.57580 0.23950 0.12300
C 	C 	0.71649 0.70606 0.54039 0.12300
C 	C 	0.64220 0.68353 0.44551 0.09800
H 	H 	0.63590 0.70640 0.43140 -0.05700
C 	C 	0.61470 0.62147 0.43160 0.21000
C 	C 	0.66220 0.61498 0.48430 -0.23600
H 	H 	0.67140 0.59190 0.49710 0.10000
C 	C 	0.68673 0.67743 0.50038 -0.17500
C 	C 	0.69710 0.64267 0.51906 0.10000
H 	H 	0.72770 0.63780 0.55530 -0.05400
C 	C 	0.60690 0.65587 0.41130 -0.23400
H 	H 	0.57780 0.66040 0.37450 0.09800
C 	C 	0.78098 0.73462 0.61307 0.11700
C 	C 	0.83520 0.74498 0.66641 -0.18100
C 	C 	0.87570 0.71980 0.70420 0.09000
H 	H 	0.87120 0.69610 0.69410 -0.06200
C 	C 	0.92240 0.72975 0.75630 -0.22600
H 	H 	0.94930 0.71260 0.78050 0.08000
C 	C 	0.84320 0.78015 0.68390 0.10200
H 	H 	0.81680 0.79750 0.65980 -0.06000
C 	C 	0.92980 0.76468 0.77310 0.20000
C 	C 	0.88960 0.78976 0.73640 -0.24500
H 	H 	0.89380 0.81330 0.74700 0.10500
C 	C 	0.10996 0.40500 0.38748 0.12600
C 	C 	0.17400 0.41539 0.37586 -0.19400
C 	C 	0.20140 0.39592 0.34180 0.11000
H 	H 	0.17750 0.37590 0.32380 -0.05200
C 	C 	0.26450 0.40564 0.33390 -0.25000
H 	H 	0.28170 0.39240 0.31020 0.10000
C 	C 	0.21130 0.44517 0.40210 0.10700
H 	H 	0.19350 0.45900 0.42490 -0.06000
C 	C 	0.30140 0.43445 0.36070 0.21800
C 	C 	0.27410 0.45454 0.39480 -0.24600
H 	H 	0.29840 0.47440 0.41290 0.09500
C 	C 	0.01493 0.40737 0.40922 0.13400
C 	C 	0.95740 0.45670 0.44260 0.15000
H 	H 	0.99440 0.47130 0.44190 -0.07700
C 	C 	0.90480 0.47014 0.46020 -0.28100
H 	H 	0.90720 0.49360 0.47140 0.11600
C 	C 	0.95660 0.42145 0.42574 -0.19400
C 	C 	0.90190 0.40080 0.43020 0.14400
H 	H 	0.90100 0.37700 0.42120 -0.06500
C 	C 	0.84920 0.41423 0.44740 -0.27300
H 	H 	0.81310 0.39960 0.44980 0.11800
C 	C 	0.84900 0.45009 0.46160 0.23900
C 	C 	0.22524 0.64306 0.41061 -0.19100
C 	C 	0.26120 0.65571 0.46400 0.10200
H 	H 	0.25710 0.67940 0.47200 -0.04800
C 	C 	0.23170 0.60786 0.40080 0.11800
H 	H 	0.20690 0.59840 0.36560 -0.06000
C 	C 	0.18172 0.66685 0.36582 0.12700
C 	C 	0.30330 0.63379 0.50620 -0.24600
H 	H 	0.32640 0.64290 0.54200 0.09800
C 	C 	0.27490 0.58608 0.44290 -0.25400
H 	H 	0.27930 0.56240 0.43510 0.09800
C 	C 	0.31110 0.59902 0.49550 0.21200
C 	C 	0.14844 0.74420 0.27895 -0.18500
C 	C 	0.19940 0.75122 0.25416 0.09600
H 	H 	0.23710 0.73570 0.25960 -0.05200
C 	C 	0.19480 0.78078 0.22170 -0.25000
H 	H 	0.23000 0.78530 0.20600 0.10100
C 	C 	0.09340 0.76824 0.27086 0.09800
H 	H 	0.05940 0.76430 0.28800 -0.04000
C 	C 	0.14922 0.71131 0.30991 0.13100
C 	C 	0.13830 0.80409 0.21197 0.21100
C 	C 	0.08870 0.79744 0.23819 -0.24000
H 	H 	0.05160 0.81320 0.23340 0.09300
C 	C 	0.09299 0.52938 0.30547 0.12000
C 	C 	0.13330 0.50662 0.27999 -0.18000
C 	C 	0.10640 0.47464 0.25413 0.08900
H 	H 	0.06410 0.46600 0.25660 -0.06900
C 	C 	0.20570 0.46788 0.22140 0.20500
C 	C 	0.19790 0.51808 0.27710 0.09600
H 	H 	0.21700 0.53910 0.29460 -0.04100
C 	C 	0.14200 0.45575 0.22500 -0.24200
H 	H 	0.12310 0.43470 0.20760 0.09100
C 	C 	0.23410 0.49926 0.24920 -0.23400
H 	H 	0.27770 0.50730 0.24860 0.09700
C 	C 	0.91440 0.53805 0.36800 0.06700
H 	H 	0.90610 0.51900 0.34320 -0.02400
C 	C 	0.93800 0.59405 0.44198 -0.23500
H 	H 	0.94630 0.61310 0.46650 0.10200
C 	C 	0.97790 0.55615 0.38114 -0.18200
C 	C 	0.02742 0.55063 0.35043 0.10200
C 	C 	0.98900 0.58429 0.41957 0.10400
H 	H 	0.03180 0.59650 0.42990 -0.05300
C 	C 	0.87450 0.57608 0.42880 0.20500
C 	C 	0.86320 0.54766 0.39080 -0.23000
H 	H 	0.82080 0.53520 0.38100 0.09700
C 	C 	0.46180 0.69244 0.45944 -0.18500
C 	C 	0.51250 0.68391 0.51115 0.11500
H 	H 	0.53720 0.70190 0.53470 -0.06200
C 	C 	0.42630 0.66467 0.42510 0.11000
H 	H 	0.39200 0.66950 0.39040 -0.06300
C 	C 	0.44170 0.63011 0.44190 -0.23800
H 	H 	0.41770 0.61200 0.41830 0.09900
C 	C 	0.44680 0.72912 0.44171 0.13400
C 	C 	0.52700 0.64928 0.52814 -0.24100
H 	H 	0.56050 0.64430 0.56320 0.10000
C 	C 	0.49220 0.62186 0.49350 0.21500
C 	C 	0.39180 0.77642 0.40382 0.13000
C 	C 	0.27050 0.80004 0.38537 0.11300
H 	H 	0.26270 0.78240 0.40840 -0.06400
C 	C 	0.21800 0.82441 0.36170 -0.24600
H 	H 	0.17550 0.82310 0.36900 0.10000
C 	C 	0.22800 0.85090 0.32710 0.22100
C 	C 	0.29060 0.85173 0.31560 -0.25200
H 	H 	0.29730 0.86890 0.29150 0.10200
C 	C 	0.34360 0.82746 0.33912 0.11500
H 	H 	0.38550 0.82850 0.33070 -0.06000
C 	C 	0.33489 0.80130 0.37546 -0.19400
C 	C 	0.83383 0.64706 0.31374 0.13600
C 	C 	0.76076 0.63408 0.28937 -0.17100
C 	C 	0.73680 0.62445 0.23360 0.08200
H 	H 	0.76370 0.63010 0.21090 -0.05300
C 	C 	0.71950 0.62705 0.32260 0.08900
H 	H 	0.73440 0.63400 0.36020 -0.02300
C 	C 	0.67360 0.60645 0.21000 -0.23800
H 	H 	0.65900 0.59980 0.17220 0.09500
C 	C 	0.63310 0.59860 0.24250 0.19100
C 	C 	0.65560 0.60940 0.29920 -0.22300
H 	H 	0.62740 0.60480 0.32130 0.09600
C 	C 	0.98230 0.70002 0.39056 -0.17700
C 	C 	0.97440 0.73541 0.37543 0.05800
H 	H 	0.93220 0.74310 0.34900 -0.03100
C 	C 	0.02790 0.75933 0.39890 -0.23500
H 	H 	0.02200 0.78290 0.38800 0.09500
C 	C 	0.09800 0.71359 0.45580 -0.22200
H 	H 	0.13930 0.70630 0.48370 0.09000
C 	C 	0.09020 0.74829 0.43880 0.18800
C 	C 	0.92948 0.67422 0.35828 0.11000
C 	C 	0.04450 0.68936 0.43160 0.05700
H 	H 	0.05040 0.66590 0.44300 -0.03500
Cu	Cu	0.46135 0.12826 0.16804 0.76500
Cu	Cu	0.44693 0.97457 0.13232 0.82600
Cu	Cu	0.90700 0.25492 0.00332 0.81800
Cu	Cu	0.20498 0.21825 0.11885 0.82700
Cu	Cu	0.99366 0.32893 0.06768 0.81900
Cu	Cu	0.68310 0.20605 0.11229 0.83600
Cu	Cu	0.84760 0.33112 0.08711 0.81900
Cu	Cu	0.39107 0.09461 0.25359 0.77900
Cl	Cl	0.87489 0.31878 0.99201 -0.79300
N 	N 	0.44988 0.07755 0.17223 -0.27900
N 	N 	0.44660 0.01956 0.16192 -0.28700
N 	N 	0.40854 0.06399 0.20158 -0.26600
N 	N 	0.72103 0.20438 0.91614 -0.28400
N 	N 	0.77633 0.25427 0.91129 -0.24300
N 	N 	0.81763 0.23589 0.95835 -0.24500
N 	N 	0.00518 0.25465 0.04783 -0.25400
N 	N 	0.04094 0.28523 0.07218 -0.25700
N 	N 	0.11858 0.24169 0.08895 -0.28600
N 	N 	0.46645 0.87367 0.08861 -0.24700
N 	N 	0.40486 0.87236 0.10226 -0.25400
N 	N 	0.43929 0.92786 0.10687 -0.29000
N 	N 	0.61432 0.13066 0.19775 -0.27100
N 	N 	0.55247 0.14824 0.16909 -0.27700
N 	N 	0.64114 0.17459 0.15064 -0.27600
N 	N 	0.29409 0.19760 0.14916 -0.28900
N 	N 	0.38602 0.16198 0.16429 -0.26900
N 	N 	0.40681 0.19055 0.20002 -0.27200
N 	N 	0.32440 0.37580 0.19490 -0.32900
H 	H 	0.31830 0.39230 0.21640 0.13400
H 	H 	0.36310 0.37480 0.18710 0.13200
N 	N 	0.36830 0.33283 0.32340 -0.32900
H 	H 	0.40370 0.34690 0.32950 0.13300
H 	H 	0.33710 0.33660 0.33940 0.13700
N 	N 	0.67520 0.08512 0.04620 -0.33000
H 	H 	0.66670 0.10210 0.02220 0.15300
H 	H 	0.71450 0.07380 0.05470 0.14100
N 	N 	0.25850 0.94861 0.30830 -0.32700
H 	H 	0.27600 0.92910 0.32440 0.14400
H 	H 	0.21900 0.95620 0.31040 0.13500
N 	N 	0.35450 0.27249 0.03850 -0.31800
H 	H 	0.31550 0.26570 0.01370 0.11300
H 	H 	0.35970 0.29410 0.04930 0.13300
N 	N 	0.92340 0.09369 0.10110 -0.32500
H 	H 	0.91710 0.07250 0.08810 0.13200
H 	H 	0.95330 0.09770 0.13410 0.13600
N 	N 	0.99090 0.08704 0.99040 -0.31200
H 	H 	0.95860 0.08240 0.95880 0.13700
H 	H 	0.01280 0.07020 0.01220 0.12400
N 	N 	0.52180 0.27397 0.67455 -0.31900
H 	H 	0.51640 0.29570 0.66450 0.13600
H 	H 	0.49730 0.25790 0.65230 0.11800
N 	N 	0.14810 0.07688 0.96110 -0.32900
H 	H 	0.12780 0.08520 0.92770 0.13000
H 	H 	0.14320 0.05500 0.96790 0.12500
N 	N 	0.13340 0.94291 0.14440 -0.32700
H 	H 	0.11590 0.92990 0.16450 0.12900
H 	H 	0.11060 0.96110 0.12730 0.12900
N 	N 	0.70530 0.96467 0.02370 -0.34100
H 	H 	0.70430 0.98670 0.01540 0.13200
H 	H 	0.74030 0.95180 0.02300 0.14600
N 	N 	0.93210 0.08070 0.28120 -0.31900
H 	H 	0.94630 0.07470 0.31620 0.13000
H 	H 	0.95760 0.07580 0.26050 0.12700
C 	C 	0.78351 0.20606 0.95961 0.12300
C 	C 	0.85780 0.18353 0.05449 0.09800
H 	H 	0.86410 0.20640 0.06860 -0.05600
C 	C 	0.88530 0.12147 0.06840 0.21200
C 	C 	0.83780 0.11498 0.01570 -0.23800
H 	H 	0.82860 0.09190 0.00290 0.10100
C 	C 	0.81327 0.17743 0.99962 -0.17500
C 	C 	0.80290 0.14267 0.98094 0.10200
H 	H 	0.77230 0.13780 0.94470 -0.05500
C 	C 	0.89310 0.15587 0.08870 -0.23400
H 	H 	0.92220 0.16040 0.12550 0.10000
C 	C 	0.71902 0.23462 0.88693 0.11700
C 	C 	0.66480 0.24498 0.83359 -0.18200
C 	C 	0.62430 0.21980 0.79580 0.09000
H 	H 	0.62880 0.19610 0.80590 -0.06300
C 	C 	0.57760 0.22975 0.74370 -0.22800
H 	H 	0.55070 0.21260 0.71950 0.07700
C 	C 	0.65680 0.28015 0.81610 0.10200
H 	H 	0.68320 0.29750 0.84020 -0.06000
C 	C 	0.57020 0.26468 0.72690 0.20000
C 	C 	0.61040 0.28976 0.76360 -0.24600
H 	H 	0.60620 0.31330 0.75300 0.10500
C 	C 	0.39004 0.90500 0.11252 0.12600
C 	C 	0.32600 0.91539 0.12414 -0.19300
C 	C 	0.29860 0.89592 0.15820 0.10900
H 	H 	0.32250 0.87590 0.17620 -0.05100
C 	C 	0.23550 0.90564 0.16610 -0.25000
H 	H 	0.21830 0.89240 0.18980 0.10000
C 	C 	0.28870 0.94517 0.09790 0.10600
H 	H 	0.30650 0.95900 0.07510 -0.05900
C 	C 	0.19860 0.93445 0.13930 0.21700
C 	C 	0.22590 0.95454 0.10520 -0.24500
H 	H 	0.20160 0.97440 0.08710 0.09500
C 	C 	0.48507 0.90737 0.09078 0.14600
C 	C 	0.54260 0.95670 0.05740 0.15900
H 	H 	0.50560 0.97130 0.05810 -0.08400
C 	C 	0.59520 0.97014 0.03980 -0.28900
H 	H 	0.59280 0.99360 0.02860 0.11700
C 	C 	0.54340 0.92145 0.07426 -0.21000
C 	C 	0.59810 0.90080 0.06980 0.15400
H 	H 	0.59900 0.87700 0.07880 -0.07000
C 	C 	0.65080 0.91423 0.05260 -0.28100
H 	H 	0.68690 0.89960 0.05020 0.12100
C 	C 	0.65100 0.95009 0.03840 0.24400
C 	C 	0.27476 0.14306 0.08939 -0.19800
C 	C 	0.23880 0.15571 0.03600 0.11400
H 	H 	0.24290 0.17940 0.02800 -0.05100
C 	C 	0.26830 0.10786 0.09920 0.12500
H 	H 	0.29310 0.09840 0.13440 -0.06300
C 	C 	0.31828 0.16685 0.13418 0.12900
C 	C 	0.19670 0.13379 0.99380 -0.26000
H 	H 	0.17360 0.14290 0.95800 0.10200
C 	C 	0.22510 0.08608 0.05710 -0.26200
H 	H 	0.22070 0.06240 0.06490 0.10100
C 	C 	0.18890 0.09902 0.00450 0.22300
C 	C 	0.35156 0.24420 0.22105 -0.18500
C 	C 	0.30060 0.25122 0.24584 0.09700
H 	H 	0.26290 0.23570 0.24040 -0.05300
C 	C 	0.30520 0.28078 0.27830 -0.25000
H 	H 	0.27000 0.28530 0.29400 0.10100
C 	C 	0.40660 0.26824 0.22914 0.09900
H 	H 	0.44060 0.26430 0.21200 -0.03800
C 	C 	0.35078 0.21131 0.19009 0.13100
C 	C 	0.36170 0.30409 0.28803 0.21200
C 	C 	0.41130 0.29744 0.26181 -0.24000
H 	H 	0.44840 0.31320 0.26660 0.09500
C 	C 	0.40701 0.02938 0.19453 0.12100
C 	C 	0.36670 0.00662 0.22001 -0.17900
C 	C 	0.39360 0.97464 0.24587 0.08900
H 	H 	0.43590 0.96600 0.24340 -0.06700
C 	C 	0.29430 0.96788 0.27860 0.20500
C 	C 	0.30210 0.01808 0.22290 0.09500
H 	H 	0.28300 0.03910 0.20540 -0.04000
C 	C 	0.35800 0.95575 0.27500 -0.24100
H 	H 	0.37690 0.93470 0.29240 0.09100
C 	C 	0.26590 0.99926 0.25080 -0.23300
H 	H 	0.22230 0.00730 0.25140 0.09700
C 	C 	0.58560 0.03805 0.13200 0.06500
H 	H 	0.59390 0.01900 0.15680 -0.02500
C 	C 	0.56200 0.09405 0.05802 -0.22400
H 	H 	0.55370 0.11310 0.03350 0.09700
C 	C 	0.52210 0.05615 0.11886 -0.18300
C 	C 	0.47258 0.05063 0.14957 0.10900
C 	C 	0.51100 0.08429 0.08043 0.08300
H 	H 	0.46820 0.09650 0.07010 -0.04000
C 	C 	0.62550 0.07608 0.07120 0.20000
C 	C 	0.63680 0.04766 0.10920 -0.22700
H 	H 	0.67920 0.03520 0.11900 0.09700
C 	C 	0.03820 0.19244 0.04056 -0.19100
C 	C 	0.98750 0.18391 0.98885 0.12000
H 	H 	0.96280 0.20190 0.96530 -0.06100
C 	C 	0.07370 0.16467 0.07490 0.10700
H 	H 	0.10800 0.16950 0.10960 -0.06200
C 	C 	0.05830 0.13011 0.05810 -0.23000
H 	H 	0.08230 0.11200 0.08170 0.09600
C 	C 	0.05320 0.22912 0.05829 0.13400
C 	C 	0.97300 0.14928 0.97186 -0.22600
H 	H 	0.93950 0.14430 0.93680 0.09600
C 	C 	0.00780 0.12186 0.00650 0.19700
C 	C 	0.10820 0.27642 0.09618 0.13000
C 	C 	0.22950 0.30004 0.11463 0.11400
H 	H 	0.23730 0.28240 0.09160 -0.06400
C 	C 	0.28200 0.32441 0.13830 -0.24700
H 	H 	0.32450 0.32310 0.13100 0.10100
C 	C 	0.27200 0.35090 0.17290 0.22200
C 	C 	0.20940 0.35173 0.18440 -0.25300
H 	H 	0.20270 0.36890 0.20850 0.10300
C 	C 	0.15640 0.32746 0.16088 0.11600
H 	H 	0.11450 0.32850 0.16930 -0.06100
C 	C 	0.16511 0.30130 0.12454 -0.19500
C 	C 	0.66617 0.14706 0.18626 0.13600
C 	C 	0.73924 0.13408 0.21063 -0.17100
C 	C 	0.76320 0.12445 0.26640 0.08300
H 	H 	0.73630 0.13010 0.28910 -0.05300
C 	C 	0.78050 0.12705 0.17740 0.09000
H 	H 	0.76560 0.13400 0.13980 -0.02300
C 	C 	0.82640 0.10645 0.29000 -0.23900
H 	H 	0.84100 0.09980 0.32780 0.09600
C 	C 	0.86690 0.09860 0.25750 0.19300
C 	C 	0.84440 0.10940 0.20080 -0.22400
H 	H 	0.87260 0.10480 0.17870 0.09700
C 	C 	0.51770 0.20002 0.10944 -0.18500
C 	C 	0.52560 0.23541 0.12457 0.04600
H 	H 	0.56780 0.24310 0.15100 -0.02800
C 	C 	0.47210 0.25933 0.10110 -0.22200
H 	H 	0.47800 0.28290 0.11200 0.09300
C 	C 	0.40200 0.21359 0.04420 -0.22500
H 	H 	0.36070 0.20630 0.01630 0.09200
C 	C 	0.40980 0.24829 0.06120 0.18700
C 	C 	0.57052 0.17422 0.14172 0.11000
C 	C 	0.45550 0.18936 0.06840 0.06900
H 	H 	0.44960 0.16590 0.05700 -0.03700
Cu	Cu	0.96135 0.62826 0.16804 0.76800
Cu	Cu	0.94693 0.47457 0.13232 0.82800
Cu	Cu	0.40700 0.75492 0.00332 0.81800
Cu	Cu	0.70498 0.71825 0.11885 0.82700
Cu	Cu	0.49366 0.82893 0.06768 0.81600
Cu	Cu	0.18310 0.70605 0.11229 0.83600
Cu	Cu	0.34760 0.83112 0.08711 0.81900
Cu	Cu	0.89107 0.59461 0.25359 0.78000
Cl	Cl	0.37489 0.81878 0.99201 -0.79700
N 	N 	0.94988 0.57755 0.17223 -0.27900
N 	N 	0.94660 0.51956 0.16192 -0.28700
N 	N 	0.90854 0.56399 0.20158 -0.26600
N 	N 	0.22103 0.70438 0.91614 -0.28400
N 	N 	0.27633 0.75427 0.91129 -0.24300
N 	N 	0.31763 0.73589 0.95835 -0.24600
N 	N 	0.50518 0.75465 0.04783 -0.25100
N 	N 	0.54094 0.78523 0.07218 -0.25500
N 	N 	0.61858 0.74169 0.08895 -0.28600
N 	N 	0.96645 0.37367 0.08861 -0.24800
N 	N 	0.90486 0.37236 0.10226 -0.25400
N 	N 	0.93929 0.42786 0.10687 -0.29000
N 	N 	0.11432 0.63066 0.19775 -0.27200
N 	N 	0.05247 0.64824 0.16909 -0.27900
N 	N 	0.14114 0.67459 0.15064 -0.27600
N 	N 	0.79409 0.69760 0.14916 -0.28900
N 	N 	0.88602 0.66198 0.16429 -0.26800
N 	N 	0.90681 0.69055 0.20002 -0.27000
N 	N 	0.82440 0.87580 0.19490 -0.32900
H 	H 	0.81830 0.89230 0.21640 0.13400
H 	H 	0.86310 0.87480 0.18710 0.13300
N 	N 	0.86830 0.83283 0.32340 -0.33000
H 	H 	0.90370 0.84690 0.32950 0.13500
H 	H 	0.83710 0.83660 0.33940 0.13800
N 	N 	0.17520 0.58512 0.04620 -0.33000
H 	H 	0.16670 0.60210 0.02220 0.15300
H 	H 	0.21450 0.57380 0.05470 0.14100
N 	N 	0.75850 0.44861 0.30830 -0.32700
H 	H 	0.77600 0.42910 0.32440 0.14500
H 	H 	0.71900 0.45620 0.31040 0.13500
N 	N 	0.85450 0.77249 0.03850 -0.31700
H 	H 	0.81550 0.76570 0.01370 0.11200
H 	H 	0.85970 0.79410 0.04930 0.13300
N 	N 	0.42340 0.59369 0.10110 -0.32400
H 	H 	0.41710 0.57250 0.08810 0.13000
H 	H 	0.45330 0.59770 0.13410 0.13300
N 	N 	0.49090 0.58704 0.99040 -0.32900
H 	H 	0.45860 0.58240 0.95880 0.13900
H 	H 	0.51280 0.57020 0.01220 0.13400
N 	N 	0.02180 0.77397 0.67455 -0.32800
H 	H 	0.01640 0.79570 0.66450 0.13600
H 	H 	0.99730 0.75790 0.65230 0.12900
N 	N 	0.64810 0.57688 0.96110 -0.32600
H 	H 	0.62780 0.58520 0.92770 0.13200
H 	H 	0.64320 0.55500 0.96790 0.12700
N 	N 	0.63340 0.44291 0.14440 -0.32800
H 	H 	0.61590 0.42990 0.16450 0.13000
H 	H 	0.61060 0.46110 0.12730 0.13000
N 	N 	0.20530 0.46467 0.02370 -0.34200
H 	H 	0.20430 0.48670 0.01540 0.13300
H 	H 	0.24030 0.45180 0.02300 0.14700
N 	N 	0.43210 0.58070 0.28120 -0.31800
H 	H 	0.44630 0.57470 0.31620 0.12700
H 	H 	0.45760 0.57580 0.26050 0.12300
C 	C 	0.28351 0.70606 0.95961 0.12300
C 	C 	0.35780 0.68353 0.05449 0.10000
H 	H 	0.36410 0.70640 0.06860 -0.05700
C 	C 	0.38530 0.62147 0.06840 0.20900
C 	C 	0.33780 0.61498 0.01570 -0.23300
H 	H 	0.32860 0.59190 0.00290 0.10000
C 	C 	0.31327 0.67743 0.99962 -0.17600
C 	C 	0.30290 0.64267 0.98094 0.09800
H 	H 	0.27230 0.63780 0.94470 -0.05300
C 	C 	0.39310 0.65587 0.08870 -0.23400
H 	H 	0.42220 0.66040 0.12550 0.09800
C 	C 	0.21902 0.73462 0.88693 0.11700
C 	C 	0.16480 0.74498 0.83359 -0.18200
C 	C 	0.12430 0.71980 0.79580 0.09000
H 	H 	0.12880 0.69610 0.80590 -0.06300
C 	C 	0.07760 0.72975 0.74370 -0.22900
H 	H 	0.05070 0.71260 0.71950 0.07500
C 	C 	0.15680 0.78015 0.81610 0.10200
H 	H 	0.18320 0.79750 0.84020 -0.06000
C 	C 	0.07020 0.76468 0.72690 0.19900
C 	C 	0.11040 0.78976 0.76360 -0.24700
H 	H 	0.10620 0.81330 0.75300 0.10400
C 	C 	0.89004 0.40500 0.11252 0.12600
C 	C 	0.82600 0.41539 0.12414 -0.19300
C 	C 	0.79860 0.39592 0.15820 0.10900
H 	H 	0.82250 0.37590 0.17620 -0.05100
C 	C 	0.73550 0.40564 0.16610 -0.25000
H 	H 	0.71830 0.39240 0.18980 0.10000
C 	C 	0.78870 0.44517 0.09790 0.10600
H 	H 	0.80650 0.45900 0.07510 -0.05900
C 	C 	0.69860 0.43445 0.13930 0.21700
C 	C 	0.72590 0.45454 0.10520 -0.24600
H 	H 	0.70160 0.47440 0.08710 0.09500
C 	C 	0.98507 0.40737 0.09078 0.15600
C 	C 	0.04260 0.45670 0.05740 0.16700
H 	H 	0.00560 0.47130 0.05810 -0.09000
C 	C 	0.09520 0.47014 0.03980 -0.29700
H 	H 	0.09280 0.49360 0.02860 0.11900
C 	C 	0.04340 0.42145 0.07426 -0.22400
C 	C 	0.09810 0.40080 0.06980 0.16300
H 	H 	0.09900 0.37700 0.07880 -0.07400
C 	C 	0.15080 0.41423 0.05260 -0.28800
H 	H 	0.18690 0.39960 0.05020 0.12300
C 	C 	0.15100 0.45009 0.03840 0.24900
C 	C 	0.77476 0.64306 0.08939 -0.19100
C 	C 	0.73880 0.65571 0.03600 0.10200
H 	H 	0.74290 0.67940 0.02800 -0.04800
C 	C 	0.76830 0.60786 0.09920 0.11700
H 	H 	0.79310 0.59840 0.13440 -0.06000
C 	C 	0.81828 0.66685 0.13418 0.12700
C 	C 	0.69670 0.63379 0.99380 -0.24500
H 	H 	0.67360 0.64290 0.95800 0.09800
C 	C 	0.72510 0.58608 0.05710 -0.25400
H 	H 	0.72070 0.56240 0.06490 0.09800
C 	C 	0.68890 0.59902 0.00450 0.21200
C 	C 	0.85156 0.74420 0.22105 -0.18500
C 	C 	0.80060 0.75122 0.24584 0.09700
H 	H 	0.76290 0.73570 0.24040 -0.05300
C 	C 	0.80520 0.78078 0.27830 -0.25100
H 	H 	0.77000 0.78530 0.29400 0.10200
C 	C 	0.90660 0.76824 0.22914 0.10000
H 	H 	0.94060 0.76430 0.21200 -0.03600
C 	C 	0.85078 0.71131 0.19009 0.13100
C 	C 	0.86170 0.80409 0.28803 0.21300
C 	C 	0.91130 0.79744 0.26181 -0.24000
H 	H 	0.94840 0.81320 0.26660 0.09800
C 	C 	0.90701 0.52938 0.19453 0.12200
C 	C 	0.86670 0.50662 0.22001 -0.17900
C 	C 	0.89360 0.47464 0.24587 0.08900
H 	H 	0.93590 0.46600 0.24340 -0.06500
C 	C 	0.79430 0.46788 0.27860 0.20500
C 	C 	0.80210 0.51808 0.22290 0.09500
H 	H 	0.78300 0.53910 0.20540 -0.04000
C 	C 	0.85800 0.45575 0.27500 -0.24000
H 	H 	0.87690 0.43470 0.29240 0.09200
C 	C 	0.76590 0.49926 0.25080 -0.23300
H 	H 	0.72230 0.50730 0.25140 0.09700
C 	C 	0.08560 0.53805 0.13200 0.06500
H 	H 	0.09390 0.51900 0.15680 -0.02600
C 	C 	0.06200 0.59405 0.05802 -0.21600
H 	H 	0.05370 0.61310 0.03350 0.09300
C 	C 	0.02210 0.55615 0.11886 -0.18600
C 	C 	0.97258 0.55063 0.14957 0.11500
C 	C 	0.01100 0.58429 0.08043 0.06800
H 	H 	0.96820 0.59650 0.07010 -0.03100
C 	C 	0.12550 0.57608 0.07120 0.19600
C 	C 	0.13680 0.54766 0.10920 -0.22500
H 	H 	0.17920 0.53520 0.11900 0.09600
C 	C 	0.53820 0.69244 0.04056 -0.18500
C 	C 	0.48750 0.68391 0.98885 0.11400
H 	H 	0.46280 0.70190 0.96530 -0.06300
C 	C 	0.57370 0.66467 0.07490 0.11100
H 	H 	0.60800 0.66950 0.10960 -0.06400
C 	C 	0.55830 0.63011 0.05810 -0.23900
H 	H 	0.58230 0.61200 0.08170 0.10000
C 	C 	0.55320 0.72912 0.05829 0.13400
C 	C 	0.47300 0.64928 0.97186 -0.24300
H 	H 	0.43950 0.64430 0.93680 0.10100
C 	C 	0.50780 0.62186 0.00650 0.21800
C 	C 	0.60820 0.77642 0.09618 0.13000
C 	C 	0.72950 0.80004 0.11463 0.11400
H 	H 	0.73730 0.78240 0.09160 -0.06400
C 	C 	0.78200 0.82441 0.13830 -0.24700
H 	H 	0.82450 0.82310 0.13100 0.10100
C 	C 	0.77200 0.85090 0.17290 0.22200
C 	C 	0.70940 0.85173 0.18440 -0.25300
H 	H 	0.70270 0.86890 0.20850 0.10300
C 	C 	0.65640 0.82746 0.16088 0.11600
H 	H 	0.61450 0.82850 0.16930 -0.06000
C 	C 	0.66511 0.80130 0.12454 -0.19400
C 	C 	0.16617 0.64706 0.18626 0.13600
C 	C 	0.23924 0.63408 0.21063 -0.17100
C 	C 	0.26320 0.62445 0.26640 0.08200
H 	H 	0.23630 0.63010 0.28910 -0.05300
C 	C 	0.28050 0.62705 0.17740 0.08900
H 	H 	0.26560 0.63400 0.13980 -0.02200
C 	C 	0.32640 0.60645 0.29000 -0.23800
H 	H 	0.34100 0.59980 0.32780 0.09500
C 	C 	0.36690 0.59860 0.25750 0.19100
C 	C 	0.34440 0.60940 0.20080 -0.22300
H 	H 	0.37260 0.60480 0.17870 0.09600
C 	C 	0.01770 0.70002 0.10944 -0.19000
C 	C 	0.02560 0.73541 0.12457 0.03600
H 	H 	0.06780 0.74310 0.15100 -0.02600
C 	C 	0.97210 0.75933 0.10110 -0.21000
H 	H 	0.97800 0.78290 0.11200 0.09200
C 	C 	0.90200 0.71359 0.04420 -0.22600
H 	H 	0.86070 0.70630 0.01630 0.09200
C 	C 	0.90980 0.74829 0.06120 0.18400
C 	C 	0.07052 0.67422 0.14172 0.11100
C 	C 	0.95550 0.68936 0.06840 0.07800
H 	H 	0.94960 0.66590 0.05700 -0.03900
Cu	Cu	0.46135 0.87174 0.66804 0.76500
Cu	Cu	0.44693 0.02543 0.63232 0.82600
Cu	Cu	0.90700 0.74508 0.50332 0.81900
Cu	Cu	0.20498 0.78175 0.61885 0.82700
Cu	Cu	0.99366 0.67107 0.56768 0.82000
Cu	Cu	0.68310 0.79395 0.61229 0.83600
Cu	Cu	0.84760 0.66888 0.58711 0.81900
Cu	Cu	0.39107 0.90539 0.75359 0.77900
Cl	Cl	0.87489 0.68122 0.49201 -0.79400
N 	N 	0.44988 0.92245 0.67223 -0.27900
N 	N 	0.44660 0.98044 0.66192 -0.28800
N 	N 	0.40854 0.93601 0.70158 -0.26600
N 	N 	0.72103 0.79562 0.41614 -0.28400
N 	N 	0.77633 0.74573 0.41129 -0.24300
N 	N 	0.81763 0.76411 0.45835 -0.24500
N 	N 	0.00518 0.74535 0.54783 -0.25500
N 	N 	0.04094 0.71477 0.57218 -0.25800
N 	N 	0.11858 0.75831 0.58895 -0.28600
N 	N 	0.46645 0.12633 0.58861 -0.24700
N 	N 	0.40486 0.12764 0.60226 -0.25400
N 	N 	0.43929 0.07214 0.60687 -0.29000
N 	N 	0.61432 0.86934 0.69775 -0.27100
N 	N 	0.55247 0.85176 0.66909 -0.27700
N 	N 	0.64114 0.82541 0.65064 -0.27600
N 	N 	0.29409 0.80240 0.64916 -0.28900
N 	N 	0.38602 0.83802 0.66429 -0.26800
N 	N 	0.40681 0.80945 0.70002 -0.27200
N 	N 	0.32440 0.62420 0.69490 -0.32900
H 	H 	0.31830 0.60770 0.71640 0.13400
H 	H 	0.36310 0.62520 0.68710 0.13200
N 	N 	0.36830 0.66717 0.82340 -0.32900
H 	H 	0.40370 0.65310 0.82950 0.13300
H 	H 	0.33710 0.66340 0.83940 0.13700
N 	N 	0.67520 0.91488 0.54620 -0.33000
H 	H 	0.66670 0.89790 0.52220 0.15300
H 	H 	0.71450 0.92620 0.55470 0.14100
N 	N 	0.25850 0.05139 0.80830 -0.32700
H 	H 	0.27600 0.07090 0.82440 0.14400
H 	H 	0.21900 0.04380 0.81040 0.13400
N 	N 	0.35450 0.72751 0.53850 -0.31800
H 	H 	0.31550 0.73430 0.51370 0.11200
H 	H 	0.35970 0.70590 0.54930 0.13300
N 	N 	0.92340 0.90631 0.60110 -0.32600
H 	H 	0.91710 0.92750 0.58810 0.13300
H 	H 	0.95330 0.90230 0.63410 0.13700
N 	N 	0.99090 0.91296 0.49040 -0.31000
H 	H 	0.95860 0.91760 0.45880 0.13700
H 	H 	0.01280 0.92980 0.51220 0.12300
N 	N 	0.52180 0.72603 0.17455 -0.31900
H 	H 	0.51640 0.70430 0.16450 0.13600
H 	H 	0.49730 0.74210 0.15230 0.11800
N 	N 	0.14810 0.92312 0.46110 -0.32500
H 	H 	0.12780 0.91480 0.42770 0.13000
H 	H 	0.14320 0.94500 0.46790 0.12600
N 	N 	0.13340 0.05709 0.64440 -0.32700
H 	H 	0.11590 0.07010 0.66450 0.12800
H 	H 	0.11060 0.03890 0.62730 0.12800
N 	N 	0.70530 0.03533 0.52370 -0.34100
H 	H 	0.70430 0.01330 0.51540 0.13200
H 	H 	0.74030 0.04820 0.52300 0.14700
N 	N 	0.93210 0.91930 0.78120 -0.32000
H 	H 	0.94630 0.92530 0.81620 0.13000
H 	H 	0.95760 0.92420 0.76050 0.12700
C 	C 	0.78351 0.79394 0.45961 0.12300
C 	C 	0.85780 0.81647 0.55449 0.10000
H 	H 	0.86410 0.79360 0.56860 -0.05600
C 	C 	0.88530 0.87853 0.56840 0.21300
C 	C 	0.83780 0.88502 0.51570 -0.23700
H 	H 	0.82860 0.90810 0.50290 0.10100
C 	C 	0.81327 0.82257 0.49962 -0.17600
C 	C 	0.80290 0.85733 0.48094 0.10200
H 	H 	0.77230 0.86220 0.44470 -0.05400
C 	C 	0.89310 0.84413 0.58870 -0.23500
H 	H 	0.92220 0.83960 0.62550 0.10100
C 	C 	0.71902 0.76538 0.38693 0.11700
C 	C 	0.66480 0.75502 0.33359 -0.18200
C 	C 	0.62430 0.78020 0.29580 0.09000
H 	H 	0.62880 0.80390 0.30590 -0.06300
C 	C 	0.57760 0.77025 0.24370 -0.22800
H 	H 	0.55070 0.78740 0.21950 0.07700
C 	C 	0.65680 0.71985 0.31610 0.10200
H 	H 	0.68320 0.70250 0.34020 -0.06000
C 	C 	0.57020 0.73532 0.22690 0.20000
C 	C 	0.61040 0.71024 0.26360 -0.24600
H 	H 	0.60620 0.68670 0.25300 0.10500
C 	C 	0.39004 0.09500 0.61252 0.12600
C 	C 	0.32600 0.08461 0.62414 -0.19300
C 	C 	0.29860 0.10408 0.65820 0.10900
H 	H 	0.32250 0.12410 0.67620 -0.05100
C 	C 	0.23550 0.09436 0.66610 -0.24900
H 	H 	0.21830 0.10760 0.68980 0.10000
C 	C 	0.28870 0.05483 0.59790 0.10600
H 	H 	0.30650 0.04100 0.57510 -0.05900
C 	C 	0.19860 0.06555 0.63930 0.21600
C 	C 	0.22590 0.04546 0.60520 -0.24500
H 	H 	0.20160 0.02560 0.58710 0.09500
C 	C 	0.48507 0.09263 0.59078 0.14600
C 	C 	0.54260 0.04330 0.55740 0.15900
H 	H 	0.50560 0.02870 0.55810 -0.08400
C 	C 	0.59520 0.02986 0.53980 -0.28900
H 	H 	0.59280 0.00640 0.52860 0.11700
C 	C 	0.54340 0.07855 0.57426 -0.21000
C 	C 	0.59810 0.09920 0.56980 0.15400
H 	H 	0.59900 0.12300 0.57880 -0.07000
C 	C 	0.65080 0.08577 0.55260 -0.28100
H 	H 	0.68690 0.10040 0.55020 0.12100
C 	C 	0.65100 0.04991 0.53840 0.24400
C 	C 	0.27476 0.85694 0.58939 -0.19100
C 	C 	0.23880 0.84429 0.53600 0.10200
H 	H 	0.24290 0.82060 0.52800 -0.04800
C 	C 	0.26830 0.89214 0.59920 0.11700
H 	H 	0.29310 0.90160 0.63440 -0.06000
C 	C 	0.31828 0.83315 0.63418 0.12700
C 	C 	0.19670 0.86621 0.49380 -0.24500
H 	H 	0.17360 0.85710 0.45800 0.09700
C 	C 	0.22510 0.91392 0.55710 -0.25300
H 	H 	0.22070 0.93760 0.56490 0.09800
C 	C 	0.18890 0.90098 0.50450 0.21100
C 	C 	0.35156 0.75580 0.72105 -0.18500
C 	C 	0.30060 0.74878 0.74584 0.09700
H 	H 	0.26290 0.76430 0.74040 -0.05300
C 	C 	0.30520 0.71922 0.77830 -0.25000
H 	H 	0.27000 0.71470 0.79400 0.10100
C 	C 	0.40660 0.73176 0.72914 0.09900
H 	H 	0.44060 0.73570 0.71200 -0.03800
C 	C 	0.35078 0.78869 0.69009 0.13100
C 	C 	0.36170 0.69591 0.78803 0.21200
C 	C 	0.41130 0.70256 0.76181 -0.24000
H 	H 	0.44840 0.68680 0.76660 0.09500
C 	C 	0.40701 0.97062 0.69453 0.12100
C 	C 	0.36670 0.99338 0.72001 -0.17900
C 	C 	0.39360 0.02536 0.74587 0.08900
H 	H 	0.43590 0.03400 0.74340 -0.06700
C 	C 	0.29430 0.03212 0.77860 0.20500
C 	C 	0.30210 0.98192 0.72290 0.09500
H 	H 	0.28300 0.96090 0.70540 -0.04100
C 	C 	0.35800 0.04425 0.77500 -0.24100
H 	H 	0.37690 0.06530 0.79240 0.09100
C 	C 	0.26590 0.00074 0.75080 -0.23300
H 	H 	0.22230 0.99270 0.75140 0.09700
C 	C 	0.58560 0.96195 0.63200 0.06500
H 	H 	0.59390 0.98100 0.65680 -0.02500
C 	C 	0.56200 0.90595 0.55802 -0.22400
H 	H 	0.55370 0.88690 0.53350 0.09600
C 	C 	0.52210 0.94385 0.61886 -0.18400
C 	C 	0.47258 0.94937 0.64957 0.10800
C 	C 	0.51100 0.91571 0.58043 0.08300
H 	H 	0.46820 0.90350 0.57010 -0.04000
C 	C 	0.62550 0.92392 0.57120 0.20000
C 	C 	0.63680 0.95234 0.60920 -0.22700
H 	H 	0.67920 0.96480 0.61900 0.09700
C 	C 	0.03820 0.80756 0.54056 -0.19100
C 	C 	0.98750 0.81609 0.48885 0.11900
H 	H 	0.96280 0.79810 0.46530 -0.06200
C 	C 	0.07370 0.83533 0.57490 0.10600
H 	H 	0.10800 0.83050 0.60960 -0.06200
C 	C 	0.05830 0.86989 0.55810 -0.22900
H 	H 	0.08230 0.88800 0.58170 0.09500
C 	C 	0.05320 0.77088 0.55829 0.13300
C 	C 	0.97300 0.85072 0.47186 -0.22400
H 	H 	0.93950 0.85570 0.43680 0.09600
C 	C 	0.00780 0.87814 0.50650 0.19300
C 	C 	0.10820 0.72358 0.59618 0.12900
C 	C 	0.22950 0.69996 0.61463 0.11400
H 	H 	0.23730 0.71760 0.59160 -0.06400
C 	C 	0.28200 0.67559 0.63830 -0.24700
H 	H 	0.32450 0.67690 0.63100 0.10100
C 	C 	0.27200 0.64910 0.67290 0.22200
C 	C 	0.20940 0.64827 0.68440 -0.25300
H 	H 	0.20270 0.63110 0.70850 0.10300
C 	C 	0.15640 0.67254 0.66088 0.11600
H 	H 	0.11450 0.67150 0.66930 -0.06200
C 	C 	0.16511 0.69870 0.62454 -0.19500
C 	C 	0.66617 0.85294 0.68626 0.13600
C 	C 	0.73924 0.86592 0.71063 -0.17200
C 	C 	0.76320 0.87555 0.76640 0.08300
H 	H 	0.73630 0.86990 0.78910 -0.05300
C 	C 	0.78050 0.87295 0.67740 0.09100
H 	H 	0.76560 0.86600 0.63980 -0.02300
C 	C 	0.82640 0.89355 0.79000 -0.23900
H 	H 	0.84100 0.90020 0.82780 0.09600
C 	C 	0.86690 0.90140 0.75750 0.19300
C 	C 	0.84440 0.89060 0.70080 -0.22400
H 	H 	0.87260 0.89520 0.67870 0.09700
C 	C 	0.51770 0.79998 0.60944 -0.18500
C 	C 	0.52560 0.76459 0.62457 0.04600
H 	H 	0.56780 0.75690 0.65100 -0.02800
C 	C 	0.47210 0.74067 0.60110 -0.22200
H 	H 	0.47800 0.71710 0.61200 0.09300
C 	C 	0.40200 0.78641 0.54420 -0.22500
H 	H 	0.36070 0.79370 0.51630 0.09100
C 	C 	0.40980 0.75171 0.56120 0.18600
C 	C 	0.57052 0.82578 0.64172 0.11000
C 	C 	0.45550 0.81064 0.56840 0.06800
H 	H 	0.44960 0.83410 0.55700 -0.03700
Cu	Cu	0.96135 0.37174 0.66804 0.76800
Cu	Cu	0.94693 0.52543 0.63232 0.82800
Cu	Cu	0.40700 0.24508 0.50332 0.81700
Cu	Cu	0.70498 0.28175 0.61885 0.82700
Cu	Cu	0.49366 0.17107 0.56768 0.81600
Cu	Cu	0.18310 0.29395 0.61229 0.83600
Cu	Cu	0.34760 0.16888 0.58711 0.81900
Cu	Cu	0.89107 0.40539 0.75359 0.78000
Cl	Cl	0.37489 0.18122 0.49201 -0.79500
N 	N 	0.94988 0.42245 0.67223 -0.27900
N 	N 	0.94660 0.48044 0.66192 -0.28700
N 	N 	0.90854 0.43601 0.70158 -0.26600
N 	N 	0.22103 0.29562 0.41614 -0.28400
N 	N 	0.27633 0.24573 0.41129 -0.24300
N 	N 	0.31763 0.26411 0.45835 -0.24600
N 	N 	0.50518 0.24535 0.54783 -0.25200
N 	N 	0.54094 0.21477 0.57218 -0.25500
N 	N 	0.61858 0.25831 0.58895 -0.28600
N 	N 	0.96645 0.62633 0.58861 -0.24800
N 	N 	0.90486 0.62764 0.60226 -0.25400
N 	N 	0.93929 0.57214 0.60687 -0.29000
N 	N 	0.11432 0.36934 0.69775 -0.27200
N 	N 	0.05247 0.35176 0.66909 -0.27900
N 	N 	0.14114 0.32541 0.65064 -0.27700
N 	N 	0.79409 0.30240 0.64916 -0.28900
N 	N 	0.88602 0.33802 0.66429 -0.26700
N 	N 	0.90681 0.30945 0.70002 -0.27000
N 	N 	0.82440 0.12420 0.69490 -0.32900
H 	H 	0.81830 0.10770 0.71640 0.13400
H 	H 	0.86310 0.12520 0.68710 0.13300
N 	N 	0.86830 0.16717 0.82340 -0.33000
H 	H 	0.90370 0.15310 0.82950 0.13500
H 	H 	0.83710 0.16340 0.83940 0.13800
N 	N 	0.17520 0.41488 0.54620 -0.32900
H 	H 	0.16670 0.39790 0.52220 0.15200
H 	H 	0.21450 0.42620 0.55470 0.14000
N 	N 	0.75850 0.55139 0.80830 -0.32700
H 	H 	0.77600 0.57090 0.82440 0.14500
H 	H 	0.71900 0.54380 0.81040 0.13500
N 	N 	0.85450 0.22751 0.53850 -0.31700
H 	H 	0.81550 0.23430 0.51370 0.11200
H 	H 	0.85970 0.20590 0.54930 0.13300
N 	N 	0.42340 0.40631 0.60110 -0.32400
H 	H 	0.41710 0.42750 0.58810 0.13000
H 	H 	0.45330 0.40230 0.63410 0.13300
N 	N 	0.49090 0.41296 0.49040 -0.32700
H 	H 	0.45860 0.41760 0.45880 0.13900
H 	H 	0.51280 0.42980 0.51220 0.13300
N 	N 	0.02180 0.22603 0.17455 -0.32600
H 	H 	0.01640 0.20430 0.16450 0.13600
H 	H 	0.99730 0.24210 0.15230 0.12600
N 	N 	0.64810 0.42312 0.46110 -0.32600
H 	H 	0.62780 0.41480 0.42770 0.13200
H 	H 	0.64320 0.44500 0.46790 0.12700
N 	N 	0.63340 0.55709 0.64440 -0.32800
H 	H 	0.61590 0.57010 0.66450 0.13000
H 	H 	0.61060 0.53890 0.62730 0.13000
N 	N 	0.20530 0.53533 0.52370 -0.34200
H 	H 	0.20430 0.51330 0.51540 0.13200
H 	H 	0.24030 0.54820 0.52300 0.14700
N 	N 	0.43210 0.41930 0.78120 -0.31800
H 	H 	0.44630 0.42530 0.81620 0.12700
H 	H 	0.45760 0.42420 0.76050 0.12300
C 	C 	0.28351 0.29394 0.45961 0.12300
C 	C 	0.35780 0.31647 0.55449 0.09800
H 	H 	0.36410 0.29360 0.56860 -0.05700
C 	C 	0.38530 0.37853 0.56840 0.21000
C 	C 	0.33780 0.38502 0.51570 -0.23600
H 	H 	0.32860 0.40810 0.50290 0.10000
C 	C 	0.31327 0.32257 0.49962 -0.17500
C 	C 	0.30290 0.35733 0.48094 0.10000
H 	H 	0.27230 0.36220 0.44470 -0.05400
C 	C 	0.39310 0.34413 0.58870 -0.23400
H 	H 	0.42220 0.33960 0.62550 0.09800
C 	C 	0.21902 0.26538 0.38693 0.11700
C 	C 	0.16480 0.25502 0.33359 -0.18200
C 	C 	0.12430 0.28020 0.29580 0.09000
H 	H 	0.12880 0.30390 0.30590 -0.06300
C 	C 	0.07760 0.27025 0.24370 -0.22900
H 	H 	0.05070 0.28740 0.21950 0.07500
C 	C 	0.15680 0.21985 0.31610 0.10200
H 	H 	0.18320 0.20250 0.34020 -0.06000
C 	C 	0.07020 0.23532 0.22690 0.19900
C 	C 	0.11040 0.21024 0.26360 -0.24700
H 	H 	0.10620 0.18670 0.25300 0.10400
C 	C 	0.89004 0.59500 0.61252 0.12600
C 	C 	0.82600 0.58461 0.62414 -0.19200
C 	C 	0.79860 0.60408 0.65820 0.10900
H 	H 	0.82250 0.62410 0.67620 -0.05100
C 	C 	0.73550 0.59436 0.66610 -0.25000
H 	H 	0.71830 0.60760 0.68980 0.10000
C 	C 	0.78870 0.55483 0.59790 0.10600
H 	H 	0.80650 0.54100 0.57510 -0.05900
C 	C 	0.69860 0.56555 0.63930 0.21700
C 	C 	0.72590 0.54546 0.60520 -0.24500
H 	H 	0.70160 0.52560 0.58710 0.09500
C 	C 	0.98507 0.59263 0.59078 0.15900
C 	C 	0.04260 0.54330 0.55740 0.17000
H 	H 	0.00560 0.52870 0.55810 -0.09200
C 	C 	0.09520 0.52986 0.53980 -0.29900
H 	H 	0.09280 0.50640 0.52860 0.11900
C 	C 	0.04340 0.57855 0.57426 -0.22800
C 	C 	0.09810 0.59920 0.56980 0.16500
H 	H 	0.09900 0.62300 0.57880 -0.07600
C 	C 	0.15080 0.58577 0.55260 -0.29000
H 	H 	0.18690 0.60040 0.55020 0.12400
C 	C 	0.15100 0.54991 0.53840 0.24900
C 	C 	0.77476 0.35694 0.58939 -0.19100
C 	C 	0.73880 0.34429 0.53600 0.10200
H 	H 	0.74290 0.32060 0.52800 -0.04800
C 	C 	0.76830 0.39214 0.59920 0.11800
H 	H 	0.79310 0.40160 0.63440 -0.06000
C 	C 	0.81828 0.33315 0.63418 0.12700
C 	C 	0.69670 0.36621 0.49380 -0.24500
H 	H 	0.67360 0.35710 0.45800 0.09800
C 	C 	0.72510 0.41392 0.55710 -0.25400
H 	H 	0.72070 0.43760 0.56490 0.09800
C 	C 	0.68890 0.40098 0.50450 0.21200
C 	C 	0.85156 0.25580 0.72105 -0.18500
C 	C 	0.80060 0.24878 0.74584 0.09700
H 	H 	0.76290 0.26430 0.74040 -0.05300
C 	C 	0.80520 0.21922 0.77830 -0.25100
H 	H 	0.77000 0.21470 0.79400 0.10200
C 	C 	0.90660 0.23176 0.72914 0.10000
H 	H 	0.94060 0.23570 0.71200 -0.03600
C 	C 	0.85078 0.28869 0.69009 0.13100
C 	C 	0.86170 0.19591 0.78803 0.21300
C 	C 	0.91130 0.20256 0.76181 -0.24000
H 	H 	0.94840 0.18680 0.76660 0.09800
C 	C 	0.90701 0.47062 0.69453 0.12200
C 	C 	0.86670 0.49338 0.72001 -0.17900
C 	C 	0.89360 0.52536 0.74587 0.08900
H 	H 	0.93590 0.53400 0.74340 -0.06400
C 	C 	0.79430 0.53212 0.77860 0.20500
C 	C 	0.80210 0.48192 0.72290 0.09500
H 	H 	0.78300 0.46090 0.70540 -0.04000
C 	C 	0.85800 0.54425 0.77500 -0.24000
H 	H 	0.87690 0.56530 0.79240 0.09200
C 	C 	0.76590 0.50074 0.75080 -0.23300
H 	H 	0.72230 0.49270 0.75140 0.09700
C 	C 	0.08560 0.46195 0.63200 0.06400
H 	H 	0.09390 0.48100 0.65680 -0.02600
C 	C 	0.06200 0.40595 0.55802 -0.21300
H 	H 	0.05370 0.38690 0.53350 0.09100
C 	C 	0.02210 0.44385 0.61886 -0.18600
C 	C 	0.97258 0.44937 0.64957 0.11700
C 	C 	0.01100 0.41571 0.58043 0.06100
H 	H 	0.96820 0.40350 0.57010 -0.02700
C 	C 	0.12550 0.42392 0.57120 0.19400
C 	C 	0.13680 0.45234 0.60920 -0.22400
H 	H 	0.17920 0.46480 0.61900 0.09600
C 	C 	0.53820 0.30756 0.54056 -0.18500
C 	C 	0.48750 0.31609 0.48885 0.11500
H 	H 	0.46280 0.29810 0.46530 -0.06200
C 	C 	0.57370 0.33533 0.57490 0.11000
H 	H 	0.60800 0.33050 0.60960 -0.06300
C 	C 	0.55830 0.36989 0.55810 -0.23800
H 	H 	0.58230 0.38800 0.58170 0.09900
C 	C 	0.55320 0.27088 0.55829 0.13400
C 	C 	0.47300 0.35072 0.47186 -0.24100
H 	H 	0.43950 0.35570 0.43680 0.10000
C 	C 	0.50780 0.37814 0.50650 0.21500
C 	C 	0.60820 0.22358 0.59618 0.13000
C 	C 	0.72950 0.19996 0.61463 0.11400
H 	H 	0.73730 0.21760 0.59160 -0.06400
C 	C 	0.78200 0.17559 0.63830 -0.24700
H 	H 	0.82450 0.17690 0.63100 0.10200
C 	C 	0.77200 0.14910 0.67290 0.22200
C 	C 	0.70940 0.14827 0.68440 -0.25300
H 	H 	0.70270 0.13110 0.70850 0.10300
C 	C 	0.65640 0.17254 0.66088 0.11600
H 	H 	0.61450 0.17150 0.66930 -0.06000
C 	C 	0.66511 0.19870 0.62454 -0.19400
C 	C 	0.16617 0.35294 0.68626 0.13600
C 	C 	0.23924 0.36592 0.71063 -0.17100
C 	C 	0.26320 0.37555 0.76640 0.08200
H 	H 	0.23630 0.36990 0.78910 -0.05300
C 	C 	0.28050 0.37295 0.67740 0.08900
H 	H 	0.26560 0.36600 0.63980 -0.02300
C 	C 	0.32640 0.39355 0.79000 -0.23800
H 	H 	0.34100 0.40020 0.82780 0.09500
C 	C 	0.36690 0.40140 0.75750 0.19100
C 	C 	0.34440 0.39060 0.70080 -0.22300
H 	H 	0.37260 0.39520 0.67870 0.09600
C 	C 	0.01770 0.29998 0.60944 -0.19200
C 	C 	0.02560 0.26459 0.62457 0.03200
H 	H 	0.06780 0.25690 0.65100 -0.02500
C 	C 	0.97210 0.24067 0.60110 -0.20600
H 	H 	0.97800 0.21710 0.61200 0.09100
C 	C 	0.90200 0.28641 0.54420 -0.22700
H 	H 	0.86070 0.29370 0.51630 0.09200
C 	C 	0.90980 0.25171 0.56120 0.18400
C 	C 	0.07052 0.32578 0.64172 0.11100
C 	C 	0.95550 0.31064 0.56840 0.08100
H 	H 	0.94960 0.33410 0.55700 -0.03900
Cu	Cu	0.53865 0.87174 0.83196 0.76500
Cu	Cu	0.55307 0.02543 0.86768 0.82600
Cu	Cu	0.09300 0.74508 0.99668 0.81300
Cu	Cu	0.79502 0.78175 0.88115 0.82700
Cu	Cu	0.00634 0.67107 0.93232 0.81100
Cu	Cu	0.31690 0.79395 0.88771 0.83600
Cu	Cu	0.15240 0.66888 0.91289 0.81800
Cu	Cu	0.60893 0.90539 0.74641 0.77900
Cl	Cl	0.12511 0.68122 0.00799 -0.79500
N 	N 	0.55012 0.92245 0.82777 -0.27900
N 	N 	0.55340 0.98044 0.83808 -0.28800
N 	N 	0.59146 0.93601 0.79842 -0.26600
N 	N 	0.27897 0.79562 0.08386 -0.28300
N 	N 	0.22367 0.74573 0.08871 -0.24300
N 	N 	0.18237 0.76411 0.04165 -0.24500
N 	N 	0.99482 0.74535 0.95217 -0.24700
N 	N 	0.95906 0.71477 0.92782 -0.25200
N 	N 	0.88142 0.75831 0.91105 -0.28600
N 	N 	0.53355 0.12633 0.91139 -0.24700
N 	N 	0.59514 0.12764 0.89774 -0.25400
N 	N 	0.56071 0.07214 0.89313 -0.29000
N 	N 	0.38568 0.86934 0.80225 -0.27100
N 	N 	0.44753 0.85176 0.83091 -0.27700
N 	N 	0.35886 0.82541 0.84936 -0.27600
N 	N 	0.70591 0.80240 0.85084 -0.28900
N 	N 	0.61398 0.83802 0.83571 -0.26800
N 	N 	0.59319 0.80945 0.79998 -0.27200
N 	N 	0.67560 0.62420 0.80510 -0.32800
H 	H 	0.68170 0.60770 0.78360 0.13400
H 	H 	0.63690 0.62520 0.81290 0.13200
N 	N 	0.63170 0.66717 0.67660 -0.32900
H 	H 	0.59630 0.65310 0.67050 0.13300
H 	H 	0.66290 0.66340 0.66060 0.13700
N 	N 	0.32480 0.91488 0.95380 -0.33000
H 	H 	0.33330 0.89790 0.97780 0.15200
H 	H 	0.28550 0.92620 0.94530 0.14000
N 	N 	0.74150 0.05139 0.69170 -0.32700
H 	H 	0.72400 0.07090 0.67560 0.14500
H 	H 	0.78100 0.04380 0.68960 0.13600
N 	N 	0.64550 0.72751 0.96150 -0.31800
H 	H 	0.68450 0.73430 0.98630 0.11200
H 	H 	0.64030 0.70590 0.95070 0.13300
N 	N 	0.07660 0.90631 0.89890 -0.32300
H 	H 	0.08290 0.92750 0.91190 0.12700
H 	H 	0.04670 0.90230 0.86590 0.12900
N 	N 	0.00910 0.91296 0.00960 -0.34200
H 	H 	0.04140 0.91760 0.04120 0.14100
H 	H 	0.98720 0.92980 0.98780 0.14300
N 	N 	0.47820 0.72603 0.32545 -0.31900
H 	H 	0.48360 0.70430 0.33550 0.13600
H 	H 	0.50270 0.74210 0.34770 0.11800
N 	N 	0.85190 0.92312 0.03890 -0.32700
H 	H 	0.87220 0.91480 0.07230 0.13300
H 	H 	0.85680 0.94500 0.03210 0.12700
N 	N 	0.86660 0.05709 0.85560 -0.32900
H 	H 	0.88410 0.07010 0.83550 0.13200
H 	H 	0.88940 0.03890 0.87270 0.13200
N 	N 	0.29470 0.03533 0.97630 -0.34000
H 	H 	0.29570 0.01330 0.98460 0.13100
H 	H 	0.25970 0.04820 0.97700 0.14600
N 	N 	0.06790 0.91930 0.71880 -0.31700
H 	H 	0.05370 0.92530 0.68380 0.12400
H 	H 	0.04240 0.92420 0.73950 0.12000
C 	C 	0.21649 0.79394 0.04039 0.12200
C 	C 	0.14220 0.81647 0.94551 0.09200
H 	H 	0.13590 0.79360 0.93140 -0.05600
C 	C 	0.11470 0.87853 0.93160 0.20700
C 	C 	0.16220 0.88502 0.98430 -0.23800
H 	H 	0.17140 0.90810 0.99710 0.10000
C 	C 	0.18673 0.82257 0.00038 -0.17100
C 	C 	0.19710 0.85733 0.01906 0.10200
H 	H 	0.22770 0.86220 0.05530 -0.05400
C 	C 	0.10690 0.84413 0.91130 -0.23200
H 	H 	0.07780 0.83960 0.87450 0.09500
C 	C 	0.28098 0.76538 0.11307 0.11700
C 	C 	0.33520 0.75502 0.16641 -0.18200
C 	C 	0.37570 0.78020 0.20420 0.09000
H 	H 	0.37120 0.80390 0.19410 -0.06300
C 	C 	0.42240 0.77025 0.25630 -0.22800
H 	H 	0.44930 0.78740 0.28050 0.07700
C 	C 	0.34320 0.71985 0.18390 0.10200
H 	H 	0.31680 0.70250 0.15980 -0.06000
C 	C 	0.42980 0.73532 0.27310 0.20000
C 	C 	0.38960 0.71024 0.23640 -0.24600
H 	H 	0.39380 0.68670 0.24700 0.10500
C 	C 	0.60996 0.09500 0.88748 0.12600
C 	C 	0.67400 0.08461 0.87586 -0.19400
C 	C 	0.70140 0.10408 0.84180 0.11000
H 	H 	0.67750 0.12410 0.82380 -0.05100
C 	C 	0.76450 0.09436 0.83390 -0.25100
H 	H 	0.78170 0.10760 0.81020 0.10100
C 	C 	0.71130 0.05483 0.90210 0.10700
H 	H 	0.69350 0.04100 0.92490 -0.06000
C 	C 	0.80140 0.06555 0.86070 0.21900
C 	C 	0.77410 0.04546 0.89480 -0.24700
H 	H 	0.79840 0.02560 0.91290 0.09600
C 	C 	0.51493 0.09263 0.90922 0.14600
C 	C 	0.45740 0.04330 0.94260 0.15900
H 	H 	0.49440 0.02870 0.94190 -0.08400
C 	C 	0.40480 0.02986 0.96020 -0.28900
H 	H 	0.40720 0.00640 0.97140 0.11700
C 	C 	0.45660 0.07855 0.92574 -0.21000
C 	C 	0.40190 0.09920 0.93020 0.15400
H 	H 	0.40100 0.12300 0.92120 -0.07000
C 	C 	0.34920 0.08577 0.94740 -0.28100
H 	H 	0.31310 0.10040 0.94980 0.12000
C 	C 	0.34900 0.04991 0.96160 0.24300
C 	C 	0.72524 0.85694 0.91061 -0.19300
C 	C 	0.76120 0.84429 0.96400 0.10600
H 	H 	0.75710 0.82060 0.97200 -0.04900
C 	C 	0.73170 0.89214 0.90080 0.12000
H 	H 	0.70690 0.90160 0.86560 -0.06100
C 	C 	0.68172 0.83315 0.86582 0.12800
C 	C 	0.80330 0.86621 0.00620 -0.25000
H 	H 	0.82640 0.85710 0.04200 0.10000
C 	C 	0.77490 0.91392 0.94290 -0.25700
H 	H 	0.77930 0.93760 0.93510 0.10000
C 	C 	0.81110 0.90098 0.99550 0.21600
C 	C 	0.64844 0.75580 0.77895 -0.18500
C 	C 	0.69940 0.74878 0.75416 0.09700
H 	H 	0.73710 0.76430 0.75960 -0.05300
C 	C 	0.69480 0.71922 0.72170 -0.25000
H 	H 	0.73000 0.71470 0.70600 0.10100
C 	C 	0.59340 0.73176 0.77086 0.09900
H 	H 	0.55940 0.73570 0.78800 -0.03800
C 	C 	0.64922 0.78869 0.80991 0.13100
C 	C 	0.63830 0.69591 0.71197 0.21200
C 	C 	0.58870 0.70256 0.73819 -0.24000
H 	H 	0.55160 0.68680 0.73340 0.09500
C 	C 	0.59299 0.97062 0.80547 0.12100
C 	C 	0.63330 0.99338 0.77999 -0.18000
C 	C 	0.60640 0.02536 0.75413 0.08900
H 	H 	0.56410 0.03400 0.75660 -0.06700
C 	C 	0.70570 0.03212 0.72140 0.20600
C 	C 	0.69790 0.98192 0.77710 0.09600
H 	H 	0.71700 0.96090 0.79460 -0.04100
C 	C 	0.64200 0.04425 0.72500 -0.24100
H 	H 	0.62310 0.06530 0.70760 0.09100
C 	C 	0.73410 0.00074 0.74920 -0.23400
H 	H 	0.77770 0.99270 0.74860 0.09800
C 	C 	0.41440 0.96195 0.86800 0.06500
H 	H 	0.40610 0.98100 0.84320 -0.02500
C 	C 	0.43800 0.90595 0.94198 -0.22400
H 	H 	0.44630 0.88690 0.96650 0.09600
C 	C 	0.47790 0.94385 0.88114 -0.18300
C 	C 	0.52742 0.94937 0.85043 0.10800
C 	C 	0.48900 0.91571 0.91957 0.08300
H 	H 	0.53180 0.90350 0.92990 -0.04000
C 	C 	0.37450 0.92392 0.92880 0.19900
C 	C 	0.36320 0.95234 0.89080 -0.22600
H 	H 	0.32080 0.96480 0.88100 0.09600
C 	C 	0.96180 0.80756 0.95944 -0.18000
C 	C 	0.01250 0.81609 0.01115 0.11200
H 	H 	0.03720 0.79810 0.03470 -0.06300
C 	C 	0.92630 0.83533 0.92510 0.11500
H 	H 	0.89200 0.83050 0.89040 -0.06500
C 	C 	0.94170 0.86989 0.94190 -0.24700
H 	H 	0.91770 0.88800 0.91830 0.10300
C 	C 	0.94680 0.77088 0.94171 0.13400
C 	C 	0.02700 0.85072 0.02814 -0.25800
H 	H 	0.06050 0.85570 0.06320 0.10500
C 	C 	0.99220 0.87814 0.99350 0.23700
C 	C 	0.89180 0.72358 0.90382 0.13000
C 	C 	0.77050 0.69996 0.88537 0.11200
H 	H 	0.76270 0.71760 0.90840 -0.06300
C 	C 	0.71800 0.67559 0.86170 -0.24600
H 	H 	0.67550 0.67690 0.86900 0.10100
C 	C 	0.72800 0.64910 0.82710 0.22100
C 	C 	0.79060 0.64827 0.81560 -0.25200
H 	H 	0.79730 0.63110 0.79150 0.10300
C 	C 	0.84360 0.67254 0.83912 0.11500
H 	H 	0.88550 0.67150 0.83070 -0.05800
C 	C 	0.83489 0.69870 0.87546 -0.19300
C 	C 	0.33383 0.85294 0.81374 0.13600
C 	C 	0.26076 0.86592 0.78937 -0.17000
C 	C 	0.23680 0.87555 0.73360 0.08100
H 	H 	0.26370 0.86990 0.71090 -0.05200
C 	C 	0.21950 0.87295 0.82260 0.08800
H 	H 	0.23440 0.86600 0.86020 -0.02200
C 	C 	0.17360 0.89355 0.71000 -0.23700
H 	H 	0.15900 0.90020 0.67220 0.09400
C 	C 	0.13310 0.90140 0.74250 0.18900
C 	C 	0.15560 0.89060 0.79920 -0.22200
H 	H 	0.12740 0.89520 0.82130 0.09500
C 	C 	0.48230 0.79998 0.89056 -0.18500
C 	C 	0.47440 0.76459 0.87543 0.04600
H 	H 	0.43220 0.75690 0.84900 -0.02800
C 	C 	0.52790 0.74067 0.89890 -0.22200
H 	H 	0.52200 0.71710 0.88800 0.09300
C 	C 	0.59800 0.78641 0.95580 -0.22500
H 	H 	0.63930 0.79370 0.98370 0.09100
C 	C 	0.59020 0.75171 0.93880 0.18600
C 	C 	0.42948 0.82578 0.85828 0.11000
C 	C 	0.54450 0.81064 0.93160 0.06800
H 	H 	0.55040 0.83410 0.94300 -0.03700
Cu	Cu	0.03865 0.37174 0.83196 0.76200
Cu	Cu	0.05307 0.52543 0.86768 0.82300
Cu	Cu	0.59300 0.24508 0.99668 0.81700
Cu	Cu	0.29502 0.28175 0.88115 0.82700
Cu	Cu	0.50634 0.17107 0.93232 0.81600
Cu	Cu	0.81690 0.29395 0.88771 0.83600
Cu	Cu	0.65240 0.16888 0.91289 0.81900
Cu	Cu	0.10893 0.40539 0.74641 0.77800
Cl	Cl	0.62511 0.18122 0.00799 -0.79500
N 	N 	0.05012 0.42245 0.82777 -0.28000
N 	N 	0.05340 0.48044 0.83808 -0.28800
N 	N 	0.09146 0.43601 0.79842 -0.26700
N 	N 	0.77897 0.29562 0.08386 -0.28400
N 	N 	0.72367 0.24573 0.08871 -0.24300
N 	N 	0.68237 0.26411 0.04165 -0.24500
N 	N 	0.49482 0.24535 0.95217 -0.25200
N 	N 	0.45906 0.21477 0.92782 -0.25500
N 	N 	0.38142 0.25831 0.91105 -0.28600
N 	N 	0.03355 0.62633 0.91139 -0.24700
N 	N 	0.09514 0.62764 0.89774 -0.25500
N 	N 	0.06071 0.57214 0.89313 -0.28900
N 	N 	0.88568 0.36934 0.80225 -0.27100
N 	N 	0.94753 0.35176 0.83091 -0.27300
N 	N 	0.85886 0.32541 0.84936 -0.27600
N 	N 	0.20591 0.30240 0.85084 -0.28900
N 	N 	0.11398 0.33802 0.83571 -0.26900
N 	N 	0.09319 0.30945 0.79998 -0.27300
N 	N 	0.17560 0.12420 0.80510 -0.32800
H 	H 	0.18170 0.10770 0.78360 0.13300
H 	H 	0.13690 0.12520 0.81290 0.13000
N 	N 	0.13170 0.16717 0.67660 -0.32900
H 	H 	0.09630 0.15310 0.67050 0.13200
H 	H 	0.16290 0.16340 0.66060 0.13700
N 	N 	0.82480 0.41488 0.95380 -0.33200
H 	H 	0.83330 0.39790 0.97780 0.15300
H 	H 	0.78550 0.42620 0.94530 0.14100
N 	N 	0.24150 0.55139 0.69170 -0.32700
H 	H 	0.22400 0.57090 0.67560 0.14400
H 	H 	0.28100 0.54380 0.68960 0.13500
N 	N 	0.14550 0.22751 0.96150 -0.31800
H 	H 	0.18450 0.23430 0.98630 0.11100
H 	H 	0.14030 0.20590 0.95070 0.13200
N 	N 	0.57660 0.40631 0.89890 -0.32400
H 	H 	0.58290 0.42750 0.91190 0.13000
H 	H 	0.54670 0.40230 0.86590 0.13300
N 	N 	0.50910 0.41296 0.00960 -0.32500
H 	H 	0.54140 0.41760 0.04120 0.13900
H 	H 	0.48720 0.42980 0.98780 0.13200
N 	N 	0.97820 0.22603 0.32545 -0.31100
H 	H 	0.98360 0.20430 0.33550 0.13700
H 	H 	0.00270 0.24210 0.34770 0.11000
N 	N 	0.35190 0.42312 0.03890 -0.32300
H 	H 	0.37220 0.41480 0.07230 0.13100
H 	H 	0.35680 0.44500 0.03210 0.12700
N 	N 	0.36660 0.55709 0.85560 -0.32800
H 	H 	0.38410 0.57010 0.83550 0.13000
H 	H 	0.38940 0.53890 0.87270 0.13000
N 	N 	0.79470 0.53533 0.97630 -0.33900
H 	H 	0.79570 0.51330 0.98460 0.13200
H 	H 	0.75970 0.54820 0.97700 0.14600
N 	N 	0.56790 0.41930 0.71880 -0.31800
H 	H 	0.55370 0.42530 0.68380 0.12700
H 	H 	0.54240 0.42420 0.73950 0.12300
C 	C 	0.71649 0.29394 0.04039 0.12300
C 	C 	0.64220 0.31647 0.94551 0.09800
H 	H 	0.63590 0.29360 0.93140 -0.05700
C 	C 	0.61470 0.37853 0.93160 0.21000
C 	C 	0.66220 0.38502 0.98430 -0.23600
H 	H 	0.67140 0.40810 0.99710 0.10000
C 	C 	0.68673 0.32257 0.00038 -0.17500
C 	C 	0.69710 0.35733 0.01906 0.10000
H 	H 	0.72770 0.36220 0.05530 -0.05400
C 	C 	0.60690 0.34413 0.91130 -0.23400
H 	H 	0.57780 0.33960 0.87450 0.09800
C 	C 	0.78098 0.26538 0.11307 0.11700
C 	C 	0.83520 0.25502 0.16641 -0.18100
C 	C 	0.87570 0.28020 0.20420 0.09000
H 	H 	0.87120 0.30390 0.19410 -0.06200
C 	C 	0.92240 0.27025 0.25630 -0.22600
H 	H 	0.94930 0.28740 0.28050 0.07900
C 	C 	0.84320 0.21985 0.18390 0.10200
H 	H 	0.81680 0.20250 0.15980 -0.06000
C 	C 	0.92980 0.23532 0.27310 0.20000
C 	C 	0.88960 0.21024 0.23640 -0.24500
H 	H 	0.89380 0.18670 0.24700 0.10500
C 	C 	0.10996 0.59500 0.88748 0.12500
C 	C 	0.17400 0.58461 0.87586 -0.19400
C 	C 	0.20140 0.60408 0.84180 0.11000
H 	H 	0.17750 0.62410 0.82380 -0.05200
C 	C 	0.26450 0.59436 0.83390 -0.25100
H 	H 	0.28170 0.60760 0.81020 0.10100
C 	C 	0.21130 0.55483 0.90210 0.10700
H 	H 	0.19350 0.54100 0.92490 -0.06000
C 	C 	0.30140 0.56555 0.86070 0.21800
C 	C 	0.27410 0.54546 0.89480 -0.24600
H 	H 	0.29840 0.52560 0.91290 0.09500
C 	C 	0.01493 0.59263 0.90922 0.13000
C 	C 	0.95740 0.54330 0.94260 0.14700
H 	H 	0.99440 0.52870 0.94190 -0.07600
C 	C 	0.90480 0.52986 0.96020 -0.27900
H 	H 	0.90720 0.50640 0.97140 0.11500
C 	C 	0.95660 0.57855 0.92574 -0.18900
C 	C 	0.90190 0.59920 0.93020 0.14100
H 	H 	0.90100 0.62300 0.92120 -0.06400
C 	C 	0.84920 0.58577 0.94740 -0.27100
H 	H 	0.81310 0.60040 0.94980 0.11800
C 	C 	0.84900 0.54991 0.96160 0.23700
C 	C 	0.22524 0.35694 0.91061 -0.18600
C 	C 	0.26120 0.34429 0.96400 0.09300
H 	H 	0.25710 0.32060 0.97200 -0.04500
C 	C 	0.23170 0.39214 0.90080 0.11200
H 	H 	0.20690 0.40160 0.86560 -0.05800
C 	C 	0.18172 0.33315 0.86582 0.12500
C 	C 	0.30330 0.36621 0.00620 -0.23400
H 	H 	0.32640 0.35710 0.04200 0.09400
C 	C 	0.27490 0.41392 0.94290 -0.24800
H 	H 	0.27930 0.43760 0.93510 0.09600
C 	C 	0.31110 0.40098 0.99550 0.20300
C 	C 	0.14844 0.25580 0.77895 -0.18500
C 	C 	0.19940 0.24878 0.75416 0.09600
H 	H 	0.23710 0.26430 0.75960 -0.05200
C 	C 	0.19480 0.21922 0.72170 -0.25000
H 	H 	0.23000 0.21470 0.70600 0.10100
C 	C 	0.09340 0.23176 0.77086 0.09800
H 	H 	0.05940 0.23570 0.78800 -0.04000
C 	C 	0.14922 0.28869 0.80991 0.13100
C 	C 	0.13830 0.19591 0.71197 0.21100
C 	C 	0.08870 0.20256 0.73819 -0.24000
H 	H 	0.05160 0.18680 0.73340 0.09300
C 	C 	0.09299 0.47062 0.80547 0.12000
C 	C 	0.13330 0.49338 0.77999 -0.18100
C 	C 	0.10640 0.52536 0.75413 0.08900
H 	H 	0.06410 0.53400 0.75660 -0.07000
C 	C 	0.20570 0.53212 0.72140 0.20500
C 	C 	0.19790 0.48192 0.77710 0.09600
H 	H 	0.21700 0.46090 0.79460 -0.04100
C 	C 	0.14200 0.54425 0.72500 -0.24200
H 	H 	0.12310 0.56530 0.70760 0.09000
C 	C 	0.23410 0.50074 0.74920 -0.23400
H 	H 	0.27770 0.49270 0.74860 0.09700
C 	C 	0.91440 0.46195 0.86800 0.06800
H 	H 	0.90610 0.48100 0.84320 -0.02400
C 	C 	0.93800 0.40595 0.94198 -0.23800
H 	H 	0.94630 0.38690 0.96650 0.10400
C 	C 	0.97790 0.44385 0.88114 -0.18100
C 	C 	0.02742 0.44937 0.85043 0.10000
C 	C 	0.98900 0.41571 0.91957 0.10900
H 	H 	0.03180 0.40350 0.92990 -0.05600
C 	C 	0.87450 0.42392 0.92880 0.20600
C 	C 	0.86320 0.45234 0.89080 -0.23100
H 	H 	0.82080 0.46480 0.88100 0.09800
C 	C 	0.46180 0.30756 0.95944 -0.18600
C 	C 	0.51250 0.31609 0.01115 0.11500
H 	H 	0.53720 0.29810 0.03470 -0.06200
C 	C 	0.42630 0.33533 0.92510 0.11000
H 	H 	0.39200 0.33050 0.89040 -0.06300
C 	C 	0.44170 0.36989 0.94190 -0.23700
H 	H 	0.41770 0.38800 0.91830 0.09900
C 	C 	0.44680 0.27088 0.94171 0.13300
C 	C 	0.52700 0.35072 0.02814 -0.24000
H 	H 	0.56050 0.35570 0.06320 0.10000
C 	C 	0.49220 0.37814 0.99350 0.21300
C 	C 	0.39180 0.22358 0.90382 0.12900
C 	C 	0.27050 0.19996 0.88537 0.11300
H 	H 	0.26270 0.21760 0.90840 -0.06400
C 	C 	0.21800 0.17559 0.86170 -0.24600
H 	H 	0.17550 0.17690 0.86900 0.10000
C 	C 	0.22800 0.14910 0.82710 0.22100
C 	C 	0.29060 0.14827 0.81560 -0.25200
H 	H 	0.29730 0.13110 0.79150 0.10200
C 	C 	0.34360 0.17254 0.83912 0.11500
H 	H 	0.38550 0.17150 0.83070 -0.06000
C 	C 	0.33489 0.19870 0.87546 -0.19400
C 	C 	0.83383 0.35294 0.81374 0.13600
C 	C 	0.76076 0.36592 0.78937 -0.17100
C 	C 	0.73680 0.37555 0.73360 0.08200
H 	H 	0.76370 0.36990 0.71090 -0.05300
C 	C 	0.71950 0.37295 0.82260 0.08900
H 	H 	0.73440 0.36600 0.86020 -0.02300
C 	C 	0.67360 0.39355 0.71000 -0.23800
H 	H 	0.65900 0.40020 0.67220 0.09500
C 	C 	0.63310 0.40140 0.74250 0.19100
C 	C 	0.65560 0.39060 0.79920 -0.22300
H 	H 	0.62740 0.39520 0.82130 0.09600
C 	C 	0.98230 0.29998 0.89056 -0.17500
C 	C 	0.97440 0.26459 0.87543 0.06100
H 	H 	0.93220 0.25690 0.84900 -0.03200
C 	C 	0.02790 0.24067 0.89890 -0.23900
H 	H 	0.02200 0.21710 0.88800 0.09500
C 	C 	0.09800 0.28641 0.95580 -0.22100
H 	H 	0.13930 0.29370 0.98370 0.08900
C 	C 	0.09020 0.25171 0.93880 0.18800
C 	C 	0.92948 0.32578 0.85828 0.11000
C 	C 	0.04450 0.31064 0.93160 0.05300
H 	H 	0.05040 0.33410 0.94300 -0.03500
Cu	Cu	0.50000 0.19193 0.25000 0.77200
Cu	Cu	0.00000 0.69193 0.25000 0.76900
Cu	Cu	0.50000 0.80807 0.75000 0.77200
Cu	Cu	0.00000 0.30807 0.75000 0.76800
