data_crystal

_cell_length_a 20.01400
_cell_length_b 37.95600
_cell_length_c 25.08500
_cell_angle_alpha 90.00000
_cell_angle_beta  109.38400
_cell_angle_gamma 90.00000

_symmetry_space_group_name_	'P 1'
_symmetry_space_group_name_H-M	'P 1'

loop_
_symmetry_equiv_pos_as_xyz
  x,y,z

loop_
_atom_site_label
_atom_site_type_symbol
_atom_site_fract_x
_atom_site_fract_y
_atom_site_fract_z
_atom_site_charge
Cu	Cu	0.53862 0.12826 0.33194 0.76600
Cu	Cu	0.55307 0.97457 0.36771 0.82700
Cu	Cu	0.09299 0.25492 0.49668 0.81600
Cu	Cu	0.79501 0.21825 0.38115 0.82800
Cu	Cu	0.00632 0.32893 0.43230 0.81400
Cu	Cu	0.31689 0.20606 0.38772 0.83700
Cu	Cu	0.15240 0.33111 0.41289 0.81900
Cu	Cu	0.60894 0.09461 0.24641 0.78000
Cl	Cl	0.12511 0.31878 0.50801 -0.79600
N 	N 	0.55001 0.07761 0.32769 -0.27900
N 	N 	0.55345 0.01954 0.33807 -0.28700
N 	N 	0.59168 0.06401 0.29842 -0.26600
N 	N 	0.27892 0.20439 0.58383 -0.28300
N 	N 	0.22380 0.25430 0.58884 -0.24200
N 	N 	0.18248 0.23586 0.54170 -0.24500
N 	N 	0.99476 0.25470 0.45230 -0.24700
N 	N 	0.95916 0.28523 0.42799 -0.25100
N 	N 	0.88139 0.24166 0.41097 -0.28500
N 	N 	0.53335 0.87366 0.41133 -0.24700
N 	N 	0.59498 0.87230 0.39766 -0.25300
N 	N 	0.56059 0.92790 0.39329 -0.28800
N 	N 	0.38571 0.13065 0.30241 -0.27000
N 	N 	0.44739 0.14820 0.33095 -0.27600
N 	N 	0.35883 0.17458 0.34934 -0.27700
N 	N 	0.70605 0.19759 0.35092 -0.29000
N 	N 	0.61407 0.16187 0.33571 -0.26900
N 	N 	0.59328 0.19056 0.29996 -0.27200
N 	N 	0.67580 0.37594 0.30510 -0.33000
H 	H 	0.68210 0.39240 0.28380 0.13500
H 	H 	0.63710 0.37500 0.31280 0.13300
N 	N 	0.63150 0.33296 0.17670 -0.32700
H 	H 	0.59620 0.34710 0.17090 0.13200
H 	H 	0.66270 0.33680 0.16060 0.13600
N 	N 	0.32490 0.08509 0.45360 -0.33200
H 	H 	0.33330 0.10210 0.47750 0.15300
H 	H 	0.28560 0.07370 0.44510 0.14100
N 	N 	0.74130 0.94838 0.19210 -0.33100
H 	H 	0.72400 0.92880 0.17630 0.14600
H 	H 	0.78070 0.95600 0.18990 0.13700
N 	N 	0.64560 0.27246 0.46180 -0.31800
H 	H 	0.68460 0.26550 0.48640 0.11200
H 	H 	0.64070 0.29410 0.45120 0.13300
N 	N 	0.07630 0.09373 0.39850 -0.32100
H 	H 	0.08250 0.07250 0.41140 0.12700
H 	H 	0.04650 0.09790 0.36550 0.12900
N 	N 	0.00910 0.08717 0.50960 -0.34600
H 	H 	0.04120 0.08250 0.54130 0.14100
H 	H 	0.98720 0.07030 0.48780 0.14400
N 	N 	0.47810 0.27396 0.82569 -0.31700
H 	H 	0.48330 0.29570 0.83600 0.13500
H 	H 	0.50280 0.25790 0.84770 0.11800
N 	N 	0.85210 0.07704 0.53860 -0.32800
H 	H 	0.87250 0.08530 0.57200 0.13400
H 	H 	0.85700 0.05520 0.53170 0.12800
N 	N 	0.86650 0.94282 0.35550 -0.32800
H 	H 	0.88380 0.92980 0.33530 0.13100
H 	H 	0.88950 0.96100 0.37250 0.13100
N 	N 	0.29530 0.96480 0.47720 -0.33800
H 	H 	0.29720 0.98670 0.48650 0.13100
H 	H 	0.26000 0.95210 0.47770 0.14600
N 	N 	0.06800 0.08130 0.21770 -0.32000
H 	H 	0.05410 0.07550 0.18250 0.12500
H 	H 	0.04210 0.07640 0.23810 0.12100
C 	C 	0.21661 0.20600 0.54046 0.12300
C 	C 	0.14250 0.18350 0.44541 0.09400
H 	H 	0.13640 0.20640 0.43130 -0.05600
C 	C 	0.11460 0.12149 0.43150 0.20000
C 	C 	0.16280 0.11504 0.48490 -0.23100
H 	H 	0.17200 0.09200 0.49780 0.09800
C 	C 	0.18682 0.17739 0.50043 -0.17400
C 	C 	0.19710 0.14264 0.51901 0.10100
H 	H 	0.22780 0.13790 0.55520 -0.05500
C 	C 	0.10720 0.15594 0.41124 -0.22900
H 	H 	0.07820 0.16050 0.37440 0.09500
C 	C 	0.28093 0.23466 0.61314 0.11700
C 	C 	0.33512 0.24495 0.66643 -0.18000
C 	C 	0.37530 0.21982 0.70402 0.08700
H 	H 	0.37070 0.19620 0.69380 -0.06100
C 	C 	0.42230 0.22964 0.75650 -0.22200
H 	H 	0.44910 0.21250 0.78080 0.07500
C 	C 	0.34290 0.28005 0.68392 0.09800
H 	H 	0.31650 0.29730 0.65970 -0.05900
C 	C 	0.42970 0.26477 0.77310 0.19500
C 	C 	0.38930 0.28988 0.73680 -0.24200
H 	H 	0.39310 0.31340 0.74760 0.10300
C 	C 	0.61014 0.90500 0.38766 0.12400
C 	C 	0.67420 0.91545 0.37584 -0.19300
C 	C 	0.70150 0.89599 0.34150 0.11100
H 	H 	0.67730 0.87610 0.32330 -0.05100
C 	C 	0.76420 0.90555 0.33370 -0.25000
H 	H 	0.78150 0.89230 0.31000 0.10000
C 	C 	0.71150 0.94517 0.40210 0.10900
H 	H 	0.69380 0.95890 0.42510 -0.06000
C 	C 	0.80120 0.93451 0.36070 0.21700
C 	C 	0.77390 0.95456 0.39480 -0.24800
H 	H 	0.79810 0.97450 0.41270 0.09700
C 	C 	0.51485 0.90742 0.40934 0.14700
C 	C 	0.45740 0.95674 0.44260 0.16200
H 	H 	0.49440 0.97130 0.44170 -0.08600
C 	C 	0.40520 0.97024 0.46030 -0.29100
H 	H 	0.40790 0.99360 0.47190 0.11800
C 	C 	0.45670 0.92146 0.42600 -0.21200
C 	C 	0.40230 0.90078 0.43050 0.15500
H 	H 	0.40180 0.87690 0.42220 -0.07100
C 	C 	0.34880 0.91447 0.44680 -0.28200
H 	H 	0.31200 0.90000 0.44840 0.12100
C 	C 	0.34910 0.95009 0.46120 0.24200
C 	C 	0.72505 0.14308 0.41061 -0.19300
C 	C 	0.76110 0.15567 0.46396 0.10700
H 	H 	0.75710 0.17930 0.47200 -0.05000
C 	C 	0.73140 0.10781 0.40080 0.11800
H 	H 	0.70630 0.09840 0.36550 -0.06000
C 	C 	0.68159 0.16685 0.36568 0.12900
C 	C 	0.80320 0.13373 0.50600 -0.25100
H 	H 	0.82630 0.14280 0.54180 0.10100
C 	C 	0.77470 0.08588 0.44250 -0.25300
H 	H 	0.77910 0.06220 0.43470 0.09800
C 	C 	0.81110 0.09915 0.49540 0.21400
C 	C 	0.64846 0.24409 0.27879 -0.18300
C 	C 	0.69940 0.25112 0.25408 0.09400
H 	H 	0.73720 0.23570 0.25950 -0.05200
C 	C 	0.69450 0.28083 0.22160 -0.24800
H 	H 	0.72960 0.28540 0.20580 0.10100
C 	C 	0.59334 0.26818 0.27072 0.09400
H 	H 	0.55920 0.26420 0.28780 -0.03700
C 	C 	0.64942 0.21131 0.30986 0.13000
C 	C 	0.63820 0.30410 0.21192 0.21100
C 	C 	0.58870 0.29756 0.23808 -0.23700
H 	H 	0.55170 0.31340 0.23350 0.09400
C 	C 	0.59305 0.02926 0.30547 0.12200
C 	C 	0.63370 0.00665 0.28027 -0.18600
C 	C 	0.60710 0.97462 0.25441 0.09800
H 	H 	0.56470 0.96590 0.25690 -0.07000
C 	C 	0.70540 0.96775 0.22150 0.21700
C 	C 	0.69790 0.01806 0.27730 0.10300
H 	H 	0.71710 0.03910 0.29480 -0.04300
C 	C 	0.64260 0.95572 0.22530 -0.25300
H 	H 	0.62370 0.93460 0.20800 0.09500
C 	C 	0.73380 0.99900 0.24900 -0.24300
H 	H 	0.77730 0.00700 0.24820 0.10100
C 	C 	0.41430 0.03803 0.36791 0.07100
H 	H 	0.40600 0.01910 0.34310 -0.02700
C 	C 	0.43820 0.09386 0.44196 -0.23000
H 	H 	0.44680 0.11280 0.46680 0.09800
C 	C 	0.47780 0.05616 0.38126 -0.18800
C 	C 	0.52730 0.05054 0.35052 0.10800
C 	C 	0.48860 0.08430 0.41932 0.09200
H 	H 	0.53100 0.09670 0.42930 -0.04400
C 	C 	0.37460 0.07598 0.42890 0.20400
C 	C 	0.36330 0.04763 0.39070 -0.23200
H 	H 	0.32080 0.03530 0.38080 0.09800
C 	C 	0.96186 0.19243 0.45944 -0.18400
C 	C 	0.01260 0.18378 0.51122 0.11900
H 	H 	0.03710 0.20170 0.53490 -0.06600
C 	C 	0.92660 0.16477 0.42530 0.12000
H 	H 	0.89220 0.16960 0.39070 -0.06700
C 	C 	0.94200 0.13004 0.44220 -0.25400
H 	H 	0.91810 0.11190 0.41850 0.10500
C 	C 	0.94686 0.22917 0.44176 0.13500
C 	C 	0.02700 0.14928 0.52809 -0.27000
H 	H 	0.06040 0.14430 0.56310 0.10900
C 	C 	0.99240 0.12193 0.49360 0.24700
C 	C 	0.89187 0.27651 0.40388 0.12800
C 	C 	0.77060 0.30016 0.38546 0.11300
H 	H 	0.76300 0.28260 0.40860 -0.06300
C 	C 	0.71820 0.32446 0.36200 -0.24500
H 	H 	0.67580 0.32320 0.36950 0.10000
C 	C 	0.72800 0.35088 0.32710 0.21800
C 	C 	0.79070 0.35170 0.31550 -0.24700
H 	H 	0.79750 0.36890 0.29130 0.10000
C 	C 	0.84370 0.32731 0.33916 0.11300
H 	H 	0.88550 0.32830 0.33080 -0.05800
C 	C 	0.83480 0.30139 0.37535 -0.19200
C 	C 	0.33379 0.14709 0.31365 0.13800
C 	C 	0.26079 0.13409 0.28946 -0.17700
C 	C 	0.23670 0.12434 0.23360 0.09300
H 	H 	0.26370 0.12980 0.21080 -0.05700
C 	C 	0.21960 0.12734 0.32250 0.09500
H 	H 	0.23450 0.13420 0.36030 -0.02500
C 	C 	0.17340 0.10658 0.21050 -0.25400
H 	H 	0.15870 0.09990 0.17270 0.10000
C 	C 	0.13310 0.09880 0.24180 0.20100
C 	C 	0.15510 0.11010 0.29870 -0.22900
H 	H 	0.12630 0.10600 0.32050 0.09700
C 	C 	0.48231 0.20008 0.39066 -0.18700
C 	C 	0.47410 0.23533 0.37535 0.04900
H 	H 	0.43190 0.24290 0.34890 -0.03000
C 	C 	0.52740 0.25925 0.39870 -0.22400
H 	H 	0.52140 0.28270 0.38750 0.09400
C 	C 	0.59770 0.21374 0.45560 -0.22600
H 	H 	0.63920 0.20640 0.48320 0.09200
C 	C 	0.59010 0.24842 0.43890 0.18700
C 	C 	0.42949 0.17419 0.35834 0.11000
C 	C 	0.54410 0.18944 0.43148 0.07100
H 	H 	0.55000 0.16600 0.44290 -0.03800
Cu	Cu	0.03862 0.62826 0.33194 0.76300
Cu	Cu	0.05307 0.47457 0.36771 0.82400
Cu	Cu	0.59299 0.75492 0.49668 0.81700
Cu	Cu	0.29501 0.71825 0.38115 0.82700
Cu	Cu	0.50632 0.82893 0.43230 0.81600
Cu	Cu	0.81689 0.70606 0.38772 0.83600
Cu	Cu	0.65240 0.83111 0.41289 0.81800
Cu	Cu	0.10894 0.59461 0.24641 0.77800
Cl	Cl	0.62511 0.81878 0.50801 -0.79500
N 	N 	0.05001 0.57761 0.32769 -0.28000
N 	N 	0.05345 0.51954 0.33807 -0.28800
N 	N 	0.09168 0.56401 0.29842 -0.26700
N 	N 	0.77892 0.70439 0.58383 -0.28400
N 	N 	0.72380 0.75430 0.58884 -0.24300
N 	N 	0.68248 0.73586 0.54170 -0.24500
N 	N 	0.49476 0.75470 0.45230 -0.25200
N 	N 	0.45916 0.78523 0.42799 -0.25400
N 	N 	0.38139 0.74166 0.41097 -0.28600
N 	N 	0.03335 0.37366 0.41133 -0.24700
N 	N 	0.09498 0.37230 0.39766 -0.25400
N 	N 	0.06059 0.42790 0.39329 -0.28900
N 	N 	0.88571 0.63065 0.30241 -0.27100
N 	N 	0.94739 0.64820 0.33095 -0.27300
N 	N 	0.85883 0.67458 0.34934 -0.27600
N 	N 	0.20605 0.69759 0.35092 -0.29000
N 	N 	0.11407 0.66187 0.33571 -0.27000
N 	N 	0.09328 0.69056 0.29996 -0.27300
N 	N 	0.17580 0.87594 0.30510 -0.32900
H 	H 	0.18210 0.89240 0.28380 0.13400
H 	H 	0.13710 0.87500 0.31280 0.13100
N 	N 	0.13150 0.83296 0.17670 -0.32700
H 	H 	0.09620 0.84710 0.17090 0.13100
H 	H 	0.16270 0.83680 0.16060 0.13600
N 	N 	0.82490 0.58509 0.45360 -0.33300
H 	H 	0.83330 0.60210 0.47750 0.15400
H 	H 	0.78560 0.57370 0.44510 0.14100
N 	N 	0.24130 0.44838 0.19210 -0.33100
H 	H 	0.22400 0.42880 0.17630 0.14600
H 	H 	0.28070 0.45600 0.18990 0.13600
N 	N 	0.14560 0.77246 0.46180 -0.31900
H 	H 	0.18460 0.76550 0.48640 0.11200
H 	H 	0.14070 0.79410 0.45120 0.13200
N 	N 	0.57630 0.59373 0.39850 -0.32200
H 	H 	0.58250 0.57250 0.41140 0.13000
H 	H 	0.54650 0.59790 0.36550 0.13200
N 	N 	0.50910 0.58717 0.50960 -0.32900
H 	H 	0.54120 0.58250 0.54130 0.13900
H 	H 	0.48720 0.57030 0.48780 0.13300
N 	N 	0.97810 0.77396 0.82569 -0.30700
H 	H 	0.98330 0.79570 0.83600 0.13600
H 	H 	0.00280 0.75790 0.84770 0.10700
N 	N 	0.35210 0.57704 0.53860 -0.32700
H 	H 	0.37250 0.58530 0.57200 0.13200
H 	H 	0.35700 0.55520 0.53170 0.12700
N 	N 	0.36650 0.44282 0.35550 -0.32700
H 	H 	0.38380 0.42980 0.33530 0.13000
H 	H 	0.38950 0.46100 0.37250 0.13000
N 	N 	0.79530 0.46480 0.47720 -0.33700
H 	H 	0.79720 0.48670 0.48650 0.13100
H 	H 	0.76000 0.45210 0.47770 0.14500
N 	N 	0.56800 0.58130 0.21770 -0.32100
H 	H 	0.55410 0.57550 0.18250 0.12700
H 	H 	0.54210 0.57640 0.23810 0.12400
C 	C 	0.71661 0.70600 0.54046 0.12300
C 	C 	0.64250 0.68350 0.44541 0.09600
H 	H 	0.63640 0.70640 0.43130 -0.05600
C 	C 	0.61460 0.62149 0.43150 0.20300
C 	C 	0.66280 0.61504 0.48490 -0.23200
H 	H 	0.67200 0.59200 0.49780 0.09900
C 	C 	0.68682 0.67739 0.50043 -0.17500
C 	C 	0.69710 0.64264 0.51901 0.10200
H 	H 	0.72780 0.63790 0.55520 -0.05500
C 	C 	0.60720 0.65594 0.41124 -0.23000
H 	H 	0.57820 0.66050 0.37440 0.09700
C 	C 	0.78093 0.73466 0.61314 0.11700
C 	C 	0.83512 0.74495 0.66643 -0.18000
C 	C 	0.87530 0.71982 0.70402 0.08700
H 	H 	0.87070 0.69620 0.69380 -0.06100
C 	C 	0.92230 0.72964 0.75650 -0.22100
H 	H 	0.94910 0.71250 0.78080 0.07800
C 	C 	0.84290 0.78005 0.68392 0.09800
H 	H 	0.81650 0.79730 0.65970 -0.05900
C 	C 	0.92970 0.76477 0.77310 0.19600
C 	C 	0.88930 0.78988 0.73680 -0.24100
H 	H 	0.89310 0.81340 0.74760 0.10400
C 	C 	0.11014 0.40500 0.38766 0.12300
C 	C 	0.17420 0.41545 0.37584 -0.19400
C 	C 	0.20150 0.39599 0.34150 0.11000
H 	H 	0.17730 0.37610 0.32330 -0.05200
C 	C 	0.26420 0.40555 0.33370 -0.25000
H 	H 	0.28150 0.39230 0.31000 0.10000
C 	C 	0.21150 0.44517 0.40210 0.10900
H 	H 	0.19380 0.45890 0.42510 -0.06000
C 	C 	0.30120 0.43451 0.36070 0.21700
C 	C 	0.27390 0.45456 0.39480 -0.24800
H 	H 	0.29810 0.47450 0.41270 0.09600
C 	C 	0.01485 0.40742 0.40934 0.13500
C 	C 	0.95740 0.45674 0.44260 0.15300
H 	H 	0.99440 0.47130 0.44170 -0.07800
C 	C 	0.90520 0.47024 0.46030 -0.28200
H 	H 	0.90790 0.49360 0.47190 0.11600
C 	C 	0.95670 0.42146 0.42600 -0.19600
C 	C 	0.90230 0.40078 0.43050 0.14500
H 	H 	0.90180 0.37690 0.42220 -0.06600
C 	C 	0.84880 0.41447 0.44680 -0.27400
H 	H 	0.81200 0.40000 0.44840 0.11800
C 	C 	0.84910 0.45009 0.46120 0.23700
C 	C 	0.22505 0.64308 0.41061 -0.19300
C 	C 	0.26110 0.65567 0.46396 0.10600
H 	H 	0.25710 0.67930 0.47200 -0.05000
C 	C 	0.23140 0.60781 0.40080 0.11700
H 	H 	0.20630 0.59840 0.36550 -0.06000
C 	C 	0.18159 0.66685 0.36568 0.12900
C 	C 	0.30320 0.63373 0.50600 -0.25000
H 	H 	0.32630 0.64280 0.54180 0.10000
C 	C 	0.27470 0.58588 0.44250 -0.25300
H 	H 	0.27910 0.56220 0.43470 0.09800
C 	C 	0.31110 0.59915 0.49540 0.21300
C 	C 	0.14846 0.74409 0.27879 -0.18300
C 	C 	0.19940 0.75112 0.25408 0.09300
H 	H 	0.23720 0.73570 0.25950 -0.05100
C 	C 	0.19450 0.78083 0.22160 -0.24800
H 	H 	0.22960 0.78540 0.20580 0.10100
C 	C 	0.09334 0.76818 0.27072 0.09400
H 	H 	0.05920 0.76420 0.28780 -0.03800
C 	C 	0.14942 0.71131 0.30986 0.12900
C 	C 	0.13820 0.80410 0.21192 0.21000
C 	C 	0.08870 0.79756 0.23808 -0.23700
H 	H 	0.05170 0.81340 0.23350 0.09200
C 	C 	0.09305 0.52926 0.30547 0.12200
C 	C 	0.13370 0.50665 0.28027 -0.18600
C 	C 	0.10710 0.47462 0.25441 0.09800
H 	H 	0.06470 0.46590 0.25690 -0.07200
C 	C 	0.20540 0.46775 0.22150 0.21700
C 	C 	0.19790 0.51806 0.27730 0.10300
H 	H 	0.21710 0.53910 0.29480 -0.04300
C 	C 	0.14260 0.45572 0.22530 -0.25400
H 	H 	0.12370 0.43460 0.20800 0.09500
C 	C 	0.23380 0.49900 0.24900 -0.24300
H 	H 	0.27730 0.50700 0.24820 0.10000
C 	C 	0.91430 0.53803 0.36791 0.07300
H 	H 	0.90600 0.51910 0.34310 -0.02700
C 	C 	0.93820 0.59386 0.44196 -0.24200
H 	H 	0.94680 0.61280 0.46680 0.10400
C 	C 	0.97780 0.55616 0.38126 -0.18700
C 	C 	0.02730 0.55054 0.35052 0.10200
C 	C 	0.98860 0.58430 0.41932 0.11400
H 	H 	0.03100 0.59670 0.42930 -0.05700
C 	C 	0.87460 0.57598 0.42890 0.21000
C 	C 	0.86330 0.54763 0.39070 -0.23500
H 	H 	0.82080 0.53530 0.38080 0.09900
C 	C 	0.46186 0.69243 0.45944 -0.19000
C 	C 	0.51260 0.68378 0.51122 0.12200
H 	H 	0.53710 0.70170 0.53490 -0.06500
C 	C 	0.42660 0.66477 0.42530 0.11500
H 	H 	0.39220 0.66960 0.39070 -0.06500
C 	C 	0.44200 0.63004 0.44220 -0.24400
H 	H 	0.41810 0.61190 0.41850 0.10100
C 	C 	0.44686 0.72917 0.44176 0.13500
C 	C 	0.52700 0.64928 0.52809 -0.25100
H 	H 	0.56040 0.64430 0.56310 0.10400
C 	C 	0.49240 0.62193 0.49360 0.22300
C 	C 	0.39187 0.77651 0.40388 0.12800
C 	C 	0.27060 0.80016 0.38546 0.11300
H 	H 	0.26300 0.78260 0.40860 -0.06400
C 	C 	0.21820 0.82446 0.36200 -0.24500
H 	H 	0.17580 0.82320 0.36950 0.10000
C 	C 	0.22800 0.85088 0.32710 0.21800
C 	C 	0.29070 0.85170 0.31550 -0.24800
H 	H 	0.29750 0.86890 0.29130 0.10000
C 	C 	0.34370 0.82731 0.33916 0.11400
H 	H 	0.38550 0.82830 0.33080 -0.05900
C 	C 	0.33480 0.80139 0.37535 -0.19300
C 	C 	0.83379 0.64709 0.31365 0.13900
C 	C 	0.76079 0.63409 0.28946 -0.17800
C 	C 	0.73670 0.62434 0.23360 0.09400
H 	H 	0.76370 0.62980 0.21080 -0.05700
C 	C 	0.71960 0.62734 0.32250 0.09600
H 	H 	0.73450 0.63420 0.36030 -0.02500
C 	C 	0.67340 0.60658 0.21050 -0.25400
H 	H 	0.65870 0.59990 0.17270 0.10100
C 	C 	0.63310 0.59880 0.24180 0.20300
C 	C 	0.65510 0.61010 0.29870 -0.22900
H 	H 	0.62630 0.60600 0.32050 0.09800
C 	C 	0.98231 0.70008 0.39066 -0.17900
C 	C 	0.97410 0.73533 0.37535 0.06100
H 	H 	0.93190 0.74290 0.34890 -0.03300
C 	C 	0.02740 0.75925 0.39870 -0.23700
H 	H 	0.02140 0.78270 0.38750 0.09600
C 	C 	0.09770 0.71374 0.45560 -0.22400
H 	H 	0.13920 0.70640 0.48320 0.09100
C 	C 	0.09010 0.74842 0.43890 0.18900
C 	C 	0.92949 0.67419 0.35834 0.11000
C 	C 	0.04410 0.68944 0.43148 0.05900
H 	H 	0.05000 0.66600 0.44290 -0.03600
Cu	Cu	0.46138 0.12826 0.16806 0.76500
Cu	Cu	0.44693 0.97457 0.13229 0.82600
Cu	Cu	0.90701 0.25492 0.00332 0.81800
Cu	Cu	0.20499 0.21825 0.11885 0.82800
Cu	Cu	0.99368 0.32893 0.06770 0.81900
Cu	Cu	0.68311 0.20606 0.11228 0.83600
Cu	Cu	0.84760 0.33111 0.08711 0.81900
Cu	Cu	0.39106 0.09461 0.25359 0.77900
Cl	Cl	0.87489 0.31878 0.99199 -0.79300
N 	N 	0.44999 0.07761 0.17231 -0.28000
N 	N 	0.44655 0.01954 0.16193 -0.28800
N 	N 	0.40832 0.06401 0.20158 -0.26700
N 	N 	0.72108 0.20439 0.91617 -0.28400
N 	N 	0.77620 0.25430 0.91116 -0.24300
N 	N 	0.81752 0.23586 0.95830 -0.24500
N 	N 	0.00524 0.25470 0.04770 -0.25400
N 	N 	0.04084 0.28523 0.07201 -0.25600
N 	N 	0.11861 0.24166 0.08903 -0.28600
N 	N 	0.46665 0.87366 0.08867 -0.24700
N 	N 	0.40502 0.87230 0.10234 -0.25400
N 	N 	0.43941 0.92790 0.10671 -0.28900
N 	N 	0.61429 0.13065 0.19759 -0.27100
N 	N 	0.55261 0.14820 0.16905 -0.27600
N 	N 	0.64117 0.17458 0.15066 -0.27700
N 	N 	0.29395 0.19759 0.14908 -0.29000
N 	N 	0.38593 0.16187 0.16429 -0.27000
N 	N 	0.40672 0.19056 0.20004 -0.27200
N 	N 	0.32420 0.37594 0.19490 -0.33000
H 	H 	0.31790 0.39240 0.21620 0.13500
H 	H 	0.36290 0.37500 0.18720 0.13300
N 	N 	0.36850 0.33296 0.32330 -0.32700
H 	H 	0.40380 0.34710 0.32910 0.13200
H 	H 	0.33730 0.33680 0.33940 0.13600
N 	N 	0.67510 0.08509 0.04640 -0.33200
H 	H 	0.66670 0.10210 0.02250 0.15300
H 	H 	0.71440 0.07370 0.05490 0.14100
N 	N 	0.25870 0.94838 0.30790 -0.33100
H 	H 	0.27600 0.92880 0.32370 0.14600
H 	H 	0.21930 0.95600 0.31010 0.13600
N 	N 	0.35440 0.27246 0.03820 -0.31900
H 	H 	0.31540 0.26550 0.01360 0.11300
H 	H 	0.35930 0.29410 0.04880 0.13300
N 	N 	0.92370 0.09373 0.10150 -0.32300
H 	H 	0.91750 0.07250 0.08860 0.13100
H 	H 	0.95350 0.09790 0.13450 0.13500
N 	N 	0.99090 0.08717 0.99040 -0.31400
H 	H 	0.95880 0.08250 0.95870 0.13800
H 	H 	0.01280 0.07030 0.01220 0.12400
N 	N 	0.52190 0.27396 0.67431 -0.31700
H 	H 	0.51670 0.29570 0.66400 0.13500
H 	H 	0.49720 0.25790 0.65230 0.11800
N 	N 	0.14790 0.07704 0.96140 -0.33000
H 	H 	0.12750 0.08530 0.92800 0.13100
H 	H 	0.14300 0.05520 0.96830 0.12600
N 	N 	0.13350 0.94282 0.14450 -0.32700
H 	H 	0.11620 0.92980 0.16470 0.12900
H 	H 	0.11050 0.96100 0.12750 0.12800
N 	N 	0.70470 0.96480 0.02280 -0.33800
H 	H 	0.70280 0.98670 0.01350 0.13100
H 	H 	0.74000 0.95210 0.02230 0.14600
N 	N 	0.93200 0.08130 0.28230 -0.32200
H 	H 	0.94590 0.07550 0.31750 0.12900
H 	H 	0.95790 0.07640 0.26190 0.12700
C 	C 	0.78339 0.20600 0.95954 0.12400
C 	C 	0.85750 0.18350 0.05459 0.09600
H 	H 	0.86360 0.20640 0.06870 -0.05500
C 	C 	0.88540 0.12149 0.06850 0.20500
C 	C 	0.83720 0.11504 0.01510 -0.23400
H 	H 	0.82800 0.09200 0.00220 0.10000
C 	C 	0.81318 0.17739 0.99957 -0.17500
C 	C 	0.80290 0.14264 0.98099 0.10400
H 	H 	0.77220 0.13790 0.94480 -0.05600
C 	C 	0.89280 0.15594 0.08876 -0.23000
H 	H 	0.92180 0.16050 0.12560 0.09900
C 	C 	0.71907 0.23466 0.88686 0.11700
C 	C 	0.66488 0.24495 0.83357 -0.18000
C 	C 	0.62470 0.21982 0.79598 0.08700
H 	H 	0.62930 0.19620 0.80620 -0.06100
C 	C 	0.57770 0.22964 0.74350 -0.22200
H 	H 	0.55090 0.21250 0.71920 0.07500
C 	C 	0.65710 0.28005 0.81608 0.09800
H 	H 	0.68350 0.29730 0.84030 -0.05900
C 	C 	0.57030 0.26477 0.72690 0.19500
C 	C 	0.61070 0.28988 0.76320 -0.24200
H 	H 	0.60690 0.31340 0.75240 0.10300
C 	C 	0.38986 0.90500 0.11234 0.12400
C 	C 	0.32580 0.91545 0.12416 -0.19300
C 	C 	0.29850 0.89599 0.15850 0.11000
H 	H 	0.32270 0.87610 0.17670 -0.05100
C 	C 	0.23580 0.90555 0.16630 -0.24900
H 	H 	0.21850 0.89230 0.19000 0.09900
C 	C 	0.28850 0.94517 0.09790 0.10800
H 	H 	0.30620 0.95890 0.07490 -0.06000
C 	C 	0.19880 0.93451 0.13930 0.21500
C 	C 	0.22610 0.95456 0.10520 -0.24700
H 	H 	0.20190 0.97450 0.08730 0.09600
C 	C 	0.48515 0.90742 0.09066 0.14700
C 	C 	0.54260 0.95674 0.05740 0.16200
H 	H 	0.50560 0.97130 0.05830 -0.08500
C 	C 	0.59480 0.97024 0.03970 -0.29100
H 	H 	0.59210 0.99360 0.02810 0.11800
C 	C 	0.54330 0.92146 0.07400 -0.21200
C 	C 	0.59770 0.90078 0.06950 0.15500
H 	H 	0.59820 0.87690 0.07780 -0.07100
C 	C 	0.65120 0.91447 0.05320 -0.28200
H 	H 	0.68800 0.90000 0.05160 0.12100
C 	C 	0.65090 0.95009 0.03880 0.24300
C 	C 	0.27495 0.14308 0.08939 -0.19900
C 	C 	0.23890 0.15567 0.03604 0.11800
H 	H 	0.24290 0.17930 0.02800 -0.05300
C 	C 	0.26860 0.10781 0.09920 0.12400
H 	H 	0.29370 0.09840 0.13450 -0.06200
C 	C 	0.31841 0.16685 0.13432 0.13100
C 	C 	0.19680 0.13373 0.99400 -0.26500
H 	H 	0.17370 0.14280 0.95820 0.10400
C 	C 	0.22530 0.08588 0.05750 -0.26000
H 	H 	0.22090 0.06220 0.06530 0.10100
C 	C 	0.18890 0.09915 0.00460 0.22400
C 	C 	0.35154 0.24409 0.22121 -0.18300
C 	C 	0.30060 0.25112 0.24592 0.09400
H 	H 	0.26280 0.23570 0.24050 -0.05200
C 	C 	0.30550 0.28083 0.27840 -0.24800
H 	H 	0.27040 0.28540 0.29420 0.10100
C 	C 	0.40666 0.26818 0.22928 0.09400
H 	H 	0.44080 0.26420 0.21220 -0.03700
C 	C 	0.35058 0.21131 0.19014 0.13000
C 	C 	0.36180 0.30410 0.28808 0.21100
C 	C 	0.41130 0.29756 0.26192 -0.23700
H 	H 	0.44830 0.31340 0.26650 0.09400
C 	C 	0.40695 0.02926 0.19453 0.12200
C 	C 	0.36630 0.00665 0.21973 -0.18500
C 	C 	0.39290 0.97462 0.24559 0.09800
H 	H 	0.43530 0.96590 0.24310 -0.07000
C 	C 	0.29460 0.96775 0.27850 0.21700
C 	C 	0.30210 0.01806 0.22270 0.10200
H 	H 	0.28290 0.03910 0.20520 -0.04300
C 	C 	0.35740 0.95572 0.27470 -0.25300
H 	H 	0.37630 0.93460 0.29200 0.09500
C 	C 	0.26620 0.99900 0.25100 -0.24300
H 	H 	0.22270 0.00700 0.25180 0.10000
C 	C 	0.58570 0.03803 0.13209 0.07100
H 	H 	0.59400 0.01910 0.15690 -0.02700
C 	C 	0.56180 0.09386 0.05804 -0.23000
H 	H 	0.55320 0.11280 0.03320 0.09900
C 	C 	0.52220 0.05616 0.11874 -0.18800
C 	C 	0.47270 0.05054 0.14948 0.10800
C 	C 	0.51140 0.08430 0.08068 0.09200
H 	H 	0.46900 0.09670 0.07070 -0.04400
C 	C 	0.62540 0.07598 0.07110 0.20400
C 	C 	0.63670 0.04763 0.10930 -0.23200
H 	H 	0.67920 0.03530 0.11920 0.09800
C 	C 	0.03814 0.19243 0.04056 -0.19500
C 	C 	0.98740 0.18378 0.98878 0.12600
H 	H 	0.96290 0.20170 0.96510 -0.06300
C 	C 	0.07340 0.16477 0.07470 0.11100
H 	H 	0.10780 0.16960 0.10930 -0.06400
C 	C 	0.05800 0.13004 0.05780 -0.23500
H 	H 	0.08190 0.11190 0.08150 0.09700
C 	C 	0.05314 0.22917 0.05824 0.13500
C 	C 	0.97300 0.14928 0.97191 -0.23500
H 	H 	0.93960 0.14430 0.93690 0.10000
C 	C 	0.00760 0.12193 0.00640 0.20400
C 	C 	0.10813 0.27651 0.09612 0.12800
C 	C 	0.22940 0.30016 0.11454 0.11400
H 	H 	0.23700 0.28260 0.09140 -0.06400
C 	C 	0.28180 0.32446 0.13800 -0.24600
H 	H 	0.32420 0.32320 0.13050 0.10000
C 	C 	0.27200 0.35088 0.17290 0.21900
C 	C 	0.20930 0.35170 0.18450 -0.24900
H 	H 	0.20250 0.36890 0.20870 0.10000
C 	C 	0.15630 0.32731 0.16084 0.11400
H 	H 	0.11450 0.32830 0.16920 -0.06100
C 	C 	0.16520 0.30139 0.12465 -0.19400
C 	C 	0.66621 0.14709 0.18635 0.13900
C 	C 	0.73921 0.13409 0.21054 -0.17800
C 	C 	0.76330 0.12434 0.26640 0.09500
H 	H 	0.73630 0.12980 0.28920 -0.05700
C 	C 	0.78040 0.12734 0.17750 0.09700
H 	H 	0.76550 0.13420 0.13970 -0.02500
C 	C 	0.82660 0.10658 0.28950 -0.25600
H 	H 	0.84130 0.09990 0.32730 0.10100
C 	C 	0.86690 0.09880 0.25820 0.20500
C 	C 	0.84490 0.11010 0.20130 -0.23000
H 	H 	0.87370 0.10600 0.17950 0.09900
C 	C 	0.51769 0.20008 0.10934 -0.18700
C 	C 	0.52590 0.23533 0.12465 0.04900
H 	H 	0.56810 0.24290 0.15110 -0.03000
C 	C 	0.47260 0.25925 0.10130 -0.22400
H 	H 	0.47860 0.28270 0.11250 0.09500
C 	C 	0.40230 0.21374 0.04440 -0.22700
H 	H 	0.36080 0.20640 0.01680 0.09200
C 	C 	0.40990 0.24842 0.06110 0.18800
C 	C 	0.57051 0.17419 0.14166 0.11000
C 	C 	0.45590 0.18944 0.06852 0.07100
H 	H 	0.45000 0.16600 0.05710 -0.03800
Cu	Cu	0.96138 0.62826 0.16806 0.76800
Cu	Cu	0.94693 0.47457 0.13229 0.82800
Cu	Cu	0.40701 0.75492 0.00332 0.81700
Cu	Cu	0.70499 0.71825 0.11885 0.82700
Cu	Cu	0.49368 0.82893 0.06770 0.81600
Cu	Cu	0.18311 0.70606 0.11228 0.83600
Cu	Cu	0.34760 0.83111 0.08711 0.81900
Cu	Cu	0.89106 0.59461 0.25359 0.78000
Cl	Cl	0.37489 0.81878 0.99199 -0.79600
N 	N 	0.94999 0.57761 0.17231 -0.27900
N 	N 	0.94655 0.51954 0.16193 -0.28700
N 	N 	0.90832 0.56401 0.20158 -0.26600
N 	N 	0.22108 0.70439 0.91617 -0.28400
N 	N 	0.27620 0.75430 0.91116 -0.24400
N 	N 	0.31752 0.73586 0.95830 -0.24600
N 	N 	0.50524 0.75470 0.04770 -0.25100
N 	N 	0.54084 0.78523 0.07201 -0.25400
N 	N 	0.61861 0.74166 0.08903 -0.28600
N 	N 	0.96665 0.37366 0.08867 -0.24800
N 	N 	0.90502 0.37230 0.10234 -0.25400
N 	N 	0.93941 0.42790 0.10671 -0.29000
N 	N 	0.11429 0.63065 0.19759 -0.27100
N 	N 	0.05261 0.64820 0.16905 -0.27800
N 	N 	0.14117 0.67458 0.15066 -0.27700
N 	N 	0.79395 0.69759 0.14908 -0.29000
N 	N 	0.88593 0.66187 0.16429 -0.26900
N 	N 	0.90672 0.69056 0.20004 -0.27000
N 	N 	0.82420 0.87594 0.19490 -0.33000
H 	H 	0.81790 0.89240 0.21620 0.13500
H 	H 	0.86290 0.87500 0.18720 0.13400
N 	N 	0.86850 0.83296 0.32330 -0.32800
H 	H 	0.90380 0.84710 0.32910 0.13400
H 	H 	0.83730 0.83680 0.33940 0.13700
N 	N 	0.17510 0.58509 0.04640 -0.33100
H 	H 	0.16670 0.60210 0.02250 0.15400
H 	H 	0.21440 0.57370 0.05490 0.14100
N 	N 	0.75870 0.44838 0.30790 -0.33100
H 	H 	0.77600 0.42880 0.32370 0.14600
H 	H 	0.71930 0.45600 0.31010 0.13600
N 	N 	0.85440 0.77246 0.03820 -0.31800
H 	H 	0.81540 0.76550 0.01360 0.11200
H 	H 	0.85930 0.79410 0.04880 0.13300
N 	N 	0.42370 0.59373 0.10150 -0.32200
H 	H 	0.41750 0.57250 0.08860 0.13000
H 	H 	0.45350 0.59790 0.13450 0.13200
N 	N 	0.49090 0.58717 0.99040 -0.33000
H 	H 	0.45880 0.58250 0.95870 0.13900
H 	H 	0.51280 0.57030 0.01220 0.13400
N 	N 	0.02190 0.77396 0.67431 -0.32600
H 	H 	0.01670 0.79570 0.66400 0.13500
H 	H 	0.99720 0.75790 0.65230 0.12900
N 	N 	0.64790 0.57704 0.96140 -0.32700
H 	H 	0.62750 0.58530 0.92800 0.13200
H 	H 	0.64300 0.55520 0.96830 0.12700
N 	N 	0.63350 0.44282 0.14450 -0.32700
H 	H 	0.61620 0.42980 0.16470 0.13000
H 	H 	0.61050 0.46100 0.12750 0.13000
N 	N 	0.20470 0.46480 0.02280 -0.34000
H 	H 	0.20280 0.48670 0.01350 0.13200
H 	H 	0.24000 0.45210 0.02230 0.14700
N 	N 	0.43200 0.58130 0.28230 -0.32100
H 	H 	0.44590 0.57550 0.31750 0.12700
H 	H 	0.45790 0.57640 0.26190 0.12400
C 	C 	0.28339 0.70600 0.95954 0.12300
C 	C 	0.35750 0.68350 0.05459 0.09800
H 	H 	0.36360 0.70640 0.06870 -0.05600
C 	C 	0.38540 0.62149 0.06850 0.20200
C 	C 	0.33720 0.61504 0.01510 -0.22900
H 	H 	0.32800 0.59200 0.00220 0.09900
C 	C 	0.31318 0.67739 0.99957 -0.17600
C 	C 	0.30290 0.64264 0.98099 0.10000
H 	H 	0.27220 0.63790 0.94480 -0.05400
C 	C 	0.39280 0.65594 0.08876 -0.23000
H 	H 	0.42180 0.66050 0.12560 0.09700
C 	C 	0.21907 0.73466 0.88686 0.11700
C 	C 	0.16488 0.74495 0.83357 -0.18000
C 	C 	0.12470 0.71982 0.79598 0.08600
H 	H 	0.12930 0.69620 0.80620 -0.06200
C 	C 	0.07770 0.72964 0.74350 -0.22400
H 	H 	0.05090 0.71250 0.71920 0.07300
C 	C 	0.15710 0.78005 0.81608 0.09800
H 	H 	0.18350 0.79730 0.84030 -0.05900
C 	C 	0.07030 0.76477 0.72690 0.19500
C 	C 	0.11070 0.78988 0.76320 -0.24300
H 	H 	0.10690 0.81340 0.75240 0.10300
C 	C 	0.88986 0.40500 0.11234 0.12400
C 	C 	0.82580 0.41545 0.12416 -0.19300
C 	C 	0.79850 0.39599 0.15850 0.11000
H 	H 	0.82270 0.37610 0.17670 -0.05100
C 	C 	0.73580 0.40555 0.16630 -0.24900
H 	H 	0.71850 0.39230 0.19000 0.10000
C 	C 	0.78850 0.44517 0.09790 0.10800
H 	H 	0.80620 0.45890 0.07490 -0.06000
C 	C 	0.69880 0.43451 0.13930 0.21600
C 	C 	0.72610 0.45456 0.10520 -0.24700
H 	H 	0.70190 0.47450 0.08730 0.09600
C 	C 	0.98515 0.40742 0.09066 0.15700
C 	C 	0.04260 0.45674 0.05740 0.17000
H 	H 	0.00560 0.47130 0.05830 -0.09100
C 	C 	0.09480 0.47024 0.03970 -0.29800
H 	H 	0.09210 0.49360 0.02810 0.12000
C 	C 	0.04330 0.42146 0.07400 -0.22600
C 	C 	0.09770 0.40078 0.06950 0.16400
H 	H 	0.09820 0.37690 0.07780 -0.07600
C 	C 	0.15120 0.41447 0.05320 -0.28800
H 	H 	0.18800 0.40000 0.05160 0.12300
C 	C 	0.15090 0.45009 0.03880 0.24700
C 	C 	0.77495 0.64308 0.08939 -0.19200
C 	C 	0.73890 0.65567 0.03604 0.10500
H 	H 	0.74290 0.67930 0.02800 -0.04900
C 	C 	0.76860 0.60781 0.09920 0.11700
H 	H 	0.79370 0.59840 0.13450 -0.06000
C 	C 	0.81841 0.66685 0.13432 0.12900
C 	C 	0.69680 0.63373 0.99400 -0.24900
H 	H 	0.67370 0.64280 0.95820 0.09900
C 	C 	0.72530 0.58588 0.05750 -0.25200
H 	H 	0.72090 0.56220 0.06530 0.09800
C 	C 	0.68890 0.59915 0.00460 0.21300
C 	C 	0.85154 0.74409 0.22121 -0.18200
C 	C 	0.80060 0.75112 0.24592 0.09400
H 	H 	0.76280 0.73570 0.24050 -0.05200
C 	C 	0.80550 0.78083 0.27840 -0.24900
H 	H 	0.77040 0.78540 0.29420 0.10100
C 	C 	0.90666 0.76818 0.22928 0.09500
H 	H 	0.94080 0.76420 0.21220 -0.03500
C 	C 	0.85058 0.71131 0.19014 0.13000
C 	C 	0.86180 0.80410 0.28808 0.21200
C 	C 	0.91130 0.79756 0.26192 -0.23700
H 	H 	0.94830 0.81340 0.26650 0.09600
C 	C 	0.90695 0.52926 0.19453 0.12300
C 	C 	0.86630 0.50665 0.21973 -0.18500
C 	C 	0.89290 0.47462 0.24559 0.09800
H 	H 	0.93530 0.46590 0.24310 -0.06700
C 	C 	0.79460 0.46775 0.27850 0.21700
C 	C 	0.80210 0.51806 0.22270 0.10200
H 	H 	0.78290 0.53910 0.20520 -0.04300
C 	C 	0.85740 0.45572 0.27470 -0.25300
H 	H 	0.87630 0.43460 0.29200 0.09600
C 	C 	0.76620 0.49900 0.25100 -0.24200
H 	H 	0.72270 0.50700 0.25180 0.10000
C 	C 	0.08570 0.53803 0.13209 0.07000
H 	H 	0.09400 0.51910 0.15690 -0.02800
C 	C 	0.06180 0.59386 0.05804 -0.22200
H 	H 	0.05320 0.61280 0.03320 0.09400
C 	C 	0.02220 0.55616 0.11874 -0.19000
C 	C 	0.97270 0.55054 0.14948 0.11500
C 	C 	0.01140 0.58430 0.08068 0.07600
H 	H 	0.96900 0.59670 0.07070 -0.03400
C 	C 	0.12540 0.57598 0.07110 0.20100
C 	C 	0.13670 0.54763 0.10930 -0.23000
H 	H 	0.17920 0.53530 0.11920 0.09800
C 	C 	0.53814 0.69243 0.04056 -0.18900
C 	C 	0.48740 0.68378 0.98878 0.12200
H 	H 	0.46290 0.70170 0.96510 -0.06500
C 	C 	0.57340 0.66477 0.07470 0.11500
H 	H 	0.60780 0.66960 0.10930 -0.06500
C 	C 	0.55800 0.63004 0.05780 -0.24500
H 	H 	0.58190 0.61190 0.08150 0.10100
C 	C 	0.55314 0.72917 0.05824 0.13500
C 	C 	0.47300 0.64928 0.97191 -0.25300
H 	H 	0.43960 0.64430 0.93690 0.10500
C 	C 	0.50760 0.62193 0.00640 0.22500
C 	C 	0.60813 0.77651 0.09612 0.12800
C 	C 	0.72940 0.80016 0.11454 0.11400
H 	H 	0.73700 0.78260 0.09140 -0.06400
C 	C 	0.78180 0.82446 0.13800 -0.24600
H 	H 	0.82420 0.82320 0.13050 0.10100
C 	C 	0.77200 0.85088 0.17290 0.21900
C 	C 	0.70930 0.85170 0.18450 -0.24800
H 	H 	0.70250 0.86890 0.20870 0.10000
C 	C 	0.65630 0.82731 0.16084 0.11400
H 	H 	0.61450 0.82830 0.16920 -0.06000
C 	C 	0.66520 0.80139 0.12465 -0.19400
C 	C 	0.16621 0.64709 0.18635 0.13900
C 	C 	0.23921 0.63409 0.21054 -0.17800
C 	C 	0.26330 0.62434 0.26640 0.09400
H 	H 	0.23630 0.62980 0.28920 -0.05700
C 	C 	0.28040 0.62734 0.17750 0.09600
H 	H 	0.26550 0.63420 0.13970 -0.02500
C 	C 	0.32660 0.60658 0.28950 -0.25400
H 	H 	0.34130 0.59990 0.32730 0.10100
C 	C 	0.36690 0.59880 0.25820 0.20300
C 	C 	0.34490 0.61010 0.20130 -0.22900
H 	H 	0.37370 0.60600 0.17950 0.09800
C 	C 	0.01769 0.70008 0.10934 -0.19200
C 	C 	0.02590 0.73533 0.12465 0.03900
H 	H 	0.06810 0.74290 0.15110 -0.02700
C 	C 	0.97260 0.75925 0.10130 -0.21200
H 	H 	0.97860 0.78270 0.11250 0.09300
C 	C 	0.90230 0.71374 0.04440 -0.22800
H 	H 	0.86080 0.70640 0.01680 0.09200
C 	C 	0.90990 0.74842 0.06110 0.18500
C 	C 	0.07051 0.67419 0.14166 0.11100
C 	C 	0.95590 0.68944 0.06852 0.08000
H 	H 	0.95000 0.66600 0.05710 -0.03900
Cu	Cu	0.46138 0.87174 0.66806 0.76500
Cu	Cu	0.44693 0.02543 0.63229 0.82600
Cu	Cu	0.90701 0.74508 0.50332 0.81900
Cu	Cu	0.20499 0.78175 0.61885 0.82700
Cu	Cu	0.99368 0.67107 0.56770 0.82000
Cu	Cu	0.68311 0.79394 0.61228 0.83600
Cu	Cu	0.84760 0.66889 0.58711 0.81900
Cu	Cu	0.39106 0.90539 0.75359 0.77900
Cl	Cl	0.87489 0.68122 0.49199 -0.79400
N 	N 	0.44999 0.92239 0.67231 -0.28000
N 	N 	0.44655 0.98046 0.66193 -0.28800
N 	N 	0.40832 0.93599 0.70158 -0.26700
N 	N 	0.72108 0.79561 0.41617 -0.28400
N 	N 	0.77620 0.74570 0.41116 -0.24300
N 	N 	0.81752 0.76414 0.45830 -0.24500
N 	N 	0.00524 0.74530 0.54770 -0.25500
N 	N 	0.04084 0.71477 0.57201 -0.25700
N 	N 	0.11861 0.75834 0.58903 -0.28600
N 	N 	0.46665 0.12634 0.58867 -0.24800
N 	N 	0.40502 0.12770 0.60234 -0.25400
N 	N 	0.43941 0.07210 0.60671 -0.28900
N 	N 	0.61429 0.86935 0.69759 -0.27100
N 	N 	0.55261 0.85180 0.66905 -0.27600
N 	N 	0.64117 0.82542 0.65066 -0.27700
N 	N 	0.29395 0.80241 0.64908 -0.29000
N 	N 	0.38593 0.83813 0.66429 -0.26900
N 	N 	0.40672 0.80944 0.70004 -0.27200
N 	N 	0.32420 0.62406 0.69490 -0.33000
H 	H 	0.31790 0.60760 0.71620 0.13500
H 	H 	0.36290 0.62500 0.68720 0.13300
N 	N 	0.36850 0.66704 0.82330 -0.32700
H 	H 	0.40380 0.65290 0.82910 0.13200
H 	H 	0.33730 0.66320 0.83940 0.13600
N 	N 	0.67510 0.91491 0.54640 -0.33200
H 	H 	0.66670 0.89790 0.52250 0.15300
H 	H 	0.71440 0.92630 0.55490 0.14100
N 	N 	0.25870 0.05162 0.80790 -0.33100
H 	H 	0.27600 0.07120 0.82370 0.14500
H 	H 	0.21930 0.04400 0.81010 0.13500
N 	N 	0.35440 0.72754 0.53820 -0.31800
H 	H 	0.31540 0.73450 0.51360 0.11200
H 	H 	0.35930 0.70590 0.54880 0.13300
N 	N 	0.92370 0.90627 0.60150 -0.32300
H 	H 	0.91750 0.92750 0.58860 0.13200
H 	H 	0.95350 0.90210 0.63450 0.13600
N 	N 	0.99090 0.91283 0.49040 -0.31200
H 	H 	0.95880 0.91750 0.45870 0.13700
H 	H 	0.01280 0.92970 0.51220 0.12300
N 	N 	0.52190 0.72604 0.17431 -0.31700
H 	H 	0.51670 0.70430 0.16400 0.13500
H 	H 	0.49720 0.74210 0.15230 0.11800
N 	N 	0.14790 0.92296 0.46140 -0.32600
H 	H 	0.12750 0.91470 0.42800 0.13100
H 	H 	0.14300 0.94480 0.46830 0.12600
N 	N 	0.13350 0.05718 0.64450 -0.32600
H 	H 	0.11620 0.07020 0.66470 0.12800
H 	H 	0.11050 0.03900 0.62750 0.12800
N 	N 	0.70470 0.03520 0.52280 -0.33800
H 	H 	0.70280 0.01330 0.51350 0.13100
H 	H 	0.74000 0.04790 0.52230 0.14600
N 	N 	0.93200 0.91870 0.78230 -0.32200
H 	H 	0.94590 0.92450 0.81750 0.13000
H 	H 	0.95790 0.92360 0.76190 0.12800
C 	C 	0.78339 0.79400 0.45954 0.12400
C 	C 	0.85750 0.81650 0.55459 0.09800
H 	H 	0.86360 0.79360 0.56870 -0.05500
C 	C 	0.88540 0.87851 0.56850 0.20600
C 	C 	0.83720 0.88496 0.51510 -0.23300
H 	H 	0.82800 0.90800 0.50220 0.10000
C 	C 	0.81318 0.82261 0.49957 -0.17600
C 	C 	0.80290 0.85736 0.48099 0.10300
H 	H 	0.77220 0.86210 0.44480 -0.05500
C 	C 	0.89280 0.84406 0.58876 -0.23100
H 	H 	0.92180 0.83950 0.62560 0.09900
C 	C 	0.71907 0.76534 0.38686 0.11700
C 	C 	0.66488 0.75505 0.33357 -0.18000
C 	C 	0.62470 0.78018 0.29598 0.08700
H 	H 	0.62930 0.80380 0.30620 -0.06100
C 	C 	0.57770 0.77036 0.24350 -0.22200
H 	H 	0.55090 0.78750 0.21920 0.07500
C 	C 	0.65710 0.71995 0.31608 0.09800
H 	H 	0.68350 0.70270 0.34030 -0.05900
C 	C 	0.57030 0.73523 0.22690 0.19500
C 	C 	0.61070 0.71012 0.26320 -0.24200
H 	H 	0.60690 0.68660 0.25240 0.10300
C 	C 	0.38986 0.09500 0.61234 0.12300
C 	C 	0.32580 0.08455 0.62416 -0.19300
C 	C 	0.29850 0.10401 0.65850 0.11000
H 	H 	0.32270 0.12390 0.67670 -0.05100
C 	C 	0.23580 0.09445 0.66630 -0.24900
H 	H 	0.21850 0.10770 0.69000 0.09900
C 	C 	0.28850 0.05483 0.59790 0.10800
H 	H 	0.30620 0.04110 0.57490 -0.06000
C 	C 	0.19880 0.06549 0.63930 0.21500
C 	C 	0.22610 0.04544 0.60520 -0.24700
H 	H 	0.20190 0.02550 0.58730 0.09500
C 	C 	0.48515 0.09258 0.59066 0.14700
C 	C 	0.54260 0.04326 0.55740 0.16200
H 	H 	0.50560 0.02870 0.55830 -0.08600
C 	C 	0.59480 0.02976 0.53970 -0.29100
H 	H 	0.59210 0.00640 0.52810 0.11800
C 	C 	0.54330 0.07854 0.57400 -0.21300
C 	C 	0.59770 0.09922 0.56950 0.15500
H 	H 	0.59820 0.12310 0.57780 -0.07100
C 	C 	0.65120 0.08553 0.55320 -0.28200
H 	H 	0.68800 0.10000 0.55160 0.12100
C 	C 	0.65090 0.04991 0.53880 0.24300
C 	C 	0.27495 0.85692 0.58939 -0.19200
C 	C 	0.23890 0.84433 0.53604 0.10600
H 	H 	0.24290 0.82070 0.52800 -0.04900
C 	C 	0.26860 0.89219 0.59920 0.11700
H 	H 	0.29370 0.90160 0.63450 -0.06000
C 	C 	0.31841 0.83315 0.63432 0.12900
C 	C 	0.19680 0.86627 0.49400 -0.24900
H 	H 	0.17370 0.85720 0.45820 0.09900
C 	C 	0.22530 0.91412 0.55750 -0.25200
H 	H 	0.22090 0.93780 0.56530 0.09800
C 	C 	0.18890 0.90085 0.50460 0.21200
C 	C 	0.35154 0.75591 0.72121 -0.18300
C 	C 	0.30060 0.74888 0.74592 0.09400
H 	H 	0.26280 0.76430 0.74050 -0.05200
C 	C 	0.30550 0.71917 0.77840 -0.24800
H 	H 	0.27040 0.71460 0.79420 0.10100
C 	C 	0.40666 0.73182 0.72928 0.09400
H 	H 	0.44080 0.73580 0.71220 -0.03700
C 	C 	0.35058 0.78869 0.69014 0.13000
C 	C 	0.36180 0.69590 0.78808 0.21100
C 	C 	0.41130 0.70244 0.76192 -0.23700
H 	H 	0.44830 0.68660 0.76650 0.09400
C 	C 	0.40695 0.97074 0.69453 0.12200
C 	C 	0.36630 0.99335 0.71973 -0.18500
C 	C 	0.39290 0.02538 0.74559 0.09800
H 	H 	0.43530 0.03410 0.74310 -0.07000
C 	C 	0.29460 0.03225 0.77850 0.21700
C 	C 	0.30210 0.98194 0.72270 0.10200
H 	H 	0.28290 0.96090 0.70520 -0.04300
C 	C 	0.35740 0.04428 0.77470 -0.25300
H 	H 	0.37630 0.06540 0.79200 0.09500
C 	C 	0.26620 0.00100 0.75100 -0.24300
H 	H 	0.22270 0.99300 0.75180 0.10000
C 	C 	0.58570 0.96197 0.63209 0.07100
H 	H 	0.59400 0.98090 0.65690 -0.02700
C 	C 	0.56180 0.90614 0.55804 -0.23000
H 	H 	0.55320 0.88720 0.53320 0.09800
C 	C 	0.52220 0.94384 0.61874 -0.18800
C 	C 	0.47270 0.94946 0.64948 0.10800
C 	C 	0.51140 0.91570 0.58068 0.09200
H 	H 	0.46900 0.90330 0.57070 -0.04400
C 	C 	0.62540 0.92402 0.57110 0.20400
C 	C 	0.63670 0.95237 0.60930 -0.23200
H 	H 	0.67920 0.96470 0.61920 0.09800
C 	C 	0.03814 0.80757 0.54056 -0.19600
C 	C 	0.98740 0.81622 0.48878 0.12600
H 	H 	0.96290 0.79830 0.46510 -0.06300
C 	C 	0.07340 0.83523 0.57470 0.11000
H 	H 	0.10780 0.83040 0.60930 -0.06400
C 	C 	0.05800 0.86996 0.55780 -0.23400
H 	H 	0.08190 0.88810 0.58150 0.09700
C 	C 	0.05314 0.77083 0.55824 0.13500
C 	C 	0.97300 0.85072 0.47191 -0.23300
H 	H 	0.93960 0.85570 0.43690 0.09900
C 	C 	0.00760 0.87807 0.50640 0.20000
C 	C 	0.10813 0.72349 0.59612 0.12800
C 	C 	0.22940 0.69984 0.61454 0.11400
H 	H 	0.23700 0.71740 0.59140 -0.06400
C 	C 	0.28180 0.67554 0.63800 -0.24600
H 	H 	0.32420 0.67680 0.63050 0.10000
C 	C 	0.27200 0.64912 0.67290 0.21900
C 	C 	0.20930 0.64830 0.68450 -0.24900
H 	H 	0.20250 0.63110 0.70870 0.10000
C 	C 	0.15630 0.67269 0.66084 0.11500
H 	H 	0.11450 0.67170 0.66920 -0.06100
C 	C 	0.16520 0.69861 0.62465 -0.19400
C 	C 	0.66621 0.85291 0.68635 0.13900
C 	C 	0.73921 0.86591 0.71054 -0.17900
C 	C 	0.76330 0.87566 0.76640 0.09500
H 	H 	0.73630 0.87020 0.78920 -0.05700
C 	C 	0.78040 0.87266 0.67750 0.09700
H 	H 	0.76550 0.86580 0.63970 -0.02500
C 	C 	0.82660 0.89342 0.78950 -0.25600
H 	H 	0.84130 0.90010 0.82730 0.10200
C 	C 	0.86690 0.90120 0.75820 0.20600
C 	C 	0.84490 0.88990 0.70130 -0.23000
H 	H 	0.87370 0.89400 0.67950 0.09900
C 	C 	0.51769 0.79992 0.60934 -0.18700
C 	C 	0.52590 0.76467 0.62465 0.04900
H 	H 	0.56810 0.75710 0.65110 -0.03000
C 	C 	0.47260 0.74075 0.60130 -0.22400
H 	H 	0.47860 0.71730 0.61250 0.09400
C 	C 	0.40230 0.78626 0.54440 -0.22600
H 	H 	0.36080 0.79360 0.51680 0.09200
C 	C 	0.40990 0.75158 0.56110 0.18700
C 	C 	0.57051 0.82581 0.64166 0.11000
C 	C 	0.45590 0.81056 0.56852 0.07100
H 	H 	0.45000 0.83400 0.55710 -0.03800
Cu	Cu	0.96138 0.37174 0.66806 0.76900
Cu	Cu	0.94693 0.52543 0.63229 0.82800
Cu	Cu	0.40701 0.24508 0.50332 0.81700
Cu	Cu	0.70499 0.28175 0.61885 0.82700
Cu	Cu	0.49368 0.17107 0.56770 0.81600
Cu	Cu	0.18311 0.29394 0.61228 0.83600
Cu	Cu	0.34760 0.16889 0.58711 0.81800
Cu	Cu	0.89106 0.40539 0.75359 0.78000
Cl	Cl	0.37489 0.18122 0.49199 -0.79500
N 	N 	0.94999 0.42239 0.67231 -0.27900
N 	N 	0.94655 0.48046 0.66193 -0.28700
N 	N 	0.90832 0.43599 0.70158 -0.26600
N 	N 	0.22108 0.29561 0.41617 -0.28400
N 	N 	0.27620 0.24570 0.41116 -0.24300
N 	N 	0.31752 0.26414 0.45830 -0.24500
N 	N 	0.50524 0.24530 0.54770 -0.25200
N 	N 	0.54084 0.21477 0.57201 -0.25400
N 	N 	0.61861 0.25834 0.58903 -0.28600
N 	N 	0.96665 0.62634 0.58867 -0.24800
N 	N 	0.90502 0.62770 0.60234 -0.25400
N 	N 	0.93941 0.57210 0.60671 -0.29000
N 	N 	0.11429 0.36935 0.69759 -0.27200
N 	N 	0.05261 0.35180 0.66905 -0.27900
N 	N 	0.14117 0.32542 0.65066 -0.27700
N 	N 	0.79395 0.30241 0.64908 -0.29000
N 	N 	0.88593 0.33813 0.66429 -0.26900
N 	N 	0.90672 0.30944 0.70004 -0.27000
N 	N 	0.82420 0.12406 0.69490 -0.33000
H 	H 	0.81790 0.10760 0.71620 0.13600
H 	H 	0.86290 0.12500 0.68720 0.13400
N 	N 	0.86850 0.16704 0.82330 -0.32800
H 	H 	0.90380 0.15290 0.82910 0.13400
H 	H 	0.83730 0.16320 0.83940 0.13700
N 	N 	0.17510 0.41491 0.54640 -0.33100
H 	H 	0.16670 0.39790 0.52250 0.15300
H 	H 	0.21440 0.42630 0.55490 0.14000
N 	N 	0.75870 0.55162 0.80790 -0.33100
H 	H 	0.77600 0.57120 0.82370 0.14600
H 	H 	0.71930 0.54400 0.81010 0.13600
N 	N 	0.85440 0.22754 0.53820 -0.31800
H 	H 	0.81540 0.23450 0.51360 0.11200
H 	H 	0.85930 0.20590 0.54880 0.13300
N 	N 	0.42370 0.40627 0.60150 -0.32200
H 	H 	0.41750 0.42750 0.58860 0.13000
H 	H 	0.45350 0.40210 0.63450 0.13200
N 	N 	0.49090 0.41283 0.49040 -0.32900
H 	H 	0.45880 0.41750 0.45870 0.13900
H 	H 	0.51280 0.42970 0.51220 0.13300
N 	N 	0.02190 0.22604 0.17431 -0.32400
H 	H 	0.01670 0.20430 0.16400 0.13500
H 	H 	0.99720 0.24210 0.15230 0.12600
N 	N 	0.64790 0.42296 0.46140 -0.32700
H 	H 	0.62750 0.41470 0.42800 0.13200
H 	H 	0.64300 0.44480 0.46830 0.12700
N 	N 	0.63350 0.55718 0.64450 -0.32700
H 	H 	0.61620 0.57020 0.66470 0.13000
H 	H 	0.61050 0.53900 0.62750 0.13000
N 	N 	0.20470 0.53520 0.52280 -0.34000
H 	H 	0.20280 0.51330 0.51350 0.13100
H 	H 	0.24000 0.54790 0.52230 0.14600
N 	N 	0.43200 0.41870 0.78230 -0.32100
H 	H 	0.44590 0.42450 0.81750 0.12700
H 	H 	0.45790 0.42360 0.76190 0.12400
C 	C 	0.28339 0.29400 0.45954 0.12300
C 	C 	0.35750 0.31650 0.55459 0.09600
H 	H 	0.36360 0.29360 0.56870 -0.05600
C 	C 	0.38540 0.37851 0.56850 0.20300
C 	C 	0.33720 0.38496 0.51510 -0.23200
H 	H 	0.32800 0.40800 0.50220 0.09900
C 	C 	0.31318 0.32261 0.49957 -0.17500
C 	C 	0.30290 0.35736 0.48099 0.10200
H 	H 	0.27220 0.36210 0.44480 -0.05500
C 	C 	0.39280 0.34406 0.58876 -0.23000
H 	H 	0.42180 0.33950 0.62560 0.09700
C 	C 	0.21907 0.26534 0.38686 0.11700
C 	C 	0.16488 0.25505 0.33357 -0.18000
C 	C 	0.12470 0.28018 0.29598 0.08600
H 	H 	0.12930 0.30380 0.30620 -0.06200
C 	C 	0.07770 0.27036 0.24350 -0.22300
H 	H 	0.05090 0.28750 0.21920 0.07300
C 	C 	0.15710 0.21995 0.31608 0.09800
H 	H 	0.18350 0.20270 0.34030 -0.05900
C 	C 	0.07030 0.23523 0.22690 0.19500
C 	C 	0.11070 0.21012 0.26320 -0.24200
H 	H 	0.10690 0.18660 0.25240 0.10300
C 	C 	0.88986 0.59500 0.61234 0.12400
C 	C 	0.82580 0.58455 0.62416 -0.19200
C 	C 	0.79850 0.60401 0.65850 0.11000
H 	H 	0.82270 0.62390 0.67670 -0.05000
C 	C 	0.73580 0.59445 0.66630 -0.24900
H 	H 	0.71850 0.60770 0.69000 0.10000
C 	C 	0.78850 0.55483 0.59790 0.10800
H 	H 	0.80620 0.54110 0.57490 -0.06000
C 	C 	0.69880 0.56549 0.63930 0.21600
C 	C 	0.72610 0.54544 0.60520 -0.24700
H 	H 	0.70190 0.52550 0.58730 0.09600
C 	C 	0.98515 0.59258 0.59066 0.16000
C 	C 	0.04260 0.54326 0.55740 0.17300
H 	H 	0.00560 0.52870 0.55830 -0.09300
C 	C 	0.09480 0.52976 0.53970 -0.30000
H 	H 	0.09210 0.50640 0.52810 0.12000
C 	C 	0.04330 0.57854 0.57400 -0.23100
C 	C 	0.09770 0.59922 0.56950 0.16700
H 	H 	0.09820 0.62310 0.57780 -0.07700
C 	C 	0.15120 0.58553 0.55320 -0.29000
H 	H 	0.18800 0.60000 0.55160 0.12400
C 	C 	0.15090 0.54991 0.53880 0.24800
C 	C 	0.77495 0.35692 0.58939 -0.19300
C 	C 	0.73890 0.34433 0.53604 0.10600
H 	H 	0.74290 0.32070 0.52800 -0.04900
C 	C 	0.76860 0.39219 0.59920 0.11700
H 	H 	0.79370 0.40160 0.63450 -0.06000
C 	C 	0.81841 0.33315 0.63432 0.12900
C 	C 	0.69680 0.36627 0.49400 -0.25000
H 	H 	0.67370 0.35720 0.45820 0.10000
C 	C 	0.72530 0.41412 0.55750 -0.25300
H 	H 	0.72090 0.43780 0.56530 0.09800
C 	C 	0.68890 0.40085 0.50460 0.21300
C 	C 	0.85154 0.25591 0.72121 -0.18200
C 	C 	0.80060 0.24888 0.74592 0.09400
H 	H 	0.76280 0.26430 0.74050 -0.05200
C 	C 	0.80550 0.21917 0.77840 -0.24900
H 	H 	0.77040 0.21460 0.79420 0.10100
C 	C 	0.90666 0.23182 0.72928 0.09500
H 	H 	0.94080 0.23580 0.71220 -0.03400
C 	C 	0.85058 0.28869 0.69014 0.13000
C 	C 	0.86180 0.19590 0.78808 0.21200
C 	C 	0.91130 0.20244 0.76192 -0.23700
H 	H 	0.94830 0.18660 0.76650 0.09700
C 	C 	0.90695 0.47074 0.69453 0.12300
C 	C 	0.86630 0.49335 0.71973 -0.18400
C 	C 	0.89290 0.52538 0.74559 0.09800
H 	H 	0.93530 0.53410 0.74310 -0.06700
C 	C 	0.79460 0.53225 0.77850 0.21700
C 	C 	0.80210 0.48194 0.72270 0.10200
H 	H 	0.78290 0.46090 0.70520 -0.04300
C 	C 	0.85740 0.54428 0.77470 -0.25200
H 	H 	0.87630 0.56540 0.79200 0.09600
C 	C 	0.76620 0.50100 0.75100 -0.24200
H 	H 	0.72270 0.49300 0.75180 0.10000
C 	C 	0.08570 0.46197 0.63209 0.06900
H 	H 	0.09400 0.48090 0.65690 -0.02800
C 	C 	0.06180 0.40614 0.55804 -0.21900
H 	H 	0.05320 0.38720 0.53320 0.09200
C 	C 	0.02220 0.44384 0.61874 -0.19000
C 	C 	0.97270 0.44946 0.64948 0.11600
C 	C 	0.01140 0.41570 0.58068 0.07000
H 	H 	0.96900 0.40330 0.57070 -0.03000
C 	C 	0.12540 0.42402 0.57110 0.19900
C 	C 	0.13670 0.45237 0.60930 -0.22900
H 	H 	0.17920 0.46470 0.61920 0.09700
C 	C 	0.53814 0.30757 0.54056 -0.19000
C 	C 	0.48740 0.31622 0.48878 0.12200
H 	H 	0.46290 0.29830 0.46510 -0.06500
C 	C 	0.57340 0.33523 0.57470 0.11500
H 	H 	0.60780 0.33040 0.60930 -0.06500
C 	C 	0.55800 0.36996 0.55780 -0.24400
H 	H 	0.58190 0.38810 0.58150 0.10100
C 	C 	0.55314 0.27083 0.55824 0.13500
C 	C 	0.47300 0.35072 0.47191 -0.25100
H 	H 	0.43960 0.35570 0.43690 0.10400
C 	C 	0.50760 0.37807 0.50640 0.22300
C 	C 	0.60813 0.22349 0.59612 0.12800
C 	C 	0.72940 0.19984 0.61454 0.11400
H 	H 	0.73700 0.21740 0.59140 -0.06400
C 	C 	0.78180 0.17554 0.63800 -0.24600
H 	H 	0.82420 0.17680 0.63050 0.10100
C 	C 	0.77200 0.14912 0.67290 0.21900
C 	C 	0.70930 0.14830 0.68450 -0.24900
H 	H 	0.70250 0.13110 0.70870 0.10000
C 	C 	0.65630 0.17269 0.66084 0.11400
H 	H 	0.61450 0.17170 0.66920 -0.06000
C 	C 	0.66520 0.19861 0.62465 -0.19400
C 	C 	0.16621 0.35291 0.68635 0.13900
C 	C 	0.23921 0.36591 0.71054 -0.17800
C 	C 	0.26330 0.37566 0.76640 0.09400
H 	H 	0.23630 0.37020 0.78920 -0.05700
C 	C 	0.28040 0.37266 0.67750 0.09600
H 	H 	0.26550 0.36580 0.63970 -0.02500
C 	C 	0.32660 0.39342 0.78950 -0.25500
H 	H 	0.34130 0.40010 0.82730 0.10100
C 	C 	0.36690 0.40120 0.75820 0.20300
C 	C 	0.34490 0.38990 0.70130 -0.22900
H 	H 	0.37370 0.39400 0.67950 0.09800
C 	C 	0.01769 0.29992 0.60934 -0.19500
C 	C 	0.02590 0.26467 0.62465 0.03600
H 	H 	0.06810 0.25710 0.65110 -0.02600
C 	C 	0.97260 0.24075 0.60130 -0.20800
H 	H 	0.97860 0.21730 0.61250 0.09300
C 	C 	0.90230 0.28626 0.54440 -0.22900
H 	H 	0.86080 0.29360 0.51680 0.09300
C 	C 	0.90990 0.25158 0.56110 0.18500
C 	C 	0.07051 0.32581 0.64166 0.11100
C 	C 	0.95590 0.31056 0.56852 0.08400
H 	H 	0.95000 0.33400 0.55710 -0.04000
Cu	Cu	0.53862 0.87174 0.83194 0.76500
Cu	Cu	0.55307 0.02543 0.86771 0.82600
Cu	Cu	0.09299 0.74508 0.99668 0.81300
Cu	Cu	0.79501 0.78175 0.88115 0.82800
Cu	Cu	0.00632 0.67107 0.93230 0.81100
Cu	Cu	0.31689 0.79394 0.88772 0.83600
Cu	Cu	0.15240 0.66889 0.91289 0.81800
Cu	Cu	0.60894 0.90539 0.74641 0.77900
Cl	Cl	0.12511 0.68122 0.00801 -0.79400
N 	N 	0.55001 0.92239 0.82769 -0.28000
N 	N 	0.55345 0.98046 0.83807 -0.28800
N 	N 	0.59168 0.93599 0.79842 -0.26700
N 	N 	0.27892 0.79561 0.08383 -0.28400
N 	N 	0.22380 0.74570 0.08884 -0.24300
N 	N 	0.18248 0.76414 0.04170 -0.24500
N 	N 	0.99476 0.74530 0.95230 -0.24700
N 	N 	0.95916 0.71477 0.92799 -0.25100
N 	N 	0.88139 0.75834 0.91097 -0.28600
N 	N 	0.53335 0.12634 0.91133 -0.24800
N 	N 	0.59498 0.12770 0.89766 -0.25400
N 	N 	0.56059 0.07210 0.89329 -0.28900
N 	N 	0.38571 0.86935 0.80241 -0.27100
N 	N 	0.44739 0.85180 0.83095 -0.27600
N 	N 	0.35883 0.82542 0.84934 -0.27700
N 	N 	0.70605 0.80241 0.85092 -0.29000
N 	N 	0.61407 0.83813 0.83571 -0.27000
N 	N 	0.59328 0.80944 0.79996 -0.27200
N 	N 	0.67580 0.62406 0.80510 -0.33000
H 	H 	0.68210 0.60760 0.78380 0.13500
H 	H 	0.63710 0.62500 0.81280 0.13300
N 	N 	0.63150 0.66704 0.67670 -0.32700
H 	H 	0.59620 0.65290 0.67090 0.13200
H 	H 	0.66270 0.66320 0.66060 0.13600
N 	N 	0.32490 0.91491 0.95360 -0.33200
H 	H 	0.33330 0.89790 0.97750 0.15300
H 	H 	0.28560 0.92630 0.94510 0.14000
N 	N 	0.74130 0.05162 0.69210 -0.33100
H 	H 	0.72400 0.07120 0.67630 0.14600
H 	H 	0.78070 0.04400 0.68990 0.13700
N 	N 	0.64560 0.72754 0.96180 -0.31800
H 	H 	0.68460 0.73450 0.98640 0.11200
H 	H 	0.64070 0.70590 0.95120 0.13300
N 	N 	0.07630 0.90627 0.89850 -0.32100
H 	H 	0.08250 0.92750 0.91140 0.12700
H 	H 	0.04650 0.90210 0.86550 0.12900
N 	N 	0.00910 0.91283 0.00960 -0.34400
H 	H 	0.04120 0.91750 0.04130 0.14200
H 	H 	0.98720 0.92970 0.98780 0.14300
N 	N 	0.47810 0.72604 0.32569 -0.31700
H 	H 	0.48330 0.70430 0.33600 0.13500
H 	H 	0.50280 0.74210 0.34770 0.11800
N 	N 	0.85210 0.92296 0.03860 -0.32800
H 	H 	0.87250 0.91470 0.07200 0.13300
H 	H 	0.85700 0.94480 0.03170 0.12800
N 	N 	0.86650 0.05718 0.85550 -0.32800
H 	H 	0.88380 0.07020 0.83530 0.13100
H 	H 	0.88950 0.03900 0.87250 0.13200
N 	N 	0.29530 0.03520 0.97720 -0.33800
H 	H 	0.29720 0.01330 0.98650 0.13000
H 	H 	0.26000 0.04790 0.97770 0.14500
N 	N 	0.06800 0.91870 0.71770 -0.31900
H 	H 	0.05410 0.92450 0.68250 0.12400
H 	H 	0.04210 0.92360 0.73810 0.12000
C 	C 	0.21661 0.79400 0.04046 0.12300
C 	C 	0.14250 0.81650 0.94541 0.09100
H 	H 	0.13640 0.79360 0.93130 -0.05500
C 	C 	0.11460 0.87851 0.93150 0.20000
C 	C 	0.16280 0.88496 0.98490 -0.23400
H 	H 	0.17200 0.90800 0.99780 0.09900
C 	C 	0.18682 0.82261 0.00043 -0.17200
C 	C 	0.19710 0.85736 0.01901 0.10400
H 	H 	0.22780 0.86210 0.05520 -0.05500
C 	C 	0.10720 0.84406 0.91124 -0.22800
H 	H 	0.07820 0.83950 0.87440 0.09400
C 	C 	0.28093 0.76534 0.11314 0.11700
C 	C 	0.33512 0.75505 0.16643 -0.18000
C 	C 	0.37530 0.78018 0.20402 0.08700
H 	H 	0.37070 0.80380 0.19380 -0.06100
C 	C 	0.42230 0.77036 0.25650 -0.22200
H 	H 	0.44910 0.78750 0.28080 0.07500
C 	C 	0.34290 0.71995 0.18392 0.09800
H 	H 	0.31650 0.70270 0.15970 -0.05900
C 	C 	0.42970 0.73523 0.27310 0.19500
C 	C 	0.38930 0.71012 0.23680 -0.24200
H 	H 	0.39310 0.68660 0.24760 0.10300
C 	C 	0.61014 0.09500 0.88766 0.12400
C 	C 	0.67420 0.08455 0.87584 -0.19300
C 	C 	0.70150 0.10401 0.84150 0.11100
H 	H 	0.67730 0.12390 0.82330 -0.05100
C 	C 	0.76420 0.09445 0.83370 -0.25000
H 	H 	0.78150 0.10770 0.81000 0.10000
C 	C 	0.71150 0.05483 0.90210 0.10900
H 	H 	0.69380 0.04110 0.92510 -0.06000
C 	C 	0.80120 0.06549 0.86070 0.21800
C 	C 	0.77390 0.04544 0.89480 -0.24800
H 	H 	0.79810 0.02550 0.91270 0.09700
C 	C 	0.51485 0.09258 0.90934 0.14700
C 	C 	0.45740 0.04326 0.94260 0.16200
H 	H 	0.49440 0.02870 0.94170 -0.08500
C 	C 	0.40520 0.02976 0.96030 -0.29100
H 	H 	0.40790 0.00640 0.97190 0.11800
C 	C 	0.45670 0.07854 0.92600 -0.21200
C 	C 	0.40230 0.09922 0.93050 0.15500
H 	H 	0.40180 0.12310 0.92220 -0.07100
C 	C 	0.34880 0.08553 0.94680 -0.28100
H 	H 	0.31200 0.10000 0.94840 0.12000
C 	C 	0.34910 0.04991 0.96120 0.24200
C 	C 	0.72505 0.85692 0.91061 -0.19500
C 	C 	0.76110 0.84433 0.96396 0.11000
H 	H 	0.75710 0.82070 0.97200 -0.05100
C 	C 	0.73140 0.89219 0.90080 0.12000
H 	H 	0.70630 0.90160 0.86550 -0.06100
C 	C 	0.68159 0.83315 0.86568 0.13000
C 	C 	0.80320 0.86627 0.00600 -0.25500
H 	H 	0.82630 0.85720 0.04180 0.10200
C 	C 	0.77470 0.91412 0.94250 -0.25600
H 	H 	0.77910 0.93780 0.93470 0.09900
C 	C 	0.81110 0.90085 0.99540 0.21700
C 	C 	0.64846 0.75591 0.77879 -0.18300
C 	C 	0.69940 0.74888 0.75408 0.09400
H 	H 	0.73720 0.76430 0.75950 -0.05200
C 	C 	0.69450 0.71917 0.72160 -0.24800
H 	H 	0.72960 0.71460 0.70580 0.10100
C 	C 	0.59334 0.73182 0.77072 0.09400
H 	H 	0.55920 0.73580 0.78780 -0.03700
C 	C 	0.64942 0.78869 0.80986 0.13000
C 	C 	0.63820 0.69590 0.71192 0.21100
C 	C 	0.58870 0.70244 0.73808 -0.23700
H 	H 	0.55170 0.68660 0.73350 0.09400
C 	C 	0.59305 0.97074 0.80547 0.12200
C 	C 	0.63370 0.99335 0.78027 -0.18600
C 	C 	0.60710 0.02538 0.75441 0.09800
H 	H 	0.56470 0.03410 0.75690 -0.07000
C 	C 	0.70540 0.03225 0.72150 0.21700
C 	C 	0.69790 0.98194 0.77730 0.10300
H 	H 	0.71710 0.96090 0.79480 -0.04300
C 	C 	0.64260 0.04428 0.72530 -0.25400
H 	H 	0.62370 0.06540 0.70800 0.09500
C 	C 	0.73380 0.00100 0.74900 -0.24300
H 	H 	0.77730 0.99300 0.74820 0.10100
C 	C 	0.41430 0.96197 0.86791 0.07100
H 	H 	0.40600 0.98090 0.84310 -0.02700
C 	C 	0.43820 0.90614 0.94196 -0.23000
H 	H 	0.44680 0.88720 0.96680 0.09800
C 	C 	0.47780 0.94384 0.88126 -0.18800
C 	C 	0.52730 0.94946 0.85052 0.10800
C 	C 	0.48860 0.91570 0.91932 0.09200
H 	H 	0.53100 0.90330 0.92930 -0.04400
C 	C 	0.37460 0.92402 0.92890 0.20400
C 	C 	0.36330 0.95237 0.89070 -0.23200
H 	H 	0.32080 0.96470 0.88080 0.09800
C 	C 	0.96186 0.80757 0.95944 -0.18500
C 	C 	0.01260 0.81622 0.01122 0.12000
H 	H 	0.03710 0.79830 0.03490 -0.06600
C 	C 	0.92660 0.83523 0.92530 0.12000
H 	H 	0.89220 0.83040 0.89070 -0.06600
C 	C 	0.94200 0.86996 0.94220 -0.25300
H 	H 	0.91810 0.88810 0.91850 0.10500
C 	C 	0.94686 0.77083 0.94176 0.13600
C 	C 	0.02700 0.85072 0.02809 -0.26800
H 	H 	0.06040 0.85570 0.06310 0.10900
C 	C 	0.99240 0.87807 0.99360 0.24500
C 	C 	0.89187 0.72349 0.90388 0.12800
C 	C 	0.77060 0.69984 0.88546 0.11300
H 	H 	0.76300 0.71740 0.90860 -0.06300
C 	C 	0.71820 0.67554 0.86200 -0.24500
H 	H 	0.67580 0.67680 0.86950 0.10000
C 	C 	0.72800 0.64912 0.82710 0.21800
C 	C 	0.79070 0.64830 0.81550 -0.24700
H 	H 	0.79750 0.63110 0.79130 0.10000
C 	C 	0.84370 0.67269 0.83916 0.11300
H 	H 	0.88550 0.67170 0.83080 -0.05700
C 	C 	0.83480 0.69861 0.87535 -0.19200
C 	C 	0.33379 0.85291 0.81365 0.13800
C 	C 	0.26079 0.86591 0.78946 -0.17700
C 	C 	0.23670 0.87566 0.73360 0.09300
H 	H 	0.26370 0.87020 0.71080 -0.05700
C 	C 	0.21960 0.87266 0.82250 0.09500
H 	H 	0.23450 0.86580 0.86030 -0.02400
C 	C 	0.17340 0.89342 0.71050 -0.25300
H 	H 	0.15870 0.90010 0.67270 0.10000
C 	C 	0.13310 0.90120 0.74180 0.20100
C 	C 	0.15510 0.88990 0.79870 -0.22800
H 	H 	0.12630 0.89400 0.82050 0.09700
C 	C 	0.48231 0.79992 0.89066 -0.18700
C 	C 	0.47410 0.76467 0.87535 0.04900
H 	H 	0.43190 0.75710 0.84890 -0.03000
C 	C 	0.52740 0.74075 0.89870 -0.22400
H 	H 	0.52140 0.71730 0.88750 0.09400
C 	C 	0.59770 0.78626 0.95560 -0.22600
H 	H 	0.63920 0.79360 0.98320 0.09200
C 	C 	0.59010 0.75158 0.93890 0.18700
C 	C 	0.42949 0.82581 0.85834 0.11000
C 	C 	0.54410 0.81056 0.93148 0.07100
H 	H 	0.55000 0.83400 0.94290 -0.03800
Cu	Cu	0.03862 0.37174 0.83194 0.76200
Cu	Cu	0.05307 0.52543 0.86771 0.82300
Cu	Cu	0.59299 0.24508 0.99668 0.81700
Cu	Cu	0.29501 0.28175 0.88115 0.82700
Cu	Cu	0.50632 0.17107 0.93230 0.81600
Cu	Cu	0.81689 0.29394 0.88772 0.83600
Cu	Cu	0.65240 0.16889 0.91289 0.81800
Cu	Cu	0.10894 0.40539 0.74641 0.77800
Cl	Cl	0.62511 0.18122 0.00801 -0.79500
N 	N 	0.05001 0.42239 0.82769 -0.28000
N 	N 	0.05345 0.48046 0.83807 -0.28800
N 	N 	0.09168 0.43599 0.79842 -0.26700
N 	N 	0.77892 0.29561 0.08383 -0.28400
N 	N 	0.72380 0.24570 0.08884 -0.24300
N 	N 	0.68248 0.26414 0.04170 -0.24500
N 	N 	0.49476 0.24530 0.95230 -0.25200
N 	N 	0.45916 0.21477 0.92799 -0.25500
N 	N 	0.38139 0.25834 0.91097 -0.28600
N 	N 	0.03335 0.62634 0.91133 -0.24700
N 	N 	0.09498 0.62770 0.89766 -0.25500
N 	N 	0.06059 0.57210 0.89329 -0.28900
N 	N 	0.88571 0.36935 0.80241 -0.27100
N 	N 	0.94739 0.35180 0.83095 -0.27300
N 	N 	0.85883 0.32542 0.84934 -0.27600
N 	N 	0.20605 0.30241 0.85092 -0.28900
N 	N 	0.11407 0.33813 0.83571 -0.27000
N 	N 	0.09328 0.30944 0.79996 -0.27300
N 	N 	0.17580 0.12406 0.80510 -0.32900
H 	H 	0.18210 0.10760 0.78380 0.13400
H 	H 	0.13710 0.12500 0.81280 0.13100
N 	N 	0.13150 0.16704 0.67670 -0.32700
H 	H 	0.09620 0.15290 0.67090 0.13100
H 	H 	0.16270 0.16320 0.66060 0.13600
N 	N 	0.82490 0.41491 0.95360 -0.33400
H 	H 	0.83330 0.39790 0.97750 0.15400
H 	H 	0.78560 0.42630 0.94510 0.14100
N 	N 	0.24130 0.55162 0.69210 -0.33100
H 	H 	0.22400 0.57120 0.67630 0.14600
H 	H 	0.28070 0.54400 0.68990 0.13600
N 	N 	0.14560 0.22754 0.96180 -0.31800
H 	H 	0.18460 0.23450 0.98640 0.11100
H 	H 	0.14070 0.20590 0.95120 0.13200
N 	N 	0.57630 0.40627 0.89850 -0.32200
H 	H 	0.58250 0.42750 0.91140 0.13000
H 	H 	0.54650 0.40210 0.86550 0.13200
N 	N 	0.50910 0.41283 0.00960 -0.32700
H 	H 	0.54120 0.41750 0.04130 0.13900
H 	H 	0.48720 0.42970 0.98780 0.13200
N 	N 	0.97810 0.22604 0.32569 -0.30900
H 	H 	0.98330 0.20430 0.33600 0.13600
H 	H 	0.00280 0.24210 0.34770 0.11000
N 	N 	0.35210 0.42296 0.03860 -0.32400
H 	H 	0.37250 0.41470 0.07200 0.13200
H 	H 	0.35700 0.44480 0.03170 0.12700
N 	N 	0.36650 0.55718 0.85550 -0.32700
H 	H 	0.38380 0.57020 0.83530 0.13000
H 	H 	0.38950 0.53900 0.87250 0.13000
N 	N 	0.79530 0.53520 0.97720 -0.33700
H 	H 	0.79720 0.51330 0.98650 0.13100
H 	H 	0.76000 0.54790 0.97770 0.14500
N 	N 	0.56800 0.41870 0.71770 -0.32100
H 	H 	0.55410 0.42450 0.68250 0.12700
H 	H 	0.54210 0.42360 0.73810 0.12400
C 	C 	0.71661 0.29400 0.04046 0.12300
C 	C 	0.64250 0.31650 0.94541 0.09600
H 	H 	0.63640 0.29360 0.93130 -0.05600
C 	C 	0.61460 0.37851 0.93150 0.20300
C 	C 	0.66280 0.38496 0.98490 -0.23200
H 	H 	0.67200 0.40800 0.99780 0.09900
C 	C 	0.68682 0.32261 0.00043 -0.17500
C 	C 	0.69710 0.35736 0.01901 0.10200
H 	H 	0.72780 0.36210 0.05520 -0.05500
C 	C 	0.60720 0.34406 0.91124 -0.23000
H 	H 	0.57820 0.33950 0.87440 0.09700
C 	C 	0.78093 0.26534 0.11314 0.11700
C 	C 	0.83512 0.25505 0.16643 -0.18000
C 	C 	0.87530 0.28018 0.20402 0.08700
H 	H 	0.87070 0.30380 0.19380 -0.06100
C 	C 	0.92230 0.27036 0.25650 -0.22100
H 	H 	0.94910 0.28750 0.28080 0.07700
C 	C 	0.84290 0.21995 0.18392 0.09800
H 	H 	0.81650 0.20270 0.15970 -0.05900
C 	C 	0.92970 0.23523 0.27310 0.19600
C 	C 	0.88930 0.21012 0.23680 -0.24100
H 	H 	0.89310 0.18660 0.24760 0.10400
C 	C 	0.11014 0.59500 0.88766 0.12300
C 	C 	0.17420 0.58455 0.87584 -0.19400
C 	C 	0.20150 0.60401 0.84150 0.11100
H 	H 	0.17730 0.62390 0.82330 -0.05200
C 	C 	0.26420 0.59445 0.83370 -0.25000
H 	H 	0.28150 0.60770 0.81000 0.10000
C 	C 	0.21150 0.55483 0.90210 0.10900
H 	H 	0.19380 0.54110 0.92510 -0.06100
C 	C 	0.30120 0.56549 0.86070 0.21700
C 	C 	0.27390 0.54544 0.89480 -0.24800
H 	H 	0.29810 0.52550 0.91270 0.09600
C 	C 	0.01485 0.59258 0.90934 0.13100
C 	C 	0.95740 0.54326 0.94260 0.15000
H 	H 	0.99440 0.52870 0.94170 -0.07700
C 	C 	0.90520 0.52976 0.96030 -0.28000
H 	H 	0.90790 0.50640 0.97190 0.11600
C 	C 	0.95670 0.57854 0.92600 -0.19100
C 	C 	0.90230 0.59922 0.93050 0.14200
H 	H 	0.90180 0.62310 0.92220 -0.06500
C 	C 	0.84880 0.58553 0.94680 -0.27200
H 	H 	0.81200 0.60000 0.94840 0.11800
C 	C 	0.84910 0.54991 0.96120 0.23600
C 	C 	0.22505 0.35692 0.91061 -0.18700
C 	C 	0.26110 0.34433 0.96396 0.09600
H 	H 	0.25710 0.32070 0.97200 -0.04700
C 	C 	0.23140 0.39219 0.90080 0.11100
H 	H 	0.20630 0.40160 0.86550 -0.05800
C 	C 	0.18159 0.33315 0.86568 0.12700
C 	C 	0.30320 0.36627 0.00600 -0.23800
H 	H 	0.32630 0.35720 0.04180 0.09600
C 	C 	0.27470 0.41412 0.94250 -0.24600
H 	H 	0.27910 0.43780 0.93470 0.09500
C 	C 	0.31110 0.40085 0.99540 0.20400
C 	C 	0.14846 0.25591 0.77879 -0.18300
C 	C 	0.19940 0.24888 0.75408 0.09300
H 	H 	0.23720 0.26430 0.75950 -0.05100
C 	C 	0.19450 0.21917 0.72160 -0.24800
H 	H 	0.22960 0.21460 0.70580 0.10100
C 	C 	0.09334 0.23182 0.77072 0.09400
H 	H 	0.05920 0.23580 0.78780 -0.03900
C 	C 	0.14942 0.28869 0.80986 0.12900
C 	C 	0.13820 0.19590 0.71192 0.21000
C 	C 	0.08870 0.20244 0.73808 -0.23700
H 	H 	0.05170 0.18660 0.73350 0.09100
C 	C 	0.09305 0.47074 0.80547 0.12100
C 	C 	0.13370 0.49335 0.78027 -0.18600
C 	C 	0.10710 0.52538 0.75441 0.09800
H 	H 	0.06470 0.53410 0.75690 -0.07200
C 	C 	0.20540 0.53225 0.72150 0.21700
C 	C 	0.19790 0.48194 0.77730 0.10300
H 	H 	0.21710 0.46090 0.79480 -0.04300
C 	C 	0.14260 0.54428 0.72530 -0.25400
H 	H 	0.12370 0.56540 0.70800 0.09400
C 	C 	0.23380 0.50100 0.74900 -0.24300
H 	H 	0.27730 0.49300 0.74820 0.10000
C 	C 	0.91430 0.46197 0.86791 0.07400
H 	H 	0.90600 0.48090 0.84310 -0.02700
C 	C 	0.93820 0.40614 0.94196 -0.24600
H 	H 	0.94680 0.38720 0.96680 0.10600
C 	C 	0.97780 0.44384 0.88126 -0.18700
C 	C 	0.02730 0.44946 0.85052 0.10000
C 	C 	0.98860 0.41570 0.91932 0.12000
H 	H 	0.03100 0.40330 0.92930 -0.06100
C 	C 	0.87460 0.42402 0.92890 0.21100
C 	C 	0.86330 0.45237 0.89070 -0.23600
H 	H 	0.82080 0.46470 0.88080 0.10000
C 	C 	0.46186 0.30757 0.95944 -0.19000
C 	C 	0.51260 0.31622 0.01122 0.12200
H 	H 	0.53710 0.29830 0.03490 -0.06500
C 	C 	0.42660 0.33523 0.92530 0.11400
H 	H 	0.39220 0.33040 0.89070 -0.06500
C 	C 	0.44200 0.36996 0.94220 -0.24300
H 	H 	0.41810 0.38810 0.91850 0.10000
C 	C 	0.44686 0.27083 0.94176 0.13500
C 	C 	0.52700 0.35072 0.02809 -0.24900
H 	H 	0.56040 0.35570 0.06310 0.10300
C 	C 	0.49240 0.37807 0.99360 0.22100
C 	C 	0.39187 0.22349 0.90388 0.12800
C 	C 	0.27060 0.19984 0.88546 0.11300
H 	H 	0.26300 0.21740 0.90860 -0.06400
C 	C 	0.21820 0.17554 0.86200 -0.24500
H 	H 	0.17580 0.17680 0.86950 0.09900
C 	C 	0.22800 0.14912 0.82710 0.21800
C 	C 	0.29070 0.14830 0.81550 -0.24700
H 	H 	0.29750 0.13110 0.79130 0.10000
C 	C 	0.34370 0.17269 0.83916 0.11300
H 	H 	0.38550 0.17170 0.83080 -0.05900
C 	C 	0.33480 0.19861 0.87535 -0.19300
C 	C 	0.83379 0.35291 0.81365 0.13900
C 	C 	0.76079 0.36591 0.78946 -0.17800
C 	C 	0.73670 0.37566 0.73360 0.09400
H 	H 	0.76370 0.37020 0.71080 -0.05700
C 	C 	0.71960 0.37266 0.82250 0.09600
H 	H 	0.73450 0.36580 0.86030 -0.02500
C 	C 	0.67340 0.39342 0.71050 -0.25400
H 	H 	0.65870 0.40010 0.67270 0.10100
C 	C 	0.63310 0.40120 0.74180 0.20300
C 	C 	0.65510 0.38990 0.79870 -0.22900
H 	H 	0.62630 0.39400 0.82050 0.09800
C 	C 	0.98231 0.29992 0.89066 -0.17700
C 	C 	0.97410 0.26467 0.87535 0.06400
H 	H 	0.93190 0.25710 0.84890 -0.03300
C 	C 	0.02740 0.24075 0.89870 -0.24100
H 	H 	0.02140 0.21730 0.88750 0.09600
C 	C 	0.09770 0.28626 0.95560 -0.22300
H 	H 	0.13920 0.29360 0.98320 0.09000
C 	C 	0.09010 0.25158 0.93890 0.18800
C 	C 	0.92949 0.32581 0.85834 0.11000
C 	C 	0.04410 0.31056 0.93148 0.05500
H 	H 	0.05000 0.33400 0.94290 -0.03500
Cu	Cu	0.50000 0.19195 0.25000 0.77200
Cu	Cu	0.00000 0.69195 0.25000 0.76900
Cu	Cu	0.50000 0.80805 0.75000 0.77200
Cu	Cu	0.00000 0.30805 0.75000 0.76800
