data_crystal

_cell_length_a 20.01500
_cell_length_b 38.06400
_cell_length_c 25.19700
_cell_angle_alpha 90.00000
_cell_angle_beta  109.84600
_cell_angle_gamma 90.00000

_symmetry_space_group_name_	'P 1'
_symmetry_space_group_name_H-M	'P 1'

loop_
_symmetry_equiv_pos_as_xyz
  x,y,z

loop_
_atom_site_label
_atom_site_type_symbol
_atom_site_fract_x
_atom_site_fract_y
_atom_site_fract_z
_atom_site_charge
Cu	Cu	0.03921 0.12744 0.83152 0.76200
Cu	Cu	0.59375 0.25458 0.00012 0.80800
Cu	Cu	0.29550 0.21803 0.88224 0.82700
Cu	Cu	0.50675 0.32876 0.93212 0.80800
Cu	Cu	0.81646 0.20695 0.88293 0.83000
Cu	Cu	0.05204 0.97394 0.86547 0.82300
Cu	Cu	0.84942 0.16904 0.09197 0.81300
Cu	Cu	0.10917 0.09408 0.74664 0.77700
Br	Br	0.63085 0.32094 0.01091 -0.75000
N 	N 	0.94814 0.14766 0.82977 -0.27500
N 	N 	0.85925 0.17505 0.84647 -0.27900
N 	N 	0.88599 0.13022 0.80145 -0.27200
N 	N 	0.14620 0.27196 0.96230 -0.32300
H 	H 	0.18510 0.26500 0.98720 0.11100
H 	H 	0.14120 0.29360 0.95210 0.13200
N 	N 	0.59179 0.37144 0.89273 -0.25700
N 	N 	0.55861 0.42714 0.88954 -0.28900
N 	N 	0.53131 0.37320 0.90792 -0.24800
N 	N 	0.86550 0.43910 0.85100 -0.32300
H 	H 	0.88940 0.45690 0.86840 0.13000
H 	H 	0.88190 0.42610 0.83030 0.12800
H 	H 	0.26760 0.45100 0.98550 0.13800
H 	H 	0.30410 0.48560 0.99160 0.13500
N 	N 	0.11444 0.16117 0.83578 -0.27100
N 	N 	0.09392 0.18989 0.80005 -0.27200
N 	N 	0.20664 0.19723 0.85181 -0.29000
N 	N 	0.35270 0.07642 0.03880 -0.32300
H 	H 	0.35640 0.05450 0.03230 0.12800
H 	H 	0.37460 0.08490 0.07180 0.13200
N 	N 	0.13210 0.33168 0.67790 -0.33000
H 	H 	0.16350 0.33540 0.66230 0.13800
H 	H 	0.09660 0.34570 0.67170 0.13200
N 	N 	0.09215 0.06332 0.79825 -0.26800
N 	N 	0.05073 0.07695 0.82753 -0.28100
N 	N 	0.23850 0.94795 0.69050 -0.33000
H 	H 	0.22080 0.92840 0.67480 0.14500
H 	H 	0.27760 0.95560 0.68780 0.13600
N 	N 	0.05385 0.01906 0.83713 -0.28900
N 	N 	0.82660 0.08212 0.95370 -0.33500
H 	H 	0.83520 0.09890 0.97790 0.15500
H 	H 	0.78740 0.07060 0.94540 0.14100
N 	N 	0.49575 0.25465 0.95433 -0.25500
N 	N 	0.46008 0.28509 0.92957 -0.25600
N 	N 	0.38158 0.24159 0.91237 -0.28700
N 	N 	0.50870 0.08766 0.01130 -0.32900
H 	H 	0.54000 0.08300 0.04360 0.13800
H 	H 	0.48740 0.07090 0.98930 0.13400
N 	N 	0.17630 0.37587 0.80460 -0.32700
H 	H 	0.13710 0.37510 0.81150 0.13000
H 	H 	0.18320 0.39220 0.78340 0.13300
N 	N 	0.68263 0.23522 0.04670 -0.24800
N 	N 	0.77996 0.20414 0.08833 -0.28500
N 	N 	0.72413 0.25343 0.09380 -0.24500
N 	N 	0.57770 0.09472 0.90050 -0.32400
H 	H 	0.58270 0.07350 0.91300 0.13000
H 	H 	0.54880 0.09920 0.86720 0.13300
N 	N 	0.98150 0.27390 0.32870 -0.30800
H 	H 	0.00660 0.25800 0.35090 0.10700
H 	H 	0.98650 0.29560 0.33880 0.13600
C 	C 	0.09120 0.24820 0.93870 0.19600
C 	C 	0.09860 0.21363 0.95470 -0.23000
H 	H 	0.14010 0.20620 0.98260 0.09200
C 	C 	0.04510 0.18946 0.93000 0.06200
H 	H 	0.05110 0.16610 0.94120 -0.03700
C 	C 	0.98290 0.20014 0.88869 -0.18300
C 	C 	0.97480 0.23507 0.87390 0.06700
H 	H 	0.93250 0.24280 0.84740 -0.03600
C 	C 	0.02860 0.25886 0.89800 -0.24400
H 	H 	0.02280 0.28230 0.88670 0.09700
C 	C 	0.93000 0.17416 0.85617 0.10800
C 	C 	0.65630 0.11110 0.80040 -0.23100
H 	H 	0.62850 0.10750 0.82290 0.09800
C 	C 	0.63220 0.09940 0.74340 0.20000
C 	C 	0.67070 0.10650 0.71160 -0.25400
H 	H 	0.65450 0.09950 0.67400 0.10000
C 	C 	0.73490 0.12412 0.73300 0.09100
H 	H 	0.76090 0.12910 0.70950 -0.05500
C 	C 	0.76070 0.13434 0.78899 -0.17900
C 	C 	0.72070 0.12782 0.82220 0.10200
H 	H 	0.73710 0.13470 0.85990 -0.02500
C 	C 	0.83360 0.14729 0.81167 0.13700
C 	C 	0.35260 0.44980 0.96400 0.24500
C 	C 	0.35120 0.41430 0.94870 -0.27600
H 	H 	0.31450 0.40000 0.95080 0.11800
C 	C 	0.40320 0.40024 0.93070 0.14700
H 	H 	0.40230 0.37640 0.92220 -0.06900
C 	C 	0.45680 0.42114 0.92510 -0.20700
C 	C 	0.45880 0.45609 0.94140 0.16000
H 	H 	0.49530 0.47050 0.93930 -0.08600
C 	C 	0.40760 0.46974 0.96060 -0.28800
H 	H 	0.41050 0.49320 0.97160 0.11700
C 	C 	0.51320 0.40685 0.90628 0.14300
C 	C 	0.77270 0.45206 0.88930 -0.23600
H 	H 	0.79740 0.47200 0.90660 0.09300
C 	C 	0.79930 0.43121 0.85620 0.20400
C 	C 	0.76040 0.40251 0.82860 -0.23600
H 	H 	0.77670 0.38900 0.80470 0.09500
C 	C 	0.69760 0.39397 0.83660 0.10000
H 	H 	0.67250 0.37430 0.81870 -0.04900
C 	C 	0.67110 0.41400 0.87070 -0.18600
C 	C 	0.70970 0.44339 0.89680 0.10000
H 	H 	0.69270 0.45740 0.91970 -0.05800
C 	C 	0.60690 0.40419 0.88284 0.12100
C 	C 	0.31100 0.09837 0.99560 0.19800
C 	C 	0.27540 0.08550 0.94250 -0.24400
H 	H 	0.27990 0.06190 0.93470 0.09400
C 	C 	0.23280 0.10739 0.90060 0.11000
H 	H 	0.20850 0.09820 0.86500 -0.05800
C 	C 	0.22580 0.14247 0.91070 -0.18400
C 	C 	0.26140 0.15512 0.96440 0.09200
H 	H 	0.25680 0.17870 0.97240 -0.04400
C 	C 	0.30350 0.13357 0.00640 -0.22900
H 	H 	0.32710 0.14270 0.04210 0.09300
C 	C 	0.18210 0.16637 0.86608 0.12600
C 	C 	0.19550 0.28034 0.72340 -0.24900
H 	H 	0.23090 0.28500 0.70830 0.10100
C 	C 	0.20040 0.25060 0.75610 0.08900
H 	H 	0.23850 0.23530 0.76210 -0.05200
C 	C 	0.14870 0.24352 0.77997 -0.18100
C 	C 	0.09350 0.26731 0.77191 0.08900
H 	H 	0.05950 0.26330 0.78880 -0.03700
C 	C 	0.08880 0.29674 0.73900 -0.23300
H 	H 	0.05170 0.31250 0.73420 0.09000
C 	C 	0.13860 0.30323 0.71290 0.21000
C 	C 	0.14950 0.21078 0.81076 0.13100
C 	C 	0.23290 0.99829 0.74790 -0.23700
H 	H 	0.27620 0.00620 0.74660 0.09800
C 	C 	0.20370 0.96717 0.72030 0.21300
C 	C 	0.14130 0.95510 0.72490 -0.24700
H 	H 	0.12220 0.93400 0.70790 0.09300
C 	C 	0.10610 0.97411 0.75450 0.09100
H 	H 	0.06400 0.96560 0.75750 -0.07200
C 	C 	0.13380 0.00593 0.77977 -0.18000
C 	C 	0.19800 0.01733 0.77700 0.09600
H 	H 	0.21800 0.03810 0.79500 -0.04000
C 	C 	0.09340 0.02880 0.80507 0.12000
C 	C 	0.86440 0.04598 0.89020 -0.24400
H 	H 	0.82220 0.03340 0.88020 0.10300
C 	C 	0.87540 0.07369 0.92830 0.21800
C 	C 	0.93830 0.09201 0.94130 -0.24400
H 	H 	0.94630 0.11090 0.96620 0.10400
C 	C 	0.98950 0.08325 0.91847 0.11500
H 	H 	0.03180 0.09590 0.92860 -0.05800
C 	C 	0.97840 0.05535 0.88013 -0.18900
C 	C 	0.91570 0.03701 0.86720 0.07900
H 	H 	0.90760 0.01810 0.84230 -0.02900
C 	C 	0.02810 0.04988 0.84981 0.10300
C 	C 	0.49260 0.12217 0.99500 0.22100
C 	C 	0.44210 0.13060 0.94290 -0.24400
H 	H 	0.41820 0.11270 0.91880 0.10100
C 	C 	0.42710 0.16499 0.92650 0.11700
H 	H 	0.39300 0.16990 0.89160 -0.06600
C 	C 	0.46230 0.19265 0.96115 -0.19400
C 	C 	0.51200 0.18395 0.01320 0.12600
H 	H 	0.53620 0.20180 0.03720 -0.06600
C 	C 	0.52630 0.14963 0.02990 -0.25100
H 	H 	0.55920 0.14470 0.06530 0.10400
C 	C 	0.44750 0.22925 0.94343 0.13500
C 	C 	0.22820 0.35086 0.82760 0.21500
C 	C 	0.29200 0.35142 0.81660 -0.24300
H 	H 	0.29900 0.36850 0.79250 0.09900
C 	C 	0.34470 0.32734 0.84060 0.11200
H 	H 	0.38700 0.32850 0.83300 -0.06100
C 	C 	0.33560 0.30109 0.87614 -0.19000
C 	C 	0.27060 0.30013 0.88570 0.10900
H 	H 	0.26260 0.28270 0.90880 -0.06100
C 	C 	0.21860 0.32449 0.86160 -0.24200
H 	H 	0.17580 0.32310 0.86850 0.09800
C 	C 	0.39240 0.27617 0.90484 0.12700
C 	C 	0.61040 0.15621 0.91480 -0.23800
H 	H 	0.58210 0.16080 0.87770 0.09900
C 	C 	0.61700 0.12212 0.93470 0.21300
C 	C 	0.66350 0.11542 0.98810 -0.24600
H 	H 	0.67210 0.09240 0.00070 0.10500
C 	C 	0.69740 0.14241 0.02270 0.11400
H 	H 	0.72740 0.13740 0.05910 -0.05600
C 	C 	0.68780 0.17731 0.00467 -0.18100
C 	C 	0.64560 0.18380 0.94960 0.10400
H 	H 	0.64050 0.20660 0.93560 -0.05900
C 	C 	0.71710 0.20573 0.04489 0.12500
C 	C 	0.93230 0.26440 0.27610 0.20100
C 	C 	0.89180 0.28940 0.23920 -0.24700
H 	H 	0.89630 0.31300 0.24960 0.10500
C 	C 	0.84490 0.27964 0.18730 0.10800
H 	H 	0.81840 0.29680 0.16290 -0.06200
C 	C 	0.83650 0.24460 0.17065 -0.18800
C 	C 	0.87730 0.21982 0.20840 0.09800
H 	H 	0.87260 0.19620 0.19840 -0.06300
C 	C 	0.92480 0.22960 0.26040 -0.23100
H 	H 	0.95170 0.21260 0.28490 0.07900
C 	C 	0.78180 0.23417 0.11771 0.12200
N 	N 	0.30250 0.46410 0.98310 -0.34100
N 	N 	0.56550 0.08160 0.72090 -0.31900
H 	H 	0.55010 0.07530 0.68610 0.12700
H 	H 	0.54090 0.07710 0.74220 0.12400
Cu	Cu	0.53921 0.62744 0.83152 0.76500
Cu	Cu	0.09375 0.75458 0.00012 0.80800
Cu	Cu	0.79550 0.71803 0.88224 0.82800
Cu	Cu	0.00675 0.82876 0.93212 0.80500
Cu	Cu	0.31646 0.70695 0.88293 0.83100
Cu	Cu	0.55204 0.47394 0.86547 0.82600
Cu	Cu	0.34942 0.66904 0.09197 0.81400
Cu	Cu	0.60917 0.59408 0.74664 0.77900
Br	Br	0.13085 0.82094 0.01091 -0.74900
N 	N 	0.44814 0.64766 0.82977 -0.27700
N 	N 	0.35925 0.67505 0.84647 -0.27800
N 	N 	0.38599 0.63022 0.80145 -0.27100
N 	N 	0.64620 0.77196 0.96230 -0.32200
H 	H 	0.68510 0.76500 0.98720 0.11300
H 	H 	0.64120 0.79360 0.95210 0.13300
N 	N 	0.09179 0.87144 0.89273 -0.25700
N 	N 	0.05861 0.92714 0.88954 -0.28800
N 	N 	0.03131 0.87320 0.90792 -0.24700
N 	N 	0.36550 0.93910 0.85100 -0.32200
H 	H 	0.38940 0.95690 0.86840 0.12900
H 	H 	0.38190 0.92610 0.83030 0.12800
H 	H 	0.76760 0.95100 0.98550 0.14000
H 	H 	0.80410 0.98560 0.99160 0.13700
N 	N 	0.61444 0.66117 0.83578 -0.27000
N 	N 	0.59392 0.68989 0.80005 -0.27200
N 	N 	0.70664 0.69723 0.85181 -0.29000
N 	N 	0.85270 0.57642 0.03880 -0.32500
H 	H 	0.85640 0.55450 0.03230 0.12900
H 	H 	0.87460 0.58490 0.07180 0.13300
N 	N 	0.63210 0.83168 0.67790 -0.33100
H 	H 	0.66350 0.83540 0.66230 0.13900
H 	H 	0.59660 0.84570 0.67170 0.13400
N 	N 	0.59215 0.56332 0.79825 -0.26700
N 	N 	0.55073 0.57695 0.82753 -0.28100
N 	N 	0.73850 0.44795 0.69050 -0.33000
H 	H 	0.72080 0.42840 0.67480 0.14600
H 	H 	0.77760 0.45560 0.68780 0.13700
N 	N 	0.55385 0.51906 0.83713 -0.28800
N 	N 	0.32660 0.58212 0.95370 -0.33400
H 	H 	0.33520 0.59890 0.97790 0.15400
H 	H 	0.28740 0.57060 0.94540 0.14000
N 	N 	0.99575 0.75465 0.95433 -0.25100
N 	N 	0.96008 0.78509 0.92957 -0.25300
N 	N 	0.88158 0.74159 0.91237 -0.28700
N 	N 	0.00870 0.58766 0.01130 -0.34600
H 	H 	0.04000 0.58300 0.04360 0.14100
H 	H 	0.98740 0.57090 0.98930 0.14500
N 	N 	0.67630 0.87587 0.80460 -0.32800
H 	H 	0.63710 0.87510 0.81150 0.13200
H 	H 	0.68320 0.89220 0.78340 0.13400
N 	N 	0.18263 0.73522 0.04670 -0.24800
N 	N 	0.27996 0.70414 0.08833 -0.28500
N 	N 	0.22413 0.75343 0.09380 -0.24500
N 	N 	0.07770 0.59472 0.90050 -0.32300
H 	H 	0.08270 0.57350 0.91300 0.12800
H 	H 	0.04880 0.59920 0.86720 0.12900
N 	N 	0.48150 0.77390 0.32870 -0.31600
H 	H 	0.50660 0.75800 0.35090 0.11600
H 	H 	0.48650 0.79560 0.33880 0.13500
C 	C 	0.59120 0.74820 0.93870 0.19400
C 	C 	0.59860 0.71363 0.95470 -0.23300
H 	H 	0.64010 0.70620 0.98260 0.09300
C 	C 	0.54510 0.68946 0.93000 0.07600
H 	H 	0.55110 0.66610 0.94120 -0.04000
C 	C 	0.48290 0.70014 0.88869 -0.19200
C 	C 	0.47480 0.73507 0.87390 0.05300
H 	H 	0.43250 0.74280 0.84740 -0.03300
C 	C 	0.52860 0.75886 0.89800 -0.22900
H 	H 	0.52280 0.78230 0.88670 0.09500
C 	C 	0.43000 0.67416 0.85617 0.10800
C 	C 	0.15630 0.61110 0.80040 -0.23000
H 	H 	0.12850 0.60750 0.82290 0.09700
C 	C 	0.13220 0.59940 0.74340 0.19800
C 	C 	0.17070 0.60650 0.71160 -0.25300
H 	H 	0.15450 0.59950 0.67400 0.09900
C 	C 	0.23490 0.62412 0.73300 0.09000
H 	H 	0.26090 0.62910 0.70950 -0.05500
C 	C 	0.26070 0.63434 0.78899 -0.17900
C 	C 	0.22070 0.62782 0.82220 0.10100
H 	H 	0.23710 0.63470 0.85990 -0.02500
C 	C 	0.33360 0.64729 0.81167 0.13600
C 	C 	0.85260 0.94980 0.96400 0.23900
C 	C 	0.85120 0.91430 0.94870 -0.26800
H 	H 	0.81450 0.90000 0.95080 0.11600
C 	C 	0.90320 0.90024 0.93070 0.13600
H 	H 	0.90230 0.87640 0.92220 -0.06300
C 	C 	0.95680 0.92114 0.92510 -0.18900
C 	C 	0.95880 0.95609 0.94140 0.15000
H 	H 	0.99530 0.97050 0.93930 -0.07900
C 	C 	0.90760 0.96974 0.96060 -0.27800
H 	H 	0.91050 0.99320 0.97160 0.11600
C 	C 	0.01320 0.90685 0.90628 0.12900
C 	C 	0.27270 0.95206 0.88930 -0.23600
H 	H 	0.29740 0.97200 0.90660 0.09300
C 	C 	0.29930 0.93121 0.85620 0.20300
C 	C 	0.26040 0.90251 0.82860 -0.23600
H 	H 	0.27670 0.88900 0.80470 0.09500
C 	C 	0.19760 0.89397 0.83660 0.10000
H 	H 	0.17250 0.87430 0.81870 -0.04900
C 	C 	0.17110 0.91400 0.87070 -0.18600
C 	C 	0.20970 0.94339 0.89680 0.10000
H 	H 	0.19270 0.95740 0.91970 -0.05900
C 	C 	0.10690 0.90419 0.88284 0.12000
C 	C 	0.81100 0.59837 0.99560 0.20400
C 	C 	0.77540 0.58550 0.94250 -0.24900
H 	H 	0.77990 0.56190 0.93470 0.09600
C 	C 	0.73280 0.60739 0.90060 0.11400
H 	H 	0.70850 0.59820 0.86500 -0.06000
C 	C 	0.72580 0.64247 0.91070 -0.18800
C 	C 	0.76140 0.65512 0.96440 0.09900
H 	H 	0.75680 0.67870 0.97240 -0.04600
C 	C 	0.80350 0.63357 0.00640 -0.23700
H 	H 	0.82710 0.64270 0.04210 0.09600
C 	C 	0.68210 0.66637 0.86608 0.12800
C 	C 	0.69550 0.78034 0.72340 -0.24900
H 	H 	0.73090 0.78500 0.70830 0.10100
C 	C 	0.70040 0.75060 0.75610 0.08900
H 	H 	0.73850 0.73530 0.76210 -0.05200
C 	C 	0.64870 0.74352 0.77997 -0.18100
C 	C 	0.59350 0.76731 0.77191 0.09000
H 	H 	0.55950 0.76330 0.78880 -0.03500
C 	C 	0.58880 0.79674 0.73900 -0.23300
H 	H 	0.55170 0.81250 0.73420 0.09300
C 	C 	0.63860 0.80323 0.71290 0.21100
C 	C 	0.64950 0.71078 0.81076 0.13100
C 	C 	0.73290 0.49829 0.74790 -0.23600
H 	H 	0.77620 0.50620 0.74660 0.09800
C 	C 	0.70370 0.46717 0.72030 0.21300
C 	C 	0.64130 0.45510 0.72490 -0.24700
H 	H 	0.62220 0.43400 0.70790 0.09400
C 	C 	0.60610 0.47411 0.75450 0.09100
H 	H 	0.56400 0.46560 0.75750 -0.07000
C 	C 	0.63380 0.50593 0.77977 -0.18000
C 	C 	0.69800 0.51733 0.77700 0.09500
H 	H 	0.71800 0.53810 0.79500 -0.04000
C 	C 	0.59340 0.52880 0.80507 0.12100
C 	C 	0.36440 0.54598 0.89020 -0.24100
H 	H 	0.32220 0.53340 0.88020 0.10100
C 	C 	0.37540 0.57369 0.92830 0.21100
C 	C 	0.43830 0.59201 0.94130 -0.23100
H 	H 	0.44630 0.61090 0.96620 0.09700
C 	C 	0.48950 0.58325 0.91847 0.09000
H 	H 	0.53180 0.59590 0.92860 -0.04300
C 	C 	0.47840 0.55535 0.88013 -0.19100
C 	C 	0.41570 0.53701 0.86720 0.07700
H 	H 	0.40760 0.51810 0.84230 -0.03000
C 	C 	0.52810 0.54988 0.84981 0.11100
C 	C 	0.99260 0.62217 0.99500 0.24400
C 	C 	0.94210 0.63060 0.94290 -0.25400
H 	H 	0.91820 0.61270 0.91880 0.10600
C 	C 	0.92710 0.66499 0.92650 0.12300
H 	H 	0.89300 0.66990 0.89160 -0.06800
C 	C 	0.96230 0.69265 0.96115 -0.18800
C 	C 	0.01200 0.68395 0.01320 0.12300
H 	H 	0.03620 0.70180 0.03720 -0.06800
C 	C 	0.02630 0.64963 0.02990 -0.26900
H 	H 	0.05920 0.64470 0.06530 0.10900
C 	C 	0.94750 0.72925 0.94343 0.13600
C 	C 	0.72820 0.85086 0.82760 0.21500
C 	C 	0.79200 0.85142 0.81660 -0.24300
H 	H 	0.79900 0.86850 0.79250 0.09900
C 	C 	0.84470 0.82734 0.84060 0.11200
H 	H 	0.88700 0.82850 0.83300 -0.05900
C 	C 	0.83560 0.80109 0.87614 -0.18900
C 	C 	0.77060 0.80013 0.88570 0.10900
H 	H 	0.76260 0.78270 0.90880 -0.06100
C 	C 	0.71860 0.82449 0.86160 -0.24200
H 	H 	0.67580 0.82310 0.86850 0.09900
C 	C 	0.89240 0.77617 0.90484 0.12700
C 	C 	0.11040 0.65621 0.91480 -0.23800
H 	H 	0.08210 0.66080 0.87770 0.09700
C 	C 	0.11700 0.62212 0.93470 0.21200
C 	C 	0.16350 0.61542 0.98810 -0.25200
H 	H 	0.17210 0.59240 0.00070 0.10700
C 	C 	0.19740 0.64241 0.02270 0.11700
H 	H 	0.22740 0.63740 0.05910 -0.05700
C 	C 	0.18780 0.67731 0.00467 -0.18000
C 	C 	0.14560 0.68380 0.94960 0.10200
H 	H 	0.14050 0.70660 0.93560 -0.05900
C 	C 	0.21710 0.70573 0.04489 0.12500
C 	C 	0.43230 0.76440 0.27610 0.20000
C 	C 	0.39180 0.78940 0.23920 -0.24800
H 	H 	0.39630 0.81300 0.24960 0.10500
C 	C 	0.34490 0.77964 0.18730 0.10800
H 	H 	0.31840 0.79680 0.16290 -0.06200
C 	C 	0.33650 0.74460 0.17065 -0.18800
C 	C 	0.37730 0.71982 0.20840 0.09700
H 	H 	0.37260 0.69620 0.19840 -0.06400
C 	C 	0.42480 0.72960 0.26040 -0.23200
H 	H 	0.45170 0.71260 0.28490 0.07700
C 	C 	0.28180 0.73417 0.11771 0.12200
N 	N 	0.80250 0.96410 0.98310 -0.34000
N 	N 	0.06550 0.58160 0.72090 -0.31700
H 	H 	0.05010 0.57530 0.68610 0.12400
H 	H 	0.04090 0.57710 0.74220 0.12000
Cu	Cu	0.96079 0.12744 0.66848 0.76900
Cu	Cu	0.40625 0.25458 0.49988 0.80900
Cu	Cu	0.70450 0.21803 0.61776 0.82800
Cu	Cu	0.49325 0.32876 0.56788 0.80900
Cu	Cu	0.18354 0.20695 0.61707 0.83100
Cu	Cu	0.94796 0.97394 0.63453 0.82900
Cu	Cu	0.15058 0.16904 0.40803 0.81300
Cu	Cu	0.89083 0.09408 0.75336 0.78000
Br	Br	0.36915 0.32094 0.48909 -0.74900
N 	N 	0.05186 0.14766 0.67023 -0.28000
N 	N 	0.14075 0.17505 0.65353 -0.27800
N 	N 	0.11401 0.13022 0.69855 -0.27100
N 	N 	0.85380 0.27196 0.53770 -0.32100
H 	H 	0.81490 0.26500 0.51280 0.11300
H 	H 	0.85880 0.29360 0.54790 0.13400
N 	N 	0.40821 0.37144 0.60727 -0.25600
N 	N 	0.44139 0.42714 0.61046 -0.28800
N 	N 	0.46869 0.37320 0.59208 -0.24700
N 	N 	0.13450 0.43910 0.64900 -0.32100
H 	H 	0.11060 0.45690 0.63160 0.12700
H 	H 	0.11810 0.42610 0.66970 0.12600
H 	H 	0.73240 0.45100 0.51450 0.14000
H 	H 	0.69590 0.48560 0.50840 0.13700
N 	N 	0.88556 0.16117 0.66422 -0.26900
N 	N 	0.90608 0.18989 0.69995 -0.26900
N 	N 	0.79336 0.19723 0.64819 -0.29000
N 	N 	0.64730 0.07642 0.46120 -0.32500
H 	H 	0.64360 0.05450 0.46770 0.12800
H 	H 	0.62540 0.08490 0.42820 0.13200
N 	N 	0.86790 0.33168 0.82210 -0.33200
H 	H 	0.83650 0.33540 0.83770 0.13900
H 	H 	0.90340 0.34570 0.82830 0.13600
N 	N 	0.90785 0.06332 0.70175 -0.26600
N 	N 	0.94927 0.07695 0.67247 -0.28000
N 	N 	0.76150 0.94795 0.80950 -0.33000
H 	H 	0.77920 0.92840 0.82520 0.14600
H 	H 	0.72240 0.95560 0.81220 0.13600
N 	N 	0.94615 0.01906 0.66287 -0.28800
N 	N 	0.17340 0.08212 0.54630 -0.33300
H 	H 	0.16480 0.09890 0.52210 0.15400
H 	H 	0.21260 0.07060 0.55460 0.14000
N 	N 	0.50425 0.25465 0.54567 -0.25400
N 	N 	0.53992 0.28509 0.57043 -0.25600
N 	N 	0.61842 0.24159 0.58763 -0.28700
N 	N 	0.49130 0.08766 0.48870 -0.33100
H 	H 	0.46000 0.08300 0.45640 0.13900
H 	H 	0.51260 0.07090 0.51070 0.13500
N 	N 	0.82370 0.37587 0.69540 -0.32800
H 	H 	0.86290 0.37510 0.68850 0.13300
H 	H 	0.81680 0.39220 0.71660 0.13500
N 	N 	0.31737 0.23522 0.45330 -0.24800
N 	N 	0.22004 0.20414 0.41167 -0.28600
N 	N 	0.27587 0.25343 0.40620 -0.24500
N 	N 	0.42230 0.09472 0.59950 -0.32400
H 	H 	0.41730 0.07350 0.58700 0.13000
H 	H 	0.45120 0.09920 0.63280 0.13300
N 	N 	0.01850 0.27390 0.17130 -0.32400
H 	H 	0.99340 0.25800 0.14910 0.12400
H 	H 	0.01350 0.29560 0.16120 0.13500
C 	C 	0.90880 0.24820 0.56130 0.19200
C 	C 	0.90140 0.21363 0.54530 -0.23500
H 	H 	0.85990 0.20620 0.51740 0.09500
C 	C 	0.95490 0.18946 0.57000 0.08800
H 	H 	0.94890 0.16610 0.55880 -0.04200
C 	C 	0.01710 0.20014 0.61131 -0.19900
C 	C 	0.02520 0.23507 0.62610 0.04100
H 	H 	0.06750 0.24280 0.65260 -0.02900
C 	C 	0.97140 0.25886 0.60200 -0.21400
H 	H 	0.97720 0.28230 0.61330 0.09300
C 	C 	0.07000 0.17416 0.64383 0.10900
C 	C 	0.34370 0.11110 0.69960 -0.23100
H 	H 	0.37150 0.10750 0.67710 0.09900
C 	C 	0.36780 0.09940 0.75660 0.20000
C 	C 	0.32930 0.10650 0.78840 -0.25400
H 	H 	0.34550 0.09950 0.82600 0.10000
C 	C 	0.26510 0.12412 0.76700 0.09100
H 	H 	0.23910 0.12910 0.79050 -0.05500
C 	C 	0.23930 0.13434 0.71101 -0.17900
C 	C 	0.27930 0.12782 0.67780 0.10200
H 	H 	0.26290 0.13470 0.64010 -0.02500
C 	C 	0.16640 0.14729 0.68833 0.13700
C 	C 	0.64740 0.44980 0.53600 0.24500
C 	C 	0.64880 0.41430 0.55130 -0.27600
H 	H 	0.68550 0.40000 0.54920 0.11900
C 	C 	0.59680 0.40024 0.56930 0.14700
H 	H 	0.59770 0.37640 0.57780 -0.06900
C 	C 	0.54320 0.42114 0.57490 -0.20700
C 	C 	0.54120 0.45609 0.55860 0.16100
H 	H 	0.50470 0.47050 0.56070 -0.08700
C 	C 	0.59240 0.46974 0.53940 -0.28800
H 	H 	0.58950 0.49320 0.52840 0.11800
C 	C 	0.48680 0.40685 0.59372 0.14300
C 	C 	0.22730 0.45206 0.61070 -0.23500
H 	H 	0.20260 0.47200 0.59340 0.09200
C 	C 	0.20070 0.43121 0.64380 0.20200
C 	C 	0.23960 0.40251 0.67140 -0.23500
H 	H 	0.22330 0.38900 0.69530 0.09500
C 	C 	0.30240 0.39397 0.66340 0.09900
H 	H 	0.32750 0.37430 0.68130 -0.04800
C 	C 	0.32890 0.41400 0.62930 -0.18500
C 	C 	0.29030 0.44339 0.60320 0.09900
H 	H 	0.30730 0.45740 0.58030 -0.05800
C 	C 	0.39310 0.40419 0.61716 0.12100
C 	C 	0.68900 0.09837 0.50440 0.20400
C 	C 	0.72460 0.08550 0.55750 -0.24900
H 	H 	0.72010 0.06190 0.56530 0.09600
C 	C 	0.76720 0.10739 0.59940 0.11400
H 	H 	0.79150 0.09820 0.63500 -0.06000
C 	C 	0.77420 0.14247 0.58930 -0.18800
C 	C 	0.73860 0.15512 0.53560 0.09900
H 	H 	0.74320 0.17870 0.52760 -0.04600
C 	C 	0.69650 0.13357 0.49360 -0.23700
H 	H 	0.67290 0.14270 0.45790 0.09500
C 	C 	0.81790 0.16637 0.63392 0.12700
C 	C 	0.80450 0.28034 0.77660 -0.24900
H 	H 	0.76910 0.28500 0.79170 0.10100
C 	C 	0.79960 0.25060 0.74390 0.09000
H 	H 	0.76150 0.23530 0.73790 -0.05200
C 	C 	0.85130 0.24352 0.72003 -0.18000
C 	C 	0.90650 0.26731 0.72809 0.09100
H 	H 	0.94050 0.26330 0.71120 -0.03300
C 	C 	0.91120 0.29674 0.76100 -0.23300
H 	H 	0.94830 0.31250 0.76580 0.09600
C 	C 	0.86140 0.30323 0.78710 0.21300
C 	C 	0.85050 0.21078 0.68924 0.13100
C 	C 	0.76710 0.99829 0.75210 -0.23600
H 	H 	0.72380 0.00620 0.75340 0.09700
C 	C 	0.79630 0.96717 0.77970 0.21300
C 	C 	0.85870 0.95510 0.77510 -0.24600
H 	H 	0.87780 0.93400 0.79210 0.09500
C 	C 	0.89390 0.97411 0.74550 0.09100
H 	H 	0.93600 0.96560 0.74250 -0.06700
C 	C 	0.86620 0.00593 0.72023 -0.17900
C 	C 	0.80200 0.01733 0.72300 0.09500
H 	H 	0.78200 0.03810 0.70500 -0.04000
C 	C 	0.90660 0.02880 0.69493 0.12200
C 	C 	0.13560 0.04598 0.60980 -0.23800
H 	H 	0.17780 0.03340 0.61980 0.10100
C 	C 	0.12460 0.07369 0.57170 0.20600
C 	C 	0.06170 0.09201 0.55870 -0.22000
H 	H 	0.05370 0.11090 0.53380 0.09200
C 	C 	0.01050 0.08325 0.58153 0.06900
H 	H 	0.96820 0.09590 0.57140 -0.03000
C 	C 	0.02160 0.05535 0.61987 -0.19400
C 	C 	0.08430 0.03701 0.63280 0.07600
H 	H 	0.09240 0.01810 0.65770 -0.03100
C 	C 	0.97190 0.04988 0.65019 0.11900
C 	C 	0.50740 0.12217 0.50500 0.22300
C 	C 	0.55790 0.13060 0.55710 -0.24500
H 	H 	0.58180 0.11270 0.58120 0.10200
C 	C 	0.57290 0.16499 0.57350 0.11800
H 	H 	0.60700 0.16990 0.60840 -0.06600
C 	C 	0.53770 0.19265 0.53885 -0.19300
C 	C 	0.48800 0.18395 0.48680 0.12500
H 	H 	0.46380 0.20180 0.46280 -0.06600
C 	C 	0.47370 0.14963 0.47010 -0.25200
H 	H 	0.44080 0.14470 0.43470 0.10400
C 	C 	0.55250 0.22925 0.55657 0.13500
C 	C 	0.77180 0.35086 0.67240 0.21600
C 	C 	0.70800 0.35142 0.68340 -0.24400
H 	H 	0.70100 0.36850 0.70750 0.09900
C 	C 	0.65530 0.32734 0.65940 0.11300
H 	H 	0.61300 0.32850 0.66700 -0.06100
C 	C 	0.66440 0.30109 0.62386 -0.19100
C 	C 	0.72940 0.30013 0.61430 0.11000
H 	H 	0.73740 0.28270 0.59120 -0.06100
C 	C 	0.78140 0.32449 0.63840 -0.24400
H 	H 	0.82420 0.32310 0.63150 0.10000
C 	C 	0.60760 0.27617 0.59516 0.12700
C 	C 	0.38960 0.15621 0.58520 -0.23700
H 	H 	0.41790 0.16080 0.62230 0.09900
C 	C 	0.38300 0.12212 0.56530 0.21200
C 	C 	0.33650 0.11542 0.51190 -0.24400
H 	H 	0.32790 0.09240 0.49930 0.10400
C 	C 	0.30260 0.14241 0.47730 0.11300
H 	H 	0.27260 0.13740 0.44090 -0.05500
C 	C 	0.31220 0.17731 0.49533 -0.18000
C 	C 	0.35440 0.18380 0.55040 0.10400
H 	H 	0.35950 0.20660 0.56440 -0.05900
C 	C 	0.28290 0.20573 0.45511 0.12400
C 	C 	0.06770 0.26440 0.22390 0.20000
C 	C 	0.10820 0.28940 0.26080 -0.24900
H 	H 	0.10370 0.31300 0.25040 0.10400
C 	C 	0.15510 0.27964 0.31270 0.10800
H 	H 	0.18160 0.29680 0.33710 -0.06200
C 	C 	0.16350 0.24460 0.32935 -0.18900
C 	C 	0.12270 0.21982 0.29160 0.09700
H 	H 	0.12740 0.19620 0.30160 -0.06500
C 	C 	0.07520 0.22960 0.23960 -0.23300
H 	H 	0.04830 0.21260 0.21510 0.07500
C 	C 	0.21820 0.23417 0.38229 0.12200
N 	N 	0.69750 0.46410 0.51690 -0.34200
N 	N 	0.43450 0.08160 0.77910 -0.31900
H 	H 	0.44990 0.07530 0.81390 0.12700
H 	H 	0.45910 0.07710 0.75780 0.12400
Cu	Cu	0.46079 0.62744 0.66848 0.76500
Cu	Cu	0.90625 0.75458 0.49988 0.81100
Cu	Cu	0.20450 0.71803 0.61776 0.82800
Cu	Cu	0.99325 0.82876 0.56788 0.81300
Cu	Cu	0.68354 0.70695 0.61707 0.83100
Cu	Cu	0.44796 0.47394 0.63453 0.82600
Cu	Cu	0.65058 0.66904 0.40803 0.81300
Cu	Cu	0.39083 0.59408 0.75336 0.77900
Br	Br	0.86915 0.82094 0.48909 -0.74700
N 	N 	0.55186 0.64766 0.67023 -0.27700
N 	N 	0.64075 0.67505 0.65353 -0.27800
N 	N 	0.61401 0.63022 0.69855 -0.27100
N 	N 	0.35380 0.77196 0.53770 -0.32200
H 	H 	0.31490 0.76500 0.51280 0.11300
H 	H 	0.35880 0.79360 0.54790 0.13400
N 	N 	0.90821 0.87144 0.60727 -0.25500
N 	N 	0.94139 0.92714 0.61046 -0.28900
N 	N 	0.96869 0.87320 0.59208 -0.24700
N 	N 	0.63450 0.93910 0.64900 -0.32100
H 	H 	0.61060 0.95690 0.63160 0.12900
H 	H 	0.61810 0.92610 0.66970 0.12800
H 	H 	0.23240 0.95100 0.51450 0.14000
H 	H 	0.19590 0.98560 0.50840 0.13700
N 	N 	0.38556 0.66117 0.66422 -0.27000
N 	N 	0.40608 0.68989 0.69995 -0.27200
N 	N 	0.29336 0.69723 0.64819 -0.29000
N 	N 	0.14730 0.57642 0.46120 -0.32400
H 	H 	0.14360 0.55450 0.46770 0.12700
H 	H 	0.12540 0.58490 0.42820 0.13100
N 	N 	0.36790 0.83168 0.82210 -0.33100
H 	H 	0.33650 0.83540 0.83770 0.13900
H 	H 	0.40340 0.84570 0.82830 0.13400
N 	N 	0.40785 0.56332 0.70175 -0.26700
N 	N 	0.44927 0.57695 0.67247 -0.28100
N 	N 	0.26150 0.44795 0.80950 -0.32900
H 	H 	0.27920 0.42840 0.82520 0.14500
H 	H 	0.22240 0.45560 0.81220 0.13600
N 	N 	0.44615 0.51906 0.66287 -0.28800
N 	N 	0.67340 0.58212 0.54630 -0.33400
H 	H 	0.66480 0.59890 0.52210 0.15500
H 	H 	0.71260 0.57060 0.55460 0.14100
N 	N 	0.00425 0.75465 0.54567 -0.25800
N 	N 	0.03992 0.78509 0.57043 -0.25800
N 	N 	0.11842 0.74159 0.58763 -0.28700
N 	N 	0.99130 0.58766 0.48870 -0.31300
H 	H 	0.96000 0.58300 0.45640 0.13600
H 	H 	0.01260 0.57090 0.51070 0.12500
N 	N 	0.32370 0.87587 0.69540 -0.32800
H 	H 	0.36290 0.87510 0.68850 0.13200
H 	H 	0.31680 0.89220 0.71660 0.13400
N 	N 	0.81737 0.73522 0.45330 -0.24800
N 	N 	0.72004 0.70414 0.41167 -0.28500
N 	N 	0.77587 0.75343 0.40620 -0.24500
N 	N 	0.92230 0.59472 0.59950 -0.32500
H 	H 	0.91730 0.57350 0.58700 0.13300
H 	H 	0.95120 0.59920 0.63280 0.13600
N 	N 	0.51850 0.77390 0.17130 -0.31600
H 	H 	0.49340 0.75800 0.14910 0.11600
H 	H 	0.51350 0.79560 0.16120 0.13500
C 	C 	0.40880 0.74820 0.56130 0.19400
C 	C 	0.40140 0.71363 0.54530 -0.23300
H 	H 	0.35990 0.70620 0.51740 0.09400
C 	C 	0.45490 0.68946 0.57000 0.07600
H 	H 	0.44890 0.66610 0.55880 -0.04000
C 	C 	0.51710 0.70014 0.61131 -0.19200
C 	C 	0.52520 0.73507 0.62610 0.05300
H 	H 	0.56750 0.74280 0.65260 -0.03300
C 	C 	0.47140 0.75886 0.60200 -0.22900
H 	H 	0.47720 0.78230 0.61330 0.09500
C 	C 	0.57000 0.67416 0.64383 0.10800
C 	C 	0.84370 0.61110 0.69960 -0.23200
H 	H 	0.87150 0.60750 0.67710 0.10000
C 	C 	0.86780 0.59940 0.75660 0.20300
C 	C 	0.82930 0.60650 0.78840 -0.25500
H 	H 	0.84550 0.59950 0.82600 0.10100
C 	C 	0.76510 0.62412 0.76700 0.09300
H 	H 	0.73910 0.62910 0.79050 -0.05500
C 	C 	0.73930 0.63434 0.71101 -0.18000
C 	C 	0.77930 0.62782 0.67780 0.10300
H 	H 	0.76290 0.63470 0.64010 -0.02600
C 	C 	0.66640 0.64729 0.68833 0.13700
C 	C 	0.14740 0.94980 0.53600 0.25000
C 	C 	0.14880 0.91430 0.55130 -0.28400
H 	H 	0.18550 0.90000 0.54920 0.12100
C 	C 	0.09680 0.90024 0.56930 0.15800
H 	H 	0.09770 0.87640 0.57780 -0.07400
C 	C 	0.04320 0.92114 0.57490 -0.22500
C 	C 	0.04120 0.95609 0.55860 0.17100
H 	H 	0.00470 0.97050 0.56070 -0.09400
C 	C 	0.09240 0.96974 0.53940 -0.29700
H 	H 	0.08950 0.99320 0.52840 0.11900
C 	C 	0.98680 0.90685 0.59372 0.15600
C 	C 	0.72730 0.95206 0.61070 -0.23500
H 	H 	0.70260 0.97200 0.59340 0.09200
C 	C 	0.70070 0.93121 0.64380 0.20300
C 	C 	0.73960 0.90251 0.67140 -0.23500
H 	H 	0.72330 0.88900 0.69530 0.09500
C 	C 	0.80240 0.89397 0.66340 0.09900
H 	H 	0.82750 0.87430 0.68130 -0.04800
C 	C 	0.82890 0.91400 0.62930 -0.18500
C 	C 	0.79030 0.94339 0.60320 0.09900
H 	H 	0.80730 0.95740 0.58030 -0.05700
C 	C 	0.89310 0.90419 0.61716 0.12100
C 	C 	0.18900 0.59837 0.50440 0.20300
C 	C 	0.22460 0.58550 0.55750 -0.24800
H 	H 	0.22010 0.56190 0.56530 0.09600
C 	C 	0.26720 0.60739 0.59940 0.11300
H 	H 	0.29150 0.59820 0.63500 -0.05900
C 	C 	0.27420 0.64247 0.58930 -0.18800
C 	C 	0.23860 0.65512 0.53560 0.09800
H 	H 	0.24320 0.67870 0.52760 -0.04600
C 	C 	0.19650 0.63357 0.49360 -0.23700
H 	H 	0.17290 0.64270 0.45790 0.09500
C 	C 	0.31790 0.66637 0.63392 0.12700
C 	C 	0.30450 0.78034 0.77660 -0.24900
H 	H 	0.26910 0.78500 0.79170 0.10100
C 	C 	0.29960 0.75060 0.74390 0.08900
H 	H 	0.26150 0.73530 0.73790 -0.05200
C 	C 	0.35130 0.74352 0.72003 -0.18100
C 	C 	0.40650 0.76731 0.72809 0.09000
H 	H 	0.44050 0.76330 0.71120 -0.03500
C 	C 	0.41120 0.79674 0.76100 -0.23300
H 	H 	0.44830 0.81250 0.76580 0.09300
C 	C 	0.36140 0.80323 0.78710 0.21100
C 	C 	0.35050 0.71078 0.68924 0.13100
C 	C 	0.26710 0.49829 0.75210 -0.23600
H 	H 	0.22380 0.50620 0.75340 0.09700
C 	C 	0.29630 0.46717 0.77970 0.21300
C 	C 	0.35870 0.45510 0.77510 -0.24600
H 	H 	0.37780 0.43400 0.79210 0.09400
C 	C 	0.39390 0.47411 0.74550 0.09000
H 	H 	0.43600 0.46560 0.74250 -0.06900
C 	C 	0.36620 0.50593 0.72023 -0.17900
C 	C 	0.30200 0.51733 0.72300 0.09500
H 	H 	0.28200 0.53810 0.70500 -0.04000
C 	C 	0.40660 0.52880 0.69493 0.12100
C 	C 	0.63560 0.54598 0.60980 -0.24100
H 	H 	0.67780 0.53340 0.61980 0.10200
C 	C 	0.62460 0.57369 0.57170 0.21200
C 	C 	0.56170 0.59201 0.55870 -0.23100
H 	H 	0.55370 0.61090 0.53380 0.09800
C 	C 	0.51050 0.58325 0.58153 0.09100
H 	H 	0.46820 0.59590 0.57140 -0.04300
C 	C 	0.52160 0.55535 0.61987 -0.19100
C 	C 	0.58430 0.53701 0.63280 0.07700
H 	H 	0.59240 0.51810 0.65770 -0.03000
C 	C 	0.47190 0.54988 0.65019 0.11100
C 	C 	0.00740 0.62217 0.50500 0.20000
C 	C 	0.05790 0.63060 0.55710 -0.23600
H 	H 	0.08180 0.61270 0.58120 0.09800
C 	C 	0.07290 0.66499 0.57350 0.11300
H 	H 	0.10700 0.66990 0.60840 -0.06500
C 	C 	0.03770 0.69265 0.53885 -0.19900
C 	C 	0.98800 0.68395 0.48680 0.12900
H 	H 	0.96380 0.70180 0.46280 -0.06500
C 	C 	0.97370 0.64963 0.47010 -0.23400
H 	H 	0.94080 0.64470 0.43470 0.09900
C 	C 	0.05250 0.72925 0.55657 0.13500
C 	C 	0.27180 0.85086 0.67240 0.21600
C 	C 	0.20800 0.85142 0.68340 -0.24400
H 	H 	0.20100 0.86850 0.70750 0.09900
C 	C 	0.15530 0.82734 0.65940 0.11400
H 	H 	0.11300 0.82850 0.66700 -0.06200
C 	C 	0.16440 0.80109 0.62386 -0.19100
C 	C 	0.22940 0.80013 0.61430 0.11000
H 	H 	0.23740 0.78270 0.59120 -0.06200
C 	C 	0.28140 0.82449 0.63840 -0.24300
H 	H 	0.32420 0.82310 0.63150 0.09900
C 	C 	0.10760 0.77617 0.59516 0.12700
C 	C 	0.88960 0.65621 0.58520 -0.23900
H 	H 	0.91790 0.66080 0.62230 0.10100
C 	C 	0.88300 0.62212 0.56530 0.21500
C 	C 	0.83650 0.61542 0.51190 -0.24600
H 	H 	0.82790 0.59240 0.49930 0.10500
C 	C 	0.80260 0.64241 0.47730 0.11400
H 	H 	0.77260 0.63740 0.44090 -0.05600
C 	C 	0.81220 0.67731 0.49533 -0.18100
C 	C 	0.85440 0.68380 0.55040 0.10600
H 	H 	0.85950 0.70660 0.56440 -0.05900
C 	C 	0.78290 0.70573 0.45511 0.12500
C 	C 	0.56770 0.76440 0.22390 0.20100
C 	C 	0.60820 0.78940 0.26080 -0.24800
H 	H 	0.60370 0.81300 0.25040 0.10500
C 	C 	0.65510 0.77964 0.31270 0.10800
H 	H 	0.68160 0.79680 0.33710 -0.06200
C 	C 	0.66350 0.74460 0.32935 -0.18800
C 	C 	0.62270 0.71982 0.29160 0.09700
H 	H 	0.62740 0.69620 0.30160 -0.06400
C 	C 	0.57520 0.72960 0.23960 -0.23200
H 	H 	0.54830 0.71260 0.21510 0.07700
C 	C 	0.71820 0.73417 0.38229 0.12200
N 	N 	0.19750 0.96410 0.51690 -0.34300
N 	N 	0.93450 0.58160 0.77910 -0.32100
H 	H 	0.94990 0.57530 0.81390 0.13000
H 	H 	0.95910 0.57710 0.75780 0.12800
Cu	Cu	0.96079 0.87256 0.16848 0.76800
Cu	Cu	0.40625 0.74542 0.99988 0.80900
Cu	Cu	0.70450 0.78197 0.11776 0.82800
Cu	Cu	0.49325 0.67124 0.06788 0.80900
Cu	Cu	0.18354 0.79305 0.11707 0.83100
Cu	Cu	0.94796 0.02606 0.13453 0.82800
Cu	Cu	0.15058 0.83096 0.90803 0.81300
Cu	Cu	0.89083 0.90592 0.25336 0.78000
Br	Br	0.36915 0.67906 0.98909 -0.75000
N 	N 	0.05186 0.85234 0.17023 -0.27900
N 	N 	0.14075 0.82495 0.15353 -0.27800
N 	N 	0.11401 0.86978 0.19855 -0.27100
N 	N 	0.85380 0.72804 0.03770 -0.32200
H 	H 	0.81490 0.73500 0.01280 0.11300
H 	H 	0.85880 0.70640 0.04790 0.13400
N 	N 	0.40821 0.62856 0.10727 -0.25600
N 	N 	0.44139 0.57286 0.11046 -0.28800
N 	N 	0.46869 0.62680 0.09208 -0.24700
N 	N 	0.13450 0.56090 0.14900 -0.32100
H 	H 	0.11060 0.54310 0.13160 0.12700
H 	H 	0.11810 0.57390 0.16970 0.12600
H 	H 	0.73240 0.54900 0.01450 0.14000
H 	H 	0.69590 0.51440 0.00840 0.13700
N 	N 	0.88556 0.83883 0.16422 -0.26900
N 	N 	0.90608 0.81011 0.19995 -0.27000
N 	N 	0.79336 0.80277 0.14819 -0.29000
N 	N 	0.64730 0.92358 0.96120 -0.32500
H 	H 	0.64360 0.94550 0.96770 0.12800
H 	H 	0.62540 0.91510 0.92820 0.13200
N 	N 	0.86790 0.66832 0.32210 -0.33100
H 	H 	0.83650 0.66460 0.33770 0.13900
H 	H 	0.90340 0.65430 0.32830 0.13600
N 	N 	0.90785 0.93668 0.20175 -0.26600
N 	N 	0.94927 0.92305 0.17247 -0.28000
N 	N 	0.76150 0.05205 0.30950 -0.33000
H 	H 	0.77920 0.07160 0.32520 0.14600
H 	H 	0.72240 0.04440 0.31220 0.13600
N 	N 	0.94615 0.98094 0.16287 -0.28800
N 	N 	0.17340 0.91788 0.04630 -0.33300
H 	H 	0.16480 0.90110 0.02210 0.15500
H 	H 	0.21260 0.92940 0.05460 0.14100
N 	N 	0.50425 0.74535 0.04567 -0.25400
N 	N 	0.53992 0.71491 0.07043 -0.25600
N 	N 	0.61842 0.75841 0.08763 -0.28700
N 	N 	0.49130 0.91234 0.98870 -0.33200
H 	H 	0.46000 0.91700 0.95640 0.13900
H 	H 	0.51260 0.92910 0.01070 0.13600
N 	N 	0.82370 0.62413 0.19540 -0.32800
H 	H 	0.86290 0.62490 0.18850 0.13300
H 	H 	0.81680 0.60780 0.21660 0.13500
N 	N 	0.31737 0.76478 0.95330 -0.24800
N 	N 	0.22004 0.79586 0.91167 -0.28600
N 	N 	0.27587 0.74657 0.90620 -0.24500
N 	N 	0.42230 0.90528 0.09950 -0.32300
H 	H 	0.41730 0.92650 0.08700 0.13000
H 	H 	0.45120 0.90080 0.13280 0.13200
N 	N 	0.01850 0.72610 0.67130 -0.32500
H 	H 	0.99340 0.74200 0.64910 0.12600
H 	H 	0.01350 0.70440 0.66120 0.13500
C 	C 	0.90880 0.75180 0.06130 0.19200
C 	C 	0.90140 0.78637 0.04530 -0.23500
H 	H 	0.85990 0.79380 0.01740 0.09500
C 	C 	0.95490 0.81054 0.07000 0.08600
H 	H 	0.94890 0.83390 0.05880 -0.04100
C 	C 	0.01710 0.79986 0.11131 -0.19800
C 	C 	0.02520 0.76493 0.12610 0.04200
H 	H 	0.06750 0.75720 0.15260 -0.03000
C 	C 	0.97140 0.74114 0.10200 -0.21600
H 	H 	0.97720 0.71770 0.11330 0.09400
C 	C 	0.07000 0.82584 0.14383 0.10900
C 	C 	0.34370 0.88890 0.19960 -0.23100
H 	H 	0.37150 0.89250 0.17710 0.09900
C 	C 	0.36780 0.90060 0.25660 0.20100
C 	C 	0.32930 0.89350 0.28840 -0.25400
H 	H 	0.34550 0.90050 0.32600 0.10000
C 	C 	0.26510 0.87588 0.26700 0.09100
H 	H 	0.23910 0.87090 0.29050 -0.05500
C 	C 	0.23930 0.86566 0.21101 -0.17900
C 	C 	0.27930 0.87218 0.17780 0.10200
H 	H 	0.26290 0.86530 0.14010 -0.02500
C 	C 	0.16640 0.85271 0.18833 0.13700
C 	C 	0.64740 0.55020 0.03600 0.24500
C 	C 	0.64880 0.58570 0.05130 -0.27600
H 	H 	0.68550 0.60000 0.04920 0.11900
C 	C 	0.59680 0.59976 0.06930 0.14700
H 	H 	0.59770 0.62360 0.07780 -0.06900
C 	C 	0.54320 0.57886 0.07490 -0.20700
C 	C 	0.54120 0.54391 0.05860 0.16100
H 	H 	0.50470 0.52950 0.06070 -0.08600
C 	C 	0.59240 0.53026 0.03940 -0.28800
H 	H 	0.58950 0.50680 0.02840 0.11800
C 	C 	0.48680 0.59315 0.09372 0.14300
C 	C 	0.22730 0.54794 0.11070 -0.23500
H 	H 	0.20260 0.52800 0.09340 0.09200
C 	C 	0.20070 0.56879 0.14380 0.20200
C 	C 	0.23960 0.59749 0.17140 -0.23500
H 	H 	0.22330 0.61100 0.19530 0.09500
C 	C 	0.30240 0.60603 0.16340 0.09900
H 	H 	0.32750 0.62570 0.18130 -0.04800
C 	C 	0.32890 0.58600 0.12930 -0.18500
C 	C 	0.29030 0.55661 0.10320 0.09900
H 	H 	0.30730 0.54260 0.08030 -0.05700
C 	C 	0.39310 0.59581 0.11716 0.12100
C 	C 	0.68900 0.90163 0.00440 0.20500
C 	C 	0.72460 0.91450 0.05750 -0.25000
H 	H 	0.72010 0.93810 0.06530 0.09700
C 	C 	0.76720 0.89261 0.09940 0.11500
H 	H 	0.79150 0.90180 0.13500 -0.06000
C 	C 	0.77420 0.85753 0.08930 -0.18900
C 	C 	0.73860 0.84488 0.03560 0.10000
H 	H 	0.74320 0.82130 0.02760 -0.04700
C 	C 	0.69650 0.86643 0.99360 -0.24000
H 	H 	0.67290 0.85730 0.95790 0.09600
C 	C 	0.81790 0.83363 0.13392 0.12800
C 	C 	0.80450 0.71966 0.27660 -0.24900
H 	H 	0.76910 0.71500 0.29170 0.10100
C 	C 	0.79960 0.74940 0.24390 0.09000
H 	H 	0.76150 0.76470 0.23790 -0.05200
C 	C 	0.85130 0.75648 0.22003 -0.18000
C 	C 	0.90650 0.73269 0.22809 0.09100
H 	H 	0.94050 0.73670 0.21120 -0.03300
C 	C 	0.91120 0.70326 0.26100 -0.23300
H 	H 	0.94830 0.68750 0.26580 0.09500
C 	C 	0.86140 0.69677 0.28710 0.21200
C 	C 	0.85050 0.78922 0.18924 0.13100
C 	C 	0.76710 0.00171 0.25210 -0.23600
H 	H 	0.72380 0.99380 0.25340 0.09700
C 	C 	0.79630 0.03283 0.27970 0.21300
C 	C 	0.85870 0.04490 0.27510 -0.24600
H 	H 	0.87780 0.06600 0.29210 0.09500
C 	C 	0.89390 0.02589 0.24550 0.09100
H 	H 	0.93600 0.03440 0.24250 -0.06700
C 	C 	0.86620 0.99407 0.22023 -0.17900
C 	C 	0.80200 0.98267 0.22300 0.09500
H 	H 	0.78200 0.96190 0.20500 -0.04000
C 	C 	0.90660 0.97120 0.19493 0.12200
C 	C 	0.13560 0.95402 0.10980 -0.23900
H 	H 	0.17780 0.96660 0.11980 0.10100
C 	C 	0.12460 0.92631 0.07170 0.20800
C 	C 	0.06170 0.90799 0.05870 -0.22200
H 	H 	0.05370 0.88910 0.03380 0.09300
C 	C 	0.01050 0.91675 0.08153 0.07300
H 	H 	0.96820 0.90410 0.07140 -0.03200
C 	C 	0.02160 0.94465 0.11987 -0.19400
C 	C 	0.08430 0.96299 0.13280 0.07600
H 	H 	0.09240 0.98190 0.15770 -0.03100
C 	C 	0.97190 0.95012 0.15019 0.11800
C 	C 	0.50740 0.87783 0.00500 0.22500
C 	C 	0.55790 0.86940 0.05710 -0.24600
H 	H 	0.58180 0.88730 0.08120 0.10200
C 	C 	0.57290 0.83501 0.07350 0.11800
H 	H 	0.60700 0.83010 0.10840 -0.06700
C 	C 	0.53770 0.80735 0.03885 -0.19300
C 	C 	0.48800 0.81605 0.98680 0.12500
H 	H 	0.46380 0.79820 0.96280 -0.06600
C 	C 	0.47370 0.85037 0.97010 -0.25400
H 	H 	0.44080 0.85530 0.93470 0.10500
C 	C 	0.55250 0.77075 0.05657 0.13500
C 	C 	0.77180 0.64914 0.17240 0.21600
C 	C 	0.70800 0.64858 0.18340 -0.24400
H 	H 	0.70100 0.63150 0.20750 0.09900
C 	C 	0.65530 0.67266 0.15940 0.11300
H 	H 	0.61300 0.67150 0.16700 -0.06100
C 	C 	0.66440 0.69891 0.12386 -0.19100
C 	C 	0.72940 0.69987 0.11430 0.11000
H 	H 	0.73740 0.71730 0.09120 -0.06100
C 	C 	0.78140 0.67551 0.13840 -0.24400
H 	H 	0.82420 0.67690 0.13150 0.10000
C 	C 	0.60760 0.72383 0.09516 0.12700
C 	C 	0.38960 0.84379 0.08520 -0.23600
H 	H 	0.41790 0.83920 0.12230 0.09800
C 	C 	0.38300 0.87788 0.06530 0.20900
C 	C 	0.33650 0.88458 0.01190 -0.23700
H 	H 	0.32790 0.90760 0.99930 0.10000
C 	C 	0.30260 0.85759 0.97730 0.10700
H 	H 	0.27260 0.86260 0.94090 -0.05400
C 	C 	0.31220 0.82269 0.99533 -0.18000
C 	C 	0.35440 0.81620 0.05040 0.10400
H 	H 	0.35950 0.79340 0.06440 -0.05800
C 	C 	0.28290 0.79427 0.95511 0.12400
C 	C 	0.06770 0.73560 0.72390 0.20000
C 	C 	0.10820 0.71060 0.76080 -0.24900
H 	H 	0.10370 0.68700 0.75040 0.10400
C 	C 	0.15510 0.72036 0.81270 0.10800
H 	H 	0.18160 0.70320 0.83710 -0.06200
C 	C 	0.16350 0.75540 0.82935 -0.18900
C 	C 	0.12270 0.78018 0.79160 0.09700
H 	H 	0.12740 0.80380 0.80160 -0.06500
C 	C 	0.07520 0.77040 0.73960 -0.23400
H 	H 	0.04830 0.78740 0.71510 0.07500
C 	C 	0.21820 0.76583 0.88229 0.12200
N 	N 	0.69750 0.53590 0.01690 -0.34200
N 	N 	0.43450 0.91840 0.27910 -0.31900
H 	H 	0.44990 0.92470 0.31390 0.12700
H 	H 	0.45910 0.92290 0.25780 0.12400
Cu	Cu	0.46079 0.37256 0.16848 0.76500
Cu	Cu	0.90625 0.24542 0.99988 0.81100
Cu	Cu	0.20450 0.28197 0.11776 0.82800
Cu	Cu	0.99325 0.17124 0.06788 0.81300
Cu	Cu	0.68354 0.29305 0.11707 0.83100
Cu	Cu	0.44796 0.52606 0.13453 0.82600
Cu	Cu	0.65058 0.33096 0.90803 0.81300
Cu	Cu	0.39083 0.40592 0.25336 0.77900
Br	Br	0.86915 0.17906 0.98909 -0.74700
N 	N 	0.55186 0.35234 0.17023 -0.27700
N 	N 	0.64075 0.32495 0.15353 -0.27800
N 	N 	0.61401 0.36978 0.19855 -0.27100
N 	N 	0.35380 0.22804 0.03770 -0.32200
H 	H 	0.31490 0.23500 0.01280 0.11300
H 	H 	0.35880 0.20640 0.04790 0.13400
N 	N 	0.90821 0.12856 0.10727 -0.25600
N 	N 	0.94139 0.07286 0.11046 -0.28900
N 	N 	0.96869 0.12680 0.09208 -0.24700
N 	N 	0.63450 0.06090 0.14900 -0.32100
H 	H 	0.61060 0.04310 0.13160 0.12900
H 	H 	0.61810 0.07390 0.16970 0.12800
H 	H 	0.23240 0.04900 0.01450 0.14100
H 	H 	0.19590 0.01440 0.00840 0.13800
N 	N 	0.38556 0.33883 0.16422 -0.27000
N 	N 	0.40608 0.31011 0.19995 -0.27200
N 	N 	0.29336 0.30277 0.14819 -0.29000
N 	N 	0.14730 0.42358 0.96120 -0.32600
H 	H 	0.14360 0.44550 0.96770 0.12600
H 	H 	0.12540 0.41510 0.92820 0.13100
N 	N 	0.36790 0.16832 0.32210 -0.33100
H 	H 	0.33650 0.16460 0.33770 0.13900
H 	H 	0.40340 0.15430 0.32830 0.13400
N 	N 	0.40785 0.43668 0.20175 -0.26700
N 	N 	0.44927 0.42305 0.17247 -0.28100
N 	N 	0.26150 0.55205 0.30950 -0.33000
H 	H 	0.27920 0.57160 0.32520 0.14500
H 	H 	0.22240 0.54440 0.31220 0.13600
N 	N 	0.44615 0.48094 0.16287 -0.28800
N 	N 	0.67340 0.41788 0.04630 -0.33400
H 	H 	0.66480 0.40110 0.02210 0.15500
H 	H 	0.71260 0.42940 0.05460 0.14100
N 	N 	0.00425 0.24535 0.04567 -0.25700
N 	N 	0.03992 0.21491 0.07043 -0.25800
N 	N 	0.11842 0.25841 0.08763 -0.28700
N 	N 	0.99130 0.41234 0.98870 -0.31500
H 	H 	0.96000 0.41700 0.95640 0.13700
H 	H 	0.01260 0.42910 0.01070 0.12600
N 	N 	0.32370 0.12413 0.19540 -0.32800
H 	H 	0.36290 0.12490 0.18850 0.13200
H 	H 	0.31680 0.10780 0.21660 0.13400
N 	N 	0.81737 0.26478 0.95330 -0.24800
N 	N 	0.72004 0.29586 0.91167 -0.28600
N 	N 	0.77587 0.24657 0.90620 -0.24500
N 	N 	0.92230 0.40528 0.09950 -0.32500
H 	H 	0.91730 0.42650 0.08700 0.13300
H 	H 	0.95120 0.40080 0.13280 0.13600
N 	N 	0.51850 0.22610 0.67130 -0.31600
H 	H 	0.49340 0.24200 0.64910 0.11600
H 	H 	0.51350 0.20440 0.66120 0.13500
C 	C 	0.40880 0.25180 0.06130 0.19500
C 	C 	0.40140 0.28637 0.04530 -0.23300
H 	H 	0.35990 0.29380 0.01740 0.09400
C 	C 	0.45490 0.31054 0.07000 0.07600
H 	H 	0.44890 0.33390 0.05880 -0.03900
C 	C 	0.51710 0.29986 0.11131 -0.19200
C 	C 	0.52520 0.26493 0.12610 0.05400
H 	H 	0.56750 0.25720 0.15260 -0.03300
C 	C 	0.47140 0.24114 0.10200 -0.22900
H 	H 	0.47720 0.21770 0.11330 0.09500
C 	C 	0.57000 0.32584 0.14383 0.10900
C 	C 	0.84370 0.38890 0.19960 -0.23200
H 	H 	0.87150 0.39250 0.17710 0.09900
C 	C 	0.86780 0.40060 0.25660 0.20300
C 	C 	0.82930 0.39350 0.28840 -0.25500
H 	H 	0.84550 0.40050 0.32600 0.10100
C 	C 	0.76510 0.37588 0.26700 0.09200
H 	H 	0.73910 0.37090 0.29050 -0.05500
C 	C 	0.73930 0.36566 0.21101 -0.18000
C 	C 	0.77930 0.37218 0.17780 0.10300
H 	H 	0.76290 0.36530 0.14010 -0.02600
C 	C 	0.66640 0.35271 0.18833 0.13700
C 	C 	0.14740 0.05020 0.03600 0.25000
C 	C 	0.14880 0.08570 0.05130 -0.28300
H 	H 	0.18550 0.10000 0.04920 0.12100
C 	C 	0.09680 0.09976 0.06930 0.15600
H 	H 	0.09770 0.12360 0.07780 -0.07300
C 	C 	0.04320 0.07886 0.07490 -0.22200
C 	C 	0.04120 0.04391 0.05860 0.17000
H 	H 	0.00470 0.02950 0.06070 -0.09300
C 	C 	0.09240 0.03026 0.03940 -0.29600
H 	H 	0.08950 0.00680 0.02840 0.11900
C 	C 	0.98680 0.09315 0.09372 0.15400
C 	C 	0.72730 0.04794 0.11070 -0.23500
H 	H 	0.70260 0.02800 0.09340 0.09200
C 	C 	0.70070 0.06879 0.14380 0.20300
C 	C 	0.73960 0.09749 0.17140 -0.23500
H 	H 	0.72330 0.11100 0.19530 0.09500
C 	C 	0.80240 0.10603 0.16340 0.09900
H 	H 	0.82750 0.12570 0.18130 -0.04800
C 	C 	0.82890 0.08600 0.12930 -0.18500
C 	C 	0.79030 0.05661 0.10320 0.09900
H 	H 	0.80730 0.04260 0.08030 -0.05700
C 	C 	0.89310 0.09581 0.11716 0.12100
C 	C 	0.18900 0.40163 0.00440 0.21000
C 	C 	0.22460 0.41450 0.05750 -0.25300
H 	H 	0.22010 0.43810 0.06530 0.09800
C 	C 	0.26720 0.39261 0.09940 0.11800
H 	H 	0.29150 0.40180 0.13500 -0.06100
C 	C 	0.27420 0.35753 0.08930 -0.19200
C 	C 	0.23860 0.34488 0.03560 0.10600
H 	H 	0.24320 0.32130 0.02760 -0.04800
C 	C 	0.19650 0.36643 0.99360 -0.24700
H 	H 	0.17290 0.35730 0.95790 0.09800
C 	C 	0.31790 0.33363 0.13392 0.12900
C 	C 	0.30450 0.21966 0.27660 -0.24900
H 	H 	0.26910 0.21500 0.29170 0.10100
C 	C 	0.29960 0.24940 0.24390 0.08900
H 	H 	0.26150 0.26470 0.23790 -0.05200
C 	C 	0.35130 0.25648 0.22003 -0.18100
C 	C 	0.40650 0.23269 0.22809 0.09000
H 	H 	0.44050 0.23670 0.21120 -0.03500
C 	C 	0.41120 0.20326 0.26100 -0.23300
H 	H 	0.44830 0.18750 0.26580 0.09300
C 	C 	0.36140 0.19677 0.28710 0.21100
C 	C 	0.35050 0.28922 0.18924 0.13100
C 	C 	0.26710 0.50171 0.25210 -0.23600
H 	H 	0.22380 0.49380 0.25340 0.09700
C 	C 	0.29630 0.53283 0.27970 0.21300
C 	C 	0.35870 0.54490 0.27510 -0.24600
H 	H 	0.37780 0.56600 0.29210 0.09400
C 	C 	0.39390 0.52589 0.24550 0.09000
H 	H 	0.43600 0.53440 0.24250 -0.06900
C 	C 	0.36620 0.49407 0.22023 -0.17900
C 	C 	0.30200 0.48267 0.22300 0.09500
H 	H 	0.28200 0.46190 0.20500 -0.04000
C 	C 	0.40660 0.47120 0.19493 0.12100
C 	C 	0.63560 0.45402 0.10980 -0.24100
H 	H 	0.67780 0.46660 0.11980 0.10200
C 	C 	0.62460 0.42631 0.07170 0.21200
C 	C 	0.56170 0.40799 0.05870 -0.23100
H 	H 	0.55370 0.38910 0.03380 0.09800
C 	C 	0.51050 0.41675 0.08153 0.09100
H 	H 	0.46820 0.40410 0.07140 -0.04300
C 	C 	0.52160 0.44465 0.11987 -0.19100
C 	C 	0.58430 0.46299 0.13280 0.07700
H 	H 	0.59240 0.48190 0.15770 -0.03000
C 	C 	0.47190 0.45012 0.15019 0.11100
C 	C 	0.00740 0.37783 0.00500 0.20300
C 	C 	0.05790 0.36940 0.05710 -0.23700
H 	H 	0.08180 0.38730 0.08120 0.09800
C 	C 	0.07290 0.33501 0.07350 0.11400
H 	H 	0.10700 0.33010 0.10840 -0.06500
C 	C 	0.03770 0.30735 0.03885 -0.19800
C 	C 	0.98800 0.31605 0.98680 0.12900
H 	H 	0.96380 0.29820 0.96280 -0.06500
C 	C 	0.97370 0.35037 0.97010 -0.23600
H 	H 	0.94080 0.35530 0.93470 0.10000
C 	C 	0.05250 0.27075 0.05657 0.13500
C 	C 	0.27180 0.14914 0.17240 0.21600
C 	C 	0.20800 0.14858 0.18340 -0.24400
H 	H 	0.20100 0.13150 0.20750 0.09900
C 	C 	0.15530 0.17266 0.15940 0.11300
H 	H 	0.11300 0.17150 0.16700 -0.06200
C 	C 	0.16440 0.19891 0.12386 -0.19100
C 	C 	0.22940 0.19987 0.11430 0.11000
H 	H 	0.23740 0.21730 0.09120 -0.06100
C 	C 	0.28140 0.17551 0.13840 -0.24300
H 	H 	0.32420 0.17690 0.13150 0.10000
C 	C 	0.10760 0.22383 0.09516 0.12700
C 	C 	0.88960 0.34379 0.08520 -0.23800
H 	H 	0.91790 0.33920 0.12230 0.10100
C 	C 	0.88300 0.37788 0.06530 0.21500
C 	C 	0.83650 0.38458 0.01190 -0.24500
H 	H 	0.82790 0.40760 0.99930 0.10500
C 	C 	0.80260 0.35759 0.97730 0.11400
H 	H 	0.77260 0.36260 0.94090 -0.05600
C 	C 	0.81220 0.32269 0.99533 -0.18100
C 	C 	0.85440 0.31620 0.05040 0.10600
H 	H 	0.85950 0.29340 0.06440 -0.05900
C 	C 	0.78290 0.29427 0.95511 0.12500
C 	C 	0.56770 0.23560 0.72390 0.20000
C 	C 	0.60820 0.21060 0.76080 -0.24800
H 	H 	0.60370 0.18700 0.75040 0.10500
C 	C 	0.65510 0.22036 0.81270 0.10800
H 	H 	0.68160 0.20320 0.83710 -0.06200
C 	C 	0.66350 0.25540 0.82935 -0.18800
C 	C 	0.62270 0.28018 0.79160 0.09700
H 	H 	0.62740 0.30380 0.80160 -0.06400
C 	C 	0.57520 0.27040 0.73960 -0.23200
H 	H 	0.54830 0.28740 0.71510 0.07700
C 	C 	0.71820 0.26583 0.88229 0.12200
N 	N 	0.19750 0.03590 0.01690 -0.34300
N 	N 	0.93450 0.41840 0.27910 -0.32000
H 	H 	0.94990 0.42470 0.31390 0.13000
H 	H 	0.95910 0.42290 0.25780 0.12700
Cu	Cu	0.03921 0.87256 0.33152 0.76300
Cu	Cu	0.59375 0.74542 0.50012 0.80900
Cu	Cu	0.29550 0.78197 0.38224 0.82800
Cu	Cu	0.50675 0.67124 0.43212 0.80900
Cu	Cu	0.81646 0.79305 0.38293 0.83100
Cu	Cu	0.05204 0.02606 0.36547 0.82400
Cu	Cu	0.84942 0.83096 0.59197 0.81400
Cu	Cu	0.10917 0.90592 0.24664 0.77800
Br	Br	0.63085 0.67906 0.51091 -0.74900
N 	N 	0.94814 0.85234 0.32977 -0.27400
N 	N 	0.85925 0.82495 0.34647 -0.27800
N 	N 	0.88599 0.86978 0.30145 -0.27100
N 	N 	0.14620 0.72804 0.46230 -0.32200
H 	H 	0.18510 0.73500 0.48720 0.11300
H 	H 	0.14120 0.70640 0.45210 0.13300
N 	N 	0.59179 0.62856 0.39273 -0.25600
N 	N 	0.55861 0.57286 0.38954 -0.28800
N 	N 	0.53131 0.62680 0.40792 -0.24700
N 	N 	0.86550 0.56090 0.35100 -0.32200
H 	H 	0.88940 0.54310 0.36840 0.13000
H 	H 	0.88190 0.57390 0.33030 0.12900
H 	H 	0.26760 0.54900 0.48550 0.14000
H 	H 	0.30410 0.51440 0.49160 0.13700
N 	N 	0.11444 0.83883 0.33578 -0.27000
N 	N 	0.09392 0.81011 0.30005 -0.27200
N 	N 	0.20664 0.80277 0.35181 -0.29000
N 	N 	0.35270 0.92358 0.53880 -0.32500
H 	H 	0.35640 0.94550 0.53230 0.12800
H 	H 	0.37460 0.91510 0.57180 0.13200
N 	N 	0.13210 0.66832 0.17790 -0.33100
H 	H 	0.16350 0.66460 0.16230 0.13800
H 	H 	0.09660 0.65430 0.17170 0.13300
N 	N 	0.09215 0.93668 0.29825 -0.26700
N 	N 	0.05073 0.92305 0.32753 -0.28100
N 	N 	0.23850 0.05205 0.19050 -0.33000
H 	H 	0.22080 0.07160 0.17480 0.14500
H 	H 	0.27760 0.04440 0.18780 0.13600
N 	N 	0.05385 0.98094 0.33713 -0.28800
N 	N 	0.82660 0.91788 0.45370 -0.33500
H 	H 	0.83520 0.90110 0.47790 0.15500
H 	H 	0.78740 0.92940 0.44540 0.14100
N 	N 	0.49575 0.74535 0.45433 -0.25400
N 	N 	0.46008 0.71491 0.42957 -0.25600
N 	N 	0.38158 0.75841 0.41237 -0.28700
N 	N 	0.50870 0.91234 0.51130 -0.33100
H 	H 	0.54000 0.91700 0.54360 0.13900
H 	H 	0.48740 0.92910 0.48930 0.13500
N 	N 	0.17630 0.62413 0.30460 -0.32700
H 	H 	0.13710 0.62490 0.31150 0.13100
H 	H 	0.18320 0.60780 0.28340 0.13300
N 	N 	0.68263 0.76478 0.54670 -0.24800
N 	N 	0.77996 0.79586 0.58833 -0.28500
N 	N 	0.72413 0.74657 0.59380 -0.24500
N 	N 	0.57770 0.90528 0.40050 -0.32400
H 	H 	0.58270 0.92650 0.41300 0.13000
H 	H 	0.54880 0.90080 0.36720 0.13300
N 	N 	0.98150 0.72610 0.82870 -0.30700
H 	H 	0.00660 0.74200 0.85090 0.10500
H 	H 	0.98650 0.70440 0.83880 0.13600
C 	C 	0.09120 0.75180 0.43870 0.19600
C 	C 	0.09860 0.78637 0.45470 -0.23000
H 	H 	0.14010 0.79380 0.48260 0.09300
C 	C 	0.04510 0.81054 0.43000 0.06400
H 	H 	0.05110 0.83390 0.44120 -0.03700
C 	C 	0.98290 0.79986 0.38869 -0.18400
C 	C 	0.97480 0.76493 0.37390 0.06600
H 	H 	0.93250 0.75720 0.34740 -0.03600
C 	C 	0.02860 0.74114 0.39800 -0.24200
H 	H 	0.02280 0.71770 0.38670 0.09700
C 	C 	0.93000 0.82584 0.35617 0.10800
C 	C 	0.65630 0.88890 0.30040 -0.23100
H 	H 	0.62850 0.89250 0.32290 0.09800
C 	C 	0.63220 0.90060 0.24340 0.20000
C 	C 	0.67070 0.89350 0.21160 -0.25400
H 	H 	0.65450 0.90050 0.17400 0.10000
C 	C 	0.73490 0.87588 0.23300 0.09100
H 	H 	0.76090 0.87090 0.20950 -0.05500
C 	C 	0.76070 0.86566 0.28899 -0.17900
C 	C 	0.72070 0.87218 0.32220 0.10200
H 	H 	0.73710 0.86530 0.35990 -0.02500
C 	C 	0.83360 0.85271 0.31167 0.13700
C 	C 	0.35260 0.55020 0.46400 0.24500
C 	C 	0.35120 0.58570 0.44870 -0.27600
H 	H 	0.31450 0.60000 0.45080 0.11900
C 	C 	0.40320 0.59976 0.43070 0.14700
H 	H 	0.40230 0.62360 0.42220 -0.06900
C 	C 	0.45680 0.57886 0.42510 -0.20700
C 	C 	0.45880 0.54391 0.44140 0.16100
H 	H 	0.49530 0.52950 0.43930 -0.08600
C 	C 	0.40760 0.53026 0.46060 -0.28800
H 	H 	0.41050 0.50680 0.47160 0.11700
C 	C 	0.51320 0.59315 0.40628 0.14300
C 	C 	0.77270 0.54794 0.38930 -0.23600
H 	H 	0.79740 0.52800 0.40660 0.09300
C 	C 	0.79930 0.56879 0.35620 0.20400
C 	C 	0.76040 0.59749 0.32860 -0.23600
H 	H 	0.77670 0.61100 0.30470 0.09500
C 	C 	0.69760 0.60603 0.33660 0.10000
H 	H 	0.67250 0.62570 0.31870 -0.04900
C 	C 	0.67110 0.58600 0.37070 -0.18600
C 	C 	0.70970 0.55661 0.39680 0.10000
H 	H 	0.69270 0.54260 0.41970 -0.05800
C 	C 	0.60690 0.59581 0.38284 0.12100
C 	C 	0.31100 0.90163 0.49560 0.20300
C 	C 	0.27540 0.91450 0.44250 -0.24900
H 	H 	0.27990 0.93810 0.43470 0.09600
C 	C 	0.23280 0.89261 0.40060 0.11400
H 	H 	0.20850 0.90180 0.36500 -0.06000
C 	C 	0.22580 0.85753 0.41070 -0.18800
C 	C 	0.26140 0.84488 0.46440 0.09900
H 	H 	0.25680 0.82130 0.47240 -0.04600
C 	C 	0.30350 0.86643 0.50640 -0.23800
H 	H 	0.32710 0.85730 0.54210 0.09500
C 	C 	0.18210 0.83363 0.36608 0.12700
C 	C 	0.19550 0.71966 0.22340 -0.24900
H 	H 	0.23090 0.71500 0.20830 0.10100
C 	C 	0.20040 0.74940 0.25610 0.08900
H 	H 	0.23850 0.76470 0.26210 -0.05200
C 	C 	0.14870 0.75648 0.27997 -0.18100
C 	C 	0.09350 0.73269 0.27191 0.09000
H 	H 	0.05950 0.73670 0.28880 -0.03700
C 	C 	0.08880 0.70326 0.23900 -0.23300
H 	H 	0.05170 0.68750 0.23420 0.09100
C 	C 	0.13860 0.69677 0.21290 0.21000
C 	C 	0.14950 0.78922 0.31076 0.13100
C 	C 	0.23290 0.00171 0.24790 -0.23700
H 	H 	0.27620 0.99380 0.24660 0.09800
C 	C 	0.20370 0.03283 0.22030 0.21300
C 	C 	0.14130 0.04490 0.22490 -0.24700
H 	H 	0.12220 0.06600 0.20790 0.09300
C 	C 	0.10610 0.02589 0.25450 0.09100
H 	H 	0.06400 0.03440 0.25750 -0.07200
C 	C 	0.13380 0.99407 0.27977 -0.18000
C 	C 	0.19800 0.98267 0.27700 0.09600
H 	H 	0.21800 0.96190 0.29500 -0.04000
C 	C 	0.09340 0.97120 0.30507 0.12100
C 	C 	0.86440 0.95402 0.39020 -0.24400
H 	H 	0.82220 0.96660 0.38020 0.10300
C 	C 	0.87540 0.92631 0.42830 0.21700
C 	C 	0.93830 0.90799 0.44130 -0.24200
H 	H 	0.94630 0.88910 0.46620 0.10300
C 	C 	0.98950 0.91675 0.41847 0.11200
H 	H 	0.03180 0.90410 0.42860 -0.05600
C 	C 	0.97840 0.94465 0.38013 -0.19000
C 	C 	0.91570 0.96299 0.36720 0.07900
H 	H 	0.90760 0.98190 0.34230 -0.02900
C 	C 	0.02810 0.95012 0.34981 0.10400
C 	C 	0.49260 0.87783 0.49500 0.22300
C 	C 	0.44210 0.86940 0.44290 -0.24500
H 	H 	0.41820 0.88730 0.41880 0.10200
C 	C 	0.42710 0.83501 0.42650 0.11800
H 	H 	0.39300 0.83010 0.39160 -0.06600
C 	C 	0.46230 0.80735 0.46115 -0.19300
C 	C 	0.51200 0.81605 0.51320 0.12500
H 	H 	0.53620 0.79820 0.53720 -0.06600
C 	C 	0.52630 0.85037 0.52990 -0.25200
H 	H 	0.55920 0.85530 0.56530 0.10400
C 	C 	0.44750 0.77075 0.44343 0.13500
C 	C 	0.22820 0.64914 0.32760 0.21500
C 	C 	0.29200 0.64858 0.31660 -0.24300
H 	H 	0.29900 0.63150 0.29250 0.09900
C 	C 	0.34470 0.67266 0.34060 0.11200
H 	H 	0.38700 0.67150 0.33300 -0.06100
C 	C 	0.33560 0.69891 0.37614 -0.19000
C 	C 	0.27060 0.69987 0.38570 0.10900
H 	H 	0.26260 0.71730 0.40880 -0.06100
C 	C 	0.21860 0.67551 0.36160 -0.24200
H 	H 	0.17580 0.67690 0.36850 0.09900
C 	C 	0.39240 0.72383 0.40484 0.12700
C 	C 	0.61040 0.84379 0.41480 -0.23700
H 	H 	0.58210 0.83920 0.37770 0.09900
C 	C 	0.61700 0.87788 0.43470 0.21200
C 	C 	0.66350 0.88458 0.48810 -0.24400
H 	H 	0.67210 0.90760 0.50070 0.10400
C 	C 	0.69740 0.85759 0.52270 0.11300
H 	H 	0.72740 0.86260 0.55910 -0.05600
C 	C 	0.68780 0.82269 0.50467 -0.18000
C 	C 	0.64560 0.81620 0.44960 0.10400
H 	H 	0.64050 0.79340 0.43560 -0.05900
C 	C 	0.71710 0.79427 0.54489 0.12400
C 	C 	0.93230 0.73560 0.77610 0.20100
C 	C 	0.89180 0.71060 0.73920 -0.24700
H 	H 	0.89630 0.68700 0.74960 0.10500
C 	C 	0.84490 0.72036 0.68730 0.10800
H 	H 	0.81840 0.70320 0.66290 -0.06200
C 	C 	0.83650 0.75540 0.67065 -0.18800
C 	C 	0.87730 0.78018 0.70840 0.09800
H 	H 	0.87260 0.80380 0.69840 -0.06300
C 	C 	0.92480 0.77040 0.76040 -0.23100
H 	H 	0.95170 0.78740 0.78490 0.08000
C 	C 	0.78180 0.76583 0.61771 0.12200
N 	N 	0.30250 0.53590 0.48310 -0.34100
N 	N 	0.56550 0.91840 0.22090 -0.31900
H 	H 	0.55010 0.92470 0.18610 0.12700
H 	H 	0.54090 0.92290 0.24220 0.12400
Cu	Cu	0.53921 0.37256 0.33152 0.76500
Cu	Cu	0.09375 0.24542 0.50012 0.80700
Cu	Cu	0.79550 0.28197 0.38224 0.82800
Cu	Cu	0.00675 0.17124 0.43212 0.80600
Cu	Cu	0.31646 0.29305 0.38293 0.83100
Cu	Cu	0.55204 0.52606 0.36547 0.82600
Cu	Cu	0.34942 0.33096 0.59197 0.81300
Cu	Cu	0.60917 0.40592 0.24664 0.77900
Br	Br	0.13085 0.17906 0.51091 -0.75100
N 	N 	0.44814 0.35234 0.32977 -0.27700
N 	N 	0.35925 0.32495 0.34647 -0.27800
N 	N 	0.38599 0.36978 0.30145 -0.27100
N 	N 	0.64620 0.22804 0.46230 -0.32200
H 	H 	0.68510 0.23500 0.48720 0.11300
H 	H 	0.64120 0.20640 0.45210 0.13400
N 	N 	0.09179 0.12856 0.39273 -0.25600
N 	N 	0.05861 0.07286 0.38954 -0.28800
N 	N 	0.03131 0.12680 0.40792 -0.24700
N 	N 	0.36550 0.06090 0.35100 -0.32200
H 	H 	0.38940 0.04310 0.36840 0.12900
H 	H 	0.38190 0.07390 0.33030 0.12800
H 	H 	0.76760 0.04900 0.48550 0.14000
H 	H 	0.80410 0.01440 0.49160 0.13700
N 	N 	0.61444 0.33883 0.33578 -0.27000
N 	N 	0.59392 0.31011 0.30005 -0.27200
N 	N 	0.70664 0.30277 0.35181 -0.29000
N 	N 	0.85270 0.42358 0.53880 -0.32500
H 	H 	0.85640 0.44550 0.53230 0.12900
H 	H 	0.87460 0.41510 0.57180 0.13400
N 	N 	0.63210 0.16832 0.17790 -0.33100
H 	H 	0.66350 0.16460 0.16230 0.13900
H 	H 	0.59660 0.15430 0.17170 0.13400
N 	N 	0.59215 0.43668 0.29825 -0.26700
N 	N 	0.55073 0.42305 0.32753 -0.28100
N 	N 	0.73850 0.55205 0.19050 -0.33000
H 	H 	0.72080 0.57160 0.17480 0.14600
H 	H 	0.77760 0.54440 0.18780 0.13700
N 	N 	0.55385 0.48094 0.33713 -0.28800
N 	N 	0.32660 0.41788 0.45370 -0.33400
H 	H 	0.33520 0.40110 0.47790 0.15400
H 	H 	0.28740 0.42940 0.44540 0.14000
N 	N 	0.99575 0.24535 0.45433 -0.25100
N 	N 	0.96008 0.21491 0.42957 -0.25300
N 	N 	0.88158 0.25841 0.41237 -0.28700
N 	N 	0.00870 0.41234 0.51130 -0.34800
H 	H 	0.04000 0.41700 0.54360 0.14100
H 	H 	0.98740 0.42910 0.48930 0.14600
N 	N 	0.67630 0.12413 0.30460 -0.32800
H 	H 	0.63710 0.12490 0.31150 0.13200
H 	H 	0.68320 0.10780 0.28340 0.13400
N 	N 	0.18263 0.26478 0.54670 -0.24800
N 	N 	0.27996 0.29586 0.58833 -0.28500
N 	N 	0.22413 0.24657 0.59380 -0.24500
N 	N 	0.07770 0.40528 0.40050 -0.32200
H 	H 	0.08270 0.42650 0.41300 0.12800
H 	H 	0.04880 0.40080 0.36720 0.13000
N 	N 	0.48150 0.22610 0.82870 -0.31600
H 	H 	0.50660 0.24200 0.85090 0.11600
H 	H 	0.48650 0.20440 0.83880 0.13500
C 	C 	0.59120 0.25180 0.43870 0.19400
C 	C 	0.59860 0.28637 0.45470 -0.23300
H 	H 	0.64010 0.29380 0.48260 0.09400
C 	C 	0.54510 0.31054 0.43000 0.07600
H 	H 	0.55110 0.33390 0.44120 -0.04000
C 	C 	0.48290 0.29986 0.38869 -0.19200
C 	C 	0.47480 0.26493 0.37390 0.05300
H 	H 	0.43250 0.25720 0.34740 -0.03300
C 	C 	0.52860 0.24114 0.39800 -0.22900
H 	H 	0.52280 0.21770 0.38670 0.09500
C 	C 	0.43000 0.32584 0.35617 0.10800
C 	C 	0.15630 0.38890 0.30040 -0.23000
H 	H 	0.12850 0.39250 0.32290 0.09800
C 	C 	0.13220 0.40060 0.24340 0.19900
C 	C 	0.17070 0.39350 0.21160 -0.25300
H 	H 	0.15450 0.40050 0.17400 0.10000
C 	C 	0.23490 0.37588 0.23300 0.09000
H 	H 	0.26090 0.37090 0.20950 -0.05500
C 	C 	0.26070 0.36566 0.28899 -0.17900
C 	C 	0.22070 0.37218 0.32220 0.10100
H 	H 	0.23710 0.36530 0.35990 -0.02500
C 	C 	0.33360 0.35271 0.31167 0.13600
C 	C 	0.85260 0.05020 0.46400 0.24000
C 	C 	0.85120 0.08570 0.44870 -0.26900
H 	H 	0.81450 0.10000 0.45080 0.11600
C 	C 	0.90320 0.09976 0.43070 0.13700
H 	H 	0.90230 0.12360 0.42220 -0.06400
C 	C 	0.95680 0.07886 0.42510 -0.19100
C 	C 	0.95880 0.04391 0.44140 0.15100
H 	H 	0.99530 0.02950 0.43930 -0.07900
C 	C 	0.90760 0.03026 0.46060 -0.28000
H 	H 	0.91050 0.00680 0.47160 0.11600
C 	C 	0.01320 0.09315 0.40628 0.13100
C 	C 	0.27270 0.04794 0.38930 -0.23600
H 	H 	0.29740 0.02800 0.40660 0.09300
C 	C 	0.29930 0.06879 0.35620 0.20300
C 	C 	0.26040 0.09749 0.32860 -0.23600
H 	H 	0.27670 0.11100 0.30470 0.09500
C 	C 	0.19760 0.10603 0.33660 0.10000
H 	H 	0.17250 0.12570 0.31870 -0.04900
C 	C 	0.17110 0.08600 0.37070 -0.18600
C 	C 	0.20970 0.05661 0.39680 0.10000
H 	H 	0.19270 0.04260 0.41970 -0.05800
C 	C 	0.10690 0.09581 0.38284 0.12100
C 	C 	0.81100 0.40163 0.49560 0.20500
C 	C 	0.77540 0.41450 0.44250 -0.24900
H 	H 	0.77990 0.43810 0.43470 0.09700
C 	C 	0.73280 0.39261 0.40060 0.11400
H 	H 	0.70850 0.40180 0.36500 -0.06000
C 	C 	0.72580 0.35753 0.41070 -0.18800
C 	C 	0.76140 0.34488 0.46440 0.09900
H 	H 	0.75680 0.32130 0.47240 -0.04600
C 	C 	0.80350 0.36643 0.50640 -0.23800
H 	H 	0.82710 0.35730 0.54210 0.09600
C 	C 	0.68210 0.33363 0.36608 0.12800
C 	C 	0.69550 0.21966 0.22340 -0.24900
H 	H 	0.73090 0.21500 0.20830 0.10100
C 	C 	0.70040 0.24940 0.25610 0.08900
H 	H 	0.73850 0.26470 0.26210 -0.05200
C 	C 	0.64870 0.25648 0.27997 -0.18100
C 	C 	0.59350 0.23269 0.27191 0.09000
H 	H 	0.55950 0.23670 0.28880 -0.03500
C 	C 	0.58880 0.20326 0.23900 -0.23300
H 	H 	0.55170 0.18750 0.23420 0.09300
C 	C 	0.63860 0.19677 0.21290 0.21100
C 	C 	0.64950 0.28922 0.31076 0.13100
C 	C 	0.73290 0.50171 0.24790 -0.23600
H 	H 	0.77620 0.49380 0.24660 0.09800
C 	C 	0.70370 0.53283 0.22030 0.21300
C 	C 	0.64130 0.54490 0.22490 -0.24700
H 	H 	0.62220 0.56600 0.20790 0.09400
C 	C 	0.60610 0.52589 0.25450 0.09100
H 	H 	0.56400 0.53440 0.25750 -0.07000
C 	C 	0.63380 0.49407 0.27977 -0.18000
C 	C 	0.69800 0.48267 0.27700 0.09500
H 	H 	0.71800 0.46190 0.29500 -0.04000
C 	C 	0.59340 0.47120 0.30507 0.12100
C 	C 	0.36440 0.45402 0.39020 -0.24100
H 	H 	0.32220 0.46660 0.38020 0.10200
C 	C 	0.37540 0.42631 0.42830 0.21200
C 	C 	0.43830 0.40799 0.44130 -0.23100
H 	H 	0.44630 0.38910 0.46620 0.09800
C 	C 	0.48950 0.41675 0.41847 0.09100
H 	H 	0.53180 0.40410 0.42860 -0.04300
C 	C 	0.47840 0.44465 0.38013 -0.19100
C 	C 	0.41570 0.46299 0.36720 0.07700
H 	H 	0.40760 0.48190 0.34230 -0.03000
C 	C 	0.52810 0.45012 0.34981 0.11100
C 	C 	0.99260 0.37783 0.49500 0.24600
C 	C 	0.94210 0.36940 0.44290 -0.25500
H 	H 	0.91820 0.38730 0.41880 0.10600
C 	C 	0.92710 0.33501 0.42650 0.12300
H 	H 	0.89300 0.33010 0.39160 -0.06800
C 	C 	0.96230 0.30735 0.46115 -0.18700
C 	C 	0.01200 0.31605 0.51320 0.12200
H 	H 	0.03620 0.29820 0.53720 -0.06800
C 	C 	0.02630 0.35037 0.52990 -0.27100
H 	H 	0.05920 0.35530 0.56530 0.10900
C 	C 	0.94750 0.27075 0.44343 0.13600
C 	C 	0.72820 0.14914 0.32760 0.21500
C 	C 	0.79200 0.14858 0.31660 -0.24300
H 	H 	0.79900 0.13150 0.29250 0.09900
C 	C 	0.84470 0.17266 0.34060 0.11200
H 	H 	0.88700 0.17150 0.33300 -0.05900
C 	C 	0.83560 0.19891 0.37614 -0.18900
C 	C 	0.77060 0.19987 0.38570 0.10900
H 	H 	0.76260 0.21730 0.40880 -0.06100
C 	C 	0.71860 0.17551 0.36160 -0.24200
H 	H 	0.67580 0.17690 0.36850 0.09900
C 	C 	0.89240 0.22383 0.40484 0.12700
C 	C 	0.11040 0.34379 0.41480 -0.23600
H 	H 	0.08210 0.33920 0.37770 0.09700
C 	C 	0.11700 0.37788 0.43470 0.20900
C 	C 	0.16350 0.38458 0.48810 -0.24300
H 	H 	0.17210 0.40760 0.50070 0.10300
C 	C 	0.19740 0.35759 0.52270 0.11100
H 	H 	0.22740 0.36260 0.55910 -0.05500
C 	C 	0.18780 0.32269 0.50467 -0.18000
C 	C 	0.14560 0.31620 0.44960 0.10200
H 	H 	0.14050 0.29340 0.43560 -0.05900
C 	C 	0.21710 0.29427 0.54489 0.12400
C 	C 	0.43230 0.23560 0.77610 0.20000
C 	C 	0.39180 0.21060 0.73920 -0.24800
H 	H 	0.39630 0.18700 0.74960 0.10500
C 	C 	0.34490 0.22036 0.68730 0.10800
H 	H 	0.31840 0.20320 0.66290 -0.06200
C 	C 	0.33650 0.25540 0.67065 -0.18800
C 	C 	0.37730 0.28018 0.70840 0.09700
H 	H 	0.37260 0.30380 0.69840 -0.06400
C 	C 	0.42480 0.27040 0.76040 -0.23200
H 	H 	0.45170 0.28740 0.78490 0.07700
C 	C 	0.28180 0.26583 0.61771 0.12200
N 	N 	0.80250 0.03590 0.48310 -0.34000
N 	N 	0.06550 0.41840 0.22090 -0.31800
H 	H 	0.05010 0.42470 0.18610 0.12400
H 	H 	0.04090 0.42290 0.24220 0.12000
Cu	Cu	0.00000 0.19123 0.75000 0.76900
Cu	Cu	0.50000 0.69123 0.75000 0.77300
Cu	Cu	0.00000 0.80877 0.25000 0.76900
Cu	Cu	0.50000 0.30877 0.25000 0.77300
