data_crystal

_cell_length_a 20.01400
_cell_length_b 37.95600
_cell_length_c 25.08500
_cell_angle_alpha 90.00000
_cell_angle_beta  109.38400
_cell_angle_gamma 90.00000

_symmetry_space_group_name_	'P 1'
_symmetry_space_group_name_H-M	'P 1'

loop_
_symmetry_equiv_pos_as_xyz
  x,y,z

loop_
_atom_site_label
_atom_site_type_symbol
_atom_site_fract_x
_atom_site_fract_y
_atom_site_fract_z
_atom_site_charge
Cu	Cu	0.53876 0.12835 0.33183 0.76400
Cu	Cu	0.55257 0.97450 0.36737 0.82500
Cu	Cu	0.09297 0.25467 0.49684 0.81400
Cu	Cu	0.79508 0.21817 0.38101 0.82600
Cu	Cu	0.00644 0.32874 0.43246 0.81200
Cu	Cu	0.31729 0.20624 0.38765 0.83500
Cu	Cu	0.15222 0.33109 0.41260 0.81700
Cu	Cu	0.60857 0.09466 0.24621 0.77800
Cl	Cl	0.12515 0.31859 0.50786 -0.79800
N 	N 	0.55008 0.07760 0.32777 -0.28100
N 	N 	0.55336 0.01959 0.33785 -0.28900
N 	N 	0.59145 0.06390 0.29829 -0.26800
N 	N 	0.27889 0.20424 0.58395 -0.28500
N 	N 	0.22358 0.25403 0.58902 -0.24400
N 	N 	0.18240 0.23557 0.54221 -0.24700
N 	N 	0.99500 0.25440 0.45255 -0.24900
N 	N 	0.95933 0.28494 0.42823 -0.25100
N 	N 	0.88163 0.24144 0.41097 -0.28600
N 	N 	0.53323 0.87352 0.41127 -0.24700
N 	N 	0.59453 0.87213 0.39716 -0.25500
N 	N 	0.55982 0.92772 0.39271 -0.28900
N 	N 	0.38607 0.13070 0.30252 -0.27100
N 	N 	0.44786 0.14835 0.33080 -0.27700
N 	N 	0.35934 0.17466 0.34936 -0.27700
N 	N 	0.70585 0.19774 0.35050 -0.29000
N 	N 	0.61400 0.16213 0.33543 -0.26900
N 	N 	0.59334 0.19076 0.29985 -0.27200
N 	N 	0.67700 0.37607 0.30540 -0.33000
H 	H 	0.68380 0.39250 0.28420 0.13500
H 	H 	0.63810 0.37530 0.31290 0.13200
N 	N 	0.63170 0.33324 0.17690 -0.32900
H 	H 	0.59640 0.34730 0.17120 0.13400
H 	H 	0.66290 0.33710 0.16090 0.13700
N 	N 	0.32600 0.08505 0.45440 -0.33100
H 	H 	0.33440 0.10220 0.47810 0.15300
H 	H 	0.28680 0.07360 0.44630 0.14000
N 	N 	0.73890 0.94819 0.19060 -0.32900
H 	H 	0.72100 0.92870 0.17460 0.14500
H 	H 	0.77830 0.95570 0.18800 0.13500
N 	N 	0.64480 0.27342 0.46150 -0.31600
H 	H 	0.68410 0.26670 0.48590 0.11200
H 	H 	0.63920 0.29510 0.45090 0.13200
N 	N 	0.07630 0.09364 0.39840 -0.32100
H 	H 	0.08200 0.07240 0.41110 0.12800
H 	H 	0.04670 0.09790 0.36530 0.12900
N 	N 	0.00910 0.08668 0.50950 -0.34400
H 	H 	0.98810 0.06980 0.48730 0.14300
H 	H 	0.04060 0.08200 0.54150 0.14100
N 	N 	0.47810 0.27410 0.82536 -0.32000
H 	H 	0.50310 0.25810 0.84740 0.11900
H 	H 	0.48290 0.29580 0.83560 0.13700
N 	N 	0.85170 0.07679 0.53800 -0.32600
H 	H 	0.87170 0.08500 0.57150 0.13300
H 	H 	0.85680 0.05500 0.53090 0.12800
N 	N 	0.86530 0.94263 0.35490 -0.32700
H 	H 	0.88910 0.96040 0.37280 0.13100
H 	H 	0.88190 0.93000 0.33370 0.13000
N 	N 	0.29700 0.96393 0.47960 -0.33900
H 	H 	0.29810 0.98590 0.48810 0.13200
H 	H 	0.26250 0.95090 0.48100 0.14600
N 	N 	0.06820 0.08130 0.21870 -0.32000
H 	H 	0.05420 0.07540 0.18370 0.12600
H 	H 	0.04240 0.07650 0.23920 0.12100
C 	C 	0.21638 0.20594 0.54065 0.12500
C 	C 	0.14270 0.18332 0.44562 0.09700
H 	H 	0.13680 0.20620 0.43140 -0.05700
C 	C 	0.11520 0.12126 0.43160 0.20300
C 	C 	0.16280 0.11489 0.48460 -0.23300
H 	H 	0.17200 0.09180 0.49750 0.09900
C 	C 	0.18675 0.17730 0.50068 -0.17600
C 	C 	0.19720 0.14252 0.51912 0.10100
H 	H 	0.22790 0.13770 0.55530 -0.05500
C 	C 	0.10740 0.15578 0.41166 -0.23200
H 	H 	0.07800 0.16040 0.37500 0.09600
C 	C 	0.28064 0.23444 0.61346 0.11700
C 	C 	0.33480 0.24490 0.66661 -0.18100
C 	C 	0.37560 0.21984 0.70410 0.08700
H 	H 	0.37150 0.19620 0.69390 -0.06200
C 	C 	0.42280 0.22991 0.75700 -0.22600
H 	H 	0.44950 0.21280 0.78150 0.07700
C 	C 	0.34280 0.28000 0.68410 0.10100
H 	H 	0.31630 0.29730 0.66000 -0.06000
C 	C 	0.43010 0.26478 0.77320 0.20300
C 	C 	0.38960 0.28976 0.73680 -0.24600
H 	H 	0.39340 0.31330 0.74760 0.10400
C 	C 	0.60924 0.90487 0.38717 0.12500
C 	C 	0.67290 0.91542 0.37508 -0.19100
C 	C 	0.69980 0.89562 0.34030 0.10100
H 	H 	0.67550 0.87580 0.32200 -0.04800
C 	C 	0.76280 0.90532 0.33270 -0.24100
H 	H 	0.78000 0.89220 0.30870 0.09700
C 	C 	0.71060 0.94481 0.40140 0.10900
H 	H 	0.69290 0.95850 0.42440 -0.06000
C 	C 	0.80050 0.93430 0.36030 0.21500
C 	C 	0.77320 0.95416 0.39420 -0.24700
H 	H 	0.79740 0.97410 0.41230 0.09600
C 	C 	0.51436 0.90719 0.40905 0.14700
C 	C 	0.45750 0.95648 0.44270 0.16300
H 	H 	0.49420 0.97100 0.44110 -0.08600
C 	C 	0.40590 0.97010 0.46100 -0.29000
H 	H 	0.40820 0.99360 0.47190 0.11800
C 	C 	0.45670 0.92120 0.42621 -0.21100
C 	C 	0.40260 0.90026 0.43120 0.15300
H 	H 	0.40180 0.87640 0.42250 -0.07100
C 	C 	0.35000 0.91395 0.44860 -0.28100
H 	H 	0.31350 0.89950 0.45070 0.12100
C 	C 	0.35080 0.94951 0.46340 0.24200
C 	C 	0.72510 0.14310 0.41011 -0.19000
C 	C 	0.76060 0.15547 0.46376 0.10000
H 	H 	0.75610 0.17910 0.47190 -0.04700
C 	C 	0.73130 0.10793 0.40000 0.11400
H 	H 	0.70610 0.09860 0.36470 -0.05900
C 	C 	0.68143 0.16697 0.36541 0.12700
C 	C 	0.80280 0.13371 0.50590 -0.24200
H 	H 	0.82560 0.14270 0.54190 0.09700
C 	C 	0.77460 0.08590 0.44140 -0.24600
H 	H 	0.77930 0.06230 0.43320 0.09600
C 	C 	0.81100 0.09900 0.49490 0.20500
C 	C 	0.64842 0.24431 0.27881 -0.18600
C 	C 	0.69930 0.25150 0.25394 0.10100
H 	H 	0.73730 0.23620 0.25950 -0.05400
C 	C 	0.69430 0.28081 0.22145 -0.25400
H 	H 	0.72910 0.28520 0.20530 0.10300
C 	C 	0.59318 0.26843 0.27074 0.09600
H 	H 	0.55910 0.26450 0.28780 -0.03700
C 	C 	0.64934 0.21151 0.30993 0.13300
C 	C 	0.63840 0.30427 0.21201 0.21200
C 	C 	0.58840 0.29779 0.23810 -0.23700
H 	H 	0.55130 0.31360 0.23330 0.09400
C 	C 	0.59277 0.02933 0.30531 0.12500
C 	C 	0.63270 0.00648 0.27977 -0.18500
C 	C 	0.60600 0.97457 0.25419 0.09600
H 	H 	0.56370 0.96600 0.25690 -0.06900
C 	C 	0.70410 0.96756 0.22070 0.21500
C 	C 	0.69700 0.01788 0.27650 0.09900
H 	H 	0.71650 0.03890 0.29390 -0.04200
C 	C 	0.64100 0.95534 0.22470 -0.25000
H 	H 	0.62210 0.93420 0.20770 0.09400
C 	C 	0.73260 0.99874 0.24780 -0.24100
H 	H 	0.77600 0.00670 0.24660 0.10000
C 	C 	0.41540 0.03785 0.36827 0.06900
H 	H 	0.40740 0.01870 0.34380 -0.02700
C 	C 	0.43820 0.09418 0.44214 -0.22900
H 	H 	0.44630 0.11330 0.46670 0.09700
C 	C 	0.47790 0.05627 0.38132 -0.18600
C 	C 	0.52747 0.05062 0.35044 0.10900
C 	C 	0.48890 0.08452 0.41916 0.08800
H 	H 	0.53130 0.09700 0.42890 -0.04300
C 	C 	0.37550 0.07591 0.42920 0.20600
C 	C 	0.36400 0.04769 0.39150 -0.23300
H 	H 	0.32150 0.03540 0.38170 0.09800
C 	C 	0.96186 0.19225 0.45938 -0.18200
C 	C 	0.01220 0.18355 0.51118 0.11400
H 	H 	0.03640 0.20150 0.53510 -0.06400
C 	C 	0.92670 0.16441 0.42530 0.11800
H 	H 	0.89240 0.16920 0.39050 -0.06500
C 	C 	0.94180 0.12978 0.44210 -0.25100
H 	H 	0.91760 0.11170 0.41850 0.10400
C 	C 	0.94692 0.22894 0.44171 0.13600
C 	C 	0.02710 0.14899 0.52793 -0.26200
H 	H 	0.06100 0.14400 0.56280 0.10600
C 	C 	0.99220 0.12154 0.49340 0.24100
C 	C 	0.89196 0.27614 0.40366 0.12800
C 	C 	0.77120 0.30002 0.38575 0.11300
H 	H 	0.76350 0.28240 0.40890 -0.06300
C 	C 	0.71890 0.32452 0.36210 -0.24600
H 	H 	0.67640 0.32330 0.36960 0.10000
C 	C 	0.72860 0.35097 0.32750 0.22100
C 	C 	0.79140 0.35185 0.31590 -0.25000
H 	H 	0.79830 0.36910 0.29200 0.10200
C 	C 	0.84420 0.32738 0.33946 0.11400
H 	H 	0.88610 0.32840 0.33120 -0.05800
C 	C 	0.83519 0.30117 0.37552 -0.19300
C 	C 	0.33412 0.14714 0.31398 0.14000
C 	C 	0.26151 0.13410 0.28972 -0.18000
C 	C 	0.23750 0.12438 0.23420 0.09500
H 	H 	0.26450 0.12980 0.21140 -0.05800
C 	C 	0.22040 0.12713 0.32310 0.09800
H 	H 	0.23560 0.13380 0.36090 -0.02500
C 	C 	0.17430 0.10664 0.21080 -0.25100
H 	H 	0.15970 0.09990 0.17310 0.10000
C 	C 	0.13360 0.09910 0.24270 0.19900
C 	C 	0.15630 0.11000 0.29930 -0.23200
H 	H 	0.12770 0.10580 0.32120 0.09800
C 	C 	0.48250 0.20040 0.39051 -0.18600
C 	C 	0.47420 0.23562 0.37523 0.04900
H 	H 	0.43210 0.24310 0.34860 -0.02900
C 	C 	0.52700 0.25966 0.39850 -0.22200
H 	H 	0.52070 0.28310 0.38720 0.09400
C 	C 	0.59790 0.21400 0.45540 -0.22300
H 	H 	0.63950 0.20670 0.48290 0.09100
C 	C 	0.58960 0.24899 0.43880 0.18300
C 	C 	0.43003 0.17438 0.35853 0.10900
C 	C 	0.54470 0.18983 0.43145 0.07000
H 	H 	0.55070 0.16640 0.44290 -0.03700
Cu	Cu	0.03876 0.62835 0.33183 0.76300
Cu	Cu	0.05257 0.47450 0.36737 0.82400
Cu	Cu	0.59297 0.75467 0.49684 0.81700
Cu	Cu	0.29508 0.71817 0.38101 0.82700
Cu	Cu	0.50644 0.82874 0.43246 0.81600
Cu	Cu	0.81729 0.70624 0.38765 0.83600
Cu	Cu	0.65222 0.83109 0.41260 0.81900
Cu	Cu	0.10857 0.59466 0.24621 0.77800
Cl	Cl	0.62515 0.81859 0.50786 -0.79500
N 	N 	0.05008 0.57760 0.32777 -0.28000
N 	N 	0.05336 0.51959 0.33785 -0.28800
N 	N 	0.09145 0.56390 0.29829 -0.26800
N 	N 	0.77889 0.70424 0.58395 -0.28400
N 	N 	0.72358 0.75403 0.58902 -0.24300
N 	N 	0.68240 0.73557 0.54221 -0.24600
N 	N 	0.49500 0.75440 0.45255 -0.25200
N 	N 	0.45933 0.78494 0.42823 -0.25400
N 	N 	0.38163 0.74144 0.41097 -0.28600
N 	N 	0.03323 0.37352 0.41127 -0.24700
N 	N 	0.09453 0.37213 0.39716 -0.25500
N 	N 	0.05982 0.42772 0.39271 -0.28900
N 	N 	0.88607 0.63070 0.30252 -0.27100
N 	N 	0.94786 0.64835 0.33080 -0.27400
N 	N 	0.85934 0.67466 0.34936 -0.27600
N 	N 	0.20585 0.69774 0.35050 -0.29000
N 	N 	0.11400 0.66213 0.33543 -0.26900
N 	N 	0.09334 0.69076 0.29985 -0.27300
N 	N 	0.17700 0.87607 0.30540 -0.33000
H 	H 	0.18380 0.89250 0.28420 0.13500
H 	H 	0.13810 0.87530 0.31290 0.13100
N 	N 	0.13170 0.83324 0.17690 -0.32900
H 	H 	0.09640 0.84730 0.17120 0.13300
H 	H 	0.16290 0.83710 0.16090 0.13700
N 	N 	0.82600 0.58505 0.45440 -0.33200
H 	H 	0.83440 0.60220 0.47810 0.15300
H 	H 	0.78680 0.57360 0.44630 0.14100
N 	N 	0.23890 0.44819 0.19060 -0.32900
H 	H 	0.22100 0.42870 0.17460 0.14500
H 	H 	0.27830 0.45570 0.18800 0.13500
N 	N 	0.14480 0.77342 0.46150 -0.31700
H 	H 	0.18410 0.76670 0.48590 0.11200
H 	H 	0.13920 0.79510 0.45090 0.13200
N 	N 	0.57630 0.59364 0.39840 -0.32200
H 	H 	0.58200 0.57240 0.41110 0.13000
H 	H 	0.54670 0.59790 0.36530 0.13200
N 	N 	0.50910 0.58668 0.50950 -0.32700
H 	H 	0.48810 0.56980 0.48730 0.13200
H 	H 	0.54060 0.58200 0.54150 0.13800
N 	N 	0.97810 0.77410 0.82536 -0.31000
H 	H 	0.00310 0.75810 0.84740 0.10800
H 	H 	0.98290 0.79580 0.83560 0.13700
N 	N 	0.35170 0.57679 0.53800 -0.32500
H 	H 	0.37170 0.58500 0.57150 0.13200
H 	H 	0.35680 0.55500 0.53090 0.12700
N 	N 	0.36530 0.44263 0.35490 -0.32600
H 	H 	0.38910 0.46040 0.37280 0.12900
H 	H 	0.38190 0.43000 0.33370 0.12900
N 	N 	0.79700 0.46393 0.47960 -0.33800
H 	H 	0.79810 0.48590 0.48810 0.13200
H 	H 	0.76250 0.45090 0.48100 0.14600
N 	N 	0.56820 0.58130 0.21870 -0.32100
H 	H 	0.55420 0.57540 0.18370 0.12800
H 	H 	0.54240 0.57650 0.23920 0.12400
C 	C 	0.71638 0.70594 0.54065 0.12500
C 	C 	0.64270 0.68332 0.44562 0.09900
H 	H 	0.63680 0.70620 0.43140 -0.05700
C 	C 	0.61520 0.62126 0.43160 0.20600
C 	C 	0.66280 0.61489 0.48460 -0.23400
H 	H 	0.67200 0.59180 0.49750 0.10000
C 	C 	0.68675 0.67730 0.50068 -0.17700
C 	C 	0.69720 0.64252 0.51912 0.10300
H 	H 	0.72790 0.63770 0.55530 -0.05500
C 	C 	0.60740 0.65578 0.41166 -0.23300
H 	H 	0.57800 0.66040 0.37500 0.09800
C 	C 	0.78064 0.73444 0.61346 0.11700
C 	C 	0.83480 0.74490 0.66661 -0.18100
C 	C 	0.87560 0.71984 0.70410 0.08700
H 	H 	0.87150 0.69620 0.69390 -0.06100
C 	C 	0.92280 0.72991 0.75700 -0.22500
H 	H 	0.94950 0.71280 0.78150 0.07900
C 	C 	0.84280 0.78000 0.68410 0.10100
H 	H 	0.81630 0.79730 0.66000 -0.06000
C 	C 	0.93010 0.76478 0.77320 0.20300
C 	C 	0.88960 0.78976 0.73680 -0.24500
H 	H 	0.89340 0.81330 0.74760 0.10500
C 	C 	0.10924 0.40487 0.38717 0.12400
C 	C 	0.17290 0.41542 0.37508 -0.19100
C 	C 	0.19980 0.39562 0.34030 0.10100
H 	H 	0.17550 0.37580 0.32200 -0.04800
C 	C 	0.26280 0.40532 0.33270 -0.24000
H 	H 	0.28000 0.39220 0.30870 0.09600
C 	C 	0.21060 0.44481 0.40140 0.10800
H 	H 	0.19290 0.45850 0.42440 -0.06000
C 	C 	0.30050 0.43430 0.36030 0.21400
C 	C 	0.27320 0.45416 0.39420 -0.24700
H 	H 	0.29740 0.47410 0.41230 0.09500
C 	C 	0.01436 0.40719 0.40905 0.13500
C 	C 	0.95750 0.45648 0.44270 0.15300
H 	H 	0.99420 0.47100 0.44110 -0.07900
C 	C 	0.90590 0.47010 0.46100 -0.28200
H 	H 	0.90820 0.49360 0.47190 0.11600
C 	C 	0.95670 0.42120 0.42621 -0.19500
C 	C 	0.90260 0.40026 0.43120 0.14300
H 	H 	0.90180 0.37640 0.42250 -0.06600
C 	C 	0.85000 0.41395 0.44860 -0.27400
H 	H 	0.81350 0.39950 0.45070 0.11800
C 	C 	0.85080 0.44951 0.46340 0.23700
C 	C 	0.22510 0.64310 0.41011 -0.19000
C 	C 	0.26060 0.65547 0.46376 0.10000
H 	H 	0.25610 0.67910 0.47190 -0.04700
C 	C 	0.23130 0.60793 0.40000 0.11300
H 	H 	0.20610 0.59860 0.36470 -0.05900
C 	C 	0.18143 0.66697 0.36541 0.12700
C 	C 	0.30280 0.63371 0.50590 -0.24100
H 	H 	0.32560 0.64270 0.54190 0.09600
C 	C 	0.27460 0.58590 0.44140 -0.24600
H 	H 	0.27930 0.56230 0.43320 0.09500
C 	C 	0.31100 0.59900 0.49490 0.20400
C 	C 	0.14842 0.74431 0.27881 -0.18600
C 	C 	0.19930 0.75150 0.25394 0.10100
H 	H 	0.23730 0.73620 0.25950 -0.05400
C 	C 	0.19430 0.78081 0.22145 -0.25400
H 	H 	0.22910 0.78520 0.20530 0.10300
C 	C 	0.09318 0.76843 0.27074 0.09500
H 	H 	0.05910 0.76450 0.28780 -0.03900
C 	C 	0.14934 0.71151 0.30993 0.13300
C 	C 	0.13840 0.80427 0.21201 0.21100
C 	C 	0.08840 0.79779 0.23810 -0.23700
H 	H 	0.05130 0.81360 0.23330 0.09200
C 	C 	0.09277 0.52933 0.30531 0.12400
C 	C 	0.13270 0.50648 0.27977 -0.18500
C 	C 	0.10600 0.47457 0.25419 0.09600
H 	H 	0.06370 0.46600 0.25690 -0.07100
C 	C 	0.20410 0.46756 0.22070 0.21500
C 	C 	0.19700 0.51788 0.27650 0.09900
H 	H 	0.21650 0.53890 0.29390 -0.04200
C 	C 	0.14100 0.45534 0.22470 -0.25100
H 	H 	0.12210 0.43420 0.20770 0.09400
C 	C 	0.23260 0.49874 0.24780 -0.24100
H 	H 	0.27600 0.50670 0.24660 0.09900
C 	C 	0.91540 0.53785 0.36827 0.07100
H 	H 	0.90740 0.51870 0.34380 -0.02600
C 	C 	0.93820 0.59418 0.44214 -0.24000
H 	H 	0.94630 0.61330 0.46670 0.10300
C 	C 	0.97790 0.55627 0.38132 -0.18500
C 	C 	0.02747 0.55062 0.35044 0.10200
C 	C 	0.98890 0.58452 0.41916 0.10900
H 	H 	0.03130 0.59700 0.42890 -0.05500
C 	C 	0.87550 0.57591 0.42920 0.21100
C 	C 	0.86400 0.54769 0.39150 -0.23600
H 	H 	0.82150 0.53540 0.38170 0.10000
C 	C 	0.46186 0.69225 0.45938 -0.18800
C 	C 	0.51220 0.68355 0.51118 0.11700
H 	H 	0.53640 0.70150 0.53510 -0.06200
C 	C 	0.42670 0.66441 0.42530 0.11300
H 	H 	0.39240 0.66920 0.39050 -0.06400
C 	C 	0.44180 0.62978 0.44210 -0.24100
H 	H 	0.41760 0.61170 0.41850 0.10000
C 	C 	0.44692 0.72894 0.44171 0.13600
C 	C 	0.52710 0.64899 0.52793 -0.24400
H 	H 	0.56100 0.64400 0.56280 0.10100
C 	C 	0.49220 0.62154 0.49340 0.21800
C 	C 	0.39196 0.77614 0.40366 0.12800
C 	C 	0.27120 0.80002 0.38575 0.11300
H 	H 	0.26350 0.78240 0.40890 -0.06300
C 	C 	0.21890 0.82452 0.36210 -0.24600
H 	H 	0.17640 0.82330 0.36960 0.10000
C 	C 	0.22860 0.85097 0.32750 0.22100
C 	C 	0.29140 0.85185 0.31590 -0.25100
H 	H 	0.29830 0.86910 0.29200 0.10200
C 	C 	0.34420 0.82738 0.33946 0.11400
H 	H 	0.38610 0.82840 0.33120 -0.06000
C 	C 	0.33519 0.80117 0.37552 -0.19300
C 	C 	0.83412 0.64714 0.31398 0.14000
C 	C 	0.76151 0.63410 0.28972 -0.18000
C 	C 	0.73750 0.62438 0.23420 0.09600
H 	H 	0.76450 0.62980 0.21140 -0.05800
C 	C 	0.72040 0.62713 0.32310 0.09900
H 	H 	0.73560 0.63380 0.36090 -0.02600
C 	C 	0.67430 0.60664 0.21080 -0.25200
H 	H 	0.65970 0.59990 0.17310 0.10000
C 	C 	0.63360 0.59910 0.24270 0.20000
C 	C 	0.65630 0.61000 0.29930 -0.23300
H 	H 	0.62770 0.60580 0.32120 0.09900
C 	C 	0.98250 0.70040 0.39051 -0.17900
C 	C 	0.97420 0.73562 0.37523 0.06100
H 	H 	0.93210 0.74310 0.34860 -0.03300
C 	C 	0.02700 0.75966 0.39850 -0.23600
H 	H 	0.02070 0.78310 0.38720 0.09600
C 	C 	0.09790 0.71400 0.45540 -0.22100
H 	H 	0.13950 0.70670 0.48290 0.08900
C 	C 	0.08960 0.74899 0.43880 0.18500
C 	C 	0.93003 0.67438 0.35853 0.10900
C 	C 	0.04470 0.68983 0.43145 0.05800
H 	H 	0.05070 0.66640 0.44290 -0.03500
Cu	Cu	0.46124 0.12835 0.16817 0.76500
Cu	Cu	0.44743 0.97450 0.13263 0.82600
Cu	Cu	0.90703 0.25467 0.00316 0.81800
Cu	Cu	0.20492 0.21817 0.11899 0.82700
Cu	Cu	0.99356 0.32874 0.06754 0.81900
Cu	Cu	0.68271 0.20624 0.11235 0.83600
Cu	Cu	0.84778 0.33109 0.08740 0.81900
Cu	Cu	0.39143 0.09466 0.25379 0.77900
Cl	Cl	0.87485 0.31859 0.99214 -0.79300
N 	N 	0.44992 0.07760 0.17223 -0.28000
N 	N 	0.44664 0.01959 0.16215 -0.28800
N 	N 	0.40855 0.06390 0.20171 -0.26700
N 	N 	0.72111 0.20424 0.91605 -0.28400
N 	N 	0.77642 0.25403 0.91098 -0.24300
N 	N 	0.81760 0.23557 0.95779 -0.24500
N 	N 	0.00500 0.25440 0.04745 -0.25500
N 	N 	0.04067 0.28494 0.07177 -0.25600
N 	N 	0.11837 0.24144 0.08903 -0.28600
N 	N 	0.46677 0.87352 0.08873 -0.24700
N 	N 	0.40547 0.87213 0.10284 -0.25500
N 	N 	0.44018 0.92772 0.10729 -0.28900
N 	N 	0.61393 0.13070 0.19748 -0.27200
N 	N 	0.55214 0.14835 0.16920 -0.27700
N 	N 	0.64066 0.17466 0.15064 -0.27700
N 	N 	0.29415 0.19774 0.14950 -0.29000
N 	N 	0.38600 0.16213 0.16457 -0.26900
N 	N 	0.40666 0.19076 0.20015 -0.27200
N 	N 	0.32300 0.37607 0.19460 -0.33000
H 	H 	0.31620 0.39250 0.21580 0.13500
H 	H 	0.36190 0.37530 0.18710 0.13300
N 	N 	0.36830 0.33324 0.32310 -0.32900
H 	H 	0.40360 0.34730 0.32880 0.13400
H 	H 	0.33710 0.33710 0.33910 0.13700
N 	N 	0.67400 0.08505 0.04560 -0.33100
H 	H 	0.66560 0.10220 0.02190 0.15300
H 	H 	0.71320 0.07360 0.05370 0.14000
N 	N 	0.26110 0.94819 0.30940 -0.32800
H 	H 	0.27900 0.92870 0.32540 0.14500
H 	H 	0.22170 0.95570 0.31200 0.13400
N 	N 	0.35520 0.27342 0.03850 -0.31600
H 	H 	0.31590 0.26670 0.01410 0.11300
H 	H 	0.36080 0.29510 0.04910 0.13200
N 	N 	0.92370 0.09364 0.10160 -0.32400
H 	H 	0.91800 0.07240 0.08890 0.13200
H 	H 	0.95330 0.09790 0.13470 0.13500
N 	N 	0.99090 0.08668 0.99050 -0.31200
H 	H 	0.01190 0.06980 0.01270 0.12400
H 	H 	0.95940 0.08200 0.95850 0.13700
N 	N 	0.52190 0.27410 0.67464 -0.32000
H 	H 	0.49690 0.25810 0.65260 0.11900
H 	H 	0.51710 0.29580 0.66440 0.13700
N 	N 	0.14830 0.07679 0.96200 -0.32800
H 	H 	0.12830 0.08500 0.92850 0.13100
H 	H 	0.14320 0.05500 0.96910 0.12600
N 	N 	0.13470 0.94263 0.14510 -0.32500
H 	H 	0.11090 0.96040 0.12720 0.12800
H 	H 	0.11810 0.93000 0.16630 0.12800
N 	N 	0.70300 0.96393 0.02040 -0.33900
H 	H 	0.70190 0.98590 0.01190 0.13200
H 	H 	0.73750 0.95090 0.01900 0.14600
N 	N 	0.93180 0.08130 0.28130 -0.32200
H 	H 	0.94580 0.07540 0.31630 0.13100
H 	H 	0.95760 0.07650 0.26080 0.12700
C 	C 	0.78362 0.20594 0.95935 0.12500
C 	C 	0.85730 0.18332 0.05438 0.09900
H 	H 	0.86320 0.20620 0.06860 -0.05600
C 	C 	0.88480 0.12126 0.06840 0.20800
C 	C 	0.83720 0.11489 0.01540 -0.23600
H 	H 	0.82800 0.09180 0.00250 0.10000
C 	C 	0.81325 0.17730 0.99932 -0.17700
C 	C 	0.80280 0.14252 0.98088 0.10500
H 	H 	0.77210 0.13770 0.94470 -0.05500
C 	C 	0.89260 0.15578 0.08834 -0.23300
H 	H 	0.92200 0.16040 0.12500 0.10000
C 	C 	0.71936 0.23444 0.88654 0.11700
C 	C 	0.66520 0.24490 0.83339 -0.18100
C 	C 	0.62440 0.21984 0.79590 0.08700
H 	H 	0.62850 0.19620 0.80610 -0.06200
C 	C 	0.57720 0.22991 0.74300 -0.22600
H 	H 	0.55050 0.21280 0.71850 0.07700
C 	C 	0.65720 0.28000 0.81590 0.10100
H 	H 	0.68370 0.29730 0.84000 -0.06000
C 	C 	0.56990 0.26478 0.72680 0.20300
C 	C 	0.61040 0.28976 0.76320 -0.24600
H 	H 	0.60660 0.31330 0.75240 0.10400
C 	C 	0.39076 0.90487 0.11283 0.12500
C 	C 	0.32710 0.91542 0.12492 -0.19000
C 	C 	0.30020 0.89562 0.15970 0.10000
H 	H 	0.32450 0.87580 0.17800 -0.04800
C 	C 	0.23720 0.90532 0.16730 -0.23900
H 	H 	0.22000 0.89220 0.19130 0.09600
C 	C 	0.28940 0.94481 0.09860 0.10800
H 	H 	0.30710 0.95850 0.07560 -0.06000
C 	C 	0.19950 0.93430 0.13970 0.21300
C 	C 	0.22680 0.95416 0.10580 -0.24600
H 	H 	0.20260 0.97410 0.08770 0.09500
C 	C 	0.48564 0.90719 0.09095 0.14700
C 	C 	0.54250 0.95648 0.05730 0.16300
H 	H 	0.50580 0.97100 0.05890 -0.08600
C 	C 	0.59410 0.97010 0.03900 -0.29000
H 	H 	0.59180 0.99360 0.02810 0.11800
C 	C 	0.54330 0.92120 0.07379 -0.21100
C 	C 	0.59740 0.90026 0.06880 0.15300
H 	H 	0.59820 0.87640 0.07750 -0.07100
C 	C 	0.65000 0.91395 0.05140 -0.28100
H 	H 	0.68650 0.89950 0.04930 0.12100
C 	C 	0.64920 0.94951 0.03660 0.24200
C 	C 	0.27490 0.14310 0.08989 -0.19600
C 	C 	0.23940 0.15547 0.03624 0.11100
H 	H 	0.24390 0.17910 0.02810 -0.05000
C 	C 	0.26870 0.10793 0.10000 0.12000
H 	H 	0.29390 0.09860 0.13530 -0.06200
C 	C 	0.31857 0.16697 0.13459 0.12900
C 	C 	0.19720 0.13371 0.99410 -0.25500
H 	H 	0.17440 0.14270 0.95810 0.10000
C 	C 	0.22540 0.08590 0.05860 -0.25300
H 	H 	0.22070 0.06230 0.06680 0.09800
C 	C 	0.18900 0.09900 0.00510 0.21500
C 	C 	0.35158 0.24431 0.22119 -0.18600
C 	C 	0.30070 0.25150 0.24606 0.10100
H 	H 	0.26270 0.23620 0.24050 -0.05400
C 	C 	0.30570 0.28081 0.27855 -0.25400
H 	H 	0.27090 0.28520 0.29470 0.10300
C 	C 	0.40682 0.26843 0.22926 0.09600
H 	H 	0.44090 0.26450 0.21220 -0.03700
C 	C 	0.35066 0.21151 0.19007 0.13300
C 	C 	0.36160 0.30427 0.28799 0.21200
C 	C 	0.41160 0.29779 0.26190 -0.23700
H 	H 	0.44870 0.31360 0.26670 0.09400
C 	C 	0.40723 0.02933 0.19469 0.12500
C 	C 	0.36730 0.00648 0.22023 -0.18400
C 	C 	0.39400 0.97457 0.24581 0.09500
H 	H 	0.43630 0.96600 0.24310 -0.06900
C 	C 	0.29590 0.96756 0.27930 0.21400
C 	C 	0.30300 0.01788 0.22350 0.09900
H 	H 	0.28350 0.03890 0.20610 -0.04200
C 	C 	0.35900 0.95534 0.27530 -0.25000
H 	H 	0.37790 0.93420 0.29230 0.09400
C 	C 	0.26740 0.99874 0.25220 -0.24000
H 	H 	0.22400 0.00670 0.25340 0.09900
C 	C 	0.58460 0.03785 0.13173 0.06900
H 	H 	0.59260 0.01870 0.15620 -0.02700
C 	C 	0.56180 0.09418 0.05786 -0.22900
H 	H 	0.55370 0.11330 0.03330 0.09800
C 	C 	0.52210 0.05627 0.11868 -0.18600
C 	C 	0.47253 0.05062 0.14956 0.10900
C 	C 	0.51110 0.08452 0.08084 0.08800
H 	H 	0.46870 0.09700 0.07110 -0.04300
C 	C 	0.62450 0.07591 0.07080 0.20600
C 	C 	0.63600 0.04769 0.10850 -0.23300
H 	H 	0.67850 0.03540 0.11830 0.09900
C 	C 	0.03814 0.19225 0.04062 -0.19300
C 	C 	0.98780 0.18355 0.98882 0.12200
H 	H 	0.96360 0.20150 0.96490 -0.06100
C 	C 	0.07330 0.16441 0.07470 0.10900
H 	H 	0.10760 0.16920 0.10950 -0.06300
C 	C 	0.05820 0.12978 0.05790 -0.23300
H 	H 	0.08240 0.11170 0.08150 0.09700
C 	C 	0.05308 0.22894 0.05829 0.13600
C 	C 	0.97290 0.14899 0.97207 -0.22800
H 	H 	0.93900 0.14400 0.93720 0.09700
C 	C 	0.00780 0.12154 0.00660 0.19900
C 	C 	0.10804 0.27614 0.09634 0.12800
C 	C 	0.22880 0.30002 0.11425 0.11400
H 	H 	0.23650 0.28240 0.09110 -0.06300
C 	C 	0.28110 0.32452 0.13790 -0.24600
H 	H 	0.32360 0.32330 0.13040 0.10100
C 	C 	0.27140 0.35097 0.17250 0.22200
C 	C 	0.20860 0.35185 0.18410 -0.25100
H 	H 	0.20170 0.36910 0.20800 0.10200
C 	C 	0.15580 0.32738 0.16054 0.11500
H 	H 	0.11390 0.32840 0.16880 -0.06100
C 	C 	0.16481 0.30117 0.12448 -0.19400
C 	C 	0.66588 0.14714 0.18602 0.14000
C 	C 	0.73849 0.13410 0.21028 -0.18100
C 	C 	0.76250 0.12438 0.26580 0.09700
H 	H 	0.73550 0.12980 0.28860 -0.05800
C 	C 	0.77960 0.12713 0.17690 0.10000
H 	H 	0.76440 0.13380 0.13910 -0.02600
C 	C 	0.82570 0.10664 0.28920 -0.25300
H 	H 	0.84030 0.09990 0.32690 0.10100
C 	C 	0.86640 0.09910 0.25730 0.20200
C 	C 	0.84370 0.11000 0.20070 -0.23400
H 	H 	0.87230 0.10580 0.17880 0.10000
C 	C 	0.51750 0.20040 0.10949 -0.18700
C 	C 	0.52580 0.23562 0.12477 0.04900
H 	H 	0.56790 0.24310 0.15140 -0.03000
C 	C 	0.47300 0.25966 0.10150 -0.22300
H 	H 	0.47930 0.28310 0.11280 0.09400
C 	C 	0.40210 0.21400 0.04460 -0.22300
H 	H 	0.36050 0.20670 0.01710 0.09100
C 	C 	0.41040 0.24899 0.06120 0.18300
C 	C 	0.56997 0.17438 0.14147 0.10900
C 	C 	0.45530 0.18983 0.06855 0.07100
H 	H 	0.44930 0.16640 0.05710 -0.03700
Cu	Cu	0.96124 0.62835 0.16817 0.76800
Cu	Cu	0.94743 0.47450 0.13263 0.82800
Cu	Cu	0.40703 0.75467 0.00316 0.81700
Cu	Cu	0.70492 0.71817 0.11899 0.82700
Cu	Cu	0.49356 0.82874 0.06754 0.81600
Cu	Cu	0.18271 0.70624 0.11235 0.83600
Cu	Cu	0.34778 0.83109 0.08740 0.81900
Cu	Cu	0.89143 0.59466 0.25379 0.78000
Cl	Cl	0.37485 0.81859 0.99214 -0.79700
N 	N 	0.94992 0.57760 0.17223 -0.27900
N 	N 	0.94664 0.51959 0.16215 -0.28700
N 	N 	0.90855 0.56390 0.20171 -0.26600
N 	N 	0.22111 0.70424 0.91605 -0.28400
N 	N 	0.27642 0.75403 0.91098 -0.24300
N 	N 	0.31760 0.73557 0.95779 -0.24600
N 	N 	0.50500 0.75440 0.04745 -0.25200
N 	N 	0.54067 0.78494 0.07177 -0.25400
N 	N 	0.61837 0.74144 0.08903 -0.28600
N 	N 	0.96677 0.37352 0.08873 -0.24800
N 	N 	0.90547 0.37213 0.10284 -0.25400
N 	N 	0.94018 0.42772 0.10729 -0.29000
N 	N 	0.11393 0.63070 0.19748 -0.27200
N 	N 	0.05214 0.64835 0.16920 -0.27900
N 	N 	0.14066 0.67466 0.15064 -0.27700
N 	N 	0.79415 0.69774 0.14950 -0.29000
N 	N 	0.88600 0.66213 0.16457 -0.26800
N 	N 	0.90666 0.69076 0.20015 -0.27000
N 	N 	0.82300 0.87607 0.19460 -0.33100
H 	H 	0.81620 0.89250 0.21580 0.13600
H 	H 	0.86190 0.87530 0.18710 0.13400
N 	N 	0.86830 0.83324 0.32310 -0.33000
H 	H 	0.90360 0.84730 0.32880 0.13500
H 	H 	0.83710 0.83710 0.33910 0.13800
N 	N 	0.17400 0.58505 0.04560 -0.33000
H 	H 	0.16560 0.60220 0.02190 0.15300
H 	H 	0.21320 0.57360 0.05370 0.14000
N 	N 	0.76110 0.44819 0.30940 -0.32900
H 	H 	0.77900 0.42870 0.32540 0.14500
H 	H 	0.72170 0.45570 0.31200 0.13500
N 	N 	0.85520 0.77342 0.03850 -0.31600
H 	H 	0.81590 0.76670 0.01410 0.11200
H 	H 	0.86080 0.79510 0.04910 0.13200
N 	N 	0.42370 0.59364 0.10160 -0.32200
H 	H 	0.41800 0.57240 0.08890 0.13000
H 	H 	0.45330 0.59790 0.13470 0.13200
N 	N 	0.49090 0.58668 0.99050 -0.32800
H 	H 	0.51190 0.56980 0.01270 0.13300
H 	H 	0.45940 0.58200 0.95850 0.13800
N 	N 	0.02190 0.77410 0.67464 -0.33000
H 	H 	0.99690 0.75810 0.65260 0.12900
H 	H 	0.01710 0.79580 0.66440 0.13600
N 	N 	0.64830 0.57679 0.96200 -0.32500
H 	H 	0.62830 0.58500 0.92850 0.13200
H 	H 	0.64320 0.55500 0.96910 0.12700
N 	N 	0.63470 0.44263 0.14510 -0.32600
H 	H 	0.61090 0.46040 0.12720 0.12900
H 	H 	0.61810 0.43000 0.16630 0.12900
N 	N 	0.20300 0.46393 0.02040 -0.34100
H 	H 	0.20190 0.48590 0.01190 0.13300
H 	H 	0.23750 0.45090 0.01900 0.14700
N 	N 	0.43180 0.58130 0.28130 -0.32100
H 	H 	0.44580 0.57540 0.31630 0.12800
H 	H 	0.45760 0.57650 0.26080 0.12400
C 	C 	0.28362 0.70594 0.95935 0.12500
C 	C 	0.35730 0.68332 0.05438 0.10100
H 	H 	0.36320 0.70620 0.06860 -0.05700
C 	C 	0.38480 0.62126 0.06840 0.20600
C 	C 	0.33720 0.61489 0.01540 -0.23100
H 	H 	0.32800 0.59180 0.00250 0.09900
C 	C 	0.31325 0.67730 0.99932 -0.17800
C 	C 	0.30280 0.64252 0.98088 0.10000
H 	H 	0.27210 0.63770 0.94470 -0.05400
C 	C 	0.39260 0.65578 0.08834 -0.23300
H 	H 	0.42200 0.66040 0.12500 0.09800
C 	C 	0.21936 0.73444 0.88654 0.11700
C 	C 	0.16520 0.74490 0.83339 -0.18200
C 	C 	0.12440 0.71984 0.79590 0.08600
H 	H 	0.12850 0.69620 0.80610 -0.06300
C 	C 	0.07720 0.72991 0.74300 -0.22800
H 	H 	0.05050 0.71280 0.71850 0.07400
C 	C 	0.15720 0.78000 0.81590 0.10000
H 	H 	0.18370 0.79730 0.84000 -0.06000
C 	C 	0.06990 0.76478 0.72680 0.20200
C 	C 	0.11040 0.78976 0.76320 -0.24700
H 	H 	0.10660 0.81330 0.75240 0.10400
C 	C 	0.89076 0.40487 0.11283 0.12500
C 	C 	0.82710 0.41542 0.12492 -0.19000
C 	C 	0.80020 0.39562 0.15970 0.10100
H 	H 	0.82450 0.37580 0.17800 -0.04700
C 	C 	0.73720 0.40532 0.16730 -0.24000
H 	H 	0.72000 0.39220 0.19130 0.09600
C 	C 	0.78940 0.44481 0.09860 0.10800
H 	H 	0.80710 0.45850 0.07560 -0.06000
C 	C 	0.69950 0.43430 0.13970 0.21400
C 	C 	0.72680 0.45416 0.10580 -0.24600
H 	H 	0.70260 0.47410 0.08770 0.09500
C 	C 	0.98564 0.40719 0.09095 0.15700
C 	C 	0.04250 0.45648 0.05730 0.17100
H 	H 	0.00580 0.47100 0.05890 -0.09200
C 	C 	0.09410 0.47010 0.03900 -0.29800
H 	H 	0.09180 0.49360 0.02810 0.11900
C 	C 	0.04330 0.42120 0.07379 -0.22500
C 	C 	0.09740 0.40026 0.06880 0.16200
H 	H 	0.09820 0.37640 0.07750 -0.07500
C 	C 	0.15000 0.41395 0.05140 -0.28800
H 	H 	0.18650 0.39950 0.04930 0.12400
C 	C 	0.14920 0.44951 0.03660 0.24700
C 	C 	0.77490 0.64310 0.08989 -0.18900
C 	C 	0.73940 0.65547 0.03624 0.09900
H 	H 	0.74390 0.67910 0.02810 -0.04600
C 	C 	0.76870 0.60793 0.10000 0.11300
H 	H 	0.79390 0.59860 0.13530 -0.05900
C 	C 	0.81857 0.66697 0.13459 0.12700
C 	C 	0.69720 0.63371 0.99410 -0.24000
H 	H 	0.67440 0.64270 0.95810 0.09600
C 	C 	0.72540 0.58590 0.05860 -0.24500
H 	H 	0.72070 0.56230 0.06680 0.09500
C 	C 	0.68900 0.59900 0.00510 0.20400
C 	C 	0.85158 0.74431 0.22119 -0.18600
C 	C 	0.80070 0.75150 0.24606 0.10100
H 	H 	0.76270 0.73620 0.24050 -0.05400
C 	C 	0.80570 0.78081 0.27855 -0.25500
H 	H 	0.77090 0.78520 0.29470 0.10300
C 	C 	0.90682 0.76843 0.22926 0.09700
H 	H 	0.94090 0.76450 0.21220 -0.03500
C 	C 	0.85066 0.71151 0.19007 0.13300
C 	C 	0.86160 0.80427 0.28799 0.21300
C 	C 	0.91160 0.79779 0.26190 -0.23700
H 	H 	0.94870 0.81360 0.26670 0.09700
C 	C 	0.90723 0.52933 0.19469 0.12500
C 	C 	0.86730 0.50648 0.22023 -0.18400
C 	C 	0.89400 0.47457 0.24581 0.09500
H 	H 	0.93630 0.46600 0.24310 -0.06700
C 	C 	0.79590 0.46756 0.27930 0.21400
C 	C 	0.80300 0.51788 0.22350 0.09900
H 	H 	0.78350 0.53890 0.20610 -0.04100
C 	C 	0.85900 0.45534 0.27530 -0.24900
H 	H 	0.87790 0.43420 0.29230 0.09500
C 	C 	0.76740 0.49874 0.25220 -0.24000
H 	H 	0.72400 0.50670 0.25340 0.09900
C 	C 	0.08460 0.53785 0.13173 0.06800
H 	H 	0.09260 0.51870 0.15620 -0.02800
C 	C 	0.06180 0.59418 0.05786 -0.22100
H 	H 	0.05370 0.61330 0.03330 0.09400
C 	C 	0.02210 0.55627 0.11868 -0.18900
C 	C 	0.97253 0.55062 0.14956 0.11500
C 	C 	0.01110 0.58452 0.08084 0.07300
H 	H 	0.96870 0.59700 0.07110 -0.03400
C 	C 	0.12450 0.57591 0.07080 0.20300
C 	C 	0.13600 0.54769 0.10850 -0.23100
H 	H 	0.17850 0.53540 0.11830 0.09800
C 	C 	0.53814 0.69225 0.04062 -0.18700
C 	C 	0.48780 0.68355 0.98882 0.11700
H 	H 	0.46360 0.70150 0.96490 -0.06200
C 	C 	0.57330 0.66441 0.07470 0.11300
H 	H 	0.60760 0.66920 0.10950 -0.06400
C 	C 	0.55820 0.62978 0.05790 -0.24300
H 	H 	0.58240 0.61170 0.08150 0.10100
C 	C 	0.55308 0.72894 0.05829 0.13600
C 	C 	0.47290 0.64899 0.97207 -0.24600
H 	H 	0.43900 0.64400 0.93720 0.10200
C 	C 	0.50780 0.62154 0.00660 0.22000
C 	C 	0.60804 0.77614 0.09634 0.12800
C 	C 	0.72880 0.80002 0.11425 0.11400
H 	H 	0.73650 0.78240 0.09110 -0.06400
C 	C 	0.78110 0.82452 0.13790 -0.24700
H 	H 	0.82360 0.82330 0.13040 0.10100
C 	C 	0.77140 0.85097 0.17250 0.22200
C 	C 	0.70860 0.85185 0.18410 -0.25100
H 	H 	0.70170 0.86910 0.20800 0.10200
C 	C 	0.65580 0.82738 0.16054 0.11500
H 	H 	0.61390 0.82840 0.16880 -0.06000
C 	C 	0.66481 0.80117 0.12448 -0.19400
C 	C 	0.16588 0.64714 0.18602 0.14000
C 	C 	0.23849 0.63410 0.21028 -0.18000
C 	C 	0.26250 0.62438 0.26580 0.09600
H 	H 	0.23550 0.62980 0.28860 -0.05800
C 	C 	0.27960 0.62713 0.17690 0.09900
H 	H 	0.26440 0.63380 0.13910 -0.02600
C 	C 	0.32570 0.60664 0.28920 -0.25200
H 	H 	0.34030 0.59990 0.32690 0.10000
C 	C 	0.36640 0.59910 0.25730 0.20000
C 	C 	0.34370 0.61000 0.20070 -0.23300
H 	H 	0.37230 0.60580 0.17880 0.09900
C 	C 	0.01750 0.70040 0.10949 -0.19200
C 	C 	0.02580 0.73562 0.12477 0.03800
H 	H 	0.06790 0.74310 0.15140 -0.02700
C 	C 	0.97300 0.75966 0.10150 -0.21000
H 	H 	0.97930 0.78310 0.11280 0.09200
C 	C 	0.90210 0.71400 0.04460 -0.22500
H 	H 	0.86050 0.70670 0.01710 0.09100
C 	C 	0.91040 0.74899 0.06120 0.18100
C 	C 	0.06997 0.67438 0.14147 0.11000
C 	C 	0.95530 0.68983 0.06855 0.07900
H 	H 	0.94930 0.66640 0.05710 -0.03900
Cu	Cu	0.46124 0.87165 0.66817 0.76500
Cu	Cu	0.44743 0.02550 0.63263 0.82600
Cu	Cu	0.90703 0.74533 0.50316 0.81900
Cu	Cu	0.20492 0.78183 0.61899 0.82700
Cu	Cu	0.99356 0.67126 0.56754 0.82000
Cu	Cu	0.68271 0.79376 0.61235 0.83500
Cu	Cu	0.84778 0.66891 0.58740 0.81900
Cu	Cu	0.39143 0.90534 0.75379 0.77900
Cl	Cl	0.87485 0.68141 0.49214 -0.79400
N 	N 	0.44992 0.92240 0.67223 -0.28000
N 	N 	0.44664 0.98041 0.66215 -0.28800
N 	N 	0.40855 0.93610 0.70171 -0.26700
N 	N 	0.72111 0.79576 0.41605 -0.28400
N 	N 	0.77642 0.74597 0.41098 -0.24300
N 	N 	0.81760 0.76443 0.45779 -0.24600
N 	N 	0.00500 0.74560 0.54745 -0.25600
N 	N 	0.04067 0.71506 0.57177 -0.25700
N 	N 	0.11837 0.75856 0.58903 -0.28700
N 	N 	0.46677 0.12648 0.58873 -0.24700
N 	N 	0.40547 0.12787 0.60284 -0.25500
N 	N 	0.44018 0.07228 0.60729 -0.28900
N 	N 	0.61393 0.86930 0.69748 -0.27200
N 	N 	0.55214 0.85165 0.66920 -0.27700
N 	N 	0.64066 0.82534 0.65064 -0.27700
N 	N 	0.29415 0.80226 0.64950 -0.29000
N 	N 	0.38600 0.83787 0.66457 -0.26900
N 	N 	0.40666 0.80924 0.70015 -0.27200
N 	N 	0.32300 0.62393 0.69460 -0.33100
H 	H 	0.31620 0.60750 0.71580 0.13500
H 	H 	0.36190 0.62470 0.68710 0.13200
N 	N 	0.36830 0.66676 0.82310 -0.32900
H 	H 	0.40360 0.65270 0.82880 0.13400
H 	H 	0.33710 0.66290 0.83910 0.13700
N 	N 	0.67400 0.91495 0.54560 -0.33100
H 	H 	0.66560 0.89780 0.52190 0.15300
H 	H 	0.71320 0.92640 0.55370 0.14000
N 	N 	0.26110 0.05181 0.80940 -0.32800
H 	H 	0.27900 0.07130 0.82540 0.14500
H 	H 	0.22170 0.04430 0.81200 0.13400
N 	N 	0.35520 0.72658 0.53850 -0.31600
H 	H 	0.31590 0.73330 0.51410 0.11200
H 	H 	0.36080 0.70490 0.54910 0.13200
N 	N 	0.92370 0.90636 0.60160 -0.32400
H 	H 	0.91800 0.92760 0.58890 0.13300
H 	H 	0.95330 0.90210 0.63470 0.13500
N 	N 	0.99090 0.91332 0.49050 -0.31000
H 	H 	0.01190 0.93020 0.51270 0.12200
H 	H 	0.95940 0.91800 0.45850 0.13600
N 	N 	0.52190 0.72590 0.17464 -0.32000
H 	H 	0.49690 0.74190 0.15260 0.11900
H 	H 	0.51710 0.70420 0.16440 0.13700
N 	N 	0.14830 0.92321 0.46200 -0.32500
H 	H 	0.12830 0.91500 0.42850 0.13000
H 	H 	0.14320 0.94500 0.46910 0.12600
N 	N 	0.13470 0.05737 0.64510 -0.32500
H 	H 	0.11090 0.03960 0.62720 0.12700
H 	H 	0.11810 0.07000 0.66630 0.12700
N 	N 	0.70300 0.03607 0.52040 -0.33900
H 	H 	0.70190 0.01410 0.51190 0.13200
H 	H 	0.73750 0.04910 0.51900 0.14700
N 	N 	0.93180 0.91870 0.78130 -0.32200
H 	H 	0.94580 0.92460 0.81630 0.13100
H 	H 	0.95760 0.92350 0.76080 0.12800
C 	C 	0.78362 0.79406 0.45935 0.12600
C 	C 	0.85730 0.81668 0.55438 0.10100
H 	H 	0.86320 0.79380 0.56860 -0.05600
C 	C 	0.88480 0.87874 0.56840 0.20900
C 	C 	0.83720 0.88511 0.51540 -0.23600
H 	H 	0.82800 0.90820 0.50250 0.10100
C 	C 	0.81325 0.82270 0.49932 -0.17800
C 	C 	0.80280 0.85748 0.48088 0.10400
H 	H 	0.77210 0.86230 0.44470 -0.05500
C 	C 	0.89260 0.84422 0.58834 -0.23400
H 	H 	0.92200 0.83960 0.62500 0.10000
C 	C 	0.71936 0.76556 0.38654 0.11700
C 	C 	0.66520 0.75510 0.33339 -0.18100
C 	C 	0.62440 0.78016 0.29590 0.08700
H 	H 	0.62850 0.80380 0.30610 -0.06200
C 	C 	0.57720 0.77009 0.24300 -0.22700
H 	H 	0.55050 0.78720 0.21850 0.07700
C 	C 	0.65720 0.72000 0.31590 0.10100
H 	H 	0.68370 0.70270 0.34000 -0.06000
C 	C 	0.56990 0.73522 0.22680 0.20300
C 	C 	0.61040 0.71024 0.26320 -0.24600
H 	H 	0.60660 0.68670 0.25240 0.10400
C 	C 	0.39076 0.09513 0.61283 0.12500
C 	C 	0.32710 0.08458 0.62492 -0.19000
C 	C 	0.30020 0.10438 0.65970 0.10000
H 	H 	0.32450 0.12420 0.67800 -0.04800
C 	C 	0.23720 0.09468 0.66730 -0.23900
H 	H 	0.22000 0.10780 0.69130 0.09600
C 	C 	0.28940 0.05519 0.59860 0.10700
H 	H 	0.30710 0.04150 0.57560 -0.06000
C 	C 	0.19950 0.06570 0.63970 0.21300
C 	C 	0.22680 0.04584 0.60580 -0.24600
H 	H 	0.20260 0.02590 0.58770 0.09500
C 	C 	0.48564 0.09281 0.59095 0.14700
C 	C 	0.54250 0.04352 0.55730 0.16300
H 	H 	0.50580 0.02900 0.55890 -0.08600
C 	C 	0.59410 0.02990 0.53900 -0.29000
H 	H 	0.59180 0.00640 0.52810 0.11800
C 	C 	0.54330 0.07880 0.57379 -0.21100
C 	C 	0.59740 0.09974 0.56880 0.15300
H 	H 	0.59820 0.12360 0.57750 -0.07100
C 	C 	0.65000 0.08605 0.55140 -0.28100
H 	H 	0.68650 0.10050 0.54930 0.12100
C 	C 	0.64920 0.05049 0.53660 0.24200
C 	C 	0.27490 0.85690 0.58989 -0.18900
C 	C 	0.23940 0.84453 0.53624 0.09900
H 	H 	0.24390 0.82090 0.52810 -0.04600
C 	C 	0.26870 0.89207 0.60000 0.11300
H 	H 	0.29390 0.90140 0.63530 -0.05900
C 	C 	0.31857 0.83303 0.63459 0.12700
C 	C 	0.19720 0.86629 0.49410 -0.24000
H 	H 	0.17440 0.85730 0.45810 0.09600
C 	C 	0.22540 0.91410 0.55860 -0.24500
H 	H 	0.22070 0.93770 0.56680 0.09500
C 	C 	0.18900 0.90100 0.50510 0.20400
C 	C 	0.35158 0.75569 0.72119 -0.18600
C 	C 	0.30070 0.74850 0.74606 0.10100
H 	H 	0.26270 0.76380 0.74050 -0.05400
C 	C 	0.30570 0.71919 0.77855 -0.25400
H 	H 	0.27090 0.71480 0.79470 0.10300
C 	C 	0.40682 0.73157 0.72926 0.09600
H 	H 	0.44090 0.73550 0.71220 -0.03700
C 	C 	0.35066 0.78849 0.69007 0.13300
C 	C 	0.36160 0.69573 0.78799 0.21200
C 	C 	0.41160 0.70221 0.76190 -0.23700
H 	H 	0.44870 0.68640 0.76670 0.09400
C 	C 	0.40723 0.97067 0.69469 0.12500
C 	C 	0.36730 0.99352 0.72023 -0.18400
C 	C 	0.39400 0.02543 0.74581 0.09500
H 	H 	0.43630 0.03400 0.74310 -0.06900
C 	C 	0.29590 0.03244 0.77930 0.21400
C 	C 	0.30300 0.98212 0.72350 0.09900
H 	H 	0.28350 0.96110 0.70610 -0.04200
C 	C 	0.35900 0.04466 0.77530 -0.25000
H 	H 	0.37790 0.06580 0.79230 0.09400
C 	C 	0.26740 0.00126 0.75220 -0.24000
H 	H 	0.22400 0.99330 0.75340 0.09900
C 	C 	0.58460 0.96215 0.63173 0.06900
H 	H 	0.59260 0.98130 0.65620 -0.02700
C 	C 	0.56180 0.90582 0.55786 -0.22900
H 	H 	0.55370 0.88670 0.53330 0.09800
C 	C 	0.52210 0.94373 0.61868 -0.18600
C 	C 	0.47253 0.94938 0.64956 0.10900
C 	C 	0.51110 0.91548 0.58084 0.08800
H 	H 	0.46870 0.90300 0.57110 -0.04300
C 	C 	0.62450 0.92409 0.57080 0.20600
C 	C 	0.63600 0.95231 0.60850 -0.23300
H 	H 	0.67850 0.96460 0.61830 0.09900
C 	C 	0.03814 0.80775 0.54062 -0.19400
C 	C 	0.98780 0.81645 0.48882 0.12100
H 	H 	0.96360 0.79850 0.46490 -0.06100
C 	C 	0.07330 0.83559 0.57470 0.10800
H 	H 	0.10760 0.83080 0.60950 -0.06300
C 	C 	0.05820 0.87022 0.55790 -0.23200
H 	H 	0.08240 0.88830 0.58150 0.09600
C 	C 	0.05308 0.77106 0.55829 0.13500
C 	C 	0.97290 0.85101 0.47207 -0.22600
H 	H 	0.93900 0.85600 0.43720 0.09700
C 	C 	0.00780 0.87846 0.50660 0.19600
C 	C 	0.10804 0.72386 0.59634 0.12800
C 	C 	0.22880 0.69998 0.61425 0.11400
H 	H 	0.23650 0.71760 0.59110 -0.06400
C 	C 	0.28110 0.67548 0.63790 -0.24700
H 	H 	0.32360 0.67670 0.63040 0.10000
C 	C 	0.27140 0.64903 0.67250 0.22200
C 	C 	0.20860 0.64815 0.68410 -0.25200
H 	H 	0.20170 0.63090 0.70800 0.10200
C 	C 	0.15580 0.67262 0.66054 0.11500
H 	H 	0.11390 0.67160 0.66880 -0.06200
C 	C 	0.16481 0.69883 0.62448 -0.19500
C 	C 	0.66588 0.85286 0.68602 0.14000
C 	C 	0.73849 0.86590 0.71028 -0.18100
C 	C 	0.76250 0.87562 0.76580 0.09700
H 	H 	0.73550 0.87020 0.78860 -0.05800
C 	C 	0.77960 0.87287 0.67690 0.10000
H 	H 	0.76440 0.86620 0.63910 -0.02600
C 	C 	0.82570 0.89336 0.78920 -0.25300
H 	H 	0.84030 0.90010 0.82690 0.10100
C 	C 	0.86640 0.90090 0.75730 0.20300
C 	C 	0.84370 0.89000 0.70070 -0.23400
H 	H 	0.87230 0.89420 0.67880 0.10000
C 	C 	0.51750 0.79960 0.60949 -0.18600
C 	C 	0.52580 0.76438 0.62477 0.04900
H 	H 	0.56790 0.75690 0.65140 -0.02900
C 	C 	0.47300 0.74034 0.60150 -0.22200
H 	H 	0.47930 0.71690 0.61280 0.09400
C 	C 	0.40210 0.78600 0.54460 -0.22300
H 	H 	0.36050 0.79330 0.51710 0.09100
C 	C 	0.41040 0.75101 0.56120 0.18300
C 	C 	0.56997 0.82562 0.64147 0.10900
C 	C 	0.45530 0.81017 0.56855 0.07000
H 	H 	0.44930 0.83360 0.55710 -0.03700
Cu	Cu	0.96124 0.37165 0.66817 0.76900
Cu	Cu	0.94743 0.52550 0.63263 0.82800
Cu	Cu	0.40703 0.24533 0.50316 0.81700
Cu	Cu	0.70492 0.28183 0.61899 0.82700
Cu	Cu	0.49356 0.17126 0.56754 0.81600
Cu	Cu	0.18271 0.29376 0.61235 0.83500
Cu	Cu	0.34778 0.16891 0.58740 0.81900
Cu	Cu	0.89143 0.40534 0.75379 0.78000
Cl	Cl	0.37485 0.18141 0.49214 -0.79500
N 	N 	0.94992 0.42240 0.67223 -0.27900
N 	N 	0.94664 0.48041 0.66215 -0.28700
N 	N 	0.90855 0.43610 0.70171 -0.26600
N 	N 	0.22111 0.29576 0.41605 -0.28400
N 	N 	0.27642 0.24597 0.41098 -0.24300
N 	N 	0.31760 0.26443 0.45779 -0.24600
N 	N 	0.50500 0.24560 0.54745 -0.25200
N 	N 	0.54067 0.21506 0.57177 -0.25400
N 	N 	0.61837 0.25856 0.58903 -0.28600
N 	N 	0.96677 0.62648 0.58873 -0.24800
N 	N 	0.90547 0.62787 0.60284 -0.25400
N 	N 	0.94018 0.57228 0.60729 -0.29000
N 	N 	0.11393 0.36930 0.69748 -0.27200
N 	N 	0.05214 0.35165 0.66920 -0.27900
N 	N 	0.14066 0.32534 0.65064 -0.27700
N 	N 	0.79415 0.30226 0.64950 -0.29000
N 	N 	0.88600 0.33787 0.66457 -0.26800
N 	N 	0.90666 0.30924 0.70015 -0.27000
N 	N 	0.82300 0.12393 0.69460 -0.33100
H 	H 	0.81620 0.10750 0.71580 0.13600
H 	H 	0.86190 0.12470 0.68710 0.13400
N 	N 	0.86830 0.16676 0.82310 -0.33000
H 	H 	0.90360 0.15270 0.82880 0.13600
H 	H 	0.83710 0.16290 0.83910 0.13800
N 	N 	0.17400 0.41495 0.54560 -0.33000
H 	H 	0.16560 0.39780 0.52190 0.15200
H 	H 	0.21320 0.42640 0.55370 0.14000
N 	N 	0.76110 0.55181 0.80940 -0.32900
H 	H 	0.77900 0.57130 0.82540 0.14500
H 	H 	0.72170 0.54430 0.81200 0.13500
N 	N 	0.85520 0.22658 0.53850 -0.31600
H 	H 	0.81590 0.23330 0.51410 0.11200
H 	H 	0.86080 0.20490 0.54910 0.13200
N 	N 	0.42370 0.40636 0.60160 -0.32200
H 	H 	0.41800 0.42760 0.58890 0.13000
H 	H 	0.45330 0.40210 0.63470 0.13200
N 	N 	0.49090 0.41332 0.49050 -0.32700
H 	H 	0.51190 0.43020 0.51270 0.13200
H 	H 	0.45940 0.41800 0.45850 0.13800
N 	N 	0.02190 0.22590 0.17464 -0.32700
H 	H 	0.99690 0.24190 0.15260 0.12700
H 	H 	0.01710 0.20420 0.16440 0.13600
N 	N 	0.64830 0.42321 0.46200 -0.32500
H 	H 	0.62830 0.41500 0.42850 0.13200
H 	H 	0.64320 0.44500 0.46910 0.12700
N 	N 	0.63470 0.55737 0.64510 -0.32600
H 	H 	0.61090 0.53960 0.62720 0.12900
H 	H 	0.61810 0.57000 0.66630 0.12900
N 	N 	0.20300 0.53607 0.52040 -0.34100
H 	H 	0.20190 0.51410 0.51190 0.13200
H 	H 	0.23750 0.54910 0.51900 0.14700
N 	N 	0.43180 0.41870 0.78130 -0.32100
H 	H 	0.44580 0.42460 0.81630 0.12800
H 	H 	0.45760 0.42350 0.76080 0.12400
C 	C 	0.28362 0.29406 0.45935 0.12500
C 	C 	0.35730 0.31668 0.55438 0.09900
H 	H 	0.36320 0.29380 0.56860 -0.05700
C 	C 	0.38480 0.37874 0.56840 0.20600
C 	C 	0.33720 0.38511 0.51540 -0.23400
H 	H 	0.32800 0.40820 0.50250 0.10000
C 	C 	0.31325 0.32270 0.49932 -0.17700
C 	C 	0.30280 0.35748 0.48088 0.10300
H 	H 	0.27210 0.36230 0.44470 -0.05500
C 	C 	0.39260 0.34422 0.58834 -0.23300
H 	H 	0.42200 0.33960 0.62500 0.09800
C 	C 	0.21936 0.26556 0.38654 0.11700
C 	C 	0.16520 0.25510 0.33339 -0.18100
C 	C 	0.12440 0.28016 0.29590 0.08600
H 	H 	0.12850 0.30380 0.30610 -0.06200
C 	C 	0.07720 0.27009 0.24300 -0.22800
H 	H 	0.05050 0.28720 0.21850 0.07500
C 	C 	0.15720 0.22000 0.31590 0.10100
H 	H 	0.18370 0.20270 0.34000 -0.06000
C 	C 	0.06990 0.23522 0.22680 0.20200
C 	C 	0.11040 0.21024 0.26320 -0.24700
H 	H 	0.10660 0.18670 0.25240 0.10400
C 	C 	0.89076 0.59513 0.61283 0.12500
C 	C 	0.82710 0.58458 0.62492 -0.19000
C 	C 	0.80020 0.60438 0.65970 0.10100
H 	H 	0.82450 0.62420 0.67800 -0.04700
C 	C 	0.73720 0.59468 0.66730 -0.24000
H 	H 	0.72000 0.60780 0.69130 0.09600
C 	C 	0.78940 0.55519 0.59860 0.10800
H 	H 	0.80710 0.54150 0.57560 -0.06000
C 	C 	0.69950 0.56570 0.63970 0.21400
C 	C 	0.72680 0.54584 0.60580 -0.24600
H 	H 	0.70260 0.52590 0.58770 0.09500
C 	C 	0.98564 0.59281 0.59095 0.16100
C 	C 	0.04250 0.54352 0.55730 0.17400
H 	H 	0.00580 0.52900 0.55890 -0.09400
C 	C 	0.09410 0.52990 0.53900 -0.30000
H 	H 	0.09180 0.50640 0.52810 0.12000
C 	C 	0.04330 0.57880 0.57379 -0.22900
C 	C 	0.09740 0.59974 0.56880 0.16400
H 	H 	0.09820 0.62360 0.57750 -0.07600
C 	C 	0.15000 0.58605 0.55140 -0.29000
H 	H 	0.18650 0.60050 0.54930 0.12400
C 	C 	0.14920 0.55049 0.53660 0.24800
C 	C 	0.77490 0.35690 0.58989 -0.19000
C 	C 	0.73940 0.34453 0.53624 0.10000
H 	H 	0.74390 0.32090 0.52810 -0.04700
C 	C 	0.76870 0.39207 0.60000 0.11300
H 	H 	0.79390 0.40140 0.63530 -0.05900
C 	C 	0.81857 0.33303 0.63459 0.12700
C 	C 	0.69720 0.36629 0.49410 -0.24100
H 	H 	0.67440 0.35730 0.45810 0.09600
C 	C 	0.72540 0.41410 0.55860 -0.24500
H 	H 	0.72070 0.43770 0.56680 0.09500
C 	C 	0.68900 0.40100 0.50510 0.20400
C 	C 	0.85158 0.25569 0.72119 -0.18600
C 	C 	0.80070 0.24850 0.74606 0.10100
H 	H 	0.76270 0.26380 0.74050 -0.05400
C 	C 	0.80570 0.21919 0.77855 -0.25500
H 	H 	0.77090 0.21480 0.79470 0.10300
C 	C 	0.90682 0.23157 0.72926 0.09700
H 	H 	0.94090 0.23550 0.71220 -0.03500
C 	C 	0.85066 0.28849 0.69007 0.13300
C 	C 	0.86160 0.19573 0.78799 0.21300
C 	C 	0.91160 0.20221 0.76190 -0.23700
H 	H 	0.94870 0.18640 0.76670 0.09700
C 	C 	0.90723 0.47067 0.69469 0.12600
C 	C 	0.86730 0.49352 0.72023 -0.18300
C 	C 	0.89400 0.52543 0.74581 0.09500
H 	H 	0.93630 0.53400 0.74310 -0.06600
C 	C 	0.79590 0.53244 0.77930 0.21400
C 	C 	0.80300 0.48212 0.72350 0.09800
H 	H 	0.78350 0.46110 0.70610 -0.04100
C 	C 	0.85900 0.54466 0.77530 -0.24900
H 	H 	0.87790 0.56580 0.79230 0.09600
C 	C 	0.76740 0.50126 0.75220 -0.24000
H 	H 	0.72400 0.49330 0.75340 0.09900
C 	C 	0.08460 0.46215 0.63173 0.06800
H 	H 	0.09260 0.48130 0.65620 -0.02800
C 	C 	0.06180 0.40582 0.55786 -0.21700
H 	H 	0.05370 0.38670 0.53330 0.09200
C 	C 	0.02210 0.44373 0.61868 -0.18900
C 	C 	0.97253 0.44938 0.64956 0.11700
C 	C 	0.01110 0.41548 0.58084 0.06600
H 	H 	0.96870 0.40300 0.57110 -0.03000
C 	C 	0.12450 0.42409 0.57080 0.20000
C 	C 	0.13600 0.45231 0.60850 -0.23000
H 	H 	0.17850 0.46460 0.61830 0.09800
C 	C 	0.53814 0.30775 0.54062 -0.18800
C 	C 	0.48780 0.31645 0.48882 0.11700
H 	H 	0.46360 0.29850 0.46490 -0.06200
C 	C 	0.57330 0.33559 0.57470 0.11300
H 	H 	0.60760 0.33080 0.60950 -0.06400
C 	C 	0.55820 0.37022 0.55790 -0.24100
H 	H 	0.58240 0.38830 0.58150 0.10000
C 	C 	0.55308 0.27106 0.55829 0.13600
C 	C 	0.47290 0.35101 0.47207 -0.24400
H 	H 	0.43900 0.35600 0.43720 0.10100
C 	C 	0.50780 0.37846 0.50660 0.21800
C 	C 	0.60804 0.22386 0.59634 0.12800
C 	C 	0.72880 0.19998 0.61425 0.11400
H 	H 	0.73650 0.21760 0.59110 -0.06400
C 	C 	0.78110 0.17548 0.63790 -0.24700
H 	H 	0.82360 0.17670 0.63040 0.10100
C 	C 	0.77140 0.14903 0.67250 0.22200
C 	C 	0.70860 0.14815 0.68410 -0.25100
H 	H 	0.70170 0.13090 0.70800 0.10200
C 	C 	0.65580 0.17262 0.66054 0.11500
H 	H 	0.61390 0.17160 0.66880 -0.06000
C 	C 	0.66481 0.19883 0.62448 -0.19400
C 	C 	0.16588 0.35286 0.68602 0.14000
C 	C 	0.23849 0.36590 0.71028 -0.18000
C 	C 	0.26250 0.37562 0.76580 0.09600
H 	H 	0.23550 0.37020 0.78860 -0.05800
C 	C 	0.27960 0.37287 0.67690 0.09900
H 	H 	0.26440 0.36620 0.63910 -0.02600
C 	C 	0.32570 0.39336 0.78920 -0.25200
H 	H 	0.34030 0.40010 0.82690 0.10000
C 	C 	0.36640 0.40090 0.75730 0.20000
C 	C 	0.34370 0.39000 0.70070 -0.23300
H 	H 	0.37230 0.39420 0.67880 0.09900
C 	C 	0.01750 0.29960 0.60949 -0.19400
C 	C 	0.02580 0.26438 0.62477 0.03500
H 	H 	0.06790 0.25690 0.65140 -0.02600
C 	C 	0.97300 0.24034 0.60150 -0.20600
H 	H 	0.97930 0.21690 0.61280 0.09200
C 	C 	0.90210 0.28600 0.54460 -0.22500
H 	H 	0.86050 0.29330 0.51710 0.09200
C 	C 	0.91040 0.25101 0.56120 0.18000
C 	C 	0.06997 0.32562 0.64147 0.11000
C 	C 	0.95530 0.31017 0.56855 0.08300
H 	H 	0.94930 0.33360 0.55710 -0.04000
Cu	Cu	0.53876 0.87165 0.83183 0.76500
Cu	Cu	0.55257 0.02550 0.86737 0.82600
Cu	Cu	0.09297 0.74533 0.99684 0.81300
Cu	Cu	0.79508 0.78183 0.88101 0.82700
Cu	Cu	0.00644 0.67126 0.93246 0.81100
Cu	Cu	0.31729 0.79376 0.88765 0.83500
Cu	Cu	0.15222 0.66891 0.91260 0.81800
Cu	Cu	0.60857 0.90534 0.74621 0.77900
Cl	Cl	0.12515 0.68141 0.00786 -0.79500
N 	N 	0.55008 0.92240 0.82777 -0.28000
N 	N 	0.55336 0.98041 0.83785 -0.28800
N 	N 	0.59145 0.93610 0.79829 -0.26700
N 	N 	0.27889 0.79576 0.08395 -0.28400
N 	N 	0.22358 0.74597 0.08902 -0.24300
N 	N 	0.18240 0.76443 0.04221 -0.24500
N 	N 	0.99500 0.74560 0.95255 -0.24800
N 	N 	0.95933 0.71506 0.92823 -0.25100
N 	N 	0.88163 0.75856 0.91097 -0.28600
N 	N 	0.53323 0.12648 0.91127 -0.24700
N 	N 	0.59453 0.12787 0.89716 -0.25500
N 	N 	0.55982 0.07228 0.89271 -0.28900
N 	N 	0.38607 0.86930 0.80252 -0.27100
N 	N 	0.44786 0.85165 0.83080 -0.27700
N 	N 	0.35934 0.82534 0.84936 -0.27700
N 	N 	0.70585 0.80226 0.85050 -0.29000
N 	N 	0.61400 0.83787 0.83543 -0.26900
N 	N 	0.59334 0.80924 0.79985 -0.27200
N 	N 	0.67700 0.62393 0.80540 -0.33000
H 	H 	0.68380 0.60750 0.78420 0.13500
H 	H 	0.63810 0.62470 0.81290 0.13200
N 	N 	0.63170 0.66676 0.67690 -0.32900
H 	H 	0.59640 0.65270 0.67120 0.13400
H 	H 	0.66290 0.66290 0.66090 0.13700
N 	N 	0.32600 0.91495 0.95440 -0.33100
H 	H 	0.33440 0.89780 0.97810 0.15200
H 	H 	0.28680 0.92640 0.94630 0.14000
N 	N 	0.73890 0.05181 0.69060 -0.32900
H 	H 	0.72100 0.07130 0.67460 0.14500
H 	H 	0.77830 0.04430 0.68800 0.13600
N 	N 	0.64480 0.72658 0.96150 -0.31600
H 	H 	0.68410 0.73330 0.98590 0.11200
H 	H 	0.63920 0.70490 0.95090 0.13200
N 	N 	0.07630 0.90636 0.89840 -0.32100
H 	H 	0.08200 0.92760 0.91110 0.12700
H 	H 	0.04670 0.90210 0.86530 0.12800
N 	N 	0.00910 0.91332 0.00950 -0.34200
H 	H 	0.98810 0.93020 0.98730 0.14200
H 	H 	0.04060 0.91800 0.04150 0.14100
N 	N 	0.47810 0.72590 0.32536 -0.32000
H 	H 	0.50310 0.74190 0.34740 0.11900
H 	H 	0.48290 0.70420 0.33560 0.13700
N 	N 	0.85170 0.92321 0.03800 -0.32700
H 	H 	0.87170 0.91500 0.07150 0.13300
H 	H 	0.85680 0.94500 0.03090 0.12800
N 	N 	0.86530 0.05737 0.85490 -0.32700
H 	H 	0.88910 0.03960 0.87280 0.13100
H 	H 	0.88190 0.07000 0.83370 0.13100
N 	N 	0.29700 0.03607 0.97960 -0.33900
H 	H 	0.29810 0.01410 0.98810 0.13100
H 	H 	0.26250 0.04910 0.98100 0.14600
N 	N 	0.06820 0.91870 0.71870 -0.31900
H 	H 	0.05420 0.92460 0.68370 0.12500
H 	H 	0.04240 0.92350 0.73920 0.12000
C 	C 	0.21638 0.79406 0.04065 0.12500
C 	C 	0.14270 0.81668 0.94562 0.09300
H 	H 	0.13680 0.79380 0.93140 -0.05600
C 	C 	0.11520 0.87874 0.93160 0.20300
C 	C 	0.16280 0.88511 0.98460 -0.23700
H 	H 	0.17200 0.90820 0.99750 0.09900
C 	C 	0.18675 0.82270 0.00068 -0.17300
C 	C 	0.19720 0.85748 0.01912 0.10400
H 	H 	0.22790 0.86230 0.05530 -0.05500
C 	C 	0.10740 0.84422 0.91166 -0.23000
H 	H 	0.07800 0.83960 0.87500 0.09500
C 	C 	0.28064 0.76556 0.11346 0.11700
C 	C 	0.33480 0.75510 0.16661 -0.18100
C 	C 	0.37560 0.78016 0.20410 0.08700
H 	H 	0.37150 0.80380 0.19390 -0.06200
C 	C 	0.42280 0.77009 0.25700 -0.22600
H 	H 	0.44950 0.78720 0.28150 0.07700
C 	C 	0.34280 0.72000 0.18410 0.10100
H 	H 	0.31630 0.70270 0.16000 -0.06000
C 	C 	0.43010 0.73522 0.27320 0.20300
C 	C 	0.38960 0.71024 0.23680 -0.24600
H 	H 	0.39340 0.68670 0.24760 0.10400
C 	C 	0.60924 0.09513 0.88717 0.12500
C 	C 	0.67290 0.08458 0.87508 -0.19100
C 	C 	0.69980 0.10438 0.84030 0.10100
H 	H 	0.67550 0.12420 0.82200 -0.04800
C 	C 	0.76280 0.09468 0.83270 -0.24100
H 	H 	0.78000 0.10780 0.80870 0.09700
C 	C 	0.71060 0.05519 0.90140 0.10900
H 	H 	0.69290 0.04150 0.92440 -0.06000
C 	C 	0.80050 0.06570 0.86030 0.21500
C 	C 	0.77320 0.04584 0.89420 -0.24700
H 	H 	0.79740 0.02590 0.91230 0.09600
C 	C 	0.51436 0.09281 0.90905 0.14700
C 	C 	0.45750 0.04352 0.94270 0.16300
H 	H 	0.49420 0.02900 0.94110 -0.08600
C 	C 	0.40590 0.02990 0.96100 -0.29000
H 	H 	0.40820 0.00640 0.97190 0.11800
C 	C 	0.45670 0.07880 0.92621 -0.21100
C 	C 	0.40260 0.09974 0.93120 0.15300
H 	H 	0.40180 0.12360 0.92250 -0.07100
C 	C 	0.35000 0.08605 0.94860 -0.28100
H 	H 	0.31350 0.10050 0.95070 0.12100
C 	C 	0.35080 0.05049 0.96340 0.24100
C 	C 	0.72510 0.85690 0.91011 -0.19200
C 	C 	0.76060 0.84453 0.96376 0.10300
H 	H 	0.75610 0.82090 0.97190 -0.04800
C 	C 	0.73130 0.89207 0.90000 0.11600
H 	H 	0.70610 0.90140 0.86470 -0.06000
C 	C 	0.68143 0.83303 0.86541 0.12800
C 	C 	0.80280 0.86629 0.00590 -0.24600
H 	H 	0.82560 0.85730 0.04190 0.09800
C 	C 	0.77460 0.91410 0.94140 -0.24800
H 	H 	0.77930 0.93770 0.93320 0.09700
C 	C 	0.81100 0.90100 0.99490 0.20800
C 	C 	0.64842 0.75569 0.77881 -0.18600
C 	C 	0.69930 0.74850 0.75394 0.10100
H 	H 	0.73730 0.76380 0.75950 -0.05400
C 	C 	0.69430 0.71919 0.72145 -0.25400
H 	H 	0.72910 0.71480 0.70530 0.10300
C 	C 	0.59318 0.73157 0.77074 0.09600
H 	H 	0.55910 0.73550 0.78780 -0.03700
C 	C 	0.64934 0.78849 0.80993 0.13300
C 	C 	0.63840 0.69573 0.71201 0.21200
C 	C 	0.58840 0.70221 0.73810 -0.23700
H 	H 	0.55130 0.68640 0.73330 0.09400
C 	C 	0.59277 0.97067 0.80531 0.12500
C 	C 	0.63270 0.99352 0.77977 -0.18500
C 	C 	0.60600 0.02543 0.75419 0.09600
H 	H 	0.56370 0.03400 0.75690 -0.06900
C 	C 	0.70410 0.03244 0.72070 0.21500
C 	C 	0.69700 0.98212 0.77650 0.09900
H 	H 	0.71650 0.96110 0.79390 -0.04200
C 	C 	0.64100 0.04466 0.72470 -0.25000
H 	H 	0.62210 0.06580 0.70770 0.09400
C 	C 	0.73260 0.00126 0.74780 -0.24100
H 	H 	0.77600 0.99330 0.74660 0.10000
C 	C 	0.41540 0.96215 0.86827 0.06900
H 	H 	0.40740 0.98130 0.84380 -0.02700
C 	C 	0.43820 0.90582 0.94214 -0.22800
H 	H 	0.44630 0.88670 0.96670 0.09700
C 	C 	0.47790 0.94373 0.88132 -0.18600
C 	C 	0.52747 0.94938 0.85044 0.10900
C 	C 	0.48890 0.91548 0.91916 0.08800
H 	H 	0.53130 0.90300 0.92890 -0.04300
C 	C 	0.37550 0.92409 0.92920 0.20500
C 	C 	0.36400 0.95231 0.89150 -0.23200
H 	H 	0.32150 0.96460 0.88170 0.09800
C 	C 	0.96186 0.80775 0.95938 -0.18200
C 	C 	0.01220 0.81645 0.01118 0.11500
H 	H 	0.03640 0.79850 0.03510 -0.06300
C 	C 	0.92670 0.83559 0.92530 0.11800
H 	H 	0.89240 0.83080 0.89050 -0.06500
C 	C 	0.94180 0.87022 0.94210 -0.25000
H 	H 	0.91760 0.88830 0.91850 0.10400
C 	C 	0.94692 0.77106 0.94171 0.13600
C 	C 	0.02710 0.85101 0.02793 -0.26100
H 	H 	0.06100 0.85600 0.06280 0.10600
C 	C 	0.99220 0.87846 0.99340 0.24000
C 	C 	0.89196 0.72386 0.90366 0.12800
C 	C 	0.77120 0.69998 0.88575 0.11300
H 	H 	0.76350 0.71760 0.90890 -0.06300
C 	C 	0.71890 0.67548 0.86210 -0.24500
H 	H 	0.67640 0.67670 0.86960 0.10000
C 	C 	0.72860 0.64903 0.82750 0.22100
C 	C 	0.79140 0.64815 0.81590 -0.25000
H 	H 	0.79830 0.63090 0.79200 0.10200
C 	C 	0.84420 0.67262 0.83946 0.11400
H 	H 	0.88610 0.67160 0.83120 -0.05800
C 	C 	0.83519 0.69883 0.87552 -0.19200
C 	C 	0.33412 0.85286 0.81398 0.14000
C 	C 	0.26151 0.86590 0.78972 -0.18000
C 	C 	0.23750 0.87562 0.73420 0.09500
H 	H 	0.26450 0.87020 0.71140 -0.05800
C 	C 	0.22040 0.87287 0.82310 0.09800
H 	H 	0.23560 0.86620 0.86090 -0.02500
C 	C 	0.17430 0.89336 0.71080 -0.25100
H 	H 	0.15970 0.90010 0.67310 0.09900
C 	C 	0.13360 0.90090 0.74270 0.19800
C 	C 	0.15630 0.89000 0.79930 -0.23200
H 	H 	0.12770 0.89420 0.82120 0.09800
C 	C 	0.48250 0.79960 0.89051 -0.18600
C 	C 	0.47420 0.76438 0.87523 0.04900
H 	H 	0.43210 0.75690 0.84860 -0.02900
C 	C 	0.52700 0.74034 0.89850 -0.22200
H 	H 	0.52070 0.71690 0.88720 0.09400
C 	C 	0.59790 0.78600 0.95540 -0.22300
H 	H 	0.63950 0.79330 0.98290 0.09100
C 	C 	0.58960 0.75101 0.93880 0.18300
C 	C 	0.43003 0.82562 0.85853 0.10900
C 	C 	0.54470 0.81017 0.93145 0.07000
H 	H 	0.55070 0.83360 0.94290 -0.03800
Cu	Cu	0.03876 0.37165 0.83183 0.76200
Cu	Cu	0.05257 0.52550 0.86737 0.82300
Cu	Cu	0.59297 0.24533 0.99684 0.81700
Cu	Cu	0.29508 0.28183 0.88101 0.82700
Cu	Cu	0.50644 0.17126 0.93246 0.81600
Cu	Cu	0.81729 0.29376 0.88765 0.83600
Cu	Cu	0.65222 0.16891 0.91260 0.81900
Cu	Cu	0.10857 0.40534 0.74621 0.77800
Cl	Cl	0.62515 0.18141 0.00786 -0.79500
N 	N 	0.05008 0.42240 0.82777 -0.28000
N 	N 	0.05336 0.48041 0.83785 -0.28800
N 	N 	0.09145 0.43610 0.79829 -0.26800
N 	N 	0.77889 0.29576 0.08395 -0.28400
N 	N 	0.72358 0.24597 0.08902 -0.24300
N 	N 	0.68240 0.26443 0.04221 -0.24600
N 	N 	0.49500 0.24560 0.95255 -0.25300
N 	N 	0.45933 0.21506 0.92823 -0.25400
N 	N 	0.38163 0.25856 0.91097 -0.28700
N 	N 	0.03323 0.62648 0.91127 -0.24700
N 	N 	0.09453 0.62787 0.89716 -0.25500
N 	N 	0.05982 0.57228 0.89271 -0.28900
N 	N 	0.88607 0.36930 0.80252 -0.27100
N 	N 	0.94786 0.35165 0.83080 -0.27300
N 	N 	0.85934 0.32534 0.84936 -0.27600
N 	N 	0.20585 0.30226 0.85050 -0.29000
N 	N 	0.11400 0.33787 0.83543 -0.26900
N 	N 	0.09334 0.30924 0.79985 -0.27300
N 	N 	0.17700 0.12393 0.80540 -0.33000
H 	H 	0.18380 0.10750 0.78420 0.13400
H 	H 	0.13810 0.12470 0.81290 0.13100
N 	N 	0.13170 0.16676 0.67690 -0.32900
H 	H 	0.09640 0.15270 0.67120 0.13200
H 	H 	0.16290 0.16290 0.66090 0.13700
N 	N 	0.82600 0.41495 0.95440 -0.33200
H 	H 	0.83440 0.39780 0.97810 0.15300
H 	H 	0.78680 0.42640 0.94630 0.14100
N 	N 	0.23890 0.55181 0.69060 -0.32900
H 	H 	0.22100 0.57130 0.67460 0.14500
H 	H 	0.27830 0.54430 0.68800 0.13500
N 	N 	0.14480 0.22658 0.96150 -0.31600
H 	H 	0.18410 0.23330 0.98590 0.11100
H 	H 	0.13920 0.20490 0.95090 0.13100
N 	N 	0.57630 0.40636 0.89840 -0.32200
H 	H 	0.58200 0.42760 0.91110 0.13000
H 	H 	0.54670 0.40210 0.86530 0.13200
N 	N 	0.50910 0.41332 0.00950 -0.32500
H 	H 	0.48810 0.43020 0.98730 0.13100
H 	H 	0.54060 0.41800 0.04150 0.13800
N 	N 	0.97810 0.22590 0.32536 -0.31300
H 	H 	0.00310 0.24190 0.34740 0.11000
H 	H 	0.98290 0.20420 0.33560 0.13700
N 	N 	0.35170 0.42321 0.03800 -0.32300
H 	H 	0.37170 0.41500 0.07150 0.13100
H 	H 	0.35680 0.44500 0.03090 0.12700
N 	N 	0.36530 0.55737 0.85490 -0.32600
H 	H 	0.38910 0.53960 0.87280 0.12900
H 	H 	0.38190 0.57000 0.83370 0.12900
N 	N 	0.79700 0.53607 0.97960 -0.33800
H 	H 	0.79810 0.51410 0.98810 0.13200
H 	H 	0.76250 0.54910 0.98100 0.14600
N 	N 	0.56820 0.41870 0.71870 -0.32100
H 	H 	0.55420 0.42460 0.68370 0.12800
H 	H 	0.54240 0.42350 0.73920 0.12400
C 	C 	0.71638 0.29406 0.04065 0.12500
C 	C 	0.64270 0.31668 0.94562 0.09900
H 	H 	0.63680 0.29380 0.93140 -0.05700
C 	C 	0.61520 0.37874 0.93160 0.20600
C 	C 	0.66280 0.38511 0.98460 -0.23400
H 	H 	0.67200 0.40820 0.99750 0.10000
C 	C 	0.68675 0.32270 0.00068 -0.17700
C 	C 	0.69720 0.35748 0.01912 0.10300
H 	H 	0.72790 0.36230 0.05530 -0.05500
C 	C 	0.60740 0.34422 0.91166 -0.23300
H 	H 	0.57800 0.33960 0.87500 0.09800
C 	C 	0.78064 0.26556 0.11346 0.11700
C 	C 	0.83480 0.25510 0.16661 -0.18100
C 	C 	0.87560 0.28016 0.20410 0.08700
H 	H 	0.87150 0.30380 0.19390 -0.06100
C 	C 	0.92280 0.27009 0.25700 -0.22500
H 	H 	0.94950 0.28720 0.28150 0.07900
C 	C 	0.84280 0.22000 0.18410 0.10100
H 	H 	0.81630 0.20270 0.16000 -0.06000
C 	C 	0.93010 0.23522 0.27320 0.20300
C 	C 	0.88960 0.21024 0.23680 -0.24500
H 	H 	0.89340 0.18670 0.24760 0.10500
C 	C 	0.10924 0.59513 0.88717 0.12400
C 	C 	0.17290 0.58458 0.87508 -0.19100
C 	C 	0.19980 0.60438 0.84030 0.10100
H 	H 	0.17550 0.62420 0.82200 -0.04900
C 	C 	0.26280 0.59468 0.83270 -0.24000
H 	H 	0.28000 0.60780 0.80870 0.09600
C 	C 	0.21060 0.55519 0.90140 0.10900
H 	H 	0.19290 0.54150 0.92440 -0.06100
C 	C 	0.30050 0.56570 0.86030 0.21400
C 	C 	0.27320 0.54584 0.89420 -0.24700
H 	H 	0.29740 0.52590 0.91230 0.09500
C 	C 	0.01436 0.59281 0.90905 0.13100
C 	C 	0.95750 0.54352 0.94270 0.15100
H 	H 	0.99420 0.52900 0.94110 -0.07800
C 	C 	0.90590 0.52990 0.96100 -0.28000
H 	H 	0.90820 0.50640 0.97190 0.11600
C 	C 	0.95670 0.57880 0.92621 -0.19000
C 	C 	0.90260 0.59974 0.93120 0.14000
H 	H 	0.90180 0.62360 0.92250 -0.06400
C 	C 	0.85000 0.58605 0.94860 -0.27100
H 	H 	0.81350 0.60050 0.95070 0.11800
C 	C 	0.85080 0.55049 0.96340 0.23600
C 	C 	0.22510 0.35690 0.91011 -0.18500
C 	C 	0.26060 0.34453 0.96376 0.09000
H 	H 	0.25610 0.32090 0.97190 -0.04400
C 	C 	0.23130 0.39207 0.90000 0.10700
H 	H 	0.20610 0.40140 0.86470 -0.05700
C 	C 	0.18143 0.33303 0.86541 0.12500
C 	C 	0.30280 0.36629 0.00590 -0.22900
H 	H 	0.32560 0.35730 0.04190 0.09300
C 	C 	0.27460 0.41410 0.94140 -0.23900
H 	H 	0.27930 0.43770 0.93320 0.09300
C 	C 	0.31100 0.40100 0.99490 0.19600
C 	C 	0.14842 0.25569 0.77881 -0.18600
C 	C 	0.19930 0.24850 0.75394 0.10100
H 	H 	0.23730 0.26380 0.75950 -0.05400
C 	C 	0.19430 0.21919 0.72145 -0.25400
H 	H 	0.22910 0.21480 0.70530 0.10200
C 	C 	0.09318 0.23157 0.77074 0.09500
H 	H 	0.05910 0.23550 0.78780 -0.03900
C 	C 	0.14934 0.28849 0.80993 0.13300
C 	C 	0.13840 0.19573 0.71201 0.21000
C 	C 	0.08840 0.20221 0.73810 -0.23700
H 	H 	0.05130 0.18640 0.73330 0.09100
C 	C 	0.09277 0.47067 0.80531 0.12400
C 	C 	0.13270 0.49352 0.77977 -0.18500
C 	C 	0.10600 0.52543 0.75419 0.09600
H 	H 	0.06370 0.53400 0.75690 -0.07200
C 	C 	0.20410 0.53244 0.72070 0.21500
C 	C 	0.19700 0.48212 0.77650 0.09900
H 	H 	0.21650 0.46110 0.79390 -0.04200
C 	C 	0.14100 0.54466 0.72470 -0.25100
H 	H 	0.12210 0.56580 0.70770 0.09300
C 	C 	0.23260 0.50126 0.74780 -0.24100
H 	H 	0.27600 0.49330 0.74660 0.09900
C 	C 	0.91540 0.46215 0.86827 0.07100
H 	H 	0.90740 0.48130 0.84380 -0.02600
C 	C 	0.93820 0.40582 0.94214 -0.24300
H 	H 	0.94630 0.38670 0.96670 0.10500
C 	C 	0.97790 0.44373 0.88132 -0.18400
C 	C 	0.02747 0.44938 0.85044 0.10000
C 	C 	0.98890 0.41548 0.91916 0.11500
H 	H 	0.03130 0.40300 0.92890 -0.05900
C 	C 	0.87550 0.42409 0.92920 0.21300
C 	C 	0.86400 0.45231 0.89150 -0.23700
H 	H 	0.82150 0.46460 0.88170 0.10000
C 	C 	0.46186 0.30775 0.95938 -0.18900
C 	C 	0.51220 0.31645 0.01118 0.11700
H 	H 	0.53640 0.29850 0.03510 -0.06200
C 	C 	0.42670 0.33559 0.92530 0.11200
H 	H 	0.39240 0.33080 0.89050 -0.06400
C 	C 	0.44180 0.37022 0.94210 -0.24100
H 	H 	0.41760 0.38830 0.91850 0.10000
C 	C 	0.44692 0.27106 0.94171 0.13600
C 	C 	0.52710 0.35101 0.02793 -0.24200
H 	H 	0.56100 0.35600 0.06280 0.10100
C 	C 	0.49220 0.37846 0.99340 0.21600
C 	C 	0.39196 0.22386 0.90366 0.12800
C 	C 	0.27120 0.19998 0.88575 0.11300
H 	H 	0.26350 0.21760 0.90890 -0.06400
C 	C 	0.21890 0.17548 0.86210 -0.24600
H 	H 	0.17640 0.17670 0.86960 0.09900
C 	C 	0.22860 0.14903 0.82750 0.22100
C 	C 	0.29140 0.14815 0.81590 -0.25000
H 	H 	0.29830 0.13090 0.79200 0.10200
C 	C 	0.34420 0.17262 0.83946 0.11400
H 	H 	0.38610 0.17160 0.83120 -0.06000
C 	C 	0.33519 0.19883 0.87552 -0.19300
C 	C 	0.83412 0.35286 0.81398 0.14000
C 	C 	0.76151 0.36590 0.78972 -0.18000
C 	C 	0.73750 0.37562 0.73420 0.09600
H 	H 	0.76450 0.37020 0.71140 -0.05800
C 	C 	0.72040 0.37287 0.82310 0.09900
H 	H 	0.73560 0.36620 0.86090 -0.02600
C 	C 	0.67430 0.39336 0.71080 -0.25200
H 	H 	0.65970 0.40010 0.67310 0.10000
C 	C 	0.63360 0.40090 0.74270 0.20000
C 	C 	0.65630 0.39000 0.79930 -0.23300
H 	H 	0.62770 0.39420 0.82120 0.09900
C 	C 	0.98250 0.29960 0.89051 -0.17700
C 	C 	0.97420 0.26438 0.87523 0.06400
H 	H 	0.93210 0.25690 0.84860 -0.03300
C 	C 	0.02700 0.24034 0.89850 -0.24000
H 	H 	0.02070 0.21690 0.88720 0.09600
C 	C 	0.09790 0.28600 0.95540 -0.22000
H 	H 	0.13950 0.29330 0.98290 0.08800
C 	C 	0.08960 0.25101 0.93880 0.18400
C 	C 	0.93003 0.32562 0.85853 0.10900
C 	C 	0.04470 0.31017 0.93145 0.05500
H 	H 	0.05070 0.33360 0.94290 -0.03500
Cu	Cu	0.50000 0.19225 0.25000 0.77200
Cu	Cu	0.00000 0.69225 0.25000 0.76900
Cu	Cu	0.50000 0.80775 0.75000 0.77200
Cu	Cu	0.00000 0.30775 0.75000 0.76800
