data_crystal

_cell_length_a 20.01400
_cell_length_b 37.95600
_cell_length_c 25.08500
_cell_angle_alpha 90.00000
_cell_angle_beta  109.38400
_cell_angle_gamma 90.00000

_symmetry_space_group_name_	'P 1'
_symmetry_space_group_name_H-M	'P 1'

loop_
_symmetry_equiv_pos_as_xyz
  x,y,z

loop_
_atom_site_label
_atom_site_type_symbol
_atom_site_fract_x
_atom_site_fract_y
_atom_site_fract_z
_atom_site_charge
Cu	Cu	0.53904 0.12661 0.33228 0.76600
Cu	Cu	0.55122 0.97368 0.36623 0.82600
Cu	Cu	0.09482 0.25486 0.50078 0.80600
Cu	Cu	0.79563 0.21764 0.38377 0.82600
Cu	Cu	0.00591 0.32871 0.43257 0.80500
Cu	Cu	0.31445 0.20669 0.38200 0.83100
Cu	Cu	0.14895 0.33082 0.40653 0.81200
Cu	Cu	0.61018 0.09318 0.24663 0.77900
Br	Br	0.13121 0.32100 0.51096 -0.74800
C 	C 	0.21900 0.20598 0.54553 0.11500
C 	C 	0.14570 0.18362 0.44929 0.08100
H 	H 	0.14110 0.20640 0.43480 -0.05200
C 	C 	0.11620 0.12204 0.43630 0.19300
C 	C 	0.16260 0.11575 0.49080 -0.22300
H 	H 	0.16960 0.09280 0.50440 0.09500
C 	C 	0.18880 0.17760 0.50532 -0.16300
C 	C 	0.19800 0.14274 0.52480 0.09100
H 	H 	0.22840 0.13790 0.56110 -0.04900
C 	C 	0.10970 0.15606 0.41500 -0.22100
H 	H 	0.08140 0.16050 0.37790 0.09000
C 	C 	0.28410 0.23443 0.61903 0.10800
C 	C 	0.33870 0.24487 0.67231 -0.16800
C 	C 	0.37920 0.22016 0.71080 0.07300
H 	H 	0.37460 0.19640 0.70110 -0.05400
C 	C 	0.42650 0.23008 0.76350 -0.20800
H 	H 	0.45260 0.21300 0.78820 0.06800
C 	C 	0.34740 0.28019 0.68870 0.08200
H 	H 	0.32150 0.29740 0.66400 -0.05100
C 	C 	0.43460 0.26525 0.77930 0.18200
C 	C 	0.39420 0.29029 0.74140 -0.22300
H 	H 	0.39860 0.31400 0.75130 0.09700
C 	C 	0.60580 0.90402 0.38188 0.11700
C 	C 	0.67040 0.91388 0.36996 -0.17700
C 	C 	0.69690 0.89388 0.33530 0.08600
H 	H 	0.67130 0.87450 0.31650 -0.04300
C 	C 	0.76120 0.90230 0.32820 -0.22500
H 	H 	0.77770 0.88880 0.30430 0.09200
C 	C 	0.70940 0.94306 0.39710 0.09000
H 	H 	0.69220 0.95700 0.42020 -0.05300
C 	C 	0.80070 0.93075 0.35660 0.19600
C 	C 	0.77300 0.95161 0.39030 -0.22400
H 	H 	0.79770 0.97140 0.40820 0.08900
C 	C 	0.51220 0.90654 0.40662 0.13900
C 	C 	0.45830 0.95642 0.44230 0.13500
H 	H 	0.49550 0.97050 0.44050 -0.07900
C 	C 	0.40710 0.97069 0.46130 -0.25800
H 	H 	0.41160 0.99400 0.47340 0.10700
C 	C 	0.45550 0.92126 0.42560 -0.18800
C 	C 	0.40110 0.90062 0.43110 0.11700
H 	H 	0.40040 0.87660 0.42360 -0.05700
C 	C 	0.34710 0.91546 0.44790 -0.24500
H 	H 	0.30960 0.90140 0.44920 0.10900
C 	C 	0.34890 0.95140 0.46290 0.21900
C 	C 	0.72650 0.14184 0.41284 -0.17000
C 	C 	0.76280 0.15477 0.46660 0.08000
H 	H 	0.75880 0.17850 0.47400 -0.04100
C 	C 	0.73320 0.10660 0.40240 0.09100
H 	H 	0.70890 0.09720 0.36700 -0.05000
C 	C 	0.68260 0.16556 0.36761 0.12000
C 	C 	0.80490 0.13332 0.50950 -0.21800
H 	H 	0.82760 0.14260 0.54520 0.09100
C 	C 	0.77640 0.08497 0.44480 -0.22100
H 	H 	0.78100 0.06130 0.43720 0.08800
C 	C 	0.81300 0.09825 0.49880 0.18200
C 	C 	0.64870 0.24266 0.28042 -0.16700
C 	C 	0.70130 0.24999 0.25645 0.07400
H 	H 	0.73950 0.23480 0.26250 -0.04600
C 	C 	0.69620 0.27993 0.22386 -0.23700
H 	H 	0.73170 0.28490 0.20860 0.09600
C 	C 	0.59290 0.26634 0.27218 0.07700
H 	H 	0.55870 0.26210 0.28900 -0.03000
C 	C 	0.64990 0.20988 0.31179 0.12200
C 	C 	0.63900 0.30254 0.21360 0.20200
C 	C 	0.58810 0.29604 0.23933 -0.22100
H 	H 	0.55080 0.31170 0.23430 0.08900
C 	C 	0.59320 0.02829 0.30547 0.11800
C 	C 	0.63420 0.00538 0.27978 -0.17000
C 	C 	0.60680 0.97353 0.25440 0.08200
H 	H 	0.56450 0.96500 0.25720 -0.06500
C 	C 	0.70600 0.96643 0.22080 0.20400
C 	C 	0.69960 0.01693 0.27740 0.08200
H 	H 	0.71900 0.03790 0.29500 -0.03600
C 	C 	0.64260 0.95456 0.22510 -0.23500
H 	H 	0.62360 0.93340 0.20790 0.09000
C 	C 	0.73530 0.99742 0.24910 -0.22400
H 	H 	0.77950 0.00490 0.24890 0.09400
C 	C 	0.41260 0.03669 0.36630 0.04900
H 	H 	0.40440 0.01800 0.34100 -0.02000
C 	C 	0.43640 0.09182 0.44226 -0.21000
H 	H 	0.44470 0.11050 0.46770 0.09100
C 	C 	0.47640 0.05494 0.38038 -0.17400
C 	C 	0.52700 0.04933 0.34997 0.10300
C 	C 	0.48740 0.08279 0.41929 0.07300
H 	H 	0.52980 0.09520 0.42960 -0.03700
C 	C 	0.37230 0.07365 0.42830 0.19000
C 	C 	0.36050 0.04594 0.38960 -0.21400
H 	H 	0.31790 0.03360 0.37930 0.09300
C 	C 	0.96320 0.19272 0.46297 -0.17600
C 	C 	0.01450 0.18406 0.51522 0.11100
H 	H 	0.03890 0.20200 0.53890 -0.06400
C 	C 	0.92730 0.16537 0.42790 0.11100
H 	H 	0.89310 0.17040 0.39330 -0.06500
C 	C 	0.94260 0.13063 0.44470 -0.24400
H 	H 	0.91860 0.11260 0.42110 0.10300
C 	C 	0.94770 0.22943 0.44509 0.13500
C 	C 	0.02910 0.14982 0.53184 -0.26000
H 	H 	0.06290 0.14480 0.56670 0.10600
C 	C 	0.99370 0.12232 0.49690 0.23800
C 	C 	0.89210 0.27614 0.40575 0.12000
C 	C 	0.76910 0.29932 0.38549 0.09100
H 	H 	0.76090 0.28160 0.40820 -0.05600
C 	C 	0.71640 0.32361 0.36140 -0.22000
H 	H 	0.67340 0.32200 0.36800 0.09300
C 	C 	0.72730 0.35058 0.32742 0.19500
C 	C 	0.79190 0.35135 0.31680 -0.22300
H 	H 	0.79920 0.36850 0.29290 0.09300
C 	C 	0.84490 0.32707 0.34131 0.09300
H 	H 	0.88760 0.32840 0.33420 -0.05300
C 	C 	0.83480 0.30060 0.37662 -0.17500
C 	C 	0.33230 0.14671 0.31122 0.12700
C 	C 	0.25890 0.13398 0.28758 -0.15400
C 	C 	0.23290 0.12303 0.23150 0.06600
H 	H 	0.25950 0.12760 0.20810 -0.04600
C 	C 	0.21780 0.12805 0.32170 0.06300
H 	H 	0.23410 0.13490 0.35950 -0.01300
C 	C 	0.16950 0.10580 0.20950 -0.21900
H 	H 	0.15440 0.09860 0.17190 0.08800
C 	C 	0.12840 0.09910 0.24200 0.16900
C 	C 	0.15160 0.11160 0.29890 -0.19600
H 	H 	0.12260 0.10890 0.32090 0.08600
C 	C 	0.48210 0.19976 0.38808 -0.17200
C 	C 	0.47240 0.23484 0.37265 0.02600
H 	H 	0.42990 0.24220 0.34620 -0.02400
C 	C 	0.52580 0.25908 0.39650 -0.19900
H 	H 	0.51900 0.28260 0.38540 0.08600
C 	C 	0.59900 0.21343 0.45410 -0.20400
H 	H 	0.64050 0.20610 0.48180 0.08400
C 	C 	0.59020 0.24859 0.43730 0.16700
C 	C 	0.42900 0.17367 0.35595 0.09800
C 	C 	0.54520 0.18941 0.42928 0.05100
H 	H 	0.55150 0.16590 0.44030 -0.03200
N 	N 	0.55048 0.07648 0.32784 -0.28100
N 	N 	0.55290 0.01851 0.33751 -0.28800
N 	N 	0.59285 0.06270 0.29893 -0.26700
N 	N 	0.28177 0.20434 0.58956 -0.28200
N 	N 	0.22591 0.25406 0.59433 -0.24400
N 	N 	0.18441 0.23569 0.54694 -0.24500
N 	N 	0.99596 0.25473 0.45586 -0.24900
N 	N 	0.95978 0.28500 0.43083 -0.25100
N 	N 	0.88178 0.24139 0.41393 -0.28300
N 	N 	0.52924 0.87303 0.40746 -0.24900
N 	N 	0.59037 0.87111 0.39172 -0.25800
N 	N 	0.55752 0.92674 0.38935 -0.28800
N 	N 	0.38513 0.12939 0.30188 -0.26800
N 	N 	0.44717 0.14676 0.33006 -0.27400
N 	N 	0.35738 0.17476 0.34545 -0.27400
N 	N 	0.70685 0.19632 0.35301 -0.28500
N 	N 	0.61502 0.16027 0.33650 -0.26400
N 	N 	0.59385 0.18862 0.30081 -0.26800
N 	N 	0.67480 0.37549 0.30340 -0.32100
H 	H 	0.63500 0.37440 0.30950 0.13100
H 	H 	0.68220 0.39200 0.28250 0.13300
N 	N 	0.63190 0.33100 0.17800 -0.32700
H 	H 	0.66310 0.33480 0.16200 0.13800
H 	H 	0.59620 0.34490 0.17190 0.13400
N 	N 	0.32290 0.08179 0.45430 -0.32800
H 	H 	0.33160 0.09820 0.47920 0.15300
H 	H 	0.28360 0.07040 0.44530 0.14000
N 	N 	0.74170 0.94730 0.19140 -0.32600
H 	H 	0.72450 0.92770 0.17540 0.14500
H 	H 	0.78110 0.95510 0.18910 0.13500
N 	N 	0.64520 0.27255 0.46050 -0.31300
H 	H 	0.68420 0.26560 0.48510 0.11000
H 	H 	0.64000 0.29430 0.45030 0.13200
N 	N 	0.07710 0.09427 0.40320 -0.31800
H 	H 	0.04890 0.09830 0.36950 0.12900
H 	H 	0.08140 0.07320 0.41670 0.12700
N 	N 	0.01120 0.08793 0.51230 -0.34600
H 	H 	0.04410 0.08320 0.54370 0.14100
H 	H 	0.98920 0.07110 0.49070 0.14500
N 	N 	0.48290 0.27487 0.83170 -0.31300
H 	H 	0.50750 0.25900 0.85420 0.11400
H 	H 	0.48800 0.29670 0.84150 0.13500
N 	N 	0.85420 0.07619 0.54320 -0.31800
H 	H 	0.87400 0.08470 0.57650 0.13200
H 	H 	0.85950 0.05430 0.53680 0.12600
N 	N 	0.86730 0.93818 0.35320 -0.32400
H 	H 	0.88470 0.92500 0.33330 0.13100
H 	H 	0.89100 0.95590 0.37120 0.13100
N 	N 	0.29680 0.96690 0.47860 -0.33600
H 	H 	0.29980 0.98880 0.48760 0.13200
H 	H 	0.26100 0.95470 0.47950 0.14500
N 	N 	0.06200 0.08180 0.21880 -0.31100
H 	H 	0.04750 0.07540 0.18400 0.12300
H 	H 	0.03630 0.07770 0.23970 0.11800
Cu	Cu	0.03904 0.62661 0.33228 0.76400
Cu	Cu	0.05122 0.47368 0.36623 0.82500
Cu	Cu	0.59482 0.75486 0.50078 0.80800
Cu	Cu	0.29563 0.71764 0.38377 0.82700
Cu	Cu	0.50591 0.82871 0.43257 0.80900
Cu	Cu	0.81445 0.70669 0.38200 0.83200
Cu	Cu	0.64895 0.83082 0.40653 0.81300
Cu	Cu	0.11018 0.59318 0.24663 0.77900
Br	Br	0.63121 0.82100 0.51096 -0.74500
C 	C 	0.71900 0.70598 0.54553 0.11700
C 	C 	0.64570 0.68362 0.44929 0.08400
H 	H 	0.64110 0.70640 0.43480 -0.05100
C 	C 	0.61620 0.62204 0.43630 0.19700
C 	C 	0.66260 0.61575 0.49080 -0.22300
H 	H 	0.66960 0.59280 0.50440 0.09700
C 	C 	0.68880 0.67760 0.50532 -0.16300
C 	C 	0.69800 0.64274 0.52480 0.09400
H 	H 	0.72840 0.63790 0.56110 -0.04900
C 	C 	0.60970 0.65606 0.41500 -0.22100
H 	H 	0.58140 0.66050 0.37790 0.09400
C 	C 	0.78410 0.73443 0.61903 0.10900
C 	C 	0.83870 0.74487 0.67231 -0.16700
C 	C 	0.87920 0.72016 0.71080 0.07400
H 	H 	0.87460 0.69640 0.70110 -0.05400
C 	C 	0.92650 0.73008 0.76350 -0.20600
H 	H 	0.95260 0.71300 0.78820 0.07000
C 	C 	0.84740 0.78019 0.68870 0.08200
H 	H 	0.82150 0.79740 0.66400 -0.05100
C 	C 	0.93460 0.76525 0.77930 0.18200
C 	C 	0.89420 0.79029 0.74140 -0.22200
H 	H 	0.89860 0.81400 0.75130 0.09800
C 	C 	0.10580 0.40402 0.38188 0.11600
C 	C 	0.17040 0.41388 0.36996 -0.17700
C 	C 	0.19690 0.39388 0.33530 0.08500
H 	H 	0.17130 0.37450 0.31650 -0.04400
C 	C 	0.26120 0.40230 0.32820 -0.22400
H 	H 	0.27770 0.38880 0.30430 0.09200
C 	C 	0.20940 0.44306 0.39710 0.09000
H 	H 	0.19220 0.45700 0.42020 -0.05400
C 	C 	0.30070 0.43075 0.35660 0.19600
C 	C 	0.27300 0.45161 0.39030 -0.22400
H 	H 	0.29770 0.47140 0.40820 0.08900
C 	C 	0.01220 0.40654 0.40662 0.12800
C 	C 	0.95830 0.45642 0.44230 0.12700
H 	H 	0.99550 0.47050 0.44050 -0.07200
C 	C 	0.90710 0.47069 0.46130 -0.25100
H 	H 	0.91160 0.49400 0.47340 0.10600
C 	C 	0.95550 0.42126 0.42560 -0.17200
C 	C 	0.90110 0.40062 0.43110 0.10900
H 	H 	0.90040 0.37660 0.42360 -0.05200
C 	C 	0.84710 0.41546 0.44790 -0.23900
H 	H 	0.80960 0.40140 0.44920 0.10700
C 	C 	0.84890 0.45140 0.46290 0.21500
C 	C 	0.22650 0.64184 0.41284 -0.16900
C 	C 	0.26280 0.65477 0.46660 0.07900
H 	H 	0.25880 0.67850 0.47400 -0.04000
C 	C 	0.23320 0.60660 0.40240 0.09000
H 	H 	0.20890 0.59720 0.36700 -0.05000
C 	C 	0.18260 0.66556 0.36761 0.11900
C 	C 	0.30490 0.63332 0.50950 -0.21800
H 	H 	0.32760 0.64260 0.54520 0.09000
C 	C 	0.27640 0.58497 0.44480 -0.22100
H 	H 	0.28100 0.56130 0.43720 0.08700
C 	C 	0.31300 0.59825 0.49880 0.18100
C 	C 	0.14870 0.74266 0.28042 -0.16700
C 	C 	0.20130 0.74999 0.25645 0.07400
H 	H 	0.23950 0.73480 0.26250 -0.04600
C 	C 	0.19620 0.77993 0.22386 -0.23700
H 	H 	0.23170 0.78490 0.20860 0.09600
C 	C 	0.09290 0.76634 0.27218 0.07600
H 	H 	0.05870 0.76210 0.28900 -0.03200
C 	C 	0.14990 0.70988 0.31179 0.12200
C 	C 	0.13900 0.80254 0.21360 0.20100
C 	C 	0.08810 0.79604 0.23933 -0.22100
H 	H 	0.05080 0.81170 0.23430 0.08700
C 	C 	0.09320 0.52829 0.30547 0.11700
C 	C 	0.13420 0.50538 0.27978 -0.17100
C 	C 	0.10680 0.47353 0.25440 0.08200
H 	H 	0.06450 0.46500 0.25720 -0.06700
C 	C 	0.20600 0.46643 0.22080 0.20400
C 	C 	0.19960 0.51693 0.27740 0.08200
H 	H 	0.21900 0.53790 0.29500 -0.03600
C 	C 	0.14260 0.45456 0.22510 -0.23500
H 	H 	0.12360 0.43340 0.20790 0.08900
C 	C 	0.23530 0.49742 0.24910 -0.22400
H 	H 	0.27950 0.50490 0.24890 0.09400
C 	C 	0.91260 0.53669 0.36630 0.05100
H 	H 	0.90440 0.51800 0.34100 -0.01900
C 	C 	0.93640 0.59182 0.44226 -0.22100
H 	H 	0.94470 0.61050 0.46770 0.09600
C 	C 	0.97640 0.55494 0.38038 -0.17200
C 	C 	0.02700 0.54933 0.34997 0.09600
C 	C 	0.98740 0.58279 0.41929 0.09400
H 	H 	0.02980 0.59520 0.42960 -0.05000
C 	C 	0.87230 0.57365 0.42830 0.19500
C 	C 	0.86050 0.54594 0.38960 -0.21700
H 	H 	0.81790 0.53360 0.37930 0.09400
C 	C 	0.46320 0.69272 0.46297 -0.18200
C 	C 	0.51450 0.68406 0.51522 0.11400
H 	H 	0.53890 0.70200 0.53890 -0.06300
C 	C 	0.42730 0.66537 0.42790 0.10700
H 	H 	0.39310 0.67040 0.39330 -0.06400
C 	C 	0.44260 0.63063 0.44470 -0.23400
H 	H 	0.41860 0.61260 0.42110 0.09900
C 	C 	0.44770 0.72943 0.44509 0.13500
C 	C 	0.52910 0.64982 0.53184 -0.24200
H 	H 	0.56290 0.64480 0.56670 0.10100
C 	C 	0.49370 0.62232 0.49690 0.21500
C 	C 	0.39210 0.77614 0.40575 0.11900
C 	C 	0.26910 0.79932 0.38549 0.09200
H 	H 	0.26090 0.78160 0.40820 -0.05600
C 	C 	0.21640 0.82361 0.36140 -0.22000
H 	H 	0.17340 0.82200 0.36800 0.09200
C 	C 	0.22730 0.85058 0.32742 0.19500
C 	C 	0.29190 0.85135 0.31680 -0.22400
H 	H 	0.29920 0.86850 0.29290 0.09300
C 	C 	0.34490 0.82707 0.34131 0.09400
H 	H 	0.38760 0.82840 0.33420 -0.05500
C 	C 	0.33480 0.80060 0.37662 -0.17600
C 	C 	0.83230 0.64671 0.31122 0.12700
C 	C 	0.75890 0.63398 0.28758 -0.15500
C 	C 	0.73290 0.62303 0.23150 0.06700
H 	H 	0.75950 0.62760 0.20810 -0.04600
C 	C 	0.71780 0.62805 0.32170 0.06400
H 	H 	0.73410 0.63490 0.35950 -0.01300
C 	C 	0.66950 0.60580 0.20950 -0.22000
H 	H 	0.65440 0.59860 0.17190 0.08900
C 	C 	0.62840 0.59910 0.24200 0.17100
C 	C 	0.65160 0.61160 0.29890 -0.19700
H 	H 	0.62260 0.60890 0.32090 0.08700
C 	C 	0.98210 0.69976 0.38808 -0.16400
C 	C 	0.97240 0.73484 0.37265 0.03800
H 	H 	0.92990 0.74220 0.34620 -0.02600
C 	C 	0.02580 0.75908 0.39650 -0.21200
H 	H 	0.01900 0.78260 0.38540 0.08700
C 	C 	0.09900 0.71343 0.45410 -0.20100
H 	H 	0.14050 0.70610 0.48180 0.08300
C 	C 	0.09020 0.74859 0.43730 0.16800
C 	C 	0.92900 0.67367 0.35595 0.09700
C 	C 	0.04520 0.68941 0.42928 0.03900
H 	H 	0.05150 0.66590 0.44030 -0.03000
N 	N 	0.05048 0.57648 0.32784 -0.28200
N 	N 	0.05290 0.51851 0.33751 -0.28900
N 	N 	0.09285 0.56270 0.29893 -0.26700
N 	N 	0.78177 0.70434 0.58956 -0.28200
N 	N 	0.72591 0.75406 0.59433 -0.24400
N 	N 	0.68441 0.73569 0.54694 -0.24500
N 	N 	0.49596 0.75473 0.45586 -0.25200
N 	N 	0.45978 0.78500 0.43083 -0.25400
N 	N 	0.38178 0.74139 0.41393 -0.28300
N 	N 	0.02924 0.37303 0.40746 -0.24900
N 	N 	0.09037 0.37111 0.39172 -0.25800
N 	N 	0.05752 0.42674 0.38935 -0.28700
N 	N 	0.88513 0.62939 0.30188 -0.26800
N 	N 	0.94717 0.64676 0.33006 -0.27100
N 	N 	0.85738 0.67476 0.34545 -0.27400
N 	N 	0.20685 0.69632 0.35301 -0.28500
N 	N 	0.11502 0.66027 0.33650 -0.26500
N 	N 	0.09385 0.68862 0.30081 -0.26900
N 	N 	0.17480 0.87549 0.30340 -0.32100
H 	H 	0.13500 0.87440 0.30950 0.12900
H 	H 	0.18220 0.89200 0.28250 0.13200
N 	N 	0.13190 0.83100 0.17800 -0.32700
H 	H 	0.16310 0.83480 0.16200 0.13700
H 	H 	0.09620 0.84490 0.17190 0.13200
N 	N 	0.82290 0.58179 0.45430 -0.32900
H 	H 	0.83160 0.59820 0.47920 0.15300
H 	H 	0.78360 0.57040 0.44530 0.14000
N 	N 	0.24170 0.44730 0.19140 -0.32600
H 	H 	0.22450 0.42770 0.17540 0.14500
H 	H 	0.28110 0.45510 0.18910 0.13500
N 	N 	0.14520 0.77255 0.46050 -0.31400
H 	H 	0.18420 0.76560 0.48510 0.11000
H 	H 	0.14000 0.79430 0.45030 0.13100
N 	N 	0.57710 0.59427 0.40320 -0.31900
H 	H 	0.54890 0.59830 0.36950 0.13200
H 	H 	0.58140 0.57320 0.41670 0.13000
N 	N 	0.51120 0.58793 0.51230 -0.32900
H 	H 	0.54410 0.58320 0.54370 0.13900
H 	H 	0.48920 0.57110 0.49070 0.13400
N 	N 	0.98290 0.77487 0.83170 -0.30300
H 	H 	0.00750 0.75900 0.85420 0.10400
H 	H 	0.98800 0.79670 0.84150 0.13500
N 	N 	0.35420 0.57619 0.54320 -0.31700
H 	H 	0.37400 0.58470 0.57650 0.13100
H 	H 	0.35950 0.55430 0.53680 0.12500
N 	N 	0.36730 0.43818 0.35320 -0.32300
H 	H 	0.38470 0.42500 0.33330 0.12900
H 	H 	0.39100 0.45590 0.37120 0.12900
N 	N 	0.79680 0.46690 0.47860 -0.33500
H 	H 	0.79980 0.48880 0.48760 0.13200
H 	H 	0.76100 0.45470 0.47950 0.14500
N 	N 	0.56200 0.58180 0.21880 -0.31200
H 	H 	0.54750 0.57540 0.18400 0.12600
H 	H 	0.53630 0.57770 0.23970 0.12100
Cu	Cu	0.46096 0.12661 0.16772 0.76700
Cu	Cu	0.44878 0.97368 0.13377 0.82700
Cu	Cu	0.90518 0.25486 0.99922 0.81000
Cu	Cu	0.20437 0.21764 0.11623 0.82700
Cu	Cu	0.99409 0.32871 0.06743 0.81300
Cu	Cu	0.68555 0.20669 0.11800 0.83200
Cu	Cu	0.85105 0.33082 0.09347 0.81400
Cu	Cu	0.38982 0.09318 0.25337 0.78000
Br	Br	0.86879 0.32100 0.98904 -0.74400
C 	C 	0.78100 0.20598 0.95447 0.11700
C 	C 	0.85430 0.18362 0.05071 0.08500
H 	H 	0.85890 0.20640 0.06520 -0.05000
C 	C 	0.88380 0.12204 0.06370 0.19900
C 	C 	0.83740 0.11575 0.00920 -0.22400
H 	H 	0.83040 0.09280 0.99560 0.09800
C 	C 	0.81120 0.17760 0.99468 -0.16400
C 	C 	0.80200 0.14274 0.97520 0.09500
H 	H 	0.77160 0.13790 0.93890 -0.04900
C 	C 	0.89030 0.15606 0.08500 -0.22200
H 	H 	0.91860 0.16050 0.12210 0.09600
C 	C 	0.71590 0.23443 0.88097 0.10900
C 	C 	0.66130 0.24487 0.82769 -0.16800
C 	C 	0.62080 0.22016 0.78920 0.07300
H 	H 	0.62540 0.19640 0.79890 -0.05400
C 	C 	0.57350 0.23008 0.73650 -0.20800
H 	H 	0.54740 0.21300 0.71180 0.06800
C 	C 	0.65260 0.28019 0.81130 0.08200
H 	H 	0.67850 0.29740 0.83600 -0.05100
C 	C 	0.56540 0.26525 0.72070 0.18200
C 	C 	0.60580 0.29029 0.75860 -0.22300
H 	H 	0.60140 0.31400 0.74870 0.09700
C 	C 	0.39420 0.90402 0.11812 0.11700
C 	C 	0.32960 0.91388 0.13004 -0.17600
C 	C 	0.30310 0.89388 0.16470 0.08500
H 	H 	0.32870 0.87450 0.18350 -0.04300
C 	C 	0.23880 0.90230 0.17180 -0.22400
H 	H 	0.22230 0.88880 0.19570 0.09200
C 	C 	0.29060 0.94306 0.10290 0.08900
H 	H 	0.30780 0.95700 0.07980 -0.05300
C 	C 	0.19930 0.93075 0.14340 0.19400
C 	C 	0.22700 0.95161 0.10970 -0.22300
H 	H 	0.20230 0.97140 0.09180 0.08800
C 	C 	0.48780 0.90654 0.09338 0.14000
C 	C 	0.54170 0.95642 0.05770 0.13600
H 	H 	0.50450 0.97050 0.05950 -0.07900
C 	C 	0.59290 0.97069 0.03870 -0.25800
H 	H 	0.58840 0.99400 0.02660 0.10700
C 	C 	0.54450 0.92126 0.07440 -0.18800
C 	C 	0.59890 0.90062 0.06890 0.11700
H 	H 	0.59960 0.87660 0.07640 -0.05700
C 	C 	0.65290 0.91546 0.05210 -0.24500
H 	H 	0.69040 0.90140 0.05080 0.10900
C 	C 	0.65110 0.95140 0.03710 0.21900
C 	C 	0.27350 0.14184 0.08716 -0.17300
C 	C 	0.23720 0.15477 0.03340 0.08600
H 	H 	0.24120 0.17850 0.02600 -0.04200
C 	C 	0.26680 0.10660 0.09760 0.09500
H 	H 	0.29110 0.09720 0.13300 -0.05100
C 	C 	0.31740 0.16556 0.13239 0.12100
C 	C 	0.19510 0.13332 0.99050 -0.22700
H 	H 	0.17240 0.14260 0.95480 0.09200
C 	C 	0.22360 0.08497 0.05520 -0.22500
H 	H 	0.21900 0.06130 0.06280 0.08900
C 	C 	0.18700 0.09825 0.00120 0.18800
C 	C 	0.35130 0.24266 0.21958 -0.16700
C 	C 	0.29870 0.24999 0.24355 0.07400
H 	H 	0.26050 0.23480 0.23750 -0.04600
C 	C 	0.30380 0.27993 0.27614 -0.23700
H 	H 	0.26830 0.28490 0.29140 0.09700
C 	C 	0.40710 0.26634 0.22782 0.07700
H 	H 	0.44130 0.26210 0.21100 -0.03000
C 	C 	0.35010 0.20988 0.18821 0.12200
C 	C 	0.36100 0.30254 0.28640 0.20200
C 	C 	0.41190 0.29604 0.26067 -0.22100
H 	H 	0.44920 0.31170 0.26570 0.08900
C 	C 	0.40680 0.02829 0.19453 0.11800
C 	C 	0.36580 0.00538 0.22022 -0.17000
C 	C 	0.39320 0.97353 0.24560 0.08200
H 	H 	0.43550 0.96500 0.24280 -0.06500
C 	C 	0.29400 0.96643 0.27920 0.20300
C 	C 	0.30040 0.01693 0.22260 0.08200
H 	H 	0.28100 0.03790 0.20500 -0.03600
C 	C 	0.35740 0.95456 0.27490 -0.23400
H 	H 	0.37640 0.93340 0.29210 0.09000
C 	C 	0.26470 0.99742 0.25090 -0.22300
H 	H 	0.22050 0.00490 0.25110 0.09300
C 	C 	0.58740 0.03669 0.13370 0.04900
H 	H 	0.59560 0.01800 0.15900 -0.02000
C 	C 	0.56360 0.09182 0.05774 -0.21000
H 	H 	0.55530 0.11050 0.03230 0.09100
C 	C 	0.52360 0.05494 0.11962 -0.17400
C 	C 	0.47300 0.04933 0.15003 0.10300
C 	C 	0.51260 0.08279 0.08071 0.07300
H 	H 	0.47020 0.09520 0.07040 -0.03700
C 	C 	0.62770 0.07365 0.07170 0.19000
C 	C 	0.63950 0.04594 0.11040 -0.21400
H 	H 	0.68210 0.03360 0.12070 0.09300
C 	C 	0.03680 0.19272 0.03703 -0.18700
C 	C 	0.98550 0.18406 0.98478 0.11800
H 	H 	0.96110 0.20200 0.96110 -0.06200
C 	C 	0.07270 0.16537 0.07210 0.10300
H 	H 	0.10690 0.17040 0.10670 -0.06300
C 	C 	0.05740 0.13063 0.05530 -0.22700
H 	H 	0.08140 0.11260 0.07890 0.09600
C 	C 	0.05230 0.22943 0.05491 0.13500
C 	C 	0.97090 0.14982 0.96816 -0.22700
H 	H 	0.93710 0.14480 0.93330 0.09700
C 	C 	0.00630 0.12232 0.00310 0.19600
C 	C 	0.10790 0.27614 0.09425 0.11900
C 	C 	0.23090 0.29932 0.11451 0.09200
H 	H 	0.23910 0.28160 0.09180 -0.05600
C 	C 	0.28360 0.32361 0.13860 -0.22100
H 	H 	0.32660 0.32200 0.13200 0.09300
C 	C 	0.27270 0.35058 0.17258 0.19500
C 	C 	0.20810 0.35135 0.18320 -0.22500
H 	H 	0.20080 0.36850 0.20710 0.09300
C 	C 	0.15510 0.32707 0.15869 0.09500
H 	H 	0.11240 0.32840 0.16580 -0.05600
C 	C 	0.16520 0.30060 0.12338 -0.17700
C 	C 	0.66770 0.14671 0.18878 0.12700
C 	C 	0.74110 0.13398 0.21242 -0.15500
C 	C 	0.76710 0.12303 0.26850 0.06800
H 	H 	0.74050 0.12760 0.29190 -0.04600
C 	C 	0.78220 0.12805 0.17830 0.06500
H 	H 	0.76590 0.13490 0.14050 -0.01300
C 	C 	0.83050 0.10580 0.29050 -0.22100
H 	H 	0.84560 0.09860 0.32810 0.09000
C 	C 	0.87160 0.09910 0.25800 0.17300
C 	C 	0.84840 0.11160 0.20110 -0.19800
H 	H 	0.87740 0.10890 0.17910 0.08800
C 	C 	0.51790 0.19976 0.11192 -0.17200
C 	C 	0.52760 0.23484 0.12735 0.02700
H 	H 	0.57010 0.24220 0.15380 -0.02400
C 	C 	0.47420 0.25908 0.10350 -0.19900
H 	H 	0.48100 0.28260 0.11460 0.08600
C 	C 	0.40100 0.21343 0.04590 -0.20400
H 	H 	0.35950 0.20610 0.01820 0.08400
C 	C 	0.40980 0.24859 0.06270 0.16700
C 	C 	0.57100 0.17367 0.14405 0.09800
C 	C 	0.45480 0.18941 0.07072 0.05100
H 	H 	0.44850 0.16590 0.05970 -0.03200
N 	N 	0.44952 0.07648 0.17216 -0.28100
N 	N 	0.44710 0.01851 0.16249 -0.28800
N 	N 	0.40715 0.06270 0.20107 -0.26700
N 	N 	0.71823 0.20434 0.91044 -0.28200
N 	N 	0.77409 0.25406 0.90567 -0.24400
N 	N 	0.81559 0.23569 0.95306 -0.24500
N 	N 	0.00404 0.25473 0.04414 -0.25500
N 	N 	0.04022 0.28500 0.06917 -0.25600
N 	N 	0.11822 0.24139 0.08607 -0.28300
N 	N 	0.47076 0.87303 0.09254 -0.24900
N 	N 	0.40963 0.87111 0.10828 -0.25800
N 	N 	0.44248 0.92674 0.11065 -0.28800
N 	N 	0.61487 0.12939 0.19812 -0.26800
N 	N 	0.55283 0.14676 0.16994 -0.27400
N 	N 	0.64262 0.17476 0.15455 -0.27400
N 	N 	0.29315 0.19632 0.14699 -0.28600
N 	N 	0.38498 0.16027 0.16350 -0.26500
N 	N 	0.40615 0.18862 0.19919 -0.26800
N 	N 	0.32520 0.37549 0.19660 -0.32200
H 	H 	0.36500 0.37440 0.19050 0.13100
H 	H 	0.31780 0.39200 0.21750 0.13300
N 	N 	0.36810 0.33100 0.32200 -0.32700
H 	H 	0.33690 0.33480 0.33800 0.13800
H 	H 	0.40380 0.34490 0.32810 0.13400
N 	N 	0.67710 0.08179 0.04570 -0.32800
H 	H 	0.66840 0.09820 0.02080 0.15300
H 	H 	0.71640 0.07040 0.05470 0.14000
N 	N 	0.25830 0.94730 0.30860 -0.32600
H 	H 	0.27550 0.92770 0.32460 0.14500
H 	H 	0.21890 0.95510 0.31090 0.13400
N 	N 	0.35480 0.27255 0.03950 -0.31300
H 	H 	0.31580 0.26560 0.01490 0.11100
H 	H 	0.36000 0.29430 0.04970 0.13200
N 	N 	0.92290 0.09427 0.09680 -0.32000
H 	H 	0.95110 0.09830 0.13050 0.13500
H 	H 	0.91860 0.07320 0.08330 0.13200
N 	N 	0.98880 0.08793 0.98770 -0.31400
H 	H 	0.95590 0.08320 0.95630 0.13700
H 	H 	0.01080 0.07110 0.00930 0.12500
N 	N 	0.51710 0.27487 0.66830 -0.31300
H 	H 	0.49250 0.25900 0.64580 0.11400
H 	H 	0.51200 0.29670 0.65850 0.13500
N 	N 	0.14580 0.07619 0.95680 -0.31900
H 	H 	0.12600 0.08470 0.92350 0.12900
H 	H 	0.14050 0.05430 0.96320 0.12400
N 	N 	0.13270 0.93818 0.14680 -0.32200
H 	H 	0.11530 0.92500 0.16670 0.12800
H 	H 	0.10900 0.95590 0.12880 0.12700
N 	N 	0.70320 0.96690 0.02140 -0.33600
H 	H 	0.70020 0.98880 0.01240 0.13200
H 	H 	0.73900 0.95470 0.02050 0.14500
N 	N 	0.93800 0.08180 0.28120 -0.31400
H 	H 	0.95250 0.07540 0.31600 0.12900
H 	H 	0.96370 0.07770 0.26030 0.12500
Cu	Cu	0.96096 0.62661 0.16772 0.76900
Cu	Cu	0.94878 0.47368 0.13377 0.82900
Cu	Cu	0.40518 0.75486 0.99922 0.80800
Cu	Cu	0.70437 0.71764 0.11623 0.82700
Cu	Cu	0.49409 0.82871 0.06743 0.81000
Cu	Cu	0.18555 0.70669 0.11800 0.83200
Cu	Cu	0.35105 0.83082 0.09347 0.81400
Cu	Cu	0.88982 0.59318 0.25337 0.78100
Br	Br	0.36879 0.82100 0.98904 -0.74600
C 	C 	0.28100 0.70598 0.95447 0.11600
C 	C 	0.35430 0.68362 0.05071 0.08400
H 	H 	0.35890 0.70640 0.06520 -0.05000
C 	C 	0.38380 0.62204 0.06370 0.19500
C 	C 	0.33740 0.61575 0.00920 -0.21700
H 	H 	0.33040 0.59280 0.99560 0.09400
C 	C 	0.31120 0.67760 0.99468 -0.16300
C 	C 	0.30200 0.64274 0.97520 0.08900
H 	H 	0.27160 0.63790 0.93890 -0.04700
C 	C 	0.39030 0.65606 0.08500 -0.22000
H 	H 	0.41860 0.66050 0.12210 0.09300
C 	C 	0.21590 0.73443 0.88097 0.10900
C 	C 	0.16130 0.74487 0.82769 -0.16800
C 	C 	0.12080 0.72016 0.78920 0.07300
H 	H 	0.12540 0.69640 0.79890 -0.05500
C 	C 	0.07350 0.73008 0.73650 -0.20900
H 	H 	0.04740 0.71300 0.71180 0.06600
C 	C 	0.15260 0.78019 0.81130 0.08100
H 	H 	0.17850 0.79740 0.83600 -0.05100
C 	C 	0.06540 0.76525 0.72070 0.18100
C 	C 	0.10580 0.79029 0.75860 -0.22400
H 	H 	0.10140 0.81400 0.74870 0.09600
C 	C 	0.89420 0.40402 0.11812 0.11700
C 	C 	0.82960 0.41388 0.13004 -0.17600
C 	C 	0.80310 0.39388 0.16470 0.08500
H 	H 	0.82870 0.37450 0.18350 -0.04200
C 	C 	0.73880 0.40230 0.17180 -0.22400
H 	H 	0.72230 0.38880 0.19570 0.09200
C 	C 	0.79060 0.44306 0.10290 0.08900
H 	H 	0.80780 0.45700 0.07980 -0.05300
C 	C 	0.69930 0.43075 0.14340 0.19500
C 	C 	0.72700 0.45161 0.10970 -0.22300
H 	H 	0.70230 0.47140 0.09180 0.08900
C 	C 	0.98780 0.40654 0.09338 0.15000
C 	C 	0.04170 0.45642 0.05770 0.14300
H 	H 	0.00450 0.47050 0.05950 -0.08500
C 	C 	0.09290 0.47069 0.03870 -0.26500
H 	H 	0.08840 0.49400 0.02660 0.10800
C 	C 	0.04450 0.42126 0.07440 -0.20200
C 	C 	0.09890 0.40062 0.06890 0.12500
H 	H 	0.09960 0.37660 0.07640 -0.06100
C 	C 	0.15290 0.41546 0.05210 -0.25100
H 	H 	0.19040 0.40140 0.05080 0.11100
C 	C 	0.15110 0.45140 0.03710 0.22300
C 	C 	0.77350 0.64184 0.08716 -0.17000
C 	C 	0.73720 0.65477 0.03340 0.08100
H 	H 	0.74120 0.67850 0.02600 -0.04100
C 	C 	0.76680 0.60660 0.09760 0.09100
H 	H 	0.79110 0.59720 0.13300 -0.05000
C 	C 	0.81740 0.66556 0.13239 0.12000
C 	C 	0.69510 0.63332 0.99050 -0.22000
H 	H 	0.67240 0.64260 0.95480 0.09000
C 	C 	0.72360 0.58497 0.05520 -0.22200
H 	H 	0.71900 0.56130 0.06280 0.08800
C 	C 	0.68700 0.59825 0.00120 0.18300
C 	C 	0.85130 0.74266 0.21958 -0.16700
C 	C 	0.79870 0.74999 0.24355 0.07500
H 	H 	0.76050 0.73480 0.23750 -0.04600
C 	C 	0.80380 0.77993 0.27614 -0.23700
H 	H 	0.76830 0.78490 0.29140 0.09700
C 	C 	0.90710 0.76634 0.22782 0.07700
H 	H 	0.94130 0.76210 0.21100 -0.02800
C 	C 	0.85010 0.70988 0.18821 0.12300
C 	C 	0.86100 0.80254 0.28640 0.20300
C 	C 	0.91190 0.79604 0.26067 -0.22100
H 	H 	0.94920 0.81170 0.26570 0.09200
C 	C 	0.90680 0.52829 0.19453 0.11800
C 	C 	0.86580 0.50538 0.22022 -0.16900
C 	C 	0.89320 0.47353 0.24560 0.08200
H 	H 	0.93550 0.46500 0.24280 -0.06300
C 	C 	0.79400 0.46643 0.27920 0.20300
C 	C 	0.80040 0.51693 0.22260 0.08100
H 	H 	0.78100 0.53790 0.20500 -0.03600
C 	C 	0.85740 0.45456 0.27490 -0.23400
H 	H 	0.87640 0.43340 0.29210 0.09100
C 	C 	0.76470 0.49742 0.25090 -0.22300
H 	H 	0.72050 0.50490 0.25110 0.09300
C 	C 	0.08740 0.53669 0.13370 0.04800
H 	H 	0.09560 0.51800 0.15900 -0.02100
C 	C 	0.06360 0.59182 0.05774 -0.20100
H 	H 	0.05530 0.61050 0.03230 0.08600
C 	C 	0.02360 0.55494 0.11962 -0.17600
C 	C 	0.97300 0.54933 0.15003 0.11000
C 	C 	0.01260 0.58279 0.08071 0.05500
H 	H 	0.97020 0.59520 0.07040 -0.02600
C 	C 	0.12770 0.57365 0.07170 0.18600
C 	C 	0.13950 0.54594 0.11040 -0.21200
H 	H 	0.18210 0.53360 0.12070 0.09200
C 	C 	0.53680 0.69272 0.03703 -0.18200
C 	C 	0.48550 0.68406 0.98478 0.11400
H 	H 	0.46110 0.70200 0.96110 -0.06300
C 	C 	0.57270 0.66537 0.07210 0.10700
H 	H 	0.60690 0.67040 0.10670 -0.06400
C 	C 	0.55740 0.63063 0.05530 -0.23500
H 	H 	0.58140 0.61260 0.07890 0.09900
C 	C 	0.55230 0.72943 0.05491 0.13500
C 	C 	0.47090 0.64982 0.96816 -0.24400
H 	H 	0.43710 0.64480 0.93330 0.10200
C 	C 	0.50630 0.62232 0.00310 0.21700
C 	C 	0.60790 0.77614 0.09425 0.12000
C 	C 	0.73090 0.79932 0.11451 0.09200
H 	H 	0.73910 0.78160 0.09180 -0.05700
C 	C 	0.78360 0.82361 0.13860 -0.22100
H 	H 	0.82660 0.82200 0.13200 0.09300
C 	C 	0.77270 0.85058 0.17258 0.19600
C 	C 	0.70810 0.85135 0.18320 -0.22400
H 	H 	0.70080 0.86850 0.20710 0.09300
C 	C 	0.65510 0.82707 0.15869 0.09400
H 	H 	0.61240 0.82840 0.16580 -0.05500
C 	C 	0.66520 0.80060 0.12338 -0.17600
C 	C 	0.16770 0.64671 0.18878 0.12700
C 	C 	0.24110 0.63398 0.21242 -0.15500
C 	C 	0.26710 0.62303 0.26850 0.06700
H 	H 	0.24050 0.62760 0.29190 -0.04600
C 	C 	0.28220 0.62805 0.17830 0.06400
H 	H 	0.26590 0.63490 0.14050 -0.01300
C 	C 	0.33050 0.60580 0.29050 -0.22000
H 	H 	0.34560 0.59860 0.32810 0.08900
C 	C 	0.37160 0.59910 0.25800 0.17100
C 	C 	0.34840 0.61160 0.20110 -0.19700
H 	H 	0.37740 0.60890 0.17910 0.08700
C 	C 	0.01790 0.69976 0.11192 -0.17800
C 	C 	0.02760 0.73484 0.12735 0.01600
H 	H 	0.07010 0.74220 0.15380 -0.02100
C 	C 	0.97420 0.75908 0.10350 -0.18700
H 	H 	0.98100 0.78260 0.11460 0.08500
C 	C 	0.90100 0.71343 0.04590 -0.20700
H 	H 	0.85950 0.70610 0.01820 0.08500
C 	C 	0.90980 0.74859 0.06270 0.16500
C 	C 	0.07100 0.67367 0.14405 0.09800
C 	C 	0.95480 0.68941 0.07072 0.06200
H 	H 	0.94850 0.66590 0.05970 -0.03400
N 	N 	0.94952 0.57648 0.17216 -0.28100
N 	N 	0.94710 0.51851 0.16249 -0.28800
N 	N 	0.90715 0.56270 0.20107 -0.26600
N 	N 	0.21823 0.70434 0.91044 -0.28200
N 	N 	0.27409 0.75406 0.90567 -0.24400
N 	N 	0.31559 0.73569 0.95306 -0.24500
N 	N 	0.50404 0.75473 0.04414 -0.25200
N 	N 	0.54022 0.78500 0.06917 -0.25400
N 	N 	0.61822 0.74139 0.08607 -0.28300
N 	N 	0.97076 0.37303 0.09254 -0.25000
N 	N 	0.90963 0.37111 0.10828 -0.25700
N 	N 	0.94248 0.42674 0.11065 -0.28800
N 	N 	0.11487 0.62939 0.19812 -0.26900
N 	N 	0.05283 0.64676 0.16994 -0.27600
N 	N 	0.14262 0.67476 0.15455 -0.27400
N 	N 	0.79315 0.69632 0.14699 -0.28500
N 	N 	0.88498 0.66027 0.16350 -0.26400
N 	N 	0.90615 0.68862 0.19919 -0.26600
N 	N 	0.82520 0.87549 0.19660 -0.32200
H 	H 	0.86500 0.87440 0.19050 0.13200
H 	H 	0.81780 0.89200 0.21750 0.13300
N 	N 	0.86810 0.83100 0.32200 -0.32800
H 	H 	0.83690 0.83480 0.33800 0.13800
H 	H 	0.90380 0.84490 0.32810 0.13500
N 	N 	0.17710 0.58179 0.04570 -0.32700
H 	H 	0.16840 0.59820 0.02080 0.15300
H 	H 	0.21640 0.57040 0.05470 0.14000
N 	N 	0.75830 0.44730 0.30860 -0.32600
H 	H 	0.77550 0.42770 0.32460 0.14500
H 	H 	0.71890 0.45510 0.31090 0.13500
N 	N 	0.85480 0.77255 0.03950 -0.31300
H 	H 	0.81580 0.76560 0.01490 0.11000
H 	H 	0.86000 0.79430 0.04970 0.13200
N 	N 	0.42290 0.59427 0.09680 -0.31800
H 	H 	0.45110 0.59830 0.13050 0.13200
H 	H 	0.41860 0.57320 0.08330 0.13000
N 	N 	0.48880 0.58793 0.98770 -0.33000
H 	H 	0.45590 0.58320 0.95630 0.13900
H 	H 	0.51080 0.57110 0.00930 0.13500
N 	N 	0.01710 0.77487 0.66830 -0.32200
H 	H 	0.99250 0.75900 0.64580 0.12400
H 	H 	0.01200 0.79670 0.65850 0.13400
N 	N 	0.64580 0.57619 0.95680 -0.31800
H 	H 	0.62600 0.58470 0.92350 0.13100
H 	H 	0.64050 0.55430 0.96320 0.12500
N 	N 	0.63270 0.43818 0.14680 -0.32300
H 	H 	0.61530 0.42500 0.16670 0.12900
H 	H 	0.60900 0.45590 0.12880 0.12900
N 	N 	0.20320 0.46690 0.02140 -0.33700
H 	H 	0.20020 0.48880 0.01240 0.13200
H 	H 	0.23900 0.45470 0.02050 0.14600
N 	N 	0.43800 0.58180 0.28120 -0.31200
H 	H 	0.45250 0.57540 0.31600 0.12600
H 	H 	0.46370 0.57770 0.26030 0.12100
Cu	Cu	0.46096 0.87339 0.66772 0.76700
Cu	Cu	0.44878 0.02632 0.63377 0.82700
Cu	Cu	0.90518 0.74514 0.49922 0.81000
Cu	Cu	0.20437 0.78236 0.61623 0.82700
Cu	Cu	0.99409 0.67129 0.56743 0.81300
Cu	Cu	0.68555 0.79331 0.61800 0.83200
Cu	Cu	0.85105 0.66918 0.59347 0.81400
Cu	Cu	0.38982 0.90682 0.75337 0.78000
Br	Br	0.86879 0.67900 0.48904 -0.74400
C 	C 	0.78100 0.79402 0.45447 0.11700
C 	C 	0.85430 0.81638 0.55071 0.08500
H 	H 	0.85890 0.79360 0.56520 -0.05000
C 	C 	0.88380 0.87796 0.56370 0.20000
C 	C 	0.83740 0.88425 0.50920 -0.22400
H 	H 	0.83040 0.90720 0.49560 0.09800
C 	C 	0.81120 0.82240 0.49468 -0.16400
C 	C 	0.80200 0.85726 0.47520 0.09500
H 	H 	0.77160 0.86210 0.43890 -0.04900
C 	C 	0.89030 0.84394 0.58500 -0.22200
H 	H 	0.91860 0.83950 0.62210 0.09600
C 	C 	0.71590 0.76557 0.38097 0.10900
C 	C 	0.66130 0.75513 0.32769 -0.16800
C 	C 	0.62080 0.77984 0.28920 0.07300
H 	H 	0.62540 0.80360 0.29890 -0.05400
C 	C 	0.57350 0.76992 0.23650 -0.20800
H 	H 	0.54740 0.78700 0.21180 0.06800
C 	C 	0.65260 0.71981 0.31130 0.08200
H 	H 	0.67850 0.70260 0.33600 -0.05100
C 	C 	0.56540 0.73475 0.22070 0.18200
C 	C 	0.60580 0.70971 0.25860 -0.22300
H 	H 	0.60140 0.68600 0.24870 0.09700
C 	C 	0.39420 0.09598 0.61812 0.11700
C 	C 	0.32960 0.08612 0.63004 -0.17600
C 	C 	0.30310 0.10612 0.66470 0.08500
H 	H 	0.32870 0.12550 0.68350 -0.04300
C 	C 	0.23880 0.09770 0.67180 -0.22400
H 	H 	0.22230 0.11120 0.69570 0.09200
C 	C 	0.29060 0.05694 0.60290 0.08900
H 	H 	0.30780 0.04300 0.57980 -0.05300
C 	C 	0.19930 0.06925 0.64340 0.19400
C 	C 	0.22700 0.04839 0.60970 -0.22300
H 	H 	0.20230 0.02860 0.59180 0.08800
C 	C 	0.48780 0.09346 0.59338 0.13900
C 	C 	0.54170 0.04358 0.55770 0.13600
H 	H 	0.50450 0.02950 0.55950 -0.07900
C 	C 	0.59290 0.02931 0.53870 -0.25800
H 	H 	0.58840 0.00600 0.52660 0.10700
C 	C 	0.54450 0.07874 0.57440 -0.18800
C 	C 	0.59890 0.09938 0.56890 0.11700
H 	H 	0.59960 0.12340 0.57640 -0.05700
C 	C 	0.65290 0.08454 0.55210 -0.24500
H 	H 	0.69040 0.09860 0.55080 0.10900
C 	C 	0.65110 0.04860 0.53710 0.21900
C 	C 	0.27350 0.85816 0.58716 -0.16900
C 	C 	0.23720 0.84523 0.53340 0.07900
H 	H 	0.24120 0.82150 0.52600 -0.04000
C 	C 	0.26680 0.89340 0.59760 0.09000
H 	H 	0.29110 0.90280 0.63300 -0.05000
C 	C 	0.31740 0.83444 0.63239 0.11900
C 	C 	0.19510 0.86668 0.49050 -0.21700
H 	H 	0.17240 0.85740 0.45480 0.08900
C 	C 	0.22360 0.91503 0.55520 -0.22000
H 	H 	0.21900 0.93870 0.56280 0.08700
C 	C 	0.18700 0.90175 0.50120 0.18000
C 	C 	0.35130 0.75734 0.71958 -0.16700
C 	C 	0.29870 0.75001 0.74355 0.07400
H 	H 	0.26050 0.76520 0.73750 -0.04600
C 	C 	0.30380 0.72007 0.77614 -0.23700
H 	H 	0.26830 0.71510 0.79140 0.09700
C 	C 	0.40710 0.73366 0.72782 0.07700
H 	H 	0.44130 0.73790 0.71100 -0.03000
C 	C 	0.35010 0.79012 0.68821 0.12200
C 	C 	0.36100 0.69746 0.78640 0.20200
C 	C 	0.41190 0.70396 0.76067 -0.22100
H 	H 	0.44920 0.68830 0.76570 0.08900
C 	C 	0.40680 0.97171 0.69453 0.11800
C 	C 	0.36580 0.99462 0.72022 -0.17000
C 	C 	0.39320 0.02647 0.74560 0.08200
H 	H 	0.43550 0.03500 0.74280 -0.06500
C 	C 	0.29400 0.03357 0.77920 0.20300
C 	C 	0.30040 0.98307 0.72260 0.08200
H 	H 	0.28100 0.96210 0.70500 -0.03600
C 	C 	0.35740 0.04544 0.77490 -0.23400
H 	H 	0.37640 0.06660 0.79210 0.09000
C 	C 	0.26470 0.00258 0.75090 -0.22300
H 	H 	0.22050 0.99510 0.75110 0.09300
C 	C 	0.58740 0.96331 0.63370 0.04900
H 	H 	0.59560 0.98200 0.65900 -0.02000
C 	C 	0.56360 0.90818 0.55774 -0.21000
H 	H 	0.55530 0.88950 0.53230 0.09100
C 	C 	0.52360 0.94506 0.61962 -0.17400
C 	C 	0.47300 0.95067 0.65003 0.10300
C 	C 	0.51260 0.91721 0.58071 0.07300
H 	H 	0.47020 0.90480 0.57040 -0.03700
C 	C 	0.62770 0.92635 0.57170 0.19000
C 	C 	0.63950 0.95406 0.61040 -0.21400
H 	H 	0.68210 0.96640 0.62070 0.09300
C 	C 	0.03680 0.80728 0.53703 -0.18800
C 	C 	0.98550 0.81594 0.48478 0.11800
H 	H 	0.96110 0.79800 0.46110 -0.06200
C 	C 	0.07270 0.83463 0.57210 0.10200
H 	H 	0.10690 0.82960 0.60670 -0.06300
C 	C 	0.05740 0.86937 0.55530 -0.22500
H 	H 	0.08140 0.88740 0.57890 0.09500
C 	C 	0.05230 0.77057 0.55491 0.13500
C 	C 	0.97090 0.85018 0.46816 -0.22500
H 	H 	0.93710 0.85520 0.43330 0.09600
C 	C 	0.00630 0.87768 0.50310 0.19300
C 	C 	0.10790 0.72386 0.59425 0.11900
C 	C 	0.23090 0.70068 0.61451 0.09200
H 	H 	0.23910 0.71840 0.59180 -0.05700
C 	C 	0.28360 0.67639 0.63860 -0.22100
H 	H 	0.32660 0.67800 0.63200 0.09300
C 	C 	0.27270 0.64942 0.67258 0.19500
C 	C 	0.20810 0.64865 0.68320 -0.22500
H 	H 	0.20080 0.63150 0.70710 0.09300
C 	C 	0.15510 0.67293 0.65869 0.09500
H 	H 	0.11240 0.67160 0.66580 -0.05600
C 	C 	0.16520 0.69940 0.62338 -0.17700
C 	C 	0.66770 0.85329 0.68878 0.12700
C 	C 	0.74110 0.86602 0.71242 -0.15500
C 	C 	0.76710 0.87697 0.76850 0.06800
H 	H 	0.74050 0.87240 0.79190 -0.04600
C 	C 	0.78220 0.87195 0.67830 0.06500
H 	H 	0.76590 0.86510 0.64050 -0.01300
C 	C 	0.83050 0.89420 0.79050 -0.22100
H 	H 	0.84560 0.90140 0.82810 0.09000
C 	C 	0.87160 0.90090 0.75800 0.17400
C 	C 	0.84840 0.88840 0.70110 -0.19800
H 	H 	0.87740 0.89110 0.67910 0.08800
C 	C 	0.51790 0.80024 0.61192 -0.17200
C 	C 	0.52760 0.76516 0.62735 0.02600
H 	H 	0.57010 0.75780 0.65380 -0.02400
C 	C 	0.47420 0.74092 0.60350 -0.19900
H 	H 	0.48100 0.71740 0.61460 0.08600
C 	C 	0.40100 0.78657 0.54590 -0.20400
H 	H 	0.35950 0.79390 0.51820 0.08400
C 	C 	0.40980 0.75141 0.56270 0.16700
C 	C 	0.57100 0.82633 0.64405 0.09800
C 	C 	0.45480 0.81059 0.57072 0.05100
H 	H 	0.44850 0.83410 0.55970 -0.03200
N 	N 	0.44952 0.92352 0.67216 -0.28100
N 	N 	0.44710 0.98149 0.66249 -0.28800
N 	N 	0.40715 0.93730 0.70107 -0.26700
N 	N 	0.71823 0.79566 0.41044 -0.28200
N 	N 	0.77409 0.74594 0.40567 -0.24400
N 	N 	0.81559 0.76431 0.45306 -0.24500
N 	N 	0.00404 0.74527 0.54414 -0.25600
N 	N 	0.04022 0.71500 0.56917 -0.25700
N 	N 	0.11822 0.75861 0.58607 -0.28400
N 	N 	0.47076 0.12697 0.59254 -0.24900
N 	N 	0.40963 0.12889 0.60828 -0.25800
N 	N 	0.44248 0.07326 0.61065 -0.28800
N 	N 	0.61487 0.87061 0.69812 -0.26800
N 	N 	0.55283 0.85324 0.66994 -0.27400
N 	N 	0.64262 0.82524 0.65455 -0.27400
N 	N 	0.29315 0.80368 0.64699 -0.28500
N 	N 	0.38498 0.83973 0.66350 -0.26400
N 	N 	0.40615 0.81138 0.69919 -0.26800
N 	N 	0.32520 0.62451 0.69660 -0.32200
H 	H 	0.36500 0.62560 0.69050 0.13100
H 	H 	0.31780 0.60800 0.71750 0.13300
N 	N 	0.36810 0.66900 0.82200 -0.32700
H 	H 	0.33690 0.66520 0.83800 0.13800
H 	H 	0.40380 0.65510 0.82810 0.13300
N 	N 	0.67710 0.91821 0.54570 -0.32800
H 	H 	0.66840 0.90180 0.52080 0.15300
H 	H 	0.71640 0.92960 0.55470 0.14000
N 	N 	0.25830 0.05270 0.80860 -0.32600
H 	H 	0.27550 0.07230 0.82460 0.14500
H 	H 	0.21890 0.04490 0.81090 0.13400
N 	N 	0.35480 0.72745 0.53950 -0.31300
H 	H 	0.31580 0.73440 0.51490 0.11000
H 	H 	0.36000 0.70570 0.54970 0.13200
N 	N 	0.92290 0.90573 0.59680 -0.32000
H 	H 	0.95110 0.90170 0.63050 0.13500
H 	H 	0.91860 0.92680 0.58330 0.13200
N 	N 	0.98880 0.91207 0.48770 -0.31200
H 	H 	0.95590 0.91680 0.45630 0.13600
H 	H 	0.01080 0.92890 0.50930 0.12400
N 	N 	0.51710 0.72513 0.16830 -0.31300
H 	H 	0.49250 0.74100 0.14580 0.11400
H 	H 	0.51200 0.70330 0.15850 0.13500
N 	N 	0.14580 0.92381 0.45680 -0.31700
H 	H 	0.12600 0.91530 0.42350 0.12900
H 	H 	0.14050 0.94570 0.46320 0.12400
N 	N 	0.13270 0.06182 0.64680 -0.32200
H 	H 	0.11530 0.07500 0.66670 0.12800
H 	H 	0.10900 0.04410 0.62880 0.12700
N 	N 	0.70320 0.03310 0.52140 -0.33600
H 	H 	0.70020 0.01120 0.51240 0.13200
H 	H 	0.73900 0.04530 0.52050 0.14500
N 	N 	0.93800 0.91820 0.78120 -0.31400
H 	H 	0.95250 0.92460 0.81600 0.12900
H 	H 	0.96370 0.92230 0.76030 0.12600
Cu	Cu	0.96096 0.37339 0.66772 0.77000
Cu	Cu	0.94878 0.52632 0.63377 0.83000
Cu	Cu	0.40518 0.24514 0.49922 0.80800
Cu	Cu	0.70437 0.28236 0.61623 0.82700
Cu	Cu	0.49409 0.17129 0.56743 0.80900
Cu	Cu	0.18555 0.29331 0.61800 0.83200
Cu	Cu	0.35105 0.16918 0.59347 0.81300
Cu	Cu	0.88982 0.40682 0.75337 0.78100
Br	Br	0.36879 0.17900 0.48904 -0.74500
C 	C 	0.28100 0.29402 0.45447 0.11700
C 	C 	0.35430 0.31638 0.55071 0.08400
H 	H 	0.35890 0.29360 0.56520 -0.05100
C 	C 	0.38380 0.37796 0.56370 0.19700
C 	C 	0.33740 0.38425 0.50920 -0.22300
H 	H 	0.33040 0.40720 0.49560 0.09700
C 	C 	0.31120 0.32240 0.49468 -0.16300
C 	C 	0.30200 0.35726 0.47520 0.09400
H 	H 	0.27160 0.36210 0.43890 -0.04900
C 	C 	0.39030 0.34394 0.58500 -0.22100
H 	H 	0.41860 0.33950 0.62210 0.09400
C 	C 	0.21590 0.26557 0.38097 0.10900
C 	C 	0.16130 0.25513 0.32769 -0.16800
C 	C 	0.12080 0.27984 0.28920 0.07300
H 	H 	0.12540 0.30360 0.29890 -0.05500
C 	C 	0.07350 0.26992 0.23650 -0.20900
H 	H 	0.04740 0.28700 0.21180 0.06600
C 	C 	0.15260 0.21981 0.31130 0.08100
H 	H 	0.17850 0.20260 0.33600 -0.05100
C 	C 	0.06540 0.23475 0.22070 0.18100
C 	C 	0.10580 0.20971 0.25860 -0.22300
H 	H 	0.10140 0.18600 0.24870 0.09600
C 	C 	0.89420 0.59598 0.61812 0.11700
C 	C 	0.82960 0.58612 0.63004 -0.17600
C 	C 	0.80310 0.60612 0.66470 0.08500
H 	H 	0.82870 0.62550 0.68350 -0.04200
C 	C 	0.73880 0.59770 0.67180 -0.22400
H 	H 	0.72230 0.61120 0.69570 0.09200
C 	C 	0.79060 0.55694 0.60290 0.08900
H 	H 	0.80780 0.54300 0.57980 -0.05300
C 	C 	0.69930 0.56925 0.64340 0.19500
C 	C 	0.72700 0.54839 0.60970 -0.22300
H 	H 	0.70230 0.52860 0.59180 0.08900
C 	C 	0.98780 0.59346 0.59338 0.15200
C 	C 	0.04170 0.54358 0.55770 0.14500
H 	H 	0.00450 0.52950 0.55950 -0.08600
C 	C 	0.09290 0.52931 0.53870 -0.26600
H 	H 	0.08840 0.50600 0.52660 0.10800
C 	C 	0.04450 0.57874 0.57440 -0.20400
C 	C 	0.09890 0.59938 0.56890 0.12600
H 	H 	0.09960 0.62340 0.57640 -0.06200
C 	C 	0.15290 0.58454 0.55210 -0.25200
H 	H 	0.19040 0.59860 0.55080 0.11100
C 	C 	0.15110 0.54860 0.53710 0.22300
C 	C 	0.77350 0.35816 0.58716 -0.16900
C 	C 	0.73720 0.34523 0.53340 0.07900
H 	H 	0.74120 0.32150 0.52600 -0.04000
C 	C 	0.76680 0.39340 0.59760 0.09000
H 	H 	0.79110 0.40280 0.63300 -0.05000
C 	C 	0.81740 0.33444 0.63239 0.11900
C 	C 	0.69510 0.36668 0.49050 -0.21800
H 	H 	0.67240 0.35740 0.45480 0.09000
C 	C 	0.72360 0.41503 0.55520 -0.22100
H 	H 	0.71900 0.43870 0.56280 0.08700
C 	C 	0.68700 0.40175 0.50120 0.18100
C 	C 	0.85130 0.25734 0.71958 -0.16700
C 	C 	0.79870 0.25001 0.74355 0.07500
H 	H 	0.76050 0.26520 0.73750 -0.04600
C 	C 	0.80380 0.22007 0.77614 -0.23700
H 	H 	0.76830 0.21510 0.79140 0.09700
C 	C 	0.90710 0.23366 0.72782 0.07800
H 	H 	0.94130 0.23790 0.71100 -0.02800
C 	C 	0.85010 0.29012 0.68821 0.12300
C 	C 	0.86100 0.19746 0.78640 0.20300
C 	C 	0.91190 0.20396 0.76067 -0.22100
H 	H 	0.94920 0.18830 0.76570 0.09200
C 	C 	0.90680 0.47171 0.69453 0.11900
C 	C 	0.86580 0.49462 0.72022 -0.16900
C 	C 	0.89320 0.52647 0.74560 0.08200
H 	H 	0.93550 0.53500 0.74280 -0.06300
C 	C 	0.79400 0.53357 0.77920 0.20300
C 	C 	0.80040 0.48307 0.72260 0.08100
H 	H 	0.78100 0.46210 0.70500 -0.03600
C 	C 	0.85740 0.54544 0.77490 -0.23400
H 	H 	0.87640 0.56660 0.79210 0.09100
C 	C 	0.76470 0.50258 0.75090 -0.22300
H 	H 	0.72050 0.49510 0.75110 0.09300
C 	C 	0.08740 0.46331 0.63370 0.04800
H 	H 	0.09560 0.48200 0.65900 -0.02100
C 	C 	0.06360 0.40818 0.55774 -0.19900
H 	H 	0.05530 0.38950 0.53230 0.08500
C 	C 	0.02360 0.44506 0.61962 -0.17600
C 	C 	0.97300 0.45067 0.65003 0.11100
C 	C 	0.01260 0.41721 0.58071 0.05200
H 	H 	0.97020 0.40480 0.57040 -0.02400
C 	C 	0.12770 0.42635 0.57170 0.18500
C 	C 	0.13950 0.45406 0.61040 -0.21200
H 	H 	0.18210 0.46640 0.62070 0.09200
C 	C 	0.53680 0.30728 0.53703 -0.18200
C 	C 	0.48550 0.31594 0.48478 0.11400
H 	H 	0.46110 0.29800 0.46110 -0.06300
C 	C 	0.57270 0.33463 0.57210 0.10700
H 	H 	0.60690 0.32960 0.60670 -0.06400
C 	C 	0.55740 0.36937 0.55530 -0.23400
H 	H 	0.58140 0.38740 0.57890 0.09900
C 	C 	0.55230 0.27057 0.55491 0.13500
C 	C 	0.47090 0.35018 0.46816 -0.24200
H 	H 	0.43710 0.35520 0.43330 0.10100
C 	C 	0.50630 0.37768 0.50310 0.21500
C 	C 	0.60790 0.22386 0.59425 0.12000
C 	C 	0.73090 0.20068 0.61451 0.09200
H 	H 	0.73910 0.21840 0.59180 -0.05700
C 	C 	0.78360 0.17639 0.63860 -0.22100
H 	H 	0.82660 0.17800 0.63200 0.09400
C 	C 	0.77270 0.14942 0.67258 0.19600
C 	C 	0.70810 0.14865 0.68320 -0.22400
H 	H 	0.70080 0.13150 0.70710 0.09300
C 	C 	0.65510 0.17293 0.65869 0.09400
H 	H 	0.61240 0.17160 0.66580 -0.05500
C 	C 	0.66520 0.19940 0.62338 -0.17700
C 	C 	0.16770 0.35329 0.68878 0.12700
C 	C 	0.24110 0.36602 0.71242 -0.15500
C 	C 	0.26710 0.37697 0.76850 0.06700
H 	H 	0.24050 0.37240 0.79190 -0.04600
C 	C 	0.28220 0.37195 0.67830 0.06400
H 	H 	0.26590 0.36510 0.64050 -0.01300
C 	C 	0.33050 0.39420 0.79050 -0.22000
H 	H 	0.34560 0.40140 0.82810 0.08900
C 	C 	0.37160 0.40090 0.75800 0.17100
C 	C 	0.34840 0.38840 0.70110 -0.19700
H 	H 	0.37740 0.39110 0.67910 0.08700
C 	C 	0.01790 0.30024 0.61192 -0.17900
C 	C 	0.02760 0.26516 0.62735 0.01400
H 	H 	0.07010 0.25780 0.65380 -0.02000
C 	C 	0.97420 0.24092 0.60350 -0.18500
H 	H 	0.98100 0.21740 0.61460 0.08400
C 	C 	0.90100 0.28657 0.54590 -0.20700
H 	H 	0.85950 0.29390 0.51820 0.08500
C 	C 	0.90980 0.25141 0.56270 0.16500
C 	C 	0.07100 0.32633 0.64405 0.09800
C 	C 	0.95480 0.31059 0.57072 0.06400
H 	H 	0.94850 0.33410 0.55970 -0.03400
N 	N 	0.94952 0.42352 0.67216 -0.28000
N 	N 	0.94710 0.48149 0.66249 -0.28800
N 	N 	0.90715 0.43730 0.70107 -0.26600
N 	N 	0.21823 0.29566 0.41044 -0.28200
N 	N 	0.27409 0.24594 0.40567 -0.24400
N 	N 	0.31559 0.26431 0.45306 -0.24500
N 	N 	0.50404 0.24527 0.54414 -0.25200
N 	N 	0.54022 0.21500 0.56917 -0.25400
N 	N 	0.61822 0.25861 0.58607 -0.28300
N 	N 	0.97076 0.62697 0.59254 -0.25000
N 	N 	0.90963 0.62889 0.60828 -0.25700
N 	N 	0.94248 0.57326 0.61065 -0.28800
N 	N 	0.11487 0.37061 0.69812 -0.26900
N 	N 	0.05283 0.35324 0.66994 -0.27700
N 	N 	0.14262 0.32524 0.65455 -0.27400
N 	N 	0.79315 0.30368 0.64699 -0.28500
N 	N 	0.88498 0.33973 0.66350 -0.26400
N 	N 	0.90615 0.31138 0.69919 -0.26600
N 	N 	0.82520 0.12451 0.69660 -0.32200
H 	H 	0.86500 0.12560 0.69050 0.13200
H 	H 	0.81780 0.10800 0.71750 0.13300
N 	N 	0.86810 0.16900 0.82200 -0.32800
H 	H 	0.83690 0.16520 0.83800 0.13800
H 	H 	0.90380 0.15510 0.82810 0.13500
N 	N 	0.17710 0.41821 0.54570 -0.32700
H 	H 	0.16840 0.40180 0.52080 0.15300
H 	H 	0.21640 0.42960 0.55470 0.14000
N 	N 	0.75830 0.55270 0.80860 -0.32600
H 	H 	0.77550 0.57230 0.82460 0.14500
H 	H 	0.71890 0.54490 0.81090 0.13500
N 	N 	0.85480 0.22745 0.53950 -0.31300
H 	H 	0.81580 0.23440 0.51490 0.11000
H 	H 	0.86000 0.20570 0.54970 0.13200
N 	N 	0.42290 0.40573 0.59680 -0.31900
H 	H 	0.45110 0.40170 0.63050 0.13200
H 	H 	0.41860 0.42680 0.58330 0.13000
N 	N 	0.48880 0.41207 0.48770 -0.32900
H 	H 	0.45590 0.41680 0.45630 0.13900
H 	H 	0.51080 0.42890 0.50930 0.13400
N 	N 	0.01710 0.22513 0.16830 -0.32000
H 	H 	0.99250 0.24100 0.14580 0.12300
H 	H 	0.01200 0.20330 0.15850 0.13400
N 	N 	0.64580 0.42381 0.45680 -0.31700
H 	H 	0.62600 0.41530 0.42350 0.13100
H 	H 	0.64050 0.44570 0.46320 0.12500
N 	N 	0.63270 0.56182 0.64680 -0.32300
H 	H 	0.61530 0.57500 0.66670 0.12900
H 	H 	0.60900 0.54410 0.62880 0.12900
N 	N 	0.20320 0.53310 0.52140 -0.33700
H 	H 	0.20020 0.51120 0.51240 0.13200
H 	H 	0.23900 0.54530 0.52050 0.14500
N 	N 	0.43800 0.41820 0.78120 -0.31200
H 	H 	0.45250 0.42460 0.81600 0.12600
H 	H 	0.46370 0.42230 0.76030 0.12100
Cu	Cu	0.53904 0.87339 0.83228 0.76700
Cu	Cu	0.55122 0.02632 0.86623 0.82700
Cu	Cu	0.09482 0.74514 0.00078 0.80700
Cu	Cu	0.79563 0.78236 0.88377 0.82700
Cu	Cu	0.00591 0.67129 0.93257 0.80500
Cu	Cu	0.31445 0.79331 0.88200 0.83200
Cu	Cu	0.14895 0.66918 0.90653 0.81300
Cu	Cu	0.61018 0.90682 0.74663 0.78000
Br	Br	0.13121 0.67900 0.01096 -0.74500
C 	C 	0.21900 0.79402 0.04553 0.11700
C 	C 	0.14570 0.81638 0.94929 0.08100
H 	H 	0.14110 0.79360 0.93480 -0.05100
C 	C 	0.11620 0.87796 0.93630 0.19700
C 	C 	0.16260 0.88425 0.99080 -0.23000
H 	H 	0.16960 0.90720 0.00440 0.10000
C 	C 	0.18880 0.82240 0.00532 -0.16200
C 	C 	0.19800 0.85726 0.02480 0.09800
H 	H 	0.22840 0.86210 0.06110 -0.05000
C 	C 	0.10970 0.84394 0.91500 -0.22100
H 	H 	0.08140 0.83950 0.87790 0.09200
C 	C 	0.28410 0.76557 0.11903 0.10900
C 	C 	0.33870 0.75513 0.17231 -0.16800
C 	C 	0.37920 0.77984 0.21080 0.07300
H 	H 	0.37460 0.80360 0.20110 -0.05400
C 	C 	0.42650 0.76992 0.26350 -0.20800
H 	H 	0.45260 0.78700 0.28820 0.06800
C 	C 	0.34740 0.71981 0.18870 0.08200
H 	H 	0.32150 0.70260 0.16400 -0.05100
C 	C 	0.43460 0.73475 0.27930 0.18200
C 	C 	0.39420 0.70971 0.24140 -0.22300
H 	H 	0.39860 0.68600 0.25130 0.09700
C 	C 	0.60580 0.09598 0.88188 0.11700
C 	C 	0.67040 0.08612 0.86996 -0.17700
C 	C 	0.69690 0.10612 0.83530 0.08600
H 	H 	0.67130 0.12550 0.81650 -0.04300
C 	C 	0.76120 0.09770 0.82820 -0.22500
H 	H 	0.77770 0.11120 0.80430 0.09200
C 	C 	0.70940 0.05694 0.89710 0.09000
H 	H 	0.69220 0.04300 0.92020 -0.05300
C 	C 	0.80070 0.06925 0.85660 0.19600
C 	C 	0.77300 0.04839 0.89030 -0.22400
H 	H 	0.79770 0.02860 0.90820 0.08900
C 	C 	0.51220 0.09346 0.90662 0.13900
C 	C 	0.45830 0.04358 0.94230 0.13500
H 	H 	0.49550 0.02950 0.94050 -0.07900
C 	C 	0.40710 0.02931 0.96130 -0.25800
H 	H 	0.41160 0.00600 0.97340 0.10700
C 	C 	0.45550 0.07874 0.92560 -0.18800
C 	C 	0.40110 0.09938 0.93110 0.11700
H 	H 	0.40040 0.12340 0.92360 -0.05700
C 	C 	0.34710 0.08454 0.94790 -0.24500
H 	H 	0.30960 0.09860 0.94920 0.10900
C 	C 	0.34890 0.04860 0.96290 0.21800
C 	C 	0.72650 0.85816 0.91284 -0.17000
C 	C 	0.76280 0.84523 0.96660 0.07900
H 	H 	0.75880 0.82150 0.97400 -0.04100
C 	C 	0.73320 0.89340 0.90240 0.09100
H 	H 	0.70890 0.90280 0.86700 -0.05000
C 	C 	0.68260 0.83444 0.86761 0.11900
C 	C 	0.80490 0.86668 0.00950 -0.21800
H 	H 	0.82760 0.85740 0.04520 0.09000
C 	C 	0.77640 0.91503 0.94480 -0.22100
H 	H 	0.78100 0.93870 0.93720 0.08800
C 	C 	0.81300 0.90175 0.99880 0.18200
C 	C 	0.64870 0.75734 0.78042 -0.16700
C 	C 	0.70130 0.75001 0.75645 0.07400
H 	H 	0.73950 0.76520 0.76250 -0.04600
C 	C 	0.69620 0.72007 0.72386 -0.23700
H 	H 	0.73170 0.71510 0.70860 0.09600
C 	C 	0.59290 0.73366 0.77218 0.07700
H 	H 	0.55870 0.73790 0.78900 -0.03000
C 	C 	0.64990 0.79012 0.81179 0.12200
C 	C 	0.63900 0.69746 0.71360 0.20200
C 	C 	0.58810 0.70396 0.73933 -0.22100
H 	H 	0.55080 0.68830 0.73430 0.08900
C 	C 	0.59320 0.97171 0.80547 0.11800
C 	C 	0.63420 0.99462 0.77978 -0.17000
C 	C 	0.60680 0.02647 0.75440 0.08200
H 	H 	0.56450 0.03500 0.75720 -0.06500
C 	C 	0.70600 0.03357 0.72080 0.20400
C 	C 	0.69960 0.98307 0.77740 0.08200
H 	H 	0.71900 0.96210 0.79500 -0.03600
C 	C 	0.64260 0.04544 0.72510 -0.23500
H 	H 	0.62360 0.06660 0.70790 0.09000
C 	C 	0.73530 0.00258 0.74910 -0.22400
H 	H 	0.77950 0.99510 0.74890 0.09400
C 	C 	0.41260 0.96331 0.86630 0.04900
H 	H 	0.40440 0.98200 0.84100 -0.02000
C 	C 	0.43640 0.90818 0.94226 -0.21000
H 	H 	0.44470 0.88950 0.96770 0.09000
C 	C 	0.47640 0.94506 0.88038 -0.17400
C 	C 	0.52700 0.95067 0.84997 0.10300
C 	C 	0.48740 0.91721 0.91929 0.07300
H 	H 	0.52980 0.90480 0.92960 -0.03700
C 	C 	0.37230 0.92635 0.92830 0.19000
C 	C 	0.36050 0.95406 0.88960 -0.21400
H 	H 	0.31790 0.96640 0.87930 0.09300
C 	C 	0.96320 0.80728 0.96297 -0.17700
C 	C 	0.01450 0.81594 0.01522 0.11200
H 	H 	0.03890 0.79800 0.03890 -0.06400
C 	C 	0.92730 0.83463 0.92790 0.11100
H 	H 	0.89310 0.82960 0.89330 -0.06500
C 	C 	0.94260 0.86937 0.94470 -0.24300
H 	H 	0.91860 0.88740 0.92110 0.10300
C 	C 	0.94770 0.77057 0.94509 0.13500
C 	C 	0.02910 0.85018 0.03184 -0.25800
H 	H 	0.06290 0.85520 0.06670 0.10600
C 	C 	0.99370 0.87768 0.99690 0.23600
C 	C 	0.89210 0.72386 0.90575 0.12000
C 	C 	0.76910 0.70068 0.88549 0.09100
H 	H 	0.76090 0.71840 0.90820 -0.05600
C 	C 	0.71640 0.67639 0.86140 -0.22000
H 	H 	0.67340 0.67800 0.86800 0.09300
C 	C 	0.72730 0.64942 0.82742 0.19500
C 	C 	0.79190 0.64865 0.81680 -0.22300
H 	H 	0.79920 0.63150 0.79290 0.09300
C 	C 	0.84490 0.67293 0.84131 0.09300
H 	H 	0.88760 0.67160 0.83420 -0.05300
C 	C 	0.83480 0.69940 0.87662 -0.17500
C 	C 	0.33230 0.85329 0.81122 0.12700
C 	C 	0.25890 0.86602 0.78758 -0.15400
C 	C 	0.23290 0.87697 0.73150 0.06600
H 	H 	0.25950 0.87240 0.70810 -0.04600
C 	C 	0.21780 0.87195 0.82170 0.06300
H 	H 	0.23410 0.86510 0.85950 -0.01300
C 	C 	0.16950 0.89420 0.70950 -0.21800
H 	H 	0.15440 0.90140 0.67190 0.08800
C 	C 	0.12840 0.90090 0.74200 0.16900
C 	C 	0.15160 0.88840 0.79890 -0.19600
H 	H 	0.12260 0.89110 0.82090 0.08500
C 	C 	0.48210 0.80024 0.88808 -0.17200
C 	C 	0.47240 0.76516 0.87265 0.02600
H 	H 	0.42990 0.75780 0.84620 -0.02400
C 	C 	0.52580 0.74092 0.89650 -0.19900
H 	H 	0.51900 0.71740 0.88540 0.08600
C 	C 	0.59900 0.78657 0.95410 -0.20400
H 	H 	0.64050 0.79390 0.98180 0.08400
C 	C 	0.59020 0.75141 0.93730 0.16700
C 	C 	0.42900 0.82633 0.85595 0.09800
C 	C 	0.54520 0.81059 0.92928 0.05100
H 	H 	0.55150 0.83410 0.94030 -0.03200
N 	N 	0.55048 0.92352 0.82784 -0.28100
N 	N 	0.55290 0.98149 0.83751 -0.28800
N 	N 	0.59285 0.93730 0.79893 -0.26700
N 	N 	0.28177 0.79566 0.08956 -0.28200
N 	N 	0.22591 0.74594 0.09433 -0.24400
N 	N 	0.18441 0.76431 0.04694 -0.24500
N 	N 	0.99596 0.74527 0.95586 -0.24900
N 	N 	0.95978 0.71500 0.93083 -0.25100
N 	N 	0.88178 0.75861 0.91393 -0.28300
N 	N 	0.52924 0.12697 0.90746 -0.24900
N 	N 	0.59037 0.12889 0.89172 -0.25800
N 	N 	0.55752 0.07326 0.88935 -0.28800
N 	N 	0.38513 0.87061 0.80188 -0.26800
N 	N 	0.44717 0.85324 0.83006 -0.27400
N 	N 	0.35738 0.82524 0.84545 -0.27400
N 	N 	0.70685 0.80368 0.85301 -0.28500
N 	N 	0.61502 0.83973 0.83650 -0.26400
N 	N 	0.59385 0.81138 0.80081 -0.26800
N 	N 	0.67480 0.62451 0.80340 -0.32100
H 	H 	0.63500 0.62560 0.80950 0.13100
H 	H 	0.68220 0.60800 0.78250 0.13300
N 	N 	0.63190 0.66900 0.67800 -0.32700
H 	H 	0.66310 0.66520 0.66200 0.13800
H 	H 	0.59620 0.65510 0.67190 0.13400
N 	N 	0.32290 0.91821 0.95430 -0.32800
H 	H 	0.33160 0.90180 0.97920 0.15300
H 	H 	0.28360 0.92960 0.94530 0.14000
N 	N 	0.74170 0.05270 0.69140 -0.32600
H 	H 	0.72450 0.07230 0.67540 0.14500
H 	H 	0.78110 0.04490 0.68910 0.13500
N 	N 	0.64520 0.72745 0.96050 -0.31300
H 	H 	0.68420 0.73440 0.98510 0.11000
H 	H 	0.64000 0.70570 0.95030 0.13100
N 	N 	0.07710 0.90573 0.90320 -0.31800
H 	H 	0.04890 0.90170 0.86950 0.12900
H 	H 	0.08140 0.92680 0.91670 0.12700
N 	N 	0.01120 0.91207 0.01230 -0.34400
H 	H 	0.04410 0.91680 0.04370 0.14100
H 	H 	0.98920 0.92890 0.99070 0.14400
N 	N 	0.48290 0.72513 0.33170 -0.31300
H 	H 	0.50750 0.74100 0.35420 0.11400
H 	H 	0.48800 0.70330 0.34150 0.13500
N 	N 	0.85420 0.92381 0.04320 -0.31800
H 	H 	0.87400 0.91530 0.07650 0.13200
H 	H 	0.85950 0.94570 0.03680 0.12600
N 	N 	0.86730 0.06182 0.85320 -0.32400
H 	H 	0.88470 0.07500 0.83330 0.13100
H 	H 	0.89100 0.04410 0.87120 0.13100
N 	N 	0.29680 0.03310 0.97860 -0.33600
H 	H 	0.29980 0.01120 0.98760 0.13100
H 	H 	0.26100 0.04530 0.97950 0.14400
N 	N 	0.06200 0.91820 0.71880 -0.31100
H 	H 	0.04750 0.92460 0.68400 0.12300
H 	H 	0.03630 0.92230 0.73970 0.11700
Cu	Cu	0.03904 0.37339 0.83228 0.76400
Cu	Cu	0.05122 0.52632 0.86623 0.82500
Cu	Cu	0.59482 0.24514 0.00078 0.80900
Cu	Cu	0.29563 0.28236 0.88377 0.82700
Cu	Cu	0.50591 0.17129 0.93257 0.80900
Cu	Cu	0.81445 0.29331 0.88200 0.83200
Cu	Cu	0.64895 0.16918 0.90653 0.81300
Cu	Cu	0.11018 0.40682 0.74663 0.77900
Br	Br	0.63121 0.17900 0.01096 -0.74500
C 	C 	0.71900 0.29402 0.04553 0.11700
C 	C 	0.64570 0.31638 0.94929 0.08300
H 	H 	0.64110 0.29360 0.93480 -0.05100
C 	C 	0.61620 0.37796 0.93630 0.19800
C 	C 	0.66260 0.38425 0.99080 -0.22500
H 	H 	0.66960 0.40720 0.00440 0.09800
C 	C 	0.68880 0.32240 0.00532 -0.16300
C 	C 	0.69800 0.35726 0.02480 0.09500
H 	H 	0.72840 0.36210 0.06110 -0.04900
C 	C 	0.60970 0.34394 0.91500 -0.22100
H 	H 	0.58140 0.33950 0.87790 0.09400
C 	C 	0.78410 0.26557 0.11903 0.10900
C 	C 	0.83870 0.25513 0.17231 -0.16700
C 	C 	0.87920 0.27984 0.21080 0.07400
H 	H 	0.87460 0.30360 0.20110 -0.05400
C 	C 	0.92650 0.26992 0.26350 -0.20600
H 	H 	0.95260 0.28700 0.28820 0.07000
C 	C 	0.84740 0.21981 0.18870 0.08200
H 	H 	0.82150 0.20260 0.16400 -0.05100
C 	C 	0.93460 0.23475 0.27930 0.18200
C 	C 	0.89420 0.20971 0.24140 -0.22200
H 	H 	0.89860 0.18600 0.25130 0.09800
C 	C 	0.10580 0.59598 0.88188 0.11600
C 	C 	0.17040 0.58612 0.86996 -0.17700
C 	C 	0.19690 0.60612 0.83530 0.08500
H 	H 	0.17130 0.62550 0.81650 -0.04400
C 	C 	0.26120 0.59770 0.82820 -0.22400
H 	H 	0.27770 0.61120 0.80430 0.09200
C 	C 	0.20940 0.55694 0.89710 0.09000
H 	H 	0.19220 0.54300 0.92020 -0.05400
C 	C 	0.30070 0.56925 0.85660 0.19600
C 	C 	0.27300 0.54839 0.89030 -0.22400
H 	H 	0.29770 0.52860 0.90820 0.08900
C 	C 	0.01220 0.59346 0.90662 0.12600
C 	C 	0.95830 0.54358 0.94230 0.12600
H 	H 	0.99550 0.52950 0.94050 -0.07100
C 	C 	0.90710 0.52931 0.96130 -0.25000
H 	H 	0.91160 0.50600 0.97340 0.10600
C 	C 	0.95550 0.57874 0.92560 -0.17000
C 	C 	0.90110 0.59938 0.93110 0.10700
H 	H 	0.90040 0.62340 0.92360 -0.05200
C 	C 	0.84710 0.58454 0.94790 -0.23800
H 	H 	0.80960 0.59860 0.94920 0.10700
C 	C 	0.84890 0.54860 0.96290 0.21400
C 	C 	0.22650 0.35816 0.91284 -0.16600
C 	C 	0.26280 0.34523 0.96660 0.07300
H 	H 	0.25880 0.32150 0.97400 -0.03900
C 	C 	0.23320 0.39340 0.90240 0.08700
H 	H 	0.20890 0.40280 0.86700 -0.04900
C 	C 	0.18260 0.33444 0.86761 0.11800
C 	C 	0.30490 0.36668 0.00950 -0.21000
H 	H 	0.32760 0.35740 0.04520 0.08700
C 	C 	0.27640 0.41503 0.94480 -0.21700
H 	H 	0.28100 0.43870 0.93720 0.08600
C 	C 	0.31300 0.40175 0.99880 0.17500
C 	C 	0.14870 0.25734 0.78042 -0.16700
C 	C 	0.20130 0.25001 0.75645 0.07400
H 	H 	0.23950 0.26520 0.76250 -0.04600
C 	C 	0.19620 0.22007 0.72386 -0.23600
H 	H 	0.23170 0.21510 0.70860 0.09600
C 	C 	0.09290 0.23366 0.77218 0.07600
H 	H 	0.05870 0.23790 0.78900 -0.03200
C 	C 	0.14990 0.29012 0.81179 0.12200
C 	C 	0.13900 0.19746 0.71360 0.20000
C 	C 	0.08810 0.20396 0.73933 -0.22100
H 	H 	0.05080 0.18830 0.73430 0.08700
C 	C 	0.09320 0.47171 0.80547 0.11700
C 	C 	0.13420 0.49462 0.77978 -0.17100
C 	C 	0.10680 0.52647 0.75440 0.08200
H 	H 	0.06450 0.53500 0.75720 -0.06800
C 	C 	0.20600 0.53357 0.72080 0.20400
C 	C 	0.19960 0.48307 0.77740 0.08200
H 	H 	0.21900 0.46210 0.79500 -0.03600
C 	C 	0.14260 0.54544 0.72510 -0.23500
H 	H 	0.12360 0.56660 0.70790 0.08900
C 	C 	0.23530 0.50258 0.74910 -0.22400
H 	H 	0.27950 0.49510 0.74890 0.09400
C 	C 	0.91260 0.46331 0.86630 0.05100
H 	H 	0.90440 0.48200 0.84100 -0.01900
C 	C 	0.93640 0.40818 0.94226 -0.22300
H 	H 	0.94470 0.38950 0.96770 0.09700
C 	C 	0.97640 0.44506 0.88038 -0.17200
C 	C 	0.02700 0.45067 0.84997 0.09500
C 	C 	0.98740 0.41721 0.91929 0.09700
H 	H 	0.02980 0.40480 0.92960 -0.05200
C 	C 	0.87230 0.42635 0.92830 0.19600
C 	C 	0.86050 0.45406 0.88960 -0.21700
H 	H 	0.81790 0.46640 0.87930 0.09400
C 	C 	0.46320 0.30728 0.96297 -0.18300
C 	C 	0.51450 0.31594 0.01522 0.11500
H 	H 	0.53890 0.29800 0.03890 -0.06300
C 	C 	0.42730 0.33463 0.92790 0.10600
H 	H 	0.39310 0.32960 0.89330 -0.06400
C 	C 	0.44260 0.36937 0.94470 -0.23300
H 	H 	0.41860 0.38740 0.92110 0.09900
C 	C 	0.44770 0.27057 0.94509 0.13500
C 	C 	0.52910 0.35018 0.03184 -0.24000
H 	H 	0.56290 0.35520 0.06670 0.10100
C 	C 	0.49370 0.37768 0.99690 0.21300
C 	C 	0.39210 0.22386 0.90575 0.11900
C 	C 	0.26910 0.20068 0.88549 0.09100
H 	H 	0.26090 0.21840 0.90820 -0.05700
C 	C 	0.21640 0.17639 0.86140 -0.22000
H 	H 	0.17340 0.17800 0.86800 0.09200
C 	C 	0.22730 0.14942 0.82742 0.19500
C 	C 	0.29190 0.14865 0.81680 -0.22400
H 	H 	0.29920 0.13150 0.79290 0.09300
C 	C 	0.34490 0.17293 0.84131 0.09400
H 	H 	0.38760 0.17160 0.83420 -0.05500
C 	C 	0.33480 0.19940 0.87662 -0.17600
C 	C 	0.83230 0.35329 0.81122 0.12700
C 	C 	0.75890 0.36602 0.78758 -0.15500
C 	C 	0.73290 0.37697 0.73150 0.06700
H 	H 	0.75950 0.37240 0.70810 -0.04600
C 	C 	0.71780 0.37195 0.82170 0.06400
H 	H 	0.73410 0.36510 0.85950 -0.01300
C 	C 	0.66950 0.39420 0.70950 -0.22000
H 	H 	0.65440 0.40140 0.67190 0.08900
C 	C 	0.62840 0.40090 0.74200 0.17100
C 	C 	0.65160 0.38840 0.79890 -0.19700
H 	H 	0.62260 0.39110 0.82090 0.08700
C 	C 	0.98210 0.30024 0.88808 -0.16200
C 	C 	0.97240 0.26516 0.87265 0.04000
H 	H 	0.92990 0.25780 0.84620 -0.02700
C 	C 	0.02580 0.24092 0.89650 -0.21400
H 	H 	0.01900 0.21740 0.88540 0.08700
C 	C 	0.09900 0.28657 0.95410 -0.20100
H 	H 	0.14050 0.29390 0.98180 0.08200
C 	C 	0.09020 0.25141 0.93730 0.16800
C 	C 	0.92900 0.32633 0.85595 0.09700
C 	C 	0.04520 0.31059 0.92928 0.03700
H 	H 	0.05150 0.33410 0.94030 -0.03000
N 	N 	0.05048 0.42352 0.82784 -0.28200
N 	N 	0.05290 0.48149 0.83751 -0.28900
N 	N 	0.09285 0.43730 0.79893 -0.26700
N 	N 	0.78177 0.29566 0.08956 -0.28200
N 	N 	0.72591 0.24594 0.09433 -0.24400
N 	N 	0.68441 0.26431 0.04694 -0.24500
N 	N 	0.49596 0.24527 0.95586 -0.25300
N 	N 	0.45978 0.21500 0.93083 -0.25400
N 	N 	0.38178 0.25861 0.91393 -0.28300
N 	N 	0.02924 0.62697 0.90746 -0.24900
N 	N 	0.09037 0.62889 0.89172 -0.25800
N 	N 	0.05752 0.57326 0.88935 -0.28800
N 	N 	0.88513 0.37061 0.80188 -0.26800
N 	N 	0.94717 0.35324 0.83006 -0.27100
N 	N 	0.85738 0.32524 0.84545 -0.27400
N 	N 	0.20685 0.30368 0.85301 -0.28500
N 	N 	0.11502 0.33973 0.83650 -0.26500
N 	N 	0.09385 0.31138 0.80081 -0.26900
N 	N 	0.17480 0.12451 0.80340 -0.32100
H 	H 	0.13500 0.12560 0.80950 0.12900
H 	H 	0.18220 0.10800 0.78250 0.13200
N 	N 	0.13190 0.16900 0.67800 -0.32700
H 	H 	0.16310 0.16520 0.66200 0.13700
H 	H 	0.09620 0.15510 0.67190 0.13200
N 	N 	0.82290 0.41821 0.95430 -0.32900
H 	H 	0.83160 0.40180 0.97920 0.15400
H 	H 	0.78360 0.42960 0.94530 0.14000
N 	N 	0.24170 0.55270 0.69140 -0.32600
H 	H 	0.22450 0.57230 0.67540 0.14500
H 	H 	0.28110 0.54490 0.68910 0.13500
N 	N 	0.14520 0.22745 0.96050 -0.31300
H 	H 	0.18420 0.23440 0.98510 0.11000
H 	H 	0.14000 0.20570 0.95030 0.13100
N 	N 	0.57710 0.40573 0.90320 -0.31900
H 	H 	0.54890 0.40170 0.86950 0.13200
H 	H 	0.58140 0.42680 0.91670 0.13000
N 	N 	0.51120 0.41207 0.01230 -0.32700
H 	H 	0.54410 0.41680 0.04370 0.13800
H 	H 	0.48920 0.42890 0.99070 0.13300
N 	N 	0.98290 0.22513 0.33170 -0.30500
H 	H 	0.00750 0.24100 0.35420 0.10500
H 	H 	0.98800 0.20330 0.34150 0.13500
N 	N 	0.35420 0.42381 0.04320 -0.31600
H 	H 	0.37400 0.41530 0.07650 0.13000
H 	H 	0.35950 0.44570 0.03680 0.12500
N 	N 	0.36730 0.56182 0.85320 -0.32300
H 	H 	0.38470 0.57500 0.83330 0.12900
H 	H 	0.39100 0.54410 0.87120 0.12900
N 	N 	0.79680 0.53310 0.97860 -0.33500
H 	H 	0.79980 0.51120 0.98760 0.13200
H 	H 	0.76100 0.54530 0.97950 0.14400
N 	N 	0.56200 0.41820 0.71880 -0.31200
H 	H 	0.54750 0.42460 0.68400 0.12600
H 	H 	0.53630 0.42230 0.73970 0.12100
Cu	Cu	0.50000 0.19028 0.25000 0.77000
Cu	Cu	0.00000 0.69028 0.25000 0.76700
Cu	Cu	0.50000 0.80972 0.75000 0.77000
Cu	Cu	0.00000 0.30972 0.75000 0.76600
