data_crystal

_cell_length_a 13.44870
_cell_length_b 17.92100
_cell_length_c 19.90260
_cell_angle_alpha 90.00000
_cell_angle_beta  90.98330
_cell_angle_gamma 90.00000

_symmetry_space_group_name_	'P 1'
_symmetry_space_group_name_H-M	'P 1'

loop_
_symmetry_equiv_pos_as_xyz
  x,y,z

loop_
_atom_site_label
_atom_site_type_symbol
_atom_site_fract_x
_atom_site_fract_y
_atom_site_fract_z
_atom_site_charge
U 	U 	0.34904 0.97817 0.22905 0.04500
U 	U 	0.65281 0.00175 0.27448 0.04400
U 	U 	0.37856 0.73814 0.37729 0.07900
U 	U 	0.62354 0.24835 0.12274 0.08400
U 	U 	0.34780 0.00519 0.50941 0.04300
U 	U 	0.34884 0.00755 0.01181 0.04300
P 	P 	0.14300 0.03242 0.11849 0.51900
P 	P 	0.77470 0.07791 0.12828 0.51400
P 	P 	0.85870 0.95831 0.38796 0.50400
P 	P 	0.49380 0.06105 0.12838 0.47000
P 	P 	0.50920 0.92391 0.37924 0.47100
P 	P 	0.22700 0.90482 0.37479 0.49500
O 	O 	0.48100 0.97500 0.43810 -0.12500
F 	F 	0.46010 0.28030 0.14080 -0.33800
O 	O 	0.96170 0.99990 0.39560 -0.26300
O 	O 	0.37810 0.05420 0.12720 -0.11900
O 	O 	0.62600 0.93240 0.38010 -0.11500
O 	O 	0.20120 0.98500 0.16850 -0.12600
O 	O 	0.52080 0.01910 0.06340 -0.12400
O 	O 	0.80030 0.00310 0.33540 -0.12600
O 	O 	0.26140 0.97210 0.41540 -0.13800
O 	O 	0.19510 0.03760 0.05160 -0.13500
O 	O 	0.52440 0.01670 0.19190 -0.12400
O 	O 	0.47940 0.95760 0.31080 -0.12400
O 	O 	0.04170 0.98880 0.10580 -0.36600
O 	O 	0.25430 0.91500 0.30190 -0.13400
O 	O 	0.26440 0.83170 0.40270 -0.13800
O 	O 	0.87860 0.87950 0.36540 -0.12800
O 	O 	0.80800 0.96200 0.45500 -0.13300
O 	O 	0.74890 0.06230 0.20110 -0.13200
O 	O 	0.74340 0.01160 0.08500 -0.13900
O 	O 	0.11910 0.10820 0.14690 -0.14000
O 	O 	0.89170 0.08010 0.12390 -0.31600
F 	F 	0.54300 0.70620 0.36650 -0.32500
O 	O 	0.52870 0.13980 0.12890 -0.11300
O 	O 	0.47690 0.84580 0.38980 -0.11300
O 	O 	0.73510 0.15180 0.10360 -0.13400
O 	O 	0.10980 0.90520 0.38000 -0.27800
H 	H 	0.98860 0.01200 0.10590 0.31200
H 	H 	0.08590 0.84630 0.37500 0.28600
H 	H 	0.02820 0.97710 0.38690 0.23800
H 	H 	0.93260 0.12650 0.11920 0.29800
U 	U 	0.15096 0.47817 0.27095 0.04500
U 	U 	0.84719 0.50175 0.22552 0.04500
U 	U 	0.12144 0.23814 0.12271 0.07900
U 	U 	0.87646 0.74835 0.37726 0.08400
U 	U 	0.15220 0.50519 0.99059 0.04200
U 	U 	0.15116 0.50755 0.48819 0.04300
P 	P 	0.35700 0.53242 0.38151 0.52300
P 	P 	0.72530 0.57791 0.37172 0.51400
P 	P 	0.64130 0.45831 0.11204 0.50400
P 	P 	0.00620 0.56105 0.37162 0.47100
P 	P 	0.99080 0.42391 0.12076 0.46800
P 	P 	0.27300 0.40482 0.12521 0.49500
O 	O 	0.01900 0.47500 0.06190 -0.12300
F 	F 	0.03990 0.78030 0.35920 -0.33800
O 	O 	0.53830 0.49990 0.10440 -0.26200
O 	O 	0.12190 0.55420 0.37280 -0.11900
O 	O 	0.87400 0.43240 0.11990 -0.11500
O 	O 	0.29880 0.48500 0.33150 -0.12800
O 	O 	0.97920 0.51910 0.43660 -0.12400
O 	O 	0.69970 0.50310 0.16460 -0.12600
O 	O 	0.23860 0.47210 0.08460 -0.13700
O 	O 	0.30490 0.53760 0.44840 -0.13500
O 	O 	0.97560 0.51670 0.30810 -0.12400
O 	O 	0.02060 0.45760 0.18920 -0.12300
O 	O 	0.45830 0.48880 0.39420 -0.37300
O 	O 	0.24570 0.41500 0.19810 -0.13400
O 	O 	0.23560 0.33170 0.09730 -0.13800
O 	O 	0.62140 0.37950 0.13460 -0.12800
O 	O 	0.69200 0.46200 0.04500 -0.13300
O 	O 	0.75110 0.56230 0.29890 -0.13200
O 	O 	0.75660 0.51160 0.41500 -0.13900
O 	O 	0.38090 0.60820 0.35310 -0.14100
O 	O 	0.60830 0.58010 0.37610 -0.31600
F 	F 	0.95700 0.20620 0.13350 -0.32600
O 	O 	0.97130 0.63980 0.37110 -0.11300
O 	O 	0.02310 0.34580 0.11020 -0.11200
O 	O 	0.76490 0.65180 0.39640 -0.13400
O 	O 	0.39020 0.40520 0.12000 -0.27800
H 	H 	0.51140 0.51200 0.39410 0.31700
H 	H 	0.41410 0.34630 0.12500 0.28600
H 	H 	0.47180 0.47710 0.11310 0.23700
H 	H 	0.56740 0.62650 0.38080 0.29800
U 	U 	0.65096 0.02183 0.77095 0.04600
U 	U 	0.34719 0.99825 0.72552 0.04500
U 	U 	0.62144 0.26186 0.62271 0.07900
U 	U 	0.37646 0.75165 0.87726 0.08400
U 	U 	0.65220 0.99481 0.49059 0.04300
U 	U 	0.65116 0.99245 0.98819 0.04300
P 	P 	0.85700 0.96758 0.88151 0.51900
P 	P 	0.22530 0.92209 0.87172 0.51400
P 	P 	0.14130 0.04169 0.61204 0.50400
P 	P 	0.50620 0.93895 0.87162 0.47000
P 	P 	0.49080 0.07609 0.62076 0.47100
P 	P 	0.77300 0.09518 0.62521 0.49500
O 	O 	0.51900 0.02500 0.56190 -0.12500
F 	F 	0.53990 0.71970 0.85920 -0.33800
O 	O 	0.03830 0.00010 0.60440 -0.26300
O 	O 	0.62190 0.94580 0.87280 -0.11900
O 	O 	0.37400 0.06760 0.61990 -0.11500
O 	O 	0.79880 0.01500 0.83150 -0.12600
O 	O 	0.47920 0.98090 0.93660 -0.12400
O 	O 	0.19970 0.99690 0.66460 -0.12600
O 	O 	0.73860 0.02790 0.58460 -0.13800
O 	O 	0.80490 0.96240 0.94840 -0.13500
O 	O 	0.47560 0.98330 0.80810 -0.12400
O 	O 	0.52060 0.04240 0.68920 -0.12400
O 	O 	0.95830 0.01120 0.89420 -0.36600
O 	O 	0.74570 0.08500 0.69810 -0.13400
O 	O 	0.73560 0.16830 0.59730 -0.13800
O 	O 	0.12140 0.12050 0.63460 -0.12800
O 	O 	0.19200 0.03800 0.54500 -0.13300
O 	O 	0.25110 0.93770 0.79890 -0.13200
O 	O 	0.25660 0.98840 0.91500 -0.13900
O 	O 	0.88090 0.89180 0.85310 -0.14000
O 	O 	0.10830 0.91990 0.87610 -0.31600
F 	F 	0.45700 0.29380 0.63350 -0.32500
O 	O 	0.47130 0.86020 0.87110 -0.11300
O 	O 	0.52310 0.15420 0.61020 -0.11300
O 	O 	0.26490 0.84820 0.89640 -0.13400
O 	O 	0.89020 0.09480 0.62000 -0.27800
H 	H 	0.01140 0.98800 0.89410 0.31200
H 	H 	0.91410 0.15370 0.62500 0.28600
H 	H 	0.97180 0.02290 0.61310 0.23800
H 	H 	0.06740 0.87350 0.88080 0.29800
U 	U 	0.84904 0.52183 0.72905 0.04500
U 	U 	0.15281 0.49825 0.77448 0.04500
U 	U 	0.87856 0.76186 0.87729 0.07900
U 	U 	0.12354 0.25165 0.62274 0.08400
U 	U 	0.84780 0.49481 0.00941 0.04200
U 	U 	0.84884 0.49245 0.51181 0.04300
P 	P 	0.64300 0.46758 0.61849 0.52300
P 	P 	0.27470 0.42209 0.62828 0.51400
P 	P 	0.35870 0.54169 0.88796 0.50400
P 	P 	0.99380 0.43895 0.62838 0.47100
P 	P 	0.00920 0.57609 0.87924 0.46800
P 	P 	0.72700 0.59518 0.87479 0.49500
O 	O 	0.98100 0.52500 0.93810 -0.12300
F 	F 	0.96010 0.21970 0.64080 -0.33800
O 	O 	0.46170 0.50010 0.89560 -0.26200
O 	O 	0.87810 0.44580 0.62720 -0.11900
O 	O 	0.12600 0.56760 0.88010 -0.11500
O 	O 	0.70120 0.51500 0.66850 -0.12800
O 	O 	0.02080 0.48090 0.56340 -0.12400
O 	O 	0.30030 0.49690 0.83540 -0.12600
O 	O 	0.76140 0.52790 0.91540 -0.13700
O 	O 	0.69510 0.46240 0.55160 -0.13500
O 	O 	0.02440 0.48330 0.69190 -0.12400
O 	O 	0.97940 0.54240 0.81080 -0.12300
O 	O 	0.54170 0.51120 0.60580 -0.37300
O 	O 	0.75430 0.58500 0.80190 -0.13400
O 	O 	0.76440 0.66830 0.90270 -0.13800
O 	O 	0.37860 0.62050 0.86540 -0.12800
O 	O 	0.30800 0.53800 0.95500 -0.13300
O 	O 	0.24890 0.43770 0.70110 -0.13200
O 	O 	0.24340 0.48840 0.58500 -0.13900
O 	O 	0.61910 0.39180 0.64690 -0.14100
O 	O 	0.39170 0.41990 0.62390 -0.31600
F 	F 	0.04300 0.79380 0.86650 -0.32600
O 	O 	0.02870 0.36020 0.62890 -0.11300
O 	O 	0.97690 0.65420 0.88980 -0.11200
O 	O 	0.23510 0.34820 0.60360 -0.13400
O 	O 	0.60980 0.59480 0.88000 -0.27800
H 	H 	0.48860 0.48800 0.60590 0.31700
H 	H 	0.58590 0.65370 0.87500 0.28600
H 	H 	0.52820 0.52290 0.88690 0.23700
H 	H 	0.43260 0.37350 0.61920 0.29800
