data_crystal

_cell_length_a 32.98900
_cell_length_b 39.08000
_cell_length_c 27.68200
_cell_angle_alpha 90.00000
_cell_angle_beta  124.04000
_cell_angle_gamma 90.00000

_symmetry_space_group_name_	'P 1'
_symmetry_space_group_name_H-M	'P 1'

loop_
_symmetry_equiv_pos_as_xyz
  x,y,z

loop_
_atom_site_label
_atom_site_type_symbol
_atom_site_fract_x
_atom_site_fract_y
_atom_site_fract_z
_atom_site_charge
Co	Co	0.63636 0.22943 0.03348 1.12500
Co	Co	0.72186 0.19013 0.15597 1.07700
O 	O 	0.64691 0.02059 0.60812 -0.34500
O 	O 	0.59426 0.21486 0.05910 -0.58600
O 	O 	0.63654 0.18457 0.99951 -0.47900
O 	O 	0.69056 0.15824 0.08295 -0.50500
O 	O 	0.65699 0.19956 0.14660 -0.49500
C 	C 	0.48745 0.17535 0.18877 0.00600
O 	O 	0.19323 0.24708 0.02401 -0.42900
O 	O 	0.21325 0.26381 0.11054 -0.59600
C 	C 	0.22184 0.25327 0.07740 0.38000
C 	C 	0.27616 0.23677 0.11160 -0.13700
C 	C 	0.29129 0.22668 0.07770 0.04500
H 	H 	0.27130 0.22980 0.03750 0.02900
C 	C 	0.33747 0.21146 0.10339 -0.12600
H 	H 	0.34820 0.20540 0.07980 0.07500
C 	C 	0.36720 0.20515 0.16198 0.05200
C 	C 	0.35135 0.21571 0.19750 -0.13300
H 	H 	0.37090 0.21230 0.23760 0.06200
C 	C 	0.30579 0.23141 0.17140 0.04300
H 	H 	0.29500 0.23840 0.19440 -0.01800
C 	C 	0.41418 0.18709 0.18665 0.01800
C 	C 	0.42907 0.16291 0.23078 -0.09500
H 	H 	0.40930 0.15880 0.24430 0.05500
C 	C 	0.50121 0.15122 0.23295 -0.08800
H 	H 	0.53010 0.13900 0.24810 0.05200
C 	C 	0.47243 0.14499 0.25495 0.01700
C 	C 	0.44350 0.19297 0.16624 -0.08500
H 	H 	0.43370 0.20900 0.13690 0.04600
C 	C 	0.48894 0.11948 0.30236 0.04600
C 	C 	0.63914 0.03077 0.91030 0.02500
C 	C 	0.63206 0.03055 0.85561 -0.10000
H 	H 	0.63000 0.05110 0.83750 0.06000
C 	C 	0.51816 0.18231 0.16664 0.08500
C 	C 	0.51975 0.07289 0.39374 -0.13000
C 	C 	0.53585 0.04720 0.44210 0.39200
C 	C 	0.49882 0.19025 0.11024 -0.16800
H 	H 	0.46500 0.19110 0.08390 0.07900
C 	C 	0.62257 0.12306 0.93714 0.08500
H 	H 	0.60380 0.14180 0.91520 0.01200
C 	C 	0.61835 0.09341 0.91090 -0.14900
H 	H 	0.59660 0.09220 0.87060 0.08100
C 	C 	0.64455 0.06425 0.94019 0.06500
C 	C 	0.68297 0.09768 0.02830 0.07900
H 	H 	0.70590 0.09940 0.06830 -0.00500
O 	O 	0.50340 0.03310 0.44610 -0.39000
O 	O 	0.58170 0.04250 0.47600 -0.28000
C 	C 	0.45450 0.09940 0.30480 -0.08400
H 	H 	0.42140 0.10090 0.27500 0.05100
C 	C 	0.46940 0.07730 0.35150 0.01300
H 	H 	0.44640 0.06560 0.35460 0.02600
C 	C 	0.53800 0.11525 0.34910 -0.11700
H 	H 	0.56140 0.12930 0.35050 0.05800
C 	C 	0.55340 0.09133 0.39300 0.07900
H 	H 	0.58660 0.08820 0.42140 -0.00000
C 	C 	0.62278 0.99365 0.77008 0.02400
C 	C 	0.65292 0.97217 0.76342 -0.10500
H 	H 	0.67540 0.95820 0.79400 0.06200
C 	C 	0.64943 0.97165 0.71101 0.04300
H 	H 	0.66960 0.95730 0.70660 0.02400
C 	C 	0.61581 0.99260 0.66525 -0.11400
C 	C 	0.58567 0.01407 0.67191 0.03300
H 	H 	0.56320 0.02810 0.64130 0.03300
C 	C 	0.58915 0.01460 0.72432 -0.10800
H 	H 	0.56900 0.02900 0.72880 0.06600
C 	C 	0.65522 0.12613 0.99766 -0.16900
C 	C 	0.58010 0.19598 0.13010 -0.20400
C 	C 	0.66108 0.15878 0.02941 0.42300
C 	C 	0.52877 0.19703 0.09160 0.08900
H 	H 	0.51490 0.20250 0.05260 0.00500
C 	C 	0.56941 0.18106 0.20628 -0.17200
H 	H 	0.58360 0.17640 0.24550 0.07800
C 	C 	0.67730 0.06697 0.00097 -0.14600
H 	H 	0.69520 0.04800 0.02270 0.07000
C 	C 	0.59872 0.18721 0.18430 0.11400
H 	H 	0.63250 0.18490 0.20940 -0.01800
C 	C 	0.60790 0.20515 0.10180 0.49400
C 	C 	0.47160 0.88110 0.33640 -0.03900
C 	C 	0.48610 0.90440 0.37910 0.01000
C 	C 	0.52040 0.90570 0.30870 -0.01700
C 	C 	0.53880 0.92860 0.35690 -0.04700
H 	H 	0.44870 0.86470 0.33020 0.03400
H 	H 	0.47100 0.90420 0.39910 0.02500
H 	H 	0.52950 0.90780 0.28250 0.02700
H 	H 	0.56290 0.94440 0.36490 0.04400
O 	O 	0.51250 0.95580 0.46190 -0.07300
O 	O 	0.42490 0.96910 0.54610 -0.20700
Co	Co	0.13636 0.72943 0.03348 1.12400
Co	Co	0.22186 0.69013 0.15597 1.07600
O 	O 	0.14691 0.52059 0.60812 -0.34300
O 	O 	0.09426 0.71486 0.05910 -0.58400
O 	O 	0.13654 0.68457 0.99951 -0.47800
O 	O 	0.19056 0.65824 0.08295 -0.50500
O 	O 	0.15699 0.69956 0.14660 -0.49400
C 	C 	0.98745 0.67535 0.18877 0.03600
O 	O 	0.69323 0.74708 0.02401 -0.42800
O 	O 	0.71325 0.76381 0.11054 -0.59500
C 	C 	0.72184 0.75327 0.07740 0.37900
C 	C 	0.77616 0.73677 0.11160 -0.13400
C 	C 	0.79129 0.72668 0.07770 0.04200
H 	H 	0.77130 0.72980 0.03750 0.03000
C 	C 	0.83747 0.71146 0.10339 -0.12100
H 	H 	0.84820 0.70540 0.07980 0.07300
C 	C 	0.86720 0.70515 0.16198 0.04600
C 	C 	0.85135 0.71571 0.19750 -0.12800
H 	H 	0.87090 0.71230 0.23760 0.06000
C 	C 	0.80579 0.73141 0.17140 0.04000
H 	H 	0.79500 0.73840 0.19440 -0.01700
C 	C 	0.91418 0.68709 0.18665 0.03000
C 	C 	0.92907 0.66291 0.23078 -0.10600
H 	H 	0.90930 0.65880 0.24430 0.05900
C 	C 	0.00121 0.65122 0.23295 -0.11500
H 	H 	0.03010 0.63900 0.24810 0.06100
C 	C 	0.97243 0.64499 0.25495 0.03100
C 	C 	0.94350 0.69297 0.16624 -0.10300
H 	H 	0.93370 0.70900 0.13690 0.05300
C 	C 	0.98894 0.61948 0.30236 0.05000
C 	C 	0.13914 0.53077 0.91030 0.02500
C 	C 	0.13206 0.53055 0.85561 -0.10300
H 	H 	0.13000 0.55110 0.83750 0.06200
C 	C 	0.01816 0.68231 0.16664 0.04900
C 	C 	0.01975 0.57289 0.39374 -0.14400
C 	C 	0.03585 0.54720 0.44210 0.39800
C 	C 	0.99882 0.69025 0.11024 -0.12700
H 	H 	0.96500 0.69110 0.08390 0.06500
C 	C 	0.12257 0.62306 0.93714 0.08400
H 	H 	0.10380 0.64180 0.91520 0.01200
C 	C 	0.11835 0.59341 0.91090 -0.14900
H 	H 	0.09660 0.59220 0.87060 0.08100
C 	C 	0.14455 0.56425 0.94019 0.06500
C 	C 	0.18297 0.59768 0.02830 0.07800
H 	H 	0.20590 0.59940 0.06830 -0.00500
O 	O 	0.00340 0.53310 0.44610 -0.37500
O 	O 	0.08170 0.54250 0.47600 -0.28200
C 	C 	0.95450 0.59940 0.30480 -0.08500
H 	H 	0.92140 0.60090 0.27500 0.05100
C 	C 	0.96940 0.57730 0.35150 0.01700
H 	H 	0.94640 0.56560 0.35460 0.02500
C 	C 	0.03800 0.61525 0.34910 -0.13500
H 	H 	0.06140 0.62930 0.35050 0.06400
C 	C 	0.05340 0.59133 0.39300 0.09900
H 	H 	0.08660 0.58820 0.42140 -0.00700
C 	C 	0.12278 0.49365 0.77008 0.03100
C 	C 	0.15292 0.47217 0.76342 -0.09700
H 	H 	0.17540 0.45820 0.79400 0.05800
C 	C 	0.14943 0.47165 0.71101 0.03000
H 	H 	0.16960 0.45730 0.70660 0.02700
C 	C 	0.11581 0.49260 0.66525 -0.09200
C 	C 	0.08567 0.51407 0.67191 0.03400
H 	H 	0.06320 0.52810 0.64130 0.03300
C 	C 	0.08915 0.51460 0.72432 -0.06900
H 	H 	0.06900 0.52900 0.72880 0.05300
C 	C 	0.15522 0.62613 0.99766 -0.16800
C 	C 	0.08010 0.69598 0.13010 -0.18500
C 	C 	0.16108 0.65878 0.02941 0.42100
C 	C 	0.02877 0.69703 0.09160 0.05800
H 	H 	0.01490 0.70250 0.05260 0.01400
C 	C 	0.06941 0.68106 0.20628 -0.14800
H 	H 	0.08360 0.67640 0.24550 0.06900
C 	C 	0.17730 0.56697 0.00097 -0.14600
H 	H 	0.19520 0.54800 0.02270 0.07000
C 	C 	0.09872 0.68721 0.18430 0.09200
H 	H 	0.13250 0.68490 0.20940 -0.01100
C 	C 	0.10790 0.70515 0.10180 0.48700
C 	C 	0.97160 0.38110 0.33640 -0.04100
C 	C 	0.98610 0.40440 0.37910 0.01900
C 	C 	0.02040 0.40570 0.30870 -0.00800
C 	C 	0.03880 0.42860 0.35690 -0.05900
H 	H 	0.94870 0.36470 0.33020 0.03400
H 	H 	0.97100 0.40420 0.39910 0.02200
H 	H 	0.02950 0.40780 0.28250 0.02100
H 	H 	0.06290 0.44440 0.36490 0.04600
O 	O 	0.01250 0.45580 0.46190 -0.05900
O 	O 	0.92490 0.46910 0.54610 -0.20800
Co	Co	0.36364 0.22943 0.96652 1.12400
Co	Co	0.27814 0.19013 0.84403 1.07600
O 	O 	0.35309 0.02059 0.39188 -0.34500
O 	O 	0.40574 0.21486 0.94090 -0.58600
O 	O 	0.36346 0.18457 0.00049 -0.47800
O 	O 	0.30944 0.15824 0.91705 -0.50500
O 	O 	0.34301 0.19956 0.85340 -0.49500
C 	C 	0.51255 0.17535 0.81123 0.00600
O 	O 	0.80677 0.24708 0.97599 -0.42900
O 	O 	0.78675 0.26381 0.88946 -0.59500
C 	C 	0.77816 0.25327 0.92260 0.38000
C 	C 	0.72384 0.23677 0.88840 -0.13700
C 	C 	0.70871 0.22668 0.92230 0.04500
H 	H 	0.72870 0.22980 0.96250 0.02900
C 	C 	0.66253 0.21146 0.89661 -0.12600
H 	H 	0.65180 0.20540 0.92020 0.07500
C 	C 	0.63280 0.20515 0.83802 0.05200
C 	C 	0.64865 0.21571 0.80250 -0.13300
H 	H 	0.62910 0.21230 0.76240 0.06200
C 	C 	0.69421 0.23141 0.82860 0.04300
H 	H 	0.70500 0.23840 0.80560 -0.01800
C 	C 	0.58582 0.18709 0.81335 0.01800
C 	C 	0.57093 0.16291 0.76922 -0.09500
H 	H 	0.59070 0.15880 0.75570 0.05500
C 	C 	0.49879 0.15122 0.76705 -0.08800
H 	H 	0.46990 0.13900 0.75190 0.05200
C 	C 	0.52757 0.14499 0.74505 0.01700
C 	C 	0.55650 0.19297 0.83376 -0.08500
H 	H 	0.56630 0.20900 0.86310 0.04600
C 	C 	0.51106 0.11948 0.69764 0.04600
C 	C 	0.36086 0.03077 0.08970 0.02500
C 	C 	0.36794 0.03055 0.14439 -0.10000
H 	H 	0.37000 0.05110 0.16250 0.06000
C 	C 	0.48184 0.18231 0.83336 0.08500
C 	C 	0.48025 0.07289 0.60626 -0.13000
C 	C 	0.46415 0.04720 0.55790 0.39200
C 	C 	0.50118 0.19025 0.88976 -0.16800
H 	H 	0.53500 0.19110 0.91610 0.07900
C 	C 	0.37743 0.12306 0.06286 0.08400
H 	H 	0.39620 0.14180 0.08480 0.01200
C 	C 	0.38165 0.09341 0.08910 -0.14900
H 	H 	0.40340 0.09220 0.12940 0.08100
C 	C 	0.35545 0.06425 0.05981 0.06500
C 	C 	0.31703 0.09768 0.97170 0.07800
H 	H 	0.29410 0.09940 0.93170 -0.00500
O 	O 	0.49660 0.03310 0.55390 -0.38900
O 	O 	0.41830 0.04250 0.52400 -0.28000
C 	C 	0.54550 0.09940 0.69520 -0.08400
H 	H 	0.57860 0.10090 0.72500 0.05100
C 	C 	0.53060 0.07730 0.64850 0.01300
H 	H 	0.55360 0.06560 0.64540 0.02600
C 	C 	0.46200 0.11525 0.65090 -0.11700
H 	H 	0.43860 0.12930 0.64950 0.05800
C 	C 	0.44660 0.09133 0.60700 0.07900
H 	H 	0.41340 0.08820 0.57860 -0.00000
C 	C 	0.37722 0.99365 0.22992 0.02400
C 	C 	0.34708 0.97217 0.23658 -0.10500
H 	H 	0.32460 0.95820 0.20600 0.06200
C 	C 	0.35057 0.97165 0.28899 0.04300
H 	H 	0.33040 0.95730 0.29340 0.02300
C 	C 	0.38419 0.99260 0.33475 -0.11400
C 	C 	0.41433 0.01407 0.32809 0.03300
H 	H 	0.43680 0.02810 0.35870 0.03300
C 	C 	0.41085 0.01460 0.27568 -0.10800
H 	H 	0.43100 0.02900 0.27120 0.06600
C 	C 	0.34478 0.12613 0.00234 -0.16800
C 	C 	0.41990 0.19598 0.86990 -0.20400
C 	C 	0.33892 0.15878 0.97059 0.42200
C 	C 	0.47123 0.19703 0.90840 0.08900
H 	H 	0.48510 0.20250 0.94740 0.00500
C 	C 	0.43059 0.18106 0.79372 -0.17200
H 	H 	0.41640 0.17640 0.75450 0.07800
C 	C 	0.32270 0.06697 0.99903 -0.14600
H 	H 	0.30480 0.04800 0.97730 0.06900
C 	C 	0.40128 0.18721 0.81570 0.11400
H 	H 	0.36750 0.18490 0.79060 -0.01900
C 	C 	0.39210 0.20515 0.89820 0.49400
C 	C 	0.52840 0.88110 0.66360 -0.03900
C 	C 	0.51390 0.90440 0.62090 0.01000
C 	C 	0.47960 0.90570 0.69130 -0.01700
C 	C 	0.46120 0.92860 0.64310 -0.04700
H 	H 	0.55130 0.86470 0.66980 0.03400
H 	H 	0.52900 0.90420 0.60090 0.02500
H 	H 	0.47050 0.90780 0.71750 0.02700
H 	H 	0.43710 0.94440 0.63510 0.04400
O 	O 	0.48750 0.95580 0.53810 -0.07300
O 	O 	0.57510 0.96910 0.45390 -0.20700
Co	Co	0.86364 0.72943 0.96652 1.12400
Co	Co	0.77814 0.69013 0.84403 1.07600
O 	O 	0.85309 0.52059 0.39188 -0.34300
O 	O 	0.90574 0.71486 0.94090 -0.58700
O 	O 	0.86346 0.68457 0.00049 -0.47600
O 	O 	0.80944 0.65824 0.91705 -0.50400
O 	O 	0.84301 0.69956 0.85340 -0.49600
C 	C 	0.01255 0.67535 0.81123 -0.01800
O 	O 	0.30677 0.74708 0.97599 -0.42800
O 	O 	0.28675 0.76381 0.88946 -0.59600
C 	C 	0.27816 0.75327 0.92260 0.38100
C 	C 	0.22384 0.73677 0.88840 -0.13800
C 	C 	0.20871 0.72668 0.92230 0.04700
H 	H 	0.22870 0.72980 0.96250 0.02800
C 	C 	0.16253 0.71146 0.89661 -0.12900
H 	H 	0.15180 0.70540 0.92020 0.07600
C 	C 	0.13280 0.70515 0.83802 0.05700
C 	C 	0.14865 0.71571 0.80250 -0.13600
H 	H 	0.12910 0.71230 0.76240 0.06300
C 	C 	0.19421 0.73141 0.82860 0.04500
H 	H 	0.20500 0.73840 0.80560 -0.01900
C 	C 	0.08582 0.68709 0.81335 0.00900
C 	C 	0.07093 0.66291 0.76922 -0.08600
H 	H 	0.09070 0.65880 0.75570 0.05300
C 	C 	0.99879 0.65122 0.76705 -0.06700
H 	H 	0.96990 0.63900 0.75190 0.04600
C 	C 	0.02757 0.64499 0.74505 0.00600
C 	C 	0.05650 0.69297 0.83376 -0.07100
H 	H 	0.06630 0.70900 0.86310 0.04000
C 	C 	0.01106 0.61948 0.69764 0.04200
C 	C 	0.86086 0.53077 0.08970 0.02600
C 	C 	0.86794 0.53055 0.14439 -0.10300
H 	H 	0.87000 0.55110 0.16250 0.06200
C 	C 	0.98184 0.68231 0.83336 0.11300
C 	C 	0.98025 0.57289 0.60626 -0.11800
C 	C 	0.96415 0.54720 0.55790 0.39000
C 	C 	0.00118 0.69025 0.88976 -0.20000
H 	H 	0.03500 0.69110 0.91610 0.08900
C 	C 	0.87743 0.62306 0.06286 0.08400
H 	H 	0.89620 0.64180 0.08480 0.01300
C 	C 	0.88165 0.59341 0.08910 -0.14800
H 	H 	0.90340 0.59220 0.12940 0.08200
C 	C 	0.85545 0.56425 0.05981 0.06600
C 	C 	0.81703 0.59768 0.97170 0.07600
H 	H 	0.79410 0.59940 0.93170 -0.00400
O 	O 	0.99660 0.53310 0.55390 -0.37200
O 	O 	0.91830 0.54250 0.52400 -0.28000
C 	C 	0.04550 0.59940 0.69520 -0.08100
H 	H 	0.07860 0.60090 0.72500 0.05000
C 	C 	0.03060 0.57730 0.64850 0.01000
H 	H 	0.05360 0.56560 0.64540 0.02600
C 	C 	0.96200 0.61525 0.65090 -0.10000
H 	H 	0.93860 0.62930 0.64950 0.05300
C 	C 	0.94660 0.59133 0.60700 0.06000
H 	H 	0.91340 0.58820 0.57860 0.00700
C 	C 	0.87722 0.49365 0.22992 0.03000
C 	C 	0.84708 0.47217 0.23658 -0.09700
H 	H 	0.82460 0.45820 0.20600 0.05800
C 	C 	0.85057 0.47165 0.28899 0.02900
H 	H 	0.83040 0.45730 0.29340 0.02700
C 	C 	0.88419 0.49260 0.33475 -0.09100
C 	C 	0.91433 0.51407 0.32809 0.03400
H 	H 	0.93680 0.52810 0.35870 0.03600
C 	C 	0.91085 0.51460 0.27568 -0.06900
H 	H 	0.93100 0.52900 0.27120 0.05500
C 	C 	0.84478 0.62613 0.00234 -0.16500
C 	C 	0.91990 0.69598 0.86990 -0.21800
C 	C 	0.83892 0.65878 0.97059 0.42000
C 	C 	0.97123 0.69703 0.90840 0.11300
H 	H 	0.98510 0.70250 0.94740 -0.00200
C 	C 	0.93059 0.68106 0.79372 -0.19100
H 	H 	0.91640 0.67640 0.75450 0.08600
C 	C 	0.82270 0.56697 0.99903 -0.14600
H 	H 	0.80480 0.54800 0.97730 0.07000
C 	C 	0.90128 0.68721 0.81570 0.13100
H 	H 	0.86750 0.68490 0.79060 -0.02400
C 	C 	0.89210 0.70515 0.89820 0.49900
C 	C 	0.02840 0.38110 0.66360 -0.03600
C 	C 	0.01390 0.40440 0.62090 0.00200
C 	C 	0.97960 0.40570 0.69130 -0.02400
C 	C 	0.96120 0.42860 0.64310 -0.03800
H 	H 	0.05130 0.36470 0.66980 0.03200
H 	H 	0.02900 0.40420 0.60090 0.02600
H 	H 	0.97050 0.40780 0.71750 0.03000
H 	H 	0.93710 0.44440 0.63510 0.04000
O 	O 	0.98750 0.45580 0.53810 -0.05400
O 	O 	0.07510 0.46910 0.45390 -0.20900
Co	Co	0.36364 0.77057 0.96652 1.12400
Co	Co	0.27814 0.80987 0.84403 1.07600
O 	O 	0.35309 0.97941 0.39188 -0.33600
O 	O 	0.40574 0.78514 0.94090 -0.58600
O 	O 	0.36346 0.81543 0.00049 -0.47800
O 	O 	0.30944 0.84176 0.91705 -0.50400
O 	O 	0.34301 0.80044 0.85340 -0.49500
C 	C 	0.51255 0.82465 0.81123 0.00600
O 	O 	0.80677 0.75292 0.97599 -0.42800
O 	O 	0.78675 0.73619 0.88946 -0.59500
C 	C 	0.77816 0.74673 0.92260 0.38000
C 	C 	0.72384 0.76323 0.88840 -0.13700
C 	C 	0.70871 0.77332 0.92230 0.04500
H 	H 	0.72870 0.77020 0.96250 0.02900
C 	C 	0.66253 0.78854 0.89661 -0.12600
H 	H 	0.65180 0.79460 0.92020 0.07500
C 	C 	0.63280 0.79485 0.83802 0.05200
C 	C 	0.64865 0.78429 0.80250 -0.13200
H 	H 	0.62910 0.78770 0.76240 0.06200
C 	C 	0.69421 0.76859 0.82860 0.04300
H 	H 	0.70500 0.76160 0.80560 -0.01800
C 	C 	0.58582 0.81291 0.81335 0.01800
C 	C 	0.57093 0.83709 0.76922 -0.09500
H 	H 	0.59070 0.84120 0.75570 0.05600
C 	C 	0.49879 0.84878 0.76705 -0.08800
H 	H 	0.46990 0.86100 0.75190 0.05300
C 	C 	0.52757 0.85501 0.74505 0.01700
C 	C 	0.55650 0.80703 0.83376 -0.08500
H 	H 	0.56630 0.79100 0.86310 0.04600
C 	C 	0.51106 0.88052 0.69764 0.04600
C 	C 	0.36086 0.96923 0.08970 0.02900
C 	C 	0.36794 0.96945 0.14439 -0.09300
H 	H 	0.37000 0.94890 0.16250 0.05900
C 	C 	0.48184 0.81769 0.83336 0.08500
C 	C 	0.48025 0.92711 0.60626 -0.13000
C 	C 	0.46415 0.95280 0.55790 0.39600
C 	C 	0.50118 0.80975 0.88976 -0.16800
H 	H 	0.53500 0.80890 0.91610 0.07900
C 	C 	0.37743 0.87694 0.06286 0.08400
H 	H 	0.39620 0.85820 0.08480 0.01200
C 	C 	0.38165 0.90659 0.08910 -0.14800
H 	H 	0.40340 0.90780 0.12940 0.08200
C 	C 	0.35545 0.93575 0.05981 0.06500
C 	C 	0.31703 0.90232 0.97170 0.07800
H 	H 	0.29410 0.90060 0.93170 -0.00400
O 	O 	0.49660 0.96690 0.55390 -0.35400
O 	O 	0.41830 0.95750 0.52400 -0.28000
C 	C 	0.54550 0.90060 0.69520 -0.08200
H 	H 	0.57860 0.89910 0.72500 0.05100
C 	C 	0.53060 0.92270 0.64850 0.01400
H 	H 	0.55360 0.93440 0.64540 0.02500
C 	C 	0.46200 0.88475 0.65090 -0.11700
H 	H 	0.43860 0.87070 0.64950 0.05800
C 	C 	0.44660 0.90867 0.60700 0.07800
H 	H 	0.41340 0.91180 0.57860 0.00100
C 	C 	0.37722 0.00635 0.22992 0.04200
C 	C 	0.34708 0.02783 0.23658 -0.09100
H 	H 	0.32460 0.04180 0.20600 0.05500
C 	C 	0.35057 0.02835 0.28899 0.01600
H 	H 	0.33040 0.04270 0.29340 0.03100
C 	C 	0.38419 0.00740 0.33475 -0.06500
C 	C 	0.41433 0.98593 0.32809 0.03300
H 	H 	0.43680 0.97190 0.35870 0.03600
C 	C 	0.41085 0.98540 0.27568 -0.03300
H 	H 	0.43100 0.97100 0.27120 0.04300
C 	C 	0.34478 0.87387 0.00234 -0.16700
C 	C 	0.41990 0.80402 0.86990 -0.20400
C 	C 	0.33892 0.84122 0.97059 0.42200
C 	C 	0.47123 0.80297 0.90840 0.08900
H 	H 	0.48510 0.79750 0.94740 0.00500
C 	C 	0.43059 0.81894 0.79372 -0.17200
H 	H 	0.41640 0.82360 0.75450 0.07900
C 	C 	0.32270 0.93303 0.99903 -0.14500
H 	H 	0.30480 0.95200 0.97730 0.07200
C 	C 	0.40128 0.81279 0.81570 0.11400
H 	H 	0.36750 0.81510 0.79060 -0.01800
C 	C 	0.39210 0.79485 0.89820 0.49400
C 	C 	0.52840 0.11890 0.66360 -0.03700
C 	C 	0.51390 0.09560 0.62090 0.01000
C 	C 	0.47960 0.09430 0.69130 -0.01600
C 	C 	0.46120 0.07140 0.64310 -0.04900
H 	H 	0.55130 0.13530 0.66980 0.03300
H 	H 	0.52900 0.09580 0.60090 0.02400
H 	H 	0.47050 0.09220 0.71750 0.02500
H 	H 	0.43710 0.05560 0.63510 0.04200
O 	O 	0.48750 0.04420 0.53810 -0.04200
O 	O 	0.57510 0.03090 0.45390 -0.21000
Co	Co	0.86364 0.27057 0.96652 1.12400
Co	Co	0.77814 0.30987 0.84403 1.07600
O 	O 	0.85309 0.47941 0.39188 -0.34300
O 	O 	0.90574 0.28514 0.94090 -0.58700
O 	O 	0.86346 0.31543 0.00049 -0.47600
O 	O 	0.80944 0.34176 0.91705 -0.50400
O 	O 	0.84301 0.30044 0.85340 -0.49600
C 	C 	0.01255 0.32465 0.81123 -0.01800
O 	O 	0.30677 0.25292 0.97599 -0.42800
O 	O 	0.28675 0.23619 0.88946 -0.59600
C 	C 	0.27816 0.24673 0.92260 0.38000
C 	C 	0.22384 0.26323 0.88840 -0.13900
C 	C 	0.20871 0.27332 0.92230 0.04700
H 	H 	0.22870 0.27020 0.96250 0.02800
C 	C 	0.16253 0.28854 0.89661 -0.13000
H 	H 	0.15180 0.29460 0.92020 0.07600
C 	C 	0.13280 0.29485 0.83802 0.05700
C 	C 	0.14865 0.28429 0.80250 -0.13600
H 	H 	0.12910 0.28770 0.76240 0.06200
C 	C 	0.19421 0.26859 0.82860 0.04500
H 	H 	0.20500 0.26160 0.80560 -0.01900
C 	C 	0.08582 0.31291 0.81335 0.00900
C 	C 	0.07093 0.33709 0.76922 -0.08600
H 	H 	0.09070 0.34120 0.75570 0.05300
C 	C 	0.99879 0.34878 0.76705 -0.06700
H 	H 	0.96990 0.36100 0.75190 0.04600
C 	C 	0.02757 0.35501 0.74505 0.00600
C 	C 	0.05650 0.30703 0.83376 -0.07100
H 	H 	0.06630 0.29100 0.86310 0.04000
C 	C 	0.01106 0.38052 0.69764 0.04200
C 	C 	0.86086 0.46923 0.08970 0.02600
C 	C 	0.86794 0.46945 0.14439 -0.10300
H 	H 	0.87000 0.44890 0.16250 0.06200
C 	C 	0.98184 0.31769 0.83336 0.11300
C 	C 	0.98025 0.42711 0.60626 -0.11800
C 	C 	0.96415 0.45280 0.55790 0.39000
C 	C 	0.00118 0.30975 0.88976 -0.20000
H 	H 	0.03500 0.30890 0.91610 0.08900
C 	C 	0.87743 0.37694 0.06286 0.08300
H 	H 	0.89620 0.35820 0.08480 0.01300
C 	C 	0.88165 0.40659 0.08910 -0.14800
H 	H 	0.90340 0.40780 0.12940 0.08200
C 	C 	0.85545 0.43575 0.05981 0.06600
C 	C 	0.81703 0.40232 0.97170 0.07600
H 	H 	0.79410 0.40060 0.93170 -0.00400
O 	O 	0.99660 0.46690 0.55390 -0.37200
O 	O 	0.91830 0.45750 0.52400 -0.28000
C 	C 	0.04550 0.40060 0.69520 -0.08100
H 	H 	0.07860 0.39910 0.72500 0.05000
C 	C 	0.03060 0.42270 0.64850 0.01000
H 	H 	0.05360 0.43440 0.64540 0.02600
C 	C 	0.96200 0.38475 0.65090 -0.10000
H 	H 	0.93860 0.37070 0.64950 0.05300
C 	C 	0.94660 0.40867 0.60700 0.06000
H 	H 	0.91340 0.41180 0.57860 0.00700
C 	C 	0.87722 0.50635 0.22992 0.03000
C 	C 	0.84708 0.52783 0.23658 -0.09700
H 	H 	0.82460 0.54180 0.20600 0.05800
C 	C 	0.85057 0.52835 0.28899 0.02900
H 	H 	0.83040 0.54270 0.29340 0.02700
C 	C 	0.88419 0.50740 0.33475 -0.09100
C 	C 	0.91433 0.48593 0.32809 0.03400
H 	H 	0.93680 0.47190 0.35870 0.03600
C 	C 	0.91085 0.48540 0.27568 -0.06900
H 	H 	0.93100 0.47100 0.27120 0.05500
C 	C 	0.84478 0.37387 0.00234 -0.16500
C 	C 	0.91990 0.30402 0.86990 -0.21900
C 	C 	0.83892 0.34122 0.97059 0.42000
C 	C 	0.97123 0.30297 0.90840 0.11300
H 	H 	0.98510 0.29750 0.94740 -0.00300
C 	C 	0.93059 0.31894 0.79372 -0.19100
H 	H 	0.91640 0.32360 0.75450 0.08600
C 	C 	0.82270 0.43303 0.99903 -0.14600
H 	H 	0.80480 0.45200 0.97730 0.07000
C 	C 	0.90128 0.31279 0.81570 0.13100
H 	H 	0.86750 0.31510 0.79060 -0.02400
C 	C 	0.89210 0.29485 0.89820 0.49900
C 	C 	0.02840 0.61890 0.66360 -0.03600
C 	C 	0.01390 0.59560 0.62090 0.00200
C 	C 	0.97960 0.59430 0.69130 -0.02400
C 	C 	0.96120 0.57140 0.64310 -0.03800
H 	H 	0.05130 0.63530 0.66980 0.03200
H 	H 	0.02900 0.59580 0.60090 0.02600
H 	H 	0.97050 0.59220 0.71750 0.03000
H 	H 	0.93710 0.55560 0.63510 0.04000
O 	O 	0.98750 0.54420 0.53810 -0.05400
O 	O 	0.07510 0.53090 0.45390 -0.20900
Co	Co	0.63636 0.77057 0.03348 1.12400
Co	Co	0.72186 0.80987 0.15597 1.07700
O 	O 	0.64691 0.97941 0.60812 -0.33600
O 	O 	0.59426 0.78514 0.05910 -0.58500
O 	O 	0.63654 0.81543 0.99951 -0.47900
O 	O 	0.69056 0.84176 0.08295 -0.50400
O 	O 	0.65699 0.80044 0.14660 -0.49500
C 	C 	0.48745 0.82465 0.18877 0.00600
O 	O 	0.19323 0.75292 0.02401 -0.42800
O 	O 	0.21325 0.73619 0.11054 -0.59600
C 	C 	0.22184 0.74673 0.07740 0.38000
C 	C 	0.27616 0.76323 0.11160 -0.13700
C 	C 	0.29129 0.77332 0.07770 0.04500
H 	H 	0.27130 0.77020 0.03750 0.02900
C 	C 	0.33747 0.78854 0.10339 -0.12600
H 	H 	0.34820 0.79460 0.07980 0.07500
C 	C 	0.36720 0.79485 0.16198 0.05200
C 	C 	0.35135 0.78429 0.19750 -0.13300
H 	H 	0.37090 0.78770 0.23760 0.06200
C 	C 	0.30579 0.76859 0.17140 0.04300
H 	H 	0.29500 0.76160 0.19440 -0.01800
C 	C 	0.41418 0.81291 0.18665 0.01800
C 	C 	0.42907 0.83709 0.23078 -0.09500
H 	H 	0.40930 0.84120 0.24430 0.05600
C 	C 	0.50121 0.84878 0.23295 -0.08800
H 	H 	0.53010 0.86100 0.24810 0.05300
C 	C 	0.47243 0.85501 0.25495 0.01700
C 	C 	0.44350 0.80703 0.16624 -0.08500
H 	H 	0.43370 0.79100 0.13690 0.04600
C 	C 	0.48894 0.88052 0.30236 0.04600
C 	C 	0.63914 0.96923 0.91030 0.02900
C 	C 	0.63206 0.96945 0.85561 -0.09300
H 	H 	0.63000 0.94890 0.83750 0.05900
C 	C 	0.51816 0.81769 0.16664 0.08500
C 	C 	0.51975 0.92711 0.39374 -0.13000
C 	C 	0.53585 0.95280 0.44210 0.39600
C 	C 	0.49882 0.80975 0.11024 -0.16800
H 	H 	0.46500 0.80890 0.08390 0.07900
C 	C 	0.62257 0.87694 0.93714 0.08500
H 	H 	0.60380 0.85820 0.91520 0.01200
C 	C 	0.61835 0.90659 0.91090 -0.14900
H 	H 	0.59660 0.90780 0.87060 0.08200
C 	C 	0.64455 0.93575 0.94019 0.06500
C 	C 	0.68297 0.90232 0.02830 0.08000
H 	H 	0.70590 0.90060 0.06830 -0.00400
O 	O 	0.50340 0.96690 0.44610 -0.35400
O 	O 	0.58170 0.95750 0.47600 -0.28000
C 	C 	0.45450 0.90060 0.30480 -0.08200
H 	H 	0.42140 0.89910 0.27500 0.05100
C 	C 	0.46940 0.92270 0.35150 0.01400
H 	H 	0.44640 0.93440 0.35460 0.02500
C 	C 	0.53800 0.88475 0.34910 -0.11600
H 	H 	0.56140 0.87070 0.35050 0.05900
C 	C 	0.55340 0.90867 0.39300 0.07800
H 	H 	0.58660 0.91180 0.42140 0.00100
C 	C 	0.62278 0.00635 0.77008 0.04200
C 	C 	0.65292 0.02783 0.76342 -0.09100
H 	H 	0.67540 0.04180 0.79400 0.05500
C 	C 	0.64943 0.02835 0.71101 0.01600
H 	H 	0.66960 0.04270 0.70660 0.03100
C 	C 	0.61581 0.00740 0.66525 -0.06500
C 	C 	0.58567 0.98593 0.67191 0.03300
H 	H 	0.56320 0.97190 0.64130 0.03600
C 	C 	0.58915 0.98540 0.72432 -0.03300
H 	H 	0.56900 0.97100 0.72880 0.04300
C 	C 	0.65522 0.87387 0.99766 -0.16900
C 	C 	0.58010 0.80402 0.13010 -0.20300
C 	C 	0.66108 0.84122 0.02941 0.42300
C 	C 	0.52877 0.80297 0.09160 0.08900
H 	H 	0.51490 0.79750 0.05260 0.00500
C 	C 	0.56941 0.81894 0.20628 -0.17200
H 	H 	0.58360 0.82360 0.24550 0.07900
C 	C 	0.67730 0.93303 0.00097 -0.14500
H 	H 	0.69520 0.95200 0.02270 0.07200
C 	C 	0.59872 0.81279 0.18430 0.11400
H 	H 	0.63250 0.81510 0.20940 -0.01800
C 	C 	0.60790 0.79485 0.10180 0.49400
C 	C 	0.47160 0.11890 0.33640 -0.03700
C 	C 	0.48610 0.09560 0.37910 0.01000
C 	C 	0.52040 0.09430 0.30870 -0.01600
C 	C 	0.53880 0.07140 0.35690 -0.04900
H 	H 	0.44870 0.13530 0.33020 0.03300
H 	H 	0.47100 0.09580 0.39910 0.02400
H 	H 	0.52950 0.09220 0.28250 0.02500
H 	H 	0.56290 0.05560 0.36490 0.04200
O 	O 	0.51250 0.04420 0.46190 -0.04200
O 	O 	0.42490 0.03090 0.54610 -0.21000
Co	Co	0.13636 0.27057 0.03348 1.12300
Co	Co	0.22186 0.30987 0.15597 1.07600
O 	O 	0.14691 0.47941 0.60812 -0.34300
O 	O 	0.09426 0.28514 0.05910 -0.58400
O 	O 	0.13654 0.31543 0.99951 -0.47800
O 	O 	0.19056 0.34176 0.08295 -0.50500
O 	O 	0.15699 0.30044 0.14660 -0.49500
C 	C 	0.98745 0.32465 0.18877 0.03600
O 	O 	0.69323 0.25292 0.02401 -0.42800
O 	O 	0.71325 0.23619 0.11054 -0.59500
C 	C 	0.72184 0.24673 0.07740 0.37900
C 	C 	0.77616 0.26323 0.11160 -0.13400
C 	C 	0.79129 0.27332 0.07770 0.04200
H 	H 	0.77130 0.27020 0.03750 0.03000
C 	C 	0.83747 0.28854 0.10339 -0.12100
H 	H 	0.84820 0.29460 0.07980 0.07300
C 	C 	0.86720 0.29485 0.16198 0.04600
C 	C 	0.85135 0.28429 0.19750 -0.12800
H 	H 	0.87090 0.28770 0.23760 0.06000
C 	C 	0.80579 0.26859 0.17140 0.04000
H 	H 	0.79500 0.26160 0.19440 -0.01700
C 	C 	0.91418 0.31291 0.18665 0.03000
C 	C 	0.92907 0.33709 0.23078 -0.10600
H 	H 	0.90930 0.34120 0.24430 0.05900
C 	C 	0.00121 0.34878 0.23295 -0.11600
H 	H 	0.03010 0.36100 0.24810 0.06100
C 	C 	0.97243 0.35501 0.25495 0.03100
C 	C 	0.94350 0.30703 0.16624 -0.10300
H 	H 	0.93370 0.29100 0.13690 0.05300
C 	C 	0.98894 0.38052 0.30236 0.05000
C 	C 	0.13914 0.46923 0.91030 0.02500
C 	C 	0.13206 0.46945 0.85561 -0.10300
H 	H 	0.13000 0.44890 0.83750 0.06200
C 	C 	0.01816 0.31769 0.16664 0.04900
C 	C 	0.01975 0.42711 0.39374 -0.14400
C 	C 	0.03585 0.45280 0.44210 0.39800
C 	C 	0.99882 0.30975 0.11024 -0.12700
H 	H 	0.96500 0.30890 0.08390 0.06500
C 	C 	0.12257 0.37694 0.93714 0.08400
H 	H 	0.10380 0.35820 0.91520 0.01200
C 	C 	0.11835 0.40659 0.91090 -0.14900
H 	H 	0.09660 0.40780 0.87060 0.08100
C 	C 	0.14455 0.43575 0.94019 0.06500
C 	C 	0.18297 0.40232 0.02830 0.07800
H 	H 	0.20590 0.40060 0.06830 -0.00500
O 	O 	0.00340 0.46690 0.44610 -0.37400
O 	O 	0.08170 0.45750 0.47600 -0.28200
C 	C 	0.95450 0.40060 0.30480 -0.08500
H 	H 	0.92140 0.39910 0.27500 0.05100
C 	C 	0.96940 0.42270 0.35150 0.01700
H 	H 	0.94640 0.43440 0.35460 0.02500
C 	C 	0.03800 0.38475 0.34910 -0.13500
H 	H 	0.06140 0.37070 0.35050 0.06400
C 	C 	0.05340 0.40867 0.39300 0.09900
H 	H 	0.08660 0.41180 0.42140 -0.00700
C 	C 	0.12278 0.50635 0.77008 0.03100
C 	C 	0.15292 0.52783 0.76342 -0.09700
H 	H 	0.17540 0.54180 0.79400 0.05800
C 	C 	0.14943 0.52835 0.71101 0.03000
H 	H 	0.16960 0.54270 0.70660 0.02700
C 	C 	0.11581 0.50740 0.66525 -0.09200
C 	C 	0.08567 0.48593 0.67191 0.03400
H 	H 	0.06320 0.47190 0.64130 0.03300
C 	C 	0.08915 0.48540 0.72432 -0.06900
H 	H 	0.06900 0.47100 0.72880 0.05300
C 	C 	0.15522 0.37387 0.99766 -0.16800
C 	C 	0.08010 0.30402 0.13010 -0.18500
C 	C 	0.16108 0.34122 0.02941 0.42100
C 	C 	0.02877 0.30297 0.09160 0.05800
H 	H 	0.01490 0.29750 0.05260 0.01400
C 	C 	0.06941 0.31894 0.20628 -0.14800
H 	H 	0.08360 0.32360 0.24550 0.06900
C 	C 	0.17730 0.43303 0.00097 -0.14600
H 	H 	0.19520 0.45200 0.02270 0.07000
C 	C 	0.09872 0.31279 0.18430 0.09200
H 	H 	0.13250 0.31510 0.20940 -0.01100
C 	C 	0.10790 0.29485 0.10180 0.48700
C 	C 	0.97160 0.61890 0.33640 -0.04000
C 	C 	0.98610 0.59560 0.37910 0.01900
C 	C 	0.02040 0.59430 0.30870 -0.00800
C 	C 	0.03880 0.57140 0.35690 -0.05900
H 	H 	0.94870 0.63530 0.33020 0.03400
H 	H 	0.97100 0.59580 0.39910 0.02300
H 	H 	0.02950 0.59220 0.28250 0.02100
H 	H 	0.06290 0.55560 0.36490 0.04600
O 	O 	0.01250 0.54420 0.46190 -0.05900
O 	O 	0.92490 0.53090 0.54610 -0.20800
Co	Co	0.50000 -0.00000 0.50000 1.21400
Co	Co	-0.00000 0.50000 0.50000 1.21500
Co	Co	0.61522 -0.00000 0.52238 1.15700
O 	O 	0.57753 0.00000 0.56457 -0.59300
C 	C 	0.64260 -0.00000 0.93705 -0.10700
H 	H 	0.64730 -0.00000 0.97350 0.06000
C 	C 	0.61165 -0.00000 0.60950 0.54500
C 	C 	0.62814 -0.00000 0.82833 0.01700
Co	Co	0.11522 0.50000 0.52238 1.16000
O 	O 	0.07753 0.50000 0.56457 -0.59400
C 	C 	0.14260 0.50000 0.93705 -0.09900
H 	H 	0.14730 0.50000 0.97350 0.05900
C 	C 	0.11165 0.50000 0.60950 0.55300
C 	C 	0.12814 0.50000 0.82833 0.02900
Co	Co	0.38478 -0.00000 0.47762 1.15700
O 	O 	0.42247 0.00000 0.43543 -0.59400
C 	C 	0.35740 0.00000 0.06295 -0.10700
H 	H 	0.35270 -0.00000 0.02650 0.06000
C 	C 	0.38835 0.00000 0.39050 0.54500
C 	C 	0.37186 0.00000 0.17167 0.01700
Co	Co	0.88478 0.50000 0.47762 1.16000
O 	O 	0.92247 0.50000 0.43543 -0.59200
C 	C 	0.85740 0.50000 0.06295 -0.09900
H 	H 	0.85270 0.50000 0.02650 0.06000
C 	C 	0.88835 0.50000 0.39050 0.55200
C 	C 	0.87186 0.50000 0.17167 0.02900
