data_crystal

_cell_length_a 15.42370
_cell_length_b 25.42870
_cell_length_c 30.78700
_cell_angle_alpha 90.00000
_cell_angle_beta  90.00000
_cell_angle_gamma 90.00000

_symmetry_space_group_name_	'P 1'
_symmetry_space_group_name_H-M	'P 1'

loop_
_symmetry_equiv_pos_as_xyz
  x,y,z

loop_
_atom_site_label
_atom_site_type_symbol
_atom_site_fract_x
_atom_site_fract_y
_atom_site_fract_z
_atom_site_charge
O 	O 	0.38027 0.64080 0.68957 -0.26300
O 	O 	0.38754 0.70625 0.61231 -0.25500
N 	N 	0.38227 0.68044 0.71748 -0.05200
O 	O 	0.30568 0.82715 0.81561 -0.40700
C 	C 	0.37862 0.75942 0.77859 -0.07600
C 	C 	0.37422 0.80155 0.81288 0.38300
O 	O 	0.44057 0.80683 0.83595 -0.41600
N 	N 	0.39409 0.74127 0.58099 -0.08100
C 	C 	0.33314 0.76404 0.74014 -0.01900
H 	H 	0.30000 0.79390 0.73480 0.04800
C 	C 	0.33701 0.72416 0.70965 0.00000
H 	H 	0.30780 0.72780 0.68340 0.04800
C 	C 	0.36426 0.76856 0.50967 -0.18100
H 	H 	0.33870 0.76150 0.48290 0.09400
C 	C 	0.35863 0.73200 0.54194 0.08500
H 	H 	0.33000 0.70040 0.53690 0.01600
C 	C 	0.42906 0.67544 0.75394 0.00500
H 	H 	0.46180 0.64520 0.75850 0.04200
C 	C 	0.42895 0.71502 0.78472 -0.02200
H 	H 	0.46280 0.71180 0.80960 0.05100
C 	C 	0.44600 0.82350 0.55592 -0.17600
H 	H 	0.47770 0.85400 0.56120 0.09800
C 	C 	0.40689 0.81581 0.51557 0.14600
C 	C 	0.41154 0.85525 0.47929 -0.17400
H 	H 	0.41120 0.83660 0.45180 0.08300
H 	H 	0.46610 0.87400 0.48130 0.09400
C 	C 	0.43796 0.78634 0.58779 0.08700
H 	H 	0.46330 0.79230 0.61470 0.01400
O 	O 	0.38027 0.14080 0.18957 -0.26300
O 	O 	0.38754 0.20625 0.11231 -0.25500
N 	N 	0.38227 0.18044 0.21748 -0.05200
O 	O 	0.30568 0.32715 0.31561 -0.40700
C 	C 	0.37862 0.25942 0.27859 -0.07600
C 	C 	0.37422 0.30155 0.31288 0.38300
O 	O 	0.44057 0.30683 0.33595 -0.41600
N 	N 	0.39409 0.24127 0.08099 -0.08100
C 	C 	0.33314 0.26404 0.24014 -0.01900
H 	H 	0.30000 0.29390 0.23480 0.04800
C 	C 	0.33701 0.22416 0.20965 -0.00100
H 	H 	0.30780 0.22780 0.18340 0.04700
C 	C 	0.36426 0.26856 0.00967 -0.18200
H 	H 	0.33870 0.26150 0.98290 0.09300
C 	C 	0.35863 0.23200 0.04194 0.08400
H 	H 	0.33000 0.20040 0.03690 0.01500
C 	C 	0.42906 0.17544 0.25394 0.00400
H 	H 	0.46180 0.14520 0.25850 0.04100
C 	C 	0.42895 0.21502 0.28472 -0.02300
H 	H 	0.46280 0.21180 0.30960 0.05000
C 	C 	0.44600 0.32350 0.05592 -0.17700
H 	H 	0.47770 0.35400 0.06120 0.09700
C 	C 	0.40689 0.31581 0.01557 0.14500
C 	C 	0.41154 0.35525 0.97929 -0.17500
H 	H 	0.41120 0.33660 0.95180 0.08200
H 	H 	0.46610 0.37400 0.98130 0.09300
C 	C 	0.43796 0.28634 0.08779 0.08600
H 	H 	0.46330 0.29230 0.11470 0.01300
O 	O 	0.88027 0.64080 0.18957 -0.26400
O 	O 	0.88754 0.70625 0.11231 -0.25600
N 	N 	0.88227 0.68044 0.21748 -0.05300
O 	O 	0.80568 0.82715 0.31561 -0.40800
C 	C 	0.87862 0.75942 0.27859 -0.07600
C 	C 	0.87422 0.80155 0.31288 0.38200
O 	O 	0.94057 0.80683 0.33595 -0.41600
N 	N 	0.89409 0.74127 0.08099 -0.08300
C 	C 	0.83314 0.76404 0.24014 -0.02000
H 	H 	0.80000 0.79390 0.23480 0.04700
C 	C 	0.83701 0.72416 0.20965 -0.00100
H 	H 	0.80780 0.72780 0.18340 0.04700
C 	C 	0.86426 0.76856 0.00967 -0.18300
H 	H 	0.83870 0.76150 0.98290 0.09400
C 	C 	0.85863 0.73200 0.04194 0.08500
H 	H 	0.83000 0.70040 0.03690 0.01400
C 	C 	0.92906 0.67544 0.25394 0.00400
H 	H 	0.96180 0.64520 0.25850 0.04100
C 	C 	0.92895 0.71502 0.28472 -0.02300
H 	H 	0.96280 0.71180 0.30960 0.05000
C 	C 	0.94600 0.82350 0.05592 -0.17700
H 	H 	0.97770 0.85400 0.06120 0.09700
C 	C 	0.90689 0.81581 0.01557 0.14500
C 	C 	0.91154 0.85525 0.97929 -0.17500
H 	H 	0.91120 0.83660 0.95180 0.08300
H 	H 	0.96610 0.87400 0.98130 0.09400
C 	C 	0.93796 0.78634 0.08779 0.08700
H 	H 	0.96330 0.79230 0.11470 0.01300
O 	O 	0.88027 0.14080 0.68957 -0.26400
O 	O 	0.88754 0.20625 0.61231 -0.25600
N 	N 	0.88227 0.18044 0.71748 -0.05300
O 	O 	0.80568 0.32715 0.81561 -0.40800
C 	C 	0.87862 0.25942 0.77859 -0.07700
C 	C 	0.87422 0.30155 0.81288 0.38200
O 	O 	0.94057 0.30683 0.83595 -0.41700
N 	N 	0.89409 0.24127 0.58099 -0.08200
C 	C 	0.83314 0.26404 0.74014 -0.02000
H 	H 	0.80000 0.29390 0.73480 0.04700
C 	C 	0.83701 0.22416 0.70965 -0.00100
H 	H 	0.80780 0.22780 0.68340 0.04700
C 	C 	0.86426 0.26856 0.50967 -0.18200
H 	H 	0.83870 0.26150 0.48290 0.09300
C 	C 	0.85863 0.23200 0.54194 0.08400
H 	H 	0.83000 0.20040 0.53690 0.01500
C 	C 	0.92906 0.17544 0.75394 0.00400
H 	H 	0.96180 0.14520 0.75850 0.04100
C 	C 	0.92895 0.21502 0.78472 -0.02300
H 	H 	0.96280 0.21180 0.80960 0.05000
C 	C 	0.94600 0.32350 0.55592 -0.17700
H 	H 	0.97770 0.35400 0.56120 0.09700
C 	C 	0.90689 0.31581 0.51557 0.14500
C 	C 	0.91154 0.35525 0.47929 -0.17500
H 	H 	0.91120 0.33660 0.45180 0.08200
H 	H 	0.96610 0.37400 0.48130 0.09300
C 	C 	0.93796 0.28634 0.58779 0.08600
H 	H 	0.96330 0.29230 0.61470 0.01300
O 	O 	0.36973 0.10920 0.68957 -0.26400
O 	O 	0.36246 0.04375 0.61231 -0.25600
N 	N 	0.36773 0.06956 0.71748 -0.05300
O 	O 	0.44432 0.92285 0.81561 -0.40800
C 	C 	0.37138 0.99058 0.77859 -0.07700
C 	C 	0.37578 0.94845 0.81288 0.38300
O 	O 	0.30943 0.94317 0.83595 -0.41700
N 	N 	0.35591 0.00873 0.58099 -0.08200
C 	C 	0.41686 0.98596 0.74014 -0.02000
H 	H 	0.45000 0.95610 0.73480 0.04700
C 	C 	0.41299 0.02584 0.70965 -0.00100
H 	H 	0.44220 0.02220 0.68340 0.04700
C 	C 	0.38574 0.98144 0.50967 -0.18200
H 	H 	0.41130 0.98850 0.48290 0.09400
C 	C 	0.39137 0.01800 0.54194 0.08400
H 	H 	0.42000 0.04960 0.53690 0.01400
C 	C 	0.32094 0.07456 0.75394 0.00400
H 	H 	0.28820 0.10480 0.75850 0.04100
C 	C 	0.32105 0.03498 0.78472 -0.02300
H 	H 	0.28720 0.03820 0.80960 0.05000
C 	C 	0.30400 0.92650 0.55592 -0.17700
H 	H 	0.27230 0.89600 0.56120 0.09700
C 	C 	0.34311 0.93419 0.51557 0.14500
C 	C 	0.33846 0.89475 0.47929 -0.17500
H 	H 	0.33880 0.91340 0.45180 0.08200
H 	H 	0.28390 0.87600 0.48130 0.09300
C 	C 	0.31204 0.96366 0.58779 0.08600
H 	H 	0.28670 0.95770 0.61470 0.01300
O 	O 	0.36973 0.60920 0.18957 -0.26400
O 	O 	0.36246 0.54375 0.11231 -0.25600
N 	N 	0.36773 0.56956 0.21748 -0.05300
O 	O 	0.44432 0.42285 0.31561 -0.40800
C 	C 	0.37138 0.49058 0.27859 -0.07700
C 	C 	0.37578 0.44845 0.31288 0.38200
O 	O 	0.30943 0.44317 0.33595 -0.41700
N 	N 	0.35591 0.50873 0.08099 -0.08200
C 	C 	0.41686 0.48596 0.24014 -0.02000
H 	H 	0.45000 0.45610 0.23480 0.04700
C 	C 	0.41299 0.52584 0.20965 -0.00100
H 	H 	0.44220 0.52220 0.18340 0.04700
C 	C 	0.38574 0.48144 0.00967 -0.18200
H 	H 	0.41130 0.48850 0.98290 0.09300
C 	C 	0.39137 0.51800 0.04194 0.08400
H 	H 	0.42000 0.54960 0.03690 0.01500
C 	C 	0.32094 0.57456 0.25394 0.00400
H 	H 	0.28820 0.60480 0.25850 0.04100
C 	C 	0.32105 0.53498 0.28472 -0.02300
H 	H 	0.28720 0.53820 0.30960 0.05000
C 	C 	0.30400 0.42650 0.05592 -0.17700
H 	H 	0.27230 0.39600 0.06120 0.09700
C 	C 	0.34311 0.43419 0.01557 0.14500
C 	C 	0.33846 0.39475 0.97929 -0.17500
H 	H 	0.33880 0.41340 0.95180 0.08200
H 	H 	0.28390 0.37600 0.98130 0.09300
C 	C 	0.31204 0.46366 0.08779 0.08600
H 	H 	0.28670 0.45770 0.11470 0.01300
O 	O 	0.86973 0.10920 0.18957 -0.26400
O 	O 	0.86246 0.04375 0.11231 -0.25600
N 	N 	0.86773 0.06956 0.21748 -0.05300
O 	O 	0.94432 0.92285 0.31561 -0.40700
C 	C 	0.87138 0.99058 0.27859 -0.07600
C 	C 	0.87578 0.94845 0.31288 0.38200
O 	O 	0.80943 0.94317 0.33595 -0.41700
N 	N 	0.85591 0.00873 0.08099 -0.08300
C 	C 	0.91686 0.98596 0.24014 -0.01900
H 	H 	0.95000 0.95610 0.23480 0.04700
C 	C 	0.91299 0.02584 0.20965 -0.00300
H 	H 	0.94220 0.02220 0.18340 0.04700
C 	C 	0.88574 0.98144 0.00967 -0.18200
H 	H 	0.91130 0.98850 0.98290 0.09400
C 	C 	0.89137 0.01800 0.04194 0.08300
H 	H 	0.92000 0.04960 0.03690 0.01400
C 	C 	0.82094 0.07456 0.25394 0.00400
H 	H 	0.78820 0.10480 0.25850 0.04100
C 	C 	0.82105 0.03498 0.28472 -0.02400
H 	H 	0.78720 0.03820 0.30960 0.05000
C 	C 	0.80400 0.92650 0.05592 -0.17700
H 	H 	0.77230 0.89600 0.06120 0.09700
C 	C 	0.84311 0.93419 0.01557 0.14400
C 	C 	0.83846 0.89475 0.97929 -0.17400
H 	H 	0.83880 0.91340 0.95180 0.08200
H 	H 	0.78390 0.87600 0.98130 0.09300
C 	C 	0.81204 0.96366 0.08779 0.08700
H 	H 	0.78670 0.95770 0.11470 0.01300
O 	O 	0.86973 0.60920 0.68957 -0.26400
O 	O 	0.86246 0.54375 0.61231 -0.25600
N 	N 	0.86773 0.56956 0.71748 -0.05300
O 	O 	0.94432 0.42285 0.81561 -0.40800
C 	C 	0.87138 0.49058 0.77859 -0.07600
C 	C 	0.87578 0.44845 0.81288 0.38200
O 	O 	0.80943 0.44317 0.83595 -0.41700
N 	N 	0.85591 0.50873 0.58099 -0.08200
C 	C 	0.91686 0.48596 0.74014 -0.02000
H 	H 	0.95000 0.45610 0.73480 0.04700
C 	C 	0.91299 0.52584 0.70965 -0.00100
H 	H 	0.94220 0.52220 0.68340 0.04700
C 	C 	0.88574 0.48144 0.50967 -0.18200
H 	H 	0.91130 0.48850 0.48290 0.09400
C 	C 	0.89137 0.51800 0.54194 0.08400
H 	H 	0.92000 0.54960 0.53690 0.01500
C 	C 	0.82094 0.57456 0.75394 0.00400
H 	H 	0.78820 0.60480 0.75850 0.04100
C 	C 	0.82105 0.53498 0.78472 -0.02300
H 	H 	0.78720 0.53820 0.80960 0.05000
C 	C 	0.80400 0.42650 0.55592 -0.17700
H 	H 	0.77230 0.39600 0.56120 0.09700
C 	C 	0.84311 0.43419 0.51557 0.14500
C 	C 	0.83846 0.39475 0.47929 -0.17500
H 	H 	0.83880 0.41340 0.45180 0.08200
H 	H 	0.78390 0.37600 0.48130 0.09300
C 	C 	0.81204 0.46366 0.58779 0.08600
H 	H 	0.78670 0.45770 0.61470 0.01300
O 	O 	0.36973 0.64080 0.06043 -0.26400
O 	O 	0.36246 0.70625 0.13769 -0.25600
N 	N 	0.36773 0.68044 0.03252 -0.05300
O 	O 	0.44432 0.82715 0.93439 -0.40800
C 	C 	0.37138 0.75942 0.97141 -0.07700
C 	C 	0.37578 0.80155 0.93712 0.38200
O 	O 	0.30943 0.80683 0.91405 -0.41700
N 	N 	0.35591 0.74127 0.16901 -0.08200
C 	C 	0.41686 0.76404 0.00986 -0.02000
H 	H 	0.45000 0.79390 0.01520 0.04700
C 	C 	0.41299 0.72416 0.04035 -0.00100
H 	H 	0.44220 0.72780 0.06660 0.04700
C 	C 	0.38574 0.76856 0.24033 -0.18200
H 	H 	0.41130 0.76150 0.26710 0.09300
C 	C 	0.39137 0.73200 0.20806 0.08400
H 	H 	0.42000 0.70040 0.21310 0.01500
C 	C 	0.32094 0.67544 0.99606 0.00400
H 	H 	0.28820 0.64520 0.99150 0.04100
C 	C 	0.32105 0.71502 0.96528 -0.02300
H 	H 	0.28720 0.71180 0.94040 0.05000
C 	C 	0.30400 0.82350 0.19408 -0.17700
H 	H 	0.27230 0.85400 0.18880 0.09700
C 	C 	0.34311 0.81581 0.23443 0.14500
C 	C 	0.33846 0.85525 0.27071 -0.17500
H 	H 	0.33880 0.83660 0.29820 0.08200
H 	H 	0.28390 0.87400 0.26870 0.09300
C 	C 	0.31204 0.78634 0.16221 0.08600
H 	H 	0.28670 0.79230 0.13530 0.01300
O 	O 	0.36973 0.14080 0.56043 -0.26400
O 	O 	0.36246 0.20625 0.63769 -0.25600
N 	N 	0.36773 0.18044 0.53252 -0.05300
O 	O 	0.44432 0.32715 0.43439 -0.40800
C 	C 	0.37138 0.25942 0.47141 -0.07700
C 	C 	0.37578 0.30155 0.43712 0.38200
O 	O 	0.30943 0.30683 0.41405 -0.41700
N 	N 	0.35591 0.24127 0.66901 -0.08200
C 	C 	0.41686 0.26404 0.50986 -0.02000
H 	H 	0.45000 0.29390 0.51520 0.04700
C 	C 	0.41299 0.22416 0.54035 -0.00100
H 	H 	0.44220 0.22780 0.56660 0.04700
C 	C 	0.38574 0.26856 0.74033 -0.18200
H 	H 	0.41130 0.26150 0.76710 0.09300
C 	C 	0.39137 0.23200 0.70806 0.08400
H 	H 	0.42000 0.20040 0.71310 0.01500
C 	C 	0.32094 0.17544 0.49606 0.00400
H 	H 	0.28820 0.14520 0.49150 0.04100
C 	C 	0.32105 0.21502 0.46528 -0.02300
H 	H 	0.28720 0.21180 0.44040 0.05000
C 	C 	0.30400 0.32350 0.69408 -0.17700
H 	H 	0.27230 0.35400 0.68880 0.09700
C 	C 	0.34311 0.31581 0.73443 0.14500
C 	C 	0.33846 0.35525 0.77071 -0.17500
H 	H 	0.33880 0.33660 0.79820 0.08200
H 	H 	0.28390 0.37400 0.76870 0.09300
C 	C 	0.31204 0.28634 0.66221 0.08600
H 	H 	0.28670 0.29230 0.63530 0.01300
O 	O 	0.86973 0.64080 0.56043 -0.26400
O 	O 	0.86246 0.70625 0.63769 -0.25600
N 	N 	0.86773 0.68044 0.53252 -0.05300
O 	O 	0.94432 0.82715 0.43439 -0.40700
C 	C 	0.87138 0.75942 0.47141 -0.07600
C 	C 	0.87578 0.80155 0.43712 0.38200
O 	O 	0.80943 0.80683 0.41405 -0.41700
N 	N 	0.85591 0.74127 0.66901 -0.08200
C 	C 	0.91686 0.76404 0.50986 -0.02000
H 	H 	0.95000 0.79390 0.51520 0.04800
C 	C 	0.91299 0.72416 0.54035 -0.00100
H 	H 	0.94220 0.72780 0.56660 0.04700
C 	C 	0.88574 0.76856 0.74033 -0.18200
H 	H 	0.91130 0.76150 0.76710 0.09400
C 	C 	0.89137 0.73200 0.70806 0.08400
H 	H 	0.92000 0.70040 0.71310 0.01500
C 	C 	0.82094 0.67544 0.49606 0.00400
H 	H 	0.78820 0.64520 0.49150 0.04100
C 	C 	0.82105 0.71502 0.46528 -0.02300
H 	H 	0.78720 0.71180 0.44040 0.05000
C 	C 	0.80400 0.82350 0.69408 -0.17700
H 	H 	0.77230 0.85400 0.68880 0.09700
C 	C 	0.84311 0.81581 0.73443 0.14500
C 	C 	0.83846 0.85525 0.77071 -0.17500
H 	H 	0.83880 0.83660 0.79820 0.08200
H 	H 	0.78390 0.87400 0.76870 0.09300
C 	C 	0.81204 0.78634 0.66221 0.08600
H 	H 	0.78670 0.79230 0.63530 0.01300
O 	O 	0.86973 0.14080 0.06043 -0.26400
O 	O 	0.86246 0.20625 0.13769 -0.25600
N 	N 	0.86773 0.18044 0.03252 -0.05400
O 	O 	0.94432 0.32715 0.93439 -0.40800
C 	C 	0.87138 0.25942 0.97141 -0.07600
C 	C 	0.87578 0.30155 0.93712 0.38200
O 	O 	0.80943 0.30683 0.91405 -0.41700
N 	N 	0.85591 0.24127 0.16901 -0.08200
C 	C 	0.91686 0.26404 0.00986 -0.02100
H 	H 	0.95000 0.29390 0.01520 0.04700
C 	C 	0.91299 0.22416 0.04035 -0.00100
H 	H 	0.94220 0.22780 0.06660 0.04700
C 	C 	0.88574 0.26856 0.24033 -0.18200
H 	H 	0.91130 0.26150 0.26710 0.09300
C 	C 	0.89137 0.23200 0.20806 0.08400
H 	H 	0.92000 0.20040 0.21310 0.01400
C 	C 	0.82094 0.17544 0.99606 0.00400
H 	H 	0.78820 0.14520 0.99150 0.04100
C 	C 	0.82105 0.21502 0.96528 -0.02300
H 	H 	0.78720 0.21180 0.94040 0.05000
C 	C 	0.80400 0.32350 0.19408 -0.17700
H 	H 	0.77230 0.35400 0.18880 0.09700
C 	C 	0.84311 0.31581 0.23443 0.14500
C 	C 	0.83846 0.35525 0.27071 -0.17500
H 	H 	0.83880 0.33660 0.29820 0.08200
H 	H 	0.78390 0.37400 0.26870 0.09300
C 	C 	0.81204 0.28634 0.16221 0.08600
H 	H 	0.78670 0.29230 0.13530 0.01300
O 	O 	0.38027 0.10920 0.06043 -0.26400
O 	O 	0.38754 0.04375 0.13769 -0.25600
N 	N 	0.38227 0.06956 0.03252 -0.05300
O 	O 	0.30568 0.92285 0.93439 -0.40800
C 	C 	0.37862 0.99058 0.97141 -0.07700
C 	C 	0.37422 0.94845 0.93712 0.38200
O 	O 	0.44057 0.94317 0.91405 -0.41700
N 	N 	0.39409 0.00873 0.16901 -0.08300
C 	C 	0.33314 0.98596 0.00986 -0.02100
H 	H 	0.30000 0.95610 0.01520 0.04700
C 	C 	0.33701 0.02584 0.04035 -0.00100
H 	H 	0.30780 0.02220 0.06660 0.04700
C 	C 	0.36426 0.98144 0.24033 -0.18300
H 	H 	0.33870 0.98850 0.26710 0.09400
C 	C 	0.35863 0.01800 0.20806 0.08500
H 	H 	0.33000 0.04960 0.21310 0.01400
C 	C 	0.42906 0.07456 0.99606 0.00400
H 	H 	0.46180 0.10480 0.99150 0.04100
C 	C 	0.42895 0.03498 0.96528 -0.02300
H 	H 	0.46280 0.03820 0.94040 0.05000
C 	C 	0.44600 0.92650 0.19408 -0.17700
H 	H 	0.47770 0.89600 0.18880 0.09700
C 	C 	0.40689 0.93419 0.23443 0.14500
C 	C 	0.41154 0.89475 0.27071 -0.17500
H 	H 	0.41120 0.91340 0.29820 0.08200
H 	H 	0.46610 0.87600 0.26870 0.09300
C 	C 	0.43796 0.96366 0.16221 0.08600
H 	H 	0.46330 0.95770 0.13530 0.01300
O 	O 	0.38027 0.60920 0.56043 -0.26400
O 	O 	0.38754 0.54375 0.63769 -0.25600
N 	N 	0.38227 0.56956 0.53252 -0.05300
O 	O 	0.30568 0.42285 0.43439 -0.40800
C 	C 	0.37862 0.49058 0.47141 -0.07700
C 	C 	0.37422 0.44845 0.43712 0.38200
O 	O 	0.44057 0.44317 0.41405 -0.41700
N 	N 	0.39409 0.50873 0.66901 -0.08200
C 	C 	0.33314 0.48596 0.50986 -0.02000
H 	H 	0.30000 0.45610 0.51520 0.04700
C 	C 	0.33701 0.52584 0.54035 -0.00100
H 	H 	0.30780 0.52220 0.56660 0.04700
C 	C 	0.36426 0.48144 0.74033 -0.18200
H 	H 	0.33870 0.48850 0.76710 0.09300
C 	C 	0.35863 0.51800 0.70806 0.08400
H 	H 	0.33000 0.54960 0.71310 0.01500
C 	C 	0.42906 0.57456 0.49606 0.00400
H 	H 	0.46180 0.60480 0.49150 0.04100
C 	C 	0.42895 0.53498 0.46528 -0.02300
H 	H 	0.46280 0.53820 0.44040 0.05000
C 	C 	0.44600 0.42650 0.69408 -0.17700
H 	H 	0.47770 0.39600 0.68880 0.09700
C 	C 	0.40689 0.43419 0.73443 0.14500
C 	C 	0.41154 0.39475 0.77071 -0.17500
H 	H 	0.41120 0.41340 0.79820 0.08200
H 	H 	0.46610 0.37600 0.76870 0.09300
C 	C 	0.43796 0.46366 0.66221 0.08600
H 	H 	0.46330 0.45770 0.63530 0.01300
O 	O 	0.88027 0.10920 0.56043 -0.26400
O 	O 	0.88754 0.04375 0.63769 -0.25600
N 	N 	0.88227 0.06956 0.53252 -0.05300
O 	O 	0.80568 0.92285 0.43439 -0.40800
C 	C 	0.87862 0.99058 0.47141 -0.07600
C 	C 	0.87422 0.94845 0.43712 0.38200
O 	O 	0.94057 0.94317 0.41405 -0.41600
N 	N 	0.89409 0.00873 0.66901 -0.08300
C 	C 	0.83314 0.98596 0.50986 -0.02000
H 	H 	0.80000 0.95610 0.51520 0.04700
C 	C 	0.83701 0.02584 0.54035 -0.00200
H 	H 	0.80780 0.02220 0.56660 0.04700
C 	C 	0.86426 0.98144 0.74033 -0.18100
H 	H 	0.83870 0.98850 0.76710 0.09300
C 	C 	0.85863 0.01800 0.70806 0.08300
H 	H 	0.83000 0.04960 0.71310 0.01500
C 	C 	0.92906 0.07456 0.49606 0.00400
H 	H 	0.96180 0.10480 0.49150 0.04100
C 	C 	0.92895 0.03498 0.46528 -0.02400
H 	H 	0.96280 0.03820 0.44040 0.05000
C 	C 	0.94600 0.92650 0.69408 -0.17700
H 	H 	0.97770 0.89600 0.68880 0.09700
C 	C 	0.90689 0.93419 0.73443 0.14500
C 	C 	0.91154 0.89475 0.77071 -0.17500
H 	H 	0.91120 0.91340 0.79820 0.08200
H 	H 	0.96610 0.87600 0.76870 0.09300
C 	C 	0.93796 0.96366 0.66221 0.08700
H 	H 	0.96330 0.95770 0.63530 0.01300
O 	O 	0.88027 0.60920 0.06043 -0.26400
O 	O 	0.88754 0.54375 0.13769 -0.25600
N 	N 	0.88227 0.56956 0.03252 -0.05400
O 	O 	0.80568 0.42285 0.93439 -0.40800
C 	C 	0.87862 0.49058 0.97141 -0.07600
C 	C 	0.87422 0.44845 0.93712 0.38200
O 	O 	0.94057 0.44317 0.91405 -0.41700
N 	N 	0.89409 0.50873 0.16901 -0.08200
C 	C 	0.83314 0.48596 0.00986 -0.02100
H 	H 	0.80000 0.45610 0.01520 0.04800
C 	C 	0.83701 0.52584 0.04035 -0.00100
H 	H 	0.80780 0.52220 0.06660 0.04700
C 	C 	0.86426 0.48144 0.24033 -0.18200
H 	H 	0.83870 0.48850 0.26710 0.09300
C 	C 	0.85863 0.51800 0.20806 0.08400
H 	H 	0.83000 0.54960 0.21310 0.01500
C 	C 	0.92906 0.57456 0.99606 0.00500
H 	H 	0.96180 0.60480 0.99150 0.04100
C 	C 	0.92895 0.53498 0.96528 -0.02400
H 	H 	0.96280 0.53820 0.94040 0.05000
C 	C 	0.94600 0.42650 0.19408 -0.17700
H 	H 	0.97770 0.39600 0.18880 0.09700
C 	C 	0.90689 0.43419 0.23443 0.14500
C 	C 	0.91154 0.39475 0.27071 -0.17500
H 	H 	0.91120 0.41340 0.29820 0.08200
H 	H 	0.96610 0.37600 0.26870 0.09300
C 	C 	0.93796 0.46366 0.16221 0.08600
H 	H 	0.96330 0.45770 0.13530 0.01300
O 	O 	0.61973 0.35920 0.31043 -0.26400
O 	O 	0.61246 0.29375 0.38769 -0.25600
N 	N 	0.61773 0.31956 0.28252 -0.05300
O 	O 	0.69432 0.17285 0.18439 -0.40800
C 	C 	0.62138 0.24058 0.22141 -0.07700
C 	C 	0.62578 0.19845 0.18712 0.38200
O 	O 	0.55943 0.19317 0.16405 -0.41700
N 	N 	0.60591 0.25873 0.41901 -0.08200
C 	C 	0.66686 0.23596 0.25986 -0.02000
H 	H 	0.70000 0.20610 0.26520 0.04700
C 	C 	0.66299 0.27584 0.29035 -0.00100
H 	H 	0.69220 0.27220 0.31660 0.04700
C 	C 	0.63574 0.23144 0.49033 -0.18200
H 	H 	0.66130 0.23850 0.51710 0.09300
C 	C 	0.64137 0.26800 0.45806 0.08400
H 	H 	0.67000 0.29960 0.46310 0.01500
C 	C 	0.57094 0.32456 0.24606 0.00400
H 	H 	0.53820 0.35480 0.24150 0.04100
C 	C 	0.57105 0.28498 0.21528 -0.02300
H 	H 	0.53720 0.28820 0.19040 0.05000
C 	C 	0.55400 0.17650 0.44408 -0.17700
H 	H 	0.52230 0.14600 0.43880 0.09700
C 	C 	0.59311 0.18419 0.48443 0.14500
C 	C 	0.58846 0.14475 0.52071 -0.17500
H 	H 	0.58880 0.16340 0.54820 0.08200
H 	H 	0.53390 0.12600 0.51870 0.09300
C 	C 	0.56204 0.21366 0.41221 0.08600
H 	H 	0.53670 0.20770 0.38530 0.01300
O 	O 	0.61973 0.85920 0.81043 -0.26400
O 	O 	0.61246 0.79375 0.88769 -0.25600
N 	N 	0.61773 0.81956 0.78252 -0.05300
O 	O 	0.69432 0.67285 0.68439 -0.40800
C 	C 	0.62138 0.74058 0.72141 -0.07700
C 	C 	0.62578 0.69845 0.68712 0.38200
O 	O 	0.55943 0.69317 0.66405 -0.41700
N 	N 	0.60591 0.75873 0.91901 -0.08200
C 	C 	0.66686 0.73596 0.75986 -0.02000
H 	H 	0.70000 0.70610 0.76520 0.04700
C 	C 	0.66299 0.77584 0.79035 -0.00100
H 	H 	0.69220 0.77220 0.81660 0.04700
C 	C 	0.63574 0.73144 0.99033 -0.18200
H 	H 	0.66130 0.73850 0.01710 0.09300
C 	C 	0.64137 0.76800 0.95806 0.08400
H 	H 	0.67000 0.79960 0.96310 0.01500
C 	C 	0.57094 0.82456 0.74606 0.00400
H 	H 	0.53820 0.85480 0.74150 0.04100
C 	C 	0.57105 0.78498 0.71528 -0.02300
H 	H 	0.53720 0.78820 0.69040 0.05000
C 	C 	0.55400 0.67650 0.94408 -0.17700
H 	H 	0.52230 0.64600 0.93880 0.09700
C 	C 	0.59311 0.68419 0.98443 0.14500
C 	C 	0.58846 0.64475 0.02071 -0.17500
H 	H 	0.58880 0.66340 0.04820 0.08200
H 	H 	0.53390 0.62600 0.01870 0.09300
C 	C 	0.56204 0.71366 0.91221 0.08600
H 	H 	0.53670 0.70770 0.88530 0.01300
O 	O 	0.11973 0.35920 0.81043 -0.26400
O 	O 	0.11246 0.29375 0.88769 -0.25600
N 	N 	0.11773 0.31956 0.78252 -0.05300
O 	O 	0.19432 0.17285 0.68439 -0.40800
C 	C 	0.12138 0.24058 0.72141 -0.07600
C 	C 	0.12578 0.19845 0.68712 0.38200
O 	O 	0.05943 0.19317 0.66405 -0.41600
N 	N 	0.10591 0.25873 0.91901 -0.08300
C 	C 	0.16686 0.23596 0.75986 -0.02000
H 	H 	0.20000 0.20610 0.76520 0.04700
C 	C 	0.16299 0.27584 0.79035 -0.00100
H 	H 	0.19220 0.27220 0.81660 0.04700
C 	C 	0.13574 0.23144 0.99033 -0.18300
H 	H 	0.16130 0.23850 0.01710 0.09400
C 	C 	0.14137 0.26800 0.95806 0.08500
H 	H 	0.17000 0.29960 0.96310 0.01400
C 	C 	0.07094 0.32456 0.74606 0.00400
H 	H 	0.03820 0.35480 0.74150 0.04100
C 	C 	0.07105 0.28498 0.71528 -0.02300
H 	H 	0.03720 0.28820 0.69040 0.05000
C 	C 	0.05400 0.17650 0.94408 -0.17700
H 	H 	0.02230 0.14600 0.93880 0.09700
C 	C 	0.09311 0.18419 0.98443 0.14500
C 	C 	0.08846 0.14475 0.02071 -0.17500
H 	H 	0.08880 0.16340 0.04820 0.08300
H 	H 	0.03390 0.12600 0.01870 0.09400
C 	C 	0.06204 0.21366 0.91221 0.08700
H 	H 	0.03670 0.20770 0.88530 0.01300
O 	O 	0.11973 0.85920 0.31043 -0.26400
O 	O 	0.11246 0.79375 0.38769 -0.25600
N 	N 	0.11773 0.81956 0.28252 -0.05300
O 	O 	0.19432 0.67285 0.18439 -0.40800
C 	C 	0.12138 0.74058 0.22141 -0.07700
C 	C 	0.12578 0.69845 0.18712 0.38200
O 	O 	0.05943 0.69317 0.16405 -0.41700
N 	N 	0.10591 0.75873 0.41901 -0.08200
C 	C 	0.16686 0.73596 0.25986 -0.02000
H 	H 	0.20000 0.70610 0.26520 0.04700
C 	C 	0.16299 0.77584 0.29035 -0.00100
H 	H 	0.19220 0.77220 0.31660 0.04700
C 	C 	0.13574 0.73144 0.49033 -0.18200
H 	H 	0.16130 0.73850 0.51710 0.09300
C 	C 	0.14137 0.76800 0.45806 0.08400
H 	H 	0.17000 0.79960 0.46310 0.01500
C 	C 	0.07094 0.82456 0.24606 0.00400
H 	H 	0.03820 0.85480 0.24150 0.04100
C 	C 	0.07105 0.78498 0.21528 -0.02300
H 	H 	0.03720 0.78820 0.19040 0.05000
C 	C 	0.05400 0.67650 0.44408 -0.17700
H 	H 	0.02230 0.64600 0.43880 0.09700
C 	C 	0.09311 0.68419 0.48443 0.14500
C 	C 	0.08846 0.64475 0.52071 -0.17500
H 	H 	0.08880 0.66340 0.54820 0.08200
H 	H 	0.03390 0.62600 0.51870 0.09300
C 	C 	0.06204 0.71366 0.41221 0.08600
H 	H 	0.03670 0.70770 0.38530 0.01300
O 	O 	0.63027 0.89080 0.31043 -0.26400
O 	O 	0.63754 0.95625 0.38769 -0.25600
N 	N 	0.63227 0.93044 0.28252 -0.05300
O 	O 	0.55568 0.07715 0.18439 -0.40800
C 	C 	0.62862 0.00942 0.22141 -0.07700
C 	C 	0.62422 0.05155 0.18712 0.38300
O 	O 	0.69057 0.05683 0.16405 -0.41700
N 	N 	0.64409 0.99127 0.41901 -0.08200
C 	C 	0.58314 0.01404 0.25986 -0.02000
H 	H 	0.55000 0.04390 0.26520 0.04700
C 	C 	0.58701 0.97416 0.29035 -0.00100
H 	H 	0.55780 0.97780 0.31660 0.04700
C 	C 	0.61426 0.01856 0.49033 -0.18200
H 	H 	0.58870 0.01150 0.51710 0.09400
C 	C 	0.60863 0.98200 0.45806 0.08400
H 	H 	0.58000 0.95040 0.46310 0.01400
C 	C 	0.67906 0.92544 0.24606 0.00400
H 	H 	0.71180 0.89520 0.24150 0.04100
C 	C 	0.67895 0.96502 0.21528 -0.02300
H 	H 	0.71280 0.96180 0.19040 0.05000
C 	C 	0.69600 0.07350 0.44408 -0.17700
H 	H 	0.72770 0.10400 0.43880 0.09700
C 	C 	0.65689 0.06581 0.48443 0.14500
C 	C 	0.66154 0.10525 0.52071 -0.17500
H 	H 	0.66120 0.08660 0.54820 0.08200
H 	H 	0.71610 0.12400 0.51870 0.09300
C 	C 	0.68796 0.03634 0.41221 0.08600
H 	H 	0.71330 0.04230 0.38530 0.01300
O 	O 	0.63027 0.39080 0.81043 -0.26400
O 	O 	0.63754 0.45625 0.88769 -0.25600
N 	N 	0.63227 0.43044 0.78252 -0.05300
O 	O 	0.55568 0.57715 0.68439 -0.40800
C 	C 	0.62862 0.50942 0.72141 -0.07700
C 	C 	0.62422 0.55155 0.68712 0.38200
O 	O 	0.69057 0.55683 0.66405 -0.41700
N 	N 	0.64409 0.49127 0.91901 -0.08200
C 	C 	0.58314 0.51404 0.75986 -0.02000
H 	H 	0.55000 0.54390 0.76520 0.04700
C 	C 	0.58701 0.47416 0.79035 -0.00100
H 	H 	0.55780 0.47780 0.81660 0.04700
C 	C 	0.61426 0.51856 0.99033 -0.18200
H 	H 	0.58870 0.51150 0.01710 0.09300
C 	C 	0.60863 0.48200 0.95806 0.08400
H 	H 	0.58000 0.45040 0.96310 0.01500
C 	C 	0.67906 0.42544 0.74606 0.00400
H 	H 	0.71180 0.39520 0.74150 0.04100
C 	C 	0.67895 0.46502 0.71528 -0.02300
H 	H 	0.71280 0.46180 0.69040 0.05000
C 	C 	0.69600 0.57350 0.94408 -0.17700
H 	H 	0.72770 0.60400 0.93880 0.09700
C 	C 	0.65689 0.56581 0.98443 0.14500
C 	C 	0.66154 0.60525 0.02071 -0.17500
H 	H 	0.66120 0.58660 0.04820 0.08200
H 	H 	0.71610 0.62400 0.01870 0.09300
C 	C 	0.68796 0.53634 0.91221 0.08600
H 	H 	0.71330 0.54230 0.88530 0.01300
O 	O 	0.13027 0.89080 0.81043 -0.26400
O 	O 	0.13754 0.95625 0.88769 -0.25600
N 	N 	0.13227 0.93044 0.78252 -0.05300
O 	O 	0.05568 0.07715 0.68439 -0.40700
C 	C 	0.12862 0.00942 0.72141 -0.07600
C 	C 	0.12422 0.05155 0.68712 0.38200
O 	O 	0.19057 0.05683 0.66405 -0.41700
N 	N 	0.14409 0.99127 0.91901 -0.08300
C 	C 	0.08314 0.01404 0.75986 -0.01900
H 	H 	0.05000 0.04390 0.76520 0.04700
C 	C 	0.08701 0.97416 0.79035 -0.00300
H 	H 	0.05780 0.97780 0.81660 0.04700
C 	C 	0.11426 0.01856 0.99033 -0.18200
H 	H 	0.08870 0.01150 0.01710 0.09400
C 	C 	0.10863 0.98200 0.95806 0.08300
H 	H 	0.08000 0.95040 0.96310 0.01400
C 	C 	0.17906 0.92544 0.74606 0.00400
H 	H 	0.21180 0.89520 0.74150 0.04100
C 	C 	0.17895 0.96502 0.71528 -0.02400
H 	H 	0.21280 0.96180 0.69040 0.05000
C 	C 	0.19600 0.07350 0.94408 -0.17700
H 	H 	0.22770 0.10400 0.93880 0.09700
C 	C 	0.15689 0.06581 0.98443 0.14400
C 	C 	0.16154 0.10525 0.02071 -0.17400
H 	H 	0.16120 0.08660 0.04820 0.08200
H 	H 	0.21610 0.12400 0.01870 0.09300
C 	C 	0.18796 0.03634 0.91221 0.08700
H 	H 	0.21330 0.04230 0.88530 0.01300
O 	O 	0.13027 0.39080 0.31043 -0.26400
O 	O 	0.13754 0.45625 0.38769 -0.25600
N 	N 	0.13227 0.43044 0.28252 -0.05300
O 	O 	0.05568 0.57715 0.18439 -0.40800
C 	C 	0.12862 0.50942 0.22141 -0.07600
C 	C 	0.12422 0.55155 0.18712 0.38200
O 	O 	0.19057 0.55683 0.16405 -0.41700
N 	N 	0.14409 0.49127 0.41901 -0.08200
C 	C 	0.08314 0.51404 0.25986 -0.02000
H 	H 	0.05000 0.54390 0.26520 0.04700
C 	C 	0.08701 0.47416 0.29035 -0.00100
H 	H 	0.05780 0.47780 0.31660 0.04700
C 	C 	0.11426 0.51856 0.49033 -0.18200
H 	H 	0.08870 0.51150 0.51710 0.09400
C 	C 	0.10863 0.48200 0.45806 0.08400
H 	H 	0.08000 0.45040 0.46310 0.01500
C 	C 	0.17906 0.42544 0.24606 0.00400
H 	H 	0.21180 0.39520 0.24150 0.04100
C 	C 	0.17895 0.46502 0.21528 -0.02300
H 	H 	0.21280 0.46180 0.19040 0.05000
C 	C 	0.19600 0.57350 0.44408 -0.17700
H 	H 	0.22770 0.60400 0.43880 0.09700
C 	C 	0.15689 0.56581 0.48443 0.14500
C 	C 	0.16154 0.60525 0.52071 -0.17500
H 	H 	0.16120 0.58660 0.54820 0.08200
H 	H 	0.21610 0.62400 0.51870 0.09300
C 	C 	0.18796 0.53634 0.41221 0.08600
H 	H 	0.21330 0.54230 0.38530 0.01300
O 	O 	0.63027 0.35920 0.93957 -0.26400
O 	O 	0.63754 0.29375 0.86231 -0.25600
N 	N 	0.63227 0.31956 0.96748 -0.05300
O 	O 	0.55568 0.17285 0.06561 -0.40800
C 	C 	0.62862 0.24058 0.02859 -0.07700
C 	C 	0.62422 0.19845 0.06288 0.38200
O 	O 	0.69057 0.19317 0.08595 -0.41700
N 	N 	0.64409 0.25873 0.83099 -0.08200
C 	C 	0.58314 0.23596 0.99014 -0.02000
H 	H 	0.55000 0.20610 0.98480 0.04700
C 	C 	0.58701 0.27584 0.95965 -0.00100
H 	H 	0.55780 0.27220 0.93340 0.04700
C 	C 	0.61426 0.23144 0.75967 -0.18200
H 	H 	0.58870 0.23850 0.73290 0.09300
C 	C 	0.60863 0.26800 0.79194 0.08400
H 	H 	0.58000 0.29960 0.78690 0.01500
C 	C 	0.67906 0.32456 0.00394 0.00400
H 	H 	0.71180 0.35480 0.00850 0.04100
C 	C 	0.67895 0.28498 0.03472 -0.02300
H 	H 	0.71280 0.28820 0.05960 0.05000
C 	C 	0.69600 0.17650 0.80592 -0.17700
H 	H 	0.72770 0.14600 0.81120 0.09700
C 	C 	0.65689 0.18419 0.76557 0.14500
C 	C 	0.66154 0.14475 0.72929 -0.17500
H 	H 	0.66120 0.16340 0.70180 0.08200
H 	H 	0.71610 0.12600 0.73130 0.09300
C 	C 	0.68796 0.21366 0.83779 0.08600
H 	H 	0.71330 0.20770 0.86470 0.01300
O 	O 	0.63027 0.85920 0.43957 -0.26400
O 	O 	0.63754 0.79375 0.36231 -0.25600
N 	N 	0.63227 0.81956 0.46748 -0.05300
O 	O 	0.55568 0.67285 0.56561 -0.40800
C 	C 	0.62862 0.74058 0.52859 -0.07700
C 	C 	0.62422 0.69845 0.56288 0.38200
O 	O 	0.69057 0.69317 0.58595 -0.41700
N 	N 	0.64409 0.75873 0.33099 -0.08200
C 	C 	0.58314 0.73596 0.49014 -0.02000
H 	H 	0.55000 0.70610 0.48480 0.04700
C 	C 	0.58701 0.77584 0.45965 -0.00100
H 	H 	0.55780 0.77220 0.43340 0.04700
C 	C 	0.61426 0.73144 0.25967 -0.18200
H 	H 	0.58870 0.73850 0.23290 0.09300
C 	C 	0.60863 0.76800 0.29194 0.08400
H 	H 	0.58000 0.79960 0.28690 0.01500
C 	C 	0.67906 0.82456 0.50394 0.00400
H 	H 	0.71180 0.85480 0.50850 0.04100
C 	C 	0.67895 0.78498 0.53472 -0.02300
H 	H 	0.71280 0.78820 0.55960 0.05000
C 	C 	0.69600 0.67650 0.30592 -0.17700
H 	H 	0.72770 0.64600 0.31120 0.09700
C 	C 	0.65689 0.68419 0.26557 0.14500
C 	C 	0.66154 0.64475 0.22929 -0.17500
H 	H 	0.66120 0.66340 0.20180 0.08200
H 	H 	0.71610 0.62600 0.23130 0.09300
C 	C 	0.68796 0.71366 0.33779 0.08600
H 	H 	0.71330 0.70770 0.36470 0.01300
O 	O 	0.13027 0.35920 0.43957 -0.26400
O 	O 	0.13754 0.29375 0.36231 -0.25600
N 	N 	0.13227 0.31956 0.46748 -0.05300
O 	O 	0.05568 0.17285 0.56561 -0.40700
C 	C 	0.12862 0.24058 0.52859 -0.07600
C 	C 	0.12422 0.19845 0.56288 0.38200
O 	O 	0.19057 0.19317 0.58595 -0.41700
N 	N 	0.14409 0.25873 0.33099 -0.08200
C 	C 	0.08314 0.23596 0.49014 -0.02000
H 	H 	0.05000 0.20610 0.48480 0.04800
C 	C 	0.08701 0.27584 0.45965 -0.00100
H 	H 	0.05780 0.27220 0.43340 0.04700
C 	C 	0.11426 0.23144 0.25967 -0.18200
H 	H 	0.08870 0.23850 0.23290 0.09400
C 	C 	0.10863 0.26800 0.29194 0.08400
H 	H 	0.08000 0.29960 0.28690 0.01500
C 	C 	0.17906 0.32456 0.50394 0.00400
H 	H 	0.21180 0.35480 0.50850 0.04100
C 	C 	0.17895 0.28498 0.53472 -0.02300
H 	H 	0.21280 0.28820 0.55960 0.05000
C 	C 	0.19600 0.17650 0.30592 -0.17700
H 	H 	0.22770 0.14600 0.31120 0.09700
C 	C 	0.15689 0.18419 0.26557 0.14500
C 	C 	0.16154 0.14475 0.22929 -0.17500
H 	H 	0.16120 0.16340 0.20180 0.08200
H 	H 	0.21610 0.12600 0.23130 0.09300
C 	C 	0.18796 0.21366 0.33779 0.08600
H 	H 	0.21330 0.20770 0.36470 0.01300
O 	O 	0.13027 0.85920 0.93957 -0.26400
O 	O 	0.13754 0.79375 0.86231 -0.25600
N 	N 	0.13227 0.81956 0.96748 -0.05400
O 	O 	0.05568 0.67285 0.06561 -0.40800
C 	C 	0.12862 0.74058 0.02859 -0.07600
C 	C 	0.12422 0.69845 0.06288 0.38200
O 	O 	0.19057 0.69317 0.08595 -0.41700
N 	N 	0.14409 0.75873 0.83099 -0.08200
C 	C 	0.08314 0.73596 0.99014 -0.02100
H 	H 	0.05000 0.70610 0.98480 0.04700
C 	C 	0.08701 0.77584 0.95965 -0.00100
H 	H 	0.05780 0.77220 0.93340 0.04700
C 	C 	0.11426 0.73144 0.75967 -0.18200
H 	H 	0.08870 0.73850 0.73290 0.09300
C 	C 	0.10863 0.76800 0.79194 0.08400
H 	H 	0.08000 0.79960 0.78690 0.01400
C 	C 	0.17906 0.82456 0.00394 0.00400
H 	H 	0.21180 0.85480 0.00850 0.04100
C 	C 	0.17895 0.78498 0.03472 -0.02300
H 	H 	0.21280 0.78820 0.05960 0.05000
C 	C 	0.19600 0.67650 0.80592 -0.17700
H 	H 	0.22770 0.64600 0.81120 0.09700
C 	C 	0.15689 0.68419 0.76557 0.14500
C 	C 	0.16154 0.64475 0.72929 -0.17500
H 	H 	0.16120 0.66340 0.70180 0.08200
H 	H 	0.21610 0.62600 0.73130 0.09300
C 	C 	0.18796 0.71366 0.83779 0.08600
H 	H 	0.21330 0.70770 0.86470 0.01300
O 	O 	0.61973 0.89080 0.93957 -0.26400
O 	O 	0.61246 0.95625 0.86231 -0.25600
N 	N 	0.61773 0.93044 0.96748 -0.05300
O 	O 	0.69432 0.07715 0.06561 -0.40800
C 	C 	0.62138 0.00942 0.02859 -0.07700
C 	C 	0.62578 0.05155 0.06288 0.38200
O 	O 	0.55943 0.05683 0.08595 -0.41700
N 	N 	0.60591 0.99127 0.83099 -0.08300
C 	C 	0.66686 0.01404 0.99014 -0.02100
H 	H 	0.70000 0.04390 0.98480 0.04700
C 	C 	0.66299 0.97416 0.95965 -0.00100
H 	H 	0.69220 0.97780 0.93340 0.04700
C 	C 	0.63574 0.01856 0.75967 -0.18300
H 	H 	0.66130 0.01150 0.73290 0.09400
C 	C 	0.64137 0.98200 0.79194 0.08500
H 	H 	0.67000 0.95040 0.78690 0.01400
C 	C 	0.57094 0.92544 0.00394 0.00400
H 	H 	0.53820 0.89520 0.00850 0.04100
C 	C 	0.57105 0.96502 0.03472 -0.02300
H 	H 	0.53720 0.96180 0.05960 0.05000
C 	C 	0.55400 0.07350 0.80592 -0.17700
H 	H 	0.52230 0.10400 0.81120 0.09700
C 	C 	0.59311 0.06581 0.76557 0.14500
C 	C 	0.58846 0.10525 0.72929 -0.17500
H 	H 	0.58880 0.08660 0.70180 0.08200
H 	H 	0.53390 0.12400 0.73130 0.09300
C 	C 	0.56204 0.03634 0.83779 0.08600
H 	H 	0.53670 0.04230 0.86470 0.01300
O 	O 	0.61973 0.39080 0.43957 -0.26400
O 	O 	0.61246 0.45625 0.36231 -0.25600
N 	N 	0.61773 0.43044 0.46748 -0.05300
O 	O 	0.69432 0.57715 0.56561 -0.40800
C 	C 	0.62138 0.50942 0.52859 -0.07700
C 	C 	0.62578 0.55155 0.56288 0.38200
O 	O 	0.55943 0.55683 0.58595 -0.41700
N 	N 	0.60591 0.49127 0.33099 -0.08200
C 	C 	0.66686 0.51404 0.49014 -0.02000
H 	H 	0.70000 0.54390 0.48480 0.04700
C 	C 	0.66299 0.47416 0.45965 -0.00100
H 	H 	0.69220 0.47780 0.43340 0.04700
C 	C 	0.63574 0.51856 0.25967 -0.18200
H 	H 	0.66130 0.51150 0.23290 0.09300
C 	C 	0.64137 0.48200 0.29194 0.08400
H 	H 	0.67000 0.45040 0.28690 0.01500
C 	C 	0.57094 0.42544 0.50394 0.00400
H 	H 	0.53820 0.39520 0.50850 0.04100
C 	C 	0.57105 0.46502 0.53472 -0.02300
H 	H 	0.53720 0.46180 0.55960 0.05000
C 	C 	0.55400 0.57350 0.30592 -0.17700
H 	H 	0.52230 0.60400 0.31120 0.09700
C 	C 	0.59311 0.56581 0.26557 0.14500
C 	C 	0.58846 0.60525 0.22929 -0.17500
H 	H 	0.58880 0.58660 0.20180 0.08200
H 	H 	0.53390 0.62400 0.23130 0.09300
C 	C 	0.56204 0.53634 0.33779 0.08600
H 	H 	0.53670 0.54230 0.36470 0.01300
O 	O 	0.11973 0.89080 0.43957 -0.26400
O 	O 	0.11246 0.95625 0.36231 -0.25600
N 	N 	0.11773 0.93044 0.46748 -0.05300
O 	O 	0.19432 0.07715 0.56561 -0.40800
C 	C 	0.12138 0.00942 0.52859 -0.07600
C 	C 	0.12578 0.05155 0.56288 0.38200
O 	O 	0.05943 0.05683 0.58595 -0.41600
N 	N 	0.10591 0.99127 0.33099 -0.08300
C 	C 	0.16686 0.01404 0.49014 -0.02000
H 	H 	0.20000 0.04390 0.48480 0.04700
C 	C 	0.16299 0.97416 0.45965 -0.00200
H 	H 	0.19220 0.97780 0.43340 0.04700
C 	C 	0.13574 0.01856 0.25967 -0.18100
H 	H 	0.16130 0.01150 0.23290 0.09300
C 	C 	0.14137 0.98200 0.29194 0.08300
H 	H 	0.17000 0.95040 0.28690 0.01500
C 	C 	0.07094 0.92544 0.50394 0.00400
H 	H 	0.03820 0.89520 0.50850 0.04100
C 	C 	0.07105 0.96502 0.53472 -0.02400
H 	H 	0.03720 0.96180 0.55960 0.05000
C 	C 	0.05400 0.07350 0.30592 -0.17700
H 	H 	0.02230 0.10400 0.31120 0.09700
C 	C 	0.09311 0.06581 0.26557 0.14500
C 	C 	0.08846 0.10525 0.22929 -0.17500
H 	H 	0.08880 0.08660 0.20180 0.08200
H 	H 	0.03390 0.12400 0.23130 0.09300
C 	C 	0.06204 0.03634 0.33779 0.08700
H 	H 	0.03670 0.04230 0.36470 0.01300
O 	O 	0.11973 0.39080 0.93957 -0.26400
O 	O 	0.11246 0.45625 0.86231 -0.25600
N 	N 	0.11773 0.43044 0.96748 -0.05400
O 	O 	0.19432 0.57715 0.06561 -0.40800
C 	C 	0.12138 0.50942 0.02859 -0.07600
C 	C 	0.12578 0.55155 0.06288 0.38200
O 	O 	0.05943 0.55683 0.08595 -0.41700
N 	N 	0.10591 0.49127 0.83099 -0.08200
C 	C 	0.16686 0.51404 0.99014 -0.02100
H 	H 	0.20000 0.54390 0.98480 0.04800
C 	C 	0.16299 0.47416 0.95965 -0.00100
H 	H 	0.19220 0.47780 0.93340 0.04700
C 	C 	0.13574 0.51856 0.75967 -0.18200
H 	H 	0.16130 0.51150 0.73290 0.09300
C 	C 	0.14137 0.48200 0.79194 0.08400
H 	H 	0.17000 0.45040 0.78690 0.01500
C 	C 	0.07094 0.42544 0.00394 0.00500
H 	H 	0.03820 0.39520 0.00850 0.04100
C 	C 	0.07105 0.46502 0.03472 -0.02400
H 	H 	0.03720 0.46180 0.05960 0.05000
C 	C 	0.05400 0.57350 0.80592 -0.17700
H 	H 	0.02230 0.60400 0.81120 0.09700
C 	C 	0.09311 0.56581 0.76557 0.14500
C 	C 	0.08846 0.60525 0.72929 -0.17500
H 	H 	0.08880 0.58660 0.70180 0.08200
H 	H 	0.03390 0.62400 0.73130 0.09300
C 	C 	0.06204 0.53634 0.83779 0.08600
H 	H 	0.03670 0.54230 0.86470 0.01300
La	La	0.47466 0.62500 0.62500 1.70900
La	La	0.97466 0.62500 0.12500 1.70900
La	La	0.27534 0.12500 0.62500 1.70900
La	La	0.77534 0.12500 0.12500 1.70900
La	La	0.77534 0.62500 0.62500 1.70900
La	La	0.27534 0.62500 0.12500 1.70900
La	La	0.47466 0.12500 0.12500 1.70900
La	La	0.97466 0.12500 0.62500 1.70800
La	La	0.52534 0.37500 0.37500 1.70900
La	La	0.02534 0.37500 0.87500 1.70900
La	La	0.72466 0.87500 0.37500 1.70900
La	La	0.22466 0.87500 0.87500 1.70900
La	La	0.72466 0.37500 0.87500 1.70900
La	La	0.22466 0.37500 0.37500 1.70900
La	La	0.52534 0.87500 0.87500 1.70900
La	La	0.02534 0.87500 0.37500 1.70800
