data_crystal

_cell_length_a 28.93520
_cell_length_b 28.93520
_cell_length_c 33.18400
_cell_angle_alpha 86.15110
_cell_angle_beta  86.15110
_cell_angle_gamma 76.69370

_symmetry_space_group_name_	'P 1'
_symmetry_space_group_name_H-M	'P 1'

loop_
_symmetry_equiv_pos_as_xyz
  x,y,z

loop_
_atom_site_label
_atom_site_type_symbol
_atom_site_fract_x
_atom_site_fract_y
_atom_site_fract_z
_atom_site_charge
Co	Co	0.24041 0.17396 0.85564 1.11800
Co	Co	0.72810 0.79397 0.40745 1.11300
Co	Co	0.24496 0.05420 0.86908 1.08100
Co	Co	0.25832 0.71163 0.14661 1.11600
Co	Co	0.69674 0.68879 0.39317 1.08200
Co	Co	0.82604 0.75959 0.64436 1.11800
Co	Co	0.20603 0.27190 0.09255 1.11300
Co	Co	0.94580 0.75504 0.63092 1.08100
Co	Co	0.28837 0.74168 0.35339 1.11600
Co	Co	0.31121 0.30326 0.10683 1.08200
Co	Co	0.75959 0.82604 0.14436 1.11800
Co	Co	0.27190 0.20603 0.59255 1.11300
Co	Co	0.75504 0.94580 0.13092 1.08100
Co	Co	0.74168 0.28837 0.85339 1.11600
Co	Co	0.30326 0.31121 0.60683 1.08300
Co	Co	0.17396 0.24041 0.35564 1.11900
Co	Co	0.79397 0.72810 0.90745 1.11400
Co	Co	0.05420 0.24496 0.36908 1.08200
Co	Co	0.71163 0.25832 0.64661 1.11700
Co	Co	0.68879 0.69674 0.89317 1.08300
Co	Co	0.26941 0.73059 0.25000 1.20400
Co	Co	0.73059 0.26941 0.75000 1.20400
H 	H 	0.20210 0.85690 0.11650 0.01600
H 	H 	0.25330 0.88030 0.22210 0.03300
H 	H 	0.23590 0.96230 0.20420 0.06500
H 	H 	0.18490 0.93770 0.10010 0.05900
H 	H 	0.21130 0.00590 0.07940 0.05400
H 	H 	0.16730 0.13970 0.11490 0.04700
H 	H 	0.17690 0.03090 0.19730 0.05900
H 	H 	0.18750 0.17310 0.17180 0.08100
H 	H 	0.11000 0.08760 0.22570 0.07300
H 	H 	0.16950 0.22210 0.22500 0.02000
H 	H 	0.09230 0.13490 0.28010 -0.00300
H 	H 	0.17880 0.04280 0.02220 0.06500
H 	H 	0.19030 0.06870 0.95480 -0.03900
H 	H 	0.21820 0.15320 0.06190 0.07500
H 	H 	0.22920 0.18140 0.99490 0.01500
H 	H 	0.10470 0.69830 0.19350 0.02300
H 	H 	0.05150 0.66830 0.23880 0.06300
H 	H 	0.21070 0.64430 0.26620 0.02900
H 	H 	0.15890 0.60730 0.30810 0.07100
H 	H 	0.11350 0.54470 0.30590 0.06400
H 	H 	0.01300 0.66600 0.30790 0.06100
H 	H 	0.13350 0.47730 0.35200 0.08200
H 	H 	0.00070 0.47170 0.33310 0.07000
H 	H 	0.15450 0.39570 0.36050 0.01600
H 	H 	0.02150 0.38970 0.34110 -0.00200
H 	H 	0.98650 0.54510 0.36220 0.05700
H 	H 	0.91110 0.57870 0.34830 0.06900
H 	H 	0.95450 0.70030 0.35430 0.08200
H 	H 	0.87910 0.73830 0.37270 0.01000
H 	H 	0.83530 0.61790 0.36830 -0.00800
H 	H 	0.39500 0.75160 0.11610 0.01500
H 	H 	0.47250 0.76010 0.10940 0.06200
H 	H 	0.49380 0.71080 0.22470 0.05700
H 	H 	0.55580 0.72980 0.10350 0.05800
H 	H 	0.61120 0.68860 0.06430 0.05600
H 	H 	0.69250 0.77190 0.09670 0.06100
H 	H 	0.73770 0.75750 0.03630 0.03400
H 	H 	0.65260 0.67780 0.00140 0.00100
H 	H 	0.54120 0.76260 0.21940 0.05900
H 	H 	0.66690 0.75210 0.15740 0.04400
H 	H 	0.67070 0.81130 0.20780 0.07700
H 	H 	0.70250 0.82310 0.26630 0.01400
H 	H 	0.62780 0.74120 0.32840 -0.05100
H 	H 	0.59400 0.72880 0.27140 0.07100
H 	H 	0.41550 0.70390 0.23220 0.02100
H 	H 	0.14310 0.79790 0.38350 0.01600
H 	H 	0.11970 0.74670 0.27790 0.03300
H 	H 	0.03770 0.76410 0.29580 0.06500
H 	H 	0.06230 0.81510 0.39990 0.05900
H 	H 	0.99410 0.78870 0.42060 0.05400
H 	H 	0.86030 0.83270 0.38510 0.04700
H 	H 	0.96910 0.82310 0.30270 0.05900
H 	H 	0.82690 0.81250 0.32820 0.08100
H 	H 	0.91240 0.89000 0.27430 0.07300
H 	H 	0.77790 0.83050 0.27500 0.02000
H 	H 	0.86510 0.90770 0.21990 -0.00300
H 	H 	0.95720 0.82120 0.47780 0.06500
H 	H 	0.93130 0.80970 0.54520 -0.03900
H 	H 	0.84680 0.78180 0.43810 0.07500
H 	H 	0.81860 0.77080 0.50510 0.01500
H 	H 	0.30170 0.89530 0.30650 0.02300
H 	H 	0.33170 0.94850 0.26120 0.06300
H 	H 	0.35570 0.78930 0.23380 0.02900
H 	H 	0.39270 0.84110 0.19190 0.07100
H 	H 	0.45530 0.88650 0.19410 0.06400
H 	H 	0.33400 0.98700 0.19210 0.06100
H 	H 	0.52270 0.86650 0.14800 0.08200
H 	H 	0.52830 0.99930 0.16690 0.07000
H 	H 	0.60430 0.84550 0.13950 0.01600
H 	H 	0.61030 0.97850 0.15890 -0.00200
H 	H 	0.45490 0.01350 0.13780 0.05700
H 	H 	0.42130 0.08890 0.15170 0.06900
H 	H 	0.29970 0.04550 0.14570 0.08200
H 	H 	0.26170 0.12090 0.12730 0.01100
H 	H 	0.38210 0.16470 0.13170 -0.00800
H 	H 	0.24840 0.60500 0.38390 0.01500
H 	H 	0.23990 0.52750 0.39060 0.06200
H 	H 	0.28920 0.50620 0.27530 0.05700
H 	H 	0.27020 0.44420 0.39650 0.05800
H 	H 	0.31140 0.38880 0.43570 0.05600
H 	H 	0.22810 0.30750 0.40330 0.06100
H 	H 	0.24250 0.26230 0.46370 0.03400
H 	H 	0.32220 0.34740 0.49860 0.00100
H 	H 	0.23740 0.45880 0.28060 0.05900
H 	H 	0.24790 0.33310 0.34260 0.04400
H 	H 	0.18870 0.32930 0.29220 0.07700
H 	H 	0.17690 0.29750 0.23370 0.01400
H 	H 	0.25880 0.37220 0.17160 -0.05100
H 	H 	0.27120 0.40600 0.22860 0.07100
H 	H 	0.29610 0.58450 0.26780 0.02100
H 	H 	0.79790 0.14310 0.88350 0.01600
H 	H 	0.74670 0.11970 0.77790 0.03300
H 	H 	0.76410 0.03770 0.79580 0.06500
H 	H 	0.81510 0.06230 0.89990 0.05900
H 	H 	0.78870 0.99410 0.92060 0.05400
H 	H 	0.83270 0.86030 0.88510 0.04700
H 	H 	0.82310 0.96910 0.80270 0.05900
H 	H 	0.81250 0.82690 0.82820 0.08100
H 	H 	0.89000 0.91240 0.77430 0.07300
H 	H 	0.83050 0.77790 0.77500 0.02000
H 	H 	0.90770 0.86510 0.71990 -0.00300
H 	H 	0.82120 0.95720 0.97780 0.06500
H 	H 	0.80970 0.93130 0.04520 -0.03900
H 	H 	0.78180 0.84680 0.93810 0.07500
H 	H 	0.77080 0.81860 0.00510 0.01500
H 	H 	0.89530 0.30170 0.80650 0.02300
H 	H 	0.94850 0.33170 0.76120 0.06300
H 	H 	0.78930 0.35570 0.73380 0.02900
H 	H 	0.84110 0.39270 0.69190 0.07100
H 	H 	0.88650 0.45530 0.69410 0.06400
H 	H 	0.98700 0.33400 0.69210 0.06100
H 	H 	0.86650 0.52270 0.64800 0.08200
H 	H 	0.99930 0.52830 0.66690 0.07000
H 	H 	0.84550 0.60430 0.63950 0.01600
H 	H 	0.97850 0.61030 0.65890 -0.00200
H 	H 	0.01350 0.45490 0.63780 0.05700
H 	H 	0.08890 0.42130 0.65170 0.06900
H 	H 	0.04550 0.29970 0.64570 0.08200
H 	H 	0.12090 0.26170 0.62730 0.01000
H 	H 	0.16470 0.38210 0.63170 -0.00800
H 	H 	0.60500 0.24840 0.88390 0.01500
H 	H 	0.52750 0.23990 0.89060 0.06200
H 	H 	0.50620 0.28920 0.77530 0.05700
H 	H 	0.44420 0.27020 0.89650 0.05800
H 	H 	0.38880 0.31140 0.93570 0.05600
H 	H 	0.30750 0.22810 0.90330 0.06100
H 	H 	0.26230 0.24250 0.96370 0.03400
H 	H 	0.34740 0.32220 0.99860 0.00100
H 	H 	0.45880 0.23740 0.78060 0.05900
H 	H 	0.33310 0.24790 0.84260 0.04400
H 	H 	0.32930 0.18870 0.79220 0.07700
H 	H 	0.29750 0.17690 0.73370 0.01400
H 	H 	0.37220 0.25880 0.67160 -0.05100
H 	H 	0.40600 0.27120 0.72860 0.07100
H 	H 	0.58450 0.29610 0.76780 0.02100
H 	H 	0.85690 0.20210 0.61650 0.01600
H 	H 	0.88030 0.25330 0.72210 0.03300
H 	H 	0.96230 0.23590 0.70420 0.06500
H 	H 	0.93770 0.18490 0.60010 0.05900
H 	H 	0.00590 0.21130 0.57940 0.05400
H 	H 	0.13970 0.16730 0.61490 0.04700
H 	H 	0.03090 0.17690 0.69730 0.05900
H 	H 	0.17310 0.18750 0.67180 0.08100
H 	H 	0.08760 0.11000 0.72570 0.07300
H 	H 	0.22210 0.16950 0.72500 0.02000
H 	H 	0.13490 0.09230 0.78010 -0.00300
H 	H 	0.04280 0.17880 0.52220 0.06500
H 	H 	0.06870 0.19030 0.45480 -0.03900
H 	H 	0.15320 0.21820 0.56190 0.07500
H 	H 	0.18140 0.22920 0.49490 0.01500
H 	H 	0.69830 0.10470 0.69350 0.02300
H 	H 	0.66830 0.05150 0.73880 0.06300
H 	H 	0.64430 0.21070 0.76620 0.02900
H 	H 	0.60730 0.15890 0.80810 0.07100
H 	H 	0.54470 0.11350 0.80590 0.06400
H 	H 	0.66600 0.01300 0.80790 0.06100
H 	H 	0.47730 0.13350 0.85200 0.08200
H 	H 	0.47170 0.00070 0.83310 0.07000
H 	H 	0.39570 0.15450 0.86050 0.01600
H 	H 	0.38970 0.02150 0.84110 -0.00200
H 	H 	0.54510 0.98650 0.86220 0.05700
H 	H 	0.57870 0.91110 0.84830 0.06900
H 	H 	0.70030 0.95450 0.85430 0.08200
H 	H 	0.73830 0.87910 0.87270 0.01100
H 	H 	0.61790 0.83530 0.86830 -0.00800
H 	H 	0.75160 0.39500 0.61610 0.01500
H 	H 	0.76010 0.47250 0.60940 0.06200
H 	H 	0.71080 0.49380 0.72470 0.05700
H 	H 	0.72980 0.55580 0.60350 0.05800
H 	H 	0.68860 0.61120 0.56430 0.05600
H 	H 	0.77190 0.69250 0.59670 0.06100
H 	H 	0.75750 0.73770 0.53630 0.03400
H 	H 	0.67780 0.65260 0.50140 0.00100
H 	H 	0.76260 0.54120 0.71940 0.05900
H 	H 	0.75210 0.66690 0.65740 0.04400
H 	H 	0.81130 0.67070 0.70780 0.07700
H 	H 	0.82310 0.70250 0.76630 0.01400
H 	H 	0.74120 0.62780 0.82840 -0.05100
H 	H 	0.72880 0.59400 0.77140 0.07100
H 	H 	0.70390 0.41550 0.73220 0.02100
C 	C 	0.23889 0.80823 0.18217 0.39600
C 	C 	0.70104 0.71692 0.01449 -0.12200
C 	C 	0.20847 0.87801 0.13427 0.04100
C 	C 	0.72671 0.70907 0.97175 0.36900
C 	C 	0.22835 0.86109 0.17153 -0.12300
C 	C 	0.23942 0.89188 0.19786 0.03800
C 	C 	0.22900 0.94120 0.18682 -0.11200
C 	C 	0.19854 0.92604 0.12444 -0.11500
C 	C 	0.20911 0.95833 0.15139 0.04500
C 	C 	0.19625 0.01033 0.14067 0.02400
C 	C 	0.20116 0.02710 0.09969 -0.09300
C 	C 	0.19023 0.07701 0.09031 0.01200
C 	C 	0.17458 0.10708 0.12100 -0.08700
C 	C 	0.16927 0.09023 0.16166 0.01500
C 	C 	0.18021 0.04229 0.17062 -0.09800
C 	C 	0.15363 0.12469 0.19408 0.06900
C 	C 	0.16886 0.16496 0.19387 -0.14800
C 	C 	0.12283 0.11419 0.22622 -0.14900
C 	C 	0.15772 0.19470 0.22557 0.06200
C 	C 	0.11160 0.14300 0.25849 0.07200
C 	C 	0.12837 0.18343 0.25907 -0.16300
C 	C 	0.11993 0.21313 0.29453 0.36900
C 	C 	0.19770 0.09512 0.04883 0.06900
C 	C 	0.18942 0.07068 0.01661 -0.14600
C 	C 	0.19624 0.08566 0.97593 0.05900
C 	C 	0.21258 0.13604 0.04078 -0.15000
C 	C 	0.21279 0.12857 0.96887 -0.17000
C 	C 	0.21964 0.15292 0.99999 0.07100
C 	C 	0.22279 0.14425 0.92561 0.37700
C 	C 	0.19790 0.69112 0.19730 0.33400
C 	C 	0.16256 0.67426 0.22646 -0.11800
C 	C 	0.11532 0.68118 0.21711 0.03500
C 	C 	0.08372 0.66198 0.24362 -0.11500
C 	C 	0.17914 0.64804 0.25998 0.03500
C 	C 	0.14764 0.62636 0.28557 -0.11200
C 	C 	0.10107 0.63339 0.27714 0.04700
C 	C 	0.06734 0.60902 0.30268 0.03300
C 	C 	0.08263 0.56065 0.31317 -0.10100
C 	C 	0.05110 0.53602 0.33486 0.02200
C 	C 	0.02248 0.63354 0.31447 -0.10000
C 	C 	0.11061 0.45981 0.34990 -0.14900
C 	C 	0.03173 0.45627 0.33858 -0.14500
C 	C 	0.06612 0.48280 0.34205 0.07000
C 	C 	0.12338 0.41070 0.35492 0.08000
C 	C 	0.04417 0.40733 0.34339 0.07200
C 	C 	0.99067 0.60945 0.33671 0.02000
C 	C 	0.00679 0.56097 0.34678 -0.09500
C 	C 	0.94269 0.63507 0.34939 0.06300
C 	C 	0.90509 0.61069 0.35363 -0.14500
C 	C 	0.93082 0.68316 0.35702 -0.14600
C 	C 	0.88562 0.70592 0.36840 0.08300
C 	C 	0.84914 0.68176 0.37378 -0.17300
C 	C 	0.85946 0.63440 0.36568 0.07900
C 	C 	0.79929 0.70659 0.38632 0.42800
C 	C 	0.39791 0.72361 0.17404 -0.13000
C 	C 	0.34748 0.71736 0.17910 0.39100
C 	C 	0.41464 0.74292 0.13769 0.04000
C 	C 	0.46109 0.74897 0.13415 -0.11900
C 	C 	0.47378 0.71960 0.20332 -0.11300
C 	C 	0.49059 0.73923 0.16566 0.03900
C 	C 	0.54058 0.74442 0.16284 0.02900
C 	C 	0.56880 0.73694 0.12652 -0.10500
C 	C 	0.61570 0.74032 0.12509 0.02900
C 	C 	0.64634 0.73134 0.08646 0.04100
C 	C 	0.63632 0.70340 0.05826 -0.11300
C 	C 	0.68474 0.75248 0.07825 -0.11200
C 	C 	0.71158 0.74386 0.04167 0.03800
C 	C 	0.66130 0.69554 0.02072 0.02500
C 	C 	0.56021 0.75611 0.19582 -0.09800
C 	C 	0.63508 0.75054 0.15885 -0.09100
C 	C 	0.60849 0.75873 0.19558 0.01200
C 	C 	0.62818 0.76906 0.23231 0.07100
C 	C 	0.66154 0.79706 0.23207 -0.15700
C 	C 	0.68087 0.80379 0.26702 0.08000
C 	C 	0.66897 0.78237 0.30342 -0.18800
C 	C 	0.63644 0.75524 0.30387 0.09300
C 	C 	0.61594 0.74780 0.26992 -0.17100
C 	C 	0.42743 0.71403 0.20726 0.03600
C 	C 	0.10400 0.33044 0.35541 0.41700
C 	C 	0.09084 0.38428 0.35169 -0.16200
C 	C 	0.69256 0.78734 0.34013 0.33700
C 	C 	0.19177 0.76111 0.31783 0.39600
C 	C 	0.28308 0.29896 0.48551 -0.12200
C 	C 	0.12199 0.79153 0.36573 0.04100
C 	C 	0.29093 0.27329 0.52825 0.36900
C 	C 	0.13891 0.77165 0.32847 -0.12300
C 	C 	0.10812 0.76058 0.30214 0.03800
C 	C 	0.05880 0.77100 0.31318 -0.11200
C 	C 	0.07396 0.80146 0.37556 -0.11500
C 	C 	0.04167 0.79089 0.34861 0.04500
C 	C 	0.98967 0.80375 0.35933 0.02400
C 	C 	0.97290 0.79884 0.40031 -0.09300
C 	C 	0.92299 0.80977 0.40969 0.01200
C 	C 	0.89292 0.82542 0.37900 -0.08700
C 	C 	0.90977 0.83073 0.33834 0.01500
C 	C 	0.95771 0.81979 0.32938 -0.09800
C 	C 	0.87531 0.84637 0.30592 0.06900
C 	C 	0.83504 0.83114 0.30613 -0.14800
C 	C 	0.88581 0.87717 0.27378 -0.14900
C 	C 	0.80530 0.84228 0.27443 0.06200
C 	C 	0.85700 0.88840 0.24151 0.07200
C 	C 	0.81657 0.87163 0.24093 -0.16300
C 	C 	0.78687 0.88007 0.20547 0.36900
C 	C 	0.90488 0.80230 0.45117 0.06900
C 	C 	0.92932 0.81058 0.48339 -0.14600
C 	C 	0.91434 0.80376 0.52407 0.05900
C 	C 	0.86396 0.78742 0.45922 -0.15000
C 	C 	0.87143 0.78721 0.53113 -0.17000
C 	C 	0.84708 0.78036 0.50001 0.07100
C 	C 	0.85575 0.77721 0.57439 0.37700
C 	C 	0.30888 0.80210 0.30270 0.33400
C 	C 	0.32574 0.83744 0.27354 -0.11800
C 	C 	0.31882 0.88468 0.28289 0.03500
C 	C 	0.33802 0.91628 0.25638 -0.11500
C 	C 	0.35196 0.82086 0.24002 0.03500
C 	C 	0.37364 0.85236 0.21443 -0.11200
C 	C 	0.36661 0.89893 0.22286 0.04700
C 	C 	0.39098 0.93266 0.19732 0.03300
C 	C 	0.43935 0.91737 0.18683 -0.10100
C 	C 	0.46398 0.94890 0.16514 0.02200
C 	C 	0.36646 0.97752 0.18553 -0.10000
C 	C 	0.54019 0.88939 0.15010 -0.14900
C 	C 	0.54373 0.96827 0.16142 -0.14500
C 	C 	0.51720 0.93388 0.15795 0.07000
C 	C 	0.58930 0.87662 0.14508 0.08000
C 	C 	0.59267 0.95583 0.15661 0.07200
C 	C 	0.39055 0.00933 0.16329 0.02000
C 	C 	0.43903 0.99321 0.15322 -0.09500
C 	C 	0.36493 0.05731 0.15061 0.06300
C 	C 	0.38931 0.09491 0.14637 -0.14500
C 	C 	0.31684 0.06918 0.14298 -0.14600
C 	C 	0.29408 0.11438 0.13160 0.08300
C 	C 	0.31824 0.15086 0.12622 -0.17300
C 	C 	0.36560 0.14054 0.13432 0.07900
C 	C 	0.29341 0.20071 0.11368 0.42800
C 	C 	0.27639 0.60209 0.32596 -0.13000
C 	C 	0.28264 0.65252 0.32090 0.39100
C 	C 	0.25708 0.58536 0.36231 0.04000
C 	C 	0.25103 0.53891 0.36585 -0.11900
C 	C 	0.28040 0.52622 0.29668 -0.11300
C 	C 	0.26077 0.50941 0.33434 0.03900
C 	C 	0.25558 0.45942 0.33716 0.02900
C 	C 	0.26306 0.43120 0.37348 -0.10500
C 	C 	0.25968 0.38430 0.37491 0.02900
C 	C 	0.26866 0.35366 0.41354 0.04100
C 	C 	0.29660 0.36368 0.44174 -0.11300
C 	C 	0.24752 0.31526 0.42175 -0.11200
C 	C 	0.25614 0.28842 0.45833 0.03800
C 	C 	0.30446 0.33870 0.47928 0.02500
C 	C 	0.24389 0.43979 0.30418 -0.09800
C 	C 	0.24946 0.36492 0.34115 -0.09100
C 	C 	0.24127 0.39151 0.30442 0.01200
C 	C 	0.23094 0.37182 0.26769 0.07100
C 	C 	0.20294 0.33846 0.26793 -0.15700
C 	C 	0.19621 0.31913 0.23298 0.08000
C 	C 	0.21763 0.33103 0.19658 -0.18800
C 	C 	0.24476 0.36356 0.19613 0.09300
C 	C 	0.25220 0.38406 0.23008 -0.17100
C 	C 	0.28597 0.57257 0.29274 0.03600
C 	C 	0.66956 0.89600 0.14459 0.41700
C 	C 	0.61572 0.90916 0.14831 -0.16200
C 	C 	0.21266 0.30744 0.15987 0.33700
C 	C 	0.76111 0.19177 0.81783 0.39600
C 	C 	0.29896 0.28308 0.98551 -0.12200
C 	C 	0.79153 0.12199 0.86573 0.04100
C 	C 	0.27329 0.29093 0.02825 0.36900
C 	C 	0.77165 0.13891 0.82847 -0.12300
C 	C 	0.76058 0.10812 0.80214 0.03800
C 	C 	0.77100 0.05880 0.81318 -0.11200
C 	C 	0.80146 0.07396 0.87556 -0.11500
C 	C 	0.79089 0.04167 0.84861 0.04500
C 	C 	0.80375 0.98967 0.85933 0.02400
C 	C 	0.79884 0.97290 0.90031 -0.09300
C 	C 	0.80977 0.92299 0.90969 0.01200
C 	C 	0.82542 0.89292 0.87900 -0.08700
C 	C 	0.83073 0.90977 0.83834 0.01500
C 	C 	0.81979 0.95771 0.82938 -0.09800
C 	C 	0.84637 0.87531 0.80592 0.06900
C 	C 	0.83114 0.83504 0.80613 -0.14800
C 	C 	0.87717 0.88581 0.77378 -0.14900
C 	C 	0.84228 0.80530 0.77443 0.06200
C 	C 	0.88840 0.85700 0.74151 0.07200
C 	C 	0.87163 0.81657 0.74093 -0.16300
C 	C 	0.88007 0.78687 0.70547 0.36900
C 	C 	0.80230 0.90488 0.95117 0.06900
C 	C 	0.81058 0.92932 0.98339 -0.14600
C 	C 	0.80376 0.91434 0.02407 0.05900
C 	C 	0.78742 0.86396 0.95922 -0.15000
C 	C 	0.78721 0.87143 0.03113 -0.17000
C 	C 	0.78036 0.84708 0.00001 0.07100
C 	C 	0.77721 0.85575 0.07439 0.37700
C 	C 	0.80210 0.30888 0.80270 0.33400
C 	C 	0.83744 0.32574 0.77354 -0.11800
C 	C 	0.88468 0.31882 0.78289 0.03500
C 	C 	0.91628 0.33802 0.75638 -0.11500
C 	C 	0.82086 0.35196 0.74002 0.03500
C 	C 	0.85236 0.37364 0.71443 -0.11200
C 	C 	0.89893 0.36661 0.72286 0.04700
C 	C 	0.93266 0.39098 0.69732 0.03300
C 	C 	0.91737 0.43935 0.68683 -0.10100
C 	C 	0.94890 0.46398 0.66514 0.02200
C 	C 	0.97752 0.36646 0.68553 -0.10000
C 	C 	0.88939 0.54019 0.65010 -0.14900
C 	C 	0.96827 0.54373 0.66142 -0.14500
C 	C 	0.93388 0.51720 0.65795 0.07000
C 	C 	0.87662 0.58930 0.64508 0.08000
C 	C 	0.95583 0.59267 0.65661 0.07200
C 	C 	0.00933 0.39055 0.66329 0.02000
C 	C 	0.99321 0.43903 0.65322 -0.09500
C 	C 	0.05731 0.36493 0.65061 0.06300
C 	C 	0.09491 0.38931 0.64637 -0.14500
C 	C 	0.06918 0.31684 0.64298 -0.14600
C 	C 	0.11438 0.29408 0.63160 0.08300
C 	C 	0.15086 0.31824 0.62622 -0.17300
C 	C 	0.14054 0.36560 0.63432 0.07900
C 	C 	0.20071 0.29341 0.61368 0.42800
C 	C 	0.60209 0.27639 0.82596 -0.13000
C 	C 	0.65252 0.28264 0.82090 0.39100
C 	C 	0.58536 0.25708 0.86231 0.04000
C 	C 	0.53891 0.25103 0.86585 -0.11900
C 	C 	0.52622 0.28040 0.79668 -0.11300
C 	C 	0.50941 0.26077 0.83434 0.03900
C 	C 	0.45942 0.25558 0.83716 0.02900
C 	C 	0.43120 0.26306 0.87348 -0.10500
C 	C 	0.38430 0.25968 0.87491 0.02900
C 	C 	0.35366 0.26866 0.91354 0.04100
C 	C 	0.36368 0.29660 0.94174 -0.11300
C 	C 	0.31526 0.24752 0.92175 -0.11200
C 	C 	0.28842 0.25614 0.95833 0.03800
C 	C 	0.33870 0.30446 0.97928 0.02500
C 	C 	0.43979 0.24389 0.80418 -0.09800
C 	C 	0.36492 0.24946 0.84115 -0.09100
C 	C 	0.39151 0.24127 0.80442 0.01200
C 	C 	0.37182 0.23094 0.76769 0.07100
C 	C 	0.33846 0.20294 0.76793 -0.15700
C 	C 	0.31913 0.19621 0.73298 0.08000
C 	C 	0.33103 0.21763 0.69658 -0.18800
C 	C 	0.36356 0.24476 0.69613 0.09300
C 	C 	0.38406 0.25220 0.73008 -0.17100
C 	C 	0.57257 0.28597 0.79274 0.03600
C 	C 	0.89600 0.66956 0.64459 0.41700
C 	C 	0.90916 0.61572 0.64831 -0.16200
C 	C 	0.30744 0.21266 0.65987 0.33700
C 	C 	0.80823 0.23889 0.68217 0.39600
C 	C 	0.71692 0.70104 0.51449 -0.12200
C 	C 	0.87801 0.20847 0.63427 0.04100
C 	C 	0.70907 0.72671 0.47175 0.36900
C 	C 	0.86109 0.22835 0.67153 -0.12300
C 	C 	0.89188 0.23942 0.69786 0.03800
C 	C 	0.94120 0.22900 0.68682 -0.11200
C 	C 	0.92604 0.19854 0.62444 -0.11500
C 	C 	0.95833 0.20911 0.65139 0.04500
C 	C 	0.01033 0.19625 0.64067 0.02400
C 	C 	0.02710 0.20116 0.59969 -0.09300
C 	C 	0.07701 0.19023 0.59031 0.01200
C 	C 	0.10708 0.17458 0.62100 -0.08700
C 	C 	0.09023 0.16927 0.66166 0.01500
C 	C 	0.04229 0.18021 0.67062 -0.09800
C 	C 	0.12469 0.15363 0.69408 0.06900
C 	C 	0.16496 0.16886 0.69387 -0.14800
C 	C 	0.11419 0.12283 0.72622 -0.14900
C 	C 	0.19470 0.15772 0.72557 0.06200
C 	C 	0.14300 0.11160 0.75849 0.07200
C 	C 	0.18343 0.12837 0.75907 -0.16300
C 	C 	0.21313 0.11993 0.79453 0.36900
C 	C 	0.09512 0.19770 0.54883 0.06900
C 	C 	0.07068 0.18942 0.51661 -0.14600
C 	C 	0.08566 0.19624 0.47593 0.05900
C 	C 	0.13604 0.21258 0.54078 -0.15000
C 	C 	0.12857 0.21279 0.46887 -0.17000
C 	C 	0.15292 0.21964 0.49999 0.07100
C 	C 	0.14425 0.22279 0.42561 0.37700
C 	C 	0.69112 0.19790 0.69730 0.33400
C 	C 	0.67426 0.16256 0.72646 -0.11800
C 	C 	0.68118 0.11532 0.71711 0.03500
C 	C 	0.66198 0.08372 0.74362 -0.11500
C 	C 	0.64804 0.17914 0.75998 0.03500
C 	C 	0.62636 0.14764 0.78557 -0.11200
C 	C 	0.63339 0.10107 0.77714 0.04700
C 	C 	0.60902 0.06734 0.80268 0.03300
C 	C 	0.56065 0.08263 0.81317 -0.10100
C 	C 	0.53602 0.05110 0.83486 0.02200
C 	C 	0.63354 0.02248 0.81447 -0.10000
C 	C 	0.45981 0.11061 0.84990 -0.14900
C 	C 	0.45627 0.03173 0.83858 -0.14500
C 	C 	0.48280 0.06612 0.84205 0.07000
C 	C 	0.41070 0.12338 0.85492 0.08000
C 	C 	0.40733 0.04417 0.84339 0.07200
C 	C 	0.60945 0.99067 0.83671 0.02000
C 	C 	0.56097 0.00679 0.84678 -0.09500
C 	C 	0.63507 0.94269 0.84939 0.06300
C 	C 	0.61069 0.90509 0.85363 -0.14500
C 	C 	0.68316 0.93082 0.85702 -0.14600
C 	C 	0.70592 0.88562 0.86840 0.08300
C 	C 	0.68176 0.84914 0.87378 -0.17300
C 	C 	0.63440 0.85946 0.86568 0.07900
C 	C 	0.70659 0.79929 0.88632 0.42800
C 	C 	0.72361 0.39791 0.67404 -0.13000
C 	C 	0.71736 0.34748 0.67910 0.39100
C 	C 	0.74292 0.41464 0.63769 0.04000
C 	C 	0.74897 0.46109 0.63415 -0.11900
C 	C 	0.71960 0.47378 0.70332 -0.11300
C 	C 	0.73923 0.49059 0.66566 0.03900
C 	C 	0.74442 0.54058 0.66284 0.02900
C 	C 	0.73694 0.56880 0.62652 -0.10500
C 	C 	0.74032 0.61570 0.62509 0.02900
C 	C 	0.73134 0.64634 0.58646 0.04100
C 	C 	0.70340 0.63632 0.55826 -0.11300
C 	C 	0.75248 0.68474 0.57825 -0.11200
C 	C 	0.74386 0.71158 0.54167 0.03800
C 	C 	0.69554 0.66130 0.52072 0.02500
C 	C 	0.75611 0.56021 0.69582 -0.09800
C 	C 	0.75054 0.63508 0.65885 -0.09100
C 	C 	0.75873 0.60849 0.69558 0.01200
C 	C 	0.76906 0.62818 0.73231 0.07100
C 	C 	0.79706 0.66154 0.73207 -0.15700
C 	C 	0.80379 0.68087 0.76702 0.08000
C 	C 	0.78237 0.66897 0.80342 -0.18800
C 	C 	0.75524 0.63644 0.80387 0.09300
C 	C 	0.74780 0.61594 0.76992 -0.17100
C 	C 	0.71403 0.42743 0.70726 0.03600
C 	C 	0.33044 0.10400 0.85541 0.41700
C 	C 	0.38428 0.09084 0.85169 -0.16200
C 	C 	0.78734 0.69256 0.84013 0.33700
O 	O 	0.23371 0.78299 0.15449 -0.45400
O 	O 	0.25259 0.79413 0.21705 -0.42800
O 	O 	0.32616 0.71884 0.14817 -0.48700
O 	O 	0.33270 0.71050 0.21569 -0.43000
O 	O 	0.23815 0.69431 0.20863 -0.51000
O 	O 	0.18772 0.70020 0.16070 -0.41700
O 	O 	0.76986 0.68198 0.39409 -0.49700
O 	O 	0.79085 0.75103 0.38881 -0.46800
O 	O 	0.23169 0.18509 0.91924 -0.42900
O 	O 	0.22047 0.12017 0.89677 -0.57900
O 	O 	0.08440 0.20918 0.31925 -0.48000
O 	O 	0.14775 0.23945 0.30006 -0.46800
O 	O 	0.14694 0.31090 0.36006 -0.46600
O 	O 	0.07065 0.31009 0.35405 -0.49500
O 	O 	0.71599 0.81869 0.34276 -0.40400
O 	O 	0.71429 0.68253 0.94885 -0.50400
O 	O 	0.76009 0.73117 0.96435 -0.45700
O 	O 	0.68768 0.75940 0.37227 -0.56000
O 	O 	0.21701 0.76629 0.34551 -0.45400
O 	O 	0.20587 0.74741 0.28295 -0.42800
O 	O 	0.28116 0.67384 0.35183 -0.48700
O 	O 	0.28950 0.66730 0.28431 -0.43000
O 	O 	0.30569 0.76185 0.29137 -0.51000
O 	O 	0.29980 0.81228 0.33930 -0.41700
O 	O 	0.31802 0.23014 0.10591 -0.49700
O 	O 	0.24897 0.20915 0.11119 -0.46800
O 	O 	0.81491 0.76831 0.58076 -0.42900
O 	O 	0.87983 0.77953 0.60323 -0.57900
O 	O 	0.79082 0.91560 0.18075 -0.48000
O 	O 	0.76055 0.85225 0.19994 -0.46800
O 	O 	0.68910 0.85306 0.13994 -0.46600
O 	O 	0.68991 0.92935 0.14595 -0.49500
O 	O 	0.18131 0.28401 0.15724 -0.40400
O 	O 	0.31747 0.28571 0.55115 -0.50400
O 	O 	0.26883 0.23991 0.53565 -0.45700
O 	O 	0.24060 0.31232 0.12773 -0.56000
O 	O 	0.76629 0.21701 0.84551 -0.45400
O 	O 	0.74741 0.20587 0.78295 -0.42800
O 	O 	0.67384 0.28116 0.85183 -0.48700
O 	O 	0.66730 0.28950 0.78431 -0.43000
O 	O 	0.76185 0.30569 0.79137 -0.51000
O 	O 	0.81228 0.29980 0.83930 -0.41700
O 	O 	0.23014 0.31802 0.60591 -0.49700
O 	O 	0.20915 0.24897 0.61119 -0.46800
O 	O 	0.76831 0.81491 0.08076 -0.42900
O 	O 	0.77953 0.87983 0.10323 -0.57900
O 	O 	0.91560 0.79082 0.68075 -0.48000
O 	O 	0.85225 0.76055 0.69994 -0.46800
O 	O 	0.85306 0.68910 0.63994 -0.46600
O 	O 	0.92935 0.68991 0.64595 -0.49500
O 	O 	0.28401 0.18131 0.65724 -0.40400
O 	O 	0.28571 0.31747 0.05115 -0.50400
O 	O 	0.23991 0.26883 0.03565 -0.45700
O 	O 	0.31232 0.24060 0.62773 -0.56000
O 	O 	0.78299 0.23371 0.65449 -0.45400
O 	O 	0.79413 0.25259 0.71705 -0.42800
O 	O 	0.71884 0.32616 0.64817 -0.48700
O 	O 	0.71050 0.33270 0.71569 -0.43000
O 	O 	0.69431 0.23815 0.70863 -0.51000
O 	O 	0.70020 0.18772 0.66070 -0.41700
O 	O 	0.68198 0.76986 0.89409 -0.49700
O 	O 	0.75103 0.79085 0.88881 -0.46800
O 	O 	0.18509 0.23169 0.41924 -0.42900
O 	O 	0.12017 0.22047 0.39677 -0.57900
O 	O 	0.20918 0.08440 0.81925 -0.48000
O 	O 	0.23945 0.14775 0.80006 -0.46800
O 	O 	0.31090 0.14694 0.86006 -0.46600
O 	O 	0.31009 0.07065 0.85405 -0.49500
O 	O 	0.81869 0.71599 0.84276 -0.40400
O 	O 	0.68253 0.71429 0.44885 -0.50400
O 	O 	0.73117 0.76009 0.46435 -0.45700
O 	O 	0.75940 0.68768 0.87227 -0.56000
