data_crystal

_cell_length_a 14.22560
_cell_length_b 14.46450
_cell_length_c 30.44290
_cell_angle_alpha 90.00000
_cell_angle_beta  96.10400
_cell_angle_gamma 90.00000

_symmetry_space_group_name_	'P 1'
_symmetry_space_group_name_H-M	'P 1'

loop_
_symmetry_equiv_pos_as_xyz
  x,y,z

loop_
_atom_site_label
_atom_site_type_symbol
_atom_site_fract_x
_atom_site_fract_y
_atom_site_fract_z
_atom_site_charge
Fe	Fe	0.69945 0.51999 0.45031 1.17200
Au	Au	0.45018 0.76886 0.45599 0.26900
Au	Au	0.95604 0.76354 0.44735 0.27600
C 	C 	0.85890 0.66570 0.45040 -0.04300
C 	C 	0.54900 0.67470 0.44880 -0.04500
C 	C 	0.54770 0.36550 0.44410 -0.03800
C 	C 	0.85030 0.36410 0.45870 -0.04400
N 	N 	0.79980 0.61160 0.45203 -0.24700
N 	N 	0.60530 0.61800 0.44623 -0.24400
N 	N 	0.60120 0.42610 0.44576 -0.24400
N 	N 	0.79360 0.42100 0.45664 -0.24500
N 	N 	0.69800 0.51560 0.38451 -0.25500
C 	C 	0.77890 0.51170 0.36590 0.07800
H 	H 	0.83680 0.51520 0.38450 -0.02000
C 	C 	0.78240 0.50270 0.32100 -0.14200
H 	H 	0.84160 0.49930 0.30930 0.07100
C 	C 	0.69860 0.49860 0.29300 0.07000
C 	C 	0.61470 0.50570 0.31190 -0.13700
H 	H 	0.55600 0.50470 0.29390 0.09100
C 	C 	0.61670 0.51440 0.35730 0.07500
H 	H 	0.55850 0.51970 0.36980 -0.00300
C 	C 	0.70130 0.48530 0.24470 0.03800
C 	C 	0.77390 0.43470 0.22840 -0.05600
H 	H 	0.82310 0.40770 0.24770 0.04400
N 	N 	0.63020 0.51610 0.17420 -0.08700
N 	N 	0.63070 0.52220 0.21830 -0.08700
C 	C 	0.77150 0.42550 0.18380 -0.05400
H 	H 	0.81830 0.39060 0.17120 0.04100
C 	C 	0.69880 0.46850 0.15740 0.03200
C 	C 	0.69620 0.46880 0.10850 0.06700
C 	C 	0.66710 0.54680 0.08440 -0.14300
H 	H 	0.64450 0.59930 0.09880 0.06900
C 	C 	0.67110 0.54790 0.03930 0.07200
H 	H 	0.65340 0.60300 0.02360 -0.03100
C 	C 	0.72330 0.39890 0.03980 0.06300
H 	H 	0.74080 0.34550 0.02440 -0.02100
C 	C 	0.72470 0.39370 0.08540 -0.15300
H 	H 	0.74510 0.33870 0.10060 0.06600
N 	N 	0.69860 0.47510 0.01636 -0.25700
Fe	Fe	0.19945 0.01999 0.45031 1.17300
Au	Au	0.95018 0.26886 0.45599 0.27000
Au	Au	0.45604 0.26354 0.44735 0.27600
C 	C 	0.35890 0.16570 0.45040 -0.04300
C 	C 	0.04900 0.17470 0.44880 -0.04500
C 	C 	0.04770 0.86550 0.44410 -0.03800
C 	C 	0.35030 0.86410 0.45870 -0.04400
N 	N 	0.29980 0.11160 0.45203 -0.24700
N 	N 	0.10530 0.11800 0.44623 -0.24400
N 	N 	0.10120 0.92610 0.44576 -0.24400
N 	N 	0.29360 0.92100 0.45664 -0.24500
N 	N 	0.19800 0.01560 0.38451 -0.25500
C 	C 	0.27890 0.01170 0.36590 0.07800
H 	H 	0.33680 0.01520 0.38450 -0.02000
C 	C 	0.28240 0.00270 0.32100 -0.14200
H 	H 	0.34160 0.99930 0.30930 0.07100
C 	C 	0.19860 0.99860 0.29300 0.07100
C 	C 	0.11470 0.00570 0.31190 -0.13700
H 	H 	0.05600 0.00470 0.29390 0.09100
C 	C 	0.11670 0.01440 0.35730 0.07500
H 	H 	0.05850 0.01970 0.36980 -0.00300
C 	C 	0.20130 0.98530 0.24470 0.03800
C 	C 	0.27390 0.93470 0.22840 -0.05600
H 	H 	0.32310 0.90770 0.24770 0.04400
N 	N 	0.13020 0.01610 0.17420 -0.08700
N 	N 	0.13070 0.02220 0.21830 -0.08700
C 	C 	0.27150 0.92550 0.18380 -0.05400
H 	H 	0.31830 0.89060 0.17120 0.04100
C 	C 	0.19880 0.96850 0.15740 0.03200
C 	C 	0.19620 0.96880 0.10850 0.06700
C 	C 	0.16710 0.04680 0.08440 -0.14400
H 	H 	0.14450 0.09930 0.09880 0.06900
C 	C 	0.17110 0.04790 0.03930 0.07200
H 	H 	0.15340 0.10300 0.02360 -0.03100
C 	C 	0.22330 0.89890 0.03980 0.06300
H 	H 	0.24080 0.84550 0.02440 -0.02100
C 	C 	0.22470 0.89370 0.08540 -0.15400
H 	H 	0.24510 0.83870 0.10060 0.06600
N 	N 	0.19860 0.97510 0.01636 -0.25600
Fe	Fe	0.69945 0.48001 0.95031 1.17300
Au	Au	0.45018 0.23114 0.95599 0.27000
Au	Au	0.95604 0.23646 0.94735 0.27600
C 	C 	0.85890 0.33430 0.95040 -0.04200
C 	C 	0.54900 0.32530 0.94880 -0.04500
C 	C 	0.54770 0.63450 0.94410 -0.03800
C 	C 	0.85030 0.63590 0.95870 -0.04400
N 	N 	0.79980 0.38840 0.95203 -0.24700
N 	N 	0.60530 0.38200 0.94623 -0.24400
N 	N 	0.60120 0.57390 0.94576 -0.24400
N 	N 	0.79360 0.57900 0.95664 -0.24500
N 	N 	0.69800 0.48440 0.88451 -0.25500
C 	C 	0.77890 0.48830 0.86590 0.07800
H 	H 	0.83680 0.48480 0.88450 -0.02000
C 	C 	0.78240 0.49730 0.82100 -0.14200
H 	H 	0.84160 0.50070 0.80930 0.07100
C 	C 	0.69860 0.50140 0.79300 0.07000
C 	C 	0.61470 0.49430 0.81190 -0.13700
H 	H 	0.55600 0.49530 0.79390 0.09100
C 	C 	0.61670 0.48560 0.85730 0.07500
H 	H 	0.55850 0.48030 0.86980 -0.00300
C 	C 	0.70130 0.51470 0.74470 0.03800
C 	C 	0.77390 0.56530 0.72840 -0.05600
H 	H 	0.82310 0.59230 0.74770 0.04400
N 	N 	0.63020 0.48390 0.67420 -0.08700
N 	N 	0.63070 0.47780 0.71830 -0.08700
C 	C 	0.77150 0.57450 0.68380 -0.05400
H 	H 	0.81830 0.60940 0.67120 0.04100
C 	C 	0.69880 0.53150 0.65740 0.03200
C 	C 	0.69620 0.53120 0.60850 0.06700
C 	C 	0.66710 0.45320 0.58440 -0.14300
H 	H 	0.64450 0.40070 0.59880 0.06900
C 	C 	0.67110 0.45210 0.53930 0.07200
H 	H 	0.65340 0.39700 0.52360 -0.03100
C 	C 	0.72330 0.60110 0.53980 0.06300
H 	H 	0.74080 0.65450 0.52440 -0.02100
C 	C 	0.72470 0.60630 0.58540 -0.15300
H 	H 	0.74510 0.66130 0.60060 0.06600
N 	N 	0.69860 0.52490 0.51636 -0.25700
Fe	Fe	0.19945 0.98001 0.95031 1.17300
Au	Au	0.95018 0.73114 0.95599 0.27000
Au	Au	0.45604 0.73646 0.94735 0.27600
C 	C 	0.35890 0.83430 0.95040 -0.04300
C 	C 	0.04900 0.82530 0.94880 -0.04500
C 	C 	0.04770 0.13450 0.94410 -0.03700
C 	C 	0.35030 0.13590 0.95870 -0.04400
N 	N 	0.29980 0.88840 0.95203 -0.24700
N 	N 	0.10530 0.88200 0.94623 -0.24400
N 	N 	0.10120 0.07390 0.94576 -0.24400
N 	N 	0.29360 0.07900 0.95664 -0.24500
N 	N 	0.19800 0.98440 0.88451 -0.25500
C 	C 	0.27890 0.98830 0.86590 0.07800
H 	H 	0.33680 0.98480 0.88450 -0.02100
C 	C 	0.28240 0.99730 0.82100 -0.14300
H 	H 	0.34160 0.00070 0.80930 0.07200
C 	C 	0.19860 0.00140 0.79300 0.07100
C 	C 	0.11470 0.99430 0.81190 -0.13800
H 	H 	0.05600 0.99530 0.79390 0.09200
C 	C 	0.11670 0.98560 0.85730 0.07500
H 	H 	0.05850 0.98030 0.86980 -0.00300
C 	C 	0.20130 0.01470 0.74470 0.03800
C 	C 	0.27390 0.06530 0.72840 -0.05600
H 	H 	0.32310 0.09230 0.74770 0.04400
N 	N 	0.13020 0.98390 0.67420 -0.08700
N 	N 	0.13070 0.97780 0.71830 -0.08700
C 	C 	0.27150 0.07450 0.68380 -0.05500
H 	H 	0.31830 0.10940 0.67120 0.04100
C 	C 	0.19880 0.03150 0.65740 0.03200
C 	C 	0.19620 0.03120 0.60850 0.06700
C 	C 	0.16710 0.95320 0.58440 -0.14300
H 	H 	0.14450 0.90070 0.59880 0.06900
C 	C 	0.17110 0.95210 0.53930 0.07200
H 	H 	0.15340 0.89700 0.52360 -0.03100
C 	C 	0.22330 0.10110 0.53980 0.06300
H 	H 	0.24080 0.15450 0.52440 -0.02100
C 	C 	0.22470 0.10630 0.58540 -0.15300
H 	H 	0.24510 0.16130 0.60060 0.06600
N 	N 	0.19860 0.02490 0.51636 -0.25700
Fe	Fe	0.30055 0.51999 0.04969 1.17300
Au	Au	0.54982 0.76886 0.04401 0.27000
Au	Au	0.04396 0.76354 0.05265 0.27600
C 	C 	0.14110 0.66570 0.04960 -0.04200
C 	C 	0.45100 0.67470 0.05120 -0.04500
C 	C 	0.45230 0.36550 0.05590 -0.03800
C 	C 	0.14970 0.36410 0.04130 -0.04400
N 	N 	0.20020 0.61160 0.04797 -0.24700
N 	N 	0.39470 0.61800 0.05377 -0.24400
N 	N 	0.39880 0.42610 0.05424 -0.24400
N 	N 	0.20640 0.42100 0.04336 -0.24500
N 	N 	0.30200 0.51560 0.11549 -0.25500
C 	C 	0.22110 0.51170 0.13410 0.07800
H 	H 	0.16320 0.51520 0.11550 -0.02000
C 	C 	0.21760 0.50270 0.17900 -0.14200
H 	H 	0.15840 0.49930 0.19070 0.07100
C 	C 	0.30140 0.49860 0.20700 0.07000
C 	C 	0.38530 0.50570 0.18810 -0.13700
H 	H 	0.44400 0.50470 0.20610 0.09100
C 	C 	0.38330 0.51440 0.14270 0.07500
H 	H 	0.44150 0.51970 0.13020 -0.00300
C 	C 	0.29870 0.48530 0.25530 0.03800
C 	C 	0.22610 0.43470 0.27160 -0.05600
H 	H 	0.17690 0.40770 0.25230 0.04400
N 	N 	0.36980 0.51610 0.32580 -0.08700
N 	N 	0.36930 0.52220 0.28170 -0.08700
C 	C 	0.22850 0.42550 0.31620 -0.05400
H 	H 	0.18170 0.39060 0.32880 0.04100
C 	C 	0.30120 0.46850 0.34260 0.03200
C 	C 	0.30380 0.46880 0.39150 0.06700
C 	C 	0.33290 0.54680 0.41560 -0.14300
H 	H 	0.35550 0.59930 0.40120 0.06900
C 	C 	0.32890 0.54790 0.46070 0.07200
H 	H 	0.34660 0.60300 0.47640 -0.03100
C 	C 	0.27670 0.39890 0.46020 0.06300
H 	H 	0.25920 0.34550 0.47560 -0.02100
C 	C 	0.27530 0.39370 0.41460 -0.15300
H 	H 	0.25490 0.33870 0.39940 0.06600
N 	N 	0.30140 0.47510 0.48364 -0.25700
Fe	Fe	0.80055 0.01999 0.04969 1.17300
Au	Au	0.04982 0.26886 0.04401 0.27000
Au	Au	0.54396 0.26354 0.05265 0.27600
C 	C 	0.64110 0.16570 0.04960 -0.04300
C 	C 	0.95100 0.17470 0.05120 -0.04500
C 	C 	0.95230 0.86550 0.05590 -0.03700
C 	C 	0.64970 0.86410 0.04130 -0.04400
N 	N 	0.70020 0.11160 0.04797 -0.24700
N 	N 	0.89470 0.11800 0.05377 -0.24400
N 	N 	0.89880 0.92610 0.05424 -0.24400
N 	N 	0.70640 0.92100 0.04336 -0.24500
N 	N 	0.80200 0.01560 0.11549 -0.25500
C 	C 	0.72110 0.01170 0.13410 0.07800
H 	H 	0.66320 0.01520 0.11550 -0.02100
C 	C 	0.71760 0.00270 0.17900 -0.14300
H 	H 	0.65840 0.99930 0.19070 0.07200
C 	C 	0.80140 0.99860 0.20700 0.07100
C 	C 	0.88530 0.00570 0.18810 -0.13800
H 	H 	0.94400 0.00470 0.20610 0.09200
C 	C 	0.88330 0.01440 0.14270 0.07500
H 	H 	0.94150 0.01970 0.13020 -0.00300
C 	C 	0.79870 0.98530 0.25530 0.03800
C 	C 	0.72610 0.93470 0.27160 -0.05600
H 	H 	0.67690 0.90770 0.25230 0.04400
N 	N 	0.86980 0.01610 0.32580 -0.08700
N 	N 	0.86930 0.02220 0.28170 -0.08700
C 	C 	0.72850 0.92550 0.31620 -0.05500
H 	H 	0.68170 0.89060 0.32880 0.04100
C 	C 	0.80120 0.96850 0.34260 0.03200
C 	C 	0.80380 0.96880 0.39150 0.06700
C 	C 	0.83290 0.04680 0.41560 -0.14300
H 	H 	0.85550 0.09930 0.40120 0.06900
C 	C 	0.82890 0.04790 0.46070 0.07200
H 	H 	0.84660 0.10300 0.47640 -0.03100
C 	C 	0.77670 0.89890 0.46020 0.06300
H 	H 	0.75920 0.84550 0.47560 -0.02100
C 	C 	0.77530 0.89370 0.41460 -0.15300
H 	H 	0.75490 0.83870 0.39940 0.06600
N 	N 	0.80140 0.97510 0.48364 -0.25700
Fe	Fe	0.30055 0.48001 0.54969 1.17300
Au	Au	0.54982 0.23114 0.54401 0.27000
Au	Au	0.04396 0.23646 0.55265 0.27600
C 	C 	0.14110 0.33430 0.54960 -0.04300
C 	C 	0.45100 0.32530 0.55120 -0.04500
C 	C 	0.45230 0.63450 0.55590 -0.03800
C 	C 	0.14970 0.63590 0.54130 -0.04400
N 	N 	0.20020 0.38840 0.54797 -0.24700
N 	N 	0.39470 0.38200 0.55377 -0.24400
N 	N 	0.39880 0.57390 0.55424 -0.24400
N 	N 	0.20640 0.57900 0.54336 -0.24500
N 	N 	0.30200 0.48440 0.61549 -0.25500
C 	C 	0.22110 0.48830 0.63410 0.07800
H 	H 	0.16320 0.48480 0.61550 -0.02000
C 	C 	0.21760 0.49730 0.67900 -0.14200
H 	H 	0.15840 0.50070 0.69070 0.07100
C 	C 	0.30140 0.50140 0.70700 0.07000
C 	C 	0.38530 0.49430 0.68810 -0.13700
H 	H 	0.44400 0.49530 0.70610 0.09100
C 	C 	0.38330 0.48560 0.64270 0.07500
H 	H 	0.44150 0.48030 0.63020 -0.00300
C 	C 	0.29870 0.51470 0.75530 0.03800
C 	C 	0.22610 0.56530 0.77160 -0.05600
H 	H 	0.17690 0.59230 0.75230 0.04400
N 	N 	0.36980 0.48390 0.82580 -0.08700
N 	N 	0.36930 0.47780 0.78170 -0.08700
C 	C 	0.22850 0.57450 0.81620 -0.05400
H 	H 	0.18170 0.60940 0.82880 0.04100
C 	C 	0.30120 0.53150 0.84260 0.03200
C 	C 	0.30380 0.53120 0.89150 0.06700
C 	C 	0.33290 0.45320 0.91560 -0.14300
H 	H 	0.35550 0.40070 0.90120 0.06900
C 	C 	0.32890 0.45210 0.96070 0.07200
H 	H 	0.34660 0.39700 0.97640 -0.03100
C 	C 	0.27670 0.60110 0.96020 0.06300
H 	H 	0.25920 0.65450 0.97560 -0.02100
C 	C 	0.27530 0.60630 0.91460 -0.15300
H 	H 	0.25490 0.66130 0.89940 0.06600
N 	N 	0.30140 0.52490 0.98364 -0.25700
Fe	Fe	0.80055 0.98001 0.54969 1.17300
Au	Au	0.04982 0.73114 0.54401 0.27000
Au	Au	0.54396 0.73646 0.55265 0.27600
C 	C 	0.64110 0.83430 0.54960 -0.04300
C 	C 	0.95100 0.82530 0.55120 -0.04500
C 	C 	0.95230 0.13450 0.55590 -0.03800
C 	C 	0.64970 0.13590 0.54130 -0.04400
N 	N 	0.70020 0.88840 0.54797 -0.24700
N 	N 	0.89470 0.88200 0.55377 -0.24400
N 	N 	0.89880 0.07390 0.55424 -0.24400
N 	N 	0.70640 0.07900 0.54336 -0.24500
N 	N 	0.80200 0.98440 0.61549 -0.25500
C 	C 	0.72110 0.98830 0.63410 0.07800
H 	H 	0.66320 0.98480 0.61550 -0.02000
C 	C 	0.71760 0.99730 0.67900 -0.14200
H 	H 	0.65840 0.00070 0.69070 0.07100
C 	C 	0.80140 0.00140 0.70700 0.07100
C 	C 	0.88530 0.99430 0.68810 -0.13700
H 	H 	0.94400 0.99530 0.70610 0.09100
C 	C 	0.88330 0.98560 0.64270 0.07500
H 	H 	0.94150 0.98030 0.63020 -0.00300
C 	C 	0.79870 0.01470 0.75530 0.03800
C 	C 	0.72610 0.06530 0.77160 -0.05600
H 	H 	0.67690 0.09230 0.75230 0.04400
N 	N 	0.86980 0.98390 0.82580 -0.08700
N 	N 	0.86930 0.97780 0.78170 -0.08700
C 	C 	0.72850 0.07450 0.81620 -0.05400
H 	H 	0.68170 0.10940 0.82880 0.04100
C 	C 	0.80120 0.03150 0.84260 0.03200
C 	C 	0.80380 0.03120 0.89150 0.06700
C 	C 	0.83290 0.95320 0.91560 -0.14400
H 	H 	0.85550 0.90070 0.90120 0.06900
C 	C 	0.82890 0.95210 0.96070 0.07200
H 	H 	0.84660 0.89700 0.97640 -0.03100
C 	C 	0.77670 0.10110 0.96020 0.06300
H 	H 	0.75920 0.15450 0.97560 -0.02100
C 	C 	0.77530 0.10630 0.91460 -0.15400
H 	H 	0.75490 0.16130 0.89940 0.06600
N 	N 	0.80140 0.02490 0.98364 -0.25600
