data_crystal

_cell_length_a 43.10760
_cell_length_b 14.63160
_cell_length_c 32.32100
_cell_angle_alpha 90.00000
_cell_angle_beta  109.49000
_cell_angle_gamma 90.00000

_symmetry_space_group_name_	'P 1'
_symmetry_space_group_name_H-M	'P 1'

loop_
_symmetry_equiv_pos_as_xyz
  x,y,z

loop_
_atom_site_label
_atom_site_type_symbol
_atom_site_fract_x
_atom_site_fract_y
_atom_site_fract_z
_atom_site_charge
C 	C 	0.04760 0.88630 0.04210 -0.04300
C 	C 	0.95360 0.88200 0.05710 -0.02600
C 	C 	0.95230 0.57890 0.05290 -0.03800
C 	C 	0.05350 0.58450 0.05060 -0.04400
C 	C 	0.11680 0.38490 0.05530 -0.03600
C 	C 	0.21140 0.38160 0.03950 -0.03500
C 	C 	0.21700 0.08830 0.04870 -0.03700
C 	C 	0.11550 0.07720 0.05110 -0.04400
C 	C 	0.00450 0.73820 0.14370 0.07800
H 	H 	0.98130 0.73510 0.13130 -0.00700
C 	C 	0.05500 0.73910 0.13510 0.07700
H 	H 	0.06790 0.73530 0.11640 -0.02100
C 	C 	0.01860 0.74530 0.18920 -0.13700
H 	H 	0.00520 0.74470 0.20730 0.09100
C 	C 	0.07090 0.74760 0.17950 -0.14100
H 	H 	0.09430 0.74980 0.19100 0.07000
C 	C 	0.05240 0.75310 0.20760 0.06900
C 	C 	0.06880 0.76490 0.25550 0.03800
C 	C 	0.09830 0.81450 0.27190 -0.05600
H 	H 	0.10810 0.84170 0.25270 0.04400
C 	C 	0.11230 0.82250 0.31620 -0.05500
H 	H 	0.13220 0.85570 0.32890 0.04100
C 	C 	0.09650 0.78050 0.34250 0.03500
C 	C 	0.11150 0.78120 0.39090 0.06600
C 	C 	0.10950 0.70540 0.41480 -0.14500
H 	H 	0.09720 0.65380 0.40050 0.06900
C 	C 	0.12870 0.85520 0.41400 -0.15000
H 	H 	0.13050 0.90940 0.39890 0.06500
C 	C 	0.12540 0.70400 0.46010 0.07600
H 	H 	0.12420 0.64990 0.47570 -0.03300
C 	C 	0.14330 0.85030 0.45940 0.05700
H 	H 	0.15450 0.90250 0.47470 -0.01900
C 	C 	0.16880 0.23810 0.14210 0.07700
H 	H 	0.14550 0.23220 0.13000 -0.00500
C 	C 	0.21910 0.24060 0.13320 0.07800
H 	H 	0.23190 0.23650 0.11430 -0.02100
C 	C 	0.18300 0.24720 0.18720 -0.13700
H 	H 	0.16970 0.24850 0.20540 0.09100
C 	C 	0.23550 0.24950 0.17720 -0.14400
H 	H 	0.25880 0.25220 0.18830 0.07100
C 	C 	0.21710 0.25450 0.20550 0.06800
C 	C 	0.23420 0.26680 0.25350 0.04000
C 	C 	0.26360 0.31290 0.26940 -0.05900
H 	H 	0.27350 0.33800 0.24980 0.04500
C 	C 	0.27820 0.32190 0.31340 -0.05200
H 	H 	0.29860 0.35310 0.32570 0.04000
C 	C 	0.26170 0.28270 0.34020 0.03200
C 	C 	0.27690 0.28400 0.38850 0.06800
C 	C 	0.27240 0.21180 0.41290 -0.14800
H 	H 	0.25820 0.16280 0.39910 0.07300
C 	C 	0.29610 0.35550 0.41130 -0.15200
H 	H 	0.29910 0.40840 0.39600 0.06600
C 	C 	0.28850 0.21060 0.45760 0.07800
H 	H 	0.28550 0.15860 0.47340 -0.03300
C 	C 	0.31090 0.34970 0.45590 0.05700
H 	H 	0.32390 0.39980 0.47080 -0.02100
N 	N 	0.03010 0.82950 0.04410 -0.24500
N 	N 	0.97003 0.82430 0.05530 -0.24900
N 	N 	0.97142 0.63340 0.05490 -0.24700
N 	N 	0.03391 0.63840 0.04890 -0.24300
N 	N 	0.13353 0.32560 0.05360 -0.24400
N 	N 	0.19345 0.32830 0.04170 -0.25000
N 	N 	0.19703 0.14020 0.04670 -0.24900
N 	N 	0.13460 0.13260 0.05370 -0.24100
N 	N 	0.02224 0.73580 0.11700 -0.25400
N 	N 	0.05420 0.72980 0.28200 -0.08700
N 	N 	0.06860 0.73620 0.32610 -0.08900
N 	N 	0.14218 0.77420 0.48230 -0.25400
N 	N 	0.18616 0.23710 0.11470 -0.25400
N 	N 	0.21900 0.23340 0.27980 -0.08700
N 	N 	0.23330 0.24030 0.32380 -0.08800
N 	N 	0.30790 0.27660 0.48010 -0.24800
Fe	Fe	0.00111 0.73091 0.05090 1.16800
Fe	Fe	0.16455 0.23131 0.04874 1.16800
Au	Au	0.08117 0.98247 0.04453 0.26800
Au	Au	0.08585 0.48708 0.05257 0.27400
Au	Au	0.24639 0.47770 0.04347 0.27000
C 	C 	0.54760 0.38630 0.04210 -0.04200
C 	C 	0.45360 0.38200 0.05710 -0.02500
C 	C 	0.45230 0.07890 0.05290 -0.03600
C 	C 	0.55350 0.08450 0.05060 -0.04200
C 	C 	0.61680 0.88490 0.05530 -0.03500
C 	C 	0.71140 0.88160 0.03950 -0.03400
C 	C 	0.71700 0.58830 0.04870 -0.03600
C 	C 	0.61550 0.57720 0.05110 -0.04300
C 	C 	0.50450 0.23820 0.14370 0.07900
H 	H 	0.48130 0.23510 0.13130 -0.00600
C 	C 	0.55500 0.23910 0.13510 0.07700
H 	H 	0.56790 0.23530 0.11640 -0.02100
C 	C 	0.51860 0.24530 0.18920 -0.13800
H 	H 	0.50520 0.24470 0.20730 0.09100
C 	C 	0.57090 0.24760 0.17950 -0.14100
H 	H 	0.59430 0.24980 0.19100 0.07000
C 	C 	0.55240 0.25310 0.20760 0.06900
C 	C 	0.56880 0.26490 0.25550 0.03800
C 	C 	0.59830 0.31450 0.27190 -0.05600
H 	H 	0.60810 0.34170 0.25270 0.04400
C 	C 	0.61230 0.32250 0.31620 -0.05500
H 	H 	0.63220 0.35570 0.32890 0.04100
C 	C 	0.59650 0.28050 0.34250 0.03500
C 	C 	0.61150 0.28120 0.39090 0.06600
C 	C 	0.60950 0.20540 0.41480 -0.14500
H 	H 	0.59720 0.15380 0.40050 0.06900
C 	C 	0.62870 0.35520 0.41400 -0.15000
H 	H 	0.63050 0.40940 0.39890 0.06500
C 	C 	0.62540 0.20400 0.46010 0.07600
H 	H 	0.62420 0.14990 0.47570 -0.03300
C 	C 	0.64330 0.35030 0.45940 0.05700
H 	H 	0.65450 0.40250 0.47470 -0.01900
C 	C 	0.66880 0.73810 0.14210 0.07700
H 	H 	0.64550 0.73220 0.13000 -0.00500
C 	C 	0.71910 0.74060 0.13320 0.07800
H 	H 	0.73190 0.73650 0.11430 -0.02100
C 	C 	0.68300 0.74720 0.18720 -0.13700
H 	H 	0.66970 0.74850 0.20540 0.09100
C 	C 	0.73550 0.74950 0.17720 -0.14400
H 	H 	0.75880 0.75220 0.18830 0.07100
C 	C 	0.71710 0.75450 0.20550 0.06800
C 	C 	0.73420 0.76680 0.25350 0.04000
C 	C 	0.76360 0.81290 0.26940 -0.05900
H 	H 	0.77350 0.83800 0.24980 0.04500
C 	C 	0.77820 0.82190 0.31340 -0.05200
H 	H 	0.79860 0.85310 0.32570 0.04000
C 	C 	0.76170 0.78270 0.34020 0.03200
C 	C 	0.77690 0.78400 0.38850 0.06800
C 	C 	0.77240 0.71180 0.41290 -0.14800
H 	H 	0.75820 0.66280 0.39910 0.07300
C 	C 	0.79610 0.85550 0.41130 -0.15200
H 	H 	0.79910 0.90840 0.39600 0.06600
C 	C 	0.78850 0.71060 0.45760 0.07800
H 	H 	0.78550 0.65860 0.47340 -0.03300
C 	C 	0.81090 0.84970 0.45590 0.05700
H 	H 	0.82390 0.89980 0.47080 -0.02100
N 	N 	0.53010 0.32950 0.04410 -0.24500
N 	N 	0.47003 0.32430 0.05530 -0.24900
N 	N 	0.47142 0.13340 0.05490 -0.24700
N 	N 	0.53391 0.13840 0.04890 -0.24300
N 	N 	0.63353 0.82560 0.05360 -0.24400
N 	N 	0.69345 0.82830 0.04170 -0.25000
N 	N 	0.69703 0.64020 0.04670 -0.24900
N 	N 	0.63460 0.63260 0.05370 -0.24100
N 	N 	0.52224 0.23580 0.11700 -0.25400
N 	N 	0.55420 0.22980 0.28200 -0.08700
N 	N 	0.56860 0.23620 0.32610 -0.08900
N 	N 	0.64218 0.27420 0.48230 -0.25400
N 	N 	0.68616 0.73710 0.11470 -0.25400
N 	N 	0.71900 0.73340 0.27980 -0.08700
N 	N 	0.73330 0.74030 0.32380 -0.08800
N 	N 	0.80790 0.77660 0.48010 -0.24800
Fe	Fe	0.50111 0.23091 0.05090 1.16900
Fe	Fe	0.66455 0.73131 0.04874 1.16800
Au	Au	0.58117 0.48247 0.04453 0.26800
Au	Au	0.58585 0.98708 0.05257 0.27400
Au	Au	0.74639 0.97770 0.04347 0.27000
C 	C 	0.88870 0.92130 0.54910 -0.06000
C 	C 	0.88280 0.60690 0.54100 -0.06000
C 	C 	0.78220 0.60700 0.55630 -0.05200
C 	C 	0.78060 0.93190 0.55210 -0.06300
C 	C 	0.88880 0.76140 0.63770 0.08100
H 	H 	0.90170 0.76660 0.61900 -0.02200
C 	C 	0.83900 0.75930 0.64710 0.07900
H 	H 	0.81560 0.76210 0.63490 -0.00600
C 	C 	0.90480 0.75160 0.68180 -0.14700
H 	H 	0.92810 0.74930 0.69310 0.07300
C 	C 	0.85280 0.75070 0.69200 -0.14100
H 	H 	0.83930 0.74860 0.71000 0.09200
C 	C 	0.88660 0.74520 0.71010 0.07400
C 	C 	0.90380 0.73180 0.75780 0.03600
C 	C 	0.93290 0.68320 0.77380 -0.05500
H 	H 	0.94260 0.65610 0.75440 0.04400
C 	C 	0.94730 0.67500 0.81800 -0.05500
H 	H 	0.96710 0.64140 0.83020 0.04100
C 	C 	0.93200 0.71750 0.84500 0.03300
C 	C 	0.94710 0.71780 0.89340 0.06600
C 	C 	0.96430 0.64340 0.91610 -0.15100
H 	H 	0.96590 0.58890 0.90100 0.06500
C 	C 	0.94570 0.79560 0.91740 -0.14700
H 	H 	0.93360 0.84760 0.90330 0.06900
C 	C 	0.97900 0.64900 0.96100 0.05700
H 	H 	0.98990 0.59640 0.97620 -0.01900
C 	C 	0.96250 0.79570 0.96220 0.08100
H 	H 	0.96210 0.85050 0.97780 -0.03400
N 	N 	0.86810 0.86650 0.54760 -0.22700
N 	N 	0.86380 0.66460 0.54130 -0.22800
N 	N 	0.79980 0.66850 0.55610 -0.22600
N 	N 	0.80090 0.87580 0.55570 -0.22200
N 	N 	0.85618 0.76400 0.61960 -0.24700
N 	N 	0.88910 0.76870 0.78450 -0.08600
N 	N 	0.90380 0.76130 0.82840 -0.08800
N 	N 	0.97880 0.72580 0.98480 -0.25600
Fe	Fe	0.83276 0.76914 0.54985 1.12800
Au	Au	0.92114 0.01581 0.55307 0.27600
Au	Au	0.91672 0.51568 0.54456 0.27100
Au	Au	0.75091 0.50888 0.55223 0.27700
C 	C 	0.38870 0.42130 0.54910 -0.06000
C 	C 	0.38280 0.10690 0.54100 -0.06000
C 	C 	0.28220 0.10700 0.55630 -0.05200
C 	C 	0.28060 0.43190 0.55210 -0.06300
C 	C 	0.38880 0.26140 0.63770 0.08100
H 	H 	0.40170 0.26660 0.61900 -0.02200
C 	C 	0.33900 0.25930 0.64710 0.07900
H 	H 	0.31560 0.26210 0.63490 -0.00600
C 	C 	0.40480 0.25160 0.68180 -0.14700
H 	H 	0.42810 0.24930 0.69310 0.07300
C 	C 	0.35280 0.25070 0.69200 -0.14100
H 	H 	0.33930 0.24860 0.71000 0.09200
C 	C 	0.38660 0.24520 0.71010 0.07400
C 	C 	0.40380 0.23180 0.75780 0.03600
C 	C 	0.43290 0.18320 0.77380 -0.05500
H 	H 	0.44260 0.15610 0.75440 0.04400
C 	C 	0.44730 0.17500 0.81800 -0.05500
H 	H 	0.46710 0.14140 0.83020 0.04100
C 	C 	0.43200 0.21750 0.84500 0.03300
C 	C 	0.44710 0.21780 0.89340 0.06600
C 	C 	0.46430 0.14340 0.91610 -0.15100
H 	H 	0.46590 0.08890 0.90100 0.06500
C 	C 	0.44570 0.29560 0.91740 -0.14700
H 	H 	0.43360 0.34760 0.90330 0.06900
C 	C 	0.47900 0.14900 0.96100 0.05700
H 	H 	0.48990 0.09640 0.97620 -0.01900
C 	C 	0.46250 0.29570 0.96220 0.08100
H 	H 	0.46210 0.35050 0.97780 -0.03400
N 	N 	0.36810 0.36650 0.54760 -0.22700
N 	N 	0.36380 0.16460 0.54130 -0.22800
N 	N 	0.29980 0.16850 0.55610 -0.22600
N 	N 	0.30090 0.37580 0.55570 -0.22200
N 	N 	0.35618 0.26400 0.61960 -0.24700
N 	N 	0.38910 0.26870 0.78450 -0.08600
N 	N 	0.40380 0.26130 0.82840 -0.08800
N 	N 	0.47880 0.22580 0.98480 -0.25600
Fe	Fe	0.33276 0.26914 0.54985 1.12800
Au	Au	0.42114 0.51581 0.55307 0.27600
Au	Au	0.41672 0.01568 0.54457 0.27100
Au	Au	0.25091 0.00888 0.55223 0.27700
C 	C 	0.88870 0.07870 0.04910 -0.06000
C 	C 	0.88280 0.39310 0.04100 -0.06000
C 	C 	0.78220 0.39300 0.05630 -0.05200
C 	C 	0.78060 0.06810 0.05210 -0.06200
C 	C 	0.88880 0.23860 0.13770 0.08100
H 	H 	0.90170 0.23340 0.11900 -0.02200
C 	C 	0.83900 0.24070 0.14710 0.07900
H 	H 	0.81560 0.23790 0.13490 -0.00600
C 	C 	0.90480 0.24840 0.18180 -0.14700
H 	H 	0.92810 0.25070 0.19310 0.07300
C 	C 	0.85280 0.24930 0.19200 -0.14100
H 	H 	0.83930 0.25140 0.21000 0.09200
C 	C 	0.88660 0.25480 0.21010 0.07400
C 	C 	0.90380 0.26820 0.25780 0.03600
C 	C 	0.93290 0.31680 0.27380 -0.05500
H 	H 	0.94260 0.34390 0.25440 0.04400
C 	C 	0.94730 0.32500 0.31800 -0.05500
H 	H 	0.96710 0.35860 0.33020 0.04100
C 	C 	0.93200 0.28250 0.34500 0.03300
C 	C 	0.94710 0.28220 0.39340 0.06600
C 	C 	0.96430 0.35660 0.41610 -0.15100
H 	H 	0.96590 0.41110 0.40100 0.06500
C 	C 	0.94570 0.20440 0.41740 -0.14700
H 	H 	0.93360 0.15240 0.40330 0.06900
C 	C 	0.97900 0.35100 0.46100 0.05700
H 	H 	0.98990 0.40360 0.47620 -0.01900
C 	C 	0.96250 0.20430 0.46220 0.08100
H 	H 	0.96210 0.14950 0.47780 -0.03400
N 	N 	0.86810 0.13350 0.04760 -0.22700
N 	N 	0.86380 0.33540 0.04130 -0.22800
N 	N 	0.79980 0.33150 0.05610 -0.22600
N 	N 	0.80090 0.12420 0.05570 -0.22200
N 	N 	0.85618 0.23600 0.11960 -0.24700
N 	N 	0.88910 0.23130 0.28450 -0.08600
N 	N 	0.90380 0.23870 0.32840 -0.08800
N 	N 	0.97880 0.27420 0.48480 -0.25600
Fe	Fe	0.83276 0.23086 0.04985 1.12800
Au	Au	0.92114 0.98419 0.05307 0.27600
Au	Au	0.91672 0.48432 0.04456 0.27100
Au	Au	0.75091 0.49112 0.05223 0.27700
C 	C 	0.38870 0.57870 0.04910 -0.06000
C 	C 	0.38280 0.89310 0.04100 -0.06000
C 	C 	0.28220 0.89300 0.05630 -0.05200
C 	C 	0.28060 0.56810 0.05210 -0.06300
C 	C 	0.38880 0.73860 0.13770 0.08100
H 	H 	0.40170 0.73340 0.11900 -0.02200
C 	C 	0.33900 0.74070 0.14710 0.07900
H 	H 	0.31560 0.73790 0.13490 -0.00600
C 	C 	0.40480 0.74840 0.18180 -0.14700
H 	H 	0.42810 0.75070 0.19310 0.07300
C 	C 	0.35280 0.74930 0.19200 -0.14100
H 	H 	0.33930 0.75140 0.21000 0.09200
C 	C 	0.38660 0.75480 0.21010 0.07400
C 	C 	0.40380 0.76820 0.25780 0.03600
C 	C 	0.43290 0.81680 0.27380 -0.05500
H 	H 	0.44260 0.84390 0.25440 0.04400
C 	C 	0.44730 0.82500 0.31800 -0.05500
H 	H 	0.46710 0.85860 0.33020 0.04100
C 	C 	0.43200 0.78250 0.34500 0.03300
C 	C 	0.44710 0.78220 0.39340 0.06600
C 	C 	0.46430 0.85660 0.41610 -0.15100
H 	H 	0.46590 0.91110 0.40100 0.06500
C 	C 	0.44570 0.70440 0.41740 -0.14700
H 	H 	0.43360 0.65240 0.40330 0.06900
C 	C 	0.47900 0.85100 0.46100 0.05700
H 	H 	0.48990 0.90360 0.47620 -0.01900
C 	C 	0.46250 0.70430 0.46220 0.08100
H 	H 	0.46210 0.64950 0.47780 -0.03400
N 	N 	0.36810 0.63350 0.04760 -0.22700
N 	N 	0.36380 0.83540 0.04130 -0.22800
N 	N 	0.29980 0.83150 0.05610 -0.22600
N 	N 	0.30090 0.62420 0.05570 -0.22200
N 	N 	0.35618 0.73600 0.11960 -0.24700
N 	N 	0.38910 0.73130 0.28450 -0.08600
N 	N 	0.40380 0.73870 0.32840 -0.08800
N 	N 	0.47880 0.77420 0.48480 -0.25600
Fe	Fe	0.33276 0.73086 0.04985 1.12800
Au	Au	0.42114 0.48419 0.05307 0.27600
Au	Au	0.41672 0.98432 0.04457 0.27000
Au	Au	0.25091 0.99112 0.05223 0.27600
C 	C 	0.04760 0.11370 0.54210 -0.04200
C 	C 	0.95360 0.11800 0.55710 -0.02500
C 	C 	0.95230 0.42110 0.55290 -0.03700
C 	C 	0.05350 0.41550 0.55060 -0.04300
C 	C 	0.11680 0.61510 0.55530 -0.03500
C 	C 	0.21140 0.61840 0.53950 -0.03400
C 	C 	0.21700 0.91170 0.54870 -0.03600
C 	C 	0.11550 0.92280 0.55110 -0.04300
C 	C 	0.00450 0.26180 0.64370 0.07900
H 	H 	0.98130 0.26490 0.63130 -0.00600
C 	C 	0.05500 0.26090 0.63510 0.07700
H 	H 	0.06790 0.26470 0.61640 -0.02100
C 	C 	0.01860 0.25470 0.68920 -0.13800
H 	H 	0.00520 0.25530 0.70730 0.09100
C 	C 	0.07090 0.25240 0.67950 -0.14100
H 	H 	0.09430 0.25020 0.69100 0.07000
C 	C 	0.05240 0.24690 0.70760 0.06900
C 	C 	0.06880 0.23510 0.75550 0.03800
C 	C 	0.09830 0.18550 0.77190 -0.05600
H 	H 	0.10810 0.15830 0.75270 0.04400
C 	C 	0.11230 0.17750 0.81620 -0.05500
H 	H 	0.13220 0.14430 0.82890 0.04100
C 	C 	0.09650 0.21950 0.84250 0.03500
C 	C 	0.11150 0.21880 0.89090 0.06600
C 	C 	0.10950 0.29460 0.91480 -0.14500
H 	H 	0.09720 0.34620 0.90050 0.06900
C 	C 	0.12870 0.14480 0.91400 -0.15000
H 	H 	0.13050 0.09060 0.89890 0.06500
C 	C 	0.12540 0.29600 0.96010 0.07600
H 	H 	0.12420 0.35010 0.97570 -0.03300
C 	C 	0.14330 0.14970 0.95940 0.05700
H 	H 	0.15450 0.09750 0.97470 -0.01900
C 	C 	0.16880 0.76190 0.64210 0.07700
H 	H 	0.14550 0.76780 0.63000 -0.00500
C 	C 	0.21910 0.75940 0.63320 0.07800
H 	H 	0.23190 0.76350 0.61430 -0.02100
C 	C 	0.18300 0.75280 0.68720 -0.13700
H 	H 	0.16970 0.75150 0.70540 0.09100
C 	C 	0.23550 0.75050 0.67720 -0.14400
H 	H 	0.25880 0.74780 0.68830 0.07100
C 	C 	0.21710 0.74550 0.70550 0.06800
C 	C 	0.23420 0.73320 0.75350 0.04000
C 	C 	0.26360 0.68710 0.76940 -0.05900
H 	H 	0.27350 0.66200 0.74980 0.04500
C 	C 	0.27820 0.67810 0.81340 -0.05200
H 	H 	0.29860 0.64690 0.82570 0.04000
C 	C 	0.26170 0.71730 0.84020 0.03200
C 	C 	0.27690 0.71600 0.88850 0.06800
C 	C 	0.27240 0.78820 0.91290 -0.14800
H 	H 	0.25820 0.83720 0.89910 0.07300
C 	C 	0.29610 0.64450 0.91130 -0.15200
H 	H 	0.29910 0.59160 0.89600 0.06600
C 	C 	0.28850 0.78940 0.95760 0.07800
H 	H 	0.28550 0.84140 0.97340 -0.03300
C 	C 	0.31090 0.65030 0.95590 0.05800
H 	H 	0.32390 0.60020 0.97080 -0.02000
N 	N 	0.03010 0.17050 0.54410 -0.24500
N 	N 	0.97003 0.17570 0.55530 -0.24900
N 	N 	0.97142 0.36660 0.55490 -0.24700
N 	N 	0.03391 0.36160 0.54890 -0.24300
N 	N 	0.13353 0.67440 0.55360 -0.24400
N 	N 	0.19345 0.67170 0.54170 -0.25000
N 	N 	0.19703 0.85980 0.54670 -0.24900
N 	N 	0.13460 0.86740 0.55370 -0.24100
N 	N 	0.02224 0.26420 0.61700 -0.25400
N 	N 	0.05420 0.27020 0.78200 -0.08700
N 	N 	0.06860 0.26380 0.82610 -0.08900
N 	N 	0.14218 0.22580 0.98230 -0.25400
N 	N 	0.18616 0.76290 0.61470 -0.25400
N 	N 	0.21900 0.76660 0.77980 -0.08700
N 	N 	0.23330 0.75970 0.82380 -0.08800
N 	N 	0.30790 0.72340 0.98010 -0.24800
Fe	Fe	0.00111 0.26909 0.55090 1.16800
Fe	Fe	0.16455 0.76869 0.54874 1.16800
Au	Au	0.08117 0.01753 0.54453 0.26800
Au	Au	0.08585 0.51292 0.55258 0.27400
Au	Au	0.24639 0.52230 0.54347 0.27000
C 	C 	0.54760 0.61370 0.54210 -0.04200
C 	C 	0.45360 0.61800 0.55710 -0.02500
C 	C 	0.45230 0.92110 0.55290 -0.03700
C 	C 	0.55350 0.91550 0.55060 -0.04300
C 	C 	0.61680 0.11510 0.55530 -0.03500
C 	C 	0.71140 0.11840 0.53950 -0.03400
C 	C 	0.71700 0.41170 0.54870 -0.03600
C 	C 	0.61550 0.42280 0.55110 -0.04300
C 	C 	0.50450 0.76180 0.64370 0.07900
H 	H 	0.48130 0.76490 0.63130 -0.00600
C 	C 	0.55500 0.76090 0.63510 0.07700
H 	H 	0.56790 0.76470 0.61640 -0.02100
C 	C 	0.51860 0.75470 0.68920 -0.13800
H 	H 	0.50520 0.75530 0.70730 0.09100
C 	C 	0.57090 0.75240 0.67950 -0.14100
H 	H 	0.59430 0.75020 0.69100 0.07000
C 	C 	0.55240 0.74690 0.70760 0.06900
C 	C 	0.56880 0.73510 0.75550 0.03800
C 	C 	0.59830 0.68550 0.77190 -0.05600
H 	H 	0.60810 0.65830 0.75270 0.04400
C 	C 	0.61230 0.67750 0.81620 -0.05500
H 	H 	0.63220 0.64430 0.82890 0.04100
C 	C 	0.59650 0.71950 0.84250 0.03500
C 	C 	0.61150 0.71880 0.89090 0.06600
C 	C 	0.60950 0.79460 0.91480 -0.14500
H 	H 	0.59720 0.84620 0.90050 0.06900
C 	C 	0.62870 0.64480 0.91400 -0.15000
H 	H 	0.63050 0.59060 0.89890 0.06500
C 	C 	0.62540 0.79600 0.96010 0.07600
H 	H 	0.62420 0.85010 0.97570 -0.03300
C 	C 	0.64330 0.64970 0.95940 0.05800
H 	H 	0.65450 0.59750 0.97470 -0.01900
C 	C 	0.66880 0.26190 0.64210 0.07700
H 	H 	0.64550 0.26780 0.63000 -0.00500
C 	C 	0.71910 0.25940 0.63320 0.07800
H 	H 	0.73190 0.26350 0.61430 -0.02100
C 	C 	0.68300 0.25280 0.68720 -0.13700
H 	H 	0.66970 0.25150 0.70540 0.09100
C 	C 	0.73550 0.25050 0.67720 -0.14400
H 	H 	0.75880 0.24780 0.68830 0.07100
C 	C 	0.71710 0.24550 0.70550 0.06800
C 	C 	0.73420 0.23320 0.75350 0.04000
C 	C 	0.76360 0.18710 0.76940 -0.05900
H 	H 	0.77350 0.16200 0.74980 0.04500
C 	C 	0.77820 0.17810 0.81340 -0.05200
H 	H 	0.79860 0.14690 0.82570 0.04000
C 	C 	0.76170 0.21730 0.84020 0.03200
C 	C 	0.77690 0.21600 0.88850 0.06800
C 	C 	0.77240 0.28820 0.91290 -0.14800
H 	H 	0.75820 0.33720 0.89910 0.07300
C 	C 	0.79610 0.14450 0.91130 -0.15200
H 	H 	0.79910 0.09160 0.89600 0.06600
C 	C 	0.78850 0.28940 0.95760 0.07800
H 	H 	0.78550 0.34140 0.97340 -0.03300
C 	C 	0.81090 0.15030 0.95590 0.05700
H 	H 	0.82390 0.10020 0.97080 -0.02100
N 	N 	0.53010 0.67050 0.54410 -0.24500
N 	N 	0.47003 0.67570 0.55530 -0.24900
N 	N 	0.47142 0.86660 0.55490 -0.24700
N 	N 	0.53391 0.86160 0.54890 -0.24300
N 	N 	0.63353 0.17440 0.55360 -0.24400
N 	N 	0.69345 0.17170 0.54170 -0.25000
N 	N 	0.69703 0.35980 0.54670 -0.24900
N 	N 	0.63460 0.36740 0.55370 -0.24100
N 	N 	0.52224 0.76420 0.61700 -0.25400
N 	N 	0.55420 0.77020 0.78200 -0.08700
N 	N 	0.56860 0.76380 0.82610 -0.08900
N 	N 	0.64218 0.72580 0.98230 -0.25400
N 	N 	0.68616 0.26290 0.61470 -0.25400
N 	N 	0.71900 0.26660 0.77980 -0.08700
N 	N 	0.73330 0.25970 0.82380 -0.08800
N 	N 	0.80790 0.22340 0.98010 -0.24900
Fe	Fe	0.50111 0.76909 0.55090 1.16800
Fe	Fe	0.66455 0.26869 0.54874 1.16800
Au	Au	0.58117 0.51753 0.54453 0.26800
Au	Au	0.58585 0.01292 0.55258 0.27400
Au	Au	0.74639 0.02230 0.54347 0.27000
C 	C 	0.11130 0.92130 0.95090 -0.06000
C 	C 	0.11720 0.60690 0.95900 -0.06000
C 	C 	0.21780 0.60700 0.94370 -0.05200
C 	C 	0.21940 0.93190 0.94790 -0.06200
C 	C 	0.11120 0.76140 0.86230 0.08100
H 	H 	0.09830 0.76660 0.88100 -0.02200
C 	C 	0.16100 0.75930 0.85290 0.07900
H 	H 	0.18440 0.76210 0.86510 -0.00600
C 	C 	0.09520 0.75160 0.81820 -0.14700
H 	H 	0.07190 0.74930 0.80690 0.07300
C 	C 	0.14720 0.75070 0.80800 -0.14100
H 	H 	0.16070 0.74860 0.79000 0.09200
C 	C 	0.11340 0.74520 0.78990 0.07400
C 	C 	0.09620 0.73180 0.74220 0.03600
C 	C 	0.06710 0.68320 0.72620 -0.05500
H 	H 	0.05740 0.65610 0.74560 0.04400
C 	C 	0.05270 0.67500 0.68200 -0.05500
H 	H 	0.03290 0.64140 0.66980 0.04100
C 	C 	0.06800 0.71750 0.65500 0.03300
C 	C 	0.05290 0.71780 0.60660 0.06600
C 	C 	0.03570 0.64340 0.58390 -0.15100
H 	H 	0.03410 0.58890 0.59900 0.06500
C 	C 	0.05430 0.79560 0.58260 -0.14700
H 	H 	0.06640 0.84760 0.59670 0.06900
C 	C 	0.02100 0.64900 0.53900 0.05700
H 	H 	0.01010 0.59640 0.52380 -0.01900
C 	C 	0.03750 0.79570 0.53780 0.08100
H 	H 	0.03790 0.85050 0.52220 -0.03400
N 	N 	0.13190 0.86650 0.95240 -0.22700
N 	N 	0.13620 0.66460 0.95870 -0.22800
N 	N 	0.20020 0.66850 0.94390 -0.22600
N 	N 	0.19910 0.87580 0.94430 -0.22200
N 	N 	0.14382 0.76400 0.88040 -0.24700
N 	N 	0.11090 0.76870 0.71550 -0.08600
N 	N 	0.09620 0.76130 0.67160 -0.08800
N 	N 	0.02120 0.72580 0.51520 -0.25600
Fe	Fe	0.16724 0.76914 0.95015 1.12800
Au	Au	0.07886 0.01581 0.94693 0.27600
Au	Au	0.08328 0.51568 0.95544 0.27100
Au	Au	0.24909 0.50888 0.94777 0.27700
C 	C 	0.61130 0.42130 0.95090 -0.06000
C 	C 	0.61720 0.10690 0.95900 -0.06000
C 	C 	0.71780 0.10700 0.94370 -0.05200
C 	C 	0.71940 0.43190 0.94790 -0.06300
C 	C 	0.61120 0.26140 0.86230 0.08100
H 	H 	0.59830 0.26660 0.88100 -0.02200
C 	C 	0.66100 0.25930 0.85290 0.07900
H 	H 	0.68440 0.26210 0.86510 -0.00600
C 	C 	0.59520 0.25160 0.81820 -0.14700
H 	H 	0.57190 0.24930 0.80690 0.07300
C 	C 	0.64720 0.25070 0.80800 -0.14100
H 	H 	0.66070 0.24860 0.79000 0.09200
C 	C 	0.61340 0.24520 0.78990 0.07400
C 	C 	0.59620 0.23180 0.74220 0.03600
C 	C 	0.56710 0.18320 0.72620 -0.05500
H 	H 	0.55740 0.15610 0.74560 0.04400
C 	C 	0.55270 0.17500 0.68200 -0.05500
H 	H 	0.53290 0.14140 0.66980 0.04100
C 	C 	0.56800 0.21750 0.65500 0.03300
C 	C 	0.55290 0.21780 0.60660 0.06600
C 	C 	0.53570 0.14340 0.58390 -0.15100
H 	H 	0.53410 0.08890 0.59900 0.06500
C 	C 	0.55430 0.29560 0.58260 -0.14700
H 	H 	0.56640 0.34760 0.59670 0.06900
C 	C 	0.52100 0.14900 0.53900 0.05700
H 	H 	0.51010 0.09640 0.52380 -0.01900
C 	C 	0.53750 0.29570 0.53780 0.08100
H 	H 	0.53790 0.35050 0.52220 -0.03400
N 	N 	0.63190 0.36650 0.95240 -0.22700
N 	N 	0.63620 0.16460 0.95870 -0.22800
N 	N 	0.70020 0.16850 0.94390 -0.22600
N 	N 	0.69910 0.37580 0.94430 -0.22200
N 	N 	0.64382 0.26400 0.88040 -0.24700
N 	N 	0.61090 0.26870 0.71550 -0.08600
N 	N 	0.59620 0.26130 0.67160 -0.08800
N 	N 	0.52120 0.22580 0.51520 -0.25600
Fe	Fe	0.66724 0.26914 0.95015 1.12800
Au	Au	0.57886 0.51581 0.94693 0.27600
Au	Au	0.58328 0.01568 0.95543 0.27000
Au	Au	0.74909 0.00888 0.94777 0.27600
C 	C 	0.95240 0.88630 0.45790 -0.04200
C 	C 	0.04640 0.88200 0.44290 -0.02500
C 	C 	0.04770 0.57890 0.44710 -0.03700
C 	C 	0.94650 0.58450 0.44940 -0.04300
C 	C 	0.88320 0.38490 0.44470 -0.03500
C 	C 	0.78860 0.38160 0.46050 -0.03400
C 	C 	0.78300 0.08830 0.45130 -0.03600
C 	C 	0.88450 0.07720 0.44890 -0.04300
C 	C 	0.99550 0.73820 0.35630 0.07900
H 	H 	0.01870 0.73510 0.36870 -0.00600
C 	C 	0.94500 0.73910 0.36490 0.07700
H 	H 	0.93210 0.73530 0.38360 -0.02100
C 	C 	0.98140 0.74530 0.31080 -0.13800
H 	H 	0.99480 0.74470 0.29270 0.09100
C 	C 	0.92910 0.74760 0.32050 -0.14100
H 	H 	0.90570 0.74980 0.30900 0.07000
C 	C 	0.94760 0.75310 0.29240 0.06900
C 	C 	0.93120 0.76490 0.24450 0.03800
C 	C 	0.90170 0.81450 0.22810 -0.05600
H 	H 	0.89190 0.84170 0.24730 0.04400
C 	C 	0.88770 0.82250 0.18380 -0.05500
H 	H 	0.86780 0.85570 0.17110 0.04100
C 	C 	0.90350 0.78050 0.15750 0.03500
C 	C 	0.88850 0.78120 0.10910 0.06600
C 	C 	0.89050 0.70540 0.08520 -0.14500
H 	H 	0.90280 0.65380 0.09950 0.06900
C 	C 	0.87130 0.85520 0.08600 -0.15000
H 	H 	0.86950 0.90940 0.10110 0.06500
C 	C 	0.87460 0.70400 0.03990 0.07600
H 	H 	0.87580 0.64990 0.02430 -0.03300
C 	C 	0.85670 0.85030 0.04060 0.05700
H 	H 	0.84550 0.90250 0.02530 -0.01900
C 	C 	0.83120 0.23810 0.35790 0.07700
H 	H 	0.85450 0.23220 0.37000 -0.00500
C 	C 	0.78090 0.24060 0.36680 0.07800
H 	H 	0.76810 0.23650 0.38570 -0.02100
C 	C 	0.81700 0.24720 0.31280 -0.13700
H 	H 	0.83030 0.24850 0.29460 0.09100
C 	C 	0.76450 0.24950 0.32280 -0.14400
H 	H 	0.74120 0.25220 0.31170 0.07100
C 	C 	0.78290 0.25450 0.29450 0.06800
C 	C 	0.76580 0.26680 0.24650 0.04000
C 	C 	0.73640 0.31290 0.23060 -0.05900
H 	H 	0.72650 0.33800 0.25020 0.04500
C 	C 	0.72180 0.32190 0.18660 -0.05200
H 	H 	0.70140 0.35310 0.17430 0.04000
C 	C 	0.73830 0.28270 0.15980 0.03200
C 	C 	0.72310 0.28400 0.11150 0.06800
C 	C 	0.72760 0.21180 0.08710 -0.14800
H 	H 	0.74180 0.16280 0.10090 0.07300
C 	C 	0.70390 0.35550 0.08870 -0.15200
H 	H 	0.70090 0.40840 0.10400 0.06600
C 	C 	0.71150 0.21060 0.04240 0.07800
H 	H 	0.71450 0.15860 0.02660 -0.03300
C 	C 	0.68910 0.34970 0.04410 0.05800
H 	H 	0.67610 0.39980 0.02920 -0.02000
N 	N 	0.96990 0.82950 0.45590 -0.24500
N 	N 	0.02997 0.82430 0.44470 -0.24900
N 	N 	0.02858 0.63340 0.44510 -0.24700
N 	N 	0.96609 0.63840 0.45110 -0.24300
N 	N 	0.86647 0.32560 0.44640 -0.24400
N 	N 	0.80655 0.32830 0.45830 -0.25000
N 	N 	0.80297 0.14020 0.45330 -0.24900
N 	N 	0.86540 0.13260 0.44630 -0.24100
N 	N 	0.97776 0.73580 0.38300 -0.25400
N 	N 	0.94580 0.72980 0.21800 -0.08700
N 	N 	0.93140 0.73620 0.17390 -0.08900
N 	N 	0.85782 0.77420 0.01770 -0.25400
N 	N 	0.81384 0.23710 0.38530 -0.25400
N 	N 	0.78100 0.23340 0.22020 -0.08700
N 	N 	0.76670 0.24030 0.17620 -0.08800
N 	N 	0.69210 0.27660 0.01990 -0.24800
Fe	Fe	0.99889 0.73091 0.44910 1.16800
Fe	Fe	0.83545 0.23131 0.45126 1.16800
Au	Au	0.91883 0.98247 0.45547 0.26800
Au	Au	0.91415 0.48708 0.44742 0.27400
Au	Au	0.75361 0.47770 0.45653 0.27000
C 	C 	0.45240 0.38630 0.45790 -0.04200
C 	C 	0.54640 0.38200 0.44290 -0.02500
C 	C 	0.54770 0.07890 0.44710 -0.03700
C 	C 	0.44650 0.08450 0.44940 -0.04300
C 	C 	0.38320 0.88490 0.44470 -0.03500
C 	C 	0.28860 0.88160 0.46050 -0.03400
C 	C 	0.28300 0.58830 0.45130 -0.03600
C 	C 	0.38450 0.57720 0.44890 -0.04300
C 	C 	0.49550 0.23820 0.35630 0.07900
H 	H 	0.51870 0.23510 0.36870 -0.00600
C 	C 	0.44500 0.23910 0.36490 0.07700
H 	H 	0.43210 0.23530 0.38360 -0.02100
C 	C 	0.48140 0.24530 0.31080 -0.13800
H 	H 	0.49480 0.24470 0.29270 0.09100
C 	C 	0.42910 0.24760 0.32050 -0.14100
H 	H 	0.40570 0.24980 0.30900 0.07000
C 	C 	0.44760 0.25310 0.29240 0.06900
C 	C 	0.43120 0.26490 0.24450 0.03800
C 	C 	0.40170 0.31450 0.22810 -0.05600
H 	H 	0.39190 0.34170 0.24730 0.04400
C 	C 	0.38770 0.32250 0.18380 -0.05500
H 	H 	0.36780 0.35570 0.17110 0.04100
C 	C 	0.40350 0.28050 0.15750 0.03500
C 	C 	0.38850 0.28120 0.10910 0.06600
C 	C 	0.39050 0.20540 0.08520 -0.14500
H 	H 	0.40280 0.15380 0.09950 0.06900
C 	C 	0.37130 0.35520 0.08600 -0.15000
H 	H 	0.36950 0.40940 0.10110 0.06500
C 	C 	0.37460 0.20400 0.03990 0.07600
H 	H 	0.37580 0.14990 0.02430 -0.03300
C 	C 	0.35670 0.35030 0.04060 0.05800
H 	H 	0.34550 0.40250 0.02530 -0.01900
C 	C 	0.33120 0.73810 0.35790 0.07700
H 	H 	0.35450 0.73220 0.37000 -0.00500
C 	C 	0.28090 0.74060 0.36680 0.07800
H 	H 	0.26810 0.73650 0.38570 -0.02100
C 	C 	0.31700 0.74720 0.31280 -0.13700
H 	H 	0.33030 0.74850 0.29460 0.09100
C 	C 	0.26450 0.74950 0.32280 -0.14400
H 	H 	0.24120 0.75220 0.31170 0.07100
C 	C 	0.28290 0.75450 0.29450 0.06800
C 	C 	0.26580 0.76680 0.24650 0.04000
C 	C 	0.23640 0.81290 0.23060 -0.05900
H 	H 	0.22650 0.83800 0.25020 0.04500
C 	C 	0.22180 0.82190 0.18660 -0.05200
H 	H 	0.20140 0.85310 0.17430 0.04000
C 	C 	0.23830 0.78270 0.15980 0.03200
C 	C 	0.22310 0.78400 0.11150 0.06800
C 	C 	0.22760 0.71180 0.08710 -0.14800
H 	H 	0.24180 0.66280 0.10090 0.07300
C 	C 	0.20390 0.85550 0.08870 -0.15200
H 	H 	0.20090 0.90840 0.10400 0.06600
C 	C 	0.21150 0.71060 0.04240 0.07800
H 	H 	0.21450 0.65860 0.02660 -0.03300
C 	C 	0.18910 0.84970 0.04410 0.05700
H 	H 	0.17610 0.89980 0.02920 -0.02100
N 	N 	0.46990 0.32950 0.45590 -0.24500
N 	N 	0.52997 0.32430 0.44470 -0.24900
N 	N 	0.52858 0.13340 0.44510 -0.24700
N 	N 	0.46609 0.13840 0.45110 -0.24300
N 	N 	0.36647 0.82560 0.44640 -0.24400
N 	N 	0.30655 0.82830 0.45830 -0.25000
N 	N 	0.30297 0.64020 0.45330 -0.24900
N 	N 	0.36540 0.63260 0.44630 -0.24100
N 	N 	0.47776 0.23580 0.38300 -0.25400
N 	N 	0.44580 0.22980 0.21800 -0.08700
N 	N 	0.43140 0.23620 0.17390 -0.08900
N 	N 	0.35782 0.27420 0.01770 -0.25400
N 	N 	0.31384 0.73710 0.38530 -0.25400
N 	N 	0.28100 0.73340 0.22020 -0.08700
N 	N 	0.26670 0.74030 0.17620 -0.08800
N 	N 	0.19210 0.77660 0.01990 -0.24900
Fe	Fe	0.49889 0.23091 0.44910 1.16800
Fe	Fe	0.33545 0.73131 0.45126 1.16800
Au	Au	0.41883 0.48247 0.45547 0.26800
Au	Au	0.41415 0.98708 0.44743 0.27400
Au	Au	0.25361 0.97770 0.45653 0.27000
C 	C 	0.95240 0.11370 0.95790 -0.04200
C 	C 	0.04640 0.11800 0.94290 -0.02500
C 	C 	0.04770 0.42110 0.94710 -0.03700
C 	C 	0.94650 0.41550 0.94940 -0.04300
C 	C 	0.88320 0.61510 0.94470 -0.03500
C 	C 	0.78860 0.61840 0.96050 -0.03400
C 	C 	0.78300 0.91170 0.95130 -0.03600
C 	C 	0.88450 0.92280 0.94890 -0.04300
C 	C 	0.99550 0.26180 0.85630 0.07900
H 	H 	0.01870 0.26490 0.86870 -0.00600
C 	C 	0.94500 0.26090 0.86490 0.07700
H 	H 	0.93210 0.26470 0.88360 -0.02100
C 	C 	0.98140 0.25470 0.81080 -0.13700
H 	H 	0.99480 0.25530 0.79270 0.09100
C 	C 	0.92910 0.25240 0.82050 -0.14100
H 	H 	0.90570 0.25020 0.80900 0.07000
C 	C 	0.94760 0.24690 0.79240 0.06900
C 	C 	0.93120 0.23510 0.74450 0.03800
C 	C 	0.90170 0.18550 0.72810 -0.05600
H 	H 	0.89190 0.15830 0.74730 0.04400
C 	C 	0.88770 0.17750 0.68380 -0.05500
H 	H 	0.86780 0.14430 0.67110 0.04100
C 	C 	0.90350 0.21950 0.65750 0.03500
C 	C 	0.88850 0.21880 0.60910 0.06600
C 	C 	0.89050 0.29460 0.58520 -0.14500
H 	H 	0.90280 0.34620 0.59950 0.06900
C 	C 	0.87130 0.14480 0.58600 -0.15000
H 	H 	0.86950 0.09060 0.60110 0.06500
C 	C 	0.87460 0.29600 0.53990 0.07600
H 	H 	0.87580 0.35010 0.52430 -0.03300
C 	C 	0.85670 0.14970 0.54060 0.05700
H 	H 	0.84550 0.09750 0.52530 -0.01900
C 	C 	0.83120 0.76190 0.85790 0.07700
H 	H 	0.85450 0.76780 0.87000 -0.00500
C 	C 	0.78090 0.75940 0.86680 0.07800
H 	H 	0.76810 0.76350 0.88570 -0.02100
C 	C 	0.81700 0.75280 0.81280 -0.13700
H 	H 	0.83030 0.75150 0.79460 0.09100
C 	C 	0.76450 0.75050 0.82280 -0.14400
H 	H 	0.74120 0.74780 0.81170 0.07100
C 	C 	0.78290 0.74550 0.79450 0.06800
C 	C 	0.76580 0.73320 0.74650 0.04000
C 	C 	0.73640 0.68710 0.73060 -0.05900
H 	H 	0.72650 0.66200 0.75020 0.04500
C 	C 	0.72180 0.67810 0.68660 -0.05200
H 	H 	0.70140 0.64690 0.67430 0.04000
C 	C 	0.73830 0.71730 0.65980 0.03200
C 	C 	0.72310 0.71600 0.61150 0.06800
C 	C 	0.72760 0.78820 0.58710 -0.14800
H 	H 	0.74180 0.83720 0.60090 0.07300
C 	C 	0.70390 0.64450 0.58870 -0.15200
H 	H 	0.70090 0.59160 0.60400 0.06600
C 	C 	0.71150 0.78940 0.54240 0.07800
H 	H 	0.71450 0.84140 0.52660 -0.03300
C 	C 	0.68910 0.65030 0.54410 0.05700
H 	H 	0.67610 0.60020 0.52920 -0.02100
N 	N 	0.96990 0.17050 0.95590 -0.24500
N 	N 	0.02997 0.17570 0.94470 -0.24900
N 	N 	0.02858 0.36660 0.94510 -0.24700
N 	N 	0.96609 0.36160 0.95110 -0.24300
N 	N 	0.86647 0.67440 0.94640 -0.24400
N 	N 	0.80655 0.67170 0.95830 -0.25000
N 	N 	0.80297 0.85980 0.95330 -0.24900
N 	N 	0.86540 0.86740 0.94630 -0.24100
N 	N 	0.97776 0.26420 0.88300 -0.25400
N 	N 	0.94580 0.27020 0.71800 -0.08700
N 	N 	0.93140 0.26380 0.67390 -0.08900
N 	N 	0.85782 0.22580 0.51770 -0.25400
N 	N 	0.81384 0.76290 0.88530 -0.25400
N 	N 	0.78100 0.76660 0.72020 -0.08700
N 	N 	0.76670 0.75970 0.67620 -0.08800
N 	N 	0.69210 0.72340 0.51990 -0.24800
Fe	Fe	0.99889 0.26909 0.94910 1.16800
Fe	Fe	0.83545 0.76869 0.95126 1.16800
Au	Au	0.91883 0.01753 0.95547 0.26800
Au	Au	0.91415 0.51292 0.94742 0.27400
Au	Au	0.75361 0.52230 0.95653 0.27000
C 	C 	0.45240 0.61370 0.95790 -0.04200
C 	C 	0.54640 0.61800 0.94290 -0.02500
C 	C 	0.54770 0.92110 0.94710 -0.03600
C 	C 	0.44650 0.91550 0.94940 -0.04200
C 	C 	0.38320 0.11510 0.94470 -0.03500
C 	C 	0.28860 0.11840 0.96050 -0.03400
C 	C 	0.28300 0.41170 0.95130 -0.03600
C 	C 	0.38450 0.42280 0.94890 -0.04300
C 	C 	0.49550 0.76180 0.85630 0.07900
H 	H 	0.51870 0.76490 0.86870 -0.00600
C 	C 	0.44500 0.76090 0.86490 0.07700
H 	H 	0.43210 0.76470 0.88360 -0.02100
C 	C 	0.48140 0.75470 0.81080 -0.13800
H 	H 	0.49480 0.75530 0.79270 0.09100
C 	C 	0.42910 0.75240 0.82050 -0.14100
H 	H 	0.40570 0.75020 0.80900 0.07000
C 	C 	0.44760 0.74690 0.79240 0.06900
C 	C 	0.43120 0.73510 0.74450 0.03800
C 	C 	0.40170 0.68550 0.72810 -0.05600
H 	H 	0.39190 0.65830 0.74730 0.04400
C 	C 	0.38770 0.67750 0.68380 -0.05500
H 	H 	0.36780 0.64430 0.67110 0.04100
C 	C 	0.40350 0.71950 0.65750 0.03500
C 	C 	0.38850 0.71880 0.60910 0.06600
C 	C 	0.39050 0.79460 0.58520 -0.14500
H 	H 	0.40280 0.84620 0.59950 0.06900
C 	C 	0.37130 0.64480 0.58600 -0.15000
H 	H 	0.36950 0.59060 0.60110 0.06500
C 	C 	0.37460 0.79600 0.53990 0.07600
H 	H 	0.37580 0.85010 0.52430 -0.03300
C 	C 	0.35670 0.64970 0.54060 0.05700
H 	H 	0.34550 0.59750 0.52530 -0.01900
C 	C 	0.33120 0.26190 0.85790 0.07700
H 	H 	0.35450 0.26780 0.87000 -0.00500
C 	C 	0.28090 0.25940 0.86680 0.07800
H 	H 	0.26810 0.26350 0.88570 -0.02100
C 	C 	0.31700 0.25280 0.81280 -0.13700
H 	H 	0.33030 0.25150 0.79460 0.09100
C 	C 	0.26450 0.25050 0.82280 -0.14400
H 	H 	0.24120 0.24780 0.81170 0.07100
C 	C 	0.28290 0.24550 0.79450 0.06800
C 	C 	0.26580 0.23320 0.74650 0.04000
C 	C 	0.23640 0.18710 0.73060 -0.05900
H 	H 	0.22650 0.16200 0.75020 0.04500
C 	C 	0.22180 0.17810 0.68660 -0.05200
H 	H 	0.20140 0.14690 0.67430 0.04000
C 	C 	0.23830 0.21730 0.65980 0.03200
C 	C 	0.22310 0.21600 0.61150 0.06800
C 	C 	0.22760 0.28820 0.58710 -0.14800
H 	H 	0.24180 0.33720 0.60090 0.07300
C 	C 	0.20390 0.14450 0.58870 -0.15200
H 	H 	0.20090 0.09160 0.60400 0.06600
C 	C 	0.21150 0.28940 0.54240 0.07800
H 	H 	0.21450 0.34140 0.52660 -0.03300
C 	C 	0.18910 0.15030 0.54410 0.05700
H 	H 	0.17610 0.10020 0.52920 -0.02100
N 	N 	0.46990 0.67050 0.95590 -0.24500
N 	N 	0.52997 0.67570 0.94470 -0.24900
N 	N 	0.52858 0.86660 0.94510 -0.24700
N 	N 	0.46609 0.86160 0.95110 -0.24300
N 	N 	0.36647 0.17440 0.94640 -0.24400
N 	N 	0.30655 0.17170 0.95830 -0.25000
N 	N 	0.30297 0.35980 0.95330 -0.24900
N 	N 	0.36540 0.36740 0.94630 -0.24100
N 	N 	0.47776 0.76420 0.88300 -0.25400
N 	N 	0.44580 0.77020 0.71800 -0.08700
N 	N 	0.43140 0.76380 0.67390 -0.08900
N 	N 	0.35782 0.72580 0.51770 -0.25400
N 	N 	0.31384 0.26290 0.88530 -0.25400
N 	N 	0.28100 0.26660 0.72020 -0.08700
N 	N 	0.26670 0.25970 0.67620 -0.08800
N 	N 	0.19210 0.22340 0.51990 -0.24800
Fe	Fe	0.49889 0.76909 0.94910 1.16900
Fe	Fe	0.33545 0.26869 0.95126 1.16800
Au	Au	0.41883 0.51753 0.95547 0.26800
Au	Au	0.41415 0.01292 0.94743 0.27400
Au	Au	0.25361 0.02230 0.95653 0.27000
C 	C 	0.11130 0.07870 0.45090 -0.06000
C 	C 	0.11720 0.39310 0.45900 -0.06000
C 	C 	0.21780 0.39300 0.44370 -0.05200
C 	C 	0.21940 0.06810 0.44790 -0.06300
C 	C 	0.11120 0.23860 0.36230 0.08100
H 	H 	0.09830 0.23340 0.38100 -0.02200
C 	C 	0.16100 0.24070 0.35290 0.07900
H 	H 	0.18440 0.23790 0.36510 -0.00600
C 	C 	0.09520 0.24840 0.31820 -0.14700
H 	H 	0.07190 0.25070 0.30690 0.07300
C 	C 	0.14720 0.24930 0.30800 -0.14100
H 	H 	0.16070 0.25140 0.29000 0.09200
C 	C 	0.11340 0.25480 0.28990 0.07400
C 	C 	0.09620 0.26820 0.24220 0.03600
C 	C 	0.06710 0.31680 0.22620 -0.05500
H 	H 	0.05740 0.34390 0.24560 0.04400
C 	C 	0.05270 0.32500 0.18200 -0.05500
H 	H 	0.03290 0.35860 0.16980 0.04100
C 	C 	0.06800 0.28250 0.15500 0.03300
C 	C 	0.05290 0.28220 0.10660 0.06600
C 	C 	0.03570 0.35660 0.08390 -0.15100
H 	H 	0.03410 0.41110 0.09900 0.06500
C 	C 	0.05430 0.20440 0.08260 -0.14700
H 	H 	0.06640 0.15240 0.09670 0.06900
C 	C 	0.02100 0.35100 0.03900 0.05700
H 	H 	0.01010 0.40360 0.02380 -0.01900
C 	C 	0.03750 0.20430 0.03780 0.08100
H 	H 	0.03790 0.14950 0.02220 -0.03400
N 	N 	0.13190 0.13350 0.45240 -0.22700
N 	N 	0.13620 0.33540 0.45870 -0.22800
N 	N 	0.20020 0.33150 0.44390 -0.22600
N 	N 	0.19910 0.12420 0.44430 -0.22200
N 	N 	0.14382 0.23600 0.38040 -0.24700
N 	N 	0.11090 0.23130 0.21550 -0.08600
N 	N 	0.09620 0.23870 0.17160 -0.08800
N 	N 	0.02120 0.27420 0.01520 -0.25600
Fe	Fe	0.16724 0.23086 0.45015 1.12800
Au	Au	0.07886 0.98419 0.44693 0.27600
Au	Au	0.08328 0.48432 0.45543 0.27100
Au	Au	0.24909 0.49112 0.44777 0.27700
C 	C 	0.61130 0.57870 0.45090 -0.06000
C 	C 	0.61720 0.89310 0.45900 -0.06000
C 	C 	0.71780 0.89300 0.44370 -0.05200
C 	C 	0.71940 0.56810 0.44790 -0.06300
C 	C 	0.61120 0.73860 0.36230 0.08100
H 	H 	0.59830 0.73340 0.38100 -0.02200
C 	C 	0.66100 0.74070 0.35290 0.07900
H 	H 	0.68440 0.73790 0.36510 -0.00600
C 	C 	0.59520 0.74840 0.31820 -0.14700
H 	H 	0.57190 0.75070 0.30690 0.07300
C 	C 	0.64720 0.74930 0.30800 -0.14100
H 	H 	0.66070 0.75140 0.29000 0.09200
C 	C 	0.61340 0.75480 0.28990 0.07400
C 	C 	0.59620 0.76820 0.24220 0.03600
C 	C 	0.56710 0.81680 0.22620 -0.05500
H 	H 	0.55740 0.84390 0.24560 0.04400
C 	C 	0.55270 0.82500 0.18200 -0.05500
H 	H 	0.53290 0.85860 0.16980 0.04100
C 	C 	0.56800 0.78250 0.15500 0.03300
C 	C 	0.55290 0.78220 0.10660 0.06600
C 	C 	0.53570 0.85660 0.08390 -0.15100
H 	H 	0.53410 0.91110 0.09900 0.06500
C 	C 	0.55430 0.70440 0.08260 -0.14700
H 	H 	0.56640 0.65240 0.09670 0.06900
C 	C 	0.52100 0.85100 0.03900 0.05700
H 	H 	0.51010 0.90360 0.02380 -0.01900
C 	C 	0.53750 0.70430 0.03780 0.08100
H 	H 	0.53790 0.64950 0.02220 -0.03400
N 	N 	0.63190 0.63350 0.45240 -0.22700
N 	N 	0.63620 0.83540 0.45870 -0.22800
N 	N 	0.70020 0.83150 0.44390 -0.22600
N 	N 	0.69910 0.62420 0.44430 -0.22200
N 	N 	0.64382 0.73600 0.38040 -0.24700
N 	N 	0.61090 0.73130 0.21550 -0.08600
N 	N 	0.59620 0.73870 0.17160 -0.08800
N 	N 	0.52120 0.77420 0.01520 -0.25600
Fe	Fe	0.66724 0.73086 0.45015 1.12800
Au	Au	0.57886 0.48419 0.44693 0.27600
Au	Au	0.58328 0.98432 0.45543 0.27100
Au	Au	0.74909 0.99112 0.44777 0.27700
