data_crystal

_cell_length_a 11.81030
_cell_length_b 23.22100
_cell_length_c 45.46700
_cell_angle_alpha 104.51600
_cell_angle_beta  90.00000
_cell_angle_gamma 90.00000

_symmetry_space_group_name_	'P 1'
_symmetry_space_group_name_H-M	'P 1'

loop_
_symmetry_equiv_pos_as_xyz
  x,y,z

loop_
_atom_site_label
_atom_site_type_symbol
_atom_site_fract_x
_atom_site_fract_y
_atom_site_fract_z
_atom_site_charge
Cd	Cd	0.87421 0.58285 0.72332 1.21600
Cd	Cd	0.57879 0.90425 0.05966 1.21700
Cd	Cd	0.62579 0.58285 0.22332 1.21600
Cd	Cd	0.92121 0.90425 0.55966 1.21700
H 	H 	0.83370 0.75900 0.81580 0.03200
H 	H 	0.78180 0.80070 0.86470 0.06100
H 	H 	0.72650 0.63850 0.87690 0.06200
H 	H 	0.78410 0.59730 0.82850 0.03200
H 	H 	0.60580 0.87420 0.95020 0.02700
H 	H 	0.64350 0.82710 0.90070 0.08400
H 	H 	0.73250 0.68420 0.92520 0.08500
H 	H 	0.67060 0.72720 0.97260 0.01300
H 	H 	0.91480 0.40440 0.63020 0.04000
H 	H 	0.92910 0.30380 0.60970 0.06100
H 	H 	0.90830 0.27350 0.69100 0.05800
H 	H 	0.89300 0.37380 0.71290 0.04300
H 	H 	0.96100 0.08560 0.64900 0.02500
H 	H 	0.96860 0.18470 0.67010 0.07800
H 	H 	0.86780 0.21500 0.59280 0.07800
H 	H 	0.85900 0.11550 0.57210 0.02700
H 	H 	0.88350 0.58850 0.65320 0.00600
H 	H 	0.89390 0.64960 0.62140 0.07200
H 	H 	0.87890 0.78940 0.69400 0.07400
H 	H 	0.86450 0.72430 0.72360 0.00600
H 	H 	0.87560 0.77300 0.56350 -0.00100
H 	H 	0.85720 0.70950 0.59420 0.08300
H 	H 	0.95360 0.83970 0.66380 0.08700
H 	H 	0.96220 0.90060 0.63130 0.00400
H 	H 	0.65300 0.49800 0.70360 -0.00700
H 	H 	0.45950 0.49370 0.70410 0.09200
H 	H 	0.46080 0.67150 0.73700 0.07400
H 	H 	0.65320 0.66940 0.73610 -0.00500
H 	H 	0.09310 0.66550 0.71710 0.00400
H 	H 	0.28620 0.66700 0.71540 0.08100
H 	H 	0.28660 0.50020 0.72640 0.09300
H 	H 	0.09410 0.50400 0.72780 0.00100
H 	H 	0.36210 0.93480 0.10210 -0.00200
H 	H 	0.16780 0.93250 0.10470 0.06800
H 	H 	0.16570 0.85260 0.01740 0.07000
H 	H 	0.35740 0.85720 0.01700 0.00100
H 	H 	0.80170 0.82900 0.03010 -0.02800
H 	H 	0.99240 0.82270 0.03110 0.11500
H 	H 	0.99500 0.96050 0.09630 0.10800
H 	H 	0.80250 0.96260 0.09490 -0.02700
H 	H 	0.66630 0.75900 0.31580 0.03300
H 	H 	0.71820 0.80070 0.36470 0.06200
H 	H 	0.77350 0.63850 0.37690 0.06300
H 	H 	0.71590 0.59730 0.32850 0.03300
H 	H 	0.89420 0.87420 0.45020 0.02800
H 	H 	0.85650 0.82710 0.40070 0.08500
H 	H 	0.76750 0.68420 0.42520 0.08500
H 	H 	0.82940 0.72720 0.47260 0.01300
H 	H 	0.58520 0.40440 0.13020 0.04000
H 	H 	0.57090 0.30380 0.10970 0.06100
H 	H 	0.59170 0.27350 0.19100 0.05900
H 	H 	0.60700 0.37380 0.21290 0.04300
H 	H 	0.53900 0.08560 0.14900 0.02500
H 	H 	0.53140 0.18470 0.17010 0.07800
H 	H 	0.63220 0.21500 0.09280 0.07800
H 	H 	0.64100 0.11550 0.07210 0.02700
H 	H 	0.61650 0.58850 0.15320 0.00600
H 	H 	0.60610 0.64960 0.12140 0.07200
H 	H 	0.62110 0.78940 0.19400 0.07400
H 	H 	0.63550 0.72430 0.22360 0.00600
H 	H 	0.62440 0.77300 0.06350 -0.00100
H 	H 	0.64280 0.70950 0.09420 0.08300
H 	H 	0.54640 0.83970 0.16380 0.08700
H 	H 	0.53780 0.90060 0.13130 0.00400
H 	H 	0.84700 0.49800 0.20360 -0.00700
H 	H 	0.04050 0.49370 0.20410 0.09300
H 	H 	0.03920 0.67150 0.23700 0.07400
H 	H 	0.84680 0.66940 0.23610 -0.00600
H 	H 	0.40690 0.66550 0.21710 0.00400
H 	H 	0.21380 0.66700 0.21540 0.08100
H 	H 	0.21340 0.50020 0.22640 0.09300
H 	H 	0.40590 0.50400 0.22780 0.00100
H 	H 	0.13790 0.93480 0.60210 -0.00200
H 	H 	0.33220 0.93250 0.60470 0.06800
H 	H 	0.33430 0.85260 0.51740 0.07000
H 	H 	0.14260 0.85720 0.51700 0.00100
H 	H 	0.69830 0.82900 0.53010 -0.02800
H 	H 	0.50760 0.82270 0.53110 0.11500
H 	H 	0.50500 0.96050 0.59630 0.10900
H 	H 	0.69750 0.96260 0.59490 -0.02800
C 	C 	0.81210 0.67327 0.81621 -0.09300
C 	C 	0.81200 0.73449 0.82810 0.02300
C 	C 	0.78080 0.75957 0.85749 -0.09200
C 	C 	0.74790 0.72495 0.87665 0.02000
C 	C 	0.74890 0.66318 0.86467 -0.09000
C 	C 	0.78190 0.63851 0.83555 0.02600
C 	C 	0.63940 0.80627 0.96776 -0.14000
C 	C 	0.63100 0.83500 0.94543 0.06900
C 	C 	0.65890 0.80770 0.91581 -0.14200
C 	C 	0.70930 0.75206 0.90799 0.08200
C 	C 	0.70820 0.72360 0.92962 -0.15700
C 	C 	0.67210 0.75020 0.95854 0.08200
C 	C 	0.84510 0.64639 0.78375 0.31000
C 	C 	0.60370 0.83660 0.99979 0.34500
C 	C 	0.90640 0.40034 0.67411 -0.08600
C 	C 	0.91430 0.37842 0.64282 0.01400
C 	C 	0.92140 0.31776 0.63062 -0.08400
C 	C 	0.91770 0.27680 0.64807 0.02300
C 	C 	0.90910 0.29968 0.67855 -0.08300
C 	C 	0.90140 0.36028 0.69201 0.01200
C 	C 	0.92050 0.08917 0.60711 -0.12300
C 	C 	0.94520 0.11169 0.63699 0.05800
C 	C 	0.94760 0.17130 0.64982 -0.13600
C 	C 	0.92030 0.21158 0.63407 0.06900
C 	C 	0.88820 0.18900 0.60450 -0.13500
C 	C 	0.88560 0.12930 0.59183 0.05900
C 	C 	0.89270 0.46546 0.68852 0.31400
C 	C 	0.92370 0.02230 0.59285 0.34700
C 	C 	0.88170 0.62946 0.66144 0.06200
C 	C 	0.88880 0.66596 0.64224 -0.12000
C 	C 	0.88850 0.72720 0.65344 0.04500
C 	C 	0.87930 0.74867 0.68515 -0.12100
C 	C 	0.87120 0.70923 0.70269 0.06800
C 	C 	0.89020 0.78736 0.58414 0.08200
C 	C 	0.87950 0.74860 0.60258 -0.14800
C 	C 	0.90110 0.76693 0.63276 0.07500
C 	C 	0.93510 0.82491 0.64345 -0.14600
C 	C 	0.94140 0.86109 0.62355 0.08200
C 	C 	0.61310 0.53319 0.71089 0.08700
C 	C 	0.49640 0.53003 0.71054 -0.14100
C 	C 	0.43550 0.58285 0.72015 0.06500
C 	C 	0.49810 0.63538 0.73016 -0.13800
C 	C 	0.61370 0.63376 0.72984 0.07800
C 	C 	0.13280 0.63198 0.71899 0.06800
C 	C 	0.24890 0.63326 0.71790 -0.13100
C 	C 	0.31080 0.58318 0.72061 0.05700
C 	C 	0.24930 0.53430 0.72445 -0.13700
C 	C 	0.13360 0.53711 0.72528 0.07700
C 	C 	0.32180 0.91860 0.08437 0.07000
C 	C 	0.20410 0.91810 0.08618 -0.11400
C 	C 	0.14250 0.89630 0.06028 0.01400
C 	C 	0.20350 0.87150 0.03516 -0.11500
C 	C 	0.31940 0.87360 0.03505 0.07400
C 	C 	0.84020 0.85930 0.04370 0.16000
C 	C 	0.95750 0.85560 0.04370 -0.24100
C 	C 	0.01820 0.89500 0.06025 0.15500
C 	C 	0.95760 0.93340 0.08080 -0.21800
C 	C 	0.83990 0.93440 0.07994 0.14700
C 	C 	0.68790 0.67327 0.31621 -0.09300
C 	C 	0.68800 0.73449 0.32810 0.02300
C 	C 	0.71920 0.75957 0.35749 -0.09200
C 	C 	0.75210 0.72495 0.37665 0.02000
C 	C 	0.75110 0.66318 0.36467 -0.08900
C 	C 	0.71810 0.63851 0.33555 0.02600
C 	C 	0.86060 0.80627 0.46776 -0.14000
C 	C 	0.86900 0.83500 0.44543 0.06900
C 	C 	0.84110 0.80770 0.41581 -0.14200
C 	C 	0.79070 0.75206 0.40799 0.08200
C 	C 	0.79180 0.72360 0.42962 -0.15700
C 	C 	0.82790 0.75020 0.45854 0.08200
C 	C 	0.65490 0.64639 0.28375 0.31000
C 	C 	0.89630 0.83660 0.49979 0.34500
C 	C 	0.59360 0.40034 0.17411 -0.08600
C 	C 	0.58570 0.37842 0.14282 0.01400
C 	C 	0.57860 0.31776 0.13062 -0.08400
C 	C 	0.58230 0.27680 0.14807 0.02300
C 	C 	0.59090 0.29968 0.17855 -0.08300
C 	C 	0.59860 0.36028 0.19201 0.01200
C 	C 	0.57950 0.08917 0.10711 -0.12300
C 	C 	0.55480 0.11169 0.13699 0.05800
C 	C 	0.55240 0.17130 0.14982 -0.13600
C 	C 	0.57970 0.21158 0.13407 0.07000
C 	C 	0.61180 0.18900 0.10450 -0.13500
C 	C 	0.61440 0.12930 0.09183 0.05900
C 	C 	0.60730 0.46546 0.18852 0.31400
C 	C 	0.57630 0.02230 0.09285 0.34700
C 	C 	0.61830 0.62946 0.16144 0.06200
C 	C 	0.61120 0.66596 0.14224 -0.12000
C 	C 	0.61150 0.72720 0.15344 0.04500
C 	C 	0.62070 0.74867 0.18515 -0.12100
C 	C 	0.62880 0.70923 0.20269 0.06800
C 	C 	0.60980 0.78736 0.08414 0.08200
C 	C 	0.62050 0.74860 0.10258 -0.14800
C 	C 	0.59890 0.76693 0.13276 0.07500
C 	C 	0.56490 0.82491 0.14345 -0.14600
C 	C 	0.55860 0.86109 0.12355 0.08200
C 	C 	0.88690 0.53319 0.21089 0.08800
C 	C 	0.00360 0.53003 0.21054 -0.14200
C 	C 	0.06450 0.58285 0.22015 0.06500
C 	C 	0.00190 0.63538 0.23016 -0.13800
C 	C 	0.88630 0.63376 0.22984 0.07800
C 	C 	0.36720 0.63198 0.21899 0.06800
C 	C 	0.25110 0.63326 0.21790 -0.13100
C 	C 	0.18920 0.58318 0.22061 0.05700
C 	C 	0.25070 0.53430 0.22445 -0.13700
C 	C 	0.36640 0.53711 0.22528 0.07700
C 	C 	0.17820 0.91860 0.58437 0.06900
C 	C 	0.29590 0.91810 0.58618 -0.11300
C 	C 	0.35750 0.89630 0.56028 0.01200
C 	C 	0.29650 0.87150 0.53516 -0.11400
C 	C 	0.18060 0.87360 0.53505 0.07300
C 	C 	0.65980 0.85930 0.54370 0.16100
C 	C 	0.54250 0.85560 0.54370 -0.24300
C 	C 	0.48180 0.89500 0.56025 0.15700
C 	C 	0.54240 0.93340 0.58080 -0.22000
C 	C 	0.66010 0.93440 0.57994 0.14800
N 	N 	0.87210 0.64992 0.69177 -0.22500
N 	N 	0.91960 0.84296 0.59405 -0.23500
N 	N 	0.67310 0.58302 0.72084 -0.22700
N 	N 	0.07320 0.58466 0.72268 -0.22800
N 	N 	0.37940 0.89778 0.05944 -0.22800
N 	N 	0.78110 0.89968 0.06017 -0.26400
N 	N 	0.62790 0.64992 0.19177 -0.22500
N 	N 	0.58040 0.84296 0.09405 -0.23500
N 	N 	0.82690 0.58302 0.22084 -0.22700
N 	N 	0.42680 0.58466 0.22268 -0.22800
N 	N 	0.12060 0.89778 0.55944 -0.22800
N 	N 	0.71890 0.89968 0.56017 -0.26400
O 	O 	0.84750 0.67794 0.76524 -0.36000
O 	O 	0.86630 0.59123 0.77558 -0.38700
O 	O 	0.58910 0.89072 0.00702 -0.38700
O 	O 	0.59290 0.80557 0.01829 -0.36100
O 	O 	0.89410 0.50121 0.67215 -0.34900
O 	O 	0.87950 0.48190 0.71673 -0.39200
O 	O 	0.91280 0.00700 0.56453 -0.38100
O 	O 	0.93130 0.98664 0.60796 -0.37600
O 	O 	0.65250 0.67794 0.26524 -0.36000
O 	O 	0.63370 0.59123 0.27558 -0.38700
O 	O 	0.91090 0.89072 0.50702 -0.38700
O 	O 	0.90710 0.80557 0.51829 -0.36100
O 	O 	0.60590 0.50121 0.17215 -0.34900
O 	O 	0.62050 0.48190 0.21673 -0.39200
O 	O 	0.58720 0.00700 0.06453 -0.38100
O 	O 	0.56870 0.98664 0.10796 -0.37700
Cd	Cd	0.63216 0.12778 0.73621 1.21800
Cd	Cd	0.91196 0.45184 0.07349 1.21900
Cd	Cd	0.86784 0.12778 0.23621 1.21800
Cd	Cd	0.58804 0.45184 0.57349 1.21900
H 	H 	0.75030 0.14860 0.84040 0.03400
H 	H 	0.79520 0.19540 0.89030 0.06900
H 	H 	0.70350 0.35130 0.87650 0.06800
H 	H 	0.65940 0.30550 0.82700 0.03000
H 	H 	0.80300 0.28420 0.98820 0.03300
H 	H 	0.75200 0.23940 0.93860 0.06600
H 	H 	0.83380 0.38690 0.91400 0.06700
H 	H 	0.89200 0.43150 0.96300 0.04300
H 	H 	0.49260 0.92740 0.71770 0.02800
H 	H 	0.46670 0.82720 0.69300 0.07400
H 	H 	0.68890 0.84410 0.63010 0.07500
H 	H 	0.69880 0.94460 0.65140 0.02500
H 	H 	0.55490 0.63180 0.66310 0.04000
H 	H 	0.54650 0.73500 0.68390 0.06200
H 	H 	0.59270 0.76070 0.60160 0.06500
H 	H 	0.59950 0.66050 0.58110 0.03900
H 	H 	0.61380 0.26690 0.73550 0.00400
H 	H 	0.60530 0.33080 0.70530 0.07500
H 	H 	0.62120 0.19310 0.63300 0.07500
H 	H 	0.64170 0.13240 0.66530 0.01100
H 	H 	0.61810 0.44750 0.64300 -0.00300
H 	H 	0.62830 0.38800 0.67540 0.08400
H 	H 	0.55800 0.25070 0.60660 0.07900
H 	H 	0.54770 0.31510 0.57570 -0.00000
H 	H 	0.40780 0.05500 0.74900 -0.00100
H 	H 	0.21450 0.05060 0.74470 0.09800
H 	H 	0.22100 0.20640 0.72330 0.08600
H 	H 	0.41350 0.20630 0.72710 -0.00300
H 	H 	0.85260 0.04280 0.71370 -0.00600
H 	H 	0.04530 0.03970 0.71420 0.08900
H 	H 	0.04390 0.21600 0.74660 0.07600
H 	H 	0.85210 0.21310 0.74530 -0.01000
H 	H 	0.12870 0.49650 0.11660 -0.00200
H 	H 	0.32060 0.49190 0.11930 0.07900
H 	H 	0.32980 0.40390 0.03280 0.08000
H 	H 	0.13340 0.40740 0.03210 -0.00000
H 	H 	0.69100 0.36860 0.04960 -0.00200
H 	H 	0.49860 0.36870 0.04770 0.08000
H 	H 	0.49890 0.52570 0.10770 0.08200
H 	H 	0.69070 0.52340 0.10680 -0.00400
H 	H 	0.74970 0.14860 0.34040 0.03400
H 	H 	0.70480 0.19540 0.39030 0.06900
H 	H 	0.79650 0.35130 0.37650 0.06800
H 	H 	0.84060 0.30550 0.32700 0.03000
H 	H 	0.69700 0.28420 0.48820 0.03300
H 	H 	0.74800 0.23940 0.43860 0.06600
H 	H 	0.66620 0.38690 0.41400 0.06700
H 	H 	0.60800 0.43150 0.46300 0.04300
H 	H 	0.00740 0.92740 0.21770 0.02700
H 	H 	0.03330 0.82720 0.19300 0.07400
H 	H 	0.81110 0.84410 0.13010 0.07500
H 	H 	0.80120 0.94460 0.15140 0.02500
H 	H 	0.94510 0.63180 0.16310 0.04000
H 	H 	0.95350 0.73500 0.18390 0.06200
H 	H 	0.90730 0.76070 0.10160 0.06500
H 	H 	0.90050 0.66050 0.08110 0.03900
H 	H 	0.88620 0.26690 0.23550 0.00400
H 	H 	0.89470 0.33080 0.20530 0.07500
H 	H 	0.87880 0.19310 0.13300 0.07500
H 	H 	0.85830 0.13240 0.16530 0.01100
H 	H 	0.88190 0.44750 0.14300 -0.00300
H 	H 	0.87170 0.38800 0.17540 0.08400
H 	H 	0.94200 0.25070 0.10660 0.07900
H 	H 	0.95230 0.31510 0.07570 -0.00000
H 	H 	0.09220 0.05500 0.24900 -0.00100
H 	H 	0.28550 0.05060 0.24470 0.09800
H 	H 	0.27900 0.20640 0.22330 0.08600
H 	H 	0.08650 0.20630 0.22710 -0.00300
H 	H 	0.64740 0.04280 0.21370 -0.00700
H 	H 	0.45470 0.03970 0.21420 0.09000
H 	H 	0.45610 0.21600 0.24660 0.07600
H 	H 	0.64790 0.21310 0.24530 -0.01000
H 	H 	0.37130 0.49650 0.61660 -0.00200
H 	H 	0.17940 0.49190 0.61930 0.07900
H 	H 	0.17020 0.40390 0.53280 0.08000
H 	H 	0.36660 0.40740 0.53210 -0.00000
H 	H 	0.80900 0.36860 0.54960 -0.00200
H 	H 	0.00140 0.36870 0.54770 0.08000
H 	H 	0.00110 0.52570 0.60770 0.08200
H 	H 	0.80930 0.52340 0.60680 -0.00400
C 	C 	0.69910 0.22221 0.82815 -0.09800
C 	C 	0.74080 0.18947 0.84745 0.02800
C 	C 	0.76840 0.21780 0.87747 -0.10500
C 	C 	0.75650 0.27861 0.88827 0.04900
C 	C 	0.71410 0.31052 0.86937 -0.10900
C 	C 	0.68680 0.28271 0.83962 0.03300
C 	C 	0.85220 0.36300 0.98077 -0.09300
C 	C 	0.81020 0.30500 0.97326 0.02200
C 	C 	0.77920 0.27820 0.94335 -0.09800
C 	C 	0.78770 0.30780 0.92068 0.03600
C 	C 	0.82870 0.36564 0.92884 -0.09400
C 	C 	0.86260 0.39310 0.95842 0.02700
C 	C 	0.66930 0.19290 0.79591 0.30300
C 	C 	0.88300 0.39070 0.01330 0.32300
C 	C 	0.59670 0.94678 0.68648 -0.11800
C 	C 	0.52920 0.91130 0.69937 0.04400
C 	C 	0.51560 0.85040 0.68484 -0.11600
C 	C 	0.57430 0.82510 0.65862 0.05500
C 	C 	0.64530 0.86080 0.64718 -0.12100
C 	C 	0.65350 0.92110 0.66045 0.04900
C 	C 	0.57570 0.63641 0.61988 -0.09100
C 	C 	0.56180 0.65779 0.65064 0.01700
C 	C 	0.55820 0.72026 0.66315 -0.09000
C 	C 	0.57160 0.75874 0.64546 0.03400
C 	C 	0.58540 0.73501 0.61424 -0.09600
C 	C 	0.58860 0.67509 0.60188 0.02400
C 	C 	0.61030 0.01263 0.70149 0.35700
C 	C 	0.58260 0.57022 0.60665 0.31300
C 	C 	0.61730 0.25174 0.71455 0.06900
C 	C 	0.60990 0.29011 0.69646 -0.12300
C 	C 	0.60910 0.26948 0.66484 0.05100
C 	C 	0.62080 0.20957 0.65392 -0.12500
C 	C 	0.63190 0.17298 0.67348 0.06900
C 	C 	0.60610 0.40694 0.63526 0.09300
C 	C 	0.61300 0.37122 0.65496 -0.14500
C 	C 	0.59780 0.31113 0.64490 0.07100
C 	C 	0.57170 0.29103 0.61470 -0.13800
C 	C 	0.56540 0.33003 0.59613 0.07700
C 	C 	0.36980 0.08560 0.74329 0.08400
C 	C 	0.25350 0.08300 0.74121 -0.14800
C 	C 	0.19540 0.12917 0.73379 0.06700
C 	C 	0.25730 0.17475 0.72844 -0.14600
C 	C 	0.37330 0.17428 0.73062 0.08200
C 	C 	0.89170 0.07820 0.72099 0.09400
C 	C 	0.00790 0.07580 0.72114 -0.14600
C 	C 	0.06880 0.12813 0.73191 0.06100
C 	C 	0.00710 0.17957 0.74030 -0.14500
C 	C 	0.89180 0.17750 0.73938 0.07700
C 	C 	0.16910 0.47690 0.09943 0.07600
C 	C 	0.28480 0.47530 0.10088 -0.14200
C 	C 	0.34900 0.45033 0.07616 0.05800
C 	C 	0.29060 0.42330 0.05017 -0.13600
C 	C 	0.17170 0.42510 0.04997 0.07700
C 	C 	0.65210 0.40170 0.06078 0.08100
C 	C 	0.53630 0.40130 0.05983 -0.14000
C 	C 	0.47470 0.44897 0.07673 0.06200
C 	C 	0.53590 0.49370 0.09488 -0.14200
C 	C 	0.65150 0.49180 0.09434 0.09000
C 	C 	0.80090 0.22221 0.32815 -0.09800
C 	C 	0.75920 0.18947 0.34745 0.02800
C 	C 	0.73160 0.21780 0.37747 -0.10500
C 	C 	0.74350 0.27861 0.38827 0.04900
C 	C 	0.78590 0.31052 0.36937 -0.10900
C 	C 	0.81320 0.28271 0.33962 0.03300
C 	C 	0.64780 0.36300 0.48077 -0.09300
C 	C 	0.68980 0.30500 0.47326 0.02200
C 	C 	0.72080 0.27820 0.44335 -0.09800
C 	C 	0.71230 0.30780 0.42068 0.03600
C 	C 	0.67130 0.36564 0.42884 -0.09400
C 	C 	0.63740 0.39310 0.45842 0.02700
C 	C 	0.83070 0.19290 0.29591 0.30300
C 	C 	0.61700 0.39070 0.51330 0.32300
C 	C 	0.90330 0.94678 0.18648 -0.11800
C 	C 	0.97080 0.91130 0.19937 0.04400
C 	C 	0.98440 0.85040 0.18484 -0.11600
C 	C 	0.92570 0.82510 0.15862 0.05500
C 	C 	0.85470 0.86080 0.14718 -0.12100
C 	C 	0.84650 0.92110 0.16045 0.04900
C 	C 	0.92430 0.63641 0.11988 -0.09100
C 	C 	0.93820 0.65779 0.15064 0.01700
C 	C 	0.94180 0.72026 0.16315 -0.09000
C 	C 	0.92840 0.75874 0.14546 0.03400
C 	C 	0.91460 0.73501 0.11424 -0.09600
C 	C 	0.91140 0.67509 0.10188 0.02400
C 	C 	0.88970 0.01263 0.20149 0.35700
C 	C 	0.91740 0.57022 0.10665 0.31300
C 	C 	0.88270 0.25174 0.21455 0.06900
C 	C 	0.89010 0.29011 0.19646 -0.12300
C 	C 	0.89090 0.26948 0.16484 0.05100
C 	C 	0.87920 0.20957 0.15392 -0.12500
C 	C 	0.86810 0.17298 0.17348 0.06900
C 	C 	0.89390 0.40694 0.13526 0.09300
C 	C 	0.88700 0.37122 0.15496 -0.14500
C 	C 	0.90220 0.31113 0.14490 0.07100
C 	C 	0.92830 0.29103 0.11470 -0.13800
C 	C 	0.93460 0.33003 0.09613 0.07700
C 	C 	0.13020 0.08560 0.24329 0.08300
C 	C 	0.24650 0.08300 0.24121 -0.14800
C 	C 	0.30460 0.12917 0.23379 0.06700
C 	C 	0.24270 0.17475 0.22844 -0.14600
C 	C 	0.12670 0.17428 0.23062 0.08200
C 	C 	0.60830 0.07820 0.22099 0.09500
C 	C 	0.49210 0.07580 0.22114 -0.14800
C 	C 	0.43120 0.12813 0.23191 0.06200
C 	C 	0.49290 0.17957 0.24030 -0.14700
C 	C 	0.60820 0.17750 0.23938 0.07800
C 	C 	0.33090 0.47690 0.59943 0.07600
C 	C 	0.21520 0.47530 0.60088 -0.14200
C 	C 	0.15100 0.45033 0.57616 0.05800
C 	C 	0.20940 0.42330 0.55017 -0.13600
C 	C 	0.32830 0.42510 0.54997 0.07700
C 	C 	0.84790 0.40170 0.56078 0.08100
C 	C 	0.96370 0.40130 0.55983 -0.14100
C 	C 	0.02530 0.44897 0.57673 0.06200
C 	C 	0.96410 0.49370 0.59488 -0.14200
C 	C 	0.84850 0.49180 0.59434 0.09100
N 	N 	0.62930 0.19311 0.70340 -0.22500
N 	N 	0.58370 0.38794 0.60650 -0.23500
N 	N 	0.43090 0.13027 0.73753 -0.23000
N 	N 	0.83230 0.12685 0.73044 -0.23000
N 	N 	0.11270 0.45111 0.07429 -0.22800
N 	N 	0.71140 0.44771 0.07705 -0.22700
N 	N 	0.87070 0.19311 0.20340 -0.22500
N 	N 	0.91630 0.38794 0.10650 -0.23500
N 	N 	0.06910 0.13027 0.23753 -0.23000
N 	N 	0.66770 0.12685 0.23044 -0.23000
N 	N 	0.38730 0.45111 0.57429 -0.22800
N 	N 	0.78860 0.44771 0.57705 -0.22700
O 	O 	0.66020 0.13694 0.78800 -0.37900
O 	O 	0.65410 0.22443 0.77744 -0.35700
O 	O 	0.89940 0.36042 0.03172 -0.37200
O 	O 	0.89330 0.44595 0.02107 -0.36700
O 	O 	0.61500 0.02583 0.73021 -0.39500
O 	O 	0.62230 0.04914 0.68772 -0.38800
O 	O 	0.57550 0.53567 0.62313 -0.35300
O 	O 	0.59270 0.55133 0.57806 -0.38400
O 	O 	0.83980 0.13694 0.28800 -0.37900
O 	O 	0.84590 0.22443 0.27744 -0.35700
O 	O 	0.60060 0.36042 0.53172 -0.37200
O 	O 	0.60670 0.44595 0.52107 -0.36700
O 	O 	0.88500 0.02583 0.23021 -0.39500
O 	O 	0.87770 0.04914 0.18772 -0.38800
O 	O 	0.92450 0.53567 0.12313 -0.35300
O 	O 	0.90730 0.55133 0.07806 -0.38400
Cd	Cd	0.37421 0.41715 0.77668 1.21700
Cd	Cd	0.07879 0.09575 0.44034 1.21800
Cd	Cd	0.12579 0.41715 0.27668 1.21700
Cd	Cd	0.42121 0.09575 0.94034 1.21800
H 	H 	0.33370 0.24100 0.68420 0.03300
H 	H 	0.28180 0.19930 0.63530 0.06200
H 	H 	0.22650 0.36150 0.62310 0.06300
H 	H 	0.28410 0.40270 0.67150 0.03300
H 	H 	0.10580 0.12580 0.54980 0.02800
H 	H 	0.14350 0.17290 0.59930 0.08500
H 	H 	0.23250 0.31580 0.57480 0.08500
H 	H 	0.17060 0.27280 0.52740 0.01300
H 	H 	0.41480 0.59560 0.86980 0.04000
H 	H 	0.42910 0.69620 0.89030 0.06100
H 	H 	0.40830 0.72650 0.80900 0.05900
H 	H 	0.39300 0.62620 0.78710 0.04300
H 	H 	0.46100 0.91440 0.85100 0.02500
H 	H 	0.46860 0.81530 0.82990 0.07800
H 	H 	0.36780 0.78500 0.90720 0.07800
H 	H 	0.35900 0.88450 0.92790 0.02700
H 	H 	0.38350 0.41150 0.84680 0.00600
H 	H 	0.39390 0.35040 0.87860 0.07200
H 	H 	0.37890 0.21060 0.80600 0.07400
H 	H 	0.36450 0.27570 0.77640 0.00600
H 	H 	0.37560 0.22700 0.93650 -0.00100
H 	H 	0.35720 0.29050 0.90580 0.08300
H 	H 	0.45360 0.16030 0.83620 0.08700
H 	H 	0.46220 0.09940 0.86870 0.00400
H 	H 	0.15300 0.50200 0.79640 -0.00700
H 	H 	0.95950 0.50630 0.79590 0.09300
H 	H 	0.96080 0.32850 0.76300 0.07400
H 	H 	0.15320 0.33060 0.76390 -0.00600
H 	H 	0.59310 0.33450 0.78290 0.00400
H 	H 	0.78620 0.33300 0.78460 0.08100
H 	H 	0.78660 0.49980 0.77360 0.09300
H 	H 	0.59410 0.49600 0.77220 0.00100
H 	H 	0.86210 0.06520 0.39790 -0.00200
H 	H 	0.66780 0.06750 0.39530 0.06800
H 	H 	0.66570 0.14740 0.48260 0.07000
H 	H 	0.85740 0.14280 0.48300 0.00100
H 	H 	0.30170 0.17100 0.46990 -0.02800
H 	H 	0.49240 0.17730 0.46890 0.11500
H 	H 	0.49500 0.03950 0.40370 0.10900
H 	H 	0.30250 0.03740 0.40510 -0.02800
H 	H 	0.16630 0.24100 0.18420 0.03300
H 	H 	0.21820 0.19930 0.13530 0.06200
H 	H 	0.27350 0.36150 0.12310 0.06300
H 	H 	0.21590 0.40270 0.17150 0.03300
H 	H 	0.39420 0.12580 0.04980 0.02800
H 	H 	0.35650 0.17290 0.09930 0.08500
H 	H 	0.26750 0.31580 0.07480 0.08500
H 	H 	0.32940 0.27280 0.02740 0.01300
H 	H 	0.08520 0.59560 0.36980 0.04000
H 	H 	0.07090 0.69620 0.39030 0.06100
H 	H 	0.09170 0.72650 0.30900 0.05800
H 	H 	0.10700 0.62620 0.28710 0.04300
H 	H 	0.03900 0.91440 0.35100 0.02500
H 	H 	0.03140 0.81530 0.32990 0.07800
H 	H 	0.13220 0.78500 0.40720 0.07800
H 	H 	0.14100 0.88450 0.42790 0.02700
H 	H 	0.11650 0.41150 0.34680 0.00600
H 	H 	0.10610 0.35040 0.37860 0.07200
H 	H 	0.12110 0.21060 0.30600 0.07400
H 	H 	0.13550 0.27570 0.27640 0.00600
H 	H 	0.12440 0.22700 0.43650 -0.00100
H 	H 	0.14280 0.29050 0.40580 0.08300
H 	H 	0.04640 0.16030 0.33620 0.08700
H 	H 	0.03780 0.09940 0.36870 0.00400
H 	H 	0.34700 0.50200 0.29640 -0.00700
H 	H 	0.54050 0.50630 0.29590 0.09200
H 	H 	0.53920 0.32850 0.26300 0.07400
H 	H 	0.34680 0.33060 0.26390 -0.00500
H 	H 	0.90690 0.33450 0.28290 0.00400
H 	H 	0.71380 0.33300 0.28460 0.08100
H 	H 	0.71340 0.49980 0.27360 0.09300
H 	H 	0.90590 0.49600 0.27220 0.00100
H 	H 	0.63790 0.06520 0.89790 -0.00200
H 	H 	0.83220 0.06750 0.89530 0.06800
H 	H 	0.83430 0.14740 0.98260 0.07000
H 	H 	0.64260 0.14280 0.98300 0.00100
H 	H 	0.19830 0.17100 0.96990 -0.02800
H 	H 	0.00760 0.17730 0.96890 0.11500
H 	H 	0.00500 0.03950 0.90370 0.10800
H 	H 	0.19750 0.03740 0.90510 -0.02700
C 	C 	0.31210 0.32673 0.68379 -0.09300
C 	C 	0.31200 0.26551 0.67190 0.02300
C 	C 	0.28080 0.24043 0.64251 -0.09200
C 	C 	0.24790 0.27505 0.62335 0.02000
C 	C 	0.24890 0.33682 0.63533 -0.08900
C 	C 	0.28190 0.36149 0.66445 0.02600
C 	C 	0.13940 0.19373 0.53224 -0.14000
C 	C 	0.13100 0.16500 0.55457 0.06900
C 	C 	0.15890 0.19230 0.58419 -0.14200
C 	C 	0.20930 0.24794 0.59201 0.08200
C 	C 	0.20820 0.27640 0.57038 -0.15700
C 	C 	0.17210 0.24980 0.54146 0.08200
C 	C 	0.34510 0.35361 0.71625 0.31000
C 	C 	0.10370 0.16340 0.50021 0.34500
C 	C 	0.40640 0.59966 0.82589 -0.08600
C 	C 	0.41430 0.62158 0.85718 0.01400
C 	C 	0.42140 0.68224 0.86938 -0.08400
C 	C 	0.41770 0.72320 0.85193 0.02300
C 	C 	0.40910 0.70032 0.82145 -0.08300
C 	C 	0.40140 0.63972 0.80799 0.01200
C 	C 	0.42050 0.91083 0.89289 -0.12300
C 	C 	0.44520 0.88831 0.86301 0.05800
C 	C 	0.44760 0.82870 0.85018 -0.13600
C 	C 	0.42030 0.78842 0.86593 0.07000
C 	C 	0.38820 0.81100 0.89550 -0.13500
C 	C 	0.38560 0.87070 0.90817 0.05900
C 	C 	0.39270 0.53454 0.81148 0.31400
C 	C 	0.42370 0.97770 0.90715 0.34700
C 	C 	0.38170 0.37054 0.83856 0.06200
C 	C 	0.38880 0.33404 0.85776 -0.12000
C 	C 	0.38850 0.27280 0.84656 0.04500
C 	C 	0.37930 0.25133 0.81485 -0.12100
C 	C 	0.37120 0.29077 0.79731 0.06800
C 	C 	0.39020 0.21264 0.91586 0.08200
C 	C 	0.37950 0.25140 0.89742 -0.14800
C 	C 	0.40110 0.23307 0.86724 0.07500
C 	C 	0.43510 0.17509 0.85655 -0.14600
C 	C 	0.44140 0.13891 0.87645 0.08200
C 	C 	0.11310 0.46681 0.78911 0.08800
C 	C 	0.99640 0.46997 0.78946 -0.14200
C 	C 	0.93550 0.41715 0.77985 0.06500
C 	C 	0.99810 0.36462 0.76984 -0.13800
C 	C 	0.11370 0.36624 0.77016 0.07800
C 	C 	0.63280 0.36802 0.78101 0.06800
C 	C 	0.74890 0.36674 0.78210 -0.13100
C 	C 	0.81080 0.41682 0.77939 0.05700
C 	C 	0.74930 0.46570 0.77555 -0.13700
C 	C 	0.63360 0.46289 0.77472 0.07700
C 	C 	0.82180 0.08140 0.41563 0.06900
C 	C 	0.70410 0.08190 0.41382 -0.11300
C 	C 	0.64250 0.10370 0.43972 0.01200
C 	C 	0.70350 0.12850 0.46484 -0.11400
C 	C 	0.81940 0.12640 0.46495 0.07300
C 	C 	0.34020 0.14070 0.45630 0.16100
C 	C 	0.45750 0.14440 0.45630 -0.24300
C 	C 	0.51820 0.10500 0.43975 0.15700
C 	C 	0.45760 0.06660 0.41920 -0.22000
C 	C 	0.33990 0.06560 0.42006 0.14800
C 	C 	0.18790 0.32673 0.18379 -0.09300
C 	C 	0.18800 0.26551 0.17190 0.02300
C 	C 	0.21920 0.24043 0.14251 -0.09200
C 	C 	0.25210 0.27505 0.12335 0.02000
C 	C 	0.25110 0.33682 0.13533 -0.09000
C 	C 	0.21810 0.36149 0.16445 0.02600
C 	C 	0.36060 0.19373 0.03224 -0.14000
C 	C 	0.36900 0.16500 0.05457 0.06900
C 	C 	0.34110 0.19230 0.08419 -0.14200
C 	C 	0.29070 0.24794 0.09201 0.08200
C 	C 	0.29180 0.27640 0.07038 -0.15700
C 	C 	0.32790 0.24980 0.04146 0.08200
C 	C 	0.15490 0.35361 0.21625 0.31000
C 	C 	0.39630 0.16340 0.00021 0.34500
C 	C 	0.09360 0.59966 0.32589 -0.08600
C 	C 	0.08570 0.62158 0.35718 0.01400
C 	C 	0.07860 0.68224 0.36938 -0.08400
C 	C 	0.08230 0.72320 0.35193 0.02300
C 	C 	0.09090 0.70032 0.32145 -0.08300
C 	C 	0.09860 0.63972 0.30799 0.01200
C 	C 	0.07950 0.91083 0.39289 -0.12300
C 	C 	0.05480 0.88831 0.36301 0.05800
C 	C 	0.05240 0.82870 0.35018 -0.13600
C 	C 	0.07970 0.78842 0.36593 0.06900
C 	C 	0.11180 0.81100 0.39550 -0.13500
C 	C 	0.11440 0.87070 0.40817 0.05900
C 	C 	0.10730 0.53454 0.31148 0.31400
C 	C 	0.07630 0.97770 0.40715 0.34700
C 	C 	0.11830 0.37054 0.33856 0.06200
C 	C 	0.11120 0.33404 0.35776 -0.12000
C 	C 	0.11150 0.27280 0.34656 0.04500
C 	C 	0.12070 0.25133 0.31485 -0.12100
C 	C 	0.12880 0.29077 0.29731 0.06800
C 	C 	0.10980 0.21264 0.41586 0.08200
C 	C 	0.12050 0.25140 0.39742 -0.14800
C 	C 	0.09890 0.23307 0.36724 0.07500
C 	C 	0.06490 0.17509 0.35655 -0.14600
C 	C 	0.05860 0.13891 0.37645 0.08200
C 	C 	0.38690 0.46681 0.28911 0.08700
C 	C 	0.50360 0.46997 0.28946 -0.14100
C 	C 	0.56450 0.41715 0.27985 0.06500
C 	C 	0.50190 0.36462 0.26984 -0.13800
C 	C 	0.38630 0.36624 0.27016 0.07800
C 	C 	0.86720 0.36802 0.28101 0.06800
C 	C 	0.75110 0.36674 0.28210 -0.13100
C 	C 	0.68920 0.41682 0.27939 0.05700
C 	C 	0.75070 0.46570 0.27555 -0.13700
C 	C 	0.86640 0.46289 0.27472 0.07700
C 	C 	0.67820 0.08140 0.91563 0.07000
C 	C 	0.79590 0.08190 0.91382 -0.11400
C 	C 	0.85750 0.10370 0.93972 0.01400
C 	C 	0.79650 0.12850 0.96484 -0.11500
C 	C 	0.68060 0.12640 0.96495 0.07400
C 	C 	0.15980 0.14070 0.95630 0.16000
C 	C 	0.04250 0.14440 0.95630 -0.24100
C 	C 	0.98180 0.10500 0.93975 0.15500
C 	C 	0.04240 0.06660 0.91920 -0.21800
C 	C 	0.16010 0.06560 0.92006 0.14700
N 	N 	0.37210 0.35008 0.80823 -0.22500
N 	N 	0.41960 0.15704 0.90595 -0.23500
N 	N 	0.17310 0.41698 0.77916 -0.22700
N 	N 	0.57320 0.41534 0.77732 -0.22800
N 	N 	0.87940 0.10222 0.44056 -0.22800
N 	N 	0.28110 0.10032 0.43983 -0.26400
N 	N 	0.12790 0.35008 0.30823 -0.22500
N 	N 	0.08040 0.15704 0.40595 -0.23500
N 	N 	0.32690 0.41698 0.27916 -0.22700
N 	N 	0.92680 0.41534 0.27732 -0.22800
N 	N 	0.62060 0.10222 0.94056 -0.22800
N 	N 	0.21890 0.10032 0.93983 -0.26400
O 	O 	0.34750 0.32206 0.73476 -0.36000
O 	O 	0.36630 0.40877 0.72442 -0.38700
O 	O 	0.08910 0.10928 0.49298 -0.38700
O 	O 	0.09290 0.19443 0.48171 -0.36100
O 	O 	0.39410 0.49879 0.82785 -0.34900
O 	O 	0.37950 0.51810 0.78327 -0.39200
O 	O 	0.41280 0.99300 0.93547 -0.38100
O 	O 	0.43130 0.01336 0.89204 -0.37700
O 	O 	0.15250 0.32206 0.23476 -0.36000
O 	O 	0.13370 0.40877 0.22442 -0.38700
O 	O 	0.41090 0.10928 0.99298 -0.38700
O 	O 	0.40710 0.19443 0.98171 -0.36100
O 	O 	0.10590 0.49879 0.32785 -0.34900
O 	O 	0.12050 0.51810 0.28327 -0.39200
O 	O 	0.08720 0.99300 0.43547 -0.38100
O 	O 	0.06870 0.01336 0.39204 -0.37600
Cd	Cd	0.13216 0.87222 0.76379 1.21800
Cd	Cd	0.41196 0.54816 0.42651 1.21900
Cd	Cd	0.36784 0.87222 0.26379 1.21800
Cd	Cd	0.08804 0.54816 0.92651 1.21900
H 	H 	0.25030 0.85140 0.65960 0.03400
H 	H 	0.29520 0.80460 0.60970 0.06900
H 	H 	0.20350 0.64870 0.62350 0.06800
H 	H 	0.15940 0.69450 0.67300 0.03000
H 	H 	0.30300 0.71580 0.51180 0.03300
H 	H 	0.25200 0.76060 0.56140 0.06600
H 	H 	0.33380 0.61310 0.58600 0.06700
H 	H 	0.39200 0.56850 0.53700 0.04300
H 	H 	0.99260 0.07260 0.78230 0.02700
H 	H 	0.96670 0.17280 0.80700 0.07400
H 	H 	0.18890 0.15590 0.86990 0.07500
H 	H 	0.19880 0.05540 0.84860 0.02500
H 	H 	0.05490 0.36820 0.83690 0.04000
H 	H 	0.04650 0.26500 0.81610 0.06200
H 	H 	0.09270 0.23930 0.89840 0.06500
H 	H 	0.09950 0.33950 0.91890 0.03900
H 	H 	0.11380 0.73310 0.76450 0.00400
H 	H 	0.10530 0.66920 0.79470 0.07500
H 	H 	0.12120 0.80690 0.86700 0.07500
H 	H 	0.14170 0.86760 0.83470 0.01100
H 	H 	0.11810 0.55250 0.85700 -0.00300
H 	H 	0.12830 0.61200 0.82460 0.08400
H 	H 	0.05800 0.74930 0.89340 0.07900
H 	H 	0.04770 0.68490 0.92430 -0.00000
H 	H 	0.90780 0.94500 0.75100 -0.00100
H 	H 	0.71450 0.94940 0.75530 0.09800
H 	H 	0.72100 0.79360 0.77670 0.08600
H 	H 	0.91350 0.79370 0.77290 -0.00300
H 	H 	0.35260 0.95720 0.78630 -0.00700
H 	H 	0.54530 0.96030 0.78580 0.09000
H 	H 	0.54390 0.78400 0.75340 0.07600
H 	H 	0.35210 0.78690 0.75470 -0.01000
H 	H 	0.62870 0.50350 0.38340 -0.00200
H 	H 	0.82060 0.50810 0.38070 0.07900
H 	H 	0.82980 0.59610 0.46720 0.08000
H 	H 	0.63340 0.59260 0.46790 -0.00000
H 	H 	0.19100 0.63140 0.45040 -0.00200
H 	H 	0.99860 0.63130 0.45230 0.08000
H 	H 	0.99890 0.47430 0.39230 0.08200
H 	H 	0.19070 0.47660 0.39320 -0.00400
H 	H 	0.24970 0.85140 0.15960 0.03400
H 	H 	0.20480 0.80460 0.10970 0.06900
H 	H 	0.29650 0.64870 0.12350 0.06800
H 	H 	0.34060 0.69450 0.17300 0.03000
H 	H 	0.19700 0.71580 0.01180 0.03300
H 	H 	0.24800 0.76060 0.06140 0.06600
H 	H 	0.16620 0.61310 0.08600 0.06700
H 	H 	0.10800 0.56850 0.03700 0.04300
H 	H 	0.50740 0.07260 0.28230 0.02800
H 	H 	0.53330 0.17280 0.30700 0.07400
H 	H 	0.31110 0.15590 0.36990 0.07500
H 	H 	0.30120 0.05540 0.34860 0.02500
H 	H 	0.44510 0.36820 0.33690 0.04000
H 	H 	0.45350 0.26500 0.31610 0.06200
H 	H 	0.40730 0.23930 0.39840 0.06500
H 	H 	0.40050 0.33950 0.41890 0.03900
H 	H 	0.38620 0.73310 0.26450 0.00400
H 	H 	0.39470 0.66920 0.29470 0.07500
H 	H 	0.37880 0.80690 0.36700 0.07500
H 	H 	0.35830 0.86760 0.33470 0.01100
H 	H 	0.38190 0.55250 0.35700 -0.00300
H 	H 	0.37170 0.61200 0.32460 0.08400
H 	H 	0.44200 0.74930 0.39340 0.07900
H 	H 	0.45230 0.68490 0.42430 -0.00000
H 	H 	0.59220 0.94500 0.25100 -0.00100
H 	H 	0.78550 0.94940 0.25530 0.09800
H 	H 	0.77900 0.79360 0.27670 0.08600
H 	H 	0.58650 0.79370 0.27290 -0.00300
H 	H 	0.14740 0.95720 0.28630 -0.00600
H 	H 	0.95470 0.96030 0.28580 0.08900
H 	H 	0.95610 0.78400 0.25340 0.07600
H 	H 	0.14790 0.78690 0.25470 -0.01000
H 	H 	0.87130 0.50350 0.88340 -0.00200
H 	H 	0.67940 0.50810 0.88070 0.07900
H 	H 	0.67020 0.59610 0.96720 0.08000
H 	H 	0.86660 0.59260 0.96790 -0.00000
H 	H 	0.30900 0.63140 0.95040 -0.00200
H 	H 	0.50140 0.63130 0.95230 0.08000
H 	H 	0.50110 0.47430 0.89230 0.08200
H 	H 	0.30930 0.47660 0.89320 -0.00400
C 	C 	0.19910 0.77779 0.67185 -0.09800
C 	C 	0.24080 0.81053 0.65255 0.02800
C 	C 	0.26840 0.78220 0.62253 -0.10500
C 	C 	0.25650 0.72139 0.61173 0.04900
C 	C 	0.21410 0.68948 0.63063 -0.10900
C 	C 	0.18680 0.71729 0.66038 0.03300
C 	C 	0.35220 0.63700 0.51923 -0.09300
C 	C 	0.31020 0.69500 0.52674 0.02200
C 	C 	0.27920 0.72180 0.55665 -0.09800
C 	C 	0.28770 0.69220 0.57932 0.03600
C 	C 	0.32870 0.63436 0.57116 -0.09400
C 	C 	0.36260 0.60690 0.54158 0.02700
C 	C 	0.16930 0.80710 0.70409 0.30300
C 	C 	0.38300 0.60930 0.48670 0.32300
C 	C 	0.09670 0.05322 0.81352 -0.11800
C 	C 	0.02920 0.08870 0.80063 0.04400
C 	C 	0.01560 0.14960 0.81516 -0.11600
C 	C 	0.07430 0.17490 0.84138 0.05500
C 	C 	0.14530 0.13920 0.85282 -0.12100
C 	C 	0.15350 0.07890 0.83955 0.04900
C 	C 	0.07570 0.36359 0.88012 -0.09100
C 	C 	0.06180 0.34221 0.84936 0.01700
C 	C 	0.05820 0.27974 0.83685 -0.09000
C 	C 	0.07160 0.24126 0.85454 0.03400
C 	C 	0.08540 0.26499 0.88576 -0.09600
C 	C 	0.08860 0.32491 0.89812 0.02400
C 	C 	0.11030 0.98737 0.79851 0.35700
C 	C 	0.08260 0.42978 0.89335 0.31300
C 	C 	0.11730 0.74826 0.78545 0.06900
C 	C 	0.10990 0.70989 0.80354 -0.12300
C 	C 	0.10910 0.73052 0.83516 0.05100
C 	C 	0.12080 0.79043 0.84608 -0.12500
C 	C 	0.13190 0.82702 0.82652 0.06900
C 	C 	0.10610 0.59306 0.86474 0.09300
C 	C 	0.11300 0.62878 0.84504 -0.14500
C 	C 	0.09780 0.68887 0.85510 0.07100
C 	C 	0.07170 0.70897 0.88530 -0.13800
C 	C 	0.06540 0.66997 0.90387 0.07700
C 	C 	0.86980 0.91440 0.75671 0.08300
C 	C 	0.75350 0.91700 0.75879 -0.14800
C 	C 	0.69540 0.87083 0.76621 0.06700
C 	C 	0.75730 0.82525 0.77156 -0.14600
C 	C 	0.87330 0.82572 0.76938 0.08200
C 	C 	0.39170 0.92180 0.77901 0.09500
C 	C 	0.50790 0.92420 0.77886 -0.14800
C 	C 	0.56880 0.87187 0.76809 0.06200
C 	C 	0.50710 0.82043 0.75970 -0.14700
C 	C 	0.39180 0.82250 0.76062 0.07800
C 	C 	0.66910 0.52310 0.40057 0.07600
C 	C 	0.78480 0.52470 0.39912 -0.14200
C 	C 	0.84900 0.54967 0.42384 0.05800
C 	C 	0.79060 0.57670 0.44983 -0.13600
C 	C 	0.67170 0.57490 0.45003 0.07700
C 	C 	0.15210 0.59830 0.43922 0.08100
C 	C 	0.03630 0.59870 0.44017 -0.14100
C 	C 	0.97470 0.55103 0.42327 0.06200
C 	C 	0.03590 0.50630 0.40512 -0.14200
C 	C 	0.15150 0.50820 0.40566 0.09100
C 	C 	0.30090 0.77779 0.17185 -0.09800
C 	C 	0.25920 0.81053 0.15255 0.02800
C 	C 	0.23160 0.78220 0.12253 -0.10500
C 	C 	0.24350 0.72139 0.11173 0.04900
C 	C 	0.28590 0.68948 0.13063 -0.10900
C 	C 	0.31320 0.71729 0.16038 0.03300
C 	C 	0.14780 0.63700 0.01923 -0.09300
C 	C 	0.18980 0.69500 0.02674 0.02200
C 	C 	0.22080 0.72180 0.05665 -0.09800
C 	C 	0.21230 0.69220 0.07932 0.03600
C 	C 	0.17130 0.63436 0.07116 -0.09400
C 	C 	0.13740 0.60690 0.04158 0.02700
C 	C 	0.33070 0.80710 0.20409 0.30300
C 	C 	0.11700 0.60930 0.98670 0.32300
C 	C 	0.40330 0.05322 0.31352 -0.11800
C 	C 	0.47080 0.08870 0.30063 0.04400
C 	C 	0.48440 0.14960 0.31516 -0.11600
C 	C 	0.42570 0.17490 0.34138 0.05500
C 	C 	0.35470 0.13920 0.35282 -0.12100
C 	C 	0.34650 0.07890 0.33955 0.04900
C 	C 	0.42430 0.36359 0.38012 -0.09100
C 	C 	0.43820 0.34221 0.34936 0.01700
C 	C 	0.44180 0.27974 0.33685 -0.09000
C 	C 	0.42840 0.24126 0.35454 0.03400
C 	C 	0.41460 0.26499 0.38576 -0.09600
C 	C 	0.41140 0.32491 0.39812 0.02400
C 	C 	0.38970 0.98737 0.29851 0.35700
C 	C 	0.41740 0.42978 0.39335 0.31300
C 	C 	0.38270 0.74826 0.28545 0.06900
C 	C 	0.39010 0.70989 0.30354 -0.12300
C 	C 	0.39090 0.73052 0.33516 0.05100
C 	C 	0.37920 0.79043 0.34608 -0.12500
C 	C 	0.36810 0.82702 0.32652 0.06900
C 	C 	0.39390 0.59306 0.36474 0.09300
C 	C 	0.38700 0.62878 0.34504 -0.14500
C 	C 	0.40220 0.68887 0.35510 0.07100
C 	C 	0.42830 0.70897 0.38530 -0.13800
C 	C 	0.43460 0.66997 0.40387 0.07700
C 	C 	0.63020 0.91440 0.25671 0.08400
C 	C 	0.74650 0.91700 0.25879 -0.14800
C 	C 	0.80460 0.87083 0.26621 0.06700
C 	C 	0.74270 0.82525 0.27156 -0.14600
C 	C 	0.62670 0.82572 0.26938 0.08200
C 	C 	0.10830 0.92180 0.27901 0.09400
C 	C 	0.99210 0.92420 0.27886 -0.14600
C 	C 	0.93120 0.87187 0.26809 0.06100
C 	C 	0.99290 0.82043 0.25970 -0.14500
C 	C 	0.10820 0.82250 0.26062 0.07700
C 	C 	0.83090 0.52310 0.90057 0.07600
C 	C 	0.71520 0.52470 0.89912 -0.14200
C 	C 	0.65100 0.54967 0.92384 0.05800
C 	C 	0.70940 0.57670 0.94983 -0.13600
C 	C 	0.82830 0.57490 0.95003 0.07700
C 	C 	0.34790 0.59830 0.93922 0.08100
C 	C 	0.46370 0.59870 0.94017 -0.14000
C 	C 	0.52530 0.55103 0.92327 0.06200
C 	C 	0.46410 0.50630 0.90512 -0.14200
C 	C 	0.34850 0.50820 0.90566 0.09000
N 	N 	0.12930 0.80689 0.79660 -0.22500
N 	N 	0.08370 0.61206 0.89350 -0.23500
N 	N 	0.93090 0.86973 0.76247 -0.23000
N 	N 	0.33230 0.87315 0.76956 -0.23000
N 	N 	0.61270 0.54889 0.42571 -0.22800
N 	N 	0.21140 0.55229 0.42295 -0.22700
N 	N 	0.37070 0.80689 0.29660 -0.22500
N 	N 	0.41630 0.61206 0.39350 -0.23500
N 	N 	0.56910 0.86973 0.26247 -0.23000
N 	N 	0.16770 0.87315 0.26956 -0.23000
N 	N 	0.88730 0.54889 0.92571 -0.22800
N 	N 	0.28860 0.55229 0.92295 -0.22700
O 	O 	0.16020 0.86306 0.71200 -0.37900
O 	O 	0.15410 0.77557 0.72256 -0.35700
O 	O 	0.39940 0.63958 0.46828 -0.37200
O 	O 	0.39330 0.55405 0.47893 -0.36700
O 	O 	0.11500 0.97417 0.76979 -0.39500
O 	O 	0.12230 0.95086 0.81228 -0.38800
O 	O 	0.07550 0.46433 0.87687 -0.35300
O 	O 	0.09270 0.44867 0.92194 -0.38400
O 	O 	0.33980 0.86306 0.21200 -0.37900
O 	O 	0.34590 0.77557 0.22256 -0.35700
O 	O 	0.10060 0.63958 0.96828 -0.37200
O 	O 	0.10670 0.55405 0.97893 -0.36700
O 	O 	0.38500 0.97417 0.26979 -0.39500
O 	O 	0.37770 0.95086 0.31228 -0.38800
O 	O 	0.42450 0.46433 0.37687 -0.35300
O 	O 	0.40730 0.44867 0.42194 -0.38400
