data_crystal

_cell_length_a 11.46600
_cell_length_b 11.46600
_cell_length_c 11.46600
_cell_angle_alpha 90.00000
_cell_angle_beta  90.00000
_cell_angle_gamma 90.00000

_symmetry_space_group_name_	'P 1'
_symmetry_space_group_name_H-M	'P 1'

loop_
_symmetry_equiv_pos_as_xyz
  x,y,z

loop_
_atom_site_label
_atom_site_type_symbol
_atom_site_fract_x
_atom_site_fract_y
_atom_site_fract_z
_atom_site_charge
Co	Co	-0.00000 0.00000 -0.00000 1.12800
Co	Co	0.00000 0.50000 0.50000 1.16100
Co	Co	0.50000 0.00000 0.50000 1.16100
Co	Co	0.50000 0.50000 -0.00000 1.16200
C 	C 	0.00000 -0.00000 0.16370 -0.26200
N 	N 	0.00000 0.00000 0.25670 -0.11400
C 	C 	0.00000 0.50000 0.66370 -0.21500
N 	N 	0.00000 0.50000 0.75670 -0.07300
C 	C 	0.50000 0.00000 0.66370 -0.21500
N 	N 	0.50000 0.00000 0.75670 -0.07300
C 	C 	0.50000 0.50000 0.16370 -0.19200
N 	N 	0.50000 0.50000 0.25670 -0.08800
C 	C 	0.00000 0.00000 0.83630 -0.16500
N 	N 	0.00000 0.00000 0.74330 -0.12200
C 	C 	0.00000 0.50000 0.33630 -0.22900
N 	N 	0.00000 0.50000 0.24330 -0.10400
C 	C 	0.50000 0.00000 0.33630 -0.22900
N 	N 	0.50000 0.00000 0.24330 -0.10400
C 	C 	0.50000 0.50000 0.83630 -0.09900
N 	N 	0.50000 0.50000 0.74330 -0.09500
C 	C 	0.16370 0.00000 -0.00000 -0.26200
N 	N 	0.25670 0.00000 -0.00000 -0.11400
C 	C 	0.16370 0.50000 0.50000 -0.19200
N 	N 	0.25670 0.50000 0.50000 -0.08800
C 	C 	0.66370 0.00000 0.50000 -0.21500
N 	N 	0.75670 0.00000 0.50000 -0.07300
C 	C 	0.66370 0.50000 -0.00000 -0.21500
N 	N 	0.75670 0.50000 -0.00000 -0.07300
C 	C 	0.83630 0.00000 -0.00000 -0.16500
N 	N 	0.74330 0.00000 -0.00000 -0.12200
C 	C 	0.83630 0.50000 0.50000 -0.09900
N 	N 	0.74330 0.50000 0.50000 -0.09500
C 	C 	0.33630 0.00000 0.50000 -0.22900
N 	N 	0.24330 0.00000 0.50000 -0.10400
C 	C 	0.33630 0.50000 -0.00000 -0.22900
N 	N 	0.24330 0.50000 -0.00000 -0.10400
C 	C 	-0.00000 0.16370 -0.00000 -0.26200
N 	N 	0.00000 0.25670 -0.00000 -0.11400
C 	C 	0.00000 0.66370 0.50000 -0.21500
N 	N 	0.00000 0.75670 0.50000 -0.07300
C 	C 	0.50000 0.16370 0.50000 -0.19200
N 	N 	0.50000 0.25670 0.50000 -0.08800
C 	C 	0.50000 0.66370 -0.00000 -0.21500
N 	N 	0.50000 0.75670 -0.00000 -0.07300
C 	C 	-0.00000 0.83630 -0.00000 -0.16500
N 	N 	0.00000 0.74330 -0.00000 -0.12200
C 	C 	0.00000 0.33630 0.50000 -0.22900
N 	N 	0.00000 0.24330 0.50000 -0.10400
C 	C 	0.50000 0.83630 0.50000 -0.09900
N 	N 	0.50000 0.74330 0.50000 -0.09500
C 	C 	0.50000 0.33630 -0.00000 -0.22900
N 	N 	0.50000 0.24330 -0.00000 -0.10400
K 	K 	0.00000 0.00000 0.50000 0.62500
K 	K 	0.50000 0.50000 0.50000 0.65000
K 	K 	0.00000 0.50000 -0.00000 0.62500
K 	K 	0.50000 0.00000 -0.00000 0.62500
