data_crystal

_cell_length_a 12.72590
_cell_length_b 18.74860
_cell_length_c 36.79320
_cell_angle_alpha 90.00000
_cell_angle_beta  90.00000
_cell_angle_gamma 101.45200

_symmetry_space_group_name_	'P 1'
_symmetry_space_group_name_H-M	'P 1'

loop_
_symmetry_equiv_pos_as_xyz
  x,y,z

loop_
_atom_site_label
_atom_site_type_symbol
_atom_site_fract_x
_atom_site_fract_y
_atom_site_fract_z
_atom_site_charge
Na	Na	0.03406 0.01926 0.84611 0.58400
Na	Na	0.46594 0.48074 0.34611 0.58600
Na	Na	0.96594 0.98074 0.15389 0.58700
Na	Na	0.53406 0.51926 0.65389 0.58600
Co	Co	0.58053 0.82891 0.71069 1.16700
Co	Co	0.91947 0.67109 0.21069 1.16900
Co	Co	0.41947 0.17109 0.28931 1.16600
Co	Co	0.08053 0.32891 0.78931 1.16300
Co	Co	-0.00000 0.00000 -0.00000 1.09600
Co	Co	0.50000 0.50000 0.50000 1.10800
H 	H 	0.97800 0.70210 0.79660 -0.00300
H 	H 	0.29390 0.78370 0.80760 -0.00400
H 	H 	0.30960 0.02050 0.89890 0.00700
H 	H 	0.30170 0.17630 0.82400 0.00600
H 	H 	0.27180 0.01900 0.69540 0.00600
H 	H 	0.95370 0.94540 0.68560 0.01900
H 	H 	0.76540 0.04480 0.80420 -0.02600
H 	H 	0.77370 0.88520 0.87700 -0.00300
H 	H 	0.01060 0.84150 0.90810 0.09500
H 	H 	0.13710 0.87280 0.91060 0.10700
H 	H 	0.45580 0.99010 0.77140 0.07300
H 	H 	0.43350 0.92210 0.79860 0.08700
H 	H 	0.12380 0.17930 0.77300 0.09300
H 	H 	0.99880 0.15520 0.76350 0.09800
H 	H 	0.93150 0.78580 0.73680 0.08100
H 	H 	0.85040 0.76640 0.77020 0.09200
H 	H 	0.31680 0.67670 0.78320 0.31600
H 	H 	0.29340 0.65350 0.74170 0.30500
H 	H 	0.31360 0.73760 0.75300 0.31700
H 	H 	0.14590 0.59190 0.80080 0.31900
H 	H 	0.03660 0.59880 0.78090 0.30700
H 	H 	0.12880 0.57050 0.75890 0.30300
H 	H 	0.12310 0.66430 0.71300 0.28000
H 	H 	0.03220 0.69220 0.73590 0.29300
H 	H 	0.13930 0.74810 0.72460 0.29800
H 	H 	0.16190 0.14720 0.91260 0.28200
H 	H 	0.22760 0.09410 0.93260 0.28600
H 	H 	0.24220 0.17720 0.94510 0.27200
H 	H 	0.46440 0.12260 0.90890 0.23300
H 	H 	0.47990 0.20700 0.91930 0.22600
H 	H 	0.41060 0.14660 0.94500 0.25400
H 	H 	0.40740 0.26270 0.88220 0.29600
H 	H 	0.29450 0.24130 0.86180 0.32800
H 	H 	0.29890 0.26710 0.90330 0.30500
H 	H 	0.25360 0.01360 0.62720 0.26700
H 	H 	0.29520 0.95520 0.65230 0.29300
H 	H 	0.25190 0.93320 0.61220 0.27200
H 	H 	0.04140 0.83980 0.66790 0.27800
H 	H 	0.12230 0.82860 0.63600 0.26000
H 	H 	0.16680 0.84870 0.67620 0.28900
H 	H 	0.05870 0.00020 0.61480 0.27300
H 	H 	0.05940 0.92120 0.59850 0.27100
H 	H 	0.97680 0.93070 0.63000 0.29100
H 	H 	0.54820 0.93630 0.86680 0.29400
H 	H 	0.62170 0.91390 0.89850 0.29600
H 	H 	0.55920 0.97910 0.90470 0.29400
H 	H 	0.60520 0.05500 0.83510 0.27500
H 	H 	0.61540 0.09500 0.87370 0.27200
H 	H 	0.71490 0.10800 0.84620 0.27900
H 	H 	0.73290 0.06140 0.92120 0.29700
H 	H 	0.79420 0.99570 0.91480 0.31000
H 	H 	0.83210 0.07110 0.89370 0.30700
H 	H 	0.47500 0.20170 0.04870 0.11500
H 	H 	0.90240 0.40480 0.09180 0.11900
H 	H 	0.40500 0.02970 0.00560 0.11700
H 	H 	0.22960 0.97590 0.99430 0.00300
H 	H 	0.12570 0.14650 0.02940 -0.03100
H 	H 	0.29470 0.20510 0.04310 0.08500
H 	H 	0.76550 0.15140 0.00530 0.02600
H 	H 	0.92430 0.22820 0.02110 0.04600
H 	H 	0.92490 0.31950 0.06350 0.01400
H 	H 	0.60240 0.26120 0.07170 0.02600
H 	H 	0.69960 0.47690 0.13380 0.11500
H 	H 	0.73380 0.57800 0.17050 -0.02300
H 	H 	0.04250 0.58190 0.16790 -0.04000
H 	H 	0.01820 0.48550 0.12790 0.07300
H 	H 	0.52200 0.79790 0.29660 -0.01700
H 	H 	0.20610 0.71630 0.30760 -0.00600
H 	H 	0.19040 0.47950 0.39890 0.00100
H 	H 	0.19830 0.32370 0.32400 0.00200
H 	H 	0.22820 0.48100 0.19540 -0.00700
H 	H 	0.54630 0.55460 0.18560 -0.00400
H 	H 	0.73460 0.45520 0.30420 -0.02200
H 	H 	0.72630 0.61480 0.37700 -0.00500
H 	H 	0.48940 0.65850 0.40810 0.09600
H 	H 	0.36290 0.62720 0.41060 0.10500
H 	H 	0.04420 0.50990 0.27140 0.06300
H 	H 	0.06650 0.57790 0.29860 0.08200
H 	H 	0.37620 0.32070 0.27300 0.08500
H 	H 	0.50120 0.34480 0.26350 0.07800
H 	H 	0.56850 0.71420 0.23680 0.07700
H 	H 	0.64960 0.73360 0.27020 0.09100
H 	H 	0.18320 0.82330 0.28320 0.31900
H 	H 	0.20660 0.84650 0.24170 0.30800
H 	H 	0.18640 0.76240 0.25300 0.31900
H 	H 	0.35410 0.90810 0.30080 0.32600
H 	H 	0.46340 0.90120 0.28090 0.31700
H 	H 	0.37120 0.92950 0.25890 0.31200
H 	H 	0.37690 0.83570 0.21300 0.28500
H 	H 	0.46780 0.80780 0.23590 0.30000
H 	H 	0.36070 0.75190 0.22460 0.30200
H 	H 	0.33810 0.35280 0.41260 0.28300
H 	H 	0.27240 0.40590 0.43260 0.28600
H 	H 	0.25780 0.32280 0.44510 0.27100
H 	H 	0.03560 0.37740 0.40890 0.22800
H 	H 	0.02010 0.29300 0.41930 0.22000
H 	H 	0.08940 0.35340 0.44500 0.24900
H 	H 	0.09260 0.23730 0.38220 0.29200
H 	H 	0.20550 0.25870 0.36180 0.32700
H 	H 	0.20110 0.23290 0.40330 0.30300
H 	H 	0.24640 0.48640 0.12720 0.29400
H 	H 	0.20480 0.54480 0.15230 0.31100
H 	H 	0.24810 0.56680 0.11220 0.28900
H 	H 	0.45860 0.66020 0.16790 0.29400
H 	H 	0.37770 0.67140 0.13600 0.27400
H 	H 	0.33320 0.65130 0.17620 0.30200
H 	H 	0.44130 0.49980 0.11480 0.30100
H 	H 	0.44060 0.57880 0.09850 0.28700
H 	H 	0.52320 0.56930 0.13000 0.30300
H 	H 	0.95180 0.56370 0.36680 0.30200
H 	H 	0.87830 0.58610 0.39850 0.30300
H 	H 	0.94080 0.52090 0.40470 0.30000
H 	H 	0.89480 0.44500 0.33510 0.28400
H 	H 	0.88460 0.40500 0.37370 0.27900
H 	H 	0.78510 0.39200 0.34620 0.28300
H 	H 	0.76710 0.43860 0.42120 0.29400
H 	H 	0.70580 0.50430 0.41480 0.30100
H 	H 	0.66790 0.42890 0.39370 0.30000
H 	H 	0.02500 0.29830 0.54870 0.11300
H 	H 	0.59760 0.09520 0.59180 0.11600
H 	H 	0.09500 0.47030 0.50560 0.12500
H 	H 	0.27040 0.52410 0.49430 -0.01900
H 	H 	0.37430 0.35350 0.52940 -0.02800
H 	H 	0.20530 0.29490 0.54310 0.08700
H 	H 	0.73450 0.34860 0.50530 0.02600
H 	H 	0.57570 0.27180 0.52110 0.04300
H 	H 	0.57510 0.18050 0.56350 0.01200
H 	H 	0.89760 0.23880 0.57170 0.02900
H 	H 	0.80040 0.02310 0.63380 0.11700
H 	H 	0.76620 0.92200 0.67050 -0.02500
H 	H 	0.45750 0.91810 0.66790 -0.02400
H 	H 	0.48180 0.01450 0.62790 0.07000
H 	H 	0.02200 0.29790 0.20340 -0.03300
H 	H 	0.70610 0.21630 0.19240 -0.00800
H 	H 	0.69040 0.97950 0.10110 -0.00300
H 	H 	0.69830 0.82370 0.17600 -0.00200
H 	H 	0.72820 0.98100 0.30460 -0.01300
H 	H 	0.04630 0.05460 0.31440 -0.02800
H 	H 	0.23460 0.95520 0.19580 -0.01300
H 	H 	0.22630 0.11480 0.12300 -0.00600
H 	H 	0.98940 0.15850 0.09190 0.09900
H 	H 	0.86290 0.12720 0.08940 0.10400
H 	H 	0.54420 0.00990 0.22860 0.06300
H 	H 	0.56650 0.07790 0.20140 0.08200
H 	H 	0.87620 0.82070 0.22700 0.08000
H 	H 	0.00120 0.84480 0.23650 0.06700
H 	H 	0.06850 0.21420 0.26320 0.07200
H 	H 	0.14960 0.23360 0.22980 0.08900
H 	H 	0.68320 0.32330 0.21680 0.32300
H 	H 	0.70660 0.34650 0.25830 0.31200
H 	H 	0.68640 0.26240 0.24700 0.32400
H 	H 	0.85410 0.40810 0.19920 0.33000
H 	H 	0.96340 0.40120 0.21910 0.32400
H 	H 	0.87120 0.42950 0.24110 0.31500
H 	H 	0.87690 0.33570 0.28700 0.29100
H 	H 	0.96780 0.30780 0.26410 0.30900
H 	H 	0.86070 0.25190 0.27540 0.30800
H 	H 	0.83810 0.85280 0.08740 0.28700
H 	H 	0.77240 0.90590 0.06740 0.29000
H 	H 	0.75780 0.82280 0.05490 0.27500
H 	H 	0.53560 0.87740 0.09110 0.23600
H 	H 	0.52010 0.79300 0.08070 0.22600
H 	H 	0.58940 0.85340 0.05500 0.25300
H 	H 	0.59260 0.73730 0.11780 0.29900
H 	H 	0.70550 0.75870 0.13820 0.33300
H 	H 	0.70110 0.73290 0.09670 0.30900
H 	H 	0.74640 0.98640 0.37280 0.31000
H 	H 	0.70480 0.04480 0.34770 0.32200
H 	H 	0.74810 0.06680 0.38780 0.30000
H 	H 	0.95860 0.16020 0.33210 0.30500
H 	H 	0.87770 0.17140 0.36400 0.28200
H 	H 	0.83320 0.15130 0.32380 0.30900
H 	H 	0.94130 0.99980 0.38520 0.30600
H 	H 	0.94060 0.07880 0.40150 0.28900
H 	H 	0.02320 0.06930 0.37000 0.29300
H 	H 	0.45180 0.06370 0.13320 0.29900
H 	H 	0.37830 0.08610 0.10150 0.30200
H 	H 	0.44080 0.02090 0.09530 0.29500
H 	H 	0.39480 0.94500 0.16490 0.28300
H 	H 	0.38460 0.90500 0.12630 0.27600
H 	H 	0.28510 0.89200 0.15380 0.28100
H 	H 	0.26710 0.93860 0.07880 0.28400
H 	H 	0.20580 0.00430 0.08520 0.28300
H 	H 	0.16790 0.92890 0.10630 0.28900
H 	H 	0.52500 0.79830 0.95130 0.11600
H 	H 	0.09760 0.59520 0.90820 0.11600
H 	H 	0.59500 0.97030 0.99440 0.13700
H 	H 	0.77040 0.02410 0.00570 -0.03400
H 	H 	0.87430 0.85350 0.97060 -0.02500
H 	H 	0.70530 0.79490 0.95690 0.09100
H 	H 	0.23450 0.84860 0.99470 0.02800
H 	H 	0.07570 0.77180 0.97890 0.04200
H 	H 	0.07510 0.68050 0.93650 0.01100
H 	H 	0.39760 0.73880 0.92830 0.02600
H 	H 	0.30040 0.52310 0.86620 0.11600
H 	H 	0.26620 0.42200 0.82950 -0.02400
H 	H 	0.95750 0.41810 0.83210 -0.01900
H 	H 	0.98180 0.51450 0.87210 0.10000
H 	H 	0.47800 0.20210 0.70340 -0.01700
H 	H 	0.79390 0.28370 0.69240 -0.00500
H 	H 	0.80960 0.52050 0.60110 0.00000
H 	H 	0.80170 0.67630 0.67600 0.00100
H 	H 	0.77180 0.51900 0.80460 -0.00700
H 	H 	0.45370 0.44540 0.81440 -0.00500
H 	H 	0.26540 0.54480 0.69580 -0.02000
H 	H 	0.27370 0.38520 0.62300 -0.00400
H 	H 	0.51060 0.34150 0.59190 0.09600
H 	H 	0.63710 0.37280 0.58940 0.10500
H 	H 	0.95580 0.49010 0.72860 0.07100
H 	H 	0.93350 0.42210 0.70140 0.08700
H 	H 	0.62380 0.67930 0.72700 0.08500
H 	H 	0.49880 0.65520 0.73650 0.07800
H 	H 	0.43150 0.28580 0.76320 0.07700
H 	H 	0.35040 0.26640 0.72980 0.09100
H 	H 	0.81680 0.17670 0.71680 0.32100
H 	H 	0.79340 0.15350 0.75830 0.31000
H 	H 	0.81360 0.23760 0.74700 0.32200
H 	H 	0.64590 0.09190 0.69920 0.32300
H 	H 	0.53660 0.09880 0.71910 0.31300
H 	H 	0.62880 0.07050 0.74110 0.30700
H 	H 	0.62310 0.16430 0.78700 0.28500
H 	H 	0.53220 0.19220 0.76410 0.30000
H 	H 	0.63930 0.24810 0.77540 0.30300
H 	H 	0.66190 0.64720 0.58740 0.28700
H 	H 	0.72760 0.59410 0.56740 0.29100
H 	H 	0.74220 0.67720 0.55490 0.27700
H 	H 	0.96440 0.62260 0.59110 0.24100
H 	H 	0.97990 0.70700 0.58070 0.23300
H 	H 	0.91060 0.64660 0.55500 0.25900
H 	H 	0.90740 0.76270 0.61780 0.30400
H 	H 	0.79450 0.74130 0.63820 0.33500
H 	H 	0.79890 0.76710 0.59670 0.31300
H 	H 	0.75360 0.51360 0.87280 0.30000
H 	H 	0.79520 0.45520 0.84770 0.31700
H 	H 	0.75190 0.43320 0.88780 0.29600
H 	H 	0.54140 0.33980 0.83210 0.29700
H 	H 	0.62230 0.32860 0.86400 0.27800
H 	H 	0.66680 0.34870 0.82380 0.30500
H 	H 	0.55870 0.50020 0.88520 0.30500
H 	H 	0.55940 0.42120 0.90150 0.29100
H 	H 	0.47680 0.43070 0.87000 0.30600
H 	H 	0.04820 0.43630 0.63320 0.28900
H 	H 	0.12170 0.41390 0.60150 0.29400
H 	H 	0.05920 0.47910 0.59530 0.28800
H 	H 	0.10520 0.55500 0.66490 0.27400
H 	H 	0.11540 0.59500 0.62630 0.26900
H 	H 	0.21490 0.60800 0.65380 0.27700
H 	H 	0.23290 0.56140 0.57880 0.28900
H 	H 	0.29420 0.49570 0.58520 0.29700
H 	H 	0.33210 0.57110 0.60630 0.29600
H 	H 	0.97500 0.70170 0.45130 0.11800
H 	H 	0.40240 0.90480 0.40820 0.11900
H 	H 	0.90500 0.52970 0.49440 0.13000
H 	H 	0.72960 0.47590 0.50570 -0.01900
H 	H 	0.62570 0.64650 0.47060 -0.02800
H 	H 	0.79470 0.70510 0.45690 0.09000
H 	H 	0.26550 0.65140 0.49470 0.02700
H 	H 	0.42430 0.72820 0.47890 0.04400
H 	H 	0.42490 0.81950 0.43650 0.01300
H 	H 	0.10240 0.76120 0.42830 0.02400
H 	H 	0.19960 0.97690 0.36620 0.11400
H 	H 	0.23380 0.07800 0.32950 -0.02200
H 	H 	0.54250 0.08190 0.33210 -0.03600
H 	H 	0.51820 0.98550 0.37210 0.10100
C 	C 	0.09407 0.84287 0.84388 0.13500
C 	C 	0.01078 0.79108 0.82938 -0.07500
C 	C 	0.03502 0.73772 0.80614 0.06200
C 	C 	0.14023 0.73493 0.79648 -0.25000
C 	C 	0.22130 0.78540 0.81282 0.08400
C 	C 	0.19908 0.83828 0.83651 -0.06500
C 	C 	0.30084 0.00414 0.81075 0.07800
C 	C 	0.30233 0.98343 0.84691 -0.04200
C 	C 	0.30810 0.03540 0.87423 0.01500
C 	C 	0.31160 0.10830 0.86656 -0.22300
C 	C 	0.30340 0.12730 0.83010 0.03000
C 	C 	0.29770 0.07630 0.80261 -0.05300
C 	C 	0.08096 0.04446 0.75059 0.09600
C 	C 	0.18423 0.04963 0.73694 -0.04000
C 	C 	0.20070 0.01580 0.70414 0.03900
C 	C 	0.11570 0.97770 0.68410 -0.20000
C 	C 	0.01310 0.97260 0.69845 0.02700
C 	C 	0.99526 0.00566 0.73049 -0.02400
C 	C 	0.86796 0.89986 0.79423 0.13000
C 	C 	0.84015 0.96615 0.78580 -0.07000
C 	C 	0.78390 0.99980 0.81062 0.07000
C 	C 	0.75370 0.97000 0.84461 -0.24100
C 	C 	0.78880 0.90560 0.85346 0.05500
C 	C 	0.84499 0.87079 0.82895 -0.07300
C 	C 	0.06780 0.88440 0.90297 -0.21200
C 	C 	0.04740 0.94810 0.92405 0.40700
C 	C 	0.40740 0.94290 0.77639 -0.18000
C 	C 	0.41190 0.89180 0.74474 0.38000
C 	C 	0.05471 0.14981 0.78138 -0.25200
C 	C 	0.02640 0.17640 0.81792 0.40200
C 	C 	0.87670 0.80350 0.75145 -0.17700
C 	C 	0.78446 0.81166 0.72705 0.37200
C 	C 	0.16290 0.68130 0.76721 0.71200
C 	C 	0.28230 0.68790 0.76070 -1.00800
C 	C 	0.11430 0.60380 0.77789 -1.00500
C 	C 	0.10970 0.69800 0.73208 -0.96400
C 	C 	0.32210 0.16540 0.89678 0.62100
C 	C 	0.23010 0.14400 0.92430 -0.90300
C 	C 	0.43010 0.15990 0.91980 -0.78100
C 	C 	0.33150 0.24020 0.88510 -1.01200
C 	C 	0.13040 0.93710 0.64877 0.64800
C 	C 	0.24280 0.96200 0.63381 -0.90800
C 	C 	0.11370 0.85630 0.65804 -0.91400
C 	C 	0.04920 0.94830 0.62056 -0.92900
C 	C 	0.69320 0.00870 0.87199 0.65800
C 	C 	0.59700 0.95470 0.88683 -0.93300
C 	C 	0.65370 0.07230 0.85527 -0.93400
C 	C 	0.77010 0.03680 0.90324 -0.97000
C 	C 	0.34900 0.05490 0.01089 -0.21300
C 	C 	0.24390 0.02360 0.00426 0.05800
C 	C 	0.18340 0.12240 0.02476 0.09200
C 	C 	0.28350 0.15780 0.03271 -0.22500
C 	C 	0.37140 0.12510 0.02566 0.17300
C 	C 	0.56840 0.14840 0.02391 0.21800
C 	C 	0.66800 0.19920 0.03629 -0.08500
C 	C 	0.76440 0.18980 0.02210 0.00400
C 	C 	0.85880 0.23480 0.03167 -0.08500
C 	C 	0.85910 0.28910 0.05641 0.00100
C 	C 	0.76150 0.30000 0.07137 -0.08300
C 	C 	0.66830 0.25470 0.06133 0.00900
C 	C 	0.75540 0.35890 0.09758 0.22400
C 	C 	0.85550 0.46960 0.12691 0.19800
C 	C 	0.77150 0.49830 0.14010 -0.23600
C 	C 	0.79270 0.55800 0.16240 0.11300
C 	C 	0.97170 0.56080 0.16040 0.11000
C 	C 	0.95790 0.50270 0.13704 -0.21800
C 	C 	0.40593 0.65713 0.34388 0.13800
C 	C 	0.48922 0.70892 0.32938 -0.07500
C 	C 	0.46498 0.76228 0.30614 0.08400
C 	C 	0.35977 0.76507 0.29648 -0.26200
C 	C 	0.27870 0.71460 0.31282 0.09100
C 	C 	0.30092 0.66172 0.33651 -0.06900
C 	C 	0.19916 0.49586 0.31075 0.11000
C 	C 	0.19767 0.51657 0.34691 -0.07500
C 	C 	0.19190 0.46460 0.37423 0.04200
C 	C 	0.18840 0.39170 0.36656 -0.23600
C 	C 	0.19660 0.37270 0.33010 0.04200
C 	C 	0.20230 0.42370 0.30261 -0.06800
C 	C 	0.41904 0.45554 0.25059 0.13200
C 	C 	0.31577 0.45037 0.23694 -0.06300
C 	C 	0.29930 0.48420 0.20414 0.08400
C 	C 	0.38430 0.52230 0.18410 -0.25200
C 	C 	0.48690 0.52740 0.19845 0.07700
C 	C 	0.50474 0.49434 0.23049 -0.06400
C 	C 	0.63204 0.60014 0.29423 0.13200
C 	C 	0.65985 0.53385 0.28580 -0.07800
C 	C 	0.71610 0.50020 0.31062 0.06400
C 	C 	0.74630 0.53000 0.34461 -0.25000
C 	C 	0.71120 0.59440 0.35346 0.05800
C 	C 	0.65501 0.62921 0.32895 -0.07600
C 	C 	0.43220 0.61560 0.40297 -0.20500
C 	C 	0.45260 0.55190 0.42405 0.39100
C 	C 	0.09260 0.55710 0.27639 -0.17200
C 	C 	0.08810 0.60820 0.24474 0.37600
C 	C 	0.44529 0.35019 0.28138 -0.21800
C 	C 	0.47360 0.32360 0.31792 0.39400
C 	C 	0.62330 0.69650 0.25145 -0.17400
C 	C 	0.71554 0.68834 0.22705 0.37000
C 	C 	0.33710 0.81870 0.26721 0.72600
C 	C 	0.21770 0.81210 0.26070 -1.01900
C 	C 	0.38570 0.89620 0.27789 -1.02400
C 	C 	0.39030 0.80200 0.23208 -0.97800
C 	C 	0.17790 0.33460 0.39678 0.62200
C 	C 	0.26990 0.35600 0.42430 -0.90400
C 	C 	0.06990 0.34010 0.41980 -0.77400
C 	C 	0.16850 0.25980 0.38510 -1.00900
C 	C 	0.36960 0.56290 0.14877 0.70100
C 	C 	0.25720 0.53800 0.13381 -0.98100
C 	C 	0.38630 0.64370 0.15804 -0.95900
C 	C 	0.45080 0.55170 0.12056 -0.99000
C 	C 	0.80680 0.49130 0.37199 0.67400
C 	C 	0.90300 0.54530 0.38683 -0.95600
C 	C 	0.84630 0.42770 0.35527 -0.94900
C 	C 	0.72990 0.46320 0.40324 -0.95800
C 	C 	0.15100 0.44510 0.51089 -0.23100
C 	C 	0.25610 0.47640 0.50426 0.09400
C 	C 	0.31660 0.37760 0.52476 0.09600
C 	C 	0.21650 0.34220 0.53271 -0.23000
C 	C 	0.12860 0.37490 0.52566 0.18000
C 	C 	0.93160 0.35160 0.52391 0.22700
C 	C 	0.83200 0.30080 0.53629 -0.08500
C 	C 	0.73560 0.31020 0.52210 0.00400
C 	C 	0.64120 0.26520 0.53167 -0.08500
C 	C 	0.64090 0.21090 0.55641 0.00000
C 	C 	0.73850 0.20000 0.57137 -0.08200
C 	C 	0.83170 0.24530 0.56133 0.00900
C 	C 	0.74460 0.14110 0.59758 0.22300
C 	C 	0.64450 0.03040 0.62691 0.18700
C 	C 	0.72850 0.00170 0.64010 -0.24300
C 	C 	0.70730 0.94200 0.66240 0.12300
C 	C 	0.52830 0.93920 0.66040 0.08800
C 	C 	0.54210 0.99730 0.63704 -0.20000
C 	C 	0.90593 0.15713 0.15612 0.14000
C 	C 	0.98922 0.20892 0.17062 -0.07200
C 	C 	0.96498 0.26228 0.19386 0.10800
C 	C 	0.85977 0.26507 0.20352 -0.27400
C 	C 	0.77870 0.21460 0.18718 0.09800
C 	C 	0.80092 0.16172 0.16349 -0.07300
C 	C 	0.69916 0.99586 0.18925 0.13000
C 	C 	0.69767 0.01657 0.15309 -0.09500
C 	C 	0.69190 0.96460 0.12577 0.06200
C 	C 	0.68840 0.89170 0.13344 -0.24800
C 	C 	0.69660 0.87270 0.16990 0.05300
C 	C 	0.70230 0.92370 0.19739 -0.07700
C 	C 	0.91904 0.95554 0.24941 0.15200
C 	C 	0.81577 0.95037 0.26306 -0.07600
C 	C 	0.79930 0.98420 0.29586 0.10900
C 	C 	0.88430 0.02230 0.31590 -0.28200
C 	C 	0.98690 0.02740 0.30155 0.12300
C 	C 	0.00474 0.99434 0.26951 -0.09000
C 	C 	0.13204 0.10014 0.20577 0.13200
C 	C 	0.15985 0.03385 0.21420 -0.08700
C 	C 	0.21610 0.00020 0.18938 0.05000
C 	C 	0.24630 0.03000 0.15539 -0.25400
C 	C 	0.21120 0.09440 0.14654 0.05700
C 	C 	0.15501 0.12921 0.17105 -0.07800
C 	C 	0.93220 0.11560 0.09703 -0.20300
C 	C 	0.95260 0.05190 0.07595 0.38600
C 	C 	0.59260 0.05710 0.22361 -0.16900
C 	C 	0.58810 0.10820 0.25526 0.37600
C 	C 	0.94529 0.85019 0.21862 -0.20000
C 	C 	0.97360 0.82360 0.18208 0.38900
C 	C 	0.12330 0.19650 0.24855 -0.17100
C 	C 	0.21554 0.18834 0.27295 0.36800
C 	C 	0.83710 0.31870 0.23279 0.74000
C 	C 	0.71770 0.31210 0.23930 -1.03200
C 	C 	0.88570 0.39620 0.22211 -1.03700
C 	C 	0.89030 0.30200 0.26792 -0.99400
C 	C 	0.67790 0.83460 0.10322 0.63500
C 	C 	0.76990 0.85600 0.07570 -0.91500
C 	C 	0.56990 0.84010 0.08020 -0.78700
C 	C 	0.66850 0.75980 0.11490 -1.02600
C 	C 	0.86960 0.06290 0.35123 0.72300
C 	C 	0.75720 0.03800 0.36619 -1.01900
C 	C 	0.88630 0.14370 0.34196 -0.98100
C 	C 	0.95080 0.05170 0.37944 -0.98800
C 	C 	0.30680 0.99130 0.12801 0.67600
C 	C 	0.40300 0.04530 0.11317 -0.95900
C 	C 	0.34630 0.92770 0.14473 -0.94500
C 	C 	0.22990 0.96320 0.09676 -0.92400
C 	C 	0.65100 0.94510 0.98911 -0.24500
C 	C 	0.75610 0.97640 0.99574 0.12100
C 	C 	0.81660 0.87760 0.97524 0.10000
C 	C 	0.71650 0.84220 0.96729 -0.23500
C 	C 	0.62860 0.87490 0.97434 0.18900
C 	C 	0.43160 0.85160 0.97609 0.21800
C 	C 	0.33200 0.80080 0.96371 -0.08300
C 	C 	0.23560 0.81020 0.97790 0.00300
C 	C 	0.14120 0.76520 0.96833 -0.08400
C 	C 	0.14090 0.71090 0.94359 0.00000
C 	C 	0.23850 0.70000 0.92863 -0.08300
C 	C 	0.33170 0.74530 0.93867 0.00800
C 	C 	0.24460 0.64110 0.90242 0.22400
C 	C 	0.14450 0.53040 0.87309 0.20800
C 	C 	0.22850 0.50170 0.85990 -0.24200
C 	C 	0.20730 0.44200 0.83760 0.11600
C 	C 	0.02830 0.43920 0.83960 0.08800
C 	C 	0.04210 0.49730 0.86296 -0.25000
C 	C 	0.59407 0.34287 0.65612 0.13800
C 	C 	0.51078 0.29108 0.67062 -0.07500
C 	C 	0.53502 0.23772 0.69386 0.08400
C 	C 	0.64023 0.23493 0.70352 -0.26200
C 	C 	0.72130 0.28540 0.68718 0.09100
C 	C 	0.69908 0.33828 0.66349 -0.07000
C 	C 	0.80084 0.50414 0.68925 0.11300
C 	C 	0.80233 0.48343 0.65309 -0.07600
C 	C 	0.80810 0.53540 0.62577 0.04800
C 	C 	0.81160 0.60830 0.63344 -0.24200
C 	C 	0.80340 0.62730 0.66990 0.04800
C 	C 	0.79770 0.57630 0.69739 -0.06900
C 	C 	0.58096 0.54446 0.74941 0.13300
C 	C 	0.68423 0.54963 0.76306 -0.06400
C 	C 	0.70070 0.51580 0.79586 0.08700
C 	C 	0.61570 0.47770 0.81590 -0.25500
C 	C 	0.51310 0.47260 0.80155 0.07900
C 	C 	0.49526 0.50566 0.76951 -0.06500
C 	C 	0.36796 0.39986 0.70577 0.13000
C 	C 	0.34015 0.46615 0.71420 -0.07700
C 	C 	0.28390 0.49980 0.68938 0.05900
C 	C 	0.25370 0.47000 0.65539 -0.24500
C 	C 	0.28880 0.40560 0.64654 0.05400
C 	C 	0.34499 0.37079 0.67105 -0.07500
C 	C 	0.56780 0.38440 0.59703 -0.20500
C 	C 	0.54740 0.44810 0.57595 0.39100
C 	C 	0.90740 0.44290 0.72361 -0.17500
C 	C 	0.91190 0.39180 0.75526 0.37800
C 	C 	0.55471 0.64981 0.71862 -0.21800
C 	C 	0.52640 0.67640 0.68208 0.39400
C 	C 	0.37670 0.30350 0.74855 -0.17500
C 	C 	0.28446 0.31166 0.77295 0.37100
C 	C 	0.66290 0.18130 0.73279 0.72500
C 	C 	0.78230 0.18790 0.73930 -1.02200
C 	C 	0.61430 0.10380 0.72211 -1.01800
C 	C 	0.60970 0.19800 0.76792 -0.97800
C 	C 	0.82210 0.66540 0.60322 0.63800
C 	C 	0.73010 0.64400 0.57570 -0.91900
C 	C 	0.93010 0.65990 0.58020 -0.79600
C 	C 	0.83150 0.74020 0.61490 -1.03300
C 	C 	0.63040 0.43710 0.85123 0.71000
C 	C 	0.74280 0.46200 0.86619 -0.99500
C 	C 	0.61370 0.35630 0.84196 -0.96800
C 	C 	0.54920 0.44830 0.87944 -1.00000
C 	C 	0.19320 0.50870 0.62801 0.65900
C 	C 	0.09700 0.45470 0.61317 -0.93300
C 	C 	0.15370 0.57230 0.64473 -0.92900
C 	C 	0.27010 0.53680 0.59676 -0.94400
C 	C 	0.84900 0.55490 0.48911 -0.23200
C 	C 	0.74390 0.52360 0.49574 0.09500
C 	C 	0.68340 0.62240 0.47524 0.09700
C 	C 	0.78350 0.65780 0.46729 -0.23100
C 	C 	0.87140 0.62510 0.47434 0.18300
C 	C 	0.06840 0.64840 0.47609 0.21100
C 	C 	0.16800 0.69920 0.46371 -0.08300
C 	C 	0.26440 0.68980 0.47790 0.00300
C 	C 	0.35880 0.73480 0.46833 -0.08400
C 	C 	0.35910 0.78910 0.44359 0.00100
C 	C 	0.26150 0.80000 0.42863 -0.08300
C 	C 	0.16830 0.75470 0.43867 0.00800
C 	C 	0.25540 0.85890 0.40242 0.22500
C 	C 	0.35550 0.96960 0.37309 0.21700
C 	C 	0.27150 0.99830 0.35990 -0.23100
C 	C 	0.29270 0.05800 0.33760 0.10300
C 	C 	0.47170 0.06080 0.33960 0.11200
C 	C 	0.45790 0.00270 0.36296 -0.26500
S 	S 	0.30809 0.89318 0.86006 -0.00900
S 	S 	0.29801 0.10617 0.75708 -0.02900
S 	S 	0.85981 0.00509 0.74212 -0.02700
S 	S 	0.87548 0.78640 0.84267 0.01100
S 	S 	0.19191 0.60682 0.36006 -0.00600
S 	S 	0.20199 0.39383 0.25708 -0.02100
S 	S 	0.64019 0.49491 0.24212 -0.01300
S 	S 	0.62452 0.71360 0.34267 0.00500
S 	S 	0.69191 0.10682 0.13994 -0.00000
S 	S 	0.70199 0.89383 0.24292 -0.01100
S 	S 	0.14019 0.99491 0.25788 0.00300
S 	S 	0.12452 0.21360 0.15733 -0.00600
S 	S 	0.80809 0.39318 0.63994 0.00100
S 	S 	0.79801 0.60617 0.74292 -0.01400
S 	S 	0.35981 0.50509 0.75788 -0.01300
S 	S 	0.37548 0.28640 0.65733 0.00200
N 	N 	0.16008 0.05468 0.01067 -0.26700
N 	N 	0.47240 0.16350 0.03460 -0.25400
N 	N 	0.84450 0.40990 0.10379 -0.25500
N 	N 	0.88976 0.58966 0.17335 -0.27400
N 	N 	0.33992 0.44532 0.51067 -0.27000
N 	N 	0.02760 0.33650 0.53460 -0.26100
N 	N 	0.65550 0.09010 0.60379 -0.25300
N 	N 	0.61024 0.91034 0.67335 -0.27200
N 	N 	0.83992 0.94532 0.98933 -0.27000
N 	N 	0.52760 0.83650 0.96540 -0.25700
N 	N 	0.15550 0.59010 0.89621 -0.25700
N 	N 	0.11024 0.41034 0.82665 -0.27400
N 	N 	0.66008 0.55468 0.48933 -0.27000
N 	N 	0.97240 0.66350 0.46540 -0.25200
N 	N 	0.34450 0.90990 0.39621 -0.25900
N 	N 	0.38976 0.08966 0.32665 -0.27500
O 	O 	0.07042 0.89962 0.86456 -0.21000
O 	O 	0.05135 0.94025 0.95790 -0.46500
O 	O 	0.02726 0.00226 0.90784 -0.40700
O 	O 	0.30161 0.95491 0.78277 -0.14500
O 	O 	0.49373 0.86253 0.74734 -0.47700
O 	O 	0.34570 0.88350 0.72058 -0.33100
O 	O 	0.06313 0.07403 0.78393 -0.20100
O 	O 	0.02355 0.24405 0.81892 -0.48700
O 	O 	0.00581 0.13461 0.84371 -0.37800
O 	O 	0.92604 0.87014 0.76918 -0.16100
O 	O 	0.70051 0.82161 0.74285 -0.44700
O 	O 	0.79389 0.80739 0.69397 -0.36100
O 	O 	0.57280 0.09800 0.00313 -0.26900
O 	O 	0.66940 0.36180 0.11265 -0.25600
O 	O 	0.42958 0.60038 0.36456 -0.21300
O 	O 	0.44865 0.55975 0.45790 -0.46400
O 	O 	0.47274 0.49774 0.40784 -0.39000
O 	O 	0.19839 0.54509 0.28277 -0.15900
O 	O 	0.00627 0.63747 0.24734 -0.48100
O 	O 	0.15430 0.61650 0.22058 -0.33300
O 	O 	0.43687 0.42597 0.28393 -0.20900
O 	O 	0.47645 0.25595 0.31892 -0.48000
O 	O 	0.49419 0.36539 0.34371 -0.37000
O 	O 	0.57396 0.62986 0.26918 -0.16700
O 	O 	0.79949 0.67839 0.24285 -0.44500
O 	O 	0.70611 0.69261 0.19397 -0.36100
O 	O 	0.92720 0.40200 0.50313 -0.26300
O 	O 	0.83060 0.13820 0.61265 -0.25300
O 	O 	0.92958 0.10038 0.13544 -0.21200
O 	O 	0.94865 0.05975 0.04210 -0.45900
O 	O 	0.97274 0.99774 0.09216 -0.38100
O 	O 	0.69839 0.04509 0.21723 -0.16700
O 	O 	0.50627 0.13747 0.25266 -0.47700
O 	O 	0.65430 0.11650 0.27942 -0.33300
O 	O 	0.93687 0.92597 0.21607 -0.21300
O 	O 	0.97645 0.75595 0.18108 -0.47500
O 	O 	0.99419 0.86539 0.15629 -0.36400
O 	O 	0.07396 0.12986 0.23082 -0.17300
O 	O 	0.29949 0.17839 0.25715 -0.44700
O 	O 	0.20611 0.19261 0.30603 -0.36200
O 	O 	0.42720 0.90200 0.99687 -0.26000
O 	O 	0.33060 0.63820 0.88735 -0.25600
O 	O 	0.57042 0.39962 0.63544 -0.21300
O 	O 	0.55135 0.44025 0.54210 -0.46400
O 	O 	0.52726 0.50226 0.59216 -0.39000
O 	O 	0.80161 0.45491 0.71723 -0.15800
O 	O 	0.99373 0.36253 0.75266 -0.47000
O 	O 	0.84570 0.38350 0.77942 -0.33100
O 	O 	0.56313 0.57403 0.71607 -0.20900
O 	O 	0.52355 0.74405 0.68108 -0.47900
O 	O 	0.50581 0.63461 0.65629 -0.37000
O 	O 	0.42604 0.37014 0.73082 -0.16600
O 	O 	0.20051 0.32161 0.75715 -0.45000
O 	O 	0.29389 0.30739 0.80603 -0.36200
O 	O 	0.07280 0.59800 0.49687 -0.26700
O 	O 	0.16940 0.86180 0.38735 -0.25700
