data_crystal

_cell_length_a 22.61290
_cell_length_b 22.61290
_cell_length_c 27.69470
_cell_angle_alpha 114.09500
_cell_angle_beta  114.09500
_cell_angle_gamma 90.00000

_symmetry_space_group_name_	'P 1'
_symmetry_space_group_name_H-M	'P 1'

loop_
_symmetry_equiv_pos_as_xyz
  x,y,z

loop_
_atom_site_label
_atom_site_type_symbol
_atom_site_fract_x
_atom_site_fract_y
_atom_site_fract_z
_atom_site_charge
Co	Co	0.75000 0.69207 0.50000 1.11500
Co	Co	0.25000 0.80793 0.50000 1.11500
Co	Co	0.69207 0.25000 -0.00000 1.11200
Co	Co	0.80793 0.75000 1.00000 1.11900
Co	Co	0.25000 0.30793 0.50000 1.11500
Co	Co	0.75000 0.19207 0.50000 1.11500
Co	Co	0.30793 0.75000 -0.00000 1.11100
Co	Co	0.19207 0.25000 -0.00000 1.11000
H 	H 	0.08310 0.81970 0.86940 -0.00500
H 	H 	0.04600 0.99430 0.87180 0.00300
H 	H 	0.89150 0.83960 0.68220 0.08800
H 	H 	0.90510 0.77540 0.69280 0.09000
H 	H 	0.06340 0.02810 0.96060 0.28900
H 	H 	0.14150 0.03440 0.98300 0.29800
H 	H 	0.10840 0.02470 0.02120 0.26800
H 	H 	0.13970 0.86510 0.95380 0.28200
H 	H 	0.15730 0.92450 0.01740 0.25300
H 	H 	0.19020 0.93160 0.97820 0.27400
H 	H 	0.03360 0.86270 0.94120 0.23100
H 	H 	0.99830 0.92470 0.94480 0.21500
H 	H 	0.05640 0.92680 0.00340 0.20400
H 	H 	0.67670 0.25530 0.42000 -0.02000
H 	H 	0.67340 0.35660 0.41780 0.05700
H 	H 	0.65080 0.46340 0.45420 0.05000
H 	H 	0.65350 0.56630 0.45600 -0.01900
H 	H 	0.28630 0.04970 0.86940 -0.00800
H 	H 	0.32580 0.87750 0.87180 0.00100
H 	H 	0.29070 0.84260 0.68220 0.08800
H 	H 	0.28770 0.91740 0.69280 0.09000
H 	H 	0.39720 0.93250 0.96060 0.29400
H 	H 	0.34150 0.94860 0.98300 0.30300
H 	H 	0.41280 0.99650 0.02120 0.27400
H 	H 	0.31410 0.08870 0.95380 0.28600
H 	H 	0.36010 0.09290 0.01740 0.25800
H 	H 	0.28800 0.04660 0.97820 0.27800
H 	H 	0.40760 0.07850 0.94120 0.23600
H 	H 	0.44650 0.02010 0.94480 0.22200
H 	H 	0.44700 0.07660 0.00340 0.21000
H 	H 	0.24330 0.16470 0.42000 -0.02000
H 	H 	0.24440 0.06120 0.41780 0.05700
H 	H 	0.30340 0.99080 0.45420 0.05000
H 	H 	0.30250 0.88970 0.45600 -0.01900
H 	H 	0.81970 0.28630 0.36940 -0.01300
H 	H 	0.99430 0.32580 0.37180 -0.00300
H 	H 	0.83960 0.29070 0.18220 0.08800
H 	H 	0.77540 0.28770 0.19280 0.09000
H 	H 	0.02810 0.39720 0.46060 0.31500
H 	H 	0.03440 0.34150 0.48300 0.32300
H 	H 	0.02470 0.41280 0.52120 0.30300
H 	H 	0.86510 0.31410 0.45380 0.30400
H 	H 	0.92450 0.36010 0.51740 0.28300
H 	H 	0.93160 0.28800 0.47820 0.29500
H 	H 	0.86270 0.40760 0.44120 0.25100
H 	H 	0.92470 0.44650 0.44480 0.23800
H 	H 	0.92680 0.44700 0.50340 0.23300
H 	H 	0.25530 0.24330 0.92000 -0.02300
H 	H 	0.35660 0.24440 0.91780 0.06500
H 	H 	0.46340 0.30340 0.95420 0.04100
H 	H 	0.56630 0.30250 0.95600 -0.01600
H 	H 	0.04970 0.08310 0.36940 -0.01100
H 	H 	0.87750 0.04600 0.37180 -0.00200
H 	H 	0.84260 0.89150 0.18220 0.08800
H 	H 	0.91740 0.90510 0.19280 0.09000
H 	H 	0.93250 0.06340 0.46060 0.31300
H 	H 	0.94860 0.14150 0.48300 0.32000
H 	H 	0.99650 0.10840 0.52120 0.30100
H 	H 	0.08870 0.13970 0.45380 0.30200
H 	H 	0.09290 0.15730 0.51740 0.28200
H 	H 	0.04660 0.19020 0.47820 0.29300
H 	H 	0.07850 0.03360 0.44120 0.24900
H 	H 	0.02010 0.99830 0.44480 0.23500
H 	H 	0.07660 0.05640 0.50340 0.23100
H 	H 	0.16470 0.67670 0.92000 -0.02100
H 	H 	0.06120 0.67340 0.91780 0.05500
H 	H 	0.99080 0.65080 0.95420 0.04400
H 	H 	0.88970 0.65350 0.95600 -0.01600
H 	H 	0.21370 0.68030 0.13060 -0.01900
H 	H 	0.17420 0.50570 0.12820 -0.01000
H 	H 	0.20930 0.66040 0.31780 0.08800
H 	H 	0.21230 0.72460 0.30720 0.09000
H 	H 	0.10280 0.47190 0.03940 0.34000
H 	H 	0.15850 0.46560 0.01700 0.34600
H 	H 	0.08720 0.47530 0.97880 0.33600
H 	H 	0.18590 0.63490 0.04620 0.32600
H 	H 	0.13990 0.57550 0.98260 0.31300
H 	H 	0.21200 0.56840 0.02180 0.31500
H 	H 	0.09240 0.63730 0.05880 0.27000
H 	H 	0.05350 0.57530 0.05520 0.25700
H 	H 	0.05300 0.57320 0.99660 0.26000
H 	H 	0.25670 0.24470 0.58000 -0.02000
H 	H 	0.25560 0.14340 0.58220 0.05700
H 	H 	0.19660 0.03660 0.54580 0.05000
H 	H 	0.19750 0.93370 0.54400 -0.01900
H 	H 	0.41690 0.45030 0.13060 -0.01900
H 	H 	0.45400 0.62250 0.12820 -0.00900
H 	H 	0.60850 0.65740 0.31780 0.08800
H 	H 	0.59490 0.58260 0.30720 0.09000
H 	H 	0.43660 0.56750 0.03940 0.33800
H 	H 	0.35850 0.55140 0.01700 0.34400
H 	H 	0.39160 0.50350 0.97880 0.33300
H 	H 	0.36030 0.41130 0.04620 0.32400
H 	H 	0.34270 0.40710 0.98260 0.31100
H 	H 	0.30980 0.45340 0.02180 0.31300
H 	H 	0.46640 0.42150 0.05880 0.26800
H 	H 	0.50170 0.47990 0.05520 0.25600
H 	H 	0.44360 0.42340 0.99660 0.25700
H 	H 	0.82330 0.33530 0.58000 -0.02000
H 	H 	0.82660 0.43880 0.58220 0.05700
H 	H 	0.84920 0.50920 0.54580 0.05000
H 	H 	0.84650 0.61030 0.54400 -0.01900
H 	H 	0.45030 0.21370 0.63060 -0.01200
H 	H 	0.62250 0.17420 0.62820 -0.00300
H 	H 	0.65740 0.20930 0.81780 0.08900
H 	H 	0.58260 0.21230 0.80720 0.09100
H 	H 	0.56750 0.10280 0.53940 0.31500
H 	H 	0.55140 0.15850 0.51700 0.32200
H 	H 	0.50350 0.08720 0.47880 0.30300
H 	H 	0.41130 0.18590 0.54620 0.30400
H 	H 	0.40710 0.13990 0.48260 0.28300
H 	H 	0.45340 0.21200 0.52180 0.29500
H 	H 	0.42150 0.09240 0.55880 0.25100
H 	H 	0.47990 0.05350 0.55520 0.23800
H 	H 	0.42340 0.05300 0.49660 0.23300
H 	H 	0.33530 0.25670 0.08000 -0.02100
H 	H 	0.43880 0.25560 0.08220 0.06600
H 	H 	0.50920 0.19660 0.04580 0.04200
H 	H 	0.61030 0.19750 0.04400 -0.01600
H 	H 	0.68030 0.41690 0.63060 -0.01200
H 	H 	0.50570 0.45400 0.62820 -0.00300
H 	H 	0.66040 0.60850 0.81780 0.08800
H 	H 	0.72460 0.59490 0.80720 0.09000
H 	H 	0.47190 0.43660 0.53940 0.31400
H 	H 	0.46560 0.35850 0.51700 0.32200
H 	H 	0.47530 0.39160 0.47880 0.30200
H 	H 	0.63490 0.36030 0.54620 0.30400
H 	H 	0.57550 0.34270 0.48260 0.28300
H 	H 	0.56840 0.30980 0.52180 0.29500
H 	H 	0.63730 0.46640 0.55880 0.25100
H 	H 	0.57530 0.50170 0.55520 0.23800
H 	H 	0.57320 0.44360 0.49660 0.23200
H 	H 	0.24470 0.82330 0.08000 -0.02000
H 	H 	0.14340 0.82660 0.08220 0.05700
H 	H 	0.03660 0.84920 0.04580 0.04700
H 	H 	0.93370 0.84650 0.04400 -0.01700
H 	H 	0.91690 0.18030 0.13060 -0.01800
H 	H 	0.95400 0.00570 0.12820 -0.00700
H 	H 	0.10850 0.16040 0.31780 0.08800
H 	H 	0.09490 0.22460 0.30720 0.09000
H 	H 	0.93660 0.97190 0.03940 0.33400
H 	H 	0.85850 0.96560 0.01700 0.34000
H 	H 	0.89160 0.97530 0.97880 0.32800
H 	H 	0.86030 0.13490 0.04620 0.32100
H 	H 	0.84270 0.07550 0.98260 0.30600
H 	H 	0.80980 0.06840 0.02180 0.31000
H 	H 	0.96640 0.13730 0.05880 0.26400
H 	H 	0.00170 0.07530 0.05520 0.25000
H 	H 	0.94360 0.07320 0.99660 0.25200
H 	H 	0.32330 0.74470 0.58000 -0.02000
H 	H 	0.32660 0.64340 0.58220 0.05700
H 	H 	0.34920 0.53660 0.54580 0.05000
H 	H 	0.34650 0.43370 0.54400 -0.01900
H 	H 	0.71370 0.95030 0.13060 -0.01600
H 	H 	0.67420 0.12250 0.12820 -0.00700
H 	H 	0.70930 0.15740 0.31780 0.08800
H 	H 	0.71230 0.08260 0.30720 0.09100
H 	H 	0.60280 0.06750 0.03940 0.33400
H 	H 	0.65850 0.05140 0.01700 0.34000
H 	H 	0.58720 0.00350 0.97880 0.32900
H 	H 	0.68590 0.91130 0.04620 0.32000
H 	H 	0.63990 0.90710 0.98260 0.30600
H 	H 	0.71200 0.95340 0.02180 0.31000
H 	H 	0.59240 0.92150 0.05880 0.26500
H 	H 	0.55350 0.97990 0.05520 0.25300
H 	H 	0.55300 0.92340 0.99660 0.25400
H 	H 	0.75670 0.83530 0.58000 -0.02000
H 	H 	0.75560 0.93880 0.58220 0.05700
H 	H 	0.69660 0.00920 0.54580 0.05000
H 	H 	0.69750 0.11030 0.54400 -0.01900
H 	H 	0.18030 0.71370 0.63060 -0.01200
H 	H 	0.00570 0.67420 0.62820 -0.00300
H 	H 	0.16040 0.70930 0.81780 0.08900
H 	H 	0.22460 0.71230 0.80720 0.09000
H 	H 	0.97190 0.60280 0.53940 0.31400
H 	H 	0.96560 0.65850 0.51700 0.32200
H 	H 	0.97530 0.58720 0.47880 0.30200
H 	H 	0.13490 0.68590 0.54620 0.30400
H 	H 	0.07550 0.63990 0.48260 0.28300
H 	H 	0.06840 0.71200 0.52180 0.29500
H 	H 	0.13730 0.59240 0.55880 0.25100
H 	H 	0.07530 0.55350 0.55520 0.23800
H 	H 	0.07320 0.55300 0.49660 0.23200
H 	H 	0.74470 0.75670 0.08000 -0.02000
H 	H 	0.64340 0.75560 0.08220 0.05700
H 	H 	0.53660 0.69660 0.04580 0.04500
H 	H 	0.43370 0.69750 0.04400 -0.01500
H 	H 	0.95030 0.91690 0.63060 -0.01100
H 	H 	0.12250 0.95400 0.62820 -0.00300
H 	H 	0.15740 0.10850 0.81780 0.08900
H 	H 	0.08260 0.09490 0.80720 0.09100
H 	H 	0.06750 0.93660 0.53940 0.31400
H 	H 	0.05140 0.85850 0.51700 0.32200
H 	H 	0.00350 0.89160 0.47880 0.30200
H 	H 	0.91130 0.86030 0.54620 0.30400
H 	H 	0.90710 0.84270 0.48260 0.28300
H 	H 	0.95340 0.80980 0.52180 0.29400
H 	H 	0.92150 0.96640 0.55880 0.25100
H 	H 	0.97990 0.00170 0.55520 0.24000
H 	H 	0.92340 0.94360 0.49660 0.23300
H 	H 	0.83530 0.32330 0.08000 -0.01900
H 	H 	0.93880 0.32660 0.08220 0.05600
H 	H 	0.00920 0.34920 0.04580 0.05000
H 	H 	0.11030 0.34650 0.04400 -0.02100
H 	H 	0.78630 0.31970 0.86940 -0.00700
H 	H 	0.82580 0.49430 0.87180 0.00100
H 	H 	0.79070 0.33960 0.68220 0.08800
H 	H 	0.78770 0.27540 0.69280 0.09100
H 	H 	0.89720 0.52810 0.96060 0.29500
H 	H 	0.84150 0.53440 0.98300 0.30400
H 	H 	0.91280 0.52470 0.02120 0.27700
H 	H 	0.81410 0.36510 0.95380 0.28800
H 	H 	0.86010 0.42450 0.01740 0.26100
H 	H 	0.78800 0.43160 0.97820 0.28000
H 	H 	0.90760 0.36270 0.94120 0.23700
H 	H 	0.94650 0.42470 0.94480 0.22300
H 	H 	0.94700 0.42680 0.00340 0.21300
H 	H 	0.74330 0.75530 0.42000 -0.02000
H 	H 	0.74440 0.85660 0.41780 0.05700
H 	H 	0.80340 0.96340 0.45420 0.05000
H 	H 	0.80250 0.06630 0.45600 -0.02000
H 	H 	0.58310 0.54970 0.86940 -0.00600
H 	H 	0.54600 0.37750 0.87180 0.00200
H 	H 	0.39150 0.34260 0.68220 0.08900
H 	H 	0.40510 0.41740 0.69280 0.09100
H 	H 	0.56340 0.43250 0.96060 0.29300
H 	H 	0.64150 0.44860 0.98300 0.30200
H 	H 	0.60840 0.49650 0.02120 0.27300
H 	H 	0.63970 0.58870 0.95380 0.28600
H 	H 	0.65730 0.59290 0.01740 0.25800
H 	H 	0.69020 0.54660 0.97820 0.27700
H 	H 	0.53360 0.57850 0.94120 0.23500
H 	H 	0.49830 0.52010 0.94480 0.22100
H 	H 	0.55640 0.57660 0.00340 0.20900
H 	H 	0.17670 0.66470 0.42000 -0.02000
H 	H 	0.17340 0.56120 0.41780 0.05700
H 	H 	0.15080 0.49080 0.45420 0.05000
H 	H 	0.15350 0.38970 0.45600 -0.01900
H 	H 	0.54970 0.78630 0.36940 -0.01200
H 	H 	0.37750 0.82580 0.37180 -0.00400
H 	H 	0.34260 0.79070 0.18220 0.08800
H 	H 	0.41740 0.78770 0.19280 0.09000
H 	H 	0.43250 0.89720 0.46060 0.31400
H 	H 	0.44860 0.84150 0.48300 0.32200
H 	H 	0.49650 0.91280 0.52120 0.30200
H 	H 	0.58870 0.81410 0.45380 0.30400
H 	H 	0.59290 0.86010 0.51740 0.28300
H 	H 	0.54660 0.78800 0.47820 0.29500
H 	H 	0.57850 0.90760 0.44120 0.25000
H 	H 	0.52010 0.94650 0.44480 0.23700
H 	H 	0.57660 0.94700 0.50340 0.23200
H 	H 	0.66470 0.74330 0.92000 -0.02100
H 	H 	0.56120 0.74440 0.91780 0.05600
H 	H 	0.49080 0.80340 0.95420 0.04400
H 	H 	0.38970 0.80250 0.95600 -0.01500
H 	H 	0.31970 0.58310 0.36940 -0.01300
H 	H 	0.49430 0.54600 0.37180 -0.00400
H 	H 	0.33960 0.39150 0.18220 0.08800
H 	H 	0.27540 0.40510 0.19280 0.09000
H 	H 	0.52810 0.56340 0.46060 0.31500
H 	H 	0.53440 0.64150 0.48300 0.32200
H 	H 	0.52470 0.60840 0.52120 0.30200
H 	H 	0.36510 0.63970 0.45380 0.30400
H 	H 	0.42450 0.65730 0.51740 0.28300
H 	H 	0.43160 0.69020 0.47820 0.29500
H 	H 	0.36270 0.53360 0.44120 0.25100
H 	H 	0.42470 0.49830 0.44480 0.23800
H 	H 	0.42680 0.55640 0.50340 0.23200
H 	H 	0.75530 0.17670 0.92000 -0.02000
H 	H 	0.85660 0.17340 0.91780 0.05500
H 	H 	0.96340 0.15080 0.95420 0.05000
H 	H 	0.06630 0.15350 0.95600 -0.02100
C 	C 	0.01120 0.85267 0.75718 0.12700
C 	C 	0.03755 0.81554 0.78776 -0.06100
C 	C 	0.06462 0.84531 0.84908 0.07300
C 	C 	0.06549 0.91112 0.88136 -0.23200
C 	C 	0.04282 0.94826 0.85046 0.06800
C 	C 	0.08015 0.72645 0.71096 -0.06700
C 	C 	0.91256 0.80072 0.67320 -0.19000
C 	C 	0.88074 0.75806 0.60754 0.38600
C 	C 	0.09307 0.94210 0.94886 0.62100
C 	C 	0.10230 0.01300 0.98100 -0.95300
C 	C 	0.15014 0.91334 0.97708 -0.86900
C 	C 	0.04024 0.91114 0.96068 -0.72900
C 	C 	0.70726 0.29342 0.45354 0.05500
C 	C 	0.70516 0.35358 0.45172 -0.13700
C 	C 	0.69195 0.49305 0.47326 -0.13200
C 	C 	0.69402 0.55438 0.47436 0.06000
C 	C 	0.24598 0.90451 0.75718 0.13000
C 	C 	0.25021 0.97222 0.78776 -0.06500
C 	C 	0.28446 0.00377 0.84908 0.08100
C 	C 	0.31587 0.97024 0.88136 -0.24200
C 	C 	0.30764 0.90220 0.85046 0.07400
C 	C 	0.13081 0.98451 0.71096 -0.06700
C 	C 	0.26064 0.87248 0.67320 -0.18900
C 	C 	0.22680 0.84948 0.60754 0.38600
C 	C 	0.35579 0.00676 0.94886 0.63700
C 	C 	0.37870 0.96800 0.98100 -0.97400
C 	C 	0.32694 0.06374 0.97708 -0.88400
C 	C 	0.42044 0.04954 0.96068 -0.74700
C 	C 	0.24628 0.16012 0.45354 0.05500
C 	C 	0.24656 0.09814 0.45172 -0.13600
C 	C 	0.28131 0.98021 0.47326 -0.13400
C 	C 	0.28034 0.91998 0.47436 0.06000
C 	C 	0.85267 0.24598 0.25718 0.13200
C 	C 	0.81554 0.25021 0.28776 -0.06800
C 	C 	0.84531 0.28446 0.34908 0.09000
C 	C 	0.91112 0.31587 0.38136 -0.26000
C 	C 	0.94826 0.30764 0.35046 0.08500
C 	C 	0.72645 0.13081 0.21096 -0.07100
C 	C 	0.80072 0.26064 0.17320 -0.19000
C 	C 	0.75806 0.22680 0.10754 0.38600
C 	C 	0.94210 0.35579 0.44886 0.68700
C 	C 	0.01300 0.37870 0.48100 -1.05200
C 	C 	0.91334 0.32694 0.47708 -0.95400
C 	C 	0.91114 0.42044 0.46068 -0.80800
C 	C 	0.29342 0.24628 0.95354 0.06600
C 	C 	0.35358 0.24656 0.95172 -0.15500
C 	C 	0.49305 0.28131 0.97326 -0.10400
C 	C 	0.55438 0.28034 0.97436 0.05700
C 	C 	0.90451 0.01120 0.25718 0.13100
C 	C 	0.97222 0.03755 0.28776 -0.06400
C 	C 	0.00377 0.06462 0.34908 0.08400
C 	C 	0.97024 0.06549 0.38136 -0.25400
C 	C 	0.90220 0.04282 0.35046 0.08100
C 	C 	0.98451 0.08015 0.21096 -0.07100
C 	C 	0.87248 0.91256 0.17320 -0.19000
C 	C 	0.84948 0.88074 0.10754 0.38600
C 	C 	0.00676 0.09307 0.44886 0.68000
C 	C 	0.96800 0.10230 0.48100 -1.04400
C 	C 	0.06374 0.15014 0.47708 -0.94900
C 	C 	0.04954 0.04024 0.46068 -0.80200
C 	C 	0.16012 0.70726 0.95354 0.06200
C 	C 	0.09814 0.70516 0.95172 -0.12600
C 	C 	0.98021 0.69195 0.97326 -0.11400
C 	C 	0.91998 0.69402 0.97436 0.05300
C 	C 	0.25402 0.64733 0.24282 0.13700
C 	C 	0.24979 0.68446 0.21224 -0.07500
C 	C 	0.21554 0.65469 0.15092 0.10500
C 	C 	0.18413 0.58888 0.11864 -0.28600
C 	C 	0.19236 0.55174 0.14954 0.10000
C 	C 	0.36919 0.77355 0.28904 -0.06700
C 	C 	0.23936 0.69928 0.32680 -0.18900
C 	C 	0.27320 0.74194 0.39246 0.38500
C 	C 	0.14421 0.55790 0.05114 0.74900
C 	C 	0.12130 0.48700 0.01900 -1.14400
C 	C 	0.17306 0.58666 0.02292 -1.03700
C 	C 	0.07956 0.58886 0.03932 -0.88200
C 	C 	0.25372 0.20658 0.54646 0.05500
C 	C 	0.25344 0.14642 0.54828 -0.13600
C 	C 	0.21869 0.00695 0.52674 -0.13100
C 	C 	0.21966 0.94562 0.52564 0.05900
C 	C 	0.48880 0.59549 0.24282 0.13700
C 	C 	0.46245 0.52778 0.21224 -0.07400
C 	C 	0.43538 0.49623 0.15092 0.10300
C 	C 	0.43451 0.52976 0.11864 -0.28400
C 	C 	0.45718 0.59780 0.14954 0.09800
C 	C 	0.41985 0.51549 0.28904 -0.06700
C 	C 	0.58744 0.62752 0.32680 -0.18900
C 	C 	0.61926 0.65052 0.39246 0.38500
C 	C 	0.40693 0.49324 0.05114 0.74400
C 	C 	0.39770 0.53200 0.01900 -1.13600
C 	C 	0.34986 0.43626 0.02292 -1.03000
C 	C 	0.45976 0.45046 0.03932 -0.87500
C 	C 	0.79274 0.33988 0.54646 0.05500
C 	C 	0.79484 0.40186 0.54828 -0.13700
C 	C 	0.80805 0.51979 0.52674 -0.13200
C 	C 	0.80598 0.58002 0.52564 0.06000
C 	C 	0.59549 0.25402 0.74282 0.13200
C 	C 	0.52778 0.24979 0.71224 -0.06700
C 	C 	0.49623 0.21554 0.65092 0.08900
C 	C 	0.52976 0.18413 0.61864 -0.26000
C 	C 	0.59780 0.19236 0.64954 0.08500
C 	C 	0.51549 0.36919 0.78904 -0.06100
C 	C 	0.62752 0.23936 0.82680 -0.18900
C 	C 	0.65052 0.27320 0.89246 0.38400
C 	C 	0.49324 0.14421 0.55114 0.68700
C 	C 	0.53200 0.12130 0.51900 -1.05100
C 	C 	0.43626 0.17306 0.52292 -0.95400
C 	C 	0.45046 0.07956 0.53932 -0.80900
C 	C 	0.33988 0.25372 0.04646 0.05600
C 	C 	0.40186 0.25344 0.04828 -0.16300
C 	C 	0.51979 0.21869 0.02674 -0.11300
C 	C 	0.58002 0.21966 0.02564 0.04800
C 	C 	0.64733 0.48880 0.74282 0.13200
C 	C 	0.68446 0.46245 0.71224 -0.06700
C 	C 	0.65469 0.43538 0.65092 0.08900
C 	C 	0.58888 0.43451 0.61864 -0.25900
C 	C 	0.55174 0.45718 0.64954 0.08400
C 	C 	0.77355 0.41985 0.78904 -0.06200
C 	C 	0.69928 0.58744 0.82680 -0.18900
C 	C 	0.74194 0.61926 0.89246 0.38500
C 	C 	0.55790 0.40693 0.55114 0.68600
C 	C 	0.48700 0.39770 0.51900 -1.05000
C 	C 	0.58666 0.34986 0.52292 -0.95300
C 	C 	0.58886 0.45976 0.53932 -0.80800
C 	C 	0.20658 0.79274 0.04646 0.05200
C 	C 	0.14642 0.79484 0.04828 -0.13500
C 	C 	0.00695 0.80805 0.02674 -0.12500
C 	C 	0.94562 0.80598 0.02564 0.04800
C 	C 	0.98880 0.14733 0.24282 0.13600
C 	C 	0.96245 0.18446 0.21224 -0.07300
C 	C 	0.93538 0.15469 0.15092 0.10100
C 	C 	0.93451 0.08888 0.11864 -0.27900
C 	C 	0.95718 0.05174 0.14954 0.09600
C 	C 	0.91985 0.27355 0.28904 -0.06700
C 	C 	0.08744 0.19928 0.32680 -0.18800
C 	C 	0.11926 0.24194 0.39246 0.38500
C 	C 	0.90693 0.05790 0.05114 0.73400
C 	C 	0.89770 0.98700 0.01900 -1.12200
C 	C 	0.84986 0.08666 0.02292 -1.01700
C 	C 	0.95976 0.08886 0.03932 -0.85700
C 	C 	0.29274 0.70658 0.54646 0.05500
C 	C 	0.29484 0.64642 0.54828 -0.13700
C 	C 	0.30805 0.50695 0.52674 -0.13200
C 	C 	0.30598 0.44562 0.52564 0.06000
C 	C 	0.75402 0.09549 0.24282 0.13400
C 	C 	0.74979 0.02778 0.21224 -0.06900
C 	C 	0.71554 0.99623 0.15092 0.09500
C 	C 	0.68413 0.02976 0.11864 -0.27500
C 	C 	0.69236 0.09780 0.14954 0.09400
C 	C 	0.86919 0.01549 0.28904 -0.06400
C 	C 	0.73936 0.12752 0.32680 -0.18900
C 	C 	0.77320 0.15052 0.39246 0.38500
C 	C 	0.64421 0.99324 0.05114 0.73200
C 	C 	0.62130 0.03200 0.01900 -1.12100
C 	C 	0.67306 0.93626 0.02292 -1.01700
C 	C 	0.57956 0.95046 0.03932 -0.86500
C 	C 	0.75372 0.83988 0.54646 0.05500
C 	C 	0.75344 0.90186 0.54828 -0.13700
C 	C 	0.71869 0.01979 0.52674 -0.13100
C 	C 	0.71966 0.08002 0.52564 0.06000
C 	C 	0.14733 0.75402 0.74282 0.13200
C 	C 	0.18446 0.74979 0.71224 -0.06700
C 	C 	0.15469 0.71554 0.65092 0.08900
C 	C 	0.08888 0.68413 0.61864 -0.25900
C 	C 	0.05174 0.69236 0.64954 0.08400
C 	C 	0.27355 0.86919 0.78904 -0.06300
C 	C 	0.19928 0.73936 0.82680 -0.18900
C 	C 	0.24194 0.77320 0.89246 0.38500
C 	C 	0.05790 0.64421 0.55114 0.68600
C 	C 	0.98700 0.62130 0.51900 -1.05000
C 	C 	0.08666 0.67306 0.52292 -0.95300
C 	C 	0.08886 0.57956 0.53932 -0.80800
C 	C 	0.70658 0.75372 0.04646 0.05300
C 	C 	0.64642 0.75344 0.04828 -0.13600
C 	C 	0.50695 0.71869 0.02674 -0.12000
C 	C 	0.44562 0.71966 0.02564 0.04200
C 	C 	0.09549 0.98880 0.74282 0.13000
C 	C 	0.02778 0.96245 0.71224 -0.06500
C 	C 	0.99623 0.93538 0.65092 0.08600
C 	C 	0.02976 0.93451 0.61864 -0.25800
C 	C 	0.09780 0.95718 0.64954 0.08300
C 	C 	0.01549 0.91985 0.78904 -0.05900
C 	C 	0.12752 0.08744 0.82680 -0.18900
C 	C 	0.15052 0.11926 0.89246 0.38500
C 	C 	0.99324 0.90693 0.55114 0.68500
C 	C 	0.03200 0.89770 0.51900 -1.04900
C 	C 	0.93626 0.84986 0.52292 -0.95300
C 	C 	0.95046 0.95976 0.53932 -0.81100
C 	C 	0.83988 0.29274 0.04646 0.05100
C 	C 	0.90186 0.29484 0.04828 -0.13300
C 	C 	0.01979 0.30805 0.02674 -0.13700
C 	C 	0.08002 0.30598 0.02564 0.06000
C 	C 	0.74598 0.35267 0.75718 0.12800
C 	C 	0.75021 0.31554 0.78776 -0.06300
C 	C 	0.78446 0.34531 0.84908 0.07800
C 	C 	0.81587 0.41112 0.88136 -0.24000
C 	C 	0.80764 0.44826 0.85046 0.07300
C 	C 	0.63081 0.22645 0.71096 -0.06700
C 	C 	0.76064 0.30072 0.67320 -0.19000
C 	C 	0.72680 0.25806 0.60754 0.38600
C 	C 	0.85579 0.44210 0.94886 0.64000
C 	C 	0.87870 0.51300 0.98100 -0.98000
C 	C 	0.82694 0.41334 0.97708 -0.89100
C 	C 	0.92044 0.41114 0.96068 -0.75400
C 	C 	0.74628 0.79342 0.45354 0.05500
C 	C 	0.74656 0.85358 0.45172 -0.13700
C 	C 	0.78131 0.99305 0.47326 -0.13400
C 	C 	0.78034 0.05438 0.47436 0.06200
C 	C 	0.51120 0.40451 0.75718 0.12800
C 	C 	0.53755 0.47222 0.78776 -0.06200
C 	C 	0.56462 0.50377 0.84908 0.07600
C 	C 	0.56549 0.47024 0.88136 -0.23700
C 	C 	0.54282 0.40220 0.85046 0.07200
C 	C 	0.58015 0.48451 0.71096 -0.06700
C 	C 	0.41256 0.37248 0.67320 -0.19000
C 	C 	0.38074 0.34948 0.60754 0.38600
C 	C 	0.59307 0.50676 0.94886 0.63300
C 	C 	0.60230 0.46800 0.98100 -0.97000
C 	C 	0.65014 0.56374 0.97708 -0.88300
C 	C 	0.54024 0.54954 0.96068 -0.74500
C 	C 	0.20726 0.66012 0.45354 0.05500
C 	C 	0.20516 0.59814 0.45172 -0.13700
C 	C 	0.19195 0.48021 0.47326 -0.13200
C 	C 	0.19402 0.41998 0.47436 0.06000
C 	C 	0.40451 0.74598 0.25718 0.13200
C 	C 	0.47222 0.75021 0.28776 -0.06800
C 	C 	0.50377 0.78446 0.34908 0.08900
C 	C 	0.47024 0.81587 0.38136 -0.26000
C 	C 	0.40220 0.80764 0.35046 0.08500
C 	C 	0.48451 0.63081 0.21096 -0.07300
C 	C 	0.37248 0.76064 0.17320 -0.19000
C 	C 	0.34948 0.72680 0.10754 0.38600
C 	C 	0.50676 0.85579 0.44886 0.68600
C 	C 	0.46800 0.87870 0.48100 -1.04900
C 	C 	0.56374 0.82694 0.47708 -0.95300
C 	C 	0.54954 0.92044 0.46068 -0.80700
C 	C 	0.66012 0.74628 0.95354 0.06100
C 	C 	0.59814 0.74656 0.95172 -0.12900
C 	C 	0.48021 0.78131 0.97326 -0.11100
C 	C 	0.41998 0.78034 0.97436 0.05200
C 	C 	0.35267 0.51120 0.25718 0.13200
C 	C 	0.31554 0.53755 0.28776 -0.06800
C 	C 	0.34531 0.56462 0.34908 0.09000
C 	C 	0.41112 0.56549 0.38136 -0.26000
C 	C 	0.44826 0.54282 0.35046 0.08500
C 	C 	0.22645 0.58015 0.21096 -0.07400
C 	C 	0.30072 0.41256 0.17320 -0.19000
C 	C 	0.25806 0.38074 0.10754 0.38600
C 	C 	0.44210 0.59307 0.44886 0.68600
C 	C 	0.51300 0.60230 0.48100 -1.05000
C 	C 	0.41334 0.65014 0.47708 -0.95400
C 	C 	0.41114 0.54024 0.46068 -0.80800
C 	C 	0.79342 0.20726 0.95354 0.06000
C 	C 	0.85358 0.20516 0.95172 -0.12600
C 	C 	0.99305 0.19195 0.97326 -0.13000
C 	C 	0.05438 0.19402 0.97436 0.07300
C 	C 	0.75000 0.40938 0.50000 0.03500
C 	C 	0.75000 0.47505 0.50000 0.04100
C 	C 	0.25000 0.09062 0.50000 0.03500
C 	C 	0.25000 0.02495 0.50000 0.04100
C 	C 	0.40938 0.25000 1.00000 0.07300
C 	C 	0.47505 0.25000 -0.00000 0.00200
C 	C 	0.09062 0.75000 -0.00000 0.02600
C 	C 	0.02495 0.75000 -0.00000 0.02600
C 	C 	0.25000 0.59062 0.50000 0.03500
C 	C 	0.25000 0.52495 0.50000 0.04100
C 	C 	0.75000 0.90938 0.50000 0.03500
C 	C 	0.75000 0.97505 0.50000 0.04000
C 	C 	0.59062 0.75000 -0.00000 0.03000
C 	C 	0.52495 0.75000 -0.00000 0.02200
C 	C 	0.90938 0.25000 -0.00000 0.02400
C 	C 	0.97505 0.25000 -0.00000 0.03900
S 	S 	0.03128 0.72924 0.74820 0.00500
S 	S 	0.21692 0.01896 0.74820 0.00700
S 	S 	0.72924 0.21692 0.24820 0.00700
S 	S 	0.01896 0.03128 0.24820 0.00500
S 	S 	0.28308 0.77076 0.25180 0.00700
S 	S 	0.46872 0.48104 0.25180 0.00700
S 	S 	0.48104 0.28308 0.75180 0.00500
S 	S 	0.77076 0.46872 0.75180 0.00500
S 	S 	0.96872 0.27076 0.25180 0.00700
S 	S 	0.78308 0.98104 0.25180 0.00400
S 	S 	0.27076 0.78308 0.75180 0.00500
S 	S 	0.98104 0.96872 0.75180 0.00200
S 	S 	0.71692 0.22924 0.74820 0.00500
S 	S 	0.53128 0.51896 0.74820 0.00500
S 	S 	0.51896 0.71692 0.24820 0.00700
S 	S 	0.22924 0.53128 0.24820 0.00700
N 	N 	0.75000 0.28630 0.50000 -0.24900
N 	N 	0.75000 0.59805 0.50000 -0.24900
N 	N 	0.25000 0.21370 0.50000 -0.24900
N 	N 	0.25000 0.90195 0.50000 -0.24900
N 	N 	0.28630 0.25000 1.00000 -0.24500
N 	N 	0.59805 0.25000 -0.00000 -0.25000
N 	N 	0.21370 0.75000 -0.00000 -0.25500
N 	N 	0.90195 0.75000 1.00000 -0.24100
N 	N 	0.25000 0.71370 0.50000 -0.24900
N 	N 	0.25000 0.40195 0.50000 -0.24900
N 	N 	0.75000 0.78630 0.50000 -0.24900
N 	N 	0.75000 0.09805 0.50000 -0.24900
N 	N 	0.71370 0.75000 -0.00000 -0.25500
N 	N 	0.40195 0.75000 1.00000 -0.23800
N 	N 	0.78630 0.25000 -0.00000 -0.25300
N 	N 	0.09805 0.25000 -0.00000 -0.25600
O 	O 	0.98193 0.82282 0.69646 -0.15200
O 	O 	0.81949 0.73582 0.58672 -0.46700
O 	O 	0.91335 0.74792 0.57998 -0.33300
O 	O 	0.21453 0.87364 0.69646 -0.15200
O 	O 	0.26723 0.85090 0.58672 -0.46700
O 	O 	0.16663 0.83206 0.57998 -0.33300
O 	O 	0.82282 0.21453 0.19646 -0.15300
O 	O 	0.73582 0.26723 0.08672 -0.46800
O 	O 	0.74792 0.16663 0.07998 -0.33500
O 	O 	0.87364 0.98193 0.19646 -0.15400
O 	O 	0.85090 0.81949 0.08672 -0.47000
O 	O 	0.83206 0.91335 0.07998 -0.33600
O 	O 	0.28547 0.67718 0.30354 -0.15400
O 	O 	0.23277 0.76418 0.41328 -0.46700
O 	O 	0.33337 0.75208 0.42002 -0.33300
O 	O 	0.51807 0.62636 0.30354 -0.15400
O 	O 	0.68051 0.64910 0.41328 -0.46700
O 	O 	0.58665 0.66794 0.42002 -0.33300
O 	O 	0.62636 0.28547 0.80354 -0.15300
O 	O 	0.64910 0.23277 0.91328 -0.46300
O 	O 	0.66794 0.33337 0.92002 -0.32900
O 	O 	0.67718 0.51807 0.80354 -0.15300
O 	O 	0.76418 0.68051 0.91328 -0.46500
O 	O 	0.75208 0.58665 0.92002 -0.33000
O 	O 	0.01807 0.17718 0.30354 -0.15500
O 	O 	0.18051 0.26418 0.41328 -0.46700
O 	O 	0.08665 0.25208 0.42002 -0.33300
O 	O 	0.78547 0.12636 0.30354 -0.15300
O 	O 	0.73277 0.14910 0.41328 -0.46700
O 	O 	0.83337 0.16794 0.42002 -0.33300
O 	O 	0.17718 0.78547 0.80354 -0.15300
O 	O 	0.26418 0.73277 0.91328 -0.46300
O 	O 	0.25208 0.83337 0.92002 -0.32900
O 	O 	0.12636 0.01807 0.80354 -0.15200
O 	O 	0.14910 0.18051 0.91328 -0.46300
O 	O 	0.16794 0.08665 0.92002 -0.32900
O 	O 	0.71453 0.32282 0.69646 -0.15200
O 	O 	0.76723 0.23582 0.58672 -0.46700
O 	O 	0.66663 0.24792 0.57998 -0.33300
O 	O 	0.48193 0.37364 0.69646 -0.15200
O 	O 	0.31949 0.35090 0.58672 -0.46700
O 	O 	0.41335 0.33206 0.57998 -0.33300
O 	O 	0.37364 0.71453 0.19646 -0.15300
O 	O 	0.35090 0.76723 0.08672 -0.46900
O 	O 	0.33206 0.66663 0.07998 -0.33600
O 	O 	0.32282 0.48193 0.19646 -0.15300
O 	O 	0.23582 0.31949 0.08672 -0.46900
O 	O 	0.24792 0.41335 0.07998 -0.33600
