data_crystal

_cell_length_a 45.84870
_cell_length_b 45.84870
_cell_length_c 45.84870
_cell_angle_alpha 33.46500
_cell_angle_beta  33.46500
_cell_angle_gamma 33.46500

_symmetry_space_group_name_	'P 1'
_symmetry_space_group_name_H-M	'P 1'

loop_
_symmetry_equiv_pos_as_xyz
  x,y,z

loop_
_atom_site_label
_atom_site_type_symbol
_atom_site_fract_x
_atom_site_fract_y
_atom_site_fract_z
_atom_site_charge
Cu	Cu	0.68653 0.24886 0.15644 0.90700
O 	O 	0.60910 0.27250 0.22130 -0.41100
Cu	Cu	0.70865 0.14265 0.24505 0.90800
O 	O 	0.65690 0.22370 0.16760 -0.42000
O 	O 	0.72040 0.25690 0.15810 -0.42700
O 	O 	0.76690 0.20980 0.10590 -0.42300
C 	C 	0.59480 0.23540 0.27570 0.40400
O 	O 	0.62680 0.18040 0.29680 -0.41300
O 	O 	0.78620 0.12060 0.18140 -0.42300
O 	O 	0.67910 0.13290 0.23990 -0.43200
O 	O 	0.73400 0.16970 0.23710 -0.42700
C 	C 	0.65760 0.17360 0.20630 0.42900
C 	C 	0.73720 0.21650 0.19630 0.42200
C 	C 	0.80100 0.15560 0.12640 0.43300
C 	C 	0.53340 0.25880 0.31790 -0.23600
C 	C 	0.63190 0.16410 0.20800 -0.23500
C 	C 	0.76630 0.22780 0.18960 -0.21700
C 	C 	0.86140 0.13340 0.08530 -0.26300
H 	H 	0.51970 0.23220 0.35770 0.13300
C 	C 	0.49750 0.31550 0.30180 0.02000
C 	C 	0.61220 0.20180 0.17220 0.03100
H 	H 	0.63000 0.12840 0.23700 0.12600
H 	H 	0.77000 0.26270 0.15840 0.12400
C 	C 	0.78570 0.19130 0.22510 0.02500
C 	C 	0.90210 0.07830 0.10080 0.04400
H 	H 	0.87250 0.15970 0.04500 0.13900
H 	H 	0.51380 0.34060 0.26210 0.04800
C 	C 	0.43390 0.34520 0.33850 0.06300
H 	H 	0.61790 0.23540 0.14130 0.04100
C 	C 	0.58140 0.19830 0.17400 0.06000
H 	H 	0.78010 0.15750 0.25640 0.04400
C 	C 	0.81580 0.19620 0.22230 0.05600
H 	H 	0.88950 0.05260 0.14120 0.03700
C 	C 	0.96640 0.05210 0.06090 0.05600
C 	C 	0.40110 0.40450 0.31150 -0.12400
C 	C 	0.56930 0.15150 0.21660 -0.12100
C 	C 	0.56400 0.24350 0.13080 -0.12300
C 	C 	0.82890 0.24320 0.17750 -0.11500
C 	C 	0.83460 0.15050 0.26590 -0.11700
C 	C 	0.99230 0.08690 0.00020 -0.11900
H 	H 	0.41960 0.42620 0.27070 0.07900
H 	H 	0.58130 0.12040 0.24590 0.07300
C 	C 	0.54090 0.14820 0.21850 0.06300
C 	C 	0.53300 0.24480 0.13030 0.06100
H 	H 	0.57340 0.27450 0.10070 0.07500
C 	C 	0.85750 0.24580 0.17680 0.04700
H 	H 	0.81830 0.27340 0.14750 0.07200
C 	C 	0.86420 0.15080 0.26560 0.05000
H 	H 	0.82640 0.11860 0.29620 0.07400
H 	H 	0.96910 0.12740 0.98270 0.07400
C 	C 	0.52750 0.09830 0.26660 0.02500
C 	C 	0.52230 0.19400 0.17640 -0.12400
C 	C 	0.51070 0.29420 0.08720 0.00600
C 	C 	0.86940 0.29800 0.12850 0.04700
C 	C 	0.87580 0.19980 0.22030 -0.10500
C 	C 	0.88550 0.10030 0.31060 0.04000
C 	C 	0.53880 0.05250 0.31030 -0.22500
H 	H 	0.50690 0.10080 0.26440 0.04100
H 	H 	0.50250 0.19250 0.17730 0.07600
C 	C 	0.52010 0.34020 0.04210 -0.19900
H 	H 	0.48740 0.29240 0.09290 0.04800
C 	C 	0.88810 0.31070 0.12550 -0.24600
H 	H 	0.86220 0.32390 0.09730 0.03400
H 	H 	0.89540 0.20140 0.21960 0.07100
H 	H 	0.87280 0.07170 0.34150 0.03600
C 	C 	0.91850 0.09150 0.31220 -0.23300
H 	H 	0.56160 0.04750 0.31200 0.12100
C 	C 	0.52010 0.00520 0.35950 0.40000
H 	H 	0.54450 0.34180 0.03510 0.11500
C 	C 	0.49400 0.39210 0.99920 0.39600
H 	H 	0.88960 0.28880 0.15900 0.13900
C 	C 	0.90810 0.35790 0.07260 0.42500
C 	C 	0.93860 0.03930 0.35900 0.40700
H 	H 	0.93150 0.11980 0.28190 0.12800
O 	O 	0.49220 0.00940 0.35680 -0.42000
O 	O 	0.53130 0.96700 0.40280 -0.41900
O 	O 	0.46490 0.38670 0.00790 -0.41300
O 	O 	0.50840 0.43240 0.96000 -0.41800
O 	O 	0.93520 0.35670 0.07360 -0.44100
O 	O 	0.89430 0.39520 0.03260 -0.41400
O 	O 	0.92420 0.99900 0.39820 -0.41700
O 	O 	0.97260 0.03770 0.35240 -0.42900
Cu	Cu	0.45590 0.95557 0.42535 0.89900
Cu	Cu	0.50695 0.90475 0.47452 0.91100
Cu	Cu	0.15644 0.68653 0.24886 0.90600
O 	O 	0.22130 0.60910 0.27250 -0.41200
Cu	Cu	0.24505 0.70865 0.14265 0.90700
O 	O 	0.16760 0.65690 0.22370 -0.42100
O 	O 	0.15810 0.72040 0.25690 -0.42800
O 	O 	0.10590 0.76690 0.20980 -0.42400
C 	C 	0.27570 0.59480 0.23540 0.40300
O 	O 	0.29680 0.62680 0.18040 -0.41400
O 	O 	0.18140 0.78620 0.12060 -0.42400
O 	O 	0.23990 0.67910 0.13290 -0.43300
O 	O 	0.23710 0.73400 0.16970 -0.42800
C 	C 	0.20630 0.65760 0.17360 0.42800
C 	C 	0.19630 0.73720 0.21650 0.42100
C 	C 	0.12640 0.80100 0.15560 0.43200
C 	C 	0.31790 0.53340 0.25880 -0.23700
C 	C 	0.20800 0.63190 0.16410 -0.23600
C 	C 	0.18960 0.76630 0.22780 -0.21800
C 	C 	0.08530 0.86140 0.13340 -0.26400
H 	H 	0.35770 0.51970 0.23220 0.13200
C 	C 	0.30180 0.49750 0.31550 0.01900
C 	C 	0.17220 0.61220 0.20180 0.03000
H 	H 	0.23700 0.63000 0.12840 0.12500
H 	H 	0.15840 0.77000 0.26270 0.12300
C 	C 	0.22510 0.78570 0.19130 0.02400
C 	C 	0.10080 0.90210 0.07830 0.04300
H 	H 	0.04500 0.87250 0.15970 0.13800
H 	H 	0.26210 0.51380 0.34060 0.04700
C 	C 	0.33850 0.43390 0.34520 0.06200
H 	H 	0.14130 0.61790 0.23540 0.04000
C 	C 	0.17400 0.58140 0.19830 0.05900
H 	H 	0.25640 0.78010 0.15750 0.04300
C 	C 	0.22230 0.81580 0.19620 0.05500
H 	H 	0.14120 0.88950 0.05260 0.03600
C 	C 	0.06090 0.96640 0.05210 0.05500
C 	C 	0.31150 0.40110 0.40450 -0.12500
C 	C 	0.21660 0.56930 0.15150 -0.12200
C 	C 	0.13080 0.56400 0.24350 -0.12300
C 	C 	0.17750 0.82890 0.24320 -0.11500
C 	C 	0.26590 0.83460 0.15050 -0.11700
C 	C 	0.00020 0.99230 0.08690 -0.11900
H 	H 	0.27070 0.41960 0.42620 0.07900
H 	H 	0.24590 0.58130 0.12040 0.07300
C 	C 	0.21850 0.54090 0.14820 0.06300
C 	C 	0.13030 0.53300 0.24480 0.06100
H 	H 	0.10070 0.57340 0.27450 0.07500
C 	C 	0.17680 0.85750 0.24580 0.04700
H 	H 	0.14750 0.81830 0.27340 0.07200
C 	C 	0.26560 0.86420 0.15080 0.05000
H 	H 	0.29620 0.82640 0.11860 0.07400
H 	H 	0.98270 0.96910 0.12740 0.07400
C 	C 	0.26660 0.52750 0.09830 0.02500
C 	C 	0.17640 0.52230 0.19400 -0.12400
C 	C 	0.08720 0.51070 0.29420 0.00600
C 	C 	0.12850 0.86940 0.29800 0.04700
C 	C 	0.22030 0.87580 0.19980 -0.10500
C 	C 	0.31060 0.88550 0.10030 0.04000
C 	C 	0.31030 0.53880 0.05250 -0.22500
H 	H 	0.26440 0.50690 0.10080 0.04100
H 	H 	0.17730 0.50250 0.19250 0.07600
C 	C 	0.04210 0.52010 0.34020 -0.19900
H 	H 	0.09290 0.48740 0.29240 0.04800
C 	C 	0.12550 0.88810 0.31070 -0.24600
H 	H 	0.09730 0.86220 0.32390 0.03400
H 	H 	0.21960 0.89540 0.20140 0.07100
H 	H 	0.34150 0.87280 0.07170 0.03600
C 	C 	0.31220 0.91850 0.09150 -0.23300
H 	H 	0.31200 0.56160 0.04750 0.12100
C 	C 	0.35950 0.52010 0.00520 0.40000
H 	H 	0.03510 0.54450 0.34180 0.11500
C 	C 	0.99920 0.49400 0.39210 0.39600
H 	H 	0.15900 0.88960 0.28880 0.13900
C 	C 	0.07260 0.90810 0.35790 0.42500
C 	C 	0.35900 0.93860 0.03930 0.40700
H 	H 	0.28190 0.93150 0.11980 0.12800
O 	O 	0.35680 0.49220 0.00940 -0.42000
O 	O 	0.40280 0.53130 0.96700 -0.41900
O 	O 	0.00790 0.46490 0.38670 -0.41300
O 	O 	0.96000 0.50840 0.43240 -0.41800
O 	O 	0.07360 0.93520 0.35670 -0.44100
O 	O 	0.03260 0.89430 0.39520 -0.41400
O 	O 	0.39820 0.92420 0.99900 -0.41700
O 	O 	0.35240 0.97260 0.03770 -0.42900
Cu	Cu	0.42535 0.45590 0.95557 0.89900
Cu	Cu	0.47452 0.50695 0.90475 0.91100
Cu	Cu	0.24886 0.15644 0.68653 0.90600
O 	O 	0.27250 0.22130 0.60910 -0.41200
Cu	Cu	0.14265 0.24505 0.70865 0.90700
O 	O 	0.22370 0.16760 0.65690 -0.42100
O 	O 	0.25690 0.15810 0.72040 -0.42800
O 	O 	0.20980 0.10590 0.76690 -0.42400
C 	C 	0.23540 0.27570 0.59480 0.40300
O 	O 	0.18040 0.29680 0.62680 -0.41400
O 	O 	0.12060 0.18140 0.78620 -0.42400
O 	O 	0.13290 0.23990 0.67910 -0.43300
O 	O 	0.16970 0.23710 0.73400 -0.42800
C 	C 	0.17360 0.20630 0.65760 0.42800
C 	C 	0.21650 0.19630 0.73720 0.42100
C 	C 	0.15560 0.12640 0.80100 0.43200
C 	C 	0.25880 0.31790 0.53340 -0.23700
C 	C 	0.16410 0.20800 0.63190 -0.23600
C 	C 	0.22780 0.18960 0.76630 -0.21800
C 	C 	0.13340 0.08530 0.86140 -0.26400
H 	H 	0.23220 0.35770 0.51970 0.13200
C 	C 	0.31550 0.30180 0.49750 0.01900
C 	C 	0.20180 0.17220 0.61220 0.03000
H 	H 	0.12840 0.23700 0.63000 0.12500
H 	H 	0.26270 0.15840 0.77000 0.12300
C 	C 	0.19130 0.22510 0.78570 0.02400
C 	C 	0.07830 0.10080 0.90210 0.04300
H 	H 	0.15970 0.04500 0.87250 0.13800
H 	H 	0.34060 0.26210 0.51380 0.04700
C 	C 	0.34520 0.33850 0.43390 0.06200
H 	H 	0.23540 0.14130 0.61790 0.04000
C 	C 	0.19830 0.17400 0.58140 0.05900
H 	H 	0.15750 0.25640 0.78010 0.04300
C 	C 	0.19620 0.22230 0.81580 0.05500
H 	H 	0.05260 0.14120 0.88950 0.03600
C 	C 	0.05210 0.06090 0.96640 0.05500
C 	C 	0.40450 0.31150 0.40110 -0.12500
C 	C 	0.15150 0.21660 0.56930 -0.12200
C 	C 	0.24350 0.13080 0.56400 -0.12300
C 	C 	0.24320 0.17750 0.82890 -0.11500
C 	C 	0.15050 0.26590 0.83460 -0.11700
C 	C 	0.08690 0.00020 0.99230 -0.11900
H 	H 	0.42620 0.27070 0.41960 0.07900
H 	H 	0.12040 0.24590 0.58130 0.07300
C 	C 	0.14820 0.21850 0.54090 0.06300
C 	C 	0.24480 0.13030 0.53300 0.06100
H 	H 	0.27450 0.10070 0.57340 0.07500
C 	C 	0.24580 0.17680 0.85750 0.04700
H 	H 	0.27340 0.14750 0.81830 0.07200
C 	C 	0.15080 0.26560 0.86420 0.05000
H 	H 	0.11860 0.29620 0.82640 0.07400
H 	H 	0.12740 0.98270 0.96910 0.07400
C 	C 	0.09830 0.26660 0.52750 0.02500
C 	C 	0.19400 0.17640 0.52230 -0.12400
C 	C 	0.29420 0.08720 0.51070 0.00600
C 	C 	0.29800 0.12850 0.86940 0.04700
C 	C 	0.19980 0.22030 0.87580 -0.10500
C 	C 	0.10030 0.31060 0.88550 0.04000
C 	C 	0.05250 0.31030 0.53880 -0.22500
H 	H 	0.10080 0.26440 0.50690 0.04100
H 	H 	0.19250 0.17730 0.50250 0.07600
C 	C 	0.34020 0.04210 0.52010 -0.19900
H 	H 	0.29240 0.09290 0.48740 0.04800
C 	C 	0.31070 0.12550 0.88810 -0.24600
H 	H 	0.32390 0.09730 0.86220 0.03400
H 	H 	0.20140 0.21960 0.89540 0.07100
H 	H 	0.07170 0.34150 0.87280 0.03600
C 	C 	0.09150 0.31220 0.91850 -0.23300
H 	H 	0.04750 0.31200 0.56160 0.12100
C 	C 	0.00520 0.35950 0.52010 0.40000
H 	H 	0.34180 0.03510 0.54450 0.11500
C 	C 	0.39210 0.99920 0.49400 0.39600
H 	H 	0.28880 0.15900 0.88960 0.13900
C 	C 	0.35790 0.07260 0.90810 0.42500
C 	C 	0.03930 0.35900 0.93860 0.40700
H 	H 	0.11980 0.28190 0.93150 0.12800
O 	O 	0.00940 0.35680 0.49220 -0.42000
O 	O 	0.96700 0.40280 0.53130 -0.41900
O 	O 	0.38670 0.00790 0.46490 -0.41300
O 	O 	0.43240 0.96000 0.50840 -0.41800
O 	O 	0.35670 0.07360 0.93520 -0.44100
O 	O 	0.39520 0.03260 0.89430 -0.41400
O 	O 	0.99900 0.39820 0.92420 -0.41700
O 	O 	0.03770 0.35240 0.97260 -0.42900
Cu	Cu	0.95557 0.42535 0.45590 0.89900
Cu	Cu	0.90475 0.47452 0.50695 0.91100
Cu	Cu	0.74886 0.18653 0.65644 0.90600
O 	O 	0.77250 0.10910 0.72130 -0.41200
Cu	Cu	0.64265 0.20865 0.74505 0.90700
O 	O 	0.72370 0.15690 0.66760 -0.42100
O 	O 	0.75690 0.22040 0.65810 -0.42800
O 	O 	0.70980 0.26690 0.60590 -0.42400
C 	C 	0.73540 0.09480 0.77570 0.40300
O 	O 	0.68040 0.12680 0.79680 -0.41400
O 	O 	0.62060 0.28620 0.68140 -0.42400
O 	O 	0.63290 0.17910 0.73990 -0.43300
O 	O 	0.66970 0.23400 0.73710 -0.42800
C 	C 	0.67360 0.15760 0.70630 0.42800
C 	C 	0.71650 0.23720 0.69630 0.42100
C 	C 	0.65560 0.30100 0.62640 0.43200
C 	C 	0.75880 0.03340 0.81790 -0.23700
C 	C 	0.66410 0.13190 0.70800 -0.23600
C 	C 	0.72780 0.26630 0.68960 -0.21800
C 	C 	0.63340 0.36140 0.58530 -0.26400
H 	H 	0.73220 0.01970 0.85770 0.13200
C 	C 	0.81550 0.99750 0.80180 0.01900
C 	C 	0.70180 0.11220 0.67220 0.03000
H 	H 	0.62840 0.13000 0.73700 0.12500
H 	H 	0.76270 0.27000 0.65840 0.12300
C 	C 	0.69130 0.28570 0.72510 0.02400
C 	C 	0.57830 0.40210 0.60080 0.04300
H 	H 	0.65970 0.37250 0.54500 0.13800
H 	H 	0.84060 0.01380 0.76210 0.04700
C 	C 	0.84520 0.93390 0.83850 0.06200
H 	H 	0.73540 0.11790 0.64130 0.04000
C 	C 	0.69830 0.08140 0.67400 0.05900
H 	H 	0.65750 0.28010 0.75640 0.04300
C 	C 	0.69620 0.31580 0.72230 0.05500
H 	H 	0.55260 0.38950 0.64120 0.03600
C 	C 	0.55210 0.46640 0.56090 0.05500
C 	C 	0.90450 0.90110 0.81150 -0.12500
C 	C 	0.65150 0.06930 0.71660 -0.12200
C 	C 	0.74350 0.06400 0.63080 -0.12300
C 	C 	0.74320 0.32890 0.67750 -0.11500
C 	C 	0.65050 0.33460 0.76590 -0.11700
C 	C 	0.58690 0.49230 0.50020 -0.11900
H 	H 	0.92620 0.91960 0.77070 0.07900
H 	H 	0.62040 0.08130 0.74590 0.07300
C 	C 	0.64820 0.04090 0.71850 0.06300
C 	C 	0.74480 0.03300 0.63030 0.06100
H 	H 	0.77450 0.07340 0.60070 0.07500
C 	C 	0.74580 0.35750 0.67680 0.04700
H 	H 	0.77340 0.31830 0.64750 0.07200
C 	C 	0.65080 0.36420 0.76560 0.05000
H 	H 	0.61860 0.32640 0.79620 0.07400
H 	H 	0.62740 0.46910 0.48270 0.07400
C 	C 	0.59830 0.02750 0.76660 0.02500
C 	C 	0.69400 0.02230 0.67640 -0.12400
C 	C 	0.79420 0.01070 0.58720 0.00600
C 	C 	0.79800 0.36940 0.62850 0.04700
C 	C 	0.69980 0.37580 0.72030 -0.10500
C 	C 	0.60030 0.38550 0.81060 0.04000
C 	C 	0.55250 0.03880 0.81030 -0.22500
H 	H 	0.60080 0.00690 0.76440 0.04100
H 	H 	0.69250 0.00250 0.67730 0.07600
C 	C 	0.84020 0.02010 0.54210 -0.19900
H 	H 	0.79240 0.98740 0.59290 0.04800
C 	C 	0.81070 0.38810 0.62550 -0.24600
H 	H 	0.82390 0.36220 0.59730 0.03400
H 	H 	0.70140 0.39540 0.71960 0.07100
H 	H 	0.57170 0.37280 0.84150 0.03600
C 	C 	0.59150 0.41850 0.81220 -0.23300
H 	H 	0.54750 0.06160 0.81200 0.12100
C 	C 	0.50520 0.02010 0.85950 0.40000
H 	H 	0.84180 0.04450 0.53510 0.11500
C 	C 	0.89210 0.99400 0.49920 0.39600
H 	H 	0.78880 0.38960 0.65900 0.13900
C 	C 	0.85790 0.40810 0.57260 0.42500
C 	C 	0.53930 0.43860 0.85900 0.40700
H 	H 	0.61980 0.43150 0.78190 0.12800
O 	O 	0.50940 0.99220 0.85680 -0.42000
O 	O 	0.46700 0.03130 0.90280 -0.41900
O 	O 	0.88670 0.96490 0.50790 -0.41400
O 	O 	0.93240 0.00840 0.46000 -0.41800
O 	O 	0.85670 0.43520 0.57360 -0.44100
O 	O 	0.89520 0.39430 0.53260 -0.41400
O 	O 	0.49900 0.42420 0.89820 -0.41800
O 	O 	0.53770 0.47260 0.85240 -0.42900
Cu	Cu	0.45557 0.95590 0.92535 0.89900
Cu	Cu	0.40475 0.00695 0.97452 0.91100
Cu	Cu	0.18653 0.65644 0.74886 0.90600
O 	O 	0.10910 0.72130 0.77250 -0.41200
Cu	Cu	0.20865 0.74505 0.64265 0.90700
O 	O 	0.15690 0.66760 0.72370 -0.42100
O 	O 	0.22040 0.65810 0.75690 -0.42800
O 	O 	0.26690 0.60590 0.70980 -0.42400
C 	C 	0.09480 0.77570 0.73540 0.40300
O 	O 	0.12680 0.79680 0.68040 -0.41400
O 	O 	0.28620 0.68140 0.62060 -0.42400
O 	O 	0.17910 0.73990 0.63290 -0.43300
O 	O 	0.23400 0.73710 0.66970 -0.42800
C 	C 	0.15760 0.70630 0.67360 0.42800
C 	C 	0.23720 0.69630 0.71650 0.42100
C 	C 	0.30100 0.62640 0.65560 0.43200
C 	C 	0.03340 0.81790 0.75880 -0.23700
C 	C 	0.13190 0.70800 0.66410 -0.23600
C 	C 	0.26630 0.68960 0.72780 -0.21800
C 	C 	0.36140 0.58530 0.63340 -0.26400
H 	H 	0.01970 0.85770 0.73220 0.13200
C 	C 	0.99750 0.80180 0.81550 0.01900
C 	C 	0.11220 0.67220 0.70180 0.03000
H 	H 	0.13000 0.73700 0.62840 0.12500
H 	H 	0.27000 0.65840 0.76270 0.12300
C 	C 	0.28570 0.72510 0.69130 0.02400
C 	C 	0.40210 0.60080 0.57830 0.04300
H 	H 	0.37250 0.54500 0.65970 0.13800
H 	H 	0.01380 0.76210 0.84060 0.04700
C 	C 	0.93390 0.83850 0.84520 0.06200
H 	H 	0.11790 0.64130 0.73540 0.04000
C 	C 	0.08140 0.67400 0.69830 0.05900
H 	H 	0.28010 0.75640 0.65750 0.04300
C 	C 	0.31580 0.72230 0.69620 0.05500
H 	H 	0.38950 0.64120 0.55260 0.03600
C 	C 	0.46640 0.56090 0.55210 0.05500
C 	C 	0.90110 0.81150 0.90450 -0.12500
C 	C 	0.06930 0.71660 0.65150 -0.12200
C 	C 	0.06400 0.63080 0.74350 -0.12300
C 	C 	0.32890 0.67750 0.74320 -0.11500
C 	C 	0.33460 0.76590 0.65050 -0.11700
C 	C 	0.49230 0.50020 0.58690 -0.11900
H 	H 	0.91960 0.77070 0.92620 0.07900
H 	H 	0.08130 0.74590 0.62040 0.07300
C 	C 	0.04090 0.71850 0.64820 0.06300
C 	C 	0.03300 0.63030 0.74480 0.06100
H 	H 	0.07340 0.60070 0.77450 0.07500
C 	C 	0.35750 0.67680 0.74580 0.04700
H 	H 	0.31830 0.64750 0.77340 0.07200
C 	C 	0.36420 0.76560 0.65080 0.05000
H 	H 	0.32640 0.79620 0.61860 0.07400
H 	H 	0.46910 0.48270 0.62740 0.07400
C 	C 	0.02750 0.76660 0.59830 0.02500
C 	C 	0.02230 0.67640 0.69400 -0.12400
C 	C 	0.01070 0.58720 0.79420 0.00600
C 	C 	0.36940 0.62850 0.79800 0.04700
C 	C 	0.37580 0.72030 0.69980 -0.10500
C 	C 	0.38550 0.81060 0.60030 0.04000
C 	C 	0.03880 0.81030 0.55250 -0.22500
H 	H 	0.00690 0.76440 0.60080 0.04100
H 	H 	0.00250 0.67730 0.69250 0.07600
C 	C 	0.02010 0.54210 0.84020 -0.19900
H 	H 	0.98740 0.59290 0.79240 0.04800
C 	C 	0.38810 0.62550 0.81070 -0.24600
H 	H 	0.36220 0.59730 0.82390 0.03400
H 	H 	0.39540 0.71960 0.70140 0.07100
H 	H 	0.37280 0.84150 0.57170 0.03600
C 	C 	0.41850 0.81220 0.59150 -0.23300
H 	H 	0.06160 0.81200 0.54750 0.12100
C 	C 	0.02010 0.85950 0.50520 0.40000
H 	H 	0.04450 0.53510 0.84180 0.11500
C 	C 	0.99400 0.49920 0.89210 0.39600
H 	H 	0.38960 0.65900 0.78880 0.13900
C 	C 	0.40810 0.57260 0.85790 0.42500
C 	C 	0.43860 0.85900 0.53930 0.40700
H 	H 	0.43150 0.78190 0.61980 0.12800
O 	O 	0.99220 0.85680 0.50940 -0.42000
O 	O 	0.03130 0.90280 0.46700 -0.41900
O 	O 	0.96490 0.50790 0.88670 -0.41400
O 	O 	0.00840 0.46000 0.93240 -0.41800
O 	O 	0.43520 0.57360 0.85670 -0.44100
O 	O 	0.39430 0.53260 0.89520 -0.41400
O 	O 	0.42420 0.89820 0.49900 -0.41800
O 	O 	0.47260 0.85240 0.53770 -0.42900
Cu	Cu	0.95590 0.92535 0.45557 0.89900
Cu	Cu	0.00695 0.97452 0.40475 0.91100
Cu	Cu	0.65644 0.74886 0.18653 0.90600
O 	O 	0.72130 0.77250 0.10910 -0.41200
Cu	Cu	0.74505 0.64265 0.20865 0.90700
O 	O 	0.66760 0.72370 0.15690 -0.42100
O 	O 	0.65810 0.75690 0.22040 -0.42800
O 	O 	0.60590 0.70980 0.26690 -0.42400
C 	C 	0.77570 0.73540 0.09480 0.40300
O 	O 	0.79680 0.68040 0.12680 -0.41400
O 	O 	0.68140 0.62060 0.28620 -0.42400
O 	O 	0.73990 0.63290 0.17910 -0.43300
O 	O 	0.73710 0.66970 0.23400 -0.42800
C 	C 	0.70630 0.67360 0.15760 0.42800
C 	C 	0.69630 0.71650 0.23720 0.42100
C 	C 	0.62640 0.65560 0.30100 0.43200
C 	C 	0.81790 0.75880 0.03340 -0.23700
C 	C 	0.70800 0.66410 0.13190 -0.23600
C 	C 	0.68960 0.72780 0.26630 -0.21800
C 	C 	0.58530 0.63340 0.36140 -0.26400
H 	H 	0.85770 0.73220 0.01970 0.13200
C 	C 	0.80180 0.81550 0.99750 0.01900
C 	C 	0.67220 0.70180 0.11220 0.03000
H 	H 	0.73700 0.62840 0.13000 0.12500
H 	H 	0.65840 0.76270 0.27000 0.12300
C 	C 	0.72510 0.69130 0.28570 0.02400
C 	C 	0.60080 0.57830 0.40210 0.04300
H 	H 	0.54500 0.65970 0.37250 0.13800
H 	H 	0.76210 0.84060 0.01380 0.04700
C 	C 	0.83850 0.84520 0.93390 0.06200
H 	H 	0.64130 0.73540 0.11790 0.04000
C 	C 	0.67400 0.69830 0.08140 0.05900
H 	H 	0.75640 0.65750 0.28010 0.04300
C 	C 	0.72230 0.69620 0.31580 0.05500
H 	H 	0.64120 0.55260 0.38950 0.03600
C 	C 	0.56090 0.55210 0.46640 0.05500
C 	C 	0.81150 0.90450 0.90110 -0.12500
C 	C 	0.71660 0.65150 0.06930 -0.12200
C 	C 	0.63080 0.74350 0.06400 -0.12300
C 	C 	0.67750 0.74320 0.32890 -0.11500
C 	C 	0.76590 0.65050 0.33460 -0.11700
C 	C 	0.50020 0.58690 0.49230 -0.11900
H 	H 	0.77070 0.92620 0.91960 0.07900
H 	H 	0.74590 0.62040 0.08130 0.07300
C 	C 	0.71850 0.64820 0.04090 0.06300
C 	C 	0.63030 0.74480 0.03300 0.06100
H 	H 	0.60070 0.77450 0.07340 0.07500
C 	C 	0.67680 0.74580 0.35750 0.04700
H 	H 	0.64750 0.77340 0.31830 0.07200
C 	C 	0.76560 0.65080 0.36420 0.05000
H 	H 	0.79620 0.61860 0.32640 0.07400
H 	H 	0.48270 0.62740 0.46910 0.07400
C 	C 	0.76660 0.59830 0.02750 0.02500
C 	C 	0.67640 0.69400 0.02230 -0.12400
C 	C 	0.58720 0.79420 0.01070 0.00600
C 	C 	0.62850 0.79800 0.36940 0.04700
C 	C 	0.72030 0.69980 0.37580 -0.10500
C 	C 	0.81060 0.60030 0.38550 0.04000
C 	C 	0.81030 0.55250 0.03880 -0.22500
H 	H 	0.76440 0.60080 0.00690 0.04100
H 	H 	0.67730 0.69250 0.00250 0.07600
C 	C 	0.54210 0.84020 0.02010 -0.19900
H 	H 	0.59290 0.79240 0.98740 0.04800
C 	C 	0.62550 0.81070 0.38810 -0.24600
H 	H 	0.59730 0.82390 0.36220 0.03400
H 	H 	0.71960 0.70140 0.39540 0.07100
H 	H 	0.84150 0.57170 0.37280 0.03600
C 	C 	0.81220 0.59150 0.41850 -0.23300
H 	H 	0.81200 0.54750 0.06160 0.12100
C 	C 	0.85950 0.50520 0.02010 0.40000
H 	H 	0.53510 0.84180 0.04450 0.11500
C 	C 	0.49920 0.89210 0.99400 0.39600
H 	H 	0.65900 0.78880 0.38960 0.13900
C 	C 	0.57260 0.85790 0.40810 0.42500
C 	C 	0.85900 0.53930 0.43860 0.40700
H 	H 	0.78190 0.61980 0.43150 0.12800
O 	O 	0.85680 0.50940 0.99220 -0.42000
O 	O 	0.90280 0.46700 0.03130 -0.41900
O 	O 	0.50790 0.88670 0.96490 -0.41400
O 	O 	0.46000 0.93240 0.00840 -0.41800
O 	O 	0.57360 0.85670 0.43520 -0.44100
O 	O 	0.53260 0.89520 0.39430 -0.41400
O 	O 	0.89820 0.49900 0.42420 -0.41800
O 	O 	0.85240 0.53770 0.47260 -0.42900
Cu	Cu	0.92535 0.45557 0.95590 0.89900
Cu	Cu	0.97452 0.40475 0.00695 0.91100
Cu	Cu	0.25114 0.81347 0.34356 0.90600
O 	O 	0.22750 0.89090 0.27870 -0.41200
Cu	Cu	0.35735 0.79135 0.25495 0.90700
O 	O 	0.27630 0.84310 0.33240 -0.42100
O 	O 	0.24310 0.77960 0.34190 -0.42800
O 	O 	0.29020 0.73310 0.39410 -0.42400
C 	C 	0.26460 0.90520 0.22430 0.40300
O 	O 	0.31960 0.87320 0.20320 -0.41400
O 	O 	0.37940 0.71380 0.31860 -0.42400
O 	O 	0.36710 0.82090 0.26010 -0.43300
O 	O 	0.33030 0.76600 0.26290 -0.42800
C 	C 	0.32640 0.84240 0.29370 0.42800
C 	C 	0.28350 0.76280 0.30370 0.42100
C 	C 	0.34440 0.69900 0.37360 0.43200
C 	C 	0.24120 0.96660 0.18210 -0.23700
C 	C 	0.33590 0.86810 0.29200 -0.23600
C 	C 	0.27220 0.73370 0.31040 -0.21800
C 	C 	0.36660 0.63860 0.41470 -0.26400
H 	H 	0.26780 0.98030 0.14230 0.13200
C 	C 	0.18450 0.00250 0.19820 0.01900
C 	C 	0.29820 0.88780 0.32780 0.03000
H 	H 	0.37160 0.87000 0.26300 0.12500
H 	H 	0.23730 0.73000 0.34160 0.12300
C 	C 	0.30870 0.71430 0.27490 0.02400
C 	C 	0.42170 0.59790 0.39920 0.04300
H 	H 	0.34030 0.62750 0.45500 0.13800
H 	H 	0.15940 0.98620 0.23790 0.04700
C 	C 	0.15480 0.06610 0.16150 0.06200
H 	H 	0.26460 0.88210 0.35870 0.04000
C 	C 	0.30170 0.91860 0.32600 0.05900
H 	H 	0.34250 0.71990 0.24360 0.04300
C 	C 	0.30380 0.68420 0.27770 0.05500
H 	H 	0.44740 0.61050 0.35880 0.03600
C 	C 	0.44790 0.53360 0.43910 0.05500
C 	C 	0.09550 0.09890 0.18850 -0.12500
C 	C 	0.34850 0.93070 0.28340 -0.12200
C 	C 	0.25650 0.93600 0.36920 -0.12300
C 	C 	0.25680 0.67110 0.32250 -0.11500
C 	C 	0.34950 0.66540 0.23410 -0.11700
C 	C 	0.41310 0.50770 0.49980 -0.11900
H 	H 	0.07380 0.08040 0.22930 0.07900
H 	H 	0.37960 0.91870 0.25410 0.07300
C 	C 	0.35180 0.95910 0.28150 0.06300
C 	C 	0.25520 0.96700 0.36970 0.06100
H 	H 	0.22550 0.92660 0.39930 0.07500
C 	C 	0.25420 0.64250 0.32320 0.04700
H 	H 	0.22660 0.68170 0.35250 0.07200
C 	C 	0.34920 0.63580 0.23440 0.05000
H 	H 	0.38140 0.67360 0.20380 0.07400
H 	H 	0.37260 0.53090 0.51730 0.07400
C 	C 	0.40170 0.97250 0.23340 0.02500
C 	C 	0.30600 0.97770 0.32360 -0.12400
C 	C 	0.20580 0.98930 0.41280 0.00600
C 	C 	0.20200 0.63060 0.37150 0.04700
C 	C 	0.30020 0.62420 0.27970 -0.10500
C 	C 	0.39970 0.61450 0.18940 0.04000
C 	C 	0.44750 0.96120 0.18970 -0.22500
H 	H 	0.39920 0.99310 0.23560 0.04100
H 	H 	0.30750 0.99750 0.32270 0.07600
C 	C 	0.15980 0.97990 0.45790 -0.19900
H 	H 	0.20760 0.01260 0.40710 0.04800
C 	C 	0.18930 0.61190 0.37450 -0.24600
H 	H 	0.17610 0.63780 0.40270 0.03400
H 	H 	0.29860 0.60460 0.28040 0.07100
H 	H 	0.42830 0.62720 0.15850 0.03600
C 	C 	0.40850 0.58150 0.18780 -0.23300
H 	H 	0.45250 0.93840 0.18800 0.12100
C 	C 	0.49480 0.97990 0.14050 0.40000
H 	H 	0.15820 0.95550 0.46490 0.11500
C 	C 	0.10790 0.00600 0.50080 0.39600
H 	H 	0.21120 0.61040 0.34100 0.13900
C 	C 	0.14210 0.59190 0.42740 0.42500
C 	C 	0.46070 0.56140 0.14100 0.40700
H 	H 	0.38020 0.56850 0.21810 0.12800
O 	O 	0.49060 0.00780 0.14320 -0.42000
O 	O 	0.53300 0.96870 0.09720 -0.41900
O 	O 	0.11330 0.03510 0.49210 -0.41400
O 	O 	0.06760 0.99160 0.54000 -0.41800
O 	O 	0.14330 0.56480 0.42640 -0.44100
O 	O 	0.10480 0.60570 0.46740 -0.41400
O 	O 	0.50100 0.57580 0.10180 -0.41800
O 	O 	0.46230 0.52740 0.14760 -0.42900
Cu	Cu	0.54443 0.04410 0.07465 0.89900
Cu	Cu	0.59525 0.99305 0.02548 0.91100
Cu	Cu	0.81347 0.34356 0.25114 0.90600
O 	O 	0.89090 0.27870 0.22750 -0.41200
Cu	Cu	0.79135 0.25495 0.35735 0.90700
O 	O 	0.84310 0.33240 0.27630 -0.42100
O 	O 	0.77960 0.34190 0.24310 -0.42800
O 	O 	0.73310 0.39410 0.29020 -0.42400
C 	C 	0.90520 0.22430 0.26460 0.40300
O 	O 	0.87320 0.20320 0.31960 -0.41400
O 	O 	0.71380 0.31860 0.37940 -0.42400
O 	O 	0.82090 0.26010 0.36710 -0.43300
O 	O 	0.76600 0.26290 0.33030 -0.42800
C 	C 	0.84240 0.29370 0.32640 0.42800
C 	C 	0.76280 0.30370 0.28350 0.42100
C 	C 	0.69900 0.37360 0.34440 0.43200
C 	C 	0.96660 0.18210 0.24120 -0.23700
C 	C 	0.86810 0.29200 0.33590 -0.23600
C 	C 	0.73370 0.31040 0.27220 -0.21800
C 	C 	0.63860 0.41470 0.36660 -0.26400
H 	H 	0.98030 0.14230 0.26780 0.13200
C 	C 	0.00250 0.19820 0.18450 0.01900
C 	C 	0.88780 0.32780 0.29820 0.03000
H 	H 	0.87000 0.26300 0.37160 0.12500
H 	H 	0.73000 0.34160 0.23730 0.12300
C 	C 	0.71430 0.27490 0.30870 0.02400
C 	C 	0.59790 0.39920 0.42170 0.04300
H 	H 	0.62750 0.45500 0.34030 0.13800
H 	H 	0.98620 0.23790 0.15940 0.04700
C 	C 	0.06610 0.16150 0.15480 0.06200
H 	H 	0.88210 0.35870 0.26460 0.04000
C 	C 	0.91860 0.32600 0.30170 0.05900
H 	H 	0.71990 0.24360 0.34250 0.04300
C 	C 	0.68420 0.27770 0.30380 0.05500
H 	H 	0.61050 0.35880 0.44740 0.03600
C 	C 	0.53360 0.43910 0.44790 0.05500
C 	C 	0.09890 0.18850 0.09550 -0.12500
C 	C 	0.93070 0.28340 0.34850 -0.12200
C 	C 	0.93600 0.36920 0.25650 -0.12300
C 	C 	0.67110 0.32250 0.25680 -0.11500
C 	C 	0.66540 0.23410 0.34950 -0.11700
C 	C 	0.50770 0.49980 0.41310 -0.11900
H 	H 	0.08040 0.22930 0.07380 0.07900
H 	H 	0.91870 0.25410 0.37960 0.07300
C 	C 	0.95910 0.28150 0.35180 0.06300
C 	C 	0.96700 0.36970 0.25520 0.06100
H 	H 	0.92660 0.39930 0.22550 0.07500
C 	C 	0.64250 0.32320 0.25420 0.04700
H 	H 	0.68170 0.35250 0.22660 0.07200
C 	C 	0.63580 0.23440 0.34920 0.05000
H 	H 	0.67360 0.20380 0.38140 0.07400
H 	H 	0.53090 0.51730 0.37260 0.07400
C 	C 	0.97250 0.23340 0.40170 0.02500
C 	C 	0.97770 0.32360 0.30600 -0.12400
C 	C 	0.98930 0.41280 0.20580 0.00600
C 	C 	0.63060 0.37150 0.20200 0.04700
C 	C 	0.62420 0.27970 0.30020 -0.10500
C 	C 	0.61450 0.18940 0.39970 0.04000
C 	C 	0.96120 0.18970 0.44750 -0.22500
H 	H 	0.99310 0.23560 0.39920 0.04100
H 	H 	0.99750 0.32270 0.30750 0.07600
C 	C 	0.97990 0.45790 0.15980 -0.19900
H 	H 	0.01260 0.40710 0.20760 0.04800
C 	C 	0.61190 0.37450 0.18930 -0.24600
H 	H 	0.63780 0.40270 0.17610 0.03400
H 	H 	0.60460 0.28040 0.29860 0.07100
H 	H 	0.62720 0.15850 0.42830 0.03600
C 	C 	0.58150 0.18780 0.40850 -0.23300
H 	H 	0.93840 0.18800 0.45250 0.12100
C 	C 	0.97990 0.14050 0.49480 0.40000
H 	H 	0.95550 0.46490 0.15820 0.11500
C 	C 	0.00600 0.50080 0.10790 0.39600
H 	H 	0.61040 0.34100 0.21120 0.13900
C 	C 	0.59190 0.42740 0.14210 0.42500
C 	C 	0.56140 0.14100 0.46070 0.40700
H 	H 	0.56850 0.21810 0.38020 0.12800
O 	O 	0.00780 0.14320 0.49060 -0.42000
O 	O 	0.96870 0.09720 0.53300 -0.41900
O 	O 	0.03510 0.49210 0.11330 -0.41400
O 	O 	0.99160 0.54000 0.06760 -0.41800
O 	O 	0.56480 0.42640 0.14330 -0.44100
O 	O 	0.60570 0.46740 0.10480 -0.41400
O 	O 	0.57580 0.10180 0.50100 -0.41800
O 	O 	0.52740 0.14760 0.46230 -0.42900
Cu	Cu	0.04410 0.07465 0.54443 0.89900
Cu	Cu	0.99305 0.02548 0.59525 0.91100
Cu	Cu	0.34356 0.25114 0.81347 0.90600
O 	O 	0.27870 0.22750 0.89090 -0.41200
Cu	Cu	0.25495 0.35735 0.79135 0.90700
O 	O 	0.33240 0.27630 0.84310 -0.42100
O 	O 	0.34190 0.24310 0.77960 -0.42800
O 	O 	0.39410 0.29020 0.73310 -0.42400
C 	C 	0.22430 0.26460 0.90520 0.40300
O 	O 	0.20320 0.31960 0.87320 -0.41400
O 	O 	0.31860 0.37940 0.71380 -0.42400
O 	O 	0.26010 0.36710 0.82090 -0.43300
O 	O 	0.26290 0.33030 0.76600 -0.42800
C 	C 	0.29370 0.32640 0.84240 0.42800
C 	C 	0.30370 0.28350 0.76280 0.42100
C 	C 	0.37360 0.34440 0.69900 0.43200
C 	C 	0.18210 0.24120 0.96660 -0.23700
C 	C 	0.29200 0.33590 0.86810 -0.23600
C 	C 	0.31040 0.27220 0.73370 -0.21800
C 	C 	0.41470 0.36660 0.63860 -0.26400
H 	H 	0.14230 0.26780 0.98030 0.13200
C 	C 	0.19820 0.18450 0.00250 0.01900
C 	C 	0.32780 0.29820 0.88780 0.03000
H 	H 	0.26300 0.37160 0.87000 0.12500
H 	H 	0.34160 0.23730 0.73000 0.12300
C 	C 	0.27490 0.30870 0.71430 0.02400
C 	C 	0.39920 0.42170 0.59790 0.04300
H 	H 	0.45500 0.34030 0.62750 0.13800
H 	H 	0.23790 0.15940 0.98620 0.04700
C 	C 	0.16150 0.15480 0.06610 0.06200
H 	H 	0.35870 0.26460 0.88210 0.04000
C 	C 	0.32600 0.30170 0.91860 0.05900
H 	H 	0.24360 0.34250 0.71990 0.04300
C 	C 	0.27770 0.30380 0.68420 0.05500
H 	H 	0.35880 0.44740 0.61050 0.03600
C 	C 	0.43910 0.44790 0.53360 0.05500
C 	C 	0.18850 0.09550 0.09890 -0.12500
C 	C 	0.28340 0.34850 0.93070 -0.12200
C 	C 	0.36920 0.25650 0.93600 -0.12300
C 	C 	0.32250 0.25680 0.67110 -0.11500
C 	C 	0.23410 0.34950 0.66540 -0.11700
C 	C 	0.49980 0.41310 0.50770 -0.11900
H 	H 	0.22930 0.07380 0.08040 0.07900
H 	H 	0.25410 0.37960 0.91870 0.07300
C 	C 	0.28150 0.35180 0.95910 0.06300
C 	C 	0.36970 0.25520 0.96700 0.06100
H 	H 	0.39930 0.22550 0.92660 0.07500
C 	C 	0.32320 0.25420 0.64250 0.04700
H 	H 	0.35250 0.22660 0.68170 0.07200
C 	C 	0.23440 0.34920 0.63580 0.05000
H 	H 	0.20380 0.38140 0.67360 0.07400
H 	H 	0.51730 0.37260 0.53090 0.07400
C 	C 	0.23340 0.40170 0.97250 0.02500
C 	C 	0.32360 0.30600 0.97770 -0.12400
C 	C 	0.41280 0.20580 0.98930 0.00600
C 	C 	0.37150 0.20200 0.63060 0.04700
C 	C 	0.27970 0.30020 0.62420 -0.10500
C 	C 	0.18940 0.39970 0.61450 0.04000
C 	C 	0.18970 0.44750 0.96120 -0.22500
H 	H 	0.23560 0.39920 0.99310 0.04100
H 	H 	0.32270 0.30750 0.99750 0.07600
C 	C 	0.45790 0.15980 0.97990 -0.19900
H 	H 	0.40710 0.20760 0.01260 0.04800
C 	C 	0.37450 0.18930 0.61190 -0.24600
H 	H 	0.40270 0.17610 0.63780 0.03400
H 	H 	0.28040 0.29860 0.60460 0.07100
H 	H 	0.15850 0.42830 0.62720 0.03600
C 	C 	0.18780 0.40850 0.58150 -0.23300
H 	H 	0.18800 0.45250 0.93840 0.12100
C 	C 	0.14050 0.49480 0.97990 0.40000
H 	H 	0.46490 0.15820 0.95550 0.11500
C 	C 	0.50080 0.10790 0.00600 0.39600
H 	H 	0.34100 0.21120 0.61040 0.13900
C 	C 	0.42740 0.14210 0.59190 0.42500
C 	C 	0.14100 0.46070 0.56140 0.40700
H 	H 	0.21810 0.38020 0.56850 0.12800
O 	O 	0.14320 0.49060 0.00780 -0.42000
O 	O 	0.09720 0.53300 0.96870 -0.41900
O 	O 	0.49210 0.11330 0.03510 -0.41400
O 	O 	0.54000 0.06760 0.99160 -0.41800
O 	O 	0.42640 0.14330 0.56480 -0.44100
O 	O 	0.46740 0.10480 0.60570 -0.41400
O 	O 	0.10180 0.50100 0.57580 -0.41800
O 	O 	0.14760 0.46230 0.52740 -0.42900
Cu	Cu	0.07465 0.54443 0.04410 0.89900
Cu	Cu	0.02548 0.59525 0.99305 0.91100
Cu	Cu	0.31347 0.75114 0.84356 0.90600
O 	O 	0.39090 0.72750 0.77870 -0.41200
Cu	Cu	0.29135 0.85735 0.75495 0.90700
O 	O 	0.34310 0.77630 0.83240 -0.42100
O 	O 	0.27960 0.74310 0.84190 -0.42800
O 	O 	0.23310 0.79020 0.89410 -0.42400
C 	C 	0.40520 0.76460 0.72430 0.40300
O 	O 	0.37320 0.81960 0.70320 -0.41400
O 	O 	0.21380 0.87940 0.81860 -0.42400
O 	O 	0.32090 0.86710 0.76010 -0.43300
O 	O 	0.26600 0.83030 0.76290 -0.42800
C 	C 	0.34240 0.82640 0.79370 0.42800
C 	C 	0.26280 0.78350 0.80370 0.42100
C 	C 	0.19900 0.84440 0.87360 0.43200
C 	C 	0.46660 0.74120 0.68210 -0.23700
C 	C 	0.36810 0.83590 0.79200 -0.23600
C 	C 	0.23370 0.77220 0.81040 -0.21800
C 	C 	0.13860 0.86660 0.91470 -0.26400
H 	H 	0.48030 0.76780 0.64230 0.13200
C 	C 	0.50250 0.68450 0.69820 0.01900
C 	C 	0.38780 0.79820 0.82780 0.03000
H 	H 	0.37000 0.87160 0.76300 0.12500
H 	H 	0.23000 0.73730 0.84160 0.12300
C 	C 	0.21430 0.80870 0.77490 0.02400
C 	C 	0.09790 0.92170 0.89920 0.04300
H 	H 	0.12750 0.84030 0.95500 0.13800
H 	H 	0.48620 0.65940 0.73790 0.04700
C 	C 	0.56610 0.65480 0.66150 0.06200
H 	H 	0.38210 0.76460 0.85870 0.04000
C 	C 	0.41860 0.80170 0.82600 0.05900
H 	H 	0.21990 0.84250 0.74360 0.04300
C 	C 	0.18420 0.80380 0.77770 0.05500
H 	H 	0.11050 0.94740 0.85880 0.03600
C 	C 	0.03360 0.94790 0.93910 0.05500
C 	C 	0.59890 0.59550 0.68850 -0.12500
C 	C 	0.43070 0.84850 0.78340 -0.12200
C 	C 	0.43600 0.75650 0.86920 -0.12300
C 	C 	0.17110 0.75680 0.82250 -0.11500
C 	C 	0.16540 0.84950 0.73410 -0.11700
C 	C 	0.00770 0.91310 0.99980 -0.11900
H 	H 	0.58040 0.57380 0.72930 0.07900
H 	H 	0.41870 0.87960 0.75410 0.07300
C 	C 	0.45910 0.85180 0.78150 0.06300
C 	C 	0.46700 0.75520 0.86970 0.06100
H 	H 	0.42660 0.72550 0.89930 0.07500
C 	C 	0.14250 0.75420 0.82320 0.04700
H 	H 	0.18170 0.72660 0.85250 0.07200
C 	C 	0.13580 0.84920 0.73440 0.05000
H 	H 	0.17360 0.88140 0.70380 0.07400
H 	H 	0.03090 0.87260 0.01730 0.07400
C 	C 	0.47250 0.90170 0.73340 0.02500
C 	C 	0.47770 0.80600 0.82360 -0.12400
C 	C 	0.48930 0.70580 0.91280 0.00600
C 	C 	0.13060 0.70200 0.87150 0.04700
C 	C 	0.12420 0.80020 0.77970 -0.10500
C 	C 	0.11450 0.89970 0.68940 0.04000
C 	C 	0.46120 0.94750 0.68970 -0.22500
H 	H 	0.49310 0.89920 0.73560 0.04100
H 	H 	0.49750 0.80750 0.82270 0.07600
C 	C 	0.47990 0.65980 0.95790 -0.19900
H 	H 	0.51260 0.70760 0.90710 0.04800
C 	C 	0.11190 0.68930 0.87450 -0.24600
H 	H 	0.13780 0.67610 0.90270 0.03400
H 	H 	0.10460 0.79860 0.78040 0.07100
H 	H 	0.12720 0.92830 0.65850 0.03600
C 	C 	0.08150 0.90850 0.68780 -0.23300
H 	H 	0.43840 0.95250 0.68800 0.12100
C 	C 	0.47990 0.99480 0.64050 0.40000
H 	H 	0.45550 0.65820 0.96490 0.11500
C 	C 	0.50600 0.60790 0.00080 0.39600
H 	H 	0.11040 0.71120 0.84100 0.13900
C 	C 	0.09190 0.64210 0.92740 0.42500
C 	C 	0.06140 0.96070 0.64100 0.40700
H 	H 	0.06850 0.88020 0.71810 0.12800
O 	O 	0.50780 0.99060 0.64320 -0.42000
O 	O 	0.46870 0.03300 0.59720 -0.41900
O 	O 	0.53510 0.61330 0.99210 -0.41300
O 	O 	0.49160 0.56760 0.04000 -0.41800
O 	O 	0.06480 0.64330 0.92640 -0.44100
O 	O 	0.10570 0.60480 0.96740 -0.41400
O 	O 	0.07580 0.00100 0.60180 -0.41700
O 	O 	0.02740 0.96230 0.64760 -0.42900
Cu	Cu	0.54410 0.04443 0.57465 0.89900
Cu	Cu	0.49305 0.09525 0.52548 0.91100
Cu	Cu	0.84356 0.31347 0.75114 0.90600
O 	O 	0.77870 0.39090 0.72750 -0.41200
Cu	Cu	0.75495 0.29135 0.85735 0.90700
O 	O 	0.83240 0.34310 0.77630 -0.42100
O 	O 	0.84190 0.27960 0.74310 -0.42800
O 	O 	0.89410 0.23310 0.79020 -0.42400
C 	C 	0.72430 0.40520 0.76460 0.40300
O 	O 	0.70320 0.37320 0.81960 -0.41400
O 	O 	0.81860 0.21380 0.87940 -0.42400
O 	O 	0.76010 0.32090 0.86710 -0.43300
O 	O 	0.76290 0.26600 0.83030 -0.42800
C 	C 	0.79370 0.34240 0.82640 0.42800
C 	C 	0.80370 0.26280 0.78350 0.42100
C 	C 	0.87360 0.19900 0.84440 0.43200
C 	C 	0.68210 0.46660 0.74120 -0.23700
C 	C 	0.79200 0.36810 0.83590 -0.23600
C 	C 	0.81040 0.23370 0.77220 -0.21800
C 	C 	0.91470 0.13860 0.86660 -0.26400
H 	H 	0.64230 0.48030 0.76780 0.13200
C 	C 	0.69820 0.50250 0.68450 0.01900
C 	C 	0.82780 0.38780 0.79820 0.03000
H 	H 	0.76300 0.37000 0.87160 0.12500
H 	H 	0.84160 0.23000 0.73730 0.12300
C 	C 	0.77490 0.21430 0.80870 0.02400
C 	C 	0.89920 0.09790 0.92170 0.04300
H 	H 	0.95500 0.12750 0.84030 0.13800
H 	H 	0.73790 0.48620 0.65940 0.04700
C 	C 	0.66150 0.56610 0.65480 0.06200
H 	H 	0.85870 0.38210 0.76460 0.04000
C 	C 	0.82600 0.41860 0.80170 0.05900
H 	H 	0.74360 0.21990 0.84250 0.04300
C 	C 	0.77770 0.18420 0.80380 0.05500
H 	H 	0.85880 0.11050 0.94740 0.03600
C 	C 	0.93910 0.03360 0.94790 0.05500
C 	C 	0.68850 0.59890 0.59550 -0.12500
C 	C 	0.78340 0.43070 0.84850 -0.12200
C 	C 	0.86920 0.43600 0.75650 -0.12300
C 	C 	0.82250 0.17110 0.75680 -0.11500
C 	C 	0.73410 0.16540 0.84950 -0.11700
C 	C 	0.99980 0.00770 0.91310 -0.11900
H 	H 	0.72930 0.58040 0.57380 0.07900
H 	H 	0.75410 0.41870 0.87960 0.07300
C 	C 	0.78150 0.45910 0.85180 0.06300
C 	C 	0.86970 0.46700 0.75520 0.06100
H 	H 	0.89930 0.42660 0.72550 0.07500
C 	C 	0.82320 0.14250 0.75420 0.04700
H 	H 	0.85250 0.18170 0.72660 0.07200
C 	C 	0.73440 0.13580 0.84920 0.05000
H 	H 	0.70380 0.17360 0.88140 0.07400
H 	H 	0.01730 0.03090 0.87260 0.07400
C 	C 	0.73340 0.47250 0.90170 0.02500
C 	C 	0.82360 0.47770 0.80600 -0.12400
C 	C 	0.91280 0.48930 0.70580 0.00600
C 	C 	0.87150 0.13060 0.70200 0.04700
C 	C 	0.77970 0.12420 0.80020 -0.10500
C 	C 	0.68940 0.11450 0.89970 0.04000
C 	C 	0.68970 0.46120 0.94750 -0.22500
H 	H 	0.73560 0.49310 0.89920 0.04100
H 	H 	0.82270 0.49750 0.80750 0.07600
C 	C 	0.95790 0.47990 0.65980 -0.19900
H 	H 	0.90710 0.51260 0.70760 0.04800
C 	C 	0.87450 0.11190 0.68930 -0.24600
H 	H 	0.90270 0.13780 0.67610 0.03400
H 	H 	0.78040 0.10460 0.79860 0.07100
H 	H 	0.65850 0.12720 0.92830 0.03600
C 	C 	0.68780 0.08150 0.90850 -0.23300
H 	H 	0.68800 0.43840 0.95250 0.12100
C 	C 	0.64050 0.47990 0.99480 0.40000
H 	H 	0.96490 0.45550 0.65820 0.11500
C 	C 	0.00080 0.50600 0.60790 0.39600
H 	H 	0.84100 0.11040 0.71120 0.13900
C 	C 	0.92740 0.09190 0.64210 0.42500
C 	C 	0.64100 0.06140 0.96070 0.40700
H 	H 	0.71810 0.06850 0.88020 0.12800
O 	O 	0.64320 0.50780 0.99060 -0.42000
O 	O 	0.59720 0.46870 0.03300 -0.41900
O 	O 	0.99210 0.53510 0.61330 -0.41300
O 	O 	0.04000 0.49160 0.56760 -0.41800
O 	O 	0.92640 0.06480 0.64330 -0.44100
O 	O 	0.96740 0.10570 0.60480 -0.41400
O 	O 	0.60180 0.07580 0.00100 -0.41700
O 	O 	0.64760 0.02740 0.96230 -0.42900
Cu	Cu	0.57465 0.54410 0.04443 0.89900
Cu	Cu	0.52548 0.49305 0.09525 0.91100
Cu	Cu	0.75114 0.84356 0.31347 0.90600
O 	O 	0.72750 0.77870 0.39090 -0.41200
Cu	Cu	0.85735 0.75495 0.29135 0.90700
O 	O 	0.77630 0.83240 0.34310 -0.42100
O 	O 	0.74310 0.84190 0.27960 -0.42800
O 	O 	0.79020 0.89410 0.23310 -0.42400
C 	C 	0.76460 0.72430 0.40520 0.40300
O 	O 	0.81960 0.70320 0.37320 -0.41400
O 	O 	0.87940 0.81860 0.21380 -0.42400
O 	O 	0.86710 0.76010 0.32090 -0.43300
O 	O 	0.83030 0.76290 0.26600 -0.42800
C 	C 	0.82640 0.79370 0.34240 0.42800
C 	C 	0.78350 0.80370 0.26280 0.42100
C 	C 	0.84440 0.87360 0.19900 0.43200
C 	C 	0.74120 0.68210 0.46660 -0.23700
C 	C 	0.83590 0.79200 0.36810 -0.23600
C 	C 	0.77220 0.81040 0.23370 -0.21800
C 	C 	0.86660 0.91470 0.13860 -0.26400
H 	H 	0.76780 0.64230 0.48030 0.13200
C 	C 	0.68450 0.69820 0.50250 0.01900
C 	C 	0.79820 0.82780 0.38780 0.03000
H 	H 	0.87160 0.76300 0.37000 0.12500
H 	H 	0.73730 0.84160 0.23000 0.12300
C 	C 	0.80870 0.77490 0.21430 0.02400
C 	C 	0.92170 0.89920 0.09790 0.04300
H 	H 	0.84030 0.95500 0.12750 0.13800
H 	H 	0.65940 0.73790 0.48620 0.04700
C 	C 	0.65480 0.66150 0.56610 0.06200
H 	H 	0.76460 0.85870 0.38210 0.04000
C 	C 	0.80170 0.82600 0.41860 0.05900
H 	H 	0.84250 0.74360 0.21990 0.04300
C 	C 	0.80380 0.77770 0.18420 0.05500
H 	H 	0.94740 0.85880 0.11050 0.03600
C 	C 	0.94790 0.93910 0.03360 0.05500
C 	C 	0.59550 0.68850 0.59890 -0.12500
C 	C 	0.84850 0.78340 0.43070 -0.12200
C 	C 	0.75650 0.86920 0.43600 -0.12300
C 	C 	0.75680 0.82250 0.17110 -0.11500
C 	C 	0.84950 0.73410 0.16540 -0.11700
C 	C 	0.91310 0.99980 0.00770 -0.11900
H 	H 	0.57380 0.72930 0.58040 0.07900
H 	H 	0.87960 0.75410 0.41870 0.07300
C 	C 	0.85180 0.78150 0.45910 0.06300
C 	C 	0.75520 0.86970 0.46700 0.06100
H 	H 	0.72550 0.89930 0.42660 0.07500
C 	C 	0.75420 0.82320 0.14250 0.04700
H 	H 	0.72660 0.85250 0.18170 0.07200
C 	C 	0.84920 0.73440 0.13580 0.05000
H 	H 	0.88140 0.70380 0.17360 0.07400
H 	H 	0.87260 0.01730 0.03090 0.07400
C 	C 	0.90170 0.73340 0.47250 0.02500
C 	C 	0.80600 0.82360 0.47770 -0.12400
C 	C 	0.70580 0.91280 0.48930 0.00600
C 	C 	0.70200 0.87150 0.13060 0.04700
C 	C 	0.80020 0.77970 0.12420 -0.10500
C 	C 	0.89970 0.68940 0.11450 0.04000
C 	C 	0.94750 0.68970 0.46120 -0.22500
H 	H 	0.89920 0.73560 0.49310 0.04100
H 	H 	0.80750 0.82270 0.49750 0.07600
C 	C 	0.65980 0.95790 0.47990 -0.19900
H 	H 	0.70760 0.90710 0.51260 0.04800
C 	C 	0.68930 0.87450 0.11190 -0.24600
H 	H 	0.67610 0.90270 0.13780 0.03400
H 	H 	0.79860 0.78040 0.10460 0.07100
H 	H 	0.92830 0.65850 0.12720 0.03600
C 	C 	0.90850 0.68780 0.08150 -0.23300
H 	H 	0.95250 0.68800 0.43840 0.12100
C 	C 	0.99480 0.64050 0.47990 0.40000
H 	H 	0.65820 0.96490 0.45550 0.11500
C 	C 	0.60790 0.00080 0.50600 0.39600
H 	H 	0.71120 0.84100 0.11040 0.13900
C 	C 	0.64210 0.92740 0.09190 0.42500
C 	C 	0.96070 0.64100 0.06140 0.40700
H 	H 	0.88020 0.71810 0.06850 0.12800
O 	O 	0.99060 0.64320 0.50780 -0.42000
O 	O 	0.03300 0.59720 0.46870 -0.41900
O 	O 	0.61330 0.99210 0.53510 -0.41300
O 	O 	0.56760 0.04000 0.49160 -0.41800
O 	O 	0.64330 0.92640 0.06480 -0.44100
O 	O 	0.60480 0.96740 0.10570 -0.41400
O 	O 	0.00100 0.60180 0.07580 -0.41700
O 	O 	0.96230 0.64760 0.02740 -0.42900
Cu	Cu	0.04443 0.57465 0.54410 0.89900
Cu	Cu	0.09525 0.52548 0.49305 0.91100
