data_crystal

_cell_length_a 47.89900
_cell_length_b 47.89900
_cell_length_c 14.17780
_cell_angle_alpha 90.00000
_cell_angle_beta  90.00000
_cell_angle_gamma 120.00000

_symmetry_space_group_name_	'P 1'
_symmetry_space_group_name_H-M	'P 1'

loop_
_symmetry_equiv_pos_as_xyz
  x,y,z

loop_
_atom_site_label
_atom_site_type_symbol
_atom_site_fract_x
_atom_site_fract_y
_atom_site_fract_z
_atom_site_charge
Mn	Mn	0.52945 0.02893 0.98488 1.30700
Mn	Mn	0.46609 0.02846 0.92329 1.31800
Mn	Mn	0.44864 0.02032 0.69743 1.23000
Mn	Mn	0.45245 0.96237 0.79972 1.28300
Mn	Mn	0.52102 0.03079 0.76197 1.23700
N 	N 	0.29227 0.91472 0.02250 -0.20800
N 	N 	0.58420 0.20255 0.85950 -0.15300
O 	O 	0.48830 0.05131 0.80990 -0.66900
O 	O 	0.49233 0.99976 0.91120 -0.86400
O 	O 	0.50090 0.05599 0.00570 -0.63800
O 	O 	0.41050 0.97747 0.63390 -0.60600
O 	O 	0.41126 0.93666 0.71190 -0.57300
O 	O 	0.44671 0.00211 0.03430 -0.63200
O 	O 	0.43364 0.99696 0.83890 -0.64600
O 	O 	0.43522 0.94401 0.93350 -0.55800
O 	O 	0.44143 0.05517 0.93700 -0.52200
O 	O 	0.44502 0.06469 0.09300 -0.53400
O 	O 	0.56238 0.97152 0.73180 -0.52400
O 	O 	0.54824 0.05605 0.87660 -0.59200
O 	O 	0.47802 0.99747 0.69690 -0.70600
O 	O 	0.49819 0.90627 0.78400 -0.49100
C 	C 	0.31370 0.91360 0.08020 0.55000
H 	H 	0.30610 0.90170 0.13810 -0.14700
C 	C 	0.30310 0.93200 0.94460 0.43800
H 	H 	0.28820 0.93340 0.90240 -0.15600
C 	C 	0.44960 0.89150 0.69750 -1.39000
H 	H 	0.43580 0.90040 0.68670 0.42200
H 	H 	0.43750 0.87080 0.72710 0.43000
H 	H 	0.45800 0.88920 0.63840 0.42000
C 	C 	0.57130 0.18920 0.93820 0.13300
H 	H 	0.57250 0.20250 0.98780 -0.01900
C 	C 	0.58020 0.18290 0.78220 0.11100
H 	H 	0.58860 0.19140 0.72310 -0.01600
C 	C 	0.37690 0.92430 0.58320 -1.29700
H 	H 	0.37080 0.93490 0.53710 0.39700
H 	H 	0.35830 0.90940 0.61880 0.41400
H 	H 	0.38590 0.91280 0.55190 0.38300
C 	C 	0.55590 0.15650 0.95410 -0.23100
H 	H 	0.54840 0.14840 0.01420 0.10400
C 	C 	0.41790 0.08420 0.99680 -1.15700
H 	H 	0.41510 0.09200 0.05640 0.34700
H 	H 	0.39720 0.06980 0.96990 0.35900
H 	H 	0.42980 0.10200 0.95500 0.36500
C 	C 	0.34580 0.92860 0.06170 -0.60100
H 	H 	0.36000 0.92690 0.10610 0.21000
C 	C 	0.33730 0.94880 0.92060 -0.55000
H 	H 	0.34540 0.96100 0.86360 0.20600
C 	C 	0.55150 0.13591 0.88060 0.19000
C 	C 	0.56350 0.15080 0.79820 -0.22600
H 	H 	0.55980 0.13760 0.74620 0.08700
C 	C 	0.47650 0.91330 0.75950 0.78900
C 	C 	0.43610 0.06650 0.01150 0.68100
C 	C 	0.53332 0.09858 0.89000 -0.25200
C 	C 	0.57529 0.01310 0.61970 -1.42500
H 	H 	0.57100 0.03050 0.61230 0.39600
H 	H 	0.56670 0.99880 0.56680 0.43000
H 	H 	0.59810 0.02160 0.62320 0.42900
C 	C 	0.40121 0.94848 0.64720 0.74300
C 	C 	0.48229 0.98524 0.60680 0.11100
H 	H 	0.49560 0.97570 0.61580 -0.05400
H 	H 	0.49240 0.00270 0.56250 -0.08000
H 	H 	0.46160 0.96930 0.58290 -0.06200
C 	C 	0.50690 0.08552 0.81580 0.21300
H 	H 	0.49250 0.09380 0.82890 -0.04300
H 	H 	0.51670 0.09380 0.75470 -0.09300
C 	C 	0.40048 0.98078 0.87120 0.17900
H 	H 	0.38690 0.96610 0.82220 -0.04300
H 	H 	0.39390 0.99670 0.88070 -0.03900
C 	C 	0.35837 0.94598 0.98450 0.14700
C 	C 	0.51832 0.08988 0.99430 0.20200
H 	H 	0.53550 0.09940 0.04060 -0.04600
H 	H 	0.50410 0.09860 0.00400 -0.04800
C 	C 	0.56022 0.99563 0.70580 0.79700
C 	C 	0.55920 0.08970 0.87890 0.19400
H 	H 	0.57090 0.09930 0.82100 -0.06500
H 	H 	0.57430 0.09920 0.93070 -0.02700
C 	C 	0.40256 0.93468 0.95560 0.16200
H 	H 	0.39710 0.92340 0.01550 -0.02000
H 	H 	0.38870 0.91950 0.90800 -0.02300
C 	C 	0.41236 0.98414 0.04670 0.18100
H 	H 	0.40440 0.99900 0.05520 -0.04400
H 	H 	0.40730 0.97110 0.10330 -0.04700
C 	C 	0.39493 0.96196 0.96170 -0.21500
O 	O 	0.47956 0.93847 0.78770 -0.73200
O 	O 	0.54216 0.00113 0.75600 -0.72100
Mn	Mn	0.52854 0.95696 0.85577 1.29700
C 	C 	0.30290 0.89290 0.01620 -0.41300
H 	H 	0.28810 0.87010 0.01890 0.10900
C 	C 	0.30790 0.94070 0.02250 -0.44700
H 	H 	0.29840 0.95390 0.03540 0.14800
C 	C 	0.33950 0.90810 0.99360 0.25300
H 	H 	0.35000 0.89550 0.99160 -0.06500
C 	C 	0.34240 0.95660 0.99890 0.40600
H 	H 	0.35320 0.97970 0.99480 -0.09900
Mn	Mn	0.19612 0.36226 0.31821 1.30700
Mn	Mn	0.13276 0.36179 0.25662 1.31800
Mn	Mn	0.11531 0.35365 0.03076 1.23000
Mn	Mn	0.11912 0.29570 0.13305 1.28300
Mn	Mn	0.18769 0.36412 0.09530 1.23700
N 	N 	0.95894 0.24805 0.35583 -0.21000
N 	N 	0.25087 0.53588 0.19283 -0.15300
O 	O 	0.15497 0.38464 0.14323 -0.66900
O 	O 	0.15900 0.33309 0.24453 -0.86400
O 	O 	0.16757 0.38932 0.33903 -0.63700
O 	O 	0.07717 0.31080 0.96723 -0.60600
O 	O 	0.07793 0.26999 0.04523 -0.57200
O 	O 	0.11338 0.33544 0.36763 -0.63200
O 	O 	0.10031 0.33029 0.17223 -0.64600
O 	O 	0.10189 0.27734 0.26683 -0.55900
O 	O 	0.10810 0.38850 0.27033 -0.52300
O 	O 	0.11169 0.39802 0.42633 -0.53500
O 	O 	0.22905 0.30485 0.06513 -0.52400
O 	O 	0.21491 0.38938 0.20993 -0.59200
O 	O 	0.14469 0.33080 0.03023 -0.70500
O 	O 	0.16486 0.23960 0.11733 -0.49100
C 	C 	0.98037 0.24693 0.41353 0.54400
H 	H 	0.97277 0.23503 0.47143 -0.14500
C 	C 	0.96977 0.26533 0.27793 0.43000
H 	H 	0.95487 0.26673 0.23573 -0.15300
C 	C 	0.11627 0.22483 0.03083 -1.38900
H 	H 	0.10247 0.23373 0.02003 0.42200
H 	H 	0.10417 0.20413 0.06043 0.43000
H 	H 	0.12467 0.22253 0.97173 0.41900
C 	C 	0.23797 0.52253 0.27153 0.13500
H 	H 	0.23917 0.53583 0.32113 -0.01900
C 	C 	0.24687 0.51623 0.11553 0.11100
H 	H 	0.25527 0.52473 0.05643 -0.01600
C 	C 	0.04357 0.25763 0.91653 -1.29700
H 	H 	0.03747 0.26823 0.87043 0.39700
H 	H 	0.02497 0.24273 0.95213 0.41400
H 	H 	0.05257 0.24613 0.88523 0.38300
C 	C 	0.22257 0.48983 0.28743 -0.23400
H 	H 	0.21507 0.48173 0.34753 0.10600
C 	C 	0.08457 0.41753 0.33013 -1.16200
H 	H 	0.08177 0.42533 0.38973 0.34800
H 	H 	0.06387 0.40313 0.30323 0.36100
H 	H 	0.09647 0.43533 0.28833 0.36600
C 	C 	0.01247 0.26193 0.39503 -0.59600
H 	H 	0.02667 0.26023 0.43943 0.20800
C 	C 	0.00397 0.28213 0.25393 -0.54100
H 	H 	0.01207 0.29433 0.19693 0.20300
C 	C 	0.21817 0.46924 0.21393 0.19100
C 	C 	0.23017 0.48413 0.13153 -0.22700
H 	H 	0.22647 0.47093 0.07953 0.08700
C 	C 	0.14317 0.24663 0.09283 0.78800
C 	C 	0.10277 0.39983 0.34483 0.68300
C 	C 	0.19999 0.43191 0.22333 -0.25200
C 	C 	0.24196 0.34643 0.95303 -1.42700
H 	H 	0.23767 0.36383 0.94563 0.39600
H 	H 	0.23337 0.33213 0.90013 0.43000
H 	H 	0.26477 0.35493 0.95653 0.42900
C 	C 	0.06788 0.28181 0.98053 0.74200
C 	C 	0.14896 0.31857 0.94013 0.11000
H 	H 	0.16227 0.30903 0.94913 -0.05400
H 	H 	0.15907 0.33603 0.89583 -0.07900
H 	H 	0.12827 0.30263 0.91623 -0.06100
C 	C 	0.17357 0.41885 0.14913 0.21200
H 	H 	0.15917 0.42713 0.16223 -0.04300
H 	H 	0.18337 0.42713 0.08803 -0.09300
C 	C 	0.06715 0.31411 0.20453 0.18000
H 	H 	0.05357 0.29943 0.15553 -0.04300
H 	H 	0.06057 0.33003 0.21403 -0.03900
C 	C 	0.02504 0.27931 0.31783 0.15000
C 	C 	0.18499 0.42321 0.32763 0.19800
H 	H 	0.20217 0.43273 0.37393 -0.04500
H 	H 	0.17077 0.43193 0.33733 -0.04600
C 	C 	0.22689 0.32896 0.03913 0.79800
C 	C 	0.22587 0.42303 0.21223 0.19400
H 	H 	0.23757 0.43263 0.15433 -0.06500
H 	H 	0.24097 0.43253 0.26403 -0.02700
C 	C 	0.06923 0.26801 0.28893 0.16400
H 	H 	0.06377 0.25673 0.34883 -0.02100
H 	H 	0.05537 0.25283 0.24133 -0.02400
C 	C 	0.07903 0.31747 0.38003 0.18200
H 	H 	0.07107 0.33233 0.38853 -0.04400
H 	H 	0.07397 0.30443 0.43663 -0.04700
C 	C 	0.06160 0.29529 0.29503 -0.21600
O 	O 	0.14623 0.27180 0.12103 -0.73200
O 	O 	0.20883 0.33446 0.08933 -0.72200
Mn	Mn	0.19521 0.29029 0.18910 1.29700
C 	C 	0.96957 0.22623 0.34953 -0.40800
H 	H 	0.95477 0.20343 0.35223 0.10700
C 	C 	0.97457 0.27403 0.35583 -0.43500
H 	H 	0.96507 0.28723 0.36873 0.14400
C 	C 	0.00617 0.24143 0.32693 0.24900
H 	H 	0.01667 0.22883 0.32493 -0.06300
C 	C 	0.00907 0.28993 0.33223 0.39400
H 	H 	0.01987 0.31303 0.32813 -0.09500
Mn	Mn	0.86278 0.69560 0.65155 1.30700
Mn	Mn	0.79942 0.69513 0.58996 1.31800
Mn	Mn	0.78197 0.68699 0.36410 1.23000
Mn	Mn	0.78578 0.62904 0.46639 1.28300
Mn	Mn	0.85435 0.69746 0.42864 1.23700
N 	N 	0.62560 0.58139 0.68917 -0.21000
N 	N 	0.91753 0.86922 0.52617 -0.15300
O 	O 	0.82163 0.71798 0.47657 -0.66900
O 	O 	0.82566 0.66643 0.57787 -0.86400
O 	O 	0.83423 0.72266 0.67237 -0.63700
O 	O 	0.74383 0.64414 0.30057 -0.60600
O 	O 	0.74459 0.60333 0.37857 -0.57300
O 	O 	0.78004 0.66878 0.70097 -0.63200
O 	O 	0.76697 0.66363 0.50557 -0.64600
O 	O 	0.76855 0.61068 0.60017 -0.55900
O 	O 	0.77476 0.72184 0.60367 -0.52300
O 	O 	0.77835 0.73136 0.75967 -0.53500
O 	O 	0.89571 0.63819 0.39847 -0.52400
O 	O 	0.88157 0.72272 0.54327 -0.59200
O 	O 	0.81135 0.66414 0.36357 -0.70600
O 	O 	0.83152 0.57294 0.45067 -0.49100
C 	C 	0.64703 0.58027 0.74687 0.54400
H 	H 	0.63943 0.56837 0.80477 -0.14500
C 	C 	0.63643 0.59867 0.61127 0.43000
H 	H 	0.62153 0.60007 0.56907 -0.15300
C 	C 	0.78293 0.55817 0.36417 -1.39000
H 	H 	0.76913 0.56707 0.35337 0.42200
H 	H 	0.77083 0.53747 0.39377 0.43000
H 	H 	0.79133 0.55587 0.30507 0.41900
C 	C 	0.90463 0.85587 0.60487 0.13500
H 	H 	0.90583 0.86917 0.65447 -0.01900
C 	C 	0.91353 0.84957 0.44887 0.11100
H 	H 	0.92193 0.85807 0.38977 -0.01600
C 	C 	0.71023 0.59097 0.24987 -1.29700
H 	H 	0.70413 0.60157 0.20377 0.39700
H 	H 	0.69163 0.57607 0.28547 0.41400
H 	H 	0.71923 0.57947 0.21857 0.38300
C 	C 	0.88923 0.82317 0.62077 -0.23400
H 	H 	0.88173 0.81507 0.68087 0.10600
C 	C 	0.75123 0.75087 0.66347 -1.16200
H 	H 	0.74843 0.75867 0.72307 0.34800
H 	H 	0.73053 0.73647 0.63657 0.36100
H 	H 	0.76313 0.76867 0.62167 0.36600
C 	C 	0.67913 0.59527 0.72837 -0.59600
H 	H 	0.69333 0.59357 0.77277 0.20800
C 	C 	0.67063 0.61547 0.58727 -0.54100
H 	H 	0.67873 0.62767 0.53027 0.20300
C 	C 	0.88483 0.80258 0.54727 0.19100
C 	C 	0.89683 0.81747 0.46487 -0.22700
H 	H 	0.89313 0.80427 0.41287 0.08700
C 	C 	0.80983 0.57997 0.42617 0.78900
C 	C 	0.76943 0.73317 0.67817 0.68300
C 	C 	0.86665 0.76525 0.55667 -0.25200
C 	C 	0.90862 0.67977 0.28637 -1.42500
H 	H 	0.90433 0.69717 0.27897 0.39600
H 	H 	0.90003 0.66547 0.23347 0.43000
H 	H 	0.93143 0.68827 0.28987 0.42900
C 	C 	0.73454 0.61515 0.31387 0.74300
C 	C 	0.81562 0.65191 0.27347 0.11100
H 	H 	0.82893 0.64237 0.28247 -0.05400
H 	H 	0.82573 0.66937 0.22917 -0.08000
H 	H 	0.79493 0.63597 0.24957 -0.06200
C 	C 	0.84023 0.75219 0.48247 0.21300
H 	H 	0.82583 0.76047 0.49557 -0.04300
H 	H 	0.85003 0.76047 0.42137 -0.09300
C 	C 	0.73381 0.64745 0.53787 0.18000
H 	H 	0.72023 0.63277 0.48887 -0.04300
H 	H 	0.72723 0.66337 0.54737 -0.03900
C 	C 	0.69170 0.61265 0.65117 0.15000
C 	C 	0.85165 0.75655 0.66097 0.19800
H 	H 	0.86883 0.76607 0.70727 -0.04500
H 	H 	0.83743 0.76527 0.67067 -0.04600
C 	C 	0.89355 0.66230 0.37247 0.79700
C 	C 	0.89253 0.75637 0.54557 0.19400
H 	H 	0.90423 0.76597 0.48767 -0.06500
H 	H 	0.90763 0.76587 0.59737 -0.02700
C 	C 	0.73589 0.60135 0.62227 0.16400
H 	H 	0.73043 0.59007 0.68217 -0.02100
H 	H 	0.72203 0.58617 0.57467 -0.02400
C 	C 	0.74569 0.65081 0.71337 0.18200
H 	H 	0.73773 0.66567 0.72187 -0.04400
H 	H 	0.74063 0.63777 0.76997 -0.04700
C 	C 	0.72826 0.62863 0.62837 -0.21600
O 	O 	0.81289 0.60514 0.45437 -0.73200
O 	O 	0.87549 0.66780 0.42267 -0.72100
Mn	Mn	0.86187 0.62363 0.52244 1.29700
C 	C 	0.63623 0.55957 0.68287 -0.40900
H 	H 	0.62143 0.53677 0.68557 0.10700
C 	C 	0.64123 0.60737 0.68917 -0.43500
H 	H 	0.63173 0.62057 0.70207 0.14400
C 	C 	0.67283 0.57477 0.66027 0.24900
H 	H 	0.68333 0.56217 0.65827 -0.06300
C 	C 	0.67573 0.62327 0.66557 0.39500
H 	H 	0.68653 0.64637 0.66147 -0.09500
Mn	Mn	0.97107 0.50052 0.98488 1.30700
Mn	Mn	0.97154 0.43763 0.92329 1.31800
Mn	Mn	0.97968 0.42832 0.69743 1.23000
Mn	Mn	0.03763 0.49008 0.79972 1.28300
Mn	Mn	0.96921 0.49023 0.76197 1.23700
N 	N 	0.08528 0.37755 0.02250 -0.20800
N 	N 	0.79745 0.38165 0.85950 -0.15300
O 	O 	0.94869 0.43699 0.80990 -0.66900
O 	O 	0.00024 0.49257 0.91120 -0.86400
O 	O 	0.94401 0.44491 0.00570 -0.63800
O 	O 	0.02253 0.43303 0.63390 -0.60600
O 	O 	0.06334 0.47460 0.71190 -0.57300
O 	O 	0.99789 0.44460 0.03430 -0.63200
O 	O 	0.00304 0.43668 0.83890 -0.64600
O 	O 	0.05599 0.49121 0.93350 -0.55800
O 	O 	0.94483 0.38626 0.93700 -0.52200
O 	O 	0.93531 0.38033 0.09300 -0.53400
O 	O 	0.02848 0.59086 0.73180 -0.52400
O 	O 	0.94395 0.49219 0.87660 -0.59200
O 	O 	0.00253 0.48055 0.69690 -0.70600
O 	O 	0.09373 0.59192 0.78400 -0.49100
C 	C 	0.08640 0.40010 0.08020 0.55000
H 	H 	0.09830 0.40440 0.13810 -0.14700
C 	C 	0.06800 0.37110 0.94460 0.43800
H 	H 	0.06660 0.35480 0.90240 -0.15600
C 	C 	0.10850 0.55810 0.69750 -1.39000
H 	H 	0.09960 0.53540 0.68670 0.42200
H 	H 	0.12920 0.56670 0.72710 0.43000
H 	H 	0.11080 0.56880 0.63840 0.42000
C 	C 	0.81080 0.38210 0.93820 0.13300
H 	H 	0.79750 0.37000 0.98780 -0.01900
C 	C 	0.81710 0.39730 0.78220 0.11100
H 	H 	0.80860 0.39720 0.72310 -0.01600
C 	C 	0.07570 0.45260 0.58320 -1.29700
H 	H 	0.06510 0.43590 0.53710 0.39700
H 	H 	0.09060 0.44890 0.61880 0.41400
H 	H 	0.08720 0.47310 0.55190 0.38300
C 	C 	0.84350 0.39940 0.95410 -0.23100
H 	H 	0.85160 0.40000 0.01420 0.10400
C 	C 	0.91580 0.33370 0.99680 -1.15700
H 	H 	0.90800 0.32310 0.05640 0.34700
H 	H 	0.93020 0.32740 0.96990 0.35900
H 	H 	0.89800 0.32780 0.95500 0.36500
C 	C 	0.07140 0.41720 0.06170 -0.60100
H 	H 	0.07310 0.43310 0.10610 0.21000
C 	C 	0.05120 0.38850 0.92060 -0.55000
H 	H 	0.03900 0.38440 0.86360 0.20600
C 	C 	0.86409 0.41559 0.88060 0.19000
C 	C 	0.84920 0.41270 0.79820 -0.22600
H 	H 	0.86240 0.42220 0.74620 0.08700
C 	C 	0.08670 0.56320 0.75950 0.78900
C 	C 	0.93350 0.36960 0.01150 0.68100
C 	C 	0.90142 0.43474 0.89000 -0.25200
C 	C 	0.98690 0.56219 0.61970 -1.42500
H 	H 	0.96950 0.54050 0.61230 0.39600
H 	H 	0.00120 0.56790 0.56680 0.43000
H 	H 	0.97840 0.57650 0.62320 0.42900
C 	C 	0.05152 0.45273 0.64720 0.74300
C 	C 	0.01476 0.49705 0.60680 0.11100
H 	H 	0.02430 0.51990 0.61580 -0.05400
H 	H 	0.99730 0.48970 0.56250 -0.08000
H 	H 	0.03070 0.49230 0.58290 -0.06100
C 	C 	0.91448 0.42138 0.81580 0.21300
H 	H 	0.90620 0.39870 0.82890 -0.04300
H 	H 	0.90620 0.42290 0.75470 -0.09300
C 	C 	0.01922 0.41970 0.87120 0.17900
H 	H 	0.03390 0.42080 0.82220 -0.04300
H 	H 	0.00330 0.39720 0.88070 -0.03900
C 	C 	0.05402 0.41239 0.98450 0.14700
C 	C 	0.91012 0.42844 0.99430 0.20200
H 	H 	0.90060 0.43610 0.04060 -0.04600
H 	H 	0.90140 0.40550 0.00400 -0.04800
C 	C 	0.00437 0.56459 0.70580 0.79700
C 	C 	0.91030 0.46950 0.87890 0.19400
H 	H 	0.90070 0.47160 0.82100 -0.06500
H 	H 	0.90080 0.47510 0.93070 -0.02700
C 	C 	0.06532 0.46788 0.95560 0.16200
H 	H 	0.07660 0.47370 0.01550 -0.02000
H 	H 	0.08050 0.46920 0.90800 -0.02300
C 	C 	0.01586 0.42822 0.04670 0.18100
H 	H 	0.00100 0.40540 0.05520 -0.04300
H 	H 	0.02890 0.43620 0.10330 -0.04700
C 	C 	0.03804 0.43297 0.96170 -0.21500
O 	O 	0.06153 0.54109 0.78770 -0.73200
O 	O 	0.99887 0.54103 0.75600 -0.72100
Mn	Mn	0.04304 0.57158 0.85577 1.29700
C 	C 	0.10710 0.41000 0.01620 -0.41300
H 	H 	0.12990 0.41800 0.01890 0.10900
C 	C 	0.05930 0.36720 0.02250 -0.44700
H 	H 	0.04610 0.34450 0.03540 0.14800
C 	C 	0.09190 0.43140 0.99360 0.25300
H 	H 	0.10450 0.45450 0.99160 -0.06500
C 	C 	0.04340 0.38580 0.99890 0.40600
H 	H 	0.02030 0.37350 0.99480 -0.09900
Mn	Mn	0.63774 0.83385 0.31821 1.30700
Mn	Mn	0.63821 0.77096 0.25662 1.31800
Mn	Mn	0.64635 0.76165 0.03076 1.23000
Mn	Mn	0.70430 0.82341 0.13305 1.28300
Mn	Mn	0.63588 0.82356 0.09530 1.23700
N 	N 	0.75195 0.71088 0.35583 -0.21000
N 	N 	0.46412 0.71498 0.19283 -0.15300
O 	O 	0.61536 0.77032 0.14323 -0.66900
O 	O 	0.66691 0.82590 0.24453 -0.86400
O 	O 	0.61068 0.77824 0.33903 -0.63700
O 	O 	0.68920 0.76636 0.96723 -0.60600
O 	O 	0.73001 0.80793 0.04523 -0.57200
O 	O 	0.66456 0.77793 0.36763 -0.63200
O 	O 	0.66971 0.77001 0.17223 -0.64600
O 	O 	0.72266 0.82454 0.26683 -0.55900
O 	O 	0.61150 0.71959 0.27033 -0.52300
O 	O 	0.60198 0.71366 0.42633 -0.53500
O 	O 	0.69515 0.92419 0.06513 -0.52400
O 	O 	0.61062 0.82552 0.20993 -0.59200
O 	O 	0.66920 0.81388 0.03023 -0.70500
O 	O 	0.76040 0.92525 0.11733 -0.49100
C 	C 	0.75307 0.73343 0.41353 0.54400
H 	H 	0.76497 0.73773 0.47143 -0.14600
C 	C 	0.73467 0.70443 0.27793 0.43000
H 	H 	0.73327 0.68813 0.23573 -0.15300
C 	C 	0.77517 0.89143 0.03083 -1.38900
H 	H 	0.76627 0.86873 0.02003 0.42200
H 	H 	0.79587 0.90003 0.06043 0.43000
H 	H 	0.77747 0.90213 0.97173 0.41900
C 	C 	0.47747 0.71543 0.27153 0.13500
H 	H 	0.46417 0.70333 0.32113 -0.01900
C 	C 	0.48377 0.73063 0.11553 0.11100
H 	H 	0.47527 0.73053 0.05643 -0.01600
C 	C 	0.74237 0.78593 0.91653 -1.29700
H 	H 	0.73177 0.76923 0.87043 0.39700
H 	H 	0.75727 0.78223 0.95213 0.41400
H 	H 	0.75387 0.80643 0.88523 0.38300
C 	C 	0.51017 0.73273 0.28743 -0.23400
H 	H 	0.51827 0.73333 0.34753 0.10600
C 	C 	0.58247 0.66703 0.33013 -1.16200
H 	H 	0.57467 0.65643 0.38973 0.34800
H 	H 	0.59687 0.66073 0.30323 0.36100
H 	H 	0.56467 0.66113 0.28833 0.36600
C 	C 	0.73807 0.75053 0.39503 -0.59600
H 	H 	0.73977 0.76643 0.43943 0.20800
C 	C 	0.71787 0.72183 0.25393 -0.54100
H 	H 	0.70567 0.71773 0.19693 0.20300
C 	C 	0.53076 0.74892 0.21393 0.19100
C 	C 	0.51587 0.74603 0.13153 -0.22700
H 	H 	0.52907 0.75553 0.07953 0.08700
C 	C 	0.75337 0.89653 0.09283 0.78800
C 	C 	0.60017 0.70293 0.34483 0.68300
C 	C 	0.56809 0.76807 0.22333 -0.25200
C 	C 	0.65357 0.89552 0.95303 -1.42700
H 	H 	0.63617 0.87383 0.94563 0.39600
H 	H 	0.66787 0.90123 0.90013 0.43000
H 	H 	0.64507 0.90983 0.95653 0.42900
C 	C 	0.71819 0.78606 0.98053 0.74200
C 	C 	0.68143 0.83038 0.94013 0.11000
H 	H 	0.69097 0.85323 0.94913 -0.05400
H 	H 	0.66397 0.82303 0.89583 -0.07900
H 	H 	0.69737 0.82563 0.91623 -0.06100
C 	C 	0.58115 0.75471 0.14913 0.21200
H 	H 	0.57287 0.73203 0.16223 -0.04300
H 	H 	0.57287 0.75623 0.08803 -0.09300
C 	C 	0.68589 0.75303 0.20453 0.18000
H 	H 	0.70057 0.75413 0.15553 -0.04300
H 	H 	0.66997 0.73053 0.21403 -0.03900
C 	C 	0.72069 0.74572 0.31783 0.15000
C 	C 	0.57679 0.76177 0.32763 0.19800
H 	H 	0.56727 0.76943 0.37393 -0.04500
H 	H 	0.56807 0.73883 0.33733 -0.04600
C 	C 	0.67104 0.89792 0.03913 0.79800
C 	C 	0.57697 0.80283 0.21223 0.19400
H 	H 	0.56737 0.80493 0.15433 -0.06500
H 	H 	0.56747 0.80843 0.26403 -0.02700
C 	C 	0.73199 0.80121 0.28893 0.16400
H 	H 	0.74327 0.80703 0.34883 -0.02100
H 	H 	0.74717 0.80253 0.24133 -0.02400
C 	C 	0.68253 0.76155 0.38003 0.18200
H 	H 	0.66767 0.73873 0.38853 -0.04400
H 	H 	0.69557 0.76953 0.43663 -0.04700
C 	C 	0.70471 0.76630 0.29503 -0.21600
O 	O 	0.72820 0.87442 0.12103 -0.73200
O 	O 	0.66554 0.87436 0.08933 -0.72200
Mn	Mn	0.70971 0.90491 0.18910 1.29700
C 	C 	0.77377 0.74333 0.34953 -0.40900
H 	H 	0.79657 0.75133 0.35223 0.10700
C 	C 	0.72597 0.70053 0.35583 -0.43500
H 	H 	0.71277 0.67783 0.36873 0.14500
C 	C 	0.75857 0.76473 0.32693 0.24900
H 	H 	0.77117 0.78783 0.32493 -0.06300
C 	C 	0.71007 0.71913 0.33223 0.39500
H 	H 	0.68697 0.70683 0.32813 -0.09500
Mn	Mn	0.30440 0.16719 0.65155 1.30700
Mn	Mn	0.30487 0.10430 0.58996 1.31800
Mn	Mn	0.31301 0.09499 0.36410 1.23000
Mn	Mn	0.37096 0.15675 0.46639 1.28300
Mn	Mn	0.30254 0.15690 0.42864 1.23700
N 	N 	0.41861 0.04422 0.68917 -0.21000
N 	N 	0.13078 0.04832 0.52617 -0.15300
O 	O 	0.28202 0.10366 0.47657 -0.66900
O 	O 	0.33357 0.15924 0.57787 -0.86400
O 	O 	0.27734 0.11158 0.67237 -0.63700
O 	O 	0.35586 0.09970 0.30057 -0.60600
O 	O 	0.39667 0.14127 0.37857 -0.57300
O 	O 	0.33122 0.11127 0.70097 -0.63200
O 	O 	0.33637 0.10335 0.50557 -0.64600
O 	O 	0.38932 0.15788 0.60017 -0.55900
O 	O 	0.27816 0.05293 0.60367 -0.52300
O 	O 	0.26864 0.04700 0.75967 -0.53500
O 	O 	0.36181 0.25753 0.39847 -0.52400
O 	O 	0.27728 0.15886 0.54327 -0.59200
O 	O 	0.33586 0.14722 0.36357 -0.70600
O 	O 	0.42706 0.25859 0.45067 -0.49100
C 	C 	0.41973 0.06677 0.74687 0.54400
H 	H 	0.43163 0.07107 0.80477 -0.14500
C 	C 	0.40133 0.03777 0.61127 0.43000
H 	H 	0.39993 0.02147 0.56907 -0.15300
C 	C 	0.44183 0.22477 0.36417 -1.39000
H 	H 	0.43293 0.20207 0.35337 0.42200
H 	H 	0.46253 0.23337 0.39377 0.43000
H 	H 	0.44413 0.23547 0.30507 0.41900
C 	C 	0.14413 0.04877 0.60487 0.13500
H 	H 	0.13083 0.03667 0.65447 -0.01900
C 	C 	0.15043 0.06397 0.44887 0.11100
H 	H 	0.14193 0.06387 0.38977 -0.01600
C 	C 	0.40903 0.11927 0.24987 -1.29700
H 	H 	0.39843 0.10257 0.20377 0.39700
H 	H 	0.42393 0.11557 0.28547 0.41400
H 	H 	0.42053 0.13977 0.21857 0.38300
C 	C 	0.17683 0.06607 0.62077 -0.23400
H 	H 	0.18493 0.06667 0.68087 0.10600
C 	C 	0.24913 0.00037 0.66347 -1.16200
H 	H 	0.24133 0.98977 0.72307 0.34800
H 	H 	0.26353 0.99407 0.63657 0.36100
H 	H 	0.23133 0.99447 0.62167 0.36600
C 	C 	0.40473 0.08387 0.72837 -0.59600
H 	H 	0.40643 0.09977 0.77277 0.20800
C 	C 	0.38453 0.05517 0.58727 -0.54100
H 	H 	0.37233 0.05107 0.53027 0.20300
C 	C 	0.19742 0.08226 0.54727 0.19100
C 	C 	0.18253 0.07937 0.46487 -0.22700
H 	H 	0.19573 0.08887 0.41287 0.08700
C 	C 	0.42003 0.22987 0.42617 0.78900
C 	C 	0.26683 0.03627 0.67817 0.68300
C 	C 	0.23475 0.10141 0.55667 -0.25200
C 	C 	0.32023 0.22886 0.28637 -1.42500
H 	H 	0.30283 0.20717 0.27897 0.39600
H 	H 	0.33453 0.23457 0.23347 0.43000
H 	H 	0.31173 0.24317 0.28987 0.42900
C 	C 	0.38485 0.11940 0.31387 0.74300
C 	C 	0.34809 0.16372 0.27347 0.11100
H 	H 	0.35763 0.18657 0.28247 -0.05400
H 	H 	0.33063 0.15637 0.22917 -0.08000
H 	H 	0.36403 0.15897 0.24957 -0.06200
C 	C 	0.24781 0.08805 0.48247 0.21300
H 	H 	0.23953 0.06537 0.49557 -0.04300
H 	H 	0.23953 0.08957 0.42137 -0.09300
C 	C 	0.35255 0.08637 0.53787 0.18000
H 	H 	0.36723 0.08747 0.48887 -0.04300
H 	H 	0.33663 0.06387 0.54737 -0.03900
C 	C 	0.38735 0.07906 0.65117 0.15000
C 	C 	0.24345 0.09511 0.66097 0.19800
H 	H 	0.23393 0.10277 0.70727 -0.04500
H 	H 	0.23473 0.07217 0.67067 -0.04600
C 	C 	0.33770 0.23126 0.37247 0.79700
C 	C 	0.24363 0.13617 0.54557 0.19400
H 	H 	0.23403 0.13827 0.48767 -0.06500
H 	H 	0.23413 0.14177 0.59737 -0.02700
C 	C 	0.39865 0.13455 0.62227 0.16400
H 	H 	0.40993 0.14037 0.68217 -0.02100
H 	H 	0.41383 0.13587 0.57467 -0.02400
C 	C 	0.34919 0.09489 0.71337 0.18200
H 	H 	0.33433 0.07207 0.72187 -0.04400
H 	H 	0.36223 0.10287 0.76997 -0.04700
C 	C 	0.37137 0.09964 0.62837 -0.21600
O 	O 	0.39486 0.20776 0.45437 -0.73200
O 	O 	0.33220 0.20770 0.42267 -0.72100
Mn	Mn	0.37637 0.23825 0.52244 1.29700
C 	C 	0.44043 0.07667 0.68287 -0.40800
H 	H 	0.46323 0.08467 0.68557 0.10700
C 	C 	0.39263 0.03387 0.68917 -0.43500
H 	H 	0.37943 0.01117 0.70207 0.14400
C 	C 	0.42523 0.09807 0.66027 0.24900
H 	H 	0.43783 0.12117 0.65827 -0.06300
C 	C 	0.37673 0.05247 0.66557 0.39400
H 	H 	0.35363 0.04017 0.66147 -0.09500
Mn	Mn	0.49948 0.47055 0.98488 1.30700
Mn	Mn	0.56237 0.53391 0.92329 1.31800
Mn	Mn	0.57168 0.55136 0.69743 1.23000
Mn	Mn	0.50992 0.54755 0.79972 1.28300
Mn	Mn	0.50977 0.47898 0.76197 1.23700
N 	N 	0.62245 0.70773 0.02250 -0.20800
N 	N 	0.61835 0.41580 0.85950 -0.15300
O 	O 	0.56301 0.51170 0.80990 -0.66900
O 	O 	0.50743 0.50767 0.91120 -0.86400
O 	O 	0.55509 0.49910 0.00570 -0.63800
O 	O 	0.56697 0.58950 0.63390 -0.60600
O 	O 	0.52540 0.58874 0.71190 -0.57300
O 	O 	0.55540 0.55329 0.03430 -0.63200
O 	O 	0.56332 0.56636 0.83890 -0.64600
O 	O 	0.50879 0.56478 0.93350 -0.55800
O 	O 	0.61374 0.55857 0.93700 -0.52200
O 	O 	0.61967 0.55498 0.09300 -0.53400
O 	O 	0.40914 0.43762 0.73180 -0.52400
O 	O 	0.50781 0.45176 0.87660 -0.59200
O 	O 	0.51945 0.52198 0.69690 -0.70600
O 	O 	0.40808 0.50181 0.78400 -0.49100
C 	C 	0.59990 0.68630 0.08020 0.55100
H 	H 	0.59560 0.69390 0.13810 -0.14800
C 	C 	0.62890 0.69690 0.94460 0.43900
H 	H 	0.64520 0.71180 0.90240 -0.15600
C 	C 	0.44190 0.55040 0.69750 -1.39000
H 	H 	0.46460 0.56420 0.68670 0.42200
H 	H 	0.43330 0.56250 0.72710 0.43000
H 	H 	0.43120 0.54200 0.63840 0.42000
C 	C 	0.61790 0.42870 0.93820 0.13300
H 	H 	0.63000 0.42750 0.98780 -0.01900
C 	C 	0.60270 0.41980 0.78220 0.11100
H 	H 	0.60280 0.41140 0.72310 -0.01600
C 	C 	0.54740 0.62310 0.58320 -1.29700
H 	H 	0.56410 0.62920 0.53710 0.39700
H 	H 	0.55110 0.64170 0.61880 0.41400
H 	H 	0.52690 0.61410 0.55190 0.38300
C 	C 	0.60060 0.44410 0.95410 -0.23100
H 	H 	0.60000 0.45160 0.01420 0.10400
C 	C 	0.66630 0.58210 0.99680 -1.15700
H 	H 	0.67690 0.58490 0.05640 0.34700
H 	H 	0.67260 0.60280 0.96990 0.35900
H 	H 	0.67220 0.57020 0.95500 0.36500
C 	C 	0.58280 0.65420 0.06170 -0.60100
H 	H 	0.56690 0.64000 0.10610 0.21000
C 	C 	0.61150 0.66270 0.92060 -0.55000
H 	H 	0.61560 0.65460 0.86360 0.20700
C 	C 	0.58441 0.44850 0.88060 0.19000
C 	C 	0.58730 0.43650 0.79820 -0.22600
H 	H 	0.57780 0.44020 0.74620 0.08700
C 	C 	0.43680 0.52350 0.75950 0.78900
C 	C 	0.63040 0.56390 0.01150 0.68100
C 	C 	0.56526 0.46668 0.89000 -0.25200
C 	C 	0.43781 0.42471 0.61970 -1.42500
H 	H 	0.45950 0.42900 0.61230 0.39600
H 	H 	0.43210 0.43330 0.56680 0.43000
H 	H 	0.42350 0.40190 0.62320 0.42900
C 	C 	0.54727 0.59879 0.64720 0.74300
C 	C 	0.50295 0.51771 0.60680 0.11100
H 	H 	0.48010 0.50440 0.61580 -0.05400
H 	H 	0.51030 0.50760 0.56250 -0.08000
H 	H 	0.50770 0.53840 0.58290 -0.06100
C 	C 	0.57862 0.49310 0.81580 0.21300
H 	H 	0.60130 0.50750 0.82890 -0.04300
H 	H 	0.57710 0.48330 0.75470 -0.09300
C 	C 	0.58030 0.59952 0.87120 0.17900
H 	H 	0.57920 0.61310 0.82220 -0.04300
H 	H 	0.60280 0.60610 0.88070 -0.03900
C 	C 	0.58761 0.64163 0.98450 0.14700
C 	C 	0.57156 0.48168 0.99430 0.20200
H 	H 	0.56390 0.46450 0.04060 -0.04600
H 	H 	0.59450 0.49590 0.00400 -0.04800
C 	C 	0.43541 0.43978 0.70580 0.79700
C 	C 	0.53050 0.44080 0.87890 0.19400
H 	H 	0.52840 0.42910 0.82100 -0.06500
H 	H 	0.52490 0.42570 0.93070 -0.02700
C 	C 	0.53212 0.59744 0.95560 0.16200
H 	H 	0.52630 0.60290 0.01550 -0.02000
H 	H 	0.53080 0.61130 0.90800 -0.02300
C 	C 	0.57178 0.58764 0.04670 0.18100
H 	H 	0.59460 0.59560 0.05520 -0.04300
H 	H 	0.56380 0.59270 0.10330 -0.04700
C 	C 	0.56703 0.60507 0.96170 -0.21500
O 	O 	0.45891 0.52044 0.78770 -0.73200
O 	O 	0.45897 0.45784 0.75600 -0.72100
Mn	Mn	0.42842 0.47146 0.85577 1.29700
C 	C 	0.59000 0.69710 0.01620 -0.41400
H 	H 	0.58200 0.71190 0.01890 0.10900
C 	C 	0.63280 0.69210 0.02250 -0.44700
H 	H 	0.65550 0.70160 0.03540 0.14800
C 	C 	0.56860 0.66050 0.99360 0.25300
H 	H 	0.54550 0.65000 0.99160 -0.06500
C 	C 	0.61420 0.65760 0.99890 0.40700
H 	H 	0.62650 0.64680 0.99480 -0.09900
Mn	Mn	0.16615 0.80388 0.31821 1.30700
Mn	Mn	0.22904 0.86724 0.25662 1.31800
Mn	Mn	0.23835 0.88469 0.03076 1.23000
Mn	Mn	0.17659 0.88088 0.13305 1.28300
Mn	Mn	0.17644 0.81231 0.09530 1.23700
N 	N 	0.28912 0.04106 0.35583 -0.21000
N 	N 	0.28502 0.74913 0.19283 -0.15300
O 	O 	0.22968 0.84503 0.14323 -0.66900
O 	O 	0.17410 0.84100 0.24453 -0.86400
O 	O 	0.22176 0.83243 0.33903 -0.63700
O 	O 	0.23364 0.92283 0.96723 -0.60600
O 	O 	0.19207 0.92207 0.04523 -0.57200
O 	O 	0.22207 0.88662 0.36763 -0.63200
O 	O 	0.22999 0.89969 0.17223 -0.64600
O 	O 	0.17546 0.89811 0.26683 -0.55900
O 	O 	0.28041 0.89190 0.27033 -0.52300
O 	O 	0.28634 0.88831 0.42633 -0.53500
O 	O 	0.07581 0.77095 0.06513 -0.52400
O 	O 	0.17448 0.78509 0.20993 -0.59200
O 	O 	0.18612 0.85531 0.03023 -0.70500
O 	O 	0.07475 0.83514 0.11733 -0.49100
C 	C 	0.26657 0.01963 0.41353 0.54400
H 	H 	0.26227 0.02723 0.47143 -0.14500
C 	C 	0.29557 0.03023 0.27793 0.43000
H 	H 	0.31187 0.04513 0.23573 -0.15300
C 	C 	0.10857 0.88373 0.03083 -1.38900
H 	H 	0.13127 0.89753 0.02003 0.42200
H 	H 	0.09997 0.89583 0.06043 0.43000
H 	H 	0.09787 0.87533 0.97173 0.41900
C 	C 	0.28457 0.76203 0.27153 0.13500
H 	H 	0.29667 0.76083 0.32113 -0.01900
C 	C 	0.26937 0.75313 0.11553 0.11100
H 	H 	0.26947 0.74473 0.05643 -0.01600
C 	C 	0.21407 0.95643 0.91653 -1.29700
H 	H 	0.23077 0.96253 0.87043 0.39700
H 	H 	0.21777 0.97503 0.95213 0.41400
H 	H 	0.19357 0.94743 0.88523 0.38300
C 	C 	0.26727 0.77743 0.28743 -0.23400
H 	H 	0.26667 0.78493 0.34753 0.10600
C 	C 	0.33297 0.91543 0.33013 -1.16200
H 	H 	0.34357 0.91823 0.38973 0.34800
H 	H 	0.33927 0.93613 0.30323 0.36100
H 	H 	0.33887 0.90353 0.28833 0.36600
C 	C 	0.24947 0.98753 0.39503 -0.59600
H 	H 	0.23357 0.97333 0.43943 0.20800
C 	C 	0.27817 0.99603 0.25393 -0.54100
H 	H 	0.28227 0.98793 0.19693 0.20300
C 	C 	0.25108 0.78183 0.21393 0.19100
C 	C 	0.25397 0.76983 0.13153 -0.22700
H 	H 	0.24447 0.77353 0.07953 0.08700
C 	C 	0.10347 0.85683 0.09283 0.78800
C 	C 	0.29707 0.89723 0.34483 0.68300
C 	C 	0.23193 0.80001 0.22333 -0.25200
C 	C 	0.10448 0.75804 0.95303 -1.42700
H 	H 	0.12617 0.76233 0.94563 0.39600
H 	H 	0.09877 0.76663 0.90013 0.43000
H 	H 	0.09017 0.73523 0.95653 0.42900
C 	C 	0.21394 0.93212 0.98053 0.74200
C 	C 	0.16962 0.85104 0.94013 0.11000
H 	H 	0.14677 0.83773 0.94913 -0.05400
H 	H 	0.17697 0.84093 0.89583 -0.07900
H 	H 	0.17437 0.87173 0.91623 -0.06100
C 	C 	0.24529 0.82643 0.14913 0.21200
H 	H 	0.26797 0.84083 0.16223 -0.04300
H 	H 	0.24377 0.81663 0.08803 -0.09300
C 	C 	0.24697 0.93285 0.20453 0.18000
H 	H 	0.24587 0.94643 0.15553 -0.04300
H 	H 	0.26947 0.93943 0.21403 -0.03900
C 	C 	0.25428 0.97496 0.31783 0.15000
C 	C 	0.23823 0.81501 0.32763 0.19800
H 	H 	0.23057 0.79783 0.37393 -0.04500
H 	H 	0.26117 0.82923 0.33733 -0.04600
C 	C 	0.10208 0.77311 0.03913 0.79800
C 	C 	0.19717 0.77413 0.21223 0.19400
H 	H 	0.19507 0.76243 0.15433 -0.06500
H 	H 	0.19157 0.75903 0.26403 -0.02700
C 	C 	0.19879 0.93077 0.28893 0.16400
H 	H 	0.19297 0.93623 0.34883 -0.02100
H 	H 	0.19747 0.94463 0.24133 -0.02400
C 	C 	0.23845 0.92097 0.38003 0.18200
H 	H 	0.26127 0.92893 0.38853 -0.04400
H 	H 	0.23047 0.92603 0.43663 -0.04700
C 	C 	0.23370 0.93840 0.29503 -0.21600
O 	O 	0.12558 0.85377 0.12103 -0.73200
O 	O 	0.12564 0.79117 0.08933 -0.72200
Mn	Mn	0.09509 0.80479 0.18910 1.29700
C 	C 	0.25667 0.03043 0.34953 -0.40800
H 	H 	0.24867 0.04523 0.35223 0.10700
C 	C 	0.29947 0.02543 0.35583 -0.43500
H 	H 	0.32217 0.03493 0.36873 0.14400
C 	C 	0.23527 0.99383 0.32693 0.24900
H 	H 	0.21217 0.98333 0.32493 -0.06300
C 	C 	0.28087 0.99093 0.33223 0.39400
H 	H 	0.29317 0.98013 0.32813 -0.09500
Mn	Mn	0.83281 0.13722 0.65155 1.30700
Mn	Mn	0.89570 0.20058 0.58996 1.31800
Mn	Mn	0.90501 0.21803 0.36410 1.23000
Mn	Mn	0.84325 0.21422 0.46639 1.28300
Mn	Mn	0.84310 0.14565 0.42864 1.23700
N 	N 	0.95578 0.37440 0.68917 -0.21000
N 	N 	0.95168 0.08247 0.52617 -0.15300
O 	O 	0.89634 0.17837 0.47657 -0.66900
O 	O 	0.84076 0.17434 0.57787 -0.86400
O 	O 	0.88842 0.16577 0.67237 -0.63700
O 	O 	0.90030 0.25617 0.30057 -0.60600
O 	O 	0.85873 0.25541 0.37857 -0.57300
O 	O 	0.88873 0.21996 0.70097 -0.63200
O 	O 	0.89665 0.23303 0.50557 -0.64600
O 	O 	0.84212 0.23145 0.60017 -0.55900
O 	O 	0.94707 0.22524 0.60367 -0.52300
O 	O 	0.95300 0.22165 0.75967 -0.53500
O 	O 	0.74247 0.10429 0.39847 -0.52400
O 	O 	0.84114 0.11843 0.54327 -0.59200
O 	O 	0.85278 0.18865 0.36357 -0.70600
O 	O 	0.74141 0.16848 0.45067 -0.49100
C 	C 	0.93323 0.35297 0.74687 0.54400
H 	H 	0.92893 0.36057 0.80477 -0.14500
C 	C 	0.96223 0.36357 0.61127 0.43000
H 	H 	0.97853 0.37847 0.56907 -0.15300
C 	C 	0.77523 0.21707 0.36417 -1.39000
H 	H 	0.79793 0.23087 0.35337 0.42200
H 	H 	0.76663 0.22917 0.39377 0.43000
H 	H 	0.76453 0.20867 0.30507 0.41900
C 	C 	0.95123 0.09537 0.60487 0.13500
H 	H 	0.96333 0.09417 0.65447 -0.01900
C 	C 	0.93603 0.08647 0.44887 0.11100
H 	H 	0.93613 0.07807 0.38977 -0.01600
C 	C 	0.88073 0.28977 0.24987 -1.29700
H 	H 	0.89743 0.29587 0.20377 0.39700
H 	H 	0.88443 0.30837 0.28547 0.41400
H 	H 	0.86023 0.28077 0.21857 0.38300
C 	C 	0.93393 0.11077 0.62077 -0.23400
H 	H 	0.93333 0.11827 0.68087 0.10600
C 	C 	0.99963 0.24877 0.66347 -1.16300
H 	H 	0.01023 0.25157 0.72307 0.34900
H 	H 	0.00593 0.26947 0.63657 0.36100
H 	H 	0.00553 0.23687 0.62167 0.36600
C 	C 	0.91613 0.32087 0.72837 -0.59600
H 	H 	0.90023 0.30667 0.77277 0.20800
C 	C 	0.94483 0.32937 0.58727 -0.54100
H 	H 	0.94893 0.32127 0.53027 0.20300
C 	C 	0.91774 0.11517 0.54727 0.19100
C 	C 	0.92063 0.10317 0.46487 -0.22700
H 	H 	0.91113 0.10687 0.41287 0.08700
C 	C 	0.77013 0.19017 0.42617 0.78900
C 	C 	0.96373 0.23057 0.67817 0.68300
C 	C 	0.89859 0.13335 0.55667 -0.25200
C 	C 	0.77114 0.09138 0.28637 -1.42500
H 	H 	0.79283 0.09567 0.27897 0.39600
H 	H 	0.76543 0.09997 0.23347 0.43000
H 	H 	0.75683 0.06857 0.28987 0.42900
C 	C 	0.88060 0.26546 0.31387 0.74300
C 	C 	0.83628 0.18438 0.27347 0.11100
H 	H 	0.81343 0.17107 0.28247 -0.05400
H 	H 	0.84363 0.17427 0.22917 -0.08000
H 	H 	0.84103 0.20507 0.24957 -0.06200
C 	C 	0.91195 0.15977 0.48247 0.21300
H 	H 	0.93463 0.17417 0.49557 -0.04300
H 	H 	0.91043 0.14997 0.42137 -0.09300
C 	C 	0.91363 0.26619 0.53787 0.18000
H 	H 	0.91253 0.27977 0.48887 -0.04300
H 	H 	0.93613 0.27277 0.54737 -0.03900
C 	C 	0.92094 0.30830 0.65117 0.15000
C 	C 	0.90489 0.14835 0.66097 0.19800
H 	H 	0.89723 0.13117 0.70727 -0.04500
H 	H 	0.92783 0.16257 0.67067 -0.04600
C 	C 	0.76874 0.10645 0.37247 0.79700
C 	C 	0.86383 0.10747 0.54557 0.19400
H 	H 	0.86173 0.09577 0.48767 -0.06500
H 	H 	0.85823 0.09237 0.59737 -0.02700
C 	C 	0.86545 0.26411 0.62227 0.16400
H 	H 	0.85963 0.26957 0.68217 -0.02100
H 	H 	0.86413 0.27797 0.57467 -0.02400
C 	C 	0.90511 0.25431 0.71337 0.18200
H 	H 	0.92793 0.26227 0.72187 -0.04400
H 	H 	0.89713 0.25937 0.76997 -0.04700
C 	C 	0.90036 0.27174 0.62837 -0.21600
O 	O 	0.79224 0.18711 0.45437 -0.73200
O 	O 	0.79230 0.12451 0.42267 -0.72100
Mn	Mn	0.76175 0.13813 0.52244 1.29700
C 	C 	0.92333 0.36377 0.68287 -0.40900
H 	H 	0.91533 0.37857 0.68557 0.10700
C 	C 	0.96613 0.35877 0.68917 -0.43500
H 	H 	0.98883 0.36827 0.70207 0.14400
C 	C 	0.90193 0.32717 0.66027 0.24900
H 	H 	0.87883 0.31667 0.65827 -0.06300
C 	C 	0.94753 0.32427 0.66557 0.39500
H 	H 	0.95983 0.31347 0.66147 -0.09500
Mn	Mn	0.47055 0.97107 0.01512 1.30700
Mn	Mn	0.53391 0.97154 0.07671 1.31800
Mn	Mn	0.55136 0.97968 0.30257 1.23000
Mn	Mn	0.54755 0.03763 0.20028 1.28300
Mn	Mn	0.47898 0.96921 0.23803 1.23700
N 	N 	0.70773 0.08528 0.97750 -0.20800
N 	N 	0.41580 0.79745 0.14050 -0.15300
O 	O 	0.51170 0.94869 0.19010 -0.66900
O 	O 	0.50767 0.00024 0.08880 -0.86400
O 	O 	0.49910 0.94401 0.99430 -0.63800
O 	O 	0.58950 0.02253 0.36610 -0.60600
O 	O 	0.58874 0.06334 0.28810 -0.57300
O 	O 	0.55329 0.99789 0.96570 -0.63200
O 	O 	0.56636 0.00304 0.16110 -0.64600
O 	O 	0.56478 0.05599 0.06650 -0.55800
O 	O 	0.55857 0.94483 0.06300 -0.52200
O 	O 	0.55498 0.93531 0.90700 -0.53400
O 	O 	0.43762 0.02848 0.26820 -0.52400
O 	O 	0.45176 0.94395 0.12340 -0.59200
O 	O 	0.52198 0.00253 0.30310 -0.70600
O 	O 	0.50181 0.09373 0.21600 -0.49100
C 	C 	0.68630 0.08640 0.91980 0.55000
H 	H 	0.69390 0.09830 0.86190 -0.14700
C 	C 	0.69690 0.06800 0.05540 0.43800
H 	H 	0.71180 0.06660 0.09760 -0.15600
C 	C 	0.55040 0.10850 0.30250 -1.39000
H 	H 	0.56420 0.09960 0.31330 0.42200
H 	H 	0.56250 0.12920 0.27290 0.43000
H 	H 	0.54200 0.11080 0.36160 0.42000
C 	C 	0.42870 0.81080 0.06180 0.13300
H 	H 	0.42750 0.79750 0.01220 -0.01900
C 	C 	0.41980 0.81710 0.21780 0.11100
H 	H 	0.41140 0.80860 0.27690 -0.01600
C 	C 	0.62310 0.07570 0.41680 -1.29700
H 	H 	0.62920 0.06510 0.46290 0.39700
H 	H 	0.64170 0.09060 0.38120 0.41400
H 	H 	0.61410 0.08720 0.44810 0.38300
C 	C 	0.44410 0.84350 0.04590 -0.23100
H 	H 	0.45160 0.85160 0.98580 0.10400
C 	C 	0.58210 0.91580 0.00320 -1.15700
H 	H 	0.58490 0.90800 0.94360 0.34700
H 	H 	0.60280 0.93020 0.03010 0.35900
H 	H 	0.57020 0.89800 0.04500 0.36500
C 	C 	0.65420 0.07140 0.93830 -0.60100
H 	H 	0.64000 0.07310 0.89390 0.21000
C 	C 	0.66270 0.05120 0.07940 -0.55000
H 	H 	0.65460 0.03900 0.13640 0.20600
C 	C 	0.44850 0.86409 0.11940 0.19000
C 	C 	0.43650 0.84920 0.20180 -0.22600
H 	H 	0.44020 0.86240 0.25380 0.08700
C 	C 	0.52350 0.08670 0.24050 0.78900
C 	C 	0.56390 0.93350 0.98850 0.68100
C 	C 	0.46668 0.90142 0.11000 -0.25200
C 	C 	0.42471 0.98690 0.38030 -1.42500
H 	H 	0.42900 0.96950 0.38770 0.39600
H 	H 	0.43330 0.00120 0.43320 0.43000
H 	H 	0.40190 0.97840 0.37680 0.42900
C 	C 	0.59879 0.05152 0.35280 0.74300
C 	C 	0.51771 0.01476 0.39320 0.11100
H 	H 	0.50440 0.02430 0.38420 -0.05400
H 	H 	0.50760 0.99730 0.43750 -0.08000
H 	H 	0.53840 0.03070 0.41710 -0.06200
C 	C 	0.49310 0.91448 0.18420 0.21300
H 	H 	0.50750 0.90620 0.17110 -0.04300
H 	H 	0.48330 0.90620 0.24530 -0.09300
C 	C 	0.59952 0.01922 0.12880 0.17900
H 	H 	0.61310 0.03390 0.17780 -0.04300
H 	H 	0.60610 0.00330 0.11930 -0.03900
C 	C 	0.64163 0.05402 0.01550 0.14700
C 	C 	0.48168 0.91012 0.00570 0.20200
H 	H 	0.46450 0.90060 0.95940 -0.04600
H 	H 	0.49590 0.90140 0.99600 -0.04800
C 	C 	0.43978 0.00437 0.29420 0.79700
C 	C 	0.44080 0.91030 0.12110 0.19400
H 	H 	0.42910 0.90070 0.17900 -0.06500
H 	H 	0.42570 0.90080 0.06930 -0.02700
C 	C 	0.59744 0.06532 0.04440 0.16200
H 	H 	0.60290 0.07660 0.98450 -0.02000
H 	H 	0.61130 0.08050 0.09200 -0.02300
C 	C 	0.58764 0.01586 0.95330 0.18100
H 	H 	0.59560 0.00100 0.94480 -0.04400
H 	H 	0.59270 0.02890 0.89670 -0.04700
C 	C 	0.60507 0.03804 0.03830 -0.21500
O 	O 	0.52044 0.06153 0.21230 -0.73200
O 	O 	0.45784 0.99887 0.24400 -0.72100
Mn	Mn	0.47146 0.04304 0.14423 1.29700
C 	C 	0.69710 0.10710 0.98380 -0.41300
H 	H 	0.71190 0.12990 0.98110 0.10900
C 	C 	0.69210 0.05930 0.97750 -0.44700
H 	H 	0.70160 0.04610 0.96460 0.14800
C 	C 	0.66050 0.09190 0.00640 0.25300
H 	H 	0.65000 0.10450 0.00840 -0.06500
C 	C 	0.65760 0.04340 0.00110 0.40600
H 	H 	0.64680 0.02030 0.00520 -0.09900
Mn	Mn	0.13722 0.30440 0.34845 1.30700
Mn	Mn	0.20058 0.30487 0.41004 1.31800
Mn	Mn	0.21803 0.31301 0.63590 1.23000
Mn	Mn	0.21422 0.37096 0.53361 1.28300
Mn	Mn	0.14565 0.30254 0.57136 1.23700
N 	N 	0.37440 0.41861 0.31083 -0.21000
N 	N 	0.08247 0.13078 0.47383 -0.15300
O 	O 	0.17837 0.28202 0.52343 -0.66900
O 	O 	0.17434 0.33357 0.42213 -0.86400
O 	O 	0.16577 0.27734 0.32763 -0.63700
O 	O 	0.25617 0.35586 0.69943 -0.60600
O 	O 	0.25541 0.39667 0.62143 -0.57300
O 	O 	0.21996 0.33122 0.29903 -0.63200
O 	O 	0.23303 0.33637 0.49443 -0.64600
O 	O 	0.23145 0.38932 0.39983 -0.55900
O 	O 	0.22524 0.27816 0.39633 -0.52300
O 	O 	0.22165 0.26864 0.24033 -0.53500
O 	O 	0.10429 0.36181 0.60153 -0.52400
O 	O 	0.11843 0.27728 0.45673 -0.59200
O 	O 	0.18865 0.33586 0.63643 -0.70600
O 	O 	0.16848 0.42706 0.54933 -0.49100
C 	C 	0.35297 0.41973 0.25313 0.54400
H 	H 	0.36057 0.43163 0.19523 -0.14500
C 	C 	0.36357 0.40133 0.38873 0.43000
H 	H 	0.37847 0.39993 0.43093 -0.15300
C 	C 	0.21707 0.44183 0.63583 -1.39000
H 	H 	0.23087 0.43293 0.64663 0.42200
H 	H 	0.22917 0.46253 0.60623 0.43000
H 	H 	0.20867 0.44413 0.69493 0.41900
C 	C 	0.09537 0.14413 0.39513 0.13500
H 	H 	0.09417 0.13083 0.34553 -0.01900
C 	C 	0.08647 0.15043 0.55113 0.11100
H 	H 	0.07807 0.14193 0.61023 -0.01600
C 	C 	0.28977 0.40903 0.75013 -1.29700
H 	H 	0.29587 0.39843 0.79623 0.39700
H 	H 	0.30837 0.42393 0.71453 0.41400
H 	H 	0.28077 0.42053 0.78143 0.38300
C 	C 	0.11077 0.17683 0.37923 -0.23400
H 	H 	0.11827 0.18493 0.31913 0.10600
C 	C 	0.24877 0.24913 0.33653 -1.16200
H 	H 	0.25157 0.24133 0.27693 0.34800
H 	H 	0.26947 0.26353 0.36343 0.36100
H 	H 	0.23687 0.23133 0.37833 0.36600
C 	C 	0.32087 0.40473 0.27163 -0.59600
H 	H 	0.30667 0.40643 0.22723 0.20800
C 	C 	0.32937 0.38453 0.41273 -0.54100
H 	H 	0.32127 0.37233 0.46973 0.20300
C 	C 	0.11517 0.19742 0.45273 0.19100
C 	C 	0.10317 0.18253 0.53513 -0.22700
H 	H 	0.10687 0.19573 0.58713 0.08700
C 	C 	0.19017 0.42003 0.57383 0.78900
C 	C 	0.23057 0.26683 0.32183 0.68300
C 	C 	0.13335 0.23475 0.44333 -0.25200
C 	C 	0.09138 0.32023 0.71363 -1.42500
H 	H 	0.09567 0.30283 0.72103 0.39600
H 	H 	0.09997 0.33453 0.76653 0.43000
H 	H 	0.06857 0.31173 0.71013 0.42900
C 	C 	0.26546 0.38485 0.68613 0.74300
C 	C 	0.18438 0.34809 0.72653 0.11100
H 	H 	0.17107 0.35763 0.71753 -0.05400
H 	H 	0.17427 0.33063 0.77083 -0.08000
H 	H 	0.20507 0.36403 0.75043 -0.06200
C 	C 	0.15977 0.24781 0.51753 0.21300
H 	H 	0.17417 0.23953 0.50443 -0.04300
H 	H 	0.14997 0.23953 0.57863 -0.09300
C 	C 	0.26619 0.35255 0.46213 0.18000
H 	H 	0.27977 0.36723 0.51113 -0.04300
H 	H 	0.27277 0.33663 0.45263 -0.03900
C 	C 	0.30830 0.38735 0.34883 0.15000
C 	C 	0.14835 0.24345 0.33903 0.19800
H 	H 	0.13117 0.23393 0.29273 -0.04500
H 	H 	0.16257 0.23473 0.32933 -0.04600
C 	C 	0.10645 0.33770 0.62753 0.79700
C 	C 	0.10747 0.24363 0.45443 0.19400
H 	H 	0.09577 0.23403 0.51233 -0.06500
H 	H 	0.09237 0.23413 0.40263 -0.02700
C 	C 	0.26411 0.39865 0.37773 0.16400
H 	H 	0.26957 0.40993 0.31783 -0.02100
H 	H 	0.27797 0.41383 0.42533 -0.02400
C 	C 	0.25431 0.34919 0.28663 0.18200
H 	H 	0.26227 0.33433 0.27813 -0.04400
H 	H 	0.25937 0.36223 0.23003 -0.04700
C 	C 	0.27174 0.37137 0.37163 -0.21600
O 	O 	0.18711 0.39486 0.54563 -0.73200
O 	O 	0.12451 0.33220 0.57733 -0.72100
Mn	Mn	0.13813 0.37637 0.47756 1.29700
C 	C 	0.36377 0.44043 0.31713 -0.40900
H 	H 	0.37857 0.46323 0.31443 0.10700
C 	C 	0.35877 0.39263 0.31083 -0.43500
H 	H 	0.36827 0.37943 0.29793 0.14400
C 	C 	0.32717 0.42523 0.33973 0.24900
H 	H 	0.31667 0.43783 0.34173 -0.06300
C 	C 	0.32427 0.37673 0.33443 0.39500
H 	H 	0.31347 0.35363 0.33853 -0.09500
Mn	Mn	0.80388 0.63774 0.68179 1.30700
Mn	Mn	0.86724 0.63821 0.74338 1.31800
Mn	Mn	0.88469 0.64635 0.96924 1.23000
Mn	Mn	0.88088 0.70430 0.86695 1.28300
Mn	Mn	0.81231 0.63588 0.90470 1.23700
N 	N 	0.04106 0.75195 0.64417 -0.21000
N 	N 	0.74913 0.46412 0.80717 -0.15300
O 	O 	0.84503 0.61536 0.85677 -0.66900
O 	O 	0.84100 0.66691 0.75547 -0.86400
O 	O 	0.83243 0.61068 0.66097 -0.63700
O 	O 	0.92283 0.68920 0.03277 -0.60600
O 	O 	0.92207 0.73001 0.95477 -0.57200
O 	O 	0.88662 0.66456 0.63237 -0.63200
O 	O 	0.89969 0.66971 0.82777 -0.64600
O 	O 	0.89811 0.72266 0.73317 -0.55900
O 	O 	0.89190 0.61150 0.72967 -0.52300
O 	O 	0.88831 0.60198 0.57367 -0.53500
O 	O 	0.77095 0.69515 0.93487 -0.52400
O 	O 	0.78509 0.61062 0.79007 -0.59200
O 	O 	0.85531 0.66920 0.96977 -0.70500
O 	O 	0.83514 0.76040 0.88267 -0.49100
C 	C 	0.01963 0.75307 0.58647 0.54400
H 	H 	0.02723 0.76497 0.52857 -0.14500
C 	C 	0.03023 0.73467 0.72207 0.43000
H 	H 	0.04513 0.73327 0.76427 -0.15300
C 	C 	0.88373 0.77517 0.96917 -1.38900
H 	H 	0.89753 0.76627 0.97997 0.42200
H 	H 	0.89583 0.79587 0.93957 0.43000
H 	H 	0.87533 0.77747 0.02827 0.41900
C 	C 	0.76203 0.47747 0.72847 0.13500
H 	H 	0.76083 0.46417 0.67887 -0.01900
C 	C 	0.75313 0.48377 0.88447 0.11100
H 	H 	0.74473 0.47527 0.94357 -0.01600
C 	C 	0.95643 0.74237 0.08347 -1.29700
H 	H 	0.96253 0.73177 0.12957 0.39700
H 	H 	0.97503 0.75727 0.04787 0.41400
H 	H 	0.94743 0.75387 0.11477 0.38300
C 	C 	0.77743 0.51017 0.71257 -0.23400
H 	H 	0.78493 0.51827 0.65247 0.10600
C 	C 	0.91543 0.58247 0.66987 -1.16200
H 	H 	0.91823 0.57467 0.61027 0.34800
H 	H 	0.93613 0.59687 0.69677 0.36100
H 	H 	0.90353 0.56467 0.71167 0.36600
C 	C 	0.98753 0.73807 0.60497 -0.59600
H 	H 	0.97333 0.73977 0.56057 0.20800
C 	C 	0.99603 0.71787 0.74607 -0.54100
H 	H 	0.98793 0.70567 0.80307 0.20300
C 	C 	0.78183 0.53076 0.78607 0.19100
C 	C 	0.76983 0.51587 0.86847 -0.22700
H 	H 	0.77353 0.52907 0.92047 0.08700
C 	C 	0.85683 0.75337 0.90717 0.78800
C 	C 	0.89723 0.60017 0.65517 0.68300
C 	C 	0.80001 0.56809 0.77667 -0.25200
C 	C 	0.75804 0.65357 0.04697 -1.42700
H 	H 	0.76233 0.63617 0.05437 0.39600
H 	H 	0.76663 0.66787 0.09987 0.43000
H 	H 	0.73523 0.64507 0.04347 0.42900
C 	C 	0.93212 0.71819 0.01947 0.74200
C 	C 	0.85104 0.68143 0.05987 0.11000
H 	H 	0.83773 0.69097 0.05087 -0.05400
H 	H 	0.84093 0.66397 0.10417 -0.07900
H 	H 	0.87173 0.69737 0.08377 -0.06100
C 	C 	0.82643 0.58115 0.85087 0.21200
H 	H 	0.84083 0.57287 0.83777 -0.04300
H 	H 	0.81663 0.57287 0.91197 -0.09300
C 	C 	0.93285 0.68589 0.79547 0.18000
H 	H 	0.94643 0.70057 0.84447 -0.04300
H 	H 	0.93943 0.66997 0.78597 -0.03900
C 	C 	0.97496 0.72069 0.68217 0.15000
C 	C 	0.81501 0.57679 0.67237 0.19800
H 	H 	0.79783 0.56727 0.62607 -0.04500
H 	H 	0.82923 0.56807 0.66267 -0.04600
C 	C 	0.77311 0.67104 0.96087 0.79800
C 	C 	0.77413 0.57697 0.78777 0.19400
H 	H 	0.76243 0.56737 0.84567 -0.06500
H 	H 	0.75903 0.56747 0.73597 -0.02700
C 	C 	0.93077 0.73199 0.71107 0.16400
H 	H 	0.93623 0.74327 0.65117 -0.02100
H 	H 	0.94463 0.74717 0.75867 -0.02400
C 	C 	0.92097 0.68253 0.61997 0.18200
H 	H 	0.92893 0.66767 0.61147 -0.04400
H 	H 	0.92603 0.69557 0.56337 -0.04700
C 	C 	0.93840 0.70471 0.70497 -0.21600
O 	O 	0.85377 0.72820 0.87897 -0.73200
O 	O 	0.79117 0.66554 0.91067 -0.72200
Mn	Mn	0.80479 0.70971 0.81090 1.29700
C 	C 	0.03043 0.77377 0.65047 -0.40800
H 	H 	0.04523 0.79657 0.64777 0.10700
C 	C 	0.02543 0.72597 0.64417 -0.43500
H 	H 	0.03493 0.71277 0.63127 0.14400
C 	C 	0.99383 0.75857 0.67307 0.24900
H 	H 	0.98333 0.77117 0.67507 -0.06300
C 	C 	0.99093 0.71007 0.66777 0.39400
H 	H 	0.98013 0.68697 0.67187 -0.09500
Mn	Mn	0.02893 0.49948 0.01512 1.30700
Mn	Mn	0.02846 0.56237 0.07671 1.31800
Mn	Mn	0.02032 0.57168 0.30257 1.23000
Mn	Mn	0.96237 0.50992 0.20028 1.28300
Mn	Mn	0.03079 0.50977 0.23803 1.23700
N 	N 	0.91472 0.62245 0.97750 -0.20800
N 	N 	0.20255 0.61835 0.14050 -0.15300
O 	O 	0.05131 0.56301 0.19010 -0.66900
O 	O 	0.99976 0.50743 0.08880 -0.86400
O 	O 	0.05599 0.55509 0.99430 -0.63800
O 	O 	0.97747 0.56697 0.36610 -0.60600
O 	O 	0.93666 0.52540 0.28810 -0.57300
O 	O 	0.00211 0.55540 0.96570 -0.63200
O 	O 	0.99696 0.56332 0.16110 -0.64600
O 	O 	0.94401 0.50879 0.06650 -0.55800
O 	O 	0.05517 0.61374 0.06300 -0.52200
O 	O 	0.06469 0.61967 0.90700 -0.53400
O 	O 	0.97152 0.40914 0.26820 -0.52400
O 	O 	0.05605 0.50781 0.12340 -0.59200
O 	O 	0.99747 0.51945 0.30310 -0.70600
O 	O 	0.90627 0.40808 0.21600 -0.49100
C 	C 	0.91360 0.59990 0.91980 0.55000
H 	H 	0.90170 0.59560 0.86190 -0.14700
C 	C 	0.93200 0.62890 0.05540 0.43800
H 	H 	0.93340 0.64520 0.09760 -0.15600
C 	C 	0.89150 0.44190 0.30250 -1.39000
H 	H 	0.90040 0.46460 0.31330 0.42200
H 	H 	0.87080 0.43330 0.27290 0.43000
H 	H 	0.88920 0.43120 0.36160 0.42000
C 	C 	0.18920 0.61790 0.06180 0.13300
H 	H 	0.20250 0.63000 0.01220 -0.01900
C 	C 	0.18290 0.60270 0.21780 0.11100
H 	H 	0.19140 0.60280 0.27690 -0.01600
C 	C 	0.92430 0.54740 0.41680 -1.29700
H 	H 	0.93490 0.56410 0.46290 0.39700
H 	H 	0.90940 0.55110 0.38120 0.41400
H 	H 	0.91280 0.52690 0.44810 0.38300
C 	C 	0.15650 0.60060 0.04590 -0.23100
H 	H 	0.14840 0.60000 0.98580 0.10400
C 	C 	0.08420 0.66630 0.00320 -1.15700
H 	H 	0.09200 0.67690 0.94360 0.34700
H 	H 	0.06980 0.67260 0.03010 0.35900
H 	H 	0.10200 0.67220 0.04500 0.36500
C 	C 	0.92860 0.58280 0.93830 -0.60100
H 	H 	0.92690 0.56690 0.89390 0.21000
C 	C 	0.94880 0.61150 0.07940 -0.55000
H 	H 	0.96100 0.61560 0.13640 0.20600
C 	C 	0.13591 0.58441 0.11940 0.19000
C 	C 	0.15080 0.58730 0.20180 -0.22600
H 	H 	0.13760 0.57780 0.25380 0.08700
C 	C 	0.91330 0.43680 0.24050 0.78900
C 	C 	0.06650 0.63040 0.98850 0.68100
C 	C 	0.09858 0.56526 0.11000 -0.25200
C 	C 	0.01310 0.43781 0.38030 -1.42500
H 	H 	0.03050 0.45950 0.38770 0.39600
H 	H 	0.99880 0.43210 0.43320 0.43000
H 	H 	0.02160 0.42350 0.37680 0.42900
C 	C 	0.94848 0.54727 0.35280 0.74300
C 	C 	0.98524 0.50295 0.39320 0.11100
H 	H 	0.97570 0.48010 0.38420 -0.05400
H 	H 	0.00270 0.51030 0.43750 -0.08000
H 	H 	0.96930 0.50770 0.41710 -0.06100
C 	C 	0.08552 0.57862 0.18420 0.21300
H 	H 	0.09380 0.60130 0.17110 -0.04300
H 	H 	0.09380 0.57710 0.24530 -0.09300
C 	C 	0.98078 0.58030 0.12880 0.17900
H 	H 	0.96610 0.57920 0.17780 -0.04300
H 	H 	0.99670 0.60280 0.11930 -0.03900
C 	C 	0.94598 0.58761 0.01550 0.14700
C 	C 	0.08988 0.57156 0.00570 0.20200
H 	H 	0.09940 0.56390 0.95940 -0.04600
H 	H 	0.09860 0.59450 0.99600 -0.04800
C 	C 	0.99563 0.43541 0.29420 0.79700
C 	C 	0.08970 0.53050 0.12110 0.19400
H 	H 	0.09930 0.52840 0.17900 -0.06500
H 	H 	0.09920 0.52490 0.06930 -0.02700
C 	C 	0.93468 0.53212 0.04440 0.16200
H 	H 	0.92340 0.52630 0.98450 -0.02000
H 	H 	0.91950 0.53080 0.09200 -0.02300
C 	C 	0.98414 0.57178 0.95330 0.18100
H 	H 	0.99900 0.59460 0.94480 -0.04300
H 	H 	0.97110 0.56380 0.89670 -0.04700
C 	C 	0.96196 0.56703 0.03830 -0.21500
O 	O 	0.93847 0.45891 0.21230 -0.73200
O 	O 	0.00113 0.45897 0.24400 -0.72100
Mn	Mn	0.95696 0.42842 0.14423 1.29700
C 	C 	0.89290 0.59000 0.98380 -0.41300
H 	H 	0.87010 0.58200 0.98110 0.10900
C 	C 	0.94070 0.63280 0.97750 -0.44700
H 	H 	0.95390 0.65550 0.96460 0.14800
C 	C 	0.90810 0.56860 0.00640 0.25300
H 	H 	0.89550 0.54550 0.00840 -0.06500
C 	C 	0.95660 0.61420 0.00110 0.40600
H 	H 	0.97970 0.62650 0.00520 -0.09900
Mn	Mn	0.69560 0.83281 0.34845 1.30700
Mn	Mn	0.69513 0.89570 0.41004 1.31800
Mn	Mn	0.68699 0.90501 0.63590 1.23000
Mn	Mn	0.62904 0.84325 0.53361 1.28300
Mn	Mn	0.69746 0.84310 0.57136 1.23700
N 	N 	0.58139 0.95578 0.31083 -0.21000
N 	N 	0.86922 0.95168 0.47383 -0.15300
O 	O 	0.71798 0.89634 0.52343 -0.66900
O 	O 	0.66643 0.84076 0.42213 -0.86400
O 	O 	0.72266 0.88842 0.32763 -0.63700
O 	O 	0.64414 0.90030 0.69943 -0.60600
O 	O 	0.60333 0.85873 0.62143 -0.57300
O 	O 	0.66878 0.88873 0.29903 -0.63200
O 	O 	0.66363 0.89665 0.49443 -0.64600
O 	O 	0.61068 0.84212 0.39983 -0.55900
O 	O 	0.72184 0.94707 0.39633 -0.52300
O 	O 	0.73136 0.95300 0.24033 -0.53500
O 	O 	0.63819 0.74247 0.60153 -0.52400
O 	O 	0.72272 0.84114 0.45673 -0.59200
O 	O 	0.66414 0.85278 0.63643 -0.70600
O 	O 	0.57294 0.74141 0.54933 -0.49100
C 	C 	0.58027 0.93323 0.25313 0.54400
H 	H 	0.56837 0.92893 0.19523 -0.14500
C 	C 	0.59867 0.96223 0.38873 0.43000
H 	H 	0.60007 0.97853 0.43093 -0.15300
C 	C 	0.55817 0.77523 0.63583 -1.39000
H 	H 	0.56707 0.79793 0.64663 0.42200
H 	H 	0.53747 0.76663 0.60623 0.43000
H 	H 	0.55587 0.76453 0.69493 0.41900
C 	C 	0.85587 0.95123 0.39513 0.13500
H 	H 	0.86917 0.96333 0.34553 -0.01900
C 	C 	0.84957 0.93603 0.55113 0.11100
H 	H 	0.85807 0.93613 0.61023 -0.01600
C 	C 	0.59097 0.88073 0.75013 -1.29700
H 	H 	0.60157 0.89743 0.79623 0.39700
H 	H 	0.57607 0.88443 0.71453 0.41400
H 	H 	0.57947 0.86023 0.78143 0.38300
C 	C 	0.82317 0.93393 0.37923 -0.23400
H 	H 	0.81507 0.93333 0.31913 0.10600
C 	C 	0.75087 0.99963 0.33653 -1.16200
H 	H 	0.75867 0.01023 0.27693 0.34800
H 	H 	0.73647 0.00593 0.36343 0.36100
H 	H 	0.76867 0.00553 0.37833 0.36600
C 	C 	0.59527 0.91613 0.27163 -0.59600
H 	H 	0.59357 0.90023 0.22723 0.20800
C 	C 	0.61547 0.94483 0.41273 -0.54100
H 	H 	0.62767 0.94893 0.46973 0.20300
C 	C 	0.80258 0.91774 0.45273 0.19100
C 	C 	0.81747 0.92063 0.53513 -0.22700
H 	H 	0.80427 0.91113 0.58713 0.08700
C 	C 	0.57997 0.77013 0.57383 0.78900
C 	C 	0.73317 0.96373 0.32183 0.68300
C 	C 	0.76525 0.89859 0.44333 -0.25200
C 	C 	0.67977 0.77114 0.71363 -1.42500
H 	H 	0.69717 0.79283 0.72103 0.39600
H 	H 	0.66547 0.76543 0.76653 0.43000
H 	H 	0.68827 0.75683 0.71013 0.42900
C 	C 	0.61515 0.88060 0.68613 0.74300
C 	C 	0.65191 0.83628 0.72653 0.11100
H 	H 	0.64237 0.81343 0.71753 -0.05400
H 	H 	0.66937 0.84363 0.77083 -0.08000
H 	H 	0.63597 0.84103 0.75043 -0.06200
C 	C 	0.75219 0.91195 0.51753 0.21300
H 	H 	0.76047 0.93463 0.50443 -0.04300
H 	H 	0.76047 0.91043 0.57863 -0.09300
C 	C 	0.64745 0.91363 0.46213 0.18000
H 	H 	0.63277 0.91253 0.51113 -0.04300
H 	H 	0.66337 0.93613 0.45263 -0.03900
C 	C 	0.61265 0.92094 0.34883 0.15000
C 	C 	0.75655 0.90489 0.33903 0.19800
H 	H 	0.76607 0.89723 0.29273 -0.04500
H 	H 	0.76527 0.92783 0.32933 -0.04600
C 	C 	0.66230 0.76874 0.62753 0.79700
C 	C 	0.75637 0.86383 0.45443 0.19400
H 	H 	0.76597 0.86173 0.51233 -0.06500
H 	H 	0.76587 0.85823 0.40263 -0.02700
C 	C 	0.60135 0.86545 0.37773 0.16400
H 	H 	0.59007 0.85963 0.31783 -0.02100
H 	H 	0.58617 0.86413 0.42533 -0.02400
C 	C 	0.65081 0.90511 0.28663 0.18200
H 	H 	0.66567 0.92793 0.27813 -0.04400
H 	H 	0.63777 0.89713 0.23003 -0.04700
C 	C 	0.62863 0.90036 0.37163 -0.21600
O 	O 	0.60514 0.79224 0.54563 -0.73200
O 	O 	0.66780 0.79230 0.57733 -0.72100
Mn	Mn	0.62363 0.76175 0.47756 1.29700
C 	C 	0.55957 0.92333 0.31713 -0.40800
H 	H 	0.53677 0.91533 0.31443 0.10700
C 	C 	0.60737 0.96613 0.31083 -0.43500
H 	H 	0.62057 0.98883 0.29793 0.14400
C 	C 	0.57477 0.90193 0.33973 0.24900
H 	H 	0.56217 0.87883 0.34173 -0.06300
C 	C 	0.62327 0.94753 0.33443 0.39400
H 	H 	0.64637 0.95983 0.33853 -0.09500
Mn	Mn	0.36226 0.16615 0.68179 1.30700
Mn	Mn	0.36179 0.22904 0.74338 1.31800
Mn	Mn	0.35365 0.23835 0.96924 1.23000
Mn	Mn	0.29570 0.17659 0.86695 1.28300
Mn	Mn	0.36412 0.17644 0.90470 1.23700
N 	N 	0.24805 0.28912 0.64417 -0.21000
N 	N 	0.53588 0.28502 0.80717 -0.15300
O 	O 	0.38464 0.22968 0.85677 -0.66900
O 	O 	0.33309 0.17410 0.75547 -0.86400
O 	O 	0.38932 0.22176 0.66097 -0.63700
O 	O 	0.31080 0.23364 0.03277 -0.60600
O 	O 	0.26999 0.19207 0.95477 -0.57200
O 	O 	0.33544 0.22207 0.63237 -0.63200
O 	O 	0.33029 0.22999 0.82777 -0.64600
O 	O 	0.27734 0.17546 0.73317 -0.55900
O 	O 	0.38850 0.28041 0.72967 -0.52300
O 	O 	0.39802 0.28634 0.57367 -0.53500
O 	O 	0.30485 0.07581 0.93487 -0.52400
O 	O 	0.38938 0.17448 0.79007 -0.59200
O 	O 	0.33080 0.18612 0.96977 -0.70500
O 	O 	0.23960 0.07475 0.88267 -0.49100
C 	C 	0.24693 0.26657 0.58647 0.54400
H 	H 	0.23503 0.26227 0.52857 -0.14600
C 	C 	0.26533 0.29557 0.72207 0.43000
H 	H 	0.26673 0.31187 0.76427 -0.15300
C 	C 	0.22483 0.10857 0.96917 -1.38900
H 	H 	0.23373 0.13127 0.97997 0.42200
H 	H 	0.20413 0.09997 0.93957 0.43000
H 	H 	0.22253 0.09787 0.02827 0.41900
C 	C 	0.52253 0.28457 0.72847 0.13500
H 	H 	0.53583 0.29667 0.67887 -0.01900
C 	C 	0.51623 0.26937 0.88447 0.11100
H 	H 	0.52473 0.26947 0.94357 -0.01600
C 	C 	0.25763 0.21407 0.08347 -1.29700
H 	H 	0.26823 0.23077 0.12957 0.39700
H 	H 	0.24273 0.21777 0.04787 0.41400
H 	H 	0.24613 0.19357 0.11477 0.38300
C 	C 	0.48983 0.26727 0.71257 -0.23400
H 	H 	0.48173 0.26667 0.65247 0.10600
C 	C 	0.41753 0.33297 0.66987 -1.16200
H 	H 	0.42533 0.34357 0.61027 0.34800
H 	H 	0.40313 0.33927 0.69677 0.36100
H 	H 	0.43533 0.33887 0.71167 0.36600
C 	C 	0.26193 0.24947 0.60497 -0.59600
H 	H 	0.26023 0.23357 0.56057 0.20800
C 	C 	0.28213 0.27817 0.74607 -0.54100
H 	H 	0.29433 0.28227 0.80307 0.20300
C 	C 	0.46924 0.25108 0.78607 0.19100
C 	C 	0.48413 0.25397 0.86847 -0.22700
H 	H 	0.47093 0.24447 0.92047 0.08700
C 	C 	0.24663 0.10347 0.90717 0.78800
C 	C 	0.39983 0.29707 0.65517 0.68300
C 	C 	0.43191 0.23193 0.77667 -0.25200
C 	C 	0.34643 0.10448 0.04697 -1.42700
H 	H 	0.36383 0.12617 0.05437 0.39600
H 	H 	0.33213 0.09877 0.09987 0.43000
H 	H 	0.35493 0.09017 0.04347 0.42900
C 	C 	0.28181 0.21394 0.01947 0.74200
C 	C 	0.31857 0.16962 0.05987 0.11000
H 	H 	0.30903 0.14677 0.05087 -0.05400
H 	H 	0.33603 0.17697 0.10417 -0.07900
H 	H 	0.30263 0.17437 0.08377 -0.06100
C 	C 	0.41885 0.24529 0.85087 0.21200
H 	H 	0.42713 0.26797 0.83777 -0.04300
H 	H 	0.42713 0.24377 0.91197 -0.09300
C 	C 	0.31411 0.24697 0.79547 0.18000
H 	H 	0.29943 0.24587 0.84447 -0.04300
H 	H 	0.33003 0.26947 0.78597 -0.03900
C 	C 	0.27931 0.25428 0.68217 0.15000
C 	C 	0.42321 0.23823 0.67237 0.19800
H 	H 	0.43273 0.23057 0.62607 -0.04500
H 	H 	0.43193 0.26117 0.66267 -0.04600
C 	C 	0.32896 0.10208 0.96087 0.79800
C 	C 	0.42303 0.19717 0.78777 0.19400
H 	H 	0.43263 0.19507 0.84567 -0.06500
H 	H 	0.43253 0.19157 0.73597 -0.02700
C 	C 	0.26801 0.19879 0.71107 0.16400
H 	H 	0.25673 0.19297 0.65117 -0.02100
H 	H 	0.25283 0.19747 0.75867 -0.02400
C 	C 	0.31747 0.23845 0.61997 0.18200
H 	H 	0.33233 0.26127 0.61147 -0.04400
H 	H 	0.30443 0.23047 0.56337 -0.04700
C 	C 	0.29529 0.23370 0.70497 -0.21600
O 	O 	0.27180 0.12558 0.87897 -0.73200
O 	O 	0.33446 0.12564 0.91067 -0.72200
Mn	Mn	0.29029 0.09509 0.81090 1.29700
C 	C 	0.22623 0.25667 0.65047 -0.40900
H 	H 	0.20343 0.24867 0.64777 0.10700
C 	C 	0.27403 0.29947 0.64417 -0.43500
H 	H 	0.28723 0.32217 0.63127 0.14500
C 	C 	0.24143 0.23527 0.67307 0.24900
H 	H 	0.22883 0.21217 0.67507 -0.06300
C 	C 	0.28993 0.28087 0.66777 0.39500
H 	H 	0.31303 0.29317 0.67187 -0.09500
Mn	Mn	0.50052 0.52945 0.01512 1.30700
Mn	Mn	0.43763 0.46609 0.07671 1.31800
Mn	Mn	0.42832 0.44864 0.30257 1.23000
Mn	Mn	0.49008 0.45245 0.20028 1.28300
Mn	Mn	0.49023 0.52102 0.23803 1.23700
N 	N 	0.37755 0.29227 0.97750 -0.20800
N 	N 	0.38165 0.58420 0.14050 -0.15300
O 	O 	0.43699 0.48830 0.19010 -0.66900
O 	O 	0.49257 0.49233 0.08880 -0.86400
O 	O 	0.44491 0.50090 0.99430 -0.63800
O 	O 	0.43303 0.41050 0.36610 -0.60600
O 	O 	0.47460 0.41126 0.28810 -0.57300
O 	O 	0.44460 0.44671 0.96570 -0.63200
O 	O 	0.43668 0.43364 0.16110 -0.64600
O 	O 	0.49121 0.43522 0.06650 -0.55800
O 	O 	0.38626 0.44143 0.06300 -0.52200
O 	O 	0.38033 0.44502 0.90700 -0.53400
O 	O 	0.59086 0.56238 0.26820 -0.52400
O 	O 	0.49219 0.54824 0.12340 -0.59200
O 	O 	0.48055 0.47802 0.30310 -0.70600
O 	O 	0.59192 0.49819 0.21600 -0.49100
C 	C 	0.40010 0.31370 0.91980 0.55100
H 	H 	0.40440 0.30610 0.86190 -0.14800
C 	C 	0.37110 0.30310 0.05540 0.43900
H 	H 	0.35480 0.28820 0.09760 -0.15600
C 	C 	0.55810 0.44960 0.30250 -1.39000
H 	H 	0.53540 0.43580 0.31330 0.42200
H 	H 	0.56670 0.43750 0.27290 0.43000
H 	H 	0.56880 0.45800 0.36160 0.42000
C 	C 	0.38210 0.57130 0.06180 0.13300
H 	H 	0.37000 0.57250 0.01220 -0.01900
C 	C 	0.39730 0.58020 0.21780 0.11100
H 	H 	0.39720 0.58860 0.27690 -0.01600
C 	C 	0.45260 0.37690 0.41680 -1.29700
H 	H 	0.43590 0.37080 0.46290 0.39700
H 	H 	0.44890 0.35830 0.38120 0.41400
H 	H 	0.47310 0.38590 0.44810 0.38300
C 	C 	0.39940 0.55590 0.04590 -0.23100
H 	H 	0.40000 0.54840 0.98580 0.10400
C 	C 	0.33370 0.41790 0.00320 -1.15700
H 	H 	0.32310 0.41510 0.94360 0.34700
H 	H 	0.32740 0.39720 0.03010 0.35900
H 	H 	0.32780 0.42980 0.04500 0.36500
C 	C 	0.41720 0.34580 0.93830 -0.60100
H 	H 	0.43310 0.36000 0.89390 0.21000
C 	C 	0.38850 0.33730 0.07940 -0.55000
H 	H 	0.38440 0.34540 0.13640 0.20700
C 	C 	0.41559 0.55150 0.11940 0.19000
C 	C 	0.41270 0.56350 0.20180 -0.22600
H 	H 	0.42220 0.55980 0.25380 0.08700
C 	C 	0.56320 0.47650 0.24050 0.78900
C 	C 	0.36960 0.43610 0.98850 0.68100
C 	C 	0.43474 0.53332 0.11000 -0.25200
C 	C 	0.56219 0.57529 0.38030 -1.42500
H 	H 	0.54050 0.57100 0.38770 0.39600
H 	H 	0.56790 0.56670 0.43320 0.43000
H 	H 	0.57650 0.59810 0.37680 0.42900
C 	C 	0.45273 0.40121 0.35280 0.74300
C 	C 	0.49705 0.48229 0.39320 0.11100
H 	H 	0.51990 0.49560 0.38420 -0.05400
H 	H 	0.48970 0.49240 0.43750 -0.08000
H 	H 	0.49230 0.46160 0.41710 -0.06100
C 	C 	0.42138 0.50690 0.18420 0.21300
H 	H 	0.39870 0.49250 0.17110 -0.04300
H 	H 	0.42290 0.51670 0.24530 -0.09300
C 	C 	0.41970 0.40048 0.12880 0.17900
H 	H 	0.42080 0.38690 0.17780 -0.04300
H 	H 	0.39720 0.39390 0.11930 -0.03900
C 	C 	0.41239 0.35837 0.01550 0.14700
C 	C 	0.42844 0.51832 0.00570 0.20200
H 	H 	0.43610 0.53550 0.95940 -0.04600
H 	H 	0.40550 0.50410 0.99600 -0.04800
C 	C 	0.56459 0.56022 0.29420 0.79700
C 	C 	0.46950 0.55920 0.12110 0.19400
H 	H 	0.47160 0.57090 0.17900 -0.06500
H 	H 	0.47510 0.57430 0.06930 -0.02700
C 	C 	0.46788 0.40256 0.04440 0.16200
H 	H 	0.47370 0.39710 0.98450 -0.02000
H 	H 	0.46920 0.38870 0.09200 -0.02300
C 	C 	0.42822 0.41236 0.95330 0.18100
H 	H 	0.40540 0.40440 0.94480 -0.04300
H 	H 	0.43620 0.40730 0.89670 -0.04700
C 	C 	0.43297 0.39493 0.03830 -0.21500
O 	O 	0.54109 0.47956 0.21230 -0.73200
O 	O 	0.54103 0.54216 0.24400 -0.72100
Mn	Mn	0.57158 0.52854 0.14423 1.29700
C 	C 	0.41000 0.30290 0.98380 -0.41400
H 	H 	0.41800 0.28810 0.98110 0.10900
C 	C 	0.36720 0.30790 0.97750 -0.44700
H 	H 	0.34450 0.29840 0.96460 0.14800
C 	C 	0.43140 0.33950 0.00640 0.25300
H 	H 	0.45450 0.35000 0.00840 -0.06500
C 	C 	0.38580 0.34240 0.00110 0.40700
H 	H 	0.37350 0.35320 0.00520 -0.09900
Mn	Mn	0.16719 0.86278 0.34845 1.30700
Mn	Mn	0.10430 0.79942 0.41004 1.31800
Mn	Mn	0.09499 0.78197 0.63590 1.23000
Mn	Mn	0.15675 0.78578 0.53361 1.28300
Mn	Mn	0.15690 0.85435 0.57136 1.23700
N 	N 	0.04422 0.62560 0.31083 -0.21000
N 	N 	0.04832 0.91753 0.47383 -0.15300
O 	O 	0.10366 0.82163 0.52343 -0.66900
O 	O 	0.15924 0.82566 0.42213 -0.86400
O 	O 	0.11158 0.83423 0.32763 -0.63700
O 	O 	0.09970 0.74383 0.69943 -0.60600
O 	O 	0.14127 0.74459 0.62143 -0.57300
O 	O 	0.11127 0.78004 0.29903 -0.63200
O 	O 	0.10335 0.76697 0.49443 -0.64600
O 	O 	0.15788 0.76855 0.39983 -0.55900
O 	O 	0.05293 0.77476 0.39633 -0.52300
O 	O 	0.04700 0.77835 0.24033 -0.53500
O 	O 	0.25753 0.89571 0.60153 -0.52400
O 	O 	0.15886 0.88157 0.45673 -0.59200
O 	O 	0.14722 0.81135 0.63643 -0.70600
O 	O 	0.25859 0.83152 0.54933 -0.49100
C 	C 	0.06677 0.64703 0.25313 0.54400
H 	H 	0.07107 0.63943 0.19523 -0.14500
C 	C 	0.03777 0.63643 0.38873 0.43000
H 	H 	0.02147 0.62153 0.43093 -0.15300
C 	C 	0.22477 0.78293 0.63583 -1.39000
H 	H 	0.20207 0.76913 0.64663 0.42200
H 	H 	0.23337 0.77083 0.60623 0.43000
H 	H 	0.23547 0.79133 0.69493 0.41900
C 	C 	0.04877 0.90463 0.39513 0.13500
H 	H 	0.03667 0.90583 0.34553 -0.01900
C 	C 	0.06397 0.91353 0.55113 0.11100
H 	H 	0.06387 0.92193 0.61023 -0.01600
C 	C 	0.11927 0.71023 0.75013 -1.29700
H 	H 	0.10257 0.70413 0.79623 0.39700
H 	H 	0.11557 0.69163 0.71453 0.41400
H 	H 	0.13977 0.71923 0.78143 0.38300
C 	C 	0.06607 0.88923 0.37923 -0.23400
H 	H 	0.06667 0.88173 0.31913 0.10600
C 	C 	0.00037 0.75123 0.33653 -1.16300
H 	H 	0.98977 0.74843 0.27693 0.34900
H 	H 	0.99407 0.73053 0.36343 0.36100
H 	H 	0.99447 0.76313 0.37833 0.36600
C 	C 	0.08387 0.67913 0.27163 -0.59600
H 	H 	0.09977 0.69333 0.22723 0.20800
C 	C 	0.05517 0.67063 0.41273 -0.54100
H 	H 	0.05107 0.67873 0.46973 0.20300
C 	C 	0.08226 0.88483 0.45273 0.19100
C 	C 	0.07937 0.89683 0.53513 -0.22700
H 	H 	0.08887 0.89313 0.58713 0.08700
C 	C 	0.22987 0.80983 0.57383 0.78900
C 	C 	0.03627 0.76943 0.32183 0.68300
C 	C 	0.10141 0.86665 0.44333 -0.25200
C 	C 	0.22886 0.90862 0.71363 -1.42500
H 	H 	0.20717 0.90433 0.72103 0.39600
H 	H 	0.23457 0.90003 0.76653 0.43000
H 	H 	0.24317 0.93143 0.71013 0.42900
C 	C 	0.11940 0.73454 0.68613 0.74300
C 	C 	0.16372 0.81562 0.72653 0.11100
H 	H 	0.18657 0.82893 0.71753 -0.05400
H 	H 	0.15637 0.82573 0.77083 -0.08000
H 	H 	0.15897 0.79493 0.75043 -0.06200
C 	C 	0.08805 0.84023 0.51753 0.21300
H 	H 	0.06537 0.82583 0.50443 -0.04300
H 	H 	0.08957 0.85003 0.57863 -0.09300
C 	C 	0.08637 0.73381 0.46213 0.18000
H 	H 	0.08747 0.72023 0.51113 -0.04300
H 	H 	0.06387 0.72723 0.45263 -0.03900
C 	C 	0.07906 0.69170 0.34883 0.15000
C 	C 	0.09511 0.85165 0.33903 0.19800
H 	H 	0.10277 0.86883 0.29273 -0.04500
H 	H 	0.07217 0.83743 0.32933 -0.04600
C 	C 	0.23126 0.89355 0.62753 0.79700
C 	C 	0.13617 0.89253 0.45443 0.19400
H 	H 	0.13827 0.90423 0.51233 -0.06500
H 	H 	0.14177 0.90763 0.40263 -0.02700
C 	C 	0.13455 0.73589 0.37773 0.16400
H 	H 	0.14037 0.73043 0.31783 -0.02100
H 	H 	0.13587 0.72203 0.42533 -0.02400
C 	C 	0.09489 0.74569 0.28663 0.18200
H 	H 	0.07207 0.73773 0.27813 -0.04400
H 	H 	0.10287 0.74063 0.23003 -0.04700
C 	C 	0.09964 0.72826 0.37163 -0.21600
O 	O 	0.20776 0.81289 0.54563 -0.73200
O 	O 	0.20770 0.87549 0.57733 -0.72100
Mn	Mn	0.23825 0.86187 0.47756 1.29700
C 	C 	0.07667 0.63623 0.31713 -0.40900
H 	H 	0.08467 0.62143 0.31443 0.10700
C 	C 	0.03387 0.64123 0.31083 -0.43500
H 	H 	0.01117 0.63173 0.29793 0.14400
C 	C 	0.09807 0.67283 0.33973 0.24900
H 	H 	0.12117 0.68333 0.34173 -0.06300
C 	C 	0.05247 0.67573 0.33443 0.39500
H 	H 	0.04017 0.68653 0.33853 -0.09500
Mn	Mn	0.83385 0.19612 0.68179 1.30700
Mn	Mn	0.77096 0.13276 0.74338 1.31800
Mn	Mn	0.76165 0.11531 0.96924 1.23000
Mn	Mn	0.82341 0.11912 0.86695 1.28300
Mn	Mn	0.82356 0.18769 0.90470 1.23700
N 	N 	0.71088 0.95894 0.64417 -0.21000
N 	N 	0.71498 0.25087 0.80717 -0.15300
O 	O 	0.77032 0.15497 0.85677 -0.66900
O 	O 	0.82590 0.15900 0.75547 -0.86400
O 	O 	0.77824 0.16757 0.66097 -0.63700
O 	O 	0.76636 0.07717 0.03277 -0.60600
O 	O 	0.80793 0.07793 0.95477 -0.57200
O 	O 	0.77793 0.11338 0.63237 -0.63200
O 	O 	0.77001 0.10031 0.82777 -0.64600
O 	O 	0.82454 0.10189 0.73317 -0.55900
O 	O 	0.71959 0.10810 0.72967 -0.52300
O 	O 	0.71366 0.11169 0.57367 -0.53500
O 	O 	0.92419 0.22905 0.93487 -0.52400
O 	O 	0.82552 0.21491 0.79007 -0.59200
O 	O 	0.81388 0.14469 0.96977 -0.70500
O 	O 	0.92525 0.16486 0.88267 -0.49100
C 	C 	0.73343 0.98037 0.58647 0.54400
H 	H 	0.73773 0.97277 0.52857 -0.14500
C 	C 	0.70443 0.96977 0.72207 0.43000
H 	H 	0.68813 0.95487 0.76427 -0.15300
C 	C 	0.89143 0.11627 0.96917 -1.38900
H 	H 	0.86873 0.10247 0.97997 0.42200
H 	H 	0.90003 0.10417 0.93957 0.43000
H 	H 	0.90213 0.12467 0.02827 0.41900
C 	C 	0.71543 0.23797 0.72847 0.13500
H 	H 	0.70333 0.23917 0.67887 -0.01900
C 	C 	0.73063 0.24687 0.88447 0.11100
H 	H 	0.73053 0.25527 0.94357 -0.01600
C 	C 	0.78593 0.04357 0.08347 -1.29700
H 	H 	0.76923 0.03747 0.12957 0.39700
H 	H 	0.78223 0.02497 0.04787 0.41400
H 	H 	0.80643 0.05257 0.11477 0.38300
C 	C 	0.73273 0.22257 0.71257 -0.23400
H 	H 	0.73333 0.21507 0.65247 0.10600
C 	C 	0.66703 0.08457 0.66987 -1.16200
H 	H 	0.65643 0.08177 0.61027 0.34800
H 	H 	0.66073 0.06387 0.69677 0.36100
H 	H 	0.66113 0.09647 0.71167 0.36600
C 	C 	0.75053 0.01247 0.60497 -0.59600
H 	H 	0.76643 0.02667 0.56057 0.20800
C 	C 	0.72183 0.00397 0.74607 -0.54100
H 	H 	0.71773 0.01207 0.80307 0.20300
C 	C 	0.74892 0.21817 0.78607 0.19100
C 	C 	0.74603 0.23017 0.86847 -0.22700
H 	H 	0.75553 0.22647 0.92047 0.08700
C 	C 	0.89653 0.14317 0.90717 0.78800
C 	C 	0.70293 0.10277 0.65517 0.68300
C 	C 	0.76807 0.19999 0.77667 -0.25200
C 	C 	0.89552 0.24196 0.04697 -1.42700
H 	H 	0.87383 0.23767 0.05437 0.39600
H 	H 	0.90123 0.23337 0.09987 0.43000
H 	H 	0.90983 0.26477 0.04347 0.42900
C 	C 	0.78606 0.06788 0.01947 0.74200
C 	C 	0.83038 0.14896 0.05987 0.11000
H 	H 	0.85323 0.16227 0.05087 -0.05400
H 	H 	0.82303 0.15907 0.10417 -0.07900
H 	H 	0.82563 0.12827 0.08377 -0.06100
C 	C 	0.75471 0.17357 0.85087 0.21200
H 	H 	0.73203 0.15917 0.83777 -0.04300
H 	H 	0.75623 0.18337 0.91197 -0.09300
C 	C 	0.75303 0.06715 0.79547 0.18000
H 	H 	0.75413 0.05357 0.84447 -0.04300
H 	H 	0.73053 0.06057 0.78597 -0.03900
C 	C 	0.74572 0.02504 0.68217 0.15000
C 	C 	0.76177 0.18499 0.67237 0.19800
H 	H 	0.76943 0.20217 0.62607 -0.04500
H 	H 	0.73883 0.17077 0.66267 -0.04600
C 	C 	0.89792 0.22689 0.96087 0.79800
C 	C 	0.80283 0.22587 0.78777 0.19400
H 	H 	0.80493 0.23757 0.84567 -0.06500
H 	H 	0.80843 0.24097 0.73597 -0.02700
C 	C 	0.80121 0.06923 0.71107 0.16400
H 	H 	0.80703 0.06377 0.65117 -0.02100
H 	H 	0.80253 0.05537 0.75867 -0.02400
C 	C 	0.76155 0.07903 0.61997 0.18200
H 	H 	0.73873 0.07107 0.61147 -0.04400
H 	H 	0.76953 0.07397 0.56337 -0.04700
C 	C 	0.76630 0.06160 0.70497 -0.21600
O 	O 	0.87442 0.14623 0.87897 -0.73200
O 	O 	0.87436 0.20883 0.91067 -0.72200
Mn	Mn	0.90491 0.19521 0.81090 1.29700
C 	C 	0.74333 0.96957 0.65047 -0.40800
H 	H 	0.75133 0.95477 0.64777 0.10700
C 	C 	0.70053 0.97457 0.64417 -0.43500
H 	H 	0.67783 0.96507 0.63127 0.14400
C 	C 	0.76473 0.00617 0.67307 0.24900
H 	H 	0.78783 0.01667 0.67507 -0.06300
C 	C 	0.71913 0.00907 0.66777 0.39400
H 	H 	0.70683 0.01987 0.67187 -0.09500
