data_crystal

_cell_length_a 12.63250
_cell_length_b 17.47260
_cell_length_c 27.96670
_cell_angle_alpha 91.27500
_cell_angle_beta  92.43300
_cell_angle_gamma 106.10000

_symmetry_space_group_name_	'P 1'
_symmetry_space_group_name_H-M	'P 1'

loop_
_symmetry_equiv_pos_as_xyz
  x,y,z

loop_
_atom_site_label
_atom_site_type_symbol
_atom_site_fract_x
_atom_site_fract_y
_atom_site_fract_z
_atom_site_charge
Cu	Cu	0.03172 0.51414 0.14937 0.91600
Cu	Cu	0.45355 0.00642 0.68281 0.86900
Cu	Cu	0.31941 0.51100 0.82472 0.89700
Cu	Cu	0.89567 0.99721 0.35435 0.89600
Cu	Cu	0.57391 0.49965 0.81609 0.87600
Cu	Cu	0.68426 0.99859 0.66641 0.88100
O 	O 	0.97160 0.39800 0.14500 -0.39700
O 	O 	0.12780 0.38520 0.11670 -0.30600
O 	O 	0.76570 0.38450 0.89080 -0.30200
O 	O 	0.91430 0.36890 0.85660 -0.36700
O 	O 	0.50750 0.97540 0.74460 -0.45600
O 	O 	0.66870 0.95190 0.72990 -0.42000
O 	O 	0.35390 0.59330 0.87710 -0.41000
O 	O 	0.51600 0.59230 0.85150 -0.45000
O 	O 	0.51380 0.59900 0.15750 -0.42800
O 	O 	0.66880 0.57390 0.13380 -0.39400
O 	O 	0.87560 0.97100 0.28640 -0.38600
O 	O 	0.04880 0.01120 0.26120 -0.27500
O 	O 	0.84180 0.16330 0.34350 -0.29000
O 	O 	0.98030 0.10720 0.34870 -0.40400
O 	O 	0.99290 0.09810 0.60380 -0.31300
O 	O 	0.16670 0.11410 0.63090 -0.39900
O 	O 	0.31680 0.44330 0.76640 -0.40600
O 	O 	0.49750 0.48360 0.75240 -0.43000
O 	O 	0.43790 0.90620 0.64790 -0.44200
O 	O 	0.60610 0.90030 0.63350 -0.42400
O 	O 	0.32700 0.93590 0.38890 -0.41700
O 	O 	0.49050 0.91980 0.36890 -0.43900
O 	O 	0.96250 0.55850 0.25020 -0.31600
O 	O 	0.09130 0.51330 0.21580 -0.38800
C 	C 	0.79910 0.05380 0.03240 -0.01400
C 	C 	0.76630 0.05000 0.98360 -0.02300
C 	C 	0.71140 0.97890 0.96070 -0.02400
C 	C 	0.68380 0.90830 0.98620 -0.02700
C 	C 	0.71620 0.90980 0.03540 -0.02100
C 	C 	0.77710 0.98250 0.05780 -0.03500
C 	C 	0.85930 0.13150 0.05630 0.06100
C 	C 	0.80350 0.17450 0.08180 -0.10600
H 	H 	0.72630 0.15320 0.08470 0.06700
C 	C 	0.85660 0.24790 0.10320 0.03600
H 	H 	0.81480 0.27710 0.11930 0.03300
C 	C 	0.96790 0.27910 0.10180 -0.09400
C 	C 	0.02540 0.23630 0.07670 0.02200
H 	H 	0.10300 0.25690 0.07490 0.03400
C 	C 	0.97180 0.16340 0.05410 -0.09500
H 	H 	0.01310 0.13510 0.03680 0.05800
C 	C 	0.78770 0.12680 0.95680 0.06200
C 	C 	0.71470 0.17310 0.96090 -0.10300
H 	H 	0.65360 0.15620 0.98060 0.06200
C 	C 	0.72970 0.24360 0.93660 0.02200
H 	H 	0.67930 0.27460 0.93990 0.03700
C 	C 	0.81840 0.26870 0.90750 -0.08800
C 	C 	0.89310 0.22430 0.90430 0.02300
H 	H 	0.95640 0.24240 0.88600 0.04100
C 	C 	0.87470 0.15170 0.92850 -0.10300
H 	H 	0.92400 0.11980 0.92490 0.06500
C 	C 	0.67960 0.97420 0.90780 0.07700
C 	C 	0.58950 0.99610 0.89070 -0.12300
H 	H 	0.54640 0.01590 0.91240 0.07000
C 	C 	0.56010 0.98970 0.84130 0.05200
H 	H 	0.49640 0.00370 0.82970 0.01900
C 	C 	0.62300 0.96350 0.81030 -0.12300
C 	C 	0.71130 0.94120 0.82670 0.05000
H 	H 	0.75450 0.92230 0.80480 0.03800
C 	C 	0.73990 0.94590 0.87630 -0.12100
H 	H 	0.80150 0.92920 0.88770 0.07200
C 	C 	0.62380 0.83050 0.96140 0.07900
C 	C 	0.51350 0.81570 0.94660 -0.12500
H 	H 	0.47570 0.85430 0.95340 0.07000
C 	C 	0.45760 0.74550 0.92200 0.05500
H 	H 	0.38100 0.73460 0.91390 0.02200
C 	C 	0.51380 0.69160 0.90950 -0.12400
C 	C 	0.62290 0.70550 0.92400 0.05600
H 	H 	0.66170 0.66800 0.91580 0.02300
C 	C 	0.67680 0.77450 0.95080 -0.12500
H 	H 	0.75140 0.78280 0.96170 0.07400
C 	C 	0.68780 0.83470 0.06220 0.07300
C 	C 	0.58080 0.80040 0.07260 -0.11900
H 	H 	0.52520 0.82460 0.06260 0.07000
C 	C 	0.55260 0.73040 0.09760 0.04600
H 	H 	0.47820 0.70790 0.10540 0.03300
C 	C 	0.63270 0.69290 0.11130 -0.11500
C 	C 	0.73920 0.72810 0.10080 0.05300
H 	H 	0.79500 0.70380 0.11040 0.03700
C 	C 	0.76770 0.79840 0.07670 -0.12000
H 	H 	0.84260 0.82210 0.07010 0.07200
C 	C 	0.81710 0.98370 0.10910 0.09500
C 	C 	0.74870 0.97050 0.14480 -0.13900
H 	H 	0.67180 0.96080 0.13790 0.07800
C 	C 	0.78950 0.97060 0.19380 0.06600
H 	H 	0.74030 0.96110 0.21920 0.01000
C 	C 	0.89850 0.98460 0.20260 -0.12600
C 	C 	0.97140 0.00090 0.16590 0.07700
H 	H 	0.04870 0.01380 0.17300 0.01600
C 	C 	0.93020 0.99790 0.11900 -0.15000
H 	H 	0.97910 0.00550 0.09350 0.08200
C 	C 	0.02830 0.36060 0.12360 0.33100
C 	C 	0.83280 0.34770 0.88320 0.31700
C 	C 	0.59550 0.96340 0.75610 0.37900
C 	C 	0.45620 0.61850 0.87730 0.37600
C 	C 	0.60180 0.61470 0.13670 0.38700
C 	C 	0.94730 0.99110 0.25350 0.33600
C 	C 	0.20560 0.44420 0.46360 -0.02300
C 	C 	0.23660 0.43560 0.51170 -0.02300
C 	C 	0.29330 0.50250 0.53910 -0.02000
C 	C 	0.31940 0.57850 0.51960 -0.02700
C 	C 	0.28750 0.58700 0.47140 -0.02400
C 	C 	0.23270 0.51940 0.44330 -0.02400
C 	C 	0.13920 0.37120 0.43380 0.07200
C 	C 	0.03550 0.36950 0.41490 -0.12400
H 	H 	0.00740 0.41400 0.41970 0.07200
C 	C 	0.97240 0.30210 0.38890 0.04800
H 	H 	0.90150 0.30130 0.37570 0.02600
C 	C 	0.01130 0.23710 0.38190 -0.11400
C 	C 	0.11360 0.23790 0.40120 0.04200
H 	H 	0.14070 0.19280 0.39700 0.02700
C 	C 	0.17750 0.30590 0.42710 -0.11800
H 	H 	0.24840 0.30660 0.44030 0.07100
C 	C 	0.20060 0.35640 0.53470 0.06500
C 	C 	0.08980 0.32000 0.53920 -0.10900
H 	H 	0.03640 0.34390 0.52620 0.06500
C 	C 	0.05620 0.24930 0.56250 0.02800
H 	H 	0.97960 0.22480 0.56530 0.03300
C 	C 	0.13150 0.21360 0.58190 -0.09200
C 	C 	0.24110 0.24830 0.57650 0.03300
H 	H 	0.29400 0.22390 0.58940 0.03200
C 	C 	0.27640 0.31920 0.55230 -0.11000
H 	H 	0.35280 0.34190 0.54800 0.06700
C 	C 	0.32200 0.49490 0.59140 0.06700
C 	C 	0.24090 0.48120 0.62480 -0.10900
H 	H 	0.16760 0.47950 0.61450 0.06900
C 	C 	0.26320 0.46990 0.67220 0.03800
H 	H 	0.20600 0.46050 0.69420 0.03700
C 	C 	0.36970 0.47240 0.68760 -0.11600
C 	C 	0.45290 0.48630 0.65510 0.04400
H 	H 	0.52620 0.48860 0.66570 0.02300
C 	C 	0.42840 0.49680 0.60720 -0.11700
H 	H 	0.48510 0.50550 0.58500 0.06800
C 	C 	0.36930 0.65200 0.55050 0.08100
C 	C 	0.30250 0.68960 0.57350 -0.12600
H 	H 	0.22510 0.66540 0.57210 0.07200
C 	C 	0.34410 0.76120 0.59840 0.05700
H 	H 	0.29520 0.78740 0.61200 0.03700
C 	C 	0.45510 0.79460 0.60370 -0.13000
C 	C 	0.52510 0.75660 0.58260 0.05900
H 	H 	0.60290 0.77860 0.58620 0.02500
C 	C 	0.48050 0.68600 0.55600 -0.12700
H 	H 	0.52870 0.66060 0.54120 0.07200
C 	C 	0.31620 0.66800 0.45050 0.07700
C 	C 	0.25460 0.72030 0.45950 -0.12500
H 	H 	0.19340 0.70500 0.47920 0.07200
C 	C 	0.28100 0.79460 0.44010 0.05400
H 	H 	0.23710 0.82970 0.44610 0.02900
C 	C 	0.37140 0.81890 0.41170 -0.12800
C 	C 	0.43260 0.76660 0.40330 0.05500
H 	H 	0.49570 0.78280 0.38470 0.01900
C 	C 	0.40440 0.69120 0.42130 -0.12700
H 	H 	0.44570 0.65500 0.41360 0.07300
C 	C 	0.19310 0.52760 0.39260 0.07200
C 	C 	0.10700 0.56170 0.38510 -0.11900
H 	H 	0.07920 0.58410 0.41140 0.06900
C 	C 	0.06150 0.56300 0.33930 0.04000
H 	H 	0.00140 0.58520 0.33450 0.03200
C 	C 	0.10240 0.53250 0.30050 -0.11100
C 	C 	0.18940 0.50020 0.30730 0.05100
H 	H 	0.21940 0.48000 0.28080 0.01500
C 	C 	0.23260 0.49760 0.35350 -0.12100
H 	H 	0.29170 0.47430 0.35820 0.07200
C 	C 	0.93800 0.16260 0.35550 0.33600
C 	C 	0.09170 0.13490 0.60800 0.31500
C 	C 	0.39620 0.46560 0.74030 0.35700
C 	C 	0.50330 0.87400 0.63050 0.40700
C 	C 	0.39700 0.89770 0.38840 0.35300
C 	C 	0.04710 0.53620 0.25140 0.34600
O 	O 	0.86280 0.53870 0.16830 -0.66200
H 	H 	0.82500 0.49020 0.16730 0.19700
H 	H 	0.88060 0.55100 0.19770 0.31100
Cu	Cu	0.96828 0.48586 0.85063 0.91500
Cu	Cu	0.54645 0.99358 0.31719 0.86800
Cu	Cu	0.68059 0.48900 0.17528 0.89600
Cu	Cu	0.10433 0.00279 0.64565 0.89500
Cu	Cu	0.42609 0.50035 0.18391 0.87500
Cu	Cu	0.31574 0.00141 0.33359 0.88000
O 	O 	0.02840 0.60200 0.85500 -0.39700
O 	O 	0.87220 0.61480 0.88330 -0.30600
O 	O 	0.23430 0.61550 0.10920 -0.30200
O 	O 	0.08570 0.63110 0.14340 -0.36700
O 	O 	0.49250 0.02460 0.25540 -0.45600
O 	O 	0.33130 0.04810 0.27010 -0.42000
O 	O 	0.64610 0.40670 0.12290 -0.41000
O 	O 	0.48400 0.40770 0.14850 -0.45000
O 	O 	0.48620 0.40100 0.84250 -0.42800
O 	O 	0.33120 0.42610 0.86620 -0.39400
O 	O 	0.12440 0.02900 0.71360 -0.38600
O 	O 	0.95120 0.98880 0.73880 -0.27500
O 	O 	0.15820 0.83670 0.65650 -0.29000
O 	O 	0.01970 0.89280 0.65130 -0.40400
O 	O 	0.00710 0.90190 0.39620 -0.31300
O 	O 	0.83330 0.88590 0.36910 -0.39900
O 	O 	0.68320 0.55670 0.23360 -0.40600
O 	O 	0.50250 0.51640 0.24760 -0.43000
O 	O 	0.56210 0.09380 0.35210 -0.44200
O 	O 	0.39390 0.09970 0.36650 -0.42400
O 	O 	0.67300 0.06410 0.61110 -0.41700
O 	O 	0.50950 0.08020 0.63110 -0.43900
O 	O 	0.03750 0.44150 0.74980 -0.31600
O 	O 	0.90870 0.48670 0.78420 -0.38800
C 	C 	0.20090 0.94620 0.96760 -0.01400
C 	C 	0.23370 0.95000 0.01640 -0.02300
C 	C 	0.28860 0.02110 0.03930 -0.02400
C 	C 	0.31620 0.09170 0.01380 -0.02700
C 	C 	0.28380 0.09020 0.96460 -0.02100
C 	C 	0.22290 0.01750 0.94220 -0.03500
C 	C 	0.14070 0.86850 0.94370 0.06100
C 	C 	0.19650 0.82550 0.91820 -0.10600
H 	H 	0.27370 0.84680 0.91530 0.06700
C 	C 	0.14340 0.75210 0.89680 0.03600
H 	H 	0.18520 0.72290 0.88070 0.03300
C 	C 	0.03210 0.72090 0.89820 -0.09400
C 	C 	0.97460 0.76370 0.92330 0.02200
H 	H 	0.89700 0.74310 0.92510 0.03400
C 	C 	0.02820 0.83660 0.94590 -0.09500
H 	H 	0.98690 0.86490 0.96320 0.05800
C 	C 	0.21230 0.87320 0.04320 0.06200
C 	C 	0.28530 0.82690 0.03910 -0.10300
H 	H 	0.34640 0.84380 0.01940 0.06200
C 	C 	0.27030 0.75640 0.06340 0.02200
H 	H 	0.32070 0.72540 0.06010 0.03700
C 	C 	0.18160 0.73130 0.09250 -0.08800
C 	C 	0.10690 0.77570 0.09570 0.02300
H 	H 	0.04360 0.75760 0.11400 0.04100
C 	C 	0.12530 0.84830 0.07150 -0.10300
H 	H 	0.07600 0.88020 0.07510 0.06500
C 	C 	0.32040 0.02580 0.09220 0.07700
C 	C 	0.41050 0.00390 0.10930 -0.12300
H 	H 	0.45360 0.98410 0.08760 0.07000
C 	C 	0.43990 0.01030 0.15870 0.05200
H 	H 	0.50360 0.99630 0.17030 0.01900
C 	C 	0.37700 0.03650 0.18970 -0.12300
C 	C 	0.28870 0.05880 0.17330 0.05000
H 	H 	0.24550 0.07770 0.19520 0.03800
C 	C 	0.26010 0.05410 0.12370 -0.12100
H 	H 	0.19850 0.07080 0.11230 0.07200
C 	C 	0.37620 0.16950 0.03860 0.07900
C 	C 	0.48650 0.18430 0.05340 -0.12500
H 	H 	0.52430 0.14570 0.04660 0.07000
C 	C 	0.54240 0.25450 0.07800 0.05500
H 	H 	0.61900 0.26540 0.08610 0.02200
C 	C 	0.48620 0.30840 0.09050 -0.12400
C 	C 	0.37710 0.29450 0.07600 0.05600
H 	H 	0.33830 0.33200 0.08420 0.02300
C 	C 	0.32320 0.22550 0.04920 -0.12500
H 	H 	0.24860 0.21720 0.03830 0.07400
C 	C 	0.31220 0.16530 0.93780 0.07300
C 	C 	0.41920 0.19960 0.92740 -0.11900
H 	H 	0.47480 0.17540 0.93740 0.07000
C 	C 	0.44740 0.26960 0.90240 0.04600
H 	H 	0.52180 0.29210 0.89460 0.03300
C 	C 	0.36730 0.30710 0.88870 -0.11500
C 	C 	0.26080 0.27190 0.89920 0.05300
H 	H 	0.20500 0.29620 0.88960 0.03700
C 	C 	0.23230 0.20160 0.92330 -0.12000
H 	H 	0.15740 0.17790 0.92990 0.07200
C 	C 	0.18290 0.01630 0.89090 0.09500
C 	C 	0.25130 0.02950 0.85520 -0.13900
H 	H 	0.32820 0.03920 0.86210 0.07800
C 	C 	0.21050 0.02940 0.80620 0.06600
H 	H 	0.25970 0.03890 0.78080 0.01000
C 	C 	0.10150 0.01540 0.79740 -0.12600
C 	C 	0.02860 0.99910 0.83410 0.07700
H 	H 	0.95130 0.98620 0.82700 0.01600
C 	C 	0.06980 0.00210 0.88100 -0.15000
H 	H 	0.02090 0.99450 0.90650 0.08200
C 	C 	0.97170 0.63940 0.87640 0.33100
C 	C 	0.16720 0.65230 0.11680 0.31700
C 	C 	0.40450 0.03660 0.24390 0.37900
C 	C 	0.54380 0.38150 0.12270 0.37600
C 	C 	0.39820 0.38530 0.86330 0.38700
C 	C 	0.05270 0.00890 0.74650 0.33600
C 	C 	0.79440 0.55580 0.53640 -0.02300
C 	C 	0.76340 0.56440 0.48830 -0.02300
C 	C 	0.70670 0.49750 0.46090 -0.02000
C 	C 	0.68060 0.42150 0.48040 -0.02700
C 	C 	0.71250 0.41300 0.52860 -0.02400
C 	C 	0.76730 0.48060 0.55670 -0.02400
C 	C 	0.86080 0.62880 0.56620 0.07200
C 	C 	0.96450 0.63050 0.58510 -0.12400
H 	H 	0.99260 0.58600 0.58030 0.07200
C 	C 	0.02760 0.69790 0.61110 0.04800
H 	H 	0.09850 0.69870 0.62430 0.02600
C 	C 	0.98870 0.76290 0.61810 -0.11400
C 	C 	0.88640 0.76210 0.59880 0.04200
H 	H 	0.85930 0.80720 0.60300 0.02700
C 	C 	0.82250 0.69410 0.57290 -0.11800
H 	H 	0.75160 0.69340 0.55970 0.07100
C 	C 	0.79940 0.64360 0.46530 0.06500
C 	C 	0.91020 0.68000 0.46080 -0.10900
H 	H 	0.96360 0.65610 0.47380 0.06500
C 	C 	0.94380 0.75070 0.43750 0.02800
H 	H 	0.02040 0.77520 0.43470 0.03300
C 	C 	0.86850 0.78640 0.41810 -0.09200
C 	C 	0.75890 0.75170 0.42350 0.03300
H 	H 	0.70600 0.77610 0.41060 0.03200
C 	C 	0.72360 0.68080 0.44770 -0.11000
H 	H 	0.64720 0.65810 0.45200 0.06700
C 	C 	0.67800 0.50510 0.40860 0.06700
C 	C 	0.75910 0.51880 0.37520 -0.10900
H 	H 	0.83240 0.52050 0.38550 0.06900
C 	C 	0.73680 0.53010 0.32780 0.03800
H 	H 	0.79400 0.53950 0.30580 0.03700
C 	C 	0.63030 0.52760 0.31240 -0.11600
C 	C 	0.54710 0.51370 0.34490 0.04400
H 	H 	0.47380 0.51140 0.33430 0.02300
C 	C 	0.57160 0.50320 0.39280 -0.11700
H 	H 	0.51490 0.49450 0.41500 0.06800
C 	C 	0.63070 0.34800 0.44950 0.08100
C 	C 	0.69750 0.31040 0.42650 -0.12600
H 	H 	0.77490 0.33460 0.42790 0.07200
C 	C 	0.65590 0.23880 0.40160 0.05700
H 	H 	0.70480 0.21260 0.38800 0.03700
C 	C 	0.54490 0.20540 0.39630 -0.13000
C 	C 	0.47490 0.24340 0.41740 0.05900
H 	H 	0.39710 0.22140 0.41380 0.02500
C 	C 	0.51950 0.31400 0.44400 -0.12700
H 	H 	0.47130 0.33940 0.45880 0.07200
C 	C 	0.68380 0.33200 0.54950 0.07700
C 	C 	0.74540 0.27970 0.54050 -0.12500
H 	H 	0.80660 0.29500 0.52080 0.07200
C 	C 	0.71900 0.20540 0.55990 0.05400
H 	H 	0.76290 0.17030 0.55390 0.02900
C 	C 	0.62860 0.18110 0.58830 -0.12800
C 	C 	0.56740 0.23340 0.59670 0.05500
H 	H 	0.50430 0.21720 0.61530 0.01900
C 	C 	0.59560 0.30880 0.57870 -0.12700
H 	H 	0.55430 0.34500 0.58640 0.07300
C 	C 	0.80690 0.47240 0.60740 0.07200
C 	C 	0.89300 0.43830 0.61490 -0.11900
H 	H 	0.92080 0.41590 0.58860 0.06900
C 	C 	0.93850 0.43700 0.66070 0.04000
H 	H 	0.99860 0.41480 0.66550 0.03200
C 	C 	0.89760 0.46750 0.69950 -0.11100
C 	C 	0.81060 0.49980 0.69270 0.05100
H 	H 	0.78060 0.52000 0.71920 0.01500
C 	C 	0.76740 0.50240 0.64650 -0.12100
H 	H 	0.70830 0.52570 0.64180 0.07200
C 	C 	0.06200 0.83740 0.64450 0.33600
C 	C 	0.90830 0.86510 0.39200 0.31500
C 	C 	0.60380 0.53440 0.25970 0.35700
C 	C 	0.49670 0.12600 0.36950 0.40700
C 	C 	0.60300 0.10230 0.61160 0.35300
C 	C 	0.95290 0.46380 0.74860 0.34600
O 	O 	0.13720 0.46130 0.83170 -0.66200
H 	H 	0.17500 0.50980 0.83270 0.19700
H 	H 	0.11940 0.44900 0.80230 0.31100
