data_crystal

_cell_length_a 8.88240
_cell_length_b 61.24800
_cell_length_c 33.68900
_cell_angle_alpha 90.00000
_cell_angle_beta  90.00000
_cell_angle_gamma 90.00000

_symmetry_space_group_name_	'P 1'
_symmetry_space_group_name_H-M	'P 1'

loop_
_symmetry_equiv_pos_as_xyz
  x,y,z

loop_
_atom_site_label
_atom_site_type_symbol
_atom_site_fract_x
_atom_site_fract_y
_atom_site_fract_z
_atom_site_charge
Sc	Sc	0.25410 0.58330 0.42633 2.34800
Sc	Sc	0.75100 0.58330 0.40467 2.34900
O 	O 	0.12130 0.61027 0.43850 -0.62400
O 	O 	0.87970 0.60983 0.41980 -0.61700
O 	O 	0.12100 0.72181 0.40780 -0.64400
O 	O 	0.88800 0.72296 0.42710 -0.64400
O 	O 	0.61620 0.73400 0.46770 -0.63000
O 	O 	0.38210 0.73760 0.44780 -0.67800
O 	O 	0.37330 0.67253 0.62700 -0.64800
O 	O 	0.13590 0.67468 0.60560 -0.61300
O 	O 	0.87260 0.64621 0.61860 -0.60600
O 	O 	0.63850 0.64690 0.64220 -0.64700
O 	O 	0.62410 0.58808 0.45410 -0.65600
O 	O 	0.38810 0.59062 0.47580 -0.62900
O 	O 	0.11130 0.56473 0.46300 -0.63700
O 	O 	0.88320 0.56232 0.43760 -0.63600
O 	O 	0.86860 0.51290 0.63250 -0.67200
O 	O 	0.63670 0.51220 0.60950 -0.63200
O 	O 	0.61700 0.55679 0.39090 -0.62500
O 	O 	0.37630 0.55614 0.41140 -0.64300
C 	C 	0.00200 0.61960 0.42800 0.49800
C 	C 	0.13750 0.65481 0.42480 -0.01400
H 	H 	0.22760 0.64710 0.42400 0.04700
C 	C 	0.13870 0.67748 0.42290 0.03600
H 	H 	0.22960 0.68490 0.42090 0.02800
C 	C 	0.00400 0.68902 0.42400 -0.20000
C 	C 	0.86810 0.67789 0.42700 0.05100
H 	H 	0.77800 0.68560 0.42780 0.02600
C 	C 	0.86690 0.65522 0.42890 0.01400
H 	H 	0.77600 0.64780 0.43090 0.04000
C 	C 	0.00160 0.64368 0.42780 -0.15000
C 	C 	0.00100 0.71280 0.41780 0.57900
C 	C 	0.48000 0.72970 0.46990 0.58200
C 	C 	0.32620 0.69173 0.56740 -0.11600
C 	C 	0.22600 0.69828 0.53800 -0.01900
H 	H 	0.12530 0.69420 0.53950 0.05200
C 	C 	0.27640 0.71092 0.50640 0.03100
H 	H 	0.20940 0.71530 0.48680 0.02700
C 	C 	0.42690 0.71700 0.50420 -0.17100
C 	C 	0.52710 0.71045 0.53360 0.02900
H 	H 	0.62780 0.71450 0.53210 0.04100
C 	C 	0.47670 0.69782 0.56520 -0.01700
H 	H 	0.54370 0.69340 0.58490 0.04200
C 	C 	0.27300 0.67880 0.60290 0.51500
C 	C 	0.73600 0.64170 0.61640 0.51400
C 	C 	0.48060 0.61141 0.54410 0.00700
H 	H 	0.37930 0.60790 0.54110 0.04500
C 	C 	0.58440 0.60494 0.51550 -0.14300
C 	C 	0.73570 0.61019 0.52000 0.01900
H 	H 	0.80510 0.60590 0.50090 0.03400
C 	C 	0.78310 0.62191 0.55310 -0.01200
H 	H 	0.88440 0.62540 0.55610 0.06100
C 	C 	0.67930 0.62838 0.58160 -0.11800
C 	C 	0.52800 0.62313 0.57710 -0.00300
H 	H 	0.45860 0.62750 0.59620 0.03600
C 	C 	0.52200 0.59400 0.47930 0.53700
C 	C 	0.97800 0.55897 0.46490 0.54400
C 	C 	0.02630 0.54448 0.53220 -0.15200
H 	H 	0.12560 0.54920 0.53040 0.09600
C 	C 	0.97710 0.53366 0.56600 0.17900
H 	H 	0.04340 0.53120 0.58690 -0.04300
C 	C 	0.82880 0.52658 0.56870 -0.22500
C 	C 	0.72970 0.53033 0.53750 0.08100
H 	H 	0.63040 0.52560 0.53930 0.02000
C 	C 	0.77890 0.54114 0.50360 -0.06300
H 	H 	0.71260 0.54360 0.48280 0.06000
C 	C 	0.92730 0.54822 0.50100 -0.06200
C 	C 	0.77400 0.51630 0.60650 0.59200
C 	C 	0.49600 0.54706 0.39920 0.51700
C 	C 	0.49840 0.52238 0.39780 -0.12700
C 	C 	0.63300 0.51144 0.39660 0.00200
H 	H 	0.72270 0.51920 0.39520 0.04700
C 	C 	0.63600 0.48896 0.39760 0.00100
H 	H 	0.72720 0.48150 0.39810 0.04400
Sc	Sc	0.25410 0.08330 0.92633 2.34900
Sc	Sc	0.75100 0.08330 0.90467 2.35000
O 	O 	0.12130 0.11027 0.93850 -0.62400
O 	O 	0.87970 0.10983 0.91980 -0.61700
O 	O 	0.12100 0.22181 0.90780 -0.64300
O 	O 	0.88800 0.22296 0.92710 -0.64400
O 	O 	0.61620 0.23400 0.96770 -0.63000
O 	O 	0.38210 0.23760 0.94780 -0.67600
O 	O 	0.37330 0.17253 0.12700 -0.64700
O 	O 	0.13590 0.17468 0.10560 -0.61100
O 	O 	0.87260 0.14621 0.11860 -0.60600
O 	O 	0.63850 0.14690 0.14220 -0.64700
O 	O 	0.62410 0.08808 0.95410 -0.65600
O 	O 	0.38810 0.09062 0.97580 -0.62900
O 	O 	0.11130 0.06473 0.96300 -0.63700
O 	O 	0.88320 0.06232 0.93760 -0.63600
O 	O 	0.86860 0.01290 0.13250 -0.67100
O 	O 	0.63670 0.01220 0.10950 -0.63100
O 	O 	0.61700 0.05679 0.89090 -0.62500
O 	O 	0.37630 0.05614 0.91140 -0.64300
C 	C 	0.00200 0.11960 0.92800 0.49700
C 	C 	0.13750 0.15481 0.92480 -0.01400
H 	H 	0.22760 0.14710 0.92400 0.04700
C 	C 	0.13870 0.17748 0.92290 0.03500
H 	H 	0.22960 0.18490 0.92090 0.02800
C 	C 	0.00400 0.18902 0.92400 -0.20000
C 	C 	0.86810 0.17789 0.92700 0.05000
H 	H 	0.77800 0.18560 0.92780 0.02600
C 	C 	0.86690 0.15522 0.92890 0.01400
H 	H 	0.77600 0.14780 0.93090 0.04000
C 	C 	0.00160 0.14368 0.92780 -0.15100
C 	C 	0.00100 0.21280 0.91780 0.57900
C 	C 	0.48000 0.22970 0.96990 0.57900
C 	C 	0.32620 0.19173 0.06740 -0.11300
C 	C 	0.22600 0.19828 0.03800 -0.02500
H 	H 	0.12530 0.19420 0.03950 0.05500
C 	C 	0.27640 0.21092 0.00640 0.04200
H 	H 	0.20940 0.21530 0.98680 0.02000
C 	C 	0.42690 0.21700 0.00420 -0.17100
C 	C 	0.52710 0.21045 0.03360 0.03000
H 	H 	0.62780 0.21450 0.03210 0.04200
C 	C 	0.47670 0.19782 0.06520 -0.01900
H 	H 	0.54370 0.19340 0.08490 0.04200
C 	C 	0.27300 0.17880 0.10290 0.51400
C 	C 	0.73600 0.14170 0.11640 0.51500
C 	C 	0.48060 0.11141 0.04410 0.00200
H 	H 	0.37930 0.10790 0.04110 0.04700
C 	C 	0.58440 0.10494 0.01550 -0.13400
C 	C 	0.73570 0.11019 0.02000 0.01500
H 	H 	0.80510 0.10590 0.00090 0.03800
C 	C 	0.78310 0.12191 0.05310 -0.00800
H 	H 	0.88440 0.12540 0.05610 0.06000
C 	C 	0.67930 0.12838 0.08160 -0.12100
C 	C 	0.52800 0.12313 0.07710 0.00100
H 	H 	0.45860 0.12750 0.09620 0.03500
C 	C 	0.52200 0.09400 0.97930 0.53000
C 	C 	0.97800 0.05897 0.96490 0.54000
C 	C 	0.02630 0.04448 0.03220 -0.15100
H 	H 	0.12560 0.04920 0.03040 0.09700
C 	C 	0.97710 0.03366 0.06600 0.17800
H 	H 	0.04340 0.03120 0.08690 -0.04200
C 	C 	0.82880 0.02658 0.06870 -0.22200
C 	C 	0.72970 0.03033 0.03750 0.07600
H 	H 	0.63040 0.02560 0.03930 0.02300
C 	C 	0.77890 0.04114 0.00360 -0.05200
H 	H 	0.71260 0.04360 0.98280 0.05300
C 	C 	0.92730 0.04822 0.00100 -0.06100
C 	C 	0.77400 0.01630 0.10650 0.59100
C 	C 	0.49600 0.04706 0.89920 0.51700
C 	C 	0.49840 0.02238 0.89780 -0.12600
C 	C 	0.63300 0.01144 0.89660 -0.00000
H 	H 	0.72270 0.01920 0.89520 0.04700
C 	C 	0.63600 0.98896 0.89760 0.00200
H 	H 	0.72720 0.98150 0.89810 0.04300
Sc	Sc	0.75410 0.58330 0.92633 2.35000
Sc	Sc	0.25100 0.58330 0.90467 2.35000
O 	O 	0.62130 0.61027 0.93850 -0.62400
O 	O 	0.37970 0.60983 0.91980 -0.64100
O 	O 	0.62100 0.72181 0.90780 -0.64500
O 	O 	0.38800 0.72296 0.92710 -0.66300
O 	O 	0.11620 0.73400 0.96770 -0.63500
O 	O 	0.88210 0.73760 0.94780 -0.67200
O 	O 	0.87330 0.67253 0.12700 -0.64300
O 	O 	0.63590 0.67468 0.10560 -0.60700
O 	O 	0.37260 0.64621 0.11860 -0.61000
O 	O 	0.13850 0.64690 0.14220 -0.65000
O 	O 	0.12410 0.58808 0.95410 -0.66000
O 	O 	0.88810 0.59062 0.97580 -0.61100
O 	O 	0.61130 0.56473 0.96300 -0.62100
O 	O 	0.38320 0.56232 0.93760 -0.64300
O 	O 	0.36860 0.51290 0.13250 -0.67300
O 	O 	0.13670 0.51220 0.10950 -0.63200
O 	O 	0.11700 0.55679 0.89090 -0.64400
O 	O 	0.87630 0.55614 0.91140 -0.64100
C 	C 	0.50200 0.61960 0.92800 0.52300
C 	C 	0.63750 0.65481 0.92480 -0.01800
H 	H 	0.72760 0.64710 0.92400 0.05000
C 	C 	0.63870 0.67748 0.92290 0.03600
H 	H 	0.72960 0.68490 0.92090 0.03000
C 	C 	0.50400 0.68902 0.92400 -0.18200
C 	C 	0.36810 0.67789 0.92700 0.03100
H 	H 	0.27800 0.68560 0.92780 0.02800
C 	C 	0.36690 0.65522 0.92890 -0.01400
H 	H 	0.27600 0.64780 0.93090 0.04300
C 	C 	0.50160 0.64368 0.92780 -0.12700
C 	C 	0.50100 0.71280 0.91780 0.59900
C 	C 	0.98000 0.72970 0.96990 0.57100
C 	C 	0.82620 0.69173 0.06740 -0.16100
C 	C 	0.72600 0.69828 0.03800 0.02300
H 	H 	0.62530 0.69420 0.03950 0.04300
C 	C 	0.77640 0.71092 0.00640 -0.00500
H 	H 	0.70940 0.71530 0.98680 0.03800
C 	C 	0.92690 0.71700 0.00420 -0.11100
C 	C 	0.02710 0.71045 0.03360 -0.07100
H 	H 	0.12780 0.71450 0.03210 0.07300
C 	C 	0.97670 0.69782 0.06520 0.09100
H 	H 	0.04370 0.69340 0.08490 -0.00600
C 	C 	0.77300 0.67880 0.10290 0.53200
C 	C 	0.23600 0.64170 0.11640 0.48800
C 	C 	0.98060 0.61141 0.04410 0.15700
H 	H 	0.87930 0.60790 0.04110 0.00000
C 	C 	0.08440 0.60494 0.01550 -0.22200
C 	C 	0.23570 0.61019 0.02000 0.08500
H 	H 	0.30510 0.60590 0.00090 0.01000
C 	C 	0.28310 0.62191 0.05310 -0.08200
H 	H 	0.38440 0.62540 0.05610 0.07800
C 	C 	0.17930 0.62838 0.08160 -0.04700
C 	C 	0.02800 0.62313 0.07710 -0.16400
H 	H 	0.95860 0.62750 0.09620 0.10700
C 	C 	0.02200 0.59400 0.97930 0.52800
C 	C 	0.47800 0.55897 0.96490 0.54300
C 	C 	0.52630 0.54448 0.03220 0.01400
H 	H 	0.62560 0.54920 0.03040 0.04600
C 	C 	0.47710 0.53366 0.06600 0.00500
H 	H 	0.54340 0.53120 0.08690 0.03200
C 	C 	0.32880 0.52658 0.06870 -0.14200
C 	C 	0.22970 0.53033 0.03750 -0.00400
H 	H 	0.13040 0.52560 0.03930 0.04500
C 	C 	0.27890 0.54114 0.00360 0.02600
H 	H 	0.21260 0.54360 0.98280 0.02300
C 	C 	0.42730 0.54822 0.00100 -0.15700
C 	C 	0.27400 0.51630 0.10650 0.56100
C 	C 	0.99600 0.54706 0.89920 0.52700
C 	C 	0.99840 0.52238 0.89780 -0.06500
C 	C 	0.13300 0.51144 0.89660 -0.07800
H 	H 	0.22270 0.51920 0.89520 0.06900
C 	C 	0.13600 0.48896 0.89760 0.05900
H 	H 	0.22720 0.48150 0.89810 0.02100
Sc	Sc	0.75410 0.08330 0.42633 2.35000
Sc	Sc	0.25100 0.08330 0.40467 2.35000
O 	O 	0.62130 0.11027 0.43850 -0.62300
O 	O 	0.37970 0.10983 0.41980 -0.64000
O 	O 	0.62100 0.22181 0.40780 -0.64500
O 	O 	0.38800 0.22296 0.42710 -0.66300
O 	O 	0.11620 0.23400 0.46770 -0.63500
O 	O 	0.88210 0.23760 0.44780 -0.67200
O 	O 	0.87330 0.17253 0.62700 -0.64300
O 	O 	0.63590 0.17468 0.60560 -0.60800
O 	O 	0.37260 0.14621 0.61860 -0.61000
O 	O 	0.13850 0.14690 0.64220 -0.65000
O 	O 	0.12410 0.08808 0.45410 -0.66000
O 	O 	0.88810 0.09062 0.47580 -0.61100
O 	O 	0.61130 0.06473 0.46300 -0.62000
O 	O 	0.38320 0.06232 0.43760 -0.64300
O 	O 	0.36860 0.01290 0.63250 -0.67400
O 	O 	0.13670 0.01220 0.60950 -0.63300
O 	O 	0.11700 0.05679 0.39090 -0.64400
O 	O 	0.87630 0.05614 0.41140 -0.64000
C 	C 	0.50200 0.11960 0.42800 0.52300
C 	C 	0.63750 0.15481 0.42480 -0.01700
H 	H 	0.72760 0.14710 0.42400 0.05000
C 	C 	0.63870 0.17748 0.42290 0.03700
H 	H 	0.72960 0.18490 0.42090 0.03000
C 	C 	0.50400 0.18902 0.42400 -0.18200
C 	C 	0.36810 0.17789 0.42700 0.03100
H 	H 	0.27800 0.18560 0.42780 0.02800
C 	C 	0.36690 0.15522 0.42890 -0.01300
H 	H 	0.27600 0.14780 0.43090 0.04400
C 	C 	0.50160 0.14368 0.42780 -0.12600
C 	C 	0.50100 0.21280 0.41780 0.59900
C 	C 	0.98000 0.22970 0.46990 0.57500
C 	C 	0.82620 0.19173 0.56740 -0.16300
C 	C 	0.72600 0.19828 0.53800 0.02900
H 	H 	0.62530 0.19420 0.53950 0.04000
C 	C 	0.77640 0.21092 0.50640 -0.01600
H 	H 	0.70940 0.21530 0.48680 0.04500
C 	C 	0.92690 0.21700 0.50420 -0.11200
C 	C 	0.02710 0.21045 0.53360 -0.07200
H 	H 	0.12780 0.21450 0.53210 0.07200
C 	C 	0.97670 0.19782 0.56520 0.09200
H 	H 	0.04370 0.19340 0.58490 -0.00700
C 	C 	0.77300 0.17880 0.60290 0.53200
C 	C 	0.23600 0.14170 0.61640 0.48700
C 	C 	0.98060 0.11141 0.54410 0.16100
H 	H 	0.87930 0.10790 0.54110 -0.00200
C 	C 	0.08440 0.10494 0.51550 -0.23000
C 	C 	0.23570 0.11019 0.52000 0.08900
H 	H 	0.30510 0.10590 0.50090 0.00600
C 	C 	0.28310 0.12191 0.55310 -0.08600
H 	H 	0.38440 0.12540 0.55610 0.07900
C 	C 	0.17930 0.12838 0.58160 -0.04500
C 	C 	0.02800 0.12313 0.57710 -0.16700
H 	H 	0.95860 0.12750 0.59620 0.10800
C 	C 	0.02200 0.09400 0.47930 0.53400
C 	C 	0.47800 0.05897 0.46490 0.54700
C 	C 	0.52630 0.04448 0.53220 0.01200
H 	H 	0.62560 0.04920 0.53040 0.04500
C 	C 	0.47710 0.03366 0.56600 0.00700
H 	H 	0.54340 0.03120 0.58690 0.03200
C 	C 	0.32880 0.02658 0.56870 -0.14500
C 	C 	0.22970 0.03033 0.53750 0.00200
H 	H 	0.13040 0.02560 0.53930 0.04200
C 	C 	0.27890 0.04114 0.50360 0.01400
H 	H 	0.21260 0.04360 0.48280 0.03000
C 	C 	0.42730 0.04822 0.50100 -0.15800
C 	C 	0.27400 0.01630 0.60650 0.56200
C 	C 	0.99600 0.04706 0.39920 0.52700
C 	C 	0.99840 0.02238 0.39780 -0.06300
C 	C 	0.13300 0.01144 0.39660 -0.07900
H 	H 	0.22270 0.01920 0.39520 0.06900
C 	C 	0.13600 0.98896 0.39760 0.06100
H 	H 	0.22720 0.98150 0.39810 0.02100
Sc	Sc	0.74590 0.41670 0.42633 2.35000
Sc	Sc	0.24900 0.41670 0.40467 2.35000
O 	O 	0.87870 0.38973 0.43850 -0.62500
O 	O 	0.12030 0.39017 0.41980 -0.64500
O 	O 	0.87900 0.27819 0.40780 -0.64600
O 	O 	0.11200 0.27704 0.42710 -0.66800
O 	O 	0.38380 0.26600 0.46770 -0.63100
O 	O 	0.61790 0.26240 0.44780 -0.67700
O 	O 	0.62670 0.32747 0.62700 -0.64500
O 	O 	0.86410 0.32532 0.60560 -0.60000
O 	O 	0.12740 0.35379 0.61860 -0.62000
O 	O 	0.36150 0.35310 0.64220 -0.64900
O 	O 	0.37590 0.41192 0.45410 -0.65500
O 	O 	0.61190 0.40938 0.47580 -0.62500
O 	O 	0.88870 0.43527 0.46300 -0.61600
O 	O 	0.11680 0.43768 0.43760 -0.64700
O 	O 	0.13140 0.48710 0.63250 -0.67300
O 	O 	0.36330 0.48780 0.60950 -0.61900
O 	O 	0.38300 0.44321 0.39090 -0.62600
O 	O 	0.62370 0.44386 0.41140 -0.64200
C 	C 	0.99800 0.38040 0.42800 0.53000
C 	C 	0.86250 0.34519 0.42480 -0.01800
H 	H 	0.77240 0.35290 0.42400 0.04900
C 	C 	0.86130 0.32252 0.42290 0.03700
H 	H 	0.77040 0.31510 0.42090 0.02800
C 	C 	0.99600 0.31098 0.42400 -0.17900
C 	C 	0.13190 0.32211 0.42700 0.02800
H 	H 	0.22200 0.31440 0.42780 0.03100
C 	C 	0.13310 0.34478 0.42890 -0.01700
H 	H 	0.22400 0.35220 0.43090 0.04700
C 	C 	0.99840 0.35632 0.42780 -0.12300
C 	C 	0.99900 0.28720 0.41780 0.60700
C 	C 	0.52000 0.27030 0.46990 0.58300
C 	C 	0.67380 0.30827 0.56740 -0.11000
C 	C 	0.77400 0.30172 0.53800 -0.02200
H 	H 	0.87470 0.30580 0.53950 0.05900
C 	C 	0.72360 0.28908 0.50640 0.03600
H 	H 	0.79060 0.28470 0.48680 0.02800
C 	C 	0.57310 0.28300 0.50420 -0.17500
C 	C 	0.47290 0.28955 0.53360 0.03300
H 	H 	0.37220 0.28550 0.53210 0.03700
C 	C 	0.52330 0.30218 0.56520 -0.02100
H 	H 	0.45630 0.30660 0.58490 0.04200
C 	C 	0.72700 0.32120 0.60290 0.51300
C 	C 	0.26400 0.35830 0.61640 0.51600
C 	C 	0.51940 0.38859 0.54410 0.00300
H 	H 	0.62070 0.39210 0.54110 0.04900
C 	C 	0.41560 0.39506 0.51550 -0.14000
C 	C 	0.26430 0.38981 0.52000 0.01400
H 	H 	0.19490 0.39410 0.50090 0.03100
C 	C 	0.21690 0.37809 0.55310 -0.01000
H 	H 	0.11560 0.37460 0.55610 0.05100
C 	C 	0.32070 0.37162 0.58160 -0.12500
C 	C 	0.47200 0.37687 0.57710 0.00100
H 	H 	0.54140 0.37250 0.59620 0.03500
C 	C 	0.47800 0.40600 0.47930 0.53500
C 	C 	0.02200 0.44103 0.46490 0.55700
C 	C 	0.97370 0.45552 0.53220 0.12500
H 	H 	0.87440 0.45080 0.53040 0.00700
C 	C 	0.02290 0.46634 0.56600 -0.11300
H 	H 	0.95660 0.46880 0.58690 0.08300
C 	C 	0.17120 0.47342 0.56870 -0.08600
C 	C 	0.27030 0.46967 0.53750 -0.05400
H 	H 	0.36960 0.47440 0.53930 0.06600
C 	C 	0.22110 0.45886 0.50360 0.07100
H 	H 	0.28740 0.45640 0.48280 0.01400
C 	C 	0.07270 0.45178 0.50100 -0.22500
C 	C 	0.22600 0.48370 0.60650 0.54000
C 	C 	0.50400 0.45294 0.39920 0.51700
C 	C 	0.50160 0.47762 0.39780 -0.12600
C 	C 	0.36700 0.48856 0.39660 0.00100
H 	H 	0.27730 0.48080 0.39520 0.04300
C 	C 	0.36400 0.51104 0.39760 0.00100
H 	H 	0.27280 0.51850 0.39810 0.03900
Sc	Sc	0.74590 0.91670 0.92633 2.34900
Sc	Sc	0.24900 0.91670 0.90467 2.35000
O 	O 	0.87870 0.88973 0.93850 -0.62500
O 	O 	0.12030 0.89017 0.91980 -0.64600
O 	O 	0.87900 0.77819 0.90780 -0.64600
O 	O 	0.11200 0.77704 0.92710 -0.66900
O 	O 	0.38380 0.76600 0.96770 -0.63200
O 	O 	0.61790 0.76240 0.94780 -0.67700
O 	O 	0.62670 0.82747 0.12700 -0.64500
O 	O 	0.86410 0.82532 0.10560 -0.60000
O 	O 	0.12740 0.85379 0.11860 -0.62000
O 	O 	0.36150 0.85310 0.14220 -0.64900
O 	O 	0.37590 0.91192 0.95410 -0.65400
O 	O 	0.61190 0.90938 0.97580 -0.62500
O 	O 	0.88870 0.93527 0.96300 -0.61700
O 	O 	0.11680 0.93768 0.93760 -0.64700
O 	O 	0.13140 0.98710 0.13250 -0.67300
O 	O 	0.36330 0.98780 0.10950 -0.61800
O 	O 	0.38300 0.94321 0.89090 -0.62600
O 	O 	0.62370 0.94386 0.91140 -0.64200
C 	C 	0.99800 0.88040 0.92800 0.53000
C 	C 	0.86250 0.84519 0.92480 -0.01800
H 	H 	0.77240 0.85290 0.92400 0.04800
C 	C 	0.86130 0.82252 0.92290 0.03600
H 	H 	0.77040 0.81510 0.92090 0.02800
C 	C 	0.99600 0.81098 0.92400 -0.18000
C 	C 	0.13190 0.82211 0.92700 0.02800
H 	H 	0.22200 0.81440 0.92780 0.03000
C 	C 	0.13310 0.84478 0.92890 -0.01800
H 	H 	0.22400 0.85220 0.93090 0.04700
C 	C 	0.99840 0.85632 0.92780 -0.12300
C 	C 	0.99900 0.78720 0.91780 0.60700
C 	C 	0.52000 0.77030 0.96990 0.58000
C 	C 	0.67380 0.80827 0.06740 -0.10700
C 	C 	0.77400 0.80172 0.03800 -0.02800
H 	H 	0.87470 0.80580 0.03950 0.06200
C 	C 	0.72360 0.78908 0.00640 0.04700
H 	H 	0.79060 0.78470 0.98680 0.02100
C 	C 	0.57310 0.78300 0.00420 -0.17400
C 	C 	0.47290 0.78955 0.03360 0.03400
H 	H 	0.37220 0.78550 0.03210 0.03800
C 	C 	0.52330 0.80218 0.06520 -0.02300
H 	H 	0.45630 0.80660 0.08490 0.04300
C 	C 	0.72700 0.82120 0.10290 0.51200
C 	C 	0.26400 0.85830 0.11640 0.51700
C 	C 	0.51940 0.88859 0.04410 -0.00200
H 	H 	0.62070 0.89210 0.04110 0.05200
C 	C 	0.41560 0.89506 0.01550 -0.13100
C 	C 	0.26430 0.88981 0.02000 0.00900
H 	H 	0.19490 0.89410 0.00090 0.03400
C 	C 	0.21690 0.87809 0.05310 -0.00600
H 	H 	0.11560 0.87460 0.05610 0.05000
C 	C 	0.32070 0.87162 0.08160 -0.12700
C 	C 	0.47200 0.87687 0.07710 0.00500
H 	H 	0.54140 0.87250 0.09620 0.03400
C 	C 	0.47800 0.90600 0.97930 0.52900
C 	C 	0.02200 0.94103 0.96490 0.55300
C 	C 	0.97370 0.95552 0.03220 0.12600
H 	H 	0.87440 0.95080 0.03040 0.00800
C 	C 	0.02290 0.96634 0.06600 -0.11500
H 	H 	0.95660 0.96880 0.08690 0.08400
C 	C 	0.17120 0.97342 0.06870 -0.08300
C 	C 	0.27030 0.96967 0.03750 -0.06000
H 	H 	0.36960 0.97440 0.03930 0.07000
C 	C 	0.22110 0.95886 0.00360 0.08200
H 	H 	0.28740 0.95640 0.98280 0.00700
C 	C 	0.07270 0.95178 0.00100 -0.22500
C 	C 	0.22600 0.98370 0.10650 0.53900
C 	C 	0.50400 0.95294 0.89920 0.51700
C 	C 	0.50160 0.97762 0.89780 -0.12800
C 	C 	0.36700 0.98856 0.89660 0.00200
H 	H 	0.27730 0.98080 0.89520 0.04200
C 	C 	0.36400 0.01104 0.89760 -0.00100
H 	H 	0.27280 0.01850 0.89810 0.04000
Sc	Sc	0.24590 0.41670 0.92633 2.34900
Sc	Sc	0.74900 0.41670 0.90467 2.35000
O 	O 	0.37870 0.38973 0.93850 -0.62600
O 	O 	0.62030 0.39017 0.91980 -0.64000
O 	O 	0.37900 0.27819 0.90780 -0.64600
O 	O 	0.61200 0.27704 0.92710 -0.66300
O 	O 	0.88380 0.26600 0.96770 -0.62100
O 	O 	0.11790 0.26240 0.94780 -0.67900
O 	O 	0.12670 0.32747 0.12700 -0.64500
O 	O 	0.36410 0.32532 0.10560 -0.59900
O 	O 	0.62740 0.35379 0.11860 -0.62000
O 	O 	0.86150 0.35310 0.14220 -0.64900
O 	O 	0.87590 0.41192 0.95410 -0.65300
O 	O 	0.11190 0.40938 0.97580 -0.63600
O 	O 	0.38870 0.43527 0.96300 -0.62300
O 	O 	0.61680 0.43768 0.93760 -0.64200
O 	O 	0.63140 0.48710 0.13250 -0.67100
O 	O 	0.86330 0.48780 0.10950 -0.61500
O 	O 	0.88300 0.44321 0.89090 -0.61400
O 	O 	0.12370 0.44386 0.91140 -0.64500
C 	C 	0.49800 0.38040 0.92800 0.52300
C 	C 	0.36250 0.34519 0.92480 -0.01800
H 	H 	0.27240 0.35290 0.92400 0.04700
C 	C 	0.36130 0.32252 0.92290 0.03600
H 	H 	0.27040 0.31510 0.92090 0.02700
C 	C 	0.49600 0.31098 0.92400 -0.18200
C 	C 	0.63190 0.32211 0.92700 0.03100
H 	H 	0.72200 0.31440 0.92780 0.03100
C 	C 	0.63310 0.34478 0.92890 -0.01300
H 	H 	0.72400 0.35220 0.93090 0.04700
C 	C 	0.49840 0.35632 0.92780 -0.12600
C 	C 	0.49900 0.28720 0.91780 0.60000
C 	C 	0.02000 0.27030 0.96990 0.57700
C 	C 	0.17380 0.30827 0.06740 -0.07200
C 	C 	0.27400 0.30172 0.03800 -0.06400
H 	H 	0.37470 0.30580 0.03950 0.07300
C 	C 	0.22360 0.28908 0.00640 0.08100
H 	H 	0.29060 0.28470 0.98680 0.00800
C 	C 	0.07310 0.28300 0.00420 -0.21700
C 	C 	0.97290 0.28955 0.03360 0.10900
H 	H 	0.87220 0.28550 0.03210 0.01500
C 	C 	0.02330 0.30218 0.06520 -0.09900
H 	H 	0.95630 0.30660 0.08490 0.07600
C 	C 	0.22700 0.32120 0.10290 0.49900
C 	C 	0.76400 0.35830 0.11640 0.53000
C 	C 	0.01940 0.38859 0.04410 -0.07200
H 	H 	0.12070 0.39210 0.04110 0.07300
C 	C 	0.91560 0.39506 0.01550 -0.09200
C 	C 	0.76430 0.38981 0.02000 -0.02200
H 	H 	0.69490 0.39410 0.00090 0.04600
C 	C 	0.71690 0.37809 0.05310 0.02700
H 	H 	0.61560 0.37460 0.05610 0.04100
C 	C 	0.82070 0.37162 0.08160 -0.16100
C 	C 	0.97200 0.37687 0.07710 0.07800
H 	H 	0.04140 0.37250 0.09620 0.00300
C 	C 	0.97800 0.40600 0.97930 0.53300
C 	C 	0.52200 0.44103 0.96490 0.54400
C 	C 	0.47370 0.45552 0.03220 0.01800
H 	H 	0.37440 0.45080 0.03040 0.04100
C 	C 	0.52290 0.46634 0.06600 -0.00000
H 	H 	0.45660 0.46880 0.08690 0.03300
C 	C 	0.67120 0.47342 0.06870 -0.13500
C 	C 	0.77030 0.46967 0.03750 -0.00700
H 	H 	0.86960 0.47440 0.03930 0.05600
C 	C 	0.72110 0.45886 0.00360 0.03100
H 	H 	0.78740 0.45640 0.98280 0.02700
C 	C 	0.57270 0.45178 0.00100 -0.16000
C 	C 	0.72600 0.48370 0.10650 0.55800
C 	C 	0.00400 0.45294 0.89920 0.51600
C 	C 	0.00160 0.47762 0.89780 -0.18800
C 	C 	0.86700 0.48856 0.89660 0.07700
H 	H 	0.77730 0.48080 0.89520 0.02000
C 	C 	0.86400 0.51104 0.89760 -0.05700
H 	H 	0.77280 0.51850 0.89810 0.06200
Sc	Sc	0.24590 0.91670 0.42633 2.34900
Sc	Sc	0.74900 0.91670 0.40467 2.35000
O 	O 	0.37870 0.88973 0.43850 -0.62500
O 	O 	0.62030 0.89017 0.41980 -0.64000
O 	O 	0.37900 0.77819 0.40780 -0.64600
O 	O 	0.61200 0.77704 0.42710 -0.66200
O 	O 	0.88380 0.76600 0.46770 -0.62100
O 	O 	0.11790 0.76240 0.44780 -0.68000
O 	O 	0.12670 0.82747 0.62700 -0.64500
O 	O 	0.36410 0.82532 0.60560 -0.60000
O 	O 	0.62740 0.85379 0.61860 -0.62000
O 	O 	0.86150 0.85310 0.64220 -0.64800
O 	O 	0.87590 0.91192 0.45410 -0.65300
O 	O 	0.11190 0.90938 0.47580 -0.63600
O 	O 	0.38870 0.93527 0.46300 -0.62200
O 	O 	0.61680 0.93768 0.43760 -0.64200
O 	O 	0.63140 0.98710 0.63250 -0.67100
O 	O 	0.86330 0.98780 0.60950 -0.61500
O 	O 	0.88300 0.94321 0.39090 -0.61400
O 	O 	0.12370 0.94386 0.41140 -0.64500
C 	C 	0.49800 0.88040 0.42800 0.52300
C 	C 	0.36250 0.84519 0.42480 -0.01800
H 	H 	0.27240 0.85290 0.42400 0.04700
C 	C 	0.36130 0.82252 0.42290 0.03600
H 	H 	0.27040 0.81510 0.42090 0.02700
C 	C 	0.49600 0.81098 0.42400 -0.18100
C 	C 	0.63190 0.82211 0.42700 0.03200
H 	H 	0.72200 0.81440 0.42780 0.03200
C 	C 	0.63310 0.84478 0.42890 -0.01300
H 	H 	0.72400 0.85220 0.43090 0.04800
C 	C 	0.49840 0.85632 0.42780 -0.12600
C 	C 	0.49900 0.78720 0.41780 0.60000
C 	C 	0.02000 0.77030 0.46990 0.58000
C 	C 	0.17380 0.80827 0.56740 -0.07500
C 	C 	0.27400 0.80172 0.53800 -0.05800
H 	H 	0.37470 0.80580 0.53950 0.07000
C 	C 	0.22360 0.78908 0.50640 0.07000
H 	H 	0.29060 0.78470 0.48680 0.01600
C 	C 	0.07310 0.78300 0.50420 -0.21800
C 	C 	0.97290 0.78955 0.53360 0.10800
H 	H 	0.87220 0.78550 0.53210 0.01400
C 	C 	0.02330 0.80218 0.56520 -0.09800
H 	H 	0.95630 0.80660 0.58490 0.07500
C 	C 	0.22700 0.82120 0.60290 0.49900
C 	C 	0.76400 0.85830 0.61640 0.52900
C 	C 	0.01940 0.88859 0.54410 -0.06800
H 	H 	0.12070 0.89210 0.54110 0.07000
C 	C 	0.91560 0.89506 0.51550 -0.10000
C 	C 	0.76430 0.88981 0.52000 -0.01700
H 	H 	0.69490 0.89410 0.50090 0.04200
C 	C 	0.71690 0.87809 0.55310 0.02300
H 	H 	0.61560 0.87460 0.55610 0.04100
C 	C 	0.82070 0.87162 0.58160 -0.15800
C 	C 	0.97200 0.87687 0.57710 0.07400
H 	H 	0.04140 0.87250 0.59620 0.00400
C 	C 	0.97800 0.90600 0.47930 0.54000
C 	C 	0.52200 0.94103 0.46490 0.54800
C 	C 	0.47370 0.95552 0.53220 0.01700
H 	H 	0.37440 0.95080 0.53040 0.04000
C 	C 	0.52290 0.96634 0.56600 0.00200
H 	H 	0.45660 0.96880 0.58690 0.03200
C 	C 	0.67120 0.97342 0.56870 -0.13800
C 	C 	0.77030 0.96967 0.53750 -0.00100
H 	H 	0.86960 0.97440 0.53930 0.05300
C 	C 	0.72110 0.95886 0.50360 0.02000
H 	H 	0.78740 0.95640 0.48280 0.03500
C 	C 	0.57270 0.95178 0.50100 -0.16100
C 	C 	0.72600 0.98370 0.60650 0.55900
C 	C 	0.00400 0.95294 0.39920 0.51700
C 	C 	0.00160 0.97762 0.39780 -0.18900
C 	C 	0.86700 0.98856 0.39660 0.07900
H 	H 	0.77730 0.98080 0.39520 0.02000
C 	C 	0.86400 0.01104 0.39760 -0.05800
H 	H 	0.77280 0.01850 0.39810 0.06300
Sc	Sc	0.50410 0.66670 0.67633 2.34900
Sc	Sc	0.00100 0.66670 0.65467 2.34700
O 	O 	0.37130 0.63973 0.68850 -0.62400
O 	O 	0.12970 0.64017 0.66980 -0.64600
O 	O 	0.37100 0.52819 0.65780 -0.64600
O 	O 	0.13800 0.52704 0.67710 -0.66900
O 	O 	0.86620 0.51600 0.71770 -0.62000
O 	O 	0.63210 0.51240 0.69780 -0.67500
O 	O 	0.62330 0.57747 0.87700 -0.64600
O 	O 	0.38590 0.57532 0.85560 -0.60500
O 	O 	0.12260 0.60379 0.86860 -0.63200
O 	O 	0.88850 0.60310 0.89220 -0.64400
O 	O 	0.87410 0.66192 0.70410 -0.65300
O 	O 	0.63810 0.65938 0.72580 -0.63400
O 	O 	0.36130 0.68527 0.71300 -0.61600
O 	O 	0.13320 0.68768 0.68760 -0.64400
O 	O 	0.11860 0.73710 0.88250 -0.67600
O 	O 	0.88670 0.73780 0.85950 -0.61900
O 	O 	0.86700 0.69321 0.64090 -0.61800
O 	O 	0.62630 0.69386 0.66140 -0.64200
C 	C 	0.25200 0.63040 0.67800 0.52500
C 	C 	0.38750 0.59519 0.67480 -0.01700
H 	H 	0.47760 0.60290 0.67400 0.04900
C 	C 	0.38870 0.57252 0.67290 0.03600
H 	H 	0.47960 0.56510 0.67090 0.02900
C 	C 	0.25400 0.56098 0.67400 -0.18400
C 	C 	0.11810 0.57211 0.67700 0.03000
H 	H 	0.02800 0.56440 0.67780 0.02300
C 	C 	0.11690 0.59478 0.67890 -0.01400
H 	H 	0.02600 0.60220 0.68090 0.03900
C 	C 	0.25160 0.60632 0.67780 -0.12900
C 	C 	0.25100 0.53720 0.66780 0.60100
C 	C 	0.73000 0.52030 0.71990 0.58100
C 	C 	0.57620 0.55827 0.81740 -0.11400
C 	C 	0.47600 0.55172 0.78800 -0.01900
H 	H 	0.37530 0.55580 0.78950 0.05400
C 	C 	0.52640 0.53908 0.75640 0.03100
H 	H 	0.45940 0.53470 0.73680 0.02800
C 	C 	0.67690 0.53300 0.75420 -0.16900
C 	C 	0.77710 0.53955 0.78360 0.02900
H 	H 	0.87780 0.53550 0.78210 0.04500
C 	C 	0.72670 0.55218 0.81520 -0.01600
H 	H 	0.79370 0.55660 0.83490 0.04300
C 	C 	0.52300 0.57120 0.85290 0.51400
C 	C 	0.98600 0.60830 0.86640 0.51700
C 	C 	0.73060 0.63859 0.79410 0.07600
H 	H 	0.62930 0.64210 0.79110 0.02300
C 	C 	0.83440 0.64506 0.76550 -0.21600
C 	C 	0.98570 0.63981 0.77000 0.17500
H 	H 	0.05510 0.64410 0.75090 -0.03700
C 	C 	0.03310 0.62809 0.80310 -0.16000
H 	H 	0.13440 0.62460 0.80610 0.10100
C 	C 	0.92930 0.62162 0.83160 -0.03700
C 	C 	0.77800 0.62687 0.82710 -0.07100
H 	H 	0.70860 0.62250 0.84620 0.06000
C 	C 	0.77200 0.65600 0.72930 0.56400
C 	C 	0.22800 0.69103 0.71490 0.52600
C 	C 	0.27630 0.70552 0.78220 -0.03600
H 	H 	0.37560 0.70080 0.78040 0.06000
C 	C 	0.22710 0.71634 0.81600 0.05300
H 	H 	0.29340 0.71880 0.83690 0.01500
C 	C 	0.07880 0.72342 0.81870 -0.20000
C 	C 	0.97970 0.71967 0.78750 0.10100
H 	H 	0.88040 0.72440 0.78930 0.01500
C 	C 	0.02890 0.70886 0.75360 -0.09200
H 	H 	0.96260 0.70640 0.73280 0.08100
C 	C 	0.17730 0.70178 0.75100 -0.10700
C 	C 	0.02400 0.73370 0.85650 0.56800
C 	C 	0.74600 0.70294 0.64920 0.51500
C 	C 	0.74840 0.72762 0.64780 -0.12400
C 	C 	0.88300 0.73856 0.64660 -0.00000
H 	H 	0.97270 0.73080 0.64520 0.05000
C 	C 	0.88600 0.76104 0.64760 0.00300
H 	H 	0.97720 0.76850 0.64810 0.04400
Sc	Sc	0.50410 0.16670 0.17633 2.34900
Sc	Sc	0.00100 0.16670 0.15467 2.34700
O 	O 	0.37130 0.13973 0.18850 -0.62400
O 	O 	0.12970 0.14017 0.16980 -0.64600
O 	O 	0.37100 0.02819 0.15780 -0.64600
O 	O 	0.13800 0.02704 0.17710 -0.66900
O 	O 	0.86620 0.01600 0.21770 -0.62000
O 	O 	0.63210 0.01240 0.19780 -0.67500
O 	O 	0.62330 0.07747 0.37700 -0.64600
O 	O 	0.38590 0.07532 0.35560 -0.60500
O 	O 	0.12260 0.10379 0.36860 -0.63200
O 	O 	0.88850 0.10310 0.39220 -0.64300
O 	O 	0.87410 0.16192 0.20410 -0.65300
O 	O 	0.63810 0.15938 0.22580 -0.63400
O 	O 	0.36130 0.18527 0.21300 -0.61600
O 	O 	0.13320 0.18768 0.18760 -0.64400
O 	O 	0.11860 0.23710 0.38250 -0.67600
O 	O 	0.88670 0.23780 0.35950 -0.61900
O 	O 	0.86700 0.19321 0.14090 -0.61800
O 	O 	0.62630 0.19386 0.16140 -0.64200
C 	C 	0.25200 0.13040 0.17800 0.52500
C 	C 	0.38750 0.09519 0.17480 -0.01700
H 	H 	0.47760 0.10290 0.17400 0.05000
C 	C 	0.38870 0.07252 0.17290 0.03600
H 	H 	0.47960 0.06510 0.17090 0.02900
C 	C 	0.25400 0.06098 0.17400 -0.18400
C 	C 	0.11810 0.07211 0.17700 0.03100
H 	H 	0.02800 0.06440 0.17780 0.02300
C 	C 	0.11690 0.09478 0.17890 -0.01400
H 	H 	0.02600 0.10220 0.18090 0.03900
C 	C 	0.25160 0.10632 0.17780 -0.12800
C 	C 	0.25100 0.03720 0.16780 0.60100
C 	C 	0.73000 0.02030 0.21990 0.58100
C 	C 	0.57620 0.05827 0.31740 -0.11400
C 	C 	0.47600 0.05172 0.28800 -0.01900
H 	H 	0.37530 0.05580 0.28950 0.05400
C 	C 	0.52640 0.03908 0.25640 0.03100
H 	H 	0.45940 0.03470 0.23680 0.02800
C 	C 	0.67690 0.03300 0.25420 -0.16900
C 	C 	0.77710 0.03955 0.28360 0.02900
H 	H 	0.87780 0.03550 0.28210 0.04500
C 	C 	0.72670 0.05218 0.31520 -0.01600
H 	H 	0.79370 0.05660 0.33490 0.04300
C 	C 	0.52300 0.07120 0.35290 0.51400
C 	C 	0.98600 0.10830 0.36640 0.51700
C 	C 	0.73060 0.13859 0.29410 0.07600
H 	H 	0.62930 0.14210 0.29110 0.02300
C 	C 	0.83440 0.14506 0.26550 -0.21600
C 	C 	0.98570 0.13981 0.27000 0.17500
H 	H 	0.05510 0.14410 0.25090 -0.03700
C 	C 	0.03310 0.12809 0.30310 -0.16000
H 	H 	0.13440 0.12460 0.30610 0.10100
C 	C 	0.92930 0.12162 0.33160 -0.03700
C 	C 	0.77800 0.12687 0.32710 -0.07100
H 	H 	0.70860 0.12250 0.34620 0.06000
C 	C 	0.77200 0.15600 0.22930 0.56400
C 	C 	0.22800 0.19103 0.21490 0.52600
C 	C 	0.27630 0.20552 0.28220 -0.03600
H 	H 	0.37560 0.20080 0.28040 0.06000
C 	C 	0.22710 0.21634 0.31600 0.05300
H 	H 	0.29340 0.21880 0.33690 0.01500
C 	C 	0.07880 0.22342 0.31870 -0.20000
C 	C 	0.97970 0.21967 0.28750 0.10100
H 	H 	0.88040 0.22440 0.28930 0.01500
C 	C 	0.02890 0.20886 0.25360 -0.09200
H 	H 	0.96260 0.20640 0.23280 0.08100
C 	C 	0.17730 0.20178 0.25100 -0.10700
C 	C 	0.02400 0.23370 0.35650 0.56800
C 	C 	0.74600 0.20294 0.14920 0.51500
C 	C 	0.74840 0.22762 0.14780 -0.12400
C 	C 	0.88300 0.23856 0.14660 0.00000
H 	H 	0.97270 0.23080 0.14520 0.05000
C 	C 	0.88600 0.26104 0.14760 0.00300
H 	H 	0.97720 0.26850 0.14810 0.04400
Sc	Sc	0.00410 0.66670 0.17633 2.34700
Sc	Sc	0.50100 0.66670 0.15467 2.35000
O 	O 	0.87130 0.63973 0.18850 -0.61600
O 	O 	0.62970 0.64017 0.16980 -0.63900
O 	O 	0.87100 0.52819 0.15780 -0.63800
O 	O 	0.63800 0.52704 0.17710 -0.66200
O 	O 	0.36620 0.51600 0.21770 -0.62200
O 	O 	0.13210 0.51240 0.19780 -0.67600
O 	O 	0.12330 0.57747 0.37700 -0.65100
O 	O 	0.88590 0.57532 0.35560 -0.58600
O 	O 	0.62260 0.60379 0.36860 -0.61500
O 	O 	0.38850 0.60310 0.39220 -0.64800
O 	O 	0.37410 0.66192 0.20410 -0.65700
O 	O 	0.13810 0.65938 0.22580 -0.63500
O 	O 	0.86130 0.68527 0.21300 -0.61200
O 	O 	0.63320 0.68768 0.18760 -0.64100
O 	O 	0.61860 0.73710 0.38250 -0.67200
O 	O 	0.38670 0.73780 0.35950 -0.62500
O 	O 	0.36700 0.69321 0.14090 -0.62600
O 	O 	0.12630 0.69386 0.16140 -0.64800
C 	C 	0.75200 0.63040 0.17800 0.52100
C 	C 	0.88750 0.59519 0.17480 -0.01600
H 	H 	0.97760 0.60290 0.17400 0.05600
C 	C 	0.88870 0.57252 0.17290 0.03700
H 	H 	0.97960 0.56510 0.17090 0.03600
C 	C 	0.75400 0.56098 0.17400 -0.17900
C 	C 	0.61810 0.57211 0.17700 0.03200
H 	H 	0.52800 0.56440 0.17780 0.02900
C 	C 	0.61690 0.59478 0.17890 -0.01300
H 	H 	0.52600 0.60220 0.18090 0.04500
C 	C 	0.75160 0.60632 0.17780 -0.12400
C 	C 	0.75100 0.53720 0.16780 0.59700
C 	C 	0.23000 0.52030 0.21990 0.54800
C 	C 	0.07620 0.55827 0.31740 -0.20800
C 	C 	0.97600 0.55172 0.28800 0.14600
H 	H 	0.87530 0.55580 0.28950 0.00400
C 	C 	0.02640 0.53908 0.25640 -0.14400
H 	H 	0.95940 0.53470 0.23680 0.10400
C 	C 	0.17690 0.53300 0.25420 -0.08700
C 	C 	0.27710 0.53955 0.28360 -0.05000
H 	H 	0.37780 0.53550 0.28210 0.06600
C 	C 	0.22670 0.55218 0.31520 0.06000
H 	H 	0.29370 0.55660 0.33490 0.01500
C 	C 	0.02300 0.57120 0.35290 0.51300
C 	C 	0.48600 0.60830 0.36640 0.51500
C 	C 	0.23060 0.63859 0.29410 0.00600
H 	H 	0.12930 0.64210 0.29110 0.04100
C 	C 	0.33440 0.64506 0.26550 -0.14500
C 	C 	0.48570 0.63981 0.27000 0.01900
H 	H 	0.55510 0.64410 0.25090 0.03100
C 	C 	0.53310 0.62809 0.30310 -0.01400
H 	H 	0.63440 0.62460 0.30610 0.05700
C 	C 	0.42930 0.62162 0.33160 -0.12100
C 	C 	0.27800 0.62687 0.32710 -0.00400
H 	H 	0.20860 0.62250 0.34620 0.03500
C 	C 	0.27200 0.65600 0.22930 0.53800
C 	C 	0.72800 0.69103 0.21490 0.54500
C 	C 	0.77630 0.70552 0.28220 0.01300
H 	H 	0.87560 0.70080 0.28040 0.04900
C 	C 	0.72710 0.71634 0.31600 0.00700
H 	H 	0.79340 0.71880 0.33690 0.03400
C 	C 	0.57880 0.72342 0.31870 -0.14300
C 	C 	0.47970 0.71967 0.28750 0.00300
H 	H 	0.38040 0.72440 0.28930 0.04500
C 	C 	0.52890 0.70886 0.25360 0.01400
H 	H 	0.46260 0.70640 0.23280 0.03300
C 	C 	0.67730 0.70178 0.25100 -0.15600
C 	C 	0.52400 0.73370 0.35650 0.56200
C 	C 	0.24600 0.70294 0.14920 0.51900
C 	C 	0.24840 0.72762 0.14780 -0.12900
C 	C 	0.38300 0.73856 0.14660 0.00300
H 	H 	0.47270 0.73080 0.14520 0.04500
C 	C 	0.38600 0.76104 0.14760 -0.00100
H 	H 	0.47720 0.76850 0.14810 0.04300
Sc	Sc	0.00410 0.16670 0.67633 2.34700
Sc	Sc	0.50100 0.16670 0.65467 2.35000
O 	O 	0.87130 0.13973 0.68850 -0.61600
O 	O 	0.62970 0.14017 0.66980 -0.63900
O 	O 	0.87100 0.02819 0.65780 -0.63900
O 	O 	0.63800 0.02704 0.67710 -0.66200
O 	O 	0.36620 0.01600 0.71770 -0.62200
O 	O 	0.13210 0.01240 0.69780 -0.67600
O 	O 	0.12330 0.07747 0.87700 -0.65100
O 	O 	0.88590 0.07532 0.85560 -0.58600
O 	O 	0.62260 0.10379 0.86860 -0.61500
O 	O 	0.38850 0.10310 0.89220 -0.64800
O 	O 	0.37410 0.16192 0.70410 -0.65700
O 	O 	0.13810 0.15938 0.72580 -0.63500
O 	O 	0.86130 0.18527 0.71300 -0.61200
O 	O 	0.63320 0.18768 0.68760 -0.64100
O 	O 	0.61860 0.23710 0.88250 -0.67200
O 	O 	0.38670 0.23780 0.85950 -0.62500
O 	O 	0.36700 0.19321 0.64090 -0.62600
O 	O 	0.12630 0.19386 0.66140 -0.64800
C 	C 	0.75200 0.13040 0.67800 0.52100
C 	C 	0.88750 0.09519 0.67480 -0.01600
H 	H 	0.97760 0.10290 0.67400 0.05600
C 	C 	0.88870 0.07252 0.67290 0.03700
H 	H 	0.97960 0.06510 0.67090 0.03500
C 	C 	0.75400 0.06098 0.67400 -0.17900
C 	C 	0.61810 0.07211 0.67700 0.03200
H 	H 	0.52800 0.06440 0.67780 0.02900
C 	C 	0.61690 0.09478 0.67890 -0.01300
H 	H 	0.52600 0.10220 0.68090 0.04500
C 	C 	0.75160 0.10632 0.67780 -0.12400
C 	C 	0.75100 0.03720 0.66780 0.59700
C 	C 	0.23000 0.02030 0.71990 0.54800
C 	C 	0.07620 0.05827 0.81740 -0.20800
C 	C 	0.97600 0.05172 0.78800 0.14600
H 	H 	0.87530 0.05580 0.78950 0.00400
C 	C 	0.02640 0.03908 0.75640 -0.14300
H 	H 	0.95940 0.03470 0.73680 0.10400
C 	C 	0.17690 0.03300 0.75420 -0.08800
C 	C 	0.27710 0.03955 0.78360 -0.05000
H 	H 	0.37780 0.03550 0.78210 0.06600
C 	C 	0.22670 0.05218 0.81520 0.05900
H 	H 	0.29370 0.05660 0.83490 0.01500
C 	C 	0.02300 0.07120 0.85290 0.51300
C 	C 	0.48600 0.10830 0.86640 0.51500
C 	C 	0.23060 0.13859 0.79410 0.00600
H 	H 	0.12930 0.14210 0.79110 0.04100
C 	C 	0.33440 0.14506 0.76550 -0.14500
C 	C 	0.48570 0.13981 0.77000 0.01900
H 	H 	0.55510 0.14410 0.75090 0.03100
C 	C 	0.53310 0.12809 0.80310 -0.01400
H 	H 	0.63440 0.12460 0.80610 0.05700
C 	C 	0.42930 0.12162 0.83160 -0.12100
C 	C 	0.27800 0.12687 0.82710 -0.00400
H 	H 	0.20860 0.12250 0.84620 0.03500
C 	C 	0.27200 0.15600 0.72930 0.53800
C 	C 	0.72800 0.19103 0.71490 0.54500
C 	C 	0.77630 0.20552 0.78220 0.01300
H 	H 	0.87560 0.20080 0.78040 0.04900
C 	C 	0.72710 0.21634 0.81600 0.00700
H 	H 	0.79340 0.21880 0.83690 0.03400
C 	C 	0.57880 0.22342 0.81870 -0.14300
C 	C 	0.47970 0.21967 0.78750 0.00300
H 	H 	0.38040 0.22440 0.78930 0.04600
C 	C 	0.52890 0.20886 0.75360 0.01400
H 	H 	0.46260 0.20640 0.73280 0.03300
C 	C 	0.67730 0.20178 0.75100 -0.15600
C 	C 	0.52400 0.23370 0.85650 0.56200
C 	C 	0.24600 0.20294 0.64920 0.51900
C 	C 	0.24840 0.22762 0.64780 -0.12900
C 	C 	0.38300 0.23856 0.64660 0.00300
H 	H 	0.47270 0.23080 0.64520 0.04400
C 	C 	0.38600 0.26104 0.64760 -0.00100
H 	H 	0.47720 0.26850 0.64810 0.04300
Sc	Sc	0.99590 0.83330 0.67633 2.35000
Sc	Sc	0.49900 0.83330 0.65467 2.35000
O 	O 	0.12870 0.86027 0.68850 -0.62600
O 	O 	0.37030 0.85983 0.66980 -0.64000
O 	O 	0.12900 0.97181 0.65780 -0.65000
O 	O 	0.36200 0.97296 0.67710 -0.66300
O 	O 	0.63380 0.98400 0.71770 -0.63500
O 	O 	0.86790 0.98760 0.69780 -0.67500
O 	O 	0.87670 0.92253 0.87700 -0.64200
O 	O 	0.11410 0.92468 0.85560 -0.60800
O 	O 	0.37740 0.89621 0.86860 -0.61800
O 	O 	0.61150 0.89690 0.89220 -0.64900
O 	O 	0.62590 0.83808 0.70410 -0.65500
O 	O 	0.86190 0.84062 0.72580 -0.62400
O 	O 	0.13870 0.81473 0.71300 -0.62400
O 	O 	0.36680 0.81232 0.68760 -0.64300
O 	O 	0.38140 0.76290 0.88250 -0.67200
O 	O 	0.61330 0.76220 0.85950 -0.62300
O 	O 	0.63300 0.80679 0.64090 -0.62600
O 	O 	0.87370 0.80614 0.66140 -0.64000
C 	C 	0.24800 0.86960 0.67800 0.52400
C 	C 	0.11250 0.90481 0.67480 -0.01900
H 	H 	0.02240 0.89710 0.67400 0.04700
C 	C 	0.11130 0.92748 0.67290 0.03700
H 	H 	0.02040 0.93490 0.67090 0.02400
C 	C 	0.24600 0.93902 0.67400 -0.18400
C 	C 	0.38190 0.92789 0.67700 0.03300
H 	H 	0.47200 0.93560 0.67780 0.03000
C 	C 	0.38310 0.90522 0.67890 -0.01400
H 	H 	0.47400 0.89780 0.68090 0.04700
C 	C 	0.24840 0.89368 0.67780 -0.12600
C 	C 	0.24900 0.96280 0.66780 0.60200
C 	C 	0.77000 0.97970 0.71990 0.60400
C 	C 	0.92380 0.94173 0.81740 -0.05200
C 	C 	0.02400 0.94828 0.78800 -0.12300
H 	H 	0.12470 0.94420 0.78950 0.09000
C 	C 	0.97360 0.96092 0.75640 0.14500
H 	H 	0.04060 0.96530 0.73680 -0.02000
C 	C 	0.82310 0.96700 0.75420 -0.22600
C 	C 	0.72290 0.96045 0.78360 0.08200
H 	H 	0.62220 0.96450 0.78210 0.02100
C 	C 	0.77330 0.94782 0.81520 -0.06900
H 	H 	0.70630 0.94340 0.83490 0.05900
C 	C 	0.97700 0.92880 0.85290 0.50700
C 	C 	0.51400 0.89170 0.86640 0.51600
C 	C 	0.76940 0.86141 0.79410 0.00300
H 	H 	0.87070 0.85790 0.79110 0.05000
C 	C 	0.66560 0.85494 0.76550 -0.13900
C 	C 	0.51430 0.86019 0.77000 0.01500
H 	H 	0.44490 0.85590 0.75090 0.03100
C 	C 	0.46690 0.87191 0.80310 -0.01000
H 	H 	0.36560 0.87540 0.80610 0.05200
C 	C 	0.57070 0.87838 0.83160 -0.12400
C 	C 	0.72200 0.87313 0.82710 0.00100
H 	H 	0.79140 0.87750 0.84620 0.03600
C 	C 	0.72800 0.84400 0.72930 0.53500
C 	C 	0.27200 0.80897 0.71490 0.54800
C 	C 	0.22370 0.79448 0.78220 0.01500
H 	H 	0.12440 0.79920 0.78040 0.04100
C 	C 	0.27290 0.78366 0.81600 0.00300
H 	H 	0.20660 0.78120 0.83690 0.03200
C 	C 	0.42120 0.77658 0.81870 -0.14100
C 	C 	0.52030 0.78033 0.78750 -0.00100
H 	H 	0.61960 0.77560 0.78930 0.04900
C 	C 	0.47110 0.79114 0.75360 0.01800
H 	H 	0.53740 0.79360 0.73280 0.03200
C 	C 	0.32270 0.79822 0.75100 -0.16100
C 	C 	0.47600 0.76630 0.85650 0.56100
C 	C 	0.75400 0.79706 0.64920 0.51700
C 	C 	0.75160 0.77238 0.64780 -0.12700
C 	C 	0.61700 0.76144 0.64660 0.00300
H 	H 	0.52730 0.76920 0.64520 0.04400
C 	C 	0.61400 0.73896 0.64760 -0.00100
H 	H 	0.52280 0.73150 0.64810 0.04200
Sc	Sc	0.99590 0.33330 0.17633 2.35000
Sc	Sc	0.49900 0.33330 0.15467 2.35000
O 	O 	0.12870 0.36027 0.18850 -0.62600
O 	O 	0.37030 0.35983 0.16980 -0.64000
O 	O 	0.12900 0.47181 0.15780 -0.65000
O 	O 	0.36200 0.47296 0.17710 -0.66300
O 	O 	0.63380 0.48400 0.21770 -0.63600
O 	O 	0.86790 0.48760 0.19780 -0.67500
O 	O 	0.87670 0.42253 0.37700 -0.64200
O 	O 	0.11410 0.42468 0.35560 -0.60800
O 	O 	0.37740 0.39621 0.36860 -0.61800
O 	O 	0.61150 0.39690 0.39220 -0.64900
O 	O 	0.62590 0.33808 0.20410 -0.65500
O 	O 	0.86190 0.34062 0.22580 -0.62400
O 	O 	0.13870 0.31473 0.21300 -0.62400
O 	O 	0.36680 0.31232 0.18760 -0.64300
O 	O 	0.38140 0.26290 0.38250 -0.67200
O 	O 	0.61330 0.26220 0.35950 -0.62300
O 	O 	0.63300 0.30679 0.14090 -0.62600
O 	O 	0.87370 0.30614 0.16140 -0.64000
C 	C 	0.24800 0.36960 0.17800 0.52400
C 	C 	0.11250 0.40481 0.17480 -0.01900
H 	H 	0.02240 0.39710 0.17400 0.04700
C 	C 	0.11130 0.42748 0.17290 0.03700
H 	H 	0.02040 0.43490 0.17090 0.02400
C 	C 	0.24600 0.43902 0.17400 -0.18400
C 	C 	0.38190 0.42789 0.17700 0.03300
H 	H 	0.47200 0.43560 0.17780 0.03000
C 	C 	0.38310 0.40522 0.17890 -0.01400
H 	H 	0.47400 0.39780 0.18090 0.04700
C 	C 	0.24840 0.39368 0.17780 -0.12600
C 	C 	0.24900 0.46280 0.16780 0.60200
C 	C 	0.77000 0.47970 0.21990 0.60400
C 	C 	0.92380 0.44173 0.31740 -0.05200
C 	C 	0.02400 0.44828 0.28800 -0.12300
H 	H 	0.12470 0.44420 0.28950 0.09000
C 	C 	0.97360 0.46092 0.25640 0.14500
H 	H 	0.04060 0.46530 0.23680 -0.02100
C 	C 	0.82310 0.46700 0.25420 -0.22700
C 	C 	0.72290 0.46045 0.28360 0.08200
H 	H 	0.62220 0.46450 0.28210 0.02100
C 	C 	0.77330 0.44782 0.31520 -0.06900
H 	H 	0.70630 0.44340 0.33490 0.05900
C 	C 	0.97700 0.42880 0.35290 0.50700
C 	C 	0.51400 0.39170 0.36640 0.51600
C 	C 	0.76940 0.36141 0.29410 0.00300
H 	H 	0.87070 0.35790 0.29110 0.05000
C 	C 	0.66560 0.35494 0.26550 -0.13900
C 	C 	0.51430 0.36019 0.27000 0.01500
H 	H 	0.44490 0.35590 0.25090 0.03100
C 	C 	0.46690 0.37191 0.30310 -0.01000
H 	H 	0.36560 0.37540 0.30610 0.05200
C 	C 	0.57070 0.37838 0.33160 -0.12400
C 	C 	0.72200 0.37313 0.32710 0.00100
H 	H 	0.79140 0.37750 0.34620 0.03600
C 	C 	0.72800 0.34400 0.22930 0.53500
C 	C 	0.27200 0.30897 0.21490 0.54800
C 	C 	0.22370 0.29448 0.28220 0.01500
H 	H 	0.12440 0.29920 0.28040 0.04100
C 	C 	0.27290 0.28366 0.31600 0.00300
H 	H 	0.20660 0.28120 0.33690 0.03200
C 	C 	0.42120 0.27658 0.31870 -0.14100
C 	C 	0.52030 0.28033 0.28750 -0.00100
H 	H 	0.61960 0.27560 0.28930 0.04900
C 	C 	0.47110 0.29114 0.25360 0.01800
H 	H 	0.53740 0.29360 0.23280 0.03200
C 	C 	0.32270 0.29822 0.25100 -0.16100
C 	C 	0.47600 0.26630 0.35650 0.56100
C 	C 	0.75400 0.29706 0.14920 0.51700
C 	C 	0.75160 0.27238 0.14780 -0.12700
C 	C 	0.61700 0.26144 0.14660 0.00300
H 	H 	0.52730 0.26920 0.14520 0.04400
C 	C 	0.61400 0.23896 0.14760 -0.00100
H 	H 	0.52280 0.23150 0.14810 0.04200
Sc	Sc	0.49590 0.83330 0.17633 2.34900
Sc	Sc	0.99900 0.83330 0.15467 2.35100
O 	O 	0.62870 0.86027 0.18850 -0.62500
O 	O 	0.87030 0.85983 0.16980 -0.63800
O 	O 	0.62900 0.97181 0.15780 -0.64500
O 	O 	0.86200 0.97296 0.17710 -0.65600
O 	O 	0.13380 0.98400 0.21770 -0.63800
O 	O 	0.36790 0.98760 0.19780 -0.67800
O 	O 	0.37670 0.92253 0.37700 -0.64500
O 	O 	0.61410 0.92468 0.35560 -0.60200
O 	O 	0.87740 0.89621 0.36860 -0.60900
O 	O 	0.11150 0.89690 0.39220 -0.65100
O 	O 	0.12590 0.83808 0.20410 -0.65500
O 	O 	0.36190 0.84062 0.22580 -0.62300
O 	O 	0.63870 0.81473 0.21300 -0.62600
O 	O 	0.86680 0.81232 0.18760 -0.64300
O 	O 	0.88140 0.76290 0.38250 -0.67000
O 	O 	0.11330 0.76220 0.35950 -0.63400
O 	O 	0.13300 0.80679 0.14090 -0.62800
O 	O 	0.37370 0.80614 0.16140 -0.64200
C 	C 	0.74800 0.86960 0.17800 0.52300
C 	C 	0.61250 0.90481 0.17480 -0.01600
H 	H 	0.52240 0.89710 0.17400 0.04800
C 	C 	0.61130 0.92748 0.17290 0.03500
H 	H 	0.52040 0.93490 0.17090 0.02800
C 	C 	0.74600 0.93902 0.17400 -0.17800
C 	C 	0.88190 0.92789 0.17700 0.03100
H 	H 	0.97200 0.93560 0.17780 0.03500
C 	C 	0.88310 0.90522 0.17890 -0.01100
H 	H 	0.97400 0.89780 0.18090 0.04900
C 	C 	0.74840 0.89368 0.17780 -0.12600
C 	C 	0.74900 0.96280 0.16780 0.59700
C 	C 	0.27000 0.97970 0.21990 0.58500
C 	C 	0.42380 0.94173 0.31740 -0.10900
C 	C 	0.52400 0.94828 0.28800 -0.02400
H 	H 	0.62470 0.94420 0.28950 0.06000
C 	C 	0.47360 0.96092 0.25640 0.03700
H 	H 	0.54060 0.96530 0.23680 0.02700
C 	C 	0.32310 0.96700 0.25420 -0.17800
C 	C 	0.22290 0.96045 0.28360 0.03400
H 	H 	0.12220 0.96450 0.28210 0.03300
C 	C 	0.27330 0.94782 0.31520 -0.02300
H 	H 	0.20630 0.94340 0.33490 0.04200
C 	C 	0.47700 0.92880 0.35290 0.51300
C 	C 	0.01400 0.89170 0.36640 0.51300
C 	C 	0.26940 0.86141 0.29410 -0.03000
H 	H 	0.37070 0.85790 0.29110 0.05900
C 	C 	0.16560 0.85494 0.26550 -0.10600
C 	C 	0.01430 0.86019 0.27000 -0.05800
H 	H 	0.94490 0.85590 0.25090 0.06200
C 	C 	0.96690 0.87191 0.30310 0.06000
H 	H 	0.86560 0.87540 0.30610 0.03100
C 	C 	0.07070 0.87838 0.33160 -0.16300
C 	C 	0.22200 0.87313 0.32710 0.03200
H 	H 	0.29140 0.87750 0.34620 0.02400
C 	C 	0.22800 0.84400 0.22930 0.52200
C 	C 	0.77200 0.80897 0.21490 0.56400
C 	C 	0.72370 0.79448 0.28220 0.05400
H 	H 	0.62440 0.79920 0.28040 0.02900
C 	C 	0.77290 0.78366 0.31600 -0.03400
H 	H 	0.70660 0.78120 0.33690 0.04500
C 	C 	0.92120 0.77658 0.31870 -0.09600
C 	C 	0.02030 0.78033 0.28750 -0.07900
H 	H 	0.11960 0.77560 0.28930 0.07300
C 	C 	0.97110 0.79114 0.25360 0.10000
H 	H 	0.03740 0.79360 0.23280 -0.00300
C 	C 	0.82270 0.79822 0.25100 -0.20100
C 	C 	0.97600 0.76630 0.35650 0.56400
C 	C 	0.25400 0.79706 0.14920 0.51800
C 	C 	0.25160 0.77238 0.14780 -0.12600
C 	C 	0.11700 0.76144 0.14660 -0.00100
H 	H 	0.02730 0.76920 0.14520 0.04300
C 	C 	0.11400 0.73896 0.14760 0.00200
H 	H 	0.02280 0.73150 0.14810 0.03700
Sc	Sc	0.49590 0.33330 0.67633 2.34900
Sc	Sc	0.99900 0.33330 0.65467 2.35100
O 	O 	0.62870 0.36027 0.68850 -0.62500
O 	O 	0.87030 0.35983 0.66980 -0.63800
O 	O 	0.62900 0.47181 0.65780 -0.64500
O 	O 	0.86200 0.47296 0.67710 -0.65600
O 	O 	0.13380 0.48400 0.71770 -0.63800
O 	O 	0.36790 0.48760 0.69780 -0.67800
O 	O 	0.37670 0.42253 0.87700 -0.64500
O 	O 	0.61410 0.42468 0.85560 -0.60200
O 	O 	0.87740 0.39621 0.86860 -0.60900
O 	O 	0.11150 0.39690 0.89220 -0.65100
O 	O 	0.12590 0.33808 0.70410 -0.65500
O 	O 	0.36190 0.34062 0.72580 -0.62300
O 	O 	0.63870 0.31473 0.71300 -0.62500
O 	O 	0.86680 0.31232 0.68760 -0.64300
O 	O 	0.88140 0.26290 0.88250 -0.67000
O 	O 	0.11330 0.26220 0.85950 -0.63400
O 	O 	0.13300 0.30679 0.64090 -0.62800
O 	O 	0.37370 0.30614 0.66140 -0.64200
C 	C 	0.74800 0.36960 0.67800 0.52300
C 	C 	0.61250 0.40481 0.67480 -0.01600
H 	H 	0.52240 0.39710 0.67400 0.04800
C 	C 	0.61130 0.42748 0.67290 0.03500
H 	H 	0.52040 0.43490 0.67090 0.02800
C 	C 	0.74600 0.43902 0.67400 -0.17800
C 	C 	0.88190 0.42789 0.67700 0.03100
H 	H 	0.97200 0.43560 0.67780 0.03500
C 	C 	0.88310 0.40522 0.67890 -0.01100
H 	H 	0.97400 0.39780 0.68090 0.04900
C 	C 	0.74840 0.39368 0.67780 -0.12600
C 	C 	0.74900 0.46280 0.66780 0.59700
C 	C 	0.27000 0.47970 0.71990 0.58500
C 	C 	0.42380 0.44173 0.81740 -0.10900
C 	C 	0.52400 0.44828 0.78800 -0.02400
H 	H 	0.62470 0.44420 0.78950 0.06000
C 	C 	0.47360 0.46092 0.75640 0.03700
H 	H 	0.54060 0.46530 0.73680 0.02700
C 	C 	0.32310 0.46700 0.75420 -0.17800
C 	C 	0.22290 0.46045 0.78360 0.03400
H 	H 	0.12220 0.46450 0.78210 0.03300
C 	C 	0.27330 0.44782 0.81520 -0.02300
H 	H 	0.20630 0.44340 0.83490 0.04200
C 	C 	0.47700 0.42880 0.85290 0.51300
C 	C 	0.01400 0.39170 0.86640 0.51300
C 	C 	0.26940 0.36141 0.79410 -0.03000
H 	H 	0.37070 0.35790 0.79110 0.05900
C 	C 	0.16560 0.35494 0.76550 -0.10600
C 	C 	0.01430 0.36019 0.77000 -0.05700
H 	H 	0.94490 0.35590 0.75090 0.06200
C 	C 	0.96690 0.37191 0.80310 0.05900
H 	H 	0.86560 0.37540 0.80610 0.03100
C 	C 	0.07070 0.37838 0.83160 -0.16300
C 	C 	0.22200 0.37313 0.82710 0.03200
H 	H 	0.29140 0.37750 0.84620 0.02500
C 	C 	0.22800 0.34400 0.72930 0.52200
C 	C 	0.77200 0.30897 0.71490 0.56400
C 	C 	0.72370 0.29448 0.78220 0.05400
H 	H 	0.62440 0.29920 0.78040 0.02900
C 	C 	0.77290 0.28366 0.81600 -0.03300
H 	H 	0.70660 0.28120 0.83690 0.04500
C 	C 	0.92120 0.27658 0.81870 -0.09600
C 	C 	0.02030 0.28033 0.78750 -0.07800
H 	H 	0.11960 0.27560 0.78930 0.07300
C 	C 	0.97110 0.29114 0.75360 0.09900
H 	H 	0.03740 0.29360 0.73280 -0.00200
C 	C 	0.82270 0.29822 0.75100 -0.20100
C 	C 	0.97600 0.26630 0.85650 0.56400
C 	C 	0.25400 0.29706 0.64920 0.51700
C 	C 	0.25160 0.27238 0.64780 -0.12600
C 	C 	0.11700 0.26144 0.64660 -0.00100
H 	H 	0.02730 0.26920 0.64520 0.04300
C 	C 	0.11400 0.23896 0.64760 0.00200
H 	H 	0.02280 0.23150 0.64810 0.03700
Sc	Sc	0.75000 0.75000 0.42626 2.35400
Sc	Sc	0.75000 0.25000 0.92626 2.35400
Sc	Sc	0.25000 0.25000 0.42626 2.35400
Sc	Sc	0.25000 0.75000 0.92626 2.35400
Sc	Sc	0.00000 0.50000 0.67626 2.35200
Sc	Sc	0.00000 0.00000 0.17626 2.35200
Sc	Sc	0.50000 0.50000 0.17626 2.35400
Sc	Sc	0.50000 0.00000 0.67626 2.35400
Sc	Sc	0.25000 0.75000 0.40465 2.35400
Sc	Sc	0.25000 0.25000 0.90465 2.35400
Sc	Sc	0.75000 0.25000 0.40465 2.35400
Sc	Sc	0.75000 0.75000 0.90465 2.35400
Sc	Sc	0.50000 0.50000 0.65465 2.35400
Sc	Sc	0.50000 0.00000 0.15465 2.35400
Sc	Sc	0.00000 -0.00000 0.65465 2.35100
Sc	Sc	-0.00000 0.50000 0.15465 2.35100
