data_crystal

_cell_length_a 31.12920
_cell_length_b 31.12920
_cell_length_c 12.05200
_cell_angle_alpha 90.00000
_cell_angle_beta  90.00000
_cell_angle_gamma 120.00000

_symmetry_space_group_name_	'P 1'
_symmetry_space_group_name_H-M	'P 1'

loop_
_symmetry_equiv_pos_as_xyz
  x,y,z

loop_
_atom_site_label
_atom_site_type_symbol
_atom_site_fract_x
_atom_site_fract_y
_atom_site_fract_z
_atom_site_charge
Tb	Tb	0.33288 0.99331 0.70039 1.81900
O 	O 	0.33800 0.04770 0.54290 -0.53000
O 	O 	0.27820 0.02860 0.66310 -0.40200
O 	O 	0.41970 0.03390 0.65010 -0.42600
O 	O 	0.37370 0.98180 0.51850 -0.53900
O 	O 	0.26580 0.92990 0.59900 -0.48800
O 	O 	0.37080 0.07600 0.77360 -0.47100
C 	C 	0.30620 0.05680 0.58680 0.34000
C 	C 	0.41630 0.00830 0.56710 0.39800
C 	C 	0.30470 0.10270 0.55560 -0.02800
C 	C 	0.45910 0.00470 0.52930 -0.23700
C 	C 	0.34240 0.13740 0.48950 -0.05800
C 	C 	0.26980 0.11260 0.60050 -0.12400
C 	C 	0.50720 0.04120 0.55970 -0.27200
C 	C 	0.45250 0.96370 0.46890 0.63700
H 	H 	0.36700 0.13070 0.46170 0.04000
C 	C 	0.34450 0.18100 0.46380 0.05100
C 	C 	0.27150 0.15810 0.57500 0.16700
H 	H 	0.24470 0.08910 0.64800 0.10000
H 	H 	0.51220 0.06950 0.60030 0.15600
N 	N 	0.40650 0.92380 0.44100 0.74600
H 	H 	0.37000 0.20390 0.41620 0.02200
C 	C 	0.30920 0.19270 0.50700 -0.19100
N 	N 	0.23580 0.16900 0.62100 -0.23000
H 	H 	0.38180 0.92940 0.45300 -0.05800
C 	C 	0.39180 0.87790 0.40000 -0.17600
C 	C 	0.31290 0.24120 0.48790 0.45500
H 	H 	0.24470 0.20030 0.63260 0.16200
C 	C 	0.18810 0.13300 0.64900 0.11000
C 	C 	0.33530 0.84130 0.41500 0.42400
O 	O 	0.42010 0.86400 0.36600 -0.15200
O 	O 	0.18690 0.10330 0.72100 -0.23200
C 	C 	0.17170 0.17130 0.68700 0.24500
H 	H 	0.31620 0.84210 0.34850 -0.08700
C 	C 	0.33110 0.79050 0.42700 -0.90700
O 	O 	0.31760 0.85360 0.51700 -0.43600
O 	O 	0.20860 0.20370 0.76700 -0.39200
H 	H 	0.14380 0.14990 0.73870 -0.02000
C 	C 	0.14290 0.17560 0.59100 -0.61200
H 	H 	0.35220 0.79100 0.48620 0.31100
H 	H 	0.29750 0.76540 0.44240 0.32700
H 	H 	0.34160 0.78330 0.35850 0.30000
H 	H 	0.30260 0.86890 0.50070 0.24900
H 	H 	0.22620 0.19150 0.78570 0.22900
H 	H 	0.10940 0.14660 0.59010 0.19900
H 	H 	0.15980 0.17710 0.52140 0.21000
H 	H 	0.14070 0.20580 0.59940 0.23400
H 	H 	0.57990 0.06110 0.55270 -0.87700
Tb	Tb	0.99955 0.32664 0.03372 1.81400
O 	O 	0.00467 0.38103 0.87623 -0.53000
O 	O 	0.94487 0.36193 0.99643 -0.40000
O 	O 	0.08637 0.36723 0.98343 -0.42600
O 	O 	0.04037 0.31513 0.85183 -0.53800
O 	O 	0.93247 0.26323 0.93233 -0.48400
O 	O 	0.03747 0.40933 0.10693 -0.46900
C 	C 	0.97287 0.39013 0.92013 0.34300
C 	C 	0.08297 0.34163 0.90043 0.39900
C 	C 	0.97137 0.43603 0.88893 -0.02500
C 	C 	0.12577 0.33803 0.86263 -0.23700
C 	C 	0.00907 0.47073 0.82283 -0.06000
C 	C 	0.93647 0.44593 0.93383 -0.12400
C 	C 	0.17387 0.37453 0.89303 -0.27100
C 	C 	0.11917 0.29703 0.80223 0.63900
H 	H 	0.03367 0.46403 0.79503 0.04100
C 	C 	0.01117 0.51433 0.79713 0.05100
C 	C 	0.93817 0.49143 0.90833 0.16800
H 	H 	0.91137 0.42243 0.98133 0.10100
H 	H 	0.17887 0.40283 0.93363 0.15500
N 	N 	0.07317 0.25713 0.77433 0.74700
H 	H 	0.03667 0.53723 0.74953 0.02200
C 	C 	0.97587 0.52603 0.84033 -0.19000
N 	N 	0.90247 0.50233 0.95433 -0.23000
H 	H 	0.04847 0.26273 0.78633 -0.05800
C 	C 	0.05847 0.21123 0.73333 -0.17300
C 	C 	0.97957 0.57453 0.82123 0.45600
H 	H 	0.91137 0.53363 0.96593 0.16300
C 	C 	0.85477 0.46633 0.98233 0.11400
C 	C 	0.00197 0.17463 0.74833 0.40900
O 	O 	0.08677 0.19733 0.69933 -0.15300
O 	O 	0.85357 0.43663 0.05433 -0.23500
C 	C 	0.83837 0.50463 0.02033 0.23900
H 	H 	0.98287 0.17543 0.68183 -0.08100
C 	C 	0.99777 0.12383 0.76033 -0.87500
O 	O 	0.98427 0.18693 0.85033 -0.43000
O 	O 	0.87527 0.53703 0.10033 -0.39100
H 	H 	0.81047 0.48323 0.07203 -0.02000
C 	C 	0.80957 0.50893 0.92433 -0.60600
H 	H 	0.01887 0.12433 0.81953 0.30100
H 	H 	0.96417 0.09873 0.77573 0.31800
H 	H 	0.00827 0.11663 0.69183 0.29000
H 	H 	0.96927 0.20223 0.83403 0.24800
H 	H 	0.89287 0.52483 0.11903 0.22800
H 	H 	0.77607 0.47993 0.92343 0.19700
H 	H 	0.82647 0.51043 0.85473 0.20900
H 	H 	0.80737 0.53913 0.93273 0.23300
H 	H 	0.24657 0.39443 0.88603 -0.87700
Tb	Tb	0.66621 0.65998 0.36706 1.82100
O 	O 	0.67133 0.71437 0.20957 -0.52900
O 	O 	0.61153 0.69527 0.32977 -0.40200
O 	O 	0.75303 0.70057 0.31677 -0.42600
O 	O 	0.70703 0.64847 0.18517 -0.53800
O 	O 	0.59913 0.59657 0.26567 -0.48700
O 	O 	0.70413 0.74267 0.44027 -0.47100
C 	C 	0.63953 0.72347 0.25347 0.34100
C 	C 	0.74963 0.67497 0.23377 0.39800
C 	C 	0.63803 0.76937 0.22227 -0.02700
C 	C 	0.79243 0.67137 0.19597 -0.23600
C 	C 	0.67573 0.80407 0.15617 -0.05700
C 	C 	0.60313 0.77927 0.26717 -0.12300
C 	C 	0.84053 0.70787 0.22637 -0.27200
C 	C 	0.78583 0.63037 0.13557 0.63700
H 	H 	0.70033 0.79737 0.12837 0.04100
C 	C 	0.67783 0.84767 0.13047 0.05200
C 	C 	0.60483 0.82477 0.24167 0.16800
H 	H 	0.57803 0.75577 0.31467 0.10000
H 	H 	0.84553 0.73617 0.26697 0.15600
N 	N 	0.73983 0.59047 0.10767 0.74600
H 	H 	0.70333 0.87057 0.08287 0.02200
C 	C 	0.64253 0.85937 0.17367 -0.19100
N 	N 	0.56913 0.83567 0.28767 -0.23000
H 	H 	0.71513 0.59607 0.11967 -0.05800
C 	C 	0.72513 0.54457 0.06667 -0.17600
C 	C 	0.64623 0.90787 0.15457 0.45500
H 	H 	0.57803 0.86697 0.29927 0.16200
C 	C 	0.52143 0.79967 0.31567 0.11000
C 	C 	0.66863 0.50797 0.08167 0.42400
O 	O 	0.75343 0.53067 0.03267 -0.15200
O 	O 	0.52023 0.76997 0.38767 -0.23200
C 	C 	0.50503 0.83797 0.35367 0.24500
H 	H 	0.64953 0.50877 0.01517 -0.08700
C 	C 	0.66443 0.45717 0.09367 -0.90700
O 	O 	0.65093 0.52027 0.18367 -0.43600
O 	O 	0.54193 0.87037 0.43367 -0.39200
H 	H 	0.47713 0.81657 0.40537 -0.02100
C 	C 	0.47623 0.84227 0.25767 -0.61200
H 	H 	0.68553 0.45767 0.15287 0.31100
H 	H 	0.63083 0.43207 0.10907 0.32700
H 	H 	0.67493 0.44997 0.02517 0.30000
H 	H 	0.63593 0.53557 0.16737 0.24900
H 	H 	0.55953 0.85817 0.45237 0.22900
H 	H 	0.44273 0.81327 0.25677 0.19800
H 	H 	0.49313 0.84377 0.18807 0.21100
H 	H 	0.47403 0.87247 0.26607 0.23400
H 	H 	0.91323 0.72777 0.21937 -0.87900
Tb	Tb	0.00669 0.33957 0.70039 1.82000
O 	O 	0.95230 0.29030 0.54290 -0.52900
O 	O 	0.97140 0.24960 0.66310 -0.40100
O 	O 	0.96610 0.38580 0.65010 -0.42500
O 	O 	0.01820 0.39190 0.51850 -0.53800
O 	O 	0.07010 0.33590 0.59900 -0.48700
O 	O 	0.92400 0.29480 0.77360 -0.47000
C 	C 	0.94320 0.24940 0.58680 0.34100
C 	C 	0.99170 0.40800 0.56710 0.39900
C 	C 	0.89730 0.20200 0.55560 -0.02700
C 	C 	0.99530 0.45440 0.52930 -0.23600
C 	C 	0.86260 0.20500 0.48950 -0.05700
C 	C 	0.88740 0.15720 0.60050 -0.12300
C 	C 	0.95880 0.46600 0.55970 -0.27100
C 	C 	0.03630 0.48880 0.46890 0.63800
H 	H 	0.86930 0.23630 0.46170 0.04100
C 	C 	0.81900 0.16350 0.46380 0.05200
C 	C 	0.84190 0.11340 0.57500 0.16800
H 	H 	0.91090 0.15560 0.64800 0.10000
H 	H 	0.93050 0.44270 0.60030 0.15600
N 	N 	0.07620 0.48270 0.44100 0.74600
H 	H 	0.79610 0.16610 0.41620 0.02200
C 	C 	0.80730 0.11650 0.50700 -0.19100
N 	N 	0.83100 0.06680 0.62100 -0.22900
H 	H 	0.07060 0.45240 0.45300 -0.05800
C 	C 	0.12210 0.51390 0.40000 -0.17600
C 	C 	0.75880 0.07170 0.48790 0.45500
H 	H 	0.79970 0.04440 0.63260 0.16200
C 	C 	0.86700 0.05510 0.64900 0.10900
C 	C 	0.15870 0.49400 0.41500 0.42400
O 	O 	0.13600 0.55610 0.36600 -0.15200
O 	O 	0.89670 0.08360 0.72100 -0.23100
C 	C 	0.82870 0.00040 0.68700 0.25000
H 	H 	0.15790 0.47410 0.34850 -0.08700
C 	C 	0.20950 0.54060 0.42700 -0.90700
O 	O 	0.14640 0.46400 0.51700 -0.43600
O 	O 	0.79630 0.00490 0.76700 -0.39200
H 	H 	0.85010 0.99390 0.73870 -0.02300
C 	C 	0.82440 0.96730 0.59100 -0.61700
H 	H 	0.20900 0.56120 0.48620 0.31100
H 	H 	0.23460 0.53210 0.44240 0.32700
H 	H 	0.21670 0.55830 0.35850 0.30000
H 	H 	0.13110 0.43370 0.50070 0.24900
H 	H 	0.80850 0.03470 0.78570 0.22900
H 	H 	0.85340 0.96280 0.59010 0.20000
H 	H 	0.82290 0.98270 0.52140 0.21200
H 	H 	0.79420 0.93490 0.59940 0.23600
H 	H 	0.93890 0.51880 0.55270 -0.87700
Tb	Tb	0.67336 0.67290 0.03372 1.82100
O 	O 	0.61897 0.62363 0.87623 -0.52900
O 	O 	0.63807 0.58293 0.99643 -0.40200
O 	O 	0.63277 0.71913 0.98343 -0.42600
O 	O 	0.68487 0.72523 0.85183 -0.53800
O 	O 	0.73677 0.66923 0.93233 -0.48700
O 	O 	0.59067 0.62813 0.10693 -0.47100
C 	C 	0.60987 0.58273 0.92013 0.34100
C 	C 	0.65837 0.74133 0.90043 0.39900
C 	C 	0.56397 0.53533 0.88893 -0.02700
C 	C 	0.66197 0.78773 0.86263 -0.23600
C 	C 	0.52927 0.53833 0.82283 -0.05700
C 	C 	0.55407 0.49053 0.93383 -0.12400
C 	C 	0.62547 0.79933 0.89303 -0.27100
C 	C 	0.70297 0.82213 0.80223 0.63700
H 	H 	0.53597 0.56963 0.79503 0.04100
C 	C 	0.48567 0.49683 0.79713 0.05200
C 	C 	0.50857 0.44673 0.90833 0.16800
H 	H 	0.57757 0.48893 0.98133 0.10000
H 	H 	0.59717 0.77603 0.93363 0.15500
N 	N 	0.74287 0.81603 0.77433 0.74600
H 	H 	0.46277 0.49943 0.74953 0.02200
C 	C 	0.47397 0.44983 0.84033 -0.19100
N 	N 	0.49767 0.40013 0.95433 -0.23000
H 	H 	0.73727 0.78573 0.78633 -0.05800
C 	C 	0.78877 0.84723 0.73333 -0.17600
C 	C 	0.42547 0.40503 0.82123 0.45500
H 	H 	0.46637 0.37773 0.96593 0.16300
C 	C 	0.53367 0.38843 0.98233 0.11100
C 	C 	0.82537 0.82733 0.74833 0.42500
O 	O 	0.80267 0.88943 0.69933 -0.15200
O 	O 	0.56337 0.41693 0.05433 -0.23300
C 	C 	0.49537 0.33373 0.02033 0.24300
H 	H 	0.82457 0.80743 0.68183 -0.08700
C 	C 	0.87617 0.87393 0.76033 -0.90900
O 	O 	0.81307 0.79733 0.85033 -0.43600
O 	O 	0.46297 0.33823 0.10033 -0.39200
H 	H 	0.51677 0.32723 0.07203 -0.02000
C 	C 	0.49107 0.30063 0.92433 -0.60900
H 	H 	0.87567 0.89453 0.81953 0.31200
H 	H 	0.90127 0.86543 0.77573 0.32800
H 	H 	0.88337 0.89163 0.69183 0.30100
H 	H 	0.79777 0.76703 0.83403 0.24900
H 	H 	0.47517 0.36803 0.11903 0.22800
H 	H 	0.52007 0.29613 0.92343 0.19800
H 	H 	0.48957 0.31603 0.85473 0.21000
H 	H 	0.46087 0.26823 0.93273 0.23400
H 	H 	0.60557 0.85213 0.88603 -0.87700
Tb	Tb	0.34002 0.00624 0.36706 1.82000
O 	O 	0.28563 0.95697 0.20957 -0.52700
O 	O 	0.30473 0.91627 0.32977 -0.40100
O 	O 	0.29943 0.05247 0.31677 -0.42600
O 	O 	0.35153 0.05857 0.18517 -0.53800
O 	O 	0.40343 0.00257 0.26567 -0.48800
O 	O 	0.25733 0.96147 0.44027 -0.47000
C 	C 	0.27653 0.91607 0.25347 0.34100
C 	C 	0.32503 0.07467 0.23377 0.39900
C 	C 	0.23063 0.86867 0.22227 -0.02700
C 	C 	0.32863 0.12107 0.19597 -0.23600
C 	C 	0.19593 0.87167 0.15617 -0.05700
C 	C 	0.22073 0.82387 0.26717 -0.12300
C 	C 	0.29213 0.13267 0.22637 -0.27100
C 	C 	0.36963 0.15547 0.13557 0.63700
H 	H 	0.20263 0.90297 0.12837 0.04200
C 	C 	0.15233 0.83017 0.13047 0.05200
C 	C 	0.17523 0.78007 0.24167 0.16800
H 	H 	0.24423 0.82227 0.31467 0.10000
H 	H 	0.26383 0.10937 0.26697 0.15500
N 	N 	0.40953 0.14937 0.10767 0.74600
H 	H 	0.12943 0.83277 0.08287 0.02300
C 	C 	0.14063 0.78317 0.17367 -0.19000
N 	N 	0.16433 0.73347 0.28767 -0.22900
H 	H 	0.40393 0.11907 0.11967 -0.05800
C 	C 	0.45543 0.18057 0.06667 -0.17600
C 	C 	0.09213 0.73837 0.15457 0.45400
H 	H 	0.13303 0.71107 0.29927 0.16300
C 	C 	0.20033 0.72177 0.31567 0.11000
C 	C 	0.49203 0.16067 0.08167 0.42400
O 	O 	0.46933 0.22277 0.03267 -0.15200
O 	O 	0.23003 0.75027 0.38767 -0.23200
C 	C 	0.16203 0.66707 0.35367 0.24500
H 	H 	0.49123 0.14077 0.01517 -0.08800
C 	C 	0.54283 0.20727 0.09367 -0.90700
O 	O 	0.47973 0.13067 0.18367 -0.43600
O 	O 	0.12963 0.67157 0.43367 -0.39200
H 	H 	0.18343 0.66057 0.40537 -0.02100
C 	C 	0.15773 0.63397 0.25767 -0.61200
H 	H 	0.54233 0.22787 0.15287 0.31100
H 	H 	0.56793 0.19877 0.10907 0.32700
H 	H 	0.55003 0.22497 0.02517 0.30000
H 	H 	0.46443 0.10037 0.16737 0.24900
H 	H 	0.14183 0.70137 0.45237 0.22900
H 	H 	0.18673 0.62947 0.25677 0.19800
H 	H 	0.15623 0.64937 0.18807 0.21100
H 	H 	0.12753 0.60157 0.26607 0.23400
H 	H 	0.27223 0.18547 0.21937 -0.87700
Tb	Tb	0.66043 0.66712 0.70039 1.82100
O 	O 	0.70970 0.66200 0.54290 -0.52900
O 	O 	0.75040 0.72180 0.66310 -0.40200
O 	O 	0.61420 0.58030 0.65010 -0.42600
O 	O 	0.60810 0.62630 0.51850 -0.53800
O 	O 	0.66410 0.73420 0.59900 -0.48700
O 	O 	0.70520 0.62920 0.77360 -0.47100
C 	C 	0.75060 0.69380 0.58680 0.34100
C 	C 	0.59200 0.58370 0.56710 0.39900
C 	C 	0.79800 0.69530 0.55560 -0.02700
C 	C 	0.54560 0.54090 0.52930 -0.23600
C 	C 	0.79500 0.65760 0.48950 -0.05700
C 	C 	0.84280 0.73020 0.60050 -0.12300
C 	C 	0.53400 0.49280 0.55970 -0.27100
C 	C 	0.51120 0.54750 0.46890 0.63800
H 	H 	0.76370 0.63300 0.46170 0.04100
C 	C 	0.83650 0.65550 0.46380 0.05200
C 	C 	0.88660 0.72850 0.57500 0.16800
H 	H 	0.84440 0.75530 0.64800 0.10000
H 	H 	0.55730 0.48780 0.60030 0.15600
N 	N 	0.51730 0.59350 0.44100 0.74600
H 	H 	0.83390 0.63000 0.41620 0.02200
C 	C 	0.88350 0.69080 0.50700 -0.19100
N 	N 	0.93320 0.76420 0.62100 -0.23000
H 	H 	0.54760 0.61820 0.45300 -0.05800
C 	C 	0.48610 0.60820 0.40000 -0.17600
C 	C 	0.92830 0.68710 0.48790 0.45500
H 	H 	0.95560 0.75530 0.63260 0.16200
C 	C 	0.94490 0.81190 0.64900 0.10900
C 	C 	0.50600 0.66470 0.41500 0.42400
O 	O 	0.44390 0.57990 0.36600 -0.15200
O 	O 	0.91640 0.81310 0.72100 -0.23200
C 	C 	0.99960 0.82830 0.68700 0.24700
H 	H 	0.52590 0.68380 0.34850 -0.08700
C 	C 	0.45940 0.66890 0.42700 -0.90700
O 	O 	0.53600 0.68240 0.51700 -0.43600
O 	O 	0.99510 0.79140 0.76700 -0.39200
H 	H 	0.00610 0.85620 0.73870 -0.02200
C 	C 	0.03270 0.85710 0.59100 -0.61500
H 	H 	0.43880 0.64780 0.48620 0.31100
H 	H 	0.46790 0.70250 0.44240 0.32700
H 	H 	0.44170 0.65840 0.35850 0.30000
H 	H 	0.56630 0.69740 0.50070 0.24900
H 	H 	0.96530 0.77380 0.78570 0.22900
H 	H 	0.03720 0.89060 0.59010 0.20000
H 	H 	0.01730 0.84020 0.52140 0.21100
H 	H 	0.06510 0.85930 0.59940 0.23500
H 	H 	0.48120 0.42010 0.55270 -0.87700
Tb	Tb	0.32710 0.00045 0.03372 1.81700
O 	O 	0.37637 0.99533 0.87623 -0.53100
O 	O 	0.41707 0.05513 0.99643 -0.40100
O 	O 	0.28087 0.91363 0.98343 -0.42700
O 	O 	0.27477 0.95963 0.85183 -0.53800
O 	O 	0.33077 0.06753 0.93233 -0.48500
O 	O 	0.37187 0.96253 0.10693 -0.46900
C 	C 	0.41727 0.02713 0.92013 0.34300
C 	C 	0.25867 0.91703 0.90043 0.39900
C 	C 	0.46467 0.02863 0.88893 -0.02500
C 	C 	0.21227 0.87423 0.86263 -0.23700
C 	C 	0.46167 0.99093 0.82283 -0.06000
C 	C 	0.50947 0.06353 0.93383 -0.12400
C 	C 	0.20067 0.82613 0.89303 -0.27100
C 	C 	0.17787 0.88083 0.80223 0.63800
H 	H 	0.43037 0.96633 0.79503 0.04100
C 	C 	0.50317 0.98883 0.79713 0.05100
C 	C 	0.55327 0.06183 0.90833 0.16900
H 	H 	0.51107 0.08863 0.98133 0.10100
H 	H 	0.22397 0.82113 0.93363 0.15500
N 	N 	0.18397 0.92683 0.77433 0.74600
H 	H 	0.50057 0.96333 0.74953 0.02200
C 	C 	0.55017 0.02413 0.84033 -0.19000
N 	N 	0.59987 0.09753 0.95433 -0.23000
H 	H 	0.21427 0.95153 0.78633 -0.05800
C 	C 	0.15277 0.94153 0.73333 -0.17400
C 	C 	0.59497 0.02043 0.82123 0.45600
H 	H 	0.62227 0.08863 0.96593 0.16400
C 	C 	0.61157 0.14523 0.98233 0.11500
C 	C 	0.17267 0.99803 0.74833 0.41600
O 	O 	0.11057 0.91323 0.69933 -0.15300
O 	O 	0.58307 0.14643 0.05433 -0.23500
C 	C 	0.66627 0.16163 0.02033 0.23700
H 	H 	0.19257 0.01713 0.68183 -0.08400
C 	C 	0.12607 0.00223 0.76033 -0.89000
O 	O 	0.20267 0.01573 0.85033 -0.43300
O 	O 	0.66177 0.12473 0.10033 -0.39100
H 	H 	0.67277 0.18953 0.07203 -0.01900
C 	C 	0.69937 0.19043 0.92433 -0.60300
H 	H 	0.10547 0.98113 0.81953 0.30500
H 	H 	0.13457 0.03583 0.77573 0.32200
H 	H 	0.10837 0.99173 0.69183 0.29500
H 	H 	0.23297 0.03073 0.83403 0.24900
H 	H 	0.63197 0.10713 0.11903 0.22700
H 	H 	0.70387 0.22393 0.92343 0.19600
H 	H 	0.68397 0.17353 0.85473 0.20800
H 	H 	0.73177 0.19263 0.93273 0.23300
H 	H 	0.14787 0.75343 0.88603 -0.87700
Tb	Tb	0.99376 0.33379 0.36706 1.82100
O 	O 	0.04303 0.32867 0.20957 -0.52800
O 	O 	0.08373 0.38847 0.32977 -0.40100
O 	O 	0.94753 0.24697 0.31677 -0.42600
O 	O 	0.94143 0.29297 0.18517 -0.53800
O 	O 	0.99743 0.40087 0.26567 -0.48800
O 	O 	0.03853 0.29587 0.44027 -0.47000
C 	C 	0.08393 0.36047 0.25347 0.34100
C 	C 	0.92533 0.25037 0.23377 0.39800
C 	C 	0.13133 0.36197 0.22227 -0.02700
C 	C 	0.87893 0.20757 0.19597 -0.23600
C 	C 	0.12833 0.32427 0.15617 -0.05700
C 	C 	0.17613 0.39687 0.26717 -0.12400
C 	C 	0.86733 0.15947 0.22637 -0.27200
C 	C 	0.84453 0.21417 0.13557 0.63700
H 	H 	0.09703 0.29967 0.12837 0.04100
C 	C 	0.16983 0.32217 0.13047 0.05200
C 	C 	0.21993 0.39517 0.24167 0.16800
H 	H 	0.17773 0.42197 0.31467 0.10000
H 	H 	0.89063 0.15447 0.26697 0.15600
N 	N 	0.85063 0.26017 0.10767 0.74600
H 	H 	0.16723 0.29667 0.08287 0.02200
C 	C 	0.21683 0.35747 0.17367 -0.19100
N 	N 	0.26653 0.43087 0.28767 -0.23000
H 	H 	0.88093 0.28487 0.11967 -0.05900
C 	C 	0.81943 0.27487 0.06667 -0.17600
C 	C 	0.26163 0.35377 0.15457 0.45500
H 	H 	0.28893 0.42197 0.29927 0.16200
C 	C 	0.27823 0.47857 0.31567 0.11000
C 	C 	0.83933 0.33137 0.08167 0.42400
O 	O 	0.77723 0.24657 0.03267 -0.15300
O 	O 	0.24973 0.47977 0.38767 -0.23200
C 	C 	0.33293 0.49497 0.35367 0.24500
H 	H 	0.85923 0.35047 0.01517 -0.08800
C 	C 	0.79273 0.33557 0.09367 -0.90700
O 	O 	0.86933 0.34907 0.18367 -0.43600
O 	O 	0.32843 0.45807 0.43367 -0.39200
H 	H 	0.33943 0.52287 0.40537 -0.02100
C 	C 	0.36603 0.52377 0.25767 -0.61200
H 	H 	0.77213 0.31447 0.15287 0.31100
H 	H 	0.80123 0.36917 0.10907 0.32700
H 	H 	0.77503 0.32507 0.02517 0.30000
H 	H 	0.89963 0.36407 0.16737 0.24900
H 	H 	0.29863 0.44047 0.45237 0.22900
H 	H 	0.37053 0.55727 0.25677 0.19800
H 	H 	0.35063 0.50687 0.18807 0.21000
H 	H 	0.39843 0.52597 0.26607 0.23400
H 	H 	0.81453 0.08677 0.21937 -0.87800
Tb	Tb	0.66712 0.00669 0.29961 1.82000
O 	O 	0.66200 0.95230 0.45710 -0.52900
O 	O 	0.72180 0.97140 0.33690 -0.40100
O 	O 	0.58030 0.96610 0.34990 -0.42500
O 	O 	0.62630 0.01820 0.48150 -0.53800
O 	O 	0.73420 0.07010 0.40100 -0.48700
O 	O 	0.62920 0.92400 0.22640 -0.47000
C 	C 	0.69380 0.94320 0.41320 0.34100
C 	C 	0.58370 0.99170 0.43290 0.39900
C 	C 	0.69530 0.89730 0.44440 -0.02700
C 	C 	0.54090 0.99530 0.47070 -0.23600
C 	C 	0.65760 0.86260 0.51050 -0.05700
C 	C 	0.73020 0.88740 0.39950 -0.12300
C 	C 	0.49280 0.95880 0.44030 -0.27100
C 	C 	0.54750 0.03630 0.53110 0.63800
H 	H 	0.63300 0.86930 0.53830 0.04100
C 	C 	0.65550 0.81900 0.53620 0.05200
C 	C 	0.72850 0.84190 0.42500 0.16800
H 	H 	0.75530 0.91090 0.35200 0.10000
H 	H 	0.48780 0.93050 0.39970 0.15600
N 	N 	0.59350 0.07620 0.55900 0.74600
H 	H 	0.63000 0.79610 0.58380 0.02200
C 	C 	0.69080 0.80730 0.49300 -0.19100
N 	N 	0.76420 0.83100 0.37900 -0.23000
H 	H 	0.61820 0.07060 0.54700 -0.05800
C 	C 	0.60820 0.12210 0.60000 -0.17600
C 	C 	0.68710 0.75880 0.51210 0.45500
H 	H 	0.75530 0.79970 0.36740 0.16200
C 	C 	0.81190 0.86700 0.35100 0.11000
C 	C 	0.66470 0.15870 0.58500 0.42400
O 	O 	0.57990 0.13600 0.63400 -0.15200
O 	O 	0.81310 0.89670 0.27900 -0.23200
C 	C 	0.82830 0.82870 0.31300 0.24500
H 	H 	0.68380 0.15790 0.65150 -0.08700
C 	C 	0.66890 0.20950 0.57300 -0.90700
O 	O 	0.68240 0.14640 0.48300 -0.43600
O 	O 	0.79140 0.79630 0.23300 -0.39200
H 	H 	0.85620 0.85010 0.26130 -0.02000
C 	C 	0.85710 0.82440 0.40900 -0.61200
H 	H 	0.64780 0.20900 0.51380 0.31100
H 	H 	0.70250 0.23460 0.55760 0.32700
H 	H 	0.65840 0.21670 0.64150 0.30000
H 	H 	0.69740 0.13110 0.49930 0.24900
H 	H 	0.77380 0.80850 0.21430 0.22900
H 	H 	0.89060 0.85340 0.40990 0.19900
H 	H 	0.84020 0.82290 0.47860 0.21000
H 	H 	0.85930 0.79420 0.40060 0.23400
H 	H 	0.42010 0.93890 0.44730 -0.87700
Tb	Tb	0.33379 0.34002 0.63294 1.82100
O 	O 	0.32867 0.28563 0.79043 -0.52900
O 	O 	0.38847 0.30473 0.67023 -0.40200
O 	O 	0.24697 0.29943 0.68323 -0.42600
O 	O 	0.29297 0.35153 0.81483 -0.53800
O 	O 	0.40087 0.40343 0.73433 -0.48700
O 	O 	0.29587 0.25733 0.55973 -0.47100
C 	C 	0.36047 0.27653 0.74653 0.34100
C 	C 	0.25037 0.32503 0.76623 0.39800
C 	C 	0.36197 0.23063 0.77773 -0.02700
C 	C 	0.20757 0.32863 0.80403 -0.23600
C 	C 	0.32427 0.19593 0.84383 -0.05700
C 	C 	0.39687 0.22073 0.73283 -0.12300
C 	C 	0.15947 0.29213 0.77363 -0.27200
C 	C 	0.21417 0.36963 0.86443 0.63700
H 	H 	0.29967 0.20263 0.87163 0.04100
C 	C 	0.32217 0.15233 0.86953 0.05200
C 	C 	0.39517 0.17523 0.75833 0.16800
H 	H 	0.42197 0.24423 0.68533 0.10000
H 	H 	0.15447 0.26383 0.73303 0.15600
N 	N 	0.26017 0.40953 0.89233 0.74600
H 	H 	0.29667 0.12943 0.91713 0.02200
C 	C 	0.35747 0.14063 0.82633 -0.19100
N 	N 	0.43087 0.16433 0.71233 -0.23000
H 	H 	0.28487 0.40393 0.88033 -0.05800
C 	C 	0.27487 0.45543 0.93333 -0.17600
C 	C 	0.35377 0.09213 0.84543 0.45500
H 	H 	0.42197 0.13303 0.70073 0.16200
C 	C 	0.47857 0.20033 0.68433 0.11000
C 	C 	0.33137 0.49203 0.91833 0.42400
O 	O 	0.24657 0.46933 0.96733 -0.15200
O 	O 	0.47977 0.23003 0.61233 -0.23200
C 	C 	0.49497 0.16203 0.64633 0.24500
H 	H 	0.35047 0.49123 0.98483 -0.08700
C 	C 	0.33557 0.54283 0.90633 -0.90700
O 	O 	0.34907 0.47973 0.81633 -0.43600
O 	O 	0.45807 0.12963 0.56633 -0.39200
H 	H 	0.52287 0.18343 0.59463 -0.02100
C 	C 	0.52377 0.15773 0.74233 -0.61200
H 	H 	0.31447 0.54233 0.84713 0.31100
H 	H 	0.36917 0.56793 0.89093 0.32700
H 	H 	0.32507 0.55003 0.97483 0.30000
H 	H 	0.36407 0.46443 0.83263 0.24900
H 	H 	0.44047 0.14183 0.54763 0.22900
H 	H 	0.55727 0.18673 0.74323 0.19800
H 	H 	0.50687 0.15623 0.81193 0.21100
H 	H 	0.52597 0.12753 0.73393 0.23400
H 	H 	0.08677 0.27223 0.78063 -0.87900
Tb	Tb	0.00045 0.67336 0.96628 1.81400
O 	O 	0.99533 0.61897 0.12377 -0.53000
O 	O 	0.05513 0.63807 0.00357 -0.40000
O 	O 	0.91363 0.63277 0.01657 -0.42600
O 	O 	0.95963 0.68487 0.14817 -0.53800
O 	O 	0.06753 0.73677 0.06767 -0.48400
O 	O 	0.96253 0.59067 0.89307 -0.46900
C 	C 	0.02713 0.60987 0.07987 0.34300
C 	C 	0.91703 0.65837 0.09957 0.39900
C 	C 	0.02863 0.56397 0.11107 -0.02500
C 	C 	0.87423 0.66197 0.13737 -0.23700
C 	C 	0.99093 0.52927 0.17717 -0.06000
C 	C 	0.06353 0.55407 0.06617 -0.12400
C 	C 	0.82613 0.62547 0.10697 -0.27100
C 	C 	0.88083 0.70297 0.19777 0.63900
H 	H 	0.96633 0.53597 0.20497 0.04100
C 	C 	0.98883 0.48567 0.20287 0.05100
C 	C 	0.06183 0.50857 0.09167 0.16800
H 	H 	0.08863 0.57757 0.01867 0.10100
H 	H 	0.82113 0.59717 0.06637 0.15500
N 	N 	0.92683 0.74287 0.22567 0.74700
H 	H 	0.96333 0.46277 0.25047 0.02200
C 	C 	0.02413 0.47397 0.15967 -0.19000
N 	N 	0.09753 0.49767 0.04567 -0.23000
H 	H 	0.95153 0.73727 0.21367 -0.05800
C 	C 	0.94153 0.78877 0.26667 -0.17300
C 	C 	0.02043 0.42547 0.17877 0.45600
H 	H 	0.08863 0.46637 0.03407 0.16300
C 	C 	0.14523 0.53367 0.01767 0.11400
C 	C 	0.99803 0.82537 0.25167 0.40900
O 	O 	0.91323 0.80267 0.30067 -0.15300
O 	O 	0.14643 0.56337 0.94567 -0.23500
C 	C 	0.16163 0.49537 0.97967 0.23900
H 	H 	0.01713 0.82457 0.31817 -0.08100
C 	C 	0.00223 0.87617 0.23967 -0.87500
O 	O 	0.01573 0.81307 0.14967 -0.43000
O 	O 	0.12473 0.46297 0.89967 -0.39100
H 	H 	0.18953 0.51677 0.92797 -0.02000
C 	C 	0.19043 0.49107 0.07567 -0.60600
H 	H 	0.98113 0.87567 0.18047 0.30100
H 	H 	0.03583 0.90127 0.22427 0.31800
H 	H 	0.99173 0.88337 0.30817 0.29000
H 	H 	0.03073 0.79777 0.16597 0.24800
H 	H 	0.10713 0.47517 0.88097 0.22800
H 	H 	0.22393 0.52007 0.07657 0.19700
H 	H 	0.17353 0.48957 0.14527 0.20900
H 	H 	0.19263 0.46087 0.06727 0.23300
H 	H 	0.75343 0.60557 0.11397 -0.87700
Tb	Tb	0.99331 0.66043 0.29961 1.82000
O 	O 	0.04770 0.70970 0.45710 -0.52900
O 	O 	0.02860 0.75040 0.33690 -0.40100
O 	O 	0.03390 0.61420 0.34990 -0.42500
O 	O 	0.98180 0.60810 0.48150 -0.53800
O 	O 	0.92990 0.66410 0.40100 -0.48700
O 	O 	0.07600 0.70520 0.22640 -0.47000
C 	C 	0.05680 0.75060 0.41320 0.34100
C 	C 	0.00830 0.59200 0.43290 0.39900
C 	C 	0.10270 0.79800 0.44440 -0.02700
C 	C 	0.00470 0.54560 0.47070 -0.23600
C 	C 	0.13740 0.79500 0.51050 -0.05700
C 	C 	0.11260 0.84280 0.39950 -0.12300
C 	C 	0.04120 0.53400 0.44030 -0.27100
C 	C 	0.96370 0.51120 0.53110 0.63800
H 	H 	0.13070 0.76370 0.53830 0.04100
C 	C 	0.18100 0.83650 0.53620 0.05200
C 	C 	0.15810 0.88660 0.42500 0.16800
H 	H 	0.08910 0.84440 0.35200 0.10000
H 	H 	0.06950 0.55730 0.39970 0.15600
N 	N 	0.92380 0.51730 0.55900 0.74600
H 	H 	0.20390 0.83390 0.58380 0.02200
C 	C 	0.19270 0.88350 0.49300 -0.19100
N 	N 	0.16900 0.93320 0.37900 -0.22900
H 	H 	0.92940 0.54760 0.54700 -0.05800
C 	C 	0.87790 0.48610 0.60000 -0.17600
C 	C 	0.24120 0.92830 0.51210 0.45500
H 	H 	0.20030 0.95560 0.36740 0.16200
C 	C 	0.13300 0.94490 0.35100 0.10900
C 	C 	0.84130 0.50600 0.58500 0.42400
O 	O 	0.86400 0.44390 0.63400 -0.15200
O 	O 	0.10330 0.91640 0.27900 -0.23100
C 	C 	0.17130 0.99960 0.31300 0.25000
H 	H 	0.84210 0.52590 0.65150 -0.08700
C 	C 	0.79050 0.45940 0.57300 -0.90700
O 	O 	0.85360 0.53600 0.48300 -0.43600
O 	O 	0.20370 0.99510 0.23300 -0.39200
H 	H 	0.14990 0.00610 0.26130 -0.02300
C 	C 	0.17560 0.03270 0.40900 -0.61700
H 	H 	0.79100 0.43880 0.51380 0.31100
H 	H 	0.76540 0.46790 0.55760 0.32700
H 	H 	0.78330 0.44170 0.64150 0.30000
H 	H 	0.86890 0.56630 0.49930 0.24900
H 	H 	0.19150 0.96530 0.21430 0.22900
H 	H 	0.14660 0.03720 0.40990 0.20000
H 	H 	0.17710 0.01730 0.47860 0.21200
H 	H 	0.20580 0.06510 0.40060 0.23600
H 	H 	0.06110 0.48120 0.44730 -0.87700
Tb	Tb	0.65998 0.99376 0.63294 1.82000
O 	O 	0.71437 0.04303 0.79043 -0.52700
O 	O 	0.69527 0.08373 0.67023 -0.40100
O 	O 	0.70057 0.94753 0.68323 -0.42600
O 	O 	0.64847 0.94143 0.81483 -0.53800
O 	O 	0.59657 0.99743 0.73433 -0.48800
O 	O 	0.74267 0.03853 0.55973 -0.47000
C 	C 	0.72347 0.08393 0.74653 0.34100
C 	C 	0.67497 0.92533 0.76623 0.39900
C 	C 	0.76937 0.13133 0.77773 -0.02700
C 	C 	0.67137 0.87893 0.80403 -0.23600
C 	C 	0.80407 0.12833 0.84383 -0.05700
C 	C 	0.77927 0.17613 0.73283 -0.12300
C 	C 	0.70787 0.86733 0.77363 -0.27100
C 	C 	0.63037 0.84453 0.86443 0.63700
H 	H 	0.79737 0.09703 0.87163 0.04200
C 	C 	0.84767 0.16983 0.86953 0.05200
C 	C 	0.82477 0.21993 0.75833 0.16800
H 	H 	0.75577 0.17773 0.68533 0.10000
H 	H 	0.73617 0.89063 0.73303 0.15500
N 	N 	0.59047 0.85063 0.89233 0.74600
H 	H 	0.87057 0.16723 0.91713 0.02300
C 	C 	0.85937 0.21683 0.82633 -0.19000
N 	N 	0.83567 0.26653 0.71233 -0.22900
H 	H 	0.59607 0.88093 0.88033 -0.05800
C 	C 	0.54457 0.81943 0.93333 -0.17600
C 	C 	0.90787 0.26163 0.84543 0.45400
H 	H 	0.86697 0.28893 0.70073 0.16300
C 	C 	0.79967 0.27823 0.68433 0.11000
C 	C 	0.50797 0.83933 0.91833 0.42400
O 	O 	0.53067 0.77723 0.96733 -0.15200
O 	O 	0.76997 0.24973 0.61233 -0.23200
C 	C 	0.83797 0.33293 0.64633 0.24500
H 	H 	0.50877 0.85923 0.98483 -0.08800
C 	C 	0.45717 0.79273 0.90633 -0.90700
O 	O 	0.52027 0.86933 0.81633 -0.43600
O 	O 	0.87037 0.32843 0.56633 -0.39200
H 	H 	0.81657 0.33943 0.59463 -0.02100
C 	C 	0.84227 0.36603 0.74233 -0.61200
H 	H 	0.45767 0.77213 0.84713 0.31100
H 	H 	0.43207 0.80123 0.89093 0.32700
H 	H 	0.44997 0.77503 0.97483 0.30000
H 	H 	0.53557 0.89963 0.83263 0.24900
H 	H 	0.85817 0.29863 0.54763 0.22900
H 	H 	0.81327 0.37053 0.74323 0.19800
H 	H 	0.84377 0.35063 0.81193 0.21100
H 	H 	0.87247 0.39843 0.73393 0.23400
H 	H 	0.72777 0.81453 0.78063 -0.87700
Tb	Tb	0.32664 0.32710 0.96628 1.82100
O 	O 	0.38103 0.37637 0.12377 -0.52900
O 	O 	0.36193 0.41707 0.00357 -0.40200
O 	O 	0.36723 0.28087 0.01657 -0.42600
O 	O 	0.31513 0.27477 0.14817 -0.53800
O 	O 	0.26323 0.33077 0.06767 -0.48700
O 	O 	0.40933 0.37187 0.89307 -0.47100
C 	C 	0.39013 0.41727 0.07987 0.34100
C 	C 	0.34163 0.25867 0.09957 0.39900
C 	C 	0.43603 0.46467 0.11107 -0.02700
C 	C 	0.33803 0.21227 0.13737 -0.23600
C 	C 	0.47073 0.46167 0.17717 -0.05700
C 	C 	0.44593 0.50947 0.06617 -0.12400
C 	C 	0.37453 0.20067 0.10697 -0.27100
C 	C 	0.29703 0.17787 0.19777 0.63700
H 	H 	0.46403 0.43037 0.20497 0.04100
C 	C 	0.51433 0.50317 0.20287 0.05200
C 	C 	0.49143 0.55327 0.09167 0.16800
H 	H 	0.42243 0.51107 0.01867 0.10000
H 	H 	0.40283 0.22397 0.06637 0.15500
N 	N 	0.25713 0.18397 0.22567 0.74600
H 	H 	0.53723 0.50057 0.25047 0.02200
C 	C 	0.52603 0.55017 0.15967 -0.19100
N 	N 	0.50233 0.59987 0.04567 -0.23000
H 	H 	0.26273 0.21427 0.21367 -0.05800
C 	C 	0.21123 0.15277 0.26667 -0.17600
C 	C 	0.57453 0.59497 0.17877 0.45500
H 	H 	0.53363 0.62227 0.03407 0.16300
C 	C 	0.46633 0.61157 0.01767 0.11100
C 	C 	0.17463 0.17267 0.25167 0.42500
O 	O 	0.19733 0.11057 0.30067 -0.15200
O 	O 	0.43663 0.58307 0.94567 -0.23300
C 	C 	0.50463 0.66627 0.97967 0.24300
H 	H 	0.17543 0.19257 0.31817 -0.08700
C 	C 	0.12383 0.12607 0.23967 -0.90900
O 	O 	0.18693 0.20267 0.14967 -0.43600
O 	O 	0.53703 0.66177 0.89967 -0.39200
H 	H 	0.48323 0.67277 0.92797 -0.02000
C 	C 	0.50893 0.69937 0.07567 -0.60900
H 	H 	0.12433 0.10547 0.18047 0.31200
H 	H 	0.09873 0.13457 0.22427 0.32800
H 	H 	0.11663 0.10837 0.30817 0.30100
H 	H 	0.20223 0.23297 0.16597 0.24900
H 	H 	0.52483 0.63197 0.88097 0.22800
H 	H 	0.47993 0.70387 0.07657 0.19800
H 	H 	0.51043 0.68397 0.14527 0.21000
H 	H 	0.53913 0.73177 0.06727 0.23400
H 	H 	0.39443 0.14787 0.11397 -0.87700
Tb	Tb	0.33957 0.33288 0.29961 1.82100
O 	O 	0.29030 0.33800 0.45710 -0.52900
O 	O 	0.24960 0.27820 0.33690 -0.40200
O 	O 	0.38580 0.41970 0.34990 -0.42600
O 	O 	0.39190 0.37370 0.48150 -0.53800
O 	O 	0.33590 0.26580 0.40100 -0.48700
O 	O 	0.29480 0.37080 0.22640 -0.47100
C 	C 	0.24940 0.30620 0.41320 0.34100
C 	C 	0.40800 0.41630 0.43290 0.39900
C 	C 	0.20200 0.30470 0.44440 -0.02700
C 	C 	0.45440 0.45910 0.47070 -0.23600
C 	C 	0.20500 0.34240 0.51050 -0.05700
C 	C 	0.15720 0.26980 0.39950 -0.12300
C 	C 	0.46600 0.50720 0.44030 -0.27100
C 	C 	0.48880 0.45250 0.53110 0.63800
H 	H 	0.23630 0.36700 0.53830 0.04100
C 	C 	0.16350 0.34450 0.53620 0.05200
C 	C 	0.11340 0.27150 0.42500 0.16800
H 	H 	0.15560 0.24470 0.35200 0.10000
H 	H 	0.44270 0.51220 0.39970 0.15600
N 	N 	0.48270 0.40650 0.55900 0.74600
H 	H 	0.16610 0.37000 0.58380 0.02200
C 	C 	0.11650 0.30920 0.49300 -0.19100
N 	N 	0.06680 0.23580 0.37900 -0.23000
H 	H 	0.45240 0.38180 0.54700 -0.05800
C 	C 	0.51390 0.39180 0.60000 -0.17600
C 	C 	0.07170 0.31290 0.51210 0.45500
H 	H 	0.04440 0.24470 0.36740 0.16200
C 	C 	0.05510 0.18810 0.35100 0.10900
C 	C 	0.49400 0.33530 0.58500 0.42400
O 	O 	0.55610 0.42010 0.63400 -0.15200
O 	O 	0.08360 0.18690 0.27900 -0.23200
C 	C 	0.00040 0.17170 0.31300 0.24700
H 	H 	0.47410 0.31620 0.65150 -0.08700
C 	C 	0.54060 0.33110 0.57300 -0.90700
O 	O 	0.46400 0.31760 0.48300 -0.43600
O 	O 	0.00490 0.20860 0.23300 -0.39200
H 	H 	0.99390 0.14380 0.26130 -0.02200
C 	C 	0.96730 0.14290 0.40900 -0.61500
H 	H 	0.56120 0.35220 0.51380 0.31100
H 	H 	0.53210 0.29750 0.55760 0.32700
H 	H 	0.55830 0.34160 0.64150 0.30000
H 	H 	0.43370 0.30260 0.49930 0.24900
H 	H 	0.03470 0.22620 0.21430 0.22900
H 	H 	0.96280 0.10940 0.40990 0.20000
H 	H 	0.98270 0.15980 0.47860 0.21100
H 	H 	0.93490 0.14070 0.40060 0.23500
H 	H 	0.51880 0.57990 0.44730 -0.87700
Tb	Tb	0.00624 0.66621 0.63294 1.82100
O 	O 	0.95697 0.67133 0.79043 -0.52800
O 	O 	0.91627 0.61153 0.67023 -0.40100
O 	O 	0.05247 0.75303 0.68323 -0.42600
O 	O 	0.05857 0.70703 0.81483 -0.53800
O 	O 	0.00257 0.59913 0.73433 -0.48800
O 	O 	0.96147 0.70413 0.55973 -0.47000
C 	C 	0.91607 0.63953 0.74653 0.34100
C 	C 	0.07467 0.74963 0.76623 0.39800
C 	C 	0.86867 0.63803 0.77773 -0.02700
C 	C 	0.12107 0.79243 0.80403 -0.23600
C 	C 	0.87167 0.67573 0.84383 -0.05700
C 	C 	0.82387 0.60313 0.73283 -0.12400
C 	C 	0.13267 0.84053 0.77363 -0.27200
C 	C 	0.15547 0.78583 0.86443 0.63700
H 	H 	0.90297 0.70033 0.87163 0.04100
C 	C 	0.83017 0.67783 0.86953 0.05200
C 	C 	0.78007 0.60483 0.75833 0.16800
H 	H 	0.82227 0.57803 0.68533 0.10000
H 	H 	0.10937 0.84553 0.73303 0.15600
N 	N 	0.14937 0.73983 0.89233 0.74600
H 	H 	0.83277 0.70333 0.91713 0.02200
C 	C 	0.78317 0.64253 0.82633 -0.19100
N 	N 	0.73347 0.56913 0.71233 -0.23000
H 	H 	0.11907 0.71513 0.88033 -0.05900
C 	C 	0.18057 0.72513 0.93333 -0.17600
C 	C 	0.73837 0.64623 0.84543 0.45500
H 	H 	0.71107 0.57803 0.70073 0.16200
C 	C 	0.72177 0.52143 0.68433 0.11000
C 	C 	0.16067 0.66863 0.91833 0.42400
O 	O 	0.22277 0.75343 0.96733 -0.15300
O 	O 	0.75027 0.52023 0.61233 -0.23200
C 	C 	0.66707 0.50503 0.64633 0.24500
H 	H 	0.14077 0.64953 0.98483 -0.08800
C 	C 	0.20727 0.66443 0.90633 -0.90700
O 	O 	0.13067 0.65093 0.81633 -0.43600
O 	O 	0.67157 0.54193 0.56633 -0.39200
H 	H 	0.66057 0.47713 0.59463 -0.02100
C 	C 	0.63397 0.47623 0.74233 -0.61200
H 	H 	0.22787 0.68553 0.84713 0.31100
H 	H 	0.19877 0.63083 0.89093 0.32700
H 	H 	0.22497 0.67493 0.97483 0.30000
H 	H 	0.10037 0.63593 0.83263 0.24900
H 	H 	0.70137 0.55953 0.54763 0.22900
H 	H 	0.62947 0.44273 0.74323 0.19800
H 	H 	0.64937 0.49313 0.81193 0.21000
H 	H 	0.60157 0.47403 0.73393 0.23400
H 	H 	0.18547 0.91323 0.78063 -0.87800
Tb	Tb	0.67290 0.99955 0.96628 1.81700
O 	O 	0.62363 0.00467 0.12377 -0.53100
O 	O 	0.58293 0.94487 0.00357 -0.40100
O 	O 	0.71913 0.08637 0.01657 -0.42700
O 	O 	0.72523 0.04037 0.14817 -0.53800
O 	O 	0.66923 0.93247 0.06767 -0.48500
O 	O 	0.62813 0.03747 0.89307 -0.46900
C 	C 	0.58273 0.97287 0.07987 0.34300
C 	C 	0.74133 0.08297 0.09957 0.39900
C 	C 	0.53533 0.97137 0.11107 -0.02500
C 	C 	0.78773 0.12577 0.13737 -0.23700
C 	C 	0.53833 0.00907 0.17717 -0.06000
C 	C 	0.49053 0.93647 0.06617 -0.12400
C 	C 	0.79933 0.17387 0.10697 -0.27100
C 	C 	0.82213 0.11917 0.19777 0.63800
H 	H 	0.56963 0.03367 0.20497 0.04100
C 	C 	0.49683 0.01117 0.20287 0.05100
C 	C 	0.44673 0.93817 0.09167 0.16900
H 	H 	0.48893 0.91137 0.01867 0.10100
H 	H 	0.77603 0.17887 0.06637 0.15500
N 	N 	0.81603 0.07317 0.22567 0.74600
H 	H 	0.49943 0.03667 0.25047 0.02200
C 	C 	0.44983 0.97587 0.15967 -0.19000
N 	N 	0.40013 0.90247 0.04567 -0.23000
H 	H 	0.78573 0.04847 0.21367 -0.05800
C 	C 	0.84723 0.05847 0.26667 -0.17400
C 	C 	0.40503 0.97957 0.17877 0.45600
H 	H 	0.37773 0.91137 0.03407 0.16400
C 	C 	0.38843 0.85477 0.01767 0.11500
C 	C 	0.82733 0.00197 0.25167 0.41600
O 	O 	0.88943 0.08677 0.30067 -0.15300
O 	O 	0.41693 0.85357 0.94567 -0.23500
C 	C 	0.33373 0.83837 0.97967 0.23700
H 	H 	0.80743 0.98287 0.31817 -0.08400
C 	C 	0.87393 0.99777 0.23967 -0.89000
O 	O 	0.79733 0.98427 0.14967 -0.43300
O 	O 	0.33823 0.87527 0.89967 -0.39100
H 	H 	0.32723 0.81047 0.92797 -0.01900
C 	C 	0.30063 0.80957 0.07567 -0.60300
H 	H 	0.89453 0.01887 0.18047 0.30500
H 	H 	0.86543 0.96417 0.22427 0.32200
H 	H 	0.89163 0.00827 0.30817 0.29500
H 	H 	0.76703 0.96927 0.16597 0.24900
H 	H 	0.36803 0.89287 0.88097 0.22700
H 	H 	0.29613 0.77607 0.07657 0.19600
H 	H 	0.31603 0.82647 0.14527 0.20800
H 	H 	0.26823 0.80737 0.06727 0.23300
H 	H 	0.85213 0.24657 0.11397 -0.87700
