data_crystal

_cell_length_a 12.04320
_cell_length_b 15.93220
_cell_length_c 16.64200
_cell_angle_alpha 76.77000
_cell_angle_beta  70.17200
_cell_angle_gamma 85.48100

_symmetry_space_group_name_	'P 1'
_symmetry_space_group_name_H-M	'P 1'

loop_
_symmetry_equiv_pos_as_xyz
  x,y,z

loop_
_atom_site_label
_atom_site_type_symbol
_atom_site_fract_x
_atom_site_fract_y
_atom_site_fract_z
_atom_site_charge
Zn	Zn	0.67807 0.84075 0.36224 1.23500
C 	C 	0.74980 0.13570 0.13700 -0.20300
H 	H 	0.76430 0.09590 0.18270 0.10400
C 	C 	0.63670 0.14310 0.12670 0.13500
C 	C 	0.61690 0.19500 0.05890 -0.00900
C 	C 	0.71010 0.24830 0.99920 -0.04800
H 	H 	0.69720 0.28650 0.95190 0.06300
C 	C 	0.81900 0.24600 0.00820 -0.02200
C 	C 	0.83540 0.18910 0.07730 0.16300
C 	C 	0.91980 0.30480 0.94360 -0.04100
H 	H 	0.99320 0.27130 0.93490 0.07300
C 	C 	0.92960 0.38070 0.98880 0.00100
C 	C 	0.92820 0.35980 0.08220 -0.02500
C 	C 	0.90640 0.33930 0.85590 -0.01900
C 	C 	0.87910 0.42500 0.82420 -0.07900
H 	H 	0.86220 0.46250 0.86220 0.06400
C 	C 	0.87550 0.45690 0.74310 0.00700
C 	C 	0.90060 0.39970 0.68510 0.14800
C 	C 	0.92610 0.31490 0.71390 -0.20900
H 	H 	0.94180 0.27720 0.67620 0.11100
C 	C 	0.92880 0.28480 0.79730 0.16000
C 	C 	0.84800 0.55070 0.71140 -0.14600
H 	H 	0.89660 0.56600 0.64960 0.09300
C 	C 	0.87970 0.61460 0.75460 0.22800
H 	H 	0.85370 0.67140 0.73180 -0.04100
H 	H 	0.83660 0.59970 0.81680 -0.04300
C 	C 	0.01080 0.61900 0.74160 -0.73700
H 	H 	0.02310 0.66010 0.77190 0.24800
H 	H 	0.05420 0.63630 0.68040 0.24800
H 	H 	0.03760 0.56320 0.76450 0.25600
C 	C 	0.72120 0.56720 0.71360 0.01000
C 	C 	0.68380 0.64390 0.67010 0.13800
C 	C 	0.56600 0.66130 0.67260 -0.19600
H 	H 	0.54470 0.71250 0.64140 0.10500
C 	C 	0.48390 0.59780 0.72430 0.16200
C 	C 	0.51330 0.52130 0.77000 -0.01900
C 	C 	0.63270 0.50690 0.76570 -0.06100
H 	H 	0.65280 0.45610 0.79820 0.06700
C 	C 	0.41990 0.45590 0.83010 -0.03800
H 	H 	0.36690 0.45280 0.79730 0.06900
C 	C 	0.34390 0.49110 0.91010 -0.00500
C 	C 	0.46670 0.36550 0.84950 -0.02600
C 	C 	0.46340 0.32040 0.93330 -0.06800
H 	H 	0.43350 0.35030 0.97810 0.06100
C 	C 	0.49880 0.23860 0.95600 -0.00400
C 	C 	0.53960 0.19620 0.88870 0.14500
C 	C 	0.54630 0.23520 0.80390 -0.21000
H 	H 	0.57560 0.20400 0.76020 0.11200
C 	C 	0.51070 0.31880 0.78270 0.16900
C 	C 	0.49450 0.20040 0.04620 -0.11700
H 	H 	0.47240 0.14010 0.05550 0.07800
C 	C 	0.40330 0.23320 0.11910 0.17600
H 	H 	0.41130 0.29510 0.10910 -0.02200
H 	H 	0.41630 0.20740 0.17400 -0.02100
C 	C 	0.27860 0.21200 0.12580 -0.66000
H 	H 	0.22220 0.23430 0.17250 0.22100
H 	H 	0.26970 0.15060 0.13740 0.21200
H 	H 	0.26540 0.23770 0.07170 0.22900
C 	C 	0.53710 0.06600 0.27200 -0.38700
H 	H 	0.45380 0.06460 0.30620 0.13500
H 	H 	0.57260 0.11220 0.28400 0.12700
C 	C 	0.58890 0.98640 0.30210 0.53200
C 	C 	0.97070 0.13570 0.15320 -0.10200
H 	H 	0.05270 0.13890 0.14660 0.05100
H 	H 	0.95000 0.07680 0.16020 0.05600
H 	H 	0.92350 0.15680 0.20380 0.05100
C 	C 	0.96500 0.13770 0.77950 -0.22800
H 	H 	0.91000 0.15170 0.74730 0.10400
H 	H 	0.94220 0.08190 0.81860 0.10400
C 	C 	0.08200 0.12870 0.71700 0.41000
C 	C 	0.93610 0.37380 0.54350 -0.24600
H 	H 	0.93370 0.40190 0.48650 0.11400
H 	H 	0.88320 0.32550 0.56670 0.10400
H 	H 	0.01490 0.35410 0.53900 0.12000
C 	C 	0.74060 0.78820 0.60230 -0.18000
H 	H 	0.81190 0.81970 0.59120 0.10100
H 	H 	0.68810 0.79620 0.65890 0.08900
C 	C 	0.68430 0.84040 0.53740 0.37600
C 	C 	0.34340 0.68670 0.68310 -0.14900
H 	H 	0.26070 0.68920 0.69040 0.07400
H 	H 	0.38840 0.69140 0.62240 0.07900
H 	H 	0.36350 0.73330 0.70330 0.06900
C 	C 	0.58230 0.32560 0.63420 -0.23300
H 	H 	0.65410 0.30310 0.64540 0.11200
H 	H 	0.60460 0.37130 0.58200 0.12300
C 	C 	0.52270 0.25330 0.61650 0.48700
C 	C 	0.61240 0.06090 0.84550 -0.18200
H 	H 	0.63380 0.00400 0.87000 0.07600
H 	H 	0.67940 0.08820 0.79860 0.08000
H 	H 	0.54930 0.05740 0.82350 0.09900
O 	O 	0.54730 0.08680 0.18270 -0.14500
O 	O 	0.64050 0.94110 0.24960 -0.39700
O 	O 	0.58090 0.96360 0.37940 -0.63200
O 	O 	0.95050 0.18460 0.08060 -0.19800
O 	O 	0.95030 0.20010 0.83200 -0.15500
O 	O 	0.09560 0.08000 0.67010 -0.36300
O 	O 	0.16170 0.17830 0.71380 -0.43400
O 	O 	0.89920 0.43600 0.60280 -0.16900
O 	O 	0.77420 0.70100 0.61750 -0.16900
O 	O 	0.68670 0.80190 0.48370 -0.47000
O 	O 	0.64530 0.92280 0.53980 -0.41500
O 	O 	0.36880 0.60900 0.73100 -0.18900
O 	O 	0.51430 0.36000 0.70270 -0.15600
O 	O 	0.58700 0.20820 0.56960 -0.56900
H 	H 	0.54740 0.17210 0.56360 0.22800
O 	O 	0.41330 0.24970 0.64750 -0.48500
O 	O 	0.57540 0.10990 0.91080 -0.17600
Zn	Zn	0.32193 0.15925 0.63776 1.23200
C 	C 	0.25020 0.86430 0.86300 -0.19600
H 	H 	0.23570 0.90410 0.81730 0.12200
C 	C 	0.36330 0.85690 0.87330 0.14100
C 	C 	0.38310 0.80500 0.94110 0.01100
C 	C 	0.28990 0.75170 0.00080 -0.06600
H 	H 	0.30280 0.71350 0.04810 0.06900
C 	C 	0.18100 0.75400 0.99180 -0.00600
C 	C 	0.16460 0.81090 0.92270 0.15600
C 	C 	0.08020 0.69520 0.05640 -0.05000
H 	H 	0.00680 0.72870 0.06510 0.07700
C 	C 	0.07040 0.61930 0.01120 -0.00000
C 	C 	0.07180 0.64020 0.91780 -0.02300
C 	C 	0.09360 0.66070 0.14410 -0.01400
C 	C 	0.12090 0.57500 0.17580 -0.08200
H 	H 	0.13780 0.53750 0.13780 0.06500
C 	C 	0.12450 0.54310 0.25690 0.00900
C 	C 	0.09940 0.60030 0.31490 0.14600
C 	C 	0.07390 0.68510 0.28610 -0.20600
H 	H 	0.05820 0.72280 0.32380 0.11100
C 	C 	0.07120 0.71520 0.20270 0.15700
C 	C 	0.15200 0.44930 0.28860 -0.14700
H 	H 	0.10340 0.43400 0.35040 0.09300
C 	C 	0.12030 0.38540 0.24540 0.23000
H 	H 	0.14630 0.32860 0.26820 -0.04300
H 	H 	0.16340 0.40030 0.18320 -0.04400
C 	C 	0.98920 0.38100 0.25840 -0.73800
H 	H 	0.97690 0.33990 0.22810 0.24700
H 	H 	0.94580 0.36370 0.31960 0.24600
H 	H 	0.96240 0.43680 0.23550 0.25600
C 	C 	0.27880 0.43280 0.28640 0.01100
C 	C 	0.31620 0.35610 0.32990 0.13700
C 	C 	0.43400 0.33870 0.32740 -0.19600
H 	H 	0.45530 0.28750 0.35860 0.10400
C 	C 	0.51610 0.40220 0.27570 0.16200
C 	C 	0.48670 0.47870 0.23000 -0.01800
C 	C 	0.36730 0.49310 0.23430 -0.06200
H 	H 	0.34720 0.54390 0.20180 0.06700
C 	C 	0.58010 0.54410 0.16990 -0.04100
H 	H 	0.63310 0.54720 0.20270 0.07000
C 	C 	0.65610 0.50890 0.08990 -0.00500
C 	C 	0.53330 0.63450 0.15050 -0.01900
C 	C 	0.53660 0.67960 0.06670 -0.08200
H 	H 	0.56650 0.64970 0.02190 0.06600
C 	C 	0.50120 0.76140 0.04400 0.01800
C 	C 	0.46040 0.80380 0.11130 0.12900
C 	C 	0.45370 0.76480 0.19610 -0.19700
H 	H 	0.42440 0.79600 0.23980 0.10900
C 	C 	0.48930 0.68120 0.21730 0.16200
C 	C 	0.50550 0.79960 0.95380 -0.15300
H 	H 	0.52760 0.85990 0.94450 0.10400
C 	C 	0.59670 0.76680 0.88090 0.23600
H 	H 	0.58870 0.70490 0.89090 -0.04100
H 	H 	0.58370 0.79260 0.82600 -0.03600
C 	C 	0.72140 0.78800 0.87420 -0.74300
H 	H 	0.77780 0.76570 0.82750 0.25000
H 	H 	0.73030 0.84940 0.86260 0.25500
H 	H 	0.73460 0.76230 0.92830 0.25700
C 	C 	0.46290 0.93400 0.72800 -0.22500
H 	H 	0.54620 0.93540 0.69380 0.11300
H 	H 	0.42740 0.88780 0.71600 0.09200
C 	C 	0.41110 0.01360 0.69790 0.39800
C 	C 	0.02930 0.86430 0.84680 -0.17300
H 	H 	0.94730 0.86110 0.85340 0.08400
H 	H 	0.05000 0.92320 0.83980 0.10400
H 	H 	0.07650 0.84320 0.79620 0.08200
C 	C 	0.03500 0.86230 0.22050 -0.24000
H 	H 	0.09000 0.84830 0.25270 0.11300
H 	H 	0.05780 0.91810 0.18140 0.12900
C 	C 	0.91800 0.87130 0.28300 0.41700
C 	C 	0.06390 0.62620 0.45650 -0.24800
H 	H 	0.06630 0.59810 0.51350 0.11500
H 	H 	0.11680 0.67450 0.43330 0.10700
H 	H 	0.98510 0.64590 0.46100 0.12100
C 	C 	0.25940 0.21180 0.39770 -0.17400
H 	H 	0.18810 0.18030 0.40880 0.09000
H 	H 	0.31190 0.20380 0.34110 0.08300
C 	C 	0.31570 0.15960 0.46260 0.37400
C 	C 	0.65660 0.31330 0.31690 -0.13600
H 	H 	0.73930 0.31080 0.30960 0.06700
H 	H 	0.61160 0.30860 0.37760 0.07200
H 	H 	0.63650 0.26670 0.29670 0.06100
C 	C 	0.41770 0.67440 0.36580 -0.23400
H 	H 	0.34590 0.69690 0.35460 0.11400
H 	H 	0.39540 0.62870 0.41800 0.12400
C 	C 	0.47730 0.74670 0.38350 0.48700
C 	C 	0.38760 0.93910 0.15450 -0.27900
H 	H 	0.36620 0.99600 0.13000 0.14100
H 	H 	0.32060 0.91180 0.20140 0.12100
H 	H 	0.45070 0.94260 0.17650 0.15000
O 	O 	0.45270 0.91320 0.81730 -0.14600
O 	O 	0.35950 0.05890 0.75040 -0.39000
O 	O 	0.41910 0.03640 0.62060 -0.62800
O 	O 	0.04950 0.81540 0.91940 -0.17500
O 	O 	0.04970 0.79990 0.16800 -0.14600
O 	O 	0.90440 0.92000 0.32990 -0.33700
O 	O 	0.83830 0.82170 0.28620 -0.43000
O 	O 	0.10080 0.56400 0.39720 -0.16800
O 	O 	0.22580 0.29900 0.38250 -0.17200
O 	O 	0.31330 0.19810 0.51630 -0.47300
O 	O 	0.35470 0.07720 0.46020 -0.44700
O 	O 	0.63120 0.39100 0.26900 -0.19200
O 	O 	0.48570 0.64000 0.29730 -0.15400
O 	O 	0.41300 0.79180 0.43040 -0.56300
H 	H 	0.45260 0.82790 0.43640 0.23400
O 	O 	0.58670 0.75030 0.35250 -0.48300
O 	O 	0.42460 0.89010 0.08920 -0.13800
Zn	Zn	0.50000 0.00000 0.50000 1.16700
