data_crystal

_cell_length_a 7.54230
_cell_length_b 12.53870
_cell_length_c 13.68870
_cell_angle_alpha 90.00000
_cell_angle_beta  105.99100
_cell_angle_gamma 90.00000

_symmetry_space_group_name_	'P 1'
_symmetry_space_group_name_H-M	'P 1'

loop_
_symmetry_equiv_pos_as_xyz
  x,y,z

loop_
_atom_site_label
_atom_site_type_symbol
_atom_site_fract_x
_atom_site_fract_y
_atom_site_fract_z
_atom_site_charge
Ni	Ni	0.50000 0.50000 0.50000 1.04700
Ni	Ni	0.00000 0.50000 0.50000 1.03100
H 	H 	0.54290 0.73500 0.60660 0.09800
H 	H 	0.57000 0.91200 0.63800 0.05900
H 	H 	0.45710 0.73500 0.39340 0.09600
H 	H 	0.78150 0.58070 0.09120 0.05600
H 	H 	0.43000 0.91200 0.36200 0.06500
H 	H 	0.06370 0.26500 0.60660 0.07000
H 	H 	0.06800 0.08800 0.63800 0.00500
H 	H 	0.93630 0.26500 0.39340 0.12500
H 	H 	0.30970 0.41930 0.09120 0.04500
H 	H 	0.93200 0.08800 0.36200 0.11600
H 	H 	0.45710 0.26500 0.39340 0.09600
H 	H 	0.43000 0.08800 0.36200 0.06300
H 	H 	0.54290 0.26500 0.60660 0.09800
H 	H 	0.21850 0.41930 0.90880 0.04500
H 	H 	0.57000 0.08800 0.63800 0.05900
H 	H 	0.93630 0.73500 0.39340 0.12500
H 	H 	0.93200 0.91200 0.36200 0.11800
H 	H 	0.06370 0.73500 0.60660 0.07000
H 	H 	0.69030 0.58070 0.90880 0.05600
H 	H 	0.06800 0.91200 0.63800 0.00600
C 	C 	0.66013 0.94510 0.63746 -0.05900
C 	C 	0.66820 0.54120 0.05360 -0.02900
C 	C 	0.33987 0.94510 0.36254 -0.07400
C 	C 	0.97733 0.05490 0.63746 0.00700
C 	C 	0.38540 0.45880 0.05360 -0.03200
C 	C 	0.02267 0.05490 0.36254 -0.13200
C 	C 	0.33987 0.05490 0.36254 -0.06900
C 	C 	0.33180 0.45880 0.94640 -0.04400
C 	C 	0.66013 0.05490 0.63746 -0.05700
C 	C 	0.02267 0.94510 0.36254 -0.13700
C 	C 	0.61460 0.54120 0.94640 -0.04000
C 	C 	0.97733 0.94510 0.63746 0.00500
C 	C 	0.39128 0.50000 0.78256 0.10900
C 	C 	0.44730 0.50000 0.89460 -0.00500
C 	C 	0.60872 0.50000 0.21744 0.11300
C 	C 	0.55270 0.50000 0.10540 -0.01000
C 	C 	0.80771 0.77330 0.61542 0.13600
C 	C 	0.81704 0.88790 0.63408 -0.02800
C 	C 	0.19229 0.77330 0.38458 0.11400
C 	C 	0.18296 0.88790 0.36592 0.01200
C 	C 	0.80771 0.22670 0.61542 0.13600
C 	C 	0.81704 0.11210 0.63408 -0.02900
C 	C 	0.19229 0.22670 0.38458 0.11600
C 	C 	0.18296 0.11210 0.36592 0.00800
N 	N 	0.69608 0.61946 0.56796 -0.15400
N 	N 	0.65246 0.71453 0.59872 -0.16100
N 	N 	0.30392 0.61946 0.43204 -0.15600
N 	N 	0.34754 0.71453 0.40128 -0.15800
N 	N 	0.87188 0.38054 0.56796 -0.14700
N 	N 	0.94626 0.28547 0.59872 -0.13300
N 	N 	0.12812 0.38054 0.43204 -0.16000
N 	N 	0.05374 0.28547 0.40128 -0.18600
N 	N 	0.30392 0.38054 0.43204 -0.15600
N 	N 	0.34754 0.28547 0.40128 -0.15800
N 	N 	0.69608 0.38054 0.56796 -0.15400
N 	N 	0.65246 0.28547 0.59872 -0.16100
N 	N 	0.12812 0.61946 0.43204 -0.16000
N 	N 	0.05374 0.71453 0.40128 -0.18600
N 	N 	0.87188 0.61946 0.56796 -0.14700
N 	N 	0.94626 0.71453 0.59872 -0.13200
N 	N 	0.40294 0.50000 0.62948 -0.16700
N 	N 	0.50984 0.50000 0.72508 -0.09500
N 	N 	0.59706 0.50000 0.37052 -0.16700
N 	N 	0.49016 0.50000 0.27492 -0.09900
N 	N 	0.22654 0.50000 0.62948 -0.17100
N 	N 	0.21524 0.50000 0.72508 -0.10300
N 	N 	0.77346 0.50000 0.37052 -0.15900
N 	N 	0.78476 0.50000 0.27492 -0.09000
