data_crystal

_cell_length_a 9.28700
_cell_length_b 16.66700
_cell_length_c 28.24200
_cell_angle_alpha 90.00000
_cell_angle_beta  90.00000
_cell_angle_gamma 97.03000

_symmetry_space_group_name_	'P 1'
_symmetry_space_group_name_H-M	'P 1'

loop_
_symmetry_equiv_pos_as_xyz
  x,y,z

loop_
_atom_site_label
_atom_site_type_symbol
_atom_site_fract_x
_atom_site_fract_y
_atom_site_fract_z
_atom_site_charge
Co	Co	0.80722 0.71979 0.69522 1.19000
Co	Co	0.75545 0.73061 0.57543 1.14000
Co	Co	0.19278 0.78021 0.19522 1.19000
Co	Co	0.24455 0.76939 0.07543 1.14000
Co	Co	0.19278 0.28021 0.30478 1.19000
Co	Co	0.24455 0.26939 0.42457 1.14000
Co	Co	0.80722 0.21979 0.80478 1.19000
Co	Co	0.75545 0.23061 0.92457 1.14000
H 	H 	0.04930 0.30000 0.51010 -0.00100
H 	H 	0.93900 0.23670 0.57580 0.08600
H 	H 	0.13400 0.04080 0.54280 0.08500
H 	H 	0.23470 0.10940 0.47730 -0.01200
H 	H 	0.95180 0.18850 0.65060 0.05200
H 	H 	0.80840 0.98090 0.71860 0.05700
H 	H 	0.93550 0.97530 0.58150 0.03900
H 	H 	0.41790 0.32510 0.51450 -0.02000
H 	H 	0.43020 0.42520 0.57150 0.08500
H 	H 	0.19050 0.55080 0.48540 0.08200
H 	H 	0.19000 0.44870 0.43040 0.00300
H 	H 	0.51150 0.56270 0.59570 0.03500
H 	H 	0.28430 0.71080 0.67120 0.04500
H 	H 	0.09570 0.58430 0.56040 0.04000
H 	H 	0.95070 0.20000 0.01010 -0.00200
H 	H 	0.06100 0.26330 0.07580 0.08500
H 	H 	0.86600 0.45920 0.04280 0.08400
H 	H 	0.76530 0.39060 0.97730 -0.01300
H 	H 	0.04820 0.31150 0.15060 0.05100
H 	H 	0.19160 0.51910 0.21860 0.05600
H 	H 	0.06450 0.52470 0.08150 0.03800
H 	H 	0.58210 0.17490 0.01450 -0.02100
H 	H 	0.56980 0.07480 0.07150 0.08500
H 	H 	0.80950 0.94920 0.98540 0.08200
H 	H 	0.81000 0.05130 0.93040 0.00300
H 	H 	0.48850 0.93730 0.09570 0.03500
H 	H 	0.71570 0.78920 0.17120 0.04500
H 	H 	0.90430 0.91570 0.06040 0.04000
H 	H 	0.95070 0.70000 0.48990 -0.00200
H 	H 	0.06100 0.76330 0.42420 0.08500
H 	H 	0.86600 0.95920 0.45720 0.08400
H 	H 	0.76530 0.89060 0.52270 -0.01300
H 	H 	0.04820 0.81150 0.34940 0.05100
H 	H 	0.19160 0.01910 0.28140 0.05600
H 	H 	0.06450 0.02470 0.41850 0.03800
H 	H 	0.58210 0.67490 0.48550 -0.02100
H 	H 	0.56980 0.57480 0.42850 0.08500
H 	H 	0.80950 0.44920 0.51460 0.08200
H 	H 	0.81000 0.55130 0.56960 0.00300
H 	H 	0.48850 0.43730 0.40430 0.03500
H 	H 	0.71570 0.28920 0.32880 0.04500
H 	H 	0.90430 0.41570 0.43960 0.04000
H 	H 	0.04930 0.80000 0.98990 -0.00200
H 	H 	0.93900 0.73670 0.92420 0.08500
H 	H 	0.13400 0.54080 0.95720 0.08400
H 	H 	0.23470 0.60940 0.02270 -0.01300
H 	H 	0.95180 0.68850 0.84940 0.05100
H 	H 	0.80840 0.48090 0.78140 0.05600
H 	H 	0.93550 0.47530 0.91850 0.03800
H 	H 	0.41790 0.82510 0.98550 -0.02100
H 	H 	0.43020 0.92520 0.92850 0.08500
H 	H 	0.19050 0.05080 0.01460 0.08200
H 	H 	0.19000 0.94870 0.06960 0.00300
H 	H 	0.51150 0.06270 0.90430 0.03500
H 	H 	0.28430 0.21080 0.82880 0.04500
H 	H 	0.09570 0.08430 0.93960 0.04000
C 	C 	0.06630 0.24610 0.51672 0.08900
C 	C 	0.00030 0.20900 0.55644 -0.15400
C 	C 	0.02530 0.13100 0.56737 0.10000
C 	C 	0.11420 0.09450 0.53686 -0.15400
C 	C 	0.17440 0.13610 0.49769 0.08600
C 	C 	0.95930 0.08850 0.60977 -0.04100
C 	C 	0.93240 0.13120 0.65053 -0.00400
C 	C 	0.87740 0.09120 0.69130 -0.07200
C 	C 	0.84470 0.00820 0.69077 0.03100
C 	C 	0.86430 0.96350 0.64963 -0.10400
C 	C 	0.92170 0.00490 0.60960 0.00900
C 	C 	0.84890 0.13800 0.73472 0.30000
C 	C 	0.82510 0.87410 0.64856 0.38500
C 	C 	0.36990 0.37130 0.50883 0.08000
C 	C 	0.37720 0.43070 0.54310 -0.14700
C 	C 	0.30660 0.49840 0.53590 0.09500
C 	C 	0.23710 0.50450 0.49245 -0.15100
C 	C 	0.23660 0.44300 0.45996 0.08600
C 	C 	0.30240 0.56100 0.57299 -0.04300
C 	C 	0.42400 0.58560 0.60094 -0.00700
C 	C 	0.41830 0.64300 0.63622 -0.11100
C 	C 	0.29010 0.67450 0.64551 0.03700
C 	C 	0.17000 0.65260 0.61690 -0.09900
C 	C 	0.17720 0.59740 0.58048 0.00400
C 	C 	0.55500 0.67370 0.66235 0.32600
C 	C 	0.02850 0.68730 0.62501 0.37200
C 	C 	0.93370 0.25390 0.01672 0.08900
C 	C 	0.99970 0.29100 0.05644 -0.15400
C 	C 	0.97470 0.36900 0.06737 0.10000
C 	C 	0.88580 0.40550 0.03686 -0.15400
C 	C 	0.82560 0.36390 0.99769 0.08600
C 	C 	0.04070 0.41150 0.10977 -0.04100
C 	C 	0.06760 0.36880 0.15053 -0.00400
C 	C 	0.12260 0.40880 0.19130 -0.07200
C 	C 	0.15530 0.49180 0.19077 0.03100
C 	C 	0.13570 0.53650 0.14963 -0.10400
C 	C 	0.07830 0.49510 0.10960 0.00800
C 	C 	0.15110 0.36200 0.23472 0.30000
C 	C 	0.17490 0.62590 0.14856 0.38500
C 	C 	0.63010 0.12870 0.00883 0.08000
C 	C 	0.62280 0.06930 0.04310 -0.14700
C 	C 	0.69340 0.00160 0.03590 0.09500
C 	C 	0.76290 0.99550 0.99245 -0.15200
C 	C 	0.76340 0.05700 0.95996 0.08600
C 	C 	0.69760 0.93900 0.07299 -0.04300
C 	C 	0.57600 0.91440 0.10094 -0.00700
C 	C 	0.58170 0.85700 0.13622 -0.11100
C 	C 	0.70990 0.82550 0.14551 0.03700
C 	C 	0.83000 0.84740 0.11690 -0.09900
C 	C 	0.82280 0.90260 0.08048 0.00400
C 	C 	0.44500 0.82630 0.16235 0.32600
C 	C 	0.97150 0.81270 0.12501 0.37200
C 	C 	0.93370 0.75390 0.48328 0.08900
C 	C 	0.99970 0.79100 0.44356 -0.15400
C 	C 	0.97470 0.86900 0.43263 0.10000
C 	C 	0.88580 0.90550 0.46314 -0.15400
C 	C 	0.82560 0.86390 0.50231 0.08600
C 	C 	0.04070 0.91150 0.39023 -0.04100
C 	C 	0.06760 0.86880 0.34947 -0.00400
C 	C 	0.12260 0.90880 0.30870 -0.07200
C 	C 	0.15530 0.99180 0.30923 0.03100
C 	C 	0.13570 0.03650 0.35037 -0.10400
C 	C 	0.07830 0.99510 0.39040 0.00900
C 	C 	0.15110 0.86200 0.26528 0.30000
C 	C 	0.17490 0.12590 0.35144 0.38500
C 	C 	0.63010 0.62870 0.49117 0.08000
C 	C 	0.62280 0.56930 0.45690 -0.14700
C 	C 	0.69340 0.50160 0.46410 0.09500
C 	C 	0.76290 0.49550 0.50755 -0.15100
C 	C 	0.76340 0.55700 0.54004 0.08600
C 	C 	0.69760 0.43900 0.42701 -0.04300
C 	C 	0.57600 0.41440 0.39906 -0.00700
C 	C 	0.58170 0.35700 0.36378 -0.11100
C 	C 	0.70990 0.32550 0.35449 0.03700
C 	C 	0.83000 0.34740 0.38310 -0.09900
C 	C 	0.82280 0.40260 0.41952 0.00400
C 	C 	0.44500 0.32630 0.33765 0.32600
C 	C 	0.97150 0.31270 0.37499 0.37200
C 	C 	0.06630 0.74610 0.98328 0.08900
C 	C 	0.00030 0.70900 0.94356 -0.15400
C 	C 	0.02530 0.63100 0.93263 0.10000
C 	C 	0.11420 0.59450 0.96314 -0.15400
C 	C 	0.17440 0.63610 0.00231 0.08600
C 	C 	0.95930 0.58850 0.89023 -0.04100
C 	C 	0.93240 0.63120 0.84947 -0.00400
C 	C 	0.87740 0.59120 0.80870 -0.07200
C 	C 	0.84470 0.50820 0.80923 0.03100
C 	C 	0.86430 0.46350 0.85037 -0.10400
C 	C 	0.92170 0.50490 0.89040 0.00800
C 	C 	0.84890 0.63800 0.76528 0.30000
C 	C 	0.82510 0.37410 0.85144 0.38500
C 	C 	0.36990 0.87130 0.99117 0.08000
C 	C 	0.37720 0.93070 0.95690 -0.14700
C 	C 	0.30660 0.99840 0.96410 0.09500
C 	C 	0.23710 0.00450 0.00755 -0.15200
C 	C 	0.23660 0.94300 0.04004 0.08600
C 	C 	0.30240 0.06100 0.92701 -0.04300
C 	C 	0.42400 0.08560 0.89906 -0.00700
C 	C 	0.41830 0.14300 0.86378 -0.11100
C 	C 	0.29010 0.17450 0.85449 0.03700
C 	C 	0.17000 0.15260 0.88310 -0.09900
C 	C 	0.17720 0.09740 0.91952 0.00400
C 	C 	0.55500 0.17370 0.83765 0.32600
C 	C 	0.02850 0.18730 0.87499 0.37200
N 	N 	0.15220 0.21107 0.48717 -0.24000
N 	N 	0.29810 0.37573 0.46763 -0.24000
N 	N 	0.84780 0.28893 0.98717 -0.24000
N 	N 	0.70190 0.12427 0.96763 -0.24000
N 	N 	0.84780 0.78893 0.51283 -0.24000
N 	N 	0.70190 0.62427 0.53237 -0.24000
N 	N 	0.15220 0.71107 0.01283 -0.24000
N 	N 	0.29810 0.87573 0.03237 -0.24000
O 	O 	0.80540 0.83874 0.68794 -0.43300
O 	O 	0.81500 0.84106 0.60877 -0.45800
O 	O 	0.81140 0.10105 0.77209 -0.34800
O 	O 	0.86450 0.21439 0.73331 -0.36500
O 	O 	0.67550 0.67392 0.64001 -0.53100
O 	O 	0.55260 0.69916 0.70352 -0.33700
O 	O 	0.00580 0.71284 0.66649 -0.41800
O 	O 	0.94710 0.68776 0.58982 -0.44200
O 	O 	0.19460 0.66126 0.18794 -0.43300
O 	O 	0.18500 0.65894 0.10877 -0.45800
O 	O 	0.18860 0.39895 0.27209 -0.34800
O 	O 	0.13550 0.28561 0.23331 -0.36500
O 	O 	0.32450 0.82608 0.14001 -0.53100
O 	O 	0.44740 0.80084 0.20352 -0.33700
O 	O 	0.99420 0.78716 0.16649 -0.41800
O 	O 	0.05290 0.81224 0.08982 -0.44200
O 	O 	0.19460 0.16126 0.31206 -0.43300
O 	O 	0.18500 0.15894 0.39123 -0.45800
O 	O 	0.18860 0.89895 0.22791 -0.34800
O 	O 	0.13550 0.78561 0.26669 -0.36500
O 	O 	0.32450 0.32608 0.35999 -0.53100
O 	O 	0.44740 0.30084 0.29648 -0.33700
O 	O 	0.99420 0.28716 0.33351 -0.41800
O 	O 	0.05290 0.31224 0.41018 -0.44200
O 	O 	0.80540 0.33874 0.81206 -0.43300
O 	O 	0.81500 0.34106 0.89123 -0.45800
O 	O 	0.81140 0.60105 0.72791 -0.34800
O 	O 	0.86450 0.71439 0.76669 -0.36500
O 	O 	0.67550 0.17392 0.85999 -0.53100
O 	O 	0.55260 0.19916 0.79648 -0.33700
O 	O 	0.00580 0.21284 0.83351 -0.41800
O 	O 	0.94710 0.18776 0.91018 -0.44200
