data_crystal

_cell_length_a 11.99400
_cell_length_b 16.35090
_cell_length_c 16.35090
_cell_angle_alpha 65.77500
_cell_angle_beta  75.84700
_cell_angle_gamma 104.15300

_symmetry_space_group_name_	'P 1'
_symmetry_space_group_name_H-M	'P 1'

loop_
_symmetry_equiv_pos_as_xyz
  x,y,z

loop_
_atom_site_label
_atom_site_type_symbol
_atom_site_fract_x
_atom_site_fract_y
_atom_site_fract_z
_atom_site_charge
Mn	Mn	0.50000 0.50000 -0.00000 1.25600
Mn	Mn	0.50000 0.00000 0.50000 1.25600
Mn	Mn	-0.00000 0.50000 0.50000 1.27000
H 	H 	0.91960 0.62520 0.74720 0.14000
H 	H 	0.67560 0.37100 0.72130 0.02700
H 	H 	0.41680 0.33160 0.95160 0.03300
H 	H 	0.43050 0.18380 0.92350 -0.01200
H 	H 	0.35450 0.23920 0.87420 -0.00300
H 	H 	0.47610 0.26500 0.72300 0.19600
H 	H 	0.41580 0.15310 0.79830 0.20100
H 	H 	0.55620 0.21320 0.77020 0.20400
H 	H 	0.99190 0.83070 0.67820 0.12400
H 	H 	0.94930 0.85590 0.76040 0.15400
H 	H 	0.85060 0.80920 0.72810 0.13800
H 	H 	0.04600 0.75500 0.85690 -0.17500
H 	H 	0.99310 0.56420 0.88600 0.45500
H 	H 	0.93180 0.58550 0.96730 0.47300
H 	H 	0.07610 0.61160 0.92800 0.44200
H 	H 	0.20740 0.73340 0.76060 0.40800
H 	H 	0.16420 0.81090 0.69710 0.40200
H 	H 	0.11890 0.70580 0.71140 0.40100
H 	H 	0.66680 0.74720 0.62760 0.14100
H 	H 	0.39690 0.72130 0.90770 0.03200
H 	H 	0.36840 0.95160 0.71680 0.02600
H 	H 	0.35400 0.92350 0.89270 -0.03700
H 	H 	0.22870 0.87420 0.88660 -0.03500
H 	H 	0.19910 0.72300 0.01200 0.23900
H 	H 	0.21410 0.79830 0.04860 0.26100
H 	H 	0.32640 0.77020 0.01660 0.25500
H 	H 	0.67010 0.67820 0.49110 0.10900
H 	H 	0.70970 0.76040 0.38370 0.13500
H 	H 	0.57870 0.72810 0.46270 0.12800
H 	H 	0.90290 0.85690 0.38810 -0.13300
H 	H 	0.87910 0.88600 0.54980 0.34500
H 	H 	0.89910 0.96730 0.44720 0.36400
H 	H 	0.00410 0.92800 0.46040 0.32600
H 	H 	0.96800 0.76060 0.50600 0.37500
H 	H 	0.86130 0.69710 0.49200 0.36200
H 	H 	0.83030 0.71140 0.58280 0.36700
H 	H 	0.29440 0.62760 0.62520 0.13800
H 	H 	0.30460 0.90770 0.37100 0.02800
H 	H 	0.08520 0.71680 0.33160 -0.00200
H 	H 	0.24670 0.89270 0.18380 -0.06300
H 	H 	0.11530 0.88660 0.23920 -0.05500
H 	H 	0.21110 0.01200 0.26500 0.23900
H 	H 	0.26270 0.04860 0.15310 0.24700
H 	H 	0.34300 0.01660 0.21320 0.24900
H 	H 	0.16120 0.49110 0.83070 0.11300
H 	H 	0.09340 0.38370 0.85590 0.13900
H 	H 	0.04140 0.46270 0.80920 0.12200
H 	H 	0.29100 0.38810 0.75500 -0.15300
H 	H 	0.42890 0.54980 0.56420 0.36000
H 	H 	0.34630 0.44720 0.58550 0.36900
H 	H 	0.46450 0.46040 0.61160 0.35300
H 	H 	0.47400 0.50600 0.73340 0.38100
H 	H 	0.35330 0.49200 0.81090 0.38000
H 	H 	0.41310 0.58280 0.70580 0.38000
H 	H 	0.08040 0.37480 0.25280 0.13900
H 	H 	0.32440 0.62900 0.27870 0.01900
H 	H 	0.58320 0.66840 0.04840 -0.00500
H 	H 	0.56950 0.81620 0.07650 -0.04000
H 	H 	0.64550 0.76080 0.12580 -0.02600
H 	H 	0.52390 0.73500 0.27700 0.22000
H 	H 	0.58420 0.84690 0.20170 0.23500
H 	H 	0.44380 0.78680 0.22980 0.23000
H 	H 	0.00810 0.16930 0.32180 0.08800
H 	H 	0.05070 0.14410 0.23960 0.10600
H 	H 	0.14940 0.19080 0.27190 0.11100
H 	H 	0.95400 0.24500 0.14310 -0.11600
H 	H 	0.00690 0.43580 0.11400 0.22800
H 	H 	0.06820 0.41450 0.03270 0.22800
H 	H 	0.92390 0.38840 0.07200 0.23400
H 	H 	0.79260 0.26660 0.23940 0.33000
H 	H 	0.83580 0.18910 0.30290 0.32100
H 	H 	0.88110 0.29420 0.28860 0.33700
H 	H 	0.33320 0.25280 0.37240 0.13800
H 	H 	0.60310 0.27870 0.09230 0.01400
H 	H 	0.63160 0.04840 0.28320 -0.00100
H 	H 	0.64600 0.07650 0.10730 -0.01900
H 	H 	0.77130 0.12580 0.11340 0.00000
H 	H 	0.80090 0.27700 0.98800 0.18100
H 	H 	0.78590 0.20170 0.95140 0.17900
H 	H 	0.67360 0.22980 0.98340 0.18400
H 	H 	0.32990 0.32180 0.50890 0.10100
H 	H 	0.29030 0.23960 0.61630 0.12300
H 	H 	0.42130 0.27190 0.53730 0.11900
H 	H 	0.09710 0.14310 0.61190 -0.16400
H 	H 	0.12090 0.11400 0.45020 0.35900
H 	H 	0.10090 0.03270 0.55280 0.35800
H 	H 	0.99590 0.07200 0.53960 0.35900
H 	H 	0.03200 0.23940 0.49400 0.37000
H 	H 	0.13870 0.30290 0.50800 0.36800
H 	H 	0.16970 0.28860 0.41720 0.37600
H 	H 	0.70560 0.37240 0.37480 0.14000
H 	H 	0.69540 0.09230 0.62900 0.01800
H 	H 	0.91480 0.28320 0.66840 0.02600
H 	H 	0.75330 0.10730 0.81620 0.01100
H 	H 	0.88470 0.11340 0.76080 0.02400
H 	H 	0.78890 0.98800 0.73500 0.17500
H 	H 	0.73730 0.95140 0.84690 0.18600
H 	H 	0.65700 0.98340 0.78680 0.18300
H 	H 	0.83880 0.50890 0.16930 0.10000
H 	H 	0.90660 0.61630 0.14410 0.12300
H 	H 	0.95860 0.53730 0.19080 0.12800
H 	H 	0.70900 0.61190 0.24500 -0.15000
H 	H 	0.57110 0.45020 0.43580 0.35500
H 	H 	0.65370 0.55280 0.41450 0.36300
H 	H 	0.53550 0.53960 0.38840 0.34700
H 	H 	0.52600 0.49400 0.26660 0.36900
H 	H 	0.64670 0.50800 0.18910 0.35700
H 	H 	0.58690 0.41720 0.29420 0.36900
C 	C 	0.85600 0.52020 0.67340 0.37500
C 	C 	0.68790 0.49280 0.83230 0.05200
C 	C 	0.73180 0.46920 0.76100 -0.13100
C 	C 	0.64970 0.38860 0.76770 0.01200
C 	C 	0.53140 0.33250 0.83970 -0.07800
C 	C 	0.49730 0.36530 0.90370 0.02300
C 	C 	0.43700 0.23700 0.86300 0.12800
C 	C 	0.47460 0.21490 0.78120 -0.60400
C 	C 	0.75640 0.57040 0.84660 0.09800
C 	C 	0.90600 0.70840 0.81540 -0.09000
C 	C 	0.79540 0.65770 0.91350 0.20300
C 	C 	0.92670 0.81050 0.73840 -0.37500
C 	C 	0.02630 0.71020 0.83220 0.69600
C 	C 	0.00400 0.60700 0.91200 -1.39600
C 	C 	0.13980 0.74320 0.74190 -1.24200
C 	C 	0.52940 0.67340 0.80640 0.37400
C 	C 	0.52020 0.83230 0.67490 0.05600
C 	C 	0.49280 0.76100 0.76980 -0.13900
C 	C 	0.41740 0.76770 0.84370 0.03900
C 	C 	0.37110 0.83970 0.82780 -0.12000
C 	C 	0.40100 0.90370 0.73100 0.04700
C 	C 	0.30000 0.86300 0.90000 0.28100
C 	C 	0.25580 0.78120 0.00390 -0.81800
C 	C 	0.60300 0.84660 0.58300 0.09800
C 	C 	0.72140 0.81540 0.47620 -0.07100
C 	C 	0.70890 0.91350 0.42880 0.19900
C 	C 	0.66510 0.73840 0.45110 -0.36400
C 	C 	0.85850 0.83220 0.45760 0.57500
C 	C 	0.91600 0.91200 0.48100 -1.06300
C 	C 	0.88170 0.74190 0.51490 -1.11300
C 	C 	0.33580 0.80640 0.52020 0.37400
C 	C 	0.19510 0.67490 0.49280 0.05200
C 	C 	0.26260 0.76980 0.46920 -0.14500
C 	C 	0.26110 0.84370 0.38860 0.04500
C 	C 	0.19890 0.82780 0.33250 -0.13800
C 	C 	0.13200 0.73100 0.36530 0.05100
C 	C 	0.20000 0.90000 0.23700 0.29400
C 	C 	0.25970 0.00390 0.21490 -0.81400
C 	C 	0.18600 0.58300 0.57040 0.09000
C 	C 	0.19760 0.47620 0.70840 -0.08500
C 	C 	0.13770 0.42880 0.65770 0.20100
C 	C 	0.11620 0.45110 0.81050 -0.35800
C 	C 	0.31610 0.45760 0.71020 0.61400
C 	C 	0.39700 0.48100 0.60700 -1.14500
C 	C 	0.39660 0.51490 0.74320 -1.15600
C 	C 	0.14400 0.47980 0.32660 0.37800
C 	C 	0.31210 0.50720 0.16770 0.04900
C 	C 	0.26820 0.53080 0.23900 -0.14300
C 	C 	0.35030 0.61140 0.23230 0.02700
C 	C 	0.46860 0.66750 0.16030 -0.11100
C 	C 	0.50270 0.63470 0.09630 0.03500
C 	C 	0.56300 0.76300 0.13700 0.18400
C 	C 	0.52540 0.78510 0.21880 -0.67900
C 	C 	0.24360 0.42960 0.15340 0.09100
C 	C 	0.09400 0.29160 0.18460 -0.06800
C 	C 	0.20460 0.34230 0.08650 0.19700
C 	C 	0.07330 0.18950 0.26160 -0.33500
C 	C 	0.97370 0.28980 0.16780 0.47700
C 	C 	0.99600 0.39300 0.08800 -0.78500
C 	C 	0.86020 0.25680 0.25810 -0.99600
C 	C 	0.47060 0.32660 0.19360 0.37800
C 	C 	0.47980 0.16770 0.32510 0.04600
C 	C 	0.50720 0.23900 0.23020 -0.13600
C 	C 	0.58260 0.23230 0.15630 0.00400
C 	C 	0.62890 0.16030 0.17220 -0.07300
C 	C 	0.59900 0.09630 0.26900 0.01500
C 	C 	0.70000 0.13700 0.10000 0.04700
C 	C 	0.74420 0.21880 0.99610 -0.48500
C 	C 	0.39700 0.15340 0.41700 0.09000
C 	C 	0.27860 0.18460 0.52380 -0.09200
C 	C 	0.29110 0.08650 0.57120 0.20100
C 	C 	0.33490 0.26160 0.54890 -0.33900
C 	C 	0.14150 0.16780 0.54240 0.61800
C 	C 	0.08400 0.08800 0.51900 -1.17000
C 	C 	0.11830 0.25810 0.48510 -1.14600
C 	C 	0.66420 0.19360 0.47980 0.37800
C 	C 	0.80490 0.32510 0.50720 0.04900
C 	C 	0.73740 0.23020 0.53080 -0.12800
C 	C 	0.73890 0.15630 0.61140 -0.00700
C 	C 	0.80110 0.17220 0.66750 -0.05000
C 	C 	0.86800 0.26900 0.63470 0.00700
C 	C 	0.80000 0.10000 0.76300 0.01200
C 	C 	0.74030 0.99610 0.78510 -0.45800
C 	C 	0.81400 0.41700 0.42960 0.09800
C 	C 	0.80240 0.52380 0.29160 -0.08100
C 	C 	0.86230 0.57120 0.34230 0.20100
C 	C 	0.88380 0.54890 0.18950 -0.34800
C 	C 	0.68390 0.54240 0.28980 0.59600
C 	C 	0.60300 0.51900 0.39300 -1.12600
C 	C 	0.60340 0.48510 0.25680 -1.12200
N 	N 	0.57184 0.44168 0.90106 -0.20800
N 	N 	0.70282 0.58222 0.92106 -0.24900
N 	N 	0.87070 0.63010 0.79170 -0.19900
N 	N 	0.47290 0.90106 0.65726 -0.21400
N 	N 	0.62388 0.92106 0.49672 -0.24800
N 	N 	0.66240 0.79170 0.57820 -0.20300
N 	N 	0.13016 0.65726 0.44168 -0.23000
N 	N 	0.12060 0.49672 0.58222 -0.26500
N 	N 	0.24060 0.57820 0.63010 -0.20000
N 	N 	0.42816 0.55832 0.09894 -0.23200
N 	N 	0.29718 0.41778 0.07894 -0.27200
N 	N 	0.12930 0.36990 0.20830 -0.20400
N 	N 	0.52710 0.09894 0.34274 -0.22700
N 	N 	0.37612 0.07894 0.50328 -0.27300
N 	N 	0.33760 0.20830 0.42180 -0.19900
N 	N 	0.86984 0.34274 0.55832 -0.21300
N 	N 	0.87940 0.50328 0.41778 -0.25900
N 	N 	0.75940 0.42180 0.36990 -0.20100
O 	O 	0.85810 0.49536 0.61226 -0.46400
O 	O 	0.94708 0.58090 0.66876 -0.32900
O 	O 	0.78230 0.68920 0.96960 -0.23600
O 	O 	0.47036 0.61226 0.89238 -0.44700
O 	O 	0.61584 0.66876 0.75034 -0.33200
O 	O 	0.75190 0.96960 0.34120 -0.23900
O 	O 	0.36274 0.89238 0.49536 -0.45000
O 	O 	0.36618 0.75034 0.58090 -0.33500
O 	O 	0.09310 0.34120 0.68920 -0.27400
O 	O 	0.14190 0.50464 0.38774 -0.47400
O 	O 	0.05292 0.41910 0.33124 -0.34300
O 	O 	0.21770 0.31080 0.03040 -0.30000
O 	O 	0.52964 0.38774 0.10762 -0.48500
O 	O 	0.38416 0.33124 0.24966 -0.33800
O 	O 	0.24810 0.03040 0.65880 -0.29500
O 	O 	0.63726 0.10762 0.50464 -0.48300
O 	O 	0.63382 0.24966 0.41910 -0.33500
O 	O 	0.90690 0.65880 0.31080 -0.26000
