data_crystal

_cell_length_a 24.60500
_cell_length_b 24.60500
_cell_length_c 46.81400
_cell_angle_alpha 90.00000
_cell_angle_beta  90.00000
_cell_angle_gamma 90.00000

_symmetry_space_group_name_	'P 1'
_symmetry_space_group_name_H-M	'P 1'

loop_
_symmetry_equiv_pos_as_xyz
  x,y,z

loop_
_atom_site_label
_atom_site_type_symbol
_atom_site_fract_x
_atom_site_fract_y
_atom_site_fract_z
_atom_site_charge
Pt	Pt	0.75610 0.50005 0.20525 0.35300
Pt	Pt	0.83512 0.77542 0.23281 0.35500
Pt	Pt	0.95333 0.56755 0.31356 0.34700
Pt	Pt	0.68418 0.47755 0.34808 0.36400
Pt	Pt	0.57183 0.68611 0.26961 0.30800
Pt	Pt	0.76155 0.74667 0.37614 0.33000
Ag	Ag	0.71640 0.65944 0.22989 0.46400
Ag	Ag	0.84916 0.61054 0.25117 0.45700
Ag	Ag	0.81057 0.49992 0.28892 0.46300
Ag	Ag	0.67300 0.55956 0.27422 0.45500
Ag	Ag	0.72873 0.73625 0.29258 0.46000
Ag	Ag	0.87396 0.71170 0.31269 0.47600
Ag	Ag	0.79838 0.59389 0.34583 0.45900
Ag	Ag	0.64760 0.64045 0.34580 0.47800
La	La	0.91892 0.38170 0.11279 1.50100
S 	S 	0.69619 0.56270 0.22104 -0.42300
S 	S 	0.82466 0.51556 0.23659 -0.42100
S 	S 	0.81193 0.69026 0.22288 -0.41200
S 	S 	0.81985 0.77253 0.28075 -0.39000
S 	S 	0.92083 0.63689 0.28686 -0.42000
S 	S 	0.87316 0.53198 0.32720 -0.43400
S 	S 	0.71379 0.48100 0.30235 -0.44300
S 	S 	0.70594 0.56216 0.36159 -0.47500
S 	S 	0.60252 0.61926 0.29843 -0.40000
S 	S 	0.65356 0.71900 0.25616 -0.42100
S 	S 	0.69523 0.73073 0.34347 -0.40900
S 	S 	0.82565 0.69005 0.35924 -0.40400
O 	O 	0.60740 0.46260 0.14704 -0.40000
O 	O 	0.58850 0.54130 0.13566 -0.37000
O 	O 	0.88273 0.39500 0.16129 -0.50600
O 	O 	0.93540 0.37450 0.20102 -0.33100
O 	O 	0.86910 0.77350 0.13580 -0.37200
O 	O 	0.79840 0.72900 0.12416 -0.32100
O 	O 	0.85910 0.95460 0.25234 -0.51000
O 	O 	0.90180 0.95020 0.29287 -0.60100
O 	O 	0.11425 0.62740 0.27258 -0.47600
O 	O 	0.10110 0.71090 0.27894 -0.41800
O 	O 	0.92556 0.48033 0.12014 -0.45500
O 	O 	0.86882 0.54534 0.10647 -0.32700
O 	O 	0.63238 0.30152 0.31696 -0.32900
O 	O 	0.71000 0.28915 0.29483 -0.31900
O 	O 	0.67170 0.45220 0.44518 -0.30600
O 	O 	0.63610 0.53220 0.45652 -0.35100
O 	O 	0.40910 0.59140 0.29315 -0.35600
O 	O 	0.42500 0.59210 0.34000 -0.28700
O 	O 	0.98700 0.33004 0.04193 -0.36400
O 	O 	0.91873 0.31431 0.07258 -0.49700
O 	O 	0.64590 0.89042 0.39690 -0.32600
O 	O 	0.56620 0.84360 0.39353 -0.28700
O 	O 	0.89380 0.76620 0.44727 -0.54700
O 	O 	0.96230 0.75570 0.42194 -0.56900
N 	N 	0.70080 0.48960 0.17287 -0.22400
H 	H 	0.72020 0.48610 0.15620 0.09200
H 	H 	0.68370 0.45690 0.17600 0.12000
N 	N 	0.80390 0.43990 0.18948 -0.23000
H 	H 	0.78310 0.40890 0.18770 0.11200
H 	H 	0.81510 0.44970 0.17140 0.10100
N 	N 	0.84230 0.78820 0.18983 -0.23500
H 	H 	0.82930 0.82210 0.18520 0.09300
H 	H 	0.87830 0.78660 0.18460 0.12200
N 	N 	0.86860 0.84700 0.24114 -0.23400
H 	H 	0.90300 0.84680 0.23340 0.10200
H 	H 	0.84900 0.87290 0.23140 0.09100
N 	N 	0.02680 0.59930 0.30299 -0.22000
H 	H 	0.04860 0.59890 0.31890 0.10800
H 	H 	0.04270 0.57710 0.28950 0.08500
N 	N 	0.98720 0.50410 0.33572 -0.21800
H 	H 	0.01760 0.49210 0.32620 0.08800
H 	H 	0.99780 0.51600 0.35350 0.07000
N 	N 	0.66810 0.39710 0.33956 -0.23500
H 	H 	0.67740 0.37690 0.35530 0.14300
H 	H 	0.63130 0.39320 0.33680 0.11600
N 	N 	0.65640 0.46760 0.38826 -0.22900
H 	H 	0.62070 0.45660 0.38740 0.09200
H 	H 	0.67590 0.44020 0.39680 0.12200
N 	N 	0.49590 0.66270 0.28201 -0.21900
H 	H 	0.47540 0.69320 0.28550 0.04200
H 	H 	0.47970 0.64410 0.26720 0.07500
N 	N 	0.54210 0.74070 0.24076 -0.17300
H 	H 	0.51350 0.72470 0.23130 0.02900
H 	H 	0.52830 0.76990 0.25070 -0.07200
N 	N 	0.70704 0.79720 0.39374 -0.23600
H 	H 	0.70750 0.79120 0.41310 0.10300
H 	H 	0.71930 0.83210 0.39090 0.09200
N 	N 	0.81930 0.76390 0.40480 -0.19400
H 	H 	0.81710 0.80050 0.40870 0.06200
H 	H 	0.81060 0.74580 0.42140 -0.00500
C 	C 	0.63680 0.54500 0.19875 0.34100
C 	C 	0.65910 0.52970 0.16790 -0.25700
H 	H 	0.67450 0.56240 0.15820 0.08700
C 	C 	0.61450 0.50490 0.15029 0.46400
C 	C 	0.60120 0.50530 0.21133 -0.70200
H 	H 	0.58910 0.51820 0.23010 0.18700
H 	H 	0.62060 0.47080 0.21350 0.20400
H 	H 	0.56950 0.49990 0.19890 0.21600
C 	C 	0.60490 0.60420 0.19420 -0.55600
H 	H 	0.62990 0.63060 0.18560 0.15000
H 	H 	0.59250 0.61790 0.21280 0.15000
H 	H 	0.57350 0.59910 0.18160 0.17900
C 	C 	0.88010 0.47900 0.21882 0.35600
C 	C 	0.85360 0.42630 0.20709 -0.24500
H 	H 	0.84430 0.40080 0.22300 0.08200
C 	C 	0.88940 0.39870 0.18505 0.37900
C 	C 	0.90280 0.51520 0.19531 -0.64200
H 	H 	0.87510 0.52050 0.18050 0.19900
H 	H 	0.93490 0.49800 0.18690 0.18800
H 	H 	0.91300 0.55050 0.20340 0.16600
C 	C 	0.92060 0.46760 0.24259 -0.63300
H 	H 	0.90370 0.44410 0.25700 0.16800
H 	H 	0.93160 0.50190 0.25150 0.16500
H 	H 	0.95260 0.44940 0.23460 0.18700
C 	C 	0.82920 0.68830 0.18430 0.28400
C 	C 	0.81090 0.74590 0.17443 -0.19300
H 	H 	0.77080 0.75130 0.17620 0.06600
C 	C 	0.83200 0.74980 0.14081 0.41000
C 	C 	0.89210 0.67480 0.18313 -0.55200
H 	H 	0.89800 0.63710 0.18910 0.14600
H 	H 	0.91180 0.69930 0.19600 0.16100
H 	H 	0.90540 0.67970 0.16360 0.16900
C 	C 	0.79760 0.63990 0.17121 -0.58900
H 	H 	0.81230 0.60570 0.17870 0.16800
H 	H 	0.80150 0.64050 0.15040 0.19500
H 	H 	0.75910 0.64290 0.17630 0.15800
C 	C 	0.82710 0.84390 0.28693 0.13300
C 	C 	0.87370 0.86520 0.27068 -0.17500
H 	H 	0.90700 0.84770 0.27870 0.05700
C 	C 	0.88390 0.92790 0.27089 0.40500
C 	C 	0.77660 0.87390 0.27790 -0.42100
H 	H 	0.74560 0.86120 0.28930 0.09800
H 	H 	0.76950 0.86720 0.25760 0.11700
H 	H 	0.78170 0.91300 0.28100 0.11300
C 	C 	0.98210 0.65660 0.26894 0.31500
C 	C 	0.02540 0.65210 0.29230 -0.22400
H 	H 	0.01630 0.67780 0.30810 0.09100
C 	C 	0.08420 0.66410 0.28160 0.40000
C 	C 	0.99520 0.61990 0.24502 -0.57900
H 	H 	0.96630 0.62180 0.23060 0.14400
H 	H 	0.99820 0.58250 0.25210 0.15200
H 	H 	0.02980 0.63080 0.23640 0.14000
C 	C 	0.97030 0.71700 0.25754 -0.57100
H 	H 	0.96130 0.74060 0.27370 0.15800
H 	H 	0.93970 0.71610 0.24420 0.15900
H 	H 	0.00260 0.73100 0.24780 0.16500
C 	C 	0.89300 0.47630 0.35130 0.39500
C 	C 	0.94770 0.45740 0.33909 -0.25800
H 	H 	0.94110 0.44120 0.31980 0.08500
C 	C 	0.91510 0.52270 0.10752 0.39900
C 	C 	0.90190 0.49810 0.38180 -0.65200
H 	H 	0.92970 0.52660 0.38150 0.18100
H 	H 	0.91400 0.46840 0.39420 0.19300
H 	H 	0.86780 0.51310 0.38910 0.16800
C 	C 	0.85030 0.43390 0.34984 -0.74000
H 	H 	0.81650 0.44820 0.35800 0.21200
H 	H 	0.86190 0.40200 0.36070 0.24300
H 	H 	0.84420 0.42360 0.32990 0.20300
C 	C 	0.68720 0.41500 0.28880 0.47400
C 	C 	0.69640 0.37510 0.31480 -0.24300
H 	H 	0.73610 0.37330 0.31910 0.09800
C 	C 	0.67490 0.31610 0.30862 0.37900
C 	C 	0.63140 0.42130 0.28244 -0.84100
H 	H 	0.61160 0.43120 0.29990 0.24800
H 	H 	0.61690 0.38700 0.27490 0.24600
H 	H 	0.62680 0.45000 0.26810 0.22300
C 	C 	0.72210 0.39920 0.26359 -0.77800
H 	H 	0.76010 0.39610 0.26970 0.21700
H 	H 	0.71910 0.42710 0.24870 0.21900
H 	H 	0.70980 0.36420 0.25600 0.24800
C 	C 	0.70660 0.55440 0.40085 0.60700
C 	C 	0.65980 0.51960 0.40760 -0.32300
H 	H 	0.62680 0.54170 0.40290 0.09300
C 	C 	0.65190 0.50060 0.43882 0.34600
C 	C 	0.75360 0.52720 0.41040 -0.97700
H 	H 	0.75490 0.49080 0.40200 0.29600
H 	H 	0.75270 0.52430 0.43130 0.27900
H 	H 	0.78590 0.54780 0.40460 0.25100
C 	C 	0.69830 0.60760 0.41300 -0.87300
H 	H 	0.66380 0.62260 0.40600 0.22600
H 	H 	0.72820 0.63160 0.40730 0.20700
H 	H 	0.69710 0.60480 0.43390 0.21500
C 	C 	0.53760 0.58330 0.30564 0.27900
C 	C 	0.49550 0.62650 0.30885 -0.20800
H 	H 	0.50420 0.64920 0.32600 0.09000
C 	C 	0.43680 0.60150 0.31239 0.35100
C 	C 	0.52700 0.54630 0.27739 -0.53100
H 	H 	0.55520 0.51840 0.27600 0.13600
H 	H 	0.52810 0.56940 0.26030 0.15500
H 	H 	0.49130 0.52890 0.27880 0.17300
C 	C 	0.54070 0.54410 0.33159 -0.58400
H 	H 	0.56910 0.51690 0.32820 0.16500
H 	H 	0.50570 0.52580 0.33410 0.19500
H 	H 	0.54940 0.56480 0.34890 0.16100
C 	C 	0.63370 0.77780 0.23210 0.34400
C 	C 	0.58140 0.76160 0.21901 -0.28400
H 	H 	0.59000 0.72990 0.20640 0.09000
C 	C 	0.94010 0.30580 0.05077 0.40200
C 	C 	0.62370 0.82710 0.25177 -0.50400
H 	H 	0.65820 0.83860 0.26030 0.12300
H 	H 	0.59810 0.81700 0.26690 0.06600
H 	H 	0.60850 0.85710 0.24060 0.12600
C 	C 	0.68020 0.78640 0.21261 -0.66700
H 	H 	0.71190 0.79820 0.22370 0.18300
H 	H 	0.67090 0.81430 0.19850 0.21400
H 	H 	0.68870 0.75230 0.20270 0.17600
C 	C 	0.64870 0.78760 0.35231 0.31100
C 	C 	0.65070 0.79550 0.38460 -0.19400
H 	H 	0.63200 0.76430 0.39410 0.07200
C 	C 	0.62160 0.84910 0.39297 0.30900
C 	C 	0.66590 0.83700 0.33645 -0.60100
H 	H 	0.66360 0.83020 0.31590 0.14600
H 	H 	0.70350 0.84600 0.34150 0.17300
H 	H 	0.64210 0.86750 0.34150 0.16700
C 	C 	0.59280 0.76960 0.34110 -0.53100
H 	H 	0.59430 0.76580 0.32030 0.10400
H 	H 	0.56540 0.79690 0.34620 0.13700
H 	H 	0.58290 0.73460 0.34970 0.14400
C 	C 	0.87190 0.68960 0.38909 0.24000
C 	C 	0.87810 0.75140 0.39819 -0.26800
H 	H 	0.88970 0.77320 0.38120 0.09400
C 	C 	0.92090 0.75820 0.42253 0.54200
C 	C 	0.85640 0.65180 0.41167 -0.36400
H 	H 	0.85430 0.61490 0.40380 0.06400
H 	H 	0.82080 0.66210 0.41940 0.01200
H 	H 	0.88360 0.65280 0.42700 -0.00200
C 	C 	0.93060 0.67430 0.37840 -0.49100
H 	H 	0.94180 0.69960 0.36330 0.14000
H 	H 	0.93040 0.63720 0.37080 0.12800
H 	H 	0.95620 0.67660 0.39440 0.11900
O 	O 	0.91300 0.43590 0.06287 -0.58000
O 	O 	0.83710 0.41600 0.08009 -0.49800
C 	C 	0.86750 0.43950 0.05950 0.83200
C 	C 	0.85050 0.46540 0.03500 -1.26400
H 	H 	0.81070 0.46610 0.03450 0.34600
H 	H 	0.86420 0.44580 0.01830 0.35900
H 	H 	0.86450 0.50270 0.03490 0.36400
La	La	0.93444 0.02731 0.29350 1.20100
La	La	0.49310 0.81820 0.28732 1.16000
La	La	0.21480 0.64370 0.25495 0.71300
La	La	0.83380 0.76840 0.49624 0.38800
La	La	0.86370 0.06060 0.23880 0.79800
La	La	0.18730 0.72330 0.22320 0.85100
O 	O 	0.78780 0.71320 0.54620 -0.50500
Pt	Pt	0.24390 0.49995 0.70525 0.35400
Pt	Pt	0.16488 0.22458 0.73281 0.35600
Pt	Pt	0.04667 0.43245 0.81356 0.34800
Pt	Pt	0.31582 0.52245 0.84808 0.36500
Pt	Pt	0.42817 0.31389 0.76961 0.30900
Pt	Pt	0.23845 0.25333 0.87614 0.33100
Ag	Ag	0.28360 0.34056 0.72989 0.46500
Ag	Ag	0.15084 0.38946 0.75117 0.45800
Ag	Ag	0.18943 0.50008 0.78892 0.46400
Ag	Ag	0.32700 0.44044 0.77422 0.45600
Ag	Ag	0.27127 0.26375 0.79258 0.46100
Ag	Ag	0.12604 0.28830 0.81269 0.47700
Ag	Ag	0.20162 0.40611 0.84583 0.46000
Ag	Ag	0.35240 0.35955 0.84580 0.47900
La	La	0.08108 0.61830 0.61279 1.50200
S 	S 	0.30381 0.43730 0.72104 -0.42200
S 	S 	0.17534 0.48444 0.73659 -0.42000
S 	S 	0.18807 0.30974 0.72288 -0.41100
S 	S 	0.18015 0.22747 0.78075 -0.38900
S 	S 	0.07917 0.36311 0.78686 -0.41900
S 	S 	0.12684 0.46802 0.82720 -0.43300
S 	S 	0.28621 0.51900 0.80235 -0.44200
S 	S 	0.29406 0.43784 0.86159 -0.47400
S 	S 	0.39748 0.38074 0.79843 -0.39900
S 	S 	0.34644 0.28100 0.75616 -0.42000
S 	S 	0.30477 0.26927 0.84347 -0.40800
S 	S 	0.17435 0.30995 0.85924 -0.40300
O 	O 	0.39260 0.53740 0.64704 -0.39900
O 	O 	0.41150 0.45870 0.63566 -0.36900
O 	O 	0.11727 0.60500 0.66129 -0.50500
O 	O 	0.06460 0.62550 0.70102 -0.33000
O 	O 	0.13090 0.22650 0.63580 -0.37100
O 	O 	0.20160 0.27100 0.62416 -0.32000
O 	O 	0.14090 0.04540 0.75234 -0.50900
O 	O 	0.09820 0.04980 0.79287 -0.60000
O 	O 	0.88575 0.37260 0.77258 -0.47500
O 	O 	0.89890 0.28910 0.77894 -0.41700
O 	O 	0.07444 0.51967 0.62014 -0.45400
O 	O 	0.13118 0.45466 0.60647 -0.32600
O 	O 	0.36762 0.69848 0.81696 -0.32800
O 	O 	0.29000 0.71085 0.79483 -0.31800
O 	O 	0.32830 0.54780 0.94518 -0.30500
O 	O 	0.36390 0.46780 0.95652 -0.35000
O 	O 	0.59090 0.40860 0.79315 -0.35500
O 	O 	0.57500 0.40790 0.84000 -0.28600
O 	O 	0.01300 0.66996 0.54193 -0.36300
O 	O 	0.08127 0.68569 0.57258 -0.49600
O 	O 	0.35410 0.10958 0.89690 -0.32500
O 	O 	0.43380 0.15640 0.89353 -0.28600
O 	O 	0.10620 0.23380 0.94727 -0.54600
O 	O 	0.03770 0.24430 0.92194 -0.56800
N 	N 	0.29920 0.51040 0.67287 -0.22300
H 	H 	0.27980 0.51390 0.65620 0.09200
H 	H 	0.31630 0.54310 0.67600 0.12000
N 	N 	0.19610 0.56010 0.68948 -0.23000
H 	H 	0.21690 0.59110 0.68770 0.11200
H 	H 	0.18490 0.55030 0.67140 0.10100
N 	N 	0.15770 0.21180 0.68983 -0.23500
H 	H 	0.17070 0.17790 0.68520 0.09300
H 	H 	0.12170 0.21340 0.68460 0.12200
N 	N 	0.13140 0.15300 0.74114 -0.23400
H 	H 	0.09700 0.15320 0.73340 0.10200
H 	H 	0.15100 0.12710 0.73140 0.09100
N 	N 	0.97320 0.40070 0.80299 -0.22000
H 	H 	0.95140 0.40110 0.81890 0.10800
H 	H 	0.95730 0.42290 0.78950 0.08500
N 	N 	0.01280 0.49590 0.83572 -0.21800
H 	H 	0.98240 0.50790 0.82620 0.08800
H 	H 	0.00220 0.48400 0.85350 0.07000
N 	N 	0.33190 0.60290 0.83956 -0.23500
H 	H 	0.32260 0.62310 0.85530 0.14300
H 	H 	0.36870 0.60680 0.83680 0.11600
N 	N 	0.34360 0.53240 0.88826 -0.22900
H 	H 	0.37930 0.54340 0.88740 0.09200
H 	H 	0.32410 0.55980 0.89680 0.12200
N 	N 	0.50410 0.33730 0.78201 -0.21900
H 	H 	0.52460 0.30680 0.78550 0.04200
H 	H 	0.52030 0.35590 0.76720 0.07500
N 	N 	0.45790 0.25930 0.74076 -0.17300
H 	H 	0.48650 0.27530 0.73130 0.02900
H 	H 	0.47170 0.23010 0.75070 -0.07200
N 	N 	0.29296 0.20280 0.89374 -0.23600
H 	H 	0.29250 0.20880 0.91310 0.10300
H 	H 	0.28070 0.16790 0.89090 0.09200
N 	N 	0.18070 0.23610 0.90480 -0.19400
H 	H 	0.18290 0.19950 0.90870 0.06200
H 	H 	0.18940 0.25420 0.92140 -0.00500
C 	C 	0.36320 0.45500 0.69875 0.34100
C 	C 	0.34090 0.47030 0.66790 -0.25700
H 	H 	0.32550 0.43760 0.65820 0.08700
C 	C 	0.38550 0.49510 0.65029 0.46400
C 	C 	0.39880 0.49470 0.71133 -0.70200
H 	H 	0.41090 0.48180 0.73010 0.18700
H 	H 	0.37940 0.52920 0.71350 0.20400
H 	H 	0.43050 0.50010 0.69890 0.21600
C 	C 	0.39510 0.39580 0.69420 -0.55600
H 	H 	0.37010 0.36940 0.68560 0.15000
H 	H 	0.40750 0.38210 0.71280 0.15000
H 	H 	0.42650 0.40090 0.68160 0.17900
C 	C 	0.11990 0.52100 0.71882 0.35600
C 	C 	0.14640 0.57370 0.70709 -0.24500
H 	H 	0.15570 0.59920 0.72300 0.08200
C 	C 	0.11060 0.60130 0.68505 0.37900
C 	C 	0.09720 0.48480 0.69531 -0.64200
H 	H 	0.12490 0.47950 0.68050 0.19900
H 	H 	0.06510 0.50200 0.68690 0.18800
H 	H 	0.08700 0.44950 0.70340 0.16600
C 	C 	0.07940 0.53240 0.74259 -0.63300
H 	H 	0.09630 0.55590 0.75700 0.16800
H 	H 	0.06840 0.49810 0.75150 0.16500
H 	H 	0.04740 0.55060 0.73460 0.18700
C 	C 	0.17080 0.31170 0.68430 0.28400
C 	C 	0.18910 0.25410 0.67443 -0.19300
H 	H 	0.22920 0.24870 0.67620 0.06600
C 	C 	0.16800 0.25020 0.64081 0.41000
C 	C 	0.10790 0.32520 0.68313 -0.55200
H 	H 	0.10200 0.36290 0.68910 0.14600
H 	H 	0.08820 0.30070 0.69600 0.16100
H 	H 	0.09460 0.32030 0.66360 0.16900
C 	C 	0.20240 0.36010 0.67121 -0.58900
H 	H 	0.18770 0.39430 0.67870 0.16800
H 	H 	0.19850 0.35950 0.65040 0.19500
H 	H 	0.24090 0.35710 0.67630 0.15800
C 	C 	0.17290 0.15610 0.78693 0.13300
C 	C 	0.12630 0.13480 0.77068 -0.17500
H 	H 	0.09300 0.15230 0.77870 0.05700
C 	C 	0.11610 0.07210 0.77089 0.40500
C 	C 	0.22340 0.12610 0.77790 -0.42100
H 	H 	0.25440 0.13880 0.78930 0.09800
H 	H 	0.23050 0.13280 0.75760 0.11700
H 	H 	0.21830 0.08700 0.78100 0.11300
C 	C 	0.01790 0.34340 0.76894 0.31500
C 	C 	0.97460 0.34790 0.79230 -0.22400
H 	H 	0.98370 0.32220 0.80810 0.09100
C 	C 	0.91580 0.33590 0.78160 0.40000
C 	C 	0.00480 0.38010 0.74502 -0.57900
H 	H 	0.03370 0.37820 0.73060 0.14400
H 	H 	0.00180 0.41750 0.75210 0.15200
H 	H 	0.97020 0.36920 0.73640 0.14000
C 	C 	0.02970 0.28300 0.75754 -0.57100
H 	H 	0.03870 0.25940 0.77370 0.15800
H 	H 	0.06030 0.28390 0.74420 0.15900
H 	H 	0.99740 0.26900 0.74780 0.16500
C 	C 	0.10700 0.52370 0.85130 0.39500
C 	C 	0.05230 0.54260 0.83909 -0.25800
H 	H 	0.05890 0.55880 0.81980 0.08500
C 	C 	0.08490 0.47730 0.60752 0.39900
C 	C 	0.09810 0.50190 0.88180 -0.65200
H 	H 	0.07030 0.47340 0.88150 0.18100
H 	H 	0.08600 0.53160 0.89420 0.19300
H 	H 	0.13220 0.48690 0.88910 0.16800
C 	C 	0.14970 0.56610 0.84984 -0.74000
H 	H 	0.18350 0.55180 0.85800 0.21200
H 	H 	0.13810 0.59800 0.86070 0.24300
H 	H 	0.15580 0.57640 0.82990 0.20300
C 	C 	0.31280 0.58500 0.78880 0.47400
C 	C 	0.30360 0.62490 0.81480 -0.24300
H 	H 	0.26390 0.62670 0.81910 0.09800
C 	C 	0.32510 0.68390 0.80862 0.37900
C 	C 	0.36860 0.57870 0.78244 -0.84100
H 	H 	0.38840 0.56880 0.79990 0.24800
H 	H 	0.38310 0.61300 0.77490 0.24600
H 	H 	0.37320 0.55000 0.76810 0.22300
C 	C 	0.27790 0.60080 0.76359 -0.77800
H 	H 	0.23990 0.60390 0.76970 0.21700
H 	H 	0.28090 0.57290 0.74870 0.21900
H 	H 	0.29020 0.63580 0.75600 0.24800
C 	C 	0.29340 0.44560 0.90085 0.60700
C 	C 	0.34020 0.48040 0.90760 -0.32300
H 	H 	0.37320 0.45830 0.90290 0.09300
C 	C 	0.34810 0.49940 0.93882 0.34600
C 	C 	0.24640 0.47280 0.91040 -0.97700
H 	H 	0.24510 0.50920 0.90200 0.29600
H 	H 	0.24730 0.47570 0.93130 0.27900
H 	H 	0.21410 0.45220 0.90460 0.25100
C 	C 	0.30170 0.39240 0.91300 -0.87300
H 	H 	0.33620 0.37740 0.90600 0.22600
H 	H 	0.27180 0.36840 0.90730 0.20700
H 	H 	0.30290 0.39520 0.93390 0.21500
C 	C 	0.46240 0.41670 0.80564 0.27900
C 	C 	0.50450 0.37350 0.80885 -0.20800
H 	H 	0.49580 0.35080 0.82600 0.09000
C 	C 	0.56320 0.39850 0.81239 0.35100
C 	C 	0.47300 0.45370 0.77739 -0.53100
H 	H 	0.44480 0.48160 0.77600 0.13600
H 	H 	0.47190 0.43060 0.76030 0.15500
H 	H 	0.50870 0.47110 0.77880 0.17300
C 	C 	0.45930 0.45590 0.83159 -0.58400
H 	H 	0.43090 0.48310 0.82820 0.16500
H 	H 	0.49430 0.47420 0.83410 0.19500
H 	H 	0.45060 0.43520 0.84890 0.16100
C 	C 	0.36630 0.22220 0.73210 0.34400
C 	C 	0.41860 0.23840 0.71901 -0.28400
H 	H 	0.41000 0.27010 0.70640 0.09000
C 	C 	0.05990 0.69420 0.55077 0.40200
C 	C 	0.37630 0.17290 0.75177 -0.50400
H 	H 	0.34180 0.16140 0.76030 0.12300
H 	H 	0.40190 0.18300 0.76690 0.06600
H 	H 	0.39150 0.14290 0.74060 0.12600
C 	C 	0.31980 0.21360 0.71261 -0.66700
H 	H 	0.28810 0.20180 0.72370 0.18300
H 	H 	0.32910 0.18570 0.69850 0.21400
H 	H 	0.31130 0.24770 0.70270 0.17600
C 	C 	0.35130 0.21240 0.85231 0.31100
C 	C 	0.34930 0.20450 0.88460 -0.19400
H 	H 	0.36800 0.23570 0.89410 0.07200
C 	C 	0.37840 0.15090 0.89297 0.30900
C 	C 	0.33410 0.16300 0.83645 -0.60100
H 	H 	0.33640 0.16980 0.81590 0.14600
H 	H 	0.29650 0.15400 0.84150 0.17300
H 	H 	0.35790 0.13250 0.84150 0.16700
C 	C 	0.40720 0.23040 0.84110 -0.53100
H 	H 	0.40570 0.23420 0.82030 0.10400
H 	H 	0.43460 0.20310 0.84620 0.13700
H 	H 	0.41710 0.26540 0.84970 0.14400
C 	C 	0.12810 0.31040 0.88909 0.24000
C 	C 	0.12190 0.24860 0.89819 -0.26800
H 	H 	0.11030 0.22680 0.88120 0.09400
C 	C 	0.07910 0.24180 0.92253 0.54200
C 	C 	0.14360 0.34820 0.91167 -0.36400
H 	H 	0.14570 0.38510 0.90380 0.06300
H 	H 	0.17920 0.33790 0.91940 0.01200
H 	H 	0.11640 0.34720 0.92700 -0.00200
C 	C 	0.06940 0.32570 0.87840 -0.49100
H 	H 	0.05820 0.30040 0.86330 0.14000
H 	H 	0.06960 0.36280 0.87080 0.12800
H 	H 	0.04380 0.32340 0.89440 0.11900
O 	O 	0.08700 0.56410 0.56287 -0.58000
O 	O 	0.16290 0.58400 0.58009 -0.49800
C 	C 	0.13250 0.56050 0.55950 0.83200
C 	C 	0.14950 0.53460 0.53500 -1.26400
H 	H 	0.18930 0.53390 0.53450 0.34600
H 	H 	0.13580 0.55420 0.51830 0.35900
H 	H 	0.13550 0.49730 0.53490 0.36400
La	La	0.06556 0.97269 0.79350 1.20100
La	La	0.50690 0.18180 0.78732 1.16000
La	La	0.78520 0.35630 0.75495 0.71300
La	La	0.16620 0.23160 0.99624 0.38600
La	La	0.13630 0.93940 0.73880 0.79800
La	La	0.81270 0.27670 0.72320 0.85100
O 	O 	0.21220 0.28680 0.04620 -0.50500
Pt	Pt	0.99995 0.25610 0.45525 0.35300
Pt	Pt	0.72458 0.33512 0.48281 0.35600
Pt	Pt	0.93245 0.45333 0.56356 0.34800
Pt	Pt	0.02245 0.18418 0.59808 0.36500
Pt	Pt	0.81389 0.07183 0.51961 0.30900
Pt	Pt	0.75333 0.26155 0.62614 0.33100
Ag	Ag	0.84056 0.21640 0.47989 0.46500
Ag	Ag	0.88946 0.34916 0.50117 0.45800
Ag	Ag	0.00008 0.31057 0.53892 0.46400
Ag	Ag	0.94044 0.17300 0.52422 0.45600
Ag	Ag	0.76375 0.22873 0.54258 0.46100
Ag	Ag	0.78830 0.37396 0.56269 0.47700
Ag	Ag	0.90611 0.29838 0.59583 0.46000
Ag	Ag	0.85955 0.14760 0.59580 0.47900
La	La	0.11830 0.41892 0.36279 1.50200
S 	S 	0.93730 0.19619 0.47104 -0.42300
S 	S 	0.98444 0.32466 0.48659 -0.42100
S 	S 	0.80974 0.31193 0.47288 -0.41100
S 	S 	0.72747 0.31985 0.53075 -0.38900
S 	S 	0.86311 0.42083 0.53686 -0.41900
S 	S 	0.96802 0.37316 0.57720 -0.43300
S 	S 	0.01900 0.21379 0.55235 -0.44100
S 	S 	0.93784 0.20594 0.61159 -0.47500
S 	S 	0.88074 0.10252 0.54843 -0.39900
S 	S 	0.78100 0.15356 0.50616 -0.42000
S 	S 	0.76927 0.19523 0.59347 -0.40800
S 	S 	0.80995 0.32565 0.60924 -0.40300
O 	O 	0.03740 0.10740 0.39704 -0.39800
O 	O 	0.95870 0.08850 0.38566 -0.36900
O 	O 	0.10500 0.38273 0.41129 -0.50500
O 	O 	0.12550 0.43540 0.45102 -0.33000
O 	O 	0.72650 0.36910 0.38580 -0.37100
O 	O 	0.77100 0.29840 0.37416 -0.32000
O 	O 	0.54540 0.35910 0.50234 -0.51000
O 	O 	0.54980 0.40180 0.54287 -0.60100
O 	O 	0.87260 0.61425 0.52258 -0.47500
O 	O 	0.78910 0.60110 0.52894 -0.41700
O 	O 	0.01967 0.42556 0.37014 -0.45400
O 	O 	0.95466 0.36882 0.35647 -0.32600
O 	O 	0.19848 0.13238 0.56696 -0.32800
O 	O 	0.21085 0.21000 0.54483 -0.31800
O 	O 	0.04780 0.17170 0.69518 -0.30500
O 	O 	0.96780 0.13610 0.70652 -0.35000
O 	O 	0.90860 0.90910 0.54315 -0.35500
O 	O 	0.90790 0.92500 0.59000 -0.28600
O 	O 	0.16996 0.48700 0.29193 -0.36300
O 	O 	0.18569 0.41873 0.32258 -0.49600
O 	O 	0.60958 0.14590 0.64690 -0.32600
O 	O 	0.65640 0.06620 0.64353 -0.28600
O 	O 	0.73380 0.39380 0.69727 -0.54600
O 	O 	0.74430 0.46230 0.67194 -0.56800
N 	N 	0.01040 0.20080 0.42287 -0.22200
H 	H 	0.01390 0.22020 0.40620 0.09200
H 	H 	0.04310 0.18370 0.42600 0.12000
N 	N 	0.06010 0.30390 0.43948 -0.23000
H 	H 	0.09110 0.28310 0.43770 0.11200
H 	H 	0.05030 0.31510 0.42140 0.10100
N 	N 	0.71180 0.34230 0.43983 -0.23500
H 	H 	0.67790 0.32930 0.43520 0.09200
H 	H 	0.71340 0.37830 0.43460 0.12200
N 	N 	0.65300 0.36860 0.49114 -0.23400
H 	H 	0.65320 0.40300 0.48340 0.10200
H 	H 	0.62710 0.34900 0.48140 0.09100
N 	N 	0.90070 0.52680 0.55299 -0.22000
H 	H 	0.90110 0.54860 0.56890 0.10800
H 	H 	0.92290 0.54270 0.53950 0.08500
N 	N 	0.99590 0.48720 0.58572 -0.21700
H 	H 	0.00790 0.51760 0.57620 0.08800
H 	H 	0.98400 0.49780 0.60350 0.07000
N 	N 	0.10290 0.16810 0.58956 -0.23500
H 	H 	0.12310 0.17740 0.60530 0.14300
H 	H 	0.10680 0.13130 0.58680 0.11600
N 	N 	0.03240 0.15640 0.63826 -0.22800
H 	H 	0.04340 0.12070 0.63740 0.09200
H 	H 	0.05980 0.17590 0.64680 0.12200
N 	N 	0.83730 0.99590 0.53201 -0.21900
H 	H 	0.80680 0.97540 0.53550 0.04200
H 	H 	0.85590 0.97970 0.51720 0.07500
N 	N 	0.75930 0.04210 0.49076 -0.17300
H 	H 	0.77530 0.01350 0.48130 0.02900
H 	H 	0.73010 0.02830 0.50070 -0.07300
N 	N 	0.70280 0.20704 0.64374 -0.23600
H 	H 	0.70880 0.20750 0.66310 0.10200
H 	H 	0.66790 0.21930 0.64090 0.09200
N 	N 	0.73610 0.31930 0.65480 -0.19400
H 	H 	0.69950 0.31710 0.65870 0.06200
H 	H 	0.75420 0.31060 0.67140 -0.00500
C 	C 	0.95500 0.13680 0.44875 0.34400
C 	C 	0.97030 0.15910 0.41790 -0.25800
H 	H 	0.93760 0.17450 0.40820 0.08700
C 	C 	0.99510 0.11450 0.40029 0.46200
C 	C 	0.99470 0.10120 0.46133 -0.71300
H 	H 	0.98180 0.08910 0.48010 0.19000
H 	H 	0.02920 0.12060 0.46350 0.20800
H 	H 	0.00010 0.06950 0.44890 0.22000
C 	C 	0.89580 0.10490 0.44420 -0.55800
H 	H 	0.86940 0.12990 0.43560 0.15000
H 	H 	0.88210 0.09250 0.46280 0.15100
H 	H 	0.90090 0.07350 0.43160 0.18000
C 	C 	0.02100 0.38010 0.46882 0.35700
C 	C 	0.07370 0.35360 0.45709 -0.24600
H 	H 	0.09920 0.34430 0.47300 0.08200
C 	C 	0.10130 0.38940 0.43505 0.37900
C 	C 	0.98480 0.40280 0.44531 -0.64500
H 	H 	0.97950 0.37510 0.43050 0.19900
H 	H 	0.00200 0.43490 0.43690 0.18900
H 	H 	0.94950 0.41300 0.45340 0.16700
C 	C 	0.03240 0.42060 0.49259 -0.63400
H 	H 	0.05590 0.40370 0.50700 0.16800
H 	H 	0.99810 0.43160 0.50150 0.16500
H 	H 	0.05060 0.45260 0.48460 0.18700
C 	C 	0.81170 0.32920 0.43430 0.28400
C 	C 	0.75410 0.31090 0.42443 -0.19300
H 	H 	0.74870 0.27080 0.42620 0.06600
C 	C 	0.75020 0.33200 0.39081 0.41000
C 	C 	0.82520 0.39210 0.43313 -0.55200
H 	H 	0.86290 0.39800 0.43910 0.14600
H 	H 	0.80070 0.41180 0.44600 0.16100
H 	H 	0.82030 0.40540 0.41360 0.16900
C 	C 	0.86010 0.29760 0.42121 -0.58900
H 	H 	0.89430 0.31230 0.42870 0.16800
H 	H 	0.85950 0.30150 0.40040 0.19500
H 	H 	0.85710 0.25910 0.42630 0.15800
C 	C 	0.65610 0.32710 0.53693 0.13300
C 	C 	0.63480 0.37370 0.52068 -0.17500
H 	H 	0.65230 0.40700 0.52870 0.05700
C 	C 	0.57210 0.38390 0.52089 0.40500
C 	C 	0.62610 0.27660 0.52790 -0.42100
H 	H 	0.63880 0.24560 0.53930 0.09700
H 	H 	0.63280 0.26950 0.50760 0.11700
H 	H 	0.58700 0.28170 0.53100 0.11300
C 	C 	0.84340 0.48210 0.51894 0.31500
C 	C 	0.84790 0.52540 0.54230 -0.22400
H 	H 	0.82220 0.51630 0.55810 0.09100
C 	C 	0.83590 0.58420 0.53160 0.40000
C 	C 	0.88010 0.49520 0.49502 -0.57900
H 	H 	0.87820 0.46630 0.48060 0.14400
H 	H 	0.91750 0.49820 0.50210 0.15300
H 	H 	0.86920 0.52980 0.48640 0.14000
C 	C 	0.78300 0.47030 0.50754 -0.57100
H 	H 	0.75940 0.46130 0.52370 0.15800
H 	H 	0.78390 0.43970 0.49420 0.15900
H 	H 	0.76900 0.50260 0.49780 0.16600
C 	C 	0.02370 0.39300 0.60130 0.39500
C 	C 	0.04260 0.44770 0.58909 -0.25900
H 	H 	0.05880 0.44110 0.56980 0.08500
C 	C 	0.97730 0.41510 0.35752 0.39800
C 	C 	0.00190 0.40190 0.63180 -0.65200
H 	H 	0.97340 0.42970 0.63150 0.18100
H 	H 	0.03160 0.41400 0.64420 0.19300
H 	H 	0.98690 0.36780 0.63910 0.16800
C 	C 	0.06610 0.35030 0.59984 -0.74000
H 	H 	0.05180 0.31650 0.60800 0.21200
H 	H 	0.09800 0.36190 0.61070 0.24300
H 	H 	0.07640 0.34420 0.57990 0.20300
C 	C 	0.08500 0.18720 0.53880 0.47400
C 	C 	0.12490 0.19640 0.56480 -0.24300
H 	H 	0.12670 0.23610 0.56910 0.09800
C 	C 	0.18390 0.17490 0.55862 0.37900
C 	C 	0.07870 0.13140 0.53244 -0.84100
H 	H 	0.06880 0.11160 0.54990 0.24900
H 	H 	0.11300 0.11690 0.52490 0.24600
H 	H 	0.05000 0.12680 0.51810 0.22300
C 	C 	0.10080 0.22210 0.51359 -0.77800
H 	H 	0.10390 0.26010 0.51970 0.21700
H 	H 	0.07290 0.21910 0.49870 0.21900
H 	H 	0.13580 0.20980 0.50600 0.24900
C 	C 	0.94560 0.20660 0.65085 0.60800
C 	C 	0.98040 0.15980 0.65760 -0.32400
H 	H 	0.95830 0.12680 0.65290 0.09300
C 	C 	0.99940 0.15190 0.68882 0.34600
C 	C 	0.97280 0.25360 0.66040 -0.98000
H 	H 	0.00920 0.25490 0.65200 0.29600
H 	H 	0.97570 0.25270 0.68130 0.28000
H 	H 	0.95220 0.28590 0.65460 0.25100
C 	C 	0.89240 0.19830 0.66300 -0.87400
H 	H 	0.87740 0.16380 0.65600 0.22700
H 	H 	0.86840 0.22820 0.65730 0.20700
H 	H 	0.89520 0.19710 0.68390 0.21600
C 	C 	0.91670 0.03760 0.55564 0.27800
C 	C 	0.87350 0.99550 0.55885 -0.20600
H 	H 	0.85080 0.00420 0.57600 0.08900
C 	C 	0.89850 0.93680 0.56239 0.35100
C 	C 	0.95370 0.02700 0.52739 -0.53400
H 	H 	0.98160 0.05520 0.52600 0.13600
H 	H 	0.93060 0.02810 0.51030 0.15500
H 	H 	0.97110 0.99130 0.52880 0.17400
C 	C 	0.95590 0.04070 0.58159 -0.58300
H 	H 	0.98310 0.06910 0.57820 0.16400
H 	H 	0.97420 0.00570 0.58410 0.19400
H 	H 	0.93520 0.04940 0.59890 0.16000
C 	C 	0.72220 0.13370 0.48210 0.34400
C 	C 	0.73840 0.08140 0.46901 -0.28400
H 	H 	0.77010 0.09000 0.45640 0.09000
C 	C 	0.19420 0.44010 0.30077 0.40200
C 	C 	0.67290 0.12370 0.50177 -0.50300
H 	H 	0.66140 0.15820 0.51030 0.12300
H 	H 	0.68300 0.09810 0.51690 0.06600
H 	H 	0.64290 0.10850 0.49060 0.12600
C 	C 	0.71360 0.18020 0.46261 -0.66700
H 	H 	0.70180 0.21190 0.47370 0.18300
H 	H 	0.68570 0.17090 0.44850 0.21400
H 	H 	0.74770 0.18870 0.45270 0.17600
C 	C 	0.71240 0.14870 0.60231 0.31100
C 	C 	0.70450 0.15070 0.63460 -0.19400
H 	H 	0.73570 0.13200 0.64410 0.07200
C 	C 	0.65090 0.12160 0.64297 0.30900
C 	C 	0.66300 0.16590 0.58645 -0.60100
H 	H 	0.66980 0.16360 0.56590 0.14600
H 	H 	0.65400 0.20350 0.59150 0.17200
H 	H 	0.63250 0.14210 0.59150 0.16700
C 	C 	0.73040 0.09280 0.59110 -0.53100
H 	H 	0.73420 0.09430 0.57030 0.10400
H 	H 	0.70310 0.06540 0.59620 0.13700
H 	H 	0.76540 0.08290 0.59970 0.14300
C 	C 	0.81040 0.37190 0.63909 0.24000
C 	C 	0.74860 0.37810 0.64819 -0.26800
H 	H 	0.72680 0.38970 0.63120 0.09400
C 	C 	0.74180 0.42090 0.67253 0.54200
C 	C 	0.84820 0.35640 0.66167 -0.36400
H 	H 	0.88510 0.35430 0.65380 0.06300
H 	H 	0.83790 0.32080 0.66940 0.01200
H 	H 	0.84720 0.38360 0.67700 -0.00200
C 	C 	0.82570 0.43060 0.62840 -0.49100
H 	H 	0.80040 0.44180 0.61330 0.14000
H 	H 	0.86280 0.43040 0.62080 0.12800
H 	H 	0.82340 0.45620 0.64440 0.11900
O 	O 	0.06410 0.41300 0.31287 -0.57900
O 	O 	0.08400 0.33710 0.33009 -0.49800
C 	C 	0.06050 0.36750 0.30950 0.83000
C 	C 	0.03460 0.35050 0.28500 -1.26000
H 	H 	0.03390 0.31070 0.28450 0.34500
H 	H 	0.05420 0.36420 0.26830 0.35800
H 	H 	0.99730 0.36450 0.28490 0.36200
La	La	0.47269 0.43444 0.54350 1.20300
La	La	0.68180 0.99310 0.53732 1.16000
La	La	0.85630 0.71480 0.50495 0.71300
La	La	0.73160 0.33380 0.74624 0.38800
La	La	0.43940 0.36370 0.48880 0.79900
La	La	0.77670 0.68730 0.47320 0.85100
O 	O 	0.78680 0.28780 0.79620 -0.50500
Pt	Pt	0.00005 0.74390 0.95525 0.35300
Pt	Pt	0.27542 0.66488 0.98281 0.35600
Pt	Pt	0.06755 0.54667 0.06356 0.34800
Pt	Pt	0.97755 0.81582 0.09808 0.36500
Pt	Pt	0.18611 0.92817 0.01961 0.30900
Pt	Pt	0.24667 0.73845 0.12614 0.33100
Ag	Ag	0.15944 0.78360 0.97989 0.46500
Ag	Ag	0.11054 0.65084 0.00117 0.45800
Ag	Ag	0.99992 0.68943 0.03892 0.46400
Ag	Ag	0.05956 0.82700 0.02422 0.45600
Ag	Ag	0.23625 0.77127 0.04258 0.46100
Ag	Ag	0.21170 0.62604 0.06269 0.47700
Ag	Ag	0.09389 0.70162 0.09583 0.46000
Ag	Ag	0.14045 0.85240 0.09580 0.47900
La	La	0.88170 0.58108 0.86279 1.50200
S 	S 	0.06270 0.80381 0.97104 -0.42300
S 	S 	0.01556 0.67534 0.98659 -0.42200
S 	S 	0.19026 0.68807 0.97288 -0.41200
S 	S 	0.27253 0.68015 0.03075 -0.38900
S 	S 	0.13689 0.57917 0.03686 -0.41900
S 	S 	0.03198 0.62684 0.07720 -0.43300
S 	S 	0.98100 0.78621 0.05235 -0.44100
S 	S 	0.06216 0.79406 0.11159 -0.47500
S 	S 	0.11926 0.89748 0.04843 -0.39900
S 	S 	0.21900 0.84644 0.00616 -0.41900
S 	S 	0.23073 0.80477 0.09347 -0.40800
S 	S 	0.19005 0.67435 0.10924 -0.40300
O 	O 	0.96260 0.89260 0.89704 -0.39800
O 	O 	0.04130 0.91150 0.88566 -0.36900
O 	O 	0.89500 0.61727 0.91129 -0.50500
O 	O 	0.87450 0.56460 0.95102 -0.33000
O 	O 	0.27350 0.63090 0.88580 -0.37100
O 	O 	0.22900 0.70160 0.87416 -0.32000
O 	O 	0.45460 0.64090 0.00234 -0.51000
O 	O 	0.45020 0.59820 0.04287 -0.60100
O 	O 	0.12740 0.38575 0.02258 -0.47500
O 	O 	0.21090 0.39890 0.02894 -0.41600
O 	O 	0.98033 0.57444 0.87014 -0.45400
O 	O 	0.04534 0.63118 0.85647 -0.32600
O 	O 	0.80152 0.86762 0.06696 -0.32800
O 	O 	0.78915 0.79000 0.04483 -0.31800
O 	O 	0.95220 0.82830 0.19518 -0.30500
O 	O 	0.03220 0.86390 0.20652 -0.35000
O 	O 	0.09140 0.09090 0.04315 -0.35400
O 	O 	0.09210 0.07500 0.09000 -0.28600
O 	O 	0.83004 0.51300 0.79193 -0.36300
O 	O 	0.81431 0.58127 0.82258 -0.49600
O 	O 	0.39042 0.85410 0.14690 -0.32600
O 	O 	0.34360 0.93380 0.14353 -0.28600
O 	O 	0.26620 0.60620 0.19727 -0.54600
O 	O 	0.25570 0.53770 0.17194 -0.56800
N 	N 	0.98960 0.79920 0.92287 -0.22200
H 	H 	0.98610 0.77980 0.90620 0.09200
H 	H 	0.95690 0.81630 0.92600 0.12000
N 	N 	0.93990 0.69610 0.93948 -0.23000
H 	H 	0.90890 0.71690 0.93770 0.11200
H 	H 	0.94970 0.68490 0.92140 0.10100
N 	N 	0.28820 0.65770 0.93983 -0.23500
H 	H 	0.32210 0.67070 0.93520 0.09200
H 	H 	0.28660 0.62170 0.93460 0.12200
N 	N 	0.34700 0.63140 0.99114 -0.23500
H 	H 	0.34680 0.59700 0.98340 0.10200
H 	H 	0.37290 0.65100 0.98140 0.09100
N 	N 	0.09930 0.47320 0.05299 -0.22000
H 	H 	0.09890 0.45140 0.06890 0.10800
H 	H 	0.07710 0.45730 0.03950 0.08500
N 	N 	0.00410 0.51280 0.08572 -0.21700
H 	H 	0.99210 0.48240 0.07620 0.08800
H 	H 	0.01600 0.50220 0.10350 0.07000
N 	N 	0.89710 0.83190 0.08956 -0.23500
H 	H 	0.87690 0.82260 0.10530 0.14300
H 	H 	0.89320 0.86870 0.08680 0.11600
N 	N 	0.96760 0.84360 0.13826 -0.22800
H 	H 	0.95660 0.87930 0.13740 0.09200
H 	H 	0.94020 0.82410 0.14680 0.12200
N 	N 	0.16270 0.00410 0.03201 -0.22000
H 	H 	0.19320 0.02460 0.03550 0.04200
H 	H 	0.14410 0.02030 0.01720 0.07500
N 	N 	0.24070 0.95790 0.99076 -0.17400
H 	H 	0.22470 0.98650 0.98130 0.02900
H 	H 	0.26990 0.97170 0.00070 -0.07200
N 	N 	0.29720 0.79296 0.14374 -0.23600
H 	H 	0.29120 0.79250 0.16310 0.10200
H 	H 	0.33210 0.78070 0.14090 0.09200
N 	N 	0.26390 0.68070 0.15480 -0.19400
H 	H 	0.30050 0.68290 0.15870 0.06200
H 	H 	0.24580 0.68940 0.17140 -0.00500
C 	C 	0.04500 0.86320 0.94875 0.34400
C 	C 	0.02970 0.84090 0.91790 -0.25800
H 	H 	0.06240 0.82550 0.90820 0.08700
C 	C 	0.00490 0.88550 0.90029 0.46200
C 	C 	0.00530 0.89880 0.96133 -0.71300
H 	H 	0.01820 0.91090 0.98010 0.19000
H 	H 	0.97080 0.87940 0.96350 0.20800
H 	H 	0.99990 0.93050 0.94890 0.22000
C 	C 	0.10420 0.89510 0.94420 -0.55800
H 	H 	0.13060 0.87010 0.93560 0.15000
H 	H 	0.11790 0.90750 0.96280 0.15100
H 	H 	0.09910 0.92650 0.93160 0.18000
C 	C 	0.97900 0.61990 0.96882 0.35900
C 	C 	0.92630 0.64640 0.95709 -0.24600
H 	H 	0.90080 0.65570 0.97300 0.08200
C 	C 	0.89870 0.61060 0.93505 0.37900
C 	C 	0.01520 0.59720 0.94531 -0.64700
H 	H 	0.02050 0.62490 0.93050 0.20000
H 	H 	0.99800 0.56510 0.93690 0.18900
H 	H 	0.05050 0.58700 0.95340 0.16700
C 	C 	0.96760 0.57940 0.99259 -0.63800
H 	H 	0.94410 0.59630 0.00700 0.16900
H 	H 	0.00190 0.56840 0.00150 0.16600
H 	H 	0.94940 0.54740 0.98460 0.18800
C 	C 	0.18830 0.67080 0.93430 0.28400
C 	C 	0.24590 0.68910 0.92443 -0.19300
H 	H 	0.25130 0.72920 0.92620 0.06600
C 	C 	0.24980 0.66800 0.89081 0.41000
C 	C 	0.17480 0.60790 0.93313 -0.55200
H 	H 	0.13710 0.60200 0.93910 0.14600
H 	H 	0.19930 0.58820 0.94600 0.16100
H 	H 	0.17970 0.59460 0.91360 0.16900
C 	C 	0.13990 0.70240 0.92121 -0.58900
H 	H 	0.10570 0.68770 0.92870 0.16800
H 	H 	0.14050 0.69850 0.90040 0.19500
H 	H 	0.14290 0.74090 0.92630 0.15800
C 	C 	0.34390 0.67290 0.03693 0.13300
C 	C 	0.36520 0.62630 0.02068 -0.17500
H 	H 	0.34770 0.59300 0.02870 0.05700
C 	C 	0.42790 0.61610 0.02089 0.40500
C 	C 	0.37390 0.72340 0.02790 -0.42100
H 	H 	0.36120 0.75440 0.03930 0.09800
H 	H 	0.36720 0.73050 0.00760 0.11700
H 	H 	0.41300 0.71830 0.03100 0.11300
C 	C 	0.15660 0.51790 0.01894 0.31500
C 	C 	0.15210 0.47460 0.04230 -0.22400
H 	H 	0.17780 0.48370 0.05810 0.09100
C 	C 	0.16410 0.41580 0.03160 0.40000
C 	C 	0.11990 0.50480 0.99502 -0.58200
H 	H 	0.12180 0.53370 0.98060 0.14500
H 	H 	0.08250 0.50180 0.00210 0.15400
H 	H 	0.13080 0.47020 0.98640 0.14000
C 	C 	0.21700 0.52970 0.00754 -0.56800
H 	H 	0.24060 0.53870 0.02370 0.15800
H 	H 	0.21610 0.56030 0.99420 0.15800
H 	H 	0.23100 0.49740 0.99780 0.16500
C 	C 	0.97630 0.60700 0.10130 0.39500
C 	C 	0.95740 0.55230 0.08909 -0.25900
H 	H 	0.94120 0.55890 0.06980 0.08500
C 	C 	0.02270 0.58490 0.85752 0.39800
C 	C 	0.99810 0.59810 0.13180 -0.65200
H 	H 	0.02660 0.57030 0.13150 0.18100
H 	H 	0.96840 0.58600 0.14420 0.19300
H 	H 	0.01310 0.63220 0.13910 0.16800
C 	C 	0.93390 0.64970 0.09984 -0.74000
H 	H 	0.94820 0.68350 0.10800 0.21200
H 	H 	0.90200 0.63810 0.11070 0.24300
H 	H 	0.92360 0.65580 0.07990 0.20300
C 	C 	0.91500 0.81280 0.03880 0.47400
C 	C 	0.87510 0.80360 0.06480 -0.24300
H 	H 	0.87330 0.76390 0.06910 0.09800
C 	C 	0.81610 0.82510 0.05862 0.37900
C 	C 	0.92130 0.86860 0.03244 -0.84100
H 	H 	0.93120 0.88840 0.04990 0.24800
H 	H 	0.88700 0.88310 0.02490 0.24600
H 	H 	0.95000 0.87320 0.01810 0.22300
C 	C 	0.89920 0.77790 0.01359 -0.77700
H 	H 	0.89610 0.73990 0.01970 0.21700
H 	H 	0.92710 0.78090 0.99870 0.21800
H 	H 	0.86420 0.79020 0.00600 0.24800
C 	C 	0.05440 0.79340 0.15085 0.60800
C 	C 	0.01960 0.84020 0.15760 -0.32400
H 	H 	0.04170 0.87320 0.15290 0.09300
C 	C 	0.00060 0.84810 0.18882 0.34600
C 	C 	0.02720 0.74640 0.16040 -0.98000
H 	H 	0.99080 0.74510 0.15200 0.29600
H 	H 	0.02430 0.74730 0.18130 0.28000
H 	H 	0.04780 0.71410 0.15460 0.25100
C 	C 	0.10760 0.80170 0.16300 -0.87400
H 	H 	0.12260 0.83620 0.15600 0.22700
H 	H 	0.13160 0.77180 0.15730 0.20700
H 	H 	0.10480 0.80290 0.18390 0.21600
C 	C 	0.08330 0.96240 0.05564 0.27800
C 	C 	0.12650 0.00450 0.05885 -0.20600
H 	H 	0.14920 0.99580 0.07600 0.08900
C 	C 	0.10150 0.06320 0.06239 0.35100
C 	C 	0.04630 0.97300 0.02739 -0.53400
H 	H 	0.01840 0.94480 0.02600 0.13600
H 	H 	0.06940 0.97190 0.01030 0.15600
H 	H 	0.02890 0.00870 0.02880 0.17400
C 	C 	0.04410 0.95930 0.08159 -0.58300
H 	H 	0.01690 0.93090 0.07820 0.16400
H 	H 	0.02580 0.99430 0.08410 0.19400
H 	H 	0.06480 0.95060 0.09890 0.16000
C 	C 	0.27780 0.86630 0.98210 0.34200
C 	C 	0.26160 0.91860 0.96901 -0.28300
H 	H 	0.22990 0.91000 0.95640 0.09000
C 	C 	0.80580 0.55990 0.80077 0.40200
C 	C 	0.32710 0.87630 0.00177 -0.49900
H 	H 	0.33860 0.84180 0.01030 0.12200
H 	H 	0.31700 0.90190 0.01690 0.06500
H 	H 	0.35710 0.89150 0.99060 0.12500
C 	C 	0.28640 0.81980 0.96261 -0.66500
H 	H 	0.29820 0.78810 0.97370 0.18300
H 	H 	0.31430 0.82910 0.94850 0.21300
H 	H 	0.25230 0.81130 0.95270 0.17500
C 	C 	0.28760 0.85130 0.10231 0.31100
C 	C 	0.29550 0.84930 0.13460 -0.19400
H 	H 	0.26430 0.86800 0.14410 0.07200
C 	C 	0.34910 0.87840 0.14297 0.30900
C 	C 	0.33700 0.83410 0.08645 -0.60100
H 	H 	0.33020 0.83640 0.06590 0.14600
H 	H 	0.34600 0.79650 0.09150 0.17200
H 	H 	0.36750 0.85790 0.09150 0.16700
C 	C 	0.26960 0.90720 0.09110 -0.53100
H 	H 	0.26580 0.90570 0.07030 0.10400
H 	H 	0.29690 0.93460 0.09620 0.13700
H 	H 	0.23460 0.91710 0.09970 0.14300
C 	C 	0.18960 0.62810 0.13909 0.24000
C 	C 	0.25140 0.62190 0.14819 -0.26800
H 	H 	0.27320 0.61030 0.13120 0.09400
C 	C 	0.25820 0.57910 0.17253 0.54200
C 	C 	0.15180 0.64360 0.16167 -0.36400
H 	H 	0.11490 0.64570 0.15380 0.06300
H 	H 	0.16210 0.67920 0.16940 0.01200
H 	H 	0.15280 0.61640 0.17700 -0.00200
C 	C 	0.17430 0.56940 0.12840 -0.49100
H 	H 	0.19960 0.55820 0.11330 0.14000
H 	H 	0.13720 0.56960 0.12080 0.12800
H 	H 	0.17660 0.54380 0.14440 0.11900
O 	O 	0.93590 0.58700 0.81287 -0.57900
O 	O 	0.91600 0.66290 0.83009 -0.49800
C 	C 	0.93950 0.63250 0.80950 0.83000
C 	C 	0.96540 0.64950 0.78500 -1.26000
H 	H 	0.96610 0.68930 0.78450 0.34500
H 	H 	0.94580 0.63580 0.76830 0.35800
H 	H 	0.00270 0.63550 0.78490 0.36200
La	La	0.52731 0.56556 0.04350 1.20300
La	La	0.31820 0.00690 0.03732 1.16000
La	La	0.14370 0.28520 0.00495 0.71400
La	La	0.26840 0.66620 0.24624 0.38800
La	La	0.56060 0.63630 0.98880 0.79800
La	La	0.22330 0.31270 0.97320 0.85100
O 	O 	0.21320 0.71220 0.29620 -0.50500
Pt	Pt	0.74390 0.00005 0.04475 0.35300
Pt	Pt	0.66488 0.27542 0.01719 0.35600
Pt	Pt	0.54667 0.06755 0.93644 0.34800
Pt	Pt	0.81582 0.97755 0.90192 0.36500
Pt	Pt	0.92817 0.18611 0.98039 0.30900
Pt	Pt	0.73845 0.24667 0.87386 0.33100
Ag	Ag	0.78360 0.15944 0.02011 0.46500
Ag	Ag	0.65084 0.11054 0.99883 0.45700
Ag	Ag	0.68943 0.99992 0.96107 0.46400
Ag	Ag	0.82700 0.05956 0.97578 0.45600
Ag	Ag	0.77127 0.23625 0.95742 0.46100
Ag	Ag	0.62604 0.21170 0.93731 0.47700
Ag	Ag	0.70162 0.09389 0.90417 0.46000
Ag	Ag	0.85240 0.14045 0.90420 0.47900
La	La	0.58108 0.88170 0.13721 1.50300
S 	S 	0.80381 0.06270 0.02896 -0.42300
S 	S 	0.67534 0.01556 0.01341 -0.42000
S 	S 	0.68807 0.19026 0.02712 -0.41100
S 	S 	0.68015 0.27253 0.96925 -0.38900
S 	S 	0.57917 0.13689 0.96314 -0.41900
S 	S 	0.62684 0.03198 0.92280 -0.43300
S 	S 	0.78621 0.98100 0.94765 -0.44200
S 	S 	0.79406 0.06216 0.88841 -0.47500
S 	S 	0.89748 0.11926 0.95157 -0.39900
S 	S 	0.84644 0.21900 0.99384 -0.42100
S 	S 	0.80477 0.23073 0.90653 -0.40800
S 	S 	0.67435 0.19005 0.89076 -0.40300
O 	O 	0.89260 0.96260 0.10296 -0.39800
O 	O 	0.91150 0.04130 0.11434 -0.36900
O 	O 	0.61727 0.89500 0.08871 -0.50500
O 	O 	0.56460 0.87450 0.04898 -0.33000
O 	O 	0.63090 0.27350 0.11420 -0.37100
O 	O 	0.70160 0.22900 0.12584 -0.32000
O 	O 	0.64090 0.45460 0.99766 -0.51000
O 	O 	0.59820 0.45020 0.95713 -0.60100
O 	O 	0.38575 0.12740 0.97742 -0.47500
O 	O 	0.39890 0.21090 0.97106 -0.41700
O 	O 	0.57444 0.98033 0.12986 -0.45400
O 	O 	0.63118 0.04534 0.14353 -0.32600
O 	O 	0.86762 0.80152 0.93304 -0.32800
O 	O 	0.79000 0.78915 0.95517 -0.31800
O 	O 	0.82830 0.95220 0.80482 -0.30500
O 	O 	0.86390 0.03220 0.79348 -0.35000
O 	O 	0.09090 0.09140 0.95685 -0.35500
O 	O 	0.07500 0.09210 0.91000 -0.28600
O 	O 	0.51300 0.83004 0.20807 -0.36300
O 	O 	0.58127 0.81431 0.17742 -0.49600
O 	O 	0.85410 0.39042 0.85310 -0.32600
O 	O 	0.93380 0.34360 0.85647 -0.28600
O 	O 	0.60620 0.26620 0.80273 -0.54600
O 	O 	0.53770 0.25570 0.82806 -0.56800
N 	N 	0.79920 0.98960 0.07713 -0.22200
H 	H 	0.77980 0.98610 0.09380 0.09200
H 	H 	0.81630 0.95690 0.07400 0.12000
N 	N 	0.69610 0.93990 0.06052 -0.23000
H 	H 	0.71690 0.90890 0.06230 0.11200
H 	H 	0.68490 0.94970 0.07860 0.10100
N 	N 	0.65770 0.28820 0.06017 -0.23500
H 	H 	0.67070 0.32210 0.06480 0.09200
H 	H 	0.62170 0.28660 0.06540 0.12200
N 	N 	0.63140 0.34700 0.00886 -0.23400
H 	H 	0.59700 0.34680 0.01660 0.10200
H 	H 	0.65100 0.37290 0.01860 0.09100
N 	N 	0.47320 0.09930 0.94701 -0.22000
H 	H 	0.45140 0.09890 0.93110 0.10800
H 	H 	0.45730 0.07710 0.96050 0.08500
N 	N 	0.51280 0.00410 0.91428 -0.21700
H 	H 	0.48240 0.99210 0.92380 0.08800
H 	H 	0.50220 0.01600 0.89650 0.07000
N 	N 	0.83190 0.89710 0.91044 -0.23500
H 	H 	0.82260 0.87690 0.89470 0.14300
H 	H 	0.86870 0.89320 0.91320 0.11600
N 	N 	0.84360 0.96760 0.86174 -0.22800
H 	H 	0.87930 0.95660 0.86260 0.09200
H 	H 	0.82410 0.94020 0.85320 0.12200
N 	N 	0.00410 0.16270 0.96799 -0.21900
H 	H 	0.02460 0.19320 0.96450 0.04200
H 	H 	0.02030 0.14410 0.98280 0.07500
N 	N 	0.95790 0.24070 0.00924 -0.17300
H 	H 	0.98650 0.22470 0.01870 0.02900
H 	H 	0.97170 0.26990 0.99930 -0.07300
N 	N 	0.79296 0.29720 0.85626 -0.23600
H 	H 	0.79250 0.29120 0.83690 0.10200
H 	H 	0.78070 0.33210 0.85910 0.09200
N 	N 	0.68070 0.26390 0.84520 -0.19400
H 	H 	0.68290 0.30050 0.84130 0.06200
H 	H 	0.68940 0.24580 0.82860 -0.00500
C 	C 	0.86320 0.04500 0.05125 0.34400
C 	C 	0.84090 0.02970 0.08210 -0.25800
H 	H 	0.82550 0.06240 0.09180 0.08700
C 	C 	0.88550 0.00490 0.09971 0.46200
C 	C 	0.89880 0.00530 0.03867 -0.71400
H 	H 	0.91090 0.01820 0.01990 0.19100
H 	H 	0.87940 0.97080 0.03650 0.20800
H 	H 	0.93050 0.99990 0.05110 0.22000
C 	C 	0.89510 0.10420 0.05580 -0.55800
H 	H 	0.87010 0.13060 0.06440 0.15000
H 	H 	0.90750 0.11790 0.03720 0.15100
H 	H 	0.92650 0.09910 0.06840 0.18000
C 	C 	0.61990 0.97900 0.03118 0.35600
C 	C 	0.64640 0.92630 0.04291 -0.24500
H 	H 	0.65570 0.90080 0.02700 0.08200
C 	C 	0.61060 0.89870 0.06495 0.37900
C 	C 	0.59720 0.01520 0.05469 -0.64400
H 	H 	0.62490 0.02050 0.06950 0.19900
H 	H 	0.56510 0.99800 0.06310 0.18900
H 	H 	0.58700 0.05050 0.04660 0.16700
C 	C 	0.57940 0.96760 0.00741 -0.63000
H 	H 	0.59630 0.94410 0.99300 0.16600
H 	H 	0.56840 0.00190 0.99850 0.16400
H 	H 	0.54740 0.94940 0.01540 0.18600
C 	C 	0.67080 0.18830 0.06570 0.28400
C 	C 	0.68910 0.24590 0.07557 -0.19300
H 	H 	0.72920 0.25130 0.07380 0.06600
C 	C 	0.66800 0.24980 0.10919 0.41000
C 	C 	0.60790 0.17480 0.06687 -0.55200
H 	H 	0.60200 0.13710 0.06090 0.14600
H 	H 	0.58820 0.19930 0.05400 0.16100
H 	H 	0.59460 0.17970 0.08640 0.16900
C 	C 	0.70240 0.13990 0.07879 -0.58900
H 	H 	0.68770 0.10570 0.07130 0.16800
H 	H 	0.69850 0.14050 0.09960 0.19500
H 	H 	0.74090 0.14290 0.07370 0.15800
C 	C 	0.67290 0.34390 0.96307 0.13300
C 	C 	0.62630 0.36520 0.97932 -0.17600
H 	H 	0.59300 0.34770 0.97130 0.05700
C 	C 	0.61610 0.42790 0.97911 0.40500
C 	C 	0.72340 0.37390 0.97210 -0.42100
H 	H 	0.75440 0.36120 0.96070 0.09700
H 	H 	0.73050 0.36720 0.99240 0.11700
H 	H 	0.71830 0.41300 0.96900 0.11300
C 	C 	0.51790 0.15660 0.98106 0.31400
C 	C 	0.47460 0.15210 0.95770 -0.22400
H 	H 	0.48370 0.17780 0.94190 0.09100
C 	C 	0.41580 0.16410 0.96840 0.40000
C 	C 	0.50480 0.11990 0.00498 -0.57700
H 	H 	0.53370 0.12180 0.01940 0.14400
H 	H 	0.50180 0.08250 0.99790 0.15200
H 	H 	0.47020 0.13080 0.01360 0.13900
C 	C 	0.52970 0.21700 0.99246 -0.57400
H 	H 	0.53870 0.24060 0.97630 0.15900
H 	H 	0.56030 0.21610 0.00580 0.16000
H 	H 	0.49740 0.23100 0.00220 0.16700
C 	C 	0.60700 0.97630 0.89870 0.39500
C 	C 	0.55230 0.95740 0.91091 -0.25900
H 	H 	0.55890 0.94120 0.93020 0.08500
C 	C 	0.58490 0.02270 0.14248 0.39800
C 	C 	0.59810 0.99810 0.86820 -0.65300
H 	H 	0.57030 0.02660 0.86850 0.18100
H 	H 	0.58600 0.96840 0.85580 0.19300
H 	H 	0.63220 0.01310 0.86090 0.16800
C 	C 	0.64970 0.93390 0.90016 -0.74000
H 	H 	0.68350 0.94820 0.89200 0.21200
H 	H 	0.63810 0.90200 0.88930 0.24300
H 	H 	0.65580 0.92360 0.92010 0.20300
C 	C 	0.81280 0.91500 0.96120 0.47500
C 	C 	0.80360 0.87510 0.93520 -0.24300
H 	H 	0.76390 0.87330 0.93090 0.09800
C 	C 	0.82510 0.81610 0.94138 0.37900
C 	C 	0.86860 0.92130 0.96756 -0.84200
H 	H 	0.88840 0.93120 0.95010 0.24900
H 	H 	0.88310 0.88700 0.97510 0.24600
H 	H 	0.87320 0.95000 0.98190 0.22300
C 	C 	0.77790 0.89920 0.98641 -0.78000
H 	H 	0.73990 0.89610 0.98030 0.21800
H 	H 	0.78090 0.92710 0.00130 0.22000
H 	H 	0.79020 0.86420 0.99400 0.24900
C 	C 	0.79340 0.05440 0.84915 0.60800
C 	C 	0.84020 0.01960 0.84240 -0.32400
H 	H 	0.87320 0.04170 0.84710 0.09300
C 	C 	0.84810 0.00060 0.81118 0.34600
C 	C 	0.74640 0.02720 0.83960 -0.98000
H 	H 	0.74510 0.99080 0.84800 0.29600
H 	H 	0.74730 0.02430 0.81870 0.28000
H 	H 	0.71410 0.04780 0.84540 0.25100
C 	C 	0.80170 0.10760 0.83700 -0.87400
H 	H 	0.83620 0.12260 0.84400 0.22700
H 	H 	0.77180 0.13160 0.84270 0.20700
H 	H 	0.80290 0.10480 0.81610 0.21600
C 	C 	0.96240 0.08330 0.94436 0.27800
C 	C 	0.00450 0.12650 0.94115 -0.20600
H 	H 	0.99580 0.14920 0.92400 0.08900
C 	C 	0.06320 0.10150 0.93761 0.35100
C 	C 	0.97300 0.04630 0.97261 -0.53400
H 	H 	0.94480 0.01840 0.97400 0.13600
H 	H 	0.97190 0.06940 0.98970 0.15500
H 	H 	0.00870 0.02890 0.97120 0.17400
C 	C 	0.95930 0.04410 0.91841 -0.58300
H 	H 	0.93090 0.01690 0.92180 0.16400
H 	H 	0.99430 0.02580 0.91590 0.19400
H 	H 	0.95060 0.06480 0.90110 0.16000
C 	C 	0.86630 0.27780 0.01790 0.34600
C 	C 	0.91860 0.26160 0.03099 -0.28500
H 	H 	0.91000 0.22990 0.04360 0.09000
C 	C 	0.55990 0.80580 0.19923 0.40200
C 	C 	0.87630 0.32710 0.99823 -0.50700
H 	H 	0.84180 0.33860 0.98970 0.12400
H 	H 	0.90190 0.31700 0.98310 0.06700
H 	H 	0.89150 0.35710 0.00940 0.12700
C 	C 	0.81980 0.28640 0.03739 -0.66900
H 	H 	0.78810 0.29820 0.02630 0.18400
H 	H 	0.82910 0.31430 0.05150 0.21400
H 	H 	0.81130 0.25230 0.04730 0.17600
C 	C 	0.85130 0.28760 0.89769 0.31100
C 	C 	0.84930 0.29550 0.86540 -0.19400
H 	H 	0.86800 0.26430 0.85590 0.07200
C 	C 	0.87840 0.34910 0.85703 0.30900
C 	C 	0.83410 0.33700 0.91355 -0.60100
H 	H 	0.83640 0.33020 0.93410 0.14600
H 	H 	0.79650 0.34600 0.90850 0.17200
H 	H 	0.85790 0.36750 0.90850 0.16700
C 	C 	0.90720 0.26960 0.90890 -0.53100
H 	H 	0.90570 0.26580 0.92970 0.10400
H 	H 	0.93460 0.29690 0.90380 0.13700
H 	H 	0.91710 0.23460 0.90030 0.14300
C 	C 	0.62810 0.18960 0.86091 0.24000
C 	C 	0.62190 0.25140 0.85181 -0.26800
H 	H 	0.61030 0.27320 0.86880 0.09400
C 	C 	0.57910 0.25820 0.82747 0.54200
C 	C 	0.64360 0.15180 0.83833 -0.36400
H 	H 	0.64570 0.11490 0.84620 0.06300
H 	H 	0.67920 0.16210 0.83060 0.01200
H 	H 	0.61640 0.15280 0.82300 -0.00200
C 	C 	0.56940 0.17430 0.87160 -0.49100
H 	H 	0.55820 0.19960 0.88670 0.14000
H 	H 	0.56960 0.13720 0.87920 0.12800
H 	H 	0.54380 0.17660 0.85560 0.11900
O 	O 	0.58700 0.93590 0.18713 -0.57900
O 	O 	0.66290 0.91600 0.16991 -0.49800
C 	C 	0.63250 0.93950 0.19050 0.83000
C 	C 	0.64950 0.96540 0.21500 -1.26000
H 	H 	0.68930 0.96610 0.21550 0.34500
H 	H 	0.63580 0.94580 0.23170 0.35800
H 	H 	0.63550 0.00270 0.21510 0.36200
La	La	0.56556 0.52731 0.95650 1.20200
La	La	0.00690 0.31820 0.96268 1.16000
La	La	0.28520 0.14370 0.99505 0.71200
La	La	0.66620 0.26840 0.75376 0.38800
La	La	0.63630 0.56060 0.01120 0.80000
La	La	0.31270 0.22330 0.02680 0.85200
O 	O 	0.71220 0.21320 0.70380 -0.50500
Pt	Pt	0.25610 0.99995 0.54475 0.35300
Pt	Pt	0.33512 0.72458 0.51719 0.35600
Pt	Pt	0.45333 0.93245 0.43644 0.34800
Pt	Pt	0.18418 0.02245 0.40192 0.36500
Pt	Pt	0.07183 0.81389 0.48039 0.30900
Pt	Pt	0.26155 0.75333 0.37386 0.33100
Ag	Ag	0.21640 0.84056 0.52011 0.46500
Ag	Ag	0.34916 0.88946 0.49882 0.45800
Ag	Ag	0.31057 0.00008 0.46108 0.46400
Ag	Ag	0.17300 0.94044 0.47578 0.45600
Ag	Ag	0.22873 0.76375 0.45742 0.46100
Ag	Ag	0.37396 0.78830 0.43731 0.47700
Ag	Ag	0.29838 0.90611 0.40417 0.46000
Ag	Ag	0.14760 0.85955 0.40420 0.47900
La	La	0.41892 0.11830 0.63721 1.50200
S 	S 	0.19619 0.93730 0.52896 -0.42300
S 	S 	0.32466 0.98444 0.51341 -0.42100
S 	S 	0.31193 0.80974 0.52712 -0.41100
S 	S 	0.31985 0.72747 0.46925 -0.38900
S 	S 	0.42083 0.86311 0.46314 -0.41900
S 	S 	0.37316 0.96802 0.42280 -0.43300
S 	S 	0.21379 0.01900 0.44765 -0.44100
S 	S 	0.20594 0.93784 0.38841 -0.47500
S 	S 	0.10252 0.88074 0.45157 -0.39900
S 	S 	0.15356 0.78100 0.49384 -0.42000
S 	S 	0.19523 0.76927 0.40653 -0.40800
S 	S 	0.32565 0.80995 0.39076 -0.40300
O 	O 	0.10740 0.03740 0.60296 -0.39800
O 	O 	0.08850 0.95870 0.61434 -0.36900
O 	O 	0.38273 0.10500 0.58871 -0.50500
O 	O 	0.43540 0.12550 0.54898 -0.33000
O 	O 	0.36910 0.72650 0.61420 -0.37100
O 	O 	0.29840 0.77100 0.62584 -0.32000
O 	O 	0.35910 0.54540 0.49766 -0.51000
O 	O 	0.40180 0.54980 0.45713 -0.60100
O 	O 	0.61425 0.87260 0.47742 -0.47500
O 	O 	0.60110 0.78910 0.47106 -0.41700
O 	O 	0.42556 0.01967 0.62986 -0.45400
O 	O 	0.36882 0.95466 0.64353 -0.32600
O 	O 	0.13238 0.19848 0.43304 -0.32800
O 	O 	0.21000 0.21085 0.45517 -0.31800
O 	O 	0.17170 0.04780 0.30482 -0.30500
O 	O 	0.13610 0.96780 0.29348 -0.35000
O 	O 	0.90910 0.90860 0.45685 -0.35500
O 	O 	0.92500 0.90790 0.41000 -0.28600
O 	O 	0.48700 0.16996 0.70807 -0.36300
O 	O 	0.41873 0.18569 0.67742 -0.49600
O 	O 	0.14590 0.60958 0.35310 -0.32600
O 	O 	0.06620 0.65640 0.35647 -0.28600
O 	O 	0.39380 0.73380 0.30273 -0.54600
O 	O 	0.46230 0.74430 0.32806 -0.56800
N 	N 	0.20080 0.01040 0.57713 -0.22200
H 	H 	0.22020 0.01390 0.59380 0.09200
H 	H 	0.18370 0.04310 0.57400 0.12000
N 	N 	0.30390 0.06010 0.56052 -0.23000
H 	H 	0.28310 0.09110 0.56230 0.11200
H 	H 	0.31510 0.05030 0.57860 0.10100
N 	N 	0.34230 0.71180 0.56017 -0.23500
H 	H 	0.32930 0.67790 0.56480 0.09200
H 	H 	0.37830 0.71340 0.56540 0.12200
N 	N 	0.36860 0.65300 0.50886 -0.23400
H 	H 	0.40300 0.65320 0.51660 0.10200
H 	H 	0.34900 0.62710 0.51860 0.09100
N 	N 	0.52680 0.90070 0.44701 -0.22000
H 	H 	0.54860 0.90110 0.43110 0.10800
H 	H 	0.54270 0.92290 0.46050 0.08500
N 	N 	0.48720 0.99590 0.41428 -0.21700
H 	H 	0.51760 0.00790 0.42380 0.08800
H 	H 	0.49780 0.98400 0.39650 0.07000
N 	N 	0.16810 0.10290 0.41044 -0.23500
H 	H 	0.17740 0.12310 0.39470 0.14300
H 	H 	0.13130 0.10680 0.41320 0.11600
N 	N 	0.15640 0.03240 0.36174 -0.22800
H 	H 	0.12070 0.04340 0.36260 0.09200
H 	H 	0.17590 0.05980 0.35320 0.12200
N 	N 	0.99590 0.83730 0.46799 -0.21900
H 	H 	0.97540 0.80680 0.46450 0.04200
H 	H 	0.97970 0.85590 0.48280 0.07500
N 	N 	0.04210 0.75930 0.50924 -0.17300
H 	H 	0.01350 0.77530 0.51870 0.02900
H 	H 	0.02830 0.73010 0.49930 -0.07300
N 	N 	0.20704 0.70280 0.35626 -0.23600
H 	H 	0.20750 0.70880 0.33690 0.10200
H 	H 	0.21930 0.66790 0.35910 0.09200
N 	N 	0.31930 0.73610 0.34520 -0.19400
H 	H 	0.31710 0.69950 0.34130 0.06200
H 	H 	0.31060 0.75420 0.32860 -0.00500
C 	C 	0.13680 0.95500 0.55125 0.34400
C 	C 	0.15910 0.97030 0.58210 -0.25800
H 	H 	0.17450 0.93760 0.59180 0.08700
C 	C 	0.11450 0.99510 0.59971 0.46200
C 	C 	0.10120 0.99470 0.53867 -0.71300
H 	H 	0.08910 0.98180 0.51990 0.19000
H 	H 	0.12060 0.02920 0.53650 0.20800
H 	H 	0.06950 0.00010 0.55110 0.22000
C 	C 	0.10490 0.89580 0.55580 -0.55800
H 	H 	0.12990 0.86940 0.56440 0.15000
H 	H 	0.09250 0.88210 0.53720 0.15100
H 	H 	0.07350 0.90090 0.56840 0.18000
C 	C 	0.38010 0.02100 0.53118 0.35700
C 	C 	0.35360 0.07370 0.54291 -0.24600
H 	H 	0.34430 0.09920 0.52700 0.08200
C 	C 	0.38940 0.10130 0.56495 0.37900
C 	C 	0.40280 0.98480 0.55469 -0.64500
H 	H 	0.37510 0.97950 0.56950 0.19900
H 	H 	0.43490 0.00200 0.56310 0.18900
H 	H 	0.41300 0.94950 0.54660 0.16700
C 	C 	0.42060 0.03240 0.50741 -0.63400
H 	H 	0.40370 0.05590 0.49300 0.16800
H 	H 	0.43160 0.99810 0.49850 0.16500
H 	H 	0.45260 0.05060 0.51540 0.18700
C 	C 	0.32920 0.81170 0.56570 0.28400
C 	C 	0.31090 0.75410 0.57557 -0.19300
H 	H 	0.27080 0.74870 0.57380 0.06600
C 	C 	0.33200 0.75020 0.60919 0.41000
C 	C 	0.39210 0.82520 0.56687 -0.55200
H 	H 	0.39800 0.86290 0.56090 0.14600
H 	H 	0.41180 0.80070 0.55400 0.16100
H 	H 	0.40540 0.82030 0.58640 0.16900
C 	C 	0.29760 0.86010 0.57879 -0.58900
H 	H 	0.31230 0.89430 0.57130 0.16800
H 	H 	0.30150 0.85950 0.59960 0.19500
H 	H 	0.25910 0.85710 0.57370 0.15800
C 	C 	0.32710 0.65610 0.46307 0.13300
C 	C 	0.37370 0.63480 0.47932 -0.17500
H 	H 	0.40700 0.65230 0.47130 0.05700
C 	C 	0.38390 0.57210 0.47911 0.40500
C 	C 	0.27660 0.62610 0.47210 -0.42100
H 	H 	0.24560 0.63880 0.46070 0.09700
H 	H 	0.26950 0.63280 0.49240 0.11700
H 	H 	0.28170 0.58700 0.46900 0.11300
C 	C 	0.48210 0.84340 0.48106 0.31500
C 	C 	0.52540 0.84790 0.45770 -0.22400
H 	H 	0.51630 0.82220 0.44190 0.09100
C 	C 	0.58420 0.83590 0.46840 0.40000
C 	C 	0.49520 0.88010 0.50498 -0.57900
H 	H 	0.46630 0.87820 0.51940 0.14400
H 	H 	0.49820 0.91750 0.49790 0.15300
H 	H 	0.52980 0.86920 0.51360 0.14000
C 	C 	0.47030 0.78300 0.49246 -0.57100
H 	H 	0.46130 0.75940 0.47630 0.15800
H 	H 	0.43970 0.78390 0.50580 0.15900
H 	H 	0.50260 0.76900 0.50220 0.16600
C 	C 	0.39300 0.02370 0.39870 0.39500
C 	C 	0.44770 0.04260 0.41091 -0.25900
H 	H 	0.44110 0.05880 0.43020 0.08500
C 	C 	0.41510 0.97730 0.64248 0.39800
C 	C 	0.40190 0.00190 0.36820 -0.65200
H 	H 	0.42970 0.97340 0.36850 0.18100
H 	H 	0.41400 0.03160 0.35580 0.19300
H 	H 	0.36780 0.98690 0.36090 0.16800
C 	C 	0.35030 0.06610 0.40016 -0.74000
H 	H 	0.31650 0.05180 0.39200 0.21200
H 	H 	0.36190 0.09800 0.38930 0.24300
H 	H 	0.34420 0.07640 0.42010 0.20300
C 	C 	0.18720 0.08500 0.46120 0.47400
C 	C 	0.19640 0.12490 0.43520 -0.24300
H 	H 	0.23610 0.12670 0.43090 0.09800
C 	C 	0.17490 0.18390 0.44138 0.37900
C 	C 	0.13140 0.07870 0.46756 -0.84100
H 	H 	0.11160 0.06880 0.45010 0.24900
H 	H 	0.11690 0.11300 0.47510 0.24600
H 	H 	0.12680 0.05000 0.48190 0.22300
C 	C 	0.22210 0.10080 0.48641 -0.77800
H 	H 	0.26010 0.10390 0.48030 0.21700
H 	H 	0.21910 0.07290 0.50130 0.21900
H 	H 	0.20980 0.13580 0.49400 0.24900
C 	C 	0.20660 0.94560 0.34915 0.60800
C 	C 	0.15980 0.98040 0.34240 -0.32400
H 	H 	0.12680 0.95830 0.34710 0.09300
C 	C 	0.15190 0.99940 0.31118 0.34600
C 	C 	0.25360 0.97280 0.33960 -0.98000
H 	H 	0.25490 0.00920 0.34800 0.29600
H 	H 	0.25270 0.97570 0.31870 0.28000
H 	H 	0.28590 0.95220 0.34540 0.25100
C 	C 	0.19830 0.89240 0.33700 -0.87400
H 	H 	0.16380 0.87740 0.34400 0.22700
H 	H 	0.22820 0.86840 0.34270 0.20700
H 	H 	0.19710 0.89520 0.31610 0.21600
C 	C 	0.03760 0.91670 0.44436 0.27800
C 	C 	0.99550 0.87350 0.44115 -0.20600
H 	H 	0.00420 0.85080 0.42400 0.08900
C 	C 	0.93680 0.89850 0.43761 0.35100
C 	C 	0.02700 0.95370 0.47261 -0.53400
H 	H 	0.05520 0.98160 0.47400 0.13600
H 	H 	0.02810 0.93060 0.48970 0.15500
H 	H 	0.99130 0.97110 0.47120 0.17400
C 	C 	0.04070 0.95590 0.41841 -0.58300
H 	H 	0.06910 0.98310 0.42180 0.16400
H 	H 	0.00570 0.97420 0.41590 0.19400
H 	H 	0.04940 0.93520 0.40110 0.16000
C 	C 	0.13370 0.72220 0.51790 0.34400
C 	C 	0.08140 0.73840 0.53099 -0.28400
H 	H 	0.09000 0.77010 0.54360 0.09000
C 	C 	0.44010 0.19420 0.69923 0.40200
C 	C 	0.12370 0.67290 0.49823 -0.50300
H 	H 	0.15820 0.66140 0.48970 0.12300
H 	H 	0.09810 0.68300 0.48310 0.06600
H 	H 	0.10850 0.64290 0.50940 0.12600
C 	C 	0.18020 0.71360 0.53739 -0.66700
H 	H 	0.21190 0.70180 0.52630 0.18300
H 	H 	0.17090 0.68570 0.55150 0.21400
H 	H 	0.18870 0.74770 0.54730 0.17600
C 	C 	0.14870 0.71240 0.39769 0.31100
C 	C 	0.15070 0.70450 0.36540 -0.19400
H 	H 	0.13200 0.73570 0.35590 0.07200
C 	C 	0.12160 0.65090 0.35703 0.30900
C 	C 	0.16590 0.66300 0.41355 -0.60100
H 	H 	0.16360 0.66980 0.43410 0.14600
H 	H 	0.20350 0.65400 0.40850 0.17200
H 	H 	0.14210 0.63250 0.40850 0.16700
C 	C 	0.09280 0.73040 0.40890 -0.53100
H 	H 	0.09430 0.73420 0.42970 0.10400
H 	H 	0.06540 0.70310 0.40380 0.13700
H 	H 	0.08290 0.76540 0.40030 0.14300
C 	C 	0.37190 0.81040 0.36091 0.24000
C 	C 	0.37810 0.74860 0.35181 -0.26800
H 	H 	0.38970 0.72680 0.36880 0.09400
C 	C 	0.42090 0.74180 0.32747 0.54200
C 	C 	0.35640 0.84820 0.33833 -0.36400
H 	H 	0.35430 0.88510 0.34620 0.06300
H 	H 	0.32080 0.83790 0.33060 0.01200
H 	H 	0.38360 0.84720 0.32300 -0.00200
C 	C 	0.43060 0.82570 0.37160 -0.49100
H 	H 	0.44180 0.80040 0.38670 0.14000
H 	H 	0.43040 0.86280 0.37920 0.12800
H 	H 	0.45620 0.82340 0.35560 0.11900
O 	O 	0.41300 0.06410 0.68713 -0.57900
O 	O 	0.33710 0.08400 0.66991 -0.49800
C 	C 	0.36750 0.06050 0.69050 0.83000
C 	C 	0.35050 0.03460 0.71500 -1.26000
H 	H 	0.31070 0.03390 0.71550 0.34500
H 	H 	0.36420 0.05420 0.73170 0.35800
H 	H 	0.36450 0.99730 0.71510 0.36200
La	La	0.43444 0.47269 0.45650 1.20300
La	La	0.99310 0.68180 0.46268 1.16000
La	La	0.71480 0.85630 0.49505 0.71300
La	La	0.33380 0.73160 0.25376 0.38800
La	La	0.36370 0.43940 0.51120 0.79900
La	La	0.68730 0.77670 0.52680 0.85100
O 	O 	0.28780 0.78680 0.20380 -0.50500
Pt	Pt	0.50005 0.75610 0.79475 0.35400
Pt	Pt	0.77542 0.83512 0.76719 0.35600
Pt	Pt	0.56755 0.95333 0.68644 0.34800
Pt	Pt	0.47755 0.68418 0.65192 0.36500
Pt	Pt	0.68611 0.57183 0.73039 0.30900
Pt	Pt	0.74667 0.76155 0.62386 0.33100
Ag	Ag	0.65944 0.71640 0.77011 0.46500
Ag	Ag	0.61054 0.84916 0.74882 0.45800
Ag	Ag	0.49992 0.81057 0.71107 0.46400
Ag	Ag	0.55956 0.67300 0.72578 0.45600
Ag	Ag	0.73625 0.72873 0.70742 0.46100
Ag	Ag	0.71170 0.87396 0.68731 0.47700
Ag	Ag	0.59389 0.79838 0.65417 0.46000
Ag	Ag	0.64045 0.64760 0.65420 0.47900
La	La	0.38170 0.91892 0.88721 1.50200
S 	S 	0.56270 0.69619 0.77896 -0.42200
S 	S 	0.51556 0.82466 0.76341 -0.42000
S 	S 	0.69026 0.81193 0.77712 -0.41100
S 	S 	0.77253 0.81985 0.71925 -0.38900
S 	S 	0.63689 0.92083 0.71314 -0.41900
S 	S 	0.53198 0.87316 0.67280 -0.43300
S 	S 	0.48100 0.71379 0.69765 -0.44200
S 	S 	0.56216 0.70594 0.63841 -0.47400
S 	S 	0.61926 0.60252 0.70157 -0.39900
S 	S 	0.71900 0.65356 0.74384 -0.42000
S 	S 	0.73073 0.69523 0.65653 -0.40800
S 	S 	0.69005 0.82565 0.64076 -0.40300
O 	O 	0.46260 0.60740 0.85296 -0.39900
O 	O 	0.54130 0.58850 0.86434 -0.36900
O 	O 	0.39500 0.88273 0.83871 -0.50500
O 	O 	0.37450 0.93540 0.79898 -0.33000
O 	O 	0.77350 0.86910 0.86420 -0.37100
O 	O 	0.72900 0.79840 0.87584 -0.32000
O 	O 	0.95460 0.85910 0.74766 -0.50900
O 	O 	0.95020 0.90180 0.70713 -0.60000
O 	O 	0.62740 0.11425 0.72742 -0.47500
O 	O 	0.71090 0.10110 0.72106 -0.41700
O 	O 	0.48033 0.92556 0.87986 -0.45400
O 	O 	0.54534 0.86882 0.89353 -0.32600
O 	O 	0.30152 0.63238 0.68304 -0.32800
O 	O 	0.28915 0.71000 0.70517 -0.31800
O 	O 	0.45220 0.67170 0.55482 -0.30500
O 	O 	0.53220 0.63610 0.54348 -0.35000
O 	O 	0.59140 0.40910 0.70685 -0.35500
O 	O 	0.59210 0.42500 0.66000 -0.28600
O 	O 	0.33004 0.98700 0.95807 -0.36300
O 	O 	0.31431 0.91873 0.92742 -0.49500
O 	O 	0.89042 0.64590 0.60310 -0.32500
O 	O 	0.84360 0.56620 0.60647 -0.28600
O 	O 	0.76620 0.89380 0.55273 -0.54600
O 	O 	0.75570 0.96230 0.57806 -0.56800
N 	N 	0.48960 0.70080 0.82713 -0.22300
H 	H 	0.48610 0.72020 0.84380 0.09200
H 	H 	0.45690 0.68370 0.82400 0.12000
N 	N 	0.43990 0.80390 0.81052 -0.23000
H 	H 	0.40890 0.78310 0.81230 0.11200
H 	H 	0.44970 0.81510 0.82860 0.10100
N 	N 	0.78820 0.84230 0.81017 -0.23500
H 	H 	0.82210 0.82930 0.81480 0.09300
H 	H 	0.78660 0.87830 0.81540 0.12200
N 	N 	0.84700 0.86860 0.75886 -0.23400
H 	H 	0.84680 0.90300 0.76660 0.10200
H 	H 	0.87290 0.84900 0.76860 0.09100
N 	N 	0.59930 0.02680 0.69701 -0.22000
H 	H 	0.59890 0.04860 0.68110 0.10800
H 	H 	0.57710 0.04270 0.71050 0.08500
N 	N 	0.50410 0.98720 0.66428 -0.21800
H 	H 	0.49210 0.01760 0.67380 0.08800
H 	H 	0.51600 0.99780 0.64650 0.07000
N 	N 	0.39710 0.66810 0.66044 -0.23500
H 	H 	0.37690 0.67740 0.64470 0.14300
H 	H 	0.39320 0.63130 0.66320 0.11600
N 	N 	0.46760 0.65640 0.61174 -0.22900
H 	H 	0.45660 0.62070 0.61260 0.09200
H 	H 	0.44020 0.67590 0.60320 0.12200
N 	N 	0.66270 0.49590 0.71799 -0.21900
H 	H 	0.69320 0.47540 0.71450 0.04200
H 	H 	0.64410 0.47970 0.73280 0.07500
N 	N 	0.74070 0.54210 0.75924 -0.17300
H 	H 	0.72470 0.51350 0.76870 0.02900
H 	H 	0.76990 0.52830 0.74930 -0.07200
N 	N 	0.79720 0.70704 0.60626 -0.23600
H 	H 	0.79120 0.70750 0.58690 0.10300
H 	H 	0.83210 0.71930 0.60910 0.09200
N 	N 	0.76390 0.81930 0.59520 -0.19400
H 	H 	0.80050 0.81710 0.59130 0.06200
H 	H 	0.74580 0.81060 0.57860 -0.00500
C 	C 	0.54500 0.63680 0.80125 0.34100
C 	C 	0.52970 0.65910 0.83210 -0.25700
H 	H 	0.56240 0.67450 0.84180 0.08700
C 	C 	0.50490 0.61450 0.84971 0.46400
C 	C 	0.50530 0.60120 0.78867 -0.70200
H 	H 	0.51820 0.58910 0.76990 0.18700
H 	H 	0.47080 0.62060 0.78650 0.20400
H 	H 	0.49990 0.56950 0.80110 0.21600
C 	C 	0.60420 0.60490 0.80580 -0.55600
H 	H 	0.63060 0.62990 0.81440 0.15000
H 	H 	0.61790 0.59250 0.78720 0.15000
H 	H 	0.59910 0.57350 0.81840 0.17900
C 	C 	0.47900 0.88010 0.78118 0.35600
C 	C 	0.42630 0.85360 0.79291 -0.24500
H 	H 	0.40080 0.84430 0.77700 0.08200
C 	C 	0.39870 0.88940 0.81495 0.37900
C 	C 	0.51520 0.90280 0.80469 -0.64200
H 	H 	0.52050 0.87510 0.81950 0.19900
H 	H 	0.49800 0.93490 0.81310 0.18800
H 	H 	0.55050 0.91300 0.79660 0.16600
C 	C 	0.46760 0.92060 0.75741 -0.63300
H 	H 	0.44410 0.90370 0.74300 0.16800
H 	H 	0.50190 0.93160 0.74850 0.16500
H 	H 	0.44940 0.95260 0.76540 0.18700
C 	C 	0.68830 0.82920 0.81570 0.28400
C 	C 	0.74590 0.81090 0.82557 -0.19300
H 	H 	0.75130 0.77080 0.82380 0.06600
C 	C 	0.74980 0.83200 0.85919 0.41000
C 	C 	0.67480 0.89210 0.81687 -0.55200
H 	H 	0.63710 0.89800 0.81090 0.14600
H 	H 	0.69930 0.91180 0.80400 0.16100
H 	H 	0.67970 0.90540 0.83640 0.16900
C 	C 	0.63990 0.79760 0.82879 -0.58900
H 	H 	0.60570 0.81230 0.82130 0.16800
H 	H 	0.64050 0.80150 0.84960 0.19500
H 	H 	0.64290 0.75910 0.82370 0.15800
C 	C 	0.84390 0.82710 0.71307 0.13300
C 	C 	0.86520 0.87370 0.72932 -0.17500
H 	H 	0.84770 0.90700 0.72130 0.05700
C 	C 	0.92790 0.88390 0.72911 0.40500
C 	C 	0.87390 0.77660 0.72210 -0.42100
H 	H 	0.86120 0.74560 0.71070 0.09800
H 	H 	0.86720 0.76950 0.74240 0.11700
H 	H 	0.91300 0.78170 0.71900 0.11300
C 	C 	0.65660 0.98210 0.73106 0.31500
C 	C 	0.65210 0.02540 0.70770 -0.22400
H 	H 	0.67780 0.01630 0.69190 0.09100
C 	C 	0.66410 0.08420 0.71840 0.40000
C 	C 	0.61990 0.99520 0.75498 -0.57900
H 	H 	0.62180 0.96630 0.76940 0.14400
H 	H 	0.58250 0.99820 0.74790 0.15300
H 	H 	0.63080 0.02980 0.76360 0.14000
C 	C 	0.71700 0.97030 0.74246 -0.57100
H 	H 	0.74060 0.96130 0.72630 0.15800
H 	H 	0.71610 0.93970 0.75580 0.15900
H 	H 	0.73100 0.00260 0.75220 0.16500
C 	C 	0.47630 0.89300 0.64870 0.39500
C 	C 	0.45740 0.94770 0.66091 -0.25800
H 	H 	0.44120 0.94110 0.68020 0.08500
C 	C 	0.52270 0.91510 0.89248 0.39900
C 	C 	0.49810 0.90190 0.61820 -0.65200
H 	H 	0.52660 0.92970 0.61850 0.18100
H 	H 	0.46840 0.91400 0.60580 0.19300
H 	H 	0.51310 0.86780 0.61090 0.16800
C 	C 	0.43390 0.85030 0.65016 -0.74000
H 	H 	0.44820 0.81650 0.64200 0.21200
H 	H 	0.40200 0.86190 0.63930 0.24300
H 	H 	0.42360 0.84420 0.67010 0.20300
C 	C 	0.41500 0.68720 0.71120 0.47400
C 	C 	0.37510 0.69640 0.68520 -0.24300
H 	H 	0.37330 0.73610 0.68090 0.09800
C 	C 	0.31610 0.67490 0.69138 0.37900
C 	C 	0.42130 0.63140 0.71756 -0.84100
H 	H 	0.43120 0.61160 0.70010 0.24800
H 	H 	0.38700 0.61690 0.72510 0.24600
H 	H 	0.45000 0.62680 0.73190 0.22300
C 	C 	0.39920 0.72210 0.73641 -0.77800
H 	H 	0.39610 0.76010 0.73030 0.21700
H 	H 	0.42710 0.71910 0.75130 0.21900
H 	H 	0.36420 0.70980 0.74400 0.24800
C 	C 	0.55440 0.70660 0.59915 0.60700
C 	C 	0.51960 0.65980 0.59240 -0.32300
H 	H 	0.54170 0.62680 0.59710 0.09300
C 	C 	0.50060 0.65190 0.56118 0.34600
C 	C 	0.52720 0.75360 0.58960 -0.97700
H 	H 	0.49080 0.75490 0.59800 0.29600
H 	H 	0.52430 0.75270 0.56870 0.27900
H 	H 	0.54780 0.78590 0.59540 0.25100
C 	C 	0.60760 0.69830 0.58700 -0.87300
H 	H 	0.62260 0.66380 0.59400 0.22600
H 	H 	0.63160 0.72820 0.59270 0.20700
H 	H 	0.60480 0.69710 0.56610 0.21500
C 	C 	0.58330 0.53760 0.69436 0.27900
C 	C 	0.62650 0.49550 0.69115 -0.20800
H 	H 	0.64920 0.50420 0.67400 0.09000
C 	C 	0.60150 0.43680 0.68761 0.35100
C 	C 	0.54630 0.52700 0.72261 -0.53100
H 	H 	0.51840 0.55520 0.72400 0.13600
H 	H 	0.56940 0.52810 0.73970 0.15500
H 	H 	0.52890 0.49130 0.72120 0.17300
C 	C 	0.54410 0.54070 0.66841 -0.58400
H 	H 	0.51690 0.56910 0.67180 0.16500
H 	H 	0.52580 0.50570 0.66590 0.19500
H 	H 	0.56480 0.54940 0.65110 0.16100
C 	C 	0.77780 0.63370 0.76790 0.34400
C 	C 	0.76160 0.58140 0.78099 -0.28400
H 	H 	0.72990 0.59000 0.79360 0.09000
C 	C 	0.30580 0.94010 0.94923 0.40100
C 	C 	0.82710 0.62370 0.74823 -0.50400
H 	H 	0.83860 0.65820 0.73970 0.12300
H 	H 	0.81700 0.59810 0.73310 0.06600
H 	H 	0.85710 0.60850 0.75940 0.12600
C 	C 	0.78640 0.68020 0.78739 -0.66700
H 	H 	0.79820 0.71190 0.77630 0.18300
H 	H 	0.81430 0.67090 0.80150 0.21400
H 	H 	0.75230 0.68870 0.79730 0.17600
C 	C 	0.78760 0.64870 0.64769 0.31100
C 	C 	0.79550 0.65070 0.61540 -0.19400
H 	H 	0.76430 0.63200 0.60590 0.07200
C 	C 	0.84910 0.62160 0.60703 0.30900
C 	C 	0.83700 0.66590 0.66355 -0.60100
H 	H 	0.83020 0.66360 0.68410 0.14600
H 	H 	0.84600 0.70350 0.65850 0.17300
H 	H 	0.86750 0.64210 0.65850 0.16700
C 	C 	0.76960 0.59280 0.65890 -0.53100
H 	H 	0.76580 0.59430 0.67970 0.10400
H 	H 	0.79690 0.56540 0.65380 0.13700
H 	H 	0.73460 0.58290 0.65030 0.14400
C 	C 	0.68960 0.87190 0.61091 0.24000
C 	C 	0.75140 0.87810 0.60181 -0.26800
H 	H 	0.77320 0.88970 0.61880 0.09400
C 	C 	0.75820 0.92090 0.57747 0.54200
C 	C 	0.65180 0.85640 0.58833 -0.36400
H 	H 	0.61490 0.85430 0.59620 0.06400
H 	H 	0.66210 0.82080 0.58060 0.01200
H 	H 	0.65280 0.88360 0.57300 -0.00200
C 	C 	0.67430 0.93060 0.62160 -0.49100
H 	H 	0.69960 0.94180 0.63670 0.14000
H 	H 	0.63720 0.93040 0.62920 0.12800
H 	H 	0.67660 0.95620 0.60560 0.11900
O 	O 	0.43590 0.91300 0.93713 -0.58000
O 	O 	0.41600 0.83710 0.91991 -0.49800
C 	C 	0.43950 0.86750 0.94050 0.83200
C 	C 	0.46540 0.85050 0.96500 -1.26400
H 	H 	0.46610 0.81070 0.96550 0.34600
H 	H 	0.44580 0.86420 0.98170 0.35800
H 	H 	0.50270 0.86450 0.96510 0.36400
La	La	0.02731 0.93444 0.70650 1.20100
La	La	0.81820 0.49310 0.71268 1.16000
La	La	0.64370 0.21480 0.74505 0.71300
La	La	0.76840 0.83380 0.50376 0.38800
La	La	0.06060 0.86370 0.76120 0.79800
La	La	0.72330 0.18730 0.77680 0.85100
O 	O 	0.71320 0.78780 0.45380 -0.50500
Pt	Pt	0.49995 0.24390 0.29475 0.35400
Pt	Pt	0.22458 0.16488 0.26719 0.35600
Pt	Pt	0.43245 0.04667 0.18644 0.34800
Pt	Pt	0.52245 0.31582 0.15192 0.36500
Pt	Pt	0.31389 0.42817 0.23039 0.30900
Pt	Pt	0.25333 0.23845 0.12386 0.33100
Ag	Ag	0.34056 0.28360 0.27011 0.46500
Ag	Ag	0.38946 0.15084 0.24883 0.45800
Ag	Ag	0.50008 0.18943 0.21108 0.46400
Ag	Ag	0.44044 0.32700 0.22578 0.45600
Ag	Ag	0.26375 0.27127 0.20742 0.46100
Ag	Ag	0.28830 0.12604 0.18731 0.47700
Ag	Ag	0.40611 0.20162 0.15417 0.46000
Ag	Ag	0.35955 0.35240 0.15420 0.47900
La	La	0.61830 0.08108 0.38721 1.50200
S 	S 	0.43730 0.30381 0.27896 -0.42200
S 	S 	0.48444 0.17534 0.26341 -0.42000
S 	S 	0.30974 0.18807 0.27712 -0.41100
S 	S 	0.22747 0.18015 0.21925 -0.38900
S 	S 	0.36311 0.07917 0.21314 -0.41900
S 	S 	0.46802 0.12684 0.17280 -0.43300
S 	S 	0.51900 0.28621 0.19765 -0.44200
S 	S 	0.43784 0.29406 0.13841 -0.47400
S 	S 	0.38074 0.39748 0.20157 -0.39900
S 	S 	0.28100 0.34644 0.24384 -0.42000
S 	S 	0.26927 0.30477 0.15653 -0.40800
S 	S 	0.30995 0.17435 0.14076 -0.40300
O 	O 	0.53740 0.39260 0.35296 -0.39900
O 	O 	0.45870 0.41150 0.36434 -0.36900
O 	O 	0.60500 0.11727 0.33871 -0.50500
O 	O 	0.62550 0.06460 0.29898 -0.33000
O 	O 	0.22650 0.13090 0.36420 -0.37100
O 	O 	0.27100 0.20160 0.37584 -0.32000
O 	O 	0.04540 0.14090 0.24766 -0.50900
O 	O 	0.04980 0.09820 0.20713 -0.60000
O 	O 	0.37260 0.88575 0.22742 -0.47500
O 	O 	0.28910 0.89890 0.22106 -0.41700
O 	O 	0.51967 0.07444 0.37986 -0.45400
O 	O 	0.45466 0.13118 0.39353 -0.32600
O 	O 	0.69848 0.36762 0.18304 -0.32800
O 	O 	0.71085 0.29000 0.20517 -0.31800
O 	O 	0.54780 0.32830 0.05482 -0.30500
O 	O 	0.46780 0.36390 0.04348 -0.35000
O 	O 	0.40860 0.59090 0.20685 -0.35500
O 	O 	0.40790 0.57500 0.16000 -0.28600
O 	O 	0.66996 0.01300 0.45807 -0.36300
O 	O 	0.68569 0.08127 0.42742 -0.49600
O 	O 	0.10958 0.35410 0.10310 -0.32500
O 	O 	0.15640 0.43380 0.10647 -0.28600
O 	O 	0.23380 0.10620 0.05273 -0.54600
O 	O 	0.24430 0.03770 0.07806 -0.56800
N 	N 	0.51040 0.29920 0.32713 -0.22300
H 	H 	0.51390 0.27980 0.34380 0.09200
H 	H 	0.54310 0.31630 0.32400 0.12000
N 	N 	0.56010 0.19610 0.31052 -0.23000
H 	H 	0.59110 0.21690 0.31230 0.11200
H 	H 	0.55030 0.18490 0.32860 0.10100
N 	N 	0.21180 0.15770 0.31017 -0.23500
H 	H 	0.17790 0.17070 0.31480 0.09300
H 	H 	0.21340 0.12170 0.31540 0.12200
N 	N 	0.15300 0.13140 0.25886 -0.23400
H 	H 	0.15320 0.09700 0.26660 0.10200
H 	H 	0.12710 0.15100 0.26860 0.09100
N 	N 	0.40070 0.97320 0.19701 -0.22000
H 	H 	0.40110 0.95140 0.18110 0.10800
H 	H 	0.42290 0.95730 0.21050 0.08500
N 	N 	0.49590 0.01280 0.16428 -0.21800
H 	H 	0.50790 0.98240 0.17380 0.08800
H 	H 	0.48400 0.00220 0.14650 0.07000
N 	N 	0.60290 0.33190 0.16044 -0.23500
H 	H 	0.62310 0.32260 0.14470 0.14300
H 	H 	0.60680 0.36870 0.16320 0.11600
N 	N 	0.53240 0.34360 0.11174 -0.22900
H 	H 	0.54340 0.37930 0.11260 0.09200
H 	H 	0.55980 0.32410 0.10320 0.12200
N 	N 	0.33730 0.50410 0.21799 -0.21900
H 	H 	0.30680 0.52460 0.21450 0.04200
H 	H 	0.35590 0.52030 0.23280 0.07500
N 	N 	0.25930 0.45790 0.25924 -0.17300
H 	H 	0.27530 0.48650 0.26870 0.02900
H 	H 	0.23010 0.47170 0.24930 -0.07200
N 	N 	0.20280 0.29296 0.10626 -0.23600
H 	H 	0.20880 0.29250 0.08690 0.10300
H 	H 	0.16790 0.28070 0.10910 0.09200
N 	N 	0.23610 0.18070 0.09520 -0.19400
H 	H 	0.19950 0.18290 0.09130 0.06200
H 	H 	0.25420 0.18940 0.07860 -0.00500
C 	C 	0.45500 0.36320 0.30125 0.34100
C 	C 	0.47030 0.34090 0.33210 -0.25700
H 	H 	0.43760 0.32550 0.34180 0.08700
C 	C 	0.49510 0.38550 0.34971 0.46400
C 	C 	0.49470 0.39880 0.28867 -0.70200
H 	H 	0.48180 0.41090 0.26990 0.18700
H 	H 	0.52920 0.37940 0.28650 0.20400
H 	H 	0.50010 0.43050 0.30110 0.21600
C 	C 	0.39580 0.39510 0.30580 -0.55600
H 	H 	0.36940 0.37010 0.31440 0.15000
H 	H 	0.38210 0.40750 0.28720 0.15000
H 	H 	0.40090 0.42650 0.31840 0.17900
C 	C 	0.52100 0.11990 0.28118 0.35600
C 	C 	0.57370 0.14640 0.29291 -0.24500
H 	H 	0.59920 0.15570 0.27700 0.08200
C 	C 	0.60130 0.11060 0.31495 0.37900
C 	C 	0.48480 0.09720 0.30469 -0.64200
H 	H 	0.47950 0.12490 0.31950 0.19900
H 	H 	0.50200 0.06510 0.31310 0.18800
H 	H 	0.44950 0.08700 0.29660 0.16600
C 	C 	0.53240 0.07940 0.25741 -0.63300
H 	H 	0.55590 0.09630 0.24300 0.16800
H 	H 	0.49810 0.06840 0.24850 0.16500
H 	H 	0.55060 0.04740 0.26540 0.18700
C 	C 	0.31170 0.17080 0.31570 0.28400
C 	C 	0.25410 0.18910 0.32557 -0.19300
H 	H 	0.24870 0.22920 0.32380 0.06600
C 	C 	0.25020 0.16800 0.35919 0.41000
C 	C 	0.32520 0.10790 0.31687 -0.55200
H 	H 	0.36290 0.10200 0.31090 0.14600
H 	H 	0.30070 0.08820 0.30400 0.16100
H 	H 	0.32030 0.09460 0.33640 0.16900
C 	C 	0.36010 0.20240 0.32879 -0.58900
H 	H 	0.39430 0.18770 0.32130 0.16800
H 	H 	0.35950 0.19850 0.34960 0.19500
H 	H 	0.35710 0.24090 0.32370 0.15800
C 	C 	0.15610 0.17290 0.21307 0.13300
C 	C 	0.13480 0.12630 0.22932 -0.17500
H 	H 	0.15230 0.09300 0.22130 0.05700
C 	C 	0.07210 0.11610 0.22911 0.40500
C 	C 	0.12610 0.22340 0.22210 -0.42100
H 	H 	0.13880 0.25440 0.21070 0.09800
H 	H 	0.13280 0.23050 0.24240 0.11700
H 	H 	0.08700 0.21830 0.21900 0.11300
C 	C 	0.34340 0.01790 0.23106 0.31500
C 	C 	0.34790 0.97460 0.20770 -0.22400
H 	H 	0.32220 0.98370 0.19190 0.09100
C 	C 	0.33590 0.91580 0.21840 0.40000
C 	C 	0.38010 0.00480 0.25498 -0.57900
H 	H 	0.37820 0.03370 0.26940 0.14400
H 	H 	0.41750 0.00180 0.24790 0.15200
H 	H 	0.36920 0.97020 0.26360 0.14000
C 	C 	0.28300 0.02970 0.24246 -0.57100
H 	H 	0.25940 0.03870 0.22630 0.15800
H 	H 	0.28390 0.06030 0.25580 0.15900
H 	H 	0.26900 0.99740 0.25220 0.16500
C 	C 	0.52370 0.10700 0.14870 0.39500
C 	C 	0.54260 0.05230 0.16091 -0.25800
H 	H 	0.55880 0.05890 0.18020 0.08500
C 	C 	0.47730 0.08490 0.39248 0.39900
C 	C 	0.50190 0.09810 0.11820 -0.65200
H 	H 	0.47340 0.07030 0.11850 0.18100
H 	H 	0.53160 0.08600 0.10580 0.19300
H 	H 	0.48690 0.13220 0.11090 0.16800
C 	C 	0.56610 0.14970 0.15016 -0.74000
H 	H 	0.55180 0.18350 0.14200 0.21200
H 	H 	0.59800 0.13810 0.13930 0.24300
H 	H 	0.57640 0.15580 0.17010 0.20300
C 	C 	0.58500 0.31280 0.21120 0.47400
C 	C 	0.62490 0.30360 0.18520 -0.24300
H 	H 	0.62670 0.26390 0.18090 0.09800
C 	C 	0.68390 0.32510 0.19138 0.37900
C 	C 	0.57870 0.36860 0.21756 -0.84100
H 	H 	0.56880 0.38840 0.20010 0.24800
H 	H 	0.61300 0.38310 0.22510 0.24600
H 	H 	0.55000 0.37320 0.23190 0.22300
C 	C 	0.60080 0.27790 0.23641 -0.77800
H 	H 	0.60390 0.23990 0.23030 0.21700
H 	H 	0.57290 0.28090 0.25130 0.21900
H 	H 	0.63580 0.29020 0.24400 0.24800
C 	C 	0.44560 0.29340 0.09915 0.60700
C 	C 	0.48040 0.34020 0.09240 -0.32300
H 	H 	0.45830 0.37320 0.09710 0.09300
C 	C 	0.49940 0.34810 0.06118 0.34600
C 	C 	0.47280 0.24640 0.08960 -0.97700
H 	H 	0.50920 0.24510 0.09800 0.29600
H 	H 	0.47570 0.24730 0.06870 0.27900
H 	H 	0.45220 0.21410 0.09540 0.25100
C 	C 	0.39240 0.30170 0.08700 -0.87300
H 	H 	0.37740 0.33620 0.09400 0.22600
H 	H 	0.36840 0.27180 0.09270 0.20700
H 	H 	0.39520 0.30290 0.06610 0.21500
C 	C 	0.41670 0.46240 0.19436 0.27900
C 	C 	0.37350 0.50450 0.19115 -0.20800
H 	H 	0.35080 0.49580 0.17400 0.09000
C 	C 	0.39850 0.56320 0.18761 0.35100
C 	C 	0.45370 0.47300 0.22261 -0.53100
H 	H 	0.48160 0.44480 0.22400 0.13600
H 	H 	0.43060 0.47190 0.23970 0.15500
H 	H 	0.47110 0.50870 0.22120 0.17300
C 	C 	0.45590 0.45930 0.16841 -0.58400
H 	H 	0.48310 0.43090 0.17180 0.16500
H 	H 	0.47420 0.49430 0.16590 0.19500
H 	H 	0.43520 0.45060 0.15110 0.16100
C 	C 	0.22220 0.36630 0.26790 0.34400
C 	C 	0.23840 0.41860 0.28099 -0.28400
H 	H 	0.27010 0.41000 0.29360 0.09000
C 	C 	0.69420 0.05990 0.44923 0.40200
C 	C 	0.17290 0.37630 0.24823 -0.50400
H 	H 	0.16140 0.34180 0.23970 0.12300
H 	H 	0.18300 0.40190 0.23310 0.06600
H 	H 	0.14290 0.39150 0.25940 0.12600
C 	C 	0.21360 0.31980 0.28739 -0.66700
H 	H 	0.20180 0.28810 0.27630 0.18300
H 	H 	0.18570 0.32910 0.30150 0.21400
H 	H 	0.24770 0.31130 0.29730 0.17600
C 	C 	0.21240 0.35130 0.14769 0.31100
C 	C 	0.20450 0.34930 0.11540 -0.19400
H 	H 	0.23570 0.36800 0.10590 0.07200
C 	C 	0.15090 0.37840 0.10703 0.30900
C 	C 	0.16300 0.33410 0.16355 -0.60100
H 	H 	0.16980 0.33640 0.18410 0.14600
H 	H 	0.15400 0.29650 0.15850 0.17300
H 	H 	0.13250 0.35790 0.15850 0.16700
C 	C 	0.23040 0.40720 0.15890 -0.53100
H 	H 	0.23420 0.40570 0.17970 0.10400
H 	H 	0.20310 0.43460 0.15380 0.13700
H 	H 	0.26540 0.41710 0.15030 0.14400
C 	C 	0.31040 0.12810 0.11091 0.24100
C 	C 	0.24860 0.12190 0.10181 -0.26800
H 	H 	0.22680 0.11030 0.11880 0.09400
C 	C 	0.24180 0.07910 0.07747 0.54200
C 	C 	0.34820 0.14360 0.08833 -0.36400
H 	H 	0.38510 0.14570 0.09620 0.06400
H 	H 	0.33790 0.17920 0.08060 0.01200
H 	H 	0.34720 0.11640 0.07300 -0.00200
C 	C 	0.32570 0.06940 0.12160 -0.49100
H 	H 	0.30040 0.05820 0.13670 0.14000
H 	H 	0.36280 0.06960 0.12920 0.12800
H 	H 	0.32340 0.04380 0.10560 0.11900
O 	O 	0.56410 0.08700 0.43713 -0.58000
O 	O 	0.58400 0.16290 0.41991 -0.49800
C 	C 	0.56050 0.13250 0.44050 0.83200
C 	C 	0.53460 0.14950 0.46500 -1.26400
H 	H 	0.53390 0.18930 0.46550 0.34600
H 	H 	0.55420 0.13580 0.48170 0.35900
H 	H 	0.49730 0.13550 0.46510 0.36400
La	La	0.97269 0.06556 0.20650 1.20100
La	La	0.18180 0.50690 0.21268 1.16000
La	La	0.35630 0.78520 0.24505 0.71300
La	La	0.23160 0.16620 0.00376 0.38900
La	La	0.93940 0.13630 0.26120 0.79800
La	La	0.27670 0.81270 0.27680 0.85100
O 	O 	0.28680 0.21220 0.95380 -0.50500
O 	O 	0.95940 0.04060 0.25000 -0.86900
O 	O 	0.04060 0.95940 0.75000 -0.86900
O 	O 	0.45940 0.45940 0.50000 -0.86800
O 	O 	0.54060 0.54060 -0.00000 -0.86800
