data_crystal

_cell_length_a 24.84460
_cell_length_b 24.84460
_cell_length_c 47.24090
_cell_angle_alpha 90.00000
_cell_angle_beta  90.00000
_cell_angle_gamma 90.00000

_symmetry_space_group_name_	'P 1'
_symmetry_space_group_name_H-M	'P 1'

loop_
_symmetry_equiv_pos_as_xyz
  x,y,z

loop_
_atom_site_label
_atom_site_type_symbol
_atom_site_fract_x
_atom_site_fract_y
_atom_site_fract_z
_atom_site_charge
Ag	Ag	0.71720 0.65550 0.22789 0.49700
Ag	Ag	0.85082 0.60959 0.24873 0.50700
Ag	Ag	0.81454 0.49703 0.28683 0.49300
Ag	Ag	0.67537 0.55643 0.27239 0.50200
Ag	Ag	0.72863 0.73580 0.28925 0.51000
Ag	Ag	0.87506 0.71523 0.31008 0.49300
Ag	Ag	0.80243 0.59222 0.34406 0.51200
Ag	Ag	0.65343 0.63979 0.34365 0.49400
Pd	Pd	0.75874 0.49601 0.20444 0.72200
Pd	Pd	0.83499 0.77235 0.22866 0.71600
Pd	Pd	0.95508 0.57007 0.31237 0.71500
Pd	Pd	0.68848 0.47579 0.34586 0.72700
Pd	Pd	0.57371 0.68346 0.26938 0.70700
Pd	Pd	0.76483 0.74709 0.37290 0.71000
Br	Br	0.76445 0.62435 0.28905 -0.63600
La	La	0.92337 0.37738 0.11276 1.50900
S 	S 	0.69884 0.55792 0.21961 -0.49000
S 	S 	0.82666 0.51457 0.23504 -0.46200
S 	S 	0.81102 0.68665 0.22005 -0.47900
S 	S 	0.81984 0.77179 0.27609 -0.47800
S 	S 	0.91983 0.63660 0.28442 -0.45600
S 	S 	0.87538 0.53139 0.32450 -0.46800
S 	S 	0.71752 0.48007 0.30061 -0.45700
S 	S 	0.71050 0.56002 0.35898 -0.46000
S 	S 	0.60691 0.61563 0.29694 -0.45500
S 	S 	0.65390 0.71516 0.25406 -0.50900
S 	S 	0.69945 0.73043 0.34033 -0.45400
S 	S 	0.82713 0.68834 0.35653 -0.46800
O 	O 	0.60915 0.45147 0.14951 -0.31500
O 	O 	0.59377 0.53560 0.13321 -0.29900
O 	O 	0.88725 0.39273 0.16169 -0.45900
O 	O 	0.93570 0.37410 0.19827 -0.34900
O 	O 	0.87497 0.76248 0.13081 -0.37800
O 	O 	0.79790 0.72280 0.12279 -0.30000
O 	O 	0.85910 0.95630 0.24383 -0.34800
O 	O 	0.90230 0.94200 0.28835 -0.45600
O 	O 	0.11343 0.63900 0.27443 -0.33100
O 	O 	0.08910 0.72040 0.27661 -0.32200
O 	O 	0.93372 0.47495 0.11867 -0.50500
O 	O 	0.87236 0.53607 0.10655 -0.30700
O 	O 	0.63752 0.30215 0.31473 -0.30200
O 	O 	0.71346 0.29044 0.29289 -0.29800
O 	O 	0.67186 0.45215 0.44223 -0.35600
O 	O 	0.63590 0.53071 0.45142 -0.29400
O 	O 	0.41544 0.58910 0.29581 -0.35000
O 	O 	0.43810 0.58580 0.34010 -0.32100
O 	O 	0.98894 0.32184 0.04124 -0.31400
O 	O 	0.92279 0.31006 0.07270 -0.45500
O 	O 	0.64279 0.88188 0.39687 -0.28700
O 	O 	0.56780 0.83844 0.38992 -0.32200
O 	O 	0.89461 0.76500 0.44436 -0.47600
O 	O 	0.96566 0.75589 0.41880 -0.37300
N 	N 	0.70476 0.48150 0.17427 -0.27800
H 	H 	0.72290 0.47550 0.15760 0.09500
H 	H 	0.68680 0.45020 0.17880 0.11500
N 	N 	0.80879 0.43568 0.18961 -0.26200
H 	H 	0.78940 0.40420 0.18890 0.10400
H 	H 	0.81870 0.44410 0.17140 0.09700
N 	N 	0.84110 0.78008 0.18453 -0.26500
H 	H 	0.82560 0.81200 0.17900 0.08700
H 	H 	0.87690 0.78120 0.17950 0.11000
N 	N 	0.86780 0.84940 0.23499 -0.27300
H 	H 	0.90080 0.85160 0.22630 0.11200
H 	H 	0.84560 0.87490 0.22700 0.09800
N 	N 	0.02647 0.60522 0.30435 -0.27100
H 	H 	0.04470 0.60890 0.32120 0.10900
H 	H 	0.04630 0.58250 0.29300 0.09400
N 	N 	0.98829 0.50938 0.33561 -0.25700
H 	H 	0.02130 0.50100 0.32800 0.07700
H 	H 	0.99400 0.52170 0.35370 0.07300
N 	N 	0.67230 0.39723 0.33746 -0.27600
H 	H 	0.68050 0.37720 0.35330 0.13500
H 	H 	0.63590 0.39380 0.33430 0.11200
N 	N 	0.66300 0.46735 0.38764 -0.26600
H 	H 	0.62910 0.45230 0.38770 0.09200
H 	H 	0.68580 0.44390 0.39680 0.11500
N 	N 	0.49744 0.65968 0.28462 -0.25400
H 	H 	0.47860 0.68980 0.29000 0.08300
H 	H 	0.47870 0.64350 0.27010 0.06100
N 	N 	0.53962 0.73893 0.24009 -0.24100
H 	H 	0.51120 0.72290 0.23090 0.05600
H 	H 	0.52660 0.76830 0.24980 0.07300
N 	N 	0.70986 0.79601 0.39037 -0.26300
H 	H 	0.70930 0.78890 0.40950 0.05200
H 	H 	0.72220 0.83070 0.38830 0.07800
N 	N 	0.82013 0.76826 0.40166 -0.25600
H 	H 	0.82170 0.80520 0.40240 0.05700
H 	H 	0.80890 0.75640 0.41910 0.02600
C 	C 	0.63820 0.54220 0.19667 0.44600
C 	C 	0.66390 0.52480 0.16932 -0.23800
H 	H 	0.68120 0.55640 0.15990 0.08300
C 	C 	0.61670 0.49880 0.14822 0.33400
C 	C 	0.60430 0.50400 0.20967 -0.83600
H 	H 	0.58920 0.51930 0.22710 0.22400
H 	H 	0.62510 0.47170 0.21430 0.23900
H 	H 	0.57500 0.49460 0.19670 0.25900
C 	C 	0.60790 0.59540 0.19044 -0.70800
H 	H 	0.63250 0.62110 0.18150 0.19800
H 	H 	0.59420 0.61050 0.20820 0.18500
H 	H 	0.57770 0.58810 0.17760 0.23100
C 	C 	0.88210 0.47720 0.21646 0.31700
C 	C 	0.85774 0.42604 0.20616 -0.26200
H 	H 	0.84820 0.40340 0.22290 0.09100
C 	C 	0.89550 0.39480 0.18759 0.41500
C 	C 	0.89870 0.51310 0.19060 -0.59500
H 	H 	0.91480 0.54670 0.19750 0.15800
H 	H 	0.86680 0.52140 0.17920 0.17000
H 	H 	0.92500 0.49380 0.17900 0.19400
C 	C 	0.92630 0.47130 0.23958 -0.60400
H 	H 	0.94030 0.50700 0.24450 0.15900
H 	H 	0.95570 0.44890 0.23230 0.19800
H 	H 	0.91080 0.45440 0.25640 0.16500
C 	C 	0.83100 0.68100 0.18156 0.40300
C 	C 	0.81440 0.73460 0.16920 -0.26000
H 	H 	0.77440 0.73870 0.17010 0.08600
C 	C 	0.83520 0.74380 0.13736 0.41200
C 	C 	0.89265 0.67140 0.18016 -0.66800
H 	H 	0.91140 0.70190 0.18890 0.19200
H 	H 	0.90380 0.66800 0.16030 0.20600
H 	H 	0.90170 0.63830 0.19040 0.17700
C 	C 	0.80150 0.63650 0.16932 -0.75600
H 	H 	0.81400 0.60260 0.17760 0.20700
H 	H 	0.80740 0.63580 0.14880 0.24900
H 	H 	0.76300 0.64100 0.17320 0.20800
C 	C 	0.82460 0.84500 0.28246 0.40400
C 	C 	0.87390 0.86060 0.26621 -0.22600
H 	H 	0.90700 0.84320 0.27410 0.07600
C 	C 	0.87890 0.92590 0.26606 0.25000
C 	C 	0.76850 0.87110 0.27204 -0.61500
H 	H 	0.76490 0.86640 0.25150 0.16500
H 	H 	0.76810 0.90950 0.27660 0.18900
H 	H 	0.73850 0.85310 0.28160 0.15400
C 	C 	0.82900 0.85280 0.31160 -0.79300
H 	H 	0.79560 0.84130 0.32080 0.21500
H 	H 	0.83530 0.89100 0.31550 0.25900
H 	H 	0.85920 0.83150 0.31890 0.21900
C 	C 	0.98270 0.65880 0.26672 0.34800
C 	C 	0.02378 0.65920 0.29030 -0.26500
H 	H 	0.01380 0.68710 0.30460 0.09700
C 	C 	0.07700 0.67220 0.27813 0.37900
C 	C 	0.99410 0.61780 0.24404 -0.63400
H 	H 	0.00270 0.58320 0.25290 0.17700
H 	H 	0.02470 0.62980 0.23260 0.19200
H 	H 	0.96230 0.61380 0.23190 0.16300
C 	C 	0.96760 0.71250 0.25249 -0.63200
H 	H 	0.95820 0.73900 0.26700 0.17600
H 	H 	0.93680 0.70700 0.23990 0.16600
H 	H 	0.99830 0.72570 0.24150 0.20100
C 	C 	0.89980 0.47600 0.34849 0.34600
C 	C 	0.95661 0.46070 0.33713 -0.24600
H 	H 	0.95320 0.44470 0.31780 0.08300
C 	C 	0.92030 0.51150 0.10712 0.44500
C 	C 	0.90270 0.49680 0.37928 -0.61400
H 	H 	0.86640 0.50580 0.38590 0.16500
H 	H 	0.92540 0.52900 0.38000 0.17200
H 	H 	0.91820 0.46880 0.39150 0.18800
C 	C 	0.85550 0.43540 0.34716 -0.66500
H 	H 	0.82270 0.45070 0.35540 0.18800
H 	H 	0.86600 0.40320 0.35780 0.22200
H 	H 	0.84880 0.42560 0.32740 0.18500
C 	C 	0.69480 0.41120 0.28722 0.35200
C 	C 	0.70230 0.37360 0.31232 -0.25700
H 	H 	0.74150 0.37140 0.31700 0.10500
C 	C 	0.68220 0.31890 0.30561 0.37600
C 	C 	0.63246 0.41850 0.27989 -0.59900
H 	H 	0.61270 0.42770 0.29720 0.17000
H 	H 	0.61830 0.38480 0.27210 0.17800
H 	H 	0.62820 0.44740 0.26600 0.15100
C 	C 	0.72450 0.39800 0.26160 -0.70500
H 	H 	0.71600 0.42430 0.24680 0.18500
H 	H 	0.71450 0.36190 0.25520 0.23800
H 	H 	0.76320 0.39900 0.26560 0.19900
C 	C 	0.70850 0.55190 0.39841 0.33800
C 	C 	0.66140 0.51670 0.40296 -0.22100
H 	H 	0.62770 0.53680 0.39810 0.06900
C 	C 	0.65660 0.49210 0.43467 0.35800
C 	C 	0.76250 0.52100 0.40787 -0.58800
H 	H 	0.76240 0.48460 0.39990 0.17300
H 	H 	0.76390 0.51880 0.42860 0.18000
H 	H 	0.79400 0.54070 0.40090 0.14800
C 	C 	0.70420 0.60559 0.41046 -0.66200
H 	H 	0.73720 0.62580 0.40650 0.16800
H 	H 	0.69890 0.60280 0.43100 0.20600
H 	H 	0.67340 0.62430 0.40200 0.17200
C 	C 	0.54190 0.57850 0.30341 0.33200
C 	C 	0.50040 0.62010 0.31009 -0.28700
H 	H 	0.51290 0.64080 0.32700 0.10600
C 	C 	0.44770 0.59880 0.31619 0.40400
C 	C 	0.52890 0.54340 0.27777 -0.62900
H 	H 	0.55760 0.51700 0.27500 0.16300
H 	H 	0.52590 0.56620 0.26090 0.17000
H 	H 	0.49470 0.52470 0.28100 0.19800
C 	C 	0.55140 0.54280 0.33043 -0.60000
H 	H 	0.57790 0.51470 0.32610 0.15700
H 	H 	0.51740 0.52600 0.33610 0.20400
H 	H 	0.56490 0.56530 0.34590 0.16300
C 	C 	0.63273 0.77460 0.23286 0.52700
C 	C 	0.57980 0.75690 0.21911 -0.31400
H 	H 	0.58820 0.72510 0.20690 0.09000
C 	C 	0.94610 0.29850 0.04958 0.38400
C 	C 	0.62530 0.82200 0.25126 -0.86200
H 	H 	0.59660 0.81480 0.26490 0.25000
H 	H 	0.61560 0.85320 0.23970 0.26800
H 	H 	0.65890 0.82950 0.26140 0.23400
C 	C 	0.67390 0.78090 0.21169 -0.87300
H 	H 	0.67660 0.74780 0.20050 0.23800
H 	H 	0.70850 0.78800 0.22090 0.23100
H 	H 	0.66470 0.81110 0.19930 0.27600
C 	C 	0.65487 0.78730 0.34878 0.27900
C 	C 	0.65250 0.79500 0.38020 -0.22700
H 	H 	0.63680 0.76090 0.38790 0.07300
C 	C 	0.61550 0.83820 0.38930 0.34900
C 	C 	0.67750 0.84090 0.33454 -0.54100
H 	H 	0.67890 0.83620 0.31400 0.13800
H 	H 	0.71370 0.84820 0.34170 0.14600
H 	H 	0.65370 0.87110 0.33920 0.17100
C 	C 	0.59830 0.77390 0.33577 -0.57000
H 	H 	0.60170 0.77000 0.31520 0.14900
H 	H 	0.57310 0.80320 0.34010 0.19300
H 	H 	0.58480 0.74030 0.34390 0.16700
C 	C 	0.87510 0.68845 0.38650 0.35200
C 	C 	0.88030 0.74540 0.39597 -0.28300
H 	H 	0.89440 0.76580 0.37930 0.08900
C 	C 	0.91950 0.75850 0.42118 0.45200
C 	C 	0.85630 0.65450 0.40908 -0.67200
H 	H 	0.85490 0.61710 0.40250 0.17800
H 	H 	0.82020 0.66610 0.41490 0.16900
H 	H 	0.88100 0.65730 0.42520 0.19600
C 	C 	0.93560 0.67300 0.37461 -0.59100
H 	H 	0.94550 0.69770 0.35930 0.16800
H 	H 	0.93540 0.63600 0.36740 0.15400
H 	H 	0.96180 0.67600 0.39000 0.20500
O 	O 	0.91877 0.42999 0.06318 -0.39500
O 	O 	0.84090 0.40910 0.08476 -0.39300
C 	C 	0.86919 0.43340 0.06382 0.37800
C 	C 	0.83650 0.45370 0.03574 -0.60100
H 	H 	0.79770 0.45350 0.03970 0.19400
H 	H 	0.84420 0.42940 0.01990 0.17800
H 	H 	0.84790 0.49020 0.03080 0.19300
La	La	0.84061 0.77451 0.48970 0.96300
La	La	0.89085 0.04752 0.27127 0.93700
La	La	0.93322 0.03006 0.29173 0.79000
O 	O 	0.94610 0.12800 0.26850 -0.60600
O 	O 	0.85400 0.01030 0.32674 -0.34100
Ag	Ag	0.28280 0.34450 0.72789 0.49800
Ag	Ag	0.14918 0.39041 0.74873 0.50800
Ag	Ag	0.18546 0.50297 0.78683 0.49400
Ag	Ag	0.32463 0.44357 0.77239 0.50300
Ag	Ag	0.27137 0.26420 0.78925 0.51000
Ag	Ag	0.12494 0.28477 0.81008 0.49300
Ag	Ag	0.19757 0.40778 0.84406 0.51200
Ag	Ag	0.34657 0.36021 0.84365 0.49400
Pd	Pd	0.24126 0.50399 0.70444 0.72200
Pd	Pd	0.16501 0.22765 0.72866 0.71600
Pd	Pd	0.04492 0.42993 0.81237 0.71500
Pd	Pd	0.31152 0.52421 0.84586 0.72700
Pd	Pd	0.42629 0.31654 0.76938 0.70700
Pd	Pd	0.23517 0.25291 0.87290 0.71000
Br	Br	0.23555 0.37565 0.78905 -0.63600
La	La	0.07663 0.62262 0.61276 1.50900
S 	S 	0.30116 0.44208 0.71961 -0.49000
S 	S 	0.17334 0.48543 0.73504 -0.46200
S 	S 	0.18898 0.31335 0.72005 -0.47900
S 	S 	0.18016 0.22821 0.77609 -0.47800
S 	S 	0.08017 0.36340 0.78442 -0.45600
S 	S 	0.12462 0.46861 0.82450 -0.46800
S 	S 	0.28248 0.51993 0.80061 -0.45700
S 	S 	0.28950 0.43998 0.85898 -0.46000
S 	S 	0.39309 0.38437 0.79694 -0.45500
S 	S 	0.34610 0.28484 0.75406 -0.50900
S 	S 	0.30055 0.26957 0.84033 -0.45400
S 	S 	0.17287 0.31166 0.85653 -0.46800
O 	O 	0.39085 0.54853 0.64951 -0.31500
O 	O 	0.40623 0.46440 0.63321 -0.29900
O 	O 	0.11275 0.60727 0.66169 -0.45900
O 	O 	0.06430 0.62590 0.69827 -0.34900
O 	O 	0.12503 0.23752 0.63081 -0.37800
O 	O 	0.20210 0.27720 0.62279 -0.30000
O 	O 	0.14090 0.04370 0.74383 -0.34800
O 	O 	0.09770 0.05800 0.78835 -0.45600
O 	O 	0.88657 0.36100 0.77443 -0.33100
O 	O 	0.91090 0.27960 0.77661 -0.32200
O 	O 	0.06628 0.52505 0.61867 -0.50500
O 	O 	0.12764 0.46393 0.60655 -0.30700
O 	O 	0.36248 0.69785 0.81473 -0.30200
O 	O 	0.28654 0.70956 0.79289 -0.29800
O 	O 	0.32814 0.54785 0.94223 -0.35600
O 	O 	0.36410 0.46929 0.95142 -0.29400
O 	O 	0.58456 0.41090 0.79581 -0.35000
O 	O 	0.56190 0.41420 0.84010 -0.32100
O 	O 	0.01106 0.67816 0.54124 -0.31400
O 	O 	0.07721 0.68994 0.57270 -0.45500
O 	O 	0.35721 0.11812 0.89687 -0.28700
O 	O 	0.43220 0.16156 0.88992 -0.32200
O 	O 	0.10539 0.23500 0.94436 -0.47600
O 	O 	0.03434 0.24411 0.91880 -0.37300
N 	N 	0.29524 0.51850 0.67427 -0.27800
H 	H 	0.27710 0.52450 0.65760 0.09500
H 	H 	0.31320 0.54980 0.67880 0.11500
N 	N 	0.19121 0.56432 0.68961 -0.26200
H 	H 	0.21060 0.59580 0.68890 0.10400
H 	H 	0.18130 0.55590 0.67140 0.09700
N 	N 	0.15890 0.21992 0.68453 -0.26500
H 	H 	0.17440 0.18800 0.67900 0.08700
H 	H 	0.12310 0.21880 0.67950 0.11000
N 	N 	0.13220 0.15060 0.73499 -0.27300
H 	H 	0.09920 0.14840 0.72630 0.11200
H 	H 	0.15440 0.12510 0.72700 0.09800
N 	N 	0.97353 0.39478 0.80435 -0.27100
H 	H 	0.95530 0.39110 0.82120 0.10900
H 	H 	0.95370 0.41750 0.79300 0.09400
N 	N 	0.01171 0.49062 0.83561 -0.25700
H 	H 	0.97870 0.49900 0.82800 0.07700
H 	H 	0.00600 0.47830 0.85370 0.07300
N 	N 	0.32770 0.60277 0.83746 -0.27600
H 	H 	0.31950 0.62280 0.85330 0.13500
H 	H 	0.36410 0.60620 0.83430 0.11200
N 	N 	0.33700 0.53265 0.88764 -0.26600
H 	H 	0.37090 0.54770 0.88770 0.09200
H 	H 	0.31420 0.55610 0.89680 0.11500
N 	N 	0.50256 0.34032 0.78462 -0.25400
H 	H 	0.52140 0.31020 0.79000 0.08300
H 	H 	0.52130 0.35650 0.77010 0.06100
N 	N 	0.46038 0.26107 0.74009 -0.24100
H 	H 	0.48880 0.27710 0.73090 0.05600
H 	H 	0.47340 0.23170 0.74980 0.07300
N 	N 	0.29014 0.20399 0.89037 -0.26300
H 	H 	0.29070 0.21110 0.90950 0.05200
H 	H 	0.27780 0.16930 0.88830 0.07800
N 	N 	0.17987 0.23174 0.90166 -0.25600
H 	H 	0.17830 0.19480 0.90240 0.05700
H 	H 	0.19110 0.24360 0.91910 0.02600
C 	C 	0.36180 0.45780 0.69667 0.44600
C 	C 	0.33610 0.47520 0.66932 -0.23800
H 	H 	0.31880 0.44360 0.65990 0.08300
C 	C 	0.38330 0.50120 0.64822 0.33400
C 	C 	0.39570 0.49600 0.70967 -0.83600
H 	H 	0.41080 0.48070 0.72710 0.22400
H 	H 	0.37490 0.52830 0.71430 0.23900
H 	H 	0.42500 0.50540 0.69670 0.25900
C 	C 	0.39210 0.40460 0.69044 -0.70800
H 	H 	0.36750 0.37890 0.68150 0.19800
H 	H 	0.40580 0.38950 0.70820 0.18500
H 	H 	0.42230 0.41190 0.67760 0.23100
C 	C 	0.11790 0.52280 0.71646 0.31700
C 	C 	0.14226 0.57396 0.70616 -0.26200
H 	H 	0.15180 0.59660 0.72290 0.09100
C 	C 	0.10450 0.60520 0.68759 0.41500
C 	C 	0.10130 0.48690 0.69060 -0.59500
H 	H 	0.08520 0.45330 0.69750 0.15800
H 	H 	0.13320 0.47860 0.67920 0.17000
H 	H 	0.07500 0.50620 0.67900 0.19400
C 	C 	0.07370 0.52870 0.73958 -0.60400
H 	H 	0.05970 0.49300 0.74450 0.15900
H 	H 	0.04430 0.55110 0.73230 0.19800
H 	H 	0.08920 0.54560 0.75640 0.16500
C 	C 	0.16900 0.31900 0.68156 0.40300
C 	C 	0.18560 0.26540 0.66920 -0.26000
H 	H 	0.22560 0.26130 0.67010 0.08600
C 	C 	0.16480 0.25620 0.63736 0.41200
C 	C 	0.10735 0.32860 0.68016 -0.66800
H 	H 	0.08860 0.29810 0.68890 0.19200
H 	H 	0.09620 0.33200 0.66030 0.20600
H 	H 	0.09830 0.36170 0.69040 0.17700
C 	C 	0.19850 0.36350 0.66932 -0.75600
H 	H 	0.18600 0.39740 0.67760 0.20700
H 	H 	0.19260 0.36420 0.64880 0.24900
H 	H 	0.23700 0.35900 0.67320 0.20800
C 	C 	0.17540 0.15500 0.78246 0.40400
C 	C 	0.12610 0.13940 0.76621 -0.22600
H 	H 	0.09300 0.15680 0.77410 0.07600
C 	C 	0.12110 0.07410 0.76606 0.25000
C 	C 	0.23150 0.12890 0.77204 -0.61500
H 	H 	0.23510 0.13360 0.75150 0.16500
H 	H 	0.23190 0.09050 0.77660 0.18900
H 	H 	0.26150 0.14690 0.78160 0.15400
C 	C 	0.17100 0.14720 0.81160 -0.79300
H 	H 	0.20440 0.15870 0.82080 0.21500
H 	H 	0.16470 0.10900 0.81550 0.25900
H 	H 	0.14080 0.16850 0.81890 0.21900
C 	C 	0.01730 0.34120 0.76672 0.34800
C 	C 	0.97622 0.34080 0.79030 -0.26500
H 	H 	0.98620 0.31290 0.80460 0.09700
C 	C 	0.92300 0.32780 0.77813 0.37900
C 	C 	0.00590 0.38220 0.74404 -0.63400
H 	H 	0.99730 0.41680 0.75290 0.17700
H 	H 	0.97530 0.37020 0.73260 0.19200
H 	H 	0.03770 0.38620 0.73190 0.16300
C 	C 	0.03240 0.28750 0.75249 -0.63200
H 	H 	0.04180 0.26100 0.76700 0.17600
H 	H 	0.06320 0.29300 0.73990 0.16600
H 	H 	0.00170 0.27430 0.74150 0.20100
C 	C 	0.10020 0.52400 0.84849 0.34600
C 	C 	0.04339 0.53930 0.83713 -0.24600
H 	H 	0.04680 0.55530 0.81780 0.08300
C 	C 	0.07970 0.48850 0.60712 0.44500
C 	C 	0.09730 0.50320 0.87928 -0.61400
H 	H 	0.13360 0.49420 0.88590 0.16500
H 	H 	0.07460 0.47100 0.88000 0.17200
H 	H 	0.08180 0.53120 0.89150 0.18800
C 	C 	0.14450 0.56460 0.84716 -0.66500
H 	H 	0.17730 0.54930 0.85540 0.18800
H 	H 	0.13400 0.59680 0.85780 0.22200
H 	H 	0.15120 0.57440 0.82740 0.18500
C 	C 	0.30520 0.58880 0.78722 0.35200
C 	C 	0.29770 0.62640 0.81232 -0.25700
H 	H 	0.25850 0.62860 0.81700 0.10500
C 	C 	0.31780 0.68110 0.80561 0.37600
C 	C 	0.36754 0.58150 0.77989 -0.59900
H 	H 	0.38730 0.57230 0.79720 0.17000
H 	H 	0.38170 0.61520 0.77210 0.17800
H 	H 	0.37180 0.55260 0.76600 0.15100
C 	C 	0.27550 0.60200 0.76160 -0.70500
H 	H 	0.28400 0.57570 0.74680 0.18500
H 	H 	0.28550 0.63810 0.75520 0.23800
H 	H 	0.23680 0.60100 0.76560 0.19900
C 	C 	0.29150 0.44810 0.89841 0.33800
C 	C 	0.33860 0.48330 0.90296 -0.22100
H 	H 	0.37230 0.46320 0.89810 0.06900
C 	C 	0.34340 0.50790 0.93467 0.35800
C 	C 	0.23750 0.47900 0.90787 -0.58800
H 	H 	0.23760 0.51540 0.89990 0.17300
H 	H 	0.23610 0.48120 0.92860 0.18000
H 	H 	0.20600 0.45930 0.90090 0.14800
C 	C 	0.29580 0.39441 0.91046 -0.66200
H 	H 	0.26280 0.37420 0.90650 0.16800
H 	H 	0.30110 0.39720 0.93100 0.20600
H 	H 	0.32660 0.37570 0.90200 0.17200
C 	C 	0.45810 0.42150 0.80341 0.33200
C 	C 	0.49960 0.37990 0.81009 -0.28700
H 	H 	0.48710 0.35920 0.82700 0.10600
C 	C 	0.55230 0.40120 0.81619 0.40400
C 	C 	0.47110 0.45660 0.77777 -0.62900
H 	H 	0.44240 0.48300 0.77500 0.16300
H 	H 	0.47410 0.43380 0.76090 0.17000
H 	H 	0.50530 0.47530 0.78100 0.19800
C 	C 	0.44860 0.45720 0.83043 -0.60000
H 	H 	0.42210 0.48530 0.82610 0.15700
H 	H 	0.48260 0.47400 0.83610 0.20400
H 	H 	0.43510 0.43470 0.84590 0.16300
C 	C 	0.36727 0.22540 0.73286 0.52700
C 	C 	0.42020 0.24310 0.71911 -0.31400
H 	H 	0.41180 0.27490 0.70690 0.09000
C 	C 	0.05390 0.70150 0.54958 0.38400
C 	C 	0.37470 0.17800 0.75126 -0.86200
H 	H 	0.40340 0.18520 0.76490 0.25000
H 	H 	0.38440 0.14680 0.73970 0.26800
H 	H 	0.34110 0.17050 0.76140 0.23400
C 	C 	0.32610 0.21910 0.71169 -0.87300
H 	H 	0.32340 0.25220 0.70050 0.23800
H 	H 	0.29150 0.21200 0.72090 0.23100
H 	H 	0.33530 0.18890 0.69930 0.27600
C 	C 	0.34513 0.21270 0.84878 0.27900
C 	C 	0.34750 0.20500 0.88020 -0.22700
H 	H 	0.36320 0.23910 0.88790 0.07300
C 	C 	0.38450 0.16180 0.88930 0.34900
C 	C 	0.32250 0.15910 0.83454 -0.54100
H 	H 	0.32110 0.16380 0.81400 0.13800
H 	H 	0.28630 0.15180 0.84170 0.14600
H 	H 	0.34630 0.12890 0.83920 0.17100
C 	C 	0.40170 0.22610 0.83577 -0.57000
H 	H 	0.39830 0.23000 0.81520 0.14900
H 	H 	0.42690 0.19680 0.84010 0.19300
H 	H 	0.41520 0.25970 0.84390 0.16700
C 	C 	0.12490 0.31155 0.88650 0.35200
C 	C 	0.11970 0.25460 0.89597 -0.28300
H 	H 	0.10560 0.23420 0.87930 0.08900
C 	C 	0.08050 0.24150 0.92118 0.45200
C 	C 	0.14370 0.34550 0.90908 -0.67200
H 	H 	0.14510 0.38290 0.90250 0.17800
H 	H 	0.17980 0.33390 0.91490 0.16900
H 	H 	0.11900 0.34270 0.92520 0.19600
C 	C 	0.06440 0.32700 0.87461 -0.59100
H 	H 	0.05450 0.30230 0.85930 0.16800
H 	H 	0.06460 0.36400 0.86740 0.15400
H 	H 	0.03820 0.32400 0.89000 0.20500
O 	O 	0.08123 0.57001 0.56318 -0.39500
O 	O 	0.15910 0.59090 0.58476 -0.39300
C 	C 	0.13081 0.56660 0.56382 0.37800
C 	C 	0.16350 0.54630 0.53574 -0.60100
H 	H 	0.20230 0.54650 0.53970 0.19400
H 	H 	0.15580 0.57060 0.51990 0.17800
H 	H 	0.15210 0.50980 0.53080 0.19300
La	La	0.15939 0.22549 0.98970 0.96300
La	La	0.10915 0.95248 0.77127 0.93700
La	La	0.06678 0.96994 0.79173 0.79000
O 	O 	0.05390 0.87200 0.76850 -0.60600
O 	O 	0.14600 0.98970 0.82674 -0.34100
Ag	Ag	0.84450 0.21720 0.47789 0.49800
Ag	Ag	0.89041 0.35082 0.49873 0.50800
Ag	Ag	0.00297 0.31454 0.53683 0.49400
Ag	Ag	0.94357 0.17537 0.52239 0.50300
Ag	Ag	0.76420 0.22863 0.53925 0.51000
Ag	Ag	0.78477 0.37506 0.56008 0.49300
Ag	Ag	0.90778 0.30243 0.59406 0.51200
Ag	Ag	0.86021 0.15343 0.59365 0.49400
Pd	Pd	0.00399 0.25874 0.45444 0.72200
Pd	Pd	0.72765 0.33499 0.47866 0.71600
Pd	Pd	0.92993 0.45508 0.56237 0.71500
Pd	Pd	0.02421 0.18848 0.59586 0.72700
Pd	Pd	0.81654 0.07371 0.51938 0.70700
Pd	Pd	0.75291 0.26483 0.62290 0.71000
Br	Br	0.87565 0.26445 0.53905 -0.63600
La	La	0.12262 0.42337 0.36276 1.50900
S 	S 	0.94208 0.19884 0.46961 -0.48900
S 	S 	0.98543 0.32666 0.48504 -0.46100
S 	S 	0.81335 0.31102 0.47005 -0.47900
S 	S 	0.72821 0.31984 0.52609 -0.47800
S 	S 	0.86340 0.41983 0.53442 -0.45600
S 	S 	0.96861 0.37538 0.57450 -0.46700
S 	S 	0.01993 0.21752 0.55061 -0.45800
S 	S 	0.93998 0.21050 0.60898 -0.45900
S 	S 	0.88437 0.10691 0.54694 -0.45500
S 	S 	0.78484 0.15390 0.50406 -0.50900
S 	S 	0.76957 0.19945 0.59033 -0.45400
S 	S 	0.81166 0.32713 0.60653 -0.46800
O 	O 	0.04853 0.10915 0.39951 -0.31400
O 	O 	0.96440 0.09377 0.38321 -0.29800
O 	O 	0.10727 0.38725 0.41169 -0.45900
O 	O 	0.12590 0.43570 0.44827 -0.34900
O 	O 	0.73752 0.37497 0.38081 -0.37800
O 	O 	0.77720 0.29790 0.37279 -0.30000
O 	O 	0.54370 0.35910 0.49383 -0.34800
O 	O 	0.55800 0.40230 0.53835 -0.45500
O 	O 	0.86100 0.61343 0.52443 -0.33100
O 	O 	0.77960 0.58910 0.52661 -0.32200
O 	O 	0.02505 0.43372 0.36867 -0.50500
O 	O 	0.96393 0.37236 0.35655 -0.30700
O 	O 	0.19785 0.13752 0.56473 -0.30200
O 	O 	0.20956 0.21346 0.54289 -0.29800
O 	O 	0.04785 0.17186 0.69223 -0.35500
O 	O 	0.96929 0.13590 0.70142 -0.29300
O 	O 	0.91090 0.91544 0.54581 -0.35000
O 	O 	0.91420 0.93810 0.59010 -0.32100
O 	O 	0.17816 0.48894 0.29124 -0.31400
O 	O 	0.18994 0.42279 0.32270 -0.45500
O 	O 	0.61812 0.14279 0.64687 -0.28700
O 	O 	0.66156 0.06780 0.63992 -0.32200
O 	O 	0.73500 0.39461 0.69436 -0.47600
O 	O 	0.74411 0.46566 0.66880 -0.37300
N 	N 	0.01850 0.20476 0.42427 -0.27900
H 	H 	0.02450 0.22290 0.40760 0.09500
H 	H 	0.04980 0.18680 0.42880 0.11500
N 	N 	0.06432 0.30879 0.43961 -0.26300
H 	H 	0.09580 0.28940 0.43890 0.10400
H 	H 	0.05590 0.31870 0.42140 0.09700
N 	N 	0.71992 0.34110 0.43453 -0.26500
H 	H 	0.68800 0.32560 0.42900 0.08700
H 	H 	0.71880 0.37690 0.42950 0.11000
N 	N 	0.65060 0.36780 0.48499 -0.27300
H 	H 	0.64840 0.40080 0.47630 0.11200
H 	H 	0.62510 0.34560 0.47700 0.09800
N 	N 	0.89478 0.52647 0.55435 -0.27100
H 	H 	0.89110 0.54470 0.57120 0.10900
H 	H 	0.91750 0.54630 0.54300 0.09400
N 	N 	0.99062 0.48829 0.58561 -0.25700
H 	H 	0.99900 0.52130 0.57800 0.07700
H 	H 	0.97830 0.49400 0.60370 0.07300
N 	N 	0.10277 0.17230 0.58746 -0.27600
H 	H 	0.12280 0.18050 0.60330 0.13500
H 	H 	0.10620 0.13590 0.58430 0.11200
N 	N 	0.03265 0.16300 0.63764 -0.26600
H 	H 	0.04770 0.12910 0.63770 0.09200
H 	H 	0.05610 0.18580 0.64680 0.11500
N 	N 	0.84032 0.99744 0.53462 -0.25400
H 	H 	0.81020 0.97860 0.54000 0.08300
H 	H 	0.85650 0.97870 0.52010 0.06100
N 	N 	0.76107 0.03962 0.49009 -0.24100
H 	H 	0.77710 0.01120 0.48090 0.05600
H 	H 	0.73170 0.02660 0.49980 0.07300
N 	N 	0.70399 0.20986 0.64037 -0.26300
H 	H 	0.71110 0.20930 0.65950 0.05200
H 	H 	0.66930 0.22220 0.63830 0.07800
N 	N 	0.73174 0.32013 0.65166 -0.25600
H 	H 	0.69480 0.32170 0.65240 0.05700
H 	H 	0.74360 0.30890 0.66910 0.02600
C 	C 	0.95780 0.13820 0.44667 0.44000
C 	C 	0.97520 0.16390 0.41932 -0.23400
H 	H 	0.94360 0.18120 0.40990 0.08200
C 	C 	0.00120 0.11670 0.39822 0.33100
C 	C 	0.99600 0.10430 0.45967 -0.82200
H 	H 	0.98070 0.08920 0.47710 0.22100
H 	H 	0.02830 0.12510 0.46430 0.23400
H 	H 	0.00540 0.07500 0.44670 0.25400
C 	C 	0.90460 0.10790 0.44044 -0.70300
H 	H 	0.87890 0.13250 0.43150 0.19700
H 	H 	0.88950 0.09420 0.45820 0.18400
H 	H 	0.91190 0.07770 0.42760 0.23000
C 	C 	0.02280 0.38210 0.46646 0.31600
C 	C 	0.07396 0.35774 0.45616 -0.26100
H 	H 	0.09660 0.34820 0.47290 0.09000
C 	C 	0.10520 0.39550 0.43759 0.41500
C 	C 	0.98690 0.39870 0.44060 -0.59300
H 	H 	0.95330 0.41480 0.44750 0.15800
H 	H 	0.97860 0.36680 0.42920 0.17000
H 	H 	0.00620 0.42500 0.42900 0.19400
C 	C 	0.02870 0.42630 0.48958 -0.60500
H 	H 	0.99300 0.44030 0.49450 0.16000
H 	H 	0.05110 0.45570 0.48230 0.19800
H 	H 	0.04560 0.41080 0.50640 0.16500
C 	C 	0.81900 0.33100 0.43156 0.40400
C 	C 	0.76540 0.31440 0.41920 -0.26000
H 	H 	0.76130 0.27440 0.42010 0.08600
C 	C 	0.75620 0.33520 0.38736 0.41200
C 	C 	0.82860 0.39265 0.43016 -0.66900
H 	H 	0.79810 0.41140 0.43890 0.19200
H 	H 	0.83200 0.40380 0.41030 0.20600
H 	H 	0.86170 0.40170 0.44040 0.17800
C 	C 	0.86350 0.30150 0.41932 -0.75600
H 	H 	0.89740 0.31400 0.42760 0.20700
H 	H 	0.86420 0.30740 0.39880 0.24900
H 	H 	0.85900 0.26300 0.42320 0.20800
C 	C 	0.65500 0.32460 0.53246 0.40400
C 	C 	0.63940 0.37390 0.51621 -0.22600
H 	H 	0.65680 0.40700 0.52410 0.07700
C 	C 	0.57410 0.37890 0.51606 0.25000
C 	C 	0.62890 0.26850 0.52204 -0.61500
H 	H 	0.63360 0.26490 0.50150 0.16500
H 	H 	0.59050 0.26810 0.52660 0.19000
H 	H 	0.64690 0.23850 0.53160 0.15400
C 	C 	0.64720 0.32900 0.56160 -0.79300
H 	H 	0.65870 0.29560 0.57080 0.21500
H 	H 	0.60900 0.33530 0.56550 0.25900
H 	H 	0.66850 0.35920 0.56890 0.21900
C 	C 	0.84120 0.48270 0.51672 0.34700
C 	C 	0.84080 0.52378 0.54030 -0.26500
H 	H 	0.81290 0.51380 0.55460 0.09700
C 	C 	0.82780 0.57700 0.52813 0.37900
C 	C 	0.88220 0.49410 0.49404 -0.63100
H 	H 	0.91680 0.50270 0.50290 0.17600
H 	H 	0.87020 0.52470 0.48260 0.19100
H 	H 	0.88620 0.46230 0.48190 0.16200
C 	C 	0.78750 0.46760 0.50249 -0.63200
H 	H 	0.76100 0.45820 0.51700 0.17600
H 	H 	0.79300 0.43680 0.48990 0.16600
H 	H 	0.77430 0.49830 0.49150 0.20100
C 	C 	0.02400 0.39980 0.59849 0.34700
C 	C 	0.03930 0.45661 0.58713 -0.24600
H 	H 	0.05530 0.45320 0.56780 0.08300
C 	C 	0.98850 0.42030 0.35712 0.44500
C 	C 	0.00320 0.40270 0.62928 -0.61800
H 	H 	0.99420 0.36640 0.63590 0.16700
H 	H 	0.97100 0.42540 0.63000 0.17400
H 	H 	0.03120 0.41820 0.64150 0.18900
C 	C 	0.06460 0.35550 0.59716 -0.66600
H 	H 	0.04930 0.32270 0.60540 0.18800
H 	H 	0.09680 0.36600 0.60780 0.22200
H 	H 	0.07440 0.34880 0.57740 0.18500
C 	C 	0.08880 0.19480 0.53722 0.35200
C 	C 	0.12640 0.20230 0.56232 -0.25700
H 	H 	0.12860 0.24150 0.56700 0.10500
C 	C 	0.18110 0.18220 0.55561 0.37600
C 	C 	0.08150 0.13246 0.52989 -0.59900
H 	H 	0.07230 0.11270 0.54720 0.17000
H 	H 	0.11520 0.11830 0.52210 0.17800
H 	H 	0.05260 0.12820 0.51600 0.15100
C 	C 	0.10200 0.22450 0.51160 -0.70500
H 	H 	0.07570 0.21600 0.49680 0.18500
H 	H 	0.13810 0.21450 0.50520 0.23800
H 	H 	0.10100 0.26320 0.51560 0.19900
C 	C 	0.94810 0.20850 0.64841 0.33600
C 	C 	0.98330 0.16140 0.65296 -0.21800
H 	H 	0.96320 0.12770 0.64810 0.06900
C 	C 	0.00790 0.15660 0.68467 0.35500
C 	C 	0.97900 0.26250 0.65787 -0.58400
H 	H 	0.01540 0.26240 0.64990 0.17100
H 	H 	0.98120 0.26390 0.67860 0.17900
H 	H 	0.95930 0.29400 0.65090 0.14700
C 	C 	0.89441 0.20420 0.66046 -0.66000
H 	H 	0.87420 0.23720 0.65650 0.16800
H 	H 	0.89720 0.19890 0.68100 0.20600
H 	H 	0.87570 0.17340 0.65200 0.17200
C 	C 	0.92150 0.04190 0.55341 0.33200
C 	C 	0.87990 0.00040 0.56009 -0.28500
H 	H 	0.85920 0.01290 0.57700 0.10600
C 	C 	0.90120 0.94770 0.56619 0.40300
C 	C 	0.95660 0.02890 0.52777 -0.62700
H 	H 	0.98300 0.05760 0.52500 0.16300
H 	H 	0.93380 0.02590 0.51090 0.17000
H 	H 	0.97530 0.99470 0.53100 0.19700
C 	C 	0.95720 0.05140 0.58043 -0.60000
H 	H 	0.98530 0.07790 0.57610 0.15700
H 	H 	0.97400 0.01740 0.58610 0.20500
H 	H 	0.93470 0.06490 0.59590 0.16400
C 	C 	0.72540 0.13273 0.48286 0.52700
C 	C 	0.74310 0.07980 0.46911 -0.31400
H 	H 	0.77490 0.08820 0.45690 0.09000
C 	C 	0.20150 0.44610 0.29958 0.38400
C 	C 	0.67800 0.12530 0.50126 -0.86200
H 	H 	0.68520 0.09660 0.51490 0.25000
H 	H 	0.64680 0.11560 0.48970 0.26800
H 	H 	0.67050 0.15890 0.51140 0.23400
C 	C 	0.71910 0.17390 0.46169 -0.87300
H 	H 	0.75220 0.17660 0.45050 0.23800
H 	H 	0.71200 0.20850 0.47090 0.23100
H 	H 	0.68890 0.16470 0.44930 0.27600
C 	C 	0.71270 0.15487 0.59878 0.27900
C 	C 	0.70500 0.15250 0.63020 -0.22700
H 	H 	0.73910 0.13680 0.63790 0.07300
C 	C 	0.66180 0.11550 0.63930 0.34900
C 	C 	0.65910 0.17750 0.58454 -0.54100
H 	H 	0.66380 0.17890 0.56400 0.13800
H 	H 	0.65180 0.21370 0.59170 0.14600
H 	H 	0.62890 0.15370 0.58920 0.17100
C 	C 	0.72610 0.09830 0.58577 -0.57000
H 	H 	0.73000 0.10170 0.56520 0.14900
H 	H 	0.69680 0.07310 0.59010 0.19300
H 	H 	0.75970 0.08480 0.59390 0.16700
C 	C 	0.81155 0.37510 0.63650 0.35200
C 	C 	0.75460 0.38030 0.64597 -0.28300
H 	H 	0.73420 0.39440 0.62930 0.08900
C 	C 	0.74150 0.41950 0.67118 0.45100
C 	C 	0.84550 0.35630 0.65908 -0.67200
H 	H 	0.88290 0.35490 0.65250 0.17800
H 	H 	0.83390 0.32020 0.66490 0.16900
H 	H 	0.84270 0.38100 0.67520 0.19600
C 	C 	0.82700 0.43560 0.62461 -0.59100
H 	H 	0.80230 0.44550 0.60930 0.16800
H 	H 	0.86400 0.43540 0.61740 0.15400
H 	H 	0.82400 0.46180 0.64000 0.20500
O 	O 	0.07001 0.41877 0.31318 -0.39500
O 	O 	0.09090 0.34090 0.33476 -0.39300
C 	C 	0.06660 0.36919 0.31382 0.37800
C 	C 	0.04630 0.33650 0.28574 -0.60100
H 	H 	0.04650 0.29770 0.28970 0.19400
H 	H 	0.07060 0.34420 0.26990 0.17800
H 	H 	0.00980 0.34790 0.28080 0.19300
La	La	0.72549 0.34061 0.73970 0.96300
La	La	0.45248 0.39085 0.52127 0.93700
La	La	0.46994 0.43322 0.54173 0.79000
O 	O 	0.37200 0.44610 0.51850 -0.60600
O 	O 	0.48970 0.35400 0.57674 -0.34200
Ag	Ag	0.15550 0.78280 0.97789 0.49800
Ag	Ag	0.10959 0.64918 0.99873 0.50800
Ag	Ag	0.99703 0.68546 0.03683 0.49400
Ag	Ag	0.05643 0.82463 0.02239 0.50300
Ag	Ag	0.23580 0.77137 0.03925 0.51000
Ag	Ag	0.21523 0.62494 0.06008 0.49300
Ag	Ag	0.09222 0.69757 0.09406 0.51200
Ag	Ag	0.13979 0.84657 0.09365 0.49400
Pd	Pd	0.99601 0.74126 0.95444 0.72200
Pd	Pd	0.27235 0.66501 0.97866 0.71600
Pd	Pd	0.07007 0.54492 0.06237 0.71500
Pd	Pd	0.97579 0.81152 0.09586 0.72700
Pd	Pd	0.18346 0.92629 0.01938 0.70700
Pd	Pd	0.24709 0.73517 0.12290 0.71000
Br	Br	0.12435 0.73555 0.03905 -0.63600
La	La	0.87738 0.57663 0.86276 1.50900
S 	S 	0.05792 0.80116 0.96961 -0.48900
S 	S 	0.01457 0.67334 0.98504 -0.46100
S 	S 	0.18665 0.68898 0.97005 -0.47900
S 	S 	0.27179 0.68016 0.02609 -0.47800
S 	S 	0.13660 0.58017 0.03442 -0.45600
S 	S 	0.03139 0.62462 0.07450 -0.46700
S 	S 	0.98007 0.78248 0.05061 -0.45800
S 	S 	0.06002 0.78950 0.10898 -0.45900
S 	S 	0.11563 0.89309 0.04694 -0.45500
S 	S 	0.21516 0.84610 0.00406 -0.50900
S 	S 	0.23043 0.80055 0.09033 -0.45400
S 	S 	0.18834 0.67287 0.10653 -0.46800
O 	O 	0.95147 0.89085 0.89951 -0.31400
O 	O 	0.03560 0.90623 0.88321 -0.29800
O 	O 	0.89273 0.61275 0.91169 -0.45900
O 	O 	0.87410 0.56430 0.94827 -0.34900
O 	O 	0.26248 0.62503 0.88081 -0.37800
O 	O 	0.22280 0.70210 0.87279 -0.30000
O 	O 	0.45630 0.64090 0.99383 -0.34800
O 	O 	0.44200 0.59770 0.03835 -0.45500
O 	O 	0.13900 0.38657 0.02443 -0.33100
O 	O 	0.22040 0.41090 0.02661 -0.32200
O 	O 	0.97495 0.56628 0.86867 -0.50500
O 	O 	0.03607 0.62764 0.85655 -0.30700
O 	O 	0.80215 0.86248 0.06473 -0.30200
O 	O 	0.79044 0.78654 0.04289 -0.29800
O 	O 	0.95215 0.82814 0.19223 -0.35500
O 	O 	0.03071 0.86410 0.20142 -0.29300
O 	O 	0.08910 0.08456 0.04581 -0.35000
O 	O 	0.08580 0.06190 0.09010 -0.32100
O 	O 	0.82184 0.51106 0.79124 -0.31400
O 	O 	0.81006 0.57721 0.82270 -0.45500
O 	O 	0.38188 0.85721 0.14687 -0.28700
O 	O 	0.33844 0.93220 0.13992 -0.32200
O 	O 	0.26500 0.60539 0.19436 -0.47600
O 	O 	0.25589 0.53434 0.16880 -0.37300
N 	N 	0.98150 0.79524 0.92427 -0.27900
H 	H 	0.97550 0.77710 0.90760 0.09500
H 	H 	0.95020 0.81320 0.92880 0.11500
N 	N 	0.93568 0.69121 0.93961 -0.26300
H 	H 	0.90420 0.71060 0.93890 0.10400
H 	H 	0.94410 0.68130 0.92140 0.09700
N 	N 	0.28008 0.65890 0.93453 -0.26500
H 	H 	0.31200 0.67440 0.92900 0.08700
H 	H 	0.28120 0.62310 0.92950 0.11000
N 	N 	0.34940 0.63220 0.98499 -0.27300
H 	H 	0.35160 0.59920 0.97630 0.11200
H 	H 	0.37490 0.65440 0.97700 0.09800
N 	N 	0.10522 0.47353 0.05435 -0.27100
H 	H 	0.10890 0.45530 0.07120 0.10900
H 	H 	0.08250 0.45370 0.04300 0.09400
N 	N 	0.00938 0.51171 0.08561 -0.25700
H 	H 	0.00100 0.47870 0.07800 0.07700
H 	H 	0.02170 0.50600 0.10370 0.07300
N 	N 	0.89723 0.82770 0.08746 -0.27600
H 	H 	0.87720 0.81950 0.10330 0.13500
H 	H 	0.89380 0.86410 0.08430 0.11200
N 	N 	0.96735 0.83700 0.13764 -0.26600
H 	H 	0.95230 0.87090 0.13770 0.09200
H 	H 	0.94390 0.81420 0.14680 0.11500
N 	N 	0.15968 0.00256 0.03462 -0.25500
H 	H 	0.18980 0.02140 0.04000 0.08300
H 	H 	0.14350 0.02130 0.02010 0.06100
N 	N 	0.23893 0.96038 0.99009 -0.24100
H 	H 	0.22290 0.98880 0.98090 0.05600
H 	H 	0.26830 0.97340 0.99980 0.07300
N 	N 	0.29601 0.79014 0.14037 -0.26300
H 	H 	0.28890 0.79070 0.15950 0.05200
H 	H 	0.33070 0.77780 0.13830 0.07800
N 	N 	0.26826 0.67987 0.15166 -0.25600
H 	H 	0.30520 0.67830 0.15240 0.05700
H 	H 	0.25640 0.69110 0.16910 0.02600
C 	C 	0.04220 0.86180 0.94667 0.44000
C 	C 	0.02480 0.83610 0.91932 -0.23400
H 	H 	0.05640 0.81880 0.90990 0.08200
C 	C 	0.99880 0.88330 0.89822 0.33100
C 	C 	0.00400 0.89570 0.95967 -0.82200
H 	H 	0.01930 0.91080 0.97710 0.22100
H 	H 	0.97170 0.87490 0.96430 0.23400
H 	H 	0.99460 0.92500 0.94670 0.25400
C 	C 	0.09540 0.89210 0.94044 -0.70300
H 	H 	0.12110 0.86750 0.93150 0.19700
H 	H 	0.11050 0.90580 0.95820 0.18400
H 	H 	0.08810 0.92230 0.92760 0.23000
C 	C 	0.97720 0.61790 0.96646 0.31600
C 	C 	0.92604 0.64226 0.95616 -0.26100
H 	H 	0.90340 0.65180 0.97290 0.09000
C 	C 	0.89480 0.60450 0.93759 0.41500
C 	C 	0.01310 0.60130 0.94060 -0.59300
H 	H 	0.04670 0.58520 0.94750 0.15800
H 	H 	0.02140 0.63320 0.92920 0.17000
H 	H 	0.99380 0.57500 0.92900 0.19400
C 	C 	0.97130 0.57370 0.98958 -0.60500
H 	H 	0.00700 0.55970 0.99450 0.16000
H 	H 	0.94890 0.54430 0.98230 0.19800
H 	H 	0.95440 0.58920 0.00640 0.16500
C 	C 	0.18100 0.66900 0.93156 0.40400
C 	C 	0.23460 0.68560 0.91920 -0.26000
H 	H 	0.23870 0.72560 0.92010 0.08600
C 	C 	0.24380 0.66480 0.88736 0.41200
C 	C 	0.17140 0.60735 0.93016 -0.66900
H 	H 	0.20190 0.58860 0.93890 0.19200
H 	H 	0.16800 0.59620 0.91030 0.20600
H 	H 	0.13830 0.59830 0.94040 0.17800
C 	C 	0.13650 0.69850 0.91932 -0.75600
H 	H 	0.10260 0.68600 0.92760 0.20700
H 	H 	0.13580 0.69260 0.89880 0.24900
H 	H 	0.14100 0.73700 0.92320 0.20800
C 	C 	0.34500 0.67540 0.03246 0.40400
C 	C 	0.36060 0.62610 0.01621 -0.22600
H 	H 	0.34320 0.59300 0.02410 0.07700
C 	C 	0.42590 0.62110 0.01606 0.25000
C 	C 	0.37110 0.73150 0.02204 -0.61500
H 	H 	0.36640 0.73510 0.00150 0.16500
H 	H 	0.40950 0.73190 0.02660 0.19000
H 	H 	0.35310 0.76150 0.03160 0.15400
C 	C 	0.35280 0.67100 0.06160 -0.79300
H 	H 	0.34130 0.70440 0.07080 0.21500
H 	H 	0.39100 0.66470 0.06550 0.25900
H 	H 	0.33150 0.64080 0.06890 0.21900
C 	C 	0.15880 0.51730 0.01672 0.34700
C 	C 	0.15920 0.47622 0.04030 -0.26500
H 	H 	0.18710 0.48620 0.05460 0.09700
C 	C 	0.17220 0.42300 0.02813 0.37900
C 	C 	0.11780 0.50590 0.99404 -0.63100
H 	H 	0.08320 0.49730 0.00290 0.17600
H 	H 	0.12980 0.47530 0.98260 0.19100
H 	H 	0.11380 0.53770 0.98190 0.16200
C 	C 	0.21250 0.53240 0.00249 -0.63200
H 	H 	0.23900 0.54180 0.01700 0.17600
H 	H 	0.20700 0.56320 0.98990 0.16600
H 	H 	0.22570 0.50170 0.99150 0.20100
C 	C 	0.97600 0.60020 0.09849 0.34700
C 	C 	0.96070 0.54339 0.08713 -0.24600
H 	H 	0.94470 0.54680 0.06780 0.08300
C 	C 	0.01150 0.57970 0.85712 0.44500
C 	C 	0.99680 0.59730 0.12928 -0.61800
H 	H 	0.00580 0.63360 0.13590 0.16700
H 	H 	0.02900 0.57460 0.13000 0.17400
H 	H 	0.96880 0.58180 0.14150 0.18900
C 	C 	0.93540 0.64450 0.09716 -0.66600
H 	H 	0.95070 0.67730 0.10540 0.18800
H 	H 	0.90320 0.63400 0.10780 0.22200
H 	H 	0.92560 0.65120 0.07740 0.18500
C 	C 	0.91120 0.80520 0.03722 0.35200
C 	C 	0.87360 0.79770 0.06232 -0.25700
H 	H 	0.87140 0.75850 0.06700 0.10500
C 	C 	0.81890 0.81780 0.05561 0.37600
C 	C 	0.91850 0.86754 0.02989 -0.59900
H 	H 	0.92770 0.88730 0.04720 0.17000
H 	H 	0.88480 0.88170 0.02210 0.17800
H 	H 	0.94740 0.87180 0.01600 0.15100
C 	C 	0.89800 0.77550 0.01160 -0.70500
H 	H 	0.92430 0.78400 0.99680 0.18500
H 	H 	0.86190 0.78550 0.00520 0.23800
H 	H 	0.89900 0.73680 0.01560 0.19900
C 	C 	0.05190 0.79150 0.14841 0.33600
C 	C 	0.01670 0.83860 0.15296 -0.21800
H 	H 	0.03680 0.87230 0.14810 0.06900
C 	C 	0.99210 0.84340 0.18467 0.35500
C 	C 	0.02100 0.73750 0.15787 -0.58400
H 	H 	0.98460 0.73760 0.14990 0.17100
H 	H 	0.01880 0.73610 0.17860 0.17900
H 	H 	0.04070 0.70600 0.15090 0.14700
C 	C 	0.10559 0.79580 0.16046 -0.66000
H 	H 	0.12580 0.76280 0.15650 0.16800
H 	H 	0.10280 0.80110 0.18100 0.20600
H 	H 	0.12430 0.82660 0.15200 0.17200
C 	C 	0.07850 0.95810 0.05341 0.33200
C 	C 	0.12010 0.99960 0.06009 -0.28500
H 	H 	0.14080 0.98710 0.07700 0.10600
C 	C 	0.09880 0.05230 0.06619 0.40300
C 	C 	0.04340 0.97110 0.02777 -0.62600
H 	H 	0.01700 0.94240 0.02500 0.16300
H 	H 	0.06620 0.97410 0.01090 0.17000
H 	H 	0.02470 0.00530 0.03100 0.19700
C 	C 	0.04280 0.94860 0.08043 -0.60000
H 	H 	0.01470 0.92210 0.07610 0.15700
H 	H 	0.02600 0.98260 0.08610 0.20500
H 	H 	0.06530 0.93510 0.09590 0.16400
C 	C 	0.27460 0.86727 0.98286 0.52700
C 	C 	0.25690 0.92020 0.96911 -0.31400
H 	H 	0.22510 0.91180 0.95690 0.09000
C 	C 	0.79850 0.55390 0.79958 0.38400
C 	C 	0.32200 0.87470 0.00126 -0.86200
H 	H 	0.31480 0.90340 0.01490 0.25000
H 	H 	0.35320 0.88440 0.98970 0.26800
H 	H 	0.32950 0.84110 0.01140 0.23400
C 	C 	0.28090 0.82610 0.96169 -0.87300
H 	H 	0.24780 0.82340 0.95050 0.23800
H 	H 	0.28800 0.79150 0.97090 0.23100
H 	H 	0.31110 0.83530 0.94930 0.27600
C 	C 	0.28730 0.84513 0.09878 0.27900
C 	C 	0.29500 0.84750 0.13020 -0.22700
H 	H 	0.26090 0.86320 0.13790 0.07300
C 	C 	0.33820 0.88450 0.13930 0.34900
C 	C 	0.34090 0.82250 0.08454 -0.54100
H 	H 	0.33620 0.82110 0.06400 0.13800
H 	H 	0.34820 0.78630 0.09170 0.14600
H 	H 	0.37110 0.84630 0.08920 0.17100
C 	C 	0.27390 0.90170 0.08577 -0.57000
H 	H 	0.27000 0.89830 0.06520 0.14900
H 	H 	0.30320 0.92690 0.09010 0.19300
H 	H 	0.24030 0.91520 0.09390 0.16700
C 	C 	0.18845 0.62490 0.13650 0.35200
C 	C 	0.24540 0.61970 0.14597 -0.28300
H 	H 	0.26580 0.60560 0.12930 0.08900
C 	C 	0.25850 0.58050 0.17118 0.45100
C 	C 	0.15450 0.64370 0.15908 -0.67200
H 	H 	0.11710 0.64510 0.15250 0.17800
H 	H 	0.16610 0.67980 0.16490 0.16900
H 	H 	0.15730 0.61900 0.17520 0.19600
C 	C 	0.17300 0.56440 0.12461 -0.59100
H 	H 	0.19770 0.55450 0.10930 0.16800
H 	H 	0.13600 0.56460 0.11740 0.15400
H 	H 	0.17600 0.53820 0.14000 0.20500
O 	O 	0.92999 0.58123 0.81318 -0.39500
O 	O 	0.90910 0.65910 0.83476 -0.39300
C 	C 	0.93340 0.63081 0.81382 0.37800
C 	C 	0.95370 0.66350 0.78574 -0.60100
H 	H 	0.95350 0.70230 0.78970 0.19400
H 	H 	0.92940 0.65580 0.76990 0.17800
H 	H 	0.99020 0.65210 0.78080 0.19300
La	La	0.27451 0.65939 0.23970 0.96300
La	La	0.54752 0.60915 0.02127 0.93700
La	La	0.53006 0.56678 0.04173 0.79000
O 	O 	0.62800 0.55390 0.01850 -0.60600
O 	O 	0.51030 0.64600 0.07674 -0.34200
Ag	Ag	0.78280 0.15550 0.02211 0.49800
Ag	Ag	0.64918 0.10959 0.00127 0.50800
Ag	Ag	0.68546 0.99703 0.96317 0.49400
Ag	Ag	0.82463 0.05643 0.97761 0.50300
Ag	Ag	0.77137 0.23580 0.96075 0.51000
Ag	Ag	0.62494 0.21523 0.93992 0.49300
Ag	Ag	0.69757 0.09222 0.90594 0.51200
Ag	Ag	0.84657 0.13979 0.90635 0.49400
Pd	Pd	0.74126 0.99601 0.04556 0.72200
Pd	Pd	0.66501 0.27235 0.02134 0.71600
Pd	Pd	0.54492 0.07007 0.93763 0.71500
Pd	Pd	0.81152 0.97579 0.90414 0.72700
Pd	Pd	0.92629 0.18346 0.98062 0.70700
Pd	Pd	0.73517 0.24709 0.87710 0.71000
Br	Br	0.73555 0.12435 0.96095 -0.63600
La	La	0.57663 0.87738 0.13724 1.50900
S 	S 	0.80116 0.05792 0.03039 -0.48900
S 	S 	0.67334 0.01457 0.01496 -0.46100
S 	S 	0.68898 0.18665 0.02995 -0.47900
S 	S 	0.68016 0.27179 0.97391 -0.47800
S 	S 	0.58017 0.13660 0.96558 -0.45600
S 	S 	0.62462 0.03139 0.92550 -0.46700
S 	S 	0.78248 0.98007 0.94939 -0.45800
S 	S 	0.78950 0.06002 0.89102 -0.45900
S 	S 	0.89309 0.11563 0.95306 -0.45500
S 	S 	0.84610 0.21516 0.99594 -0.50900
S 	S 	0.80055 0.23043 0.90967 -0.45400
S 	S 	0.67287 0.18834 0.89347 -0.46800
O 	O 	0.89085 0.95147 0.10049 -0.31400
O 	O 	0.90623 0.03560 0.11679 -0.29800
O 	O 	0.61275 0.89273 0.08831 -0.45900
O 	O 	0.56430 0.87410 0.05173 -0.34900
O 	O 	0.62503 0.26248 0.11919 -0.37800
O 	O 	0.70210 0.22280 0.12721 -0.30000
O 	O 	0.64090 0.45630 0.00617 -0.34800
O 	O 	0.59770 0.44200 0.96165 -0.45500
O 	O 	0.38657 0.13900 0.97557 -0.33100
O 	O 	0.41090 0.22040 0.97339 -0.32200
O 	O 	0.56628 0.97495 0.13133 -0.50500
O 	O 	0.62764 0.03607 0.14345 -0.30700
O 	O 	0.86248 0.80215 0.93527 -0.30200
O 	O 	0.78654 0.79044 0.95711 -0.29800
O 	O 	0.82814 0.95215 0.80777 -0.35500
O 	O 	0.86410 0.03071 0.79858 -0.29300
O 	O 	0.08456 0.08910 0.95419 -0.35000
O 	O 	0.06190 0.08580 0.90990 -0.32100
O 	O 	0.51106 0.82184 0.20876 -0.31400
O 	O 	0.57721 0.81006 0.17730 -0.45500
O 	O 	0.85721 0.38188 0.85313 -0.28700
O 	O 	0.93220 0.33844 0.86008 -0.32200
O 	O 	0.60539 0.26500 0.80564 -0.47600
O 	O 	0.53434 0.25589 0.83120 -0.37300
N 	N 	0.79524 0.98150 0.07573 -0.27900
H 	H 	0.77710 0.97550 0.09240 0.09500
H 	H 	0.81320 0.95020 0.07120 0.11500
N 	N 	0.69121 0.93568 0.06039 -0.26300
H 	H 	0.71060 0.90420 0.06110 0.10400
H 	H 	0.68130 0.94410 0.07860 0.09700
N 	N 	0.65890 0.28008 0.06547 -0.26500
H 	H 	0.67440 0.31200 0.07100 0.08700
H 	H 	0.62310 0.28120 0.07050 0.11000
N 	N 	0.63220 0.34940 0.01501 -0.27300
H 	H 	0.59920 0.35160 0.02370 0.11200
H 	H 	0.65440 0.37490 0.02300 0.09800
N 	N 	0.47353 0.10522 0.94565 -0.27100
H 	H 	0.45530 0.10890 0.92880 0.10900
H 	H 	0.45370 0.08250 0.95700 0.09400
N 	N 	0.51171 0.00938 0.91439 -0.25700
H 	H 	0.47870 0.00100 0.92200 0.07700
H 	H 	0.50600 0.02170 0.89630 0.07300
N 	N 	0.82770 0.89723 0.91254 -0.27600
H 	H 	0.81950 0.87720 0.89670 0.13500
H 	H 	0.86410 0.89380 0.91570 0.11200
N 	N 	0.83700 0.96735 0.86236 -0.26600
H 	H 	0.87090 0.95230 0.86230 0.09200
H 	H 	0.81420 0.94390 0.85320 0.11500
N 	N 	0.00256 0.15968 0.96538 -0.25500
H 	H 	0.02140 0.18980 0.96000 0.08300
H 	H 	0.02130 0.14350 0.97990 0.06100
N 	N 	0.96038 0.23893 0.00991 -0.24100
H 	H 	0.98880 0.22290 0.01910 0.05600
H 	H 	0.97340 0.26830 0.00020 0.07300
N 	N 	0.79014 0.29601 0.85963 -0.26300
H 	H 	0.79070 0.28890 0.84050 0.05200
H 	H 	0.77780 0.33070 0.86170 0.07800
N 	N 	0.67987 0.26826 0.84834 -0.25600
H 	H 	0.67830 0.30520 0.84760 0.05700
H 	H 	0.69110 0.25640 0.83090 0.02600
C 	C 	0.86180 0.04220 0.05333 0.44000
C 	C 	0.83610 0.02480 0.08068 -0.23400
H 	H 	0.81880 0.05640 0.09010 0.08200
C 	C 	0.88330 0.99880 0.10178 0.33100
C 	C 	0.89570 0.00400 0.04033 -0.82200
H 	H 	0.91080 0.01930 0.02290 0.22100
H 	H 	0.87490 0.97170 0.03570 0.23400
H 	H 	0.92500 0.99460 0.05330 0.25400
C 	C 	0.89210 0.09540 0.05956 -0.70300
H 	H 	0.86750 0.12110 0.06850 0.19700
H 	H 	0.90580 0.11050 0.04180 0.18400
H 	H 	0.92230 0.08810 0.07240 0.23000
C 	C 	0.61790 0.97720 0.03354 0.31600
C 	C 	0.64226 0.92604 0.04384 -0.26100
H 	H 	0.65180 0.90340 0.02710 0.09000
C 	C 	0.60450 0.89480 0.06241 0.41500
C 	C 	0.60130 0.01310 0.05940 -0.59300
H 	H 	0.58520 0.04670 0.05250 0.15800
H 	H 	0.63320 0.02140 0.07080 0.17000
H 	H 	0.57500 0.99380 0.07100 0.19400
C 	C 	0.57370 0.97130 0.01042 -0.60500
H 	H 	0.55970 0.00700 0.00550 0.16000
H 	H 	0.54430 0.94890 0.01770 0.19800
H 	H 	0.58920 0.95440 0.99360 0.16500
C 	C 	0.66900 0.18100 0.06844 0.40400
C 	C 	0.68560 0.23460 0.08080 -0.26000
H 	H 	0.72560 0.23870 0.07990 0.08600
C 	C 	0.66480 0.24380 0.11264 0.41200
C 	C 	0.60735 0.17140 0.06984 -0.66900
H 	H 	0.58860 0.20190 0.06110 0.19200
H 	H 	0.59620 0.16800 0.08970 0.20600
H 	H 	0.59830 0.13830 0.05960 0.17800
C 	C 	0.69850 0.13650 0.08068 -0.75600
H 	H 	0.68600 0.10260 0.07240 0.20700
H 	H 	0.69260 0.13580 0.10120 0.24900
H 	H 	0.73700 0.14100 0.07680 0.20800
C 	C 	0.67540 0.34500 0.96754 0.40400
C 	C 	0.62610 0.36060 0.98379 -0.22600
H 	H 	0.59300 0.34320 0.97590 0.07700
C 	C 	0.62110 0.42590 0.98394 0.25000
C 	C 	0.73150 0.37110 0.97796 -0.61500
H 	H 	0.73510 0.36640 0.99850 0.16500
H 	H 	0.73190 0.40950 0.97340 0.19000
H 	H 	0.76150 0.35310 0.96840 0.15400
C 	C 	0.67100 0.35280 0.93840 -0.79300
H 	H 	0.70440 0.34130 0.92920 0.21500
H 	H 	0.66470 0.39100 0.93450 0.25900
H 	H 	0.64080 0.33150 0.93110 0.21900
C 	C 	0.51730 0.15880 0.98328 0.34700
C 	C 	0.47622 0.15920 0.95970 -0.26500
H 	H 	0.48620 0.18710 0.94540 0.09700
C 	C 	0.42300 0.17220 0.97187 0.37900
C 	C 	0.50590 0.11780 0.00596 -0.63100
H 	H 	0.49730 0.08320 0.99710 0.17600
H 	H 	0.47530 0.12980 0.01740 0.19100
H 	H 	0.53770 0.11380 0.01810 0.16200
C 	C 	0.53240 0.21250 0.99751 -0.63200
H 	H 	0.54180 0.23900 0.98300 0.17600
H 	H 	0.56320 0.20700 0.01010 0.16600
H 	H 	0.50170 0.22570 0.00850 0.20100
C 	C 	0.60020 0.97600 0.90151 0.34700
C 	C 	0.54339 0.96070 0.91287 -0.24600
H 	H 	0.54680 0.94470 0.93220 0.08300
C 	C 	0.57970 0.01150 0.14288 0.44500
C 	C 	0.59730 0.99680 0.87072 -0.61800
H 	H 	0.63360 0.00580 0.86410 0.16700
H 	H 	0.57460 0.02900 0.87000 0.17400
H 	H 	0.58180 0.96880 0.85850 0.18900
C 	C 	0.64450 0.93540 0.90284 -0.66600
H 	H 	0.67730 0.95070 0.89460 0.18800
H 	H 	0.63400 0.90320 0.89220 0.22200
H 	H 	0.65120 0.92560 0.92260 0.18500
C 	C 	0.80520 0.91120 0.96278 0.35200
C 	C 	0.79770 0.87360 0.93768 -0.25700
H 	H 	0.75850 0.87140 0.93300 0.10500
C 	C 	0.81780 0.81890 0.94439 0.37600
C 	C 	0.86754 0.91850 0.97011 -0.59900
H 	H 	0.88730 0.92770 0.95280 0.17000
H 	H 	0.88170 0.88480 0.97790 0.17800
H 	H 	0.87180 0.94740 0.98400 0.15100
C 	C 	0.77550 0.89800 0.98840 -0.70500
H 	H 	0.78400 0.92430 0.00320 0.18500
H 	H 	0.78550 0.86190 0.99480 0.23800
H 	H 	0.73680 0.89900 0.98440 0.19900
C 	C 	0.79150 0.05190 0.85159 0.33600
C 	C 	0.83860 0.01670 0.84704 -0.21800
H 	H 	0.87230 0.03680 0.85190 0.06900
C 	C 	0.84340 0.99210 0.81533 0.35500
C 	C 	0.73750 0.02100 0.84213 -0.58400
H 	H 	0.73760 0.98460 0.85010 0.17100
H 	H 	0.73610 0.01880 0.82140 0.17900
H 	H 	0.70600 0.04070 0.84910 0.14700
C 	C 	0.79580 0.10559 0.83954 -0.66000
H 	H 	0.76280 0.12580 0.84350 0.16800
H 	H 	0.80110 0.10280 0.81900 0.20600
H 	H 	0.82660 0.12430 0.84800 0.17200
C 	C 	0.95810 0.07850 0.94659 0.33200
C 	C 	0.99960 0.12010 0.93991 -0.28500
H 	H 	0.98710 0.14080 0.92300 0.10600
C 	C 	0.05230 0.09880 0.93381 0.40300
C 	C 	0.97110 0.04340 0.97223 -0.62600
H 	H 	0.94240 0.01700 0.97500 0.16300
H 	H 	0.97410 0.06620 0.98910 0.17000
H 	H 	0.00530 0.02470 0.96900 0.19700
C 	C 	0.94860 0.04280 0.91957 -0.60000
H 	H 	0.92210 0.01470 0.92390 0.15700
H 	H 	0.98260 0.02600 0.91390 0.20500
H 	H 	0.93510 0.06530 0.90410 0.16400
C 	C 	0.86727 0.27460 0.01714 0.52700
C 	C 	0.92020 0.25690 0.03089 -0.31400
H 	H 	0.91180 0.22510 0.04310 0.09000
C 	C 	0.55390 0.79850 0.20042 0.38400
C 	C 	0.87470 0.32200 0.99874 -0.86200
H 	H 	0.90340 0.31480 0.98510 0.25000
H 	H 	0.88440 0.35320 0.01030 0.26800
H 	H 	0.84110 0.32950 0.98860 0.23400
C 	C 	0.82610 0.28090 0.03831 -0.87300
H 	H 	0.82340 0.24780 0.04950 0.23800
H 	H 	0.79150 0.28800 0.02910 0.23100
H 	H 	0.83530 0.31110 0.05070 0.27600
C 	C 	0.84513 0.28730 0.90122 0.27900
C 	C 	0.84750 0.29500 0.86980 -0.22700
H 	H 	0.86320 0.26090 0.86210 0.07300
C 	C 	0.88450 0.33820 0.86070 0.34900
C 	C 	0.82250 0.34090 0.91546 -0.54100
H 	H 	0.82110 0.33620 0.93600 0.13800
H 	H 	0.78630 0.34820 0.90830 0.14600
H 	H 	0.84630 0.37110 0.91080 0.17100
C 	C 	0.90170 0.27390 0.91423 -0.57000
H 	H 	0.89830 0.27000 0.93480 0.14900
H 	H 	0.92690 0.30320 0.90990 0.19300
H 	H 	0.91520 0.24030 0.90610 0.16700
C 	C 	0.62490 0.18845 0.86350 0.35200
C 	C 	0.61970 0.24540 0.85403 -0.28300
H 	H 	0.60560 0.26580 0.87070 0.08900
C 	C 	0.58050 0.25850 0.82882 0.45100
C 	C 	0.64370 0.15450 0.84092 -0.67200
H 	H 	0.64510 0.11710 0.84750 0.17800
H 	H 	0.67980 0.16610 0.83510 0.16900
H 	H 	0.61900 0.15730 0.82480 0.19600
C 	C 	0.56440 0.17300 0.87539 -0.59100
H 	H 	0.55450 0.19770 0.89070 0.16800
H 	H 	0.56460 0.13600 0.88260 0.15400
H 	H 	0.53820 0.17600 0.86000 0.20500
O 	O 	0.58123 0.92999 0.18682 -0.39500
O 	O 	0.65910 0.90910 0.16524 -0.39300
C 	C 	0.63081 0.93340 0.18618 0.37800
C 	C 	0.66350 0.95370 0.21426 -0.60100
H 	H 	0.70230 0.95350 0.21030 0.19400
H 	H 	0.65580 0.92940 0.23010 0.17800
H 	H 	0.65210 0.99020 0.21920 0.19300
La	La	0.65939 0.27451 0.76030 0.96300
La	La	0.60915 0.54752 0.97873 0.93700
La	La	0.56678 0.53006 0.95827 0.79000
O 	O 	0.55390 0.62800 0.98150 -0.60600
O 	O 	0.64600 0.51030 0.92326 -0.34200
Ag	Ag	0.21720 0.84450 0.52211 0.49800
Ag	Ag	0.35082 0.89041 0.50127 0.50800
Ag	Ag	0.31454 0.00297 0.46317 0.49400
Ag	Ag	0.17537 0.94357 0.47761 0.50300
Ag	Ag	0.22863 0.76420 0.46075 0.51000
Ag	Ag	0.37506 0.78477 0.43992 0.49300
Ag	Ag	0.30243 0.90778 0.40594 0.51200
Ag	Ag	0.15343 0.86021 0.40635 0.49400
Pd	Pd	0.25874 0.00399 0.54556 0.72200
Pd	Pd	0.33499 0.72765 0.52134 0.71600
Pd	Pd	0.45508 0.92993 0.43763 0.71500
Pd	Pd	0.18848 0.02421 0.40414 0.72700
Pd	Pd	0.07371 0.81654 0.48062 0.70700
Pd	Pd	0.26483 0.75291 0.37710 0.71000
Br	Br	0.26445 0.87565 0.46095 -0.63600
La	La	0.42337 0.12262 0.63724 1.50900
S 	S 	0.19884 0.94208 0.53039 -0.48900
S 	S 	0.32666 0.98543 0.51496 -0.46100
S 	S 	0.31102 0.81335 0.52995 -0.47900
S 	S 	0.31984 0.72821 0.47391 -0.47800
S 	S 	0.41983 0.86340 0.46558 -0.45600
S 	S 	0.37538 0.96861 0.42550 -0.46700
S 	S 	0.21752 0.01993 0.44939 -0.45800
S 	S 	0.21050 0.93998 0.39102 -0.45900
S 	S 	0.10691 0.88437 0.45306 -0.45500
S 	S 	0.15390 0.78484 0.49594 -0.50900
S 	S 	0.19945 0.76957 0.40967 -0.45400
S 	S 	0.32713 0.81166 0.39347 -0.46800
O 	O 	0.10915 0.04853 0.60049 -0.31400
O 	O 	0.09377 0.96440 0.61679 -0.29800
O 	O 	0.38725 0.10727 0.58831 -0.45900
O 	O 	0.43570 0.12590 0.55173 -0.34900
O 	O 	0.37497 0.73752 0.61919 -0.37800
O 	O 	0.29790 0.77720 0.62721 -0.30000
O 	O 	0.35910 0.54370 0.50617 -0.34800
O 	O 	0.40230 0.55800 0.46165 -0.45500
O 	O 	0.61343 0.86100 0.47557 -0.33100
O 	O 	0.58910 0.77960 0.47339 -0.32200
O 	O 	0.43372 0.02505 0.63133 -0.50500
O 	O 	0.37236 0.96393 0.64345 -0.30700
O 	O 	0.13752 0.19785 0.43527 -0.30200
O 	O 	0.21346 0.20956 0.45711 -0.29800
O 	O 	0.17186 0.04785 0.30777 -0.35500
O 	O 	0.13590 0.96929 0.29858 -0.29300
O 	O 	0.91544 0.91090 0.45419 -0.35000
O 	O 	0.93810 0.91420 0.40990 -0.32100
O 	O 	0.48894 0.17816 0.70876 -0.31400
O 	O 	0.42279 0.18994 0.67730 -0.45500
O 	O 	0.14279 0.61812 0.35313 -0.28700
O 	O 	0.06780 0.66156 0.36008 -0.32200
O 	O 	0.39461 0.73500 0.30564 -0.47600
O 	O 	0.46566 0.74411 0.33120 -0.37300
N 	N 	0.20476 0.01850 0.57573 -0.27900
H 	H 	0.22290 0.02450 0.59240 0.09500
H 	H 	0.18680 0.04980 0.57120 0.11500
N 	N 	0.30879 0.06432 0.56039 -0.26300
H 	H 	0.28940 0.09580 0.56110 0.10400
H 	H 	0.31870 0.05590 0.57860 0.09700
N 	N 	0.34110 0.71992 0.56547 -0.26500
H 	H 	0.32560 0.68800 0.57100 0.08700
H 	H 	0.37690 0.71880 0.57050 0.11000
N 	N 	0.36780 0.65060 0.51501 -0.27300
H 	H 	0.40080 0.64840 0.52370 0.11200
H 	H 	0.34560 0.62510 0.52300 0.09800
N 	N 	0.52647 0.89478 0.44565 -0.27100
H 	H 	0.54470 0.89110 0.42880 0.10900
H 	H 	0.54630 0.91750 0.45700 0.09400
N 	N 	0.48829 0.99062 0.41439 -0.25700
H 	H 	0.52130 0.99900 0.42200 0.07700
H 	H 	0.49400 0.97830 0.39630 0.07300
N 	N 	0.17230 0.10277 0.41254 -0.27600
H 	H 	0.18050 0.12280 0.39670 0.13500
H 	H 	0.13590 0.10620 0.41570 0.11200
N 	N 	0.16300 0.03265 0.36236 -0.26600
H 	H 	0.12910 0.04770 0.36230 0.09200
H 	H 	0.18580 0.05610 0.35320 0.11500
N 	N 	0.99744 0.84032 0.46538 -0.25400
H 	H 	0.97860 0.81020 0.46000 0.08300
H 	H 	0.97870 0.85650 0.47990 0.06100
N 	N 	0.03962 0.76107 0.50991 -0.24100
H 	H 	0.01120 0.77710 0.51910 0.05600
H 	H 	0.02660 0.73170 0.50020 0.07300
N 	N 	0.20986 0.70399 0.35963 -0.26300
H 	H 	0.20930 0.71110 0.34050 0.05200
H 	H 	0.22220 0.66930 0.36170 0.07800
N 	N 	0.32013 0.73174 0.34834 -0.25600
H 	H 	0.32170 0.69480 0.34760 0.05700
H 	H 	0.30890 0.74360 0.33090 0.02600
C 	C 	0.13820 0.95780 0.55333 0.44000
C 	C 	0.16390 0.97520 0.58068 -0.23400
H 	H 	0.18120 0.94360 0.59010 0.08200
C 	C 	0.11670 0.00120 0.60178 0.33100
C 	C 	0.10430 0.99600 0.54033 -0.82200
H 	H 	0.08920 0.98070 0.52290 0.22100
H 	H 	0.12510 0.02830 0.53570 0.23400
H 	H 	0.07500 0.00540 0.55330 0.25400
C 	C 	0.10790 0.90460 0.55956 -0.70300
H 	H 	0.13250 0.87890 0.56850 0.19700
H 	H 	0.09420 0.88950 0.54180 0.18400
H 	H 	0.07770 0.91190 0.57240 0.23000
C 	C 	0.38210 0.02280 0.53354 0.31600
C 	C 	0.35774 0.07396 0.54384 -0.26100
H 	H 	0.34820 0.09660 0.52710 0.09000
C 	C 	0.39550 0.10520 0.56241 0.41500
C 	C 	0.39870 0.98690 0.55940 -0.59300
H 	H 	0.41480 0.95330 0.55250 0.15800
H 	H 	0.36680 0.97860 0.57080 0.17000
H 	H 	0.42500 0.00620 0.57100 0.19400
C 	C 	0.42630 0.02870 0.51042 -0.60500
H 	H 	0.44030 0.99300 0.50550 0.16000
H 	H 	0.45570 0.05110 0.51770 0.19800
H 	H 	0.41080 0.04560 0.49360 0.16500
C 	C 	0.33100 0.81900 0.56844 0.40400
C 	C 	0.31440 0.76540 0.58080 -0.26000
H 	H 	0.27440 0.76130 0.57990 0.08600
C 	C 	0.33520 0.75620 0.61264 0.41200
C 	C 	0.39265 0.82860 0.56984 -0.66900
H 	H 	0.41140 0.79810 0.56110 0.19200
H 	H 	0.40380 0.83200 0.58970 0.20600
H 	H 	0.40170 0.86170 0.55960 0.17800
C 	C 	0.30150 0.86350 0.58068 -0.75600
H 	H 	0.31400 0.89740 0.57240 0.20700
H 	H 	0.30740 0.86420 0.60120 0.24900
H 	H 	0.26300 0.85900 0.57680 0.20800
C 	C 	0.32460 0.65500 0.46754 0.40400
C 	C 	0.37390 0.63940 0.48379 -0.22600
H 	H 	0.40700 0.65680 0.47590 0.07700
C 	C 	0.37890 0.57410 0.48394 0.25000
C 	C 	0.26850 0.62890 0.47796 -0.61500
H 	H 	0.26490 0.63360 0.49850 0.16500
H 	H 	0.26810 0.59050 0.47340 0.19000
H 	H 	0.23850 0.64690 0.46840 0.15400
C 	C 	0.32900 0.64720 0.43840 -0.79300
H 	H 	0.29560 0.65870 0.42920 0.21500
H 	H 	0.33530 0.60900 0.43450 0.25900
H 	H 	0.35920 0.66850 0.43110 0.21900
C 	C 	0.48270 0.84120 0.48328 0.34700
C 	C 	0.52378 0.84080 0.45970 -0.26500
H 	H 	0.51380 0.81290 0.44540 0.09700
C 	C 	0.57700 0.82780 0.47187 0.37900
C 	C 	0.49410 0.88220 0.50596 -0.63100
H 	H 	0.50270 0.91680 0.49710 0.17600
H 	H 	0.52470 0.87020 0.51740 0.19100
H 	H 	0.46230 0.88620 0.51810 0.16200
C 	C 	0.46760 0.78750 0.49751 -0.63200
H 	H 	0.45820 0.76100 0.48300 0.17600
H 	H 	0.43680 0.79300 0.51010 0.16600
H 	H 	0.49830 0.77430 0.50850 0.20100
C 	C 	0.39980 0.02400 0.40151 0.34700
C 	C 	0.45661 0.03930 0.41287 -0.24600
H 	H 	0.45320 0.05530 0.43220 0.08300
C 	C 	0.42030 0.98850 0.64288 0.44500
C 	C 	0.40270 0.00320 0.37072 -0.61800
H 	H 	0.36640 0.99420 0.36410 0.16700
H 	H 	0.42540 0.97100 0.37000 0.17400
H 	H 	0.41820 0.03120 0.35850 0.18900
C 	C 	0.35550 0.06460 0.40284 -0.66600
H 	H 	0.32270 0.04930 0.39460 0.18800
H 	H 	0.36600 0.09680 0.39220 0.22200
H 	H 	0.34880 0.07440 0.42260 0.18500
C 	C 	0.19480 0.08880 0.46278 0.35200
C 	C 	0.20230 0.12640 0.43768 -0.25700
H 	H 	0.24150 0.12860 0.43300 0.10500
C 	C 	0.18220 0.18110 0.44439 0.37600
C 	C 	0.13246 0.08150 0.47011 -0.59900
H 	H 	0.11270 0.07230 0.45280 0.17000
H 	H 	0.11830 0.11520 0.47790 0.17800
H 	H 	0.12820 0.05260 0.48400 0.15100
C 	C 	0.22450 0.10200 0.48840 -0.70500
H 	H 	0.21600 0.07570 0.50320 0.18500
H 	H 	0.21450 0.13810 0.49480 0.23800
H 	H 	0.26320 0.10100 0.48440 0.19900
C 	C 	0.20850 0.94810 0.35159 0.33600
C 	C 	0.16140 0.98330 0.34704 -0.21800
H 	H 	0.12770 0.96320 0.35190 0.06900
C 	C 	0.15660 0.00790 0.31533 0.35500
C 	C 	0.26250 0.97900 0.34213 -0.58400
H 	H 	0.26240 0.01540 0.35010 0.17100
H 	H 	0.26390 0.98120 0.32140 0.17900
H 	H 	0.29400 0.95930 0.34910 0.14700
C 	C 	0.20420 0.89441 0.33954 -0.66000
H 	H 	0.23720 0.87420 0.34350 0.16800
H 	H 	0.19890 0.89720 0.31900 0.20600
H 	H 	0.17340 0.87570 0.34800 0.17200
C 	C 	0.04190 0.92150 0.44659 0.33200
C 	C 	0.00040 0.87990 0.43991 -0.28500
H 	H 	0.01290 0.85920 0.42300 0.10600
C 	C 	0.94770 0.90120 0.43381 0.40300
C 	C 	0.02890 0.95660 0.47223 -0.62700
H 	H 	0.05760 0.98300 0.47500 0.16300
H 	H 	0.02590 0.93380 0.48910 0.17000
H 	H 	0.99470 0.97530 0.46900 0.19700
C 	C 	0.05140 0.95720 0.41957 -0.60000
H 	H 	0.07790 0.98530 0.42390 0.15700
H 	H 	0.01740 0.97400 0.41390 0.20500
H 	H 	0.06490 0.93470 0.40410 0.16400
C 	C 	0.13273 0.72540 0.51714 0.52700
C 	C 	0.07980 0.74310 0.53089 -0.31400
H 	H 	0.08820 0.77490 0.54310 0.09000
C 	C 	0.44610 0.20150 0.70042 0.38400
C 	C 	0.12530 0.67800 0.49874 -0.86200
H 	H 	0.09660 0.68520 0.48510 0.25000
H 	H 	0.11560 0.64680 0.51030 0.26800
H 	H 	0.15890 0.67050 0.48860 0.23400
C 	C 	0.17390 0.71910 0.53831 -0.87300
H 	H 	0.17660 0.75220 0.54950 0.23800
H 	H 	0.20850 0.71200 0.52910 0.23100
H 	H 	0.16470 0.68890 0.55070 0.27600
C 	C 	0.15487 0.71270 0.40122 0.27900
C 	C 	0.15250 0.70500 0.36980 -0.22700
H 	H 	0.13680 0.73910 0.36210 0.07300
C 	C 	0.11550 0.66180 0.36070 0.34900
C 	C 	0.17750 0.65910 0.41546 -0.54100
H 	H 	0.17890 0.66380 0.43600 0.13800
H 	H 	0.21370 0.65180 0.40830 0.14600
H 	H 	0.15370 0.62890 0.41080 0.17100
C 	C 	0.09830 0.72610 0.41423 -0.57000
H 	H 	0.10170 0.73000 0.43480 0.14900
H 	H 	0.07310 0.69680 0.40990 0.19300
H 	H 	0.08480 0.75970 0.40610 0.16700
C 	C 	0.37510 0.81155 0.36350 0.35200
C 	C 	0.38030 0.75460 0.35403 -0.28300
H 	H 	0.39440 0.73420 0.37070 0.08900
C 	C 	0.41950 0.74150 0.32882 0.45100
C 	C 	0.35630 0.84550 0.34092 -0.67200
H 	H 	0.35490 0.88290 0.34750 0.17800
H 	H 	0.32020 0.83390 0.33510 0.16900
H 	H 	0.38100 0.84270 0.32480 0.19600
C 	C 	0.43560 0.82700 0.37539 -0.59100
H 	H 	0.44550 0.80230 0.39070 0.16800
H 	H 	0.43540 0.86400 0.38260 0.15400
H 	H 	0.46180 0.82400 0.36000 0.20500
O 	O 	0.41877 0.07001 0.68682 -0.39500
O 	O 	0.34090 0.09090 0.66524 -0.39300
C 	C 	0.36919 0.06660 0.68618 0.37800
C 	C 	0.33650 0.04630 0.71426 -0.60100
H 	H 	0.29770 0.04650 0.71030 0.19400
H 	H 	0.34420 0.07060 0.73010 0.17800
H 	H 	0.34790 0.00980 0.71920 0.19300
La	La	0.34061 0.72549 0.26030 0.96300
La	La	0.39085 0.45248 0.47873 0.93700
La	La	0.43322 0.46994 0.45827 0.79000
O 	O 	0.44610 0.37200 0.48150 -0.60600
O 	O 	0.35400 0.48970 0.42326 -0.34200
Ag	Ag	0.65550 0.71720 0.77211 0.49800
Ag	Ag	0.60959 0.85082 0.75127 0.50800
Ag	Ag	0.49703 0.81454 0.71317 0.49400
Ag	Ag	0.55643 0.67537 0.72761 0.50300
Ag	Ag	0.73580 0.72863 0.71075 0.51000
Ag	Ag	0.71523 0.87506 0.68992 0.49300
Ag	Ag	0.59222 0.80243 0.65594 0.51200
Ag	Ag	0.63979 0.65343 0.65635 0.49400
Pd	Pd	0.49601 0.75874 0.79556 0.72200
Pd	Pd	0.77235 0.83499 0.77134 0.71600
Pd	Pd	0.57007 0.95508 0.68763 0.71500
Pd	Pd	0.47579 0.68848 0.65414 0.72700
Pd	Pd	0.68346 0.57371 0.73062 0.70700
Pd	Pd	0.74709 0.76483 0.62710 0.71000
Br	Br	0.62435 0.76445 0.71095 -0.63600
La	La	0.37738 0.92337 0.88724 1.50900
S 	S 	0.55792 0.69884 0.78039 -0.49000
S 	S 	0.51457 0.82666 0.76496 -0.46200
S 	S 	0.68665 0.81102 0.77995 -0.47900
S 	S 	0.77179 0.81984 0.72391 -0.47800
S 	S 	0.63660 0.91983 0.71558 -0.45600
S 	S 	0.53139 0.87538 0.67550 -0.46800
S 	S 	0.48007 0.71752 0.69939 -0.45700
S 	S 	0.56002 0.71050 0.64102 -0.46000
S 	S 	0.61563 0.60691 0.70306 -0.45500
S 	S 	0.71516 0.65390 0.74594 -0.50900
S 	S 	0.73043 0.69945 0.65967 -0.45400
S 	S 	0.68834 0.82713 0.64347 -0.46800
O 	O 	0.45147 0.60915 0.85049 -0.31500
O 	O 	0.53560 0.59377 0.86679 -0.29900
O 	O 	0.39273 0.88725 0.83831 -0.45900
O 	O 	0.37410 0.93570 0.80173 -0.34900
O 	O 	0.76248 0.87497 0.86919 -0.37800
O 	O 	0.72280 0.79790 0.87721 -0.30000
O 	O 	0.95630 0.85910 0.75617 -0.34800
O 	O 	0.94200 0.90230 0.71165 -0.45600
O 	O 	0.63900 0.11343 0.72557 -0.33100
O 	O 	0.72040 0.08910 0.72339 -0.32200
O 	O 	0.47495 0.93372 0.88133 -0.50500
O 	O 	0.53607 0.87236 0.89345 -0.30700
O 	O 	0.30215 0.63752 0.68527 -0.30200
O 	O 	0.29044 0.71346 0.70711 -0.29800
O 	O 	0.45215 0.67186 0.55777 -0.35600
O 	O 	0.53071 0.63590 0.54858 -0.29400
O 	O 	0.58910 0.41544 0.70419 -0.35000
O 	O 	0.58580 0.43810 0.65990 -0.32100
O 	O 	0.32184 0.98894 0.95876 -0.31400
O 	O 	0.31006 0.92279 0.92730 -0.45500
O 	O 	0.88188 0.64279 0.60313 -0.28700
O 	O 	0.83844 0.56780 0.61008 -0.32200
O 	O 	0.76500 0.89461 0.55564 -0.47600
O 	O 	0.75589 0.96566 0.58120 -0.37300
N 	N 	0.48150 0.70476 0.82573 -0.27800
H 	H 	0.47550 0.72290 0.84240 0.09500
H 	H 	0.45020 0.68680 0.82120 0.11500
N 	N 	0.43568 0.80879 0.81039 -0.26200
H 	H 	0.40420 0.78940 0.81110 0.10400
H 	H 	0.44410 0.81870 0.82860 0.09700
N 	N 	0.78008 0.84110 0.81547 -0.26500
H 	H 	0.81200 0.82560 0.82100 0.08700
H 	H 	0.78120 0.87690 0.82050 0.11000
N 	N 	0.84940 0.86780 0.76501 -0.27300
H 	H 	0.85160 0.90080 0.77370 0.11200
H 	H 	0.87490 0.84560 0.77300 0.09800
N 	N 	0.60522 0.02647 0.69565 -0.27100
H 	H 	0.60890 0.04470 0.67880 0.10900
H 	H 	0.58250 0.04630 0.70700 0.09400
N 	N 	0.50938 0.98829 0.66439 -0.25700
H 	H 	0.50100 0.02130 0.67200 0.07700
H 	H 	0.52170 0.99400 0.64630 0.07300
N 	N 	0.39723 0.67230 0.66254 -0.27600
H 	H 	0.37720 0.68050 0.64670 0.13500
H 	H 	0.39380 0.63590 0.66570 0.11200
N 	N 	0.46735 0.66300 0.61236 -0.26600
H 	H 	0.45230 0.62910 0.61230 0.09200
H 	H 	0.44390 0.68580 0.60320 0.11500
N 	N 	0.65968 0.49744 0.71538 -0.25400
H 	H 	0.68980 0.47860 0.71000 0.08300
H 	H 	0.64350 0.47870 0.72990 0.06100
N 	N 	0.73893 0.53962 0.75991 -0.24100
H 	H 	0.72290 0.51120 0.76910 0.05600
H 	H 	0.76830 0.52660 0.75020 0.07300
N 	N 	0.79601 0.70986 0.60963 -0.26300
H 	H 	0.78890 0.70930 0.59050 0.05200
H 	H 	0.83070 0.72220 0.61170 0.07800
N 	N 	0.76826 0.82013 0.59834 -0.25600
H 	H 	0.80520 0.82170 0.59760 0.05700
H 	H 	0.75640 0.80890 0.58090 0.02600
C 	C 	0.54220 0.63820 0.80333 0.44600
C 	C 	0.52480 0.66390 0.83068 -0.23800
H 	H 	0.55640 0.68120 0.84010 0.08300
C 	C 	0.49880 0.61670 0.85178 0.33400
C 	C 	0.50400 0.60430 0.79033 -0.83600
H 	H 	0.51930 0.58920 0.77290 0.22400
H 	H 	0.47170 0.62510 0.78570 0.23900
H 	H 	0.49460 0.57500 0.80330 0.25900
C 	C 	0.59540 0.60790 0.80956 -0.70800
H 	H 	0.62110 0.63250 0.81850 0.19800
H 	H 	0.61050 0.59420 0.79180 0.18500
H 	H 	0.58810 0.57770 0.82240 0.23100
C 	C 	0.47720 0.88210 0.78354 0.31700
C 	C 	0.42604 0.85774 0.79384 -0.26200
H 	H 	0.40340 0.84820 0.77710 0.09100
C 	C 	0.39480 0.89550 0.81241 0.41500
C 	C 	0.51310 0.89870 0.80940 -0.59500
H 	H 	0.54670 0.91480 0.80250 0.15800
H 	H 	0.52140 0.86680 0.82080 0.17000
H 	H 	0.49380 0.92500 0.82100 0.19400
C 	C 	0.47130 0.92630 0.76042 -0.60400
H 	H 	0.50700 0.94030 0.75550 0.15900
H 	H 	0.44890 0.95570 0.76770 0.19800
H 	H 	0.45440 0.91080 0.74360 0.16500
C 	C 	0.68100 0.83100 0.81844 0.40300
C 	C 	0.73460 0.81440 0.83080 -0.26000
H 	H 	0.73870 0.77440 0.82990 0.08600
C 	C 	0.74380 0.83520 0.86264 0.41200
C 	C 	0.67140 0.89265 0.81984 -0.66800
H 	H 	0.70190 0.91140 0.81110 0.19200
H 	H 	0.66800 0.90380 0.83970 0.20600
H 	H 	0.63830 0.90170 0.80960 0.17700
C 	C 	0.63650 0.80150 0.83068 -0.75600
H 	H 	0.60260 0.81400 0.82240 0.20700
H 	H 	0.63580 0.80740 0.85120 0.24900
H 	H 	0.64100 0.76300 0.82680 0.20800
C 	C 	0.84500 0.82460 0.71754 0.40400
C 	C 	0.86060 0.87390 0.73379 -0.22600
H 	H 	0.84320 0.90700 0.72590 0.07600
C 	C 	0.92590 0.87890 0.73394 0.25000
C 	C 	0.87110 0.76850 0.72796 -0.61500
H 	H 	0.86640 0.76490 0.74850 0.16500
H 	H 	0.90950 0.76810 0.72340 0.18900
H 	H 	0.85310 0.73850 0.71840 0.15400
C 	C 	0.85280 0.82900 0.68840 -0.79300
H 	H 	0.84130 0.79560 0.67920 0.21500
H 	H 	0.89100 0.83530 0.68450 0.25900
H 	H 	0.83150 0.85920 0.68110 0.21900
C 	C 	0.65880 0.98270 0.73328 0.34800
C 	C 	0.65920 0.02378 0.70970 -0.26500
H 	H 	0.68710 0.01380 0.69540 0.09700
C 	C 	0.67220 0.07700 0.72187 0.37900
C 	C 	0.61780 0.99410 0.75596 -0.63400
H 	H 	0.58320 0.00270 0.74710 0.17700
H 	H 	0.62980 0.02470 0.76740 0.19200
H 	H 	0.61380 0.96230 0.76810 0.16300
C 	C 	0.71250 0.96760 0.74751 -0.63200
H 	H 	0.73900 0.95820 0.73300 0.17600
H 	H 	0.70700 0.93680 0.76010 0.16600
H 	H 	0.72570 0.99830 0.75850 0.20100
C 	C 	0.47600 0.89980 0.65151 0.34600
C 	C 	0.46070 0.95661 0.66287 -0.24600
H 	H 	0.44470 0.95320 0.68220 0.08300
C 	C 	0.51150 0.92030 0.89288 0.44500
C 	C 	0.49680 0.90270 0.62072 -0.61400
H 	H 	0.50580 0.86640 0.61410 0.16500
H 	H 	0.52900 0.92540 0.62000 0.17200
H 	H 	0.46880 0.91820 0.60850 0.18800
C 	C 	0.43540 0.85550 0.65284 -0.66500
H 	H 	0.45070 0.82270 0.64460 0.18800
H 	H 	0.40320 0.86600 0.64220 0.22200
H 	H 	0.42560 0.84880 0.67260 0.18500
C 	C 	0.41120 0.69480 0.71278 0.35200
C 	C 	0.37360 0.70230 0.68768 -0.25700
H 	H 	0.37140 0.74150 0.68300 0.10500
C 	C 	0.31890 0.68220 0.69439 0.37600
C 	C 	0.41850 0.63246 0.72011 -0.59900
H 	H 	0.42770 0.61270 0.70280 0.17000
H 	H 	0.38480 0.61830 0.72790 0.17800
H 	H 	0.44740 0.62820 0.73400 0.15100
C 	C 	0.39800 0.72450 0.73840 -0.70500
H 	H 	0.42430 0.71600 0.75320 0.18500
H 	H 	0.36190 0.71450 0.74480 0.23800
H 	H 	0.39900 0.76320 0.73440 0.19900
C 	C 	0.55190 0.70850 0.60159 0.33800
C 	C 	0.51670 0.66140 0.59704 -0.22100
H 	H 	0.53680 0.62770 0.60190 0.06900
C 	C 	0.49210 0.65660 0.56533 0.35800
C 	C 	0.52100 0.76250 0.59213 -0.58800
H 	H 	0.48460 0.76240 0.60010 0.17300
H 	H 	0.51880 0.76390 0.57140 0.18000
H 	H 	0.54070 0.79400 0.59910 0.14800
C 	C 	0.60559 0.70420 0.58954 -0.66200
H 	H 	0.62580 0.73720 0.59350 0.16800
H 	H 	0.60280 0.69890 0.56900 0.20600
H 	H 	0.62430 0.67340 0.59800 0.17200
C 	C 	0.57850 0.54190 0.69659 0.33200
C 	C 	0.62010 0.50040 0.68991 -0.28700
H 	H 	0.64080 0.51290 0.67300 0.10600
C 	C 	0.59880 0.44770 0.68381 0.40400
C 	C 	0.54340 0.52890 0.72223 -0.62900
H 	H 	0.51700 0.55760 0.72500 0.16300
H 	H 	0.56620 0.52590 0.73910 0.17000
H 	H 	0.52470 0.49470 0.71900 0.19800
C 	C 	0.54280 0.55140 0.66957 -0.60000
H 	H 	0.51470 0.57790 0.67390 0.15700
H 	H 	0.52600 0.51740 0.66390 0.20400
H 	H 	0.56530 0.56490 0.65410 0.16300
C 	C 	0.77460 0.63273 0.76714 0.52700
C 	C 	0.75690 0.57980 0.78089 -0.31400
H 	H 	0.72510 0.58820 0.79310 0.09000
C 	C 	0.29850 0.94610 0.95042 0.38400
C 	C 	0.82200 0.62530 0.74874 -0.86200
H 	H 	0.81480 0.59660 0.73510 0.25000
H 	H 	0.85320 0.61560 0.76030 0.26800
H 	H 	0.82950 0.65890 0.73860 0.23400
C 	C 	0.78090 0.67390 0.78831 -0.87300
H 	H 	0.74780 0.67660 0.79950 0.23800
H 	H 	0.78800 0.70850 0.77910 0.23100
H 	H 	0.81110 0.66470 0.80070 0.27600
C 	C 	0.78730 0.65487 0.65122 0.27900
C 	C 	0.79500 0.65250 0.61980 -0.22700
H 	H 	0.76090 0.63680 0.61210 0.07300
C 	C 	0.83820 0.61550 0.61070 0.34900
C 	C 	0.84090 0.67750 0.66546 -0.54100
H 	H 	0.83620 0.67890 0.68600 0.13800
H 	H 	0.84820 0.71370 0.65830 0.14600
H 	H 	0.87110 0.65370 0.66080 0.17100
C 	C 	0.77390 0.59830 0.66423 -0.57000
H 	H 	0.77000 0.60170 0.68480 0.14900
H 	H 	0.80320 0.57310 0.65990 0.19300
H 	H 	0.74030 0.58480 0.65610 0.16700
C 	C 	0.68845 0.87510 0.61350 0.35200
C 	C 	0.74540 0.88030 0.60403 -0.28300
H 	H 	0.76580 0.89440 0.62070 0.08900
C 	C 	0.75850 0.91950 0.57882 0.45200
C 	C 	0.65450 0.85630 0.59092 -0.67200
H 	H 	0.61710 0.85490 0.59750 0.17800
H 	H 	0.66610 0.82020 0.58510 0.16900
H 	H 	0.65730 0.88100 0.57480 0.19600
C 	C 	0.67300 0.93560 0.62539 -0.59100
H 	H 	0.69770 0.94550 0.64070 0.16800
H 	H 	0.63600 0.93540 0.63260 0.15400
H 	H 	0.67600 0.96180 0.61000 0.20500
O 	O 	0.42999 0.91877 0.93682 -0.39500
O 	O 	0.40910 0.84090 0.91524 -0.39300
C 	C 	0.43340 0.86919 0.93618 0.37800
C 	C 	0.45370 0.83650 0.96426 -0.60100
H 	H 	0.45350 0.79770 0.96030 0.19400
H 	H 	0.42940 0.84420 0.98010 0.17800
H 	H 	0.49020 0.84790 0.96920 0.19300
La	La	0.77451 0.84061 0.51030 0.96300
La	La	0.04752 0.89085 0.72873 0.93700
La	La	0.03006 0.93322 0.70827 0.79000
O 	O 	0.12800 0.94610 0.73150 -0.60600
O 	O 	0.01030 0.85400 0.67326 -0.34100
Ag	Ag	0.34450 0.28280 0.27211 0.49800
Ag	Ag	0.39041 0.14918 0.25127 0.50800
Ag	Ag	0.50297 0.18546 0.21317 0.49400
Ag	Ag	0.44357 0.32463 0.22761 0.50300
Ag	Ag	0.26420 0.27137 0.21075 0.51000
Ag	Ag	0.28477 0.12494 0.18992 0.49300
Ag	Ag	0.40778 0.19757 0.15594 0.51200
Ag	Ag	0.36021 0.34657 0.15635 0.49400
Pd	Pd	0.50399 0.24126 0.29556 0.72200
Pd	Pd	0.22765 0.16501 0.27134 0.71600
Pd	Pd	0.42993 0.04492 0.18763 0.71500
Pd	Pd	0.52421 0.31152 0.15414 0.72700
Pd	Pd	0.31654 0.42629 0.23062 0.70700
Pd	Pd	0.25291 0.23517 0.12710 0.71000
Br	Br	0.37565 0.23555 0.21095 -0.63600
La	La	0.62262 0.07663 0.38724 1.50900
S 	S 	0.44208 0.30116 0.28039 -0.49000
S 	S 	0.48543 0.17334 0.26496 -0.46200
S 	S 	0.31335 0.18898 0.27995 -0.47900
S 	S 	0.22821 0.18016 0.22391 -0.47800
S 	S 	0.36340 0.08017 0.21558 -0.45600
S 	S 	0.46861 0.12462 0.17550 -0.46800
S 	S 	0.51993 0.28248 0.19939 -0.45700
S 	S 	0.43998 0.28950 0.14102 -0.46000
S 	S 	0.38437 0.39309 0.20306 -0.45500
S 	S 	0.28484 0.34610 0.24594 -0.50900
S 	S 	0.26957 0.30055 0.15967 -0.45400
S 	S 	0.31166 0.17287 0.14347 -0.46800
O 	O 	0.54853 0.39085 0.35049 -0.31500
O 	O 	0.46440 0.40623 0.36679 -0.29900
O 	O 	0.60727 0.11275 0.33831 -0.45900
O 	O 	0.62590 0.06430 0.30173 -0.34900
O 	O 	0.23752 0.12503 0.36919 -0.37800
O 	O 	0.27720 0.20210 0.37721 -0.30000
O 	O 	0.04370 0.14090 0.25617 -0.34800
O 	O 	0.05800 0.09770 0.21165 -0.45600
O 	O 	0.36100 0.88657 0.22557 -0.33100
O 	O 	0.27960 0.91090 0.22339 -0.32200
O 	O 	0.52505 0.06628 0.38133 -0.50500
O 	O 	0.46393 0.12764 0.39345 -0.30700
O 	O 	0.69785 0.36248 0.18527 -0.30200
O 	O 	0.70956 0.28654 0.20711 -0.29800
O 	O 	0.54785 0.32814 0.05777 -0.35600
O 	O 	0.46929 0.36410 0.04858 -0.29400
O 	O 	0.41090 0.58456 0.20419 -0.35000
O 	O 	0.41420 0.56190 0.15990 -0.32100
O 	O 	0.67816 0.01106 0.45876 -0.31400
O 	O 	0.68994 0.07721 0.42730 -0.45500
O 	O 	0.11812 0.35721 0.10313 -0.28700
O 	O 	0.16156 0.43220 0.11008 -0.32200
O 	O 	0.23500 0.10539 0.05564 -0.47600
O 	O 	0.24411 0.03434 0.08120 -0.37300
N 	N 	0.51850 0.29524 0.32573 -0.27800
H 	H 	0.52450 0.27710 0.34240 0.09500
H 	H 	0.54980 0.31320 0.32120 0.11500
N 	N 	0.56432 0.19121 0.31039 -0.26200
H 	H 	0.59580 0.21060 0.31110 0.10400
H 	H 	0.55590 0.18130 0.32860 0.09700
N 	N 	0.21992 0.15890 0.31547 -0.26500
H 	H 	0.18800 0.17440 0.32100 0.08700
H 	H 	0.21880 0.12310 0.32050 0.11000
N 	N 	0.15060 0.13220 0.26501 -0.27300
H 	H 	0.14840 0.09920 0.27370 0.11200
H 	H 	0.12510 0.15440 0.27300 0.09800
N 	N 	0.39478 0.97353 0.19565 -0.27100
H 	H 	0.39110 0.95530 0.17880 0.10900
H 	H 	0.41750 0.95370 0.20700 0.09400
N 	N 	0.49062 0.01171 0.16439 -0.25700
H 	H 	0.49900 0.97870 0.17200 0.07700
H 	H 	0.47830 0.00600 0.14630 0.07300
N 	N 	0.60277 0.32770 0.16254 -0.27600
H 	H 	0.62280 0.31950 0.14670 0.13500
H 	H 	0.60620 0.36410 0.16570 0.11200
N 	N 	0.53265 0.33700 0.11236 -0.26600
H 	H 	0.54770 0.37090 0.11230 0.09200
H 	H 	0.55610 0.31420 0.10320 0.11500
N 	N 	0.34032 0.50256 0.21538 -0.25400
H 	H 	0.31020 0.52140 0.21000 0.08300
H 	H 	0.35650 0.52130 0.22990 0.06100
N 	N 	0.26107 0.46038 0.25991 -0.24100
H 	H 	0.27710 0.48880 0.26910 0.05600
H 	H 	0.23170 0.47340 0.25020 0.07300
N 	N 	0.20399 0.29014 0.10963 -0.26300
H 	H 	0.21110 0.29070 0.09050 0.05200
H 	H 	0.16930 0.27780 0.11170 0.07800
N 	N 	0.23174 0.17987 0.09834 -0.25600
H 	H 	0.19480 0.17830 0.09760 0.05700
H 	H 	0.24360 0.19110 0.08090 0.02600
C 	C 	0.45780 0.36180 0.30333 0.44600
C 	C 	0.47520 0.33610 0.33068 -0.23800
H 	H 	0.44360 0.31880 0.34010 0.08300
C 	C 	0.50120 0.38330 0.35178 0.33400
C 	C 	0.49600 0.39570 0.29033 -0.83600
H 	H 	0.48070 0.41080 0.27290 0.22400
H 	H 	0.52830 0.37490 0.28570 0.23900
H 	H 	0.50540 0.42500 0.30330 0.25900
C 	C 	0.40460 0.39210 0.30956 -0.70800
H 	H 	0.37890 0.36750 0.31850 0.19800
H 	H 	0.38950 0.40580 0.29180 0.18500
H 	H 	0.41190 0.42230 0.32240 0.23100
C 	C 	0.52280 0.11790 0.28354 0.31700
C 	C 	0.57396 0.14226 0.29384 -0.26200
H 	H 	0.59660 0.15180 0.27710 0.09100
C 	C 	0.60520 0.10450 0.31241 0.41500
C 	C 	0.48690 0.10130 0.30940 -0.59500
H 	H 	0.45330 0.08520 0.30250 0.15800
H 	H 	0.47860 0.13320 0.32080 0.17000
H 	H 	0.50620 0.07500 0.32100 0.19400
C 	C 	0.52870 0.07370 0.26042 -0.60400
H 	H 	0.49300 0.05970 0.25550 0.15900
H 	H 	0.55110 0.04430 0.26770 0.19800
H 	H 	0.54560 0.08920 0.24360 0.16500
C 	C 	0.31900 0.16900 0.31844 0.40300
C 	C 	0.26540 0.18560 0.33080 -0.26000
H 	H 	0.26130 0.22560 0.32990 0.08600
C 	C 	0.25620 0.16480 0.36264 0.41200
C 	C 	0.32860 0.10735 0.31984 -0.66800
H 	H 	0.29810 0.08860 0.31110 0.19200
H 	H 	0.33200 0.09620 0.33970 0.20600
H 	H 	0.36170 0.09830 0.30960 0.17700
C 	C 	0.36350 0.19850 0.33068 -0.75600
H 	H 	0.39740 0.18600 0.32240 0.20700
H 	H 	0.36420 0.19260 0.35120 0.24900
H 	H 	0.35900 0.23700 0.32680 0.20800
C 	C 	0.15500 0.17540 0.21754 0.40400
C 	C 	0.13940 0.12610 0.23379 -0.22600
H 	H 	0.15680 0.09300 0.22590 0.07600
C 	C 	0.07410 0.12110 0.23394 0.25000
C 	C 	0.12890 0.23150 0.22796 -0.61500
H 	H 	0.13360 0.23510 0.24850 0.16500
H 	H 	0.09050 0.23190 0.22340 0.18900
H 	H 	0.14690 0.26150 0.21840 0.15400
C 	C 	0.14720 0.17100 0.18840 -0.79300
H 	H 	0.15870 0.20440 0.17920 0.21500
H 	H 	0.10900 0.16470 0.18450 0.25900
H 	H 	0.16850 0.14080 0.18110 0.21900
C 	C 	0.34120 0.01730 0.23328 0.34800
C 	C 	0.34080 0.97622 0.20970 -0.26500
H 	H 	0.31290 0.98620 0.19540 0.09700
C 	C 	0.32780 0.92300 0.22187 0.37900
C 	C 	0.38220 0.00590 0.25596 -0.63400
H 	H 	0.41680 0.99730 0.24710 0.17700
H 	H 	0.37020 0.97530 0.26740 0.19200
H 	H 	0.38620 0.03770 0.26810 0.16300
C 	C 	0.28750 0.03240 0.24751 -0.63200
H 	H 	0.26100 0.04180 0.23300 0.17600
H 	H 	0.29300 0.06320 0.26010 0.16600
H 	H 	0.27430 0.00170 0.25850 0.20100
C 	C 	0.52400 0.10020 0.15151 0.34600
C 	C 	0.53930 0.04339 0.16287 -0.24600
H 	H 	0.55530 0.04680 0.18220 0.08300
C 	C 	0.48850 0.07970 0.39288 0.44500
C 	C 	0.50320 0.09730 0.12072 -0.61400
H 	H 	0.49420 0.13360 0.11410 0.16500
H 	H 	0.47100 0.07460 0.12000 0.17200
H 	H 	0.53120 0.08180 0.10850 0.18800
C 	C 	0.56460 0.14450 0.15284 -0.66500
H 	H 	0.54930 0.17730 0.14460 0.18800
H 	H 	0.59680 0.13400 0.14220 0.22200
H 	H 	0.57440 0.15120 0.17260 0.18500
C 	C 	0.58880 0.30520 0.21278 0.35200
C 	C 	0.62640 0.29770 0.18768 -0.25700
H 	H 	0.62860 0.25850 0.18300 0.10500
C 	C 	0.68110 0.31780 0.19439 0.37600
C 	C 	0.58150 0.36754 0.22011 -0.59900
H 	H 	0.57230 0.38730 0.20280 0.17000
H 	H 	0.61520 0.38170 0.22790 0.17800
H 	H 	0.55260 0.37180 0.23400 0.15100
C 	C 	0.60200 0.27550 0.23840 -0.70500
H 	H 	0.57570 0.28400 0.25320 0.18500
H 	H 	0.63810 0.28550 0.24480 0.23800
H 	H 	0.60100 0.23680 0.23440 0.19900
C 	C 	0.44810 0.29150 0.10159 0.33800
C 	C 	0.48330 0.33860 0.09704 -0.22100
H 	H 	0.46320 0.37230 0.10190 0.06900
C 	C 	0.50790 0.34340 0.06533 0.35800
C 	C 	0.47900 0.23750 0.09213 -0.58800
H 	H 	0.51540 0.23760 0.10010 0.17300
H 	H 	0.48120 0.23610 0.07140 0.18000
H 	H 	0.45930 0.20600 0.09910 0.14800
C 	C 	0.39441 0.29580 0.08954 -0.66200
H 	H 	0.37420 0.26280 0.09350 0.16800
H 	H 	0.39720 0.30110 0.06900 0.20600
H 	H 	0.37570 0.32660 0.09800 0.17200
C 	C 	0.42150 0.45810 0.19659 0.33200
C 	C 	0.37990 0.49960 0.18991 -0.28700
H 	H 	0.35920 0.48710 0.17300 0.10600
C 	C 	0.40120 0.55230 0.18381 0.40400
C 	C 	0.45660 0.47110 0.22223 -0.62900
H 	H 	0.48300 0.44240 0.22500 0.16300
H 	H 	0.43380 0.47410 0.23910 0.17000
H 	H 	0.47530 0.50530 0.21900 0.19800
C 	C 	0.45720 0.44860 0.16957 -0.60000
H 	H 	0.48530 0.42210 0.17390 0.15700
H 	H 	0.47400 0.48260 0.16390 0.20400
H 	H 	0.43470 0.43510 0.15410 0.16300
C 	C 	0.22540 0.36727 0.26714 0.52700
C 	C 	0.24310 0.42020 0.28089 -0.31400
H 	H 	0.27490 0.41180 0.29310 0.09000
C 	C 	0.70150 0.05390 0.45042 0.38400
C 	C 	0.17800 0.37470 0.24874 -0.86200
H 	H 	0.18520 0.40340 0.23510 0.25000
H 	H 	0.14680 0.38440 0.26030 0.26800
H 	H 	0.17050 0.34110 0.23860 0.23400
C 	C 	0.21910 0.32610 0.28831 -0.87300
H 	H 	0.25220 0.32340 0.29950 0.23800
H 	H 	0.21200 0.29150 0.27910 0.23100
H 	H 	0.18890 0.33530 0.30070 0.27600
C 	C 	0.21270 0.34513 0.15122 0.27900
C 	C 	0.20500 0.34750 0.11980 -0.22700
H 	H 	0.23910 0.36320 0.11210 0.07300
C 	C 	0.16180 0.38450 0.11070 0.34900
C 	C 	0.15910 0.32250 0.16546 -0.54100
H 	H 	0.16380 0.32110 0.18600 0.13800
H 	H 	0.15180 0.28630 0.15830 0.14600
H 	H 	0.12890 0.34630 0.16080 0.17100
C 	C 	0.22610 0.40170 0.16423 -0.57000
H 	H 	0.23000 0.39830 0.18480 0.14900
H 	H 	0.19680 0.42690 0.15990 0.19300
H 	H 	0.25970 0.41520 0.15610 0.16700
C 	C 	0.31155 0.12490 0.11350 0.35200
C 	C 	0.25460 0.11970 0.10403 -0.28300
H 	H 	0.23420 0.10560 0.12070 0.08900
C 	C 	0.24150 0.08050 0.07882 0.45200
C 	C 	0.34550 0.14370 0.09092 -0.67200
H 	H 	0.38290 0.14510 0.09750 0.17800
H 	H 	0.33390 0.17980 0.08510 0.16900
H 	H 	0.34270 0.11900 0.07480 0.19600
C 	C 	0.32700 0.06440 0.12539 -0.59100
H 	H 	0.30230 0.05450 0.14070 0.16800
H 	H 	0.36400 0.06460 0.13260 0.15400
H 	H 	0.32400 0.03820 0.11000 0.20500
O 	O 	0.57001 0.08123 0.43682 -0.39500
O 	O 	0.59090 0.15910 0.41524 -0.39300
C 	C 	0.56660 0.13081 0.43618 0.37800
C 	C 	0.54630 0.16350 0.46426 -0.60100
H 	H 	0.54650 0.20230 0.46030 0.19400
H 	H 	0.57060 0.15580 0.48010 0.17800
H 	H 	0.50980 0.15210 0.46920 0.19300
La	La	0.22549 0.15939 0.01030 0.96300
La	La	0.95248 0.10915 0.22873 0.93700
La	La	0.96994 0.06678 0.20827 0.79000
O 	O 	0.87200 0.05390 0.23150 -0.60600
O 	O 	0.98970 0.14600 0.17326 -0.34100
