data_crystal

_cell_length_a 24.61400
_cell_length_b 24.61400
_cell_length_c 47.33200
_cell_angle_alpha 90.00000
_cell_angle_beta  90.00000
_cell_angle_gamma 90.00000

_symmetry_space_group_name_	'P 1'
_symmetry_space_group_name_H-M	'P 1'

loop_
_symmetry_equiv_pos_as_xyz
  x,y,z

loop_
_atom_site_label
_atom_site_type_symbol
_atom_site_fract_x
_atom_site_fract_y
_atom_site_fract_z
_atom_site_charge
Ag	Ag	0.71794 0.65908 0.22818 0.49700
Ag	Ag	0.64601 0.11056 0.00087 0.50300
Ag	Ag	0.68697 0.99880 0.96209 0.49200
Ag	Ag	0.67157 0.55607 0.27230 0.49800
Ag	Ag	0.72797 0.74295 0.28991 0.50200
Ag	Ag	0.87462 0.71386 0.31155 0.49600
Ag	Ag	0.40753 0.19996 0.15255 0.50700
Ag	Ag	0.65111 0.64164 0.34256 0.49500
Pd	Pd	0.75814 0.49800 0.20505 0.72200
Pd	Pd	0.83731 0.77653 0.23060 0.72300
Pd	Pd	0.43166 0.04526 0.18614 0.71300
Pd	Pd	0.81565 0.97602 0.90364 0.72700
Pd	Pd	0.57241 0.68649 0.26797 0.70600
Pd	Pd	0.76195 0.74832 0.37398 0.70900
I 	I 	0.73655 0.12644 0.95947 -0.58700
La	La	0.57930 0.88002 0.13572 1.48700
S 	S 	0.69781 0.56069 0.21995 -0.45800
S 	S 	0.67359 0.01481 0.01389 -0.46400
S 	S 	0.81357 0.68939 0.22138 -0.44400
S 	S 	0.82221 0.77552 0.27806 -0.51800
S 	S 	0.57741 0.13690 0.96416 -0.44900
S 	S 	0.46849 0.12653 0.17334 -0.46400
S 	S 	0.78543 0.98055 0.94859 -0.48400
S 	S 	0.43903 0.29390 0.13974 -0.47300
S 	S 	0.60264 0.61811 0.29622 -0.45400
S 	S 	0.65404 0.71944 0.25419 -0.49200
S 	S 	0.69739 0.73346 0.34074 -0.46700
S 	S 	0.82647 0.69084 0.35797 -0.48700
O 	O 	0.60938 0.45656 0.14878 -0.31700
O 	O 	0.59175 0.53800 0.13414 -0.36300
O 	O 	0.61493 0.89146 0.08712 -0.46400
O 	O 	0.56360 0.87080 0.04893 -0.36600
O 	O 	0.87646 0.76655 0.13268 -0.34900
O 	O 	0.79845 0.72670 0.12396 -0.31000
O 	O 	0.84650 0.96010 0.24293 -0.23900
O 	O 	0.89400 0.95370 0.28214 -0.77400
O 	O 	0.38360 0.13159 0.97427 -0.42500
O 	O 	0.40110 0.21931 0.96794 -0.34600
O 	O 	0.57284 0.97901 0.12917 -0.47700
O 	O 	0.63243 0.04323 0.14206 -0.31800
O 	O 	0.86443 0.80034 0.93468 -0.30900
O 	O 	0.78610 0.78610 0.95652 -0.31700
O 	O 	0.54790 0.33620 0.05694 -0.33400
O 	O 	0.46820 0.37140 0.04783 -0.33000
O 	O 	0.41040 0.59430 0.29129 -0.46400
O 	O 	0.43080 0.59160 0.33895 -0.30300
O 	O 	0.51455 0.82545 0.20648 -0.34700
O 	O 	0.58195 0.81335 0.17592 -0.46700
O 	O 	0.64384 0.88817 0.39585 -0.34500
O 	O 	0.56603 0.84180 0.39026 -0.30200
O 	O 	0.88674 0.76670 0.44499 -0.55400
O 	O 	0.96191 0.75420 0.42123 -0.39100
N 	N 	0.70461 0.48373 0.17426 -0.27600
H 	H 	0.72340 0.47900 0.15760 0.08500
H 	H 	0.68710 0.45160 0.17820 0.11600
N 	N 	0.69318 0.93594 0.05949 -0.26900
H 	H 	0.71330 0.90450 0.05980 0.10300
H 	H 	0.68330 0.94360 0.07780 0.09800
N 	N 	0.84340 0.78510 0.18818 -0.28000
H 	H 	0.83010 0.81870 0.18320 0.08300
H 	H 	0.87960 0.78410 0.18320 0.11000
N 	N 	0.86990 0.85282 0.23704 -0.19500
H 	H 	0.90350 0.85410 0.22860 0.08400
H 	H 	0.84810 0.87790 0.22810 0.05600
N 	N 	0.46965 0.10003 0.94543 -0.27300
H 	H 	0.44910 0.10020 0.92920 0.10700
H 	H 	0.45270 0.07740 0.95820 0.09600
N 	N 	0.49275 0.01200 0.16276 -0.26500
H 	H 	0.50330 0.97990 0.17100 0.08000
H 	H 	0.47980 0.00410 0.14500 0.07100
N 	N 	0.83056 0.89553 0.91150 -0.27000
H 	H 	0.81950 0.87530 0.89620 0.13200
H 	H 	0.86740 0.89050 0.91370 0.11000
N 	N 	0.53140 0.34340 0.11309 -0.26700
H 	H 	0.54830 0.37670 0.11380 0.08500
H 	H 	0.55440 0.32020 0.10370 0.11300
N 	N 	0.49760 0.66333 0.28290 -0.24500
H 	H 	0.47860 0.69430 0.28740 0.04600
H 	H 	0.47930 0.64660 0.26840 0.02400
N 	N 	0.54258 0.74080 0.23718 -0.23100
H 	H 	0.51560 0.72380 0.22700 0.02700
H 	H 	0.52740 0.77030 0.24610 0.05300
N 	N 	0.70726 0.79876 0.39164 -0.25200
H 	H 	0.70600 0.79110 0.41070 0.03800
H 	H 	0.72040 0.83360 0.38980 0.06100
N 	N 	0.81932 0.76760 0.40349 -0.24500
H 	H 	0.82020 0.80480 0.40540 0.04100
H 	H 	0.80850 0.75340 0.42060 0.03900
C 	C 	0.63980 0.54400 0.19598 0.26800
C 	C 	0.66440 0.52510 0.16989 -0.19700
H 	H 	0.68320 0.55690 0.16110 0.05900
C 	C 	0.61750 0.50610 0.14827 0.34900
C 	C 	0.60300 0.50230 0.20976 -0.58400
H 	H 	0.58760 0.51740 0.22710 0.15200
H 	H 	0.62400 0.46960 0.21430 0.16300
H 	H 	0.57350 0.49280 0.19670 0.18400
C 	C 	0.60770 0.60350 0.19155 -0.49700
H 	H 	0.59150 0.61490 0.20950 0.12200
H 	H 	0.57920 0.59940 0.17730 0.15900
H 	H 	0.63380 0.63110 0.18530 0.12700
C 	C 	0.61825 0.97627 0.03229 0.31700
C 	C 	0.64290 0.92589 0.04265 -0.23500
H 	H 	0.65340 0.90380 0.02580 0.07300
C 	C 	0.60380 0.89000 0.06121 0.37300
C 	C 	0.59700 0.01550 0.05630 -0.58500
H 	H 	0.58080 0.04790 0.04770 0.15600
H 	H 	0.62740 0.02630 0.06840 0.17000
H 	H 	0.56950 0.99670 0.06770 0.18700
C 	C 	0.57580 0.96850 0.00892 -0.60400
H 	H 	0.56030 0.00380 0.00380 0.15900
H 	H 	0.54690 0.94450 0.01570 0.19600
H 	H 	0.59310 0.95220 0.99230 0.15800
C 	C 	0.83290 0.68350 0.18280 0.25500
C 	C 	0.81320 0.74180 0.17137 -0.18500
H 	H 	0.77290 0.74630 0.17270 0.06000
C 	C 	0.83455 0.74560 0.13919 0.36600
C 	C 	0.89710 0.67630 0.18210 -0.54000
H 	H 	0.91440 0.70840 0.19040 0.15600
H 	H 	0.90920 0.67210 0.16250 0.16900
H 	H 	0.90720 0.64400 0.19300 0.14200
C 	C 	0.80070 0.63550 0.16973 -0.55500
H 	H 	0.81520 0.60110 0.17700 0.14700
H 	H 	0.80440 0.63640 0.14910 0.18500
H 	H 	0.76230 0.63870 0.17490 0.14600
C 	C 	0.82560 0.84930 0.28392 0.69500
C 	C 	0.87560 0.86837 0.26540 -0.52900
H 	H 	0.91170 0.85890 0.27370 0.54600
C 	C 	0.86440 0.93250 0.26360 0.49600
C 	C 	0.77400 0.87610 0.27568 -0.91500
H 	H 	0.76950 0.87390 0.25510 0.24100
H 	H 	0.77490 0.91430 0.28150 0.24000
H 	H 	0.74350 0.85780 0.28500 0.23300
C 	C 	0.83120 0.85550 0.31198 -1.11400
H 	H 	0.86560 0.83930 0.31810 0.30400
H 	H 	0.80100 0.83740 0.32170 0.29400
H 	H 	0.83100 0.89430 0.31670 0.30700
C 	C 	0.51310 0.15880 0.98144 0.27800
C 	C 	0.47058 0.15660 0.95741 -0.20200
H 	H 	0.48040 0.18320 0.94230 0.08200
C 	C 	0.41250 0.17103 0.97002 0.37500
C 	C 	0.50060 0.11680 0.00533 -0.54700
H 	H 	0.52850 0.11950 0.02010 0.14100
H 	H 	0.50070 0.08010 0.99740 0.14700
H 	H 	0.46490 0.12470 0.01350 0.16800
C 	C 	0.52550 0.21570 0.99421 -0.57000
H 	H 	0.55300 0.21210 0.00910 0.15400
H 	H 	0.49220 0.23100 0.00230 0.18800
H 	H 	0.53910 0.23980 0.97930 0.16000
C 	C 	0.52330 0.10470 0.14882 0.29600
C 	C 	0.54110 0.04830 0.16007 -0.21700
H 	H 	0.55660 0.05360 0.17940 0.07100
C 	C 	0.58600 0.01750 0.14131 0.41100
C 	C 	0.50200 0.10040 0.11905 -0.59400
H 	H 	0.49130 0.13650 0.11230 0.15800
H 	H 	0.47030 0.07620 0.11870 0.16400
H 	H 	0.53040 0.08560 0.10670 0.18400
C 	C 	0.57020 0.15050 0.15085 -0.57000
H 	H 	0.55650 0.18490 0.14330 0.16200
H 	H 	0.60190 0.13890 0.13980 0.19500
H 	H 	0.58080 0.15540 0.17060 0.15600
C 	C 	0.80760 0.91173 0.96181 0.46800
C 	C 	0.80190 0.87560 0.93745 -0.28400
H 	H 	0.76230 0.87520 0.93270 0.09800
C 	C 	0.81830 0.81520 0.94259 0.35700
C 	C 	0.86650 0.91770 0.96801 -0.76500
H 	H 	0.88600 0.92650 0.95060 0.22300
H 	H 	0.88060 0.88360 0.97580 0.22700
H 	H 	0.87180 0.94690 0.98180 0.19900
C 	C 	0.77720 0.89810 0.98722 -0.79900
H 	H 	0.73840 0.89560 0.98270 0.22000
H 	H 	0.78280 0.92640 0.00150 0.20800
H 	H 	0.78980 0.86310 0.99460 0.25300
C 	C 	0.45190 0.30130 0.10144 0.37900
C 	C 	0.48260 0.34960 0.09585 -0.25400
H 	H 	0.46180 0.38270 0.10160 0.07400
C 	C 	0.50380 0.35500 0.06404 0.34800
C 	C 	0.47680 0.24880 0.09090 -0.65700
H 	H 	0.45200 0.21850 0.09480 0.17200
H 	H 	0.51150 0.24250 0.10060 0.18800
H 	H 	0.48310 0.25140 0.07050 0.21100
C 	C 	0.39570 0.30240 0.08769 -0.65400
H 	H 	0.37720 0.26780 0.09110 0.17700
H 	H 	0.39960 0.30810 0.06730 0.22100
H 	H 	0.37430 0.33210 0.09580 0.17500
C 	C 	0.53630 0.58300 0.30176 0.32900
C 	C 	0.49600 0.62679 0.30763 -0.24900
H 	H 	0.50630 0.64710 0.32510 0.09800
C 	C 	0.43840 0.60210 0.31082 0.36700
C 	C 	0.52465 0.54630 0.27655 -0.62100
H 	H 	0.55370 0.51930 0.27470 0.16100
H 	H 	0.52290 0.56830 0.25930 0.16600
H 	H 	0.48980 0.52780 0.27940 0.19300
C 	C 	0.54590 0.54910 0.32904 -0.59500
H 	H 	0.55310 0.57370 0.34490 0.16200
H 	H 	0.57710 0.52500 0.32630 0.15200
H 	H 	0.51350 0.52740 0.33310 0.19600
C 	C 	0.63340 0.77870 0.23183 0.44500
C 	C 	0.58290 0.75920 0.21837 -0.28300
H 	H 	0.59310 0.72760 0.20610 0.07700
C 	C 	0.55750 0.80310 0.19870 0.38300
C 	C 	0.62460 0.82610 0.25066 -0.75500
H 	H 	0.59510 0.81810 0.26390 0.21300
H 	H 	0.61500 0.85800 0.23930 0.23400
H 	H 	0.65800 0.83360 0.26120 0.19700
C 	C 	0.67650 0.78660 0.21037 -0.75000
H 	H 	0.67910 0.75400 0.19850 0.20300
H 	H 	0.71130 0.79290 0.21980 0.19200
H 	H 	0.66750 0.81800 0.19850 0.23800
C 	C 	0.64860 0.79150 0.34927 0.34900
C 	C 	0.65060 0.79850 0.38091 -0.25600
H 	H 	0.63200 0.76630 0.38940 0.08500
C 	C 	0.61960 0.84770 0.38976 0.35300
C 	C 	0.66970 0.84330 0.33564 -0.60800
H 	H 	0.66870 0.83950 0.31500 0.15000
H 	H 	0.70720 0.84980 0.34170 0.15600
H 	H 	0.64690 0.87400 0.34140 0.18500
C 	C 	0.59490 0.77700 0.33633 -0.66500
H 	H 	0.59880 0.77460 0.31580 0.17600
H 	H 	0.56800 0.80490 0.34100 0.21800
H 	H 	0.58270 0.74180 0.34370 0.19000
C 	C 	0.87350 0.68971 0.38809 0.44300
C 	C 	0.87850 0.74720 0.39716 -0.31100
H 	H 	0.89490 0.76940 0.38160 0.09900
C 	C 	0.91450 0.75250 0.42516 0.48100
C 	C 	0.85320 0.65220 0.40863 -0.78600
H 	H 	0.81790 0.66490 0.41560 0.22100
H 	H 	0.87880 0.64980 0.42440 0.22500
H 	H 	0.84900 0.61630 0.39990 0.20400
C 	C 	0.93010 0.67470 0.37579 -0.69400
H 	H 	0.92990 0.63670 0.36960 0.18400
H 	H 	0.95790 0.67970 0.39040 0.22800
H 	H 	0.93820 0.69830 0.35960 0.18900
O 	O 	0.66350 0.91330 0.16502 -0.37200
C 	C 	0.62560 0.93920 0.18710 0.43900
C 	C 	0.67110 0.96250 0.21050 -0.58400
H 	H 	0.70780 0.95790 0.20280 0.16600
H 	H 	0.66770 0.94220 0.22820 0.16200
H 	H 	0.66430 0.00120 0.21400 0.16000
O 	O 	0.58370 0.93450 0.18560 -0.47900
La	La	0.92901 0.03236 0.29265 0.87600
La	La	0.27925 0.15052 0.99193 1.08200
O 	O 	0.32010 0.21950 0.02837 -0.38100
O 	O 	0.88160 0.95730 0.25247 -0.60400
O 	O 	0.91500 0.94350 0.29543 -0.14000
H 	H 	0.90530 0.84380 0.27210 -0.41400
C 	C 	0.90040 0.92740 0.27156 0.55400
La	La	0.86137 0.06581 0.23385 0.63800
La	La	0.95550 0.04240 0.23922 0.14100
La	La	0.88300 0.05440 0.26727 0.05700
La	La	0.82840 0.77130 0.49071 -0.14000
La	La	0.85670 0.81880 0.48419 0.78800
Ag	Ag	0.28206 0.34092 0.72818 0.49600
Ag	Ag	0.35399 0.88944 0.50087 0.50200
Ag	Ag	0.31303 0.00120 0.46209 0.49100
Ag	Ag	0.32843 0.44393 0.77230 0.49700
Ag	Ag	0.27203 0.25705 0.78991 0.50100
Ag	Ag	0.12538 0.28614 0.81155 0.49500
Ag	Ag	0.59247 0.80004 0.65255 0.50600
Ag	Ag	0.34889 0.35836 0.84256 0.49400
Pd	Pd	0.24186 0.50200 0.70505 0.72100
Pd	Pd	0.16269 0.22347 0.73060 0.72200
Pd	Pd	0.56834 0.95474 0.68614 0.71200
Pd	Pd	0.18435 0.02398 0.40364 0.72600
Pd	Pd	0.42759 0.31351 0.76797 0.70500
Pd	Pd	0.23805 0.25168 0.87398 0.70800
I 	I 	0.26345 0.87356 0.45947 -0.58800
La	La	0.42071 0.11998 0.63572 1.48600
S 	S 	0.30219 0.43931 0.71995 -0.45900
S 	S 	0.32641 0.98519 0.51389 -0.46500
S 	S 	0.18643 0.31061 0.72138 -0.44500
S 	S 	0.17779 0.22448 0.77806 -0.51900
S 	S 	0.42259 0.86310 0.46416 -0.45000
S 	S 	0.53151 0.87347 0.67334 -0.46500
S 	S 	0.21457 0.01945 0.44859 -0.48500
S 	S 	0.56097 0.70610 0.63974 -0.47400
S 	S 	0.39736 0.38189 0.79622 -0.45500
S 	S 	0.34596 0.28056 0.75419 -0.49300
S 	S 	0.30261 0.26654 0.84074 -0.46700
S 	S 	0.17353 0.30916 0.85797 -0.48700
O 	O 	0.39062 0.54344 0.64878 -0.31700
O 	O 	0.40825 0.46200 0.63414 -0.36300
O 	O 	0.38507 0.10854 0.58712 -0.46400
O 	O 	0.43640 0.12920 0.54893 -0.36600
O 	O 	0.12354 0.23345 0.63268 -0.34900
O 	O 	0.20155 0.27330 0.62396 -0.31000
O 	O 	0.15350 0.03990 0.74293 -0.23900
O 	O 	0.10600 0.04630 0.78214 -0.77400
O 	O 	0.61640 0.86841 0.47427 -0.42500
O 	O 	0.59890 0.78069 0.46794 -0.34600
O 	O 	0.42716 0.02099 0.62917 -0.47700
O 	O 	0.36757 0.95677 0.64206 -0.31800
O 	O 	0.13557 0.19966 0.43468 -0.30900
O 	O 	0.21390 0.21390 0.45652 -0.31700
O 	O 	0.45210 0.66380 0.55694 -0.33400
O 	O 	0.53180 0.62860 0.54783 -0.33000
O 	O 	0.58960 0.40570 0.79129 -0.46400
O 	O 	0.56920 0.40840 0.83895 -0.30300
O 	O 	0.48545 0.17455 0.70648 -0.34700
O 	O 	0.41805 0.18665 0.67592 -0.46700
O 	O 	0.35616 0.11183 0.89585 -0.34500
O 	O 	0.43397 0.15820 0.89026 -0.30200
O 	O 	0.11326 0.23330 0.94499 -0.55400
O 	O 	0.03809 0.24580 0.92123 -0.39100
N 	N 	0.29539 0.51627 0.67426 -0.27600
H 	H 	0.27660 0.52100 0.65760 0.08500
H 	H 	0.31290 0.54840 0.67820 0.11600
N 	N 	0.30682 0.06406 0.55949 -0.26900
H 	H 	0.28670 0.09550 0.55980 0.10300
H 	H 	0.31670 0.05640 0.57780 0.09800
N 	N 	0.15660 0.21490 0.68818 -0.28000
H 	H 	0.16990 0.18130 0.68320 0.08300
H 	H 	0.12040 0.21590 0.68320 0.11000
N 	N 	0.13010 0.14718 0.73704 -0.19500
H 	H 	0.09650 0.14590 0.72860 0.08400
H 	H 	0.15190 0.12210 0.72810 0.05600
N 	N 	0.53035 0.89997 0.44543 -0.27300
H 	H 	0.55090 0.89980 0.42920 0.10700
H 	H 	0.54730 0.92260 0.45820 0.09600
N 	N 	0.50725 0.98800 0.66276 -0.26500
H 	H 	0.49670 0.02010 0.67100 0.08000
H 	H 	0.52020 0.99590 0.64500 0.07100
N 	N 	0.16944 0.10447 0.41150 -0.27000
H 	H 	0.18050 0.12470 0.39620 0.13200
H 	H 	0.13260 0.10950 0.41370 0.11000
N 	N 	0.46860 0.65660 0.61309 -0.26700
H 	H 	0.45170 0.62330 0.61380 0.08500
H 	H 	0.44560 0.67980 0.60370 0.11300
N 	N 	0.50240 0.33667 0.78290 -0.24500
H 	H 	0.52140 0.30570 0.78740 0.04600
H 	H 	0.52070 0.35340 0.76840 0.02400
N 	N 	0.45742 0.25920 0.73718 -0.23100
H 	H 	0.48440 0.27620 0.72700 0.02700
H 	H 	0.47260 0.22970 0.74610 0.05300
N 	N 	0.29274 0.20124 0.89164 -0.25200
H 	H 	0.29400 0.20890 0.91070 0.03800
H 	H 	0.27960 0.16640 0.88980 0.06100
N 	N 	0.18068 0.23240 0.90349 -0.24500
H 	H 	0.17980 0.19520 0.90540 0.04100
H 	H 	0.19150 0.24660 0.92060 0.03900
C 	C 	0.36020 0.45600 0.69598 0.26800
C 	C 	0.33560 0.47490 0.66989 -0.19700
H 	H 	0.31680 0.44310 0.66110 0.05900
C 	C 	0.38250 0.49390 0.64827 0.34900
C 	C 	0.39700 0.49770 0.70976 -0.58400
H 	H 	0.41240 0.48260 0.72710 0.15200
H 	H 	0.37600 0.53040 0.71430 0.16300
H 	H 	0.42650 0.50720 0.69670 0.18400
C 	C 	0.39230 0.39650 0.69155 -0.49700
H 	H 	0.40850 0.38510 0.70950 0.12200
H 	H 	0.42080 0.40060 0.67730 0.15900
H 	H 	0.36620 0.36890 0.68530 0.12700
C 	C 	0.38175 0.02373 0.53229 0.31700
C 	C 	0.35710 0.07411 0.54265 -0.23500
H 	H 	0.34660 0.09620 0.52580 0.07300
C 	C 	0.39620 0.11000 0.56121 0.37300
C 	C 	0.40300 0.98450 0.55630 -0.58500
H 	H 	0.41920 0.95210 0.54770 0.15600
H 	H 	0.37260 0.97370 0.56840 0.17000
H 	H 	0.43050 0.00330 0.56770 0.18700
C 	C 	0.42420 0.03150 0.50892 -0.60400
H 	H 	0.43970 0.99620 0.50380 0.15900
H 	H 	0.45310 0.05550 0.51570 0.19600
H 	H 	0.40690 0.04780 0.49230 0.15800
C 	C 	0.16710 0.31650 0.68280 0.25500
C 	C 	0.18680 0.25820 0.67137 -0.18500
H 	H 	0.22710 0.25370 0.67270 0.06000
C 	C 	0.16545 0.25440 0.63919 0.36600
C 	C 	0.10290 0.32370 0.68210 -0.54000
H 	H 	0.08560 0.29160 0.69040 0.15600
H 	H 	0.09080 0.32790 0.66250 0.16900
H 	H 	0.09280 0.35600 0.69300 0.14200
C 	C 	0.19930 0.36450 0.66973 -0.55500
H 	H 	0.18480 0.39890 0.67700 0.14700
H 	H 	0.19560 0.36360 0.64910 0.18500
H 	H 	0.23770 0.36130 0.67490 0.14600
C 	C 	0.17440 0.15070 0.78392 0.69500
C 	C 	0.12440 0.13163 0.76540 -0.52900
H 	H 	0.08830 0.14110 0.77370 0.54600
C 	C 	0.13560 0.06750 0.76360 0.49600
C 	C 	0.22600 0.12390 0.77568 -0.91500
H 	H 	0.23050 0.12610 0.75510 0.24100
H 	H 	0.22510 0.08570 0.78150 0.24000
H 	H 	0.25650 0.14220 0.78500 0.23300
C 	C 	0.16880 0.14450 0.81198 -1.11400
H 	H 	0.13440 0.16070 0.81810 0.30400
H 	H 	0.19900 0.16260 0.82170 0.29400
H 	H 	0.16900 0.10570 0.81670 0.30700
C 	C 	0.48690 0.84120 0.48144 0.27800
C 	C 	0.52942 0.84340 0.45741 -0.20200
H 	H 	0.51960 0.81680 0.44230 0.08200
C 	C 	0.58750 0.82897 0.47002 0.37500
C 	C 	0.49940 0.88320 0.50533 -0.54700
H 	H 	0.47150 0.88050 0.52010 0.14100
H 	H 	0.49930 0.91990 0.49740 0.14700
H 	H 	0.53510 0.87530 0.51350 0.16700
C 	C 	0.47450 0.78430 0.49421 -0.57100
H 	H 	0.44700 0.78790 0.50910 0.15400
H 	H 	0.50780 0.76900 0.50230 0.18800
H 	H 	0.46090 0.76020 0.47930 0.16000
C 	C 	0.47670 0.89530 0.64882 0.29600
C 	C 	0.45890 0.95170 0.66007 -0.21700
H 	H 	0.44340 0.94640 0.67940 0.07100
C 	C 	0.41400 0.98250 0.64131 0.41100
C 	C 	0.49800 0.89960 0.61905 -0.59400
H 	H 	0.50870 0.86350 0.61230 0.15800
H 	H 	0.52970 0.92380 0.61870 0.16400
H 	H 	0.46960 0.91440 0.60670 0.18400
C 	C 	0.42980 0.84950 0.65085 -0.57000
H 	H 	0.44350 0.81510 0.64330 0.16200
H 	H 	0.39810 0.86110 0.63980 0.19500
H 	H 	0.41920 0.84460 0.67060 0.15600
C 	C 	0.19240 0.08827 0.46181 0.46800
C 	C 	0.19810 0.12440 0.43745 -0.28400
H 	H 	0.23770 0.12480 0.43270 0.09800
C 	C 	0.18170 0.18480 0.44259 0.35700
C 	C 	0.13350 0.08230 0.46801 -0.76500
H 	H 	0.11400 0.07350 0.45060 0.22300
H 	H 	0.11940 0.11640 0.47580 0.22700
H 	H 	0.12820 0.05310 0.48180 0.19900
C 	C 	0.22280 0.10190 0.48722 -0.79900
H 	H 	0.26160 0.10440 0.48270 0.22000
H 	H 	0.21720 0.07360 0.50150 0.20800
H 	H 	0.21020 0.13690 0.49460 0.25300
C 	C 	0.54810 0.69870 0.60144 0.37900
C 	C 	0.51740 0.65040 0.59585 -0.25400
H 	H 	0.53820 0.61730 0.60160 0.07400
C 	C 	0.49620 0.64500 0.56404 0.34800
C 	C 	0.52320 0.75120 0.59090 -0.65700
H 	H 	0.54800 0.78150 0.59480 0.17200
H 	H 	0.48850 0.75750 0.60060 0.18800
H 	H 	0.51690 0.74860 0.57050 0.21100
C 	C 	0.60430 0.69760 0.58769 -0.65400
H 	H 	0.62280 0.73220 0.59110 0.17700
H 	H 	0.60040 0.69190 0.56730 0.22100
H 	H 	0.62570 0.66790 0.59580 0.17500
C 	C 	0.46370 0.41700 0.80176 0.32900
C 	C 	0.50400 0.37321 0.80763 -0.24900
H 	H 	0.49370 0.35290 0.82510 0.09800
C 	C 	0.56160 0.39790 0.81082 0.36700
C 	C 	0.47535 0.45370 0.77655 -0.62100
H 	H 	0.44630 0.48070 0.77470 0.16100
H 	H 	0.47710 0.43170 0.75930 0.16600
H 	H 	0.51020 0.47220 0.77940 0.19300
C 	C 	0.45410 0.45090 0.82904 -0.59500
H 	H 	0.44690 0.42630 0.84490 0.16200
H 	H 	0.42290 0.47500 0.82630 0.15200
H 	H 	0.48650 0.47260 0.83310 0.19600
C 	C 	0.36660 0.22130 0.73183 0.44500
C 	C 	0.41710 0.24080 0.71837 -0.28300
H 	H 	0.40690 0.27240 0.70610 0.07700
C 	C 	0.44250 0.19690 0.69870 0.38300
C 	C 	0.37540 0.17390 0.75066 -0.75500
H 	H 	0.40490 0.18190 0.76390 0.21300
H 	H 	0.38500 0.14200 0.73930 0.23400
H 	H 	0.34200 0.16640 0.76120 0.19700
C 	C 	0.32350 0.21340 0.71037 -0.75000
H 	H 	0.32090 0.24600 0.69850 0.20300
H 	H 	0.28870 0.20710 0.71980 0.19200
H 	H 	0.33250 0.18200 0.69850 0.23800
C 	C 	0.35140 0.20850 0.84927 0.34900
C 	C 	0.34940 0.20150 0.88091 -0.25600
H 	H 	0.36800 0.23370 0.88940 0.08500
C 	C 	0.38040 0.15230 0.88976 0.35300
C 	C 	0.33030 0.15670 0.83564 -0.60800
H 	H 	0.33130 0.16050 0.81500 0.15000
H 	H 	0.29280 0.15020 0.84170 0.15600
H 	H 	0.35310 0.12600 0.84140 0.18500
C 	C 	0.40510 0.22300 0.83633 -0.66500
H 	H 	0.40120 0.22540 0.81580 0.17600
H 	H 	0.43200 0.19510 0.84100 0.21800
H 	H 	0.41730 0.25820 0.84370 0.19000
C 	C 	0.12650 0.31029 0.88809 0.44300
C 	C 	0.12150 0.25280 0.89716 -0.31100
H 	H 	0.10510 0.23060 0.88160 0.09900
C 	C 	0.08550 0.24750 0.92516 0.48100
C 	C 	0.14680 0.34780 0.90863 -0.78600
H 	H 	0.18210 0.33510 0.91560 0.22100
H 	H 	0.12120 0.35020 0.92440 0.22500
H 	H 	0.15100 0.38370 0.89990 0.20400
C 	C 	0.06990 0.32530 0.87579 -0.69400
H 	H 	0.07010 0.36330 0.86960 0.18400
H 	H 	0.04210 0.32030 0.89040 0.22800
H 	H 	0.06180 0.30170 0.85960 0.18900
O 	O 	0.33650 0.08670 0.66502 -0.37200
C 	C 	0.37440 0.06080 0.68710 0.43900
C 	C 	0.32890 0.03750 0.71050 -0.58400
H 	H 	0.29220 0.04210 0.70280 0.16600
H 	H 	0.33230 0.05780 0.72820 0.16200
H 	H 	0.33570 0.99880 0.71400 0.16000
O 	O 	0.41630 0.06550 0.68560 -0.47900
La	La	0.07099 0.96764 0.79265 0.87600
La	La	0.72075 0.84948 0.49193 1.08200
O 	O 	0.67990 0.78050 0.52837 -0.38100
O 	O 	0.11840 0.04270 0.75247 -0.60400
O 	O 	0.08500 0.05650 0.79543 -0.14000
H 	H 	0.09470 0.15620 0.77210 -0.41400
C 	C 	0.09960 0.07260 0.77156 0.55400
La	La	0.13863 0.93419 0.73385 0.63800
La	La	0.04450 0.95760 0.73922 0.14100
La	La	0.11700 0.94560 0.76727 0.05700
La	La	0.17160 0.22870 0.99071 -0.14000
La	La	0.14330 0.18120 0.98419 0.78800
Ag	Ag	0.84092 0.21794 0.47818 0.49600
Ag	Ag	0.38944 0.14601 0.25087 0.50200
Ag	Ag	0.50120 0.18697 0.21209 0.49200
Ag	Ag	0.94393 0.17157 0.52230 0.49700
Ag	Ag	0.75705 0.22797 0.53991 0.50100
Ag	Ag	0.78614 0.37462 0.56155 0.49500
Ag	Ag	0.30004 0.90753 0.40255 0.50600
Ag	Ag	0.85836 0.15111 0.59256 0.49400
Pd	Pd	0.00200 0.25814 0.45505 0.72100
Pd	Pd	0.72347 0.33731 0.48060 0.72200
Pd	Pd	0.45474 0.93166 0.43614 0.71200
Pd	Pd	0.52398 0.31565 0.15364 0.72600
Pd	Pd	0.81351 0.07241 0.51797 0.70500
Pd	Pd	0.75168 0.26195 0.62398 0.70700
I 	I 	0.37356 0.23655 0.20947 -0.58800
La	La	0.61998 0.07930 0.38572 1.48500
S 	S 	0.93931 0.19781 0.46995 -0.45900
S 	S 	0.48519 0.17359 0.26389 -0.46500
S 	S 	0.81061 0.31357 0.47138 -0.44500
S 	S 	0.72448 0.32221 0.52806 -0.51900
S 	S 	0.36310 0.07741 0.21416 -0.45000
S 	S 	0.37347 0.96849 0.42334 -0.46400
S 	S 	0.51945 0.28543 0.19859 -0.48500
S 	S 	0.20610 0.93903 0.38974 -0.47400
S 	S 	0.88189 0.10264 0.54622 -0.45500
S 	S 	0.78056 0.15404 0.50419 -0.49300
S 	S 	0.76654 0.19739 0.59074 -0.46700
S 	S 	0.80916 0.32647 0.60797 -0.48700
O 	O 	0.04344 0.10938 0.39878 -0.31600
O 	O 	0.96200 0.09175 0.38414 -0.36300
O 	O 	0.60854 0.11493 0.33712 -0.46400
O 	O 	0.62920 0.06360 0.29893 -0.36600
O 	O 	0.73345 0.37646 0.38268 -0.34900
O 	O 	0.77330 0.29845 0.37396 -0.31000
O 	O 	0.53990 0.34650 0.49293 -0.23900
O 	O 	0.54630 0.39400 0.53214 -0.77400
O 	O 	0.36841 0.88360 0.22427 -0.42500
O 	O 	0.28069 0.90110 0.21794 -0.34600
O 	O 	0.52099 0.07284 0.37917 -0.47800
O 	O 	0.45677 0.13243 0.39206 -0.31800
O 	O 	0.69966 0.36443 0.18468 -0.30900
O 	O 	0.71390 0.28610 0.20652 -0.31700
O 	O 	0.16380 0.04790 0.30694 -0.33400
O 	O 	0.12860 0.96820 0.29783 -0.33000
O 	O 	0.90570 0.91040 0.54129 -0.46400
O 	O 	0.90840 0.93080 0.58895 -0.30200
O 	O 	0.67455 0.01455 0.45648 -0.34700
O 	O 	0.68665 0.08195 0.42592 -0.46700
O 	O 	0.61183 0.14384 0.64585 -0.34500
O 	O 	0.65820 0.06603 0.64026 -0.30200
O 	O 	0.73330 0.38674 0.69499 -0.55400
O 	O 	0.74580 0.46191 0.67123 -0.39100
N 	N 	0.01627 0.20461 0.42426 -0.27600
H 	H 	0.02100 0.22340 0.40760 0.08600
H 	H 	0.04840 0.18710 0.42820 0.11600
N 	N 	0.56406 0.19318 0.30949 -0.26900
H 	H 	0.59550 0.21330 0.30980 0.10300
H 	H 	0.55640 0.18330 0.32780 0.09800
N 	N 	0.71490 0.34340 0.43818 -0.28000
H 	H 	0.68130 0.33010 0.43320 0.08300
H 	H 	0.71590 0.37960 0.43320 0.11000
N 	N 	0.64718 0.36990 0.48704 -0.19500
H 	H 	0.64590 0.40350 0.47860 0.08400
H 	H 	0.62210 0.34810 0.47810 0.05600
N 	N 	0.39997 0.96965 0.19543 -0.27200
H 	H 	0.39980 0.94910 0.17920 0.10700
H 	H 	0.42260 0.95270 0.20820 0.09600
N 	N 	0.48800 0.99275 0.41276 -0.26400
H 	H 	0.52010 0.00330 0.42100 0.07900
H 	H 	0.49590 0.97980 0.39500 0.07100
N 	N 	0.60447 0.33056 0.16150 -0.27000
H 	H 	0.62470 0.31950 0.14620 0.13200
H 	H 	0.60950 0.36740 0.16370 0.11000
N 	N 	0.15660 0.03140 0.36309 -0.26700
H 	H 	0.12330 0.04830 0.36380 0.08500
H 	H 	0.17980 0.05440 0.35370 0.11300
N 	N 	0.83667 0.99760 0.53290 -0.24500
H 	H 	0.80570 0.97860 0.53740 0.04700
H 	H 	0.85340 0.97930 0.51840 0.02500
N 	N 	0.75920 0.04258 0.48718 -0.23100
H 	H 	0.77620 0.01560 0.47700 0.02700
H 	H 	0.72970 0.02740 0.49610 0.05300
N 	N 	0.70124 0.20726 0.64164 -0.25200
H 	H 	0.70890 0.20600 0.66070 0.03800
H 	H 	0.66640 0.22040 0.63980 0.06100
N 	N 	0.73240 0.31932 0.65349 -0.24500
H 	H 	0.69520 0.32020 0.65540 0.04100
H 	H 	0.74660 0.30850 0.67060 0.03900
C 	C 	0.95600 0.13980 0.44598 0.26900
C 	C 	0.97490 0.16440 0.41989 -0.19700
H 	H 	0.94310 0.18320 0.41110 0.06000
C 	C 	0.99390 0.11750 0.39827 0.34900
C 	C 	0.99770 0.10300 0.45976 -0.58700
H 	H 	0.98260 0.08760 0.47710 0.15300
H 	H 	0.03040 0.12400 0.46430 0.16400
H 	H 	0.00720 0.07350 0.44670 0.18600
C 	C 	0.89650 0.10770 0.44155 -0.49800
H 	H 	0.88510 0.09150 0.45950 0.12200
H 	H 	0.90060 0.07920 0.42730 0.15900
H 	H 	0.86890 0.13380 0.43530 0.12700
C 	C 	0.52373 0.11825 0.28229 0.31700
C 	C 	0.57411 0.14290 0.29265 -0.23500
H 	H 	0.59620 0.15340 0.27580 0.07300
C 	C 	0.61000 0.10380 0.31121 0.37300
C 	C 	0.48450 0.09700 0.30630 -0.58400
H 	H 	0.45210 0.08080 0.29770 0.15600
H 	H 	0.47370 0.12740 0.31840 0.17000
H 	H 	0.50330 0.06950 0.31770 0.18600
C 	C 	0.53150 0.07580 0.25892 -0.60300
H 	H 	0.49620 0.06030 0.25380 0.15900
H 	H 	0.55550 0.04690 0.26570 0.19600
H 	H 	0.54780 0.09310 0.24230 0.15800
C 	C 	0.81650 0.33290 0.43280 0.25500
C 	C 	0.75820 0.31320 0.42137 -0.18500
H 	H 	0.75370 0.27290 0.42270 0.06000
C 	C 	0.75440 0.33455 0.38919 0.36600
C 	C 	0.82370 0.39710 0.43210 -0.54000
H 	H 	0.79160 0.41440 0.44040 0.15600
H 	H 	0.82790 0.40920 0.41250 0.17000
H 	H 	0.85600 0.40720 0.44300 0.14200
C 	C 	0.86450 0.30070 0.41973 -0.55500
H 	H 	0.89890 0.31520 0.42700 0.14700
H 	H 	0.86360 0.30440 0.39910 0.18500
H 	H 	0.86130 0.26230 0.42490 0.14600
C 	C 	0.65070 0.32560 0.53392 0.69400
C 	C 	0.63163 0.37560 0.51540 -0.52900
H 	H 	0.64110 0.41170 0.52370 0.54700
C 	C 	0.56750 0.36440 0.51360 0.49600
C 	C 	0.62390 0.27400 0.52568 -0.91500
H 	H 	0.62610 0.26950 0.50510 0.24100
H 	H 	0.58570 0.27490 0.53150 0.24000
H 	H 	0.64220 0.24350 0.53500 0.23300
C 	C 	0.64450 0.33120 0.56198 -1.11300
H 	H 	0.66070 0.36560 0.56810 0.30400
H 	H 	0.66260 0.30100 0.57170 0.29400
H 	H 	0.60570 0.33100 0.56670 0.30600
C 	C 	0.34120 0.01310 0.23144 0.27800
C 	C 	0.34340 0.97058 0.20741 -0.20100
H 	H 	0.31680 0.98040 0.19230 0.08200
C 	C 	0.32897 0.91250 0.22002 0.37500
C 	C 	0.38320 0.00060 0.25533 -0.54800
H 	H 	0.38050 0.02850 0.27010 0.14100
H 	H 	0.41990 0.00070 0.24740 0.14700
H 	H 	0.37530 0.96490 0.26350 0.16800
C 	C 	0.28430 0.02550 0.24421 -0.57100
H 	H 	0.28790 0.05300 0.25910 0.15400
H 	H 	0.26900 0.99220 0.25230 0.18800
H 	H 	0.26020 0.03910 0.22930 0.16000
C 	C 	0.39530 0.02330 0.39882 0.29700
C 	C 	0.45170 0.04110 0.41007 -0.21700
H 	H 	0.44640 0.05660 0.42940 0.07100
C 	C 	0.48250 0.08600 0.39131 0.41200
C 	C 	0.39960 0.00200 0.36905 -0.59800
H 	H 	0.36350 0.99130 0.36230 0.15900
H 	H 	0.42380 0.97030 0.36870 0.16500
H 	H 	0.41440 0.03040 0.35670 0.18500
C 	C 	0.34950 0.07020 0.40085 -0.57100
H 	H 	0.31510 0.05650 0.39330 0.16200
H 	H 	0.36110 0.10190 0.38980 0.19500
H 	H 	0.34460 0.08080 0.42060 0.15600
C 	C 	0.58827 0.30760 0.21181 0.46800
C 	C 	0.62440 0.30190 0.18745 -0.28400
H 	H 	0.62480 0.26230 0.18270 0.09800
C 	C 	0.68480 0.31830 0.19259 0.35700
C 	C 	0.58230 0.36650 0.21801 -0.76500
H 	H 	0.57350 0.38600 0.20060 0.22300
H 	H 	0.61640 0.38060 0.22580 0.22700
H 	H 	0.55310 0.37180 0.23180 0.19900
C 	C 	0.60190 0.27720 0.23722 -0.79900
H 	H 	0.60440 0.23840 0.23270 0.22000
H 	H 	0.57360 0.28280 0.25150 0.20800
H 	H 	0.63690 0.28980 0.24460 0.25300
C 	C 	0.19870 0.95190 0.35144 0.37800
C 	C 	0.15040 0.98260 0.34585 -0.25400
H 	H 	0.11730 0.96180 0.35160 0.07300
C 	C 	0.14500 0.00380 0.31404 0.34700
C 	C 	0.25120 0.97680 0.34090 -0.65500
H 	H 	0.28150 0.95200 0.34480 0.17200
H 	H 	0.25750 0.01150 0.35060 0.18800
H 	H 	0.24860 0.98310 0.32050 0.21000
C 	C 	0.19760 0.89570 0.33769 -0.65400
H 	H 	0.23220 0.87720 0.34110 0.17700
H 	H 	0.19190 0.89960 0.31730 0.22100
H 	H 	0.16790 0.87430 0.34580 0.17500
C 	C 	0.91700 0.03630 0.55176 0.32900
C 	C 	0.87321 0.99600 0.55763 -0.24700
H 	H 	0.85290 0.00630 0.57510 0.09700
C 	C 	0.89790 0.93840 0.56082 0.36700
C 	C 	0.95370 0.02465 0.52655 -0.62400
H 	H 	0.98070 0.05370 0.52470 0.16200
H 	H 	0.93170 0.02290 0.50930 0.16600
H 	H 	0.97220 0.98980 0.52940 0.19400
C 	C 	0.95090 0.04590 0.57904 -0.59500
H 	H 	0.92630 0.05310 0.59490 0.16200
H 	H 	0.97500 0.07710 0.57630 0.15200
H 	H 	0.97260 0.01350 0.58310 0.19500
C 	C 	0.72130 0.13340 0.48183 0.44500
C 	C 	0.74080 0.08290 0.46837 -0.28300
H 	H 	0.77240 0.09310 0.45610 0.07700
C 	C 	0.69690 0.05750 0.44870 0.38300
C 	C 	0.67390 0.12460 0.50066 -0.75500
H 	H 	0.68190 0.09510 0.51390 0.21300
H 	H 	0.64200 0.11500 0.48930 0.23400
H 	H 	0.66640 0.15800 0.51120 0.19700
C 	C 	0.71340 0.17650 0.46037 -0.75000
H 	H 	0.74600 0.17910 0.44850 0.20200
H 	H 	0.70710 0.21130 0.46980 0.19200
H 	H 	0.68200 0.16750 0.44850 0.23800
C 	C 	0.70850 0.14860 0.59927 0.34900
C 	C 	0.70150 0.15060 0.63091 -0.25600
H 	H 	0.73370 0.13200 0.63940 0.08500
C 	C 	0.65230 0.11960 0.63976 0.35300
C 	C 	0.65670 0.16970 0.58564 -0.60800
H 	H 	0.66050 0.16870 0.56500 0.15000
H 	H 	0.65020 0.20720 0.59170 0.15500
H 	H 	0.62600 0.14690 0.59140 0.18400
C 	C 	0.72300 0.09490 0.58633 -0.66400
H 	H 	0.72540 0.09880 0.56580 0.17600
H 	H 	0.69510 0.06800 0.59100 0.21800
H 	H 	0.75820 0.08270 0.59370 0.19000
C 	C 	0.81029 0.37350 0.63809 0.44300
C 	C 	0.75280 0.37850 0.64716 -0.31100
H 	H 	0.73060 0.39490 0.63160 0.09900
C 	C 	0.74750 0.41450 0.67516 0.48100
C 	C 	0.84780 0.35320 0.65863 -0.78600
H 	H 	0.83510 0.31790 0.66560 0.22100
H 	H 	0.85020 0.37880 0.67440 0.22500
H 	H 	0.88370 0.34900 0.64990 0.20400
C 	C 	0.82530 0.43010 0.62579 -0.69400
H 	H 	0.86330 0.42990 0.61960 0.18400
H 	H 	0.82030 0.45790 0.64040 0.22800
H 	H 	0.80170 0.43820 0.60960 0.18900
O 	O 	0.58670 0.16350 0.41502 -0.37200
C 	C 	0.56080 0.12560 0.43710 0.43900
C 	C 	0.53750 0.17110 0.46050 -0.58600
H 	H 	0.54210 0.20780 0.45280 0.16600
H 	H 	0.55780 0.16770 0.47820 0.16200
H 	H 	0.49880 0.16430 0.46400 0.16100
O 	O 	0.56550 0.08370 0.43560 -0.47900
La	La	0.46764 0.42901 0.54265 0.87700
La	La	0.34948 0.77925 0.24193 1.08200
O 	O 	0.28050 0.82010 0.27837 -0.38100
O 	O 	0.54270 0.38160 0.50247 -0.60500
O 	O 	0.55650 0.41500 0.54543 -0.14000
H 	H 	0.65620 0.40530 0.52210 -0.41400
C 	C 	0.57260 0.40040 0.52156 0.55400
La	La	0.43419 0.36137 0.48385 0.63800
La	La	0.45760 0.45550 0.48922 0.14200
La	La	0.44560 0.38300 0.51727 0.05700
La	La	0.72870 0.32840 0.74071 -0.14000
La	La	0.68120 0.35670 0.73419 0.78800
Ag	Ag	0.15908 0.78206 0.97818 0.49600
Ag	Ag	0.61056 0.85399 0.75087 0.50200
Ag	Ag	0.49880 0.81303 0.71209 0.49200
Ag	Ag	0.05607 0.82843 0.02230 0.49700
Ag	Ag	0.24295 0.77203 0.03991 0.50100
Ag	Ag	0.21386 0.62538 0.06155 0.49500
Ag	Ag	0.69996 0.09247 0.90255 0.50600
Ag	Ag	0.14164 0.84889 0.09256 0.49400
Pd	Pd	0.99800 0.74186 0.95505 0.72100
Pd	Pd	0.27653 0.66269 0.98060 0.72200
Pd	Pd	0.54526 0.06834 0.93614 0.71200
Pd	Pd	0.47602 0.68435 0.65364 0.72600
Pd	Pd	0.18649 0.92759 0.01797 0.70500
Pd	Pd	0.24832 0.73805 0.12398 0.70700
I 	I 	0.62644 0.76345 0.70947 -0.58800
La	La	0.38002 0.92071 0.88572 1.48500
S 	S 	0.06069 0.80219 0.96995 -0.45900
S 	S 	0.51481 0.82641 0.76389 -0.46500
S 	S 	0.18939 0.68643 0.97138 -0.44500
S 	S 	0.27552 0.67779 0.02806 -0.51900
S 	S 	0.63690 0.92259 0.71416 -0.45000
S 	S 	0.62653 0.03151 0.92334 -0.46400
S 	S 	0.48055 0.71457 0.69859 -0.48500
S 	S 	0.79390 0.06097 0.88974 -0.47400
S 	S 	0.11811 0.89736 0.04622 -0.45500
S 	S 	0.21944 0.84596 0.00419 -0.49300
S 	S 	0.23346 0.80261 0.09074 -0.46700
S 	S 	0.19084 0.67353 0.10797 -0.48700
O 	O 	0.95656 0.89062 0.89878 -0.31600
O 	O 	0.03800 0.90825 0.88414 -0.36300
O 	O 	0.39146 0.88507 0.83712 -0.46400
O 	O 	0.37080 0.93640 0.79893 -0.36600
O 	O 	0.26655 0.62354 0.88268 -0.34900
O 	O 	0.22670 0.70155 0.87396 -0.31000
O 	O 	0.46010 0.65350 0.99293 -0.23900
O 	O 	0.45370 0.60600 0.03214 -0.77400
O 	O 	0.63159 0.11640 0.72427 -0.42500
O 	O 	0.71931 0.09890 0.71794 -0.34600
O 	O 	0.47901 0.92716 0.87917 -0.47800
O 	O 	0.54323 0.86757 0.89206 -0.31800
O 	O 	0.30034 0.63557 0.68468 -0.30900
O 	O 	0.28610 0.71390 0.70652 -0.31700
O 	O 	0.83620 0.95210 0.80694 -0.33400
O 	O 	0.87140 0.03180 0.79783 -0.33000
O 	O 	0.09430 0.08960 0.04129 -0.46400
O 	O 	0.09160 0.06920 0.08895 -0.30200
O 	O 	0.32545 0.98545 0.95648 -0.34700
O 	O 	0.31335 0.91805 0.92592 -0.46700
O 	O 	0.38817 0.85616 0.14585 -0.34500
O 	O 	0.34180 0.93397 0.14026 -0.30200
O 	O 	0.26670 0.61326 0.19499 -0.55400
O 	O 	0.25420 0.53809 0.17123 -0.39100
N 	N 	0.98373 0.79539 0.92426 -0.27600
H 	H 	0.97900 0.77660 0.90760 0.08600
H 	H 	0.95160 0.81290 0.92820 0.11600
N 	N 	0.43594 0.80682 0.80949 -0.26900
H 	H 	0.40450 0.78670 0.80980 0.10300
H 	H 	0.44360 0.81670 0.82780 0.09800
N 	N 	0.28510 0.65660 0.93818 -0.28000
H 	H 	0.31870 0.66990 0.93320 0.08300
H 	H 	0.28410 0.62040 0.93320 0.11000
N 	N 	0.35282 0.63010 0.98704 -0.19500
H 	H 	0.35410 0.59650 0.97860 0.08400
H 	H 	0.37790 0.65190 0.97810 0.05600
N 	N 	0.60003 0.03035 0.69543 -0.27200
H 	H 	0.60020 0.05090 0.67920 0.10700
H 	H 	0.57740 0.04730 0.70820 0.09600
N 	N 	0.51200 0.00725 0.91276 -0.26400
H 	H 	0.47990 0.99670 0.92100 0.07900
H 	H 	0.50410 0.02020 0.89500 0.07100
N 	N 	0.39553 0.66944 0.66150 -0.27000
H 	H 	0.37530 0.68050 0.64620 0.13200
H 	H 	0.39050 0.63260 0.66370 0.11000
N 	N 	0.84340 0.96860 0.86309 -0.26700
H 	H 	0.87670 0.95170 0.86380 0.08500
H 	H 	0.82020 0.94560 0.85370 0.11300
N 	N 	0.16333 0.00240 0.03290 -0.24500
H 	H 	0.19430 0.02140 0.03740 0.04700
H 	H 	0.14660 0.02070 0.01840 0.02500
N 	N 	0.24080 0.95742 0.98718 -0.23100
H 	H 	0.22380 0.98440 0.97700 0.02700
H 	H 	0.27030 0.97260 0.99610 0.05300
N 	N 	0.29876 0.79274 0.14164 -0.25200
H 	H 	0.29110 0.79400 0.16070 0.03800
H 	H 	0.33360 0.77960 0.13980 0.06100
N 	N 	0.26760 0.68068 0.15349 -0.24500
H 	H 	0.30480 0.67980 0.15540 0.04100
H 	H 	0.25340 0.69150 0.17060 0.03900
C 	C 	0.04400 0.86020 0.94598 0.26900
C 	C 	0.02510 0.83560 0.91989 -0.19700
H 	H 	0.05690 0.81680 0.91110 0.06000
C 	C 	0.00610 0.88250 0.89827 0.34900
C 	C 	0.00230 0.89700 0.95976 -0.58700
H 	H 	0.01740 0.91240 0.97710 0.15300
H 	H 	0.96960 0.87600 0.96430 0.16400
H 	H 	0.99280 0.92650 0.94670 0.18600
C 	C 	0.10350 0.89230 0.94155 -0.49800
H 	H 	0.11490 0.90850 0.95950 0.12200
H 	H 	0.09940 0.92080 0.92730 0.15900
H 	H 	0.13110 0.86620 0.93530 0.12700
C 	C 	0.47627 0.88175 0.78229 0.31700
C 	C 	0.42589 0.85710 0.79265 -0.23500
H 	H 	0.40380 0.84660 0.77580 0.07300
C 	C 	0.39000 0.89620 0.81121 0.37300
C 	C 	0.51550 0.90300 0.80630 -0.58400
H 	H 	0.54790 0.91920 0.79770 0.15600
H 	H 	0.52630 0.87260 0.81840 0.17000
H 	H 	0.49670 0.93050 0.81770 0.18600
C 	C 	0.46850 0.92420 0.75892 -0.60300
H 	H 	0.50380 0.93970 0.75380 0.15900
H 	H 	0.44450 0.95310 0.76570 0.19600
H 	H 	0.45220 0.90690 0.74230 0.15800
C 	C 	0.18350 0.66710 0.93280 0.25500
C 	C 	0.24180 0.68680 0.92137 -0.18500
H 	H 	0.24630 0.72710 0.92270 0.06000
C 	C 	0.24560 0.66545 0.88919 0.36600
C 	C 	0.17630 0.60290 0.93210 -0.54000
H 	H 	0.20840 0.58560 0.94040 0.15600
H 	H 	0.17210 0.59080 0.91250 0.17000
H 	H 	0.14400 0.59280 0.94300 0.14200
C 	C 	0.13550 0.69930 0.91973 -0.55500
H 	H 	0.10110 0.68480 0.92700 0.14700
H 	H 	0.13640 0.69560 0.89910 0.18500
H 	H 	0.13870 0.73770 0.92490 0.14600
C 	C 	0.34930 0.67440 0.03392 0.69400
C 	C 	0.36837 0.62440 0.01540 -0.52900
H 	H 	0.35890 0.58830 0.02370 0.54700
C 	C 	0.43250 0.63560 0.01360 0.49600
C 	C 	0.37610 0.72600 0.02568 -0.91500
H 	H 	0.37390 0.73050 0.00510 0.24100
H 	H 	0.41430 0.72510 0.03150 0.24000
H 	H 	0.35780 0.75650 0.03500 0.23300
C 	C 	0.35550 0.66880 0.06198 -1.11300
H 	H 	0.33930 0.63440 0.06810 0.30400
H 	H 	0.33740 0.69900 0.07170 0.29400
H 	H 	0.39430 0.66900 0.06670 0.30600
C 	C 	0.65880 0.98690 0.73144 0.27800
C 	C 	0.65660 0.02942 0.70741 -0.20200
H 	H 	0.68320 0.01960 0.69230 0.08200
C 	C 	0.67103 0.08750 0.72002 0.37500
C 	C 	0.61680 0.99940 0.75533 -0.54800
H 	H 	0.61950 0.97150 0.77010 0.14100
H 	H 	0.58010 0.99930 0.74740 0.14700
H 	H 	0.62470 0.03510 0.76350 0.16800
C 	C 	0.71570 0.97450 0.74421 -0.57100
H 	H 	0.71210 0.94700 0.75910 0.15400
H 	H 	0.73100 0.00780 0.75230 0.18800
H 	H 	0.73980 0.96090 0.72930 0.16000
C 	C 	0.60470 0.97670 0.89882 0.29700
C 	C 	0.54830 0.95890 0.91007 -0.21700
H 	H 	0.55360 0.94340 0.92940 0.07100
C 	C 	0.51750 0.91400 0.89131 0.41200
C 	C 	0.60040 0.99800 0.86905 -0.59800
H 	H 	0.63650 0.00870 0.86230 0.15900
H 	H 	0.57620 0.02970 0.86870 0.16500
H 	H 	0.58560 0.96960 0.85670 0.18500
C 	C 	0.65050 0.92980 0.90085 -0.57100
H 	H 	0.68490 0.94350 0.89330 0.16200
H 	H 	0.63890 0.89810 0.88980 0.19500
H 	H 	0.65540 0.91920 0.92060 0.15600
C 	C 	0.41173 0.69240 0.71181 0.46800
C 	C 	0.37560 0.69810 0.68745 -0.28400
H 	H 	0.37520 0.73770 0.68270 0.09800
C 	C 	0.31520 0.68170 0.69259 0.35700
C 	C 	0.41770 0.63350 0.71801 -0.76500
H 	H 	0.42650 0.61400 0.70060 0.22300
H 	H 	0.38360 0.61940 0.72580 0.22700
H 	H 	0.44690 0.62820 0.73180 0.19900
C 	C 	0.39810 0.72280 0.73722 -0.79900
H 	H 	0.39560 0.76160 0.73270 0.22000
H 	H 	0.42640 0.71720 0.75150 0.20800
H 	H 	0.36310 0.71020 0.74460 0.25300
C 	C 	0.80130 0.04810 0.85144 0.37800
C 	C 	0.84960 0.01740 0.84585 -0.25400
H 	H 	0.88270 0.03820 0.85160 0.07300
C 	C 	0.85500 0.99620 0.81404 0.34700
C 	C 	0.74880 0.02320 0.84090 -0.65500
H 	H 	0.71850 0.04800 0.84480 0.17100
H 	H 	0.74250 0.98850 0.85060 0.18800
H 	H 	0.75140 0.01690 0.82050 0.21000
C 	C 	0.80240 0.10430 0.83769 -0.65400
H 	H 	0.76780 0.12280 0.84110 0.17700
H 	H 	0.80810 0.10040 0.81730 0.22100
H 	H 	0.83210 0.12570 0.84580 0.17500
C 	C 	0.08300 0.96370 0.05176 0.32900
C 	C 	0.12679 0.00400 0.05763 -0.24700
H 	H 	0.14710 0.99370 0.07510 0.09700
C 	C 	0.10210 0.06160 0.06082 0.36700
C 	C 	0.04630 0.97535 0.02655 -0.62300
H 	H 	0.01930 0.94630 0.02470 0.16200
H 	H 	0.06830 0.97710 0.00930 0.16600
H 	H 	0.02780 0.01020 0.02940 0.19400
C 	C 	0.04910 0.95410 0.07904 -0.59500
H 	H 	0.07370 0.94690 0.09490 0.16200
H 	H 	0.02500 0.92290 0.07630 0.15200
H 	H 	0.02740 0.98650 0.08310 0.19500
C 	C 	0.27870 0.86660 0.98183 0.44500
C 	C 	0.25920 0.91710 0.96837 -0.28300
H 	H 	0.22760 0.90690 0.95610 0.07700
C 	C 	0.30310 0.94250 0.94870 0.38300
C 	C 	0.32610 0.87540 0.00066 -0.75500
H 	H 	0.31810 0.90490 0.01390 0.21200
H 	H 	0.35800 0.88500 0.98930 0.23400
H 	H 	0.33360 0.84200 0.01120 0.19700
C 	C 	0.28660 0.82350 0.96037 -0.74900
H 	H 	0.25400 0.82090 0.94850 0.20200
H 	H 	0.29290 0.78870 0.96980 0.19200
H 	H 	0.31800 0.83250 0.94850 0.23800
C 	C 	0.29150 0.85140 0.09927 0.34900
C 	C 	0.29850 0.84940 0.13091 -0.25600
H 	H 	0.26630 0.86800 0.13940 0.08500
C 	C 	0.34770 0.88040 0.13976 0.35300
C 	C 	0.34330 0.83030 0.08564 -0.60800
H 	H 	0.33950 0.83130 0.06500 0.15000
H 	H 	0.34980 0.79280 0.09170 0.15500
H 	H 	0.37400 0.85310 0.09140 0.18400
C 	C 	0.27700 0.90510 0.08633 -0.66400
H 	H 	0.27460 0.90120 0.06580 0.17600
H 	H 	0.30490 0.93200 0.09100 0.21800
H 	H 	0.24180 0.91730 0.09370 0.19000
C 	C 	0.18971 0.62650 0.13809 0.44300
C 	C 	0.24720 0.62150 0.14716 -0.31100
H 	H 	0.26940 0.60510 0.13160 0.09900
C 	C 	0.25250 0.58550 0.17516 0.48100
C 	C 	0.15220 0.64680 0.15863 -0.78600
H 	H 	0.16490 0.68210 0.16560 0.22100
H 	H 	0.14980 0.62120 0.17440 0.22500
H 	H 	0.11630 0.65100 0.14990 0.20400
C 	C 	0.17470 0.56990 0.12579 -0.69400
H 	H 	0.13670 0.57010 0.11960 0.18400
H 	H 	0.17970 0.54210 0.14040 0.22800
H 	H 	0.19830 0.56180 0.10960 0.18900
O 	O 	0.41330 0.83650 0.91502 -0.37200
C 	C 	0.43920 0.87440 0.93710 0.43900
C 	C 	0.46250 0.82890 0.96050 -0.58600
H 	H 	0.45790 0.79220 0.95280 0.16600
H 	H 	0.44220 0.83230 0.97820 0.16200
H 	H 	0.50120 0.83570 0.96400 0.16100
O 	O 	0.43450 0.91630 0.93560 -0.47900
La	La	0.53236 0.57099 0.04265 0.87700
La	La	0.65052 0.22075 0.74193 1.08200
O 	O 	0.71950 0.17990 0.77837 -0.38100
O 	O 	0.45730 0.61840 0.00247 -0.60500
O 	O 	0.44350 0.58500 0.04543 -0.14000
H 	H 	0.34380 0.59470 0.02210 -0.41400
C 	C 	0.42740 0.59960 0.02156 0.55400
La	La	0.56581 0.63863 0.98385 0.63800
La	La	0.54240 0.54450 0.98922 0.14200
La	La	0.55440 0.61700 0.01727 0.05700
La	La	0.27130 0.67160 0.24071 -0.14000
La	La	0.31880 0.64330 0.23419 0.78800
Ag	Ag	0.78206 0.15908 0.02182 0.49600
Ag	Ag	0.85399 0.61056 0.24913 0.50200
Ag	Ag	0.81303 0.49880 0.28791 0.49200
Ag	Ag	0.82843 0.05607 0.97770 0.49700
Ag	Ag	0.77203 0.24295 0.96009 0.50100
Ag	Ag	0.62538 0.21386 0.93845 0.49500
Ag	Ag	0.09247 0.69996 0.09745 0.50600
Ag	Ag	0.84889 0.14164 0.90744 0.49400
Pd	Pd	0.74186 0.99800 0.04495 0.72100
Pd	Pd	0.66269 0.27653 0.01940 0.72200
Pd	Pd	0.06834 0.54526 0.06386 0.71200
Pd	Pd	0.68435 0.47602 0.34636 0.72600
Pd	Pd	0.92759 0.18649 0.98203 0.70500
Pd	Pd	0.73805 0.24832 0.87602 0.70700
I 	I 	0.76345 0.62644 0.29053 -0.58800
La	La	0.92071 0.38002 0.11428 1.48500
S 	S 	0.80219 0.06069 0.03005 -0.45900
S 	S 	0.82641 0.51481 0.23611 -0.46500
S 	S 	0.68643 0.18939 0.02862 -0.44500
S 	S 	0.67779 0.27552 0.97194 -0.51900
S 	S 	0.92259 0.63690 0.28584 -0.45000
S 	S 	0.03151 0.62653 0.07666 -0.46400
S 	S 	0.71457 0.48055 0.30141 -0.48500
S 	S 	0.06097 0.79390 0.11026 -0.47400
S 	S 	0.89736 0.11811 0.95378 -0.45500
S 	S 	0.84596 0.21944 0.99581 -0.49300
S 	S 	0.80261 0.23346 0.90926 -0.46700
S 	S 	0.67353 0.19084 0.89203 -0.48700
O 	O 	0.89062 0.95656 0.10122 -0.31600
O 	O 	0.90825 0.03800 0.11586 -0.36300
O 	O 	0.88507 0.39146 0.16288 -0.46400
O 	O 	0.93640 0.37080 0.20107 -0.36600
O 	O 	0.62354 0.26655 0.11732 -0.34900
O 	O 	0.70155 0.22670 0.12604 -0.31000
O 	O 	0.65350 0.46010 0.00707 -0.23900
O 	O 	0.60600 0.45370 0.96786 -0.77400
O 	O 	0.11640 0.63159 0.27573 -0.42500
O 	O 	0.09890 0.71931 0.28206 -0.34600
O 	O 	0.92716 0.47901 0.12083 -0.47800
O 	O 	0.86757 0.54323 0.10794 -0.31800
O 	O 	0.63557 0.30034 0.31532 -0.30900
O 	O 	0.71390 0.28610 0.29348 -0.31700
O 	O 	0.95210 0.83620 0.19306 -0.33400
O 	O 	0.03180 0.87140 0.20217 -0.33000
O 	O 	0.08960 0.09430 0.95871 -0.46400
O 	O 	0.06920 0.09160 0.91105 -0.30200
O 	O 	0.98545 0.32545 0.04352 -0.34700
O 	O 	0.91805 0.31335 0.07408 -0.46700
O 	O 	0.85616 0.38817 0.85415 -0.34500
O 	O 	0.93397 0.34180 0.85974 -0.30200
O 	O 	0.61326 0.26670 0.80501 -0.55400
O 	O 	0.53809 0.25420 0.82877 -0.39100
N 	N 	0.79539 0.98373 0.07574 -0.27600
H 	H 	0.77660 0.97900 0.09240 0.08600
H 	H 	0.81290 0.95160 0.07180 0.11600
N 	N 	0.80682 0.43594 0.19051 -0.26900
H 	H 	0.78670 0.40450 0.19020 0.10300
H 	H 	0.81670 0.44360 0.17220 0.09800
N 	N 	0.65660 0.28510 0.06182 -0.28000
H 	H 	0.66990 0.31870 0.06680 0.08300
H 	H 	0.62040 0.28410 0.06680 0.11000
N 	N 	0.63010 0.35282 0.01296 -0.19500
H 	H 	0.59650 0.35410 0.02140 0.08400
H 	H 	0.65190 0.37790 0.02190 0.05600
N 	N 	0.03035 0.60003 0.30457 -0.27200
H 	H 	0.05090 0.60020 0.32080 0.10700
H 	H 	0.04730 0.57740 0.29180 0.09600
N 	N 	0.00725 0.51200 0.08724 -0.26400
H 	H 	0.99670 0.47990 0.07900 0.07900
H 	H 	0.02020 0.50410 0.10500 0.07100
N 	N 	0.66944 0.39553 0.33850 -0.27000
H 	H 	0.68050 0.37530 0.35380 0.13200
H 	H 	0.63260 0.39050 0.33630 0.11000
N 	N 	0.96860 0.84340 0.13691 -0.26700
H 	H 	0.95170 0.87670 0.13620 0.08500
H 	H 	0.94560 0.82020 0.14630 0.11300
N 	N 	0.00240 0.16333 0.96710 -0.24500
H 	H 	0.02140 0.19430 0.96260 0.04700
H 	H 	0.02070 0.14660 0.98160 0.02500
N 	N 	0.95742 0.24080 0.01282 -0.23100
H 	H 	0.98440 0.22380 0.02300 0.02700
H 	H 	0.97260 0.27030 0.00390 0.05300
N 	N 	0.79274 0.29876 0.85836 -0.25200
H 	H 	0.79400 0.29110 0.83930 0.03800
H 	H 	0.77960 0.33360 0.86020 0.06100
N 	N 	0.68068 0.26760 0.84651 -0.24500
H 	H 	0.67980 0.30480 0.84460 0.04100
H 	H 	0.69150 0.25340 0.82940 0.03900
C 	C 	0.86020 0.04400 0.05402 0.26900
C 	C 	0.83560 0.02510 0.08011 -0.19700
H 	H 	0.81680 0.05690 0.08890 0.06000
C 	C 	0.88250 0.00610 0.10173 0.34900
C 	C 	0.89700 0.00230 0.04024 -0.58700
H 	H 	0.91240 0.01740 0.02290 0.15300
H 	H 	0.87600 0.96960 0.03570 0.16400
H 	H 	0.92650 0.99280 0.05330 0.18600
C 	C 	0.89230 0.10350 0.05845 -0.49800
H 	H 	0.90850 0.11490 0.04050 0.12200
H 	H 	0.92080 0.09940 0.07270 0.15900
H 	H 	0.86620 0.13110 0.06470 0.12700
C 	C 	0.88175 0.47627 0.21771 0.31700
C 	C 	0.85710 0.42589 0.20735 -0.23500
H 	H 	0.84660 0.40380 0.22420 0.07300
C 	C 	0.89620 0.39000 0.18879 0.37300
C 	C 	0.90300 0.51550 0.19370 -0.58400
H 	H 	0.91920 0.54790 0.20230 0.15600
H 	H 	0.87260 0.52630 0.18160 0.17000
H 	H 	0.93050 0.49670 0.18230 0.18600
C 	C 	0.92420 0.46850 0.24108 -0.60300
H 	H 	0.93970 0.50380 0.24620 0.15900
H 	H 	0.95310 0.44450 0.23430 0.19600
H 	H 	0.90690 0.45220 0.25770 0.15800
C 	C 	0.66710 0.18350 0.06720 0.25500
C 	C 	0.68680 0.24180 0.07863 -0.18500
H 	H 	0.72710 0.24630 0.07730 0.06000
C 	C 	0.66545 0.24560 0.11081 0.36600
C 	C 	0.60290 0.17630 0.06790 -0.54000
H 	H 	0.58560 0.20840 0.05960 0.15600
H 	H 	0.59080 0.17210 0.08750 0.17000
H 	H 	0.59280 0.14400 0.05700 0.14200
C 	C 	0.69930 0.13550 0.08027 -0.55500
H 	H 	0.68480 0.10110 0.07300 0.14700
H 	H 	0.69560 0.13640 0.10090 0.18500
H 	H 	0.73770 0.13870 0.07510 0.14600
C 	C 	0.67440 0.34930 0.96608 0.69400
C 	C 	0.62440 0.36837 0.98460 -0.52900
H 	H 	0.58830 0.35890 0.97630 0.54700
C 	C 	0.63560 0.43250 0.98640 0.49600
C 	C 	0.72600 0.37610 0.97432 -0.91500
H 	H 	0.73050 0.37390 0.99490 0.24100
H 	H 	0.72510 0.41430 0.96850 0.24000
H 	H 	0.75650 0.35780 0.96500 0.23300
C 	C 	0.66880 0.35550 0.93802 -1.11300
H 	H 	0.63440 0.33930 0.93190 0.30400
H 	H 	0.69900 0.33740 0.92830 0.29400
H 	H 	0.66900 0.39430 0.93330 0.30600
C 	C 	0.98690 0.65880 0.26856 0.27800
C 	C 	0.02942 0.65660 0.29259 -0.20200
H 	H 	0.01960 0.68320 0.30770 0.08200
C 	C 	0.08750 0.67103 0.27998 0.37500
C 	C 	0.99940 0.61680 0.24467 -0.54800
H 	H 	0.97150 0.61950 0.22990 0.14100
H 	H 	0.99930 0.58010 0.25260 0.14700
H 	H 	0.03510 0.62470 0.23650 0.16800
C 	C 	0.97450 0.71570 0.25579 -0.57100
H 	H 	0.94700 0.71210 0.24090 0.15400
H 	H 	0.00780 0.73100 0.24770 0.18800
H 	H 	0.96090 0.73980 0.27070 0.16000
C 	C 	0.97670 0.60470 0.10118 0.29700
C 	C 	0.95890 0.54830 0.08993 -0.21700
H 	H 	0.94340 0.55360 0.07060 0.07100
C 	C 	0.91400 0.51750 0.10869 0.41200
C 	C 	0.99800 0.60040 0.13095 -0.59800
H 	H 	0.00870 0.63650 0.13770 0.15900
H 	H 	0.02970 0.57620 0.13130 0.16500
H 	H 	0.96960 0.58560 0.14330 0.18500
C 	C 	0.92980 0.65050 0.09915 -0.57100
H 	H 	0.94350 0.68490 0.10670 0.16200
H 	H 	0.89810 0.63890 0.11020 0.19500
H 	H 	0.91920 0.65540 0.07940 0.15600
C 	C 	0.69240 0.41173 0.28819 0.46800
C 	C 	0.69810 0.37560 0.31255 -0.28400
H 	H 	0.73770 0.37520 0.31730 0.09800
C 	C 	0.68170 0.31520 0.30741 0.35700
C 	C 	0.63350 0.41770 0.28199 -0.76500
H 	H 	0.61400 0.42650 0.29940 0.22300
H 	H 	0.61940 0.38360 0.27420 0.22700
H 	H 	0.62820 0.44690 0.26820 0.19900
C 	C 	0.72280 0.39810 0.26278 -0.79900
H 	H 	0.76160 0.39560 0.26730 0.22000
H 	H 	0.71720 0.42640 0.24850 0.20800
H 	H 	0.71020 0.36310 0.25540 0.25300
C 	C 	0.04810 0.80130 0.14856 0.37800
C 	C 	0.01740 0.84960 0.15415 -0.25400
H 	H 	0.03820 0.88270 0.14840 0.07300
C 	C 	0.99620 0.85500 0.18596 0.34700
C 	C 	0.02320 0.74880 0.15910 -0.65500
H 	H 	0.04800 0.71850 0.15520 0.17100
H 	H 	0.98850 0.74250 0.14940 0.18800
H 	H 	0.01690 0.75140 0.17950 0.21000
C 	C 	0.10430 0.80240 0.16231 -0.65400
H 	H 	0.12280 0.76780 0.15890 0.17700
H 	H 	0.10040 0.80810 0.18270 0.22100
H 	H 	0.12570 0.83210 0.15420 0.17500
C 	C 	0.96370 0.08300 0.94824 0.32900
C 	C 	0.00400 0.12679 0.94237 -0.24700
H 	H 	0.99370 0.14710 0.92490 0.09700
C 	C 	0.06160 0.10210 0.93918 0.36700
C 	C 	0.97535 0.04630 0.97345 -0.62300
H 	H 	0.94630 0.01930 0.97530 0.16200
H 	H 	0.97710 0.06830 0.99070 0.16600
H 	H 	0.01020 0.02780 0.97060 0.19400
C 	C 	0.95410 0.04910 0.92096 -0.59500
H 	H 	0.94690 0.07370 0.90510 0.16200
H 	H 	0.92290 0.02500 0.92370 0.15200
H 	H 	0.98650 0.02740 0.91690 0.19500
C 	C 	0.86660 0.27870 0.01817 0.44500
C 	C 	0.91710 0.25920 0.03163 -0.28300
H 	H 	0.90690 0.22760 0.04390 0.07700
C 	C 	0.94250 0.30310 0.05130 0.38300
C 	C 	0.87540 0.32610 0.99934 -0.75500
H 	H 	0.90490 0.31810 0.98610 0.21200
H 	H 	0.88500 0.35800 0.01070 0.23400
H 	H 	0.84200 0.33360 0.98880 0.19700
C 	C 	0.82350 0.28660 0.03963 -0.74900
H 	H 	0.82090 0.25400 0.05150 0.20200
H 	H 	0.78870 0.29290 0.03020 0.19200
H 	H 	0.83250 0.31800 0.05150 0.23800
C 	C 	0.85140 0.29150 0.90073 0.34900
C 	C 	0.84940 0.29850 0.86909 -0.25600
H 	H 	0.86800 0.26630 0.86060 0.08500
C 	C 	0.88040 0.34770 0.86024 0.35300
C 	C 	0.83030 0.34330 0.91436 -0.60800
H 	H 	0.83130 0.33950 0.93500 0.15000
H 	H 	0.79280 0.34980 0.90830 0.15500
H 	H 	0.85310 0.37400 0.90860 0.18400
C 	C 	0.90510 0.27700 0.91367 -0.66400
H 	H 	0.90120 0.27460 0.93420 0.17600
H 	H 	0.93200 0.30490 0.90900 0.21800
H 	H 	0.91730 0.24180 0.90630 0.19000
C 	C 	0.62650 0.18971 0.86191 0.44300
C 	C 	0.62150 0.24720 0.85284 -0.31100
H 	H 	0.60510 0.26940 0.86840 0.09900
C 	C 	0.58550 0.25250 0.82484 0.48100
C 	C 	0.64680 0.15220 0.84137 -0.78600
H 	H 	0.68210 0.16490 0.83440 0.22100
H 	H 	0.62120 0.14980 0.82560 0.22500
H 	H 	0.65100 0.11630 0.85010 0.20400
C 	C 	0.56990 0.17470 0.87421 -0.69400
H 	H 	0.57010 0.13670 0.88040 0.18400
H 	H 	0.54210 0.17970 0.85960 0.22800
H 	H 	0.56180 0.19830 0.89040 0.18900
O 	O 	0.83650 0.41330 0.08498 -0.37200
C 	C 	0.87440 0.43920 0.06290 0.43900
C 	C 	0.82890 0.46250 0.03950 -0.58600
H 	H 	0.79220 0.45790 0.04720 0.16600
H 	H 	0.83230 0.44220 0.02180 0.16200
H 	H 	0.83570 0.50120 0.03600 0.16100
O 	O 	0.91630 0.43450 0.06440 -0.47900
La	La	0.57099 0.53236 0.95735 0.87700
La	La	0.22075 0.65052 0.25807 1.08200
O 	O 	0.17990 0.71950 0.22163 -0.38100
O 	O 	0.61840 0.45730 0.99753 -0.60500
O 	O 	0.58500 0.44350 0.95457 -0.14000
H 	H 	0.59470 0.34380 0.97790 -0.41400
C 	C 	0.59960 0.42740 0.97844 0.55400
La	La	0.63863 0.56581 0.01615 0.63800
La	La	0.54450 0.54240 0.01078 0.14200
La	La	0.61700 0.55440 0.98273 0.05700
La	La	0.67160 0.27130 0.75929 -0.14000
La	La	0.64330 0.31880 0.76581 0.78800
Ag	Ag	0.21794 0.84092 0.52182 0.49600
Ag	Ag	0.14601 0.38944 0.74913 0.50200
Ag	Ag	0.18697 0.50120 0.78791 0.49200
Ag	Ag	0.17157 0.94393 0.47770 0.49700
Ag	Ag	0.22797 0.75705 0.46009 0.50100
Ag	Ag	0.37462 0.78614 0.43845 0.49500
Ag	Ag	0.90753 0.30004 0.59745 0.50600
Ag	Ag	0.15111 0.85836 0.40744 0.49400
Pd	Pd	0.25814 0.00200 0.54495 0.72100
Pd	Pd	0.33731 0.72347 0.51940 0.72200
Pd	Pd	0.93166 0.45474 0.56386 0.71200
Pd	Pd	0.31565 0.52398 0.84636 0.72600
Pd	Pd	0.07241 0.81351 0.48203 0.70500
Pd	Pd	0.26195 0.75168 0.37602 0.70700
I 	I 	0.23655 0.37356 0.79053 -0.58800
La	La	0.07930 0.61998 0.61428 1.48500
S 	S 	0.19781 0.93931 0.53005 -0.45900
S 	S 	0.17359 0.48519 0.73611 -0.46500
S 	S 	0.31357 0.81061 0.52862 -0.44500
S 	S 	0.32221 0.72448 0.47194 -0.51900
S 	S 	0.07741 0.36310 0.78584 -0.45000
S 	S 	0.96849 0.37347 0.57666 -0.46400
S 	S 	0.28543 0.51945 0.80141 -0.48500
S 	S 	0.93903 0.20610 0.61026 -0.47400
S 	S 	0.10264 0.88189 0.45378 -0.45500
S 	S 	0.15404 0.78056 0.49581 -0.49300
S 	S 	0.19739 0.76654 0.40926 -0.46700
S 	S 	0.32647 0.80916 0.39203 -0.48700
O 	O 	0.10938 0.04344 0.60122 -0.31600
O 	O 	0.09175 0.96200 0.61586 -0.36300
O 	O 	0.11493 0.60854 0.66288 -0.46400
O 	O 	0.06360 0.62920 0.70107 -0.36600
O 	O 	0.37646 0.73345 0.61732 -0.34900
O 	O 	0.29845 0.77330 0.62604 -0.31000
O 	O 	0.34650 0.53990 0.50707 -0.23900
O 	O 	0.39400 0.54630 0.46786 -0.77400
O 	O 	0.88360 0.36841 0.77573 -0.42500
O 	O 	0.90110 0.28069 0.78206 -0.34600
O 	O 	0.07284 0.52099 0.62083 -0.47800
O 	O 	0.13243 0.45677 0.60794 -0.31800
O 	O 	0.36443 0.69966 0.81532 -0.30900
O 	O 	0.28610 0.71390 0.79348 -0.31700
O 	O 	0.04790 0.16380 0.69306 -0.33400
O 	O 	0.96820 0.12860 0.70217 -0.33000
O 	O 	0.91040 0.90570 0.45871 -0.46400
O 	O 	0.93080 0.90840 0.41105 -0.30200
O 	O 	0.01455 0.67455 0.54352 -0.34700
O 	O 	0.08195 0.68665 0.57408 -0.46700
O 	O 	0.14384 0.61183 0.35415 -0.34500
O 	O 	0.06603 0.65820 0.35974 -0.30200
O 	O 	0.38674 0.73330 0.30501 -0.55400
O 	O 	0.46191 0.74580 0.32877 -0.39100
N 	N 	0.20461 0.01627 0.57574 -0.27600
H 	H 	0.22340 0.02100 0.59240 0.08600
H 	H 	0.18710 0.04840 0.57180 0.11600
N 	N 	0.19318 0.56406 0.69051 -0.26900
H 	H 	0.21330 0.59550 0.69020 0.10300
H 	H 	0.18330 0.55640 0.67220 0.09800
N 	N 	0.34340 0.71490 0.56182 -0.28000
H 	H 	0.33010 0.68130 0.56680 0.08300
H 	H 	0.37960 0.71590 0.56680 0.11000
N 	N 	0.36990 0.64718 0.51296 -0.19500
H 	H 	0.40350 0.64590 0.52140 0.08400
H 	H 	0.34810 0.62210 0.52190 0.05600
N 	N 	0.96965 0.39997 0.80457 -0.27200
H 	H 	0.94910 0.39980 0.82080 0.10700
H 	H 	0.95270 0.42260 0.79180 0.09600
N 	N 	0.99275 0.48800 0.58724 -0.26400
H 	H 	0.00330 0.52010 0.57900 0.07900
H 	H 	0.97980 0.49590 0.60500 0.07100
N 	N 	0.33056 0.60447 0.83850 -0.27000
H 	H 	0.31950 0.62470 0.85380 0.13200
H 	H 	0.36740 0.60950 0.83630 0.11000
N 	N 	0.03140 0.15660 0.63691 -0.26700
H 	H 	0.04830 0.12330 0.63620 0.08500
H 	H 	0.05440 0.17980 0.64630 0.11300
N 	N 	0.99760 0.83667 0.46710 -0.24500
H 	H 	0.97860 0.80570 0.46260 0.04700
H 	H 	0.97930 0.85340 0.48160 0.02500
N 	N 	0.04258 0.75920 0.51282 -0.23100
H 	H 	0.01560 0.77620 0.52300 0.02700
H 	H 	0.02740 0.72970 0.50390 0.05300
N 	N 	0.20726 0.70124 0.35836 -0.25200
H 	H 	0.20600 0.70890 0.33930 0.03800
H 	H 	0.22040 0.66640 0.36020 0.06100
N 	N 	0.31932 0.73240 0.34651 -0.24500
H 	H 	0.32020 0.69520 0.34460 0.04100
H 	H 	0.30850 0.74660 0.32940 0.03900
C 	C 	0.13980 0.95600 0.55402 0.26900
C 	C 	0.16440 0.97490 0.58011 -0.19700
H 	H 	0.18320 0.94310 0.58890 0.06000
C 	C 	0.11750 0.99390 0.60173 0.34900
C 	C 	0.10300 0.99770 0.54024 -0.58700
H 	H 	0.08760 0.98260 0.52290 0.15300
H 	H 	0.12400 0.03040 0.53570 0.16400
H 	H 	0.07350 0.00720 0.55330 0.18600
C 	C 	0.10770 0.89650 0.55845 -0.49800
H 	H 	0.09150 0.88510 0.54050 0.12200
H 	H 	0.07920 0.90060 0.57270 0.15900
H 	H 	0.13380 0.86890 0.56470 0.12700
C 	C 	0.11825 0.52373 0.71771 0.31700
C 	C 	0.14290 0.57411 0.70735 -0.23500
H 	H 	0.15340 0.59620 0.72420 0.07300
C 	C 	0.10380 0.61000 0.68879 0.37300
C 	C 	0.09700 0.48450 0.69370 -0.58400
H 	H 	0.08080 0.45210 0.70230 0.15600
H 	H 	0.12740 0.47370 0.68160 0.17000
H 	H 	0.06950 0.50330 0.68230 0.18600
C 	C 	0.07580 0.53150 0.74108 -0.60300
H 	H 	0.06030 0.49620 0.74620 0.15900
H 	H 	0.04690 0.55550 0.73430 0.19600
H 	H 	0.09310 0.54780 0.75770 0.15800
C 	C 	0.33290 0.81650 0.56720 0.25500
C 	C 	0.31320 0.75820 0.57863 -0.18500
H 	H 	0.27290 0.75370 0.57730 0.06000
C 	C 	0.33455 0.75440 0.61081 0.36600
C 	C 	0.39710 0.82370 0.56790 -0.54000
H 	H 	0.41440 0.79160 0.55960 0.15600
H 	H 	0.40920 0.82790 0.58750 0.17000
H 	H 	0.40720 0.85600 0.55700 0.14200
C 	C 	0.30070 0.86450 0.58027 -0.55500
H 	H 	0.31520 0.89890 0.57300 0.14700
H 	H 	0.30440 0.86360 0.60090 0.18500
H 	H 	0.26230 0.86130 0.57510 0.14600
C 	C 	0.32560 0.65070 0.46608 0.69400
C 	C 	0.37560 0.63163 0.48460 -0.52900
H 	H 	0.41170 0.64110 0.47630 0.54700
C 	C 	0.36440 0.56750 0.48640 0.49600
C 	C 	0.27400 0.62390 0.47432 -0.91500
H 	H 	0.26950 0.62610 0.49490 0.24100
H 	H 	0.27490 0.58570 0.46850 0.24000
H 	H 	0.24350 0.64220 0.46500 0.23300
C 	C 	0.33120 0.64450 0.43802 -1.11300
H 	H 	0.36560 0.66070 0.43190 0.30400
H 	H 	0.30100 0.66260 0.42830 0.29400
H 	H 	0.33100 0.60570 0.43330 0.30600
C 	C 	0.01310 0.34120 0.76856 0.27800
C 	C 	0.97058 0.34340 0.79259 -0.20100
H 	H 	0.98040 0.31680 0.80770 0.08200
C 	C 	0.91250 0.32897 0.77998 0.37500
C 	C 	0.00060 0.38320 0.74467 -0.54800
H 	H 	0.02850 0.38050 0.72990 0.14100
H 	H 	0.00070 0.41990 0.75260 0.14700
H 	H 	0.96490 0.37530 0.73650 0.16800
C 	C 	0.02550 0.28430 0.75579 -0.57100
H 	H 	0.05300 0.28790 0.74090 0.15400
H 	H 	0.99220 0.26900 0.74770 0.18800
H 	H 	0.03910 0.26020 0.77070 0.16000
C 	C 	0.02330 0.39530 0.60118 0.29700
C 	C 	0.04110 0.45170 0.58993 -0.21700
H 	H 	0.05660 0.44640 0.57060 0.07100
C 	C 	0.08600 0.48250 0.60869 0.41200
C 	C 	0.00200 0.39960 0.63095 -0.59800
H 	H 	0.99130 0.36350 0.63770 0.15900
H 	H 	0.97030 0.42380 0.63130 0.16500
H 	H 	0.03040 0.41440 0.64330 0.18500
C 	C 	0.07020 0.34950 0.59915 -0.57100
H 	H 	0.05650 0.31510 0.60670 0.16200
H 	H 	0.10190 0.36110 0.61020 0.19500
H 	H 	0.08080 0.34460 0.57940 0.15600
C 	C 	0.30760 0.58827 0.78819 0.46800
C 	C 	0.30190 0.62440 0.81255 -0.28400
H 	H 	0.26230 0.62480 0.81730 0.09800
C 	C 	0.31830 0.68480 0.80741 0.35700
C 	C 	0.36650 0.58230 0.78199 -0.76500
H 	H 	0.38600 0.57350 0.79940 0.22300
H 	H 	0.38060 0.61640 0.77420 0.22700
H 	H 	0.37180 0.55310 0.76820 0.19900
C 	C 	0.27720 0.60190 0.76278 -0.79900
H 	H 	0.23840 0.60440 0.76730 0.22000
H 	H 	0.28280 0.57360 0.74850 0.20800
H 	H 	0.28980 0.63690 0.75540 0.25300
C 	C 	0.95190 0.19870 0.64856 0.37800
C 	C 	0.98260 0.15040 0.65415 -0.25400
H 	H 	0.96180 0.11730 0.64840 0.07300
C 	C 	0.00380 0.14500 0.68596 0.34700
C 	C 	0.97680 0.25120 0.65910 -0.65500
H 	H 	0.95200 0.28150 0.65520 0.17200
H 	H 	0.01150 0.25750 0.64940 0.18800
H 	H 	0.98310 0.24860 0.67950 0.21000
C 	C 	0.89570 0.19760 0.66231 -0.65400
H 	H 	0.87720 0.23220 0.65890 0.17700
H 	H 	0.89960 0.19190 0.68270 0.22100
H 	H 	0.87430 0.16790 0.65420 0.17500
C 	C 	0.03630 0.91700 0.44824 0.32900
C 	C 	0.99600 0.87321 0.44237 -0.24700
H 	H 	0.00630 0.85290 0.42490 0.09700
C 	C 	0.93840 0.89790 0.43918 0.36700
C 	C 	0.02465 0.95370 0.47345 -0.62400
H 	H 	0.05370 0.98070 0.47530 0.16200
H 	H 	0.02290 0.93170 0.49070 0.16600
H 	H 	0.98980 0.97220 0.47060 0.19400
C 	C 	0.04590 0.95090 0.42096 -0.59500
H 	H 	0.05310 0.92630 0.40510 0.16200
H 	H 	0.07710 0.97500 0.42370 0.15200
H 	H 	0.01350 0.97260 0.41690 0.19500
C 	C 	0.13340 0.72130 0.51817 0.44500
C 	C 	0.08290 0.74080 0.53163 -0.28300
H 	H 	0.09310 0.77240 0.54390 0.07700
C 	C 	0.05750 0.69690 0.55130 0.38300
C 	C 	0.12460 0.67390 0.49934 -0.75500
H 	H 	0.09510 0.68190 0.48610 0.21300
H 	H 	0.11500 0.64200 0.51070 0.23400
H 	H 	0.15800 0.66640 0.48880 0.19700
C 	C 	0.17650 0.71340 0.53963 -0.75000
H 	H 	0.17910 0.74600 0.55150 0.20200
H 	H 	0.21130 0.70710 0.53020 0.19200
H 	H 	0.16750 0.68200 0.55150 0.23800
C 	C 	0.14860 0.70850 0.40073 0.34900
C 	C 	0.15060 0.70150 0.36909 -0.25600
H 	H 	0.13200 0.73370 0.36060 0.08500
C 	C 	0.11960 0.65230 0.36024 0.35300
C 	C 	0.16970 0.65670 0.41436 -0.60800
H 	H 	0.16870 0.66050 0.43500 0.15000
H 	H 	0.20720 0.65020 0.40830 0.15500
H 	H 	0.14690 0.62600 0.40860 0.18400
C 	C 	0.09490 0.72300 0.41367 -0.66400
H 	H 	0.09880 0.72540 0.43420 0.17600
H 	H 	0.06800 0.69510 0.40900 0.21800
H 	H 	0.08270 0.75820 0.40630 0.19000
C 	C 	0.37350 0.81029 0.36191 0.44300
C 	C 	0.37850 0.75280 0.35284 -0.31100
H 	H 	0.39490 0.73060 0.36840 0.09900
C 	C 	0.41450 0.74750 0.32484 0.48100
C 	C 	0.35320 0.84780 0.34137 -0.78600
H 	H 	0.31790 0.83510 0.33440 0.22100
H 	H 	0.37880 0.85020 0.32560 0.22500
H 	H 	0.34900 0.88370 0.35010 0.20400
C 	C 	0.43010 0.82530 0.37421 -0.69400
H 	H 	0.42990 0.86330 0.38040 0.18400
H 	H 	0.45790 0.82030 0.35960 0.22800
H 	H 	0.43820 0.80170 0.39040 0.18900
O 	O 	0.16350 0.58670 0.58498 -0.37200
C 	C 	0.12560 0.56080 0.56290 0.43900
C 	C 	0.17110 0.53750 0.53950 -0.58600
H 	H 	0.20780 0.54210 0.54720 0.16600
H 	H 	0.16770 0.55780 0.52180 0.16200
H 	H 	0.16430 0.49880 0.53600 0.16100
O 	O 	0.08370 0.56550 0.56440 -0.47900
La	La	0.42901 0.46764 0.45735 0.87700
La	La	0.77925 0.34948 0.75807 1.08200
O 	O 	0.82010 0.28050 0.72163 -0.38100
O 	O 	0.38160 0.54270 0.49753 -0.60500
O 	O 	0.41500 0.55650 0.45457 -0.14000
H 	H 	0.40530 0.65620 0.47790 -0.41400
C 	C 	0.40040 0.57260 0.47844 0.55400
La	La	0.36137 0.43419 0.51615 0.63800
La	La	0.45550 0.45760 0.51078 0.14200
La	La	0.38300 0.44560 0.48273 0.05700
La	La	0.32840 0.72870 0.25929 -0.14000
La	La	0.35670 0.68120 0.26581 0.78800
Ag	Ag	0.65908 0.71794 0.77182 0.49600
Ag	Ag	0.11056 0.64601 0.99913 0.50200
Ag	Ag	0.99880 0.68697 0.03791 0.49100
Ag	Ag	0.55607 0.67157 0.72770 0.49700
Ag	Ag	0.74295 0.72797 0.71009 0.50100
Ag	Ag	0.71386 0.87462 0.68845 0.49500
Ag	Ag	0.19996 0.40753 0.84745 0.50600
Ag	Ag	0.64164 0.65111 0.65744 0.49400
Pd	Pd	0.49800 0.75814 0.79495 0.72100
Pd	Pd	0.77653 0.83731 0.76940 0.72200
Pd	Pd	0.04526 0.43166 0.81386 0.71200
Pd	Pd	0.97602 0.81565 0.09636 0.72600
Pd	Pd	0.68649 0.57241 0.73203 0.70500
Pd	Pd	0.74832 0.76195 0.62602 0.70800
I 	I 	0.12644 0.73655 0.04053 -0.58800
La	La	0.88002 0.57930 0.86428 1.48600
S 	S 	0.56069 0.69781 0.78005 -0.45900
S 	S 	0.01481 0.67359 0.98611 -0.46500
S 	S 	0.68939 0.81357 0.77862 -0.44500
S 	S 	0.77552 0.82221 0.72194 -0.51900
S 	S 	0.13690 0.57741 0.03584 -0.45000
S 	S 	0.12653 0.46849 0.82666 -0.46500
S 	S 	0.98055 0.78543 0.05141 -0.48500
S 	S 	0.29390 0.43903 0.86026 -0.47400
S 	S 	0.61811 0.60264 0.70378 -0.45500
S 	S 	0.71944 0.65404 0.74581 -0.49300
S 	S 	0.73346 0.69739 0.65926 -0.46700
S 	S 	0.69084 0.82647 0.64203 -0.48700
O 	O 	0.45656 0.60938 0.85122 -0.31700
O 	O 	0.53800 0.59175 0.86586 -0.36300
O 	O 	0.89146 0.61493 0.91288 -0.46400
O 	O 	0.87080 0.56360 0.95107 -0.36600
O 	O 	0.76655 0.87646 0.86732 -0.34900
O 	O 	0.72670 0.79845 0.87604 -0.31000
O 	O 	0.96010 0.84650 0.75707 -0.23900
O 	O 	0.95370 0.89400 0.71786 -0.77400
O 	O 	0.13159 0.38360 0.02573 -0.42500
O 	O 	0.21931 0.40110 0.03206 -0.34600
O 	O 	0.97901 0.57284 0.87083 -0.47700
O 	O 	0.04323 0.63243 0.85794 -0.31800
O 	O 	0.80034 0.86443 0.06532 -0.30900
O 	O 	0.78610 0.78610 0.04348 -0.31700
O 	O 	0.33620 0.54790 0.94306 -0.33400
O 	O 	0.37140 0.46820 0.95217 -0.33000
O 	O 	0.59430 0.41040 0.70871 -0.46400
O 	O 	0.59160 0.43080 0.66105 -0.30300
O 	O 	0.82545 0.51455 0.79352 -0.34700
O 	O 	0.81335 0.58195 0.82408 -0.46700
O 	O 	0.88817 0.64384 0.60415 -0.34500
O 	O 	0.84180 0.56603 0.60974 -0.30200
O 	O 	0.76670 0.88674 0.55501 -0.55400
O 	O 	0.75420 0.96191 0.57877 -0.39100
N 	N 	0.48373 0.70461 0.82574 -0.27600
H 	H 	0.47900 0.72340 0.84240 0.08500
H 	H 	0.45160 0.68710 0.82180 0.11600
N 	N 	0.93594 0.69318 0.94051 -0.26900
H 	H 	0.90450 0.71330 0.94020 0.10300
H 	H 	0.94360 0.68330 0.92220 0.09800
N 	N 	0.78510 0.84340 0.81182 -0.28000
H 	H 	0.81870 0.83010 0.81680 0.08300
H 	H 	0.78410 0.87960 0.81680 0.11000
N 	N 	0.85282 0.86990 0.76296 -0.19500
H 	H 	0.85410 0.90350 0.77140 0.08400
H 	H 	0.87790 0.84810 0.77190 0.05600
N 	N 	0.10003 0.46965 0.05457 -0.27300
H 	H 	0.10020 0.44910 0.07080 0.10700
H 	H 	0.07740 0.45270 0.04180 0.09600
N 	N 	0.01200 0.49275 0.83724 -0.26500
H 	H 	0.97990 0.50330 0.82900 0.08000
H 	H 	0.00410 0.47980 0.85500 0.07100
N 	N 	0.89553 0.83056 0.08850 -0.27000
H 	H 	0.87530 0.81950 0.10380 0.13200
H 	H 	0.89050 0.86740 0.08630 0.11000
N 	N 	0.34340 0.53140 0.88691 -0.26700
H 	H 	0.37670 0.54830 0.88620 0.08500
H 	H 	0.32020 0.55440 0.89630 0.11300
N 	N 	0.66333 0.49760 0.71710 -0.24500
H 	H 	0.69430 0.47860 0.71260 0.04600
H 	H 	0.64660 0.47930 0.73160 0.02400
N 	N 	0.74080 0.54258 0.76282 -0.23100
H 	H 	0.72380 0.51560 0.77300 0.02700
H 	H 	0.77030 0.52740 0.75390 0.05300
N 	N 	0.79876 0.70726 0.60836 -0.25200
H 	H 	0.79110 0.70600 0.58930 0.03800
H 	H 	0.83360 0.72040 0.61020 0.06100
N 	N 	0.76760 0.81932 0.59651 -0.24500
H 	H 	0.80480 0.82020 0.59460 0.04100
H 	H 	0.75340 0.80850 0.57940 0.03900
C 	C 	0.54400 0.63980 0.80402 0.26800
C 	C 	0.52510 0.66440 0.83011 -0.19700
H 	H 	0.55690 0.68320 0.83890 0.05900
C 	C 	0.50610 0.61750 0.85173 0.34900
C 	C 	0.50230 0.60300 0.79024 -0.58400
H 	H 	0.51740 0.58760 0.77290 0.15200
H 	H 	0.46960 0.62400 0.78570 0.16300
H 	H 	0.49280 0.57350 0.80330 0.18400
C 	C 	0.60350 0.60770 0.80845 -0.49700
H 	H 	0.61490 0.59150 0.79050 0.12200
H 	H 	0.59940 0.57920 0.82270 0.15900
H 	H 	0.63110 0.63380 0.81470 0.12700
C 	C 	0.97627 0.61825 0.96771 0.31700
C 	C 	0.92589 0.64290 0.95735 -0.23500
H 	H 	0.90380 0.65340 0.97420 0.07300
C 	C 	0.89000 0.60380 0.93879 0.37300
C 	C 	0.01550 0.59700 0.94370 -0.58500
H 	H 	0.04790 0.58080 0.95230 0.15600
H 	H 	0.02630 0.62740 0.93160 0.17000
H 	H 	0.99670 0.56950 0.93230 0.18700
C 	C 	0.96850 0.57580 0.99108 -0.60400
H 	H 	0.00380 0.56030 0.99620 0.15900
H 	H 	0.94450 0.54690 0.98430 0.19600
H 	H 	0.95220 0.59310 0.00770 0.15800
C 	C 	0.68350 0.83290 0.81720 0.25500
C 	C 	0.74180 0.81320 0.82863 -0.18500
H 	H 	0.74630 0.77290 0.82730 0.06000
C 	C 	0.74560 0.83455 0.86081 0.36600
C 	C 	0.67630 0.89710 0.81790 -0.54000
H 	H 	0.70840 0.91440 0.80960 0.15600
H 	H 	0.67210 0.90920 0.83750 0.16900
H 	H 	0.64400 0.90720 0.80700 0.14200
C 	C 	0.63550 0.80070 0.83027 -0.55500
H 	H 	0.60110 0.81520 0.82300 0.14700
H 	H 	0.63640 0.80440 0.85090 0.18500
H 	H 	0.63870 0.76230 0.82510 0.14600
C 	C 	0.84930 0.82560 0.71608 0.69500
C 	C 	0.86837 0.87560 0.73460 -0.52900
H 	H 	0.85890 0.91170 0.72630 0.54600
C 	C 	0.93250 0.86440 0.73640 0.49600
C 	C 	0.87610 0.77400 0.72432 -0.91500
H 	H 	0.87390 0.76950 0.74490 0.24100
H 	H 	0.91430 0.77490 0.71850 0.24000
H 	H 	0.85780 0.74350 0.71500 0.23300
C 	C 	0.85550 0.83120 0.68802 -1.11400
H 	H 	0.83930 0.86560 0.68190 0.30400
H 	H 	0.83740 0.80100 0.67830 0.29400
H 	H 	0.89430 0.83100 0.68330 0.30700
C 	C 	0.15880 0.51310 0.01856 0.27800
C 	C 	0.15660 0.47058 0.04259 -0.20200
H 	H 	0.18320 0.48040 0.05770 0.08200
C 	C 	0.17103 0.41250 0.02998 0.37500
C 	C 	0.11680 0.50060 0.99467 -0.54700
H 	H 	0.11950 0.52850 0.97990 0.14100
H 	H 	0.08010 0.50070 0.00260 0.14700
H 	H 	0.12470 0.46490 0.98650 0.16800
C 	C 	0.21570 0.52550 0.00579 -0.57000
H 	H 	0.21210 0.55300 0.99090 0.15400
H 	H 	0.23100 0.49220 0.99770 0.18800
H 	H 	0.23980 0.53910 0.02070 0.16000
C 	C 	0.10470 0.52330 0.85118 0.29600
C 	C 	0.04830 0.54110 0.83993 -0.21700
H 	H 	0.05360 0.55660 0.82060 0.07100
C 	C 	0.01750 0.58600 0.85869 0.41100
C 	C 	0.10040 0.50200 0.88095 -0.59400
H 	H 	0.13650 0.49130 0.88770 0.15800
H 	H 	0.07620 0.47030 0.88130 0.16400
H 	H 	0.08560 0.53040 0.89330 0.18400
C 	C 	0.15050 0.57020 0.84915 -0.57000
H 	H 	0.18490 0.55650 0.85670 0.16200
H 	H 	0.13890 0.60190 0.86020 0.19500
H 	H 	0.15540 0.58080 0.82940 0.15600
C 	C 	0.91173 0.80760 0.03819 0.46800
C 	C 	0.87560 0.80190 0.06255 -0.28400
H 	H 	0.87520 0.76230 0.06730 0.09800
C 	C 	0.81520 0.81830 0.05741 0.35700
C 	C 	0.91770 0.86650 0.03199 -0.76500
H 	H 	0.92650 0.88600 0.04940 0.22300
H 	H 	0.88360 0.88060 0.02420 0.22700
H 	H 	0.94690 0.87180 0.01820 0.19900
C 	C 	0.89810 0.77720 0.01278 -0.79900
H 	H 	0.89560 0.73840 0.01730 0.22000
H 	H 	0.92640 0.78280 0.99850 0.20800
H 	H 	0.86310 0.78980 0.00540 0.25300
C 	C 	0.30130 0.45190 0.89856 0.37900
C 	C 	0.34960 0.48260 0.90415 -0.25400
H 	H 	0.38270 0.46180 0.89840 0.07400
C 	C 	0.35500 0.50380 0.93596 0.34800
C 	C 	0.24880 0.47680 0.90910 -0.65700
H 	H 	0.21850 0.45200 0.90520 0.17200
H 	H 	0.24250 0.51150 0.89940 0.18800
H 	H 	0.25140 0.48310 0.92950 0.21100
C 	C 	0.30240 0.39570 0.91231 -0.65400
H 	H 	0.26780 0.37720 0.90890 0.17700
H 	H 	0.30810 0.39960 0.93270 0.22100
H 	H 	0.33210 0.37430 0.90420 0.17500
C 	C 	0.58300 0.53630 0.69824 0.32900
C 	C 	0.62679 0.49600 0.69237 -0.24900
H 	H 	0.64710 0.50630 0.67490 0.09800
C 	C 	0.60210 0.43840 0.68918 0.36700
C 	C 	0.54630 0.52465 0.72345 -0.62100
H 	H 	0.51930 0.55370 0.72530 0.16100
H 	H 	0.56830 0.52290 0.74070 0.16600
H 	H 	0.52780 0.48980 0.72060 0.19300
C 	C 	0.54910 0.54590 0.67096 -0.59500
H 	H 	0.57370 0.55310 0.65510 0.16200
H 	H 	0.52500 0.57710 0.67370 0.15200
H 	H 	0.52740 0.51350 0.66690 0.19600
C 	C 	0.77870 0.63340 0.76817 0.44500
C 	C 	0.75920 0.58290 0.78163 -0.28300
H 	H 	0.72760 0.59310 0.79390 0.07700
C 	C 	0.80310 0.55750 0.80130 0.38300
C 	C 	0.82610 0.62460 0.74934 -0.75500
H 	H 	0.81810 0.59510 0.73610 0.21300
H 	H 	0.85800 0.61500 0.76070 0.23400
H 	H 	0.83360 0.65800 0.73880 0.19700
C 	C 	0.78660 0.67650 0.78963 -0.75000
H 	H 	0.75400 0.67910 0.80150 0.20300
H 	H 	0.79290 0.71130 0.78020 0.19200
H 	H 	0.81800 0.66750 0.80150 0.23800
C 	C 	0.79150 0.64860 0.65073 0.34900
C 	C 	0.79850 0.65060 0.61909 -0.25600
H 	H 	0.76630 0.63200 0.61060 0.08500
C 	C 	0.84770 0.61960 0.61024 0.35300
C 	C 	0.84330 0.66970 0.66436 -0.60800
H 	H 	0.83950 0.66870 0.68500 0.15000
H 	H 	0.84980 0.70720 0.65830 0.15600
H 	H 	0.87400 0.64690 0.65860 0.18500
C 	C 	0.77700 0.59490 0.66367 -0.66500
H 	H 	0.77460 0.59880 0.68420 0.17600
H 	H 	0.80490 0.56800 0.65900 0.21800
H 	H 	0.74180 0.58270 0.65630 0.19000
C 	C 	0.68971 0.87350 0.61191 0.44300
C 	C 	0.74720 0.87850 0.60284 -0.31100
H 	H 	0.76940 0.89490 0.61840 0.09900
C 	C 	0.75250 0.91450 0.57484 0.48100
C 	C 	0.65220 0.85320 0.59137 -0.78600
H 	H 	0.66490 0.81790 0.58440 0.22100
H 	H 	0.64980 0.87880 0.57560 0.22500
H 	H 	0.61630 0.84900 0.60010 0.20400
C 	C 	0.67470 0.93010 0.62421 -0.69400
H 	H 	0.63670 0.92990 0.63040 0.18400
H 	H 	0.67970 0.95790 0.60960 0.22800
H 	H 	0.69830 0.93820 0.64040 0.18900
O 	O 	0.91330 0.66350 0.83498 -0.37200
C 	C 	0.93920 0.62560 0.81290 0.43900
C 	C 	0.96250 0.67110 0.78950 -0.58400
H 	H 	0.95790 0.70780 0.79720 0.16600
H 	H 	0.94220 0.66770 0.77180 0.16200
H 	H 	0.00120 0.66430 0.78600 0.16000
O 	O 	0.93450 0.58370 0.81440 -0.47900
La	La	0.03236 0.92901 0.70735 0.87600
La	La	0.15052 0.27925 0.00807 1.08200
O 	O 	0.21950 0.32010 0.97163 -0.38100
O 	O 	0.95730 0.88160 0.74753 -0.60400
O 	O 	0.94350 0.91500 0.70457 -0.14000
H 	H 	0.84380 0.90530 0.72790 -0.41400
C 	C 	0.92740 0.90040 0.72844 0.55400
La	La	0.06581 0.86137 0.76615 0.63800
La	La	0.04240 0.95550 0.76078 0.14100
La	La	0.05440 0.88300 0.73273 0.05700
La	La	0.77130 0.82840 0.50929 -0.14000
La	La	0.81880 0.85670 0.51581 0.78800
Ag	Ag	0.34092 0.28206 0.27182 0.49600
Ag	Ag	0.88944 0.35399 0.49913 0.50200
Ag	Ag	0.00120 0.31303 0.53791 0.49100
Ag	Ag	0.44393 0.32843 0.22770 0.49700
Ag	Ag	0.25705 0.27203 0.21009 0.50100
Ag	Ag	0.28614 0.12538 0.18845 0.49500
Ag	Ag	0.80004 0.59247 0.34745 0.50600
Ag	Ag	0.35836 0.34889 0.15744 0.49400
Pd	Pd	0.50200 0.24186 0.29495 0.72100
Pd	Pd	0.22347 0.16269 0.26940 0.72200
Pd	Pd	0.95474 0.56834 0.31386 0.71200
Pd	Pd	0.02398 0.18435 0.59636 0.72600
Pd	Pd	0.31351 0.42759 0.23203 0.70500
Pd	Pd	0.25168 0.23805 0.12602 0.70800
I 	I 	0.87356 0.26345 0.54053 -0.58800
La	La	0.11998 0.42071 0.36428 1.48600
S 	S 	0.43931 0.30219 0.28005 -0.45900
S 	S 	0.98519 0.32641 0.48611 -0.46500
S 	S 	0.31061 0.18643 0.27862 -0.44500
S 	S 	0.22448 0.17779 0.22194 -0.51900
S 	S 	0.86310 0.42259 0.53584 -0.45000
S 	S 	0.87347 0.53151 0.32666 -0.46500
S 	S 	0.01945 0.21457 0.55141 -0.48500
S 	S 	0.70610 0.56097 0.36026 -0.47400
S 	S 	0.38189 0.39736 0.20378 -0.45500
S 	S 	0.28056 0.34596 0.24581 -0.49300
S 	S 	0.26654 0.30261 0.15926 -0.46700
S 	S 	0.30916 0.17353 0.14203 -0.48700
O 	O 	0.54344 0.39062 0.35122 -0.31700
O 	O 	0.46200 0.40825 0.36586 -0.36300
O 	O 	0.10854 0.38507 0.41288 -0.46400
O 	O 	0.12920 0.43640 0.45107 -0.36600
O 	O 	0.23345 0.12354 0.36732 -0.34900
O 	O 	0.27330 0.20155 0.37604 -0.31000
O 	O 	0.03990 0.15350 0.25707 -0.23900
O 	O 	0.04630 0.10600 0.21786 -0.77400
O 	O 	0.86841 0.61640 0.52573 -0.42500
O 	O 	0.78069 0.59890 0.53206 -0.34600
O 	O 	0.02099 0.42716 0.37083 -0.47700
O 	O 	0.95677 0.36757 0.35794 -0.31800
O 	O 	0.19966 0.13557 0.56532 -0.30900
O 	O 	0.21390 0.21390 0.54348 -0.31700
O 	O 	0.66380 0.45210 0.44306 -0.33400
O 	O 	0.62860 0.53180 0.45217 -0.33000
O 	O 	0.40570 0.58960 0.20871 -0.46400
O 	O 	0.40840 0.56920 0.16105 -0.30300
O 	O 	0.17455 0.48545 0.29352 -0.34700
O 	O 	0.18665 0.41805 0.32408 -0.46700
O 	O 	0.11183 0.35616 0.10415 -0.34500
O 	O 	0.15820 0.43397 0.10974 -0.30200
O 	O 	0.23330 0.11326 0.05501 -0.55400
O 	O 	0.24580 0.03809 0.07877 -0.39100
N 	N 	0.51627 0.29539 0.32574 -0.27600
H 	H 	0.52100 0.27660 0.34240 0.08500
H 	H 	0.54840 0.31290 0.32180 0.11600
N 	N 	0.06406 0.30682 0.44051 -0.26900
H 	H 	0.09550 0.28670 0.44020 0.10300
H 	H 	0.05640 0.31670 0.42220 0.09800
N 	N 	0.21490 0.15660 0.31182 -0.28000
H 	H 	0.18130 0.16990 0.31680 0.08300
H 	H 	0.21590 0.12040 0.31680 0.11000
N 	N 	0.14718 0.13010 0.26296 -0.19500
H 	H 	0.14590 0.09650 0.27140 0.08400
H 	H 	0.12210 0.15190 0.27190 0.05600
N 	N 	0.89997 0.53035 0.55457 -0.27300
H 	H 	0.89980 0.55090 0.57080 0.10700
H 	H 	0.92260 0.54730 0.54180 0.09600
N 	N 	0.98800 0.50725 0.33724 -0.26500
H 	H 	0.02010 0.49670 0.32900 0.08000
H 	H 	0.99590 0.52020 0.35500 0.07100
N 	N 	0.10447 0.16944 0.58850 -0.27000
H 	H 	0.12470 0.18050 0.60380 0.13200
H 	H 	0.10950 0.13260 0.58630 0.11000
N 	N 	0.65660 0.46860 0.38691 -0.26700
H 	H 	0.62330 0.45170 0.38620 0.08500
H 	H 	0.67980 0.44560 0.39630 0.11300
N 	N 	0.33667 0.50240 0.21710 -0.24500
H 	H 	0.30570 0.52140 0.21260 0.04600
H 	H 	0.35340 0.52070 0.23160 0.02400
N 	N 	0.25920 0.45742 0.26282 -0.23100
H 	H 	0.27620 0.48440 0.27300 0.02700
H 	H 	0.22970 0.47260 0.25390 0.05300
N 	N 	0.20124 0.29274 0.10836 -0.25200
H 	H 	0.20890 0.29400 0.08930 0.03800
H 	H 	0.16640 0.27960 0.11020 0.06100
N 	N 	0.23240 0.18068 0.09651 -0.24500
H 	H 	0.19520 0.17980 0.09460 0.04100
H 	H 	0.24660 0.19150 0.07940 0.03900
C 	C 	0.45600 0.36020 0.30402 0.26800
C 	C 	0.47490 0.33560 0.33011 -0.19700
H 	H 	0.44310 0.31680 0.33890 0.05900
C 	C 	0.49390 0.38250 0.35173 0.34900
C 	C 	0.49770 0.39700 0.29024 -0.58400
H 	H 	0.48260 0.41240 0.27290 0.15200
H 	H 	0.53040 0.37600 0.28570 0.16300
H 	H 	0.50720 0.42650 0.30330 0.18400
C 	C 	0.39650 0.39230 0.30845 -0.49700
H 	H 	0.38510 0.40850 0.29050 0.12200
H 	H 	0.40060 0.42080 0.32270 0.15900
H 	H 	0.36890 0.36620 0.31470 0.12700
C 	C 	0.02373 0.38175 0.46771 0.31700
C 	C 	0.07411 0.35710 0.45735 -0.23500
H 	H 	0.09620 0.34660 0.47420 0.07300
C 	C 	0.11000 0.39620 0.43879 0.37300
C 	C 	0.98450 0.40300 0.44370 -0.58500
H 	H 	0.95210 0.41920 0.45230 0.15600
H 	H 	0.97370 0.37260 0.43160 0.17000
H 	H 	0.00330 0.43050 0.43230 0.18700
C 	C 	0.03150 0.42420 0.49108 -0.60400
H 	H 	0.99620 0.43970 0.49620 0.15900
H 	H 	0.05550 0.45310 0.48430 0.19600
H 	H 	0.04780 0.40690 0.50770 0.15800
C 	C 	0.31650 0.16710 0.31720 0.25500
C 	C 	0.25820 0.18680 0.32863 -0.18500
H 	H 	0.25370 0.22710 0.32730 0.06000
C 	C 	0.25440 0.16545 0.36081 0.36600
C 	C 	0.32370 0.10290 0.31790 -0.54000
H 	H 	0.29160 0.08560 0.30960 0.15600
H 	H 	0.32790 0.09080 0.33750 0.16900
H 	H 	0.35600 0.09280 0.30700 0.14200
C 	C 	0.36450 0.19930 0.33027 -0.55500
H 	H 	0.39890 0.18480 0.32300 0.14700
H 	H 	0.36360 0.19560 0.35090 0.18500
H 	H 	0.36130 0.23770 0.32510 0.14600
C 	C 	0.15070 0.17440 0.21608 0.69500
C 	C 	0.13163 0.12440 0.23460 -0.52900
H 	H 	0.14110 0.08830 0.22630 0.54600
C 	C 	0.06750 0.13560 0.23640 0.49600
C 	C 	0.12390 0.22600 0.22432 -0.91500
H 	H 	0.12610 0.23050 0.24490 0.24100
H 	H 	0.08570 0.22510 0.21850 0.24000
H 	H 	0.14220 0.25650 0.21500 0.23300
C 	C 	0.14450 0.16880 0.18802 -1.11400
H 	H 	0.16070 0.13440 0.18190 0.30400
H 	H 	0.16260 0.19900 0.17830 0.29400
H 	H 	0.10570 0.16900 0.18330 0.30700
C 	C 	0.84120 0.48690 0.51856 0.27800
C 	C 	0.84340 0.52942 0.54259 -0.20200
H 	H 	0.81680 0.51960 0.55770 0.08200
C 	C 	0.82897 0.58750 0.52998 0.37500
C 	C 	0.88320 0.49940 0.49467 -0.54700
H 	H 	0.88050 0.47150 0.47990 0.14100
H 	H 	0.91990 0.49930 0.50260 0.14700
H 	H 	0.87530 0.53510 0.48650 0.16700
C 	C 	0.78430 0.47450 0.50579 -0.57100
H 	H 	0.78790 0.44700 0.49090 0.15400
H 	H 	0.76900 0.50780 0.49770 0.18800
H 	H 	0.76020 0.46090 0.52070 0.16000
C 	C 	0.89530 0.47670 0.35118 0.29600
C 	C 	0.95170 0.45890 0.33993 -0.21700
H 	H 	0.94640 0.44340 0.32060 0.07100
C 	C 	0.98250 0.41400 0.35869 0.41100
C 	C 	0.89960 0.49800 0.38095 -0.59400
H 	H 	0.86350 0.50870 0.38770 0.15800
H 	H 	0.92380 0.52970 0.38130 0.16400
H 	H 	0.91440 0.46960 0.39330 0.18400
C 	C 	0.84950 0.42980 0.34915 -0.57000
H 	H 	0.81510 0.44350 0.35670 0.16200
H 	H 	0.86110 0.39810 0.36020 0.19500
H 	H 	0.84460 0.41920 0.32940 0.15600
C 	C 	0.08827 0.19240 0.53819 0.46800
C 	C 	0.12440 0.19810 0.56255 -0.28400
H 	H 	0.12480 0.23770 0.56730 0.09800
C 	C 	0.18480 0.18170 0.55741 0.35700
C 	C 	0.08230 0.13350 0.53199 -0.76500
H 	H 	0.07350 0.11400 0.54940 0.22300
H 	H 	0.11640 0.11940 0.52420 0.22700
H 	H 	0.05310 0.12820 0.51820 0.19900
C 	C 	0.10190 0.22280 0.51278 -0.79900
H 	H 	0.10440 0.26160 0.51730 0.22000
H 	H 	0.07360 0.21720 0.49850 0.20800
H 	H 	0.13690 0.21020 0.50540 0.25300
C 	C 	0.69870 0.54810 0.39856 0.37900
C 	C 	0.65040 0.51740 0.40415 -0.25400
H 	H 	0.61730 0.53820 0.39840 0.07400
C 	C 	0.64500 0.49620 0.43596 0.34800
C 	C 	0.75120 0.52320 0.40910 -0.65700
H 	H 	0.78150 0.54800 0.40520 0.17200
H 	H 	0.75750 0.48850 0.39940 0.18800
H 	H 	0.74860 0.51690 0.42950 0.21100
C 	C 	0.69760 0.60430 0.41231 -0.65400
H 	H 	0.73220 0.62280 0.40890 0.17700
H 	H 	0.69190 0.60040 0.43270 0.22100
H 	H 	0.66790 0.62570 0.40420 0.17500
C 	C 	0.41700 0.46370 0.19824 0.32900
C 	C 	0.37321 0.50400 0.19237 -0.24900
H 	H 	0.35290 0.49370 0.17490 0.09800
C 	C 	0.39790 0.56160 0.18918 0.36700
C 	C 	0.45370 0.47535 0.22345 -0.62100
H 	H 	0.48070 0.44630 0.22530 0.16100
H 	H 	0.43170 0.47710 0.24070 0.16600
H 	H 	0.47220 0.51020 0.22060 0.19300
C 	C 	0.45090 0.45410 0.17096 -0.59500
H 	H 	0.42630 0.44690 0.15510 0.16200
H 	H 	0.47500 0.42290 0.17370 0.15200
H 	H 	0.47260 0.48650 0.16690 0.19600
C 	C 	0.22130 0.36660 0.26817 0.44500
C 	C 	0.24080 0.41710 0.28163 -0.28300
H 	H 	0.27240 0.40690 0.29390 0.07700
C 	C 	0.19690 0.44250 0.30130 0.38300
C 	C 	0.17390 0.37540 0.24934 -0.75500
H 	H 	0.18190 0.40490 0.23610 0.21300
H 	H 	0.14200 0.38500 0.26070 0.23400
H 	H 	0.16640 0.34200 0.23880 0.19700
C 	C 	0.21340 0.32350 0.28963 -0.75000
H 	H 	0.24600 0.32090 0.30150 0.20300
H 	H 	0.20710 0.28870 0.28020 0.19200
H 	H 	0.18200 0.33250 0.30150 0.23800
C 	C 	0.20850 0.35140 0.15073 0.34900
C 	C 	0.20150 0.34940 0.11909 -0.25600
H 	H 	0.23370 0.36800 0.11060 0.08500
C 	C 	0.15230 0.38040 0.11024 0.35300
C 	C 	0.15670 0.33030 0.16436 -0.60800
H 	H 	0.16050 0.33130 0.18500 0.15000
H 	H 	0.15020 0.29280 0.15830 0.15600
H 	H 	0.12600 0.35310 0.15860 0.18500
C 	C 	0.22300 0.40510 0.16367 -0.66500
H 	H 	0.22540 0.40120 0.18420 0.17600
H 	H 	0.19510 0.43200 0.15900 0.21800
H 	H 	0.25820 0.41730 0.15630 0.19000
C 	C 	0.31029 0.12650 0.11191 0.44300
C 	C 	0.25280 0.12150 0.10284 -0.31100
H 	H 	0.23060 0.10510 0.11840 0.09900
C 	C 	0.24750 0.08550 0.07484 0.48100
C 	C 	0.34780 0.14680 0.09137 -0.78600
H 	H 	0.33510 0.18210 0.08440 0.22100
H 	H 	0.35020 0.12120 0.07560 0.22500
H 	H 	0.38370 0.15100 0.10010 0.20400
C 	C 	0.32530 0.06990 0.12421 -0.69400
H 	H 	0.36330 0.07010 0.13040 0.18400
H 	H 	0.32030 0.04210 0.10960 0.22800
H 	H 	0.30170 0.06180 0.14040 0.18900
O 	O 	0.08670 0.33650 0.33498 -0.37200
C 	C 	0.06080 0.37440 0.31290 0.43900
C 	C 	0.03750 0.32890 0.28950 -0.58400
H 	H 	0.04210 0.29220 0.29720 0.16600
H 	H 	0.05780 0.33230 0.27180 0.16200
H 	H 	0.99880 0.33570 0.28600 0.16000
O 	O 	0.06550 0.41630 0.31440 -0.47900
La	La	0.96764 0.07099 0.20735 0.87600
La	La	0.84948 0.72075 0.50807 1.08200
O 	O 	0.78050 0.67990 0.47163 -0.38100
O 	O 	0.04270 0.11840 0.24753 -0.60400
O 	O 	0.05650 0.08500 0.20457 -0.14000
H 	H 	0.15620 0.09470 0.22790 -0.41400
C 	C 	0.07260 0.09960 0.22844 0.55400
La	La	0.93419 0.13863 0.26615 0.63800
La	La	0.95760 0.04450 0.26078 0.14100
La	La	0.94560 0.11700 0.23273 0.05700
La	La	0.22870 0.17160 0.00929 -0.14000
La	La	0.18120 0.14330 0.01581 0.78800
