data_crystal

_cell_length_a 26.88800
_cell_length_b 26.88800
_cell_length_c 7.23850
_cell_angle_alpha 90.00000
_cell_angle_beta  90.00000
_cell_angle_gamma 120.00000

_symmetry_space_group_name_	'P 1'
_symmetry_space_group_name_H-M	'P 1'

loop_
_symmetry_equiv_pos_as_xyz
  x,y,z

loop_
_atom_site_label
_atom_site_type_symbol
_atom_site_fract_x
_atom_site_fract_y
_atom_site_fract_z
_atom_site_charge
Cd	Cd	0.72428 0.70456 0.80232 1.20800
C 	C 	0.75540 0.68130 0.41380 0.40500
C 	C 	0.79310 0.67180 0.27920 -0.18300
C 	C 	0.84530 0.67960 0.34850 -0.12000
H 	H 	0.85297 0.68827 0.47328 0.07100
C 	C 	0.88600 0.67520 0.24450 0.19100
O 	O 	0.70842 0.67570 0.35920 -0.55300
O 	O 	0.77440 0.69760 0.57190 -0.47900
O 	O 	0.93478 0.68550 0.32860 -0.54600
Cd	Cd	0.39095 0.03789 0.13565 1.20900
C 	C 	0.42207 0.01463 0.74713 0.40600
C 	C 	0.45977 0.00513 0.61253 -0.18200
C 	C 	0.51197 0.01293 0.68183 -0.11800
H 	H 	0.51964 0.02160 0.80661 0.07200
C 	C 	0.55267 0.00853 0.57783 0.19200
O 	O 	0.37509 0.00903 0.69253 -0.55300
O 	O 	0.44107 0.03093 0.90523 -0.47900
O 	O 	0.60145 0.01883 0.66193 -0.54600
Cd	Cd	0.05761 0.37123 0.46899 1.20900
C 	C 	0.08873 0.34797 0.08047 0.40600
C 	C 	0.12643 0.33847 0.94587 -0.18400
C 	C 	0.17863 0.34627 0.01517 -0.11700
H 	H 	0.18630 0.35494 0.13995 0.07200
C 	C 	0.21933 0.34187 0.91117 0.19100
O 	O 	0.04175 0.34237 0.02587 -0.55300
O 	O 	0.10773 0.36427 0.23857 -0.47900
O 	O 	0.26811 0.35217 0.99527 -0.54600
Cd	Cd	0.29544 0.01972 0.80232 1.21000
C 	C 	0.31870 0.07410 0.41380 0.40600
C 	C 	0.32820 0.12130 0.27920 -0.18200
C 	C 	0.32040 0.16570 0.34850 -0.11900
H 	H 	0.31173 0.16470 0.47328 0.07200
C 	C 	0.32480 0.21080 0.24450 0.19200
O 	O 	0.32430 0.03272 0.35920 -0.55300
O 	O 	0.30240 0.07680 0.57190 -0.47900
O 	O 	0.31450 0.24928 0.32860 -0.54600
Cd	Cd	0.96211 0.35305 0.13565 1.20900
C 	C 	0.98537 0.40743 0.74713 0.40600
C 	C 	0.99487 0.45463 0.61253 -0.18200
C 	C 	0.98707 0.49903 0.68183 -0.11800
H 	H 	0.97840 0.49803 0.80661 0.07200
C 	C 	0.99147 0.54413 0.57783 0.19200
O 	O 	0.99097 0.36605 0.69253 -0.55300
O 	O 	0.96907 0.41013 0.90523 -0.47900
O 	O 	0.98117 0.58261 0.66193 -0.54600
Cd	Cd	0.62877 0.68639 0.46899 1.20900
C 	C 	0.65203 0.74077 0.08047 0.40600
C 	C 	0.66153 0.78797 0.94587 -0.18300
C 	C 	0.65373 0.83237 0.01517 -0.11700
H 	H 	0.64506 0.83137 0.13995 0.07200
C 	C 	0.65813 0.87747 0.91117 0.19100
O 	O 	0.65763 0.69939 0.02587 -0.55300
O 	O 	0.63573 0.74347 0.23857 -0.47900
O 	O 	0.64783 0.91595 0.99527 -0.54600
Cd	Cd	0.98028 0.27572 0.80232 1.21000
C 	C 	0.92590 0.24460 0.41380 0.40600
C 	C 	0.87870 0.20690 0.27920 -0.18200
C 	C 	0.83430 0.15470 0.34850 -0.11900
H 	H 	0.83530 0.14703 0.47328 0.07200
C 	C 	0.78920 0.11400 0.24450 0.19300
O 	O 	0.96728 0.29158 0.35920 -0.55300
O 	O 	0.92320 0.22560 0.57190 -0.47900
O 	O 	0.75072 0.06522 0.32860 -0.54600
Cd	Cd	0.64695 0.60905 0.13565 1.20900
C 	C 	0.59257 0.57793 0.74713 0.40600
C 	C 	0.54537 0.54023 0.61253 -0.18200
C 	C 	0.50097 0.48803 0.68183 -0.11800
H 	H 	0.50197 0.48036 0.80661 0.07200
C 	C 	0.45587 0.44733 0.57783 0.19200
O 	O 	0.63395 0.62491 0.69253 -0.55300
O 	O 	0.58987 0.55893 0.90523 -0.47900
O 	O 	0.41739 0.39855 0.66193 -0.54600
Cd	Cd	0.31361 0.94239 0.46899 1.20900
C 	C 	0.25923 0.91127 0.08047 0.40700
C 	C 	0.21203 0.87357 0.94587 -0.18500
C 	C 	0.16763 0.82137 0.01517 -0.11600
H 	H 	0.16863 0.81370 0.13995 0.07100
C 	C 	0.12253 0.78067 0.91117 0.19000
O 	O 	0.30061 0.95825 0.02587 -0.55300
O 	O 	0.25653 0.89227 0.23857 -0.47900
O 	O 	0.08405 0.73189 0.99527 -0.54600
Cd	Cd	0.27572 0.29544 0.19768 1.20900
C 	C 	0.24460 0.31870 0.58620 0.40600
C 	C 	0.20690 0.32820 0.72080 -0.18200
C 	C 	0.15470 0.32040 0.65150 -0.11900
H 	H 	0.14703 0.31173 0.52672 0.07200
C 	C 	0.11400 0.32480 0.75550 0.19200
O 	O 	0.29158 0.32430 0.64080 -0.55300
O 	O 	0.22560 0.30240 0.42810 -0.47900
O 	O 	0.06522 0.31450 0.67140 -0.54600
Cd	Cd	0.94239 0.62877 0.53101 1.20900
C 	C 	0.91127 0.65203 0.91953 0.40600
C 	C 	0.87357 0.66153 0.05413 -0.18400
C 	C 	0.82137 0.65373 0.98483 -0.11700
H 	H 	0.81370 0.64506 0.86005 0.07200
C 	C 	0.78067 0.65813 0.08883 0.19100
O 	O 	0.95825 0.65763 0.97413 -0.55300
O 	O 	0.89227 0.63573 0.76143 -0.47900
O 	O 	0.73189 0.64783 0.00473 -0.54600
Cd	Cd	0.60905 0.96211 0.86435 1.20900
C 	C 	0.57793 0.98537 0.25287 0.40600
C 	C 	0.54023 0.99487 0.38747 -0.18200
C 	C 	0.48803 0.98707 0.31817 -0.11800
H 	H 	0.48036 0.97840 0.19339 0.07200
C 	C 	0.44733 0.99147 0.42217 0.19200
O 	O 	0.62491 0.99097 0.30747 -0.55300
O 	O 	0.55893 0.96907 0.09477 -0.47900
O 	O 	0.39855 0.98117 0.33807 -0.54600
Cd	Cd	0.70456 0.98028 0.19768 1.21000
C 	C 	0.68130 0.92590 0.58620 0.40600
C 	C 	0.67180 0.87870 0.72080 -0.18200
C 	C 	0.67960 0.83430 0.65150 -0.11900
H 	H 	0.68827 0.83530 0.52672 0.07200
C 	C 	0.67520 0.78920 0.75550 0.19200
O 	O 	0.67570 0.96728 0.64080 -0.55300
O 	O 	0.69760 0.92320 0.42810 -0.47900
O 	O 	0.68550 0.75072 0.67140 -0.54600
Cd	Cd	0.37123 0.31361 0.53101 1.20900
C 	C 	0.34797 0.25923 0.91953 0.40600
C 	C 	0.33847 0.21203 0.05413 -0.18300
C 	C 	0.34627 0.16763 0.98483 -0.11700
H 	H 	0.35494 0.16863 0.86005 0.07200
C 	C 	0.34187 0.12253 0.08883 0.19100
O 	O 	0.34237 0.30061 0.97413 -0.55300
O 	O 	0.36427 0.25653 0.76143 -0.47900
O 	O 	0.35217 0.08405 0.00473 -0.54600
Cd	Cd	0.03789 0.64695 0.86435 1.20900
C 	C 	0.01463 0.59257 0.25287 0.40600
C 	C 	0.00513 0.54537 0.38747 -0.18200
C 	C 	0.01293 0.50097 0.31817 -0.11800
H 	H 	0.02160 0.50197 0.19339 0.07200
C 	C 	0.00853 0.45587 0.42217 0.19200
O 	O 	0.00903 0.63395 0.30747 -0.55300
O 	O 	0.03093 0.58987 0.09477 -0.47900
O 	O 	0.01883 0.41739 0.33807 -0.54600
Cd	Cd	0.01972 0.72428 0.19768 1.21000
C 	C 	0.07410 0.75540 0.58620 0.40600
C 	C 	0.12130 0.79310 0.72080 -0.18200
C 	C 	0.16570 0.84530 0.65150 -0.11900
H 	H 	0.16470 0.85297 0.52672 0.07200
C 	C 	0.21080 0.88600 0.75550 0.19300
O 	O 	0.03272 0.70842 0.64080 -0.55300
O 	O 	0.07680 0.77440 0.42810 -0.47900
O 	O 	0.24928 0.93478 0.67140 -0.54600
Cd	Cd	0.68639 0.05761 0.53101 1.20900
C 	C 	0.74077 0.08873 0.91953 0.40700
C 	C 	0.78797 0.12643 0.05413 -0.18500
C 	C 	0.83237 0.17863 0.98483 -0.11600
H 	H 	0.83137 0.18630 0.86005 0.07100
C 	C 	0.87747 0.21933 0.08883 0.19000
O 	O 	0.69939 0.04175 0.97413 -0.55300
O 	O 	0.74347 0.10773 0.76143 -0.47900
O 	O 	0.91595 0.26811 0.00473 -0.54600
Cd	Cd	0.35305 0.39095 0.86435 1.20900
C 	C 	0.40743 0.42207 0.25287 0.40600
C 	C 	0.45463 0.45977 0.38747 -0.18200
C 	C 	0.49903 0.51197 0.31817 -0.11800
H 	H 	0.49803 0.51964 0.19339 0.07200
C 	C 	0.54413 0.55267 0.42217 0.19200
O 	O 	0.36605 0.37509 0.30747 -0.55300
O 	O 	0.41013 0.44107 0.09477 -0.47900
O 	O 	0.58261 0.60145 0.33807 -0.54600
