data_crystal

_cell_length_a 8.45170
_cell_length_b 25.32600
_cell_length_c 17.74800
_cell_angle_alpha 90.00000
_cell_angle_beta  90.00000
_cell_angle_gamma 90.00000

_symmetry_space_group_name_	'P 1'
_symmetry_space_group_name_H-M	'P 1'

loop_
_symmetry_equiv_pos_as_xyz
  x,y,z

loop_
_atom_site_label
_atom_site_type_symbol
_atom_site_fract_x
_atom_site_fract_y
_atom_site_fract_z
_atom_site_charge
Dy	Dy	0.66544 0.47616 0.78230 2.07400
Dy	Dy	0.16544 0.52384 0.71770 2.07500
Dy	Dy	0.16544 0.97616 0.21769 2.07300
Dy	Dy	0.66544 0.02384 0.28230 2.07500
Ag	Ag	0.46203 0.22732 0.55003 0.51100
Ag	Ag	0.96203 0.77268 0.94997 0.51000
Ag	Ag	0.96203 0.72732 0.44997 0.51000
Ag	Ag	0.46203 0.27268 0.05003 0.51100
H 	H 	0.05900 0.40400 0.14250 0.14500
H 	H 	0.71290 0.37100 0.39420 0.15900
H 	H 	0.96440 0.45510 0.00790 0.07600
H 	H 	0.24860 0.33910 0.17440 -0.00900
H 	H 	0.40270 0.36110 0.91780 0.04200
H 	H 	0.69170 0.29810 0.66000 0.04000
H 	H 	0.55300 0.29580 0.40030 -0.00900
H 	H 	0.88050 0.43420 0.50290 0.07200
H 	H 	0.55900 0.59600 0.35750 0.14500
H 	H 	0.21290 0.62900 0.10580 0.15900
H 	H 	0.46440 0.54490 0.49210 0.07500
H 	H 	0.74860 0.66090 0.32560 -0.00900
H 	H 	0.90270 0.63890 0.58220 0.04200
H 	H 	0.19170 0.70190 0.84000 0.04000
H 	H 	0.05300 0.70420 0.09970 -0.00900
H 	H 	0.38050 0.56580 0.99710 0.07200
H 	H 	0.55900 0.90400 0.85750 0.14500
H 	H 	0.21290 0.87100 0.60580 0.15900
H 	H 	0.46440 0.95510 0.99210 0.07600
H 	H 	0.74860 0.83910 0.82560 -0.01000
H 	H 	0.90270 0.86110 0.08220 0.04200
H 	H 	0.19170 0.79810 0.34000 0.04000
H 	H 	0.05300 0.79580 0.59970 -0.00900
H 	H 	0.38050 0.93420 0.49710 0.07200
H 	H 	0.05900 0.09600 0.64250 0.14500
H 	H 	0.71290 0.12900 0.89420 0.15900
H 	H 	0.96440 0.04490 0.50790 0.07500
H 	H 	0.24860 0.16090 0.67440 -0.00900
H 	H 	0.40270 0.13890 0.41780 0.04200
H 	H 	0.69170 0.20190 0.16000 0.04000
H 	H 	0.55300 0.20420 0.90030 -0.00900
H 	H 	0.88050 0.06580 0.00290 0.07300
C 	C 	0.01030 0.48246 0.87069 0.43600
C 	C 	0.10570 0.44443 0.91661 -0.06400
C 	C 	0.05360 0.43753 0.99017 -0.07300
C 	C 	0.13880 0.40364 0.03630 0.09900
C 	C 	0.23340 0.35368 0.12680 0.11300
C 	C 	0.26210 0.37280 0.00850 0.02100
C 	C 	0.31710 0.38033 0.93600 -0.04700
C 	C 	0.24170 0.41723 0.89108 -0.07600
C 	C 	0.30980 0.42622 0.81350 0.43000
C 	C 	0.84930 0.36563 0.74210 0.35800
C 	C 	0.81160 0.36774 0.65900 -0.07600
C 	C 	0.72540 0.32570 0.62935 -0.08000
C 	C 	0.69130 0.32604 0.55290 0.01600
C 	C 	0.60520 0.31113 0.44090 0.12500
C 	C 	0.75060 0.36570 0.50520 0.06800
C 	C 	0.84070 0.40792 0.53430 -0.08300
C 	C 	0.86770 0.40890 0.61140 -0.05800
C 	C 	0.95220 0.45430 0.64480 0.36400
C 	C 	0.51030 0.51754 0.62931 0.43600
C 	C 	0.60570 0.55557 0.58339 -0.06400
C 	C 	0.55360 0.56247 0.50983 -0.07300
C 	C 	0.63880 0.59636 0.46370 0.09900
C 	C 	0.73340 0.64632 0.37320 0.11300
C 	C 	0.76210 0.62720 0.49150 0.02200
C 	C 	0.81710 0.61967 0.56400 -0.04700
C 	C 	0.74170 0.58277 0.60892 -0.07600
C 	C 	0.80980 0.57378 0.68650 0.43000
C 	C 	0.34930 0.63437 0.75790 0.35800
C 	C 	0.31160 0.63226 0.84100 -0.07600
C 	C 	0.22540 0.67430 0.87065 -0.08000
C 	C 	0.19130 0.67396 0.94710 0.01600
C 	C 	0.10520 0.68887 0.05910 0.12400
C 	C 	0.25060 0.63430 0.99480 0.06800
C 	C 	0.34070 0.59208 0.96570 -0.08300
C 	C 	0.36770 0.59110 0.88860 -0.05800
C 	C 	0.45220 0.54570 0.85520 0.36400
C 	C 	0.51030 0.98246 0.12931 0.43600
C 	C 	0.60570 0.94443 0.08339 -0.06400
C 	C 	0.55360 0.93753 0.00983 -0.07400
C 	C 	0.63880 0.90364 0.96370 0.10000
C 	C 	0.73340 0.85368 0.87320 0.11300
C 	C 	0.76210 0.87280 0.99150 0.02100
C 	C 	0.81710 0.88033 0.06400 -0.04700
C 	C 	0.74170 0.91723 0.10892 -0.07600
C 	C 	0.80980 0.92622 0.18650 0.43000
C 	C 	0.34930 0.86563 0.25790 0.35800
C 	C 	0.31160 0.86774 0.34100 -0.07600
C 	C 	0.22540 0.82570 0.37065 -0.08000
C 	C 	0.19130 0.82604 0.44710 0.01600
C 	C 	0.10520 0.81113 0.55910 0.12500
C 	C 	0.25060 0.86570 0.49480 0.06800
C 	C 	0.34070 0.90792 0.46570 -0.08300
C 	C 	0.36770 0.90890 0.38860 -0.05800
C 	C 	0.45220 0.95430 0.35520 0.36400
C 	C 	0.01030 0.01754 0.37069 0.43800
C 	C 	0.10570 0.05557 0.41661 -0.06500
C 	C 	0.05360 0.06247 0.49017 -0.07200
C 	C 	0.13880 0.09636 0.53630 0.09900
C 	C 	0.23340 0.14632 0.62680 0.11300
C 	C 	0.26210 0.12720 0.50850 0.02200
C 	C 	0.31710 0.11967 0.43600 -0.04800
C 	C 	0.24170 0.08277 0.39108 -0.07600
C 	C 	0.30980 0.07378 0.31350 0.43000
C 	C 	0.84930 0.13437 0.24210 0.35800
C 	C 	0.81160 0.13226 0.15900 -0.07600
C 	C 	0.72540 0.17430 0.12935 -0.07900
C 	C 	0.69130 0.17396 0.05290 0.01600
C 	C 	0.60520 0.18887 0.94090 0.12400
C 	C 	0.75060 0.13430 0.00520 0.06800
C 	C 	0.84070 0.09208 0.03430 -0.08300
C 	C 	0.86770 0.09110 0.11140 -0.05800
C 	C 	0.95220 0.04570 0.14480 0.36400
N 	N 	0.12540 0.39066 0.11113 -0.22300
N 	N 	0.31650 0.34021 0.06603 -0.20500
N 	N 	0.59770 0.29215 0.51054 -0.20600
N 	N 	0.69400 0.35377 0.43495 -0.22800
N 	N 	0.62540 0.60934 0.38887 -0.22300
N 	N 	0.81650 0.65979 0.43397 -0.20500
N 	N 	0.09770 0.70785 0.98946 -0.20500
N 	N 	0.19400 0.64623 0.06505 -0.22800
N 	N 	0.62540 0.89066 0.88887 -0.22300
N 	N 	0.81650 0.84021 0.93397 -0.20500
N 	N 	0.09770 0.79215 0.48946 -0.20600
N 	N 	0.19400 0.85377 0.56505 -0.22800
N 	N 	0.12540 0.10934 0.61113 -0.22300
N 	N 	0.31650 0.15979 0.56603 -0.20500
N 	N 	0.59770 0.20785 0.01054 -0.20600
N 	N 	0.69400 0.14623 0.93495 -0.22800
O 	O 	0.86470 0.47572 0.87117 -0.49600
O 	O 	0.07750 0.52186 0.83891 -0.51500
O 	O 	0.22260 0.44061 0.75981 -0.49900
O 	O 	0.45790 0.41927 0.80714 -0.49000
O 	O 	0.74980 0.38950 0.78555 -0.45500
O 	O 	0.96010 0.33926 0.76506 -0.27900
O 	O 	0.91220 0.46974 0.71108 -0.54500
O 	O 	0.06350 0.47635 0.61143 -0.43400
O 	O 	0.36470 0.52428 0.62883 -0.49600
O 	O 	0.57750 0.47814 0.66109 -0.51500
O 	O 	0.72260 0.55939 0.74019 -0.49900
O 	O 	0.95790 0.58073 0.69286 -0.49000
O 	O 	0.24980 0.61050 0.71445 -0.45400
O 	O 	0.46010 0.66074 0.73494 -0.28000
O 	O 	0.41220 0.53026 0.78892 -0.54500
O 	O 	0.56350 0.52365 0.88857 -0.43300
O 	O 	0.36470 0.97572 0.12883 -0.49600
O 	O 	0.57750 0.02186 0.16109 -0.51500
O 	O 	0.72260 0.94061 0.24019 -0.49900
O 	O 	0.95790 0.91927 0.19286 -0.48900
O 	O 	0.24980 0.88950 0.21445 -0.45400
O 	O 	0.46010 0.83926 0.23494 -0.28000
O 	O 	0.41220 0.96974 0.28892 -0.54500
O 	O 	0.56350 0.97635 0.38857 -0.43300
O 	O 	0.86470 0.02428 0.37117 -0.49600
O 	O 	0.07750 0.97814 0.33891 -0.51500
O 	O 	0.22260 0.05939 0.25981 -0.49900
O 	O 	0.45790 0.08073 0.30714 -0.49000
O 	O 	0.74980 0.11050 0.28555 -0.45500
O 	O 	0.96010 0.16074 0.26506 -0.27900
O 	O 	0.91220 0.03026 0.21108 -0.54500
O 	O 	0.06350 0.02365 0.11143 -0.43300
Dy	Dy	0.83456 0.02384 0.78230 2.07300
Dy	Dy	0.33456 0.97616 0.71770 2.07500
Dy	Dy	0.33456 0.52384 0.21769 2.07400
Dy	Dy	0.83456 0.47616 0.28230 2.07500
Ag	Ag	0.03797 0.27268 0.55003 0.51000
Ag	Ag	0.53797 0.72732 0.94997 0.51100
Ag	Ag	0.53797 0.77268 0.44997 0.51100
Ag	Ag	0.03797 0.22732 0.05003 0.51000
H 	H 	0.44100 0.09600 0.14250 0.14500
H 	H 	0.78710 0.12900 0.39420 0.15900
H 	H 	0.53560 0.04490 0.00790 0.07600
H 	H 	0.25140 0.16090 0.17440 -0.01000
H 	H 	0.09730 0.13890 0.91780 0.04200
H 	H 	0.80830 0.20190 0.66000 0.04000
H 	H 	0.94700 0.20420 0.40030 -0.00900
H 	H 	0.61950 0.06580 0.50290 0.07200
H 	H 	0.94100 0.90400 0.35750 0.14500
H 	H 	0.28710 0.87100 0.10580 0.15900
H 	H 	0.03560 0.95510 0.49210 0.07500
H 	H 	0.75140 0.83910 0.32560 -0.00900
H 	H 	0.59730 0.86110 0.58220 0.04200
H 	H 	0.30830 0.79810 0.84000 0.04000
H 	H 	0.44700 0.79580 0.09970 -0.00900
H 	H 	0.11950 0.93420 0.99710 0.07300
H 	H 	0.94100 0.59600 0.85750 0.14500
H 	H 	0.28710 0.62900 0.60580 0.15900
H 	H 	0.03560 0.54490 0.99210 0.07600
H 	H 	0.75140 0.66090 0.82560 -0.00900
H 	H 	0.59730 0.63890 0.08220 0.04200
H 	H 	0.30830 0.70190 0.34000 0.04000
H 	H 	0.44700 0.70420 0.59970 -0.00900
H 	H 	0.11950 0.56580 0.49710 0.07200
H 	H 	0.44100 0.40400 0.64250 0.14500
H 	H 	0.78710 0.37100 0.89420 0.15900
H 	H 	0.53560 0.45510 0.50790 0.07500
H 	H 	0.25140 0.33910 0.67440 -0.00900
H 	H 	0.09730 0.36110 0.41780 0.04200
H 	H 	0.80830 0.29810 0.16000 0.04000
H 	H 	0.94700 0.29580 0.90030 -0.00900
H 	H 	0.61950 0.43420 0.00290 0.07200
C 	C 	0.48970 0.01754 0.87069 0.43600
C 	C 	0.39430 0.05557 0.91661 -0.06400
C 	C 	0.44640 0.06247 0.99017 -0.07400
C 	C 	0.36120 0.09636 0.03630 0.10000
C 	C 	0.26660 0.14632 0.12680 0.11300
C 	C 	0.23790 0.12720 0.00850 0.02100
C 	C 	0.18290 0.11967 0.93600 -0.04700
C 	C 	0.25830 0.08277 0.89108 -0.07600
C 	C 	0.19020 0.07378 0.81350 0.43000
C 	C 	0.65070 0.13437 0.74210 0.35800
C 	C 	0.68840 0.13226 0.65900 -0.07600
C 	C 	0.77460 0.17430 0.62935 -0.08000
C 	C 	0.80870 0.17396 0.55290 0.01600
C 	C 	0.89480 0.18887 0.44090 0.12500
C 	C 	0.74940 0.13430 0.50520 0.06800
C 	C 	0.65930 0.09208 0.53430 -0.08300
C 	C 	0.63230 0.09110 0.61140 -0.05800
C 	C 	0.54780 0.04570 0.64480 0.36400
C 	C 	0.98970 0.98246 0.62931 0.43800
C 	C 	0.89430 0.94443 0.58339 -0.06500
C 	C 	0.94640 0.93753 0.50983 -0.07200
C 	C 	0.86120 0.90364 0.46370 0.09900
C 	C 	0.76660 0.85368 0.37320 0.11300
C 	C 	0.73790 0.87280 0.49150 0.02200
C 	C 	0.68290 0.88033 0.56400 -0.04800
C 	C 	0.75830 0.91723 0.60892 -0.07600
C 	C 	0.69020 0.92622 0.68650 0.43000
C 	C 	0.15070 0.86563 0.75790 0.35800
C 	C 	0.18840 0.86774 0.84100 -0.07600
C 	C 	0.27460 0.82570 0.87065 -0.07900
C 	C 	0.30870 0.82604 0.94710 0.01600
C 	C 	0.39480 0.81113 0.05910 0.12400
C 	C 	0.24940 0.86570 0.99480 0.06800
C 	C 	0.15930 0.90792 0.96570 -0.08300
C 	C 	0.13230 0.90890 0.88860 -0.05800
C 	C 	0.04780 0.95430 0.85520 0.36400
C 	C 	0.98970 0.51754 0.12931 0.43600
C 	C 	0.89430 0.55557 0.08339 -0.06400
C 	C 	0.94640 0.56247 0.00983 -0.07300
C 	C 	0.86120 0.59636 0.96370 0.09900
C 	C 	0.76660 0.64632 0.87320 0.11300
C 	C 	0.73790 0.62720 0.99150 0.02100
C 	C 	0.68290 0.61967 0.06400 -0.04700
C 	C 	0.75830 0.58277 0.10892 -0.07600
C 	C 	0.69020 0.57378 0.18650 0.43000
C 	C 	0.15070 0.63437 0.25790 0.35800
C 	C 	0.18840 0.63226 0.34100 -0.07600
C 	C 	0.27460 0.67430 0.37065 -0.08000
C 	C 	0.30870 0.67396 0.44710 0.01600
C 	C 	0.39480 0.68887 0.55910 0.12500
C 	C 	0.24940 0.63430 0.49480 0.06800
C 	C 	0.15930 0.59208 0.46570 -0.08300
C 	C 	0.13230 0.59110 0.38860 -0.05800
C 	C 	0.04780 0.54570 0.35520 0.36400
C 	C 	0.48970 0.48246 0.37069 0.43600
C 	C 	0.39430 0.44443 0.41661 -0.06400
C 	C 	0.44640 0.43753 0.49017 -0.07300
C 	C 	0.36120 0.40364 0.53630 0.09900
C 	C 	0.26660 0.35368 0.62680 0.11300
C 	C 	0.23790 0.37280 0.50850 0.02200
C 	C 	0.18290 0.38033 0.43600 -0.04700
C 	C 	0.25830 0.41723 0.39108 -0.07600
C 	C 	0.19020 0.42622 0.31350 0.43000
C 	C 	0.65070 0.36563 0.24210 0.35800
C 	C 	0.68840 0.36774 0.15900 -0.07600
C 	C 	0.77460 0.32570 0.12935 -0.08000
C 	C 	0.80870 0.32604 0.05290 0.01600
C 	C 	0.89480 0.31113 0.94090 0.12400
C 	C 	0.74940 0.36570 0.00520 0.06800
C 	C 	0.65930 0.40792 0.03430 -0.08300
C 	C 	0.63230 0.40890 0.11140 -0.05800
C 	C 	0.54780 0.45430 0.14480 0.36400
N 	N 	0.37460 0.10934 0.11113 -0.22300
N 	N 	0.18350 0.15979 0.06603 -0.20500
N 	N 	0.90230 0.20785 0.51054 -0.20600
N 	N 	0.80600 0.14623 0.43495 -0.22800
N 	N 	0.87460 0.89066 0.38887 -0.22300
N 	N 	0.68350 0.84021 0.43397 -0.20500
N 	N 	0.40230 0.79215 0.98946 -0.20600
N 	N 	0.30600 0.85377 0.06505 -0.22800
N 	N 	0.87460 0.60934 0.88887 -0.22300
N 	N 	0.68350 0.65979 0.93397 -0.20500
N 	N 	0.40230 0.70785 0.48946 -0.20600
N 	N 	0.30600 0.64623 0.56505 -0.22800
N 	N 	0.37460 0.39066 0.61113 -0.22300
N 	N 	0.18350 0.34021 0.56603 -0.20500
N 	N 	0.90230 0.29215 0.01054 -0.20500
N 	N 	0.80600 0.35377 0.93495 -0.22800
O 	O 	0.63530 0.02428 0.87117 -0.49600
O 	O 	0.42250 0.97814 0.83891 -0.51500
O 	O 	0.27740 0.05939 0.75981 -0.49900
O 	O 	0.04210 0.08073 0.80714 -0.48900
O 	O 	0.75020 0.11050 0.78555 -0.45400
O 	O 	0.53990 0.16074 0.76506 -0.28000
O 	O 	0.58780 0.03026 0.71108 -0.54500
O 	O 	0.43650 0.02365 0.61143 -0.43300
O 	O 	0.13530 0.97572 0.62883 -0.49600
O 	O 	0.92250 0.02186 0.66109 -0.51500
O 	O 	0.77740 0.94061 0.74019 -0.49900
O 	O 	0.54210 0.91927 0.69286 -0.49000
O 	O 	0.25020 0.88950 0.71445 -0.45500
O 	O 	0.03990 0.83926 0.73494 -0.27900
O 	O 	0.08780 0.96974 0.78892 -0.54500
O 	O 	0.93650 0.97635 0.88857 -0.43300
O 	O 	0.13530 0.52428 0.12883 -0.49600
O 	O 	0.92250 0.47814 0.16109 -0.51500
O 	O 	0.77740 0.55939 0.24019 -0.49900
O 	O 	0.54210 0.58073 0.19286 -0.49000
O 	O 	0.25020 0.61050 0.21445 -0.45500
O 	O 	0.03990 0.66074 0.23494 -0.27900
O 	O 	0.08780 0.53026 0.28892 -0.54500
O 	O 	0.93650 0.52365 0.38857 -0.43400
O 	O 	0.63530 0.47572 0.37117 -0.49600
O 	O 	0.42250 0.52186 0.33891 -0.51500
O 	O 	0.27740 0.44061 0.25981 -0.49900
O 	O 	0.04210 0.41927 0.30714 -0.49000
O 	O 	0.75020 0.38950 0.28555 -0.45400
O 	O 	0.53990 0.33926 0.26506 -0.28000
O 	O 	0.58780 0.46974 0.21108 -0.54500
O 	O 	0.43650 0.47635 0.11143 -0.43300
