data_crystal

_cell_length_a 8.59550
_cell_length_b 25.36300
_cell_length_c 17.82200
_cell_angle_alpha 90.00000
_cell_angle_beta  90.00000
_cell_angle_gamma 90.00000

_symmetry_space_group_name_	'P 1'
_symmetry_space_group_name_H-M	'P 1'

loop_
_symmetry_equiv_pos_as_xyz
  x,y,z

loop_
_atom_site_label
_atom_site_type_symbol
_atom_site_fract_x
_atom_site_fract_y
_atom_site_fract_z
_atom_site_charge
Sm	Sm	0.66304 0.97613 0.71637 2.29900
Sm	Sm	0.16304 0.02387 0.78363 2.29600
Sm	Sm	0.16304 0.47613 0.28363 2.29700
Sm	Sm	0.66304 0.52387 0.21637 2.29700
Ag	Ag	0.96100 0.27343 0.54946 0.51100
Ag	Ag	0.46100 0.72657 0.95054 0.51200
Ag	Ag	0.46100 0.77343 0.45054 0.51200
Ag	Ag	0.96100 0.22657 0.04946 0.51100
H 	H 	0.46690 0.04580 0.00910 0.07500
H 	H 	0.74700 0.16250 0.17400 -0.00900
H 	H 	0.89840 0.13960 0.91930 0.03600
H 	H 	0.38090 0.06940 0.50340 0.06500
H 	H 	0.05550 0.20700 0.40040 -0.00600
H 	H 	0.18350 0.20280 0.66060 0.03800
H 	H 	0.57100 0.09670 0.15090 0.12000
H 	H 	0.21900 0.13250 0.39160 0.14100
H 	H 	0.96690 0.95420 0.49090 0.07300
H 	H 	0.24700 0.83750 0.32600 -0.00900
H 	H 	0.39840 0.86040 0.58070 0.03600
H 	H 	0.88090 0.93060 0.99660 0.06500
H 	H 	0.55550 0.79300 0.09960 -0.00600
H 	H 	0.68350 0.79720 0.83940 0.03800
H 	H 	0.07100 0.90330 0.34910 0.12000
H 	H 	0.71900 0.86750 0.10840 0.14100
H 	H 	0.96690 0.54580 0.99090 0.07400
H 	H 	0.24700 0.66250 0.82600 -0.00900
H 	H 	0.39840 0.63960 0.08070 0.03600
H 	H 	0.88090 0.56940 0.49660 0.06500
H 	H 	0.55550 0.70700 0.59960 -0.00600
H 	H 	0.68350 0.70280 0.33940 0.03800
H 	H 	0.07100 0.59670 0.84910 0.11900
H 	H 	0.71900 0.63250 0.60840 0.14100
H 	H 	0.46690 0.45420 0.50910 0.07400
H 	H 	0.74700 0.33750 0.67400 -0.00900
H 	H 	0.89840 0.36040 0.41930 0.03600
H 	H 	0.38090 0.43060 0.00340 0.06500
H 	H 	0.05550 0.29300 0.90040 -0.00600
H 	H 	0.18350 0.29720 0.16060 0.03800
H 	H 	0.57100 0.40330 0.65090 0.12000
H 	H 	0.21900 0.36750 0.89160 0.14100
C 	C 	0.50970 0.01842 0.87250 0.44400
C 	C 	0.60550 0.05667 0.91820 -0.06200
C 	C 	0.55450 0.06333 0.99140 -0.07400
C 	C 	0.63880 0.09724 0.03750 0.09600
C 	C 	0.73260 0.14751 0.12690 0.10400
C 	C 	0.76060 0.12765 0.00940 0.01600
C 	C 	0.81390 0.12039 0.93710 -0.03900
C 	C 	0.73970 0.08409 0.89140 -0.09000
C 	C 	0.80650 0.07474 0.81480 0.44500
C 	C 	0.44950 0.04822 0.64450 0.36400
C 	C 	0.36390 0.09423 0.61160 -0.05700
C 	C 	0.33940 0.09520 0.53460 -0.08100
C 	C 	0.24990 0.13657 0.50590 0.06100
C 	C 	0.10590 0.19151 0.44090 0.11500
C 	C 	0.18810 0.17549 0.55320 0.01700
C 	C 	0.21980 0.17576 0.62990 -0.07300
C 	C 	0.30610 0.13495 0.65900 -0.08500
C 	C 	0.34050 0.13730 0.74210 0.36700
C 	C 	0.00970 0.98158 0.62750 0.44600
C 	C 	0.10550 0.94333 0.58180 -0.06400
C 	C 	0.05450 0.93667 0.50860 -0.07100
C 	C 	0.13880 0.90276 0.46250 0.09500
C 	C 	0.23260 0.85249 0.37310 0.10400
C 	C 	0.26060 0.87235 0.49060 0.01700
C 	C 	0.31390 0.87961 0.56290 -0.04000
C 	C 	0.23970 0.91591 0.60860 -0.09000
C 	C 	0.30650 0.92526 0.68520 0.44500
C 	C 	0.94950 0.95178 0.85550 0.36400
C 	C 	0.86390 0.90577 0.88840 -0.05700
C 	C 	0.83940 0.90480 0.96540 -0.08100
C 	C 	0.74990 0.86343 0.99410 0.06100
C 	C 	0.60590 0.80849 0.05910 0.11500
C 	C 	0.68810 0.82451 0.94680 0.01700
C 	C 	0.71980 0.82424 0.87010 -0.07300
C 	C 	0.80610 0.86505 0.84100 -0.08500
C 	C 	0.84050 0.86270 0.75790 0.36700
C 	C 	0.00970 0.51842 0.12750 0.44400
C 	C 	0.10550 0.55667 0.08180 -0.06300
C 	C 	0.05450 0.56333 0.00860 -0.07200
C 	C 	0.13880 0.59724 0.96250 0.09500
C 	C 	0.23260 0.64751 0.87310 0.10400
C 	C 	0.26060 0.62765 0.99060 0.01600
C 	C 	0.31390 0.62039 0.06290 -0.03900
C 	C 	0.23970 0.58409 0.10860 -0.09000
C 	C 	0.30650 0.57474 0.18520 0.44500
C 	C 	0.94950 0.54822 0.35550 0.36400
C 	C 	0.86390 0.59423 0.38840 -0.05800
C 	C 	0.83940 0.59520 0.46540 -0.08100
C 	C 	0.74990 0.63657 0.49410 0.06100
C 	C 	0.60590 0.69151 0.55910 0.11500
C 	C 	0.68810 0.67549 0.44680 0.01700
C 	C 	0.71980 0.67576 0.37010 -0.07300
C 	C 	0.80610 0.63495 0.34100 -0.08500
C 	C 	0.84050 0.63730 0.25790 0.36700
C 	C 	0.50970 0.48158 0.37250 0.44400
C 	C 	0.60550 0.44333 0.41820 -0.06300
C 	C 	0.55450 0.43667 0.49140 -0.07200
C 	C 	0.63880 0.40276 0.53750 0.09500
C 	C 	0.73260 0.35249 0.62690 0.10400
C 	C 	0.76060 0.37235 0.50940 0.01700
C 	C 	0.81390 0.37961 0.43710 -0.03900
C 	C 	0.73970 0.41591 0.39140 -0.09000
C 	C 	0.80650 0.42526 0.31480 0.44500
C 	C 	0.44950 0.45178 0.14450 0.36400
C 	C 	0.36390 0.40577 0.11160 -0.05800
C 	C 	0.33940 0.40480 0.03460 -0.08100
C 	C 	0.24990 0.36343 0.00590 0.06100
C 	C 	0.10590 0.30849 0.94090 0.11500
C 	C 	0.18810 0.32451 0.05320 0.01700
C 	C 	0.21980 0.32424 0.12990 -0.07300
C 	C 	0.30610 0.36505 0.15900 -0.08500
C 	C 	0.34050 0.36270 0.24210 0.36700
N 	N 	0.62600 0.11014 0.11220 -0.20600
N 	N 	0.81470 0.16048 0.06700 -0.20400
N 	N 	0.09600 0.20934 0.51020 -0.20400
N 	N 	0.19600 0.14865 0.43510 -0.21000
N 	N 	0.12600 0.88986 0.38780 -0.20500
N 	N 	0.31470 0.83952 0.43300 -0.20400
N 	N 	0.59600 0.79066 0.98980 -0.20400
N 	N 	0.69600 0.85135 0.06490 -0.21000
N 	N 	0.12600 0.61014 0.88780 -0.20600
N 	N 	0.31470 0.66048 0.93300 -0.20400
N 	N 	0.59600 0.70934 0.48980 -0.20400
N 	N 	0.69600 0.64865 0.56490 -0.21000
N 	N 	0.62600 0.38986 0.61220 -0.20600
N 	N 	0.81470 0.33952 0.56700 -0.20400
N 	N 	0.09600 0.29066 0.01020 -0.20300
N 	N 	0.19600 0.35135 0.93510 -0.21000
O 	O 	0.57550 0.97954 0.84091 -0.54100
O 	O 	0.36560 0.02526 0.87358 -0.52300
O 	O 	0.72030 0.06137 0.76125 -0.52700
O 	O 	0.95160 0.08167 0.80785 -0.52000
O 	O 	0.55910 0.02710 0.60982 -0.45300
O 	O 	0.41050 0.03169 0.71002 -0.58200
O 	O 	0.24630 0.11296 0.78570 -0.48200
O 	O 	0.45030 0.16370 0.76440 -0.28300
O 	O 	0.07550 0.02046 0.65909 -0.54200
O 	O 	0.86560 0.97474 0.62642 -0.52300
O 	O 	0.22030 0.93863 0.73875 -0.52600
O 	O 	0.45160 0.91833 0.69215 -0.52100
O 	O 	0.05910 0.97290 0.89018 -0.45300
O 	O 	0.91050 0.96831 0.78998 -0.58200
O 	O 	0.74630 0.88704 0.71430 -0.48200
O 	O 	0.95030 0.83630 0.73560 -0.28300
O 	O 	0.07550 0.47954 0.15909 -0.54100
O 	O 	0.86560 0.52526 0.12642 -0.52300
O 	O 	0.22030 0.56137 0.23875 -0.52700
O 	O 	0.45160 0.58167 0.19215 -0.52100
O 	O 	0.05910 0.52710 0.39018 -0.45400
O 	O 	0.91050 0.53169 0.28998 -0.58200
O 	O 	0.74630 0.61296 0.21430 -0.48200
O 	O 	0.95030 0.66370 0.23560 -0.28300
O 	O 	0.57550 0.52046 0.34091 -0.54100
O 	O 	0.36560 0.47474 0.37358 -0.52300
O 	O 	0.72030 0.43863 0.26125 -0.52700
O 	O 	0.95160 0.41833 0.30785 -0.52100
O 	O 	0.55910 0.47290 0.10982 -0.45400
O 	O 	0.41050 0.46831 0.21002 -0.58200
O 	O 	0.24630 0.38704 0.28570 -0.48100
O 	O 	0.45030 0.33630 0.26440 -0.28300
Sm	Sm	0.83696 0.52387 0.71637 2.29700
Sm	Sm	0.33696 0.47613 0.78363 2.29700
Sm	Sm	0.33696 0.02387 0.28363 2.29800
Sm	Sm	0.83696 0.97613 0.21637 2.29500
Ag	Ag	0.53900 0.22657 0.54946 0.51200
Ag	Ag	0.03900 0.77343 0.95054 0.51100
Ag	Ag	0.03900 0.72657 0.45054 0.51100
Ag	Ag	0.53900 0.27343 0.04946 0.51200
H 	H 	0.03310 0.45420 0.00910 0.07400
H 	H 	0.75300 0.33750 0.17400 -0.00900
H 	H 	0.60160 0.36040 0.91930 0.03600
H 	H 	0.11910 0.43060 0.50340 0.06500
H 	H 	0.44450 0.29300 0.40040 -0.00600
H 	H 	0.31650 0.29720 0.66060 0.03800
H 	H 	0.92900 0.40330 0.15090 0.11900
H 	H 	0.28100 0.36750 0.39160 0.14100
H 	H 	0.53310 0.54580 0.49090 0.07400
H 	H 	0.25300 0.66250 0.32600 -0.00900
H 	H 	0.10160 0.63960 0.58070 0.03600
H 	H 	0.61910 0.56940 0.99660 0.06500
H 	H 	0.94450 0.70700 0.09960 -0.00600
H 	H 	0.81650 0.70280 0.83940 0.03800
H 	H 	0.42900 0.59670 0.34910 0.12000
H 	H 	0.78100 0.63250 0.10840 0.14100
H 	H 	0.53310 0.95420 0.99090 0.07500
H 	H 	0.25300 0.83750 0.82600 -0.00900
H 	H 	0.10160 0.86040 0.08070 0.03600
H 	H 	0.61910 0.93060 0.49660 0.06500
H 	H 	0.94450 0.79300 0.59960 -0.00600
H 	H 	0.81650 0.79720 0.33940 0.03800
H 	H 	0.42900 0.90330 0.84910 0.12000
H 	H 	0.78100 0.86750 0.60840 0.14100
H 	H 	0.03310 0.04580 0.50910 0.07300
H 	H 	0.75300 0.16250 0.67400 -0.00900
H 	H 	0.60160 0.13960 0.41930 0.03600
H 	H 	0.11910 0.06940 0.00340 0.06500
H 	H 	0.44450 0.20700 0.90040 -0.00600
H 	H 	0.31650 0.20280 0.16060 0.03800
H 	H 	0.92900 0.09670 0.65090 0.12000
H 	H 	0.28100 0.13250 0.89160 0.14100
C 	C 	0.99030 0.48158 0.87250 0.44400
C 	C 	0.89450 0.44333 0.91820 -0.06300
C 	C 	0.94550 0.43667 0.99140 -0.07200
C 	C 	0.86120 0.40276 0.03750 0.09500
C 	C 	0.76740 0.35249 0.12690 0.10400
C 	C 	0.73940 0.37235 0.00940 0.01600
C 	C 	0.68610 0.37961 0.93710 -0.03900
C 	C 	0.76030 0.41591 0.89140 -0.09000
C 	C 	0.69350 0.42526 0.81480 0.44500
C 	C 	0.05050 0.45178 0.64450 0.36400
C 	C 	0.13610 0.40577 0.61160 -0.05800
C 	C 	0.16060 0.40480 0.53460 -0.08100
C 	C 	0.25010 0.36343 0.50590 0.06100
C 	C 	0.39410 0.30849 0.44090 0.11500
C 	C 	0.31190 0.32451 0.55320 0.01700
C 	C 	0.28020 0.32424 0.62990 -0.07300
C 	C 	0.19390 0.36505 0.65900 -0.08500
C 	C 	0.15950 0.36270 0.74210 0.36700
C 	C 	0.49030 0.51842 0.62750 0.44400
C 	C 	0.39450 0.55667 0.58180 -0.06300
C 	C 	0.44550 0.56333 0.50860 -0.07200
C 	C 	0.36120 0.59724 0.46250 0.09500
C 	C 	0.26740 0.64751 0.37310 0.10400
C 	C 	0.23940 0.62765 0.49060 0.01700
C 	C 	0.18610 0.62039 0.56290 -0.03900
C 	C 	0.26030 0.58409 0.60860 -0.09000
C 	C 	0.19350 0.57474 0.68520 0.44500
C 	C 	0.55050 0.54822 0.85550 0.36400
C 	C 	0.63610 0.59423 0.88840 -0.05800
C 	C 	0.66060 0.59520 0.96540 -0.08100
C 	C 	0.75010 0.63657 0.99410 0.06100
C 	C 	0.89410 0.69151 0.05910 0.11500
C 	C 	0.81190 0.67549 0.94680 0.01700
C 	C 	0.78020 0.67576 0.87010 -0.07300
C 	C 	0.69390 0.63495 0.84100 -0.08500
C 	C 	0.65950 0.63730 0.75790 0.36700
C 	C 	0.49030 0.98158 0.12750 0.44400
C 	C 	0.39450 0.94333 0.08180 -0.06200
C 	C 	0.44550 0.93667 0.00860 -0.07400
C 	C 	0.36120 0.90276 0.96250 0.09600
C 	C 	0.26740 0.85249 0.87310 0.10400
C 	C 	0.23940 0.87235 0.99060 0.01600
C 	C 	0.18610 0.87961 0.06290 -0.03900
C 	C 	0.26030 0.91591 0.10860 -0.09000
C 	C 	0.19350 0.92526 0.18520 0.44500
C 	C 	0.55050 0.95178 0.35550 0.36400
C 	C 	0.63610 0.90577 0.38840 -0.05700
C 	C 	0.66060 0.90480 0.46540 -0.08100
C 	C 	0.75010 0.86343 0.49410 0.06100
C 	C 	0.89410 0.80849 0.55910 0.11500
C 	C 	0.81190 0.82451 0.44680 0.01700
C 	C 	0.78020 0.82424 0.37010 -0.07300
C 	C 	0.69390 0.86505 0.34100 -0.08500
C 	C 	0.65950 0.86270 0.25790 0.36700
C 	C 	0.99030 0.01842 0.37250 0.44600
C 	C 	0.89450 0.05667 0.41820 -0.06400
C 	C 	0.94550 0.06333 0.49140 -0.07100
C 	C 	0.86120 0.09724 0.53750 0.09500
C 	C 	0.76740 0.14751 0.62690 0.10400
C 	C 	0.73940 0.12765 0.50940 0.01700
C 	C 	0.68610 0.12039 0.43710 -0.04000
C 	C 	0.76030 0.08409 0.39140 -0.09000
C 	C 	0.69350 0.07474 0.31480 0.44500
C 	C 	0.05050 0.04822 0.14450 0.36400
C 	C 	0.13610 0.09423 0.11160 -0.05700
C 	C 	0.16060 0.09520 0.03460 -0.08100
C 	C 	0.25010 0.13657 0.00590 0.06100
C 	C 	0.39410 0.19151 0.94090 0.11500
C 	C 	0.31190 0.17549 0.05320 0.01700
C 	C 	0.28020 0.17576 0.12990 -0.07300
C 	C 	0.19390 0.13495 0.15900 -0.08500
C 	C 	0.15950 0.13730 0.24210 0.36700
N 	N 	0.87400 0.38986 0.11220 -0.20600
N 	N 	0.68530 0.33952 0.06700 -0.20400
N 	N 	0.40400 0.29066 0.51020 -0.20400
N 	N 	0.30400 0.35135 0.43510 -0.21000
N 	N 	0.37400 0.61014 0.38780 -0.20600
N 	N 	0.18530 0.66048 0.43300 -0.20400
N 	N 	0.90400 0.70934 0.98980 -0.20300
N 	N 	0.80400 0.64865 0.06490 -0.21000
N 	N 	0.37400 0.88986 0.88780 -0.20600
N 	N 	0.18530 0.83952 0.93300 -0.20400
N 	N 	0.90400 0.79066 0.48980 -0.20400
N 	N 	0.80400 0.85135 0.56490 -0.21000
N 	N 	0.87400 0.11014 0.61220 -0.20500
N 	N 	0.68530 0.16048 0.56700 -0.20400
N 	N 	0.40400 0.20934 0.01020 -0.20400
N 	N 	0.30400 0.14865 0.93510 -0.21000
O 	O 	0.92450 0.52046 0.84091 -0.54100
O 	O 	0.13440 0.47474 0.87358 -0.52300
O 	O 	0.77970 0.43863 0.76125 -0.52700
O 	O 	0.54840 0.41833 0.80785 -0.52100
O 	O 	0.94090 0.47290 0.60982 -0.45400
O 	O 	0.08950 0.46831 0.71002 -0.58200
O 	O 	0.25370 0.38704 0.78570 -0.48200
O 	O 	0.04970 0.33630 0.76440 -0.28300
O 	O 	0.42450 0.47954 0.65909 -0.54100
O 	O 	0.63440 0.52526 0.62642 -0.52300
O 	O 	0.27970 0.56137 0.73875 -0.52700
O 	O 	0.04840 0.58167 0.69215 -0.52100
O 	O 	0.44090 0.52710 0.89018 -0.45400
O 	O 	0.58950 0.53169 0.78998 -0.58200
O 	O 	0.75370 0.61296 0.71430 -0.48100
O 	O 	0.54970 0.66370 0.73560 -0.28300
O 	O 	0.42450 0.02046 0.15909 -0.54100
O 	O 	0.63440 0.97474 0.12642 -0.52300
O 	O 	0.27970 0.93863 0.23875 -0.52700
O 	O 	0.04840 0.91833 0.19215 -0.52000
O 	O 	0.44090 0.97290 0.39018 -0.45300
O 	O 	0.58950 0.96831 0.28998 -0.58200
O 	O 	0.75370 0.88704 0.21430 -0.48200
O 	O 	0.54970 0.83630 0.23560 -0.28300
O 	O 	0.92450 0.97954 0.34091 -0.54200
O 	O 	0.13440 0.02526 0.37358 -0.52300
O 	O 	0.77970 0.06137 0.26125 -0.52600
O 	O 	0.54840 0.08167 0.30785 -0.52100
O 	O 	0.94090 0.02710 0.10982 -0.45300
O 	O 	0.08950 0.03169 0.21002 -0.58200
O 	O 	0.25370 0.11296 0.28570 -0.48200
O 	O 	0.04970 0.16370 0.26440 -0.28300
