data_crystal

_cell_length_a 28.36800
_cell_length_b 28.36800
_cell_length_c 33.95800
_cell_angle_alpha 90.00000
_cell_angle_beta  90.00000
_cell_angle_gamma 90.00000

_symmetry_space_group_name_	'P 1'
_symmetry_space_group_name_H-M	'P 1'

loop_
_symmetry_equiv_pos_as_xyz
  x,y,z

loop_
_atom_site_label
_atom_site_type_symbol
_atom_site_fract_x
_atom_site_fract_y
_atom_site_fract_z
_atom_site_charge
Zn	Zn	0.83482 0.25312 0.16479 1.22500
Zn	Zn	0.75271 0.17235 0.31354 1.19100
N 	N 	0.81240 0.20430 0.30100 -0.22000
N 	N 	0.85580 0.19770 0.31600 -0.08900
N 	N 	0.81290 0.23900 0.27380 -0.22800
C 	C 	0.95750 0.20300 0.33360 -0.11600
H 	H 	0.93980 0.18190 0.34960 0.07800
C 	C 	0.88430 0.22800 0.29830 0.03800
C 	C 	0.00550 0.20490 0.33740 0.05700
H 	H 	0.02140 0.18510 0.35570 0.02800
C 	C 	0.85860 0.25560 0.27010 -0.02100
H 	H 	0.87020 0.27950 0.25310 0.02300
C 	C 	0.93410 0.23170 0.30660 0.05900
O 	O 	0.78830 0.90090 0.13200 -0.33100
O 	O 	0.10270 0.21010 0.33890 -0.38700
C 	C 	0.03010 0.23580 0.31430 -0.13400
C 	C 	0.76190 0.92350 0.15730 0.38400
C 	C 	0.79990 0.00080 0.14740 0.05900
H 	H 	0.82500 0.98490 0.13450 0.02200
C 	C 	0.95910 0.26160 0.28220 -0.12000
H 	H 	0.94360 0.28070 0.26320 0.07400
O 	O 	0.73730 0.89900 0.17610 -0.50700
C 	C 	0.80060 0.04890 0.15210 -0.12300
H 	H 	0.82690 0.06610 0.14240 0.07300
C 	C 	0.76210 0.97630 0.16170 -0.13800
C 	C 	0.00760 0.26270 0.28640 0.05700
H 	H 	0.02570 0.28260 0.26970 0.02800
C 	C 	0.08300 0.23950 0.31750 0.40200
C 	C 	0.80650 0.15240 0.15880 0.02000
H 	H 	0.82610 0.14500 0.13700 0.02400
C 	C 	0.76450 0.07290 0.17040 0.06800
N 	N 	0.80390 0.19400 0.17670 -0.23900
C 	C 	0.77470 0.12100 0.17810 0.01800
C 	C 	0.72460 0.99810 0.18000 0.05800
H 	H 	0.69840 0.98050 0.18930 0.02200
O 	O 	0.10290 0.26830 0.30010 -0.46500
C 	C 	0.72650 0.04670 0.18420 -0.11800
H 	H 	0.70110 0.06250 0.19690 0.07900
N 	N 	0.77020 0.19260 0.20270 -0.18700
N 	N 	0.75380 0.14920 0.20490 -0.08800
O 	O 	0.81780 0.26700 0.11090 -0.55900
N 	N 	0.77430 0.30830 0.86460 -0.21300
C 	C 	0.82200 0.26210 0.02920 0.11500
H 	H 	0.84270 0.24180 0.04320 0.01000
C 	C 	0.81970 0.26480 0.90070 0.02800
H 	H 	0.74250 0.34250 0.90920 0.08100
N 	N 	0.76480 0.31970 0.90070 -0.12400
C 	C 	0.82110 0.26200 0.98870 -0.15100
H 	H 	0.84160 0.24140 0.97480 0.08400
Zn	Zn	0.33482 0.75312 0.66479 1.22600
Zn	Zn	0.25271 0.67235 0.81354 1.19200
N 	N 	0.31240 0.70430 0.80100 -0.21900
N 	N 	0.35580 0.69770 0.81600 -0.08800
N 	N 	0.31290 0.73900 0.77380 -0.22700
C 	C 	0.45750 0.70300 0.83360 -0.11500
H 	H 	0.43980 0.68190 0.84960 0.07900
C 	C 	0.38430 0.72800 0.79830 0.03900
C 	C 	0.50550 0.70490 0.83740 0.05800
H 	H 	0.52140 0.68510 0.85570 0.02900
C 	C 	0.35860 0.75560 0.77010 -0.02000
H 	H 	0.37020 0.77950 0.75310 0.02400
C 	C 	0.43410 0.73170 0.80660 0.06000
O 	O 	0.28830 0.40090 0.63200 -0.32900
O 	O 	0.60270 0.71010 0.83890 -0.38600
C 	C 	0.53010 0.73580 0.81430 -0.13300
C 	C 	0.26190 0.42350 0.65730 0.38500
C 	C 	0.29990 0.50080 0.64740 0.06000
H 	H 	0.32500 0.48490 0.63450 0.02400
C 	C 	0.45910 0.76160 0.78220 -0.11900
H 	H 	0.44360 0.78070 0.76320 0.07500
O 	O 	0.23730 0.39900 0.67610 -0.50600
C 	C 	0.30060 0.54890 0.65210 -0.12200
H 	H 	0.32690 0.56610 0.64240 0.07400
C 	C 	0.26210 0.47630 0.66170 -0.13600
C 	C 	0.50760 0.76270 0.78640 0.05800
H 	H 	0.52570 0.78260 0.76970 0.02900
C 	C 	0.58300 0.73950 0.81750 0.40300
C 	C 	0.30650 0.65240 0.65880 0.02000
H 	H 	0.32610 0.64500 0.63700 0.02400
C 	C 	0.26450 0.57290 0.67040 0.06800
N 	N 	0.30390 0.69400 0.67670 -0.23900
C 	C 	0.27470 0.62100 0.67810 0.01800
C 	C 	0.22460 0.49810 0.68000 0.05800
H 	H 	0.19840 0.48050 0.68930 0.02200
O 	O 	0.60290 0.76830 0.80010 -0.46500
C 	C 	0.22650 0.54670 0.68420 -0.11800
H 	H 	0.20110 0.56250 0.69690 0.07900
N 	N 	0.27020 0.69260 0.70270 -0.18700
N 	N 	0.25380 0.64920 0.70490 -0.08800
O 	O 	0.31780 0.76700 0.61090 -0.56000
N 	N 	0.27430 0.80830 0.36460 -0.21300
C 	C 	0.32200 0.76210 0.52920 0.12300
H 	H 	0.34270 0.74180 0.54320 0.00800
C 	C 	0.31970 0.76480 0.40070 0.02900
H 	H 	0.24250 0.84250 0.40920 0.08100
N 	N 	0.26480 0.81970 0.40070 -0.12300
C 	C 	0.32110 0.76200 0.48870 -0.15900
H 	H 	0.34160 0.74140 0.47480 0.08600
Zn	Zn	0.16518 0.74688 0.16479 1.22600
Zn	Zn	0.24729 0.82765 0.31354 1.19200
N 	N 	0.18760 0.79570 0.30100 -0.21900
N 	N 	0.14420 0.80230 0.31600 -0.08800
N 	N 	0.18710 0.76100 0.27380 -0.22700
C 	C 	0.04250 0.79700 0.33360 -0.11500
H 	H 	0.06020 0.81810 0.34960 0.07900
C 	C 	0.11570 0.77200 0.29830 0.03900
C 	C 	0.99450 0.79510 0.33740 0.05800
H 	H 	0.97860 0.81490 0.35570 0.02900
C 	C 	0.14140 0.74440 0.27010 -0.02000
H 	H 	0.12980 0.72050 0.25310 0.02400
C 	C 	0.06590 0.76830 0.30660 0.06000
O 	O 	0.21170 0.09910 0.13200 -0.33000
O 	O 	0.89730 0.78990 0.33890 -0.38600
C 	C 	0.96990 0.76420 0.31430 -0.13300
C 	C 	0.23810 0.07650 0.15730 0.38500
C 	C 	0.20010 0.99920 0.14740 0.06000
H 	H 	0.17500 0.01510 0.13450 0.02300
C 	C 	0.04090 0.73840 0.28220 -0.11900
H 	H 	0.05640 0.71930 0.26320 0.07500
O 	O 	0.26270 0.10100 0.17610 -0.50600
C 	C 	0.19940 0.95110 0.15210 -0.12200
H 	H 	0.17310 0.93390 0.14240 0.07400
C 	C 	0.23790 0.02370 0.16170 -0.13700
C 	C 	0.99240 0.73730 0.28640 0.05800
H 	H 	0.97430 0.71740 0.26970 0.02900
C 	C 	0.91700 0.76050 0.31750 0.40300
C 	C 	0.19350 0.84760 0.15880 0.02000
H 	H 	0.17390 0.85500 0.13700 0.02400
C 	C 	0.23550 0.92710 0.17040 0.06800
N 	N 	0.19610 0.80600 0.17670 -0.23900
C 	C 	0.22530 0.87900 0.17810 0.01800
C 	C 	0.27540 0.00190 0.18000 0.05800
H 	H 	0.30160 0.01950 0.18930 0.02200
O 	O 	0.89710 0.73170 0.30010 -0.46500
C 	C 	0.27350 0.95330 0.18420 -0.11800
H 	H 	0.29890 0.93750 0.19690 0.07900
N 	N 	0.22980 0.80740 0.20270 -0.18700
N 	N 	0.24620 0.85080 0.20490 -0.08800
O 	O 	0.18220 0.73300 0.11090 -0.55900
N 	N 	0.22570 0.69170 0.86460 -0.21300
C 	C 	0.17800 0.73790 0.02920 0.11500
H 	H 	0.15730 0.75820 0.04320 0.01000
C 	C 	0.18030 0.73520 0.90070 0.02800
H 	H 	0.25750 0.65750 0.90920 0.08100
N 	N 	0.23520 0.68030 0.90070 -0.12400
C 	C 	0.17890 0.73800 0.98870 -0.15100
H 	H 	0.15840 0.75860 0.97480 0.08400
Zn	Zn	0.66518 0.24688 0.66479 1.22600
Zn	Zn	0.74729 0.32765 0.81354 1.19200
N 	N 	0.68760 0.29570 0.80100 -0.21900
N 	N 	0.64420 0.30230 0.81600 -0.08800
N 	N 	0.68710 0.26100 0.77380 -0.22700
C 	C 	0.54250 0.29700 0.83360 -0.11500
H 	H 	0.56020 0.31810 0.84960 0.07900
C 	C 	0.61570 0.27200 0.79830 0.03900
C 	C 	0.49450 0.29510 0.83740 0.05800
H 	H 	0.47860 0.31490 0.85570 0.02900
C 	C 	0.64140 0.24440 0.77010 -0.02000
H 	H 	0.62980 0.22050 0.75310 0.02400
C 	C 	0.56590 0.26830 0.80660 0.06000
O 	O 	0.71170 0.59910 0.63200 -0.32900
O 	O 	0.39730 0.28990 0.83890 -0.38600
C 	C 	0.46990 0.26420 0.81430 -0.13300
C 	C 	0.73810 0.57650 0.65730 0.38500
C 	C 	0.70010 0.49920 0.64740 0.06000
H 	H 	0.67500 0.51510 0.63450 0.02400
C 	C 	0.54090 0.23840 0.78220 -0.11900
H 	H 	0.55640 0.21930 0.76320 0.07500
O 	O 	0.76270 0.60100 0.67610 -0.50600
C 	C 	0.69940 0.45110 0.65210 -0.12200
H 	H 	0.67310 0.43390 0.64240 0.07400
C 	C 	0.73790 0.52370 0.66170 -0.13600
C 	C 	0.49240 0.23730 0.78640 0.05800
H 	H 	0.47430 0.21740 0.76970 0.02900
C 	C 	0.41700 0.26050 0.81750 0.40300
C 	C 	0.69350 0.34760 0.65880 0.02000
H 	H 	0.67390 0.35500 0.63700 0.02400
C 	C 	0.73550 0.42710 0.67040 0.06800
N 	N 	0.69610 0.30600 0.67670 -0.23900
C 	C 	0.72530 0.37900 0.67810 0.01800
C 	C 	0.77540 0.50190 0.68000 0.05800
H 	H 	0.80160 0.51950 0.68930 0.02200
O 	O 	0.39710 0.23170 0.80010 -0.46500
C 	C 	0.77350 0.45330 0.68420 -0.11800
H 	H 	0.79890 0.43750 0.69690 0.07900
N 	N 	0.72980 0.30740 0.70270 -0.18700
N 	N 	0.74620 0.35080 0.70490 -0.08800
O 	O 	0.68220 0.23300 0.61090 -0.56000
N 	N 	0.72570 0.19170 0.36460 -0.21300
C 	C 	0.67800 0.23790 0.52920 0.12300
H 	H 	0.65730 0.25820 0.54320 0.00800
C 	C 	0.68030 0.23520 0.40070 0.02900
H 	H 	0.75750 0.15750 0.40920 0.08100
N 	N 	0.73520 0.18030 0.40070 -0.12300
C 	C 	0.67890 0.23800 0.48870 -0.15900
H 	H 	0.65840 0.25860 0.47480 0.08600
Zn	Zn	0.74688 0.83482 0.16479 1.22600
Zn	Zn	0.82765 0.75271 0.31354 1.19200
N 	N 	0.79570 0.81240 0.30100 -0.21900
N 	N 	0.80230 0.85580 0.31600 -0.08800
N 	N 	0.76100 0.81290 0.27380 -0.22700
C 	C 	0.79700 0.95750 0.33360 -0.11500
H 	H 	0.81810 0.93980 0.34960 0.07900
C 	C 	0.77200 0.88430 0.29830 0.03900
C 	C 	0.79510 0.00550 0.33740 0.05800
H 	H 	0.81490 0.02140 0.35570 0.02900
C 	C 	0.74440 0.85860 0.27010 -0.02000
H 	H 	0.72050 0.87020 0.25310 0.02400
C 	C 	0.76830 0.93410 0.30660 0.06000
O 	O 	0.09910 0.78830 0.13200 -0.33000
O 	O 	0.78990 0.10270 0.33890 -0.38600
C 	C 	0.76420 0.03010 0.31430 -0.13300
C 	C 	0.07650 0.76190 0.15730 0.38500
C 	C 	0.99920 0.79990 0.14740 0.06000
H 	H 	0.01510 0.82500 0.13450 0.02300
C 	C 	0.73840 0.95910 0.28220 -0.11900
H 	H 	0.71930 0.94360 0.26320 0.07500
O 	O 	0.10100 0.73730 0.17610 -0.50600
C 	C 	0.95110 0.80060 0.15210 -0.12200
H 	H 	0.93390 0.82690 0.14240 0.07400
C 	C 	0.02370 0.76210 0.16170 -0.13700
C 	C 	0.73730 0.00760 0.28640 0.05800
H 	H 	0.71740 0.02570 0.26970 0.02900
C 	C 	0.76050 0.08300 0.31750 0.40300
C 	C 	0.84760 0.80650 0.15880 0.02000
H 	H 	0.85500 0.82610 0.13700 0.02400
C 	C 	0.92710 0.76450 0.17040 0.06800
N 	N 	0.80600 0.80390 0.17670 -0.23900
C 	C 	0.87900 0.77470 0.17810 0.01800
C 	C 	0.00190 0.72460 0.18000 0.05800
H 	H 	0.01950 0.69840 0.18930 0.02200
O 	O 	0.73170 0.10290 0.30010 -0.46500
C 	C 	0.95330 0.72650 0.18420 -0.11800
H 	H 	0.93750 0.70110 0.19690 0.07900
N 	N 	0.80740 0.77020 0.20270 -0.18700
N 	N 	0.85080 0.75380 0.20490 -0.08800
O 	O 	0.73300 0.81780 0.11090 -0.55900
N 	N 	0.69170 0.77430 0.86460 -0.21300
C 	C 	0.73790 0.82200 0.02920 0.11500
H 	H 	0.75820 0.84270 0.04320 0.01000
C 	C 	0.73520 0.81970 0.90070 0.02800
H 	H 	0.65750 0.74250 0.90920 0.08100
N 	N 	0.68030 0.76480 0.90070 -0.12400
C 	C 	0.73800 0.82110 0.98870 -0.15100
H 	H 	0.75860 0.84160 0.97480 0.08400
Zn	Zn	0.24688 0.33482 0.66479 1.22600
Zn	Zn	0.32765 0.25271 0.81354 1.19200
N 	N 	0.29570 0.31240 0.80100 -0.21900
N 	N 	0.30230 0.35580 0.81600 -0.08800
N 	N 	0.26100 0.31290 0.77380 -0.22700
C 	C 	0.29700 0.45750 0.83360 -0.11500
H 	H 	0.31810 0.43980 0.84960 0.07900
C 	C 	0.27200 0.38430 0.79830 0.03900
C 	C 	0.29510 0.50550 0.83740 0.05800
H 	H 	0.31490 0.52140 0.85570 0.02900
C 	C 	0.24440 0.35860 0.77010 -0.02000
H 	H 	0.22050 0.37020 0.75310 0.02400
C 	C 	0.26830 0.43410 0.80660 0.06000
O 	O 	0.59910 0.28830 0.63200 -0.32900
O 	O 	0.28990 0.60270 0.83890 -0.38600
C 	C 	0.26420 0.53010 0.81430 -0.13300
C 	C 	0.57650 0.26190 0.65730 0.38500
C 	C 	0.49920 0.29990 0.64740 0.06000
H 	H 	0.51510 0.32500 0.63450 0.02400
C 	C 	0.23840 0.45910 0.78220 -0.11900
H 	H 	0.21930 0.44360 0.76320 0.07500
O 	O 	0.60100 0.23730 0.67610 -0.50600
C 	C 	0.45110 0.30060 0.65210 -0.12200
H 	H 	0.43390 0.32690 0.64240 0.07400
C 	C 	0.52370 0.26210 0.66170 -0.13600
C 	C 	0.23730 0.50760 0.78640 0.05800
H 	H 	0.21740 0.52570 0.76970 0.02900
C 	C 	0.26050 0.58300 0.81750 0.40300
C 	C 	0.34760 0.30650 0.65880 0.02000
H 	H 	0.35500 0.32610 0.63700 0.02400
C 	C 	0.42710 0.26450 0.67040 0.06800
N 	N 	0.30600 0.30390 0.67670 -0.23900
C 	C 	0.37900 0.27470 0.67810 0.01800
C 	C 	0.50190 0.22460 0.68000 0.05800
H 	H 	0.51950 0.19840 0.68930 0.02200
O 	O 	0.23170 0.60290 0.80010 -0.46500
C 	C 	0.45330 0.22650 0.68420 -0.11800
H 	H 	0.43750 0.20110 0.69690 0.07900
N 	N 	0.30740 0.27020 0.70270 -0.18700
N 	N 	0.35080 0.25380 0.70490 -0.08800
O 	O 	0.23300 0.31780 0.61090 -0.56000
N 	N 	0.19170 0.27430 0.36460 -0.21300
C 	C 	0.23790 0.32200 0.52920 0.12300
H 	H 	0.25820 0.34270 0.54320 0.00800
C 	C 	0.23520 0.31970 0.40070 0.02900
H 	H 	0.15750 0.24250 0.40920 0.08100
N 	N 	0.18030 0.26480 0.40070 -0.12300
C 	C 	0.23800 0.32110 0.48870 -0.15900
H 	H 	0.25860 0.34160 0.47480 0.08600
Zn	Zn	0.25312 0.16518 0.16479 1.22600
Zn	Zn	0.17235 0.24729 0.31354 1.19200
N 	N 	0.20430 0.18760 0.30100 -0.21900
N 	N 	0.19770 0.14420 0.31600 -0.08800
N 	N 	0.23900 0.18710 0.27380 -0.22700
C 	C 	0.20300 0.04250 0.33360 -0.11500
H 	H 	0.18190 0.06020 0.34960 0.07900
C 	C 	0.22800 0.11570 0.29830 0.03900
C 	C 	0.20490 0.99450 0.33740 0.05800
H 	H 	0.18510 0.97860 0.35570 0.02900
C 	C 	0.25560 0.14140 0.27010 -0.02000
H 	H 	0.27950 0.12980 0.25310 0.02400
C 	C 	0.23170 0.06590 0.30660 0.06000
O 	O 	0.90090 0.21170 0.13200 -0.33000
O 	O 	0.21010 0.89730 0.33890 -0.38600
C 	C 	0.23580 0.96990 0.31430 -0.13300
C 	C 	0.92350 0.23810 0.15730 0.38500
C 	C 	0.00080 0.20010 0.14740 0.06000
H 	H 	0.98490 0.17500 0.13450 0.02300
C 	C 	0.26160 0.04090 0.28220 -0.11900
H 	H 	0.28070 0.05640 0.26320 0.07500
O 	O 	0.89900 0.26270 0.17610 -0.50600
C 	C 	0.04890 0.19940 0.15210 -0.12200
H 	H 	0.06610 0.17310 0.14240 0.07400
C 	C 	0.97630 0.23790 0.16170 -0.13700
C 	C 	0.26270 0.99240 0.28640 0.05800
H 	H 	0.28260 0.97430 0.26970 0.02900
C 	C 	0.23950 0.91700 0.31750 0.40300
C 	C 	0.15240 0.19350 0.15880 0.02000
H 	H 	0.14500 0.17390 0.13700 0.02400
C 	C 	0.07290 0.23550 0.17040 0.06800
N 	N 	0.19400 0.19610 0.17670 -0.23900
C 	C 	0.12100 0.22530 0.17810 0.01800
C 	C 	0.99810 0.27540 0.18000 0.05800
H 	H 	0.98050 0.30160 0.18930 0.02200
O 	O 	0.26830 0.89710 0.30010 -0.46500
C 	C 	0.04670 0.27350 0.18420 -0.11800
H 	H 	0.06250 0.29890 0.19690 0.07900
N 	N 	0.19260 0.22980 0.20270 -0.18700
N 	N 	0.14920 0.24620 0.20490 -0.08800
O 	O 	0.26700 0.18220 0.11090 -0.55900
N 	N 	0.30830 0.22570 0.86460 -0.21300
C 	C 	0.26210 0.17800 0.02920 0.11500
H 	H 	0.24180 0.15730 0.04320 0.01000
C 	C 	0.26480 0.18030 0.90070 0.02800
H 	H 	0.34250 0.25750 0.90920 0.08100
N 	N 	0.31970 0.23520 0.90070 -0.12400
C 	C 	0.26200 0.17890 0.98870 -0.15100
H 	H 	0.24140 0.15840 0.97480 0.08400
Zn	Zn	0.75312 0.66518 0.66479 1.22600
Zn	Zn	0.67235 0.74729 0.81354 1.19200
N 	N 	0.70430 0.68760 0.80100 -0.21900
N 	N 	0.69770 0.64420 0.81600 -0.08800
N 	N 	0.73900 0.68710 0.77380 -0.22700
C 	C 	0.70300 0.54250 0.83360 -0.11500
H 	H 	0.68190 0.56020 0.84960 0.07900
C 	C 	0.72800 0.61570 0.79830 0.03900
C 	C 	0.70490 0.49450 0.83740 0.05800
H 	H 	0.68510 0.47860 0.85570 0.02900
C 	C 	0.75560 0.64140 0.77010 -0.02000
H 	H 	0.77950 0.62980 0.75310 0.02400
C 	C 	0.73170 0.56590 0.80660 0.06000
O 	O 	0.40090 0.71170 0.63200 -0.32900
O 	O 	0.71010 0.39730 0.83890 -0.38600
C 	C 	0.73580 0.46990 0.81430 -0.13300
C 	C 	0.42350 0.73810 0.65730 0.38500
C 	C 	0.50080 0.70010 0.64740 0.06000
H 	H 	0.48490 0.67500 0.63450 0.02400
C 	C 	0.76160 0.54090 0.78220 -0.11900
H 	H 	0.78070 0.55640 0.76320 0.07500
O 	O 	0.39900 0.76270 0.67610 -0.50600
C 	C 	0.54890 0.69940 0.65210 -0.12200
H 	H 	0.56610 0.67310 0.64240 0.07400
C 	C 	0.47630 0.73790 0.66170 -0.13600
C 	C 	0.76270 0.49240 0.78640 0.05800
H 	H 	0.78260 0.47430 0.76970 0.02900
C 	C 	0.73950 0.41700 0.81750 0.40300
C 	C 	0.65240 0.69350 0.65880 0.02000
H 	H 	0.64500 0.67390 0.63700 0.02400
C 	C 	0.57290 0.73550 0.67040 0.06800
N 	N 	0.69400 0.69610 0.67670 -0.23900
C 	C 	0.62100 0.72530 0.67810 0.01800
C 	C 	0.49810 0.77540 0.68000 0.05800
H 	H 	0.48050 0.80160 0.68930 0.02200
O 	O 	0.76830 0.39710 0.80010 -0.46500
C 	C 	0.54670 0.77350 0.68420 -0.11800
H 	H 	0.56250 0.79890 0.69690 0.07900
N 	N 	0.69260 0.72980 0.70270 -0.18700
N 	N 	0.64920 0.74620 0.70490 -0.08800
O 	O 	0.76700 0.68220 0.61090 -0.56000
N 	N 	0.80830 0.72570 0.36460 -0.21300
C 	C 	0.76210 0.67800 0.52920 0.12300
H 	H 	0.74180 0.65730 0.54320 0.00800
C 	C 	0.76480 0.68030 0.40070 0.02900
H 	H 	0.84250 0.75750 0.40920 0.08100
N 	N 	0.81970 0.73520 0.40070 -0.12300
C 	C 	0.76200 0.67890 0.48870 -0.15900
H 	H 	0.74140 0.65840 0.47480 0.08600
Zn	Zn	0.83482 0.74688 0.66479 1.22600
Zn	Zn	0.75271 0.82765 0.81354 1.19200
N 	N 	0.81240 0.79570 0.80100 -0.21900
N 	N 	0.85580 0.80230 0.81600 -0.08800
N 	N 	0.81290 0.76100 0.77380 -0.22700
C 	C 	0.95750 0.79700 0.83360 -0.11500
H 	H 	0.93980 0.81810 0.84960 0.07900
C 	C 	0.88430 0.77200 0.79830 0.03900
C 	C 	0.00550 0.79510 0.83740 0.05800
H 	H 	0.02140 0.81490 0.85570 0.02900
C 	C 	0.85860 0.74440 0.77010 -0.02000
H 	H 	0.87020 0.72050 0.75310 0.02400
C 	C 	0.93410 0.76830 0.80660 0.06000
O 	O 	0.78830 0.09910 0.63200 -0.32900
O 	O 	0.10270 0.78990 0.83890 -0.38600
C 	C 	0.03010 0.76420 0.81430 -0.13300
C 	C 	0.76190 0.07650 0.65730 0.38500
C 	C 	0.79990 0.99920 0.64740 0.06000
H 	H 	0.82500 0.01510 0.63450 0.02400
C 	C 	0.95910 0.73840 0.78220 -0.11900
H 	H 	0.94360 0.71930 0.76320 0.07500
O 	O 	0.73730 0.10100 0.67610 -0.50600
C 	C 	0.80060 0.95110 0.65210 -0.12200
H 	H 	0.82690 0.93390 0.64240 0.07400
C 	C 	0.76210 0.02370 0.66170 -0.13600
C 	C 	0.00760 0.73730 0.78640 0.05800
H 	H 	0.02570 0.71740 0.76970 0.02900
C 	C 	0.08300 0.76050 0.81750 0.40300
C 	C 	0.80650 0.84760 0.65880 0.02000
H 	H 	0.82610 0.85500 0.63700 0.02400
C 	C 	0.76450 0.92710 0.67040 0.06800
N 	N 	0.80390 0.80600 0.67670 -0.23900
C 	C 	0.77470 0.87900 0.67810 0.01800
C 	C 	0.72460 0.00190 0.68000 0.05800
H 	H 	0.69840 0.01950 0.68930 0.02200
O 	O 	0.10290 0.73170 0.80010 -0.46600
C 	C 	0.72650 0.95330 0.68420 -0.11800
H 	H 	0.70110 0.93750 0.69690 0.07900
N 	N 	0.77020 0.80740 0.70270 -0.18700
N 	N 	0.75380 0.85080 0.70490 -0.08800
O 	O 	0.81780 0.73300 0.61090 -0.56000
N 	N 	0.77430 0.69170 0.36460 -0.24900
C 	C 	0.82200 0.73790 0.52920 0.12100
H 	H 	0.84270 0.75820 0.54320 0.00800
H 	H 	0.74250 0.65750 0.40920 0.01400
C 	C 	0.82110 0.73800 0.48870 -0.15600
H 	H 	0.84160 0.75860 0.47480 0.08600
Zn	Zn	0.33482 0.24688 0.16479 1.22600
Zn	Zn	0.25271 0.32765 0.31354 1.19200
N 	N 	0.31240 0.29570 0.30100 -0.21900
N 	N 	0.35580 0.30230 0.31600 -0.08800
N 	N 	0.31290 0.26100 0.27380 -0.22700
C 	C 	0.45750 0.29700 0.33360 -0.11500
H 	H 	0.43980 0.31810 0.34960 0.07900
C 	C 	0.38430 0.27200 0.29830 0.03900
C 	C 	0.50550 0.29510 0.33740 0.05800
H 	H 	0.52140 0.31490 0.35570 0.02900
C 	C 	0.35860 0.24440 0.27010 -0.02000
H 	H 	0.37020 0.22050 0.25310 0.02400
C 	C 	0.43410 0.26830 0.30660 0.06000
O 	O 	0.28830 0.59910 0.13200 -0.33000
O 	O 	0.60270 0.28990 0.33890 -0.38700
C 	C 	0.53010 0.26420 0.31430 -0.13300
C 	C 	0.26190 0.57650 0.15730 0.38500
C 	C 	0.29990 0.49920 0.14740 0.06000
H 	H 	0.32500 0.51510 0.13450 0.02300
C 	C 	0.45910 0.23840 0.28220 -0.11900
H 	H 	0.44360 0.21930 0.26320 0.07500
O 	O 	0.23730 0.60100 0.17610 -0.50600
C 	C 	0.30060 0.45110 0.15210 -0.12200
H 	H 	0.32690 0.43390 0.14240 0.07400
C 	C 	0.26210 0.52370 0.16170 -0.13700
C 	C 	0.50760 0.23730 0.28640 0.05800
H 	H 	0.52570 0.21740 0.26970 0.02900
C 	C 	0.58300 0.26050 0.31750 0.40300
C 	C 	0.30650 0.34760 0.15880 0.02000
H 	H 	0.32610 0.35500 0.13700 0.02400
C 	C 	0.26450 0.42710 0.17040 0.06800
N 	N 	0.30390 0.30600 0.17670 -0.23900
C 	C 	0.27470 0.37900 0.17810 0.01800
C 	C 	0.22460 0.50190 0.18000 0.05800
H 	H 	0.19840 0.51950 0.18930 0.02200
O 	O 	0.60290 0.23170 0.30010 -0.46600
C 	C 	0.22650 0.45330 0.18420 -0.11800
H 	H 	0.20110 0.43750 0.19690 0.07900
N 	N 	0.27020 0.30740 0.20270 -0.18700
N 	N 	0.25380 0.35080 0.20490 -0.08800
O 	O 	0.31780 0.23300 0.11090 -0.55900
N 	N 	0.27430 0.19170 0.86460 -0.24900
C 	C 	0.32200 0.23790 0.02920 0.11400
H 	H 	0.34270 0.25820 0.04320 0.01000
H 	H 	0.24250 0.15750 0.90920 0.01400
C 	C 	0.32110 0.23800 0.98870 -0.14800
H 	H 	0.34160 0.25860 0.97480 0.08400
Zn	Zn	0.16518 0.25312 0.66479 1.22600
Zn	Zn	0.24729 0.17235 0.81354 1.19200
N 	N 	0.18760 0.20430 0.80100 -0.21900
N 	N 	0.14420 0.19770 0.81600 -0.08800
N 	N 	0.18710 0.23900 0.77380 -0.22700
C 	C 	0.04250 0.20300 0.83360 -0.11500
H 	H 	0.06020 0.18190 0.84960 0.07900
C 	C 	0.11570 0.22800 0.79830 0.03900
C 	C 	0.99450 0.20490 0.83740 0.05800
H 	H 	0.97860 0.18510 0.85570 0.02900
C 	C 	0.14140 0.25560 0.77010 -0.02000
H 	H 	0.12980 0.27950 0.75310 0.02400
C 	C 	0.06590 0.23170 0.80660 0.06000
O 	O 	0.21170 0.90090 0.63200 -0.32900
O 	O 	0.89730 0.21010 0.83890 -0.38600
C 	C 	0.96990 0.23580 0.81430 -0.13300
C 	C 	0.23810 0.92350 0.65730 0.38500
C 	C 	0.20010 0.00080 0.64740 0.06000
H 	H 	0.17500 0.98490 0.63450 0.02400
C 	C 	0.04090 0.26160 0.78220 -0.11900
H 	H 	0.05640 0.28070 0.76320 0.07500
O 	O 	0.26270 0.89900 0.67610 -0.50600
C 	C 	0.19940 0.04890 0.65210 -0.12200
H 	H 	0.17310 0.06610 0.64240 0.07400
C 	C 	0.23790 0.97630 0.66170 -0.13600
C 	C 	0.99240 0.26270 0.78640 0.05800
H 	H 	0.97430 0.28260 0.76970 0.02900
C 	C 	0.91700 0.23950 0.81750 0.40300
C 	C 	0.19350 0.15240 0.65880 0.02000
H 	H 	0.17390 0.14500 0.63700 0.02400
C 	C 	0.23550 0.07290 0.67040 0.06800
N 	N 	0.19610 0.19400 0.67670 -0.23900
C 	C 	0.22530 0.12100 0.67810 0.01800
C 	C 	0.27540 0.99810 0.68000 0.05800
H 	H 	0.30160 0.98050 0.68930 0.02200
O 	O 	0.89710 0.26830 0.80010 -0.46600
C 	C 	0.27350 0.04670 0.68420 -0.11800
H 	H 	0.29890 0.06250 0.69690 0.07900
N 	N 	0.22980 0.19260 0.70270 -0.18700
N 	N 	0.24620 0.14920 0.70490 -0.08800
O 	O 	0.18220 0.26700 0.61090 -0.56000
N 	N 	0.22570 0.30830 0.36460 -0.24900
C 	C 	0.17800 0.26210 0.52920 0.12100
H 	H 	0.15730 0.24180 0.54320 0.00800
H 	H 	0.25750 0.34250 0.40920 0.01400
C 	C 	0.17890 0.26200 0.48870 -0.15600
H 	H 	0.15840 0.24140 0.47480 0.08600
Zn	Zn	0.66518 0.75312 0.16479 1.22600
Zn	Zn	0.74729 0.67235 0.31354 1.19200
N 	N 	0.68760 0.70430 0.30100 -0.21900
N 	N 	0.64420 0.69770 0.31600 -0.08800
N 	N 	0.68710 0.73900 0.27380 -0.22700
C 	C 	0.54250 0.70300 0.33360 -0.11500
H 	H 	0.56020 0.68190 0.34960 0.07900
C 	C 	0.61570 0.72800 0.29830 0.03900
C 	C 	0.49450 0.70490 0.33740 0.05800
H 	H 	0.47860 0.68510 0.35570 0.02900
C 	C 	0.64140 0.75560 0.27010 -0.02000
H 	H 	0.62980 0.77950 0.25310 0.02400
C 	C 	0.56590 0.73170 0.30660 0.06000
O 	O 	0.71170 0.40090 0.13200 -0.33000
O 	O 	0.39730 0.71010 0.33890 -0.38700
C 	C 	0.46990 0.73580 0.31430 -0.13300
C 	C 	0.73810 0.42350 0.15730 0.38500
C 	C 	0.70010 0.50080 0.14740 0.06000
H 	H 	0.67500 0.48490 0.13450 0.02300
C 	C 	0.54090 0.76160 0.28220 -0.11900
H 	H 	0.55640 0.78070 0.26320 0.07500
O 	O 	0.76270 0.39900 0.17610 -0.50600
C 	C 	0.69940 0.54890 0.15210 -0.12200
H 	H 	0.67310 0.56610 0.14240 0.07400
C 	C 	0.73790 0.47630 0.16170 -0.13700
C 	C 	0.49240 0.76270 0.28640 0.05800
H 	H 	0.47430 0.78260 0.26970 0.02900
C 	C 	0.41700 0.73950 0.31750 0.40300
C 	C 	0.69350 0.65240 0.15880 0.02000
H 	H 	0.67390 0.64500 0.13700 0.02400
C 	C 	0.73550 0.57290 0.17040 0.06800
N 	N 	0.69610 0.69400 0.17670 -0.23900
C 	C 	0.72530 0.62100 0.17810 0.01800
C 	C 	0.77540 0.49810 0.18000 0.05800
H 	H 	0.80160 0.48050 0.18930 0.02200
O 	O 	0.39710 0.76830 0.30010 -0.46600
C 	C 	0.77350 0.54670 0.18420 -0.11800
H 	H 	0.79890 0.56250 0.19690 0.07900
N 	N 	0.72980 0.69260 0.20270 -0.18700
N 	N 	0.74620 0.64920 0.20490 -0.08800
O 	O 	0.68220 0.76700 0.11090 -0.55900
N 	N 	0.72570 0.80830 0.86460 -0.24900
C 	C 	0.67800 0.76210 0.02920 0.11400
H 	H 	0.65730 0.74180 0.04320 0.01000
H 	H 	0.75750 0.84250 0.90920 0.01400
C 	C 	0.67890 0.76200 0.98870 -0.14800
H 	H 	0.65840 0.74140 0.97480 0.08400
Zn	Zn	0.74688 0.16518 0.66479 1.22600
Zn	Zn	0.82765 0.24729 0.81354 1.19200
N 	N 	0.79570 0.18760 0.80100 -0.21900
N 	N 	0.80230 0.14420 0.81600 -0.08800
N 	N 	0.76100 0.18710 0.77380 -0.22700
C 	C 	0.79700 0.04250 0.83360 -0.11500
H 	H 	0.81810 0.06020 0.84960 0.07900
C 	C 	0.77200 0.11570 0.79830 0.03900
C 	C 	0.79510 0.99450 0.83740 0.05800
H 	H 	0.81490 0.97860 0.85570 0.02900
C 	C 	0.74440 0.14140 0.77010 -0.02000
H 	H 	0.72050 0.12980 0.75310 0.02400
C 	C 	0.76830 0.06590 0.80660 0.06000
O 	O 	0.09910 0.21170 0.63200 -0.32900
O 	O 	0.78990 0.89730 0.83890 -0.38600
C 	C 	0.76420 0.96990 0.81430 -0.13300
C 	C 	0.07650 0.23810 0.65730 0.38500
C 	C 	0.99920 0.20010 0.64740 0.06000
H 	H 	0.01510 0.17500 0.63450 0.02400
C 	C 	0.73840 0.04090 0.78220 -0.11900
H 	H 	0.71930 0.05640 0.76320 0.07500
O 	O 	0.10100 0.26270 0.67610 -0.50600
C 	C 	0.95110 0.19940 0.65210 -0.12200
H 	H 	0.93390 0.17310 0.64240 0.07400
C 	C 	0.02370 0.23790 0.66170 -0.13600
C 	C 	0.73730 0.99240 0.78640 0.05800
H 	H 	0.71740 0.97430 0.76970 0.02900
C 	C 	0.76050 0.91700 0.81750 0.40300
C 	C 	0.84760 0.19350 0.65880 0.02000
H 	H 	0.85500 0.17390 0.63700 0.02400
C 	C 	0.92710 0.23550 0.67040 0.06800
N 	N 	0.80600 0.19610 0.67670 -0.23900
C 	C 	0.87900 0.22530 0.67810 0.01800
C 	C 	0.00190 0.27540 0.68000 0.05800
H 	H 	0.01950 0.30160 0.68930 0.02200
O 	O 	0.73170 0.89710 0.80010 -0.46600
C 	C 	0.95330 0.27350 0.68420 -0.11800
H 	H 	0.93750 0.29890 0.69690 0.07900
N 	N 	0.80740 0.22980 0.70270 -0.18700
N 	N 	0.85080 0.24620 0.70490 -0.08800
O 	O 	0.73300 0.18220 0.61090 -0.56000
N 	N 	0.69170 0.22570 0.36460 -0.24900
C 	C 	0.73790 0.17800 0.52920 0.12100
H 	H 	0.75820 0.15730 0.54320 0.00800
H 	H 	0.65750 0.25750 0.40920 0.01400
C 	C 	0.73800 0.17890 0.48870 -0.15600
H 	H 	0.75860 0.15840 0.47480 0.08600
Zn	Zn	0.24688 0.66518 0.16479 1.22600
Zn	Zn	0.32765 0.74729 0.31354 1.19200
N 	N 	0.29570 0.68760 0.30100 -0.21900
N 	N 	0.30230 0.64420 0.31600 -0.08800
N 	N 	0.26100 0.68710 0.27380 -0.22700
C 	C 	0.29700 0.54250 0.33360 -0.11500
H 	H 	0.31810 0.56020 0.34960 0.07900
C 	C 	0.27200 0.61570 0.29830 0.03900
C 	C 	0.29510 0.49450 0.33740 0.05800
H 	H 	0.31490 0.47860 0.35570 0.02900
C 	C 	0.24440 0.64140 0.27010 -0.02000
H 	H 	0.22050 0.62980 0.25310 0.02400
C 	C 	0.26830 0.56590 0.30660 0.06000
O 	O 	0.59910 0.71170 0.13200 -0.33000
O 	O 	0.28990 0.39730 0.33890 -0.38700
C 	C 	0.26420 0.46990 0.31430 -0.13300
C 	C 	0.57650 0.73810 0.15730 0.38500
C 	C 	0.49920 0.70010 0.14740 0.06000
H 	H 	0.51510 0.67500 0.13450 0.02300
C 	C 	0.23840 0.54090 0.28220 -0.11900
H 	H 	0.21930 0.55640 0.26320 0.07500
O 	O 	0.60100 0.76270 0.17610 -0.50600
C 	C 	0.45110 0.69940 0.15210 -0.12200
H 	H 	0.43390 0.67310 0.14240 0.07400
C 	C 	0.52370 0.73790 0.16170 -0.13700
C 	C 	0.23730 0.49240 0.28640 0.05800
H 	H 	0.21740 0.47430 0.26970 0.02900
C 	C 	0.26050 0.41700 0.31750 0.40300
C 	C 	0.34760 0.69350 0.15880 0.02000
H 	H 	0.35500 0.67390 0.13700 0.02400
C 	C 	0.42710 0.73550 0.17040 0.06800
N 	N 	0.30600 0.69610 0.17670 -0.23900
C 	C 	0.37900 0.72530 0.17810 0.01800
C 	C 	0.50190 0.77540 0.18000 0.05800
H 	H 	0.51950 0.80160 0.18930 0.02200
O 	O 	0.23170 0.39710 0.30010 -0.46600
C 	C 	0.45330 0.77350 0.18420 -0.11800
H 	H 	0.43750 0.79890 0.19690 0.07900
N 	N 	0.30740 0.72980 0.20270 -0.18700
N 	N 	0.35080 0.74620 0.20490 -0.08800
O 	O 	0.23300 0.68220 0.11090 -0.55900
N 	N 	0.19170 0.72570 0.86460 -0.24900
C 	C 	0.23790 0.67800 0.02920 0.11400
H 	H 	0.25820 0.65730 0.04320 0.01000
H 	H 	0.15750 0.75750 0.90920 0.01400
C 	C 	0.23800 0.67890 0.98870 -0.14800
H 	H 	0.25860 0.65840 0.97480 0.08400
Zn	Zn	0.25312 0.83482 0.66479 1.22600
Zn	Zn	0.17235 0.75271 0.81354 1.19200
N 	N 	0.20430 0.81240 0.80100 -0.21900
N 	N 	0.19770 0.85580 0.81600 -0.08800
N 	N 	0.23900 0.81290 0.77380 -0.22700
C 	C 	0.20300 0.95750 0.83360 -0.11500
H 	H 	0.18190 0.93980 0.84960 0.07900
C 	C 	0.22800 0.88430 0.79830 0.03900
C 	C 	0.20490 0.00550 0.83740 0.05800
H 	H 	0.18510 0.02140 0.85570 0.02900
C 	C 	0.25560 0.85860 0.77010 -0.02000
H 	H 	0.27950 0.87020 0.75310 0.02400
C 	C 	0.23170 0.93410 0.80660 0.06000
O 	O 	0.90090 0.78830 0.63200 -0.32900
O 	O 	0.21010 0.10270 0.83890 -0.38600
C 	C 	0.23580 0.03010 0.81430 -0.13300
C 	C 	0.92350 0.76190 0.65730 0.38500
C 	C 	0.00080 0.79990 0.64740 0.06000
H 	H 	0.98490 0.82500 0.63450 0.02400
C 	C 	0.26160 0.95910 0.78220 -0.11900
H 	H 	0.28070 0.94360 0.76320 0.07500
O 	O 	0.89900 0.73730 0.67610 -0.50600
C 	C 	0.04890 0.80060 0.65210 -0.12200
H 	H 	0.06610 0.82690 0.64240 0.07400
C 	C 	0.97630 0.76210 0.66170 -0.13600
C 	C 	0.26270 0.00760 0.78640 0.05800
H 	H 	0.28260 0.02570 0.76970 0.02900
C 	C 	0.23950 0.08300 0.81750 0.40300
C 	C 	0.15240 0.80650 0.65880 0.02000
H 	H 	0.14500 0.82610 0.63700 0.02400
C 	C 	0.07290 0.76450 0.67040 0.06800
N 	N 	0.19400 0.80390 0.67670 -0.23900
C 	C 	0.12100 0.77470 0.67810 0.01800
C 	C 	0.99810 0.72460 0.68000 0.05800
H 	H 	0.98050 0.69840 0.68930 0.02200
O 	O 	0.26830 0.10290 0.80010 -0.46600
C 	C 	0.04670 0.72650 0.68420 -0.11800
H 	H 	0.06250 0.70110 0.69690 0.07900
N 	N 	0.19260 0.77020 0.70270 -0.18700
N 	N 	0.14920 0.75380 0.70490 -0.08800
O 	O 	0.26700 0.81780 0.61090 -0.56000
N 	N 	0.30830 0.77430 0.36460 -0.24900
C 	C 	0.26210 0.82200 0.52920 0.12100
H 	H 	0.24180 0.84270 0.54320 0.00800
H 	H 	0.34250 0.74250 0.40920 0.01400
C 	C 	0.26200 0.82110 0.48870 -0.15600
H 	H 	0.24140 0.84160 0.47480 0.08600
Zn	Zn	0.75312 0.33482 0.16479 1.22600
Zn	Zn	0.67235 0.25271 0.31354 1.19200
N 	N 	0.70430 0.31240 0.30100 -0.21900
N 	N 	0.69770 0.35580 0.31600 -0.08800
N 	N 	0.73900 0.31290 0.27380 -0.22700
C 	C 	0.70300 0.45750 0.33360 -0.11500
H 	H 	0.68190 0.43980 0.34960 0.07900
C 	C 	0.72800 0.38430 0.29830 0.03900
C 	C 	0.70490 0.50550 0.33740 0.05800
H 	H 	0.68510 0.52140 0.35570 0.02900
C 	C 	0.75560 0.35860 0.27010 -0.02000
H 	H 	0.77950 0.37020 0.25310 0.02400
C 	C 	0.73170 0.43410 0.30660 0.06000
O 	O 	0.40090 0.28830 0.13200 -0.33000
O 	O 	0.71010 0.60270 0.33890 -0.38700
C 	C 	0.73580 0.53010 0.31430 -0.13300
C 	C 	0.42350 0.26190 0.15730 0.38500
C 	C 	0.50080 0.29990 0.14740 0.06000
H 	H 	0.48490 0.32500 0.13450 0.02300
C 	C 	0.76160 0.45910 0.28220 -0.11900
H 	H 	0.78070 0.44360 0.26320 0.07500
O 	O 	0.39900 0.23730 0.17610 -0.50600
C 	C 	0.54890 0.30060 0.15210 -0.12200
H 	H 	0.56610 0.32690 0.14240 0.07400
C 	C 	0.47630 0.26210 0.16170 -0.13700
C 	C 	0.76270 0.50760 0.28640 0.05800
H 	H 	0.78260 0.52570 0.26970 0.02900
C 	C 	0.73950 0.58300 0.31750 0.40300
C 	C 	0.65240 0.30650 0.15880 0.02000
H 	H 	0.64500 0.32610 0.13700 0.02400
C 	C 	0.57290 0.26450 0.17040 0.06800
N 	N 	0.69400 0.30390 0.17670 -0.23900
C 	C 	0.62100 0.27470 0.17810 0.01800
C 	C 	0.49810 0.22460 0.18000 0.05800
H 	H 	0.48050 0.19840 0.18930 0.02200
O 	O 	0.76830 0.60290 0.30010 -0.46600
C 	C 	0.54670 0.22650 0.18420 -0.11800
H 	H 	0.56250 0.20110 0.19690 0.07900
N 	N 	0.69260 0.27020 0.20270 -0.18700
N 	N 	0.64920 0.25380 0.20490 -0.08800
O 	O 	0.76700 0.31780 0.11090 -0.55900
N 	N 	0.80830 0.27430 0.86460 -0.24900
C 	C 	0.76210 0.32200 0.02920 0.11400
H 	H 	0.74180 0.34270 0.04320 0.01000
H 	H 	0.84250 0.24250 0.90920 0.01400
C 	C 	0.76200 0.32110 0.98870 -0.14800
H 	H 	0.74140 0.34160 0.97480 0.08400
Zn	Zn	0.75315 0.25315 0.23964 1.16800
O 	O 	0.79700 0.29700 0.19660 -0.67000
C 	C 	0.79250 0.29250 0.09240 0.57000
C 	C 	0.79230 0.29230 0.04900 -0.23100
C 	C 	0.79280 0.29280 0.92400 0.01800
C 	C 	0.79110 0.29110 0.96740 0.08300
O 	O 	0.71040 0.21040 0.27920 -0.68100
Zn	Zn	0.24685 0.74685 0.23964 1.16800
O 	O 	0.20300 0.70300 0.19660 -0.67000
C 	C 	0.20750 0.70750 0.09240 0.57000
C 	C 	0.20770 0.70770 0.04900 -0.23100
C 	C 	0.20720 0.70720 0.92400 0.01800
C 	C 	0.20890 0.70890 0.96740 0.08300
O 	O 	0.28960 0.78960 0.27920 -0.68100
Zn	Zn	0.74685 0.75315 0.23964 1.16800
O 	O 	0.70300 0.79700 0.19660 -0.67000
C 	C 	0.70750 0.79250 0.09240 0.57000
C 	C 	0.70770 0.79230 0.04900 -0.23100
C 	C 	0.70720 0.79280 0.92400 0.01800
C 	C 	0.70890 0.79110 0.96740 0.08300
O 	O 	0.78960 0.71040 0.27920 -0.68100
Zn	Zn	0.25315 0.24685 0.23964 1.16800
O 	O 	0.29700 0.20300 0.19660 -0.67000
C 	C 	0.29250 0.20750 0.09240 0.57000
C 	C 	0.29230 0.20770 0.04900 -0.23100
C 	C 	0.29280 0.20720 0.92400 0.01800
C 	C 	0.29110 0.20890 0.96740 0.08300
O 	O 	0.21040 0.28960 0.27920 -0.68100
Zn	Zn	0.75315 0.74685 0.73964 1.16800
O 	O 	0.79700 0.70300 0.69660 -0.67000
C 	C 	0.79250 0.70750 0.59240 0.57300
C 	C 	0.79230 0.70770 0.54900 -0.23600
C 	C 	0.79280 0.70720 0.42400 0.01600
C 	C 	0.79110 0.70890 0.46740 0.08800
O 	O 	0.71040 0.78960 0.77920 -0.68100
Zn	Zn	0.24685 0.25315 0.73964 1.16800
O 	O 	0.20300 0.29700 0.69660 -0.67000
C 	C 	0.20750 0.29250 0.59240 0.57300
C 	C 	0.20770 0.29230 0.54900 -0.23600
C 	C 	0.20720 0.29280 0.42400 0.01600
C 	C 	0.20890 0.29110 0.46740 0.08800
O 	O 	0.28960 0.21040 0.77920 -0.68100
Zn	Zn	0.74685 0.24685 0.73964 1.16800
O 	O 	0.70300 0.20300 0.69660 -0.67000
C 	C 	0.70750 0.20750 0.59240 0.57300
C 	C 	0.70770 0.20770 0.54900 -0.23600
C 	C 	0.70720 0.20720 0.42400 0.01600
C 	C 	0.70890 0.20890 0.46740 0.08800
O 	O 	0.78960 0.28960 0.77920 -0.68100
Zn	Zn	0.25315 0.75315 0.73964 1.16800
O 	O 	0.29700 0.79700 0.69660 -0.67000
C 	C 	0.29250 0.79250 0.59240 0.57300
C 	C 	0.29230 0.79230 0.54900 -0.23600
C 	C 	0.29280 0.79280 0.42400 0.01600
C 	C 	0.29110 0.79110 0.46740 0.08800
O 	O 	0.21040 0.71040 0.77920 -0.68100
