data_crystal

_cell_length_a 8.03060
_cell_length_b 19.40800
_cell_length_c 8.88620
_cell_angle_alpha 90.00000
_cell_angle_beta  92.81600
_cell_angle_gamma 90.00000

_symmetry_space_group_name_	'P 1'
_symmetry_space_group_name_H-M	'P 1'

loop_
_symmetry_equiv_pos_as_xyz
  x,y,z

loop_
_atom_site_label
_atom_site_type_symbol
_atom_site_fract_x
_atom_site_fract_y
_atom_site_fract_z
_atom_site_charge
N 	N 	0.86380 0.08010 0.08400 -0.23100
N 	N 	0.69440 0.08630 0.06980 -0.11900
N 	N 	0.79620 0.17830 0.16330 -0.12400
N 	N 	0.82540 0.24340 0.22390 -0.03300
N 	N 	0.69330 0.27450 0.22240 -0.04200
N 	N 	0.72050 0.33810 0.28230 -0.10900
N 	N 	0.64600 0.42910 0.39560 -0.21200
N 	N 	0.81650 0.42520 0.40450 -0.09100
N 	N 	0.15450 0.00360 0.19280 -0.23000
N 	N 	0.07920 0.00490 0.33170 -0.13200
N 	N 	0.34440 0.00250 0.36820 -0.12600
N 	N 	0.50180 0.99990 0.43060 0.00700
C 	C 	0.92170 0.13460 0.14120 0.20500
H 	H 	0.03390 0.14330 0.16460 -0.06600
C 	C 	0.65680 0.14500 0.11870 0.10800
H 	H 	0.54910 0.16230 0.12300 0.00900
C 	C 	0.59270 0.37680 0.32140 0.12000
H 	H 	0.48100 0.36720 0.29790 -0.00600
C 	C 	0.85650 0.36980 0.33970 0.11400
H 	H 	0.96490 0.35370 0.33310 0.03300
C 	C 	0.31380 0.00270 0.21940 0.10900
H 	H 	0.39370 0.00220 0.14710 -0.01400
C 	C 	0.19480 0.00370 0.43370 0.10500
H 	H 	0.17990 0.00360 0.53690 0.00600
N 	N 	0.63620 0.58010 0.41600 -0.21300
N 	N 	0.80560 0.58630 0.43020 -0.09300
N 	N 	0.70380 0.67830 0.33670 -0.10900
N 	N 	0.67460 0.74340 0.27610 -0.04100
N 	N 	0.80670 0.77450 0.27760 -0.03000
N 	N 	0.77950 0.83810 0.21770 -0.12000
N 	N 	0.85400 0.92910 0.10440 -0.21000
N 	N 	0.68350 0.92520 0.09550 -0.09900
N 	N 	0.34550 0.50360 0.30720 -0.21200
N 	N 	0.42080 0.50490 0.16830 -0.09100
N 	N 	0.15560 0.50250 0.13180 -0.11000
N 	N 	0.99820 0.49990 0.06940 -0.03200
C 	C 	0.57830 0.63460 0.35880 0.12600
H 	H 	0.46610 0.64330 0.33540 -0.00700
C 	C 	0.84320 0.64500 0.38130 0.11600
H 	H 	0.95090 0.66230 0.37700 0.03300
C 	C 	0.90730 0.87680 0.17860 0.19800
H 	H 	0.01900 0.86720 0.20210 -0.05200
C 	C 	0.64350 0.86980 0.16030 0.11100
H 	H 	0.53510 0.85370 0.16690 0.01600
C 	C 	0.18620 0.50270 0.28060 0.11200
H 	H 	0.10630 0.50220 0.35290 0.00000
C 	C 	0.30520 0.50370 0.06630 0.00200
H 	H 	0.32010 0.50360 0.96310 0.09600
N 	N 	0.13620 0.91990 0.91600 -0.17700
N 	N 	0.30560 0.91370 0.93020 -0.07600
N 	N 	0.20380 0.82170 0.83670 -0.09500
N 	N 	0.17460 0.75660 0.77610 -0.04000
N 	N 	0.30670 0.72550 0.77760 -0.03100
N 	N 	0.27950 0.66190 0.71770 -0.10600
N 	N 	0.35400 0.57090 0.60440 -0.21200
N 	N 	0.18350 0.57480 0.59550 -0.10400
N 	N 	0.84550 0.99640 0.80720 -0.17500
N 	N 	0.92080 0.99510 0.66830 -0.07800
N 	N 	0.65560 0.99750 0.63180 -0.08400
N 	N 	0.49820 0.00010 0.56940 -0.07800
C 	C 	0.07830 0.86540 0.85880 0.06000
H 	H 	0.96610 0.85670 0.83540 0.05700
C 	C 	0.34320 0.85500 0.88130 0.12100
H 	H 	0.45090 0.83770 0.87700 0.03300
C 	C 	0.40730 0.62320 0.67860 0.12100
H 	H 	0.51900 0.63280 0.70210 0.00700
C 	C 	0.14350 0.63020 0.66030 0.11300
H 	H 	0.03510 0.64630 0.66690 0.01200
C 	C 	0.68620 0.99730 0.78060 0.12700
H 	H 	0.60630 0.99780 0.85290 0.04200
C 	C 	0.80520 0.99630 0.56630 0.11800
H 	H 	0.82010 0.99640 0.46310 0.04900
N 	N 	0.36380 0.41990 0.58400 -0.21300
N 	N 	0.19440 0.41370 0.56980 -0.10500
N 	N 	0.29620 0.32170 0.66330 -0.10800
N 	N 	0.32540 0.25660 0.72390 -0.03300
N 	N 	0.19330 0.22550 0.72240 -0.04200
N 	N 	0.22050 0.16190 0.78230 -0.09500
N 	N 	0.14600 0.07090 0.89560 -0.19400
N 	N 	0.31650 0.07480 0.90450 -0.09200
N 	N 	0.65450 0.49640 0.69280 -0.20900
N 	N 	0.57920 0.49510 0.83170 -0.12000
N 	N 	0.84440 0.49750 0.86820 -0.10200
N 	N 	0.00180 0.50010 0.93060 -0.03800
C 	C 	0.42170 0.36540 0.64120 0.12700
H 	H 	0.53390 0.35670 0.66460 0.00400
C 	C 	0.15680 0.35500 0.61870 0.11300
H 	H 	0.04910 0.33770 0.62300 0.01000
C 	C 	0.09270 0.12320 0.82140 0.04700
H 	H 	0.98100 0.13280 0.79790 0.05500
C 	C 	0.35650 0.13020 0.83970 0.11600
H 	H 	0.46490 0.14630 0.83310 0.02800
C 	C 	0.81380 0.49730 0.71940 0.12500
H 	H 	0.89370 0.49780 0.64710 0.02500
C 	C 	0.69480 0.49630 0.93370 0.21600
H 	H 	0.67990 0.49640 0.03690 -0.04000
Fe	Fe	-0.00000 0.00000 -0.00000 1.08700
Fe	Fe	0.50000 0.50000 0.50000 1.16200
