data_crystal

_cell_length_a 8.14460
_cell_length_b 20.26030
_cell_length_c 8.85150
_cell_angle_alpha 90.00000
_cell_angle_beta  90.06100
_cell_angle_gamma 90.00000

_symmetry_space_group_name_	'P 1'
_symmetry_space_group_name_H-M	'P 1'

loop_
_symmetry_equiv_pos_as_xyz
  x,y,z

loop_
_atom_site_label
_atom_site_type_symbol
_atom_site_fract_x
_atom_site_fract_y
_atom_site_fract_z
_atom_site_charge
N 	N 	0.85700 0.91870 0.90450 -0.17500
N 	N 	0.68800 0.91400 0.91230 -0.07600
N 	N 	0.79100 0.82140 0.83100 -0.11000
N 	N 	0.82170 0.75661 0.77450 -0.02500
N 	N 	0.69200 0.72924 0.77610 -0.03100
N 	N 	0.72320 0.66446 0.71640 -0.10400
N 	N 	0.64900 0.57345 0.61430 -0.20200
N 	N 	0.81910 0.57841 0.60190 -0.09200
N 	N 	0.16250 0.99635 0.80420 -0.17700
N 	N 	0.08530 0.99584 0.66400 -0.10000
N 	N 	0.34900 0.99880 0.63100 -0.08200
N 	N 	0.50370 0.00117 0.56980 -0.08000
C 	C 	0.91340 0.86310 0.85430 0.17500
C 	C 	0.65260 0.85420 0.86760 0.11800
C 	C 	0.85830 0.63430 0.66270 0.11200
C 	C 	0.59670 0.62520 0.68360 0.13000
C 	C 	0.31950 0.99851 0.78150 0.12100
C 	C 	0.19960 0.99800 0.56320 0.11300
H 	H 	0.02600 0.85200 0.83400 -0.02200
H 	H 	0.56100 0.83960 0.85000 0.02500
H 	H 	0.96900 0.64680 0.67300 0.03800
H 	H 	0.49700 0.63200 0.70500 -0.00600
H 	H 	0.39700 0.99930 0.85500 0.03900
H 	H 	0.18200 0.99700 0.46700 0.03200
N 	N 	0.64300 0.41870 0.59550 -0.19600
N 	N 	0.81200 0.41400 0.58770 -0.08900
N 	N 	0.70900 0.32140 0.66900 -0.10200
N 	N 	0.67830 0.25661 0.72550 -0.03300
N 	N 	0.80800 0.22924 0.72390 -0.02700
N 	N 	0.77680 0.16446 0.78360 -0.12200
N 	N 	0.85100 0.07345 0.88570 -0.20700
N 	N 	0.68090 0.07841 0.89810 -0.09500
N 	N 	0.33750 0.49635 0.69580 -0.19900
N 	N 	0.41470 0.49584 0.83600 -0.12100
N 	N 	0.15100 0.49880 0.86900 -0.12900
N 	N 	0.99630 0.50117 0.93020 0.01400
C 	C 	0.58660 0.36310 0.64570 0.11200
C 	C 	0.84740 0.35420 0.63240 0.11000
C 	C 	0.64170 0.13430 0.83730 0.11400
C 	C 	0.90330 0.12520 0.81640 0.22600
C 	C 	0.18050 0.49851 0.71850 0.11400
C 	C 	0.30040 0.49800 0.93680 0.21600
H 	H 	0.47400 0.35200 0.66600 0.01000
H 	H 	0.93900 0.33960 0.65000 0.03300
H 	H 	0.53100 0.14680 0.82700 0.02600
H 	H 	0.00300 0.13200 0.79500 -0.07100
H 	H 	0.10300 0.49930 0.64500 0.00200
H 	H 	0.31800 0.49700 0.03300 -0.04900
N 	N 	0.14300 0.08130 0.09550 -0.20300
N 	N 	0.31200 0.08600 0.08770 -0.11500
N 	N 	0.20900 0.17860 0.16900 -0.09800
N 	N 	0.17830 0.24339 0.22550 -0.04900
N 	N 	0.30800 0.27076 0.22390 -0.04200
N 	N 	0.27680 0.33554 0.28360 -0.11100
N 	N 	0.35100 0.42655 0.38570 -0.20400
N 	N 	0.18090 0.42159 0.39810 -0.10400
N 	N 	0.83750 0.00365 0.19580 -0.20400
N 	N 	0.91470 0.00416 0.33600 -0.10700
N 	N 	0.65100 0.00120 0.36900 -0.12300
N 	N 	0.49630 0.99883 0.43020 0.00800
C 	C 	0.08660 0.13690 0.14570 0.03200
C 	C 	0.34740 0.14580 0.13240 0.09600
C 	C 	0.14170 0.36570 0.33730 0.10400
C 	C 	0.40330 0.37480 0.31640 0.12200
C 	C 	0.68050 0.00149 0.21850 0.10500
C 	C 	0.80040 0.00200 0.43680 0.10600
H 	H 	0.97400 0.14800 0.16600 0.05000
H 	H 	0.43900 0.16040 0.15000 0.01500
H 	H 	0.03100 0.35320 0.32700 0.01000
H 	H 	0.50300 0.36800 0.29500 -0.00800
H 	H 	0.60300 0.00070 0.14500 -0.01100
H 	H 	0.81800 0.00300 0.53300 0.01600
N 	N 	0.35700 0.58130 0.40450 -0.19800
N 	N 	0.18800 0.58600 0.41230 -0.10300
N 	N 	0.29100 0.67860 0.33100 -0.10700
N 	N 	0.32170 0.74339 0.27450 -0.04000
N 	N 	0.19200 0.77076 0.27610 -0.04600
N 	N 	0.22320 0.83554 0.21640 -0.09200
N 	N 	0.14900 0.92655 0.11430 -0.18300
N 	N 	0.31910 0.92159 0.10190 -0.09700
N 	N 	0.66250 0.50365 0.30420 -0.19800
N 	N 	0.58530 0.50416 0.16400 -0.09100
N 	N 	0.84900 0.50120 0.13100 -0.07600
N 	N 	0.00370 0.49883 0.06980 -0.08800
C 	C 	0.41340 0.63690 0.35430 0.10500
C 	C 	0.15260 0.64580 0.36760 0.10500
C 	C 	0.35830 0.86570 0.16270 0.10200
C 	C 	0.09670 0.87480 0.18360 0.02400
C 	C 	0.81950 0.50149 0.28150 0.11300
C 	C 	0.69960 0.50200 0.06320 0.00800
H 	H 	0.52600 0.64800 0.33400 0.00900
H 	H 	0.06100 0.66040 0.35000 0.00600
H 	H 	0.46900 0.85320 0.17300 0.02400
H 	H 	0.99700 0.86800 0.20500 0.06200
H 	H 	0.89700 0.50070 0.35500 0.02400
H 	H 	0.68200 0.50300 0.96700 0.09200
Fe	Fe	-0.00000 0.00000 -0.00000 1.06800
Fe	Fe	0.50000 0.50000 0.50000 1.13400
