data_crystal

_cell_length_a 8.01120
_cell_length_b 19.43920
_cell_length_c 8.96480
_cell_angle_alpha 90.00000
_cell_angle_beta  93.38200
_cell_angle_gamma 90.00000

_symmetry_space_group_name_	'P 1'
_symmetry_space_group_name_H-M	'P 1'

loop_
_symmetry_equiv_pos_as_xyz
  x,y,z

loop_
_atom_site_label
_atom_site_type_symbol
_atom_site_fract_x
_atom_site_fract_y
_atom_site_fract_z
_atom_site_charge
C 	C 	0.69080 0.99914 0.78550 0.19800
C 	C 	0.80930 0.99551 0.57140 0.11400
C 	C 	0.42370 0.36960 0.64870 0.11100
C 	C 	0.15140 0.36417 0.63800 0.10000
C 	C 	0.07760 0.12564 0.83080 0.03000
C 	C 	0.34750 0.13674 0.86540 0.10700
N 	N 	0.85270 0.99803 0.81280 -0.19300
N 	N 	0.92840 0.99556 0.67560 -0.07600
N 	N 	0.65760 0.99774 0.63450 -0.10700
N 	N 	0.49760 0.99951 0.56900 -0.00600
N 	N 	0.13340 0.07309 0.90880 -0.19500
N 	N 	0.30700 0.07955 0.92940 -0.08800
N 	N 	0.20780 0.16702 0.80040 -0.08800
N 	N 	0.18340 0.23147 0.73580 -0.04300
N 	N 	0.36540 0.42559 0.58530 -0.21500
N 	N 	0.19060 0.42259 0.57960 -0.10100
N 	N 	0.29390 0.32858 0.68140 -0.09900
N 	N 	0.31680 0.26386 0.74420 -0.03300
H 	H 	0.61200 0.00100 0.85600 -0.03100
H 	H 	0.83000 0.99420 0.47200 0.05100
H 	H 	0.53400 0.35800 0.66800 0.01300
H 	H 	0.04300 0.34680 0.65000 0.01700
H 	H 	0.97300 0.13640 0.80200 0.06500
H 	H 	0.46000 0.15420 0.86000 0.03600
C 	C 	0.80920 0.49914 0.71450 0.11700
C 	C 	0.69070 0.49551 0.92860 0.21500
C 	C 	0.07630 0.86960 0.85130 0.04600
C 	C 	0.34860 0.86417 0.86200 0.11100
C 	C 	0.42240 0.62564 0.66920 0.11400
C 	C 	0.15250 0.63674 0.63460 0.10000
N 	N 	0.64730 0.49803 0.68720 -0.21300
N 	N 	0.57160 0.49556 0.82440 -0.11600
N 	N 	0.84240 0.49774 0.86550 -0.09800
N 	N 	0.00240 0.49951 0.93100 -0.03600
N 	N 	0.36660 0.57309 0.59120 -0.21600
N 	N 	0.19300 0.57955 0.57060 -0.10200
N 	N 	0.29220 0.66702 0.69960 -0.09900
N 	N 	0.31660 0.73147 0.76420 -0.03100
N 	N 	0.13460 0.92559 0.91470 -0.18000
N 	N 	0.30940 0.92259 0.92040 -0.07300
N 	N 	0.20610 0.82858 0.81860 -0.08700
N 	N 	0.18320 0.76386 0.75580 -0.04000
H 	H 	0.88800 0.50100 0.64400 0.02800
H 	H 	0.67000 0.49420 0.02800 -0.04300
H 	H 	0.96600 0.85800 0.83200 0.06600
H 	H 	0.45700 0.84680 0.85000 0.03800
H 	H 	0.52700 0.63640 0.69800 0.01200
H 	H 	0.04000 0.65420 0.64000 0.01800
C 	C 	0.30920 0.00086 0.21450 0.01600
C 	C 	0.19070 0.00449 0.42860 0.09200
C 	C 	0.57630 0.63040 0.35130 0.11100
C 	C 	0.84860 0.63583 0.36200 0.10400
C 	C 	0.92240 0.87436 0.16920 0.20300
C 	C 	0.65250 0.86326 0.13460 0.09800
N 	N 	0.14730 0.00197 0.18720 -0.21900
N 	N 	0.07160 0.00444 0.32440 -0.12600
N 	N 	0.34240 0.00226 0.36550 -0.09100
N 	N 	0.50240 0.00049 0.43100 -0.06600
N 	N 	0.86660 0.92691 0.09120 -0.21700
N 	N 	0.69300 0.92045 0.07060 -0.10000
N 	N 	0.79220 0.83298 0.19960 -0.11400
N 	N 	0.81660 0.76853 0.26420 -0.03100
N 	N 	0.63460 0.57441 0.41470 -0.21500
N 	N 	0.80940 0.57741 0.42040 -0.08800
N 	N 	0.70610 0.67142 0.31860 -0.10100
N 	N 	0.68320 0.73614 0.25580 -0.04100
H 	H 	0.38800 0.99900 0.14400 0.07100
H 	H 	0.17000 0.00580 0.52800 0.00900
H 	H 	0.46600 0.64200 0.33200 0.00200
H 	H 	0.95700 0.65320 0.35000 0.03900
H 	H 	0.02700 0.86360 0.19800 -0.05600
H 	H 	0.54000 0.84580 0.14000 0.02100
C 	C 	0.19080 0.50086 0.28550 0.10400
C 	C 	0.30930 0.50449 0.07140 -0.01400
C 	C 	0.92370 0.13040 0.14870 0.19000
C 	C 	0.65140 0.13583 0.13800 0.09300
C 	C 	0.57760 0.37436 0.33080 0.11300
C 	C 	0.84750 0.36326 0.36540 0.10400
N 	N 	0.35270 0.50197 0.31280 -0.21600
N 	N 	0.42840 0.50444 0.17560 -0.08600
N 	N 	0.15760 0.50226 0.13450 -0.10400
N 	N 	0.99760 0.50049 0.06900 -0.03300
N 	N 	0.63340 0.42691 0.40880 -0.21600
N 	N 	0.80700 0.42045 0.42940 -0.09000
N 	N 	0.70780 0.33298 0.30040 -0.10300
N 	N 	0.68340 0.26853 0.23580 -0.04300
N 	N 	0.86540 0.07441 0.08530 -0.23200
N 	N 	0.69060 0.07741 0.07960 -0.11400
N 	N 	0.79390 0.17142 0.18140 -0.11500
N 	N 	0.81680 0.23614 0.24420 -0.03300
H 	H 	0.11200 0.49900 0.35600 0.00400
H 	H 	0.33000 0.50580 0.97200 0.10500
H 	H 	0.03400 0.14200 0.16800 -0.05800
H 	H 	0.54300 0.15320 0.15000 0.01700
H 	H 	0.47300 0.36360 0.30200 -0.00200
H 	H 	0.96000 0.34580 0.36000 0.03900
Fe	Fe	-0.00000 0.00000 -0.00000 1.10800
Fe	Fe	0.50000 0.50000 0.50000 1.18300
