data_crystal

_cell_length_a 27.41800
_cell_length_b 27.41800
_cell_length_c 27.41800
_cell_angle_alpha 90.00000
_cell_angle_beta  90.00000
_cell_angle_gamma 90.00000

_symmetry_space_group_name_	'P 1'
_symmetry_space_group_name_H-M	'P 1'

loop_
_symmetry_equiv_pos_as_xyz
  x,y,z

loop_
_atom_site_label
_atom_site_type_symbol
_atom_site_fract_x
_atom_site_fract_y
_atom_site_fract_z
_atom_site_charge
O 	O 	0.95047 0.79068 0.54980 -0.39000
C 	C 	0.87800 0.79300 0.62160 0.05400
H 	H 	0.88940 0.82240 0.60900 0.03500
C 	C 	0.84360 0.79380 0.65730 -0.11200
H 	H 	0.83260 0.82340 0.66970 0.07600
O 	O 	0.04953 0.20932 0.54980 -0.41800
C 	C 	0.12200 0.20700 0.62160 0.05800
H 	H 	0.11060 0.17760 0.60900 0.02000
C 	C 	0.15640 0.20620 0.65730 -0.12400
H 	H 	0.16740 0.17660 0.66970 0.07000
O 	O 	0.04953 0.79068 0.45020 -0.41400
C 	C 	0.12200 0.79300 0.37840 0.05800
H 	H 	0.11060 0.82240 0.39100 0.02500
C 	C 	0.15640 0.79380 0.34270 -0.12200
H 	H 	0.16740 0.82340 0.33030 0.07300
O 	O 	0.95047 0.20932 0.45020 -0.39600
C 	C 	0.87800 0.20700 0.37840 0.05300
H 	H 	0.88940 0.17760 0.39100 0.02700
C 	C 	0.84360 0.20620 0.34270 -0.11600
H 	H 	0.83260 0.17660 0.33030 0.07000
O 	O 	0.54980 0.95047 0.79068 -0.39100
C 	C 	0.62160 0.87800 0.79300 0.05300
H 	H 	0.60900 0.88940 0.82240 0.03400
C 	C 	0.65730 0.84360 0.79380 -0.11200
H 	H 	0.66970 0.83260 0.82340 0.07600
O 	O 	0.54980 0.04953 0.20932 -0.41800
C 	C 	0.62160 0.12200 0.20700 0.05800
H 	H 	0.60900 0.11060 0.17760 0.02000
C 	C 	0.65730 0.15640 0.20620 -0.12400
H 	H 	0.66970 0.16740 0.17660 0.07000
O 	O 	0.45020 0.04953 0.79068 -0.41400
C 	C 	0.37840 0.12200 0.79300 0.05800
H 	H 	0.39100 0.11060 0.82240 0.02500
C 	C 	0.34270 0.15640 0.79380 -0.12200
H 	H 	0.33030 0.16740 0.82340 0.07300
O 	O 	0.45020 0.95047 0.20932 -0.39600
C 	C 	0.37840 0.87800 0.20700 0.05300
H 	H 	0.39100 0.88940 0.17760 0.02700
C 	C 	0.34270 0.84360 0.20620 -0.11600
H 	H 	0.33030 0.83260 0.17660 0.07000
O 	O 	0.79068 0.54980 0.95047 -0.39100
C 	C 	0.79300 0.62160 0.87800 0.05300
H 	H 	0.82240 0.60900 0.88940 0.03400
C 	C 	0.79380 0.65730 0.84360 -0.11200
H 	H 	0.82340 0.66970 0.83260 0.07600
O 	O 	0.20932 0.54980 0.04953 -0.41800
C 	C 	0.20700 0.62160 0.12200 0.05800
H 	H 	0.17760 0.60900 0.11060 0.02000
C 	C 	0.20620 0.65730 0.15640 -0.12400
H 	H 	0.17660 0.66970 0.16740 0.07000
O 	O 	0.79068 0.45020 0.04953 -0.41400
C 	C 	0.79300 0.37840 0.12200 0.05800
H 	H 	0.82240 0.39100 0.11060 0.02500
C 	C 	0.79380 0.34270 0.15640 -0.12200
H 	H 	0.82340 0.33030 0.16740 0.07300
O 	O 	0.20932 0.45020 0.95047 -0.39600
C 	C 	0.20700 0.37840 0.87800 0.05300
H 	H 	0.17760 0.39100 0.88940 0.02700
C 	C 	0.20620 0.34270 0.84360 -0.11600
H 	H 	0.17660 0.33030 0.83260 0.07000
O 	O 	0.29068 0.45047 0.95020 -0.39400
C 	C 	0.29300 0.37800 0.87840 0.05300
H 	H 	0.32240 0.38940 0.89100 0.03000
C 	C 	0.29380 0.34360 0.84270 -0.11500
H 	H 	0.32340 0.33260 0.83030 0.07300
O 	O 	0.70932 0.54953 0.95020 -0.39300
C 	C 	0.70700 0.62200 0.87840 0.05200
H 	H 	0.67760 0.61060 0.89100 0.03200
C 	C 	0.70620 0.65640 0.84270 -0.11300
H 	H 	0.67660 0.66740 0.83030 0.07300
O 	O 	0.29068 0.54953 0.04980 -0.41600
C 	C 	0.29300 0.62200 0.12160 0.05900
H 	H 	0.32240 0.61060 0.10900 0.02200
C 	C 	0.29380 0.65640 0.15730 -0.12300
H 	H 	0.32340 0.66740 0.16970 0.07200
O 	O 	0.70932 0.45047 0.04980 -0.41600
C 	C 	0.70700 0.37800 0.12160 0.05700
H 	H 	0.67760 0.38940 0.10900 0.02200
C 	C 	0.70620 0.34360 0.15730 -0.12200
H 	H 	0.67660 0.33260 0.16970 0.07200
O 	O 	0.45047 0.04980 0.70932 -0.41600
C 	C 	0.37800 0.12160 0.70700 0.05700
H 	H 	0.38940 0.10900 0.67760 0.02200
C 	C 	0.34360 0.15730 0.70620 -0.12200
H 	H 	0.33260 0.16970 0.67660 0.07200
O 	O 	0.54953 0.04980 0.29068 -0.41600
C 	C 	0.62200 0.12160 0.29300 0.05900
H 	H 	0.61060 0.10900 0.32240 0.02200
C 	C 	0.65640 0.15730 0.29380 -0.12300
H 	H 	0.66740 0.16970 0.32340 0.07200
O 	O 	0.54953 0.95020 0.70932 -0.39300
C 	C 	0.62200 0.87840 0.70700 0.05200
H 	H 	0.61060 0.89100 0.67760 0.03200
C 	C 	0.65640 0.84270 0.70620 -0.11300
H 	H 	0.66740 0.83030 0.67660 0.07300
O 	O 	0.45047 0.95020 0.29068 -0.39400
C 	C 	0.37800 0.87840 0.29300 0.05300
H 	H 	0.38940 0.89100 0.32240 0.03000
C 	C 	0.34360 0.84270 0.29380 -0.11500
H 	H 	0.33260 0.83030 0.32340 0.07300
O 	O 	0.04980 0.29068 0.54953 -0.41600
C 	C 	0.12160 0.29300 0.62200 0.05900
H 	H 	0.10900 0.32240 0.61060 0.02200
C 	C 	0.15730 0.29380 0.65640 -0.12300
H 	H 	0.16970 0.32340 0.66740 0.07200
O 	O 	0.04980 0.70932 0.45047 -0.41600
C 	C 	0.12160 0.70700 0.37800 0.05700
H 	H 	0.10900 0.67760 0.38940 0.02200
C 	C 	0.15730 0.70620 0.34360 -0.12200
H 	H 	0.16970 0.67660 0.33260 0.07200
O 	O 	0.95020 0.29068 0.45047 -0.39400
C 	C 	0.87840 0.29300 0.37800 0.05300
H 	H 	0.89100 0.32240 0.38940 0.03000
C 	C 	0.84270 0.29380 0.34360 -0.11500
H 	H 	0.83030 0.32340 0.33260 0.07300
O 	O 	0.95020 0.70932 0.54953 -0.39300
C 	C 	0.87840 0.70700 0.62200 0.05200
H 	H 	0.89100 0.67760 0.61060 0.03200
C 	C 	0.84270 0.70620 0.65640 -0.11300
H 	H 	0.83030 0.67660 0.66740 0.07300
O 	O 	0.04953 0.20932 0.45020 -0.41900
C 	C 	0.12200 0.20700 0.37840 0.05800
H 	H 	0.11060 0.17760 0.39100 0.01900
C 	C 	0.15640 0.20620 0.34270 -0.12500
H 	H 	0.16740 0.17660 0.33030 0.06800
O 	O 	0.95047 0.79068 0.45020 -0.39100
C 	C 	0.87800 0.79300 0.37840 0.05300
H 	H 	0.88940 0.82240 0.39100 0.03400
C 	C 	0.84360 0.79380 0.34270 -0.11300
H 	H 	0.83260 0.82340 0.33030 0.07500
O 	O 	0.95047 0.20932 0.54980 -0.39600
C 	C 	0.87800 0.20700 0.62160 0.05300
H 	H 	0.88940 0.17760 0.60900 0.02800
C 	C 	0.84360 0.20620 0.65730 -0.11500
H 	H 	0.83260 0.17660 0.66970 0.07100
O 	O 	0.04953 0.79068 0.54980 -0.41400
C 	C 	0.12200 0.79300 0.62160 0.05800
H 	H 	0.11060 0.82240 0.60900 0.02600
C 	C 	0.15640 0.79380 0.65730 -0.12100
H 	H 	0.16740 0.82340 0.66970 0.07500
O 	O 	0.45020 0.04953 0.20932 -0.41900
C 	C 	0.37840 0.12200 0.20700 0.05800
H 	H 	0.39100 0.11060 0.17760 0.01900
C 	C 	0.34270 0.15640 0.20620 -0.12500
H 	H 	0.33030 0.16740 0.17660 0.06800
O 	O 	0.45020 0.95047 0.79068 -0.39100
C 	C 	0.37840 0.87800 0.79300 0.05300
H 	H 	0.39100 0.88940 0.82240 0.03400
C 	C 	0.34270 0.84360 0.79380 -0.11300
H 	H 	0.33030 0.83260 0.82340 0.07500
O 	O 	0.54980 0.95047 0.20932 -0.39600
C 	C 	0.62160 0.87800 0.20700 0.05300
H 	H 	0.60900 0.88940 0.17760 0.02800
C 	C 	0.65730 0.84360 0.20620 -0.11500
H 	H 	0.66970 0.83260 0.17660 0.07100
O 	O 	0.54980 0.04953 0.79068 -0.41400
C 	C 	0.62160 0.12200 0.79300 0.05800
H 	H 	0.60900 0.11060 0.82240 0.02600
C 	C 	0.65730 0.15640 0.79380 -0.12100
H 	H 	0.66970 0.16740 0.82340 0.07500
O 	O 	0.20932 0.45020 0.04953 -0.41900
C 	C 	0.20700 0.37840 0.12200 0.05800
H 	H 	0.17760 0.39100 0.11060 0.01900
C 	C 	0.20620 0.34270 0.15640 -0.12500
H 	H 	0.17660 0.33030 0.16740 0.06800
O 	O 	0.79068 0.45020 0.95047 -0.39100
C 	C 	0.79300 0.37840 0.87800 0.05300
H 	H 	0.82240 0.39100 0.88940 0.03400
C 	C 	0.79380 0.34270 0.84360 -0.11300
H 	H 	0.82340 0.33030 0.83260 0.07500
O 	O 	0.20932 0.54980 0.95047 -0.39600
C 	C 	0.20700 0.62160 0.87800 0.05300
H 	H 	0.17760 0.60900 0.88940 0.02800
C 	C 	0.20620 0.65730 0.84360 -0.11500
H 	H 	0.17660 0.66970 0.83260 0.07100
O 	O 	0.79068 0.54980 0.04953 -0.41400
C 	C 	0.79300 0.62160 0.12200 0.05800
H 	H 	0.82240 0.60900 0.11060 0.02600
C 	C 	0.79380 0.65730 0.15640 -0.12100
H 	H 	0.82340 0.66970 0.16740 0.07500
O 	O 	0.70932 0.54953 0.04980 -0.41600
C 	C 	0.70700 0.62200 0.12160 0.05800
H 	H 	0.67760 0.61060 0.10900 0.02300
C 	C 	0.70620 0.65640 0.15730 -0.12100
H 	H 	0.67660 0.66740 0.16970 0.07200
O 	O 	0.29068 0.45047 0.04980 -0.41700
C 	C 	0.29300 0.37800 0.12160 0.05800
H 	H 	0.32240 0.38940 0.10900 0.02100
C 	C 	0.29380 0.34360 0.15730 -0.12400
H 	H 	0.32340 0.33260 0.16970 0.07200
O 	O 	0.70932 0.45047 0.95020 -0.39300
C 	C 	0.70700 0.37800 0.87840 0.05200
H 	H 	0.67760 0.38940 0.89100 0.03100
C 	C 	0.70620 0.34360 0.84270 -0.11300
H 	H 	0.67660 0.33260 0.83030 0.07200
O 	O 	0.29068 0.54953 0.95020 -0.39400
C 	C 	0.29300 0.62200 0.87840 0.05300
H 	H 	0.32240 0.61060 0.89100 0.03100
C 	C 	0.29380 0.65640 0.84270 -0.11500
H 	H 	0.32340 0.66740 0.83030 0.07300
O 	O 	0.54953 0.95020 0.29068 -0.39400
C 	C 	0.62200 0.87840 0.29300 0.05300
H 	H 	0.61060 0.89100 0.32240 0.03100
C 	C 	0.65640 0.84270 0.29380 -0.11500
H 	H 	0.66740 0.83030 0.32340 0.07300
O 	O 	0.45047 0.95020 0.70932 -0.39300
C 	C 	0.37800 0.87840 0.70700 0.05200
H 	H 	0.38940 0.89100 0.67760 0.03100
C 	C 	0.34360 0.84270 0.70620 -0.11300
H 	H 	0.33260 0.83030 0.67660 0.07200
O 	O 	0.45047 0.04980 0.29068 -0.41700
C 	C 	0.37800 0.12160 0.29300 0.05800
H 	H 	0.38940 0.10900 0.32240 0.02100
C 	C 	0.34360 0.15730 0.29380 -0.12400
H 	H 	0.33260 0.16970 0.32340 0.07200
O 	O 	0.54953 0.04980 0.70932 -0.41600
C 	C 	0.62200 0.12160 0.70700 0.05800
H 	H 	0.61060 0.10900 0.67760 0.02300
C 	C 	0.65640 0.15730 0.70620 -0.12100
H 	H 	0.66740 0.16970 0.67660 0.07200
O 	O 	0.95020 0.70932 0.45047 -0.39300
C 	C 	0.87840 0.70700 0.37800 0.05200
H 	H 	0.89100 0.67760 0.38940 0.03100
C 	C 	0.84270 0.70620 0.34360 -0.11300
H 	H 	0.83030 0.67660 0.33260 0.07200
O 	O 	0.95020 0.29068 0.54953 -0.39400
C 	C 	0.87840 0.29300 0.62200 0.05300
H 	H 	0.89100 0.32240 0.61060 0.03100
C 	C 	0.84270 0.29380 0.65640 -0.11500
H 	H 	0.83030 0.32340 0.66740 0.07300
O 	O 	0.04980 0.70932 0.54953 -0.41600
C 	C 	0.12160 0.70700 0.62200 0.05800
H 	H 	0.10900 0.67760 0.61060 0.02300
C 	C 	0.15730 0.70620 0.65640 -0.12100
H 	H 	0.16970 0.67660 0.66740 0.07200
O 	O 	0.04980 0.29068 0.45047 -0.41700
C 	C 	0.12160 0.29300 0.37800 0.05800
H 	H 	0.10900 0.32240 0.38940 0.02100
C 	C 	0.15730 0.29380 0.34360 -0.12400
H 	H 	0.16970 0.32340 0.33260 0.07200
Cu	Cu	0.00000 0.79822 0.50000 0.89900
Cu	Cu	0.00000 0.20178 0.50000 0.89600
Cu	Cu	0.50000 0.00000 0.79822 0.89900
Cu	Cu	0.50000 0.00000 0.20178 0.89600
Cu	Cu	0.79822 0.50000 -0.00000 0.89900
Cu	Cu	0.20178 0.50000 -0.00000 0.89600
Cu	Cu	0.29822 0.50000 -0.00000 0.89800
Cu	Cu	0.70178 0.50000 -0.00000 0.89700
Cu	Cu	0.50000 0.00000 0.70178 0.89700
Cu	Cu	0.50000 0.00000 0.29822 0.89800
Cu	Cu	0.00000 0.29822 0.50000 0.89800
Cu	Cu	0.00000 0.70178 0.50000 0.89700
C 	C 	0.89650 0.75000 0.60350 -0.11800
C 	C 	0.93475 0.75000 0.56525 0.36300
C 	C 	0.78482 0.75000 0.71518 0.06700
C 	C 	0.82460 0.75000 0.67540 0.04400
C 	C 	0.10350 0.25000 0.60350 -0.13400
C 	C 	0.06525 0.25000 0.56525 0.36800
C 	C 	0.21518 0.25000 0.71518 0.05800
C 	C 	0.17540 0.25000 0.67540 0.04600
C 	C 	0.10350 0.75000 0.39650 -0.13200
C 	C 	0.06525 0.75000 0.43475 0.36700
C 	C 	0.21518 0.75000 0.28482 0.05800
C 	C 	0.17540 0.75000 0.32460 0.04600
C 	C 	0.89650 0.25000 0.39650 -0.12200
C 	C 	0.93475 0.25000 0.43475 0.36400
C 	C 	0.78482 0.25000 0.28482 0.06000
C 	C 	0.82460 0.25000 0.32460 0.04300
C 	C 	0.60350 0.89650 0.75000 -0.11800
C 	C 	0.56525 0.93475 0.75000 0.36300
C 	C 	0.71518 0.78482 0.75000 0.06700
C 	C 	0.67540 0.82460 0.75000 0.04400
C 	C 	0.60350 0.10350 0.25000 -0.13400
C 	C 	0.56525 0.06525 0.25000 0.36800
C 	C 	0.71518 0.21518 0.25000 0.05800
C 	C 	0.67540 0.17540 0.25000 0.04600
C 	C 	0.39650 0.10350 0.75000 -0.13200
C 	C 	0.43475 0.06525 0.75000 0.36700
C 	C 	0.28482 0.21518 0.75000 0.05800
C 	C 	0.32460 0.17540 0.75000 0.04600
C 	C 	0.39650 0.89650 0.25000 -0.12200
C 	C 	0.43475 0.93475 0.25000 0.36400
C 	C 	0.28482 0.78482 0.25000 0.06000
C 	C 	0.32460 0.82460 0.25000 0.04300
C 	C 	0.75000 0.60350 0.89650 -0.11800
C 	C 	0.75000 0.56525 0.93475 0.36300
C 	C 	0.75000 0.71518 0.78482 0.06700
C 	C 	0.75000 0.67540 0.82460 0.04400
C 	C 	0.25000 0.60350 0.10350 -0.13400
C 	C 	0.25000 0.56525 0.06525 0.36800
C 	C 	0.25000 0.71518 0.21518 0.05800
C 	C 	0.25000 0.67540 0.17540 0.04600
C 	C 	0.75000 0.39650 0.10350 -0.13200
C 	C 	0.75000 0.43475 0.06525 0.36700
C 	C 	0.75000 0.28482 0.21518 0.05800
C 	C 	0.75000 0.32460 0.17540 0.04600
C 	C 	0.25000 0.39650 0.89650 -0.12200
C 	C 	0.25000 0.43475 0.93475 0.36400
C 	C 	0.25000 0.28482 0.78482 0.06000
C 	C 	0.25000 0.32460 0.82460 0.04300
C 	C 	0.10350 0.25000 0.39650 -0.13500
C 	C 	0.06525 0.25000 0.43475 0.36800
C 	C 	0.21518 0.25000 0.28482 0.05500
C 	C 	0.17540 0.25000 0.32460 0.04600
C 	C 	0.89650 0.75000 0.39650 -0.11900
C 	C 	0.93475 0.75000 0.43475 0.36300
C 	C 	0.78482 0.75000 0.28482 0.06400
C 	C 	0.82460 0.75000 0.32460 0.04300
C 	C 	0.89650 0.25000 0.60350 -0.12100
C 	C 	0.93475 0.25000 0.56525 0.36400
C 	C 	0.78482 0.25000 0.71518 0.06300
C 	C 	0.82460 0.25000 0.67540 0.04400
C 	C 	0.10350 0.75000 0.60350 -0.13100
C 	C 	0.06525 0.75000 0.56525 0.36700
C 	C 	0.21518 0.75000 0.71518 0.06100
C 	C 	0.17540 0.75000 0.67540 0.04600
C 	C 	0.39650 0.10350 0.25000 -0.13500
C 	C 	0.43475 0.06525 0.25000 0.36800
C 	C 	0.28482 0.21518 0.25000 0.05500
C 	C 	0.32460 0.17540 0.25000 0.04600
C 	C 	0.39650 0.89650 0.75000 -0.11900
C 	C 	0.43475 0.93475 0.75000 0.36300
C 	C 	0.28482 0.78482 0.75000 0.06400
C 	C 	0.32460 0.82460 0.75000 0.04300
C 	C 	0.60350 0.89650 0.25000 -0.12100
C 	C 	0.56525 0.93475 0.25000 0.36400
C 	C 	0.71518 0.78482 0.25000 0.06300
C 	C 	0.67540 0.82460 0.25000 0.04400
C 	C 	0.60350 0.10350 0.75000 -0.13100
C 	C 	0.56525 0.06525 0.75000 0.36700
C 	C 	0.71518 0.21518 0.75000 0.06100
C 	C 	0.67540 0.17540 0.75000 0.04600
C 	C 	0.25000 0.39650 0.10350 -0.13500
C 	C 	0.25000 0.43475 0.06525 0.36800
C 	C 	0.25000 0.28482 0.21518 0.05500
C 	C 	0.25000 0.32460 0.17540 0.04600
C 	C 	0.75000 0.39650 0.89650 -0.11900
C 	C 	0.75000 0.43475 0.93475 0.36300
C 	C 	0.75000 0.28482 0.78482 0.06400
C 	C 	0.75000 0.32460 0.82460 0.04300
C 	C 	0.25000 0.60350 0.89650 -0.12100
C 	C 	0.25000 0.56525 0.93475 0.36400
C 	C 	0.25000 0.71518 0.78482 0.06300
C 	C 	0.25000 0.67540 0.82460 0.04400
C 	C 	0.75000 0.60350 0.10350 -0.13100
C 	C 	0.75000 0.56525 0.06525 0.36700
C 	C 	0.75000 0.71518 0.21518 0.06100
C 	C 	0.75000 0.67540 0.17540 0.04600
C 	C 	0.75000 0.78610 0.71390 -0.13500
H 	H 	0.75000 0.81010 0.68990 0.08100
C 	C 	0.25000 0.21390 0.71390 -0.13100
H 	H 	0.25000 0.18990 0.68990 0.07400
C 	C 	0.25000 0.78610 0.28610 -0.13200
H 	H 	0.25000 0.81010 0.31010 0.07700
C 	C 	0.75000 0.21390 0.28610 -0.13100
H 	H 	0.75000 0.18990 0.31010 0.07500
C 	C 	0.71390 0.75000 0.78610 -0.13500
H 	H 	0.68990 0.75000 0.81010 0.08100
C 	C 	0.71390 0.25000 0.21390 -0.13100
H 	H 	0.68990 0.25000 0.18990 0.07400
C 	C 	0.28610 0.25000 0.78610 -0.13200
H 	H 	0.31010 0.25000 0.81010 0.07700
C 	C 	0.28610 0.75000 0.21390 -0.13100
H 	H 	0.31010 0.75000 0.18990 0.07500
C 	C 	0.78610 0.71390 0.75000 -0.13500
H 	H 	0.81010 0.68990 0.75000 0.08100
C 	C 	0.21390 0.71390 0.25000 -0.13100
H 	H 	0.18990 0.68990 0.25000 0.07400
C 	C 	0.78610 0.28610 0.25000 -0.13200
H 	H 	0.81010 0.31010 0.25000 0.07700
C 	C 	0.21390 0.28610 0.75000 -0.13100
H 	H 	0.18990 0.31010 0.75000 0.07500
C 	C 	0.25000 0.21390 0.28610 -0.12900
H 	H 	0.25000 0.18990 0.31010 0.07300
C 	C 	0.75000 0.78610 0.28610 -0.13400
H 	H 	0.75000 0.81010 0.31010 0.08000
C 	C 	0.75000 0.21390 0.71390 -0.13300
H 	H 	0.75000 0.18990 0.68990 0.07600
C 	C 	0.25000 0.78610 0.71390 -0.13300
H 	H 	0.25000 0.81010 0.68990 0.07900
C 	C 	0.28610 0.25000 0.21390 -0.12900
H 	H 	0.31010 0.25000 0.18990 0.07300
C 	C 	0.28610 0.75000 0.78610 -0.13400
H 	H 	0.31010 0.75000 0.81010 0.08000
C 	C 	0.71390 0.75000 0.21390 -0.13300
H 	H 	0.68990 0.75000 0.18990 0.07600
C 	C 	0.71390 0.25000 0.78610 -0.13300
H 	H 	0.68990 0.25000 0.81010 0.07900
C 	C 	0.21390 0.28610 0.25000 -0.12900
H 	H 	0.18990 0.31010 0.25000 0.07300
C 	C 	0.78610 0.28610 0.75000 -0.13400
H 	H 	0.81010 0.31010 0.75000 0.08000
C 	C 	0.21390 0.71390 0.75000 -0.13300
H 	H 	0.18990 0.68990 0.75000 0.07600
C 	C 	0.78610 0.71390 0.25000 -0.13300
H 	H 	0.81010 0.68990 0.25000 0.07900
