data_crystal

_cell_length_a 48.30330
_cell_length_b 48.30330
_cell_length_c 48.30330
_cell_angle_alpha 60.00000
_cell_angle_beta  60.00000
_cell_angle_gamma 60.00000

_symmetry_space_group_name_	'P 1'
_symmetry_space_group_name_H-M	'P 1'

loop_
_symmetry_equiv_pos_as_xyz
  x,y,z

loop_
_atom_site_label
_atom_site_type_symbol
_atom_site_fract_x
_atom_site_fract_y
_atom_site_fract_z
_atom_site_charge
Cu	Cu	0.50000 0.02728 0.97272 0.91800
Cu	Cu	0.02728 0.50000 0.50000 0.91800
Cu	Cu	0.97272 0.50000 0.50000 0.91800
Cu	Cu	0.50000 0.97272 0.02728 0.91800
Cu	Cu	0.50000 0.97272 0.50000 0.91800
Cu	Cu	0.02728 0.50000 0.97272 0.91800
Cu	Cu	0.97272 0.50000 0.02728 0.91800
Cu	Cu	0.50000 0.02728 0.50000 0.91800
Cu	Cu	0.50000 0.50000 0.02728 0.91800
Cu	Cu	0.02728 0.97272 0.50000 0.91800
Cu	Cu	0.97272 0.02728 0.50000 0.91800
Cu	Cu	0.50000 0.50000 0.97272 0.91800
H 	H 	0.52450 0.16270 0.07810 0.04600
H 	H 	0.52040 0.13580 0.05120 0.04900
H 	H 	0.52310 0.11230 0.02730 0.06200
H 	H 	0.51490 0.08690 0.00190 0.04400
H 	H 	0.16270 0.52450 0.23470 0.04600
H 	H 	0.13580 0.52040 0.29260 0.04900
H 	H 	0.11230 0.52310 0.33730 0.06200
H 	H 	0.08690 0.51490 0.39630 0.04400
H 	H 	0.07810 0.23470 0.52450 0.04600
H 	H 	0.05120 0.29260 0.52040 0.04900
H 	H 	0.02730 0.33730 0.52310 0.06200
H 	H 	0.00190 0.39630 0.51490 0.04400
H 	H 	0.23470 0.07810 0.16270 0.04600
H 	H 	0.29260 0.05120 0.13580 0.04900
H 	H 	0.33730 0.02730 0.11230 0.06200
H 	H 	0.39630 0.00190 0.08690 0.04400
H 	H 	0.52450 0.07810 0.23470 0.04600
H 	H 	0.52040 0.05120 0.29260 0.04900
H 	H 	0.52310 0.02730 0.33730 0.06200
H 	H 	0.51490 0.00190 0.39630 0.04400
H 	H 	0.16270 0.23470 0.07810 0.04600
H 	H 	0.13580 0.29260 0.05120 0.04900
H 	H 	0.11230 0.33730 0.02730 0.06200
H 	H 	0.08690 0.39630 0.00190 0.04400
H 	H 	0.07810 0.52450 0.16270 0.04600
H 	H 	0.05120 0.52040 0.13580 0.04900
H 	H 	0.02730 0.52310 0.11230 0.06200
H 	H 	0.00190 0.51490 0.08690 0.04400
H 	H 	0.23470 0.16270 0.52450 0.04600
H 	H 	0.29260 0.13580 0.52040 0.04900
H 	H 	0.33730 0.11230 0.52310 0.06200
H 	H 	0.39630 0.08690 0.51490 0.04400
H 	H 	0.52450 0.23470 0.16270 0.04600
H 	H 	0.52040 0.29260 0.13580 0.04900
H 	H 	0.52310 0.33730 0.11230 0.06200
H 	H 	0.51490 0.39630 0.08690 0.04400
H 	H 	0.16270 0.07810 0.52450 0.04600
H 	H 	0.13580 0.05120 0.52040 0.04900
H 	H 	0.11230 0.02730 0.52310 0.06200
H 	H 	0.08690 0.00190 0.51490 0.04400
H 	H 	0.07810 0.16270 0.23470 0.04600
H 	H 	0.05120 0.13580 0.29260 0.04900
H 	H 	0.02730 0.11230 0.33730 0.06200
H 	H 	0.00190 0.08690 0.39630 0.04400
H 	H 	0.23470 0.52450 0.07810 0.04600
H 	H 	0.29260 0.52040 0.05120 0.04900
H 	H 	0.33730 0.52310 0.02730 0.06200
H 	H 	0.39630 0.51490 0.00190 0.04400
H 	H 	0.83730 0.47550 0.92190 0.04600
H 	H 	0.86420 0.47960 0.94880 0.04900
H 	H 	0.88770 0.47690 0.97270 0.06200
H 	H 	0.91310 0.48510 0.99810 0.04400
H 	H 	0.47550 0.83730 0.76530 0.04600
H 	H 	0.47960 0.86420 0.70740 0.04900
H 	H 	0.47690 0.88770 0.66270 0.06200
H 	H 	0.48510 0.91310 0.60370 0.04400
H 	H 	0.76530 0.92190 0.47550 0.04600
H 	H 	0.70740 0.94880 0.47960 0.04900
H 	H 	0.66270 0.97270 0.47690 0.06200
H 	H 	0.60370 0.99810 0.48510 0.04400
H 	H 	0.92190 0.76530 0.83730 0.04600
H 	H 	0.94880 0.70740 0.86420 0.04900
H 	H 	0.97270 0.66270 0.88770 0.06200
H 	H 	0.99810 0.60370 0.91310 0.04400
H 	H 	0.92190 0.47550 0.76530 0.04600
H 	H 	0.94880 0.47960 0.70740 0.04900
H 	H 	0.97270 0.47690 0.66270 0.06200
H 	H 	0.99810 0.48510 0.60370 0.04400
H 	H 	0.76530 0.83730 0.92190 0.04600
H 	H 	0.70740 0.86420 0.94880 0.04900
H 	H 	0.66270 0.88770 0.97270 0.06200
H 	H 	0.60370 0.91310 0.99810 0.04400
H 	H 	0.47550 0.92190 0.83730 0.04500
H 	H 	0.47960 0.94880 0.86420 0.04800
H 	H 	0.47690 0.97270 0.88770 0.06100
H 	H 	0.48510 0.99810 0.91310 0.04300
H 	H 	0.83730 0.76530 0.47550 0.04500
H 	H 	0.86420 0.70740 0.47960 0.04800
H 	H 	0.88770 0.66270 0.47690 0.06100
H 	H 	0.91310 0.60370 0.48510 0.04300
H 	H 	0.76530 0.47550 0.83730 0.04500
H 	H 	0.70740 0.47960 0.86420 0.04800
H 	H 	0.66270 0.47690 0.88770 0.06100
H 	H 	0.60370 0.48510 0.91310 0.04300
H 	H 	0.92190 0.83730 0.47550 0.04500
H 	H 	0.94880 0.86420 0.47960 0.04800
H 	H 	0.97270 0.88770 0.47690 0.06100
H 	H 	0.99810 0.91310 0.48510 0.04300
H 	H 	0.83730 0.92190 0.76530 0.04500
H 	H 	0.86420 0.94880 0.70740 0.04800
H 	H 	0.88770 0.97270 0.66270 0.06100
H 	H 	0.91310 0.99810 0.60370 0.04300
H 	H 	0.47550 0.76530 0.92190 0.04500
H 	H 	0.47960 0.70740 0.94880 0.04800
H 	H 	0.47690 0.66270 0.97270 0.06100
H 	H 	0.48510 0.60370 0.99810 0.04300
H 	H 	0.47550 0.83730 0.92190 0.04500
H 	H 	0.47960 0.86420 0.94880 0.04800
H 	H 	0.47690 0.88770 0.97270 0.06100
H 	H 	0.48510 0.91310 0.99810 0.04300
H 	H 	0.83730 0.47550 0.76530 0.04500
H 	H 	0.86420 0.47960 0.70740 0.04800
H 	H 	0.88770 0.47690 0.66270 0.06100
H 	H 	0.91310 0.48510 0.60370 0.04300
H 	H 	0.92190 0.76530 0.47550 0.04500
H 	H 	0.94880 0.70740 0.47960 0.04800
H 	H 	0.97270 0.66270 0.47690 0.06100
H 	H 	0.99810 0.60370 0.48510 0.04300
H 	H 	0.76530 0.92190 0.83730 0.04500
H 	H 	0.70740 0.94880 0.86420 0.04800
H 	H 	0.66270 0.97270 0.88770 0.06100
H 	H 	0.60370 0.99810 0.91310 0.04300
H 	H 	0.47550 0.92190 0.76530 0.04500
H 	H 	0.47960 0.94880 0.70740 0.04800
H 	H 	0.47690 0.97270 0.66270 0.06100
H 	H 	0.48510 0.99810 0.60370 0.04300
H 	H 	0.83730 0.76530 0.92190 0.04500
H 	H 	0.86420 0.70740 0.94880 0.04800
H 	H 	0.88770 0.66270 0.97270 0.06100
H 	H 	0.91310 0.60370 0.99810 0.04300
H 	H 	0.92190 0.47550 0.83730 0.04500
H 	H 	0.94880 0.47960 0.86420 0.04800
H 	H 	0.97270 0.47690 0.88770 0.06100
H 	H 	0.99810 0.48510 0.91310 0.04300
H 	H 	0.76530 0.83730 0.47550 0.04500
H 	H 	0.70740 0.86420 0.47960 0.04800
H 	H 	0.66270 0.88770 0.47690 0.06100
H 	H 	0.60370 0.91310 0.48510 0.04300
H 	H 	0.47550 0.76530 0.83730 0.04500
H 	H 	0.47960 0.70740 0.86420 0.04800
H 	H 	0.47690 0.66270 0.88770 0.06100
H 	H 	0.48510 0.60370 0.91310 0.04300
H 	H 	0.83730 0.92190 0.47550 0.04500
H 	H 	0.86420 0.94880 0.47960 0.04800
H 	H 	0.88770 0.97270 0.47690 0.06100
H 	H 	0.91310 0.99810 0.48510 0.04300
H 	H 	0.92190 0.83730 0.76530 0.04500
H 	H 	0.94880 0.86420 0.70740 0.04800
H 	H 	0.97270 0.88770 0.66270 0.06100
H 	H 	0.99810 0.91310 0.60370 0.04300
H 	H 	0.76530 0.47550 0.92190 0.04500
H 	H 	0.70740 0.47960 0.94880 0.04800
H 	H 	0.66270 0.47690 0.97270 0.06100
H 	H 	0.60370 0.48510 0.99810 0.04300
H 	H 	0.16270 0.52450 0.07810 0.04500
H 	H 	0.13580 0.52040 0.05120 0.04800
H 	H 	0.11230 0.52310 0.02730 0.06100
H 	H 	0.08690 0.51490 0.00190 0.04300
H 	H 	0.52450 0.16270 0.23470 0.04500
H 	H 	0.52040 0.13580 0.29260 0.04800
H 	H 	0.52310 0.11230 0.33730 0.06100
H 	H 	0.51490 0.08690 0.39630 0.04300
H 	H 	0.23470 0.07810 0.52450 0.04500
H 	H 	0.29260 0.05120 0.52040 0.04800
H 	H 	0.33730 0.02730 0.52310 0.06100
H 	H 	0.39630 0.00190 0.51490 0.04300
H 	H 	0.07810 0.23470 0.16270 0.04500
H 	H 	0.05120 0.29260 0.13580 0.04800
H 	H 	0.02730 0.33730 0.11230 0.06100
H 	H 	0.00190 0.39630 0.08690 0.04300
H 	H 	0.07810 0.52450 0.23470 0.04500
H 	H 	0.05120 0.52040 0.29260 0.04800
H 	H 	0.02730 0.52310 0.33730 0.06100
H 	H 	0.00190 0.51490 0.39630 0.04300
H 	H 	0.23470 0.16270 0.07810 0.04500
H 	H 	0.29260 0.13580 0.05120 0.04800
H 	H 	0.33730 0.11230 0.02730 0.06100
H 	H 	0.39630 0.08690 0.00190 0.04300
H 	H 	0.52450 0.07810 0.16270 0.04500
H 	H 	0.52040 0.05120 0.13580 0.04800
H 	H 	0.52310 0.02730 0.11230 0.06100
H 	H 	0.51490 0.00190 0.08690 0.04300
H 	H 	0.16270 0.23470 0.52450 0.04500
H 	H 	0.13580 0.29260 0.52040 0.04800
H 	H 	0.11230 0.33730 0.52310 0.06100
H 	H 	0.08690 0.39630 0.51490 0.04300
H 	H 	0.23470 0.52450 0.16270 0.04500
H 	H 	0.29260 0.52040 0.13580 0.04800
H 	H 	0.33730 0.52310 0.11230 0.06100
H 	H 	0.39630 0.51490 0.08690 0.04300
H 	H 	0.07810 0.16270 0.52450 0.04500
H 	H 	0.05120 0.13580 0.52040 0.04800
H 	H 	0.02730 0.11230 0.52310 0.06100
H 	H 	0.00190 0.08690 0.51490 0.04300
H 	H 	0.16270 0.07810 0.23470 0.04500
H 	H 	0.13580 0.05120 0.29260 0.04800
H 	H 	0.11230 0.02730 0.33730 0.06100
H 	H 	0.08690 0.00190 0.39630 0.04300
H 	H 	0.52450 0.23470 0.07810 0.04500
H 	H 	0.52040 0.29260 0.05120 0.04800
H 	H 	0.52310 0.33730 0.02730 0.06100
H 	H 	0.51490 0.39630 0.00190 0.04300
H 	H 	0.53160 0.18440 0.09960 0.06800
H 	H 	0.18440 0.53160 0.18440 0.06800
H 	H 	0.09960 0.18440 0.53160 0.06800
H 	H 	0.18440 0.09960 0.18440 0.06800
H 	H 	0.53160 0.09960 0.18440 0.06800
H 	H 	0.18440 0.18440 0.09960 0.06800
H 	H 	0.09960 0.53160 0.18440 0.06800
H 	H 	0.18440 0.18440 0.53160 0.06800
H 	H 	0.53160 0.18440 0.18440 0.06800
H 	H 	0.18440 0.09960 0.53160 0.06800
H 	H 	0.09960 0.18440 0.18440 0.06800
H 	H 	0.18440 0.53160 0.09960 0.06800
H 	H 	0.81560 0.46840 0.90040 0.06800
H 	H 	0.46840 0.81560 0.81560 0.06800
H 	H 	0.81560 0.90040 0.46840 0.06800
H 	H 	0.90040 0.81560 0.81560 0.06800
H 	H 	0.90040 0.46840 0.81560 0.06800
H 	H 	0.81560 0.81560 0.90040 0.06800
H 	H 	0.46840 0.90040 0.81560 0.06800
H 	H 	0.81560 0.81560 0.46840 0.06800
H 	H 	0.81560 0.46840 0.81560 0.06800
H 	H 	0.90040 0.81560 0.46840 0.06800
H 	H 	0.81560 0.90040 0.81560 0.06800
H 	H 	0.46840 0.81560 0.90040 0.06800
C 	C 	0.52445 0.14055 0.08897 -0.04700
C 	C 	0.52266 0.12428 0.07252 -0.05400
C 	C 	0.52188 0.09044 0.03856 -0.09000
C 	C 	0.51745 0.07497 0.02309 0.01100
C 	C 	0.14055 0.52445 0.24603 -0.04700
C 	C 	0.12428 0.52266 0.28054 -0.05400
C 	C 	0.09044 0.52188 0.34912 -0.09000
C 	C 	0.07497 0.51745 0.38449 0.01100
C 	C 	0.08897 0.24603 0.52445 -0.04700
C 	C 	0.07252 0.28054 0.52266 -0.05400
C 	C 	0.03856 0.34912 0.52188 -0.09000
C 	C 	0.02309 0.38449 0.51745 0.01100
C 	C 	0.24603 0.08897 0.14055 -0.04700
C 	C 	0.28054 0.07252 0.12428 -0.05400
C 	C 	0.34912 0.03856 0.09044 -0.09000
C 	C 	0.38449 0.02309 0.07497 0.01100
C 	C 	0.52445 0.08897 0.24603 -0.04700
C 	C 	0.52266 0.07252 0.28054 -0.05400
C 	C 	0.52188 0.03856 0.34912 -0.09000
C 	C 	0.51745 0.02309 0.38449 0.01100
C 	C 	0.14055 0.24603 0.08897 -0.04700
C 	C 	0.12428 0.28054 0.07252 -0.05400
C 	C 	0.09044 0.34912 0.03856 -0.09000
C 	C 	0.07497 0.38449 0.02309 0.01100
C 	C 	0.08897 0.52445 0.14055 -0.04700
C 	C 	0.07252 0.52266 0.12428 -0.05400
C 	C 	0.03856 0.52188 0.09044 -0.09000
C 	C 	0.02309 0.51745 0.07497 0.01100
C 	C 	0.24603 0.14055 0.52445 -0.04700
C 	C 	0.28054 0.12428 0.52266 -0.05400
C 	C 	0.34912 0.09044 0.52188 -0.09000
C 	C 	0.38449 0.07497 0.51745 0.01100
C 	C 	0.52445 0.24603 0.14055 -0.04700
C 	C 	0.52266 0.28054 0.12428 -0.05400
C 	C 	0.52188 0.34912 0.09044 -0.09000
C 	C 	0.51745 0.38449 0.07497 0.01100
C 	C 	0.14055 0.08897 0.52445 -0.04700
C 	C 	0.12428 0.07252 0.52266 -0.05400
C 	C 	0.09044 0.03856 0.52188 -0.09000
C 	C 	0.07497 0.02309 0.51745 0.01100
C 	C 	0.08897 0.14055 0.24603 -0.04700
C 	C 	0.07252 0.12428 0.28054 -0.05400
C 	C 	0.03856 0.09044 0.34912 -0.09000
C 	C 	0.02309 0.07497 0.38449 0.01100
C 	C 	0.24603 0.52445 0.08897 -0.04700
C 	C 	0.28054 0.52266 0.07252 -0.05400
C 	C 	0.34912 0.52188 0.03856 -0.09000
C 	C 	0.38449 0.51745 0.02309 0.01100
C 	C 	0.85945 0.47555 0.91103 -0.04700
C 	C 	0.87572 0.47734 0.92748 -0.05400
C 	C 	0.90956 0.47812 0.96144 -0.09000
C 	C 	0.92503 0.48255 0.97691 0.01100
C 	C 	0.47555 0.85945 0.75397 -0.04700
C 	C 	0.47734 0.87572 0.71946 -0.05400
C 	C 	0.47812 0.90956 0.65088 -0.09000
C 	C 	0.48255 0.92503 0.61551 0.01100
C 	C 	0.75397 0.91103 0.47555 -0.04700
C 	C 	0.71946 0.92748 0.47734 -0.05400
C 	C 	0.65088 0.96144 0.47812 -0.09000
C 	C 	0.61551 0.97691 0.48255 0.01100
C 	C 	0.91103 0.75397 0.85945 -0.04700
C 	C 	0.92748 0.71946 0.87572 -0.05400
C 	C 	0.96144 0.65088 0.90956 -0.09000
C 	C 	0.97691 0.61551 0.92503 0.01100
C 	C 	0.91103 0.47555 0.75397 -0.04700
C 	C 	0.92748 0.47734 0.71946 -0.05400
C 	C 	0.96144 0.47812 0.65088 -0.09000
C 	C 	0.97691 0.48255 0.61551 0.01100
C 	C 	0.75397 0.85945 0.91103 -0.04700
C 	C 	0.71946 0.87572 0.92748 -0.05400
C 	C 	0.65088 0.90956 0.96144 -0.09000
C 	C 	0.61551 0.92503 0.97691 0.01100
C 	C 	0.47555 0.91103 0.85945 -0.04700
C 	C 	0.47734 0.92748 0.87572 -0.05400
C 	C 	0.47812 0.96144 0.90956 -0.09000
C 	C 	0.48255 0.97691 0.92503 0.01100
C 	C 	0.85945 0.75397 0.47555 -0.04700
C 	C 	0.87572 0.71946 0.47734 -0.05400
C 	C 	0.90956 0.65088 0.47812 -0.09000
C 	C 	0.92503 0.61551 0.48255 0.01100
C 	C 	0.75397 0.47555 0.85945 -0.04700
C 	C 	0.71946 0.47734 0.87572 -0.05400
C 	C 	0.65088 0.47812 0.90956 -0.09000
C 	C 	0.61551 0.48255 0.92503 0.01100
C 	C 	0.91103 0.85945 0.47555 -0.04700
C 	C 	0.92748 0.87572 0.47734 -0.05400
C 	C 	0.96144 0.90956 0.47812 -0.09000
C 	C 	0.97691 0.92503 0.48255 0.01100
C 	C 	0.85945 0.91103 0.75397 -0.04700
C 	C 	0.87572 0.92748 0.71946 -0.05400
C 	C 	0.90956 0.96144 0.65088 -0.09000
C 	C 	0.92503 0.97691 0.61551 0.01100
C 	C 	0.47555 0.75397 0.91103 -0.04700
C 	C 	0.47734 0.71946 0.92748 -0.05400
C 	C 	0.47812 0.65088 0.96144 -0.09000
C 	C 	0.48255 0.61551 0.97691 0.01100
C 	C 	0.47555 0.85945 0.91103 -0.04700
C 	C 	0.47734 0.87572 0.92748 -0.05400
C 	C 	0.47812 0.90956 0.96144 -0.09000
C 	C 	0.48255 0.92503 0.97691 0.01100
C 	C 	0.85945 0.47555 0.75397 -0.04700
C 	C 	0.87572 0.47734 0.71946 -0.05400
C 	C 	0.90956 0.47812 0.65088 -0.09000
C 	C 	0.92503 0.48255 0.61551 0.01100
C 	C 	0.91103 0.75397 0.47555 -0.04700
C 	C 	0.92748 0.71946 0.47734 -0.05400
C 	C 	0.96144 0.65088 0.47812 -0.09000
C 	C 	0.97691 0.61551 0.48255 0.01100
C 	C 	0.75397 0.91103 0.85945 -0.04700
C 	C 	0.71946 0.92748 0.87572 -0.05400
C 	C 	0.65088 0.96144 0.90956 -0.09000
C 	C 	0.61551 0.97691 0.92503 0.01100
C 	C 	0.47555 0.91103 0.75397 -0.04700
C 	C 	0.47734 0.92748 0.71946 -0.05400
C 	C 	0.47812 0.96144 0.65088 -0.09000
C 	C 	0.48255 0.97691 0.61551 0.01100
C 	C 	0.85945 0.75397 0.91103 -0.04700
C 	C 	0.87572 0.71946 0.92748 -0.05400
C 	C 	0.90956 0.65088 0.96144 -0.09000
C 	C 	0.92503 0.61551 0.97691 0.01100
C 	C 	0.91103 0.47555 0.85945 -0.04700
C 	C 	0.92748 0.47734 0.87572 -0.05400
C 	C 	0.96144 0.47812 0.90956 -0.09000
C 	C 	0.97691 0.48255 0.92503 0.01100
C 	C 	0.75397 0.85945 0.47555 -0.04700
C 	C 	0.71946 0.87572 0.47734 -0.05400
C 	C 	0.65088 0.90956 0.47812 -0.09000
C 	C 	0.61551 0.92503 0.48255 0.01100
C 	C 	0.47555 0.75397 0.85945 -0.04700
C 	C 	0.47734 0.71946 0.87572 -0.05400
C 	C 	0.47812 0.65088 0.90956 -0.09000
C 	C 	0.48255 0.61551 0.92503 0.01100
C 	C 	0.85945 0.91103 0.47555 -0.04700
C 	C 	0.87572 0.92748 0.47734 -0.05400
C 	C 	0.90956 0.96144 0.47812 -0.09000
C 	C 	0.92503 0.97691 0.48255 0.01100
C 	C 	0.91103 0.85945 0.75397 -0.04700
C 	C 	0.92748 0.87572 0.71946 -0.05400
C 	C 	0.96144 0.90956 0.65088 -0.09000
C 	C 	0.97691 0.92503 0.61551 0.01100
C 	C 	0.75397 0.47555 0.91103 -0.04700
C 	C 	0.71946 0.47734 0.92748 -0.05400
C 	C 	0.65088 0.47812 0.96144 -0.09000
C 	C 	0.61551 0.48255 0.97691 0.01100
C 	C 	0.14055 0.52445 0.08897 -0.04700
C 	C 	0.12428 0.52266 0.07252 -0.05400
C 	C 	0.09044 0.52188 0.03856 -0.09000
C 	C 	0.07497 0.51745 0.02309 0.01100
C 	C 	0.52445 0.14055 0.24603 -0.04700
C 	C 	0.52266 0.12428 0.28054 -0.05400
C 	C 	0.52188 0.09044 0.34912 -0.09000
C 	C 	0.51745 0.07497 0.38449 0.01100
C 	C 	0.24603 0.08897 0.52445 -0.04700
C 	C 	0.28054 0.07252 0.52266 -0.05400
C 	C 	0.34912 0.03856 0.52188 -0.09000
C 	C 	0.38449 0.02309 0.51745 0.01100
C 	C 	0.08897 0.24603 0.14055 -0.04700
C 	C 	0.07252 0.28054 0.12428 -0.05400
C 	C 	0.03856 0.34912 0.09044 -0.09000
C 	C 	0.02309 0.38449 0.07497 0.01100
C 	C 	0.08897 0.52445 0.24603 -0.04700
C 	C 	0.07252 0.52266 0.28054 -0.05400
C 	C 	0.03856 0.52188 0.34912 -0.09000
C 	C 	0.02309 0.51745 0.38449 0.01100
C 	C 	0.24603 0.14055 0.08897 -0.04700
C 	C 	0.28054 0.12428 0.07252 -0.05400
C 	C 	0.34912 0.09044 0.03856 -0.09000
C 	C 	0.38449 0.07497 0.02309 0.01100
C 	C 	0.52445 0.08897 0.14055 -0.04700
C 	C 	0.52266 0.07252 0.12428 -0.05400
C 	C 	0.52188 0.03856 0.09044 -0.09000
C 	C 	0.51745 0.02309 0.07497 0.01100
C 	C 	0.14055 0.24603 0.52445 -0.04700
C 	C 	0.12428 0.28054 0.52266 -0.05400
C 	C 	0.09044 0.34912 0.52188 -0.09000
C 	C 	0.07497 0.38449 0.51745 0.01100
C 	C 	0.24603 0.52445 0.14055 -0.04700
C 	C 	0.28054 0.52266 0.12428 -0.05400
C 	C 	0.34912 0.52188 0.09044 -0.09000
C 	C 	0.38449 0.51745 0.07497 0.01100
C 	C 	0.08897 0.14055 0.52445 -0.04700
C 	C 	0.07252 0.12428 0.52266 -0.05400
C 	C 	0.03856 0.09044 0.52188 -0.09000
C 	C 	0.02309 0.07497 0.51745 0.01100
C 	C 	0.14055 0.08897 0.24603 -0.04700
C 	C 	0.12428 0.07252 0.28054 -0.05400
C 	C 	0.09044 0.03856 0.34912 -0.09000
C 	C 	0.07497 0.02309 0.38449 0.01100
C 	C 	0.52445 0.24603 0.08897 -0.04700
C 	C 	0.52266 0.28054 0.07252 -0.05400
C 	C 	0.52188 0.34912 0.03856 -0.09000
C 	C 	0.51745 0.38449 0.02309 0.01100
C 	C 	0.53179 0.17323 0.12175 -0.11300
C 	C 	0.17323 0.53179 0.17323 -0.11300
C 	C 	0.12175 0.17323 0.53179 -0.11300
C 	C 	0.17323 0.12175 0.17323 -0.11300
C 	C 	0.53179 0.12175 0.17323 -0.11300
C 	C 	0.17323 0.17323 0.12175 -0.11300
C 	C 	0.12175 0.53179 0.17323 -0.11300
C 	C 	0.17323 0.17323 0.53179 -0.11300
C 	C 	0.53179 0.17323 0.17323 -0.11300
C 	C 	0.17323 0.12175 0.53179 -0.11300
C 	C 	0.12175 0.17323 0.17323 -0.11300
C 	C 	0.17323 0.53179 0.12175 -0.11300
C 	C 	0.82677 0.46821 0.87825 -0.11300
C 	C 	0.46821 0.82677 0.82677 -0.11300
C 	C 	0.82677 0.87825 0.46821 -0.11300
C 	C 	0.87825 0.82677 0.82677 -0.11300
C 	C 	0.87825 0.46821 0.82677 -0.11300
C 	C 	0.82677 0.82677 0.87825 -0.11300
C 	C 	0.46821 0.87825 0.82677 -0.11300
C 	C 	0.82677 0.82677 0.46821 -0.11300
C 	C 	0.82677 0.46821 0.82677 -0.11300
C 	C 	0.87825 0.82677 0.46821 -0.11300
C 	C 	0.82677 0.87825 0.82677 -0.11300
C 	C 	0.46821 0.82677 0.87825 -0.11300
C 	C 	0.53200 0.13880 0.13880 0.05200
C 	C 	0.52610 0.12250 0.12250 0.00100
C 	C 	0.52440 0.08970 0.08970 0.00900
C 	C 	0.52431 0.07159 0.07159 0.04100
C 	C 	0.51702 0.04080 0.04080 -0.07900
C 	C 	0.50972 0.02520 0.02520 0.36700
C 	C 	0.13880 0.53200 0.19040 0.05200
C 	C 	0.12250 0.52610 0.22890 0.00100
C 	C 	0.08970 0.52440 0.29620 0.00900
C 	C 	0.07159 0.52431 0.33251 0.04100
C 	C 	0.04080 0.51702 0.40138 -0.07900
C 	C 	0.02520 0.50972 0.43988 0.36700
C 	C 	0.13880 0.19040 0.53200 0.05200
C 	C 	0.12250 0.22890 0.52610 0.00100
C 	C 	0.08970 0.29620 0.52440 0.00900
C 	C 	0.07159 0.33251 0.52431 0.04100
C 	C 	0.04080 0.40138 0.51702 -0.07900
C 	C 	0.02520 0.43988 0.50972 0.36700
C 	C 	0.19040 0.13880 0.13880 0.05200
C 	C 	0.22890 0.12250 0.12250 0.00100
C 	C 	0.29620 0.08970 0.08970 0.00900
C 	C 	0.33251 0.07159 0.07159 0.04100
C 	C 	0.40138 0.04080 0.04080 -0.07900
C 	C 	0.43988 0.02520 0.02520 0.36700
C 	C 	0.53200 0.13880 0.19040 0.05200
C 	C 	0.52610 0.12250 0.22890 0.00100
C 	C 	0.52440 0.08970 0.29620 0.00900
C 	C 	0.52431 0.07159 0.33251 0.04100
C 	C 	0.51702 0.04080 0.40138 -0.07900
C 	C 	0.50972 0.02520 0.43988 0.36700
C 	C 	0.13880 0.19040 0.13880 0.05200
C 	C 	0.12250 0.22890 0.12250 0.00100
C 	C 	0.08970 0.29620 0.08970 0.00900
C 	C 	0.07159 0.33251 0.07159 0.04100
C 	C 	0.04080 0.40138 0.04080 -0.07900
C 	C 	0.02520 0.43988 0.02520 0.36700
C 	C 	0.13880 0.53200 0.13880 0.05200
C 	C 	0.12250 0.52610 0.12250 0.00100
C 	C 	0.08970 0.52440 0.08970 0.00900
C 	C 	0.07159 0.52431 0.07159 0.04100
C 	C 	0.04080 0.51702 0.04080 -0.07900
C 	C 	0.02520 0.50972 0.02520 0.36700
C 	C 	0.19040 0.13880 0.53200 0.05200
C 	C 	0.22890 0.12250 0.52610 0.00100
C 	C 	0.29620 0.08970 0.52440 0.00900
C 	C 	0.33251 0.07159 0.52431 0.04100
C 	C 	0.40138 0.04080 0.51702 -0.07900
C 	C 	0.43988 0.02520 0.50972 0.36700
C 	C 	0.53200 0.19040 0.13880 0.05200
C 	C 	0.52610 0.22890 0.12250 0.00100
C 	C 	0.52440 0.29620 0.08970 0.00900
C 	C 	0.52431 0.33251 0.07159 0.04100
C 	C 	0.51702 0.40138 0.04080 -0.07900
C 	C 	0.50972 0.43988 0.02520 0.36700
C 	C 	0.13880 0.13880 0.53200 0.05200
C 	C 	0.12250 0.12250 0.52610 0.00100
C 	C 	0.08970 0.08970 0.52440 0.00900
C 	C 	0.07159 0.07159 0.52431 0.04100
C 	C 	0.04080 0.04080 0.51702 -0.07900
C 	C 	0.02520 0.02520 0.50972 0.36700
C 	C 	0.13880 0.13880 0.19040 0.05200
C 	C 	0.12250 0.12250 0.22890 0.00100
C 	C 	0.08970 0.08970 0.29620 0.00900
C 	C 	0.07159 0.07159 0.33251 0.04100
C 	C 	0.04080 0.04080 0.40138 -0.07900
C 	C 	0.02520 0.02520 0.43988 0.36700
C 	C 	0.19040 0.53200 0.13880 0.05200
C 	C 	0.22890 0.52610 0.12250 0.00100
C 	C 	0.29620 0.52440 0.08970 0.00900
C 	C 	0.33251 0.52431 0.07159 0.04100
C 	C 	0.40138 0.51702 0.04080 -0.07900
C 	C 	0.43988 0.50972 0.02520 0.36700
C 	C 	0.86120 0.46800 0.86120 0.05200
C 	C 	0.87750 0.47390 0.87750 0.00100
C 	C 	0.91030 0.47560 0.91030 0.00900
C 	C 	0.92841 0.47569 0.92841 0.04100
C 	C 	0.95920 0.48298 0.95920 -0.07900
C 	C 	0.97480 0.49028 0.97480 0.36700
C 	C 	0.46800 0.86120 0.80960 0.05200
C 	C 	0.47390 0.87750 0.77110 0.00100
C 	C 	0.47560 0.91030 0.70380 0.00900
C 	C 	0.47569 0.92841 0.66749 0.04100
C 	C 	0.48298 0.95920 0.59862 -0.07900
C 	C 	0.49028 0.97480 0.56012 0.36700
C 	C 	0.80960 0.86120 0.46800 0.05200
C 	C 	0.77110 0.87750 0.47390 0.00100
C 	C 	0.70380 0.91030 0.47560 0.00900
C 	C 	0.66749 0.92841 0.47569 0.04100
C 	C 	0.59862 0.95920 0.48298 -0.07900
C 	C 	0.56012 0.97480 0.49028 0.36700
C 	C 	0.86120 0.80960 0.86120 0.05200
C 	C 	0.87750 0.77110 0.87750 0.00100
C 	C 	0.91030 0.70380 0.91030 0.00900
C 	C 	0.92841 0.66749 0.92841 0.04100
C 	C 	0.95920 0.59862 0.95920 -0.07900
C 	C 	0.97480 0.56012 0.97480 0.36700
C 	C 	0.86120 0.46800 0.80960 0.05200
C 	C 	0.87750 0.47390 0.77110 0.00100
C 	C 	0.91030 0.47560 0.70380 0.00900
C 	C 	0.92841 0.47569 0.66749 0.04100
C 	C 	0.95920 0.48298 0.59862 -0.07900
C 	C 	0.97480 0.49028 0.56012 0.36700
C 	C 	0.80960 0.86120 0.86120 0.05200
C 	C 	0.77110 0.87750 0.87750 0.00100
C 	C 	0.70380 0.91030 0.91030 0.00900
C 	C 	0.66749 0.92841 0.92841 0.04100
C 	C 	0.59862 0.95920 0.95920 -0.07900
C 	C 	0.56012 0.97480 0.97480 0.36700
C 	C 	0.46800 0.86120 0.86120 0.05200
C 	C 	0.47390 0.87750 0.87750 0.00100
C 	C 	0.47560 0.91030 0.91030 0.00900
C 	C 	0.47569 0.92841 0.92841 0.04100
C 	C 	0.48298 0.95920 0.95920 -0.07900
C 	C 	0.49028 0.97480 0.97480 0.36700
C 	C 	0.86120 0.80960 0.46800 0.05200
C 	C 	0.87750 0.77110 0.47390 0.00100
C 	C 	0.91030 0.70380 0.47560 0.00900
C 	C 	0.92841 0.66749 0.47569 0.04100
C 	C 	0.95920 0.59862 0.48298 -0.07900
C 	C 	0.97480 0.56012 0.49028 0.36700
C 	C 	0.80960 0.46800 0.86120 0.05200
C 	C 	0.77110 0.47390 0.87750 0.00100
C 	C 	0.70380 0.47560 0.91030 0.00900
C 	C 	0.66749 0.47569 0.92841 0.04100
C 	C 	0.59862 0.48298 0.95920 -0.07900
C 	C 	0.56012 0.49028 0.97480 0.36700
C 	C 	0.86120 0.86120 0.46800 0.05200
C 	C 	0.87750 0.87750 0.47390 0.00100
C 	C 	0.91030 0.91030 0.47560 0.00900
C 	C 	0.92841 0.92841 0.47569 0.04100
C 	C 	0.95920 0.95920 0.48298 -0.07900
C 	C 	0.97480 0.97480 0.49028 0.36700
C 	C 	0.86120 0.86120 0.80960 0.05200
C 	C 	0.87750 0.87750 0.77110 0.00100
C 	C 	0.91030 0.91030 0.70380 0.00900
C 	C 	0.92841 0.92841 0.66749 0.04100
C 	C 	0.95920 0.95920 0.59862 -0.07900
C 	C 	0.97480 0.97480 0.56012 0.36700
C 	C 	0.46800 0.80960 0.86120 0.05200
C 	C 	0.47390 0.77110 0.87750 0.00100
C 	C 	0.47560 0.70380 0.91030 0.00900
C 	C 	0.47569 0.66749 0.92841 0.04100
C 	C 	0.48298 0.59862 0.95920 -0.07900
C 	C 	0.49028 0.56012 0.97480 0.36700
O 	O 	0.50861 0.04285 0.99603 -0.42100
O 	O 	0.04285 0.50861 0.45251 -0.42100
O 	O 	0.99603 0.45251 0.50861 -0.42100
O 	O 	0.45251 0.99603 0.04285 -0.42100
O 	O 	0.50861 0.99603 0.45251 -0.42100
O 	O 	0.04285 0.45251 0.99603 -0.42100
O 	O 	0.99603 0.50861 0.04285 -0.42100
O 	O 	0.45251 0.04285 0.50861 -0.42100
O 	O 	0.50861 0.45251 0.04285 -0.42100
O 	O 	0.04285 0.99603 0.50861 -0.42100
O 	O 	0.99603 0.04285 0.45251 -0.42100
O 	O 	0.45251 0.50861 0.99603 -0.42100
O 	O 	0.95715 0.49139 0.00397 -0.42100
O 	O 	0.49139 0.95715 0.54749 -0.42100
O 	O 	0.54749 0.00397 0.49139 -0.42100
O 	O 	0.00397 0.54749 0.95715 -0.42100
O 	O 	0.00397 0.49139 0.54749 -0.42100
O 	O 	0.54749 0.95715 0.00397 -0.42100
O 	O 	0.49139 0.00397 0.95715 -0.42100
O 	O 	0.95715 0.54749 0.49139 -0.42100
O 	O 	0.54749 0.49139 0.95715 -0.42100
O 	O 	0.00397 0.95715 0.49139 -0.42100
O 	O 	0.95715 0.00397 0.54749 -0.42100
O 	O 	0.49139 0.54749 0.00397 -0.42100
O 	O 	0.49139 0.95715 0.00397 -0.42100
O 	O 	0.95715 0.49139 0.54749 -0.42100
O 	O 	0.00397 0.54749 0.49139 -0.42100
O 	O 	0.54749 0.00397 0.95715 -0.42100
O 	O 	0.49139 0.00397 0.54749 -0.42100
O 	O 	0.95715 0.54749 0.00397 -0.42100
O 	O 	0.00397 0.49139 0.95715 -0.42100
O 	O 	0.54749 0.95715 0.49139 -0.42100
O 	O 	0.49139 0.54749 0.95715 -0.42100
O 	O 	0.95715 0.00397 0.49139 -0.42100
O 	O 	0.00397 0.95715 0.54749 -0.42100
O 	O 	0.54749 0.49139 0.00397 -0.42100
O 	O 	0.04285 0.50861 0.99603 -0.42100
O 	O 	0.50861 0.04285 0.45251 -0.42100
O 	O 	0.45251 0.99603 0.50861 -0.42100
O 	O 	0.99603 0.45251 0.04285 -0.42100
O 	O 	0.99603 0.50861 0.45251 -0.42100
O 	O 	0.45251 0.04285 0.99603 -0.42100
O 	O 	0.50861 0.99603 0.04285 -0.42100
O 	O 	0.04285 0.45251 0.50861 -0.42100
O 	O 	0.45251 0.50861 0.04285 -0.42100
O 	O 	0.99603 0.04285 0.50861 -0.42100
O 	O 	0.04285 0.99603 0.45251 -0.42100
O 	O 	0.50861 0.45251 0.99603 -0.42100
