data_crystal

_cell_length_a 38.34200
_cell_length_b 39.70700
_cell_length_c 39.70700
_cell_angle_alpha 90.00000
_cell_angle_beta  90.00000
_cell_angle_gamma 90.00000

_symmetry_space_group_name_	'P 1'
_symmetry_space_group_name_H-M	'P 1'

loop_
_symmetry_equiv_pos_as_xyz
  x,y,z

loop_
_atom_site_label
_atom_site_type_symbol
_atom_site_fract_x
_atom_site_fract_y
_atom_site_fract_z
_atom_site_charge
Cu	Cu	0.04678 0.25000 0.25000 0.91500
Cu	Cu	0.11629 0.25000 0.25000 0.90300
Cu	Cu	0.54678 0.25000 0.25000 0.91500
Cu	Cu	0.61629 0.25000 0.25000 0.90300
Cu	Cu	0.31622 0.46040 0.75000 0.91100
Cu	Cu	0.31846 0.52750 0.75000 0.90600
Cu	Cu	0.31622 0.03960 0.75000 0.91100
Cu	Cu	0.31846 0.97250 0.75000 0.90600
Cu	Cu	0.81622 0.75000 0.46040 0.91100
Cu	Cu	0.81846 0.75000 0.52750 0.90600
Cu	Cu	0.81622 0.75000 0.03960 0.91100
Cu	Cu	0.81846 0.75000 0.97250 0.90600
H 	H 	0.02790 0.46340 0.42360 0.05600
H 	H 	0.02850 0.41970 0.38460 0.05200
H 	H 	0.12580 0.39460 0.41360 0.05100
H 	H 	0.12430 0.43710 0.45290 0.05400
H 	H 	0.02490 0.36300 0.36570 0.06500
H 	H 	0.02990 0.32000 0.32530 0.03800
H 	H 	0.13260 0.33630 0.32320 0.02600
H 	H 	0.12730 0.37830 0.36290 0.07300
H 	H 	0.14230 0.45560 0.53520 0.04500
H 	H 	0.18340 0.45490 0.57800 0.06100
H 	H 	0.14070 0.54110 0.61130 0.06100
H 	H 	0.10550 0.54360 0.56590 0.04100
H 	H 	0.19150 0.44870 0.62900 0.06100
H 	H 	0.23340 0.44400 0.66970 0.04200
H 	H 	0.24220 0.54620 0.67330 0.04900
H 	H 	0.20100 0.54870 0.63010 0.05900
H 	H 	0.03840 0.57450 0.53270 0.05400
H 	H 	0.99650 0.61810 0.53340 0.04900
H 	H 	0.95240 0.57360 0.45160 0.05000
H 	H 	0.99250 0.53040 0.45190 0.05600
H 	H 	0.94020 0.63110 0.54090 0.09000
H 	H 	0.90030 0.67530 0.54230 0.01200
H 	H 	0.89240 0.67450 0.44400 0.01500
H 	H 	0.93340 0.63090 0.43780 0.08500
H 	H 	0.02790 0.03660 0.07640 0.05500
H 	H 	0.02850 0.08030 0.11540 0.05100
H 	H 	0.12580 0.10540 0.08640 0.05100
H 	H 	0.12430 0.06290 0.04710 0.05400
H 	H 	0.02490 0.13700 0.13430 0.06500
H 	H 	0.02990 0.18000 0.17470 0.03800
H 	H 	0.13260 0.16370 0.17680 0.02600
H 	H 	0.12730 0.12170 0.13710 0.07300
H 	H 	0.14230 0.04440 0.96480 0.04500
H 	H 	0.18340 0.04510 0.92200 0.06100
H 	H 	0.14070 0.95890 0.88870 0.06100
H 	H 	0.10550 0.95640 0.93410 0.04100
H 	H 	0.19150 0.05130 0.87100 0.06100
H 	H 	0.23340 0.05600 0.83030 0.04200
H 	H 	0.24220 0.95380 0.82670 0.04800
H 	H 	0.20100 0.95130 0.86990 0.05900
H 	H 	0.03840 0.92550 0.96730 0.05400
H 	H 	0.99650 0.88190 0.96660 0.04900
H 	H 	0.95240 0.92640 0.04840 0.05000
H 	H 	0.99250 0.96960 0.04810 0.05600
H 	H 	0.94020 0.86890 0.95910 0.09000
H 	H 	0.90030 0.82470 0.95770 0.01200
H 	H 	0.89240 0.82550 0.05600 0.01500
H 	H 	0.93340 0.86910 0.06220 0.08500
H 	H 	0.52790 0.07640 0.46340 0.05500
H 	H 	0.52850 0.11540 0.41970 0.05100
H 	H 	0.62580 0.08640 0.39460 0.05100
H 	H 	0.62430 0.04710 0.43710 0.05400
H 	H 	0.52490 0.13430 0.36300 0.06500
H 	H 	0.52990 0.17470 0.32000 0.03800
H 	H 	0.63260 0.17680 0.33630 0.02600
H 	H 	0.62730 0.13710 0.37830 0.07300
H 	H 	0.64230 0.96480 0.45560 0.04500
H 	H 	0.68340 0.92200 0.45490 0.06100
H 	H 	0.64070 0.88870 0.54110 0.06100
H 	H 	0.60550 0.93410 0.54360 0.04100
H 	H 	0.69150 0.87100 0.44870 0.06100
H 	H 	0.73340 0.83030 0.44400 0.04200
H 	H 	0.74220 0.82670 0.54620 0.04900
H 	H 	0.70100 0.86990 0.54870 0.05900
H 	H 	0.53840 0.96730 0.57450 0.05400
H 	H 	0.49650 0.96660 0.61810 0.04900
H 	H 	0.45240 0.04840 0.57360 0.05000
H 	H 	0.49250 0.04810 0.53040 0.05600
H 	H 	0.44020 0.95910 0.63110 0.09000
H 	H 	0.40030 0.95770 0.67530 0.01200
H 	H 	0.39240 0.05600 0.67450 0.01500
H 	H 	0.43340 0.06220 0.63090 0.08500
H 	H 	0.52790 0.42360 0.03660 0.05500
H 	H 	0.52850 0.38460 0.08030 0.05100
H 	H 	0.62580 0.41360 0.10540 0.05100
H 	H 	0.62430 0.45290 0.06290 0.05400
H 	H 	0.52490 0.36570 0.13700 0.06500
H 	H 	0.52990 0.32530 0.18000 0.03800
H 	H 	0.63260 0.32320 0.16370 0.02600
H 	H 	0.62730 0.36290 0.12170 0.07300
H 	H 	0.64230 0.53520 0.04440 0.04500
H 	H 	0.68340 0.57800 0.04510 0.06100
H 	H 	0.64070 0.61130 0.95890 0.06100
H 	H 	0.60550 0.56590 0.95640 0.04100
H 	H 	0.69150 0.62900 0.05130 0.06100
H 	H 	0.73340 0.66970 0.05600 0.04200
H 	H 	0.74220 0.67330 0.95380 0.04800
H 	H 	0.70100 0.63010 0.95130 0.05900
H 	H 	0.53840 0.53270 0.92550 0.05400
H 	H 	0.49650 0.53340 0.88190 0.04900
H 	H 	0.45240 0.45160 0.92640 0.05000
H 	H 	0.49250 0.45190 0.96960 0.05600
H 	H 	0.44020 0.54090 0.86890 0.09000
H 	H 	0.40030 0.54230 0.82470 0.01200
H 	H 	0.39240 0.44400 0.82550 0.01500
H 	H 	0.43340 0.43780 0.86910 0.08500
H 	H 	0.02790 0.46340 0.07640 0.05500
H 	H 	0.02850 0.41970 0.11540 0.05100
H 	H 	0.12580 0.39460 0.08640 0.05100
H 	H 	0.12430 0.43710 0.04710 0.05400
H 	H 	0.02490 0.36300 0.13430 0.06500
H 	H 	0.02990 0.32000 0.17470 0.03800
H 	H 	0.13260 0.33630 0.17680 0.02600
H 	H 	0.12730 0.37830 0.13710 0.07300
H 	H 	0.14230 0.45560 0.96480 0.04500
H 	H 	0.18340 0.45490 0.92200 0.06100
H 	H 	0.14070 0.54110 0.88870 0.06100
H 	H 	0.10550 0.54360 0.93410 0.04100
H 	H 	0.19150 0.44870 0.87100 0.06100
H 	H 	0.23340 0.44400 0.83030 0.04200
H 	H 	0.24220 0.54620 0.82670 0.04900
H 	H 	0.20100 0.54870 0.86990 0.05900
H 	H 	0.03840 0.57450 0.96730 0.05400
H 	H 	0.99650 0.61810 0.96660 0.04900
H 	H 	0.95240 0.57360 0.04840 0.05000
H 	H 	0.99250 0.53040 0.04810 0.05700
H 	H 	0.94020 0.63110 0.95910 0.09000
H 	H 	0.90030 0.67530 0.95770 0.01200
H 	H 	0.89240 0.67450 0.05600 0.01500
H 	H 	0.93340 0.63090 0.06220 0.08500
H 	H 	0.02790 0.03660 0.42360 0.05500
H 	H 	0.02850 0.08030 0.38460 0.05100
H 	H 	0.12580 0.10540 0.41360 0.05100
H 	H 	0.12430 0.06290 0.45290 0.05400
H 	H 	0.02490 0.13700 0.36570 0.06500
H 	H 	0.02990 0.18000 0.32530 0.03800
H 	H 	0.13260 0.16370 0.32320 0.02600
H 	H 	0.12730 0.12170 0.36290 0.07300
H 	H 	0.14230 0.04440 0.53520 0.04500
H 	H 	0.18340 0.04510 0.57800 0.06100
H 	H 	0.14070 0.95890 0.61130 0.06100
H 	H 	0.10550 0.95640 0.56590 0.04100
H 	H 	0.19150 0.05130 0.62900 0.06100
H 	H 	0.23340 0.05600 0.66970 0.04200
H 	H 	0.24220 0.95380 0.67330 0.04800
H 	H 	0.20100 0.95130 0.63010 0.05900
H 	H 	0.03840 0.92550 0.53270 0.05400
H 	H 	0.99650 0.88190 0.53340 0.04900
H 	H 	0.95240 0.92640 0.45160 0.05000
H 	H 	0.99250 0.96960 0.45190 0.05600
H 	H 	0.94020 0.86890 0.54090 0.09000
H 	H 	0.90030 0.82470 0.54230 0.01200
H 	H 	0.89240 0.82550 0.44400 0.01500
H 	H 	0.93340 0.86910 0.43780 0.08500
H 	H 	0.52790 0.07640 0.03660 0.05500
H 	H 	0.52850 0.11540 0.08030 0.05100
H 	H 	0.62580 0.08640 0.10540 0.05100
H 	H 	0.62430 0.04710 0.06290 0.05400
H 	H 	0.52490 0.13430 0.13700 0.06500
H 	H 	0.52990 0.17470 0.18000 0.03800
H 	H 	0.63260 0.17680 0.16370 0.02600
H 	H 	0.62730 0.13710 0.12170 0.07300
H 	H 	0.64230 0.96480 0.04440 0.04500
H 	H 	0.68340 0.92200 0.04510 0.06100
H 	H 	0.64070 0.88870 0.95890 0.06100
H 	H 	0.60550 0.93410 0.95640 0.04100
H 	H 	0.69150 0.87100 0.05130 0.06100
H 	H 	0.73340 0.83030 0.05600 0.04200
H 	H 	0.74220 0.82670 0.95380 0.04800
H 	H 	0.70100 0.86990 0.95130 0.05900
H 	H 	0.53840 0.96730 0.92550 0.05400
H 	H 	0.49650 0.96660 0.88190 0.04900
H 	H 	0.45240 0.04840 0.92640 0.05000
H 	H 	0.49250 0.04810 0.96960 0.05600
H 	H 	0.44020 0.95910 0.86890 0.09000
H 	H 	0.40030 0.95770 0.82470 0.01200
H 	H 	0.39240 0.05600 0.82550 0.01500
H 	H 	0.43340 0.06220 0.86910 0.08500
H 	H 	0.52790 0.42360 0.46340 0.05500
H 	H 	0.52850 0.38460 0.41970 0.05100
H 	H 	0.62580 0.41360 0.39460 0.05100
H 	H 	0.62430 0.45290 0.43710 0.05400
H 	H 	0.52490 0.36570 0.36300 0.06500
H 	H 	0.52990 0.32530 0.32000 0.03800
H 	H 	0.63260 0.32320 0.33630 0.02600
H 	H 	0.62730 0.36290 0.37830 0.07300
H 	H 	0.64230 0.53520 0.45560 0.04500
H 	H 	0.68340 0.57800 0.45490 0.06100
H 	H 	0.64070 0.61130 0.54110 0.06100
H 	H 	0.60550 0.56590 0.54360 0.04100
H 	H 	0.69150 0.62900 0.44870 0.06100
H 	H 	0.73340 0.66970 0.44400 0.04200
H 	H 	0.74220 0.67330 0.54620 0.04900
H 	H 	0.70100 0.63010 0.54870 0.05900
H 	H 	0.53840 0.53270 0.57450 0.05400
H 	H 	0.49650 0.53340 0.61810 0.04900
H 	H 	0.45240 0.45160 0.57360 0.05000
H 	H 	0.49250 0.45190 0.53040 0.05600
H 	H 	0.44020 0.54090 0.63110 0.09000
H 	H 	0.40030 0.54230 0.67530 0.01200
H 	H 	0.39240 0.44400 0.67450 0.01500
H 	H 	0.43340 0.43780 0.63090 0.08500
C 	C 	0.07420 0.47820 0.46960 0.11700
C 	C 	0.09460 0.50070 0.51980 0.12100
C 	C 	0.04720 0.52300 0.49250 0.11700
C 	C 	0.07540 0.45270 0.44250 -0.00400
C 	C 	0.04710 0.44920 0.42160 -0.03900
C 	C 	0.04810 0.42420 0.39760 -0.05900
C 	C 	0.07810 0.40610 0.39310 0.00600
C 	C 	0.10660 0.40890 0.41520 -0.05800
C 	C 	0.10530 0.43330 0.43900 -0.03900
C 	C 	0.07650 0.37750 0.36790 0.05400
C 	C 	0.04680 0.35810 0.35670 -0.10200
C 	C 	0.04970 0.33160 0.33250 0.02900
C 	C 	0.08200 0.32350 0.31980 -0.11400
C 	C 	0.11050 0.34150 0.33140 0.04800
C 	C 	0.10720 0.36760 0.35540 -0.11900
C 	C 	0.07880 0.29410 0.29510 0.40000
C 	C 	0.12010 0.50040 0.54730 -0.02900
C 	C 	0.14340 0.47320 0.55060 -0.01400
C 	C 	0.16720 0.47220 0.57580 -0.08700
C 	C 	0.16560 0.49830 0.59710 0.03600
C 	C 	0.14170 0.52450 0.59490 -0.08800
C 	C 	0.12040 0.52530 0.56890 -0.00800
C 	C 	0.19280 0.49860 0.62500 0.03100
C 	C 	0.20210 0.46800 0.63740 -0.08800
C 	C 	0.22670 0.46520 0.66220 0.00300
C 	C 	0.24210 0.49400 0.67620 -0.05100
C 	C 	0.23250 0.52670 0.66430 -0.00700
C 	C 	0.20780 0.52790 0.63860 -0.08000
C 	C 	0.27160 0.49460 0.70680 0.33300
C 	C 	0.01930 0.54830 0.49250 -0.00200
C 	C 	0.02060 0.57460 0.51670 -0.04200
C 	C 	0.99570 0.60100 0.51740 -0.05100
C 	C 	0.96980 0.59940 0.49250 -0.00100
C 	C 	0.96960 0.57330 0.46820 -0.04500
C 	C 	0.99350 0.54750 0.46780 -0.04100
C 	C 	0.94150 0.62770 0.48980 0.08500
C 	C 	0.93110 0.63990 0.52100 -0.15700
C 	C 	0.90640 0.66610 0.52150 0.10100
C 	C 	0.89050 0.67890 0.49300 -0.19400
C 	C 	0.90210 0.66550 0.46360 0.09500
C 	C 	0.92710 0.63940 0.45880 -0.15100
C 	C 	0.86370 0.70360 0.49270 0.44600
C 	C 	0.07420 0.02180 0.03040 0.11700
C 	C 	0.09460 0.99930 0.98020 0.12100
C 	C 	0.04720 0.97700 0.00750 0.11700
C 	C 	0.07540 0.04730 0.05750 -0.00400
C 	C 	0.04710 0.05080 0.07840 -0.03900
C 	C 	0.04810 0.07580 0.10240 -0.05900
C 	C 	0.07810 0.09390 0.10690 0.00600
C 	C 	0.10660 0.09110 0.08480 -0.05800
C 	C 	0.10530 0.06670 0.06100 -0.03900
C 	C 	0.07650 0.12250 0.13210 0.05400
C 	C 	0.04680 0.14190 0.14330 -0.10200
C 	C 	0.04970 0.16840 0.16750 0.02900
C 	C 	0.08200 0.17650 0.18020 -0.11400
C 	C 	0.11050 0.15850 0.16860 0.04800
C 	C 	0.10720 0.13240 0.14460 -0.11900
C 	C 	0.07880 0.20590 0.20490 0.40000
C 	C 	0.12010 0.99960 0.95270 -0.02900
C 	C 	0.14340 0.02680 0.94940 -0.01400
C 	C 	0.16720 0.02780 0.92420 -0.08700
C 	C 	0.16560 0.00170 0.90290 0.03600
C 	C 	0.14170 0.97550 0.90510 -0.08700
C 	C 	0.12040 0.97470 0.93110 -0.00900
C 	C 	0.19280 0.00140 0.87500 0.03100
C 	C 	0.20210 0.03200 0.86260 -0.08800
C 	C 	0.22670 0.03480 0.83780 0.00300
C 	C 	0.24210 0.00600 0.82380 -0.05100
C 	C 	0.23250 0.97330 0.83570 -0.00700
C 	C 	0.20780 0.97210 0.86140 -0.08000
C 	C 	0.27160 0.00540 0.79320 0.33300
C 	C 	0.01930 0.95170 0.00750 -0.00200
C 	C 	0.02060 0.92540 0.98330 -0.04200
C 	C 	0.99570 0.89900 0.98260 -0.05100
C 	C 	0.96980 0.90060 0.00750 -0.00100
C 	C 	0.96960 0.92670 0.03180 -0.04500
C 	C 	0.99350 0.95250 0.03220 -0.04100
C 	C 	0.94150 0.87230 0.01020 0.08500
C 	C 	0.93110 0.86010 0.97900 -0.15700
C 	C 	0.90640 0.83390 0.97850 0.10100
C 	C 	0.89050 0.82110 0.00700 -0.19400
C 	C 	0.90210 0.83450 0.03640 0.09500
C 	C 	0.92710 0.86060 0.04120 -0.15100
C 	C 	0.86370 0.79640 0.00730 0.44600
C 	C 	0.57420 0.03040 0.47820 0.11700
C 	C 	0.59460 0.98020 0.50070 0.12100
C 	C 	0.54720 0.00750 0.52300 0.11700
C 	C 	0.57540 0.05750 0.45270 -0.00400
C 	C 	0.54710 0.07840 0.44920 -0.03900
C 	C 	0.54810 0.10240 0.42420 -0.05900
C 	C 	0.57810 0.10690 0.40610 0.00600
C 	C 	0.60660 0.08480 0.40890 -0.05800
C 	C 	0.60530 0.06100 0.43330 -0.03900
C 	C 	0.57650 0.13210 0.37750 0.05400
C 	C 	0.54680 0.14330 0.35810 -0.10200
C 	C 	0.54970 0.16750 0.33160 0.02900
C 	C 	0.58200 0.18020 0.32350 -0.11400
C 	C 	0.61050 0.16860 0.34150 0.04800
C 	C 	0.60720 0.14460 0.36760 -0.11900
C 	C 	0.57880 0.20490 0.29410 0.40000
C 	C 	0.62010 0.95270 0.50040 -0.02900
C 	C 	0.64340 0.94940 0.47320 -0.01400
C 	C 	0.66720 0.92420 0.47220 -0.08700
C 	C 	0.66560 0.90290 0.49830 0.03600
C 	C 	0.64170 0.90510 0.52450 -0.08800
C 	C 	0.62040 0.93110 0.52530 -0.00800
C 	C 	0.69280 0.87500 0.49860 0.03100
C 	C 	0.70210 0.86260 0.46800 -0.08800
C 	C 	0.72670 0.83780 0.46520 0.00300
C 	C 	0.74210 0.82380 0.49400 -0.05100
C 	C 	0.73250 0.83570 0.52670 -0.00700
C 	C 	0.70780 0.86140 0.52790 -0.08000
C 	C 	0.77160 0.79320 0.49460 0.33300
C 	C 	0.51930 0.00750 0.54830 -0.00200
C 	C 	0.52060 0.98330 0.57460 -0.04200
C 	C 	0.49570 0.98260 0.60100 -0.05100
C 	C 	0.46980 0.00750 0.59940 -0.00100
C 	C 	0.46960 0.03180 0.57330 -0.04500
C 	C 	0.49350 0.03220 0.54750 -0.04100
C 	C 	0.44150 0.01020 0.62770 0.08500
C 	C 	0.43110 0.97900 0.63990 -0.15700
C 	C 	0.40640 0.97850 0.66610 0.10100
C 	C 	0.39050 0.00700 0.67890 -0.19400
C 	C 	0.40210 0.03640 0.66550 0.09500
C 	C 	0.42710 0.04120 0.63940 -0.15100
C 	C 	0.36370 0.00730 0.70360 0.44600
C 	C 	0.57420 0.46960 0.02180 0.11700
C 	C 	0.59460 0.51980 0.99930 0.12100
C 	C 	0.54720 0.49250 0.97700 0.11700
C 	C 	0.57540 0.44250 0.04730 -0.00400
C 	C 	0.54710 0.42160 0.05080 -0.03900
C 	C 	0.54810 0.39760 0.07580 -0.05900
C 	C 	0.57810 0.39310 0.09390 0.00600
C 	C 	0.60660 0.41520 0.09110 -0.05800
C 	C 	0.60530 0.43900 0.06670 -0.03900
C 	C 	0.57650 0.36790 0.12250 0.05400
C 	C 	0.54680 0.35670 0.14190 -0.10200
C 	C 	0.54970 0.33250 0.16840 0.02900
C 	C 	0.58200 0.31980 0.17650 -0.11400
C 	C 	0.61050 0.33140 0.15850 0.04800
C 	C 	0.60720 0.35540 0.13240 -0.11900
C 	C 	0.57880 0.29510 0.20590 0.40000
C 	C 	0.62010 0.54730 0.99960 -0.02900
C 	C 	0.64340 0.55060 0.02680 -0.01400
C 	C 	0.66720 0.57580 0.02780 -0.08700
C 	C 	0.66560 0.59710 0.00170 0.03600
C 	C 	0.64170 0.59490 0.97550 -0.08700
C 	C 	0.62040 0.56890 0.97470 -0.00900
C 	C 	0.69280 0.62500 0.00140 0.03100
C 	C 	0.70210 0.63740 0.03200 -0.08800
C 	C 	0.72670 0.66220 0.03480 0.00300
C 	C 	0.74210 0.67620 0.00600 -0.05100
C 	C 	0.73250 0.66430 0.97330 -0.00700
C 	C 	0.70780 0.63860 0.97210 -0.08000
C 	C 	0.77160 0.70680 0.00540 0.33300
C 	C 	0.51930 0.49250 0.95170 -0.00200
C 	C 	0.52060 0.51670 0.92540 -0.04200
C 	C 	0.49570 0.51740 0.89900 -0.05100
C 	C 	0.46980 0.49250 0.90060 -0.00100
C 	C 	0.46960 0.46820 0.92670 -0.04500
C 	C 	0.49350 0.46780 0.95250 -0.04100
C 	C 	0.44150 0.48980 0.87230 0.08500
C 	C 	0.43110 0.52100 0.86010 -0.15700
C 	C 	0.40640 0.52150 0.83390 0.10100
C 	C 	0.39050 0.49300 0.82110 -0.19400
C 	C 	0.40210 0.46360 0.83450 0.09500
C 	C 	0.42710 0.45880 0.86060 -0.15100
C 	C 	0.36370 0.49270 0.79640 0.44600
C 	C 	0.07420 0.47820 0.03040 0.11700
C 	C 	0.09460 0.50070 0.98020 0.12100
C 	C 	0.04720 0.52300 0.00750 0.11700
C 	C 	0.07540 0.45270 0.05750 -0.00400
C 	C 	0.04710 0.44920 0.07840 -0.03900
C 	C 	0.04810 0.42420 0.10240 -0.05900
C 	C 	0.07810 0.40610 0.10690 0.00600
C 	C 	0.10660 0.40890 0.08480 -0.05800
C 	C 	0.10530 0.43330 0.06100 -0.03900
C 	C 	0.07650 0.37750 0.13210 0.05400
C 	C 	0.04680 0.35810 0.14330 -0.10200
C 	C 	0.04970 0.33160 0.16750 0.02900
C 	C 	0.08200 0.32350 0.18020 -0.11400
C 	C 	0.11050 0.34150 0.16860 0.04800
C 	C 	0.10720 0.36760 0.14460 -0.11900
C 	C 	0.07880 0.29410 0.20490 0.40000
C 	C 	0.12010 0.50040 0.95270 -0.02900
C 	C 	0.14340 0.47320 0.94940 -0.01400
C 	C 	0.16720 0.47220 0.92420 -0.08700
C 	C 	0.16560 0.49830 0.90290 0.03600
C 	C 	0.14170 0.52450 0.90510 -0.08800
C 	C 	0.12040 0.52530 0.93110 -0.00800
C 	C 	0.19280 0.49860 0.87500 0.03100
C 	C 	0.20210 0.46800 0.86260 -0.08800
C 	C 	0.22670 0.46520 0.83780 0.00300
C 	C 	0.24210 0.49400 0.82380 -0.05100
C 	C 	0.23250 0.52670 0.83570 -0.00700
C 	C 	0.20780 0.52790 0.86140 -0.08000
C 	C 	0.27160 0.49460 0.79320 0.33300
C 	C 	0.01930 0.54830 0.00750 -0.00200
C 	C 	0.02060 0.57460 0.98330 -0.04200
C 	C 	0.99570 0.60100 0.98260 -0.05100
C 	C 	0.96980 0.59940 0.00750 -0.00100
C 	C 	0.96960 0.57330 0.03180 -0.04500
C 	C 	0.99350 0.54750 0.03220 -0.04100
C 	C 	0.94150 0.62770 0.01020 0.08500
C 	C 	0.93110 0.63990 0.97900 -0.15700
C 	C 	0.90640 0.66610 0.97850 0.10100
C 	C 	0.89050 0.67890 0.00700 -0.19400
C 	C 	0.90210 0.66550 0.03640 0.09500
C 	C 	0.92710 0.63940 0.04120 -0.15100
C 	C 	0.86370 0.70360 0.00730 0.44600
C 	C 	0.07420 0.02180 0.46960 0.11700
C 	C 	0.09460 0.99930 0.51980 0.12100
C 	C 	0.04720 0.97700 0.49250 0.11700
C 	C 	0.07540 0.04730 0.44250 -0.00400
C 	C 	0.04710 0.05080 0.42160 -0.03900
C 	C 	0.04810 0.07580 0.39760 -0.05900
C 	C 	0.07810 0.09390 0.39310 0.00600
C 	C 	0.10660 0.09110 0.41520 -0.05800
C 	C 	0.10530 0.06670 0.43900 -0.03900
C 	C 	0.07650 0.12250 0.36790 0.05400
C 	C 	0.04680 0.14190 0.35670 -0.10200
C 	C 	0.04970 0.16840 0.33250 0.02900
C 	C 	0.08200 0.17650 0.31980 -0.11400
C 	C 	0.11050 0.15850 0.33140 0.04800
C 	C 	0.10720 0.13240 0.35540 -0.11900
C 	C 	0.07880 0.20590 0.29510 0.40000
C 	C 	0.12010 0.99960 0.54730 -0.02900
C 	C 	0.14340 0.02680 0.55060 -0.01400
C 	C 	0.16720 0.02780 0.57580 -0.08700
C 	C 	0.16560 0.00170 0.59710 0.03600
C 	C 	0.14170 0.97550 0.59490 -0.08700
C 	C 	0.12040 0.97470 0.56890 -0.00900
C 	C 	0.19280 0.00140 0.62500 0.03100
C 	C 	0.20210 0.03200 0.63740 -0.08800
C 	C 	0.22670 0.03480 0.66220 0.00300
C 	C 	0.24210 0.00600 0.67620 -0.05100
C 	C 	0.23250 0.97330 0.66430 -0.00700
C 	C 	0.20780 0.97210 0.63860 -0.08000
C 	C 	0.27160 0.00540 0.70680 0.33300
C 	C 	0.01930 0.95170 0.49250 -0.00200
C 	C 	0.02060 0.92540 0.51670 -0.04200
C 	C 	0.99570 0.89900 0.51740 -0.05100
C 	C 	0.96980 0.90060 0.49250 -0.00100
C 	C 	0.96960 0.92670 0.46820 -0.04500
C 	C 	0.99350 0.95250 0.46780 -0.04100
C 	C 	0.94150 0.87230 0.48980 0.08500
C 	C 	0.93110 0.86010 0.52100 -0.15700
C 	C 	0.90640 0.83390 0.52150 0.10100
C 	C 	0.89050 0.82110 0.49300 -0.19400
C 	C 	0.90210 0.83450 0.46360 0.09500
C 	C 	0.92710 0.86060 0.45880 -0.15100
C 	C 	0.86370 0.79640 0.49270 0.44600
C 	C 	0.57420 0.03040 0.02180 0.11700
C 	C 	0.59460 0.98020 0.99930 0.12100
C 	C 	0.54720 0.00750 0.97700 0.11700
C 	C 	0.57540 0.05750 0.04730 -0.00400
C 	C 	0.54710 0.07840 0.05080 -0.03900
C 	C 	0.54810 0.10240 0.07580 -0.05900
C 	C 	0.57810 0.10690 0.09390 0.00600
C 	C 	0.60660 0.08480 0.09110 -0.05800
C 	C 	0.60530 0.06100 0.06670 -0.03900
C 	C 	0.57650 0.13210 0.12250 0.05400
C 	C 	0.54680 0.14330 0.14190 -0.10200
C 	C 	0.54970 0.16750 0.16840 0.02900
C 	C 	0.58200 0.18020 0.17650 -0.11400
C 	C 	0.61050 0.16860 0.15850 0.04800
C 	C 	0.60720 0.14460 0.13240 -0.11900
C 	C 	0.57880 0.20490 0.20590 0.40000
C 	C 	0.62010 0.95270 0.99960 -0.02900
C 	C 	0.64340 0.94940 0.02680 -0.01400
C 	C 	0.66720 0.92420 0.02780 -0.08700
C 	C 	0.66560 0.90290 0.00170 0.03600
C 	C 	0.64170 0.90510 0.97550 -0.08700
C 	C 	0.62040 0.93110 0.97470 -0.00900
C 	C 	0.69280 0.87500 0.00140 0.03100
C 	C 	0.70210 0.86260 0.03200 -0.08800
C 	C 	0.72670 0.83780 0.03480 0.00300
C 	C 	0.74210 0.82380 0.00600 -0.05100
C 	C 	0.73250 0.83570 0.97330 -0.00700
C 	C 	0.70780 0.86140 0.97210 -0.08000
C 	C 	0.77160 0.79320 0.00540 0.33300
C 	C 	0.51930 0.00750 0.95170 -0.00200
C 	C 	0.52060 0.98330 0.92540 -0.04200
C 	C 	0.49570 0.98260 0.89900 -0.05100
C 	C 	0.46980 0.00750 0.90060 -0.00100
C 	C 	0.46960 0.03180 0.92670 -0.04500
C 	C 	0.49350 0.03220 0.95250 -0.04100
C 	C 	0.44150 0.01020 0.87230 0.08500
C 	C 	0.43110 0.97900 0.86010 -0.15700
C 	C 	0.40640 0.97850 0.83390 0.10100
C 	C 	0.39050 0.00700 0.82110 -0.19400
C 	C 	0.40210 0.03640 0.83450 0.09500
C 	C 	0.42710 0.04120 0.86060 -0.15100
C 	C 	0.36370 0.00730 0.79640 0.44600
C 	C 	0.57420 0.46960 0.47820 0.11700
C 	C 	0.59460 0.51980 0.50070 0.12100
C 	C 	0.54720 0.49250 0.52300 0.11700
C 	C 	0.57540 0.44250 0.45270 -0.00400
C 	C 	0.54710 0.42160 0.44920 -0.03900
C 	C 	0.54810 0.39760 0.42420 -0.05900
C 	C 	0.57810 0.39310 0.40610 0.00600
C 	C 	0.60660 0.41520 0.40890 -0.05800
C 	C 	0.60530 0.43900 0.43330 -0.03900
C 	C 	0.57650 0.36790 0.37750 0.05400
C 	C 	0.54680 0.35670 0.35810 -0.10200
C 	C 	0.54970 0.33250 0.33160 0.02900
C 	C 	0.58200 0.31980 0.32350 -0.11400
C 	C 	0.61050 0.33140 0.34150 0.04800
C 	C 	0.60720 0.35540 0.36760 -0.11900
C 	C 	0.57880 0.29510 0.29410 0.40000
C 	C 	0.62010 0.54730 0.50040 -0.02900
C 	C 	0.64340 0.55060 0.47320 -0.01400
C 	C 	0.66720 0.57580 0.47220 -0.08700
C 	C 	0.66560 0.59710 0.49830 0.03600
C 	C 	0.64170 0.59490 0.52450 -0.08800
C 	C 	0.62040 0.56890 0.52530 -0.00800
C 	C 	0.69280 0.62500 0.49860 0.03100
C 	C 	0.70210 0.63740 0.46800 -0.08800
C 	C 	0.72670 0.66220 0.46520 0.00300
C 	C 	0.74210 0.67620 0.49400 -0.05100
C 	C 	0.73250 0.66430 0.52670 -0.00700
C 	C 	0.70780 0.63860 0.52790 -0.08000
C 	C 	0.77160 0.70680 0.49460 0.33300
C 	C 	0.51930 0.49250 0.54830 -0.00200
C 	C 	0.52060 0.51670 0.57460 -0.04200
C 	C 	0.49570 0.51740 0.60100 -0.05100
C 	C 	0.46980 0.49250 0.59940 -0.00100
C 	C 	0.46960 0.46820 0.57330 -0.04500
C 	C 	0.49350 0.46780 0.54750 -0.04100
C 	C 	0.44150 0.48980 0.62770 0.08500
C 	C 	0.43110 0.52100 0.63990 -0.15700
C 	C 	0.40640 0.52150 0.66610 0.10100
C 	C 	0.39050 0.49300 0.67890 -0.19400
C 	C 	0.40210 0.46360 0.66550 0.09500
C 	C 	0.42710 0.45880 0.63940 -0.15100
C 	C 	0.36370 0.49270 0.70360 0.44600
N 	N 	0.04790 0.50060 0.46720 -0.14300
N 	N 	0.09730 0.47710 0.49520 -0.14400
N 	N 	0.06940 0.52410 0.51900 -0.14600
N 	N 	0.04790 0.99940 0.03280 -0.14300
N 	N 	0.09730 0.02290 0.00480 -0.14400
N 	N 	0.06940 0.97590 0.98100 -0.14600
N 	N 	0.54790 0.03280 0.50060 -0.14300
N 	N 	0.59730 0.00480 0.47710 -0.14400
N 	N 	0.56940 0.98100 0.52410 -0.14600
N 	N 	0.54790 0.46720 0.99940 -0.14300
N 	N 	0.59730 0.49520 0.02290 -0.14400
N 	N 	0.56940 0.51900 0.97590 -0.14600
N 	N 	0.04790 0.50060 0.03280 -0.14300
N 	N 	0.09730 0.47710 0.00480 -0.14400
N 	N 	0.06940 0.52410 0.98100 -0.14600
N 	N 	0.04790 0.99940 0.46720 -0.14300
N 	N 	0.09730 0.02290 0.49520 -0.14400
N 	N 	0.06940 0.97590 0.51900 -0.14600
N 	N 	0.54790 0.03280 0.99940 -0.14300
N 	N 	0.59730 0.00480 0.02290 -0.14400
N 	N 	0.56940 0.98100 0.97590 -0.14600
N 	N 	0.54790 0.46720 0.50060 -0.14300
N 	N 	0.59730 0.49520 0.47710 -0.14400
N 	N 	0.56940 0.51900 0.52410 -0.14600
O 	O 	0.05177 0.28420 0.28490 -0.44000
O 	O 	0.10907 0.28479 0.28471 -0.41100
O 	O 	0.28049 0.46647 0.71596 -0.41200
O 	O 	0.28197 0.52411 0.71555 -0.39700
O 	O 	0.85467 0.71561 0.51915 -0.43900
O 	O 	0.85220 0.71550 0.46514 -0.42500
O 	O 	0.05177 0.21580 0.21510 -0.44000
O 	O 	0.10907 0.21521 0.21529 -0.41100
O 	O 	0.28049 0.03353 0.78404 -0.41200
O 	O 	0.28197 0.97589 0.78445 -0.39700
O 	O 	0.85467 0.78439 0.98085 -0.43900
O 	O 	0.85220 0.78450 0.03486 -0.42500
O 	O 	0.55177 0.21510 0.28420 -0.44000
O 	O 	0.60907 0.21529 0.28479 -0.41100
O 	O 	0.78049 0.78404 0.46647 -0.41200
O 	O 	0.78197 0.78445 0.52411 -0.39700
O 	O 	0.35467 0.98085 0.71561 -0.43900
O 	O 	0.35220 0.03486 0.71550 -0.42500
O 	O 	0.55177 0.28490 0.21580 -0.44000
O 	O 	0.60907 0.28471 0.21521 -0.41100
O 	O 	0.78049 0.71596 0.03353 -0.41200
O 	O 	0.78197 0.71555 0.97589 -0.39700
O 	O 	0.35467 0.51915 0.78439 -0.43900
O 	O 	0.35220 0.46514 0.78450 -0.42500
O 	O 	0.05177 0.28420 0.21510 -0.44000
O 	O 	0.10907 0.28479 0.21529 -0.41100
O 	O 	0.28049 0.46647 0.78404 -0.41200
O 	O 	0.28197 0.52411 0.78445 -0.39700
O 	O 	0.85467 0.71561 0.98085 -0.43900
O 	O 	0.85220 0.71550 0.03486 -0.42500
O 	O 	0.05177 0.21580 0.28490 -0.44000
O 	O 	0.10907 0.21521 0.28471 -0.41100
O 	O 	0.28049 0.03353 0.71596 -0.41200
O 	O 	0.28197 0.97589 0.71555 -0.39700
O 	O 	0.85467 0.78439 0.51915 -0.43900
O 	O 	0.85220 0.78450 0.46514 -0.42500
O 	O 	0.55177 0.21510 0.21580 -0.44000
O 	O 	0.60907 0.21529 0.21521 -0.41100
O 	O 	0.78049 0.78404 0.03353 -0.41200
O 	O 	0.78197 0.78445 0.97589 -0.39700
O 	O 	0.35467 0.98085 0.78439 -0.43900
O 	O 	0.35220 0.03486 0.78450 -0.42500
O 	O 	0.55177 0.28490 0.28420 -0.44000
O 	O 	0.60907 0.28471 0.28479 -0.41100
O 	O 	0.78049 0.71596 0.46647 -0.41200
O 	O 	0.78197 0.71555 0.52411 -0.39700
O 	O 	0.35467 0.51915 0.71561 -0.43900
O 	O 	0.35220 0.46514 0.71550 -0.42500
Cu	Cu	0.95322 0.75000 0.75000 0.91400
Cu	Cu	0.88371 0.75000 0.75000 0.90200
Cu	Cu	0.45322 0.75000 0.75000 0.91400
Cu	Cu	0.38371 0.75000 0.75000 0.90200
Cu	Cu	0.68378 0.53960 0.25000 0.91000
Cu	Cu	0.68154 0.47250 0.25000 0.90500
Cu	Cu	0.68378 0.96040 0.25000 0.91000
Cu	Cu	0.68154 0.02750 0.25000 0.90500
Cu	Cu	0.18378 0.25000 0.96040 0.91000
Cu	Cu	0.18154 0.25000 0.02750 0.90500
Cu	Cu	0.18378 0.25000 0.53960 0.91000
Cu	Cu	0.18154 0.25000 0.47250 0.90500
H 	H 	0.97210 0.53660 0.92360 0.05500
H 	H 	0.97150 0.58030 0.88460 0.05100
H 	H 	0.87420 0.60540 0.91360 0.05100
H 	H 	0.87570 0.56290 0.95290 0.05400
H 	H 	0.97510 0.63700 0.86570 0.06500
H 	H 	0.97010 0.68000 0.82530 0.03800
H 	H 	0.86740 0.66370 0.82320 0.02600
H 	H 	0.87270 0.62170 0.86290 0.07300
H 	H 	0.85770 0.54440 0.03520 0.04500
H 	H 	0.81660 0.54510 0.07800 0.06100
H 	H 	0.85930 0.45890 0.11130 0.06100
H 	H 	0.89450 0.45640 0.06590 0.04100
H 	H 	0.80850 0.55130 0.12900 0.06100
H 	H 	0.76660 0.55600 0.16970 0.04200
H 	H 	0.75780 0.45380 0.17330 0.04900
H 	H 	0.79900 0.45130 0.13010 0.05900
H 	H 	0.96160 0.42550 0.03270 0.05400
H 	H 	0.00350 0.38190 0.03340 0.04900
H 	H 	0.04760 0.42640 0.95160 0.05000
H 	H 	0.00750 0.46960 0.95190 0.05700
H 	H 	0.05980 0.36890 0.04090 0.09000
H 	H 	0.09970 0.32470 0.04230 0.01200
H 	H 	0.10760 0.32550 0.94400 0.01500
H 	H 	0.06660 0.36910 0.93780 0.08500
H 	H 	0.97210 0.96340 0.57640 0.05500
H 	H 	0.97150 0.91970 0.61540 0.05100
H 	H 	0.87420 0.89460 0.58640 0.05100
H 	H 	0.87570 0.93710 0.54710 0.05400
H 	H 	0.97510 0.86300 0.63430 0.06500
H 	H 	0.97010 0.82000 0.67470 0.03800
H 	H 	0.86740 0.83630 0.67680 0.02600
H 	H 	0.87270 0.87830 0.63710 0.07300
H 	H 	0.85770 0.95560 0.46480 0.04500
H 	H 	0.81660 0.95490 0.42200 0.06100
H 	H 	0.85930 0.04110 0.38870 0.06100
H 	H 	0.89450 0.04360 0.43410 0.04100
H 	H 	0.80850 0.94870 0.37100 0.06100
H 	H 	0.76660 0.94400 0.33030 0.04200
H 	H 	0.75780 0.04620 0.32670 0.04800
H 	H 	0.79900 0.04870 0.36990 0.05900
H 	H 	0.96160 0.07450 0.46730 0.05400
H 	H 	0.00350 0.11810 0.46660 0.04900
H 	H 	0.04760 0.07360 0.54840 0.05000
H 	H 	0.00750 0.03040 0.54810 0.05600
H 	H 	0.05980 0.13110 0.45910 0.09000
H 	H 	0.09970 0.17530 0.45770 0.01200
H 	H 	0.10760 0.17450 0.55600 0.01500
H 	H 	0.06660 0.13090 0.56220 0.08500
H 	H 	0.47210 0.92360 0.96340 0.05500
H 	H 	0.47150 0.88460 0.91970 0.05100
H 	H 	0.37420 0.91360 0.89460 0.05100
H 	H 	0.37570 0.95290 0.93710 0.05400
H 	H 	0.47510 0.86570 0.86300 0.06500
H 	H 	0.47010 0.82530 0.82000 0.03800
H 	H 	0.36740 0.82320 0.83630 0.02600
H 	H 	0.37270 0.86290 0.87830 0.07300
H 	H 	0.35770 0.03520 0.95560 0.04500
H 	H 	0.31660 0.07800 0.95490 0.06100
H 	H 	0.35930 0.11130 0.04110 0.06100
H 	H 	0.39450 0.06590 0.04360 0.04100
H 	H 	0.30850 0.12900 0.94870 0.06100
H 	H 	0.26660 0.16970 0.94400 0.04200
H 	H 	0.25780 0.17330 0.04620 0.04800
H 	H 	0.29900 0.13010 0.04870 0.05900
H 	H 	0.46160 0.03270 0.07450 0.05400
H 	H 	0.50350 0.03340 0.11810 0.04900
H 	H 	0.54760 0.95160 0.07360 0.05000
H 	H 	0.50750 0.95190 0.03040 0.05600
H 	H 	0.55980 0.04090 0.13110 0.09000
H 	H 	0.59970 0.04230 0.17530 0.01200
H 	H 	0.60760 0.94400 0.17450 0.01500
H 	H 	0.56660 0.93780 0.13090 0.08500
H 	H 	0.47210 0.57640 0.53660 0.05500
H 	H 	0.47150 0.61540 0.58030 0.05100
H 	H 	0.37420 0.58640 0.60540 0.05100
H 	H 	0.37570 0.54710 0.56290 0.05400
H 	H 	0.47510 0.63430 0.63700 0.06500
H 	H 	0.47010 0.67470 0.68000 0.03800
H 	H 	0.36740 0.67680 0.66370 0.02600
H 	H 	0.37270 0.63710 0.62170 0.07300
H 	H 	0.35770 0.46480 0.54440 0.04500
H 	H 	0.31660 0.42200 0.54510 0.06100
H 	H 	0.35930 0.38870 0.45890 0.06100
H 	H 	0.39450 0.43410 0.45640 0.04100
H 	H 	0.30850 0.37100 0.55130 0.06100
H 	H 	0.26660 0.33030 0.55600 0.04200
H 	H 	0.25780 0.32670 0.45380 0.04900
H 	H 	0.29900 0.36990 0.45130 0.05900
H 	H 	0.46160 0.46730 0.42550 0.05400
H 	H 	0.50350 0.46660 0.38190 0.04900
H 	H 	0.54760 0.54840 0.42640 0.05000
H 	H 	0.50750 0.54810 0.46960 0.05600
H 	H 	0.55980 0.45910 0.36890 0.09000
H 	H 	0.59970 0.45770 0.32470 0.01200
H 	H 	0.60760 0.55600 0.32550 0.01500
H 	H 	0.56660 0.56220 0.36910 0.08500
H 	H 	0.97210 0.53660 0.57640 0.05500
H 	H 	0.97150 0.58030 0.61540 0.05100
H 	H 	0.87420 0.60540 0.58640 0.05100
H 	H 	0.87570 0.56290 0.54710 0.05400
H 	H 	0.97510 0.63700 0.63430 0.06500
H 	H 	0.97010 0.68000 0.67470 0.03800
H 	H 	0.86740 0.66370 0.67680 0.02600
H 	H 	0.87270 0.62170 0.63710 0.07300
H 	H 	0.85770 0.54440 0.46480 0.04500
H 	H 	0.81660 0.54510 0.42200 0.06100
H 	H 	0.85930 0.45890 0.38870 0.06100
H 	H 	0.89450 0.45640 0.43410 0.04100
H 	H 	0.80850 0.55130 0.37100 0.06100
H 	H 	0.76660 0.55600 0.33030 0.04200
H 	H 	0.75780 0.45380 0.32670 0.04900
H 	H 	0.79900 0.45130 0.36990 0.05900
H 	H 	0.96160 0.42550 0.46730 0.05400
H 	H 	0.00350 0.38190 0.46660 0.04900
H 	H 	0.04760 0.42640 0.54840 0.05000
H 	H 	0.00750 0.46960 0.54810 0.05600
H 	H 	0.05980 0.36890 0.45910 0.09000
H 	H 	0.09970 0.32470 0.45770 0.01200
H 	H 	0.10760 0.32550 0.55600 0.01500
H 	H 	0.06660 0.36910 0.56220 0.08500
H 	H 	0.97210 0.96340 0.92360 0.05500
H 	H 	0.97150 0.91970 0.88460 0.05100
H 	H 	0.87420 0.89460 0.91360 0.05100
H 	H 	0.87570 0.93710 0.95290 0.05400
H 	H 	0.97510 0.86300 0.86570 0.06500
H 	H 	0.97010 0.82000 0.82530 0.03800
H 	H 	0.86740 0.83630 0.82320 0.02600
H 	H 	0.87270 0.87830 0.86290 0.07300
H 	H 	0.85770 0.95560 0.03520 0.04500
H 	H 	0.81660 0.95490 0.07800 0.06100
H 	H 	0.85930 0.04110 0.11130 0.06100
H 	H 	0.89450 0.04360 0.06590 0.04100
H 	H 	0.80850 0.94870 0.12900 0.06100
H 	H 	0.76660 0.94400 0.16970 0.04200
H 	H 	0.75780 0.04620 0.17330 0.04800
H 	H 	0.79900 0.04870 0.13010 0.05900
H 	H 	0.96160 0.07450 0.03270 0.05400
H 	H 	0.00350 0.11810 0.03340 0.04900
H 	H 	0.04760 0.07360 0.95160 0.05000
H 	H 	0.00750 0.03040 0.95190 0.05600
H 	H 	0.05980 0.13110 0.04090 0.09000
H 	H 	0.09970 0.17530 0.04230 0.01200
H 	H 	0.10760 0.17450 0.94400 0.01500
H 	H 	0.06660 0.13090 0.93780 0.08500
H 	H 	0.47210 0.92360 0.53660 0.05500
H 	H 	0.47150 0.88460 0.58030 0.05100
H 	H 	0.37420 0.91360 0.60540 0.05100
H 	H 	0.37570 0.95290 0.56290 0.05400
H 	H 	0.47510 0.86570 0.63700 0.06500
H 	H 	0.47010 0.82530 0.68000 0.03800
H 	H 	0.36740 0.82320 0.66370 0.02600
H 	H 	0.37270 0.86290 0.62170 0.07300
H 	H 	0.35770 0.03520 0.54440 0.04500
H 	H 	0.31660 0.07800 0.54510 0.06100
H 	H 	0.35930 0.11130 0.45890 0.06100
H 	H 	0.39450 0.06590 0.45640 0.04100
H 	H 	0.30850 0.12900 0.55130 0.06100
H 	H 	0.26660 0.16970 0.55600 0.04200
H 	H 	0.25780 0.17330 0.45380 0.04900
H 	H 	0.29900 0.13010 0.45130 0.05900
H 	H 	0.46160 0.03270 0.42550 0.05400
H 	H 	0.50350 0.03340 0.38190 0.04900
H 	H 	0.54760 0.95160 0.42640 0.05000
H 	H 	0.50750 0.95190 0.46960 0.05600
H 	H 	0.55980 0.04090 0.36890 0.09000
H 	H 	0.59970 0.04230 0.32470 0.01200
H 	H 	0.60760 0.94400 0.32550 0.01500
H 	H 	0.56660 0.93780 0.36910 0.08500
H 	H 	0.47210 0.57640 0.96340 0.05500
H 	H 	0.47150 0.61540 0.91970 0.05100
H 	H 	0.37420 0.58640 0.89460 0.05100
H 	H 	0.37570 0.54710 0.93710 0.05400
H 	H 	0.47510 0.63430 0.86300 0.06500
H 	H 	0.47010 0.67470 0.82000 0.03800
H 	H 	0.36740 0.67680 0.83630 0.02600
H 	H 	0.37270 0.63710 0.87830 0.07300
H 	H 	0.35770 0.46480 0.95560 0.04500
H 	H 	0.31660 0.42200 0.95490 0.06100
H 	H 	0.35930 0.38870 0.04110 0.06100
H 	H 	0.39450 0.43410 0.04360 0.04100
H 	H 	0.30850 0.37100 0.94870 0.06100
H 	H 	0.26660 0.33030 0.94400 0.04200
H 	H 	0.25780 0.32670 0.04620 0.04800
H 	H 	0.29900 0.36990 0.04870 0.05900
H 	H 	0.46160 0.46730 0.07450 0.05400
H 	H 	0.50350 0.46660 0.11810 0.04900
H 	H 	0.54760 0.54840 0.07360 0.05000
H 	H 	0.50750 0.54810 0.03040 0.05600
H 	H 	0.55980 0.45910 0.13110 0.09000
H 	H 	0.59970 0.45770 0.17530 0.01200
H 	H 	0.60760 0.55600 0.17450 0.01500
H 	H 	0.56660 0.56220 0.13090 0.08500
C 	C 	0.92580 0.52180 0.96960 0.11700
C 	C 	0.90540 0.49930 0.01980 0.12100
C 	C 	0.95280 0.47700 0.99250 0.11700
C 	C 	0.92460 0.54730 0.94250 -0.00400
C 	C 	0.95290 0.55080 0.92160 -0.03900
C 	C 	0.95190 0.57580 0.89760 -0.05900
C 	C 	0.92190 0.59390 0.89310 0.00600
C 	C 	0.89340 0.59110 0.91520 -0.05800
C 	C 	0.89470 0.56670 0.93900 -0.03900
C 	C 	0.92350 0.62250 0.86790 0.05400
C 	C 	0.95320 0.64190 0.85670 -0.10200
C 	C 	0.95030 0.66840 0.83250 0.02900
C 	C 	0.91800 0.67650 0.81980 -0.11400
C 	C 	0.88950 0.65850 0.83140 0.04800
C 	C 	0.89280 0.63240 0.85540 -0.11900
C 	C 	0.92120 0.70590 0.79510 0.40000
C 	C 	0.87990 0.49960 0.04730 -0.02900
C 	C 	0.85660 0.52680 0.05060 -0.01400
C 	C 	0.83280 0.52780 0.07580 -0.08700
C 	C 	0.83440 0.50170 0.09710 0.03600
C 	C 	0.85830 0.47550 0.09490 -0.08800
C 	C 	0.87960 0.47470 0.06890 -0.00800
C 	C 	0.80720 0.50140 0.12500 0.03100
C 	C 	0.79790 0.53200 0.13740 -0.08800
C 	C 	0.77330 0.53480 0.16220 0.00300
C 	C 	0.75790 0.50600 0.17620 -0.05100
C 	C 	0.76750 0.47330 0.16430 -0.00700
C 	C 	0.79220 0.47210 0.13860 -0.08000
C 	C 	0.72840 0.50540 0.20680 0.33300
C 	C 	0.98070 0.45170 0.99250 -0.00200
C 	C 	0.97940 0.42540 0.01670 -0.04200
C 	C 	0.00430 0.39900 0.01740 -0.05100
C 	C 	0.03020 0.40060 0.99250 -0.00100
C 	C 	0.03040 0.42670 0.96820 -0.04500
C 	C 	0.00650 0.45250 0.96780 -0.04100
C 	C 	0.05850 0.37230 0.98980 0.08500
C 	C 	0.06890 0.36010 0.02100 -0.15700
C 	C 	0.09360 0.33390 0.02150 0.10100
C 	C 	0.10950 0.32110 0.99300 -0.19400
C 	C 	0.09790 0.33450 0.96360 0.09500
C 	C 	0.07290 0.36060 0.95880 -0.15100
C 	C 	0.13630 0.29640 0.99270 0.44600
C 	C 	0.92580 0.97820 0.53040 0.11700
C 	C 	0.90540 0.00070 0.48020 0.12100
C 	C 	0.95280 0.02300 0.50750 0.11700
C 	C 	0.92460 0.95270 0.55750 -0.00400
C 	C 	0.95290 0.94920 0.57840 -0.03900
C 	C 	0.95190 0.92420 0.60240 -0.05900
C 	C 	0.92190 0.90610 0.60690 0.00600
C 	C 	0.89340 0.90890 0.58480 -0.05800
C 	C 	0.89470 0.93330 0.56100 -0.03900
C 	C 	0.92350 0.87750 0.63210 0.05400
C 	C 	0.95320 0.85810 0.64330 -0.10200
C 	C 	0.95030 0.83160 0.66750 0.02900
C 	C 	0.91800 0.82350 0.68020 -0.11400
C 	C 	0.88950 0.84150 0.66860 0.04800
C 	C 	0.89280 0.86760 0.64460 -0.11900
C 	C 	0.92120 0.79410 0.70490 0.40000
C 	C 	0.87990 0.00040 0.45270 -0.02900
C 	C 	0.85660 0.97320 0.44940 -0.01400
C 	C 	0.83280 0.97220 0.42420 -0.08700
C 	C 	0.83440 0.99830 0.40290 0.03600
C 	C 	0.85830 0.02450 0.40510 -0.08700
C 	C 	0.87960 0.02530 0.43110 -0.00900
C 	C 	0.80720 0.99860 0.37500 0.03100
C 	C 	0.79790 0.96800 0.36260 -0.08800
C 	C 	0.77330 0.96520 0.33780 0.00300
C 	C 	0.75790 0.99400 0.32380 -0.05100
C 	C 	0.76750 0.02670 0.33570 -0.00700
C 	C 	0.79220 0.02790 0.36140 -0.08000
C 	C 	0.72840 0.99460 0.29320 0.33300
C 	C 	0.98070 0.04830 0.50750 -0.00200
C 	C 	0.97940 0.07460 0.48330 -0.04200
C 	C 	0.00430 0.10100 0.48260 -0.05100
C 	C 	0.03020 0.09940 0.50750 -0.00100
C 	C 	0.03040 0.07330 0.53180 -0.04500
C 	C 	0.00650 0.04750 0.53220 -0.04100
C 	C 	0.05850 0.12770 0.51020 0.08500
C 	C 	0.06890 0.13990 0.47900 -0.15700
C 	C 	0.09360 0.16610 0.47850 0.10100
C 	C 	0.10950 0.17890 0.50700 -0.19400
C 	C 	0.09790 0.16550 0.53640 0.09500
C 	C 	0.07290 0.13940 0.54120 -0.15100
C 	C 	0.13630 0.20360 0.50730 0.44600
C 	C 	0.42580 0.96960 0.97820 0.11700
C 	C 	0.40540 0.01980 0.00070 0.12100
C 	C 	0.45280 0.99250 0.02300 0.11700
C 	C 	0.42460 0.94250 0.95270 -0.00400
C 	C 	0.45290 0.92160 0.94920 -0.03900
C 	C 	0.45190 0.89760 0.92420 -0.05900
C 	C 	0.42190 0.89310 0.90610 0.00600
C 	C 	0.39340 0.91520 0.90890 -0.05800
C 	C 	0.39470 0.93900 0.93330 -0.03900
C 	C 	0.42350 0.86790 0.87750 0.05400
C 	C 	0.45320 0.85670 0.85810 -0.10200
C 	C 	0.45030 0.83250 0.83160 0.02900
C 	C 	0.41800 0.81980 0.82350 -0.11400
C 	C 	0.38950 0.83140 0.84150 0.04800
C 	C 	0.39280 0.85540 0.86760 -0.11900
C 	C 	0.42120 0.79510 0.79410 0.40000
C 	C 	0.37990 0.04730 0.00040 -0.02900
C 	C 	0.35660 0.05060 0.97320 -0.01400
C 	C 	0.33280 0.07580 0.97220 -0.08700
C 	C 	0.33440 0.09710 0.99830 0.03600
C 	C 	0.35830 0.09490 0.02450 -0.08700
C 	C 	0.37960 0.06890 0.02530 -0.00900
C 	C 	0.30720 0.12500 0.99860 0.03100
C 	C 	0.29790 0.13740 0.96800 -0.08800
C 	C 	0.27330 0.16220 0.96520 0.00300
C 	C 	0.25790 0.17620 0.99400 -0.05100
C 	C 	0.26750 0.16430 0.02670 -0.00700
C 	C 	0.29220 0.13860 0.02790 -0.08000
C 	C 	0.22840 0.20680 0.99460 0.33300
C 	C 	0.48070 0.99250 0.04830 -0.00200
C 	C 	0.47940 0.01670 0.07460 -0.04200
C 	C 	0.50430 0.01740 0.10100 -0.05100
C 	C 	0.53020 0.99250 0.09940 -0.00100
C 	C 	0.53040 0.96820 0.07330 -0.04500
C 	C 	0.50650 0.96780 0.04750 -0.04100
C 	C 	0.55850 0.98980 0.12770 0.08500
C 	C 	0.56890 0.02100 0.13990 -0.15700
C 	C 	0.59360 0.02150 0.16610 0.10100
C 	C 	0.60950 0.99300 0.17890 -0.19400
C 	C 	0.59790 0.96360 0.16550 0.09500
C 	C 	0.57290 0.95880 0.13940 -0.15100
C 	C 	0.63630 0.99270 0.20360 0.44600
C 	C 	0.42580 0.53040 0.52180 0.11700
C 	C 	0.40540 0.48020 0.49930 0.12100
C 	C 	0.45280 0.50750 0.47700 0.11700
C 	C 	0.42460 0.55750 0.54730 -0.00400
C 	C 	0.45290 0.57840 0.55080 -0.03900
C 	C 	0.45190 0.60240 0.57580 -0.05900
C 	C 	0.42190 0.60690 0.59390 0.00600
C 	C 	0.39340 0.58480 0.59110 -0.05800
C 	C 	0.39470 0.56100 0.56670 -0.03900
C 	C 	0.42350 0.63210 0.62250 0.05400
C 	C 	0.45320 0.64330 0.64190 -0.10200
C 	C 	0.45030 0.66750 0.66840 0.02900
C 	C 	0.41800 0.68020 0.67650 -0.11400
C 	C 	0.38950 0.66860 0.65850 0.04800
C 	C 	0.39280 0.64460 0.63240 -0.11900
C 	C 	0.42120 0.70490 0.70590 0.40000
C 	C 	0.37990 0.45270 0.49960 -0.02900
C 	C 	0.35660 0.44940 0.52680 -0.01400
C 	C 	0.33280 0.42420 0.52780 -0.08700
C 	C 	0.33440 0.40290 0.50170 0.03600
C 	C 	0.35830 0.40510 0.47550 -0.08800
C 	C 	0.37960 0.43110 0.47470 -0.00800
C 	C 	0.30720 0.37500 0.50140 0.03100
C 	C 	0.29790 0.36260 0.53200 -0.08800
C 	C 	0.27330 0.33780 0.53480 0.00300
C 	C 	0.25790 0.32380 0.50600 -0.05100
C 	C 	0.26750 0.33570 0.47330 -0.00700
C 	C 	0.29220 0.36140 0.47210 -0.08000
C 	C 	0.22840 0.29320 0.50540 0.33300
C 	C 	0.48070 0.50750 0.45170 -0.00200
C 	C 	0.47940 0.48330 0.42540 -0.04200
C 	C 	0.50430 0.48260 0.39900 -0.05100
C 	C 	0.53020 0.50750 0.40060 -0.00100
C 	C 	0.53040 0.53180 0.42670 -0.04500
C 	C 	0.50650 0.53220 0.45250 -0.04100
C 	C 	0.55850 0.51020 0.37230 0.08500
C 	C 	0.56890 0.47900 0.36010 -0.15700
C 	C 	0.59360 0.47850 0.33390 0.10100
C 	C 	0.60950 0.50700 0.32110 -0.19400
C 	C 	0.59790 0.53640 0.33450 0.09500
C 	C 	0.57290 0.54120 0.36060 -0.15100
C 	C 	0.63630 0.50730 0.29640 0.44600
C 	C 	0.92580 0.52180 0.53040 0.11700
C 	C 	0.90540 0.49930 0.48020 0.12100
C 	C 	0.95280 0.47700 0.50750 0.11700
C 	C 	0.92460 0.54730 0.55750 -0.00400
C 	C 	0.95290 0.55080 0.57840 -0.03900
C 	C 	0.95190 0.57580 0.60240 -0.05900
C 	C 	0.92190 0.59390 0.60690 0.00600
C 	C 	0.89340 0.59110 0.58480 -0.05800
C 	C 	0.89470 0.56670 0.56100 -0.03900
C 	C 	0.92350 0.62250 0.63210 0.05400
C 	C 	0.95320 0.64190 0.64330 -0.10200
C 	C 	0.95030 0.66840 0.66750 0.02900
C 	C 	0.91800 0.67650 0.68020 -0.11400
C 	C 	0.88950 0.65850 0.66860 0.04800
C 	C 	0.89280 0.63240 0.64460 -0.11900
C 	C 	0.92120 0.70590 0.70490 0.40000
C 	C 	0.87990 0.49960 0.45270 -0.02900
C 	C 	0.85660 0.52680 0.44940 -0.01400
C 	C 	0.83280 0.52780 0.42420 -0.08700
C 	C 	0.83440 0.50170 0.40290 0.03600
C 	C 	0.85830 0.47550 0.40510 -0.08800
C 	C 	0.87960 0.47470 0.43110 -0.00800
C 	C 	0.80720 0.50140 0.37500 0.03100
C 	C 	0.79790 0.53200 0.36260 -0.08800
C 	C 	0.77330 0.53480 0.33780 0.00300
C 	C 	0.75790 0.50600 0.32380 -0.05100
C 	C 	0.76750 0.47330 0.33570 -0.00700
C 	C 	0.79220 0.47210 0.36140 -0.08000
C 	C 	0.72840 0.50540 0.29320 0.33300
C 	C 	0.98070 0.45170 0.50750 -0.00200
C 	C 	0.97940 0.42540 0.48330 -0.04200
C 	C 	0.00430 0.39900 0.48260 -0.05100
C 	C 	0.03020 0.40060 0.50750 -0.00100
C 	C 	0.03040 0.42670 0.53180 -0.04500
C 	C 	0.00650 0.45250 0.53220 -0.04100
C 	C 	0.05850 0.37230 0.51020 0.08500
C 	C 	0.06890 0.36010 0.47900 -0.15700
C 	C 	0.09360 0.33390 0.47850 0.10100
C 	C 	0.10950 0.32110 0.50700 -0.19400
C 	C 	0.09790 0.33450 0.53640 0.09500
C 	C 	0.07290 0.36060 0.54120 -0.15100
C 	C 	0.13630 0.29640 0.50730 0.44600
C 	C 	0.92580 0.97820 0.96960 0.11700
C 	C 	0.90540 0.00070 0.01980 0.12100
C 	C 	0.95280 0.02300 0.99250 0.11700
C 	C 	0.92460 0.95270 0.94250 -0.00400
C 	C 	0.95290 0.94920 0.92160 -0.03900
C 	C 	0.95190 0.92420 0.89760 -0.05900
C 	C 	0.92190 0.90610 0.89310 0.00600
C 	C 	0.89340 0.90890 0.91520 -0.05800
C 	C 	0.89470 0.93330 0.93900 -0.03900
C 	C 	0.92350 0.87750 0.86790 0.05400
C 	C 	0.95320 0.85810 0.85670 -0.10200
C 	C 	0.95030 0.83160 0.83250 0.02900
C 	C 	0.91800 0.82350 0.81980 -0.11400
C 	C 	0.88950 0.84150 0.83140 0.04800
C 	C 	0.89280 0.86760 0.85540 -0.11900
C 	C 	0.92120 0.79410 0.79510 0.40000
C 	C 	0.87990 0.00040 0.04730 -0.02900
C 	C 	0.85660 0.97320 0.05060 -0.01400
C 	C 	0.83280 0.97220 0.07580 -0.08700
C 	C 	0.83440 0.99830 0.09710 0.03600
C 	C 	0.85830 0.02450 0.09490 -0.08700
C 	C 	0.87960 0.02530 0.06890 -0.00900
C 	C 	0.80720 0.99860 0.12500 0.03100
C 	C 	0.79790 0.96800 0.13740 -0.08800
C 	C 	0.77330 0.96520 0.16220 0.00300
C 	C 	0.75790 0.99400 0.17620 -0.05100
C 	C 	0.76750 0.02670 0.16430 -0.00700
C 	C 	0.79220 0.02790 0.13860 -0.08000
C 	C 	0.72840 0.99460 0.20680 0.33300
C 	C 	0.98070 0.04830 0.99250 -0.00200
C 	C 	0.97940 0.07460 0.01670 -0.04200
C 	C 	0.00430 0.10100 0.01740 -0.05100
C 	C 	0.03020 0.09940 0.99250 -0.00100
C 	C 	0.03040 0.07330 0.96820 -0.04500
C 	C 	0.00650 0.04750 0.96780 -0.04100
C 	C 	0.05850 0.12770 0.98980 0.08500
C 	C 	0.06890 0.13990 0.02100 -0.15700
C 	C 	0.09360 0.16610 0.02150 0.10100
C 	C 	0.10950 0.17890 0.99300 -0.19400
C 	C 	0.09790 0.16550 0.96360 0.09500
C 	C 	0.07290 0.13940 0.95880 -0.15100
C 	C 	0.13630 0.20360 0.99270 0.44600
C 	C 	0.42580 0.96960 0.52180 0.11700
C 	C 	0.40540 0.01980 0.49930 0.12100
C 	C 	0.45280 0.99250 0.47700 0.11700
C 	C 	0.42460 0.94250 0.54730 -0.00400
C 	C 	0.45290 0.92160 0.55080 -0.03900
C 	C 	0.45190 0.89760 0.57580 -0.05900
C 	C 	0.42190 0.89310 0.59390 0.00600
C 	C 	0.39340 0.91520 0.59110 -0.05800
C 	C 	0.39470 0.93900 0.56670 -0.03900
C 	C 	0.42350 0.86790 0.62250 0.05400
C 	C 	0.45320 0.85670 0.64190 -0.10200
C 	C 	0.45030 0.83250 0.66840 0.02900
C 	C 	0.41800 0.81980 0.67650 -0.11400
C 	C 	0.38950 0.83140 0.65850 0.04800
C 	C 	0.39280 0.85540 0.63240 -0.11900
C 	C 	0.42120 0.79510 0.70590 0.40000
C 	C 	0.37990 0.04730 0.49960 -0.02900
C 	C 	0.35660 0.05060 0.52680 -0.01400
C 	C 	0.33280 0.07580 0.52780 -0.08700
C 	C 	0.33440 0.09710 0.50170 0.03600
C 	C 	0.35830 0.09490 0.47550 -0.08800
C 	C 	0.37960 0.06890 0.47470 -0.00800
C 	C 	0.30720 0.12500 0.50140 0.03100
C 	C 	0.29790 0.13740 0.53200 -0.08800
C 	C 	0.27330 0.16220 0.53480 0.00300
C 	C 	0.25790 0.17620 0.50600 -0.05100
C 	C 	0.26750 0.16430 0.47330 -0.00700
C 	C 	0.29220 0.13860 0.47210 -0.08000
C 	C 	0.22840 0.20680 0.50540 0.33300
C 	C 	0.48070 0.99250 0.45170 -0.00200
C 	C 	0.47940 0.01670 0.42540 -0.04200
C 	C 	0.50430 0.01740 0.39900 -0.05100
C 	C 	0.53020 0.99250 0.40060 -0.00100
C 	C 	0.53040 0.96820 0.42670 -0.04500
C 	C 	0.50650 0.96780 0.45250 -0.04100
C 	C 	0.55850 0.98980 0.37230 0.08500
C 	C 	0.56890 0.02100 0.36010 -0.15700
C 	C 	0.59360 0.02150 0.33390 0.10100
C 	C 	0.60950 0.99300 0.32110 -0.19400
C 	C 	0.59790 0.96360 0.33450 0.09500
C 	C 	0.57290 0.95880 0.36060 -0.15100
C 	C 	0.63630 0.99270 0.29640 0.44600
C 	C 	0.42580 0.53040 0.97820 0.11700
C 	C 	0.40540 0.48020 0.00070 0.12100
C 	C 	0.45280 0.50750 0.02300 0.11700
C 	C 	0.42460 0.55750 0.95270 -0.00400
C 	C 	0.45290 0.57840 0.94920 -0.03900
C 	C 	0.45190 0.60240 0.92420 -0.05900
C 	C 	0.42190 0.60690 0.90610 0.00600
C 	C 	0.39340 0.58480 0.90890 -0.05800
C 	C 	0.39470 0.56100 0.93330 -0.03900
C 	C 	0.42350 0.63210 0.87750 0.05400
C 	C 	0.45320 0.64330 0.85810 -0.10200
C 	C 	0.45030 0.66750 0.83160 0.02900
C 	C 	0.41800 0.68020 0.82350 -0.11400
C 	C 	0.38950 0.66860 0.84150 0.04800
C 	C 	0.39280 0.64460 0.86760 -0.11900
C 	C 	0.42120 0.70490 0.79410 0.40000
C 	C 	0.37990 0.45270 0.00040 -0.02900
C 	C 	0.35660 0.44940 0.97320 -0.01400
C 	C 	0.33280 0.42420 0.97220 -0.08700
C 	C 	0.33440 0.40290 0.99830 0.03600
C 	C 	0.35830 0.40510 0.02450 -0.08700
C 	C 	0.37960 0.43110 0.02530 -0.00900
C 	C 	0.30720 0.37500 0.99860 0.03100
C 	C 	0.29790 0.36260 0.96800 -0.08800
C 	C 	0.27330 0.33780 0.96520 0.00300
C 	C 	0.25790 0.32380 0.99400 -0.05100
C 	C 	0.26750 0.33570 0.02670 -0.00700
C 	C 	0.29220 0.36140 0.02790 -0.08000
C 	C 	0.22840 0.29320 0.99460 0.33300
C 	C 	0.48070 0.50750 0.04830 -0.00200
C 	C 	0.47940 0.48330 0.07460 -0.04200
C 	C 	0.50430 0.48260 0.10100 -0.05100
C 	C 	0.53020 0.50750 0.09940 -0.00100
C 	C 	0.53040 0.53180 0.07330 -0.04500
C 	C 	0.50650 0.53220 0.04750 -0.04100
C 	C 	0.55850 0.51020 0.12770 0.08500
C 	C 	0.56890 0.47900 0.13990 -0.15700
C 	C 	0.59360 0.47850 0.16610 0.10100
C 	C 	0.60950 0.50700 0.17890 -0.19400
C 	C 	0.59790 0.53640 0.16550 0.09500
C 	C 	0.57290 0.54120 0.13940 -0.15100
C 	C 	0.63630 0.50730 0.20360 0.44600
N 	N 	0.95210 0.49940 0.96720 -0.14300
N 	N 	0.90270 0.52290 0.99520 -0.14400
N 	N 	0.93060 0.47590 0.01900 -0.14600
N 	N 	0.95210 0.00060 0.53280 -0.14300
N 	N 	0.90270 0.97710 0.50480 -0.14400
N 	N 	0.93060 0.02410 0.48100 -0.14600
N 	N 	0.45210 0.96720 0.00060 -0.14300
N 	N 	0.40270 0.99520 0.97710 -0.14400
N 	N 	0.43060 0.01900 0.02410 -0.14600
N 	N 	0.45210 0.53280 0.49940 -0.14300
N 	N 	0.40270 0.50480 0.52290 -0.14400
N 	N 	0.43060 0.48100 0.47590 -0.14600
N 	N 	0.95210 0.49940 0.53280 -0.14300
N 	N 	0.90270 0.52290 0.50480 -0.14400
N 	N 	0.93060 0.47590 0.48100 -0.14600
N 	N 	0.95210 0.00060 0.96720 -0.14300
N 	N 	0.90270 0.97710 0.99520 -0.14400
N 	N 	0.93060 0.02410 0.01900 -0.14600
N 	N 	0.45210 0.96720 0.49940 -0.14300
N 	N 	0.40270 0.99520 0.52290 -0.14400
N 	N 	0.43060 0.01900 0.47590 -0.14600
N 	N 	0.45210 0.53280 0.00060 -0.14300
N 	N 	0.40270 0.50480 0.97710 -0.14400
N 	N 	0.43060 0.48100 0.02410 -0.14600
O 	O 	0.94823 0.71580 0.78490 -0.44000
O 	O 	0.89093 0.71521 0.78471 -0.41100
O 	O 	0.71951 0.53353 0.21596 -0.41200
O 	O 	0.71803 0.47589 0.21555 -0.39700
O 	O 	0.14533 0.28439 0.01915 -0.43900
O 	O 	0.14780 0.28450 0.96514 -0.42500
O 	O 	0.94823 0.78420 0.71510 -0.44000
O 	O 	0.89093 0.78479 0.71529 -0.41100
O 	O 	0.71951 0.96647 0.28404 -0.41200
O 	O 	0.71803 0.02411 0.28445 -0.39700
O 	O 	0.14533 0.21561 0.48085 -0.43900
O 	O 	0.14780 0.21550 0.53486 -0.42500
O 	O 	0.44823 0.78490 0.78420 -0.44000
O 	O 	0.39093 0.78471 0.78479 -0.41100
O 	O 	0.21951 0.21596 0.96647 -0.41200
O 	O 	0.21803 0.21555 0.02411 -0.39700
O 	O 	0.64533 0.01915 0.21561 -0.43900
O 	O 	0.64780 0.96514 0.21550 -0.42500
O 	O 	0.44823 0.71510 0.71580 -0.44000
O 	O 	0.39093 0.71529 0.71521 -0.41100
O 	O 	0.21951 0.28404 0.53353 -0.41200
O 	O 	0.21803 0.28445 0.47589 -0.39700
O 	O 	0.64533 0.48085 0.28439 -0.43900
O 	O 	0.64780 0.53486 0.28450 -0.42500
O 	O 	0.94823 0.71580 0.71510 -0.44000
O 	O 	0.89093 0.71521 0.71529 -0.41100
O 	O 	0.71951 0.53353 0.28404 -0.41200
O 	O 	0.71803 0.47589 0.28445 -0.39700
O 	O 	0.14533 0.28439 0.48085 -0.43900
O 	O 	0.14780 0.28450 0.53486 -0.42500
O 	O 	0.94823 0.78420 0.78490 -0.44000
O 	O 	0.89093 0.78479 0.78471 -0.41100
O 	O 	0.71951 0.96647 0.21596 -0.41200
O 	O 	0.71803 0.02411 0.21555 -0.39700
O 	O 	0.14533 0.21561 0.01915 -0.43900
O 	O 	0.14780 0.21550 0.96514 -0.42500
O 	O 	0.44823 0.78490 0.71580 -0.44000
O 	O 	0.39093 0.78471 0.71521 -0.41100
O 	O 	0.21951 0.21596 0.53353 -0.41200
O 	O 	0.21803 0.21555 0.47589 -0.39700
O 	O 	0.64533 0.01915 0.28439 -0.43900
O 	O 	0.64780 0.96514 0.28450 -0.42500
O 	O 	0.44823 0.71510 0.78420 -0.44000
O 	O 	0.39093 0.71529 0.78479 -0.41100
O 	O 	0.21951 0.28404 0.96647 -0.41200
O 	O 	0.21803 0.28445 0.02411 -0.39700
O 	O 	0.64533 0.48085 0.21561 -0.43900
O 	O 	0.64780 0.53486 0.21550 -0.42500
