data_crystal

_cell_length_a 17.14300
_cell_length_b 41.96800
_cell_length_c 41.96800
_cell_angle_alpha 120.00000
_cell_angle_beta  90.00000
_cell_angle_gamma 90.00000

_symmetry_space_group_name_	'P 1'
_symmetry_space_group_name_H-M	'P 1'

loop_
_symmetry_equiv_pos_as_xyz
  x,y,z

loop_
_atom_site_label
_atom_site_type_symbol
_atom_site_fract_x
_atom_site_fract_y
_atom_site_fract_z
_atom_site_charge
Zr	Zr	0.89734 0.54203 0.54203 3.17900
Zr	Zr	0.89734 0.00000 0.45797 3.17600
Zr	Zr	0.89734 0.45797 -0.00000 3.17600
Zr	Zr	0.89734 0.45797 0.45797 3.18000
Zr	Zr	0.89734 0.00000 0.54203 3.17600
Zr	Zr	0.89734 0.54203 -0.00000 3.17600
Zr	Zr	0.10266 0.00000 0.45797 3.17300
Zr	Zr	0.10266 0.54203 0.54203 3.17800
Zr	Zr	0.10266 0.45797 -0.00000 3.17300
Zr	Zr	0.10266 0.00000 0.54203 3.17300
Zr	Zr	0.10266 0.45797 0.45797 3.17800
Zr	Zr	0.10266 0.54203 -0.00000 3.17400
Zr	Zr	-0.00000 0.46618 0.53382 3.20800
Zr	Zr	-0.00000 0.06764 0.53382 3.20800
Zr	Zr	-0.00000 0.46618 0.93236 3.20800
Zr	Zr	-0.00000 0.53382 0.46618 3.20800
Zr	Zr	0.00000 0.93236 0.46618 3.20800
Zr	Zr	0.00000 0.53382 0.06764 3.20800
Fe	Fe	0.50000 0.48800 0.74400 1.15600
Fe	Fe	0.50000 0.25600 0.51200 1.15600
Fe	Fe	0.50000 0.25600 0.74400 1.15600
Fe	Fe	0.50000 0.51200 0.25600 1.15600
Fe	Fe	0.50000 0.74400 0.48800 1.15600
Fe	Fe	0.50000 0.74400 0.25600 1.15600
H 	H 	0.84230 0.45320 0.60960 -0.01100
H 	H 	0.79110 0.50190 0.72200 0.06300
H 	H 	0.76370 0.55450 0.63870 -0.04900
H 	H 	0.67550 0.55040 0.67870 0.10400
H 	H 	0.75060 0.45030 0.64980 0.12300
H 	H 	0.57200 0.49690 0.63010 0.05000
H 	H 	0.84230 0.15640 0.54680 -0.01200
H 	H 	0.79110 0.22010 0.49810 0.06100
H 	H 	0.76370 0.08420 0.44550 -0.05500
H 	H 	0.67550 0.12830 0.44960 0.10000
H 	H 	0.75060 0.19950 0.54970 0.12300
H 	H 	0.57200 0.13320 0.50310 0.04800
H 	H 	0.84230 0.39040 0.84360 -0.01000
H 	H 	0.79110 0.27800 0.77990 0.06200
H 	H 	0.76370 0.36130 0.91580 -0.04500
H 	H 	0.67550 0.32130 0.87170 0.10400
H 	H 	0.75060 0.35020 0.80050 0.12200
H 	H 	0.57200 0.36990 0.86680 0.05200
H 	H 	0.84230 0.54680 0.39040 -0.01100
H 	H 	0.79110 0.49810 0.27800 0.06100
H 	H 	0.76370 0.44550 0.36130 -0.05100
H 	H 	0.67550 0.44960 0.32130 0.10200
H 	H 	0.75060 0.54970 0.35020 0.12300
H 	H 	0.57200 0.50310 0.36990 0.05000
H 	H 	0.84230 0.84360 0.45320 -0.01000
H 	H 	0.79110 0.77990 0.50190 0.06300
H 	H 	0.76370 0.91580 0.55450 -0.04400
H 	H 	0.67550 0.87170 0.55040 0.10500
H 	H 	0.75060 0.80050 0.45030 0.12200
H 	H 	0.57200 0.86680 0.49690 0.05200
H 	H 	0.84230 0.60960 0.15640 -0.01200
H 	H 	0.79110 0.72200 0.22010 0.06200
H 	H 	0.76370 0.63870 0.08420 -0.05400
H 	H 	0.67550 0.67870 0.12830 0.10200
H 	H 	0.75060 0.64980 0.19950 0.12300
H 	H 	0.57200 0.63010 0.13320 0.04900
H 	H 	0.15770 0.84360 0.39040 -0.01800
H 	H 	0.20890 0.77990 0.27800 0.05500
H 	H 	0.23630 0.91580 0.36130 -0.05000
H 	H 	0.32450 0.87170 0.32130 0.10400
H 	H 	0.24940 0.80050 0.35020 0.12000
H 	H 	0.42800 0.86680 0.36990 0.05200
H 	H 	0.15770 0.60960 0.45320 -0.01800
H 	H 	0.20890 0.72200 0.50190 0.05600
H 	H 	0.23630 0.63870 0.55450 -0.05400
H 	H 	0.32450 0.67870 0.55040 0.10400
H 	H 	0.24940 0.64980 0.45030 0.12100
H 	H 	0.42800 0.63010 0.49690 0.05100
H 	H 	0.15770 0.54680 0.15640 -0.01900
H 	H 	0.20890 0.49810 0.22010 0.05400
H 	H 	0.23630 0.44550 0.08420 -0.06000
H 	H 	0.32450 0.44960 0.12830 0.10000
H 	H 	0.24940 0.54970 0.19950 0.12100
H 	H 	0.42800 0.50310 0.13320 0.04900
H 	H 	0.15770 0.15640 0.60960 -0.01900
H 	H 	0.20890 0.22010 0.72200 0.05500
H 	H 	0.23630 0.08420 0.63870 -0.05900
H 	H 	0.32450 0.12830 0.67870 0.10100
H 	H 	0.24940 0.19950 0.64980 0.12100
H 	H 	0.42800 0.13320 0.63010 0.04900
H 	H 	0.15770 0.39040 0.54680 -0.01800
H 	H 	0.20890 0.27800 0.49810 0.05400
H 	H 	0.23630 0.36130 0.44550 -0.05600
H 	H 	0.32450 0.32130 0.44960 0.10100
H 	H 	0.24940 0.35020 0.54970 0.12100
H 	H 	0.42800 0.36990 0.50310 0.05000
H 	H 	0.15770 0.45320 0.84360 -0.01800
H 	H 	0.20890 0.50190 0.77990 0.05600
H 	H 	0.23630 0.55450 0.91580 -0.05000
H 	H 	0.32450 0.55040 0.87170 0.10500
H 	H 	0.24940 0.45030 0.80050 0.12000
H 	H 	0.42800 0.49690 0.86680 0.05300
H 	H 	0.15770 0.54680 0.39040 -0.01800
H 	H 	0.20890 0.49810 0.27800 0.05500
H 	H 	0.23630 0.44550 0.36130 -0.05600
H 	H 	0.32450 0.44960 0.32130 0.10100
H 	H 	0.24940 0.54970 0.35020 0.12100
H 	H 	0.42800 0.50310 0.36990 0.05000
H 	H 	0.15770 0.84360 0.45320 -0.01800
H 	H 	0.20890 0.77990 0.50190 0.05600
H 	H 	0.23630 0.91580 0.55450 -0.05000
H 	H 	0.32450 0.87170 0.55040 0.10500
H 	H 	0.24940 0.80050 0.45030 0.12000
H 	H 	0.42800 0.86680 0.49690 0.05300
H 	H 	0.15770 0.60960 0.15640 -0.01900
H 	H 	0.20890 0.72200 0.22010 0.05500
H 	H 	0.23630 0.63870 0.08420 -0.05900
H 	H 	0.32450 0.67870 0.12830 0.10100
H 	H 	0.24940 0.64980 0.19950 0.12100
H 	H 	0.42800 0.63010 0.13320 0.04900
H 	H 	0.15770 0.45320 0.60960 -0.01800
H 	H 	0.20890 0.50190 0.72200 0.05600
H 	H 	0.23630 0.55450 0.63870 -0.05400
H 	H 	0.32450 0.55040 0.67870 0.10400
H 	H 	0.24940 0.45030 0.64980 0.12100
H 	H 	0.42800 0.49690 0.63010 0.05100
H 	H 	0.15770 0.15640 0.54680 -0.01900
H 	H 	0.20890 0.22010 0.49810 0.05400
H 	H 	0.23630 0.08420 0.44550 -0.06000
H 	H 	0.32450 0.12830 0.44960 0.10000
H 	H 	0.24940 0.19950 0.54970 0.12100
H 	H 	0.42800 0.13320 0.50310 0.04900
H 	H 	0.15770 0.39040 0.84360 -0.01800
H 	H 	0.20890 0.27800 0.77990 0.05500
H 	H 	0.23630 0.36130 0.91580 -0.05100
H 	H 	0.32450 0.32130 0.87170 0.10400
H 	H 	0.24940 0.35020 0.80050 0.12000
H 	H 	0.42800 0.36990 0.86680 0.05200
H 	H 	0.84230 0.15640 0.60960 -0.01200
H 	H 	0.79110 0.22010 0.72200 0.06200
H 	H 	0.76370 0.08420 0.63870 -0.05400
H 	H 	0.67550 0.12830 0.67870 0.10200
H 	H 	0.75060 0.19950 0.64980 0.12300
H 	H 	0.57200 0.13320 0.63010 0.04900
H 	H 	0.84230 0.39040 0.54680 -0.01100
H 	H 	0.79110 0.27800 0.49810 0.06100
H 	H 	0.76370 0.36130 0.44550 -0.05100
H 	H 	0.67550 0.32130 0.44960 0.10200
H 	H 	0.75060 0.35020 0.54970 0.12300
H 	H 	0.57200 0.36990 0.50310 0.05000
H 	H 	0.84230 0.45320 0.84360 -0.01000
H 	H 	0.79110 0.50190 0.77990 0.06300
H 	H 	0.76370 0.55450 0.91580 -0.04400
H 	H 	0.67550 0.55040 0.87170 0.10500
H 	H 	0.75060 0.45030 0.80050 0.12200
H 	H 	0.57200 0.49690 0.86680 0.05200
H 	H 	0.84230 0.84360 0.39040 -0.01000
H 	H 	0.79110 0.77990 0.27800 0.06200
H 	H 	0.76370 0.91580 0.36130 -0.04500
H 	H 	0.67550 0.87170 0.32130 0.10400
H 	H 	0.75060 0.80050 0.35020 0.12200
H 	H 	0.57200 0.86680 0.36990 0.05200
H 	H 	0.84230 0.60960 0.45320 -0.01100
H 	H 	0.79110 0.72200 0.50190 0.06300
H 	H 	0.76370 0.63870 0.55450 -0.04900
H 	H 	0.67550 0.67870 0.55040 0.10400
H 	H 	0.75060 0.64980 0.45030 0.12300
H 	H 	0.57200 0.63010 0.49690 0.05000
H 	H 	0.84230 0.54680 0.15640 -0.01200
H 	H 	0.79110 0.49810 0.22010 0.06100
H 	H 	0.76370 0.44550 0.08420 -0.05500
H 	H 	0.67550 0.44960 0.12830 0.10000
H 	H 	0.75060 0.54970 0.19950 0.12300
H 	H 	0.57200 0.50310 0.13320 0.04800
C 	C 	0.64190 0.49774 0.69122 -0.17300
C 	C 	0.56460 0.49713 0.68105 0.11100
C 	C 	0.80810 0.47335 0.62354 0.18000
C 	C 	0.74640 0.50031 0.73446 -0.08200
C 	C 	0.81240 0.50408 0.62070 -0.27700
C 	C 	0.86860 0.50640 0.59408 0.59700
C 	C 	0.76190 0.53299 0.64078 0.17500
C 	C 	0.66660 0.49742 0.72229 0.11400
C 	C 	0.70870 0.53009 0.66405 -0.26100
C 	C 	0.70250 0.49952 0.66653 0.20700
C 	C 	0.75280 0.47152 0.64721 -0.25200
C 	C 	0.53930 0.49700 0.64841 -0.08500
C 	C 	0.64190 0.19348 0.50226 -0.17400
C 	C 	0.56460 0.18392 0.50287 0.11000
C 	C 	0.80810 0.15019 0.52665 0.18100
C 	C 	0.74640 0.23415 0.49969 -0.08300
C 	C 	0.81240 0.11662 0.49592 -0.28100
C 	C 	0.86860 0.08768 0.49360 0.59900
C 	C 	0.76190 0.10779 0.46701 0.17500
C 	C 	0.66660 0.22487 0.50258 0.11300
C 	C 	0.70870 0.13396 0.46991 -0.26300
C 	C 	0.70250 0.16701 0.50048 0.20700
C 	C 	0.75280 0.17569 0.52848 -0.25300
C 	C 	0.53930 0.15141 0.50300 -0.08600
C 	C 	0.64190 0.30878 0.80652 -0.17200
C 	C 	0.56460 0.31895 0.81608 0.11100
C 	C 	0.80810 0.37646 0.84981 0.17900
C 	C 	0.74640 0.26554 0.76585 -0.08200
C 	C 	0.81240 0.37930 0.88338 -0.27400
C 	C 	0.86860 0.40592 0.91232 0.59500
C 	C 	0.76190 0.35922 0.89221 0.17300
C 	C 	0.66660 0.27771 0.77513 0.11400
C 	C 	0.70870 0.33595 0.86604 -0.25800
C 	C 	0.70250 0.33347 0.83299 0.20500
C 	C 	0.75280 0.35279 0.82431 -0.25000
C 	C 	0.53930 0.35159 0.84859 -0.08500
C 	C 	0.64190 0.50226 0.30878 -0.17300
C 	C 	0.56460 0.50287 0.31895 0.11100
C 	C 	0.80810 0.52665 0.37646 0.18000
C 	C 	0.74640 0.49969 0.26554 -0.08300
C 	C 	0.81240 0.49592 0.37930 -0.27800
C 	C 	0.86860 0.49360 0.40592 0.59700
C 	C 	0.76190 0.46701 0.35922 0.17400
C 	C 	0.66660 0.50258 0.27771 0.11300
C 	C 	0.70870 0.46991 0.33595 -0.26100
C 	C 	0.70250 0.50048 0.33347 0.20600
C 	C 	0.75280 0.52848 0.35279 -0.25200
C 	C 	0.53930 0.50300 0.35159 -0.08500
C 	C 	0.64190 0.80652 0.49774 -0.17200
C 	C 	0.56460 0.81608 0.49713 0.11200
C 	C 	0.80810 0.84981 0.47335 0.17900
C 	C 	0.74640 0.76585 0.50031 -0.08200
C 	C 	0.81240 0.88338 0.50408 -0.27400
C 	C 	0.86860 0.91232 0.50640 0.59600
C 	C 	0.76190 0.89221 0.53299 0.17400
C 	C 	0.66660 0.77513 0.49742 0.11400
C 	C 	0.70870 0.86604 0.53009 -0.25800
C 	C 	0.70250 0.83299 0.49952 0.20600
C 	C 	0.75280 0.82431 0.47152 -0.25000
C 	C 	0.53930 0.84859 0.49700 -0.08400
C 	C 	0.64190 0.69122 0.19348 -0.17400
C 	C 	0.56460 0.68105 0.18392 0.11100
C 	C 	0.80810 0.62354 0.15019 0.18100
C 	C 	0.74640 0.73446 0.23415 -0.08300
C 	C 	0.81240 0.62070 0.11662 -0.28100
C 	C 	0.86860 0.59408 0.08768 0.59900
C 	C 	0.76190 0.64078 0.10779 0.17600
C 	C 	0.66660 0.72229 0.22487 0.11400
C 	C 	0.70870 0.66405 0.13396 -0.26300
C 	C 	0.70250 0.66653 0.16701 0.20700
C 	C 	0.75280 0.64721 0.17569 -0.25300
C 	C 	0.53930 0.64841 0.15141 -0.08600
C 	C 	0.35810 0.80652 0.30878 -0.17400
C 	C 	0.43540 0.81608 0.31895 0.11200
C 	C 	0.19190 0.84981 0.37646 0.18100
C 	C 	0.25360 0.76585 0.26554 -0.08400
C 	C 	0.18760 0.88338 0.37930 -0.28300
C 	C 	0.13140 0.91232 0.40592 0.59900
C 	C 	0.23810 0.89221 0.35922 0.17600
C 	C 	0.33340 0.77513 0.27771 0.11200
C 	C 	0.29130 0.86604 0.33595 -0.26400
C 	C 	0.29750 0.83299 0.33347 0.20700
C 	C 	0.24720 0.82431 0.35279 -0.25500
C 	C 	0.46070 0.84859 0.35159 -0.08500
C 	C 	0.35810 0.69122 0.49774 -0.17400
C 	C 	0.43540 0.68105 0.49713 0.11200
C 	C 	0.19190 0.62354 0.47335 0.18300
C 	C 	0.25360 0.73446 0.50031 -0.08400
C 	C 	0.18760 0.62070 0.50408 -0.28600
C 	C 	0.13140 0.59408 0.50640 0.60100
C 	C 	0.23810 0.64078 0.53299 0.17800
C 	C 	0.33340 0.72229 0.49742 0.11300
C 	C 	0.29130 0.66405 0.53009 -0.26600
C 	C 	0.29750 0.66653 0.49952 0.20900
C 	C 	0.24720 0.64721 0.47152 -0.25700
C 	C 	0.46070 0.64841 0.49700 -0.08600
C 	C 	0.35810 0.50226 0.19348 -0.17500
C 	C 	0.43540 0.50287 0.18392 0.11100
C 	C 	0.19190 0.52665 0.15019 0.18400
C 	C 	0.25360 0.49969 0.23415 -0.08500
C 	C 	0.18760 0.49592 0.11662 -0.29000
C 	C 	0.13140 0.49360 0.08768 0.60200
C 	C 	0.23810 0.46701 0.10779 0.17800
C 	C 	0.33340 0.50258 0.22487 0.11200
C 	C 	0.29130 0.46991 0.13396 -0.26800
C 	C 	0.29750 0.50048 0.16701 0.20900
C 	C 	0.24720 0.52848 0.17569 -0.25900
C 	C 	0.46070 0.50300 0.15141 -0.08700
C 	C 	0.35810 0.19348 0.69122 -0.17500
C 	C 	0.43540 0.18392 0.68105 0.11100
C 	C 	0.19190 0.15019 0.62354 0.18400
C 	C 	0.25360 0.23415 0.73446 -0.08500
C 	C 	0.18760 0.11662 0.62070 -0.29000
C 	C 	0.13140 0.08768 0.59408 0.60200
C 	C 	0.23810 0.10779 0.64078 0.17900
C 	C 	0.33340 0.22487 0.72229 0.11300
C 	C 	0.29130 0.13396 0.66405 -0.26800
C 	C 	0.29750 0.16701 0.66653 0.20900
C 	C 	0.24720 0.17569 0.64721 -0.25800
C 	C 	0.46070 0.15141 0.64841 -0.08600
C 	C 	0.35810 0.30878 0.50226 -0.17500
C 	C 	0.43540 0.31895 0.50287 0.11100
C 	C 	0.19190 0.37646 0.52665 0.18300
C 	C 	0.25360 0.26554 0.49969 -0.08500
C 	C 	0.18760 0.37930 0.49592 -0.28700
C 	C 	0.13140 0.40592 0.49360 0.60000
C 	C 	0.23810 0.35922 0.46701 0.17700
C 	C 	0.33340 0.27771 0.50258 0.11200
C 	C 	0.29130 0.33595 0.46991 -0.26600
C 	C 	0.29750 0.33347 0.50048 0.20800
C 	C 	0.24720 0.35279 0.52848 -0.25700
C 	C 	0.46070 0.35159 0.50300 -0.08600
C 	C 	0.35810 0.49774 0.80652 -0.17400
C 	C 	0.43540 0.49713 0.81608 0.11200
C 	C 	0.19190 0.47335 0.84981 0.18100
C 	C 	0.25360 0.50031 0.76585 -0.08400
C 	C 	0.18760 0.50408 0.88338 -0.28300
C 	C 	0.13140 0.50640 0.91232 0.59900
C 	C 	0.23810 0.53299 0.89221 0.17700
C 	C 	0.33340 0.49742 0.77513 0.11300
C 	C 	0.29130 0.53009 0.86604 -0.26400
C 	C 	0.29750 0.49952 0.83299 0.20800
C 	C 	0.24720 0.47152 0.82431 -0.25500
C 	C 	0.46070 0.49700 0.84859 -0.08500
C 	C 	0.35810 0.50226 0.30878 -0.17500
C 	C 	0.43540 0.50287 0.31895 0.11100
C 	C 	0.19190 0.52665 0.37646 0.18300
C 	C 	0.25360 0.49969 0.26554 -0.08500
C 	C 	0.18760 0.49592 0.37930 -0.28700
C 	C 	0.13140 0.49360 0.40592 0.60000
C 	C 	0.23810 0.46701 0.35922 0.17700
C 	C 	0.33340 0.50258 0.27771 0.11200
C 	C 	0.29130 0.46991 0.33595 -0.26600
C 	C 	0.29750 0.50048 0.33347 0.20800
C 	C 	0.24720 0.52848 0.35279 -0.25700
C 	C 	0.46070 0.50300 0.35159 -0.08600
C 	C 	0.35810 0.80652 0.49774 -0.17400
C 	C 	0.43540 0.81608 0.49713 0.11200
C 	C 	0.19190 0.84981 0.47335 0.18100
C 	C 	0.25360 0.76585 0.50031 -0.08400
C 	C 	0.18760 0.88338 0.50408 -0.28300
C 	C 	0.13140 0.91232 0.50640 0.59900
C 	C 	0.23810 0.89221 0.53299 0.17700
C 	C 	0.33340 0.77513 0.49742 0.11300
C 	C 	0.29130 0.86604 0.53009 -0.26400
C 	C 	0.29750 0.83299 0.49952 0.20800
C 	C 	0.24720 0.82431 0.47152 -0.25500
C 	C 	0.46070 0.84859 0.49700 -0.08500
C 	C 	0.35810 0.69122 0.19348 -0.17500
C 	C 	0.43540 0.68105 0.18392 0.11100
C 	C 	0.19190 0.62354 0.15019 0.18400
C 	C 	0.25360 0.73446 0.23415 -0.08500
C 	C 	0.18760 0.62070 0.11662 -0.29000
C 	C 	0.13140 0.59408 0.08768 0.60200
C 	C 	0.23810 0.64078 0.10779 0.17900
C 	C 	0.33340 0.72229 0.22487 0.11300
C 	C 	0.29130 0.66405 0.13396 -0.26800
C 	C 	0.29750 0.66653 0.16701 0.20900
C 	C 	0.24720 0.64721 0.17569 -0.25900
C 	C 	0.46070 0.64841 0.15141 -0.08600
C 	C 	0.35810 0.49774 0.69122 -0.17400
C 	C 	0.43540 0.49713 0.68105 0.11200
C 	C 	0.19190 0.47335 0.62354 0.18300
C 	C 	0.25360 0.50031 0.73446 -0.08400
C 	C 	0.18760 0.50408 0.62070 -0.28600
C 	C 	0.13140 0.50640 0.59408 0.60100
C 	C 	0.23810 0.53299 0.64078 0.17800
C 	C 	0.33340 0.49742 0.72229 0.11300
C 	C 	0.29130 0.53009 0.66405 -0.26600
C 	C 	0.29750 0.49952 0.66653 0.20900
C 	C 	0.24720 0.47152 0.64721 -0.25700
C 	C 	0.46070 0.49700 0.64841 -0.08600
C 	C 	0.35810 0.19348 0.50226 -0.17500
C 	C 	0.43540 0.18392 0.50287 0.11100
C 	C 	0.19190 0.15019 0.52665 0.18400
C 	C 	0.25360 0.23415 0.49969 -0.08500
C 	C 	0.18760 0.11662 0.49592 -0.29000
C 	C 	0.13140 0.08768 0.49360 0.60200
C 	C 	0.23810 0.10779 0.46701 0.17800
C 	C 	0.33340 0.22487 0.50258 0.11200
C 	C 	0.29130 0.13396 0.46991 -0.26800
C 	C 	0.29750 0.16701 0.50048 0.20900
C 	C 	0.24720 0.17569 0.52848 -0.25900
C 	C 	0.46070 0.15141 0.50300 -0.08700
C 	C 	0.35810 0.30878 0.80652 -0.17400
C 	C 	0.43540 0.31895 0.81608 0.11200
C 	C 	0.19190 0.37646 0.84981 0.18100
C 	C 	0.25360 0.26554 0.76585 -0.08500
C 	C 	0.18760 0.37930 0.88338 -0.28300
C 	C 	0.13140 0.40592 0.91232 0.59900
C 	C 	0.23810 0.35922 0.89221 0.17600
C 	C 	0.33340 0.27771 0.77513 0.11300
C 	C 	0.29130 0.33595 0.86604 -0.26400
C 	C 	0.29750 0.33347 0.83299 0.20700
C 	C 	0.24720 0.35279 0.82431 -0.25500
C 	C 	0.46070 0.35159 0.84859 -0.08500
C 	C 	0.64190 0.19348 0.69122 -0.17400
C 	C 	0.56460 0.18392 0.68105 0.11100
C 	C 	0.80810 0.15019 0.62354 0.18100
C 	C 	0.74640 0.23415 0.73446 -0.08300
C 	C 	0.81240 0.11662 0.62070 -0.28100
C 	C 	0.86860 0.08768 0.59408 0.59900
C 	C 	0.76190 0.10779 0.64078 0.17600
C 	C 	0.66660 0.22487 0.72229 0.11400
C 	C 	0.70870 0.13396 0.66405 -0.26300
C 	C 	0.70250 0.16701 0.66653 0.20700
C 	C 	0.75280 0.17569 0.64721 -0.25300
C 	C 	0.53930 0.15141 0.64841 -0.08600
C 	C 	0.64190 0.30878 0.50226 -0.17300
C 	C 	0.56460 0.31895 0.50287 0.11100
C 	C 	0.80810 0.37646 0.52665 0.18000
C 	C 	0.74640 0.26554 0.49969 -0.08300
C 	C 	0.81240 0.37930 0.49592 -0.27800
C 	C 	0.86860 0.40592 0.49360 0.59700
C 	C 	0.76190 0.35922 0.46701 0.17400
C 	C 	0.66660 0.27771 0.50258 0.11300
C 	C 	0.70870 0.33595 0.46991 -0.26100
C 	C 	0.70250 0.33347 0.50048 0.20600
C 	C 	0.75280 0.35279 0.52848 -0.25200
C 	C 	0.53930 0.35159 0.50300 -0.08500
C 	C 	0.64190 0.49774 0.80652 -0.17200
C 	C 	0.56460 0.49713 0.81608 0.11200
C 	C 	0.80810 0.47335 0.84981 0.17900
C 	C 	0.74640 0.50031 0.76585 -0.08200
C 	C 	0.81240 0.50408 0.88338 -0.27400
C 	C 	0.86860 0.50640 0.91232 0.59600
C 	C 	0.76190 0.53299 0.89221 0.17400
C 	C 	0.66660 0.49742 0.77513 0.11400
C 	C 	0.70870 0.53009 0.86604 -0.25800
C 	C 	0.70250 0.49952 0.83299 0.20600
C 	C 	0.75280 0.47152 0.82431 -0.25000
C 	C 	0.53930 0.49700 0.84859 -0.08400
C 	C 	0.64190 0.80652 0.30878 -0.17200
C 	C 	0.56460 0.81608 0.31895 0.11100
C 	C 	0.80810 0.84981 0.37646 0.17900
C 	C 	0.74640 0.76585 0.26554 -0.08200
C 	C 	0.81240 0.88338 0.37930 -0.27400
C 	C 	0.86860 0.91232 0.40592 0.59500
C 	C 	0.76190 0.89221 0.35922 0.17300
C 	C 	0.66660 0.77513 0.27771 0.11400
C 	C 	0.70870 0.86604 0.33595 -0.25800
C 	C 	0.70250 0.83299 0.33347 0.20500
C 	C 	0.75280 0.82431 0.35279 -0.25000
C 	C 	0.53930 0.84859 0.35159 -0.08500
C 	C 	0.64190 0.69122 0.49774 -0.17300
C 	C 	0.56460 0.68105 0.49713 0.11100
C 	C 	0.80810 0.62354 0.47335 0.18000
C 	C 	0.74640 0.73446 0.50031 -0.08200
C 	C 	0.81240 0.62070 0.50408 -0.27700
C 	C 	0.86860 0.59408 0.50640 0.59700
C 	C 	0.76190 0.64078 0.53299 0.17500
C 	C 	0.66660 0.72229 0.49742 0.11400
C 	C 	0.70870 0.66405 0.53009 -0.26100
C 	C 	0.70250 0.66653 0.49952 0.20700
C 	C 	0.75280 0.64721 0.47152 -0.25200
C 	C 	0.53930 0.64841 0.49700 -0.08500
C 	C 	0.64190 0.50226 0.19348 -0.17400
C 	C 	0.56460 0.50287 0.18392 0.11000
C 	C 	0.80810 0.52665 0.15019 0.18100
C 	C 	0.74640 0.49969 0.23415 -0.08300
C 	C 	0.81240 0.49592 0.11662 -0.28100
C 	C 	0.86860 0.49360 0.08768 0.59900
C 	C 	0.76190 0.46701 0.10779 0.17500
C 	C 	0.66660 0.50258 0.22487 0.11300
C 	C 	0.70870 0.46991 0.13396 -0.26300
C 	C 	0.70250 0.50048 0.16701 0.20700
C 	C 	0.75280 0.52848 0.17569 -0.25300
C 	C 	0.53930 0.50300 0.15141 -0.08600
N 	N 	0.61760 0.49595 0.74798 -0.26100
N 	N 	0.61760 0.25203 0.50406 -0.26200
N 	N 	0.61760 0.25202 0.74797 -0.26100
N 	N 	0.61760 0.50405 0.25202 -0.26200
N 	N 	0.61760 0.74797 0.49595 -0.26100
N 	N 	0.61760 0.74797 0.25202 -0.26100
N 	N 	0.38240 0.74797 0.25202 -0.26200
N 	N 	0.38240 0.74797 0.49595 -0.26100
N 	N 	0.38240 0.50405 0.25203 -0.26200
N 	N 	0.38240 0.25203 0.74798 -0.26200
N 	N 	0.38240 0.25202 0.50405 -0.26200
N 	N 	0.38240 0.49595 0.74798 -0.26100
N 	N 	0.50000 0.49707 0.70139 -0.26600
N 	N 	0.50000 0.20432 0.50293 -0.26700
N 	N 	0.50000 0.29861 0.79568 -0.26600
N 	N 	0.50000 0.50293 0.29861 -0.26700
N 	N 	0.50000 0.79568 0.49707 -0.26600
N 	N 	0.50000 0.70139 0.20432 -0.26700
N 	N 	0.50000 0.79568 0.29861 -0.26600
N 	N 	0.50000 0.70139 0.49707 -0.26600
N 	N 	0.50000 0.50293 0.20432 -0.26700
N 	N 	0.50000 0.20432 0.70139 -0.26700
N 	N 	0.50000 0.29861 0.50293 -0.26700
N 	N 	0.50000 0.49707 0.79568 -0.26600
Cl	Cl	0.50000 0.42296 0.71148 -0.44000
Cl	Cl	0.50000 0.28852 0.57704 -0.44000
Cl	Cl	0.50000 0.28852 0.71148 -0.44000
Cl	Cl	0.50000 0.57704 0.28852 -0.44000
Cl	Cl	0.50000 0.71148 0.42296 -0.44000
Cl	Cl	0.50000 0.71148 0.28852 -0.44000
O 	O 	0.92108 0.48240 0.58113 -0.66400
O 	O 	0.85652 0.53095 0.58627 -0.79200
O 	O 	0.92108 0.09873 0.51760 -0.66500
O 	O 	0.85652 0.05532 0.46905 -0.80100
O 	O 	0.92108 0.41887 0.90127 -0.66300
O 	O 	0.85652 0.41373 0.94468 -0.78400
O 	O 	0.92108 0.51760 0.41887 -0.66400
O 	O 	0.85652 0.46905 0.41373 -0.79400
O 	O 	0.92108 0.90127 0.48240 -0.66300
O 	O 	0.85652 0.94468 0.53095 -0.78300
O 	O 	0.92108 0.58113 0.09873 -0.66500
O 	O 	0.85652 0.58627 0.05532 -0.80000
O 	O 	0.07892 0.90127 0.41887 -0.68500
O 	O 	0.14348 0.94468 0.41373 -0.79500
O 	O 	0.07892 0.58113 0.48240 -0.68600
O 	O 	0.14348 0.58627 0.53095 -0.80300
O 	O 	0.07892 0.51760 0.09873 -0.68700
O 	O 	0.14348 0.46905 0.05532 -0.81100
O 	O 	0.07892 0.09873 0.58113 -0.68700
O 	O 	0.14348 0.05532 0.58627 -0.81100
O 	O 	0.07892 0.41887 0.51760 -0.68600
O 	O 	0.14348 0.41373 0.46905 -0.80400
O 	O 	0.07892 0.48240 0.90127 -0.68500
O 	O 	0.14348 0.53095 0.94468 -0.79400
O 	O 	0.07892 0.51760 0.41887 -0.68600
O 	O 	0.14348 0.46905 0.41373 -0.80400
O 	O 	0.07892 0.90127 0.48240 -0.68500
O 	O 	0.14348 0.94468 0.53095 -0.79400
O 	O 	0.07892 0.58113 0.09873 -0.68700
O 	O 	0.14348 0.58627 0.05532 -0.81100
O 	O 	0.07892 0.48240 0.58113 -0.68600
O 	O 	0.14348 0.53095 0.58627 -0.80300
O 	O 	0.07892 0.09873 0.51760 -0.68700
O 	O 	0.14348 0.05532 0.46905 -0.81200
O 	O 	0.07892 0.41887 0.90127 -0.68500
O 	O 	0.14348 0.41373 0.94468 -0.79500
O 	O 	0.92108 0.09873 0.58113 -0.66500
O 	O 	0.85652 0.05532 0.58627 -0.80000
O 	O 	0.92108 0.41887 0.51760 -0.66400
O 	O 	0.85652 0.41373 0.46905 -0.79400
O 	O 	0.92108 0.48240 0.90127 -0.66300
O 	O 	0.85652 0.53095 0.94468 -0.78300
O 	O 	0.92108 0.90127 0.41887 -0.66300
O 	O 	0.85652 0.94468 0.41373 -0.78400
O 	O 	0.92108 0.58113 0.48240 -0.66400
O 	O 	0.85652 0.58627 0.53095 -0.79200
O 	O 	0.92108 0.51760 0.09873 -0.66500
O 	O 	0.85652 0.46905 0.05532 -0.80100
O 	O 	0.89690 0.48356 0.51645 -1.34100
O 	O 	0.89690 0.03289 0.51645 -1.35100
O 	O 	0.89690 0.48356 0.96712 -1.32900
O 	O 	0.89690 0.51644 0.48355 -1.34100
O 	O 	0.89690 0.96711 0.48355 -1.32800
O 	O 	0.89690 0.51644 0.03289 -1.35100
O 	O 	0.10310 0.96711 0.48355 -1.34200
O 	O 	0.10310 0.51644 0.48355 -1.35500
O 	O 	0.10310 0.51644 0.03288 -1.36500
O 	O 	0.10310 0.03289 0.51645 -1.36500
O 	O 	0.10310 0.48356 0.51645 -1.35500
O 	O 	0.10310 0.48356 0.96712 -1.34200
O 	O 	-0.00000 0.52596 0.55981 -1.34200
O 	O 	0.00000 0.03385 0.47404 -1.35200
O 	O 	0.00000 0.44019 0.96615 -1.33000
O 	O 	-0.00000 0.47404 0.44019 -1.34200
O 	O 	0.00000 0.96615 0.52596 -1.32900
O 	O 	-0.00000 0.55981 0.03385 -1.35200
O 	O 	0.00000 0.96615 0.44019 -1.33000
O 	O 	-0.00000 0.55981 0.52596 -1.34200
O 	O 	-0.00000 0.47404 0.03385 -1.35200
O 	O 	-0.00000 0.03385 0.55981 -1.35100
O 	O 	-0.00000 0.44019 0.47404 -1.34200
O 	O 	0.00000 0.52596 0.96615 -1.32900
