data_crystal

_cell_length_a 20.14690
_cell_length_b 20.51470
_cell_length_c 10.02420
_cell_angle_alpha 90.00000
_cell_angle_beta  90.00000
_cell_angle_gamma 90.00000

_symmetry_space_group_name_	'P 1'
_symmetry_space_group_name_H-M	'P 1'

loop_
_symmetry_equiv_pos_as_xyz
  x,y,z

loop_
_atom_site_label
_atom_site_type_symbol
_atom_site_fract_x
_atom_site_fract_y
_atom_site_fract_z
_atom_site_charge
Al	Al	0.19830 0.32890 0.38010 2.38200
Al	Al	0.93060 0.43440 0.40590 2.38400
P 	P 	0.17620 0.32120 0.06780 0.76300
P 	P 	0.08670 0.44220 0.40860 0.80800
O 	O 	0.21430 0.33450 0.19270 -0.81200
O 	O 	0.16380 0.24930 0.05520 -0.78800
O 	O 	0.01900 0.41660 0.44230 -0.82900
O 	O 	0.10890 0.35560 0.06600 -0.77700
O 	O 	0.13850 0.39170 0.43650 -0.76600
O 	O 	0.10390 0.50080 0.49050 -0.77500
O 	O 	0.09060 0.46310 0.26280 -0.82000
O 	O 	0.21860 0.34330 0.94920 -0.76200
Al	Al	0.69830 0.82890 0.38010 2.38100
Al	Al	0.43060 0.93440 0.40590 2.38300
P 	P 	0.67620 0.82120 0.06780 0.76200
P 	P 	0.58670 0.94220 0.40860 0.80700
O 	O 	0.71430 0.83450 0.19270 -0.81300
O 	O 	0.66380 0.74930 0.05520 -0.78900
O 	O 	0.51900 0.91660 0.44230 -0.83000
O 	O 	0.60890 0.85560 0.06600 -0.77800
O 	O 	0.63850 0.89170 0.43650 -0.76600
O 	O 	0.60390 0.00080 0.49050 -0.77600
O 	O 	0.59060 0.96310 0.26280 -0.82000
O 	O 	0.71860 0.84330 0.94920 -0.76200
Al	Al	0.30170 0.67110 0.38010 2.38100
Al	Al	0.56940 0.56560 0.40590 2.38300
P 	P 	0.32380 0.67880 0.06780 0.76200
P 	P 	0.41330 0.55780 0.40860 0.80700
O 	O 	0.28570 0.66550 0.19270 -0.81300
O 	O 	0.33620 0.75070 0.05520 -0.78900
O 	O 	0.48100 0.58340 0.44230 -0.83000
O 	O 	0.39110 0.64440 0.06600 -0.77800
O 	O 	0.36150 0.60830 0.43650 -0.76600
O 	O 	0.39610 0.49920 0.49050 -0.77500
O 	O 	0.40940 0.53690 0.26280 -0.82000
O 	O 	0.28140 0.65670 0.94920 -0.76200
Al	Al	0.80170 0.17110 0.38010 2.38100
Al	Al	0.06940 0.06560 0.40590 2.38300
P 	P 	0.82380 0.17880 0.06780 0.76200
P 	P 	0.91330 0.05780 0.40860 0.80700
O 	O 	0.78570 0.16550 0.19270 -0.81300
O 	O 	0.83620 0.25070 0.05520 -0.78900
O 	O 	0.98100 0.08340 0.44230 -0.83000
O 	O 	0.89110 0.14440 0.06600 -0.77800
O 	O 	0.86150 0.10830 0.43650 -0.76600
O 	O 	0.89610 0.99920 0.49050 -0.77600
O 	O 	0.90940 0.03690 0.26280 -0.82000
O 	O 	0.78140 0.15670 0.94920 -0.76200
Al	Al	0.80170 0.32890 0.11990 2.38100
Al	Al	0.06940 0.43440 0.09410 2.38300
P 	P 	0.82380 0.32120 0.43220 0.76200
P 	P 	0.91330 0.44220 0.09140 0.80700
O 	O 	0.78570 0.33450 0.30730 -0.81300
O 	O 	0.83620 0.24930 0.44480 -0.78900
O 	O 	0.98100 0.41660 0.05770 -0.83000
O 	O 	0.89110 0.35560 0.43400 -0.77800
O 	O 	0.86150 0.39170 0.06350 -0.76600
O 	O 	0.89610 0.50080 0.00950 -0.77500
O 	O 	0.90940 0.46310 0.23720 -0.82000
O 	O 	0.78140 0.34330 0.55080 -0.76200
Al	Al	0.30170 0.82890 0.11990 2.38100
Al	Al	0.56940 0.93440 0.09410 2.38300
P 	P 	0.32380 0.82120 0.43220 0.76200
P 	P 	0.41330 0.94220 0.09140 0.80700
O 	O 	0.28570 0.83450 0.30730 -0.81300
O 	O 	0.33620 0.74930 0.44480 -0.78900
O 	O 	0.48100 0.91660 0.05770 -0.83000
O 	O 	0.39110 0.85560 0.43400 -0.77800
O 	O 	0.36150 0.89170 0.06350 -0.76600
O 	O 	0.39610 0.00080 0.00950 -0.77600
O 	O 	0.40940 0.96310 0.23720 -0.82000
O 	O 	0.28140 0.84330 0.55080 -0.76200
Al	Al	0.69830 0.67110 0.11990 2.38100
Al	Al	0.43060 0.56560 0.09410 2.38300
P 	P 	0.67620 0.67880 0.43220 0.76200
P 	P 	0.58670 0.55780 0.09140 0.80700
O 	O 	0.71430 0.66550 0.30730 -0.81300
O 	O 	0.66380 0.75070 0.44480 -0.78900
O 	O 	0.51900 0.58340 0.05770 -0.83000
O 	O 	0.60890 0.64440 0.43400 -0.77800
O 	O 	0.63850 0.60830 0.06350 -0.76600
O 	O 	0.60390 0.49920 0.00950 -0.77500
O 	O 	0.59060 0.53690 0.23720 -0.82000
O 	O 	0.71860 0.65670 0.55080 -0.76200
Al	Al	0.19830 0.17110 0.11990 2.38100
Al	Al	0.93060 0.06560 0.09410 2.38300
P 	P 	0.17620 0.17880 0.43220 0.76200
P 	P 	0.08670 0.05780 0.09140 0.80700
O 	O 	0.21430 0.16550 0.30730 -0.81300
O 	O 	0.16380 0.25070 0.44480 -0.78900
O 	O 	0.01900 0.08340 0.05770 -0.83000
O 	O 	0.10890 0.14440 0.43400 -0.77800
O 	O 	0.13850 0.10830 0.06350 -0.76600
O 	O 	0.10390 0.99920 0.00950 -0.77600
O 	O 	0.09060 0.03690 0.23720 -0.82000
O 	O 	0.21860 0.15670 0.55080 -0.76200
Al	Al	0.80170 0.67110 0.61990 2.38100
Al	Al	0.06940 0.56560 0.59410 2.38300
P 	P 	0.82380 0.67880 0.93220 0.76200
P 	P 	0.91330 0.55780 0.59140 0.80700
O 	O 	0.78570 0.66550 0.80730 -0.81300
O 	O 	0.83620 0.75070 0.94480 -0.78900
O 	O 	0.98100 0.58340 0.55770 -0.83000
O 	O 	0.89110 0.64440 0.93400 -0.77800
O 	O 	0.86150 0.60830 0.56350 -0.76600
O 	O 	0.89610 0.49920 0.50950 -0.77500
O 	O 	0.90940 0.53690 0.73720 -0.82000
O 	O 	0.78140 0.65670 0.05080 -0.76200
Al	Al	0.30170 0.17110 0.61990 2.38100
Al	Al	0.56940 0.06560 0.59410 2.38300
P 	P 	0.32380 0.17880 0.93220 0.76200
P 	P 	0.41330 0.05780 0.59140 0.80700
O 	O 	0.28570 0.16550 0.80730 -0.81300
O 	O 	0.33620 0.25070 0.94480 -0.78900
O 	O 	0.48100 0.08340 0.55770 -0.83000
O 	O 	0.39110 0.14440 0.93400 -0.77800
O 	O 	0.36150 0.10830 0.56350 -0.76600
O 	O 	0.39610 0.99920 0.50950 -0.77600
O 	O 	0.40940 0.03690 0.73720 -0.82000
O 	O 	0.28140 0.15670 0.05080 -0.76200
Al	Al	0.69830 0.32890 0.61990 2.38100
Al	Al	0.43060 0.43440 0.59410 2.38300
P 	P 	0.67620 0.32120 0.93220 0.76200
P 	P 	0.58670 0.44220 0.59140 0.80700
O 	O 	0.71430 0.33450 0.80730 -0.81300
O 	O 	0.66380 0.24930 0.94480 -0.78900
O 	O 	0.51900 0.41660 0.55770 -0.83000
O 	O 	0.60890 0.35560 0.93400 -0.77800
O 	O 	0.63850 0.39170 0.56350 -0.76600
O 	O 	0.60390 0.50080 0.50950 -0.77500
O 	O 	0.59060 0.46310 0.73720 -0.82000
O 	O 	0.71860 0.34330 0.05080 -0.76200
Al	Al	0.19830 0.82890 0.61990 2.38100
Al	Al	0.93060 0.93440 0.59410 2.38300
P 	P 	0.17620 0.82120 0.93220 0.76200
P 	P 	0.08670 0.94220 0.59140 0.80700
O 	O 	0.21430 0.83450 0.80730 -0.81300
O 	O 	0.16380 0.74930 0.94480 -0.78900
O 	O 	0.01900 0.91660 0.55770 -0.83000
O 	O 	0.10890 0.85560 0.93400 -0.77800
O 	O 	0.13850 0.89170 0.56350 -0.76600
O 	O 	0.10390 0.00080 0.50950 -0.77600
O 	O 	0.09060 0.96310 0.73720 -0.82000
O 	O 	0.21860 0.84330 0.05080 -0.76200
Al	Al	0.19830 0.67110 0.88010 2.38100
Al	Al	0.93060 0.56560 0.90590 2.38300
P 	P 	0.17620 0.67880 0.56780 0.76200
P 	P 	0.08670 0.55780 0.90860 0.80700
O 	O 	0.21430 0.66550 0.69270 -0.81300
O 	O 	0.16380 0.75070 0.55520 -0.78900
O 	O 	0.01900 0.58340 0.94230 -0.83000
O 	O 	0.10890 0.64440 0.56600 -0.77800
O 	O 	0.13850 0.60830 0.93650 -0.76600
O 	O 	0.10390 0.49920 0.99050 -0.77500
O 	O 	0.09060 0.53690 0.76280 -0.82000
O 	O 	0.21860 0.65670 0.44920 -0.76200
Al	Al	0.69830 0.17110 0.88010 2.38100
Al	Al	0.43060 0.06560 0.90590 2.38300
P 	P 	0.67620 0.17880 0.56780 0.76200
P 	P 	0.58670 0.05780 0.90860 0.80700
O 	O 	0.71430 0.16550 0.69270 -0.81300
O 	O 	0.66380 0.25070 0.55520 -0.78900
O 	O 	0.51900 0.08340 0.94230 -0.83000
O 	O 	0.60890 0.14440 0.56600 -0.77800
O 	O 	0.63850 0.10830 0.93650 -0.76600
O 	O 	0.60390 0.99920 0.99050 -0.77600
O 	O 	0.59060 0.03690 0.76280 -0.82000
O 	O 	0.71860 0.15670 0.44920 -0.76200
Al	Al	0.30170 0.32890 0.88010 2.38100
Al	Al	0.56940 0.43440 0.90590 2.38300
P 	P 	0.32380 0.32120 0.56780 0.76200
P 	P 	0.41330 0.44220 0.90860 0.80700
O 	O 	0.28570 0.33450 0.69270 -0.81300
O 	O 	0.33620 0.24930 0.55520 -0.78900
O 	O 	0.48100 0.41660 0.94230 -0.83000
O 	O 	0.39110 0.35560 0.56600 -0.77800
O 	O 	0.36150 0.39170 0.93650 -0.76600
O 	O 	0.39610 0.50080 0.99050 -0.77500
O 	O 	0.40940 0.46310 0.76280 -0.82000
O 	O 	0.28140 0.34330 0.44920 -0.76200
Al	Al	0.80170 0.82890 0.88010 2.38100
Al	Al	0.06940 0.93440 0.90590 2.38300
P 	P 	0.82380 0.82120 0.56780 0.76200
P 	P 	0.91330 0.94220 0.90860 0.80700
O 	O 	0.78570 0.83450 0.69270 -0.81300
O 	O 	0.83620 0.74930 0.55520 -0.78900
O 	O 	0.98100 0.91660 0.94230 -0.83000
O 	O 	0.89110 0.85560 0.56600 -0.77800
O 	O 	0.86150 0.89170 0.93650 -0.76600
O 	O 	0.89610 0.00080 0.99050 -0.77600
O 	O 	0.90940 0.96310 0.76280 -0.82000
O 	O 	0.78140 0.84330 0.44920 -0.76200
