data_crystal

_cell_length_a 13.82010
_cell_length_b 13.18700
_cell_length_c 13.85270
_cell_angle_alpha 90.00000
_cell_angle_beta  90.80400
_cell_angle_gamma 90.00000

_symmetry_space_group_name_	'P 1'
_symmetry_space_group_name_H-M	'P 1'

loop_
_symmetry_equiv_pos_as_xyz
  x,y,z

loop_
_atom_site_label
_atom_site_type_symbol
_atom_site_fract_x
_atom_site_fract_y
_atom_site_fract_z
_atom_site_charge
Al	Al	0.12390 0.85900 0.22540 2.37400
Al	Al	0.02500 0.74060 0.62360 2.37500
Co	Co	0.12390 0.14100 0.72540 1.18600
Co	Co	0.02500 0.25940 0.12360 1.18900
P 	P 	0.02920 0.26070 0.89460 0.41300
P 	P 	0.14470 0.62510 0.78060 0.63800
O 	O 	0.06890 0.26030 0.99830 -0.46400
O 	O 	0.99110 0.36590 0.86960 -0.34500
O 	O 	0.12040 0.51790 0.74800 -0.49300
O 	O 	0.08000 0.65460 0.86350 -0.83000
O 	O 	0.08960 0.00480 0.75710 -0.46800
O 	O 	0.13320 0.70030 0.69840 -0.77600
O 	O 	0.00160 0.87570 0.65870 -0.76500
O 	O 	0.11320 0.23500 0.82840 -0.46800
O 	O 	0.24790 0.62720 0.81890 -0.43800
O 	O 	0.94860 0.18310 0.88500 -0.39400
Al	Al	0.62390 0.35900 0.22540 2.37500
Al	Al	0.52500 0.24060 0.62360 2.37900
Co	Co	0.62390 0.64100 0.72540 1.19500
Co	Co	0.52500 0.75940 0.12360 1.22300
P 	P 	0.52920 0.76070 0.89460 0.55500
P 	P 	0.64470 0.12510 0.78060 0.64000
O 	O 	0.56890 0.76030 0.99830 -0.46100
O 	O 	0.49110 0.86590 0.86960 -0.45800
O 	O 	0.62040 0.01790 0.74800 -0.47100
O 	O 	0.58000 0.15460 0.86350 -0.78400
O 	O 	0.58960 0.50480 0.75710 -0.46800
O 	O 	0.63320 0.20030 0.69840 -0.75400
O 	O 	0.50160 0.37570 0.65870 -0.73500
O 	O 	0.61320 0.73500 0.82840 -0.46900
O 	O 	0.74790 0.12720 0.81890 -0.43000
O 	O 	0.44860 0.68310 0.88500 -0.48300
Al	Al	0.87610 0.85900 0.27460 2.37600
Al	Al	0.97500 0.74060 0.87640 2.38100
Co	Co	0.87610 0.14100 0.77460 1.20100
Co	Co	0.97500 0.25940 0.37640 1.24000
P 	P 	0.97080 0.26070 0.60540 0.70100
P 	P 	0.85530 0.62510 0.71940 0.64000
O 	O 	0.93110 0.26030 0.50170 -0.41600
O 	O 	0.00890 0.36590 0.63040 -0.53600
O 	O 	0.87960 0.51790 0.75200 -0.44200
O 	O 	0.92000 0.65460 0.63650 -0.72000
O 	O 	0.91040 0.00480 0.74290 -0.38700
O 	O 	0.86680 0.70030 0.80160 -0.74600
O 	O 	0.99840 0.87570 0.84130 -0.65100
O 	O 	0.88680 0.23500 0.67160 -0.46300
O 	O 	0.75210 0.62720 0.68110 -0.42200
O 	O 	0.05140 0.18310 0.61500 -0.55200
Al	Al	0.37610 0.35900 0.27460 2.37500
Al	Al	0.47500 0.24060 0.87640 2.37700
Co	Co	0.37610 0.64100 0.77460 1.19300
Co	Co	0.47500 0.75940 0.37640 1.20800
P 	P 	0.47080 0.76070 0.60540 0.55500
P 	P 	0.35530 0.12510 0.71940 0.63900
O 	O 	0.43110 0.76030 0.50170 -0.42600
O 	O 	0.50890 0.86590 0.63040 -0.44500
O 	O 	0.37960 0.01790 0.75200 -0.47700
O 	O 	0.42000 0.15460 0.63650 -0.76900
O 	O 	0.41040 0.50480 0.74290 -0.46900
O 	O 	0.36680 0.20030 0.80160 -0.76700
O 	O 	0.49840 0.37570 0.84130 -0.75100
O 	O 	0.38680 0.73500 0.67160 -0.46700
O 	O 	0.25210 0.12720 0.68110 -0.42900
O 	O 	0.55140 0.68310 0.61500 -0.46600
P 	P 	0.97080 0.73930 0.10540 0.80300
P 	P 	0.85530 0.37490 0.21940 0.61000
O 	O 	0.93110 0.73970 0.00170 -0.64700
O 	O 	0.00890 0.63410 0.13040 -0.57000
O 	O 	0.87960 0.48210 0.25200 -0.42100
O 	O 	0.92000 0.34540 0.13650 -0.41200
O 	O 	0.91040 0.99520 0.24290 -0.65300
O 	O 	0.86680 0.29970 0.30160 -0.47700
O 	O 	0.99840 0.12430 0.34130 -0.36700
O 	O 	0.88680 0.76500 0.17160 -0.74200
O 	O 	0.75210 0.37280 0.18110 -0.66500
O 	O 	0.05140 0.81690 0.11500 -0.85900
P 	P 	0.47080 0.23930 0.10540 0.65400
P 	P 	0.35530 0.87490 0.21940 0.60900
O 	O 	0.43110 0.23970 0.00170 -0.66400
O 	O 	0.50890 0.13410 0.13040 -0.47600
O 	O 	0.37960 0.98210 0.25200 -0.46200
O 	O 	0.42000 0.84540 0.13650 -0.46700
O 	O 	0.41040 0.49520 0.24290 -0.73300
O 	O 	0.36680 0.79970 0.30160 -0.49800
O 	O 	0.49840 0.62430 0.34130 -0.46700
O 	O 	0.38680 0.26500 0.17160 -0.74700
O 	O 	0.25210 0.87280 0.18110 -0.67500
O 	O 	0.55140 0.31690 0.11500 -0.77100
P 	P 	0.02920 0.73930 0.39460 0.50700
P 	P 	0.14470 0.37490 0.28060 0.60800
O 	O 	0.06890 0.73970 0.49830 -0.70700
O 	O 	0.99110 0.63410 0.36960 -0.37400
O 	O 	0.12040 0.48210 0.24800 -0.47400
O 	O 	0.08000 0.34540 0.36350 -0.53100
O 	O 	0.08960 0.99520 0.25710 -0.73900
O 	O 	0.13320 0.29970 0.19840 -0.50300
O 	O 	0.00160 0.12430 0.15870 -0.48000
O 	O 	0.11320 0.76500 0.32840 -0.75000
O 	O 	0.24790 0.37280 0.31890 -0.68100
O 	O 	0.94860 0.81690 0.38500 -0.69600
P 	P 	0.52920 0.23930 0.39460 0.65500
P 	P 	0.64470 0.87490 0.28060 0.61000
O 	O 	0.56890 0.23970 0.49830 -0.69200
O 	O 	0.49110 0.13410 0.36960 -0.48800
O 	O 	0.62040 0.98210 0.24800 -0.45500
O 	O 	0.58000 0.84540 0.36350 -0.48000
O 	O 	0.58960 0.49520 0.25710 -0.73100
O 	O 	0.63320 0.79970 0.19840 -0.48500
O 	O 	0.50160 0.62430 0.15870 -0.45400
O 	O 	0.61320 0.26500 0.32840 -0.74800
O 	O 	0.74790 0.87280 0.31890 -0.67300
O 	O 	0.44860 0.31690 0.38500 -0.78600
Co	Co	0.00000 0.44220 0.75000 1.13200
P 	P 	0.00000 0.94060 0.75000 0.51300
Co	Co	0.50000 0.94220 0.75000 1.17400
P 	P 	0.50000 0.44060 0.75000 0.66200
Co	Co	0.00000 0.55780 0.25000 1.13500
P 	P 	0.00000 0.05940 0.25000 0.51500
Co	Co	0.50000 0.05780 0.25000 1.18100
P 	P 	0.50000 0.55940 0.25000 0.65900
