data_crystal

_cell_length_a 14.13000
_cell_length_b 13.17800
_cell_length_c 14.01800
_cell_angle_alpha 90.00000
_cell_angle_beta  90.56100
_cell_angle_gamma 90.00000

_symmetry_space_group_name_	'P 1'
_symmetry_space_group_name_H-M	'P 1'

loop_
_symmetry_equiv_pos_as_xyz
  x,y,z

loop_
_atom_site_label
_atom_site_type_symbol
_atom_site_fract_x
_atom_site_fract_y
_atom_site_fract_z
_atom_site_charge
Al	Al	0.12390 0.85810 0.22570 2.37200
Al	Al	0.01920 0.74250 0.62290 2.37000
Co	Co	0.12390 0.14190 0.72570 1.18300
Co	Co	0.01920 0.25750 0.12290 1.16800
P 	P 	0.02540 0.26250 0.89330 0.43300
P 	P 	0.14430 0.62910 0.77500 0.67300
O 	O 	0.05970 0.26340 0.99790 -0.47200
O 	O 	0.99340 0.36910 0.86810 -0.35000
O 	O 	0.11850 0.52200 0.74120 -0.49500
O 	O 	0.08320 0.65500 0.85900 -0.81900
O 	O 	0.08920 0.00270 0.74760 -0.46900
O 	O 	0.12620 0.70360 0.69640 -0.79100
O 	O 	0.99090 0.87850 0.66130 -0.63300
O 	O 	0.10600 0.23110 0.83020 -0.47800
O 	O 	0.24510 0.63440 0.80730 -0.44900
O 	O 	0.94360 0.18790 0.88380 -0.40300
Al	Al	0.62390 0.35810 0.22570 2.37500
Al	Al	0.51920 0.24250 0.62290 2.37800
Co	Co	0.62390 0.64190 0.72570 1.19300
Co	Co	0.51920 0.75750 0.12290 1.21900
P 	P 	0.52540 0.76250 0.89330 0.56900
P 	P 	0.64430 0.12910 0.77500 0.67200
O 	O 	0.55970 0.76340 0.99790 -0.46300
O 	O 	0.49340 0.86910 0.86810 -0.45900
O 	O 	0.61850 0.02200 0.74120 -0.47300
O 	O 	0.58320 0.15500 0.85900 -0.78100
O 	O 	0.58920 0.50270 0.74760 -0.47300
O 	O 	0.62620 0.20360 0.69640 -0.76400
O 	O 	0.49090 0.37850 0.66130 -0.73500
O 	O 	0.60600 0.73110 0.83020 -0.48000
O 	O 	0.74510 0.13440 0.80730 -0.44200
O 	O 	0.44360 0.68790 0.88380 -0.48400
Al	Al	0.87610 0.85810 0.27430 2.37500
Al	Al	0.98080 0.74250 0.87710 2.38200
Co	Co	0.87610 0.14190 0.77430 1.20000
Co	Co	0.98080 0.25750 0.37710 1.25100
P 	P 	0.97460 0.26250 0.60670 0.70900
P 	P 	0.85570 0.62910 0.72500 0.67000
O 	O 	0.94030 0.26340 0.50210 -0.41300
O 	O 	0.00660 0.36910 0.63190 -0.53500
O 	O 	0.88150 0.52200 0.75880 -0.44600
O 	O 	0.91680 0.65500 0.64100 -0.72700
O 	O 	0.91080 0.00270 0.75240 -0.39700
O 	O 	0.87380 0.70360 0.80360 -0.75200
O 	O 	0.00910 0.87850 0.83870 -0.77600
O 	O 	0.89400 0.23110 0.66980 -0.47400
O 	O 	0.75490 0.63440 0.69270 -0.43700
O 	O 	0.05640 0.18790 0.61620 -0.54900
Al	Al	0.37610 0.35810 0.27430 2.37400
Al	Al	0.48080 0.24250 0.87710 2.37600
Co	Co	0.37610 0.64190 0.77430 1.19100
Co	Co	0.48080 0.75750 0.37710 1.20500
P 	P 	0.47460 0.76250 0.60670 0.56800
P 	P 	0.35570 0.12910 0.72500 0.67100
O 	O 	0.44030 0.76340 0.50210 -0.43100
O 	O 	0.50660 0.86910 0.63190 -0.44700
O 	O 	0.38150 0.02200 0.75880 -0.47900
O 	O 	0.41680 0.15500 0.64100 -0.76800
O 	O 	0.41080 0.50270 0.75240 -0.47600
O 	O 	0.37380 0.20360 0.80360 -0.77700
O 	O 	0.50910 0.37850 0.83870 -0.74800
O 	O 	0.39400 0.73110 0.66980 -0.47700
O 	O 	0.25490 0.13440 0.69270 -0.44300
O 	O 	0.55640 0.68790 0.61620 -0.47000
P 	P 	0.97460 0.73750 0.10670 0.82400
P 	P 	0.85570 0.37090 0.22500 0.63900
O 	O 	0.94030 0.73660 0.00210 -0.65000
O 	O 	0.00660 0.63090 0.13190 -0.57200
O 	O 	0.88150 0.47800 0.25880 -0.42500
O 	O 	0.91680 0.34500 0.14100 -0.42400
O 	O 	0.91080 0.99730 0.25240 -0.66000
O 	O 	0.87380 0.29640 0.30360 -0.47700
O 	O 	0.00910 0.12150 0.33870 -0.50900
O 	O 	0.89400 0.76890 0.16980 -0.76100
O 	O 	0.75490 0.36560 0.19270 -0.67600
O 	O 	0.05640 0.81210 0.11620 -0.86000
P 	P 	0.47460 0.23750 0.10670 0.67800
P 	P 	0.35570 0.87090 0.22500 0.64100
O 	O 	0.44030 0.23660 0.00210 -0.67700
O 	O 	0.50660 0.13090 0.13190 -0.47800
O 	O 	0.38150 0.97800 0.25880 -0.46600
O 	O 	0.41680 0.84500 0.14100 -0.47400
O 	O 	0.41080 0.49730 0.25240 -0.73500
O 	O 	0.37380 0.79640 0.30360 -0.50000
O 	O 	0.50910 0.62150 0.33870 -0.47300
O 	O 	0.39400 0.26890 0.16980 -0.76600
O 	O 	0.25490 0.86560 0.19270 -0.68700
O 	O 	0.55640 0.31210 0.11620 -0.77500
P 	P 	0.02540 0.73750 0.39330 0.53500
P 	P 	0.14430 0.37090 0.27500 0.64200
O 	O 	0.05970 0.73660 0.49790 -0.72700
O 	O 	0.99340 0.63090 0.36810 -0.37700
O 	O 	0.11850 0.47800 0.24120 -0.47700
O 	O 	0.08320 0.34500 0.35900 -0.53100
O 	O 	0.08920 0.99730 0.24760 -0.73800
O 	O 	0.12620 0.29640 0.19640 -0.50900
O 	O 	0.99090 0.12150 0.16130 -0.34900
O 	O 	0.10600 0.76890 0.33020 -0.76900
O 	O 	0.24510 0.36560 0.30730 -0.69000
O 	O 	0.94360 0.81210 0.38380 -0.70500
P 	P 	0.52540 0.23750 0.39330 0.67800
P 	P 	0.64430 0.87090 0.27500 0.64100
O 	O 	0.55970 0.23660 0.49790 -0.70200
O 	O 	0.49340 0.13090 0.36810 -0.48800
O 	O 	0.61850 0.97800 0.24120 -0.45900
O 	O 	0.58320 0.84500 0.35900 -0.48600
O 	O 	0.58920 0.49730 0.24760 -0.73100
O 	O 	0.62620 0.79640 0.19640 -0.48800
O 	O 	0.49090 0.62150 0.16130 -0.46200
O 	O 	0.60600 0.26890 0.33020 -0.76700
O 	O 	0.74510 0.86560 0.30730 -0.68300
O 	O 	0.44360 0.31210 0.38380 -0.78900
Co	Co	0.00000 0.44680 0.75000 1.13200
P 	P 	0.00000 0.94060 0.75000 0.53600
Co	Co	0.50000 0.94680 0.75000 1.17100
P 	P 	0.50000 0.44060 0.75000 0.68600
Co	Co	0.00000 0.55320 0.25000 1.13300
P 	P 	0.00000 0.05940 0.25000 0.53600
Co	Co	0.50000 0.05320 0.25000 1.17900
P 	P 	0.50000 0.55940 0.25000 0.67900
