data_crystal

_cell_length_a 12.92280
_cell_length_b 14.22620
_cell_length_c 14.19780
_cell_angle_alpha 90.00000
_cell_angle_beta  92.79500
_cell_angle_gamma 90.00000

_symmetry_space_group_name_	'P 1'
_symmetry_space_group_name_H-M	'P 1'

loop_
_symmetry_equiv_pos_as_xyz
  x,y,z

loop_
_atom_site_label
_atom_site_type_symbol
_atom_site_fract_x
_atom_site_fract_y
_atom_site_fract_z
_atom_site_charge
Co	Co	0.09250 0.23760 0.87170 1.02400
Co	Co	0.50520 0.37370 0.77150 1.17700
Co	Co	0.51310 0.12560 0.75760 1.16900
Ga	Ga	0.80590 0.25880 0.72630 2.03000
Ga	Ga	0.10890 0.26650 0.60330 -18.94900
Co	Co	0.12070 0.25680 0.61600 31.01000
P 	P 	0.09830 0.23470 0.10350 0.57500
P 	P 	0.98750 0.10670 0.71360 0.57100
P 	P 	0.99010 0.39360 0.74460 0.62400
P 	P 	0.15330 0.25280 0.39220 0.68700
P 	P 	0.30610 0.24620 0.77530 0.81900
O 	O 	0.08020 0.14560 0.16060 -0.53300
O 	O 	0.06270 0.12680 0.79770 -0.98900
O 	O 	0.06060 0.18700 0.38250 -0.73800
O 	O 	0.88790 0.36740 0.69170 -0.82900
O 	O 	0.23630 0.25930 0.85870 -0.77200
O 	O 	0.08120 0.37010 0.68550 -2.17000
O 	O 	0.99830 0.33700 0.83690 -0.72400
O 	O 	0.02150 0.15600 0.62470 -2.57100
O 	O 	0.21210 0.26040 0.11610 -0.66900
O 	O 	0.38350 0.16880 0.80450 -0.56200
O 	O 	0.87810 0.13830 0.73320 -0.71000
O 	O 	0.12540 0.34800 0.34710 -0.59800
O 	O 	0.24590 0.21140 0.34290 -0.72800
O 	O 	0.06750 0.21550 0.00090 -0.47700
O 	O 	0.36170 0.33950 0.76210 -0.73900
O 	O 	0.24550 0.21830 0.68600 -3.37400
O 	O 	0.02980 0.31350 0.13800 -0.52100
O 	O 	0.18650 0.26490 0.49560 -2.00200
O 	O 	0.98430 0.00230 0.69390 -0.52300
O 	O 	0.99130 0.49590 0.77090 -0.49700
Co	Co	0.40750 0.73760 0.62830 1.02600
Co	Co	0.99480 0.87370 0.72850 1.17500
Co	Co	0.98690 0.62560 0.74240 1.16800
Ga	Ga	0.69410 0.75880 0.77370 2.02900
Ga	Ga	0.39110 0.76650 0.89670 -18.95600
Co	Co	0.37930 0.75680 0.88400 31.01800
P 	P 	0.40170 0.73470 0.39650 0.57500
P 	P 	0.51250 0.60670 0.78640 0.55600
P 	P 	0.50990 0.89360 0.75540 0.61900
P 	P 	0.34670 0.75280 0.10780 0.68700
P 	P 	0.19390 0.74620 0.72470 0.81900
O 	O 	0.41980 0.64560 0.33940 -0.53100
O 	O 	0.43730 0.62680 0.70230 -0.98100
O 	O 	0.43940 0.68700 0.11750 -0.73600
O 	O 	0.61210 0.86740 0.80830 -0.83200
O 	O 	0.26370 0.75930 0.64130 -0.77100
O 	O 	0.41880 0.87010 0.81450 -2.16800
O 	O 	0.50170 0.83700 0.66310 -0.73100
O 	O 	0.47850 0.65600 0.87530 -2.56500
O 	O 	0.28790 0.76040 0.38390 -0.66700
O 	O 	0.11650 0.66880 0.69550 -0.56500
O 	O 	0.62190 0.63830 0.76680 -0.71200
O 	O 	0.37460 0.84800 0.15290 -0.59500
O 	O 	0.25410 0.71140 0.15710 -0.72500
O 	O 	0.43250 0.71550 0.49910 -0.47700
O 	O 	0.13830 0.83950 0.73790 -0.74200
O 	O 	0.25450 0.71830 0.81400 -3.37800
O 	O 	0.47020 0.81350 0.36200 -0.52200
O 	O 	0.31350 0.76490 0.00440 -1.99600
O 	O 	0.51570 0.50230 0.80610 -0.52800
O 	O 	0.50870 0.99590 0.72910 -0.50300
Co	Co	0.90750 0.76240 0.12830 1.02300
Co	Co	0.49480 0.62630 0.22850 1.17600
Co	Co	0.48690 0.87440 0.24240 1.16800
Ga	Ga	0.19410 0.74120 0.27370 2.02900
Ga	Ga	0.89110 0.73350 0.39670 -18.94900
Co	Co	0.87930 0.74320 0.38400 31.01000
P 	P 	0.90170 0.76530 0.89650 0.57500
P 	P 	0.01250 0.89330 0.28640 0.57100
P 	P 	0.00990 0.60640 0.25540 0.62400
P 	P 	0.84670 0.74720 0.60780 0.68700
P 	P 	0.69390 0.75380 0.22470 0.81900
O 	O 	0.91980 0.85440 0.83940 -0.53300
O 	O 	0.93730 0.87320 0.20230 -0.98900
O 	O 	0.93940 0.81300 0.61750 -0.73800
O 	O 	0.11210 0.63260 0.30830 -0.82900
O 	O 	0.76370 0.74070 0.14130 -0.77200
O 	O 	0.91880 0.62990 0.31450 -2.17000
O 	O 	0.00170 0.66300 0.16310 -0.72400
O 	O 	0.97850 0.84400 0.37530 -2.57100
O 	O 	0.78790 0.73960 0.88390 -0.66900
O 	O 	0.61650 0.83120 0.19550 -0.56200
O 	O 	0.12190 0.86170 0.26680 -0.71000
O 	O 	0.87460 0.65200 0.65290 -0.59800
O 	O 	0.75410 0.78860 0.65710 -0.72800
O 	O 	0.93250 0.78450 0.99910 -0.47700
O 	O 	0.63830 0.66050 0.23790 -0.73900
O 	O 	0.75450 0.78170 0.31400 -3.37400
O 	O 	0.97020 0.68650 0.86200 -0.52100
O 	O 	0.81350 0.73510 0.50440 -2.00200
O 	O 	0.01570 0.99770 0.30610 -0.52300
O 	O 	0.00870 0.50410 0.22910 -0.49700
Co	Co	0.59250 0.26240 0.37170 1.02600
Co	Co	0.00520 0.12630 0.27150 1.17500
Co	Co	0.01310 0.37440 0.25760 1.16800
Ga	Ga	0.30590 0.24120 0.22630 2.02900
Ga	Ga	0.60890 0.23350 0.10330 -18.95600
Co	Co	0.62070 0.24320 0.11600 31.01800
P 	P 	0.59830 0.26530 0.60350 0.57500
P 	P 	0.48750 0.39330 0.21360 0.55600
P 	P 	0.49010 0.10640 0.24460 0.61900
P 	P 	0.65330 0.24720 0.89220 0.68700
P 	P 	0.80610 0.25380 0.27530 0.81900
O 	O 	0.58020 0.35440 0.66060 -0.53100
O 	O 	0.56270 0.37320 0.29770 -0.98100
O 	O 	0.56060 0.31300 0.88250 -0.73600
O 	O 	0.38790 0.13260 0.19170 -0.83200
O 	O 	0.73630 0.24070 0.35870 -0.77100
O 	O 	0.58120 0.12990 0.18550 -2.16800
O 	O 	0.49830 0.16300 0.33690 -0.73100
O 	O 	0.52150 0.34400 0.12470 -2.56500
O 	O 	0.71210 0.23960 0.61610 -0.66700
O 	O 	0.88350 0.33120 0.30450 -0.56500
O 	O 	0.37810 0.36170 0.23320 -0.71200
O 	O 	0.62540 0.15200 0.84710 -0.59500
O 	O 	0.74590 0.28860 0.84290 -0.72500
O 	O 	0.56750 0.28450 0.50090 -0.47700
O 	O 	0.86170 0.16050 0.26210 -0.74200
O 	O 	0.74550 0.28170 0.18600 -3.37800
O 	O 	0.52980 0.18650 0.63800 -0.52200
O 	O 	0.68650 0.23510 0.99560 -1.99600
O 	O 	0.48430 0.49770 0.19390 -0.52800
O 	O 	0.49130 0.00410 0.27090 -0.50300
