data_crystal

_cell_length_a 13.80780
_cell_length_b 13.24900
_cell_length_c 13.84200
_cell_angle_alpha 90.00000
_cell_angle_beta  91.32800
_cell_angle_gamma 90.00000

_symmetry_space_group_name_	'P 1'
_symmetry_space_group_name_H-M	'P 1'

loop_
_symmetry_equiv_pos_as_xyz
  x,y,z

loop_
_atom_site_label
_atom_site_type_symbol
_atom_site_fract_x
_atom_site_fract_y
_atom_site_fract_z
_atom_site_charge
Ga	Ga	0.12330 0.86070 0.22430 2.03500
Co	Co	0.02640 0.73910 0.62280 1.15700
Co	Co	0.87670 0.13930 0.77570 1.19000
P 	P 	0.96820 0.26090 0.60600 0.67300
P 	P 	0.85580 0.62270 0.71590 0.56400
O 	O 	0.92570 0.26410 0.50280 -0.39800
O 	O 	0.00810 0.36590 0.63300 -0.52100
O 	O 	0.88190 0.51710 0.75100 -0.40500
O 	O 	0.92100 0.65000 0.63380 -0.41900
O 	O 	0.90990 0.00130 0.74440 -0.36900
O 	O 	0.86650 0.69970 0.79700 -0.44200
O 	O 	0.00300 0.87310 0.84180 -0.47700
O 	O 	0.88410 0.23600 0.67260 -0.45000
O 	O 	0.75210 0.62190 0.67660 -0.40000
O 	O 	0.04770 0.18240 0.61200 -0.53800
Ga	Ga	0.62330 0.36070 0.22430 2.03900
Co	Co	0.52640 0.23910 0.62280 1.20200
Co	Co	0.37670 0.63930 0.77570 1.18300
P 	P 	0.46820 0.76090 0.60600 0.53900
P 	P 	0.35580 0.12270 0.71590 0.56500
O 	O 	0.42570 0.76410 0.50280 -0.41100
O 	O 	0.50810 0.86590 0.63300 -0.43600
O 	O 	0.38190 0.01710 0.75100 -0.43900
O 	O 	0.42100 0.15000 0.63380 -0.46500
O 	O 	0.40990 0.50130 0.74440 -0.44100
O 	O 	0.36650 0.19970 0.79700 -0.46200
O 	O 	0.50300 0.37310 0.84180 -0.43900
O 	O 	0.38410 0.73600 0.67260 -0.45300
O 	O 	0.25210 0.12190 0.67660 -0.40800
O 	O 	0.54770 0.68240 0.61200 -0.45800
Ga	Ga	0.87670 0.86070 0.27570 2.04200
Co	Co	0.97360 0.73910 0.87720 1.24600
Co	Co	0.12330 0.13930 0.72430 1.17500
P 	P 	0.03180 0.26090 0.89400 0.40700
P 	P 	0.14420 0.62270 0.78410 0.56500
O 	O 	0.07430 0.26410 0.99720 -0.41500
O 	O 	0.99190 0.36590 0.86700 -0.33400
O 	O 	0.11810 0.51710 0.74900 -0.45500
O 	O 	0.07900 0.65000 0.86620 -0.50400
O 	O 	0.09010 0.00130 0.75560 -0.43900
O 	O 	0.13350 0.69970 0.70300 -0.47800
O 	O 	0.99700 0.87310 0.65820 -0.33700
O 	O 	0.11590 0.23600 0.82740 -0.44800
O 	O 	0.24790 0.62190 0.82340 -0.40600
O 	O 	0.95230 0.18240 0.88800 -0.37800
Ga	Ga	0.37670 0.36070 0.27570 2.03900
Co	Co	0.47360 0.23910 0.87720 1.20500
Co	Co	0.62330 0.63930 0.72430 1.18400
P 	P 	0.53180 0.76090 0.89400 0.53900
P 	P 	0.64420 0.12270 0.78410 0.56500
O 	O 	0.57430 0.76410 0.99720 -0.40600
O 	O 	0.49190 0.86590 0.86700 -0.43600
O 	O 	0.61810 0.01710 0.74900 -0.43600
O 	O 	0.57900 0.15000 0.86620 -0.46100
O 	O 	0.59010 0.50130 0.75560 -0.43800
O 	O 	0.63350 0.19970 0.70300 -0.46000
O 	O 	0.49700 0.37310 0.65820 -0.44100
O 	O 	0.61590 0.73600 0.82740 -0.44900
O 	O 	0.74790 0.12190 0.82340 -0.39900
O 	O 	0.45230 0.68240 0.88800 -0.45800
Co	Co	0.97360 0.26090 0.37720 1.24700
P 	P 	0.03180 0.73910 0.39400 0.44000
P 	P 	0.14420 0.37730 0.28410 0.59200
O 	O 	0.07430 0.73590 0.49720 -0.42300
O 	O 	0.99190 0.63410 0.36700 -0.35500
O 	O 	0.11810 0.48290 0.24900 -0.47200
O 	O 	0.07900 0.35000 0.36620 -0.50900
O 	O 	0.09010 0.99870 0.25560 -0.64900
O 	O 	0.13350 0.30030 0.20300 -0.50300
O 	O 	0.99700 0.12690 0.15820 -0.35100
O 	O 	0.11590 0.76400 0.32740 -0.65600
O 	O 	0.24790 0.37810 0.32340 -0.59300
O 	O 	0.95230 0.81760 0.38800 -0.58300
Co	Co	0.47360 0.76090 0.37720 1.20200
P 	P 	0.53180 0.23910 0.39400 0.57700
P 	P 	0.64420 0.87730 0.28410 0.59200
O 	O 	0.57430 0.23590 0.49720 -0.41000
O 	O 	0.49190 0.13410 0.36700 -0.46000
O 	O 	0.61810 0.98290 0.24900 -0.45200
O 	O 	0.57900 0.85000 0.36620 -0.46500
O 	O 	0.59010 0.49870 0.25560 -0.64700
O 	O 	0.63350 0.80030 0.20300 -0.48300
O 	O 	0.49700 0.62690 0.15820 -0.45600
O 	O 	0.61590 0.26400 0.32740 -0.65500
O 	O 	0.74790 0.87810 0.32340 -0.58500
O 	O 	0.45230 0.31760 0.38800 -0.66600
Co	Co	0.02640 0.26090 0.12280 1.15400
P 	P 	0.96820 0.73910 0.10600 0.71400
P 	P 	0.85580 0.37730 0.21590 0.59200
O 	O 	0.92570 0.73590 0.00280 -0.40200
O 	O 	0.00810 0.63410 0.13300 -0.54700
O 	O 	0.88190 0.48290 0.25100 -0.41900
O 	O 	0.92100 0.35000 0.13380 -0.42200
O 	O 	0.90990 0.99870 0.24440 -0.57500
O 	O 	0.86650 0.30030 0.29700 -0.46500
O 	O 	0.00300 0.12690 0.34180 -0.49200
O 	O 	0.88410 0.76400 0.17260 -0.65500
O 	O 	0.75210 0.37810 0.17660 -0.58700
O 	O 	0.04770 0.81760 0.11200 -0.74800
Co	Co	0.52640 0.76090 0.12280 1.20100
P 	P 	0.46820 0.23910 0.10600 0.57700
P 	P 	0.35580 0.87730 0.21590 0.59200
O 	O 	0.42570 0.23590 0.00280 -0.42000
O 	O 	0.50810 0.13410 0.13300 -0.46200
O 	O 	0.38190 0.98290 0.25100 -0.45500
O 	O 	0.42100 0.85000 0.13380 -0.46900
O 	O 	0.40990 0.49870 0.24440 -0.65000
O 	O 	0.36650 0.80030 0.29700 -0.48600
O 	O 	0.50300 0.62690 0.34180 -0.45400
O 	O 	0.38410 0.26400 0.17260 -0.66000
O 	O 	0.25210 0.87810 0.17660 -0.59600
O 	O 	0.54770 0.31760 0.11200 -0.66700
Co	Co	0.00000 0.44120 0.75000 1.15400
P 	P 	-0.00000 0.93790 0.75000 0.44000
Co	Co	0.50000 0.94120 0.75000 1.19500
P 	P 	0.50000 0.43790 0.75000 0.57500
Co	Co	0.00000 0.55880 0.25000 1.14800
P 	P 	0.00000 0.06210 0.25000 0.48900
Co	Co	0.50000 0.05880 0.25000 1.19000
P 	P 	0.50000 0.56210 0.25000 0.62800
