data_crystal

_cell_length_a 18.69920
_cell_length_b 18.69920
_cell_length_c 35.76800
_cell_angle_alpha 90.00000
_cell_angle_beta  90.00000
_cell_angle_gamma 90.00000

_symmetry_space_group_name_	'P 1'
_symmetry_space_group_name_H-M	'P 1'

loop_
_symmetry_equiv_pos_as_xyz
  x,y,z

loop_
_atom_site_label
_atom_site_type_symbol
_atom_site_fract_x
_atom_site_fract_y
_atom_site_fract_z
_atom_site_charge
N 	N 	0.34990 0.03120 0.95970 -0.22700
N 	N 	0.21720 0.04030 0.95950 -0.19500
C 	C 	0.41760 0.06340 0.96510 0.21600
C 	C 	0.45300 0.07150 0.93000 -0.27000
C 	C 	0.40520 0.05660 0.90310 0.05300
H 	H 	0.41230 0.06310 0.87760 0.01700
C 	C 	0.33970 0.02840 0.92040 0.01600
C 	C 	0.22440 0.03110 0.92070 0.11600
C 	C 	0.17100 0.05930 0.90240 -0.20600
H 	H 	0.16860 0.06730 0.87680 0.10900
C 	C 	0.11060 0.07770 0.93250 0.31000
H 	H 	0.06410 0.09360 0.92850 -0.19300
C 	C 	0.14470 0.06380 0.96560 -0.05900
C 	C 	0.27680 0.06410 0.84220 -0.07200
H 	H 	0.27990 0.10720 0.85510 0.07100
C 	C 	0.26940 0.06510 0.80345 -0.07100
C 	C 	0.26340 0.13150 0.78342 0.35600
O 	O 	0.28860 0.18660 0.79941 -0.40500
O 	O 	0.23610 0.13220 0.75151 -0.41300
N 	N 	0.84990 0.53120 0.45970 -0.21600
N 	N 	0.71720 0.54030 0.45950 -0.19700
C 	C 	0.91760 0.56340 0.46510 0.10600
C 	C 	0.95300 0.57150 0.43000 -0.07500
C 	C 	0.90520 0.55660 0.40310 -0.06300
H 	H 	0.91230 0.56310 0.37760 0.06500
C 	C 	0.83970 0.52840 0.42040 0.09300
C 	C 	0.72440 0.53110 0.42070 0.14600
C 	C 	0.67100 0.55930 0.40240 -0.21400
H 	H 	0.66860 0.56730 0.37680 0.11600
C 	C 	0.61060 0.57770 0.43250 0.31200
H 	H 	0.56410 0.59360 0.42850 -0.18800
C 	C 	0.64470 0.56380 0.46560 -0.06500
C 	C 	0.77680 0.56410 0.34220 -0.07500
H 	H 	0.77990 0.60720 0.35510 0.07200
C 	C 	0.76940 0.56510 0.30345 -0.07300
C 	C 	0.76340 0.63150 0.28342 0.35900
O 	O 	0.78860 0.68660 0.29941 -0.40200
O 	O 	0.73610 0.63220 0.25151 -0.40900
N 	N 	0.65010 0.96880 0.95970 -0.21600
N 	N 	0.78280 0.95970 0.95950 -0.19500
C 	C 	0.58240 0.93660 0.96510 0.16300
C 	C 	0.54700 0.92850 0.93000 -0.14500
C 	C 	0.59480 0.94340 0.90310 -0.05500
H 	H 	0.58770 0.93690 0.87760 0.06400
C 	C 	0.66030 0.97160 0.92040 0.16000
C 	C 	0.77560 0.96890 0.92070 0.19800
C 	C 	0.82900 0.94070 0.90240 -0.23900
H 	H 	0.83140 0.93270 0.87680 0.13200
C 	C 	0.88940 0.92230 0.93250 0.33600
H 	H 	0.93590 0.90640 0.92850 -0.20000
C 	C 	0.85530 0.93620 0.96560 -0.05300
C 	C 	0.72320 0.93590 0.84220 -0.05200
H 	H 	0.72010 0.89280 0.85510 0.06300
C 	C 	0.73060 0.93490 0.80345 -0.04900
C 	C 	0.73660 0.86850 0.78342 0.35300
O 	O 	0.71140 0.81340 0.79941 -0.40300
O 	O 	0.76390 0.86780 0.75151 -0.40000
N 	N 	0.15010 0.46880 0.45970 -0.22000
N 	N 	0.28280 0.45970 0.45950 -0.19700
C 	C 	0.08240 0.43660 0.46510 0.14100
C 	C 	0.04700 0.42850 0.43000 -0.14200
C 	C 	0.09480 0.44340 0.40310 -0.03500
H 	H 	0.08770 0.43690 0.37760 0.04500
C 	C 	0.16030 0.47160 0.42040 0.08200
C 	C 	0.27560 0.46890 0.42070 0.14300
C 	C 	0.32900 0.44070 0.40240 -0.21400
H 	H 	0.33140 0.43270 0.37680 0.11600
C 	C 	0.38940 0.42230 0.43250 0.31300
H 	H 	0.43590 0.40640 0.42850 -0.18900
C 	C 	0.35530 0.43620 0.46560 -0.06600
C 	C 	0.22320 0.43590 0.34220 -0.07100
H 	H 	0.22010 0.39280 0.35510 0.06700
C 	C 	0.23060 0.43490 0.30345 -0.07900
C 	C 	0.23660 0.36850 0.28342 0.36100
O 	O 	0.21140 0.31340 0.29941 -0.40800
O 	O 	0.26390 0.36780 0.25151 -0.41000
N 	N 	0.96880 0.34990 0.95970 -0.21600
N 	N 	0.95970 0.21720 0.95950 -0.19400
C 	C 	0.93660 0.41760 0.96510 0.16300
C 	C 	0.92850 0.45300 0.93000 -0.14500
C 	C 	0.94340 0.40520 0.90310 -0.05500
H 	H 	0.93690 0.41230 0.87760 0.06400
C 	C 	0.97160 0.33970 0.92040 0.16000
C 	C 	0.96890 0.22440 0.92070 0.19700
C 	C 	0.94070 0.17100 0.90240 -0.23700
H 	H 	0.93270 0.16860 0.87680 0.12800
C 	C 	0.92230 0.11060 0.93250 0.32400
H 	H 	0.90640 0.06410 0.92850 -0.20000
C 	C 	0.93620 0.14470 0.96560 -0.05000
C 	C 	0.93590 0.27680 0.84220 -0.05200
H 	H 	0.89280 0.27990 0.85510 0.06300
C 	C 	0.93490 0.26940 0.80345 -0.05100
C 	C 	0.86850 0.26340 0.78342 0.35300
O 	O 	0.81340 0.28860 0.79941 -0.40300
O 	O 	0.86780 0.23610 0.75151 -0.40300
N 	N 	0.46880 0.84990 0.45970 -0.21600
N 	N 	0.45970 0.71720 0.45950 -0.19700
C 	C 	0.43660 0.91760 0.46510 0.10600
C 	C 	0.42850 0.95300 0.43000 -0.07800
C 	C 	0.44340 0.90520 0.40310 -0.06100
H 	H 	0.43690 0.91230 0.37760 0.06400
C 	C 	0.47160 0.83970 0.42040 0.09100
C 	C 	0.46890 0.72440 0.42070 0.14500
C 	C 	0.44070 0.67100 0.40240 -0.21500
H 	H 	0.43270 0.66860 0.37680 0.11600
C 	C 	0.42230 0.61060 0.43250 0.31300
H 	H 	0.40640 0.56410 0.42850 -0.18900
C 	C 	0.43620 0.64470 0.46560 -0.06600
C 	C 	0.43590 0.77680 0.34220 -0.07500
H 	H 	0.39280 0.77990 0.35510 0.07100
C 	C 	0.43490 0.76940 0.30345 -0.07300
C 	C 	0.36850 0.76340 0.28342 0.36000
O 	O 	0.31340 0.78860 0.29941 -0.40400
O 	O 	0.36780 0.73610 0.25151 -0.40900
N 	N 	0.03120 0.65010 0.95970 -0.22800
N 	N 	0.04030 0.78280 0.95950 -0.19700
C 	C 	0.06340 0.58240 0.96510 0.21500
C 	C 	0.07150 0.54700 0.93000 -0.27100
C 	C 	0.05660 0.59480 0.90310 0.05200
H 	H 	0.06310 0.58770 0.87760 0.01600
C 	C 	0.02840 0.66030 0.92040 0.01500
C 	C 	0.03110 0.77560 0.92070 0.11600
C 	C 	0.05930 0.82900 0.90240 -0.20700
H 	H 	0.06730 0.83140 0.87680 0.11200
C 	C 	0.07770 0.88940 0.93250 0.32200
H 	H 	0.09360 0.93590 0.92850 -0.19200
C 	C 	0.06380 0.85530 0.96560 -0.06200
C 	C 	0.06410 0.72320 0.84220 -0.07300
H 	H 	0.10720 0.72010 0.85510 0.07100
C 	C 	0.06510 0.73060 0.80345 -0.06900
C 	C 	0.13150 0.73660 0.78342 0.35600
O 	O 	0.18660 0.71140 0.79941 -0.40500
O 	O 	0.13220 0.76390 0.75151 -0.41000
N 	N 	0.53120 0.15010 0.45970 -0.21900
N 	N 	0.54030 0.28280 0.45950 -0.19700
C 	C 	0.56340 0.08240 0.46510 0.14100
C 	C 	0.57150 0.04700 0.43000 -0.13900
C 	C 	0.55660 0.09480 0.40310 -0.03700
H 	H 	0.56310 0.08770 0.37760 0.04600
C 	C 	0.52840 0.16030 0.42040 0.08500
C 	C 	0.53110 0.27560 0.42070 0.14400
C 	C 	0.55930 0.32900 0.40240 -0.21400
H 	H 	0.56730 0.33140 0.37680 0.11600
C 	C 	0.57770 0.38940 0.43250 0.31300
H 	H 	0.59360 0.43590 0.42850 -0.18900
C 	C 	0.56380 0.35530 0.46560 -0.06600
C 	C 	0.56410 0.22320 0.34220 -0.07100
H 	H 	0.60720 0.22010 0.35510 0.06800
C 	C 	0.56510 0.23060 0.30345 -0.07800
C 	C 	0.63150 0.23660 0.28342 0.36000
O 	O 	0.68660 0.21140 0.29941 -0.40700
O 	O 	0.63220 0.26390 0.25151 -0.41000
N 	N 	0.65010 0.03120 0.04030 -0.23100
N 	N 	0.78280 0.04030 0.04050 -0.20100
C 	C 	0.58240 0.06340 0.03490 0.19500
C 	C 	0.54700 0.07150 0.07000 -0.26000
C 	C 	0.59480 0.05660 0.09690 0.04600
H 	H 	0.58770 0.06310 0.12240 0.01700
C 	C 	0.66030 0.02840 0.07960 0.01500
C 	C 	0.77560 0.03110 0.07930 0.11500
C 	C 	0.82900 0.05930 0.09760 -0.20400
H 	H 	0.83140 0.06730 0.12320 0.11100
C 	C 	0.88940 0.07770 0.06750 0.30900
H 	H 	0.93590 0.09360 0.07150 -0.18300
C 	C 	0.85530 0.06380 0.03440 -0.07200
C 	C 	0.72320 0.06410 0.15780 -0.07200
H 	H 	0.72010 0.10720 0.14490 0.07100
C 	C 	0.73060 0.06510 0.19655 -0.06900
C 	C 	0.73660 0.13150 0.21658 0.35600
O 	O 	0.71140 0.18660 0.20059 -0.40500
O 	O 	0.76390 0.13220 0.24849 -0.41000
N 	N 	0.15010 0.53120 0.54030 -0.21900
N 	N 	0.28280 0.54030 0.54050 -0.19700
C 	C 	0.08240 0.56340 0.53490 0.14100
C 	C 	0.04700 0.57150 0.57000 -0.13900
C 	C 	0.09480 0.55660 0.59690 -0.03700
H 	H 	0.08770 0.56310 0.62240 0.04600
C 	C 	0.16030 0.52840 0.57960 0.08500
C 	C 	0.27560 0.53110 0.57930 0.14400
C 	C 	0.32900 0.55930 0.59760 -0.21400
H 	H 	0.33140 0.56730 0.62320 0.11600
C 	C 	0.38940 0.57770 0.56750 0.31300
H 	H 	0.43590 0.59360 0.57150 -0.18900
C 	C 	0.35530 0.56380 0.53440 -0.06600
C 	C 	0.22320 0.56410 0.65780 -0.07200
H 	H 	0.22010 0.60720 0.64490 0.06800
C 	C 	0.23060 0.56510 0.69655 -0.07800
C 	C 	0.23660 0.63150 0.71658 0.36000
O 	O 	0.21140 0.68660 0.70059 -0.40700
O 	O 	0.26390 0.63220 0.74849 -0.41000
N 	N 	0.34990 0.96880 0.04030 -0.21900
N 	N 	0.21720 0.95970 0.04050 -0.19900
C 	C 	0.41760 0.93660 0.03490 0.14400
C 	C 	0.45300 0.92850 0.07000 -0.13200
C 	C 	0.40520 0.94340 0.09690 -0.06300
H 	H 	0.41230 0.93690 0.12240 0.06600
C 	C 	0.33970 0.97160 0.07960 0.16400
C 	C 	0.22440 0.96890 0.07930 0.19800
C 	C 	0.17100 0.94070 0.09760 -0.23500
H 	H 	0.16860 0.93270 0.12320 0.12800
C 	C 	0.11060 0.92230 0.06750 0.31100
H 	H 	0.06410 0.90640 0.07150 -0.19100
C 	C 	0.14470 0.93620 0.03440 -0.05900
C 	C 	0.27680 0.93590 0.15780 -0.05100
H 	H 	0.27990 0.89280 0.14490 0.06200
C 	C 	0.26940 0.93490 0.19655 -0.05100
C 	C 	0.26340 0.86850 0.21658 0.35300
O 	O 	0.28860 0.81340 0.20059 -0.40400
O 	O 	0.23610 0.86780 0.24849 -0.40300
N 	N 	0.84990 0.46880 0.54030 -0.21600
N 	N 	0.71720 0.45970 0.54050 -0.19700
C 	C 	0.91760 0.43660 0.53490 0.10600
C 	C 	0.95300 0.42850 0.57000 -0.07800
C 	C 	0.90520 0.44340 0.59690 -0.06100
H 	H 	0.91230 0.43690 0.62240 0.06400
C 	C 	0.83970 0.47160 0.57960 0.09100
C 	C 	0.72440 0.46890 0.57930 0.14500
C 	C 	0.67100 0.44070 0.59760 -0.21500
H 	H 	0.66860 0.43270 0.62320 0.11600
C 	C 	0.61060 0.42230 0.56750 0.31300
H 	H 	0.56410 0.40640 0.57150 -0.18900
C 	C 	0.64470 0.43620 0.53440 -0.06600
C 	C 	0.77680 0.43590 0.65780 -0.07500
H 	H 	0.77990 0.39280 0.64490 0.07100
C 	C 	0.76940 0.43490 0.69655 -0.07300
C 	C 	0.76340 0.36850 0.71658 0.35900
O 	O 	0.78860 0.31340 0.70059 -0.40400
O 	O 	0.73610 0.36780 0.74849 -0.40900
N 	N 	0.03120 0.34990 0.04030 -0.23100
N 	N 	0.04030 0.21720 0.04050 -0.20100
C 	C 	0.06340 0.41760 0.03490 0.19600
C 	C 	0.07150 0.45300 0.07000 -0.26000
C 	C 	0.05660 0.40520 0.09690 0.04600
H 	H 	0.06310 0.41230 0.12240 0.01700
C 	C 	0.02840 0.33970 0.07960 0.01500
C 	C 	0.03110 0.22440 0.07930 0.11400
C 	C 	0.05930 0.17100 0.09760 -0.20200
H 	H 	0.06730 0.16860 0.12320 0.10700
C 	C 	0.07770 0.11060 0.06750 0.29600
H 	H 	0.09360 0.06410 0.07150 -0.18200
C 	C 	0.06380 0.14470 0.03440 -0.06900
C 	C 	0.06410 0.27680 0.15780 -0.07200
H 	H 	0.10720 0.27990 0.14490 0.07100
C 	C 	0.06510 0.26940 0.19655 -0.07100
C 	C 	0.13150 0.26340 0.21658 0.35700
O 	O 	0.18660 0.28860 0.20059 -0.40500
O 	O 	0.13220 0.23610 0.24849 -0.41300
N 	N 	0.53120 0.84990 0.54030 -0.21600
N 	N 	0.54030 0.71720 0.54050 -0.19700
C 	C 	0.56340 0.91760 0.53490 0.10600
C 	C 	0.57150 0.95300 0.57000 -0.07500
C 	C 	0.55660 0.90520 0.59690 -0.06200
H 	H 	0.56310 0.91230 0.62240 0.06500
C 	C 	0.52840 0.83970 0.57960 0.09300
C 	C 	0.53110 0.72440 0.57930 0.14600
C 	C 	0.55930 0.67100 0.59760 -0.21400
H 	H 	0.56730 0.66860 0.62320 0.11600
C 	C 	0.57770 0.61060 0.56750 0.31200
H 	H 	0.59360 0.56410 0.57150 -0.18800
C 	C 	0.56380 0.64470 0.53440 -0.06500
C 	C 	0.56410 0.77680 0.65780 -0.07500
H 	H 	0.60720 0.77990 0.64490 0.07200
C 	C 	0.56510 0.76940 0.69655 -0.07300
C 	C 	0.63150 0.76340 0.71658 0.35900
O 	O 	0.68660 0.78860 0.70059 -0.40200
O 	O 	0.63220 0.73610 0.74849 -0.40900
N 	N 	0.96880 0.65010 0.04030 -0.21900
N 	N 	0.95970 0.78280 0.04050 -0.19900
C 	C 	0.93660 0.58240 0.03490 0.14400
C 	C 	0.92850 0.54700 0.07000 -0.13200
C 	C 	0.94340 0.59480 0.09690 -0.06300
H 	H 	0.93690 0.58770 0.12240 0.06600
C 	C 	0.97160 0.66030 0.07960 0.16400
C 	C 	0.96890 0.77560 0.07930 0.19900
C 	C 	0.94070 0.82900 0.09760 -0.23700
H 	H 	0.93270 0.83140 0.12320 0.13100
C 	C 	0.92230 0.88940 0.06750 0.32400
H 	H 	0.90640 0.93590 0.07150 -0.19100
C 	C 	0.93620 0.85530 0.03440 -0.06200
C 	C 	0.93590 0.72320 0.15780 -0.05100
H 	H 	0.89280 0.72010 0.14490 0.06200
C 	C 	0.93490 0.73060 0.19655 -0.04900
C 	C 	0.86850 0.73660 0.21658 0.35300
O 	O 	0.81340 0.71140 0.20059 -0.40300
O 	O 	0.86780 0.76390 0.24849 -0.39900
N 	N 	0.46880 0.15010 0.54030 -0.22000
N 	N 	0.45970 0.28280 0.54050 -0.19700
C 	C 	0.43660 0.08240 0.53490 0.14100
C 	C 	0.42850 0.04700 0.57000 -0.14200
C 	C 	0.44340 0.09480 0.59690 -0.03500
H 	H 	0.43690 0.08770 0.62240 0.04500
C 	C 	0.47160 0.16030 0.57960 0.08200
C 	C 	0.46890 0.27560 0.57930 0.14300
C 	C 	0.44070 0.32900 0.59760 -0.21400
H 	H 	0.43270 0.33140 0.62320 0.11600
C 	C 	0.42230 0.38940 0.56750 0.31300
H 	H 	0.40640 0.43590 0.57150 -0.18900
C 	C 	0.43620 0.35530 0.53440 -0.06600
C 	C 	0.43590 0.22320 0.65780 -0.07100
H 	H 	0.39280 0.22010 0.64490 0.06700
C 	C 	0.43490 0.23060 0.69655 -0.07900
C 	C 	0.36850 0.23660 0.71658 0.36000
O 	O 	0.31340 0.21140 0.70059 -0.40800
O 	O 	0.36780 0.26390 0.74849 -0.41000
N 	N 	0.65010 0.96880 0.04030 -0.21900
N 	N 	0.78280 0.95970 0.04050 -0.19900
C 	C 	0.58240 0.93660 0.03490 0.14400
C 	C 	0.54700 0.92850 0.07000 -0.13200
C 	C 	0.59480 0.94340 0.09690 -0.06300
H 	H 	0.58770 0.93690 0.12240 0.06600
C 	C 	0.66030 0.97160 0.07960 0.16400
C 	C 	0.77560 0.96890 0.07930 0.19900
C 	C 	0.82900 0.94070 0.09760 -0.23700
H 	H 	0.83140 0.93270 0.12320 0.13100
C 	C 	0.88940 0.92230 0.06750 0.32400
H 	H 	0.93590 0.90640 0.07150 -0.19100
C 	C 	0.85530 0.93620 0.03440 -0.06200
C 	C 	0.72320 0.93590 0.15780 -0.05100
H 	H 	0.72010 0.89280 0.14490 0.06200
C 	C 	0.73060 0.93490 0.19655 -0.04900
C 	C 	0.73660 0.86850 0.21658 0.35300
O 	O 	0.71140 0.81340 0.20059 -0.40300
O 	O 	0.76390 0.86780 0.24849 -0.39900
N 	N 	0.15010 0.46880 0.54030 -0.22000
N 	N 	0.28280 0.45970 0.54050 -0.19700
C 	C 	0.08240 0.43660 0.53490 0.14100
C 	C 	0.04700 0.42850 0.57000 -0.14200
C 	C 	0.09480 0.44340 0.59690 -0.03500
H 	H 	0.08770 0.43690 0.62240 0.04500
C 	C 	0.16030 0.47160 0.57960 0.08200
C 	C 	0.27560 0.46890 0.57930 0.14300
C 	C 	0.32900 0.44070 0.59760 -0.21400
H 	H 	0.33140 0.43270 0.62320 0.11600
C 	C 	0.38940 0.42230 0.56750 0.31300
H 	H 	0.43590 0.40640 0.57150 -0.18900
C 	C 	0.35530 0.43620 0.53440 -0.06600
C 	C 	0.22320 0.43590 0.65780 -0.07100
H 	H 	0.22010 0.39280 0.64490 0.06700
C 	C 	0.23060 0.43490 0.69655 -0.07900
C 	C 	0.23660 0.36850 0.71658 0.36000
O 	O 	0.21140 0.31340 0.70059 -0.40800
O 	O 	0.26390 0.36780 0.74849 -0.41000
N 	N 	0.34990 0.03120 0.04030 -0.23100
N 	N 	0.21720 0.04030 0.04050 -0.20100
C 	C 	0.41760 0.06340 0.03490 0.19600
C 	C 	0.45300 0.07150 0.07000 -0.26000
C 	C 	0.40520 0.05660 0.09690 0.04600
H 	H 	0.41230 0.06310 0.12240 0.01700
C 	C 	0.33970 0.02840 0.07960 0.01500
C 	C 	0.22440 0.03110 0.07930 0.11400
C 	C 	0.17100 0.05930 0.09760 -0.20200
H 	H 	0.16860 0.06730 0.12320 0.10700
C 	C 	0.11060 0.07770 0.06750 0.29600
H 	H 	0.06410 0.09360 0.07150 -0.18200
C 	C 	0.14470 0.06380 0.03440 -0.06900
C 	C 	0.27680 0.06410 0.15780 -0.07200
H 	H 	0.27990 0.10720 0.14490 0.07100
C 	C 	0.26940 0.06510 0.19655 -0.07100
C 	C 	0.26340 0.13150 0.21658 0.35700
O 	O 	0.28860 0.18660 0.20059 -0.40500
O 	O 	0.23610 0.13220 0.24849 -0.41300
N 	N 	0.84990 0.53120 0.54030 -0.21600
N 	N 	0.71720 0.54030 0.54050 -0.19700
C 	C 	0.91760 0.56340 0.53490 0.10600
C 	C 	0.95300 0.57150 0.57000 -0.07500
C 	C 	0.90520 0.55660 0.59690 -0.06200
H 	H 	0.91230 0.56310 0.62240 0.06500
C 	C 	0.83970 0.52840 0.57960 0.09300
C 	C 	0.72440 0.53110 0.57930 0.14600
C 	C 	0.67100 0.55930 0.59760 -0.21400
H 	H 	0.66860 0.56730 0.62320 0.11600
C 	C 	0.61060 0.57770 0.56750 0.31200
H 	H 	0.56410 0.59360 0.57150 -0.18800
C 	C 	0.64470 0.56380 0.53440 -0.06500
C 	C 	0.77680 0.56410 0.65780 -0.07500
H 	H 	0.77990 0.60720 0.64490 0.07200
C 	C 	0.76940 0.56510 0.69655 -0.07300
C 	C 	0.76340 0.63150 0.71658 0.35900
O 	O 	0.78860 0.68660 0.70059 -0.40200
O 	O 	0.73610 0.63220 0.74849 -0.40900
N 	N 	0.03120 0.65010 0.04030 -0.23100
N 	N 	0.04030 0.78280 0.04050 -0.20100
C 	C 	0.06340 0.58240 0.03490 0.19500
C 	C 	0.07150 0.54700 0.07000 -0.26000
C 	C 	0.05660 0.59480 0.09690 0.04600
H 	H 	0.06310 0.58770 0.12240 0.01700
C 	C 	0.02840 0.66030 0.07960 0.01500
C 	C 	0.03110 0.77560 0.07930 0.11500
C 	C 	0.05930 0.82900 0.09760 -0.20400
H 	H 	0.06730 0.83140 0.12320 0.11100
C 	C 	0.07770 0.88940 0.06750 0.30900
H 	H 	0.09360 0.93590 0.07150 -0.18300
C 	C 	0.06380 0.85530 0.03440 -0.07200
C 	C 	0.06410 0.72320 0.15780 -0.07200
H 	H 	0.10720 0.72010 0.14490 0.07100
C 	C 	0.06510 0.73060 0.19655 -0.06900
C 	C 	0.13150 0.73660 0.21658 0.35600
O 	O 	0.18660 0.71140 0.20059 -0.40500
O 	O 	0.13220 0.76390 0.24849 -0.41000
N 	N 	0.53120 0.15010 0.54030 -0.21900
N 	N 	0.54030 0.28280 0.54050 -0.19700
C 	C 	0.56340 0.08240 0.53490 0.14100
C 	C 	0.57150 0.04700 0.57000 -0.13900
C 	C 	0.55660 0.09480 0.59690 -0.03700
H 	H 	0.56310 0.08770 0.62240 0.04600
C 	C 	0.52840 0.16030 0.57960 0.08500
C 	C 	0.53110 0.27560 0.57930 0.14400
C 	C 	0.55930 0.32900 0.59760 -0.21400
H 	H 	0.56730 0.33140 0.62320 0.11600
C 	C 	0.57770 0.38940 0.56750 0.31300
H 	H 	0.59360 0.43590 0.57150 -0.18900
C 	C 	0.56380 0.35530 0.53440 -0.06600
C 	C 	0.56410 0.22320 0.65780 -0.07200
H 	H 	0.60720 0.22010 0.64490 0.06800
C 	C 	0.56510 0.23060 0.69655 -0.07800
C 	C 	0.63150 0.23660 0.71658 0.36000
O 	O 	0.68660 0.21140 0.70059 -0.40700
O 	O 	0.63220 0.26390 0.74849 -0.41000
N 	N 	0.96880 0.34990 0.04030 -0.21900
N 	N 	0.95970 0.21720 0.04050 -0.19900
C 	C 	0.93660 0.41760 0.03490 0.14400
C 	C 	0.92850 0.45300 0.07000 -0.13200
C 	C 	0.94340 0.40520 0.09690 -0.06300
H 	H 	0.93690 0.41230 0.12240 0.06600
C 	C 	0.97160 0.33970 0.07960 0.16400
C 	C 	0.96890 0.22440 0.07930 0.19800
C 	C 	0.94070 0.17100 0.09760 -0.23500
H 	H 	0.93270 0.16860 0.12320 0.12800
C 	C 	0.92230 0.11060 0.06750 0.31100
H 	H 	0.90640 0.06410 0.07150 -0.19100
C 	C 	0.93620 0.14470 0.03440 -0.05900
C 	C 	0.93590 0.27680 0.15780 -0.05100
H 	H 	0.89280 0.27990 0.14490 0.06200
C 	C 	0.93490 0.26940 0.19655 -0.05100
C 	C 	0.86850 0.26340 0.21658 0.35300
O 	O 	0.81340 0.28860 0.20059 -0.40400
O 	O 	0.86780 0.23610 0.24849 -0.40300
N 	N 	0.46880 0.84990 0.54030 -0.21600
N 	N 	0.45970 0.71720 0.54050 -0.19700
C 	C 	0.43660 0.91760 0.53490 0.10600
C 	C 	0.42850 0.95300 0.57000 -0.07800
C 	C 	0.44340 0.90520 0.59690 -0.06100
H 	H 	0.43690 0.91230 0.62240 0.06400
C 	C 	0.47160 0.83970 0.57960 0.09100
C 	C 	0.46890 0.72440 0.57930 0.14500
C 	C 	0.44070 0.67100 0.59760 -0.21500
H 	H 	0.43270 0.66860 0.62320 0.11600
C 	C 	0.42230 0.61060 0.56750 0.31300
H 	H 	0.40640 0.56410 0.57150 -0.18900
C 	C 	0.43620 0.64470 0.53440 -0.06600
C 	C 	0.43590 0.77680 0.65780 -0.07500
H 	H 	0.39280 0.77990 0.64490 0.07100
C 	C 	0.43490 0.76940 0.69655 -0.07300
C 	C 	0.36850 0.76340 0.71658 0.35900
O 	O 	0.31340 0.78860 0.70059 -0.40400
O 	O 	0.36780 0.73610 0.74849 -0.40900
N 	N 	0.34990 0.96880 0.95970 -0.21600
N 	N 	0.21720 0.95970 0.95950 -0.19400
C 	C 	0.41760 0.93660 0.96510 0.16300
C 	C 	0.45300 0.92850 0.93000 -0.14500
C 	C 	0.40520 0.94340 0.90310 -0.05500
H 	H 	0.41230 0.93690 0.87760 0.06400
C 	C 	0.33970 0.97160 0.92040 0.16000
C 	C 	0.22440 0.96890 0.92070 0.19700
C 	C 	0.17100 0.94070 0.90240 -0.23700
H 	H 	0.16860 0.93270 0.87680 0.12800
C 	C 	0.11060 0.92230 0.93250 0.32400
H 	H 	0.06410 0.90640 0.92850 -0.20000
C 	C 	0.14470 0.93620 0.96560 -0.05000
C 	C 	0.27680 0.93590 0.84220 -0.05200
H 	H 	0.27990 0.89280 0.85510 0.06300
C 	C 	0.26940 0.93490 0.80345 -0.05100
C 	C 	0.26340 0.86850 0.78342 0.35300
O 	O 	0.28860 0.81340 0.79941 -0.40300
O 	O 	0.23610 0.86780 0.75151 -0.40300
N 	N 	0.84990 0.46880 0.45970 -0.21600
N 	N 	0.71720 0.45970 0.45950 -0.19700
C 	C 	0.91760 0.43660 0.46510 0.10600
C 	C 	0.95300 0.42850 0.43000 -0.07800
C 	C 	0.90520 0.44340 0.40310 -0.06100
H 	H 	0.91230 0.43690 0.37760 0.06400
C 	C 	0.83970 0.47160 0.42040 0.09100
C 	C 	0.72440 0.46890 0.42070 0.14500
C 	C 	0.67100 0.44070 0.40240 -0.21500
H 	H 	0.66860 0.43270 0.37680 0.11600
C 	C 	0.61060 0.42230 0.43250 0.31300
H 	H 	0.56410 0.40640 0.42850 -0.18900
C 	C 	0.64470 0.43620 0.46560 -0.06600
C 	C 	0.77680 0.43590 0.34220 -0.07500
H 	H 	0.77990 0.39280 0.35510 0.07100
C 	C 	0.76940 0.43490 0.30345 -0.07300
C 	C 	0.76340 0.36850 0.28342 0.36000
O 	O 	0.78860 0.31340 0.29941 -0.40400
O 	O 	0.73610 0.36780 0.25151 -0.40900
N 	N 	0.65010 0.03120 0.95970 -0.22800
N 	N 	0.78280 0.04030 0.95950 -0.19700
C 	C 	0.58240 0.06340 0.96510 0.21500
C 	C 	0.54700 0.07150 0.93000 -0.27100
C 	C 	0.59480 0.05660 0.90310 0.05200
H 	H 	0.58770 0.06310 0.87760 0.01600
C 	C 	0.66030 0.02840 0.92040 0.01500
C 	C 	0.77560 0.03110 0.92070 0.11600
C 	C 	0.82900 0.05930 0.90240 -0.20700
H 	H 	0.83140 0.06730 0.87680 0.11200
C 	C 	0.88940 0.07770 0.93250 0.32200
H 	H 	0.93590 0.09360 0.92850 -0.19200
C 	C 	0.85530 0.06380 0.96560 -0.06200
C 	C 	0.72320 0.06410 0.84220 -0.07300
H 	H 	0.72010 0.10720 0.85510 0.07100
C 	C 	0.73060 0.06510 0.80345 -0.06900
C 	C 	0.73660 0.13150 0.78342 0.35600
O 	O 	0.71140 0.18660 0.79941 -0.40500
O 	O 	0.76390 0.13220 0.75151 -0.41000
N 	N 	0.15010 0.53120 0.45970 -0.21900
N 	N 	0.28280 0.54030 0.45950 -0.19700
C 	C 	0.08240 0.56340 0.46510 0.14100
C 	C 	0.04700 0.57150 0.43000 -0.13900
C 	C 	0.09480 0.55660 0.40310 -0.03700
H 	H 	0.08770 0.56310 0.37760 0.04600
C 	C 	0.16030 0.52840 0.42040 0.08500
C 	C 	0.27560 0.53110 0.42070 0.14400
C 	C 	0.32900 0.55930 0.40240 -0.21400
H 	H 	0.33140 0.56730 0.37680 0.11600
C 	C 	0.38940 0.57770 0.43250 0.31300
H 	H 	0.43590 0.59360 0.42850 -0.18900
C 	C 	0.35530 0.56380 0.46560 -0.06600
C 	C 	0.22320 0.56410 0.34220 -0.07100
H 	H 	0.22010 0.60720 0.35510 0.06800
C 	C 	0.23060 0.56510 0.30345 -0.07800
C 	C 	0.23660 0.63150 0.28342 0.36000
O 	O 	0.21140 0.68660 0.29941 -0.40700
O 	O 	0.26390 0.63220 0.25151 -0.41000
N 	N 	0.96880 0.65010 0.95970 -0.21600
N 	N 	0.95970 0.78280 0.95950 -0.19500
C 	C 	0.93660 0.58240 0.96510 0.16300
C 	C 	0.92850 0.54700 0.93000 -0.14500
C 	C 	0.94340 0.59480 0.90310 -0.05500
H 	H 	0.93690 0.58770 0.87760 0.06400
C 	C 	0.97160 0.66030 0.92040 0.16000
C 	C 	0.96890 0.77560 0.92070 0.19800
C 	C 	0.94070 0.82900 0.90240 -0.23900
H 	H 	0.93270 0.83140 0.87680 0.13200
C 	C 	0.92230 0.88940 0.93250 0.33600
H 	H 	0.90640 0.93590 0.92850 -0.20000
C 	C 	0.93620 0.85530 0.96560 -0.05300
C 	C 	0.93590 0.72320 0.84220 -0.05200
H 	H 	0.89280 0.72010 0.85510 0.06300
C 	C 	0.93490 0.73060 0.80345 -0.04900
C 	C 	0.86850 0.73660 0.78342 0.35300
O 	O 	0.81340 0.71140 0.79941 -0.40300
O 	O 	0.86780 0.76390 0.75151 -0.40000
N 	N 	0.46880 0.15010 0.45970 -0.22000
N 	N 	0.45970 0.28280 0.45950 -0.19700
C 	C 	0.43660 0.08240 0.46510 0.14100
C 	C 	0.42850 0.04700 0.43000 -0.14200
C 	C 	0.44340 0.09480 0.40310 -0.03500
H 	H 	0.43690 0.08770 0.37760 0.04500
C 	C 	0.47160 0.16030 0.42040 0.08200
C 	C 	0.46890 0.27560 0.42070 0.14300
C 	C 	0.44070 0.32900 0.40240 -0.21400
H 	H 	0.43270 0.33140 0.37680 0.11600
C 	C 	0.42230 0.38940 0.43250 0.31300
H 	H 	0.40640 0.43590 0.42850 -0.18900
C 	C 	0.43620 0.35530 0.46560 -0.06600
C 	C 	0.43590 0.22320 0.34220 -0.07100
H 	H 	0.39280 0.22010 0.35510 0.06700
C 	C 	0.43490 0.23060 0.30345 -0.07900
C 	C 	0.36850 0.23660 0.28342 0.36100
O 	O 	0.31340 0.21140 0.29941 -0.40800
O 	O 	0.36780 0.26390 0.25151 -0.41000
N 	N 	0.03120 0.34990 0.95970 -0.22800
N 	N 	0.04030 0.21720 0.95950 -0.19600
C 	C 	0.06340 0.41760 0.96510 0.21500
C 	C 	0.07150 0.45300 0.93000 -0.27100
C 	C 	0.05660 0.40520 0.90310 0.05200
H 	H 	0.06310 0.41230 0.87760 0.01600
C 	C 	0.02840 0.33970 0.92040 0.01500
C 	C 	0.03110 0.22440 0.92070 0.11500
C 	C 	0.05930 0.17100 0.90240 -0.20600
H 	H 	0.06730 0.16860 0.87680 0.10900
C 	C 	0.07770 0.11060 0.93250 0.31000
H 	H 	0.09360 0.06410 0.92850 -0.19300
C 	C 	0.06380 0.14470 0.96560 -0.05900
C 	C 	0.06410 0.27680 0.84220 -0.07200
H 	H 	0.10720 0.27990 0.85510 0.07100
C 	C 	0.06510 0.26940 0.80345 -0.07100
C 	C 	0.13150 0.26340 0.78342 0.35600
O 	O 	0.18660 0.28860 0.79941 -0.40500
O 	O 	0.13220 0.23610 0.75151 -0.41300
N 	N 	0.53120 0.84990 0.45970 -0.21600
N 	N 	0.54030 0.71720 0.45950 -0.19700
C 	C 	0.56340 0.91760 0.46510 0.10600
C 	C 	0.57150 0.95300 0.43000 -0.07500
C 	C 	0.55660 0.90520 0.40310 -0.06300
H 	H 	0.56310 0.91230 0.37760 0.06500
C 	C 	0.52840 0.83970 0.42040 0.09300
C 	C 	0.53110 0.72440 0.42070 0.14600
C 	C 	0.55930 0.67100 0.40240 -0.21400
H 	H 	0.56730 0.66860 0.37680 0.11600
C 	C 	0.57770 0.61060 0.43250 0.31200
H 	H 	0.59360 0.56410 0.42850 -0.18800
C 	C 	0.56380 0.64470 0.46560 -0.06500
C 	C 	0.56410 0.77680 0.34220 -0.07500
H 	H 	0.60720 0.77990 0.35510 0.07200
C 	C 	0.56510 0.76940 0.30345 -0.07300
C 	C 	0.63150 0.76340 0.28342 0.35900
O 	O 	0.68660 0.78860 0.29941 -0.40200
O 	O 	0.63220 0.73610 0.25151 -0.40900
Zn	Zn	0.28898 0.00000 -0.00000 1.20600
Zn	Zn	0.78898 0.50000 0.50000 1.21900
Zn	Zn	0.71102 0.00000 -0.00000 1.20600
Zn	Zn	0.21102 0.50000 0.50000 1.21900
Zn	Zn	-0.00000 0.28898 -0.00000 1.20600
Zn	Zn	0.50000 0.78898 0.50000 1.21900
Zn	Zn	-0.00000 0.71102 -0.00000 1.20600
Zn	Zn	0.50000 0.21102 0.50000 1.21900
C 	C 	0.44670 0.07700 -0.00000 -0.29600
H 	H 	0.49200 0.09730 -0.00000 0.09700
C 	C 	0.11000 0.09500 -0.00000 0.00600
C 	C 	0.94670 0.57700 0.50000 -0.15100
H 	H 	0.99200 0.59730 0.50000 0.03100
C 	C 	0.61000 0.59500 0.50000 0.01800
C 	C 	0.55330 0.92300 -0.00000 -0.23100
H 	H 	0.50800 0.90270 -0.00000 0.07900
C 	C 	0.89000 0.90500 -0.00000 0.01200
C 	C 	0.05330 0.42300 0.50000 -0.24300
H 	H 	0.00800 0.40270 0.50000 0.11300
C 	C 	0.39000 0.40500 0.50000 0.01800
C 	C 	0.92300 0.44670 -0.00000 -0.23100
H 	H 	0.90270 0.49200 -0.00000 0.07900
C 	C 	0.90500 0.11000 -0.00000 0.00900
C 	C 	0.42300 0.94670 0.50000 -0.15300
H 	H 	0.40270 0.99200 0.50000 0.03100
C 	C 	0.40500 0.61000 0.50000 0.01800
C 	C 	0.07700 0.55330 -0.00000 -0.29600
H 	H 	0.09730 0.50800 -0.00000 0.09700
C 	C 	0.09500 0.89000 -0.00000 0.00800
C 	C 	0.57700 0.05330 0.50000 -0.24100
H 	H 	0.59730 0.00800 0.50000 0.11300
C 	C 	0.59500 0.39000 0.50000 0.01800
C 	C 	0.55330 0.07700 -0.00000 -0.29600
H 	H 	0.50800 0.09730 -0.00000 0.09700
C 	C 	0.89000 0.09500 -0.00000 0.00800
C 	C 	0.05330 0.57700 0.50000 -0.24100
H 	H 	0.00800 0.59730 0.50000 0.11300
C 	C 	0.39000 0.59500 0.50000 0.01800
C 	C 	0.44670 0.92300 -0.00000 -0.23100
H 	H 	0.49200 0.90270 -0.00000 0.07900
C 	C 	0.11000 0.90500 -0.00000 0.00900
C 	C 	0.94670 0.42300 0.50000 -0.15300
H 	H 	0.99200 0.40270 0.50000 0.03100
C 	C 	0.61000 0.40500 0.50000 0.01800
C 	C 	0.07700 0.44670 -0.00000 -0.29600
H 	H 	0.09730 0.49200 -0.00000 0.09700
C 	C 	0.09500 0.11000 -0.00000 0.00600
C 	C 	0.57700 0.94670 0.50000 -0.15100
H 	H 	0.59730 0.99200 0.50000 0.03100
C 	C 	0.59500 0.61000 0.50000 0.01800
C 	C 	0.92300 0.55330 -0.00000 -0.23100
H 	H 	0.90270 0.50800 -0.00000 0.07900
C 	C 	0.90500 0.89000 -0.00000 0.01200
C 	C 	0.42300 0.05330 0.50000 -0.24300
H 	H 	0.40270 0.00800 0.50000 0.11300
C 	C 	0.40500 0.39000 0.50000 0.01800
H 	H 	0.50000 0.08480 0.92650 0.26000
H 	H 	-0.00000 0.58480 0.42650 0.11500
H 	H 	0.50000 0.91520 0.92650 0.16500
H 	H 	-0.00000 0.41520 0.42650 0.11600
H 	H 	0.91520 0.50000 0.92650 0.16500
H 	H 	0.41520 0.00000 0.42650 0.11600
H 	H 	0.08480 0.50000 0.92650 0.26000
H 	H 	0.58480 0.00000 0.42650 0.11500
H 	H 	0.50000 0.08480 0.07350 0.24900
H 	H 	-0.00000 0.58480 0.57350 0.11500
H 	H 	0.50000 0.91520 0.07350 0.15300
H 	H 	-0.00000 0.41520 0.57350 0.11700
H 	H 	0.08480 0.50000 0.07350 0.24900
H 	H 	0.58480 -0.00000 0.57350 0.11500
H 	H 	0.91520 0.50000 0.07350 0.15300
H 	H 	0.41520 -0.00000 0.57350 0.11700
C 	C 	0.28180 0.00000 0.90380 -0.22900
C 	C 	0.27960 0.00000 0.86190 0.06200
C 	C 	0.26170 0.00000 0.78412 -0.02300
H 	H 	0.25160 0.00000 0.75870 0.05700
C 	C 	0.78180 0.50000 0.40380 -0.20800
C 	C 	0.77960 0.50000 0.36190 0.08800
C 	C 	0.76170 0.50000 0.28412 0.01200
H 	H 	0.75160 0.50000 0.25870 0.05500
C 	C 	0.71820 0.00000 0.90380 -0.23000
C 	C 	0.72040 0.00000 0.86190 0.06300
C 	C 	0.73830 0.00000 0.78412 -0.02400
H 	H 	0.74840 0.00000 0.75870 0.06000
C 	C 	0.21820 0.50000 0.40380 -0.20000
C 	C 	0.22040 0.50000 0.36190 0.08200
C 	C 	0.23830 0.50000 0.28412 0.01400
H 	H 	0.24840 0.50000 0.25870 0.05300
C 	C 	-0.00000 0.28180 0.90380 -0.22900
C 	C 	-0.00000 0.27960 0.86190 0.06200
C 	C 	-0.00000 0.26170 0.78412 -0.02300
H 	H 	-0.00000 0.25160 0.75870 0.05700
C 	C 	0.50000 0.78180 0.40380 -0.20800
C 	C 	0.50000 0.77960 0.36190 0.08800
C 	C 	0.50000 0.76170 0.28412 0.01200
H 	H 	0.50000 0.75160 0.25870 0.05500
C 	C 	0.00000 0.71820 0.90380 -0.23000
C 	C 	0.00000 0.72040 0.86190 0.06300
C 	C 	-0.00000 0.73830 0.78412 -0.02400
H 	H 	0.00000 0.74840 0.75870 0.06000
C 	C 	0.50000 0.21820 0.40380 -0.20000
C 	C 	0.50000 0.22040 0.36190 0.08200
C 	C 	0.50000 0.23830 0.28412 0.01400
H 	H 	0.50000 0.24840 0.25870 0.05300
C 	C 	0.71820 -0.00000 0.09620 -0.23300
C 	C 	0.72040 0.00000 0.13810 0.06300
C 	C 	0.73830 -0.00000 0.21588 -0.02400
H 	H 	0.74840 0.00000 0.24130 0.06000
C 	C 	0.21820 0.50000 0.59620 -0.20000
C 	C 	0.22040 0.50000 0.63810 0.08200
C 	C 	0.23830 0.50000 0.71588 0.01400
H 	H 	0.24840 0.50000 0.74130 0.05400
C 	C 	0.28180 -0.00000 0.09620 -0.23100
C 	C 	0.27960 0.00000 0.13810 0.06200
C 	C 	0.26170 -0.00000 0.21588 -0.02400
H 	H 	0.25160 0.00000 0.24130 0.05700
C 	C 	0.78180 0.50000 0.59620 -0.20800
C 	C 	0.77960 0.50000 0.63810 0.08900
C 	C 	0.76170 0.50000 0.71588 0.01200
H 	H 	0.75160 0.50000 0.74130 0.05600
C 	C 	0.00000 0.28180 0.09620 -0.23100
C 	C 	-0.00000 0.27960 0.13810 0.06200
C 	C 	-0.00000 0.26170 0.21588 -0.02400
H 	H 	0.00000 0.25160 0.24130 0.05700
C 	C 	0.50000 0.78180 0.59620 -0.20800
C 	C 	0.50000 0.77960 0.63810 0.08900
C 	C 	0.50000 0.76170 0.71588 0.01200
H 	H 	0.50000 0.75160 0.74130 0.05600
C 	C 	0.00000 0.71820 0.09620 -0.23300
C 	C 	0.00000 0.72040 0.13810 0.06300
C 	C 	-0.00000 0.73830 0.21588 -0.02400
H 	H 	0.00000 0.74840 0.24130 0.06000
C 	C 	0.50000 0.21820 0.59620 -0.20000
C 	C 	0.50000 0.22040 0.63810 0.08200
C 	C 	0.50000 0.23830 0.71588 0.01400
H 	H 	0.50000 0.24840 0.74130 0.05400
Cu	Cu	0.28238 0.28238 0.77844 0.90800
Cu	Cu	0.78238 0.78238 0.27844 0.91000
Cu	Cu	0.71762 0.71762 0.77844 0.90800
Cu	Cu	0.21762 0.21762 0.27844 0.90600
Cu	Cu	0.71762 0.28238 0.77844 0.90800
Cu	Cu	0.21762 0.78238 0.27844 0.90800
Cu	Cu	0.28238 0.71762 0.77844 0.90800
Cu	Cu	0.78238 0.21762 0.27844 0.90800
Cu	Cu	0.71762 0.28238 0.22156 0.90800
Cu	Cu	0.21762 0.78238 0.72156 0.90800
Cu	Cu	0.28238 0.71762 0.22156 0.90800
Cu	Cu	0.78238 0.21762 0.72156 0.90800
Cu	Cu	0.28238 0.28238 0.22156 0.90800
Cu	Cu	0.78238 0.78238 0.72156 0.91000
Cu	Cu	0.71762 0.71762 0.22156 0.90800
Cu	Cu	0.21762 0.21762 0.72156 0.90600
