data_crystal

_cell_length_a 14.37530
_cell_length_b 11.94100
_cell_length_c 10.17600
_cell_angle_alpha 90.00000
_cell_angle_beta  91.10200
_cell_angle_gamma 90.00000

_symmetry_space_group_name_	'P 1'
_symmetry_space_group_name_H-M	'P 1'

loop_
_symmetry_equiv_pos_as_xyz
  x,y,z

loop_
_atom_site_label
_atom_site_type_symbol
_atom_site_fract_x
_atom_site_fract_y
_atom_site_fract_z
_atom_site_charge
Ga	Ga	0.24892 0.50074 0.49654 2.07800
Ga	Ga	0.08756 0.37500 0.67343 2.06000
Ga	Ga	0.41102 0.36180 0.34566 2.07200
Ga	Ga	0.08628 0.63219 0.66020 2.06100
Ga	Ga	0.40943 0.63365 0.33075 2.07000
P 	P 	0.12517 0.30083 0.39212 0.64700
P 	P 	0.12352 0.69281 0.37549 0.66100
P 	P 	0.37583 0.69768 0.61121 0.66600
P 	P 	0.37650 0.31177 0.62928 0.65300
O 	O 	0.13100 0.50050 0.59280 -1.23900
O 	O 	0.36760 0.49910 0.39130 -1.20700
O 	O 	0.20930 0.37670 0.38260 -0.61700
O 	O 	0.29280 0.61950 0.61570 -0.61300
O 	O 	0.04100 0.35900 0.32500 -0.74500
O 	O 	0.20700 0.61470 0.37050 -0.62000
O 	O 	0.04030 0.63410 0.30840 -0.73500
O 	O 	0.14360 0.18900 0.31960 -0.63500
O 	O 	0.46100 0.63880 0.67300 -0.71700
O 	O 	0.14430 0.80000 0.29850 -0.63900
O 	O 	0.10210 0.72910 0.51630 -0.63600
O 	O 	0.29660 0.39420 0.62930 -0.60900
O 	O 	0.39500 0.27000 0.48900 -0.67400
O 	O 	0.46380 0.36850 0.69170 -0.71600
O 	O 	0.35580 0.80370 0.68760 -0.64900
O 	O 	0.35140 0.20840 0.70990 -0.64200
O 	O 	0.10760 0.26940 0.53650 -0.61600
O 	O 	0.39490 0.73470 0.46860 -0.65800
Ga	Ga	0.25108 0.00074 0.00346 2.06900
Ga	Ga	0.41244 0.87500 0.82657 2.05700
Ga	Ga	0.08898 0.86180 0.15434 2.07200
Ga	Ga	0.41372 0.13219 0.83980 2.06000
Ga	Ga	0.09057 0.13365 0.16925 2.06500
P 	P 	0.37483 0.80083 0.10788 0.65400
P 	P 	0.37648 0.19281 0.12451 0.64900
P 	P 	0.12417 0.19768 0.88879 0.67800
P 	P 	0.12350 0.81177 0.87072 0.64700
O 	O 	0.36900 0.00050 0.90720 -1.22700
O 	O 	0.13240 0.99910 0.10870 -1.19100
O 	O 	0.29070 0.87670 0.11740 -0.61000
O 	O 	0.20720 0.11950 0.88430 -0.60800
O 	O 	0.45900 0.85900 0.17500 -0.73900
O 	O 	0.29300 0.11470 0.12950 -0.63000
O 	O 	0.45970 0.13410 0.19160 -0.74100
O 	O 	0.35640 0.68900 0.18040 -0.63100
O 	O 	0.03900 0.13880 0.82700 -0.71600
O 	O 	0.35570 0.30000 0.20150 -0.64100
O 	O 	0.39790 0.22910 0.98370 -0.62600
O 	O 	0.20340 0.89420 0.87070 -0.61500
O 	O 	0.10500 0.77000 0.01100 -0.66600
O 	O 	0.03620 0.86850 0.80830 -0.71500
O 	O 	0.14420 0.30370 0.81240 -0.64800
O 	O 	0.14860 0.70840 0.79010 -0.64200
O 	O 	0.39240 0.76940 0.96350 -0.62600
O 	O 	0.10510 0.23470 0.03140 -0.67600
Ga	Ga	0.75108 0.49926 0.50346 2.07700
Ga	Ga	0.91244 0.62500 0.32657 2.05900
Ga	Ga	0.58898 0.63820 0.65434 2.07100
Ga	Ga	0.91372 0.36781 0.33980 2.06000
Ga	Ga	0.59057 0.36635 0.66925 2.06900
P 	P 	0.87483 0.69917 0.60788 0.64600
P 	P 	0.87648 0.30719 0.62451 0.66000
P 	P 	0.62417 0.30232 0.38879 0.66500
P 	P 	0.62350 0.68823 0.37072 0.65300
O 	O 	0.86900 0.49950 0.40720 -1.23900
O 	O 	0.63240 0.50090 0.60870 -1.20700
O 	O 	0.79070 0.62330 0.61740 -0.61700
O 	O 	0.70720 0.38050 0.38430 -0.61300
O 	O 	0.95900 0.64100 0.67500 -0.74500
O 	O 	0.79300 0.38530 0.62950 -0.62000
O 	O 	0.95970 0.36590 0.69160 -0.73500
O 	O 	0.85640 0.81100 0.68040 -0.63500
O 	O 	0.53900 0.36120 0.32700 -0.71700
O 	O 	0.85570 0.20000 0.70150 -0.63900
O 	O 	0.89790 0.27090 0.48370 -0.63600
O 	O 	0.70340 0.60580 0.37070 -0.60900
O 	O 	0.60500 0.73000 0.51100 -0.67400
O 	O 	0.53620 0.63150 0.30830 -0.71600
O 	O 	0.64420 0.19630 0.31240 -0.64900
O 	O 	0.64860 0.79160 0.29010 -0.64200
O 	O 	0.89240 0.73060 0.46350 -0.61600
O 	O 	0.60510 0.26530 0.53140 -0.65800
Ga	Ga	0.74892 0.99926 0.99654 2.06900
Ga	Ga	0.58756 0.12500 0.17343 2.05700
Ga	Ga	0.91102 0.13820 0.84566 2.07200
Ga	Ga	0.58628 0.86781 0.16020 2.06000
Ga	Ga	0.90943 0.86635 0.83075 2.06500
P 	P 	0.62517 0.19917 0.89212 0.65400
P 	P 	0.62352 0.80719 0.87549 0.64900
P 	P 	0.87583 0.80232 0.11121 0.67800
P 	P 	0.87650 0.18823 0.12928 0.64700
O 	O 	0.63100 0.99950 0.09280 -1.22700
O 	O 	0.86760 0.00090 0.89130 -1.19100
O 	O 	0.70930 0.12330 0.88260 -0.61000
O 	O 	0.79280 0.88050 0.11570 -0.60800
O 	O 	0.54100 0.14100 0.82500 -0.73900
O 	O 	0.70700 0.88530 0.87050 -0.63000
O 	O 	0.54030 0.86590 0.80840 -0.74100
O 	O 	0.64360 0.31100 0.81960 -0.63100
O 	O 	0.96100 0.86120 0.17300 -0.71600
O 	O 	0.64430 0.70000 0.79850 -0.64100
O 	O 	0.60210 0.77090 0.01630 -0.62600
O 	O 	0.79660 0.10580 0.12930 -0.61500
O 	O 	0.89500 0.23000 0.98900 -0.66600
O 	O 	0.96380 0.13150 0.19170 -0.71500
O 	O 	0.85580 0.69630 0.18760 -0.64800
O 	O 	0.85140 0.29160 0.20990 -0.64200
O 	O 	0.60760 0.23060 0.03650 -0.62600
O 	O 	0.89490 0.76530 0.96860 -0.67600
