data_crystal

_cell_length_a 20.05940
_cell_length_b 24.99430
_cell_length_c 25.06450
_cell_angle_alpha 90.00000
_cell_angle_beta  90.00000
_cell_angle_gamma 90.00000

_symmetry_space_group_name_	'P 1'
_symmetry_space_group_name_H-M	'P 1'

loop_
_symmetry_equiv_pos_as_xyz
  x,y,z

loop_
_atom_site_label
_atom_site_type_symbol
_atom_site_fract_x
_atom_site_fract_y
_atom_site_fract_z
_atom_site_charge
Mn	Mn	0.91956 0.90903 0.92413 1.27700
Mn	Mn	0.75200 0.94113 0.87334 1.31800
Mn	Mn	0.08137 0.52650 0.91594 1.23600
Mn	Mn	0.41956 0.09097 0.57587 1.27700
Mn	Mn	0.25200 0.05887 0.62666 1.31900
Mn	Mn	0.58137 0.47350 0.58406 1.23600
Mn	Mn	0.58044 0.40903 0.07587 1.27700
Mn	Mn	0.74800 0.44113 0.12666 1.31900
Mn	Mn	0.41863 0.02650 0.08406 1.23600
Mn	Mn	0.08044 0.59097 0.42413 1.27700
Mn	Mn	0.24800 0.55887 0.37334 1.31900
Mn	Mn	0.91863 0.97350 0.41594 1.23600
Mn	Mn	0.08044 0.09097 0.07587 1.27700
Mn	Mn	0.24800 0.05887 0.12666 1.31800
Mn	Mn	0.91863 0.47350 0.08406 1.23600
Mn	Mn	0.58044 0.90903 0.42413 1.27700
Mn	Mn	0.74800 0.94113 0.37334 1.31900
Mn	Mn	0.41863 0.52650 0.41594 1.23600
Mn	Mn	0.41956 0.59097 0.92413 1.27700
Mn	Mn	0.25200 0.55887 0.87334 1.31900
Mn	Mn	0.58137 0.97350 0.91594 1.23500
Mn	Mn	0.91956 0.40903 0.57587 1.27600
Mn	Mn	0.75200 0.44113 0.62666 1.31800
Mn	Mn	0.08137 0.02650 0.58406 1.23500
P 	P 	0.91162 0.76446 0.59641 0.18400
P 	P 	0.09176 0.88060 0.90594 0.21100
P 	P 	0.41162 0.23554 0.90359 0.18300
P 	P 	0.59176 0.11940 0.59406 0.21100
P 	P 	0.58838 0.26446 0.40359 0.18400
P 	P 	0.40824 0.38060 0.09406 0.21100
P 	P 	0.08838 0.73554 0.09641 0.18400
P 	P 	0.90824 0.61940 0.40594 0.21100
P 	P 	0.08838 0.23554 0.40359 0.18400
P 	P 	0.90824 0.11940 0.09406 0.21100
P 	P 	0.58838 0.76446 0.09641 0.18300
P 	P 	0.40824 0.88060 0.40594 0.21100
P 	P 	0.41162 0.73554 0.59641 0.18400
P 	P 	0.59176 0.61940 0.90594 0.21100
P 	P 	0.91162 0.26446 0.90359 0.18400
P 	P 	0.09176 0.38060 0.59406 0.21100
H 	H 	0.99280 0.79900 0.68220 0.06700
H 	H 	0.97590 0.83930 0.76480 0.03500
H 	H 	0.77900 0.84010 0.73930 0.03800
H 	H 	0.79430 0.79770 0.65750 0.05800
H 	H 	0.96480 0.67380 0.54530 0.06500
H 	H 	0.95420 0.58320 0.54830 0.01500
H 	H 	0.81550 0.59900 0.66370 0.03400
H 	H 	0.83040 0.69110 0.66160 0.05900
H 	H 	0.88370 0.86280 0.54690 0.04000
H 	H 	0.79830 0.89860 0.49470 0.01900
H 	H 	0.70530 0.75570 0.49570 0.03900
H 	H 	0.79120 0.71950 0.54610 0.05900
H 	H 	0.18240 0.80980 0.85040 0.05400
H 	H 	0.19690 0.71750 0.84680 0.03700
H 	H 	0.03500 0.69820 0.94050 0.03300
H 	H 	0.02180 0.79020 0.94380 0.05800
H 	H 	0.20990 0.91350 0.84690 0.05900
H 	H 	0.22820 0.95800 0.76660 0.02800
H 	H 	0.01210 0.92040 0.82140 0.07000
H 	H 	0.21320 0.83600 0.95560 0.05700
H 	H 	0.29910 0.87240 0.00600 0.03600
H 	H 	0.20570 0.01420 0.00640 0.01800
H 	H 	0.11990 0.97810 0.95560 0.04800
H 	H 	0.49280 0.20100 0.81780 0.06800
H 	H 	0.47590 0.16070 0.73520 0.03500
H 	H 	0.27900 0.15990 0.76070 0.03800
H 	H 	0.29430 0.20230 0.84250 0.05800
H 	H 	0.46480 0.32620 0.95470 0.06500
H 	H 	0.45420 0.41680 0.95170 0.01500
H 	H 	0.31550 0.40100 0.83630 0.03400
H 	H 	0.33040 0.30890 0.83840 0.05900
H 	H 	0.38370 0.13720 0.95310 0.04200
H 	H 	0.29830 0.10140 0.00530 0.01700
H 	H 	0.20530 0.24430 0.00430 0.03700
H 	H 	0.29120 0.28050 0.95390 0.06000
H 	H 	0.68240 0.19020 0.64960 0.05500
H 	H 	0.69690 0.28250 0.65320 0.03700
H 	H 	0.53500 0.30180 0.55950 0.03300
H 	H 	0.52180 0.20980 0.55620 0.05800
H 	H 	0.70990 0.08650 0.65310 0.05900
H 	H 	0.72820 0.04200 0.73340 0.02900
H 	H 	0.51210 0.07960 0.67860 0.06900
H 	H 	0.71320 0.16400 0.54440 0.05800
H 	H 	0.79910 0.12760 0.49400 0.03500
H 	H 	0.70570 0.98580 0.49360 0.01800
H 	H 	0.61990 0.02190 0.54440 0.04800
H 	H 	0.50720 0.29900 0.31780 0.06800
H 	H 	0.52410 0.33930 0.23520 0.03500
H 	H 	0.72100 0.34010 0.26070 0.03800
H 	H 	0.70570 0.29770 0.34250 0.05800
H 	H 	0.53520 0.17380 0.45470 0.06500
H 	H 	0.54580 0.08320 0.45170 0.01500
H 	H 	0.68450 0.09900 0.33630 0.03400
H 	H 	0.66960 0.19110 0.33840 0.05900
H 	H 	0.61630 0.36280 0.45310 0.04100
H 	H 	0.70170 0.39860 0.50530 0.01900
H 	H 	0.79470 0.25570 0.50430 0.03900
H 	H 	0.70880 0.21950 0.45390 0.05900
H 	H 	0.31760 0.30980 0.14960 0.05400
H 	H 	0.30310 0.21750 0.15320 0.03700
H 	H 	0.46500 0.19820 0.05950 0.03300
H 	H 	0.47820 0.29020 0.05620 0.05800
H 	H 	0.29010 0.41350 0.15310 0.05800
H 	H 	0.27180 0.45800 0.23340 0.02800
H 	H 	0.48790 0.42040 0.17860 0.06900
H 	H 	0.28680 0.33600 0.04440 0.05700
H 	H 	0.20090 0.37240 0.99400 0.03600
H 	H 	0.29430 0.51420 0.99360 0.01900
H 	H 	0.38010 0.47810 0.04440 0.04700
H 	H 	0.00720 0.70100 0.18220 0.06800
H 	H 	0.02410 0.66070 0.26480 0.03600
H 	H 	0.22100 0.65990 0.23930 0.03800
H 	H 	0.20570 0.70230 0.15750 0.05800
H 	H 	0.03520 0.82620 0.04530 0.06500
H 	H 	0.04580 0.91680 0.04830 0.01600
H 	H 	0.18450 0.90100 0.16370 0.03400
H 	H 	0.16960 0.80890 0.16160 0.06000
H 	H 	0.11630 0.63720 0.04690 0.04100
H 	H 	0.20170 0.60140 0.99470 0.01900
H 	H 	0.29470 0.74430 0.99570 0.03900
H 	H 	0.20880 0.78050 0.04610 0.05900
H 	H 	0.81760 0.69020 0.35040 0.05400
H 	H 	0.80310 0.78250 0.34680 0.03700
H 	H 	0.96500 0.80180 0.44050 0.03300
H 	H 	0.97820 0.70980 0.44380 0.05800
H 	H 	0.79010 0.58650 0.34690 0.05800
H 	H 	0.77180 0.54200 0.26660 0.02800
H 	H 	0.98790 0.57960 0.32140 0.06900
H 	H 	0.78680 0.66400 0.45560 0.05700
H 	H 	0.70090 0.62760 0.50600 0.03500
H 	H 	0.79430 0.48580 0.50640 0.01900
H 	H 	0.88010 0.52190 0.45560 0.04700
H 	H 	0.00720 0.20100 0.31780 0.06700
H 	H 	0.02410 0.16070 0.23520 0.03500
H 	H 	0.22100 0.15990 0.26070 0.03800
H 	H 	0.20570 0.20230 0.34250 0.05800
H 	H 	0.03520 0.32620 0.45470 0.06500
H 	H 	0.04580 0.41680 0.45170 0.01500
H 	H 	0.18450 0.40100 0.33630 0.03400
H 	H 	0.16960 0.30890 0.33840 0.05900
H 	H 	0.11630 0.13720 0.45310 0.04000
H 	H 	0.20170 0.10140 0.50530 0.01900
H 	H 	0.29470 0.24430 0.50430 0.03900
H 	H 	0.20880 0.28050 0.45390 0.05900
H 	H 	0.81760 0.19020 0.14960 0.05400
H 	H 	0.80310 0.28250 0.15320 0.03700
H 	H 	0.96500 0.30180 0.05950 0.03300
H 	H 	0.97820 0.20980 0.05620 0.05800
H 	H 	0.79010 0.08650 0.15310 0.05900
H 	H 	0.77180 0.04200 0.23340 0.02800
H 	H 	0.98790 0.07960 0.17860 0.07000
H 	H 	0.78680 0.16400 0.04440 0.05700
H 	H 	0.70090 0.12760 0.99400 0.03600
H 	H 	0.79430 0.98580 0.99360 0.01800
H 	H 	0.88010 0.02190 0.04440 0.04800
H 	H 	0.50720 0.79900 0.18220 0.06800
H 	H 	0.52410 0.83930 0.26480 0.03500
H 	H 	0.72100 0.84010 0.23930 0.03800
H 	H 	0.70570 0.79770 0.15750 0.05800
H 	H 	0.53520 0.67380 0.04530 0.06500
H 	H 	0.54580 0.58320 0.04830 0.01500
H 	H 	0.68450 0.59900 0.16370 0.03400
H 	H 	0.66960 0.69110 0.16160 0.05900
H 	H 	0.61630 0.86280 0.04690 0.04200
H 	H 	0.70170 0.89860 0.99470 0.01700
H 	H 	0.79470 0.75570 0.99570 0.03700
H 	H 	0.70880 0.71950 0.04610 0.06000
H 	H 	0.31760 0.80980 0.35040 0.05500
H 	H 	0.30310 0.71750 0.34680 0.03700
H 	H 	0.46500 0.69820 0.44050 0.03300
H 	H 	0.47820 0.79020 0.44380 0.05800
H 	H 	0.29010 0.91350 0.34690 0.05900
H 	H 	0.27180 0.95800 0.26660 0.02900
H 	H 	0.48790 0.92040 0.32140 0.06900
H 	H 	0.28680 0.83600 0.45560 0.05800
H 	H 	0.20090 0.87240 0.50600 0.03500
H 	H 	0.29430 0.01420 0.50640 0.01800
H 	H 	0.38010 0.97810 0.45560 0.04800
H 	H 	0.49280 0.70100 0.68220 0.06800
H 	H 	0.47590 0.66070 0.76480 0.03500
H 	H 	0.27900 0.65990 0.73930 0.03800
H 	H 	0.29430 0.70230 0.65750 0.05800
H 	H 	0.46480 0.82620 0.54530 0.06500
H 	H 	0.45420 0.91680 0.54830 0.01500
H 	H 	0.31550 0.90100 0.66370 0.03400
H 	H 	0.33040 0.80890 0.66160 0.05900
H 	H 	0.38370 0.63720 0.54690 0.04100
H 	H 	0.29830 0.60140 0.49470 0.01900
H 	H 	0.20530 0.74430 0.49570 0.03900
H 	H 	0.29120 0.78050 0.54610 0.05900
H 	H 	0.68240 0.69020 0.85040 0.05400
H 	H 	0.69690 0.78250 0.84680 0.03700
H 	H 	0.53500 0.80180 0.94050 0.03300
H 	H 	0.52180 0.70980 0.94380 0.05800
H 	H 	0.70990 0.58650 0.84690 0.05800
H 	H 	0.72820 0.54200 0.76660 0.02800
H 	H 	0.51210 0.57960 0.82140 0.06900
H 	H 	0.71320 0.66400 0.95560 0.05700
H 	H 	0.79910 0.62760 0.00600 0.03600
H 	H 	0.70570 0.48580 0.00640 0.01900
H 	H 	0.61990 0.52190 0.95560 0.04700
H 	H 	0.99280 0.29900 0.81780 0.06800
H 	H 	0.97590 0.33930 0.73520 0.03600
H 	H 	0.77900 0.34010 0.76070 0.03800
H 	H 	0.79430 0.29770 0.84250 0.05800
H 	H 	0.96480 0.17380 0.95470 0.06500
H 	H 	0.95420 0.08320 0.95170 0.01600
H 	H 	0.81550 0.09900 0.83630 0.03400
H 	H 	0.83040 0.19110 0.83840 0.06000
H 	H 	0.88370 0.36280 0.95310 0.04100
H 	H 	0.79830 0.39860 0.00530 0.01900
H 	H 	0.70530 0.25570 0.00430 0.03900
H 	H 	0.79120 0.21950 0.95390 0.05900
H 	H 	0.18240 0.30980 0.64960 0.05400
H 	H 	0.19690 0.21750 0.65320 0.03700
H 	H 	0.03500 0.19820 0.55950 0.03300
H 	H 	0.02180 0.29020 0.55620 0.05800
H 	H 	0.20990 0.41350 0.65310 0.05800
H 	H 	0.22820 0.45800 0.73340 0.02800
H 	H 	0.01210 0.42040 0.67860 0.06900
H 	H 	0.21320 0.33600 0.54440 0.05700
H 	H 	0.29910 0.37240 0.49400 0.03500
H 	H 	0.20570 0.51420 0.49360 0.01900
H 	H 	0.11990 0.47810 0.54440 0.04700
C 	C 	0.89540 0.79463 0.66083 -0.00000
C 	C 	0.94920 0.80712 0.69340 -0.08100
C 	C 	0.93920 0.83170 0.74280 0.02100
C 	C 	0.87590 0.84474 0.75975 -0.10500
C 	C 	0.86390 0.87482 0.81176 0.38100
C 	C 	0.82240 0.83180 0.72780 0.02200
C 	C 	0.83140 0.80661 0.67860 -0.08500
C 	C 	0.90060 0.69318 0.60321 0.00600
C 	C 	0.93510 0.65888 0.57016 -0.09000
C 	C 	0.92870 0.60470 0.57145 0.04100
C 	C 	0.88510 0.58156 0.60658 -0.11600
C 	C 	0.87490 0.52153 0.60732 0.39000
C 	C 	0.84670 0.61424 0.64020 0.02900
C 	C 	0.85540 0.66935 0.63850 -0.08600
C 	C 	0.84470 0.78813 0.55351 -0.00400
C 	C 	0.84740 0.84118 0.53682 -0.07000
C 	C 	0.79660 0.86256 0.50525 0.00400
C 	C 	0.74330 0.83028 0.48940 -0.09600
C 	C 	0.68660 0.85418 0.45883 0.32100
C 	C 	0.74150 0.77737 0.50570 0.01500
C 	C 	0.79230 0.75584 0.53660 -0.07800
C 	C 	0.10120 0.80924 0.89782 -0.00900
C 	C 	0.15270 0.78729 0.86870 -0.07800
C 	C 	0.16110 0.73211 0.86610 0.02600
C 	C 	0.11630 0.69872 0.89238 -0.11400
C 	C 	0.12570 0.63842 0.89021 0.41200
C 	C 	0.06470 0.72055 0.92200 0.02800
C 	C 	0.05720 0.77551 0.92417 -0.07300
C 	C 	0.10870 0.91299 0.84273 0.00500
C 	C 	0.17340 0.92399 0.82577 -0.09400
C 	C 	0.18440 0.95051 0.77764 0.04300
C 	C 	0.13140 0.96579 0.74613 -0.13800
C 	C 	0.14320 0.99508 0.69411 0.41100
C 	C 	0.06780 0.95380 0.76260 0.07200
C 	C 	0.05600 0.92780 0.81070 -0.10600
C 	C 	0.15840 0.90351 0.94935 -0.00900
C 	C 	0.21170 0.87229 0.96540 -0.07800
C 	C 	0.26290 0.89399 0.99580 0.01400
C 	C 	0.26089 0.94719 0.01126 -0.10600
C 	C 	0.31760 0.97210 0.04211 0.33700
C 	C 	0.20760 0.97813 0.99602 0.01200
C 	C 	0.15620 0.95658 0.96543 -0.07400
C 	C 	0.39540 0.20537 0.83917 -0.00000
C 	C 	0.44920 0.19288 0.80660 -0.08100
C 	C 	0.43920 0.16830 0.75720 0.02100
C 	C 	0.37590 0.15526 0.74025 -0.10500
C 	C 	0.36390 0.12518 0.68824 0.38100
C 	C 	0.32240 0.16820 0.77220 0.02200
C 	C 	0.33140 0.19339 0.82140 -0.08500
C 	C 	0.40060 0.30682 0.89679 0.00600
C 	C 	0.43510 0.34112 0.92984 -0.09000
C 	C 	0.42870 0.39530 0.92855 0.04100
C 	C 	0.38510 0.41844 0.89342 -0.11600
C 	C 	0.37490 0.47847 0.89268 0.39000
C 	C 	0.34670 0.38576 0.85980 0.02900
C 	C 	0.35540 0.33065 0.86150 -0.08600
C 	C 	0.34470 0.21187 0.94649 -0.00200
C 	C 	0.34740 0.15882 0.96318 -0.07300
C 	C 	0.29660 0.13744 0.99475 0.00800
C 	C 	0.24330 0.16972 0.01060 -0.10000
C 	C 	0.18660 0.14582 0.04117 0.32200
C 	C 	0.24150 0.22263 0.99430 0.02000
C 	C 	0.29230 0.24416 0.96340 -0.08100
C 	C 	0.60120 0.19076 0.60218 -0.00900
C 	C 	0.65270 0.21271 0.63130 -0.07800
C 	C 	0.66110 0.26789 0.63390 0.02600
C 	C 	0.61630 0.30128 0.60762 -0.11400
C 	C 	0.62570 0.36158 0.60979 0.41200
C 	C 	0.56470 0.27945 0.57800 0.02800
C 	C 	0.55720 0.22449 0.57583 -0.07300
C 	C 	0.60870 0.08701 0.65727 0.00400
C 	C 	0.67340 0.07601 0.67423 -0.09400
C 	C 	0.68440 0.04949 0.72236 0.04300
C 	C 	0.63140 0.03421 0.75387 -0.13800
C 	C 	0.64320 0.00492 0.80589 0.41200
C 	C 	0.56780 0.04620 0.73740 0.07100
C 	C 	0.55600 0.07220 0.68930 -0.10600
C 	C 	0.65840 0.09649 0.55065 -0.00900
C 	C 	0.71170 0.12771 0.53460 -0.07900
C 	C 	0.76290 0.10601 0.50420 0.01700
C 	C 	0.76089 0.05281 0.48874 -0.10700
C 	C 	0.81760 0.02790 0.45789 0.33700
C 	C 	0.70760 0.02187 0.50398 0.01300
C 	C 	0.65620 0.04342 0.53457 -0.07400
C 	C 	0.60460 0.29463 0.33917 -0.00000
C 	C 	0.55080 0.30712 0.30660 -0.08100
C 	C 	0.56080 0.33170 0.25720 0.02100
C 	C 	0.62410 0.34474 0.24025 -0.10500
C 	C 	0.63610 0.37482 0.18824 0.38100
C 	C 	0.67760 0.33180 0.27220 0.02200
C 	C 	0.66860 0.30661 0.32140 -0.08500
C 	C 	0.59940 0.19318 0.39679 0.00600
C 	C 	0.56490 0.15888 0.42984 -0.09000
C 	C 	0.57130 0.10470 0.42855 0.04100
C 	C 	0.61490 0.08156 0.39342 -0.11600
C 	C 	0.62510 0.02153 0.39268 0.39000
C 	C 	0.65330 0.11424 0.35980 0.02900
C 	C 	0.64460 0.16935 0.36150 -0.08600
C 	C 	0.65530 0.28813 0.44649 -0.00400
C 	C 	0.65260 0.34118 0.46318 -0.07000
C 	C 	0.70340 0.36256 0.49475 0.00400
C 	C 	0.75670 0.33028 0.51060 -0.09600
C 	C 	0.81340 0.35418 0.54117 0.32000
C 	C 	0.75850 0.27737 0.49430 0.01500
C 	C 	0.70770 0.25584 0.46340 -0.07800
C 	C 	0.39880 0.30924 0.10218 -0.00900
C 	C 	0.34730 0.28729 0.13130 -0.07800
C 	C 	0.33890 0.23211 0.13390 0.02600
C 	C 	0.38370 0.19872 0.10762 -0.11400
C 	C 	0.37430 0.13842 0.10979 0.41200
C 	C 	0.43530 0.22055 0.07800 0.02800
C 	C 	0.44280 0.27551 0.07583 -0.07300
C 	C 	0.39130 0.41299 0.15727 0.00400
C 	C 	0.32660 0.42399 0.17423 -0.09400
C 	C 	0.31560 0.45051 0.22236 0.04300
C 	C 	0.36860 0.46579 0.25387 -0.13800
C 	C 	0.35680 0.49508 0.30589 0.41100
C 	C 	0.43220 0.45380 0.23740 0.07100
C 	C 	0.44400 0.42780 0.18930 -0.10600
C 	C 	0.34160 0.40351 0.05065 -0.01000
C 	C 	0.28830 0.37229 0.03460 -0.07700
C 	C 	0.23710 0.39399 0.00420 0.01400
C 	C 	0.23911 0.44719 0.98874 -0.10500
C 	C 	0.18240 0.47210 0.95789 0.33500
C 	C 	0.29240 0.47813 0.00398 0.00900
C 	C 	0.34380 0.45658 0.03457 -0.07200
C 	C 	0.10460 0.70537 0.16083 -0.00000
C 	C 	0.05080 0.69288 0.19340 -0.08100
C 	C 	0.06080 0.66830 0.24280 0.02100
C 	C 	0.12410 0.65526 0.25975 -0.10500
C 	C 	0.13610 0.62518 0.31176 0.38100
C 	C 	0.17760 0.66820 0.22780 0.02200
C 	C 	0.16860 0.69339 0.17860 -0.08500
C 	C 	0.09940 0.80682 0.10321 0.00600
C 	C 	0.06490 0.84112 0.07016 -0.09000
C 	C 	0.07130 0.89530 0.07145 0.04100
C 	C 	0.11490 0.91844 0.10658 -0.11600
C 	C 	0.12510 0.97847 0.10732 0.39200
C 	C 	0.15330 0.88576 0.14020 0.02900
C 	C 	0.14460 0.83065 0.13850 -0.08600
C 	C 	0.15530 0.71187 0.05351 -0.00400
C 	C 	0.15260 0.65882 0.03682 -0.07000
C 	C 	0.20340 0.63744 0.00525 0.00400
C 	C 	0.25670 0.66972 0.98940 -0.09600
C 	C 	0.31340 0.64582 0.95883 0.32100
C 	C 	0.25850 0.72263 0.00570 0.01600
C 	C 	0.20770 0.74416 0.03660 -0.07900
C 	C 	0.89880 0.69076 0.39782 -0.00900
C 	C 	0.84730 0.71271 0.36870 -0.07800
C 	C 	0.83890 0.76789 0.36610 0.02600
C 	C 	0.88370 0.80128 0.39238 -0.11400
C 	C 	0.87430 0.86158 0.39021 0.41200
C 	C 	0.93530 0.77945 0.42200 0.02800
C 	C 	0.94280 0.72449 0.42417 -0.07300
C 	C 	0.89130 0.58701 0.34273 0.00400
C 	C 	0.82660 0.57601 0.32577 -0.09400
C 	C 	0.81560 0.54949 0.27764 0.04300
C 	C 	0.86860 0.53421 0.24613 -0.13800
C 	C 	0.85680 0.50492 0.19411 0.41100
C 	C 	0.93220 0.54620 0.26260 0.07100
C 	C 	0.94400 0.57220 0.31070 -0.10600
C 	C 	0.84160 0.59649 0.44935 -0.00900
C 	C 	0.78830 0.62771 0.46540 -0.07800
C 	C 	0.73710 0.60601 0.49580 0.01600
C 	C 	0.73911 0.55281 0.51126 -0.10600
C 	C 	0.68240 0.52790 0.54211 0.33600
C 	C 	0.79240 0.52187 0.49602 0.01100
C 	C 	0.84380 0.54342 0.46543 -0.07300
C 	C 	0.10460 0.20537 0.33917 -0.00000
C 	C 	0.05080 0.19288 0.30660 -0.08100
C 	C 	0.06080 0.16830 0.25720 0.02100
C 	C 	0.12410 0.15526 0.24025 -0.10500
C 	C 	0.13610 0.12518 0.18824 0.38100
C 	C 	0.17760 0.16820 0.27220 0.02200
C 	C 	0.16860 0.19339 0.32140 -0.08500
C 	C 	0.09940 0.30682 0.39679 0.00600
C 	C 	0.06490 0.34112 0.42984 -0.09000
C 	C 	0.07130 0.39530 0.42855 0.04100
C 	C 	0.11490 0.41844 0.39342 -0.11600
C 	C 	0.12510 0.47847 0.39268 0.39000
C 	C 	0.15330 0.38576 0.35980 0.02900
C 	C 	0.14460 0.33065 0.36150 -0.08600
C 	C 	0.15530 0.21187 0.44649 -0.00400
C 	C 	0.15260 0.15882 0.46318 -0.07000
C 	C 	0.20340 0.13744 0.49475 0.00400
C 	C 	0.25670 0.16972 0.51060 -0.09600
C 	C 	0.31340 0.14582 0.54117 0.32100
C 	C 	0.25850 0.22263 0.49430 0.01500
C 	C 	0.20770 0.24416 0.46340 -0.07800
C 	C 	0.89880 0.19076 0.10218 -0.00900
C 	C 	0.84730 0.21271 0.13130 -0.07800
C 	C 	0.83890 0.26789 0.13390 0.02600
C 	C 	0.88370 0.30128 0.10762 -0.11400
C 	C 	0.87430 0.36158 0.10979 0.41200
C 	C 	0.93530 0.27945 0.07800 0.02800
C 	C 	0.94280 0.22449 0.07583 -0.07300
C 	C 	0.89130 0.08701 0.15727 0.00500
C 	C 	0.82660 0.07601 0.17423 -0.09400
C 	C 	0.81560 0.04949 0.22236 0.04300
C 	C 	0.86860 0.03421 0.25387 -0.13800
C 	C 	0.85680 0.00492 0.30589 0.41100
C 	C 	0.93220 0.04620 0.23740 0.07200
C 	C 	0.94400 0.07220 0.18930 -0.10600
C 	C 	0.84160 0.09649 0.05065 -0.00900
C 	C 	0.78830 0.12771 0.03460 -0.07800
C 	C 	0.73710 0.10601 0.00420 0.01400
C 	C 	0.73911 0.05281 0.98874 -0.10600
C 	C 	0.68240 0.02790 0.95789 0.33700
C 	C 	0.79240 0.02187 0.00398 0.01200
C 	C 	0.84380 0.04342 0.03457 -0.07400
C 	C 	0.60460 0.79463 0.16083 -0.00000
C 	C 	0.55080 0.80712 0.19340 -0.08100
C 	C 	0.56080 0.83170 0.24280 0.02100
C 	C 	0.62410 0.84474 0.25975 -0.10500
C 	C 	0.63610 0.87482 0.31176 0.38100
C 	C 	0.67760 0.83180 0.22780 0.02200
C 	C 	0.66860 0.80661 0.17860 -0.08500
C 	C 	0.59940 0.69318 0.10321 0.00600
C 	C 	0.56490 0.65888 0.07016 -0.09000
C 	C 	0.57130 0.60470 0.07145 0.04100
C 	C 	0.61490 0.58156 0.10658 -0.11600
C 	C 	0.62510 0.52153 0.10732 0.39000
C 	C 	0.65330 0.61424 0.14020 0.02900
C 	C 	0.64460 0.66935 0.13850 -0.08600
C 	C 	0.65530 0.78813 0.05351 -0.00200
C 	C 	0.65260 0.84118 0.03682 -0.07300
C 	C 	0.70340 0.86256 0.00525 0.00800
C 	C 	0.75670 0.83028 0.98940 -0.10000
C 	C 	0.81340 0.85418 0.95883 0.32200
C 	C 	0.75850 0.77737 0.00570 0.02000
C 	C 	0.70770 0.75584 0.03660 -0.08100
C 	C 	0.39880 0.80924 0.39782 -0.00900
C 	C 	0.34730 0.78729 0.36870 -0.07800
C 	C 	0.33890 0.73211 0.36610 0.02600
C 	C 	0.38370 0.69872 0.39238 -0.11400
C 	C 	0.37430 0.63842 0.39021 0.41200
C 	C 	0.43530 0.72055 0.42200 0.02800
C 	C 	0.44280 0.77551 0.42417 -0.07300
C 	C 	0.39130 0.91299 0.34273 0.00400
C 	C 	0.32660 0.92399 0.32577 -0.09400
C 	C 	0.31560 0.95051 0.27764 0.04300
C 	C 	0.36860 0.96579 0.24613 -0.13800
C 	C 	0.35680 0.99508 0.19411 0.41200
C 	C 	0.43220 0.95380 0.26260 0.07100
C 	C 	0.44400 0.92780 0.31070 -0.10600
C 	C 	0.34160 0.90351 0.44935 -0.00900
C 	C 	0.28830 0.87229 0.46540 -0.07900
C 	C 	0.23710 0.89399 0.49580 0.01700
C 	C 	0.23911 0.94719 0.51126 -0.10700
C 	C 	0.18240 0.97210 0.54211 0.33700
C 	C 	0.29240 0.97813 0.49602 0.01300
C 	C 	0.34380 0.95658 0.46543 -0.07400
C 	C 	0.39540 0.70537 0.66083 -0.00000
C 	C 	0.44920 0.69288 0.69340 -0.08100
C 	C 	0.43920 0.66830 0.74280 0.02100
C 	C 	0.37590 0.65526 0.75975 -0.10500
C 	C 	0.36390 0.62518 0.81176 0.38100
C 	C 	0.32240 0.66820 0.72780 0.02200
C 	C 	0.33140 0.69339 0.67860 -0.08500
C 	C 	0.40060 0.80682 0.60321 0.00600
C 	C 	0.43510 0.84112 0.57016 -0.09000
C 	C 	0.42870 0.89530 0.57145 0.04100
C 	C 	0.38510 0.91844 0.60658 -0.11600
C 	C 	0.37490 0.97847 0.60732 0.39000
C 	C 	0.34670 0.88576 0.64020 0.02900
C 	C 	0.35540 0.83065 0.63850 -0.08600
C 	C 	0.34470 0.71187 0.55351 -0.00400
C 	C 	0.34740 0.65882 0.53682 -0.07000
C 	C 	0.29660 0.63744 0.50525 0.00400
C 	C 	0.24330 0.66972 0.48940 -0.09600
C 	C 	0.18660 0.64582 0.45883 0.32000
C 	C 	0.24150 0.72263 0.50570 0.01500
C 	C 	0.29230 0.74416 0.53660 -0.07800
C 	C 	0.60120 0.69076 0.89782 -0.00900
C 	C 	0.65270 0.71271 0.86870 -0.07800
C 	C 	0.66110 0.76789 0.86610 0.02600
C 	C 	0.61630 0.80128 0.89238 -0.11400
C 	C 	0.62570 0.86158 0.89021 0.41200
C 	C 	0.56470 0.77945 0.92200 0.02800
C 	C 	0.55720 0.72449 0.92417 -0.07300
C 	C 	0.60870 0.58701 0.84273 0.00400
C 	C 	0.67340 0.57601 0.82577 -0.09400
C 	C 	0.68440 0.54949 0.77764 0.04300
C 	C 	0.63140 0.53421 0.74613 -0.13800
C 	C 	0.64320 0.50492 0.69411 0.41100
C 	C 	0.56780 0.54620 0.76260 0.07100
C 	C 	0.55600 0.57220 0.81070 -0.10600
C 	C 	0.65840 0.59649 0.94935 -0.01000
C 	C 	0.71170 0.62771 0.96540 -0.07700
C 	C 	0.76290 0.60601 0.99580 0.01400
C 	C 	0.76089 0.55281 0.01126 -0.10500
C 	C 	0.81760 0.52790 0.04211 0.33500
C 	C 	0.70760 0.52187 0.99602 0.00900
C 	C 	0.65620 0.54342 0.96543 -0.07200
C 	C 	0.89540 0.29463 0.83917 -0.00000
C 	C 	0.94920 0.30712 0.80660 -0.08100
C 	C 	0.93920 0.33170 0.75720 0.02100
C 	C 	0.87590 0.34474 0.74025 -0.10500
C 	C 	0.86390 0.37482 0.68824 0.38100
C 	C 	0.82240 0.33180 0.77220 0.02200
C 	C 	0.83140 0.30661 0.82140 -0.08500
C 	C 	0.90060 0.19318 0.89679 0.00600
C 	C 	0.93510 0.15888 0.92984 -0.09000
C 	C 	0.92870 0.10470 0.92855 0.04100
C 	C 	0.88510 0.08156 0.89342 -0.11600
C 	C 	0.87490 0.02153 0.89268 0.39200
C 	C 	0.84670 0.11424 0.85980 0.02900
C 	C 	0.85540 0.16935 0.86150 -0.08600
C 	C 	0.84470 0.28813 0.94649 -0.00400
C 	C 	0.84740 0.34118 0.96318 -0.07000
C 	C 	0.79660 0.36256 0.99475 0.00400
C 	C 	0.74330 0.33028 0.01060 -0.09600
C 	C 	0.68660 0.35418 0.04117 0.32100
C 	C 	0.74150 0.27737 0.99430 0.01600
C 	C 	0.79230 0.25584 0.96340 -0.07900
C 	C 	0.10120 0.30924 0.60218 -0.00900
C 	C 	0.15270 0.28729 0.63130 -0.07800
C 	C 	0.16110 0.23211 0.63390 0.02600
C 	C 	0.11630 0.19872 0.60762 -0.11400
C 	C 	0.12570 0.13842 0.60979 0.41200
C 	C 	0.06470 0.22055 0.57800 0.02800
C 	C 	0.05720 0.27551 0.57583 -0.07300
C 	C 	0.10870 0.41299 0.65727 0.00400
C 	C 	0.17340 0.42399 0.67423 -0.09400
C 	C 	0.18440 0.45051 0.72236 0.04300
C 	C 	0.13140 0.46579 0.75387 -0.13800
C 	C 	0.14320 0.49508 0.80589 0.41100
C 	C 	0.06780 0.45380 0.73740 0.07100
C 	C 	0.05600 0.42780 0.68930 -0.10600
C 	C 	0.15840 0.40351 0.55065 -0.00900
C 	C 	0.21170 0.37229 0.53460 -0.07800
C 	C 	0.26290 0.39399 0.50420 0.01600
C 	C 	0.26089 0.44719 0.48874 -0.10600
C 	C 	0.31760 0.47210 0.45789 0.33600
C 	C 	0.20760 0.47813 0.50398 0.01100
C 	C 	0.15620 0.45658 0.53457 -0.07300
O 	O 	0.91230 0.87796 0.84435 -0.44400
O 	O 	0.80666 0.89356 0.81810 -0.43800
O 	O 	0.92030 0.49259 0.58821 -0.47100
O 	O 	0.82095 0.50520 0.62752 -0.45100
O 	O 	0.69196 0.90184 0.44034 -0.52000
O 	O 	0.63203 0.82929 0.45479 -0.37800
O 	O 	0.97915 0.77847 0.57602 -0.21600
O 	O 	0.18173 0.62251 0.87458 -0.46000
O 	O 	0.07803 0.61014 0.90392 -0.50100
O 	O 	0.20002 0.01460 0.68715 -0.44100
O 	O 	0.09495 0.99783 0.66212 -0.48600
O 	O 	0.37244 0.94840 0.04504 -0.41800
O 	O 	0.30949 0.01832 0.06244 -0.53300
O 	O 	0.02426 0.89503 0.92688 -0.39600
O 	O 	0.41230 0.12204 0.65565 -0.44400
O 	O 	0.30666 0.10644 0.68190 -0.43700
O 	O 	0.42030 0.50741 0.91179 -0.47100
O 	O 	0.32095 0.49480 0.87248 -0.45100
O 	O 	0.19196 0.09816 0.05966 -0.52000
O 	O 	0.13203 0.17071 0.04521 -0.37800
O 	O 	0.47915 0.22153 0.92398 -0.21500
O 	O 	0.68173 0.37749 0.62542 -0.46000
O 	O 	0.57803 0.38986 0.59608 -0.50100
O 	O 	0.70002 0.98540 0.81285 -0.44200
O 	O 	0.59495 0.00217 0.83788 -0.48600
O 	O 	0.87244 0.05160 0.45496 -0.41800
O 	O 	0.80949 0.98168 0.43756 -0.53300
O 	O 	0.52426 0.10497 0.57312 -0.39600
O 	O 	0.58770 0.37796 0.15565 -0.44400
O 	O 	0.69334 0.39356 0.18190 -0.43700
O 	O 	0.57970 0.99259 0.41179 -0.47200
O 	O 	0.67905 0.00520 0.37248 -0.45100
O 	O 	0.80804 0.40184 0.55966 -0.52000
O 	O 	0.86797 0.32929 0.54521 -0.37700
O 	O 	0.52085 0.27847 0.42398 -0.21500
O 	O 	0.31827 0.12251 0.12542 -0.46000
O 	O 	0.42197 0.11014 0.09608 -0.50100
O 	O 	0.29998 0.51460 0.31285 -0.44100
O 	O 	0.40505 0.49783 0.33788 -0.48600
O 	O 	0.12756 0.44840 0.95496 -0.41800
O 	O 	0.19051 0.51832 0.93756 -0.53200
O 	O 	0.47574 0.39503 0.07312 -0.39700
O 	O 	0.08770 0.62204 0.34435 -0.44400
O 	O 	0.19334 0.60644 0.31810 -0.43700
O 	O 	0.07970 0.00741 0.08821 -0.47400
O 	O 	0.17905 0.99480 0.12752 -0.45100
O 	O 	0.30804 0.59816 0.94034 -0.52000
O 	O 	0.36797 0.67071 0.95479 -0.37800
O 	O 	0.02085 0.72153 0.07602 -0.21500
O 	O 	0.81827 0.87749 0.37458 -0.46000
O 	O 	0.92197 0.88986 0.40392 -0.50100
O 	O 	0.79998 0.48540 0.18715 -0.44100
O 	O 	0.90505 0.50217 0.16212 -0.48600
O 	O 	0.62756 0.55160 0.54504 -0.41800
O 	O 	0.69051 0.48168 0.56244 -0.53200
O 	O 	0.97574 0.60497 0.42688 -0.39700
O 	O 	0.08770 0.12204 0.15565 -0.44400
O 	O 	0.19334 0.10644 0.18190 -0.43800
O 	O 	0.07970 0.50741 0.41179 -0.47100
O 	O 	0.17905 0.49480 0.37248 -0.45100
O 	O 	0.30804 0.09816 0.55966 -0.52000
O 	O 	0.36797 0.17071 0.54521 -0.37800
O 	O 	0.02085 0.22153 0.42398 -0.21600
O 	O 	0.81827 0.37749 0.12542 -0.46000
O 	O 	0.92197 0.38986 0.09608 -0.50100
O 	O 	0.79998 0.98540 0.31285 -0.44100
O 	O 	0.90505 0.00217 0.33788 -0.48600
O 	O 	0.62756 0.05160 0.95496 -0.41800
O 	O 	0.69051 0.98168 0.93756 -0.53300
O 	O 	0.97574 0.10497 0.07312 -0.39600
O 	O 	0.58770 0.87796 0.34435 -0.44400
O 	O 	0.69334 0.89356 0.31810 -0.43700
O 	O 	0.57970 0.49259 0.08821 -0.47100
O 	O 	0.67905 0.50520 0.12752 -0.45100
O 	O 	0.80804 0.90184 0.94034 -0.52000
O 	O 	0.86797 0.82929 0.95479 -0.37800
O 	O 	0.52085 0.77847 0.07602 -0.21500
O 	O 	0.31827 0.62251 0.37458 -0.46000
O 	O 	0.42197 0.61014 0.40392 -0.50100
O 	O 	0.29998 0.01460 0.18715 -0.44200
O 	O 	0.40505 0.99783 0.16212 -0.48600
O 	O 	0.12756 0.94840 0.54504 -0.41800
O 	O 	0.19051 0.01832 0.56244 -0.53300
O 	O 	0.47574 0.89503 0.42688 -0.39600
O 	O 	0.41230 0.62204 0.84435 -0.44400
O 	O 	0.30666 0.60644 0.81810 -0.43700
O 	O 	0.42030 0.00741 0.58821 -0.47200
O 	O 	0.32095 0.99480 0.62752 -0.45100
O 	O 	0.19196 0.59816 0.44034 -0.52000
O 	O 	0.13203 0.67071 0.45479 -0.37700
O 	O 	0.47915 0.72153 0.57602 -0.21500
O 	O 	0.68173 0.87749 0.87458 -0.46000
O 	O 	0.57803 0.88986 0.90392 -0.50100
O 	O 	0.70002 0.48540 0.68715 -0.44100
O 	O 	0.59495 0.50217 0.66212 -0.48600
O 	O 	0.87244 0.55160 0.04504 -0.41800
O 	O 	0.80949 0.48168 0.06244 -0.53200
O 	O 	0.52426 0.60497 0.92688 -0.39700
O 	O 	0.91230 0.37796 0.65565 -0.44400
O 	O 	0.80666 0.39356 0.68190 -0.43700
O 	O 	0.92030 0.99259 0.91179 -0.47400
O 	O 	0.82095 0.00520 0.87248 -0.45100
O 	O 	0.69196 0.40184 0.05966 -0.52000
O 	O 	0.63203 0.32929 0.04521 -0.37800
O 	O 	0.97915 0.27847 0.92398 -0.21500
O 	O 	0.18173 0.12251 0.62542 -0.46000
O 	O 	0.07803 0.11014 0.59608 -0.50100
O 	O 	0.20002 0.51460 0.81285 -0.44100
O 	O 	0.09495 0.49783 0.83788 -0.48600
O 	O 	0.37244 0.44840 0.45496 -0.41800
O 	O 	0.30949 0.51832 0.43756 -0.53200
O 	O 	0.02426 0.39503 0.57312 -0.39700
