data_crystal

_cell_length_a 19.53600
_cell_length_b 24.87500
_cell_length_c 24.96270
_cell_angle_alpha 90.00000
_cell_angle_beta  90.00000
_cell_angle_gamma 90.00000

_symmetry_space_group_name_	'P 1'
_symmetry_space_group_name_H-M	'P 1'

loop_
_symmetry_equiv_pos_as_xyz
  x,y,z

loop_
_atom_site_label
_atom_site_type_symbol
_atom_site_fract_x
_atom_site_fract_y
_atom_site_fract_z
_atom_site_charge
Co	Co	0.91720 0.90656 0.92202 1.16400
Co	Co	0.75052 0.94039 0.87556 1.19800
Co	Co	0.08054 0.52719 0.91765 1.11400
Co	Co	0.41720 0.09344 0.57798 1.16400
Co	Co	0.25052 0.05961 0.62444 1.19800
Co	Co	0.58054 0.47281 0.58235 1.11400
Co	Co	0.58280 0.40656 0.07798 1.16500
Co	Co	0.74948 0.44039 0.12444 1.19900
Co	Co	0.41946 0.02719 0.08235 1.11400
Co	Co	0.08280 0.59344 0.42202 1.16500
Co	Co	0.24948 0.55961 0.37556 1.19900
Co	Co	0.91946 0.97281 0.41765 1.11400
Co	Co	0.08280 0.09344 0.07798 1.16500
Co	Co	0.24948 0.05961 0.12444 1.19900
Co	Co	0.91946 0.47281 0.08235 1.11500
Co	Co	0.58280 0.90656 0.42202 1.16500
Co	Co	0.74948 0.94039 0.37556 1.19900
Co	Co	0.41946 0.52719 0.41765 1.11500
Co	Co	0.41720 0.59344 0.92202 1.16500
Co	Co	0.25052 0.55961 0.87556 1.19900
Co	Co	0.58054 0.97281 0.91765 1.11400
Co	Co	0.91720 0.40656 0.57798 1.16500
Co	Co	0.75052 0.44039 0.62444 1.19900
Co	Co	0.08054 0.02719 0.58235 1.11400
P 	P 	0.91677 0.76267 0.59704 0.18500
P 	P 	0.08934 0.88186 0.90410 0.21700
P 	P 	0.41677 0.23733 0.90296 0.18400
P 	P 	0.58934 0.11814 0.59590 0.21700
P 	P 	0.58323 0.26267 0.40296 0.18500
P 	P 	0.41066 0.38186 0.09590 0.21700
P 	P 	0.08323 0.73733 0.09704 0.18500
P 	P 	0.91066 0.61814 0.40410 0.21700
P 	P 	0.08323 0.23733 0.40296 0.18500
P 	P 	0.91066 0.11814 0.09590 0.21700
P 	P 	0.58323 0.76267 0.09704 0.18400
P 	P 	0.41066 0.88186 0.40410 0.21700
P 	P 	0.41677 0.73733 0.59704 0.18500
P 	P 	0.58934 0.61814 0.90410 0.21700
P 	P 	0.91677 0.26267 0.90296 0.18500
P 	P 	0.08934 0.38186 0.59590 0.21700
H 	H 	0.99560 0.78910 0.68900 0.06500
H 	H 	0.97550 0.83080 0.77230 0.03900
H 	H 	0.77490 0.84500 0.73550 0.04200
H 	H 	0.79520 0.80080 0.65390 0.05700
H 	H 	0.97840 0.67300 0.54680 0.06400
H 	H 	0.96280 0.57900 0.54720 0.03100
H 	H 	0.81590 0.59600 0.66160 0.04100
H 	H 	0.83240 0.68920 0.66050 0.05500
H 	H 	0.89250 0.85940 0.54230 0.04400
H 	H 	0.80290 0.89790 0.49200 0.02300
H 	H 	0.69810 0.75710 0.50250 0.04100
H 	H 	0.78420 0.72030 0.55440 0.05600
H 	H 	0.18100 0.80960 0.84590 0.05000
H 	H 	0.19500 0.71660 0.84300 0.04400
H 	H 	0.02690 0.69730 0.93720 0.03900
H 	H 	0.01590 0.79090 0.94400 0.05900
H 	H 	0.21080 0.90970 0.84320 0.04900
H 	H 	0.23030 0.95340 0.76110 0.04200
H 	H 	0.02610 0.96870 0.73910 0.03700
H 	H 	0.00660 0.92460 0.82070 0.05500
H 	H 	0.21110 0.83520 0.95870 0.05400
H 	H 	0.29880 0.87260 0.01010 0.04100
H 	H 	0.20970 0.01860 0.00080 0.02900
H 	H 	0.12250 0.98230 0.94860 0.05100
H 	H 	0.49560 0.21090 0.81100 0.06500
H 	H 	0.47550 0.16920 0.72770 0.04000
H 	H 	0.27490 0.15500 0.76450 0.04200
H 	H 	0.29520 0.19920 0.84610 0.05700
H 	H 	0.47840 0.32700 0.95320 0.06400
H 	H 	0.46280 0.42100 0.95280 0.03100
H 	H 	0.31590 0.40400 0.83840 0.04100
H 	H 	0.33240 0.31080 0.83950 0.05500
H 	H 	0.39250 0.14060 0.95770 0.04400
H 	H 	0.30290 0.10210 0.00800 0.02100
H 	H 	0.19810 0.24290 0.99750 0.04100
H 	H 	0.28420 0.27970 0.94560 0.05700
H 	H 	0.68100 0.19040 0.65410 0.05000
H 	H 	0.69500 0.28340 0.65700 0.04400
H 	H 	0.52690 0.30270 0.56280 0.03900
H 	H 	0.51590 0.20910 0.55600 0.05900
H 	H 	0.71080 0.09030 0.65680 0.04900
H 	H 	0.73030 0.04660 0.73890 0.04200
H 	H 	0.52610 0.03130 0.76090 0.03700
H 	H 	0.50660 0.07540 0.67930 0.05500
H 	H 	0.71110 0.16480 0.54130 0.05400
H 	H 	0.79880 0.12740 0.48990 0.04000
H 	H 	0.70970 0.98140 0.49920 0.02900
H 	H 	0.62250 0.01770 0.55140 0.05100
H 	H 	0.50440 0.28910 0.31100 0.06500
H 	H 	0.52450 0.33080 0.22770 0.04000
H 	H 	0.72510 0.34500 0.26450 0.04200
H 	H 	0.70480 0.30080 0.34610 0.05700
H 	H 	0.52160 0.17300 0.45320 0.06400
H 	H 	0.53720 0.07900 0.45280 0.03000
H 	H 	0.68410 0.09600 0.33840 0.04100
H 	H 	0.66760 0.18920 0.33950 0.05500
H 	H 	0.60750 0.35940 0.45770 0.04400
H 	H 	0.69710 0.39790 0.50800 0.02300
H 	H 	0.80190 0.25710 0.49750 0.04100
H 	H 	0.71580 0.22030 0.44560 0.05600
H 	H 	0.31900 0.30960 0.15410 0.05000
H 	H 	0.30500 0.21660 0.15700 0.04400
H 	H 	0.47310 0.19730 0.06280 0.03900
H 	H 	0.48410 0.29090 0.05600 0.05900
H 	H 	0.28920 0.40970 0.15680 0.04900
H 	H 	0.26970 0.45340 0.23890 0.04200
H 	H 	0.47390 0.46870 0.26090 0.03700
H 	H 	0.49340 0.42460 0.17930 0.05500
H 	H 	0.28890 0.33520 0.04130 0.05400
H 	H 	0.20120 0.37260 0.98990 0.04100
H 	H 	0.29030 0.51860 0.99920 0.03100
H 	H 	0.37750 0.48230 0.05140 0.05100
H 	H 	0.00440 0.71090 0.18900 0.06600
H 	H 	0.02450 0.66920 0.27230 0.04000
H 	H 	0.22510 0.65500 0.23550 0.04200
H 	H 	0.20480 0.69920 0.15390 0.05700
H 	H 	0.02160 0.82700 0.04680 0.06400
H 	H 	0.03720 0.92100 0.04720 0.03100
H 	H 	0.18410 0.90400 0.16160 0.04100
H 	H 	0.16760 0.81080 0.16050 0.05500
H 	H 	0.10750 0.64060 0.04230 0.04400
H 	H 	0.19710 0.60210 0.99200 0.02300
H 	H 	0.30190 0.74290 0.00250 0.04100
H 	H 	0.21580 0.77970 0.05440 0.05600
H 	H 	0.81900 0.69040 0.34590 0.05000
H 	H 	0.80500 0.78340 0.34300 0.04400
H 	H 	0.97310 0.80270 0.43720 0.03900
H 	H 	0.98410 0.70910 0.44400 0.05900
H 	H 	0.78920 0.59030 0.34320 0.04900
H 	H 	0.76970 0.54660 0.26110 0.04200
H 	H 	0.97390 0.53130 0.23910 0.03700
H 	H 	0.99340 0.57540 0.32070 0.05500
H 	H 	0.78890 0.66480 0.45870 0.05400
H 	H 	0.70120 0.62740 0.51010 0.04000
H 	H 	0.79030 0.48140 0.50080 0.03000
H 	H 	0.87750 0.51770 0.44860 0.05100
H 	H 	0.00440 0.21090 0.31100 0.06500
H 	H 	0.02450 0.16920 0.22770 0.03900
H 	H 	0.22510 0.15500 0.26450 0.04200
H 	H 	0.20480 0.19920 0.34610 0.05700
H 	H 	0.02160 0.32700 0.45320 0.06400
H 	H 	0.03720 0.42100 0.45280 0.03100
H 	H 	0.18410 0.40400 0.33840 0.04100
H 	H 	0.16760 0.31080 0.33950 0.05500
H 	H 	0.10750 0.14060 0.45770 0.04400
H 	H 	0.19710 0.10210 0.50800 0.02300
H 	H 	0.30190 0.24290 0.49750 0.04100
H 	H 	0.21580 0.27970 0.44560 0.05600
H 	H 	0.81900 0.19040 0.15410 0.05000
H 	H 	0.80500 0.28340 0.15700 0.04400
H 	H 	0.97310 0.30270 0.06280 0.03900
H 	H 	0.98410 0.20910 0.05600 0.05900
H 	H 	0.78920 0.09030 0.15680 0.04900
H 	H 	0.76970 0.04660 0.23890 0.04200
H 	H 	0.97390 0.03130 0.26090 0.03700
H 	H 	0.99340 0.07540 0.17930 0.05500
H 	H 	0.78890 0.16480 0.04130 0.05400
H 	H 	0.70120 0.12740 0.98990 0.04100
H 	H 	0.79030 0.98140 0.99920 0.02900
H 	H 	0.87750 0.01770 0.05140 0.05100
H 	H 	0.50440 0.78910 0.18900 0.06500
H 	H 	0.52450 0.83080 0.27230 0.04000
H 	H 	0.72510 0.84500 0.23550 0.04200
H 	H 	0.70480 0.80080 0.15390 0.05700
H 	H 	0.52160 0.67300 0.04680 0.06400
H 	H 	0.53720 0.57900 0.04720 0.03100
H 	H 	0.68410 0.59600 0.16160 0.04100
H 	H 	0.66760 0.68920 0.16050 0.05500
H 	H 	0.60750 0.85940 0.04230 0.04400
H 	H 	0.69710 0.89790 0.99200 0.02100
H 	H 	0.80190 0.75710 0.00250 0.04100
H 	H 	0.71580 0.72030 0.05440 0.05700
H 	H 	0.31900 0.80960 0.34590 0.05000
H 	H 	0.30500 0.71660 0.34300 0.04400
H 	H 	0.47310 0.69730 0.43720 0.03900
H 	H 	0.48410 0.79090 0.44400 0.05900
H 	H 	0.28920 0.90970 0.34320 0.04900
H 	H 	0.26970 0.95340 0.26110 0.04200
H 	H 	0.47390 0.96870 0.23910 0.03700
H 	H 	0.49340 0.92460 0.32070 0.05500
H 	H 	0.28890 0.83520 0.45870 0.05400
H 	H 	0.20120 0.87260 0.51010 0.04000
H 	H 	0.29030 0.01860 0.50080 0.02900
H 	H 	0.37750 0.98230 0.44860 0.05100
H 	H 	0.49560 0.71090 0.68900 0.06500
H 	H 	0.47550 0.66920 0.77230 0.04000
H 	H 	0.27490 0.65500 0.73550 0.04200
H 	H 	0.29520 0.69920 0.65390 0.05700
H 	H 	0.47840 0.82700 0.54680 0.06400
H 	H 	0.46280 0.92100 0.54720 0.03000
H 	H 	0.31590 0.90400 0.66160 0.04100
H 	H 	0.33240 0.81080 0.66050 0.05500
H 	H 	0.39250 0.64060 0.54230 0.04400
H 	H 	0.30290 0.60210 0.49200 0.02300
H 	H 	0.19810 0.74290 0.50250 0.04100
H 	H 	0.28420 0.77970 0.55440 0.05600
H 	H 	0.68100 0.69040 0.84590 0.05000
H 	H 	0.69500 0.78340 0.84300 0.04400
H 	H 	0.52690 0.80270 0.93720 0.03900
H 	H 	0.51590 0.70910 0.94400 0.05900
H 	H 	0.71080 0.59030 0.84320 0.04900
H 	H 	0.73030 0.54660 0.76110 0.04200
H 	H 	0.52610 0.53130 0.73910 0.03700
H 	H 	0.50660 0.57540 0.82070 0.05500
H 	H 	0.71110 0.66480 0.95870 0.05400
H 	H 	0.79880 0.62740 0.01010 0.04100
H 	H 	0.70970 0.48140 0.00080 0.03100
H 	H 	0.62250 0.51770 0.94860 0.05100
H 	H 	0.99560 0.28910 0.81100 0.06600
H 	H 	0.97550 0.33080 0.72770 0.04000
H 	H 	0.77490 0.34500 0.76450 0.04200
H 	H 	0.79520 0.30080 0.84610 0.05700
H 	H 	0.97840 0.17300 0.95320 0.06400
H 	H 	0.96280 0.07900 0.95280 0.03100
H 	H 	0.81590 0.09600 0.83840 0.04100
H 	H 	0.83240 0.18920 0.83950 0.05500
H 	H 	0.89250 0.35940 0.95770 0.04400
H 	H 	0.80290 0.39790 0.00800 0.02300
H 	H 	0.69810 0.25710 0.99750 0.04100
H 	H 	0.78420 0.22030 0.94560 0.05600
H 	H 	0.18100 0.30960 0.65410 0.05000
H 	H 	0.19500 0.21660 0.65700 0.04400
H 	H 	0.02690 0.19730 0.56280 0.03900
H 	H 	0.01590 0.29090 0.55600 0.05900
H 	H 	0.21080 0.40970 0.65680 0.04900
H 	H 	0.23030 0.45340 0.73890 0.04200
H 	H 	0.02610 0.46870 0.76090 0.03700
H 	H 	0.00660 0.42460 0.67930 0.05500
H 	H 	0.21110 0.33520 0.54130 0.05400
H 	H 	0.29880 0.37260 0.48990 0.04000
H 	H 	0.20970 0.51860 0.49920 0.03000
H 	H 	0.12250 0.48230 0.55140 0.05100
C 	C 	0.89780 0.79240 0.66280 -0.00000
C 	C 	0.95070 0.80050 0.69810 -0.07300
C 	C 	0.93870 0.82600 0.74790 0.01500
C 	C 	0.87390 0.84376 0.76140 -0.09700
C 	C 	0.86100 0.87400 0.81300 0.36700
C 	C 	0.82000 0.83400 0.72630 0.01500
C 	C 	0.83240 0.80790 0.67740 -0.07800
C 	C 	0.90690 0.69032 0.60250 -0.00100
C 	C 	0.94520 0.65750 0.57000 -0.07200
C 	C 	0.93630 0.60110 0.57040 0.01900
C 	C 	0.88820 0.57782 0.60510 -0.09500
C 	C 	0.87550 0.51810 0.60510 0.36600
C 	C 	0.84910 0.61130 0.63830 0.01600
C 	C 	0.85870 0.66690 0.63740 -0.07500
C 	C 	0.84770 0.78580 0.55410 -0.00800
C 	C 	0.85270 0.83880 0.53470 -0.06400
C 	C 	0.79950 0.86185 0.50430 0.00200
C 	C 	0.74150 0.83100 0.49230 -0.09100
C 	C 	0.68330 0.85630 0.46290 0.31700
C 	C 	0.73720 0.77810 0.51100 0.01200
C 	C 	0.78860 0.75610 0.54150 -0.07200
C 	C 	0.09780 0.81018 0.89552 -0.01900
C 	C 	0.15040 0.78712 0.86520 -0.06400
C 	C 	0.15850 0.73170 0.86300 0.00900
C 	C 	0.11220 0.69767 0.89070 -0.09300
C 	C 	0.12260 0.63730 0.88910 0.37100
C 	C 	0.05890 0.72007 0.91960 0.01400
C 	C 	0.05170 0.77591 0.92310 -0.06100
C 	C 	0.10620 0.91401 0.84079 -0.01800
C 	C 	0.17310 0.92190 0.82240 -0.06400
C 	C 	0.18470 0.94800 0.77320 0.00900
C 	C 	0.13030 0.96580 0.74220 -0.09000
C 	C 	0.14360 0.99570 0.69020 0.36700
C 	C 	0.06380 0.95700 0.76010 0.01000
C 	C 	0.05230 0.93080 0.80910 -0.06100
C 	C 	0.15760 0.90477 0.94708 -0.01600
C 	C 	0.21050 0.87260 0.96660 -0.06500
C 	C 	0.26260 0.89490 0.99780 0.00500
C 	C 	0.26250 0.94908 0.01115 -0.09000
C 	C 	0.31990 0.97354 0.04222 0.30600
C 	C 	0.21020 0.98140 0.99230 0.00100
C 	C 	0.15830 0.95960 0.96100 -0.06100
C 	C 	0.39780 0.20760 0.83720 -0.00000
C 	C 	0.45070 0.19950 0.80190 -0.07300
C 	C 	0.43870 0.17400 0.75210 0.01500
C 	C 	0.37390 0.15624 0.73860 -0.09700
C 	C 	0.36100 0.12600 0.68700 0.36700
C 	C 	0.32000 0.16600 0.77370 0.01500
C 	C 	0.33240 0.19210 0.82260 -0.07700
C 	C 	0.40690 0.30968 0.89750 -0.00100
C 	C 	0.44520 0.34250 0.93000 -0.07200
C 	C 	0.43630 0.39890 0.92960 0.01900
C 	C 	0.38820 0.42218 0.89490 -0.09500
C 	C 	0.37550 0.48190 0.89490 0.36600
C 	C 	0.34910 0.38870 0.86170 0.01600
C 	C 	0.35870 0.33310 0.86260 -0.07500
C 	C 	0.34770 0.21420 0.94590 -0.00700
C 	C 	0.35270 0.16120 0.96530 -0.06600
C 	C 	0.29950 0.13815 0.99570 0.00400
C 	C 	0.24150 0.16900 0.00770 -0.09300
C 	C 	0.18330 0.14370 0.03710 0.31800
C 	C 	0.23720 0.22190 0.98900 0.01400
C 	C 	0.28860 0.24390 0.95850 -0.07300
C 	C 	0.59780 0.18982 0.60448 -0.01900
C 	C 	0.65040 0.21288 0.63480 -0.06400
C 	C 	0.65850 0.26830 0.63700 0.00900
C 	C 	0.61220 0.30233 0.60930 -0.09300
C 	C 	0.62260 0.36270 0.61090 0.37100
C 	C 	0.55890 0.27993 0.58040 0.01400
C 	C 	0.55170 0.22409 0.57690 -0.06100
C 	C 	0.60620 0.08599 0.65921 -0.01800
C 	C 	0.67310 0.07810 0.67760 -0.06400
C 	C 	0.68470 0.05200 0.72680 0.00900
C 	C 	0.63030 0.03420 0.75780 -0.09000
C 	C 	0.64360 0.00430 0.80980 0.36800
C 	C 	0.56380 0.04300 0.73990 0.01000
C 	C 	0.55230 0.06920 0.69090 -0.06100
C 	C 	0.65760 0.09523 0.55292 -0.01500
C 	C 	0.71050 0.12740 0.53340 -0.06600
C 	C 	0.76260 0.10510 0.50220 0.00600
C 	C 	0.76250 0.05092 0.48885 -0.09100
C 	C 	0.81990 0.02646 0.45778 0.30600
C 	C 	0.71020 0.01860 0.50770 0.00200
C 	C 	0.65830 0.04040 0.53900 -0.06100
C 	C 	0.60220 0.29240 0.33720 -0.00000
C 	C 	0.54930 0.30050 0.30190 -0.07300
C 	C 	0.56130 0.32600 0.25210 0.01500
C 	C 	0.62610 0.34376 0.23860 -0.09700
C 	C 	0.63900 0.37400 0.18700 0.36700
C 	C 	0.68000 0.33400 0.27370 0.01500
C 	C 	0.66760 0.30790 0.32260 -0.07700
C 	C 	0.59310 0.19032 0.39750 -0.00100
C 	C 	0.55480 0.15750 0.43000 -0.07200
C 	C 	0.56370 0.10110 0.42960 0.01900
C 	C 	0.61180 0.07782 0.39490 -0.09500
C 	C 	0.62450 0.01810 0.39490 0.36600
C 	C 	0.65090 0.11130 0.36170 0.01600
C 	C 	0.64130 0.16690 0.36260 -0.07500
C 	C 	0.65230 0.28580 0.44590 -0.00800
C 	C 	0.64730 0.33880 0.46530 -0.06400
C 	C 	0.70050 0.36185 0.49570 0.00200
C 	C 	0.75850 0.33100 0.50770 -0.09100
C 	C 	0.81670 0.35630 0.53710 0.31700
C 	C 	0.76280 0.27810 0.48900 0.01200
C 	C 	0.71140 0.25610 0.45850 -0.07200
C 	C 	0.40220 0.31018 0.10448 -0.01900
C 	C 	0.34960 0.28712 0.13480 -0.06400
C 	C 	0.34150 0.23170 0.13700 0.00900
C 	C 	0.38780 0.19767 0.10930 -0.09300
C 	C 	0.37740 0.13730 0.11090 0.37100
C 	C 	0.44110 0.22007 0.08040 0.01400
C 	C 	0.44830 0.27591 0.07690 -0.06100
C 	C 	0.39380 0.41401 0.15921 -0.01800
C 	C 	0.32690 0.42190 0.17760 -0.06400
C 	C 	0.31530 0.44800 0.22680 0.00800
C 	C 	0.36970 0.46580 0.25780 -0.09000
C 	C 	0.35640 0.49570 0.30980 0.36700
C 	C 	0.43620 0.45700 0.23990 0.01000
C 	C 	0.44770 0.43080 0.19090 -0.06100
C 	C 	0.34240 0.40477 0.05292 -0.01600
C 	C 	0.28950 0.37260 0.03340 -0.06500
C 	C 	0.23740 0.39490 0.00220 0.00400
C 	C 	0.23750 0.44908 0.98885 -0.08900
C 	C 	0.18010 0.47354 0.95778 0.30500
C 	C 	0.28980 0.48140 0.00770 -0.00100
C 	C 	0.34170 0.45960 0.03900 -0.05900
C 	C 	0.10220 0.70760 0.16280 -0.00000
C 	C 	0.04930 0.69950 0.19810 -0.07300
C 	C 	0.06130 0.67400 0.24790 0.01500
C 	C 	0.12610 0.65624 0.26140 -0.09700
C 	C 	0.13900 0.62600 0.31300 0.36700
C 	C 	0.18000 0.66600 0.22630 0.01500
C 	C 	0.16760 0.69210 0.17740 -0.07700
C 	C 	0.09310 0.80968 0.10250 -0.00100
C 	C 	0.05480 0.84250 0.07000 -0.07300
C 	C 	0.06370 0.89890 0.07040 0.02000
C 	C 	0.11180 0.92218 0.10510 -0.09600
C 	C 	0.12450 0.98190 0.10510 0.36700
C 	C 	0.15090 0.88870 0.13830 0.01700
C 	C 	0.14130 0.83310 0.13740 -0.07500
C 	C 	0.15230 0.71420 0.05410 -0.00800
C 	C 	0.14730 0.66120 0.03470 -0.06400
C 	C 	0.20050 0.63815 0.00430 0.00200
C 	C 	0.25850 0.66900 0.99230 -0.09100
C 	C 	0.31670 0.64370 0.96290 0.31700
C 	C 	0.26280 0.72190 0.01100 0.01200
C 	C 	0.21140 0.74390 0.04150 -0.07200
C 	C 	0.90220 0.68982 0.39552 -0.01900
C 	C 	0.84960 0.71288 0.36520 -0.06400
C 	C 	0.84150 0.76830 0.36300 0.00900
C 	C 	0.88780 0.80233 0.39070 -0.09300
C 	C 	0.87740 0.86270 0.38910 0.37100
C 	C 	0.94110 0.77993 0.41960 0.01400
C 	C 	0.94830 0.72409 0.42310 -0.06100
C 	C 	0.89380 0.58599 0.34079 -0.01800
C 	C 	0.82690 0.57810 0.32240 -0.06400
C 	C 	0.81530 0.55200 0.27320 0.00800
C 	C 	0.86970 0.53420 0.24220 -0.09000
C 	C 	0.85640 0.50430 0.19020 0.36700
C 	C 	0.93620 0.54300 0.26010 0.01000
C 	C 	0.94770 0.56920 0.30910 -0.06100
C 	C 	0.84240 0.59523 0.44708 -0.01600
C 	C 	0.78950 0.62740 0.46660 -0.06600
C 	C 	0.73740 0.60510 0.49780 0.00600
C 	C 	0.73750 0.55092 0.51115 -0.09100
C 	C 	0.68010 0.52646 0.54222 0.30500
C 	C 	0.78980 0.51860 0.49230 -0.00000
C 	C 	0.84170 0.54040 0.46100 -0.06000
C 	C 	0.10220 0.20760 0.33720 -0.00000
C 	C 	0.04930 0.19950 0.30190 -0.07300
C 	C 	0.06130 0.17400 0.25210 0.01500
C 	C 	0.12610 0.15624 0.23860 -0.09700
C 	C 	0.13900 0.12600 0.18700 0.36700
C 	C 	0.18000 0.16600 0.27370 0.01500
C 	C 	0.16760 0.19210 0.32260 -0.07800
C 	C 	0.09310 0.30968 0.39750 -0.00100
C 	C 	0.05480 0.34250 0.43000 -0.07200
C 	C 	0.06370 0.39890 0.42960 0.01900
C 	C 	0.11180 0.42218 0.39490 -0.09500
C 	C 	0.12450 0.48190 0.39490 0.36600
C 	C 	0.15090 0.38870 0.36170 0.01600
C 	C 	0.14130 0.33310 0.36260 -0.07500
C 	C 	0.15230 0.21420 0.44590 -0.00800
C 	C 	0.14730 0.16120 0.46530 -0.06400
C 	C 	0.20050 0.13815 0.49570 0.00200
C 	C 	0.25850 0.16900 0.50770 -0.09100
C 	C 	0.31670 0.14370 0.53710 0.31700
C 	C 	0.26280 0.22190 0.48900 0.01200
C 	C 	0.21140 0.24390 0.45850 -0.07200
C 	C 	0.90220 0.18982 0.10448 -0.01900
C 	C 	0.84960 0.21288 0.13480 -0.06400
C 	C 	0.84150 0.26830 0.13700 0.00900
C 	C 	0.88780 0.30233 0.10930 -0.09300
C 	C 	0.87740 0.36270 0.11090 0.37100
C 	C 	0.94110 0.27993 0.08040 0.01400
C 	C 	0.94830 0.22409 0.07690 -0.06100
C 	C 	0.89380 0.08599 0.15921 -0.01800
C 	C 	0.82690 0.07810 0.17760 -0.06400
C 	C 	0.81530 0.05200 0.22680 0.00900
C 	C 	0.86970 0.03420 0.25780 -0.09000
C 	C 	0.85640 0.00430 0.30980 0.36700
C 	C 	0.93620 0.04300 0.23990 0.01000
C 	C 	0.94770 0.06920 0.19090 -0.06100
C 	C 	0.84240 0.09523 0.05292 -0.01600
C 	C 	0.78950 0.12740 0.03340 -0.06500
C 	C 	0.73740 0.10510 0.00220 0.00500
C 	C 	0.73750 0.05092 0.98885 -0.09000
C 	C 	0.68010 0.02646 0.95778 0.30600
C 	C 	0.78980 0.01860 0.00770 0.00100
C 	C 	0.84170 0.04040 0.03900 -0.06100
C 	C 	0.60220 0.79240 0.16280 -0.00000
C 	C 	0.54930 0.80050 0.19810 -0.07300
C 	C 	0.56130 0.82600 0.24790 0.01500
C 	C 	0.62610 0.84376 0.26140 -0.09700
C 	C 	0.63900 0.87400 0.31300 0.36700
C 	C 	0.68000 0.83400 0.22630 0.01500
C 	C 	0.66760 0.80790 0.17740 -0.07700
C 	C 	0.59310 0.69032 0.10250 -0.00100
C 	C 	0.55480 0.65750 0.07000 -0.07200
C 	C 	0.56370 0.60110 0.07040 0.01900
C 	C 	0.61180 0.57782 0.10510 -0.09500
C 	C 	0.62450 0.51810 0.10510 0.36600
C 	C 	0.65090 0.61130 0.13830 0.01600
C 	C 	0.64130 0.66690 0.13740 -0.07500
C 	C 	0.65230 0.78580 0.05410 -0.00700
C 	C 	0.64730 0.83880 0.03470 -0.06600
C 	C 	0.70050 0.86185 0.00430 0.00400
C 	C 	0.75850 0.83100 0.99230 -0.09300
C 	C 	0.81670 0.85630 0.96290 0.31800
C 	C 	0.76280 0.77810 0.01100 0.01400
C 	C 	0.71140 0.75610 0.04150 -0.07300
C 	C 	0.40220 0.81018 0.39552 -0.01900
C 	C 	0.34960 0.78712 0.36520 -0.06400
C 	C 	0.34150 0.73170 0.36300 0.00900
C 	C 	0.38780 0.69767 0.39070 -0.09300
C 	C 	0.37740 0.63730 0.38910 0.37100
C 	C 	0.44110 0.72007 0.41960 0.01400
C 	C 	0.44830 0.77591 0.42310 -0.06100
C 	C 	0.39380 0.91401 0.34079 -0.01800
C 	C 	0.32690 0.92190 0.32240 -0.06400
C 	C 	0.31530 0.94800 0.27320 0.00900
C 	C 	0.36970 0.96580 0.24220 -0.09000
C 	C 	0.35640 0.99570 0.19020 0.36800
C 	C 	0.43620 0.95700 0.26010 0.01000
C 	C 	0.44770 0.93080 0.30910 -0.06100
C 	C 	0.34240 0.90477 0.44708 -0.01500
C 	C 	0.28950 0.87260 0.46660 -0.06600
C 	C 	0.23740 0.89490 0.49780 0.00600
C 	C 	0.23750 0.94908 0.51115 -0.09100
C 	C 	0.18010 0.97354 0.54222 0.30600
C 	C 	0.28980 0.98140 0.49230 0.00200
C 	C 	0.34170 0.95960 0.46100 -0.06100
C 	C 	0.39780 0.70760 0.66280 -0.00000
C 	C 	0.45070 0.69950 0.69810 -0.07300
C 	C 	0.43870 0.67400 0.74790 0.01500
C 	C 	0.37390 0.65624 0.76140 -0.09700
C 	C 	0.36100 0.62600 0.81300 0.36700
C 	C 	0.32000 0.66600 0.72630 0.01500
C 	C 	0.33240 0.69210 0.67740 -0.07700
C 	C 	0.40690 0.80968 0.60250 -0.00100
C 	C 	0.44520 0.84250 0.57000 -0.07200
C 	C 	0.43630 0.89890 0.57040 0.01900
C 	C 	0.38820 0.92218 0.60510 -0.09500
C 	C 	0.37550 0.98190 0.60510 0.36600
C 	C 	0.34910 0.88870 0.63830 0.01600
C 	C 	0.35870 0.83310 0.63740 -0.07500
C 	C 	0.34770 0.71420 0.55410 -0.00800
C 	C 	0.35270 0.66120 0.53470 -0.06400
C 	C 	0.29950 0.63815 0.50430 0.00200
C 	C 	0.24150 0.66900 0.49230 -0.09100
C 	C 	0.18330 0.64370 0.46290 0.31700
C 	C 	0.23720 0.72190 0.51100 0.01200
C 	C 	0.28860 0.74390 0.54150 -0.07200
C 	C 	0.59780 0.68982 0.89552 -0.01900
C 	C 	0.65040 0.71288 0.86520 -0.06400
C 	C 	0.65850 0.76830 0.86300 0.00900
C 	C 	0.61220 0.80233 0.89070 -0.09300
C 	C 	0.62260 0.86270 0.88910 0.37100
C 	C 	0.55890 0.77993 0.91960 0.01400
C 	C 	0.55170 0.72409 0.92310 -0.06100
C 	C 	0.60620 0.58599 0.84079 -0.01800
C 	C 	0.67310 0.57810 0.82240 -0.06400
C 	C 	0.68470 0.55200 0.77320 0.00800
C 	C 	0.63030 0.53420 0.74220 -0.09000
C 	C 	0.64360 0.50430 0.69020 0.36700
C 	C 	0.56380 0.54300 0.76010 0.01000
C 	C 	0.55230 0.56920 0.80910 -0.06100
C 	C 	0.65760 0.59523 0.94708 -0.01600
C 	C 	0.71050 0.62740 0.96660 -0.06500
C 	C 	0.76260 0.60510 0.99780 0.00400
C 	C 	0.76250 0.55092 0.01115 -0.08900
C 	C 	0.81990 0.52646 0.04222 0.30500
C 	C 	0.71020 0.51860 0.99230 -0.00100
C 	C 	0.65830 0.54040 0.96100 -0.05900
C 	C 	0.89780 0.29240 0.83720 -0.00000
C 	C 	0.95070 0.30050 0.80190 -0.07300
C 	C 	0.93870 0.32600 0.75210 0.01500
C 	C 	0.87390 0.34376 0.73860 -0.09700
C 	C 	0.86100 0.37400 0.68700 0.36700
C 	C 	0.82000 0.33400 0.77370 0.01500
C 	C 	0.83240 0.30790 0.82260 -0.07700
C 	C 	0.90690 0.19032 0.89750 -0.00100
C 	C 	0.94520 0.15750 0.93000 -0.07300
C 	C 	0.93630 0.10110 0.92960 0.02000
C 	C 	0.88820 0.07782 0.89490 -0.09600
C 	C 	0.87550 0.01810 0.89490 0.36700
C 	C 	0.84910 0.11130 0.86170 0.01700
C 	C 	0.85870 0.16690 0.86260 -0.07500
C 	C 	0.84770 0.28580 0.94590 -0.00800
C 	C 	0.85270 0.33880 0.96530 -0.06400
C 	C 	0.79950 0.36185 0.99570 0.00200
C 	C 	0.74150 0.33100 0.00770 -0.09100
C 	C 	0.68330 0.35630 0.03710 0.31700
C 	C 	0.73720 0.27810 0.98900 0.01200
C 	C 	0.78860 0.25610 0.95850 -0.07200
C 	C 	0.09780 0.31018 0.60448 -0.01900
C 	C 	0.15040 0.28712 0.63480 -0.06400
C 	C 	0.15850 0.23170 0.63700 0.00900
C 	C 	0.11220 0.19767 0.60930 -0.09300
C 	C 	0.12260 0.13730 0.61090 0.37100
C 	C 	0.05890 0.22007 0.58040 0.01400
C 	C 	0.05170 0.27591 0.57690 -0.06100
C 	C 	0.10620 0.41401 0.65921 -0.01800
C 	C 	0.17310 0.42190 0.67760 -0.06400
C 	C 	0.18470 0.44800 0.72680 0.00800
C 	C 	0.13030 0.46580 0.75780 -0.09000
C 	C 	0.14360 0.49570 0.80980 0.36700
C 	C 	0.06380 0.45700 0.73990 0.01000
C 	C 	0.05230 0.43080 0.69090 -0.06100
C 	C 	0.15760 0.40477 0.55292 -0.01600
C 	C 	0.21050 0.37260 0.53340 -0.06600
C 	C 	0.26260 0.39490 0.50220 0.00600
C 	C 	0.26250 0.44908 0.48885 -0.09100
C 	C 	0.31990 0.47354 0.45778 0.30500
C 	C 	0.21020 0.48140 0.50770 -0.00000
C 	C 	0.15830 0.45960 0.53900 -0.06000
O 	O 	0.90933 0.87490 0.84698 -0.43200
O 	O 	0.80380 0.89693 0.81750 -0.40600
O 	O 	0.92269 0.48794 0.58620 -0.43500
O 	O 	0.81852 0.50305 0.62307 -0.42500
O 	O 	0.69207 0.90158 0.43844 -0.49600
O 	O 	0.62420 0.83560 0.46230 -0.37900
O 	O 	0.98612 0.77884 0.57706 -0.21100
O 	O 	0.18195 0.62197 0.87412 -0.42300
O 	O 	0.07330 0.60754 0.90203 -0.46100
O 	O 	0.20304 0.01503 0.68428 -0.40200
O 	O 	0.09314 0.99987 0.65822 -0.44800
O 	O 	0.37744 0.95019 0.04607 -0.39100
O 	O 	0.31268 0.02125 0.06263 -0.49900
O 	O 	0.02067 0.89688 0.92636 -0.37500
O 	O 	0.40933 0.12510 0.65302 -0.43100
O 	O 	0.30380 0.10307 0.68250 -0.40500
O 	O 	0.42269 0.51206 0.91380 -0.43500
O 	O 	0.31852 0.49695 0.87693 -0.42500
O 	O 	0.19207 0.09842 0.06156 -0.49600
O 	O 	0.12420 0.16440 0.03770 -0.38000
O 	O 	0.48612 0.22116 0.92294 -0.21000
O 	O 	0.68195 0.37803 0.62588 -0.42300
O 	O 	0.57330 0.39246 0.59797 -0.46200
O 	O 	0.70304 0.98497 0.81572 -0.40200
O 	O 	0.59314 0.00013 0.84178 -0.44800
O 	O 	0.87744 0.04981 0.45393 -0.39100
O 	O 	0.81268 0.97875 0.43737 -0.49900
O 	O 	0.52067 0.10312 0.57364 -0.37500
O 	O 	0.59067 0.37490 0.15302 -0.43100
O 	O 	0.69620 0.39693 0.18250 -0.40500
O 	O 	0.57731 0.98794 0.41380 -0.43500
O 	O 	0.68148 0.00305 0.37693 -0.42500
O 	O 	0.80793 0.40158 0.56156 -0.49600
O 	O 	0.87580 0.33560 0.53770 -0.37900
O 	O 	0.51388 0.27884 0.42294 -0.21000
O 	O 	0.31805 0.12197 0.12588 -0.42300
O 	O 	0.42670 0.10754 0.09797 -0.46200
O 	O 	0.29696 0.51503 0.31572 -0.40200
O 	O 	0.40686 0.49987 0.34178 -0.44800
O 	O 	0.12256 0.45019 0.95393 -0.39100
O 	O 	0.18732 0.52125 0.93737 -0.49800
O 	O 	0.47933 0.39688 0.07364 -0.37500
O 	O 	0.09067 0.62510 0.34698 -0.43100
O 	O 	0.19620 0.60307 0.31750 -0.40500
O 	O 	0.07731 0.01206 0.08620 -0.43700
O 	O 	0.18148 0.99695 0.12307 -0.42500
O 	O 	0.30793 0.59842 0.93844 -0.49600
O 	O 	0.37580 0.66440 0.96230 -0.37900
O 	O 	0.01388 0.72116 0.07706 -0.21000
O 	O 	0.81805 0.87803 0.37412 -0.42300
O 	O 	0.92670 0.89246 0.40203 -0.46200
O 	O 	0.79696 0.48497 0.18428 -0.40200
O 	O 	0.90686 0.50013 0.15822 -0.44800
O 	O 	0.62256 0.54981 0.54607 -0.39100
O 	O 	0.68732 0.47875 0.56263 -0.49800
O 	O 	0.97933 0.60312 0.42636 -0.37500
O 	O 	0.09067 0.12510 0.15302 -0.43200
O 	O 	0.19620 0.10307 0.18250 -0.40600
O 	O 	0.07731 0.51206 0.41380 -0.43500
O 	O 	0.18148 0.49695 0.37693 -0.42500
O 	O 	0.30793 0.09842 0.56156 -0.49600
O 	O 	0.37580 0.16440 0.53770 -0.37900
O 	O 	0.01388 0.22116 0.42294 -0.21100
O 	O 	0.81805 0.37803 0.12588 -0.42300
O 	O 	0.92670 0.39246 0.09797 -0.46100
O 	O 	0.79696 0.98497 0.31572 -0.40200
O 	O 	0.90686 0.00013 0.34178 -0.44800
O 	O 	0.62256 0.04981 0.95393 -0.39100
O 	O 	0.68732 0.97875 0.93737 -0.49900
O 	O 	0.97933 0.10312 0.07364 -0.37500
O 	O 	0.59067 0.87490 0.34698 -0.43100
O 	O 	0.69620 0.89693 0.31750 -0.40500
O 	O 	0.57731 0.48794 0.08620 -0.43500
O 	O 	0.68148 0.50305 0.12307 -0.42500
O 	O 	0.80793 0.90158 0.93844 -0.49600
O 	O 	0.87580 0.83560 0.96230 -0.38000
O 	O 	0.51388 0.77884 0.07706 -0.21000
O 	O 	0.31805 0.62197 0.37412 -0.42300
O 	O 	0.42670 0.60754 0.40203 -0.46200
O 	O 	0.29696 0.01503 0.18428 -0.40200
O 	O 	0.40686 0.99987 0.15822 -0.44800
O 	O 	0.12256 0.95019 0.54607 -0.39100
O 	O 	0.18732 0.02125 0.56263 -0.49900
O 	O 	0.47933 0.89688 0.42636 -0.37500
O 	O 	0.40933 0.62510 0.84698 -0.43100
O 	O 	0.30380 0.60307 0.81750 -0.40500
O 	O 	0.42269 0.01206 0.58620 -0.43500
O 	O 	0.31852 0.99695 0.62307 -0.42500
O 	O 	0.19207 0.59842 0.43844 -0.49600
O 	O 	0.12420 0.66440 0.46230 -0.37900
O 	O 	0.48612 0.72116 0.57706 -0.21000
O 	O 	0.68195 0.87803 0.87412 -0.42300
O 	O 	0.57330 0.89246 0.90203 -0.46200
O 	O 	0.70304 0.48497 0.68428 -0.40200
O 	O 	0.59314 0.50013 0.65822 -0.44800
O 	O 	0.87744 0.54981 0.04607 -0.39100
O 	O 	0.81268 0.47875 0.06263 -0.49800
O 	O 	0.52067 0.60312 0.92636 -0.37500
O 	O 	0.90933 0.37490 0.65302 -0.43100
O 	O 	0.80380 0.39693 0.68250 -0.40500
O 	O 	0.92269 0.98794 0.91380 -0.43700
O 	O 	0.81852 0.00305 0.87693 -0.42500
O 	O 	0.69207 0.40158 0.06156 -0.49600
O 	O 	0.62420 0.33560 0.03770 -0.37900
O 	O 	0.98612 0.27884 0.92294 -0.21000
O 	O 	0.18195 0.12197 0.62588 -0.42300
O 	O 	0.07330 0.10754 0.59797 -0.46200
O 	O 	0.20304 0.51503 0.81572 -0.40200
O 	O 	0.09314 0.49987 0.84178 -0.44800
O 	O 	0.37744 0.45019 0.45393 -0.39100
O 	O 	0.31268 0.52125 0.43737 -0.49800
O 	O 	0.02067 0.39688 0.57364 -0.37500
