data_crystal

_cell_length_a 8.58790
_cell_length_b 8.58790
_cell_length_c 20.86370
_cell_angle_alpha 100.89700
_cell_angle_beta  100.89700
_cell_angle_gamma 94.67140

_symmetry_space_group_name_	'P 1'
_symmetry_space_group_name_H-M	'P 1'

loop_
_symmetry_equiv_pos_as_xyz
  x,y,z

loop_
_atom_site_label
_atom_site_type_symbol
_atom_site_fract_x
_atom_site_fract_y
_atom_site_fract_z
_atom_site_charge
Mg	Mg	0.58313 0.71035 0.33266 1.46500
Mg	Mg	0.28965 0.41687 0.66734 1.46500
Mg	Mg	0.37231 0.99953 0.83266 1.46600
Mg	Mg	0.00047 0.62769 0.16734 1.46500
Mg	Mg	0.70273 0.29727 0.50000 1.46400
Mg	Mg	0.95273 0.04727 -0.00000 1.45500
H 	H 	0.03310 0.04130 0.37960 0.27400
H 	H 	0.97020 0.21140 0.39760 0.27300
H 	H 	0.03180 0.11900 0.45560 0.27800
H 	H 	0.98930 0.72210 0.42100 0.26900
H 	H 	0.06080 0.55500 0.41660 0.27600
H 	H 	0.95060 0.59340 0.35200 0.27200
H 	H 	0.55190 0.35330 0.25360 0.26600
H 	H 	0.63930 0.25110 0.20160 0.25000
H 	H 	0.72470 0.30330 0.27880 0.25600
H 	H 	0.95870 0.96690 0.62040 0.25000
H 	H 	0.78860 0.02980 0.60240 0.25800
H 	H 	0.88100 0.96820 0.54440 0.25400
H 	H 	0.27790 0.01070 0.57900 0.26500
H 	H 	0.44500 0.93920 0.58340 0.26500
H 	H 	0.40660 0.04940 0.64800 0.26900
H 	H 	0.64670 0.44810 0.74640 0.26900
H 	H 	0.74890 0.36070 0.79840 0.25900
H 	H 	0.69670 0.27530 0.72120 0.26000
H 	H 	0.08830 0.59650 0.87960 0.26000
H 	H 	0.93620 0.67740 0.89760 0.25700
H 	H 	0.08660 0.67380 0.95560 0.28100
H 	H 	0.44890 0.68170 0.92100 0.28200
H 	H 	0.61160 0.60580 0.91660 0.27900
H 	H 	0.50860 0.65140 0.85200 0.27300
H 	H 	0.65030 0.95170 0.75360 0.26900
H 	H 	0.70050 0.81230 0.70160 0.25600
H 	H 	0.72550 0.80410 0.77880 0.26000
H 	H 	0.40350 0.91170 0.12040 0.23400
H 	H 	0.32260 0.06380 0.10240 0.23600
H 	H 	0.32620 0.91340 0.04440 0.21900
H 	H 	0.31830 0.55110 0.07900 0.24400
H 	H 	0.39420 0.38840 0.08340 0.24500
H 	H 	0.34860 0.49140 0.14800 0.25900
H 	H 	0.04830 0.34970 0.24640 0.27200
H 	H 	0.18770 0.29950 0.29840 0.25800
H 	H 	0.19590 0.27450 0.22120 0.26000
C 	C 	0.80770 0.02364 0.40032 0.64100
C 	C 	0.97546 0.10608 0.40902 -0.96100
C 	C 	0.82178 0.53506 0.41984 0.64000
C 	C 	0.96856 0.60782 0.40070 -0.94600
C 	C 	0.73258 0.48882 0.22908 0.62800
C 	C 	0.65529 0.33561 0.24192 -0.90900
C 	C 	0.97636 0.19230 0.59968 0.61600
C 	C 	0.89392 0.02454 0.59098 -0.89900
C 	C 	0.46494 0.17822 0.58016 0.63400
C 	C 	0.39218 0.03144 0.59930 -0.92300
C 	C 	0.51118 0.26742 0.77092 0.63100
C 	C 	0.66439 0.34471 0.75808 -0.91500
C 	C 	0.12668 0.84262 0.90032 0.63100
C 	C 	0.05294 0.68356 0.90902 -0.89500
C 	C 	0.63478 0.84806 0.91984 0.64100
C 	C 	0.54288 0.68214 0.90070 -0.93500
C 	C 	0.49026 0.74650 0.72908 0.63000
C 	C 	0.65631 0.83663 0.74192 -0.91400
C 	C 	0.15738 0.87332 0.09968 0.61100
C 	C 	0.31644 0.94706 0.09098 -0.85300
C 	C 	0.15194 0.36522 0.08016 0.62400
C 	C 	0.31786 0.45712 0.09930 -0.89800
C 	C 	0.25350 0.50974 0.27092 0.63200
C 	C 	0.16337 0.34369 0.25808 -0.91700
O 	O 	0.76853 0.89297 0.35920 -0.62000
O 	O 	0.71622 0.08870 0.43534 -0.62100
O 	O 	0.68645 0.56903 0.39410 -0.61700
O 	O 	0.84196 0.44478 0.46068 -0.62200
O 	O 	0.83084 0.47794 0.19172 -0.63200
O 	O 	0.69507 0.62037 0.25764 -0.62000
O 	O 	0.10703 0.23147 0.64080 -0.60600
O 	O 	0.91130 0.28378 0.56466 -0.61500
O 	O 	0.43097 0.31355 0.60590 -0.61500
O 	O 	0.55522 0.15804 0.53932 -0.61800
O 	O 	0.52206 0.16916 0.80828 -0.61500
O 	O 	0.37963 0.30493 0.74236 -0.61500
O 	O 	0.21623 0.84067 0.85920 -0.60800
O 	O 	0.09664 0.96912 0.93534 -0.58000
O 	O 	0.57507 0.95765 0.89410 -0.60300
O 	O 	0.76590 0.86872 0.96068 -0.59000
O 	O 	0.46378 0.61088 0.69172 -0.62000
O 	O 	0.38727 0.81257 0.75764 -0.61600
O 	O 	0.15933 0.78377 0.14080 -0.61400
O 	O 	0.03088 0.90336 0.06466 -0.63200
O 	O 	0.04235 0.42493 0.10590 -0.62100
O 	O 	0.13128 0.23410 0.03932 -0.64300
O 	O 	0.38912 0.53622 0.30828 -0.62100
O 	O 	0.18743 0.61273 0.24236 -0.61700
