data_crystal

_cell_length_a 29.15100
_cell_length_b 29.15100
_cell_length_c 23.07000
_cell_angle_alpha 90.00000
_cell_angle_beta  90.00000
_cell_angle_gamma 120.00000

_symmetry_space_group_name_	'P 1'
_symmetry_space_group_name_H-M	'P 1'

loop_
_symmetry_equiv_pos_as_xyz
  x,y,z

loop_
_atom_site_label
_atom_site_type_symbol
_atom_site_fract_x
_atom_site_fract_y
_atom_site_fract_z
_atom_site_charge
O 	O 	0.43488 0.71328 0.98230 -0.40600
O 	O 	0.39610 0.62534 0.97550 -0.40600
C 	C 	0.43360 0.67000 0.98880 0.37700
C 	C 	0.48220 0.67180 0.01500 -0.10800
C 	C 	0.52940 0.71840 0.02090 0.03500
H 	H 	0.53100 0.75100 0.01180 0.03400
C 	C 	0.57480 0.71870 0.04020 -0.09100
H 	H 	0.60690 0.75150 0.04360 0.07100
C 	C 	0.57400 0.67260 0.05420 0.03400
C 	C 	0.52410 0.62590 0.05450 -0.09200
H 	H 	0.52100 0.59400 0.06910 0.06100
C 	C 	0.47980 0.62570 0.03400 0.03500
H 	H 	0.44700 0.59340 0.03280 0.03600
C 	C 	0.62280 0.67110 0.06970 0.07800
C 	C 	0.62170 0.62260 0.06970 -0.11700
H 	H 	0.58990 0.59090 0.06030 0.06800
C 	C 	0.71360 0.56800 0.08760 -0.12400
H 	H 	0.74660 0.59990 0.09070 0.07100
C 	C 	0.71140 0.51990 0.08720 0.08200
H 	H 	0.74380 0.51970 0.08990 0.01100
O 	O 	0.10155 0.04661 0.31563 -0.40500
O 	O 	0.06277 0.95867 0.30883 -0.40200
C 	C 	0.10027 0.00333 0.32213 0.37200
C 	C 	0.14887 0.00513 0.34833 -0.11300
C 	C 	0.19607 0.05173 0.35423 0.03600
H 	H 	0.19767 0.08433 0.34513 0.03300
C 	C 	0.24147 0.05203 0.37353 -0.09100
H 	H 	0.27357 0.08483 0.37693 0.07000
C 	C 	0.24067 0.00593 0.38753 0.03000
C 	C 	0.19077 0.95923 0.38783 -0.08700
H 	H 	0.18767 0.92733 0.40243 0.06000
C 	C 	0.14647 0.95903 0.36733 0.04000
H 	H 	0.11367 0.92673 0.36613 0.03300
C 	C 	0.28947 0.00443 0.40303 0.07300
C 	C 	0.28837 0.95593 0.40303 -0.11300
H 	H 	0.25657 0.92423 0.39363 0.06600
C 	C 	0.38027 0.90133 0.42093 -0.12300
H 	H 	0.41327 0.93323 0.42403 0.07100
C 	C 	0.37807 0.85323 0.42053 0.08100
H 	H 	0.41047 0.85303 0.42323 0.01100
O 	O 	0.76821 0.37995 0.64897 -0.40700
O 	O 	0.72943 0.29201 0.64217 -0.40700
C 	C 	0.76693 0.33667 0.65547 0.37700
C 	C 	0.81553 0.33847 0.68167 -0.10900
C 	C 	0.86273 0.38507 0.68757 0.03400
H 	H 	0.86433 0.41767 0.67847 0.03300
C 	C 	0.90813 0.38537 0.70687 -0.09200
H 	H 	0.94023 0.41817 0.71027 0.07100
C 	C 	0.90733 0.33927 0.72087 0.03400
C 	C 	0.85743 0.29257 0.72117 -0.09300
H 	H 	0.85433 0.26067 0.73577 0.06000
C 	C 	0.81313 0.29237 0.70067 0.03400
H 	H 	0.78033 0.26007 0.69947 0.03500
C 	C 	0.95613 0.33777 0.73637 0.08000
C 	C 	0.95503 0.28927 0.73637 -0.11100
H 	H 	0.92323 0.25757 0.72697 0.06600
C 	C 	0.04693 0.23467 0.75427 -0.12400
H 	H 	0.07993 0.26657 0.75737 0.07000
C 	C 	0.04473 0.18657 0.75387 0.07900
H 	H 	0.07713 0.18637 0.75657 0.01100
O 	O 	0.28672 0.72160 0.98230 -0.40700
O 	O 	0.37466 0.77076 0.97550 -0.40700
C 	C 	0.33000 0.76360 0.98880 0.37700
C 	C 	0.32820 0.81040 0.01500 -0.10900
C 	C 	0.28160 0.81100 0.02090 0.03500
H 	H 	0.24900 0.78000 0.01180 0.03300
C 	C 	0.28130 0.85610 0.04020 -0.09300
H 	H 	0.24850 0.85540 0.04360 0.07000
C 	C 	0.32740 0.90140 0.05420 0.03500
C 	C 	0.37410 0.89820 0.05450 -0.09400
H 	H 	0.40600 0.92700 0.06910 0.06200
C 	C 	0.37430 0.85410 0.03400 0.03500
H 	H 	0.40660 0.85360 0.03280 0.03500
C 	C 	0.32890 0.95170 0.06970 0.07600
C 	C 	0.37740 0.99910 0.06970 -0.11000
H 	H 	0.40910 0.99900 0.06030 0.06600
C 	C 	0.43200 0.14560 0.08760 -0.12600
H 	H 	0.40010 0.14670 0.09070 0.07000
C 	C 	0.48010 0.19150 0.08720 0.08200
H 	H 	0.48030 0.22410 0.08990 0.01000
O 	O 	0.95339 0.05493 0.31563 -0.40800
O 	O 	0.04133 0.10409 0.30883 -0.41200
C 	C 	0.99667 0.09693 0.32213 0.38300
C 	C 	0.99487 0.14373 0.34833 -0.10400
C 	C 	0.94827 0.14433 0.35423 0.03400
H 	H 	0.91567 0.11333 0.34513 0.03300
C 	C 	0.94797 0.18943 0.37353 -0.09300
H 	H 	0.91517 0.18873 0.37693 0.07000
C 	C 	0.99407 0.23473 0.38753 0.03800
C 	C 	0.04077 0.23153 0.38783 -0.09800
H 	H 	0.07267 0.26033 0.40243 0.06100
C 	C 	0.04097 0.18743 0.36733 0.02900
H 	H 	0.07327 0.18693 0.36613 0.03600
C 	C 	0.99557 0.28503 0.40303 0.08200
C 	C 	0.04407 0.33243 0.40303 -0.12300
H 	H 	0.07577 0.33233 0.39363 0.06800
C 	C 	0.09867 0.47893 0.42093 -0.12600
H 	H 	0.06677 0.48003 0.42403 0.06900
C 	C 	0.14677 0.52483 0.42053 0.08200
H 	H 	0.14697 0.55743 0.42323 0.01000
O 	O 	0.62005 0.38827 0.64897 -0.40700
O 	O 	0.70799 0.43743 0.64217 -0.40700
C 	C 	0.66333 0.43027 0.65547 0.37700
C 	C 	0.66153 0.47707 0.68167 -0.10900
C 	C 	0.61493 0.47767 0.68757 0.03400
H 	H 	0.58233 0.44667 0.67847 0.03300
C 	C 	0.61463 0.52277 0.70687 -0.09200
H 	H 	0.58183 0.52207 0.71027 0.07000
C 	C 	0.66073 0.56807 0.72087 0.03300
C 	C 	0.70743 0.56487 0.72117 -0.09300
H 	H 	0.73933 0.59367 0.73577 0.06000
C 	C 	0.70763 0.52077 0.70067 0.03400
H 	H 	0.73993 0.52027 0.69947 0.03500
C 	C 	0.66223 0.61837 0.73637 0.07800
C 	C 	0.71073 0.66577 0.73637 -0.11800
H 	H 	0.74243 0.66567 0.72697 0.06700
C 	C 	0.76533 0.81227 0.75427 -0.12500
H 	H 	0.73343 0.81337 0.75737 0.07000
C 	C 	0.81343 0.85817 0.75387 0.08100
H 	H 	0.81363 0.89077 0.75657 0.01100
O 	O 	0.27840 0.56512 0.98230 -0.40700
O 	O 	0.22924 0.60390 0.97550 -0.40700
C 	C 	0.23640 0.56640 0.98880 0.37600
C 	C 	0.18960 0.51780 0.01500 -0.10800
C 	C 	0.18900 0.47060 0.02090 0.03300
H 	H 	0.22000 0.46900 0.01180 0.03300
C 	C 	0.14390 0.42520 0.04020 -0.09100
H 	H 	0.14460 0.39310 0.04360 0.06900
C 	C 	0.09860 0.42600 0.05420 0.03200
C 	C 	0.10180 0.47590 0.05450 -0.09200
H 	H 	0.07300 0.47900 0.06910 0.05900
C 	C 	0.14590 0.52020 0.03400 0.03300
H 	H 	0.14640 0.55300 0.03280 0.03500
C 	C 	0.04830 0.37720 0.06970 0.07900
C 	C 	0.00090 0.37830 0.06970 -0.12700
H 	H 	0.00100 0.41010 0.06030 0.06800
C 	C 	0.85440 0.28640 0.08760 -0.12400
H 	H 	0.85330 0.25340 0.09070 0.07000
C 	C 	0.80850 0.28860 0.08720 0.08100
H 	H 	0.77590 0.25620 0.08990 0.01000
O 	O 	0.94507 0.89845 0.31563 -0.40300
O 	O 	0.89591 0.93723 0.30883 -0.40300
C 	C 	0.90307 0.89973 0.32213 0.37600
C 	C 	0.85627 0.85113 0.34833 -0.10700
C 	C 	0.85567 0.80393 0.35423 0.03300
H 	H 	0.88667 0.80233 0.34513 0.03400
C 	C 	0.81057 0.75853 0.37353 -0.09100
H 	H 	0.81127 0.72643 0.37693 0.07000
C 	C 	0.76527 0.75933 0.38753 0.03300
C 	C 	0.76847 0.80923 0.38783 -0.09200
H 	H 	0.73967 0.81233 0.40243 0.06000
C 	C 	0.81257 0.85353 0.36733 0.03300
H 	H 	0.81307 0.88633 0.36613 0.03600
C 	C 	0.71497 0.71053 0.40303 0.07800
C 	C 	0.66757 0.71163 0.40303 -0.11800
H 	H 	0.66767 0.74343 0.39363 0.06700
C 	C 	0.52107 0.61973 0.42093 -0.12500
H 	H 	0.51997 0.58673 0.42403 0.07000
C 	C 	0.47517 0.62193 0.42053 0.08100
H 	H 	0.44257 0.58953 0.42323 0.01000
O 	O 	0.61173 0.23179 0.64897 -0.40700
O 	O 	0.56257 0.27057 0.64217 -0.40700
C 	C 	0.56973 0.23307 0.65547 0.37700
C 	C 	0.52293 0.18447 0.68167 -0.10900
C 	C 	0.52233 0.13727 0.68757 0.03400
H 	H 	0.55333 0.13567 0.67847 0.03300
C 	C 	0.47723 0.09187 0.70687 -0.09200
H 	H 	0.47793 0.05977 0.71027 0.06900
C 	C 	0.43193 0.09267 0.72087 0.03300
C 	C 	0.43513 0.14257 0.72117 -0.09300
H 	H 	0.40633 0.14567 0.73577 0.06000
C 	C 	0.47923 0.18687 0.70067 0.03400
H 	H 	0.47973 0.21967 0.69947 0.03500
C 	C 	0.38163 0.04387 0.73637 0.07600
C 	C 	0.33423 0.04497 0.73637 -0.11700
H 	H 	0.33433 0.07677 0.72697 0.06700
C 	C 	0.18773 0.95307 0.75427 -0.11900
H 	H 	0.18663 0.92007 0.75737 0.06900
C 	C 	0.14183 0.95527 0.75387 0.08500
H 	H 	0.10923 0.92287 0.75657 0.00900
O 	O 	0.71328 0.43488 0.51770 -0.40700
O 	O 	0.62534 0.39610 0.52450 -0.40700
C 	C 	0.67000 0.43360 0.51120 0.37700
C 	C 	0.67180 0.48220 0.48500 -0.10900
C 	C 	0.71840 0.52940 0.47910 0.03400
H 	H 	0.75100 0.53100 0.48820 0.03300
C 	C 	0.71870 0.57480 0.45980 -0.09200
H 	H 	0.75150 0.60690 0.45640 0.07000
C 	C 	0.67260 0.57400 0.44580 0.03300
C 	C 	0.62590 0.52410 0.44550 -0.09300
H 	H 	0.59400 0.52100 0.43090 0.06000
C 	C 	0.62570 0.47980 0.46600 0.03400
H 	H 	0.59340 0.44700 0.46720 0.03500
C 	C 	0.67110 0.62280 0.43030 0.07700
C 	C 	0.62260 0.62170 0.43030 -0.11800
H 	H 	0.59090 0.58990 0.43970 0.06700
C 	C 	0.56800 0.71360 0.41240 -0.12500
H 	H 	0.59990 0.74660 0.40930 0.07000
C 	C 	0.51990 0.71140 0.41280 0.08100
H 	H 	0.51970 0.74380 0.41010 0.01000
O 	O 	0.37995 0.76821 0.85103 -0.40700
O 	O 	0.29201 0.72943 0.85783 -0.40700
C 	C 	0.33667 0.76693 0.84453 0.37700
C 	C 	0.33847 0.81553 0.81833 -0.10900
C 	C 	0.38507 0.86273 0.81243 0.03400
H 	H 	0.41767 0.86433 0.82153 0.03300
C 	C 	0.38537 0.90813 0.79313 -0.09200
H 	H 	0.41817 0.94023 0.78973 0.07100
C 	C 	0.33927 0.90733 0.77913 0.03400
C 	C 	0.29257 0.85743 0.77883 -0.09300
H 	H 	0.26067 0.85433 0.76423 0.06000
C 	C 	0.29237 0.81313 0.79933 0.03400
H 	H 	0.26007 0.78033 0.80053 0.03500
C 	C 	0.33777 0.95613 0.76363 0.08000
C 	C 	0.28927 0.95503 0.76363 -0.11100
H 	H 	0.25757 0.92323 0.77303 0.06600
C 	C 	0.23467 0.04693 0.74573 -0.12400
H 	H 	0.26657 0.07993 0.74263 0.07000
C 	C 	0.18657 0.04473 0.74613 0.07900
H 	H 	0.18637 0.07713 0.74343 0.01100
O 	O 	0.04661 0.10155 0.18437 -0.40600
O 	O 	0.95867 0.06277 0.19117 -0.40300
C 	C 	0.00333 0.10027 0.17787 0.37100
C 	C 	0.00513 0.14887 0.15167 -0.11400
C 	C 	0.05173 0.19607 0.14577 0.03500
H 	H 	0.08433 0.19767 0.15487 0.03200
C 	C 	0.05203 0.24147 0.12647 -0.09200
H 	H 	0.08483 0.27357 0.12307 0.06900
C 	C 	0.00593 0.24067 0.11247 0.02900
C 	C 	0.95923 0.19077 0.11217 -0.08800
H 	H 	0.92733 0.18767 0.09757 0.06000
C 	C 	0.95903 0.14647 0.13267 0.04000
H 	H 	0.92673 0.11367 0.13387 0.03300
C 	C 	0.00443 0.28947 0.09697 0.07300
C 	C 	0.95593 0.28837 0.09697 -0.11300
H 	H 	0.92423 0.25657 0.10637 0.06600
C 	C 	0.90133 0.38027 0.07907 -0.12300
H 	H 	0.93323 0.41327 0.07597 0.07100
C 	C 	0.85323 0.37807 0.07947 0.08100
H 	H 	0.85303 0.41047 0.07677 0.01100
O 	O 	0.72160 0.28672 0.51770 -0.40700
O 	O 	0.77076 0.37466 0.52450 -0.40700
C 	C 	0.76360 0.33000 0.51120 0.37700
C 	C 	0.81040 0.32820 0.48500 -0.10900
C 	C 	0.81100 0.28160 0.47910 0.03500
H 	H 	0.78000 0.24900 0.48820 0.03300
C 	C 	0.85610 0.28130 0.45980 -0.09300
H 	H 	0.85540 0.24850 0.45640 0.07000
C 	C 	0.90140 0.32740 0.44580 0.03500
C 	C 	0.89820 0.37410 0.44550 -0.09400
H 	H 	0.92700 0.40600 0.43090 0.06200
C 	C 	0.85410 0.37430 0.46600 0.03500
H 	H 	0.85360 0.40660 0.46720 0.03500
C 	C 	0.95170 0.32890 0.43030 0.07600
C 	C 	0.99910 0.37740 0.43030 -0.10900
H 	H 	0.99900 0.40910 0.43970 0.06600
C 	C 	0.14560 0.43200 0.41240 -0.12600
H 	H 	0.14670 0.40010 0.40930 0.07000
C 	C 	0.19150 0.48010 0.41280 0.08200
H 	H 	0.22410 0.48030 0.41010 0.01000
O 	O 	0.38827 0.62005 0.85103 -0.40700
O 	O 	0.43743 0.70799 0.85783 -0.40700
C 	C 	0.43027 0.66333 0.84453 0.37700
C 	C 	0.47707 0.66153 0.81833 -0.10900
C 	C 	0.47767 0.61493 0.81243 0.03400
H 	H 	0.44667 0.58233 0.82153 0.03300
C 	C 	0.52277 0.61463 0.79313 -0.09200
H 	H 	0.52207 0.58183 0.78973 0.07000
C 	C 	0.56807 0.66073 0.77913 0.03300
C 	C 	0.56487 0.70743 0.77883 -0.09300
H 	H 	0.59367 0.73933 0.76423 0.06000
C 	C 	0.52077 0.70763 0.79933 0.03400
H 	H 	0.52027 0.73993 0.80053 0.03500
C 	C 	0.61837 0.66223 0.76363 0.07800
C 	C 	0.66577 0.71073 0.76363 -0.11800
H 	H 	0.66567 0.74243 0.77303 0.06700
C 	C 	0.81227 0.76533 0.74573 -0.12500
H 	H 	0.81337 0.73343 0.74263 0.07000
C 	C 	0.85817 0.81343 0.74613 0.08100
H 	H 	0.89077 0.81363 0.74343 0.01100
O 	O 	0.05493 0.95339 0.18437 -0.40800
O 	O 	0.10409 0.04133 0.19117 -0.41200
C 	C 	0.09693 0.99667 0.17787 0.38300
C 	C 	0.14373 0.99487 0.15167 -0.10400
C 	C 	0.14433 0.94827 0.14577 0.03400
H 	H 	0.11333 0.91567 0.15487 0.03300
C 	C 	0.18943 0.94797 0.12647 -0.09300
H 	H 	0.18873 0.91517 0.12307 0.07000
C 	C 	0.23473 0.99407 0.11247 0.03800
C 	C 	0.23153 0.04077 0.11217 -0.09800
H 	H 	0.26033 0.07267 0.09757 0.06100
C 	C 	0.18743 0.04097 0.13267 0.02900
H 	H 	0.18693 0.07327 0.13387 0.03600
C 	C 	0.28503 0.99557 0.09697 0.08200
C 	C 	0.33243 0.04407 0.09697 -0.12300
H 	H 	0.33233 0.07577 0.10637 0.06800
C 	C 	0.47893 0.09867 0.07907 -0.12600
H 	H 	0.48003 0.06677 0.07597 0.06900
C 	C 	0.52483 0.14677 0.07947 0.08200
H 	H 	0.55743 0.14697 0.07677 0.01000
O 	O 	0.56512 0.27840 0.51770 -0.40700
O 	O 	0.60390 0.22924 0.52450 -0.40700
C 	C 	0.56640 0.23640 0.51120 0.37600
C 	C 	0.51780 0.18960 0.48500 -0.10800
C 	C 	0.47060 0.18900 0.47910 0.03300
H 	H 	0.46900 0.22000 0.48820 0.03300
C 	C 	0.42520 0.14390 0.45980 -0.09100
H 	H 	0.39310 0.14460 0.45640 0.06900
C 	C 	0.42600 0.09860 0.44580 0.03200
C 	C 	0.47590 0.10180 0.44550 -0.09200
H 	H 	0.47900 0.07300 0.43090 0.05900
C 	C 	0.52020 0.14590 0.46600 0.03300
H 	H 	0.55300 0.14640 0.46720 0.03500
C 	C 	0.37720 0.04830 0.43030 0.07900
C 	C 	0.37830 0.00090 0.43030 -0.12700
H 	H 	0.41010 0.00100 0.43970 0.06800
C 	C 	0.28640 0.85440 0.41240 -0.12400
H 	H 	0.25340 0.85330 0.40930 0.07000
C 	C 	0.28860 0.80850 0.41280 0.08100
H 	H 	0.25620 0.77590 0.41010 0.01000
O 	O 	0.23179 0.61173 0.85103 -0.40700
O 	O 	0.27057 0.56257 0.85783 -0.40700
C 	C 	0.23307 0.56973 0.84453 0.37700
C 	C 	0.18447 0.52293 0.81833 -0.10900
C 	C 	0.13727 0.52233 0.81243 0.03400
H 	H 	0.13567 0.55333 0.82153 0.03300
C 	C 	0.09187 0.47723 0.79313 -0.09200
H 	H 	0.05977 0.47793 0.78973 0.06900
C 	C 	0.09267 0.43193 0.77913 0.03300
C 	C 	0.14257 0.43513 0.77883 -0.09300
H 	H 	0.14567 0.40633 0.76423 0.06000
C 	C 	0.18687 0.47923 0.79933 0.03400
H 	H 	0.21967 0.47973 0.80053 0.03500
C 	C 	0.04387 0.38163 0.76363 0.07600
C 	C 	0.04497 0.33423 0.76363 -0.11700
H 	H 	0.07677 0.33433 0.77303 0.06700
C 	C 	0.95307 0.18773 0.74573 -0.11900
H 	H 	0.92007 0.18663 0.74263 0.06900
C 	C 	0.95527 0.14183 0.74613 0.08500
H 	H 	0.92287 0.10923 0.74343 0.00900
O 	O 	0.89845 0.94507 0.18437 -0.40300
O 	O 	0.93723 0.89591 0.19117 -0.40300
C 	C 	0.89973 0.90307 0.17787 0.37600
C 	C 	0.85113 0.85627 0.15167 -0.10700
C 	C 	0.80393 0.85567 0.14577 0.03300
H 	H 	0.80233 0.88667 0.15487 0.03400
C 	C 	0.75853 0.81057 0.12647 -0.09100
H 	H 	0.72643 0.81127 0.12307 0.07000
C 	C 	0.75933 0.76527 0.11247 0.03300
C 	C 	0.80923 0.76847 0.11217 -0.09200
H 	H 	0.81233 0.73967 0.09757 0.06000
C 	C 	0.85353 0.81257 0.13267 0.03300
H 	H 	0.88633 0.81307 0.13387 0.03600
C 	C 	0.71053 0.71497 0.09697 0.07800
C 	C 	0.71163 0.66757 0.09697 -0.11800
H 	H 	0.74343 0.66767 0.10637 0.06700
C 	C 	0.61973 0.52107 0.07907 -0.12500
H 	H 	0.58673 0.51997 0.07597 0.07000
C 	C 	0.62193 0.47517 0.07947 0.08100
H 	H 	0.58953 0.44257 0.07677 0.01000
O 	O 	0.56512 0.28672 0.01770 -0.40700
O 	O 	0.60390 0.37466 0.02450 -0.40700
C 	C 	0.56640 0.33000 0.01120 0.37700
C 	C 	0.51780 0.32820 0.98500 -0.10900
C 	C 	0.47060 0.28160 0.97910 0.03400
H 	H 	0.46900 0.24900 0.98820 0.03300
C 	C 	0.42520 0.28130 0.95980 -0.09200
H 	H 	0.39310 0.24850 0.95640 0.07000
C 	C 	0.42600 0.32740 0.94580 0.03300
C 	C 	0.47590 0.37410 0.94550 -0.09300
H 	H 	0.47900 0.40600 0.93090 0.06000
C 	C 	0.52020 0.37430 0.96600 0.03400
H 	H 	0.55300 0.40660 0.96720 0.03500
C 	C 	0.37720 0.32890 0.93030 0.07700
C 	C 	0.37830 0.37740 0.93030 -0.11800
H 	H 	0.41010 0.40910 0.93970 0.06700
C 	C 	0.28640 0.43200 0.91240 -0.12500
H 	H 	0.25340 0.40010 0.90930 0.07000
C 	C 	0.28860 0.48010 0.91280 0.08100
H 	H 	0.25620 0.48030 0.91010 0.01000
O 	O 	0.23179 0.62005 0.35103 -0.40700
O 	O 	0.27057 0.70799 0.35783 -0.40700
C 	C 	0.23307 0.66333 0.34453 0.37700
C 	C 	0.18447 0.66153 0.31833 -0.10900
C 	C 	0.13727 0.61493 0.31243 0.03400
H 	H 	0.13567 0.58233 0.32153 0.03300
C 	C 	0.09187 0.61463 0.29313 -0.09200
H 	H 	0.05977 0.58183 0.28973 0.06900
C 	C 	0.09267 0.66073 0.27913 0.03300
C 	C 	0.14257 0.70743 0.27883 -0.09300
H 	H 	0.14567 0.73933 0.26423 0.06000
C 	C 	0.18687 0.70763 0.29933 0.03400
H 	H 	0.21967 0.73993 0.30053 0.03500
C 	C 	0.04387 0.66223 0.26363 0.07600
C 	C 	0.04497 0.71073 0.26363 -0.11700
H 	H 	0.07677 0.74243 0.27303 0.06700
C 	C 	0.95307 0.76533 0.24573 -0.11800
H 	H 	0.92007 0.73343 0.24263 0.06900
C 	C 	0.95527 0.81343 0.24613 0.08600
H 	H 	0.92287 0.81363 0.24343 0.00900
O 	O 	0.89845 0.95339 0.68437 -0.40600
O 	O 	0.93723 0.04133 0.69117 -0.41000
C 	C 	0.89973 0.99667 0.67787 0.38300
C 	C 	0.85113 0.99487 0.65167 -0.10300
C 	C 	0.80393 0.94827 0.64577 0.03300
H 	H 	0.80233 0.91567 0.65487 0.03300
C 	C 	0.75853 0.94797 0.62647 -0.09200
H 	H 	0.72643 0.91517 0.62307 0.07000
C 	C 	0.75933 0.99407 0.61247 0.03800
C 	C 	0.80923 0.04077 0.61217 -0.09800
H 	H 	0.81233 0.07267 0.59757 0.06100
C 	C 	0.85353 0.04097 0.63267 0.02800
H 	H 	0.88633 0.07327 0.63387 0.03700
C 	C 	0.71053 0.99557 0.59697 0.08300
C 	C 	0.71163 0.04407 0.59697 -0.12400
H 	H 	0.74343 0.07577 0.60637 0.06800
C 	C 	0.61973 0.09867 0.57907 -0.12600
H 	H 	0.58673 0.06677 0.57597 0.06900
C 	C 	0.62193 0.14677 0.57947 0.08200
H 	H 	0.58953 0.14697 0.57677 0.01000
O 	O 	0.71328 0.27840 0.01770 -0.40700
O 	O 	0.62534 0.22924 0.02450 -0.40700
C 	C 	0.67000 0.23640 0.01120 0.37600
C 	C 	0.67180 0.18960 0.98500 -0.10800
C 	C 	0.71840 0.18900 0.97910 0.03400
H 	H 	0.75100 0.22000 0.98820 0.03300
C 	C 	0.71870 0.14390 0.95980 -0.09100
H 	H 	0.75150 0.14460 0.95640 0.06900
C 	C 	0.67260 0.09860 0.94580 0.03200
C 	C 	0.62590 0.10180 0.94550 -0.09200
H 	H 	0.59400 0.07300 0.93090 0.05900
C 	C 	0.62570 0.14590 0.96600 0.03300
H 	H 	0.59340 0.14640 0.96720 0.03500
C 	C 	0.67110 0.04830 0.93030 0.07900
C 	C 	0.62260 0.00090 0.93030 -0.12700
H 	H 	0.59090 0.00100 0.93970 0.06800
C 	C 	0.56800 0.85440 0.91240 -0.12400
H 	H 	0.59990 0.85330 0.90930 0.07000
C 	C 	0.51990 0.80850 0.91280 0.08100
H 	H 	0.51970 0.77590 0.91010 0.01000
O 	O 	0.37995 0.61173 0.35103 -0.40700
O 	O 	0.29201 0.56257 0.35783 -0.40700
C 	C 	0.33667 0.56973 0.34453 0.37700
C 	C 	0.33847 0.52293 0.31833 -0.10900
C 	C 	0.38507 0.52233 0.31243 0.03400
H 	H 	0.41767 0.55333 0.32153 0.03300
C 	C 	0.38537 0.47723 0.29313 -0.09200
H 	H 	0.41817 0.47793 0.28973 0.07000
C 	C 	0.33927 0.43193 0.27913 0.03300
C 	C 	0.29257 0.43513 0.27883 -0.09300
H 	H 	0.26067 0.40633 0.26423 0.06000
C 	C 	0.29237 0.47923 0.29933 0.03400
H 	H 	0.26007 0.47973 0.30053 0.03500
C 	C 	0.33777 0.38163 0.26363 0.07700
C 	C 	0.28927 0.33423 0.26363 -0.11800
H 	H 	0.25757 0.33433 0.27303 0.06700
C 	C 	0.23467 0.18773 0.24573 -0.12500
H 	H 	0.26657 0.18663 0.24263 0.07000
C 	C 	0.18657 0.14183 0.24613 0.08100
H 	H 	0.18637 0.10923 0.24343 0.01000
O 	O 	0.04661 0.94507 0.68437 -0.40300
O 	O 	0.95867 0.89591 0.69117 -0.40100
C 	C 	0.00333 0.90307 0.67787 0.37000
C 	C 	0.00513 0.85627 0.65167 -0.11300
C 	C 	0.05173 0.85567 0.64577 0.03400
H 	H 	0.08433 0.88667 0.65487 0.03300
C 	C 	0.05203 0.81057 0.62647 -0.09100
H 	H 	0.08483 0.81127 0.62307 0.07000
C 	C 	0.00593 0.76527 0.61247 0.02800
C 	C 	0.95923 0.76847 0.61217 -0.08700
H 	H 	0.92733 0.73967 0.59757 0.06000
C 	C 	0.95903 0.81257 0.63267 0.04000
H 	H 	0.92673 0.81307 0.63387 0.03400
C 	C 	0.00443 0.71497 0.59697 0.07300
C 	C 	0.95593 0.66757 0.59697 -0.11300
H 	H 	0.92423 0.66767 0.60637 0.06600
C 	C 	0.90133 0.52107 0.57907 -0.12400
H 	H 	0.93323 0.51997 0.57597 0.07200
C 	C 	0.85323 0.47517 0.57947 0.08100
H 	H 	0.85303 0.44257 0.57677 0.01100
O 	O 	0.72160 0.43488 0.01770 -0.40700
O 	O 	0.77076 0.39610 0.02450 -0.40700
C 	C 	0.76360 0.43360 0.01120 0.37700
C 	C 	0.81040 0.48220 0.98500 -0.10900
C 	C 	0.81100 0.52940 0.97910 0.03500
H 	H 	0.78000 0.53100 0.98820 0.03300
C 	C 	0.85610 0.57480 0.95980 -0.09300
H 	H 	0.85540 0.60690 0.95640 0.07000
C 	C 	0.90140 0.57400 0.94580 0.03500
C 	C 	0.89820 0.52410 0.94550 -0.09400
H 	H 	0.92700 0.52100 0.93090 0.06200
C 	C 	0.85410 0.47980 0.96600 0.03500
H 	H 	0.85360 0.44700 0.96720 0.03500
C 	C 	0.95170 0.62280 0.93030 0.07600
C 	C 	0.99910 0.62170 0.93030 -0.11000
H 	H 	0.99900 0.58990 0.93970 0.06600
C 	C 	0.14560 0.71360 0.91240 -0.12600
H 	H 	0.14670 0.74660 0.90930 0.07100
C 	C 	0.19150 0.71140 0.91280 0.08200
H 	H 	0.22410 0.74380 0.91010 0.01000
O 	O 	0.38827 0.76821 0.35103 -0.40700
O 	O 	0.43743 0.72943 0.35783 -0.40700
C 	C 	0.43027 0.76693 0.34453 0.37700
C 	C 	0.47707 0.81553 0.31833 -0.10900
C 	C 	0.47767 0.86273 0.31243 0.03400
H 	H 	0.44667 0.86433 0.32153 0.03300
C 	C 	0.52277 0.90813 0.29313 -0.09200
H 	H 	0.52207 0.94023 0.28973 0.07100
C 	C 	0.56807 0.90733 0.27913 0.03400
C 	C 	0.56487 0.85743 0.27883 -0.09300
H 	H 	0.59367 0.85433 0.26423 0.06100
C 	C 	0.52077 0.81313 0.29933 0.03400
H 	H 	0.52027 0.78033 0.30053 0.03500
C 	C 	0.61837 0.95613 0.26363 0.08000
C 	C 	0.66577 0.95503 0.26363 -0.11100
H 	H 	0.66567 0.92323 0.27303 0.06600
C 	C 	0.81227 0.04693 0.24573 -0.12300
H 	H 	0.81337 0.07993 0.24263 0.07000
C 	C 	0.85817 0.04473 0.24613 0.07900
H 	H 	0.89077 0.07713 0.24343 0.01100
O 	O 	0.05493 0.10155 0.68437 -0.40800
O 	O 	0.10409 0.06277 0.69117 -0.40800
C 	C 	0.09693 0.10027 0.67787 0.37700
C 	C 	0.14373 0.14887 0.65167 -0.11000
C 	C 	0.14433 0.19607 0.64577 0.03400
H 	H 	0.11333 0.19767 0.65487 0.03200
C 	C 	0.18943 0.24147 0.62647 -0.09200
H 	H 	0.18873 0.27357 0.62307 0.07000
C 	C 	0.23473 0.24067 0.61247 0.03400
C 	C 	0.23153 0.19077 0.61217 -0.09300
H 	H 	0.26033 0.18767 0.59757 0.06000
C 	C 	0.18743 0.14647 0.63267 0.03400
H 	H 	0.18693 0.11367 0.63387 0.03400
C 	C 	0.28503 0.28947 0.59697 0.07700
C 	C 	0.33243 0.28837 0.59697 -0.11800
H 	H 	0.33233 0.25657 0.60637 0.06700
C 	C 	0.47893 0.38027 0.57907 -0.12500
H 	H 	0.48003 0.41327 0.57597 0.07000
C 	C 	0.52483 0.37807 0.57947 0.08100
H 	H 	0.55743 0.41047 0.57677 0.01000
O 	O 	0.28672 0.56512 0.48230 -0.40700
O 	O 	0.37466 0.60390 0.47550 -0.40700
C 	C 	0.33000 0.56640 0.48880 0.37700
C 	C 	0.32820 0.51780 0.51500 -0.10900
C 	C 	0.28160 0.47060 0.52090 0.03400
H 	H 	0.24900 0.46900 0.51180 0.03300
C 	C 	0.28130 0.42520 0.54020 -0.09200
H 	H 	0.24850 0.39310 0.54360 0.07000
C 	C 	0.32740 0.42600 0.55420 0.03300
C 	C 	0.37410 0.47590 0.55450 -0.09300
H 	H 	0.40600 0.47900 0.56910 0.06000
C 	C 	0.37430 0.52020 0.53400 0.03400
H 	H 	0.40660 0.55300 0.53280 0.03500
C 	C 	0.32890 0.37720 0.56970 0.07700
C 	C 	0.37740 0.37830 0.56970 -0.11800
H 	H 	0.40910 0.41010 0.56030 0.06700
C 	C 	0.43200 0.28640 0.58760 -0.12500
H 	H 	0.40010 0.25340 0.59070 0.07000
C 	C 	0.48010 0.28860 0.58720 0.08100
H 	H 	0.48030 0.25620 0.58990 0.01000
O 	O 	0.95339 0.89845 0.81563 -0.40600
O 	O 	0.04133 0.93723 0.80883 -0.41000
C 	C 	0.99667 0.89973 0.82213 0.38200
C 	C 	0.99487 0.85113 0.84833 -0.10300
C 	C 	0.94827 0.80393 0.85423 0.03300
H 	H 	0.91567 0.80233 0.84513 0.03300
C 	C 	0.94797 0.75853 0.87353 -0.09200
H 	H 	0.91517 0.72643 0.87693 0.07000
C 	C 	0.99407 0.75933 0.88753 0.03800
C 	C 	0.04077 0.80923 0.88783 -0.09800
H 	H 	0.07267 0.81233 0.90243 0.06100
C 	C 	0.04097 0.85353 0.86733 0.02800
H 	H 	0.07327 0.88633 0.86613 0.03700
C 	C 	0.99557 0.71053 0.90303 0.08300
C 	C 	0.04407 0.71163 0.90303 -0.12400
H 	H 	0.07577 0.74343 0.89363 0.06800
C 	C 	0.09867 0.61973 0.92093 -0.12600
H 	H 	0.06677 0.58673 0.92403 0.06900
C 	C 	0.14677 0.62193 0.92053 0.08200
H 	H 	0.14697 0.58953 0.92323 0.01000
O 	O 	0.62005 0.23179 0.14897 -0.40700
O 	O 	0.70799 0.27057 0.14217 -0.40700
C 	C 	0.66333 0.23307 0.15547 0.37700
C 	C 	0.66153 0.18447 0.18167 -0.10900
C 	C 	0.61493 0.13727 0.18757 0.03400
H 	H 	0.58233 0.13567 0.17847 0.03300
C 	C 	0.61463 0.09187 0.20687 -0.09200
H 	H 	0.58183 0.05977 0.21027 0.06900
C 	C 	0.66073 0.09267 0.22087 0.03300
C 	C 	0.70743 0.14257 0.22117 -0.09300
H 	H 	0.73933 0.14567 0.23577 0.06000
C 	C 	0.70763 0.18687 0.20067 0.03400
H 	H 	0.73993 0.21967 0.19947 0.03500
C 	C 	0.66223 0.04387 0.23637 0.07600
C 	C 	0.71073 0.04497 0.23637 -0.11700
H 	H 	0.74243 0.07677 0.22697 0.06700
C 	C 	0.76533 0.95307 0.25427 -0.11800
H 	H 	0.73343 0.92007 0.25737 0.06900
C 	C 	0.81343 0.95527 0.25387 0.08500
H 	H 	0.81363 0.92287 0.25657 0.01000
O 	O 	0.27840 0.71328 0.48230 -0.40700
O 	O 	0.22924 0.62534 0.47550 -0.40700
C 	C 	0.23640 0.67000 0.48880 0.37600
C 	C 	0.18960 0.67180 0.51500 -0.10800
C 	C 	0.18900 0.71840 0.52090 0.03300
H 	H 	0.22000 0.75100 0.51180 0.03300
C 	C 	0.14390 0.71870 0.54020 -0.09100
H 	H 	0.14460 0.75150 0.54360 0.06900
C 	C 	0.09860 0.67260 0.55420 0.03200
C 	C 	0.10180 0.62590 0.55450 -0.09200
H 	H 	0.07300 0.59400 0.56910 0.05900
C 	C 	0.14590 0.62570 0.53400 0.03300
H 	H 	0.14640 0.59340 0.53280 0.03500
C 	C 	0.04830 0.67110 0.56970 0.07900
C 	C 	0.00090 0.62260 0.56970 -0.12700
H 	H 	0.00100 0.59090 0.56030 0.06800
C 	C 	0.85440 0.56800 0.58760 -0.12400
H 	H 	0.85330 0.59990 0.59070 0.07000
C 	C 	0.80850 0.51990 0.58720 0.08100
H 	H 	0.77590 0.51970 0.58990 0.01000
O 	O 	0.94507 0.04661 0.81563 -0.40300
O 	O 	0.89591 0.95867 0.80883 -0.40100
C 	C 	0.90307 0.00333 0.82213 0.37000
C 	C 	0.85627 0.00513 0.84833 -0.11300
C 	C 	0.85567 0.05173 0.85423 0.03400
H 	H 	0.88667 0.08433 0.84513 0.03300
C 	C 	0.81057 0.05203 0.87353 -0.09100
H 	H 	0.81127 0.08483 0.87693 0.07000
C 	C 	0.76527 0.00593 0.88753 0.02800
C 	C 	0.76847 0.95923 0.88783 -0.08700
H 	H 	0.73967 0.92733 0.90243 0.06000
C 	C 	0.81257 0.95903 0.86733 0.04000
H 	H 	0.81307 0.92673 0.86613 0.03400
C 	C 	0.71497 0.00443 0.90303 0.07300
C 	C 	0.66757 0.95593 0.90303 -0.11300
H 	H 	0.66767 0.92423 0.89363 0.06600
C 	C 	0.52107 0.90133 0.92093 -0.12400
H 	H 	0.51997 0.93323 0.92403 0.07100
C 	C 	0.47517 0.85323 0.92053 0.08100
H 	H 	0.44257 0.85303 0.92323 0.01100
O 	O 	0.61173 0.37995 0.14897 -0.40700
O 	O 	0.56257 0.29201 0.14217 -0.40700
C 	C 	0.56973 0.33667 0.15547 0.37700
C 	C 	0.52293 0.33847 0.18167 -0.10900
C 	C 	0.52233 0.38507 0.18757 0.03400
H 	H 	0.55333 0.41767 0.17847 0.03300
C 	C 	0.47723 0.38537 0.20687 -0.09200
H 	H 	0.47793 0.41817 0.21027 0.07000
C 	C 	0.43193 0.33927 0.22087 0.03300
C 	C 	0.43513 0.29257 0.22117 -0.09300
H 	H 	0.40633 0.26067 0.23577 0.06000
C 	C 	0.47923 0.29237 0.20067 0.03400
H 	H 	0.47973 0.26007 0.19947 0.03500
C 	C 	0.38163 0.33777 0.23637 0.07700
C 	C 	0.33423 0.28927 0.23637 -0.11800
H 	H 	0.33433 0.25757 0.22697 0.06700
C 	C 	0.18773 0.23467 0.25427 -0.12500
H 	H 	0.18663 0.26657 0.25737 0.07000
C 	C 	0.14183 0.18657 0.25387 0.08100
H 	H 	0.10923 0.18637 0.25657 0.01000
O 	O 	0.43488 0.72160 0.48230 -0.40700
O 	O 	0.39610 0.77076 0.47550 -0.40700
C 	C 	0.43360 0.76360 0.48880 0.37700
C 	C 	0.48220 0.81040 0.51500 -0.10900
C 	C 	0.52940 0.81100 0.52090 0.03500
H 	H 	0.53100 0.78000 0.51180 0.03300
C 	C 	0.57480 0.85610 0.54020 -0.09300
H 	H 	0.60690 0.85540 0.54360 0.07000
C 	C 	0.57400 0.90140 0.55420 0.03500
C 	C 	0.52410 0.89820 0.55450 -0.09400
H 	H 	0.52100 0.92700 0.56910 0.06200
C 	C 	0.47980 0.85410 0.53400 0.03500
H 	H 	0.44700 0.85360 0.53280 0.03500
C 	C 	0.62280 0.95170 0.56970 0.07600
C 	C 	0.62170 0.99910 0.56970 -0.10900
H 	H 	0.58990 0.99900 0.56030 0.06600
C 	C 	0.71360 0.14560 0.58760 -0.12600
H 	H 	0.74660 0.14670 0.59070 0.07100
C 	C 	0.71140 0.19150 0.58720 0.08200
H 	H 	0.74380 0.22410 0.58990 0.01000
O 	O 	0.10155 0.05493 0.81563 -0.40800
O 	O 	0.06277 0.10409 0.80883 -0.40800
C 	C 	0.10027 0.09693 0.82213 0.37700
C 	C 	0.14887 0.14373 0.84833 -0.11000
C 	C 	0.19607 0.14433 0.85423 0.03400
H 	H 	0.19767 0.11333 0.84513 0.03200
C 	C 	0.24147 0.18943 0.87353 -0.09200
H 	H 	0.27357 0.18873 0.87693 0.07000
C 	C 	0.24067 0.23473 0.88753 0.03400
C 	C 	0.19077 0.23153 0.88783 -0.09300
H 	H 	0.18767 0.26033 0.90243 0.06000
C 	C 	0.14647 0.18743 0.86733 0.03400
H 	H 	0.11367 0.18693 0.86613 0.03400
C 	C 	0.28947 0.28503 0.90303 0.07700
C 	C 	0.28837 0.33243 0.90303 -0.11800
H 	H 	0.25657 0.33233 0.89363 0.06700
C 	C 	0.38027 0.47893 0.92093 -0.12500
H 	H 	0.41327 0.48003 0.92403 0.07000
C 	C 	0.37807 0.52483 0.92053 0.08100
H 	H 	0.41047 0.55743 0.92323 0.01000
O 	O 	0.76821 0.38827 0.14897 -0.40700
O 	O 	0.72943 0.43743 0.14217 -0.40700
C 	C 	0.76693 0.43027 0.15547 0.37700
C 	C 	0.81553 0.47707 0.18167 -0.10900
C 	C 	0.86273 0.47767 0.18757 0.03400
H 	H 	0.86433 0.44667 0.17847 0.03300
C 	C 	0.90813 0.52277 0.20687 -0.09200
H 	H 	0.94023 0.52207 0.21027 0.07100
C 	C 	0.90733 0.56807 0.22087 0.03400
C 	C 	0.85743 0.56487 0.22117 -0.09300
H 	H 	0.85433 0.59367 0.23577 0.06100
C 	C 	0.81313 0.52077 0.20067 0.03400
H 	H 	0.78033 0.52027 0.19947 0.03500
C 	C 	0.95613 0.61837 0.23637 0.08000
C 	C 	0.95503 0.66577 0.23637 -0.11100
H 	H 	0.92323 0.66567 0.22697 0.06600
C 	C 	0.04693 0.81227 0.25427 -0.12300
H 	H 	0.07993 0.81337 0.25737 0.07000
C 	C 	0.04473 0.85817 0.25387 0.07900
H 	H 	0.07713 0.89077 0.25657 0.01100
Ni	Ni	0.66667 0.40193 0.08333 1.12600
N 	N 	0.66667 0.47328 0.08333 -0.20900
N 	N 	0.66667 0.71688 0.08333 -0.13100
C 	C 	0.66667 0.62068 0.08333 0.05100
C 	C 	0.66667 0.56928 0.08333 0.05500
Ni	Ni	0.59807 0.26473 0.08333 1.12600
N 	N 	0.52672 0.19338 0.08333 -0.21000
N 	N 	0.28312 0.94978 0.08333 -0.13100
C 	C 	0.37932 0.04598 0.08333 0.04500
C 	C 	0.43072 0.09738 0.08333 0.05600
Ni	Ni	0.73527 0.33333 0.08333 1.12600
N 	N 	0.80662 0.33333 0.08333 -0.20900
N 	N 	0.05022 0.33333 0.08333 -0.13100
C 	C 	0.95402 0.33333 0.08333 0.05700
C 	C 	0.90262 0.33333 0.08333 0.05400
Ni	Ni	0.40193 0.66667 0.41667 1.12600
N 	N 	0.47328 0.66667 0.41667 -0.20900
N 	N 	0.71688 0.66667 0.41667 -0.13100
C 	C 	0.62068 0.66667 0.41667 0.05100
C 	C 	0.56928 0.66667 0.41667 0.05500
Ni	Ni	0.06860 -0.00000 0.75000 1.12400
N 	N 	0.13995 -0.00000 0.75000 -0.21200
N 	N 	0.38355 -0.00000 0.75000 -0.13400
C 	C 	0.28735 -0.00000 0.75000 0.04500
C 	C 	0.23595 -0.00000 0.75000 0.05000
Ni	Ni	0.26473 0.59807 0.41667 1.12600
N 	N 	0.19338 0.52672 0.41667 -0.21000
N 	N 	0.94978 0.28312 0.41667 -0.13100
C 	C 	0.04598 0.37932 0.41667 0.04500
C 	C 	0.09738 0.43072 0.41667 0.05600
Ni	Ni	0.93140 0.93140 0.75000 1.12800
N 	N 	0.86005 0.86005 0.75000 -0.20900
N 	N 	0.61645 0.61645 0.75000 -0.13100
C 	C 	0.71265 0.71265 0.75000 0.05100
C 	C 	0.76405 0.76405 0.75000 0.05500
Ni	Ni	0.33333 0.73527 0.41667 1.12600
N 	N 	0.33333 0.80662 0.41667 -0.20900
N 	N 	0.33333 0.05022 0.41667 -0.13100
C 	C 	0.33333 0.95402 0.41667 0.05700
C 	C 	0.33333 0.90262 0.41667 0.05400
Ni	Ni	0.00000 0.06860 0.75000 1.12400
N 	N 	-0.00000 0.13995 0.75000 -0.21200
N 	N 	-0.00000 0.38355 0.75000 -0.13400
C 	C 	0.00000 0.28735 0.75000 0.04500
C 	C 	-0.00000 0.23595 0.75000 0.05000
Ni	Ni	0.33333 0.59807 0.91667 1.12600
N 	N 	0.33333 0.52672 0.91667 -0.20900
N 	N 	0.33333 0.28312 0.91667 -0.13100
C 	C 	0.33333 0.37932 0.91667 0.05100
C 	C 	0.33333 0.43072 0.91667 0.05500
Ni	Ni	0.00000 0.93140 0.25000 1.12500
N 	N 	-0.00000 0.86005 0.25000 -0.21300
N 	N 	-0.00000 0.61645 0.25000 -0.13400
C 	C 	-0.00000 0.71265 0.25000 0.04500
C 	C 	-0.00000 0.76405 0.25000 0.05000
Ni	Ni	0.40193 0.73527 0.91667 1.12600
N 	N 	0.47328 0.80662 0.91667 -0.20900
N 	N 	0.71688 0.05022 0.91667 -0.13100
C 	C 	0.62068 0.95402 0.91667 0.05700
C 	C 	0.56928 0.90262 0.91667 0.05400
Ni	Ni	0.06860 0.06860 0.25000 1.12600
N 	N 	0.13995 0.13995 0.25000 -0.20900
N 	N 	0.38355 0.38355 0.25000 -0.13100
C 	C 	0.28735 0.28735 0.25000 0.05100
C 	C 	0.23595 0.23595 0.25000 0.05500
Ni	Ni	0.26473 0.66667 0.91667 1.12600
N 	N 	0.19338 0.66667 0.91667 -0.21000
N 	N 	0.94978 0.66667 0.91667 -0.13100
C 	C 	0.04598 0.66667 0.91667 0.04500
C 	C 	0.09738 0.66667 0.91667 0.05600
Ni	Ni	0.93140 0.00000 0.25000 1.12500
N 	N 	0.86005 0.00000 0.25000 -0.21300
N 	N 	0.61645 0.00000 0.25000 -0.13400
C 	C 	0.71265 0.00000 0.25000 0.04500
C 	C 	0.76405 0.00000 0.25000 0.05000
Ni	Ni	0.59807 0.33333 0.58333 1.12600
N 	N 	0.52672 0.33333 0.58333 -0.20900
N 	N 	0.28312 0.33333 0.58333 -0.13100
C 	C 	0.37932 0.33333 0.58333 0.05100
C 	C 	0.43072 0.33333 0.58333 0.05500
Ni	Ni	0.73527 0.40193 0.58333 1.12600
N 	N 	0.80662 0.47328 0.58333 -0.20900
N 	N 	0.05022 0.71688 0.58333 -0.13100
C 	C 	0.95402 0.62068 0.58333 0.05700
C 	C 	0.90262 0.56928 0.58333 0.05400
Ni	Ni	0.66667 0.26473 0.58333 1.12600
N 	N 	0.66667 0.19338 0.58333 -0.21000
N 	N 	0.66667 0.94978 0.58333 -0.13100
C 	C 	0.66667 0.04598 0.58333 0.04500
C 	C 	0.66667 0.09738 0.58333 0.05600
O 	O 	0.66667 0.33333 0.08333 -0.71800
O 	O 	-0.00000 -0.00000 0.75000 -0.72000
O 	O 	0.33333 0.66667 0.41667 -0.71800
O 	O 	0.33333 0.66667 0.91667 -0.71800
O 	O 	0.00000 0.00000 0.25000 -0.72000
O 	O 	0.66667 0.33333 0.58333 -0.71800
H 	H 	0.66667 0.33333 0.12670 0.12400
H 	H 	0.33333 0.66667 0.46003 0.12400
H 	H 	0.00000 0.00000 0.79337 0.12100
H 	H 	0.33333 0.66667 0.37330 0.12400
H 	H 	-0.00000 0.00000 0.70663 0.12100
H 	H 	0.66667 0.33333 0.03997 0.12400
H 	H 	0.33333 0.66667 0.87330 0.12400
H 	H 	0.00000 0.00000 0.20663 0.12100
H 	H 	0.66667 0.33333 0.53997 0.12400
H 	H 	0.66667 0.33333 0.62670 0.12400
H 	H 	0.33333 0.66667 0.96003 0.12400
H 	H 	-0.00000 0.00000 0.29337 0.12100
