data_crystal

_cell_length_a 29.10600
_cell_length_b 29.10600
_cell_length_c 23.41700
_cell_angle_alpha 90.00000
_cell_angle_beta  90.00000
_cell_angle_gamma 120.00000

_symmetry_space_group_name_	'P 1'
_symmetry_space_group_name_H-M	'P 1'

loop_
_symmetry_equiv_pos_as_xyz
  x,y,z

loop_
_atom_site_label
_atom_site_type_symbol
_atom_site_fract_x
_atom_site_fract_y
_atom_site_fract_z
_atom_site_charge
O 	O 	0.43413 0.71377 0.98280 -0.40000
O 	O 	0.39683 0.62573 0.97310 -0.40600
C 	C 	0.43370 0.67040 0.98830 0.37100
C 	C 	0.48200 0.67260 0.01420 -0.10800
C 	C 	0.52930 0.71930 0.02130 0.03500
H 	H 	0.53100 0.75200 0.01290 0.03400
C 	C 	0.57490 0.71950 0.04060 -0.09200
H 	H 	0.60720 0.75220 0.04440 0.07100
C 	C 	0.57350 0.67290 0.05410 0.03700
C 	C 	0.52460 0.62650 0.05250 -0.09400
H 	H 	0.52190 0.59440 0.06590 0.06200
C 	C 	0.48020 0.62600 0.03190 0.03500
H 	H 	0.44770 0.59330 0.02980 0.03500
C 	C 	0.62260 0.67170 0.06960 0.07700
C 	C 	0.62210 0.62330 0.06870 -0.11900
H 	H 	0.59080 0.59170 0.05780 0.06900
C 	C 	0.71360 0.56840 0.08650 -0.11600
H 	H 	0.74680 0.60050 0.08860 0.06800
C 	C 	0.71190 0.52020 0.08670 0.07600
H 	H 	0.74440 0.51990 0.08930 0.01300
O 	O 	0.10080 0.04710 0.31613 -0.40000
O 	O 	0.06350 0.95906 0.30643 -0.40100
C 	C 	0.10037 0.00373 0.32163 0.36600
C 	C 	0.14867 0.00593 0.34753 -0.11300
C 	C 	0.19597 0.05263 0.35463 0.03500
H 	H 	0.19767 0.08533 0.34623 0.03400
C 	C 	0.24157 0.05283 0.37393 -0.09100
H 	H 	0.27387 0.08553 0.37773 0.07100
C 	C 	0.24017 0.00623 0.38743 0.03100
C 	C 	0.19127 0.95983 0.38583 -0.08800
H 	H 	0.18857 0.92773 0.39923 0.06000
C 	C 	0.14687 0.95933 0.36523 0.03900
H 	H 	0.11437 0.92663 0.36313 0.03300
C 	C 	0.28927 0.00503 0.40293 0.07200
C 	C 	0.28877 0.95663 0.40203 -0.11500
H 	H 	0.25747 0.92503 0.39113 0.06700
C 	C 	0.38027 0.90173 0.41983 -0.11500
H 	H 	0.41347 0.93383 0.42193 0.06800
C 	C 	0.37857 0.85353 0.42003 0.07500
H 	H 	0.41107 0.85323 0.42263 0.01300
O 	O 	0.76746 0.38044 0.64947 -0.40100
O 	O 	0.73016 0.29240 0.63977 -0.40700
C 	C 	0.76703 0.33707 0.65497 0.37100
C 	C 	0.81533 0.33927 0.68087 -0.10900
C 	C 	0.86263 0.38597 0.68797 0.03400
H 	H 	0.86433 0.41867 0.67957 0.03300
C 	C 	0.90823 0.38617 0.70727 -0.09200
H 	H 	0.94053 0.41887 0.71107 0.07200
C 	C 	0.90683 0.33957 0.72077 0.03600
C 	C 	0.85793 0.29317 0.71917 -0.09400
H 	H 	0.85523 0.26107 0.73257 0.06100
C 	C 	0.81353 0.29267 0.69857 0.03500
H 	H 	0.78103 0.25997 0.69647 0.03400
C 	C 	0.95593 0.33837 0.73627 0.07900
C 	C 	0.95543 0.28997 0.73537 -0.11300
H 	H 	0.92413 0.25837 0.72447 0.06600
C 	C 	0.04693 0.23507 0.75317 -0.11600
H 	H 	0.08013 0.26717 0.75527 0.06700
C 	C 	0.04523 0.18687 0.75337 0.07300
H 	H 	0.07773 0.18657 0.75597 0.01300
O 	O 	0.28623 0.72036 0.98280 -0.40100
O 	O 	0.37427 0.77110 0.97310 -0.40700
C 	C 	0.32960 0.76330 0.98830 0.37100
C 	C 	0.32740 0.80940 0.01420 -0.11000
C 	C 	0.28070 0.81000 0.02130 0.03500
H 	H 	0.24800 0.77900 0.01290 0.03200
C 	C 	0.28050 0.85540 0.04060 -0.09400
H 	H 	0.24780 0.85500 0.04440 0.07000
C 	C 	0.32710 0.90060 0.05410 0.03700
C 	C 	0.37350 0.89810 0.05250 -0.09500
H 	H 	0.40560 0.92750 0.06590 0.06200
C 	C 	0.37400 0.85420 0.03190 0.03500
H 	H 	0.40670 0.85440 0.02980 0.03400
C 	C 	0.32830 0.95090 0.06960 0.07400
C 	C 	0.37670 0.99880 0.06870 -0.11100
H 	H 	0.40830 0.99910 0.05780 0.06700
C 	C 	0.43160 0.14520 0.08650 -0.11800
H 	H 	0.39950 0.14630 0.08860 0.06700
C 	C 	0.47980 0.19170 0.08670 0.07500
H 	H 	0.48010 0.22450 0.08930 0.01200
O 	O 	0.95290 0.05369 0.31613 -0.40300
O 	O 	0.04094 0.10443 0.30643 -0.41200
C 	C 	0.99627 0.09663 0.32163 0.37700
C 	C 	0.99407 0.14273 0.34753 -0.10500
C 	C 	0.94737 0.14333 0.35463 0.03500
H 	H 	0.91467 0.11233 0.34623 0.03200
C 	C 	0.94717 0.18873 0.37393 -0.09400
H 	H 	0.91447 0.18833 0.37773 0.07100
C 	C 	0.99377 0.23393 0.38743 0.04100
C 	C 	0.04017 0.23143 0.38583 -0.10100
H 	H 	0.07227 0.26083 0.39923 0.06200
C 	C 	0.04067 0.18753 0.36523 0.03000
H 	H 	0.07337 0.18773 0.36313 0.03500
C 	C 	0.99497 0.28423 0.40293 0.08100
C 	C 	0.04337 0.33213 0.40203 -0.12500
H 	H 	0.07497 0.33243 0.39113 0.06900
C 	C 	0.09827 0.47853 0.41983 -0.11800
H 	H 	0.06617 0.47963 0.42193 0.06600
C 	C 	0.14647 0.52503 0.42003 0.07600
H 	H 	0.14677 0.55783 0.42263 0.01200
O 	O 	0.61956 0.38703 0.64947 -0.40100
O 	O 	0.70760 0.43777 0.63977 -0.40600
C 	C 	0.66293 0.42997 0.65497 0.37100
C 	C 	0.66073 0.47607 0.68087 -0.10900
C 	C 	0.61403 0.47667 0.68797 0.03400
H 	H 	0.58133 0.44567 0.67957 0.03300
C 	C 	0.61383 0.52207 0.70727 -0.09300
H 	H 	0.58113 0.52167 0.71107 0.07000
C 	C 	0.66043 0.56727 0.72077 0.03600
C 	C 	0.70683 0.56477 0.71917 -0.09500
H 	H 	0.73893 0.59417 0.73257 0.06100
C 	C 	0.70733 0.52087 0.69857 0.03400
H 	H 	0.74003 0.52107 0.69647 0.03400
C 	C 	0.66163 0.61757 0.73627 0.07600
C 	C 	0.71003 0.66547 0.73537 -0.12000
H 	H 	0.74163 0.66577 0.72447 0.06800
C 	C 	0.76493 0.81187 0.75317 -0.11600
H 	H 	0.73283 0.81297 0.75527 0.06700
C 	C 	0.81313 0.85837 0.75337 0.07500
H 	H 	0.81343 0.89117 0.75597 0.01200
O 	O 	0.27964 0.56587 0.98280 -0.40100
O 	O 	0.22890 0.60317 0.97310 -0.40700
C 	C 	0.23670 0.56630 0.98830 0.37000
C 	C 	0.19060 0.51800 0.01420 -0.10900
C 	C 	0.19000 0.47070 0.02130 0.03300
H 	H 	0.22100 0.46900 0.01290 0.03300
C 	C 	0.14460 0.42510 0.04060 -0.09200
H 	H 	0.14500 0.39280 0.04440 0.07000
C 	C 	0.09940 0.42650 0.05410 0.03400
C 	C 	0.10190 0.47540 0.05250 -0.09400
H 	H 	0.07250 0.47810 0.06590 0.06000
C 	C 	0.14580 0.51980 0.03190 0.03300
H 	H 	0.14560 0.55230 0.02980 0.03400
C 	C 	0.04910 0.37740 0.06960 0.07800
C 	C 	0.00120 0.37790 0.06870 -0.12900
H 	H 	0.00090 0.40920 0.05780 0.06900
C 	C 	0.85480 0.28640 0.08650 -0.11500
H 	H 	0.85370 0.25320 0.08860 0.06700
C 	C 	0.80830 0.28810 0.08670 0.07500
H 	H 	0.77550 0.25560 0.08930 0.01200
O 	O 	0.94631 0.89920 0.31613 -0.39700
O 	O 	0.89557 0.93650 0.30643 -0.40300
C 	C 	0.90337 0.89963 0.32163 0.37000
C 	C 	0.85727 0.85133 0.34753 -0.10800
C 	C 	0.85667 0.80403 0.35463 0.03400
H 	H 	0.88767 0.80233 0.34623 0.03400
C 	C 	0.81127 0.75843 0.37393 -0.09200
H 	H 	0.81167 0.72613 0.37773 0.07000
C 	C 	0.76607 0.75983 0.38743 0.03500
C 	C 	0.76857 0.80873 0.38583 -0.09400
H 	H 	0.73917 0.81143 0.39923 0.06100
C 	C 	0.81247 0.85313 0.36523 0.03400
H 	H 	0.81227 0.88563 0.36313 0.03500
C 	C 	0.71577 0.71073 0.40293 0.07600
C 	C 	0.66787 0.71123 0.40203 -0.12000
H 	H 	0.66757 0.74253 0.39113 0.06800
C 	C 	0.52147 0.61973 0.41983 -0.11700
H 	H 	0.52037 0.58653 0.42193 0.06700
C 	C 	0.47497 0.62143 0.42003 0.07500
H 	H 	0.44217 0.58893 0.42263 0.01200
O 	O 	0.61297 0.23254 0.64947 -0.40100
O 	O 	0.56223 0.26984 0.63977 -0.40700
C 	C 	0.57003 0.23297 0.65497 0.37100
C 	C 	0.52393 0.18467 0.68087 -0.10900
C 	C 	0.52333 0.13737 0.68797 0.03400
H 	H 	0.55433 0.13567 0.67957 0.03300
C 	C 	0.47793 0.09177 0.70727 -0.09300
H 	H 	0.47833 0.05947 0.71107 0.06900
C 	C 	0.43273 0.09317 0.72077 0.03500
C 	C 	0.43523 0.14207 0.71917 -0.09500
H 	H 	0.40583 0.14477 0.73257 0.06100
C 	C 	0.47913 0.18647 0.69857 0.03400
H 	H 	0.47893 0.21897 0.69647 0.03400
C 	C 	0.38243 0.04407 0.73627 0.07400
C 	C 	0.33453 0.04457 0.73537 -0.11800
H 	H 	0.33423 0.07587 0.72447 0.06700
C 	C 	0.18813 0.95307 0.75317 -0.11100
H 	H 	0.18703 0.91987 0.75527 0.06600
C 	C 	0.14163 0.95477 0.75337 0.07900
H 	H 	0.10883 0.92227 0.75597 0.01100
O 	O 	0.71377 0.43413 0.51720 -0.40100
O 	O 	0.62573 0.39683 0.52690 -0.40700
C 	C 	0.67040 0.43370 0.51170 0.37100
C 	C 	0.67260 0.48200 0.48580 -0.10900
C 	C 	0.71930 0.52930 0.47870 0.03400
H 	H 	0.75200 0.53100 0.48710 0.03300
C 	C 	0.71950 0.57490 0.45940 -0.09300
H 	H 	0.75220 0.60720 0.45560 0.07000
C 	C 	0.67290 0.57350 0.44590 0.03600
C 	C 	0.62650 0.52460 0.44750 -0.09500
H 	H 	0.59440 0.52190 0.43410 0.06100
C 	C 	0.62600 0.48020 0.46810 0.03400
H 	H 	0.59330 0.44770 0.47020 0.03400
C 	C 	0.67170 0.62260 0.43040 0.07600
C 	C 	0.62330 0.62210 0.43130 -0.12000
H 	H 	0.59170 0.59080 0.44220 0.06800
C 	C 	0.56840 0.71360 0.41350 -0.11700
H 	H 	0.60050 0.74680 0.41140 0.06700
C 	C 	0.52020 0.71190 0.41330 0.07500
H 	H 	0.51990 0.74440 0.41070 0.01200
O 	O 	0.38044 0.76746 0.85053 -0.40100
O 	O 	0.29240 0.73016 0.86023 -0.40700
C 	C 	0.33707 0.76703 0.84503 0.37100
C 	C 	0.33927 0.81533 0.81913 -0.10900
C 	C 	0.38597 0.86263 0.81203 0.03400
H 	H 	0.41867 0.86433 0.82043 0.03300
C 	C 	0.38617 0.90823 0.79273 -0.09200
H 	H 	0.41887 0.94053 0.78893 0.07200
C 	C 	0.33957 0.90683 0.77923 0.03600
C 	C 	0.29317 0.85793 0.78083 -0.09400
H 	H 	0.26107 0.85523 0.76743 0.06100
C 	C 	0.29267 0.81353 0.80143 0.03500
H 	H 	0.25997 0.78103 0.80353 0.03400
C 	C 	0.33837 0.95593 0.76373 0.07900
C 	C 	0.28997 0.95543 0.76463 -0.11300
H 	H 	0.25837 0.92413 0.77553 0.06600
C 	C 	0.23507 0.04693 0.74683 -0.11600
H 	H 	0.26717 0.08013 0.74473 0.06700
C 	C 	0.18687 0.04523 0.74663 0.07300
H 	H 	0.18657 0.07773 0.74403 0.01300
O 	O 	0.04710 0.10080 0.18387 -0.40100
O 	O 	0.95906 0.06350 0.19357 -0.40200
C 	C 	0.00373 0.10037 0.17837 0.36500
C 	C 	0.00593 0.14867 0.15247 -0.11400
C 	C 	0.05263 0.19597 0.14537 0.03400
H 	H 	0.08533 0.19767 0.15377 0.03300
C 	C 	0.05283 0.24157 0.12607 -0.09200
H 	H 	0.08553 0.27387 0.12227 0.07000
C 	C 	0.00623 0.24017 0.11257 0.03000
C 	C 	0.95983 0.19127 0.11417 -0.08900
H 	H 	0.92773 0.18857 0.10077 0.06000
C 	C 	0.95933 0.14687 0.13477 0.03900
H 	H 	0.92663 0.11437 0.13687 0.03300
C 	C 	0.00503 0.28927 0.09707 0.07200
C 	C 	0.95663 0.28877 0.09797 -0.11500
H 	H 	0.92503 0.25747 0.10887 0.06700
C 	C 	0.90173 0.38027 0.08017 -0.11500
H 	H 	0.93383 0.41347 0.07807 0.06800
C 	C 	0.85353 0.37857 0.07997 0.07500
H 	H 	0.85323 0.41107 0.07737 0.01300
O 	O 	0.72036 0.28623 0.51720 -0.40100
O 	O 	0.77110 0.37427 0.52690 -0.40700
C 	C 	0.76330 0.32960 0.51170 0.37100
C 	C 	0.80940 0.32740 0.48580 -0.11000
C 	C 	0.81000 0.28070 0.47870 0.03500
H 	H 	0.77900 0.24800 0.48710 0.03200
C 	C 	0.85540 0.28050 0.45940 -0.09400
H 	H 	0.85500 0.24780 0.45560 0.07100
C 	C 	0.90060 0.32710 0.44590 0.03700
C 	C 	0.89810 0.37350 0.44750 -0.09500
H 	H 	0.92750 0.40560 0.43410 0.06200
C 	C 	0.85420 0.37400 0.46810 0.03500
H 	H 	0.85440 0.40670 0.47020 0.03400
C 	C 	0.95090 0.32830 0.43040 0.07400
C 	C 	0.99880 0.37670 0.43130 -0.11100
H 	H 	0.99910 0.40830 0.44220 0.06700
C 	C 	0.14520 0.43160 0.41350 -0.11800
H 	H 	0.14630 0.39950 0.41140 0.06700
C 	C 	0.19170 0.47980 0.41330 0.07500
H 	H 	0.22450 0.48010 0.41070 0.01200
O 	O 	0.38703 0.61956 0.85053 -0.40100
O 	O 	0.43777 0.70760 0.86023 -0.40600
C 	C 	0.42997 0.66293 0.84503 0.37100
C 	C 	0.47607 0.66073 0.81913 -0.10900
C 	C 	0.47667 0.61403 0.81203 0.03400
H 	H 	0.44567 0.58133 0.82043 0.03300
C 	C 	0.52207 0.61383 0.79273 -0.09300
H 	H 	0.52167 0.58113 0.78893 0.07000
C 	C 	0.56727 0.66043 0.77923 0.03600
C 	C 	0.56477 0.70683 0.78083 -0.09500
H 	H 	0.59417 0.73893 0.76743 0.06100
C 	C 	0.52087 0.70733 0.80143 0.03400
H 	H 	0.52107 0.74003 0.80353 0.03400
C 	C 	0.61757 0.66163 0.76373 0.07600
C 	C 	0.66547 0.71003 0.76463 -0.12000
H 	H 	0.66577 0.74163 0.77553 0.06800
C 	C 	0.81187 0.76493 0.74683 -0.11600
H 	H 	0.81297 0.73283 0.74473 0.06700
C 	C 	0.85837 0.81313 0.74663 0.07500
H 	H 	0.89117 0.81343 0.74403 0.01200
O 	O 	0.05369 0.95290 0.18387 -0.40300
O 	O 	0.10443 0.04094 0.19357 -0.41200
C 	C 	0.09663 0.99627 0.17837 0.37700
C 	C 	0.14273 0.99407 0.15247 -0.10500
C 	C 	0.14333 0.94737 0.14537 0.03500
H 	H 	0.11233 0.91467 0.15377 0.03200
C 	C 	0.18873 0.94717 0.12607 -0.09400
H 	H 	0.18833 0.91447 0.12227 0.07000
C 	C 	0.23393 0.99377 0.11257 0.04100
C 	C 	0.23143 0.04017 0.11417 -0.10100
H 	H 	0.26083 0.07227 0.10077 0.06200
C 	C 	0.18753 0.04067 0.13477 0.03000
H 	H 	0.18773 0.07337 0.13687 0.03500
C 	C 	0.28423 0.99497 0.09707 0.08000
C 	C 	0.33213 0.04337 0.09797 -0.12500
H 	H 	0.33243 0.07497 0.10887 0.06900
C 	C 	0.47853 0.09827 0.08017 -0.11800
H 	H 	0.47963 0.06617 0.07807 0.06600
C 	C 	0.52503 0.14647 0.07997 0.07600
H 	H 	0.55783 0.14677 0.07737 0.01200
O 	O 	0.56587 0.27964 0.51720 -0.40100
O 	O 	0.60317 0.22890 0.52690 -0.40700
C 	C 	0.56630 0.23670 0.51170 0.37000
C 	C 	0.51800 0.19060 0.48580 -0.10900
C 	C 	0.47070 0.19000 0.47870 0.03300
H 	H 	0.46900 0.22100 0.48710 0.03300
C 	C 	0.42510 0.14460 0.45940 -0.09200
H 	H 	0.39280 0.14500 0.45560 0.07000
C 	C 	0.42650 0.09940 0.44590 0.03400
C 	C 	0.47540 0.10190 0.44750 -0.09400
H 	H 	0.47810 0.07250 0.43410 0.06000
C 	C 	0.51980 0.14580 0.46810 0.03300
H 	H 	0.55230 0.14560 0.47020 0.03400
C 	C 	0.37740 0.04910 0.43040 0.07800
C 	C 	0.37790 0.00120 0.43130 -0.12900
H 	H 	0.40920 0.00090 0.44220 0.06900
C 	C 	0.28640 0.85480 0.41350 -0.11500
H 	H 	0.25320 0.85370 0.41140 0.06700
C 	C 	0.28810 0.80830 0.41330 0.07500
H 	H 	0.25560 0.77550 0.41070 0.01200
O 	O 	0.23254 0.61297 0.85053 -0.40100
O 	O 	0.26984 0.56223 0.86023 -0.40700
C 	C 	0.23297 0.57003 0.84503 0.37100
C 	C 	0.18467 0.52393 0.81913 -0.10900
C 	C 	0.13737 0.52333 0.81203 0.03400
H 	H 	0.13567 0.55433 0.82043 0.03300
C 	C 	0.09177 0.47793 0.79273 -0.09300
H 	H 	0.05947 0.47833 0.78893 0.06900
C 	C 	0.09317 0.43273 0.77923 0.03500
C 	C 	0.14207 0.43523 0.78083 -0.09500
H 	H 	0.14477 0.40583 0.76743 0.06100
C 	C 	0.18647 0.47913 0.80143 0.03400
H 	H 	0.21897 0.47893 0.80353 0.03400
C 	C 	0.04407 0.38243 0.76373 0.07400
C 	C 	0.04457 0.33453 0.76463 -0.11800
H 	H 	0.07587 0.33423 0.77553 0.06700
C 	C 	0.95307 0.18813 0.74683 -0.11100
H 	H 	0.91987 0.18703 0.74473 0.06600
C 	C 	0.95477 0.14163 0.74663 0.07900
H 	H 	0.92227 0.10883 0.74403 0.01100
O 	O 	0.89920 0.94631 0.18387 -0.39700
O 	O 	0.93650 0.89557 0.19357 -0.40300
C 	C 	0.89963 0.90337 0.17837 0.37000
C 	C 	0.85133 0.85727 0.15247 -0.10800
C 	C 	0.80403 0.85667 0.14537 0.03400
H 	H 	0.80233 0.88767 0.15377 0.03400
C 	C 	0.75843 0.81127 0.12607 -0.09200
H 	H 	0.72613 0.81167 0.12227 0.07000
C 	C 	0.75983 0.76607 0.11257 0.03500
C 	C 	0.80873 0.76857 0.11417 -0.09400
H 	H 	0.81143 0.73917 0.10077 0.06100
C 	C 	0.85313 0.81247 0.13477 0.03400
H 	H 	0.88563 0.81227 0.13687 0.03500
C 	C 	0.71073 0.71577 0.09707 0.07600
C 	C 	0.71123 0.66787 0.09797 -0.12000
H 	H 	0.74253 0.66757 0.10887 0.06800
C 	C 	0.61973 0.52147 0.08017 -0.11700
H 	H 	0.58653 0.52037 0.07807 0.06700
C 	C 	0.62143 0.47497 0.07997 0.07500
H 	H 	0.58893 0.44217 0.07737 0.01200
O 	O 	0.56587 0.28623 0.01720 -0.40100
O 	O 	0.60317 0.37427 0.02690 -0.40700
C 	C 	0.56630 0.32960 0.01170 0.37100
C 	C 	0.51800 0.32740 0.98580 -0.10900
C 	C 	0.47070 0.28070 0.97870 0.03400
H 	H 	0.46900 0.24800 0.98710 0.03300
C 	C 	0.42510 0.28050 0.95940 -0.09300
H 	H 	0.39280 0.24780 0.95560 0.07000
C 	C 	0.42650 0.32710 0.94590 0.03600
C 	C 	0.47540 0.37350 0.94750 -0.09500
H 	H 	0.47810 0.40560 0.93410 0.06100
C 	C 	0.51980 0.37400 0.96810 0.03400
H 	H 	0.55230 0.40670 0.97020 0.03400
C 	C 	0.37740 0.32830 0.93040 0.07600
C 	C 	0.37790 0.37670 0.93130 -0.12000
H 	H 	0.40920 0.40830 0.94220 0.06800
C 	C 	0.28640 0.43160 0.91350 -0.11700
H 	H 	0.25320 0.39950 0.91140 0.06700
C 	C 	0.28810 0.47980 0.91330 0.07500
H 	H 	0.25560 0.48010 0.91070 0.01200
O 	O 	0.23254 0.61956 0.35053 -0.40100
O 	O 	0.26984 0.70760 0.36023 -0.40700
C 	C 	0.23297 0.66293 0.34503 0.37100
C 	C 	0.18467 0.66073 0.31913 -0.10900
C 	C 	0.13737 0.61403 0.31203 0.03400
H 	H 	0.13567 0.58133 0.32043 0.03300
C 	C 	0.09177 0.61383 0.29273 -0.09300
H 	H 	0.05947 0.58113 0.28893 0.06900
C 	C 	0.09317 0.66043 0.27923 0.03500
C 	C 	0.14207 0.70683 0.28083 -0.09500
H 	H 	0.14477 0.73893 0.26743 0.06100
C 	C 	0.18647 0.70733 0.30143 0.03400
H 	H 	0.21897 0.74003 0.30353 0.03400
C 	C 	0.04407 0.66163 0.26373 0.07400
C 	C 	0.04457 0.71003 0.26463 -0.11800
H 	H 	0.07587 0.74163 0.27553 0.06700
C 	C 	0.95307 0.76493 0.24683 -0.11000
H 	H 	0.91987 0.73283 0.24473 0.06600
C 	C 	0.95477 0.81313 0.24663 0.07900
H 	H 	0.92227 0.81343 0.24403 0.01100
O 	O 	0.89920 0.95290 0.68387 -0.40000
O 	O 	0.93650 0.04094 0.69357 -0.40900
C 	C 	0.89963 0.99627 0.67837 0.37700
C 	C 	0.85133 0.99407 0.65247 -0.10300
C 	C 	0.80403 0.94737 0.64537 0.03400
H 	H 	0.80233 0.91467 0.65377 0.03300
C 	C 	0.75843 0.94717 0.62607 -0.09300
H 	H 	0.72613 0.91447 0.62227 0.07100
C 	C 	0.75983 0.99377 0.61257 0.04100
C 	C 	0.80873 0.04017 0.61417 -0.10000
H 	H 	0.81143 0.07227 0.60077 0.06200
C 	C 	0.85313 0.04067 0.63477 0.02900
H 	H 	0.88563 0.07337 0.63687 0.03600
C 	C 	0.71073 0.99497 0.59707 0.08100
C 	C 	0.71123 0.04337 0.59797 -0.12500
H 	H 	0.74253 0.07497 0.60887 0.06900
C 	C 	0.61973 0.09827 0.58017 -0.11800
H 	H 	0.58653 0.06617 0.57807 0.06600
C 	C 	0.62143 0.14647 0.57997 0.07500
H 	H 	0.58893 0.14677 0.57737 0.01200
O 	O 	0.71377 0.27964 0.01720 -0.40100
O 	O 	0.62573 0.22890 0.02690 -0.40700
C 	C 	0.67040 0.23670 0.01170 0.37000
C 	C 	0.67260 0.19060 0.98580 -0.10900
C 	C 	0.71930 0.19000 0.97870 0.03400
H 	H 	0.75200 0.22100 0.98710 0.03300
C 	C 	0.71950 0.14460 0.95940 -0.09200
H 	H 	0.75220 0.14500 0.95560 0.07000
C 	C 	0.67290 0.09940 0.94590 0.03400
C 	C 	0.62650 0.10190 0.94750 -0.09400
H 	H 	0.59440 0.07250 0.93410 0.06000
C 	C 	0.62600 0.14580 0.96810 0.03400
H 	H 	0.59330 0.14560 0.97020 0.03400
C 	C 	0.67170 0.04910 0.93040 0.07800
C 	C 	0.62330 0.00120 0.93130 -0.12900
H 	H 	0.59170 0.00090 0.94220 0.06900
C 	C 	0.56840 0.85480 0.91350 -0.11600
H 	H 	0.60050 0.85370 0.91140 0.06700
C 	C 	0.52020 0.80830 0.91330 0.07500
H 	H 	0.51990 0.77550 0.91070 0.01200
O 	O 	0.38044 0.61297 0.35053 -0.40100
O 	O 	0.29240 0.56223 0.36023 -0.40600
C 	C 	0.33707 0.57003 0.34503 0.37100
C 	C 	0.33927 0.52393 0.31913 -0.10900
C 	C 	0.38597 0.52333 0.31203 0.03400
H 	H 	0.41867 0.55433 0.32043 0.03300
C 	C 	0.38617 0.47793 0.29273 -0.09300
H 	H 	0.41887 0.47833 0.28893 0.07000
C 	C 	0.33957 0.43273 0.27923 0.03600
C 	C 	0.29317 0.43523 0.28083 -0.09500
H 	H 	0.26107 0.40583 0.26743 0.06100
C 	C 	0.29267 0.47913 0.30143 0.03400
H 	H 	0.25997 0.47893 0.30353 0.03400
C 	C 	0.33837 0.38243 0.26373 0.07600
C 	C 	0.28997 0.33453 0.26463 -0.12000
H 	H 	0.25837 0.33423 0.27553 0.06800
C 	C 	0.23507 0.18813 0.24683 -0.11700
H 	H 	0.26717 0.18703 0.24473 0.06700
C 	C 	0.18687 0.14163 0.24663 0.07500
H 	H 	0.18657 0.10883 0.24403 0.01200
O 	O 	0.04710 0.94631 0.68387 -0.39800
O 	O 	0.95906 0.89557 0.69357 -0.40000
C 	C 	0.00373 0.90337 0.67837 0.36400
C 	C 	0.00593 0.85727 0.65247 -0.11300
C 	C 	0.05263 0.85667 0.64537 0.03400
H 	H 	0.08533 0.88767 0.65377 0.03300
C 	C 	0.05283 0.81127 0.62607 -0.09200
H 	H 	0.08553 0.81167 0.62227 0.07000
C 	C 	0.00623 0.76607 0.61257 0.03000
C 	C 	0.95983 0.76857 0.61417 -0.08800
H 	H 	0.92773 0.73917 0.60077 0.06000
C 	C 	0.95933 0.81247 0.63477 0.03900
H 	H 	0.92663 0.81227 0.63687 0.03400
C 	C 	0.00503 0.71577 0.59707 0.07100
C 	C 	0.95663 0.66787 0.59797 -0.11500
H 	H 	0.92503 0.66757 0.60887 0.06700
C 	C 	0.90173 0.52147 0.58017 -0.11500
H 	H 	0.93383 0.52037 0.57807 0.06800
C 	C 	0.85353 0.47497 0.57997 0.07500
H 	H 	0.85323 0.44217 0.57737 0.01200
O 	O 	0.72036 0.43413 0.01720 -0.40100
O 	O 	0.77110 0.39683 0.02690 -0.40700
C 	C 	0.76330 0.43370 0.01170 0.37100
C 	C 	0.80940 0.48200 0.98580 -0.11000
C 	C 	0.81000 0.52930 0.97870 0.03500
H 	H 	0.77900 0.53100 0.98710 0.03300
C 	C 	0.85540 0.57490 0.95940 -0.09400
H 	H 	0.85500 0.60720 0.95560 0.07100
C 	C 	0.90060 0.57350 0.94590 0.03700
C 	C 	0.89810 0.52460 0.94750 -0.09600
H 	H 	0.92750 0.52190 0.93410 0.06200
C 	C 	0.85420 0.48020 0.96810 0.03500
H 	H 	0.85440 0.44770 0.97020 0.03400
C 	C 	0.95090 0.62260 0.93040 0.07400
C 	C 	0.99880 0.62210 0.93130 -0.11100
H 	H 	0.99910 0.59080 0.94220 0.06700
C 	C 	0.14520 0.71360 0.91350 -0.11800
H 	H 	0.14630 0.74680 0.91140 0.06800
C 	C 	0.19170 0.71190 0.91330 0.07600
H 	H 	0.22450 0.74440 0.91070 0.01200
O 	O 	0.38703 0.76746 0.35053 -0.40100
O 	O 	0.43777 0.73016 0.36023 -0.40600
C 	C 	0.42997 0.76703 0.34503 0.37100
C 	C 	0.47607 0.81533 0.31913 -0.10900
C 	C 	0.47667 0.86263 0.31203 0.03400
H 	H 	0.44567 0.86433 0.32043 0.03300
C 	C 	0.52207 0.90823 0.29273 -0.09200
H 	H 	0.52167 0.94053 0.28893 0.07200
C 	C 	0.56727 0.90683 0.27923 0.03600
C 	C 	0.56477 0.85793 0.28083 -0.09400
H 	H 	0.59417 0.85523 0.26743 0.06100
C 	C 	0.52087 0.81353 0.30143 0.03500
H 	H 	0.52107 0.78103 0.30353 0.03400
C 	C 	0.61757 0.95593 0.26373 0.07900
C 	C 	0.66547 0.95543 0.26463 -0.11200
H 	H 	0.66577 0.92413 0.27553 0.06600
C 	C 	0.81187 0.04693 0.24683 -0.11500
H 	H 	0.81297 0.08013 0.24473 0.06700
C 	C 	0.85837 0.04523 0.24663 0.07300
H 	H 	0.89117 0.07773 0.24403 0.01300
O 	O 	0.05369 0.10080 0.68387 -0.40300
O 	O 	0.10443 0.06350 0.69357 -0.40800
C 	C 	0.09663 0.10037 0.67837 0.37100
C 	C 	0.14273 0.14867 0.65247 -0.11000
C 	C 	0.14333 0.19597 0.64537 0.03400
H 	H 	0.11233 0.19767 0.65377 0.03200
C 	C 	0.18873 0.24157 0.62607 -0.09300
H 	H 	0.18833 0.27387 0.62227 0.07000
C 	C 	0.23393 0.24017 0.61257 0.03600
C 	C 	0.23143 0.19127 0.61417 -0.09500
H 	H 	0.26083 0.18857 0.60077 0.06100
C 	C 	0.18753 0.14687 0.63477 0.03500
H 	H 	0.18773 0.11437 0.63687 0.03400
C 	C 	0.28423 0.28927 0.59707 0.07600
C 	C 	0.33213 0.28877 0.59797 -0.12000
H 	H 	0.33243 0.25747 0.60887 0.06800
C 	C 	0.47853 0.38027 0.58017 -0.11700
H 	H 	0.47963 0.41347 0.57807 0.06700
C 	C 	0.52503 0.37857 0.57997 0.07500
H 	H 	0.55783 0.41107 0.57737 0.01200
O 	O 	0.28623 0.56587 0.48280 -0.40100
O 	O 	0.37427 0.60317 0.47310 -0.40700
C 	C 	0.32960 0.56630 0.48830 0.37100
C 	C 	0.32740 0.51800 0.51420 -0.10900
C 	C 	0.28070 0.47070 0.52130 0.03400
H 	H 	0.24800 0.46900 0.51290 0.03300
C 	C 	0.28050 0.42510 0.54060 -0.09300
H 	H 	0.24780 0.39280 0.54440 0.07000
C 	C 	0.32710 0.42650 0.55410 0.03500
C 	C 	0.37350 0.47540 0.55250 -0.09500
H 	H 	0.40560 0.47810 0.56590 0.06100
C 	C 	0.37400 0.51980 0.53190 0.03400
H 	H 	0.40670 0.55230 0.52980 0.03400
C 	C 	0.32830 0.37740 0.56960 0.07600
C 	C 	0.37670 0.37790 0.56870 -0.12000
H 	H 	0.40830 0.40920 0.55780 0.06800
C 	C 	0.43160 0.28640 0.58650 -0.11700
H 	H 	0.39950 0.25320 0.58860 0.06700
C 	C 	0.47980 0.28810 0.58670 0.07500
H 	H 	0.48010 0.25560 0.58930 0.01200
O 	O 	0.95290 0.89920 0.81613 -0.40000
O 	O 	0.04094 0.93650 0.80643 -0.40900
C 	C 	0.99627 0.89963 0.82163 0.37700
C 	C 	0.99407 0.85133 0.84753 -0.10400
C 	C 	0.94737 0.80403 0.85463 0.03400
H 	H 	0.91467 0.80233 0.84623 0.03300
C 	C 	0.94717 0.75843 0.87393 -0.09300
H 	H 	0.91447 0.72613 0.87773 0.07100
C 	C 	0.99377 0.75983 0.88743 0.04100
C 	C 	0.04017 0.80873 0.88583 -0.10000
H 	H 	0.07227 0.81143 0.89923 0.06200
C 	C 	0.04067 0.85313 0.86523 0.02900
H 	H 	0.07337 0.88563 0.86313 0.03600
C 	C 	0.99497 0.71073 0.90293 0.08100
C 	C 	0.04337 0.71123 0.90203 -0.12500
H 	H 	0.07497 0.74253 0.89113 0.06900
C 	C 	0.09827 0.61973 0.91983 -0.11800
H 	H 	0.06617 0.58653 0.92193 0.06600
C 	C 	0.14647 0.62143 0.92003 0.07500
H 	H 	0.14677 0.58893 0.92263 0.01200
O 	O 	0.61956 0.23254 0.14947 -0.40100
O 	O 	0.70760 0.26984 0.13977 -0.40600
C 	C 	0.66293 0.23297 0.15497 0.37100
C 	C 	0.66073 0.18467 0.18087 -0.10900
C 	C 	0.61403 0.13737 0.18797 0.03400
H 	H 	0.58133 0.13567 0.17957 0.03300
C 	C 	0.61383 0.09177 0.20727 -0.09300
H 	H 	0.58113 0.05947 0.21107 0.06900
C 	C 	0.66043 0.09317 0.22077 0.03500
C 	C 	0.70683 0.14207 0.21917 -0.09500
H 	H 	0.73893 0.14477 0.23257 0.06100
C 	C 	0.70733 0.18647 0.19857 0.03400
H 	H 	0.74003 0.21897 0.19647 0.03400
C 	C 	0.66163 0.04407 0.23627 0.07400
C 	C 	0.71003 0.04457 0.23537 -0.11800
H 	H 	0.74163 0.07587 0.22447 0.06700
C 	C 	0.76493 0.95307 0.25317 -0.11000
H 	H 	0.73283 0.91987 0.25527 0.06600
C 	C 	0.81313 0.95477 0.25337 0.07900
H 	H 	0.81343 0.92227 0.25597 0.01100
O 	O 	0.27964 0.71377 0.48280 -0.40100
O 	O 	0.22890 0.62573 0.47310 -0.40700
C 	C 	0.23670 0.67040 0.48830 0.37000
C 	C 	0.19060 0.67260 0.51420 -0.10900
C 	C 	0.19000 0.71930 0.52130 0.03300
H 	H 	0.22100 0.75200 0.51290 0.03300
C 	C 	0.14460 0.71950 0.54060 -0.09200
H 	H 	0.14500 0.75220 0.54440 0.07000
C 	C 	0.09940 0.67290 0.55410 0.03400
C 	C 	0.10190 0.62650 0.55250 -0.09400
H 	H 	0.07250 0.59440 0.56590 0.06000
C 	C 	0.14580 0.62600 0.53190 0.03300
H 	H 	0.14560 0.59330 0.52980 0.03400
C 	C 	0.04910 0.67170 0.56960 0.07800
C 	C 	0.00120 0.62330 0.56870 -0.12900
H 	H 	0.00090 0.59170 0.55780 0.06900
C 	C 	0.85480 0.56840 0.58650 -0.11500
H 	H 	0.85370 0.60050 0.58860 0.06700
C 	C 	0.80830 0.52020 0.58670 0.07500
H 	H 	0.77550 0.51990 0.58930 0.01200
O 	O 	0.94631 0.04710 0.81613 -0.39800
O 	O 	0.89557 0.95906 0.80643 -0.40000
C 	C 	0.90337 0.00373 0.82163 0.36400
C 	C 	0.85727 0.00593 0.84753 -0.11300
C 	C 	0.85667 0.05263 0.85463 0.03400
H 	H 	0.88767 0.08533 0.84623 0.03300
C 	C 	0.81127 0.05283 0.87393 -0.09200
H 	H 	0.81167 0.08553 0.87773 0.07000
C 	C 	0.76607 0.00623 0.88743 0.03000
C 	C 	0.76857 0.95983 0.88583 -0.08800
H 	H 	0.73917 0.92773 0.89923 0.06000
C 	C 	0.81247 0.95933 0.86523 0.03900
H 	H 	0.81227 0.92663 0.86313 0.03400
C 	C 	0.71577 0.00503 0.90293 0.07100
C 	C 	0.66787 0.95663 0.90203 -0.11500
H 	H 	0.66757 0.92503 0.89113 0.06700
C 	C 	0.52147 0.90173 0.91983 -0.11500
H 	H 	0.52037 0.93383 0.92193 0.06800
C 	C 	0.47497 0.85353 0.92003 0.07500
H 	H 	0.44217 0.85323 0.92263 0.01200
O 	O 	0.61297 0.38044 0.14947 -0.40100
O 	O 	0.56223 0.29240 0.13977 -0.40600
C 	C 	0.57003 0.33707 0.15497 0.37100
C 	C 	0.52393 0.33927 0.18087 -0.10900
C 	C 	0.52333 0.38597 0.18797 0.03400
H 	H 	0.55433 0.41867 0.17957 0.03300
C 	C 	0.47793 0.38617 0.20727 -0.09300
H 	H 	0.47833 0.41887 0.21107 0.07000
C 	C 	0.43273 0.33957 0.22077 0.03600
C 	C 	0.43523 0.29317 0.21917 -0.09500
H 	H 	0.40583 0.26107 0.23257 0.06100
C 	C 	0.47913 0.29267 0.19857 0.03400
H 	H 	0.47893 0.25997 0.19647 0.03400
C 	C 	0.38243 0.33837 0.23627 0.07600
C 	C 	0.33453 0.28997 0.23537 -0.12000
H 	H 	0.33423 0.25837 0.22447 0.06800
C 	C 	0.18813 0.23507 0.25317 -0.11700
H 	H 	0.18703 0.26717 0.25527 0.06700
C 	C 	0.14163 0.18687 0.25337 0.07500
H 	H 	0.10883 0.18657 0.25597 0.01200
O 	O 	0.43413 0.72036 0.48280 -0.40100
O 	O 	0.39683 0.77110 0.47310 -0.40600
C 	C 	0.43370 0.76330 0.48830 0.37100
C 	C 	0.48200 0.80940 0.51420 -0.11000
C 	C 	0.52930 0.81000 0.52130 0.03500
H 	H 	0.53100 0.77900 0.51290 0.03300
C 	C 	0.57490 0.85540 0.54060 -0.09400
H 	H 	0.60720 0.85500 0.54440 0.07100
C 	C 	0.57350 0.90060 0.55410 0.03700
C 	C 	0.52460 0.89810 0.55250 -0.09500
H 	H 	0.52190 0.92750 0.56590 0.06200
C 	C 	0.48020 0.85420 0.53190 0.03500
H 	H 	0.44770 0.85440 0.52980 0.03400
C 	C 	0.62260 0.95090 0.56960 0.07400
C 	C 	0.62210 0.99880 0.56870 -0.11100
H 	H 	0.59080 0.99910 0.55780 0.06700
C 	C 	0.71360 0.14520 0.58650 -0.11800
H 	H 	0.74680 0.14630 0.58860 0.06800
C 	C 	0.71190 0.19170 0.58670 0.07600
H 	H 	0.74440 0.22450 0.58930 0.01200
O 	O 	0.10080 0.05369 0.81613 -0.40300
O 	O 	0.06350 0.10443 0.80643 -0.40800
C 	C 	0.10037 0.09663 0.82163 0.37100
C 	C 	0.14867 0.14273 0.84753 -0.11000
C 	C 	0.19597 0.14333 0.85463 0.03400
H 	H 	0.19767 0.11233 0.84623 0.03200
C 	C 	0.24157 0.18873 0.87393 -0.09300
H 	H 	0.27387 0.18833 0.87773 0.07000
C 	C 	0.24017 0.23393 0.88743 0.03600
C 	C 	0.19127 0.23143 0.88583 -0.09500
H 	H 	0.18857 0.26083 0.89923 0.06100
C 	C 	0.14687 0.18753 0.86523 0.03500
H 	H 	0.11437 0.18773 0.86313 0.03400
C 	C 	0.28927 0.28423 0.90293 0.07600
C 	C 	0.28877 0.33213 0.90203 -0.12000
H 	H 	0.25747 0.33243 0.89113 0.06800
C 	C 	0.38027 0.47853 0.91983 -0.11700
H 	H 	0.41347 0.47963 0.92193 0.06700
C 	C 	0.37857 0.52503 0.92003 0.07500
H 	H 	0.41107 0.55783 0.92263 0.01200
O 	O 	0.76746 0.38703 0.14947 -0.40100
O 	O 	0.73016 0.43777 0.13977 -0.40600
C 	C 	0.76703 0.42997 0.15497 0.37100
C 	C 	0.81533 0.47607 0.18087 -0.10900
C 	C 	0.86263 0.47667 0.18797 0.03400
H 	H 	0.86433 0.44567 0.17957 0.03300
C 	C 	0.90823 0.52207 0.20727 -0.09200
H 	H 	0.94053 0.52167 0.21107 0.07200
C 	C 	0.90683 0.56727 0.22077 0.03600
C 	C 	0.85793 0.56477 0.21917 -0.09400
H 	H 	0.85523 0.59417 0.23257 0.06100
C 	C 	0.81353 0.52087 0.19857 0.03500
H 	H 	0.78103 0.52107 0.19647 0.03400
C 	C 	0.95593 0.61757 0.23627 0.07900
C 	C 	0.95543 0.66547 0.23537 -0.11200
H 	H 	0.92413 0.66577 0.22447 0.06600
C 	C 	0.04693 0.81187 0.25317 -0.11500
H 	H 	0.08013 0.81297 0.25527 0.06700
C 	C 	0.04523 0.85837 0.25337 0.07300
H 	H 	0.07773 0.89117 0.25597 0.01300
Ni	Ni	0.66667 0.40217 0.08333 1.12600
N 	N 	0.66667 0.47378 0.08333 -0.20700
N 	N 	0.66667 0.71778 0.08333 -0.13000
C 	C 	0.66667 0.62148 0.08333 0.05500
C 	C 	0.66667 0.57008 0.08333 0.04900
Ni	Ni	0.59783 0.26449 0.08333 1.12600
N 	N 	0.52622 0.19288 0.08333 -0.20700
N 	N 	0.28222 0.94888 0.08333 -0.13000
C 	C 	0.37852 0.04518 0.08333 0.04900
C 	C 	0.42992 0.09658 0.08333 0.05000
Ni	Ni	0.73551 0.33333 0.08333 1.12600
N 	N 	0.80712 0.33333 0.08333 -0.20700
N 	N 	0.05112 0.33333 0.08333 -0.13000
C 	C 	0.95482 0.33333 0.08333 0.06200
C 	C 	0.90342 0.33333 0.08333 0.04700
Ni	Ni	0.40217 0.66667 0.41667 1.12600
N 	N 	0.47378 0.66667 0.41667 -0.20700
N 	N 	0.71778 0.66667 0.41667 -0.13000
C 	C 	0.62148 0.66667 0.41667 0.05500
C 	C 	0.57008 0.66667 0.41667 0.04900
Ni	Ni	0.06884 0.00000 0.75000 1.12400
N 	N 	0.14045 0.00000 0.75000 -0.21000
N 	N 	0.38445 0.00000 0.75000 -0.13300
C 	C 	0.28815 0.00000 0.75000 0.04900
C 	C 	0.23675 0.00000 0.75000 0.04300
Ni	Ni	0.26449 0.59783 0.41667 1.12600
N 	N 	0.19288 0.52622 0.41667 -0.20700
N 	N 	0.94888 0.28222 0.41667 -0.13000
C 	C 	0.04518 0.37852 0.41667 0.04900
C 	C 	0.09658 0.42992 0.41667 0.05000
Ni	Ni	0.93116 0.93116 0.75000 1.12800
N 	N 	0.85955 0.85955 0.75000 -0.20700
N 	N 	0.61555 0.61555 0.75000 -0.13000
C 	C 	0.71185 0.71185 0.75000 0.05500
C 	C 	0.76325 0.76325 0.75000 0.04800
Ni	Ni	0.33333 0.73551 0.41667 1.12600
N 	N 	0.33333 0.80712 0.41667 -0.20700
N 	N 	0.33333 0.05112 0.41667 -0.13000
C 	C 	0.33333 0.95482 0.41667 0.06200
C 	C 	0.33333 0.90342 0.41667 0.04700
Ni	Ni	-0.00000 0.06884 0.75000 1.12400
N 	N 	-0.00000 0.14045 0.75000 -0.21000
N 	N 	-0.00000 0.38445 0.75000 -0.13300
C 	C 	-0.00000 0.28815 0.75000 0.04900
C 	C 	-0.00000 0.23675 0.75000 0.04300
Ni	Ni	0.33333 0.59783 0.91667 1.12600
N 	N 	0.33333 0.52622 0.91667 -0.20700
N 	N 	0.33333 0.28222 0.91667 -0.13000
C 	C 	0.33333 0.37852 0.91667 0.05500
C 	C 	0.33333 0.42992 0.91667 0.04800
Ni	Ni	-0.00000 0.93116 0.25000 1.12500
N 	N 	-0.00000 0.85955 0.25000 -0.21000
N 	N 	-0.00000 0.61555 0.25000 -0.13300
C 	C 	-0.00000 0.71185 0.25000 0.04800
C 	C 	-0.00000 0.76325 0.25000 0.04300
Ni	Ni	0.40217 0.73551 0.91667 1.12600
N 	N 	0.47378 0.80712 0.91667 -0.20700
N 	N 	0.71778 0.05112 0.91667 -0.13000
C 	C 	0.62148 0.95482 0.91667 0.06200
C 	C 	0.57008 0.90342 0.91667 0.04700
Ni	Ni	0.06884 0.06884 0.25000 1.12600
N 	N 	0.14045 0.14045 0.25000 -0.20700
N 	N 	0.38445 0.38445 0.25000 -0.13000
C 	C 	0.28815 0.28815 0.25000 0.05500
C 	C 	0.23675 0.23675 0.25000 0.04800
Ni	Ni	0.26449 0.66667 0.91667 1.12600
N 	N 	0.19288 0.66667 0.91667 -0.20700
N 	N 	0.94888 0.66667 0.91667 -0.13000
C 	C 	0.04518 0.66667 0.91667 0.04900
C 	C 	0.09658 0.66667 0.91667 0.05000
Ni	Ni	0.93116 0.00000 0.25000 1.12500
N 	N 	0.85955 0.00000 0.25000 -0.21000
N 	N 	0.61555 0.00000 0.25000 -0.13300
C 	C 	0.71185 0.00000 0.25000 0.04800
C 	C 	0.76325 0.00000 0.25000 0.04300
Ni	Ni	0.59783 0.33333 0.58333 1.12600
N 	N 	0.52622 0.33333 0.58333 -0.20700
N 	N 	0.28222 0.33333 0.58333 -0.13000
C 	C 	0.37852 0.33333 0.58333 0.05500
C 	C 	0.42992 0.33333 0.58333 0.04800
Ni	Ni	0.73551 0.40217 0.58333 1.12600
N 	N 	0.80712 0.47378 0.58333 -0.20700
N 	N 	0.05112 0.71778 0.58333 -0.13000
C 	C 	0.95482 0.62148 0.58333 0.06200
C 	C 	0.90342 0.57008 0.58333 0.04700
Ni	Ni	0.66667 0.26449 0.58333 1.12600
N 	N 	0.66667 0.19288 0.58333 -0.20700
N 	N 	0.66667 0.94888 0.58333 -0.13000
C 	C 	0.66667 0.04518 0.58333 0.04900
C 	C 	0.66667 0.09658 0.58333 0.05000
O 	O 	0.66667 0.33333 0.08333 -0.71600
O 	O 	-0.00000 0.00000 0.75000 -0.71800
O 	O 	0.33333 0.66667 0.41667 -0.71600
O 	O 	0.33333 0.66667 0.91667 -0.71600
O 	O 	-0.00000 0.00000 0.25000 -0.71800
O 	O 	0.66667 0.33333 0.58333 -0.71600
H 	H 	0.66667 0.33333 0.12600 0.12600
H 	H 	0.33333 0.66667 0.45933 0.12600
H 	H 	0.00000 0.00000 0.79267 0.12300
H 	H 	0.33333 0.66667 0.37400 0.12600
H 	H 	-0.00000 0.00000 0.70733 0.12300
H 	H 	0.66667 0.33333 0.04067 0.12600
H 	H 	0.33333 0.66667 0.87400 0.12600
H 	H 	0.00000 0.00000 0.20733 0.12300
H 	H 	0.66667 0.33333 0.54067 0.12600
H 	H 	0.66667 0.33333 0.62600 0.12600
H 	H 	0.33333 0.66667 0.95933 0.12600
H 	H 	-0.00000 0.00000 0.29267 0.12300
