data_crystal

_cell_length_a 29.05000
_cell_length_b 29.05000
_cell_length_c 24.50200
_cell_angle_alpha 90.00000
_cell_angle_beta  90.00000
_cell_angle_gamma 120.00000

_symmetry_space_group_name_	'P 1'
_symmetry_space_group_name_H-M	'P 1'

loop_
_symmetry_equiv_pos_as_xyz
  x,y,z

loop_
_atom_site_label
_atom_site_type_symbol
_atom_site_fract_x
_atom_site_fract_y
_atom_site_fract_z
_atom_site_charge
O 	O 	0.43550 0.71369 0.97916 -0.40900
O 	O 	0.39687 0.62551 0.97236 -0.40600
C 	C 	0.43422 0.67051 0.98566 0.37700
C 	C 	0.48256 0.67253 0.01180 -0.11600
C 	C 	0.52890 0.71930 0.02110 0.04200
H 	H 	0.53020 0.75130 0.01400 0.03000
C 	C 	0.57410 0.71990 0.04090 -0.10700
H 	H 	0.60490 0.75230 0.04640 0.07600
C 	C 	0.57430 0.67400 0.05230 0.04300
C 	C 	0.52510 0.62680 0.04930 -0.10500
H 	H 	0.52240 0.59510 0.06110 0.06600
C 	C 	0.48070 0.62660 0.02920 0.04200
H 	H 	0.44870 0.59470 0.02720 0.03200
C 	C 	0.62270 0.67240 0.06900 0.07600
C 	C 	0.62190 0.62430 0.06830 -0.12300
H 	H 	0.59130 0.59350 0.05770 0.07100
C 	C 	0.71350 0.56910 0.08540 -0.13800
H 	H 	0.74600 0.60060 0.08640 0.07700
C 	C 	0.71170 0.52080 0.08590 0.08800
H 	H 	0.74360 0.52080 0.08810 0.00700
O 	O 	0.10217 0.04702 0.31249 -0.40700
O 	O 	0.06354 0.95884 0.30569 -0.40100
C 	C 	0.10089 0.00384 0.31899 0.37300
C 	C 	0.14923 0.00586 0.34513 -0.12100
C 	C 	0.19557 0.05263 0.35443 0.04300
H 	H 	0.19687 0.08463 0.34733 0.03000
C 	C 	0.24077 0.05323 0.37423 -0.10600
H 	H 	0.27157 0.08563 0.37973 0.07600
C 	C 	0.24097 0.00733 0.38563 0.03800
C 	C 	0.19177 0.96013 0.38263 -0.10100
H 	H 	0.18907 0.92843 0.39443 0.06500
C 	C 	0.14737 0.95993 0.36253 0.04800
H 	H 	0.11537 0.92803 0.36053 0.03000
C 	C 	0.28937 0.00573 0.40233 0.07100
C 	C 	0.28857 0.95763 0.40163 -0.11700
H 	H 	0.25797 0.92683 0.39103 0.07000
C 	C 	0.38017 0.90243 0.41873 -0.13600
H 	H 	0.41267 0.93393 0.41973 0.07800
C 	C 	0.37837 0.85413 0.41923 0.08800
H 	H 	0.41027 0.85413 0.42143 0.00800
O 	O 	0.76883 0.38036 0.64583 -0.40800
O 	O 	0.73020 0.29218 0.63903 -0.40500
C 	C 	0.76755 0.33718 0.65233 0.37800
C 	C 	0.81589 0.33920 0.67847 -0.11500
C 	C 	0.86223 0.38597 0.68777 0.04300
H 	H 	0.86353 0.41797 0.68067 0.03100
C 	C 	0.90743 0.38657 0.70757 -0.10600
H 	H 	0.93823 0.41897 0.71307 0.07800
C 	C 	0.90763 0.34067 0.71897 0.04300
C 	C 	0.85843 0.29347 0.71597 -0.10500
H 	H 	0.85573 0.26177 0.72777 0.06600
C 	C 	0.81403 0.29327 0.69587 0.04200
H 	H 	0.78203 0.26137 0.69387 0.03200
C 	C 	0.95603 0.33907 0.73567 0.07800
C 	C 	0.95523 0.29097 0.73497 -0.11600
H 	H 	0.92463 0.26017 0.72437 0.06900
C 	C 	0.04683 0.23577 0.75207 -0.13600
H 	H 	0.07933 0.26727 0.75307 0.07600
C 	C 	0.04503 0.18747 0.75257 0.08600
H 	H 	0.07693 0.18747 0.75477 0.00800
O 	O 	0.28631 0.72181 0.97916 -0.40800
O 	O 	0.37449 0.77136 0.97236 -0.40500
C 	C 	0.32949 0.76371 0.98566 0.37900
C 	C 	0.32747 0.81003 0.01180 -0.11600
C 	C 	0.28070 0.80960 0.02110 0.04400
H 	H 	0.24870 0.77890 0.01400 0.03000
C 	C 	0.28010 0.85420 0.04090 -0.10700
H 	H 	0.24770 0.85260 0.04640 0.07700
C 	C 	0.32600 0.90030 0.05230 0.04500
C 	C 	0.37320 0.89830 0.04930 -0.10600
H 	H 	0.40490 0.92730 0.06110 0.06700
C 	C 	0.37340 0.85410 0.02920 0.04300
H 	H 	0.40530 0.85400 0.02720 0.03200
C 	C 	0.32760 0.95030 0.06900 0.07400
C 	C 	0.37570 0.99760 0.06830 -0.11400
H 	H 	0.40650 0.99780 0.05770 0.07000
C 	C 	0.43090 0.14440 0.08540 -0.13900
H 	H 	0.39940 0.14540 0.08640 0.07700
C 	C 	0.47920 0.19090 0.08590 0.08800
H 	H 	0.47920 0.22280 0.08810 0.00700
O 	O 	0.95298 0.05514 0.31249 -0.40900
O 	O 	0.04116 0.10469 0.30569 -0.41000
C 	C 	0.99616 0.09704 0.31899 0.38400
C 	C 	0.99414 0.14336 0.34513 -0.11000
C 	C 	0.94737 0.14293 0.35443 0.04300
H 	H 	0.91537 0.11223 0.34733 0.03000
C 	C 	0.94677 0.18753 0.37423 -0.10700
H 	H 	0.91437 0.18593 0.37973 0.07600
C 	C 	0.99267 0.23363 0.38563 0.04800
C 	C 	0.03987 0.23163 0.38263 -0.11100
H 	H 	0.07157 0.26063 0.39443 0.06700
C 	C 	0.04007 0.18743 0.36253 0.03700
H 	H 	0.07197 0.18733 0.36053 0.03300
C 	C 	0.99427 0.28363 0.40233 0.08100
C 	C 	0.04237 0.33093 0.40163 -0.12800
H 	H 	0.07317 0.33113 0.39103 0.07200
C 	C 	0.09757 0.47773 0.41873 -0.13900
H 	H 	0.06607 0.47873 0.41973 0.07600
C 	C 	0.14587 0.52423 0.41923 0.08900
H 	H 	0.14587 0.55613 0.42143 0.00700
O 	O 	0.61964 0.38848 0.64583 -0.40800
O 	O 	0.70782 0.43803 0.63903 -0.40500
C 	C 	0.66282 0.43038 0.65233 0.37800
C 	C 	0.66080 0.47670 0.67847 -0.11500
C 	C 	0.61403 0.47627 0.68777 0.04300
H 	H 	0.58203 0.44557 0.68067 0.03000
C 	C 	0.61343 0.52087 0.70757 -0.10600
H 	H 	0.58103 0.51927 0.71307 0.07600
C 	C 	0.65933 0.56697 0.71897 0.04300
C 	C 	0.70653 0.56497 0.71597 -0.10500
H 	H 	0.73823 0.59397 0.72777 0.06600
C 	C 	0.70673 0.52077 0.69587 0.04200
H 	H 	0.73863 0.52067 0.69387 0.03200
C 	C 	0.66093 0.61697 0.73567 0.07600
C 	C 	0.70903 0.66427 0.73497 -0.12300
H 	H 	0.73983 0.66447 0.72437 0.07100
C 	C 	0.76423 0.81107 0.75207 -0.13700
H 	H 	0.73273 0.81207 0.75307 0.07700
C 	C 	0.81253 0.85757 0.75257 0.08800
H 	H 	0.81253 0.88947 0.75477 0.00800
O 	O 	0.27819 0.56450 0.97916 -0.40800
O 	O 	0.22864 0.60313 0.97236 -0.40500
C 	C 	0.23629 0.56578 0.98566 0.37800
C 	C 	0.18997 0.51744 0.01180 -0.11400
C 	C 	0.19040 0.47110 0.02110 0.04200
H 	H 	0.22110 0.46980 0.01400 0.03100
C 	C 	0.14580 0.42590 0.04090 -0.10500
H 	H 	0.14740 0.39510 0.04640 0.07600
C 	C 	0.09970 0.42570 0.05230 0.04100
C 	C 	0.10170 0.47490 0.04930 -0.10400
H 	H 	0.07270 0.47760 0.06110 0.06500
C 	C 	0.14590 0.51930 0.02920 0.04100
H 	H 	0.14600 0.55130 0.02720 0.03200
C 	C 	0.04970 0.37730 0.06900 0.07700
C 	C 	0.00240 0.37810 0.06830 -0.13100
H 	H 	0.00220 0.40870 0.05770 0.07200
C 	C 	0.85560 0.28650 0.08540 -0.13700
H 	H 	0.85460 0.25400 0.08640 0.07700
C 	C 	0.80910 0.28830 0.08590 0.08800
H 	H 	0.77720 0.25640 0.08810 0.00700
O 	O 	0.94486 0.89783 0.31249 -0.40400
O 	O 	0.89531 0.93646 0.30569 -0.40200
C 	C 	0.90296 0.89911 0.31899 0.37800
C 	C 	0.85664 0.85077 0.34513 -0.11300
C 	C 	0.85707 0.80443 0.35443 0.04200
H 	H 	0.88777 0.80313 0.34733 0.03100
C 	C 	0.81247 0.75923 0.37423 -0.10500
H 	H 	0.81407 0.72843 0.37973 0.07600
C 	C 	0.76637 0.75903 0.38563 0.04200
C 	C 	0.76837 0.80823 0.38263 -0.10400
H 	H 	0.73937 0.81093 0.39443 0.06600
C 	C 	0.81257 0.85263 0.36253 0.04100
H 	H 	0.81267 0.88463 0.36053 0.03300
C 	C 	0.71637 0.71063 0.40233 0.07600
C 	C 	0.66907 0.71143 0.40163 -0.12300
H 	H 	0.66887 0.74203 0.39103 0.07100
C 	C 	0.52227 0.61983 0.41873 -0.13800
H 	H 	0.52127 0.58733 0.41973 0.07700
C 	C 	0.47577 0.62163 0.41923 0.08800
H 	H 	0.44387 0.58973 0.42143 0.00700
O 	O 	0.61152 0.23117 0.64583 -0.40800
O 	O 	0.56197 0.26980 0.63903 -0.40500
C 	C 	0.56962 0.23245 0.65233 0.37800
C 	C 	0.52330 0.18411 0.67847 -0.11500
C 	C 	0.52373 0.13777 0.68777 0.04300
H 	H 	0.55443 0.13647 0.68067 0.03000
C 	C 	0.47913 0.09257 0.70757 -0.10600
H 	H 	0.48073 0.06177 0.71307 0.07500
C 	C 	0.43303 0.09237 0.71897 0.04300
C 	C 	0.43503 0.14157 0.71597 -0.10600
H 	H 	0.40603 0.14427 0.72777 0.06600
C 	C 	0.47923 0.18597 0.69587 0.04200
H 	H 	0.47933 0.21797 0.69387 0.03200
C 	C 	0.38303 0.04397 0.73567 0.07400
C 	C 	0.33573 0.04477 0.73497 -0.12100
H 	H 	0.33553 0.07537 0.72437 0.07000
C 	C 	0.18893 0.95317 0.75207 -0.13100
H 	H 	0.18793 0.92067 0.75307 0.07600
C 	C 	0.14243 0.95497 0.75257 0.09200
H 	H 	0.11053 0.92307 0.75477 0.00600
O 	O 	0.71369 0.43550 0.52084 -0.40800
O 	O 	0.62551 0.39687 0.52764 -0.40500
C 	C 	0.67051 0.43422 0.51434 0.37800
C 	C 	0.67253 0.48256 0.48820 -0.11500
C 	C 	0.71930 0.52890 0.47890 0.04300
H 	H 	0.75130 0.53020 0.48600 0.03100
C 	C 	0.71990 0.57410 0.45910 -0.10600
H 	H 	0.75230 0.60490 0.45360 0.07700
C 	C 	0.67400 0.57430 0.44770 0.04300
C 	C 	0.62680 0.52510 0.45070 -0.10500
H 	H 	0.59510 0.52240 0.43890 0.06600
C 	C 	0.62660 0.48070 0.47080 0.04200
H 	H 	0.59470 0.44870 0.47280 0.03200
C 	C 	0.67240 0.62270 0.43100 0.07600
C 	C 	0.62430 0.62190 0.43170 -0.12300
H 	H 	0.59350 0.59130 0.44230 0.07100
C 	C 	0.56910 0.71350 0.41460 -0.13800
H 	H 	0.60060 0.74600 0.41360 0.07700
C 	C 	0.52080 0.71170 0.41410 0.08800
H 	H 	0.52080 0.74360 0.41190 0.00700
O 	O 	0.38036 0.76883 0.85417 -0.40800
O 	O 	0.29218 0.73020 0.86097 -0.40500
C 	C 	0.33718 0.76755 0.84767 0.37800
C 	C 	0.33920 0.81589 0.82153 -0.11500
C 	C 	0.38597 0.86223 0.81223 0.04300
H 	H 	0.41797 0.86353 0.81933 0.03100
C 	C 	0.38657 0.90743 0.79243 -0.10600
H 	H 	0.41897 0.93823 0.78693 0.07800
C 	C 	0.34067 0.90763 0.78103 0.04300
C 	C 	0.29347 0.85843 0.78403 -0.10500
H 	H 	0.26177 0.85573 0.77223 0.06600
C 	C 	0.29327 0.81403 0.80413 0.04200
H 	H 	0.26137 0.78203 0.80613 0.03200
C 	C 	0.33907 0.95603 0.76433 0.07800
C 	C 	0.29097 0.95523 0.76503 -0.11600
H 	H 	0.26017 0.92463 0.77563 0.06900
C 	C 	0.23577 0.04683 0.74793 -0.13600
H 	H 	0.26727 0.07933 0.74693 0.07600
C 	C 	0.18747 0.04503 0.74743 0.08600
H 	H 	0.18747 0.07693 0.74523 0.00800
O 	O 	0.04702 0.10217 0.18751 -0.40700
O 	O 	0.95884 0.06354 0.19431 -0.40100
C 	C 	0.00384 0.10089 0.18101 0.37300
C 	C 	0.00586 0.14923 0.15487 -0.12100
C 	C 	0.05263 0.19557 0.14557 0.04300
H 	H 	0.08463 0.19687 0.15267 0.03000
C 	C 	0.05323 0.24077 0.12577 -0.10600
H 	H 	0.08563 0.27157 0.12027 0.07600
C 	C 	0.00733 0.24097 0.11437 0.03800
C 	C 	0.96013 0.19177 0.11737 -0.10100
H 	H 	0.92843 0.18907 0.10557 0.06500
C 	C 	0.95993 0.14737 0.13747 0.04800
H 	H 	0.92803 0.11537 0.13947 0.03000
C 	C 	0.00573 0.28937 0.09767 0.07100
C 	C 	0.95763 0.28857 0.09837 -0.11700
H 	H 	0.92683 0.25797 0.10897 0.07000
C 	C 	0.90243 0.38017 0.08127 -0.13600
H 	H 	0.93393 0.41267 0.08027 0.07800
C 	C 	0.85413 0.37837 0.08077 0.08800
H 	H 	0.85413 0.41027 0.07857 0.00800
O 	O 	0.72181 0.28631 0.52084 -0.40800
O 	O 	0.77136 0.37449 0.52764 -0.40500
C 	C 	0.76371 0.32949 0.51434 0.37900
C 	C 	0.81003 0.32747 0.48820 -0.11600
C 	C 	0.80960 0.28070 0.47890 0.04400
H 	H 	0.77890 0.24870 0.48600 0.03000
C 	C 	0.85420 0.28010 0.45910 -0.10700
H 	H 	0.85260 0.24770 0.45360 0.07700
C 	C 	0.90030 0.32600 0.44770 0.04500
C 	C 	0.89830 0.37320 0.45070 -0.10600
H 	H 	0.92730 0.40490 0.43890 0.06700
C 	C 	0.85410 0.37340 0.47080 0.04300
H 	H 	0.85400 0.40530 0.47280 0.03200
C 	C 	0.95030 0.32760 0.43100 0.07400
C 	C 	0.99760 0.37570 0.43170 -0.11400
H 	H 	0.99780 0.40650 0.44230 0.07000
C 	C 	0.14440 0.43090 0.41460 -0.13900
H 	H 	0.14540 0.39940 0.41360 0.07700
C 	C 	0.19090 0.47920 0.41410 0.08800
H 	H 	0.22280 0.47920 0.41190 0.00700
O 	O 	0.38848 0.61964 0.85417 -0.40800
O 	O 	0.43803 0.70782 0.86097 -0.40500
C 	C 	0.43038 0.66282 0.84767 0.37800
C 	C 	0.47670 0.66080 0.82153 -0.11500
C 	C 	0.47627 0.61403 0.81223 0.04300
H 	H 	0.44557 0.58203 0.81933 0.03000
C 	C 	0.52087 0.61343 0.79243 -0.10600
H 	H 	0.51927 0.58103 0.78693 0.07600
C 	C 	0.56697 0.65933 0.78103 0.04300
C 	C 	0.56497 0.70653 0.78403 -0.10500
H 	H 	0.59397 0.73823 0.77223 0.06600
C 	C 	0.52077 0.70673 0.80413 0.04200
H 	H 	0.52067 0.73863 0.80613 0.03200
C 	C 	0.61697 0.66093 0.76433 0.07600
C 	C 	0.66427 0.70903 0.76503 -0.12300
H 	H 	0.66447 0.73983 0.77563 0.07100
C 	C 	0.81107 0.76423 0.74793 -0.13700
H 	H 	0.81207 0.73273 0.74693 0.07700
C 	C 	0.85757 0.81253 0.74743 0.08800
H 	H 	0.88947 0.81253 0.74523 0.00800
O 	O 	0.05514 0.95298 0.18751 -0.40900
O 	O 	0.10469 0.04116 0.19431 -0.41000
C 	C 	0.09704 0.99616 0.18101 0.38400
C 	C 	0.14336 0.99414 0.15487 -0.11000
C 	C 	0.14293 0.94737 0.14557 0.04300
H 	H 	0.11223 0.91537 0.15267 0.03000
C 	C 	0.18753 0.94677 0.12577 -0.10700
H 	H 	0.18593 0.91437 0.12027 0.07600
C 	C 	0.23363 0.99267 0.11437 0.04800
C 	C 	0.23163 0.03987 0.11737 -0.11100
H 	H 	0.26063 0.07157 0.10557 0.06700
C 	C 	0.18743 0.04007 0.13747 0.03700
H 	H 	0.18733 0.07197 0.13947 0.03300
C 	C 	0.28363 0.99427 0.09767 0.08000
C 	C 	0.33093 0.04237 0.09837 -0.12800
H 	H 	0.33113 0.07317 0.10897 0.07200
C 	C 	0.47773 0.09757 0.08127 -0.13900
H 	H 	0.47873 0.06607 0.08027 0.07600
C 	C 	0.52423 0.14587 0.08077 0.08900
H 	H 	0.55613 0.14587 0.07857 0.00700
O 	O 	0.56450 0.27819 0.52084 -0.40800
O 	O 	0.60313 0.22864 0.52764 -0.40500
C 	C 	0.56578 0.23629 0.51434 0.37800
C 	C 	0.51744 0.18997 0.48820 -0.11400
C 	C 	0.47110 0.19040 0.47890 0.04200
H 	H 	0.46980 0.22110 0.48600 0.03100
C 	C 	0.42590 0.14580 0.45910 -0.10500
H 	H 	0.39510 0.14740 0.45360 0.07600
C 	C 	0.42570 0.09970 0.44770 0.04100
C 	C 	0.47490 0.10170 0.45070 -0.10400
H 	H 	0.47760 0.07270 0.43890 0.06500
C 	C 	0.51930 0.14590 0.47080 0.04100
H 	H 	0.55130 0.14600 0.47280 0.03200
C 	C 	0.37730 0.04970 0.43100 0.07700
C 	C 	0.37810 0.00240 0.43170 -0.13200
H 	H 	0.40870 0.00220 0.44230 0.07200
C 	C 	0.28650 0.85560 0.41460 -0.13700
H 	H 	0.25400 0.85460 0.41360 0.07700
C 	C 	0.28830 0.80910 0.41410 0.08800
H 	H 	0.25640 0.77720 0.41190 0.00700
O 	O 	0.23117 0.61152 0.85417 -0.40800
O 	O 	0.26980 0.56197 0.86097 -0.40500
C 	C 	0.23245 0.56962 0.84767 0.37800
C 	C 	0.18411 0.52330 0.82153 -0.11500
C 	C 	0.13777 0.52373 0.81223 0.04300
H 	H 	0.13647 0.55443 0.81933 0.03000
C 	C 	0.09257 0.47913 0.79243 -0.10600
H 	H 	0.06177 0.48073 0.78693 0.07500
C 	C 	0.09237 0.43303 0.78103 0.04300
C 	C 	0.14157 0.43503 0.78403 -0.10600
H 	H 	0.14427 0.40603 0.77223 0.06600
C 	C 	0.18597 0.47923 0.80413 0.04200
H 	H 	0.21797 0.47933 0.80613 0.03200
C 	C 	0.04397 0.38303 0.76433 0.07400
C 	C 	0.04477 0.33573 0.76503 -0.12100
H 	H 	0.07537 0.33553 0.77563 0.07000
C 	C 	0.95317 0.18893 0.74793 -0.13100
H 	H 	0.92067 0.18793 0.74693 0.07600
C 	C 	0.95497 0.14243 0.74743 0.09200
H 	H 	0.92307 0.11053 0.74523 0.00600
O 	O 	0.89783 0.94486 0.18751 -0.40400
O 	O 	0.93646 0.89531 0.19431 -0.40200
C 	C 	0.89911 0.90296 0.18101 0.37800
C 	C 	0.85077 0.85664 0.15487 -0.11300
C 	C 	0.80443 0.85707 0.14557 0.04200
H 	H 	0.80313 0.88777 0.15267 0.03100
C 	C 	0.75923 0.81247 0.12577 -0.10500
H 	H 	0.72843 0.81407 0.12027 0.07600
C 	C 	0.75903 0.76637 0.11437 0.04200
C 	C 	0.80823 0.76837 0.11737 -0.10400
H 	H 	0.81093 0.73937 0.10557 0.06600
C 	C 	0.85263 0.81257 0.13747 0.04100
H 	H 	0.88463 0.81267 0.13947 0.03300
C 	C 	0.71063 0.71637 0.09767 0.07600
C 	C 	0.71143 0.66907 0.09837 -0.12300
H 	H 	0.74203 0.66887 0.10897 0.07100
C 	C 	0.61983 0.52227 0.08127 -0.13800
H 	H 	0.58733 0.52127 0.08027 0.07700
C 	C 	0.62163 0.47577 0.08077 0.08800
H 	H 	0.58973 0.44387 0.07857 0.00700
O 	O 	0.56450 0.28631 0.02084 -0.40800
O 	O 	0.60313 0.37449 0.02764 -0.40500
C 	C 	0.56578 0.32949 0.01434 0.37800
C 	C 	0.51744 0.32747 0.98820 -0.11500
C 	C 	0.47110 0.28070 0.97890 0.04300
H 	H 	0.46980 0.24870 0.98600 0.03000
C 	C 	0.42590 0.28010 0.95910 -0.10600
H 	H 	0.39510 0.24770 0.95360 0.07600
C 	C 	0.42570 0.32600 0.94770 0.04300
C 	C 	0.47490 0.37320 0.95070 -0.10500
H 	H 	0.47760 0.40490 0.93890 0.06600
C 	C 	0.51930 0.37340 0.97080 0.04200
H 	H 	0.55130 0.40530 0.97280 0.03200
C 	C 	0.37730 0.32760 0.93100 0.07600
C 	C 	0.37810 0.37570 0.93170 -0.12300
H 	H 	0.40870 0.40650 0.94230 0.07100
C 	C 	0.28650 0.43090 0.91460 -0.13800
H 	H 	0.25400 0.39940 0.91360 0.07700
C 	C 	0.28830 0.47920 0.91410 0.08800
H 	H 	0.25640 0.47920 0.91190 0.00700
O 	O 	0.23117 0.61964 0.35417 -0.40800
O 	O 	0.26980 0.70782 0.36097 -0.40500
C 	C 	0.23245 0.66282 0.34767 0.37800
C 	C 	0.18411 0.66080 0.32153 -0.11500
C 	C 	0.13777 0.61403 0.31223 0.04300
H 	H 	0.13647 0.58203 0.31933 0.03000
C 	C 	0.09257 0.61343 0.29243 -0.10600
H 	H 	0.06177 0.58103 0.28693 0.07500
C 	C 	0.09237 0.65933 0.28103 0.04300
C 	C 	0.14157 0.70653 0.28403 -0.10600
H 	H 	0.14427 0.73823 0.27223 0.06600
C 	C 	0.18597 0.70673 0.30413 0.04200
H 	H 	0.21797 0.73863 0.30613 0.03200
C 	C 	0.04397 0.66093 0.26433 0.07400
C 	C 	0.04477 0.70903 0.26503 -0.12100
H 	H 	0.07537 0.73983 0.27563 0.07000
C 	C 	0.95317 0.76423 0.24793 -0.13100
H 	H 	0.92067 0.73273 0.24693 0.07600
C 	C 	0.95497 0.81253 0.24743 0.09200
H 	H 	0.92307 0.81253 0.24523 0.00700
O 	O 	0.89783 0.95298 0.68751 -0.40700
O 	O 	0.93646 0.04116 0.69431 -0.40800
C 	C 	0.89911 0.99616 0.68101 0.38400
C 	C 	0.85077 0.99414 0.65487 -0.10900
C 	C 	0.80443 0.94737 0.64557 0.04200
H 	H 	0.80313 0.91537 0.65267 0.03100
C 	C 	0.75923 0.94677 0.62577 -0.10600
H 	H 	0.72843 0.91437 0.62027 0.07600
C 	C 	0.75903 0.99267 0.61437 0.04800
C 	C 	0.80823 0.03987 0.61737 -0.11000
H 	H 	0.81093 0.07157 0.60557 0.06700
C 	C 	0.85263 0.04007 0.63747 0.03500
H 	H 	0.88463 0.07197 0.63947 0.03400
C 	C 	0.71063 0.99427 0.59767 0.08100
C 	C 	0.71143 0.04237 0.59837 -0.12900
H 	H 	0.74203 0.07317 0.60897 0.07200
C 	C 	0.61983 0.09757 0.58127 -0.13900
H 	H 	0.58733 0.06607 0.58027 0.07600
C 	C 	0.62163 0.14587 0.58077 0.08800
H 	H 	0.58973 0.14587 0.57857 0.00700
O 	O 	0.71369 0.27819 0.02084 -0.40800
O 	O 	0.62551 0.22864 0.02764 -0.40500
C 	C 	0.67051 0.23629 0.01434 0.37800
C 	C 	0.67253 0.18997 0.98820 -0.11400
C 	C 	0.71930 0.19040 0.97890 0.04200
H 	H 	0.75130 0.22110 0.98600 0.03100
C 	C 	0.71990 0.14580 0.95910 -0.10500
H 	H 	0.75230 0.14740 0.95360 0.07600
C 	C 	0.67400 0.09970 0.94770 0.04100
C 	C 	0.62680 0.10170 0.95070 -0.10400
H 	H 	0.59510 0.07270 0.93890 0.06500
C 	C 	0.62660 0.14590 0.97080 0.04100
H 	H 	0.59470 0.14600 0.97280 0.03200
C 	C 	0.67240 0.04970 0.93100 0.07800
C 	C 	0.62430 0.00240 0.93170 -0.13200
H 	H 	0.59350 0.00220 0.94230 0.07200
C 	C 	0.56910 0.85560 0.91460 -0.13700
H 	H 	0.60060 0.85460 0.91360 0.07700
C 	C 	0.52080 0.80910 0.91410 0.08800
H 	H 	0.52080 0.77720 0.91190 0.00700
O 	O 	0.38036 0.61152 0.35417 -0.40800
O 	O 	0.29218 0.56197 0.36097 -0.40500
C 	C 	0.33718 0.56962 0.34767 0.37800
C 	C 	0.33920 0.52330 0.32153 -0.11500
C 	C 	0.38597 0.52373 0.31223 0.04300
H 	H 	0.41797 0.55443 0.31933 0.03000
C 	C 	0.38657 0.47913 0.29243 -0.10600
H 	H 	0.41897 0.48073 0.28693 0.07600
C 	C 	0.34067 0.43303 0.28103 0.04300
C 	C 	0.29347 0.43503 0.28403 -0.10500
H 	H 	0.26177 0.40603 0.27223 0.06600
C 	C 	0.29327 0.47923 0.30413 0.04200
H 	H 	0.26137 0.47933 0.30613 0.03200
C 	C 	0.33907 0.38303 0.26433 0.07600
C 	C 	0.29097 0.33573 0.26503 -0.12300
H 	H 	0.26017 0.33553 0.27563 0.07100
C 	C 	0.23577 0.18893 0.24793 -0.13800
H 	H 	0.26727 0.18793 0.24693 0.07700
C 	C 	0.18747 0.14243 0.24743 0.08800
H 	H 	0.18747 0.11053 0.24523 0.00700
O 	O 	0.04702 0.94486 0.68751 -0.40400
O 	O 	0.95884 0.89531 0.69431 -0.39900
C 	C 	0.00384 0.90296 0.68101 0.37200
C 	C 	0.00586 0.85664 0.65487 -0.12000
C 	C 	0.05263 0.85707 0.64557 0.04300
H 	H 	0.08463 0.88777 0.65267 0.03100
C 	C 	0.05323 0.81247 0.62577 -0.10500
H 	H 	0.08563 0.81407 0.62027 0.07600
C 	C 	0.00733 0.76637 0.61437 0.03800
C 	C 	0.96013 0.76837 0.61737 -0.10000
H 	H 	0.92843 0.73937 0.60557 0.06500
C 	C 	0.95993 0.81257 0.63747 0.04800
H 	H 	0.92803 0.81267 0.63947 0.03100
C 	C 	0.00573 0.71637 0.59767 0.07100
C 	C 	0.95763 0.66907 0.59837 -0.11700
H 	H 	0.92683 0.66887 0.60897 0.07000
C 	C 	0.90243 0.52227 0.58127 -0.13700
H 	H 	0.93393 0.52127 0.58027 0.07800
C 	C 	0.85413 0.47577 0.58077 0.08800
H 	H 	0.85413 0.44387 0.57857 0.00800
O 	O 	0.72181 0.43550 0.02084 -0.40800
O 	O 	0.77136 0.39687 0.02764 -0.40500
C 	C 	0.76371 0.43422 0.01434 0.37900
C 	C 	0.81003 0.48256 0.98820 -0.11600
C 	C 	0.80960 0.52890 0.97890 0.04400
H 	H 	0.77890 0.53020 0.98600 0.03000
C 	C 	0.85420 0.57410 0.95910 -0.10700
H 	H 	0.85260 0.60490 0.95360 0.07700
C 	C 	0.90030 0.57430 0.94770 0.04500
C 	C 	0.89830 0.52510 0.95070 -0.10700
H 	H 	0.92730 0.52240 0.93890 0.06700
C 	C 	0.85410 0.48070 0.97080 0.04300
H 	H 	0.85400 0.44870 0.97280 0.03200
C 	C 	0.95030 0.62270 0.93100 0.07400
C 	C 	0.99760 0.62190 0.93170 -0.11400
H 	H 	0.99780 0.59130 0.94230 0.07000
C 	C 	0.14440 0.71350 0.91460 -0.13900
H 	H 	0.14540 0.74600 0.91360 0.07700
C 	C 	0.19090 0.71170 0.91410 0.08900
H 	H 	0.22280 0.74360 0.91190 0.00700
O 	O 	0.38848 0.76883 0.35417 -0.40800
O 	O 	0.43803 0.73020 0.36097 -0.40500
C 	C 	0.43038 0.76755 0.34767 0.37800
C 	C 	0.47670 0.81589 0.32153 -0.11500
C 	C 	0.47627 0.86223 0.31223 0.04300
H 	H 	0.44557 0.86353 0.31933 0.03100
C 	C 	0.52087 0.90743 0.29243 -0.10600
H 	H 	0.51927 0.93823 0.28693 0.07800
C 	C 	0.56697 0.90763 0.28103 0.04300
C 	C 	0.56497 0.85843 0.28403 -0.10500
H 	H 	0.59397 0.85573 0.27223 0.06600
C 	C 	0.52077 0.81403 0.30413 0.04200
H 	H 	0.52067 0.78203 0.30613 0.03200
C 	C 	0.61697 0.95603 0.26433 0.07800
C 	C 	0.66427 0.95523 0.26503 -0.11500
H 	H 	0.66447 0.92463 0.27563 0.06900
C 	C 	0.81107 0.04683 0.24793 -0.13600
H 	H 	0.81207 0.07933 0.24693 0.07600
C 	C 	0.85757 0.04503 0.24743 0.08600
H 	H 	0.88947 0.07693 0.24523 0.00800
O 	O 	0.05514 0.10217 0.68751 -0.40900
O 	O 	0.10469 0.06354 0.69431 -0.40600
C 	C 	0.09704 0.10089 0.68101 0.37900
C 	C 	0.14336 0.14923 0.65487 -0.11600
C 	C 	0.14293 0.19557 0.64557 0.04300
H 	H 	0.11223 0.19687 0.65267 0.03000
C 	C 	0.18753 0.24077 0.62577 -0.10700
H 	H 	0.18593 0.27157 0.62027 0.07600
C 	C 	0.23363 0.24097 0.61437 0.04300
C 	C 	0.23163 0.19177 0.61737 -0.10600
H 	H 	0.26063 0.18907 0.60557 0.06600
C 	C 	0.18743 0.14737 0.63747 0.04200
H 	H 	0.18733 0.11537 0.63947 0.03100
C 	C 	0.28363 0.28937 0.59767 0.07500
C 	C 	0.33093 0.28857 0.59837 -0.12300
H 	H 	0.33113 0.25797 0.60897 0.07100
C 	C 	0.47773 0.38017 0.58127 -0.13800
H 	H 	0.47873 0.41267 0.58027 0.07700
C 	C 	0.52423 0.37837 0.58077 0.08800
H 	H 	0.55613 0.41027 0.57857 0.00700
O 	O 	0.28631 0.56450 0.47916 -0.40800
O 	O 	0.37449 0.60313 0.47236 -0.40500
C 	C 	0.32949 0.56578 0.48566 0.37800
C 	C 	0.32747 0.51744 0.51180 -0.11500
C 	C 	0.28070 0.47110 0.52110 0.04300
H 	H 	0.24870 0.46980 0.51400 0.03000
C 	C 	0.28010 0.42590 0.54090 -0.10600
H 	H 	0.24770 0.39510 0.54640 0.07600
C 	C 	0.32600 0.42570 0.55230 0.04300
C 	C 	0.37320 0.47490 0.54930 -0.10500
H 	H 	0.40490 0.47760 0.56110 0.06600
C 	C 	0.37340 0.51930 0.52920 0.04200
H 	H 	0.40530 0.55130 0.52720 0.03200
C 	C 	0.32760 0.37730 0.56900 0.07600
C 	C 	0.37570 0.37810 0.56830 -0.12300
H 	H 	0.40650 0.40870 0.55770 0.07100
C 	C 	0.43090 0.28650 0.58540 -0.13800
H 	H 	0.39940 0.25400 0.58640 0.07700
C 	C 	0.47920 0.28830 0.58590 0.08800
H 	H 	0.47920 0.25640 0.58810 0.00700
O 	O 	0.95298 0.89783 0.81249 -0.40700
O 	O 	0.04116 0.93646 0.80569 -0.40800
C 	C 	0.99616 0.89911 0.81899 0.38400
C 	C 	0.99414 0.85077 0.84513 -0.10900
C 	C 	0.94737 0.80443 0.85443 0.04200
H 	H 	0.91537 0.80313 0.84733 0.03100
C 	C 	0.94677 0.75923 0.87423 -0.10600
H 	H 	0.91437 0.72843 0.87973 0.07600
C 	C 	0.99267 0.75903 0.88563 0.04800
C 	C 	0.03987 0.80823 0.88263 -0.11000
H 	H 	0.07157 0.81093 0.89443 0.06700
C 	C 	0.04007 0.85263 0.86253 0.03600
H 	H 	0.07197 0.88463 0.86053 0.03400
C 	C 	0.99427 0.71063 0.90233 0.08100
C 	C 	0.04237 0.71143 0.90163 -0.12900
H 	H 	0.07317 0.74203 0.89103 0.07200
C 	C 	0.09757 0.61983 0.91873 -0.13900
H 	H 	0.06607 0.58733 0.91973 0.07600
C 	C 	0.14587 0.62163 0.91923 0.08800
H 	H 	0.14587 0.58973 0.92143 0.00700
O 	O 	0.61964 0.23117 0.14583 -0.40800
O 	O 	0.70782 0.26980 0.13903 -0.40500
C 	C 	0.66282 0.23245 0.15233 0.37800
C 	C 	0.66080 0.18411 0.17847 -0.11500
C 	C 	0.61403 0.13777 0.18777 0.04300
H 	H 	0.58203 0.13647 0.18067 0.03000
C 	C 	0.61343 0.09257 0.20757 -0.10600
H 	H 	0.58103 0.06177 0.21307 0.07500
C 	C 	0.65933 0.09237 0.21897 0.04300
C 	C 	0.70653 0.14157 0.21597 -0.10600
H 	H 	0.73823 0.14427 0.22777 0.06600
C 	C 	0.70673 0.18597 0.19587 0.04200
H 	H 	0.73863 0.21797 0.19387 0.03200
C 	C 	0.66093 0.04397 0.23567 0.07400
C 	C 	0.70903 0.04477 0.23497 -0.12100
H 	H 	0.73983 0.07537 0.22437 0.07000
C 	C 	0.76423 0.95317 0.25207 -0.13100
H 	H 	0.73273 0.92067 0.25307 0.07600
C 	C 	0.81253 0.95497 0.25257 0.09200
H 	H 	0.81253 0.92307 0.25477 0.00700
O 	O 	0.27819 0.71369 0.47916 -0.40800
O 	O 	0.22864 0.62551 0.47236 -0.40500
C 	C 	0.23629 0.67051 0.48566 0.37800
C 	C 	0.18997 0.67253 0.51180 -0.11400
C 	C 	0.19040 0.71930 0.52110 0.04200
H 	H 	0.22110 0.75130 0.51400 0.03100
C 	C 	0.14580 0.71990 0.54090 -0.10500
H 	H 	0.14740 0.75230 0.54640 0.07600
C 	C 	0.09970 0.67400 0.55230 0.04100
C 	C 	0.10170 0.62680 0.54930 -0.10400
H 	H 	0.07270 0.59510 0.56110 0.06500
C 	C 	0.14590 0.62660 0.52920 0.04100
H 	H 	0.14600 0.59470 0.52720 0.03200
C 	C 	0.04970 0.67240 0.56900 0.07800
C 	C 	0.00240 0.62430 0.56830 -0.13200
H 	H 	0.00220 0.59350 0.55770 0.07200
C 	C 	0.85560 0.56910 0.58540 -0.13700
H 	H 	0.85460 0.60060 0.58640 0.07700
C 	C 	0.80910 0.52080 0.58590 0.08800
H 	H 	0.77720 0.52080 0.58810 0.00800
O 	O 	0.94486 0.04702 0.81249 -0.40400
O 	O 	0.89531 0.95884 0.80569 -0.39900
C 	C 	0.90296 0.00384 0.81899 0.37200
C 	C 	0.85664 0.00586 0.84513 -0.12000
C 	C 	0.85707 0.05263 0.85443 0.04300
H 	H 	0.88777 0.08463 0.84733 0.03100
C 	C 	0.81247 0.05323 0.87423 -0.10500
H 	H 	0.81407 0.08563 0.87973 0.07600
C 	C 	0.76637 0.00733 0.88563 0.03800
C 	C 	0.76837 0.96013 0.88263 -0.10000
H 	H 	0.73937 0.92843 0.89443 0.06500
C 	C 	0.81257 0.95993 0.86253 0.04800
H 	H 	0.81267 0.92803 0.86053 0.03100
C 	C 	0.71637 0.00573 0.90233 0.07100
C 	C 	0.66907 0.95763 0.90163 -0.11700
H 	H 	0.66887 0.92683 0.89103 0.07000
C 	C 	0.52227 0.90243 0.91873 -0.13700
H 	H 	0.52127 0.93393 0.91973 0.07800
C 	C 	0.47577 0.85413 0.91923 0.08800
H 	H 	0.44387 0.85413 0.92143 0.00800
O 	O 	0.61152 0.38036 0.14583 -0.40800
O 	O 	0.56197 0.29218 0.13903 -0.40500
C 	C 	0.56962 0.33718 0.15233 0.37800
C 	C 	0.52330 0.33920 0.17847 -0.11500
C 	C 	0.52373 0.38597 0.18777 0.04300
H 	H 	0.55443 0.41797 0.18067 0.03000
C 	C 	0.47913 0.38657 0.20757 -0.10600
H 	H 	0.48073 0.41897 0.21307 0.07600
C 	C 	0.43303 0.34067 0.21897 0.04300
C 	C 	0.43503 0.29347 0.21597 -0.10500
H 	H 	0.40603 0.26177 0.22777 0.06600
C 	C 	0.47923 0.29327 0.19587 0.04200
H 	H 	0.47933 0.26137 0.19387 0.03200
C 	C 	0.38303 0.33907 0.23567 0.07600
C 	C 	0.33573 0.29097 0.23497 -0.12300
H 	H 	0.33553 0.26017 0.22437 0.07100
C 	C 	0.18893 0.23577 0.25207 -0.13800
H 	H 	0.18793 0.26727 0.25307 0.07700
C 	C 	0.14243 0.18747 0.25257 0.08800
H 	H 	0.11053 0.18747 0.25477 0.00700
O 	O 	0.43550 0.72181 0.47916 -0.40800
O 	O 	0.39687 0.77136 0.47236 -0.40500
C 	C 	0.43422 0.76371 0.48566 0.37900
C 	C 	0.48256 0.81003 0.51180 -0.11600
C 	C 	0.52890 0.80960 0.52110 0.04400
H 	H 	0.53020 0.77890 0.51400 0.03000
C 	C 	0.57410 0.85420 0.54090 -0.10700
H 	H 	0.60490 0.85260 0.54640 0.07700
C 	C 	0.57430 0.90030 0.55230 0.04500
C 	C 	0.52510 0.89830 0.54930 -0.10700
H 	H 	0.52240 0.92730 0.56110 0.06700
C 	C 	0.48070 0.85410 0.52920 0.04300
H 	H 	0.44870 0.85400 0.52720 0.03200
C 	C 	0.62270 0.95030 0.56900 0.07400
C 	C 	0.62190 0.99760 0.56830 -0.11400
H 	H 	0.59130 0.99780 0.55770 0.07000
C 	C 	0.71350 0.14440 0.58540 -0.13900
H 	H 	0.74600 0.14540 0.58640 0.07700
C 	C 	0.71170 0.19090 0.58590 0.08900
H 	H 	0.74360 0.22280 0.58810 0.00700
O 	O 	0.10217 0.05514 0.81249 -0.40900
O 	O 	0.06354 0.10469 0.80569 -0.40600
C 	C 	0.10089 0.09704 0.81899 0.37900
C 	C 	0.14923 0.14336 0.84513 -0.11600
C 	C 	0.19557 0.14293 0.85443 0.04300
H 	H 	0.19687 0.11223 0.84733 0.03000
C 	C 	0.24077 0.18753 0.87423 -0.10700
H 	H 	0.27157 0.18593 0.87973 0.07600
C 	C 	0.24097 0.23363 0.88563 0.04300
C 	C 	0.19177 0.23163 0.88263 -0.10600
H 	H 	0.18907 0.26063 0.89443 0.06600
C 	C 	0.14737 0.18743 0.86253 0.04200
H 	H 	0.11537 0.18733 0.86053 0.03100
C 	C 	0.28937 0.28363 0.90233 0.07500
C 	C 	0.28857 0.33093 0.90163 -0.12300
H 	H 	0.25797 0.33113 0.89103 0.07100
C 	C 	0.38017 0.47773 0.91873 -0.13800
H 	H 	0.41267 0.47873 0.91973 0.07700
C 	C 	0.37837 0.52423 0.91923 0.08800
H 	H 	0.41027 0.55613 0.92143 0.00700
O 	O 	0.76883 0.38848 0.14583 -0.40800
O 	O 	0.73020 0.43803 0.13903 -0.40500
C 	C 	0.76755 0.43038 0.15233 0.37800
C 	C 	0.81589 0.47670 0.17847 -0.11500
C 	C 	0.86223 0.47627 0.18777 0.04300
H 	H 	0.86353 0.44557 0.18067 0.03100
C 	C 	0.90743 0.52087 0.20757 -0.10600
H 	H 	0.93823 0.51927 0.21307 0.07800
C 	C 	0.90763 0.56697 0.21897 0.04300
C 	C 	0.85843 0.56497 0.21597 -0.10500
H 	H 	0.85573 0.59397 0.22777 0.06600
C 	C 	0.81403 0.52077 0.19587 0.04200
H 	H 	0.78203 0.52067 0.19387 0.03200
C 	C 	0.95603 0.61697 0.23567 0.07800
C 	C 	0.95523 0.66427 0.23497 -0.11500
H 	H 	0.92463 0.66447 0.22437 0.06900
C 	C 	0.04683 0.81107 0.25207 -0.13600
H 	H 	0.07933 0.81207 0.25307 0.07600
C 	C 	0.04503 0.85757 0.25257 0.08600
H 	H 	0.07693 0.88947 0.25477 0.00800
Ni	Ni	0.66667 0.40224 0.08333 1.12300
N 	N 	0.66667 0.47403 0.08333 -0.21200
N 	N 	0.66667 0.71845 0.08333 -0.12900
C 	C 	0.66667 0.62188 0.08333 0.04900
C 	C 	0.66667 0.57048 0.08333 0.06500
Ni	Ni	0.59776 0.26442 0.08333 1.12300
N 	N 	0.52597 0.19263 0.08333 -0.21200
N 	N 	0.28155 0.94821 0.08333 -0.12900
C 	C 	0.37812 0.04478 0.08333 0.04300
C 	C 	0.42952 0.09618 0.08333 0.06600
Ni	Ni	0.73558 0.33333 0.08333 1.12300
N 	N 	0.80737 0.33333 0.08333 -0.21100
N 	N 	0.05179 0.33333 0.08333 -0.12900
C 	C 	0.95522 0.33333 0.08333 0.05500
C 	C 	0.90382 0.33333 0.08333 0.06400
Ni	Ni	0.40224 0.66667 0.41667 1.12300
N 	N 	0.47403 0.66667 0.41667 -0.21200
N 	N 	0.71845 0.66667 0.41667 -0.12900
C 	C 	0.62188 0.66667 0.41667 0.04900
C 	C 	0.57048 0.66667 0.41667 0.06500
Ni	Ni	0.06891 -0.00000 0.75000 1.12100
N 	N 	0.14070 -0.00000 0.75000 -0.21500
N 	N 	0.38512 -0.00000 0.75000 -0.13200
C 	C 	0.28855 -0.00000 0.75000 0.04300
C 	C 	0.23715 -0.00000 0.75000 0.05900
Ni	Ni	0.26442 0.59776 0.41667 1.12300
N 	N 	0.19263 0.52597 0.41667 -0.21200
N 	N 	0.94821 0.28155 0.41667 -0.12900
C 	C 	0.04478 0.37812 0.41667 0.04300
C 	C 	0.09618 0.42952 0.41667 0.06600
Ni	Ni	0.93109 0.93109 0.75000 1.12500
N 	N 	0.85930 0.85930 0.75000 -0.21200
N 	N 	0.61488 0.61488 0.75000 -0.12900
C 	C 	0.71145 0.71145 0.75000 0.04900
C 	C 	0.76285 0.76285 0.75000 0.06500
Ni	Ni	0.33333 0.73558 0.41667 1.12300
N 	N 	0.33333 0.80737 0.41667 -0.21100
N 	N 	0.33333 0.05179 0.41667 -0.12900
C 	C 	0.33333 0.95522 0.41667 0.05500
C 	C 	0.33333 0.90382 0.41667 0.06400
Ni	Ni	0.00000 0.06891 0.75000 1.12100
N 	N 	0.00000 0.14070 0.75000 -0.21500
N 	N 	-0.00000 0.38512 0.75000 -0.13200
C 	C 	-0.00000 0.28855 0.75000 0.04300
C 	C 	0.00000 0.23715 0.75000 0.05900
Ni	Ni	0.33333 0.59776 0.91667 1.12300
N 	N 	0.33333 0.52597 0.91667 -0.21200
N 	N 	0.33333 0.28155 0.91667 -0.12900
C 	C 	0.33333 0.37812 0.91667 0.04900
C 	C 	0.33333 0.42952 0.91667 0.06500
Ni	Ni	-0.00000 0.93109 0.25000 1.12200
N 	N 	-0.00000 0.85930 0.25000 -0.21500
N 	N 	-0.00000 0.61488 0.25000 -0.13200
C 	C 	0.00000 0.71145 0.25000 0.04300
C 	C 	0.00000 0.76285 0.25000 0.05900
Ni	Ni	0.40224 0.73558 0.91667 1.12300
N 	N 	0.47403 0.80737 0.91667 -0.21100
N 	N 	0.71845 0.05179 0.91667 -0.12900
C 	C 	0.62188 0.95522 0.91667 0.05500
C 	C 	0.57048 0.90382 0.91667 0.06400
Ni	Ni	0.06891 0.06891 0.25000 1.12300
N 	N 	0.14070 0.14070 0.25000 -0.21200
N 	N 	0.38512 0.38512 0.25000 -0.12900
C 	C 	0.28855 0.28855 0.25000 0.04900
C 	C 	0.23715 0.23715 0.25000 0.06500
Ni	Ni	0.26442 0.66667 0.91667 1.12300
N 	N 	0.19263 0.66667 0.91667 -0.21200
N 	N 	0.94821 0.66667 0.91667 -0.12900
C 	C 	0.04478 0.66667 0.91667 0.04300
C 	C 	0.09618 0.66667 0.91667 0.06600
Ni	Ni	0.93109 -0.00000 0.25000 1.12200
N 	N 	0.85930 -0.00000 0.25000 -0.21500
N 	N 	0.61488 -0.00000 0.25000 -0.13200
C 	C 	0.71145 -0.00000 0.25000 0.04300
C 	C 	0.76285 -0.00000 0.25000 0.05900
Ni	Ni	0.59776 0.33333 0.58333 1.12300
N 	N 	0.52597 0.33333 0.58333 -0.21200
N 	N 	0.28155 0.33333 0.58333 -0.12900
C 	C 	0.37812 0.33333 0.58333 0.04900
C 	C 	0.42952 0.33333 0.58333 0.06500
Ni	Ni	0.73558 0.40224 0.58333 1.12300
N 	N 	0.80737 0.47403 0.58333 -0.21100
N 	N 	0.05179 0.71845 0.58333 -0.12900
C 	C 	0.95522 0.62188 0.58333 0.05500
C 	C 	0.90382 0.57048 0.58333 0.06400
Ni	Ni	0.66667 0.26442 0.58333 1.12300
N 	N 	0.66667 0.19263 0.58333 -0.21200
N 	N 	0.66667 0.94821 0.58333 -0.12900
C 	C 	0.66667 0.04478 0.58333 0.04300
C 	C 	0.66667 0.09618 0.58333 0.06600
O 	O 	0.66667 0.33333 0.08333 -0.74200
O 	O 	0.00000 -0.00000 0.75000 -0.74400
O 	O 	0.33333 0.66667 0.41667 -0.74200
O 	O 	0.33333 0.66667 0.91667 -0.74200
O 	O 	-0.00000 -0.00000 0.25000 -0.74400
O 	O 	0.66667 0.33333 0.58333 -0.74200
H 	H 	0.66667 0.33333 0.12330 0.13800
H 	H 	0.33333 0.66667 0.45663 0.13800
H 	H 	-0.00000 0.00000 0.78997 0.13500
H 	H 	0.33333 0.66667 0.37670 0.13800
H 	H 	-0.00000 0.00000 0.71003 0.13500
H 	H 	0.66667 0.33333 0.04337 0.13800
H 	H 	0.33333 0.66667 0.87670 0.13800
H 	H 	-0.00000 -0.00000 0.21003 0.13500
H 	H 	0.66667 0.33333 0.54337 0.13800
H 	H 	0.66667 0.33333 0.62330 0.13800
H 	H 	0.33333 0.66667 0.95663 0.13800
H 	H 	-0.00000 0.00000 0.28997 0.13500
