data_crystal

_cell_length_a 29.10600
_cell_length_b 29.10600
_cell_length_c 23.41700
_cell_angle_alpha 90.00000
_cell_angle_beta  90.00000
_cell_angle_gamma 120.00000

_symmetry_space_group_name_	'P 1'
_symmetry_space_group_name_H-M	'P 1'

loop_
_symmetry_equiv_pos_as_xyz
  x,y,z

loop_
_atom_site_label
_atom_site_type_symbol
_atom_site_fract_x
_atom_site_fract_y
_atom_site_fract_z
_atom_site_charge
O 	O 	0.43417 0.71387 0.98300 -0.40000
O 	O 	0.39681 0.62572 0.97310 -0.40800
C 	C 	0.43360 0.67030 0.98830 0.36600
C 	C 	0.48230 0.67260 0.01430 -0.10500
C 	C 	0.52930 0.71930 0.02100 0.03000
H 	H 	0.53100 0.75190 0.01220 0.03300
C 	C 	0.57480 0.71940 0.04080 -0.09000
H 	H 	0.60700 0.75220 0.04500 0.06900
C 	C 	0.57370 0.67320 0.05420 0.03400
C 	C 	0.52480 0.62640 0.05220 -0.09100
H 	H 	0.52210 0.59420 0.06500 0.06000
C 	C 	0.48000 0.62600 0.03170 0.03000
H 	H 	0.44740 0.59350 0.02960 0.03600
C 	C 	0.62250 0.67170 0.06980 0.07600
C 	C 	0.62190 0.62330 0.06870 -0.11800
H 	H 	0.59050 0.59170 0.05800 0.06700
C 	C 	0.71340 0.56840 0.08670 -0.12200
H 	H 	0.74650 0.60050 0.08910 0.06900
C 	C 	0.71170 0.52010 0.08660 0.07900
H 	H 	0.74420 0.51990 0.08910 0.01100
O 	O 	0.10084 0.04720 0.31633 -0.39900
O 	O 	0.06348 0.95905 0.30643 -0.40200
C 	C 	0.10027 0.00363 0.32163 0.36100
C 	C 	0.14897 0.00593 0.34763 -0.11000
C 	C 	0.19597 0.05263 0.35433 0.03100
H 	H 	0.19767 0.08523 0.34553 0.03300
C 	C 	0.24147 0.05273 0.37413 -0.09000
H 	H 	0.27367 0.08553 0.37833 0.06900
C 	C 	0.24037 0.00653 0.38753 0.02900
C 	C 	0.19147 0.95973 0.38553 -0.08600
H 	H 	0.18877 0.92753 0.39833 0.05900
C 	C 	0.14667 0.95933 0.36503 0.03600
H 	H 	0.11407 0.92683 0.36293 0.03400
C 	C 	0.28917 0.00503 0.40313 0.07100
C 	C 	0.28857 0.95663 0.40203 -0.11300
H 	H 	0.25717 0.92503 0.39133 0.06600
C 	C 	0.38007 0.90173 0.42003 -0.12100
H 	H 	0.41317 0.93383 0.42243 0.07000
C 	C 	0.37837 0.85343 0.41993 0.07900
H 	H 	0.41087 0.85323 0.42243 0.01100
O 	O 	0.76750 0.38054 0.64967 -0.39900
O 	O 	0.73014 0.29239 0.63977 -0.40700
C 	C 	0.76693 0.33697 0.65497 0.36700
C 	C 	0.81563 0.33927 0.68097 -0.10400
C 	C 	0.86263 0.38597 0.68767 0.03100
H 	H 	0.86433 0.41857 0.67887 0.03400
C 	C 	0.90813 0.38607 0.70747 -0.09000
H 	H 	0.94033 0.41887 0.71167 0.07100
C 	C 	0.90703 0.33987 0.72087 0.03400
C 	C 	0.85813 0.29307 0.71887 -0.09100
H 	H 	0.85543 0.26087 0.73167 0.06000
C 	C 	0.81333 0.29267 0.69837 0.03000
H 	H 	0.78073 0.26017 0.69627 0.03600
C 	C 	0.95583 0.33837 0.73647 0.07900
C 	C 	0.95523 0.28997 0.73537 -0.11000
H 	H 	0.92383 0.25837 0.72467 0.06600
C 	C 	0.04673 0.23507 0.75337 -0.12100
H 	H 	0.07983 0.26717 0.75577 0.06900
C 	C 	0.04503 0.18677 0.75327 0.07700
H 	H 	0.07753 0.18657 0.75577 0.01100
O 	O 	0.28613 0.72030 0.98300 -0.39900
O 	O 	0.37428 0.77109 0.97310 -0.40700
C 	C 	0.32970 0.76330 0.98830 0.36700
C 	C 	0.32740 0.80970 0.01430 -0.10500
C 	C 	0.28070 0.81000 0.02100 0.03200
H 	H 	0.24810 0.77910 0.01220 0.03300
C 	C 	0.28060 0.85540 0.04080 -0.09100
H 	H 	0.24780 0.85480 0.04500 0.07000
C 	C 	0.32680 0.90050 0.05420 0.03500
C 	C 	0.37360 0.89840 0.05220 -0.09200
H 	H 	0.40580 0.92790 0.06500 0.06100
C 	C 	0.37400 0.85400 0.03170 0.03100
H 	H 	0.40650 0.85390 0.02960 0.03600
C 	C 	0.32830 0.95080 0.06980 0.07400
C 	C 	0.37670 0.99860 0.06870 -0.10900
H 	H 	0.40830 0.99880 0.05800 0.06600
C 	C 	0.43160 0.14500 0.08670 -0.12300
H 	H 	0.39950 0.14600 0.08910 0.06900
C 	C 	0.47990 0.19160 0.08660 0.07900
H 	H 	0.48010 0.22430 0.08910 0.01000
O 	O 	0.95280 0.05363 0.31633 -0.40100
O 	O 	0.04095 0.10442 0.30643 -0.41200
C 	C 	0.99637 0.09663 0.32163 0.37300
C 	C 	0.99407 0.14303 0.34763 -0.10000
C 	C 	0.94737 0.14333 0.35433 0.03100
H 	H 	0.91477 0.11243 0.34553 0.03300
C 	C 	0.94727 0.18873 0.37413 -0.09100
H 	H 	0.91447 0.18813 0.37833 0.07000
C 	C 	0.99347 0.23383 0.38753 0.03900
C 	C 	0.04027 0.23173 0.38553 -0.09700
H 	H 	0.07247 0.26123 0.39833 0.06100
C 	C 	0.04067 0.18733 0.36503 0.02500
H 	H 	0.07317 0.18723 0.36293 0.03700
C 	C 	0.99497 0.28413 0.40313 0.08100
C 	C 	0.04337 0.33193 0.40203 -0.12200
H 	H 	0.07497 0.33213 0.39133 0.06800
C 	C 	0.09827 0.47833 0.42003 -0.12400
H 	H 	0.06617 0.47933 0.42243 0.06800
C 	C 	0.14657 0.52493 0.41993 0.07900
H 	H 	0.14677 0.55763 0.42243 0.01000
O 	O 	0.61946 0.38697 0.64967 -0.39900
O 	O 	0.70761 0.43776 0.63977 -0.40600
C 	C 	0.66303 0.42997 0.65497 0.36700
C 	C 	0.66073 0.47637 0.68097 -0.10400
C 	C 	0.61403 0.47667 0.68767 0.03100
H 	H 	0.58143 0.44577 0.67887 0.03400
C 	C 	0.61393 0.52207 0.70747 -0.09000
H 	H 	0.58113 0.52147 0.71167 0.06900
C 	C 	0.66013 0.56717 0.72087 0.03400
C 	C 	0.70693 0.56507 0.71887 -0.09100
H 	H 	0.73913 0.59457 0.73167 0.06000
C 	C 	0.70733 0.52067 0.69837 0.03000
H 	H 	0.73983 0.52057 0.69627 0.03600
C 	C 	0.66163 0.61747 0.73647 0.07600
C 	C 	0.71003 0.66527 0.73537 -0.11800
H 	H 	0.74163 0.66547 0.72467 0.06700
C 	C 	0.76493 0.81167 0.75337 -0.12200
H 	H 	0.73283 0.81267 0.75577 0.06900
C 	C 	0.81323 0.85827 0.75327 0.07900
H 	H 	0.81343 0.89097 0.75577 0.01100
O 	O 	0.27970 0.56583 0.98300 -0.39900
O 	O 	0.22891 0.60319 0.97310 -0.40700
C 	C 	0.23670 0.56640 0.98830 0.36600
C 	C 	0.19030 0.51770 0.01430 -0.10400
C 	C 	0.19000 0.47070 0.02100 0.03000
H 	H 	0.22090 0.46900 0.01220 0.03400
C 	C 	0.14460 0.42520 0.04080 -0.08900
H 	H 	0.14520 0.39300 0.04500 0.06900
C 	C 	0.09950 0.42630 0.05420 0.03200
C 	C 	0.10160 0.47520 0.05220 -0.09100
H 	H 	0.07210 0.47790 0.06500 0.05900
C 	C 	0.14600 0.52000 0.03170 0.02900
H 	H 	0.14610 0.55260 0.02960 0.03600
C 	C 	0.04920 0.37750 0.06980 0.07800
C 	C 	0.00140 0.37810 0.06870 -0.12600
H 	H 	0.00120 0.40950 0.05800 0.06800
C 	C 	0.85500 0.28660 0.08670 -0.12100
H 	H 	0.85400 0.25350 0.08910 0.06900
C 	C 	0.80840 0.28830 0.08660 0.07900
H 	H 	0.77570 0.25580 0.08910 0.01100
O 	O 	0.94637 0.89916 0.31633 -0.39500
O 	O 	0.89558 0.93652 0.30643 -0.40300
C 	C 	0.90337 0.89973 0.32163 0.36600
C 	C 	0.85697 0.85103 0.34763 -0.10300
C 	C 	0.85667 0.80403 0.35433 0.03000
H 	H 	0.88757 0.80233 0.34553 0.03500
C 	C 	0.81127 0.75853 0.37413 -0.08900
H 	H 	0.81187 0.72633 0.37833 0.06900
C 	C 	0.76617 0.75963 0.38753 0.03300
C 	C 	0.76827 0.80853 0.38553 -0.09100
H 	H 	0.73877 0.81123 0.39833 0.06000
C 	C 	0.81267 0.85333 0.36503 0.03000
H 	H 	0.81277 0.88593 0.36293 0.03700
C 	C 	0.71587 0.71083 0.40313 0.07600
C 	C 	0.66807 0.71143 0.40203 -0.11800
H 	H 	0.66787 0.74283 0.39133 0.06700
C 	C 	0.52167 0.61993 0.42003 -0.12200
H 	H 	0.52067 0.58683 0.42243 0.06900
C 	C 	0.47507 0.62163 0.41993 0.07900
H 	H 	0.44237 0.58913 0.42243 0.01100
O 	O 	0.61303 0.23250 0.64967 -0.39900
O 	O 	0.56224 0.26986 0.63977 -0.40700
C 	C 	0.57003 0.23307 0.65497 0.36700
C 	C 	0.52363 0.18437 0.68097 -0.10400
C 	C 	0.52333 0.13737 0.68767 0.03100
H 	H 	0.55423 0.13567 0.67887 0.03400
C 	C 	0.47793 0.09187 0.70747 -0.09000
H 	H 	0.47853 0.05967 0.71167 0.06800
C 	C 	0.43283 0.09297 0.72087 0.03400
C 	C 	0.43493 0.14187 0.71887 -0.09200
H 	H 	0.40543 0.14457 0.73167 0.06000
C 	C 	0.47933 0.18667 0.69837 0.03000
H 	H 	0.47943 0.21927 0.69627 0.03600
C 	C 	0.38253 0.04417 0.73647 0.07400
C 	C 	0.33473 0.04477 0.73537 -0.11600
H 	H 	0.33453 0.07617 0.72467 0.06600
C 	C 	0.18833 0.95327 0.75337 -0.11600
H 	H 	0.18733 0.92017 0.75577 0.06800
C 	C 	0.14173 0.95497 0.75327 0.08300
H 	H 	0.10903 0.92247 0.75577 0.01000
O 	O 	0.71387 0.43417 0.51700 -0.39900
O 	O 	0.62572 0.39681 0.52690 -0.40700
C 	C 	0.67030 0.43360 0.51170 0.36700
C 	C 	0.67260 0.48230 0.48570 -0.10400
C 	C 	0.71930 0.52930 0.47900 0.03100
H 	H 	0.75190 0.53100 0.48780 0.03400
C 	C 	0.71940 0.57480 0.45920 -0.09000
H 	H 	0.75220 0.60700 0.45500 0.07000
C 	C 	0.67320 0.57370 0.44580 0.03400
C 	C 	0.62640 0.52480 0.44780 -0.09100
H 	H 	0.59420 0.52210 0.43500 0.06000
C 	C 	0.62600 0.48000 0.46830 0.03000
H 	H 	0.59350 0.44740 0.47040 0.03600
C 	C 	0.67170 0.62250 0.43020 0.07600
C 	C 	0.62330 0.62190 0.43130 -0.11800
H 	H 	0.59170 0.59050 0.44200 0.06700
C 	C 	0.56840 0.71340 0.41330 -0.12200
H 	H 	0.60050 0.74650 0.41090 0.06900
C 	C 	0.52010 0.71170 0.41340 0.07900
H 	H 	0.51990 0.74420 0.41090 0.01100
O 	O 	0.38054 0.76750 0.85033 -0.39900
O 	O 	0.29239 0.73014 0.86023 -0.40700
C 	C 	0.33697 0.76693 0.84503 0.36700
C 	C 	0.33927 0.81563 0.81903 -0.10400
C 	C 	0.38597 0.86263 0.81233 0.03100
H 	H 	0.41857 0.86433 0.82113 0.03400
C 	C 	0.38607 0.90813 0.79253 -0.09000
H 	H 	0.41887 0.94033 0.78833 0.07100
C 	C 	0.33987 0.90703 0.77913 0.03400
C 	C 	0.29307 0.85813 0.78113 -0.09100
H 	H 	0.26087 0.85543 0.76833 0.06000
C 	C 	0.29267 0.81333 0.80163 0.03000
H 	H 	0.26017 0.78073 0.80373 0.03600
C 	C 	0.33837 0.95583 0.76353 0.07900
C 	C 	0.28997 0.95523 0.76463 -0.11000
H 	H 	0.25837 0.92383 0.77533 0.06600
C 	C 	0.23507 0.04673 0.74663 -0.12100
H 	H 	0.26717 0.07983 0.74423 0.06900
C 	C 	0.18677 0.04503 0.74673 0.07700
H 	H 	0.18657 0.07753 0.74423 0.01100
O 	O 	0.04720 0.10084 0.18367 -0.39900
O 	O 	0.95905 0.06348 0.19357 -0.40200
C 	C 	0.00363 0.10027 0.17837 0.36100
C 	C 	0.00593 0.14897 0.15237 -0.11000
C 	C 	0.05263 0.19597 0.14567 0.03100
H 	H 	0.08523 0.19767 0.15447 0.03300
C 	C 	0.05273 0.24147 0.12587 -0.09000
H 	H 	0.08553 0.27367 0.12167 0.06900
C 	C 	0.00653 0.24037 0.11247 0.02900
C 	C 	0.95973 0.19147 0.11447 -0.08600
H 	H 	0.92753 0.18877 0.10167 0.05900
C 	C 	0.95933 0.14667 0.13497 0.03600
H 	H 	0.92683 0.11407 0.13707 0.03400
C 	C 	0.00503 0.28917 0.09687 0.07100
C 	C 	0.95663 0.28857 0.09797 -0.11300
H 	H 	0.92503 0.25717 0.10867 0.06600
C 	C 	0.90173 0.38007 0.07997 -0.12100
H 	H 	0.93383 0.41317 0.07757 0.07000
C 	C 	0.85343 0.37837 0.08007 0.07900
H 	H 	0.85323 0.41087 0.07757 0.01100
O 	O 	0.72030 0.28613 0.51700 -0.39900
O 	O 	0.77109 0.37428 0.52690 -0.40700
C 	C 	0.76330 0.32970 0.51170 0.36700
C 	C 	0.80970 0.32740 0.48570 -0.10500
C 	C 	0.81000 0.28070 0.47900 0.03200
H 	H 	0.77910 0.24810 0.48780 0.03300
C 	C 	0.85540 0.28060 0.45920 -0.09100
H 	H 	0.85480 0.24780 0.45500 0.07000
C 	C 	0.90050 0.32680 0.44580 0.03500
C 	C 	0.89840 0.37360 0.44780 -0.09200
H 	H 	0.92790 0.40580 0.43500 0.06100
C 	C 	0.85400 0.37400 0.46830 0.03100
H 	H 	0.85390 0.40650 0.47040 0.03600
C 	C 	0.95080 0.32830 0.43020 0.07400
C 	C 	0.99860 0.37670 0.43130 -0.10900
H 	H 	0.99880 0.40830 0.44200 0.06600
C 	C 	0.14500 0.43160 0.41330 -0.12300
H 	H 	0.14600 0.39950 0.41090 0.06900
C 	C 	0.19160 0.47990 0.41340 0.07900
H 	H 	0.22430 0.48010 0.41090 0.01000
O 	O 	0.38697 0.61946 0.85033 -0.39900
O 	O 	0.43776 0.70761 0.86023 -0.40600
C 	C 	0.42997 0.66303 0.84503 0.36700
C 	C 	0.47637 0.66073 0.81903 -0.10400
C 	C 	0.47667 0.61403 0.81233 0.03100
H 	H 	0.44577 0.58143 0.82113 0.03400
C 	C 	0.52207 0.61393 0.79253 -0.09000
H 	H 	0.52147 0.58113 0.78833 0.06900
C 	C 	0.56717 0.66013 0.77913 0.03400
C 	C 	0.56507 0.70693 0.78113 -0.09100
H 	H 	0.59457 0.73913 0.76833 0.06000
C 	C 	0.52067 0.70733 0.80163 0.03000
H 	H 	0.52057 0.73983 0.80373 0.03600
C 	C 	0.61747 0.66163 0.76353 0.07600
C 	C 	0.66527 0.71003 0.76463 -0.11800
H 	H 	0.66547 0.74163 0.77533 0.06700
C 	C 	0.81167 0.76493 0.74663 -0.12200
H 	H 	0.81267 0.73283 0.74423 0.06900
C 	C 	0.85827 0.81323 0.74673 0.07900
H 	H 	0.89097 0.81343 0.74423 0.01100
O 	O 	0.05363 0.95280 0.18367 -0.40100
O 	O 	0.10442 0.04095 0.19357 -0.41200
C 	C 	0.09663 0.99637 0.17837 0.37300
C 	C 	0.14303 0.99407 0.15237 -0.10000
C 	C 	0.14333 0.94737 0.14567 0.03100
H 	H 	0.11243 0.91477 0.15447 0.03300
C 	C 	0.18873 0.94727 0.12587 -0.09100
H 	H 	0.18813 0.91447 0.12167 0.07000
C 	C 	0.23383 0.99347 0.11247 0.03900
C 	C 	0.23173 0.04027 0.11447 -0.09700
H 	H 	0.26123 0.07247 0.10167 0.06100
C 	C 	0.18733 0.04067 0.13497 0.02500
H 	H 	0.18723 0.07317 0.13707 0.03700
C 	C 	0.28413 0.99497 0.09687 0.08100
C 	C 	0.33193 0.04337 0.09797 -0.12200
H 	H 	0.33213 0.07497 0.10867 0.06800
C 	C 	0.47833 0.09827 0.07997 -0.12400
H 	H 	0.47933 0.06617 0.07757 0.06800
C 	C 	0.52493 0.14657 0.08007 0.07900
H 	H 	0.55763 0.14677 0.07757 0.01000
O 	O 	0.56583 0.27970 0.51700 -0.39900
O 	O 	0.60319 0.22891 0.52690 -0.40700
C 	C 	0.56640 0.23670 0.51170 0.36700
C 	C 	0.51770 0.19030 0.48570 -0.10400
C 	C 	0.47070 0.19000 0.47900 0.03000
H 	H 	0.46900 0.22090 0.48780 0.03400
C 	C 	0.42520 0.14460 0.45920 -0.08900
H 	H 	0.39300 0.14520 0.45500 0.06900
C 	C 	0.42630 0.09950 0.44580 0.03200
C 	C 	0.47520 0.10160 0.44780 -0.09100
H 	H 	0.47790 0.07210 0.43500 0.05900
C 	C 	0.52000 0.14600 0.46830 0.02900
H 	H 	0.55260 0.14610 0.47040 0.03600
C 	C 	0.37750 0.04920 0.43020 0.07800
C 	C 	0.37810 0.00140 0.43130 -0.12600
H 	H 	0.40950 0.00120 0.44200 0.06800
C 	C 	0.28660 0.85500 0.41330 -0.12100
H 	H 	0.25350 0.85400 0.41090 0.06900
C 	C 	0.28830 0.80840 0.41340 0.07900
H 	H 	0.25580 0.77570 0.41090 0.01100
O 	O 	0.23250 0.61303 0.85033 -0.39900
O 	O 	0.26986 0.56224 0.86023 -0.40700
C 	C 	0.23307 0.57003 0.84503 0.36700
C 	C 	0.18437 0.52363 0.81903 -0.10400
C 	C 	0.13737 0.52333 0.81233 0.03100
H 	H 	0.13567 0.55423 0.82113 0.03400
C 	C 	0.09187 0.47793 0.79253 -0.09000
H 	H 	0.05967 0.47853 0.78833 0.06800
C 	C 	0.09297 0.43283 0.77913 0.03400
C 	C 	0.14187 0.43493 0.78113 -0.09200
H 	H 	0.14457 0.40543 0.76833 0.06000
C 	C 	0.18667 0.47933 0.80163 0.03000
H 	H 	0.21927 0.47943 0.80373 0.03600
C 	C 	0.04417 0.38253 0.76353 0.07400
C 	C 	0.04477 0.33473 0.76463 -0.11600
H 	H 	0.07617 0.33453 0.77533 0.06600
C 	C 	0.95327 0.18833 0.74663 -0.11600
H 	H 	0.92017 0.18733 0.74423 0.06800
C 	C 	0.95497 0.14173 0.74673 0.08300
H 	H 	0.92247 0.10903 0.74423 0.01000
O 	O 	0.89916 0.94637 0.18367 -0.39500
O 	O 	0.93652 0.89558 0.19357 -0.40300
C 	C 	0.89973 0.90337 0.17837 0.36600
C 	C 	0.85103 0.85697 0.15237 -0.10300
C 	C 	0.80403 0.85667 0.14567 0.03000
H 	H 	0.80233 0.88757 0.15447 0.03500
C 	C 	0.75853 0.81127 0.12587 -0.08900
H 	H 	0.72633 0.81187 0.12167 0.06900
C 	C 	0.75963 0.76617 0.11247 0.03300
C 	C 	0.80853 0.76827 0.11447 -0.09100
H 	H 	0.81123 0.73877 0.10167 0.06000
C 	C 	0.85333 0.81267 0.13497 0.03000
H 	H 	0.88593 0.81277 0.13707 0.03700
C 	C 	0.71083 0.71587 0.09687 0.07600
C 	C 	0.71143 0.66807 0.09797 -0.11800
H 	H 	0.74283 0.66787 0.10867 0.06700
C 	C 	0.61993 0.52167 0.07997 -0.12200
H 	H 	0.58683 0.52067 0.07757 0.06900
C 	C 	0.62163 0.47507 0.08007 0.07900
H 	H 	0.58913 0.44237 0.07757 0.01100
O 	O 	0.56583 0.28613 0.01700 -0.39900
O 	O 	0.60319 0.37428 0.02690 -0.40700
C 	C 	0.56640 0.32970 0.01170 0.36700
C 	C 	0.51770 0.32740 0.98570 -0.10500
C 	C 	0.47070 0.28070 0.97900 0.03100
H 	H 	0.46900 0.24810 0.98780 0.03400
C 	C 	0.42520 0.28060 0.95920 -0.09000
H 	H 	0.39300 0.24780 0.95500 0.06900
C 	C 	0.42630 0.32680 0.94580 0.03400
C 	C 	0.47520 0.37360 0.94780 -0.09100
H 	H 	0.47790 0.40580 0.93500 0.06000
C 	C 	0.52000 0.37400 0.96830 0.03000
H 	H 	0.55260 0.40650 0.97040 0.03600
C 	C 	0.37750 0.32830 0.93020 0.07600
C 	C 	0.37810 0.37670 0.93130 -0.11800
H 	H 	0.40950 0.40830 0.94200 0.06700
C 	C 	0.28660 0.43160 0.91330 -0.12200
H 	H 	0.25350 0.39950 0.91090 0.06900
C 	C 	0.28830 0.47990 0.91340 0.07900
H 	H 	0.25580 0.48010 0.91090 0.01000
O 	O 	0.23250 0.61946 0.35033 -0.39900
O 	O 	0.26986 0.70761 0.36023 -0.40700
C 	C 	0.23307 0.66303 0.34503 0.36700
C 	C 	0.18437 0.66073 0.31903 -0.10400
C 	C 	0.13737 0.61403 0.31233 0.03100
H 	H 	0.13567 0.58143 0.32113 0.03400
C 	C 	0.09187 0.61393 0.29253 -0.09000
H 	H 	0.05967 0.58113 0.28833 0.06800
C 	C 	0.09297 0.66013 0.27913 0.03400
C 	C 	0.14187 0.70693 0.28113 -0.09200
H 	H 	0.14457 0.73913 0.26833 0.06000
C 	C 	0.18667 0.70733 0.30163 0.03000
H 	H 	0.21927 0.73983 0.30373 0.03600
C 	C 	0.04417 0.66163 0.26353 0.07400
C 	C 	0.04477 0.71003 0.26463 -0.11600
H 	H 	0.07617 0.74163 0.27533 0.06600
C 	C 	0.95327 0.76493 0.24663 -0.11600
H 	H 	0.92017 0.73283 0.24423 0.06800
C 	C 	0.95497 0.81323 0.24673 0.08300
H 	H 	0.92247 0.81343 0.24423 0.01000
O 	O 	0.89916 0.95280 0.68367 -0.39800
O 	O 	0.93652 0.04095 0.69357 -0.40900
C 	C 	0.89973 0.99637 0.67837 0.37300
C 	C 	0.85103 0.99407 0.65237 -0.09800
C 	C 	0.80403 0.94737 0.64567 0.03100
H 	H 	0.80233 0.91477 0.65447 0.03400
C 	C 	0.75853 0.94727 0.62587 -0.09000
H 	H 	0.72633 0.91447 0.62167 0.07000
C 	C 	0.75963 0.99347 0.61247 0.03900
C 	C 	0.80853 0.04027 0.61447 -0.09700
H 	H 	0.81123 0.07247 0.60167 0.06100
C 	C 	0.85333 0.04067 0.63497 0.02400
H 	H 	0.88593 0.07317 0.63707 0.03800
C 	C 	0.71083 0.99497 0.59687 0.08100
C 	C 	0.71143 0.04337 0.59797 -0.12300
H 	H 	0.74283 0.07497 0.60867 0.06800
C 	C 	0.61993 0.09827 0.57997 -0.12300
H 	H 	0.58683 0.06617 0.57757 0.06800
C 	C 	0.62163 0.14657 0.58007 0.07900
H 	H 	0.58913 0.14677 0.57757 0.01000
O 	O 	0.71387 0.27970 0.01700 -0.39900
O 	O 	0.62572 0.22891 0.02690 -0.40700
C 	C 	0.67030 0.23670 0.01170 0.36700
C 	C 	0.67260 0.19030 0.98570 -0.10400
C 	C 	0.71930 0.19000 0.97900 0.03000
H 	H 	0.75190 0.22090 0.98780 0.03400
C 	C 	0.71940 0.14460 0.95920 -0.09000
H 	H 	0.75220 0.14520 0.95500 0.06900
C 	C 	0.67320 0.09950 0.94580 0.03200
C 	C 	0.62640 0.10160 0.94780 -0.09100
H 	H 	0.59420 0.07210 0.93500 0.05900
C 	C 	0.62600 0.14600 0.96830 0.02900
H 	H 	0.59350 0.14610 0.97040 0.03600
C 	C 	0.67170 0.04920 0.93020 0.07800
C 	C 	0.62330 0.00140 0.93130 -0.12700
H 	H 	0.59170 0.00120 0.94200 0.06800
C 	C 	0.56840 0.85500 0.91330 -0.12100
H 	H 	0.60050 0.85400 0.91090 0.06900
C 	C 	0.52010 0.80840 0.91340 0.07900
H 	H 	0.51990 0.77570 0.91090 0.01100
O 	O 	0.38054 0.61303 0.35033 -0.39900
O 	O 	0.29239 0.56224 0.36023 -0.40600
C 	C 	0.33697 0.57003 0.34503 0.36700
C 	C 	0.33927 0.52363 0.31903 -0.10400
C 	C 	0.38597 0.52333 0.31233 0.03100
H 	H 	0.41857 0.55423 0.32113 0.03400
C 	C 	0.38607 0.47793 0.29253 -0.09000
H 	H 	0.41887 0.47853 0.28833 0.06900
C 	C 	0.33987 0.43283 0.27913 0.03400
C 	C 	0.29307 0.43493 0.28113 -0.09100
H 	H 	0.26087 0.40543 0.26833 0.06000
C 	C 	0.29267 0.47933 0.30163 0.03000
H 	H 	0.26017 0.47943 0.30373 0.03600
C 	C 	0.33837 0.38253 0.26353 0.07600
C 	C 	0.28997 0.33473 0.26463 -0.11800
H 	H 	0.25837 0.33453 0.27533 0.06700
C 	C 	0.23507 0.18833 0.24663 -0.12200
H 	H 	0.26717 0.18733 0.24423 0.06900
C 	C 	0.18677 0.14173 0.24673 0.07900
H 	H 	0.18657 0.10903 0.24423 0.01000
O 	O 	0.04720 0.94637 0.68367 -0.39500
O 	O 	0.95905 0.89558 0.69357 -0.40000
C 	C 	0.00363 0.90337 0.67837 0.36000
C 	C 	0.00593 0.85697 0.65237 -0.10900
C 	C 	0.05263 0.85667 0.64567 0.03100
H 	H 	0.08523 0.88757 0.65447 0.03400
C 	C 	0.05273 0.81127 0.62587 -0.08900
H 	H 	0.08553 0.81187 0.62167 0.06900
C 	C 	0.00653 0.76617 0.61247 0.02800
C 	C 	0.95973 0.76827 0.61447 -0.08500
H 	H 	0.92753 0.73877 0.60167 0.05900
C 	C 	0.95933 0.81267 0.63497 0.03600
H 	H 	0.92683 0.81277 0.63707 0.03500
C 	C 	0.00503 0.71587 0.59687 0.07100
C 	C 	0.95663 0.66807 0.59797 -0.11200
H 	H 	0.92503 0.66787 0.60867 0.06600
C 	C 	0.90173 0.52167 0.57997 -0.12100
H 	H 	0.93383 0.52067 0.57757 0.07100
C 	C 	0.85343 0.47507 0.58007 0.07900
H 	H 	0.85323 0.44237 0.57757 0.01100
O 	O 	0.72030 0.43417 0.01700 -0.39900
O 	O 	0.77109 0.39681 0.02690 -0.40700
C 	C 	0.76330 0.43360 0.01170 0.36700
C 	C 	0.80970 0.48230 0.98570 -0.10500
C 	C 	0.81000 0.52930 0.97900 0.03200
H 	H 	0.77910 0.53100 0.98780 0.03400
C 	C 	0.85540 0.57480 0.95920 -0.09100
H 	H 	0.85480 0.60700 0.95500 0.07000
C 	C 	0.90050 0.57370 0.94580 0.03600
C 	C 	0.89840 0.52480 0.94780 -0.09200
H 	H 	0.92790 0.52210 0.93500 0.06100
C 	C 	0.85400 0.48000 0.96830 0.03100
H 	H 	0.85390 0.44740 0.97040 0.03600
C 	C 	0.95080 0.62250 0.93020 0.07400
C 	C 	0.99860 0.62190 0.93130 -0.10900
H 	H 	0.99880 0.59050 0.94200 0.06600
C 	C 	0.14500 0.71340 0.91330 -0.12300
H 	H 	0.14600 0.74650 0.91090 0.07000
C 	C 	0.19160 0.71170 0.91340 0.07900
H 	H 	0.22430 0.74420 0.91090 0.01000
O 	O 	0.38697 0.76750 0.35033 -0.39900
O 	O 	0.43776 0.73014 0.36023 -0.40700
C 	C 	0.42997 0.76693 0.34503 0.36700
C 	C 	0.47637 0.81563 0.31903 -0.10400
C 	C 	0.47667 0.86263 0.31233 0.03100
H 	H 	0.44577 0.86433 0.32113 0.03400
C 	C 	0.52207 0.90813 0.29253 -0.09000
H 	H 	0.52147 0.94033 0.28833 0.07100
C 	C 	0.56717 0.90703 0.27913 0.03400
C 	C 	0.56507 0.85813 0.28113 -0.09100
H 	H 	0.59457 0.85543 0.26833 0.06000
C 	C 	0.52067 0.81333 0.30163 0.03000
H 	H 	0.52057 0.78073 0.30373 0.03600
C 	C 	0.61747 0.95583 0.26353 0.07900
C 	C 	0.66527 0.95523 0.26463 -0.11000
H 	H 	0.66547 0.92383 0.27533 0.06600
C 	C 	0.81167 0.04673 0.24663 -0.12100
H 	H 	0.81267 0.07983 0.24423 0.06900
C 	C 	0.85827 0.04503 0.24673 0.07700
H 	H 	0.89097 0.07753 0.24423 0.01100
O 	O 	0.05363 0.10084 0.68367 -0.40100
O 	O 	0.10442 0.06348 0.69357 -0.40800
C 	C 	0.09663 0.10027 0.67837 0.36700
C 	C 	0.14303 0.14897 0.65237 -0.10500
C 	C 	0.14333 0.19597 0.64567 0.03100
H 	H 	0.11243 0.19767 0.65447 0.03300
C 	C 	0.18873 0.24147 0.62587 -0.09100
H 	H 	0.18813 0.27367 0.62167 0.06900
C 	C 	0.23383 0.24037 0.61247 0.03400
C 	C 	0.23173 0.19147 0.61447 -0.09200
H 	H 	0.26123 0.18877 0.60167 0.06000
C 	C 	0.18733 0.14667 0.63497 0.03000
H 	H 	0.18723 0.11407 0.63707 0.03500
C 	C 	0.28413 0.28917 0.59687 0.07600
C 	C 	0.33193 0.28857 0.59797 -0.11800
H 	H 	0.33213 0.25717 0.60867 0.06700
C 	C 	0.47833 0.38007 0.57997 -0.12200
H 	H 	0.47933 0.41317 0.57757 0.06900
C 	C 	0.52493 0.37837 0.58007 0.07900
H 	H 	0.55763 0.41087 0.57757 0.01100
O 	O 	0.28613 0.56583 0.48300 -0.39900
O 	O 	0.37428 0.60319 0.47310 -0.40700
C 	C 	0.32970 0.56640 0.48830 0.36700
C 	C 	0.32740 0.51770 0.51430 -0.10400
C 	C 	0.28070 0.47070 0.52100 0.03100
H 	H 	0.24810 0.46900 0.51220 0.03400
C 	C 	0.28060 0.42520 0.54080 -0.09000
H 	H 	0.24780 0.39300 0.54500 0.06900
C 	C 	0.32680 0.42630 0.55420 0.03400
C 	C 	0.37360 0.47520 0.55220 -0.09100
H 	H 	0.40580 0.47790 0.56500 0.06000
C 	C 	0.37400 0.52000 0.53170 0.03000
H 	H 	0.40650 0.55260 0.52960 0.03600
C 	C 	0.32830 0.37750 0.56980 0.07600
C 	C 	0.37670 0.37810 0.56870 -0.11800
H 	H 	0.40830 0.40950 0.55800 0.06700
C 	C 	0.43160 0.28660 0.58670 -0.12200
H 	H 	0.39950 0.25350 0.58910 0.06900
C 	C 	0.47990 0.28830 0.58660 0.07900
H 	H 	0.48010 0.25580 0.58910 0.01000
O 	O 	0.95280 0.89916 0.81633 -0.39800
O 	O 	0.04095 0.93652 0.80643 -0.40900
C 	C 	0.99637 0.89973 0.82163 0.37300
C 	C 	0.99407 0.85103 0.84763 -0.09800
C 	C 	0.94737 0.80403 0.85433 0.03100
H 	H 	0.91477 0.80233 0.84553 0.03400
C 	C 	0.94727 0.75853 0.87413 -0.09000
H 	H 	0.91447 0.72633 0.87833 0.07000
C 	C 	0.99347 0.75963 0.88753 0.03900
C 	C 	0.04027 0.80853 0.88553 -0.09700
H 	H 	0.07247 0.81123 0.89833 0.06100
C 	C 	0.04067 0.85333 0.86503 0.02400
H 	H 	0.07317 0.88593 0.86293 0.03800
C 	C 	0.99497 0.71083 0.90313 0.08100
C 	C 	0.04337 0.71143 0.90203 -0.12300
H 	H 	0.07497 0.74283 0.89133 0.06800
C 	C 	0.09827 0.61993 0.92003 -0.12300
H 	H 	0.06617 0.58683 0.92243 0.06800
C 	C 	0.14657 0.62163 0.91993 0.07900
H 	H 	0.14677 0.58913 0.92243 0.01000
O 	O 	0.61946 0.23250 0.14967 -0.39900
O 	O 	0.70761 0.26986 0.13977 -0.40700
C 	C 	0.66303 0.23307 0.15497 0.36700
C 	C 	0.66073 0.18437 0.18097 -0.10400
C 	C 	0.61403 0.13737 0.18767 0.03100
H 	H 	0.58143 0.13567 0.17887 0.03400
C 	C 	0.61393 0.09187 0.20747 -0.09000
H 	H 	0.58113 0.05967 0.21167 0.06800
C 	C 	0.66013 0.09297 0.22087 0.03400
C 	C 	0.70693 0.14187 0.21887 -0.09200
H 	H 	0.73913 0.14457 0.23167 0.06000
C 	C 	0.70733 0.18667 0.19837 0.03000
H 	H 	0.73983 0.21927 0.19627 0.03600
C 	C 	0.66163 0.04417 0.23647 0.07400
C 	C 	0.71003 0.04477 0.23537 -0.11600
H 	H 	0.74163 0.07617 0.22467 0.06600
C 	C 	0.76493 0.95327 0.25337 -0.11600
H 	H 	0.73283 0.92017 0.25577 0.06800
C 	C 	0.81323 0.95497 0.25327 0.08300
H 	H 	0.81343 0.92247 0.25577 0.01000
O 	O 	0.27970 0.71387 0.48300 -0.39900
O 	O 	0.22891 0.62572 0.47310 -0.40700
C 	C 	0.23670 0.67030 0.48830 0.36700
C 	C 	0.19030 0.67260 0.51430 -0.10400
C 	C 	0.19000 0.71930 0.52100 0.03000
H 	H 	0.22090 0.75190 0.51220 0.03400
C 	C 	0.14460 0.71940 0.54080 -0.08900
H 	H 	0.14520 0.75220 0.54500 0.06900
C 	C 	0.09950 0.67320 0.55420 0.03200
C 	C 	0.10160 0.62640 0.55220 -0.09100
H 	H 	0.07210 0.59420 0.56500 0.05900
C 	C 	0.14600 0.62600 0.53170 0.02900
H 	H 	0.14610 0.59350 0.52960 0.03600
C 	C 	0.04920 0.67170 0.56980 0.07800
C 	C 	0.00140 0.62330 0.56870 -0.12700
H 	H 	0.00120 0.59170 0.55800 0.06800
C 	C 	0.85500 0.56840 0.58670 -0.12100
H 	H 	0.85400 0.60050 0.58910 0.06900
C 	C 	0.80840 0.52010 0.58660 0.07900
H 	H 	0.77570 0.51990 0.58910 0.01100
O 	O 	0.94637 0.04720 0.81633 -0.39500
O 	O 	0.89558 0.95905 0.80643 -0.40000
C 	C 	0.90337 0.00363 0.82163 0.36000
C 	C 	0.85697 0.00593 0.84763 -0.10900
C 	C 	0.85667 0.05263 0.85433 0.03100
H 	H 	0.88757 0.08523 0.84553 0.03400
C 	C 	0.81127 0.05273 0.87413 -0.08900
H 	H 	0.81187 0.08553 0.87833 0.06900
C 	C 	0.76617 0.00653 0.88753 0.02800
C 	C 	0.76827 0.95973 0.88553 -0.08500
H 	H 	0.73877 0.92753 0.89833 0.05900
C 	C 	0.81267 0.95933 0.86503 0.03500
H 	H 	0.81277 0.92683 0.86293 0.03500
C 	C 	0.71587 0.00503 0.90313 0.07100
C 	C 	0.66807 0.95663 0.90203 -0.11200
H 	H 	0.66787 0.92503 0.89133 0.06600
C 	C 	0.52167 0.90173 0.92003 -0.12100
H 	H 	0.52067 0.93383 0.92243 0.07100
C 	C 	0.47507 0.85343 0.91993 0.07900
H 	H 	0.44237 0.85323 0.92243 0.01100
O 	O 	0.61303 0.38054 0.14967 -0.39900
O 	O 	0.56224 0.29239 0.13977 -0.40600
C 	C 	0.57003 0.33697 0.15497 0.36700
C 	C 	0.52363 0.33927 0.18097 -0.10400
C 	C 	0.52333 0.38597 0.18767 0.03100
H 	H 	0.55423 0.41857 0.17887 0.03400
C 	C 	0.47793 0.38607 0.20747 -0.09000
H 	H 	0.47853 0.41887 0.21167 0.06900
C 	C 	0.43283 0.33987 0.22087 0.03400
C 	C 	0.43493 0.29307 0.21887 -0.09100
H 	H 	0.40543 0.26087 0.23167 0.06000
C 	C 	0.47933 0.29267 0.19837 0.03000
H 	H 	0.47943 0.26017 0.19627 0.03600
C 	C 	0.38253 0.33837 0.23647 0.07600
C 	C 	0.33473 0.28997 0.23537 -0.11800
H 	H 	0.33453 0.25837 0.22467 0.06700
C 	C 	0.18833 0.23507 0.25337 -0.12200
H 	H 	0.18733 0.26717 0.25577 0.06900
C 	C 	0.14173 0.18677 0.25327 0.07900
H 	H 	0.10903 0.18657 0.25577 0.01000
O 	O 	0.43417 0.72030 0.48300 -0.39900
O 	O 	0.39681 0.77109 0.47310 -0.40700
C 	C 	0.43360 0.76330 0.48830 0.36700
C 	C 	0.48230 0.80970 0.51430 -0.10500
C 	C 	0.52930 0.81000 0.52100 0.03200
H 	H 	0.53100 0.77910 0.51220 0.03400
C 	C 	0.57480 0.85540 0.54080 -0.09100
H 	H 	0.60700 0.85480 0.54500 0.07000
C 	C 	0.57370 0.90050 0.55420 0.03600
C 	C 	0.52480 0.89840 0.55220 -0.09200
H 	H 	0.52210 0.92790 0.56500 0.06100
C 	C 	0.48000 0.85400 0.53170 0.03100
H 	H 	0.44740 0.85390 0.52960 0.03600
C 	C 	0.62250 0.95080 0.56980 0.07400
C 	C 	0.62190 0.99860 0.56870 -0.10900
H 	H 	0.59050 0.99880 0.55800 0.06600
C 	C 	0.71340 0.14500 0.58670 -0.12300
H 	H 	0.74650 0.14600 0.58910 0.07000
C 	C 	0.71170 0.19160 0.58660 0.07900
H 	H 	0.74420 0.22430 0.58910 0.01000
O 	O 	0.10084 0.05363 0.81633 -0.40100
O 	O 	0.06348 0.10442 0.80643 -0.40800
C 	C 	0.10027 0.09663 0.82163 0.36700
C 	C 	0.14897 0.14303 0.84763 -0.10500
C 	C 	0.19597 0.14333 0.85433 0.03100
H 	H 	0.19767 0.11243 0.84553 0.03300
C 	C 	0.24147 0.18873 0.87413 -0.09100
H 	H 	0.27367 0.18813 0.87833 0.06900
C 	C 	0.24037 0.23383 0.88753 0.03400
C 	C 	0.19147 0.23173 0.88553 -0.09200
H 	H 	0.18877 0.26123 0.89833 0.06000
C 	C 	0.14667 0.18733 0.86503 0.03000
H 	H 	0.11407 0.18723 0.86293 0.03500
C 	C 	0.28917 0.28413 0.90313 0.07600
C 	C 	0.28857 0.33193 0.90203 -0.11800
H 	H 	0.25717 0.33213 0.89133 0.06700
C 	C 	0.38007 0.47833 0.92003 -0.12200
H 	H 	0.41317 0.47933 0.92243 0.06900
C 	C 	0.37837 0.52493 0.91993 0.07900
H 	H 	0.41087 0.55763 0.92243 0.01100
O 	O 	0.76750 0.38697 0.14967 -0.39900
O 	O 	0.73014 0.43776 0.13977 -0.40600
C 	C 	0.76693 0.42997 0.15497 0.36700
C 	C 	0.81563 0.47637 0.18097 -0.10400
C 	C 	0.86263 0.47667 0.18767 0.03100
H 	H 	0.86433 0.44577 0.17887 0.03400
C 	C 	0.90813 0.52207 0.20747 -0.09000
H 	H 	0.94033 0.52147 0.21167 0.07100
C 	C 	0.90703 0.56717 0.22087 0.03400
C 	C 	0.85813 0.56507 0.21887 -0.09100
H 	H 	0.85543 0.59457 0.23167 0.06000
C 	C 	0.81333 0.52067 0.19837 0.03000
H 	H 	0.78073 0.52057 0.19627 0.03600
C 	C 	0.95583 0.61747 0.23647 0.07900
C 	C 	0.95523 0.66527 0.23537 -0.11000
H 	H 	0.92383 0.66547 0.22467 0.06600
C 	C 	0.04673 0.81167 0.25337 -0.12100
H 	H 	0.07983 0.81267 0.25577 0.06900
C 	C 	0.04503 0.85827 0.25327 0.07700
H 	H 	0.07753 0.89097 0.25577 0.01100
Ni	Ni	0.66667 0.40218 0.08333 1.12600
N 	N 	0.66667 0.47388 0.08333 -0.20900
N 	N 	0.66667 0.71768 0.08333 -0.13000
C 	C 	0.66667 0.62138 0.08333 0.05100
C 	C 	0.66667 0.56978 0.08333 0.05500
Ni	Ni	0.59782 0.26448 0.08333 1.12600
N 	N 	0.52612 0.19278 0.08333 -0.20900
N 	N 	0.28232 0.94898 0.08333 -0.13000
C 	C 	0.37862 0.04528 0.08333 0.04400
C 	C 	0.43022 0.09688 0.08333 0.05600
Ni	Ni	0.73552 0.33333 0.08333 1.12600
N 	N 	0.80722 0.33333 0.08333 -0.20900
N 	N 	0.05102 0.33333 0.08333 -0.13000
C 	C 	0.95472 0.33333 0.08333 0.05700
C 	C 	0.90312 0.33333 0.08333 0.05400
Ni	Ni	0.40218 0.66667 0.41667 1.12600
N 	N 	0.47388 0.66667 0.41667 -0.20900
N 	N 	0.71768 0.66667 0.41667 -0.13000
C 	C 	0.62138 0.66667 0.41667 0.05100
C 	C 	0.56978 0.66667 0.41667 0.05500
Ni	Ni	0.06885 0.00000 0.75000 1.12400
N 	N 	0.14055 0.00000 0.75000 -0.21200
N 	N 	0.38435 0.00000 0.75000 -0.13300
C 	C 	0.28805 0.00000 0.75000 0.04500
C 	C 	0.23645 0.00000 0.75000 0.04900
Ni	Ni	0.26448 0.59782 0.41667 1.12600
N 	N 	0.19278 0.52612 0.41667 -0.20900
N 	N 	0.94898 0.28232 0.41667 -0.13000
C 	C 	0.04528 0.37862 0.41667 0.04400
C 	C 	0.09688 0.43022 0.41667 0.05600
Ni	Ni	0.93115 0.93115 0.75000 1.12800
N 	N 	0.85945 0.85945 0.75000 -0.20900
N 	N 	0.61565 0.61565 0.75000 -0.13000
C 	C 	0.71195 0.71195 0.75000 0.05100
C 	C 	0.76355 0.76355 0.75000 0.05500
Ni	Ni	0.33333 0.73552 0.41667 1.12600
N 	N 	0.33333 0.80722 0.41667 -0.20900
N 	N 	0.33333 0.05102 0.41667 -0.13000
C 	C 	0.33333 0.95472 0.41667 0.05700
C 	C 	0.33333 0.90312 0.41667 0.05400
Ni	Ni	-0.00000 0.06885 0.75000 1.12400
N 	N 	-0.00000 0.14055 0.75000 -0.21200
N 	N 	0.00000 0.38435 0.75000 -0.13300
C 	C 	-0.00000 0.28805 0.75000 0.04500
C 	C 	-0.00000 0.23645 0.75000 0.04900
Ni	Ni	0.33333 0.59782 0.91667 1.12600
N 	N 	0.33333 0.52612 0.91667 -0.20900
N 	N 	0.33333 0.28232 0.91667 -0.13000
C 	C 	0.33333 0.37862 0.91667 0.05100
C 	C 	0.33333 0.43022 0.91667 0.05500
Ni	Ni	-0.00000 0.93115 0.25000 1.12500
N 	N 	-0.00000 0.85945 0.25000 -0.21200
N 	N 	-0.00000 0.61565 0.25000 -0.13300
C 	C 	-0.00000 0.71195 0.25000 0.04400
C 	C 	-0.00000 0.76355 0.25000 0.04900
Ni	Ni	0.40218 0.73552 0.91667 1.12600
N 	N 	0.47388 0.80722 0.91667 -0.20900
N 	N 	0.71768 0.05102 0.91667 -0.13000
C 	C 	0.62138 0.95472 0.91667 0.05700
C 	C 	0.56978 0.90312 0.91667 0.05400
Ni	Ni	0.06885 0.06885 0.25000 1.12500
N 	N 	0.14055 0.14055 0.25000 -0.20900
N 	N 	0.38435 0.38435 0.25000 -0.13000
C 	C 	0.28805 0.28805 0.25000 0.05100
C 	C 	0.23645 0.23645 0.25000 0.05500
Ni	Ni	0.26448 0.66667 0.91667 1.12600
N 	N 	0.19278 0.66667 0.91667 -0.20900
N 	N 	0.94898 0.66667 0.91667 -0.13000
C 	C 	0.04528 0.66667 0.91667 0.04500
C 	C 	0.09688 0.66667 0.91667 0.05600
Ni	Ni	0.93115 0.00000 0.25000 1.12500
N 	N 	0.85945 0.00000 0.25000 -0.21200
N 	N 	0.61565 0.00000 0.25000 -0.13300
C 	C 	0.71195 0.00000 0.25000 0.04400
C 	C 	0.76355 0.00000 0.25000 0.04900
Ni	Ni	0.59782 0.33333 0.58333 1.12600
N 	N 	0.52612 0.33333 0.58333 -0.20900
N 	N 	0.28232 0.33333 0.58333 -0.13000
C 	C 	0.37862 0.33333 0.58333 0.05100
C 	C 	0.43022 0.33333 0.58333 0.05500
Ni	Ni	0.73552 0.40218 0.58333 1.12600
N 	N 	0.80722 0.47388 0.58333 -0.20900
N 	N 	0.05102 0.71768 0.58333 -0.13000
C 	C 	0.95472 0.62138 0.58333 0.05700
C 	C 	0.90312 0.56978 0.58333 0.05400
Ni	Ni	0.66667 0.26448 0.58333 1.12600
N 	N 	0.66667 0.19278 0.58333 -0.20900
N 	N 	0.66667 0.94898 0.58333 -0.13000
C 	C 	0.66667 0.04528 0.58333 0.04400
C 	C 	0.66667 0.09688 0.58333 0.05600
O 	O 	0.66667 0.33333 0.08333 -0.71600
O 	O 	-0.00000 0.00000 0.75000 -0.71900
O 	O 	0.33333 0.66667 0.41667 -0.71700
O 	O 	0.33333 0.66667 0.91667 -0.71600
O 	O 	-0.00000 0.00000 0.25000 -0.71900
O 	O 	0.66667 0.33333 0.58333 -0.71700
H 	H 	0.66667 0.33333 0.12600 0.12600
H 	H 	0.33333 0.66667 0.45933 0.12600
H 	H 	0.00000 0.00000 0.79267 0.12300
H 	H 	0.33333 0.66667 0.37400 0.12600
H 	H 	-0.00000 0.00000 0.70733 0.12300
H 	H 	0.66667 0.33333 0.04067 0.12600
H 	H 	0.33333 0.66667 0.87400 0.12600
H 	H 	0.00000 0.00000 0.20733 0.12300
H 	H 	0.66667 0.33333 0.54067 0.12600
H 	H 	0.66667 0.33333 0.62600 0.12600
H 	H 	0.33333 0.66667 0.95933 0.12600
H 	H 	-0.00000 0.00000 0.29267 0.12300
