data_crystal

_cell_length_a 21.50100
_cell_length_b 26.51000
_cell_length_c 30.06700
_cell_angle_alpha 90.00000
_cell_angle_beta  90.00000
_cell_angle_gamma 90.00000

_symmetry_space_group_name_	'P 1'
_symmetry_space_group_name_H-M	'P 1'

loop_
_symmetry_equiv_pos_as_xyz
  x,y,z

loop_
_atom_site_label
_atom_site_type_symbol
_atom_site_fract_x
_atom_site_fract_y
_atom_site_fract_z
_atom_site_charge
O 	O 	0.91940 0.96850 0.04330 -0.38400
O 	O 	0.00200 0.92920 0.06240 -0.41300
O 	O 	0.82470 0.76790 0.19570 -0.35400
O 	O 	0.76130 0.82940 0.20810 -0.30200
C 	C 	0.90520 0.90570 0.09550 -0.35300
C 	C 	0.84520 0.91650 0.10510 0.60400
C 	C 	0.81240 0.88620 0.13680 0.01700
C 	C 	0.83900 0.84510 0.15430 -0.03400
C 	C 	0.90000 0.83260 0.14370 -0.12400
H 	H 	0.91910 0.80370 0.15630 0.10100
C 	C 	0.93270 0.86330 0.11390 0.14600
H 	H 	0.97430 0.85500 0.10620 0.01600
C 	C 	0.94900 0.93530 0.06490 0.49700
C 	C 	0.80830 0.81090 0.18670 0.29400
N 	N 	0.81170 0.95830 0.09160 1.04200
H 	H 	0.76730 0.97040 0.10210 -0.12800
H 	H 	0.82290 0.98630 0.07200 -0.10100
H 	H 	0.76520 0.90000 0.14530 -0.67800
N 	N 	0.75070 0.90040 0.13870 0.73200
H 	H 	0.73800 0.92650 0.12180 -0.10100
H 	H 	0.72360 0.88460 0.15670 -0.02800
H 	H 	0.82100 0.94370 0.08890 -1.10300
O 	O 	0.91940 0.46850 0.54330 -0.39900
O 	O 	0.00200 0.42920 0.56240 -0.42200
O 	O 	0.82470 0.26790 0.69570 -0.35300
O 	O 	0.76130 0.32940 0.70810 -0.30300
C 	C 	0.90520 0.40570 0.59550 -0.35500
C 	C 	0.84520 0.41650 0.60510 0.59900
C 	C 	0.81240 0.38620 0.63680 0.01700
C 	C 	0.83900 0.34510 0.65430 -0.03400
C 	C 	0.90000 0.33260 0.64370 -0.12500
H 	H 	0.91910 0.30370 0.65630 0.10100
C 	C 	0.93270 0.36330 0.61390 0.14500
H 	H 	0.97430 0.35500 0.60620 0.01600
C 	C 	0.94900 0.43530 0.56490 0.50100
C 	C 	0.80830 0.31090 0.68670 0.29400
N 	N 	0.81170 0.45830 0.59160 1.03500
H 	H 	0.76730 0.47040 0.60210 -0.13200
H 	H 	0.82290 0.48630 0.57200 -0.10900
H 	H 	0.76520 0.40000 0.64530 -0.67600
N 	N 	0.75070 0.40040 0.63870 0.72900
H 	H 	0.73800 0.42650 0.62180 -0.10400
H 	H 	0.72360 0.38460 0.65670 -0.03000
H 	H 	0.82100 0.44370 0.58890 -1.09600
O 	O 	0.41940 0.96850 0.54330 -0.38600
O 	O 	0.50200 0.92920 0.56240 -0.40000
O 	O 	0.32470 0.76790 0.69570 -0.35400
O 	O 	0.26130 0.82940 0.70810 -0.30200
C 	C 	0.40520 0.90570 0.59550 -0.34900
C 	C 	0.34520 0.91650 0.60510 0.60100
C 	C 	0.31240 0.88620 0.63680 0.01900
C 	C 	0.33900 0.84510 0.65430 -0.03500
C 	C 	0.40000 0.83260 0.64370 -0.12300
H 	H 	0.41910 0.80370 0.65630 0.09900
C 	C 	0.43270 0.86330 0.61390 0.14100
H 	H 	0.47430 0.85500 0.60620 0.01200
C 	C 	0.44900 0.93530 0.56490 0.47900
C 	C 	0.30830 0.81090 0.68670 0.29500
N 	N 	0.31170 0.95830 0.59160 1.04200
H 	H 	0.26730 0.97040 0.60210 -0.12900
H 	H 	0.32290 0.98630 0.57200 -0.10300
H 	H 	0.26520 0.90000 0.64530 -0.67800
N 	N 	0.25070 0.90040 0.63870 0.73100
H 	H 	0.23800 0.92650 0.62180 -0.10200
H 	H 	0.22360 0.88460 0.65670 -0.02900
H 	H 	0.32100 0.94370 0.58890 -1.10200
O 	O 	0.41940 0.46850 0.04330 -0.39100
O 	O 	0.50200 0.42920 0.06240 -0.40100
O 	O 	0.32470 0.26790 0.19570 -0.35400
O 	O 	0.26130 0.32940 0.20810 -0.30400
C 	C 	0.40520 0.40570 0.09550 -0.34900
C 	C 	0.34520 0.41650 0.10510 0.59900
C 	C 	0.31240 0.38620 0.13680 0.01700
C 	C 	0.33900 0.34510 0.15430 -0.03500
C 	C 	0.40000 0.33260 0.14370 -0.12300
H 	H 	0.41910 0.30370 0.15630 0.09900
C 	C 	0.43270 0.36330 0.11390 0.14100
H 	H 	0.47430 0.35500 0.10620 0.01300
C 	C 	0.44900 0.43530 0.06490 0.47800
C 	C 	0.30830 0.31090 0.18670 0.29500
N 	N 	0.31170 0.45830 0.09160 1.04100
H 	H 	0.26730 0.47040 0.10210 -0.13300
H 	H 	0.32290 0.48630 0.07200 -0.10800
H 	H 	0.26520 0.40000 0.14530 -0.67600
N 	N 	0.25070 0.40040 0.13870 0.72900
H 	H 	0.23800 0.42650 0.12180 -0.10300
H 	H 	0.22360 0.38460 0.15670 -0.03100
H 	H 	0.32100 0.44370 0.08890 -1.10100
O 	O 	0.08060 0.03150 0.04330 -0.39700
O 	O 	0.99800 0.07080 0.06240 -0.38500
O 	O 	0.17530 0.23210 0.19570 -0.35500
O 	O 	0.23870 0.17060 0.20810 -0.30500
C 	C 	0.09480 0.09430 0.09550 -0.34500
C 	C 	0.15480 0.08350 0.10510 0.59400
C 	C 	0.18760 0.11380 0.13680 0.01700
C 	C 	0.16100 0.15490 0.15430 -0.03700
C 	C 	0.10000 0.16740 0.14370 -0.12300
H 	H 	0.08090 0.19630 0.15630 0.09600
C 	C 	0.06730 0.13670 0.11390 0.13600
H 	H 	0.02570 0.14500 0.10620 0.00800
C 	C 	0.05100 0.06470 0.06490 0.45600
C 	C 	0.19170 0.18910 0.18670 0.29500
N 	N 	0.18830 0.04170 0.09160 1.04200
H 	H 	0.23270 0.02960 0.10210 -0.13800
H 	H 	0.17710 0.01370 0.07200 -0.11600
H 	H 	0.23480 0.10000 0.14530 -0.67400
N 	N 	0.24930 0.09960 0.13870 0.72600
H 	H 	0.26200 0.07350 0.12180 -0.10400
H 	H 	0.27640 0.11540 0.15670 -0.03100
H 	H 	0.17900 0.05630 0.08890 -1.10100
O 	O 	0.08060 0.53150 0.54330 -0.39400
O 	O 	0.99800 0.57080 0.56240 -0.38700
O 	O 	0.17530 0.73210 0.69570 -0.35400
O 	O 	0.23870 0.67060 0.70810 -0.30300
C 	C 	0.09480 0.59430 0.59550 -0.34600
C 	C 	0.15480 0.58350 0.60510 0.59500
C 	C 	0.18760 0.61380 0.63680 0.01800
C 	C 	0.16100 0.65490 0.65430 -0.03700
C 	C 	0.10000 0.66740 0.64370 -0.12300
H 	H 	0.08090 0.69630 0.65630 0.09600
C 	C 	0.06730 0.63670 0.61390 0.13700
H 	H 	0.02570 0.64500 0.60620 0.00900
C 	C 	0.05100 0.56470 0.56490 0.45800
C 	C 	0.19170 0.68910 0.68670 0.29500
N 	N 	0.18830 0.54170 0.59160 1.04200
H 	H 	0.23270 0.52960 0.60210 -0.13400
H 	H 	0.17710 0.51370 0.57200 -0.11100
H 	H 	0.23480 0.60000 0.64530 -0.67600
N 	N 	0.24930 0.59960 0.63870 0.72900
H 	H 	0.26200 0.57350 0.62180 -0.10300
H 	H 	0.27640 0.61540 0.65670 -0.03000
H 	H 	0.17900 0.55630 0.58890 -1.10100
O 	O 	0.58060 0.03150 0.54330 -0.40500
O 	O 	0.49800 0.07080 0.56240 -0.40800
O 	O 	0.67530 0.23210 0.69570 -0.35400
O 	O 	0.73870 0.17060 0.70810 -0.30400
C 	C 	0.59480 0.09430 0.59550 -0.35200
C 	C 	0.65480 0.08350 0.60510 0.59400
C 	C 	0.68760 0.11380 0.63680 0.01700
C 	C 	0.66100 0.15490 0.65430 -0.03600
C 	C 	0.60000 0.16740 0.64370 -0.12400
H 	H 	0.58090 0.19630 0.65630 0.09900
C 	C 	0.56730 0.13670 0.61390 0.14100
H 	H 	0.52570 0.14500 0.60620 0.01200
C 	C 	0.55100 0.06470 0.56490 0.48000
C 	C 	0.69170 0.18910 0.68670 0.29500
N 	N 	0.68830 0.04170 0.59160 1.03600
H 	H 	0.73270 0.02960 0.60210 -0.13700
H 	H 	0.67710 0.01370 0.57200 -0.11600
H 	H 	0.73480 0.10000 0.64530 -0.67500
N 	N 	0.74930 0.09960 0.63870 0.72700
H 	H 	0.76200 0.07350 0.62180 -0.10500
H 	H 	0.77640 0.11540 0.65670 -0.03100
H 	H 	0.67900 0.05630 0.58890 -1.09600
O 	O 	0.58060 0.53150 0.04330 -0.39100
O 	O 	0.49800 0.57080 0.06240 -0.40100
O 	O 	0.67530 0.73210 0.19570 -0.35300
O 	O 	0.73870 0.67060 0.20810 -0.30300
C 	C 	0.59480 0.59430 0.09550 -0.34900
C 	C 	0.65480 0.58350 0.10510 0.60000
C 	C 	0.68760 0.61380 0.13680 0.01800
C 	C 	0.66100 0.65490 0.15430 -0.03500
C 	C 	0.60000 0.66740 0.14370 -0.12300
H 	H 	0.58090 0.69630 0.15630 0.09900
C 	C 	0.56730 0.63670 0.11390 0.14100
H 	H 	0.52570 0.64500 0.10620 0.01300
C 	C 	0.55100 0.56470 0.06490 0.47800
C 	C 	0.69170 0.68910 0.18670 0.29500
N 	N 	0.68830 0.54170 0.09160 1.04200
H 	H 	0.73270 0.52960 0.10210 -0.13200
H 	H 	0.67710 0.51370 0.07200 -0.10800
H 	H 	0.73480 0.60000 0.14530 -0.67700
N 	N 	0.74930 0.59960 0.13870 0.72900
H 	H 	0.76200 0.57350 0.12180 -0.10200
H 	H 	0.77640 0.61540 0.15670 -0.02900
H 	H 	0.67900 0.55630 0.08890 -1.10200
O 	O 	0.16940 0.28150 0.29330 -0.39700
O 	O 	0.25200 0.32080 0.31240 -0.40400
O 	O 	0.07470 0.48210 0.44570 -0.35800
O 	O 	0.01130 0.42060 0.45810 -0.31000
C 	C 	0.15520 0.34430 0.34550 -0.34700
C 	C 	0.09520 0.33350 0.35510 0.59000
C 	C 	0.06240 0.36380 0.38680 0.02900
C 	C 	0.08900 0.40490 0.40430 -0.04500
C 	C 	0.15000 0.41740 0.39370 -0.11800
H 	H 	0.16910 0.44630 0.40630 0.09600
C 	C 	0.18270 0.38670 0.36390 0.13600
H 	H 	0.22430 0.39500 0.35620 0.01300
C 	C 	0.19900 0.31470 0.31490 0.47800
C 	C 	0.05830 0.43910 0.43670 0.29800
N 	N 	0.06170 0.29170 0.34160 1.04100
H 	H 	0.01730 0.27960 0.35210 -0.13900
H 	H 	0.07290 0.26370 0.32200 -0.11200
H 	H 	0.01520 0.35000 0.39530 -0.70300
N 	N 	0.00070 0.34960 0.38870 0.74200
H 	H 	0.98800 0.32350 0.37180 -0.09600
H 	H 	0.97360 0.36540 0.40670 -0.02200
H 	H 	0.07100 0.30630 0.33890 -1.10000
O 	O 	0.16940 0.78150 0.79330 -0.39700
O 	O 	0.25200 0.82080 0.81240 -0.40500
O 	O 	0.07470 0.98210 0.94570 -0.35000
O 	O 	0.01130 0.92060 0.95810 -0.31200
C 	C 	0.15520 0.84430 0.84550 -0.34800
C 	C 	0.09520 0.83350 0.85510 0.59200
C 	C 	0.06240 0.86380 0.88680 0.02500
C 	C 	0.08900 0.90490 0.90430 -0.04200
C 	C 	0.15000 0.91740 0.89370 -0.12100
H 	H 	0.16910 0.94630 0.90630 0.10000
C 	C 	0.18270 0.88670 0.86390 0.13900
H 	H 	0.22430 0.89500 0.85620 0.01400
C 	C 	0.19900 0.81470 0.81490 0.47800
C 	C 	0.05830 0.93910 0.93670 0.29600
N 	N 	0.06170 0.79170 0.84160 1.04100
H 	H 	0.01730 0.77960 0.85210 -0.14000
H 	H 	0.07290 0.76370 0.82200 -0.11200
H 	H 	0.01520 0.85000 0.89530 -0.69800
N 	N 	0.00070 0.84960 0.88870 0.73900
H 	H 	0.98800 0.82350 0.87180 -0.09700
H 	H 	0.97360 0.86540 0.90670 -0.02300
H 	H 	0.07100 0.80630 0.83890 -1.10000
O 	O 	0.66940 0.28150 0.79330 -0.39700
O 	O 	0.75200 0.32080 0.81240 -0.40500
O 	O 	0.57470 0.48210 0.94570 -0.35900
O 	O 	0.51130 0.42060 0.95810 -0.31100
C 	C 	0.65520 0.34430 0.84550 -0.35100
C 	C 	0.59520 0.33350 0.85510 0.59700
C 	C 	0.56240 0.36380 0.88680 0.01600
C 	C 	0.58900 0.40490 0.90430 -0.03800
C 	C 	0.65000 0.41740 0.89370 -0.12400
H 	H 	0.66910 0.44630 0.90630 0.09800
C 	C 	0.68270 0.38670 0.86390 0.14000
H 	H 	0.72430 0.39500 0.85620 0.01200
C 	C 	0.69900 0.31470 0.81490 0.47900
C 	C 	0.55830 0.43910 0.93670 0.29500
N 	N 	0.56170 0.29170 0.84160 1.03900
H 	H 	0.51730 0.27960 0.85210 -0.13400
H 	H 	0.57290 0.26370 0.82200 -0.11000
H 	H 	0.51520 0.35000 0.89530 -0.67500
N 	N 	0.50070 0.34960 0.88870 0.72700
H 	H 	0.48800 0.32350 0.87180 -0.10400
H 	H 	0.47360 0.36540 0.90670 -0.03200
H 	H 	0.57100 0.30630 0.83890 -1.09900
O 	O 	0.66940 0.78150 0.29330 -0.39700
O 	O 	0.75200 0.82080 0.31240 -0.40400
O 	O 	0.57470 0.98210 0.44570 -0.34200
O 	O 	0.51130 0.92060 0.45810 -0.29800
C 	C 	0.65520 0.84430 0.34550 -0.35000
C 	C 	0.59520 0.83350 0.35510 0.59800
C 	C 	0.56240 0.86380 0.38680 0.01700
C 	C 	0.58900 0.90490 0.40430 -0.03200
C 	C 	0.65000 0.91740 0.39370 -0.12400
H 	H 	0.66910 0.94630 0.40630 0.10200
C 	C 	0.68270 0.88670 0.36390 0.14300
H 	H 	0.72430 0.89500 0.35620 0.01300
C 	C 	0.69900 0.81470 0.31490 0.48000
C 	C 	0.55830 0.93910 0.43670 0.29300
N 	N 	0.56170 0.79170 0.34160 1.03900
H 	H 	0.51730 0.77960 0.35210 -0.13300
H 	H 	0.57290 0.76370 0.32200 -0.11000
H 	H 	0.51520 0.85000 0.39530 -0.67600
N 	N 	0.50070 0.84960 0.38870 0.72900
H 	H 	0.48800 0.82350 0.37180 -0.10300
H 	H 	0.47360 0.86540 0.40670 -0.02900
H 	H 	0.57100 0.80630 0.33890 -1.09900
O 	O 	0.33060 0.21850 0.29330 -0.39700
O 	O 	0.24800 0.17920 0.31240 -0.40500
O 	O 	0.42530 0.01790 0.44570 -0.36400
O 	O 	0.48870 0.07940 0.45810 -0.30600
C 	C 	0.34480 0.15570 0.34550 -0.35000
C 	C 	0.40480 0.16650 0.35510 0.59600
C 	C 	0.43760 0.13620 0.38680 0.01800
C 	C 	0.41100 0.09510 0.40430 -0.03900
C 	C 	0.35000 0.08260 0.39370 -0.12300
H 	H 	0.33090 0.05370 0.40630 0.09500
C 	C 	0.31730 0.11330 0.36390 0.13900
H 	H 	0.27570 0.10500 0.35620 0.01100
C 	C 	0.30100 0.18530 0.31490 0.47900
C 	C 	0.44170 0.06090 0.43670 0.29600
N 	N 	0.43830 0.20830 0.34160 1.03800
H 	H 	0.48270 0.22040 0.35210 -0.13300
H 	H 	0.42710 0.23630 0.32200 -0.11000
H 	H 	0.48480 0.15000 0.39530 -0.67600
N 	N 	0.49930 0.15040 0.38870 0.72900
H 	H 	0.51200 0.17650 0.37180 -0.10400
H 	H 	0.52640 0.13460 0.40670 -0.03200
H 	H 	0.42900 0.19370 0.33890 -1.09900
O 	O 	0.33060 0.71850 0.79330 -0.39700
O 	O 	0.24800 0.67920 0.81240 -0.40600
O 	O 	0.42530 0.51790 0.94570 -0.35900
O 	O 	0.48870 0.57940 0.95810 -0.31100
C 	C 	0.34480 0.65570 0.84550 -0.35100
C 	C 	0.40480 0.66650 0.85510 0.59700
C 	C 	0.43760 0.63620 0.88680 0.01600
C 	C 	0.41100 0.59510 0.90430 -0.03800
C 	C 	0.35000 0.58260 0.89370 -0.12500
H 	H 	0.33090 0.55370 0.90630 0.09800
C 	C 	0.31730 0.61330 0.86390 0.14000
H 	H 	0.27570 0.60500 0.85620 0.01200
C 	C 	0.30100 0.68530 0.81490 0.47900
C 	C 	0.44170 0.56090 0.93670 0.29500
N 	N 	0.43830 0.70830 0.84160 1.03900
H 	H 	0.48270 0.72040 0.85210 -0.13500
H 	H 	0.42710 0.73630 0.82200 -0.11100
H 	H 	0.48480 0.65000 0.89530 -0.67500
N 	N 	0.49930 0.65040 0.88870 0.72700
H 	H 	0.51200 0.67650 0.87180 -0.10400
H 	H 	0.52640 0.63460 0.90670 -0.03200
H 	H 	0.42900 0.69370 0.83890 -1.09900
O 	O 	0.83060 0.21850 0.79330 -0.39700
O 	O 	0.74800 0.17920 0.81240 -0.40600
O 	O 	0.92530 0.01790 0.94570 -0.36300
O 	O 	0.98870 0.07940 0.95810 -0.30600
C 	C 	0.84480 0.15570 0.84550 -0.35500
C 	C 	0.90480 0.16650 0.85510 0.60300
C 	C 	0.93760 0.13620 0.88680 0.00500
C 	C 	0.91100 0.09510 0.90430 -0.03100
C 	C 	0.85000 0.08260 0.89370 -0.12900
H 	H 	0.83090 0.05370 0.90630 0.09700
C 	C 	0.81730 0.11330 0.86390 0.14300
H 	H 	0.77570 0.10500 0.85620 0.00900
C 	C 	0.80100 0.18530 0.81490 0.48000
C 	C 	0.94170 0.06090 0.93670 0.29300
N 	N 	0.93830 0.20830 0.84160 1.03700
H 	H 	0.98270 0.22040 0.85210 -0.12800
H 	H 	0.92710 0.23630 0.82200 -0.10800
H 	H 	0.98480 0.15000 0.89530 -0.64800
N 	N 	0.99930 0.15040 0.88870 0.71400
H 	H 	0.01200 0.17650 0.87180 -0.11300
H 	H 	0.02640 0.13460 0.90670 -0.04200
H 	H 	0.92900 0.19370 0.83890 -1.09800
O 	O 	0.83060 0.71850 0.29330 -0.39700
O 	O 	0.74800 0.67920 0.31240 -0.40500
O 	O 	0.92530 0.51790 0.44570 -0.34900
O 	O 	0.98870 0.57940 0.45810 -0.29600
C 	C 	0.84480 0.65570 0.34550 -0.35400
C 	C 	0.90480 0.66650 0.35510 0.60400
C 	C 	0.93760 0.63620 0.38680 0.00700
C 	C 	0.91100 0.59510 0.40430 -0.02700
C 	C 	0.85000 0.58260 0.39370 -0.12900
H 	H 	0.83090 0.55370 0.40630 0.10100
C 	C 	0.81730 0.61330 0.36390 0.14600
H 	H 	0.77570 0.60500 0.35620 0.01100
C 	C 	0.80100 0.68530 0.31490 0.48100
C 	C 	0.94170 0.56090 0.43670 0.29200
N 	N 	0.93830 0.70830 0.34160 1.03600
H 	H 	0.98270 0.72040 0.35210 -0.12800
H 	H 	0.92710 0.73630 0.32200 -0.10800
H 	H 	0.98480 0.65000 0.39530 -0.65100
N 	N 	0.99930 0.65040 0.38870 0.71600
H 	H 	0.01200 0.67650 0.37180 -0.11100
H 	H 	0.02640 0.63460 0.40670 -0.03900
H 	H 	0.92900 0.69370 0.33890 -1.09800
Cd	Cd	-0.00000 0.00000 0.00222 1.23900
Cd	Cd	0.00000 0.50000 0.50222 1.24000
Cd	Cd	0.50000 0.00000 0.50222 1.23800
Cd	Cd	0.50000 0.50000 0.00222 1.25100
Cd	Cd	0.25000 0.25000 0.25222 1.24500
Cd	Cd	0.25000 0.75000 0.75222 1.24500
Cd	Cd	0.75000 0.25000 0.75222 1.24500
Cd	Cd	0.75000 0.75000 0.25222 1.24500
Cd	Cd	0.41454 0.74939 0.14260 1.24400
O 	O 	0.50220 0.78070 0.10630 -0.35400
O 	O 	0.41680 0.80100 0.07120 -0.33300
O 	O 	0.67470 0.90830 0.94280 -0.29100
O 	O 	0.59430 0.95730 0.93140 -0.42500
O 	O 	0.41400 0.67280 0.08820 -0.39600
O 	O 	0.32930 0.71120 0.11180 -0.44700
O 	O 	0.23430 0.52310 0.94660 -0.34100
O 	O 	0.16440 0.57770 0.95020 -0.32000
C 	C 	0.51080 0.83400 0.04270 0.02900
C 	C 	0.48190 0.86590 0.01490 -0.12500
H 	H 	0.43800 0.86950 0.01670 0.09400
C 	C 	0.51610 0.89480 0.98240 0.19000
C 	C 	0.57720 0.89000 0.98100 -0.18100
C 	C 	0.60840 0.85780 0.01180 0.08800
H 	H 	0.65250 0.85640 0.01270 0.03200
C 	C 	0.57320 0.82910 0.04010 -0.10100
H 	H 	0.59330 0.80490 0.05850 0.09100
C 	C 	0.47460 0.80400 0.07720 0.28600
C 	C 	0.61790 0.92290 0.94950 0.36900
C 	C 	0.31730 0.64720 0.05690 -0.81000
C 	C 	0.25430 0.65820 0.04850 0.70700
C 	C 	0.22150 0.62780 0.01950 -0.59800
H 	H 	0.17900 0.63530 0.01410 0.24900
C 	C 	0.24720 0.58800 0.99840 0.41500
C 	C 	0.31120 0.57500 0.00790 -0.97000
H 	H 	0.33010 0.54620 0.99480 0.37400
C 	C 	0.34310 0.60480 0.03570 1.50900
C 	C 	0.35580 0.67920 0.08680 0.58500
C 	C 	0.21140 0.56200 0.96210 0.18900
N 	N 	0.48240 0.92430 0.95250 -0.33700
H 	H 	0.50260 0.93860 0.93130 0.20200
H 	H 	0.44270 0.92760 0.95420 0.17800
N 	N 	0.22400 0.69890 0.06510 0.29700
H 	H 	0.17710 0.71120 0.05880 0.01000
H 	H 	0.23590 0.72450 0.08680 0.03100
H 	H 	0.37800 0.60320 0.04320 -0.93800
N 	N 	0.40840 0.59790 0.04510 0.37400
H 	H 	0.41390 0.61210 0.07200 0.08400
H 	H 	0.42990 0.57010 0.03760 -0.05000
H 	H 	0.23600 0.69090 0.05830 -0.49100
Cd	Cd	0.41454 0.24939 0.64260 1.24400
O 	O 	0.50220 0.28070 0.60630 -0.35500
O 	O 	0.41680 0.30100 0.57120 -0.33400
O 	O 	0.67470 0.40830 0.44280 -0.29000
O 	O 	0.59430 0.45730 0.43140 -0.43200
O 	O 	0.41400 0.17280 0.58820 -0.39400
O 	O 	0.32930 0.21120 0.61180 -0.44400
O 	O 	0.23430 0.02310 0.44660 -0.34500
O 	O 	0.16440 0.07770 0.45020 -0.31600
C 	C 	0.51080 0.33400 0.54270 0.03000
C 	C 	0.48190 0.36590 0.51490 -0.14800
H 	H 	0.43800 0.36950 0.51670 0.09500
C 	C 	0.51610 0.39480 0.48240 0.20300
C 	C 	0.57720 0.39000 0.48100 -0.16500
C 	C 	0.60840 0.35780 0.51180 0.06200
H 	H 	0.65250 0.35640 0.51270 0.03400
C 	C 	0.57320 0.32910 0.54010 -0.09700
H 	H 	0.59330 0.30490 0.55850 0.08800
C 	C 	0.47460 0.30400 0.57720 0.28400
C 	C 	0.61790 0.42290 0.44950 0.36800
C 	C 	0.31730 0.14720 0.55690 -0.77100
C 	C 	0.25430 0.15820 0.54850 0.70000
C 	C 	0.22150 0.12780 0.51950 -0.62000
H 	H 	0.17900 0.13530 0.51410 0.25000
C 	C 	0.24720 0.08800 0.49840 0.44200
C 	C 	0.31120 0.07500 0.50790 -0.95800
H 	H 	0.33010 0.04620 0.49480 0.37700
C 	C 	0.34310 0.10480 0.53570 1.38300
C 	C 	0.35580 0.17920 0.58680 0.56700
C 	C 	0.21140 0.06200 0.46210 0.18300
N 	N 	0.48240 0.42430 0.45250 -0.33800
H 	H 	0.50260 0.43860 0.43130 0.19900
H 	H 	0.44270 0.42760 0.45420 0.17900
N 	N 	0.22400 0.19890 0.56510 0.30100
H 	H 	0.17710 0.21120 0.55880 0.00800
H 	H 	0.23590 0.22450 0.58680 0.03000
H 	H 	0.37800 0.10320 0.54320 -0.82300
N 	N 	0.40840 0.09790 0.54510 0.28600
H 	H 	0.41390 0.11210 0.57200 0.09800
H 	H 	0.42990 0.07010 0.53760 -0.02900
H 	H 	0.23600 0.19090 0.55830 -0.49400
Cd	Cd	0.91454 0.74939 0.64260 1.24500
O 	O 	0.00220 0.78070 0.60630 -0.37800
O 	O 	0.91680 0.80100 0.57120 -0.34300
O 	O 	0.17470 0.90830 0.44280 -0.28400
O 	O 	0.09430 0.95730 0.43140 -0.42000
O 	O 	0.91400 0.67280 0.58820 -0.39100
O 	O 	0.82930 0.71120 0.61180 -0.44300
O 	O 	0.73430 0.52310 0.44660 -0.33500
O 	O 	0.66440 0.57770 0.45020 -0.31100
C 	C 	0.01080 0.83400 0.54270 -0.03700
C 	C 	0.98190 0.86590 0.51490 -0.07500
H 	H 	0.93800 0.86950 0.51670 0.07400
C 	C 	0.01610 0.89480 0.48240 0.15400
C 	C 	0.07720 0.89000 0.48100 -0.13400
C 	C 	0.10840 0.85780 0.51180 0.02500
H 	H 	0.15250 0.85640 0.51270 0.04600
C 	C 	0.07320 0.82910 0.54010 -0.05000
H 	H 	0.09330 0.80490 0.55850 0.07100
C 	C 	0.97460 0.80400 0.57720 0.33100
C 	C 	0.11790 0.92290 0.44950 0.35600
C 	C 	0.81730 0.64720 0.55690 -0.76900
C 	C 	0.75430 0.65820 0.54850 0.70100
C 	C 	0.72150 0.62780 0.51950 -0.62100
H 	H 	0.67900 0.63530 0.51410 0.25300
C 	C 	0.74720 0.58800 0.49840 0.44600
C 	C 	0.81120 0.57500 0.50790 -0.95600
H 	H 	0.83010 0.54620 0.49480 0.38100
C 	C 	0.84310 0.60480 0.53570 1.38100
C 	C 	0.85580 0.67920 0.58680 0.56700
C 	C 	0.71140 0.56200 0.46210 0.18100
N 	N 	0.98240 0.92430 0.45250 -0.31200
H 	H 	0.00260 0.93860 0.43130 0.18700
H 	H 	0.94270 0.92760 0.45420 0.17700
N 	N 	0.72400 0.69890 0.56510 0.30000
H 	H 	0.67710 0.71120 0.55880 0.01000
H 	H 	0.73590 0.72450 0.58680 0.03000
H 	H 	0.87800 0.60320 0.54320 -0.81800
N 	N 	0.90840 0.59790 0.54510 0.28100
H 	H 	0.91390 0.61210 0.57200 0.10100
H 	H 	0.92990 0.57010 0.53760 -0.02500
H 	H 	0.73600 0.69090 0.55830 -0.49300
Cd	Cd	0.91454 0.24939 0.14260 1.24600
O 	O 	0.00220 0.28070 0.10630 -0.38100
O 	O 	0.91680 0.30100 0.07120 -0.34400
O 	O 	0.17470 0.40830 0.94280 -0.29400
O 	O 	0.09430 0.45730 0.93140 -0.43200
O 	O 	0.91400 0.17280 0.08820 -0.39200
O 	O 	0.82930 0.21120 0.11180 -0.44700
O 	O 	0.73430 0.02310 0.94660 -0.34800
O 	O 	0.66440 0.07770 0.95020 -0.32100
C 	C 	0.01080 0.33400 0.04270 -0.04800
C 	C 	0.98190 0.36590 0.01490 -0.04600
H 	H 	0.93800 0.36950 0.01670 0.06900
C 	C 	0.01610 0.39480 0.98240 0.13200
C 	C 	0.07720 0.39000 0.98100 -0.14900
C 	C 	0.10840 0.35780 0.01180 0.04400
H 	H 	0.15250 0.35640 0.01270 0.04400
C 	C 	0.07320 0.32910 0.04010 -0.05000
H 	H 	0.09330 0.30490 0.05850 0.07200
C 	C 	0.97460 0.30400 0.07720 0.33800
C 	C 	0.11790 0.42290 0.94950 0.35900
C 	C 	0.81730 0.14720 0.05690 -0.80900
C 	C 	0.75430 0.15820 0.04850 0.70700
C 	C 	0.72150 0.12780 0.01950 -0.59800
H 	H 	0.67900 0.13530 0.01410 0.25000
C 	C 	0.74720 0.08800 0.99840 0.41300
C 	C 	0.81120 0.07500 0.00790 -0.97000
H 	H 	0.83010 0.04620 0.99480 0.37100
C 	C 	0.84310 0.10480 0.03570 1.50600
C 	C 	0.85580 0.17920 0.08680 0.58400
C 	C 	0.71140 0.06200 0.96210 0.19000
N 	N 	0.98240 0.42430 0.95250 -0.30600
H 	H 	0.00260 0.43860 0.93130 0.18200
H 	H 	0.94270 0.42760 0.95420 0.17000
N 	N 	0.72400 0.19890 0.06510 0.29800
H 	H 	0.67710 0.21120 0.05880 0.01100
H 	H 	0.73590 0.22450 0.08680 0.03100
H 	H 	0.87800 0.10320 0.04320 -0.93800
N 	N 	0.90840 0.09790 0.04510 0.37400
H 	H 	0.91390 0.11210 0.07200 0.08300
H 	H 	0.92990 0.07010 0.03760 -0.05300
H 	H 	0.73600 0.19090 0.05830 -0.49200
Cd	Cd	0.66454 0.50061 0.39260 1.24400
O 	O 	0.75220 0.46930 0.35630 -0.35500
O 	O 	0.66680 0.44900 0.32120 -0.33400
O 	O 	0.92470 0.34170 0.19280 -0.28600
O 	O 	0.84430 0.29270 0.18140 -0.43100
O 	O 	0.66400 0.57720 0.33820 -0.39400
O 	O 	0.57930 0.53880 0.36180 -0.44300
O 	O 	0.48430 0.72690 0.19660 -0.33500
O 	O 	0.41440 0.67230 0.20020 -0.31100
C 	C 	0.76080 0.41600 0.29270 0.03000
C 	C 	0.73190 0.38410 0.26490 -0.14700
H 	H 	0.68800 0.38050 0.26670 0.09500
C 	C 	0.76610 0.35520 0.23240 0.20300
C 	C 	0.82720 0.36000 0.23100 -0.16400
C 	C 	0.85840 0.39220 0.26180 0.06200
H 	H 	0.90250 0.39360 0.26270 0.03600
C 	C 	0.82320 0.42090 0.29010 -0.09600
H 	H 	0.84330 0.44510 0.30850 0.08900
C 	C 	0.72460 0.44600 0.32720 0.28400
C 	C 	0.86790 0.32710 0.19950 0.36700
C 	C 	0.56730 0.60280 0.30690 -0.77000
C 	C 	0.50430 0.59180 0.29850 0.70100
C 	C 	0.47150 0.62220 0.26950 -0.62100
H 	H 	0.42900 0.61470 0.26410 0.25300
C 	C 	0.49720 0.66200 0.24840 0.44600
C 	C 	0.56120 0.67500 0.25790 -0.95600
H 	H 	0.58010 0.70380 0.24480 0.38100
C 	C 	0.59310 0.64520 0.28570 1.38100
C 	C 	0.60580 0.57080 0.33680 0.56700
C 	C 	0.46140 0.68800 0.21210 0.18000
N 	N 	0.73240 0.32570 0.20250 -0.33800
H 	H 	0.75260 0.31140 0.18130 0.20000
H 	H 	0.69270 0.32240 0.20420 0.17900
N 	N 	0.47400 0.55110 0.31510 0.30000
H 	H 	0.42710 0.53880 0.30880 0.01000
H 	H 	0.48590 0.52550 0.33680 0.03000
H 	H 	0.62800 0.64680 0.29320 -0.81900
N 	N 	0.65840 0.65210 0.29510 0.28200
H 	H 	0.66390 0.63790 0.32200 0.10000
H 	H 	0.67990 0.67990 0.28760 -0.02500
H 	H 	0.48600 0.55910 0.30830 -0.49300
Cd	Cd	0.66454 0.00061 0.89260 1.23700
O 	O 	0.75220 0.96930 0.85630 -0.34500
O 	O 	0.66680 0.94900 0.82120 -0.32800
O 	O 	0.92470 0.84170 0.69280 -0.28400
O 	O 	0.84430 0.79270 0.68140 -0.43200
O 	O 	0.66400 0.07720 0.83820 -0.39800
O 	O 	0.57930 0.03880 0.86180 -0.45100
O 	O 	0.48430 0.22690 0.69660 -0.33600
O 	O 	0.41440 0.17230 0.70020 -0.31200
C 	C 	0.76080 0.91600 0.79270 0.03400
C 	C 	0.73190 0.88410 0.76490 -0.14800
H 	H 	0.68800 0.88050 0.76670 0.09600
C 	C 	0.76610 0.85520 0.73240 0.20500
C 	C 	0.82720 0.86000 0.73100 -0.16400
C 	C 	0.85840 0.89220 0.76180 0.06500
H 	H 	0.90250 0.89360 0.76270 0.03700
C 	C 	0.82320 0.92090 0.79010 -0.09700
H 	H 	0.84330 0.94510 0.80850 0.09300
C 	C 	0.72460 0.94600 0.82720 0.28200
C 	C 	0.86790 0.82710 0.69950 0.36800
C 	C 	0.56730 0.10280 0.80690 -0.77200
C 	C 	0.50430 0.09180 0.79850 0.69800
C 	C 	0.47150 0.12220 0.76950 -0.62000
H 	H 	0.42900 0.11470 0.76410 0.25100
C 	C 	0.49720 0.16200 0.74840 0.44500
C 	C 	0.56120 0.17500 0.75790 -0.95800
H 	H 	0.58010 0.20380 0.74480 0.38100
C 	C 	0.59310 0.14520 0.78570 1.38400
C 	C 	0.60580 0.07080 0.83680 0.56700
C 	C 	0.46140 0.18800 0.71210 0.18100
N 	N 	0.73240 0.82570 0.70250 -0.33800
H 	H 	0.75260 0.81140 0.68130 0.20000
H 	H 	0.69270 0.82240 0.70420 0.18000
N 	N 	0.47400 0.05110 0.81510 0.29600
H 	H 	0.42710 0.03880 0.80880 0.00600
H 	H 	0.48590 0.02550 0.83680 0.02300
H 	H 	0.62800 0.14680 0.79320 -0.82200
N 	N 	0.65840 0.15210 0.79510 0.28300
H 	H 	0.66390 0.13790 0.82200 0.09900
H 	H 	0.67990 0.17990 0.78760 -0.02600
H 	H 	0.48600 0.05910 0.80830 -0.48900
Cd	Cd	0.16454 0.50061 0.89260 1.24400
O 	O 	0.25220 0.46930 0.85630 -0.35600
O 	O 	0.16680 0.44900 0.82120 -0.33500
O 	O 	0.42470 0.34170 0.69280 -0.29000
O 	O 	0.34430 0.29270 0.68140 -0.43200
O 	O 	0.16400 0.57720 0.83820 -0.39400
O 	O 	0.07930 0.53880 0.86180 -0.44600
O 	O 	0.98430 0.72690 0.69660 -0.32800
O 	O 	0.91440 0.67230 0.70020 -0.30900
C 	C 	0.26080 0.41600 0.79270 0.02900
C 	C 	0.23190 0.38410 0.76490 -0.14800
H 	H 	0.18800 0.38050 0.76670 0.09400
C 	C 	0.26610 0.35520 0.73240 0.20200
C 	C 	0.32720 0.36000 0.73100 -0.16500
C 	C 	0.35840 0.39220 0.76180 0.06200
H 	H 	0.40250 0.39360 0.76270 0.03300
C 	C 	0.32320 0.42090 0.79010 -0.09700
H 	H 	0.34330 0.44510 0.80850 0.08700
C 	C 	0.22460 0.44600 0.82720 0.28400
C 	C 	0.36790 0.32710 0.69950 0.36800
C 	C 	0.06730 0.60280 0.80690 -0.76400
C 	C 	0.00430 0.59180 0.79850 0.68200
C 	C 	0.97150 0.62220 0.76950 -0.60300
H 	H 	0.92900 0.61470 0.76410 0.24800
C 	C 	0.99720 0.66200 0.74840 0.45300
C 	C 	0.06120 0.67500 0.75790 -0.96200
H 	H 	0.08010 0.70380 0.74480 0.38100
C 	C 	0.09310 0.64520 0.78570 1.36900
C 	C 	0.10580 0.57080 0.83680 0.56400
C 	C 	0.96140 0.68800 0.71210 0.18000
N 	N 	0.23240 0.32570 0.70250 -0.33800
H 	H 	0.25260 0.31140 0.68130 0.19900
H 	H 	0.19270 0.32240 0.70420 0.17900
N 	N 	0.97400 0.55110 0.81510 0.33300
H 	H 	0.92710 0.53880 0.80880 0.00600
H 	H 	0.98590 0.52550 0.83680 0.02800
H 	H 	0.12800 0.64680 0.79320 -0.80900
N 	N 	0.15840 0.65210 0.79510 0.27400
H 	H 	0.16390 0.63790 0.82200 0.10000
H 	H 	0.17990 0.67990 0.78760 -0.02300
H 	H 	0.98600 0.55910 0.80830 -0.51200
Cd	Cd	0.16454 0.00061 0.39260 1.23600
O 	O 	0.25220 0.96930 0.35630 -0.34400
O 	O 	0.16680 0.94900 0.32120 -0.32800
O 	O 	0.42470 0.84170 0.19280 -0.28800
O 	O 	0.34430 0.79270 0.18140 -0.43200
O 	O 	0.16400 0.07720 0.33820 -0.39800
O 	O 	0.07930 0.03880 0.36180 -0.45500
O 	O 	0.98430 0.22690 0.19660 -0.32800
O 	O 	0.91440 0.17230 0.20020 -0.31000
C 	C 	0.26080 0.91600 0.29270 0.03400
C 	C 	0.23190 0.88410 0.26490 -0.14800
H 	H 	0.18800 0.88050 0.26670 0.09500
C 	C 	0.26610 0.85520 0.23240 0.20500
C 	C 	0.32720 0.86000 0.23100 -0.16500
C 	C 	0.35840 0.89220 0.26180 0.06500
H 	H 	0.40250 0.89360 0.26270 0.03500
C 	C 	0.32320 0.92090 0.29010 -0.09800
H 	H 	0.34330 0.94510 0.30850 0.09300
C 	C 	0.22460 0.94600 0.32720 0.28200
C 	C 	0.36790 0.82710 0.19950 0.36800
C 	C 	0.06730 0.10280 0.30690 -0.76500
C 	C 	0.00430 0.09180 0.29850 0.67600
C 	C 	0.97150 0.12220 0.26950 -0.60000
H 	H 	0.92900 0.11470 0.26410 0.24600
C 	C 	0.99720 0.16200 0.24840 0.45300
C 	C 	0.06120 0.17500 0.25790 -0.96500
H 	H 	0.08010 0.20380 0.24480 0.38100
C 	C 	0.09310 0.14520 0.28570 1.37200
C 	C 	0.10580 0.07080 0.33680 0.56400
C 	C 	0.96140 0.18800 0.21210 0.18000
N 	N 	0.23240 0.82570 0.20250 -0.33800
H 	H 	0.25260 0.81140 0.18130 0.20000
H 	H 	0.19270 0.82240 0.20420 0.18000
N 	N 	0.97400 0.05110 0.31510 0.33200
H 	H 	0.92710 0.03880 0.30880 0.00200
H 	H 	0.98590 0.02550 0.33680 0.02100
H 	H 	0.12800 0.14680 0.29320 -0.81100
N 	N 	0.15840 0.15210 0.29510 0.27500
H 	H 	0.16390 0.13790 0.32200 0.10000
H 	H 	0.17990 0.17990 0.28760 -0.02300
H 	H 	0.98600 0.05910 0.30830 -0.51000
Cd	Cd	0.58546 0.25061 0.14260 1.24400
O 	O 	0.49780 0.21930 0.10630 -0.35500
O 	O 	0.58320 0.19900 0.07120 -0.33400
O 	O 	0.32530 0.09170 0.94280 -0.30100
O 	O 	0.40570 0.04270 0.93140 -0.44400
O 	O 	0.58600 0.32720 0.08820 -0.39600
O 	O 	0.67070 0.28880 0.11180 -0.44700
O 	O 	0.76570 0.47690 0.94660 -0.34000
O 	O 	0.83560 0.42230 0.95020 -0.31600
C 	C 	0.48920 0.16600 0.04270 0.02700
C 	C 	0.51810 0.13410 0.01490 -0.12700
H 	H 	0.56200 0.13050 0.01670 0.09200
C 	C 	0.48390 0.10520 0.98240 0.18600
C 	C 	0.42280 0.11000 0.98100 -0.18400
C 	C 	0.39160 0.14220 0.01180 0.08600
H 	H 	0.34750 0.14360 0.01270 0.03000
C 	C 	0.42680 0.17090 0.04010 -0.10200
H 	H 	0.40670 0.19510 0.05850 0.09100
C 	C 	0.52540 0.19600 0.07720 0.28500
C 	C 	0.38210 0.07710 0.94950 0.37100
C 	C 	0.68270 0.35280 0.05690 -0.80900
C 	C 	0.74570 0.34180 0.04850 0.70900
C 	C 	0.77850 0.37220 0.01950 -0.59900
H 	H 	0.82100 0.36470 0.01410 0.25300
C 	C 	0.75280 0.41200 0.99840 0.41600
C 	C 	0.68880 0.42500 0.00790 -0.96900
H 	H 	0.66990 0.45380 0.99480 0.37400
C 	C 	0.65690 0.39520 0.03570 1.50700
C 	C 	0.64420 0.32080 0.08680 0.58500
C 	C 	0.78860 0.43800 0.96210 0.18800
N 	N 	0.51760 0.07570 0.95250 -0.33500
H 	H 	0.49740 0.06140 0.93130 0.19600
H 	H 	0.55730 0.07240 0.95420 0.17300
N 	N 	0.77600 0.30110 0.06510 0.29700
H 	H 	0.82290 0.28880 0.05880 0.01300
H 	H 	0.76410 0.27550 0.08680 0.03200
H 	H 	0.62200 0.39680 0.04320 -0.93700
N 	N 	0.59160 0.40210 0.04510 0.37300
H 	H 	0.58610 0.38790 0.07200 0.08400
H 	H 	0.57010 0.42990 0.03760 -0.05000
H 	H 	0.76400 0.30910 0.05830 -0.49100
Cd	Cd	0.58546 0.75061 0.64260 1.24400
O 	O 	0.49780 0.71930 0.60630 -0.35500
O 	O 	0.58320 0.69900 0.57120 -0.33400
O 	O 	0.32530 0.59170 0.44280 -0.29000
O 	O 	0.40570 0.54270 0.43140 -0.43300
O 	O 	0.58600 0.82720 0.58820 -0.39400
O 	O 	0.67070 0.78880 0.61180 -0.44300
O 	O 	0.76570 0.97690 0.44660 -0.32600
O 	O 	0.83560 0.92230 0.45020 -0.30600
C 	C 	0.48920 0.66600 0.54270 0.03000
C 	C 	0.51810 0.63410 0.51490 -0.14800
H 	H 	0.56200 0.63050 0.51670 0.09500
C 	C 	0.48390 0.60520 0.48240 0.20300
C 	C 	0.42280 0.61000 0.48100 -0.16500
C 	C 	0.39160 0.64220 0.51180 0.06200
H 	H 	0.34750 0.64360 0.51270 0.03300
C 	C 	0.42680 0.67090 0.54010 -0.09700
H 	H 	0.40670 0.69510 0.55850 0.08800
C 	C 	0.52540 0.69600 0.57720 0.28400
C 	C 	0.38210 0.57710 0.44950 0.36800
C 	C 	0.68270 0.85280 0.55690 -0.76900
C 	C 	0.74570 0.84180 0.54850 0.70300
C 	C 	0.77850 0.87220 0.51950 -0.62200
H 	H 	0.82100 0.86470 0.51410 0.25500
C 	C 	0.75280 0.91200 0.49840 0.45000
C 	C 	0.68880 0.92500 0.50790 -0.95500
H 	H 	0.66990 0.95380 0.49480 0.38500
C 	C 	0.65690 0.89520 0.53570 1.38100
C 	C 	0.64420 0.82080 0.58680 0.56800
C 	C 	0.78860 0.93800 0.46210 0.17800
N 	N 	0.51760 0.57570 0.45250 -0.33800
H 	H 	0.49740 0.56140 0.43130 0.19900
H 	H 	0.55730 0.57240 0.45420 0.17900
N 	N 	0.77600 0.80110 0.56510 0.29900
H 	H 	0.82290 0.78880 0.55880 0.01200
H 	H 	0.76410 0.77550 0.58680 0.03000
H 	H 	0.62200 0.89680 0.54320 -0.81500
N 	N 	0.59160 0.90210 0.54510 0.27800
H 	H 	0.58610 0.88790 0.57200 0.10200
H 	H 	0.57010 0.92990 0.53760 -0.02000
H 	H 	0.76400 0.80910 0.55830 -0.49200
Cd	Cd	0.08546 0.25061 0.64260 1.24200
O 	O 	0.99780 0.21930 0.60630 -0.32900
O 	O 	0.08320 0.19900 0.57120 -0.32400
O 	O 	0.82530 0.09170 0.44280 -0.29700
O 	O 	0.90570 0.04270 0.43140 -0.44400
O 	O 	0.08600 0.32720 0.58820 -0.39800
O 	O 	0.17070 0.28880 0.61180 -0.44400
O 	O 	0.26570 0.47690 0.44660 -0.33600
O 	O 	0.33560 0.42230 0.45020 -0.31100
C 	C 	0.98920 0.16600 0.54270 0.10600
C 	C 	0.01810 0.13410 0.51490 -0.23100
H 	H 	0.06200 0.13050 0.51670 0.11900
C 	C 	0.98390 0.10520 0.48240 0.26000
C 	C 	0.92280 0.11000 0.48100 -0.20100
C 	C 	0.89160 0.14220 0.51180 0.10500
H 	H 	0.84750 0.14360 0.51270 0.01900
C 	C 	0.92680 0.17090 0.54010 -0.15100
H 	H 	0.90670 0.19510 0.55850 0.10600
C 	C 	0.02540 0.19600 0.57720 0.23000
C 	C 	0.88210 0.07710 0.44950 0.38100
C 	C 	0.18270 0.35280 0.55690 -0.77100
C 	C 	0.24570 0.34180 0.54850 0.70200
C 	C 	0.27850 0.37220 0.51950 -0.62100
H 	H 	0.32100 0.36470 0.51410 0.25300
C 	C 	0.25280 0.41200 0.49840 0.44600
C 	C 	0.18880 0.42500 0.50790 -0.95700
H 	H 	0.16990 0.45380 0.49480 0.38100
C 	C 	0.15690 0.39520 0.53570 1.38200
C 	C 	0.14420 0.32080 0.58680 0.56800
C 	C 	0.28860 0.43800 0.46210 0.18000
N 	N 	0.01760 0.07570 0.45250 -0.37000
H 	H 	0.99740 0.06140 0.43130 0.21500
H 	H 	0.05730 0.07240 0.45420 0.18300
N 	N 	0.27600 0.30110 0.56510 0.30000
H 	H 	0.32290 0.28880 0.55880 0.01000
H 	H 	0.26410 0.27550 0.58680 0.03000
H 	H 	0.12200 0.39680 0.54320 -0.82000
N 	N 	0.09160 0.40210 0.54510 0.28200
H 	H 	0.08610 0.38790 0.57200 0.09900
H 	H 	0.07010 0.42990 0.53760 -0.02500
H 	H 	0.26400 0.30910 0.55830 -0.49300
Cd	Cd	0.08546 0.75061 0.14260 1.24200
O 	O 	0.99780 0.71930 0.10630 -0.33100
O 	O 	0.08320 0.69900 0.07120 -0.32300
O 	O 	0.82530 0.59170 0.94280 -0.29800
O 	O 	0.90570 0.54270 0.93140 -0.43700
O 	O 	0.08600 0.82720 0.08820 -0.39900
O 	O 	0.17070 0.78880 0.11180 -0.44800
O 	O 	0.26570 0.97690 0.94660 -0.33100
O 	O 	0.33560 0.92230 0.95020 -0.31500
C 	C 	0.98920 0.66600 0.04270 0.09900
C 	C 	0.01810 0.63410 0.01490 -0.20300
H 	H 	0.06200 0.63050 0.01670 0.11600
C 	C 	0.98390 0.60520 0.98240 0.24200
C 	C 	0.92280 0.61000 0.98100 -0.21400
C 	C 	0.89160 0.64220 0.01180 0.12700
H 	H 	0.84750 0.64360 0.01270 0.01800
C 	C 	0.92680 0.67090 0.04010 -0.15100
H 	H 	0.90670 0.69510 0.05850 0.10800
C 	C 	0.02540 0.69600 0.07720 0.23700
C 	C 	0.88210 0.57710 0.94950 0.38100
C 	C 	0.18270 0.85280 0.05690 -0.81000
C 	C 	0.24570 0.84180 0.04850 0.70900
C 	C 	0.27850 0.87220 0.01950 -0.59900
H 	H 	0.32100 0.86470 0.01410 0.25200
C 	C 	0.25280 0.91200 0.99840 0.41900
C 	C 	0.18880 0.92500 0.00790 -0.96900
H 	H 	0.16990 0.95380 0.99480 0.37800
C 	C 	0.15690 0.89520 0.03570 1.50900
C 	C 	0.14420 0.82080 0.08680 0.58600
C 	C 	0.28860 0.93800 0.96210 0.18700
N 	N 	0.01760 0.57570 0.95250 -0.36500
H 	H 	0.99740 0.56140 0.93130 0.21500
H 	H 	0.05730 0.57240 0.95420 0.18100
N 	N 	0.27600 0.80110 0.06510 0.29600
H 	H 	0.32290 0.78880 0.05880 0.01200
H 	H 	0.26410 0.77550 0.08680 0.03200
H 	H 	0.12200 0.89680 0.04320 -0.93500
N 	N 	0.09160 0.90210 0.04510 0.37000
H 	H 	0.08610 0.88790 0.07200 0.08500
H 	H 	0.07010 0.92990 0.03760 -0.04500
H 	H 	0.26400 0.80910 0.05830 -0.49100
Cd	Cd	0.83546 0.99939 0.39260 1.25100
O 	O 	0.74780 0.03070 0.35630 -0.36600
O 	O 	0.83320 0.05100 0.32120 -0.33900
O 	O 	0.57530 0.15830 0.19280 -0.29200
O 	O 	0.65570 0.20730 0.18140 -0.43200
O 	O 	0.83600 0.92280 0.33820 -0.39000
O 	O 	0.92070 0.96120 0.36180 -0.43300
O 	O 	0.01570 0.77310 0.19660 -0.34200
O 	O 	0.08560 0.82770 0.20020 -0.31100
C 	C 	0.73920 0.08400 0.29270 0.02600
C 	C 	0.76810 0.11590 0.26490 -0.14700
H 	H 	0.81200 0.11950 0.26670 0.09400
C 	C 	0.73390 0.14480 0.23240 0.20200
C 	C 	0.67280 0.14000 0.23100 -0.16500
C 	C 	0.64160 0.10780 0.26180 0.06000
H 	H 	0.59750 0.10640 0.26270 0.03200
C 	C 	0.67680 0.07910 0.29010 -0.09600
H 	H 	0.65670 0.05490 0.30850 0.08300
C 	C 	0.77540 0.05400 0.32720 0.28500
C 	C 	0.63210 0.17290 0.19950 0.36700
C 	C 	0.93270 0.89720 0.30690 -0.77400
C 	C 	0.99570 0.90820 0.29850 0.72400
C 	C 	0.02850 0.87780 0.26950 -0.63900
H 	H 	0.07100 0.88530 0.26410 0.25900
C 	C 	0.00280 0.83800 0.24840 0.43900
C 	C 	0.93880 0.82500 0.25790 -0.94700
H 	H 	0.91990 0.79620 0.24480 0.38000
C 	C 	0.90690 0.85480 0.28570 1.39000
C 	C 	0.89420 0.92920 0.33680 0.57000
C 	C 	0.03860 0.81200 0.21210 0.18100
N 	N 	0.76760 0.17430 0.20250 -0.33800
H 	H 	0.74740 0.18860 0.18130 0.19900
H 	H 	0.80730 0.17760 0.20420 0.17900
N 	N 	0.02600 0.94890 0.31510 0.27300
H 	H 	0.07290 0.96120 0.30880 0.01800
H 	H 	0.01410 0.97450 0.33680 0.03900
H 	H 	0.87200 0.85320 0.29320 -0.82600
N 	N 	0.84160 0.84790 0.29510 0.28800
H 	H 	0.83610 0.86210 0.32200 0.09900
H 	H 	0.82010 0.82010 0.28760 -0.02700
H 	H 	0.01400 0.94090 0.30830 -0.47900
Cd	Cd	0.83546 0.49939 0.89260 1.24400
O 	O 	0.74780 0.53070 0.85630 -0.35600
O 	O 	0.83320 0.55100 0.82120 -0.33300
O 	O 	0.57530 0.65830 0.69280 -0.29000
O 	O 	0.65570 0.70730 0.68140 -0.43300
O 	O 	0.83600 0.42280 0.83820 -0.39400
O 	O 	0.92070 0.46120 0.86180 -0.44100
O 	O 	0.01570 0.27310 0.69660 -0.34300
O 	O 	0.08560 0.32770 0.70020 -0.31300
C 	C 	0.73920 0.58400 0.79270 0.03000
C 	C 	0.76810 0.61590 0.76490 -0.14800
H 	H 	0.81200 0.61950 0.76670 0.09500
C 	C 	0.73390 0.64480 0.73240 0.20300
C 	C 	0.67280 0.64000 0.73100 -0.16500
C 	C 	0.64160 0.60780 0.76180 0.06200
H 	H 	0.59750 0.60640 0.76270 0.03300
C 	C 	0.67680 0.57910 0.79010 -0.09700
H 	H 	0.65670 0.55490 0.80850 0.08800
C 	C 	0.77540 0.55400 0.82720 0.28300
C 	C 	0.63210 0.67290 0.69950 0.36800
C 	C 	0.93270 0.39720 0.80690 -0.77600
C 	C 	0.99570 0.40820 0.79850 0.72200
C 	C 	0.02850 0.37780 0.76950 -0.64000
H 	H 	0.07100 0.38530 0.76410 0.25800
C 	C 	0.00280 0.33800 0.74840 0.43800
C 	C 	0.93880 0.32500 0.75790 -0.94900
H 	H 	0.91990 0.29620 0.74480 0.38100
C 	C 	0.90690 0.35480 0.78570 1.39300
C 	C 	0.89420 0.42920 0.83680 0.57100
C 	C 	0.03860 0.31200 0.71210 0.18200
N 	N 	0.76760 0.67430 0.70250 -0.33800
H 	H 	0.74740 0.68860 0.68130 0.19900
H 	H 	0.80730 0.67760 0.70420 0.17900
N 	N 	0.02600 0.44890 0.81510 0.26700
H 	H 	0.07290 0.46120 0.80880 0.01400
H 	H 	0.01410 0.47450 0.83680 0.03200
H 	H 	0.87200 0.35320 0.79320 -0.83000
N 	N 	0.84160 0.34790 0.79510 0.29000
H 	H 	0.83610 0.36210 0.82200 0.09800
H 	H 	0.82010 0.32010 0.78760 -0.02800
H 	H 	0.01400 0.44090 0.80830 -0.47400
Cd	Cd	0.33546 0.99939 0.89260 1.25100
O 	O 	0.24780 0.03070 0.85630 -0.36700
O 	O 	0.33320 0.05100 0.82120 -0.34100
O 	O 	0.07530 0.15830 0.69280 -0.29600
O 	O 	0.15570 0.20730 0.68140 -0.43400
O 	O 	0.33600 0.92280 0.83820 -0.39000
O 	O 	0.42070 0.96120 0.86180 -0.43500
O 	O 	0.51570 0.77310 0.69660 -0.33500
O 	O 	0.58560 0.82770 0.70020 -0.31000
C 	C 	0.23920 0.08400 0.79270 0.02500
C 	C 	0.26810 0.11590 0.76490 -0.14700
H 	H 	0.31200 0.11950 0.76670 0.09400
C 	C 	0.23390 0.14480 0.73240 0.20100
C 	C 	0.17280 0.14000 0.73100 -0.16700
C 	C 	0.14160 0.10780 0.76180 0.05900
H 	H 	0.09750 0.10640 0.76270 0.03000
C 	C 	0.17680 0.07910 0.79010 -0.09700
H 	H 	0.15670 0.05490 0.80850 0.08200
C 	C 	0.27540 0.05400 0.82720 0.28500
C 	C 	0.13210 0.17290 0.69950 0.36800
C 	C 	0.43270 0.89720 0.80690 -0.76800
C 	C 	0.49570 0.90820 0.79850 0.70500
C 	C 	0.52850 0.87780 0.76950 -0.62200
H 	H 	0.57100 0.88530 0.76410 0.25400
C 	C 	0.50280 0.83800 0.74840 0.44600
C 	C 	0.43880 0.82500 0.75790 -0.95300
H 	H 	0.41990 0.79620 0.74480 0.38000
C 	C 	0.40690 0.85480 0.78570 1.37700
C 	C 	0.39420 0.92920 0.83680 0.56700
C 	C 	0.53860 0.81200 0.71210 0.18000
N 	N 	0.26760 0.17430 0.70250 -0.33800
H 	H 	0.24740 0.18860 0.68130 0.19900
H 	H 	0.30730 0.17760 0.70420 0.17900
N 	N 	0.52600 0.94890 0.81510 0.30400
H 	H 	0.57290 0.96120 0.80880 0.01400
H 	H 	0.51410 0.97450 0.83680 0.03700
H 	H 	0.37200 0.85320 0.79320 -0.81600
N 	N 	0.34160 0.84790 0.79510 0.28000
H 	H 	0.33610 0.86210 0.82200 0.10000
H 	H 	0.32010 0.82010 0.78760 -0.02500
H 	H 	0.51400 0.94090 0.80830 -0.49700
Cd	Cd	0.33546 0.49939 0.39260 1.24400
O 	O 	0.24780 0.53070 0.35630 -0.35600
O 	O 	0.33320 0.55100 0.32120 -0.33400
O 	O 	0.07530 0.65830 0.19280 -0.29400
O 	O 	0.15570 0.70730 0.18140 -0.43300
O 	O 	0.33600 0.42280 0.33820 -0.39400
O 	O 	0.42070 0.46120 0.36180 -0.44300
O 	O 	0.51570 0.27310 0.19660 -0.33600
O 	O 	0.58560 0.32770 0.20020 -0.31100
C 	C 	0.23920 0.58400 0.29270 0.03000
C 	C 	0.26810 0.61590 0.26490 -0.14800
H 	H 	0.31200 0.61950 0.26670 0.09500
C 	C 	0.23390 0.64480 0.23240 0.20300
C 	C 	0.17280 0.64000 0.23100 -0.16600
C 	C 	0.14160 0.60780 0.26180 0.06200
H 	H 	0.09750 0.60640 0.26270 0.03100
C 	C 	0.17680 0.57910 0.29010 -0.09800
H 	H 	0.15670 0.55490 0.30850 0.08700
C 	C 	0.27540 0.55400 0.32720 0.28400
C 	C 	0.13210 0.67290 0.19950 0.36800
C 	C 	0.43270 0.39720 0.30690 -0.77000
C 	C 	0.49570 0.40820 0.29850 0.70200
C 	C 	0.52850 0.37780 0.26950 -0.62100
H 	H 	0.57100 0.38530 0.26410 0.25300
C 	C 	0.50280 0.33800 0.24840 0.44600
C 	C 	0.43880 0.32500 0.25790 -0.95600
H 	H 	0.41990 0.29620 0.24480 0.38100
C 	C 	0.40690 0.35480 0.28570 1.38100
C 	C 	0.39420 0.42920 0.33680 0.56700
C 	C 	0.53860 0.31200 0.21210 0.18100
N 	N 	0.26760 0.67430 0.20250 -0.33800
H 	H 	0.24740 0.68860 0.18130 0.20000
H 	H 	0.30730 0.67760 0.20420 0.17900
N 	N 	0.52600 0.44890 0.31510 0.30000
H 	H 	0.57290 0.46120 0.30880 0.01000
H 	H 	0.51410 0.47450 0.33680 0.03000
H 	H 	0.37200 0.35320 0.29320 -0.81900
N 	N 	0.34160 0.34790 0.29510 0.28200
H 	H 	0.33610 0.36210 0.32200 0.10000
H 	H 	0.32010 0.32010 0.28760 -0.02500
H 	H 	0.51400 0.44090 0.30830 -0.49300
