data_crystal

_cell_length_a 13.09030
_cell_length_b 13.95330
_cell_length_c 15.98040
_cell_angle_alpha 96.90800
_cell_angle_beta  114.17800
_cell_angle_gamma 90.00000

_symmetry_space_group_name_	'P 1'
_symmetry_space_group_name_H-M	'P 1'

loop_
_symmetry_equiv_pos_as_xyz
  x,y,z

loop_
_atom_site_label
_atom_site_type_symbol
_atom_site_fract_x
_atom_site_fract_y
_atom_site_fract_z
_atom_site_charge
Tb	Tb	0.48325 0.45895 0.37108 1.74400
Tb	Tb	0.11217 0.04105 0.62892 1.72500
Tb	Tb	0.51675 0.54105 0.62892 1.74400
Tb	Tb	0.88783 0.95895 0.37108 1.72500
H 	H 	0.13910 0.54240 0.11000 0.02100
H 	H 	0.03790 0.59480 0.96940 0.08900
H 	H 	0.31920 0.64850 0.94200 0.07600
H 	H 	0.42140 0.60300 0.08900 0.01900
H 	H 	0.81700 0.57130 0.68760 0.05500
H 	H 	0.04810 0.77450 0.71780 0.06600
H 	H 	0.79570 0.69730 0.46820 0.02700
H 	H 	0.16300 0.69100 0.83400 0.03500
H 	H 	0.02910 0.95760 0.89000 0.02100
H 	H 	0.06850 0.90520 0.03060 0.09200
H 	H 	0.37720 0.85150 0.05800 0.07700
H 	H 	0.33240 0.89700 0.91100 0.01700
H 	H 	0.12940 0.92870 0.31240 0.05700
H 	H 	0.33030 0.72550 0.28220 0.06000
H 	H 	0.32750 0.80270 0.53180 0.02500
H 	H 	0.32900 0.80900 0.16600 0.03600
H 	H 	0.86090 0.45760 0.89000 0.02100
H 	H 	0.96210 0.40520 0.03060 0.08900
H 	H 	0.68080 0.35150 0.05800 0.07600
H 	H 	0.57860 0.39700 0.91100 0.01900
H 	H 	0.18300 0.42870 0.31240 0.05500
H 	H 	0.95190 0.22550 0.28220 0.06600
H 	H 	0.20430 0.30270 0.53180 0.02700
H 	H 	0.83700 0.30900 0.16600 0.03500
H 	H 	0.97090 0.04240 0.11000 0.02100
H 	H 	0.93150 0.09480 0.96940 0.09200
H 	H 	0.62280 0.14850 0.94200 0.07700
H 	H 	0.66760 0.10300 0.08900 0.01700
H 	H 	0.87060 0.07130 0.68760 0.05700
H 	H 	0.66970 0.27450 0.71780 0.06000
H 	H 	0.67250 0.19730 0.46820 0.02500
H 	H 	0.67100 0.19100 0.83400 0.03600
C 	C 	0.35490 0.52680 0.20240 0.32400
C 	C 	0.29000 0.56440 0.11120 -0.12400
C 	C 	0.17630 0.56380 0.07660 0.06100
C 	C 	0.11570 0.59470 0.99200 -0.14800
C 	C 	0.16770 0.62490 0.94180 0.09500
C 	C 	0.28230 0.62770 0.97600 -0.14700
C 	C 	0.34340 0.59860 0.06360 0.05600
C 	C 	0.10620 0.65260 0.84680 -0.01600
C 	C 	0.68620 0.56500 0.50740 0.39700
C 	C 	0.78940 0.62510 0.56860 -0.11800
C 	C 	0.84610 0.61480 0.66220 -0.04800
C 	C 	0.94320 0.66740 0.71680 0.06700
C 	C 	0.98320 0.73680 0.68020 -0.04500
C 	C 	0.92580 0.74980 0.58720 -0.11800
C 	C 	0.83130 0.69180 0.53100 0.04800
C 	C 	0.96530 0.82760 0.54860 0.44300
C 	C 	0.15250 0.97320 0.79760 0.33700
C 	C 	0.17880 0.93560 0.88880 -0.13000
C 	C 	0.09970 0.93620 0.92340 0.06700
C 	C 	0.12370 0.90530 0.00800 -0.15300
C 	C 	0.22590 0.87510 0.05820 0.10000
C 	C 	0.30630 0.87230 0.02400 -0.15300
C 	C 	0.27980 0.90140 0.93640 0.06300
C 	C 	0.25940 0.84740 0.15320 -0.01900
C 	C 	0.17880 0.93500 0.49260 0.39600
C 	C 	0.22080 0.87490 0.43140 -0.11900
C 	C 	0.18390 0.88520 0.33780 -0.04600
C 	C 	0.22640 0.83260 0.28320 0.06400
C 	C 	0.30300 0.76320 0.31980 -0.03400
C 	C 	0.33860 0.75020 0.41280 -0.12400
C 	C 	0.30030 0.80820 0.46900 0.05200
C 	C 	0.41670 0.67240 0.45140 0.45400
C 	C 	0.64510 0.47320 0.79760 0.32400
C 	C 	0.71000 0.43560 0.88880 -0.12400
C 	C 	0.82370 0.43620 0.92340 0.06100
C 	C 	0.88430 0.40530 0.00800 -0.14800
C 	C 	0.83230 0.37510 0.05820 0.09500
C 	C 	0.71770 0.37230 0.02400 -0.14700
C 	C 	0.65660 0.40140 0.93640 0.05600
C 	C 	0.89380 0.34740 0.15320 -0.01600
C 	C 	0.31380 0.43500 0.49260 0.39700
C 	C 	0.21060 0.37490 0.43140 -0.11800
C 	C 	0.15390 0.38520 0.33780 -0.04800
C 	C 	0.05680 0.33260 0.28320 0.06700
C 	C 	0.01680 0.26320 0.31980 -0.04500
C 	C 	0.07420 0.25020 0.41280 -0.11800
C 	C 	0.16870 0.30820 0.46900 0.04800
C 	C 	0.03470 0.17240 0.45140 0.44300
C 	C 	0.84750 0.02680 0.20240 0.33700
C 	C 	0.82120 0.06440 0.11120 -0.13000
C 	C 	0.90030 0.06380 0.07660 0.06700
C 	C 	0.87630 0.09470 0.99200 -0.15300
C 	C 	0.77410 0.12490 0.94180 0.10000
C 	C 	0.69370 0.12770 0.97600 -0.15300
C 	C 	0.72020 0.09860 0.06360 0.06300
C 	C 	0.74060 0.15260 0.84680 -0.01900
C 	C 	0.82120 0.06500 0.50740 0.39600
C 	C 	0.77920 0.12510 0.56860 -0.11900
C 	C 	0.81610 0.11480 0.66220 -0.04600
C 	C 	0.77360 0.16740 0.71680 0.06400
C 	C 	0.69700 0.23680 0.68020 -0.03400
C 	C 	0.66140 0.24980 0.58720 -0.12400
C 	C 	0.69970 0.19180 0.53100 0.05200
C 	C 	0.58330 0.32760 0.54860 0.45400
N 	N 	0.99836 0.64730 0.80892 -0.11600
N 	N 	0.18944 0.85270 0.19108 -0.11400
N 	N 	0.00164 0.35270 0.19108 -0.11600
N 	N 	0.81056 0.14730 0.80892 -0.11400
O 	O 	0.30461 0.49990 0.24782 -0.40500
O 	O 	0.46021 0.52430 0.22982 -0.41300
O 	O 	0.62238 0.53250 0.54176 -0.54200
O 	O 	0.66209 0.54560 0.42258 -0.43500
O 	O 	0.05347 0.87450 0.59994 -0.44500
O 	O 	0.90415 0.83890 0.46570 -0.50200
O 	O 	0.05679 0.00010 0.75218 -0.41500
O 	O 	0.23039 0.97570 0.77018 -0.41200
O 	O 	0.08062 0.96750 0.45824 -0.53400
O 	O 	0.23951 0.95440 0.57742 -0.43100
O 	O 	0.45353 0.62550 0.40006 -0.45500
O 	O 	0.43845 0.66110 0.53430 -0.50500
O 	O 	0.69539 0.50010 0.75218 -0.40500
O 	O 	0.53979 0.47570 0.77018 -0.41300
O 	O 	0.37762 0.46750 0.45824 -0.54200
O 	O 	0.33791 0.45440 0.57742 -0.43500
O 	O 	0.94653 0.12550 0.40006 -0.44500
O 	O 	0.09585 0.16110 0.53430 -0.50200
O 	O 	0.94321 0.99990 0.24782 -0.41500
O 	O 	0.76961 0.02430 0.22982 -0.41200
O 	O 	0.91938 0.03250 0.54176 -0.53400
O 	O 	0.76049 0.04560 0.42258 -0.43100
O 	O 	0.54647 0.37450 0.59994 -0.45500
O 	O 	0.56155 0.33890 0.46570 -0.50500
