data_crystal

_cell_length_a 18.79760
_cell_length_b 18.79760
_cell_length_c 18.79760
_cell_angle_alpha 90.00000
_cell_angle_beta  90.00000
_cell_angle_gamma 90.00000

_symmetry_space_group_name_	'P 1'
_symmetry_space_group_name_H-M	'P 1'

loop_
_symmetry_equiv_pos_as_xyz
  x,y,z

loop_
_atom_site_label
_atom_site_type_symbol
_atom_site_fract_x
_atom_site_fract_y
_atom_site_fract_z
_atom_site_charge
N 	N 	0.36965 0.41876 0.07772 -0.22200
N 	N 	0.32502 0.40828 0.13205 -0.12500
N 	N 	0.63035 0.58124 0.07772 -0.21500
N 	N 	0.67498 0.59172 0.13205 -0.11400
N 	N 	0.63035 0.41876 0.92228 -0.16400
N 	N 	0.67498 0.40828 0.86795 -0.09500
N 	N 	0.36965 0.58124 0.92228 -0.16700
N 	N 	0.32502 0.59172 0.86795 -0.10200
N 	N 	0.07772 0.36965 0.41876 -0.22200
N 	N 	0.13205 0.32502 0.40828 -0.12500
N 	N 	0.07772 0.63035 0.58124 -0.21500
N 	N 	0.13205 0.67498 0.59172 -0.11400
N 	N 	0.92228 0.63035 0.41876 -0.16400
N 	N 	0.86795 0.67498 0.40828 -0.09500
N 	N 	0.92228 0.36965 0.58124 -0.16700
N 	N 	0.86795 0.32502 0.59172 -0.10100
N 	N 	0.41876 0.07772 0.36965 -0.22100
N 	N 	0.40828 0.13205 0.32502 -0.12400
N 	N 	0.58124 0.07772 0.63035 -0.21400
N 	N 	0.59172 0.13205 0.67498 -0.11300
N 	N 	0.41876 0.92228 0.63035 -0.16300
N 	N 	0.40828 0.86795 0.67498 -0.09400
N 	N 	0.58124 0.92228 0.36965 -0.16600
N 	N 	0.59172 0.86795 0.32502 -0.10100
N 	N 	0.41876 0.36965 0.92228 -0.16800
N 	N 	0.40828 0.32502 0.86795 -0.10300
N 	N 	0.58124 0.63035 0.92228 -0.16200
N 	N 	0.59172 0.67498 0.86795 -0.09100
N 	N 	0.41876 0.63035 0.07772 -0.21600
N 	N 	0.40828 0.67498 0.13205 -0.11500
N 	N 	0.58124 0.36965 0.07772 -0.21900
N 	N 	0.59172 0.32502 0.13205 -0.12200
N 	N 	0.36965 0.07772 0.58124 -0.21900
N 	N 	0.32502 0.13205 0.59172 -0.12200
N 	N 	0.63035 0.07772 0.41876 -0.21600
N 	N 	0.67498 0.13205 0.40828 -0.11500
N 	N 	0.63035 0.92228 0.58124 -0.16200
N 	N 	0.67498 0.86795 0.59172 -0.09100
N 	N 	0.36965 0.92228 0.41876 -0.16800
N 	N 	0.32502 0.86795 0.40828 -0.10300
N 	N 	0.07772 0.41876 0.63035 -0.21600
N 	N 	0.13205 0.40828 0.67498 -0.11500
N 	N 	0.07772 0.58124 0.36965 -0.21900
N 	N 	0.13205 0.59172 0.32502 -0.12200
N 	N 	0.92228 0.41876 0.36965 -0.16800
N 	N 	0.86795 0.40828 0.32502 -0.10300
N 	N 	0.92228 0.58124 0.63035 -0.16200
N 	N 	0.86795 0.59172 0.67498 -0.09100
N 	N 	0.63035 0.58124 0.92228 -0.16200
N 	N 	0.67498 0.59172 0.86795 -0.09100
N 	N 	0.36965 0.41876 0.92228 -0.16800
N 	N 	0.32502 0.40828 0.86795 -0.10300
N 	N 	0.36965 0.58124 0.07772 -0.21900
N 	N 	0.32502 0.59172 0.13205 -0.12200
N 	N 	0.63035 0.41876 0.07772 -0.21600
N 	N 	0.67498 0.40828 0.13205 -0.11500
N 	N 	0.92228 0.63035 0.58124 -0.16200
N 	N 	0.86795 0.67498 0.59172 -0.09100
N 	N 	0.92228 0.36965 0.41876 -0.16800
N 	N 	0.86795 0.32502 0.40828 -0.10300
N 	N 	0.07772 0.36965 0.58124 -0.21900
N 	N 	0.13205 0.32502 0.59172 -0.12200
N 	N 	0.07772 0.63035 0.41876 -0.21600
N 	N 	0.13205 0.67498 0.40828 -0.11500
N 	N 	0.58124 0.92228 0.63035 -0.16200
N 	N 	0.59172 0.86795 0.67498 -0.09100
N 	N 	0.41876 0.92228 0.36965 -0.16800
N 	N 	0.40828 0.86795 0.32502 -0.10300
N 	N 	0.58124 0.07772 0.36965 -0.21900
N 	N 	0.59172 0.13205 0.32502 -0.12200
N 	N 	0.41876 0.07772 0.63035 -0.21600
N 	N 	0.40828 0.13205 0.67498 -0.11500
N 	N 	0.58124 0.63035 0.07772 -0.21400
N 	N 	0.59172 0.67498 0.13205 -0.11300
N 	N 	0.41876 0.36965 0.07772 -0.22100
N 	N 	0.40828 0.32502 0.13205 -0.12400
N 	N 	0.58124 0.36965 0.92228 -0.16600
N 	N 	0.59172 0.32502 0.86795 -0.10100
N 	N 	0.41876 0.63035 0.92228 -0.16300
N 	N 	0.40828 0.67498 0.86795 -0.09400
N 	N 	0.63035 0.92228 0.41876 -0.16300
N 	N 	0.67498 0.86795 0.40828 -0.09400
N 	N 	0.36965 0.92228 0.58124 -0.16600
N 	N 	0.32502 0.86795 0.59172 -0.10100
N 	N 	0.36965 0.07772 0.41876 -0.22100
N 	N 	0.32502 0.13205 0.40828 -0.12400
N 	N 	0.63035 0.07772 0.58124 -0.21400
N 	N 	0.67498 0.13205 0.59172 -0.11300
N 	N 	0.92228 0.58124 0.36965 -0.16600
N 	N 	0.86795 0.59172 0.32502 -0.10100
N 	N 	0.92228 0.41876 0.63035 -0.16300
N 	N 	0.86795 0.40828 0.67498 -0.09400
N 	N 	0.07772 0.58124 0.63035 -0.21400
N 	N 	0.13205 0.59172 0.67498 -0.11300
N 	N 	0.07772 0.41876 0.36965 -0.22100
N 	N 	0.13205 0.40828 0.32502 -0.12400
Co	Co	0.36196 0.50000 -0.00000 0.98400
Co	Co	0.63804 0.50000 -0.00000 0.99100
Co	Co	-0.00000 0.36196 0.50000 0.98400
Co	Co	0.00000 0.63804 0.50000 0.99100
Co	Co	0.50000 0.00000 0.36196 0.98400
Co	Co	0.50000 0.00000 0.63804 0.99100
Co	Co	0.50000 0.36196 -0.00000 0.98400
Co	Co	0.50000 0.63804 -0.00000 0.99100
Co	Co	0.36196 -0.00000 0.50000 0.98400
Co	Co	0.63804 -0.00000 0.50000 0.99100
Co	Co	0.00000 0.50000 0.63804 0.99100
Co	Co	-0.00000 0.50000 0.36196 0.98400
C 	C 	0.35006 0.35006 0.16410 0.09100
C 	C 	0.31818 0.31818 0.22730 -0.00400
C 	C 	0.64994 0.64994 0.16410 0.10000
C 	C 	0.68182 0.68182 0.22730 0.01900
C 	C 	0.64994 0.35006 0.83590 0.11000
C 	C 	0.68182 0.31818 0.77270 0.02600
C 	C 	0.35006 0.64994 0.83590 0.11000
C 	C 	0.31818 0.68182 0.77270 0.02600
C 	C 	0.16410 0.35006 0.35006 0.09100
C 	C 	0.22730 0.31818 0.31818 -0.00400
C 	C 	0.16410 0.64994 0.64994 0.10000
C 	C 	0.22730 0.68182 0.68182 0.01900
C 	C 	0.83590 0.64994 0.35006 0.11000
C 	C 	0.77270 0.68182 0.31818 0.02600
C 	C 	0.83590 0.35006 0.64994 0.11000
C 	C 	0.77270 0.31818 0.68182 0.02600
C 	C 	0.35006 0.16410 0.35006 0.09100
C 	C 	0.31818 0.22730 0.31818 -0.00400
C 	C 	0.64994 0.16410 0.64994 0.10000
C 	C 	0.68182 0.22730 0.68182 0.01900
C 	C 	0.35006 0.83590 0.64994 0.11000
C 	C 	0.31818 0.77270 0.68182 0.02600
C 	C 	0.64994 0.83590 0.35006 0.11000
C 	C 	0.68182 0.77270 0.31818 0.02600
C 	C 	0.35006 0.35006 0.83590 0.10600
C 	C 	0.31818 0.31818 0.77270 0.01400
C 	C 	0.64994 0.64994 0.83590 0.11500
C 	C 	0.68182 0.68182 0.77270 0.03800
C 	C 	0.35006 0.64994 0.16410 0.09500
C 	C 	0.31818 0.68182 0.22730 0.00700
C 	C 	0.64994 0.35006 0.16410 0.09500
C 	C 	0.68182 0.31818 0.22730 0.00700
C 	C 	0.35006 0.16410 0.64994 0.09500
C 	C 	0.31818 0.22730 0.68182 0.00700
C 	C 	0.64994 0.16410 0.35006 0.09500
C 	C 	0.68182 0.22730 0.31818 0.00700
C 	C 	0.64994 0.83590 0.64994 0.11500
C 	C 	0.68182 0.77270 0.68182 0.03800
C 	C 	0.35006 0.83590 0.35006 0.10600
C 	C 	0.31818 0.77270 0.31818 0.01400
C 	C 	0.16410 0.35006 0.64994 0.09500
C 	C 	0.22730 0.31818 0.68182 0.00700
C 	C 	0.16410 0.64994 0.35006 0.09500
C 	C 	0.22730 0.68182 0.31818 0.00700
C 	C 	0.83590 0.35006 0.35006 0.10600
C 	C 	0.77270 0.31818 0.31818 0.01400
C 	C 	0.83590 0.64994 0.64994 0.11500
C 	C 	0.77270 0.68182 0.68182 0.03800
C 	C 	0.25746 0.34770 0.25746 -0.07800
H 	H 	0.23680 0.38770 0.23680 0.04700
C 	C 	0.74254 0.65230 0.25746 -0.08100
H 	H 	0.76320 0.61230 0.23680 0.06800
C 	C 	0.74254 0.34770 0.74254 -0.08200
H 	H 	0.76320 0.38770 0.76320 0.08100
C 	C 	0.25746 0.65230 0.74254 -0.08100
H 	H 	0.23680 0.61230 0.76320 0.06800
C 	C 	0.25746 0.25746 0.34770 -0.07800
H 	H 	0.23680 0.23680 0.38770 0.04700
C 	C 	0.25746 0.74254 0.65230 -0.08100
H 	H 	0.23680 0.76320 0.61230 0.06800
C 	C 	0.74254 0.74254 0.34770 -0.08200
H 	H 	0.76320 0.76320 0.38770 0.08100
C 	C 	0.74254 0.25746 0.65230 -0.08100
H 	H 	0.76320 0.23680 0.61230 0.06800
C 	C 	0.34770 0.25746 0.25746 -0.07800
H 	H 	0.38770 0.23680 0.23680 0.04700
C 	C 	0.65230 0.25746 0.74254 -0.08100
H 	H 	0.61230 0.23680 0.76320 0.06800
C 	C 	0.34770 0.74254 0.74254 -0.08200
H 	H 	0.38770 0.76320 0.76320 0.08100
C 	C 	0.65230 0.74254 0.25746 -0.08100
H 	H 	0.61230 0.76320 0.23680 0.06800
C 	C 	0.34770 0.25746 0.74254 -0.08000
H 	H 	0.38770 0.23680 0.76320 0.06400
C 	C 	0.65230 0.74254 0.74254 -0.08300
H 	H 	0.61230 0.76320 0.76320 0.08500
C 	C 	0.34770 0.74254 0.25746 -0.08000
H 	H 	0.38770 0.76320 0.23680 0.06400
C 	C 	0.65230 0.25746 0.25746 -0.07900
H 	H 	0.61230 0.23680 0.23680 0.05100
C 	C 	0.25746 0.25746 0.65230 -0.07900
H 	H 	0.23680 0.23680 0.61230 0.05100
C 	C 	0.74254 0.25746 0.34770 -0.08000
H 	H 	0.76320 0.23680 0.38770 0.06400
C 	C 	0.74254 0.74254 0.65230 -0.08300
H 	H 	0.76320 0.76320 0.61230 0.08500
C 	C 	0.25746 0.74254 0.34770 -0.08000
H 	H 	0.23680 0.76320 0.38770 0.06400
C 	C 	0.25746 0.34770 0.74254 -0.08000
H 	H 	0.23680 0.38770 0.76320 0.06400
C 	C 	0.25746 0.65230 0.25746 -0.07900
H 	H 	0.23680 0.61230 0.23680 0.05100
C 	C 	0.74254 0.34770 0.25746 -0.08000
H 	H 	0.76320 0.38770 0.23680 0.06400
C 	C 	0.74254 0.65230 0.74254 -0.08300
H 	H 	0.76320 0.61230 0.76320 0.08500
