data_crystal

_cell_length_a 18.50150
_cell_length_b 18.50150
_cell_length_c 18.50150
_cell_angle_alpha 90.00000
_cell_angle_beta  90.00000
_cell_angle_gamma 90.00000

_symmetry_space_group_name_	'P 1'
_symmetry_space_group_name_H-M	'P 1'

loop_
_symmetry_equiv_pos_as_xyz
  x,y,z

loop_
_atom_site_label
_atom_site_type_symbol
_atom_site_fract_x
_atom_site_fract_y
_atom_site_fract_z
_atom_site_charge
N 	N 	0.37130 0.42150 0.07500 -0.20200
N 	N 	0.32580 0.41030 0.12920 -0.26900
N 	N 	0.62870 0.57850 0.07500 -0.20200
N 	N 	0.67420 0.58970 0.12920 -0.26800
N 	N 	0.62870 0.42150 0.92500 -0.19500
N 	N 	0.67420 0.41030 0.87080 -0.26600
N 	N 	0.37130 0.57850 0.92500 -0.19500
N 	N 	0.32580 0.58970 0.87080 -0.26600
N 	N 	0.07500 0.37130 0.42150 -0.20100
N 	N 	0.12920 0.32580 0.41030 -0.26800
N 	N 	0.07500 0.62870 0.57850 -0.20100
N 	N 	0.12920 0.67420 0.58970 -0.26800
N 	N 	0.92500 0.62870 0.42150 -0.19500
N 	N 	0.87080 0.67420 0.41030 -0.26600
N 	N 	0.92500 0.37130 0.57850 -0.19500
N 	N 	0.87080 0.32580 0.58970 -0.26600
N 	N 	0.42150 0.07500 0.37130 -0.20100
N 	N 	0.41030 0.12920 0.32580 -0.26800
N 	N 	0.57850 0.07500 0.62870 -0.20100
N 	N 	0.58970 0.12920 0.67420 -0.26800
N 	N 	0.42150 0.92500 0.62870 -0.19500
N 	N 	0.41030 0.87080 0.67420 -0.26600
N 	N 	0.57850 0.92500 0.37130 -0.19500
N 	N 	0.58970 0.87080 0.32580 -0.26600
N 	N 	0.42150 0.37130 0.92500 -0.19600
N 	N 	0.41030 0.32580 0.87080 -0.26700
N 	N 	0.57850 0.62870 0.92500 -0.19500
N 	N 	0.58970 0.67420 0.87080 -0.26600
N 	N 	0.42150 0.62870 0.07500 -0.20100
N 	N 	0.41030 0.67420 0.12920 -0.26800
N 	N 	0.57850 0.37130 0.07500 -0.20100
N 	N 	0.58970 0.32580 0.12920 -0.26800
N 	N 	0.37130 0.07500 0.57850 -0.20100
N 	N 	0.32580 0.12920 0.58970 -0.26800
N 	N 	0.62870 0.07500 0.42150 -0.20100
N 	N 	0.67420 0.12920 0.41030 -0.26800
N 	N 	0.62870 0.92500 0.57850 -0.19500
N 	N 	0.67420 0.87080 0.58970 -0.26600
N 	N 	0.37130 0.92500 0.42150 -0.19600
N 	N 	0.32580 0.87080 0.41030 -0.26700
N 	N 	0.07500 0.42150 0.62870 -0.20100
N 	N 	0.12920 0.41030 0.67420 -0.26800
N 	N 	0.07500 0.57850 0.37130 -0.20100
N 	N 	0.12920 0.58970 0.32580 -0.26800
N 	N 	0.92500 0.42150 0.37130 -0.19600
N 	N 	0.87080 0.41030 0.32580 -0.26700
N 	N 	0.92500 0.57850 0.62870 -0.19500
N 	N 	0.87080 0.58970 0.67420 -0.26600
N 	N 	0.62870 0.57850 0.92500 -0.19500
N 	N 	0.67420 0.58970 0.87080 -0.26600
N 	N 	0.37130 0.42150 0.92500 -0.19600
N 	N 	0.32580 0.41030 0.87080 -0.26700
N 	N 	0.37130 0.57850 0.07500 -0.20100
N 	N 	0.32580 0.58970 0.12920 -0.26800
N 	N 	0.62870 0.42150 0.07500 -0.20100
N 	N 	0.67420 0.41030 0.12920 -0.26800
N 	N 	0.92500 0.62870 0.57850 -0.19500
N 	N 	0.87080 0.67420 0.58970 -0.26600
N 	N 	0.92500 0.37130 0.42150 -0.19600
N 	N 	0.87080 0.32580 0.41030 -0.26700
N 	N 	0.07500 0.37130 0.57850 -0.20100
N 	N 	0.12920 0.32580 0.58970 -0.26800
N 	N 	0.07500 0.62870 0.42150 -0.20100
N 	N 	0.12920 0.67420 0.41030 -0.26800
N 	N 	0.57850 0.92500 0.62870 -0.19500
N 	N 	0.58970 0.87080 0.67420 -0.26600
N 	N 	0.42150 0.92500 0.37130 -0.19600
N 	N 	0.41030 0.87080 0.32580 -0.26700
N 	N 	0.57850 0.07500 0.37130 -0.20100
N 	N 	0.58970 0.12920 0.32580 -0.26800
N 	N 	0.42150 0.07500 0.62870 -0.20100
N 	N 	0.41030 0.12920 0.67420 -0.26800
N 	N 	0.57850 0.62870 0.07500 -0.20100
N 	N 	0.58970 0.67420 0.12920 -0.26800
N 	N 	0.42150 0.37130 0.07500 -0.20100
N 	N 	0.41030 0.32580 0.12920 -0.26800
N 	N 	0.57850 0.37130 0.92500 -0.19500
N 	N 	0.58970 0.32580 0.87080 -0.26600
N 	N 	0.42150 0.62870 0.92500 -0.19500
N 	N 	0.41030 0.67420 0.87080 -0.26600
N 	N 	0.62870 0.92500 0.42150 -0.19500
N 	N 	0.67420 0.87080 0.41030 -0.26600
N 	N 	0.37130 0.92500 0.57850 -0.19500
N 	N 	0.32580 0.87080 0.58970 -0.26600
N 	N 	0.37130 0.07500 0.42150 -0.20100
N 	N 	0.32580 0.12920 0.41030 -0.26800
N 	N 	0.62870 0.07500 0.57850 -0.20100
N 	N 	0.67420 0.12920 0.58970 -0.26800
N 	N 	0.92500 0.57850 0.37130 -0.19500
N 	N 	0.87080 0.58970 0.32580 -0.26600
N 	N 	0.92500 0.42150 0.62870 -0.19500
N 	N 	0.87080 0.41030 0.67420 -0.26600
N 	N 	0.07500 0.57850 0.62870 -0.20100
N 	N 	0.12920 0.58970 0.67420 -0.26800
N 	N 	0.07500 0.42150 0.37130 -0.20100
N 	N 	0.12920 0.41030 0.32580 -0.26800
Co	Co	0.36674 0.50000 -0.00000 1.12200
Cl	Cl	0.24030 0.50000 -0.00000 -0.79700
Co	Co	0.63326 0.50000 -0.00000 1.12200
Cl	Cl	0.75970 0.50000 -0.00000 -0.79200
Co	Co	0.00000 0.36674 0.50000 1.12200
Cl	Cl	0.00000 0.24030 0.50000 -0.79700
Co	Co	0.00000 0.63326 0.50000 1.12200
Cl	Cl	0.00000 0.75970 0.50000 -0.79200
Co	Co	0.50000 0.00000 0.36674 1.12200
Cl	Cl	0.50000 0.00000 0.24030 -0.79700
Co	Co	0.50000 0.00000 0.63326 1.12200
Cl	Cl	0.50000 0.00000 0.75970 -0.79200
Co	Co	0.50000 0.36674 -0.00000 1.12200
Cl	Cl	0.50000 0.24030 -0.00000 -0.79700
Co	Co	0.50000 0.63326 -0.00000 1.12200
Cl	Cl	0.50000 0.75970 -0.00000 -0.79200
Co	Co	0.36674 0.00000 0.50000 1.12200
Cl	Cl	0.24030 0.00000 0.50000 -0.79700
Co	Co	0.63326 0.00000 0.50000 1.12200
Cl	Cl	0.75970 0.00000 0.50000 -0.79200
Co	Co	0.00000 0.50000 0.63326 1.12200
Cl	Cl	0.00000 0.50000 0.75970 -0.79200
Co	Co	0.00000 0.50000 0.36674 1.12200
Cl	Cl	0.00000 0.50000 0.24030 -0.79700
Cl	Cl	0.50000 0.50000 -0.00000 -0.93200
Cl	Cl	0.00000 0.50000 0.50000 -0.93200
Cl	Cl	0.50000 0.00000 0.50000 -0.93200
C 	C 	0.35070 0.35070 0.16180 0.14500
C 	C 	0.31690 0.31690 0.22570 -0.25700
C 	C 	0.64930 0.64930 0.16180 0.14500
C 	C 	0.68310 0.68310 0.22570 -0.25500
C 	C 	0.64930 0.35070 0.83820 0.14700
C 	C 	0.68310 0.31690 0.77430 -0.25500
C 	C 	0.35070 0.64930 0.83820 0.14700
C 	C 	0.31690 0.68310 0.77430 -0.25500
C 	C 	0.16180 0.35070 0.35070 0.14500
C 	C 	0.22570 0.31690 0.31690 -0.25700
C 	C 	0.16180 0.64930 0.64930 0.14500
C 	C 	0.22570 0.68310 0.68310 -0.25500
C 	C 	0.83820 0.64930 0.35070 0.14700
C 	C 	0.77430 0.68310 0.31690 -0.25500
C 	C 	0.83820 0.35070 0.64930 0.14700
C 	C 	0.77430 0.31690 0.68310 -0.25500
C 	C 	0.35070 0.16180 0.35070 0.14500
C 	C 	0.31690 0.22570 0.31690 -0.25700
C 	C 	0.64930 0.16180 0.64930 0.14500
C 	C 	0.68310 0.22570 0.68310 -0.25500
C 	C 	0.35070 0.83820 0.64930 0.14700
C 	C 	0.31690 0.77430 0.68310 -0.25500
C 	C 	0.64930 0.83820 0.35070 0.14700
C 	C 	0.68310 0.77430 0.31690 -0.25500
C 	C 	0.35070 0.35070 0.83820 0.14600
C 	C 	0.31690 0.31690 0.77430 -0.25600
C 	C 	0.64930 0.64930 0.83820 0.14700
C 	C 	0.68310 0.68310 0.77430 -0.25400
C 	C 	0.35070 0.64930 0.16180 0.14500
C 	C 	0.31690 0.68310 0.22570 -0.25600
C 	C 	0.64930 0.35070 0.16180 0.14500
C 	C 	0.68310 0.31690 0.22570 -0.25600
C 	C 	0.35070 0.16180 0.64930 0.14500
C 	C 	0.31690 0.22570 0.68310 -0.25600
C 	C 	0.64930 0.16180 0.35070 0.14500
C 	C 	0.68310 0.22570 0.31690 -0.25600
C 	C 	0.64930 0.83820 0.64930 0.14700
C 	C 	0.68310 0.77430 0.68310 -0.25400
C 	C 	0.35070 0.83820 0.35070 0.14600
C 	C 	0.31690 0.77430 0.31690 -0.25600
C 	C 	0.16180 0.35070 0.64930 0.14500
C 	C 	0.22570 0.31690 0.68310 -0.25600
C 	C 	0.16180 0.64930 0.35070 0.14500
C 	C 	0.22570 0.68310 0.31690 -0.25600
C 	C 	0.83820 0.35070 0.35070 0.14600
C 	C 	0.77430 0.31690 0.31690 -0.25600
C 	C 	0.83820 0.64930 0.64930 0.14700
C 	C 	0.77430 0.68310 0.68310 -0.25400
C 	C 	0.25750 0.34770 0.25750 0.16700
H 	H 	0.23840 0.39010 0.23840 -0.17900
C 	C 	0.74250 0.65230 0.25750 0.16700
H 	H 	0.76160 0.60990 0.23840 -0.17800
C 	C 	0.74250 0.34770 0.74250 0.16700
H 	H 	0.76160 0.39010 0.76160 -0.17700
C 	C 	0.25750 0.65230 0.74250 0.16700
H 	H 	0.23840 0.60990 0.76160 -0.17800
C 	C 	0.25750 0.25750 0.34770 0.16700
H 	H 	0.23840 0.23840 0.39010 -0.17900
C 	C 	0.25750 0.74250 0.65230 0.16700
H 	H 	0.23840 0.76160 0.60990 -0.17800
C 	C 	0.74250 0.74250 0.34770 0.16700
H 	H 	0.76160 0.76160 0.39010 -0.17700
C 	C 	0.74250 0.25750 0.65230 0.16700
H 	H 	0.76160 0.23840 0.60990 -0.17800
C 	C 	0.34770 0.25750 0.25750 0.16700
H 	H 	0.39010 0.23840 0.23840 -0.17900
C 	C 	0.65230 0.25750 0.74250 0.16700
H 	H 	0.60990 0.23840 0.76160 -0.17800
C 	C 	0.34770 0.74250 0.74250 0.16700
H 	H 	0.39010 0.76160 0.76160 -0.17700
C 	C 	0.65230 0.74250 0.25750 0.16700
H 	H 	0.60990 0.76160 0.23840 -0.17800
C 	C 	0.34770 0.25750 0.74250 0.16700
H 	H 	0.39010 0.23840 0.76160 -0.17800
C 	C 	0.65230 0.74250 0.74250 0.16700
H 	H 	0.60990 0.76160 0.76160 -0.17700
C 	C 	0.34770 0.74250 0.25750 0.16700
H 	H 	0.39010 0.76160 0.23840 -0.17800
C 	C 	0.65230 0.25750 0.25750 0.16700
H 	H 	0.60990 0.23840 0.23840 -0.17900
C 	C 	0.25750 0.25750 0.65230 0.16700
H 	H 	0.23840 0.23840 0.60990 -0.17900
C 	C 	0.74250 0.25750 0.34770 0.16700
H 	H 	0.76160 0.23840 0.39010 -0.17800
C 	C 	0.74250 0.74250 0.65230 0.16700
H 	H 	0.76160 0.76160 0.60990 -0.17700
C 	C 	0.25750 0.74250 0.34770 0.16700
H 	H 	0.23840 0.76160 0.39010 -0.17800
C 	C 	0.25750 0.34770 0.74250 0.16700
H 	H 	0.23840 0.39010 0.76160 -0.17800
C 	C 	0.25750 0.65230 0.25750 0.16700
H 	H 	0.23840 0.60990 0.23840 -0.17900
C 	C 	0.74250 0.34770 0.25750 0.16700
H 	H 	0.76160 0.39010 0.23840 -0.17800
C 	C 	0.74250 0.65230 0.74250 0.16700
H 	H 	0.76160 0.60990 0.76160 -0.17700
Co	Co	0.26810 0.50000 0.14840 1.00200
Co	Co	0.73190 0.50000 0.14840 1.00300
Co	Co	0.73190 0.50000 0.85160 1.00600
Co	Co	0.26810 0.50000 0.85160 1.00500
Co	Co	0.14840 0.26810 0.50000 1.00200
Co	Co	0.14840 0.73190 0.50000 1.00300
Co	Co	0.85160 0.73190 0.50000 1.00600
Co	Co	0.85160 0.26810 0.50000 1.00500
Co	Co	0.50000 0.14840 0.26810 1.00200
Co	Co	0.50000 0.14840 0.73190 1.00300
Co	Co	0.50000 0.85160 0.73190 1.00600
Co	Co	0.50000 0.85160 0.26810 1.00500
Co	Co	0.50000 0.26810 0.85160 1.00500
Co	Co	0.50000 0.73190 0.85160 1.00600
Co	Co	0.50000 0.73190 0.14840 1.00300
Co	Co	0.50000 0.26810 0.14840 1.00200
Co	Co	0.26810 0.14840 0.50000 1.00200
Co	Co	0.73190 0.14840 0.50000 1.00300
Co	Co	0.73190 0.85160 0.50000 1.00600
Co	Co	0.26810 0.85160 0.50000 1.00500
Co	Co	0.14840 0.50000 0.73190 1.00300
Co	Co	0.14840 0.50000 0.26810 1.00200
Co	Co	0.85160 0.50000 0.26810 1.00500
Co	Co	0.85160 0.50000 0.73190 1.00600
