data_crystal

_cell_length_a 30.70100
_cell_length_b 30.70100
_cell_length_c 28.95700
_cell_angle_alpha 90.00000
_cell_angle_beta  90.00000
_cell_angle_gamma 90.00000

_symmetry_space_group_name_	'P 1'
_symmetry_space_group_name_H-M	'P 1'

loop_
_symmetry_equiv_pos_as_xyz
  x,y,z

loop_
_atom_site_label
_atom_site_type_symbol
_atom_site_fract_x
_atom_site_fract_y
_atom_site_fract_z
_atom_site_charge
O 	O 	0.30158 0.13417 0.04806 -0.49000
O 	O 	0.35413 0.08234 0.04844 -0.51300
C 	C 	0.32050 0.09860 0.06230 0.40300
C 	C 	0.29450 0.07850 0.10060 -0.13300
C 	C 	0.25660 0.09540 0.11800 0.04700
H 	H 	0.24560 0.12080 0.10500 0.01800
C 	C 	0.23420 0.07650 0.15350 -0.10300
H 	H 	0.20790 0.08790 0.16380 0.05700
C 	C 	0.25260 0.03830 0.17460 0.00300
C 	C 	0.29070 0.02080 0.15710 -0.11500
H 	H 	0.30200 0.99540 0.17000 0.07100
C 	C 	0.31230 0.04060 0.12050 0.03900
H 	H 	0.33820 0.02900 0.10930 0.01700
C 	C 	0.22730 0.01650 0.21380 0.15600
C 	C 	0.18390 0.01650 0.21430 -0.27100
H 	H 	0.16920 0.02820 0.18920 0.11400
C 	C 	0.09058 0.96111 0.25069 0.11600
C 	C 	0.11263 0.91887 0.25020 -0.09600
H 	H 	0.14260 0.91430 0.25020 0.06200
O 	O 	0.80158 0.63417 0.54806 -0.47400
O 	O 	0.85413 0.58234 0.54844 -0.49500
C 	C 	0.82050 0.59860 0.56230 0.39700
C 	C 	0.79450 0.57850 0.60060 -0.11200
C 	C 	0.75660 0.59540 0.61800 0.03200
H 	H 	0.74560 0.62080 0.60500 0.02900
C 	C 	0.73420 0.57650 0.65350 -0.08500
H 	H 	0.70790 0.58790 0.66380 0.05400
C 	C 	0.75260 0.53830 0.67460 -0.01300
C 	C 	0.79070 0.52080 0.65710 -0.07500
H 	H 	0.80200 0.49540 0.67000 0.05200
C 	C 	0.81230 0.54060 0.62050 0.01700
H 	H 	0.83820 0.52900 0.60930 0.03400
C 	C 	0.72730 0.51650 0.71380 0.16500
C 	C 	0.68390 0.51650 0.71430 -0.27600
H 	H 	0.66920 0.52820 0.68920 0.12100
C 	C 	0.59058 0.46111 0.75069 0.10600
C 	C 	0.61263 0.41887 0.75020 -0.09000
H 	H 	0.64260 0.41430 0.75020 0.06100
O 	O 	0.69842 0.86583 0.04806 -0.48800
O 	O 	0.64587 0.91766 0.04844 -0.50900
C 	C 	0.67950 0.90140 0.06230 0.39400
C 	C 	0.70550 0.92150 0.10060 -0.10800
C 	C 	0.74340 0.90460 0.11800 0.02200
H 	H 	0.75440 0.87920 0.10500 0.02700
C 	C 	0.76580 0.92350 0.15350 -0.07600
H 	H 	0.79210 0.91210 0.16380 0.04800
C 	C 	0.74740 0.96170 0.17460 -0.02900
C 	C 	0.70930 0.97920 0.15710 -0.04400
H 	H 	0.69800 0.00460 0.17000 0.02900
C 	C 	0.68770 0.95940 0.12050 -0.00300
H 	H 	0.66180 0.97100 0.10930 0.03700
C 	C 	0.77270 0.98350 0.21380 0.17800
C 	C 	0.81610 0.98350 0.21430 -0.26700
H 	H 	0.83080 0.97180 0.18920 0.11800
C 	C 	0.90942 0.03889 0.25069 0.10500
C 	C 	0.88737 0.08113 0.25020 -0.09000
H 	H 	0.85740 0.08570 0.25020 0.05800
O 	O 	0.19842 0.36583 0.54806 -0.47400
O 	O 	0.14587 0.41766 0.54844 -0.49700
C 	C 	0.17950 0.40140 0.56230 0.39700
C 	C 	0.20550 0.42150 0.60060 -0.11300
C 	C 	0.24340 0.40460 0.61800 0.03200
H 	H 	0.25440 0.37920 0.60500 0.02800
C 	C 	0.26580 0.42350 0.65350 -0.08600
H 	H 	0.29210 0.41210 0.66380 0.05400
C 	C 	0.24740 0.46170 0.67460 -0.01300
C 	C 	0.20930 0.47920 0.65710 -0.07600
H 	H 	0.19800 0.50460 0.67000 0.05100
C 	C 	0.18770 0.45940 0.62050 0.01700
H 	H 	0.16180 0.47100 0.60930 0.03200
C 	C 	0.27270 0.48350 0.71380 0.16400
C 	C 	0.31610 0.48350 0.71430 -0.27500
H 	H 	0.33080 0.47180 0.68920 0.12100
C 	C 	0.40942 0.53889 0.75069 0.10600
C 	C 	0.38737 0.58113 0.75020 -0.09000
H 	H 	0.35740 0.58570 0.75020 0.06100
O 	O 	0.86583 0.30158 0.04806 -0.48800
O 	O 	0.91766 0.35413 0.04844 -0.50900
C 	C 	0.90140 0.32050 0.06230 0.39400
C 	C 	0.92150 0.29450 0.10060 -0.10800
C 	C 	0.90460 0.25660 0.11800 0.02100
H 	H 	0.87920 0.24560 0.10500 0.02600
C 	C 	0.92350 0.23420 0.15350 -0.07700
H 	H 	0.91210 0.20790 0.16380 0.04700
C 	C 	0.96170 0.25260 0.17460 -0.03000
C 	C 	0.97920 0.29070 0.15710 -0.04300
H 	H 	0.00460 0.30200 0.17000 0.02900
C 	C 	0.95940 0.31230 0.12050 -0.00300
H 	H 	0.97100 0.33820 0.10930 0.03700
C 	C 	0.98350 0.22730 0.21380 0.17700
C 	C 	0.98350 0.18390 0.21430 -0.26600
H 	H 	0.97180 0.16920 0.18920 0.11700
C 	C 	0.03889 0.09058 0.25069 0.10400
C 	C 	0.08113 0.11263 0.25020 -0.09300
H 	H 	0.08570 0.14260 0.25020 0.05800
O 	O 	0.36583 0.80158 0.54806 -0.47400
O 	O 	0.41766 0.85413 0.54844 -0.49500
C 	C 	0.40140 0.82050 0.56230 0.39700
C 	C 	0.42150 0.79450 0.60060 -0.11200
C 	C 	0.40460 0.75660 0.61800 0.03200
H 	H 	0.37920 0.74560 0.60500 0.02900
C 	C 	0.42350 0.73420 0.65350 -0.08500
H 	H 	0.41210 0.70790 0.66380 0.05400
C 	C 	0.46170 0.75260 0.67460 -0.01300
C 	C 	0.47920 0.79070 0.65710 -0.07500
H 	H 	0.50460 0.80200 0.67000 0.05200
C 	C 	0.45940 0.81230 0.62050 0.01700
H 	H 	0.47100 0.83820 0.60930 0.03400
C 	C 	0.48350 0.72730 0.71380 0.16500
C 	C 	0.48350 0.68390 0.71430 -0.27600
H 	H 	0.47180 0.66920 0.68920 0.12100
C 	C 	0.53889 0.59058 0.75069 0.10600
C 	C 	0.58113 0.61263 0.75020 -0.09000
H 	H 	0.58570 0.64260 0.75020 0.06100
O 	O 	0.13417 0.69842 0.04806 -0.49000
O 	O 	0.08234 0.64587 0.04844 -0.51400
C 	C 	0.09860 0.67950 0.06230 0.40200
C 	C 	0.07850 0.70550 0.10060 -0.13300
C 	C 	0.09540 0.74340 0.11800 0.04600
H 	H 	0.12080 0.75440 0.10500 0.01800
C 	C 	0.07650 0.76580 0.15350 -0.10300
H 	H 	0.08790 0.79210 0.16380 0.05600
C 	C 	0.03830 0.74740 0.17460 0.00100
C 	C 	0.02080 0.70930 0.15710 -0.11500
H 	H 	0.99540 0.69800 0.17000 0.07100
C 	C 	0.04060 0.68770 0.12050 0.03900
H 	H 	0.02900 0.66180 0.10930 0.01800
C 	C 	0.01650 0.77270 0.21380 0.15700
C 	C 	0.01650 0.81610 0.21430 -0.27100
H 	H 	0.02820 0.83080 0.18920 0.11500
C 	C 	0.96111 0.90942 0.25069 0.11700
C 	C 	0.91887 0.88737 0.25020 -0.09300
H 	H 	0.91430 0.85740 0.25020 0.06200
O 	O 	0.63417 0.19842 0.54806 -0.47400
O 	O 	0.58234 0.14587 0.54844 -0.49700
C 	C 	0.59860 0.17950 0.56230 0.39700
C 	C 	0.57850 0.20550 0.60060 -0.11300
C 	C 	0.59540 0.24340 0.61800 0.03200
H 	H 	0.62080 0.25440 0.60500 0.02900
C 	C 	0.57650 0.26580 0.65350 -0.08600
H 	H 	0.58790 0.29210 0.66380 0.05400
C 	C 	0.53830 0.24740 0.67460 -0.01300
C 	C 	0.52080 0.20930 0.65710 -0.07600
H 	H 	0.49540 0.19800 0.67000 0.05100
C 	C 	0.54060 0.18770 0.62050 0.01700
H 	H 	0.52900 0.16180 0.60930 0.03200
C 	C 	0.51650 0.27270 0.71380 0.16400
C 	C 	0.51650 0.31610 0.71430 -0.27500
H 	H 	0.52820 0.33080 0.68920 0.12100
C 	C 	0.46111 0.40942 0.75069 0.10600
C 	C 	0.41887 0.38737 0.75020 -0.09000
H 	H 	0.41430 0.35740 0.75020 0.06100
O 	O 	0.69842 0.13417 0.45194 -0.47500
O 	O 	0.64587 0.08234 0.45156 -0.49900
C 	C 	0.67950 0.09860 0.43770 0.40100
C 	C 	0.70550 0.07850 0.39940 -0.12400
C 	C 	0.74340 0.09540 0.38200 0.04300
H 	H 	0.75440 0.12080 0.39500 0.02500
C 	C 	0.76580 0.07650 0.34650 -0.09800
H 	H 	0.79210 0.08790 0.33620 0.05700
C 	C 	0.74740 0.03830 0.32540 -0.00000
C 	C 	0.70930 0.02080 0.34290 -0.11000
H 	H 	0.69800 0.99540 0.33000 0.07200
C 	C 	0.68770 0.04060 0.37950 0.03600
H 	H 	0.66180 0.02900 0.39070 0.02300
C 	C 	0.77270 0.01650 0.28620 0.15900
C 	C 	0.81610 0.01650 0.28570 -0.27200
H 	H 	0.83080 0.02820 0.31080 0.11900
C 	C 	0.90942 0.96111 0.24931 0.11700
C 	C 	0.88737 0.91887 0.24980 -0.09300
H 	H 	0.85740 0.91430 0.24980 0.06200
O 	O 	0.19842 0.63417 0.95194 -0.45000
O 	O 	0.14587 0.58234 0.95156 -0.47300
C 	C 	0.17950 0.59860 0.93770 0.39200
C 	C 	0.20550 0.57850 0.89940 -0.10200
C 	C 	0.24340 0.59540 0.88200 0.02700
H 	H 	0.25440 0.62080 0.89500 0.03600
C 	C 	0.26580 0.57650 0.84650 -0.07900
H 	H 	0.29210 0.58790 0.83620 0.05400
C 	C 	0.24740 0.53830 0.82540 -0.01500
C 	C 	0.20930 0.52080 0.84290 -0.06900
H 	H 	0.19800 0.49540 0.83000 0.05200
C 	C 	0.18770 0.54060 0.87950 0.01300
H 	H 	0.16180 0.52900 0.89070 0.03900
C 	C 	0.27270 0.51650 0.78620 0.16700
C 	C 	0.31610 0.51650 0.78570 -0.27600
H 	H 	0.33080 0.52820 0.81080 0.12400
C 	C 	0.40942 0.46111 0.74931 0.10600
C 	C 	0.38737 0.41887 0.74980 -0.09000
H 	H 	0.35740 0.41430 0.74980 0.06100
O 	O 	0.30158 0.86583 0.45194 -0.47300
O 	O 	0.35413 0.91766 0.45156 -0.49400
C 	C 	0.32050 0.90140 0.43770 0.39200
C 	C 	0.29450 0.92150 0.39940 -0.09900
C 	C 	0.25660 0.90460 0.38200 0.01800
H 	H 	0.24560 0.87920 0.39500 0.03300
C 	C 	0.23420 0.92350 0.34650 -0.07100
H 	H 	0.20790 0.91210 0.33620 0.04800
C 	C 	0.25260 0.96170 0.32540 -0.03100
C 	C 	0.29070 0.97920 0.34290 -0.03800
H 	H 	0.30200 0.00460 0.33000 0.03000
C 	C 	0.31230 0.95940 0.37950 -0.00600
H 	H 	0.33820 0.97100 0.39070 0.04300
C 	C 	0.22730 0.98350 0.28620 0.18000
C 	C 	0.18390 0.98350 0.28570 -0.26700
H 	H 	0.16920 0.97180 0.31080 0.12000
C 	C 	0.09058 0.03889 0.24931 0.10400
C 	C 	0.11263 0.08113 0.24980 -0.09300
H 	H 	0.14260 0.08570 0.24980 0.05900
O 	O 	0.80158 0.36583 0.95194 -0.45000
O 	O 	0.85413 0.41766 0.95156 -0.47100
C 	C 	0.82050 0.40140 0.93770 0.39200
C 	C 	0.79450 0.42150 0.89940 -0.10100
C 	C 	0.75660 0.40460 0.88200 0.02700
H 	H 	0.74560 0.37920 0.89500 0.03600
C 	C 	0.73420 0.42350 0.84650 -0.07800
H 	H 	0.70790 0.41210 0.83620 0.05400
C 	C 	0.75260 0.46170 0.82540 -0.01500
C 	C 	0.79070 0.47920 0.84290 -0.06800
H 	H 	0.80200 0.50460 0.83000 0.05300
C 	C 	0.81230 0.45940 0.87950 0.01300
H 	H 	0.83820 0.47100 0.89070 0.04100
C 	C 	0.72730 0.48350 0.78620 0.16700
C 	C 	0.68390 0.48350 0.78570 -0.27700
H 	H 	0.66920 0.47180 0.81080 0.12500
C 	C 	0.59058 0.53889 0.74931 0.10600
C 	C 	0.61263 0.58113 0.74980 -0.09000
H 	H 	0.64260 0.58570 0.74980 0.06200
O 	O 	0.13417 0.30158 0.45194 -0.47600
O 	O 	0.08234 0.35413 0.45156 -0.49900
C 	C 	0.09860 0.32050 0.43770 0.40100
C 	C 	0.07850 0.29450 0.39940 -0.12500
C 	C 	0.09540 0.25660 0.38200 0.04300
H 	H 	0.12080 0.24560 0.39500 0.02300
C 	C 	0.07650 0.23420 0.34650 -0.09900
H 	H 	0.08790 0.20790 0.33620 0.05600
C 	C 	0.03830 0.25260 0.32540 0.00000
C 	C 	0.02080 0.29070 0.34290 -0.11100
H 	H 	0.99540 0.30200 0.33000 0.07200
C 	C 	0.04060 0.31230 0.37950 0.03700
H 	H 	0.02900 0.33820 0.39070 0.02300
C 	C 	0.01650 0.22730 0.28620 0.15800
C 	C 	0.01650 0.18390 0.28570 -0.27100
H 	H 	0.02820 0.16920 0.31080 0.11800
C 	C 	0.96111 0.09058 0.24931 0.11700
C 	C 	0.91887 0.11263 0.24980 -0.09600
H 	H 	0.91430 0.14260 0.24980 0.06300
O 	O 	0.63417 0.80158 0.95194 -0.45000
O 	O 	0.58234 0.85413 0.95156 -0.47100
C 	C 	0.59860 0.82050 0.93770 0.39200
C 	C 	0.57850 0.79450 0.89940 -0.10100
C 	C 	0.59540 0.75660 0.88200 0.02700
H 	H 	0.62080 0.74560 0.89500 0.03700
C 	C 	0.57650 0.73420 0.84650 -0.07800
H 	H 	0.58790 0.70790 0.83620 0.05400
C 	C 	0.53830 0.75260 0.82540 -0.01600
C 	C 	0.52080 0.79070 0.84290 -0.06800
H 	H 	0.49540 0.80200 0.83000 0.05300
C 	C 	0.54060 0.81230 0.87950 0.01300
H 	H 	0.52900 0.83820 0.89070 0.04100
C 	C 	0.51650 0.72730 0.78620 0.16800
C 	C 	0.51650 0.68390 0.78570 -0.27700
H 	H 	0.52820 0.66920 0.81080 0.12500
C 	C 	0.46111 0.59058 0.74931 0.10600
C 	C 	0.41887 0.61263 0.74980 -0.09000
H 	H 	0.41430 0.64260 0.74980 0.06200
O 	O 	0.86583 0.69842 0.45194 -0.47300
O 	O 	0.91766 0.64587 0.45156 -0.49400
C 	C 	0.90140 0.67950 0.43770 0.39300
C 	C 	0.92150 0.70550 0.39940 -0.09900
C 	C 	0.90460 0.74340 0.38200 0.01800
H 	H 	0.87920 0.75440 0.39500 0.03400
C 	C 	0.92350 0.76580 0.34650 -0.07100
H 	H 	0.91210 0.79210 0.33620 0.04900
C 	C 	0.96170 0.74740 0.32540 -0.03100
C 	C 	0.97920 0.70930 0.34290 -0.03800
H 	H 	0.00460 0.69800 0.33000 0.03000
C 	C 	0.95940 0.68770 0.37950 -0.00500
H 	H 	0.97100 0.66180 0.39070 0.04300
C 	C 	0.98350 0.77270 0.28620 0.18000
C 	C 	0.98350 0.81610 0.28570 -0.26800
H 	H 	0.97180 0.83080 0.31080 0.12100
C 	C 	0.03889 0.90942 0.24931 0.10500
C 	C 	0.08113 0.88737 0.24980 -0.09000
H 	H 	0.08570 0.85740 0.24980 0.05900
O 	O 	0.36583 0.19842 0.95194 -0.45000
O 	O 	0.41766 0.14587 0.95156 -0.47300
C 	C 	0.40140 0.17950 0.93770 0.39300
C 	C 	0.42150 0.20550 0.89940 -0.10200
C 	C 	0.40460 0.24340 0.88200 0.02700
H 	H 	0.37920 0.25440 0.89500 0.03600
C 	C 	0.42350 0.26580 0.84650 -0.07900
H 	H 	0.41210 0.29210 0.83620 0.05400
C 	C 	0.46170 0.24740 0.82540 -0.01500
C 	C 	0.47920 0.20930 0.84290 -0.06900
H 	H 	0.50460 0.19800 0.83000 0.05200
C 	C 	0.45940 0.18770 0.87950 0.01300
H 	H 	0.47100 0.16180 0.89070 0.03900
C 	C 	0.48350 0.27270 0.78620 0.16600
C 	C 	0.48350 0.31610 0.78570 -0.27600
H 	H 	0.47180 0.33080 0.81080 0.12400
C 	C 	0.53889 0.40942 0.74931 0.10600
C 	C 	0.58113 0.38737 0.74980 -0.09000
H 	H 	0.58570 0.35740 0.74980 0.06200
O 	O 	0.69842 0.86583 0.95194 -0.44800
O 	O 	0.64587 0.91766 0.95156 -0.46900
C 	C 	0.67950 0.90140 0.93770 0.38800
C 	C 	0.70550 0.92150 0.89940 -0.08700
C 	C 	0.74340 0.90460 0.88200 0.01300
H 	H 	0.75440 0.87920 0.89500 0.04200
C 	C 	0.76580 0.92350 0.84650 -0.06200
H 	H 	0.79210 0.91210 0.83620 0.04900
C 	C 	0.74740 0.96170 0.82540 -0.03400
C 	C 	0.70930 0.97920 0.84290 -0.03000
H 	H 	0.69800 0.00460 0.83000 0.03100
C 	C 	0.68770 0.95940 0.87950 -0.01000
H 	H 	0.66180 0.97100 0.89070 0.05100
C 	C 	0.77270 0.98350 0.78620 0.18800
C 	C 	0.81610 0.98350 0.78570 -0.27300
H 	H 	0.83080 0.97180 0.81080 0.12600
C 	C 	0.90942 0.03889 0.74931 0.10800
C 	C 	0.88737 0.08113 0.74980 -0.08900
H 	H 	0.85740 0.08570 0.74980 0.06100
O 	O 	0.19842 0.36583 0.45194 -0.47500
O 	O 	0.14587 0.41766 0.45156 -0.49700
C 	C 	0.17950 0.40140 0.43770 0.39700
C 	C 	0.20550 0.42150 0.39940 -0.11400
C 	C 	0.24340 0.40460 0.38200 0.03300
H 	H 	0.25440 0.37920 0.39500 0.02800
C 	C 	0.26580 0.42350 0.34650 -0.08800
H 	H 	0.29210 0.41210 0.33620 0.05300
C 	C 	0.24740 0.46170 0.32540 -0.01200
C 	C 	0.20930 0.47920 0.34290 -0.07800
H 	H 	0.19800 0.50460 0.33000 0.05100
C 	C 	0.18770 0.45940 0.37950 0.01800
H 	H 	0.16180 0.47100 0.39070 0.03100
C 	C 	0.27270 0.48350 0.28620 0.15800
C 	C 	0.31610 0.48350 0.28570 -0.27000
H 	H 	0.33080 0.47180 0.31080 0.11900
C 	C 	0.40942 0.53889 0.24931 0.10200
C 	C 	0.38737 0.58113 0.24980 -0.09100
H 	H 	0.35740 0.58570 0.24980 0.05900
O 	O 	0.30158 0.13417 0.95194 -0.45100
O 	O 	0.35413 0.08234 0.95156 -0.47400
C 	C 	0.32050 0.09860 0.93770 0.39600
C 	C 	0.29450 0.07850 0.89940 -0.11300
C 	C 	0.25660 0.09540 0.88200 0.03800
H 	H 	0.24560 0.12080 0.89500 0.03200
C 	C 	0.23420 0.07650 0.84650 -0.09000
H 	H 	0.20790 0.08790 0.83620 0.05700
C 	C 	0.25260 0.03830 0.82540 -0.00300
C 	C 	0.29070 0.02080 0.84290 -0.10300
H 	H 	0.30200 0.99540 0.83000 0.07300
C 	C 	0.31230 0.04060 0.87950 0.03200
H 	H 	0.33820 0.02900 0.89070 0.03100
C 	C 	0.22730 0.01650 0.78620 0.16600
C 	C 	0.18390 0.01650 0.78570 -0.27700
H 	H 	0.16920 0.02820 0.81080 0.12300
C 	C 	0.09058 0.96111 0.74931 0.12000
C 	C 	0.11263 0.91887 0.74980 -0.09500
H 	H 	0.14260 0.91430 0.74980 0.06500
O 	O 	0.80158 0.63417 0.45194 -0.47400
O 	O 	0.85413 0.58234 0.45156 -0.49600
C 	C 	0.82050 0.59860 0.43770 0.39700
C 	C 	0.79450 0.57850 0.39940 -0.11300
C 	C 	0.75660 0.59540 0.38200 0.03200
H 	H 	0.74560 0.62080 0.39500 0.02800
C 	C 	0.73420 0.57650 0.34650 -0.08700
H 	H 	0.70790 0.58790 0.33620 0.05300
C 	C 	0.75260 0.53830 0.32540 -0.01200
C 	C 	0.79070 0.52080 0.34290 -0.07700
H 	H 	0.80200 0.49540 0.33000 0.05200
C 	C 	0.81230 0.54060 0.37950 0.01700
H 	H 	0.83820 0.52900 0.39070 0.03300
C 	C 	0.72730 0.51650 0.28620 0.15900
C 	C 	0.68390 0.51650 0.28570 -0.27100
H 	H 	0.66920 0.52820 0.31080 0.11900
C 	C 	0.59058 0.46111 0.24931 0.10300
C 	C 	0.61263 0.41887 0.24980 -0.09100
H 	H 	0.64260 0.41430 0.24980 0.06000
O 	O 	0.13417 0.69842 0.95194 -0.45100
O 	O 	0.08234 0.64587 0.95156 -0.47400
C 	C 	0.09860 0.67950 0.93770 0.39600
C 	C 	0.07850 0.70550 0.89940 -0.11200
C 	C 	0.09540 0.74340 0.88200 0.03700
H 	H 	0.12080 0.75440 0.89500 0.03300
C 	C 	0.07650 0.76580 0.84650 -0.08900
H 	H 	0.08790 0.79210 0.83620 0.05800
C 	C 	0.03830 0.74740 0.82540 -0.00400
C 	C 	0.02080 0.70930 0.84290 -0.10100
H 	H 	0.99540 0.69800 0.83000 0.07300
C 	C 	0.04060 0.68770 0.87950 0.03200
H 	H 	0.02900 0.66180 0.89070 0.03100
C 	C 	0.01650 0.77270 0.78620 0.16700
C 	C 	0.01650 0.81610 0.78570 -0.27800
H 	H 	0.02820 0.83080 0.81080 0.12400
C 	C 	0.96111 0.90942 0.74931 0.12000
C 	C 	0.91887 0.88737 0.74980 -0.09200
H 	H 	0.91430 0.85740 0.74980 0.06500
O 	O 	0.63417 0.19842 0.45194 -0.47400
O 	O 	0.58234 0.14587 0.45156 -0.49700
C 	C 	0.59860 0.17950 0.43770 0.39700
C 	C 	0.57850 0.20550 0.39940 -0.11400
C 	C 	0.59540 0.24340 0.38200 0.03300
H 	H 	0.62080 0.25440 0.39500 0.02800
C 	C 	0.57650 0.26580 0.34650 -0.08800
H 	H 	0.58790 0.29210 0.33620 0.05400
C 	C 	0.53830 0.24740 0.32540 -0.01200
C 	C 	0.52080 0.20930 0.34290 -0.07800
H 	H 	0.49540 0.19800 0.33000 0.05100
C 	C 	0.54060 0.18770 0.37950 0.01800
H 	H 	0.52900 0.16180 0.39070 0.03100
C 	C 	0.51650 0.27270 0.28620 0.15800
C 	C 	0.51650 0.31610 0.28570 -0.27000
H 	H 	0.52820 0.33080 0.31080 0.11900
C 	C 	0.46111 0.40942 0.24931 0.10200
C 	C 	0.41887 0.38737 0.24980 -0.09100
H 	H 	0.41430 0.35740 0.24980 0.05900
O 	O 	0.86583 0.30158 0.95194 -0.44900
O 	O 	0.91766 0.35413 0.95156 -0.47000
C 	C 	0.90140 0.32050 0.93770 0.38800
C 	C 	0.92150 0.29450 0.89940 -0.08700
C 	C 	0.90460 0.25660 0.88200 0.01300
H 	H 	0.87920 0.24560 0.89500 0.04100
C 	C 	0.92350 0.23420 0.84650 -0.06200
H 	H 	0.91210 0.20790 0.83620 0.04800
C 	C 	0.96170 0.25260 0.82540 -0.03500
C 	C 	0.97920 0.29070 0.84290 -0.02900
H 	H 	0.00460 0.30200 0.83000 0.03100
C 	C 	0.95940 0.31230 0.87950 -0.01000
H 	H 	0.97100 0.33820 0.89070 0.05100
C 	C 	0.98350 0.22730 0.78620 0.18800
C 	C 	0.98350 0.18390 0.78570 -0.27200
H 	H 	0.97180 0.16920 0.81080 0.12500
C 	C 	0.03889 0.09058 0.74931 0.10700
C 	C 	0.08113 0.11263 0.74980 -0.09200
H 	H 	0.08570 0.14260 0.74980 0.06100
O 	O 	0.36583 0.80158 0.45194 -0.47400
O 	O 	0.41766 0.85413 0.45156 -0.49600
C 	C 	0.40140 0.82050 0.43770 0.39700
C 	C 	0.42150 0.79450 0.39940 -0.11300
C 	C 	0.40460 0.75660 0.38200 0.03200
H 	H 	0.37920 0.74560 0.39500 0.02800
C 	C 	0.42350 0.73420 0.34650 -0.08700
H 	H 	0.41210 0.70790 0.33620 0.05300
C 	C 	0.46170 0.75260 0.32540 -0.01200
C 	C 	0.47920 0.79070 0.34290 -0.07700
H 	H 	0.50460 0.80200 0.33000 0.05200
C 	C 	0.45940 0.81230 0.37950 0.01700
H 	H 	0.47100 0.83820 0.39070 0.03300
C 	C 	0.48350 0.72730 0.28620 0.15900
C 	C 	0.48350 0.68390 0.28570 -0.27100
H 	H 	0.47180 0.66920 0.31080 0.11900
C 	C 	0.53889 0.59058 0.24931 0.10300
C 	C 	0.58113 0.61263 0.24980 -0.09100
H 	H 	0.58570 0.64260 0.24980 0.06000
O 	O 	0.30158 0.86583 0.54806 -0.47300
O 	O 	0.35413 0.91766 0.54844 -0.49400
C 	C 	0.32050 0.90140 0.56230 0.39200
C 	C 	0.29450 0.92150 0.60060 -0.09800
C 	C 	0.25660 0.90460 0.61800 0.01700
H 	H 	0.24560 0.87920 0.60500 0.03300
C 	C 	0.23420 0.92350 0.65350 -0.06900
H 	H 	0.20790 0.91210 0.66380 0.04800
C 	C 	0.25260 0.96170 0.67460 -0.03300
C 	C 	0.29070 0.97920 0.65710 -0.03600
H 	H 	0.30200 0.00460 0.67000 0.03000
C 	C 	0.31230 0.95940 0.62050 -0.00600
H 	H 	0.33820 0.97100 0.60930 0.04400
C 	C 	0.22730 0.98350 0.71380 0.18500
C 	C 	0.18390 0.98350 0.71430 -0.27200
H 	H 	0.16920 0.97180 0.68920 0.12200
C 	C 	0.09058 0.03889 0.75069 0.10700
C 	C 	0.11263 0.08113 0.75020 -0.09100
H 	H 	0.14260 0.08570 0.75020 0.06000
O 	O 	0.80158 0.36583 0.04806 -0.48900
O 	O 	0.85413 0.41766 0.04844 -0.51100
C 	C 	0.82050 0.40140 0.06230 0.39800
C 	C 	0.79450 0.42150 0.10060 -0.12200
C 	C 	0.75660 0.40460 0.11800 0.03600
H 	H 	0.74560 0.37920 0.10500 0.02100
C 	C 	0.73420 0.42350 0.15350 -0.09300
H 	H 	0.70790 0.41210 0.16380 0.05300
C 	C 	0.75260 0.46170 0.17460 -0.01000
C 	C 	0.79070 0.47920 0.15710 -0.08200
H 	H 	0.80200 0.50460 0.17000 0.05100
C 	C 	0.81230 0.45940 0.12050 0.02000
H 	H 	0.83820 0.47100 0.10930 0.02700
C 	C 	0.72730 0.48350 0.21380 0.15700
C 	C 	0.68390 0.48350 0.21430 -0.27000
H 	H 	0.66920 0.47180 0.18920 0.11600
C 	C 	0.59058 0.53889 0.25069 0.10200
C 	C 	0.61263 0.58113 0.25020 -0.09100
H 	H 	0.64260 0.58570 0.25020 0.05900
O 	O 	0.69842 0.13417 0.54806 -0.47500
O 	O 	0.64587 0.08234 0.54844 -0.49800
C 	C 	0.67950 0.09860 0.56230 0.40100
C 	C 	0.70550 0.07850 0.60060 -0.12300
C 	C 	0.74340 0.09540 0.61800 0.04200
H 	H 	0.75440 0.12080 0.60500 0.02500
C 	C 	0.76580 0.07650 0.65350 -0.09600
H 	H 	0.79210 0.08790 0.66380 0.05700
C 	C 	0.74740 0.03830 0.67460 -0.00100
C 	C 	0.70930 0.02080 0.65710 -0.10800
H 	H 	0.69800 0.99540 0.67000 0.07200
C 	C 	0.68770 0.04060 0.62050 0.03600
H 	H 	0.66180 0.02900 0.60930 0.02400
C 	C 	0.77270 0.01650 0.71380 0.16500
C 	C 	0.81610 0.01650 0.71430 -0.27700
H 	H 	0.83080 0.02820 0.68920 0.12000
C 	C 	0.90942 0.96111 0.75069 0.12000
C 	C 	0.88737 0.91887 0.75020 -0.09100
H 	H 	0.85740 0.91430 0.75020 0.06400
O 	O 	0.19842 0.63417 0.04806 -0.48900
O 	O 	0.14587 0.58234 0.04844 -0.51200
C 	C 	0.17950 0.59860 0.06230 0.39900
C 	C 	0.20550 0.57850 0.10060 -0.12300
C 	C 	0.24340 0.59540 0.11800 0.03600
H 	H 	0.25440 0.62080 0.10500 0.02100
C 	C 	0.26580 0.57650 0.15350 -0.09300
H 	H 	0.29210 0.58790 0.16380 0.05300
C 	C 	0.24740 0.53830 0.17460 -0.01000
C 	C 	0.20930 0.52080 0.15710 -0.08300
H 	H 	0.19800 0.49540 0.17000 0.05000
C 	C 	0.18770 0.54060 0.12050 0.02000
H 	H 	0.16180 0.52900 0.10930 0.02500
C 	C 	0.27270 0.51650 0.21380 0.15600
C 	C 	0.31610 0.51650 0.21430 -0.27000
H 	H 	0.33080 0.52820 0.18920 0.11600
C 	C 	0.40942 0.46111 0.25069 0.10200
C 	C 	0.38737 0.41887 0.25020 -0.09100
H 	H 	0.35740 0.41430 0.25020 0.05900
O 	O 	0.86583 0.69842 0.54806 -0.47200
O 	O 	0.91766 0.64587 0.54844 -0.49400
C 	C 	0.90140 0.67950 0.56230 0.39200
C 	C 	0.92150 0.70550 0.60060 -0.09800
C 	C 	0.90460 0.74340 0.61800 0.01800
H 	H 	0.87920 0.75440 0.60500 0.03400
C 	C 	0.92350 0.76580 0.65350 -0.06900
H 	H 	0.91210 0.79210 0.66380 0.04900
C 	C 	0.96170 0.74740 0.67460 -0.03200
C 	C 	0.97920 0.70930 0.65710 -0.03600
H 	H 	0.00460 0.69800 0.67000 0.03000
C 	C 	0.95940 0.68770 0.62050 -0.00600
H 	H 	0.97100 0.66180 0.60930 0.04400
C 	C 	0.98350 0.77270 0.71380 0.18500
C 	C 	0.98350 0.81610 0.71430 -0.27200
H 	H 	0.97180 0.83080 0.68920 0.12300
C 	C 	0.03889 0.90942 0.75069 0.10800
C 	C 	0.08113 0.88737 0.75020 -0.08800
H 	H 	0.08570 0.85740 0.75020 0.06000
O 	O 	0.36583 0.19842 0.04806 -0.49000
O 	O 	0.41766 0.14587 0.04844 -0.51300
C 	C 	0.40140 0.17950 0.06230 0.39900
C 	C 	0.42150 0.20550 0.10060 -0.12300
C 	C 	0.40460 0.24340 0.11800 0.03600
H 	H 	0.37920 0.25440 0.10500 0.02100
C 	C 	0.42350 0.26580 0.15350 -0.09300
H 	H 	0.41210 0.29210 0.16380 0.05300
C 	C 	0.46170 0.24740 0.17460 -0.01000
C 	C 	0.47920 0.20930 0.15710 -0.08300
H 	H 	0.50460 0.19800 0.17000 0.05000
C 	C 	0.45940 0.18770 0.12050 0.02000
H 	H 	0.47100 0.16180 0.10930 0.02500
C 	C 	0.48350 0.27270 0.21380 0.15600
C 	C 	0.48350 0.31610 0.21430 -0.27000
H 	H 	0.47180 0.33080 0.18920 0.11500
C 	C 	0.53889 0.40942 0.25069 0.10200
C 	C 	0.58113 0.38737 0.25020 -0.09100
H 	H 	0.58570 0.35740 0.25020 0.05900
O 	O 	0.13417 0.30158 0.54806 -0.47500
O 	O 	0.08234 0.35413 0.54844 -0.49900
C 	C 	0.09860 0.32050 0.56230 0.40100
C 	C 	0.07850 0.29450 0.60060 -0.12400
C 	C 	0.09540 0.25660 0.61800 0.04300
H 	H 	0.12080 0.24560 0.60500 0.02400
C 	C 	0.07650 0.23420 0.65350 -0.09700
H 	H 	0.08790 0.20790 0.66380 0.05700
C 	C 	0.03830 0.25260 0.67460 -0.00100
C 	C 	0.02080 0.29070 0.65710 -0.10900
H 	H 	0.99540 0.30200 0.67000 0.07300
C 	C 	0.04060 0.31230 0.62050 0.03600
H 	H 	0.02900 0.33820 0.60930 0.02400
C 	C 	0.01650 0.22730 0.71380 0.16400
C 	C 	0.01650 0.18390 0.71430 -0.27600
H 	H 	0.02820 0.16920 0.68920 0.11900
C 	C 	0.96111 0.09058 0.75069 0.12000
C 	C 	0.91887 0.11263 0.75020 -0.09500
H 	H 	0.91430 0.14260 0.75020 0.06400
O 	O 	0.63417 0.80158 0.04806 -0.48900
O 	O 	0.58234 0.85413 0.04844 -0.51100
C 	C 	0.59860 0.82050 0.06230 0.39800
C 	C 	0.57850 0.79450 0.10060 -0.12200
C 	C 	0.59540 0.75660 0.11800 0.03500
H 	H 	0.62080 0.74560 0.10500 0.02200
C 	C 	0.57650 0.73420 0.15350 -0.09200
H 	H 	0.58790 0.70790 0.16380 0.05300
C 	C 	0.53830 0.75260 0.17460 -0.01000
C 	C 	0.52080 0.79070 0.15710 -0.08200
H 	H 	0.49540 0.80200 0.17000 0.05100
C 	C 	0.54060 0.81230 0.12050 0.02000
H 	H 	0.52900 0.83820 0.10930 0.02700
C 	C 	0.51650 0.72730 0.21380 0.15700
C 	C 	0.51650 0.68390 0.21430 -0.27000
H 	H 	0.52820 0.66920 0.18920 0.11600
C 	C 	0.46111 0.59058 0.25069 0.10200
C 	C 	0.41887 0.61263 0.25020 -0.09100
H 	H 	0.41430 0.64260 0.25020 0.05900
Zn	Zn	0.32512 0.17488 -0.00000 1.18300
Zn	Zn	0.39350 0.10650 -0.00000 1.18800
Zn	Zn	0.67488 0.82512 -0.00000 1.18300
Zn	Zn	0.60650 0.89350 -0.00000 1.18900
Zn	Zn	0.17488 0.32512 0.50000 1.20000
Zn	Zn	0.10650 0.39350 0.50000 1.20500
Zn	Zn	0.82512 0.32512 -0.00000 1.18300
Zn	Zn	0.89350 0.39350 -0.00000 1.18900
Zn	Zn	0.17488 0.67488 -0.00000 1.18300
Zn	Zn	0.10650 0.60650 -0.00000 1.18800
Zn	Zn	0.67488 0.17488 0.50000 1.20000
Zn	Zn	0.60650 0.10650 0.50000 1.20500
Zn	Zn	0.32512 0.82512 0.50000 1.20000
Zn	Zn	0.39350 0.89350 0.50000 1.20600
Zn	Zn	0.82512 0.67488 0.50000 1.20000
Zn	Zn	0.89350 0.60650 0.50000 1.20600
Zn	Zn	0.00000 0.00000 0.23781 0.76900
Zn	Zn	0.50000 0.50000 0.73781 0.77400
Zn	Zn	-0.00000 0.00000 0.26219 0.77000
Zn	Zn	0.50000 0.50000 0.76219 0.77600
Zn	Zn	0.00000 0.00000 0.76219 0.77200
Zn	Zn	0.50000 0.50000 0.26219 0.77400
Zn	Zn	0.00000 0.00000 0.73781 0.77000
Zn	Zn	0.50000 0.50000 0.23781 0.77300
N 	N 	0.04779 0.95221 0.25000 -0.34900
N 	N 	0.54779 0.45221 0.75000 -0.34700
N 	N 	0.95221 0.04779 0.25000 -0.34900
N 	N 	0.45221 0.54779 0.75000 -0.34700
N 	N 	0.04779 0.04779 0.25000 -0.35200
N 	N 	0.54779 0.54779 0.75000 -0.34700
N 	N 	0.95221 0.95221 0.25000 -0.34600
N 	N 	0.45221 0.45221 0.75000 -0.34700
N 	N 	0.95221 0.04779 0.75000 -0.34800
N 	N 	0.45221 0.54779 0.25000 -0.34800
N 	N 	0.04779 0.95221 0.75000 -0.34800
N 	N 	0.54779 0.45221 0.25000 -0.34800
N 	N 	0.95221 0.95221 0.75000 -0.34500
N 	N 	0.45221 0.45221 0.25000 -0.34800
N 	N 	0.04779 0.04779 0.75000 -0.35100
N 	N 	0.54779 0.54779 0.25000 -0.34800
C 	C 	0.24980 0.00000 0.25000 -0.25500
H 	H 	0.28010 0.00000 0.25000 0.11200
C 	C 	0.16010 0.00000 0.25000 0.21800
C 	C 	0.11330 0.00000 0.25000 -0.23000
C 	C 	0.74980 0.50000 0.75000 -0.24100
H 	H 	0.78010 0.50000 0.75000 0.11300
C 	C 	0.66010 0.50000 0.75000 0.23200
C 	C 	0.61330 0.50000 0.75000 -0.21800
C 	C 	0.75020 0.00000 0.25000 -0.25400
H 	H 	0.71990 0.00000 0.25000 0.11200
C 	C 	0.83990 0.00000 0.25000 0.21900
C 	C 	0.88670 0.00000 0.25000 -0.22800
C 	C 	0.25020 0.50000 0.75000 -0.24000
H 	H 	0.21990 0.50000 0.75000 0.11200
C 	C 	0.33990 0.50000 0.75000 0.23200
C 	C 	0.38670 0.50000 0.75000 -0.21800
C 	C 	-0.00000 0.24980 0.25000 -0.25500
H 	H 	-0.00000 0.28010 0.25000 0.11200
C 	C 	0.00000 0.16010 0.25000 0.21800
C 	C 	-0.00000 0.11330 0.25000 -0.23000
C 	C 	0.50000 0.74980 0.75000 -0.24100
H 	H 	0.50000 0.78010 0.75000 0.11300
C 	C 	0.50000 0.66010 0.75000 0.23200
C 	C 	0.50000 0.61330 0.75000 -0.21800
C 	C 	0.00000 0.75020 0.25000 -0.25500
H 	H 	0.00000 0.71990 0.25000 0.11200
C 	C 	0.00000 0.83990 0.25000 0.22000
C 	C 	0.00000 0.88670 0.25000 -0.22800
C 	C 	0.50000 0.25020 0.75000 -0.24000
H 	H 	0.50000 0.21990 0.75000 0.11200
C 	C 	0.50000 0.33990 0.75000 0.23200
C 	C 	0.50000 0.38670 0.75000 -0.21800
C 	C 	0.75020 0.00000 0.75000 -0.26000
H 	H 	0.71990 0.00000 0.75000 0.11600
C 	C 	0.83990 0.00000 0.75000 0.22600
C 	C 	0.88670 0.00000 0.75000 -0.22900
C 	C 	0.25020 0.50000 0.25000 -0.23400
H 	H 	0.21990 0.50000 0.25000 0.10800
C 	C 	0.33990 0.50000 0.25000 0.22500
C 	C 	0.38670 0.50000 0.25000 -0.21700
C 	C 	0.24980 0.00000 0.75000 -0.26000
H 	H 	0.28010 0.00000 0.75000 0.11500
C 	C 	0.16010 0.00000 0.75000 0.22500
C 	C 	0.11330 0.00000 0.75000 -0.23100
C 	C 	0.74980 0.50000 0.25000 -0.23500
H 	H 	0.78010 0.50000 0.25000 0.10900
C 	C 	0.66010 0.50000 0.25000 0.22500
C 	C 	0.61330 0.50000 0.25000 -0.21700
C 	C 	-0.00000 0.75020 0.75000 -0.26000
H 	H 	-0.00000 0.71990 0.75000 0.11600
C 	C 	-0.00000 0.83990 0.75000 0.22600
C 	C 	-0.00000 0.88670 0.75000 -0.22900
C 	C 	0.50000 0.25020 0.25000 -0.23400
H 	H 	0.50000 0.21990 0.25000 0.10800
C 	C 	0.50000 0.33990 0.25000 0.22500
C 	C 	0.50000 0.38670 0.25000 -0.21700
C 	C 	-0.00000 0.24980 0.75000 -0.26000
H 	H 	-0.00000 0.28010 0.75000 0.11500
C 	C 	-0.00000 0.16010 0.75000 0.22500
C 	C 	-0.00000 0.11330 0.75000 -0.23100
C 	C 	0.50000 0.74980 0.25000 -0.23500
H 	H 	0.50000 0.78010 0.25000 0.10900
C 	C 	0.50000 0.66010 0.25000 0.22500
C 	C 	0.50000 0.61330 0.25000 -0.21700
