data_crystal

_cell_length_a 8.52400
_cell_length_b 17.21390
_cell_length_c 17.21390
_cell_angle_alpha 120.00000
_cell_angle_beta  90.00000
_cell_angle_gamma 90.00000

_symmetry_space_group_name_	'P 1'
_symmetry_space_group_name_H-M	'P 1'

loop_
_symmetry_equiv_pos_as_xyz
  x,y,z

loop_
_atom_site_label
_atom_site_type_symbol
_atom_site_fract_x
_atom_site_fract_y
_atom_site_fract_z
_atom_site_charge
Ni	Ni	0.66667 0.47466 0.47466 1.08600
Ni	Ni	0.33333 0.00000 0.52534 1.06400
Ni	Ni	-0.00000 0.52534 -0.00000 1.04900
H 	H 	0.33720 0.23450 0.53360 0.12300
H 	H 	0.54740 0.19250 0.30650 0.07200
H 	H 	0.46930 0.04390 0.23600 0.00700
H 	H 	0.00387 0.29910 0.76550 0.13400
H 	H 	0.21407 0.11400 0.80750 0.07300
H 	H 	0.13597 0.19210 0.95610 0.03400
H 	H 	0.67053 0.46640 0.70090 0.11900
H 	H 	0.88073 0.69350 0.88600 0.08800
H 	H 	0.80263 0.76400 0.80790 0.06100
H 	H 	0.66280 0.70090 0.46640 0.11800
H 	H 	0.45260 0.88600 0.69350 0.07800
H 	H 	0.53070 0.80790 0.76400 0.05700
H 	H 	0.99613 0.53360 0.23450 0.09400
H 	H 	0.78593 0.30650 0.19250 0.04200
H 	H 	0.86403 0.23600 0.04390 0.05000
H 	H 	0.32947 0.76550 0.29910 0.10200
H 	H 	0.11927 0.80750 0.11400 0.03700
H 	H 	0.19737 0.95610 0.19210 0.07200
C 	C 	0.45150 0.22816 0.42734 0.01300
C 	C 	0.36380 0.19608 0.47390 -0.17300
C 	C 	0.35830 0.04792 0.34192 -0.13100
C 	C 	0.49040 0.17110 0.33793 -0.09200
C 	C 	0.31640 0.10707 0.43140 0.19600
C 	C 	0.44350 0.08190 0.29600 0.02300
C 	C 	0.50230 0.32410 0.47358 0.28700
C 	C 	0.11817 0.19918 0.77184 0.03000
C 	C 	0.03047 0.27782 0.80392 -0.23100
C 	C 	0.02497 0.29400 0.95208 -0.10200
C 	C 	0.15707 0.16683 0.82890 -0.09600
C 	C 	0.98307 0.32433 0.89293 0.27200
C 	C 	0.11017 0.21410 0.91810 0.02400
C 	C 	0.16897 0.14948 0.67590 0.28100
C 	C 	0.78483 0.57266 0.80082 0.00900
C 	C 	0.69713 0.52610 0.72218 -0.14600
C 	C 	0.69163 0.65808 0.70600 -0.03700
C 	C 	0.82373 0.66207 0.83317 -0.05300
C 	C 	0.64973 0.56860 0.67567 0.17100
C 	C 	0.77683 0.70400 0.78590 -0.01500
C 	C 	0.83563 0.52642 0.85052 0.29000
C 	C 	0.54850 0.80082 0.57266 0.00100
C 	C 	0.63620 0.72218 0.52610 -0.14300
C 	C 	0.64170 0.70600 0.65808 -0.03400
C 	C 	0.50960 0.83317 0.66207 -0.05000
C 	C 	0.68360 0.67567 0.56860 0.16800
C 	C 	0.55650 0.78590 0.70400 -0.02100
C 	C 	0.49770 0.85052 0.52642 0.29300
C 	C 	0.88183 0.42734 0.22816 -0.05600
C 	C 	0.96953 0.47390 0.19608 -0.04500
C 	C 	0.97503 0.34192 0.04792 0.03000
C 	C 	0.84293 0.33793 0.17110 -0.00300
C 	C 	0.01693 0.43140 0.10707 0.05000
C 	C 	0.88983 0.29600 0.08190 -0.08300
C 	C 	0.83103 0.47358 0.32410 0.31300
C 	C 	0.21517 0.77184 0.19918 -0.04200
C 	C 	0.30287 0.80392 0.27782 -0.10900
C 	C 	0.30837 0.95208 0.29400 0.05300
C 	C 	0.17627 0.82890 0.16683 -0.00900
C 	C 	0.35027 0.89293 0.32433 0.13000
C 	C 	0.22317 0.91810 0.21410 -0.08300
C 	C 	0.16437 0.67590 0.14948 0.30900
O 	O 	0.47070 0.37235 0.55732 -0.24100
O 	O 	0.22910 0.07668 0.47723 -0.35500
O 	O 	0.57350 0.35116 0.42865 -0.39900
O 	O 	0.13737 0.18497 0.62765 -0.24800
O 	O 	0.89577 0.40055 0.92332 -0.31100
O 	O 	0.24017 0.07749 0.64884 -0.41100
O 	O 	0.80403 0.44268 0.81503 -0.22500
O 	O 	0.56243 0.52277 0.59945 -0.33000
O 	O 	0.90683 0.57135 0.92251 -0.35200
O 	O 	0.52930 0.81503 0.44268 -0.23300
O 	O 	0.77090 0.59945 0.52277 -0.32200
O 	O 	0.42650 0.92251 0.57135 -0.37300
O 	O 	0.86263 0.55732 0.37235 -0.23800
O 	O 	0.10423 0.47723 0.07668 -0.32900
O 	O 	0.75983 0.42865 0.35116 -0.40400
O 	O 	0.19597 0.62765 0.18497 -0.25500
O 	O 	0.43757 0.92332 0.40055 -0.29400
O 	O 	0.09317 0.64884 0.07749 -0.42900
