data_crystal

_cell_length_a 12.51750
_cell_length_b 17.86000
_cell_length_c 12.34350
_cell_angle_alpha 90.00000
_cell_angle_beta  112.60100
_cell_angle_gamma 90.00000

_symmetry_space_group_name_	'P 1'
_symmetry_space_group_name_H-M	'P 1'

loop_
_symmetry_equiv_pos_as_xyz
  x,y,z

loop_
_atom_site_label
_atom_site_type_symbol
_atom_site_fract_x
_atom_site_fract_y
_atom_site_fract_z
_atom_site_charge
O 	O 	0.99822 0.07750 0.37195 -0.39800
O 	O 	0.14158 0.04259 0.31590 -0.30900
C 	C 	0.05550 0.08329 0.30790 0.30300
C 	C 	0.01610 0.14214 0.21280 -0.17100
C 	C 	0.91840 0.18521 0.19730 0.11700
H 	H 	0.87880 0.17870 0.24870 0.01100
C 	C 	0.87820 0.23790 0.10680 -0.14100
C 	C 	0.93860 0.24859 0.03320 0.04800
H 	H 	0.91220 0.28450 0.97190 0.05300
C 	C 	0.03770 0.20640 0.05020 -0.11700
C 	C 	0.07600 0.15366 0.13970 0.05600
H 	H 	0.14360 0.12520 0.15120 0.01900
C 	C 	0.77160 0.28265 0.09070 0.34400
O 	O 	0.73383 0.32823 0.00439 -0.33600
O 	O 	0.72582 0.27172 0.16384 -0.47500
C 	C 	0.10060 0.21637 0.96920 0.14700
H 	H 	0.08880 0.26750 0.93580 0.00100
H 	H 	0.18460 0.20770 0.01140 -0.03200
O 	O 	0.05110 0.16110 0.87773 -0.25400
C 	C 	0.10180 0.15274 0.79820 0.18000
C 	C 	0.05060 0.09924 0.71210 -0.14100
H 	H 	0.98430 0.07350 0.71250 0.09400
N 	N 	0.09035 0.08235 0.62886 -0.21300
C 	C 	0.18440 0.11884 0.62930 0.02600
H 	H 	0.21410 0.10660 0.57130 0.00500
C 	C 	0.23970 0.17380 0.71150 -0.06200
C 	C 	0.19660 0.19260 0.79730 -0.11800
H 	H 	0.23090 0.23120 0.85270 0.08100
C 	C 	0.34670 0.21287 0.71080 0.31700
O 	O 	0.39737 0.18194 0.65209 -0.47100
O 	O 	0.37613 0.27250 0.76881 -0.31500
Co	Co	0.56249 0.29553 0.15740 1.05700
O 	O 	0.00178 0.57750 0.12805 -0.47500
O 	O 	0.85842 0.54259 0.18410 -0.29300
C 	C 	0.94450 0.58329 0.19210 0.34600
C 	C 	0.98390 0.64214 0.28720 -0.00200
C 	C 	0.08160 0.68521 0.30270 -0.07700
H 	H 	0.12120 0.67870 0.25130 0.06200
C 	C 	0.12180 0.73790 0.39320 -0.02900
C 	C 	0.06140 0.74859 0.46680 -0.13700
H 	H 	0.08780 0.78450 0.52810 0.07700
C 	C 	0.96230 0.70640 0.44980 0.12200
C 	C 	0.92400 0.65366 0.36030 -0.09300
H 	H 	0.85640 0.62520 0.34880 0.08000
C 	C 	0.22840 0.78265 0.40930 0.30100
O 	O 	0.26617 0.82823 0.49561 -0.30500
O 	O 	0.27418 0.77172 0.33616 -0.46300
C 	C 	0.89940 0.71637 0.53080 -0.06900
H 	H 	0.91120 0.76750 0.56420 0.06800
H 	H 	0.81540 0.70770 0.48860 0.05300
O 	O 	0.94890 0.66110 0.62227 -0.17600
C 	C 	0.89820 0.65274 0.70180 0.11000
C 	C 	0.94940 0.59924 0.78790 0.02300
H 	H 	0.01570 0.57350 0.78750 0.00300
N 	N 	0.90965 0.58235 0.87114 -0.21200
C 	C 	0.81560 0.61884 0.87070 0.04900
H 	H 	0.78590 0.60660 0.92870 0.01800
C 	C 	0.76030 0.67380 0.78850 -0.08100
C 	C 	0.80340 0.69260 0.70270 -0.07200
H 	H 	0.76910 0.73120 0.64730 0.06100
C 	C 	0.65330 0.71287 0.78920 0.32200
O 	O 	0.60263 0.68194 0.84791 -0.46100
O 	O 	0.62387 0.77250 0.73119 -0.31600
Co	Co	0.43751 0.79553 0.34260 1.06300
O 	O 	0.00178 0.92250 0.62805 -0.44000
O 	O 	0.85842 0.95741 0.68410 -0.26000
C 	C 	0.94450 0.91671 0.69210 0.33900
C 	C 	0.98390 0.85786 0.78720 0.00900
C 	C 	0.08160 0.81479 0.80270 -0.06700
H 	H 	0.12120 0.82130 0.75130 0.06600
C 	C 	0.12180 0.76210 0.89320 -0.04000
C 	C 	0.06140 0.75141 0.96680 -0.08600
H 	H 	0.08780 0.71550 0.02810 0.03600
C 	C 	0.96230 0.79360 0.94980 0.15400
C 	C 	0.92400 0.84634 0.86030 -0.10700
H 	H 	0.85640 0.87480 0.84880 0.09700
C 	C 	0.22840 0.71735 0.90930 0.31000
O 	O 	0.26617 0.67177 0.99561 -0.30200
O 	O 	0.27418 0.72828 0.83616 -0.45900
C 	C 	0.89940 0.78363 0.03080 -0.16100
H 	H 	0.91120 0.73250 0.06420 0.08800
H 	H 	0.81540 0.79230 0.98860 0.10100
O 	O 	0.94890 0.83890 0.12227 -0.16000
C 	C 	0.89820 0.84726 0.20180 0.10300
C 	C 	0.94940 0.90076 0.28790 0.02900
H 	H 	0.01570 0.92650 0.28750 0.01300
N 	N 	0.90965 0.91765 0.37114 -0.20800
C 	C 	0.81560 0.88116 0.37070 0.05300
H 	H 	0.78590 0.89340 0.42870 0.01500
C 	C 	0.76030 0.82620 0.28850 -0.08600
C 	C 	0.80340 0.80740 0.20270 -0.06500
H 	H 	0.76910 0.76880 0.14730 0.05200
C 	C 	0.65330 0.78713 0.28920 0.32500
O 	O 	0.60263 0.81806 0.34791 -0.46500
O 	O 	0.62387 0.72750 0.23119 -0.33000
Co	Co	0.43751 0.70447 0.84260 1.06700
O 	O 	0.99822 0.42250 0.87195 -0.37700
O 	O 	0.14158 0.45741 0.81590 -0.27700
C 	C 	0.05550 0.41671 0.80790 0.30200
C 	C 	0.01610 0.35786 0.71280 -0.14400
C 	C 	0.91840 0.31479 0.69730 0.10600
H 	H 	0.87880 0.32130 0.74870 0.02100
C 	C 	0.87820 0.26210 0.60680 -0.13600
C 	C 	0.93860 0.25141 0.53320 0.06700
H 	H 	0.91220 0.21550 0.47190 0.02600
C 	C 	0.03770 0.29360 0.55020 -0.06000
C 	C 	0.07600 0.34634 0.63970 0.02600
H 	H 	0.14360 0.37480 0.65120 0.04100
C 	C 	0.77160 0.21735 0.59070 0.34600
O 	O 	0.73383 0.17177 0.50439 -0.33100
O 	O 	0.72582 0.22828 0.66384 -0.47000
C 	C 	0.10060 0.28363 0.46920 0.03400
H 	H 	0.08880 0.23250 0.43580 0.02400
H 	H 	0.18460 0.29230 0.51140 0.02400
O 	O 	0.05110 0.33890 0.37773 -0.23600
C 	C 	0.10180 0.34726 0.29820 0.17100
C 	C 	0.05060 0.40076 0.21210 -0.13700
H 	H 	0.98430 0.42650 0.21250 0.10400
N 	N 	0.09035 0.41765 0.12886 -0.21100
C 	C 	0.18440 0.38116 0.12930 0.02900
H 	H 	0.21410 0.39340 0.07130 0.00100
C 	C 	0.23970 0.32620 0.21150 -0.06600
C 	C 	0.19660 0.30740 0.29730 -0.11100
H 	H 	0.23090 0.26880 0.35270 0.07200
C 	C 	0.34670 0.28713 0.21080 0.32000
O 	O 	0.39737 0.31806 0.15209 -0.47500
O 	O 	0.37613 0.22750 0.26881 -0.32800
Co	Co	0.56249 0.20447 0.65740 1.06100
Co	Co	-0.00000 0.00000 0.50000 1.07400
Co	Co	-0.00000 0.50000 -0.00000 1.08600
