data_crystal

_cell_length_a 12.55280
_cell_length_b 12.66300
_cell_length_c 18.18900
_cell_angle_alpha 90.00000
_cell_angle_beta  90.00000
_cell_angle_gamma 113.38800

_symmetry_space_group_name_	'P 1'
_symmetry_space_group_name_H-M	'P 1'

loop_
_symmetry_equiv_pos_as_xyz
  x,y,z

loop_
_atom_site_label
_atom_site_type_symbol
_atom_site_fract_x
_atom_site_fract_y
_atom_site_fract_z
_atom_site_charge
Mn	Mn	0.67734 0.07290 0.20909 1.18600
Mn	Mn	0.82266 0.92710 0.70909 1.19100
Mn	Mn	0.32266 0.92710 0.79091 1.18500
Mn	Mn	0.17734 0.07290 0.29091 1.18000
Mn	Mn	0.50000 0.50000 -0.00000 1.21200
Mn	Mn	0.00000 0.50000 0.50000 1.22200
H 	H 	0.25910 0.39140 0.18250 0.02600
H 	H 	0.16680 0.65360 0.12780 0.02900
H 	H 	0.98410 0.42110 0.28230 0.08000
H 	H 	0.02510 0.69160 0.20300 -0.03300
H 	H 	0.94990 0.59900 0.26330 0.01800
H 	H 	0.87450 0.74120 0.22340 0.07000
H 	H 	0.59570 0.72300 0.10390 -0.00500
H 	H 	0.72580 0.48980 0.07260 0.03000
H 	H 	0.24090 0.60860 0.68250 0.02900
H 	H 	0.33320 0.34640 0.62780 0.04800
H 	H 	0.51590 0.57890 0.78230 0.04200
H 	H 	0.47490 0.30840 0.70300 0.03100
H 	H 	0.55010 0.40100 0.76330 0.04300
H 	H 	0.62550 0.25880 0.72340 0.06200
H 	H 	0.90430 0.27700 0.60390 0.01100
H 	H 	0.77420 0.51020 0.57260 0.04400
H 	H 	0.74090 0.60860 0.81750 0.03700
H 	H 	0.83320 0.34640 0.87220 0.07200
H 	H 	0.01590 0.57890 0.71770 -0.00300
H 	H 	0.97490 0.30840 0.79700 0.09900
H 	H 	0.05010 0.40100 0.73670 0.07000
H 	H 	0.12550 0.25880 0.77660 0.05100
H 	H 	0.40430 0.27700 0.89610 0.00700
H 	H 	0.27420 0.51020 0.92740 0.05400
H 	H 	0.75910 0.39140 0.31750 0.03400
H 	H 	0.66680 0.65360 0.37220 0.05200
H 	H 	0.48410 0.42110 0.21770 0.03700
H 	H 	0.52510 0.69160 0.29700 0.03200
H 	H 	0.44990 0.59900 0.23670 0.04300
H 	H 	0.37450 0.74120 0.27660 0.05900
H 	H 	0.09570 0.72300 0.39610 -0.01000
H 	H 	0.22580 0.48980 0.42740 0.04000
C 	C 	0.10250 0.28340 0.28273 0.33900
C 	C 	0.11880 0.39030 0.23879 -0.09800
C 	C 	0.20900 0.43070 0.18832 0.02900
C 	C 	0.22690 0.52800 0.14610 -0.10900
C 	C 	0.32170 0.56630 0.08884 0.34400
C 	C 	0.15390 0.58610 0.15565 0.00300
C 	C 	0.06240 0.54620 0.20556 -0.03800
C 	C 	0.04570 0.44820 0.24758 -0.06900
C 	C 	0.98270 0.60850 0.21303 0.11500
C 	C 	0.81530 0.60850 0.14971 0.14300
C 	C 	0.81780 0.70560 0.18663 -0.09100
C 	C 	0.73550 0.74980 0.16869 -0.08500
C 	C 	0.73860 0.85750 0.20567 0.33300
C 	C 	0.65190 0.69300 0.11590 0.03600
C 	C 	0.72800 0.55660 0.09749 -0.05800
C 	C 	0.39750 0.71660 0.78273 0.34400
C 	C 	0.38120 0.60970 0.73879 -0.10200
C 	C 	0.29100 0.56930 0.68832 0.02900
C 	C 	0.27310 0.47200 0.64610 -0.09300
C 	C 	0.17830 0.43370 0.58884 0.34000
C 	C 	0.34610 0.41390 0.65565 -0.02100
C 	C 	0.43760 0.45380 0.70556 0.01600
C 	C 	0.45430 0.55180 0.74758 -0.02400
C 	C 	0.51730 0.39150 0.71303 -0.01100
C 	C 	0.68470 0.39150 0.64971 0.13400
C 	C 	0.68220 0.29440 0.68663 -0.08600
C 	C 	0.76450 0.25020 0.66869 -0.08200
C 	C 	0.76140 0.14250 0.70567 0.33100
C 	C 	0.84810 0.30700 0.61590 0.04100
C 	C 	0.77200 0.44340 0.59749 -0.05000
C 	C 	0.89750 0.71660 0.71727 0.35100
C 	C 	0.88120 0.60970 0.76121 -0.10700
C 	C 	0.79100 0.56930 0.81168 0.02700
C 	C 	0.77310 0.47200 0.85390 -0.06900
C 	C 	0.67830 0.43370 0.91116 0.33400
C 	C 	0.84610 0.41390 0.84435 -0.04900
C 	C 	0.93760 0.45380 0.79444 0.07500
C 	C 	0.95430 0.55180 0.75242 0.02100
C 	C 	0.01730 0.39150 0.78697 -0.14300
C 	C 	0.18470 0.39150 0.85029 0.12300
C 	C 	0.18220 0.29440 0.81337 -0.07600
C 	C 	0.26450 0.25020 0.83131 -0.08900
C 	C 	0.26140 0.14250 0.79433 0.33600
C 	C 	0.34810 0.30700 0.88410 0.04500
C 	C 	0.27200 0.44340 0.90251 -0.04300
C 	C 	0.60250 0.28340 0.21727 0.34600
C 	C 	0.61880 0.39030 0.26121 -0.10300
C 	C 	0.70900 0.43070 0.31168 0.02800
C 	C 	0.72690 0.52800 0.35390 -0.08600
C 	C 	0.82170 0.56630 0.41116 0.33900
C 	C 	0.65390 0.58610 0.34435 -0.02300
C 	C 	0.56240 0.54620 0.29444 0.01700
C 	C 	0.54570 0.44820 0.25242 -0.02400
C 	C 	0.48270 0.60850 0.28697 -0.01100
C 	C 	0.31530 0.60850 0.35029 0.13200
C 	C 	0.31780 0.70560 0.31337 -0.08200
C 	C 	0.23550 0.74980 0.33131 -0.09200
C 	C 	0.23860 0.85750 0.29433 0.33700
C 	C 	0.15190 0.69300 0.38410 0.04000
C 	C 	0.22800 0.55660 0.40251 -0.05200
N 	N 	0.64752 0.59770 0.08127 -0.22500
N 	N 	0.85248 0.40230 0.58127 -0.21000
N 	N 	0.35248 0.40230 0.91873 -0.20600
N 	N 	0.14752 0.59770 0.41873 -0.22400
O 	O 	0.17340 0.23863 0.27077 -0.50300
O 	O 	0.01997 0.24592 0.32849 -0.35900
O 	O 	0.33460 0.65458 0.05075 -0.33000
O 	O 	0.37900 0.50565 0.08164 -0.47900
O 	O 	0.89106 0.55670 0.15915 -0.23000
O 	O 	0.67150 0.90150 0.18359 -0.49200
O 	O 	0.80900 0.89610 0.25836 -0.33900
O 	O 	0.32660 0.76137 0.77077 -0.49700
O 	O 	0.48003 0.75408 0.82849 -0.33100
O 	O 	0.16540 0.34542 0.55075 -0.31200
O 	O 	0.12100 0.49435 0.58164 -0.47300
O 	O 	0.60894 0.44330 0.65915 -0.21000
O 	O 	0.82850 0.09850 0.68359 -0.47600
O 	O 	0.69100 0.10390 0.75836 -0.33600
O 	O 	0.82660 0.76137 0.72923 -0.49100
O 	O 	0.98003 0.75408 0.67151 -0.32500
O 	O 	0.66540 0.34542 0.94925 -0.27300
O 	O 	0.62100 0.49435 0.91836 -0.43700
O 	O 	0.10894 0.44330 0.84085 -0.18900
O 	O 	0.32850 0.09850 0.81641 -0.48200
O 	O 	0.19100 0.10390 0.74164 -0.35300
O 	O 	0.67340 0.23863 0.22923 -0.49700
O 	O 	0.51997 0.24592 0.17151 -0.35400
O 	O 	0.83460 0.65458 0.44925 -0.29400
O 	O 	0.87900 0.50565 0.41836 -0.44700
O 	O 	0.39106 0.55670 0.34085 -0.21000
O 	O 	0.17150 0.90150 0.31641 -0.49900
O 	O 	0.30900 0.89610 0.24164 -0.35400
