data_crystal

_cell_length_a 18.74200
_cell_length_b 22.85950
_cell_length_c 29.66900
_cell_angle_alpha 104.85800
_cell_angle_beta  90.00000
_cell_angle_gamma 90.00000

_symmetry_space_group_name_	'P 1'
_symmetry_space_group_name_H-M	'P 1'

loop_
_symmetry_equiv_pos_as_xyz
  x,y,z

loop_
_atom_site_label
_atom_site_type_symbol
_atom_site_fract_x
_atom_site_fract_y
_atom_site_fract_z
_atom_site_charge
Cu	Cu	0.80246 0.22112 0.52979 0.90800
Cu	Cu	0.73333 0.31813 0.51514 0.90700
Cu	Cu	0.30749 0.30210 0.50116 0.90700
Cu	Cu	0.24017 0.20595 0.51496 0.90500
Cu	Cu	0.50263 0.49259 0.19473 0.91000
Cu	Cu	0.50034 0.46390 0.27595 0.90600
Cu	Cu	0.30246 0.27888 0.97021 0.90800
Cu	Cu	0.23333 0.18187 0.98486 0.90800
Cu	Cu	0.80749 0.19790 0.99884 0.90700
Cu	Cu	0.74017 0.29405 0.98504 0.90500
Cu	Cu	0.00263 0.00741 0.30527 0.90800
Cu	Cu	0.00034 0.03610 0.22405 0.90500
Cu	Cu	0.19754 0.77888 0.47021 0.90800
Cu	Cu	0.26667 0.68187 0.48486 0.90700
Cu	Cu	0.69251 0.69790 0.49884 0.90700
Cu	Cu	0.75983 0.79405 0.48504 0.90500
Cu	Cu	0.49737 0.50741 0.80527 0.91000
Cu	Cu	0.49966 0.53610 0.72405 0.90600
Cu	Cu	0.69754 0.72112 0.02979 0.90800
Cu	Cu	0.76667 0.81813 0.01514 0.90800
Cu	Cu	0.19251 0.80210 0.00116 0.90600
Cu	Cu	0.25983 0.70595 0.01496 0.90400
Cu	Cu	0.99737 0.99259 0.69473 0.90700
Cu	Cu	0.99966 0.96390 0.77595 0.90400
H 	H 	0.13250 0.89050 0.14280 0.06800
H 	H 	0.13680 0.85560 0.27060 0.09600
H 	H 	0.23560 0.74340 0.16110 0.08900
H 	H 	0.29260 0.72210 0.21890 0.03400
H 	H 	0.22200 0.68170 0.20970 0.03500
H 	H 	0.21970 0.72780 0.32220 0.07200
H 	H 	0.34370 0.59440 0.34820 0.05200
H 	H 	0.33430 0.61910 0.21750 0.05300
H 	H 	0.66370 0.36950 0.12440 0.06700
H 	H 	0.79840 0.24290 0.14770 0.09500
H 	H 	0.67920 0.34230 0.25370 0.08500
H 	H 	0.70690 0.26500 0.28220 0.03500
H 	H 	0.77070 0.31260 0.29370 0.03500
H 	H 	0.84600 0.17800 0.25830 0.07200
H 	H 	0.86910 0.14790 0.38640 0.05400
H 	H 	0.74290 0.28360 0.36860 0.05400
H 	H 	0.02240 0.27540 0.53150 0.05900
H 	H 	0.13290 0.41740 0.50830 0.06500
H 	H 	0.91820 0.42420 0.51600 0.06600
H 	H 	0.05740 0.50940 0.52870 0.06900
H 	H 	0.05870 0.48040 0.47370 0.06900
H 	H 	0.63220 0.09280 0.51110 0.06900
H 	H 	0.52210 0.24190 0.50630 0.06300
H 	H 	0.41780 0.08500 0.49900 0.06500
H 	H 	0.56050 0.99810 0.47510 0.06900
H 	H 	0.55330 0.01490 0.53040 0.07000
H 	H 	0.63250 0.60950 0.35720 0.06700
H 	H 	0.63680 0.64440 0.22940 0.09600
H 	H 	0.73560 0.75660 0.33890 0.08900
H 	H 	0.79260 0.77790 0.28110 0.03400
H 	H 	0.72200 0.81830 0.29030 0.03400
H 	H 	0.71970 0.77220 0.17780 0.07200
H 	H 	0.84370 0.90560 0.15180 0.05200
H 	H 	0.83430 0.88090 0.28250 0.05300
H 	H 	0.16370 0.13050 0.37560 0.06700
H 	H 	0.29840 0.25710 0.35230 0.09400
H 	H 	0.17920 0.15770 0.24630 0.08500
H 	H 	0.20690 0.23500 0.21780 0.03400
H 	H 	0.27070 0.18740 0.20630 0.03400
H 	H 	0.34600 0.32200 0.24170 0.07100
H 	H 	0.36910 0.35210 0.11360 0.05300
H 	H 	0.24290 0.21640 0.13140 0.05400
H 	H 	0.52240 0.22460 0.96850 0.05900
H 	H 	0.63290 0.08260 0.99170 0.06500
H 	H 	0.41820 0.07580 0.98400 0.06600
H 	H 	0.55740 0.99060 0.97130 0.06900
H 	H 	0.55870 0.01960 0.02630 0.06900
H 	H 	0.13220 0.40720 0.98890 0.06900
H 	H 	0.02210 0.25810 0.99370 0.06300
H 	H 	0.91780 0.41500 0.00100 0.06800
H 	H 	0.06050 0.50190 0.02490 0.06800
H 	H 	0.05330 0.48510 0.96960 0.07000
H 	H 	0.86750 0.10950 0.85720 0.06800
H 	H 	0.86320 0.14440 0.72940 0.09600
H 	H 	0.76440 0.25660 0.83890 0.08900
H 	H 	0.70740 0.27790 0.78110 0.03400
H 	H 	0.77800 0.31830 0.79030 0.03500
H 	H 	0.78030 0.27220 0.67780 0.07200
H 	H 	0.65630 0.40560 0.65180 0.05200
H 	H 	0.66570 0.38090 0.78250 0.05300
H 	H 	0.33630 0.63050 0.87560 0.06700
H 	H 	0.20160 0.75710 0.85230 0.09500
H 	H 	0.32080 0.65770 0.74630 0.08500
H 	H 	0.29310 0.73500 0.71780 0.03500
H 	H 	0.22930 0.68740 0.70630 0.03500
H 	H 	0.15400 0.82200 0.74170 0.07200
H 	H 	0.13090 0.85210 0.61360 0.05400
H 	H 	0.25710 0.71640 0.63140 0.05400
H 	H 	0.97760 0.72460 0.46850 0.05900
H 	H 	0.86710 0.58260 0.49170 0.06500
H 	H 	0.08180 0.57580 0.48400 0.06600
H 	H 	0.94260 0.49060 0.47130 0.06900
H 	H 	0.94130 0.51960 0.52630 0.06900
H 	H 	0.36780 0.90720 0.48890 0.06900
H 	H 	0.47790 0.75810 0.49370 0.06300
H 	H 	0.58220 0.91500 0.50100 0.06500
H 	H 	0.43950 0.00190 0.52490 0.06900
H 	H 	0.44670 0.98510 0.46960 0.07000
H 	H 	0.36750 0.39050 0.64280 0.06700
H 	H 	0.36320 0.35560 0.77060 0.09600
H 	H 	0.26440 0.24340 0.66110 0.08900
H 	H 	0.20740 0.22210 0.71890 0.03400
H 	H 	0.27800 0.18170 0.70970 0.03400
H 	H 	0.28030 0.22780 0.82220 0.07200
H 	H 	0.15630 0.09440 0.84820 0.05200
H 	H 	0.16570 0.11910 0.71750 0.05300
H 	H 	0.83630 0.86950 0.62440 0.06700
H 	H 	0.70160 0.74290 0.64770 0.09400
H 	H 	0.82080 0.84230 0.75370 0.08500
H 	H 	0.79310 0.76500 0.78220 0.03400
H 	H 	0.72930 0.81260 0.79370 0.03400
H 	H 	0.65400 0.67800 0.75830 0.07100
H 	H 	0.63090 0.64790 0.88640 0.05300
H 	H 	0.75710 0.78360 0.86860 0.05400
H 	H 	0.47760 0.77540 0.03150 0.05900
H 	H 	0.36710 0.91740 0.00830 0.06500
H 	H 	0.58180 0.92420 0.01600 0.06600
H 	H 	0.44260 0.00940 0.02870 0.06900
H 	H 	0.44130 0.98040 0.97370 0.06900
H 	H 	0.86780 0.59280 0.01110 0.06900
H 	H 	0.97790 0.74190 0.00630 0.06300
H 	H 	0.08220 0.58500 0.99900 0.06800
H 	H 	0.93950 0.49810 0.97510 0.06800
H 	H 	0.94670 0.51490 0.03040 0.07000
C 	C 	0.20120 0.79349 0.09398 0.32000
C 	C 	0.18470 0.81364 0.14438 -0.02600
C 	C 	0.14682 0.86574 0.16245 -0.02100
C 	C 	0.12934 0.88236 0.20969 -0.03200
C 	C 	0.08370 0.93613 0.23018 0.34200
C 	C 	0.15000 0.84570 0.23858 -0.10600
C 	C 	0.19030 0.79455 0.21920 0.16700
C 	C 	0.20770 0.77854 0.17333 -0.12000
C 	C 	0.25000 0.71014 0.23415 0.02000
C 	C 	0.27270 0.67961 0.26656 0.01100
C 	C 	0.25230 0.69539 0.31151 -0.01900
C 	C 	0.27930 0.66378 0.34236 -0.07600
C 	C 	0.26003 0.68646 0.39306 0.35300
C 	C 	0.32620 0.61576 0.32689 0.02900
C 	C 	0.34775 0.59876 0.28045 -0.08600
C 	C 	0.32080 0.63030 0.24943 -0.02100
C 	C 	0.40235 0.55227 0.26381 0.36100
C 	C 	0.60333 0.40618 0.20785 0.34300
C 	C 	0.66117 0.36113 0.19088 -0.03500
C 	C 	0.68251 0.34734 0.14478 -0.01600
C 	C 	0.73096 0.30152 0.12826 -0.03400
C 	C 	0.74974 0.28365 0.07772 0.34000
C 	C 	0.76320 0.27303 0.15873 -0.10300
C 	C 	0.74400 0.28854 0.20562 0.16200
C 	C 	0.69283 0.33214 0.22182 -0.10900
C 	C 	0.75930 0.26938 0.28016 0.02000
C 	C 	0.79110 0.23578 0.30854 0.01100
C 	C 	0.83510 0.18879 0.29067 -0.02000
C 	C 	0.86436 0.15627 0.31981 -0.07400
C 	C 	0.91600 0.10507 0.29936 0.36000
C 	C 	0.84875 0.17045 0.36683 0.02400
C 	C 	0.80331 0.21762 0.38463 -0.07800
C 	C 	0.77420 0.25081 0.35597 -0.02500
C 	C 	0.78722 0.23689 0.43577 0.35600
C 	C 	0.88905 0.31775 0.52773 0.34700
C 	C 	0.95915 0.34644 0.52439 -0.05800
C 	C 	0.02320 0.31434 0.52566 0.00500
C 	C 	0.08782 0.34088 0.51821 -0.06100
C 	C 	0.15591 0.30758 0.51633 0.34800
C 	C 	0.08910 0.39796 0.51162 -0.05800
C 	C 	0.02320 0.42696 0.51000 0.06500
C 	C 	0.96130 0.40247 0.51664 -0.06200
C 	C 	0.02980 0.48430 0.50225 -0.12900
C 	C 	0.65703 0.20864 0.51457 0.35300
C 	C 	0.58800 0.11183 0.50818 -0.07000
C 	C 	0.58719 0.17242 0.50889 -0.04700
C 	C 	0.52338 0.20023 0.50592 -0.00200
C 	C 	0.46068 0.16749 0.50240 -0.05400
C 	C 	0.39004 0.19916 0.50212 0.34800
C 	C 	0.46110 0.10723 0.50125 -0.06100
C 	C 	0.52737 0.07917 0.50344 0.06600
C 	C 	0.52900 0.01783 0.50138 -0.13100
C 	C 	0.70120 0.70651 0.40602 0.32000
C 	C 	0.68470 0.68636 0.35562 -0.02600
C 	C 	0.64682 0.63426 0.33755 -0.02000
C 	C 	0.62934 0.61764 0.29031 -0.03300
C 	C 	0.58370 0.56387 0.26982 0.34200
C 	C 	0.65000 0.65430 0.26142 -0.10600
C 	C 	0.69030 0.70545 0.28080 0.16700
C 	C 	0.70770 0.72146 0.32667 -0.11900
C 	C 	0.75000 0.78986 0.26585 0.02000
C 	C 	0.77270 0.82039 0.23344 0.01100
C 	C 	0.75230 0.80461 0.18849 -0.01900
C 	C 	0.77930 0.83622 0.15764 -0.07700
C 	C 	0.76003 0.81354 0.10694 0.35300
C 	C 	0.82620 0.88424 0.17311 0.02900
C 	C 	0.84775 0.90124 0.21955 -0.08600
C 	C 	0.82080 0.86970 0.25057 -0.02100
C 	C 	0.90235 0.94773 0.23619 0.36100
C 	C 	0.10333 0.09382 0.29215 0.34300
C 	C 	0.16117 0.13887 0.30912 -0.03600
C 	C 	0.18251 0.15266 0.35522 -0.01600
C 	C 	0.23096 0.19848 0.37174 -0.03400
C 	C 	0.24974 0.21635 0.42228 0.34000
C 	C 	0.26320 0.22697 0.34127 -0.10300
C 	C 	0.24400 0.21146 0.29438 0.16200
C 	C 	0.19283 0.16786 0.27818 -0.10900
C 	C 	0.25930 0.23062 0.21984 0.02100
C 	C 	0.29110 0.26422 0.19146 0.01000
C 	C 	0.33510 0.31121 0.20933 -0.02000
C 	C 	0.36436 0.34373 0.18019 -0.07500
C 	C 	0.41600 0.39493 0.20064 0.36100
C 	C 	0.34875 0.32955 0.13317 0.02400
C 	C 	0.30331 0.28238 0.11537 -0.07800
C 	C 	0.27420 0.24919 0.14403 -0.02500
C 	C 	0.28722 0.26311 0.06423 0.35600
C 	C 	0.38905 0.18225 0.97227 0.34700
C 	C 	0.45915 0.15356 0.97561 -0.05900
C 	C 	0.52320 0.18566 0.97434 0.00600
C 	C 	0.58782 0.15912 0.98179 -0.06100
C 	C 	0.65591 0.19242 0.98367 0.34800
C 	C 	0.58910 0.10204 0.98838 -0.05800
C 	C 	0.52320 0.07304 0.99000 0.06600
C 	C 	0.46130 0.09753 0.98336 -0.06200
C 	C 	0.52980 0.01570 0.99775 -0.13000
C 	C 	0.15703 0.29136 0.98543 0.35200
C 	C 	0.08800 0.38817 0.99182 -0.07100
C 	C 	0.08719 0.32758 0.99111 -0.04600
C 	C 	0.02338 0.29977 0.99408 -0.00300
C 	C 	0.96068 0.33251 0.99760 -0.05200
C 	C 	0.89004 0.30084 0.99788 0.34600
C 	C 	0.96110 0.39277 0.99875 -0.06500
C 	C 	0.02737 0.42083 0.99656 0.06900
C 	C 	0.02900 0.48217 0.99862 -0.13000
C 	C 	0.79880 0.20651 0.90602 0.32000
C 	C 	0.81530 0.18636 0.85562 -0.02600
C 	C 	0.85318 0.13426 0.83755 -0.02100
C 	C 	0.87066 0.11764 0.79031 -0.03200
C 	C 	0.91630 0.06387 0.76982 0.34200
C 	C 	0.85000 0.15430 0.76142 -0.10600
C 	C 	0.80970 0.20545 0.78080 0.16700
C 	C 	0.79230 0.22146 0.82667 -0.12000
C 	C 	0.75000 0.28986 0.76585 0.02000
C 	C 	0.72730 0.32039 0.73344 0.01100
C 	C 	0.74770 0.30461 0.68849 -0.01900
C 	C 	0.72070 0.33622 0.65764 -0.07600
C 	C 	0.73997 0.31354 0.60694 0.35300
C 	C 	0.67380 0.38424 0.67311 0.02900
C 	C 	0.65225 0.40124 0.71955 -0.08600
C 	C 	0.67920 0.36970 0.75057 -0.02100
C 	C 	0.59765 0.44773 0.73619 0.36100
C 	C 	0.39667 0.59382 0.79215 0.34300
C 	C 	0.33883 0.63887 0.80912 -0.03500
C 	C 	0.31749 0.65266 0.85522 -0.01600
C 	C 	0.26904 0.69848 0.87174 -0.03400
C 	C 	0.25026 0.71635 0.92228 0.34000
C 	C 	0.23680 0.72697 0.84127 -0.10300
C 	C 	0.25600 0.71146 0.79438 0.16200
C 	C 	0.30717 0.66786 0.77818 -0.10900
C 	C 	0.24070 0.73062 0.71984 0.02000
C 	C 	0.20890 0.76422 0.69146 0.01100
C 	C 	0.16490 0.81121 0.70933 -0.02000
C 	C 	0.13564 0.84373 0.68019 -0.07400
C 	C 	0.08400 0.89493 0.70064 0.36000
C 	C 	0.15125 0.82955 0.63317 0.02400
C 	C 	0.19669 0.78238 0.61537 -0.07800
C 	C 	0.22580 0.74919 0.64403 -0.02500
C 	C 	0.21278 0.76311 0.56423 0.35600
C 	C 	0.11095 0.68225 0.47227 0.34700
C 	C 	0.04085 0.65356 0.47561 -0.05800
C 	C 	0.97680 0.68566 0.47434 0.00500
C 	C 	0.91218 0.65912 0.48179 -0.06100
C 	C 	0.84409 0.69242 0.48367 0.34800
C 	C 	0.91090 0.60204 0.48838 -0.05800
C 	C 	0.97680 0.57304 0.49000 0.06500
C 	C 	0.03870 0.59753 0.48336 -0.06200
C 	C 	0.97020 0.51570 0.49775 -0.12900
C 	C 	0.34297 0.79136 0.48543 0.35300
C 	C 	0.41200 0.88817 0.49182 -0.07000
C 	C 	0.41281 0.82758 0.49111 -0.04700
C 	C 	0.47662 0.79977 0.49408 -0.00200
C 	C 	0.53932 0.83251 0.49760 -0.05400
C 	C 	0.60996 0.80084 0.49788 0.34800
C 	C 	0.53890 0.89277 0.49875 -0.06100
C 	C 	0.47263 0.92083 0.49656 0.06600
C 	C 	0.47100 0.98217 0.49862 -0.13100
C 	C 	0.29880 0.29349 0.59398 0.32000
C 	C 	0.31530 0.31364 0.64438 -0.02600
C 	C 	0.35318 0.36574 0.66245 -0.02000
C 	C 	0.37066 0.38236 0.70969 -0.03300
C 	C 	0.41630 0.43613 0.73018 0.34200
C 	C 	0.35000 0.34570 0.73858 -0.10600
C 	C 	0.30970 0.29455 0.71920 0.16700
C 	C 	0.29230 0.27854 0.67333 -0.11900
C 	C 	0.25000 0.21014 0.73415 0.02000
C 	C 	0.22730 0.17961 0.76656 0.01100
C 	C 	0.24770 0.19539 0.81151 -0.01900
C 	C 	0.22070 0.16378 0.84236 -0.07700
C 	C 	0.23997 0.18646 0.89306 0.35300
C 	C 	0.17380 0.11576 0.82689 0.02900
C 	C 	0.15225 0.09876 0.78045 -0.08600
C 	C 	0.17920 0.13030 0.74943 -0.02100
C 	C 	0.09765 0.05227 0.76381 0.36100
C 	C 	0.89667 0.90618 0.70785 0.34300
C 	C 	0.83883 0.86113 0.69088 -0.03600
C 	C 	0.81749 0.84734 0.64478 -0.01600
C 	C 	0.76904 0.80152 0.62826 -0.03400
C 	C 	0.75026 0.78365 0.57772 0.34000
C 	C 	0.73680 0.77303 0.65873 -0.10300
C 	C 	0.75600 0.78854 0.70562 0.16200
C 	C 	0.80717 0.83214 0.72182 -0.10900
C 	C 	0.74070 0.76938 0.78016 0.02100
C 	C 	0.70890 0.73578 0.80854 0.01000
C 	C 	0.66490 0.68879 0.79067 -0.02000
C 	C 	0.63564 0.65627 0.81981 -0.07500
C 	C 	0.58400 0.60507 0.79936 0.36100
C 	C 	0.65125 0.67045 0.86683 0.02400
C 	C 	0.69669 0.71762 0.88463 -0.07800
C 	C 	0.72580 0.75081 0.85597 -0.02500
C 	C 	0.71278 0.73689 0.93577 0.35600
C 	C 	0.61095 0.81775 0.02773 0.34700
C 	C 	0.54085 0.84644 0.02439 -0.05900
C 	C 	0.47680 0.81434 0.02566 0.00600
C 	C 	0.41218 0.84088 0.01821 -0.06100
C 	C 	0.34409 0.80758 0.01633 0.34800
C 	C 	0.41090 0.89796 0.01162 -0.05800
C 	C 	0.47680 0.92696 0.01000 0.06600
C 	C 	0.53870 0.90247 0.01664 -0.06200
C 	C 	0.47020 0.98430 0.00225 -0.13000
C 	C 	0.84297 0.70864 0.01457 0.35200
C 	C 	0.91200 0.61183 0.00818 -0.07100
C 	C 	0.91281 0.67242 0.00889 -0.04600
C 	C 	0.97662 0.70023 0.00592 -0.00300
C 	C 	0.03932 0.66749 0.00240 -0.05200
C 	C 	0.10996 0.69916 0.00212 0.34600
C 	C 	0.03890 0.60723 0.00125 -0.06500
C 	C 	0.97263 0.57917 0.00344 0.06900
C 	C 	0.97100 0.51783 0.00138 -0.13000
O 	O 	0.23246 0.74295 0.07979 -0.39700
O 	O 	0.18305 0.82863 0.06852 -0.39100
O 	O 	0.06657 0.96846 0.20300 -0.39600
O 	O 	0.06673 0.94453 0.27195 -0.40800
O 	O 	0.20970 0.76036 0.25152 -0.21300
O 	O 	0.28051 0.65252 0.41906 -0.40200
O 	O 	0.22681 0.73463 0.40558 -0.40600
O 	O 	0.42249 0.52231 0.29220 -0.40000
O 	O 	0.42375 0.54436 0.22288 -0.41300
O 	O 	0.58065 0.41164 0.24826 -0.40500
O 	O 	0.58210 0.43589 0.17984 -0.40000
O 	O 	0.72359 0.31407 0.05266 -0.40200
O 	O 	0.79036 0.23780 0.06475 -0.39700
O 	O 	0.77740 0.25551 0.23428 -0.21300
O 	O 	0.93240 0.09717 0.25752 -0.40800
O 	O 	0.93679 0.07440 0.32646 -0.40500
O 	O 	0.74963 0.28264 0.45004 -0.41700
O 	O 	0.81401 0.20428 0.46043 -0.39400
O 	O 	0.83559 0.34671 0.52142 -0.40300
O 	O 	0.88967 0.26581 0.53647 -0.40200
O 	O 	0.15377 0.25547 0.52350 -0.40000
O 	O 	0.21028 0.33317 0.50536 -0.41000
O 	O 	0.71156 0.18086 0.51997 -0.41700
O 	O 	0.65072 0.26281 0.51266 -0.40000
O 	O 	0.39284 0.25346 0.49978 -0.40400
O 	O 	0.33503 0.16899 0.50414 -0.40700
O 	O 	0.73246 0.75705 0.42021 -0.39700
O 	O 	0.68305 0.67137 0.43148 -0.39100
O 	O 	0.56657 0.53154 0.29700 -0.39700
O 	O 	0.56673 0.55547 0.22805 -0.40900
O 	O 	0.70970 0.73964 0.24848 -0.21300
O 	O 	0.78051 0.84748 0.08094 -0.40200
O 	O 	0.72681 0.76537 0.09442 -0.40600
O 	O 	0.92249 0.97769 0.20780 -0.40000
O 	O 	0.92375 0.95564 0.27712 -0.41300
O 	O 	0.08065 0.08836 0.25174 -0.40600
O 	O 	0.08210 0.06411 0.32016 -0.40100
O 	O 	0.22359 0.18593 0.44734 -0.40200
O 	O 	0.29036 0.26220 0.43525 -0.39700
O 	O 	0.27740 0.24449 0.26572 -0.21400
O 	O 	0.43240 0.40283 0.24248 -0.41000
O 	O 	0.43679 0.42560 0.17354 -0.40700
O 	O 	0.24963 0.21736 0.04996 -0.41800
O 	O 	0.31401 0.29572 0.03957 -0.39400
O 	O 	0.33559 0.15329 0.97858 -0.40300
O 	O 	0.38967 0.23419 0.96353 -0.40200
O 	O 	0.65377 0.24453 0.97650 -0.40000
O 	O 	0.71028 0.16683 0.99464 -0.41000
O 	O 	0.21156 0.31914 0.98003 -0.41700
O 	O 	0.15072 0.23719 0.98734 -0.40000
O 	O 	0.89284 0.24654 0.00022 -0.40200
O 	O 	0.83503 0.33101 0.99586 -0.40700
O 	O 	0.76754 0.25705 0.92021 -0.39700
O 	O 	0.81695 0.17137 0.93148 -0.39100
O 	O 	0.93343 0.03154 0.79700 -0.39600
O 	O 	0.93327 0.05547 0.72805 -0.40800
O 	O 	0.79030 0.23964 0.74848 -0.21300
O 	O 	0.71949 0.34748 0.58094 -0.40200
O 	O 	0.77319 0.26537 0.59442 -0.40600
O 	O 	0.57751 0.47769 0.70780 -0.40000
O 	O 	0.57625 0.45564 0.77712 -0.41300
O 	O 	0.41935 0.58836 0.75174 -0.40500
O 	O 	0.41790 0.56411 0.82016 -0.40000
O 	O 	0.27641 0.68593 0.94734 -0.40200
O 	O 	0.20964 0.76220 0.93525 -0.39700
O 	O 	0.22260 0.74449 0.76572 -0.21300
O 	O 	0.06760 0.90283 0.74248 -0.40800
O 	O 	0.06321 0.92560 0.67354 -0.40500
O 	O 	0.25037 0.71736 0.54996 -0.41700
O 	O 	0.18599 0.79572 0.53957 -0.39400
O 	O 	0.16441 0.65329 0.47858 -0.40300
O 	O 	0.11033 0.73419 0.46353 -0.40200
O 	O 	0.84623 0.74453 0.47650 -0.40000
O 	O 	0.78972 0.66683 0.49464 -0.41000
O 	O 	0.28844 0.81914 0.48003 -0.41700
O 	O 	0.34928 0.73719 0.48734 -0.40000
O 	O 	0.60716 0.74654 0.50022 -0.40400
O 	O 	0.66497 0.83101 0.49586 -0.40700
O 	O 	0.26754 0.24295 0.57979 -0.39700
O 	O 	0.31695 0.32863 0.56852 -0.39100
O 	O 	0.43343 0.46846 0.70300 -0.39700
O 	O 	0.43327 0.44453 0.77195 -0.40900
O 	O 	0.29030 0.26036 0.75152 -0.21300
O 	O 	0.21949 0.15252 0.91906 -0.40200
O 	O 	0.27319 0.23463 0.90558 -0.40600
O 	O 	0.07751 0.02231 0.79220 -0.40000
O 	O 	0.07625 0.04436 0.72288 -0.41300
O 	O 	0.91935 0.91164 0.74826 -0.40600
O 	O 	0.91790 0.93589 0.67984 -0.40100
O 	O 	0.77641 0.81407 0.55266 -0.40200
O 	O 	0.70964 0.73780 0.56475 -0.39700
O 	O 	0.72260 0.75551 0.73428 -0.21400
O 	O 	0.56760 0.59717 0.75752 -0.41000
O 	O 	0.56321 0.57440 0.82646 -0.40700
O 	O 	0.75037 0.78264 0.95004 -0.41800
O 	O 	0.68599 0.70428 0.96043 -0.39400
O 	O 	0.66441 0.84671 0.02142 -0.40300
O 	O 	0.61033 0.76581 0.03647 -0.40200
O 	O 	0.34623 0.75547 0.02350 -0.40000
O 	O 	0.28972 0.83317 0.00536 -0.41000
O 	O 	0.78844 0.68086 0.01997 -0.41700
O 	O 	0.84928 0.76281 0.01266 -0.40000
O 	O 	0.10716 0.75346 0.99978 -0.40200
O 	O 	0.16497 0.66899 0.00414 -0.40700
