data_crystal

_cell_length_a 11.48010
_cell_length_b 21.05660
_cell_length_c 14.72270
_cell_angle_alpha 90.00000
_cell_angle_beta  110.47100
_cell_angle_gamma 90.00000

_symmetry_space_group_name_	'P 1'
_symmetry_space_group_name_H-M	'P 1'

loop_
_symmetry_equiv_pos_as_xyz
  x,y,z

loop_
_atom_site_label
_atom_site_type_symbol
_atom_site_fract_x
_atom_site_fract_y
_atom_site_fract_z
_atom_site_charge
U 	U 	0.10649 0.47120 0.87469 0.02900
U 	U 	0.39099 0.24548 0.95595 0.03500
S 	S 	0.15639 0.17825 0.05570 0.44900
S 	S 	0.61308 0.32739 0.67792 0.45200
O 	O 	0.07420 0.42330 0.00820 -0.15000
O 	O 	0.88630 0.44250 0.01820 -0.15200
O 	O 	0.59390 0.25760 0.96040 -0.15700
O 	O 	0.65700 0.16500 0.91890 -0.17500
O 	O 	0.25590 0.21680 0.04370 -0.16900
O 	O 	0.12270 0.12480 0.99120 -0.18500
O 	O 	0.18560 0.16090 0.15690 -0.17300
O 	O 	0.10400 0.36020 0.83960 -0.16500
O 	O 	0.18770 0.26420 0.84980 -0.16200
O 	O 	0.92690 0.07340 0.71190 -0.15600
O 	O 	0.72190 0.08700 0.65800 -0.15800
O 	O 	0.51370 0.28720 0.61520 -0.16600
O 	O 	0.59080 0.34190 0.76680 -0.17900
O 	O 	0.63450 0.38310 0.62950 -0.17600
C 	C 	0.96960 0.40540 0.01210 0.26500
C 	C 	0.67630 0.21930 0.94730 0.27300
C 	C 	0.94580 0.33610 0.00760 -0.02100
C 	C 	0.82650 0.31170 0.98460 -0.02600
H 	H 	0.75940 0.33920 0.97290 0.09600
C 	C 	0.80650 0.24610 0.97870 -0.02300
C 	C 	0.90640 0.20490 0.99770 -0.01600
H 	H 	0.89330 0.16120 0.99240 0.08500
C 	C 	0.02750 0.22960 0.02510 -0.03700
C 	C 	0.04650 0.29490 0.02860 -0.01600
H 	H 	0.12670 0.31100 0.04500 0.09400
C 	C 	0.09640 0.30170 0.82500 0.27500
C 	C 	0.82980 0.10810 0.69640 0.26500
C 	C 	0.97010 0.27190 0.77770 -0.02400
C 	C 	0.96140 0.20610 0.76010 -0.02600
H 	H 	0.03310 0.18150 0.77610 0.09300
C 	C 	0.84710 0.17840 0.71930 -0.01800
C 	C 	0.73970 0.21560 0.69410 -0.01600
H 	H 	0.66220 0.19650 0.66670 0.09600
C 	C 	0.74750 0.28060 0.70930 -0.03700
C 	C 	0.86500 0.30940 0.75140 -0.01500
H 	H 	0.87150 0.35300 0.76140 0.08400
U 	U 	0.89351 0.97120 0.62531 0.03000
U 	U 	0.60901 0.74548 0.54405 0.03500
S 	S 	0.84361 0.67825 0.44430 0.45100
S 	S 	0.38692 0.82739 0.82208 0.45300
O 	O 	0.92580 0.92330 0.49180 -0.14800
O 	O 	0.11370 0.94250 0.48180 -0.15100
O 	O 	0.40610 0.75760 0.53960 -0.15600
O 	O 	0.34300 0.66500 0.58110 -0.17400
O 	O 	0.74410 0.71680 0.45630 -0.16800
O 	O 	0.87730 0.62480 0.50880 -0.18500
O 	O 	0.81440 0.66090 0.34310 -0.17200
O 	O 	0.89600 0.86020 0.66040 -0.16400
O 	O 	0.81230 0.76420 0.65020 -0.16300
O 	O 	0.07310 0.57340 0.78810 -0.15600
O 	O 	0.27810 0.58700 0.84200 -0.15800
O 	O 	0.48630 0.78720 0.88480 -0.16600
O 	O 	0.40920 0.84190 0.73320 -0.17900
O 	O 	0.36550 0.88310 0.87050 -0.17700
C 	C 	0.03040 0.90540 0.48790 0.26400
C 	C 	0.32370 0.71930 0.55270 0.27300
C 	C 	0.05420 0.83610 0.49240 -0.02200
C 	C 	0.17350 0.81170 0.51540 -0.02600
H 	H 	0.24060 0.83920 0.52710 0.09600
C 	C 	0.19350 0.74610 0.52130 -0.02300
C 	C 	0.09360 0.70490 0.50230 -0.01600
H 	H 	0.10670 0.66120 0.50760 0.08500
C 	C 	0.97250 0.72960 0.47490 -0.03700
C 	C 	0.95350 0.79490 0.47140 -0.01500
H 	H 	0.87330 0.81100 0.45500 0.09400
C 	C 	0.90360 0.80170 0.67500 0.27500
C 	C 	0.17020 0.60810 0.80360 0.26500
C 	C 	0.02990 0.77190 0.72230 -0.02500
C 	C 	0.03860 0.70610 0.73990 -0.02400
H 	H 	0.96690 0.68150 0.72390 0.09300
C 	C 	0.15290 0.67840 0.78070 -0.01900
C 	C 	0.26030 0.71560 0.80590 -0.01600
H 	H 	0.33780 0.69650 0.83330 0.09600
C 	C 	0.25250 0.78060 0.79070 -0.03800
C 	C 	0.13500 0.80940 0.74860 -0.01500
H 	H 	0.12850 0.85300 0.73860 0.08400
U 	U 	0.89351 0.52880 0.12531 0.03000
U 	U 	0.60901 0.75452 0.04405 0.03600
S 	S 	0.84361 0.82175 0.94430 0.45000
S 	S 	0.38692 0.67261 0.32208 0.45300
O 	O 	0.92580 0.57670 0.99180 -0.14900
O 	O 	0.11370 0.55750 0.98180 -0.15100
O 	O 	0.40610 0.74240 0.03960 -0.15600
O 	O 	0.34300 0.83500 0.08110 -0.17400
O 	O 	0.74410 0.78320 0.95630 -0.16800
O 	O 	0.87730 0.87520 0.00880 -0.18400
O 	O 	0.81440 0.83910 0.84310 -0.17200
O 	O 	0.89600 0.63980 0.16040 -0.16400
O 	O 	0.81230 0.73580 0.15020 -0.16200
O 	O 	0.07310 0.92660 0.28810 -0.15600
O 	O 	0.27810 0.91300 0.34200 -0.15800
O 	O 	0.48630 0.71280 0.38480 -0.16600
O 	O 	0.40920 0.65810 0.23320 -0.17900
O 	O 	0.36550 0.61690 0.37050 -0.17600
C 	C 	0.03040 0.59460 0.98790 0.26500
C 	C 	0.32370 0.78070 0.05270 0.27300
C 	C 	0.05420 0.66390 0.99240 -0.02100
C 	C 	0.17350 0.68830 0.01540 -0.02600
H 	H 	0.24060 0.66080 0.02710 0.09600
C 	C 	0.19350 0.75390 0.02130 -0.02300
C 	C 	0.09360 0.79510 0.00230 -0.01600
H 	H 	0.10670 0.83880 0.00760 0.08500
C 	C 	0.97250 0.77040 0.97490 -0.03700
C 	C 	0.95350 0.70510 0.97140 -0.01600
H 	H 	0.87330 0.68900 0.95500 0.09400
C 	C 	0.90360 0.69830 0.17500 0.27500
C 	C 	0.17020 0.89190 0.30360 0.26500
C 	C 	0.02990 0.72810 0.22230 -0.02400
C 	C 	0.03860 0.79390 0.23990 -0.02600
H 	H 	0.96690 0.81850 0.22390 0.09300
C 	C 	0.15290 0.82160 0.28070 -0.01800
C 	C 	0.26030 0.78440 0.30590 -0.01600
H 	H 	0.33780 0.80350 0.33330 0.09600
C 	C 	0.25250 0.71940 0.29070 -0.03700
C 	C 	0.13500 0.69060 0.24860 -0.01500
H 	H 	0.12850 0.64700 0.23860 0.08400
U 	U 	0.10649 0.02880 0.37469 0.03000
U 	U 	0.39099 0.25452 0.45595 0.03500
S 	S 	0.15639 0.32175 0.55570 0.45100
S 	S 	0.61308 0.17261 0.17792 0.45300
O 	O 	0.07420 0.07670 0.50820 -0.14800
O 	O 	0.88630 0.05750 0.51820 -0.15100
O 	O 	0.59390 0.24240 0.46040 -0.15600
O 	O 	0.65700 0.33500 0.41890 -0.17400
O 	O 	0.25590 0.28320 0.54370 -0.16800
O 	O 	0.12270 0.37520 0.49120 -0.18500
O 	O 	0.18560 0.33910 0.65690 -0.17200
O 	O 	0.10400 0.13980 0.33960 -0.16400
O 	O 	0.18770 0.23580 0.34980 -0.16300
O 	O 	0.92690 0.42660 0.21190 -0.15600
O 	O 	0.72190 0.41300 0.15800 -0.15800
O 	O 	0.51370 0.21280 0.11520 -0.16600
O 	O 	0.59080 0.15810 0.26680 -0.17900
O 	O 	0.63450 0.11690 0.12950 -0.17700
C 	C 	0.96960 0.09460 0.51210 0.26400
C 	C 	0.67630 0.28070 0.44730 0.27300
C 	C 	0.94580 0.16390 0.50760 -0.02200
C 	C 	0.82650 0.18830 0.48460 -0.02600
H 	H 	0.75940 0.16080 0.47290 0.09600
C 	C 	0.80650 0.25390 0.47870 -0.02300
C 	C 	0.90640 0.29510 0.49770 -0.01600
H 	H 	0.89330 0.33880 0.49240 0.08500
C 	C 	0.02750 0.27040 0.52510 -0.03700
C 	C 	0.04650 0.20510 0.52860 -0.01500
H 	H 	0.12670 0.18900 0.54500 0.09400
C 	C 	0.09640 0.19830 0.32500 0.27500
C 	C 	0.82980 0.39190 0.19640 0.26500
C 	C 	0.97010 0.22810 0.27770 -0.02500
C 	C 	0.96140 0.29390 0.26010 -0.02400
H 	H 	0.03310 0.31850 0.27610 0.09300
C 	C 	0.84710 0.32160 0.21930 -0.01900
C 	C 	0.73970 0.28440 0.19410 -0.01600
H 	H 	0.66220 0.30350 0.16670 0.09600
C 	C 	0.74750 0.21940 0.20930 -0.03800
C 	C 	0.86500 0.19060 0.25140 -0.01500
H 	H 	0.87150 0.14700 0.26140 0.08400
