data_crystal

_cell_length_a 17.94650
_cell_length_b 17.94650
_cell_length_c 17.94650
_cell_angle_alpha 60.00000
_cell_angle_beta  60.00000
_cell_angle_gamma 60.00000

_symmetry_space_group_name_	'P 1'
_symmetry_space_group_name_H-M	'P 1'

loop_
_symmetry_equiv_pos_as_xyz
  x,y,z

loop_
_atom_site_label
_atom_site_type_symbol
_atom_site_fract_x
_atom_site_fract_y
_atom_site_fract_z
_atom_site_charge
Ni	Ni	0.82873 0.05709 0.05709 1.01400
Ni	Ni	0.05709 0.82873 0.05709 1.01300
Ni	Ni	0.05709 0.05709 0.82873 1.01400
Ni	Ni	0.05709 0.05709 0.05709 1.01100
Ni	Ni	0.94291 0.17127 0.94291 1.01300
Ni	Ni	0.17127 0.94291 0.94291 1.01200
Ni	Ni	0.94291 0.94291 0.17127 1.01200
Ni	Ni	0.94291 0.94291 0.94291 1.00900
H 	H 	0.87564 0.12436 0.12436 0.19400
H 	H 	0.12436 0.87564 0.87564 0.19400
H 	H 	0.87564 0.12436 0.87564 0.19400
H 	H 	0.12436 0.87564 0.12436 0.19400
H 	H 	0.87564 0.87564 0.12436 0.19400
H 	H 	0.12436 0.12436 0.87564 0.19400
H 	H 	0.51465 0.64505 0.92015 0.04700
H 	H 	0.39251 0.76539 0.92105 0.00800
H 	H 	0.64505 0.51465 0.92015 0.04700
H 	H 	0.76539 0.39251 0.92105 0.00800
H 	H 	0.92015 0.92015 0.51465 0.04700
H 	H 	0.92105 0.92105 0.39251 0.00700
H 	H 	0.92015 0.92015 0.64505 0.04700
H 	H 	0.92105 0.92105 0.76539 0.01000
H 	H 	0.51465 0.92015 0.92015 0.04700
H 	H 	0.39251 0.92105 0.92105 0.00700
H 	H 	0.64505 0.92015 0.92015 0.04700
H 	H 	0.76539 0.92105 0.92105 0.01000
H 	H 	0.92015 0.51465 0.64505 0.04700
H 	H 	0.92105 0.39251 0.76539 0.00800
H 	H 	0.92015 0.64505 0.51465 0.04700
H 	H 	0.92105 0.76539 0.39251 0.00800
H 	H 	0.51465 0.92015 0.64505 0.04400
H 	H 	0.39251 0.92105 0.76539 0.01000
H 	H 	0.64505 0.92015 0.51465 0.04900
H 	H 	0.76539 0.92105 0.39251 0.00800
H 	H 	0.92015 0.64505 0.92015 0.04700
H 	H 	0.92105 0.76539 0.92105 0.00900
H 	H 	0.92015 0.51465 0.92015 0.04700
H 	H 	0.92105 0.39251 0.92105 0.00700
H 	H 	0.35495 0.48535 0.07985 0.04700
H 	H 	0.23461 0.60749 0.07895 0.00800
H 	H 	0.48535 0.35495 0.07985 0.04700
H 	H 	0.60749 0.23461 0.07895 0.00800
H 	H 	0.07985 0.07985 0.48535 0.04700
H 	H 	0.07895 0.07895 0.60749 0.00900
H 	H 	0.07985 0.07985 0.35495 0.04700
H 	H 	0.07895 0.07895 0.23461 0.00700
H 	H 	0.07985 0.48535 0.07985 0.04700
H 	H 	0.07895 0.60749 0.07895 0.00800
H 	H 	0.07985 0.35495 0.07985 0.04700
H 	H 	0.07895 0.23461 0.07895 0.00700
H 	H 	0.48535 0.07985 0.35495 0.04900
H 	H 	0.60749 0.07895 0.23461 0.00800
H 	H 	0.35495 0.07985 0.48535 0.04400
H 	H 	0.23461 0.07895 0.60749 0.00900
H 	H 	0.07985 0.48535 0.35495 0.04700
H 	H 	0.07895 0.60749 0.23461 0.00800
H 	H 	0.07985 0.35495 0.48535 0.04700
H 	H 	0.07895 0.23461 0.60749 0.00800
H 	H 	0.35495 0.07985 0.07985 0.04700
H 	H 	0.23461 0.07895 0.07895 0.00700
H 	H 	0.48535 0.07985 0.07985 0.04700
H 	H 	0.60749 0.07895 0.07895 0.00900
C 	C 	0.42254 0.57746 -0.00000 0.03500
C 	C 	0.34176 0.65824 -0.00000 -0.04300
C 	C 	0.57746 0.42254 -0.00000 0.03500
C 	C 	0.65824 0.34176 -0.00000 -0.04300
C 	C 	-0.00000 -0.00000 0.42254 0.03600
C 	C 	-0.00000 0.00000 0.34176 -0.04500
C 	C 	-0.00000 0.00000 0.57746 0.03600
C 	C 	-0.00000 -0.00000 0.65824 -0.03700
C 	C 	0.42254 0.00000 -0.00000 0.03600
C 	C 	0.34176 0.00000 -0.00000 -0.04500
C 	C 	0.57746 0.00000 -0.00000 0.03600
C 	C 	0.65824 0.00000 -0.00000 -0.03700
C 	C 	-0.00000 0.42254 0.57746 0.03500
C 	C 	-0.00000 0.34176 0.65824 -0.04300
C 	C 	-0.00000 0.57746 0.42254 0.03500
C 	C 	-0.00000 0.65824 0.34176 -0.04300
C 	C 	0.42254 1.00000 0.57746 0.02300
C 	C 	0.34176 -0.00000 0.65824 -0.03400
C 	C 	0.57746 -0.00000 0.42254 0.04200
C 	C 	0.65824 0.00000 0.34176 -0.04400
C 	C 	-0.00000 0.57746 -0.00000 0.03500
C 	C 	-0.00000 0.65824 -0.00000 -0.03900
C 	C 	-0.00000 0.42254 -0.00000 0.03600
C 	C 	-0.00000 0.34176 -0.00000 -0.04700
C 	C 	0.50871 0.58615 0.95257 -0.06100
C 	C 	0.34055 0.74615 0.95665 0.03000
C 	C 	0.58615 0.50871 0.95257 -0.06100
C 	C 	0.74615 0.34055 0.95665 0.03000
C 	C 	0.95257 0.95257 0.50871 -0.06200
C 	C 	0.95665 0.95665 0.34055 0.03100
C 	C 	0.95257 0.95257 0.58615 -0.06400
C 	C 	0.95665 0.95665 0.74615 0.02300
C 	C 	0.50871 0.95257 0.95257 -0.06200
C 	C 	0.34055 0.95665 0.95665 0.03100
C 	C 	0.58615 0.95257 0.95257 -0.06400
C 	C 	0.74615 0.95665 0.95665 0.02300
C 	C 	0.95257 0.50871 0.58615 -0.06100
C 	C 	0.95665 0.34055 0.74615 0.03000
C 	C 	0.95257 0.58615 0.50871 -0.06100
C 	C 	0.95665 0.74615 0.34055 0.03000
C 	C 	0.50871 0.95257 0.58615 -0.05200
C 	C 	0.34055 0.95665 0.74615 0.02500
C 	C 	0.58615 0.95257 0.50871 -0.06900
C 	C 	0.74615 0.95665 0.34055 0.03000
C 	C 	0.95257 0.58615 0.95257 -0.06300
C 	C 	0.95665 0.74615 0.95665 0.02500
C 	C 	0.95257 0.50871 0.95257 -0.06100
C 	C 	0.95665 0.34055 0.95665 0.03300
C 	C 	0.41385 0.49129 0.04743 -0.06000
C 	C 	0.25385 0.65945 0.04335 0.03100
C 	C 	0.49129 0.41385 0.04743 -0.06000
C 	C 	0.65945 0.25385 0.04335 0.03100
C 	C 	0.04743 0.04743 0.49129 -0.06000
C 	C 	0.04335 0.04335 0.65945 0.02900
C 	C 	0.04743 0.04743 0.41385 -0.06100
C 	C 	0.04335 0.04335 0.25385 0.03200
C 	C 	0.04743 0.49129 0.04743 -0.06000
C 	C 	0.04335 0.65945 0.04335 0.03000
C 	C 	0.04743 0.41385 0.04743 -0.06100
C 	C 	0.04335 0.25385 0.04335 0.03200
C 	C 	0.49129 0.04743 0.41385 -0.06700
C 	C 	0.65945 0.04335 0.25385 0.03200
C 	C 	0.41385 0.04743 0.49129 -0.05000
C 	C 	0.25385 0.04335 0.65945 0.02700
C 	C 	0.04743 0.49129 0.41385 -0.06000
C 	C 	0.04335 0.65945 0.25385 0.03100
C 	C 	0.04743 0.41385 0.49129 -0.06000
C 	C 	0.04335 0.25385 0.65945 0.03100
C 	C 	0.41385 0.04743 0.04743 -0.06100
C 	C 	0.25385 0.04335 0.04335 0.03200
C 	C 	0.49129 0.04743 0.04743 -0.06000
C 	C 	0.65945 0.04335 0.04335 0.02900
N 	N 	0.25193 0.80165 0.97321 -0.20800
N 	N 	0.80165 0.25193 0.97321 -0.20800
N 	N 	0.97321 0.97321 0.25193 -0.20800
N 	N 	0.97321 0.97321 0.80165 -0.21000
N 	N 	0.25193 0.97321 0.97321 -0.20800
N 	N 	0.80165 0.97321 0.97321 -0.21000
N 	N 	0.97321 0.25193 0.80165 -0.20800
N 	N 	0.97321 0.80165 0.25193 -0.20800
N 	N 	0.25193 0.97321 0.80165 -0.20800
N 	N 	0.80165 0.97321 0.25193 -0.20800
N 	N 	0.97321 0.80165 0.97321 -0.21000
N 	N 	0.97321 0.25193 0.97321 -0.20800
N 	N 	0.19835 0.74807 0.02679 -0.20700
N 	N 	0.74807 0.19835 0.02679 -0.20700
N 	N 	0.02679 0.02679 0.74807 -0.20500
N 	N 	0.02679 0.02679 0.19835 -0.20900
N 	N 	0.02679 0.74807 0.02679 -0.20600
N 	N 	0.02679 0.19835 0.02679 -0.21000
N 	N 	0.74807 0.02679 0.19835 -0.20700
N 	N 	0.19835 0.02679 0.74807 -0.20600
N 	N 	0.02679 0.74807 0.19835 -0.20700
N 	N 	0.02679 0.19835 0.74807 -0.20700
N 	N 	0.19835 0.02679 0.02679 -0.20900
N 	N 	0.74807 0.02679 0.02679 -0.20500
O 	O 	0.91307 0.08693 0.08693 -0.79300
O 	O 	0.08693 0.91307 0.91307 -0.79500
O 	O 	0.91307 0.08693 0.91307 -0.79400
O 	O 	0.08693 0.91307 0.08693 -0.79400
O 	O 	0.91307 0.91307 0.08693 -0.79500
O 	O 	0.08693 0.08693 0.91307 -0.79300
