data_crystal

_cell_length_a 32.40020
_cell_length_b 32.40020
_cell_length_c 32.40020
_cell_angle_alpha 90.00000
_cell_angle_beta  90.00000
_cell_angle_gamma 90.00000

_symmetry_space_group_name_	'P 1'
_symmetry_space_group_name_H-M	'P 1'

loop_
_symmetry_equiv_pos_as_xyz
  x,y,z

loop_
_atom_site_label
_atom_site_type_symbol
_atom_site_fract_x
_atom_site_fract_y
_atom_site_fract_z
_atom_site_charge
F 	F 	0.31570 0.26021 0.91051 -0.22800
F 	F 	0.25274 0.27836 0.89222 -0.18200
F 	F 	0.29223 0.32210 0.92620 -0.28300
F 	F 	0.31570 0.76021 0.41051 -0.22700
F 	F 	0.25274 0.77836 0.39222 -0.18200
F 	F 	0.29223 0.82210 0.42620 -0.28200
F 	F 	0.81570 0.26021 0.41051 -0.22700
F 	F 	0.75274 0.27836 0.39222 -0.18200
F 	F 	0.79223 0.32210 0.42620 -0.28200
F 	F 	0.81570 0.76021 0.91051 -0.22800
F 	F 	0.75274 0.77836 0.89222 -0.18200
F 	F 	0.79223 0.82210 0.92620 -0.28300
F 	F 	0.68430 0.73979 0.91051 -0.22800
F 	F 	0.74726 0.72164 0.89222 -0.18200
F 	F 	0.70777 0.67790 0.92620 -0.28300
F 	F 	0.68430 0.23979 0.41051 -0.22700
F 	F 	0.74726 0.22164 0.39222 -0.18200
F 	F 	0.70777 0.17790 0.42620 -0.28200
F 	F 	0.18430 0.73979 0.41051 -0.22700
F 	F 	0.24726 0.72164 0.39222 -0.18200
F 	F 	0.20777 0.67790 0.42620 -0.28200
F 	F 	0.18430 0.23979 0.91051 -0.22800
F 	F 	0.24726 0.22164 0.89222 -0.18200
F 	F 	0.20777 0.17790 0.92620 -0.28300
F 	F 	0.68430 0.26021 0.08949 -0.22700
F 	F 	0.74726 0.27836 0.10778 -0.18200
F 	F 	0.70777 0.32210 0.07380 -0.28200
F 	F 	0.68430 0.76021 0.58949 -0.22700
F 	F 	0.74726 0.77836 0.60778 -0.18200
F 	F 	0.70777 0.82210 0.57380 -0.28200
F 	F 	0.18430 0.26021 0.58949 -0.22700
F 	F 	0.24726 0.27836 0.60778 -0.18200
F 	F 	0.20777 0.32210 0.57380 -0.28200
F 	F 	0.18430 0.76021 0.08949 -0.22700
F 	F 	0.24726 0.77836 0.10778 -0.18200
F 	F 	0.20777 0.82210 0.07380 -0.28200
F 	F 	0.31570 0.73979 0.08949 -0.22700
F 	F 	0.25274 0.72164 0.10778 -0.18200
F 	F 	0.29223 0.67790 0.07380 -0.28200
F 	F 	0.31570 0.23979 0.58949 -0.22700
F 	F 	0.25274 0.22164 0.60778 -0.18200
F 	F 	0.29223 0.17790 0.57380 -0.28200
F 	F 	0.81570 0.73979 0.58949 -0.22800
F 	F 	0.75274 0.72164 0.60778 -0.18200
F 	F 	0.79223 0.67790 0.57380 -0.28200
F 	F 	0.81570 0.23979 0.08949 -0.22700
F 	F 	0.75274 0.22164 0.10778 -0.18200
F 	F 	0.79223 0.17790 0.07380 -0.28300
F 	F 	0.91051 0.31570 0.26021 -0.22900
F 	F 	0.89222 0.25274 0.27836 -0.18300
F 	F 	0.92620 0.29223 0.32210 -0.28400
F 	F 	0.91051 0.81570 0.76021 -0.22900
F 	F 	0.89222 0.75274 0.77836 -0.18300
F 	F 	0.92620 0.79223 0.82210 -0.28400
F 	F 	0.41051 0.31570 0.76021 -0.22800
F 	F 	0.39222 0.25274 0.77836 -0.18300
F 	F 	0.42620 0.29223 0.82210 -0.28300
F 	F 	0.41051 0.81570 0.26021 -0.22800
F 	F 	0.39222 0.75274 0.27836 -0.18300
F 	F 	0.42620 0.79223 0.32210 -0.28300
F 	F 	0.91051 0.68430 0.73979 -0.22900
F 	F 	0.89222 0.74726 0.72164 -0.18300
F 	F 	0.92620 0.70777 0.67790 -0.28400
F 	F 	0.91051 0.18430 0.23979 -0.22900
F 	F 	0.89222 0.24726 0.22164 -0.18300
F 	F 	0.92620 0.20777 0.17790 -0.28400
F 	F 	0.41051 0.68430 0.23979 -0.22800
F 	F 	0.39222 0.74726 0.22164 -0.18300
F 	F 	0.42620 0.70777 0.17790 -0.28300
F 	F 	0.41051 0.18430 0.73979 -0.22800
F 	F 	0.39222 0.24726 0.72164 -0.18300
F 	F 	0.42620 0.20777 0.67790 -0.28300
F 	F 	0.08949 0.68430 0.26021 -0.22800
F 	F 	0.10778 0.74726 0.27836 -0.18300
F 	F 	0.07380 0.70777 0.32210 -0.28300
F 	F 	0.08949 0.18430 0.76021 -0.22800
F 	F 	0.10778 0.24726 0.77836 -0.18300
F 	F 	0.07380 0.20777 0.82210 -0.28300
F 	F 	0.58949 0.68430 0.76021 -0.22800
F 	F 	0.60778 0.74726 0.77836 -0.18300
F 	F 	0.57380 0.70777 0.82210 -0.28300
F 	F 	0.58949 0.18430 0.26021 -0.22800
F 	F 	0.60778 0.24726 0.27836 -0.18300
F 	F 	0.57380 0.20777 0.32210 -0.28300
F 	F 	0.08949 0.31570 0.73979 -0.22800
F 	F 	0.10778 0.25274 0.72164 -0.18300
F 	F 	0.07380 0.29223 0.67790 -0.28300
F 	F 	0.08949 0.81570 0.23979 -0.22800
F 	F 	0.10778 0.75274 0.22164 -0.18300
F 	F 	0.07380 0.79223 0.17790 -0.28300
F 	F 	0.58949 0.31570 0.23979 -0.22800
F 	F 	0.60778 0.25274 0.22164 -0.18300
F 	F 	0.57380 0.29223 0.17790 -0.28300
F 	F 	0.58949 0.81570 0.73979 -0.22900
F 	F 	0.60778 0.75274 0.72164 -0.18300
F 	F 	0.57380 0.79223 0.67790 -0.28300
F 	F 	0.26021 0.91051 0.31570 -0.22900
F 	F 	0.27836 0.89222 0.25274 -0.18300
F 	F 	0.32210 0.92620 0.29223 -0.28400
F 	F 	0.26021 0.41051 0.81570 -0.22800
F 	F 	0.27836 0.39222 0.75274 -0.18300
F 	F 	0.32210 0.42620 0.79223 -0.28300
F 	F 	0.76021 0.91051 0.81570 -0.22900
F 	F 	0.77836 0.89222 0.75274 -0.18300
F 	F 	0.82210 0.92620 0.79223 -0.28400
F 	F 	0.76021 0.41051 0.31570 -0.22800
F 	F 	0.77836 0.39222 0.25274 -0.18300
F 	F 	0.82210 0.42620 0.29223 -0.28300
F 	F 	0.73979 0.91051 0.68430 -0.22900
F 	F 	0.72164 0.89222 0.74726 -0.18300
F 	F 	0.67790 0.92620 0.70777 -0.28400
F 	F 	0.73979 0.41051 0.18430 -0.22800
F 	F 	0.72164 0.39222 0.24726 -0.18300
F 	F 	0.67790 0.42620 0.20777 -0.28300
F 	F 	0.23979 0.91051 0.18430 -0.22900
F 	F 	0.22164 0.89222 0.24726 -0.18300
F 	F 	0.17790 0.92620 0.20777 -0.28400
F 	F 	0.23979 0.41051 0.68430 -0.22800
F 	F 	0.22164 0.39222 0.74726 -0.18300
F 	F 	0.17790 0.42620 0.70777 -0.28300
F 	F 	0.26021 0.08949 0.68430 -0.22800
F 	F 	0.27836 0.10778 0.74726 -0.18300
F 	F 	0.32210 0.07380 0.70777 -0.28300
F 	F 	0.26021 0.58949 0.18430 -0.22800
F 	F 	0.27836 0.60778 0.24726 -0.18300
F 	F 	0.32210 0.57380 0.20777 -0.28300
F 	F 	0.76021 0.08949 0.18430 -0.22800
F 	F 	0.77836 0.10778 0.24726 -0.18300
F 	F 	0.82210 0.07380 0.20777 -0.28300
F 	F 	0.76021 0.58949 0.68430 -0.22800
F 	F 	0.77836 0.60778 0.74726 -0.18300
F 	F 	0.82210 0.57380 0.70777 -0.28300
F 	F 	0.73979 0.08949 0.31570 -0.22800
F 	F 	0.72164 0.10778 0.25274 -0.18300
F 	F 	0.67790 0.07380 0.29223 -0.28300
F 	F 	0.73979 0.58949 0.81570 -0.22900
F 	F 	0.72164 0.60778 0.75274 -0.18300
F 	F 	0.67790 0.57380 0.79223 -0.28300
F 	F 	0.23979 0.08949 0.81570 -0.22800
F 	F 	0.22164 0.10778 0.75274 -0.18300
F 	F 	0.17790 0.07380 0.79223 -0.28300
F 	F 	0.23979 0.58949 0.31570 -0.22800
F 	F 	0.22164 0.60778 0.25274 -0.18300
F 	F 	0.17790 0.57380 0.29223 -0.28300
F 	F 	0.26021 0.31570 0.08949 -0.22800
F 	F 	0.27836 0.25274 0.10778 -0.18300
F 	F 	0.32210 0.29223 0.07380 -0.28300
F 	F 	0.26021 0.81570 0.58949 -0.22800
F 	F 	0.27836 0.75274 0.60778 -0.18300
F 	F 	0.32210 0.79223 0.57380 -0.28300
F 	F 	0.76021 0.31570 0.58949 -0.22800
F 	F 	0.77836 0.25274 0.60778 -0.18300
F 	F 	0.82210 0.29223 0.57380 -0.28300
F 	F 	0.76021 0.81570 0.08949 -0.22800
F 	F 	0.77836 0.75274 0.10778 -0.18300
F 	F 	0.82210 0.79223 0.07380 -0.28300
F 	F 	0.73979 0.68430 0.08949 -0.22800
F 	F 	0.72164 0.74726 0.10778 -0.18300
F 	F 	0.67790 0.70777 0.07380 -0.28300
F 	F 	0.73979 0.18430 0.58949 -0.22800
F 	F 	0.72164 0.24726 0.60778 -0.18300
F 	F 	0.67790 0.20777 0.57380 -0.28300
F 	F 	0.23979 0.68430 0.58949 -0.22800
F 	F 	0.22164 0.74726 0.60778 -0.18300
F 	F 	0.17790 0.70777 0.57380 -0.28300
F 	F 	0.23979 0.18430 0.08949 -0.22800
F 	F 	0.22164 0.24726 0.10778 -0.18300
F 	F 	0.17790 0.20777 0.07380 -0.28300
F 	F 	0.26021 0.68430 0.91051 -0.22900
F 	F 	0.27836 0.74726 0.89222 -0.18300
F 	F 	0.32210 0.70777 0.92620 -0.28400
F 	F 	0.26021 0.18430 0.41051 -0.22800
F 	F 	0.27836 0.24726 0.39222 -0.18300
F 	F 	0.32210 0.20777 0.42620 -0.28300
F 	F 	0.76021 0.68430 0.41051 -0.22800
F 	F 	0.77836 0.74726 0.39222 -0.18300
F 	F 	0.82210 0.70777 0.42620 -0.28300
F 	F 	0.76021 0.18430 0.91051 -0.22900
F 	F 	0.77836 0.24726 0.89222 -0.18300
F 	F 	0.82210 0.20777 0.92620 -0.28400
F 	F 	0.73979 0.31570 0.91051 -0.22900
F 	F 	0.72164 0.25274 0.89222 -0.18300
F 	F 	0.67790 0.29223 0.92620 -0.28400
F 	F 	0.73979 0.81570 0.41051 -0.22900
F 	F 	0.72164 0.75274 0.39222 -0.18300
F 	F 	0.67790 0.79223 0.42620 -0.28300
F 	F 	0.23979 0.31570 0.41051 -0.22800
F 	F 	0.22164 0.25274 0.39222 -0.18300
F 	F 	0.17790 0.29223 0.42620 -0.28300
F 	F 	0.23979 0.81570 0.91051 -0.22900
F 	F 	0.22164 0.75274 0.89222 -0.18300
F 	F 	0.17790 0.79223 0.92620 -0.28400
F 	F 	0.31570 0.91051 0.73979 -0.22900
F 	F 	0.25274 0.89222 0.72164 -0.18300
F 	F 	0.29223 0.92620 0.67790 -0.28400
F 	F 	0.31570 0.41051 0.23979 -0.22800
F 	F 	0.25274 0.39222 0.22164 -0.18300
F 	F 	0.29223 0.42620 0.17790 -0.28300
F 	F 	0.81570 0.91051 0.23979 -0.22900
F 	F 	0.75274 0.89222 0.22164 -0.18300
F 	F 	0.79223 0.92620 0.17790 -0.28400
F 	F 	0.81570 0.41051 0.73979 -0.22900
F 	F 	0.75274 0.39222 0.72164 -0.18300
F 	F 	0.79223 0.42620 0.67790 -0.28300
F 	F 	0.68430 0.91051 0.26021 -0.22900
F 	F 	0.74726 0.89222 0.27836 -0.18300
F 	F 	0.70777 0.92620 0.32210 -0.28400
F 	F 	0.68430 0.41051 0.76021 -0.22800
F 	F 	0.74726 0.39222 0.77836 -0.18300
F 	F 	0.70777 0.42620 0.82210 -0.28300
F 	F 	0.18430 0.91051 0.76021 -0.22900
F 	F 	0.24726 0.89222 0.77836 -0.18300
F 	F 	0.20777 0.92620 0.82210 -0.28400
F 	F 	0.18430 0.41051 0.26021 -0.22800
F 	F 	0.24726 0.39222 0.27836 -0.18300
F 	F 	0.20777 0.42620 0.32210 -0.28300
F 	F 	0.68430 0.08949 0.73979 -0.22800
F 	F 	0.74726 0.10778 0.72164 -0.18300
F 	F 	0.70777 0.07380 0.67790 -0.28300
F 	F 	0.68430 0.58949 0.23979 -0.22800
F 	F 	0.74726 0.60778 0.22164 -0.18300
F 	F 	0.70777 0.57380 0.17790 -0.28300
F 	F 	0.18430 0.08949 0.23979 -0.22800
F 	F 	0.24726 0.10778 0.22164 -0.18300
F 	F 	0.20777 0.07380 0.17790 -0.28300
F 	F 	0.18430 0.58949 0.73979 -0.22800
F 	F 	0.24726 0.60778 0.72164 -0.18300
F 	F 	0.20777 0.57380 0.67790 -0.28300
F 	F 	0.31570 0.08949 0.26021 -0.22800
F 	F 	0.25274 0.10778 0.27836 -0.18300
F 	F 	0.29223 0.07380 0.32210 -0.28300
F 	F 	0.31570 0.58949 0.76021 -0.22800
F 	F 	0.25274 0.60778 0.77836 -0.18300
F 	F 	0.29223 0.57380 0.82210 -0.28300
F 	F 	0.81570 0.08949 0.76021 -0.22800
F 	F 	0.75274 0.10778 0.77836 -0.18300
F 	F 	0.79223 0.07380 0.82210 -0.28300
F 	F 	0.81570 0.58949 0.26021 -0.22800
F 	F 	0.75274 0.60778 0.27836 -0.18300
F 	F 	0.79223 0.57380 0.32210 -0.28300
F 	F 	0.91051 0.26021 0.68430 -0.22900
F 	F 	0.89222 0.27836 0.74726 -0.18300
F 	F 	0.92620 0.32210 0.70777 -0.28400
F 	F 	0.91051 0.76021 0.18430 -0.22900
F 	F 	0.89222 0.77836 0.24726 -0.18300
F 	F 	0.92620 0.82210 0.20777 -0.28400
F 	F 	0.41051 0.26021 0.18430 -0.22800
F 	F 	0.39222 0.27836 0.24726 -0.18300
F 	F 	0.42620 0.32210 0.20777 -0.28300
F 	F 	0.41051 0.76021 0.68430 -0.22800
F 	F 	0.39222 0.77836 0.74726 -0.18300
F 	F 	0.42620 0.82210 0.70777 -0.28300
F 	F 	0.91051 0.73979 0.31570 -0.22900
F 	F 	0.89222 0.72164 0.25274 -0.18300
F 	F 	0.92620 0.67790 0.29223 -0.28400
F 	F 	0.91051 0.23979 0.81570 -0.22900
F 	F 	0.89222 0.22164 0.75274 -0.18300
F 	F 	0.92620 0.17790 0.79223 -0.28400
F 	F 	0.41051 0.73979 0.81570 -0.22900
F 	F 	0.39222 0.72164 0.75274 -0.18300
F 	F 	0.42620 0.67790 0.79223 -0.28300
F 	F 	0.41051 0.23979 0.31570 -0.22800
F 	F 	0.39222 0.22164 0.25274 -0.18300
F 	F 	0.42620 0.17790 0.29223 -0.28300
F 	F 	0.08949 0.26021 0.31570 -0.22800
F 	F 	0.10778 0.27836 0.25274 -0.18300
F 	F 	0.07380 0.32210 0.29223 -0.28300
F 	F 	0.08949 0.76021 0.81570 -0.22800
F 	F 	0.10778 0.77836 0.75274 -0.18300
F 	F 	0.07380 0.82210 0.79223 -0.28300
F 	F 	0.58949 0.26021 0.81570 -0.22800
F 	F 	0.60778 0.27836 0.75274 -0.18300
F 	F 	0.57380 0.32210 0.79223 -0.28300
F 	F 	0.58949 0.76021 0.31570 -0.22800
F 	F 	0.60778 0.77836 0.25274 -0.18300
F 	F 	0.57380 0.82210 0.29223 -0.28300
F 	F 	0.08949 0.73979 0.68430 -0.22800
F 	F 	0.10778 0.72164 0.74726 -0.18300
F 	F 	0.07380 0.67790 0.70777 -0.28300
F 	F 	0.08949 0.23979 0.18430 -0.22800
F 	F 	0.10778 0.22164 0.24726 -0.18300
F 	F 	0.07380 0.17790 0.20777 -0.28300
F 	F 	0.58949 0.73979 0.18430 -0.22800
F 	F 	0.60778 0.72164 0.24726 -0.18300
F 	F 	0.57380 0.67790 0.20777 -0.28300
F 	F 	0.58949 0.23979 0.68430 -0.22800
F 	F 	0.60778 0.22164 0.74726 -0.18300
F 	F 	0.57380 0.17790 0.70777 -0.28300
F 	F 	0.68430 0.73979 0.08949 -0.22800
F 	F 	0.74726 0.72164 0.10778 -0.18300
F 	F 	0.70777 0.67790 0.07380 -0.28300
F 	F 	0.68430 0.23979 0.58949 -0.22800
F 	F 	0.74726 0.22164 0.60778 -0.18300
F 	F 	0.70777 0.17790 0.57380 -0.28300
F 	F 	0.18430 0.73979 0.58949 -0.22800
F 	F 	0.24726 0.72164 0.60778 -0.18300
F 	F 	0.20777 0.67790 0.57380 -0.28300
F 	F 	0.18430 0.23979 0.08949 -0.22800
F 	F 	0.24726 0.22164 0.10778 -0.18300
F 	F 	0.20777 0.17790 0.07380 -0.28300
F 	F 	0.31570 0.26021 0.08949 -0.22800
F 	F 	0.25274 0.27836 0.10778 -0.18300
F 	F 	0.29223 0.32210 0.07380 -0.28300
F 	F 	0.31570 0.76021 0.58949 -0.22800
F 	F 	0.25274 0.77836 0.60778 -0.18300
F 	F 	0.29223 0.82210 0.57380 -0.28300
F 	F 	0.81570 0.26021 0.58949 -0.22800
F 	F 	0.75274 0.27836 0.60778 -0.18300
F 	F 	0.79223 0.32210 0.57380 -0.28300
F 	F 	0.81570 0.76021 0.08949 -0.22800
F 	F 	0.75274 0.77836 0.10778 -0.18300
F 	F 	0.79223 0.82210 0.07380 -0.28300
F 	F 	0.31570 0.73979 0.91051 -0.22900
F 	F 	0.25274 0.72164 0.89222 -0.18300
F 	F 	0.29223 0.67790 0.92620 -0.28400
F 	F 	0.31570 0.23979 0.41051 -0.22800
F 	F 	0.25274 0.22164 0.39222 -0.18300
F 	F 	0.29223 0.17790 0.42620 -0.28300
F 	F 	0.81570 0.73979 0.41051 -0.22900
F 	F 	0.75274 0.72164 0.39222 -0.18300
F 	F 	0.79223 0.67790 0.42620 -0.28300
F 	F 	0.81570 0.23979 0.91051 -0.22900
F 	F 	0.75274 0.22164 0.89222 -0.18300
F 	F 	0.79223 0.17790 0.92620 -0.28400
F 	F 	0.68430 0.26021 0.91051 -0.22900
F 	F 	0.74726 0.27836 0.89222 -0.18300
F 	F 	0.70777 0.32210 0.92620 -0.28400
F 	F 	0.68430 0.76021 0.41051 -0.22800
F 	F 	0.74726 0.77836 0.39222 -0.18300
F 	F 	0.70777 0.82210 0.42620 -0.28300
F 	F 	0.18430 0.26021 0.41051 -0.22800
F 	F 	0.24726 0.27836 0.39222 -0.18300
F 	F 	0.20777 0.32210 0.42620 -0.28300
F 	F 	0.18430 0.76021 0.91051 -0.22900
F 	F 	0.24726 0.77836 0.89222 -0.18300
F 	F 	0.20777 0.82210 0.92620 -0.28400
F 	F 	0.08949 0.68430 0.73979 -0.22800
F 	F 	0.10778 0.74726 0.72164 -0.18300
F 	F 	0.07380 0.70777 0.67790 -0.28300
F 	F 	0.08949 0.18430 0.23979 -0.22800
F 	F 	0.10778 0.24726 0.22164 -0.18300
F 	F 	0.07380 0.20777 0.17790 -0.28300
F 	F 	0.58949 0.68430 0.23979 -0.22800
F 	F 	0.60778 0.74726 0.22164 -0.18300
F 	F 	0.57380 0.70777 0.17790 -0.28300
F 	F 	0.58949 0.18430 0.73979 -0.22800
F 	F 	0.60778 0.24726 0.72164 -0.18300
F 	F 	0.57380 0.20777 0.67790 -0.28300
F 	F 	0.08949 0.31570 0.26021 -0.22800
F 	F 	0.10778 0.25274 0.27836 -0.18300
F 	F 	0.07380 0.29223 0.32210 -0.28300
F 	F 	0.08949 0.81570 0.76021 -0.22800
F 	F 	0.10778 0.75274 0.77836 -0.18300
F 	F 	0.07380 0.79223 0.82210 -0.28300
F 	F 	0.58949 0.31570 0.76021 -0.22800
F 	F 	0.60778 0.25274 0.77836 -0.18300
F 	F 	0.57380 0.29223 0.82210 -0.28300
F 	F 	0.58949 0.81570 0.26021 -0.22800
F 	F 	0.60778 0.75274 0.27836 -0.18300
F 	F 	0.57380 0.79223 0.32210 -0.28300
F 	F 	0.91051 0.31570 0.73979 -0.22900
F 	F 	0.89222 0.25274 0.72164 -0.18300
F 	F 	0.92620 0.29223 0.67790 -0.28400
F 	F 	0.91051 0.81570 0.23979 -0.22900
F 	F 	0.89222 0.75274 0.22164 -0.18300
F 	F 	0.92620 0.79223 0.17790 -0.28400
F 	F 	0.41051 0.31570 0.23979 -0.22800
F 	F 	0.39222 0.25274 0.22164 -0.18300
F 	F 	0.42620 0.29223 0.17790 -0.28300
F 	F 	0.41051 0.81570 0.73979 -0.22900
F 	F 	0.39222 0.75274 0.72164 -0.18300
F 	F 	0.42620 0.79223 0.67790 -0.28300
F 	F 	0.91051 0.68430 0.26021 -0.22900
F 	F 	0.89222 0.74726 0.27836 -0.18300
F 	F 	0.92620 0.70777 0.32210 -0.28400
F 	F 	0.91051 0.18430 0.76021 -0.22900
F 	F 	0.89222 0.24726 0.77836 -0.18300
F 	F 	0.92620 0.20777 0.82210 -0.28400
F 	F 	0.41051 0.68430 0.76021 -0.22800
F 	F 	0.39222 0.74726 0.77836 -0.18300
F 	F 	0.42620 0.70777 0.82210 -0.28300
F 	F 	0.41051 0.18430 0.26021 -0.22800
F 	F 	0.39222 0.24726 0.27836 -0.18300
F 	F 	0.42620 0.20777 0.32210 -0.28300
F 	F 	0.73979 0.08949 0.68430 -0.22800
F 	F 	0.72164 0.10778 0.74726 -0.18300
F 	F 	0.67790 0.07380 0.70777 -0.28300
F 	F 	0.73979 0.58949 0.18430 -0.22800
F 	F 	0.72164 0.60778 0.24726 -0.18300
F 	F 	0.67790 0.57380 0.20777 -0.28300
F 	F 	0.23979 0.08949 0.18430 -0.22800
F 	F 	0.22164 0.10778 0.24726 -0.18300
F 	F 	0.17790 0.07380 0.20777 -0.28300
F 	F 	0.23979 0.58949 0.68430 -0.22800
F 	F 	0.22164 0.60778 0.74726 -0.18300
F 	F 	0.17790 0.57380 0.70777 -0.28300
F 	F 	0.26021 0.08949 0.31570 -0.22800
F 	F 	0.27836 0.10778 0.25274 -0.18300
F 	F 	0.32210 0.07380 0.29223 -0.28300
F 	F 	0.26021 0.58949 0.81570 -0.22800
F 	F 	0.27836 0.60778 0.75274 -0.18300
F 	F 	0.32210 0.57380 0.79223 -0.28300
F 	F 	0.76021 0.08949 0.81570 -0.22800
F 	F 	0.77836 0.10778 0.75274 -0.18300
F 	F 	0.82210 0.07380 0.79223 -0.28300
F 	F 	0.76021 0.58949 0.31570 -0.22800
F 	F 	0.77836 0.60778 0.25274 -0.18300
F 	F 	0.82210 0.57380 0.29223 -0.28300
F 	F 	0.73979 0.91051 0.31570 -0.22900
F 	F 	0.72164 0.89222 0.25274 -0.18300
F 	F 	0.67790 0.92620 0.29223 -0.28400
F 	F 	0.73979 0.41051 0.81570 -0.22900
F 	F 	0.72164 0.39222 0.75274 -0.18300
F 	F 	0.67790 0.42620 0.79223 -0.28300
F 	F 	0.23979 0.91051 0.81570 -0.22900
F 	F 	0.22164 0.89222 0.75274 -0.18300
F 	F 	0.17790 0.92620 0.79223 -0.28400
F 	F 	0.23979 0.41051 0.31570 -0.22800
F 	F 	0.22164 0.39222 0.25274 -0.18300
F 	F 	0.17790 0.42620 0.29223 -0.28300
F 	F 	0.26021 0.91051 0.68430 -0.22900
F 	F 	0.27836 0.89222 0.74726 -0.18300
F 	F 	0.32210 0.92620 0.70777 -0.28400
F 	F 	0.26021 0.41051 0.18430 -0.22800
F 	F 	0.27836 0.39222 0.24726 -0.18300
F 	F 	0.32210 0.42620 0.20777 -0.28300
F 	F 	0.76021 0.91051 0.18430 -0.22900
F 	F 	0.77836 0.89222 0.24726 -0.18300
F 	F 	0.82210 0.92620 0.20777 -0.28400
F 	F 	0.76021 0.41051 0.68430 -0.22800
F 	F 	0.77836 0.39222 0.74726 -0.18300
F 	F 	0.82210 0.42620 0.70777 -0.28300
F 	F 	0.73979 0.68430 0.91051 -0.22900
F 	F 	0.72164 0.74726 0.89222 -0.18300
F 	F 	0.67790 0.70777 0.92620 -0.28400
F 	F 	0.73979 0.18430 0.41051 -0.22800
F 	F 	0.72164 0.24726 0.39222 -0.18300
F 	F 	0.67790 0.20777 0.42620 -0.28300
F 	F 	0.23979 0.68430 0.41051 -0.22800
F 	F 	0.22164 0.74726 0.39222 -0.18300
F 	F 	0.17790 0.70777 0.42620 -0.28300
F 	F 	0.23979 0.18430 0.91051 -0.22900
F 	F 	0.22164 0.24726 0.89222 -0.18300
F 	F 	0.17790 0.20777 0.92620 -0.28400
F 	F 	0.26021 0.31570 0.91051 -0.22900
F 	F 	0.27836 0.25274 0.89222 -0.18300
F 	F 	0.32210 0.29223 0.92620 -0.28400
F 	F 	0.26021 0.81570 0.41051 -0.22800
F 	F 	0.27836 0.75274 0.39222 -0.18300
F 	F 	0.32210 0.79223 0.42620 -0.28300
F 	F 	0.76021 0.31570 0.41051 -0.22800
F 	F 	0.77836 0.25274 0.39222 -0.18300
F 	F 	0.82210 0.29223 0.42620 -0.28300
F 	F 	0.76021 0.81570 0.91051 -0.22900
F 	F 	0.77836 0.75274 0.89222 -0.18300
F 	F 	0.82210 0.79223 0.92620 -0.28400
F 	F 	0.73979 0.31570 0.08949 -0.22800
F 	F 	0.72164 0.25274 0.10778 -0.18300
F 	F 	0.67790 0.29223 0.07380 -0.28300
F 	F 	0.73979 0.81570 0.58949 -0.22900
F 	F 	0.72164 0.75274 0.60778 -0.18300
F 	F 	0.67790 0.79223 0.57380 -0.28300
F 	F 	0.23979 0.31570 0.58949 -0.22800
F 	F 	0.22164 0.25274 0.60778 -0.18300
F 	F 	0.17790 0.29223 0.57380 -0.28300
F 	F 	0.23979 0.81570 0.08949 -0.22800
F 	F 	0.22164 0.75274 0.10778 -0.18300
F 	F 	0.17790 0.79223 0.07380 -0.28300
F 	F 	0.26021 0.68430 0.08949 -0.22800
F 	F 	0.27836 0.74726 0.10778 -0.18300
F 	F 	0.32210 0.70777 0.07380 -0.28300
F 	F 	0.26021 0.18430 0.58949 -0.22800
F 	F 	0.27836 0.24726 0.60778 -0.18300
F 	F 	0.32210 0.20777 0.57380 -0.28300
F 	F 	0.76021 0.68430 0.58949 -0.22800
F 	F 	0.77836 0.74726 0.60778 -0.18300
F 	F 	0.82210 0.70777 0.57380 -0.28300
F 	F 	0.76021 0.18430 0.08949 -0.22800
F 	F 	0.77836 0.24726 0.10778 -0.18300
F 	F 	0.82210 0.20777 0.07380 -0.28300
F 	F 	0.68430 0.08949 0.26021 -0.22800
F 	F 	0.74726 0.10778 0.27836 -0.18300
F 	F 	0.70777 0.07380 0.32210 -0.28300
F 	F 	0.68430 0.58949 0.76021 -0.22800
F 	F 	0.74726 0.60778 0.77836 -0.18300
F 	F 	0.70777 0.57380 0.82210 -0.28300
F 	F 	0.18430 0.08949 0.76021 -0.22800
F 	F 	0.24726 0.10778 0.77836 -0.18300
F 	F 	0.20777 0.07380 0.82210 -0.28300
F 	F 	0.18430 0.58949 0.26021 -0.22800
F 	F 	0.24726 0.60778 0.27836 -0.18300
F 	F 	0.20777 0.57380 0.32210 -0.28300
F 	F 	0.31570 0.08949 0.73979 -0.22800
F 	F 	0.25274 0.10778 0.72164 -0.18300
F 	F 	0.29223 0.07380 0.67790 -0.28300
F 	F 	0.31570 0.58949 0.23979 -0.22800
F 	F 	0.25274 0.60778 0.22164 -0.18300
F 	F 	0.29223 0.57380 0.17790 -0.28300
F 	F 	0.81570 0.08949 0.23979 -0.22800
F 	F 	0.75274 0.10778 0.22164 -0.18300
F 	F 	0.79223 0.07380 0.17790 -0.28300
F 	F 	0.81570 0.58949 0.73979 -0.22900
F 	F 	0.75274 0.60778 0.72164 -0.18300
F 	F 	0.79223 0.57380 0.67790 -0.28300
F 	F 	0.31570 0.91051 0.26021 -0.22900
F 	F 	0.25274 0.89222 0.27836 -0.18300
F 	F 	0.29223 0.92620 0.32210 -0.28400
F 	F 	0.31570 0.41051 0.76021 -0.22800
F 	F 	0.25274 0.39222 0.77836 -0.18300
F 	F 	0.29223 0.42620 0.82210 -0.28300
F 	F 	0.81570 0.91051 0.76021 -0.22900
F 	F 	0.75274 0.89222 0.77836 -0.18300
F 	F 	0.79223 0.92620 0.82210 -0.28400
F 	F 	0.81570 0.41051 0.26021 -0.22800
F 	F 	0.75274 0.39222 0.27836 -0.18300
F 	F 	0.79223 0.42620 0.32210 -0.28300
F 	F 	0.68430 0.91051 0.73979 -0.22900
F 	F 	0.74726 0.89222 0.72164 -0.18300
F 	F 	0.70777 0.92620 0.67790 -0.28400
F 	F 	0.68430 0.41051 0.23979 -0.22800
F 	F 	0.74726 0.39222 0.22164 -0.18300
F 	F 	0.70777 0.42620 0.17790 -0.28300
F 	F 	0.18430 0.91051 0.23979 -0.22900
F 	F 	0.24726 0.89222 0.22164 -0.18300
F 	F 	0.20777 0.92620 0.17790 -0.28400
F 	F 	0.18430 0.41051 0.73979 -0.22800
F 	F 	0.24726 0.39222 0.72164 -0.18300
F 	F 	0.20777 0.42620 0.67790 -0.28300
F 	F 	0.08949 0.73979 0.31570 -0.22800
F 	F 	0.10778 0.72164 0.25274 -0.18300
F 	F 	0.07380 0.67790 0.29223 -0.28300
F 	F 	0.08949 0.23979 0.81570 -0.22800
F 	F 	0.10778 0.22164 0.75274 -0.18300
F 	F 	0.07380 0.17790 0.79223 -0.28300
F 	F 	0.58949 0.73979 0.81570 -0.22900
F 	F 	0.60778 0.72164 0.75274 -0.18300
F 	F 	0.57380 0.67790 0.79223 -0.28300
F 	F 	0.58949 0.23979 0.31570 -0.22800
F 	F 	0.60778 0.22164 0.25274 -0.18300
F 	F 	0.57380 0.17790 0.29223 -0.28300
F 	F 	0.08949 0.26021 0.68430 -0.22800
F 	F 	0.10778 0.27836 0.74726 -0.18300
F 	F 	0.07380 0.32210 0.70777 -0.28300
F 	F 	0.08949 0.76021 0.18430 -0.22800
F 	F 	0.10778 0.77836 0.24726 -0.18300
F 	F 	0.07380 0.82210 0.20777 -0.28300
F 	F 	0.58949 0.26021 0.18430 -0.22800
F 	F 	0.60778 0.27836 0.24726 -0.18300
F 	F 	0.57380 0.32210 0.20777 -0.28300
F 	F 	0.58949 0.76021 0.68430 -0.22800
F 	F 	0.60778 0.77836 0.74726 -0.18300
F 	F 	0.57380 0.82210 0.70777 -0.28300
F 	F 	0.91051 0.73979 0.68430 -0.22900
F 	F 	0.89222 0.72164 0.74726 -0.18300
F 	F 	0.92620 0.67790 0.70777 -0.28400
F 	F 	0.91051 0.23979 0.18430 -0.22900
F 	F 	0.89222 0.22164 0.24726 -0.18300
F 	F 	0.92620 0.17790 0.20777 -0.28400
F 	F 	0.41051 0.73979 0.18430 -0.22800
F 	F 	0.39222 0.72164 0.24726 -0.18300
F 	F 	0.42620 0.67790 0.20777 -0.28300
F 	F 	0.41051 0.23979 0.68430 -0.22800
F 	F 	0.39222 0.22164 0.74726 -0.18300
F 	F 	0.42620 0.17790 0.70777 -0.28300
F 	F 	0.91051 0.26021 0.31570 -0.22900
F 	F 	0.89222 0.27836 0.25274 -0.18300
F 	F 	0.92620 0.32210 0.29223 -0.28400
F 	F 	0.91051 0.76021 0.81570 -0.22900
F 	F 	0.89222 0.77836 0.75274 -0.18300
F 	F 	0.92620 0.82210 0.79223 -0.28400
F 	F 	0.41051 0.26021 0.81570 -0.22800
F 	F 	0.39222 0.27836 0.75274 -0.18300
F 	F 	0.42620 0.32210 0.79223 -0.28300
F 	F 	0.41051 0.76021 0.31570 -0.22800
F 	F 	0.39222 0.77836 0.25274 -0.18300
F 	F 	0.42620 0.82210 0.29223 -0.28300
Ni	Ni	0.04076 0.04076 0.04076 1.09800
Ni	Ni	0.04076 0.54076 0.54076 1.09800
Ni	Ni	0.54076 0.04076 0.54076 1.09800
Ni	Ni	0.54076 0.54076 0.04076 1.09800
Ni	Ni	0.95924 0.95924 0.04076 1.09600
Ni	Ni	0.95924 0.45924 0.54076 1.09700
Ni	Ni	0.45924 0.95924 0.54076 1.09700
Ni	Ni	0.45924 0.45924 0.04076 1.09800
Ni	Ni	0.95924 0.04076 0.95924 1.09600
Ni	Ni	0.95924 0.54076 0.45924 1.09700
Ni	Ni	0.45924 0.04076 0.45924 1.09800
Ni	Ni	0.45924 0.54076 0.95924 1.09700
Ni	Ni	0.04076 0.95924 0.95924 1.09600
Ni	Ni	0.04076 0.45924 0.45924 1.09800
Ni	Ni	0.54076 0.95924 0.45924 1.09700
Ni	Ni	0.54076 0.45924 0.95924 1.09700
Ni	Ni	0.04076 0.04076 0.95924 1.09700
Ni	Ni	0.04076 0.54076 0.45924 1.09800
Ni	Ni	0.54076 0.04076 0.45924 1.09800
Ni	Ni	0.54076 0.54076 0.95924 1.09700
Ni	Ni	0.95924 0.95924 0.95924 1.09600
Ni	Ni	0.95924 0.45924 0.45924 1.09700
Ni	Ni	0.45924 0.95924 0.45924 1.09700
Ni	Ni	0.45924 0.45924 0.95924 1.09700
Ni	Ni	0.04076 0.95924 0.04076 1.09700
Ni	Ni	0.04076 0.45924 0.54076 1.09800
Ni	Ni	0.54076 0.95924 0.54076 1.09700
Ni	Ni	0.54076 0.45924 0.04076 1.09800
Ni	Ni	0.95924 0.04076 0.04076 1.09700
Ni	Ni	0.95924 0.54076 0.54076 1.09700
Ni	Ni	0.45924 0.04076 0.54076 1.09800
Ni	Ni	0.45924 0.54076 0.04076 1.09800
O 	O 	0.04707 0.00000 -0.00000 -0.75900
H 	H 	0.07639 0.00000 -0.00000 0.10400
O 	O 	0.04707 0.50000 0.50000 -0.76100
H 	H 	0.07639 0.50000 0.50000 0.10300
O 	O 	0.54707 -0.00000 0.50000 -0.76000
H 	H 	0.57639 -0.00000 0.50000 0.10400
O 	O 	0.54707 0.50000 -0.00000 -0.76000
H 	H 	0.57639 0.50000 -0.00000 0.10400
O 	O 	0.95293 0.00000 -0.00000 -0.76000
H 	H 	0.92361 0.00000 -0.00000 0.10500
O 	O 	0.95293 0.50000 0.50000 -0.76300
H 	H 	0.92361 0.50000 0.50000 0.10300
O 	O 	0.45293 -0.00000 0.50000 -0.76000
H 	H 	0.42361 -0.00000 0.50000 0.10400
O 	O 	0.45293 0.50000 -0.00000 -0.76000
H 	H 	0.42361 0.50000 -0.00000 0.10400
O 	O 	-0.00000 0.04707 -0.00000 -0.75900
H 	H 	-0.00000 0.07639 -0.00000 0.10400
O 	O 	-0.00000 0.54707 0.50000 -0.76000
H 	H 	-0.00000 0.57639 0.50000 0.10400
O 	O 	0.50000 0.04707 0.50000 -0.76100
H 	H 	0.50000 0.07639 0.50000 0.10300
O 	O 	0.50000 0.54707 -0.00000 -0.76000
H 	H 	0.50000 0.57639 -0.00000 0.10400
O 	O 	-0.00000 0.95293 -0.00000 -0.76000
H 	H 	-0.00000 0.92361 -0.00000 0.10500
O 	O 	-0.00000 0.45293 0.50000 -0.76000
H 	H 	-0.00000 0.42361 0.50000 0.10400
O 	O 	0.50000 0.95293 0.50000 -0.76300
H 	H 	0.50000 0.92361 0.50000 0.10300
O 	O 	0.50000 0.45293 -0.00000 -0.76000
H 	H 	0.50000 0.42361 -0.00000 0.10400
O 	O 	0.00000 0.00000 0.04707 -0.75900
H 	H 	0.00000 0.00000 0.07639 0.10400
O 	O 	-0.00000 0.50000 0.54707 -0.76000
H 	H 	-0.00000 0.50000 0.57639 0.10400
O 	O 	0.50000 0.00000 0.54707 -0.76000
H 	H 	0.50000 -0.00000 0.57639 0.10400
O 	O 	0.50000 0.50000 0.04707 -0.76100
H 	H 	0.50000 0.50000 0.07639 0.10300
O 	O 	0.00000 0.00000 0.95293 -0.76000
H 	H 	0.00000 0.00000 0.92361 0.10500
O 	O 	0.00000 0.50000 0.45293 -0.76000
H 	H 	-0.00000 0.50000 0.42361 0.10400
O 	O 	0.50000 0.00000 0.45293 -0.76000
H 	H 	0.50000 -0.00000 0.42361 0.10400
O 	O 	0.50000 0.50000 0.95293 -0.76300
H 	H 	0.50000 0.50000 0.92361 0.10300
C 	C 	0.28034 0.28034 -0.00000 0.19900
C 	C 	0.31307 0.31307 -0.00000 0.14200
C 	C 	0.34013 0.34013 -0.00000 0.14000
C 	C 	0.37287 0.37287 -0.00000 0.05600
C 	C 	0.28034 0.78034 0.50000 0.19500
C 	C 	0.31307 0.81307 0.50000 0.14100
C 	C 	0.34013 0.84013 0.50000 0.14000
C 	C 	0.37287 0.87287 0.50000 0.05100
C 	C 	0.78034 0.28034 0.50000 0.19500
C 	C 	0.81307 0.31307 0.50000 0.14100
C 	C 	0.84013 0.34013 0.50000 0.14000
C 	C 	0.87287 0.37287 0.50000 0.05100
C 	C 	0.78034 0.78034 -0.00000 0.19900
C 	C 	0.81307 0.81307 -0.00000 0.14200
C 	C 	0.84013 0.84013 -0.00000 0.14000
C 	C 	0.87287 0.87287 -0.00000 0.05600
C 	C 	0.71966 0.71966 -0.00000 0.19900
C 	C 	0.68693 0.68693 -0.00000 0.14200
C 	C 	0.65987 0.65987 -0.00000 0.14000
C 	C 	0.62713 0.62713 -0.00000 0.05600
C 	C 	0.71966 0.21966 0.50000 0.19500
C 	C 	0.68693 0.18693 0.50000 0.14100
C 	C 	0.65987 0.15987 0.50000 0.14000
C 	C 	0.62713 0.12713 0.50000 0.05100
C 	C 	0.21966 0.71966 0.50000 0.19500
C 	C 	0.18693 0.68693 0.50000 0.14100
C 	C 	0.15987 0.65987 0.50000 0.14000
C 	C 	0.12713 0.62713 0.50000 0.05100
C 	C 	0.21966 0.21966 -0.00000 0.19900
C 	C 	0.18693 0.18693 -0.00000 0.14200
C 	C 	0.15987 0.15987 -0.00000 0.14100
C 	C 	0.12713 0.12713 -0.00000 0.05700
C 	C 	0.71966 0.28034 -0.00000 0.19900
C 	C 	0.68693 0.31307 -0.00000 0.14200
C 	C 	0.65987 0.34013 -0.00000 0.14000
C 	C 	0.62713 0.37287 -0.00000 0.05600
C 	C 	0.71966 0.78034 0.50000 0.19500
C 	C 	0.68693 0.81307 0.50000 0.14100
C 	C 	0.65987 0.84013 0.50000 0.14000
C 	C 	0.62713 0.87287 0.50000 0.05100
C 	C 	0.21966 0.28034 0.50000 0.19600
C 	C 	0.18693 0.31307 0.50000 0.14100
C 	C 	0.15987 0.34013 0.50000 0.14000
C 	C 	0.12713 0.37287 0.50000 0.05100
C 	C 	0.21966 0.78034 -0.00000 0.19900
C 	C 	0.18693 0.81307 -0.00000 0.14200
C 	C 	0.15987 0.84013 -0.00000 0.14000
C 	C 	0.12713 0.87287 -0.00000 0.05600
C 	C 	0.28034 0.71966 -0.00000 0.19900
C 	C 	0.31307 0.68693 -0.00000 0.14200
C 	C 	0.34013 0.65987 -0.00000 0.14000
C 	C 	0.37287 0.62713 -0.00000 0.05600
C 	C 	0.28034 0.21966 0.50000 0.19600
C 	C 	0.31307 0.18693 0.50000 0.14100
C 	C 	0.34013 0.15987 0.50000 0.14000
C 	C 	0.37287 0.12713 0.50000 0.05100
C 	C 	0.78034 0.71966 0.50000 0.19500
C 	C 	0.81307 0.68693 0.50000 0.14100
C 	C 	0.84013 0.65987 0.50000 0.14000
C 	C 	0.87287 0.62713 0.50000 0.05100
C 	C 	0.78034 0.21966 -0.00000 0.19900
C 	C 	0.81307 0.18693 -0.00000 0.14200
C 	C 	0.84013 0.15987 -0.00000 0.14000
C 	C 	0.87287 0.12713 -0.00000 0.05600
C 	C 	0.00000 0.28034 0.28034 0.19900
C 	C 	0.00000 0.31307 0.31307 0.14200
C 	C 	0.00000 0.34013 0.34013 0.14000
C 	C 	0.00000 0.37287 0.37287 0.05600
C 	C 	0.00000 0.78034 0.78034 0.19900
C 	C 	-0.00000 0.81307 0.81307 0.14200
C 	C 	0.00000 0.84013 0.84013 0.14000
C 	C 	-0.00000 0.87287 0.87287 0.05600
C 	C 	0.50000 0.28034 0.78034 0.19500
C 	C 	0.50000 0.31307 0.81307 0.14100
C 	C 	0.50000 0.34013 0.84013 0.14000
C 	C 	0.50000 0.37287 0.87287 0.05100
C 	C 	0.50000 0.78034 0.28034 0.19500
C 	C 	0.50000 0.81307 0.31307 0.14100
C 	C 	0.50000 0.84013 0.34013 0.14000
C 	C 	0.50000 0.87287 0.37287 0.05100
C 	C 	-0.00000 0.71966 0.71966 0.19900
C 	C 	0.00000 0.68693 0.68693 0.14200
C 	C 	-0.00000 0.65987 0.65987 0.14000
C 	C 	0.00000 0.62713 0.62713 0.05600
C 	C 	0.00000 0.21966 0.21966 0.19900
C 	C 	-0.00000 0.18693 0.18693 0.14200
C 	C 	0.00000 0.15987 0.15987 0.14100
C 	C 	0.00000 0.12713 0.12713 0.05700
C 	C 	0.50000 0.71966 0.21966 0.19500
C 	C 	0.50000 0.68693 0.18693 0.14100
C 	C 	0.50000 0.65987 0.15987 0.14000
C 	C 	0.50000 0.62713 0.12713 0.05100
C 	C 	0.50000 0.21966 0.71966 0.19500
C 	C 	0.50000 0.18693 0.68693 0.14100
C 	C 	0.50000 0.15987 0.65987 0.14000
C 	C 	0.50000 0.12713 0.62713 0.05100
C 	C 	-0.00000 0.71966 0.28034 0.19900
C 	C 	-0.00000 0.68693 0.31307 0.14200
C 	C 	-0.00000 0.65987 0.34013 0.14000
C 	C 	-0.00000 0.62713 0.37287 0.05600
C 	C 	-0.00000 0.21966 0.78034 0.19900
C 	C 	-0.00000 0.18693 0.81307 0.14200
C 	C 	-0.00000 0.15987 0.84013 0.14000
C 	C 	-0.00000 0.12713 0.87287 0.05600
C 	C 	0.50000 0.71966 0.78034 0.19500
C 	C 	0.50000 0.68693 0.81307 0.14100
C 	C 	0.50000 0.65987 0.84013 0.14000
C 	C 	0.50000 0.62713 0.87287 0.05100
C 	C 	0.50000 0.21966 0.28034 0.19600
C 	C 	0.50000 0.18693 0.31307 0.14100
C 	C 	0.50000 0.15987 0.34013 0.14000
C 	C 	0.50000 0.12713 0.37287 0.05100
C 	C 	-0.00000 0.28034 0.71966 0.19900
C 	C 	-0.00000 0.31307 0.68693 0.14200
C 	C 	-0.00000 0.34013 0.65987 0.14000
C 	C 	-0.00000 0.37287 0.62713 0.05600
C 	C 	-0.00000 0.78034 0.21966 0.19900
C 	C 	-0.00000 0.81307 0.18693 0.14200
C 	C 	-0.00000 0.84013 0.15987 0.14000
C 	C 	-0.00000 0.87287 0.12713 0.05600
C 	C 	0.50000 0.28034 0.21966 0.19600
C 	C 	0.50000 0.31307 0.18693 0.14100
C 	C 	0.50000 0.34013 0.15987 0.14000
C 	C 	0.50000 0.37287 0.12713 0.05100
C 	C 	0.50000 0.78034 0.71966 0.19500
C 	C 	0.50000 0.81307 0.68693 0.14100
C 	C 	0.50000 0.84013 0.65987 0.14000
C 	C 	0.50000 0.87287 0.62713 0.05100
C 	C 	0.28034 0.00000 0.28034 0.19900
C 	C 	0.31307 0.00000 0.31307 0.14200
C 	C 	0.34013 0.00000 0.34013 0.14000
C 	C 	0.37287 0.00000 0.37287 0.05600
C 	C 	0.28034 0.50000 0.78034 0.19500
C 	C 	0.31307 0.50000 0.81307 0.14100
C 	C 	0.34013 0.50000 0.84013 0.14000
C 	C 	0.37287 0.50000 0.87287 0.05100
C 	C 	0.78034 0.00000 0.78034 0.19900
C 	C 	0.81307 -0.00000 0.81307 0.14200
C 	C 	0.84013 0.00000 0.84013 0.14000
C 	C 	0.87287 -0.00000 0.87287 0.05600
C 	C 	0.78034 0.50000 0.28034 0.19500
C 	C 	0.81307 0.50000 0.31307 0.14100
C 	C 	0.84013 0.50000 0.34013 0.14000
C 	C 	0.87287 0.50000 0.37287 0.05100
C 	C 	0.71966 -0.00000 0.71966 0.19900
C 	C 	0.68693 0.00000 0.68693 0.14200
C 	C 	0.65987 -0.00000 0.65987 0.14000
C 	C 	0.62713 0.00000 0.62713 0.05600
C 	C 	0.71966 0.50000 0.21966 0.19500
C 	C 	0.68693 0.50000 0.18693 0.14100
C 	C 	0.65987 0.50000 0.15987 0.14000
C 	C 	0.62713 0.50000 0.12713 0.05100
C 	C 	0.21966 0.00000 0.21966 0.19900
C 	C 	0.18693 -0.00000 0.18693 0.14200
C 	C 	0.15987 0.00000 0.15987 0.14100
C 	C 	0.12713 0.00000 0.12713 0.05700
C 	C 	0.21966 0.50000 0.71966 0.19500
C 	C 	0.18693 0.50000 0.68693 0.14100
C 	C 	0.15987 0.50000 0.65987 0.14000
C 	C 	0.12713 0.50000 0.62713 0.05100
C 	C 	0.28034 -0.00000 0.71966 0.19900
C 	C 	0.31307 0.00000 0.68693 0.14200
C 	C 	0.34013 -0.00000 0.65987 0.14000
C 	C 	0.37287 0.00000 0.62713 0.05600
C 	C 	0.28034 0.50000 0.21966 0.19600
C 	C 	0.31307 0.50000 0.18693 0.14100
C 	C 	0.34013 0.50000 0.15987 0.14000
C 	C 	0.37287 0.50000 0.12713 0.05100
C 	C 	0.78034 0.00000 0.21966 0.19900
C 	C 	0.81307 -0.00000 0.18693 0.14200
C 	C 	0.84013 0.00000 0.15987 0.14000
C 	C 	0.87287 0.00000 0.12713 0.05600
C 	C 	0.78034 0.50000 0.71966 0.19500
C 	C 	0.81307 0.50000 0.68693 0.14100
C 	C 	0.84013 0.50000 0.65987 0.14000
C 	C 	0.87287 0.50000 0.62713 0.05100
C 	C 	0.71966 0.00000 0.28034 0.19900
C 	C 	0.68693 0.00000 0.31307 0.14200
C 	C 	0.65987 0.00000 0.34013 0.14000
C 	C 	0.62713 0.00000 0.37287 0.05600
C 	C 	0.71966 0.50000 0.78034 0.19500
C 	C 	0.68693 0.50000 0.81307 0.14100
C 	C 	0.65987 0.50000 0.84013 0.14000
C 	C 	0.62713 0.50000 0.87287 0.05100
C 	C 	0.21966 0.00000 0.78034 0.19900
C 	C 	0.18693 -0.00000 0.81307 0.14200
C 	C 	0.15987 0.00000 0.84013 0.14000
C 	C 	0.12713 -0.00000 0.87287 0.05600
C 	C 	0.21966 0.50000 0.28034 0.19600
C 	C 	0.18693 0.50000 0.31307 0.14100
C 	C 	0.15987 0.50000 0.34013 0.14000
C 	C 	0.12713 0.50000 0.37287 0.05100
C 	C 	0.26517 0.26517 0.96285 -0.07200
C 	C 	0.28197 0.28197 0.92168 1.06500
C 	C 	0.39032 0.39032 0.96604 0.03700
H 	H 	0.38391 0.38391 0.93816 0.09500
N 	N 	0.41854 0.41854 0.97901 -0.21000
C 	C 	0.26517 0.76517 0.46285 -0.06900
C 	C 	0.28197 0.78197 0.42168 1.06500
C 	C 	0.39032 0.89032 0.46604 0.04200
H 	H 	0.38391 0.88391 0.43816 0.09400
N 	N 	0.41854 0.91854 0.47901 -0.20900
C 	C 	0.76517 0.26517 0.46285 -0.06900
C 	C 	0.78197 0.28197 0.42168 1.06500
C 	C 	0.89032 0.39032 0.46604 0.04200
H 	H 	0.88391 0.38391 0.43816 0.09400
N 	N 	0.91854 0.41854 0.47901 -0.20900
C 	C 	0.76517 0.76517 0.96285 -0.07200
C 	C 	0.78197 0.78197 0.92168 1.06500
C 	C 	0.89032 0.89032 0.96604 0.03700
H 	H 	0.88391 0.88391 0.93816 0.09500
N 	N 	0.91854 0.91854 0.97901 -0.21000
C 	C 	0.73483 0.73483 0.96285 -0.07200
C 	C 	0.71803 0.71803 0.92168 1.06500
C 	C 	0.60968 0.60968 0.96604 0.03700
H 	H 	0.61609 0.61609 0.93816 0.09500
N 	N 	0.58146 0.58146 0.97901 -0.21000
C 	C 	0.73483 0.23483 0.46285 -0.06900
C 	C 	0.71803 0.21803 0.42168 1.06400
C 	C 	0.60968 0.10968 0.46604 0.04200
H 	H 	0.61609 0.11609 0.43816 0.09400
N 	N 	0.58146 0.08146 0.47901 -0.20900
C 	C 	0.23483 0.73483 0.46285 -0.06900
C 	C 	0.21803 0.71803 0.42168 1.06400
C 	C 	0.10968 0.60968 0.46604 0.04200
H 	H 	0.11609 0.61609 0.43816 0.09400
N 	N 	0.08146 0.58146 0.47901 -0.20900
C 	C 	0.23483 0.23483 0.96285 -0.07200
C 	C 	0.21803 0.21803 0.92168 1.06500
C 	C 	0.10968 0.10968 0.96604 0.03700
H 	H 	0.11609 0.11609 0.93816 0.09500
N 	N 	0.08146 0.08146 0.97901 -0.20900
C 	C 	0.73483 0.26517 0.03715 -0.06900
C 	C 	0.71803 0.28197 0.07832 1.06500
C 	C 	0.60968 0.39032 0.03396 0.04100
H 	H 	0.61609 0.38391 0.06184 0.09400
N 	N 	0.58146 0.41854 0.02099 -0.20700
C 	C 	0.73483 0.76517 0.53715 -0.06900
C 	C 	0.71803 0.78197 0.57832 1.06500
C 	C 	0.60968 0.89032 0.53396 0.04200
H 	H 	0.61609 0.88391 0.56184 0.09400
N 	N 	0.58146 0.91854 0.52099 -0.20900
C 	C 	0.23483 0.26517 0.53715 -0.06900
C 	C 	0.21803 0.28197 0.57832 1.06400
C 	C 	0.10968 0.39032 0.53396 0.04200
H 	H 	0.11609 0.38391 0.56184 0.09400
N 	N 	0.08146 0.41854 0.52099 -0.20900
C 	C 	0.23483 0.76517 0.03715 -0.06900
C 	C 	0.21803 0.78197 0.07832 1.06500
C 	C 	0.10968 0.89032 0.03396 0.04100
H 	H 	0.11609 0.88391 0.06184 0.09400
N 	N 	0.08146 0.91854 0.02099 -0.20700
C 	C 	0.26517 0.73483 0.03715 -0.06900
C 	C 	0.28197 0.71803 0.07832 1.06500
C 	C 	0.39032 0.60968 0.03396 0.04100
H 	H 	0.38391 0.61609 0.06184 0.09400
N 	N 	0.41854 0.58146 0.02099 -0.20700
C 	C 	0.26517 0.23483 0.53715 -0.06900
C 	C 	0.28197 0.21803 0.57832 1.06400
C 	C 	0.39032 0.10968 0.53396 0.04200
H 	H 	0.38391 0.11609 0.56184 0.09400
N 	N 	0.41854 0.08146 0.52099 -0.20900
C 	C 	0.76517 0.73483 0.53715 -0.06900
C 	C 	0.78197 0.71803 0.57832 1.06500
C 	C 	0.89032 0.60968 0.53396 0.04200
H 	H 	0.88391 0.61609 0.56184 0.09400
N 	N 	0.91854 0.58146 0.52099 -0.20900
C 	C 	0.76517 0.23483 0.03715 -0.06900
C 	C 	0.78197 0.21803 0.07832 1.06500
C 	C 	0.89032 0.10968 0.03396 0.04100
H 	H 	0.88391 0.11609 0.06184 0.09400
N 	N 	0.91854 0.08146 0.02099 -0.20700
C 	C 	0.96285 0.26517 0.26517 -0.07200
C 	C 	0.92168 0.28197 0.28197 1.06500
C 	C 	0.96604 0.39032 0.39032 0.03700
H 	H 	0.93816 0.38391 0.38391 0.09500
N 	N 	0.97901 0.41854 0.41854 -0.21000
C 	C 	0.96285 0.76517 0.76517 -0.07200
C 	C 	0.92168 0.78197 0.78197 1.06500
C 	C 	0.96604 0.89032 0.89032 0.03700
H 	H 	0.93816 0.88391 0.88391 0.09500
N 	N 	0.97901 0.91854 0.91854 -0.21000
C 	C 	0.46285 0.26517 0.76517 -0.06900
C 	C 	0.42168 0.28197 0.78197 1.06500
C 	C 	0.46604 0.39032 0.89032 0.04200
H 	H 	0.43816 0.38391 0.88391 0.09400
N 	N 	0.47901 0.41854 0.91854 -0.20900
C 	C 	0.46285 0.76517 0.26517 -0.06900
C 	C 	0.42168 0.78197 0.28197 1.06500
C 	C 	0.46604 0.89032 0.39032 0.04200
H 	H 	0.43816 0.88391 0.38391 0.09400
N 	N 	0.47901 0.91854 0.41854 -0.20900
C 	C 	0.96285 0.73483 0.73483 -0.07200
C 	C 	0.92168 0.71803 0.71803 1.06500
C 	C 	0.96604 0.60968 0.60968 0.03700
H 	H 	0.93816 0.61609 0.61609 0.09500
N 	N 	0.97901 0.58146 0.58146 -0.21000
C 	C 	0.96285 0.23483 0.23483 -0.07200
C 	C 	0.92168 0.21803 0.21803 1.06500
C 	C 	0.96604 0.10968 0.10968 0.03700
H 	H 	0.93816 0.11609 0.11609 0.09500
N 	N 	0.97901 0.08146 0.08146 -0.20900
C 	C 	0.46285 0.73483 0.23483 -0.06900
C 	C 	0.42168 0.71803 0.21803 1.06400
C 	C 	0.46604 0.60968 0.10968 0.04200
H 	H 	0.43816 0.61609 0.11609 0.09400
N 	N 	0.47901 0.58146 0.08146 -0.20900
C 	C 	0.46285 0.23483 0.73483 -0.06900
C 	C 	0.42168 0.21803 0.71803 1.06400
C 	C 	0.46604 0.10968 0.60968 0.04200
H 	H 	0.43816 0.11609 0.61609 0.09400
N 	N 	0.47901 0.08146 0.58146 -0.20900
C 	C 	0.03715 0.73483 0.26517 -0.06900
C 	C 	0.07832 0.71803 0.28197 1.06500
C 	C 	0.03396 0.60968 0.39032 0.04100
H 	H 	0.06184 0.61609 0.38391 0.09400
N 	N 	0.02099 0.58146 0.41854 -0.20700
C 	C 	0.03715 0.23483 0.76517 -0.06900
C 	C 	0.07832 0.21803 0.78197 1.06500
C 	C 	0.03396 0.10968 0.89032 0.04100
H 	H 	0.06184 0.11609 0.88391 0.09400
N 	N 	0.02099 0.08146 0.91854 -0.20700
C 	C 	0.53715 0.73483 0.76517 -0.06900
C 	C 	0.57832 0.71803 0.78197 1.06500
C 	C 	0.53396 0.60968 0.89032 0.04200
H 	H 	0.56184 0.61609 0.88391 0.09400
N 	N 	0.52099 0.58146 0.91854 -0.20900
C 	C 	0.53715 0.23483 0.26517 -0.06900
C 	C 	0.57832 0.21803 0.28197 1.06400
C 	C 	0.53396 0.10968 0.39032 0.04200
H 	H 	0.56184 0.11609 0.38391 0.09400
N 	N 	0.52099 0.08146 0.41854 -0.20900
C 	C 	0.03715 0.26517 0.73483 -0.06900
C 	C 	0.07832 0.28197 0.71803 1.06500
C 	C 	0.03396 0.39032 0.60968 0.04100
H 	H 	0.06184 0.38391 0.61609 0.09400
N 	N 	0.02099 0.41854 0.58146 -0.20700
C 	C 	0.03715 0.76517 0.23483 -0.06900
C 	C 	0.07832 0.78197 0.21803 1.06500
C 	C 	0.03396 0.89032 0.10968 0.04100
H 	H 	0.06184 0.88391 0.11609 0.09400
N 	N 	0.02099 0.91854 0.08146 -0.20700
C 	C 	0.53715 0.26517 0.23483 -0.06900
C 	C 	0.57832 0.28197 0.21803 1.06400
C 	C 	0.53396 0.39032 0.10968 0.04200
H 	H 	0.56184 0.38391 0.11609 0.09400
N 	N 	0.52099 0.41854 0.08146 -0.20900
C 	C 	0.53715 0.76517 0.73483 -0.06900
C 	C 	0.57832 0.78197 0.71803 1.06500
C 	C 	0.53396 0.89032 0.60968 0.04200
H 	H 	0.56184 0.88391 0.61609 0.09400
N 	N 	0.52099 0.91854 0.58146 -0.20900
C 	C 	0.26517 0.96285 0.26517 -0.07200
C 	C 	0.28197 0.92168 0.28197 1.06500
C 	C 	0.39032 0.96604 0.39032 0.03700
H 	H 	0.38391 0.93816 0.38391 0.09500
N 	N 	0.41854 0.97901 0.41854 -0.21000
C 	C 	0.26517 0.46285 0.76517 -0.06900
C 	C 	0.28197 0.42168 0.78197 1.06500
C 	C 	0.39032 0.46604 0.89032 0.04200
H 	H 	0.38391 0.43816 0.88391 0.09400
N 	N 	0.41854 0.47901 0.91854 -0.20900
C 	C 	0.76517 0.96285 0.76517 -0.07200
C 	C 	0.78197 0.92168 0.78197 1.06500
C 	C 	0.89032 0.96604 0.89032 0.03700
H 	H 	0.88391 0.93816 0.88391 0.09500
N 	N 	0.91854 0.97901 0.91854 -0.21000
C 	C 	0.76517 0.46285 0.26517 -0.06900
C 	C 	0.78197 0.42168 0.28197 1.06500
C 	C 	0.89032 0.46604 0.39032 0.04200
H 	H 	0.88391 0.43816 0.38391 0.09400
N 	N 	0.91854 0.47901 0.41854 -0.20900
C 	C 	0.73483 0.96285 0.73483 -0.07200
C 	C 	0.71803 0.92168 0.71803 1.06500
C 	C 	0.60968 0.96604 0.60968 0.03700
H 	H 	0.61609 0.93816 0.61609 0.09500
N 	N 	0.58146 0.97901 0.58146 -0.21000
C 	C 	0.73483 0.46285 0.23483 -0.06900
C 	C 	0.71803 0.42168 0.21803 1.06400
C 	C 	0.60968 0.46604 0.10968 0.04200
H 	H 	0.61609 0.43816 0.11609 0.09400
N 	N 	0.58146 0.47901 0.08146 -0.20900
C 	C 	0.23483 0.96285 0.23483 -0.07200
C 	C 	0.21803 0.92168 0.21803 1.06500
C 	C 	0.10968 0.96604 0.10968 0.03700
H 	H 	0.11609 0.93816 0.11609 0.09500
N 	N 	0.08146 0.97901 0.08146 -0.20900
C 	C 	0.23483 0.46285 0.73483 -0.06900
C 	C 	0.21803 0.42168 0.71803 1.06400
C 	C 	0.10968 0.46604 0.60968 0.04200
H 	H 	0.11609 0.43816 0.61609 0.09400
N 	N 	0.08146 0.47901 0.58146 -0.20900
C 	C 	0.26517 0.03715 0.73483 -0.06900
C 	C 	0.28197 0.07832 0.71803 1.06500
C 	C 	0.39032 0.03396 0.60968 0.04100
H 	H 	0.38391 0.06184 0.61609 0.09400
N 	N 	0.41854 0.02099 0.58146 -0.20700
C 	C 	0.26517 0.53715 0.23483 -0.06900
C 	C 	0.28197 0.57832 0.21803 1.06400
C 	C 	0.39032 0.53396 0.10968 0.04200
H 	H 	0.38391 0.56184 0.11609 0.09400
N 	N 	0.41854 0.52099 0.08146 -0.20900
C 	C 	0.76517 0.03715 0.23483 -0.06900
C 	C 	0.78197 0.07832 0.21803 1.06500
C 	C 	0.89032 0.03396 0.10968 0.04100
H 	H 	0.88391 0.06184 0.11609 0.09400
N 	N 	0.91854 0.02099 0.08146 -0.20700
C 	C 	0.76517 0.53715 0.73483 -0.06900
C 	C 	0.78197 0.57832 0.71803 1.06500
C 	C 	0.89032 0.53396 0.60968 0.04200
H 	H 	0.88391 0.56184 0.61609 0.09400
N 	N 	0.91854 0.52099 0.58146 -0.20900
C 	C 	0.73483 0.03715 0.26517 -0.06900
C 	C 	0.71803 0.07832 0.28197 1.06500
C 	C 	0.60968 0.03396 0.39032 0.04100
H 	H 	0.61609 0.06184 0.38391 0.09400
N 	N 	0.58146 0.02099 0.41854 -0.20700
C 	C 	0.73483 0.53715 0.76517 -0.06900
C 	C 	0.71803 0.57832 0.78197 1.06500
C 	C 	0.60968 0.53396 0.89032 0.04200
H 	H 	0.61609 0.56184 0.88391 0.09400
N 	N 	0.58146 0.52099 0.91854 -0.20900
C 	C 	0.23483 0.03715 0.76517 -0.06900
C 	C 	0.21803 0.07832 0.78197 1.06500
C 	C 	0.10968 0.03396 0.89032 0.04100
H 	H 	0.11609 0.06184 0.88391 0.09400
N 	N 	0.08146 0.02099 0.91854 -0.20700
C 	C 	0.23483 0.53715 0.26517 -0.06900
C 	C 	0.21803 0.57832 0.28197 1.06400
C 	C 	0.10968 0.53396 0.39032 0.04200
H 	H 	0.11609 0.56184 0.38391 0.09400
N 	N 	0.08146 0.52099 0.41854 -0.20900
C 	C 	0.26517 0.26517 0.03715 -0.06900
C 	C 	0.28197 0.28197 0.07832 1.06400
C 	C 	0.39032 0.39032 0.03396 0.04000
H 	H 	0.38391 0.38391 0.06184 0.09400
N 	N 	0.41854 0.41854 0.02099 -0.20700
C 	C 	0.26517 0.76517 0.53715 -0.06900
C 	C 	0.28197 0.78197 0.57832 1.06500
C 	C 	0.39032 0.89032 0.53396 0.04200
H 	H 	0.38391 0.88391 0.56184 0.09400
N 	N 	0.41854 0.91854 0.52099 -0.20900
C 	C 	0.76517 0.26517 0.53715 -0.06900
C 	C 	0.78197 0.28197 0.57832 1.06500
C 	C 	0.89032 0.39032 0.53396 0.04200
H 	H 	0.88391 0.38391 0.56184 0.09400
N 	N 	0.91854 0.41854 0.52099 -0.20900
C 	C 	0.76517 0.76517 0.03715 -0.06900
C 	C 	0.78197 0.78197 0.07832 1.06500
C 	C 	0.89032 0.89032 0.03396 0.04000
H 	H 	0.88391 0.88391 0.06184 0.09400
N 	N 	0.91854 0.91854 0.02099 -0.20800
C 	C 	0.73483 0.73483 0.03715 -0.06900
C 	C 	0.71803 0.71803 0.07832 1.06500
C 	C 	0.60968 0.60968 0.03396 0.04100
H 	H 	0.61609 0.61609 0.06184 0.09400
N 	N 	0.58146 0.58146 0.02099 -0.20700
C 	C 	0.73483 0.23483 0.53715 -0.06900
C 	C 	0.71803 0.21803 0.57832 1.06400
C 	C 	0.60968 0.10968 0.53396 0.04200
H 	H 	0.61609 0.11609 0.56184 0.09400
N 	N 	0.58146 0.08146 0.52099 -0.20900
C 	C 	0.23483 0.73483 0.53715 -0.06900
C 	C 	0.21803 0.71803 0.57832 1.06400
C 	C 	0.10968 0.60968 0.53396 0.04200
H 	H 	0.11609 0.61609 0.56184 0.09400
N 	N 	0.08146 0.58146 0.52099 -0.20900
C 	C 	0.23483 0.23483 0.03715 -0.06900
C 	C 	0.21803 0.21803 0.07832 1.06400
C 	C 	0.10968 0.10968 0.03396 0.04100
H 	H 	0.11609 0.11609 0.06184 0.09400
N 	N 	0.08146 0.08146 0.02099 -0.20700
C 	C 	0.26517 0.73483 0.96285 -0.07200
C 	C 	0.28197 0.71803 0.92168 1.06500
C 	C 	0.39032 0.60968 0.96604 0.03700
H 	H 	0.38391 0.61609 0.93816 0.09500
N 	N 	0.41854 0.58146 0.97901 -0.21000
C 	C 	0.26517 0.23483 0.46285 -0.06900
C 	C 	0.28197 0.21803 0.42168 1.06400
C 	C 	0.39032 0.10968 0.46604 0.04200
H 	H 	0.38391 0.11609 0.43816 0.09400
N 	N 	0.41854 0.08146 0.47901 -0.20900
C 	C 	0.76517 0.73483 0.46285 -0.06900
C 	C 	0.78197 0.71803 0.42168 1.06500
C 	C 	0.89032 0.60968 0.46604 0.04200
H 	H 	0.88391 0.61609 0.43816 0.09400
N 	N 	0.91854 0.58146 0.47901 -0.20900
C 	C 	0.76517 0.23483 0.96285 -0.07200
C 	C 	0.78197 0.21803 0.92168 1.06500
C 	C 	0.89032 0.10968 0.96604 0.03700
H 	H 	0.88391 0.11609 0.93816 0.09500
N 	N 	0.91854 0.08146 0.97901 -0.21000
C 	C 	0.73483 0.26517 0.96285 -0.07200
C 	C 	0.71803 0.28197 0.92168 1.06500
C 	C 	0.60968 0.39032 0.96604 0.03700
H 	H 	0.61609 0.38391 0.93816 0.09500
N 	N 	0.58146 0.41854 0.97901 -0.21000
C 	C 	0.73483 0.76517 0.46285 -0.06900
C 	C 	0.71803 0.78197 0.42168 1.06500
C 	C 	0.60968 0.89032 0.46604 0.04200
H 	H 	0.61609 0.88391 0.43816 0.09400
N 	N 	0.58146 0.91854 0.47901 -0.20900
C 	C 	0.23483 0.26517 0.46285 -0.06900
C 	C 	0.21803 0.28197 0.42168 1.06400
C 	C 	0.10968 0.39032 0.46604 0.04200
H 	H 	0.11609 0.38391 0.43816 0.09400
N 	N 	0.08146 0.41854 0.47901 -0.20900
C 	C 	0.23483 0.76517 0.96285 -0.07200
C 	C 	0.21803 0.78197 0.92168 1.06500
C 	C 	0.10968 0.89032 0.96604 0.03700
H 	H 	0.11609 0.88391 0.93816 0.09500
N 	N 	0.08146 0.91854 0.97901 -0.21000
C 	C 	0.26517 0.96285 0.73483 -0.07200
C 	C 	0.28197 0.92168 0.71803 1.06500
C 	C 	0.39032 0.96604 0.60968 0.03700
H 	H 	0.38391 0.93816 0.61609 0.09500
N 	N 	0.41854 0.97901 0.58146 -0.21000
C 	C 	0.26517 0.46285 0.23483 -0.06900
C 	C 	0.28197 0.42168 0.21803 1.06400
C 	C 	0.39032 0.46604 0.10968 0.04200
H 	H 	0.38391 0.43816 0.11609 0.09400
N 	N 	0.41854 0.47901 0.08146 -0.20900
C 	C 	0.76517 0.96285 0.23483 -0.07200
C 	C 	0.78197 0.92168 0.21803 1.06500
C 	C 	0.89032 0.96604 0.10968 0.03700
H 	H 	0.88391 0.93816 0.11609 0.09500
N 	N 	0.91854 0.97901 0.08146 -0.21000
C 	C 	0.76517 0.46285 0.73483 -0.06900
C 	C 	0.78197 0.42168 0.71803 1.06500
C 	C 	0.89032 0.46604 0.60968 0.04200
H 	H 	0.88391 0.43816 0.61609 0.09400
N 	N 	0.91854 0.47901 0.58146 -0.20900
C 	C 	0.73483 0.96285 0.26517 -0.07200
C 	C 	0.71803 0.92168 0.28197 1.06500
C 	C 	0.60968 0.96604 0.39032 0.03700
H 	H 	0.61609 0.93816 0.38391 0.09500
N 	N 	0.58146 0.97901 0.41854 -0.21000
C 	C 	0.73483 0.46285 0.76517 -0.06900
C 	C 	0.71803 0.42168 0.78197 1.06500
C 	C 	0.60968 0.46604 0.89032 0.04200
H 	H 	0.61609 0.43816 0.88391 0.09400
N 	N 	0.58146 0.47901 0.91854 -0.20900
C 	C 	0.23483 0.96285 0.76517 -0.07200
C 	C 	0.21803 0.92168 0.78197 1.06500
C 	C 	0.10968 0.96604 0.89032 0.03700
H 	H 	0.11609 0.93816 0.88391 0.09500
N 	N 	0.08146 0.97901 0.91854 -0.21000
C 	C 	0.23483 0.46285 0.26517 -0.06900
C 	C 	0.21803 0.42168 0.28197 1.06400
C 	C 	0.10968 0.46604 0.39032 0.04200
H 	H 	0.11609 0.43816 0.38391 0.09400
N 	N 	0.08146 0.47901 0.41854 -0.20900
C 	C 	0.73483 0.03715 0.73483 -0.06900
C 	C 	0.71803 0.07832 0.71803 1.06500
C 	C 	0.60968 0.03396 0.60968 0.04100
H 	H 	0.61609 0.06184 0.61609 0.09400
N 	N 	0.58146 0.02099 0.58146 -0.20700
C 	C 	0.73483 0.53715 0.23483 -0.06900
C 	C 	0.71803 0.57832 0.21803 1.06400
C 	C 	0.60968 0.53396 0.10968 0.04200
H 	H 	0.61609 0.56184 0.11609 0.09400
N 	N 	0.58146 0.52099 0.08146 -0.20900
C 	C 	0.23483 0.03715 0.23483 -0.06900
C 	C 	0.21803 0.07832 0.21803 1.06400
C 	C 	0.10968 0.03396 0.10968 0.04100
H 	H 	0.11609 0.06184 0.11609 0.09400
N 	N 	0.08146 0.02099 0.08146 -0.20700
C 	C 	0.23483 0.53715 0.73483 -0.06900
C 	C 	0.21803 0.57832 0.71803 1.06400
C 	C 	0.10968 0.53396 0.60968 0.04200
H 	H 	0.11609 0.56184 0.61609 0.09400
N 	N 	0.08146 0.52099 0.58146 -0.20900
C 	C 	0.26517 0.03715 0.26517 -0.06900
C 	C 	0.28197 0.07832 0.28197 1.06400
C 	C 	0.39032 0.03396 0.39032 0.04000
H 	H 	0.38391 0.06184 0.38391 0.09400
N 	N 	0.41854 0.02099 0.41854 -0.20700
C 	C 	0.26517 0.53715 0.76517 -0.06900
C 	C 	0.28197 0.57832 0.78197 1.06500
C 	C 	0.39032 0.53396 0.89032 0.04200
H 	H 	0.38391 0.56184 0.88391 0.09400
N 	N 	0.41854 0.52099 0.91854 -0.20900
C 	C 	0.76517 0.03715 0.76517 -0.06900
C 	C 	0.78197 0.07832 0.78197 1.06500
C 	C 	0.89032 0.03396 0.89032 0.04000
H 	H 	0.88391 0.06184 0.88391 0.09400
N 	N 	0.91854 0.02099 0.91854 -0.20800
C 	C 	0.76517 0.53715 0.26517 -0.06900
C 	C 	0.78197 0.57832 0.28197 1.06500
C 	C 	0.89032 0.53396 0.39032 0.04200
H 	H 	0.88391 0.56184 0.38391 0.09400
N 	N 	0.91854 0.52099 0.41854 -0.20900
C 	C 	0.96285 0.26517 0.73483 -0.07200
C 	C 	0.92168 0.28197 0.71803 1.06500
C 	C 	0.96604 0.39032 0.60968 0.03700
H 	H 	0.93816 0.38391 0.61609 0.09500
N 	N 	0.97901 0.41854 0.58146 -0.21000
C 	C 	0.96285 0.76517 0.23483 -0.07200
C 	C 	0.92168 0.78197 0.21803 1.06500
C 	C 	0.96604 0.89032 0.10968 0.03700
H 	H 	0.93816 0.88391 0.11609 0.09500
N 	N 	0.97901 0.91854 0.08146 -0.21000
C 	C 	0.46285 0.26517 0.23483 -0.06900
C 	C 	0.42168 0.28197 0.21803 1.06400
C 	C 	0.46604 0.39032 0.10968 0.04200
H 	H 	0.43816 0.38391 0.11609 0.09400
N 	N 	0.47901 0.41854 0.08146 -0.20900
C 	C 	0.46285 0.76517 0.73483 -0.06900
C 	C 	0.42168 0.78197 0.71803 1.06500
C 	C 	0.46604 0.89032 0.60968 0.04200
H 	H 	0.43816 0.88391 0.61609 0.09400
N 	N 	0.47901 0.91854 0.58146 -0.20900
C 	C 	0.96285 0.73483 0.26517 -0.07200
C 	C 	0.92168 0.71803 0.28197 1.06500
C 	C 	0.96604 0.60968 0.39032 0.03700
H 	H 	0.93816 0.61609 0.38391 0.09500
N 	N 	0.97901 0.58146 0.41854 -0.21000
C 	C 	0.96285 0.23483 0.76517 -0.07200
C 	C 	0.92168 0.21803 0.78197 1.06500
C 	C 	0.96604 0.10968 0.89032 0.03700
H 	H 	0.93816 0.11609 0.88391 0.09500
N 	N 	0.97901 0.08146 0.91854 -0.21000
C 	C 	0.46285 0.73483 0.76517 -0.06900
C 	C 	0.42168 0.71803 0.78197 1.06500
C 	C 	0.46604 0.60968 0.89032 0.04200
H 	H 	0.43816 0.61609 0.88391 0.09400
N 	N 	0.47901 0.58146 0.91854 -0.20900
C 	C 	0.46285 0.23483 0.26517 -0.06900
C 	C 	0.42168 0.21803 0.28197 1.06400
C 	C 	0.46604 0.10968 0.39032 0.04200
H 	H 	0.43816 0.11609 0.38391 0.09400
N 	N 	0.47901 0.08146 0.41854 -0.20900
C 	C 	0.03715 0.26517 0.26517 -0.06900
C 	C 	0.07832 0.28197 0.28197 1.06400
C 	C 	0.03396 0.39032 0.39032 0.04000
H 	H 	0.06184 0.38391 0.38391 0.09400
N 	N 	0.02099 0.41854 0.41854 -0.20700
C 	C 	0.03715 0.76517 0.76517 -0.06900
C 	C 	0.07832 0.78197 0.78197 1.06500
C 	C 	0.03396 0.89032 0.89032 0.04000
H 	H 	0.06184 0.88391 0.88391 0.09400
N 	N 	0.02099 0.91854 0.91854 -0.20800
C 	C 	0.53715 0.26517 0.76517 -0.06900
C 	C 	0.57832 0.28197 0.78197 1.06500
C 	C 	0.53396 0.39032 0.89032 0.04200
H 	H 	0.56184 0.38391 0.88391 0.09400
N 	N 	0.52099 0.41854 0.91854 -0.20900
C 	C 	0.53715 0.76517 0.26517 -0.06900
C 	C 	0.57832 0.78197 0.28197 1.06500
C 	C 	0.53396 0.89032 0.39032 0.04200
H 	H 	0.56184 0.88391 0.38391 0.09400
N 	N 	0.52099 0.91854 0.41854 -0.20900
C 	C 	0.03715 0.73483 0.73483 -0.06900
C 	C 	0.07832 0.71803 0.71803 1.06500
C 	C 	0.03396 0.60968 0.60968 0.04100
H 	H 	0.06184 0.61609 0.61609 0.09400
N 	N 	0.02099 0.58146 0.58146 -0.20700
C 	C 	0.03715 0.23483 0.23483 -0.06900
C 	C 	0.07832 0.21803 0.21803 1.06400
C 	C 	0.03396 0.10968 0.10968 0.04100
H 	H 	0.06184 0.11609 0.11609 0.09400
N 	N 	0.02099 0.08146 0.08146 -0.20700
C 	C 	0.53715 0.73483 0.23483 -0.06900
C 	C 	0.57832 0.71803 0.21803 1.06400
C 	C 	0.53396 0.60968 0.10968 0.04200
H 	H 	0.56184 0.61609 0.11609 0.09400
N 	N 	0.52099 0.58146 0.08146 -0.20900
C 	C 	0.53715 0.23483 0.73483 -0.06900
C 	C 	0.57832 0.21803 0.71803 1.06400
C 	C 	0.53396 0.10968 0.60968 0.04200
H 	H 	0.56184 0.11609 0.61609 0.09400
N 	N 	0.52099 0.08146 0.58146 -0.20900
