data_crystal

_cell_length_a 23.18530
_cell_length_b 23.18530
_cell_length_c 23.18530
_cell_angle_alpha 90.00000
_cell_angle_beta  90.00000
_cell_angle_gamma 90.00000

_symmetry_space_group_name_	'P 1'
_symmetry_space_group_name_H-M	'P 1'

loop_
_symmetry_equiv_pos_as_xyz
  x,y,z

loop_
_atom_site_label
_atom_site_type_symbol
_atom_site_fract_x
_atom_site_fract_y
_atom_site_fract_z
_atom_site_charge
Ni	Ni	0.06388 0.06388 0.06388 1.07800
Ni	Ni	0.06388 0.56388 0.56388 1.07800
Ni	Ni	0.56388 0.06388 0.56388 1.07800
Ni	Ni	0.56388 0.56388 0.06388 1.07800
Ni	Ni	0.93612 0.93612 0.06388 1.07800
Ni	Ni	0.93612 0.43612 0.56388 1.07800
Ni	Ni	0.43612 0.93612 0.56388 1.07800
Ni	Ni	0.43612 0.43612 0.06388 1.07800
Ni	Ni	0.93612 0.06388 0.93612 1.07800
Ni	Ni	0.93612 0.56388 0.43612 1.07800
Ni	Ni	0.43612 0.06388 0.43612 1.07800
Ni	Ni	0.43612 0.56388 0.93612 1.07700
Ni	Ni	0.06388 0.93612 0.93612 1.07700
Ni	Ni	0.06388 0.43612 0.43612 1.07700
Ni	Ni	0.56388 0.93612 0.43612 1.07700
Ni	Ni	0.56388 0.43612 0.93612 1.07700
Ni	Ni	0.06388 0.06388 0.93612 1.07700
Ni	Ni	0.06388 0.56388 0.43612 1.07700
Ni	Ni	0.56388 0.06388 0.43612 1.07700
Ni	Ni	0.56388 0.56388 0.93612 1.07700
Ni	Ni	0.93612 0.93612 0.93612 1.07800
Ni	Ni	0.93612 0.43612 0.43612 1.07700
Ni	Ni	0.43612 0.93612 0.43612 1.07700
Ni	Ni	0.43612 0.43612 0.93612 1.07700
Ni	Ni	0.06388 0.93612 0.06388 1.07700
Ni	Ni	0.06388 0.43612 0.56388 1.07700
Ni	Ni	0.56388 0.93612 0.56388 1.07700
Ni	Ni	0.56388 0.43612 0.06388 1.07700
Ni	Ni	0.93612 0.06388 0.06388 1.07700
Ni	Ni	0.93612 0.56388 0.56388 1.07700
Ni	Ni	0.43612 0.06388 0.56388 1.07700
Ni	Ni	0.43612 0.56388 0.06388 1.07700
O 	O 	0.09290 0.00000 -0.00000 -0.81700
H 	H 	0.13000 0.00000 -0.00000 0.25800
O 	O 	0.09290 0.50000 0.50000 -0.81600
H 	H 	0.13000 0.50000 0.50000 0.25900
O 	O 	0.59290 -0.00000 0.50000 -0.81700
H 	H 	0.63000 -0.00000 0.50000 0.25800
O 	O 	0.59290 0.50000 -0.00000 -0.81700
H 	H 	0.63000 0.50000 -0.00000 0.25800
O 	O 	0.90710 0.00000 -0.00000 -0.81700
H 	H 	0.87000 0.00000 -0.00000 0.25800
O 	O 	0.90710 0.50000 0.50000 -0.81500
H 	H 	0.87000 0.50000 0.50000 0.25800
O 	O 	0.40710 -0.00000 0.50000 -0.81700
H 	H 	0.37000 -0.00000 0.50000 0.25800
O 	O 	0.40710 0.50000 -0.00000 -0.81700
H 	H 	0.37000 0.50000 -0.00000 0.25800
O 	O 	-0.00000 0.09290 -0.00000 -0.81700
H 	H 	-0.00000 0.13000 -0.00000 0.25800
O 	O 	-0.00000 0.59290 0.50000 -0.81700
H 	H 	-0.00000 0.63000 0.50000 0.25800
O 	O 	0.50000 0.09290 0.50000 -0.81600
H 	H 	0.50000 0.13000 0.50000 0.25900
O 	O 	0.50000 0.59290 -0.00000 -0.81700
H 	H 	0.50000 0.63000 -0.00000 0.25800
O 	O 	-0.00000 0.90710 -0.00000 -0.81700
H 	H 	-0.00000 0.87000 -0.00000 0.25800
O 	O 	-0.00000 0.40710 0.50000 -0.81700
H 	H 	-0.00000 0.37000 0.50000 0.25800
O 	O 	0.50000 0.90710 0.50000 -0.81500
H 	H 	0.50000 0.87000 0.50000 0.25800
O 	O 	0.50000 0.40710 -0.00000 -0.81700
H 	H 	0.50000 0.37000 -0.00000 0.25800
O 	O 	0.00000 0.00000 0.09290 -0.81700
H 	H 	0.00000 0.00000 0.13000 0.25800
O 	O 	-0.00000 0.50000 0.59290 -0.81700
H 	H 	-0.00000 0.50000 0.63000 0.25800
O 	O 	0.50000 0.00000 0.59290 -0.81700
H 	H 	0.50000 0.00000 0.63000 0.25800
O 	O 	0.50000 0.50000 0.09290 -0.81600
H 	H 	0.50000 0.50000 0.13000 0.25900
O 	O 	0.00000 0.00000 0.90710 -0.81700
H 	H 	0.00000 0.00000 0.87000 0.25800
O 	O 	-0.00000 0.50000 0.40710 -0.81700
H 	H 	-0.00000 0.50000 0.37000 0.25800
O 	O 	0.50000 -0.00000 0.40710 -0.81700
H 	H 	0.50000 -0.00000 0.37000 0.25800
O 	O 	0.50000 0.50000 0.90710 -0.81500
H 	H 	0.50000 0.50000 0.87000 0.25800
C 	C 	0.26712 0.26712 -0.00000 0.15700
C 	C 	0.18234 0.18234 -0.00000 0.13700
C 	C 	0.13811 0.13811 -0.00000 0.47400
C 	C 	0.31134 0.31134 -0.00000 -0.18900
C 	C 	0.26712 0.76712 0.50000 0.15900
C 	C 	0.18234 0.68234 0.50000 0.13800
C 	C 	0.13811 0.63811 0.50000 0.47400
C 	C 	0.31134 0.81134 0.50000 -0.18700
C 	C 	0.76712 0.26712 0.50000 0.15900
C 	C 	0.68234 0.18234 0.50000 0.13800
C 	C 	0.63811 0.13811 0.50000 0.47400
C 	C 	0.81134 0.31134 0.50000 -0.18700
C 	C 	0.76712 0.76712 -0.00000 0.15600
C 	C 	0.68234 0.68234 -0.00000 0.13600
C 	C 	0.63811 0.63811 -0.00000 0.47300
C 	C 	0.81134 0.81134 -0.00000 -0.19000
C 	C 	0.73288 0.73288 -0.00000 0.15600
C 	C 	0.81766 0.81766 -0.00000 0.13600
C 	C 	0.86189 0.86189 -0.00000 0.47400
C 	C 	0.68866 0.68866 -0.00000 -0.19000
C 	C 	0.73288 0.23288 0.50000 0.15900
C 	C 	0.81766 0.31766 0.50000 0.13800
C 	C 	0.86189 0.36189 0.50000 0.47400
C 	C 	0.68866 0.18866 0.50000 -0.18700
C 	C 	0.23288 0.73288 0.50000 0.15900
C 	C 	0.31766 0.81766 0.50000 0.13800
C 	C 	0.36189 0.86189 0.50000 0.47400
C 	C 	0.18866 0.68866 0.50000 -0.18700
C 	C 	0.23288 0.23288 -0.00000 0.15800
C 	C 	0.31766 0.31766 -0.00000 0.13700
C 	C 	0.36189 0.36189 -0.00000 0.47400
C 	C 	0.18866 0.18866 -0.00000 -0.18900
C 	C 	0.73288 0.26712 -0.00000 0.15600
C 	C 	0.81766 0.18234 -0.00000 0.13600
C 	C 	0.86189 0.13811 -0.00000 0.47400
C 	C 	0.68866 0.31134 -0.00000 -0.18900
C 	C 	0.73288 0.76712 0.50000 0.15900
C 	C 	0.81766 0.68234 0.50000 0.13800
C 	C 	0.86189 0.63811 0.50000 0.47400
C 	C 	0.68866 0.81134 0.50000 -0.18700
C 	C 	0.23288 0.26712 0.50000 0.15900
C 	C 	0.31766 0.18234 0.50000 0.13800
C 	C 	0.36189 0.13811 0.50000 0.47400
C 	C 	0.18866 0.31134 0.50000 -0.18700
C 	C 	0.23288 0.76712 -0.00000 0.15700
C 	C 	0.31766 0.68234 -0.00000 0.13600
C 	C 	0.36189 0.63811 -0.00000 0.47300
C 	C 	0.18866 0.81134 -0.00000 -0.18900
C 	C 	0.26712 0.73288 -0.00000 0.15600
C 	C 	0.18234 0.81766 -0.00000 0.13600
C 	C 	0.13811 0.86189 -0.00000 0.47400
C 	C 	0.31134 0.68866 -0.00000 -0.18900
C 	C 	0.26712 0.23288 0.50000 0.15900
C 	C 	0.18234 0.31766 0.50000 0.13800
C 	C 	0.13811 0.36189 0.50000 0.47400
C 	C 	0.31134 0.18866 0.50000 -0.18700
C 	C 	0.76712 0.73288 0.50000 0.15900
C 	C 	0.68234 0.81766 0.50000 0.13800
C 	C 	0.63811 0.86189 0.50000 0.47400
C 	C 	0.81134 0.68866 0.50000 -0.18700
C 	C 	0.76712 0.23288 -0.00000 0.15700
C 	C 	0.68234 0.31766 -0.00000 0.13600
C 	C 	0.63811 0.36189 -0.00000 0.47300
C 	C 	0.81134 0.18866 -0.00000 -0.18900
C 	C 	-0.00000 0.26712 0.26712 0.15700
C 	C 	0.00000 0.18234 0.18234 0.13700
C 	C 	-0.00000 0.13811 0.13811 0.47400
C 	C 	0.00000 0.31134 0.31134 -0.18900
C 	C 	0.00000 0.76712 0.76712 0.15600
C 	C 	-0.00000 0.68234 0.68234 0.13600
C 	C 	-0.00000 0.63811 0.63811 0.47300
C 	C 	0.00000 0.81134 0.81134 -0.19000
C 	C 	0.50000 0.26712 0.76712 0.15900
C 	C 	0.50000 0.18234 0.68234 0.13800
C 	C 	0.50000 0.13811 0.63811 0.47400
C 	C 	0.50000 0.31134 0.81134 -0.18700
C 	C 	0.50000 0.76712 0.26712 0.15900
C 	C 	0.50000 0.68234 0.18234 0.13800
C 	C 	0.50000 0.63811 0.13811 0.47400
C 	C 	0.50000 0.81134 0.31134 -0.18700
C 	C 	0.00000 0.73288 0.73288 0.15600
C 	C 	-0.00000 0.81766 0.81766 0.13600
C 	C 	0.00000 0.86189 0.86189 0.47400
C 	C 	0.00000 0.68866 0.68866 -0.19000
C 	C 	0.00000 0.23288 0.23288 0.15800
C 	C 	-0.00000 0.31766 0.31766 0.13700
C 	C 	0.00000 0.36189 0.36189 0.47400
C 	C 	0.00000 0.18866 0.18866 -0.18900
C 	C 	0.50000 0.73288 0.23288 0.15900
C 	C 	0.50000 0.81766 0.31766 0.13800
C 	C 	0.50000 0.86189 0.36189 0.47400
C 	C 	0.50000 0.68866 0.18866 -0.18700
C 	C 	0.50000 0.23288 0.73288 0.15900
C 	C 	0.50000 0.31766 0.81766 0.13800
C 	C 	0.50000 0.36189 0.86189 0.47400
C 	C 	0.50000 0.18866 0.68866 -0.18700
C 	C 	-0.00000 0.73288 0.26712 0.15600
C 	C 	-0.00000 0.81766 0.18234 0.13600
C 	C 	-0.00000 0.86189 0.13811 0.47400
C 	C 	0.00000 0.68866 0.31134 -0.18900
C 	C 	-0.00000 0.23288 0.76712 0.15700
C 	C 	0.00000 0.31766 0.68234 0.13600
C 	C 	-0.00000 0.36189 0.63811 0.47300
C 	C 	-0.00000 0.18866 0.81134 -0.18900
C 	C 	0.50000 0.73288 0.76712 0.15900
C 	C 	0.50000 0.81766 0.68234 0.13800
C 	C 	0.50000 0.86189 0.63811 0.47400
C 	C 	0.50000 0.68866 0.81134 -0.18700
C 	C 	0.50000 0.23288 0.26712 0.15900
C 	C 	0.50000 0.31766 0.18234 0.13800
C 	C 	0.50000 0.36189 0.13811 0.47400
C 	C 	0.50000 0.18866 0.31134 -0.18700
C 	C 	-0.00000 0.26712 0.73288 0.15600
C 	C 	-0.00000 0.18234 0.81766 0.13600
C 	C 	0.00000 0.13811 0.86189 0.47400
C 	C 	-0.00000 0.31134 0.68866 -0.18900
C 	C 	-0.00000 0.76712 0.23288 0.15700
C 	C 	-0.00000 0.68234 0.31766 0.13600
C 	C 	-0.00000 0.63811 0.36189 0.47300
C 	C 	-0.00000 0.81134 0.18866 -0.18900
C 	C 	0.50000 0.26712 0.23288 0.15900
C 	C 	0.50000 0.18234 0.31766 0.13800
C 	C 	0.50000 0.13811 0.36189 0.47400
C 	C 	0.50000 0.31134 0.18866 -0.18700
C 	C 	0.50000 0.76712 0.73288 0.15900
C 	C 	0.50000 0.68234 0.81766 0.13800
C 	C 	0.50000 0.63811 0.86189 0.47400
C 	C 	0.50000 0.81134 0.68866 -0.18700
C 	C 	0.26712 -0.00000 0.26712 0.15700
C 	C 	0.18234 0.00000 0.18234 0.13700
C 	C 	0.13811 -0.00000 0.13811 0.47400
C 	C 	0.31134 0.00000 0.31134 -0.18900
C 	C 	0.26712 0.50000 0.76712 0.15900
C 	C 	0.18234 0.50000 0.68234 0.13800
C 	C 	0.13811 0.50000 0.63811 0.47400
C 	C 	0.31134 0.50000 0.81134 -0.18700
C 	C 	0.76712 0.00000 0.76712 0.15600
C 	C 	0.68234 0.00000 0.68234 0.13600
C 	C 	0.63811 -0.00000 0.63811 0.47300
C 	C 	0.81134 0.00000 0.81134 -0.19000
C 	C 	0.76712 0.50000 0.26712 0.15900
C 	C 	0.68234 0.50000 0.18234 0.13800
C 	C 	0.63811 0.50000 0.13811 0.47400
C 	C 	0.81134 0.50000 0.31134 -0.18700
C 	C 	0.73288 0.00000 0.73288 0.15600
C 	C 	0.81766 -0.00000 0.81766 0.13600
C 	C 	0.86189 0.00000 0.86189 0.47400
C 	C 	0.68866 0.00000 0.68866 -0.19000
C 	C 	0.73288 0.50000 0.23288 0.15900
C 	C 	0.81766 0.50000 0.31766 0.13800
C 	C 	0.86189 0.50000 0.36189 0.47400
C 	C 	0.68866 0.50000 0.18866 -0.18700
C 	C 	0.23288 0.00000 0.23288 0.15800
C 	C 	0.31766 -0.00000 0.31766 0.13700
C 	C 	0.36189 0.00000 0.36189 0.47400
C 	C 	0.18866 0.00000 0.18866 -0.18900
C 	C 	0.23288 0.50000 0.73288 0.15900
C 	C 	0.31766 0.50000 0.81766 0.13800
C 	C 	0.36189 0.50000 0.86189 0.47400
C 	C 	0.18866 0.50000 0.68866 -0.18700
C 	C 	0.26712 0.00000 0.73288 0.15600
C 	C 	0.18234 -0.00000 0.81766 0.13600
C 	C 	0.13811 0.00000 0.86189 0.47400
C 	C 	0.31134 0.00000 0.68866 -0.18900
C 	C 	0.26712 0.50000 0.23288 0.15900
C 	C 	0.18234 0.50000 0.31766 0.13800
C 	C 	0.13811 0.50000 0.36189 0.47400
C 	C 	0.31134 0.50000 0.18866 -0.18700
C 	C 	0.76712 0.00000 0.23288 0.15700
C 	C 	0.68234 -0.00000 0.31766 0.13600
C 	C 	0.63811 0.00000 0.36189 0.47300
C 	C 	0.81134 0.00000 0.18866 -0.18900
C 	C 	0.76712 0.50000 0.73288 0.15900
C 	C 	0.68234 0.50000 0.81766 0.13800
C 	C 	0.63811 0.50000 0.86189 0.47400
C 	C 	0.81134 0.50000 0.68866 -0.18700
C 	C 	0.73288 -0.00000 0.26712 0.15600
C 	C 	0.81766 0.00000 0.18234 0.13600
C 	C 	0.86189 -0.00000 0.13811 0.47400
C 	C 	0.68866 0.00000 0.31134 -0.18900
C 	C 	0.73288 0.50000 0.76712 0.15900
C 	C 	0.81766 0.50000 0.68234 0.13800
C 	C 	0.86189 0.50000 0.63811 0.47400
C 	C 	0.68866 0.50000 0.81134 -0.18700
C 	C 	0.23288 0.00000 0.76712 0.15700
C 	C 	0.31766 0.00000 0.68234 0.13600
C 	C 	0.36189 -0.00000 0.63811 0.47300
C 	C 	0.18866 0.00000 0.81134 -0.18900
C 	C 	0.23288 0.50000 0.26712 0.15900
C 	C 	0.31766 0.50000 0.18234 0.13800
C 	C 	0.36189 0.50000 0.13811 0.47400
C 	C 	0.18866 0.50000 0.31134 -0.18700
C 	C 	0.24592 0.24592 0.94808 0.02000
H 	H 	0.26041 0.26041 0.91260 0.02000
C 	C 	0.20353 0.20353 0.94808 -0.45700
H 	H 	0.18904 0.18904 0.91260 0.59300
O 	O 	0.11905 0.11905 0.95331 -0.16500
C 	C 	0.33572 0.33572 0.95255 0.30100
H 	H 	0.32677 0.32677 0.91358 -0.50700
N 	N 	0.37517 0.37517 0.97067 -0.31200
C 	C 	0.24592 0.74592 0.44808 0.01900
H 	H 	0.26041 0.76041 0.41260 0.02100
C 	C 	0.20353 0.70353 0.44808 -0.45900
H 	H 	0.18904 0.68904 0.41260 0.59400
O 	O 	0.11905 0.61905 0.45331 -0.16800
C 	C 	0.33572 0.83572 0.45255 0.29900
H 	H 	0.32677 0.82677 0.41358 -0.50700
N 	N 	0.37517 0.87517 0.47067 -0.31000
C 	C 	0.74592 0.24592 0.44808 0.01900
H 	H 	0.76041 0.26041 0.41260 0.02100
C 	C 	0.70353 0.20353 0.44808 -0.45900
H 	H 	0.68904 0.18904 0.41260 0.59400
O 	O 	0.61905 0.11905 0.45331 -0.16800
C 	C 	0.83572 0.33572 0.45255 0.29900
H 	H 	0.82677 0.32677 0.41358 -0.50700
N 	N 	0.87517 0.37517 0.47067 -0.31000
C 	C 	0.74592 0.74592 0.94808 0.02000
H 	H 	0.76041 0.76041 0.91260 0.02000
C 	C 	0.70353 0.70353 0.94808 -0.45500
H 	H 	0.68904 0.68904 0.91260 0.59200
O 	O 	0.61905 0.61905 0.95331 -0.16200
C 	C 	0.83572 0.83572 0.95255 0.30200
H 	H 	0.82677 0.82677 0.91358 -0.50600
N 	N 	0.87517 0.87517 0.97067 -0.31400
C 	C 	0.75408 0.75408 0.94808 0.02000
H 	H 	0.73959 0.73959 0.91260 0.02000
C 	C 	0.79647 0.79647 0.94808 -0.45300
H 	H 	0.81096 0.81096 0.91260 0.59100
O 	O 	0.88095 0.88095 0.95331 -0.16100
C 	C 	0.66428 0.66428 0.95255 0.30200
H 	H 	0.67323 0.67323 0.91358 -0.50700
N 	N 	0.62483 0.62483 0.97067 -0.31300
C 	C 	0.75408 0.25408 0.44808 0.01900
H 	H 	0.73959 0.23959 0.41260 0.02100
C 	C 	0.79647 0.29647 0.44808 -0.45900
H 	H 	0.81096 0.31096 0.41260 0.59300
O 	O 	0.88095 0.38095 0.45331 -0.16800
C 	C 	0.66428 0.16428 0.45255 0.29900
H 	H 	0.67323 0.17323 0.41358 -0.50700
N 	N 	0.62483 0.12483 0.47067 -0.31000
C 	C 	0.25408 0.75408 0.44808 0.01900
H 	H 	0.23959 0.73959 0.41260 0.02100
C 	C 	0.29647 0.79647 0.44808 -0.45900
H 	H 	0.31096 0.81096 0.41260 0.59300
O 	O 	0.38095 0.88095 0.45331 -0.16800
C 	C 	0.16428 0.66428 0.45255 0.29900
H 	H 	0.17323 0.67323 0.41358 -0.50700
N 	N 	0.12483 0.62483 0.47067 -0.31000
C 	C 	0.25408 0.25408 0.94808 0.02000
H 	H 	0.23959 0.23959 0.91260 0.02000
C 	C 	0.29647 0.29647 0.94808 -0.45600
H 	H 	0.31096 0.31096 0.91260 0.59200
O 	O 	0.38095 0.38095 0.95331 -0.16400
C 	C 	0.16428 0.16428 0.95255 0.30000
H 	H 	0.17323 0.17323 0.91358 -0.50700
N 	N 	0.12483 0.12483 0.97067 -0.31200
C 	C 	0.75408 0.24592 0.05192 0.01900
H 	H 	0.73959 0.26041 0.08740 0.02000
C 	C 	0.79647 0.20353 0.05192 -0.45800
H 	H 	0.81096 0.18904 0.08740 0.59400
O 	O 	0.88095 0.11905 0.04669 -0.16700
C 	C 	0.66428 0.33572 0.04745 0.30000
H 	H 	0.67323 0.32677 0.08642 -0.50800
N 	N 	0.62483 0.37517 0.02933 -0.31100
C 	C 	0.75408 0.74592 0.55192 0.01900
H 	H 	0.73959 0.76041 0.58740 0.02100
C 	C 	0.79647 0.70353 0.55192 -0.45900
H 	H 	0.81096 0.68904 0.58740 0.59300
O 	O 	0.88095 0.61905 0.54669 -0.16800
C 	C 	0.66428 0.83572 0.54745 0.29900
H 	H 	0.67323 0.82677 0.58642 -0.50700
N 	N 	0.62483 0.87517 0.52933 -0.31000
C 	C 	0.25408 0.24592 0.55192 0.01900
H 	H 	0.23959 0.26041 0.58740 0.02100
C 	C 	0.29647 0.20353 0.55192 -0.45900
H 	H 	0.31096 0.18904 0.58740 0.59400
O 	O 	0.38095 0.11905 0.54669 -0.16800
C 	C 	0.16428 0.33572 0.54745 0.29900
H 	H 	0.17323 0.32677 0.58642 -0.50700
N 	N 	0.12483 0.37517 0.52933 -0.31000
C 	C 	0.25408 0.74592 0.05192 0.01900
H 	H 	0.23959 0.76041 0.08740 0.02000
C 	C 	0.29647 0.70353 0.05192 -0.45800
H 	H 	0.31096 0.68904 0.08740 0.59300
O 	O 	0.38095 0.61905 0.04669 -0.16600
C 	C 	0.16428 0.83572 0.04745 0.30000
H 	H 	0.17323 0.82677 0.08642 -0.50800
N 	N 	0.12483 0.87517 0.02933 -0.31100
C 	C 	0.24592 0.75408 0.05192 0.01900
H 	H 	0.26041 0.73959 0.08740 0.02000
C 	C 	0.20353 0.79647 0.05192 -0.45800
H 	H 	0.18904 0.81096 0.08740 0.59400
O 	O 	0.11905 0.88095 0.04669 -0.16700
C 	C 	0.33572 0.66428 0.04745 0.30000
H 	H 	0.32677 0.67323 0.08642 -0.50800
N 	N 	0.37517 0.62483 0.02933 -0.31100
C 	C 	0.24592 0.25408 0.55192 0.01900
H 	H 	0.26041 0.23959 0.58740 0.02100
C 	C 	0.20353 0.29647 0.55192 -0.45900
H 	H 	0.18904 0.31096 0.58740 0.59400
O 	O 	0.11905 0.38095 0.54669 -0.16800
C 	C 	0.33572 0.16428 0.54745 0.29900
H 	H 	0.32677 0.17323 0.58642 -0.50700
N 	N 	0.37517 0.12483 0.52933 -0.31000
C 	C 	0.74592 0.75408 0.55192 0.01900
H 	H 	0.76041 0.73959 0.58740 0.02100
C 	C 	0.70353 0.79647 0.55192 -0.45900
H 	H 	0.68904 0.81096 0.58740 0.59300
O 	O 	0.61905 0.88095 0.54669 -0.16800
C 	C 	0.83572 0.66428 0.54745 0.29900
H 	H 	0.82677 0.67323 0.58642 -0.50700
N 	N 	0.87517 0.62483 0.52933 -0.31000
C 	C 	0.74592 0.25408 0.05192 0.01900
H 	H 	0.76041 0.23959 0.08740 0.02000
C 	C 	0.70353 0.29647 0.05192 -0.45800
H 	H 	0.68904 0.31096 0.08740 0.59300
O 	O 	0.61905 0.38095 0.04669 -0.16600
C 	C 	0.83572 0.16428 0.04745 0.30000
H 	H 	0.82677 0.17323 0.08642 -0.50800
N 	N 	0.87517 0.12483 0.02933 -0.31100
C 	C 	0.94808 0.24592 0.24592 0.02000
H 	H 	0.91260 0.26041 0.26041 0.02000
C 	C 	0.94808 0.20353 0.20353 -0.45700
H 	H 	0.91260 0.18904 0.18904 0.59300
O 	O 	0.95331 0.11905 0.11905 -0.16500
C 	C 	0.95255 0.33572 0.33572 0.30100
H 	H 	0.91358 0.32677 0.32677 -0.50700
N 	N 	0.97067 0.37517 0.37517 -0.31200
C 	C 	0.94808 0.74592 0.74592 0.02000
H 	H 	0.91260 0.76041 0.76041 0.02000
C 	C 	0.94808 0.70353 0.70353 -0.45500
H 	H 	0.91260 0.68904 0.68904 0.59200
O 	O 	0.95331 0.61905 0.61905 -0.16200
C 	C 	0.95255 0.83572 0.83572 0.30200
H 	H 	0.91358 0.82677 0.82677 -0.50600
N 	N 	0.97067 0.87517 0.87517 -0.31400
C 	C 	0.44808 0.24592 0.74592 0.01900
H 	H 	0.41260 0.26041 0.76041 0.02100
C 	C 	0.44808 0.20353 0.70353 -0.45900
H 	H 	0.41260 0.18904 0.68904 0.59400
O 	O 	0.45331 0.11905 0.61905 -0.16800
C 	C 	0.45255 0.33572 0.83572 0.29900
H 	H 	0.41358 0.32677 0.82677 -0.50700
N 	N 	0.47067 0.37517 0.87517 -0.31000
C 	C 	0.44808 0.74592 0.24592 0.01900
H 	H 	0.41260 0.76041 0.26041 0.02100
C 	C 	0.44808 0.70353 0.20353 -0.45900
H 	H 	0.41260 0.68904 0.18904 0.59400
O 	O 	0.45331 0.61905 0.11905 -0.16800
C 	C 	0.45255 0.83572 0.33572 0.29900
H 	H 	0.41358 0.82677 0.32677 -0.50700
N 	N 	0.47067 0.87517 0.37517 -0.31000
C 	C 	0.94808 0.75408 0.75408 0.02000
H 	H 	0.91260 0.73959 0.73959 0.02000
C 	C 	0.94808 0.79647 0.79647 -0.45300
H 	H 	0.91260 0.81096 0.81096 0.59100
O 	O 	0.95331 0.88095 0.88095 -0.16100
C 	C 	0.95255 0.66428 0.66428 0.30200
H 	H 	0.91358 0.67323 0.67323 -0.50700
N 	N 	0.97067 0.62483 0.62483 -0.31300
C 	C 	0.94808 0.25408 0.25408 0.02000
H 	H 	0.91260 0.23959 0.23959 0.02000
C 	C 	0.94808 0.29647 0.29647 -0.45600
H 	H 	0.91260 0.31096 0.31096 0.59200
O 	O 	0.95331 0.38095 0.38095 -0.16400
C 	C 	0.95255 0.16428 0.16428 0.30000
H 	H 	0.91358 0.17323 0.17323 -0.50700
N 	N 	0.97067 0.12483 0.12483 -0.31200
C 	C 	0.44808 0.75408 0.25408 0.01900
H 	H 	0.41260 0.73959 0.23959 0.02100
C 	C 	0.44808 0.79647 0.29647 -0.45900
H 	H 	0.41260 0.81096 0.31096 0.59300
O 	O 	0.45331 0.88095 0.38095 -0.16800
C 	C 	0.45255 0.66428 0.16428 0.29900
H 	H 	0.41358 0.67323 0.17323 -0.50700
N 	N 	0.47067 0.62483 0.12483 -0.31000
C 	C 	0.44808 0.25408 0.75408 0.01900
H 	H 	0.41260 0.23959 0.73959 0.02100
C 	C 	0.44808 0.29647 0.79647 -0.45900
H 	H 	0.41260 0.31096 0.81096 0.59300
O 	O 	0.45331 0.38095 0.88095 -0.16800
C 	C 	0.45255 0.16428 0.66428 0.29900
H 	H 	0.41358 0.17323 0.67323 -0.50700
N 	N 	0.47067 0.12483 0.62483 -0.31000
C 	C 	0.05192 0.75408 0.24592 0.01900
H 	H 	0.08740 0.73959 0.26041 0.02000
C 	C 	0.05192 0.79647 0.20353 -0.45800
H 	H 	0.08740 0.81096 0.18904 0.59400
O 	O 	0.04669 0.88095 0.11905 -0.16700
C 	C 	0.04745 0.66428 0.33572 0.30000
H 	H 	0.08642 0.67323 0.32677 -0.50800
N 	N 	0.02933 0.62483 0.37517 -0.31100
C 	C 	0.05192 0.25408 0.74592 0.01900
H 	H 	0.08740 0.23959 0.76041 0.02000
C 	C 	0.05192 0.29647 0.70353 -0.45800
H 	H 	0.08740 0.31096 0.68904 0.59300
O 	O 	0.04669 0.38095 0.61905 -0.16600
C 	C 	0.04745 0.16428 0.83572 0.30000
H 	H 	0.08642 0.17323 0.82677 -0.50800
N 	N 	0.02933 0.12483 0.87517 -0.31100
C 	C 	0.55192 0.75408 0.74592 0.01900
H 	H 	0.58740 0.73959 0.76041 0.02100
C 	C 	0.55192 0.79647 0.70353 -0.45900
H 	H 	0.58740 0.81096 0.68904 0.59300
O 	O 	0.54669 0.88095 0.61905 -0.16800
C 	C 	0.54745 0.66428 0.83572 0.29900
H 	H 	0.58642 0.67323 0.82677 -0.50700
N 	N 	0.52933 0.62483 0.87517 -0.31000
C 	C 	0.55192 0.25408 0.24592 0.01900
H 	H 	0.58740 0.23959 0.26041 0.02100
C 	C 	0.55192 0.29647 0.20353 -0.45900
H 	H 	0.58740 0.31096 0.18904 0.59400
O 	O 	0.54669 0.38095 0.11905 -0.16800
C 	C 	0.54745 0.16428 0.33572 0.29900
H 	H 	0.58642 0.17323 0.32677 -0.50700
N 	N 	0.52933 0.12483 0.37517 -0.31000
C 	C 	0.05192 0.24592 0.75408 0.01900
H 	H 	0.08740 0.26041 0.73959 0.02000
C 	C 	0.05192 0.20353 0.79647 -0.45800
H 	H 	0.08740 0.18904 0.81096 0.59400
O 	O 	0.04669 0.11905 0.88095 -0.16700
C 	C 	0.04745 0.33572 0.66428 0.30000
H 	H 	0.08642 0.32677 0.67323 -0.50800
N 	N 	0.02933 0.37517 0.62483 -0.31100
C 	C 	0.05192 0.74592 0.25408 0.01900
H 	H 	0.08740 0.76041 0.23959 0.02000
C 	C 	0.05192 0.70353 0.29647 -0.45800
H 	H 	0.08740 0.68904 0.31096 0.59300
O 	O 	0.04669 0.61905 0.38095 -0.16600
C 	C 	0.04745 0.83572 0.16428 0.30000
H 	H 	0.08642 0.82677 0.17323 -0.50800
N 	N 	0.02933 0.87517 0.12483 -0.31100
C 	C 	0.55192 0.24592 0.25408 0.01900
H 	H 	0.58740 0.26041 0.23959 0.02100
C 	C 	0.55192 0.20353 0.29647 -0.45900
H 	H 	0.58740 0.18904 0.31096 0.59400
O 	O 	0.54669 0.11905 0.38095 -0.16800
C 	C 	0.54745 0.33572 0.16428 0.29900
H 	H 	0.58642 0.32677 0.17323 -0.50700
N 	N 	0.52933 0.37517 0.12483 -0.31000
C 	C 	0.55192 0.74592 0.75408 0.01900
H 	H 	0.58740 0.76041 0.73959 0.02100
C 	C 	0.55192 0.70353 0.79647 -0.45900
H 	H 	0.58740 0.68904 0.81096 0.59300
O 	O 	0.54669 0.61905 0.88095 -0.16800
C 	C 	0.54745 0.83572 0.66428 0.29900
H 	H 	0.58642 0.82677 0.67323 -0.50700
N 	N 	0.52933 0.87517 0.62483 -0.31000
C 	C 	0.24592 0.94808 0.24592 0.02000
H 	H 	0.26041 0.91260 0.26041 0.02000
C 	C 	0.20353 0.94808 0.20353 -0.45700
H 	H 	0.18904 0.91260 0.18904 0.59300
O 	O 	0.11905 0.95331 0.11905 -0.16500
C 	C 	0.33572 0.95255 0.33572 0.30100
H 	H 	0.32677 0.91358 0.32677 -0.50700
N 	N 	0.37517 0.97067 0.37517 -0.31200
C 	C 	0.24592 0.44808 0.74592 0.01900
H 	H 	0.26041 0.41260 0.76041 0.02100
C 	C 	0.20353 0.44808 0.70353 -0.45900
H 	H 	0.18904 0.41260 0.68904 0.59400
O 	O 	0.11905 0.45331 0.61905 -0.16800
C 	C 	0.33572 0.45255 0.83572 0.29900
H 	H 	0.32677 0.41358 0.82677 -0.50700
N 	N 	0.37517 0.47067 0.87517 -0.31000
C 	C 	0.74592 0.94808 0.74592 0.02000
H 	H 	0.76041 0.91260 0.76041 0.02000
C 	C 	0.70353 0.94808 0.70353 -0.45500
H 	H 	0.68904 0.91260 0.68904 0.59200
O 	O 	0.61905 0.95331 0.61905 -0.16200
C 	C 	0.83572 0.95255 0.83572 0.30200
H 	H 	0.82677 0.91358 0.82677 -0.50600
N 	N 	0.87517 0.97067 0.87517 -0.31400
C 	C 	0.74592 0.44808 0.24592 0.01900
H 	H 	0.76041 0.41260 0.26041 0.02100
C 	C 	0.70353 0.44808 0.20353 -0.45900
H 	H 	0.68904 0.41260 0.18904 0.59400
O 	O 	0.61905 0.45331 0.11905 -0.16800
C 	C 	0.83572 0.45255 0.33572 0.29900
H 	H 	0.82677 0.41358 0.32677 -0.50700
N 	N 	0.87517 0.47067 0.37517 -0.31000
C 	C 	0.75408 0.94808 0.75408 0.02000
H 	H 	0.73959 0.91260 0.73959 0.02000
C 	C 	0.79647 0.94808 0.79647 -0.45300
H 	H 	0.81096 0.91260 0.81096 0.59100
O 	O 	0.88095 0.95331 0.88095 -0.16100
C 	C 	0.66428 0.95255 0.66428 0.30200
H 	H 	0.67323 0.91358 0.67323 -0.50700
N 	N 	0.62483 0.97067 0.62483 -0.31300
C 	C 	0.75408 0.44808 0.25408 0.01900
H 	H 	0.73959 0.41260 0.23959 0.02100
C 	C 	0.79647 0.44808 0.29647 -0.45900
H 	H 	0.81096 0.41260 0.31096 0.59300
O 	O 	0.88095 0.45331 0.38095 -0.16800
C 	C 	0.66428 0.45255 0.16428 0.29900
H 	H 	0.67323 0.41358 0.17323 -0.50700
N 	N 	0.62483 0.47067 0.12483 -0.31000
C 	C 	0.25408 0.94808 0.25408 0.02000
H 	H 	0.23959 0.91260 0.23959 0.02000
C 	C 	0.29647 0.94808 0.29647 -0.45600
H 	H 	0.31096 0.91260 0.31096 0.59200
O 	O 	0.38095 0.95331 0.38095 -0.16400
C 	C 	0.16428 0.95255 0.16428 0.30000
H 	H 	0.17323 0.91358 0.17323 -0.50700
N 	N 	0.12483 0.97067 0.12483 -0.31200
C 	C 	0.25408 0.44808 0.75408 0.01900
H 	H 	0.23959 0.41260 0.73959 0.02100
C 	C 	0.29647 0.44808 0.79647 -0.45900
H 	H 	0.31096 0.41260 0.81096 0.59300
O 	O 	0.38095 0.45331 0.88095 -0.16800
C 	C 	0.16428 0.45255 0.66428 0.29900
H 	H 	0.17323 0.41358 0.67323 -0.50700
N 	N 	0.12483 0.47067 0.62483 -0.31000
C 	C 	0.24592 0.05192 0.75408 0.01900
H 	H 	0.26041 0.08740 0.73959 0.02000
C 	C 	0.20353 0.05192 0.79647 -0.45800
H 	H 	0.18904 0.08740 0.81096 0.59400
O 	O 	0.11905 0.04669 0.88095 -0.16700
C 	C 	0.33572 0.04745 0.66428 0.30000
H 	H 	0.32677 0.08642 0.67323 -0.50800
N 	N 	0.37517 0.02933 0.62483 -0.31100
C 	C 	0.24592 0.55192 0.25408 0.01900
H 	H 	0.26041 0.58740 0.23959 0.02100
C 	C 	0.20353 0.55192 0.29647 -0.45900
H 	H 	0.18904 0.58740 0.31096 0.59400
O 	O 	0.11905 0.54669 0.38095 -0.16800
C 	C 	0.33572 0.54745 0.16428 0.29900
H 	H 	0.32677 0.58642 0.17323 -0.50700
N 	N 	0.37517 0.52933 0.12483 -0.31000
C 	C 	0.74592 0.05192 0.25408 0.01900
H 	H 	0.76041 0.08740 0.23959 0.02000
C 	C 	0.70353 0.05192 0.29647 -0.45800
H 	H 	0.68904 0.08740 0.31096 0.59300
O 	O 	0.61905 0.04669 0.38095 -0.16600
C 	C 	0.83572 0.04745 0.16428 0.30000
H 	H 	0.82677 0.08642 0.17323 -0.50800
N 	N 	0.87517 0.02933 0.12483 -0.31100
C 	C 	0.74592 0.55192 0.75408 0.01900
H 	H 	0.76041 0.58740 0.73959 0.02100
C 	C 	0.70353 0.55192 0.79647 -0.45900
H 	H 	0.68904 0.58740 0.81096 0.59300
O 	O 	0.61905 0.54669 0.88095 -0.16800
C 	C 	0.83572 0.54745 0.66428 0.29900
H 	H 	0.82677 0.58642 0.67323 -0.50700
N 	N 	0.87517 0.52933 0.62483 -0.31000
C 	C 	0.75408 0.05192 0.24592 0.01900
H 	H 	0.73959 0.08740 0.26041 0.02000
C 	C 	0.79647 0.05192 0.20353 -0.45800
H 	H 	0.81096 0.08740 0.18904 0.59400
O 	O 	0.88095 0.04669 0.11905 -0.16700
C 	C 	0.66428 0.04745 0.33572 0.30000
H 	H 	0.67323 0.08642 0.32677 -0.50800
N 	N 	0.62483 0.02933 0.37517 -0.31100
C 	C 	0.75408 0.55192 0.74592 0.01900
H 	H 	0.73959 0.58740 0.76041 0.02100
C 	C 	0.79647 0.55192 0.70353 -0.45900
H 	H 	0.81096 0.58740 0.68904 0.59300
O 	O 	0.88095 0.54669 0.61905 -0.16800
C 	C 	0.66428 0.54745 0.83572 0.29900
H 	H 	0.67323 0.58642 0.82677 -0.50700
N 	N 	0.62483 0.52933 0.87517 -0.31000
C 	C 	0.25408 0.05192 0.74592 0.01900
H 	H 	0.23959 0.08740 0.76041 0.02000
C 	C 	0.29647 0.05192 0.70353 -0.45800
H 	H 	0.31096 0.08740 0.68904 0.59300
O 	O 	0.38095 0.04669 0.61905 -0.16600
C 	C 	0.16428 0.04745 0.83572 0.30000
H 	H 	0.17323 0.08642 0.82677 -0.50800
N 	N 	0.12483 0.02933 0.87517 -0.31100
C 	C 	0.25408 0.55192 0.24592 0.01900
H 	H 	0.23959 0.58740 0.26041 0.02100
C 	C 	0.29647 0.55192 0.20353 -0.45900
H 	H 	0.31096 0.58740 0.18904 0.59400
O 	O 	0.38095 0.54669 0.11905 -0.16800
C 	C 	0.16428 0.54745 0.33572 0.29900
H 	H 	0.17323 0.58642 0.32677 -0.50700
N 	N 	0.12483 0.52933 0.37517 -0.31000
C 	C 	0.24592 0.24592 0.05192 0.01900
H 	H 	0.26041 0.26041 0.08740 0.02000
C 	C 	0.20353 0.20353 0.05192 -0.45900
H 	H 	0.18904 0.18904 0.08740 0.59300
O 	O 	0.11905 0.11905 0.04669 -0.16700
C 	C 	0.33572 0.33572 0.04745 0.30000
H 	H 	0.32677 0.32677 0.08642 -0.50800
N 	N 	0.37517 0.37517 0.02933 -0.31100
C 	C 	0.24592 0.74592 0.55192 0.01900
H 	H 	0.26041 0.76041 0.58740 0.02100
C 	C 	0.20353 0.70353 0.55192 -0.45900
H 	H 	0.18904 0.68904 0.58740 0.59400
O 	O 	0.11905 0.61905 0.54669 -0.16800
C 	C 	0.33572 0.83572 0.54745 0.29900
H 	H 	0.32677 0.82677 0.58642 -0.50700
N 	N 	0.37517 0.87517 0.52933 -0.31000
C 	C 	0.74592 0.24592 0.55192 0.01900
H 	H 	0.76041 0.26041 0.58740 0.02100
C 	C 	0.70353 0.20353 0.55192 -0.45900
H 	H 	0.68904 0.18904 0.58740 0.59400
O 	O 	0.61905 0.11905 0.54669 -0.16800
C 	C 	0.83572 0.33572 0.54745 0.29900
H 	H 	0.82677 0.32677 0.58642 -0.50700
N 	N 	0.87517 0.37517 0.52933 -0.31000
C 	C 	0.74592 0.74592 0.05192 0.02000
H 	H 	0.76041 0.76041 0.08740 0.02000
C 	C 	0.70353 0.70353 0.05192 -0.45800
H 	H 	0.68904 0.68904 0.08740 0.59300
O 	O 	0.61905 0.61905 0.04669 -0.16600
C 	C 	0.83572 0.83572 0.04745 0.30100
H 	H 	0.82677 0.82677 0.08642 -0.50800
N 	N 	0.87517 0.87517 0.02933 -0.31200
C 	C 	0.75408 0.75408 0.05192 0.01900
H 	H 	0.73959 0.73959 0.08740 0.02000
C 	C 	0.79647 0.79647 0.05192 -0.45800
H 	H 	0.81096 0.81096 0.08740 0.59400
O 	O 	0.88095 0.88095 0.04669 -0.16600
C 	C 	0.66428 0.66428 0.04745 0.30000
H 	H 	0.67323 0.67323 0.08642 -0.50700
N 	N 	0.62483 0.62483 0.02933 -0.31200
C 	C 	0.75408 0.25408 0.55192 0.01900
H 	H 	0.73959 0.23959 0.58740 0.02100
C 	C 	0.79647 0.29647 0.55192 -0.45900
H 	H 	0.81096 0.31096 0.58740 0.59300
O 	O 	0.88095 0.38095 0.54669 -0.16800
C 	C 	0.66428 0.16428 0.54745 0.29900
H 	H 	0.67323 0.17323 0.58642 -0.50700
N 	N 	0.62483 0.12483 0.52933 -0.31000
C 	C 	0.25408 0.75408 0.55192 0.01900
H 	H 	0.23959 0.73959 0.58740 0.02100
C 	C 	0.29647 0.79647 0.55192 -0.45900
H 	H 	0.31096 0.81096 0.58740 0.59300
O 	O 	0.38095 0.88095 0.54669 -0.16800
C 	C 	0.16428 0.66428 0.54745 0.29900
H 	H 	0.17323 0.67323 0.58642 -0.50700
N 	N 	0.12483 0.62483 0.52933 -0.31000
C 	C 	0.25408 0.25408 0.05192 0.01900
H 	H 	0.23959 0.23959 0.08740 0.02100
C 	C 	0.29647 0.29647 0.05192 -0.45900
H 	H 	0.31096 0.31096 0.08740 0.59300
O 	O 	0.38095 0.38095 0.04669 -0.16700
C 	C 	0.16428 0.16428 0.04745 0.30000
H 	H 	0.17323 0.17323 0.08642 -0.50700
N 	N 	0.12483 0.12483 0.02933 -0.31100
C 	C 	0.24592 0.75408 0.94808 0.02000
H 	H 	0.26041 0.73959 0.91260 0.02000
C 	C 	0.20353 0.79647 0.94808 -0.45600
H 	H 	0.18904 0.81096 0.91260 0.59200
O 	O 	0.11905 0.88095 0.95331 -0.16300
C 	C 	0.33572 0.66428 0.95255 0.30100
H 	H 	0.32677 0.67323 0.91358 -0.50700
N 	N 	0.37517 0.62483 0.97067 -0.31300
C 	C 	0.24592 0.25408 0.44808 0.01900
H 	H 	0.26041 0.23959 0.41260 0.02100
C 	C 	0.20353 0.29647 0.44808 -0.45900
H 	H 	0.18904 0.31096 0.41260 0.59400
O 	O 	0.11905 0.38095 0.45331 -0.16800
C 	C 	0.33572 0.16428 0.45255 0.29900
H 	H 	0.32677 0.17323 0.41358 -0.50700
N 	N 	0.37517 0.12483 0.47067 -0.31000
C 	C 	0.74592 0.75408 0.44808 0.01900
H 	H 	0.76041 0.73959 0.41260 0.02100
C 	C 	0.70353 0.79647 0.44808 -0.45900
H 	H 	0.68904 0.81096 0.41260 0.59300
O 	O 	0.61905 0.88095 0.45331 -0.16800
C 	C 	0.83572 0.66428 0.45255 0.29900
H 	H 	0.82677 0.67323 0.41358 -0.50700
N 	N 	0.87517 0.62483 0.47067 -0.31000
C 	C 	0.74592 0.25408 0.94808 0.02000
H 	H 	0.76041 0.23959 0.91260 0.02000
C 	C 	0.70353 0.29647 0.94808 -0.45600
H 	H 	0.68904 0.31096 0.91260 0.59200
O 	O 	0.61905 0.38095 0.95331 -0.16300
C 	C 	0.83572 0.16428 0.95255 0.30100
H 	H 	0.82677 0.17323 0.91358 -0.50700
N 	N 	0.87517 0.12483 0.97067 -0.31300
C 	C 	0.75408 0.24592 0.94808 0.02000
H 	H 	0.73959 0.26041 0.91260 0.02000
C 	C 	0.79647 0.20353 0.94808 -0.45600
H 	H 	0.81096 0.18904 0.91260 0.59200
O 	O 	0.88095 0.11905 0.95331 -0.16300
C 	C 	0.66428 0.33572 0.95255 0.30100
H 	H 	0.67323 0.32677 0.91358 -0.50700
N 	N 	0.62483 0.37517 0.97067 -0.31300
C 	C 	0.75408 0.74592 0.44808 0.01900
H 	H 	0.73959 0.76041 0.41260 0.02100
C 	C 	0.79647 0.70353 0.44808 -0.45900
H 	H 	0.81096 0.68904 0.41260 0.59300
O 	O 	0.88095 0.61905 0.45331 -0.16800
C 	C 	0.66428 0.83572 0.45255 0.29900
H 	H 	0.67323 0.82677 0.41358 -0.50700
N 	N 	0.62483 0.87517 0.47067 -0.31000
C 	C 	0.25408 0.24592 0.44808 0.01900
H 	H 	0.23959 0.26041 0.41260 0.02100
C 	C 	0.29647 0.20353 0.44808 -0.45900
H 	H 	0.31096 0.18904 0.41260 0.59400
O 	O 	0.38095 0.11905 0.45331 -0.16800
C 	C 	0.16428 0.33572 0.45255 0.29900
H 	H 	0.17323 0.32677 0.41358 -0.50700
N 	N 	0.12483 0.37517 0.47067 -0.31000
C 	C 	0.25408 0.74592 0.94808 0.02000
H 	H 	0.23959 0.76041 0.91260 0.02000
C 	C 	0.29647 0.70353 0.94808 -0.45600
H 	H 	0.31096 0.68904 0.91260 0.59200
O 	O 	0.38095 0.61905 0.95331 -0.16300
C 	C 	0.16428 0.83572 0.95255 0.30100
H 	H 	0.17323 0.82677 0.91358 -0.50700
N 	N 	0.12483 0.87517 0.97067 -0.31300
C 	C 	0.24592 0.94808 0.75408 0.02000
H 	H 	0.26041 0.91260 0.73959 0.02000
C 	C 	0.20353 0.94808 0.79647 -0.45600
H 	H 	0.18904 0.91260 0.81096 0.59200
O 	O 	0.11905 0.95331 0.88095 -0.16300
C 	C 	0.33572 0.95255 0.66428 0.30100
H 	H 	0.32677 0.91358 0.67323 -0.50700
N 	N 	0.37517 0.97067 0.62483 -0.31300
C 	C 	0.24592 0.44808 0.25408 0.01900
H 	H 	0.26041 0.41260 0.23959 0.02100
C 	C 	0.20353 0.44808 0.29647 -0.45900
H 	H 	0.18904 0.41260 0.31096 0.59400
O 	O 	0.11905 0.45331 0.38095 -0.16800
C 	C 	0.33572 0.45255 0.16428 0.29900
H 	H 	0.32677 0.41358 0.17323 -0.50700
N 	N 	0.37517 0.47067 0.12483 -0.31000
C 	C 	0.74592 0.94808 0.25408 0.02000
H 	H 	0.76041 0.91260 0.23959 0.02000
C 	C 	0.70353 0.94808 0.29647 -0.45600
H 	H 	0.68904 0.91260 0.31096 0.59200
O 	O 	0.61905 0.95331 0.38095 -0.16300
C 	C 	0.83572 0.95255 0.16428 0.30100
H 	H 	0.82677 0.91358 0.17323 -0.50700
N 	N 	0.87517 0.97067 0.12483 -0.31300
C 	C 	0.74592 0.44808 0.75408 0.01900
H 	H 	0.76041 0.41260 0.73959 0.02100
C 	C 	0.70353 0.44808 0.79647 -0.45900
H 	H 	0.68904 0.41260 0.81096 0.59300
O 	O 	0.61905 0.45331 0.88095 -0.16800
C 	C 	0.83572 0.45255 0.66428 0.29900
H 	H 	0.82677 0.41358 0.67323 -0.50700
N 	N 	0.87517 0.47067 0.62483 -0.31000
C 	C 	0.75408 0.94808 0.24592 0.02000
H 	H 	0.73959 0.91260 0.26041 0.02000
C 	C 	0.79647 0.94808 0.20353 -0.45600
H 	H 	0.81096 0.91260 0.18904 0.59200
O 	O 	0.88095 0.95331 0.11905 -0.16300
C 	C 	0.66428 0.95255 0.33572 0.30100
H 	H 	0.67323 0.91358 0.32677 -0.50700
N 	N 	0.62483 0.97067 0.37517 -0.31300
C 	C 	0.75408 0.44808 0.74592 0.01900
H 	H 	0.73959 0.41260 0.76041 0.02100
C 	C 	0.79647 0.44808 0.70353 -0.45900
H 	H 	0.81096 0.41260 0.68904 0.59300
O 	O 	0.88095 0.45331 0.61905 -0.16800
C 	C 	0.66428 0.45255 0.83572 0.29900
H 	H 	0.67323 0.41358 0.82677 -0.50700
N 	N 	0.62483 0.47067 0.87517 -0.31000
C 	C 	0.25408 0.94808 0.74592 0.02000
H 	H 	0.23959 0.91260 0.76041 0.02000
C 	C 	0.29647 0.94808 0.70353 -0.45600
H 	H 	0.31096 0.91260 0.68904 0.59200
O 	O 	0.38095 0.95331 0.61905 -0.16300
C 	C 	0.16428 0.95255 0.83572 0.30100
H 	H 	0.17323 0.91358 0.82677 -0.50700
N 	N 	0.12483 0.97067 0.87517 -0.31300
C 	C 	0.25408 0.44808 0.24592 0.01900
H 	H 	0.23959 0.41260 0.26041 0.02100
C 	C 	0.29647 0.44808 0.20353 -0.45900
H 	H 	0.31096 0.41260 0.18904 0.59400
O 	O 	0.38095 0.45331 0.11905 -0.16800
C 	C 	0.16428 0.45255 0.33572 0.29900
H 	H 	0.17323 0.41358 0.32677 -0.50700
N 	N 	0.12483 0.47067 0.37517 -0.31000
C 	C 	0.75408 0.05192 0.75408 0.01900
H 	H 	0.73959 0.08740 0.73959 0.02000
C 	C 	0.79647 0.05192 0.79647 -0.45800
H 	H 	0.81096 0.08740 0.81096 0.59400
O 	O 	0.88095 0.04669 0.88095 -0.16600
C 	C 	0.66428 0.04745 0.66428 0.30000
H 	H 	0.67323 0.08642 0.67323 -0.50700
N 	N 	0.62483 0.02933 0.62483 -0.31200
C 	C 	0.75408 0.55192 0.25408 0.01900
H 	H 	0.73959 0.58740 0.23959 0.02100
C 	C 	0.79647 0.55192 0.29647 -0.45900
H 	H 	0.81096 0.58740 0.31096 0.59300
O 	O 	0.88095 0.54669 0.38095 -0.16800
C 	C 	0.66428 0.54745 0.16428 0.29900
H 	H 	0.67323 0.58642 0.17323 -0.50700
N 	N 	0.62483 0.52933 0.12483 -0.31000
C 	C 	0.25408 0.05192 0.25408 0.01900
H 	H 	0.23959 0.08740 0.23959 0.02100
C 	C 	0.29647 0.05192 0.29647 -0.45900
H 	H 	0.31096 0.08740 0.31096 0.59300
O 	O 	0.38095 0.04669 0.38095 -0.16700
C 	C 	0.16428 0.04745 0.16428 0.30000
H 	H 	0.17323 0.08642 0.17323 -0.50700
N 	N 	0.12483 0.02933 0.12483 -0.31100
C 	C 	0.25408 0.55192 0.75408 0.01900
H 	H 	0.23959 0.58740 0.73959 0.02100
C 	C 	0.29647 0.55192 0.79647 -0.45900
H 	H 	0.31096 0.58740 0.81096 0.59300
O 	O 	0.38095 0.54669 0.88095 -0.16800
C 	C 	0.16428 0.54745 0.66428 0.29900
H 	H 	0.17323 0.58642 0.67323 -0.50700
N 	N 	0.12483 0.52933 0.62483 -0.31000
C 	C 	0.24592 0.05192 0.24592 0.01900
H 	H 	0.26041 0.08740 0.26041 0.02000
C 	C 	0.20353 0.05192 0.20353 -0.45900
H 	H 	0.18904 0.08740 0.18904 0.59300
O 	O 	0.11905 0.04669 0.11905 -0.16700
C 	C 	0.33572 0.04745 0.33572 0.30000
H 	H 	0.32677 0.08642 0.32677 -0.50800
N 	N 	0.37517 0.02933 0.37517 -0.31100
C 	C 	0.24592 0.55192 0.74592 0.01900
H 	H 	0.26041 0.58740 0.76041 0.02100
C 	C 	0.20353 0.55192 0.70353 -0.45900
H 	H 	0.18904 0.58740 0.68904 0.59400
O 	O 	0.11905 0.54669 0.61905 -0.16800
C 	C 	0.33572 0.54745 0.83572 0.29900
H 	H 	0.32677 0.58642 0.82677 -0.50700
N 	N 	0.37517 0.52933 0.87517 -0.31000
C 	C 	0.74592 0.05192 0.74592 0.02000
H 	H 	0.76041 0.08740 0.76041 0.02000
C 	C 	0.70353 0.05192 0.70353 -0.45800
H 	H 	0.68904 0.08740 0.68904 0.59300
O 	O 	0.61905 0.04669 0.61905 -0.16600
C 	C 	0.83572 0.04745 0.83572 0.30100
H 	H 	0.82677 0.08642 0.82677 -0.50800
N 	N 	0.87517 0.02933 0.87517 -0.31200
C 	C 	0.74592 0.55192 0.24592 0.01900
H 	H 	0.76041 0.58740 0.26041 0.02100
C 	C 	0.70353 0.55192 0.20353 -0.45900
H 	H 	0.68904 0.58740 0.18904 0.59400
O 	O 	0.61905 0.54669 0.11905 -0.16800
C 	C 	0.83572 0.54745 0.33572 0.29900
H 	H 	0.82677 0.58642 0.32677 -0.50700
N 	N 	0.87517 0.52933 0.37517 -0.31000
C 	C 	0.94808 0.24592 0.75408 0.02000
H 	H 	0.91260 0.26041 0.73959 0.02000
C 	C 	0.94808 0.20353 0.79647 -0.45600
H 	H 	0.91260 0.18904 0.81096 0.59200
O 	O 	0.95331 0.11905 0.88095 -0.16300
C 	C 	0.95255 0.33572 0.66428 0.30100
H 	H 	0.91358 0.32677 0.67323 -0.50700
N 	N 	0.97067 0.37517 0.62483 -0.31300
C 	C 	0.94808 0.74592 0.25408 0.02000
H 	H 	0.91260 0.76041 0.23959 0.02000
C 	C 	0.94808 0.70353 0.29647 -0.45600
H 	H 	0.91260 0.68904 0.31096 0.59200
O 	O 	0.95331 0.61905 0.38095 -0.16300
C 	C 	0.95255 0.83572 0.16428 0.30100
H 	H 	0.91358 0.82677 0.17323 -0.50700
N 	N 	0.97067 0.87517 0.12483 -0.31300
C 	C 	0.44808 0.24592 0.25408 0.01900
H 	H 	0.41260 0.26041 0.23959 0.02100
C 	C 	0.44808 0.20353 0.29647 -0.45900
H 	H 	0.41260 0.18904 0.31096 0.59400
O 	O 	0.45331 0.11905 0.38095 -0.16800
C 	C 	0.45255 0.33572 0.16428 0.29900
H 	H 	0.41358 0.32677 0.17323 -0.50700
N 	N 	0.47067 0.37517 0.12483 -0.31000
C 	C 	0.44808 0.74592 0.75408 0.01900
H 	H 	0.41260 0.76041 0.73959 0.02100
C 	C 	0.44808 0.70353 0.79647 -0.45900
H 	H 	0.41260 0.68904 0.81096 0.59300
O 	O 	0.45331 0.61905 0.88095 -0.16800
C 	C 	0.45255 0.83572 0.66428 0.29900
H 	H 	0.41358 0.82677 0.67323 -0.50700
N 	N 	0.47067 0.87517 0.62483 -0.31000
C 	C 	0.94808 0.75408 0.24592 0.02000
H 	H 	0.91260 0.73959 0.26041 0.02000
C 	C 	0.94808 0.79647 0.20353 -0.45600
H 	H 	0.91260 0.81096 0.18904 0.59200
O 	O 	0.95331 0.88095 0.11905 -0.16300
C 	C 	0.95255 0.66428 0.33572 0.30100
H 	H 	0.91358 0.67323 0.32677 -0.50700
N 	N 	0.97067 0.62483 0.37517 -0.31300
C 	C 	0.94808 0.25408 0.74592 0.02000
H 	H 	0.91260 0.23959 0.76041 0.02000
C 	C 	0.94808 0.29647 0.70353 -0.45600
H 	H 	0.91260 0.31096 0.68904 0.59200
O 	O 	0.95331 0.38095 0.61905 -0.16300
C 	C 	0.95255 0.16428 0.83572 0.30100
H 	H 	0.91358 0.17323 0.82677 -0.50700
N 	N 	0.97067 0.12483 0.87517 -0.31300
C 	C 	0.44808 0.75408 0.74592 0.01900
H 	H 	0.41260 0.73959 0.76041 0.02100
C 	C 	0.44808 0.79647 0.70353 -0.45900
H 	H 	0.41260 0.81096 0.68904 0.59300
O 	O 	0.45331 0.88095 0.61905 -0.16800
C 	C 	0.45255 0.66428 0.83572 0.29900
H 	H 	0.41358 0.67323 0.82677 -0.50700
N 	N 	0.47067 0.62483 0.87517 -0.31000
C 	C 	0.44808 0.25408 0.24592 0.01900
H 	H 	0.41260 0.23959 0.26041 0.02100
C 	C 	0.44808 0.29647 0.20353 -0.45900
H 	H 	0.41260 0.31096 0.18904 0.59400
O 	O 	0.45331 0.38095 0.11905 -0.16800
C 	C 	0.45255 0.16428 0.33572 0.29900
H 	H 	0.41358 0.17323 0.32677 -0.50700
N 	N 	0.47067 0.12483 0.37517 -0.31000
C 	C 	0.05192 0.24592 0.24592 0.01900
H 	H 	0.08740 0.26041 0.26041 0.02000
C 	C 	0.05192 0.20353 0.20353 -0.45900
H 	H 	0.08740 0.18904 0.18904 0.59300
O 	O 	0.04669 0.11905 0.11905 -0.16700
C 	C 	0.04745 0.33572 0.33572 0.30000
H 	H 	0.08642 0.32677 0.32677 -0.50800
N 	N 	0.02933 0.37517 0.37517 -0.31100
C 	C 	0.05192 0.74592 0.74592 0.02000
H 	H 	0.08740 0.76041 0.76041 0.02000
C 	C 	0.05192 0.70353 0.70353 -0.45800
H 	H 	0.08740 0.68904 0.68904 0.59300
O 	O 	0.04669 0.61905 0.61905 -0.16600
C 	C 	0.04745 0.83572 0.83572 0.30100
H 	H 	0.08642 0.82677 0.82677 -0.50800
N 	N 	0.02933 0.87517 0.87517 -0.31200
C 	C 	0.55192 0.24592 0.74592 0.01900
H 	H 	0.58740 0.26041 0.76041 0.02100
C 	C 	0.55192 0.20353 0.70353 -0.45900
H 	H 	0.58740 0.18904 0.68904 0.59400
O 	O 	0.54669 0.11905 0.61905 -0.16800
C 	C 	0.54745 0.33572 0.83572 0.29900
H 	H 	0.58642 0.32677 0.82677 -0.50700
N 	N 	0.52933 0.37517 0.87517 -0.31000
C 	C 	0.55192 0.74592 0.24592 0.01900
H 	H 	0.58740 0.76041 0.26041 0.02100
C 	C 	0.55192 0.70353 0.20353 -0.45900
H 	H 	0.58740 0.68904 0.18904 0.59400
O 	O 	0.54669 0.61905 0.11905 -0.16800
C 	C 	0.54745 0.83572 0.33572 0.29900
H 	H 	0.58642 0.82677 0.32677 -0.50700
N 	N 	0.52933 0.87517 0.37517 -0.31000
C 	C 	0.05192 0.75408 0.75408 0.01900
H 	H 	0.08740 0.73959 0.73959 0.02000
C 	C 	0.05192 0.79647 0.79647 -0.45800
H 	H 	0.08740 0.81096 0.81096 0.59400
O 	O 	0.04669 0.88095 0.88095 -0.16600
C 	C 	0.04745 0.66428 0.66428 0.30000
H 	H 	0.08642 0.67323 0.67323 -0.50700
N 	N 	0.02933 0.62483 0.62483 -0.31200
C 	C 	0.05192 0.25408 0.25408 0.01900
H 	H 	0.08740 0.23959 0.23959 0.02100
C 	C 	0.05192 0.29647 0.29647 -0.45900
H 	H 	0.08740 0.31096 0.31096 0.59300
O 	O 	0.04669 0.38095 0.38095 -0.16700
C 	C 	0.04745 0.16428 0.16428 0.30000
H 	H 	0.08642 0.17323 0.17323 -0.50700
N 	N 	0.02933 0.12483 0.12483 -0.31100
C 	C 	0.55192 0.75408 0.25408 0.01900
H 	H 	0.58740 0.73959 0.23959 0.02100
C 	C 	0.55192 0.79647 0.29647 -0.45900
H 	H 	0.58740 0.81096 0.31096 0.59300
O 	O 	0.54669 0.88095 0.38095 -0.16800
C 	C 	0.54745 0.66428 0.16428 0.29900
H 	H 	0.58642 0.67323 0.17323 -0.50700
N 	N 	0.52933 0.62483 0.12483 -0.31000
C 	C 	0.55192 0.25408 0.75408 0.01900
H 	H 	0.58740 0.23959 0.73959 0.02100
C 	C 	0.55192 0.29647 0.79647 -0.45900
H 	H 	0.58740 0.31096 0.81096 0.59300
O 	O 	0.54669 0.38095 0.88095 -0.16800
C 	C 	0.54745 0.16428 0.66428 0.29900
H 	H 	0.58642 0.17323 0.67323 -0.50700
N 	N 	0.52933 0.12483 0.62483 -0.31000
