data_crystal

_cell_length_a 21.75900
_cell_length_b 13.82140
_cell_length_c 14.22370
_cell_angle_alpha 90.00000
_cell_angle_beta  98.84900
_cell_angle_gamma 90.00000

_symmetry_space_group_name_	'P 1'
_symmetry_space_group_name_H-M	'P 1'

loop_
_symmetry_equiv_pos_as_xyz
  x,y,z

loop_
_atom_site_label
_atom_site_type_symbol
_atom_site_fract_x
_atom_site_fract_y
_atom_site_fract_z
_atom_site_charge
P 	P 	0.05959 0.12051 0.01465 0.80000
P 	P 	0.17164 0.78464 0.89409 0.76100
P 	P 	0.26241 0.11092 0.06219 0.79600
P 	P 	0.15797 0.11435 0.70493 0.78900
Al	Al	0.16167 0.20348 0.90892 2.39800
Al	Al	0.08374 0.89973 0.00792 2.40000
Al	Al	0.24608 0.89140 0.05953 2.39900
Al	Al	0.16015 0.10872 0.19667 2.39800
F 	F 	0.16788 0.95530 0.02680 -0.97200
O 	O 	0.22897 0.83740 0.94500 -0.75500
O 	O 	0.06186 0.01800 0.97520 -0.77200
O 	O 	0.22339 0.13550 0.96630 -0.78700
O 	O 	0.11318 0.81290 0.93520 -0.71200
O 	O 	0.22535 0.13170 0.14240 -0.80800
O 	O 	0.09876 0.12720 0.63260 -0.70500
O 	O 	0.99282 0.15410 0.01040 -0.64800
O 	O 	0.28447 0.00570 0.06360 -0.66900
O 	O 	0.15195 0.17880 0.78930 -0.74100
O 	O 	0.32118 0.17338 0.07640 -0.72200
O 	O 	0.18042 0.67470 0.90550 -0.62400
O 	O 	0.09318 0.18860 0.95510 -0.74800
O 	O 	0.16196 0.80850 0.78810 -0.74600
O 	O 	0.21551 0.14490 0.66340 -0.72300
O 	O 	0.09222 0.12520 0.11720 -0.80100
O 	O 	0.16478 0.00900 0.74000 -0.79500
P 	P 	0.55959 0.62051 0.01465 0.81900
P 	P 	0.67164 0.28464 0.89409 0.76000
P 	P 	0.76241 0.61092 0.06219 0.80100
P 	P 	0.65797 0.61435 0.70493 0.78800
Al	Al	0.66167 0.70348 0.90892 2.39800
Al	Al	0.58374 0.39973 0.00792 2.40000
Al	Al	0.74608 0.39140 0.05953 2.40000
Al	Al	0.66015 0.60872 0.19667 2.39800
F 	F 	0.66788 0.45530 0.02680 -0.96700
O 	O 	0.72897 0.33740 0.94500 -0.76000
O 	O 	0.56186 0.51800 0.97520 -0.78100
O 	O 	0.72339 0.63550 0.96630 -0.79400
O 	O 	0.61318 0.31290 0.93520 -0.71500
O 	O 	0.72535 0.63170 0.14240 -0.80800
O 	O 	0.59876 0.62720 0.63260 -0.70500
O 	O 	0.49282 0.65410 0.01040 -0.65600
O 	O 	0.78447 0.50570 0.06360 -0.66700
O 	O 	0.65195 0.67880 0.78930 -0.74200
O 	O 	0.82118 0.67338 0.07640 -0.72000
O 	O 	0.68042 0.17470 0.90550 -0.62600
O 	O 	0.59318 0.68860 0.95510 -0.75600
O 	O 	0.66196 0.30850 0.78810 -0.74600
O 	O 	0.71551 0.64490 0.66340 -0.72300
O 	O 	0.59222 0.62520 0.11720 -0.80000
O 	O 	0.66478 0.50900 0.74000 -0.79500
P 	P 	0.94041 0.12051 0.48535 0.81600
P 	P 	0.82836 0.78464 0.60591 0.76000
P 	P 	0.73759 0.11092 0.43781 0.79800
P 	P 	0.84203 0.11435 0.79507 0.78900
Al	Al	0.83833 0.20348 0.59108 2.39800
Al	Al	0.91626 0.89973 0.49208 2.40000
Al	Al	0.75392 0.89140 0.44047 2.39900
Al	Al	0.83985 0.10872 0.30333 2.39800
F 	F 	0.83212 0.95530 0.47320 -0.96900
O 	O 	0.77103 0.83740 0.55500 -0.75800
O 	O 	0.93814 0.01800 0.52480 -0.78100
O 	O 	0.77661 0.13550 0.53370 -0.79100
O 	O 	0.88682 0.81290 0.56480 -0.71600
O 	O 	0.77465 0.13170 0.35760 -0.80800
O 	O 	0.90124 0.12720 0.86740 -0.70900
O 	O 	0.00718 0.15410 0.48960 -0.65800
O 	O 	0.71553 0.00570 0.43640 -0.66900
O 	O 	0.84805 0.17880 0.71070 -0.74200
O 	O 	0.67882 0.17338 0.42360 -0.72200
O 	O 	0.81958 0.67470 0.59450 -0.62600
O 	O 	0.90682 0.18860 0.54490 -0.75600
O 	O 	0.83804 0.80850 0.71190 -0.74700
O 	O 	0.78449 0.14490 0.83660 -0.72400
O 	O 	0.90778 0.12520 0.38280 -0.80000
O 	O 	0.83522 0.00900 0.76000 -0.79600
P 	P 	0.44041 0.62051 0.48535 0.81600
P 	P 	0.32836 0.28464 0.60591 0.76000
P 	P 	0.23759 0.61092 0.43781 0.79800
P 	P 	0.34203 0.61435 0.79507 0.78800
Al	Al	0.33833 0.70348 0.59108 2.39800
Al	Al	0.41626 0.39973 0.49208 2.40000
Al	Al	0.25392 0.39140 0.44047 2.39900
Al	Al	0.33985 0.60872 0.30333 2.39800
F 	F 	0.33212 0.45530 0.47320 -0.96900
O 	O 	0.27103 0.33740 0.55500 -0.75800
O 	O 	0.43814 0.51800 0.52480 -0.78000
O 	O 	0.27661 0.63550 0.53370 -0.79100
O 	O 	0.38682 0.31290 0.56480 -0.71500
O 	O 	0.27465 0.63170 0.35760 -0.80800
O 	O 	0.40124 0.62720 0.86740 -0.70400
O 	O 	0.50718 0.65410 0.48960 -0.65700
O 	O 	0.21553 0.50570 0.43640 -0.66900
O 	O 	0.34805 0.67880 0.71070 -0.74100
O 	O 	0.17882 0.67338 0.42360 -0.72200
O 	O 	0.31958 0.17470 0.59450 -0.62500
O 	O 	0.40682 0.68860 0.54490 -0.75500
O 	O 	0.33804 0.30850 0.71190 -0.74600
O 	O 	0.28449 0.64490 0.83660 -0.72200
O 	O 	0.40778 0.62520 0.38280 -0.80000
O 	O 	0.33522 0.50900 0.76000 -0.79500
P 	P 	0.94041 0.87949 0.98535 0.79900
P 	P 	0.82836 0.21536 0.10591 0.76000
P 	P 	0.73759 0.88908 0.93781 0.79500
P 	P 	0.84203 0.88565 0.29507 0.78800
Al	Al	0.83833 0.79652 0.09108 2.39800
Al	Al	0.91626 0.10027 0.99208 2.40000
Al	Al	0.75392 0.10860 0.94047 2.39900
Al	Al	0.83985 0.89128 0.80333 2.39800
F 	F 	0.83212 0.04470 0.97320 -0.97200
O 	O 	0.77103 0.16260 0.05500 -0.75500
O 	O 	0.93814 0.98200 0.02480 -0.77200
O 	O 	0.77661 0.86450 0.03370 -0.78700
O 	O 	0.88682 0.18710 0.06480 -0.71200
O 	O 	0.77465 0.86830 0.85760 -0.80800
O 	O 	0.90124 0.87280 0.36740 -0.70500
O 	O 	0.00718 0.84590 0.98960 -0.64800
O 	O 	0.71553 0.99430 0.93640 -0.66900
O 	O 	0.84805 0.82120 0.21070 -0.74100
O 	O 	0.67882 0.82662 0.92360 -0.72200
O 	O 	0.81958 0.32530 0.09450 -0.62400
O 	O 	0.90682 0.81140 0.04490 -0.74800
O 	O 	0.83804 0.19150 0.21190 -0.74600
O 	O 	0.78449 0.85510 0.33660 -0.72300
O 	O 	0.90778 0.87480 0.88280 -0.80100
O 	O 	0.83522 0.99100 0.26000 -0.79500
P 	P 	0.44041 0.37949 0.98535 0.81900
P 	P 	0.32836 0.71536 0.10591 0.76000
P 	P 	0.23759 0.38908 0.93781 0.80100
P 	P 	0.34203 0.38565 0.29507 0.78800
Al	Al	0.33833 0.29652 0.09108 2.39800
Al	Al	0.41626 0.60027 0.99208 2.40000
Al	Al	0.25392 0.60860 0.94047 2.40000
Al	Al	0.33985 0.39128 0.80333 2.39800
F 	F 	0.33212 0.54470 0.97320 -0.96700
O 	O 	0.27103 0.66260 0.05500 -0.76000
O 	O 	0.43814 0.48200 0.02480 -0.78100
O 	O 	0.27661 0.36450 0.03370 -0.79400
O 	O 	0.38682 0.68710 0.06480 -0.71500
O 	O 	0.27465 0.36830 0.85760 -0.80800
O 	O 	0.40124 0.37280 0.36740 -0.70500
O 	O 	0.50718 0.34590 0.98960 -0.65600
O 	O 	0.21553 0.49430 0.93640 -0.66700
O 	O 	0.34805 0.32120 0.21070 -0.74200
O 	O 	0.17882 0.32662 0.92360 -0.72000
O 	O 	0.31958 0.82530 0.09450 -0.62600
O 	O 	0.40682 0.31140 0.04490 -0.75600
O 	O 	0.33804 0.69150 0.21190 -0.74600
O 	O 	0.28449 0.35510 0.33660 -0.72300
O 	O 	0.40778 0.37480 0.88280 -0.80000
O 	O 	0.33522 0.49100 0.26000 -0.79500
P 	P 	0.05959 0.87949 0.51465 0.81600
P 	P 	0.17164 0.21536 0.39409 0.76000
P 	P 	0.26241 0.88908 0.56219 0.79800
P 	P 	0.15797 0.88565 0.20493 0.78900
Al	Al	0.16167 0.79652 0.40892 2.39800
Al	Al	0.08374 0.10027 0.50792 2.40000
Al	Al	0.24608 0.10860 0.55953 2.39900
Al	Al	0.16015 0.89128 0.69667 2.39800
F 	F 	0.16788 0.04470 0.52680 -0.96900
O 	O 	0.22897 0.16260 0.44500 -0.75800
O 	O 	0.06186 0.98200 0.47520 -0.78100
O 	O 	0.22339 0.86450 0.46630 -0.79100
O 	O 	0.11318 0.18710 0.43520 -0.71600
O 	O 	0.22535 0.86830 0.64240 -0.80800
O 	O 	0.09876 0.87280 0.13260 -0.70900
O 	O 	0.99282 0.84590 0.51040 -0.65800
O 	O 	0.28447 0.99430 0.56360 -0.66900
O 	O 	0.15195 0.82120 0.28930 -0.74200
O 	O 	0.32118 0.82662 0.57640 -0.72200
O 	O 	0.18042 0.32530 0.40550 -0.62600
O 	O 	0.09318 0.81140 0.45510 -0.75600
O 	O 	0.16196 0.19150 0.28810 -0.74700
O 	O 	0.21551 0.85510 0.16340 -0.72400
O 	O 	0.09222 0.87480 0.61720 -0.80000
O 	O 	0.16478 0.99100 0.24000 -0.79600
P 	P 	0.55959 0.37949 0.51465 0.81600
P 	P 	0.67164 0.71536 0.39409 0.76000
P 	P 	0.76241 0.38908 0.56219 0.79800
P 	P 	0.65797 0.38565 0.20493 0.78800
Al	Al	0.66167 0.29652 0.40892 2.39800
Al	Al	0.58374 0.60027 0.50792 2.40000
Al	Al	0.74608 0.60860 0.55953 2.39900
Al	Al	0.66015 0.39128 0.69667 2.39800
F 	F 	0.66788 0.54470 0.52680 -0.96900
O 	O 	0.72897 0.66260 0.44500 -0.75800
O 	O 	0.56186 0.48200 0.47520 -0.78000
O 	O 	0.72339 0.36450 0.46630 -0.79100
O 	O 	0.61318 0.68710 0.43520 -0.71500
O 	O 	0.72535 0.36830 0.64240 -0.80800
O 	O 	0.59876 0.37280 0.13260 -0.70400
O 	O 	0.49282 0.34590 0.51040 -0.65700
O 	O 	0.78447 0.49430 0.56360 -0.66900
O 	O 	0.65195 0.32120 0.28930 -0.74100
O 	O 	0.82118 0.32662 0.57640 -0.72200
O 	O 	0.68042 0.82530 0.40550 -0.62500
O 	O 	0.59318 0.31140 0.45510 -0.75500
O 	O 	0.66196 0.69150 0.28810 -0.74600
O 	O 	0.71551 0.35510 0.16340 -0.72200
O 	O 	0.59222 0.37480 0.61720 -0.80000
O 	O 	0.66478 0.49100 0.24000 -0.79500
