data_crystal

_cell_length_a 12.28700
_cell_length_b 12.91600
_cell_length_c 18.19900
_cell_angle_alpha 86.73300
_cell_angle_beta  70.44300
_cell_angle_gamma 80.14600

_symmetry_space_group_name_	'P 1'
_symmetry_space_group_name_H-M	'P 1'

loop_
_symmetry_equiv_pos_as_xyz
  x,y,z

loop_
_atom_site_label
_atom_site_type_symbol
_atom_site_fract_x
_atom_site_fract_y
_atom_site_fract_z
_atom_site_charge
Cu	Cu	0.47070 0.36855 0.83854 0.86700
Cu	Cu	0.72428 0.22262 0.83746 0.86100
Cu	Cu	0.64441 0.25428 0.67521 0.87200
Cu	Cu	0.52930 0.63145 0.16146 0.86700
Cu	Cu	0.27572 0.77738 0.16254 0.86100
Cu	Cu	0.35559 0.74572 0.32479 0.87200
H 	H 	0.25430 0.27190 0.89970 -0.02000
H 	H 	0.05620 0.32340 0.96520 0.06800
H 	H 	0.11110 0.61900 0.97680 0.06800
H 	H 	0.30920 0.56750 0.91120 0.02500
H 	H 	0.48470 0.10900 0.69480 -0.02500
H 	H 	0.42050 0.00110 0.62580 0.07600
H 	H 	0.64120 0.09410 0.42480 0.08400
H 	H 	0.70540 0.20210 0.49380 0.03900
H 	H 	0.91350 0.22540 0.56200 0.03000
H 	H 	0.05930 0.32510 0.50170 0.07900
H 	H 	0.81960 0.58790 0.54800 0.08000
H 	H 	0.67380 0.48820 0.60830 0.02200
H 	H 	0.81220 0.04040 0.58700 0.08400
H 	H 	0.94470 0.03020 0.76480 0.07300
H 	H 	0.69430 0.26820 0.02060 0.06700
H 	H 	0.37370 0.42120 0.02580 0.06800
H 	H 	0.67400 0.38000 0.76300 0.15600
H 	H 	0.29250 0.51220 0.76650 0.06700
H 	H 	0.50730 0.39890 0.56130 0.09700
H 	H 	0.73030 0.04290 0.92900 -0.03700
H 	H 	0.82230 0.95260 0.01370 0.07100
H 	H 	0.07510 0.12070 0.91690 0.07500
H 	H 	0.93440 0.24020 0.88050 -0.03000
H 	H 	0.74570 0.72810 0.10030 -0.02100
H 	H 	0.94380 0.67660 0.03480 0.06700
H 	H 	0.88890 0.38100 0.02320 0.06800
H 	H 	0.69080 0.43250 0.08880 0.02500
H 	H 	0.51530 0.89100 0.30520 -0.02500
H 	H 	0.57950 0.99890 0.37420 0.07600
H 	H 	0.35880 0.90590 0.57520 0.08400
H 	H 	0.29460 0.79790 0.50620 0.03900
H 	H 	0.08650 0.77460 0.43800 0.03000
H 	H 	0.94070 0.67490 0.49830 0.07900
H 	H 	0.18040 0.41210 0.45200 0.08000
H 	H 	0.32620 0.51180 0.39170 0.02200
H 	H 	0.18780 0.95960 0.41300 0.08400
H 	H 	0.05530 0.96980 0.23520 0.07300
H 	H 	0.30570 0.73180 0.97940 0.06700
H 	H 	0.62630 0.57880 0.97420 0.06800
H 	H 	0.32600 0.62000 0.23700 0.15600
H 	H 	0.70750 0.48780 0.23350 0.06700
H 	H 	0.49270 0.60110 0.43870 0.09700
H 	H 	0.26970 0.95710 0.07100 -0.03700
H 	H 	0.17770 0.04740 0.98630 0.07100
H 	H 	0.92490 0.87930 0.08310 0.07500
H 	H 	0.06560 0.75980 0.11950 -0.03000
C 	C 	0.22560 0.34150 0.91510 0.05200
C 	C 	0.10690 0.37230 0.95440 -0.11700
C 	C 	0.06400 0.47630 0.97750 0.04900
C 	C 	0.13980 0.54950 0.96130 -0.10900
C 	C 	0.25850 0.51860 0.92200 0.04200
C 	C 	0.51610 0.10600 0.64070 0.05800
C 	C 	0.47760 0.04140 0.59930 -0.11600
C 	C 	0.52450 0.03690 0.51850 0.05500
C 	C 	0.60980 0.09710 0.47890 -0.10600
C 	C 	0.64830 0.16180 0.52030 0.05800
C 	C 	0.89470 0.29800 0.55920 0.05700
C 	C 	0.98200 0.35780 0.52310 -0.09700
C 	C 	0.95390 0.46640 0.51880 0.05700
C 	C 	0.83840 0.51520 0.55080 -0.09900
C 	C 	0.75110 0.45550 0.58690 0.06100
C 	C 	0.82510 0.05690 0.63220 -0.07600
C 	C 	0.90880 0.99950 0.66360 0.20400
C 	C 	0.90000 0.05120 0.73260 -0.08300
C 	C 	0.63050 0.29720 0.00540 -0.08200
C 	C 	0.52280 0.35270 0.05430 0.19000
C 	C 	0.44940 0.38370 0.00830 -0.07900
C 	C 	0.35810 0.48070 0.72700 -0.05500
C 	C 	0.37530 0.49600 0.64330 0.22600
C 	C 	0.47200 0.41500 0.61390 -0.09300
C 	C 	0.79520 0.06600 0.93380 0.10300
C 	C 	0.85390 0.00700 0.98240 -0.13600
C 	C 	0.96350 0.03360 0.98130 0.06200
C 	C 	0.99800 0.10900 0.93160 -0.14900
C 	C 	0.91770 0.17400 0.90000 0.10700
C 	C 	0.77440 0.65850 0.08490 0.05200
C 	C 	0.89310 0.62770 0.04560 -0.11700
C 	C 	0.93600 0.52370 0.02250 0.04900
C 	C 	0.86020 0.45050 0.03870 -0.10900
C 	C 	0.74150 0.48140 0.07800 0.04200
C 	C 	0.48390 0.89400 0.35930 0.05800
C 	C 	0.52240 0.95860 0.40070 -0.11600
C 	C 	0.47550 0.96310 0.48150 0.05500
C 	C 	0.39020 0.90290 0.52110 -0.10600
C 	C 	0.35170 0.83820 0.47970 0.05800
C 	C 	0.10530 0.70200 0.44080 0.05700
C 	C 	0.01800 0.64220 0.47690 -0.09700
C 	C 	0.04610 0.53360 0.48120 0.05700
C 	C 	0.16160 0.48480 0.44920 -0.09900
C 	C 	0.24890 0.54450 0.41310 0.06100
C 	C 	0.17490 0.94310 0.36780 -0.07600
C 	C 	0.09120 0.00050 0.33640 0.20400
C 	C 	0.10000 0.94880 0.26740 -0.08300
C 	C 	0.36950 0.70280 0.99460 -0.08200
C 	C 	0.47720 0.64730 0.94570 0.19000
C 	C 	0.55060 0.61630 0.99170 -0.07900
C 	C 	0.64190 0.51930 0.27300 -0.05500
C 	C 	0.62470 0.50400 0.35670 0.22600
C 	C 	0.52800 0.58500 0.38610 -0.09300
C 	C 	0.20480 0.93400 0.06620 0.10300
C 	C 	0.14610 0.99300 0.01760 -0.13600
C 	C 	0.03650 0.96640 0.01870 0.06200
C 	C 	0.00200 0.89100 0.06840 -0.14900
C 	C 	0.08230 0.82600 0.10000 0.10700
N 	N 	0.30140 0.41460 0.89900 -0.22300
N 	N 	0.60140 0.16620 0.60120 -0.21400
N 	N 	0.77920 0.34690 0.59110 -0.18200
N 	N 	0.81080 0.14050 0.74390 -0.19300
N 	N 	0.76460 0.14410 0.68190 -0.19500
N 	N 	0.51170 0.34740 0.93110 -0.19400
N 	N 	0.62370 0.29390 0.92930 -0.19800
N 	N 	0.51240 0.35920 0.67650 -0.18800
N 	N 	0.44460 0.41810 0.73970 -0.17400
N 	N 	0.82620 0.14720 0.89750 -0.25800
N 	N 	0.69860 0.58540 0.10100 -0.22300
N 	N 	0.39860 0.83380 0.39880 -0.21400
N 	N 	0.22080 0.65310 0.40890 -0.18200
N 	N 	0.18920 0.85950 0.25610 -0.19300
N 	N 	0.23540 0.85590 0.31810 -0.19500
N 	N 	0.48830 0.65260 0.06890 -0.19400
N 	N 	0.37630 0.70610 0.07070 -0.19800
N 	N 	0.48760 0.64080 0.32350 -0.18800
N 	N 	0.55540 0.58190 0.26030 -0.17400
N 	N 	0.17380 0.85280 0.10250 -0.25800
Cl	Cl	0.48900 0.36850 0.15080 -0.40800
Cl	Cl	0.00700 0.90060 0.61780 -0.35100
Cl	Cl	0.29940 0.55830 0.59570 -0.37200
Cl	Cl	0.51100 0.63150 0.84920 -0.40800
Cl	Cl	0.99300 0.09940 0.38220 -0.35100
Cl	Cl	0.70060 0.44170 0.40430 -0.37200
O 	O 	0.63570 0.31770 0.77700 -0.65000
O 	O 	0.36430 0.68230 0.22300 -0.65000
