data_crystal

_cell_length_a 24.62000
_cell_length_b 24.62000
_cell_length_c 83.68000
_cell_angle_alpha 90.00000
_cell_angle_beta  90.00000
_cell_angle_gamma 90.00000

_symmetry_space_group_name_	'P 1'
_symmetry_space_group_name_H-M	'P 1'

loop_
_symmetry_equiv_pos_as_xyz
  x,y,z

loop_
_atom_site_label
_atom_site_type_symbol
_atom_site_fract_x
_atom_site_fract_y
_atom_site_fract_z
_atom_site_charge
Cr	Cr	0.78735 0.29120 0.01820 1.57700
Cr	Cr	0.84410 0.27463 0.05395 1.54700
Cr	Cr	0.71380 0.29650 0.05030 1.59900
Ag	Ag	0.79051 0.51751 0.13078 0.49000
Ag	Ag	0.06967 0.51908 0.01079 0.49300
O 	O 	0.77420 0.28860 0.04000 -0.80900
O 	O 	0.74470 0.35920 0.01856 -0.52700
O 	O 	0.69020 0.36040 0.03852 -0.54100
C 	C 	0.70550 0.37950 0.02580 0.46600
C 	C 	0.67930 0.43020 0.01985 -0.12000
C 	C 	0.64030 0.45690 0.02904 -0.02100
H 	H 	0.62940 0.44240 0.03910 0.03600
C 	C 	0.61750 0.50500 0.02350 0.00500
H 	H 	0.59010 0.52210 0.02960 -0.00400
N 	N 	0.63270 0.52790 0.00970 -0.19500
C 	C 	0.67100 0.50300 0.00103 0.00200
H 	H 	0.68260 0.51930 0.99130 -0.00900
C 	C 	0.69470 0.45420 0.00566 -0.02000
H 	H 	0.72130 0.43750 0.99910 0.03100
O 	O 	0.74130 0.33430 0.06760 -0.59900
O 	O 	0.82910 0.33010 0.07075 -0.53000
C 	C 	0.78280 0.34950 0.07345 0.49400
C 	C 	0.78370 0.39520 0.08484 -0.12900
C 	C 	0.73820 0.42710 0.08813 -0.01500
H 	H 	0.70620 0.42340 0.08190 0.03200
C 	C 	0.74010 0.46440 0.10060 0.00300
H 	H 	0.70940 0.48680 0.10250 -0.00100
N 	N 	0.78370 0.46990 0.11000 -0.19100
C 	C 	0.82680 0.43850 0.10709 -0.00100
H 	H 	0.85770 0.44160 0.11380 -0.01100
C 	C 	0.82840 0.40130 0.09460 -0.01300
H 	H 	0.86010 0.38010 0.09280 0.03800
O 	O 	0.88910 0.32610 0.04399 -0.56700
O 	O 	0.84860 0.33310 0.02013 -0.56600
C 	C 	0.88530 0.34520 0.03050 0.44300
C 	C 	0.92630 0.38660 0.02500 -0.09700
C 	C 	0.97050 0.40010 0.03462 -0.02800
H 	H 	0.97510 0.38320 0.04480 0.04000
C 	C 	0.00790 0.43830 0.02930 0.00400
H 	H 	0.03720 0.44800 0.03610 -0.01200
N 	N 	0.00410 0.46170 0.01490 -0.18900
C 	C 	0.96240 0.44790 0.00553 0.01600
H 	H 	0.95980 0.46390 0.99520 -0.00200
C 	C 	0.92270 0.41100 0.01022 -0.03200
H 	H 	0.89330 0.40280 0.00330 0.04000
O 	O 	0.71870 0.23410 0.06426 -0.57100
O 	O 	0.80290 0.22080 0.06520 -0.59000
C 	C 	0.75650 0.20970 0.06902 0.57000
C 	C 	0.75040 0.16130 0.07903 -0.16900
C 	C 	0.69950 0.14610 0.08480 0.01100
H 	H 	0.66810 0.16630 0.08200 0.02700
C 	C 	0.69500 0.10120 0.09480 -0.01500
H 	H 	0.66030 0.09200 0.09900 -0.00900
N 	N 	0.73780 0.07060 0.09876 -0.17500
C 	C 	0.78640 0.08440 0.09290 -0.00800
H 	H 	0.81690 0.06240 0.09550 0.00800
C 	C 	0.79420 0.12950 0.08320 0.01400
H 	H 	0.82960 0.13830 0.07940 0.02600
O 	O 	0.72450 0.24800 0.01400 -0.55500
O 	O 	0.68120 0.24630 0.03610 -0.55000
C 	C 	0.68600 0.23200 0.02210 0.49700
C 	C 	0.64460 0.19550 0.01528 -0.13500
C 	C 	0.65050 0.17480 0.99986 -0.01000
H 	H 	0.68170 0.18380 0.99370 0.03200
C 	C 	0.61070 0.14100 0.99358 -0.00300
H 	H 	0.61460 0.12820 0.98290 -0.01100
N 	N 	0.56700 0.12590 0.00200 -0.18800
C 	C 	0.56190 0.14470 0.01690 0.00300
H 	H 	0.53140 0.13360 0.02300 0.00100
C 	C 	0.59940 0.17970 0.02384 -0.00900
H 	H 	0.59400 0.19260 0.03440 0.03400
O 	O 	0.82720 0.22410 0.01615 -0.53300
O 	O 	0.86620 0.21290 0.03943 -0.52400
C 	C 	0.85900 0.20020 0.02540 0.45100
C 	C 	0.89090 0.15350 0.01888 -0.10400
C 	C 	0.93200 0.12990 0.02801 -0.02900
H 	H 	0.93910 0.14260 0.03850 0.03800
C 	C 	0.96250 0.08770 0.02160 0.00800
H 	H 	0.99120 0.07270 0.02780 -0.01000
N 	N 	0.95290 0.06730 0.00710 -0.19300
C 	C 	0.91270 0.08900 0.99847 0.01100
H 	H 	0.90520 0.07430 0.98820 -0.00500
C 	C 	0.88130 0.13220 0.00390 -0.02800
H 	H 	0.85350 0.14690 0.99730 0.04000
Cr	Cr	0.21265 0.70880 0.51820 1.57800
Cr	Cr	0.15590 0.72537 0.55395 1.54800
Cr	Cr	0.28620 0.70350 0.55030 1.60000
Ag	Ag	0.20949 0.48249 0.63078 0.49100
Ag	Ag	0.93033 0.48092 0.51079 0.49400
O 	O 	0.22580 0.71140 0.54000 -0.80800
O 	O 	0.25530 0.64080 0.51856 -0.52600
O 	O 	0.30980 0.63960 0.53852 -0.54000
C 	C 	0.29450 0.62050 0.52580 0.46700
C 	C 	0.32070 0.56980 0.51985 -0.11900
C 	C 	0.35970 0.54310 0.52904 -0.02000
H 	H 	0.37060 0.55760 0.53910 0.03700
C 	C 	0.38250 0.49500 0.52350 0.00600
H 	H 	0.40990 0.47790 0.52960 -0.00300
N 	N 	0.36730 0.47210 0.50970 -0.19400
C 	C 	0.32900 0.49700 0.50103 0.00300
H 	H 	0.31740 0.48070 0.49130 -0.00800
C 	C 	0.30530 0.54580 0.50566 -0.01900
H 	H 	0.27870 0.56250 0.49910 0.03200
O 	O 	0.25870 0.66570 0.56760 -0.59800
O 	O 	0.17090 0.66990 0.57075 -0.52900
C 	C 	0.21720 0.65050 0.57345 0.49500
C 	C 	0.21630 0.60480 0.58484 -0.12800
C 	C 	0.26180 0.57290 0.58813 -0.01400
H 	H 	0.29380 0.57660 0.58190 0.03300
C 	C 	0.25990 0.53560 0.60060 0.00400
H 	H 	0.29060 0.51320 0.60250 -0.00000
N 	N 	0.21630 0.53010 0.61000 -0.19000
C 	C 	0.17320 0.56150 0.60709 0.00000
H 	H 	0.14230 0.55840 0.61380 -0.01000
C 	C 	0.17160 0.59870 0.59460 -0.01300
H 	H 	0.13990 0.61990 0.59280 0.03800
O 	O 	0.11090 0.67390 0.54399 -0.56700
O 	O 	0.15140 0.66690 0.52013 -0.56600
C 	C 	0.11470 0.65480 0.53050 0.44300
C 	C 	0.07370 0.61340 0.52500 -0.09700
C 	C 	0.02950 0.59990 0.53462 -0.02800
H 	H 	0.02490 0.61680 0.54480 0.04000
C 	C 	0.99210 0.56170 0.52930 0.00400
H 	H 	0.96280 0.55200 0.53610 -0.01200
N 	N 	0.99590 0.53830 0.51490 -0.18900
C 	C 	0.03760 0.55210 0.50553 0.01600
H 	H 	0.04020 0.53610 0.49520 -0.00200
C 	C 	0.07730 0.58900 0.51022 -0.03200
H 	H 	0.10670 0.59720 0.50330 0.04000
O 	O 	0.28130 0.76590 0.56426 -0.57100
O 	O 	0.19710 0.77920 0.56520 -0.59000
C 	C 	0.24350 0.79030 0.56902 0.57000
C 	C 	0.24960 0.83870 0.57903 -0.16900
C 	C 	0.30050 0.85390 0.58480 0.01100
H 	H 	0.33190 0.83370 0.58200 0.02700
C 	C 	0.30500 0.89880 0.59480 -0.01500
H 	H 	0.33970 0.90800 0.59900 -0.00900
N 	N 	0.26220 0.92940 0.59876 -0.17500
C 	C 	0.21360 0.91560 0.59290 -0.00800
H 	H 	0.18310 0.93760 0.59550 0.00800
C 	C 	0.20580 0.87050 0.58320 0.01400
H 	H 	0.17040 0.86170 0.57940 0.02600
O 	O 	0.27550 0.75200 0.51400 -0.55500
O 	O 	0.31880 0.75370 0.53610 -0.55000
C 	C 	0.31400 0.76800 0.52210 0.49700
C 	C 	0.35540 0.80450 0.51528 -0.13500
C 	C 	0.34950 0.82520 0.49986 -0.01000
H 	H 	0.31830 0.81620 0.49370 0.03200
C 	C 	0.38930 0.85900 0.49358 -0.00300
H 	H 	0.38540 0.87180 0.48290 -0.01100
N 	N 	0.43300 0.87410 0.50200 -0.18800
C 	C 	0.43810 0.85530 0.51690 0.00300
H 	H 	0.46860 0.86640 0.52300 0.00100
C 	C 	0.40060 0.82030 0.52384 -0.00900
H 	H 	0.40600 0.80740 0.53440 0.03400
O 	O 	0.17280 0.77590 0.51615 -0.53300
O 	O 	0.13380 0.78710 0.53943 -0.52400
C 	C 	0.14100 0.79980 0.52540 0.45100
C 	C 	0.10910 0.84650 0.51888 -0.10400
C 	C 	0.06800 0.87010 0.52801 -0.02900
H 	H 	0.06090 0.85740 0.53850 0.03800
C 	C 	0.03750 0.91230 0.52160 0.00800
H 	H 	0.00880 0.92730 0.52780 -0.01000
N 	N 	0.04710 0.93270 0.50710 -0.19300
C 	C 	0.08730 0.91100 0.49847 0.01100
H 	H 	0.09480 0.92570 0.48820 -0.00500
C 	C 	0.11870 0.86780 0.50390 -0.02800
H 	H 	0.14650 0.85310 0.49730 0.04000
Cr	Cr	0.20880 0.28735 0.26820 1.57800
Cr	Cr	0.22537 0.34410 0.30395 1.54800
Cr	Cr	0.20350 0.21380 0.30030 1.60000
Ag	Ag	0.98249 0.29051 0.38078 0.49000
Ag	Ag	0.98092 0.56967 0.26079 0.49300
O 	O 	0.21140 0.27420 0.29000 -0.80800
O 	O 	0.14080 0.24470 0.26856 -0.52600
O 	O 	0.13960 0.19020 0.28852 -0.54000
C 	C 	0.12050 0.20550 0.27580 0.46800
C 	C 	0.06980 0.17930 0.26985 -0.12300
C 	C 	0.04310 0.14030 0.27904 -0.01500
H 	H 	0.05760 0.12940 0.28910 0.03500
C 	C 	0.99500 0.11750 0.27350 0.00100
H 	H 	0.97790 0.09010 0.27960 -0.00300
N 	N 	0.97210 0.13270 0.25970 -0.19200
C 	C 	0.99700 0.17100 0.25103 -0.00200
H 	H 	0.98070 0.18260 0.24130 -0.00700
C 	C 	0.04580 0.19470 0.25566 -0.01400
H 	H 	0.06250 0.22130 0.24910 0.03100
O 	O 	0.16570 0.24130 0.31760 -0.59800
O 	O 	0.16990 0.32910 0.32075 -0.52900
C 	C 	0.15050 0.28280 0.32345 0.49500
C 	C 	0.10480 0.28370 0.33484 -0.12800
C 	C 	0.07290 0.23820 0.33813 -0.01400
H 	H 	0.07660 0.20620 0.33190 0.03300
C 	C 	0.03560 0.24010 0.35060 0.00400
H 	H 	0.01320 0.20940 0.35250 0.00100
N 	N 	0.03010 0.28370 0.36000 -0.18900
C 	C 	0.06150 0.32680 0.35709 0.00100
H 	H 	0.05840 0.35770 0.36380 -0.01000
C 	C 	0.09870 0.32840 0.34460 -0.01300
H 	H 	0.11990 0.36010 0.34280 0.03800
O 	O 	0.17390 0.38910 0.29399 -0.56600
O 	O 	0.16690 0.34860 0.27013 -0.56600
C 	C 	0.15480 0.38530 0.28050 0.44300
C 	C 	0.11340 0.42630 0.27500 -0.09700
C 	C 	0.09990 0.47050 0.28462 -0.03100
H 	H 	0.11680 0.47510 0.29480 0.04100
C 	C 	0.06170 0.50790 0.27930 0.00700
H 	H 	0.05200 0.53720 0.28610 -0.01200
N 	N 	0.03830 0.50410 0.26490 -0.18800
C 	C 	0.05210 0.46240 0.25553 0.01400
H 	H 	0.03610 0.45980 0.24520 -0.00200
C 	C 	0.08900 0.42270 0.26022 -0.03200
H 	H 	0.09720 0.39330 0.25330 0.04000
O 	O 	0.26590 0.21870 0.31426 -0.57100
O 	O 	0.27920 0.30290 0.31520 -0.59000
C 	C 	0.29030 0.25650 0.31902 0.57000
C 	C 	0.33870 0.25040 0.32903 -0.16800
C 	C 	0.35390 0.19950 0.33480 0.01100
H 	H 	0.33370 0.16810 0.33200 0.02700
C 	C 	0.39880 0.19500 0.34480 -0.01500
H 	H 	0.40800 0.16030 0.34900 -0.00900
N 	N 	0.42940 0.23780 0.34876 -0.17400
C 	C 	0.41560 0.28640 0.34290 -0.00800
H 	H 	0.43760 0.31690 0.34550 0.00900
C 	C 	0.37050 0.29420 0.33320 0.01400
H 	H 	0.36170 0.32960 0.32940 0.02600
O 	O 	0.25200 0.22450 0.26400 -0.55500
O 	O 	0.25370 0.18120 0.28610 -0.55000
C 	C 	0.26800 0.18600 0.27210 0.49700
C 	C 	0.30450 0.14460 0.26528 -0.13500
C 	C 	0.32520 0.15050 0.24986 -0.01000
H 	H 	0.31620 0.18170 0.24370 0.03200
C 	C 	0.35900 0.11070 0.24358 -0.00300
H 	H 	0.37180 0.11460 0.23290 -0.01100
N 	N 	0.37410 0.06700 0.25200 -0.18800
C 	C 	0.35530 0.06190 0.26690 0.00300
H 	H 	0.36640 0.03140 0.27300 0.00100
C 	C 	0.32030 0.09940 0.27384 -0.00900
H 	H 	0.30740 0.09400 0.28440 0.03400
O 	O 	0.27590 0.32720 0.26615 -0.53300
O 	O 	0.28710 0.36620 0.28943 -0.52400
C 	C 	0.29980 0.35900 0.27540 0.45100
C 	C 	0.34650 0.39090 0.26888 -0.10400
C 	C 	0.37010 0.43200 0.27801 -0.02900
H 	H 	0.35740 0.43910 0.28850 0.03800
C 	C 	0.41230 0.46250 0.27160 0.00800
H 	H 	0.42730 0.49120 0.27780 -0.01000
N 	N 	0.43270 0.45290 0.25710 -0.19400
C 	C 	0.41100 0.41270 0.24847 0.01100
H 	H 	0.42570 0.40520 0.23820 -0.00500
C 	C 	0.36780 0.38130 0.25390 -0.02800
H 	H 	0.35310 0.35350 0.24730 0.04000
Cr	Cr	0.79120 0.71265 0.76820 1.57800
Cr	Cr	0.77463 0.65590 0.80395 1.54800
Cr	Cr	0.79650 0.78620 0.80030 1.60000
Ag	Ag	0.01751 0.70949 0.88078 0.49000
Ag	Ag	0.01908 0.43033 0.76079 0.49300
O 	O 	0.78860 0.72580 0.79000 -0.80800
O 	O 	0.85920 0.75530 0.76856 -0.52600
O 	O 	0.86040 0.80980 0.78852 -0.54000
C 	C 	0.87950 0.79450 0.77580 0.46800
C 	C 	0.93020 0.82070 0.76985 -0.12300
C 	C 	0.95690 0.85970 0.77904 -0.01500
H 	H 	0.94240 0.87060 0.78910 0.03500
C 	C 	0.00500 0.88250 0.77350 0.00100
H 	H 	0.02210 0.90990 0.77960 -0.00300
N 	N 	0.02790 0.86730 0.75970 -0.19200
C 	C 	0.00300 0.82900 0.75103 -0.00200
H 	H 	0.01930 0.81740 0.74130 -0.00700
C 	C 	0.95420 0.80530 0.75566 -0.01400
H 	H 	0.93750 0.77870 0.74910 0.03100
O 	O 	0.83430 0.75870 0.81760 -0.59800
O 	O 	0.83010 0.67090 0.82075 -0.52900
C 	C 	0.84950 0.71720 0.82345 0.49500
C 	C 	0.89520 0.71630 0.83484 -0.12800
C 	C 	0.92710 0.76180 0.83813 -0.01400
H 	H 	0.92340 0.79380 0.83190 0.03300
C 	C 	0.96440 0.75990 0.85060 0.00400
H 	H 	0.98680 0.79060 0.85250 0.00100
N 	N 	0.96990 0.71630 0.86000 -0.18900
C 	C 	0.93850 0.67320 0.85709 0.00100
H 	H 	0.94160 0.64230 0.86380 -0.01000
C 	C 	0.90130 0.67160 0.84460 -0.01300
H 	H 	0.88010 0.63990 0.84280 0.03800
O 	O 	0.82610 0.61090 0.79399 -0.56600
O 	O 	0.83310 0.65140 0.77013 -0.56600
C 	C 	0.84520 0.61470 0.78050 0.44300
C 	C 	0.88660 0.57370 0.77500 -0.09700
C 	C 	0.90010 0.52950 0.78462 -0.03100
H 	H 	0.88320 0.52490 0.79480 0.04100
C 	C 	0.93830 0.49210 0.77930 0.00700
H 	H 	0.94800 0.46280 0.78610 -0.01200
N 	N 	0.96170 0.49590 0.76490 -0.18800
C 	C 	0.94790 0.53760 0.75553 0.01400
H 	H 	0.96390 0.54020 0.74520 -0.00200
C 	C 	0.91100 0.57730 0.76022 -0.03200
H 	H 	0.90280 0.60670 0.75330 0.04000
O 	O 	0.73410 0.78130 0.81426 -0.57100
O 	O 	0.72080 0.69710 0.81520 -0.59000
C 	C 	0.70970 0.74350 0.81902 0.57000
C 	C 	0.66130 0.74960 0.82903 -0.16800
C 	C 	0.64610 0.80050 0.83480 0.01100
H 	H 	0.66630 0.83190 0.83200 0.02700
C 	C 	0.60120 0.80500 0.84480 -0.01500
H 	H 	0.59200 0.83970 0.84900 -0.00900
N 	N 	0.57060 0.76220 0.84876 -0.17400
C 	C 	0.58440 0.71360 0.84290 -0.00800
H 	H 	0.56240 0.68310 0.84550 0.00900
C 	C 	0.62950 0.70580 0.83320 0.01400
H 	H 	0.63830 0.67040 0.82940 0.02600
O 	O 	0.74800 0.77550 0.76400 -0.55500
O 	O 	0.74630 0.81880 0.78610 -0.55000
C 	C 	0.73200 0.81400 0.77210 0.49700
C 	C 	0.69550 0.85540 0.76528 -0.13500
C 	C 	0.67480 0.84950 0.74986 -0.01000
H 	H 	0.68380 0.81830 0.74370 0.03200
C 	C 	0.64100 0.88930 0.74358 -0.00300
H 	H 	0.62820 0.88540 0.73290 -0.01100
N 	N 	0.62590 0.93300 0.75200 -0.18800
C 	C 	0.64470 0.93810 0.76690 0.00300
H 	H 	0.63360 0.96860 0.77300 0.00100
C 	C 	0.67970 0.90060 0.77384 -0.00900
H 	H 	0.69260 0.90600 0.78440 0.03400
O 	O 	0.72410 0.67280 0.76615 -0.53300
O 	O 	0.71290 0.63380 0.78943 -0.52400
C 	C 	0.70020 0.64100 0.77540 0.45100
C 	C 	0.65350 0.60910 0.76888 -0.10400
C 	C 	0.62990 0.56800 0.77801 -0.02900
H 	H 	0.64260 0.56090 0.78850 0.03800
C 	C 	0.58770 0.53750 0.77160 0.00800
H 	H 	0.57270 0.50880 0.77780 -0.01000
N 	N 	0.56730 0.54710 0.75710 -0.19400
C 	C 	0.58900 0.58730 0.74847 0.01100
H 	H 	0.57430 0.59480 0.73820 -0.00500
C 	C 	0.63220 0.61870 0.75390 -0.02800
H 	H 	0.64690 0.64650 0.74730 0.04000
Cr	Cr	0.71265 0.79120 0.23180 1.57800
Cr	Cr	0.65590 0.77463 0.19605 1.54800
Cr	Cr	0.78620 0.79650 0.19970 1.60000
Ag	Ag	0.70949 0.01751 0.11922 0.49000
Ag	Ag	0.43033 0.01908 0.23921 0.49300
O 	O 	0.72580 0.78860 0.21000 -0.80800
O 	O 	0.75530 0.85920 0.23144 -0.52600
O 	O 	0.80980 0.86040 0.21148 -0.54000
C 	C 	0.79450 0.87950 0.22420 0.46800
C 	C 	0.82070 0.93020 0.23015 -0.12300
C 	C 	0.85970 0.95690 0.22096 -0.01500
H 	H 	0.87060 0.94240 0.21090 0.03500
C 	C 	0.88250 0.00500 0.22650 0.00100
H 	H 	0.90990 0.02210 0.22040 -0.00300
N 	N 	0.86730 0.02790 0.24030 -0.19200
C 	C 	0.82900 0.00300 0.24897 -0.00200
H 	H 	0.81740 0.01930 0.25870 -0.00700
C 	C 	0.80530 0.95420 0.24434 -0.01400
H 	H 	0.77870 0.93750 0.25090 0.03100
O 	O 	0.75870 0.83430 0.18240 -0.59800
O 	O 	0.67090 0.83010 0.17925 -0.52900
C 	C 	0.71720 0.84950 0.17655 0.49500
C 	C 	0.71630 0.89520 0.16516 -0.12800
C 	C 	0.76180 0.92710 0.16187 -0.01400
H 	H 	0.79380 0.92340 0.16810 0.03300
C 	C 	0.75990 0.96440 0.14940 0.00400
H 	H 	0.79060 0.98680 0.14750 0.00100
N 	N 	0.71630 0.96990 0.14000 -0.18900
C 	C 	0.67320 0.93850 0.14291 0.00100
H 	H 	0.64230 0.94160 0.13620 -0.01000
C 	C 	0.67160 0.90130 0.15540 -0.01300
H 	H 	0.63990 0.88010 0.15720 0.03800
O 	O 	0.61090 0.82610 0.20601 -0.56600
O 	O 	0.65140 0.83310 0.22987 -0.56600
C 	C 	0.61470 0.84520 0.21950 0.44300
C 	C 	0.57370 0.88660 0.22500 -0.09700
C 	C 	0.52950 0.90010 0.21538 -0.03100
H 	H 	0.52490 0.88320 0.20520 0.04100
C 	C 	0.49210 0.93830 0.22070 0.00700
H 	H 	0.46280 0.94800 0.21390 -0.01200
N 	N 	0.49590 0.96170 0.23510 -0.18800
C 	C 	0.53760 0.94790 0.24447 0.01400
H 	H 	0.54020 0.96390 0.25480 -0.00200
C 	C 	0.57730 0.91100 0.23978 -0.03200
H 	H 	0.60670 0.90280 0.24670 0.04000
O 	O 	0.78130 0.73410 0.18574 -0.57100
O 	O 	0.69710 0.72080 0.18480 -0.59000
C 	C 	0.74350 0.70970 0.18098 0.57000
C 	C 	0.74960 0.66130 0.17097 -0.16800
C 	C 	0.80050 0.64610 0.16520 0.01100
H 	H 	0.83190 0.66630 0.16800 0.02700
C 	C 	0.80500 0.60120 0.15520 -0.01500
H 	H 	0.83970 0.59200 0.15100 -0.00900
N 	N 	0.76220 0.57060 0.15124 -0.17400
C 	C 	0.71360 0.58440 0.15710 -0.00800
H 	H 	0.68310 0.56240 0.15450 0.00900
C 	C 	0.70580 0.62950 0.16680 0.01400
H 	H 	0.67040 0.63830 0.17060 0.02600
O 	O 	0.77550 0.74800 0.23600 -0.55500
O 	O 	0.81880 0.74630 0.21390 -0.55000
C 	C 	0.81400 0.73200 0.22790 0.49700
C 	C 	0.85540 0.69550 0.23472 -0.13500
C 	C 	0.84950 0.67480 0.25014 -0.01000
H 	H 	0.81830 0.68380 0.25630 0.03200
C 	C 	0.88930 0.64100 0.25642 -0.00300
H 	H 	0.88540 0.62820 0.26710 -0.01100
N 	N 	0.93300 0.62590 0.24800 -0.18800
C 	C 	0.93810 0.64470 0.23310 0.00300
H 	H 	0.96860 0.63360 0.22700 0.00100
C 	C 	0.90060 0.67970 0.22616 -0.00900
H 	H 	0.90600 0.69260 0.21560 0.03400
O 	O 	0.67280 0.72410 0.23385 -0.53300
O 	O 	0.63380 0.71290 0.21057 -0.52400
C 	C 	0.64100 0.70020 0.22460 0.45100
C 	C 	0.60910 0.65350 0.23112 -0.10400
C 	C 	0.56800 0.62990 0.22199 -0.02900
H 	H 	0.56090 0.64260 0.21150 0.03800
C 	C 	0.53750 0.58770 0.22840 0.00800
H 	H 	0.50880 0.57270 0.22220 -0.01000
N 	N 	0.54710 0.56730 0.24290 -0.19400
C 	C 	0.58730 0.58900 0.25153 0.01100
H 	H 	0.59480 0.57430 0.26180 -0.00500
C 	C 	0.61870 0.63220 0.24610 -0.02800
H 	H 	0.64650 0.64690 0.25270 0.04000
Cr	Cr	0.28735 0.20880 0.73180 1.57800
Cr	Cr	0.34410 0.22537 0.69605 1.54800
Cr	Cr	0.21380 0.20350 0.69970 1.60000
Ag	Ag	0.29051 0.98249 0.61922 0.49000
Ag	Ag	0.56967 0.98092 0.73921 0.49300
O 	O 	0.27420 0.21140 0.71000 -0.80800
O 	O 	0.24470 0.14080 0.73144 -0.52600
O 	O 	0.19020 0.13960 0.71148 -0.54000
C 	C 	0.20550 0.12050 0.72420 0.46800
C 	C 	0.17930 0.06980 0.73015 -0.12300
C 	C 	0.14030 0.04310 0.72096 -0.01500
H 	H 	0.12940 0.05760 0.71090 0.03500
C 	C 	0.11750 0.99500 0.72650 0.00100
H 	H 	0.09010 0.97790 0.72040 -0.00300
N 	N 	0.13270 0.97210 0.74030 -0.19200
C 	C 	0.17100 0.99700 0.74897 -0.00200
H 	H 	0.18260 0.98070 0.75870 -0.00700
C 	C 	0.19470 0.04580 0.74434 -0.01400
H 	H 	0.22130 0.06250 0.75090 0.03100
O 	O 	0.24130 0.16570 0.68240 -0.59800
O 	O 	0.32910 0.16990 0.67925 -0.52900
C 	C 	0.28280 0.15050 0.67655 0.49500
C 	C 	0.28370 0.10480 0.66516 -0.12800
C 	C 	0.23820 0.07290 0.66187 -0.01400
H 	H 	0.20620 0.07660 0.66810 0.03300
C 	C 	0.24010 0.03560 0.64940 0.00400
H 	H 	0.20940 0.01320 0.64750 0.00100
N 	N 	0.28370 0.03010 0.64000 -0.18900
C 	C 	0.32680 0.06150 0.64291 0.00100
H 	H 	0.35770 0.05840 0.63620 -0.01000
C 	C 	0.32840 0.09870 0.65540 -0.01300
H 	H 	0.36010 0.11990 0.65720 0.03800
O 	O 	0.38910 0.17390 0.70601 -0.56600
O 	O 	0.34860 0.16690 0.72987 -0.56600
C 	C 	0.38530 0.15480 0.71950 0.44300
C 	C 	0.42630 0.11340 0.72500 -0.09700
C 	C 	0.47050 0.09990 0.71538 -0.03100
H 	H 	0.47510 0.11680 0.70520 0.04100
C 	C 	0.50790 0.06170 0.72070 0.00700
H 	H 	0.53720 0.05200 0.71390 -0.01200
N 	N 	0.50410 0.03830 0.73510 -0.18800
C 	C 	0.46240 0.05210 0.74447 0.01400
H 	H 	0.45980 0.03610 0.75480 -0.00200
C 	C 	0.42270 0.08900 0.73978 -0.03200
H 	H 	0.39330 0.09720 0.74670 0.04000
O 	O 	0.21870 0.26590 0.68574 -0.57100
O 	O 	0.30290 0.27920 0.68480 -0.59000
C 	C 	0.25650 0.29030 0.68098 0.57000
C 	C 	0.25040 0.33870 0.67097 -0.16800
C 	C 	0.19950 0.35390 0.66520 0.01100
H 	H 	0.16810 0.33370 0.66800 0.02700
C 	C 	0.19500 0.39880 0.65520 -0.01500
H 	H 	0.16030 0.40800 0.65100 -0.00900
N 	N 	0.23780 0.42940 0.65124 -0.17400
C 	C 	0.28640 0.41560 0.65710 -0.00800
H 	H 	0.31690 0.43760 0.65450 0.00900
C 	C 	0.29420 0.37050 0.66680 0.01400
H 	H 	0.32960 0.36170 0.67060 0.02600
O 	O 	0.22450 0.25200 0.73600 -0.55500
O 	O 	0.18120 0.25370 0.71390 -0.55000
C 	C 	0.18600 0.26800 0.72790 0.49700
C 	C 	0.14460 0.30450 0.73472 -0.13500
C 	C 	0.15050 0.32520 0.75014 -0.01000
H 	H 	0.18170 0.31620 0.75630 0.03200
C 	C 	0.11070 0.35900 0.75642 -0.00300
H 	H 	0.11460 0.37180 0.76710 -0.01100
N 	N 	0.06700 0.37410 0.74800 -0.18800
C 	C 	0.06190 0.35530 0.73310 0.00300
H 	H 	0.03140 0.36640 0.72700 0.00100
C 	C 	0.09940 0.32030 0.72616 -0.00900
H 	H 	0.09400 0.30740 0.71560 0.03400
O 	O 	0.32720 0.27590 0.73385 -0.53300
O 	O 	0.36620 0.28710 0.71057 -0.52400
C 	C 	0.35900 0.29980 0.72460 0.45100
C 	C 	0.39090 0.34650 0.73112 -0.10400
C 	C 	0.43200 0.37010 0.72199 -0.02900
H 	H 	0.43910 0.35740 0.71150 0.03800
C 	C 	0.46250 0.41230 0.72840 0.00800
H 	H 	0.49120 0.42730 0.72220 -0.01000
N 	N 	0.45290 0.43270 0.74290 -0.19400
C 	C 	0.41270 0.41100 0.75153 0.01100
H 	H 	0.40520 0.42570 0.76180 -0.00500
C 	C 	0.38130 0.36780 0.74610 -0.02800
H 	H 	0.35350 0.35310 0.75270 0.04000
Cr	Cr	0.29120 0.78735 0.98180 1.57800
Cr	Cr	0.27463 0.84410 0.94605 1.54800
Cr	Cr	0.29650 0.71380 0.94970 1.60000
Ag	Ag	0.51751 0.79051 0.86922 0.49100
Ag	Ag	0.51908 0.06967 0.98921 0.49400
O 	O 	0.28860 0.77420 0.96000 -0.80800
O 	O 	0.35920 0.74470 0.98144 -0.52600
O 	O 	0.36040 0.69020 0.96148 -0.54000
C 	C 	0.37950 0.70550 0.97420 0.46700
C 	C 	0.43020 0.67930 0.98015 -0.11900
C 	C 	0.45690 0.64030 0.97096 -0.02000
H 	H 	0.44240 0.62940 0.96090 0.03700
C 	C 	0.50500 0.61750 0.97650 0.00600
H 	H 	0.52210 0.59010 0.97040 -0.00300
N 	N 	0.52790 0.63270 0.99030 -0.19400
C 	C 	0.50300 0.67100 0.99897 0.00300
H 	H 	0.51930 0.68260 0.00870 -0.00800
C 	C 	0.45420 0.69470 0.99434 -0.01900
H 	H 	0.43750 0.72130 0.00090 0.03200
O 	O 	0.33430 0.74130 0.93240 -0.59800
O 	O 	0.33010 0.82910 0.92925 -0.52900
C 	C 	0.34950 0.78280 0.92655 0.49500
C 	C 	0.39520 0.78370 0.91516 -0.12800
C 	C 	0.42710 0.73820 0.91187 -0.01400
H 	H 	0.42340 0.70620 0.91810 0.03300
C 	C 	0.46440 0.74010 0.89940 0.00400
H 	H 	0.48680 0.70940 0.89750 -0.00000
N 	N 	0.46990 0.78370 0.89000 -0.19000
C 	C 	0.43850 0.82680 0.89291 0.00000
H 	H 	0.44160 0.85770 0.88620 -0.01000
C 	C 	0.40130 0.82840 0.90540 -0.01300
H 	H 	0.38010 0.86010 0.90720 0.03800
O 	O 	0.32610 0.88910 0.95601 -0.56700
O 	O 	0.33310 0.84860 0.97987 -0.56600
C 	C 	0.34520 0.88530 0.96950 0.44300
C 	C 	0.38660 0.92630 0.97500 -0.09700
C 	C 	0.40010 0.97050 0.96538 -0.02800
H 	H 	0.38320 0.97510 0.95520 0.04000
C 	C 	0.43830 0.00790 0.97070 0.00400
H 	H 	0.44800 0.03720 0.96390 -0.01200
N 	N 	0.46170 0.00410 0.98510 -0.18900
C 	C 	0.44790 0.96240 0.99447 0.01600
H 	H 	0.46390 0.95980 0.00480 -0.00200
C 	C 	0.41100 0.92270 0.98978 -0.03200
H 	H 	0.40280 0.89330 0.99670 0.04000
O 	O 	0.23410 0.71870 0.93574 -0.57100
O 	O 	0.22080 0.80290 0.93480 -0.59000
C 	C 	0.20970 0.75650 0.93098 0.57000
C 	C 	0.16130 0.75040 0.92097 -0.16900
C 	C 	0.14610 0.69950 0.91520 0.01100
H 	H 	0.16630 0.66810 0.91800 0.02700
C 	C 	0.10120 0.69500 0.90520 -0.01500
H 	H 	0.09200 0.66030 0.90100 -0.00900
N 	N 	0.07060 0.73780 0.90124 -0.17500
C 	C 	0.08440 0.78640 0.90710 -0.00800
H 	H 	0.06240 0.81690 0.90450 0.00800
C 	C 	0.12950 0.79420 0.91680 0.01400
H 	H 	0.13830 0.82960 0.92060 0.02600
O 	O 	0.24800 0.72450 0.98600 -0.55500
O 	O 	0.24630 0.68120 0.96390 -0.55000
C 	C 	0.23200 0.68600 0.97790 0.49700
C 	C 	0.19550 0.64460 0.98472 -0.13500
C 	C 	0.17480 0.65050 0.00014 -0.01000
H 	H 	0.18380 0.68170 0.00630 0.03200
C 	C 	0.14100 0.61070 0.00642 -0.00300
H 	H 	0.12820 0.61460 0.01710 -0.01100
N 	N 	0.12590 0.56700 0.99800 -0.18800
C 	C 	0.14470 0.56190 0.98310 0.00300
H 	H 	0.13360 0.53140 0.97700 0.00100
C 	C 	0.17970 0.59940 0.97616 -0.00900
H 	H 	0.19260 0.59400 0.96560 0.03400
O 	O 	0.22410 0.82720 0.98385 -0.53300
O 	O 	0.21290 0.86620 0.96057 -0.52400
C 	C 	0.20020 0.85900 0.97460 0.45100
C 	C 	0.15350 0.89090 0.98112 -0.10400
C 	C 	0.12990 0.93200 0.97199 -0.02900
H 	H 	0.14260 0.93910 0.96150 0.03800
C 	C 	0.08770 0.96250 0.97840 0.00800
H 	H 	0.07270 0.99120 0.97220 -0.01000
N 	N 	0.06730 0.95290 0.99290 -0.19300
C 	C 	0.08900 0.91270 0.00153 0.01100
H 	H 	0.07430 0.90520 0.01180 -0.00500
C 	C 	0.13220 0.88130 0.99610 -0.02800
H 	H 	0.14690 0.85350 0.00270 0.04000
Cr	Cr	0.70880 0.21265 0.48180 1.57800
Cr	Cr	0.72537 0.15590 0.44605 1.54800
Cr	Cr	0.70350 0.28620 0.44970 1.60000
Ag	Ag	0.48249 0.20949 0.36922 0.49100
Ag	Ag	0.48092 0.93033 0.48921 0.49400
O 	O 	0.71140 0.22580 0.46000 -0.80800
O 	O 	0.64080 0.25530 0.48144 -0.52600
O 	O 	0.63960 0.30980 0.46148 -0.54000
C 	C 	0.62050 0.29450 0.47420 0.46700
C 	C 	0.56980 0.32070 0.48015 -0.11900
C 	C 	0.54310 0.35970 0.47096 -0.02000
H 	H 	0.55760 0.37060 0.46090 0.03700
C 	C 	0.49500 0.38250 0.47650 0.00600
H 	H 	0.47790 0.40990 0.47040 -0.00300
N 	N 	0.47210 0.36730 0.49030 -0.19400
C 	C 	0.49700 0.32900 0.49897 0.00300
H 	H 	0.48070 0.31740 0.50870 -0.00800
C 	C 	0.54580 0.30530 0.49434 -0.01900
H 	H 	0.56250 0.27870 0.50090 0.03200
O 	O 	0.66570 0.25870 0.43240 -0.59800
O 	O 	0.66990 0.17090 0.42925 -0.52900
C 	C 	0.65050 0.21720 0.42655 0.49500
C 	C 	0.60480 0.21630 0.41516 -0.12800
C 	C 	0.57290 0.26180 0.41187 -0.01400
H 	H 	0.57660 0.29380 0.41810 0.03300
C 	C 	0.53560 0.25990 0.39940 0.00400
H 	H 	0.51320 0.29060 0.39750 -0.00000
N 	N 	0.53010 0.21630 0.39000 -0.19000
C 	C 	0.56150 0.17320 0.39291 0.00000
H 	H 	0.55840 0.14230 0.38620 -0.01000
C 	C 	0.59870 0.17160 0.40540 -0.01300
H 	H 	0.61990 0.13990 0.40720 0.03800
O 	O 	0.67390 0.11090 0.45601 -0.56700
O 	O 	0.66690 0.15140 0.47987 -0.56600
C 	C 	0.65480 0.11470 0.46950 0.44300
C 	C 	0.61340 0.07370 0.47500 -0.09700
C 	C 	0.59990 0.02950 0.46538 -0.02800
H 	H 	0.61680 0.02490 0.45520 0.04000
C 	C 	0.56170 0.99210 0.47070 0.00400
H 	H 	0.55200 0.96280 0.46390 -0.01200
N 	N 	0.53830 0.99590 0.48510 -0.18900
C 	C 	0.55210 0.03760 0.49447 0.01600
H 	H 	0.53610 0.04020 0.50480 -0.00200
C 	C 	0.58900 0.07730 0.48978 -0.03200
H 	H 	0.59720 0.10670 0.49670 0.04000
O 	O 	0.76590 0.28130 0.43574 -0.57100
O 	O 	0.77920 0.19710 0.43480 -0.59000
C 	C 	0.79030 0.24350 0.43098 0.57000
C 	C 	0.83870 0.24960 0.42097 -0.16900
C 	C 	0.85390 0.30050 0.41520 0.01100
H 	H 	0.83370 0.33190 0.41800 0.02700
C 	C 	0.89880 0.30500 0.40520 -0.01500
H 	H 	0.90800 0.33970 0.40100 -0.00900
N 	N 	0.92940 0.26220 0.40124 -0.17500
C 	C 	0.91560 0.21360 0.40710 -0.00800
H 	H 	0.93760 0.18310 0.40450 0.00800
C 	C 	0.87050 0.20580 0.41680 0.01400
H 	H 	0.86170 0.17040 0.42060 0.02600
O 	O 	0.75200 0.27550 0.48600 -0.55500
O 	O 	0.75370 0.31880 0.46390 -0.55000
C 	C 	0.76800 0.31400 0.47790 0.49700
C 	C 	0.80450 0.35540 0.48472 -0.13500
C 	C 	0.82520 0.34950 0.50014 -0.01000
H 	H 	0.81620 0.31830 0.50630 0.03200
C 	C 	0.85900 0.38930 0.50642 -0.00300
H 	H 	0.87180 0.38540 0.51710 -0.01100
N 	N 	0.87410 0.43300 0.49800 -0.18800
C 	C 	0.85530 0.43810 0.48310 0.00300
H 	H 	0.86640 0.46860 0.47700 0.00100
C 	C 	0.82030 0.40060 0.47616 -0.00900
H 	H 	0.80740 0.40600 0.46560 0.03400
O 	O 	0.77590 0.17280 0.48385 -0.53300
O 	O 	0.78710 0.13380 0.46057 -0.52400
C 	C 	0.79980 0.14100 0.47460 0.45100
C 	C 	0.84650 0.10910 0.48112 -0.10400
C 	C 	0.87010 0.06800 0.47199 -0.02900
H 	H 	0.85740 0.06090 0.46150 0.03800
C 	C 	0.91230 0.03750 0.47840 0.00800
H 	H 	0.92730 0.00880 0.47220 -0.01000
N 	N 	0.93270 0.04710 0.49290 -0.19300
C 	C 	0.91100 0.08730 0.50153 0.01100
H 	H 	0.92570 0.09480 0.51180 -0.00500
C 	C 	0.86780 0.11870 0.49610 -0.02800
H 	H 	0.85310 0.14650 0.50270 0.04000
Ag	Ag	0.00456 0.00456 -0.00000 0.49600
Ag	Ag	0.99544 0.99544 0.50000 0.49600
Ag	Ag	0.49544 0.50456 0.25000 0.49900
Ag	Ag	0.50456 0.49544 0.75000 0.49900
Ag	Ag	0.59376 0.59376 -0.00000 0.50100
Ag	Ag	0.40624 0.40624 0.50000 0.50100
Ag	Ag	0.90624 0.09376 0.25000 0.50100
Ag	Ag	0.09376 0.90624 0.75000 0.50100
