data_crystal

_cell_length_a 10.04060
_cell_length_b 11.21420
_cell_length_c 14.31000
_cell_angle_alpha 87.45400
_cell_angle_beta  84.29600
_cell_angle_gamma 68.86700

_symmetry_space_group_name_	'P 1'
_symmetry_space_group_name_H-M	'P 1'

loop_
_symmetry_equiv_pos_as_xyz
  x,y,z

loop_
_atom_site_label
_atom_site_type_symbol
_atom_site_fract_x
_atom_site_fract_y
_atom_site_fract_z
_atom_site_charge
Co	Co	0.82873 0.06391 0.42017 1.17400
Co	Co	0.17127 0.93609 0.57983 1.17600
Co	Co	1.00000 0.50000 1.00000 1.06600
H 	H 	0.62130 0.95300 0.58950 0.04800
H 	H 	0.52720 0.73060 0.79250 0.04200
H 	H 	0.91800 0.75810 0.76390 0.02100
H 	H 	0.09550 0.21290 0.97790 -0.00700
H 	H 	0.25890 0.04130 0.89630 0.04400
H 	H 	0.43210 0.07440 0.78890 0.07600
H 	H 	0.24340 0.44880 0.83710 0.05300
H 	H 	0.61430 0.19470 0.58140 0.01900
H 	H 	0.85340 0.33760 0.41620 0.01200
H 	H 	0.59180 0.54910 0.62570 0.05000
H 	H 	0.04860 0.54370 0.27530 0.05200
H 	H 	0.13800 0.69400 0.20820 0.08000
H 	H 	0.05210 0.89840 0.26510 0.00500
H 	H 	0.78970 0.81040 0.45120 0.05900
H 	H 	0.52850 0.21510 0.71590 0.13500
H 	H 	0.87100 0.50530 0.37780 0.13400
H 	H 	0.37870 0.04700 0.41050 0.04700
H 	H 	0.47280 0.26940 0.20750 0.05700
H 	H 	0.08200 0.24190 0.23610 0.05500
H 	H 	0.90450 0.78710 0.02210 0.02000
H 	H 	0.74110 0.95870 0.10370 0.05600
H 	H 	0.56790 0.92560 0.21110 0.07900
H 	H 	0.75660 0.55120 0.16290 0.05900
H 	H 	0.38570 0.80530 0.41860 0.01700
H 	H 	0.14660 0.66240 0.58380 0.02300
H 	H 	0.40820 0.45090 0.37430 0.05000
H 	H 	0.95140 0.45630 0.72470 0.11800
H 	H 	0.86200 0.30600 0.79180 -0.00800
H 	H 	0.94790 0.10160 0.73490 0.04300
H 	H 	0.21030 0.18960 0.54880 0.08700
H 	H 	0.47150 0.78490 0.28410 0.14000
H 	H 	0.12900 0.49470 0.62220 0.16100
C 	C 	0.89070 0.91680 0.61860 0.35300
C 	C 	0.78650 0.86510 0.66900 -0.13500
C 	C 	0.64850 0.89730 0.64010 0.04300
C 	C 	0.55230 0.84730 0.68580 -0.09600
C 	C 	0.40650 0.88070 0.65110 0.30500
C 	C 	0.59260 0.76320 0.76120 0.03900
C 	C 	0.72930 0.72760 0.78980 -0.12400
C 	C 	0.77700 0.63300 0.86910 0.34500
C 	C 	0.82670 0.78020 0.74400 0.04800
C 	C 	0.16080 0.22710 0.93210 0.02400
C 	C 	0.26020 0.12310 0.88460 -0.03300
C 	C 	0.36110 0.14290 0.81960 -0.11000
C 	C 	0.35460 0.26590 0.80120 0.12100
C 	C 	0.24850 0.36540 0.85040 -0.04000
C 	C 	0.46880 0.38750 0.69380 0.23900
C 	C 	0.58600 0.37300 0.61620 -0.08300
C 	C 	0.64430 0.26270 0.56430 0.06200
C 	C 	0.78510 0.34650 0.46690 0.05600
C 	C 	0.73200 0.46180 0.51500 -0.06300
C 	C 	0.62960 0.47360 0.59170 0.01900
C 	C 	0.78290 0.56900 0.48870 0.16900
C 	C 	0.90900 0.66240 0.37170 0.04800
C 	C 	0.01420 0.62690 0.29790 -0.00100
C 	C 	0.06720 0.71610 0.25810 -0.10300
C 	C 	0.01530 0.83860 0.29250 0.10800
C 	C 	0.86160 0.78590 0.40200 -0.02800
C 	C 	0.10930 0.08320 0.38140 0.45600
C 	C 	0.21350 0.13490 0.33100 -0.14600
C 	C 	0.35150 0.10270 0.35990 0.05300
C 	C 	0.44770 0.15270 0.31420 -0.08900
C 	C 	0.59350 0.11930 0.34890 0.30300
C 	C 	0.40740 0.23680 0.23880 0.03500
C 	C 	0.27070 0.27240 0.21020 -0.09600
C 	C 	0.22300 0.36700 0.13090 0.33600
C 	C 	0.17330 0.21980 0.25600 0.06000
C 	C 	0.83920 0.77290 0.06790 0.03100
C 	C 	0.73980 0.87690 0.11540 -0.02400
C 	C 	0.63890 0.85710 0.18040 -0.10500
C 	C 	0.64540 0.73410 0.19880 0.13000
C 	C 	0.75150 0.63460 0.14960 -0.03400
C 	C 	0.53120 0.61250 0.30620 0.24700
C 	C 	0.41400 0.62700 0.38380 -0.08400
C 	C 	0.35570 0.73730 0.43570 0.06600
C 	C 	0.21490 0.65350 0.53310 0.06300
C 	C 	0.26800 0.53820 0.48500 -0.06600
C 	C 	0.37040 0.52640 0.40830 0.02400
C 	C 	0.21710 0.43100 0.51130 0.19300
C 	C 	0.09100 0.33760 0.62830 0.23200
C 	C 	0.98580 0.37310 0.70210 -0.25900
C 	C 	0.93280 0.28390 0.74190 0.07900
C 	C 	0.98470 0.16140 0.70750 -0.08900
C 	C 	0.13840 0.21410 0.59800 -0.09900
N 	N 	0.15450 0.34610 0.91540 -0.20500
N 	N 	0.45950 0.28430 0.73350 -0.24600
N 	N 	0.74290 0.24780 0.48980 -0.20700
N 	N 	0.85330 0.57120 0.41210 -0.22700
N 	N 	0.91430 0.87420 0.36370 -0.23300
N 	N 	0.84550 0.65390 0.08460 -0.19000
N 	N 	0.54050 0.71570 0.26650 -0.24600
N 	N 	0.25710 0.75220 0.51020 -0.20600
N 	N 	0.14670 0.42880 0.58790 -0.26000
N 	N 	0.08570 0.12580 0.63630 -0.14400
O 	O 	0.85270 0.99280 0.55190 -0.47400
O 	O 	0.01450 0.88170 0.64710 -0.39600
O 	O 	0.90710 0.59570 0.88300 -0.46900
O 	O 	0.68450 0.59940 0.91650 -0.31300
O 	O 	0.38110 0.94010 0.57460 -0.36900
O 	O 	0.31000 0.84960 0.69770 -0.34600
O 	O 	0.65660 0.69030 0.49260 -0.17500
O 	O 	0.36540 0.49220 0.70450 -0.22400
O 	O 	0.14730 0.00720 0.44810 -0.47500
O 	O 	0.98550 0.11830 0.35290 -0.48000
O 	O 	0.09290 0.40430 0.11700 -0.38700
O 	O 	0.31550 0.40060 0.08350 -0.24500
O 	O 	0.61890 0.05990 0.42540 -0.36300
O 	O 	0.69000 0.15040 0.30230 -0.34100
O 	O 	0.34340 0.30970 0.50740 -0.18000
O 	O 	0.63460 0.50780 0.29550 -0.22200
