data_crystal

_cell_length_a 12.32990
_cell_length_b 22.74670
_cell_length_c 26.77710
_cell_angle_alpha 90.00000
_cell_angle_beta  101.15900
_cell_angle_gamma 90.00000

_symmetry_space_group_name_	'P 1'
_symmetry_space_group_name_H-M	'P 1'

loop_
_symmetry_equiv_pos_as_xyz
  x,y,z

loop_
_atom_site_label
_atom_site_type_symbol
_atom_site_fract_x
_atom_site_fract_y
_atom_site_fract_z
_atom_site_charge
Cu	Cu	0.96829 0.85464 0.29368 0.85300
N 	N 	0.90820 0.93270 0.26427 -0.22800
N 	N 	0.92270 0.87570 0.36023 -0.22900
N 	N 	0.46270 0.28040 0.17183 -0.22800
N 	N 	0.98140 0.16620 0.77162 -0.22700
C 	C 	0.80800 0.95310 0.27040 0.06400
C 	C 	0.97030 0.96850 0.24160 0.05000
C 	C 	0.97310 0.92030 0.38800 0.06500
C 	C 	0.84090 0.84750 0.37650 0.06400
H 	H 	0.76300 0.92820 0.28640 0.00100
C 	C 	0.76900 0.00730 0.25490 -0.08500
C 	C 	0.93750 0.02450 0.22600 -0.08200
H 	H 	0.03970 0.95460 0.23600 0.00600
H 	H 	0.03120 0.94050 0.37660 -0.00300
C 	C 	0.94360 0.93790 0.43240 -0.08800
C 	C 	0.80390 0.86370 0.42060 -0.08800
H 	H 	0.80650 0.81520 0.35730 -0.00400
H 	H 	0.69740 0.01940 0.25880 0.09800
C 	C 	0.83580 0.04450 0.23320 0.00500
H 	H 	0.98400 0.04900 0.21050 0.09000
H 	H 	0.98230 0.96900 0.45180 0.09900
C 	C 	0.85690 0.91000 0.44900 -0.00000
H 	H 	0.74420 0.84360 0.43080 0.09900
C 	C 	0.79490 0.10520 0.21750 0.27500
C 	C 	0.82520 0.93110 0.49650 0.28400
O 	O 	0.70530 0.12350 0.22150 -0.25200
O 	O 	0.87080 0.13545 0.20011 -0.24000
O 	O 	0.88180 0.96400 0.52510 -0.26000
O 	O 	0.73120 0.91030 0.50478 -0.24300
C 	C 	0.84020 0.19530 0.18360 0.06100
C 	C 	0.70190 0.93340 0.55110 0.06600
H 	H 	0.83850 0.22080 0.21340 0.01800
H 	H 	0.76610 0.19570 0.16130 0.04000
C 	C 	0.92570 0.21640 0.15520 -0.07900
H 	H 	0.70640 0.97690 0.55140 0.04400
H 	H 	0.75360 0.91820 0.58140 0.03700
C 	C 	0.58590 0.91410 0.55240 -0.08900
N 	N 	0.92310 0.18330 0.10730 -0.17100
H 	H 	0.91320 0.25860 0.14710 0.07800
H 	H 	0.99970 0.21230 0.17710 0.09300
N 	N 	0.56080 0.93410 0.60131 -0.17400
H 	H 	0.53330 0.93170 0.52360 0.10500
H 	H 	0.57990 0.87070 0.54970 0.09500
C 	C 	0.00700 0.14300 0.10490 0.28800
C 	C 	0.83600 0.19540 0.06900 0.29700
C 	C 	0.58810 0.89610 0.64200 0.28300
C 	C 	0.52200 0.99030 0.60360 0.28600
O 	O 	0.08240 0.13470 0.14000 -0.23100
N 	N 	0.99820 0.11450 0.05920 -0.17100
O 	O 	0.76510 0.23100 0.07310 -0.25200
N 	N 	0.83180 0.16430 0.02550 -0.17700
O 	O 	0.62720 0.84820 0.63909 -0.23700
N 	N 	0.56660 0.91850 0.68789 -0.17000
O 	O 	0.50400 0.02220 0.56625 -0.22500
N 	N 	0.50520 0.00870 0.65090 -0.16800
C 	C 	0.08430 0.07210 0.05420 -0.06900
C 	C 	0.90940 0.12170 0.01880 0.28000
C 	C 	0.73400 0.17430 0.98440 -0.05200
C 	C 	0.59000 0.88130 0.73340 -0.06000
C 	C 	0.52350 0.97390 0.69340 0.29000
C 	C 	0.45690 0.06730 0.65450 -0.07500
C 	C 	0.16830 0.09770 0.02530 0.05800
H 	H 	0.04980 0.03690 0.03600 0.07500
H 	H 	0.12270 0.05970 0.08850 0.08700
O 	O 	0.90370 0.09290 0.98010 -0.23400
C 	C 	0.74160 0.23800 0.95310 0.04100
H 	H 	0.66660 0.17470 0.99940 0.06100
H 	H 	0.72730 0.14140 0.95990 0.07900
C 	C 	0.70080 0.89630 0.76690 0.03900
H 	H 	0.59010 0.83950 0.72300 0.07600
H 	H 	0.53070 0.88650 0.75320 0.07300
O 	O 	0.50450 0.99010 0.73363 -0.24500
C 	C 	0.54200 0.11430 0.66970 0.06000
H 	H 	0.40790 0.06590 0.67970 0.07400
H 	H 	0.41100 0.07760 0.62110 0.09700
O 	O 	0.22820 0.14530 0.05310 -0.23900
H 	H 	0.22080 0.06660 0.01970 0.03900
H 	H 	0.12960 0.11200 0.99160 0.04300
O 	O 	0.77960 0.22270 0.90650 -0.24300
H 	H 	0.66820 0.25710 0.94500 0.02700
H 	H 	0.79430 0.26530 0.97400 0.05700
O 	O 	0.78880 0.89050 0.73821 -0.22900
H 	H 	0.69910 0.93700 0.77960 0.05400
H 	H 	0.71510 0.86950 0.79660 0.05600
O 	O 	0.60810 0.12230 0.63018 -0.24800
H 	H 	0.50490 0.15170 0.67510 0.02500
H 	H 	0.59100 0.10330 0.70220 0.03500
C 	C 	0.31900 0.13110 0.08700 0.27300
C 	C 	0.88770 0.21530 0.91150 0.31000
C 	C 	0.82630 0.83600 0.73320 0.27500
C 	C 	0.56090 0.15100 0.58960 0.27600
O 	O 	0.35550 0.08310 0.09490 -0.24100
C 	C 	0.36850 0.18390 0.11650 0.00200
O 	O 	0.95180 0.21990 0.94930 -0.25800
C 	C 	0.91620 0.19750 0.86170 -0.00900
O 	O 	0.80200 0.79260 0.75442 -0.24200
C 	C 	0.90330 0.83560 0.69540 0.00800
O 	O 	0.47030 0.17520 0.58360 -0.23700
C 	C 	0.63030 0.15300 0.55000 -0.00300
C 	C 	0.31510 0.23690 0.11350 -0.08300
C 	C 	0.47010 0.17980 0.14860 -0.09100
C 	C 	0.02240 0.17820 0.86180 -0.07400
C 	C 	0.84190 0.19970 0.81530 -0.06600
C 	C 	0.91840 0.88560 0.66840 -0.07300
C 	C 	0.95650 0.78490 0.68720 -0.08100
C 	C 	0.60790 0.19520 0.51190 -0.08700
C 	C 	0.71770 0.11450 0.54920 -0.07700
C 	C 	0.36340 0.28370 0.14090 0.05800
H 	H 	0.24420 0.24110 0.09230 0.08300
H 	H 	0.50930 0.14360 0.15200 0.08900
C 	C 	0.51400 0.22820 0.17570 0.06300
C 	C 	0.05070 0.16230 0.81600 0.05100
H 	H 	0.07510 0.17580 0.89280 0.07400
H 	H 	0.76740 0.21150 0.81390 0.08300
C 	C 	0.87780 0.18490 0.77230 0.05000
C 	C 	0.98780 0.88310 0.63440 0.05400
H 	H 	0.88120 0.92110 0.67330 0.07600
H 	H 	0.94750 0.75000 0.70540 0.07000
C 	C 	0.02340 0.78590 0.65170 0.05800
C 	C 	0.67270 0.19790 0.47530 0.06200
H 	H 	0.54840 0.22200 0.51100 0.09900
H 	H 	0.73590 0.08500 0.57450 0.07400
C 	C 	0.77680 0.11980 0.51150 0.05800
H 	H 	0.32520 0.32020 0.13790 -0.00200
H 	H 	0.58360 0.22470 0.19800 -0.00100
H 	H 	0.12330 0.14790 0.81640 -0.00100
H 	H 	0.82710 0.18770 0.74080 0.01300
N 	N 	0.04120 0.83410 0.62570 -0.21700
H 	H 	0.99870 0.91780 0.61620 0.03100
H 	H 	0.05900 0.75040 0.64520 -0.00000
N 	N 	0.75600 0.16050 0.47490 -0.22100
H 	H 	0.65750 0.22710 0.44960 0.01300
H 	H 	0.83600 0.09320 0.51110 0.01600
Cu	Cu	0.15005 0.83389 0.57838 0.87100
O 	O 	0.27300 0.77790 0.63570 -0.29700
C 	C 	0.34580 0.80010 0.67670 -0.08700
H 	H 	0.38890 0.76790 0.69500 0.06300
H 	H 	0.39580 0.82800 0.66480 0.08600
H 	H 	0.30470 0.82020 0.69950 0.08300
O 	O 	0.15700 0.92220 0.58510 -0.24100
N 	N 	0.24870 0.93970 0.60960 0.08100
O 	O 	0.26110 0.99290 0.62140 -0.11900
O 	O 	0.33380 0.90810 0.61800 -0.07600
H 	H 	0.26320 0.80270 0.61200 0.07300
O 	O 	0.73400 0.10950 0.36870 -0.16600
Cu	Cu	0.53171 0.35464 0.20632 0.85300
N 	N 	0.59180 0.43270 0.23573 -0.23000
N 	N 	0.57730 0.37570 0.13977 -0.23000
N 	N 	0.03730 0.78040 0.32817 -0.22600
N 	N 	0.51860 0.66620 0.72838 -0.22800
C 	C 	0.69200 0.45310 0.22960 0.06700
C 	C 	0.52970 0.46850 0.25840 0.05900
C 	C 	0.52690 0.42030 0.11200 0.06900
C 	C 	0.65910 0.34750 0.12350 0.06500
H 	H 	0.73700 0.42820 0.21360 -0.00000
C 	C 	0.73100 0.50730 0.24510 -0.09000
C 	C 	0.56250 0.52450 0.27400 -0.08900
H 	H 	0.46030 0.45460 0.26400 0.00200
H 	H 	0.46880 0.44050 0.12340 -0.00600
C 	C 	0.55640 0.43790 0.06760 -0.09000
C 	C 	0.69610 0.36370 0.07940 -0.08900
H 	H 	0.69350 0.31520 0.14270 -0.00400
H 	H 	0.80260 0.51940 0.24120 0.09900
C 	C 	0.66420 0.54450 0.26680 0.00800
H 	H 	0.51600 0.54900 0.28950 0.09200
H 	H 	0.51770 0.46900 0.04820 0.10000
C 	C 	0.64310 0.41000 0.05100 0.00100
H 	H 	0.75580 0.34360 0.06920 0.10000
C 	C 	0.70510 0.60520 0.28250 0.27400
C 	C 	0.67480 0.43110 0.00350 0.28300
O 	O 	0.79470 0.62350 0.27850 -0.25100
O 	O 	0.62920 0.63545 0.29989 -0.24000
O 	O 	0.61820 0.46400 0.97490 -0.25900
O 	O 	0.76880 0.41030 0.99522 -0.24200
C 	C 	0.65980 0.69530 0.31640 0.06100
C 	C 	0.79810 0.43340 0.94890 0.06600
H 	H 	0.66150 0.72080 0.28660 0.01800
H 	H 	0.73390 0.69570 0.33870 0.04000
C 	C 	0.57430 0.71640 0.34480 -0.07900
H 	H 	0.79360 0.47690 0.94860 0.04400
H 	H 	0.74640 0.41820 0.91860 0.03700
C 	C 	0.91410 0.41410 0.94760 -0.08900
N 	N 	0.57690 0.68330 0.39270 -0.17200
H 	H 	0.58680 0.75860 0.35290 0.07800
H 	H 	0.50030 0.71230 0.32290 0.09300
N 	N 	0.93920 0.43410 0.89869 -0.17400
H 	H 	0.96670 0.43170 0.97640 0.10500
H 	H 	0.92010 0.37070 0.95030 0.09500
C 	C 	0.49300 0.64300 0.39510 0.29000
C 	C 	0.66400 0.69540 0.43100 0.29700
C 	C 	0.91190 0.39610 0.85800 0.28300
C 	C 	0.97800 0.49030 0.89640 0.28600
O 	O 	0.41760 0.63470 0.36000 -0.23100
N 	N 	0.50180 0.61450 0.44080 -0.17200
O 	O 	0.73490 0.73100 0.42690 -0.25200
N 	N 	0.66820 0.66430 0.47450 -0.17700
O 	O 	0.87280 0.34820 0.86091 -0.23700
N 	N 	0.93340 0.41850 0.81211 -0.17000
O 	O 	0.99600 0.52220 0.93375 -0.22500
N 	N 	0.99480 0.50870 0.84910 -0.16800
C 	C 	0.41570 0.57210 0.44580 -0.06700
C 	C 	0.59060 0.62170 0.48120 0.28100
C 	C 	0.76600 0.67430 0.51560 -0.05300
C 	C 	0.91000 0.38130 0.76660 -0.06000
C 	C 	0.97650 0.47390 0.80660 0.29100
C 	C 	0.04310 0.56730 0.84550 -0.07600
C 	C 	0.33170 0.59770 0.47470 0.05600
H 	H 	0.45020 0.53690 0.46400 0.07500
H 	H 	0.37730 0.55970 0.41150 0.08700
O 	O 	0.59630 0.59290 0.51990 -0.23500
C 	C 	0.75840 0.73800 0.54690 0.04100
H 	H 	0.83340 0.67470 0.50060 0.06100
H 	H 	0.77270 0.64140 0.54010 0.07900
C 	C 	0.79920 0.39630 0.73310 0.03900
H 	H 	0.90990 0.33950 0.77700 0.07600
H 	H 	0.96930 0.38650 0.74680 0.07300
O 	O 	0.99550 0.49010 0.76637 -0.24400
C 	C 	0.95800 0.61430 0.83030 0.06000
H 	H 	0.09210 0.56590 0.82030 0.07400
H 	H 	0.08900 0.57760 0.87890 0.09700
O 	O 	0.27180 0.64530 0.44690 -0.23900
H 	H 	0.27920 0.56660 0.48030 0.04000
H 	H 	0.37040 0.61200 0.50840 0.04400
O 	O 	0.72040 0.72270 0.59350 -0.24400
H 	H 	0.83180 0.75710 0.55500 0.02700
H 	H 	0.70570 0.76530 0.52600 0.05700
O 	O 	0.71120 0.39050 0.76179 -0.22900
H 	H 	0.80090 0.43700 0.72040 0.05400
H 	H 	0.78490 0.36950 0.70340 0.05600
O 	O 	0.89190 0.62230 0.86982 -0.24800
H 	H 	0.99510 0.65170 0.82490 0.02500
H 	H 	0.90900 0.60330 0.79780 0.03400
C 	C 	0.18100 0.63110 0.41300 0.27400
C 	C 	0.61230 0.71530 0.58850 0.31100
C 	C 	0.67370 0.33600 0.76680 0.27500
C 	C 	0.93910 0.65100 0.91040 0.27600
O 	O 	0.14450 0.58310 0.40510 -0.24100
C 	C 	0.13150 0.68390 0.38350 -0.00100
O 	O 	0.54820 0.71990 0.55070 -0.25900
C 	C 	0.58380 0.69750 0.63830 -0.01100
O 	O 	0.69800 0.29260 0.74558 -0.24200
C 	C 	0.59670 0.33560 0.80460 0.00800
O 	O 	0.02970 0.67520 0.91640 -0.23700
C 	C 	0.86970 0.65300 0.95000 -0.00300
C 	C 	0.18490 0.73690 0.38650 -0.08100
C 	C 	0.02990 0.67980 0.35140 -0.08500
C 	C 	0.47760 0.67820 0.63820 -0.07100
C 	C 	0.65810 0.69970 0.68470 -0.06500
C 	C 	0.58160 0.38560 0.83160 -0.07300
C 	C 	0.54350 0.28490 0.81280 -0.07900
C 	C 	0.89210 0.69520 0.98810 -0.08600
C 	C 	0.78230 0.61450 0.95080 -0.07700
C 	C 	0.13660 0.78370 0.35910 0.05700
H 	H 	0.25580 0.74110 0.40770 0.08200
H 	H 	0.99070 0.64360 0.34800 0.08600
C 	C 	0.98600 0.72820 0.32430 0.05700
C 	C 	0.44930 0.66230 0.68400 0.05200
H 	H 	0.42490 0.67580 0.60720 0.07400
H 	H 	0.73260 0.71150 0.68610 0.08300
C 	C 	0.62220 0.68490 0.72770 0.04900
C 	C 	0.51220 0.38310 0.86560 0.05500
H 	H 	0.61880 0.42110 0.82670 0.07600
H 	H 	0.55250 0.25000 0.79460 0.07000
C 	C 	0.47660 0.28590 0.84830 0.05600
C 	C 	0.82730 0.69790 0.02470 0.06200
H 	H 	0.95160 0.72200 0.98900 0.09900
H 	H 	0.76410 0.58500 0.92550 0.07300
C 	C 	0.72320 0.61980 0.98850 0.05800
H 	H 	0.17480 0.82020 0.36210 -0.00100
H 	H 	0.91640 0.72470 0.30200 0.00000
H 	H 	0.37670 0.64790 0.68360 -0.00100
H 	H 	0.67290 0.68770 0.75920 0.01300
N 	N 	0.45880 0.33410 0.87430 -0.21700
H 	H 	0.50130 0.41780 0.88380 0.03100
H 	H 	0.44100 0.25040 0.85480 -0.00000
N 	N 	0.74400 0.66050 0.02510 -0.22100
H 	H 	0.84250 0.72710 0.05040 0.01300
H 	H 	0.66400 0.59320 0.98890 0.01500
Cu	Cu	0.34995 0.33389 0.92162 0.87100
O 	O 	0.22700 0.27790 0.86430 -0.29700
C 	C 	0.15420 0.30010 0.82330 -0.08600
H 	H 	0.11110 0.26790 0.80500 0.06200
H 	H 	0.10420 0.32800 0.83520 0.08500
H 	H 	0.19530 0.32020 0.80050 0.08200
O 	O 	0.34300 0.42220 0.91490 -0.24100
N 	N 	0.25130 0.43970 0.89040 0.08100
O 	O 	0.23890 0.49290 0.87860 -0.11900
O 	O 	0.16620 0.40810 0.88200 -0.07700
H 	H 	0.23680 0.30270 0.88800 0.07300
O 	O 	0.76600 0.60950 0.13130 -0.16600
Cu	Cu	0.03171 0.14536 0.70632 0.85300
N 	N 	0.09180 0.06730 0.73573 -0.22800
N 	N 	0.07730 0.12430 0.63977 -0.22900
N 	N 	0.53730 0.71960 0.82817 -0.22800
N 	N 	0.01860 0.83380 0.22838 -0.22700
C 	C 	0.19200 0.04690 0.72960 0.06400
C 	C 	0.02970 0.03150 0.75840 0.05000
C 	C 	0.02690 0.07970 0.61200 0.06500
C 	C 	0.15910 0.15250 0.62350 0.06400
H 	H 	0.23700 0.07180 0.71360 0.00100
C 	C 	0.23100 0.99270 0.74510 -0.08500
C 	C 	0.06250 0.97550 0.77400 -0.08200
H 	H 	0.96030 0.04540 0.76400 0.00600
H 	H 	0.96880 0.05950 0.62340 -0.00300
C 	C 	0.05640 0.06210 0.56760 -0.08800
C 	C 	0.19610 0.13630 0.57940 -0.08800
H 	H 	0.19350 0.18480 0.64270 -0.00400
H 	H 	0.30260 0.98060 0.74120 0.09800
C 	C 	0.16420 0.95550 0.76680 0.00500
H 	H 	0.01600 0.95100 0.78950 0.09000
H 	H 	0.01770 0.03100 0.54820 0.09900
C 	C 	0.14310 0.09000 0.55100 -0.00000
H 	H 	0.25580 0.15640 0.56920 0.09900
C 	C 	0.20510 0.89480 0.78250 0.27500
C 	C 	0.17480 0.06890 0.50350 0.28400
O 	O 	0.29470 0.87650 0.77850 -0.25200
O 	O 	0.12920 0.86455 0.79989 -0.24000
O 	O 	0.11820 0.03600 0.47490 -0.26000
O 	O 	0.26880 0.08970 0.49522 -0.24300
C 	C 	0.15980 0.80470 0.81640 0.06100
C 	C 	0.29810 0.06660 0.44890 0.06600
H 	H 	0.16150 0.77920 0.78660 0.01800
H 	H 	0.23390 0.80430 0.83870 0.04000
C 	C 	0.07430 0.78360 0.84480 -0.07900
H 	H 	0.29360 0.02310 0.44860 0.04400
H 	H 	0.24640 0.08180 0.41860 0.03700
C 	C 	0.41410 0.08590 0.44760 -0.08900
N 	N 	0.07690 0.81670 0.89270 -0.17100
H 	H 	0.08680 0.74140 0.85290 0.07800
H 	H 	0.00030 0.78770 0.82290 0.09300
N 	N 	0.43920 0.06590 0.39869 -0.17400
H 	H 	0.46670 0.06830 0.47640 0.10500
H 	H 	0.42010 0.12930 0.45030 0.09500
C 	C 	0.99300 0.85700 0.89510 0.28800
C 	C 	0.16400 0.80460 0.93100 0.29700
C 	C 	0.41190 0.10390 0.35800 0.28300
C 	C 	0.47800 0.00970 0.39640 0.28600
O 	O 	0.91760 0.86530 0.86000 -0.23100
N 	N 	0.00180 0.88550 0.94080 -0.17100
O 	O 	0.23490 0.76900 0.92690 -0.25200
N 	N 	0.16820 0.83570 0.97450 -0.17700
O 	O 	0.37280 0.15180 0.36091 -0.23700
N 	N 	0.43340 0.08150 0.31211 -0.17000
O 	O 	0.49600 0.97780 0.43375 -0.22500
N 	N 	0.49480 0.99130 0.34910 -0.16800
C 	C 	0.91570 0.92790 0.94580 -0.06900
C 	C 	0.09060 0.87830 0.98120 0.28000
C 	C 	0.26600 0.82570 0.01560 -0.05200
C 	C 	0.41000 0.11870 0.26660 -0.06000
C 	C 	0.47650 0.02610 0.30660 0.29000
C 	C 	0.54310 0.93270 0.34550 -0.07500
C 	C 	0.83170 0.90230 0.97470 0.05800
H 	H 	0.95020 0.96310 0.96400 0.07500
H 	H 	0.87730 0.94030 0.91150 0.08700
O 	O 	0.09630 0.90710 0.01990 -0.23400
C 	C 	0.25840 0.76200 0.04690 0.04100
H 	H 	0.33340 0.82530 0.00060 0.06100
H 	H 	0.27270 0.85860 0.04010 0.07900
C 	C 	0.29920 0.10370 0.23310 0.03900
H 	H 	0.40990 0.16050 0.27700 0.07600
H 	H 	0.46930 0.11350 0.24680 0.07300
O 	O 	0.49550 0.00990 0.26637 -0.24500
C 	C 	0.45800 0.88570 0.33030 0.06000
H 	H 	0.59210 0.93410 0.32030 0.07400
H 	H 	0.58900 0.92240 0.37890 0.09700
O 	O 	0.77180 0.85470 0.94690 -0.23900
H 	H 	0.77920 0.93340 0.98030 0.03900
H 	H 	0.87040 0.88800 0.00840 0.04300
O 	O 	0.22040 0.77730 0.09350 -0.24300
H 	H 	0.33180 0.74290 0.05500 0.02700
H 	H 	0.20570 0.73470 0.02600 0.05700
O 	O 	0.21120 0.10950 0.26179 -0.22900
H 	H 	0.30090 0.06300 0.22040 0.05400
H 	H 	0.28490 0.13050 0.20340 0.05600
O 	O 	0.39190 0.87770 0.36982 -0.24800
H 	H 	0.49510 0.84830 0.32490 0.02500
H 	H 	0.40900 0.89670 0.29780 0.03500
C 	C 	0.68100 0.86890 0.91300 0.27300
C 	C 	0.11230 0.78470 0.08850 0.31000
C 	C 	0.17370 0.16400 0.26680 0.27500
C 	C 	0.43910 0.84900 0.41040 0.27600
O 	O 	0.64450 0.91690 0.90510 -0.24100
C 	C 	0.63150 0.81610 0.88350 0.00200
O 	O 	0.04820 0.78010 0.05070 -0.25800
C 	C 	0.08380 0.80250 0.13830 -0.00900
O 	O 	0.19800 0.20740 0.24558 -0.24200
C 	C 	0.09670 0.16440 0.30460 0.00800
O 	O 	0.52970 0.82480 0.41640 -0.23700
C 	C 	0.36970 0.84700 0.45000 -0.00300
C 	C 	0.68490 0.76310 0.88650 -0.08300
C 	C 	0.52990 0.82020 0.85140 -0.09100
C 	C 	0.97760 0.82180 0.13820 -0.07400
C 	C 	0.15810 0.80030 0.18470 -0.06600
C 	C 	0.08160 0.11440 0.33160 -0.07300
C 	C 	0.04350 0.21510 0.31280 -0.08100
C 	C 	0.39210 0.80480 0.48810 -0.08700
C 	C 	0.28230 0.88550 0.45080 -0.07700
C 	C 	0.63660 0.71630 0.85910 0.05800
H 	H 	0.75580 0.75890 0.90770 0.08300
H 	H 	0.49070 0.85640 0.84800 0.08900
C 	C 	0.48600 0.77180 0.82430 0.06300
C 	C 	0.94930 0.83770 0.18400 0.05100
H 	H 	0.92490 0.82420 0.10720 0.07400
H 	H 	0.23260 0.78850 0.18610 0.08300
C 	C 	0.12220 0.81510 0.22770 0.05000
C 	C 	0.01220 0.11690 0.36560 0.05400
H 	H 	0.11880 0.07890 0.32670 0.07600
H 	H 	0.05250 0.25000 0.29460 0.07000
C 	C 	0.97660 0.21410 0.34830 0.05800
C 	C 	0.32730 0.80210 0.52470 0.06200
H 	H 	0.45160 0.77800 0.48900 0.09900
H 	H 	0.26410 0.91500 0.42550 0.07400
C 	C 	0.22320 0.88020 0.48850 0.05800
H 	H 	0.67480 0.67980 0.86210 -0.00200
H 	H 	0.41640 0.77530 0.80200 -0.00100
H 	H 	0.87670 0.85210 0.18360 -0.00100
H 	H 	0.17290 0.81230 0.25920 0.01300
N 	N 	0.95880 0.16590 0.37430 -0.21700
H 	H 	0.00130 0.08220 0.38380 0.03100
H 	H 	0.94100 0.24960 0.35480 -0.00000
N 	N 	0.24400 0.83950 0.52510 -0.22100
H 	H 	0.34250 0.77290 0.55040 0.01300
H 	H 	0.16400 0.90680 0.48890 0.01600
Cu	Cu	0.84995 0.16611 0.42162 0.87100
O 	O 	0.72700 0.22210 0.36430 -0.29700
C 	C 	0.65420 0.19990 0.32330 -0.08700
H 	H 	0.61110 0.23210 0.30500 0.06300
H 	H 	0.60420 0.17200 0.33520 0.08600
H 	H 	0.69530 0.17980 0.30050 0.08300
O 	O 	0.84300 0.07780 0.41490 -0.24100
N 	N 	0.75130 0.06030 0.39040 0.08100
O 	O 	0.73890 0.00710 0.37860 -0.11900
O 	O 	0.66620 0.09190 0.38200 -0.07600
H 	H 	0.73680 0.19730 0.38800 0.07300
O 	O 	0.26600 0.89050 0.63130 -0.16600
Cu	Cu	0.46829 0.64536 0.79368 0.85300
N 	N 	0.40820 0.56730 0.76427 -0.23000
N 	N 	0.42270 0.62430 0.86023 -0.23000
N 	N 	0.96270 0.21960 0.67183 -0.22600
N 	N 	0.48140 0.33380 0.27162 -0.22800
C 	C 	0.30800 0.54690 0.77040 0.06700
C 	C 	0.47030 0.53150 0.74160 0.05900
C 	C 	0.47310 0.57970 0.88800 0.06900
C 	C 	0.34090 0.65250 0.87650 0.06500
H 	H 	0.26300 0.57180 0.78640 -0.00000
C 	C 	0.26900 0.49270 0.75490 -0.09000
C 	C 	0.43750 0.47550 0.72600 -0.08900
H 	H 	0.53970 0.54540 0.73600 0.00200
H 	H 	0.53120 0.55950 0.87660 -0.00600
C 	C 	0.44360 0.56210 0.93240 -0.09000
C 	C 	0.30390 0.63630 0.92060 -0.08900
H 	H 	0.30650 0.68480 0.85730 -0.00400
H 	H 	0.19740 0.48060 0.75880 0.09900
C 	C 	0.33580 0.45550 0.73320 0.00800
H 	H 	0.48400 0.45100 0.71050 0.09200
H 	H 	0.48230 0.53100 0.95180 0.10000
C 	C 	0.35690 0.59000 0.94900 0.00100
H 	H 	0.24420 0.65640 0.93080 0.10000
C 	C 	0.29490 0.39480 0.71750 0.27400
C 	C 	0.32520 0.56890 0.99650 0.28300
O 	O 	0.20530 0.37650 0.72150 -0.25100
O 	O 	0.37080 0.36455 0.70011 -0.24000
O 	O 	0.38180 0.53600 0.02510 -0.25900
O 	O 	0.23120 0.58970 0.00478 -0.24200
C 	C 	0.34020 0.30470 0.68360 0.06100
C 	C 	0.20190 0.56660 0.05110 0.06600
H 	H 	0.33850 0.27920 0.71340 0.01800
H 	H 	0.26610 0.30430 0.66130 0.04000
C 	C 	0.42570 0.28360 0.65520 -0.07900
H 	H 	0.20640 0.52310 0.05140 0.04400
H 	H 	0.25360 0.58180 0.08140 0.03700
C 	C 	0.08590 0.58590 0.05240 -0.08900
N 	N 	0.42310 0.31670 0.60730 -0.17200
H 	H 	0.41320 0.24140 0.64710 0.07800
H 	H 	0.49970 0.28770 0.67710 0.09300
N 	N 	0.06080 0.56590 0.10131 -0.17400
H 	H 	0.03330 0.56830 0.02360 0.10500
H 	H 	0.07990 0.62930 0.04970 0.09500
C 	C 	0.50700 0.35700 0.60490 0.29000
C 	C 	0.33600 0.30460 0.56900 0.29700
C 	C 	0.08810 0.60390 0.14200 0.28300
C 	C 	0.02200 0.50970 0.10360 0.28600
O 	O 	0.58240 0.36530 0.64000 -0.23100
N 	N 	0.49820 0.38550 0.55920 -0.17200
O 	O 	0.26510 0.26900 0.57310 -0.25200
N 	N 	0.33180 0.33570 0.52550 -0.17700
O 	O 	0.12720 0.65180 0.13909 -0.23700
N 	N 	0.06660 0.58150 0.18789 -0.17000
O 	O 	0.00400 0.47780 0.06625 -0.22500
N 	N 	0.00520 0.49130 0.15090 -0.16800
C 	C 	0.58430 0.42790 0.55420 -0.06700
C 	C 	0.40940 0.37830 0.51880 0.28100
C 	C 	0.23400 0.32570 0.48440 -0.05300
C 	C 	0.09000 0.61870 0.23340 -0.06000
C 	C 	0.02350 0.52610 0.19340 0.29100
C 	C 	0.95690 0.43270 0.15450 -0.07600
C 	C 	0.66830 0.40230 0.52530 0.05600
H 	H 	0.54980 0.46310 0.53600 0.07500
H 	H 	0.62270 0.44030 0.58850 0.08700
O 	O 	0.40370 0.40710 0.48010 -0.23500
C 	C 	0.24160 0.26200 0.45310 0.04100
H 	H 	0.16660 0.32530 0.49940 0.06100
H 	H 	0.22730 0.35860 0.45990 0.07900
C 	C 	0.20080 0.60370 0.26690 0.03900
H 	H 	0.09010 0.66050 0.22300 0.07600
H 	H 	0.03070 0.61350 0.25320 0.07300
O 	O 	0.00450 0.50990 0.23363 -0.24400
C 	C 	0.04200 0.38570 0.16970 0.06000
H 	H 	0.90790 0.43410 0.17970 0.07400
H 	H 	0.91100 0.42240 0.12110 0.09700
O 	O 	0.72820 0.35470 0.55310 -0.23900
H 	H 	0.72080 0.43340 0.51970 0.04000
H 	H 	0.62960 0.38800 0.49160 0.04400
O 	O 	0.27960 0.27730 0.40650 -0.24400
H 	H 	0.16820 0.24290 0.44500 0.02700
H 	H 	0.29430 0.23470 0.47400 0.05700
O 	O 	0.28880 0.60950 0.23821 -0.22900
H 	H 	0.19910 0.56300 0.27960 0.05400
H 	H 	0.21510 0.63050 0.29660 0.05600
O 	O 	0.10810 0.37770 0.13018 -0.24800
H 	H 	0.00490 0.34830 0.17510 0.02500
H 	H 	0.09100 0.39670 0.20220 0.03400
C 	C 	0.81900 0.36890 0.58700 0.27400
C 	C 	0.38770 0.28470 0.41150 0.31100
C 	C 	0.32630 0.66400 0.23320 0.27500
C 	C 	0.06090 0.34900 0.08960 0.27600
O 	O 	0.85550 0.41690 0.59490 -0.24100
C 	C 	0.86850 0.31610 0.61650 -0.00100
O 	O 	0.45180 0.28010 0.44930 -0.25900
C 	C 	0.41620 0.30250 0.36170 -0.01100
O 	O 	0.30200 0.70740 0.25442 -0.24200
C 	C 	0.40330 0.66440 0.19540 0.00800
O 	O 	0.97030 0.32480 0.08360 -0.23700
C 	C 	0.13030 0.34700 0.05000 -0.00300
C 	C 	0.81510 0.26310 0.61350 -0.08100
C 	C 	0.97010 0.32020 0.64860 -0.08500
C 	C 	0.52240 0.32180 0.36180 -0.07100
C 	C 	0.34190 0.30030 0.31530 -0.06500
C 	C 	0.41840 0.61440 0.16840 -0.07300
C 	C 	0.45650 0.71510 0.18720 -0.07900
C 	C 	0.10790 0.30480 0.01190 -0.08600
C 	C 	0.21770 0.38550 0.04920 -0.07700
C 	C 	0.86340 0.21630 0.64090 0.05700
H 	H 	0.74420 0.25890 0.59230 0.08200
H 	H 	0.00930 0.35640 0.65200 0.08600
C 	C 	0.01400 0.27180 0.67570 0.05700
C 	C 	0.55070 0.33770 0.31600 0.05200
H 	H 	0.57510 0.32420 0.39280 0.07400
H 	H 	0.26740 0.28850 0.31390 0.08300
C 	C 	0.37780 0.31510 0.27230 0.04900
C 	C 	0.48780 0.61690 0.13440 0.05500
H 	H 	0.38120 0.57890 0.17330 0.07600
H 	H 	0.44750 0.75000 0.20540 0.07000
C 	C 	0.52340 0.71410 0.15170 0.05600
C 	C 	0.17270 0.30210 0.97530 0.06200
H 	H 	0.04840 0.27800 0.01100 0.09900
H 	H 	0.23590 0.41500 0.07450 0.07300
C 	C 	0.27680 0.38020 0.01150 0.05800
H 	H 	0.82520 0.17980 0.63790 -0.00100
H 	H 	0.08360 0.27530 0.69800 0.00000
H 	H 	0.62330 0.35210 0.31640 -0.00100
H 	H 	0.32710 0.31230 0.24080 0.01300
N 	N 	0.54120 0.66590 0.12570 -0.21700
H 	H 	0.49870 0.58220 0.11620 0.03100
H 	H 	0.55900 0.74960 0.14520 -0.00000
N 	N 	0.25600 0.33950 0.97490 -0.22100
H 	H 	0.15750 0.27290 0.94960 0.01300
H 	H 	0.33600 0.40680 0.01110 0.01500
Cu	Cu	0.65005 0.66611 0.07838 0.87100
O 	O 	0.77300 0.72210 0.13570 -0.29700
C 	C 	0.84580 0.69990 0.17670 -0.08600
H 	H 	0.88890 0.73210 0.19500 0.06200
H 	H 	0.89580 0.67200 0.16480 0.08500
H 	H 	0.80470 0.67980 0.19950 0.08200
O 	O 	0.65700 0.57780 0.08510 -0.24100
N 	N 	0.74870 0.56030 0.10960 0.08100
O 	O 	0.76110 0.50710 0.12140 -0.11900
O 	O 	0.83380 0.59190 0.11800 -0.07700
H 	H 	0.76320 0.69730 0.11200 0.07300
O 	O 	0.23400 0.39050 0.86870 -0.16600
