data_crystal

_cell_length_a 16.90140
_cell_length_b 34.05970
_cell_length_c 18.33150
_cell_angle_alpha 90.00000
_cell_angle_beta  90.00000
_cell_angle_gamma 90.00000

_symmetry_space_group_name_	'P 1'
_symmetry_space_group_name_H-M	'P 1'

loop_
_symmetry_equiv_pos_as_xyz
  x,y,z

loop_
_atom_site_label
_atom_site_type_symbol
_atom_site_fract_x
_atom_site_fract_y
_atom_site_fract_z
_atom_site_charge
Ti	Ti	0.28802 0.15448 0.82914 3.08100
Ti	Ti	0.17331 0.17557 0.66865 3.08000
Ti	Ti	0.71198 0.84552 0.82914 3.08000
Ti	Ti	0.82669 0.82443 0.66865 3.08000
Ti	Ti	0.78802 0.34552 0.17086 3.08100
Ti	Ti	0.67331 0.32443 0.33135 3.08100
Ti	Ti	0.21198 0.65448 0.17086 3.08200
Ti	Ti	0.32669 0.67557 0.33135 3.08100
Zn	Zn	0.10811 0.00460 0.24860 1.21100
Zn	Zn	0.00080 0.01403 0.09769 0.91900
Zn	Zn	0.89189 0.99540 0.24860 1.20800
Zn	Zn	0.99920 0.98597 0.09769 0.91100
Zn	Zn	0.60811 0.49540 0.75140 1.21000
Zn	Zn	0.50080 0.48597 0.90231 0.91500
Zn	Zn	0.39189 0.50460 0.75140 1.21000
Zn	Zn	0.49920 0.51403 0.90231 0.91500
H 	H 	0.31830 0.06850 0.13180 -0.03600
H 	H 	0.13500 0.04640 0.99530 -0.06200
H 	H 	0.44660 0.07780 0.13270 0.24900
H 	H 	0.40810 0.11670 0.16650 0.24400
H 	H 	0.49430 0.11840 0.13040 0.23400
H 	H 	0.47290 0.07370 0.00120 0.23300
H 	H 	0.51850 0.11450 0.01120 0.22900
H 	H 	0.45280 0.11000 0.94890 0.22900
H 	H 	0.37580 0.16860 0.99710 0.25900
H 	H 	0.45110 0.17340 0.04920 0.23600
H 	H 	0.36400 0.17230 0.08340 0.24200
H 	H 	0.20290 0.07340 0.84220 -0.07600
H 	H 	0.11940 0.07730 0.88330 0.01200
H 	H 	0.14910 0.15020 0.96230 0.03900
H 	H 	0.02970 0.12030 0.93290 0.01800
H 	H 	0.01550 0.15020 0.86670 -0.00600
H 	H 	0.93840 0.17180 0.96630 0.06200
H 	H 	0.01360 0.17090 0.01940 0.08200
H 	H 	0.98710 0.23350 0.98770 -0.00300
H 	H 	0.98930 0.22240 0.90300 -0.01100
H 	H 	0.12080 0.22230 0.99830 0.06500
H 	H 	0.10540 0.25310 0.93390 0.05500
H 	H 	0.12040 0.20330 0.84510 -0.04200
H 	H 	0.22490 0.24320 0.80490 0.01500
H 	H 	0.21970 0.26440 0.88260 0.03700
H 	H 	0.31030 0.31060 0.86820 -0.00200
H 	H 	0.54160 0.28680 0.82980 -0.03200
H 	H 	0.61960 0.24770 0.76480 0.21700
H 	H 	0.66060 0.20860 0.79490 0.21200
H 	H 	0.63610 0.24280 0.85020 0.22400
H 	H 	0.49650 0.16760 0.88790 0.22900
H 	H 	0.56420 0.19480 0.92230 0.22900
H 	H 	0.58710 0.16090 0.86560 0.21600
H 	H 	0.47120 0.17360 0.74380 0.20100
H 	H 	0.56430 0.16590 0.73690 0.19800
H 	H 	0.52590 0.20420 0.70070 0.20900
H 	H 	0.58670 0.41220 0.82410 -0.01200
H 	H 	0.55320 0.34610 0.80840 0.06500
H 	H 	0.34510 0.36480 0.91270 0.06100
H 	H 	0.37860 0.43100 0.92830 -0.02600
H 	H 	0.05830 0.12220 0.35710 -0.05100
H 	H 	0.16730 0.04670 0.49540 -0.02700
H 	H 	0.99000 0.17140 0.34120 0.25100
H 	H 	0.07500 0.19050 0.32660 0.23800
H 	H 	0.00180 0.21780 0.34890 0.24100
H 	H 	0.12260 0.21990 0.50650 0.26300
H 	H 	0.07860 0.24580 0.44580 0.24400
H 	H 	0.15190 0.21850 0.42350 0.25000
H 	H 	0.98300 0.18830 0.53610 0.24100
H 	H 	0.93350 0.17160 0.46840 0.25200
H 	H 	0.94980 0.21780 0.47540 0.24700
H 	H 	0.14470 0.08770 0.64760 -0.08600
H 	H 	0.21690 0.06670 0.60670 0.01300
H 	H 	0.27690 0.13710 0.53440 0.02900
H 	H 	0.38770 0.09240 0.62020 0.01200
H 	H 	0.33720 0.07540 0.55350 0.04200
H 	H 	0.40680 0.11480 0.47150 0.04200
H 	H 	0.46780 0.08840 0.51710 0.03500
H 	H 	0.49640 0.14350 0.59630 0.02100
H 	H 	0.51470 0.15570 0.51350 0.01600
H 	H 	0.39080 0.18780 0.50490 0.04100
H 	H 	0.43890 0.20570 0.57260 0.03000
H 	H 	0.36740 0.16570 0.65510 -0.03500
H 	H 	0.36050 0.24550 0.62960 0.02700
H 	H 	0.33040 0.22570 0.70340 0.00900
H 	H 	0.34510 0.30910 0.66960 -0.01000
H 	H 	0.12730 0.35580 0.70130 -0.03700
H 	H 	0.93680 0.33070 0.69840 0.24400
H 	H 	0.00720 0.34910 0.65110 0.26100
H 	H 	0.01370 0.34790 0.73820 0.25300
H 	H 	0.94340 0.27150 0.62790 0.24400
H 	H 	0.02390 0.24740 0.61690 0.25500
H 	H 	0.01380 0.28980 0.58040 0.26300
H 	H 	0.95620 0.26630 0.76320 0.22600
H 	H 	0.03410 0.28260 0.80260 0.24300
H 	H 	0.03780 0.24270 0.75650 0.22700
H 	H 	0.43470 0.43150 0.66610 -0.00400
H 	H 	0.37730 0.37060 0.63960 0.05900
H 	H 	0.19410 0.39610 0.77410 0.06200
H 	H 	0.25150 0.45700 0.80070 -0.00400
H 	H 	0.68170 0.93150 0.13180 -0.03600
H 	H 	0.86500 0.95360 0.99530 -0.06200
H 	H 	0.55340 0.92220 0.13270 0.24700
H 	H 	0.59190 0.88330 0.16650 0.24200
H 	H 	0.50570 0.88160 0.13040 0.23300
H 	H 	0.52710 0.92630 0.00120 0.23000
H 	H 	0.48150 0.88550 0.01120 0.22600
H 	H 	0.54720 0.89000 0.94890 0.22600
H 	H 	0.62420 0.83140 0.99710 0.26000
H 	H 	0.54890 0.82660 0.04920 0.23500
H 	H 	0.63600 0.82770 0.08340 0.24200
H 	H 	0.79710 0.92660 0.84220 -0.07800
H 	H 	0.88060 0.92270 0.88330 0.00900
H 	H 	0.85090 0.84980 0.96230 0.03200
H 	H 	0.97030 0.87970 0.93290 0.03200
H 	H 	0.98450 0.84980 0.86670 0.00700
H 	H 	0.06160 0.82820 0.96630 0.03200
H 	H 	0.98640 0.82910 0.01940 0.04600
H 	H 	0.01290 0.76650 0.98770 0.03300
H 	H 	0.01070 0.77760 0.90300 0.02500
H 	H 	0.87920 0.77770 0.99830 0.04700
H 	H 	0.89460 0.74690 0.93390 0.03500
H 	H 	0.87960 0.79670 0.84510 -0.03500
H 	H 	0.77510 0.75680 0.80490 0.01600
H 	H 	0.78030 0.73560 0.88260 0.03800
H 	H 	0.68970 0.68940 0.86820 -0.00200
H 	H 	0.45840 0.71320 0.82980 -0.03200
H 	H 	0.38040 0.75230 0.76480 0.21700
H 	H 	0.33940 0.79140 0.79490 0.21200
H 	H 	0.36390 0.75720 0.85020 0.22400
H 	H 	0.50350 0.83240 0.88790 0.22800
H 	H 	0.43580 0.80520 0.92230 0.22900
H 	H 	0.41290 0.83910 0.86560 0.21500
H 	H 	0.52880 0.82640 0.74380 0.20000
H 	H 	0.43570 0.83410 0.73690 0.19700
H 	H 	0.47410 0.79580 0.70070 0.20900
H 	H 	0.41330 0.58780 0.82410 -0.01200
H 	H 	0.44680 0.65390 0.80840 0.06500
H 	H 	0.65490 0.63520 0.91270 0.06100
H 	H 	0.62140 0.56900 0.92830 -0.02600
H 	H 	0.94170 0.87780 0.35710 -0.05400
H 	H 	0.83270 0.95330 0.49540 -0.02900
H 	H 	0.01000 0.82860 0.34120 0.26200
H 	H 	0.92500 0.80950 0.32660 0.24300
H 	H 	0.99820 0.78220 0.34890 0.24400
H 	H 	0.87740 0.78010 0.50650 0.26200
H 	H 	0.92140 0.75420 0.44580 0.24200
H 	H 	0.84810 0.78150 0.42350 0.25000
H 	H 	0.01700 0.81170 0.53610 0.24100
H 	H 	0.06650 0.82840 0.46840 0.25100
H 	H 	0.05020 0.78220 0.47540 0.24700
H 	H 	0.85530 0.91230 0.64760 -0.08900
H 	H 	0.78310 0.93330 0.60670 0.01100
H 	H 	0.72310 0.86290 0.53440 0.02900
H 	H 	0.61230 0.90760 0.62020 0.01100
H 	H 	0.66280 0.92460 0.55350 0.04100
H 	H 	0.59320 0.88520 0.47150 0.04200
H 	H 	0.53220 0.91160 0.51710 0.03400
H 	H 	0.50360 0.85650 0.59630 0.02100
H 	H 	0.48530 0.84430 0.51350 0.01600
H 	H 	0.60920 0.81220 0.50490 0.04100
H 	H 	0.56110 0.79430 0.57260 0.03000
H 	H 	0.63260 0.83430 0.65510 -0.03500
H 	H 	0.63950 0.75450 0.62960 0.02800
H 	H 	0.66960 0.77430 0.70340 0.01000
H 	H 	0.65490 0.69090 0.66960 -0.01000
H 	H 	0.87270 0.64420 0.70130 -0.03600
H 	H 	0.06320 0.66930 0.69840 0.22900
H 	H 	0.99280 0.65090 0.65110 0.23900
H 	H 	0.98630 0.65210 0.73820 0.23100
H 	H 	0.05660 0.72850 0.62790 0.25100
H 	H 	0.97610 0.75260 0.61690 0.25600
H 	H 	0.98620 0.71020 0.58040 0.26400
H 	H 	0.04380 0.73370 0.76320 0.23200
H 	H 	0.96590 0.71740 0.80260 0.24300
H 	H 	0.96220 0.75730 0.75650 0.22700
H 	H 	0.56530 0.56850 0.66610 -0.00400
H 	H 	0.62270 0.62940 0.63960 0.05800
H 	H 	0.80590 0.60390 0.77410 0.06200
H 	H 	0.74850 0.54300 0.80070 -0.00400
H 	H 	0.81830 0.43150 0.86820 -0.03700
H 	H 	0.63500 0.45360 0.00470 -0.06300
H 	H 	0.94660 0.42220 0.86730 0.24800
H 	H 	0.90810 0.38330 0.83350 0.24300
H 	H 	0.99430 0.38160 0.86960 0.23300
H 	H 	0.97290 0.42630 0.99880 0.23500
H 	H 	0.01850 0.38550 0.98880 0.23500
H 	H 	0.95280 0.39000 0.05110 0.23100
H 	H 	0.87580 0.33140 0.00290 0.26000
H 	H 	0.95110 0.32660 0.95080 0.23500
H 	H 	0.86400 0.32770 0.91660 0.24300
H 	H 	0.70290 0.42660 0.15780 -0.07700
H 	H 	0.61940 0.42270 0.11670 0.01000
H 	H 	0.64910 0.34980 0.03770 0.03600
H 	H 	0.52970 0.37970 0.06710 0.02400
H 	H 	0.51550 0.34980 0.13330 0.00000
H 	H 	0.43840 0.32820 0.03370 0.04800
H 	H 	0.51360 0.32910 0.98060 0.06500
H 	H 	0.48710 0.26650 0.01230 0.01400
H 	H 	0.48930 0.27760 0.09700 0.00600
H 	H 	0.62080 0.27770 0.00170 0.05600
H 	H 	0.60540 0.24690 0.06610 0.04600
H 	H 	0.62040 0.29670 0.15490 -0.03900
H 	H 	0.72490 0.25680 0.19510 0.01600
H 	H 	0.71970 0.23560 0.11740 0.03800
H 	H 	0.81030 0.18940 0.13180 -0.00100
H 	H 	0.04160 0.21320 0.17020 -0.02700
H 	H 	0.11960 0.25230 0.23520 0.21500
H 	H 	0.16060 0.29140 0.20510 0.21100
H 	H 	0.13610 0.25720 0.14980 0.22200
H 	H 	0.99650 0.33240 0.11210 0.22100
H 	H 	0.06420 0.30520 0.07770 0.22500
H 	H 	0.08710 0.33910 0.13440 0.21100
H 	H 	0.97120 0.32640 0.25620 0.19400
H 	H 	0.06430 0.33410 0.26310 0.19400
H 	H 	0.02590 0.29580 0.29930 0.20600
H 	H 	0.08670 0.08780 0.17590 -0.01200
H 	H 	0.05320 0.15390 0.19160 0.06300
H 	H 	0.84510 0.13520 0.08730 0.05900
H 	H 	0.87860 0.06900 0.07170 -0.02400
H 	H 	0.55830 0.37780 0.64290 -0.05200
H 	H 	0.66730 0.45330 0.50460 -0.02800
H 	H 	0.49000 0.32860 0.65880 0.25600
H 	H 	0.57500 0.30950 0.67340 0.24100
H 	H 	0.50180 0.28220 0.65110 0.24300
H 	H 	0.62260 0.28010 0.49350 0.26200
H 	H 	0.57860 0.25420 0.55420 0.24300
H 	H 	0.65190 0.28150 0.57650 0.25000
H 	H 	0.48300 0.31170 0.46390 0.24100
H 	H 	0.43350 0.32840 0.53160 0.25200
H 	H 	0.44980 0.28220 0.52460 0.24700
H 	H 	0.64470 0.41230 0.35240 -0.08800
H 	H 	0.71690 0.43330 0.39330 0.01200
H 	H 	0.77690 0.36290 0.46560 0.02900
H 	H 	0.88770 0.40760 0.37980 0.01200
H 	H 	0.83720 0.42460 0.44650 0.04200
H 	H 	0.90680 0.38520 0.52850 0.03900
H 	H 	0.96780 0.41160 0.48290 0.03200
H 	H 	0.99640 0.35650 0.40370 0.02300
H 	H 	0.01470 0.34430 0.48650 0.02200
H 	H 	0.89080 0.31220 0.49510 0.03900
H 	H 	0.93890 0.29430 0.42740 0.02800
H 	H 	0.86740 0.33430 0.34490 -0.03400
H 	H 	0.86050 0.25450 0.37040 0.02700
H 	H 	0.83040 0.27430 0.29660 0.00900
H 	H 	0.84510 0.19090 0.33040 -0.01000
H 	H 	0.62730 0.14420 0.29870 -0.03600
H 	H 	0.43680 0.16930 0.30160 0.23700
H 	H 	0.50720 0.15090 0.34890 0.25100
H 	H 	0.51370 0.15210 0.26180 0.24300
H 	H 	0.44340 0.22850 0.37210 0.24800
H 	H 	0.52390 0.25260 0.38310 0.25500
H 	H 	0.51380 0.21020 0.41960 0.26400
H 	H 	0.45620 0.23370 0.23680 0.22900
H 	H 	0.53410 0.21740 0.19740 0.24300
H 	H 	0.53780 0.25730 0.24350 0.22700
H 	H 	0.93470 0.06850 0.33390 -0.00500
H 	H 	0.87730 0.12940 0.36040 0.05800
H 	H 	0.69410 0.10390 0.22590 0.06200
H 	H 	0.75150 0.04300 0.19930 -0.00300
H 	H 	0.18170 0.56850 0.86820 -0.03500
H 	H 	0.36500 0.54640 0.00470 -0.06100
H 	H 	0.05340 0.57780 0.86730 0.24800
H 	H 	0.09190 0.61670 0.83350 0.24300
H 	H 	0.00570 0.61840 0.86960 0.23500
H 	H 	0.02710 0.57370 0.99880 0.22700
H 	H 	0.98150 0.61450 0.98880 0.22000
H 	H 	0.04720 0.61000 0.05110 0.22300
H 	H 	0.12420 0.66860 0.00290 0.25900
H 	H 	0.04890 0.67340 0.95080 0.23500
H 	H 	0.13600 0.67230 0.91660 0.24200
H 	H 	0.29710 0.57340 0.15780 -0.07600
H 	H 	0.38060 0.57730 0.11670 0.01000
H 	H 	0.35090 0.65020 0.03770 0.03600
H 	H 	0.47030 0.62030 0.06710 0.02400
H 	H 	0.48450 0.65020 0.13330 0.00000
H 	H 	0.56160 0.67180 0.03370 0.04800
H 	H 	0.48640 0.67090 0.98060 0.06500
H 	H 	0.51290 0.73350 0.01230 0.01400
H 	H 	0.51070 0.72240 0.09700 0.00600
H 	H 	0.37920 0.72230 0.00170 0.05700
H 	H 	0.39460 0.75310 0.06610 0.04600
H 	H 	0.37960 0.70330 0.15490 -0.03900
H 	H 	0.27510 0.74320 0.19510 0.01500
H 	H 	0.28030 0.76440 0.11740 0.03700
H 	H 	0.18970 0.81060 0.13180 -0.00300
H 	H 	0.95840 0.78680 0.17020 -0.03900
H 	H 	0.88040 0.74770 0.23520 0.21800
H 	H 	0.83940 0.70860 0.20510 0.21400
H 	H 	0.86390 0.74280 0.14980 0.22500
H 	H 	0.00350 0.66760 0.11210 0.23600
H 	H 	0.93580 0.69480 0.07770 0.23300
H 	H 	0.91290 0.66090 0.13440 0.22000
H 	H 	0.02880 0.67360 0.25620 0.20800
H 	H 	0.93570 0.66590 0.26310 0.20100
H 	H 	0.97410 0.70420 0.29930 0.21300
H 	H 	0.91330 0.91220 0.17590 -0.01200
H 	H 	0.94680 0.84610 0.19160 0.06700
H 	H 	0.15490 0.86480 0.08730 0.06200
H 	H 	0.12140 0.93100 0.07170 -0.02700
H 	H 	0.44170 0.62220 0.64290 -0.05200
H 	H 	0.33270 0.54670 0.50460 -0.02800
H 	H 	0.51000 0.67140 0.65880 0.25600
H 	H 	0.42500 0.69050 0.67340 0.24100
H 	H 	0.49820 0.71780 0.65110 0.24300
H 	H 	0.37740 0.71990 0.49350 0.26200
H 	H 	0.42140 0.74580 0.55420 0.24300
H 	H 	0.34810 0.71850 0.57650 0.25000
H 	H 	0.51700 0.68830 0.46390 0.24100
H 	H 	0.56650 0.67160 0.53160 0.25200
H 	H 	0.55020 0.71780 0.52460 0.24700
H 	H 	0.35530 0.58770 0.35240 -0.08700
H 	H 	0.28310 0.56670 0.39330 0.01200
H 	H 	0.22310 0.63710 0.46560 0.03000
H 	H 	0.11230 0.59240 0.37980 0.01100
H 	H 	0.16280 0.57540 0.44650 0.04100
H 	H 	0.09320 0.61480 0.52850 0.04400
H 	H 	0.03220 0.58840 0.48290 0.03700
H 	H 	0.00360 0.64350 0.40370 0.01900
H 	H 	0.98530 0.65570 0.48650 0.01000
H 	H 	0.10920 0.68780 0.49510 0.04300
H 	H 	0.06110 0.70570 0.42740 0.03300
H 	H 	0.13260 0.66570 0.34490 -0.03600
H 	H 	0.13950 0.74550 0.37040 0.02800
H 	H 	0.16960 0.72570 0.29660 0.01000
H 	H 	0.15490 0.80910 0.33040 -0.01000
H 	H 	0.37270 0.85580 0.29870 -0.03700
H 	H 	0.56320 0.83070 0.30160 0.23600
H 	H 	0.49280 0.84910 0.34890 0.25000
H 	H 	0.48630 0.84790 0.26180 0.24200
H 	H 	0.55660 0.77150 0.37210 0.24700
H 	H 	0.47610 0.74740 0.38310 0.25500
H 	H 	0.48620 0.78980 0.41960 0.26400
H 	H 	0.54380 0.76630 0.23680 0.22900
H 	H 	0.46590 0.78260 0.19740 0.24300
H 	H 	0.46220 0.74270 0.24350 0.22700
H 	H 	0.06530 0.93150 0.33390 -0.00400
H 	H 	0.12270 0.87060 0.36040 0.05900
H 	H 	0.30590 0.89610 0.22590 0.06200
H 	H 	0.24850 0.95700 0.19930 -0.00600
C 	C 	0.17080 0.02780 0.12800 0.35500
C 	C 	0.22150 0.05340 0.07160 -0.20200
C 	C 	0.29220 0.07270 0.08660 0.18600
C 	C 	0.32470 0.09800 0.03530 -0.38100
C 	C 	0.28650 0.10420 0.96910 0.41200
C 	C 	0.21580 0.08490 0.95420 -0.25500
C 	C 	0.18330 0.05950 0.00540 0.13600
C 	C 	0.40400 0.11600 0.05240 0.59100
C 	C 	0.44170 0.10630 0.12740 -0.81600
C 	C 	0.46780 0.10230 0.99850 -0.79700
C 	C 	0.39820 0.16190 0.04480 -0.80600
C 	C 	0.17340 0.08830 0.87980 -0.02100
C 	C 	0.12610 0.15580 0.91310 -0.06100
C 	C 	0.03840 0.14760 0.91620 -0.02900
C 	C 	0.99620 0.17630 0.96880 -0.18000
C 	C 	0.01280 0.21630 0.95110 0.03500
C 	C 	0.09800 0.22540 0.94890 -0.16800
C 	C 	0.14210 0.19820 0.89490 0.01600
C 	C 	0.24690 0.24340 0.85500 -0.03500
C 	C 	0.33330 0.25250 0.85130 -0.20800
C 	C 	0.35120 0.29221 0.85810 0.07100
C 	C 	0.42880 0.30499 0.85010 -0.11900
C 	C 	0.48850 0.27810 0.83520 0.12200
C 	C 	0.47070 0.23840 0.82840 -0.33800
C 	C 	0.39310 0.22565 0.83650 0.40900
C 	C 	0.53770 0.20970 0.81520 0.52600
C 	C 	0.62140 0.22900 0.80540 -0.74300
C 	C 	0.54720 0.18060 0.87850 -0.76900
C 	C 	0.52340 0.18610 0.74230 -0.70600
C 	C 	0.53770 0.40260 0.84210 0.06100
C 	C 	0.51780 0.36330 0.83280 -0.14100
C 	C 	0.44600 0.34920 0.85910 0.09200
C 	C 	0.39420 0.37450 0.89470 -0.13100
C 	C 	0.41410 0.41370 0.90400 0.02900
C 	C 	0.10970 0.04900 0.36160 0.53800
C 	C 	0.11230 0.07983 0.41790 -0.30100
C 	C 	0.08160 0.11690 0.40320 0.23800
C 	C 	0.08510 0.14612 0.45600 -0.39400
C 	C 	0.11920 0.13833 0.52340 0.43300
C 	C 	0.14990 0.10128 0.53810 -0.27600
C 	C 	0.14640 0.07203 0.48530 0.18900
C 	C 	0.04870 0.18680 0.44030 0.59800
C 	C 	0.02670 0.19220 0.35610 -0.78800
C 	C 	0.10560 0.22080 0.45540 -0.84100
C 	C 	0.97180 0.19160 0.48400 -0.83600
C 	C 	0.18700 0.09160 0.61090 0.01100
C 	C 	0.30300 0.13230 0.58250 -0.04300
C 	C 	0.36440 0.09910 0.57230 -0.07800
C 	C 	0.42920 0.11020 0.52070 -0.09500
C 	C 	0.47210 0.14840 0.54810 -0.06800
C 	C 	0.41240 0.18180 0.55380 -0.10700
C 	C 	0.34430 0.17010 0.60560 -0.01500
C 	C 	0.31310 0.23520 0.65500 -0.02400
C 	C 	0.25600 0.26885 0.66630 -0.22100
C 	C 	0.28946 0.30591 0.67360 0.08100
C 	C 	0.24150 0.33831 0.68660 -0.13100
C 	C 	0.16000 0.33365 0.69240 0.13600
C 	C 	0.12653 0.29659 0.68510 -0.35400
C 	C 	0.17450 0.26419 0.67200 0.42500
C 	C 	0.03470 0.29250 0.69050 0.61000
C 	C 	0.99430 0.33400 0.69500 -0.84300
C 	C 	0.00100 0.27370 0.62300 -0.86500
C 	C 	0.01380 0.26890 0.75940 -0.80900
C 	C 	0.38580 0.42427 0.68800 0.06000
C 	C 	0.35180 0.38811 0.67230 -0.14000
C 	C 	0.28030 0.37761 0.70440 0.10300
C 	C 	0.24300 0.40326 0.75220 -0.14200
C 	C 	0.27700 0.43943 0.76800 0.05600
C 	C 	0.82920 0.97220 0.12800 0.35500
C 	C 	0.77850 0.94660 0.07160 -0.20300
C 	C 	0.70780 0.92730 0.08660 0.18600
C 	C 	0.67530 0.90200 0.03530 -0.38100
C 	C 	0.71350 0.89580 0.96910 0.41300
C 	C 	0.78420 0.91510 0.95420 -0.25500
C 	C 	0.81670 0.94050 0.00540 0.13300
C 	C 	0.59600 0.88400 0.05240 0.58800
C 	C 	0.55830 0.89370 0.12740 -0.81200
C 	C 	0.53220 0.89770 0.99850 -0.79100
C 	C 	0.60180 0.83810 0.04480 -0.80500
C 	C 	0.82660 0.91170 0.87980 -0.02000
C 	C 	0.87390 0.84420 0.91310 -0.03500
C 	C 	0.96160 0.85240 0.91620 -0.08600
C 	C 	0.00380 0.82370 0.96880 -0.07500
C 	C 	0.98720 0.78370 0.95110 -0.07600
C 	C 	0.90200 0.77460 0.94890 -0.10500
C 	C 	0.85790 0.80180 0.89490 -0.01100
C 	C 	0.75310 0.75660 0.85500 -0.03500
C 	C 	0.66670 0.74750 0.85130 -0.20800
C 	C 	0.64880 0.70779 0.85810 0.07100
C 	C 	0.57120 0.69501 0.85010 -0.11900
C 	C 	0.51150 0.72190 0.83520 0.12200
C 	C 	0.52930 0.76160 0.82840 -0.33700
C 	C 	0.60690 0.77435 0.83650 0.40900
C 	C 	0.46230 0.79030 0.81520 0.52500
C 	C 	0.37860 0.77100 0.80540 -0.74200
C 	C 	0.45280 0.81940 0.87850 -0.76800
C 	C 	0.47660 0.81390 0.74230 -0.70500
C 	C 	0.46230 0.59740 0.84210 0.06100
C 	C 	0.48220 0.63670 0.83280 -0.14100
C 	C 	0.55400 0.65080 0.85910 0.09200
C 	C 	0.60580 0.62550 0.89470 -0.13100
C 	C 	0.58590 0.58630 0.90400 0.02900
C 	C 	0.89030 0.95100 0.36160 0.54000
C 	C 	0.88770 0.92017 0.41790 -0.30500
C 	C 	0.91840 0.88310 0.40320 0.24000
C 	C 	0.91490 0.85388 0.45600 -0.39700
C 	C 	0.88080 0.86167 0.52340 0.43400
C 	C 	0.85010 0.89872 0.53810 -0.27900
C 	C 	0.85360 0.92797 0.48530 0.19100
C 	C 	0.95130 0.81320 0.44030 0.59500
C 	C 	0.97330 0.80780 0.35610 -0.80900
C 	C 	0.89440 0.77920 0.45540 -0.83800
C 	C 	0.02820 0.80840 0.48400 -0.82700
C 	C 	0.81300 0.90840 0.61090 0.01300
C 	C 	0.69700 0.86770 0.58250 -0.04400
C 	C 	0.63560 0.90090 0.57230 -0.07700
C 	C 	0.57080 0.88980 0.52070 -0.09500
C 	C 	0.52790 0.85160 0.54810 -0.06800
C 	C 	0.58760 0.81820 0.55380 -0.10700
C 	C 	0.65570 0.82990 0.60560 -0.01500
C 	C 	0.68690 0.76480 0.65500 -0.02500
C 	C 	0.74400 0.73115 0.66630 -0.22000
C 	C 	0.71054 0.69409 0.67360 0.08000
C 	C 	0.75850 0.66169 0.68660 -0.13000
C 	C 	0.84000 0.66635 0.69240 0.13300
C 	C 	0.87347 0.70341 0.68510 -0.34900
C 	C 	0.82550 0.73581 0.67200 0.42300
C 	C 	0.96530 0.70750 0.69050 0.59700
C 	C 	0.00570 0.66600 0.69500 -0.78400
C 	C 	0.99900 0.72630 0.62300 -0.87400
C 	C 	0.98620 0.73110 0.75940 -0.81700
C 	C 	0.61420 0.57573 0.68800 0.06000
C 	C 	0.64820 0.61189 0.67230 -0.14000
C 	C 	0.71970 0.62239 0.70440 0.10200
C 	C 	0.75700 0.59674 0.75220 -0.14200
C 	C 	0.72300 0.56057 0.76800 0.05600
C 	C 	0.67080 0.47220 0.87200 0.35600
C 	C 	0.72150 0.44660 0.92840 -0.20300
C 	C 	0.79220 0.42730 0.91340 0.18700
C 	C 	0.82470 0.40200 0.96470 -0.38300
C 	C 	0.78650 0.39580 0.03090 0.41300
C 	C 	0.71580 0.41510 0.04580 -0.25600
C 	C 	0.68330 0.44050 0.99460 0.13600
C 	C 	0.90400 0.38400 0.94760 0.59400
C 	C 	0.94170 0.39370 0.87260 -0.81600
C 	C 	0.96780 0.39770 0.00150 -0.81000
C 	C 	0.89820 0.33810 0.95520 -0.80700
C 	C 	0.67340 0.41170 0.12020 -0.02000
C 	C 	0.62610 0.34420 0.08690 -0.04900
C 	C 	0.53840 0.35240 0.08380 -0.05500
C 	C 	0.49620 0.32370 0.03120 -0.13200
C 	C 	0.51280 0.28370 0.04890 -0.01600
C 	C 	0.59800 0.27460 0.05110 -0.13900
C 	C 	0.64210 0.30180 0.10510 0.00300
C 	C 	0.74690 0.25660 0.14500 -0.03600
C 	C 	0.83330 0.24750 0.14870 -0.20600
C 	C 	0.85120 0.20779 0.14190 0.06800
C 	C 	0.92880 0.19501 0.14990 -0.11400
C 	C 	0.98850 0.22190 0.16480 0.11100
C 	C 	0.97070 0.26160 0.17160 -0.33400
C 	C 	0.89310 0.27435 0.16350 0.40700
C 	C 	0.03770 0.29030 0.18480 0.51900
C 	C 	0.12140 0.27100 0.19460 -0.73700
C 	C 	0.04720 0.31940 0.12150 -0.75100
C 	C 	0.02340 0.31390 0.25770 -0.68900
C 	C 	0.03770 0.09740 0.15790 0.06200
C 	C 	0.01780 0.13670 0.16720 -0.13400
C 	C 	0.94600 0.15080 0.14090 0.08400
C 	C 	0.89420 0.12550 0.10530 -0.12800
C 	C 	0.91410 0.08630 0.09600 0.02600
C 	C 	0.60970 0.45100 0.63840 0.53900
C 	C 	0.61230 0.42017 0.58210 -0.30200
C 	C 	0.58160 0.38310 0.59680 0.23900
C 	C 	0.58510 0.35388 0.54400 -0.39500
C 	C 	0.61920 0.36167 0.47660 0.43300
C 	C 	0.64990 0.39872 0.46190 -0.27800
C 	C 	0.64640 0.42797 0.51470 0.19000
C 	C 	0.54870 0.31320 0.55970 0.59700
C 	C 	0.52670 0.30780 0.64390 -0.79800
C 	C 	0.60560 0.27920 0.54460 -0.84000
C 	C 	0.47180 0.30840 0.51600 -0.83200
C 	C 	0.68700 0.40840 0.38910 0.01200
C 	C 	0.80300 0.36770 0.41750 -0.04200
C 	C 	0.86440 0.40090 0.42770 -0.08000
C 	C 	0.92920 0.38980 0.47930 -0.08900
C 	C 	0.97210 0.35160 0.45190 -0.07900
C 	C 	0.91240 0.31820 0.44620 -0.10200
C 	C 	0.84430 0.32990 0.39440 -0.01700
C 	C 	0.81310 0.26480 0.34500 -0.02400
C 	C 	0.75600 0.23115 0.33370 -0.22100
C 	C 	0.78946 0.19409 0.32640 0.08100
C 	C 	0.74150 0.16169 0.31340 -0.13000
C 	C 	0.66000 0.16635 0.30760 0.13500
C 	C 	0.62653 0.20341 0.31490 -0.35200
C 	C 	0.67450 0.23581 0.32800 0.42400
C 	C 	0.53470 0.20750 0.30950 0.60400
C 	C 	0.49430 0.16600 0.30500 -0.81500
C 	C 	0.50100 0.22630 0.37700 -0.86900
C 	C 	0.51380 0.23110 0.24060 -0.81300
C 	C 	0.88580 0.07573 0.31200 0.06100
C 	C 	0.85180 0.11189 0.32770 -0.14000
C 	C 	0.78030 0.12239 0.29560 0.10200
C 	C 	0.74300 0.09674 0.24780 -0.14200
C 	C 	0.77700 0.06057 0.23200 0.05700
C 	C 	0.32920 0.52780 0.87200 0.35500
C 	C 	0.27850 0.55340 0.92840 -0.20100
C 	C 	0.20780 0.57270 0.91340 0.18500
C 	C 	0.17530 0.59800 0.96470 -0.37900
C 	C 	0.21350 0.60420 0.03090 0.41200
C 	C 	0.28420 0.58490 0.04580 -0.25400
C 	C 	0.31670 0.55950 0.99460 0.13400
C 	C 	0.09600 0.61600 0.94760 0.58500
C 	C 	0.05830 0.60630 0.87260 -0.81200
C 	C 	0.03220 0.60230 0.00150 -0.77700
C 	C 	0.10180 0.66190 0.95520 -0.80300
C 	C 	0.32660 0.58830 0.12020 -0.02100
C 	C 	0.37390 0.65580 0.08690 -0.04900
C 	C 	0.46160 0.64760 0.08380 -0.05500
C 	C 	0.50380 0.67630 0.03120 -0.13200
C 	C 	0.48720 0.71630 0.04890 -0.01600
C 	C 	0.40200 0.72540 0.05110 -0.13900
C 	C 	0.35790 0.69820 0.10510 0.00400
C 	C 	0.25310 0.74340 0.14500 -0.03400
C 	C 	0.16670 0.75250 0.14870 -0.21000
C 	C 	0.14880 0.79221 0.14190 0.07500
C 	C 	0.07120 0.80499 0.14990 -0.12500
C 	C 	0.01150 0.77810 0.16480 0.13400
C 	C 	0.02930 0.73840 0.17160 -0.34100
C 	C 	0.10690 0.72565 0.16350 0.41200
C 	C 	0.96230 0.70970 0.18480 0.53200
C 	C 	0.87860 0.72900 0.19460 -0.74800
C 	C 	0.95280 0.68060 0.12150 -0.78600
C 	C 	0.97660 0.68610 0.25770 -0.72200
C 	C 	0.96230 0.90260 0.15790 0.06000
C 	C 	0.98220 0.86330 0.16720 -0.14900
C 	C 	0.05400 0.84920 0.14090 0.10200
C 	C 	0.10580 0.87450 0.10530 -0.13500
C 	C 	0.08590 0.91370 0.09600 0.03100
C 	C 	0.39030 0.54900 0.63840 0.53900
C 	C 	0.38770 0.57983 0.58210 -0.30200
C 	C 	0.41840 0.61690 0.59680 0.23900
C 	C 	0.41490 0.64612 0.54400 -0.39500
C 	C 	0.38080 0.63833 0.47660 0.43300
C 	C 	0.35010 0.60128 0.46190 -0.27800
C 	C 	0.35360 0.57203 0.51470 0.19000
C 	C 	0.45130 0.68680 0.55970 0.59700
C 	C 	0.47330 0.69220 0.64390 -0.79800
C 	C 	0.39440 0.72080 0.54460 -0.84000
C 	C 	0.52820 0.69160 0.51600 -0.83200
C 	C 	0.31300 0.59160 0.38910 0.01200
C 	C 	0.19700 0.63230 0.41750 -0.04500
C 	C 	0.13560 0.59910 0.42770 -0.07400
C 	C 	0.07080 0.61020 0.47930 -0.10100
C 	C 	0.02790 0.64840 0.45190 -0.05700
C 	C 	0.08760 0.68180 0.44620 -0.11400
C 	C 	0.15570 0.67010 0.39440 -0.01200
C 	C 	0.18690 0.73520 0.34500 -0.02500
C 	C 	0.24400 0.76885 0.33370 -0.22100
C 	C 	0.21054 0.80591 0.32640 0.08100
C 	C 	0.25850 0.83831 0.31340 -0.13000
C 	C 	0.34000 0.83365 0.30760 0.13400
C 	C 	0.37347 0.79659 0.31490 -0.35200
C 	C 	0.32550 0.76419 0.32800 0.42400
C 	C 	0.46530 0.79250 0.30950 0.60300
C 	C 	0.50570 0.83400 0.30500 -0.81400
C 	C 	0.49900 0.77370 0.37700 -0.86900
C 	C 	0.48620 0.76890 0.24060 -0.81200
C 	C 	0.11420 0.92427 0.31200 0.06000
C 	C 	0.14820 0.88811 0.32770 -0.14000
C 	C 	0.21970 0.87761 0.29560 0.10200
C 	C 	0.25700 0.90326 0.24780 -0.14200
C 	C 	0.22300 0.93943 0.23200 0.05600
N 	N 	0.16940 0.13180 0.85870 -0.40700
N 	N 	0.22990 0.20360 0.89160 -0.33400
N 	N 	0.24110 0.12319 0.63610 -0.41800
N 	N 	0.28180 0.20103 0.61240 -0.32700
N 	N 	0.48580 0.42780 0.87770 -0.27400
N 	N 	0.34850 0.44993 0.73590 -0.25800
N 	N 	0.83060 0.86820 0.85870 -0.41100
N 	N 	0.77010 0.79640 0.89160 -0.33100
N 	N 	0.75890 0.87681 0.63610 -0.41800
N 	N 	0.71820 0.79897 0.61240 -0.32700
N 	N 	0.51420 0.57220 0.87770 -0.27400
N 	N 	0.65150 0.55007 0.73590 -0.25800
N 	N 	0.66940 0.36820 0.14130 -0.40900
N 	N 	0.72990 0.29640 0.10840 -0.33300
N 	N 	0.74110 0.37681 0.36390 -0.41800
N 	N 	0.78180 0.29897 0.38760 -0.32700
N 	N 	0.98580 0.07220 0.12230 -0.27500
N 	N 	0.84850 0.05007 0.26410 -0.25700
N 	N 	0.33060 0.63180 0.14130 -0.40900
N 	N 	0.27010 0.70360 0.10840 -0.33300
N 	N 	0.25890 0.62319 0.36390 -0.41800
N 	N 	0.21820 0.70103 0.38760 -0.32700
N 	N 	0.01420 0.92780 0.12230 -0.27200
N 	N 	0.15150 0.94993 0.26410 -0.26000
O 	O 	0.12040 0.00400 0.10130 -0.61800
O 	O 	0.20190 0.02930 0.18990 -0.43700
O 	O 	0.31570 0.12990 0.92100 -0.86300
O 	O 	0.37490 0.18730 0.83030 -0.90100
O 	O 	0.13970 0.01970 0.36870 -0.47300
O 	O 	0.07940 0.05480 0.30230 -0.50900
O 	O 	0.12460 0.16577 0.57560 -0.87700
O 	O 	0.14290 0.22848 0.66990 -0.89000
O 	O 	0.23620 0.17503 0.74980 -1.42800
O 	O 	0.87960 0.99600 0.10130 -0.62500
O 	O 	0.79810 0.97070 0.18990 -0.44100
O 	O 	0.68430 0.87010 0.92100 -0.86300
O 	O 	0.62510 0.81270 0.83030 -0.90100
O 	O 	0.86030 0.98030 0.36870 -0.47900
O 	O 	0.92060 0.94520 0.30230 -0.51300
O 	O 	0.87540 0.83423 0.57560 -0.87900
O 	O 	0.85710 0.77152 0.66990 -0.89000
O 	O 	0.76380 0.82497 0.74980 -1.42800
O 	O 	0.62040 0.49600 0.89870 -0.62100
O 	O 	0.70190 0.47070 0.81010 -0.43900
O 	O 	0.81570 0.37010 0.07900 -0.86400
O 	O 	0.87490 0.31270 0.16970 -0.90100
O 	O 	0.63970 0.48030 0.63130 -0.47600
O 	O 	0.57940 0.44520 0.69770 -0.51000
O 	O 	0.62460 0.33423 0.42440 -0.87800
O 	O 	0.64290 0.27152 0.33010 -0.89000
O 	O 	0.73620 0.32497 0.25020 -1.42800
O 	O 	0.37960 0.50400 0.89870 -0.62100
O 	O 	0.29810 0.52930 0.81010 -0.43900
O 	O 	0.18430 0.62990 0.07900 -0.86300
O 	O 	0.12510 0.68730 0.16970 -0.90200
O 	O 	0.36030 0.51970 0.63130 -0.47600
O 	O 	0.42060 0.55480 0.69770 -0.51000
O 	O 	0.37540 0.66577 0.42440 -0.87800
O 	O 	0.35710 0.72848 0.33010 -0.89000
O 	O 	0.26380 0.67503 0.25020 -1.42800
O 	O 	0.00000 0.00000 0.19970 -0.80300
O 	O 	0.50000 0.50000 0.80030 -0.80900
