data_crystal

_cell_length_a 32.86430
_cell_length_b 32.86430
_cell_length_c 32.86430
_cell_angle_alpha 90.00000
_cell_angle_beta  90.00000
_cell_angle_gamma 90.00000

_symmetry_space_group_name_	'P 1'
_symmetry_space_group_name_H-M	'P 1'

loop_
_symmetry_equiv_pos_as_xyz
  x,y,z

loop_
_atom_site_label
_atom_site_type_symbol
_atom_site_fract_x
_atom_site_fract_y
_atom_site_fract_z
_atom_site_charge
O 	O 	0.21607 0.79849 0.02870 -0.48600
O 	O 	0.21549 0.79970 0.96038 -0.48400
C 	C 	0.20583 0.81293 0.99474 0.40700
C 	C 	0.17987 0.85059 0.99604 -0.11900
C 	C 	0.16978 0.86765 0.03249 0.01100
H 	H 	0.17900 0.85530 0.05700 0.03700
C 	C 	0.14619 0.90287 0.03439 -0.03100
C 	C 	0.13501 0.92109 0.07061 -0.02200
H 	H 	0.14510 0.91050 0.09550 0.03400
C 	C 	0.10931 0.95451 0.07115 -0.08200
H 	H 	0.10200 0.96640 0.09650 0.05600
C 	C 	0.09426 0.97080 0.03561 0.03900
C 	C 	0.10429 0.95316 0.99923 -0.13000
H 	H 	0.09310 0.96400 0.97490 0.07800
C 	C 	0.13049 0.91963 0.99670 0.08600
C 	C 	0.14229 0.90115 0.96022 -0.13700
H 	H 	0.13380 0.91300 0.93530 0.07800
C 	C 	0.16523 0.86720 0.95905 0.05700
H 	H 	0.17150 0.85460 0.93380 0.02100
C 	C 	0.06463 0.00506 0.03571 0.04600
C 	C 	0.06556 0.03488 0.00614 -0.10900
H 	H 	0.08670 0.03500 0.98650 0.06800
O 	O 	0.28393 0.70151 0.02870 -0.48600
O 	O 	0.28451 0.70030 0.96038 -0.48400
C 	C 	0.29417 0.68707 0.99474 0.40700
C 	C 	0.32013 0.64941 0.99604 -0.12000
C 	C 	0.33022 0.63235 0.03249 0.01100
H 	H 	0.32100 0.64470 0.05700 0.03700
C 	C 	0.35381 0.59713 0.03439 -0.03100
C 	C 	0.36499 0.57891 0.07061 -0.02200
H 	H 	0.35490 0.58950 0.09550 0.03400
C 	C 	0.39069 0.54549 0.07115 -0.08200
H 	H 	0.39800 0.53360 0.09650 0.05600
C 	C 	0.40574 0.52920 0.03561 0.03900
C 	C 	0.39571 0.54684 0.99923 -0.13000
H 	H 	0.40690 0.53600 0.97490 0.07800
C 	C 	0.36951 0.58037 0.99670 0.08600
C 	C 	0.35771 0.59885 0.96022 -0.13700
H 	H 	0.36620 0.58700 0.93530 0.07800
C 	C 	0.33477 0.63280 0.95905 0.05700
H 	H 	0.32850 0.64540 0.93380 0.02100
C 	C 	0.43537 0.49494 0.03571 0.04600
C 	C 	0.43444 0.46512 0.00614 -0.10900
H 	H 	0.41330 0.46500 0.98650 0.06800
O 	O 	0.28393 0.79849 0.47130 -0.48600
O 	O 	0.28451 0.79970 0.53962 -0.48400
C 	C 	0.29417 0.81293 0.50526 0.40700
C 	C 	0.32013 0.85059 0.50396 -0.11900
C 	C 	0.33022 0.86765 0.46751 0.01100
H 	H 	0.32100 0.85530 0.44300 0.03700
C 	C 	0.35381 0.90287 0.46561 -0.03100
C 	C 	0.36499 0.92109 0.42939 -0.02200
H 	H 	0.35490 0.91050 0.40450 0.03400
C 	C 	0.39069 0.95451 0.42885 -0.08200
H 	H 	0.39800 0.96640 0.40350 0.05600
C 	C 	0.40574 0.97080 0.46439 0.03900
C 	C 	0.39571 0.95316 0.50077 -0.13000
H 	H 	0.40690 0.96400 0.52510 0.07800
C 	C 	0.36951 0.91963 0.50330 0.08600
C 	C 	0.35771 0.90115 0.53978 -0.13700
H 	H 	0.36620 0.91300 0.56470 0.07800
C 	C 	0.33477 0.86720 0.54095 0.05700
H 	H 	0.32850 0.85460 0.56620 0.02100
C 	C 	0.43537 0.00506 0.46429 0.04600
C 	C 	0.43444 0.03488 0.49386 -0.10900
H 	H 	0.41330 0.03500 0.51350 0.06800
O 	O 	0.21607 0.70151 0.47130 -0.48600
O 	O 	0.21549 0.70030 0.53962 -0.48400
C 	C 	0.20583 0.68707 0.50526 0.40700
C 	C 	0.17987 0.64941 0.50396 -0.11900
C 	C 	0.16978 0.63235 0.46751 0.01100
H 	H 	0.17900 0.64470 0.44300 0.03700
C 	C 	0.14619 0.59713 0.46561 -0.03100
C 	C 	0.13501 0.57891 0.42939 -0.02200
H 	H 	0.14510 0.58950 0.40450 0.03400
C 	C 	0.10931 0.54549 0.42885 -0.08200
H 	H 	0.10200 0.53360 0.40350 0.05600
C 	C 	0.09426 0.52920 0.46439 0.03900
C 	C 	0.10429 0.54684 0.50077 -0.13000
H 	H 	0.09310 0.53600 0.52510 0.07800
C 	C 	0.13049 0.58037 0.50330 0.08600
C 	C 	0.14229 0.59885 0.53978 -0.13700
H 	H 	0.13380 0.58700 0.56470 0.07800
C 	C 	0.16523 0.63280 0.54095 0.05700
H 	H 	0.17150 0.64540 0.56620 0.02100
C 	C 	0.06463 0.49494 0.46429 0.04600
C 	C 	0.06556 0.46512 0.49386 -0.10900
H 	H 	0.08670 0.46500 0.51350 0.06800
O 	O 	0.02870 0.21607 0.79849 -0.48600
O 	O 	0.96038 0.21549 0.79970 -0.48400
C 	C 	0.99474 0.20583 0.81293 0.40700
C 	C 	0.99604 0.17987 0.85059 -0.11900
C 	C 	0.03249 0.16978 0.86765 0.01100
H 	H 	0.05700 0.17900 0.85530 0.03700
C 	C 	0.03439 0.14619 0.90287 -0.03100
C 	C 	0.07061 0.13501 0.92109 -0.02200
H 	H 	0.09550 0.14510 0.91050 0.03400
C 	C 	0.07115 0.10931 0.95451 -0.08200
H 	H 	0.09650 0.10200 0.96640 0.05600
C 	C 	0.03561 0.09426 0.97080 0.03900
C 	C 	0.99923 0.10429 0.95316 -0.13000
H 	H 	0.97490 0.09310 0.96400 0.07800
C 	C 	0.99670 0.13049 0.91963 0.08600
C 	C 	0.96022 0.14229 0.90115 -0.13700
H 	H 	0.93530 0.13380 0.91300 0.07800
C 	C 	0.95905 0.16523 0.86720 0.05700
H 	H 	0.93380 0.17150 0.85460 0.02100
C 	C 	0.03571 0.06463 0.00506 0.04600
C 	C 	0.00614 0.06556 0.03488 -0.10900
H 	H 	0.98650 0.08670 0.03500 0.06800
O 	O 	0.02870 0.28393 0.70151 -0.48600
O 	O 	0.96038 0.28451 0.70030 -0.48400
C 	C 	0.99474 0.29417 0.68707 0.40700
C 	C 	0.99604 0.32013 0.64941 -0.12000
C 	C 	0.03249 0.33022 0.63235 0.01100
H 	H 	0.05700 0.32100 0.64470 0.03700
C 	C 	0.03439 0.35381 0.59713 -0.03100
C 	C 	0.07061 0.36499 0.57891 -0.02200
H 	H 	0.09550 0.35490 0.58950 0.03400
C 	C 	0.07115 0.39069 0.54549 -0.08200
H 	H 	0.09650 0.39800 0.53360 0.05600
C 	C 	0.03561 0.40574 0.52920 0.03900
C 	C 	0.99923 0.39571 0.54684 -0.13000
H 	H 	0.97490 0.40690 0.53600 0.07800
C 	C 	0.99670 0.36951 0.58037 0.08600
C 	C 	0.96022 0.35771 0.59885 -0.13700
H 	H 	0.93530 0.36620 0.58700 0.07800
C 	C 	0.95905 0.33477 0.63280 0.05700
H 	H 	0.93380 0.32850 0.64540 0.02100
C 	C 	0.03571 0.43537 0.49494 0.04600
C 	C 	0.00614 0.43444 0.46512 -0.10900
H 	H 	0.98650 0.41330 0.46500 0.06800
O 	O 	0.47130 0.28393 0.79849 -0.48700
O 	O 	0.53962 0.28451 0.79970 -0.48500
C 	C 	0.50526 0.29417 0.81293 0.40600
C 	C 	0.50396 0.32013 0.85059 -0.12000
C 	C 	0.46751 0.33022 0.86765 0.01000
H 	H 	0.44300 0.32100 0.85530 0.03600
C 	C 	0.46561 0.35381 0.90287 -0.03200
C 	C 	0.42939 0.36499 0.92109 -0.02300
H 	H 	0.40450 0.35490 0.91050 0.03300
C 	C 	0.42885 0.39069 0.95451 -0.08300
H 	H 	0.40350 0.39800 0.96640 0.05500
C 	C 	0.46439 0.40574 0.97080 0.03800
C 	C 	0.50077 0.39571 0.95316 -0.13100
H 	H 	0.52510 0.40690 0.96400 0.07700
C 	C 	0.50330 0.36951 0.91963 0.08500
C 	C 	0.53978 0.35771 0.90115 -0.13800
H 	H 	0.56470 0.36620 0.91300 0.07700
C 	C 	0.54095 0.33477 0.86720 0.05600
H 	H 	0.56620 0.32850 0.85460 0.02000
C 	C 	0.46429 0.43537 0.00506 0.04500
C 	C 	0.49386 0.43444 0.03488 -0.11000
H 	H 	0.51350 0.41330 0.03500 0.06700
O 	O 	0.47130 0.21607 0.70151 -0.48700
O 	O 	0.53962 0.21549 0.70030 -0.48500
C 	C 	0.50526 0.20583 0.68707 0.40600
C 	C 	0.50396 0.17987 0.64941 -0.12000
C 	C 	0.46751 0.16978 0.63235 0.01000
H 	H 	0.44300 0.17900 0.64470 0.03600
C 	C 	0.46561 0.14619 0.59713 -0.03200
C 	C 	0.42939 0.13501 0.57891 -0.02300
H 	H 	0.40450 0.14510 0.58950 0.03300
C 	C 	0.42885 0.10931 0.54549 -0.08300
H 	H 	0.40350 0.10200 0.53360 0.05500
C 	C 	0.46439 0.09426 0.52920 0.03800
C 	C 	0.50077 0.10429 0.54684 -0.13100
H 	H 	0.52510 0.09310 0.53600 0.07700
C 	C 	0.50330 0.13049 0.58037 0.08500
C 	C 	0.53978 0.14229 0.59885 -0.13800
H 	H 	0.56470 0.13380 0.58700 0.07700
C 	C 	0.54095 0.16523 0.63280 0.05600
H 	H 	0.56620 0.17150 0.64540 0.02000
C 	C 	0.46429 0.06463 0.49494 0.04500
C 	C 	0.49386 0.06556 0.46512 -0.11000
H 	H 	0.51350 0.08670 0.46500 0.06700
O 	O 	0.79849 0.02870 0.21607 -0.48700
O 	O 	0.79970 0.96038 0.21549 -0.48500
C 	C 	0.81293 0.99474 0.20583 0.40600
C 	C 	0.85059 0.99604 0.17987 -0.12000
C 	C 	0.86765 0.03249 0.16978 0.01000
H 	H 	0.85530 0.05700 0.17900 0.03600
C 	C 	0.90287 0.03439 0.14619 -0.03200
C 	C 	0.92109 0.07061 0.13501 -0.02300
H 	H 	0.91050 0.09550 0.14510 0.03300
C 	C 	0.95451 0.07115 0.10931 -0.08300
H 	H 	0.96640 0.09650 0.10200 0.05500
C 	C 	0.97080 0.03561 0.09426 0.03800
C 	C 	0.95316 0.99923 0.10429 -0.13100
H 	H 	0.96400 0.97490 0.09310 0.07700
C 	C 	0.91963 0.99670 0.13049 0.08500
C 	C 	0.90115 0.96022 0.14229 -0.13800
H 	H 	0.91300 0.93530 0.13380 0.07700
C 	C 	0.86720 0.95905 0.16523 0.05600
H 	H 	0.85460 0.93380 0.17150 0.02000
C 	C 	0.00506 0.03571 0.06463 0.04500
C 	C 	0.03488 0.00614 0.06556 -0.11000
H 	H 	0.03500 0.98650 0.08670 0.06700
O 	O 	0.70151 0.02870 0.28393 -0.48700
O 	O 	0.70030 0.96038 0.28451 -0.48500
C 	C 	0.68707 0.99474 0.29417 0.40600
C 	C 	0.64941 0.99604 0.32013 -0.12100
C 	C 	0.63235 0.03249 0.33022 0.01000
H 	H 	0.64470 0.05700 0.32100 0.03600
C 	C 	0.59713 0.03439 0.35381 -0.03200
C 	C 	0.57891 0.07061 0.36499 -0.02300
H 	H 	0.58950 0.09550 0.35490 0.03300
C 	C 	0.54549 0.07115 0.39069 -0.08300
H 	H 	0.53360 0.09650 0.39800 0.05500
C 	C 	0.52920 0.03561 0.40574 0.03800
C 	C 	0.54684 0.99923 0.39571 -0.13100
H 	H 	0.53600 0.97490 0.40690 0.07700
C 	C 	0.58037 0.99670 0.36951 0.08500
C 	C 	0.59885 0.96022 0.35771 -0.13800
H 	H 	0.58700 0.93530 0.36620 0.07700
C 	C 	0.63280 0.95905 0.33477 0.05600
H 	H 	0.64540 0.93380 0.32850 0.02000
C 	C 	0.49494 0.03571 0.43537 0.04500
C 	C 	0.46512 0.00614 0.43444 -0.11000
H 	H 	0.46500 0.98650 0.41330 0.06700
O 	O 	0.79849 0.47130 0.28393 -0.48700
O 	O 	0.79970 0.53962 0.28451 -0.48500
C 	C 	0.81293 0.50526 0.29417 0.40600
C 	C 	0.85059 0.50396 0.32013 -0.12000
C 	C 	0.86765 0.46751 0.33022 0.01000
H 	H 	0.85530 0.44300 0.32100 0.03600
C 	C 	0.90287 0.46561 0.35381 -0.03200
C 	C 	0.92109 0.42939 0.36499 -0.02300
H 	H 	0.91050 0.40450 0.35490 0.03300
C 	C 	0.95451 0.42885 0.39069 -0.08300
H 	H 	0.96640 0.40350 0.39800 0.05500
C 	C 	0.97080 0.46439 0.40574 0.03800
C 	C 	0.95316 0.50077 0.39571 -0.13100
H 	H 	0.96400 0.52510 0.40690 0.07700
C 	C 	0.91963 0.50330 0.36951 0.08500
C 	C 	0.90115 0.53978 0.35771 -0.13800
H 	H 	0.91300 0.56470 0.36620 0.07700
C 	C 	0.86720 0.54095 0.33477 0.05600
H 	H 	0.85460 0.56620 0.32850 0.02000
C 	C 	0.00506 0.46429 0.43537 0.04500
C 	C 	0.03488 0.49386 0.43444 -0.11000
H 	H 	0.03500 0.51350 0.41330 0.06700
O 	O 	0.70151 0.47130 0.21607 -0.48700
O 	O 	0.70030 0.53962 0.21549 -0.48500
C 	C 	0.68707 0.50526 0.20583 0.40600
C 	C 	0.64941 0.50396 0.17987 -0.12000
C 	C 	0.63235 0.46751 0.16978 0.01000
H 	H 	0.64470 0.44300 0.17900 0.03600
C 	C 	0.59713 0.46561 0.14619 -0.03200
C 	C 	0.57891 0.42939 0.13501 -0.02300
H 	H 	0.58950 0.40450 0.14510 0.03300
C 	C 	0.54549 0.42885 0.10931 -0.08300
H 	H 	0.53360 0.40350 0.10200 0.05500
C 	C 	0.52920 0.46439 0.09426 0.03800
C 	C 	0.54684 0.50077 0.10429 -0.13100
H 	H 	0.53600 0.52510 0.09310 0.07700
C 	C 	0.58037 0.50330 0.13049 0.08500
C 	C 	0.59885 0.53978 0.14229 -0.13800
H 	H 	0.58700 0.56470 0.13380 0.07700
C 	C 	0.63280 0.54095 0.16523 0.05600
H 	H 	0.64540 0.56620 0.17150 0.02000
C 	C 	0.49494 0.46429 0.06463 0.04500
C 	C 	0.46512 0.49386 0.06556 -0.11000
H 	H 	0.46500 0.51350 0.08670 0.06700
O 	O 	0.20151 0.78393 0.52870 -0.48700
O 	O 	0.20030 0.78451 0.46038 -0.48500
C 	C 	0.18707 0.79417 0.49474 0.40600
C 	C 	0.14941 0.82013 0.49604 -0.12000
C 	C 	0.13235 0.83022 0.53249 0.01000
H 	H 	0.14470 0.82100 0.55700 0.03600
C 	C 	0.09713 0.85381 0.53439 -0.03200
C 	C 	0.07891 0.86499 0.57061 -0.02300
H 	H 	0.08950 0.85490 0.59550 0.03300
C 	C 	0.04549 0.89069 0.57115 -0.08300
H 	H 	0.03360 0.89800 0.59650 0.05500
C 	C 	0.02920 0.90574 0.53561 0.03800
C 	C 	0.04684 0.89571 0.49923 -0.13100
H 	H 	0.03600 0.90690 0.47490 0.07700
C 	C 	0.08037 0.86951 0.49670 0.08500
C 	C 	0.09885 0.85771 0.46022 -0.13800
H 	H 	0.08700 0.86620 0.43530 0.07700
C 	C 	0.13280 0.83477 0.45905 0.05600
H 	H 	0.14540 0.82850 0.43380 0.02000
C 	C 	0.99494 0.93537 0.53571 0.04500
C 	C 	0.96512 0.93444 0.50614 -0.11000
H 	H 	0.96500 0.91330 0.48650 0.06700
O 	O 	0.29849 0.71607 0.52870 -0.48700
O 	O 	0.29970 0.71549 0.46038 -0.48500
C 	C 	0.31293 0.70583 0.49474 0.40600
C 	C 	0.35059 0.67987 0.49604 -0.12000
C 	C 	0.36765 0.66978 0.53249 0.01000
H 	H 	0.35530 0.67900 0.55700 0.03600
C 	C 	0.40287 0.64619 0.53439 -0.03200
C 	C 	0.42109 0.63501 0.57061 -0.02300
H 	H 	0.41050 0.64510 0.59550 0.03300
C 	C 	0.45451 0.60931 0.57115 -0.08300
H 	H 	0.46640 0.60200 0.59650 0.05500
C 	C 	0.47080 0.59426 0.53561 0.03800
C 	C 	0.45316 0.60429 0.49923 -0.13100
H 	H 	0.46400 0.59310 0.47490 0.07700
C 	C 	0.41963 0.63049 0.49670 0.08500
C 	C 	0.40115 0.64229 0.46022 -0.13800
H 	H 	0.41300 0.63380 0.43530 0.07700
C 	C 	0.36720 0.66523 0.45905 0.05600
H 	H 	0.35460 0.67150 0.43380 0.02000
C 	C 	0.50506 0.56463 0.53571 0.04500
C 	C 	0.53488 0.56556 0.50614 -0.11000
H 	H 	0.53500 0.58670 0.48650 0.06700
O 	O 	0.20151 0.71607 0.97130 -0.48700
O 	O 	0.20030 0.71549 0.03962 -0.48500
C 	C 	0.18707 0.70583 0.00526 0.40600
C 	C 	0.14941 0.67987 0.00396 -0.12000
C 	C 	0.13235 0.66978 0.96751 0.01000
H 	H 	0.14470 0.67900 0.94300 0.03600
C 	C 	0.09713 0.64619 0.96561 -0.03200
C 	C 	0.07891 0.63501 0.92939 -0.02300
H 	H 	0.08950 0.64510 0.90450 0.03300
C 	C 	0.04549 0.60931 0.92885 -0.08300
H 	H 	0.03360 0.60200 0.90350 0.05500
C 	C 	0.02920 0.59426 0.96439 0.03800
C 	C 	0.04684 0.60429 0.00077 -0.13100
H 	H 	0.03600 0.59310 0.02510 0.07700
C 	C 	0.08037 0.63049 0.00330 0.08500
C 	C 	0.09885 0.64229 0.03978 -0.13800
H 	H 	0.08700 0.63380 0.06470 0.07700
C 	C 	0.13280 0.66523 0.04095 0.05600
H 	H 	0.14540 0.67150 0.06620 0.02000
C 	C 	0.99494 0.56463 0.96429 0.04500
C 	C 	0.96512 0.56556 0.99386 -0.11000
H 	H 	0.96500 0.58670 0.01350 0.06700
O 	O 	0.29849 0.78393 0.97130 -0.48700
O 	O 	0.29970 0.78451 0.03962 -0.48500
C 	C 	0.31293 0.79417 0.00526 0.40600
C 	C 	0.35059 0.82013 0.00396 -0.12100
C 	C 	0.36765 0.83022 0.96751 0.01000
H 	H 	0.35530 0.82100 0.94300 0.03600
C 	C 	0.40287 0.85381 0.96561 -0.03200
C 	C 	0.42109 0.86499 0.92939 -0.02300
H 	H 	0.41050 0.85490 0.90450 0.03300
C 	C 	0.45451 0.89069 0.92885 -0.08300
H 	H 	0.46640 0.89800 0.90350 0.05500
C 	C 	0.47080 0.90574 0.96439 0.03800
C 	C 	0.45316 0.89571 0.00077 -0.13100
H 	H 	0.46400 0.90690 0.02510 0.07700
C 	C 	0.41963 0.86951 0.00330 0.08500
C 	C 	0.40115 0.85771 0.03978 -0.13800
H 	H 	0.41300 0.86620 0.06470 0.07700
C 	C 	0.36720 0.83477 0.04095 0.05600
H 	H 	0.35460 0.82850 0.06620 0.02000
C 	C 	0.50506 0.93537 0.96429 0.04500
C 	C 	0.53488 0.93444 0.99386 -0.11000
H 	H 	0.53500 0.91330 0.01350 0.06700
O 	O 	0.78393 0.97130 0.29849 -0.48700
O 	O 	0.78451 0.03962 0.29970 -0.48500
C 	C 	0.79417 0.00526 0.31293 0.40600
C 	C 	0.82013 0.00396 0.35059 -0.12100
C 	C 	0.83022 0.96751 0.36765 0.01000
H 	H 	0.82100 0.94300 0.35530 0.03600
C 	C 	0.85381 0.96561 0.40287 -0.03200
C 	C 	0.86499 0.92939 0.42109 -0.02300
H 	H 	0.85490 0.90450 0.41050 0.03300
C 	C 	0.89069 0.92885 0.45451 -0.08300
H 	H 	0.89800 0.90350 0.46640 0.05500
C 	C 	0.90574 0.96439 0.47080 0.03800
C 	C 	0.89571 0.00077 0.45316 -0.13100
H 	H 	0.90690 0.02510 0.46400 0.07700
C 	C 	0.86951 0.00330 0.41963 0.08500
C 	C 	0.85771 0.03978 0.40115 -0.13800
H 	H 	0.86620 0.06470 0.41300 0.07700
C 	C 	0.83477 0.04095 0.36720 0.05600
H 	H 	0.82850 0.06620 0.35460 0.02000
C 	C 	0.93537 0.96429 0.50506 0.04500
C 	C 	0.93444 0.99386 0.53488 -0.11000
H 	H 	0.91330 0.01350 0.53500 0.06700
O 	O 	0.71607 0.97130 0.20151 -0.48700
O 	O 	0.71549 0.03962 0.20030 -0.48500
C 	C 	0.70583 0.00526 0.18707 0.40600
C 	C 	0.67987 0.00396 0.14941 -0.12000
C 	C 	0.66978 0.96751 0.13235 0.01000
H 	H 	0.67900 0.94300 0.14470 0.03600
C 	C 	0.64619 0.96561 0.09713 -0.03200
C 	C 	0.63501 0.92939 0.07891 -0.02300
H 	H 	0.64510 0.90450 0.08950 0.03300
C 	C 	0.60931 0.92885 0.04549 -0.08300
H 	H 	0.60200 0.90350 0.03360 0.05500
C 	C 	0.59426 0.96439 0.02920 0.03800
C 	C 	0.60429 0.00077 0.04684 -0.13100
H 	H 	0.59310 0.02510 0.03600 0.07700
C 	C 	0.63049 0.00330 0.08037 0.08500
C 	C 	0.64229 0.03978 0.09885 -0.13800
H 	H 	0.63380 0.06470 0.08700 0.07700
C 	C 	0.66523 0.04095 0.13280 0.05600
H 	H 	0.67150 0.06620 0.14540 0.02000
C 	C 	0.56463 0.96429 0.99494 0.04500
C 	C 	0.56556 0.99386 0.96512 -0.11000
H 	H 	0.58670 0.01350 0.96500 0.06700
O 	O 	0.71607 0.52870 0.29849 -0.48700
O 	O 	0.71549 0.46038 0.29970 -0.48500
C 	C 	0.70583 0.49474 0.31293 0.40600
C 	C 	0.67987 0.49604 0.35059 -0.12000
C 	C 	0.66978 0.53249 0.36765 0.01000
H 	H 	0.67900 0.55700 0.35530 0.03600
C 	C 	0.64619 0.53439 0.40287 -0.03200
C 	C 	0.63501 0.57061 0.42109 -0.02300
H 	H 	0.64510 0.59550 0.41050 0.03300
C 	C 	0.60931 0.57115 0.45451 -0.08300
H 	H 	0.60200 0.59650 0.46640 0.05500
C 	C 	0.59426 0.53561 0.47080 0.03800
C 	C 	0.60429 0.49923 0.45316 -0.13100
H 	H 	0.59310 0.47490 0.46400 0.07700
C 	C 	0.63049 0.49670 0.41963 0.08500
C 	C 	0.64229 0.46022 0.40115 -0.13800
H 	H 	0.63380 0.43530 0.41300 0.07700
C 	C 	0.66523 0.45905 0.36720 0.05600
H 	H 	0.67150 0.43380 0.35460 0.02000
C 	C 	0.56463 0.53571 0.50506 0.04500
C 	C 	0.56556 0.50614 0.53488 -0.11000
H 	H 	0.58670 0.48650 0.53500 0.06700
O 	O 	0.78393 0.52870 0.20151 -0.48700
O 	O 	0.78451 0.46038 0.20030 -0.48500
C 	C 	0.79417 0.49474 0.18707 0.40600
C 	C 	0.82013 0.49604 0.14941 -0.12000
C 	C 	0.83022 0.53249 0.13235 0.01000
H 	H 	0.82100 0.55700 0.14470 0.03600
C 	C 	0.85381 0.53439 0.09713 -0.03200
C 	C 	0.86499 0.57061 0.07891 -0.02300
H 	H 	0.85490 0.59550 0.08950 0.03300
C 	C 	0.89069 0.57115 0.04549 -0.08300
H 	H 	0.89800 0.59650 0.03360 0.05500
C 	C 	0.90574 0.53561 0.02920 0.03800
C 	C 	0.89571 0.49923 0.04684 -0.13100
H 	H 	0.90690 0.47490 0.03600 0.07700
C 	C 	0.86951 0.49670 0.08037 0.08500
C 	C 	0.85771 0.46022 0.09885 -0.13800
H 	H 	0.86620 0.43530 0.08700 0.07700
C 	C 	0.83477 0.45905 0.13280 0.05600
H 	H 	0.82850 0.43380 0.14540 0.02000
C 	C 	0.93537 0.53571 0.99494 0.04500
C 	C 	0.93444 0.50614 0.96512 -0.11000
H 	H 	0.91330 0.48650 0.96500 0.06700
O 	O 	0.97130 0.20151 0.71607 -0.48700
O 	O 	0.03962 0.20030 0.71549 -0.48500
C 	C 	0.00526 0.18707 0.70583 0.40600
C 	C 	0.00396 0.14941 0.67987 -0.12000
C 	C 	0.96751 0.13235 0.66978 0.01000
H 	H 	0.94300 0.14470 0.67900 0.03600
C 	C 	0.96561 0.09713 0.64619 -0.03200
C 	C 	0.92939 0.07891 0.63501 -0.02300
H 	H 	0.90450 0.08950 0.64510 0.03300
C 	C 	0.92885 0.04549 0.60931 -0.08300
H 	H 	0.90350 0.03360 0.60200 0.05500
C 	C 	0.96439 0.02920 0.59426 0.03800
C 	C 	0.00077 0.04684 0.60429 -0.13100
H 	H 	0.02510 0.03600 0.59310 0.07700
C 	C 	0.00330 0.08037 0.63049 0.08500
C 	C 	0.03978 0.09885 0.64229 -0.13800
H 	H 	0.06470 0.08700 0.63380 0.07700
C 	C 	0.04095 0.13280 0.66523 0.05600
H 	H 	0.06620 0.14540 0.67150 0.02000
C 	C 	0.96429 0.99494 0.56463 0.04500
C 	C 	0.99386 0.96512 0.56556 -0.11000
H 	H 	0.01350 0.96500 0.58670 0.06700
O 	O 	0.97130 0.29849 0.78393 -0.48700
O 	O 	0.03962 0.29970 0.78451 -0.48500
C 	C 	0.00526 0.31293 0.79417 0.40600
C 	C 	0.00396 0.35059 0.82013 -0.12100
C 	C 	0.96751 0.36765 0.83022 0.01000
H 	H 	0.94300 0.35530 0.82100 0.03600
C 	C 	0.96561 0.40287 0.85381 -0.03200
C 	C 	0.92939 0.42109 0.86499 -0.02300
H 	H 	0.90450 0.41050 0.85490 0.03300
C 	C 	0.92885 0.45451 0.89069 -0.08300
H 	H 	0.90350 0.46640 0.89800 0.05500
C 	C 	0.96439 0.47080 0.90574 0.03800
C 	C 	0.00077 0.45316 0.89571 -0.13100
H 	H 	0.02510 0.46400 0.90690 0.07700
C 	C 	0.00330 0.41963 0.86951 0.08500
C 	C 	0.03978 0.40115 0.85771 -0.13800
H 	H 	0.06470 0.41300 0.86620 0.07700
C 	C 	0.04095 0.36720 0.83477 0.05600
H 	H 	0.06620 0.35460 0.82850 0.02000
C 	C 	0.96429 0.50506 0.93537 0.04500
C 	C 	0.99386 0.53488 0.93444 -0.11000
H 	H 	0.01350 0.53500 0.91330 0.06700
O 	O 	0.52870 0.20151 0.78393 -0.48700
O 	O 	0.46038 0.20030 0.78451 -0.48500
C 	C 	0.49474 0.18707 0.79417 0.40600
C 	C 	0.49604 0.14941 0.82013 -0.12000
C 	C 	0.53249 0.13235 0.83022 0.01000
H 	H 	0.55700 0.14470 0.82100 0.03600
C 	C 	0.53439 0.09713 0.85381 -0.03200
C 	C 	0.57061 0.07891 0.86499 -0.02300
H 	H 	0.59550 0.08950 0.85490 0.03300
C 	C 	0.57115 0.04549 0.89069 -0.08300
H 	H 	0.59650 0.03360 0.89800 0.05500
C 	C 	0.53561 0.02920 0.90574 0.03800
C 	C 	0.49923 0.04684 0.89571 -0.13100
H 	H 	0.47490 0.03600 0.90690 0.07700
C 	C 	0.49670 0.08037 0.86951 0.08500
C 	C 	0.46022 0.09885 0.85771 -0.13800
H 	H 	0.43530 0.08700 0.86620 0.07700
C 	C 	0.45905 0.13280 0.83477 0.05600
H 	H 	0.43380 0.14540 0.82850 0.02000
C 	C 	0.53571 0.99494 0.93537 0.04500
C 	C 	0.50614 0.96512 0.93444 -0.11000
H 	H 	0.48650 0.96500 0.91330 0.06700
O 	O 	0.52870 0.29849 0.71607 -0.48700
O 	O 	0.46038 0.29970 0.71549 -0.48500
C 	C 	0.49474 0.31293 0.70583 0.40600
C 	C 	0.49604 0.35059 0.67987 -0.12000
C 	C 	0.53249 0.36765 0.66978 0.01000
H 	H 	0.55700 0.35530 0.67900 0.03600
C 	C 	0.53439 0.40287 0.64619 -0.03200
C 	C 	0.57061 0.42109 0.63501 -0.02300
H 	H 	0.59550 0.41050 0.64510 0.03300
C 	C 	0.57115 0.45451 0.60931 -0.08300
H 	H 	0.59650 0.46640 0.60200 0.05500
C 	C 	0.53561 0.47080 0.59426 0.03800
C 	C 	0.49923 0.45316 0.60429 -0.13100
H 	H 	0.47490 0.46400 0.59310 0.07700
C 	C 	0.49670 0.41963 0.63049 0.08500
C 	C 	0.46022 0.40115 0.64229 -0.13800
H 	H 	0.43530 0.41300 0.63380 0.07700
C 	C 	0.45905 0.36720 0.66523 0.05600
H 	H 	0.43380 0.35460 0.67150 0.02000
C 	C 	0.53571 0.50506 0.56463 0.04500
C 	C 	0.50614 0.53488 0.56556 -0.11000
H 	H 	0.48650 0.53500 0.58670 0.06700
Zn	Zn	0.25000 0.75000 0.04588 1.20300
Zn	Zn	0.25000 0.75000 0.45412 1.20300
Zn	Zn	0.04588 0.25000 0.75000 1.20300
Zn	Zn	0.45412 0.25000 0.75000 1.20300
Zn	Zn	0.75000 0.04588 0.25000 1.20300
Zn	Zn	0.75000 0.45412 0.25000 1.20300
Zn	Zn	0.25000 0.75000 0.54588 1.20300
Zn	Zn	0.25000 0.75000 0.95412 1.20300
Zn	Zn	0.75000 0.95412 0.25000 1.20300
Zn	Zn	0.75000 0.54588 0.25000 1.20300
Zn	Zn	0.95412 0.25000 0.75000 1.20300
Zn	Zn	0.54588 0.25000 0.75000 1.20300
O 	O 	0.79849 0.21607 0.47130 -0.48700
O 	O 	0.79970 0.21549 0.53962 -0.48500
C 	C 	0.81293 0.20583 0.50526 0.40600
C 	C 	0.85059 0.17987 0.50396 -0.12000
C 	C 	0.86765 0.16978 0.46751 0.01000
H 	H 	0.85530 0.17900 0.44300 0.03600
C 	C 	0.90287 0.14619 0.46561 -0.03200
C 	C 	0.92109 0.13501 0.42939 -0.02300
H 	H 	0.91050 0.14510 0.40450 0.03300
C 	C 	0.95451 0.10931 0.42885 -0.08300
H 	H 	0.96640 0.10200 0.40350 0.05500
C 	C 	0.97080 0.09426 0.46439 0.03800
C 	C 	0.95316 0.10429 0.50077 -0.13100
H 	H 	0.96400 0.09310 0.52510 0.07700
C 	C 	0.91963 0.13049 0.50330 0.08500
C 	C 	0.90115 0.14229 0.53978 -0.13800
H 	H 	0.91300 0.13380 0.56470 0.07700
C 	C 	0.86720 0.16523 0.54095 0.05600
H 	H 	0.85460 0.17150 0.56620 0.02000
C 	C 	0.00506 0.06463 0.46429 0.04500
C 	C 	0.03488 0.06556 0.49386 -0.11000
H 	H 	0.03500 0.08670 0.51350 0.06700
O 	O 	0.70151 0.28393 0.47130 -0.48700
O 	O 	0.70030 0.28451 0.53962 -0.48500
C 	C 	0.68707 0.29417 0.50526 0.40600
C 	C 	0.64941 0.32013 0.50396 -0.12000
C 	C 	0.63235 0.33022 0.46751 0.01000
H 	H 	0.64470 0.32100 0.44300 0.03600
C 	C 	0.59713 0.35381 0.46561 -0.03200
C 	C 	0.57891 0.36499 0.42939 -0.02300
H 	H 	0.58950 0.35490 0.40450 0.03300
C 	C 	0.54549 0.39069 0.42885 -0.08300
H 	H 	0.53360 0.39800 0.40350 0.05500
C 	C 	0.52920 0.40574 0.46439 0.03800
C 	C 	0.54684 0.39571 0.50077 -0.13100
H 	H 	0.53600 0.40690 0.52510 0.07700
C 	C 	0.58037 0.36951 0.50330 0.08500
C 	C 	0.59885 0.35771 0.53978 -0.13800
H 	H 	0.58700 0.36620 0.56470 0.07700
C 	C 	0.63280 0.33477 0.54095 0.05600
H 	H 	0.64540 0.32850 0.56620 0.02000
C 	C 	0.49494 0.43537 0.46429 0.04500
C 	C 	0.46512 0.43444 0.49386 -0.11000
H 	H 	0.46500 0.41330 0.51350 0.06700
O 	O 	0.79849 0.28393 0.02870 -0.48700
O 	O 	0.79970 0.28451 0.96038 -0.48500
C 	C 	0.81293 0.29417 0.99474 0.40600
C 	C 	0.85059 0.32013 0.99604 -0.12000
C 	C 	0.86765 0.33022 0.03249 0.01000
H 	H 	0.85530 0.32100 0.05700 0.03600
C 	C 	0.90287 0.35381 0.03439 -0.03200
C 	C 	0.92109 0.36499 0.07061 -0.02300
H 	H 	0.91050 0.35490 0.09550 0.03300
C 	C 	0.95451 0.39069 0.07115 -0.08300
H 	H 	0.96640 0.39800 0.09650 0.05500
C 	C 	0.97080 0.40574 0.03561 0.03800
C 	C 	0.95316 0.39571 0.99923 -0.13100
H 	H 	0.96400 0.40690 0.97490 0.07700
C 	C 	0.91963 0.36951 0.99670 0.08500
C 	C 	0.90115 0.35771 0.96022 -0.13800
H 	H 	0.91300 0.36620 0.93530 0.07700
C 	C 	0.86720 0.33477 0.95905 0.05600
H 	H 	0.85460 0.32850 0.93380 0.02000
C 	C 	0.00506 0.43537 0.03571 0.04500
C 	C 	0.03488 0.43444 0.00614 -0.11000
H 	H 	0.03500 0.41330 0.98650 0.06700
O 	O 	0.70151 0.21607 0.02870 -0.48700
O 	O 	0.70030 0.21549 0.96038 -0.48500
C 	C 	0.68707 0.20583 0.99474 0.40600
C 	C 	0.64941 0.17987 0.99604 -0.12100
C 	C 	0.63235 0.16978 0.03249 0.01000
H 	H 	0.64470 0.17900 0.05700 0.03600
C 	C 	0.59713 0.14619 0.03439 -0.03200
C 	C 	0.57891 0.13501 0.07061 -0.02300
H 	H 	0.58950 0.14510 0.09550 0.03300
C 	C 	0.54549 0.10931 0.07115 -0.08300
H 	H 	0.53360 0.10200 0.09650 0.05500
C 	C 	0.52920 0.09426 0.03561 0.03800
C 	C 	0.54684 0.10429 0.99923 -0.13100
H 	H 	0.53600 0.09310 0.97490 0.07700
C 	C 	0.58037 0.13049 0.99670 0.08500
C 	C 	0.59885 0.14229 0.96022 -0.13800
H 	H 	0.58700 0.13380 0.93530 0.07700
C 	C 	0.63280 0.16523 0.95905 0.05600
H 	H 	0.64540 0.17150 0.93380 0.02000
C 	C 	0.49494 0.06463 0.03571 0.04500
C 	C 	0.46512 0.06556 0.00614 -0.11000
H 	H 	0.46500 0.08670 0.98650 0.06700
O 	O 	0.21607 0.02870 0.70151 -0.48700
O 	O 	0.21549 0.96038 0.70030 -0.48500
C 	C 	0.20583 0.99474 0.68707 0.40600
C 	C 	0.17987 0.99604 0.64941 -0.12100
C 	C 	0.16978 0.03249 0.63235 0.01000
H 	H 	0.17900 0.05700 0.64470 0.03600
C 	C 	0.14619 0.03439 0.59713 -0.03200
C 	C 	0.13501 0.07061 0.57891 -0.02300
H 	H 	0.14510 0.09550 0.58950 0.03300
C 	C 	0.10931 0.07115 0.54549 -0.08300
H 	H 	0.10200 0.09650 0.53360 0.05500
C 	C 	0.09426 0.03561 0.52920 0.03800
C 	C 	0.10429 0.99923 0.54684 -0.13100
H 	H 	0.09310 0.97490 0.53600 0.07700
C 	C 	0.13049 0.99670 0.58037 0.08500
C 	C 	0.14229 0.96022 0.59885 -0.13800
H 	H 	0.13380 0.93530 0.58700 0.07700
C 	C 	0.16523 0.95905 0.63280 0.05600
H 	H 	0.17150 0.93380 0.64540 0.02000
C 	C 	0.06463 0.03571 0.49494 0.04500
C 	C 	0.06556 0.00614 0.46512 -0.11000
H 	H 	0.08670 0.98650 0.46500 0.06700
O 	O 	0.28393 0.02870 0.79849 -0.48700
O 	O 	0.28451 0.96038 0.79970 -0.48500
C 	C 	0.29417 0.99474 0.81293 0.40600
C 	C 	0.32013 0.99604 0.85059 -0.12000
C 	C 	0.33022 0.03249 0.86765 0.01000
H 	H 	0.32100 0.05700 0.85530 0.03600
C 	C 	0.35381 0.03439 0.90287 -0.03200
C 	C 	0.36499 0.07061 0.92109 -0.02300
H 	H 	0.35490 0.09550 0.91050 0.03300
C 	C 	0.39069 0.07115 0.95451 -0.08300
H 	H 	0.39800 0.09650 0.96640 0.05500
C 	C 	0.40574 0.03561 0.97080 0.03800
C 	C 	0.39571 0.99923 0.95316 -0.13100
H 	H 	0.40690 0.97490 0.96400 0.07700
C 	C 	0.36951 0.99670 0.91963 0.08500
C 	C 	0.35771 0.96022 0.90115 -0.13800
H 	H 	0.36620 0.93530 0.91300 0.07700
C 	C 	0.33477 0.95905 0.86720 0.05600
H 	H 	0.32850 0.93380 0.85460 0.02000
C 	C 	0.43537 0.03571 0.00506 0.04500
C 	C 	0.43444 0.00614 0.03488 -0.11000
H 	H 	0.41330 0.98650 0.03500 0.06700
O 	O 	0.28393 0.47130 0.70151 -0.48700
O 	O 	0.28451 0.53962 0.70030 -0.48500
C 	C 	0.29417 0.50526 0.68707 0.40600
C 	C 	0.32013 0.50396 0.64941 -0.12000
C 	C 	0.33022 0.46751 0.63235 0.01000
H 	H 	0.32100 0.44300 0.64470 0.03600
C 	C 	0.35381 0.46561 0.59713 -0.03200
C 	C 	0.36499 0.42939 0.57891 -0.02300
H 	H 	0.35490 0.40450 0.58950 0.03300
C 	C 	0.39069 0.42885 0.54549 -0.08300
H 	H 	0.39800 0.40350 0.53360 0.05500
C 	C 	0.40574 0.46439 0.52920 0.03800
C 	C 	0.39571 0.50077 0.54684 -0.13100
H 	H 	0.40690 0.52510 0.53600 0.07700
C 	C 	0.36951 0.50330 0.58037 0.08500
C 	C 	0.35771 0.53978 0.59885 -0.13800
H 	H 	0.36620 0.56470 0.58700 0.07700
C 	C 	0.33477 0.54095 0.63280 0.05600
H 	H 	0.32850 0.56620 0.64540 0.02000
C 	C 	0.43537 0.46429 0.49494 0.04500
C 	C 	0.43444 0.49386 0.46512 -0.11000
H 	H 	0.41330 0.51350 0.46500 0.06700
O 	O 	0.21607 0.47130 0.79849 -0.48700
O 	O 	0.21549 0.53962 0.79970 -0.48500
C 	C 	0.20583 0.50526 0.81293 0.40600
C 	C 	0.17987 0.50396 0.85059 -0.12000
C 	C 	0.16978 0.46751 0.86765 0.01000
H 	H 	0.17900 0.44300 0.85530 0.03600
C 	C 	0.14619 0.46561 0.90287 -0.03200
C 	C 	0.13501 0.42939 0.92109 -0.02300
H 	H 	0.14510 0.40450 0.91050 0.03300
C 	C 	0.10931 0.42885 0.95451 -0.08300
H 	H 	0.10200 0.40350 0.96640 0.05500
C 	C 	0.09426 0.46439 0.97080 0.03800
C 	C 	0.10429 0.50077 0.95316 -0.13100
H 	H 	0.09310 0.52510 0.96400 0.07700
C 	C 	0.13049 0.50330 0.91963 0.08500
C 	C 	0.14229 0.53978 0.90115 -0.13800
H 	H 	0.13380 0.56470 0.91300 0.07700
C 	C 	0.16523 0.54095 0.86720 0.05600
H 	H 	0.17150 0.56620 0.85460 0.02000
C 	C 	0.06463 0.46429 0.00506 0.04500
C 	C 	0.06556 0.49386 0.03488 -0.11000
H 	H 	0.08670 0.51350 0.03500 0.06700
O 	O 	0.02870 0.79849 0.28393 -0.48700
O 	O 	0.96038 0.79970 0.28451 -0.48500
C 	C 	0.99474 0.81293 0.29417 0.40600
C 	C 	0.99604 0.85059 0.32013 -0.12000
C 	C 	0.03249 0.86765 0.33022 0.01000
H 	H 	0.05700 0.85530 0.32100 0.03600
C 	C 	0.03439 0.90287 0.35381 -0.03200
C 	C 	0.07061 0.92109 0.36499 -0.02300
H 	H 	0.09550 0.91050 0.35490 0.03300
C 	C 	0.07115 0.95451 0.39069 -0.08300
H 	H 	0.09650 0.96640 0.39800 0.05500
C 	C 	0.03561 0.97080 0.40574 0.03800
C 	C 	0.99923 0.95316 0.39571 -0.13100
H 	H 	0.97490 0.96400 0.40690 0.07700
C 	C 	0.99670 0.91963 0.36951 0.08500
C 	C 	0.96022 0.90115 0.35771 -0.13800
H 	H 	0.93530 0.91300 0.36620 0.07700
C 	C 	0.95905 0.86720 0.33477 0.05600
H 	H 	0.93380 0.85460 0.32850 0.02000
C 	C 	0.03571 0.00506 0.43537 0.04500
C 	C 	0.00614 0.03488 0.43444 -0.11000
H 	H 	0.98650 0.03500 0.41330 0.06700
O 	O 	0.02870 0.70151 0.21607 -0.48700
O 	O 	0.96038 0.70030 0.21549 -0.48500
C 	C 	0.99474 0.68707 0.20583 0.40600
C 	C 	0.99604 0.64941 0.17987 -0.12100
C 	C 	0.03249 0.63235 0.16978 0.01000
H 	H 	0.05700 0.64470 0.17900 0.03600
C 	C 	0.03439 0.59713 0.14619 -0.03200
C 	C 	0.07061 0.57891 0.13501 -0.02300
H 	H 	0.09550 0.58950 0.14510 0.03300
C 	C 	0.07115 0.54549 0.10931 -0.08300
H 	H 	0.09650 0.53360 0.10200 0.05500
C 	C 	0.03561 0.52920 0.09426 0.03800
C 	C 	0.99923 0.54684 0.10429 -0.13100
H 	H 	0.97490 0.53600 0.09310 0.07700
C 	C 	0.99670 0.58037 0.13049 0.08500
C 	C 	0.96022 0.59885 0.14229 -0.13800
H 	H 	0.93530 0.58700 0.13380 0.07700
C 	C 	0.95905 0.63280 0.16523 0.05600
H 	H 	0.93380 0.64540 0.17150 0.02000
C 	C 	0.03571 0.49494 0.06463 0.04500
C 	C 	0.00614 0.46512 0.06556 -0.11000
H 	H 	0.98650 0.46500 0.08670 0.06700
O 	O 	0.47130 0.79849 0.21607 -0.48700
O 	O 	0.53962 0.79970 0.21549 -0.48500
C 	C 	0.50526 0.81293 0.20583 0.40600
C 	C 	0.50396 0.85059 0.17987 -0.12000
C 	C 	0.46751 0.86765 0.16978 0.01000
H 	H 	0.44300 0.85530 0.17900 0.03600
C 	C 	0.46561 0.90287 0.14619 -0.03200
C 	C 	0.42939 0.92109 0.13501 -0.02300
H 	H 	0.40450 0.91050 0.14510 0.03300
C 	C 	0.42885 0.95451 0.10931 -0.08300
H 	H 	0.40350 0.96640 0.10200 0.05500
C 	C 	0.46439 0.97080 0.09426 0.03800
C 	C 	0.50077 0.95316 0.10429 -0.13100
H 	H 	0.52510 0.96400 0.09310 0.07700
C 	C 	0.50330 0.91963 0.13049 0.08500
C 	C 	0.53978 0.90115 0.14229 -0.13800
H 	H 	0.56470 0.91300 0.13380 0.07700
C 	C 	0.54095 0.86720 0.16523 0.05600
H 	H 	0.56620 0.85460 0.17150 0.02000
C 	C 	0.46429 0.00506 0.06463 0.04500
C 	C 	0.49386 0.03488 0.06556 -0.11000
H 	H 	0.51350 0.03500 0.08670 0.06700
O 	O 	0.47130 0.70151 0.28393 -0.48700
O 	O 	0.53962 0.70030 0.28451 -0.48500
C 	C 	0.50526 0.68707 0.29417 0.40600
C 	C 	0.50396 0.64941 0.32013 -0.12000
C 	C 	0.46751 0.63235 0.33022 0.01000
H 	H 	0.44300 0.64470 0.32100 0.03600
C 	C 	0.46561 0.59713 0.35381 -0.03200
C 	C 	0.42939 0.57891 0.36499 -0.02300
H 	H 	0.40450 0.58950 0.35490 0.03300
C 	C 	0.42885 0.54549 0.39069 -0.08300
H 	H 	0.40350 0.53360 0.39800 0.05500
C 	C 	0.46439 0.52920 0.40574 0.03800
C 	C 	0.50077 0.54684 0.39571 -0.13100
H 	H 	0.52510 0.53600 0.40690 0.07700
C 	C 	0.50330 0.58037 0.36951 0.08500
C 	C 	0.53978 0.59885 0.35771 -0.13800
H 	H 	0.56470 0.58700 0.36620 0.07700
C 	C 	0.54095 0.63280 0.33477 0.05600
H 	H 	0.56620 0.64540 0.32850 0.02000
C 	C 	0.46429 0.49494 0.43537 0.04500
C 	C 	0.49386 0.46512 0.43444 -0.11000
H 	H 	0.51350 0.46500 0.41330 0.06700
O 	O 	0.78393 0.20151 0.97130 -0.48700
O 	O 	0.78451 0.20030 0.03962 -0.48500
C 	C 	0.79417 0.18707 0.00526 0.40600
C 	C 	0.82013 0.14941 0.00396 -0.12000
C 	C 	0.83022 0.13235 0.96751 0.01000
H 	H 	0.82100 0.14470 0.94300 0.03600
C 	C 	0.85381 0.09713 0.96561 -0.03200
C 	C 	0.86499 0.07891 0.92939 -0.02300
H 	H 	0.85490 0.08950 0.90450 0.03300
C 	C 	0.89069 0.04549 0.92885 -0.08300
H 	H 	0.89800 0.03360 0.90350 0.05500
C 	C 	0.90574 0.02920 0.96439 0.03800
C 	C 	0.89571 0.04684 0.00077 -0.13100
H 	H 	0.90690 0.03600 0.02510 0.07700
C 	C 	0.86951 0.08037 0.00330 0.08500
C 	C 	0.85771 0.09885 0.03978 -0.13800
H 	H 	0.86620 0.08700 0.06470 0.07700
C 	C 	0.83477 0.13280 0.04095 0.05600
H 	H 	0.82850 0.14540 0.06620 0.02000
C 	C 	0.93537 0.99494 0.96429 0.04500
C 	C 	0.93444 0.96512 0.99386 -0.11000
H 	H 	0.91330 0.96500 0.01350 0.06700
O 	O 	0.71607 0.29849 0.97130 -0.48700
O 	O 	0.71549 0.29970 0.03962 -0.48500
C 	C 	0.70583 0.31293 0.00526 0.40600
C 	C 	0.67987 0.35059 0.00396 -0.12100
C 	C 	0.66978 0.36765 0.96751 0.01000
H 	H 	0.67900 0.35530 0.94300 0.03600
C 	C 	0.64619 0.40287 0.96561 -0.03200
C 	C 	0.63501 0.42109 0.92939 -0.02300
H 	H 	0.64510 0.41050 0.90450 0.03300
C 	C 	0.60931 0.45451 0.92885 -0.08300
H 	H 	0.60200 0.46640 0.90350 0.05500
C 	C 	0.59426 0.47080 0.96439 0.03800
C 	C 	0.60429 0.45316 0.00077 -0.13100
H 	H 	0.59310 0.46400 0.02510 0.07700
C 	C 	0.63049 0.41963 0.00330 0.08500
C 	C 	0.64229 0.40115 0.03978 -0.13800
H 	H 	0.63380 0.41300 0.06470 0.07700
C 	C 	0.66523 0.36720 0.04095 0.05600
H 	H 	0.67150 0.35460 0.06620 0.02000
C 	C 	0.56463 0.50506 0.96429 0.04500
C 	C 	0.56556 0.53488 0.99386 -0.11000
H 	H 	0.58670 0.53500 0.01350 0.06700
O 	O 	0.71607 0.20151 0.52870 -0.48700
O 	O 	0.71549 0.20030 0.46038 -0.48500
C 	C 	0.70583 0.18707 0.49474 0.40600
C 	C 	0.67987 0.14941 0.49604 -0.12000
C 	C 	0.66978 0.13235 0.53249 0.01000
H 	H 	0.67900 0.14470 0.55700 0.03600
C 	C 	0.64619 0.09713 0.53439 -0.03200
C 	C 	0.63501 0.07891 0.57061 -0.02300
H 	H 	0.64510 0.08950 0.59550 0.03300
C 	C 	0.60931 0.04549 0.57115 -0.08300
H 	H 	0.60200 0.03360 0.59650 0.05500
C 	C 	0.59426 0.02920 0.53561 0.03800
C 	C 	0.60429 0.04684 0.49923 -0.13100
H 	H 	0.59310 0.03600 0.47490 0.07700
C 	C 	0.63049 0.08037 0.49670 0.08500
C 	C 	0.64229 0.09885 0.46022 -0.13800
H 	H 	0.63380 0.08700 0.43530 0.07700
C 	C 	0.66523 0.13280 0.45905 0.05600
H 	H 	0.67150 0.14540 0.43380 0.02000
C 	C 	0.56463 0.99494 0.53571 0.04500
C 	C 	0.56556 0.96512 0.50614 -0.11000
H 	H 	0.58670 0.96500 0.48650 0.06700
O 	O 	0.78393 0.29849 0.52870 -0.48700
O 	O 	0.78451 0.29970 0.46038 -0.48500
C 	C 	0.79417 0.31293 0.49474 0.40600
C 	C 	0.82013 0.35059 0.49604 -0.12000
C 	C 	0.83022 0.36765 0.53249 0.01000
H 	H 	0.82100 0.35530 0.55700 0.03600
C 	C 	0.85381 0.40287 0.53439 -0.03200
C 	C 	0.86499 0.42109 0.57061 -0.02300
H 	H 	0.85490 0.41050 0.59550 0.03300
C 	C 	0.89069 0.45451 0.57115 -0.08300
H 	H 	0.89800 0.46640 0.59650 0.05500
C 	C 	0.90574 0.47080 0.53561 0.03800
C 	C 	0.89571 0.45316 0.49923 -0.13100
H 	H 	0.90690 0.46400 0.47490 0.07700
C 	C 	0.86951 0.41963 0.49670 0.08500
C 	C 	0.85771 0.40115 0.46022 -0.13800
H 	H 	0.86620 0.41300 0.43530 0.07700
C 	C 	0.83477 0.36720 0.45905 0.05600
H 	H 	0.82850 0.35460 0.43380 0.02000
C 	C 	0.93537 0.50506 0.53571 0.04500
C 	C 	0.93444 0.53488 0.50614 -0.11000
H 	H 	0.91330 0.53500 0.48650 0.06700
O 	O 	0.97130 0.78393 0.20151 -0.48700
O 	O 	0.03962 0.78451 0.20030 -0.48500
C 	C 	0.00526 0.79417 0.18707 0.40600
C 	C 	0.00396 0.82013 0.14941 -0.12000
C 	C 	0.96751 0.83022 0.13235 0.01000
H 	H 	0.94300 0.82100 0.14470 0.03600
C 	C 	0.96561 0.85381 0.09713 -0.03200
C 	C 	0.92939 0.86499 0.07891 -0.02300
H 	H 	0.90450 0.85490 0.08950 0.03300
C 	C 	0.92885 0.89069 0.04549 -0.08300
H 	H 	0.90350 0.89800 0.03360 0.05500
C 	C 	0.96439 0.90574 0.02920 0.03800
C 	C 	0.00077 0.89571 0.04684 -0.13100
H 	H 	0.02510 0.90690 0.03600 0.07700
C 	C 	0.00330 0.86951 0.08037 0.08500
C 	C 	0.03978 0.85771 0.09885 -0.13800
H 	H 	0.06470 0.86620 0.08700 0.07700
C 	C 	0.04095 0.83477 0.13280 0.05600
H 	H 	0.06620 0.82850 0.14540 0.02000
C 	C 	0.96429 0.93537 0.99494 0.04500
C 	C 	0.99386 0.93444 0.96512 -0.11000
H 	H 	0.01350 0.91330 0.96500 0.06700
O 	O 	0.97130 0.71607 0.29849 -0.48700
O 	O 	0.03962 0.71549 0.29970 -0.48500
C 	C 	0.00526 0.70583 0.31293 0.40600
C 	C 	0.00396 0.67987 0.35059 -0.12100
C 	C 	0.96751 0.66978 0.36765 0.01000
H 	H 	0.94300 0.67900 0.35530 0.03600
C 	C 	0.96561 0.64619 0.40287 -0.03200
C 	C 	0.92939 0.63501 0.42109 -0.02300
H 	H 	0.90450 0.64510 0.41050 0.03300
C 	C 	0.92885 0.60931 0.45451 -0.08300
H 	H 	0.90350 0.60200 0.46640 0.05500
C 	C 	0.96439 0.59426 0.47080 0.03800
C 	C 	0.00077 0.60429 0.45316 -0.13100
H 	H 	0.02510 0.59310 0.46400 0.07700
C 	C 	0.00330 0.63049 0.41963 0.08500
C 	C 	0.03978 0.64229 0.40115 -0.13800
H 	H 	0.06470 0.63380 0.41300 0.07700
C 	C 	0.04095 0.66523 0.36720 0.05600
H 	H 	0.06620 0.67150 0.35460 0.02000
C 	C 	0.96429 0.56463 0.50506 0.04500
C 	C 	0.99386 0.56556 0.53488 -0.11000
H 	H 	0.01350 0.58670 0.53500 0.06700
O 	O 	0.52870 0.71607 0.20151 -0.48700
O 	O 	0.46038 0.71549 0.20030 -0.48500
C 	C 	0.49474 0.70583 0.18707 0.40600
C 	C 	0.49604 0.67987 0.14941 -0.12000
C 	C 	0.53249 0.66978 0.13235 0.01000
H 	H 	0.55700 0.67900 0.14470 0.03600
C 	C 	0.53439 0.64619 0.09713 -0.03200
C 	C 	0.57061 0.63501 0.07891 -0.02300
H 	H 	0.59550 0.64510 0.08950 0.03300
C 	C 	0.57115 0.60931 0.04549 -0.08300
H 	H 	0.59650 0.60200 0.03360 0.05500
C 	C 	0.53561 0.59426 0.02920 0.03800
C 	C 	0.49923 0.60429 0.04684 -0.13100
H 	H 	0.47490 0.59310 0.03600 0.07700
C 	C 	0.49670 0.63049 0.08037 0.08500
C 	C 	0.46022 0.64229 0.09885 -0.13800
H 	H 	0.43530 0.63380 0.08700 0.07700
C 	C 	0.45905 0.66523 0.13280 0.05600
H 	H 	0.43380 0.67150 0.14540 0.02000
C 	C 	0.53571 0.56463 0.99494 0.04500
C 	C 	0.50614 0.56556 0.96512 -0.11000
H 	H 	0.48650 0.58670 0.96500 0.06700
O 	O 	0.52870 0.78393 0.29849 -0.48700
O 	O 	0.46038 0.78451 0.29970 -0.48500
C 	C 	0.49474 0.79417 0.31293 0.40600
C 	C 	0.49604 0.82013 0.35059 -0.12000
C 	C 	0.53249 0.83022 0.36765 0.01000
H 	H 	0.55700 0.82100 0.35530 0.03600
C 	C 	0.53439 0.85381 0.40287 -0.03200
C 	C 	0.57061 0.86499 0.42109 -0.02300
H 	H 	0.59550 0.85490 0.41050 0.03300
C 	C 	0.57115 0.89069 0.45451 -0.08300
H 	H 	0.59650 0.89800 0.46640 0.05500
C 	C 	0.53561 0.90574 0.47080 0.03800
C 	C 	0.49923 0.89571 0.45316 -0.13100
H 	H 	0.47490 0.90690 0.46400 0.07700
C 	C 	0.49670 0.86951 0.41963 0.08500
C 	C 	0.46022 0.85771 0.40115 -0.13800
H 	H 	0.43530 0.86620 0.41300 0.07700
C 	C 	0.45905 0.83477 0.36720 0.05600
H 	H 	0.43380 0.82850 0.35460 0.02000
C 	C 	0.53571 0.93537 0.50506 0.04500
C 	C 	0.50614 0.93444 0.53488 -0.11000
H 	H 	0.48650 0.91330 0.53500 0.06700
O 	O 	0.20151 0.97130 0.78393 -0.48700
O 	O 	0.20030 0.03962 0.78451 -0.48500
C 	C 	0.18707 0.00526 0.79417 0.40600
C 	C 	0.14941 0.00396 0.82013 -0.12000
C 	C 	0.13235 0.96751 0.83022 0.01000
H 	H 	0.14470 0.94300 0.82100 0.03600
C 	C 	0.09713 0.96561 0.85381 -0.03200
C 	C 	0.07891 0.92939 0.86499 -0.02300
H 	H 	0.08950 0.90450 0.85490 0.03300
C 	C 	0.04549 0.92885 0.89069 -0.08300
H 	H 	0.03360 0.90350 0.89800 0.05500
C 	C 	0.02920 0.96439 0.90574 0.03800
C 	C 	0.04684 0.00077 0.89571 -0.13100
H 	H 	0.03600 0.02510 0.90690 0.07700
C 	C 	0.08037 0.00330 0.86951 0.08500
C 	C 	0.09885 0.03978 0.85771 -0.13800
H 	H 	0.08700 0.06470 0.86620 0.07700
C 	C 	0.13280 0.04095 0.83477 0.05600
H 	H 	0.14540 0.06620 0.82850 0.02000
C 	C 	0.99494 0.96429 0.93537 0.04500
C 	C 	0.96512 0.99386 0.93444 -0.11000
H 	H 	0.96500 0.01350 0.91330 0.06700
O 	O 	0.29849 0.97130 0.71607 -0.48700
O 	O 	0.29970 0.03962 0.71549 -0.48500
C 	C 	0.31293 0.00526 0.70583 0.40600
C 	C 	0.35059 0.00396 0.67987 -0.12100
C 	C 	0.36765 0.96751 0.66978 0.01000
H 	H 	0.35530 0.94300 0.67900 0.03600
C 	C 	0.40287 0.96561 0.64619 -0.03200
C 	C 	0.42109 0.92939 0.63501 -0.02300
H 	H 	0.41050 0.90450 0.64510 0.03300
C 	C 	0.45451 0.92885 0.60931 -0.08300
H 	H 	0.46640 0.90350 0.60200 0.05500
C 	C 	0.47080 0.96439 0.59426 0.03800
C 	C 	0.45316 0.00077 0.60429 -0.13100
H 	H 	0.46400 0.02510 0.59310 0.07700
C 	C 	0.41963 0.00330 0.63049 0.08500
C 	C 	0.40115 0.03978 0.64229 -0.13800
H 	H 	0.41300 0.06470 0.63380 0.07700
C 	C 	0.36720 0.04095 0.66523 0.05600
H 	H 	0.35460 0.06620 0.67150 0.02000
C 	C 	0.50506 0.96429 0.56463 0.04500
C 	C 	0.53488 0.99386 0.56556 -0.11000
H 	H 	0.53500 0.01350 0.58670 0.06700
O 	O 	0.20151 0.52870 0.71607 -0.48700
O 	O 	0.20030 0.46038 0.71549 -0.48500
C 	C 	0.18707 0.49474 0.70583 0.40600
C 	C 	0.14941 0.49604 0.67987 -0.12000
C 	C 	0.13235 0.53249 0.66978 0.01000
H 	H 	0.14470 0.55700 0.67900 0.03600
C 	C 	0.09713 0.53439 0.64619 -0.03200
C 	C 	0.07891 0.57061 0.63501 -0.02300
H 	H 	0.08950 0.59550 0.64510 0.03300
C 	C 	0.04549 0.57115 0.60931 -0.08300
H 	H 	0.03360 0.59650 0.60200 0.05500
C 	C 	0.02920 0.53561 0.59426 0.03800
C 	C 	0.04684 0.49923 0.60429 -0.13100
H 	H 	0.03600 0.47490 0.59310 0.07700
C 	C 	0.08037 0.49670 0.63049 0.08500
C 	C 	0.09885 0.46022 0.64229 -0.13800
H 	H 	0.08700 0.43530 0.63380 0.07700
C 	C 	0.13280 0.45905 0.66523 0.05600
H 	H 	0.14540 0.43380 0.67150 0.02000
C 	C 	0.99494 0.53571 0.56463 0.04500
C 	C 	0.96512 0.50614 0.56556 -0.11000
H 	H 	0.96500 0.48650 0.58670 0.06700
O 	O 	0.29849 0.52870 0.78393 -0.48700
O 	O 	0.29970 0.46038 0.78451 -0.48500
C 	C 	0.31293 0.49474 0.79417 0.40600
C 	C 	0.35059 0.49604 0.82013 -0.12000
C 	C 	0.36765 0.53249 0.83022 0.01000
H 	H 	0.35530 0.55700 0.82100 0.03600
C 	C 	0.40287 0.53439 0.85381 -0.03200
C 	C 	0.42109 0.57061 0.86499 -0.02300
H 	H 	0.41050 0.59550 0.85490 0.03300
C 	C 	0.45451 0.57115 0.89069 -0.08300
H 	H 	0.46640 0.59650 0.89800 0.05500
C 	C 	0.47080 0.53561 0.90574 0.03800
C 	C 	0.45316 0.49923 0.89571 -0.13100
H 	H 	0.46400 0.47490 0.90690 0.07700
C 	C 	0.41963 0.49670 0.86951 0.08500
C 	C 	0.40115 0.46022 0.85771 -0.13800
H 	H 	0.41300 0.43530 0.86620 0.07700
C 	C 	0.36720 0.45905 0.83477 0.05600
H 	H 	0.35460 0.43380 0.82850 0.02000
C 	C 	0.50506 0.53571 0.93537 0.04500
C 	C 	0.53488 0.50614 0.93444 -0.11000
H 	H 	0.53500 0.48650 0.91330 0.06700
Zn	Zn	0.75000 0.25000 0.45412 1.20300
Zn	Zn	0.75000 0.25000 0.04588 1.20300
Zn	Zn	0.25000 0.04588 0.75000 1.20300
Zn	Zn	0.25000 0.45412 0.75000 1.20300
Zn	Zn	0.04588 0.75000 0.25000 1.20300
Zn	Zn	0.45412 0.75000 0.25000 1.20300
Zn	Zn	0.75000 0.25000 0.95412 1.20300
Zn	Zn	0.75000 0.25000 0.54588 1.20300
Zn	Zn	0.95412 0.75000 0.25000 1.20300
Zn	Zn	0.54588 0.75000 0.25000 1.20300
Zn	Zn	0.25000 0.95412 0.75000 1.20300
Zn	Zn	0.25000 0.54588 0.75000 1.20300
