data_crystal

_cell_length_a 32.99000
_cell_length_b 32.99000
_cell_length_c 32.99000
_cell_angle_alpha 90.00000
_cell_angle_beta  90.00000
_cell_angle_gamma 90.00000

_symmetry_space_group_name_	'P 1'
_symmetry_space_group_name_H-M	'P 1'

loop_
_symmetry_equiv_pos_as_xyz
  x,y,z

loop_
_atom_site_label
_atom_site_type_symbol
_atom_site_fract_x
_atom_site_fract_y
_atom_site_fract_z
_atom_site_charge
O 	O 	0.96666 0.30043 0.71821 -0.40500
O 	O 	0.03575 0.30010 0.71802 -0.41500
C 	C 	0.00197 0.31368 0.71057 0.34800
C 	C 	0.00094 0.35146 0.68294 -0.07300
C 	C 	0.96715 0.36763 0.67160 -0.01800
H 	H 	0.94290 0.35620 0.68040 0.05400
C 	C 	0.96577 0.40290 0.64560 -0.02100
C 	C 	0.00207 0.41866 0.63203 0.07700
C 	C 	0.03819 0.40237 0.64519 -0.12000
H 	H 	0.06250 0.41430 0.63740 0.07500
C 	C 	0.03862 0.36786 0.67033 0.01900
H 	H 	0.06300 0.35620 0.67840 0.03900
C 	C 	0.92898 0.42123 0.63307 -0.02700
H 	H 	0.90440 0.41100 0.64240 0.03900
C 	C 	0.92928 0.45350 0.60756 -0.08600
H 	H 	0.90490 0.46500 0.59950 0.05900
C 	C 	0.96600 0.46978 0.59315 0.04300
C 	C 	0.00073 0.45340 0.60536 -0.13300
H 	H 	0.02500 0.46470 0.59640 0.07900
C 	C 	0.96552 0.50306 0.56358 0.03800
C 	C 	0.93606 0.50397 0.53350 -0.10600
H 	H 	0.91580 0.48440 0.53330 0.06700
O 	O 	0.53334 0.19957 0.71821 -0.40500
O 	O 	0.46425 0.19990 0.71802 -0.41500
C 	C 	0.49803 0.18632 0.71057 0.34800
C 	C 	0.49906 0.14854 0.68294 -0.07300
C 	C 	0.53285 0.13237 0.67160 -0.01800
H 	H 	0.55710 0.14380 0.68040 0.05400
C 	C 	0.53423 0.09710 0.64560 -0.02100
C 	C 	0.49793 0.08134 0.63203 0.07700
C 	C 	0.46181 0.09763 0.64519 -0.12000
H 	H 	0.43750 0.08570 0.63740 0.07500
C 	C 	0.46138 0.13214 0.67033 0.01900
H 	H 	0.43700 0.14380 0.67840 0.03900
C 	C 	0.57102 0.07877 0.63307 -0.02700
H 	H 	0.59560 0.08900 0.64240 0.03900
C 	C 	0.57072 0.04650 0.60756 -0.08600
H 	H 	0.59510 0.03500 0.59950 0.05900
C 	C 	0.53400 0.03022 0.59315 0.04300
C 	C 	0.49927 0.04660 0.60536 -0.13300
H 	H 	0.47500 0.03530 0.59640 0.07900
C 	C 	0.53448 0.99694 0.56358 0.03800
C 	C 	0.56394 0.99603 0.53350 -0.10600
H 	H 	0.58420 0.01560 0.53330 0.06700
O 	O 	0.53334 0.30043 0.78179 -0.40500
O 	O 	0.46425 0.30010 0.78198 -0.41500
C 	C 	0.49803 0.31368 0.78943 0.34800
C 	C 	0.49906 0.35146 0.81706 -0.07300
C 	C 	0.53285 0.36763 0.82840 -0.01800
H 	H 	0.55710 0.35620 0.81960 0.05400
C 	C 	0.53423 0.40290 0.85440 -0.02100
C 	C 	0.49793 0.41866 0.86797 0.07700
C 	C 	0.46181 0.40237 0.85481 -0.12000
H 	H 	0.43750 0.41430 0.86260 0.07500
C 	C 	0.46138 0.36786 0.82967 0.01900
H 	H 	0.43700 0.35620 0.82160 0.03900
C 	C 	0.57102 0.42123 0.86693 -0.02700
H 	H 	0.59560 0.41100 0.85760 0.03900
C 	C 	0.57072 0.45350 0.89244 -0.08600
H 	H 	0.59510 0.46500 0.90050 0.05900
C 	C 	0.53400 0.46978 0.90685 0.04300
C 	C 	0.49927 0.45340 0.89464 -0.13300
H 	H 	0.47500 0.46470 0.90360 0.07900
C 	C 	0.53448 0.50306 0.93642 0.03800
C 	C 	0.56394 0.50397 0.96650 -0.10600
H 	H 	0.58420 0.48440 0.96670 0.06700
O 	O 	0.96666 0.19957 0.78179 -0.40500
O 	O 	0.03575 0.19990 0.78198 -0.41500
C 	C 	0.00197 0.18632 0.78943 0.34800
C 	C 	0.00094 0.14854 0.81706 -0.07300
C 	C 	0.96715 0.13237 0.82840 -0.01800
H 	H 	0.94290 0.14380 0.81960 0.05400
C 	C 	0.96577 0.09710 0.85440 -0.02100
C 	C 	0.00207 0.08134 0.86797 0.07700
C 	C 	0.03819 0.09763 0.85481 -0.12000
H 	H 	0.06250 0.08570 0.86260 0.07500
C 	C 	0.03862 0.13214 0.82967 0.01900
H 	H 	0.06300 0.14380 0.82160 0.03900
C 	C 	0.92898 0.07877 0.86693 -0.02700
H 	H 	0.90440 0.08900 0.85760 0.03900
C 	C 	0.92928 0.04650 0.89244 -0.08600
H 	H 	0.90490 0.03500 0.90050 0.05900
C 	C 	0.96600 0.03022 0.90685 0.04300
C 	C 	0.00073 0.04660 0.89464 -0.13300
H 	H 	0.02500 0.03530 0.90360 0.07900
C 	C 	0.96552 0.99694 0.93642 0.03800
C 	C 	0.93606 0.99603 0.96650 -0.10600
H 	H 	0.91580 0.01560 0.96670 0.06700
O 	O 	0.71821 0.96666 0.30043 -0.40500
O 	O 	0.71802 0.03575 0.30010 -0.41500
C 	C 	0.71057 0.00197 0.31368 0.34800
C 	C 	0.68294 0.00094 0.35146 -0.07300
C 	C 	0.67160 0.96715 0.36763 -0.01800
H 	H 	0.68040 0.94290 0.35620 0.05400
C 	C 	0.64560 0.96577 0.40290 -0.02100
C 	C 	0.63203 0.00207 0.41866 0.07700
C 	C 	0.64519 0.03819 0.40237 -0.12000
H 	H 	0.63740 0.06250 0.41430 0.07500
C 	C 	0.67033 0.03862 0.36786 0.01900
H 	H 	0.67840 0.06300 0.35620 0.03900
C 	C 	0.63307 0.92898 0.42123 -0.02700
H 	H 	0.64240 0.90440 0.41100 0.03900
C 	C 	0.60756 0.92928 0.45350 -0.08600
H 	H 	0.59950 0.90490 0.46500 0.05900
C 	C 	0.59315 0.96600 0.46978 0.04300
C 	C 	0.60536 0.00073 0.45340 -0.13300
H 	H 	0.59640 0.02500 0.46470 0.07900
C 	C 	0.56358 0.96552 0.50306 0.03800
C 	C 	0.53350 0.93606 0.50397 -0.10600
H 	H 	0.53330 0.91580 0.48440 0.06700
O 	O 	0.71821 0.53334 0.19957 -0.40500
O 	O 	0.71802 0.46425 0.19990 -0.41500
C 	C 	0.71057 0.49803 0.18632 0.34800
C 	C 	0.68294 0.49906 0.14854 -0.07300
C 	C 	0.67160 0.53285 0.13237 -0.01800
H 	H 	0.68040 0.55710 0.14380 0.05400
C 	C 	0.64560 0.53423 0.09710 -0.02100
C 	C 	0.63203 0.49793 0.08134 0.07700
C 	C 	0.64519 0.46181 0.09763 -0.12000
H 	H 	0.63740 0.43750 0.08570 0.07500
C 	C 	0.67033 0.46138 0.13214 0.01900
H 	H 	0.67840 0.43700 0.14380 0.03900
C 	C 	0.63307 0.57102 0.07877 -0.02700
H 	H 	0.64240 0.59560 0.08900 0.03900
C 	C 	0.60756 0.57072 0.04650 -0.08600
H 	H 	0.59950 0.59510 0.03500 0.05900
C 	C 	0.59315 0.53400 0.03022 0.04300
C 	C 	0.60536 0.49927 0.04660 -0.13300
H 	H 	0.59640 0.47500 0.03530 0.07900
C 	C 	0.56358 0.53448 0.99694 0.03800
C 	C 	0.53350 0.56394 0.99603 -0.10600
H 	H 	0.53330 0.58420 0.01560 0.06700
O 	O 	0.78179 0.53334 0.30043 -0.40500
O 	O 	0.78198 0.46425 0.30010 -0.41500
C 	C 	0.78943 0.49803 0.31368 0.34800
C 	C 	0.81706 0.49906 0.35146 -0.07300
C 	C 	0.82840 0.53285 0.36763 -0.01800
H 	H 	0.81960 0.55710 0.35620 0.05400
C 	C 	0.85440 0.53423 0.40290 -0.02100
C 	C 	0.86797 0.49793 0.41866 0.07700
C 	C 	0.85481 0.46181 0.40237 -0.12000
H 	H 	0.86260 0.43750 0.41430 0.07500
C 	C 	0.82967 0.46138 0.36786 0.01900
H 	H 	0.82160 0.43700 0.35620 0.03900
C 	C 	0.86693 0.57102 0.42123 -0.02700
H 	H 	0.85760 0.59560 0.41100 0.03900
C 	C 	0.89244 0.57072 0.45350 -0.08600
H 	H 	0.90050 0.59510 0.46500 0.05900
C 	C 	0.90685 0.53400 0.46978 0.04300
C 	C 	0.89464 0.49927 0.45340 -0.13300
H 	H 	0.90360 0.47500 0.46470 0.07900
C 	C 	0.93642 0.53448 0.50306 0.03800
C 	C 	0.96650 0.56394 0.50397 -0.10600
H 	H 	0.96670 0.58420 0.48440 0.06700
O 	O 	0.78179 0.96666 0.19957 -0.40500
O 	O 	0.78198 0.03575 0.19990 -0.41500
C 	C 	0.78943 0.00197 0.18632 0.34800
C 	C 	0.81706 0.00094 0.14854 -0.07300
C 	C 	0.82840 0.96715 0.13237 -0.01800
H 	H 	0.81960 0.94290 0.14380 0.05400
C 	C 	0.85440 0.96577 0.09710 -0.02100
C 	C 	0.86797 0.00207 0.08134 0.07700
C 	C 	0.85481 0.03819 0.09763 -0.11900
H 	H 	0.86260 0.06250 0.08570 0.07600
C 	C 	0.82967 0.03862 0.13214 0.02000
H 	H 	0.82160 0.06300 0.14380 0.04000
C 	C 	0.86693 0.92898 0.07877 -0.02600
H 	H 	0.85760 0.90440 0.08900 0.04000
C 	C 	0.89244 0.92928 0.04650 -0.08500
H 	H 	0.90050 0.90490 0.03500 0.06000
C 	C 	0.90685 0.96600 0.03022 0.04400
C 	C 	0.89464 0.00073 0.04660 -0.13200
H 	H 	0.90360 0.02500 0.03530 0.08000
C 	C 	0.93642 0.96552 0.99694 0.03900
C 	C 	0.96650 0.93606 0.99603 -0.10500
H 	H 	0.96670 0.91580 0.01560 0.06800
O 	O 	0.30043 0.71821 0.96666 -0.40400
O 	O 	0.30010 0.71802 0.03575 -0.41400
C 	C 	0.31368 0.71057 0.00197 0.34900
C 	C 	0.35146 0.68294 0.00094 -0.07200
C 	C 	0.36763 0.67160 0.96715 -0.01700
H 	H 	0.35620 0.68040 0.94290 0.05500
C 	C 	0.40290 0.64560 0.96577 -0.02000
C 	C 	0.41866 0.63203 0.00207 0.07800
C 	C 	0.40237 0.64519 0.03819 -0.11900
H 	H 	0.41430 0.63740 0.06250 0.07600
C 	C 	0.36786 0.67033 0.03862 0.02000
H 	H 	0.35620 0.67840 0.06300 0.04000
C 	C 	0.42123 0.63307 0.92898 -0.02600
H 	H 	0.41100 0.64240 0.90440 0.04000
C 	C 	0.45350 0.60756 0.92928 -0.08500
H 	H 	0.46500 0.59950 0.90490 0.06000
C 	C 	0.46978 0.59315 0.96600 0.04400
C 	C 	0.45340 0.60536 0.00073 -0.13200
H 	H 	0.46470 0.59640 0.02500 0.08000
C 	C 	0.50306 0.56358 0.96552 0.03900
C 	C 	0.50397 0.53350 0.93606 -0.10500
H 	H 	0.48440 0.53330 0.91580 0.06800
O 	O 	0.19957 0.71821 0.53334 -0.40400
O 	O 	0.19990 0.71802 0.46425 -0.41400
C 	C 	0.18632 0.71057 0.49803 0.34900
C 	C 	0.14854 0.68294 0.49906 -0.07200
C 	C 	0.13237 0.67160 0.53285 -0.01700
H 	H 	0.14380 0.68040 0.55710 0.05500
C 	C 	0.09710 0.64560 0.53423 -0.02000
C 	C 	0.08134 0.63203 0.49793 0.07800
C 	C 	0.09763 0.64519 0.46181 -0.11900
H 	H 	0.08570 0.63740 0.43750 0.07600
C 	C 	0.13214 0.67033 0.46138 0.02000
H 	H 	0.14380 0.67840 0.43700 0.04000
C 	C 	0.07877 0.63307 0.57102 -0.02600
H 	H 	0.08900 0.64240 0.59560 0.04000
C 	C 	0.04650 0.60756 0.57072 -0.08500
H 	H 	0.03500 0.59950 0.59510 0.06000
C 	C 	0.03022 0.59315 0.53400 0.04400
C 	C 	0.04660 0.60536 0.49927 -0.13200
H 	H 	0.03530 0.59640 0.47500 0.08000
C 	C 	0.99694 0.56358 0.53448 0.03900
C 	C 	0.99603 0.53350 0.56394 -0.10500
H 	H 	0.01560 0.53330 0.58420 0.06800
O 	O 	0.30043 0.78179 0.53334 -0.40400
O 	O 	0.30010 0.78198 0.46425 -0.41400
C 	C 	0.31368 0.78943 0.49803 0.34900
C 	C 	0.35146 0.81706 0.49906 -0.07200
C 	C 	0.36763 0.82840 0.53285 -0.01700
H 	H 	0.35620 0.81960 0.55710 0.05500
C 	C 	0.40290 0.85440 0.53423 -0.02000
C 	C 	0.41866 0.86797 0.49793 0.07800
C 	C 	0.40237 0.85481 0.46181 -0.11900
H 	H 	0.41430 0.86260 0.43750 0.07600
C 	C 	0.36786 0.82967 0.46138 0.02000
H 	H 	0.35620 0.82160 0.43700 0.04000
C 	C 	0.42123 0.86693 0.57102 -0.02600
H 	H 	0.41100 0.85760 0.59560 0.04000
C 	C 	0.45350 0.89244 0.57072 -0.08500
H 	H 	0.46500 0.90050 0.59510 0.06000
C 	C 	0.46978 0.90685 0.53400 0.04400
C 	C 	0.45340 0.89464 0.49927 -0.13200
H 	H 	0.46470 0.90360 0.47500 0.08000
C 	C 	0.50306 0.93642 0.53448 0.03900
C 	C 	0.50397 0.96650 0.56394 -0.10500
H 	H 	0.48440 0.96670 0.58420 0.06800
O 	O 	0.19957 0.78179 0.96666 -0.40400
O 	O 	0.19990 0.78198 0.03575 -0.41400
C 	C 	0.18632 0.78943 0.00197 0.34900
C 	C 	0.14854 0.81706 0.00094 -0.07200
C 	C 	0.13237 0.82840 0.96715 -0.01700
H 	H 	0.14380 0.81960 0.94290 0.05500
C 	C 	0.09710 0.85440 0.96577 -0.02000
C 	C 	0.08134 0.86797 0.00207 0.07800
C 	C 	0.09763 0.85481 0.03819 -0.11900
H 	H 	0.08570 0.86260 0.06250 0.07600
C 	C 	0.13214 0.82967 0.03862 0.02000
H 	H 	0.14380 0.82160 0.06300 0.04000
C 	C 	0.07877 0.86693 0.92898 -0.02600
H 	H 	0.08900 0.85760 0.90440 0.04000
C 	C 	0.04650 0.89244 0.92928 -0.08500
H 	H 	0.03500 0.90050 0.90490 0.06000
C 	C 	0.03022 0.90685 0.96600 0.04400
C 	C 	0.04660 0.89464 0.00073 -0.13200
H 	H 	0.03530 0.90360 0.02500 0.08000
C 	C 	0.99694 0.93642 0.96552 0.03900
C 	C 	0.99603 0.96650 0.93606 -0.10500
H 	H 	0.01560 0.96670 0.91580 0.06800
O 	O 	0.69957 0.03334 0.21821 -0.40400
O 	O 	0.69990 0.96425 0.21802 -0.41400
C 	C 	0.68632 0.99803 0.21057 0.34900
C 	C 	0.64854 0.99906 0.18294 -0.07200
C 	C 	0.63237 0.03285 0.17160 -0.01700
H 	H 	0.64380 0.05710 0.18040 0.05500
C 	C 	0.59710 0.03423 0.14560 -0.02000
C 	C 	0.58134 0.99793 0.13203 0.07800
C 	C 	0.59763 0.96181 0.14519 -0.11900
H 	H 	0.58570 0.93750 0.13740 0.07600
C 	C 	0.63214 0.96138 0.17033 0.02000
H 	H 	0.64380 0.93700 0.17840 0.04000
C 	C 	0.57877 0.07102 0.13307 -0.02600
H 	H 	0.58900 0.09560 0.14240 0.04000
C 	C 	0.54650 0.07072 0.10756 -0.08500
H 	H 	0.53500 0.09510 0.09950 0.06000
C 	C 	0.53022 0.03400 0.09315 0.04400
C 	C 	0.54660 0.99927 0.10536 -0.13200
H 	H 	0.53530 0.97500 0.09640 0.08000
C 	C 	0.49694 0.03448 0.06358 0.03800
C 	C 	0.49603 0.06394 0.03350 -0.10500
H 	H 	0.51560 0.08420 0.03330 0.06800
O 	O 	0.80043 0.46666 0.21821 -0.40400
O 	O 	0.80010 0.53575 0.21802 -0.41400
C 	C 	0.81368 0.50197 0.21057 0.34900
C 	C 	0.85146 0.50094 0.18294 -0.07200
C 	C 	0.86763 0.46715 0.17160 -0.01700
H 	H 	0.85620 0.44290 0.18040 0.05500
C 	C 	0.90290 0.46577 0.14560 -0.02000
C 	C 	0.91866 0.50207 0.13203 0.07800
C 	C 	0.90237 0.53819 0.14519 -0.11900
H 	H 	0.91430 0.56250 0.13740 0.07600
C 	C 	0.86786 0.53862 0.17033 0.02000
H 	H 	0.85620 0.56300 0.17840 0.04000
C 	C 	0.92123 0.42898 0.13307 -0.02600
H 	H 	0.91100 0.40440 0.14240 0.04000
C 	C 	0.95350 0.42928 0.10756 -0.08500
H 	H 	0.96500 0.40490 0.09950 0.06000
C 	C 	0.96978 0.46600 0.09315 0.04400
C 	C 	0.95340 0.50073 0.10536 -0.13200
H 	H 	0.96470 0.52500 0.09640 0.08000
C 	C 	0.00306 0.46552 0.06358 0.03900
C 	C 	0.00397 0.43606 0.03350 -0.10500
H 	H 	0.98440 0.41580 0.03330 0.06800
O 	O 	0.69957 0.46666 0.28179 -0.40400
O 	O 	0.69990 0.53575 0.28198 -0.41400
C 	C 	0.68632 0.50197 0.28943 0.34900
C 	C 	0.64854 0.50094 0.31706 -0.07200
C 	C 	0.63237 0.46715 0.32840 -0.01700
H 	H 	0.64380 0.44290 0.31960 0.05500
C 	C 	0.59710 0.46577 0.35440 -0.02000
C 	C 	0.58134 0.50207 0.36797 0.07800
C 	C 	0.59763 0.53819 0.35481 -0.11900
H 	H 	0.58570 0.56250 0.36260 0.07600
C 	C 	0.63214 0.53862 0.32967 0.02000
H 	H 	0.64380 0.56300 0.32160 0.04000
C 	C 	0.57877 0.42898 0.36693 -0.02600
H 	H 	0.58900 0.40440 0.35760 0.04000
C 	C 	0.54650 0.42928 0.39244 -0.08500
H 	H 	0.53500 0.40490 0.40050 0.06000
C 	C 	0.53022 0.46600 0.40685 0.04400
C 	C 	0.54660 0.50073 0.39464 -0.13200
H 	H 	0.53530 0.52500 0.40360 0.08000
C 	C 	0.49694 0.46552 0.43642 0.03900
C 	C 	0.49603 0.43606 0.46650 -0.10500
H 	H 	0.51560 0.41580 0.46670 0.06800
O 	O 	0.80043 0.03334 0.28179 -0.40400
O 	O 	0.80010 0.96425 0.28198 -0.41400
C 	C 	0.81368 0.99803 0.28943 0.34900
C 	C 	0.85146 0.99906 0.31706 -0.07200
C 	C 	0.86763 0.03285 0.32840 -0.01700
H 	H 	0.85620 0.05710 0.31960 0.05500
C 	C 	0.90290 0.03423 0.35440 -0.02000
C 	C 	0.91866 0.99793 0.36797 0.07800
C 	C 	0.90237 0.96181 0.35481 -0.11900
H 	H 	0.91430 0.93750 0.36260 0.07600
C 	C 	0.86786 0.96138 0.32967 0.02000
H 	H 	0.85620 0.93700 0.32160 0.04000
C 	C 	0.92123 0.07102 0.36693 -0.02600
H 	H 	0.91100 0.09560 0.35760 0.04000
C 	C 	0.95350 0.07072 0.39244 -0.08500
H 	H 	0.96500 0.09510 0.40050 0.06000
C 	C 	0.96978 0.03400 0.40685 0.04400
C 	C 	0.95340 0.99927 0.39464 -0.13200
H 	H 	0.96470 0.97500 0.40360 0.08000
C 	C 	0.00306 0.03448 0.43642 0.03900
C 	C 	0.00397 0.06394 0.46650 -0.10500
H 	H 	0.98440 0.08420 0.46670 0.06800
O 	O 	0.03334 0.28179 0.80043 -0.40400
O 	O 	0.96425 0.28198 0.80010 -0.41400
C 	C 	0.99803 0.28943 0.81368 0.34900
C 	C 	0.99906 0.31706 0.85146 -0.07200
C 	C 	0.03285 0.32840 0.86763 -0.01700
H 	H 	0.05710 0.31960 0.85620 0.05500
C 	C 	0.03423 0.35440 0.90290 -0.02000
C 	C 	0.99793 0.36797 0.91866 0.07800
C 	C 	0.96181 0.35481 0.90237 -0.11900
H 	H 	0.93750 0.36260 0.91430 0.07600
C 	C 	0.96138 0.32967 0.86786 0.02000
H 	H 	0.93700 0.32160 0.85620 0.04000
C 	C 	0.07102 0.36693 0.92123 -0.02600
H 	H 	0.09560 0.35760 0.91100 0.04000
C 	C 	0.07072 0.39244 0.95350 -0.08500
H 	H 	0.09510 0.40050 0.96500 0.06000
C 	C 	0.03400 0.40685 0.96978 0.04400
C 	C 	0.99927 0.39464 0.95340 -0.13200
H 	H 	0.97500 0.40360 0.96470 0.08000
C 	C 	0.03448 0.43642 0.00306 0.03900
C 	C 	0.06394 0.46650 0.00397 -0.10500
H 	H 	0.08420 0.46670 0.98440 0.06800
O 	O 	0.46666 0.28179 0.69957 -0.40400
O 	O 	0.53575 0.28198 0.69990 -0.41400
C 	C 	0.50197 0.28943 0.68632 0.34900
C 	C 	0.50094 0.31706 0.64854 -0.07200
C 	C 	0.46715 0.32840 0.63237 -0.01700
H 	H 	0.44290 0.31960 0.64380 0.05500
C 	C 	0.46577 0.35440 0.59710 -0.02000
C 	C 	0.50207 0.36797 0.58134 0.07800
C 	C 	0.53819 0.35481 0.59763 -0.11900
H 	H 	0.56250 0.36260 0.58570 0.07600
C 	C 	0.53862 0.32967 0.63214 0.02000
H 	H 	0.56300 0.32160 0.64380 0.04000
C 	C 	0.42898 0.36693 0.57877 -0.02600
H 	H 	0.40440 0.35760 0.58900 0.04000
C 	C 	0.42928 0.39244 0.54650 -0.08500
H 	H 	0.40490 0.40050 0.53500 0.06000
C 	C 	0.46600 0.40685 0.53022 0.04400
C 	C 	0.50073 0.39464 0.54660 -0.13200
H 	H 	0.52500 0.40360 0.53530 0.08000
C 	C 	0.46552 0.43642 0.49694 0.03900
C 	C 	0.43606 0.46650 0.49603 -0.10500
H 	H 	0.41580 0.46670 0.51560 0.06800
O 	O 	0.46666 0.21821 0.80043 -0.40400
O 	O 	0.53575 0.21802 0.80010 -0.41400
C 	C 	0.50197 0.21057 0.81368 0.34900
C 	C 	0.50094 0.18294 0.85146 -0.07200
C 	C 	0.46715 0.17160 0.86763 -0.01700
H 	H 	0.44290 0.18040 0.85620 0.05500
C 	C 	0.46577 0.14560 0.90290 -0.02000
C 	C 	0.50207 0.13203 0.91866 0.07800
C 	C 	0.53819 0.14519 0.90237 -0.11900
H 	H 	0.56250 0.13740 0.91430 0.07600
C 	C 	0.53862 0.17033 0.86786 0.02000
H 	H 	0.56300 0.17840 0.85620 0.04000
C 	C 	0.42898 0.13307 0.92123 -0.02600
H 	H 	0.40440 0.14240 0.91100 0.04000
C 	C 	0.42928 0.10756 0.95350 -0.08500
H 	H 	0.40490 0.09950 0.96500 0.06000
C 	C 	0.46600 0.09315 0.96978 0.04400
C 	C 	0.50073 0.10536 0.95340 -0.13200
H 	H 	0.52500 0.09640 0.96470 0.08000
C 	C 	0.46552 0.06358 0.00306 0.03900
C 	C 	0.43606 0.03350 0.00397 -0.10500
H 	H 	0.41580 0.03330 0.98440 0.06800
O 	O 	0.03334 0.21821 0.69957 -0.40400
O 	O 	0.96425 0.21802 0.69990 -0.41400
C 	C 	0.99803 0.21057 0.68632 0.34900
C 	C 	0.99906 0.18294 0.64854 -0.07200
C 	C 	0.03285 0.17160 0.63237 -0.01700
H 	H 	0.05710 0.18040 0.64380 0.05500
C 	C 	0.03423 0.14560 0.59710 -0.02000
C 	C 	0.99793 0.13203 0.58134 0.07800
C 	C 	0.96181 0.14519 0.59763 -0.11900
H 	H 	0.93750 0.13740 0.58570 0.07600
C 	C 	0.96138 0.17033 0.63214 0.02000
H 	H 	0.93700 0.17840 0.64380 0.04000
C 	C 	0.07102 0.13307 0.57877 -0.02600
H 	H 	0.09560 0.14240 0.58900 0.04000
C 	C 	0.07072 0.10756 0.54650 -0.08500
H 	H 	0.09510 0.09950 0.53500 0.06000
C 	C 	0.03400 0.09315 0.53022 0.04400
C 	C 	0.99927 0.10536 0.54660 -0.13200
H 	H 	0.97500 0.09640 0.53530 0.08000
C 	C 	0.03448 0.06358 0.49694 0.03800
C 	C 	0.06394 0.03350 0.49603 -0.10500
H 	H 	0.08420 0.03330 0.51560 0.06800
O 	O 	0.28179 0.69957 0.46666 -0.40400
O 	O 	0.28198 0.69990 0.53575 -0.41400
C 	C 	0.28943 0.68632 0.50197 0.34900
C 	C 	0.31706 0.64854 0.50094 -0.07200
C 	C 	0.32840 0.63237 0.46715 -0.01700
H 	H 	0.31960 0.64380 0.44290 0.05500
C 	C 	0.35440 0.59710 0.46577 -0.02000
C 	C 	0.36797 0.58134 0.50207 0.07800
C 	C 	0.35481 0.59763 0.53819 -0.11900
H 	H 	0.36260 0.58570 0.56250 0.07600
C 	C 	0.32967 0.63214 0.53862 0.02000
H 	H 	0.32160 0.64380 0.56300 0.04000
C 	C 	0.36693 0.57877 0.42898 -0.02600
H 	H 	0.35760 0.58900 0.40440 0.04000
C 	C 	0.39244 0.54650 0.42928 -0.08500
H 	H 	0.40050 0.53500 0.40490 0.06000
C 	C 	0.40685 0.53022 0.46600 0.04400
C 	C 	0.39464 0.54660 0.50073 -0.13200
H 	H 	0.40360 0.53530 0.52500 0.08000
C 	C 	0.43642 0.49694 0.46552 0.03900
C 	C 	0.46650 0.49603 0.43606 -0.10500
H 	H 	0.46670 0.51560 0.41580 0.06800
O 	O 	0.28179 0.80043 0.03334 -0.40400
O 	O 	0.28198 0.80010 0.96425 -0.41400
C 	C 	0.28943 0.81368 0.99803 0.34900
C 	C 	0.31706 0.85146 0.99906 -0.07200
C 	C 	0.32840 0.86763 0.03285 -0.01700
H 	H 	0.31960 0.85620 0.05710 0.05500
C 	C 	0.35440 0.90290 0.03423 -0.02000
C 	C 	0.36797 0.91866 0.99793 0.07800
C 	C 	0.35481 0.90237 0.96181 -0.11900
H 	H 	0.36260 0.91430 0.93750 0.07600
C 	C 	0.32967 0.86786 0.96138 0.02000
H 	H 	0.32160 0.85620 0.93700 0.04000
C 	C 	0.36693 0.92123 0.07102 -0.02600
H 	H 	0.35760 0.91100 0.09560 0.04000
C 	C 	0.39244 0.95350 0.07072 -0.08500
H 	H 	0.40050 0.96500 0.09510 0.06000
C 	C 	0.40685 0.96978 0.03400 0.04400
C 	C 	0.39464 0.95340 0.99927 -0.13200
H 	H 	0.40360 0.96470 0.97500 0.08000
C 	C 	0.43642 0.00306 0.03448 0.03900
C 	C 	0.46650 0.00397 0.06394 -0.10500
H 	H 	0.46670 0.98440 0.08420 0.06800
O 	O 	0.21821 0.69957 0.03334 -0.40400
O 	O 	0.21802 0.69990 0.96425 -0.41400
C 	C 	0.21057 0.68632 0.99803 0.34900
C 	C 	0.18294 0.64854 0.99906 -0.07200
C 	C 	0.17160 0.63237 0.03285 -0.01700
H 	H 	0.18040 0.64380 0.05710 0.05500
C 	C 	0.14560 0.59710 0.03423 -0.02000
C 	C 	0.13203 0.58134 0.99793 0.07800
C 	C 	0.14519 0.59763 0.96181 -0.11900
H 	H 	0.13740 0.58570 0.93750 0.07600
C 	C 	0.17033 0.63214 0.96138 0.02000
H 	H 	0.17840 0.64380 0.93700 0.04000
C 	C 	0.13307 0.57877 0.07102 -0.02600
H 	H 	0.14240 0.58900 0.09560 0.04000
C 	C 	0.10756 0.54650 0.07072 -0.08500
H 	H 	0.09950 0.53500 0.09510 0.06000
C 	C 	0.09315 0.53022 0.03400 0.04400
C 	C 	0.10536 0.54660 0.99927 -0.13200
H 	H 	0.09640 0.53530 0.97500 0.08000
C 	C 	0.06358 0.49694 0.03448 0.03800
C 	C 	0.03350 0.49603 0.06394 -0.10500
H 	H 	0.03330 0.51560 0.08420 0.06800
O 	O 	0.21821 0.80043 0.46666 -0.40400
O 	O 	0.21802 0.80010 0.53575 -0.41400
C 	C 	0.21057 0.81368 0.50197 0.34900
C 	C 	0.18294 0.85146 0.50094 -0.07200
C 	C 	0.17160 0.86763 0.46715 -0.01700
H 	H 	0.18040 0.85620 0.44290 0.05500
C 	C 	0.14560 0.90290 0.46577 -0.02000
C 	C 	0.13203 0.91866 0.50207 0.07800
C 	C 	0.14519 0.90237 0.53819 -0.11900
H 	H 	0.13740 0.91430 0.56250 0.07600
C 	C 	0.17033 0.86786 0.53862 0.02000
H 	H 	0.17840 0.85620 0.56300 0.04000
C 	C 	0.13307 0.92123 0.42898 -0.02600
H 	H 	0.14240 0.91100 0.40440 0.04000
C 	C 	0.10756 0.95350 0.42928 -0.08500
H 	H 	0.09950 0.96500 0.40490 0.06000
C 	C 	0.09315 0.96978 0.46600 0.04400
C 	C 	0.10536 0.95340 0.50073 -0.13200
H 	H 	0.09640 0.96470 0.52500 0.08000
C 	C 	0.06358 0.00306 0.46552 0.03900
C 	C 	0.03350 0.00397 0.43606 -0.10500
H 	H 	0.03330 0.98440 0.41580 0.06800
Cu	Cu	0.96026 0.25000 0.75000 0.89700
Cu	Cu	0.53974 0.25000 0.75000 0.89700
Cu	Cu	0.75000 0.96026 0.25000 0.89700
Cu	Cu	0.75000 0.53974 0.25000 0.89700
Cu	Cu	0.25000 0.75000 0.96026 0.89700
Cu	Cu	0.25000 0.75000 0.53974 0.89700
Cu	Cu	0.75000 0.03974 0.25000 0.89700
Cu	Cu	0.75000 0.46026 0.25000 0.89700
Cu	Cu	0.03974 0.25000 0.75000 0.89700
Cu	Cu	0.46026 0.25000 0.75000 0.89700
Cu	Cu	0.25000 0.75000 0.46026 0.89700
Cu	Cu	0.25000 0.75000 0.03974 0.89700
O 	O 	0.30043 0.96666 0.78179 -0.40400
O 	O 	0.30010 0.03575 0.78198 -0.41400
C 	C 	0.31368 0.00197 0.78943 0.34900
C 	C 	0.35146 0.00094 0.81706 -0.07200
C 	C 	0.36763 0.96715 0.82840 -0.01700
H 	H 	0.35620 0.94290 0.81960 0.05500
C 	C 	0.40290 0.96577 0.85440 -0.02000
C 	C 	0.41866 0.00207 0.86797 0.07800
C 	C 	0.40237 0.03819 0.85481 -0.11900
H 	H 	0.41430 0.06250 0.86260 0.07600
C 	C 	0.36786 0.03862 0.82967 0.02000
H 	H 	0.35620 0.06300 0.82160 0.04000
C 	C 	0.42123 0.92898 0.86693 -0.02600
H 	H 	0.41100 0.90440 0.85760 0.04000
C 	C 	0.45350 0.92928 0.89244 -0.08500
H 	H 	0.46500 0.90490 0.90050 0.06000
C 	C 	0.46978 0.96600 0.90685 0.04400
C 	C 	0.45340 0.00073 0.89464 -0.13200
H 	H 	0.46470 0.02500 0.90360 0.08000
C 	C 	0.50306 0.96552 0.93642 0.03800
C 	C 	0.50397 0.93606 0.96650 -0.10500
H 	H 	0.48440 0.91580 0.96670 0.06800
O 	O 	0.19957 0.53334 0.78179 -0.40400
O 	O 	0.19990 0.46425 0.78198 -0.41400
C 	C 	0.18632 0.49803 0.78943 0.34900
C 	C 	0.14854 0.49906 0.81706 -0.07200
C 	C 	0.13237 0.53285 0.82840 -0.01700
H 	H 	0.14380 0.55710 0.81960 0.05500
C 	C 	0.09710 0.53423 0.85440 -0.02000
C 	C 	0.08134 0.49793 0.86797 0.07800
C 	C 	0.09763 0.46181 0.85481 -0.11900
H 	H 	0.08570 0.43750 0.86260 0.07600
C 	C 	0.13214 0.46138 0.82967 0.02000
H 	H 	0.14380 0.43700 0.82160 0.04000
C 	C 	0.07877 0.57102 0.86693 -0.02600
H 	H 	0.08900 0.59560 0.85760 0.04000
C 	C 	0.04650 0.57072 0.89244 -0.08500
H 	H 	0.03500 0.59510 0.90050 0.06000
C 	C 	0.03022 0.53400 0.90685 0.04400
C 	C 	0.04660 0.49927 0.89464 -0.13200
H 	H 	0.03530 0.47500 0.90360 0.08000
C 	C 	0.99694 0.53448 0.93642 0.03900
C 	C 	0.99603 0.56394 0.96650 -0.10500
H 	H 	0.01560 0.58420 0.96670 0.06800
O 	O 	0.30043 0.53334 0.71821 -0.40400
O 	O 	0.30010 0.46425 0.71802 -0.41400
C 	C 	0.31368 0.49803 0.71057 0.34900
C 	C 	0.35146 0.49906 0.68294 -0.07200
C 	C 	0.36763 0.53285 0.67160 -0.01700
H 	H 	0.35620 0.55710 0.68040 0.05500
C 	C 	0.40290 0.53423 0.64560 -0.02000
C 	C 	0.41866 0.49793 0.63203 0.07800
C 	C 	0.40237 0.46181 0.64519 -0.11900
H 	H 	0.41430 0.43750 0.63740 0.07600
C 	C 	0.36786 0.46138 0.67033 0.02000
H 	H 	0.35620 0.43700 0.67840 0.04000
C 	C 	0.42123 0.57102 0.63307 -0.02600
H 	H 	0.41100 0.59560 0.64240 0.04000
C 	C 	0.45350 0.57072 0.60756 -0.08500
H 	H 	0.46500 0.59510 0.59950 0.06000
C 	C 	0.46978 0.53400 0.59315 0.04400
C 	C 	0.45340 0.49927 0.60536 -0.13200
H 	H 	0.46470 0.47500 0.59640 0.08000
C 	C 	0.50306 0.53448 0.56358 0.03900
C 	C 	0.50397 0.56394 0.53350 -0.10500
H 	H 	0.48440 0.58420 0.53330 0.06800
O 	O 	0.19957 0.96666 0.71821 -0.40400
O 	O 	0.19990 0.03575 0.71802 -0.41400
C 	C 	0.18632 0.00197 0.71057 0.34900
C 	C 	0.14854 0.00094 0.68294 -0.07200
C 	C 	0.13237 0.96715 0.67160 -0.01700
H 	H 	0.14380 0.94290 0.68040 0.05500
C 	C 	0.09710 0.96577 0.64560 -0.02000
C 	C 	0.08134 0.00207 0.63203 0.07800
C 	C 	0.09763 0.03819 0.64519 -0.11900
H 	H 	0.08570 0.06250 0.63740 0.07600
C 	C 	0.13214 0.03862 0.67033 0.02000
H 	H 	0.14380 0.06300 0.67840 0.04000
C 	C 	0.07877 0.92898 0.63307 -0.02600
H 	H 	0.08900 0.90440 0.64240 0.04000
C 	C 	0.04650 0.92928 0.60756 -0.08500
H 	H 	0.03500 0.90490 0.59950 0.06000
C 	C 	0.03022 0.96600 0.59315 0.04400
C 	C 	0.04660 0.00073 0.60536 -0.13200
H 	H 	0.03530 0.02500 0.59640 0.08000
C 	C 	0.99694 0.96552 0.56358 0.03900
C 	C 	0.99603 0.93606 0.53350 -0.10500
H 	H 	0.01560 0.91580 0.53330 0.06800
O 	O 	0.96666 0.71821 0.19957 -0.40400
O 	O 	0.03575 0.71802 0.19990 -0.41400
C 	C 	0.00197 0.71057 0.18632 0.34900
C 	C 	0.00094 0.68294 0.14854 -0.07200
C 	C 	0.96715 0.67160 0.13237 -0.01700
H 	H 	0.94290 0.68040 0.14380 0.05500
C 	C 	0.96577 0.64560 0.09710 -0.02000
C 	C 	0.00207 0.63203 0.08134 0.07800
C 	C 	0.03819 0.64519 0.09763 -0.11900
H 	H 	0.06250 0.63740 0.08570 0.07600
C 	C 	0.03862 0.67033 0.13214 0.02000
H 	H 	0.06300 0.67840 0.14380 0.04000
C 	C 	0.92898 0.63307 0.07877 -0.02600
H 	H 	0.90440 0.64240 0.08900 0.04000
C 	C 	0.92928 0.60756 0.04650 -0.08500
H 	H 	0.90490 0.59950 0.03500 0.06000
C 	C 	0.96600 0.59315 0.03022 0.04400
C 	C 	0.00073 0.60536 0.04660 -0.13200
H 	H 	0.02500 0.59640 0.03530 0.08000
C 	C 	0.96552 0.56358 0.99694 0.03900
C 	C 	0.93606 0.53350 0.99603 -0.10500
H 	H 	0.91580 0.53330 0.01560 0.06800
O 	O 	0.53334 0.71821 0.30043 -0.40400
O 	O 	0.46425 0.71802 0.30010 -0.41400
C 	C 	0.49803 0.71057 0.31368 0.34900
C 	C 	0.49906 0.68294 0.35146 -0.07200
C 	C 	0.53285 0.67160 0.36763 -0.01700
H 	H 	0.55710 0.68040 0.35620 0.05500
C 	C 	0.53423 0.64560 0.40290 -0.02000
C 	C 	0.49793 0.63203 0.41866 0.07800
C 	C 	0.46181 0.64519 0.40237 -0.11900
H 	H 	0.43750 0.63740 0.41430 0.07600
C 	C 	0.46138 0.67033 0.36786 0.02000
H 	H 	0.43700 0.67840 0.35620 0.04000
C 	C 	0.57102 0.63307 0.42123 -0.02600
H 	H 	0.59560 0.64240 0.41100 0.04000
C 	C 	0.57072 0.60756 0.45350 -0.08500
H 	H 	0.59510 0.59950 0.46500 0.06000
C 	C 	0.53400 0.59315 0.46978 0.04400
C 	C 	0.49927 0.60536 0.45340 -0.13200
H 	H 	0.47500 0.59640 0.46470 0.08000
C 	C 	0.53448 0.56358 0.50306 0.03900
C 	C 	0.56394 0.53350 0.50397 -0.10500
H 	H 	0.58420 0.53330 0.48440 0.06800
O 	O 	0.53334 0.78179 0.19957 -0.40400
O 	O 	0.46425 0.78198 0.19990 -0.41400
C 	C 	0.49803 0.78943 0.18632 0.34900
C 	C 	0.49906 0.81706 0.14854 -0.07200
C 	C 	0.53285 0.82840 0.13237 -0.01700
H 	H 	0.55710 0.81960 0.14380 0.05500
C 	C 	0.53423 0.85440 0.09710 -0.02000
C 	C 	0.49793 0.86797 0.08134 0.07800
C 	C 	0.46181 0.85481 0.09763 -0.11900
H 	H 	0.43750 0.86260 0.08570 0.07600
C 	C 	0.46138 0.82967 0.13214 0.02000
H 	H 	0.43700 0.82160 0.14380 0.04000
C 	C 	0.57102 0.86693 0.07877 -0.02600
H 	H 	0.59560 0.85760 0.08900 0.04000
C 	C 	0.57072 0.89244 0.04650 -0.08500
H 	H 	0.59510 0.90050 0.03500 0.06000
C 	C 	0.53400 0.90685 0.03022 0.04400
C 	C 	0.49927 0.89464 0.04660 -0.13200
H 	H 	0.47500 0.90360 0.03530 0.08000
C 	C 	0.53448 0.93642 0.99694 0.03900
C 	C 	0.56394 0.96650 0.99603 -0.10500
H 	H 	0.58420 0.96670 0.01560 0.06800
O 	O 	0.96666 0.78179 0.30043 -0.40400
O 	O 	0.03575 0.78198 0.30010 -0.41400
C 	C 	0.00197 0.78943 0.31368 0.34900
C 	C 	0.00094 0.81706 0.35146 -0.07200
C 	C 	0.96715 0.82840 0.36763 -0.01700
H 	H 	0.94290 0.81960 0.35620 0.05500
C 	C 	0.96577 0.85440 0.40290 -0.02000
C 	C 	0.00207 0.86797 0.41866 0.07800
C 	C 	0.03819 0.85481 0.40237 -0.11900
H 	H 	0.06250 0.86260 0.41430 0.07600
C 	C 	0.03862 0.82967 0.36786 0.02000
H 	H 	0.06300 0.82160 0.35620 0.04000
C 	C 	0.92898 0.86693 0.42123 -0.02600
H 	H 	0.90440 0.85760 0.41100 0.04000
C 	C 	0.92928 0.89244 0.45350 -0.08500
H 	H 	0.90490 0.90050 0.46500 0.06000
C 	C 	0.96600 0.90685 0.46978 0.04400
C 	C 	0.00073 0.89464 0.45340 -0.13200
H 	H 	0.02500 0.90360 0.46470 0.08000
C 	C 	0.96552 0.93642 0.50306 0.03800
C 	C 	0.93606 0.96650 0.50397 -0.10500
H 	H 	0.91580 0.96670 0.48440 0.06800
O 	O 	0.71821 0.30043 0.53334 -0.40400
O 	O 	0.71802 0.30010 0.46425 -0.41400
C 	C 	0.71057 0.31368 0.49803 0.34900
C 	C 	0.68294 0.35146 0.49906 -0.07200
C 	C 	0.67160 0.36763 0.53285 -0.01700
H 	H 	0.68040 0.35620 0.55710 0.05500
C 	C 	0.64560 0.40290 0.53423 -0.02000
C 	C 	0.63203 0.41866 0.49793 0.07800
C 	C 	0.64519 0.40237 0.46181 -0.11900
H 	H 	0.63740 0.41430 0.43750 0.07600
C 	C 	0.67033 0.36786 0.46138 0.02000
H 	H 	0.67840 0.35620 0.43700 0.04000
C 	C 	0.63307 0.42123 0.57102 -0.02600
H 	H 	0.64240 0.41100 0.59560 0.04000
C 	C 	0.60756 0.45350 0.57072 -0.08500
H 	H 	0.59950 0.46500 0.59510 0.06000
C 	C 	0.59315 0.46978 0.53400 0.04400
C 	C 	0.60536 0.45340 0.49927 -0.13200
H 	H 	0.59640 0.46470 0.47500 0.08000
C 	C 	0.56358 0.50306 0.53448 0.03900
C 	C 	0.53350 0.50397 0.56394 -0.10500
H 	H 	0.53330 0.48440 0.58420 0.06800
O 	O 	0.71821 0.19957 0.96666 -0.40400
O 	O 	0.71802 0.19990 0.03575 -0.41400
C 	C 	0.71057 0.18632 0.00197 0.34900
C 	C 	0.68294 0.14854 0.00094 -0.07200
C 	C 	0.67160 0.13237 0.96715 -0.01700
H 	H 	0.68040 0.14380 0.94290 0.05500
C 	C 	0.64560 0.09710 0.96577 -0.02000
C 	C 	0.63203 0.08134 0.00207 0.07800
C 	C 	0.64519 0.09763 0.03819 -0.11900
H 	H 	0.63740 0.08570 0.06250 0.07600
C 	C 	0.67033 0.13214 0.03862 0.02000
H 	H 	0.67840 0.14380 0.06300 0.04000
C 	C 	0.63307 0.07877 0.92898 -0.02600
H 	H 	0.64240 0.08900 0.90440 0.04000
C 	C 	0.60756 0.04650 0.92928 -0.08500
H 	H 	0.59950 0.03500 0.90490 0.06000
C 	C 	0.59315 0.03022 0.96600 0.04400
C 	C 	0.60536 0.04660 0.00073 -0.13200
H 	H 	0.59640 0.03530 0.02500 0.08000
C 	C 	0.56358 0.99694 0.96552 0.03900
C 	C 	0.53350 0.99603 0.93606 -0.10500
H 	H 	0.53330 0.01560 0.91580 0.06800
O 	O 	0.78179 0.30043 0.96666 -0.40400
O 	O 	0.78198 0.30010 0.03575 -0.41400
C 	C 	0.78943 0.31368 0.00197 0.34900
C 	C 	0.81706 0.35146 0.00094 -0.07200
C 	C 	0.82840 0.36763 0.96715 -0.01700
H 	H 	0.81960 0.35620 0.94290 0.05500
C 	C 	0.85440 0.40290 0.96577 -0.02000
C 	C 	0.86797 0.41866 0.00207 0.07800
C 	C 	0.85481 0.40237 0.03819 -0.11900
H 	H 	0.86260 0.41430 0.06250 0.07600
C 	C 	0.82967 0.36786 0.03862 0.02000
H 	H 	0.82160 0.35620 0.06300 0.04000
C 	C 	0.86693 0.42123 0.92898 -0.02600
H 	H 	0.85760 0.41100 0.90440 0.04000
C 	C 	0.89244 0.45350 0.92928 -0.08500
H 	H 	0.90050 0.46500 0.90490 0.06000
C 	C 	0.90685 0.46978 0.96600 0.04400
C 	C 	0.89464 0.45340 0.00073 -0.13200
H 	H 	0.90360 0.46470 0.02500 0.08000
C 	C 	0.93642 0.50306 0.96552 0.03800
C 	C 	0.96650 0.50397 0.93606 -0.10500
H 	H 	0.96670 0.48440 0.91580 0.06800
O 	O 	0.78179 0.19957 0.53334 -0.40400
O 	O 	0.78198 0.19990 0.46425 -0.41400
C 	C 	0.78943 0.18632 0.49803 0.34900
C 	C 	0.81706 0.14854 0.49906 -0.07200
C 	C 	0.82840 0.13237 0.53285 -0.01700
H 	H 	0.81960 0.14380 0.55710 0.05500
C 	C 	0.85440 0.09710 0.53423 -0.02000
C 	C 	0.86797 0.08134 0.49793 0.07800
C 	C 	0.85481 0.09763 0.46181 -0.11900
H 	H 	0.86260 0.08570 0.43750 0.07600
C 	C 	0.82967 0.13214 0.46138 0.02000
H 	H 	0.82160 0.14380 0.43700 0.04000
C 	C 	0.86693 0.07877 0.57102 -0.02600
H 	H 	0.85760 0.08900 0.59560 0.04000
C 	C 	0.89244 0.04650 0.57072 -0.08500
H 	H 	0.90050 0.03500 0.59510 0.06000
C 	C 	0.90685 0.03022 0.53400 0.04400
C 	C 	0.89464 0.04660 0.49927 -0.13200
H 	H 	0.90360 0.03530 0.47500 0.08000
C 	C 	0.93642 0.99694 0.53448 0.03900
C 	C 	0.96650 0.99603 0.56394 -0.10500
H 	H 	0.96670 0.01560 0.58420 0.06800
O 	O 	0.03334 0.69957 0.28179 -0.40400
O 	O 	0.96425 0.69990 0.28198 -0.41400
C 	C 	0.99803 0.68632 0.28943 0.34900
C 	C 	0.99906 0.64854 0.31706 -0.07200
C 	C 	0.03285 0.63237 0.32840 -0.01700
H 	H 	0.05710 0.64380 0.31960 0.05500
C 	C 	0.03423 0.59710 0.35440 -0.02000
C 	C 	0.99793 0.58134 0.36797 0.07800
C 	C 	0.96181 0.59763 0.35481 -0.11900
H 	H 	0.93750 0.58570 0.36260 0.07600
C 	C 	0.96138 0.63214 0.32967 0.02000
H 	H 	0.93700 0.64380 0.32160 0.04000
C 	C 	0.07102 0.57877 0.36693 -0.02600
H 	H 	0.09560 0.58900 0.35760 0.04000
C 	C 	0.07072 0.54650 0.39244 -0.08500
H 	H 	0.09510 0.53500 0.40050 0.06000
C 	C 	0.03400 0.53022 0.40685 0.04400
C 	C 	0.99927 0.54660 0.39464 -0.13200
H 	H 	0.97500 0.53530 0.40360 0.08000
C 	C 	0.03448 0.49694 0.43642 0.03900
C 	C 	0.06394 0.49603 0.46650 -0.10500
H 	H 	0.08420 0.51560 0.46670 0.06800
O 	O 	0.46666 0.80043 0.28179 -0.40400
O 	O 	0.53575 0.80010 0.28198 -0.41400
C 	C 	0.50197 0.81368 0.28943 0.34900
C 	C 	0.50094 0.85146 0.31706 -0.07200
C 	C 	0.46715 0.86763 0.32840 -0.01700
H 	H 	0.44290 0.85620 0.31960 0.05500
C 	C 	0.46577 0.90290 0.35440 -0.02000
C 	C 	0.50207 0.91866 0.36797 0.07800
C 	C 	0.53819 0.90237 0.35481 -0.11900
H 	H 	0.56250 0.91430 0.36260 0.07600
C 	C 	0.53862 0.86786 0.32967 0.02000
H 	H 	0.56300 0.85620 0.32160 0.04000
C 	C 	0.42898 0.92123 0.36693 -0.02600
H 	H 	0.40440 0.91100 0.35760 0.04000
C 	C 	0.42928 0.95350 0.39244 -0.08500
H 	H 	0.40490 0.96500 0.40050 0.06000
C 	C 	0.46600 0.96978 0.40685 0.04400
C 	C 	0.50073 0.95340 0.39464 -0.13200
H 	H 	0.52500 0.96470 0.40360 0.08000
C 	C 	0.46552 0.00306 0.43642 0.03900
C 	C 	0.43606 0.00397 0.46650 -0.10500
H 	H 	0.41580 0.98440 0.46670 0.06800
O 	O 	0.46666 0.69957 0.21821 -0.40400
O 	O 	0.53575 0.69990 0.21802 -0.41400
C 	C 	0.50197 0.68632 0.21057 0.34900
C 	C 	0.50094 0.64854 0.18294 -0.07200
C 	C 	0.46715 0.63237 0.17160 -0.01700
H 	H 	0.44290 0.64380 0.18040 0.05500
C 	C 	0.46577 0.59710 0.14560 -0.02000
C 	C 	0.50207 0.58134 0.13203 0.07800
C 	C 	0.53819 0.59763 0.14519 -0.11900
H 	H 	0.56250 0.58570 0.13740 0.07600
C 	C 	0.53862 0.63214 0.17033 0.02000
H 	H 	0.56300 0.64380 0.17840 0.04000
C 	C 	0.42898 0.57877 0.13307 -0.02600
H 	H 	0.40440 0.58900 0.14240 0.04000
C 	C 	0.42928 0.54650 0.10756 -0.08500
H 	H 	0.40490 0.53500 0.09950 0.06000
C 	C 	0.46600 0.53022 0.09315 0.04400
C 	C 	0.50073 0.54660 0.10536 -0.13200
H 	H 	0.52500 0.53530 0.09640 0.08000
C 	C 	0.46552 0.49694 0.06358 0.03900
C 	C 	0.43606 0.49603 0.03350 -0.10500
H 	H 	0.41580 0.51560 0.03330 0.06800
O 	O 	0.03334 0.80043 0.21821 -0.40400
O 	O 	0.96425 0.80010 0.21802 -0.41400
C 	C 	0.99803 0.81368 0.21057 0.34900
C 	C 	0.99906 0.85146 0.18294 -0.07200
C 	C 	0.03285 0.86763 0.17160 -0.01700
H 	H 	0.05710 0.85620 0.18040 0.05500
C 	C 	0.03423 0.90290 0.14560 -0.02000
C 	C 	0.99793 0.91866 0.13203 0.07800
C 	C 	0.96181 0.90237 0.14519 -0.11900
H 	H 	0.93750 0.91430 0.13740 0.07600
C 	C 	0.96138 0.86786 0.17033 0.02000
H 	H 	0.93700 0.85620 0.17840 0.04000
C 	C 	0.07102 0.92123 0.13307 -0.02600
H 	H 	0.09560 0.91100 0.14240 0.04000
C 	C 	0.07072 0.95350 0.10756 -0.08500
H 	H 	0.09510 0.96500 0.09950 0.06000
C 	C 	0.03400 0.96978 0.09315 0.04400
C 	C 	0.99927 0.95340 0.10536 -0.13200
H 	H 	0.97500 0.96470 0.09640 0.08000
C 	C 	0.03448 0.00306 0.06358 0.03900
C 	C 	0.06394 0.00397 0.03350 -0.10500
H 	H 	0.08420 0.98440 0.03330 0.06800
O 	O 	0.28179 0.03334 0.69957 -0.40400
O 	O 	0.28198 0.96425 0.69990 -0.41400
C 	C 	0.28943 0.99803 0.68632 0.34900
C 	C 	0.31706 0.99906 0.64854 -0.07200
C 	C 	0.32840 0.03285 0.63237 -0.01700
H 	H 	0.31960 0.05710 0.64380 0.05500
C 	C 	0.35440 0.03423 0.59710 -0.02000
C 	C 	0.36797 0.99793 0.58134 0.07800
C 	C 	0.35481 0.96181 0.59763 -0.11900
H 	H 	0.36260 0.93750 0.58570 0.07600
C 	C 	0.32967 0.96138 0.63214 0.02000
H 	H 	0.32160 0.93700 0.64380 0.04000
C 	C 	0.36693 0.07102 0.57877 -0.02600
H 	H 	0.35760 0.09560 0.58900 0.04000
C 	C 	0.39244 0.07072 0.54650 -0.08500
H 	H 	0.40050 0.09510 0.53500 0.06000
C 	C 	0.40685 0.03400 0.53022 0.04400
C 	C 	0.39464 0.99927 0.54660 -0.13200
H 	H 	0.40360 0.97500 0.53530 0.08000
C 	C 	0.43642 0.03448 0.49694 0.03900
C 	C 	0.46650 0.06394 0.49603 -0.10500
H 	H 	0.46670 0.08420 0.51560 0.06800
O 	O 	0.28179 0.46666 0.80043 -0.40400
O 	O 	0.28198 0.53575 0.80010 -0.41400
C 	C 	0.28943 0.50197 0.81368 0.34900
C 	C 	0.31706 0.50094 0.85146 -0.07200
C 	C 	0.32840 0.46715 0.86763 -0.01700
H 	H 	0.31960 0.44290 0.85620 0.05500
C 	C 	0.35440 0.46577 0.90290 -0.02000
C 	C 	0.36797 0.50207 0.91866 0.07800
C 	C 	0.35481 0.53819 0.90237 -0.11900
H 	H 	0.36260 0.56250 0.91430 0.07600
C 	C 	0.32967 0.53862 0.86786 0.02000
H 	H 	0.32160 0.56300 0.85620 0.04000
C 	C 	0.36693 0.42898 0.92123 -0.02600
H 	H 	0.35760 0.40440 0.91100 0.04000
C 	C 	0.39244 0.42928 0.95350 -0.08500
H 	H 	0.40050 0.40490 0.96500 0.06000
C 	C 	0.40685 0.46600 0.96978 0.04400
C 	C 	0.39464 0.50073 0.95340 -0.13200
H 	H 	0.40360 0.52500 0.96470 0.08000
C 	C 	0.43642 0.46552 0.00306 0.03900
C 	C 	0.46650 0.43606 0.00397 -0.10500
H 	H 	0.46670 0.41580 0.98440 0.06800
O 	O 	0.21821 0.46666 0.69957 -0.40400
O 	O 	0.21802 0.53575 0.69990 -0.41400
C 	C 	0.21057 0.50197 0.68632 0.34900
C 	C 	0.18294 0.50094 0.64854 -0.07200
C 	C 	0.17160 0.46715 0.63237 -0.01700
H 	H 	0.18040 0.44290 0.64380 0.05500
C 	C 	0.14560 0.46577 0.59710 -0.02000
C 	C 	0.13203 0.50207 0.58134 0.07800
C 	C 	0.14519 0.53819 0.59763 -0.11900
H 	H 	0.13740 0.56250 0.58570 0.07600
C 	C 	0.17033 0.53862 0.63214 0.02000
H 	H 	0.17840 0.56300 0.64380 0.04000
C 	C 	0.13307 0.42898 0.57877 -0.02600
H 	H 	0.14240 0.40440 0.58900 0.04000
C 	C 	0.10756 0.42928 0.54650 -0.08500
H 	H 	0.09950 0.40490 0.53500 0.06000
C 	C 	0.09315 0.46600 0.53022 0.04400
C 	C 	0.10536 0.50073 0.54660 -0.13200
H 	H 	0.09640 0.52500 0.53530 0.08000
C 	C 	0.06358 0.46552 0.49694 0.03900
C 	C 	0.03350 0.43606 0.49603 -0.10500
H 	H 	0.03330 0.41580 0.51560 0.06800
O 	O 	0.21821 0.03334 0.80043 -0.40400
O 	O 	0.21802 0.96425 0.80010 -0.41400
C 	C 	0.21057 0.99803 0.81368 0.34900
C 	C 	0.18294 0.99906 0.85146 -0.07200
C 	C 	0.17160 0.03285 0.86763 -0.01700
H 	H 	0.18040 0.05710 0.85620 0.05500
C 	C 	0.14560 0.03423 0.90290 -0.02000
C 	C 	0.13203 0.99793 0.91866 0.07800
C 	C 	0.14519 0.96181 0.90237 -0.11900
H 	H 	0.13740 0.93750 0.91430 0.07600
C 	C 	0.17033 0.96138 0.86786 0.02000
H 	H 	0.17840 0.93700 0.85620 0.04000
C 	C 	0.13307 0.07102 0.92123 -0.02600
H 	H 	0.14240 0.09560 0.91100 0.04000
C 	C 	0.10756 0.07072 0.95350 -0.08500
H 	H 	0.09950 0.09510 0.96500 0.06000
C 	C 	0.09315 0.03400 0.96978 0.04400
C 	C 	0.10536 0.99927 0.95340 -0.13200
H 	H 	0.09640 0.97500 0.96470 0.08000
C 	C 	0.06358 0.03448 0.00306 0.03900
C 	C 	0.03350 0.06394 0.00397 -0.10500
H 	H 	0.03330 0.08420 0.98440 0.06800
O 	O 	0.69957 0.28179 0.03334 -0.40400
O 	O 	0.69990 0.28198 0.96425 -0.41400
C 	C 	0.68632 0.28943 0.99803 0.34900
C 	C 	0.64854 0.31706 0.99906 -0.07200
C 	C 	0.63237 0.32840 0.03285 -0.01700
H 	H 	0.64380 0.31960 0.05710 0.05500
C 	C 	0.59710 0.35440 0.03423 -0.02000
C 	C 	0.58134 0.36797 0.99793 0.07800
C 	C 	0.59763 0.35481 0.96181 -0.11900
H 	H 	0.58570 0.36260 0.93750 0.07600
C 	C 	0.63214 0.32967 0.96138 0.02000
H 	H 	0.64380 0.32160 0.93700 0.04000
C 	C 	0.57877 0.36693 0.07102 -0.02600
H 	H 	0.58900 0.35760 0.09560 0.04000
C 	C 	0.54650 0.39244 0.07072 -0.08500
H 	H 	0.53500 0.40050 0.09510 0.06000
C 	C 	0.53022 0.40685 0.03400 0.04400
C 	C 	0.54660 0.39464 0.99927 -0.13200
H 	H 	0.53530 0.40360 0.97500 0.08000
C 	C 	0.49694 0.43642 0.03448 0.03900
C 	C 	0.49603 0.46650 0.06394 -0.10500
H 	H 	0.51560 0.46670 0.08420 0.06800
O 	O 	0.80043 0.28179 0.46666 -0.40400
O 	O 	0.80010 0.28198 0.53575 -0.41400
C 	C 	0.81368 0.28943 0.50197 0.34900
C 	C 	0.85146 0.31706 0.50094 -0.07200
C 	C 	0.86763 0.32840 0.46715 -0.01700
H 	H 	0.85620 0.31960 0.44290 0.05500
C 	C 	0.90290 0.35440 0.46577 -0.02000
C 	C 	0.91866 0.36797 0.50207 0.07800
C 	C 	0.90237 0.35481 0.53819 -0.11900
H 	H 	0.91430 0.36260 0.56250 0.07600
C 	C 	0.86786 0.32967 0.53862 0.02000
H 	H 	0.85620 0.32160 0.56300 0.04000
C 	C 	0.92123 0.36693 0.42898 -0.02600
H 	H 	0.91100 0.35760 0.40440 0.04000
C 	C 	0.95350 0.39244 0.42928 -0.08500
H 	H 	0.96500 0.40050 0.40490 0.06000
C 	C 	0.96978 0.40685 0.46600 0.04400
C 	C 	0.95340 0.39464 0.50073 -0.13200
H 	H 	0.96470 0.40360 0.52500 0.08000
C 	C 	0.00306 0.43642 0.46552 0.03900
C 	C 	0.00397 0.46650 0.43606 -0.10500
H 	H 	0.98440 0.46670 0.41580 0.06800
O 	O 	0.69957 0.21821 0.46666 -0.40400
O 	O 	0.69990 0.21802 0.53575 -0.41400
C 	C 	0.68632 0.21057 0.50197 0.34900
C 	C 	0.64854 0.18294 0.50094 -0.07200
C 	C 	0.63237 0.17160 0.46715 -0.01700
H 	H 	0.64380 0.18040 0.44290 0.05500
C 	C 	0.59710 0.14560 0.46577 -0.02000
C 	C 	0.58134 0.13203 0.50207 0.07800
C 	C 	0.59763 0.14519 0.53819 -0.11900
H 	H 	0.58570 0.13740 0.56250 0.07600
C 	C 	0.63214 0.17033 0.53862 0.02000
H 	H 	0.64380 0.17840 0.56300 0.04000
C 	C 	0.57877 0.13307 0.42898 -0.02600
H 	H 	0.58900 0.14240 0.40440 0.04000
C 	C 	0.54650 0.10756 0.42928 -0.08500
H 	H 	0.53500 0.09950 0.40490 0.06000
C 	C 	0.53022 0.09315 0.46600 0.04400
C 	C 	0.54660 0.10536 0.50073 -0.13200
H 	H 	0.53530 0.09640 0.52500 0.08000
C 	C 	0.49694 0.06358 0.46552 0.03900
C 	C 	0.49603 0.03350 0.43606 -0.10500
H 	H 	0.51560 0.03330 0.41580 0.06800
O 	O 	0.80043 0.21821 0.03334 -0.40400
O 	O 	0.80010 0.21802 0.96425 -0.41400
C 	C 	0.81368 0.21057 0.99803 0.34900
C 	C 	0.85146 0.18294 0.99906 -0.07200
C 	C 	0.86763 0.17160 0.03285 -0.01700
H 	H 	0.85620 0.18040 0.05710 0.05500
C 	C 	0.90290 0.14560 0.03423 -0.02000
C 	C 	0.91866 0.13203 0.99793 0.07800
C 	C 	0.90237 0.14519 0.96181 -0.11900
H 	H 	0.91430 0.13740 0.93750 0.07600
C 	C 	0.86786 0.17033 0.96138 0.02000
H 	H 	0.85620 0.17840 0.93700 0.04000
C 	C 	0.92123 0.13307 0.07102 -0.02600
H 	H 	0.91100 0.14240 0.09560 0.04000
C 	C 	0.95350 0.10756 0.07072 -0.08500
H 	H 	0.96500 0.09950 0.09510 0.06000
C 	C 	0.96978 0.09315 0.03400 0.04400
C 	C 	0.95340 0.10536 0.99927 -0.13200
H 	H 	0.96470 0.09640 0.97500 0.08000
C 	C 	0.00306 0.06358 0.03448 0.03900
C 	C 	0.00397 0.03350 0.06394 -0.10500
H 	H 	0.98440 0.03330 0.08420 0.06800
Cu	Cu	0.25000 0.96026 0.75000 0.89700
Cu	Cu	0.25000 0.53974 0.75000 0.89700
Cu	Cu	0.96026 0.75000 0.25000 0.89700
Cu	Cu	0.53974 0.75000 0.25000 0.89700
Cu	Cu	0.75000 0.25000 0.53974 0.89700
Cu	Cu	0.75000 0.25000 0.96026 0.89700
Cu	Cu	0.03974 0.75000 0.25000 0.89700
Cu	Cu	0.46026 0.75000 0.25000 0.89700
Cu	Cu	0.25000 0.03974 0.75000 0.89700
Cu	Cu	0.25000 0.46026 0.75000 0.89700
Cu	Cu	0.75000 0.25000 0.03974 0.89700
Cu	Cu	0.75000 0.25000 0.46026 0.89700
