data_crystal

_cell_length_a 33.51180
_cell_length_b 33.51180
_cell_length_c 33.51180
_cell_angle_alpha 90.00000
_cell_angle_beta  90.00000
_cell_angle_gamma 90.00000

_symmetry_space_group_name_	'P 1'
_symmetry_space_group_name_H-M	'P 1'

loop_
_symmetry_equiv_pos_as_xyz
  x,y,z

loop_
_atom_site_label
_atom_site_type_symbol
_atom_site_fract_x
_atom_site_fract_y
_atom_site_fract_z
_atom_site_charge
Mn	Mn	0.95106 0.25000 0.75000 1.25600
Mn	Mn	0.75000 0.54894 0.25000 1.25600
Mn	Mn	0.45106 0.25000 0.75000 1.25600
Mn	Mn	0.25000 0.75000 0.45106 1.25600
Mn	Mn	0.04894 0.25000 0.75000 1.25600
Mn	Mn	0.25000 0.75000 0.95106 1.25600
Mn	Mn	0.75000 0.95106 0.25000 1.25600
Mn	Mn	0.75000 0.04894 0.25000 1.25600
Mn	Mn	0.75000 0.45106 0.25000 1.25600
Mn	Mn	0.25000 0.75000 0.04894 1.25600
Mn	Mn	0.25000 0.75000 0.54894 1.25600
Mn	Mn	0.54894 0.25000 0.75000 1.25600
H 	H 	0.40900 0.86620 0.90040 0.03000
H 	H 	0.32380 0.64650 0.94580 0.00600
H 	H 	0.40910 0.53640 0.09730 0.05900
H 	H 	0.82550 0.93540 0.35690 0.02800
H 	H 	0.02310 0.03950 0.59430 0.08100
H 	H 	0.35350 0.67620 0.44580 0.00600
H 	H 	0.52740 0.58280 0.48520 0.06600
H 	H 	0.96050 0.52310 0.40570 0.08100
H 	H 	0.02740 0.51480 0.41720 0.06600
H 	H 	0.53950 0.52310 0.09430 0.08100
H 	H 	0.01480 0.52740 0.91720 0.06600
H 	H 	0.59100 0.09960 0.36620 0.03000
H 	H 	0.46360 0.59090 0.59730 0.05900
H 	H 	0.51480 0.08280 0.47260 0.06600
H 	H 	0.08920 0.63820 0.05740 0.08400
H 	H 	0.03640 0.90910 0.59730 0.05900
H 	H 	0.03950 0.90570 0.47690 0.08100
H 	H 	0.59430 0.47690 0.46050 0.08100
H 	H 	0.05740 0.41080 0.86180 0.08400
H 	H 	0.93540 0.14310 0.67450 0.02800
H 	H 	0.44580 0.35350 0.67620 0.00600
H 	H 	0.64650 0.94580 0.32380 0.00600
H 	H 	0.40910 0.96360 0.40270 0.05900
H 	H 	0.36180 0.91080 0.55740 0.08400
H 	H 	0.09730 0.40910 0.53640 0.05900
H 	H 	0.86620 0.90040 0.40900 0.03000
H 	H 	0.13820 0.58920 0.55740 0.08400
H 	H 	0.40270 0.40910 0.96360 0.05900
H 	H 	0.64310 0.43540 0.17450 0.02800
H 	H 	0.13820 0.91080 0.94260 0.08400
H 	H 	0.58920 0.55740 0.13820 0.08400
H 	H 	0.14310 0.67450 0.93540 0.02800
H 	H 	0.67620 0.05420 0.14650 0.00600
H 	H 	0.03950 0.59430 0.02310 0.08100
H 	H 	0.09960 0.13380 0.90900 0.03000
H 	H 	0.86180 0.44260 0.08920 0.08400
H 	H 	0.02740 0.98520 0.08280 0.06500
H 	H 	0.94260 0.36180 0.58920 0.08400
H 	H 	0.97260 0.58280 0.01480 0.06500
H 	H 	0.40900 0.63380 0.59960 0.03000
H 	H 	0.59730 0.46360 0.59090 0.05900
H 	H 	0.67450 0.93540 0.14310 0.02800
H 	H 	0.90040 0.40900 0.86620 0.03000
H 	H 	0.47260 0.51480 0.08280 0.06600
H 	H 	0.90570 0.47690 0.03950 0.08100
H 	H 	0.46360 0.90910 0.90270 0.05900
H 	H 	0.06460 0.17450 0.85690 0.02800
H 	H 	0.85350 0.55420 0.32380 0.00600
H 	H 	0.09430 0.96050 0.97690 0.08100
H 	H 	0.82550 0.56460 0.14310 0.02800
H 	H 	0.97690 0.09430 0.96050 0.08100
H 	H 	0.05740 0.08920 0.63820 0.08400
H 	H 	0.35690 0.67450 0.56460 0.02800
H 	H 	0.59430 0.02310 0.03950 0.08100
H 	H 	0.55740 0.36180 0.91080 0.08400
H 	H 	0.56460 0.35690 0.67450 0.02800
H 	H 	0.91080 0.94260 0.13820 0.08400
H 	H 	0.46050 0.59430 0.47690 0.08100
H 	H 	0.59960 0.40900 0.63380 0.03000
H 	H 	0.90900 0.40040 0.36620 0.03000
H 	H 	0.43540 0.32550 0.85690 0.02800
H 	H 	0.96050 0.97690 0.09430 0.08100
H 	H 	0.85350 0.94580 0.17620 0.00600
H 	H 	0.59090 0.90270 0.03640 0.05900
H 	H 	0.02310 0.46050 0.90570 0.08100
H 	H 	0.90910 0.59730 0.03640 0.05900
H 	H 	0.94580 0.17620 0.85350 0.00500
H 	H 	0.13380 0.90900 0.09960 0.02900
H 	H 	0.17450 0.85690 0.06460 0.02700
H 	H 	0.09730 0.09090 0.96360 0.05800
H 	H 	0.86620 0.59960 0.09100 0.02900
H 	H 	0.64650 0.55420 0.17620 0.00500
H 	H 	0.47690 0.46050 0.59430 0.08000
H 	H 	0.63820 0.05740 0.08920 0.08300
H 	H 	0.55740 0.13820 0.58920 0.08300
H 	H 	0.59730 0.03640 0.90910 0.05800
H 	H 	0.13380 0.59100 0.40040 0.02900
H 	H 	0.09430 0.53950 0.52310 0.08000
H 	H 	0.14650 0.82380 0.44580 0.00500
H 	H 	0.63380 0.59960 0.40900 0.02900
H 	H 	0.32550 0.64310 0.06460 0.02700
H 	H 	0.03640 0.59090 0.90270 0.05800
H 	H 	0.97260 0.91720 0.48520 0.06500
H 	H 	0.14310 0.82550 0.56460 0.02700
H 	H 	0.48520 0.97260 0.91720 0.06500
H 	H 	0.17620 0.85350 0.94580 0.00500
H 	H 	0.67620 0.44580 0.35350 0.00500
H 	H 	0.17620 0.64650 0.55420 0.00500
H 	H 	0.56460 0.14310 0.82550 0.02700
H 	H 	0.90270 0.46360 0.90910 0.05800
H 	H 	0.32380 0.85350 0.55420 0.00500
H 	H 	0.44260 0.08920 0.86180 0.08300
H 	H 	0.51480 0.41720 0.02740 0.06500
H 	H 	0.90040 0.09100 0.63380 0.02900
H 	H 	0.91720 0.01480 0.52740 0.06500
H 	H 	0.59100 0.40040 0.13380 0.02900
H 	H 	0.01480 0.97260 0.58280 0.06400
H 	H 	0.96360 0.09730 0.09090 0.05800
H 	H 	0.44580 0.14650 0.82380 0.00500
H 	H 	0.14650 0.67620 0.05420 0.00500
H 	H 	0.63380 0.90040 0.09100 0.02900
H 	H 	0.90270 0.03640 0.59090 0.05800
H 	H 	0.05420 0.35350 0.82380 0.00500
H 	H 	0.36180 0.58920 0.94260 0.08300
H 	H 	0.86180 0.05740 0.41080 0.08300
H 	H 	0.55420 0.17620 0.64650 0.00500
H 	H 	0.98520 0.41720 0.47260 0.06500
H 	H 	0.55420 0.32380 0.85350 0.00500
H 	H 	0.36620 0.90900 0.40040 0.02900
H 	H 	0.52740 0.91720 0.01480 0.06500
H 	H 	0.85690 0.43540 0.32550 0.02700
H 	H 	0.98520 0.08280 0.02740 0.06400
H 	H 	0.96360 0.40270 0.40910 0.05800
H 	H 	0.91080 0.55740 0.36180 0.08300
H 	H 	0.09100 0.86620 0.59960 0.02900
H 	H 	0.09090 0.96360 0.09730 0.05800
H 	H 	0.47690 0.03950 0.90570 0.08000
H 	H 	0.44260 0.41080 0.63820 0.08300
H 	H 	0.41720 0.02740 0.51480 0.06500
H 	H 	0.09090 0.53640 0.40270 0.05800
H 	H 	0.40040 0.13380 0.59100 0.02900
H 	H 	0.52310 0.40570 0.96050 0.08000
H 	H 	0.82380 0.44580 0.14650 0.00500
H 	H 	0.94580 0.32380 0.64650 0.00500
H 	H 	0.90910 0.90270 0.46360 0.05800
H 	H 	0.58280 0.48520 0.52740 0.06500
H 	H 	0.91720 0.48520 0.97260 0.06500
H 	H 	0.58920 0.94260 0.36180 0.08300
H 	H 	0.40570 0.96050 0.52310 0.08000
H 	H 	0.08280 0.02740 0.98520 0.06400
H 	H 	0.58280 0.01480 0.97260 0.06400
H 	H 	0.82380 0.05420 0.35350 0.00500
H 	H 	0.36620 0.59100 0.09960 0.02900
H 	H 	0.67450 0.56460 0.35690 0.02700
H 	H 	0.46050 0.90570 0.02310 0.08000
H 	H 	0.94260 0.13820 0.91080 0.08300
H 	H 	0.41720 0.47260 0.98520 0.06500
H 	H 	0.47260 0.98520 0.41720 0.06500
H 	H 	0.08280 0.47260 0.51480 0.06500
H 	H 	0.40570 0.53950 0.97690 0.08000
H 	H 	0.06460 0.32550 0.64310 0.02700
H 	H 	0.09960 0.36620 0.59100 0.02900
H 	H 	0.40040 0.36620 0.90900 0.02900
H 	H 	0.35690 0.82550 0.93540 0.02700
H 	H 	0.08920 0.86180 0.44260 0.08300
H 	H 	0.40270 0.09090 0.53640 0.05800
H 	H 	0.52310 0.09430 0.53950 0.08000
H 	H 	0.41080 0.86180 0.05740 0.08300
H 	H 	0.48520 0.52740 0.58280 0.06500
H 	H 	0.85690 0.06460 0.17450 0.02700
H 	H 	0.32550 0.85690 0.43540 0.02700
H 	H 	0.09100 0.63380 0.90040 0.02900
H 	H 	0.93540 0.35690 0.82550 0.02700
H 	H 	0.17450 0.64310 0.43540 0.02700
H 	H 	0.97690 0.40570 0.53950 0.08000
H 	H 	0.64310 0.06460 0.32550 0.02700
H 	H 	0.90900 0.09960 0.13380 0.02900
H 	H 	0.53640 0.09730 0.40910 0.05800
H 	H 	0.41080 0.63820 0.44260 0.08300
H 	H 	0.35350 0.82380 0.05420 0.00500
H 	H 	0.63820 0.44260 0.41080 0.08300
H 	H 	0.59090 0.59730 0.46360 0.05800
H 	H 	0.05420 0.14650 0.67620 0.00500
H 	H 	0.90570 0.02310 0.46050 0.08000
H 	H 	0.53950 0.97690 0.40570 0.08000
H 	H 	0.53640 0.40270 0.09090 0.05800
H 	H 	0.59960 0.09100 0.86620 0.02900
H 	H 	0.43540 0.17450 0.64310 0.02700
C 	C 	0.91097 0.96397 0.46783 0.04300
C 	C 	0.03217 0.58903 0.96397 0.04300
C 	C 	0.39734 0.95017 0.49838 -0.13900
C 	C 	0.92531 0.41940 0.87384 -0.01600
C 	C 	0.49788 0.12900 0.58328 0.09700
C 	C 	0.99373 0.35027 0.82099 -0.14700
C 	C 	0.03994 0.16640 0.86746 0.02700
C 	C 	0.13405 0.66767 0.03055 0.07600
C 	C 	0.56006 0.53373 0.50077 0.03700
C 	C 	0.13405 0.83233 0.46945 0.07600
C 	C 	0.36746 0.66640 0.53994 0.02700
C 	C 	0.85891 0.96086 0.40134 -0.04800
C 	C 	0.31497 0.70634 0.50887 0.42000
C 	C 	0.60047 0.57354 0.45212 -0.09000
C 	C 	0.64973 0.00627 0.32099 -0.14700
C 	C 	0.91672 0.49788 0.37100 0.09700
C 	C 	0.58328 0.49788 0.12900 0.09700
C 	C 	0.81497 0.49113 0.29366 0.42000
C 	C 	0.96086 0.40134 0.85891 -0.04800
C 	C 	0.50887 0.31497 0.70634 0.42000
C 	C 	0.58060 0.42531 0.12616 -0.01600
C 	C 	0.37384 0.91940 0.42531 -0.01600
C 	C 	0.50077 0.56006 0.53373 0.03700
C 	C 	0.57469 0.41940 0.62616 -0.01600
C 	C 	0.49788 0.37100 0.91672 0.09700
C 	C 	0.43994 0.49923 0.03373 0.03700
C 	C 	0.41672 0.62900 0.50212 0.09700
C 	C 	0.50396 0.52891 0.56200 -0.10200
C 	C 	0.39944 0.64415 0.46751 -0.15800
C 	C 	0.66767 0.46945 0.36595 0.07600
C 	C 	0.41672 0.87100 0.99788 0.09700
C 	C 	0.09866 0.64109 0.96086 -0.04800
C 	C 	0.50212 0.41672 0.62900 0.09700
C 	C 	0.41940 0.87384 0.92531 -0.01600
C 	C 	0.08903 0.53217 0.46397 0.04300
C 	C 	0.46397 0.41097 0.96783 0.04300
C 	C 	0.46086 0.35891 0.90134 -0.04800
C 	C 	0.93800 0.99604 0.52891 -0.10200
C 	C 	0.85027 0.49373 0.32099 -0.14700
C 	C 	0.89734 0.99838 0.45017 -0.13900
C 	C 	0.87100 0.50212 0.08328 0.09700
C 	C 	0.86746 0.03994 0.16640 0.02700
C 	C 	0.50396 0.97109 0.93800 -0.10200
C 	C 	0.42531 0.37384 0.91940 -0.01600
C 	C 	0.10047 0.54788 0.42646 -0.09000
C 	C 	0.92646 0.45212 0.89953 -0.09000
C 	C 	0.89953 0.92646 0.45212 -0.09000
C 	C 	0.49373 0.17901 0.64973 -0.14700
C 	C 	0.58060 0.07469 0.37384 -0.01600
C 	C 	0.53217 0.46397 0.08903 0.04300
C 	C 	0.04983 0.60266 0.99838 -0.13900
C 	C 	0.89734 0.50162 0.04983 -0.13900
C 	C 	0.53055 0.16767 0.63405 0.07600
C 	C 	0.04788 0.89953 0.57354 -0.09000
C 	C 	0.33360 0.63254 0.03994 0.02700
C 	C 	0.60056 0.53249 0.14415 -0.15800
C 	C 	0.96751 0.35585 0.60056 -0.15800
C 	C 	0.41940 0.62616 0.57469 -0.01600
C 	C 	0.99373 0.14973 0.67901 -0.14700
C 	C 	0.08903 0.96783 0.03603 0.04300
C 	C 	0.35585 0.60056 0.96751 -0.15800
C 	C 	0.95017 0.00162 0.10266 -0.13900
C 	C 	0.50212 0.08328 0.87100 0.09700
C 	C 	0.03603 0.41097 0.53217 0.04300
C 	C 	0.46627 0.43994 0.00077 0.03700
C 	C 	0.53994 0.36746 0.66640 0.02700
C 	C 	0.00627 0.32099 0.64973 -0.14700
C 	C 	0.03055 0.36595 0.83233 0.07600
C 	C 	0.40134 0.85891 0.96086 -0.04800
C 	C 	0.54788 0.42646 0.10047 -0.09000
C 	C 	0.62616 0.92531 0.08060 -0.01600
C 	C 	0.07469 0.37384 0.58060 -0.01600
C 	C 	0.00396 0.06200 0.02891 -0.10100
C 	C 	0.87100 0.99788 0.41672 0.09700
C 	C 	0.68503 0.00887 0.29366 0.42000
C 	C 	0.53373 0.99923 0.93994 0.03700
C 	C 	0.89953 0.57354 0.04788 -0.09000
C 	C 	0.62616 0.57469 0.41940 -0.01600
C 	C 	0.00887 0.29366 0.68503 0.42000
C 	C 	0.96751 0.14415 0.89944 -0.15800
C 	C 	0.03249 0.39944 0.85585 -0.15800
C 	C 	0.86595 0.53055 0.33233 0.07600
C 	C 	0.64415 0.03249 0.10056 -0.15800
C 	C 	0.50077 0.93994 0.96627 0.03700
C 	C 	0.53994 0.13254 0.83360 0.02700
C 	C 	0.10056 0.64415 0.03249 -0.15800
C 	C 	0.99604 0.97109 0.56200 -0.10200
C 	C 	0.95017 0.49838 0.39734 -0.13900
C 	C 	0.03603 0.08903 0.96783 0.04300
C 	C 	0.54788 0.07354 0.39953 -0.09000
C 	C 	0.99838 0.45017 0.89734 -0.13900
C 	C 	0.91097 0.53603 0.03217 0.04300
C 	C 	0.99113 0.31497 0.79366 0.42000
C 	C 	0.50162 0.04983 0.89734 -0.13900
C 	C 	0.67901 0.99373 0.14973 -0.14700
C 	C 	0.16640 0.86746 0.03994 0.02700
C 	C 	0.29366 0.68503 0.00887 0.42000
C 	C 	0.02891 0.49604 0.43800 -0.10200
C 	C 	0.49373 0.32099 0.85027 -0.14700
C 	C 	0.99788 0.41672 0.87100 0.09700
C 	C 	0.08328 0.87100 0.50212 0.09700
C 	C 	0.83233 0.46945 0.13405 0.07600
C 	C 	0.35891 0.90134 0.46086 -0.04800
C 	C 	0.45212 0.89953 0.92646 -0.09000
C 	C 	0.36595 0.66767 0.46945 0.07600
C 	C 	0.10056 0.85585 0.46751 -0.15800
C 	C 	0.35027 0.82099 0.99373 -0.14700
C 	C 	0.83233 0.03055 0.36595 0.07600
C 	C 	0.56200 0.50396 0.52891 -0.10200
C 	C 	0.70634 0.50887 0.31497 0.42000
C 	C 	0.62900 0.99788 0.08328 0.09700
C 	C 	0.18503 0.70634 0.99113 0.42000
C 	C 	0.49923 0.03373 0.43994 0.03700
C 	C 	0.07469 0.12616 0.91940 -0.01600
C 	C 	0.93994 0.96627 0.50077 0.03700
C 	C 	0.49838 0.39734 0.95017 -0.13900
C 	C 	0.49923 0.46627 0.06006 0.03700
C 	C 	0.83360 0.96006 0.36746 0.02700
C 	C 	0.00212 0.37100 0.58328 0.09700
C 	C 	0.32099 0.64973 0.00627 -0.14700
C 	C 	0.46783 0.91097 0.96397 0.04300
C 	C 	0.03373 0.43994 0.49923 0.03700
C 	C 	0.36746 0.83360 0.96006 0.02700
C 	C 	0.41097 0.96783 0.46397 0.04300
C 	C 	0.52891 0.93800 0.99604 -0.10200
C 	C 	0.92646 0.04788 0.60047 -0.09000
C 	C 	0.96397 0.03217 0.58903 0.04300
C 	C 	0.12616 0.91940 0.07469 -0.01600
C 	C 	0.96945 0.33233 0.63405 0.07600
C 	C 	0.53914 0.09866 0.85891 -0.04800
C 	C 	0.31497 0.79366 0.99113 0.42000
C 	C 	0.02891 0.00396 0.06200 -0.10100
C 	C 	0.08328 0.62900 0.99788 0.09700
C 	C 	0.20634 0.81497 0.00887 0.42000
C 	C 	0.42646 0.39953 0.95212 -0.09000
C 	C 	0.46783 0.58903 0.53603 0.04300
C 	C 	0.56006 0.96627 0.99923 0.03700
C 	C 	0.46945 0.36595 0.66767 0.07600
C 	C 	0.03249 0.10056 0.64415 -0.15800
C 	C 	0.60266 0.50162 0.45017 -0.13900
C 	C 	0.06006 0.49923 0.46627 0.03700
C 	C 	0.86595 0.96945 0.16767 0.07600
C 	C 	0.07354 0.10047 0.95212 -0.09000
C 	C 	0.92531 0.08060 0.62616 -0.01600
C 	C 	0.96086 0.09866 0.64109 -0.04800
C 	C 	0.60047 0.92646 0.04788 -0.09000
C 	C 	0.43800 0.47109 0.00396 -0.10200
C 	C 	0.07354 0.39953 0.54788 -0.09000
C 	C 	0.35585 0.89944 0.53249 -0.15800
C 	C 	0.00162 0.10266 0.95017 -0.13900
C 	C 	0.53249 0.35585 0.89944 -0.15800
C 	C 	0.29366 0.81497 0.49113 0.42000
C 	C 	0.89944 0.96751 0.14415 -0.15800
C 	C 	0.17901 0.85027 0.00627 -0.14700
C 	C 	0.85891 0.53914 0.09866 -0.04800
C 	C 	0.10266 0.95017 0.00162 -0.13900
C 	C 	0.03914 0.35891 0.59866 -0.04800
C 	C 	0.79366 0.50887 0.18503 0.42000
C 	C 	0.03994 0.33360 0.63254 0.02700
C 	C 	0.46627 0.06006 0.49923 0.03700
C 	C 	0.46751 0.10056 0.85585 -0.15800
C 	C 	0.99604 0.52891 0.93800 -0.10200
C 	C 	0.63254 0.03994 0.33360 0.02700
C 	C 	0.13254 0.83360 0.53994 0.02700
C 	C 	0.49838 0.10266 0.54983 -0.13900
C 	C 	0.49113 0.20634 0.68503 0.42000
C 	C 	0.97109 0.56200 0.99604 -0.10200
C 	C 	0.04788 0.60047 0.92646 -0.09000
C 	C 	0.46086 0.14109 0.59866 -0.04800
C 	C 	0.57469 0.08060 0.87384 -0.01600
C 	C 	0.64973 0.49373 0.17901 -0.14700
C 	C 	0.96945 0.16767 0.86595 0.07600
C 	C 	0.91940 0.07469 0.12616 -0.01600
C 	C 	0.57354 0.04788 0.89953 -0.09000
C 	C 	0.16767 0.63405 0.53055 0.07600
C 	C 	0.67901 0.50627 0.35027 -0.14700
C 	C 	0.96397 0.46783 0.91097 0.04300
C 	C 	0.49113 0.29366 0.81497 0.42000
C 	C 	0.00627 0.17901 0.85027 -0.14700
C 	C 	0.45017 0.89734 0.99838 -0.13900
C 	C 	0.89944 0.53249 0.35585 -0.15800
C 	C 	0.06200 0.47109 0.49604 -0.10200
C 	C 	0.82099 0.99373 0.35027 -0.14700
C 	C 	0.96006 0.36746 0.83360 0.02700
C 	C 	0.90134 0.46086 0.35891 -0.04800
C 	C 	0.46945 0.13405 0.83233 0.07600
C 	C 	0.35027 0.67901 0.50627 -0.14700
C 	C 	0.36595 0.83233 0.03055 0.07600
C 	C 	0.66640 0.96006 0.13254 0.02700
C 	C 	0.62900 0.50212 0.41672 0.09700
C 	C 	0.16640 0.63254 0.46006 0.02700
C 	C 	0.03373 0.06006 0.00077 0.03700
C 	C 	0.46751 0.39944 0.64415 -0.15800
C 	C 	0.79366 0.99113 0.31497 0.42000
C 	C 	0.99113 0.18503 0.70634 0.42000
C 	C 	0.14415 0.60056 0.53249 -0.15800
C 	C 	0.58903 0.96397 0.03217 0.04300
C 	C 	0.14109 0.90134 0.03914 -0.04800
C 	C 	0.06200 0.02891 0.00396 -0.10100
C 	C 	0.06006 0.00077 0.03373 0.03700
C 	C 	0.99923 0.93994 0.53373 0.03700
C 	C 	0.64415 0.46751 0.39944 -0.15800
C 	C 	0.83360 0.53994 0.13254 0.02700
C 	C 	0.43800 0.02891 0.49604 -0.10200
C 	C 	0.45017 0.60266 0.50162 -0.13900
C 	C 	0.58903 0.53603 0.46783 0.04300
C 	C 	0.91940 0.42531 0.37384 -0.01600
C 	C 	0.70634 0.99113 0.18503 0.42000
C 	C 	0.53217 0.03603 0.41097 0.04300
C 	C 	0.57354 0.45212 0.60047 -0.09000
C 	C 	0.46397 0.08903 0.53217 0.04300
C 	C 	0.93800 0.50396 0.97109 -0.10200
C 	C 	0.37100 0.58328 0.00212 0.09700
C 	C 	0.49604 0.43800 0.02891 -0.10200
C 	C 	0.10047 0.95212 0.07354 -0.09000
C 	C 	0.95212 0.07354 0.10047 -0.09000
C 	C 	0.82099 0.50627 0.14973 -0.14700
C 	C 	0.39953 0.54788 0.07354 -0.09000
C 	C 	0.16767 0.86595 0.96945 0.07600
C 	C 	0.64109 0.53914 0.40134 -0.04800
C 	C 	0.68503 0.49113 0.20634 0.42000
C 	C 	0.85585 0.46751 0.10056 -0.15800
C 	C 	0.09866 0.85891 0.53914 -0.04800
C 	C 	0.08060 0.87384 0.57469 -0.01600
C 	C 	0.91672 0.00212 0.12900 0.09700
C 	C 	0.20634 0.68503 0.49113 0.42000
C 	C 	0.90134 0.03914 0.14109 -0.04800
C 	C 	0.33233 0.63405 0.96945 0.07600
C 	C 	0.39953 0.95212 0.42646 -0.09000
C 	C 	0.03914 0.14109 0.90134 -0.04800
C 	C 	0.60056 0.96751 0.35585 -0.15800
C 	C 	0.86746 0.46006 0.33360 0.02700
C 	C 	0.60266 0.99838 0.04983 -0.13900
C 	C 	0.52891 0.56200 0.50396 -0.10200
C 	C 	0.47109 0.49604 0.06200 -0.10200
C 	C 	0.87384 0.92531 0.41940 -0.01600
C 	C 	0.33233 0.86595 0.53055 0.07600
C 	C 	0.50162 0.45017 0.60266 -0.13900
C 	C 	0.81497 0.00887 0.20634 0.42000
C 	C 	0.12616 0.58060 0.42531 -0.01600
C 	C 	0.53603 0.03217 0.91097 0.04300
C 	C 	0.14973 0.82099 0.50627 -0.14700
C 	C 	0.63405 0.53055 0.16767 0.07600
C 	C 	0.50887 0.18503 0.79366 0.42000
C 	C 	0.46006 0.33360 0.86746 0.02700
C 	C 	0.96627 0.99923 0.56006 0.03700
C 	C 	0.93994 0.53373 0.99923 0.03700
C 	C 	0.00077 0.03373 0.06006 0.03700
C 	C 	0.97109 0.93800 0.50396 -0.10200
C 	C 	0.08060 0.62616 0.92531 -0.01600
C 	C 	0.13254 0.66640 0.96006 0.02700
C 	C 	0.14415 0.89944 0.96751 -0.15800
C 	C 	0.41097 0.53217 0.03603 0.04300
C 	C 	0.00077 0.46627 0.43994 0.03700
C 	C 	0.14973 0.67901 0.99373 -0.14700
C 	C 	0.96783 0.46397 0.41097 0.04300
C 	C 	0.85585 0.03249 0.39944 -0.15800
C 	C 	0.46006 0.16640 0.63254 0.02700
C 	C 	0.53249 0.14415 0.60056 -0.15800
C 	C 	0.53603 0.46783 0.58903 0.04300
C 	C 	0.03217 0.91097 0.53603 0.04300
C 	C 	0.66640 0.53994 0.36746 0.02700
C 	C 	0.04983 0.89734 0.50162 -0.13900
C 	C 	0.59866 0.03914 0.35891 -0.04800
C 	C 	0.49604 0.06200 0.47109 -0.10200
C 	C 	0.18503 0.79366 0.50887 0.42000
C 	C 	0.59866 0.46086 0.14109 -0.04800
C 	C 	0.53055 0.33233 0.86595 0.07600
C 	C 	0.00887 0.20634 0.81497 0.42000
C 	C 	0.14109 0.59866 0.46086 -0.04800
C 	C 	0.12900 0.91672 0.00212 0.09700
C 	C 	0.42646 0.10047 0.54788 -0.09000
C 	C 	0.95212 0.42646 0.39953 -0.09000
C 	C 	0.63254 0.46006 0.16640 0.02700
C 	C 	0.54983 0.00162 0.39734 -0.13900
C 	C 	0.50627 0.35027 0.67901 -0.14700
C 	C 	0.43994 0.00077 0.46627 0.03700
C 	C 	0.96783 0.03603 0.08903 0.04300
C 	C 	0.87384 0.57469 0.08060 -0.01600
C 	C 	0.00162 0.39734 0.54983 -0.13900
C 	C 	0.99838 0.04983 0.60266 -0.13900
C 	C 	0.32099 0.85027 0.49373 -0.14700
C 	C 	0.10266 0.54983 0.49838 -0.13900
C 	C 	0.66767 0.03055 0.13405 0.07600
C 	C 	0.00396 0.43800 0.47109 -0.10200
C 	C 	0.54983 0.49838 0.10266 -0.13900
C 	C 	0.45212 0.60047 0.57354 -0.09000
C 	C 	0.99788 0.08328 0.62900 0.09700
C 	C 	0.58328 0.00212 0.37100 0.09700
C 	C 	0.39944 0.85585 0.03249 -0.15800
C 	C 	0.35891 0.59866 0.03914 -0.04800
C 	C 	0.17901 0.64973 0.49373 -0.14700
C 	C 	0.85027 0.00627 0.17901 -0.14700
C 	C 	0.47109 0.00396 0.43800 -0.10200
C 	C 	0.12900 0.58328 0.49788 0.09700
C 	C 	0.96627 0.50077 0.93994 0.03700
C 	C 	0.40134 0.64109 0.53914 -0.04800
C 	C 	0.99923 0.56006 0.96627 0.03700
C 	C 	0.50627 0.14973 0.82099 -0.14700
C 	C 	0.37100 0.91672 0.49788 0.09700
C 	C 	0.64109 0.96086 0.09866 -0.04800
C 	C 	0.37384 0.58060 0.07469 -0.01600
C 	C 	0.53914 0.40134 0.64109 -0.04800
C 	C 	0.63405 0.96945 0.33233 0.07600
C 	C 	0.56200 0.99604 0.97109 -0.10200
C 	C 	0.42531 0.12616 0.58060 -0.01600
C 	C 	0.00212 0.12900 0.91672 0.09700
C 	C 	0.53373 0.50077 0.56006 0.03700
C 	C 	0.39734 0.54983 0.00162 -0.13900
C 	C 	0.96006 0.13254 0.66640 0.02700
C 	C 	0.03055 0.13405 0.66767 0.07600
C 	C 	0.33360 0.86746 0.46006 0.02700
O 	O 	0.28464 0.69818 0.04244 -0.49000
O 	O 	0.80182 0.45756 0.28464 -0.49000
O 	O 	0.29991 0.78287 0.02369 -0.48600
O 	O 	0.52369 0.28287 0.79991 -0.48600
O 	O 	0.54244 0.19818 0.78464 -0.49000
O 	O 	0.45756 0.21536 0.69818 -0.49000
O 	O 	0.30182 0.71536 0.54244 -0.49000
O 	O 	0.02369 0.20009 0.71713 -0.48600
O 	O 	0.70009 0.97631 0.28287 -0.48600
O 	O 	0.21536 0.69818 0.45756 -0.49000
O 	O 	0.02369 0.29991 0.78287 -0.48600
O 	O 	0.69818 0.04244 0.28464 -0.49000
O 	O 	0.20009 0.78287 0.47631 -0.48600
O 	O 	0.78464 0.95756 0.30182 -0.49000
O 	O 	0.54244 0.30182 0.71536 -0.49000
O 	O 	0.71713 0.02369 0.20009 -0.48600
O 	O 	0.71536 0.95756 0.19818 -0.49000
O 	O 	0.28287 0.79991 0.52369 -0.48600
O 	O 	0.19818 0.71536 0.95756 -0.49000
O 	O 	0.97631 0.28287 0.70009 -0.48600
O 	O 	0.47631 0.29991 0.71713 -0.48600
O 	O 	0.29991 0.71713 0.47631 -0.48600
O 	O 	0.70009 0.52369 0.21713 -0.48600
O 	O 	0.71536 0.54244 0.30182 -0.49000
O 	O 	0.47631 0.20009 0.78287 -0.48600
O 	O 	0.28287 0.70009 0.97631 -0.48600
O 	O 	0.79991 0.97631 0.21713 -0.48600
O 	O 	0.21713 0.79991 0.97631 -0.48600
O 	O 	0.21713 0.70009 0.52369 -0.48600
O 	O 	0.19818 0.78464 0.54244 -0.49000
O 	O 	0.80182 0.04244 0.21536 -0.49000
O 	O 	0.30182 0.78464 0.95756 -0.49000
O 	O 	0.71713 0.47631 0.29991 -0.48600
O 	O 	0.04244 0.21536 0.80182 -0.49000
O 	O 	0.78287 0.47631 0.20009 -0.48600
O 	O 	0.78464 0.54244 0.19818 -0.49000
O 	O 	0.69818 0.45756 0.21536 -0.49000
O 	O 	0.52369 0.21713 0.70009 -0.48600
O 	O 	0.45756 0.28464 0.80182 -0.49000
O 	O 	0.28464 0.80182 0.45756 -0.49000
O 	O 	0.95756 0.19818 0.71536 -0.49000
O 	O 	0.78287 0.02369 0.29991 -0.48600
O 	O 	0.97631 0.21713 0.79991 -0.48600
O 	O 	0.04244 0.28464 0.69818 -0.49000
O 	O 	0.95756 0.30182 0.78464 -0.49000
O 	O 	0.20009 0.71713 0.02369 -0.48600
O 	O 	0.79991 0.52369 0.28287 -0.48600
O 	O 	0.21536 0.80182 0.04244 -0.49000
Mn	Mn	0.25000 0.54894 0.75000 1.25500
Mn	Mn	0.25000 0.04894 0.75000 1.25500
Mn	Mn	0.25000 0.95106 0.75000 1.25500
Mn	Mn	0.95106 0.75000 0.25000 1.25500
Mn	Mn	0.25000 0.45106 0.75000 1.25500
Mn	Mn	0.45106 0.75000 0.25000 1.25500
Mn	Mn	0.75000 0.25000 0.95106 1.25500
Mn	Mn	0.54894 0.75000 0.25000 1.25500
Mn	Mn	0.04894 0.75000 0.25000 1.25500
Mn	Mn	0.75000 0.25000 0.04894 1.25500
Mn	Mn	0.75000 0.25000 0.54894 1.25500
Mn	Mn	0.75000 0.25000 0.45106 1.25500
H 	H 	0.17620 0.94580 0.64650 0.00500
H 	H 	0.90910 0.46360 0.59730 0.05800
H 	H 	0.35350 0.44580 0.82380 0.00500
H 	H 	0.13820 0.94260 0.58920 0.08300
H 	H 	0.32550 0.06460 0.85690 0.02700
H 	H 	0.06460 0.64310 0.17450 0.02700
H 	H 	0.40900 0.59960 0.86620 0.02900
H 	H 	0.90570 0.03950 0.02310 0.08000
H 	H 	0.82380 0.35350 0.44580 0.00500
H 	H 	0.53640 0.09090 0.09730 0.05800
H 	H 	0.09090 0.09730 0.53640 0.05800
H 	H 	0.90270 0.59090 0.46360 0.05800
H 	H 	0.40270 0.53640 0.40910 0.05800
H 	H 	0.40900 0.90040 0.63380 0.02900
H 	H 	0.05420 0.82380 0.14650 0.00500
H 	H 	0.35690 0.56460 0.82550 0.02700
H 	H 	0.56460 0.67450 0.14310 0.02700
H 	H 	0.36620 0.40040 0.59100 0.02900
H 	H 	0.03640 0.90270 0.90910 0.05800
H 	H 	0.63820 0.41080 0.05740 0.08300
H 	H 	0.82380 0.14650 0.05420 0.00500
H 	H 	0.46050 0.02310 0.59430 0.08000
H 	H 	0.02310 0.59430 0.46050 0.08000
H 	H 	0.47690 0.90570 0.46050 0.08000
H 	H 	0.48520 0.58280 0.97260 0.06500
H 	H 	0.03950 0.02310 0.90570 0.08000
H 	H 	0.03640 0.59730 0.59090 0.05800
H 	H 	0.40270 0.96360 0.09090 0.05800
H 	H 	0.96050 0.09430 0.52310 0.08000
H 	H 	0.35690 0.93540 0.67450 0.02700
H 	H 	0.59100 0.13380 0.09960 0.02900
H 	H 	0.05740 0.63820 0.41080 0.08300
H 	H 	0.53950 0.40570 0.52310 0.08000
H 	H 	0.05420 0.67620 0.35350 0.00500
H 	H 	0.58920 0.36180 0.55740 0.08300
H 	H 	0.01480 0.58280 0.52740 0.06500
H 	H 	0.09100 0.59960 0.63380 0.02900
H 	H 	0.09430 0.52310 0.96050 0.08000
H 	H 	0.97260 0.01480 0.91720 0.06400
H 	H 	0.40570 0.52310 0.53950 0.08000
H 	H 	0.55740 0.58920 0.36180 0.08300
H 	H 	0.44260 0.86180 0.41080 0.08300
H 	H 	0.47690 0.59430 0.03950 0.08000
H 	H 	0.13380 0.40040 0.90900 0.02900
H 	H 	0.91080 0.36180 0.94260 0.08300
H 	H 	0.58920 0.13820 0.94260 0.08300
H 	H 	0.36620 0.09960 0.90900 0.02900
H 	H 	0.82550 0.14310 0.93540 0.02700
H 	H 	0.47260 0.08280 0.98520 0.06500
H 	H 	0.94580 0.64650 0.17620 0.00500
H 	H 	0.59090 0.03640 0.59730 0.05800
H 	H 	0.91720 0.97260 0.01480 0.06400
H 	H 	0.59100 0.36620 0.40040 0.02900
H 	H 	0.17620 0.55420 0.85350 0.00500
H 	H 	0.59960 0.86620 0.40900 0.02900
H 	H 	0.43540 0.85690 0.17450 0.02700
H 	H 	0.98520 0.02740 0.41720 0.06400
H 	H 	0.86620 0.40900 0.59960 0.02900
H 	H 	0.93540 0.82550 0.14310 0.02700
H 	H 	0.97260 0.48520 0.58280 0.06500
H 	H 	0.36180 0.55740 0.58920 0.08300
H 	H 	0.44580 0.82380 0.35350 0.00500
H 	H 	0.08920 0.44260 0.63820 0.08300
H 	H 	0.59430 0.46050 0.02310 0.08000
H 	H 	0.91080 0.13820 0.55740 0.08300
H 	H 	0.90570 0.46050 0.47690 0.08000
H 	H 	0.52310 0.53950 0.40570 0.08000
H 	H 	0.64310 0.17450 0.06460 0.02700
H 	H 	0.46360 0.59730 0.90910 0.05800
H 	H 	0.52740 0.01480 0.58280 0.06500
H 	H 	0.14310 0.93540 0.82550 0.02700
H 	H 	0.82550 0.35690 0.56460 0.02700
H 	H 	0.67620 0.35350 0.05420 0.00500
H 	H 	0.09430 0.97690 0.53950 0.08000
H 	H 	0.58280 0.97260 0.48520 0.06500
H 	H 	0.32550 0.43540 0.64310 0.02700
H 	H 	0.55420 0.64650 0.32380 0.00500
H 	H 	0.40570 0.97690 0.96050 0.08000
H 	H 	0.55420 0.85350 0.17620 0.00500
H 	H 	0.97690 0.96050 0.40570 0.08000
H 	H 	0.90910 0.03640 0.90270 0.05800
H 	H 	0.09100 0.90040 0.86620 0.02900
H 	H 	0.59090 0.46360 0.90270 0.05800
H 	H 	0.06460 0.85690 0.32550 0.02700
H 	H 	0.53640 0.40910 0.40270 0.05800
H 	H 	0.53950 0.09430 0.97690 0.08000
H 	H 	0.59730 0.90910 0.46360 0.05800
H 	H 	0.63380 0.40900 0.90040 0.02900
H 	H 	0.05740 0.86180 0.08920 0.08300
H 	H 	0.01480 0.91720 0.97260 0.06400
H 	H 	0.51480 0.02740 0.08280 0.06500
H 	H 	0.52740 0.48520 0.91720 0.06500
H 	H 	0.94260 0.91080 0.36180 0.08300
H 	H 	0.97690 0.53950 0.09430 0.08000
H 	H 	0.14310 0.56460 0.67450 0.02700
H 	H 	0.90040 0.86620 0.09100 0.02900
H 	H 	0.41080 0.44260 0.86180 0.08300
H 	H 	0.03950 0.47690 0.59430 0.08000
H 	H 	0.35350 0.05420 0.67620 0.00500
H 	H 	0.02310 0.90570 0.03950 0.08000
H 	H 	0.46360 0.90270 0.59090 0.05800
H 	H 	0.08280 0.98520 0.47260 0.06500
H 	H 	0.13820 0.55740 0.91080 0.08300
H 	H 	0.59430 0.03950 0.47690 0.08000
H 	H 	0.44260 0.63820 0.08920 0.08300
H 	H 	0.32380 0.55420 0.64650 0.00500
H 	H 	0.41720 0.98520 0.02740 0.06400
H 	H 	0.86180 0.08920 0.05740 0.08300
H 	H 	0.09090 0.40270 0.96360 0.05800
H 	H 	0.90270 0.90910 0.03640 0.05800
H 	H 	0.93540 0.67450 0.35690 0.02700
H 	H 	0.86180 0.41080 0.44260 0.08300
H 	H 	0.41720 0.51480 0.47260 0.06500
H 	H 	0.94260 0.58920 0.13820 0.08300
H 	H 	0.63380 0.09100 0.59960 0.02900
H 	H 	0.02740 0.08280 0.51480 0.06500
H 	H 	0.14650 0.44580 0.67620 0.00500
H 	H 	0.55740 0.91080 0.13820 0.08300
H 	H 	0.90900 0.13380 0.40040 0.02900
H 	H 	0.17450 0.43540 0.85690 0.02700
H 	H 	0.90900 0.36620 0.09960 0.02900
H 	H 	0.85350 0.17620 0.55420 0.00500
H 	H 	0.64310 0.32550 0.43540 0.02700
H 	H 	0.67620 0.14650 0.44580 0.00500
H 	H 	0.67450 0.35690 0.93540 0.02700
H 	H 	0.08920 0.05740 0.86180 0.08300
H 	H 	0.13380 0.09960 0.59100 0.02900
H 	H 	0.40040 0.90900 0.13380 0.02900
H 	H 	0.02740 0.41720 0.98520 0.06400
H 	H 	0.85690 0.32550 0.06460 0.02700
H 	H 	0.51480 0.47260 0.41720 0.06500
H 	H 	0.09730 0.53640 0.09090 0.05800
H 	H 	0.17450 0.06460 0.64310 0.02700
H 	H 	0.09960 0.59100 0.13380 0.02900
H 	H 	0.44580 0.67620 0.14650 0.00500
H 	H 	0.09730 0.96360 0.40910 0.05800
H 	H 	0.40910 0.09730 0.96360 0.05800
H 	H 	0.96360 0.40910 0.09730 0.05800
H 	H 	0.36180 0.94260 0.91080 0.08300
H 	H 	0.63820 0.08920 0.44260 0.08300
H 	H 	0.47260 0.41720 0.51480 0.06500
H 	H 	0.59960 0.63380 0.09100 0.02900
H 	H 	0.96360 0.09090 0.40270 0.05800
H 	H 	0.40910 0.40270 0.53640 0.05800
H 	H 	0.48520 0.91720 0.52740 0.06500
H 	H 	0.64650 0.32380 0.55420 0.00500
H 	H 	0.56460 0.82550 0.35690 0.02700
H 	H 	0.32380 0.94580 0.85350 0.00500
H 	H 	0.52310 0.96050 0.09430 0.08000
H 	H 	0.90040 0.63380 0.40900 0.02900
H 	H 	0.58280 0.52740 0.01480 0.06500
H 	H 	0.98520 0.47260 0.08280 0.06500
H 	H 	0.41080 0.05740 0.63820 0.08300
H 	H 	0.09960 0.90900 0.36620 0.02900
H 	H 	0.40040 0.59100 0.36620 0.02900
H 	H 	0.08280 0.51480 0.02740 0.06500
H 	H 	0.59730 0.59090 0.03640 0.05800
H 	H 	0.85350 0.32380 0.94580 0.00500
H 	H 	0.43540 0.64310 0.32550 0.02700
H 	H 	0.14650 0.05420 0.82380 0.00500
H 	H 	0.96050 0.40570 0.97690 0.08000
H 	H 	0.46050 0.47690 0.90570 0.08000
H 	H 	0.94580 0.85350 0.32380 0.00500
H 	H 	0.64650 0.17620 0.94580 0.00500
H 	H 	0.85690 0.17450 0.43540 0.02700
H 	H 	0.86620 0.09100 0.90040 0.02900
H 	H 	0.67450 0.14310 0.56460 0.02700
H 	H 	0.91720 0.52740 0.48520 0.06500
C 	C 	0.13254 0.96006 0.83360 0.02700
C 	C 	0.32099 0.00627 0.85027 -0.14700
C 	C 	0.00887 0.81497 0.29366 0.42000
C 	C 	0.79366 0.18503 0.99113 0.42000
C 	C 	0.39734 0.00162 0.95017 -0.13900
C 	C 	0.49604 0.47109 0.43800 -0.10200
C 	C 	0.95017 0.10266 0.49838 -0.13900
C 	C 	0.46751 0.64415 0.10056 -0.15800
C 	C 	0.04983 0.50162 0.60266 -0.13900
C 	C 	0.87384 0.08060 0.92531 -0.01600
C 	C 	0.53914 0.85891 0.40134 -0.04800
C 	C 	0.99923 0.96627 0.93994 0.03700
C 	C 	0.03994 0.63254 0.16640 0.02700
C 	C 	0.92531 0.62616 0.41940 -0.01600
C 	C 	0.53603 0.91097 0.46783 0.04300
C 	C 	0.60047 0.04788 0.57354 -0.09000
C 	C 	0.64109 0.40134 0.96086 -0.04800
C 	C 	0.92646 0.89953 0.04788 -0.09000
C 	C 	0.46086 0.59866 0.35891 -0.04800
C 	C 	0.16640 0.46006 0.86746 0.02700
C 	C 	0.87100 0.08328 0.99788 0.09700
C 	C 	0.99604 0.56200 0.52891 -0.10200
C 	C 	0.89734 0.45017 0.50162 -0.13900
C 	C 	0.89734 0.04983 0.99838 -0.13900
C 	C 	0.85891 0.09866 0.96086 -0.04800
C 	C 	0.90134 0.14109 0.46086 -0.04800
C 	C 	0.37384 0.07469 0.91940 -0.01600
C 	C 	0.89944 0.14415 0.53249 -0.15800
C 	C 	0.57469 0.62616 0.08060 -0.01600
C 	C 	0.96086 0.85891 0.09866 -0.04800
C 	C 	0.39953 0.07354 0.95212 -0.09000
C 	C 	0.35585 0.53249 0.60056 -0.15800
C 	C 	0.85585 0.10056 0.03249 -0.15800
C 	C 	0.04983 0.99838 0.89734 -0.13900
C 	C 	0.04788 0.92646 0.89953 -0.09000
C 	C 	0.91672 0.12900 0.49788 0.09700
C 	C 	0.96945 0.63405 0.16767 0.07600
C 	C 	0.58328 0.12900 0.00212 0.09700
C 	C 	0.82099 0.14973 0.99373 -0.14700
C 	C 	0.50887 0.79366 0.31497 0.42000
C 	C 	0.14415 0.96751 0.60056 -0.15800
C 	C 	0.50162 0.60266 0.04983 -0.13900
C 	C 	0.45017 0.99838 0.60266 -0.13900
C 	C 	0.20634 0.00887 0.68503 0.42000
C 	C 	0.91672 0.37100 0.00212 0.09700
C 	C 	0.10266 0.49838 0.95017 -0.13900
C 	C 	0.36746 0.53994 0.83360 0.02700
C 	C 	0.93994 0.99923 0.96627 0.03700
C 	C 	0.96783 0.08903 0.46397 0.04300
C 	C 	0.33360 0.03994 0.86746 0.02700
C 	C 	0.58903 0.46783 0.96397 0.04300
C 	C 	0.60047 0.45212 0.92646 -0.09000
C 	C 	0.37100 0.00212 0.91672 0.09700
C 	C 	0.13405 0.46945 0.66767 0.07600
C 	C 	0.53373 0.56006 0.99923 0.03700
C 	C 	0.00077 0.43994 0.03373 0.03700
C 	C 	0.87100 0.41672 0.50212 0.09700
C 	C 	0.70634 0.31497 0.99113 0.42000
C 	C 	0.49373 0.64973 0.32099 -0.14700
C 	C 	0.03914 0.90134 0.35891 -0.04800
C 	C 	0.56006 0.50077 0.96627 0.03700
C 	C 	0.42531 0.58060 0.37384 -0.01600
C 	C 	0.02891 0.43800 0.00396 -0.10200
C 	C 	0.56200 0.97109 0.50396 -0.10200
C 	C 	0.66640 0.36746 0.96006 0.02700
C 	C 	0.46945 0.66767 0.13405 0.07600
C 	C 	0.58060 0.12616 0.07469 -0.01600
C 	C 	0.64973 0.32099 0.49373 -0.14700
C 	C 	0.58060 0.37384 0.42531 -0.01600
C 	C 	0.00887 0.68503 0.20634 0.42000
C 	C 	0.50212 0.62900 0.08328 0.09700
C 	C 	0.13405 0.03055 0.83233 0.07600
C 	C 	0.18503 0.50887 0.70634 0.42000
C 	C 	0.39944 0.03249 0.64415 -0.15800
C 	C 	0.10047 0.07354 0.54788 -0.09000
C 	C 	0.64415 0.10056 0.46751 -0.15800
C 	C 	0.16767 0.53055 0.86595 0.07600
C 	C 	0.41097 0.03603 0.96783 0.04300
C 	C 	0.53994 0.83360 0.36746 0.02700
C 	C 	0.50212 0.87100 0.41672 0.09700
C 	C 	0.10047 0.42646 0.95212 -0.09000
C 	C 	0.46627 0.49923 0.43994 0.03700
C 	C 	0.49838 0.95017 0.10266 -0.13900
C 	C 	0.14973 0.50627 0.67901 -0.14700
C 	C 	0.85585 0.39944 0.46751 -0.15800
C 	C 	0.63405 0.33233 0.53055 0.07600
C 	C 	0.99788 0.87100 0.08328 0.09700
C 	C 	0.46751 0.85585 0.39944 -0.15800
C 	C 	0.59866 0.14109 0.03914 -0.04800
C 	C 	0.31497 0.50887 0.79366 0.42000
C 	C 	0.70634 0.18503 0.50887 0.42000
C 	C 	0.58903 0.03217 0.53603 0.04300
C 	C 	0.18503 0.99113 0.79366 0.42000
C 	C 	0.96006 0.83360 0.13254 0.02700
C 	C 	0.46397 0.53217 0.41097 0.04300
C 	C 	0.53055 0.86595 0.16767 0.07600
C 	C 	0.35585 0.96751 0.89944 -0.15800
C 	C 	0.99113 0.70634 0.31497 0.42000
C 	C 	0.96397 0.58903 0.46783 0.04300
C 	C 	0.47109 0.43800 0.49604 -0.10200
C 	C 	0.41672 0.50212 0.87100 0.09700
C 	C 	0.49113 0.68503 0.29366 0.42000
C 	C 	0.54983 0.39734 0.49838 -0.13900
C 	C 	0.96086 0.64109 0.40134 -0.04800
C 	C 	0.40134 0.96086 0.64109 -0.04800
C 	C 	0.41097 0.46397 0.53217 0.04300
C 	C 	0.46627 0.00077 0.06006 0.03700
C 	C 	0.87384 0.41940 0.57469 -0.01600
C 	C 	0.00077 0.06006 0.46627 0.03700
C 	C 	0.91940 0.12616 0.42531 -0.01600
C 	C 	0.49923 0.06006 0.03373 0.03700
C 	C 	0.00396 0.02891 0.43800 -0.10200
C 	C 	0.00162 0.54983 0.10266 -0.13900
C 	C 	0.08060 0.57469 0.62616 -0.01600
C 	C 	0.42646 0.54788 0.39953 -0.09000
C 	C 	0.32099 0.49373 0.64973 -0.14700
C 	C 	0.08903 0.46397 0.96783 0.04300
C 	C 	0.07469 0.91940 0.37384 -0.01600
C 	C 	0.06006 0.46627 0.00077 0.03700
C 	C 	0.36595 0.03055 0.66767 0.07600
C 	C 	0.57354 0.60047 0.04788 -0.09000
C 	C 	0.41940 0.57469 0.87384 -0.01600
C 	C 	0.96397 0.91097 0.03217 0.04300
C 	C 	0.53217 0.08903 0.03603 0.04300
C 	C 	0.57354 0.89953 0.45212 -0.09000
C 	C 	0.49373 0.85027 0.17901 -0.14700
C 	C 	0.54788 0.39953 0.42646 -0.09000
C 	C 	0.00212 0.91672 0.37100 0.09700
C 	C 	0.45017 0.50162 0.89734 -0.13900
C 	C 	0.68503 0.29366 0.49113 0.42000
C 	C 	0.50162 0.89734 0.45017 -0.13900
C 	C 	0.53249 0.60056 0.35585 -0.15800
C 	C 	0.00627 0.85027 0.32099 -0.14700
C 	C 	0.43994 0.03373 0.00077 0.03700
C 	C 	0.03603 0.53217 0.08903 0.04300
C 	C 	0.56006 0.99923 0.53373 0.03700
C 	C 	0.03373 0.00077 0.43994 0.03700
C 	C 	0.46006 0.63254 0.33360 0.02700
C 	C 	0.99838 0.60266 0.45017 -0.13900
C 	C 	0.95017 0.39734 0.00162 -0.13900
C 	C 	0.49788 0.91672 0.12900 0.09700
C 	C 	0.17901 0.00627 0.64973 -0.14700
C 	C 	0.35027 0.50627 0.82099 -0.14700
C 	C 	0.41940 0.92531 0.62616 -0.01600
C 	C 	0.85027 0.32099 0.00627 -0.14700
C 	C 	0.99373 0.67901 0.35027 -0.14700
C 	C 	0.35891 0.03914 0.90134 -0.04800
C 	C 	0.54983 0.10266 0.00162 -0.13900
C 	C 	0.10056 0.03249 0.85585 -0.15800
C 	C 	0.60266 0.45017 0.99838 -0.13900
C 	C 	0.00212 0.58328 0.12900 0.09700
C 	C 	0.42646 0.95212 0.10047 -0.09000
C 	C 	0.16640 0.03994 0.63254 0.02700
C 	C 	0.06200 0.00396 0.47109 -0.10200
C 	C 	0.68503 0.20634 0.00887 0.42000
C 	C 	0.29366 0.49113 0.68503 0.42000
C 	C 	0.99113 0.79366 0.18503 0.42000
C 	C 	0.07354 0.54788 0.10047 -0.09000
C 	C 	0.67901 0.35027 0.99373 -0.14700
C 	C 	0.50077 0.96627 0.56006 0.03700
C 	C 	0.53055 0.63405 0.33233 0.07600
C 	C 	0.89953 0.45212 0.57354 -0.09000
C 	C 	0.63405 0.16767 0.96945 0.07600
C 	C 	0.43994 0.46627 0.49923 0.03700
C 	C 	0.83233 0.13405 0.03055 0.07600
C 	C 	0.45212 0.92646 0.60047 -0.09000
C 	C 	0.92531 0.87384 0.08060 -0.01600
C 	C 	0.97109 0.50396 0.56200 -0.10200
C 	C 	0.82099 0.35027 0.50627 -0.14700
C 	C 	0.91940 0.37384 0.07469 -0.01600
C 	C 	0.99788 0.62900 0.41672 0.09700
C 	C 	0.93994 0.50077 0.53373 0.03700
C 	C 	0.50077 0.53373 0.93994 0.03700
C 	C 	0.20634 0.49113 0.81497 0.42000
C 	C 	0.46006 0.86746 0.16640 0.02700
C 	C 	0.12900 0.00212 0.58328 0.09700
C 	C 	0.59866 0.35891 0.46086 -0.04800
C 	C 	0.83360 0.36746 0.53994 0.02700
C 	C 	0.03249 0.85585 0.10056 -0.15800
C 	C 	0.99838 0.89734 0.04983 -0.13900
C 	C 	0.58328 0.37100 0.49788 0.09700
C 	C 	0.02891 0.06200 0.49604 -0.10200
C 	C 	0.49923 0.43994 0.46627 0.03700
C 	C 	0.08328 0.99788 0.87100 0.09700
C 	C 	0.62616 0.41940 0.92531 -0.01600
C 	C 	0.89944 0.35585 0.96751 -0.15800
C 	C 	0.91097 0.03217 0.96397 0.04300
C 	C 	0.45212 0.57354 0.89953 -0.09000
C 	C 	0.96627 0.93994 0.99923 0.03700
C 	C 	0.99923 0.53373 0.56006 0.03700
C 	C 	0.42531 0.91940 0.12616 -0.01600
C 	C 	0.03217 0.96397 0.91097 0.04300
C 	C 	0.10266 0.00162 0.54983 -0.13900
C 	C 	0.62900 0.41672 0.99788 0.09700
C 	C 	0.97109 0.99604 0.93800 -0.10100
C 	C 	0.08060 0.92531 0.87384 -0.01600
C 	C 	0.60266 0.04983 0.50162 -0.13900
C 	C 	0.00396 0.47109 0.06200 -0.10200
C 	C 	0.09866 0.96086 0.85891 -0.04800
C 	C 	0.91097 0.46783 0.53603 0.04300
C 	C 	0.86595 0.33233 0.96945 0.07600
C 	C 	0.14973 0.99373 0.82099 -0.14700
C 	C 	0.85027 0.17901 0.49373 -0.14700
C 	C 	0.09866 0.53914 0.64109 -0.04800
C 	C 	0.08328 0.50212 0.62900 0.09700
C 	C 	0.36746 0.96006 0.66640 0.02700
C 	C 	0.46945 0.83233 0.36595 0.07600
C 	C 	0.33360 0.46006 0.63254 0.02700
C 	C 	0.85891 0.40134 0.53914 -0.04800
C 	C 	0.62900 0.08328 0.50212 0.09700
C 	C 	0.03994 0.86746 0.33360 0.02700
C 	C 	0.49113 0.81497 0.20634 0.42000
C 	C 	0.39944 0.46751 0.85585 -0.15800
C 	C 	0.31497 0.99113 0.70634 0.42000
C 	C 	0.50887 0.70634 0.18503 0.42000
C 	C 	0.39953 0.42646 0.54788 -0.09000
C 	C 	0.35027 0.99373 0.67901 -0.14700
C 	C 	0.06006 0.03373 0.49923 0.03700
C 	C 	0.99604 0.93800 0.97109 -0.10100
C 	C 	0.04788 0.57354 0.60047 -0.09000
C 	C 	0.63254 0.16640 0.03994 0.02700
C 	C 	0.96627 0.56006 0.50077 0.03700
C 	C 	0.95212 0.10047 0.42646 -0.09000
C 	C 	0.92646 0.60047 0.45212 -0.09000
C 	C 	0.50627 0.82099 0.35027 -0.14700
C 	C 	0.49604 0.02891 0.06200 -0.10200
C 	C 	0.63254 0.33360 0.46006 0.02700
C 	C 	0.67901 0.14973 0.50627 -0.14700
C 	C 	0.50396 0.56200 0.97109 -0.10200
C 	C 	0.33233 0.96945 0.86595 0.07600
C 	C 	0.90134 0.35891 0.03914 -0.04800
C 	C 	0.03603 0.96783 0.41097 0.04300
C 	C 	0.08903 0.03603 0.53217 0.04300
C 	C 	0.60056 0.14415 0.96751 -0.15800
C 	C 	0.86595 0.16767 0.53055 0.07600
C 	C 	0.37384 0.42531 0.58060 -0.01600
C 	C 	0.13254 0.53994 0.66640 0.02700
C 	C 	0.46086 0.90134 0.14109 -0.04800
C 	C 	0.50396 0.93800 0.52891 -0.10200
C 	C 	0.46783 0.96397 0.58903 0.04300
C 	C 	0.16767 0.96945 0.63405 0.07600
C 	C 	0.81497 0.29366 0.00887 0.42000
C 	C 	0.66767 0.36595 0.03055 0.07600
C 	C 	0.96783 0.41097 0.03603 0.04300
C 	C 	0.06200 0.49604 0.02891 -0.10200
C 	C 	0.64415 0.39944 0.03249 -0.15800
C 	C 	0.53373 0.93994 0.50077 0.03700
C 	C 	0.03373 0.49923 0.06006 0.03700
C 	C 	0.57469 0.87384 0.41940 -0.01600
C 	C 	0.60056 0.35585 0.53249 -0.15800
C 	C 	0.03217 0.53603 0.58903 0.04300
C 	C 	0.14109 0.03914 0.59866 -0.04800
C 	C 	0.81497 0.20634 0.49113 0.42000
C 	C 	0.14109 0.46086 0.90134 -0.04800
C 	C 	0.93800 0.97109 0.99604 -0.10100
C 	C 	0.53994 0.66640 0.13254 0.02700
C 	C 	0.03055 0.83233 0.13405 0.07600
C 	C 	0.00162 0.95017 0.39734 -0.13900
C 	C 	0.99373 0.82099 0.14973 -0.14700
C 	C 	0.03055 0.66767 0.36595 0.07600
C 	C 	0.46783 0.53603 0.91097 0.04300
C 	C 	0.53249 0.89944 0.14415 -0.15800
C 	C 	0.50627 0.67901 0.14973 -0.14700
C 	C 	0.96006 0.66640 0.36746 0.02700
C 	C 	0.07469 0.58060 0.12616 -0.01600
C 	C 	0.64109 0.09866 0.53914 -0.04800
C 	C 	0.83233 0.36595 0.46945 0.07600
C 	C 	0.95212 0.39953 0.07354 -0.09000
C 	C 	0.07354 0.95212 0.39953 -0.09000
C 	C 	0.17901 0.49373 0.85027 -0.14700
C 	C 	0.37100 0.49788 0.58328 0.09700
C 	C 	0.47109 0.06200 0.00396 -0.10200
C 	C 	0.86746 0.33360 0.03994 0.02700
C 	C 	0.53914 0.64109 0.09866 -0.04800
C 	C 	0.52891 0.99604 0.56200 -0.10200
C 	C 	0.96945 0.86595 0.33233 0.07600
C 	C 	0.35891 0.46086 0.59866 -0.04800
C 	C 	0.53603 0.58903 0.03217 0.04300
C 	C 	0.53217 0.41097 0.46397 0.04300
C 	C 	0.12616 0.07469 0.58060 -0.01600
C 	C 	0.33233 0.53055 0.63405 0.07600
C 	C 	0.41672 0.99788 0.62900 0.09700
C 	C 	0.56200 0.52891 0.99604 -0.10200
C 	C 	0.79366 0.31497 0.50887 0.42000
C 	C 	0.89953 0.04788 0.92646 -0.09000
C 	C 	0.64973 0.17901 0.00627 -0.14700
C 	C 	0.46397 0.96783 0.08903 0.04300
C 	C 	0.54788 0.10047 0.07354 -0.09000
C 	C 	0.86746 0.16640 0.46006 0.02700
C 	C 	0.03914 0.59866 0.14109 -0.04800
C 	C 	0.62616 0.08060 0.57469 -0.01600
C 	C 	0.96751 0.60056 0.14415 -0.15800
C 	C 	0.93800 0.52891 0.50396 -0.10200
C 	C 	0.52891 0.50396 0.93800 -0.10200
C 	C 	0.36595 0.46945 0.83233 0.07600
C 	C 	0.00627 0.64973 0.17901 -0.14700
C 	C 	0.40134 0.53914 0.85891 -0.04800
C 	C 	0.29366 0.00887 0.81497 0.42000
C 	C 	0.14415 0.53249 0.89944 -0.15800
C 	C 	0.39734 0.49838 0.54983 -0.13900
C 	C 	0.03249 0.64415 0.39944 -0.15800
C 	C 	0.12900 0.49788 0.91672 0.09700
C 	C 	0.12616 0.42531 0.91940 -0.01600
C 	C 	0.49838 0.54983 0.39734 -0.13900
C 	C 	0.10056 0.46751 0.64415 -0.15800
C 	C 	0.43800 0.00396 0.02891 -0.10200
C 	C 	0.96751 0.89944 0.35585 -0.15800
C 	C 	0.66640 0.13254 0.53994 0.02700
C 	C 	0.49788 0.58328 0.37100 0.09700
C 	C 	0.43800 0.49604 0.47109 -0.10200
C 	C 	0.83360 0.13254 0.96006 0.02700
C 	C 	0.66767 0.13405 0.46945 0.07600
O 	O 	0.71713 0.29991 0.02369 -0.48600
O 	O 	0.21536 0.04244 0.69818 -0.49000
O 	O 	0.71536 0.19818 0.54244 -0.49000
O 	O 	0.20009 0.02369 0.78287 -0.48600
O 	O 	0.95756 0.71536 0.30182 -0.49000
O 	O 	0.45756 0.69818 0.28464 -0.49000
O 	O 	0.70009 0.28287 0.52369 -0.48600
O 	O 	0.02369 0.71713 0.29991 -0.48600
O 	O 	0.69818 0.21536 0.04244 -0.49000
O 	O 	0.19818 0.95756 0.78464 -0.49000
O 	O 	0.52369 0.70009 0.28287 -0.48600
O 	O 	0.97631 0.79991 0.28287 -0.48600
O 	O 	0.20009 0.47631 0.71713 -0.48600
O 	O 	0.04244 0.69818 0.21536 -0.49000
O 	O 	0.78464 0.30182 0.54244 -0.49000
O 	O 	0.80182 0.21536 0.45756 -0.49000
O 	O 	0.29991 0.02369 0.71713 -0.48600
O 	O 	0.02369 0.78287 0.20009 -0.48600
O 	O 	0.47631 0.78287 0.29991 -0.48600
O 	O 	0.78287 0.29991 0.47631 -0.48600
O 	O 	0.28287 0.97631 0.79991 -0.48600
O 	O 	0.28464 0.04244 0.80182 -0.49000
O 	O 	0.28464 0.45756 0.69818 -0.49000
O 	O 	0.29991 0.47631 0.78287 -0.48600
O 	O 	0.04244 0.80182 0.28464 -0.49000
O 	O 	0.54244 0.71536 0.19818 -0.49000
O 	O 	0.97631 0.70009 0.21713 -0.48600
O 	O 	0.47631 0.71713 0.20009 -0.48600
O 	O 	0.54244 0.78464 0.30182 -0.49000
O 	O 	0.21536 0.45756 0.80182 -0.49000
O 	O 	0.19818 0.54244 0.71536 -0.49000
O 	O 	0.71713 0.20009 0.47631 -0.48600
O 	O 	0.30182 0.54244 0.78464 -0.49000
O 	O 	0.79991 0.21713 0.52369 -0.48600
O 	O 	0.78464 0.19818 0.95756 -0.49000
O 	O 	0.21713 0.97631 0.70009 -0.48600
O 	O 	0.95756 0.78464 0.19818 -0.49000
O 	O 	0.30182 0.95756 0.71536 -0.49000
O 	O 	0.21713 0.52369 0.79991 -0.48600
O 	O 	0.45756 0.80182 0.21536 -0.49000
O 	O 	0.52369 0.79991 0.21713 -0.48600
O 	O 	0.28287 0.52369 0.70009 -0.48600
O 	O 	0.78287 0.20009 0.02369 -0.48600
O 	O 	0.71536 0.30182 0.95756 -0.49000
O 	O 	0.80182 0.28464 0.04244 -0.49000
O 	O 	0.70009 0.21713 0.97631 -0.48600
O 	O 	0.79991 0.28287 0.97631 -0.48600
O 	O 	0.69818 0.28464 0.45756 -0.49000
