data_crystal

_cell_length_a 23.68470
_cell_length_b 23.68470
_cell_length_c 23.68470
_cell_angle_alpha 60.00000
_cell_angle_beta  60.00000
_cell_angle_gamma 60.00000

_symmetry_space_group_name_	'P 1'
_symmetry_space_group_name_H-M	'P 1'

loop_
_symmetry_equiv_pos_as_xyz
  x,y,z

loop_
_atom_site_label
_atom_site_type_symbol
_atom_site_fract_x
_atom_site_fract_y
_atom_site_fract_z
_atom_site_charge
Cu	Cu	0.71706 0.28294 0.71706 0.90500
Cu	Cu	0.36096 0.36096 0.63904 0.90000
Cu	Cu	0.36096 0.63904 0.63904 0.90000
Cu	Cu	0.28294 0.71706 0.28294 0.90500
Cu	Cu	0.63904 0.36096 0.36096 0.90000
Cu	Cu	0.63904 0.36096 0.63904 0.90000
Cu	Cu	0.28294 0.28294 0.71706 0.90500
Cu	Cu	0.28294 0.71706 0.71706 0.90500
Cu	Cu	0.71706 0.28294 0.28294 0.90500
Cu	Cu	0.36096 0.63904 0.36096 0.90000
Cu	Cu	0.63904 0.63904 0.36096 0.90000
Cu	Cu	0.71706 0.71706 0.28294 0.90500
Si	Si	0.85754 0.85754 0.42738 0.55400
Si	Si	0.42738 0.85754 0.85754 0.55400
Si	Si	0.14246 0.14246 0.57262 0.55400
Si	Si	0.14246 0.14246 0.14246 0.55300
Si	Si	0.85754 0.85754 0.85754 0.55300
Si	Si	0.57262 0.14246 0.14246 0.55400
Si	Si	0.85754 0.42738 0.85754 0.55300
Si	Si	0.14246 0.57262 0.14246 0.55300
H 	H 	0.87450 0.72830 0.85390 -0.01100
H 	H 	0.84410 0.93470 0.59150 0.07400
H 	H 	0.09060 0.69280 0.42580 0.08400
H 	H 	0.57420 0.20920 0.30720 0.08400
H 	H 	0.86080 0.28400 0.49540 0.06500
H 	H 	0.68140 0.22420 0.54940 0.04500
H 	H 	0.13900 0.40120 0.98280 0.05600
H 	H 	0.27170 0.12550 0.14610 -0.01100
H 	H 	0.28400 0.35980 0.49540 0.06500
H 	H 	0.45500 0.31860 0.77580 0.04500
H 	H 	0.10220 0.42780 0.64360 0.03100
H 	H 	0.72830 0.85390 0.87450 -0.01100
H 	H 	0.54330 0.85390 0.72830 -0.01100
H 	H 	0.37760 0.00960 0.79140 -0.02300
H 	H 	0.17360 0.35640 0.89780 0.03100
H 	H 	0.68140 0.54500 0.22420 0.04500
H 	H 	0.45670 0.27170 0.14610 -0.01100
H 	H 	0.64020 0.13920 0.71600 0.06600
H 	H 	0.54940 0.22420 0.54500 0.04500
H 	H 	0.22420 0.54940 0.68140 0.04500
H 	H 	0.57220 0.89780 0.35640 0.03100
H 	H 	0.79080 0.69280 0.09060 0.08400
H 	H 	0.13920 0.64020 0.50460 0.06500
H 	H 	0.59150 0.62970 0.84410 0.07400
H 	H 	0.79140 0.00960 0.82140 -0.02200
H 	H 	0.01720 0.52300 0.59880 0.05600
H 	H 	0.13920 0.50460 0.71600 0.06500
H 	H 	0.82140 0.00960 0.37760 -0.02300
H 	H 	0.98280 0.47700 0.13900 0.05600
H 	H 	0.77580 0.45500 0.31860 0.04500
H 	H 	0.40850 0.06530 0.15590 0.07400
H 	H 	0.40120 0.13900 0.47700 0.05600
H 	H 	0.45060 0.77580 0.31860 0.04500
H 	H 	0.71600 0.50460 0.64020 0.06500
H 	H 	0.64360 0.82640 0.10220 0.03100
H 	H 	0.31860 0.77580 0.45500 0.04500
H 	H 	0.45060 0.45500 0.77580 0.04500
H 	H 	0.37030 0.15590 0.06530 0.07400
H 	H 	0.62970 0.93470 0.84410 0.07400
H 	H 	0.62240 0.20860 0.99040 -0.02300
H 	H 	0.79080 0.09060 0.42580 0.08400
H 	H 	0.98280 0.40120 0.47700 0.05600
H 	H 	0.99040 0.20860 0.17860 -0.02200
H 	H 	0.17860 0.62240 0.99040 -0.02300
H 	H 	0.17860 0.99040 0.20860 -0.02200
H 	H 	0.54940 0.68140 0.22420 0.04500
H 	H 	0.89780 0.17360 0.35640 0.03100
H 	H 	0.37030 0.06530 0.40850 0.07400
H 	H 	0.82140 0.79140 0.00960 -0.02200
H 	H 	0.85390 0.87450 0.72830 -0.01100
H 	H 	0.50460 0.64020 0.71600 0.06500
H 	H 	0.31860 0.45060 0.77580 0.04500
H 	H 	0.09060 0.42580 0.79080 0.08400
H 	H 	0.49540 0.86080 0.28400 0.06500
H 	H 	0.09060 0.79080 0.69280 0.08400
H 	H 	0.12550 0.45670 0.14610 -0.01200
H 	H 	0.37760 0.79140 0.82140 -0.02300
H 	H 	0.86080 0.49540 0.35980 0.06500
H 	H 	0.40120 0.47700 0.98280 0.05600
H 	H 	0.00960 0.79140 0.37760 -0.02300
H 	H 	0.42580 0.79080 0.09060 0.08400
H 	H 	0.01720 0.86100 0.52300 0.05600
H 	H 	0.20920 0.30720 0.57420 0.08400
H 	H 	0.45060 0.31860 0.45500 0.04500
H 	H 	0.28400 0.86080 0.35980 0.06600
H 	H 	0.86100 0.52300 0.01720 0.05600
H 	H 	0.13920 0.71600 0.64020 0.06600
H 	H 	0.87450 0.54330 0.72830 -0.01100
H 	H 	0.93470 0.84410 0.62970 0.07400
H 	H 	0.59150 0.93470 0.62970 0.07400
H 	H 	0.79140 0.82140 0.37760 -0.02300
H 	H 	0.20920 0.57420 0.90940 0.08400
H 	H 	0.35640 0.17360 0.57220 0.03100
H 	H 	0.45670 0.14610 0.12550 -0.01200
H 	H 	0.06530 0.40850 0.37030 0.07400
H 	H 	0.35980 0.86080 0.49540 0.06500
H 	H 	0.52300 0.01720 0.86100 0.05600
H 	H 	0.14610 0.27170 0.12550 -0.01100
H 	H 	0.40850 0.37030 0.06530 0.07400
H 	H 	0.59880 0.86100 0.01720 0.05600
H 	H 	0.72830 0.54330 0.85390 -0.01100
H 	H 	0.57220 0.35640 0.17360 0.03100
H 	H 	0.71600 0.64020 0.13920 0.06600
H 	H 	0.00960 0.82140 0.79140 -0.02200
H 	H 	0.50460 0.13920 0.64020 0.06500
H 	H 	0.06530 0.15590 0.40850 0.07400
H 	H 	0.31860 0.45500 0.45060 0.04500
H 	H 	0.22420 0.54500 0.54940 0.04500
H 	H 	0.82640 0.64360 0.42780 0.03100
H 	H 	0.28400 0.49540 0.86080 0.06500
H 	H 	0.20860 0.62240 0.17860 -0.02300
H 	H 	0.22420 0.68140 0.54500 0.04500
H 	H 	0.10220 0.64360 0.82640 0.03100
H 	H 	0.12550 0.27170 0.45670 -0.01100
H 	H 	0.98280 0.13900 0.40120 0.05600
H 	H 	0.17360 0.57220 0.35640 0.03100
H 	H 	0.57420 0.90940 0.20920 0.08400
H 	H 	0.59880 0.01720 0.52300 0.05600
H 	H 	0.82640 0.10220 0.64360 0.03100
H 	H 	0.64360 0.10220 0.42780 0.03100
H 	H 	0.72830 0.87450 0.54330 -0.01100
H 	H 	0.20860 0.99040 0.62240 -0.02300
H 	H 	0.99040 0.62240 0.20860 -0.02300
H 	H 	0.89780 0.57220 0.17360 0.03100
H 	H 	0.64020 0.50460 0.13920 0.06500
H 	H 	0.35640 0.57220 0.89780 0.03100
H 	H 	0.64360 0.42780 0.82640 0.03100
H 	H 	0.06530 0.37030 0.15590 0.07400
H 	H 	0.40850 0.15590 0.37030 0.07400
H 	H 	0.86100 0.59880 0.52300 0.05600
H 	H 	0.14610 0.12550 0.45670 -0.01200
H 	H 	0.00960 0.37760 0.82140 -0.02300
H 	H 	0.57420 0.30720 0.90940 0.08400
H 	H 	0.47700 0.98280 0.40120 0.05600
H 	H 	0.47700 0.13900 0.98280 0.05600
H 	H 	0.17360 0.89780 0.57220 0.03100
H 	H 	0.49540 0.28400 0.35980 0.06500
H 	H 	0.10220 0.82640 0.42780 0.03100
H 	H 	0.93470 0.59150 0.84410 0.07400
H 	H 	0.62970 0.59150 0.93470 0.07400
H 	H 	0.14610 0.45670 0.27170 -0.01100
H 	H 	0.50460 0.71600 0.13920 0.06500
H 	H 	0.42580 0.09060 0.69280 0.08400
H 	H 	0.69280 0.79080 0.42580 0.08400
H 	H 	0.13900 0.98280 0.47700 0.05600
H 	H 	0.90940 0.20920 0.57420 0.08400
H 	H 	0.35980 0.49540 0.28400 0.06500
H 	H 	0.69280 0.09060 0.79080 0.08400
H 	H 	0.30720 0.20920 0.90940 0.08400
H 	H 	0.82140 0.37760 0.79140 -0.02300
H 	H 	0.42780 0.10220 0.82640 0.03100
H 	H 	0.86080 0.35980 0.28400 0.06600
H 	H 	0.47700 0.40120 0.13900 0.05600
H 	H 	0.17860 0.20860 0.62240 -0.02300
H 	H 	0.15590 0.37030 0.40850 0.07400
H 	H 	0.69280 0.42580 0.09060 0.08400
H 	H 	0.59880 0.52300 0.86100 0.05600
H 	H 	0.35640 0.89780 0.17360 0.03100
H 	H 	0.84410 0.59150 0.62970 0.07400
H 	H 	0.37760 0.82140 0.00960 -0.02300
H 	H 	0.35980 0.28400 0.86080 0.06600
H 	H 	0.52300 0.59880 0.01720 0.05600
H 	H 	0.42780 0.64360 0.10220 0.03100
H 	H 	0.64020 0.71600 0.50460 0.06500
H 	H 	0.57220 0.17360 0.89780 0.03100
H 	H 	0.77580 0.45060 0.45500 0.04500
H 	H 	0.79080 0.42580 0.69280 0.08400
H 	H 	0.15590 0.06530 0.37030 0.07400
H 	H 	0.54500 0.54940 0.22420 0.04500
H 	H 	0.62240 0.17860 0.20860 -0.02300
H 	H 	0.54500 0.22420 0.68140 0.04500
H 	H 	0.27170 0.45670 0.12550 -0.01100
H 	H 	0.37030 0.40850 0.15590 0.07400
H 	H 	0.42780 0.82640 0.64360 0.03100
H 	H 	0.54500 0.68140 0.54940 0.04500
H 	H 	0.85390 0.54330 0.87450 -0.01200
H 	H 	0.52300 0.86100 0.59880 0.05600
H 	H 	0.90940 0.30720 0.20920 0.08400
H 	H 	0.27170 0.14610 0.45670 -0.01100
H 	H 	0.13900 0.47700 0.40120 0.05600
H 	H 	0.54330 0.72830 0.87450 -0.01100
H 	H 	0.30720 0.90940 0.57420 0.08400
H 	H 	0.62240 0.99040 0.17860 -0.02300
H 	H 	0.90940 0.57420 0.30720 0.08400
H 	H 	0.12550 0.14610 0.27170 -0.01100
H 	H 	0.49540 0.35980 0.86080 0.06500
H 	H 	0.99040 0.17860 0.62240 -0.02300
H 	H 	0.82640 0.42780 0.10220 0.03100
H 	H 	0.30720 0.57420 0.20920 0.08400
H 	H 	0.59150 0.84410 0.93470 0.07400
H 	H 	0.54330 0.87450 0.85390 -0.01200
H 	H 	0.79140 0.37760 0.00960 -0.02300
H 	H 	0.45500 0.45060 0.31860 0.04500
H 	H 	0.54940 0.54500 0.68140 0.04500
H 	H 	0.45500 0.77580 0.45060 0.04500
H 	H 	0.15590 0.40850 0.06530 0.07400
H 	H 	0.68140 0.54940 0.54500 0.04500
H 	H 	0.40120 0.98280 0.13900 0.05600
H 	H 	0.77580 0.31860 0.45060 0.04500
H 	H 	0.85390 0.72830 0.54330 -0.01100
H 	H 	0.20920 0.90940 0.30720 0.08400
H 	H 	0.42580 0.69280 0.79080 0.08400
H 	H 	0.45670 0.12550 0.27170 -0.01100
H 	H 	0.84410 0.62970 0.93470 0.07400
H 	H 	0.62970 0.84410 0.59150 0.07400
H 	H 	0.89780 0.35640 0.57220 0.03100
H 	H 	0.93470 0.62970 0.59150 0.07400
H 	H 	0.87450 0.85390 0.54330 -0.01200
H 	H 	0.86100 0.01720 0.59880 0.05600
H 	H 	0.01720 0.59880 0.86100 0.05600
H 	H 	0.20860 0.17860 0.99040 -0.02200
H 	H 	0.71600 0.13920 0.50460 0.06500
C 	C 	0.16050 0.33750 0.45190 -0.14500
C 	C 	0.24939 0.82881 0.52259 -0.09100
C 	C 	0.95750 0.19210 0.55030 -0.14800
C 	C 	0.77260 0.27360 0.36920 0.34900
C 	C 	0.94990 0.66250 0.54810 -0.14500
C 	C 	0.59058 0.07022 0.79178 0.02000
C 	C 	0.46721 0.86839 0.26161 -0.08100
C 	C 	0.97980 0.34800 0.18540 0.07300
C 	C 	0.52920 0.89020 0.38460 0.01800
C 	C 	0.17400 0.24140 0.57900 0.08900
C 	C 	0.89020 0.19600 0.38460 0.01800
C 	C 	0.45190 0.05010 0.16050 -0.14600
C 	C 	0.86839 0.40279 0.26161 -0.08200
C 	C 	0.30010 0.19210 0.95750 -0.14600
C 	C 	0.82600 0.99440 0.42100 0.08800
C 	C 	0.17400 0.57900 0.00560 0.08800
C 	C 	0.45258 0.92978 0.20822 0.02000
C 	C 	0.33750 0.16050 0.05010 -0.14500
C 	C 	0.85750 0.90190 0.51950 0.08500
C 	C 	0.45258 0.40942 0.92978 0.02000
C 	C 	0.52920 0.38460 0.19600 0.01800
C 	C 	0.05010 0.16050 0.45190 -0.14600
C 	C 	0.39921 0.52259 0.82881 -0.09100
C 	C 	0.36920 0.27360 0.58460 0.34900
C 	C 	0.44970 0.80790 0.04250 -0.14800
C 	C 	0.59721 0.53279 0.13161 -0.08100
C 	C 	0.23090 0.07590 0.54410 -0.23100
C 	C 	0.85750 0.72110 0.90190 0.08500
C 	C 	0.27890 0.14250 0.09810 0.08500
C 	C 	0.14250 0.09810 0.27890 0.08500
C 	C 	0.81780 0.28220 0.44060 0.01900
C 	C 	0.89020 0.52920 0.19600 0.01800
C 	C 	0.42100 0.75860 0.82600 0.08900
C 	C 	0.52259 0.24939 0.82881 -0.09100
C 	C 	0.60079 0.47741 0.75061 -0.09100
C 	C 	0.80400 0.47080 0.10980 0.01800
C 	C 	0.02020 0.51320 0.81460 0.07400
C 	C 	0.42100 0.82600 0.99440 0.08800
C 	C 	0.94076 0.17544 0.41124 -0.08300
C 	C 	0.90190 0.51950 0.85750 0.08500
C 	C 	0.94990 0.83950 0.66250 -0.14500
C 	C 	0.45258 0.20822 0.40942 0.02000
C 	C 	0.05924 0.82456 0.52744 -0.08300
C 	C 	0.44060 0.45940 0.81780 0.01900
C 	C 	0.81460 0.65200 0.02020 0.07300
C 	C 	0.52744 0.58876 0.05924 -0.08300
C 	C 	0.77260 0.58460 0.27360 0.34900
C 	C 	0.13161 0.73839 0.59721 -0.08200
C 	C 	0.00560 0.24140 0.17400 0.08600
C 	C 	0.53279 0.59721 0.73839 -0.08100
C 	C 	0.47741 0.75061 0.60079 -0.09100
C 	C 	0.16050 0.05010 0.33750 -0.14500
C 	C 	0.59058 0.54742 0.07022 0.02000
C 	C 	0.45590 0.76910 0.85090 -0.23200
C 	C 	0.07590 0.14910 0.54410 -0.23100
C 	C 	0.40279 0.26161 0.86839 -0.08200
C 	C 	0.58876 0.82456 0.05924 -0.08300
C 	C 	0.57900 0.24140 0.00560 0.08800
C 	C 	0.40942 0.92978 0.45258 0.02000
C 	C 	0.26161 0.86839 0.40279 -0.08200
C 	C 	0.80400 0.61540 0.47080 0.01800
C 	C 	0.52744 0.05924 0.82456 -0.08300
C 	C 	0.63080 0.41540 0.72640 0.34900
C 	C 	0.48680 0.97980 0.18540 0.07400
C 	C 	0.09810 0.48050 0.27890 0.08500
C 	C 	0.51950 0.90190 0.72110 0.08500
C 	C 	0.52920 0.19600 0.89020 0.01800
C 	C 	0.65200 0.02020 0.81460 0.07300
C 	C 	0.47256 0.94076 0.41124 -0.08300
C 	C 	0.82881 0.52259 0.24939 -0.09100
C 	C 	0.69990 0.44970 0.04250 -0.14800
C 	C 	0.17400 0.00560 0.24140 0.08600
C 	C 	0.95750 0.30010 0.19210 -0.14600
C 	C 	0.59721 0.13161 0.73839 -0.08200
C 	C 	0.75061 0.17119 0.60079 -0.09100
C 	C 	0.39921 0.24939 0.52259 -0.09100
C 	C 	0.28220 0.81780 0.45940 0.01900
C 	C 	0.72110 0.51950 0.90190 0.08500
C 	C 	0.94990 0.54810 0.83950 -0.14600
C 	C 	0.73839 0.53279 0.59721 -0.08100
C 	C 	0.48050 0.27890 0.09810 0.08500
C 	C 	0.04250 0.80790 0.69990 -0.14600
C 	C 	0.17119 0.75061 0.47741 -0.09100
C 	C 	0.22740 0.63080 0.72640 0.34900
C 	C 	0.14250 0.48050 0.09810 0.08500
C 	C 	0.05924 0.52744 0.58876 -0.08300
C 	C 	0.58460 0.77260 0.36920 0.34900
C 	C 	0.81780 0.45940 0.28220 0.01900
C 	C 	0.61540 0.80400 0.10980 0.01800
C 	C 	0.45190 0.16050 0.33750 -0.14500
C 	C 	0.97980 0.48680 0.34800 0.07400
C 	C 	0.54410 0.14910 0.23090 -0.23200
C 	C 	0.18220 0.54060 0.55940 0.01900
C 	C 	0.18540 0.34800 0.48680 0.07300
C 	C 	0.04250 0.44970 0.80790 -0.14800
C 	C 	0.45190 0.33750 0.05010 -0.14500
C 	C 	0.40942 0.20822 0.92978 0.02000
C 	C 	0.07022 0.59058 0.54742 0.02000
C 	C 	0.19210 0.95750 0.30010 -0.14600
C 	C 	0.86839 0.46721 0.40279 -0.08100
C 	C 	0.54060 0.71780 0.55940 0.01900
C 	C 	0.07022 0.54742 0.79178 0.02000
C 	C 	0.22740 0.41540 0.63080 0.34900
C 	C 	0.92410 0.76910 0.45590 -0.23100
C 	C 	0.55940 0.18220 0.54060 0.01900
C 	C 	0.51320 0.65200 0.81460 0.07300
C 	C 	0.36920 0.58460 0.77260 0.34900
C 	C 	0.14910 0.54410 0.07590 -0.23100
C 	C 	0.58460 0.36920 0.27360 0.34900
C 	C 	0.38460 0.52920 0.89020 0.01800
C 	C 	0.51950 0.72110 0.85750 0.08500
C 	C 	0.51320 0.81460 0.02020 0.07400
C 	C 	0.89020 0.38460 0.52920 0.01800
C 	C 	0.82881 0.24939 0.39921 -0.09100
C 	C 	0.48050 0.09810 0.14250 0.08500
C 	C 	0.48680 0.18540 0.34800 0.07300
C 	C 	0.16050 0.45190 0.05010 -0.14600
C 	C 	0.22740 0.72640 0.41540 0.34900
C 	C 	0.05010 0.45190 0.33750 -0.14500
C 	C 	0.52744 0.82456 0.58876 -0.08300
C 	C 	0.38460 0.89020 0.19600 0.01800
C 	C 	0.85090 0.76910 0.92410 -0.23100
C 	C 	0.80400 0.10980 0.61540 0.01800
C 	C 	0.05010 0.33750 0.16050 -0.14500
C 	C 	0.40942 0.45258 0.20822 0.02000
C 	C 	0.27890 0.09810 0.48050 0.08500
C 	C 	0.20822 0.92978 0.40942 0.02000
C 	C 	0.47741 0.60079 0.17119 -0.09100
C 	C 	0.60079 0.75061 0.17119 -0.09100
C 	C 	0.72640 0.41540 0.22740 0.34900
C 	C 	0.71780 0.54060 0.18220 0.01900
C 	C 	0.85090 0.92410 0.45590 -0.23100
C 	C 	0.92410 0.45590 0.85090 -0.23100
C 	C 	0.82456 0.52744 0.05924 -0.08300
C 	C 	0.79178 0.59058 0.07022 0.02000
C 	C 	0.58876 0.52744 0.82456 -0.08300
C 	C 	0.20822 0.40942 0.45258 0.02000
C 	C 	0.44970 0.69990 0.80790 -0.14800
C 	C 	0.53279 0.13161 0.59721 -0.08100
C 	C 	0.52259 0.39921 0.24939 -0.09100
C 	C 	0.33750 0.45190 0.16050 -0.14500
C 	C 	0.17544 0.94076 0.47256 -0.08300
C 	C 	0.86839 0.26161 0.46721 -0.08100
C 	C 	0.07590 0.54410 0.23090 -0.23100
C 	C 	0.63080 0.72640 0.22740 0.34900
C 	C 	0.27890 0.48050 0.14250 0.08500
C 	C 	0.17544 0.47256 0.41124 -0.08300
C 	C 	0.73839 0.59721 0.13161 -0.08200
C 	C 	0.17119 0.60079 0.75061 -0.09100
C 	C 	0.07022 0.79178 0.59058 0.02000
C 	C 	0.24939 0.39921 0.82881 -0.09100
C 	C 	0.24140 0.17400 0.00560 0.08600
C 	C 	0.41540 0.22740 0.72640 0.34900
C 	C 	0.26161 0.40279 0.46721 -0.08100
C 	C 	0.45940 0.44060 0.28220 0.01900
C 	C 	0.80790 0.04250 0.44970 -0.14800
C 	C 	0.07590 0.23090 0.14910 -0.23100
C 	C 	0.45940 0.81780 0.44060 0.01900
C 	C 	0.48680 0.34800 0.97980 0.07400
C 	C 	0.34800 0.97980 0.48680 0.07400
C 	C 	0.99440 0.82600 0.75860 0.08600
C 	C 	0.14910 0.23090 0.54410 -0.23200
C 	C 	0.18220 0.71780 0.54060 0.01900
C 	C 	0.54810 0.66250 0.83950 -0.14500
C 	C 	0.36920 0.77260 0.27360 0.34900
C 	C 	0.53279 0.73839 0.13161 -0.08100
C 	C 	0.14250 0.27890 0.48050 0.08500
C 	C 	0.04250 0.69990 0.44970 -0.14800
C 	C 	0.66250 0.94990 0.83950 -0.14500
C 	C 	0.34800 0.48680 0.18540 0.07300
C 	C 	0.40279 0.86839 0.46721 -0.08100
C 	C 	0.09810 0.14250 0.48050 0.08500
C 	C 	0.47080 0.80400 0.61540 0.01800
C 	C 	0.92410 0.85090 0.76910 -0.23100
C 	C 	0.72110 0.90190 0.85750 0.08500
C 	C 	0.44970 0.04250 0.69990 -0.14800
C 	C 	0.94076 0.41124 0.47256 -0.08300
C 	C 	0.58460 0.27360 0.77260 0.34900
C 	C 	0.61540 0.47080 0.80400 0.01800
C 	C 	0.75860 0.42100 0.99440 0.08800
C 	C 	0.71780 0.18220 0.55940 0.01900
C 	C 	0.81460 0.02020 0.51320 0.07400
C 	C 	0.00560 0.17400 0.57900 0.08800
C 	C 	0.19210 0.30010 0.55030 -0.14800
C 	C 	0.42100 0.99440 0.75860 0.08800
C 	C 	0.10980 0.80400 0.47080 0.01800
C 	C 	0.80790 0.44970 0.69990 -0.14800
C 	C 	0.55030 0.95750 0.19210 -0.14800
C 	C 	0.83950 0.54810 0.66250 -0.14500
C 	C 	0.19210 0.55030 0.95750 -0.14800
C 	C 	0.47741 0.17119 0.75061 -0.09100
C 	C 	0.44060 0.28220 0.45940 0.01900
C 	C 	0.54742 0.59058 0.79178 0.02000
C 	C 	0.92978 0.45258 0.40942 0.02000
C 	C 	0.94076 0.47256 0.17544 -0.08300
C 	C 	0.24140 0.00560 0.57900 0.08800
C 	C 	0.79178 0.07022 0.54742 0.02000
C 	C 	0.47256 0.17544 0.94076 -0.08300
C 	C 	0.28220 0.45940 0.44060 0.01900
C 	C 	0.10980 0.61540 0.80400 0.01800
C 	C 	0.72640 0.22740 0.63080 0.34900
C 	C 	0.44060 0.81780 0.28220 0.01900
C 	C 	0.19600 0.38460 0.89020 0.01800
C 	C 	0.85090 0.45590 0.76910 -0.23200
C 	C 	0.80790 0.69990 0.04250 -0.14600
C 	C 	0.34800 0.18540 0.97980 0.07300
C 	C 	0.02020 0.81460 0.65200 0.07300
C 	C 	0.33750 0.05010 0.45190 -0.14500
C 	C 	0.54410 0.07590 0.14910 -0.23100
C 	C 	0.66250 0.83950 0.54810 -0.14500
C 	C 	0.75061 0.60079 0.47741 -0.09100
C 	C 	0.09810 0.27890 0.14250 0.08500
C 	C 	0.95750 0.55030 0.30010 -0.14800
C 	C 	0.27360 0.36920 0.77260 0.34900
C 	C 	0.41124 0.94076 0.17544 -0.08300
C 	C 	0.73839 0.13161 0.53279 -0.08100
C 	C 	0.66250 0.54810 0.94990 -0.14500
C 	C 	0.90190 0.85750 0.72110 0.08500
C 	C 	0.30010 0.95750 0.55030 -0.14800
C 	C 	0.81460 0.51320 0.65200 0.07300
C 	C 	0.54810 0.94990 0.66250 -0.14500
C 	C 	0.92978 0.40942 0.20822 0.02000
C 	C 	0.18540 0.97980 0.34800 0.07300
C 	C 	0.75860 0.99440 0.82600 0.08600
C 	C 	0.27360 0.58460 0.36920 0.34900
C 	C 	0.90190 0.72110 0.51950 0.08500
C 	C 	0.10980 0.47080 0.61540 0.01800
C 	C 	0.18540 0.48680 0.97980 0.07400
C 	C 	0.41124 0.47256 0.94076 -0.08300
C 	C 	0.02020 0.65200 0.51320 0.07400
C 	C 	0.82881 0.39921 0.52259 -0.09100
C 	C 	0.77260 0.36920 0.58460 0.34900
C 	C 	0.41540 0.72640 0.63080 0.34900
C 	C 	0.18220 0.55940 0.71780 0.01900
C 	C 	0.57900 0.00560 0.17400 0.08800
C 	C 	0.51320 0.02020 0.65200 0.07400
C 	C 	0.39921 0.82881 0.24939 -0.09100
C 	C 	0.38460 0.19600 0.52920 0.01800
C 	C 	0.20822 0.45258 0.92978 0.02000
C 	C 	0.51950 0.85750 0.90190 0.08500
C 	C 	0.54742 0.79178 0.07022 0.02000
C 	C 	0.54742 0.07022 0.59058 0.02000
C 	C 	0.59058 0.79178 0.54742 0.02000
C 	C 	0.46721 0.40279 0.86839 -0.08100
C 	C 	0.45590 0.92410 0.76910 -0.23100
C 	C 	0.58876 0.05924 0.52744 -0.08300
C 	C 	0.76910 0.85090 0.45590 -0.23200
C 	C 	0.76910 0.45590 0.92410 -0.23100
C 	C 	0.14910 0.07590 0.23090 -0.23100
C 	C 	0.71780 0.55940 0.54060 0.01900
C 	C 	0.19600 0.52920 0.38460 0.01800
C 	C 	0.24140 0.57900 0.17400 0.08900
C 	C 	0.26161 0.46721 0.86839 -0.08100
C 	C 	0.47080 0.61540 0.10980 0.01800
C 	C 	0.92978 0.20822 0.45258 0.02000
C 	C 	0.76910 0.92410 0.85090 -0.23100
C 	C 	0.60079 0.17119 0.47741 -0.09100
C 	C 	0.72640 0.63080 0.41540 0.34900
C 	C 	0.55030 0.30010 0.95750 -0.14800
C 	C 	0.81780 0.44060 0.45940 0.01900
C 	C 	0.13161 0.59721 0.53279 -0.08100
C 	C 	0.47256 0.41124 0.17544 -0.08300
C 	C 	0.79178 0.54742 0.59058 0.02000
C 	C 	0.23090 0.14910 0.07590 -0.23100
C 	C 	0.55940 0.54060 0.71780 0.01900
C 	C 	0.23090 0.54410 0.14910 -0.23200
C 	C 	0.40279 0.46721 0.26161 -0.08100
C 	C 	0.30010 0.55030 0.19210 -0.14800
C 	C 	0.27360 0.77260 0.58460 0.34900
C 	C 	0.61540 0.10980 0.47080 0.01800
C 	C 	0.54410 0.23090 0.07590 -0.23100
C 	C 	0.69990 0.04250 0.80790 -0.14600
C 	C 	0.17544 0.41124 0.94076 -0.08300
C 	C 	0.45590 0.85090 0.92410 -0.23100
C 	C 	0.00560 0.57900 0.24140 0.08800
C 	C 	0.54060 0.55940 0.18220 0.01900
C 	C 	0.13161 0.53279 0.73839 -0.08100
C 	C 	0.65200 0.81460 0.51320 0.07300
C 	C 	0.65200 0.51320 0.02020 0.07400
C 	C 	0.99440 0.75860 0.42100 0.08800
C 	C 	0.83950 0.94990 0.54810 -0.14600
C 	C 	0.17119 0.47741 0.60079 -0.09100
C 	C 	0.82456 0.58876 0.52744 -0.08300
C 	C 	0.99440 0.42100 0.82600 0.08800
C 	C 	0.46721 0.26161 0.40279 -0.08100
C 	C 	0.54060 0.18220 0.71780 0.01900
C 	C 	0.75061 0.47741 0.17119 -0.09100
C 	C 	0.63080 0.22740 0.41540 0.34900
C 	C 	0.55030 0.19210 0.30010 -0.14800
C 	C 	0.05924 0.58876 0.82456 -0.08300
C 	C 	0.83950 0.66250 0.94990 -0.14500
C 	C 	0.41540 0.63080 0.22740 0.34900
C 	C 	0.45940 0.28220 0.81780 0.01900
C 	C 	0.69990 0.80790 0.44970 -0.14800
C 	C 	0.59721 0.73839 0.53279 -0.08100
C 	C 	0.47080 0.10980 0.80400 0.01800
C 	C 	0.24939 0.52259 0.39921 -0.09100
C 	C 	0.97980 0.18540 0.48680 0.07400
C 	C 	0.57900 0.17400 0.24140 0.08900
C 	C 	0.19600 0.89020 0.52920 0.01800
C 	C 	0.28220 0.44060 0.81780 0.01900
C 	C 	0.82600 0.42100 0.75860 0.08900
C 	C 	0.75860 0.82600 0.42100 0.08900
C 	C 	0.82600 0.75860 0.99440 0.08600
C 	C 	0.85750 0.51950 0.72110 0.08500
C 	C 	0.48050 0.14250 0.27890 0.08500
C 	C 	0.55940 0.71780 0.18220 0.01900
C 	C 	0.72110 0.85750 0.51950 0.08500
C 	C 	0.52259 0.82881 0.39921 -0.09100
C 	C 	0.54810 0.83950 0.94990 -0.14600
C 	C 	0.41124 0.17544 0.47256 -0.08300
C 	C 	0.82456 0.05924 0.58876 -0.08300
O 	O 	0.35980 0.75140 0.67100 -0.42400
O 	O 	0.43190 0.67510 0.61390 -0.40600
O 	O 	0.61390 0.43190 0.67510 -0.40600
O 	O 	0.38610 0.32490 0.56810 -0.40600
O 	O 	0.35980 0.21780 0.75140 -0.42400
O 	O 	0.43190 0.27910 0.67510 -0.40600
O 	O 	0.27910 0.61390 0.67510 -0.40600
O 	O 	0.32900 0.78220 0.24860 -0.42400
O 	O 	0.67100 0.35980 0.75140 -0.42400
O 	O 	0.67510 0.61390 0.43190 -0.40600
O 	O 	0.72090 0.32490 0.38610 -0.40600
O 	O 	0.32900 0.24860 0.64020 -0.42400
O 	O 	0.67510 0.27910 0.61390 -0.40600
O 	O 	0.21780 0.35980 0.67100 -0.42400
O 	O 	0.35980 0.67100 0.21780 -0.42400
O 	O 	0.67510 0.43190 0.27910 -0.40600
O 	O 	0.38610 0.56810 0.72090 -0.40600
O 	O 	0.64020 0.78220 0.32900 -0.42400
O 	O 	0.32490 0.72090 0.56810 -0.40600
O 	O 	0.75140 0.21780 0.67100 -0.42400
O 	O 	0.27910 0.43190 0.61390 -0.40600
O 	O 	0.24860 0.64020 0.32900 -0.42400
O 	O 	0.38610 0.72090 0.32490 -0.40600
O 	O 	0.75140 0.35980 0.21780 -0.42400
O 	O 	0.32490 0.38610 0.72090 -0.40600
O 	O 	0.64020 0.24860 0.78220 -0.42400
O 	O 	0.32490 0.56810 0.38610 -0.40600
O 	O 	0.24860 0.32900 0.78220 -0.42400
O 	O 	0.32900 0.64020 0.78220 -0.42400
O 	O 	0.56810 0.72090 0.38610 -0.40600
O 	O 	0.61390 0.67510 0.27910 -0.40600
O 	O 	0.21780 0.67100 0.75140 -0.42400
O 	O 	0.43190 0.61390 0.27910 -0.40600
O 	O 	0.72090 0.56810 0.32490 -0.40600
O 	O 	0.56810 0.32490 0.72090 -0.40600
O 	O 	0.75140 0.67100 0.35980 -0.42400
O 	O 	0.78220 0.32900 0.64020 -0.42400
O 	O 	0.21780 0.75140 0.35980 -0.42400
O 	O 	0.67100 0.21780 0.35980 -0.42400
O 	O 	0.61390 0.27910 0.43190 -0.40600
O 	O 	0.78220 0.24860 0.32900 -0.42400
O 	O 	0.24860 0.78220 0.64020 -0.42400
O 	O 	0.67100 0.75140 0.21780 -0.42400
O 	O 	0.27910 0.67510 0.43190 -0.40600
O 	O 	0.72090 0.38610 0.56810 -0.40600
O 	O 	0.78220 0.64020 0.24860 -0.42400
O 	O 	0.56810 0.38610 0.32490 -0.40600
O 	O 	0.64020 0.32900 0.24860 -0.42400
