data_crystal

_cell_length_a 33.78310
_cell_length_b 33.78310
_cell_length_c 43.45600
_cell_angle_alpha 90.00000
_cell_angle_beta  90.00000
_cell_angle_gamma 120.00000

_symmetry_space_group_name_	'P 1'
_symmetry_space_group_name_H-M	'P 1'

loop_
_symmetry_equiv_pos_as_xyz
  x,y,z

loop_
_atom_site_label
_atom_site_type_symbol
_atom_site_fract_x
_atom_site_fract_y
_atom_site_fract_z
_atom_site_charge
O 	O 	0.45037 0.46784 0.53840 -0.40700
O 	O 	0.48650 0.43080 0.52048 -0.39900
O 	O 	0.43650 0.27730 0.55961 -0.39500
O 	O 	0.38700 0.24980 0.59758 -0.40400
C 	C 	0.26200 0.38260 0.69510 -0.12000
C 	C 	0.22460 0.38400 0.68500 0.09400
C 	C 	0.37911 0.36690 0.60166 -0.00700
C 	C 	0.38170 0.32710 0.60067 0.00500
H 	H 	0.36450 0.30320 0.61450 0.04800
C 	C 	0.40980 0.32280 0.57922 -0.12200
C 	C 	0.43533 0.35820 0.55877 0.04800
H 	H 	0.45430 0.35520 0.54430 0.04800
C 	C 	0.43271 0.39790 0.55976 -0.08200
C 	C 	0.40460 0.40230 0.58121 -0.01300
H 	H 	0.40280 0.42910 0.58190 0.05400
C 	C 	0.21140 0.38330 0.65244 -0.07500
H 	H 	0.22780 0.38300 0.63500 0.06200
C 	C 	0.31560 0.38280 0.73437 -0.08200
H 	H 	0.33750 0.38270 0.72120 0.06500
C 	C 	0.27430 0.38300 0.72590 0.10100
C 	C 	0.45890 0.43550 0.53690 0.35300
C 	C 	0.41090 0.28250 0.57820 0.37200
C 	C 	0.29260 0.37880 0.66932 0.06600
C 	C 	0.33420 0.41640 0.66129 -0.08500
H 	H 	0.34380 0.44490 0.67070 0.06100
C 	C 	0.36180 0.41200 0.63940 -0.03800
H 	H 	0.38990 0.43750 0.63390 0.04700
C 	C 	0.34760 0.37000 0.62547 0.01400
C 	C 	0.30590 0.33230 0.63351 -0.03800
H 	H 	0.29630 0.30390 0.62410 0.04800
C 	C 	0.27839 0.33670 0.65543 -0.08400
H 	H 	0.25020 0.31120 0.66090 0.06200
O 	O 	0.53216 0.98253 0.53840 -0.40700
O 	O 	0.56920 0.05570 0.52048 -0.39900
O 	O 	0.72270 0.15920 0.55961 -0.39500
O 	O 	0.75020 0.13720 0.59758 -0.40400
C 	C 	0.61740 0.87940 0.69510 -0.12000
C 	C 	0.61600 0.84060 0.68500 0.09400
C 	C 	0.63310 0.01221 0.60166 -0.00700
C 	C 	0.67290 0.05460 0.60067 0.00500
H 	H 	0.69680 0.06130 0.61450 0.04700
C 	C 	0.67720 0.08700 0.57922 -0.12300
C 	C 	0.64180 0.07713 0.55877 0.04700
H 	H 	0.64480 0.09910 0.54430 0.04700
C 	C 	0.60210 0.03481 0.55976 -0.08300
C 	C 	0.59770 0.00230 0.58121 -0.01400
H 	H 	0.57090 0.97370 0.58190 0.05300
C 	C 	0.61670 0.82810 0.65244 -0.07600
H 	H 	0.61700 0.84480 0.63500 0.06100
C 	C 	0.61720 0.93280 0.73437 -0.08300
H 	H 	0.61730 0.95480 0.72120 0.06400
C 	C 	0.61700 0.89130 0.72590 0.10000
C 	C 	0.56450 0.02340 0.53690 0.35200
C 	C 	0.71750 0.12840 0.57820 0.37100
C 	C 	0.62120 0.91380 0.66932 0.06500
C 	C 	0.58360 0.91780 0.66129 -0.08600
H 	H 	0.55510 0.89890 0.67070 0.06000
C 	C 	0.58800 0.94980 0.63940 -0.03900
H 	H 	0.56250 0.95240 0.63390 0.04600
C 	C 	0.63000 0.97760 0.62547 0.01300
C 	C 	0.66770 0.97360 0.63351 -0.03900
H 	H 	0.69610 0.99240 0.62410 0.04700
C 	C 	0.66330 0.94169 0.65543 -0.08500
H 	H 	0.68880 0.93900 0.66090 0.06100
O 	O 	0.01747 0.54963 0.53840 -0.40800
O 	O 	0.94430 0.51350 0.52048 -0.40000
O 	O 	0.84080 0.56350 0.55961 -0.39600
O 	O 	0.86280 0.61300 0.59758 -0.40500
C 	C 	0.12060 0.73800 0.69510 -0.12100
C 	C 	0.15940 0.77540 0.68500 0.09300
C 	C 	0.98779 0.62089 0.60166 -0.00800
C 	C 	0.94540 0.61830 0.60067 0.00400
H 	H 	0.93870 0.63550 0.61450 0.04700
C 	C 	0.91300 0.59020 0.57922 -0.12300
C 	C 	0.92287 0.56467 0.55877 0.04700
H 	H 	0.90090 0.54570 0.54430 0.04700
C 	C 	0.96519 0.56729 0.55976 -0.08300
C 	C 	0.99770 0.59540 0.58121 -0.01400
H 	H 	0.02630 0.59720 0.58190 0.05300
C 	C 	0.17190 0.78860 0.65244 -0.07600
H 	H 	0.15520 0.77220 0.63500 0.06100
C 	C 	0.06720 0.68440 0.73437 -0.08300
H 	H 	0.04520 0.66250 0.72120 0.06400
C 	C 	0.10870 0.72570 0.72590 0.10000
C 	C 	0.97660 0.54110 0.53690 0.35200
C 	C 	0.87160 0.58910 0.57820 0.37100
C 	C 	0.08620 0.70740 0.66932 0.06500
C 	C 	0.08220 0.66580 0.66129 -0.08600
H 	H 	0.10110 0.65620 0.67070 0.06000
C 	C 	0.05020 0.63820 0.63940 -0.03900
H 	H 	0.04760 0.61010 0.63390 0.04600
C 	C 	0.02240 0.65240 0.62547 0.01300
C 	C 	0.02640 0.69410 0.63351 -0.03900
H 	H 	0.00760 0.70370 0.62410 0.04700
C 	C 	0.05831 0.72161 0.65543 -0.08500
H 	H 	0.06100 0.74980 0.66090 0.06100
O 	O 	0.54963 0.53216 0.03840 -0.40800
O 	O 	0.51350 0.56920 0.02048 -0.40000
O 	O 	0.56350 0.72270 0.05961 -0.39600
O 	O 	0.61300 0.75020 0.09758 -0.40500
C 	C 	0.73800 0.61740 0.19510 -0.12100
C 	C 	0.77540 0.61600 0.18500 0.09300
C 	C 	0.62089 0.63310 0.10166 -0.00800
C 	C 	0.61830 0.67290 0.10067 0.00400
H 	H 	0.63550 0.69680 0.11450 0.04700
C 	C 	0.59020 0.67720 0.07922 -0.12300
C 	C 	0.56467 0.64180 0.05877 0.04700
H 	H 	0.54570 0.64480 0.04430 0.04700
C 	C 	0.56729 0.60210 0.05976 -0.08300
C 	C 	0.59540 0.59770 0.08121 -0.01400
H 	H 	0.59720 0.57090 0.08190 0.05300
C 	C 	0.78860 0.61670 0.15244 -0.07600
H 	H 	0.77220 0.61700 0.13500 0.06100
C 	C 	0.68440 0.61720 0.23437 -0.08300
H 	H 	0.66250 0.61730 0.22120 0.06400
C 	C 	0.72570 0.61700 0.22590 0.10000
C 	C 	0.54110 0.56450 0.03690 0.35200
C 	C 	0.58910 0.71750 0.07820 0.37100
C 	C 	0.70740 0.62120 0.16932 0.06500
C 	C 	0.66580 0.58360 0.16129 -0.08600
H 	H 	0.65620 0.55510 0.17070 0.06000
C 	C 	0.63820 0.58800 0.13940 -0.03900
H 	H 	0.61010 0.56250 0.13390 0.04600
C 	C 	0.65240 0.63000 0.12547 0.01300
C 	C 	0.69410 0.66770 0.13351 -0.03900
H 	H 	0.70370 0.69610 0.12410 0.04700
C 	C 	0.72161 0.66330 0.15543 -0.08500
H 	H 	0.74980 0.68880 0.16090 0.06100
O 	O 	0.46784 0.01747 0.03840 -0.40800
O 	O 	0.43080 0.94430 0.02048 -0.40000
O 	O 	0.27730 0.84080 0.05961 -0.39600
O 	O 	0.24980 0.86280 0.09758 -0.40500
C 	C 	0.38260 0.12060 0.19510 -0.12100
C 	C 	0.38400 0.15940 0.18500 0.09300
C 	C 	0.36690 0.98779 0.10166 -0.00800
C 	C 	0.32710 0.94540 0.10067 0.00400
H 	H 	0.30320 0.93870 0.11450 0.04700
C 	C 	0.32280 0.91300 0.07922 -0.12300
C 	C 	0.35820 0.92287 0.05877 0.04700
H 	H 	0.35520 0.90090 0.04430 0.04700
C 	C 	0.39790 0.96519 0.05976 -0.08300
C 	C 	0.40230 0.99770 0.08121 -0.01300
H 	H 	0.42910 0.02630 0.08190 0.05300
C 	C 	0.38330 0.17190 0.15244 -0.07600
H 	H 	0.38300 0.15520 0.13500 0.06100
C 	C 	0.38280 0.06720 0.23437 -0.08300
H 	H 	0.38270 0.04520 0.22120 0.06400
C 	C 	0.38300 0.10870 0.22590 0.10000
C 	C 	0.43550 0.97660 0.03690 0.35200
C 	C 	0.28250 0.87160 0.07820 0.37100
C 	C 	0.37880 0.08620 0.16932 0.06500
C 	C 	0.41640 0.08220 0.16129 -0.08600
H 	H 	0.44490 0.10110 0.17070 0.06000
C 	C 	0.41200 0.05020 0.13940 -0.03900
H 	H 	0.43750 0.04760 0.13390 0.04600
C 	C 	0.37000 0.02240 0.12547 0.01300
C 	C 	0.33230 0.02640 0.13351 -0.03900
H 	H 	0.30390 0.00760 0.12410 0.04700
C 	C 	0.33670 0.05831 0.15543 -0.08500
H 	H 	0.31120 0.06100 0.16090 0.06100
O 	O 	0.98253 0.45037 0.03840 -0.40800
O 	O 	0.05570 0.48650 0.02048 -0.40000
O 	O 	0.15920 0.43650 0.05961 -0.39600
O 	O 	0.13720 0.38700 0.09758 -0.40500
C 	C 	0.87940 0.26200 0.19510 -0.12100
C 	C 	0.84060 0.22460 0.18500 0.09300
C 	C 	0.01221 0.37911 0.10166 -0.00800
C 	C 	0.05460 0.38170 0.10067 0.00400
H 	H 	0.06130 0.36450 0.11450 0.04700
C 	C 	0.08700 0.40980 0.07922 -0.12300
C 	C 	0.07713 0.43533 0.05877 0.04700
H 	H 	0.09910 0.45430 0.04430 0.04700
C 	C 	0.03481 0.43271 0.05976 -0.08300
C 	C 	0.00230 0.40460 0.08121 -0.01300
H 	H 	0.97370 0.40280 0.08190 0.05300
C 	C 	0.82810 0.21140 0.15244 -0.07600
H 	H 	0.84480 0.22780 0.13500 0.06100
C 	C 	0.93280 0.31560 0.23437 -0.08300
H 	H 	0.95480 0.33750 0.22120 0.06400
C 	C 	0.89130 0.27430 0.22590 0.10000
C 	C 	0.02340 0.45890 0.03690 0.35200
C 	C 	0.12840 0.41090 0.07820 0.37100
C 	C 	0.91380 0.29260 0.16932 0.06500
C 	C 	0.91780 0.33420 0.16129 -0.08600
H 	H 	0.89890 0.34380 0.17070 0.06000
C 	C 	0.94980 0.36180 0.13940 -0.03900
H 	H 	0.95240 0.38990 0.13390 0.04600
C 	C 	0.97760 0.34760 0.12547 0.01300
C 	C 	0.97360 0.30590 0.13351 -0.03900
H 	H 	0.99240 0.29630 0.12410 0.04700
C 	C 	0.94169 0.27839 0.15543 -0.08500
H 	H 	0.93900 0.25020 0.16090 0.06100
O 	O 	0.46784 0.45037 0.46160 -0.40800
O 	O 	0.43080 0.48650 0.47952 -0.40000
O 	O 	0.27730 0.43650 0.44039 -0.39600
O 	O 	0.24980 0.38700 0.40242 -0.40500
C 	C 	0.38260 0.26200 0.30490 -0.12100
C 	C 	0.38400 0.22460 0.31500 0.09300
C 	C 	0.36690 0.37911 0.39834 -0.00800
C 	C 	0.32710 0.38170 0.39933 0.00400
H 	H 	0.30320 0.36450 0.38550 0.04700
C 	C 	0.32280 0.40980 0.42078 -0.12300
C 	C 	0.35820 0.43533 0.44123 0.04700
H 	H 	0.35520 0.45430 0.45570 0.04700
C 	C 	0.39790 0.43271 0.44024 -0.08300
C 	C 	0.40230 0.40460 0.41879 -0.01400
H 	H 	0.42910 0.40280 0.41810 0.05300
C 	C 	0.38330 0.21140 0.34756 -0.07600
H 	H 	0.38300 0.22780 0.36500 0.06100
C 	C 	0.38280 0.31560 0.26563 -0.08300
H 	H 	0.38270 0.33750 0.27880 0.06400
C 	C 	0.38300 0.27430 0.27410 0.10000
C 	C 	0.43550 0.45890 0.46310 0.35200
C 	C 	0.28250 0.41090 0.42180 0.37100
C 	C 	0.37880 0.29260 0.33068 0.06500
C 	C 	0.41640 0.33420 0.33871 -0.08600
H 	H 	0.44490 0.34380 0.32930 0.06000
C 	C 	0.41200 0.36180 0.36060 -0.03900
H 	H 	0.43750 0.38990 0.36610 0.04600
C 	C 	0.37000 0.34760 0.37453 0.01300
C 	C 	0.33230 0.30590 0.36649 -0.03900
H 	H 	0.30390 0.29630 0.37590 0.04700
C 	C 	0.33670 0.27839 0.34457 -0.08500
H 	H 	0.31120 0.25020 0.33910 0.06100
O 	O 	0.98253 0.53216 0.46160 -0.40800
O 	O 	0.05570 0.56920 0.47952 -0.40000
O 	O 	0.15920 0.72270 0.44039 -0.39600
O 	O 	0.13720 0.75020 0.40242 -0.40500
C 	C 	0.87940 0.61740 0.30490 -0.12100
C 	C 	0.84060 0.61600 0.31500 0.09300
C 	C 	0.01221 0.63310 0.39834 -0.00800
C 	C 	0.05460 0.67290 0.39933 0.00400
H 	H 	0.06130 0.69680 0.38550 0.04700
C 	C 	0.08700 0.67720 0.42078 -0.12300
C 	C 	0.07713 0.64180 0.44123 0.04700
H 	H 	0.09910 0.64480 0.45570 0.04700
C 	C 	0.03481 0.60210 0.44024 -0.08300
C 	C 	0.00230 0.59770 0.41879 -0.01400
H 	H 	0.97370 0.57090 0.41810 0.05300
C 	C 	0.82810 0.61670 0.34756 -0.07600
H 	H 	0.84480 0.61700 0.36500 0.06100
C 	C 	0.93280 0.61720 0.26563 -0.08300
H 	H 	0.95480 0.61730 0.27880 0.06400
C 	C 	0.89130 0.61700 0.27410 0.10000
C 	C 	0.02340 0.56450 0.46310 0.35200
C 	C 	0.12840 0.71750 0.42180 0.37100
C 	C 	0.91380 0.62120 0.33068 0.06500
C 	C 	0.91780 0.58360 0.33871 -0.08600
H 	H 	0.89890 0.55510 0.32930 0.06000
C 	C 	0.94980 0.58800 0.36060 -0.03900
H 	H 	0.95240 0.56250 0.36610 0.04600
C 	C 	0.97760 0.63000 0.37453 0.01300
C 	C 	0.97360 0.66770 0.36649 -0.03900
H 	H 	0.99240 0.69610 0.37590 0.04700
C 	C 	0.94169 0.66330 0.34457 -0.08500
H 	H 	0.93900 0.68880 0.33910 0.06100
O 	O 	0.54963 0.01747 0.46160 -0.40800
O 	O 	0.51350 0.94430 0.47952 -0.40000
O 	O 	0.56350 0.84080 0.44039 -0.39600
O 	O 	0.61300 0.86280 0.40242 -0.40500
C 	C 	0.73800 0.12060 0.30490 -0.12100
C 	C 	0.77540 0.15940 0.31500 0.09300
C 	C 	0.62089 0.98779 0.39834 -0.00800
C 	C 	0.61830 0.94540 0.39933 0.00400
H 	H 	0.63550 0.93870 0.38550 0.04700
C 	C 	0.59020 0.91300 0.42078 -0.12300
C 	C 	0.56467 0.92287 0.44123 0.04700
H 	H 	0.54570 0.90090 0.45570 0.04700
C 	C 	0.56729 0.96519 0.44024 -0.08300
C 	C 	0.59540 0.99770 0.41879 -0.01400
H 	H 	0.59720 0.02630 0.41810 0.05300
C 	C 	0.78860 0.17190 0.34756 -0.07600
H 	H 	0.77220 0.15520 0.36500 0.06100
C 	C 	0.68440 0.06720 0.26563 -0.08300
H 	H 	0.66250 0.04520 0.27880 0.06400
C 	C 	0.72570 0.10870 0.27410 0.10000
C 	C 	0.54110 0.97660 0.46310 0.35200
C 	C 	0.58910 0.87160 0.42180 0.37100
C 	C 	0.70740 0.08620 0.33068 0.06500
C 	C 	0.66580 0.08220 0.33871 -0.08600
H 	H 	0.65620 0.10110 0.32930 0.06000
C 	C 	0.63820 0.05020 0.36060 -0.03900
H 	H 	0.61010 0.04760 0.36610 0.04600
C 	C 	0.65240 0.02240 0.37453 0.01300
C 	C 	0.69410 0.02640 0.36649 -0.03900
H 	H 	0.70370 0.00760 0.37590 0.04700
C 	C 	0.72161 0.05831 0.34457 -0.08500
H 	H 	0.74980 0.06100 0.33910 0.06100
O 	O 	0.53216 0.54963 0.96160 -0.40800
O 	O 	0.56920 0.51350 0.97952 -0.40000
O 	O 	0.72270 0.56350 0.94039 -0.39600
O 	O 	0.75020 0.61300 0.90242 -0.40500
C 	C 	0.61740 0.73800 0.80490 -0.12100
C 	C 	0.61600 0.77540 0.81500 0.09300
C 	C 	0.63310 0.62089 0.89834 -0.00800
C 	C 	0.67290 0.61830 0.89933 0.00400
H 	H 	0.69680 0.63550 0.88550 0.04700
C 	C 	0.67720 0.59020 0.92078 -0.12300
C 	C 	0.64180 0.56467 0.94123 0.04700
H 	H 	0.64480 0.54570 0.95570 0.04700
C 	C 	0.60210 0.56729 0.94024 -0.08300
C 	C 	0.59770 0.59540 0.91879 -0.01400
H 	H 	0.57090 0.59720 0.91810 0.05300
C 	C 	0.61670 0.78860 0.84756 -0.07600
H 	H 	0.61700 0.77220 0.86500 0.06100
C 	C 	0.61720 0.68440 0.76563 -0.08300
H 	H 	0.61730 0.66250 0.77880 0.06400
C 	C 	0.61700 0.72570 0.77410 0.10000
C 	C 	0.56450 0.54110 0.96310 0.35200
C 	C 	0.71750 0.58910 0.92180 0.37100
C 	C 	0.62120 0.70740 0.83068 0.06500
C 	C 	0.58360 0.66580 0.83871 -0.08600
H 	H 	0.55510 0.65620 0.82930 0.06000
C 	C 	0.58800 0.63820 0.86060 -0.03900
H 	H 	0.56250 0.61010 0.86610 0.04600
C 	C 	0.63000 0.65240 0.87453 0.01300
C 	C 	0.66770 0.69410 0.86649 -0.03900
H 	H 	0.69610 0.70370 0.87590 0.04700
C 	C 	0.66330 0.72161 0.84457 -0.08500
H 	H 	0.68880 0.74980 0.83910 0.06100
O 	O 	0.01747 0.46784 0.96160 -0.40800
O 	O 	0.94430 0.43080 0.97952 -0.40000
O 	O 	0.84080 0.27730 0.94039 -0.39600
O 	O 	0.86280 0.24980 0.90242 -0.40500
C 	C 	0.12060 0.38260 0.80490 -0.12100
C 	C 	0.15940 0.38400 0.81500 0.09300
C 	C 	0.98779 0.36690 0.89834 -0.00800
C 	C 	0.94540 0.32710 0.89933 0.00400
H 	H 	0.93870 0.30320 0.88550 0.04700
C 	C 	0.91300 0.32280 0.92078 -0.12300
C 	C 	0.92287 0.35820 0.94123 0.04700
H 	H 	0.90090 0.35520 0.95570 0.04700
C 	C 	0.96519 0.39790 0.94024 -0.08300
C 	C 	0.99770 0.40230 0.91879 -0.01300
H 	H 	0.02630 0.42910 0.91810 0.05300
C 	C 	0.17190 0.38330 0.84756 -0.07600
H 	H 	0.15520 0.38300 0.86500 0.06100
C 	C 	0.06720 0.38280 0.76563 -0.08300
H 	H 	0.04520 0.38270 0.77880 0.06400
C 	C 	0.10870 0.38300 0.77410 0.10000
C 	C 	0.97660 0.43550 0.96310 0.35200
C 	C 	0.87160 0.28250 0.92180 0.37100
C 	C 	0.08620 0.37880 0.83068 0.06500
C 	C 	0.08220 0.41640 0.83871 -0.08600
H 	H 	0.10110 0.44490 0.82930 0.06000
C 	C 	0.05020 0.41200 0.86060 -0.03900
H 	H 	0.04760 0.43750 0.86610 0.04600
C 	C 	0.02240 0.37000 0.87453 0.01300
C 	C 	0.02640 0.33230 0.86649 -0.03900
H 	H 	0.00760 0.30390 0.87590 0.04700
C 	C 	0.05831 0.33670 0.84457 -0.08500
H 	H 	0.06100 0.31120 0.83910 0.06100
O 	O 	0.45037 0.98253 0.96160 -0.40800
O 	O 	0.48650 0.05570 0.97952 -0.40000
O 	O 	0.43650 0.15920 0.94039 -0.39600
O 	O 	0.38700 0.13720 0.90242 -0.40500
C 	C 	0.26200 0.87940 0.80490 -0.12100
C 	C 	0.22460 0.84060 0.81500 0.09300
C 	C 	0.37911 0.01221 0.89834 -0.00800
C 	C 	0.38170 0.05460 0.89933 0.00400
H 	H 	0.36450 0.06130 0.88550 0.04700
C 	C 	0.40980 0.08700 0.92078 -0.12300
C 	C 	0.43533 0.07713 0.94123 0.04700
H 	H 	0.45430 0.09910 0.95570 0.04700
C 	C 	0.43271 0.03481 0.94024 -0.08300
C 	C 	0.40460 0.00230 0.91879 -0.01300
H 	H 	0.40280 0.97370 0.91810 0.05300
C 	C 	0.21140 0.82810 0.84756 -0.07600
H 	H 	0.22780 0.84480 0.86500 0.06100
C 	C 	0.31560 0.93280 0.76563 -0.08300
H 	H 	0.33750 0.95480 0.77880 0.06400
C 	C 	0.27430 0.89130 0.77410 0.10000
C 	C 	0.45890 0.02340 0.96310 0.35200
C 	C 	0.41090 0.12840 0.92180 0.37100
C 	C 	0.29260 0.91380 0.83068 0.06500
C 	C 	0.33420 0.91780 0.83871 -0.08600
H 	H 	0.34380 0.89890 0.82930 0.06000
C 	C 	0.36180 0.94980 0.86060 -0.03900
H 	H 	0.38990 0.95240 0.86610 0.04600
C 	C 	0.34760 0.97760 0.87453 0.01300
C 	C 	0.30590 0.97360 0.86649 -0.03900
H 	H 	0.29630 0.99240 0.87590 0.04700
C 	C 	0.27839 0.94169 0.84457 -0.08500
H 	H 	0.25020 0.93900 0.83910 0.06100
O 	O 	0.54963 0.53216 0.46160 -0.40800
O 	O 	0.51350 0.56920 0.47952 -0.40000
O 	O 	0.56350 0.72270 0.44039 -0.39600
O 	O 	0.61300 0.75020 0.40242 -0.40500
C 	C 	0.73800 0.61740 0.30490 -0.12100
C 	C 	0.77540 0.61600 0.31500 0.09300
C 	C 	0.62089 0.63310 0.39834 -0.00800
C 	C 	0.61830 0.67290 0.39933 0.00400
H 	H 	0.63550 0.69680 0.38550 0.04700
C 	C 	0.59020 0.67720 0.42078 -0.12300
C 	C 	0.56467 0.64180 0.44123 0.04700
H 	H 	0.54570 0.64480 0.45570 0.04700
C 	C 	0.56729 0.60210 0.44024 -0.08300
C 	C 	0.59540 0.59770 0.41879 -0.01400
H 	H 	0.59720 0.57090 0.41810 0.05300
C 	C 	0.78860 0.61670 0.34756 -0.07600
H 	H 	0.77220 0.61700 0.36500 0.06100
C 	C 	0.68440 0.61720 0.26563 -0.08300
H 	H 	0.66250 0.61730 0.27880 0.06400
C 	C 	0.72570 0.61700 0.27410 0.10000
C 	C 	0.54110 0.56450 0.46310 0.35200
C 	C 	0.58910 0.71750 0.42180 0.37100
C 	C 	0.70740 0.62120 0.33068 0.06500
C 	C 	0.66580 0.58360 0.33871 -0.08600
H 	H 	0.65620 0.55510 0.32930 0.06000
C 	C 	0.63820 0.58800 0.36060 -0.03900
H 	H 	0.61010 0.56250 0.36610 0.04600
C 	C 	0.65240 0.63000 0.37453 0.01300
C 	C 	0.69410 0.66770 0.36649 -0.03900
H 	H 	0.70370 0.69610 0.37590 0.04700
C 	C 	0.72161 0.66330 0.34457 -0.08500
H 	H 	0.74980 0.68880 0.33910 0.06100
O 	O 	0.46784 0.01747 0.46160 -0.40800
O 	O 	0.43080 0.94430 0.47952 -0.40000
O 	O 	0.27730 0.84080 0.44039 -0.39600
O 	O 	0.24980 0.86280 0.40242 -0.40500
C 	C 	0.38260 0.12060 0.30490 -0.12100
C 	C 	0.38400 0.15940 0.31500 0.09300
C 	C 	0.36690 0.98779 0.39834 -0.00800
C 	C 	0.32710 0.94540 0.39933 0.00400
H 	H 	0.30320 0.93870 0.38550 0.04700
C 	C 	0.32280 0.91300 0.42078 -0.12300
C 	C 	0.35820 0.92287 0.44123 0.04700
H 	H 	0.35520 0.90090 0.45570 0.04700
C 	C 	0.39790 0.96519 0.44024 -0.08300
C 	C 	0.40230 0.99770 0.41879 -0.01400
H 	H 	0.42910 0.02630 0.41810 0.05300
C 	C 	0.38330 0.17190 0.34756 -0.07600
H 	H 	0.38300 0.15520 0.36500 0.06100
C 	C 	0.38280 0.06720 0.26563 -0.08300
H 	H 	0.38270 0.04520 0.27880 0.06400
C 	C 	0.38300 0.10870 0.27410 0.10000
C 	C 	0.43550 0.97660 0.46310 0.35200
C 	C 	0.28250 0.87160 0.42180 0.37100
C 	C 	0.37880 0.08620 0.33068 0.06500
C 	C 	0.41640 0.08220 0.33871 -0.08600
H 	H 	0.44490 0.10110 0.32930 0.06000
C 	C 	0.41200 0.05020 0.36060 -0.03900
H 	H 	0.43750 0.04760 0.36610 0.04600
C 	C 	0.37000 0.02240 0.37453 0.01300
C 	C 	0.33230 0.02640 0.36649 -0.03900
H 	H 	0.30390 0.00760 0.37590 0.04700
C 	C 	0.33670 0.05831 0.34457 -0.08500
H 	H 	0.31120 0.06100 0.33910 0.06100
O 	O 	0.98253 0.45037 0.46160 -0.40800
O 	O 	0.05570 0.48650 0.47952 -0.40000
O 	O 	0.15920 0.43650 0.44039 -0.39600
O 	O 	0.13720 0.38700 0.40242 -0.40500
C 	C 	0.87940 0.26200 0.30490 -0.12100
C 	C 	0.84060 0.22460 0.31500 0.09300
C 	C 	0.01221 0.37911 0.39834 -0.00800
C 	C 	0.05460 0.38170 0.39933 0.00400
H 	H 	0.06130 0.36450 0.38550 0.04700
C 	C 	0.08700 0.40980 0.42078 -0.12300
C 	C 	0.07713 0.43533 0.44123 0.04700
H 	H 	0.09910 0.45430 0.45570 0.04700
C 	C 	0.03481 0.43271 0.44024 -0.08300
C 	C 	0.00230 0.40460 0.41879 -0.01400
H 	H 	0.97370 0.40280 0.41810 0.05300
C 	C 	0.82810 0.21140 0.34756 -0.07600
H 	H 	0.84480 0.22780 0.36500 0.06100
C 	C 	0.93280 0.31560 0.26563 -0.08300
H 	H 	0.95480 0.33750 0.27880 0.06400
C 	C 	0.89130 0.27430 0.27410 0.10000
C 	C 	0.02340 0.45890 0.46310 0.35200
C 	C 	0.12840 0.41090 0.42180 0.37100
C 	C 	0.91380 0.29260 0.33068 0.06500
C 	C 	0.91780 0.33420 0.33871 -0.08600
H 	H 	0.89890 0.34380 0.32930 0.06000
C 	C 	0.94980 0.36180 0.36060 -0.03900
H 	H 	0.95240 0.38990 0.36610 0.04600
C 	C 	0.97760 0.34760 0.37453 0.01300
C 	C 	0.97360 0.30590 0.36649 -0.03900
H 	H 	0.99240 0.29630 0.37590 0.04700
C 	C 	0.94169 0.27839 0.34457 -0.08500
H 	H 	0.93900 0.25020 0.33910 0.06100
O 	O 	0.45037 0.46784 0.96160 -0.40800
O 	O 	0.48650 0.43080 0.97952 -0.40000
O 	O 	0.43650 0.27730 0.94039 -0.39600
O 	O 	0.38700 0.24980 0.90242 -0.40500
C 	C 	0.26200 0.38260 0.80490 -0.12100
C 	C 	0.22460 0.38400 0.81500 0.09300
C 	C 	0.37911 0.36690 0.89834 -0.00800
C 	C 	0.38170 0.32710 0.89933 0.00400
H 	H 	0.36450 0.30320 0.88550 0.04700
C 	C 	0.40980 0.32280 0.92078 -0.12300
C 	C 	0.43533 0.35820 0.94123 0.04700
H 	H 	0.45430 0.35520 0.95570 0.04700
C 	C 	0.43271 0.39790 0.94024 -0.08300
C 	C 	0.40460 0.40230 0.91879 -0.01400
H 	H 	0.40280 0.42910 0.91810 0.05300
C 	C 	0.21140 0.38330 0.84756 -0.07600
H 	H 	0.22780 0.38300 0.86500 0.06100
C 	C 	0.31560 0.38280 0.76563 -0.08300
H 	H 	0.33750 0.38270 0.77880 0.06400
C 	C 	0.27430 0.38300 0.77410 0.10000
C 	C 	0.45890 0.43550 0.96310 0.35200
C 	C 	0.41090 0.28250 0.92180 0.37100
C 	C 	0.29260 0.37880 0.83068 0.06500
C 	C 	0.33420 0.41640 0.83871 -0.08600
H 	H 	0.34380 0.44490 0.82930 0.06000
C 	C 	0.36180 0.41200 0.86060 -0.03900
H 	H 	0.38990 0.43750 0.86610 0.04600
C 	C 	0.34760 0.37000 0.87453 0.01300
C 	C 	0.30590 0.33230 0.86649 -0.03900
H 	H 	0.29630 0.30390 0.87590 0.04700
C 	C 	0.27839 0.33670 0.84457 -0.08500
H 	H 	0.25020 0.31120 0.83910 0.06100
O 	O 	0.53216 0.98253 0.96160 -0.40800
O 	O 	0.56920 0.05570 0.97952 -0.40000
O 	O 	0.72270 0.15920 0.94039 -0.39600
O 	O 	0.75020 0.13720 0.90242 -0.40500
C 	C 	0.61740 0.87940 0.80490 -0.12100
C 	C 	0.61600 0.84060 0.81500 0.09300
C 	C 	0.63310 0.01221 0.89834 -0.00800
C 	C 	0.67290 0.05460 0.89933 0.00400
H 	H 	0.69680 0.06130 0.88550 0.04700
C 	C 	0.67720 0.08700 0.92078 -0.12300
C 	C 	0.64180 0.07713 0.94123 0.04700
H 	H 	0.64480 0.09910 0.95570 0.04700
C 	C 	0.60210 0.03481 0.94024 -0.08300
C 	C 	0.59770 0.00230 0.91879 -0.01300
H 	H 	0.57090 0.97370 0.91810 0.05300
C 	C 	0.61670 0.82810 0.84756 -0.07600
H 	H 	0.61700 0.84480 0.86500 0.06100
C 	C 	0.61720 0.93280 0.76563 -0.08300
H 	H 	0.61730 0.95480 0.77880 0.06400
C 	C 	0.61700 0.89130 0.77410 0.10000
C 	C 	0.56450 0.02340 0.96310 0.35200
C 	C 	0.71750 0.12840 0.92180 0.37100
C 	C 	0.62120 0.91380 0.83068 0.06500
C 	C 	0.58360 0.91780 0.83871 -0.08600
H 	H 	0.55510 0.89890 0.82930 0.06000
C 	C 	0.58800 0.94980 0.86060 -0.03900
H 	H 	0.56250 0.95240 0.86610 0.04600
C 	C 	0.63000 0.97760 0.87453 0.01300
C 	C 	0.66770 0.97360 0.86649 -0.03900
H 	H 	0.69610 0.99240 0.87590 0.04700
C 	C 	0.66330 0.94169 0.84457 -0.08500
H 	H 	0.68880 0.93900 0.83910 0.06100
O 	O 	0.01747 0.54963 0.96160 -0.40800
O 	O 	0.94430 0.51350 0.97952 -0.40000
O 	O 	0.84080 0.56350 0.94039 -0.39600
O 	O 	0.86280 0.61300 0.90242 -0.40500
C 	C 	0.12060 0.73800 0.80490 -0.12100
C 	C 	0.15940 0.77540 0.81500 0.09300
C 	C 	0.98779 0.62089 0.89834 -0.00800
C 	C 	0.94540 0.61830 0.89933 0.00400
H 	H 	0.93870 0.63550 0.88550 0.04700
C 	C 	0.91300 0.59020 0.92078 -0.12300
C 	C 	0.92287 0.56467 0.94123 0.04700
H 	H 	0.90090 0.54570 0.95570 0.04700
C 	C 	0.96519 0.56729 0.94024 -0.08300
C 	C 	0.99770 0.59540 0.91879 -0.01300
H 	H 	0.02630 0.59720 0.91810 0.05300
C 	C 	0.17190 0.78860 0.84756 -0.07600
H 	H 	0.15520 0.77220 0.86500 0.06100
C 	C 	0.06720 0.68440 0.76563 -0.08300
H 	H 	0.04520 0.66250 0.77880 0.06400
C 	C 	0.10870 0.72570 0.77410 0.10000
C 	C 	0.97660 0.54110 0.96310 0.35200
C 	C 	0.87160 0.58910 0.92180 0.37100
C 	C 	0.08620 0.70740 0.83068 0.06500
C 	C 	0.08220 0.66580 0.83871 -0.08600
H 	H 	0.10110 0.65620 0.82930 0.06000
C 	C 	0.05020 0.63820 0.86060 -0.03900
H 	H 	0.04760 0.61010 0.86610 0.04600
C 	C 	0.02240 0.65240 0.87453 0.01300
C 	C 	0.02640 0.69410 0.86649 -0.03900
H 	H 	0.00760 0.70370 0.87590 0.04700
C 	C 	0.05831 0.72161 0.84457 -0.08500
H 	H 	0.06100 0.74980 0.83910 0.06100
O 	O 	0.53216 0.54963 0.53840 -0.40800
O 	O 	0.56920 0.51350 0.52048 -0.40000
O 	O 	0.72270 0.56350 0.55961 -0.39600
O 	O 	0.75020 0.61300 0.59758 -0.40500
C 	C 	0.61740 0.73800 0.69510 -0.12100
C 	C 	0.61600 0.77540 0.68500 0.09300
C 	C 	0.63310 0.62089 0.60166 -0.00800
C 	C 	0.67290 0.61830 0.60067 0.00400
H 	H 	0.69680 0.63550 0.61450 0.04700
C 	C 	0.67720 0.59020 0.57922 -0.12300
C 	C 	0.64180 0.56467 0.55877 0.04700
H 	H 	0.64480 0.54570 0.54430 0.04700
C 	C 	0.60210 0.56729 0.55976 -0.08300
C 	C 	0.59770 0.59540 0.58121 -0.01400
H 	H 	0.57090 0.59720 0.58190 0.05300
C 	C 	0.61670 0.78860 0.65244 -0.07600
H 	H 	0.61700 0.77220 0.63500 0.06100
C 	C 	0.61720 0.68440 0.73437 -0.08300
H 	H 	0.61730 0.66250 0.72120 0.06400
C 	C 	0.61700 0.72570 0.72590 0.10000
C 	C 	0.56450 0.54110 0.53690 0.35200
C 	C 	0.71750 0.58910 0.57820 0.37100
C 	C 	0.62120 0.70740 0.66932 0.06500
C 	C 	0.58360 0.66580 0.66129 -0.08600
H 	H 	0.55510 0.65620 0.67070 0.06000
C 	C 	0.58800 0.63820 0.63940 -0.03900
H 	H 	0.56250 0.61010 0.63390 0.04600
C 	C 	0.63000 0.65240 0.62547 0.01300
C 	C 	0.66770 0.69410 0.63351 -0.03900
H 	H 	0.69610 0.70370 0.62410 0.04700
C 	C 	0.66330 0.72161 0.65543 -0.08500
H 	H 	0.68880 0.74980 0.66090 0.06100
O 	O 	0.01747 0.46784 0.53840 -0.40800
O 	O 	0.94430 0.43080 0.52048 -0.40000
O 	O 	0.84080 0.27730 0.55961 -0.39600
O 	O 	0.86280 0.24980 0.59758 -0.40500
C 	C 	0.12060 0.38260 0.69510 -0.12100
C 	C 	0.15940 0.38400 0.68500 0.09300
C 	C 	0.98779 0.36690 0.60166 -0.00800
C 	C 	0.94540 0.32710 0.60067 0.00400
H 	H 	0.93870 0.30320 0.61450 0.04700
C 	C 	0.91300 0.32280 0.57922 -0.12300
C 	C 	0.92287 0.35820 0.55877 0.04700
H 	H 	0.90090 0.35520 0.54430 0.04700
C 	C 	0.96519 0.39790 0.55976 -0.08300
C 	C 	0.99770 0.40230 0.58121 -0.01400
H 	H 	0.02630 0.42910 0.58190 0.05300
C 	C 	0.17190 0.38330 0.65244 -0.07600
H 	H 	0.15520 0.38300 0.63500 0.06100
C 	C 	0.06720 0.38280 0.73437 -0.08300
H 	H 	0.04520 0.38270 0.72120 0.06400
C 	C 	0.10870 0.38300 0.72590 0.10000
C 	C 	0.97660 0.43550 0.53690 0.35200
C 	C 	0.87160 0.28250 0.57820 0.37100
C 	C 	0.08620 0.37880 0.66932 0.06500
C 	C 	0.08220 0.41640 0.66129 -0.08600
H 	H 	0.10110 0.44490 0.67070 0.06000
C 	C 	0.05020 0.41200 0.63940 -0.03900
H 	H 	0.04760 0.43750 0.63390 0.04600
C 	C 	0.02240 0.37000 0.62547 0.01300
C 	C 	0.02640 0.33230 0.63351 -0.03900
H 	H 	0.00760 0.30390 0.62410 0.04700
C 	C 	0.05831 0.33670 0.65543 -0.08500
H 	H 	0.06100 0.31120 0.66090 0.06100
O 	O 	0.45037 0.98253 0.53840 -0.40800
O 	O 	0.48650 0.05570 0.52048 -0.40000
O 	O 	0.43650 0.15920 0.55961 -0.39600
O 	O 	0.38700 0.13720 0.59758 -0.40500
C 	C 	0.26200 0.87940 0.69510 -0.12100
C 	C 	0.22460 0.84060 0.68500 0.09300
C 	C 	0.37911 0.01221 0.60166 -0.00800
C 	C 	0.38170 0.05460 0.60067 0.00400
H 	H 	0.36450 0.06130 0.61450 0.04700
C 	C 	0.40980 0.08700 0.57922 -0.12300
C 	C 	0.43533 0.07713 0.55877 0.04700
H 	H 	0.45430 0.09910 0.54430 0.04700
C 	C 	0.43271 0.03481 0.55976 -0.08300
C 	C 	0.40460 0.00230 0.58121 -0.01400
H 	H 	0.40280 0.97370 0.58190 0.05300
C 	C 	0.21140 0.82810 0.65244 -0.07600
H 	H 	0.22780 0.84480 0.63500 0.06100
C 	C 	0.31560 0.93280 0.73437 -0.08300
H 	H 	0.33750 0.95480 0.72120 0.06400
C 	C 	0.27430 0.89130 0.72590 0.10000
C 	C 	0.45890 0.02340 0.53690 0.35200
C 	C 	0.41090 0.12840 0.57820 0.37100
C 	C 	0.29260 0.91380 0.66932 0.06500
C 	C 	0.33420 0.91780 0.66129 -0.08600
H 	H 	0.34380 0.89890 0.67070 0.06000
C 	C 	0.36180 0.94980 0.63940 -0.03900
H 	H 	0.38990 0.95240 0.63390 0.04600
C 	C 	0.34760 0.97760 0.62547 0.01300
C 	C 	0.30590 0.97360 0.63351 -0.03900
H 	H 	0.29630 0.99240 0.62410 0.04700
C 	C 	0.27839 0.94169 0.65543 -0.08500
H 	H 	0.25020 0.93900 0.66090 0.06100
O 	O 	0.46784 0.45037 0.03840 -0.40800
O 	O 	0.43080 0.48650 0.02048 -0.40000
O 	O 	0.27730 0.43650 0.05961 -0.39600
O 	O 	0.24980 0.38700 0.09758 -0.40500
C 	C 	0.38260 0.26200 0.19510 -0.12100
C 	C 	0.38400 0.22460 0.18500 0.09300
C 	C 	0.36690 0.37911 0.10166 -0.00800
C 	C 	0.32710 0.38170 0.10067 0.00400
H 	H 	0.30320 0.36450 0.11450 0.04700
C 	C 	0.32280 0.40980 0.07922 -0.12300
C 	C 	0.35820 0.43533 0.05877 0.04700
H 	H 	0.35520 0.45430 0.04430 0.04700
C 	C 	0.39790 0.43271 0.05976 -0.08300
C 	C 	0.40230 0.40460 0.08121 -0.01400
H 	H 	0.42910 0.40280 0.08190 0.05300
C 	C 	0.38330 0.21140 0.15244 -0.07600
H 	H 	0.38300 0.22780 0.13500 0.06100
C 	C 	0.38280 0.31560 0.23437 -0.08300
H 	H 	0.38270 0.33750 0.22120 0.06400
C 	C 	0.38300 0.27430 0.22590 0.10000
C 	C 	0.43550 0.45890 0.03690 0.35200
C 	C 	0.28250 0.41090 0.07820 0.37100
C 	C 	0.37880 0.29260 0.16932 0.06500
C 	C 	0.41640 0.33420 0.16129 -0.08600
H 	H 	0.44490 0.34380 0.17070 0.06000
C 	C 	0.41200 0.36180 0.13940 -0.03900
H 	H 	0.43750 0.38990 0.13390 0.04600
C 	C 	0.37000 0.34760 0.12547 0.01300
C 	C 	0.33230 0.30590 0.13351 -0.03900
H 	H 	0.30390 0.29630 0.12410 0.04700
C 	C 	0.33670 0.27839 0.15543 -0.08500
H 	H 	0.31120 0.25020 0.16090 0.06100
O 	O 	0.98253 0.53216 0.03840 -0.40800
O 	O 	0.05570 0.56920 0.02048 -0.40000
O 	O 	0.15920 0.72270 0.05961 -0.39600
O 	O 	0.13720 0.75020 0.09758 -0.40500
C 	C 	0.87940 0.61740 0.19510 -0.12100
C 	C 	0.84060 0.61600 0.18500 0.09300
C 	C 	0.01221 0.63310 0.10166 -0.00800
C 	C 	0.05460 0.67290 0.10067 0.00400
H 	H 	0.06130 0.69680 0.11450 0.04700
C 	C 	0.08700 0.67720 0.07922 -0.12300
C 	C 	0.07713 0.64180 0.05877 0.04700
H 	H 	0.09910 0.64480 0.04430 0.04700
C 	C 	0.03481 0.60210 0.05976 -0.08300
C 	C 	0.00230 0.59770 0.08121 -0.01300
H 	H 	0.97370 0.57090 0.08190 0.05300
C 	C 	0.82810 0.61670 0.15244 -0.07600
H 	H 	0.84480 0.61700 0.13500 0.06100
C 	C 	0.93280 0.61720 0.23437 -0.08300
H 	H 	0.95480 0.61730 0.22120 0.06400
C 	C 	0.89130 0.61700 0.22590 0.10000
C 	C 	0.02340 0.56450 0.03690 0.35200
C 	C 	0.12840 0.71750 0.07820 0.37100
C 	C 	0.91380 0.62120 0.16932 0.06500
C 	C 	0.91780 0.58360 0.16129 -0.08600
H 	H 	0.89890 0.55510 0.17070 0.06000
C 	C 	0.94980 0.58800 0.13940 -0.03900
H 	H 	0.95240 0.56250 0.13390 0.04600
C 	C 	0.97760 0.63000 0.12547 0.01300
C 	C 	0.97360 0.66770 0.13351 -0.03900
H 	H 	0.99240 0.69610 0.12410 0.04700
C 	C 	0.94169 0.66330 0.15543 -0.08500
H 	H 	0.93900 0.68880 0.16090 0.06100
O 	O 	0.54963 0.01747 0.03840 -0.40800
O 	O 	0.51350 0.94430 0.02048 -0.40000
O 	O 	0.56350 0.84080 0.05961 -0.39600
O 	O 	0.61300 0.86280 0.09758 -0.40500
C 	C 	0.73800 0.12060 0.19510 -0.12100
C 	C 	0.77540 0.15940 0.18500 0.09300
C 	C 	0.62089 0.98779 0.10166 -0.00800
C 	C 	0.61830 0.94540 0.10067 0.00400
H 	H 	0.63550 0.93870 0.11450 0.04700
C 	C 	0.59020 0.91300 0.07922 -0.12300
C 	C 	0.56467 0.92287 0.05877 0.04700
H 	H 	0.54570 0.90090 0.04430 0.04700
C 	C 	0.56729 0.96519 0.05976 -0.08300
C 	C 	0.59540 0.99770 0.08121 -0.01300
H 	H 	0.59720 0.02630 0.08190 0.05300
C 	C 	0.78860 0.17190 0.15244 -0.07600
H 	H 	0.77220 0.15520 0.13500 0.06100
C 	C 	0.68440 0.06720 0.23437 -0.08300
H 	H 	0.66250 0.04520 0.22120 0.06400
C 	C 	0.72570 0.10870 0.22590 0.10000
C 	C 	0.54110 0.97660 0.03690 0.35200
C 	C 	0.58910 0.87160 0.07820 0.37100
C 	C 	0.70740 0.08620 0.16932 0.06500
C 	C 	0.66580 0.08220 0.16129 -0.08600
H 	H 	0.65620 0.10110 0.17070 0.06000
C 	C 	0.63820 0.05020 0.13940 -0.03900
H 	H 	0.61010 0.04760 0.13390 0.04600
C 	C 	0.65240 0.02240 0.12547 0.01300
C 	C 	0.69410 0.02640 0.13351 -0.03900
H 	H 	0.70370 0.00760 0.12410 0.04700
C 	C 	0.72161 0.05831 0.15543 -0.08500
H 	H 	0.74980 0.06100 0.16090 0.06100
Cu	Cu	0.47876 0.52124 0.51088 0.89800
Cu	Cu	0.47876 0.95752 0.51088 0.89800
Cu	Cu	0.04248 0.52124 0.51088 0.89800
Cu	Cu	0.52124 0.47876 0.01088 0.89800
Cu	Cu	0.52124 0.04248 0.01088 0.89800
Cu	Cu	0.95752 0.47876 0.01088 0.89800
Cu	Cu	0.52124 0.47876 0.48912 0.89800
Cu	Cu	0.95752 0.47876 0.48912 0.89800
Cu	Cu	0.52124 0.04248 0.48912 0.89800
Cu	Cu	0.47876 0.52124 0.98912 0.89800
Cu	Cu	0.04248 0.52124 0.98912 0.89800
Cu	Cu	0.47876 0.95752 0.98912 0.89800
Cu	Cu	0.38211 0.19105 0.59988 0.91200
Cu	Cu	0.44310 0.22155 0.55586 0.90100
O 	O 	0.43740 0.21870 0.62640 -0.41900
O 	O 	0.39050 0.19525 0.52730 -0.43900
C 	C 	0.35090 0.17545 0.53660 0.48900
H 	H 	0.32710 0.16355 0.52200 -0.10300
C 	C 	0.47890 0.23945 0.61840 0.46700
H 	H 	0.50230 0.25115 0.63330 -0.09500
O 	O 	0.34100 0.17050 0.56400 -0.44800
O 	O 	0.48790 0.24395 0.59110 -0.42900
Cu	Cu	0.80895 0.19105 0.59988 0.91200
Cu	Cu	0.77845 0.22155 0.55586 0.90100
O 	O 	0.78130 0.21870 0.62640 -0.41900
O 	O 	0.80475 0.19525 0.52730 -0.43900
C 	C 	0.82455 0.17545 0.53660 0.48900
H 	H 	0.83645 0.16355 0.52200 -0.10300
C 	C 	0.76055 0.23945 0.61840 0.46700
H 	H 	0.74885 0.25115 0.63330 -0.09500
O 	O 	0.82950 0.17050 0.56400 -0.44800
O 	O 	0.75605 0.24395 0.59110 -0.42900
Cu	Cu	0.80895 0.61789 0.59988 0.91200
Cu	Cu	0.77845 0.55690 0.55586 0.90100
O 	O 	0.78130 0.56260 0.62640 -0.41900
O 	O 	0.80475 0.60950 0.52730 -0.43900
C 	C 	0.82455 0.64910 0.53660 0.48900
H 	H 	0.83645 0.67290 0.52200 -0.10300
C 	C 	0.76055 0.52110 0.61840 0.46700
H 	H 	0.74885 0.49770 0.63330 -0.09500
O 	O 	0.82950 0.65900 0.56400 -0.44800
O 	O 	0.75605 0.51210 0.59110 -0.42900
Cu	Cu	0.61789 0.80895 0.09988 0.91200
Cu	Cu	0.55690 0.77845 0.05586 0.90100
O 	O 	0.56260 0.78130 0.12640 -0.41900
O 	O 	0.60950 0.80475 0.02730 -0.43900
C 	C 	0.64910 0.82455 0.03660 0.48900
H 	H 	0.67290 0.83645 0.02200 -0.10300
C 	C 	0.52110 0.76055 0.11840 0.46700
H 	H 	0.49770 0.74885 0.13330 -0.09500
O 	O 	0.65900 0.82950 0.06400 -0.44800
O 	O 	0.51210 0.75605 0.09110 -0.42900
Cu	Cu	0.19105 0.80894 0.09988 0.91200
Cu	Cu	0.22155 0.77845 0.05586 0.90100
O 	O 	0.21870 0.78130 0.12640 -0.41900
O 	O 	0.19525 0.80475 0.02730 -0.43900
C 	C 	0.17545 0.82455 0.03660 0.48900
H 	H 	0.16355 0.83645 0.02200 -0.10300
C 	C 	0.23945 0.76055 0.11840 0.46700
H 	H 	0.25115 0.74885 0.13330 -0.09500
O 	O 	0.17050 0.82950 0.06400 -0.44800
O 	O 	0.24395 0.75605 0.09110 -0.42900
Cu	Cu	0.19106 0.38211 0.09988 0.91200
Cu	Cu	0.22155 0.44310 0.05586 0.90100
O 	O 	0.21870 0.43740 0.12640 -0.41900
O 	O 	0.19525 0.39050 0.02730 -0.43900
C 	C 	0.17545 0.35090 0.03660 0.48900
H 	H 	0.16355 0.32710 0.02200 -0.10300
C 	C 	0.23945 0.47890 0.11840 0.46700
H 	H 	0.25115 0.50230 0.13330 -0.09500
O 	O 	0.17050 0.34100 0.06400 -0.44800
O 	O 	0.24395 0.48790 0.09110 -0.42900
Cu	Cu	0.19105 0.38211 0.40012 0.91200
Cu	Cu	0.22155 0.44310 0.44414 0.90100
O 	O 	0.21870 0.43740 0.37360 -0.41900
O 	O 	0.19525 0.39050 0.47270 -0.43900
C 	C 	0.17545 0.35090 0.46340 0.48900
H 	H 	0.16355 0.32710 0.47800 -0.10300
C 	C 	0.23945 0.47890 0.38160 0.46700
H 	H 	0.25115 0.50230 0.36670 -0.09500
O 	O 	0.17050 0.34100 0.43600 -0.44800
O 	O 	0.24395 0.48790 0.40890 -0.42900
Cu	Cu	0.19106 0.80895 0.40012 0.91200
Cu	Cu	0.22155 0.77845 0.44414 0.90100
O 	O 	0.21870 0.78130 0.37360 -0.41900
O 	O 	0.19525 0.80475 0.47270 -0.43900
C 	C 	0.17545 0.82455 0.46340 0.48900
H 	H 	0.16355 0.83645 0.47800 -0.10300
C 	C 	0.23945 0.76055 0.38160 0.46700
H 	H 	0.25115 0.74885 0.36670 -0.09500
O 	O 	0.17050 0.82950 0.43600 -0.44800
O 	O 	0.24395 0.75605 0.40890 -0.42900
Cu	Cu	0.61789 0.80894 0.40012 0.91200
Cu	Cu	0.55690 0.77845 0.44414 0.90100
O 	O 	0.56260 0.78130 0.37360 -0.41900
O 	O 	0.60950 0.80475 0.47270 -0.43900
C 	C 	0.64910 0.82455 0.46340 0.48900
H 	H 	0.67290 0.83645 0.47800 -0.10300
C 	C 	0.52110 0.76055 0.38160 0.46700
H 	H 	0.49770 0.74885 0.36670 -0.09500
O 	O 	0.65900 0.82950 0.43600 -0.44800
O 	O 	0.51210 0.75605 0.40890 -0.42900
Cu	Cu	0.80895 0.61789 0.90012 0.91200
Cu	Cu	0.77845 0.55690 0.94414 0.90100
O 	O 	0.78130 0.56260 0.87360 -0.41900
O 	O 	0.80475 0.60950 0.97270 -0.43900
C 	C 	0.82455 0.64910 0.96340 0.48900
H 	H 	0.83645 0.67290 0.97800 -0.10300
C 	C 	0.76055 0.52110 0.88160 0.46700
H 	H 	0.74885 0.49770 0.86670 -0.09500
O 	O 	0.82950 0.65900 0.93600 -0.44800
O 	O 	0.75605 0.51210 0.90890 -0.42900
Cu	Cu	0.80895 0.19105 0.90012 0.91200
Cu	Cu	0.77845 0.22155 0.94414 0.90100
O 	O 	0.78130 0.21870 0.87360 -0.41900
O 	O 	0.80475 0.19525 0.97270 -0.43900
C 	C 	0.82455 0.17545 0.96340 0.48900
H 	H 	0.83645 0.16355 0.97800 -0.10300
C 	C 	0.76055 0.23945 0.88160 0.46700
H 	H 	0.74885 0.25115 0.86670 -0.09500
O 	O 	0.82950 0.17050 0.93600 -0.44800
O 	O 	0.75605 0.24395 0.90890 -0.42900
Cu	Cu	0.38211 0.19105 0.90012 0.91200
Cu	Cu	0.44310 0.22155 0.94414 0.90100
O 	O 	0.43740 0.21870 0.87360 -0.41900
O 	O 	0.39050 0.19525 0.97270 -0.43900
C 	C 	0.35090 0.17545 0.96340 0.48900
H 	H 	0.32710 0.16355 0.97800 -0.10300
C 	C 	0.47890 0.23945 0.88160 0.46700
H 	H 	0.50230 0.25115 0.86670 -0.09500
O 	O 	0.34100 0.17050 0.93600 -0.44800
O 	O 	0.48790 0.24395 0.90890 -0.42900
N 	N 	0.19230 0.38460 0.70400 -0.24400
N 	N 	0.61540 0.80770 0.70400 -0.24400
N 	N 	0.19230 0.80770 0.70400 -0.24400
N 	N 	0.80770 0.61540 0.20400 -0.24400
N 	N 	0.38460 0.19230 0.20400 -0.24400
N 	N 	0.80770 0.19230 0.20400 -0.24400
N 	N 	0.38460 0.19230 0.29600 -0.24400
N 	N 	0.80770 0.61540 0.29600 -0.24400
N 	N 	0.80770 0.19230 0.29600 -0.24400
N 	N 	0.61540 0.80770 0.79600 -0.24400
N 	N 	0.19230 0.38460 0.79600 -0.24400
N 	N 	0.19230 0.80770 0.79600 -0.24400
N 	N 	0.25080 0.38530 0.75000 -0.25500
N 	N 	0.61470 0.86550 0.75000 -0.25500
N 	N 	0.13450 0.74920 0.75000 -0.25500
N 	N 	0.74920 0.61470 0.25000 -0.25500
N 	N 	0.38530 0.13450 0.25000 -0.25500
N 	N 	0.86550 0.25080 0.25000 -0.25500
N 	N 	0.38530 0.25080 0.25000 -0.25500
N 	N 	0.86550 0.61470 0.25000 -0.25500
N 	N 	0.74920 0.13450 0.25000 -0.25500
N 	N 	0.61470 0.74920 0.75000 -0.25500
N 	N 	0.13450 0.38530 0.75000 -0.25500
N 	N 	0.25080 0.86550 0.75000 -0.25500
Cu	Cu	0.19193 0.38385 0.75000 0.86200
Cu	Cu	0.61615 0.80807 0.75000 0.86200
Cu	Cu	0.19193 0.80807 0.75000 0.86200
Cu	Cu	0.80808 0.61615 0.25000 0.86200
Cu	Cu	0.38385 0.19193 0.25000 0.86200
Cu	Cu	0.80808 0.19192 0.25000 0.86200
