data_crystal

_cell_length_a 21.07500
_cell_length_b 7.02390
_cell_length_c 31.99000
_cell_angle_alpha 90.00000
_cell_angle_beta  104.35600
_cell_angle_gamma 90.00000

_symmetry_space_group_name_	'P 1'
_symmetry_space_group_name_H-M	'P 1'

loop_
_symmetry_equiv_pos_as_xyz
  x,y,z

loop_
_atom_site_label
_atom_site_type_symbol
_atom_site_fract_x
_atom_site_fract_y
_atom_site_fract_z
_atom_site_charge
Mn	Mn	0.30068 0.11129 0.25054 1.29900
Mn	Mn	0.24495 0.60247 0.23269 1.28000
O 	O 	0.34489 0.01570 0.20062 -0.43800
O 	O 	0.20951 0.13470 0.20509 -0.47500
O 	O 	0.33549 0.40600 0.23780 -0.47700
O 	O 	0.27833 0.76300 0.18550 -0.46000
O 	O 	0.20653 0.03590 0.77883 -0.48200
C 	C 	0.13460 0.08000 0.84099 -0.01900
H 	H 	0.11550 0.00620 0.81700 0.03700
C 	C 	0.32150 0.87360 0.17817 0.36500
C 	C 	0.29230 0.58200 0.03045 -0.06800
O 	O 	0.19827 0.42670 0.17720 -0.45100
O 	O 	0.38471 0.01690 0.30199 -0.41900
C 	C 	0.34800 0.82740 0.13973 -0.07200
C 	C 	0.19150 0.18010 0.84238 -0.08900
O 	O 	0.30899 0.79950 0.28008 -0.52100
C 	C 	0.41070 0.88270 0.13917 -0.03200
H 	H 	0.43590 0.95400 0.16170 0.03900
C 	C 	0.53570 0.85010 0.48701 0.20100
C 	C 	0.35850 0.86290 0.30764 0.35200
N 	N 	0.42608 0.40470 0.21191 -0.06000
C 	C 	0.47100 0.88790 0.46343 -0.05400
C 	C 	0.38270 0.75860 0.34904 -0.09200
C 	C 	0.26560 0.39930 0.03157 0.21000
C 	C 	0.33270 0.67970 0.06925 0.03800
C 	C 	0.19240 0.29890 0.91342 0.02600
C 	C 	0.24960 0.59110 0.95197 0.18300
C 	C 	0.96300 0.37960 0.02015 0.20300
C 	C 	0.03080 0.36810 0.03094 -0.05400
C 	C 	0.30960 0.72400 0.10517 -0.06900
H 	H 	0.26790 0.68440 0.10630 0.05800
C 	C 	0.18760 0.25260 0.17448 0.37100
C 	C 	0.22490 0.40680 0.95291 -0.05200
C 	C 	0.10600 0.09030 0.87563 -0.04400
H 	H 	0.06750 0.02390 0.87480 0.03300
C 	C 	0.21930 0.28950 0.87799 -0.05400
H 	H 	0.25700 0.35880 0.87830 0.05300
C 	C 	0.41760 0.86180 0.38482 -0.05600
H 	H 	0.42720 0.98950 0.38180 0.05800
C 	C 	0.10980 0.29920 0.10148 -0.05200
H 	H 	0.11510 0.42990 0.10550 0.05200
C 	C 	0.39720 0.73270 0.07003 -0.09500
H 	H 	0.41440 0.70130 0.04680 0.05900
C 	C 	0.06760 0.23140 0.06426 0.03000
C 	C 	0.28220 0.67350 0.99033 -0.15500
H 	H 	0.29850 0.79620 0.98960 0.07600
C 	C 	0.14470 0.17490 0.13328 -0.09400
C 	C 	0.22270 0.17170 0.80499 0.38500
C 	C 	0.36340 0.41510 0.20724 0.22100
H 	H 	0.33710 0.43040 0.17940 -0.05000
C 	C 	0.43780 0.77380 0.42485 0.02900
C 	C 	0.56260 0.96330 0.52294 -0.16300
H 	H 	0.60520 0.93780 0.53860 0.08400
C 	C 	0.42420 0.58000 0.42766 -0.08000
H 	H 	0.43820 0.51820 0.45410 0.04300
C 	C 	0.13470 0.19950 0.91152 -0.08300
H 	H 	0.11520 0.20620 0.93450 0.05000
C 	C 	0.36980 0.56740 0.35284 -0.01600
H 	H 	0.34710 0.49900 0.32890 0.03000
C 	C 	0.93410 0.51250 0.98897 -0.16200
H 	H 	0.88860 0.52100 0.98120 0.08400
C 	C 	0.39080 0.47850 0.39227 -0.04300
H 	H 	0.38220 0.34980 0.39500 0.04100
C 	C 	0.09690 0.91170 0.08825 -0.04500
H 	H 	0.09290 0.78120 0.08340 0.04100
C 	C 	0.06130 0.03750 0.05828 -0.07900
H 	H 	0.03250 0.99030 0.03360 0.04600
C 	C 	0.57830 0.70430 0.47273 -0.70800
H 	H 	0.56030 0.57970 0.47410 0.23400
H 	H 	0.62170 0.70950 0.49130 0.23500
H 	H 	0.58020 0.73070 0.44360 0.23300
C 	C 	0.23320 0.31620 0.99290 -0.17900
H 	H 	0.21620 0.19440 0.99350 0.08200
C 	C 	0.43550 0.83060 0.10459 -0.03800
H 	H 	0.47840 0.86200 0.10470 0.03600
C 	C 	0.13860 0.98150 0.12568 -0.01000
H 	H 	0.16270 0.89700 0.14590 0.03100
C 	C 	0.27450 0.28380 0.07238 -0.73600
H 	H 	0.26100 0.15490 0.06520 0.24600
H 	H 	0.24830 0.33750 0.09010 0.25200
H 	H 	0.31970 0.28570 0.08790 0.24200
C 	C 	0.23970 0.71360 0.91113 -0.70200
H 	H 	0.23780 0.84540 0.91860 0.23500
H 	H 	0.19960 0.67790 0.89110 0.23400
H 	H 	0.27570 0.69400 0.89820 0.24100
C 	C 	0.45540 0.40440 0.17489 -0.38500
H 	H 	0.47400 0.28140 0.17230 0.14600
H 	H 	0.48920 0.49940 0.17900 0.15700
H 	H 	0.42230 0.43200 0.14900 0.14200
C 	C 	0.46810 0.37150 0.25470 -0.40000
H 	H 	0.45780 0.46150 0.27460 0.15600
H 	H 	0.51310 0.38640 0.25390 0.15700
H 	H 	0.46120 0.24460 0.26380 0.15400
C 	C 	0.91960 0.26140 0.04130 -0.71100
H 	H 	0.93230 0.28080 0.07190 0.23600
H 	H 	0.92420 0.12920 0.03500 0.23400
H 	H 	0.87480 0.29930 0.03030 0.23700
O 	O 	0.26405 0.29650 0.80270 -0.46400
Mn	Mn	0.69932 0.61129 0.24946 1.29800
Mn	Mn	0.75505 0.10247 0.26732 1.27600
O 	O 	0.65511 0.51570 0.29938 -0.43700
O 	O 	0.79049 0.63470 0.29491 -0.47400
O 	O 	0.66451 0.90600 0.26220 -0.47700
O 	O 	0.72167 0.26300 0.31450 -0.46300
O 	O 	0.79347 0.53590 0.72117 -0.48700
C 	C 	0.86540 0.58000 0.65901 -0.01900
H 	H 	0.88450 0.50620 0.68300 0.03400
C 	C 	0.67850 0.37360 0.32183 0.36200
C 	C 	0.70770 0.08200 0.46955 -0.07400
O 	O 	0.80173 0.92670 0.32280 -0.44700
O 	O 	0.61529 0.51690 0.19801 -0.41400
C 	C 	0.65200 0.32740 0.36027 -0.07200
C 	C 	0.80850 0.68010 0.65762 -0.09100
O 	O 	0.69101 0.29950 0.21992 -0.52100
C 	C 	0.58930 0.38270 0.36083 -0.03400
H 	H 	0.56410 0.45400 0.33830 0.03900
C 	C 	0.46430 0.35010 0.01299 0.20200
C 	C 	0.64150 0.36290 0.19236 0.34000
N 	N 	0.57392 0.90470 0.28809 -0.05800
C 	C 	0.52900 0.38790 0.03657 -0.06000
C 	C 	0.61730 0.25860 0.15096 -0.06900
C 	C 	0.73440 0.89930 0.46843 0.21700
C 	C 	0.66730 0.17970 0.43075 0.04000
C 	C 	0.80760 0.79890 0.58658 0.02400
C 	C 	0.75040 0.09110 0.54803 0.18100
C 	C 	0.03700 0.87960 0.47985 0.20100
C 	C 	0.96920 0.86810 0.46906 -0.05500
C 	C 	0.69040 0.22400 0.39483 -0.07100
H 	H 	0.73210 0.18440 0.39370 0.05700
C 	C 	0.81240 0.75260 0.32552 0.37000
C 	C 	0.77510 0.90680 0.54709 -0.04900
C 	C 	0.89400 0.59030 0.62437 -0.04700
H 	H 	0.93250 0.52390 0.62520 0.03200
C 	C 	0.78070 0.78950 0.62201 -0.05300
H 	H 	0.74300 0.85880 0.62170 0.05200
C 	C 	0.58240 0.36180 0.11518 -0.07500
H 	H 	0.57280 0.48950 0.11820 0.06400
C 	C 	0.89020 0.79920 0.39852 -0.05400
H 	H 	0.88490 0.92990 0.39450 0.05500
C 	C 	0.60280 0.23270 0.42997 -0.09700
H 	H 	0.58560 0.20130 0.45320 0.06000
C 	C 	0.93240 0.73140 0.43574 0.03200
C 	C 	0.71780 0.17350 0.50967 -0.15200
H 	H 	0.70150 0.29620 0.51040 0.07500
C 	C 	0.85530 0.67490 0.36672 -0.09000
C 	C 	0.77730 0.67170 0.69501 0.38600
C 	C 	0.63660 0.91510 0.29276 0.22100
H 	H 	0.66290 0.93040 0.32060 -0.04900
C 	C 	0.56220 0.27380 0.07515 0.04700
C 	C 	0.43740 0.46330 0.97706 -0.16000
H 	H 	0.39480 0.43780 0.96140 0.08300
C 	C 	0.57580 0.08000 0.07234 -0.11300
H 	H 	0.56180 0.01820 0.04590 0.05400
C 	C 	0.86530 0.69950 0.58848 -0.08200
H 	H 	0.88480 0.70620 0.56550 0.04900
C 	C 	0.63020 0.06740 0.14716 -0.06200
H 	H 	0.65290 0.99900 0.17110 0.05000
C 	C 	0.06590 0.01250 0.51103 -0.16000
H 	H 	0.11140 0.02100 0.51880 0.08400
C 	C 	0.60920 0.97850 0.10773 0.00200
H 	H 	0.61780 0.84980 0.10500 0.02600
C 	C 	0.90310 0.41170 0.41175 -0.04200
H 	H 	0.90710 0.28120 0.41660 0.03800
C 	C 	0.93870 0.53750 0.44172 -0.08200
H 	H 	0.96750 0.49030 0.46640 0.04700
C 	C 	0.42170 0.20430 0.02727 -0.71000
H 	H 	0.43970 0.07970 0.02590 0.23400
H 	H 	0.37830 0.20950 0.00870 0.23600
H 	H 	0.41980 0.23070 0.05640 0.23300
C 	C 	0.76680 0.81620 0.50710 -0.18300
H 	H 	0.78380 0.69440 0.50650 0.08300
C 	C 	0.56450 0.33060 0.39541 -0.03700
H 	H 	0.52160 0.36200 0.39530 0.03500
C 	C 	0.86140 0.48150 0.37432 -0.01400
H 	H 	0.83730 0.39700 0.35410 0.03100
C 	C 	0.72550 0.78380 0.42762 -0.74400
H 	H 	0.73900 0.65490 0.43480 0.24800
H 	H 	0.75170 0.83750 0.40990 0.25500
H 	H 	0.68030 0.78570 0.41210 0.24500
C 	C 	0.76030 0.21360 0.58887 -0.70400
H 	H 	0.76220 0.34540 0.58140 0.23700
H 	H 	0.80040 0.17790 0.60890 0.23600
H 	H 	0.72430 0.19400 0.60180 0.24200
C 	C 	0.54460 0.90440 0.32511 -0.38800
H 	H 	0.52600 0.78140 0.32770 0.14800
H 	H 	0.51080 0.99940 0.32100 0.15900
H 	H 	0.57770 0.93200 0.35100 0.14400
C 	C 	0.53190 0.87150 0.24530 -0.40400
H 	H 	0.54220 0.96150 0.22540 0.15800
H 	H 	0.48690 0.88640 0.24610 0.15900
H 	H 	0.53880 0.74460 0.23620 0.15600
C 	C 	0.08040 0.76140 0.45870 -0.71200
H 	H 	0.06770 0.78080 0.42810 0.23700
H 	H 	0.07580 0.62920 0.46500 0.23500
H 	H 	0.12520 0.79930 0.46970 0.23700
O 	O 	0.73595 0.79650 0.69730 -0.46400
Mn	Mn	0.69932 0.88871 0.74946 1.29800
Mn	Mn	0.75505 0.39753 0.76732 1.27900
O 	O 	0.65511 0.98430 0.79938 -0.43900
O 	O 	0.79049 0.86530 0.79491 -0.47600
O 	O 	0.66451 0.59400 0.76220 -0.47800
O 	O 	0.72167 0.23700 0.81450 -0.46100
O 	O 	0.79347 0.96410 0.22117 -0.48300
C 	C 	0.86540 0.92000 0.15901 -0.02000
H 	H 	0.88450 0.99380 0.18300 0.03700
C 	C 	0.67850 0.12640 0.82183 0.36500
C 	C 	0.70770 0.41800 0.96955 -0.06800
O 	O 	0.80173 0.57330 0.82280 -0.45100
O 	O 	0.61529 0.98310 0.69801 -0.41900
C 	C 	0.65200 0.17260 0.86027 -0.07300
C 	C 	0.80850 0.81990 0.15762 -0.08900
O 	O 	0.69101 0.20050 0.71992 -0.52100
C 	C 	0.58930 0.11730 0.86083 -0.03200
H 	H 	0.56410 0.04600 0.83830 0.03900
C 	C 	0.46430 0.14990 0.51299 0.20100
C 	C 	0.64150 0.13710 0.69236 0.35200
N 	N 	0.57392 0.59530 0.78809 -0.06000
C 	C 	0.52900 0.11210 0.53657 -0.05400
C 	C 	0.61730 0.24140 0.65096 -0.09200
C 	C 	0.73440 0.60070 0.96843 0.21000
C 	C 	0.66730 0.32030 0.93075 0.03800
C 	C 	0.80760 0.70110 0.08658 0.02600
C 	C 	0.75040 0.40890 0.04803 0.18300
C 	C 	0.03700 0.62040 0.97985 0.20300
C 	C 	0.96920 0.63190 0.96906 -0.05400
C 	C 	0.69040 0.27600 0.89483 -0.06900
H 	H 	0.73210 0.31560 0.89370 0.05800
C 	C 	0.81240 0.74740 0.82552 0.37100
C 	C 	0.77510 0.59320 0.04709 -0.05200
C 	C 	0.89400 0.90970 0.12437 -0.04400
H 	H 	0.93250 0.97610 0.12520 0.03300
C 	C 	0.78070 0.71050 0.12201 -0.05400
H 	H 	0.74300 0.64120 0.12170 0.05300
C 	C 	0.58240 0.13820 0.61518 -0.05600
H 	H 	0.57280 0.01050 0.61820 0.05800
C 	C 	0.89020 0.70080 0.89852 -0.05200
H 	H 	0.88490 0.57010 0.89450 0.05200
C 	C 	0.60280 0.26730 0.92997 -0.09500
H 	H 	0.58560 0.29870 0.95320 0.05900
C 	C 	0.93240 0.76860 0.93574 0.03000
C 	C 	0.71780 0.32650 0.00967 -0.15500
H 	H 	0.70150 0.20380 0.01040 0.07600
C 	C 	0.85530 0.82510 0.86672 -0.09400
C 	C 	0.77730 0.82830 0.19501 0.38500
C 	C 	0.63660 0.58490 0.79276 0.22100
H 	H 	0.66290 0.56960 0.82060 -0.05000
C 	C 	0.56220 0.22620 0.57515 0.02900
C 	C 	0.43740 0.03670 0.47706 -0.16300
H 	H 	0.39480 0.06220 0.46140 0.08400
C 	C 	0.57580 0.42000 0.57234 -0.08000
H 	H 	0.56180 0.48180 0.54590 0.04300
C 	C 	0.86530 0.80050 0.08848 -0.08300
H 	H 	0.88480 0.79380 0.06550 0.05000
C 	C 	0.63020 0.43260 0.64716 -0.01600
H 	H 	0.65290 0.50100 0.67110 0.03000
C 	C 	0.06590 0.48750 0.01103 -0.16200
H 	H 	0.11140 0.47900 0.01880 0.08400
C 	C 	0.60920 0.52150 0.60773 -0.04300
H 	H 	0.61780 0.65020 0.60500 0.04100
C 	C 	0.90310 0.08830 0.91175 -0.04500
H 	H 	0.90710 0.21880 0.91660 0.04100
C 	C 	0.93870 0.96250 0.94172 -0.07900
H 	H 	0.96750 0.00970 0.96640 0.04600
C 	C 	0.42170 0.29570 0.52727 -0.70800
H 	H 	0.43970 0.42030 0.52590 0.23400
H 	H 	0.37830 0.29050 0.50870 0.23500
H 	H 	0.41980 0.26930 0.55640 0.23300
C 	C 	0.76680 0.68380 0.00710 -0.17900
H 	H 	0.78380 0.80560 0.00650 0.08200
C 	C 	0.56450 0.16940 0.89541 -0.03800
H 	H 	0.52160 0.13800 0.89530 0.03600
C 	C 	0.86140 0.01850 0.87432 -0.01000
H 	H 	0.83730 0.10300 0.85410 0.03100
C 	C 	0.72550 0.71620 0.92762 -0.73600
H 	H 	0.73900 0.84510 0.93480 0.24600
H 	H 	0.75170 0.66250 0.90990 0.25200
H 	H 	0.68030 0.71430 0.91210 0.24200
C 	C 	0.76030 0.28640 0.08887 -0.70200
H 	H 	0.76220 0.15460 0.08140 0.23500
H 	H 	0.80040 0.32210 0.10890 0.23400
H 	H 	0.72430 0.30600 0.10180 0.24100
C 	C 	0.54460 0.59560 0.82511 -0.38500
H 	H 	0.52600 0.71860 0.82770 0.14600
H 	H 	0.51080 0.50060 0.82100 0.15700
H 	H 	0.57770 0.56800 0.85100 0.14200
C 	C 	0.53190 0.62850 0.74530 -0.40000
H 	H 	0.54220 0.53850 0.72540 0.15600
H 	H 	0.48690 0.61360 0.74610 0.15700
H 	H 	0.53880 0.75540 0.73620 0.15400
C 	C 	0.08040 0.73860 0.95870 -0.71100
H 	H 	0.06770 0.71920 0.92810 0.23600
H 	H 	0.07580 0.87080 0.96500 0.23400
H 	H 	0.12520 0.70070 0.96970 0.23700
O 	O 	0.73595 0.70350 0.19730 -0.46400
Mn	Mn	0.30068 0.38871 0.75054 1.29800
Mn	Mn	0.24495 0.89753 0.73269 1.27600
O 	O 	0.34489 0.48430 0.70062 -0.43700
O 	O 	0.20951 0.36530 0.70509 -0.47400
O 	O 	0.33549 0.09400 0.73780 -0.47700
O 	O 	0.27833 0.73700 0.68550 -0.46300
O 	O 	0.20653 0.46410 0.27883 -0.48700
C 	C 	0.13460 0.42000 0.34099 -0.01900
H 	H 	0.11550 0.49380 0.31700 0.03400
C 	C 	0.32150 0.62640 0.67817 0.36200
C 	C 	0.29230 0.91800 0.53045 -0.07400
O 	O 	0.19827 0.07330 0.67720 -0.44700
O 	O 	0.38471 0.48310 0.80199 -0.41400
C 	C 	0.34800 0.67260 0.63973 -0.07200
C 	C 	0.19150 0.31990 0.34238 -0.09100
O 	O 	0.30899 0.70050 0.78008 -0.52100
C 	C 	0.41070 0.61730 0.63917 -0.03400
H 	H 	0.43590 0.54600 0.66170 0.03900
C 	C 	0.53570 0.64990 0.98701 0.20200
C 	C 	0.35850 0.63710 0.80764 0.34000
N 	N 	0.42608 0.09530 0.71191 -0.05800
C 	C 	0.47100 0.61210 0.96343 -0.06000
C 	C 	0.38270 0.74140 0.84904 -0.06900
C 	C 	0.26560 0.10070 0.53157 0.21700
C 	C 	0.33270 0.82030 0.56925 0.04000
C 	C 	0.19240 0.20110 0.41342 0.02300
C 	C 	0.24960 0.90890 0.45197 0.18100
C 	C 	0.96300 0.12040 0.52015 0.20100
C 	C 	0.03080 0.13190 0.53094 -0.05500
C 	C 	0.30960 0.77600 0.60517 -0.07100
H 	H 	0.26790 0.81560 0.60630 0.05700
C 	C 	0.18760 0.24740 0.67448 0.37000
C 	C 	0.22490 0.09320 0.45291 -0.04900
C 	C 	0.10600 0.40970 0.37563 -0.04700
H 	H 	0.06750 0.47610 0.37480 0.03200
C 	C 	0.21930 0.21050 0.37799 -0.05300
H 	H 	0.25700 0.14120 0.37830 0.05200
C 	C 	0.41760 0.63820 0.88482 -0.07500
H 	H 	0.42720 0.51050 0.88180 0.06400
C 	C 	0.10980 0.20080 0.60148 -0.05400
H 	H 	0.11510 0.07010 0.60550 0.05500
C 	C 	0.39720 0.76730 0.57003 -0.09700
H 	H 	0.41440 0.79870 0.54680 0.06000
C 	C 	0.06760 0.26860 0.56426 0.03200
C 	C 	0.28220 0.82650 0.49033 -0.15200
H 	H 	0.29850 0.70380 0.48960 0.07500
C 	C 	0.14470 0.32510 0.63328 -0.09000
C 	C 	0.22270 0.32830 0.30499 0.38600
C 	C 	0.36340 0.08490 0.70724 0.22100
H 	H 	0.33710 0.06960 0.67940 -0.04900
C 	C 	0.43780 0.72620 0.92485 0.04700
C 	C 	0.56260 0.53670 0.02294 -0.16000
H 	H 	0.60520 0.56220 0.03860 0.08300
C 	C 	0.42420 0.92000 0.92766 -0.11300
H 	H 	0.43820 0.98180 0.95410 0.05400
C 	C 	0.13470 0.30050 0.41152 -0.08200
H 	H 	0.11520 0.29380 0.43450 0.04900
C 	C 	0.36980 0.93260 0.85284 -0.06200
H 	H 	0.34710 0.00100 0.82890 0.05000
C 	C 	0.93410 0.98750 0.48897 -0.16000
H 	H 	0.88860 0.97900 0.48120 0.08400
C 	C 	0.39080 0.02150 0.89227 0.00200
H 	H 	0.38220 0.15020 0.89500 0.02600
C 	C 	0.09690 0.58830 0.58825 -0.04200
H 	H 	0.09290 0.71880 0.58340 0.03800
C 	C 	0.06130 0.46250 0.55828 -0.08200
H 	H 	0.03250 0.50970 0.53360 0.04700
C 	C 	0.57830 0.79570 0.97273 -0.71000
H 	H 	0.56030 0.92030 0.97410 0.23400
H 	H 	0.62170 0.79050 0.99130 0.23600
H 	H 	0.58020 0.76930 0.94360 0.23300
C 	C 	0.23320 0.18380 0.49290 -0.18300
H 	H 	0.21620 0.30560 0.49350 0.08300
C 	C 	0.43550 0.66940 0.60459 -0.03700
H 	H 	0.47840 0.63800 0.60470 0.03500
C 	C 	0.13860 0.51850 0.62568 -0.01400
H 	H 	0.16270 0.60300 0.64590 0.03100
C 	C 	0.27450 0.21620 0.57238 -0.74400
H 	H 	0.26100 0.34510 0.56520 0.24800
H 	H 	0.24830 0.16250 0.59010 0.25500
H 	H 	0.31970 0.21430 0.58790 0.24500
C 	C 	0.23970 0.78640 0.41113 -0.70400
H 	H 	0.23780 0.65460 0.41860 0.23700
H 	H 	0.19960 0.82210 0.39110 0.23600
H 	H 	0.27570 0.80600 0.39820 0.24200
C 	C 	0.45540 0.09560 0.67489 -0.38800
H 	H 	0.47400 0.21860 0.67230 0.14800
H 	H 	0.48920 0.00060 0.67900 0.15900
H 	H 	0.42230 0.06800 0.64900 0.14400
C 	C 	0.46810 0.12850 0.75470 -0.40400
H 	H 	0.45780 0.03850 0.77460 0.15800
H 	H 	0.51310 0.11360 0.75390 0.15900
H 	H 	0.46120 0.25540 0.76380 0.15600
C 	C 	0.91960 0.23860 0.54130 -0.71200
H 	H 	0.93230 0.21920 0.57190 0.23700
H 	H 	0.92420 0.37080 0.53500 0.23500
H 	H 	0.87480 0.20070 0.53030 0.23700
O 	O 	0.26405 0.20350 0.30270 -0.46400
