data_crystal

_cell_length_a 13.11100
_cell_length_b 13.84800
_cell_length_c 19.97800
_cell_angle_alpha 90.00000
_cell_angle_beta  90.00000
_cell_angle_gamma 90.00000

_symmetry_space_group_name_	'P 1'
_symmetry_space_group_name_H-M	'P 1'

loop_
_symmetry_equiv_pos_as_xyz
  x,y,z

loop_
_atom_site_label
_atom_site_type_symbol
_atom_site_fract_x
_atom_site_fract_y
_atom_site_fract_z
_atom_site_charge
Co	Co	0.25927 0.47474 0.11500 1.15000
Co	Co	0.40532 0.39632 0.97478 1.17500
Co	Co	0.25927 0.97474 0.38500 1.16100
Co	Co	0.40532 0.89632 0.52522 1.17100
Co	Co	0.66305 0.50000 -0.00000 1.18600
Co	Co	0.58707 0.29800 0.90253 1.17400
Co	Co	0.58707 0.20200 0.40253 1.17300
Co	Co	0.40532 0.60368 0.02522 1.15800
Co	Co	0.66305 0.00000 0.50000 1.18200
Co	Co	0.25927 0.52526 0.88500 1.15100
Co	Co	0.58707 0.70200 0.09747 1.17200
Co	Co	0.25927 0.02526 0.61500 1.14000
Co	Co	0.40532 0.10368 0.47478 1.16100
Co	Co	0.58707 0.79800 0.59747 1.17300
H 	H 	0.34530 0.33720 0.34100 0.04900
H 	H 	0.05010 0.17180 0.83810 0.08100
H 	H 	0.97370 0.88490 0.49170 0.03000
H 	H 	0.61530 0.70690 0.24820 0.02300
H 	H 	0.97370 0.61510 0.99170 0.07100
H 	H 	0.34880 0.35970 0.69450 0.05300
H 	H 	0.57260 0.34580 0.02040 0.14200
H 	H 	0.88170 0.70130 0.63440 0.03100
H 	H 	0.58570 0.07910 0.87250 -0.00000
H 	H 	0.88170 0.20130 0.86560 0.01600
H 	H 	0.30900 0.26070 0.12070 0.02200
H 	H 	0.30900 0.23930 0.62070 0.02300
H 	H 	0.51090 0.50000 0.50000 0.02800
H 	H 	0.62900 0.69280 0.83660 0.06800
H 	H 	0.60170 0.47160 0.71350 0.06400
H 	H 	0.97370 0.38490 0.00830 -0.02000
H 	H 	0.17770 0.24700 0.39110 0.01000
H 	H 	0.24690 0.14430 0.00290 0.01100
H 	H 	0.97370 0.11510 0.50830 0.01800
H 	H 	0.58570 0.92090 0.12750 0.04500
H 	H 	0.61530 0.20690 0.25180 0.01500
H 	H 	0.05010 0.67180 0.66190 0.07100
H 	H 	0.29710 0.95060 0.23580 0.02700
H 	H 	0.29710 0.04940 0.76420 0.00800
H 	H 	0.51090 0.00000 -0.00000 0.02800
H 	H 	0.57260 0.65420 0.97960 0.18700
H 	H 	0.34880 0.14030 0.19450 0.04500
H 	H 	0.88170 0.79870 0.13440 0.04300
H 	H 	0.62900 0.30720 0.16340 0.06000
H 	H 	0.29710 0.54940 0.73580 0.01600
H 	H 	0.17770 0.74700 0.10890 0.02400
H 	H 	0.24690 0.35570 0.50290 0.02400
H 	H 	0.34530 0.66280 0.65900 0.05100
H 	H 	0.62900 0.19280 0.66340 0.07700
H 	H 	0.05010 0.82820 0.16190 0.06000
H 	H 	0.58570 0.42090 0.37250 0.02200
H 	H 	0.45070 0.05270 0.59540 0.17100
H 	H 	0.15820 0.00000 -0.00000 0.10200
H 	H 	0.62900 0.80720 0.33660 0.05000
H 	H 	0.15820 0.50000 0.50000 0.08000
H 	H 	0.24690 0.64430 0.49710 0.02300
H 	H 	0.45070 0.94730 0.40460 0.17600
H 	H 	0.34530 0.16280 0.84100 0.05100
H 	H 	0.30900 0.76070 0.37930 0.02400
H 	H 	0.45070 0.55270 0.90460 0.17300
H 	H 	0.45070 0.44730 0.09540 0.17400
H 	H 	0.17770 0.25300 0.89110 -0.00200
H 	H 	0.34880 0.64030 0.30550 0.05200
H 	H 	0.61530 0.29310 0.75180 0.00600
H 	H 	0.60170 0.97160 0.78650 0.12500
H 	H 	0.60170 0.52840 0.28650 0.06300
H 	H 	0.58570 0.57910 0.62750 0.02100
H 	H 	0.61530 0.79310 0.74820 0.01600
H 	H 	0.34530 0.83720 0.15900 0.05000
H 	H 	0.17770 0.75300 0.60890 0.01200
H 	H 	0.60170 0.02840 0.21350 0.00600
H 	H 	0.57260 0.15420 0.52040 0.16400
H 	H 	0.34880 0.85970 0.80550 0.06200
H 	H 	0.05010 0.32820 0.33810 0.07000
H 	H 	0.24690 0.85570 0.99710 -0.00600
H 	H 	0.88170 0.29870 0.36560 0.02800
H 	H 	0.29710 0.45060 0.26420 0.01800
H 	H 	0.30900 0.73930 0.87930 0.02600
H 	H 	0.57260 0.84580 0.47960 0.16300
C 	C 	0.28230 0.91380 0.99970 0.18500
C 	C 	0.61960 0.93010 0.28600 -0.09600
C 	C 	0.93370 0.76660 0.11190 0.00400
C 	C 	0.93370 0.23340 0.88810 0.07300
C 	C 	0.79980 0.67350 0.04810 0.37900
C 	C 	0.31470 0.72440 0.83410 0.02400
C 	C 	0.08900 0.82540 0.54380 -0.15300
C 	C 	0.30880 0.61240 0.75010 0.03100
C 	C 	0.03440 0.28400 0.37160 -0.11600
C 	C 	0.43960 0.18230 0.99040 0.39900
C 	C 	0.61250 0.77300 0.24030 0.02800
C 	C 	0.34040 0.29680 0.70970 -0.03700
C 	C 	0.33720 0.81980 0.20360 -0.04200
C 	C 	0.63130 0.00130 0.65460 0.29400
C 	C 	0.03440 0.71600 0.62840 -0.11200
C 	C 	0.11040 0.26290 0.90410 0.10000
C 	C 	0.31470 0.77560 0.33410 0.01900
C 	C 	0.17510 0.62450 0.00770 0.37600
C 	C 	0.28230 0.58620 0.49970 0.05900
C 	C 	0.61250 0.22700 0.75970 0.07600
C 	C 	0.34040 0.79680 0.79030 -0.03900
C 	C 	0.30880 0.88760 0.25010 0.02800
C 	C 	0.60520 0.53750 0.72220 -0.06600
C 	C 	0.91050 0.29890 0.93820 -0.16200
C 	C 	0.62150 0.66690 0.79390 -0.07000
C 	C 	0.17510 0.87550 0.50770 0.42300
C 	C 	0.91050 0.79890 0.56180 -0.12100
C 	C 	0.43960 0.31770 0.49040 0.37800
C 	C 	0.35370 0.22500 0.27640 -0.08400
C 	C 	0.34040 0.70320 0.29030 -0.03400
C 	C 	0.43960 0.81770 0.00960 0.35400
C 	C 	0.91050 0.20110 0.43820 -0.13000
C 	C 	0.61250 0.27300 0.25970 0.04900
C 	C 	0.33720 0.18020 0.79640 -0.04800
C 	C 	0.98870 0.15690 0.47320 0.06500
C 	C 	0.98870 0.84310 0.52680 0.06500
C 	C 	0.91050 0.70110 0.06180 -0.08800
C 	C 	0.62150 0.33310 0.20610 -0.06600
C 	C 	0.43960 0.68230 0.50960 0.37800
C 	C 	0.61960 0.06990 0.71400 0.01600
C 	C 	0.93370 0.73340 0.61190 0.03800
C 	C 	0.98870 0.34310 0.97320 0.14300
C 	C 	0.30880 0.38760 0.24990 0.02700
C 	C 	0.61960 0.56990 0.78600 -0.03900
C 	C 	0.38700 0.08660 0.99680 -0.11100
C 	C 	0.35370 0.72500 0.22360 -0.08100
C 	C 	0.59570 0.60300 0.67050 0.04800
C 	C 	0.79980 0.32650 0.95190 0.40700
C 	C 	0.62150 0.83310 0.29390 -0.02800
C 	C 	0.59570 0.89700 0.17050 -0.00400
C 	C 	0.37180 0.14790 0.32750 0.38400
C 	C 	0.28230 0.08620 0.00030 0.06800
C 	C 	0.38700 0.58660 0.50320 -0.13900
C 	C 	0.63130 0.49870 0.15460 0.35800
C 	C 	0.60520 0.96250 0.22220 0.04100
C 	C 	0.08900 0.17460 0.45620 -0.16200
C 	C 	0.59570 0.10300 0.82950 0.09900
C 	C 	0.63130 0.50130 0.84540 0.35400
C 	C 	0.33720 0.68020 0.70360 -0.04800
C 	C 	0.37180 0.35210 0.82750 0.38000
C 	C 	0.17510 0.37550 0.99230 0.46900
C 	C 	0.33720 0.31980 0.29640 -0.04200
C 	C 	0.38700 0.41340 0.49680 -0.13900
C 	C 	0.79980 0.17350 0.45190 0.39400
C 	C 	0.11040 0.73710 0.09590 0.02000
C 	C 	0.60520 0.46250 0.27780 -0.06200
C 	C 	0.43990 0.50000 0.50000 0.07200
C 	C 	0.37180 0.85210 0.67250 0.37700
C 	C 	0.08900 0.32540 0.95620 -0.20200
C 	C 	0.61960 0.43010 0.21400 -0.04400
C 	C 	0.63130 0.99870 0.34540 0.41600
C 	C 	0.34040 0.20320 0.20970 -0.03300
C 	C 	0.59570 0.39700 0.32950 0.04600
C 	C 	0.08900 0.67460 0.04380 -0.11200
C 	C 	0.61250 0.72700 0.74030 0.05400
C 	C 	0.30880 0.11240 0.74990 0.03000
C 	C 	0.11040 0.23710 0.40410 0.06000
C 	C 	0.79980 0.82650 0.54810 0.39200
C 	C 	0.35370 0.77500 0.72360 -0.07400
C 	C 	0.31470 0.27560 0.16590 0.01600
C 	C 	0.31470 0.22440 0.66590 0.02000
C 	C 	0.98870 0.65690 0.02680 -0.01500
C 	C 	0.28230 0.41380 0.50030 0.05900
C 	C 	0.93370 0.26660 0.38810 0.03800
C 	C 	0.03440 0.21600 0.87160 -0.15100
C 	C 	0.22920 0.50000 0.50000 -0.13000
C 	C 	0.62150 0.16690 0.70610 -0.11000
C 	C 	0.35370 0.27500 0.77640 -0.07800
C 	C 	0.38700 0.91340 0.00320 -0.15500
C 	C 	0.17510 0.12450 0.49230 0.42300
C 	C 	0.11040 0.76290 0.59590 0.05800
C 	C 	0.60520 0.03750 0.77780 -0.17300
C 	C 	0.43990 0.00000 -0.00000 0.02200
C 	C 	0.37180 0.64790 0.17250 0.38100
C 	C 	0.22920 0.00000 -0.00000 -0.23800
C 	C 	0.03440 0.78400 0.12840 -0.07700
N 	N 	0.60010 0.30210 0.32166 -0.21300
N 	N 	0.60010 0.69790 0.67834 -0.21500
N 	N 	0.29740 0.63310 0.81464 -0.22100
N 	N 	0.29740 0.13310 0.68536 -0.22400
N 	N 	0.60010 0.19790 0.82166 -0.22800
N 	N 	0.60010 0.80210 0.17834 -0.20000
N 	N 	0.29740 0.86690 0.31464 -0.21700
N 	N 	0.29740 0.36690 0.18536 -0.22000
O 	O 	0.62180 0.58610 0.16410 -0.42600
O 	O 	0.42560 0.83160 0.62113 -0.51800
O 	O 	0.56230 0.38823 0.98172 -0.65900
O 	O 	0.39380 0.46306 0.06556 -0.70300
O 	O 	0.42560 0.33160 0.87887 -0.52100
O 	O 	0.62180 0.08610 0.33590 -0.46100
O 	O 	0.52810 0.31720 0.46457 -0.40900
O 	O 	0.65020 0.95590 0.39942 -0.42900
O 	O 	0.73460 0.23100 0.43030 -0.43200
O 	O 	0.56230 0.11177 0.48172 -0.69100
O 	O 	0.32510 0.07060 0.31791 -0.46600
O 	O 	0.78500 0.40460 0.98097 -0.40400
O 	O 	0.73460 0.76900 0.56970 -0.42800
O 	O 	0.39380 0.53694 0.93444 -0.68800
O 	O 	0.73460 0.26900 0.93030 -0.43200
O 	O 	0.16880 0.61320 0.94579 -0.43100
O 	O 	0.32510 0.42940 0.81791 -0.44900
O 	O 	0.65020 0.54410 0.89942 -0.41900
O 	O 	0.56230 0.88823 0.51828 -0.67300
O 	O 	0.32510 0.92940 0.68209 -0.43100
O 	O 	0.56230 0.61177 0.01828 -0.70800
O 	O 	0.39380 0.96306 0.43444 -0.68300
O 	O 	0.65020 0.04410 0.60058 -0.41900
O 	O 	0.24730 0.40407 0.95666 -0.56500
O 	O 	0.24730 0.90407 0.54334 -0.54900
O 	O 	0.16880 0.38680 0.05421 -0.48400
O 	O 	0.42560 0.16840 0.37887 -0.52700
O 	O 	0.73460 0.73100 0.06970 -0.42800
O 	O 	0.78500 0.59540 0.01903 -0.41800
O 	O 	0.39380 0.03694 0.56556 -0.70800
O 	O 	0.39100 0.24580 0.50869 -0.43500
O 	O 	0.78500 0.90460 0.51903 -0.39900
O 	O 	0.24730 0.59593 0.04334 -0.55400
O 	O 	0.16880 0.11320 0.55421 -0.46400
O 	O 	0.39100 0.74580 0.99131 -0.40600
O 	O 	0.65020 0.45590 0.10058 -0.43000
O 	O 	0.32510 0.57060 0.18209 -0.45000
O 	O 	0.78500 0.09540 0.48097 -0.42300
O 	O 	0.24730 0.09593 0.45666 -0.57000
O 	O 	0.52810 0.18280 0.96457 -0.40800
O 	O 	0.62180 0.91390 0.66410 -0.38900
O 	O 	0.39100 0.75420 0.49131 -0.43500
O 	O 	0.39100 0.25420 0.00869 -0.46100
O 	O 	0.52810 0.81720 0.03543 -0.40300
O 	O 	0.62180 0.41390 0.83590 -0.42500
O 	O 	0.52810 0.68280 0.53543 -0.40900
O 	O 	0.16880 0.88680 0.44579 -0.45200
O 	O 	0.42560 0.66840 0.12113 -0.52400
