data_crystal

_cell_length_a 28.52600
_cell_length_b 28.52600
_cell_length_c 28.52600
_cell_angle_alpha 90.00000
_cell_angle_beta  90.00000
_cell_angle_gamma 90.00000

_symmetry_space_group_name_	'P 1'
_symmetry_space_group_name_H-M	'P 1'

loop_
_symmetry_equiv_pos_as_xyz
  x,y,z

loop_
_atom_site_label
_atom_site_type_symbol
_atom_site_fract_x
_atom_site_fract_y
_atom_site_fract_z
_atom_site_charge
N 	N 	0.45130 0.08610 0.05220 -0.14600
N 	N 	0.41970 0.11690 0.05880 -0.10000
C 	C 	0.35150 0.17200 0.11400 0.11900
C 	C 	0.33020 0.14840 0.09050 -0.10800
C 	C 	0.31300 0.19340 0.13460 -0.04600
C 	C 	0.28610 0.16900 0.11070 0.04800
N 	N 	0.54870 0.91390 0.05220 -0.14200
N 	N 	0.58030 0.88310 0.05880 -0.09800
C 	C 	0.64850 0.82800 0.11400 0.12700
C 	C 	0.66980 0.85160 0.09050 -0.11100
C 	C 	0.68700 0.80660 0.13460 -0.04900
C 	C 	0.71390 0.83100 0.11070 0.05400
N 	N 	0.54870 0.08610 0.94780 -0.13300
N 	N 	0.58030 0.11690 0.94120 -0.08800
C 	C 	0.64850 0.17200 0.88600 0.13000
C 	C 	0.66980 0.14840 0.90950 -0.10200
C 	C 	0.68700 0.19340 0.86540 -0.04700
C 	C 	0.71390 0.16900 0.88930 0.05900
N 	N 	0.45130 0.91390 0.94780 -0.12900
N 	N 	0.41970 0.88310 0.94120 -0.08700
C 	C 	0.35150 0.82800 0.88600 0.13300
C 	C 	0.33020 0.85160 0.90950 -0.10300
C 	C 	0.31300 0.80660 0.86540 -0.04900
C 	C 	0.28610 0.83100 0.88930 0.06100
N 	N 	0.05220 0.45130 0.08610 -0.14600
N 	N 	0.05880 0.41970 0.11690 -0.10000
C 	C 	0.11400 0.35150 0.17200 0.11900
C 	C 	0.09050 0.33020 0.14840 -0.10800
C 	C 	0.13460 0.31300 0.19340 -0.04600
C 	C 	0.11070 0.28610 0.16900 0.04800
N 	N 	0.05220 0.54870 0.91390 -0.14200
N 	N 	0.05880 0.58030 0.88310 -0.09800
C 	C 	0.11400 0.64850 0.82800 0.12700
C 	C 	0.09050 0.66980 0.85160 -0.11100
C 	C 	0.13460 0.68700 0.80660 -0.04900
C 	C 	0.11070 0.71390 0.83100 0.05400
N 	N 	0.94780 0.54870 0.08610 -0.13300
N 	N 	0.94120 0.58030 0.11690 -0.08800
C 	C 	0.88600 0.64850 0.17200 0.13000
C 	C 	0.90950 0.66980 0.14840 -0.10200
C 	C 	0.86540 0.68700 0.19340 -0.04700
C 	C 	0.88930 0.71390 0.16900 0.05900
N 	N 	0.94780 0.45130 0.91390 -0.12800
N 	N 	0.94120 0.41970 0.88310 -0.08600
C 	C 	0.88600 0.35150 0.82800 0.13400
C 	C 	0.90950 0.33020 0.85160 -0.10200
C 	C 	0.86540 0.31300 0.80660 -0.04800
C 	C 	0.88930 0.28610 0.83100 0.06200
N 	N 	0.08610 0.05220 0.45130 -0.14500
N 	N 	0.11690 0.05880 0.41970 -0.09900
C 	C 	0.17200 0.11400 0.35150 0.12000
C 	C 	0.14840 0.09050 0.33020 -0.10700
C 	C 	0.19340 0.13460 0.31300 -0.04500
C 	C 	0.16900 0.11070 0.28610 0.04900
N 	N 	0.91390 0.05220 0.54870 -0.14100
N 	N 	0.88310 0.05880 0.58030 -0.09700
C 	C 	0.82800 0.11400 0.64850 0.12800
C 	C 	0.85160 0.09050 0.66980 -0.11000
C 	C 	0.80660 0.13460 0.68700 -0.04800
C 	C 	0.83100 0.11070 0.71390 0.05500
N 	N 	0.08610 0.94780 0.54870 -0.13200
N 	N 	0.11690 0.94120 0.58030 -0.08700
C 	C 	0.17200 0.88600 0.64850 0.13100
C 	C 	0.14840 0.90950 0.66980 -0.10100
C 	C 	0.19340 0.86540 0.68700 -0.04600
C 	C 	0.16900 0.88930 0.71390 0.06000
N 	N 	0.91390 0.94780 0.45130 -0.12800
N 	N 	0.88310 0.94120 0.41970 -0.08600
C 	C 	0.82800 0.88600 0.35150 0.13400
C 	C 	0.85160 0.90950 0.33020 -0.10200
C 	C 	0.80660 0.86540 0.31300 -0.04800
C 	C 	0.83100 0.88930 0.28610 0.06200
N 	N 	0.08610 0.45130 0.94780 -0.13200
N 	N 	0.11690 0.41970 0.94120 -0.08800
C 	C 	0.17200 0.35150 0.88600 0.12800
C 	C 	0.14840 0.33020 0.90950 -0.10000
C 	C 	0.19340 0.31300 0.86540 -0.04500
C 	C 	0.16900 0.28610 0.88930 0.05800
N 	N 	0.91390 0.54870 0.94780 -0.12800
N 	N 	0.88310 0.58030 0.94120 -0.08600
C 	C 	0.82800 0.64850 0.88600 0.13700
C 	C 	0.85160 0.66980 0.90950 -0.10300
C 	C 	0.80660 0.68700 0.86540 -0.04900
C 	C 	0.83100 0.71390 0.88930 0.06400
N 	N 	0.08610 0.54870 0.05220 -0.14500
N 	N 	0.11690 0.58030 0.05880 -0.09900
C 	C 	0.17200 0.64850 0.11400 0.12200
C 	C 	0.14840 0.66980 0.09050 -0.10900
C 	C 	0.19340 0.68700 0.13460 -0.04600
C 	C 	0.16900 0.71390 0.11070 0.05100
N 	N 	0.91390 0.45130 0.05220 -0.14100
N 	N 	0.88310 0.41970 0.05880 -0.09800
C 	C 	0.82800 0.35150 0.11400 0.12600
C 	C 	0.85160 0.33020 0.09050 -0.10900
C 	C 	0.80660 0.31300 0.13460 -0.04700
C 	C 	0.83100 0.28610 0.11070 0.05300
N 	N 	0.45130 0.05220 0.91390 -0.14100
N 	N 	0.41970 0.05880 0.88310 -0.09800
C 	C 	0.35150 0.11400 0.82800 0.12600
C 	C 	0.33020 0.09050 0.85160 -0.10900
C 	C 	0.31300 0.13460 0.80660 -0.04700
C 	C 	0.28610 0.11070 0.83100 0.05300
N 	N 	0.54870 0.05220 0.08610 -0.14500
N 	N 	0.58030 0.05880 0.11690 -0.09900
C 	C 	0.64850 0.11400 0.17200 0.12200
C 	C 	0.66980 0.09050 0.14840 -0.10900
C 	C 	0.68700 0.13460 0.19340 -0.04600
C 	C 	0.71390 0.11070 0.16900 0.05100
N 	N 	0.54870 0.94780 0.91390 -0.12800
N 	N 	0.58030 0.94120 0.88310 -0.08600
C 	C 	0.64850 0.88600 0.82800 0.13700
C 	C 	0.66980 0.90950 0.85160 -0.10300
C 	C 	0.68700 0.86540 0.80660 -0.04900
C 	C 	0.71390 0.88930 0.83100 0.06400
N 	N 	0.45130 0.94780 0.08610 -0.13200
N 	N 	0.41970 0.94120 0.11690 -0.08800
C 	C 	0.35150 0.88600 0.17200 0.12800
C 	C 	0.33020 0.90950 0.14840 -0.10000
C 	C 	0.31300 0.86540 0.19340 -0.04500
C 	C 	0.28610 0.88930 0.16900 0.05800
N 	N 	0.05220 0.08610 0.54870 -0.14500
N 	N 	0.05880 0.11690 0.58030 -0.09900
C 	C 	0.11400 0.17200 0.64850 0.12200
C 	C 	0.09050 0.14840 0.66980 -0.10900
C 	C 	0.13460 0.19340 0.68700 -0.04600
C 	C 	0.11070 0.16900 0.71390 0.05100
N 	N 	0.05220 0.91390 0.45130 -0.14100
N 	N 	0.05880 0.88310 0.41970 -0.09800
C 	C 	0.11400 0.82800 0.35150 0.12600
C 	C 	0.09050 0.85160 0.33020 -0.10900
C 	C 	0.13460 0.80660 0.31300 -0.04700
C 	C 	0.11070 0.83100 0.28610 0.05300
N 	N 	0.94780 0.08610 0.45130 -0.13200
N 	N 	0.94120 0.11690 0.41970 -0.08800
C 	C 	0.88600 0.17200 0.35150 0.12800
C 	C 	0.90950 0.14840 0.33020 -0.10000
C 	C 	0.86540 0.19340 0.31300 -0.04500
C 	C 	0.88930 0.16900 0.28610 0.05800
N 	N 	0.94780 0.91390 0.54870 -0.12800
N 	N 	0.94120 0.88310 0.58030 -0.08600
C 	C 	0.88600 0.82800 0.64850 0.13700
C 	C 	0.90950 0.85160 0.66980 -0.10300
C 	C 	0.86540 0.80660 0.68700 -0.04900
C 	C 	0.88930 0.83100 0.71390 0.06400
N 	N 	0.54870 0.91390 0.94780 -0.12800
N 	N 	0.58030 0.88310 0.94120 -0.08600
C 	C 	0.64850 0.82800 0.88600 0.13700
C 	C 	0.66980 0.85160 0.90950 -0.10300
C 	C 	0.68700 0.80660 0.86540 -0.04900
C 	C 	0.71390 0.83100 0.88930 0.06400
N 	N 	0.45130 0.08610 0.94780 -0.13200
N 	N 	0.41970 0.11690 0.94120 -0.08800
C 	C 	0.35150 0.17200 0.88600 0.12800
C 	C 	0.33020 0.14840 0.90950 -0.10000
C 	C 	0.31300 0.19340 0.86540 -0.04500
C 	C 	0.28610 0.16900 0.88930 0.05800
N 	N 	0.45130 0.91390 0.05220 -0.14100
N 	N 	0.41970 0.88310 0.05880 -0.09800
C 	C 	0.35150 0.82800 0.11400 0.12600
C 	C 	0.33020 0.85160 0.09050 -0.10900
C 	C 	0.31300 0.80660 0.13460 -0.04700
C 	C 	0.28610 0.83100 0.11070 0.05300
N 	N 	0.54870 0.08610 0.05220 -0.14500
N 	N 	0.58030 0.11690 0.05880 -0.09900
C 	C 	0.64850 0.17200 0.11400 0.12200
C 	C 	0.66980 0.14840 0.09050 -0.10900
C 	C 	0.68700 0.19340 0.13460 -0.04600
C 	C 	0.71390 0.16900 0.11070 0.05100
N 	N 	0.94780 0.54870 0.91390 -0.12800
N 	N 	0.94120 0.58030 0.88310 -0.08600
C 	C 	0.88600 0.64850 0.82800 0.13700
C 	C 	0.90950 0.66980 0.85160 -0.10300
C 	C 	0.86540 0.68700 0.80660 -0.04900
C 	C 	0.88930 0.71390 0.83100 0.06400
N 	N 	0.94780 0.45130 0.08610 -0.13200
N 	N 	0.94120 0.41970 0.11690 -0.08800
C 	C 	0.88600 0.35150 0.17200 0.12800
C 	C 	0.90950 0.33020 0.14840 -0.10000
C 	C 	0.86540 0.31300 0.19340 -0.04500
C 	C 	0.88930 0.28610 0.16900 0.05800
N 	N 	0.05220 0.45130 0.91390 -0.14100
N 	N 	0.05880 0.41970 0.88310 -0.09800
C 	C 	0.11400 0.35150 0.82800 0.12600
C 	C 	0.09050 0.33020 0.85160 -0.10900
C 	C 	0.13460 0.31300 0.80660 -0.04700
C 	C 	0.11070 0.28610 0.83100 0.05300
N 	N 	0.05220 0.54870 0.08610 -0.14500
N 	N 	0.05880 0.58030 0.11690 -0.09900
C 	C 	0.11400 0.64850 0.17200 0.12200
C 	C 	0.09050 0.66980 0.14840 -0.10900
C 	C 	0.13460 0.68700 0.19340 -0.04600
C 	C 	0.11070 0.71390 0.16900 0.05100
N 	N 	0.91390 0.94780 0.54870 -0.12800
N 	N 	0.88310 0.94120 0.58030 -0.08600
C 	C 	0.82800 0.88600 0.64850 0.13700
C 	C 	0.85160 0.90950 0.66980 -0.10300
C 	C 	0.80660 0.86540 0.68700 -0.04900
C 	C 	0.83100 0.88930 0.71390 0.06400
N 	N 	0.08610 0.94780 0.45130 -0.13200
N 	N 	0.11690 0.94120 0.41970 -0.08800
C 	C 	0.17200 0.88600 0.35150 0.12800
C 	C 	0.14840 0.90950 0.33020 -0.10000
C 	C 	0.19340 0.86540 0.31300 -0.04500
C 	C 	0.16900 0.88930 0.28610 0.05800
N 	N 	0.91390 0.05220 0.45130 -0.14100
N 	N 	0.88310 0.05880 0.41970 -0.09800
C 	C 	0.82800 0.11400 0.35150 0.12600
C 	C 	0.85160 0.09050 0.33020 -0.10900
C 	C 	0.80660 0.13460 0.31300 -0.04700
C 	C 	0.83100 0.11070 0.28610 0.05300
N 	N 	0.08610 0.05220 0.54870 -0.14500
N 	N 	0.11690 0.05880 0.58030 -0.09900
C 	C 	0.17200 0.11400 0.64850 0.12200
C 	C 	0.14840 0.09050 0.66980 -0.10900
C 	C 	0.19340 0.13460 0.68700 -0.04600
C 	C 	0.16900 0.11070 0.71390 0.05100
N 	N 	0.91390 0.54870 0.05220 -0.14100
N 	N 	0.88310 0.58030 0.05880 -0.09700
C 	C 	0.82800 0.64850 0.11400 0.12800
C 	C 	0.85160 0.66980 0.09050 -0.11000
C 	C 	0.80660 0.68700 0.13460 -0.04800
C 	C 	0.83100 0.71390 0.11070 0.05500
N 	N 	0.08610 0.45130 0.05220 -0.14500
N 	N 	0.11690 0.41970 0.05880 -0.09900
C 	C 	0.17200 0.35150 0.11400 0.12000
C 	C 	0.14840 0.33020 0.09050 -0.10700
C 	C 	0.19340 0.31300 0.13460 -0.04500
C 	C 	0.16900 0.28610 0.11070 0.04900
N 	N 	0.91390 0.45130 0.94780 -0.12800
N 	N 	0.88310 0.41970 0.94120 -0.08600
C 	C 	0.82800 0.35150 0.88600 0.13400
C 	C 	0.85160 0.33020 0.90950 -0.10200
C 	C 	0.80660 0.31300 0.86540 -0.04800
C 	C 	0.83100 0.28610 0.88930 0.06200
N 	N 	0.08610 0.54870 0.94780 -0.13200
N 	N 	0.11690 0.58030 0.94120 -0.08700
C 	C 	0.17200 0.64850 0.88600 0.13100
C 	C 	0.14840 0.66980 0.90950 -0.10100
C 	C 	0.19340 0.68700 0.86540 -0.04600
C 	C 	0.16900 0.71390 0.88930 0.06000
N 	N 	0.54870 0.94780 0.08610 -0.13200
N 	N 	0.58030 0.94120 0.11690 -0.08700
C 	C 	0.64850 0.88600 0.17200 0.13100
C 	C 	0.66980 0.90950 0.14840 -0.10100
C 	C 	0.68700 0.86540 0.19340 -0.04600
C 	C 	0.71390 0.88930 0.16900 0.06000
N 	N 	0.45130 0.94780 0.91390 -0.12800
N 	N 	0.41970 0.94120 0.88310 -0.08600
C 	C 	0.35150 0.88600 0.82800 0.13400
C 	C 	0.33020 0.90950 0.85160 -0.10200
C 	C 	0.31300 0.86540 0.80660 -0.04800
C 	C 	0.28610 0.88930 0.83100 0.06200
N 	N 	0.45130 0.05220 0.08610 -0.14500
N 	N 	0.41970 0.05880 0.11690 -0.09900
C 	C 	0.35150 0.11400 0.17200 0.12000
C 	C 	0.33020 0.09050 0.14840 -0.10700
C 	C 	0.31300 0.13460 0.19340 -0.04500
C 	C 	0.28610 0.11070 0.16900 0.04900
N 	N 	0.54870 0.05220 0.91390 -0.14100
N 	N 	0.58030 0.05880 0.88310 -0.09700
C 	C 	0.64850 0.11400 0.82800 0.12800
C 	C 	0.66980 0.09050 0.85160 -0.11000
C 	C 	0.68700 0.13460 0.80660 -0.04800
C 	C 	0.71390 0.11070 0.83100 0.05500
N 	N 	0.94780 0.91390 0.45130 -0.12800
N 	N 	0.94120 0.88310 0.41970 -0.08600
C 	C 	0.88600 0.82800 0.35150 0.13400
C 	C 	0.90950 0.85160 0.33020 -0.10200
C 	C 	0.86540 0.80660 0.31300 -0.04800
C 	C 	0.88930 0.83100 0.28610 0.06200
N 	N 	0.94780 0.08610 0.54870 -0.13200
N 	N 	0.94120 0.11690 0.58030 -0.08700
C 	C 	0.88600 0.17200 0.64850 0.13100
C 	C 	0.90950 0.14840 0.66980 -0.10100
C 	C 	0.86540 0.19340 0.68700 -0.04600
C 	C 	0.88930 0.16900 0.71390 0.06000
N 	N 	0.05220 0.91390 0.54870 -0.14100
N 	N 	0.05880 0.88310 0.58030 -0.09700
C 	C 	0.11400 0.82800 0.64850 0.12800
C 	C 	0.09050 0.85160 0.66980 -0.11000
C 	C 	0.13460 0.80660 0.68700 -0.04800
C 	C 	0.11070 0.83100 0.71390 0.05500
N 	N 	0.05220 0.08610 0.45130 -0.14500
N 	N 	0.05880 0.11690 0.41970 -0.09900
C 	C 	0.11400 0.17200 0.35150 0.12000
C 	C 	0.09050 0.14840 0.33020 -0.10700
C 	C 	0.13460 0.19340 0.31300 -0.04500
C 	C 	0.11070 0.16900 0.28610 0.04900
Cu	Cu	0.50000 0.08940 -0.00000 0.86900
Cu	Cu	0.50000 0.91060 -0.00000 0.87400
Cu	Cu	-0.00000 0.50000 0.08940 0.86900
Cu	Cu	0.00000 0.50000 0.91060 0.87400
Cu	Cu	0.08940 0.00000 0.50000 0.86900
Cu	Cu	0.91060 0.00000 0.50000 0.87400
Cu	Cu	0.08940 0.50000 -0.00000 0.86900
Cu	Cu	0.91060 0.50000 -0.00000 0.87400
Cu	Cu	0.50000 0.00000 0.91060 0.87400
Cu	Cu	0.50000 0.00000 0.08940 0.86900
Cu	Cu	-0.00000 0.08940 0.50000 0.86900
Cu	Cu	0.00000 0.91060 0.50000 0.87400
Cl	Cl	0.50000 0.00000 -0.00000 -0.73400
Cl	Cl	-0.00000 0.50000 -0.00000 -0.73400
Cl	Cl	0.00000 0.00000 0.50000 -0.73400
N 	N 	0.23740 0.23740 0.17600 -0.11100
N 	N 	0.20960 0.20960 0.15100 -0.06100
N 	N 	0.76260 0.76260 0.17600 -0.11100
N 	N 	0.79040 0.79040 0.15100 -0.05800
N 	N 	0.76260 0.23740 0.82400 -0.11000
N 	N 	0.79040 0.20960 0.84900 -0.05600
N 	N 	0.23740 0.76260 0.82400 -0.11000
N 	N 	0.20960 0.79040 0.84900 -0.05600
N 	N 	0.17600 0.23740 0.23740 -0.11100
N 	N 	0.15100 0.20960 0.20960 -0.06100
N 	N 	0.17600 0.76260 0.76260 -0.11100
N 	N 	0.15100 0.79040 0.79040 -0.05800
N 	N 	0.82400 0.76260 0.23740 -0.11000
N 	N 	0.84900 0.79040 0.20960 -0.05600
N 	N 	0.82400 0.23740 0.76260 -0.11000
N 	N 	0.84900 0.20960 0.79040 -0.05600
N 	N 	0.23740 0.17600 0.23740 -0.11100
N 	N 	0.20960 0.15100 0.20960 -0.06100
N 	N 	0.76260 0.17600 0.76260 -0.11100
N 	N 	0.79040 0.15100 0.79040 -0.05800
N 	N 	0.23740 0.82400 0.76260 -0.11000
N 	N 	0.20960 0.84900 0.79040 -0.05600
N 	N 	0.76260 0.82400 0.23740 -0.11000
N 	N 	0.79040 0.84900 0.20960 -0.05600
N 	N 	0.23740 0.23740 0.82400 -0.11000
N 	N 	0.20960 0.20960 0.84900 -0.05700
N 	N 	0.76260 0.76260 0.82400 -0.11000
N 	N 	0.79040 0.79040 0.84900 -0.05400
N 	N 	0.23740 0.76260 0.17600 -0.11100
N 	N 	0.20960 0.79040 0.15100 -0.05900
N 	N 	0.76260 0.23740 0.17600 -0.11100
N 	N 	0.79040 0.20960 0.15100 -0.05900
N 	N 	0.23740 0.17600 0.76260 -0.11100
N 	N 	0.20960 0.15100 0.79040 -0.05900
N 	N 	0.76260 0.17600 0.23740 -0.11100
N 	N 	0.79040 0.15100 0.20960 -0.05900
N 	N 	0.76260 0.82400 0.76260 -0.11000
N 	N 	0.79040 0.84900 0.79040 -0.05400
N 	N 	0.23740 0.82400 0.23740 -0.11000
N 	N 	0.20960 0.84900 0.20960 -0.05700
N 	N 	0.17600 0.23740 0.76260 -0.11100
N 	N 	0.15100 0.20960 0.79040 -0.05900
N 	N 	0.17600 0.76260 0.23740 -0.11100
N 	N 	0.15100 0.79040 0.20960 -0.05900
N 	N 	0.82400 0.23740 0.23740 -0.11000
N 	N 	0.84900 0.20960 0.20960 -0.05700
N 	N 	0.82400 0.76260 0.76260 -0.11000
N 	N 	0.84900 0.79040 0.79040 -0.05400
C 	C 	0.40040 0.09910 0.09910 0.11400
C 	C 	0.36800 0.13110 0.13110 -0.20700
C 	C 	0.35100 0.11190 0.11190 0.17700
C 	C 	0.29360 0.17100 0.17100 0.00800
C 	C 	0.26100 0.14100 0.14100 -0.01200
C 	C 	0.25650 0.19830 0.19830 0.12900
C 	C 	0.59960 0.90090 0.09910 0.11800
C 	C 	0.63200 0.86890 0.13110 -0.22400
C 	C 	0.64900 0.88810 0.11190 0.19500
C 	C 	0.70640 0.82900 0.17100 0.00700
C 	C 	0.73900 0.85900 0.14100 -0.00600
C 	C 	0.74350 0.80170 0.19830 0.13000
C 	C 	0.59960 0.09910 0.90090 0.11800
C 	C 	0.63200 0.13110 0.86890 -0.22400
C 	C 	0.64900 0.11190 0.88810 0.19500
C 	C 	0.70640 0.17100 0.82900 0.00700
C 	C 	0.73900 0.14100 0.85900 -0.00600
C 	C 	0.74350 0.19830 0.80170 0.13000
C 	C 	0.40040 0.90090 0.90090 0.12300
C 	C 	0.36800 0.86890 0.86890 -0.23400
C 	C 	0.35100 0.88810 0.88810 0.20400
C 	C 	0.29360 0.82900 0.82900 0.00600
C 	C 	0.26100 0.85900 0.85900 -0.00400
C 	C 	0.25650 0.80170 0.80170 0.13000
C 	C 	0.09910 0.40040 0.09910 0.11400
C 	C 	0.13110 0.36800 0.13110 -0.20700
C 	C 	0.11190 0.35100 0.11190 0.17700
C 	C 	0.17100 0.29360 0.17100 0.00800
C 	C 	0.14100 0.26100 0.14100 -0.01200
C 	C 	0.19830 0.25650 0.19830 0.12900
C 	C 	0.09910 0.59960 0.90090 0.11800
C 	C 	0.13110 0.63200 0.86890 -0.22400
C 	C 	0.11190 0.64900 0.88810 0.19500
C 	C 	0.17100 0.70640 0.82900 0.00700
C 	C 	0.14100 0.73900 0.85900 -0.00600
C 	C 	0.19830 0.74350 0.80170 0.13000
C 	C 	0.90090 0.59960 0.09910 0.11800
C 	C 	0.86890 0.63200 0.13110 -0.22400
C 	C 	0.88810 0.64900 0.11190 0.19500
C 	C 	0.82900 0.70640 0.17100 0.00700
C 	C 	0.85900 0.73900 0.14100 -0.00600
C 	C 	0.80170 0.74350 0.19830 0.13000
C 	C 	0.90090 0.40040 0.90090 0.12300
C 	C 	0.86890 0.36800 0.86890 -0.23400
C 	C 	0.88810 0.35100 0.88810 0.20400
C 	C 	0.82900 0.29360 0.82900 0.00600
C 	C 	0.85900 0.26100 0.85900 -0.00400
C 	C 	0.80170 0.25650 0.80170 0.13000
C 	C 	0.09910 0.09910 0.40040 0.11400
C 	C 	0.13110 0.13110 0.36800 -0.20700
C 	C 	0.11190 0.11190 0.35100 0.17700
C 	C 	0.17100 0.17100 0.29360 0.00800
C 	C 	0.14100 0.14100 0.26100 -0.01200
C 	C 	0.19830 0.19830 0.25650 0.12900
C 	C 	0.90090 0.09910 0.59960 0.11800
C 	C 	0.86890 0.13110 0.63200 -0.22400
C 	C 	0.88810 0.11190 0.64900 0.19500
C 	C 	0.82900 0.17100 0.70640 0.00700
C 	C 	0.85900 0.14100 0.73900 -0.00600
C 	C 	0.80170 0.19830 0.74350 0.13000
C 	C 	0.09910 0.90090 0.59960 0.11800
C 	C 	0.13110 0.86890 0.63200 -0.22400
C 	C 	0.11190 0.88810 0.64900 0.19500
C 	C 	0.17100 0.82900 0.70640 0.00700
C 	C 	0.14100 0.85900 0.73900 -0.00600
C 	C 	0.19830 0.80170 0.74350 0.13000
C 	C 	0.90090 0.90090 0.40040 0.12300
C 	C 	0.86890 0.86890 0.36800 -0.23400
C 	C 	0.88810 0.88810 0.35100 0.20400
C 	C 	0.82900 0.82900 0.29360 0.00600
C 	C 	0.85900 0.85900 0.26100 -0.00400
C 	C 	0.80170 0.80170 0.25650 0.13000
C 	C 	0.09910 0.40040 0.90090 0.11800
C 	C 	0.13110 0.36800 0.86890 -0.22000
C 	C 	0.11190 0.35100 0.88810 0.19100
C 	C 	0.17100 0.29360 0.82900 0.00700
C 	C 	0.14100 0.26100 0.85900 -0.00800
C 	C 	0.19830 0.25650 0.80170 0.12900
C 	C 	0.90090 0.59960 0.90090 0.12300
C 	C 	0.86890 0.63200 0.86890 -0.23800
C 	C 	0.88810 0.64900 0.88810 0.20800
C 	C 	0.82900 0.70640 0.82900 0.00600
C 	C 	0.85900 0.73900 0.85900 -0.00200
C 	C 	0.80170 0.74350 0.80170 0.13100
C 	C 	0.09910 0.59960 0.09910 0.11400
C 	C 	0.13110 0.63200 0.13110 -0.21100
C 	C 	0.11190 0.64900 0.11190 0.18200
C 	C 	0.17100 0.70640 0.17100 0.00800
C 	C 	0.14100 0.73900 0.14100 -0.01000
C 	C 	0.19830 0.74350 0.19830 0.12900
C 	C 	0.90090 0.40040 0.09910 0.11800
C 	C 	0.86890 0.36800 0.13110 -0.22000
C 	C 	0.88810 0.35100 0.11190 0.19100
C 	C 	0.82900 0.29360 0.17100 0.00700
C 	C 	0.85900 0.26100 0.14100 -0.00800
C 	C 	0.80170 0.25650 0.19830 0.12900
C 	C 	0.40040 0.09910 0.90090 0.11800
C 	C 	0.36800 0.13110 0.86890 -0.22000
C 	C 	0.35100 0.11190 0.88810 0.19100
C 	C 	0.29360 0.17100 0.82900 0.00700
C 	C 	0.26100 0.14100 0.85900 -0.00800
C 	C 	0.25650 0.19830 0.80170 0.12900
C 	C 	0.59960 0.09910 0.09910 0.11400
C 	C 	0.63200 0.13110 0.13110 -0.21100
C 	C 	0.64900 0.11190 0.11190 0.18200
C 	C 	0.70640 0.17100 0.17100 0.00800
C 	C 	0.73900 0.14100 0.14100 -0.01000
C 	C 	0.74350 0.19830 0.19830 0.12900
C 	C 	0.59960 0.90090 0.90090 0.12300
C 	C 	0.63200 0.86890 0.86890 -0.23800
C 	C 	0.64900 0.88810 0.88810 0.20800
C 	C 	0.70640 0.82900 0.82900 0.00600
C 	C 	0.73900 0.85900 0.85900 -0.00200
C 	C 	0.74350 0.80170 0.80170 0.13100
C 	C 	0.40040 0.90090 0.09910 0.11800
C 	C 	0.36800 0.86890 0.13110 -0.22000
C 	C 	0.35100 0.88810 0.11190 0.19100
C 	C 	0.29360 0.82900 0.17100 0.00700
C 	C 	0.26100 0.85900 0.14100 -0.00800
C 	C 	0.25650 0.80170 0.19830 0.12900
C 	C 	0.09910 0.09910 0.59960 0.11400
C 	C 	0.13110 0.13110 0.63200 -0.21100
C 	C 	0.11190 0.11190 0.64900 0.18200
C 	C 	0.17100 0.17100 0.70640 0.00800
C 	C 	0.14100 0.14100 0.73900 -0.01000
C 	C 	0.19830 0.19830 0.74350 0.12900
C 	C 	0.09910 0.90090 0.40040 0.11800
C 	C 	0.13110 0.86890 0.36800 -0.22000
C 	C 	0.11190 0.88810 0.35100 0.19100
C 	C 	0.17100 0.82900 0.29360 0.00700
C 	C 	0.14100 0.85900 0.26100 -0.00800
C 	C 	0.19830 0.80170 0.25650 0.12900
C 	C 	0.90090 0.09910 0.40040 0.11800
C 	C 	0.86890 0.13110 0.36800 -0.22000
C 	C 	0.88810 0.11190 0.35100 0.19100
C 	C 	0.82900 0.17100 0.29360 0.00700
C 	C 	0.85900 0.14100 0.26100 -0.00800
C 	C 	0.80170 0.19830 0.25650 0.12900
C 	C 	0.90090 0.90090 0.59960 0.12300
C 	C 	0.86890 0.86890 0.63200 -0.23800
C 	C 	0.88810 0.88810 0.64900 0.20800
C 	C 	0.82900 0.82900 0.70640 0.00600
C 	C 	0.85900 0.85900 0.73900 -0.00200
C 	C 	0.80170 0.80170 0.74350 0.13100
N 	N 	0.95130 0.58610 0.55220 -0.13100
N 	N 	0.91970 0.61690 0.55880 -0.09000
C 	C 	0.85150 0.67200 0.61400 0.13700
C 	C 	0.83020 0.64840 0.59050 -0.11100
C 	C 	0.81300 0.69340 0.63460 -0.05000
C 	C 	0.78610 0.66900 0.61070 0.05900
N 	N 	0.04870 0.41390 0.55220 -0.14400
N 	N 	0.08030 0.38310 0.55880 -0.09500
C 	C 	0.14850 0.32800 0.61400 0.12000
C 	C 	0.16980 0.35160 0.59050 -0.10100
C 	C 	0.18700 0.30660 0.63460 -0.04500
C 	C 	0.21390 0.33100 0.61070 0.05400
N 	N 	0.04870 0.58610 0.44780 -0.14400
N 	N 	0.08030 0.61690 0.44120 -0.09500
C 	C 	0.14850 0.67200 0.38600 0.12100
C 	C 	0.16980 0.64840 0.40950 -0.10100
C 	C 	0.18700 0.69340 0.36540 -0.04400
C 	C 	0.21390 0.66900 0.38930 0.05400
N 	N 	0.95130 0.41390 0.44780 -0.13100
N 	N 	0.91970 0.38310 0.44120 -0.09000
C 	C 	0.85150 0.32800 0.38600 0.13600
C 	C 	0.83020 0.35160 0.40950 -0.11000
C 	C 	0.81300 0.30660 0.36540 -0.05000
C 	C 	0.78610 0.33100 0.38930 0.05900
N 	N 	0.55220 0.95130 0.58610 -0.13100
N 	N 	0.55880 0.91970 0.61690 -0.09000
C 	C 	0.61400 0.85150 0.67200 0.13700
C 	C 	0.59050 0.83020 0.64840 -0.11100
C 	C 	0.63460 0.81300 0.69340 -0.05000
C 	C 	0.61070 0.78610 0.66900 0.05900
N 	N 	0.55220 0.04870 0.41390 -0.14400
N 	N 	0.55880 0.08030 0.38310 -0.09500
C 	C 	0.61400 0.14850 0.32800 0.12000
C 	C 	0.59050 0.16980 0.35160 -0.10100
C 	C 	0.63460 0.18700 0.30660 -0.04500
C 	C 	0.61070 0.21390 0.33100 0.05400
N 	N 	0.44780 0.04870 0.58610 -0.14400
N 	N 	0.44120 0.08030 0.61690 -0.09500
C 	C 	0.38600 0.14850 0.67200 0.12100
C 	C 	0.40950 0.16980 0.64840 -0.10100
C 	C 	0.36540 0.18700 0.69340 -0.04400
C 	C 	0.38930 0.21390 0.66900 0.05400
N 	N 	0.44780 0.95130 0.41390 -0.13100
N 	N 	0.44120 0.91970 0.38310 -0.09000
C 	C 	0.38600 0.85150 0.32800 0.13600
C 	C 	0.40950 0.83020 0.35160 -0.11000
C 	C 	0.36540 0.81300 0.30660 -0.05000
C 	C 	0.38930 0.78610 0.33100 0.05900
N 	N 	0.58610 0.55220 0.95130 -0.13100
N 	N 	0.61690 0.55880 0.91970 -0.09000
C 	C 	0.67200 0.61400 0.85150 0.13700
C 	C 	0.64840 0.59050 0.83020 -0.11100
C 	C 	0.69340 0.63460 0.81300 -0.05000
C 	C 	0.66900 0.61070 0.78610 0.05900
N 	N 	0.41390 0.55220 0.04870 -0.14400
N 	N 	0.38310 0.55880 0.08030 -0.09500
C 	C 	0.32800 0.61400 0.14850 0.12000
C 	C 	0.35160 0.59050 0.16980 -0.10100
C 	C 	0.30660 0.63460 0.18700 -0.04500
C 	C 	0.33100 0.61070 0.21390 0.05400
N 	N 	0.58610 0.44780 0.04870 -0.14400
N 	N 	0.61690 0.44120 0.08030 -0.09500
C 	C 	0.67200 0.38600 0.14850 0.12100
C 	C 	0.64840 0.40950 0.16980 -0.10100
C 	C 	0.69340 0.36540 0.18700 -0.04400
C 	C 	0.66900 0.38930 0.21390 0.05400
N 	N 	0.41390 0.44780 0.95130 -0.13100
N 	N 	0.38310 0.44120 0.91970 -0.09000
C 	C 	0.32800 0.38600 0.85150 0.13600
C 	C 	0.35160 0.40950 0.83020 -0.11000
C 	C 	0.30660 0.36540 0.81300 -0.05000
C 	C 	0.33100 0.38930 0.78610 0.05900
N 	N 	0.58610 0.95130 0.44780 -0.13100
N 	N 	0.61690 0.91970 0.44120 -0.09000
C 	C 	0.67200 0.85150 0.38600 0.13600
C 	C 	0.64840 0.83020 0.40950 -0.11000
C 	C 	0.69340 0.81300 0.36540 -0.04900
C 	C 	0.66900 0.78610 0.38930 0.05900
N 	N 	0.41390 0.04870 0.44780 -0.14400
N 	N 	0.38310 0.08030 0.44120 -0.09500
C 	C 	0.32800 0.14850 0.38600 0.12000
C 	C 	0.35160 0.16980 0.40950 -0.10100
C 	C 	0.30660 0.18700 0.36540 -0.04500
C 	C 	0.33100 0.21390 0.38930 0.05400
N 	N 	0.58610 0.04870 0.55220 -0.14400
N 	N 	0.61690 0.08030 0.55880 -0.09500
C 	C 	0.67200 0.14850 0.61400 0.12100
C 	C 	0.64840 0.16980 0.59050 -0.10100
C 	C 	0.69340 0.18700 0.63460 -0.04500
C 	C 	0.66900 0.21390 0.61070 0.05400
N 	N 	0.41390 0.95130 0.55220 -0.13100
N 	N 	0.38310 0.91970 0.55880 -0.09000
C 	C 	0.32800 0.85150 0.61400 0.13600
C 	C 	0.35160 0.83020 0.59050 -0.11000
C 	C 	0.30660 0.81300 0.63460 -0.05000
C 	C 	0.33100 0.78610 0.61070 0.05900
N 	N 	0.95130 0.55220 0.41390 -0.13100
N 	N 	0.91970 0.55880 0.38310 -0.09000
C 	C 	0.85150 0.61400 0.32800 0.13600
C 	C 	0.83020 0.59050 0.35160 -0.11000
C 	C 	0.81300 0.63460 0.30660 -0.05000
C 	C 	0.78610 0.61070 0.33100 0.05900
N 	N 	0.04870 0.55220 0.58610 -0.14400
N 	N 	0.08030 0.55880 0.61690 -0.09500
C 	C 	0.14850 0.61400 0.67200 0.12100
C 	C 	0.16980 0.59050 0.64840 -0.10100
C 	C 	0.18700 0.63460 0.69340 -0.04500
C 	C 	0.21390 0.61070 0.66900 0.05400
N 	N 	0.04870 0.44780 0.41390 -0.14400
N 	N 	0.08030 0.44120 0.38310 -0.09500
C 	C 	0.14850 0.38600 0.32800 0.12000
C 	C 	0.16980 0.40950 0.35160 -0.10100
C 	C 	0.18700 0.36540 0.30660 -0.04500
C 	C 	0.21390 0.38930 0.33100 0.05400
N 	N 	0.95130 0.44780 0.58610 -0.13100
N 	N 	0.91970 0.44120 0.61690 -0.09000
C 	C 	0.85150 0.38600 0.67200 0.13600
C 	C 	0.83020 0.40950 0.64840 -0.11000
C 	C 	0.81300 0.36540 0.69340 -0.04900
C 	C 	0.78610 0.38930 0.66900 0.05900
N 	N 	0.55220 0.58610 0.04870 -0.14400
N 	N 	0.55880 0.61690 0.08030 -0.09500
C 	C 	0.61400 0.67200 0.14850 0.12100
C 	C 	0.59050 0.64840 0.16980 -0.10100
C 	C 	0.63460 0.69340 0.18700 -0.04500
C 	C 	0.61070 0.66900 0.21390 0.05400
N 	N 	0.55220 0.41390 0.95130 -0.13100
N 	N 	0.55880 0.38310 0.91970 -0.09000
C 	C 	0.61400 0.32800 0.85150 0.13600
C 	C 	0.59050 0.35160 0.83020 -0.11000
C 	C 	0.63460 0.30660 0.81300 -0.05000
C 	C 	0.61070 0.33100 0.78610 0.05900
N 	N 	0.44780 0.58610 0.95130 -0.13100
N 	N 	0.44120 0.61690 0.91970 -0.09000
C 	C 	0.38600 0.67200 0.85150 0.13600
C 	C 	0.40950 0.64840 0.83020 -0.11000
C 	C 	0.36540 0.69340 0.81300 -0.04900
C 	C 	0.38930 0.66900 0.78610 0.05900
N 	N 	0.44780 0.41390 0.04870 -0.14400
N 	N 	0.44120 0.38310 0.08030 -0.09500
C 	C 	0.38600 0.32800 0.14850 0.12000
C 	C 	0.40950 0.35160 0.16980 -0.10100
C 	C 	0.36540 0.30660 0.18700 -0.04500
C 	C 	0.38930 0.33100 0.21390 0.05400
N 	N 	0.04870 0.41390 0.44780 -0.14400
N 	N 	0.08030 0.38310 0.44120 -0.09500
C 	C 	0.14850 0.32800 0.38600 0.12000
C 	C 	0.16980 0.35160 0.40950 -0.10100
C 	C 	0.18700 0.30660 0.36540 -0.04500
C 	C 	0.21390 0.33100 0.38930 0.05400
N 	N 	0.95130 0.58610 0.44780 -0.13100
N 	N 	0.91970 0.61690 0.44120 -0.09000
C 	C 	0.85150 0.67200 0.38600 0.13600
C 	C 	0.83020 0.64840 0.40950 -0.11000
C 	C 	0.81300 0.69340 0.36540 -0.04900
C 	C 	0.78610 0.66900 0.38930 0.05900
N 	N 	0.95130 0.41390 0.55220 -0.13100
N 	N 	0.91970 0.38310 0.55880 -0.09000
C 	C 	0.85150 0.32800 0.61400 0.13600
C 	C 	0.83020 0.35160 0.59050 -0.11000
C 	C 	0.81300 0.30660 0.63460 -0.05000
C 	C 	0.78610 0.33100 0.61070 0.05900
N 	N 	0.04870 0.58610 0.55220 -0.14400
N 	N 	0.08030 0.61690 0.55880 -0.09500
C 	C 	0.14850 0.67200 0.61400 0.12100
C 	C 	0.16980 0.64840 0.59050 -0.10100
C 	C 	0.18700 0.69340 0.63460 -0.04500
C 	C 	0.21390 0.66900 0.61070 0.05400
N 	N 	0.44780 0.04870 0.41390 -0.14400
N 	N 	0.44120 0.08030 0.38310 -0.09500
C 	C 	0.38600 0.14850 0.32800 0.12000
C 	C 	0.40950 0.16980 0.35160 -0.10100
C 	C 	0.36540 0.18700 0.30660 -0.04500
C 	C 	0.38930 0.21390 0.33100 0.05400
N 	N 	0.44780 0.95130 0.58610 -0.13100
N 	N 	0.44120 0.91970 0.61690 -0.09000
C 	C 	0.38600 0.85150 0.67200 0.13600
C 	C 	0.40950 0.83020 0.64840 -0.11000
C 	C 	0.36540 0.81300 0.69340 -0.04900
C 	C 	0.38930 0.78610 0.66900 0.05900
N 	N 	0.55220 0.95130 0.41390 -0.13100
N 	N 	0.55880 0.91970 0.38310 -0.09000
C 	C 	0.61400 0.85150 0.32800 0.13600
C 	C 	0.59050 0.83020 0.35160 -0.11000
C 	C 	0.63460 0.81300 0.30660 -0.05000
C 	C 	0.61070 0.78610 0.33100 0.05900
N 	N 	0.55220 0.04870 0.58610 -0.14400
N 	N 	0.55880 0.08030 0.61690 -0.09500
C 	C 	0.61400 0.14850 0.67200 0.12100
C 	C 	0.59050 0.16980 0.64840 -0.10100
C 	C 	0.63460 0.18700 0.69340 -0.04500
C 	C 	0.61070 0.21390 0.66900 0.05400
N 	N 	0.41390 0.44780 0.04870 -0.14400
N 	N 	0.38310 0.44120 0.08030 -0.09500
C 	C 	0.32800 0.38600 0.14850 0.12000
C 	C 	0.35160 0.40950 0.16980 -0.10100
C 	C 	0.30660 0.36540 0.18700 -0.04500
C 	C 	0.33100 0.38930 0.21390 0.05400
N 	N 	0.58610 0.44780 0.95130 -0.13100
N 	N 	0.61690 0.44120 0.91970 -0.09000
C 	C 	0.67200 0.38600 0.85150 0.13600
C 	C 	0.64840 0.40950 0.83020 -0.11000
C 	C 	0.69340 0.36540 0.81300 -0.04900
C 	C 	0.66900 0.38930 0.78610 0.05900
N 	N 	0.41390 0.55220 0.95130 -0.13100
N 	N 	0.38310 0.55880 0.91970 -0.09000
C 	C 	0.32800 0.61400 0.85150 0.13600
C 	C 	0.35160 0.59050 0.83020 -0.11000
C 	C 	0.30660 0.63460 0.81300 -0.05000
C 	C 	0.33100 0.61070 0.78610 0.05900
N 	N 	0.58610 0.55220 0.04870 -0.14400
N 	N 	0.61690 0.55880 0.08030 -0.09500
C 	C 	0.67200 0.61400 0.14850 0.12100
C 	C 	0.64840 0.59050 0.16980 -0.10100
C 	C 	0.69340 0.63460 0.18700 -0.04500
C 	C 	0.66900 0.61070 0.21390 0.05400
N 	N 	0.41390 0.04870 0.55220 -0.14400
N 	N 	0.38310 0.08030 0.55880 -0.09500
C 	C 	0.32800 0.14850 0.61400 0.12000
C 	C 	0.35160 0.16980 0.59050 -0.10100
C 	C 	0.30660 0.18700 0.63460 -0.04500
C 	C 	0.33100 0.21390 0.61070 0.05400
N 	N 	0.58610 0.95130 0.55220 -0.13100
N 	N 	0.61690 0.91970 0.55880 -0.09000
C 	C 	0.67200 0.85150 0.61400 0.13700
C 	C 	0.64840 0.83020 0.59050 -0.11100
C 	C 	0.69340 0.81300 0.63460 -0.05000
C 	C 	0.66900 0.78610 0.61070 0.05900
N 	N 	0.41390 0.95130 0.44780 -0.13100
N 	N 	0.38310 0.91970 0.44120 -0.09000
C 	C 	0.32800 0.85150 0.38600 0.13600
C 	C 	0.35160 0.83020 0.40950 -0.11000
C 	C 	0.30660 0.81300 0.36540 -0.05000
C 	C 	0.33100 0.78610 0.38930 0.05900
N 	N 	0.58610 0.04870 0.44780 -0.14400
N 	N 	0.61690 0.08030 0.44120 -0.09500
C 	C 	0.67200 0.14850 0.38600 0.12100
C 	C 	0.64840 0.16980 0.40950 -0.10100
C 	C 	0.69340 0.18700 0.36540 -0.04400
C 	C 	0.66900 0.21390 0.38930 0.05400
N 	N 	0.04870 0.44780 0.58610 -0.14400
N 	N 	0.08030 0.44120 0.61690 -0.09500
C 	C 	0.14850 0.38600 0.67200 0.12100
C 	C 	0.16980 0.40950 0.64840 -0.10100
C 	C 	0.18700 0.36540 0.69340 -0.04400
C 	C 	0.21390 0.38930 0.66900 0.05400
N 	N 	0.95130 0.44780 0.41390 -0.13100
N 	N 	0.91970 0.44120 0.38310 -0.09000
C 	C 	0.85150 0.38600 0.32800 0.13600
C 	C 	0.83020 0.40950 0.35160 -0.11000
C 	C 	0.81300 0.36540 0.30660 -0.05000
C 	C 	0.78610 0.38930 0.33100 0.05900
N 	N 	0.95130 0.55220 0.58610 -0.13100
N 	N 	0.91970 0.55880 0.61690 -0.09000
C 	C 	0.85150 0.61400 0.67200 0.13700
C 	C 	0.83020 0.59050 0.64840 -0.11100
C 	C 	0.81300 0.63460 0.69340 -0.05000
C 	C 	0.78610 0.61070 0.66900 0.05900
N 	N 	0.04870 0.55220 0.41390 -0.14400
N 	N 	0.08030 0.55880 0.38310 -0.09500
C 	C 	0.14850 0.61400 0.32800 0.12000
C 	C 	0.16980 0.59050 0.35160 -0.10100
C 	C 	0.18700 0.63460 0.30660 -0.04500
C 	C 	0.21390 0.61070 0.33100 0.05400
N 	N 	0.44780 0.41390 0.95130 -0.13100
N 	N 	0.44120 0.38310 0.91970 -0.09000
C 	C 	0.38600 0.32800 0.85150 0.13600
C 	C 	0.40950 0.35160 0.83020 -0.11000
C 	C 	0.36540 0.30660 0.81300 -0.05000
C 	C 	0.38930 0.33100 0.78610 0.05900
N 	N 	0.44780 0.58610 0.04870 -0.14400
N 	N 	0.44120 0.61690 0.08030 -0.09500
C 	C 	0.38600 0.67200 0.14850 0.12100
C 	C 	0.40950 0.64840 0.16980 -0.10100
C 	C 	0.36540 0.69340 0.18700 -0.04400
C 	C 	0.38930 0.66900 0.21390 0.05400
N 	N 	0.55220 0.41390 0.04870 -0.14400
N 	N 	0.55880 0.38310 0.08030 -0.09500
C 	C 	0.61400 0.32800 0.14850 0.12000
C 	C 	0.59050 0.35160 0.16980 -0.10100
C 	C 	0.63460 0.30660 0.18700 -0.04500
C 	C 	0.61070 0.33100 0.21390 0.05400
N 	N 	0.55220 0.58610 0.95130 -0.13100
N 	N 	0.55880 0.61690 0.91970 -0.09000
C 	C 	0.61400 0.67200 0.85150 0.13700
C 	C 	0.59050 0.64840 0.83020 -0.11100
C 	C 	0.63460 0.69340 0.81300 -0.05000
C 	C 	0.61070 0.66900 0.78610 0.05900
Cu	Cu	0.00000 0.58940 0.50000 0.86900
Cu	Cu	-0.00000 0.41060 0.50000 0.86900
Cu	Cu	0.50000 -0.00000 0.58940 0.86900
Cu	Cu	0.50000 -0.00000 0.41060 0.86900
Cu	Cu	0.58940 0.50000 -0.00000 0.86900
Cu	Cu	0.41060 0.50000 -0.00000 0.86900
Cu	Cu	0.58940 0.00000 0.50000 0.86900
Cu	Cu	0.41060 0.00000 0.50000 0.86900
Cu	Cu	-0.00000 0.50000 0.41060 0.86900
Cu	Cu	-0.00000 0.50000 0.58940 0.86900
Cu	Cu	0.50000 0.58940 -0.00000 0.86900
Cu	Cu	0.50000 0.41060 -0.00000 0.86900
Cl	Cl	0.00000 0.50000 0.50000 -0.70700
Cl	Cl	0.50000 0.00000 0.50000 -0.70700
Cl	Cl	0.50000 0.50000 -0.00000 -0.70700
N 	N 	0.73740 0.73740 0.67600 -0.11000
N 	N 	0.70960 0.70960 0.65100 -0.05700
N 	N 	0.26260 0.26260 0.67600 -0.11100
N 	N 	0.29040 0.29040 0.65100 -0.05800
N 	N 	0.26260 0.73740 0.32400 -0.11100
N 	N 	0.29040 0.70960 0.34900 -0.05800
N 	N 	0.73740 0.26260 0.32400 -0.11100
N 	N 	0.70960 0.29040 0.34900 -0.05800
N 	N 	0.67600 0.73740 0.73740 -0.11000
N 	N 	0.65100 0.70960 0.70960 -0.05700
N 	N 	0.67600 0.26260 0.26260 -0.11100
N 	N 	0.65100 0.29040 0.29040 -0.05800
N 	N 	0.32400 0.26260 0.73740 -0.11100
N 	N 	0.34900 0.29040 0.70960 -0.05800
N 	N 	0.32400 0.73740 0.26260 -0.11100
N 	N 	0.34900 0.70960 0.29040 -0.05800
N 	N 	0.73740 0.67600 0.73740 -0.11000
N 	N 	0.70960 0.65100 0.70960 -0.05700
N 	N 	0.26260 0.67600 0.26260 -0.11100
N 	N 	0.29040 0.65100 0.29040 -0.05800
N 	N 	0.73740 0.32400 0.26260 -0.11100
N 	N 	0.70960 0.34900 0.29040 -0.05800
N 	N 	0.26260 0.32400 0.73740 -0.11100
N 	N 	0.29040 0.34900 0.70960 -0.05800
N 	N 	0.73740 0.73740 0.32400 -0.11000
N 	N 	0.70960 0.70960 0.34900 -0.05700
N 	N 	0.26260 0.26260 0.32400 -0.11100
N 	N 	0.29040 0.29040 0.34900 -0.05800
N 	N 	0.73740 0.26260 0.67600 -0.11100
N 	N 	0.70960 0.29040 0.65100 -0.05800
N 	N 	0.26260 0.73740 0.67600 -0.11100
N 	N 	0.29040 0.70960 0.65100 -0.05800
N 	N 	0.73740 0.67600 0.26260 -0.11100
N 	N 	0.70960 0.65100 0.29040 -0.05800
N 	N 	0.26260 0.67600 0.73740 -0.11100
N 	N 	0.29040 0.65100 0.70960 -0.05800
N 	N 	0.26260 0.32400 0.26260 -0.11100
N 	N 	0.29040 0.34900 0.29040 -0.05800
N 	N 	0.73740 0.32400 0.73740 -0.11000
N 	N 	0.70960 0.34900 0.70960 -0.05700
N 	N 	0.67600 0.73740 0.26260 -0.11100
N 	N 	0.65100 0.70960 0.29040 -0.05800
N 	N 	0.67600 0.26260 0.73740 -0.11100
N 	N 	0.65100 0.29040 0.70960 -0.05800
N 	N 	0.32400 0.73740 0.73740 -0.11000
N 	N 	0.34900 0.70960 0.70960 -0.05700
N 	N 	0.32400 0.26260 0.26260 -0.11100
N 	N 	0.34900 0.29040 0.29040 -0.05800
C 	C 	0.90040 0.59910 0.59910 0.12000
C 	C 	0.86800 0.63110 0.63110 -0.22900
C 	C 	0.85100 0.61190 0.61190 0.20000
C 	C 	0.79360 0.67100 0.67100 0.01000
C 	C 	0.76100 0.64100 0.64100 -0.01000
C 	C 	0.75650 0.69830 0.69830 0.12900
C 	C 	0.09960 0.40090 0.59910 0.11600
C 	C 	0.13200 0.36890 0.63110 -0.21600
C 	C 	0.14900 0.38810 0.61190 0.18600
C 	C 	0.20640 0.32900 0.67100 0.00500
C 	C 	0.23900 0.35900 0.64100 -0.00600
C 	C 	0.24350 0.30170 0.69830 0.13000
C 	C 	0.09960 0.59910 0.40090 0.11600
C 	C 	0.13200 0.63110 0.36890 -0.21600
C 	C 	0.14900 0.61190 0.38810 0.18600
C 	C 	0.20640 0.67100 0.32900 0.00500
C 	C 	0.23900 0.64100 0.35900 -0.00600
C 	C 	0.24350 0.69830 0.30170 0.13000
C 	C 	0.90040 0.40090 0.40090 0.12000
C 	C 	0.86800 0.36890 0.36890 -0.22800
C 	C 	0.85100 0.38810 0.38810 0.19900
C 	C 	0.79360 0.32900 0.32900 0.01000
C 	C 	0.76100 0.35900 0.35900 -0.00900
C 	C 	0.75650 0.30170 0.30170 0.12900
C 	C 	0.59910 0.90040 0.59910 0.12000
C 	C 	0.63110 0.86800 0.63110 -0.22900
C 	C 	0.61190 0.85100 0.61190 0.20000
C 	C 	0.67100 0.79360 0.67100 0.01000
C 	C 	0.64100 0.76100 0.64100 -0.01000
C 	C 	0.69830 0.75650 0.69830 0.12900
C 	C 	0.59910 0.09960 0.40090 0.11600
C 	C 	0.63110 0.13200 0.36890 -0.21600
C 	C 	0.61190 0.14900 0.38810 0.18600
C 	C 	0.67100 0.20640 0.32900 0.00500
C 	C 	0.64100 0.23900 0.35900 -0.00600
C 	C 	0.69830 0.24350 0.30170 0.13000
C 	C 	0.40090 0.09960 0.59910 0.11600
C 	C 	0.36890 0.13200 0.63110 -0.21600
C 	C 	0.38810 0.14900 0.61190 0.18600
C 	C 	0.32900 0.20640 0.67100 0.00500
C 	C 	0.35900 0.23900 0.64100 -0.00600
C 	C 	0.30170 0.24350 0.69830 0.13000
C 	C 	0.40090 0.90040 0.40090 0.12000
C 	C 	0.36890 0.86800 0.36890 -0.22800
C 	C 	0.38810 0.85100 0.38810 0.19900
C 	C 	0.32900 0.79360 0.32900 0.01000
C 	C 	0.35900 0.76100 0.35900 -0.00900
C 	C 	0.30170 0.75650 0.30170 0.12900
C 	C 	0.59910 0.59910 0.90040 0.12000
C 	C 	0.63110 0.63110 0.86800 -0.22900
C 	C 	0.61190 0.61190 0.85100 0.20000
C 	C 	0.67100 0.67100 0.79360 0.01000
C 	C 	0.64100 0.64100 0.76100 -0.01000
C 	C 	0.69830 0.69830 0.75650 0.12900
C 	C 	0.40090 0.59910 0.09960 0.11600
C 	C 	0.36890 0.63110 0.13200 -0.21600
C 	C 	0.38810 0.61190 0.14900 0.18600
C 	C 	0.32900 0.67100 0.20640 0.00500
C 	C 	0.35900 0.64100 0.23900 -0.00600
C 	C 	0.30170 0.69830 0.24350 0.13000
C 	C 	0.59910 0.40090 0.09960 0.11600
C 	C 	0.63110 0.36890 0.13200 -0.21600
C 	C 	0.61190 0.38810 0.14900 0.18600
C 	C 	0.67100 0.32900 0.20640 0.00500
C 	C 	0.64100 0.35900 0.23900 -0.00600
C 	C 	0.69830 0.30170 0.24350 0.13000
C 	C 	0.40090 0.40090 0.90040 0.12000
C 	C 	0.36890 0.36890 0.86800 -0.22800
C 	C 	0.38810 0.38810 0.85100 0.19900
C 	C 	0.32900 0.32900 0.79360 0.01000
C 	C 	0.35900 0.35900 0.76100 -0.00900
C 	C 	0.30170 0.30170 0.75650 0.12900
C 	C 	0.59910 0.90040 0.40090 0.12000
C 	C 	0.63110 0.86800 0.36890 -0.22800
C 	C 	0.61190 0.85100 0.38810 0.19900
C 	C 	0.67100 0.79360 0.32900 0.01000
C 	C 	0.64100 0.76100 0.35900 -0.00900
C 	C 	0.69830 0.75650 0.30170 0.12900
C 	C 	0.40090 0.09960 0.40090 0.11600
C 	C 	0.36890 0.13200 0.36890 -0.21600
C 	C 	0.38810 0.14900 0.38810 0.18600
C 	C 	0.32900 0.20640 0.32900 0.00500
C 	C 	0.35900 0.23900 0.35900 -0.00600
C 	C 	0.30170 0.24350 0.30170 0.13000
C 	C 	0.59910 0.09960 0.59910 0.11600
C 	C 	0.63110 0.13200 0.63110 -0.21700
C 	C 	0.61190 0.14900 0.61190 0.18700
C 	C 	0.67100 0.20640 0.67100 0.00500
C 	C 	0.64100 0.23900 0.64100 -0.00600
C 	C 	0.69830 0.24350 0.69830 0.13000
C 	C 	0.40090 0.90040 0.59910 0.12000
C 	C 	0.36890 0.86800 0.63110 -0.22800
C 	C 	0.38810 0.85100 0.61190 0.19900
C 	C 	0.32900 0.79360 0.67100 0.01000
C 	C 	0.35900 0.76100 0.64100 -0.00900
C 	C 	0.30170 0.75650 0.69830 0.12900
C 	C 	0.90040 0.59910 0.40090 0.12000
C 	C 	0.86800 0.63110 0.36890 -0.22800
C 	C 	0.85100 0.61190 0.38810 0.19900
C 	C 	0.79360 0.67100 0.32900 0.01000
C 	C 	0.76100 0.64100 0.35900 -0.00900
C 	C 	0.75650 0.69830 0.30170 0.12900
C 	C 	0.09960 0.59910 0.59910 0.11600
C 	C 	0.13200 0.63110 0.63110 -0.21700
C 	C 	0.14900 0.61190 0.61190 0.18700
C 	C 	0.20640 0.67100 0.67100 0.00500
C 	C 	0.23900 0.64100 0.64100 -0.00600
C 	C 	0.24350 0.69830 0.69830 0.13000
C 	C 	0.09960 0.40090 0.40090 0.11600
C 	C 	0.13200 0.36890 0.36890 -0.21600
C 	C 	0.14900 0.38810 0.38810 0.18600
C 	C 	0.20640 0.32900 0.32900 0.00500
C 	C 	0.23900 0.35900 0.35900 -0.00600
C 	C 	0.24350 0.30170 0.30170 0.13000
C 	C 	0.90040 0.40090 0.59910 0.12000
C 	C 	0.86800 0.36890 0.63110 -0.22800
C 	C 	0.85100 0.38810 0.61190 0.19900
C 	C 	0.79360 0.32900 0.67100 0.01000
C 	C 	0.76100 0.35900 0.64100 -0.00900
C 	C 	0.75650 0.30170 0.69830 0.12900
C 	C 	0.59910 0.59910 0.09960 0.11600
C 	C 	0.63110 0.63110 0.13200 -0.21700
C 	C 	0.61190 0.61190 0.14900 0.18700
C 	C 	0.67100 0.67100 0.20640 0.00500
C 	C 	0.64100 0.64100 0.23900 -0.00600
C 	C 	0.69830 0.69830 0.24350 0.13000
C 	C 	0.59910 0.40090 0.90040 0.12000
C 	C 	0.63110 0.36890 0.86800 -0.22800
C 	C 	0.61190 0.38810 0.85100 0.19900
C 	C 	0.67100 0.32900 0.79360 0.01000
C 	C 	0.64100 0.35900 0.76100 -0.00900
C 	C 	0.69830 0.30170 0.75650 0.12900
C 	C 	0.40090 0.59910 0.90040 0.12000
C 	C 	0.36890 0.63110 0.86800 -0.22800
C 	C 	0.38810 0.61190 0.85100 0.19900
C 	C 	0.32900 0.67100 0.79360 0.01000
C 	C 	0.35900 0.64100 0.76100 -0.00900
C 	C 	0.30170 0.69830 0.75650 0.12900
C 	C 	0.40090 0.40090 0.09960 0.11600
C 	C 	0.36890 0.36890 0.13200 -0.21600
C 	C 	0.38810 0.38810 0.14900 0.18600
C 	C 	0.32900 0.32900 0.20640 0.00500
C 	C 	0.35900 0.35900 0.23900 -0.00600
C 	C 	0.30170 0.30170 0.24350 0.13000
