data_crystal

_cell_length_a 13.15540
_cell_length_b 13.70140
_cell_length_c 22.72730
_cell_angle_alpha 100.36600
_cell_angle_beta  90.00000
_cell_angle_gamma 90.00000

_symmetry_space_group_name_	'P 1'
_symmetry_space_group_name_H-M	'P 1'

loop_
_symmetry_equiv_pos_as_xyz
  x,y,z

loop_
_atom_site_label
_atom_site_type_symbol
_atom_site_fract_x
_atom_site_fract_y
_atom_site_fract_z
_atom_site_charge
Ce	Ce	0.39899 0.72393 0.82147 2.12600
Ce	Ce	0.60101 0.27607 0.17853 2.11800
Ce	Ce	0.10085 0.21878 0.27619 2.09700
Ce	Ce	0.39915 0.21878 0.77619 2.12000
Ce	Ce	0.60085 0.78122 0.22381 2.11700
Ce	Ce	0.10101 0.72393 0.32147 2.10300
Ce	Ce	0.89915 0.78122 0.72381 2.13700
Ce	Ce	0.89899 0.27607 0.67853 2.13900
Si	Si	-0.00000 0.50000 -0.00000 4.20500
Si	Si	0.50000 0.50000 0.50000 5.99500
H 	H 	0.35550 0.40850 0.22090 0.15100
H 	H 	0.29930 0.45730 0.76860 -0.02200
H 	H 	0.64450 0.59150 0.77910 0.15400
H 	H 	0.60440 0.07250 0.73410 0.12100
H 	H 	0.70070 0.54270 0.23140 -0.02600
H 	H 	0.89560 0.07250 0.23410 0.14600
H 	H 	0.73390 0.02280 0.19690 -0.01600
H 	H 	0.26610 0.97720 0.80310 -0.01200
H 	H 	0.79930 0.54270 0.73140 -0.02400
H 	H 	0.20070 0.45730 0.26860 -0.02400
H 	H 	0.14450 0.40850 0.72090 0.13300
H 	H 	0.85550 0.59150 0.27910 0.17300
H 	H 	0.76610 0.02280 0.69690 -0.01100
H 	H 	0.23390 0.97720 0.30310 -0.01900
H 	H 	0.10440 0.92750 0.76590 0.10000
H 	H 	0.39560 0.92750 0.26590 0.11900
W 	W 	0.94137 0.36792 0.85785 1.69600
W 	W 	0.30098 0.61763 0.43764 1.73400
W 	W 	0.44137 0.63208 0.64215 1.66500
W 	W 	0.05863 0.63208 0.14215 1.47700
W 	W 	0.74799 0.51000 0.44262 1.32500
W 	W 	0.31079 0.35508 0.41311 1.65900
W 	W 	0.98805 0.23819 0.97605 1.51800
W 	W 	0.48805 0.76181 0.52395 1.27800
W 	W 	0.55863 0.36792 0.35785 1.66700
W 	W 	0.04855 0.37065 0.11991 1.53200
W 	W 	0.45145 0.37065 0.61991 1.69400
W 	W 	0.19902 0.61763 0.93764 1.71200
W 	W 	0.54855 0.62935 0.38009 1.69600
W 	W 	0.18921 0.35508 0.91311 1.60000
W 	W 	0.68921 0.64492 0.58689 1.66300
W 	W 	0.75201 0.51000 0.94262 1.33200
W 	W 	0.81079 0.64492 0.08689 1.56500
W 	W 	0.51195 0.23819 0.47605 1.28100
W 	W 	0.24799 0.49000 0.05738 1.13100
W 	W 	0.25201 0.49000 0.55738 1.27800
W 	W 	0.69902 0.38237 0.56236 1.73800
W 	W 	0.80098 0.38237 0.06236 1.59000
W 	W 	0.95145 0.62935 0.88009 1.69000
W 	W 	0.01195 0.76181 0.02395 0.84600
C 	C 	0.72110 0.98490 0.71490 0.12100
C 	C 	0.75120 0.49990 0.23990 0.17600
C 	C 	0.27890 0.01510 0.28510 0.11800
C 	C 	0.89530 0.44570 0.27020 0.06400
C 	C 	0.00010 0.46510 0.29710 0.32800
C 	C 	0.83910 0.25900 0.23430 0.39500
C 	C 	0.25120 0.50010 0.26010 0.16900
C 	C 	0.41430 0.05640 0.24180 -0.03800
C 	C 	0.34310 0.23040 0.22880 0.38900
C 	C 	0.51810 0.03710 0.21230 0.41000
C 	C 	0.60470 0.44570 0.77020 -0.04300
C 	C 	0.66560 0.36800 0.74700 -0.06600
C 	C 	0.01810 0.96290 0.28770 0.29700
C 	C 	0.16090 0.74100 0.76570 0.36800
C 	C 	0.33440 0.63200 0.25300 -0.06700
C 	C 	0.49990 0.46510 0.79710 0.43200
C 	C 	0.24880 0.50010 0.76010 0.16400
C 	C 	0.84610 0.86710 0.25250 -0.10900
C 	C 	0.91430 0.94360 0.25820 0.07900
C 	C 	0.65390 0.86710 0.75250 -0.08700
C 	C 	0.15390 0.13290 0.74750 -0.07900
C 	C 	0.99990 0.53490 0.70290 0.52300
C 	C 	0.16560 0.63200 0.75300 -0.04800
C 	C 	0.58570 0.94360 0.75820 -0.03200
C 	C 	0.65690 0.76960 0.77120 0.39300
C 	C 	0.34610 0.13290 0.24750 -0.09600
C 	C 	0.08570 0.05640 0.74180 -0.12000
C 	C 	0.77890 0.98490 0.21490 0.12700
C 	C 	0.83440 0.36800 0.24700 -0.08700
C 	C 	0.22110 0.01510 0.78510 0.11500
C 	C 	0.66090 0.25900 0.73430 0.38100
C 	C 	0.50010 0.53490 0.20290 0.43200
C 	C 	0.39530 0.55430 0.22980 -0.04600
C 	C 	0.74880 0.49990 0.73990 0.17000
C 	C 	0.10470 0.55430 0.72980 -0.14000
C 	C 	0.48190 0.96290 0.78770 0.41100
C 	C 	0.98190 0.03710 0.71230 0.49200
C 	C 	0.15690 0.23040 0.72880 0.38300
C 	C 	0.84310 0.76960 0.27120 0.40400
C 	C 	0.33910 0.74100 0.26570 0.38100
N 	N 	0.63040 0.01530 0.73540 -0.19800
N 	N 	0.75660 0.40360 0.72680 -0.23400
N 	N 	0.25660 0.59640 0.77320 -0.23700
N 	N 	0.83790 0.53090 0.26650 -0.22200
N 	N 	0.26000 0.10770 0.27660 -0.25100
N 	N 	0.24340 0.59640 0.27320 -0.23500
N 	N 	0.16210 0.46910 0.73350 -0.19600
N 	N 	0.74000 0.89230 0.72340 -0.24400
N 	N 	0.36960 0.98470 0.26460 -0.20100
N 	N 	0.13040 0.98470 0.76460 -0.18700
N 	N 	0.66210 0.53090 0.76650 -0.20900
N 	N 	0.24000 0.10770 0.77660 -0.24900
N 	N 	0.76000 0.89230 0.22340 -0.24400
N 	N 	0.33790 0.46910 0.23350 -0.20700
N 	N 	0.86960 0.01530 0.23540 -0.21900
N 	N 	0.74340 0.40360 0.22680 -0.23100
O 	O 	0.91230 0.30080 0.78890 -0.61900
O 	O 	0.70120 0.33180 0.09480 -0.69500
O 	O 	0.24400 0.38840 0.48760 -0.52400
O 	O 	0.54150 0.49520 0.34240 -0.54400
O 	O 	0.74050 0.72370 0.76380 -0.47500
O 	O 	0.11440 0.49760 0.98080 -0.90100
O 	O 	0.71990 0.71090 0.13060 -0.62400
O 	O 	0.44930 0.39050 0.80520 -0.51200
O 	O 	0.62300 0.75300 0.55680 -0.48500
O 	O 	0.08220 0.26550 0.70610 -0.53300
O 	O 	0.28010 0.28910 0.86940 -0.61600
O 	O 	0.95850 0.49520 0.84240 -0.53300
O 	O 	0.28140 0.48400 0.40180 -0.53200
O 	O 	0.46500 0.59600 0.47200 -1.14600
O 	O 	0.08200 0.35650 0.85780 -0.58200
O 	O 	0.24050 0.27630 0.73620 -0.48200
O 	O 	0.42960 0.31130 0.67720 -0.62100
O 	O 	0.41230 0.69920 0.71110 -0.64100
O 	O 	0.58220 0.73450 0.79390 -0.48900
O 	O 	0.43600 0.74480 0.60140 -0.48800
O 	O 	0.92220 0.21700 0.24820 -0.46500
O 	O 	0.08770 0.69920 0.21110 -0.63300
O 	O 	0.02820 0.55140 0.31130 -0.52000
O 	O 	0.58200 0.64350 0.64220 -0.53400
O 	O 	0.78140 0.51600 0.09820 -0.52200
O 	O 	0.71860 0.51600 0.59820 -0.52700
O 	O 	0.52700 0.60500 0.54660 -1.13900
O 	O 	0.07040 0.31130 0.17720 -0.62100
O 	O 	0.90620 0.37320 0.11670 -0.47800
O 	O 	0.75950 0.72370 0.26380 -0.47900
O 	O 	0.04150 0.50480 0.15760 -0.54700
O 	O 	0.56400 0.25520 0.39860 -0.48300
O 	O 	0.88560 0.50240 0.01920 -0.98700
O 	O 	0.58770 0.30080 0.28890 -0.63800
O 	O 	0.68300 0.60400 0.40240 -0.50300
O 	O 	0.18400 0.59400 0.10860 -0.49300
O 	O 	0.81600 0.40600 0.89140 -0.53600
O 	O 	0.18300 0.39600 0.09760 -0.49600
O 	O 	0.96500 0.40400 0.02800 -0.84200
O 	O 	0.29880 0.66820 0.90520 -0.67600
O 	O 	0.97300 0.60500 0.04660 -0.79900
O 	O 	0.20120 0.66820 0.40520 -0.71900
O 	O 	0.42220 0.78300 0.25180 -0.50800
O 	O 	0.74400 0.61160 0.01240 -0.57300
O 	O 	0.53500 0.40400 0.52800 -1.14700
O 	O 	0.95270 0.94830 0.70510 -0.51700
O 	O 	0.04730 0.05170 0.29490 -0.53900
O 	O 	0.95400 0.73100 0.94750 -0.39100
O 	O 	0.07780 0.78300 0.75180 -0.54000
O 	O 	0.23500 0.58530 0.50550 -0.51900
O 	O 	0.87700 0.75300 0.05680 -0.41800
O 	O 	0.47300 0.39500 0.45340 -1.13900
O 	O 	0.85800 0.27160 0.01290 -0.58700
O 	O 	0.56630 0.10780 0.19900 -0.51800
O 	O 	0.57040 0.68870 0.32280 -0.61800
O 	O 	0.81700 0.60400 0.90240 -0.50300
O 	O 	0.55070 0.60950 0.19480 -0.52200
O 	O 	0.52820 0.44860 0.18870 -0.51700
O 	O 	0.45400 0.26900 0.55250 -0.53100
O 	O 	0.75600 0.61160 0.51240 -0.50800
O 	O 	0.91780 0.73450 0.29390 -0.45100
O 	O 	0.09380 0.62680 0.88330 -0.59800
O 	O 	0.07000 0.49480 0.06050 -0.93500
O 	O 	0.14200 0.72840 0.98710 -0.42400
O 	O 	0.76500 0.41470 0.49450 -0.50000
O 	O 	0.23230 0.79100 0.78960 -0.47100
O 	O 	0.05070 0.39050 0.30520 -0.52000
O 	O 	0.04600 0.26900 0.05250 -0.65600
O 	O 	0.54730 0.94830 0.20510 -0.53900
O 	O 	0.25950 0.27630 0.23620 -0.48500
O 	O 	0.68400 0.40600 0.39140 -0.51800
O 	O 	0.06400 0.74480 0.10140 -0.47300
O 	O 	0.26770 0.79100 0.28960 -0.47800
O 	O 	0.93600 0.25520 0.89860 -0.48500
O 	O 	0.73500 0.41470 0.99450 -0.43700
O 	O 	0.21860 0.48400 0.90180 -0.52700
O 	O 	0.38560 0.49760 0.48080 -1.27300
O 	O 	0.79880 0.33180 0.59480 -0.69400
O 	O 	0.25600 0.38840 0.98760 -0.43400
O 	O 	0.92960 0.68870 0.82280 -0.58500
O 	O 	0.26500 0.58530 0.00550 -0.58200
O 	O 	0.45850 0.50480 0.65760 -0.54400
O 	O 	0.41780 0.26550 0.20610 -0.50100
O 	O 	0.03500 0.59600 0.97200 -0.86600
O 	O 	0.12300 0.24700 0.94320 -0.51800
O 	O 	0.31600 0.59400 0.60860 -0.52200
O 	O 	0.43000 0.49480 0.56050 -1.14500
O 	O 	0.94930 0.60950 0.69480 -0.51500
O 	O 	0.93000 0.50520 0.93950 -0.82200
O 	O 	0.41800 0.35650 0.35780 -0.53300
O 	O 	0.40620 0.62680 0.38330 -0.55200
O 	O 	0.64200 0.27160 0.51290 -0.52100
O 	O 	0.93370 0.10780 0.69900 -0.50900
O 	O 	0.59380 0.37320 0.61670 -0.55200
O 	O 	0.57780 0.21700 0.74820 -0.50200
O 	O 	0.31700 0.39600 0.59760 -0.50800
O 	O 	0.43370 0.89220 0.80100 -0.50800
O 	O 	0.37700 0.24700 0.44320 -0.49100
O 	O 	0.76770 0.20900 0.21040 -0.47300
O 	O 	0.91800 0.64350 0.14220 -0.45700
O 	O 	0.97180 0.44860 0.68870 -0.50400
O 	O 	0.35800 0.72840 0.48710 -0.53000
O 	O 	0.06630 0.89220 0.30100 -0.51600
O 	O 	0.78010 0.71090 0.63060 -0.62900
O 	O 	0.54600 0.73100 0.44750 -0.52700
O 	O 	0.47180 0.55140 0.81130 -0.50500
O 	O 	0.57000 0.50520 0.43950 -1.14800
O 	O 	0.73230 0.20900 0.71040 -0.46900
O 	O 	0.21990 0.28910 0.36940 -0.64800
O 	O 	0.02700 0.39500 0.95340 -0.91200
O 	O 	0.61440 0.50240 0.51920 -1.27600
O 	O 	0.45270 0.05170 0.79490 -0.52500
