data_crystal

_cell_length_a 8.02340
_cell_length_b 30.24390
_cell_length_c 15.32800
_cell_angle_alpha 90.00000
_cell_angle_beta  90.00000
_cell_angle_gamma 90.00000

_symmetry_space_group_name_	'P 1'
_symmetry_space_group_name_H-M	'P 1'

loop_
_symmetry_equiv_pos_as_xyz
  x,y,z

loop_
_atom_site_label
_atom_site_type_symbol
_atom_site_fract_x
_atom_site_fract_y
_atom_site_fract_z
_atom_site_charge
Sm	Sm	0.43608 0.90701 0.70430 2.05100
O 	O 	0.65730 0.86874 0.81759 -0.54500
O 	O 	0.39130 0.04198 0.38552 -0.43800
O 	O 	0.25430 0.95998 0.65063 -0.55100
O 	O 	0.48820 0.83050 0.73235 -0.49600
O 	O 	0.23640 0.09708 0.33781 -0.56200
O 	O 	0.00130 0.96958 0.70828 -0.51300
N 	N 	0.92540 0.08242 0.56010 -0.14800
C 	C 	0.59630 0.83219 0.79160 0.41200
C 	C 	0.16020 0.06078 0.47210 -0.17900
C 	C 	0.02420 0.08790 0.49040 0.10100
H 	H 	0.00020 0.11150 0.45140 -0.00300
C 	C 	0.11910 0.97985 0.65840 0.52100
C 	C 	0.26610 0.06641 0.39270 0.37800
C 	C 	0.95850 0.04793 0.61230 0.12000
H 	H 	0.88610 0.04270 0.66020 0.01300
C 	C 	0.64820 0.78958 0.83280 -0.18000
C 	C 	0.09250 0.01942 0.60030 -0.20500
C 	C 	0.74240 0.78794 0.90890 0.12100
H 	H 	0.77650 0.81500 0.93470 -0.02100
C 	C 	0.19590 0.02656 0.52980 0.12200
H 	H 	0.29060 0.00830 0.52070 0.01500
Sm	Sm	0.06392 0.09299 0.20430 2.03700
O 	O 	0.84270 0.13126 0.31759 -0.54700
O 	O 	0.10870 0.95802 0.88552 -0.43500
O 	O 	0.24570 0.04002 0.15063 -0.55100
O 	O 	0.01180 0.16950 0.23235 -0.50300
O 	O 	0.26360 0.90292 0.83781 -0.56000
O 	O 	0.49870 0.03042 0.20828 -0.51600
N 	N 	0.57460 0.91758 0.06010 -0.14900
C 	C 	0.90370 0.16781 0.29160 0.42200
C 	C 	0.33980 0.93922 0.97210 -0.17600
C 	C 	0.47580 0.91210 0.99040 0.10200
H 	H 	0.49980 0.88850 0.95140 -0.00200
C 	C 	0.38090 0.02015 0.15840 0.52000
C 	C 	0.23390 0.93359 0.89270 0.37800
C 	C 	0.54150 0.95207 0.11230 0.11800
H 	H 	0.61390 0.95730 0.16020 0.01400
C 	C 	0.85180 0.21042 0.33280 -0.18300
C 	C 	0.40750 0.98058 0.10030 -0.20300
C 	C 	0.75760 0.21206 0.40890 0.12300
H 	H 	0.72350 0.18500 0.43470 -0.02100
C 	C 	0.30410 0.97344 0.02980 0.11900
H 	H 	0.20940 0.99170 0.02070 0.01500
Sm	Sm	0.56392 0.40701 0.29570 2.04900
O 	O 	0.34270 0.36874 0.18241 -0.54600
O 	O 	0.60870 0.54198 0.61448 -0.43800
O 	O 	0.74570 0.45998 0.34937 -0.55100
O 	O 	0.51180 0.33050 0.26765 -0.49600
O 	O 	0.76360 0.59708 0.66219 -0.56200
O 	O 	0.99870 0.46958 0.29172 -0.51300
N 	N 	0.07460 0.58242 0.43990 -0.14800
C 	C 	0.40370 0.33219 0.20840 0.41200
C 	C 	0.83980 0.56078 0.52790 -0.17900
C 	C 	0.97580 0.58790 0.50960 0.10200
H 	H 	0.99980 0.61150 0.54860 -0.00300
C 	C 	0.88090 0.47985 0.34160 0.52100
C 	C 	0.73390 0.56641 0.60730 0.37800
C 	C 	0.04150 0.54793 0.38770 0.11800
H 	H 	0.11390 0.54270 0.33980 0.01400
C 	C 	0.35180 0.28958 0.16720 -0.18000
C 	C 	0.90750 0.51942 0.39970 -0.20300
C 	C 	0.25760 0.28794 0.09110 0.12100
H 	H 	0.22350 0.31500 0.06530 -0.02100
C 	C 	0.80410 0.52656 0.47020 0.12100
H 	H 	0.70940 0.50830 0.47930 0.01600
Sm	Sm	0.93608 0.59299 0.79570 2.03800
O 	O 	0.15730 0.63126 0.68241 -0.54700
O 	O 	0.89130 0.45802 0.11448 -0.43500
O 	O 	0.75430 0.54002 0.84937 -0.55100
O 	O 	0.98820 0.66950 0.76765 -0.50300
O 	O 	0.73640 0.40292 0.16219 -0.56000
O 	O 	0.50130 0.53042 0.79172 -0.51600
N 	N 	0.42540 0.41758 0.93990 -0.14900
C 	C 	0.09630 0.66781 0.70840 0.42200
C 	C 	0.66020 0.43922 0.02790 -0.17600
C 	C 	0.52420 0.41210 0.00960 0.10200
H 	H 	0.50020 0.38850 0.04860 -0.00200
C 	C 	0.61910 0.52015 0.84160 0.52000
C 	C 	0.76610 0.43359 0.10730 0.37800
C 	C 	0.45850 0.45207 0.88770 0.11800
H 	H 	0.38610 0.45730 0.83980 0.01400
C 	C 	0.14820 0.71042 0.66720 -0.18300
C 	C 	0.59250 0.48058 0.89970 -0.20300
C 	C 	0.24240 0.71206 0.59110 0.12300
H 	H 	0.27650 0.68500 0.56530 -0.02100
C 	C 	0.69590 0.47344 0.97020 0.11900
H 	H 	0.79060 0.49170 0.97930 0.01500
Sm	Sm	0.56392 0.09299 0.29570 2.05000
O 	O 	0.34270 0.13126 0.18241 -0.54600
O 	O 	0.60870 0.95802 0.61448 -0.43800
O 	O 	0.74570 0.04002 0.34937 -0.55100
O 	O 	0.51180 0.16950 0.26765 -0.49600
O 	O 	0.76360 0.90292 0.66219 -0.56200
O 	O 	0.99870 0.03042 0.29172 -0.51300
N 	N 	0.07460 0.91758 0.43990 -0.14800
C 	C 	0.40370 0.16781 0.20840 0.41200
C 	C 	0.83980 0.93922 0.52790 -0.17900
C 	C 	0.97580 0.91210 0.50960 0.10100
H 	H 	0.99980 0.88850 0.54860 -0.00300
C 	C 	0.88090 0.02015 0.34160 0.52100
C 	C 	0.73390 0.93359 0.60730 0.37800
C 	C 	0.04150 0.95207 0.38770 0.12000
H 	H 	0.11390 0.95730 0.33980 0.01300
C 	C 	0.35180 0.21042 0.16720 -0.18000
C 	C 	0.90750 0.98058 0.39970 -0.20500
C 	C 	0.25760 0.21206 0.09110 0.12100
H 	H 	0.22350 0.18500 0.06530 -0.02100
C 	C 	0.80410 0.97344 0.47020 0.12200
H 	H 	0.70940 0.99170 0.47930 0.01500
Sm	Sm	0.93608 0.90701 0.79570 2.03700
O 	O 	0.15730 0.86874 0.68241 -0.54700
O 	O 	0.89130 0.04198 0.11448 -0.43500
O 	O 	0.75430 0.95998 0.84937 -0.55100
O 	O 	0.98820 0.83050 0.76765 -0.50300
O 	O 	0.73640 0.09708 0.16219 -0.56000
O 	O 	0.50130 0.96958 0.79172 -0.51600
N 	N 	0.42540 0.08242 0.93990 -0.14900
C 	C 	0.09630 0.83219 0.70840 0.42200
C 	C 	0.66020 0.06078 0.02790 -0.17600
C 	C 	0.52420 0.08790 0.00960 0.10200
H 	H 	0.50020 0.11150 0.04860 -0.00200
C 	C 	0.61910 0.97985 0.84160 0.52000
C 	C 	0.76610 0.06641 0.10730 0.37800
C 	C 	0.45850 0.04793 0.88770 0.11800
H 	H 	0.38610 0.04270 0.83980 0.01400
C 	C 	0.14820 0.78958 0.66720 -0.18300
C 	C 	0.59250 0.01942 0.89970 -0.20300
C 	C 	0.24240 0.78794 0.59110 0.12300
H 	H 	0.27650 0.81500 0.56530 -0.02100
C 	C 	0.69590 0.02656 0.97020 0.11900
H 	H 	0.79060 0.00830 0.97930 0.01500
Sm	Sm	0.43608 0.59299 0.70430 2.04900
O 	O 	0.65730 0.63126 0.81759 -0.54600
O 	O 	0.39130 0.45802 0.38552 -0.43800
O 	O 	0.25430 0.54002 0.65063 -0.55100
O 	O 	0.48820 0.66950 0.73235 -0.49600
O 	O 	0.23640 0.40292 0.33781 -0.56200
O 	O 	0.00130 0.53042 0.70828 -0.51300
N 	N 	0.92540 0.41758 0.56010 -0.14800
C 	C 	0.59630 0.66781 0.79160 0.41200
C 	C 	0.16020 0.43922 0.47210 -0.17900
C 	C 	0.02420 0.41210 0.49040 0.10200
H 	H 	0.00020 0.38850 0.45140 -0.00300
C 	C 	0.11910 0.52015 0.65840 0.52100
C 	C 	0.26610 0.43359 0.39270 0.37800
C 	C 	0.95850 0.45207 0.61230 0.11800
H 	H 	0.88610 0.45730 0.66020 0.01400
C 	C 	0.64820 0.71042 0.83280 -0.18000
C 	C 	0.09250 0.48058 0.60030 -0.20300
C 	C 	0.74240 0.71206 0.90890 0.12100
H 	H 	0.77650 0.68500 0.93470 -0.02100
C 	C 	0.19590 0.47344 0.52980 0.12100
H 	H 	0.29060 0.49170 0.52070 0.01600
Sm	Sm	0.06392 0.40701 0.20430 2.03800
O 	O 	0.84270 0.36874 0.31759 -0.54700
O 	O 	0.10870 0.54198 0.88552 -0.43500
O 	O 	0.24570 0.45998 0.15063 -0.55100
O 	O 	0.01180 0.33050 0.23235 -0.50300
O 	O 	0.26360 0.59708 0.83781 -0.56000
O 	O 	0.49870 0.46958 0.20828 -0.51600
N 	N 	0.57460 0.58242 0.06010 -0.14900
C 	C 	0.90370 0.33219 0.29160 0.42200
C 	C 	0.33980 0.56078 0.97210 -0.17600
C 	C 	0.47580 0.58790 0.99040 0.10200
H 	H 	0.49980 0.61150 0.95140 -0.00200
C 	C 	0.38090 0.47985 0.15840 0.52000
C 	C 	0.23390 0.56641 0.89270 0.37800
C 	C 	0.54150 0.54793 0.11230 0.11800
H 	H 	0.61390 0.54270 0.16020 0.01400
C 	C 	0.85180 0.28958 0.33280 -0.18300
C 	C 	0.40750 0.51942 0.10030 -0.20300
C 	C 	0.75760 0.28794 0.40890 0.12300
H 	H 	0.72350 0.31500 0.43470 -0.02100
C 	C 	0.30410 0.52656 0.02980 0.11900
H 	H 	0.20940 0.50830 0.02070 0.01500
N 	N 	0.78750 0.75000 0.94780 -0.15100
C 	C 	0.59860 0.75000 0.79450 0.11100
H 	H 	0.53220 0.75000 0.74320 0.02200
N 	N 	0.71250 0.25000 0.44780 -0.15000
C 	C 	0.90140 0.25000 0.29450 0.11500
H 	H 	0.96780 0.25000 0.24320 0.02400
N 	N 	0.21250 0.25000 0.05220 -0.15100
C 	C 	0.40140 0.25000 0.20550 0.11100
H 	H 	0.46780 0.25000 0.25680 0.02200
N 	N 	0.28750 0.75000 0.55220 -0.15000
C 	C 	0.09860 0.75000 0.70550 0.11500
H 	H 	0.03220 0.75000 0.75680 0.02400
