data_crystal

_cell_length_a 24.03000
_cell_length_b 24.13480
_cell_length_c 24.39220
_cell_angle_alpha 85.03200
_cell_angle_beta  61.32500
_cell_angle_gamma 61.26500

_symmetry_space_group_name_	'P 1'
_symmetry_space_group_name_H-M	'P 1'

loop_
_symmetry_equiv_pos_as_xyz
  x,y,z

loop_
_atom_site_label
_atom_site_type_symbol
_atom_site_fract_x
_atom_site_fract_y
_atom_site_fract_z
_atom_site_charge
Ho	Ho	0.36089 0.84689 0.20156 1.81600
O 	O 	0.25170 0.87450 0.20660 -0.29700
O 	O 	0.29570 0.96090 0.22180 -0.27800
O 	O 	0.38050 0.87090 0.09950 -0.27800
O 	O 	0.45090 0.87550 0.16430 -0.29400
O 	O 	0.39980 0.75390 0.13720 -0.28500
O 	O 	0.33960 0.88240 0.29910 -0.29500
O 	O 	0.46040 0.76400 0.20860 -0.28800
O 	O 	0.30830 0.79240 0.27550 -0.28100
N 	N 	0.21220 0.84610 0.23070 -0.05800
N 	N 	0.23030 0.99840 0.22460 -0.07100
N 	N 	0.36410 0.85030 0.06330 -0.06900
N 	N 	0.46380 0.91000 0.11920 -0.06300
N 	N 	0.44530 0.69340 0.13940 -0.07200
C 	C 	0.23130 0.79260 0.19670 0.04800
C 	C 	0.15280 0.87100 0.28970 0.05600
C 	C 	0.22980 0.01810 0.17100 0.05600
C 	C 	0.17010 0.01590 0.27880 0.06100
C 	C 	0.29670 0.87950 0.07290 0.06500
C 	C 	0.41870 0.79920 0.01550 0.06100
C 	C 	0.42530 0.97430 0.13540 0.05000
C 	C 	0.51590 0.87960 0.05960 0.06000
C 	C 	0.41540 0.66300 0.18160 0.05700
C 	C 	0.51690 0.66920 0.10340 0.06700
H 	H 	0.27450 0.77440 0.15600 0.03400
C 	C 	0.18880 0.76400 0.22040 -0.09700
C 	C 	0.11010 0.84380 0.31610 -0.10000
H 	H 	0.14070 0.90830 0.31320 0.01900
H 	H 	0.27460 0.00770 0.13310 0.02800
C 	C 	0.16570 0.05250 0.17130 -0.10600
C 	C 	0.10110 0.05370 0.28320 -0.10600
H 	H 	0.17280 0.00320 0.31580 0.01600
H 	H 	0.25970 0.91630 0.10580 0.02800
C 	C 	0.27850 0.85920 0.03780 -0.11300
C 	C 	0.40310 0.77570 0.97840 -0.10500
H 	H 	0.46760 0.77960 0.00760 0.02200
H 	H 	0.38950 0.99490 0.17840 0.03500
C 	C 	0.43910 0.01050 0.08750 -0.09900
C 	C 	0.53030 0.91520 0.01170 -0.10500
H 	H 	0.54310 0.83390 0.04970 0.01800
H 	H 	0.36370 0.68090 0.20510 0.03000
C 	C 	0.46110 0.60510 0.19040 -0.10500
C 	C 	0.56570 0.61110 0.10880 -0.10900
H 	H 	0.53510 0.69240 0.07310 0.01400
H 	H 	0.20120 0.72810 0.19470 0.06400
C 	C 	0.12730 0.78710 0.28220 0.03400
H 	H 	0.06830 0.86260 0.35760 0.06100
H 	H 	0.16640 0.06370 0.13270 0.06600
C 	C 	0.09750 0.07240 0.22790 0.03800
H 	H 	0.05740 0.06660 0.32300 0.06400
H 	H 	0.22910 0.88170 0.04680 0.06700
C 	C 	0.32970 0.80650 0.98900 0.04500
H 	H 	0.44110 0.73890 0.94570 0.06600
H 	H 	0.41220 0.05610 0.09840 0.06300
C 	C 	0.49210 0.98060 0.02340 0.04300
H 	H 	0.56820 0.89300 0.96950 0.06400
H 	H 	0.44080 0.58220 0.21950 0.06700
C 	C 	0.53840 0.57930 0.15620 0.04000
H 	H 	0.61700 0.59290 0.08090 0.06600
C 	C 	0.08010 0.75870 0.30990 0.05200
C 	C 	0.02770 0.10440 0.22880 0.05000
C 	C 	0.30910 0.78140 0.95360 0.04200
C 	C 	0.58860 0.52240 0.17110 0.05400
C 	C 	0.09960 0.69990 0.28600 -0.11400
C 	C 	0.01110 0.79140 0.36470 -0.10600
C 	C 	0.01800 0.09030 0.18300 -0.11800
C 	C 	0.96490 0.15090 0.28430 -0.10800
C 	C 	0.24200 0.82010 0.95590 -0.10400
C 	C 	0.35350 0.71970 0.91500 -0.10600
C 	C 	0.65710 0.47930 0.12630 -0.11700
C 	C 	0.56920 0.51830 0.23600 -0.12200
C 	C 	0.05210 0.67630 0.31120 0.06700
H 	H 	0.14740 0.67400 0.25090 0.06900
H 	H 	0.99670 0.83190 0.38450 0.06400
C 	C 	0.96350 0.76900 0.39140 0.05100
C 	C 	0.94950 0.11600 0.19070 0.06600
H 	H 	0.05960 0.06200 0.14440 0.06900
H 	H 	0.96980 0.16370 0.31680 0.06700
C 	C 	0.89750 0.17670 0.28930 0.05200
C 	C 	0.22020 0.79630 0.92410 0.05900
H 	H 	0.21090 0.86290 0.97920 0.06300
H 	H 	0.40080 0.69210 0.91000 0.06600
C 	C 	0.33030 0.69930 0.88530 0.05600
C 	C 	0.70450 0.43020 0.14320 0.06200
H 	H 	0.67330 0.48240 0.08270 0.06900
H 	H 	0.52270 0.54960 0.26930 0.07200
C 	C 	0.61660 0.47070 0.24940 0.07600
N 	N 	0.98540 0.70990 0.36300 -0.06400
H 	H 	0.06680 0.63560 0.29180 0.02000
H 	H 	0.91680 0.79320 0.42830 0.03000
N 	N 	0.89020 0.15770 0.24390 -0.06500
H 	H 	0.94390 0.10430 0.15820 0.01600
H 	H 	0.85520 0.20850 0.32530 0.03400
N 	N 	0.26390 0.73600 0.89100 -0.06100
H 	H 	0.17430 0.82290 0.92600 0.01700
H 	H 	0.36180 0.65760 0.85940 0.03300
N 	N 	0.68370 0.42700 0.20400 -0.07100
H 	H 	0.75200 0.39880 0.11110 0.02900
H 	H 	0.60230 0.46740 0.29270 0.01200
O 	O 	0.94000 0.68740 0.38550 -0.27800
O 	O 	0.82430 0.18000 0.25120 -0.28200
O 	O 	0.23910 0.71520 0.86500 -0.29300
O 	O 	0.73190 0.38300 0.21920 -0.28100
Ho	Ho	0.84706 0.71697 0.35933 1.80600
Ho	Ho	0.74664 0.27997 0.23623 1.79800
O 	O 	0.87810 0.61430 0.38260 -0.29500
O 	O 	0.77820 0.73500 0.47350 -0.27300
O 	O 	0.79110 0.79340 0.30800 -0.28100
O 	O 	0.82170 0.81770 0.39670 -0.28800
O 	O 	0.74350 0.71160 0.38480 -0.29500
O 	O 	0.94320 0.72220 0.27410 -0.29900
O 	O 	0.88260 0.65310 0.26780 -0.27900
O 	O 	0.72220 0.20280 0.21470 -0.28200
O 	O 	0.77480 0.31010 0.30440 -0.28700
O 	O 	0.66920 0.27440 0.33850 -0.29300
O 	O 	0.62480 0.34470 0.25480 -0.27900
O 	O 	0.86770 0.25970 0.17090 -0.28300
N 	N 	0.91080 0.58490 0.41550 -0.06100
N 	N 	0.76120 0.78390 0.51110 -0.07900
N 	N 	0.74430 0.79310 0.29210 -0.06600
N 	N 	0.80660 0.86950 0.37170 -0.06300
N 	N 	0.69820 0.70220 0.43750 -0.05800
N 	N 	0.96290 0.72120 0.21200 -0.06200
N 	N 	0.73360 0.14880 0.23940 -0.06700
N 	N 	0.79270 0.35540 0.29940 -0.06600
N 	N 	0.67860 0.26620 0.38750 -0.05500
N 	N 	0.56610 0.34290 0.30230 -0.07000
N 	N 	0.10260 0.73510 0.88950 -0.06600
C 	C 	0.98420 0.54300 0.38420 0.06900
C 	C 	0.87120 0.59420 0.48010 0.05000
C 	C 	0.80880 0.78060 0.52860 0.08600
C 	C 	0.69590 0.83660 0.53480 0.08900
C 	C 	0.67100 0.82780 0.33320 0.05700
C 	C 	0.77340 0.76020 0.23280 0.05000
C 	C 	0.86260 0.87700 0.32290 0.04900
C 	C 	0.73970 0.91440 0.39040 0.06500
C 	C 	0.63400 0.75150 0.48080 0.05700
C 	C 	0.71710 0.63970 0.44950 0.04600
C 	C 	0.92810 0.77320 0.19150 0.05800
C 	C 	0.01940 0.66460 0.16890 0.05900
C 	C 	0.68180 0.15020 0.29770 0.05300
C 	C 	0.79650 0.09290 0.20330 0.06200
C 	C 	0.86250 0.34020 0.26090 0.05400
C 	C 	0.73950 0.41490 0.33120 0.06400
C 	C 	0.72210 0.20550 0.39450 0.03900
C 	C 	0.64320 0.31720 0.43430 0.05600
C 	C 	0.55260 0.29810 0.29080 0.05500
C 	C 	0.52660 0.38170 0.35810 0.06500
C 	C 	0.10710 0.67770 0.90510 0.05400
C 	C 	0.07170 0.78420 0.93430 0.06500
H 	H 	0.01110 0.53680 0.33910 0.01500
C 	C 	0.01860 0.51100 0.41460 -0.11400
C 	C 	0.90690 0.56180 0.51270 -0.10400
H 	H 	0.81970 0.62270 0.50230 0.03400
H 	H 	0.85350 0.74150 0.51670 0.01700
C 	C 	0.79360 0.82990 0.56090 -0.14900
C 	C 	0.68040 0.88720 0.56930 -0.15100
H 	H 	0.65990 0.83850 0.52720 0.00600
H 	H 	0.65190 0.85180 0.37300 0.01800
C 	C 	0.62530 0.82670 0.31480 -0.10300
C 	C 	0.72670 0.75840 0.21710 -0.10300
H 	H 	0.82460 0.73930 0.20360 0.03300
H 	H 	0.91220 0.84410 0.30750 0.03200
C 	C 	0.84750 0.93080 0.29660 -0.11100
C 	C 	0.72020 0.97050 0.36520 -0.11400
H 	H 	0.70140 0.90900 0.42360 0.01700
H 	H 	0.62310 0.79410 0.47410 0.01700
C 	C 	0.58370 0.74340 0.53420 -0.10900
C 	C 	0.66910 0.62960 0.50000 -0.10400
H 	H 	0.76420 0.60450 0.42150 0.03600
H 	H 	0.88550 0.81030 0.22180 0.03200
C 	C 	0.95200 0.77390 0.13010 -0.11400
C 	C 	0.04530 0.66290 0.10620 -0.11000
H 	H 	0.04000 0.62640 0.18380 0.02200
H 	H 	0.63680 0.18920 0.32120 0.03000
C 	C 	0.69480 0.09510 0.32230 -0.10700
C 	C 	0.80900 0.03720 0.22730 -0.10800
H 	H 	0.83140 0.09240 0.16190 0.01700
H 	H 	0.89850 0.29690 0.23980 0.03500
C 	C 	0.88360 0.38620 0.25130 -0.10400
C 	C 	0.75690 0.46230 0.32680 -0.10800
H 	H 	0.69000 0.42450 0.35660 0.01500
H 	H 	0.74960 0.16930 0.36160 0.03800
C 	C 	0.72480 0.19850 0.45070 -0.10100
C 	C 	0.64820 0.31100 0.48800 -0.10600
H 	H 	0.61380 0.35880 0.42930 0.01900
H 	H 	0.58150 0.27050 0.25060 0.03100
C 	C 	0.49350 0.29490 0.34160 -0.11100
C 	C 	0.46890 0.37670 0.40760 -0.11200
H 	H 	0.53780 0.41270 0.36420 0.01300
H 	H 	0.13050 0.64240 0.87250 0.03100
C 	C 	0.07840 0.67130 0.96660 -0.10700
C 	C 	0.04060 0.77960 0.99770 -0.11400
H 	H 	0.07090 0.82310 0.92270 0.01200
H 	H 	0.07010 0.48250 0.39130 0.06700
C 	C 	0.98000 0.51800 0.48270 0.04600
H 	H 	0.87960 0.57020 0.55780 0.06500
H 	H 	0.82840 0.82700 0.57080 0.08000
C 	C 	0.72770 0.88740 0.58180 0.08300
H 	H 	0.63320 0.92450 0.58550 0.07900
H 	H 	0.57380 0.85190 0.34230 0.06300
C 	C 	0.65170 0.79010 0.25710 0.03900
H 	H 	0.74680 0.73430 0.17700 0.06500
H 	H 	0.88670 0.93520 0.26340 0.06800
C 	C 	0.77700 0.97820 0.31730 0.04900
H 	H 	0.67020 0.00200 0.38000 0.06600
H 	H 	0.53810 0.77940 0.56310 0.06600
C 	C 	0.60040 0.68140 0.54530 0.03900
H 	H 	0.68100 0.58670 0.50600 0.06500
H 	H 	0.92720 0.81190 0.11710 0.06800
C 	C 	0.01260 0.72010 0.08450 0.04400
H 	H 	0.08490 0.62420 0.07670 0.06700
H 	H 	0.65880 0.09630 0.36340 0.06400
C 	C 	0.75940 0.03750 0.28850 0.04400
H 	H 	0.85220 0.99790 0.20170 0.06500
H 	H 	0.93280 0.37560 0.22210 0.06600
C 	C 	0.82970 0.44910 0.28600 0.04100
H 	H 	0.71980 0.50420 0.35140 0.06600
H 	H 	0.75040 0.15640 0.45730 0.06500
C 	C 	0.69230 0.24950 0.49600 0.04300
H 	H 	0.62230 0.34780 0.51990 0.06400
H 	H 	0.48160 0.26510 0.33410 0.06800
C 	C 	0.45260 0.33050 0.40000 0.05100
H 	H 	0.44000 0.40520 0.44730 0.06700
H 	H 	0.08130 0.63160 0.97750 0.06600
C 	C 	0.04320 0.72530 0.01580 0.04700
H 	H 	0.01690 0.81610 0.02920 0.06600
C 	C 	0.70970 0.94790 0.61780 0.02700
C 	C 	0.60030 0.78530 0.24420 0.04700
C 	C 	0.84550 0.50150 0.27880 0.04700
C 	C 	0.69310 0.24010 0.55640 0.04200
C 	C 	0.64160 0.98730 0.66880 -0.09700
C 	C 	0.76320 0.96760 0.59540 -0.10200
C 	C 	0.61970 0.76550 0.18270 -0.10800
C 	C 	0.53460 0.79660 0.29170 -0.10200
C 	C 	0.91290 0.49310 0.26510 -0.10900
C 	C 	0.79260 0.56460 0.28500 -0.11200
C 	C 	0.63360 0.28280 0.61440 -0.10500
C 	C 	0.75150 0.18760 0.55990 -0.11200
C 	C 	0.62480 0.04440 0.69720 0.04600
H 	H 	0.60530 0.97500 0.68500 0.06300
H 	H 	0.81150 0.94090 0.56120 0.06300
C 	C 	0.74400 0.02500 0.62360 0.05600
C 	C 	0.57040 0.76050 0.17110 0.06200
H 	H 	0.66680 0.75530 0.14830 0.06600
H 	H 	0.52120 0.80930 0.33400 0.06500
C 	C 	0.48380 0.79040 0.28180 0.04500
C 	C 	0.92620 0.54310 0.26070 0.06300
H 	H 	0.95140 0.45070 0.25840 0.06700
H 	H 	0.74660 0.57330 0.29170 0.07100
C 	C 	0.80610 0.61300 0.28150 0.06100
C 	C 	0.63490 0.27060 0.66990 0.05200
H 	H 	0.59290 0.31980 0.61490 0.06400
H 	H 	0.79310 0.15800 0.52220 0.06600
C 	C 	0.74970 0.17830 0.61620 0.06400
N 	N 	0.67780 0.06070 0.67410 -0.06200
H 	H 	0.57730 0.07180 0.73200 0.03400
H 	H 	0.77820 0.03970 0.60710 0.01900
N 	N 	0.50620 0.77120 0.22010 -0.06400
H 	H 	0.58260 0.74960 0.12880 0.02000
H 	H 	0.43720 0.79900 0.31600 0.03800
N 	N 	0.87180 0.60300 0.26980 -0.06900
H 	H 	0.97270 0.53550 0.25160 0.01900
H 	H 	0.76850 0.65570 0.28740 0.03400
N 	N 	0.69200 0.21970 0.67050 -0.06400
H 	H 	0.59420 0.29900 0.70880 0.03200
H 	H 	0.78970 0.14210 0.61730 0.01700
Ho	Ho	0.63911 0.15311 0.79844 1.81500
O 	O 	0.74830 0.12550 0.79340 -0.29800
O 	O 	0.70430 0.03910 0.77820 -0.27900
O 	O 	0.61950 0.12910 0.90050 -0.27900
O 	O 	0.54910 0.12450 0.83570 -0.29500
O 	O 	0.60020 0.24610 0.86280 -0.28600
O 	O 	0.66040 0.11760 0.70090 -0.29500
O 	O 	0.53960 0.23600 0.79140 -0.28800
O 	O 	0.69170 0.20760 0.72450 -0.28100
N 	N 	0.78780 0.15390 0.76930 -0.05800
N 	N 	0.76970 0.00160 0.77540 -0.07100
N 	N 	0.63590 0.14970 0.93670 -0.06900
N 	N 	0.53620 0.09000 0.88080 -0.06300
N 	N 	0.55470 0.30660 0.86060 -0.07200
C 	C 	0.76870 0.20740 0.80330 0.04800
C 	C 	0.84720 0.12900 0.71030 0.05600
C 	C 	0.77020 0.98190 0.82900 0.05600
C 	C 	0.82990 0.98410 0.72120 0.06100
C 	C 	0.70330 0.12050 0.92710 0.06500
C 	C 	0.58130 0.20080 0.98450 0.06100
C 	C 	0.57470 0.02570 0.86460 0.05000
C 	C 	0.48410 0.12040 0.94040 0.06000
C 	C 	0.58460 0.33700 0.81840 0.05700
C 	C 	0.48310 0.33080 0.89660 0.06700
H 	H 	0.72550 0.22560 0.84400 0.03400
C 	C 	0.81120 0.23600 0.77960 -0.09700
C 	C 	0.88990 0.15620 0.68390 -0.10000
H 	H 	0.85930 0.09170 0.68680 0.01900
H 	H 	0.72540 0.99230 0.86690 0.02800
C 	C 	0.83430 0.94750 0.82870 -0.10600
C 	C 	0.89890 0.94630 0.71680 -0.10600
H 	H 	0.82720 0.99680 0.68420 0.01600
H 	H 	0.74030 0.08370 0.89420 0.02800
C 	C 	0.72150 0.14080 0.96220 -0.11300
C 	C 	0.59690 0.22430 0.02160 -0.10500
H 	H 	0.53240 0.22040 0.99240 0.02200
H 	H 	0.61050 0.00510 0.82160 0.03500
C 	C 	0.56090 0.98950 0.91250 -0.09900
C 	C 	0.46970 0.08480 0.98830 -0.10500
H 	H 	0.45690 0.16610 0.95030 0.01800
H 	H 	0.63630 0.31910 0.79490 0.03000
C 	C 	0.53890 0.39490 0.80960 -0.10500
C 	C 	0.43430 0.38890 0.89120 -0.10900
H 	H 	0.46490 0.30760 0.92690 0.01400
H 	H 	0.79880 0.27190 0.80530 0.06400
C 	C 	0.87270 0.21290 0.71780 0.03400
H 	H 	0.93170 0.13740 0.64240 0.06100
H 	H 	0.83360 0.93630 0.86730 0.06600
C 	C 	0.90250 0.92760 0.77210 0.03800
H 	H 	0.94260 0.93340 0.67700 0.06400
H 	H 	0.77090 0.11830 0.95320 0.06700
C 	C 	0.67030 0.19350 0.01100 0.04500
H 	H 	0.55890 0.26110 0.05430 0.06600
H 	H 	0.58780 0.94390 0.90160 0.06300
C 	C 	0.50790 0.01940 0.97660 0.04300
H 	H 	0.43180 0.10700 0.03050 0.06400
H 	H 	0.55920 0.41780 0.78050 0.06700
C 	C 	0.46160 0.42070 0.84380 0.04000
H 	H 	0.38300 0.40710 0.91910 0.06600
C 	C 	0.91990 0.24130 0.69010 0.05200
C 	C 	0.97230 0.89560 0.77120 0.05000
C 	C 	0.69090 0.21860 0.04640 0.04200
C 	C 	0.41140 0.47760 0.82890 0.05400
C 	C 	0.90040 0.30010 0.71400 -0.11400
C 	C 	0.98890 0.20860 0.63530 -0.10600
C 	C 	0.98200 0.90970 0.81700 -0.11800
C 	C 	0.03510 0.84910 0.71570 -0.10800
C 	C 	0.75800 0.17990 0.04410 -0.10400
C 	C 	0.64650 0.28030 0.08500 -0.10600
C 	C 	0.34290 0.52070 0.87370 -0.11700
C 	C 	0.43080 0.48170 0.76400 -0.12200
C 	C 	0.94790 0.32370 0.68880 0.06700
H 	H 	0.85260 0.32600 0.74910 0.06900
H 	H 	0.00330 0.16810 0.61550 0.06400
C 	C 	0.03650 0.23100 0.60860 0.05100
C 	C 	0.05050 0.88400 0.80930 0.06600
H 	H 	0.94040 0.93800 0.85560 0.06900
H 	H 	0.03020 0.83630 0.68320 0.06700
C 	C 	0.10250 0.82330 0.71070 0.05200
C 	C 	0.77980 0.20370 0.07590 0.05900
H 	H 	0.78910 0.13710 0.02080 0.06300
H 	H 	0.59920 0.30790 0.09000 0.06600
C 	C 	0.66970 0.30070 0.11470 0.05600
C 	C 	0.29550 0.56980 0.85680 0.06200
H 	H 	0.32670 0.51760 0.91730 0.06900
H 	H 	0.47730 0.45040 0.73070 0.07200
C 	C 	0.38340 0.52930 0.75060 0.07600
N 	N 	0.01460 0.29010 0.63700 -0.06400
H 	H 	0.93320 0.36440 0.70820 0.02000
H 	H 	0.08320 0.20680 0.57170 0.03000
N 	N 	0.10980 0.84230 0.75610 -0.06500
H 	H 	0.05610 0.89570 0.84180 0.01600
H 	H 	0.14480 0.79150 0.67470 0.03400
N 	N 	0.73610 0.26400 0.10900 -0.06100
H 	H 	0.82570 0.17710 0.07400 0.01700
H 	H 	0.63820 0.34240 0.14060 0.03300
N 	N 	0.31630 0.57300 0.79600 -0.07100
H 	H 	0.24800 0.60120 0.88890 0.02900
H 	H 	0.39770 0.53260 0.70730 0.01200
O 	O 	0.06000 0.31260 0.61450 -0.27800
O 	O 	0.17570 0.82000 0.74880 -0.28200
O 	O 	0.76090 0.28480 0.13500 -0.29300
O 	O 	0.26810 0.61700 0.78080 -0.28100
Ho	Ho	0.15294 0.28303 0.64067 1.80600
Ho	Ho	0.25336 0.72003 0.76377 1.79800
O 	O 	0.12190 0.38570 0.61740 -0.29500
O 	O 	0.22180 0.26500 0.52650 -0.27300
O 	O 	0.20890 0.20660 0.69200 -0.28100
O 	O 	0.17830 0.18230 0.60330 -0.28800
O 	O 	0.25650 0.28840 0.61520 -0.29500
O 	O 	0.05680 0.27780 0.72590 -0.29900
O 	O 	0.11740 0.34690 0.73220 -0.27900
O 	O 	0.27780 0.79720 0.78530 -0.28200
O 	O 	0.22520 0.68990 0.69560 -0.28700
O 	O 	0.33080 0.72560 0.66150 -0.29300
O 	O 	0.37520 0.65530 0.74520 -0.27900
O 	O 	0.13230 0.74030 0.82910 -0.28300
N 	N 	0.08920 0.41510 0.58450 -0.06100
N 	N 	0.23880 0.21610 0.48890 -0.07900
N 	N 	0.25570 0.20690 0.70790 -0.06600
N 	N 	0.19340 0.13050 0.62830 -0.06300
N 	N 	0.30180 0.29780 0.56250 -0.05800
N 	N 	0.03710 0.27880 0.78800 -0.06200
N 	N 	0.26640 0.85120 0.76060 -0.06700
N 	N 	0.20730 0.64460 0.70060 -0.06600
N 	N 	0.32140 0.73380 0.61250 -0.05500
N 	N 	0.43390 0.65710 0.69770 -0.07000
N 	N 	0.89740 0.26490 0.11050 -0.06600
C 	C 	0.01580 0.45700 0.61580 0.06900
C 	C 	0.12880 0.40580 0.51990 0.05000
C 	C 	0.19120 0.21940 0.47140 0.08600
C 	C 	0.30410 0.16340 0.46520 0.08900
C 	C 	0.32900 0.17220 0.66680 0.05700
C 	C 	0.22660 0.23980 0.76720 0.05000
C 	C 	0.13740 0.12300 0.67710 0.04900
C 	C 	0.26030 0.08560 0.60960 0.06500
C 	C 	0.36600 0.24850 0.51920 0.05700
C 	C 	0.28290 0.36030 0.55050 0.04600
C 	C 	0.07190 0.22680 0.80850 0.05800
C 	C 	0.98060 0.33540 0.83110 0.05900
C 	C 	0.31820 0.84980 0.70230 0.05300
C 	C 	0.20350 0.90710 0.79670 0.06200
C 	C 	0.13750 0.65980 0.73910 0.05400
C 	C 	0.26050 0.58510 0.66880 0.06400
C 	C 	0.27790 0.79450 0.60550 0.03900
C 	C 	0.35680 0.68280 0.56570 0.05600
C 	C 	0.44740 0.70190 0.70920 0.05500
C 	C 	0.47340 0.61830 0.64190 0.06500
C 	C 	0.89290 0.32230 0.09490 0.05400
C 	C 	0.92830 0.21580 0.06570 0.06500
H 	H 	0.98890 0.46320 0.66090 0.01500
C 	C 	0.98140 0.48900 0.58540 -0.11400
C 	C 	0.09310 0.43820 0.48730 -0.10400
H 	H 	0.18030 0.37730 0.49770 0.03400
H 	H 	0.14650 0.25850 0.48330 0.01700
C 	C 	0.20640 0.17010 0.43910 -0.14900
C 	C 	0.31960 0.11280 0.43070 -0.15100
H 	H 	0.34010 0.16150 0.47280 0.00600
H 	H 	0.34810 0.14820 0.62700 0.01800
C 	C 	0.37470 0.17330 0.68520 -0.10300
C 	C 	0.27330 0.24160 0.78290 -0.10300
H 	H 	0.17540 0.26070 0.79640 0.03300
H 	H 	0.08780 0.15590 0.69250 0.03200
C 	C 	0.15250 0.06920 0.70340 -0.11100
C 	C 	0.27980 0.02950 0.63480 -0.11400
H 	H 	0.29860 0.09100 0.57640 0.01700
H 	H 	0.37690 0.20590 0.52590 0.01700
C 	C 	0.41630 0.25660 0.46580 -0.10900
C 	C 	0.33090 0.37040 0.50000 -0.10400
H 	H 	0.23580 0.39550 0.57850 0.03600
H 	H 	0.11450 0.18970 0.77820 0.03200
C 	C 	0.04800 0.22610 0.86990 -0.11400
C 	C 	0.95470 0.33710 0.89380 -0.11000
H 	H 	0.96000 0.37360 0.81620 0.02200
H 	H 	0.36320 0.81080 0.67880 0.03000
C 	C 	0.30520 0.90490 0.67770 -0.10700
C 	C 	0.19100 0.96280 0.77270 -0.10800
H 	H 	0.16860 0.90760 0.83810 0.01700
H 	H 	0.10150 0.70310 0.76020 0.03500
C 	C 	0.11640 0.61380 0.74870 -0.10400
C 	C 	0.24310 0.53770 0.67320 -0.10800
H 	H 	0.31000 0.57550 0.64340 0.01500
H 	H 	0.25040 0.83070 0.63840 0.03800
C 	C 	0.27520 0.80150 0.54930 -0.10100
C 	C 	0.35180 0.68900 0.51200 -0.10600
H 	H 	0.38620 0.64120 0.57070 0.01900
H 	H 	0.41850 0.72950 0.74940 0.03100
C 	C 	0.50650 0.70510 0.65840 -0.11100
C 	C 	0.53110 0.62330 0.59240 -0.11200
H 	H 	0.46220 0.58730 0.63580 0.01300
H 	H 	0.86950 0.35760 0.12750 0.03100
C 	C 	0.92160 0.32870 0.03340 -0.10700
C 	C 	0.95940 0.22040 0.00230 -0.11400
H 	H 	0.92910 0.17690 0.07730 0.01200
H 	H 	0.92990 0.51750 0.60870 0.06700
C 	C 	0.02000 0.48200 0.51730 0.04600
H 	H 	0.12040 0.42980 0.44220 0.06500
H 	H 	0.17160 0.17300 0.42920 0.08000
C 	C 	0.27230 0.11260 0.41820 0.08300
H 	H 	0.36680 0.07550 0.41450 0.07900
H 	H 	0.42620 0.14810 0.65770 0.06300
C 	C 	0.34830 0.20990 0.74290 0.03900
H 	H 	0.25320 0.26570 0.82300 0.06500
H 	H 	0.11330 0.06480 0.73660 0.06800
C 	C 	0.22300 0.02180 0.68270 0.04900
H 	H 	0.32980 0.99800 0.62000 0.06600
H 	H 	0.46190 0.22060 0.43690 0.06600
C 	C 	0.39960 0.31860 0.45470 0.03900
H 	H 	0.31900 0.41330 0.49400 0.06500
H 	H 	0.07280 0.18810 0.88290 0.06800
C 	C 	0.98740 0.27990 0.91550 0.04400
H 	H 	0.91510 0.37580 0.92330 0.06700
H 	H 	0.34120 0.90370 0.63660 0.06400
C 	C 	0.24060 0.96250 0.71150 0.04400
H 	H 	0.14780 0.00210 0.79830 0.06500
H 	H 	0.06720 0.62440 0.77790 0.06600
C 	C 	0.17030 0.55090 0.71400 0.04100
H 	H 	0.28020 0.49580 0.64860 0.06600
H 	H 	0.24960 0.84360 0.54270 0.06500
C 	C 	0.30770 0.75050 0.50400 0.04300
H 	H 	0.37770 0.65220 0.48010 0.06400
H 	H 	0.51840 0.73490 0.66590 0.06800
C 	C 	0.54740 0.66950 0.60000 0.05100
H 	H 	0.56000 0.59480 0.55270 0.06700
H 	H 	0.91870 0.36840 0.02250 0.06600
C 	C 	0.95680 0.27470 0.98420 0.04700
H 	H 	0.98310 0.18390 0.97080 0.06600
C 	C 	0.29030 0.05210 0.38220 0.02700
C 	C 	0.39970 0.21470 0.75580 0.04700
C 	C 	0.15450 0.49850 0.72120 0.04700
C 	C 	0.30690 0.75990 0.44360 0.04200
C 	C 	0.35840 0.01270 0.33120 -0.09700
C 	C 	0.23680 0.03240 0.40460 -0.10200
C 	C 	0.38030 0.23450 0.81730 -0.10800
C 	C 	0.46540 0.20340 0.70830 -0.10200
C 	C 	0.08710 0.50690 0.73490 -0.10900
C 	C 	0.20740 0.43540 0.71500 -0.11200
C 	C 	0.36640 0.71720 0.38560 -0.10500
C 	C 	0.24850 0.81240 0.44010 -0.11200
C 	C 	0.37520 0.95560 0.30280 0.04600
H 	H 	0.39470 0.02500 0.31500 0.06300
H 	H 	0.18850 0.05910 0.43880 0.06300
C 	C 	0.25600 0.97500 0.37640 0.05600
C 	C 	0.42960 0.23950 0.82890 0.06200
H 	H 	0.33320 0.24470 0.85170 0.06600
H 	H 	0.47880 0.19070 0.66600 0.06500
C 	C 	0.51620 0.20960 0.71820 0.04500
C 	C 	0.07380 0.45690 0.73930 0.06300
H 	H 	0.04860 0.54930 0.74160 0.06700
H 	H 	0.25340 0.42670 0.70830 0.07100
C 	C 	0.19390 0.38700 0.71850 0.06100
C 	C 	0.36510 0.72940 0.33010 0.05200
H 	H 	0.40710 0.68020 0.38510 0.06400
H 	H 	0.20690 0.84200 0.47780 0.06600
C 	C 	0.25030 0.82170 0.38380 0.06400
N 	N 	0.32220 0.93930 0.32590 -0.06200
H 	H 	0.42270 0.92820 0.26800 0.03400
H 	H 	0.22180 0.96030 0.39290 0.01900
N 	N 	0.49380 0.22880 0.77990 -0.06400
H 	H 	0.41740 0.25040 0.87120 0.02000
H 	H 	0.56280 0.20100 0.68400 0.03800
N 	N 	0.12820 0.39700 0.73020 -0.06900
H 	H 	0.02730 0.46450 0.74840 0.01900
H 	H 	0.23150 0.34430 0.71260 0.03400
N 	N 	0.30800 0.78030 0.32950 -0.06400
H 	H 	0.40580 0.70100 0.29120 0.03200
H 	H 	0.21030 0.85790 0.38270 0.01700
