data_crystal

_cell_length_a 8.41360
_cell_length_b 9.24740
_cell_length_c 12.80740
_cell_angle_alpha 90.00000
_cell_angle_beta  105.96900
_cell_angle_gamma 90.00000

_symmetry_space_group_name_	'P 1'
_symmetry_space_group_name_H-M	'P 1'

loop_
_symmetry_equiv_pos_as_xyz
  x,y,z

loop_
_atom_site_label
_atom_site_type_symbol
_atom_site_fract_x
_atom_site_fract_y
_atom_site_fract_z
_atom_site_charge
Mn	Mn	0.25696 0.74836 0.01037 1.25500
N 	N 	0.32612 0.79887 0.18829 -0.19400
N 	N 	0.26914 0.80173 0.26201 -0.02500
N 	N 	0.21230 0.80815 0.33564 -0.19600
N 	N 	0.04194 0.62059 0.01788 -0.20200
N 	N 	0.10713 0.94709 0.97102 -0.20400
N 	N 	0.48179 0.87458 0.00632 -0.19700
N 	N 	0.42867 0.55836 0.05509 -0.18700
Mn	Mn	0.74304 0.24836 0.48963 1.25400
N 	N 	0.67388 0.29887 0.31171 -0.19100
N 	N 	0.73086 0.30173 0.23799 -0.02300
N 	N 	0.78770 0.30815 0.16436 -0.19200
N 	N 	0.95806 0.12059 0.48212 -0.20800
N 	N 	0.89287 0.44709 0.52898 -0.20300
N 	N 	0.51821 0.37458 0.49368 -0.18900
N 	N 	0.57133 0.05836 0.44491 -0.18600
Mn	Mn	0.74304 0.25164 0.98963 1.25100
N 	N 	0.67388 0.20113 0.81171 -0.19300
N 	N 	0.73086 0.19827 0.73799 -0.02400
N 	N 	0.78770 0.19185 0.66436 -0.19600
N 	N 	0.95806 0.37941 0.98212 -0.21500
N 	N 	0.89287 0.05291 0.02898 -0.19400
N 	N 	0.51821 0.12542 0.99368 -0.19600
N 	N 	0.57133 0.44164 0.94491 -0.19200
Mn	Mn	0.25696 0.75164 0.51037 1.25400
N 	N 	0.32612 0.70113 0.68829 -0.19300
N 	N 	0.26914 0.69827 0.76201 -0.02400
N 	N 	0.21230 0.69185 0.83564 -0.19500
N 	N 	0.04194 0.87941 0.51788 -0.20700
N 	N 	0.10713 0.55291 0.47102 -0.19700
N 	N 	0.48179 0.62542 0.50632 -0.19100
N 	N 	0.42867 0.94164 0.55509 -0.19400
N 	N 	-0.00000 0.50000 -0.00000 -0.02200
N 	N 	0.00000 -0.00000 0.50000 -0.02000
N 	N 	-0.00000 0.00000 -0.00000 -0.01700
N 	N 	0.00000 0.50000 0.50000 -0.02500
N 	N 	0.50000 0.00000 -0.00000 -0.02200
N 	N 	0.50000 0.50000 0.50000 -0.03700
N 	N 	0.50000 0.50000 -0.00000 -0.03200
N 	N 	0.50000 -0.00000 0.50000 -0.03100
