data_crystal

_cell_length_a 8.43770
_cell_length_b 9.30150
_cell_length_c 12.84800
_cell_angle_alpha 90.00000
_cell_angle_beta  105.56600
_cell_angle_gamma 90.00000

_symmetry_space_group_name_	'P 1'
_symmetry_space_group_name_H-M	'P 1'

loop_
_symmetry_equiv_pos_as_xyz
  x,y,z

loop_
_atom_site_label
_atom_site_type_symbol
_atom_site_fract_x
_atom_site_fract_y
_atom_site_fract_z
_atom_site_charge
Mn	Mn	0.25629 0.74864 0.00990 1.25500
N 	N 	0.32199 0.79673 0.18720 -0.19400
N 	N 	0.26717 0.79872 0.26128 -0.02200
N 	N 	0.21297 0.80513 0.33538 -0.19600
N 	N 	0.04234 0.61953 0.01655 -0.20200
N 	N 	0.10512 0.94532 0.97111 -0.20400
N 	N 	0.47992 0.87601 0.00714 -0.19800
N 	N 	0.42770 0.55994 0.05307 -0.18800
Mn	Mn	0.74371 0.24864 0.49010 1.25300
N 	N 	0.67801 0.29673 0.31280 -0.19200
N 	N 	0.73283 0.29872 0.23872 -0.02200
N 	N 	0.78703 0.30513 0.16462 -0.19300
N 	N 	0.95766 0.11953 0.48345 -0.20800
N 	N 	0.89488 0.44532 0.52889 -0.20400
N 	N 	0.52008 0.37601 0.49286 -0.19000
N 	N 	0.57230 0.05994 0.44693 -0.18700
Mn	Mn	0.74371 0.25136 0.99010 1.25000
N 	N 	0.67801 0.20327 0.81280 -0.19400
N 	N 	0.73283 0.20128 0.73872 -0.02300
N 	N 	0.78703 0.19487 0.66462 -0.19700
N 	N 	0.95766 0.38047 0.98345 -0.21400
N 	N 	0.89488 0.05468 0.02889 -0.19500
N 	N 	0.52008 0.12399 0.99286 -0.19700
N 	N 	0.57230 0.44006 0.94693 -0.19300
Mn	Mn	0.25629 0.75136 0.50990 1.25300
N 	N 	0.32199 0.70327 0.68720 -0.19400
N 	N 	0.26717 0.70128 0.76128 -0.02200
N 	N 	0.21297 0.69487 0.83538 -0.19600
N 	N 	0.04234 0.88047 0.51655 -0.20700
N 	N 	0.10512 0.55468 0.47111 -0.19700
N 	N 	0.47992 0.62399 0.50714 -0.19200
N 	N 	0.42770 0.94006 0.55307 -0.19500
N 	N 	-0.00000 0.50000 -0.00000 -0.02100
N 	N 	0.00000 -0.00000 0.50000 -0.01900
N 	N 	-0.00000 0.00000 -0.00000 -0.01600
N 	N 	0.00000 0.50000 0.50000 -0.02300
N 	N 	0.50000 0.00000 -0.00000 -0.02100
N 	N 	0.50000 0.50000 0.50000 -0.03600
N 	N 	0.50000 0.50000 -0.00000 -0.03000
N 	N 	0.50000 -0.00000 0.50000 -0.02900
