data_crystal

_cell_length_a 52.50780
_cell_length_b 52.50780
_cell_length_c 52.50780
_cell_angle_alpha 90.00000
_cell_angle_beta  90.00000
_cell_angle_gamma 90.00000

_symmetry_space_group_name_	'P 1'
_symmetry_space_group_name_H-M	'P 1'

loop_
_symmetry_equiv_pos_as_xyz
  x,y,z

loop_
_atom_site_label
_atom_site_type_symbol
_atom_site_fract_x
_atom_site_fract_y
_atom_site_fract_z
_atom_site_charge
Cu	Cu	0.24970 0.14280 0.10759 0.90700
O 	O 	0.37024 0.02630 0.08885 -0.40900
O 	O 	0.33998 0.02655 0.11847 -0.41400
O 	O 	0.27755 0.09383 0.12112 -0.40800
O 	O 	0.27450 0.12206 0.08950 -0.40500
O 	O 	0.34302 0.12499 0.02603 -0.41200
O 	O 	0.37274 0.09464 0.02602 -0.41200
O 	O 	0.27773 0.15841 0.12709 -0.41100
O 	O 	0.27469 0.13051 0.15889 -0.42100
C 	C 	0.35042 0.03507 0.09900 0.38400
C 	C 	0.33837 0.05790 0.08689 -0.12400
C 	C 	0.31702 0.06855 0.09778 0.07100
H 	H 	0.30950 0.06100 0.11240 0.04300
C 	C 	0.30652 0.09057 0.08720 -0.12200
C 	C 	0.31791 0.10219 0.06637 0.07200
H 	H 	0.31090 0.11740 0.05960 0.04200
C 	C 	0.33934 0.09170 0.05543 -0.12400
C 	C 	0.34972 0.06919 0.06555 0.06900
H 	H 	0.36430 0.06170 0.05800 0.04300
C 	C 	0.28445 0.10312 0.10023 0.37600
C 	C 	0.35269 0.10500 0.03408 0.38500
C 	C 	0.28384 0.14933 0.14812 0.39500
C 	C 	0.30554 0.16217 0.16114 -0.12700
C 	C 	0.31613 0.15094 0.18314 0.07300
H 	H 	0.30840 0.13630 0.19030 0.04200
Cu	Cu	0.24970 0.64280 0.60759 0.90700
O 	O 	0.37024 0.52630 0.58885 -0.40900
O 	O 	0.33998 0.52655 0.61847 -0.41300
O 	O 	0.27755 0.59383 0.62112 -0.40800
O 	O 	0.27450 0.62206 0.58950 -0.40500
O 	O 	0.34302 0.62499 0.52603 -0.41100
O 	O 	0.37274 0.59464 0.52602 -0.41100
O 	O 	0.27773 0.65841 0.62709 -0.41100
O 	O 	0.27469 0.63051 0.65889 -0.42100
C 	C 	0.35042 0.53507 0.59900 0.38400
C 	C 	0.33837 0.55790 0.58689 -0.12400
C 	C 	0.31702 0.56855 0.59778 0.07100
H 	H 	0.30950 0.56100 0.61240 0.04300
C 	C 	0.30652 0.59057 0.58720 -0.12200
C 	C 	0.31791 0.60219 0.56637 0.07200
H 	H 	0.31090 0.61740 0.55960 0.04200
C 	C 	0.33934 0.59170 0.55543 -0.12300
C 	C 	0.34972 0.56919 0.56555 0.06900
H 	H 	0.36430 0.56170 0.55800 0.04300
C 	C 	0.28445 0.60312 0.60023 0.37600
C 	C 	0.35269 0.60500 0.53408 0.38400
C 	C 	0.28384 0.64933 0.64812 0.39500
C 	C 	0.30554 0.66217 0.66114 -0.12700
C 	C 	0.31613 0.65094 0.68314 0.07300
H 	H 	0.30840 0.63630 0.69030 0.04200
Cu	Cu	0.74970 0.14280 0.60759 0.90700
O 	O 	0.87024 0.02630 0.58885 -0.40900
O 	O 	0.83998 0.02655 0.61847 -0.41400
O 	O 	0.77755 0.09383 0.62112 -0.40800
O 	O 	0.77450 0.12206 0.58950 -0.40500
O 	O 	0.84302 0.12499 0.52603 -0.41100
O 	O 	0.87274 0.09464 0.52602 -0.41100
O 	O 	0.77773 0.15841 0.62709 -0.41100
O 	O 	0.77469 0.13051 0.65889 -0.42100
C 	C 	0.85042 0.03507 0.59900 0.38400
C 	C 	0.83837 0.05790 0.58689 -0.12400
C 	C 	0.81702 0.06855 0.59778 0.07100
H 	H 	0.80950 0.06100 0.61240 0.04300
C 	C 	0.80652 0.09057 0.58720 -0.12200
C 	C 	0.81791 0.10219 0.56637 0.07200
H 	H 	0.81090 0.11740 0.55960 0.04200
C 	C 	0.83934 0.09170 0.55543 -0.12400
C 	C 	0.84972 0.06919 0.56555 0.06900
H 	H 	0.86430 0.06170 0.55800 0.04300
C 	C 	0.78445 0.10312 0.60023 0.37600
C 	C 	0.85269 0.10500 0.53408 0.38400
C 	C 	0.78384 0.14933 0.64812 0.39500
C 	C 	0.80554 0.16217 0.66114 -0.12700
C 	C 	0.81613 0.15094 0.68314 0.07300
H 	H 	0.80840 0.13630 0.69030 0.04200
Cu	Cu	0.74970 0.64280 0.10759 0.90700
O 	O 	0.87024 0.52630 0.08885 -0.40900
O 	O 	0.83998 0.52655 0.11847 -0.41300
O 	O 	0.77755 0.59383 0.12112 -0.40800
O 	O 	0.77450 0.62206 0.08950 -0.40500
O 	O 	0.84302 0.62499 0.02603 -0.41200
O 	O 	0.87274 0.59464 0.02602 -0.41200
O 	O 	0.77773 0.65841 0.12709 -0.41100
O 	O 	0.77469 0.63051 0.15889 -0.42100
C 	C 	0.85042 0.53507 0.09900 0.38400
C 	C 	0.83837 0.55790 0.08689 -0.12400
C 	C 	0.81702 0.56855 0.09778 0.07100
H 	H 	0.80950 0.56100 0.11240 0.04300
C 	C 	0.80652 0.59057 0.08720 -0.12200
C 	C 	0.81791 0.60219 0.06637 0.07200
H 	H 	0.81090 0.61740 0.05960 0.04200
C 	C 	0.83934 0.59170 0.05543 -0.12400
C 	C 	0.84972 0.56919 0.06555 0.06900
H 	H 	0.86430 0.56170 0.05800 0.04300
C 	C 	0.78445 0.60312 0.10023 0.37600
C 	C 	0.85269 0.60500 0.03408 0.38400
C 	C 	0.78384 0.64933 0.14812 0.39500
C 	C 	0.80554 0.66217 0.16114 -0.12700
C 	C 	0.81613 0.65094 0.18314 0.07300
H 	H 	0.80840 0.63630 0.19030 0.04200
Cu	Cu	0.75030 0.85720 0.10759 0.90700
O 	O 	0.62976 0.97370 0.08885 -0.40800
O 	O 	0.66002 0.97345 0.11847 -0.41300
O 	O 	0.72245 0.90617 0.12112 -0.40800
O 	O 	0.72550 0.87794 0.08950 -0.40500
O 	O 	0.65698 0.87501 0.02603 -0.41200
O 	O 	0.62726 0.90536 0.02602 -0.41200
O 	O 	0.72227 0.84159 0.12709 -0.41100
O 	O 	0.72531 0.86949 0.15889 -0.42100
C 	C 	0.64958 0.96493 0.09900 0.38400
C 	C 	0.66163 0.94210 0.08689 -0.12400
C 	C 	0.68298 0.93145 0.09778 0.07100
H 	H 	0.69050 0.93900 0.11240 0.04300
C 	C 	0.69348 0.90943 0.08720 -0.12200
C 	C 	0.68209 0.89781 0.06637 0.07200
H 	H 	0.68910 0.88260 0.05960 0.04200
C 	C 	0.66066 0.90830 0.05543 -0.12300
C 	C 	0.65028 0.93081 0.06555 0.06900
H 	H 	0.63570 0.93830 0.05800 0.04300
C 	C 	0.71555 0.89688 0.10023 0.37600
C 	C 	0.64731 0.89500 0.03408 0.38400
C 	C 	0.71616 0.85067 0.14812 0.39500
C 	C 	0.69446 0.83783 0.16114 -0.12700
C 	C 	0.68387 0.84906 0.18314 0.07300
H 	H 	0.69160 0.86370 0.19030 0.04200
Cu	Cu	0.75030 0.35720 0.60759 0.90700
O 	O 	0.62976 0.47370 0.58885 -0.40900
O 	O 	0.66002 0.47345 0.61847 -0.41300
O 	O 	0.72245 0.40617 0.62112 -0.40800
O 	O 	0.72550 0.37794 0.58950 -0.40500
O 	O 	0.65698 0.37501 0.52603 -0.41100
O 	O 	0.62726 0.40536 0.52602 -0.41100
O 	O 	0.72227 0.34159 0.62709 -0.41100
O 	O 	0.72531 0.36949 0.65889 -0.42100
C 	C 	0.64958 0.46493 0.59900 0.38400
C 	C 	0.66163 0.44210 0.58689 -0.12400
C 	C 	0.68298 0.43145 0.59778 0.07100
H 	H 	0.69050 0.43900 0.61240 0.04300
C 	C 	0.69348 0.40943 0.58720 -0.12200
C 	C 	0.68209 0.39781 0.56637 0.07200
H 	H 	0.68910 0.38260 0.55960 0.04200
C 	C 	0.66066 0.40830 0.55543 -0.12300
C 	C 	0.65028 0.43081 0.56555 0.06900
H 	H 	0.63570 0.43830 0.55800 0.04300
C 	C 	0.71555 0.39688 0.60023 0.37600
C 	C 	0.64731 0.39500 0.53408 0.38400
C 	C 	0.71616 0.35067 0.64812 0.39500
C 	C 	0.69446 0.33783 0.66114 -0.12700
C 	C 	0.68387 0.34906 0.68314 0.07300
H 	H 	0.69160 0.36370 0.69030 0.04200
Cu	Cu	0.25030 0.85720 0.60759 0.90700
O 	O 	0.12976 0.97370 0.58885 -0.40800
O 	O 	0.16002 0.97345 0.61847 -0.41300
O 	O 	0.22245 0.90617 0.62112 -0.40800
O 	O 	0.22550 0.87794 0.58950 -0.40500
O 	O 	0.15698 0.87501 0.52603 -0.41100
O 	O 	0.12726 0.90536 0.52602 -0.41100
O 	O 	0.22227 0.84159 0.62709 -0.41100
O 	O 	0.22531 0.86949 0.65889 -0.42100
C 	C 	0.14958 0.96493 0.59900 0.38400
C 	C 	0.16163 0.94210 0.58689 -0.12300
C 	C 	0.18298 0.93145 0.59778 0.07100
H 	H 	0.19050 0.93900 0.61240 0.04300
C 	C 	0.19348 0.90943 0.58720 -0.12200
C 	C 	0.18209 0.89781 0.56637 0.07200
H 	H 	0.18910 0.88260 0.55960 0.04200
C 	C 	0.16066 0.90830 0.55543 -0.12300
C 	C 	0.15028 0.93081 0.56555 0.06900
H 	H 	0.13570 0.93830 0.55800 0.04300
C 	C 	0.21555 0.89688 0.60023 0.37600
C 	C 	0.14731 0.89500 0.53408 0.38400
C 	C 	0.21616 0.85067 0.64812 0.39500
C 	C 	0.19446 0.83783 0.66114 -0.12700
C 	C 	0.18387 0.84906 0.68314 0.07300
H 	H 	0.19160 0.86370 0.69030 0.04200
Cu	Cu	0.25030 0.35720 0.10759 0.90700
O 	O 	0.12976 0.47370 0.08885 -0.40900
O 	O 	0.16002 0.47345 0.11847 -0.41300
O 	O 	0.22245 0.40617 0.12112 -0.40800
O 	O 	0.22550 0.37794 0.08950 -0.40500
O 	O 	0.15698 0.37501 0.02603 -0.41200
O 	O 	0.12726 0.40536 0.02602 -0.41200
O 	O 	0.22227 0.34159 0.12709 -0.41100
O 	O 	0.22531 0.36949 0.15889 -0.42100
C 	C 	0.14958 0.46493 0.09900 0.38400
C 	C 	0.16163 0.44210 0.08689 -0.12400
C 	C 	0.18298 0.43145 0.09778 0.07100
H 	H 	0.19050 0.43900 0.11240 0.04300
C 	C 	0.19348 0.40943 0.08720 -0.12200
C 	C 	0.18209 0.39781 0.06637 0.07200
H 	H 	0.18910 0.38260 0.05960 0.04200
C 	C 	0.16066 0.40830 0.05543 -0.12400
C 	C 	0.15028 0.43081 0.06555 0.06900
H 	H 	0.13570 0.43830 0.05800 0.04300
C 	C 	0.21555 0.39688 0.10023 0.37600
C 	C 	0.14731 0.39500 0.03408 0.38500
C 	C 	0.21616 0.35067 0.14812 0.39500
C 	C 	0.19446 0.33783 0.16114 -0.12700
C 	C 	0.18387 0.34906 0.18314 0.07300
H 	H 	0.19160 0.36370 0.19030 0.04200
Cu	Cu	0.75030 0.14280 0.89241 0.90700
O 	O 	0.62976 0.02630 0.91115 -0.40900
O 	O 	0.66002 0.02655 0.88153 -0.41400
O 	O 	0.72245 0.09383 0.87888 -0.40800
O 	O 	0.72550 0.12206 0.91050 -0.40500
O 	O 	0.65698 0.12499 0.97397 -0.41100
O 	O 	0.62726 0.09464 0.97398 -0.41100
O 	O 	0.72227 0.15841 0.87291 -0.41100
O 	O 	0.72531 0.13051 0.84111 -0.42100
C 	C 	0.64958 0.03507 0.90100 0.38400
C 	C 	0.66163 0.05790 0.91311 -0.12400
C 	C 	0.68298 0.06855 0.90222 0.07100
H 	H 	0.69050 0.06100 0.88760 0.04300
C 	C 	0.69348 0.09057 0.91280 -0.12200
C 	C 	0.68209 0.10219 0.93363 0.07200
H 	H 	0.68910 0.11740 0.94040 0.04200
C 	C 	0.66066 0.09170 0.94457 -0.12300
C 	C 	0.65028 0.06919 0.93445 0.06900
H 	H 	0.63570 0.06170 0.94200 0.04300
C 	C 	0.71555 0.10312 0.89977 0.37600
C 	C 	0.64731 0.10500 0.96592 0.38400
C 	C 	0.71616 0.14933 0.85188 0.39500
C 	C 	0.69446 0.16217 0.83886 -0.12700
C 	C 	0.68387 0.15094 0.81686 0.07300
H 	H 	0.69160 0.13630 0.80970 0.04200
Cu	Cu	0.75030 0.64280 0.39241 0.90700
O 	O 	0.62976 0.52630 0.41115 -0.40900
O 	O 	0.66002 0.52655 0.38153 -0.41300
O 	O 	0.72245 0.59383 0.37888 -0.40800
O 	O 	0.72550 0.62206 0.41050 -0.40500
O 	O 	0.65698 0.62499 0.47397 -0.41100
O 	O 	0.62726 0.59464 0.47398 -0.41100
O 	O 	0.72227 0.65841 0.37291 -0.41100
O 	O 	0.72531 0.63051 0.34111 -0.42100
C 	C 	0.64958 0.53507 0.40100 0.38300
C 	C 	0.66163 0.55790 0.41311 -0.12500
C 	C 	0.68298 0.56855 0.40222 0.07000
H 	H 	0.69050 0.56100 0.38760 0.04200
C 	C 	0.69348 0.59057 0.41280 -0.12300
C 	C 	0.68209 0.60219 0.43363 0.07100
H 	H 	0.68910 0.61740 0.44040 0.04100
C 	C 	0.66066 0.59170 0.44457 -0.12400
C 	C 	0.65028 0.56919 0.43445 0.06800
H 	H 	0.63570 0.56170 0.44200 0.04200
C 	C 	0.71555 0.60312 0.39977 0.37500
C 	C 	0.64731 0.60500 0.46592 0.38300
C 	C 	0.71616 0.64933 0.35188 0.39400
C 	C 	0.69446 0.66217 0.33886 -0.12800
C 	C 	0.68387 0.65094 0.31686 0.07200
H 	H 	0.69160 0.63630 0.30970 0.04100
Cu	Cu	0.25030 0.14280 0.39241 0.90600
O 	O 	0.12976 0.02630 0.41115 -0.41000
O 	O 	0.16002 0.02655 0.38153 -0.41500
O 	O 	0.22245 0.09383 0.37888 -0.40900
O 	O 	0.22550 0.12206 0.41050 -0.40600
O 	O 	0.15698 0.12499 0.47397 -0.41200
O 	O 	0.12726 0.09464 0.47398 -0.41200
O 	O 	0.22227 0.15841 0.37291 -0.41200
O 	O 	0.22531 0.13051 0.34111 -0.42200
C 	C 	0.14958 0.03507 0.40100 0.38300
C 	C 	0.16163 0.05790 0.41311 -0.12500
C 	C 	0.18298 0.06855 0.40222 0.07000
H 	H 	0.19050 0.06100 0.38760 0.04200
C 	C 	0.19348 0.09057 0.41280 -0.12300
C 	C 	0.18209 0.10219 0.43363 0.07100
H 	H 	0.18910 0.11740 0.44040 0.04100
C 	C 	0.16066 0.09170 0.44457 -0.12500
C 	C 	0.15028 0.06919 0.43445 0.06800
H 	H 	0.13570 0.06170 0.44200 0.04200
C 	C 	0.21555 0.10312 0.39977 0.37500
C 	C 	0.14731 0.10500 0.46592 0.38300
C 	C 	0.21616 0.14933 0.35188 0.39400
C 	C 	0.19446 0.16217 0.33886 -0.12800
C 	C 	0.18387 0.15094 0.31686 0.07200
H 	H 	0.19160 0.13630 0.30970 0.04100
Cu	Cu	0.25030 0.64280 0.89241 0.90600
O 	O 	0.12976 0.52630 0.91115 -0.40900
O 	O 	0.16002 0.52655 0.88153 -0.41400
O 	O 	0.22245 0.59383 0.87888 -0.40900
O 	O 	0.22550 0.62206 0.91050 -0.40600
O 	O 	0.15698 0.62499 0.97397 -0.41200
O 	O 	0.12726 0.59464 0.97398 -0.41200
O 	O 	0.22227 0.65841 0.87291 -0.41200
O 	O 	0.22531 0.63051 0.84111 -0.42200
C 	C 	0.14958 0.53507 0.90100 0.38300
C 	C 	0.16163 0.55790 0.91311 -0.12500
C 	C 	0.18298 0.56855 0.90222 0.07000
H 	H 	0.19050 0.56100 0.88760 0.04200
C 	C 	0.19348 0.59057 0.91280 -0.12300
C 	C 	0.18209 0.60219 0.93363 0.07100
H 	H 	0.18910 0.61740 0.94040 0.04100
C 	C 	0.16066 0.59170 0.94457 -0.12400
C 	C 	0.15028 0.56919 0.93445 0.06800
H 	H 	0.13570 0.56170 0.94200 0.04200
C 	C 	0.21555 0.60312 0.89977 0.37500
C 	C 	0.14731 0.60500 0.96592 0.38300
C 	C 	0.21616 0.64933 0.85188 0.39400
C 	C 	0.19446 0.66217 0.83886 -0.12800
C 	C 	0.18387 0.65094 0.81686 0.07200
H 	H 	0.19160 0.63630 0.80970 0.04100
Cu	Cu	0.24970 0.85720 0.89241 0.90600
O 	O 	0.37024 0.97370 0.91115 -0.40900
O 	O 	0.33998 0.97345 0.88153 -0.41400
O 	O 	0.27755 0.90617 0.87888 -0.40900
O 	O 	0.27450 0.87794 0.91050 -0.40600
O 	O 	0.34302 0.87501 0.97397 -0.41200
O 	O 	0.37274 0.90536 0.97398 -0.41200
O 	O 	0.27773 0.84159 0.87291 -0.41200
O 	O 	0.27469 0.86949 0.84111 -0.42200
C 	C 	0.35042 0.96493 0.90100 0.38300
C 	C 	0.33837 0.94210 0.91311 -0.12400
C 	C 	0.31702 0.93145 0.90222 0.07000
H 	H 	0.30950 0.93900 0.88760 0.04200
C 	C 	0.30652 0.90943 0.91280 -0.12200
C 	C 	0.31791 0.89781 0.93363 0.07100
H 	H 	0.31090 0.88260 0.94040 0.04100
C 	C 	0.33934 0.90830 0.94457 -0.12400
C 	C 	0.34972 0.93081 0.93445 0.06800
H 	H 	0.36430 0.93830 0.94200 0.04200
C 	C 	0.28445 0.89688 0.89977 0.37500
C 	C 	0.35269 0.89500 0.96592 0.38300
C 	C 	0.28384 0.85067 0.85188 0.39400
C 	C 	0.30554 0.83783 0.83886 -0.12800
C 	C 	0.31613 0.84906 0.81686 0.07200
H 	H 	0.30840 0.86370 0.80970 0.04100
Cu	Cu	0.24970 0.35720 0.39241 0.90600
O 	O 	0.37024 0.47370 0.41115 -0.41000
O 	O 	0.33998 0.47345 0.38153 -0.41400
O 	O 	0.27755 0.40617 0.37888 -0.40900
O 	O 	0.27450 0.37794 0.41050 -0.40600
O 	O 	0.34302 0.37501 0.47397 -0.41200
O 	O 	0.37274 0.40536 0.47398 -0.41200
O 	O 	0.27773 0.34159 0.37291 -0.41200
O 	O 	0.27469 0.36949 0.34111 -0.42200
C 	C 	0.35042 0.46493 0.40100 0.38300
C 	C 	0.33837 0.44210 0.41311 -0.12500
C 	C 	0.31702 0.43145 0.40222 0.07000
H 	H 	0.30950 0.43900 0.38760 0.04200
C 	C 	0.30652 0.40943 0.41280 -0.12300
C 	C 	0.31791 0.39781 0.43363 0.07100
H 	H 	0.31090 0.38260 0.44040 0.04100
C 	C 	0.33934 0.40830 0.44457 -0.12400
C 	C 	0.34972 0.43081 0.43445 0.06800
H 	H 	0.36430 0.43830 0.44200 0.04200
C 	C 	0.28445 0.39688 0.39977 0.37500
C 	C 	0.35269 0.39500 0.46592 0.38300
C 	C 	0.28384 0.35067 0.35188 0.39400
C 	C 	0.30554 0.33783 0.33886 -0.12800
C 	C 	0.31613 0.34906 0.31686 0.07200
H 	H 	0.30840 0.36370 0.30970 0.04100
Cu	Cu	0.74970 0.85720 0.39241 0.90600
O 	O 	0.87024 0.97370 0.41115 -0.40900
O 	O 	0.83998 0.97345 0.38153 -0.41400
O 	O 	0.77755 0.90617 0.37888 -0.40900
O 	O 	0.77450 0.87794 0.41050 -0.40600
O 	O 	0.84302 0.87501 0.47397 -0.41200
O 	O 	0.87274 0.90536 0.47398 -0.41200
O 	O 	0.77773 0.84159 0.37291 -0.41200
O 	O 	0.77469 0.86949 0.34111 -0.42200
C 	C 	0.85042 0.96493 0.40100 0.38300
C 	C 	0.83837 0.94210 0.41311 -0.12400
C 	C 	0.81702 0.93145 0.40222 0.07000
H 	H 	0.80950 0.93900 0.38760 0.04200
C 	C 	0.80652 0.90943 0.41280 -0.12300
C 	C 	0.81791 0.89781 0.43363 0.07100
H 	H 	0.81090 0.88260 0.44040 0.04100
C 	C 	0.83934 0.90830 0.44457 -0.12400
C 	C 	0.84972 0.93081 0.43445 0.06800
H 	H 	0.86430 0.93830 0.44200 0.04200
C 	C 	0.78445 0.89688 0.39977 0.37500
C 	C 	0.85269 0.89500 0.46592 0.38300
C 	C 	0.78384 0.85067 0.35188 0.39400
C 	C 	0.80554 0.83783 0.33886 -0.12800
C 	C 	0.81613 0.84906 0.31686 0.07200
H 	H 	0.80840 0.86370 0.30970 0.04100
Cu	Cu	0.74970 0.35720 0.89241 0.90600
O 	O 	0.87024 0.47370 0.91115 -0.40900
O 	O 	0.83998 0.47345 0.88153 -0.41400
O 	O 	0.77755 0.40617 0.87888 -0.40900
O 	O 	0.77450 0.37794 0.91050 -0.40600
O 	O 	0.84302 0.37501 0.97397 -0.41200
O 	O 	0.87274 0.40536 0.97398 -0.41200
O 	O 	0.77773 0.34159 0.87291 -0.41200
O 	O 	0.77469 0.36949 0.84111 -0.42200
C 	C 	0.85042 0.46493 0.90100 0.38300
C 	C 	0.83837 0.44210 0.91311 -0.12500
C 	C 	0.81702 0.43145 0.90222 0.07000
H 	H 	0.80950 0.43900 0.88760 0.04200
C 	C 	0.80652 0.40943 0.91280 -0.12300
C 	C 	0.81791 0.39781 0.93363 0.07100
H 	H 	0.81090 0.38260 0.94040 0.04100
C 	C 	0.83934 0.40830 0.94457 -0.12400
C 	C 	0.84972 0.43081 0.93445 0.06800
H 	H 	0.86430 0.43830 0.94200 0.04200
C 	C 	0.78445 0.39688 0.89977 0.37500
C 	C 	0.85269 0.39500 0.96592 0.38300
C 	C 	0.78384 0.35067 0.85188 0.39400
C 	C 	0.80554 0.33783 0.83886 -0.12800
C 	C 	0.81613 0.34906 0.81686 0.07200
H 	H 	0.80840 0.36370 0.80970 0.04100
Cu	Cu	0.10759 0.24970 0.14280 0.90600
O 	O 	0.08885 0.37024 0.02630 -0.41000
O 	O 	0.11847 0.33998 0.02655 -0.41500
O 	O 	0.12112 0.27755 0.09383 -0.40900
O 	O 	0.08950 0.27450 0.12206 -0.40600
O 	O 	0.02603 0.34302 0.12499 -0.41300
O 	O 	0.02602 0.37274 0.09464 -0.41300
O 	O 	0.12709 0.27773 0.15841 -0.41200
O 	O 	0.15889 0.27469 0.13051 -0.42200
C 	C 	0.09900 0.35042 0.03507 0.38300
C 	C 	0.08689 0.33837 0.05790 -0.12500
C 	C 	0.09778 0.31702 0.06855 0.07000
H 	H 	0.11240 0.30950 0.06100 0.04200
C 	C 	0.08720 0.30652 0.09057 -0.12300
C 	C 	0.06637 0.31791 0.10219 0.07100
H 	H 	0.05960 0.31090 0.11740 0.04100
C 	C 	0.05543 0.33934 0.09170 -0.12500
C 	C 	0.06555 0.34972 0.06919 0.06800
H 	H 	0.05800 0.36430 0.06170 0.04200
C 	C 	0.10023 0.28445 0.10312 0.37500
C 	C 	0.03408 0.35269 0.10500 0.38400
C 	C 	0.14812 0.28384 0.14933 0.39400
C 	C 	0.16114 0.30554 0.16217 -0.12800
C 	C 	0.18314 0.31613 0.15094 0.07200
H 	H 	0.19030 0.30840 0.13630 0.04100
Cu	Cu	0.10759 0.74970 0.64280 0.90600
O 	O 	0.08885 0.87024 0.52630 -0.41000
O 	O 	0.11847 0.83998 0.52655 -0.41400
O 	O 	0.12112 0.77755 0.59383 -0.40900
O 	O 	0.08950 0.77450 0.62206 -0.40600
O 	O 	0.02603 0.84302 0.62499 -0.41300
O 	O 	0.02602 0.87274 0.59464 -0.41300
O 	O 	0.12709 0.77773 0.65841 -0.41200
O 	O 	0.15889 0.77469 0.63051 -0.42200
C 	C 	0.09900 0.85042 0.53507 0.38300
C 	C 	0.08689 0.83837 0.55790 -0.12500
C 	C 	0.09778 0.81702 0.56855 0.07000
H 	H 	0.11240 0.80950 0.56100 0.04200
C 	C 	0.08720 0.80652 0.59057 -0.12300
C 	C 	0.06637 0.81791 0.60219 0.07100
H 	H 	0.05960 0.81090 0.61740 0.04100
C 	C 	0.05543 0.83934 0.59170 -0.12500
C 	C 	0.06555 0.84972 0.56919 0.06800
H 	H 	0.05800 0.86430 0.56170 0.04200
C 	C 	0.10023 0.78445 0.60312 0.37500
C 	C 	0.03408 0.85269 0.60500 0.38300
C 	C 	0.14812 0.78384 0.64933 0.39400
C 	C 	0.16114 0.80554 0.66217 -0.12800
C 	C 	0.18314 0.81613 0.65094 0.07200
H 	H 	0.19030 0.80840 0.63630 0.04100
Cu	Cu	0.60759 0.24970 0.64280 0.90600
O 	O 	0.58885 0.37024 0.52630 -0.41000
O 	O 	0.61847 0.33998 0.52655 -0.41400
O 	O 	0.62112 0.27755 0.59383 -0.40900
O 	O 	0.58950 0.27450 0.62206 -0.40600
O 	O 	0.52603 0.34302 0.62499 -0.41200
O 	O 	0.52602 0.37274 0.59464 -0.41200
O 	O 	0.62709 0.27773 0.65841 -0.41200
O 	O 	0.65889 0.27469 0.63051 -0.42200
C 	C 	0.59900 0.35042 0.53507 0.38300
C 	C 	0.58689 0.33837 0.55790 -0.12500
C 	C 	0.59778 0.31702 0.56855 0.07000
H 	H 	0.61240 0.30950 0.56100 0.04200
C 	C 	0.58720 0.30652 0.59057 -0.12300
C 	C 	0.56637 0.31791 0.60219 0.07100
H 	H 	0.55960 0.31090 0.61740 0.04100
C 	C 	0.55543 0.33934 0.59170 -0.12400
C 	C 	0.56555 0.34972 0.56919 0.06800
H 	H 	0.55800 0.36430 0.56170 0.04200
C 	C 	0.60023 0.28445 0.60312 0.37500
C 	C 	0.53408 0.35269 0.60500 0.38300
C 	C 	0.64812 0.28384 0.64933 0.39400
C 	C 	0.66114 0.30554 0.66217 -0.12800
C 	C 	0.68314 0.31613 0.65094 0.07200
H 	H 	0.69030 0.30840 0.63630 0.04100
Cu	Cu	0.60759 0.74970 0.14280 0.90600
O 	O 	0.58885 0.87024 0.02630 -0.41000
O 	O 	0.61847 0.83998 0.02655 -0.41500
O 	O 	0.62112 0.77755 0.09383 -0.40900
O 	O 	0.58950 0.77450 0.12206 -0.40600
O 	O 	0.52603 0.84302 0.12499 -0.41200
O 	O 	0.52602 0.87274 0.09464 -0.41200
O 	O 	0.62709 0.77773 0.15841 -0.41200
O 	O 	0.65889 0.77469 0.13051 -0.42200
C 	C 	0.59900 0.85042 0.03507 0.38300
C 	C 	0.58689 0.83837 0.05790 -0.12500
C 	C 	0.59778 0.81702 0.06855 0.07000
H 	H 	0.61240 0.80950 0.06100 0.04200
C 	C 	0.58720 0.80652 0.09057 -0.12300
C 	C 	0.56637 0.81791 0.10219 0.07100
H 	H 	0.55960 0.81090 0.11740 0.04100
C 	C 	0.55543 0.83934 0.09170 -0.12500
C 	C 	0.56555 0.84972 0.06919 0.06800
H 	H 	0.55800 0.86430 0.06170 0.04200
C 	C 	0.60023 0.78445 0.10312 0.37500
C 	C 	0.53408 0.85269 0.10500 0.38300
C 	C 	0.64812 0.78384 0.14933 0.39400
C 	C 	0.66114 0.80554 0.16217 -0.12800
C 	C 	0.68314 0.81613 0.15094 0.07200
H 	H 	0.69030 0.80840 0.13630 0.04100
Cu	Cu	0.10759 0.75030 0.85720 0.90600
O 	O 	0.08885 0.62976 0.97370 -0.40900
O 	O 	0.11847 0.66002 0.97345 -0.41400
O 	O 	0.12112 0.72245 0.90617 -0.40900
O 	O 	0.08950 0.72550 0.87794 -0.40600
O 	O 	0.02603 0.65698 0.87501 -0.41300
O 	O 	0.02602 0.62726 0.90536 -0.41300
O 	O 	0.12709 0.72227 0.84159 -0.41200
O 	O 	0.15889 0.72531 0.86949 -0.42200
C 	C 	0.09900 0.64958 0.96493 0.38300
C 	C 	0.08689 0.66163 0.94210 -0.12500
C 	C 	0.09778 0.68298 0.93145 0.07000
H 	H 	0.11240 0.69050 0.93900 0.04200
C 	C 	0.08720 0.69348 0.90943 -0.12300
C 	C 	0.06637 0.68209 0.89781 0.07100
H 	H 	0.05960 0.68910 0.88260 0.04100
C 	C 	0.05543 0.66066 0.90830 -0.12400
C 	C 	0.06555 0.65028 0.93081 0.06800
H 	H 	0.05800 0.63570 0.93830 0.04200
C 	C 	0.10023 0.71555 0.89688 0.37500
C 	C 	0.03408 0.64731 0.89500 0.38300
C 	C 	0.14812 0.71616 0.85067 0.39400
C 	C 	0.16114 0.69446 0.83783 -0.12800
C 	C 	0.18314 0.68387 0.84906 0.07200
H 	H 	0.19030 0.69160 0.86370 0.04100
Cu	Cu	0.10759 0.25030 0.35720 0.90600
O 	O 	0.08885 0.12976 0.47370 -0.41000
O 	O 	0.11847 0.16002 0.47345 -0.41400
O 	O 	0.12112 0.22245 0.40617 -0.40900
O 	O 	0.08950 0.22550 0.37794 -0.40600
O 	O 	0.02603 0.15698 0.37501 -0.41300
O 	O 	0.02602 0.12726 0.40536 -0.41300
O 	O 	0.12709 0.22227 0.34159 -0.41200
O 	O 	0.15889 0.22531 0.36949 -0.42200
C 	C 	0.09900 0.14958 0.46493 0.38300
C 	C 	0.08689 0.16163 0.44210 -0.12500
C 	C 	0.09778 0.18298 0.43145 0.07000
H 	H 	0.11240 0.19050 0.43900 0.04200
C 	C 	0.08720 0.19348 0.40943 -0.12300
C 	C 	0.06637 0.18209 0.39781 0.07100
H 	H 	0.05960 0.18910 0.38260 0.04100
C 	C 	0.05543 0.16066 0.40830 -0.12500
C 	C 	0.06555 0.15028 0.43081 0.06800
H 	H 	0.05800 0.13570 0.43830 0.04200
C 	C 	0.10023 0.21555 0.39688 0.37500
C 	C 	0.03408 0.14731 0.39500 0.38400
C 	C 	0.14812 0.21616 0.35067 0.39400
C 	C 	0.16114 0.19446 0.33783 -0.12800
C 	C 	0.18314 0.18387 0.34906 0.07200
H 	H 	0.19030 0.19160 0.36370 0.04100
Cu	Cu	0.60759 0.75030 0.35720 0.90600
O 	O 	0.58885 0.62976 0.47370 -0.41000
O 	O 	0.61847 0.66002 0.47345 -0.41400
O 	O 	0.62112 0.72245 0.40617 -0.40900
O 	O 	0.58950 0.72550 0.37794 -0.40600
O 	O 	0.52603 0.65698 0.37501 -0.41200
O 	O 	0.52602 0.62726 0.40536 -0.41200
O 	O 	0.62709 0.72227 0.34159 -0.41200
O 	O 	0.65889 0.72531 0.36949 -0.42200
C 	C 	0.59900 0.64958 0.46493 0.38300
C 	C 	0.58689 0.66163 0.44210 -0.12500
C 	C 	0.59778 0.68298 0.43145 0.07000
H 	H 	0.61240 0.69050 0.43900 0.04200
C 	C 	0.58720 0.69348 0.40943 -0.12300
C 	C 	0.56637 0.68209 0.39781 0.07100
H 	H 	0.55960 0.68910 0.38260 0.04100
C 	C 	0.55543 0.66066 0.40830 -0.12400
C 	C 	0.56555 0.65028 0.43081 0.06800
H 	H 	0.55800 0.63570 0.43830 0.04200
C 	C 	0.60023 0.71555 0.39688 0.37500
C 	C 	0.53408 0.64731 0.39500 0.38300
C 	C 	0.64812 0.71616 0.35067 0.39400
C 	C 	0.66114 0.69446 0.33783 -0.12800
C 	C 	0.68314 0.68387 0.34906 0.07200
H 	H 	0.69030 0.69160 0.36370 0.04100
Cu	Cu	0.60759 0.25030 0.85720 0.90600
O 	O 	0.58885 0.12976 0.97370 -0.40900
O 	O 	0.61847 0.16002 0.97345 -0.41400
O 	O 	0.62112 0.22245 0.90617 -0.40900
O 	O 	0.58950 0.22550 0.87794 -0.40600
O 	O 	0.52603 0.15698 0.87501 -0.41200
O 	O 	0.52602 0.12726 0.90536 -0.41200
O 	O 	0.62709 0.22227 0.84159 -0.41200
O 	O 	0.65889 0.22531 0.86949 -0.42200
C 	C 	0.59900 0.14958 0.96493 0.38300
C 	C 	0.58689 0.16163 0.94210 -0.12400
C 	C 	0.59778 0.18298 0.93145 0.07000
H 	H 	0.61240 0.19050 0.93900 0.04200
C 	C 	0.58720 0.19348 0.90943 -0.12300
C 	C 	0.56637 0.18209 0.89781 0.07100
H 	H 	0.55960 0.18910 0.88260 0.04100
C 	C 	0.55543 0.16066 0.90830 -0.12400
C 	C 	0.56555 0.15028 0.93081 0.06800
H 	H 	0.55800 0.13570 0.93830 0.04200
C 	C 	0.60023 0.21555 0.89688 0.37500
C 	C 	0.53408 0.14731 0.89500 0.38300
C 	C 	0.64812 0.21616 0.85067 0.39400
C 	C 	0.66114 0.19446 0.83783 -0.12800
C 	C 	0.68314 0.18387 0.84906 0.07200
H 	H 	0.69030 0.19160 0.86370 0.04100
Cu	Cu	0.89241 0.75030 0.14280 0.90600
O 	O 	0.91115 0.62976 0.02630 -0.41000
O 	O 	0.88153 0.66002 0.02655 -0.41500
O 	O 	0.87888 0.72245 0.09383 -0.40900
O 	O 	0.91050 0.72550 0.12206 -0.40600
O 	O 	0.97397 0.65698 0.12499 -0.41200
O 	O 	0.97398 0.62726 0.09464 -0.41200
O 	O 	0.87291 0.72227 0.15841 -0.41200
O 	O 	0.84111 0.72531 0.13051 -0.42200
C 	C 	0.90100 0.64958 0.03507 0.38300
C 	C 	0.91311 0.66163 0.05790 -0.12500
C 	C 	0.90222 0.68298 0.06855 0.07000
H 	H 	0.88760 0.69050 0.06100 0.04200
C 	C 	0.91280 0.69348 0.09057 -0.12300
C 	C 	0.93363 0.68209 0.10219 0.07100
H 	H 	0.94040 0.68910 0.11740 0.04100
C 	C 	0.94457 0.66066 0.09170 -0.12400
C 	C 	0.93445 0.65028 0.06919 0.06800
H 	H 	0.94200 0.63570 0.06170 0.04200
C 	C 	0.89977 0.71555 0.10312 0.37500
C 	C 	0.96592 0.64731 0.10500 0.38300
C 	C 	0.85188 0.71616 0.14933 0.39400
C 	C 	0.83886 0.69446 0.16217 -0.12800
C 	C 	0.81686 0.68387 0.15094 0.07200
H 	H 	0.80970 0.69160 0.13630 0.04100
Cu	Cu	0.89241 0.25030 0.64280 0.90600
O 	O 	0.91115 0.12976 0.52630 -0.40900
O 	O 	0.88153 0.16002 0.52655 -0.41400
O 	O 	0.87888 0.22245 0.59383 -0.40900
O 	O 	0.91050 0.22550 0.62206 -0.40600
O 	O 	0.97397 0.15698 0.62499 -0.41200
O 	O 	0.97398 0.12726 0.59464 -0.41200
O 	O 	0.87291 0.22227 0.65841 -0.41200
O 	O 	0.84111 0.22531 0.63051 -0.42200
C 	C 	0.90100 0.14958 0.53507 0.38300
C 	C 	0.91311 0.16163 0.55790 -0.12500
C 	C 	0.90222 0.18298 0.56855 0.07000
H 	H 	0.88760 0.19050 0.56100 0.04200
C 	C 	0.91280 0.19348 0.59057 -0.12300
C 	C 	0.93363 0.18209 0.60219 0.07100
H 	H 	0.94040 0.18910 0.61740 0.04100
C 	C 	0.94457 0.16066 0.59170 -0.12400
C 	C 	0.93445 0.15028 0.56919 0.06800
H 	H 	0.94200 0.13570 0.56170 0.04200
C 	C 	0.89977 0.21555 0.60312 0.37500
C 	C 	0.96592 0.14731 0.60500 0.38300
C 	C 	0.85188 0.21616 0.64933 0.39400
C 	C 	0.83886 0.19446 0.66217 -0.12800
C 	C 	0.81686 0.18387 0.65094 0.07200
H 	H 	0.80970 0.19160 0.63630 0.04100
Cu	Cu	0.39241 0.75030 0.64280 0.90600
O 	O 	0.41115 0.62976 0.52630 -0.41000
O 	O 	0.38153 0.66002 0.52655 -0.41400
O 	O 	0.37888 0.72245 0.59383 -0.40900
O 	O 	0.41050 0.72550 0.62206 -0.40600
O 	O 	0.47397 0.65698 0.62499 -0.41200
O 	O 	0.47398 0.62726 0.59464 -0.41200
O 	O 	0.37291 0.72227 0.65841 -0.41200
O 	O 	0.34111 0.72531 0.63051 -0.42200
C 	C 	0.40100 0.64958 0.53507 0.38300
C 	C 	0.41311 0.66163 0.55790 -0.12500
C 	C 	0.40222 0.68298 0.56855 0.07000
H 	H 	0.38760 0.69050 0.56100 0.04200
C 	C 	0.41280 0.69348 0.59057 -0.12300
C 	C 	0.43363 0.68209 0.60219 0.07100
H 	H 	0.44040 0.68910 0.61740 0.04100
C 	C 	0.44457 0.66066 0.59170 -0.12400
C 	C 	0.43445 0.65028 0.56919 0.06800
H 	H 	0.44200 0.63570 0.56170 0.04200
C 	C 	0.39977 0.71555 0.60312 0.37500
C 	C 	0.46592 0.64731 0.60500 0.38300
C 	C 	0.35188 0.71616 0.64933 0.39400
C 	C 	0.33886 0.69446 0.66217 -0.12800
C 	C 	0.31686 0.68387 0.65094 0.07200
H 	H 	0.30970 0.69160 0.63630 0.04100
Cu	Cu	0.39241 0.25030 0.14280 0.90600
O 	O 	0.41115 0.12976 0.02630 -0.41000
O 	O 	0.38153 0.16002 0.02655 -0.41500
O 	O 	0.37888 0.22245 0.09383 -0.40900
O 	O 	0.41050 0.22550 0.12206 -0.40600
O 	O 	0.47397 0.15698 0.12499 -0.41200
O 	O 	0.47398 0.12726 0.09464 -0.41200
O 	O 	0.37291 0.22227 0.15841 -0.41200
O 	O 	0.34111 0.22531 0.13051 -0.42200
C 	C 	0.40100 0.14958 0.03507 0.38300
C 	C 	0.41311 0.16163 0.05790 -0.12500
C 	C 	0.40222 0.18298 0.06855 0.07000
H 	H 	0.38760 0.19050 0.06100 0.04200
C 	C 	0.41280 0.19348 0.09057 -0.12300
C 	C 	0.43363 0.18209 0.10219 0.07100
H 	H 	0.44040 0.18910 0.11740 0.04100
C 	C 	0.44457 0.16066 0.09170 -0.12500
C 	C 	0.43445 0.15028 0.06919 0.06800
H 	H 	0.44200 0.13570 0.06170 0.04200
C 	C 	0.39977 0.21555 0.10312 0.37500
C 	C 	0.46592 0.14731 0.10500 0.38300
C 	C 	0.35188 0.21616 0.14933 0.39400
C 	C 	0.33886 0.19446 0.16217 -0.12800
C 	C 	0.31686 0.18387 0.15094 0.07200
H 	H 	0.30970 0.19160 0.13630 0.04100
Cu	Cu	0.89241 0.24970 0.85720 0.90600
O 	O 	0.91115 0.37024 0.97370 -0.40900
O 	O 	0.88153 0.33998 0.97345 -0.41400
O 	O 	0.87888 0.27755 0.90617 -0.40900
O 	O 	0.91050 0.27450 0.87794 -0.40600
O 	O 	0.97397 0.34302 0.87501 -0.41200
O 	O 	0.97398 0.37274 0.90536 -0.41200
O 	O 	0.87291 0.27773 0.84159 -0.41200
O 	O 	0.84111 0.27469 0.86949 -0.42200
C 	C 	0.90100 0.35042 0.96493 0.38300
C 	C 	0.91311 0.33837 0.94210 -0.12400
C 	C 	0.90222 0.31702 0.93145 0.07000
H 	H 	0.88760 0.30950 0.93900 0.04200
C 	C 	0.91280 0.30652 0.90943 -0.12200
C 	C 	0.93363 0.31791 0.89781 0.07100
H 	H 	0.94040 0.31090 0.88260 0.04100
C 	C 	0.94457 0.33934 0.90830 -0.12400
C 	C 	0.93445 0.34972 0.93081 0.06800
H 	H 	0.94200 0.36430 0.93830 0.04200
C 	C 	0.89977 0.28445 0.89688 0.37500
C 	C 	0.96592 0.35269 0.89500 0.38300
C 	C 	0.85188 0.28384 0.85067 0.39400
C 	C 	0.83886 0.30554 0.83783 -0.12800
C 	C 	0.81686 0.31613 0.84906 0.07200
H 	H 	0.80970 0.30840 0.86370 0.04100
Cu	Cu	0.89241 0.74970 0.35720 0.90600
O 	O 	0.91115 0.87024 0.47370 -0.40900
O 	O 	0.88153 0.83998 0.47345 -0.41400
O 	O 	0.87888 0.77755 0.40617 -0.40900
O 	O 	0.91050 0.77450 0.37794 -0.40600
O 	O 	0.97397 0.84302 0.37501 -0.41200
O 	O 	0.97398 0.87274 0.40536 -0.41200
O 	O 	0.87291 0.77773 0.34159 -0.41200
O 	O 	0.84111 0.77469 0.36949 -0.42200
C 	C 	0.90100 0.85042 0.46493 0.38300
C 	C 	0.91311 0.83837 0.44210 -0.12500
C 	C 	0.90222 0.81702 0.43145 0.07000
H 	H 	0.88760 0.80950 0.43900 0.04200
C 	C 	0.91280 0.80652 0.40943 -0.12300
C 	C 	0.93363 0.81791 0.39781 0.07100
H 	H 	0.94040 0.81090 0.38260 0.04100
C 	C 	0.94457 0.83934 0.40830 -0.12400
C 	C 	0.93445 0.84972 0.43081 0.06800
H 	H 	0.94200 0.86430 0.43830 0.04200
C 	C 	0.89977 0.78445 0.39688 0.37500
C 	C 	0.96592 0.85269 0.39500 0.38300
C 	C 	0.85188 0.78384 0.35067 0.39400
C 	C 	0.83886 0.80554 0.33783 -0.12800
C 	C 	0.81686 0.81613 0.34906 0.07200
H 	H 	0.80970 0.80840 0.36370 0.04100
Cu	Cu	0.39241 0.24970 0.35720 0.90600
O 	O 	0.41115 0.37024 0.47370 -0.41000
O 	O 	0.38153 0.33998 0.47345 -0.41400
O 	O 	0.37888 0.27755 0.40617 -0.40900
O 	O 	0.41050 0.27450 0.37794 -0.40600
O 	O 	0.47397 0.34302 0.37501 -0.41200
O 	O 	0.47398 0.37274 0.40536 -0.41200
O 	O 	0.37291 0.27773 0.34159 -0.41200
O 	O 	0.34111 0.27469 0.36949 -0.42200
C 	C 	0.40100 0.35042 0.46493 0.38300
C 	C 	0.41311 0.33837 0.44210 -0.12500
C 	C 	0.40222 0.31702 0.43145 0.07000
H 	H 	0.38760 0.30950 0.43900 0.04200
C 	C 	0.41280 0.30652 0.40943 -0.12300
C 	C 	0.43363 0.31791 0.39781 0.07100
H 	H 	0.44040 0.31090 0.38260 0.04100
C 	C 	0.44457 0.33934 0.40830 -0.12400
C 	C 	0.43445 0.34972 0.43081 0.06800
H 	H 	0.44200 0.36430 0.43830 0.04200
C 	C 	0.39977 0.28445 0.39688 0.37500
C 	C 	0.46592 0.35269 0.39500 0.38300
C 	C 	0.35188 0.28384 0.35067 0.39400
C 	C 	0.33886 0.30554 0.33783 -0.12800
C 	C 	0.31686 0.31613 0.34906 0.07200
H 	H 	0.30970 0.30840 0.36370 0.04100
Cu	Cu	0.39241 0.74970 0.85720 0.90600
O 	O 	0.41115 0.87024 0.97370 -0.40900
O 	O 	0.38153 0.83998 0.97345 -0.41400
O 	O 	0.37888 0.77755 0.90617 -0.40900
O 	O 	0.41050 0.77450 0.87794 -0.40600
O 	O 	0.47397 0.84302 0.87501 -0.41200
O 	O 	0.47398 0.87274 0.90536 -0.41200
O 	O 	0.37291 0.77773 0.84159 -0.41200
O 	O 	0.34111 0.77469 0.86949 -0.42200
C 	C 	0.40100 0.85042 0.96493 0.38300
C 	C 	0.41311 0.83837 0.94210 -0.12400
C 	C 	0.40222 0.81702 0.93145 0.07000
H 	H 	0.38760 0.80950 0.93900 0.04200
C 	C 	0.41280 0.80652 0.90943 -0.12300
C 	C 	0.43363 0.81791 0.89781 0.07100
H 	H 	0.44040 0.81090 0.88260 0.04100
C 	C 	0.44457 0.83934 0.90830 -0.12400
C 	C 	0.43445 0.84972 0.93081 0.06800
H 	H 	0.44200 0.86430 0.93830 0.04200
C 	C 	0.39977 0.78445 0.89688 0.37500
C 	C 	0.46592 0.85269 0.89500 0.38300
C 	C 	0.35188 0.78384 0.85067 0.39400
C 	C 	0.33886 0.80554 0.83783 -0.12800
C 	C 	0.31686 0.81613 0.84906 0.07200
H 	H 	0.30970 0.80840 0.86370 0.04100
Cu	Cu	0.14280 0.10759 0.24970 0.90600
O 	O 	0.02630 0.08885 0.37024 -0.41000
O 	O 	0.02655 0.11847 0.33998 -0.41500
O 	O 	0.09383 0.12112 0.27755 -0.40900
O 	O 	0.12206 0.08950 0.27450 -0.40600
O 	O 	0.12499 0.02603 0.34302 -0.41300
O 	O 	0.09464 0.02602 0.37274 -0.41300
O 	O 	0.15841 0.12709 0.27773 -0.41200
O 	O 	0.13051 0.15889 0.27469 -0.42200
C 	C 	0.03507 0.09900 0.35042 0.38300
C 	C 	0.05790 0.08689 0.33837 -0.12500
C 	C 	0.06855 0.09778 0.31702 0.07000
H 	H 	0.06100 0.11240 0.30950 0.04200
C 	C 	0.09057 0.08720 0.30652 -0.12300
C 	C 	0.10219 0.06637 0.31791 0.07100
H 	H 	0.11740 0.05960 0.31090 0.04100
C 	C 	0.09170 0.05543 0.33934 -0.12500
C 	C 	0.06919 0.06555 0.34972 0.06800
H 	H 	0.06170 0.05800 0.36430 0.04200
C 	C 	0.10312 0.10023 0.28445 0.37500
C 	C 	0.10500 0.03408 0.35269 0.38400
C 	C 	0.14933 0.14812 0.28384 0.39400
C 	C 	0.16217 0.16114 0.30554 -0.12800
C 	C 	0.15094 0.18314 0.31613 0.07200
H 	H 	0.13630 0.19030 0.30840 0.04100
Cu	Cu	0.14280 0.60759 0.74970 0.90600
O 	O 	0.02630 0.58885 0.87024 -0.41000
O 	O 	0.02655 0.61847 0.83998 -0.41500
O 	O 	0.09383 0.62112 0.77755 -0.40900
O 	O 	0.12206 0.58950 0.77450 -0.40600
O 	O 	0.12499 0.52603 0.84302 -0.41200
O 	O 	0.09464 0.52602 0.87274 -0.41200
O 	O 	0.15841 0.62709 0.77773 -0.41200
O 	O 	0.13051 0.65889 0.77469 -0.42200
C 	C 	0.03507 0.59900 0.85042 0.38300
C 	C 	0.05790 0.58689 0.83837 -0.12500
C 	C 	0.06855 0.59778 0.81702 0.07000
H 	H 	0.06100 0.61240 0.80950 0.04200
C 	C 	0.09057 0.58720 0.80652 -0.12300
C 	C 	0.10219 0.56637 0.81791 0.07100
H 	H 	0.11740 0.55960 0.81090 0.04100
C 	C 	0.09170 0.55543 0.83934 -0.12500
C 	C 	0.06919 0.56555 0.84972 0.06800
H 	H 	0.06170 0.55800 0.86430 0.04200
C 	C 	0.10312 0.60023 0.78445 0.37500
C 	C 	0.10500 0.53408 0.85269 0.38300
C 	C 	0.14933 0.64812 0.78384 0.39400
C 	C 	0.16217 0.66114 0.80554 -0.12800
C 	C 	0.15094 0.68314 0.81613 0.07200
H 	H 	0.13630 0.69030 0.80840 0.04100
Cu	Cu	0.64280 0.10759 0.74970 0.90600
O 	O 	0.52630 0.08885 0.87024 -0.41000
O 	O 	0.52655 0.11847 0.83998 -0.41400
O 	O 	0.59383 0.12112 0.77755 -0.40900
O 	O 	0.62206 0.08950 0.77450 -0.40600
O 	O 	0.62499 0.02603 0.84302 -0.41300
O 	O 	0.59464 0.02602 0.87274 -0.41300
O 	O 	0.65841 0.12709 0.77773 -0.41200
O 	O 	0.63051 0.15889 0.77469 -0.42200
C 	C 	0.53507 0.09900 0.85042 0.38300
C 	C 	0.55790 0.08689 0.83837 -0.12500
C 	C 	0.56855 0.09778 0.81702 0.07000
H 	H 	0.56100 0.11240 0.80950 0.04200
C 	C 	0.59057 0.08720 0.80652 -0.12300
C 	C 	0.60219 0.06637 0.81791 0.07100
H 	H 	0.61740 0.05960 0.81090 0.04100
C 	C 	0.59170 0.05543 0.83934 -0.12500
C 	C 	0.56919 0.06555 0.84972 0.06800
H 	H 	0.56170 0.05800 0.86430 0.04200
C 	C 	0.60312 0.10023 0.78445 0.37500
C 	C 	0.60500 0.03408 0.85269 0.38300
C 	C 	0.64933 0.14812 0.78384 0.39400
C 	C 	0.66217 0.16114 0.80554 -0.12800
C 	C 	0.65094 0.18314 0.81613 0.07200
H 	H 	0.63630 0.19030 0.80840 0.04100
Cu	Cu	0.64280 0.60759 0.24970 0.90600
O 	O 	0.52630 0.58885 0.37024 -0.41000
O 	O 	0.52655 0.61847 0.33998 -0.41400
O 	O 	0.59383 0.62112 0.27755 -0.40900
O 	O 	0.62206 0.58950 0.27450 -0.40600
O 	O 	0.62499 0.52603 0.34302 -0.41200
O 	O 	0.59464 0.52602 0.37274 -0.41200
O 	O 	0.65841 0.62709 0.27773 -0.41200
O 	O 	0.63051 0.65889 0.27469 -0.42200
C 	C 	0.53507 0.59900 0.35042 0.38300
C 	C 	0.55790 0.58689 0.33837 -0.12500
C 	C 	0.56855 0.59778 0.31702 0.07000
H 	H 	0.56100 0.61240 0.30950 0.04200
C 	C 	0.59057 0.58720 0.30652 -0.12300
C 	C 	0.60219 0.56637 0.31791 0.07100
H 	H 	0.61740 0.55960 0.31090 0.04100
C 	C 	0.59170 0.55543 0.33934 -0.12400
C 	C 	0.56919 0.56555 0.34972 0.06800
H 	H 	0.56170 0.55800 0.36430 0.04200
C 	C 	0.60312 0.60023 0.28445 0.37500
C 	C 	0.60500 0.53408 0.35269 0.38300
C 	C 	0.64933 0.64812 0.28384 0.39400
C 	C 	0.66217 0.66114 0.30554 -0.12800
C 	C 	0.65094 0.68314 0.31613 0.07200
H 	H 	0.63630 0.69030 0.30840 0.04100
Cu	Cu	0.85720 0.10759 0.75030 0.90600
O 	O 	0.97370 0.08885 0.62976 -0.40900
O 	O 	0.97345 0.11847 0.66002 -0.41400
O 	O 	0.90617 0.12112 0.72245 -0.40900
O 	O 	0.87794 0.08950 0.72550 -0.40600
O 	O 	0.87501 0.02603 0.65698 -0.41300
O 	O 	0.90536 0.02602 0.62726 -0.41300
O 	O 	0.84159 0.12709 0.72227 -0.41200
O 	O 	0.86949 0.15889 0.72531 -0.42200
C 	C 	0.96493 0.09900 0.64958 0.38300
C 	C 	0.94210 0.08689 0.66163 -0.12500
C 	C 	0.93145 0.09778 0.68298 0.07000
H 	H 	0.93900 0.11240 0.69050 0.04200
C 	C 	0.90943 0.08720 0.69348 -0.12300
C 	C 	0.89781 0.06637 0.68209 0.07100
H 	H 	0.88260 0.05960 0.68910 0.04100
C 	C 	0.90830 0.05543 0.66066 -0.12400
C 	C 	0.93081 0.06555 0.65028 0.06800
H 	H 	0.93830 0.05800 0.63570 0.04200
C 	C 	0.89688 0.10023 0.71555 0.37500
C 	C 	0.89500 0.03408 0.64731 0.38300
C 	C 	0.85067 0.14812 0.71616 0.39400
C 	C 	0.83783 0.16114 0.69446 -0.12800
C 	C 	0.84906 0.18314 0.68387 0.07200
H 	H 	0.86370 0.19030 0.69160 0.04100
Cu	Cu	0.85720 0.60759 0.25030 0.90600
O 	O 	0.97370 0.58885 0.12976 -0.40900
O 	O 	0.97345 0.61847 0.16002 -0.41400
O 	O 	0.90617 0.62112 0.22245 -0.40900
O 	O 	0.87794 0.58950 0.22550 -0.40600
O 	O 	0.87501 0.52603 0.15698 -0.41200
O 	O 	0.90536 0.52602 0.12726 -0.41200
O 	O 	0.84159 0.62709 0.22227 -0.41200
O 	O 	0.86949 0.65889 0.22531 -0.42200
C 	C 	0.96493 0.59900 0.14958 0.38300
C 	C 	0.94210 0.58689 0.16163 -0.12400
C 	C 	0.93145 0.59778 0.18298 0.07000
H 	H 	0.93900 0.61240 0.19050 0.04200
C 	C 	0.90943 0.58720 0.19348 -0.12300
C 	C 	0.89781 0.56637 0.18209 0.07100
H 	H 	0.88260 0.55960 0.18910 0.04100
C 	C 	0.90830 0.55543 0.16066 -0.12400
C 	C 	0.93081 0.56555 0.15028 0.06800
H 	H 	0.93830 0.55800 0.13570 0.04200
C 	C 	0.89688 0.60023 0.21555 0.37500
C 	C 	0.89500 0.53408 0.14731 0.38300
C 	C 	0.85067 0.64812 0.21616 0.39400
C 	C 	0.83783 0.66114 0.19446 -0.12800
C 	C 	0.84906 0.68314 0.18387 0.07200
H 	H 	0.86370 0.69030 0.19160 0.04100
Cu	Cu	0.35720 0.10759 0.25030 0.90600
O 	O 	0.47370 0.08885 0.12976 -0.41000
O 	O 	0.47345 0.11847 0.16002 -0.41400
O 	O 	0.40617 0.12112 0.22245 -0.40900
O 	O 	0.37794 0.08950 0.22550 -0.40600
O 	O 	0.37501 0.02603 0.15698 -0.41300
O 	O 	0.40536 0.02602 0.12726 -0.41300
O 	O 	0.34159 0.12709 0.22227 -0.41200
O 	O 	0.36949 0.15889 0.22531 -0.42200
C 	C 	0.46493 0.09900 0.14958 0.38300
C 	C 	0.44210 0.08689 0.16163 -0.12500
C 	C 	0.43145 0.09778 0.18298 0.07000
H 	H 	0.43900 0.11240 0.19050 0.04200
C 	C 	0.40943 0.08720 0.19348 -0.12300
C 	C 	0.39781 0.06637 0.18209 0.07100
H 	H 	0.38260 0.05960 0.18910 0.04100
C 	C 	0.40830 0.05543 0.16066 -0.12500
C 	C 	0.43081 0.06555 0.15028 0.06800
H 	H 	0.43830 0.05800 0.13570 0.04200
C 	C 	0.39688 0.10023 0.21555 0.37500
C 	C 	0.39500 0.03408 0.14731 0.38400
C 	C 	0.35067 0.14812 0.21616 0.39400
C 	C 	0.33783 0.16114 0.19446 -0.12800
C 	C 	0.34906 0.18314 0.18387 0.07200
H 	H 	0.36370 0.19030 0.19160 0.04100
Cu	Cu	0.35720 0.60759 0.75030 0.90600
O 	O 	0.47370 0.58885 0.62976 -0.41000
O 	O 	0.47345 0.61847 0.66002 -0.41400
O 	O 	0.40617 0.62112 0.72245 -0.40900
O 	O 	0.37794 0.58950 0.72550 -0.40600
O 	O 	0.37501 0.52603 0.65698 -0.41200
O 	O 	0.40536 0.52602 0.62726 -0.41200
O 	O 	0.34159 0.62709 0.72227 -0.41200
O 	O 	0.36949 0.65889 0.72531 -0.42200
C 	C 	0.46493 0.59900 0.64958 0.38300
C 	C 	0.44210 0.58689 0.66163 -0.12500
C 	C 	0.43145 0.59778 0.68298 0.07000
H 	H 	0.43900 0.61240 0.69050 0.04200
C 	C 	0.40943 0.58720 0.69348 -0.12300
C 	C 	0.39781 0.56637 0.68209 0.07100
H 	H 	0.38260 0.55960 0.68910 0.04100
C 	C 	0.40830 0.55543 0.66066 -0.12400
C 	C 	0.43081 0.56555 0.65028 0.06800
H 	H 	0.43830 0.55800 0.63570 0.04200
C 	C 	0.39688 0.60023 0.71555 0.37500
C 	C 	0.39500 0.53408 0.64731 0.38300
C 	C 	0.35067 0.64812 0.71616 0.39400
C 	C 	0.33783 0.66114 0.69446 -0.12800
C 	C 	0.34906 0.68314 0.68387 0.07200
H 	H 	0.36370 0.69030 0.69160 0.04100
Cu	Cu	0.14280 0.89241 0.75030 0.90600
O 	O 	0.02630 0.91115 0.62976 -0.41000
O 	O 	0.02655 0.88153 0.66002 -0.41500
O 	O 	0.09383 0.87888 0.72245 -0.40900
O 	O 	0.12206 0.91050 0.72550 -0.40600
O 	O 	0.12499 0.97397 0.65698 -0.41200
O 	O 	0.09464 0.97398 0.62726 -0.41200
O 	O 	0.15841 0.87291 0.72227 -0.41200
O 	O 	0.13051 0.84111 0.72531 -0.42200
C 	C 	0.03507 0.90100 0.64958 0.38300
C 	C 	0.05790 0.91311 0.66163 -0.12500
C 	C 	0.06855 0.90222 0.68298 0.07000
H 	H 	0.06100 0.88760 0.69050 0.04200
C 	C 	0.09057 0.91280 0.69348 -0.12300
C 	C 	0.10219 0.93363 0.68209 0.07100
H 	H 	0.11740 0.94040 0.68910 0.04100
C 	C 	0.09170 0.94457 0.66066 -0.12400
C 	C 	0.06919 0.93445 0.65028 0.06800
H 	H 	0.06170 0.94200 0.63570 0.04200
C 	C 	0.10312 0.89977 0.71555 0.37500
C 	C 	0.10500 0.96592 0.64731 0.38300
C 	C 	0.14933 0.85188 0.71616 0.39400
C 	C 	0.16217 0.83886 0.69446 -0.12800
C 	C 	0.15094 0.81686 0.68387 0.07200
H 	H 	0.13630 0.80970 0.69160 0.04100
Cu	Cu	0.14280 0.39241 0.25030 0.90600
O 	O 	0.02630 0.41115 0.12976 -0.41000
O 	O 	0.02655 0.38153 0.16002 -0.41500
O 	O 	0.09383 0.37888 0.22245 -0.40900
O 	O 	0.12206 0.41050 0.22550 -0.40600
O 	O 	0.12499 0.47397 0.15698 -0.41200
O 	O 	0.09464 0.47398 0.12726 -0.41200
O 	O 	0.15841 0.37291 0.22227 -0.41200
O 	O 	0.13051 0.34111 0.22531 -0.42200
C 	C 	0.03507 0.40100 0.14958 0.38300
C 	C 	0.05790 0.41311 0.16163 -0.12500
C 	C 	0.06855 0.40222 0.18298 0.07000
H 	H 	0.06100 0.38760 0.19050 0.04200
C 	C 	0.09057 0.41280 0.19348 -0.12300
C 	C 	0.10219 0.43363 0.18209 0.07100
H 	H 	0.11740 0.44040 0.18910 0.04100
C 	C 	0.09170 0.44457 0.16066 -0.12500
C 	C 	0.06919 0.43445 0.15028 0.06800
H 	H 	0.06170 0.44200 0.13570 0.04200
C 	C 	0.10312 0.39977 0.21555 0.37500
C 	C 	0.10500 0.46592 0.14731 0.38300
C 	C 	0.14933 0.35188 0.21616 0.39400
C 	C 	0.16217 0.33886 0.19446 -0.12800
C 	C 	0.15094 0.31686 0.18387 0.07200
H 	H 	0.13630 0.30970 0.19160 0.04100
Cu	Cu	0.64280 0.89241 0.25030 0.90600
O 	O 	0.52630 0.91115 0.12976 -0.40900
O 	O 	0.52655 0.88153 0.16002 -0.41400
O 	O 	0.59383 0.87888 0.22245 -0.40900
O 	O 	0.62206 0.91050 0.22550 -0.40600
O 	O 	0.62499 0.97397 0.15698 -0.41200
O 	O 	0.59464 0.97398 0.12726 -0.41200
O 	O 	0.65841 0.87291 0.22227 -0.41200
O 	O 	0.63051 0.84111 0.22531 -0.42200
C 	C 	0.53507 0.90100 0.14958 0.38300
C 	C 	0.55790 0.91311 0.16163 -0.12500
C 	C 	0.56855 0.90222 0.18298 0.07000
H 	H 	0.56100 0.88760 0.19050 0.04200
C 	C 	0.59057 0.91280 0.19348 -0.12300
C 	C 	0.60219 0.93363 0.18209 0.07100
H 	H 	0.61740 0.94040 0.18910 0.04100
C 	C 	0.59170 0.94457 0.16066 -0.12400
C 	C 	0.56919 0.93445 0.15028 0.06800
H 	H 	0.56170 0.94200 0.13570 0.04200
C 	C 	0.60312 0.89977 0.21555 0.37500
C 	C 	0.60500 0.96592 0.14731 0.38300
C 	C 	0.64933 0.85188 0.21616 0.39400
C 	C 	0.66217 0.83886 0.19446 -0.12800
C 	C 	0.65094 0.81686 0.18387 0.07200
H 	H 	0.63630 0.80970 0.19160 0.04100
Cu	Cu	0.64280 0.39241 0.75030 0.90600
O 	O 	0.52630 0.41115 0.62976 -0.41000
O 	O 	0.52655 0.38153 0.66002 -0.41400
O 	O 	0.59383 0.37888 0.72245 -0.40900
O 	O 	0.62206 0.41050 0.72550 -0.40600
O 	O 	0.62499 0.47397 0.65698 -0.41200
O 	O 	0.59464 0.47398 0.62726 -0.41200
O 	O 	0.65841 0.37291 0.72227 -0.41200
O 	O 	0.63051 0.34111 0.72531 -0.42200
C 	C 	0.53507 0.40100 0.64958 0.38300
C 	C 	0.55790 0.41311 0.66163 -0.12500
C 	C 	0.56855 0.40222 0.68298 0.07000
H 	H 	0.56100 0.38760 0.69050 0.04200
C 	C 	0.59057 0.41280 0.69348 -0.12300
C 	C 	0.60219 0.43363 0.68209 0.07100
H 	H 	0.61740 0.44040 0.68910 0.04100
C 	C 	0.59170 0.44457 0.66066 -0.12400
C 	C 	0.56919 0.43445 0.65028 0.06800
H 	H 	0.56170 0.44200 0.63570 0.04200
C 	C 	0.60312 0.39977 0.71555 0.37500
C 	C 	0.60500 0.46592 0.64731 0.38300
C 	C 	0.64933 0.35188 0.71616 0.39400
C 	C 	0.66217 0.33886 0.69446 -0.12800
C 	C 	0.65094 0.31686 0.68387 0.07200
H 	H 	0.63630 0.30970 0.69160 0.04100
Cu	Cu	0.85720 0.89241 0.24970 0.90600
O 	O 	0.97370 0.91115 0.37024 -0.40900
O 	O 	0.97345 0.88153 0.33998 -0.41400
O 	O 	0.90617 0.87888 0.27755 -0.40900
O 	O 	0.87794 0.91050 0.27450 -0.40600
O 	O 	0.87501 0.97397 0.34302 -0.41200
O 	O 	0.90536 0.97398 0.37274 -0.41200
O 	O 	0.84159 0.87291 0.27773 -0.41200
O 	O 	0.86949 0.84111 0.27469 -0.42200
C 	C 	0.96493 0.90100 0.35042 0.38300
C 	C 	0.94210 0.91311 0.33837 -0.12400
C 	C 	0.93145 0.90222 0.31702 0.07000
H 	H 	0.93900 0.88760 0.30950 0.04200
C 	C 	0.90943 0.91280 0.30652 -0.12200
C 	C 	0.89781 0.93363 0.31791 0.07100
H 	H 	0.88260 0.94040 0.31090 0.04100
C 	C 	0.90830 0.94457 0.33934 -0.12400
C 	C 	0.93081 0.93445 0.34972 0.06800
H 	H 	0.93830 0.94200 0.36430 0.04200
C 	C 	0.89688 0.89977 0.28445 0.37500
C 	C 	0.89500 0.96592 0.35269 0.38300
C 	C 	0.85067 0.85188 0.28384 0.39400
C 	C 	0.83783 0.83886 0.30554 -0.12800
C 	C 	0.84906 0.81686 0.31613 0.07200
H 	H 	0.86370 0.80970 0.30840 0.04100
Cu	Cu	0.85720 0.39241 0.74970 0.90600
O 	O 	0.97370 0.41115 0.87024 -0.40900
O 	O 	0.97345 0.38153 0.83998 -0.41400
O 	O 	0.90617 0.37888 0.77755 -0.40900
O 	O 	0.87794 0.41050 0.77450 -0.40600
O 	O 	0.87501 0.47397 0.84302 -0.41200
O 	O 	0.90536 0.47398 0.87274 -0.41200
O 	O 	0.84159 0.37291 0.77773 -0.41200
O 	O 	0.86949 0.34111 0.77469 -0.42200
C 	C 	0.96493 0.40100 0.85042 0.38300
C 	C 	0.94210 0.41311 0.83837 -0.12400
C 	C 	0.93145 0.40222 0.81702 0.07000
H 	H 	0.93900 0.38760 0.80950 0.04200
C 	C 	0.90943 0.41280 0.80652 -0.12300
C 	C 	0.89781 0.43363 0.81791 0.07100
H 	H 	0.88260 0.44040 0.81090 0.04100
C 	C 	0.90830 0.44457 0.83934 -0.12400
C 	C 	0.93081 0.43445 0.84972 0.06800
H 	H 	0.93830 0.44200 0.86430 0.04200
C 	C 	0.89688 0.39977 0.78445 0.37500
C 	C 	0.89500 0.46592 0.85269 0.38300
C 	C 	0.85067 0.35188 0.78384 0.39400
C 	C 	0.83783 0.33886 0.80554 -0.12800
C 	C 	0.84906 0.31686 0.81613 0.07200
H 	H 	0.86370 0.30970 0.80840 0.04100
Cu	Cu	0.35720 0.89241 0.74970 0.90600
O 	O 	0.47370 0.91115 0.87024 -0.40900
O 	O 	0.47345 0.88153 0.83998 -0.41400
O 	O 	0.40617 0.87888 0.77755 -0.40900
O 	O 	0.37794 0.91050 0.77450 -0.40600
O 	O 	0.37501 0.97397 0.84302 -0.41200
O 	O 	0.40536 0.97398 0.87274 -0.41200
O 	O 	0.34159 0.87291 0.77773 -0.41200
O 	O 	0.36949 0.84111 0.77469 -0.42200
C 	C 	0.46493 0.90100 0.85042 0.38300
C 	C 	0.44210 0.91311 0.83837 -0.12500
C 	C 	0.43145 0.90222 0.81702 0.07000
H 	H 	0.43900 0.88760 0.80950 0.04200
C 	C 	0.40943 0.91280 0.80652 -0.12300
C 	C 	0.39781 0.93363 0.81791 0.07100
H 	H 	0.38260 0.94040 0.81090 0.04100
C 	C 	0.40830 0.94457 0.83934 -0.12400
C 	C 	0.43081 0.93445 0.84972 0.06800
H 	H 	0.43830 0.94200 0.86430 0.04200
C 	C 	0.39688 0.89977 0.78445 0.37500
C 	C 	0.39500 0.96592 0.85269 0.38300
C 	C 	0.35067 0.85188 0.78384 0.39400
C 	C 	0.33783 0.83886 0.80554 -0.12800
C 	C 	0.34906 0.81686 0.81613 0.07200
H 	H 	0.36370 0.80970 0.80840 0.04100
Cu	Cu	0.35720 0.39241 0.24970 0.90600
O 	O 	0.47370 0.41115 0.37024 -0.41000
O 	O 	0.47345 0.38153 0.33998 -0.41400
O 	O 	0.40617 0.37888 0.27755 -0.40900
O 	O 	0.37794 0.41050 0.27450 -0.40600
O 	O 	0.37501 0.47397 0.34302 -0.41200
O 	O 	0.40536 0.47398 0.37274 -0.41200
O 	O 	0.34159 0.37291 0.27773 -0.41200
O 	O 	0.36949 0.34111 0.27469 -0.42200
C 	C 	0.46493 0.40100 0.35042 0.38300
C 	C 	0.44210 0.41311 0.33837 -0.12500
C 	C 	0.43145 0.40222 0.31702 0.07000
H 	H 	0.43900 0.38760 0.30950 0.04200
C 	C 	0.40943 0.41280 0.30652 -0.12300
C 	C 	0.39781 0.43363 0.31791 0.07100
H 	H 	0.38260 0.44040 0.31090 0.04100
C 	C 	0.40830 0.44457 0.33934 -0.12400
C 	C 	0.43081 0.43445 0.34972 0.06800
H 	H 	0.43830 0.44200 0.36430 0.04200
C 	C 	0.39688 0.39977 0.28445 0.37500
C 	C 	0.39500 0.46592 0.35269 0.38300
C 	C 	0.35067 0.35188 0.28384 0.39400
C 	C 	0.33783 0.33886 0.30554 -0.12800
C 	C 	0.34906 0.31686 0.31613 0.07200
H 	H 	0.36370 0.30970 0.30840 0.04100
Cu	Cu	0.64280 0.74970 0.39241 0.90600
O 	O 	0.52630 0.87024 0.41115 -0.40900
O 	O 	0.52655 0.83998 0.38153 -0.41400
O 	O 	0.59383 0.77755 0.37888 -0.40900
O 	O 	0.62206 0.77450 0.41050 -0.40600
O 	O 	0.62499 0.84302 0.47397 -0.41200
O 	O 	0.59464 0.87274 0.47398 -0.41200
O 	O 	0.65841 0.77773 0.37291 -0.41200
O 	O 	0.63051 0.77469 0.34111 -0.42200
C 	C 	0.53507 0.85042 0.40100 0.38300
C 	C 	0.55790 0.83837 0.41311 -0.12500
C 	C 	0.56855 0.81702 0.40222 0.07000
H 	H 	0.56100 0.80950 0.38760 0.04200
C 	C 	0.59057 0.80652 0.41280 -0.12300
C 	C 	0.60219 0.81791 0.43363 0.07100
H 	H 	0.61740 0.81090 0.44040 0.04100
C 	C 	0.59170 0.83934 0.44457 -0.12400
C 	C 	0.56919 0.84972 0.43445 0.06800
H 	H 	0.56170 0.86430 0.44200 0.04200
C 	C 	0.60312 0.78445 0.39977 0.37500
C 	C 	0.60500 0.85269 0.46592 0.38300
C 	C 	0.64933 0.78384 0.35188 0.39400
C 	C 	0.66217 0.80554 0.33886 -0.12800
C 	C 	0.65094 0.81613 0.31686 0.07200
H 	H 	0.63630 0.80840 0.30970 0.04100
Cu	Cu	0.64280 0.24970 0.89241 0.90600
O 	O 	0.52630 0.37024 0.91115 -0.40900
O 	O 	0.52655 0.33998 0.88153 -0.41400
O 	O 	0.59383 0.27755 0.87888 -0.40900
O 	O 	0.62206 0.27450 0.91050 -0.40600
O 	O 	0.62499 0.34302 0.97397 -0.41200
O 	O 	0.59464 0.37274 0.97398 -0.41200
O 	O 	0.65841 0.27773 0.87291 -0.41200
O 	O 	0.63051 0.27469 0.84111 -0.42200
C 	C 	0.53507 0.35042 0.90100 0.38300
C 	C 	0.55790 0.33837 0.91311 -0.12500
C 	C 	0.56855 0.31702 0.90222 0.07000
H 	H 	0.56100 0.30950 0.88760 0.04200
C 	C 	0.59057 0.30652 0.91280 -0.12300
C 	C 	0.60219 0.31791 0.93363 0.07100
H 	H 	0.61740 0.31090 0.94040 0.04100
C 	C 	0.59170 0.33934 0.94457 -0.12400
C 	C 	0.56919 0.34972 0.93445 0.06800
H 	H 	0.56170 0.36430 0.94200 0.04200
C 	C 	0.60312 0.28445 0.89977 0.37500
C 	C 	0.60500 0.35269 0.96592 0.38300
C 	C 	0.64933 0.28384 0.85188 0.39400
C 	C 	0.66217 0.30554 0.83886 -0.12800
C 	C 	0.65094 0.31613 0.81686 0.07200
H 	H 	0.63630 0.30840 0.80970 0.04100
Cu	Cu	0.14280 0.74970 0.89241 0.90600
O 	O 	0.02630 0.87024 0.91115 -0.41000
O 	O 	0.02655 0.83998 0.88153 -0.41500
O 	O 	0.09383 0.77755 0.87888 -0.40900
O 	O 	0.12206 0.77450 0.91050 -0.40600
O 	O 	0.12499 0.84302 0.97397 -0.41200
O 	O 	0.09464 0.87274 0.97398 -0.41200
O 	O 	0.15841 0.77773 0.87291 -0.41200
O 	O 	0.13051 0.77469 0.84111 -0.42200
C 	C 	0.03507 0.85042 0.90100 0.38300
C 	C 	0.05790 0.83837 0.91311 -0.12500
C 	C 	0.06855 0.81702 0.90222 0.07000
H 	H 	0.06100 0.80950 0.88760 0.04200
C 	C 	0.09057 0.80652 0.91280 -0.12300
C 	C 	0.10219 0.81791 0.93363 0.07100
H 	H 	0.11740 0.81090 0.94040 0.04100
C 	C 	0.09170 0.83934 0.94457 -0.12400
C 	C 	0.06919 0.84972 0.93445 0.06800
H 	H 	0.06170 0.86430 0.94200 0.04200
C 	C 	0.10312 0.78445 0.89977 0.37500
C 	C 	0.10500 0.85269 0.96592 0.38300
C 	C 	0.14933 0.78384 0.85188 0.39400
C 	C 	0.16217 0.80554 0.83886 -0.12800
C 	C 	0.15094 0.81613 0.81686 0.07200
H 	H 	0.13630 0.80840 0.80970 0.04100
Cu	Cu	0.14280 0.24970 0.39241 0.90600
O 	O 	0.02630 0.37024 0.41115 -0.41000
O 	O 	0.02655 0.33998 0.38153 -0.41500
O 	O 	0.09383 0.27755 0.37888 -0.40900
O 	O 	0.12206 0.27450 0.41050 -0.40600
O 	O 	0.12499 0.34302 0.47397 -0.41200
O 	O 	0.09464 0.37274 0.47398 -0.41200
O 	O 	0.15841 0.27773 0.37291 -0.41200
O 	O 	0.13051 0.27469 0.34111 -0.42200
C 	C 	0.03507 0.35042 0.40100 0.38300
C 	C 	0.05790 0.33837 0.41311 -0.12500
C 	C 	0.06855 0.31702 0.40222 0.07000
H 	H 	0.06100 0.30950 0.38760 0.04200
C 	C 	0.09057 0.30652 0.41280 -0.12300
C 	C 	0.10219 0.31791 0.43363 0.07100
H 	H 	0.11740 0.31090 0.44040 0.04100
C 	C 	0.09170 0.33934 0.44457 -0.12500
C 	C 	0.06919 0.34972 0.43445 0.06800
H 	H 	0.06170 0.36430 0.44200 0.04200
C 	C 	0.10312 0.28445 0.39977 0.37500
C 	C 	0.10500 0.35269 0.46592 0.38300
C 	C 	0.14933 0.28384 0.35188 0.39400
C 	C 	0.16217 0.30554 0.33886 -0.12800
C 	C 	0.15094 0.31613 0.31686 0.07200
H 	H 	0.13630 0.30840 0.30970 0.04100
Cu	Cu	0.35720 0.25030 0.39241 0.90600
O 	O 	0.47370 0.12976 0.41115 -0.41000
O 	O 	0.47345 0.16002 0.38153 -0.41400
O 	O 	0.40617 0.22245 0.37888 -0.40900
O 	O 	0.37794 0.22550 0.41050 -0.40600
O 	O 	0.37501 0.15698 0.47397 -0.41200
O 	O 	0.40536 0.12726 0.47398 -0.41200
O 	O 	0.34159 0.22227 0.37291 -0.41200
O 	O 	0.36949 0.22531 0.34111 -0.42200
C 	C 	0.46493 0.14958 0.40100 0.38300
C 	C 	0.44210 0.16163 0.41311 -0.12500
C 	C 	0.43145 0.18298 0.40222 0.07000
H 	H 	0.43900 0.19050 0.38760 0.04200
C 	C 	0.40943 0.19348 0.41280 -0.12300
C 	C 	0.39781 0.18209 0.43363 0.07100
H 	H 	0.38260 0.18910 0.44040 0.04100
C 	C 	0.40830 0.16066 0.44457 -0.12400
C 	C 	0.43081 0.15028 0.43445 0.06800
H 	H 	0.43830 0.13570 0.44200 0.04200
C 	C 	0.39688 0.21555 0.39977 0.37500
C 	C 	0.39500 0.14731 0.46592 0.38300
C 	C 	0.35067 0.21616 0.35188 0.39400
C 	C 	0.33783 0.19446 0.33886 -0.12800
C 	C 	0.34906 0.18387 0.31686 0.07200
H 	H 	0.36370 0.19160 0.30970 0.04100
Cu	Cu	0.35720 0.75030 0.89241 0.90600
O 	O 	0.47370 0.62976 0.91115 -0.40900
O 	O 	0.47345 0.66002 0.88153 -0.41400
O 	O 	0.40617 0.72245 0.87888 -0.40900
O 	O 	0.37794 0.72550 0.91050 -0.40600
O 	O 	0.37501 0.65698 0.97397 -0.41200
O 	O 	0.40536 0.62726 0.97398 -0.41200
O 	O 	0.34159 0.72227 0.87291 -0.41200
O 	O 	0.36949 0.72531 0.84111 -0.42200
C 	C 	0.46493 0.64958 0.90100 0.38300
C 	C 	0.44210 0.66163 0.91311 -0.12500
C 	C 	0.43145 0.68298 0.90222 0.07000
H 	H 	0.43900 0.69050 0.88760 0.04200
C 	C 	0.40943 0.69348 0.91280 -0.12300
C 	C 	0.39781 0.68209 0.93363 0.07100
H 	H 	0.38260 0.68910 0.94040 0.04100
C 	C 	0.40830 0.66066 0.94457 -0.12400
C 	C 	0.43081 0.65028 0.93445 0.06800
H 	H 	0.43830 0.63570 0.94200 0.04200
C 	C 	0.39688 0.71555 0.89977 0.37500
C 	C 	0.39500 0.64731 0.96592 0.38300
C 	C 	0.35067 0.71616 0.85188 0.39400
C 	C 	0.33783 0.69446 0.83886 -0.12800
C 	C 	0.34906 0.68387 0.81686 0.07200
H 	H 	0.36370 0.69160 0.80970 0.04100
Cu	Cu	0.85720 0.25030 0.89241 0.90600
O 	O 	0.97370 0.12976 0.91115 -0.40900
O 	O 	0.97345 0.16002 0.88153 -0.41400
O 	O 	0.90617 0.22245 0.87888 -0.40900
O 	O 	0.87794 0.22550 0.91050 -0.40600
O 	O 	0.87501 0.15698 0.97397 -0.41200
O 	O 	0.90536 0.12726 0.97398 -0.41200
O 	O 	0.84159 0.22227 0.87291 -0.41200
O 	O 	0.86949 0.22531 0.84111 -0.42200
C 	C 	0.96493 0.14958 0.90100 0.38300
C 	C 	0.94210 0.16163 0.91311 -0.12400
C 	C 	0.93145 0.18298 0.90222 0.07000
H 	H 	0.93900 0.19050 0.88760 0.04200
C 	C 	0.90943 0.19348 0.91280 -0.12200
C 	C 	0.89781 0.18209 0.93363 0.07100
H 	H 	0.88260 0.18910 0.94040 0.04100
C 	C 	0.90830 0.16066 0.94457 -0.12400
C 	C 	0.93081 0.15028 0.93445 0.06800
H 	H 	0.93830 0.13570 0.94200 0.04200
C 	C 	0.89688 0.21555 0.89977 0.37500
C 	C 	0.89500 0.14731 0.96592 0.38300
C 	C 	0.85067 0.21616 0.85188 0.39400
C 	C 	0.83783 0.19446 0.83886 -0.12800
C 	C 	0.84906 0.18387 0.81686 0.07200
H 	H 	0.86370 0.19160 0.80970 0.04100
Cu	Cu	0.85720 0.75030 0.39241 0.90600
O 	O 	0.97370 0.62976 0.41115 -0.40900
O 	O 	0.97345 0.66002 0.38153 -0.41400
O 	O 	0.90617 0.72245 0.37888 -0.40900
O 	O 	0.87794 0.72550 0.41050 -0.40600
O 	O 	0.87501 0.65698 0.47397 -0.41200
O 	O 	0.90536 0.62726 0.47398 -0.41200
O 	O 	0.84159 0.72227 0.37291 -0.41200
O 	O 	0.86949 0.72531 0.34111 -0.42200
C 	C 	0.96493 0.64958 0.40100 0.38300
C 	C 	0.94210 0.66163 0.41311 -0.12400
C 	C 	0.93145 0.68298 0.40222 0.07000
H 	H 	0.93900 0.69050 0.38760 0.04200
C 	C 	0.90943 0.69348 0.41280 -0.12300
C 	C 	0.89781 0.68209 0.43363 0.07100
H 	H 	0.88260 0.68910 0.44040 0.04100
C 	C 	0.90830 0.66066 0.44457 -0.12400
C 	C 	0.93081 0.65028 0.43445 0.06800
H 	H 	0.93830 0.63570 0.44200 0.04200
C 	C 	0.89688 0.71555 0.39977 0.37500
C 	C 	0.89500 0.64731 0.46592 0.38300
C 	C 	0.85067 0.71616 0.35188 0.39400
C 	C 	0.83783 0.69446 0.33886 -0.12800
C 	C 	0.84906 0.68387 0.31686 0.07200
H 	H 	0.86370 0.69160 0.30970 0.04100
Cu	Cu	0.64280 0.25030 0.60759 0.90600
O 	O 	0.52630 0.12976 0.58885 -0.41000
O 	O 	0.52655 0.16002 0.61847 -0.41400
O 	O 	0.59383 0.22245 0.62112 -0.40900
O 	O 	0.62206 0.22550 0.58950 -0.40600
O 	O 	0.62499 0.15698 0.52603 -0.41200
O 	O 	0.59464 0.12726 0.52602 -0.41200
O 	O 	0.65841 0.22227 0.62709 -0.41200
O 	O 	0.63051 0.22531 0.65889 -0.42200
C 	C 	0.53507 0.14958 0.59900 0.38300
C 	C 	0.55790 0.16163 0.58689 -0.12500
C 	C 	0.56855 0.18298 0.59778 0.07000
H 	H 	0.56100 0.19050 0.61240 0.04200
C 	C 	0.59057 0.19348 0.58720 -0.12300
C 	C 	0.60219 0.18209 0.56637 0.07100
H 	H 	0.61740 0.18910 0.55960 0.04100
C 	C 	0.59170 0.16066 0.55543 -0.12400
C 	C 	0.56919 0.15028 0.56555 0.06800
H 	H 	0.56170 0.13570 0.55800 0.04200
C 	C 	0.60312 0.21555 0.60023 0.37500
C 	C 	0.60500 0.14731 0.53408 0.38300
C 	C 	0.64933 0.21616 0.64812 0.39400
C 	C 	0.66217 0.19446 0.66114 -0.12800
C 	C 	0.65094 0.18387 0.68314 0.07200
H 	H 	0.63630 0.19160 0.69030 0.04100
Cu	Cu	0.64280 0.75030 0.10759 0.90600
O 	O 	0.52630 0.62976 0.08885 -0.41000
O 	O 	0.52655 0.66002 0.11847 -0.41400
O 	O 	0.59383 0.72245 0.12112 -0.40900
O 	O 	0.62206 0.72550 0.08950 -0.40600
O 	O 	0.62499 0.65698 0.02603 -0.41300
O 	O 	0.59464 0.62726 0.02602 -0.41300
O 	O 	0.65841 0.72227 0.12709 -0.41200
O 	O 	0.63051 0.72531 0.15889 -0.42200
C 	C 	0.53507 0.64958 0.09900 0.38300
C 	C 	0.55790 0.66163 0.08689 -0.12500
C 	C 	0.56855 0.68298 0.09778 0.07000
H 	H 	0.56100 0.69050 0.11240 0.04200
C 	C 	0.59057 0.69348 0.08720 -0.12300
C 	C 	0.60219 0.68209 0.06637 0.07100
H 	H 	0.61740 0.68910 0.05960 0.04100
C 	C 	0.59170 0.66066 0.05543 -0.12500
C 	C 	0.56919 0.65028 0.06555 0.06800
H 	H 	0.56170 0.63570 0.05800 0.04200
C 	C 	0.60312 0.71555 0.10023 0.37500
C 	C 	0.60500 0.64731 0.03408 0.38300
C 	C 	0.64933 0.71616 0.14812 0.39400
C 	C 	0.66217 0.69446 0.16114 -0.12800
C 	C 	0.65094 0.68387 0.18314 0.07200
H 	H 	0.63630 0.69160 0.19030 0.04100
Cu	Cu	0.14280 0.25030 0.10759 0.90600
O 	O 	0.02630 0.12976 0.08885 -0.41000
O 	O 	0.02655 0.16002 0.11847 -0.41500
O 	O 	0.09383 0.22245 0.12112 -0.40900
O 	O 	0.12206 0.22550 0.08950 -0.40600
O 	O 	0.12499 0.15698 0.02603 -0.41300
O 	O 	0.09464 0.12726 0.02602 -0.41300
O 	O 	0.15841 0.22227 0.12709 -0.41200
O 	O 	0.13051 0.22531 0.15889 -0.42200
C 	C 	0.03507 0.14958 0.09900 0.38300
C 	C 	0.05790 0.16163 0.08689 -0.12500
C 	C 	0.06855 0.18298 0.09778 0.07100
H 	H 	0.06100 0.19050 0.11240 0.04200
C 	C 	0.09057 0.19348 0.08720 -0.12300
C 	C 	0.10219 0.18209 0.06637 0.07100
H 	H 	0.11740 0.18910 0.05960 0.04100
C 	C 	0.09170 0.16066 0.05543 -0.12500
C 	C 	0.06919 0.15028 0.06555 0.06800
H 	H 	0.06170 0.13570 0.05800 0.04200
C 	C 	0.10312 0.21555 0.10023 0.37500
C 	C 	0.10500 0.14731 0.03408 0.38400
C 	C 	0.14933 0.21616 0.14812 0.39400
C 	C 	0.16217 0.19446 0.16114 -0.12800
C 	C 	0.15094 0.18387 0.18314 0.07200
H 	H 	0.13630 0.19160 0.19030 0.04100
Cu	Cu	0.14280 0.75030 0.60759 0.90600
O 	O 	0.02630 0.62976 0.58885 -0.41000
O 	O 	0.02655 0.66002 0.61847 -0.41500
O 	O 	0.09383 0.72245 0.62112 -0.40900
O 	O 	0.12206 0.72550 0.58950 -0.40600
O 	O 	0.12499 0.65698 0.52603 -0.41200
O 	O 	0.09464 0.62726 0.52602 -0.41200
O 	O 	0.15841 0.72227 0.62709 -0.41200
O 	O 	0.13051 0.72531 0.65889 -0.42200
C 	C 	0.03507 0.64958 0.59900 0.38300
C 	C 	0.05790 0.66163 0.58689 -0.12500
C 	C 	0.06855 0.68298 0.59778 0.07000
H 	H 	0.06100 0.69050 0.61240 0.04200
C 	C 	0.09057 0.69348 0.58720 -0.12300
C 	C 	0.10219 0.68209 0.56637 0.07100
H 	H 	0.11740 0.68910 0.55960 0.04100
C 	C 	0.09170 0.66066 0.55543 -0.12500
C 	C 	0.06919 0.65028 0.56555 0.06800
H 	H 	0.06170 0.63570 0.55800 0.04200
C 	C 	0.10312 0.71555 0.60023 0.37500
C 	C 	0.10500 0.64731 0.53408 0.38300
C 	C 	0.14933 0.71616 0.64812 0.39400
C 	C 	0.16217 0.69446 0.66114 -0.12800
C 	C 	0.15094 0.68387 0.68314 0.07200
H 	H 	0.13630 0.69160 0.69030 0.04100
Cu	Cu	0.35720 0.74970 0.60759 0.90600
O 	O 	0.47370 0.87024 0.58885 -0.40900
O 	O 	0.47345 0.83998 0.61847 -0.41400
O 	O 	0.40617 0.77755 0.62112 -0.40900
O 	O 	0.37794 0.77450 0.58950 -0.40600
O 	O 	0.37501 0.84302 0.52603 -0.41200
O 	O 	0.40536 0.87274 0.52602 -0.41200
O 	O 	0.34159 0.77773 0.62709 -0.41200
O 	O 	0.36949 0.77469 0.65889 -0.42200
C 	C 	0.46493 0.85042 0.59900 0.38300
C 	C 	0.44210 0.83837 0.58689 -0.12500
C 	C 	0.43145 0.81702 0.59778 0.07000
H 	H 	0.43900 0.80950 0.61240 0.04200
C 	C 	0.40943 0.80652 0.58720 -0.12300
C 	C 	0.39781 0.81791 0.56637 0.07100
H 	H 	0.38260 0.81090 0.55960 0.04100
C 	C 	0.40830 0.83934 0.55543 -0.12400
C 	C 	0.43081 0.84972 0.56555 0.06800
H 	H 	0.43830 0.86430 0.55800 0.04200
C 	C 	0.39688 0.78445 0.60023 0.37500
C 	C 	0.39500 0.85269 0.53408 0.38300
C 	C 	0.35067 0.78384 0.64812 0.39400
C 	C 	0.33783 0.80554 0.66114 -0.12800
C 	C 	0.34906 0.81613 0.68314 0.07200
H 	H 	0.36370 0.80840 0.69030 0.04100
Cu	Cu	0.35720 0.24970 0.10759 0.90600
O 	O 	0.47370 0.37024 0.08885 -0.41000
O 	O 	0.47345 0.33998 0.11847 -0.41400
O 	O 	0.40617 0.27755 0.12112 -0.40900
O 	O 	0.37794 0.27450 0.08950 -0.40600
O 	O 	0.37501 0.34302 0.02603 -0.41300
O 	O 	0.40536 0.37274 0.02602 -0.41300
O 	O 	0.34159 0.27773 0.12709 -0.41200
O 	O 	0.36949 0.27469 0.15889 -0.42200
C 	C 	0.46493 0.35042 0.09900 0.38300
C 	C 	0.44210 0.33837 0.08689 -0.12500
C 	C 	0.43145 0.31702 0.09778 0.07000
H 	H 	0.43900 0.30950 0.11240 0.04200
C 	C 	0.40943 0.30652 0.08720 -0.12300
C 	C 	0.39781 0.31791 0.06637 0.07100
H 	H 	0.38260 0.31090 0.05960 0.04100
C 	C 	0.40830 0.33934 0.05543 -0.12500
C 	C 	0.43081 0.34972 0.06555 0.06800
H 	H 	0.43830 0.36430 0.05800 0.04200
C 	C 	0.39688 0.28445 0.10023 0.37500
C 	C 	0.39500 0.35269 0.03408 0.38300
C 	C 	0.35067 0.28384 0.14812 0.39400
C 	C 	0.33783 0.30554 0.16114 -0.12800
C 	C 	0.34906 0.31613 0.18314 0.07200
H 	H 	0.36370 0.30840 0.19030 0.04100
Cu	Cu	0.85720 0.74970 0.10759 0.90600
O 	O 	0.97370 0.87024 0.08885 -0.40900
O 	O 	0.97345 0.83998 0.11847 -0.41400
O 	O 	0.90617 0.77755 0.12112 -0.40900
O 	O 	0.87794 0.77450 0.08950 -0.40600
O 	O 	0.87501 0.84302 0.02603 -0.41300
O 	O 	0.90536 0.87274 0.02602 -0.41300
O 	O 	0.84159 0.77773 0.12709 -0.41200
O 	O 	0.86949 0.77469 0.15889 -0.42200
C 	C 	0.96493 0.85042 0.09900 0.38300
C 	C 	0.94210 0.83837 0.08689 -0.12500
C 	C 	0.93145 0.81702 0.09778 0.07000
H 	H 	0.93900 0.80950 0.11240 0.04200
C 	C 	0.90943 0.80652 0.08720 -0.12300
C 	C 	0.89781 0.81791 0.06637 0.07100
H 	H 	0.88260 0.81090 0.05960 0.04100
C 	C 	0.90830 0.83934 0.05543 -0.12400
C 	C 	0.93081 0.84972 0.06555 0.06800
H 	H 	0.93830 0.86430 0.05800 0.04200
C 	C 	0.89688 0.78445 0.10023 0.37500
C 	C 	0.89500 0.85269 0.03408 0.38300
C 	C 	0.85067 0.78384 0.14812 0.39400
C 	C 	0.83783 0.80554 0.16114 -0.12800
C 	C 	0.84906 0.81613 0.18314 0.07200
H 	H 	0.86370 0.80840 0.19030 0.04100
Cu	Cu	0.85720 0.24970 0.60759 0.90600
O 	O 	0.97370 0.37024 0.58885 -0.40900
O 	O 	0.97345 0.33998 0.61847 -0.41400
O 	O 	0.90617 0.27755 0.62112 -0.40900
O 	O 	0.87794 0.27450 0.58950 -0.40600
O 	O 	0.87501 0.34302 0.52603 -0.41200
O 	O 	0.90536 0.37274 0.52602 -0.41200
O 	O 	0.84159 0.27773 0.62709 -0.41200
O 	O 	0.86949 0.27469 0.65889 -0.42200
C 	C 	0.96493 0.35042 0.59900 0.38300
C 	C 	0.94210 0.33837 0.58689 -0.12400
C 	C 	0.93145 0.31702 0.59778 0.07000
H 	H 	0.93900 0.30950 0.61240 0.04200
C 	C 	0.90943 0.30652 0.58720 -0.12300
C 	C 	0.89781 0.31791 0.56637 0.07100
H 	H 	0.88260 0.31090 0.55960 0.04100
C 	C 	0.90830 0.33934 0.55543 -0.12400
C 	C 	0.93081 0.34972 0.56555 0.06800
H 	H 	0.93830 0.36430 0.55800 0.04200
C 	C 	0.89688 0.28445 0.60023 0.37500
C 	C 	0.89500 0.35269 0.53408 0.38300
C 	C 	0.85067 0.28384 0.64812 0.39400
C 	C 	0.83783 0.30554 0.66114 -0.12800
C 	C 	0.84906 0.31613 0.68314 0.07200
H 	H 	0.86370 0.30840 0.69030 0.04100
Cu	Cu	0.74970 0.60759 0.35720 0.90600
O 	O 	0.87024 0.58885 0.47370 -0.40900
O 	O 	0.83998 0.61847 0.47345 -0.41400
O 	O 	0.77755 0.62112 0.40617 -0.40900
O 	O 	0.77450 0.58950 0.37794 -0.40600
O 	O 	0.84302 0.52603 0.37501 -0.41200
O 	O 	0.87274 0.52602 0.40536 -0.41200
O 	O 	0.77773 0.62709 0.34159 -0.41200
O 	O 	0.77469 0.65889 0.36949 -0.42200
C 	C 	0.85042 0.59900 0.46493 0.38300
C 	C 	0.83837 0.58689 0.44210 -0.12500
C 	C 	0.81702 0.59778 0.43145 0.07000
H 	H 	0.80950 0.61240 0.43900 0.04200
C 	C 	0.80652 0.58720 0.40943 -0.12300
C 	C 	0.81791 0.56637 0.39781 0.07100
H 	H 	0.81090 0.55960 0.38260 0.04100
C 	C 	0.83934 0.55543 0.40830 -0.12400
C 	C 	0.84972 0.56555 0.43081 0.06800
H 	H 	0.86430 0.55800 0.43830 0.04200
C 	C 	0.78445 0.60023 0.39688 0.37500
C 	C 	0.85269 0.53408 0.39500 0.38300
C 	C 	0.78384 0.64812 0.35067 0.39400
C 	C 	0.80554 0.66114 0.33783 -0.12800
C 	C 	0.81613 0.68314 0.34906 0.07200
H 	H 	0.80840 0.69030 0.36370 0.04100
Cu	Cu	0.74970 0.10759 0.85720 0.90600
O 	O 	0.87024 0.08885 0.97370 -0.40900
O 	O 	0.83998 0.11847 0.97345 -0.41400
O 	O 	0.77755 0.12112 0.90617 -0.40900
O 	O 	0.77450 0.08950 0.87794 -0.40600
O 	O 	0.84302 0.02603 0.87501 -0.41300
O 	O 	0.87274 0.02602 0.90536 -0.41300
O 	O 	0.77773 0.12709 0.84159 -0.41200
O 	O 	0.77469 0.15889 0.86949 -0.42200
C 	C 	0.85042 0.09900 0.96493 0.38300
C 	C 	0.83837 0.08689 0.94210 -0.12500
C 	C 	0.81702 0.09778 0.93145 0.07000
H 	H 	0.80950 0.11240 0.93900 0.04200
C 	C 	0.80652 0.08720 0.90943 -0.12300
C 	C 	0.81791 0.06637 0.89781 0.07100
H 	H 	0.81090 0.05960 0.88260 0.04100
C 	C 	0.83934 0.05543 0.90830 -0.12400
C 	C 	0.84972 0.06555 0.93081 0.06800
H 	H 	0.86430 0.05800 0.93830 0.04200
C 	C 	0.78445 0.10023 0.89688 0.37500
C 	C 	0.85269 0.03408 0.89500 0.38300
C 	C 	0.78384 0.14812 0.85067 0.39400
C 	C 	0.80554 0.16114 0.83783 -0.12800
C 	C 	0.81613 0.18314 0.84906 0.07200
H 	H 	0.80840 0.19030 0.86370 0.04100
Cu	Cu	0.24970 0.60759 0.85720 0.90600
O 	O 	0.37024 0.58885 0.97370 -0.40900
O 	O 	0.33998 0.61847 0.97345 -0.41400
O 	O 	0.27755 0.62112 0.90617 -0.40900
O 	O 	0.27450 0.58950 0.87794 -0.40600
O 	O 	0.34302 0.52603 0.87501 -0.41200
O 	O 	0.37274 0.52602 0.90536 -0.41200
O 	O 	0.27773 0.62709 0.84159 -0.41200
O 	O 	0.27469 0.65889 0.86949 -0.42200
C 	C 	0.35042 0.59900 0.96493 0.38300
C 	C 	0.33837 0.58689 0.94210 -0.12400
C 	C 	0.31702 0.59778 0.93145 0.07000
H 	H 	0.30950 0.61240 0.93900 0.04200
C 	C 	0.30652 0.58720 0.90943 -0.12300
C 	C 	0.31791 0.56637 0.89781 0.07100
H 	H 	0.31090 0.55960 0.88260 0.04100
C 	C 	0.33934 0.55543 0.90830 -0.12400
C 	C 	0.34972 0.56555 0.93081 0.06800
H 	H 	0.36430 0.55800 0.93830 0.04200
C 	C 	0.28445 0.60023 0.89688 0.37500
C 	C 	0.35269 0.53408 0.89500 0.38300
C 	C 	0.28384 0.64812 0.85067 0.39400
C 	C 	0.30554 0.66114 0.83783 -0.12800
C 	C 	0.31613 0.68314 0.84906 0.07200
H 	H 	0.30840 0.69030 0.86370 0.04100
Cu	Cu	0.24970 0.10759 0.35720 0.90600
O 	O 	0.37024 0.08885 0.47370 -0.41000
O 	O 	0.33998 0.11847 0.47345 -0.41400
O 	O 	0.27755 0.12112 0.40617 -0.40900
O 	O 	0.27450 0.08950 0.37794 -0.40600
O 	O 	0.34302 0.02603 0.37501 -0.41300
O 	O 	0.37274 0.02602 0.40536 -0.41300
O 	O 	0.27773 0.12709 0.34159 -0.41200
O 	O 	0.27469 0.15889 0.36949 -0.42200
C 	C 	0.35042 0.09900 0.46493 0.38300
C 	C 	0.33837 0.08689 0.44210 -0.12500
C 	C 	0.31702 0.09778 0.43145 0.07000
H 	H 	0.30950 0.11240 0.43900 0.04200
C 	C 	0.30652 0.08720 0.40943 -0.12300
C 	C 	0.31791 0.06637 0.39781 0.07100
H 	H 	0.31090 0.05960 0.38260 0.04100
C 	C 	0.33934 0.05543 0.40830 -0.12500
C 	C 	0.34972 0.06555 0.43081 0.06800
H 	H 	0.36430 0.05800 0.43830 0.04200
C 	C 	0.28445 0.10023 0.39688 0.37500
C 	C 	0.35269 0.03408 0.39500 0.38300
C 	C 	0.28384 0.14812 0.35067 0.39400
C 	C 	0.30554 0.16114 0.33783 -0.12800
C 	C 	0.31613 0.18314 0.34906 0.07200
H 	H 	0.30840 0.19030 0.36370 0.04100
Cu	Cu	0.25030 0.60759 0.64280 0.90600
O 	O 	0.12976 0.58885 0.52630 -0.41000
O 	O 	0.16002 0.61847 0.52655 -0.41400
O 	O 	0.22245 0.62112 0.59383 -0.40900
O 	O 	0.22550 0.58950 0.62206 -0.40600
O 	O 	0.15698 0.52603 0.62499 -0.41200
O 	O 	0.12726 0.52602 0.59464 -0.41200
O 	O 	0.22227 0.62709 0.65841 -0.41200
O 	O 	0.22531 0.65889 0.63051 -0.42200
C 	C 	0.14958 0.59900 0.53507 0.38300
C 	C 	0.16163 0.58689 0.55790 -0.12500
C 	C 	0.18298 0.59778 0.56855 0.07000
H 	H 	0.19050 0.61240 0.56100 0.04200
C 	C 	0.19348 0.58720 0.59057 -0.12300
C 	C 	0.18209 0.56637 0.60219 0.07100
H 	H 	0.18910 0.55960 0.61740 0.04100
C 	C 	0.16066 0.55543 0.59170 -0.12400
C 	C 	0.15028 0.56555 0.56919 0.06800
H 	H 	0.13570 0.55800 0.56170 0.04200
C 	C 	0.21555 0.60023 0.60312 0.37500
C 	C 	0.14731 0.53408 0.60500 0.38300
C 	C 	0.21616 0.64812 0.64933 0.39400
C 	C 	0.19446 0.66114 0.66217 -0.12800
C 	C 	0.18387 0.68314 0.65094 0.07200
H 	H 	0.19160 0.69030 0.63630 0.04100
Cu	Cu	0.25030 0.10759 0.14280 0.90600
O 	O 	0.12976 0.08885 0.02630 -0.41000
O 	O 	0.16002 0.11847 0.02655 -0.41500
O 	O 	0.22245 0.12112 0.09383 -0.40900
O 	O 	0.22550 0.08950 0.12206 -0.40600
O 	O 	0.15698 0.02603 0.12499 -0.41300
O 	O 	0.12726 0.02602 0.09464 -0.41300
O 	O 	0.22227 0.12709 0.15841 -0.41200
O 	O 	0.22531 0.15889 0.13051 -0.42200
C 	C 	0.14958 0.09900 0.03507 0.38300
C 	C 	0.16163 0.08689 0.05790 -0.12500
C 	C 	0.18298 0.09778 0.06855 0.07100
H 	H 	0.19050 0.11240 0.06100 0.04200
C 	C 	0.19348 0.08720 0.09057 -0.12300
C 	C 	0.18209 0.06637 0.10219 0.07100
H 	H 	0.18910 0.05960 0.11740 0.04100
C 	C 	0.16066 0.05543 0.09170 -0.12500
C 	C 	0.15028 0.06555 0.06919 0.06800
H 	H 	0.13570 0.05800 0.06170 0.04200
C 	C 	0.21555 0.10023 0.10312 0.37500
C 	C 	0.14731 0.03408 0.10500 0.38400
C 	C 	0.21616 0.14812 0.14933 0.39400
C 	C 	0.19446 0.16114 0.16217 -0.12800
C 	C 	0.18387 0.18314 0.15094 0.07200
H 	H 	0.19160 0.19030 0.13630 0.04100
Cu	Cu	0.75030 0.60759 0.14280 0.90600
O 	O 	0.62976 0.58885 0.02630 -0.41000
O 	O 	0.66002 0.61847 0.02655 -0.41500
O 	O 	0.72245 0.62112 0.09383 -0.40900
O 	O 	0.72550 0.58950 0.12206 -0.40600
O 	O 	0.65698 0.52603 0.12499 -0.41200
O 	O 	0.62726 0.52602 0.09464 -0.41200
O 	O 	0.72227 0.62709 0.15841 -0.41200
O 	O 	0.72531 0.65889 0.13051 -0.42200
C 	C 	0.64958 0.59900 0.03507 0.38300
C 	C 	0.66163 0.58689 0.05790 -0.12500
C 	C 	0.68298 0.59778 0.06855 0.07000
H 	H 	0.69050 0.61240 0.06100 0.04200
C 	C 	0.69348 0.58720 0.09057 -0.12300
C 	C 	0.68209 0.56637 0.10219 0.07100
H 	H 	0.68910 0.55960 0.11740 0.04100
C 	C 	0.66066 0.55543 0.09170 -0.12500
C 	C 	0.65028 0.56555 0.06919 0.06800
H 	H 	0.63570 0.55800 0.06170 0.04200
C 	C 	0.71555 0.60023 0.10312 0.37500
C 	C 	0.64731 0.53408 0.10500 0.38300
C 	C 	0.71616 0.64812 0.14933 0.39400
C 	C 	0.69446 0.66114 0.16217 -0.12800
C 	C 	0.68387 0.68314 0.15094 0.07200
H 	H 	0.69160 0.69030 0.13630 0.04100
Cu	Cu	0.75030 0.10759 0.64280 0.90600
O 	O 	0.62976 0.08885 0.52630 -0.41000
O 	O 	0.66002 0.11847 0.52655 -0.41400
O 	O 	0.72245 0.12112 0.59383 -0.40900
O 	O 	0.72550 0.08950 0.62206 -0.40600
O 	O 	0.65698 0.02603 0.62499 -0.41300
O 	O 	0.62726 0.02602 0.59464 -0.41300
O 	O 	0.72227 0.12709 0.65841 -0.41200
O 	O 	0.72531 0.15889 0.63051 -0.42200
C 	C 	0.64958 0.09900 0.53507 0.38300
C 	C 	0.66163 0.08689 0.55790 -0.12500
C 	C 	0.68298 0.09778 0.56855 0.07000
H 	H 	0.69050 0.11240 0.56100 0.04200
C 	C 	0.69348 0.08720 0.59057 -0.12300
C 	C 	0.68209 0.06637 0.60219 0.07100
H 	H 	0.68910 0.05960 0.61740 0.04100
C 	C 	0.66066 0.05543 0.59170 -0.12500
C 	C 	0.65028 0.06555 0.56919 0.06800
H 	H 	0.63570 0.05800 0.56170 0.04200
C 	C 	0.71555 0.10023 0.60312 0.37500
C 	C 	0.64731 0.03408 0.60500 0.38300
C 	C 	0.71616 0.14812 0.64933 0.39400
C 	C 	0.69446 0.16114 0.66217 -0.12800
C 	C 	0.68387 0.18314 0.65094 0.07200
H 	H 	0.69160 0.19030 0.63630 0.04100
Cu	Cu	0.25030 0.39241 0.35720 0.90600
O 	O 	0.12976 0.41115 0.47370 -0.41000
O 	O 	0.16002 0.38153 0.47345 -0.41400
O 	O 	0.22245 0.37888 0.40617 -0.40900
O 	O 	0.22550 0.41050 0.37794 -0.40600
O 	O 	0.15698 0.47397 0.37501 -0.41200
O 	O 	0.12726 0.47398 0.40536 -0.41200
O 	O 	0.22227 0.37291 0.34159 -0.41200
O 	O 	0.22531 0.34111 0.36949 -0.42200
C 	C 	0.14958 0.40100 0.46493 0.38300
C 	C 	0.16163 0.41311 0.44210 -0.12500
C 	C 	0.18298 0.40222 0.43145 0.07000
H 	H 	0.19050 0.38760 0.43900 0.04200
C 	C 	0.19348 0.41280 0.40943 -0.12300
C 	C 	0.18209 0.43363 0.39781 0.07100
H 	H 	0.18910 0.44040 0.38260 0.04100
C 	C 	0.16066 0.44457 0.40830 -0.12400
C 	C 	0.15028 0.43445 0.43081 0.06800
H 	H 	0.13570 0.44200 0.43830 0.04200
C 	C 	0.21555 0.39977 0.39688 0.37500
C 	C 	0.14731 0.46592 0.39500 0.38300
C 	C 	0.21616 0.35188 0.35067 0.39400
C 	C 	0.19446 0.33886 0.33783 -0.12800
C 	C 	0.18387 0.31686 0.34906 0.07200
H 	H 	0.19160 0.30970 0.36370 0.04100
Cu	Cu	0.25030 0.89241 0.85720 0.90600
O 	O 	0.12976 0.91115 0.97370 -0.40900
O 	O 	0.16002 0.88153 0.97345 -0.41400
O 	O 	0.22245 0.87888 0.90617 -0.40900
O 	O 	0.22550 0.91050 0.87794 -0.40600
O 	O 	0.15698 0.97397 0.87501 -0.41200
O 	O 	0.12726 0.97398 0.90536 -0.41200
O 	O 	0.22227 0.87291 0.84159 -0.41200
O 	O 	0.22531 0.84111 0.86949 -0.42200
C 	C 	0.14958 0.90100 0.96493 0.38300
C 	C 	0.16163 0.91311 0.94210 -0.12400
C 	C 	0.18298 0.90222 0.93145 0.07000
H 	H 	0.19050 0.88760 0.93900 0.04200
C 	C 	0.19348 0.91280 0.90943 -0.12200
C 	C 	0.18209 0.93363 0.89781 0.07100
H 	H 	0.18910 0.94040 0.88260 0.04100
C 	C 	0.16066 0.94457 0.90830 -0.12400
C 	C 	0.15028 0.93445 0.93081 0.06800
H 	H 	0.13570 0.94200 0.93830 0.04200
C 	C 	0.21555 0.89977 0.89688 0.37500
C 	C 	0.14731 0.96592 0.89500 0.38300
C 	C 	0.21616 0.85188 0.85067 0.39400
C 	C 	0.19446 0.83886 0.83783 -0.12800
C 	C 	0.18387 0.81686 0.84906 0.07200
H 	H 	0.19160 0.80970 0.86370 0.04100
Cu	Cu	0.75030 0.39241 0.85720 0.90600
O 	O 	0.62976 0.41115 0.97370 -0.40900
O 	O 	0.66002 0.38153 0.97345 -0.41400
O 	O 	0.72245 0.37888 0.90617 -0.40900
O 	O 	0.72550 0.41050 0.87794 -0.40600
O 	O 	0.65698 0.47397 0.87501 -0.41200
O 	O 	0.62726 0.47398 0.90536 -0.41200
O 	O 	0.72227 0.37291 0.84159 -0.41200
O 	O 	0.72531 0.34111 0.86949 -0.42200
C 	C 	0.64958 0.40100 0.96493 0.38300
C 	C 	0.66163 0.41311 0.94210 -0.12400
C 	C 	0.68298 0.40222 0.93145 0.07000
H 	H 	0.69050 0.38760 0.93900 0.04200
C 	C 	0.69348 0.41280 0.90943 -0.12300
C 	C 	0.68209 0.43363 0.89781 0.07100
H 	H 	0.68910 0.44040 0.88260 0.04100
C 	C 	0.66066 0.44457 0.90830 -0.12400
C 	C 	0.65028 0.43445 0.93081 0.06800
H 	H 	0.63570 0.44200 0.93830 0.04200
C 	C 	0.71555 0.39977 0.89688 0.37500
C 	C 	0.64731 0.46592 0.89500 0.38300
C 	C 	0.71616 0.35188 0.85067 0.39400
C 	C 	0.69446 0.33886 0.83783 -0.12800
C 	C 	0.68387 0.31686 0.84906 0.07200
H 	H 	0.69160 0.30970 0.86370 0.04100
Cu	Cu	0.75030 0.89241 0.35720 0.90600
O 	O 	0.62976 0.91115 0.47370 -0.40900
O 	O 	0.66002 0.88153 0.47345 -0.41400
O 	O 	0.72245 0.87888 0.40617 -0.40900
O 	O 	0.72550 0.91050 0.37794 -0.40600
O 	O 	0.65698 0.97397 0.37501 -0.41200
O 	O 	0.62726 0.97398 0.40536 -0.41200
O 	O 	0.72227 0.87291 0.34159 -0.41200
O 	O 	0.72531 0.84111 0.36949 -0.42200
C 	C 	0.64958 0.90100 0.46493 0.38300
C 	C 	0.66163 0.91311 0.44210 -0.12500
C 	C 	0.68298 0.90222 0.43145 0.07000
H 	H 	0.69050 0.88760 0.43900 0.04200
C 	C 	0.69348 0.91280 0.40943 -0.12300
C 	C 	0.68209 0.93363 0.39781 0.07100
H 	H 	0.68910 0.94040 0.38260 0.04100
C 	C 	0.66066 0.94457 0.40830 -0.12400
C 	C 	0.65028 0.93445 0.43081 0.06800
H 	H 	0.63570 0.94200 0.43830 0.04200
C 	C 	0.71555 0.89977 0.39688 0.37500
C 	C 	0.64731 0.96592 0.39500 0.38300
C 	C 	0.71616 0.85188 0.35067 0.39400
C 	C 	0.69446 0.83886 0.33783 -0.12800
C 	C 	0.68387 0.81686 0.34906 0.07200
H 	H 	0.69160 0.80970 0.36370 0.04100
Cu	Cu	0.74970 0.39241 0.64280 0.90600
O 	O 	0.87024 0.41115 0.52630 -0.40900
O 	O 	0.83998 0.38153 0.52655 -0.41400
O 	O 	0.77755 0.37888 0.59383 -0.40900
O 	O 	0.77450 0.41050 0.62206 -0.40600
O 	O 	0.84302 0.47397 0.62499 -0.41200
O 	O 	0.87274 0.47398 0.59464 -0.41200
O 	O 	0.77773 0.37291 0.65841 -0.41200
O 	O 	0.77469 0.34111 0.63051 -0.42200
C 	C 	0.85042 0.40100 0.53507 0.38300
C 	C 	0.83837 0.41311 0.55790 -0.12500
C 	C 	0.81702 0.40222 0.56855 0.07000
H 	H 	0.80950 0.38760 0.56100 0.04200
C 	C 	0.80652 0.41280 0.59057 -0.12300
C 	C 	0.81791 0.43363 0.60219 0.07100
H 	H 	0.81090 0.44040 0.61740 0.04100
C 	C 	0.83934 0.44457 0.59170 -0.12400
C 	C 	0.84972 0.43445 0.56919 0.06800
H 	H 	0.86430 0.44200 0.56170 0.04200
C 	C 	0.78445 0.39977 0.60312 0.37500
C 	C 	0.85269 0.46592 0.60500 0.38300
C 	C 	0.78384 0.35188 0.64933 0.39400
C 	C 	0.80554 0.33886 0.66217 -0.12800
C 	C 	0.81613 0.31686 0.65094 0.07200
H 	H 	0.80840 0.30970 0.63630 0.04100
Cu	Cu	0.74970 0.89241 0.14280 0.90600
O 	O 	0.87024 0.91115 0.02630 -0.41000
O 	O 	0.83998 0.88153 0.02655 -0.41500
O 	O 	0.77755 0.87888 0.09383 -0.40900
O 	O 	0.77450 0.91050 0.12206 -0.40600
O 	O 	0.84302 0.97397 0.12499 -0.41200
O 	O 	0.87274 0.97398 0.09464 -0.41200
O 	O 	0.77773 0.87291 0.15841 -0.41200
O 	O 	0.77469 0.84111 0.13051 -0.42200
C 	C 	0.85042 0.90100 0.03507 0.38300
C 	C 	0.83837 0.91311 0.05790 -0.12500
C 	C 	0.81702 0.90222 0.06855 0.07000
H 	H 	0.80950 0.88760 0.06100 0.04200
C 	C 	0.80652 0.91280 0.09057 -0.12300
C 	C 	0.81791 0.93363 0.10219 0.07100
H 	H 	0.81090 0.94040 0.11740 0.04100
C 	C 	0.83934 0.94457 0.09170 -0.12400
C 	C 	0.84972 0.93445 0.06919 0.06800
H 	H 	0.86430 0.94200 0.06170 0.04200
C 	C 	0.78445 0.89977 0.10312 0.37500
C 	C 	0.85269 0.96592 0.10500 0.38300
C 	C 	0.78384 0.85188 0.14933 0.39400
C 	C 	0.80554 0.83886 0.16217 -0.12800
C 	C 	0.81613 0.81686 0.15094 0.07200
H 	H 	0.80840 0.80970 0.13630 0.04100
Cu	Cu	0.24970 0.39241 0.14280 0.90600
O 	O 	0.37024 0.41115 0.02630 -0.41000
O 	O 	0.33998 0.38153 0.02655 -0.41500
O 	O 	0.27755 0.37888 0.09383 -0.40900
O 	O 	0.27450 0.41050 0.12206 -0.40600
O 	O 	0.34302 0.47397 0.12499 -0.41200
O 	O 	0.37274 0.47398 0.09464 -0.41200
O 	O 	0.27773 0.37291 0.15841 -0.41200
O 	O 	0.27469 0.34111 0.13051 -0.42200
C 	C 	0.35042 0.40100 0.03507 0.38300
C 	C 	0.33837 0.41311 0.05790 -0.12500
C 	C 	0.31702 0.40222 0.06855 0.07000
H 	H 	0.30950 0.38760 0.06100 0.04200
C 	C 	0.30652 0.41280 0.09057 -0.12300
C 	C 	0.31791 0.43363 0.10219 0.07100
H 	H 	0.31090 0.44040 0.11740 0.04100
C 	C 	0.33934 0.44457 0.09170 -0.12500
C 	C 	0.34972 0.43445 0.06919 0.06800
H 	H 	0.36430 0.44200 0.06170 0.04200
C 	C 	0.28445 0.39977 0.10312 0.37500
C 	C 	0.35269 0.46592 0.10500 0.38300
C 	C 	0.28384 0.35188 0.14933 0.39400
C 	C 	0.30554 0.33886 0.16217 -0.12800
C 	C 	0.31613 0.31686 0.15094 0.07200
H 	H 	0.30840 0.30970 0.13630 0.04100
Cu	Cu	0.24970 0.89241 0.64280 0.90600
O 	O 	0.37024 0.91115 0.52630 -0.40900
O 	O 	0.33998 0.88153 0.52655 -0.41400
O 	O 	0.27755 0.87888 0.59383 -0.40900
O 	O 	0.27450 0.91050 0.62206 -0.40600
O 	O 	0.34302 0.97397 0.62499 -0.41200
O 	O 	0.37274 0.97398 0.59464 -0.41200
O 	O 	0.27773 0.87291 0.65841 -0.41200
O 	O 	0.27469 0.84111 0.63051 -0.42200
C 	C 	0.35042 0.90100 0.53507 0.38300
C 	C 	0.33837 0.91311 0.55790 -0.12500
C 	C 	0.31702 0.90222 0.56855 0.07000
H 	H 	0.30950 0.88760 0.56100 0.04200
C 	C 	0.30652 0.91280 0.59057 -0.12300
C 	C 	0.31791 0.93363 0.60219 0.07100
H 	H 	0.31090 0.94040 0.61740 0.04100
C 	C 	0.33934 0.94457 0.59170 -0.12400
C 	C 	0.34972 0.93445 0.56919 0.06800
H 	H 	0.36430 0.94200 0.56170 0.04200
C 	C 	0.28445 0.89977 0.60312 0.37500
C 	C 	0.35269 0.96592 0.60500 0.38300
C 	C 	0.28384 0.85188 0.64933 0.39400
C 	C 	0.30554 0.83886 0.66217 -0.12800
C 	C 	0.31613 0.81686 0.65094 0.07200
H 	H 	0.30840 0.80970 0.63630 0.04100
Cu	Cu	0.60759 0.64280 0.25030 0.90600
O 	O 	0.58885 0.52630 0.12976 -0.41000
O 	O 	0.61847 0.52655 0.16002 -0.41400
O 	O 	0.62112 0.59383 0.22245 -0.40900
O 	O 	0.58950 0.62206 0.22550 -0.40600
O 	O 	0.52603 0.62499 0.15698 -0.41200
O 	O 	0.52602 0.59464 0.12726 -0.41200
O 	O 	0.62709 0.65841 0.22227 -0.41200
O 	O 	0.65889 0.63051 0.22531 -0.42200
C 	C 	0.59900 0.53507 0.14958 0.38300
C 	C 	0.58689 0.55790 0.16163 -0.12500
C 	C 	0.59778 0.56855 0.18298 0.07000
H 	H 	0.61240 0.56100 0.19050 0.04200
C 	C 	0.58720 0.59057 0.19348 -0.12300
C 	C 	0.56637 0.60219 0.18209 0.07100
H 	H 	0.55960 0.61740 0.18910 0.04100
C 	C 	0.55543 0.59170 0.16066 -0.12400
C 	C 	0.56555 0.56919 0.15028 0.06800
H 	H 	0.55800 0.56170 0.13570 0.04200
C 	C 	0.60023 0.60312 0.21555 0.37500
C 	C 	0.53408 0.60500 0.14731 0.38300
C 	C 	0.64812 0.64933 0.21616 0.39400
C 	C 	0.66114 0.66217 0.19446 -0.12800
C 	C 	0.68314 0.65094 0.18387 0.07200
H 	H 	0.69030 0.63630 0.19160 0.04100
Cu	Cu	0.60759 0.14280 0.75030 0.90600
O 	O 	0.58885 0.02630 0.62976 -0.41000
O 	O 	0.61847 0.02655 0.66002 -0.41500
O 	O 	0.62112 0.09383 0.72245 -0.40900
O 	O 	0.58950 0.12206 0.72550 -0.40600
O 	O 	0.52603 0.12499 0.65698 -0.41200
O 	O 	0.52602 0.09464 0.62726 -0.41200
O 	O 	0.62709 0.15841 0.72227 -0.41200
O 	O 	0.65889 0.13051 0.72531 -0.42200
C 	C 	0.59900 0.03507 0.64958 0.38300
C 	C 	0.58689 0.05790 0.66163 -0.12500
C 	C 	0.59778 0.06855 0.68298 0.07000
H 	H 	0.61240 0.06100 0.69050 0.04200
C 	C 	0.58720 0.09057 0.69348 -0.12300
C 	C 	0.56637 0.10219 0.68209 0.07100
H 	H 	0.55960 0.11740 0.68910 0.04100
C 	C 	0.55543 0.09170 0.66066 -0.12500
C 	C 	0.56555 0.06919 0.65028 0.06800
H 	H 	0.55800 0.06170 0.63570 0.04200
C 	C 	0.60023 0.10312 0.71555 0.37500
C 	C 	0.53408 0.10500 0.64731 0.38300
C 	C 	0.64812 0.14933 0.71616 0.39400
C 	C 	0.66114 0.16217 0.69446 -0.12800
C 	C 	0.68314 0.15094 0.68387 0.07200
H 	H 	0.69030 0.13630 0.69160 0.04100
Cu	Cu	0.10759 0.64280 0.75030 0.90600
O 	O 	0.08885 0.52630 0.62976 -0.41000
O 	O 	0.11847 0.52655 0.66002 -0.41400
O 	O 	0.12112 0.59383 0.72245 -0.40900
O 	O 	0.08950 0.62206 0.72550 -0.40600
O 	O 	0.02603 0.62499 0.65698 -0.41300
O 	O 	0.02602 0.59464 0.62726 -0.41300
O 	O 	0.12709 0.65841 0.72227 -0.41200
O 	O 	0.15889 0.63051 0.72531 -0.42200
C 	C 	0.09900 0.53507 0.64958 0.38300
C 	C 	0.08689 0.55790 0.66163 -0.12500
C 	C 	0.09778 0.56855 0.68298 0.07000
H 	H 	0.11240 0.56100 0.69050 0.04200
C 	C 	0.08720 0.59057 0.69348 -0.12300
C 	C 	0.06637 0.60219 0.68209 0.07100
H 	H 	0.05960 0.61740 0.68910 0.04100
C 	C 	0.05543 0.59170 0.66066 -0.12500
C 	C 	0.06555 0.56919 0.65028 0.06800
H 	H 	0.05800 0.56170 0.63570 0.04200
C 	C 	0.10023 0.60312 0.71555 0.37500
C 	C 	0.03408 0.60500 0.64731 0.38300
C 	C 	0.14812 0.64933 0.71616 0.39400
C 	C 	0.16114 0.66217 0.69446 -0.12800
C 	C 	0.18314 0.65094 0.68387 0.07200
H 	H 	0.19030 0.63630 0.69160 0.04100
Cu	Cu	0.10759 0.14280 0.25030 0.90600
O 	O 	0.08885 0.02630 0.12976 -0.41000
O 	O 	0.11847 0.02655 0.16002 -0.41500
O 	O 	0.12112 0.09383 0.22245 -0.40900
O 	O 	0.08950 0.12206 0.22550 -0.40600
O 	O 	0.02603 0.12499 0.15698 -0.41300
O 	O 	0.02602 0.09464 0.12726 -0.41300
O 	O 	0.12709 0.15841 0.22227 -0.41200
O 	O 	0.15889 0.13051 0.22531 -0.42200
C 	C 	0.09900 0.03507 0.14958 0.38300
C 	C 	0.08689 0.05790 0.16163 -0.12500
C 	C 	0.09778 0.06855 0.18298 0.07100
H 	H 	0.11240 0.06100 0.19050 0.04200
C 	C 	0.08720 0.09057 0.19348 -0.12300
C 	C 	0.06637 0.10219 0.18209 0.07100
H 	H 	0.05960 0.11740 0.18910 0.04100
C 	C 	0.05543 0.09170 0.16066 -0.12500
C 	C 	0.06555 0.06919 0.15028 0.06800
H 	H 	0.05800 0.06170 0.13570 0.04200
C 	C 	0.10023 0.10312 0.21555 0.37500
C 	C 	0.03408 0.10500 0.14731 0.38400
C 	C 	0.14812 0.14933 0.21616 0.39400
C 	C 	0.16114 0.16217 0.19446 -0.12800
C 	C 	0.18314 0.15094 0.18387 0.07200
H 	H 	0.19030 0.13630 0.19160 0.04100
Cu	Cu	0.60759 0.35720 0.74970 0.90600
O 	O 	0.58885 0.47370 0.87024 -0.40900
O 	O 	0.61847 0.47345 0.83998 -0.41400
O 	O 	0.62112 0.40617 0.77755 -0.40900
O 	O 	0.58950 0.37794 0.77450 -0.40600
O 	O 	0.52603 0.37501 0.84302 -0.41200
O 	O 	0.52602 0.40536 0.87274 -0.41200
O 	O 	0.62709 0.34159 0.77773 -0.41200
O 	O 	0.65889 0.36949 0.77469 -0.42200
C 	C 	0.59900 0.46493 0.85042 0.38300
C 	C 	0.58689 0.44210 0.83837 -0.12500
C 	C 	0.59778 0.43145 0.81702 0.07000
H 	H 	0.61240 0.43900 0.80950 0.04200
C 	C 	0.58720 0.40943 0.80652 -0.12300
C 	C 	0.56637 0.39781 0.81791 0.07100
H 	H 	0.55960 0.38260 0.81090 0.04100
C 	C 	0.55543 0.40830 0.83934 -0.12400
C 	C 	0.56555 0.43081 0.84972 0.06800
H 	H 	0.55800 0.43830 0.86430 0.04200
C 	C 	0.60023 0.39688 0.78445 0.37500
C 	C 	0.53408 0.39500 0.85269 0.38300
C 	C 	0.64812 0.35067 0.78384 0.39400
C 	C 	0.66114 0.33783 0.80554 -0.12800
C 	C 	0.68314 0.34906 0.81613 0.07200
H 	H 	0.69030 0.36370 0.80840 0.04100
Cu	Cu	0.60759 0.85720 0.24970 0.90600
O 	O 	0.58885 0.97370 0.37024 -0.40900
O 	O 	0.61847 0.97345 0.33998 -0.41400
O 	O 	0.62112 0.90617 0.27755 -0.40900
O 	O 	0.58950 0.87794 0.27450 -0.40600
O 	O 	0.52603 0.87501 0.34302 -0.41200
O 	O 	0.52602 0.90536 0.37274 -0.41200
O 	O 	0.62709 0.84159 0.27773 -0.41200
O 	O 	0.65889 0.86949 0.27469 -0.42200
C 	C 	0.59900 0.96493 0.35042 0.38300
C 	C 	0.58689 0.94210 0.33837 -0.12400
C 	C 	0.59778 0.93145 0.31702 0.07000
H 	H 	0.61240 0.93900 0.30950 0.04200
C 	C 	0.58720 0.90943 0.30652 -0.12300
C 	C 	0.56637 0.89781 0.31791 0.07100
H 	H 	0.55960 0.88260 0.31090 0.04100
C 	C 	0.55543 0.90830 0.33934 -0.12400
C 	C 	0.56555 0.93081 0.34972 0.06800
H 	H 	0.55800 0.93830 0.36430 0.04200
C 	C 	0.60023 0.89688 0.28445 0.37500
C 	C 	0.53408 0.89500 0.35269 0.38300
C 	C 	0.64812 0.85067 0.28384 0.39400
C 	C 	0.66114 0.83783 0.30554 -0.12800
C 	C 	0.68314 0.84906 0.31613 0.07200
H 	H 	0.69030 0.86370 0.30840 0.04100
Cu	Cu	0.10759 0.35720 0.24970 0.90600
O 	O 	0.08885 0.47370 0.37024 -0.41000
O 	O 	0.11847 0.47345 0.33998 -0.41400
O 	O 	0.12112 0.40617 0.27755 -0.40900
O 	O 	0.08950 0.37794 0.27450 -0.40600
O 	O 	0.02603 0.37501 0.34302 -0.41300
O 	O 	0.02602 0.40536 0.37274 -0.41300
O 	O 	0.12709 0.34159 0.27773 -0.41200
O 	O 	0.15889 0.36949 0.27469 -0.42200
C 	C 	0.09900 0.46493 0.35042 0.38300
C 	C 	0.08689 0.44210 0.33837 -0.12500
C 	C 	0.09778 0.43145 0.31702 0.07000
H 	H 	0.11240 0.43900 0.30950 0.04200
C 	C 	0.08720 0.40943 0.30652 -0.12300
C 	C 	0.06637 0.39781 0.31791 0.07100
H 	H 	0.05960 0.38260 0.31090 0.04100
C 	C 	0.05543 0.40830 0.33934 -0.12500
C 	C 	0.06555 0.43081 0.34972 0.06800
H 	H 	0.05800 0.43830 0.36430 0.04200
C 	C 	0.10023 0.39688 0.28445 0.37500
C 	C 	0.03408 0.39500 0.35269 0.38300
C 	C 	0.14812 0.35067 0.28384 0.39400
C 	C 	0.16114 0.33783 0.30554 -0.12800
C 	C 	0.18314 0.34906 0.31613 0.07200
H 	H 	0.19030 0.36370 0.30840 0.04100
Cu	Cu	0.10759 0.85720 0.74970 0.90600
O 	O 	0.08885 0.97370 0.87024 -0.40900
O 	O 	0.11847 0.97345 0.83998 -0.41400
O 	O 	0.12112 0.90617 0.77755 -0.40900
O 	O 	0.08950 0.87794 0.77450 -0.40600
O 	O 	0.02603 0.87501 0.84302 -0.41300
O 	O 	0.02602 0.90536 0.87274 -0.41300
O 	O 	0.12709 0.84159 0.77773 -0.41200
O 	O 	0.15889 0.86949 0.77469 -0.42200
C 	C 	0.09900 0.96493 0.85042 0.38300
C 	C 	0.08689 0.94210 0.83837 -0.12500
C 	C 	0.09778 0.93145 0.81702 0.07000
H 	H 	0.11240 0.93900 0.80950 0.04200
C 	C 	0.08720 0.90943 0.80652 -0.12300
C 	C 	0.06637 0.89781 0.81791 0.07100
H 	H 	0.05960 0.88260 0.81090 0.04100
C 	C 	0.05543 0.90830 0.83934 -0.12400
C 	C 	0.06555 0.93081 0.84972 0.06800
H 	H 	0.05800 0.93830 0.86430 0.04200
C 	C 	0.10023 0.89688 0.78445 0.37500
C 	C 	0.03408 0.89500 0.85269 0.38300
C 	C 	0.14812 0.85067 0.78384 0.39400
C 	C 	0.16114 0.83783 0.80554 -0.12800
C 	C 	0.18314 0.84906 0.81613 0.07200
H 	H 	0.19030 0.86370 0.80840 0.04100
Cu	Cu	0.39241 0.64280 0.74970 0.90600
O 	O 	0.41115 0.52630 0.87024 -0.40900
O 	O 	0.38153 0.52655 0.83998 -0.41400
O 	O 	0.37888 0.59383 0.77755 -0.40900
O 	O 	0.41050 0.62206 0.77450 -0.40600
O 	O 	0.47397 0.62499 0.84302 -0.41200
O 	O 	0.47398 0.59464 0.87274 -0.41200
O 	O 	0.37291 0.65841 0.77773 -0.41200
O 	O 	0.34111 0.63051 0.77469 -0.42200
C 	C 	0.40100 0.53507 0.85042 0.38300
C 	C 	0.41311 0.55790 0.83837 -0.12500
C 	C 	0.40222 0.56855 0.81702 0.07000
H 	H 	0.38760 0.56100 0.80950 0.04200
C 	C 	0.41280 0.59057 0.80652 -0.12300
C 	C 	0.43363 0.60219 0.81791 0.07100
H 	H 	0.44040 0.61740 0.81090 0.04100
C 	C 	0.44457 0.59170 0.83934 -0.12400
C 	C 	0.43445 0.56919 0.84972 0.06800
H 	H 	0.44200 0.56170 0.86430 0.04200
C 	C 	0.39977 0.60312 0.78445 0.37500
C 	C 	0.46592 0.60500 0.85269 0.38300
C 	C 	0.35188 0.64933 0.78384 0.39400
C 	C 	0.33886 0.66217 0.80554 -0.12800
C 	C 	0.31686 0.65094 0.81613 0.07200
H 	H 	0.30970 0.63630 0.80840 0.04100
Cu	Cu	0.39241 0.14280 0.24970 0.90600
O 	O 	0.41115 0.02630 0.37024 -0.41000
O 	O 	0.38153 0.02655 0.33998 -0.41500
O 	O 	0.37888 0.09383 0.27755 -0.40900
O 	O 	0.41050 0.12206 0.27450 -0.40600
O 	O 	0.47397 0.12499 0.34302 -0.41200
O 	O 	0.47398 0.09464 0.37274 -0.41200
O 	O 	0.37291 0.15841 0.27773 -0.41200
O 	O 	0.34111 0.13051 0.27469 -0.42200
C 	C 	0.40100 0.03507 0.35042 0.38300
C 	C 	0.41311 0.05790 0.33837 -0.12500
C 	C 	0.40222 0.06855 0.31702 0.07000
H 	H 	0.38760 0.06100 0.30950 0.04200
C 	C 	0.41280 0.09057 0.30652 -0.12300
C 	C 	0.43363 0.10219 0.31791 0.07100
H 	H 	0.44040 0.11740 0.31090 0.04100
C 	C 	0.44457 0.09170 0.33934 -0.12500
C 	C 	0.43445 0.06919 0.34972 0.06800
H 	H 	0.44200 0.06170 0.36430 0.04200
C 	C 	0.39977 0.10312 0.28445 0.37500
C 	C 	0.46592 0.10500 0.35269 0.38300
C 	C 	0.35188 0.14933 0.28384 0.39400
C 	C 	0.33886 0.16217 0.30554 -0.12800
C 	C 	0.31686 0.15094 0.31613 0.07200
H 	H 	0.30970 0.13630 0.30840 0.04100
Cu	Cu	0.89241 0.64280 0.24970 0.90600
O 	O 	0.91115 0.52630 0.37024 -0.40900
O 	O 	0.88153 0.52655 0.33998 -0.41400
O 	O 	0.87888 0.59383 0.27755 -0.40900
O 	O 	0.91050 0.62206 0.27450 -0.40600
O 	O 	0.97397 0.62499 0.34302 -0.41200
O 	O 	0.97398 0.59464 0.37274 -0.41200
O 	O 	0.87291 0.65841 0.27773 -0.41200
O 	O 	0.84111 0.63051 0.27469 -0.42200
C 	C 	0.90100 0.53507 0.35042 0.38300
C 	C 	0.91311 0.55790 0.33837 -0.12500
C 	C 	0.90222 0.56855 0.31702 0.07000
H 	H 	0.88760 0.56100 0.30950 0.04200
C 	C 	0.91280 0.59057 0.30652 -0.12300
C 	C 	0.93363 0.60219 0.31791 0.07100
H 	H 	0.94040 0.61740 0.31090 0.04100
C 	C 	0.94457 0.59170 0.33934 -0.12400
C 	C 	0.93445 0.56919 0.34972 0.06800
H 	H 	0.94200 0.56170 0.36430 0.04200
C 	C 	0.89977 0.60312 0.28445 0.37500
C 	C 	0.96592 0.60500 0.35269 0.38300
C 	C 	0.85188 0.64933 0.28384 0.39400
C 	C 	0.83886 0.66217 0.30554 -0.12800
C 	C 	0.81686 0.65094 0.31613 0.07200
H 	H 	0.80970 0.63630 0.30840 0.04100
Cu	Cu	0.89241 0.14280 0.74970 0.90600
O 	O 	0.91115 0.02630 0.87024 -0.41000
O 	O 	0.88153 0.02655 0.83998 -0.41500
O 	O 	0.87888 0.09383 0.77755 -0.40900
O 	O 	0.91050 0.12206 0.77450 -0.40600
O 	O 	0.97397 0.12499 0.84302 -0.41200
O 	O 	0.97398 0.09464 0.87274 -0.41200
O 	O 	0.87291 0.15841 0.77773 -0.41200
O 	O 	0.84111 0.13051 0.77469 -0.42200
C 	C 	0.90100 0.03507 0.85042 0.38300
C 	C 	0.91311 0.05790 0.83837 -0.12500
C 	C 	0.90222 0.06855 0.81702 0.07000
H 	H 	0.88760 0.06100 0.80950 0.04200
C 	C 	0.91280 0.09057 0.80652 -0.12300
C 	C 	0.93363 0.10219 0.81791 0.07100
H 	H 	0.94040 0.11740 0.81090 0.04100
C 	C 	0.94457 0.09170 0.83934 -0.12400
C 	C 	0.93445 0.06919 0.84972 0.06800
H 	H 	0.94200 0.06170 0.86430 0.04200
C 	C 	0.89977 0.10312 0.78445 0.37500
C 	C 	0.96592 0.10500 0.85269 0.38300
C 	C 	0.85188 0.14933 0.78384 0.39400
C 	C 	0.83886 0.16217 0.80554 -0.12800
C 	C 	0.81686 0.15094 0.81613 0.07200
H 	H 	0.80970 0.13630 0.80840 0.04100
Cu	Cu	0.39241 0.35720 0.25030 0.90600
O 	O 	0.41115 0.47370 0.12976 -0.41000
O 	O 	0.38153 0.47345 0.16002 -0.41400
O 	O 	0.37888 0.40617 0.22245 -0.40900
O 	O 	0.41050 0.37794 0.22550 -0.40600
O 	O 	0.47397 0.37501 0.15698 -0.41200
O 	O 	0.47398 0.40536 0.12726 -0.41200
O 	O 	0.37291 0.34159 0.22227 -0.41200
O 	O 	0.34111 0.36949 0.22531 -0.42200
C 	C 	0.40100 0.46493 0.14958 0.38300
C 	C 	0.41311 0.44210 0.16163 -0.12500
C 	C 	0.40222 0.43145 0.18298 0.07000
H 	H 	0.38760 0.43900 0.19050 0.04200
C 	C 	0.41280 0.40943 0.19348 -0.12300
C 	C 	0.43363 0.39781 0.18209 0.07100
H 	H 	0.44040 0.38260 0.18910 0.04100
C 	C 	0.44457 0.40830 0.16066 -0.12400
C 	C 	0.43445 0.43081 0.15028 0.06800
H 	H 	0.44200 0.43830 0.13570 0.04200
C 	C 	0.39977 0.39688 0.21555 0.37500
C 	C 	0.46592 0.39500 0.14731 0.38300
C 	C 	0.35188 0.35067 0.21616 0.39400
C 	C 	0.33886 0.33783 0.19446 -0.12800
C 	C 	0.31686 0.34906 0.18387 0.07200
H 	H 	0.30970 0.36370 0.19160 0.04100
Cu	Cu	0.39241 0.85720 0.75030 0.90600
O 	O 	0.41115 0.97370 0.62976 -0.40900
O 	O 	0.38153 0.97345 0.66002 -0.41400
O 	O 	0.37888 0.90617 0.72245 -0.40900
O 	O 	0.41050 0.87794 0.72550 -0.40600
O 	O 	0.47397 0.87501 0.65698 -0.41200
O 	O 	0.47398 0.90536 0.62726 -0.41200
O 	O 	0.37291 0.84159 0.72227 -0.41200
O 	O 	0.34111 0.86949 0.72531 -0.42200
C 	C 	0.40100 0.96493 0.64958 0.38300
C 	C 	0.41311 0.94210 0.66163 -0.12400
C 	C 	0.40222 0.93145 0.68298 0.07000
H 	H 	0.38760 0.93900 0.69050 0.04200
C 	C 	0.41280 0.90943 0.69348 -0.12300
C 	C 	0.43363 0.89781 0.68209 0.07100
H 	H 	0.44040 0.88260 0.68910 0.04100
C 	C 	0.44457 0.90830 0.66066 -0.12400
C 	C 	0.43445 0.93081 0.65028 0.06800
H 	H 	0.44200 0.93830 0.63570 0.04200
C 	C 	0.39977 0.89688 0.71555 0.37500
C 	C 	0.46592 0.89500 0.64731 0.38300
C 	C 	0.35188 0.85067 0.71616 0.39400
C 	C 	0.33886 0.83783 0.69446 -0.12800
C 	C 	0.31686 0.84906 0.68387 0.07200
H 	H 	0.30970 0.86370 0.69160 0.04100
Cu	Cu	0.89241 0.35720 0.75030 0.90600
O 	O 	0.91115 0.47370 0.62976 -0.40900
O 	O 	0.88153 0.47345 0.66002 -0.41400
O 	O 	0.87888 0.40617 0.72245 -0.40900
O 	O 	0.91050 0.37794 0.72550 -0.40600
O 	O 	0.97397 0.37501 0.65698 -0.41200
O 	O 	0.97398 0.40536 0.62726 -0.41200
O 	O 	0.87291 0.34159 0.72227 -0.41200
O 	O 	0.84111 0.36949 0.72531 -0.42200
C 	C 	0.90100 0.46493 0.64958 0.38300
C 	C 	0.91311 0.44210 0.66163 -0.12500
C 	C 	0.90222 0.43145 0.68298 0.07000
H 	H 	0.88760 0.43900 0.69050 0.04200
C 	C 	0.91280 0.40943 0.69348 -0.12300
C 	C 	0.93363 0.39781 0.68209 0.07100
H 	H 	0.94040 0.38260 0.68910 0.04100
C 	C 	0.94457 0.40830 0.66066 -0.12400
C 	C 	0.93445 0.43081 0.65028 0.06800
H 	H 	0.94200 0.43830 0.63570 0.04200
C 	C 	0.89977 0.39688 0.71555 0.37500
C 	C 	0.96592 0.39500 0.64731 0.38300
C 	C 	0.85188 0.35067 0.71616 0.39400
C 	C 	0.83886 0.33783 0.69446 -0.12800
C 	C 	0.81686 0.34906 0.68387 0.07200
H 	H 	0.80970 0.36370 0.69160 0.04100
Cu	Cu	0.89241 0.85720 0.25030 0.90600
O 	O 	0.91115 0.97370 0.12976 -0.40900
O 	O 	0.88153 0.97345 0.16002 -0.41400
O 	O 	0.87888 0.90617 0.22245 -0.40900
O 	O 	0.91050 0.87794 0.22550 -0.40600
O 	O 	0.97397 0.87501 0.15698 -0.41200
O 	O 	0.97398 0.90536 0.12726 -0.41200
O 	O 	0.87291 0.84159 0.22227 -0.41200
O 	O 	0.84111 0.86949 0.22531 -0.42200
C 	C 	0.90100 0.96493 0.14958 0.38300
C 	C 	0.91311 0.94210 0.16163 -0.12400
C 	C 	0.90222 0.93145 0.18298 0.07000
H 	H 	0.88760 0.93900 0.19050 0.04200
C 	C 	0.91280 0.90943 0.19348 -0.12200
C 	C 	0.93363 0.89781 0.18209 0.07100
H 	H 	0.94040 0.88260 0.18910 0.04100
C 	C 	0.94457 0.90830 0.16066 -0.12400
C 	C 	0.93445 0.93081 0.15028 0.06800
H 	H 	0.94200 0.93830 0.13570 0.04200
C 	C 	0.89977 0.89688 0.21555 0.37500
C 	C 	0.96592 0.89500 0.14731 0.38300
C 	C 	0.85188 0.85067 0.21616 0.39400
C 	C 	0.83886 0.83783 0.19446 -0.12800
C 	C 	0.81686 0.84906 0.18387 0.07200
H 	H 	0.80970 0.86370 0.19160 0.04100
Cu	Cu	0.75030 0.85720 0.89241 0.90600
O 	O 	0.62976 0.97370 0.91115 -0.40900
O 	O 	0.66002 0.97345 0.88153 -0.41400
O 	O 	0.72245 0.90617 0.87888 -0.40900
O 	O 	0.72550 0.87794 0.91050 -0.40600
O 	O 	0.65698 0.87501 0.97397 -0.41200
O 	O 	0.62726 0.90536 0.97398 -0.41200
O 	O 	0.72227 0.84159 0.87291 -0.41200
O 	O 	0.72531 0.86949 0.84111 -0.42200
C 	C 	0.64958 0.96493 0.90100 0.38300
C 	C 	0.66163 0.94210 0.91311 -0.12400
C 	C 	0.68298 0.93145 0.90222 0.07000
H 	H 	0.69050 0.93900 0.88760 0.04200
C 	C 	0.69348 0.90943 0.91280 -0.12200
C 	C 	0.68209 0.89781 0.93363 0.07100
H 	H 	0.68910 0.88260 0.94040 0.04100
C 	C 	0.66066 0.90830 0.94457 -0.12400
C 	C 	0.65028 0.93081 0.93445 0.06800
H 	H 	0.63570 0.93830 0.94200 0.04200
C 	C 	0.71555 0.89688 0.89977 0.37500
C 	C 	0.64731 0.89500 0.96592 0.38300
C 	C 	0.71616 0.85067 0.85188 0.39400
C 	C 	0.69446 0.83783 0.83886 -0.12800
C 	C 	0.68387 0.84906 0.81686 0.07200
H 	H 	0.69160 0.86370 0.80970 0.04100
Cu	Cu	0.75030 0.35720 0.39241 0.90600
O 	O 	0.62976 0.47370 0.41115 -0.41000
O 	O 	0.66002 0.47345 0.38153 -0.41400
O 	O 	0.72245 0.40617 0.37888 -0.40900
O 	O 	0.72550 0.37794 0.41050 -0.40600
O 	O 	0.65698 0.37501 0.47397 -0.41200
O 	O 	0.62726 0.40536 0.47398 -0.41200
O 	O 	0.72227 0.34159 0.37291 -0.41200
O 	O 	0.72531 0.36949 0.34111 -0.42200
C 	C 	0.64958 0.46493 0.40100 0.38300
C 	C 	0.66163 0.44210 0.41311 -0.12500
C 	C 	0.68298 0.43145 0.40222 0.07000
H 	H 	0.69050 0.43900 0.38760 0.04200
C 	C 	0.69348 0.40943 0.41280 -0.12300
C 	C 	0.68209 0.39781 0.43363 0.07100
H 	H 	0.68910 0.38260 0.44040 0.04100
C 	C 	0.66066 0.40830 0.44457 -0.12400
C 	C 	0.65028 0.43081 0.43445 0.06800
H 	H 	0.63570 0.43830 0.44200 0.04200
C 	C 	0.71555 0.39688 0.39977 0.37500
C 	C 	0.64731 0.39500 0.46592 0.38300
C 	C 	0.71616 0.35067 0.35188 0.39400
C 	C 	0.69446 0.33783 0.33886 -0.12800
C 	C 	0.68387 0.34906 0.31686 0.07200
H 	H 	0.69160 0.36370 0.30970 0.04100
Cu	Cu	0.25030 0.85720 0.39241 0.90600
O 	O 	0.12976 0.97370 0.41115 -0.40900
O 	O 	0.16002 0.97345 0.38153 -0.41400
O 	O 	0.22245 0.90617 0.37888 -0.40900
O 	O 	0.22550 0.87794 0.41050 -0.40600
O 	O 	0.15698 0.87501 0.47397 -0.41200
O 	O 	0.12726 0.90536 0.47398 -0.41200
O 	O 	0.22227 0.84159 0.37291 -0.41200
O 	O 	0.22531 0.86949 0.34111 -0.42200
C 	C 	0.14958 0.96493 0.40100 0.38300
C 	C 	0.16163 0.94210 0.41311 -0.12400
C 	C 	0.18298 0.93145 0.40222 0.07000
H 	H 	0.19050 0.93900 0.38760 0.04200
C 	C 	0.19348 0.90943 0.41280 -0.12300
C 	C 	0.18209 0.89781 0.43363 0.07100
H 	H 	0.18910 0.88260 0.44040 0.04100
C 	C 	0.16066 0.90830 0.44457 -0.12400
C 	C 	0.15028 0.93081 0.43445 0.06800
H 	H 	0.13570 0.93830 0.44200 0.04200
C 	C 	0.21555 0.89688 0.39977 0.37500
C 	C 	0.14731 0.89500 0.46592 0.38300
C 	C 	0.21616 0.85067 0.35188 0.39400
C 	C 	0.19446 0.83783 0.33886 -0.12800
C 	C 	0.18387 0.84906 0.31686 0.07200
H 	H 	0.19160 0.86370 0.30970 0.04100
Cu	Cu	0.25030 0.35720 0.89241 0.90600
O 	O 	0.12976 0.47370 0.91115 -0.40900
O 	O 	0.16002 0.47345 0.88153 -0.41400
O 	O 	0.22245 0.40617 0.87888 -0.40900
O 	O 	0.22550 0.37794 0.91050 -0.40600
O 	O 	0.15698 0.37501 0.97397 -0.41200
O 	O 	0.12726 0.40536 0.97398 -0.41200
O 	O 	0.22227 0.34159 0.87291 -0.41200
O 	O 	0.22531 0.36949 0.84111 -0.42200
C 	C 	0.14958 0.46493 0.90100 0.38300
C 	C 	0.16163 0.44210 0.91311 -0.12500
C 	C 	0.18298 0.43145 0.90222 0.07000
H 	H 	0.19050 0.43900 0.88760 0.04200
C 	C 	0.19348 0.40943 0.91280 -0.12300
C 	C 	0.18209 0.39781 0.93363 0.07100
H 	H 	0.18910 0.38260 0.94040 0.04100
C 	C 	0.16066 0.40830 0.94457 -0.12400
C 	C 	0.15028 0.43081 0.93445 0.06800
H 	H 	0.13570 0.43830 0.94200 0.04200
C 	C 	0.21555 0.39688 0.89977 0.37500
C 	C 	0.14731 0.39500 0.96592 0.38300
C 	C 	0.21616 0.35067 0.85188 0.39400
C 	C 	0.19446 0.33783 0.83886 -0.12800
C 	C 	0.18387 0.34906 0.81686 0.07200
H 	H 	0.19160 0.36370 0.80970 0.04100
Cu	Cu	0.24970 0.14280 0.89241 0.90600
O 	O 	0.37024 0.02630 0.91115 -0.41000
O 	O 	0.33998 0.02655 0.88153 -0.41500
O 	O 	0.27755 0.09383 0.87888 -0.40900
O 	O 	0.27450 0.12206 0.91050 -0.40600
O 	O 	0.34302 0.12499 0.97397 -0.41200
O 	O 	0.37274 0.09464 0.97398 -0.41200
O 	O 	0.27773 0.15841 0.87291 -0.41200
O 	O 	0.27469 0.13051 0.84111 -0.42200
C 	C 	0.35042 0.03507 0.90100 0.38300
C 	C 	0.33837 0.05790 0.91311 -0.12500
C 	C 	0.31702 0.06855 0.90222 0.07000
H 	H 	0.30950 0.06100 0.88760 0.04200
C 	C 	0.30652 0.09057 0.91280 -0.12300
C 	C 	0.31791 0.10219 0.93363 0.07100
H 	H 	0.31090 0.11740 0.94040 0.04100
C 	C 	0.33934 0.09170 0.94457 -0.12400
C 	C 	0.34972 0.06919 0.93445 0.06800
H 	H 	0.36430 0.06170 0.94200 0.04200
C 	C 	0.28445 0.10312 0.89977 0.37500
C 	C 	0.35269 0.10500 0.96592 0.38300
C 	C 	0.28384 0.14933 0.85188 0.39400
C 	C 	0.30554 0.16217 0.83886 -0.12800
C 	C 	0.31613 0.15094 0.81686 0.07200
H 	H 	0.30840 0.13630 0.80970 0.04100
Cu	Cu	0.24970 0.64280 0.39241 0.90600
O 	O 	0.37024 0.52630 0.41115 -0.41000
O 	O 	0.33998 0.52655 0.38153 -0.41400
O 	O 	0.27755 0.59383 0.37888 -0.40900
O 	O 	0.27450 0.62206 0.41050 -0.40600
O 	O 	0.34302 0.62499 0.47397 -0.41200
O 	O 	0.37274 0.59464 0.47398 -0.41200
O 	O 	0.27773 0.65841 0.37291 -0.41200
O 	O 	0.27469 0.63051 0.34111 -0.42200
C 	C 	0.35042 0.53507 0.40100 0.38300
C 	C 	0.33837 0.55790 0.41311 -0.12500
C 	C 	0.31702 0.56855 0.40222 0.07000
H 	H 	0.30950 0.56100 0.38760 0.04200
C 	C 	0.30652 0.59057 0.41280 -0.12300
C 	C 	0.31791 0.60219 0.43363 0.07100
H 	H 	0.31090 0.61740 0.44040 0.04100
C 	C 	0.33934 0.59170 0.44457 -0.12400
C 	C 	0.34972 0.56919 0.43445 0.06800
H 	H 	0.36430 0.56170 0.44200 0.04200
C 	C 	0.28445 0.60312 0.39977 0.37500
C 	C 	0.35269 0.60500 0.46592 0.38300
C 	C 	0.28384 0.64933 0.35188 0.39400
C 	C 	0.30554 0.66217 0.33886 -0.12800
C 	C 	0.31613 0.65094 0.31686 0.07200
H 	H 	0.30840 0.63630 0.30970 0.04100
Cu	Cu	0.74970 0.14280 0.39241 0.90600
O 	O 	0.87024 0.02630 0.41115 -0.41000
O 	O 	0.83998 0.02655 0.38153 -0.41500
O 	O 	0.77755 0.09383 0.37888 -0.40900
O 	O 	0.77450 0.12206 0.41050 -0.40600
O 	O 	0.84302 0.12499 0.47397 -0.41200
O 	O 	0.87274 0.09464 0.47398 -0.41200
O 	O 	0.77773 0.15841 0.37291 -0.41200
O 	O 	0.77469 0.13051 0.34111 -0.42200
C 	C 	0.85042 0.03507 0.40100 0.38300
C 	C 	0.83837 0.05790 0.41311 -0.12500
C 	C 	0.81702 0.06855 0.40222 0.07000
H 	H 	0.80950 0.06100 0.38760 0.04200
C 	C 	0.80652 0.09057 0.41280 -0.12300
C 	C 	0.81791 0.10219 0.43363 0.07100
H 	H 	0.81090 0.11740 0.44040 0.04100
C 	C 	0.83934 0.09170 0.44457 -0.12500
C 	C 	0.84972 0.06919 0.43445 0.06800
H 	H 	0.86430 0.06170 0.44200 0.04200
C 	C 	0.78445 0.10312 0.39977 0.37500
C 	C 	0.85269 0.10500 0.46592 0.38300
C 	C 	0.78384 0.14933 0.35188 0.39400
C 	C 	0.80554 0.16217 0.33886 -0.12800
C 	C 	0.81613 0.15094 0.31686 0.07200
H 	H 	0.80840 0.13630 0.30970 0.04100
Cu	Cu	0.74970 0.64280 0.89241 0.90600
O 	O 	0.87024 0.52630 0.91115 -0.40900
O 	O 	0.83998 0.52655 0.88153 -0.41400
O 	O 	0.77755 0.59383 0.87888 -0.40900
O 	O 	0.77450 0.62206 0.91050 -0.40600
O 	O 	0.84302 0.62499 0.97397 -0.41200
O 	O 	0.87274 0.59464 0.97398 -0.41200
O 	O 	0.77773 0.65841 0.87291 -0.41200
O 	O 	0.77469 0.63051 0.84111 -0.42200
C 	C 	0.85042 0.53507 0.90100 0.38300
C 	C 	0.83837 0.55790 0.91311 -0.12500
C 	C 	0.81702 0.56855 0.90222 0.07000
H 	H 	0.80950 0.56100 0.88760 0.04200
C 	C 	0.80652 0.59057 0.91280 -0.12300
C 	C 	0.81791 0.60219 0.93363 0.07100
H 	H 	0.81090 0.61740 0.94040 0.04100
C 	C 	0.83934 0.59170 0.94457 -0.12400
C 	C 	0.84972 0.56919 0.93445 0.06800
H 	H 	0.86430 0.56170 0.94200 0.04200
C 	C 	0.78445 0.60312 0.89977 0.37500
C 	C 	0.85269 0.60500 0.96592 0.38300
C 	C 	0.78384 0.64933 0.85188 0.39400
C 	C 	0.80554 0.66217 0.83886 -0.12800
C 	C 	0.81613 0.65094 0.81686 0.07200
H 	H 	0.80840 0.63630 0.80970 0.04100
Cu	Cu	0.24970 0.85720 0.10759 0.90600
O 	O 	0.37024 0.97370 0.08885 -0.40900
O 	O 	0.33998 0.97345 0.11847 -0.41400
O 	O 	0.27755 0.90617 0.12112 -0.40900
O 	O 	0.27450 0.87794 0.08950 -0.40600
O 	O 	0.34302 0.87501 0.02603 -0.41300
O 	O 	0.37274 0.90536 0.02602 -0.41300
O 	O 	0.27773 0.84159 0.12709 -0.41200
O 	O 	0.27469 0.86949 0.15889 -0.42200
C 	C 	0.35042 0.96493 0.09900 0.38300
C 	C 	0.33837 0.94210 0.08689 -0.12500
C 	C 	0.31702 0.93145 0.09778 0.07000
H 	H 	0.30950 0.93900 0.11240 0.04200
C 	C 	0.30652 0.90943 0.08720 -0.12300
C 	C 	0.31791 0.89781 0.06637 0.07100
H 	H 	0.31090 0.88260 0.05960 0.04100
C 	C 	0.33934 0.90830 0.05543 -0.12400
C 	C 	0.34972 0.93081 0.06555 0.06800
H 	H 	0.36430 0.93830 0.05800 0.04200
C 	C 	0.28445 0.89688 0.10023 0.37500
C 	C 	0.35269 0.89500 0.03408 0.38300
C 	C 	0.28384 0.85067 0.14812 0.39400
C 	C 	0.30554 0.83783 0.16114 -0.12800
C 	C 	0.31613 0.84906 0.18314 0.07200
H 	H 	0.30840 0.86370 0.19030 0.04100
Cu	Cu	0.24970 0.35720 0.60759 0.90600
O 	O 	0.37024 0.47370 0.58885 -0.41000
O 	O 	0.33998 0.47345 0.61847 -0.41400
O 	O 	0.27755 0.40617 0.62112 -0.40900
O 	O 	0.27450 0.37794 0.58950 -0.40600
O 	O 	0.34302 0.37501 0.52603 -0.41200
O 	O 	0.37274 0.40536 0.52602 -0.41200
O 	O 	0.27773 0.34159 0.62709 -0.41200
O 	O 	0.27469 0.36949 0.65889 -0.42200
C 	C 	0.35042 0.46493 0.59900 0.38300
C 	C 	0.33837 0.44210 0.58689 -0.12500
C 	C 	0.31702 0.43145 0.59778 0.07000
H 	H 	0.30950 0.43900 0.61240 0.04200
C 	C 	0.30652 0.40943 0.58720 -0.12300
C 	C 	0.31791 0.39781 0.56637 0.07100
H 	H 	0.31090 0.38260 0.55960 0.04100
C 	C 	0.33934 0.40830 0.55543 -0.12400
C 	C 	0.34972 0.43081 0.56555 0.06800
H 	H 	0.36430 0.43830 0.55800 0.04200
C 	C 	0.28445 0.39688 0.60023 0.37500
C 	C 	0.35269 0.39500 0.53408 0.38300
C 	C 	0.28384 0.35067 0.64812 0.39400
C 	C 	0.30554 0.33783 0.66114 -0.12800
C 	C 	0.31613 0.34906 0.68314 0.07200
H 	H 	0.30840 0.36370 0.69030 0.04100
Cu	Cu	0.74970 0.85720 0.60759 0.90600
O 	O 	0.87024 0.97370 0.58885 -0.40900
O 	O 	0.83998 0.97345 0.61847 -0.41400
O 	O 	0.77755 0.90617 0.62112 -0.40900
O 	O 	0.77450 0.87794 0.58950 -0.40600
O 	O 	0.84302 0.87501 0.52603 -0.41200
O 	O 	0.87274 0.90536 0.52602 -0.41200
O 	O 	0.77773 0.84159 0.62709 -0.41200
O 	O 	0.77469 0.86949 0.65889 -0.42200
C 	C 	0.85042 0.96493 0.59900 0.38300
C 	C 	0.83837 0.94210 0.58689 -0.12400
C 	C 	0.81702 0.93145 0.59778 0.07000
H 	H 	0.80950 0.93900 0.61240 0.04200
C 	C 	0.80652 0.90943 0.58720 -0.12300
C 	C 	0.81791 0.89781 0.56637 0.07100
H 	H 	0.81090 0.88260 0.55960 0.04100
C 	C 	0.83934 0.90830 0.55543 -0.12400
C 	C 	0.84972 0.93081 0.56555 0.06800
H 	H 	0.86430 0.93830 0.55800 0.04200
C 	C 	0.78445 0.89688 0.60023 0.37500
C 	C 	0.85269 0.89500 0.53408 0.38300
C 	C 	0.78384 0.85067 0.64812 0.39400
C 	C 	0.80554 0.83783 0.66114 -0.12800
C 	C 	0.81613 0.84906 0.68314 0.07200
H 	H 	0.80840 0.86370 0.69030 0.04100
Cu	Cu	0.74970 0.35720 0.10759 0.90600
O 	O 	0.87024 0.47370 0.08885 -0.41000
O 	O 	0.83998 0.47345 0.11847 -0.41400
O 	O 	0.77755 0.40617 0.12112 -0.40900
O 	O 	0.77450 0.37794 0.08950 -0.40600
O 	O 	0.84302 0.37501 0.02603 -0.41300
O 	O 	0.87274 0.40536 0.02602 -0.41300
O 	O 	0.77773 0.34159 0.12709 -0.41200
O 	O 	0.77469 0.36949 0.15889 -0.42200
C 	C 	0.85042 0.46493 0.09900 0.38300
C 	C 	0.83837 0.44210 0.08689 -0.12500
C 	C 	0.81702 0.43145 0.09778 0.07000
H 	H 	0.80950 0.43900 0.11240 0.04200
C 	C 	0.80652 0.40943 0.08720 -0.12300
C 	C 	0.81791 0.39781 0.06637 0.07100
H 	H 	0.81090 0.38260 0.05960 0.04100
C 	C 	0.83934 0.40830 0.05543 -0.12500
C 	C 	0.84972 0.43081 0.06555 0.06800
H 	H 	0.86430 0.43830 0.05800 0.04200
C 	C 	0.78445 0.39688 0.10023 0.37500
C 	C 	0.85269 0.39500 0.03408 0.38300
C 	C 	0.78384 0.35067 0.14812 0.39400
C 	C 	0.80554 0.33783 0.16114 -0.12800
C 	C 	0.81613 0.34906 0.18314 0.07200
H 	H 	0.80840 0.36370 0.19030 0.04100
Cu	Cu	0.75030 0.14280 0.10759 0.90600
O 	O 	0.62976 0.02630 0.08885 -0.41000
O 	O 	0.66002 0.02655 0.11847 -0.41500
O 	O 	0.72245 0.09383 0.12112 -0.40900
O 	O 	0.72550 0.12206 0.08950 -0.40600
O 	O 	0.65698 0.12499 0.02603 -0.41300
O 	O 	0.62726 0.09464 0.02602 -0.41300
O 	O 	0.72227 0.15841 0.12709 -0.41200
O 	O 	0.72531 0.13051 0.15889 -0.42200
C 	C 	0.64958 0.03507 0.09900 0.38300
C 	C 	0.66163 0.05790 0.08689 -0.12500
C 	C 	0.68298 0.06855 0.09778 0.07000
H 	H 	0.69050 0.06100 0.11240 0.04100
C 	C 	0.69348 0.09057 0.08720 -0.12300
C 	C 	0.68209 0.10219 0.06637 0.07100
H 	H 	0.68910 0.11740 0.05960 0.04100
C 	C 	0.66066 0.09170 0.05543 -0.12500
C 	C 	0.65028 0.06919 0.06555 0.06800
H 	H 	0.63570 0.06170 0.05800 0.04200
C 	C 	0.71555 0.10312 0.10023 0.37500
C 	C 	0.64731 0.10500 0.03408 0.38400
C 	C 	0.71616 0.14933 0.14812 0.39400
C 	C 	0.69446 0.16217 0.16114 -0.12800
C 	C 	0.68387 0.15094 0.18314 0.07200
H 	H 	0.69160 0.13630 0.19030 0.04100
Cu	Cu	0.75030 0.64280 0.60759 0.90600
O 	O 	0.62976 0.52630 0.58885 -0.41000
O 	O 	0.66002 0.52655 0.61847 -0.41400
O 	O 	0.72245 0.59383 0.62112 -0.40900
O 	O 	0.72550 0.62206 0.58950 -0.40600
O 	O 	0.65698 0.62499 0.52603 -0.41200
O 	O 	0.62726 0.59464 0.52602 -0.41200
O 	O 	0.72227 0.65841 0.62709 -0.41200
O 	O 	0.72531 0.63051 0.65889 -0.42200
C 	C 	0.64958 0.53507 0.59900 0.38300
C 	C 	0.66163 0.55790 0.58689 -0.12500
C 	C 	0.68298 0.56855 0.59778 0.07000
H 	H 	0.69050 0.56100 0.61240 0.04200
C 	C 	0.69348 0.59057 0.58720 -0.12300
C 	C 	0.68209 0.60219 0.56637 0.07100
H 	H 	0.68910 0.61740 0.55960 0.04100
C 	C 	0.66066 0.59170 0.55543 -0.12400
C 	C 	0.65028 0.56919 0.56555 0.06800
H 	H 	0.63570 0.56170 0.55800 0.04200
C 	C 	0.71555 0.60312 0.60023 0.37500
C 	C 	0.64731 0.60500 0.53408 0.38300
C 	C 	0.71616 0.64933 0.64812 0.39400
C 	C 	0.69446 0.66217 0.66114 -0.12800
C 	C 	0.68387 0.65094 0.68314 0.07200
H 	H 	0.69160 0.63630 0.69030 0.04100
Cu	Cu	0.25030 0.14280 0.60759 0.90600
O 	O 	0.12976 0.02630 0.58885 -0.41000
O 	O 	0.16002 0.02655 0.61847 -0.41500
O 	O 	0.22245 0.09383 0.62112 -0.40900
O 	O 	0.22550 0.12206 0.58950 -0.40600
O 	O 	0.15698 0.12499 0.52603 -0.41200
O 	O 	0.12726 0.09464 0.52602 -0.41200
O 	O 	0.22227 0.15841 0.62709 -0.41200
O 	O 	0.22531 0.13051 0.65889 -0.42200
C 	C 	0.14958 0.03507 0.59900 0.38300
C 	C 	0.16163 0.05790 0.58689 -0.12500
C 	C 	0.18298 0.06855 0.59778 0.07000
H 	H 	0.19050 0.06100 0.61240 0.04200
C 	C 	0.19348 0.09057 0.58720 -0.12300
C 	C 	0.18209 0.10219 0.56637 0.07100
H 	H 	0.18910 0.11740 0.55960 0.04100
C 	C 	0.16066 0.09170 0.55543 -0.12500
C 	C 	0.15028 0.06919 0.56555 0.06800
H 	H 	0.13570 0.06170 0.55800 0.04200
C 	C 	0.21555 0.10312 0.60023 0.37500
C 	C 	0.14731 0.10500 0.53408 0.38300
C 	C 	0.21616 0.14933 0.64812 0.39400
C 	C 	0.19446 0.16217 0.66114 -0.12800
C 	C 	0.18387 0.15094 0.68314 0.07200
H 	H 	0.19160 0.13630 0.69030 0.04100
Cu	Cu	0.25030 0.64280 0.10759 0.90600
O 	O 	0.12976 0.52630 0.08885 -0.41000
O 	O 	0.16002 0.52655 0.11847 -0.41400
O 	O 	0.22245 0.59383 0.12112 -0.40900
O 	O 	0.22550 0.62206 0.08950 -0.40600
O 	O 	0.15698 0.62499 0.02603 -0.41300
O 	O 	0.12726 0.59464 0.02602 -0.41300
O 	O 	0.22227 0.65841 0.12709 -0.41200
O 	O 	0.22531 0.63051 0.15889 -0.42200
C 	C 	0.14958 0.53507 0.09900 0.38300
C 	C 	0.16163 0.55790 0.08689 -0.12500
C 	C 	0.18298 0.56855 0.09778 0.07000
H 	H 	0.19050 0.56100 0.11240 0.04200
C 	C 	0.19348 0.59057 0.08720 -0.12300
C 	C 	0.18209 0.60219 0.06637 0.07100
H 	H 	0.18910 0.61740 0.05960 0.04100
C 	C 	0.16066 0.59170 0.05543 -0.12500
C 	C 	0.15028 0.56919 0.06555 0.06800
H 	H 	0.13570 0.56170 0.05800 0.04200
C 	C 	0.21555 0.60312 0.10023 0.37500
C 	C 	0.14731 0.60500 0.03408 0.38400
C 	C 	0.21616 0.64933 0.14812 0.39400
C 	C 	0.19446 0.66217 0.16114 -0.12800
C 	C 	0.18387 0.65094 0.18314 0.07200
H 	H 	0.19160 0.63630 0.19030 0.04100
Cu	Cu	0.89241 0.75030 0.85720 0.90600
O 	O 	0.91115 0.62976 0.97370 -0.40900
O 	O 	0.88153 0.66002 0.97345 -0.41400
O 	O 	0.87888 0.72245 0.90617 -0.40900
O 	O 	0.91050 0.72550 0.87794 -0.40600
O 	O 	0.97397 0.65698 0.87501 -0.41200
O 	O 	0.97398 0.62726 0.90536 -0.41200
O 	O 	0.87291 0.72227 0.84159 -0.41200
O 	O 	0.84111 0.72531 0.86949 -0.42200
C 	C 	0.90100 0.64958 0.96493 0.38300
C 	C 	0.91311 0.66163 0.94210 -0.12400
C 	C 	0.90222 0.68298 0.93145 0.07000
H 	H 	0.88760 0.69050 0.93900 0.04200
C 	C 	0.91280 0.69348 0.90943 -0.12200
C 	C 	0.93363 0.68209 0.89781 0.07100
H 	H 	0.94040 0.68910 0.88260 0.04100
C 	C 	0.94457 0.66066 0.90830 -0.12400
C 	C 	0.93445 0.65028 0.93081 0.06800
H 	H 	0.94200 0.63570 0.93830 0.04200
C 	C 	0.89977 0.71555 0.89688 0.37500
C 	C 	0.96592 0.64731 0.89500 0.38300
C 	C 	0.85188 0.71616 0.85067 0.39400
C 	C 	0.83886 0.69446 0.83783 -0.12800
C 	C 	0.81686 0.68387 0.84906 0.07200
H 	H 	0.80970 0.69160 0.86370 0.04100
Cu	Cu	0.89241 0.25030 0.35720 0.90600
O 	O 	0.91115 0.12976 0.47370 -0.40900
O 	O 	0.88153 0.16002 0.47345 -0.41400
O 	O 	0.87888 0.22245 0.40617 -0.40900
O 	O 	0.91050 0.22550 0.37794 -0.40600
O 	O 	0.97397 0.15698 0.37501 -0.41200
O 	O 	0.97398 0.12726 0.40536 -0.41200
O 	O 	0.87291 0.22227 0.34159 -0.41200
O 	O 	0.84111 0.22531 0.36949 -0.42200
C 	C 	0.90100 0.14958 0.46493 0.38300
C 	C 	0.91311 0.16163 0.44210 -0.12500
C 	C 	0.90222 0.18298 0.43145 0.07000
H 	H 	0.88760 0.19050 0.43900 0.04200
C 	C 	0.91280 0.19348 0.40943 -0.12300
C 	C 	0.93363 0.18209 0.39781 0.07100
H 	H 	0.94040 0.18910 0.38260 0.04100
C 	C 	0.94457 0.16066 0.40830 -0.12400
C 	C 	0.93445 0.15028 0.43081 0.06800
H 	H 	0.94200 0.13570 0.43830 0.04200
C 	C 	0.89977 0.21555 0.39688 0.37500
C 	C 	0.96592 0.14731 0.39500 0.38300
C 	C 	0.85188 0.21616 0.35067 0.39400
C 	C 	0.83886 0.19446 0.33783 -0.12800
C 	C 	0.81686 0.18387 0.34906 0.07200
H 	H 	0.80970 0.19160 0.36370 0.04100
Cu	Cu	0.39241 0.75030 0.35720 0.90600
O 	O 	0.41115 0.62976 0.47370 -0.41000
O 	O 	0.38153 0.66002 0.47345 -0.41400
O 	O 	0.37888 0.72245 0.40617 -0.40900
O 	O 	0.41050 0.72550 0.37794 -0.40600
O 	O 	0.47397 0.65698 0.37501 -0.41200
O 	O 	0.47398 0.62726 0.40536 -0.41200
O 	O 	0.37291 0.72227 0.34159 -0.41200
O 	O 	0.34111 0.72531 0.36949 -0.42200
C 	C 	0.40100 0.64958 0.46493 0.38300
C 	C 	0.41311 0.66163 0.44210 -0.12500
C 	C 	0.40222 0.68298 0.43145 0.07000
H 	H 	0.38760 0.69050 0.43900 0.04200
C 	C 	0.41280 0.69348 0.40943 -0.12300
C 	C 	0.43363 0.68209 0.39781 0.07100
H 	H 	0.44040 0.68910 0.38260 0.04100
C 	C 	0.44457 0.66066 0.40830 -0.12400
C 	C 	0.43445 0.65028 0.43081 0.06800
H 	H 	0.44200 0.63570 0.43830 0.04200
C 	C 	0.39977 0.71555 0.39688 0.37500
C 	C 	0.46592 0.64731 0.39500 0.38300
C 	C 	0.35188 0.71616 0.35067 0.39400
C 	C 	0.33886 0.69446 0.33783 -0.12800
C 	C 	0.31686 0.68387 0.34906 0.07200
H 	H 	0.30970 0.69160 0.36370 0.04100
Cu	Cu	0.39241 0.25030 0.85720 0.90600
O 	O 	0.41115 0.12976 0.97370 -0.40900
O 	O 	0.38153 0.16002 0.97345 -0.41400
O 	O 	0.37888 0.22245 0.90617 -0.40900
O 	O 	0.41050 0.22550 0.87794 -0.40600
O 	O 	0.47397 0.15698 0.87501 -0.41200
O 	O 	0.47398 0.12726 0.90536 -0.41200
O 	O 	0.37291 0.22227 0.84159 -0.41200
O 	O 	0.34111 0.22531 0.86949 -0.42200
C 	C 	0.40100 0.14958 0.96493 0.38300
C 	C 	0.41311 0.16163 0.94210 -0.12400
C 	C 	0.40222 0.18298 0.93145 0.07000
H 	H 	0.38760 0.19050 0.93900 0.04200
C 	C 	0.41280 0.19348 0.90943 -0.12300
C 	C 	0.43363 0.18209 0.89781 0.07100
H 	H 	0.44040 0.18910 0.88260 0.04100
C 	C 	0.44457 0.16066 0.90830 -0.12400
C 	C 	0.43445 0.15028 0.93081 0.06800
H 	H 	0.44200 0.13570 0.93830 0.04200
C 	C 	0.39977 0.21555 0.89688 0.37500
C 	C 	0.46592 0.14731 0.89500 0.38300
C 	C 	0.35188 0.21616 0.85067 0.39400
C 	C 	0.33886 0.19446 0.83783 -0.12800
C 	C 	0.31686 0.18387 0.84906 0.07200
H 	H 	0.30970 0.19160 0.86370 0.04100
Cu	Cu	0.89241 0.24970 0.14280 0.90600
O 	O 	0.91115 0.37024 0.02630 -0.41000
O 	O 	0.88153 0.33998 0.02655 -0.41500
O 	O 	0.87888 0.27755 0.09383 -0.40900
O 	O 	0.91050 0.27450 0.12206 -0.40600
O 	O 	0.97397 0.34302 0.12499 -0.41200
O 	O 	0.97398 0.37274 0.09464 -0.41200
O 	O 	0.87291 0.27773 0.15841 -0.41200
O 	O 	0.84111 0.27469 0.13051 -0.42200
C 	C 	0.90100 0.35042 0.03507 0.38300
C 	C 	0.91311 0.33837 0.05790 -0.12500
C 	C 	0.90222 0.31702 0.06855 0.07000
H 	H 	0.88760 0.30950 0.06100 0.04200
C 	C 	0.91280 0.30652 0.09057 -0.12300
C 	C 	0.93363 0.31791 0.10219 0.07100
H 	H 	0.94040 0.31090 0.11740 0.04100
C 	C 	0.94457 0.33934 0.09170 -0.12400
C 	C 	0.93445 0.34972 0.06919 0.06800
H 	H 	0.94200 0.36430 0.06170 0.04200
C 	C 	0.89977 0.28445 0.10312 0.37500
C 	C 	0.96592 0.35269 0.10500 0.38300
C 	C 	0.85188 0.28384 0.14933 0.39400
C 	C 	0.83886 0.30554 0.16217 -0.12800
C 	C 	0.81686 0.31613 0.15094 0.07200
H 	H 	0.80970 0.30840 0.13630 0.04100
Cu	Cu	0.89241 0.74970 0.64280 0.90600
O 	O 	0.91115 0.87024 0.52630 -0.40900
O 	O 	0.88153 0.83998 0.52655 -0.41400
O 	O 	0.87888 0.77755 0.59383 -0.40900
O 	O 	0.91050 0.77450 0.62206 -0.40600
O 	O 	0.97397 0.84302 0.62499 -0.41200
O 	O 	0.97398 0.87274 0.59464 -0.41200
O 	O 	0.87291 0.77773 0.65841 -0.41200
O 	O 	0.84111 0.77469 0.63051 -0.42200
C 	C 	0.90100 0.85042 0.53507 0.38300
C 	C 	0.91311 0.83837 0.55790 -0.12500
C 	C 	0.90222 0.81702 0.56855 0.07000
H 	H 	0.88760 0.80950 0.56100 0.04200
C 	C 	0.91280 0.80652 0.59057 -0.12300
C 	C 	0.93363 0.81791 0.60219 0.07100
H 	H 	0.94040 0.81090 0.61740 0.04100
C 	C 	0.94457 0.83934 0.59170 -0.12400
C 	C 	0.93445 0.84972 0.56919 0.06800
H 	H 	0.94200 0.86430 0.56170 0.04200
C 	C 	0.89977 0.78445 0.60312 0.37500
C 	C 	0.96592 0.85269 0.60500 0.38300
C 	C 	0.85188 0.78384 0.64933 0.39400
C 	C 	0.83886 0.80554 0.66217 -0.12800
C 	C 	0.81686 0.81613 0.65094 0.07200
H 	H 	0.80970 0.80840 0.63630 0.04100
Cu	Cu	0.39241 0.24970 0.64280 0.90600
O 	O 	0.41115 0.37024 0.52630 -0.41000
O 	O 	0.38153 0.33998 0.52655 -0.41400
O 	O 	0.37888 0.27755 0.59383 -0.40900
O 	O 	0.41050 0.27450 0.62206 -0.40600
O 	O 	0.47397 0.34302 0.62499 -0.41200
O 	O 	0.47398 0.37274 0.59464 -0.41200
O 	O 	0.37291 0.27773 0.65841 -0.41200
O 	O 	0.34111 0.27469 0.63051 -0.42200
C 	C 	0.40100 0.35042 0.53507 0.38300
C 	C 	0.41311 0.33837 0.55790 -0.12500
C 	C 	0.40222 0.31702 0.56855 0.07000
H 	H 	0.38760 0.30950 0.56100 0.04200
C 	C 	0.41280 0.30652 0.59057 -0.12300
C 	C 	0.43363 0.31791 0.60219 0.07100
H 	H 	0.44040 0.31090 0.61740 0.04100
C 	C 	0.44457 0.33934 0.59170 -0.12400
C 	C 	0.43445 0.34972 0.56919 0.06800
H 	H 	0.44200 0.36430 0.56170 0.04200
C 	C 	0.39977 0.28445 0.60312 0.37500
C 	C 	0.46592 0.35269 0.60500 0.38300
C 	C 	0.35188 0.28384 0.64933 0.39400
C 	C 	0.33886 0.30554 0.66217 -0.12800
C 	C 	0.31686 0.31613 0.65094 0.07200
H 	H 	0.30970 0.30840 0.63630 0.04100
Cu	Cu	0.39241 0.74970 0.14280 0.90600
O 	O 	0.41115 0.87024 0.02630 -0.41000
O 	O 	0.38153 0.83998 0.02655 -0.41500
O 	O 	0.37888 0.77755 0.09383 -0.40900
O 	O 	0.41050 0.77450 0.12206 -0.40600
O 	O 	0.47397 0.84302 0.12499 -0.41200
O 	O 	0.47398 0.87274 0.09464 -0.41200
O 	O 	0.37291 0.77773 0.15841 -0.41200
O 	O 	0.34111 0.77469 0.13051 -0.42200
C 	C 	0.40100 0.85042 0.03507 0.38300
C 	C 	0.41311 0.83837 0.05790 -0.12500
C 	C 	0.40222 0.81702 0.06855 0.07000
H 	H 	0.38760 0.80950 0.06100 0.04200
C 	C 	0.41280 0.80652 0.09057 -0.12300
C 	C 	0.43363 0.81791 0.10219 0.07100
H 	H 	0.44040 0.81090 0.11740 0.04100
C 	C 	0.44457 0.83934 0.09170 -0.12500
C 	C 	0.43445 0.84972 0.06919 0.06800
H 	H 	0.44200 0.86430 0.06170 0.04200
C 	C 	0.39977 0.78445 0.10312 0.37500
C 	C 	0.46592 0.85269 0.10500 0.38300
C 	C 	0.35188 0.78384 0.14933 0.39400
C 	C 	0.33886 0.80554 0.16217 -0.12800
C 	C 	0.31686 0.81613 0.15094 0.07200
H 	H 	0.30970 0.80840 0.13630 0.04100
Cu	Cu	0.10759 0.24970 0.85720 0.90600
O 	O 	0.08885 0.37024 0.97370 -0.40900
O 	O 	0.11847 0.33998 0.97345 -0.41400
O 	O 	0.12112 0.27755 0.90617 -0.40900
O 	O 	0.08950 0.27450 0.87794 -0.40600
O 	O 	0.02603 0.34302 0.87501 -0.41300
O 	O 	0.02602 0.37274 0.90536 -0.41300
O 	O 	0.12709 0.27773 0.84159 -0.41200
O 	O 	0.15889 0.27469 0.86949 -0.42200
C 	C 	0.09900 0.35042 0.96493 0.38300
C 	C 	0.08689 0.33837 0.94210 -0.12500
C 	C 	0.09778 0.31702 0.93145 0.07000
H 	H 	0.11240 0.30950 0.93900 0.04200
C 	C 	0.08720 0.30652 0.90943 -0.12300
C 	C 	0.06637 0.31791 0.89781 0.07100
H 	H 	0.05960 0.31090 0.88260 0.04100
C 	C 	0.05543 0.33934 0.90830 -0.12400
C 	C 	0.06555 0.34972 0.93081 0.06800
H 	H 	0.05800 0.36430 0.93830 0.04200
C 	C 	0.10023 0.28445 0.89688 0.37500
C 	C 	0.03408 0.35269 0.89500 0.38300
C 	C 	0.14812 0.28384 0.85067 0.39400
C 	C 	0.16114 0.30554 0.83783 -0.12800
C 	C 	0.18314 0.31613 0.84906 0.07200
H 	H 	0.19030 0.30840 0.86370 0.04100
Cu	Cu	0.10759 0.74970 0.35720 0.90600
O 	O 	0.08885 0.87024 0.47370 -0.41000
O 	O 	0.11847 0.83998 0.47345 -0.41400
O 	O 	0.12112 0.77755 0.40617 -0.40900
O 	O 	0.08950 0.77450 0.37794 -0.40600
O 	O 	0.02603 0.84302 0.37501 -0.41300
O 	O 	0.02602 0.87274 0.40536 -0.41300
O 	O 	0.12709 0.77773 0.34159 -0.41200
O 	O 	0.15889 0.77469 0.36949 -0.42200
C 	C 	0.09900 0.85042 0.46493 0.38300
C 	C 	0.08689 0.83837 0.44210 -0.12500
C 	C 	0.09778 0.81702 0.43145 0.07000
H 	H 	0.11240 0.80950 0.43900 0.04200
C 	C 	0.08720 0.80652 0.40943 -0.12300
C 	C 	0.06637 0.81791 0.39781 0.07100
H 	H 	0.05960 0.81090 0.38260 0.04100
C 	C 	0.05543 0.83934 0.40830 -0.12500
C 	C 	0.06555 0.84972 0.43081 0.06800
H 	H 	0.05800 0.86430 0.43830 0.04200
C 	C 	0.10023 0.78445 0.39688 0.37500
C 	C 	0.03408 0.85269 0.39500 0.38300
C 	C 	0.14812 0.78384 0.35067 0.39400
C 	C 	0.16114 0.80554 0.33783 -0.12800
C 	C 	0.18314 0.81613 0.34906 0.07200
H 	H 	0.19030 0.80840 0.36370 0.04100
Cu	Cu	0.60759 0.24970 0.35720 0.90600
O 	O 	0.58885 0.37024 0.47370 -0.41000
O 	O 	0.61847 0.33998 0.47345 -0.41400
O 	O 	0.62112 0.27755 0.40617 -0.40900
O 	O 	0.58950 0.27450 0.37794 -0.40600
O 	O 	0.52603 0.34302 0.37501 -0.41200
O 	O 	0.52602 0.37274 0.40536 -0.41200
O 	O 	0.62709 0.27773 0.34159 -0.41200
O 	O 	0.65889 0.27469 0.36949 -0.42200
C 	C 	0.59900 0.35042 0.46493 0.38300
C 	C 	0.58689 0.33837 0.44210 -0.12500
C 	C 	0.59778 0.31702 0.43145 0.07000
H 	H 	0.61240 0.30950 0.43900 0.04200
C 	C 	0.58720 0.30652 0.40943 -0.12300
C 	C 	0.56637 0.31791 0.39781 0.07100
H 	H 	0.55960 0.31090 0.38260 0.04100
C 	C 	0.55543 0.33934 0.40830 -0.12400
C 	C 	0.56555 0.34972 0.43081 0.06800
H 	H 	0.55800 0.36430 0.43830 0.04200
C 	C 	0.60023 0.28445 0.39688 0.37500
C 	C 	0.53408 0.35269 0.39500 0.38300
C 	C 	0.64812 0.28384 0.35067 0.39400
C 	C 	0.66114 0.30554 0.33783 -0.12800
C 	C 	0.68314 0.31613 0.34906 0.07200
H 	H 	0.69030 0.30840 0.36370 0.04100
Cu	Cu	0.60759 0.74970 0.85720 0.90600
O 	O 	0.58885 0.87024 0.97370 -0.40900
O 	O 	0.61847 0.83998 0.97345 -0.41400
O 	O 	0.62112 0.77755 0.90617 -0.40900
O 	O 	0.58950 0.77450 0.87794 -0.40600
O 	O 	0.52603 0.84302 0.87501 -0.41200
O 	O 	0.52602 0.87274 0.90536 -0.41200
O 	O 	0.62709 0.77773 0.84159 -0.41200
O 	O 	0.65889 0.77469 0.86949 -0.42200
C 	C 	0.59900 0.85042 0.96493 0.38300
C 	C 	0.58689 0.83837 0.94210 -0.12400
C 	C 	0.59778 0.81702 0.93145 0.07000
H 	H 	0.61240 0.80950 0.93900 0.04200
C 	C 	0.58720 0.80652 0.90943 -0.12300
C 	C 	0.56637 0.81791 0.89781 0.07100
H 	H 	0.55960 0.81090 0.88260 0.04100
C 	C 	0.55543 0.83934 0.90830 -0.12400
C 	C 	0.56555 0.84972 0.93081 0.06800
H 	H 	0.55800 0.86430 0.93830 0.04200
C 	C 	0.60023 0.78445 0.89688 0.37500
C 	C 	0.53408 0.85269 0.89500 0.38300
C 	C 	0.64812 0.78384 0.85067 0.39400
C 	C 	0.66114 0.80554 0.83783 -0.12800
C 	C 	0.68314 0.81613 0.84906 0.07200
H 	H 	0.69030 0.80840 0.86370 0.04100
Cu	Cu	0.10759 0.75030 0.14280 0.90600
O 	O 	0.08885 0.62976 0.02630 -0.41000
O 	O 	0.11847 0.66002 0.02655 -0.41500
O 	O 	0.12112 0.72245 0.09383 -0.40900
O 	O 	0.08950 0.72550 0.12206 -0.40600
O 	O 	0.02603 0.65698 0.12499 -0.41300
O 	O 	0.02602 0.62726 0.09464 -0.41300
O 	O 	0.12709 0.72227 0.15841 -0.41200
O 	O 	0.15889 0.72531 0.13051 -0.42200
C 	C 	0.09900 0.64958 0.03507 0.38300
C 	C 	0.08689 0.66163 0.05790 -0.12500
C 	C 	0.09778 0.68298 0.06855 0.07000
H 	H 	0.11240 0.69050 0.06100 0.04100
C 	C 	0.08720 0.69348 0.09057 -0.12300
C 	C 	0.06637 0.68209 0.10219 0.07100
H 	H 	0.05960 0.68910 0.11740 0.04100
C 	C 	0.05543 0.66066 0.09170 -0.12500
C 	C 	0.06555 0.65028 0.06919 0.06800
H 	H 	0.05800 0.63570 0.06170 0.04200
C 	C 	0.10023 0.71555 0.10312 0.37500
C 	C 	0.03408 0.64731 0.10500 0.38400
C 	C 	0.14812 0.71616 0.14933 0.39400
C 	C 	0.16114 0.69446 0.16217 -0.12800
C 	C 	0.18314 0.68387 0.15094 0.07200
H 	H 	0.19030 0.69160 0.13630 0.04100
Cu	Cu	0.10759 0.25030 0.64280 0.90600
O 	O 	0.08885 0.12976 0.52630 -0.41000
O 	O 	0.11847 0.16002 0.52655 -0.41400
O 	O 	0.12112 0.22245 0.59383 -0.40900
O 	O 	0.08950 0.22550 0.62206 -0.40600
O 	O 	0.02603 0.15698 0.62499 -0.41300
O 	O 	0.02602 0.12726 0.59464 -0.41300
O 	O 	0.12709 0.22227 0.65841 -0.41200
O 	O 	0.15889 0.22531 0.63051 -0.42200
C 	C 	0.09900 0.14958 0.53507 0.38300
C 	C 	0.08689 0.16163 0.55790 -0.12500
C 	C 	0.09778 0.18298 0.56855 0.07000
H 	H 	0.11240 0.19050 0.56100 0.04200
C 	C 	0.08720 0.19348 0.59057 -0.12300
C 	C 	0.06637 0.18209 0.60219 0.07100
H 	H 	0.05960 0.18910 0.61740 0.04100
C 	C 	0.05543 0.16066 0.59170 -0.12500
C 	C 	0.06555 0.15028 0.56919 0.06800
H 	H 	0.05800 0.13570 0.56170 0.04200
C 	C 	0.10023 0.21555 0.60312 0.37500
C 	C 	0.03408 0.14731 0.60500 0.38400
C 	C 	0.14812 0.21616 0.64933 0.39400
C 	C 	0.16114 0.19446 0.66217 -0.12800
C 	C 	0.18314 0.18387 0.65094 0.07200
H 	H 	0.19030 0.19160 0.63630 0.04100
Cu	Cu	0.60759 0.75030 0.64280 0.90600
O 	O 	0.58885 0.62976 0.52630 -0.41000
O 	O 	0.61847 0.66002 0.52655 -0.41400
O 	O 	0.62112 0.72245 0.59383 -0.40900
O 	O 	0.58950 0.72550 0.62206 -0.40600
O 	O 	0.52603 0.65698 0.62499 -0.41200
O 	O 	0.52602 0.62726 0.59464 -0.41200
O 	O 	0.62709 0.72227 0.65841 -0.41200
O 	O 	0.65889 0.72531 0.63051 -0.42200
C 	C 	0.59900 0.64958 0.53507 0.38300
C 	C 	0.58689 0.66163 0.55790 -0.12500
C 	C 	0.59778 0.68298 0.56855 0.07000
H 	H 	0.61240 0.69050 0.56100 0.04200
C 	C 	0.58720 0.69348 0.59057 -0.12300
C 	C 	0.56637 0.68209 0.60219 0.07100
H 	H 	0.55960 0.68910 0.61740 0.04100
C 	C 	0.55543 0.66066 0.59170 -0.12400
C 	C 	0.56555 0.65028 0.56919 0.06800
H 	H 	0.55800 0.63570 0.56170 0.04200
C 	C 	0.60023 0.71555 0.60312 0.37500
C 	C 	0.53408 0.64731 0.60500 0.38300
C 	C 	0.64812 0.71616 0.64933 0.39400
C 	C 	0.66114 0.69446 0.66217 -0.12800
C 	C 	0.68314 0.68387 0.65094 0.07200
H 	H 	0.69030 0.69160 0.63630 0.04100
Cu	Cu	0.60759 0.25030 0.14280 0.90600
O 	O 	0.58885 0.12976 0.02630 -0.41000
O 	O 	0.61847 0.16002 0.02655 -0.41500
O 	O 	0.62112 0.22245 0.09383 -0.40900
O 	O 	0.58950 0.22550 0.12206 -0.40600
O 	O 	0.52603 0.15698 0.12499 -0.41200
O 	O 	0.52602 0.12726 0.09464 -0.41200
O 	O 	0.62709 0.22227 0.15841 -0.41200
O 	O 	0.65889 0.22531 0.13051 -0.42200
C 	C 	0.59900 0.14958 0.03507 0.38300
C 	C 	0.58689 0.16163 0.05790 -0.12500
C 	C 	0.59778 0.18298 0.06855 0.07000
H 	H 	0.61240 0.19050 0.06100 0.04200
C 	C 	0.58720 0.19348 0.09057 -0.12300
C 	C 	0.56637 0.18209 0.10219 0.07100
H 	H 	0.55960 0.18910 0.11740 0.04100
C 	C 	0.55543 0.16066 0.09170 -0.12500
C 	C 	0.56555 0.15028 0.06919 0.06800
H 	H 	0.55800 0.13570 0.06170 0.04200
C 	C 	0.60023 0.21555 0.10312 0.37500
C 	C 	0.53408 0.14731 0.10500 0.38300
C 	C 	0.64812 0.21616 0.14933 0.39400
C 	C 	0.66114 0.19446 0.16217 -0.12800
C 	C 	0.68314 0.18387 0.15094 0.07200
H 	H 	0.69030 0.19160 0.13630 0.04100
Cu	Cu	0.85720 0.89241 0.75030 0.90600
O 	O 	0.97370 0.91115 0.62976 -0.40900
O 	O 	0.97345 0.88153 0.66002 -0.41400
O 	O 	0.90617 0.87888 0.72245 -0.40900
O 	O 	0.87794 0.91050 0.72550 -0.40600
O 	O 	0.87501 0.97397 0.65698 -0.41200
O 	O 	0.90536 0.97398 0.62726 -0.41200
O 	O 	0.84159 0.87291 0.72227 -0.41200
O 	O 	0.86949 0.84111 0.72531 -0.42200
C 	C 	0.96493 0.90100 0.64958 0.38300
C 	C 	0.94210 0.91311 0.66163 -0.12400
C 	C 	0.93145 0.90222 0.68298 0.07000
H 	H 	0.93900 0.88760 0.69050 0.04200
C 	C 	0.90943 0.91280 0.69348 -0.12200
C 	C 	0.89781 0.93363 0.68209 0.07100
H 	H 	0.88260 0.94040 0.68910 0.04100
C 	C 	0.90830 0.94457 0.66066 -0.12400
C 	C 	0.93081 0.93445 0.65028 0.06800
H 	H 	0.93830 0.94200 0.63570 0.04200
C 	C 	0.89688 0.89977 0.71555 0.37500
C 	C 	0.89500 0.96592 0.64731 0.38300
C 	C 	0.85067 0.85188 0.71616 0.39400
C 	C 	0.83783 0.83886 0.69446 -0.12800
C 	C 	0.84906 0.81686 0.68387 0.07200
H 	H 	0.86370 0.80970 0.69160 0.04100
Cu	Cu	0.85720 0.39241 0.25030 0.90600
O 	O 	0.97370 0.41115 0.12976 -0.40900
O 	O 	0.97345 0.38153 0.16002 -0.41400
O 	O 	0.90617 0.37888 0.22245 -0.40900
O 	O 	0.87794 0.41050 0.22550 -0.40600
O 	O 	0.87501 0.47397 0.15698 -0.41200
O 	O 	0.90536 0.47398 0.12726 -0.41200
O 	O 	0.84159 0.37291 0.22227 -0.41200
O 	O 	0.86949 0.34111 0.22531 -0.42200
C 	C 	0.96493 0.40100 0.14958 0.38300
C 	C 	0.94210 0.41311 0.16163 -0.12400
C 	C 	0.93145 0.40222 0.18298 0.07000
H 	H 	0.93900 0.38760 0.19050 0.04200
C 	C 	0.90943 0.41280 0.19348 -0.12300
C 	C 	0.89781 0.43363 0.18209 0.07100
H 	H 	0.88260 0.44040 0.18910 0.04100
C 	C 	0.90830 0.44457 0.16066 -0.12400
C 	C 	0.93081 0.43445 0.15028 0.06800
H 	H 	0.93830 0.44200 0.13570 0.04200
C 	C 	0.89688 0.39977 0.21555 0.37500
C 	C 	0.89500 0.46592 0.14731 0.38300
C 	C 	0.85067 0.35188 0.21616 0.39400
C 	C 	0.83783 0.33886 0.19446 -0.12800
C 	C 	0.84906 0.31686 0.18387 0.07200
H 	H 	0.86370 0.30970 0.19160 0.04100
Cu	Cu	0.35720 0.89241 0.25030 0.90600
O 	O 	0.47370 0.91115 0.12976 -0.40900
O 	O 	0.47345 0.88153 0.16002 -0.41400
O 	O 	0.40617 0.87888 0.22245 -0.40900
O 	O 	0.37794 0.91050 0.22550 -0.40600
O 	O 	0.37501 0.97397 0.15698 -0.41200
O 	O 	0.40536 0.97398 0.12726 -0.41200
O 	O 	0.34159 0.87291 0.22227 -0.41200
O 	O 	0.36949 0.84111 0.22531 -0.42200
C 	C 	0.46493 0.90100 0.14958 0.38300
C 	C 	0.44210 0.91311 0.16163 -0.12500
C 	C 	0.43145 0.90222 0.18298 0.07000
H 	H 	0.43900 0.88760 0.19050 0.04200
C 	C 	0.40943 0.91280 0.19348 -0.12300
C 	C 	0.39781 0.93363 0.18209 0.07100
H 	H 	0.38260 0.94040 0.18910 0.04100
C 	C 	0.40830 0.94457 0.16066 -0.12400
C 	C 	0.43081 0.93445 0.15028 0.06800
H 	H 	0.43830 0.94200 0.13570 0.04200
C 	C 	0.39688 0.89977 0.21555 0.37500
C 	C 	0.39500 0.96592 0.14731 0.38300
C 	C 	0.35067 0.85188 0.21616 0.39400
C 	C 	0.33783 0.83886 0.19446 -0.12800
C 	C 	0.34906 0.81686 0.18387 0.07200
H 	H 	0.36370 0.80970 0.19160 0.04100
Cu	Cu	0.35720 0.39241 0.75030 0.90600
O 	O 	0.47370 0.41115 0.62976 -0.41000
O 	O 	0.47345 0.38153 0.66002 -0.41400
O 	O 	0.40617 0.37888 0.72245 -0.40900
O 	O 	0.37794 0.41050 0.72550 -0.40600
O 	O 	0.37501 0.47397 0.65698 -0.41200
O 	O 	0.40536 0.47398 0.62726 -0.41200
O 	O 	0.34159 0.37291 0.72227 -0.41200
O 	O 	0.36949 0.34111 0.72531 -0.42200
C 	C 	0.46493 0.40100 0.64958 0.38300
C 	C 	0.44210 0.41311 0.66163 -0.12500
C 	C 	0.43145 0.40222 0.68298 0.07000
H 	H 	0.43900 0.38760 0.69050 0.04200
C 	C 	0.40943 0.41280 0.69348 -0.12300
C 	C 	0.39781 0.43363 0.68209 0.07100
H 	H 	0.38260 0.44040 0.68910 0.04100
C 	C 	0.40830 0.44457 0.66066 -0.12400
C 	C 	0.43081 0.43445 0.65028 0.06800
H 	H 	0.43830 0.44200 0.63570 0.04200
C 	C 	0.39688 0.39977 0.71555 0.37500
C 	C 	0.39500 0.46592 0.64731 0.38300
C 	C 	0.35067 0.35188 0.71616 0.39400
C 	C 	0.33783 0.33886 0.69446 -0.12800
C 	C 	0.34906 0.31686 0.68387 0.07200
H 	H 	0.36370 0.30970 0.69160 0.04100
Cu	Cu	0.14280 0.89241 0.24970 0.90600
O 	O 	0.02630 0.91115 0.37024 -0.41000
O 	O 	0.02655 0.88153 0.33998 -0.41500
O 	O 	0.09383 0.87888 0.27755 -0.40900
O 	O 	0.12206 0.91050 0.27450 -0.40600
O 	O 	0.12499 0.97397 0.34302 -0.41200
O 	O 	0.09464 0.97398 0.37274 -0.41200
O 	O 	0.15841 0.87291 0.27773 -0.41200
O 	O 	0.13051 0.84111 0.27469 -0.42200
C 	C 	0.03507 0.90100 0.35042 0.38300
C 	C 	0.05790 0.91311 0.33837 -0.12500
C 	C 	0.06855 0.90222 0.31702 0.07000
H 	H 	0.06100 0.88760 0.30950 0.04200
C 	C 	0.09057 0.91280 0.30652 -0.12300
C 	C 	0.10219 0.93363 0.31791 0.07100
H 	H 	0.11740 0.94040 0.31090 0.04100
C 	C 	0.09170 0.94457 0.33934 -0.12400
C 	C 	0.06919 0.93445 0.34972 0.06800
H 	H 	0.06170 0.94200 0.36430 0.04200
C 	C 	0.10312 0.89977 0.28445 0.37500
C 	C 	0.10500 0.96592 0.35269 0.38300
C 	C 	0.14933 0.85188 0.28384 0.39400
C 	C 	0.16217 0.83886 0.30554 -0.12800
C 	C 	0.15094 0.81686 0.31613 0.07200
H 	H 	0.13630 0.80970 0.30840 0.04100
Cu	Cu	0.14280 0.39241 0.74970 0.90600
O 	O 	0.02630 0.41115 0.87024 -0.41000
O 	O 	0.02655 0.38153 0.83998 -0.41500
O 	O 	0.09383 0.37888 0.77755 -0.40900
O 	O 	0.12206 0.41050 0.77450 -0.40600
O 	O 	0.12499 0.47397 0.84302 -0.41200
O 	O 	0.09464 0.47398 0.87274 -0.41200
O 	O 	0.15841 0.37291 0.77773 -0.41200
O 	O 	0.13051 0.34111 0.77469 -0.42200
C 	C 	0.03507 0.40100 0.85042 0.38300
C 	C 	0.05790 0.41311 0.83837 -0.12500
C 	C 	0.06855 0.40222 0.81702 0.07000
H 	H 	0.06100 0.38760 0.80950 0.04200
C 	C 	0.09057 0.41280 0.80652 -0.12300
C 	C 	0.10219 0.43363 0.81791 0.07100
H 	H 	0.11740 0.44040 0.81090 0.04100
C 	C 	0.09170 0.44457 0.83934 -0.12500
C 	C 	0.06919 0.43445 0.84972 0.06800
H 	H 	0.06170 0.44200 0.86430 0.04200
C 	C 	0.10312 0.39977 0.78445 0.37500
C 	C 	0.10500 0.46592 0.85269 0.38300
C 	C 	0.14933 0.35188 0.78384 0.39400
C 	C 	0.16217 0.33886 0.80554 -0.12800
C 	C 	0.15094 0.31686 0.81613 0.07200
H 	H 	0.13630 0.30970 0.80840 0.04100
Cu	Cu	0.64280 0.89241 0.74970 0.90600
O 	O 	0.52630 0.91115 0.87024 -0.40900
O 	O 	0.52655 0.88153 0.83998 -0.41400
O 	O 	0.59383 0.87888 0.77755 -0.40900
O 	O 	0.62206 0.91050 0.77450 -0.40600
O 	O 	0.62499 0.97397 0.84302 -0.41200
O 	O 	0.59464 0.97398 0.87274 -0.41200
O 	O 	0.65841 0.87291 0.77773 -0.41200
O 	O 	0.63051 0.84111 0.77469 -0.42200
C 	C 	0.53507 0.90100 0.85042 0.38300
C 	C 	0.55790 0.91311 0.83837 -0.12500
C 	C 	0.56855 0.90222 0.81702 0.07000
H 	H 	0.56100 0.88760 0.80950 0.04200
C 	C 	0.59057 0.91280 0.80652 -0.12300
C 	C 	0.60219 0.93363 0.81791 0.07100
H 	H 	0.61740 0.94040 0.81090 0.04100
C 	C 	0.59170 0.94457 0.83934 -0.12400
C 	C 	0.56919 0.93445 0.84972 0.06800
H 	H 	0.56170 0.94200 0.86430 0.04200
C 	C 	0.60312 0.89977 0.78445 0.37500
C 	C 	0.60500 0.96592 0.85269 0.38300
C 	C 	0.64933 0.85188 0.78384 0.39400
C 	C 	0.66217 0.83886 0.80554 -0.12800
C 	C 	0.65094 0.81686 0.81613 0.07200
H 	H 	0.63630 0.80970 0.80840 0.04100
Cu	Cu	0.64280 0.39241 0.24970 0.90600
O 	O 	0.52630 0.41115 0.37024 -0.41000
O 	O 	0.52655 0.38153 0.33998 -0.41400
O 	O 	0.59383 0.37888 0.27755 -0.40900
O 	O 	0.62206 0.41050 0.27450 -0.40600
O 	O 	0.62499 0.47397 0.34302 -0.41200
O 	O 	0.59464 0.47398 0.37274 -0.41200
O 	O 	0.65841 0.37291 0.27773 -0.41200
O 	O 	0.63051 0.34111 0.27469 -0.42200
C 	C 	0.53507 0.40100 0.35042 0.38300
C 	C 	0.55790 0.41311 0.33837 -0.12500
C 	C 	0.56855 0.40222 0.31702 0.07000
H 	H 	0.56100 0.38760 0.30950 0.04200
C 	C 	0.59057 0.41280 0.30652 -0.12300
C 	C 	0.60219 0.43363 0.31791 0.07100
H 	H 	0.61740 0.44040 0.31090 0.04100
C 	C 	0.59170 0.44457 0.33934 -0.12400
C 	C 	0.56919 0.43445 0.34972 0.06800
H 	H 	0.56170 0.44200 0.36430 0.04200
C 	C 	0.60312 0.39977 0.28445 0.37500
C 	C 	0.60500 0.46592 0.35269 0.38300
C 	C 	0.64933 0.35188 0.28384 0.39400
C 	C 	0.66217 0.33886 0.30554 -0.12800
C 	C 	0.65094 0.31686 0.31613 0.07200
H 	H 	0.63630 0.30970 0.30840 0.04100
Cu	Cu	0.85720 0.10759 0.24970 0.90600
O 	O 	0.97370 0.08885 0.37024 -0.40900
O 	O 	0.97345 0.11847 0.33998 -0.41400
O 	O 	0.90617 0.12112 0.27755 -0.40900
O 	O 	0.87794 0.08950 0.27450 -0.40600
O 	O 	0.87501 0.02603 0.34302 -0.41300
O 	O 	0.90536 0.02602 0.37274 -0.41300
O 	O 	0.84159 0.12709 0.27773 -0.41200
O 	O 	0.86949 0.15889 0.27469 -0.42200
C 	C 	0.96493 0.09900 0.35042 0.38300
C 	C 	0.94210 0.08689 0.33837 -0.12500
C 	C 	0.93145 0.09778 0.31702 0.07000
H 	H 	0.93900 0.11240 0.30950 0.04200
C 	C 	0.90943 0.08720 0.30652 -0.12300
C 	C 	0.89781 0.06637 0.31791 0.07100
H 	H 	0.88260 0.05960 0.31090 0.04100
C 	C 	0.90830 0.05543 0.33934 -0.12400
C 	C 	0.93081 0.06555 0.34972 0.06800
H 	H 	0.93830 0.05800 0.36430 0.04200
C 	C 	0.89688 0.10023 0.28445 0.37500
C 	C 	0.89500 0.03408 0.35269 0.38300
C 	C 	0.85067 0.14812 0.28384 0.39400
C 	C 	0.83783 0.16114 0.30554 -0.12800
C 	C 	0.84906 0.18314 0.31613 0.07200
H 	H 	0.86370 0.19030 0.30840 0.04100
Cu	Cu	0.85720 0.60759 0.74970 0.90600
O 	O 	0.97370 0.58885 0.87024 -0.40900
O 	O 	0.97345 0.61847 0.83998 -0.41400
O 	O 	0.90617 0.62112 0.77755 -0.40900
O 	O 	0.87794 0.58950 0.77450 -0.40600
O 	O 	0.87501 0.52603 0.84302 -0.41200
O 	O 	0.90536 0.52602 0.87274 -0.41200
O 	O 	0.84159 0.62709 0.77773 -0.41200
O 	O 	0.86949 0.65889 0.77469 -0.42200
C 	C 	0.96493 0.59900 0.85042 0.38300
C 	C 	0.94210 0.58689 0.83837 -0.12400
C 	C 	0.93145 0.59778 0.81702 0.07000
H 	H 	0.93900 0.61240 0.80950 0.04200
C 	C 	0.90943 0.58720 0.80652 -0.12300
C 	C 	0.89781 0.56637 0.81791 0.07100
H 	H 	0.88260 0.55960 0.81090 0.04100
C 	C 	0.90830 0.55543 0.83934 -0.12400
C 	C 	0.93081 0.56555 0.84972 0.06800
H 	H 	0.93830 0.55800 0.86430 0.04200
C 	C 	0.89688 0.60023 0.78445 0.37500
C 	C 	0.89500 0.53408 0.85269 0.38300
C 	C 	0.85067 0.64812 0.78384 0.39400
C 	C 	0.83783 0.66114 0.80554 -0.12800
C 	C 	0.84906 0.68314 0.81613 0.07200
H 	H 	0.86370 0.69030 0.80840 0.04100
Cu	Cu	0.35720 0.10759 0.74970 0.90600
O 	O 	0.47370 0.08885 0.87024 -0.41000
O 	O 	0.47345 0.11847 0.83998 -0.41400
O 	O 	0.40617 0.12112 0.77755 -0.40900
O 	O 	0.37794 0.08950 0.77450 -0.40600
O 	O 	0.37501 0.02603 0.84302 -0.41300
O 	O 	0.40536 0.02602 0.87274 -0.41300
O 	O 	0.34159 0.12709 0.77773 -0.41200
O 	O 	0.36949 0.15889 0.77469 -0.42200
C 	C 	0.46493 0.09900 0.85042 0.38300
C 	C 	0.44210 0.08689 0.83837 -0.12500
C 	C 	0.43145 0.09778 0.81702 0.07000
H 	H 	0.43900 0.11240 0.80950 0.04200
C 	C 	0.40943 0.08720 0.80652 -0.12300
C 	C 	0.39781 0.06637 0.81791 0.07100
H 	H 	0.38260 0.05960 0.81090 0.04100
C 	C 	0.40830 0.05543 0.83934 -0.12500
C 	C 	0.43081 0.06555 0.84972 0.06800
H 	H 	0.43830 0.05800 0.86430 0.04200
C 	C 	0.39688 0.10023 0.78445 0.37500
C 	C 	0.39500 0.03408 0.85269 0.38300
C 	C 	0.35067 0.14812 0.78384 0.39400
C 	C 	0.33783 0.16114 0.80554 -0.12800
C 	C 	0.34906 0.18314 0.81613 0.07200
H 	H 	0.36370 0.19030 0.80840 0.04100
Cu	Cu	0.35720 0.60759 0.24970 0.90600
O 	O 	0.47370 0.58885 0.37024 -0.41000
O 	O 	0.47345 0.61847 0.33998 -0.41400
O 	O 	0.40617 0.62112 0.27755 -0.40900
O 	O 	0.37794 0.58950 0.27450 -0.40600
O 	O 	0.37501 0.52603 0.34302 -0.41200
O 	O 	0.40536 0.52602 0.37274 -0.41200
O 	O 	0.34159 0.62709 0.27773 -0.41200
O 	O 	0.36949 0.65889 0.27469 -0.42200
C 	C 	0.46493 0.59900 0.35042 0.38300
C 	C 	0.44210 0.58689 0.33837 -0.12500
C 	C 	0.43145 0.59778 0.31702 0.07000
H 	H 	0.43900 0.61240 0.30950 0.04200
C 	C 	0.40943 0.58720 0.30652 -0.12300
C 	C 	0.39781 0.56637 0.31791 0.07100
H 	H 	0.38260 0.55960 0.31090 0.04100
C 	C 	0.40830 0.55543 0.33934 -0.12400
C 	C 	0.43081 0.56555 0.34972 0.06800
H 	H 	0.43830 0.55800 0.36430 0.04200
C 	C 	0.39688 0.60023 0.28445 0.37500
C 	C 	0.39500 0.53408 0.35269 0.38300
C 	C 	0.35067 0.64812 0.28384 0.39400
C 	C 	0.33783 0.66114 0.30554 -0.12800
C 	C 	0.34906 0.68314 0.31613 0.07200
H 	H 	0.36370 0.69030 0.30840 0.04100
Cu	Cu	0.14280 0.10759 0.75030 0.90600
O 	O 	0.02630 0.08885 0.62976 -0.41000
O 	O 	0.02655 0.11847 0.66002 -0.41500
O 	O 	0.09383 0.12112 0.72245 -0.40900
O 	O 	0.12206 0.08950 0.72550 -0.40600
O 	O 	0.12499 0.02603 0.65698 -0.41300
O 	O 	0.09464 0.02602 0.62726 -0.41300
O 	O 	0.15841 0.12709 0.72227 -0.41200
O 	O 	0.13051 0.15889 0.72531 -0.42200
C 	C 	0.03507 0.09900 0.64958 0.38300
C 	C 	0.05790 0.08689 0.66163 -0.12500
C 	C 	0.06855 0.09778 0.68298 0.07000
H 	H 	0.06100 0.11240 0.69050 0.04100
C 	C 	0.09057 0.08720 0.69348 -0.12300
C 	C 	0.10219 0.06637 0.68209 0.07100
H 	H 	0.11740 0.05960 0.68910 0.04100
C 	C 	0.09170 0.05543 0.66066 -0.12500
C 	C 	0.06919 0.06555 0.65028 0.06800
H 	H 	0.06170 0.05800 0.63570 0.04200
C 	C 	0.10312 0.10023 0.71555 0.37500
C 	C 	0.10500 0.03408 0.64731 0.38400
C 	C 	0.14933 0.14812 0.71616 0.39400
C 	C 	0.16217 0.16114 0.69446 -0.12800
C 	C 	0.15094 0.18314 0.68387 0.07200
H 	H 	0.13630 0.19030 0.69160 0.04100
Cu	Cu	0.14280 0.60759 0.25030 0.90600
O 	O 	0.02630 0.58885 0.12976 -0.41000
O 	O 	0.02655 0.61847 0.16002 -0.41500
O 	O 	0.09383 0.62112 0.22245 -0.40900
O 	O 	0.12206 0.58950 0.22550 -0.40600
O 	O 	0.12499 0.52603 0.15698 -0.41200
O 	O 	0.09464 0.52602 0.12726 -0.41200
O 	O 	0.15841 0.62709 0.22227 -0.41200
O 	O 	0.13051 0.65889 0.22531 -0.42200
C 	C 	0.03507 0.59900 0.14958 0.38300
C 	C 	0.05790 0.58689 0.16163 -0.12500
C 	C 	0.06855 0.59778 0.18298 0.07000
H 	H 	0.06100 0.61240 0.19050 0.04200
C 	C 	0.09057 0.58720 0.19348 -0.12300
C 	C 	0.10219 0.56637 0.18209 0.07100
H 	H 	0.11740 0.55960 0.18910 0.04100
C 	C 	0.09170 0.55543 0.16066 -0.12500
C 	C 	0.06919 0.56555 0.15028 0.06800
H 	H 	0.06170 0.55800 0.13570 0.04200
C 	C 	0.10312 0.60023 0.21555 0.37500
C 	C 	0.10500 0.53408 0.14731 0.38300
C 	C 	0.14933 0.64812 0.21616 0.39400
C 	C 	0.16217 0.66114 0.19446 -0.12800
C 	C 	0.15094 0.68314 0.18387 0.07200
H 	H 	0.13630 0.69030 0.19160 0.04100
Cu	Cu	0.64280 0.10759 0.25030 0.90600
O 	O 	0.52630 0.08885 0.12976 -0.41000
O 	O 	0.52655 0.11847 0.16002 -0.41400
O 	O 	0.59383 0.12112 0.22245 -0.40900
O 	O 	0.62206 0.08950 0.22550 -0.40600
O 	O 	0.62499 0.02603 0.15698 -0.41300
O 	O 	0.59464 0.02602 0.12726 -0.41300
O 	O 	0.65841 0.12709 0.22227 -0.41200
O 	O 	0.63051 0.15889 0.22531 -0.42200
C 	C 	0.53507 0.09900 0.14958 0.38300
C 	C 	0.55790 0.08689 0.16163 -0.12500
C 	C 	0.56855 0.09778 0.18298 0.07000
H 	H 	0.56100 0.11240 0.19050 0.04200
C 	C 	0.59057 0.08720 0.19348 -0.12300
C 	C 	0.60219 0.06637 0.18209 0.07100
H 	H 	0.61740 0.05960 0.18910 0.04100
C 	C 	0.59170 0.05543 0.16066 -0.12500
C 	C 	0.56919 0.06555 0.15028 0.06800
H 	H 	0.56170 0.05800 0.13570 0.04200
C 	C 	0.60312 0.10023 0.21555 0.37500
C 	C 	0.60500 0.03408 0.14731 0.38400
C 	C 	0.64933 0.14812 0.21616 0.39400
C 	C 	0.66217 0.16114 0.19446 -0.12800
C 	C 	0.65094 0.18314 0.18387 0.07200
H 	H 	0.63630 0.19030 0.19160 0.04100
Cu	Cu	0.64280 0.60759 0.75030 0.90600
O 	O 	0.52630 0.58885 0.62976 -0.41000
O 	O 	0.52655 0.61847 0.66002 -0.41400
O 	O 	0.59383 0.62112 0.72245 -0.40900
O 	O 	0.62206 0.58950 0.72550 -0.40600
O 	O 	0.62499 0.52603 0.65698 -0.41200
O 	O 	0.59464 0.52602 0.62726 -0.41200
O 	O 	0.65841 0.62709 0.72227 -0.41200
O 	O 	0.63051 0.65889 0.72531 -0.42200
C 	C 	0.53507 0.59900 0.64958 0.38300
C 	C 	0.55790 0.58689 0.66163 -0.12500
C 	C 	0.56855 0.59778 0.68298 0.07000
H 	H 	0.56100 0.61240 0.69050 0.04200
C 	C 	0.59057 0.58720 0.69348 -0.12300
C 	C 	0.60219 0.56637 0.68209 0.07100
H 	H 	0.61740 0.55960 0.68910 0.04100
C 	C 	0.59170 0.55543 0.66066 -0.12400
C 	C 	0.56919 0.56555 0.65028 0.06800
H 	H 	0.56170 0.55800 0.63570 0.04200
C 	C 	0.60312 0.60023 0.71555 0.37500
C 	C 	0.60500 0.53408 0.64731 0.38300
C 	C 	0.64933 0.64812 0.71616 0.39400
C 	C 	0.66217 0.66114 0.69446 -0.12800
C 	C 	0.65094 0.68314 0.68387 0.07200
H 	H 	0.63630 0.69030 0.69160 0.04100
Cu	Cu	0.35720 0.25030 0.60759 0.90600
O 	O 	0.47370 0.12976 0.58885 -0.41000
O 	O 	0.47345 0.16002 0.61847 -0.41400
O 	O 	0.40617 0.22245 0.62112 -0.40900
O 	O 	0.37794 0.22550 0.58950 -0.40600
O 	O 	0.37501 0.15698 0.52603 -0.41200
O 	O 	0.40536 0.12726 0.52602 -0.41200
O 	O 	0.34159 0.22227 0.62709 -0.41200
O 	O 	0.36949 0.22531 0.65889 -0.42200
C 	C 	0.46493 0.14958 0.59900 0.38300
C 	C 	0.44210 0.16163 0.58689 -0.12500
C 	C 	0.43145 0.18298 0.59778 0.07000
H 	H 	0.43900 0.19050 0.61240 0.04200
C 	C 	0.40943 0.19348 0.58720 -0.12300
C 	C 	0.39781 0.18209 0.56637 0.07100
H 	H 	0.38260 0.18910 0.55960 0.04100
C 	C 	0.40830 0.16066 0.55543 -0.12400
C 	C 	0.43081 0.15028 0.56555 0.06800
H 	H 	0.43830 0.13570 0.55800 0.04200
C 	C 	0.39688 0.21555 0.60023 0.37500
C 	C 	0.39500 0.14731 0.53408 0.38300
C 	C 	0.35067 0.21616 0.64812 0.39400
C 	C 	0.33783 0.19446 0.66114 -0.12800
C 	C 	0.34906 0.18387 0.68314 0.07200
H 	H 	0.36370 0.19160 0.69030 0.04100
Cu	Cu	0.35720 0.75030 0.10759 0.90600
O 	O 	0.47370 0.62976 0.08885 -0.41000
O 	O 	0.47345 0.66002 0.11847 -0.41400
O 	O 	0.40617 0.72245 0.12112 -0.40900
O 	O 	0.37794 0.72550 0.08950 -0.40600
O 	O 	0.37501 0.65698 0.02603 -0.41300
O 	O 	0.40536 0.62726 0.02602 -0.41300
O 	O 	0.34159 0.72227 0.12709 -0.41200
O 	O 	0.36949 0.72531 0.15889 -0.42200
C 	C 	0.46493 0.64958 0.09900 0.38300
C 	C 	0.44210 0.66163 0.08689 -0.12500
C 	C 	0.43145 0.68298 0.09778 0.07000
H 	H 	0.43900 0.69050 0.11240 0.04200
C 	C 	0.40943 0.69348 0.08720 -0.12300
C 	C 	0.39781 0.68209 0.06637 0.07100
H 	H 	0.38260 0.68910 0.05960 0.04100
C 	C 	0.40830 0.66066 0.05543 -0.12500
C 	C 	0.43081 0.65028 0.06555 0.06800
H 	H 	0.43830 0.63570 0.05800 0.04200
C 	C 	0.39688 0.71555 0.10023 0.37500
C 	C 	0.39500 0.64731 0.03408 0.38300
C 	C 	0.35067 0.71616 0.14812 0.39400
C 	C 	0.33783 0.69446 0.16114 -0.12800
C 	C 	0.34906 0.68387 0.18314 0.07200
H 	H 	0.36370 0.69160 0.19030 0.04100
Cu	Cu	0.85720 0.25030 0.10759 0.90600
O 	O 	0.97370 0.12976 0.08885 -0.40900
O 	O 	0.97345 0.16002 0.11847 -0.41400
O 	O 	0.90617 0.22245 0.12112 -0.40900
O 	O 	0.87794 0.22550 0.08950 -0.40600
O 	O 	0.87501 0.15698 0.02603 -0.41300
O 	O 	0.90536 0.12726 0.02602 -0.41300
O 	O 	0.84159 0.22227 0.12709 -0.41200
O 	O 	0.86949 0.22531 0.15889 -0.42200
C 	C 	0.96493 0.14958 0.09900 0.38300
C 	C 	0.94210 0.16163 0.08689 -0.12500
C 	C 	0.93145 0.18298 0.09778 0.07000
H 	H 	0.93900 0.19050 0.11240 0.04200
C 	C 	0.90943 0.19348 0.08720 -0.12300
C 	C 	0.89781 0.18209 0.06637 0.07100
H 	H 	0.88260 0.18910 0.05960 0.04100
C 	C 	0.90830 0.16066 0.05543 -0.12400
C 	C 	0.93081 0.15028 0.06555 0.06800
H 	H 	0.93830 0.13570 0.05800 0.04200
C 	C 	0.89688 0.21555 0.10023 0.37500
C 	C 	0.89500 0.14731 0.03408 0.38300
C 	C 	0.85067 0.21616 0.14812 0.39400
C 	C 	0.83783 0.19446 0.16114 -0.12800
C 	C 	0.84906 0.18387 0.18314 0.07200
H 	H 	0.86370 0.19160 0.19030 0.04100
Cu	Cu	0.85720 0.75030 0.60759 0.90600
O 	O 	0.97370 0.62976 0.58885 -0.40900
O 	O 	0.97345 0.66002 0.61847 -0.41400
O 	O 	0.90617 0.72245 0.62112 -0.40900
O 	O 	0.87794 0.72550 0.58950 -0.40600
O 	O 	0.87501 0.65698 0.52603 -0.41200
O 	O 	0.90536 0.62726 0.52602 -0.41200
O 	O 	0.84159 0.72227 0.62709 -0.41200
O 	O 	0.86949 0.72531 0.65889 -0.42200
C 	C 	0.96493 0.64958 0.59900 0.38300
C 	C 	0.94210 0.66163 0.58689 -0.12400
C 	C 	0.93145 0.68298 0.59778 0.07000
H 	H 	0.93900 0.69050 0.61240 0.04200
C 	C 	0.90943 0.69348 0.58720 -0.12300
C 	C 	0.89781 0.68209 0.56637 0.07100
H 	H 	0.88260 0.68910 0.55960 0.04100
C 	C 	0.90830 0.66066 0.55543 -0.12400
C 	C 	0.93081 0.65028 0.56555 0.06800
H 	H 	0.93830 0.63570 0.55800 0.04200
C 	C 	0.89688 0.71555 0.60023 0.37500
C 	C 	0.89500 0.64731 0.53408 0.38300
C 	C 	0.85067 0.71616 0.64812 0.39400
C 	C 	0.83783 0.69446 0.66114 -0.12800
C 	C 	0.84906 0.68387 0.68314 0.07200
H 	H 	0.86370 0.69160 0.69030 0.04100
Cu	Cu	0.64280 0.74970 0.60759 0.90600
O 	O 	0.52630 0.87024 0.58885 -0.40900
O 	O 	0.52655 0.83998 0.61847 -0.41400
O 	O 	0.59383 0.77755 0.62112 -0.40900
O 	O 	0.62206 0.77450 0.58950 -0.40600
O 	O 	0.62499 0.84302 0.52603 -0.41200
O 	O 	0.59464 0.87274 0.52602 -0.41200
O 	O 	0.65841 0.77773 0.62709 -0.41200
O 	O 	0.63051 0.77469 0.65889 -0.42200
C 	C 	0.53507 0.85042 0.59900 0.38300
C 	C 	0.55790 0.83837 0.58689 -0.12500
C 	C 	0.56855 0.81702 0.59778 0.07000
H 	H 	0.56100 0.80950 0.61240 0.04200
C 	C 	0.59057 0.80652 0.58720 -0.12300
C 	C 	0.60219 0.81791 0.56637 0.07100
H 	H 	0.61740 0.81090 0.55960 0.04100
C 	C 	0.59170 0.83934 0.55543 -0.12400
C 	C 	0.56919 0.84972 0.56555 0.06800
H 	H 	0.56170 0.86430 0.55800 0.04200
C 	C 	0.60312 0.78445 0.60023 0.37500
C 	C 	0.60500 0.85269 0.53408 0.38300
C 	C 	0.64933 0.78384 0.64812 0.39400
C 	C 	0.66217 0.80554 0.66114 -0.12800
C 	C 	0.65094 0.81613 0.68314 0.07200
H 	H 	0.63630 0.80840 0.69030 0.04100
Cu	Cu	0.64280 0.24970 0.10759 0.90600
O 	O 	0.52630 0.37024 0.08885 -0.41000
O 	O 	0.52655 0.33998 0.11847 -0.41400
O 	O 	0.59383 0.27755 0.12112 -0.40900
O 	O 	0.62206 0.27450 0.08950 -0.40600
O 	O 	0.62499 0.34302 0.02603 -0.41300
O 	O 	0.59464 0.37274 0.02602 -0.41300
O 	O 	0.65841 0.27773 0.12709 -0.41200
O 	O 	0.63051 0.27469 0.15889 -0.42200
C 	C 	0.53507 0.35042 0.09900 0.38300
C 	C 	0.55790 0.33837 0.08689 -0.12500
C 	C 	0.56855 0.31702 0.09778 0.07000
H 	H 	0.56100 0.30950 0.11240 0.04200
C 	C 	0.59057 0.30652 0.08720 -0.12300
C 	C 	0.60219 0.31791 0.06637 0.07100
H 	H 	0.61740 0.31090 0.05960 0.04100
C 	C 	0.59170 0.33934 0.05543 -0.12500
C 	C 	0.56919 0.34972 0.06555 0.06800
H 	H 	0.56170 0.36430 0.05800 0.04200
C 	C 	0.60312 0.28445 0.10023 0.37500
C 	C 	0.60500 0.35269 0.03408 0.38300
C 	C 	0.64933 0.28384 0.14812 0.39400
C 	C 	0.66217 0.30554 0.16114 -0.12800
C 	C 	0.65094 0.31613 0.18314 0.07200
H 	H 	0.63630 0.30840 0.19030 0.04100
Cu	Cu	0.14280 0.74970 0.10759 0.90600
O 	O 	0.02630 0.87024 0.08885 -0.41000
O 	O 	0.02655 0.83998 0.11847 -0.41500
O 	O 	0.09383 0.77755 0.12112 -0.40900
O 	O 	0.12206 0.77450 0.08950 -0.40600
O 	O 	0.12499 0.84302 0.02603 -0.41300
O 	O 	0.09464 0.87274 0.02602 -0.41300
O 	O 	0.15841 0.77773 0.12709 -0.41200
O 	O 	0.13051 0.77469 0.15889 -0.42200
C 	C 	0.03507 0.85042 0.09900 0.38300
C 	C 	0.05790 0.83837 0.08689 -0.12500
C 	C 	0.06855 0.81702 0.09778 0.07000
H 	H 	0.06100 0.80950 0.11240 0.04100
C 	C 	0.09057 0.80652 0.08720 -0.12300
C 	C 	0.10219 0.81791 0.06637 0.07100
H 	H 	0.11740 0.81090 0.05960 0.04100
C 	C 	0.09170 0.83934 0.05543 -0.12500
C 	C 	0.06919 0.84972 0.06555 0.06800
H 	H 	0.06170 0.86430 0.05800 0.04200
C 	C 	0.10312 0.78445 0.10023 0.37500
C 	C 	0.10500 0.85269 0.03408 0.38400
C 	C 	0.14933 0.78384 0.14812 0.39400
C 	C 	0.16217 0.80554 0.16114 -0.12800
C 	C 	0.15094 0.81613 0.18314 0.07200
H 	H 	0.13630 0.80840 0.19030 0.04100
Cu	Cu	0.14280 0.24970 0.60759 0.90600
O 	O 	0.02630 0.37024 0.58885 -0.41000
O 	O 	0.02655 0.33998 0.61847 -0.41500
O 	O 	0.09383 0.27755 0.62112 -0.40900
O 	O 	0.12206 0.27450 0.58950 -0.40600
O 	O 	0.12499 0.34302 0.52603 -0.41200
O 	O 	0.09464 0.37274 0.52602 -0.41200
O 	O 	0.15841 0.27773 0.62709 -0.41200
O 	O 	0.13051 0.27469 0.65889 -0.42200
C 	C 	0.03507 0.35042 0.59900 0.38300
C 	C 	0.05790 0.33837 0.58689 -0.12500
C 	C 	0.06855 0.31702 0.59778 0.07000
H 	H 	0.06100 0.30950 0.61240 0.04200
C 	C 	0.09057 0.30652 0.58720 -0.12300
C 	C 	0.10219 0.31791 0.56637 0.07100
H 	H 	0.11740 0.31090 0.55960 0.04100
C 	C 	0.09170 0.33934 0.55543 -0.12500
C 	C 	0.06919 0.34972 0.56555 0.06800
H 	H 	0.06170 0.36430 0.55800 0.04200
C 	C 	0.10312 0.28445 0.60023 0.37500
C 	C 	0.10500 0.35269 0.53408 0.38300
C 	C 	0.14933 0.28384 0.64812 0.39400
C 	C 	0.16217 0.30554 0.66114 -0.12800
C 	C 	0.15094 0.31613 0.68314 0.07200
H 	H 	0.13630 0.30840 0.69030 0.04100
Cu	Cu	0.35720 0.74970 0.39241 0.90600
O 	O 	0.47370 0.87024 0.41115 -0.40900
O 	O 	0.47345 0.83998 0.38153 -0.41400
O 	O 	0.40617 0.77755 0.37888 -0.40900
O 	O 	0.37794 0.77450 0.41050 -0.40600
O 	O 	0.37501 0.84302 0.47397 -0.41200
O 	O 	0.40536 0.87274 0.47398 -0.41200
O 	O 	0.34159 0.77773 0.37291 -0.41200
O 	O 	0.36949 0.77469 0.34111 -0.42200
C 	C 	0.46493 0.85042 0.40100 0.38300
C 	C 	0.44210 0.83837 0.41311 -0.12500
C 	C 	0.43145 0.81702 0.40222 0.07000
H 	H 	0.43900 0.80950 0.38760 0.04200
C 	C 	0.40943 0.80652 0.41280 -0.12300
C 	C 	0.39781 0.81791 0.43363 0.07100
H 	H 	0.38260 0.81090 0.44040 0.04100
C 	C 	0.40830 0.83934 0.44457 -0.12400
C 	C 	0.43081 0.84972 0.43445 0.06800
H 	H 	0.43830 0.86430 0.44200 0.04200
C 	C 	0.39688 0.78445 0.39977 0.37500
C 	C 	0.39500 0.85269 0.46592 0.38300
C 	C 	0.35067 0.78384 0.35188 0.39400
C 	C 	0.33783 0.80554 0.33886 -0.12800
C 	C 	0.34906 0.81613 0.31686 0.07200
H 	H 	0.36370 0.80840 0.30970 0.04100
Cu	Cu	0.35720 0.24970 0.89241 0.90600
O 	O 	0.47370 0.37024 0.91115 -0.40900
O 	O 	0.47345 0.33998 0.88153 -0.41400
O 	O 	0.40617 0.27755 0.87888 -0.40900
O 	O 	0.37794 0.27450 0.91050 -0.40600
O 	O 	0.37501 0.34302 0.97397 -0.41200
O 	O 	0.40536 0.37274 0.97398 -0.41200
O 	O 	0.34159 0.27773 0.87291 -0.41200
O 	O 	0.36949 0.27469 0.84111 -0.42200
C 	C 	0.46493 0.35042 0.90100 0.38300
C 	C 	0.44210 0.33837 0.91311 -0.12500
C 	C 	0.43145 0.31702 0.90222 0.07000
H 	H 	0.43900 0.30950 0.88760 0.04200
C 	C 	0.40943 0.30652 0.91280 -0.12300
C 	C 	0.39781 0.31791 0.93363 0.07100
H 	H 	0.38260 0.31090 0.94040 0.04100
C 	C 	0.40830 0.33934 0.94457 -0.12400
C 	C 	0.43081 0.34972 0.93445 0.06800
H 	H 	0.43830 0.36430 0.94200 0.04200
C 	C 	0.39688 0.28445 0.89977 0.37500
C 	C 	0.39500 0.35269 0.96592 0.38300
C 	C 	0.35067 0.28384 0.85188 0.39400
C 	C 	0.33783 0.30554 0.83886 -0.12800
C 	C 	0.34906 0.31613 0.81686 0.07200
H 	H 	0.36370 0.30840 0.80970 0.04100
Cu	Cu	0.85720 0.74970 0.89241 0.90600
O 	O 	0.97370 0.87024 0.91115 -0.40900
O 	O 	0.97345 0.83998 0.88153 -0.41400
O 	O 	0.90617 0.77755 0.87888 -0.40900
O 	O 	0.87794 0.77450 0.91050 -0.40600
O 	O 	0.87501 0.84302 0.97397 -0.41200
O 	O 	0.90536 0.87274 0.97398 -0.41200
O 	O 	0.84159 0.77773 0.87291 -0.41200
O 	O 	0.86949 0.77469 0.84111 -0.42200
C 	C 	0.96493 0.85042 0.90100 0.38300
C 	C 	0.94210 0.83837 0.91311 -0.12400
C 	C 	0.93145 0.81702 0.90222 0.07000
H 	H 	0.93900 0.80950 0.88760 0.04200
C 	C 	0.90943 0.80652 0.91280 -0.12200
C 	C 	0.89781 0.81791 0.93363 0.07100
H 	H 	0.88260 0.81090 0.94040 0.04100
C 	C 	0.90830 0.83934 0.94457 -0.12400
C 	C 	0.93081 0.84972 0.93445 0.06800
H 	H 	0.93830 0.86430 0.94200 0.04200
C 	C 	0.89688 0.78445 0.89977 0.37500
C 	C 	0.89500 0.85269 0.96592 0.38300
C 	C 	0.85067 0.78384 0.85188 0.39400
C 	C 	0.83783 0.80554 0.83886 -0.12800
C 	C 	0.84906 0.81613 0.81686 0.07200
H 	H 	0.86370 0.80840 0.80970 0.04100
Cu	Cu	0.85720 0.24970 0.39241 0.90600
O 	O 	0.97370 0.37024 0.41115 -0.40900
O 	O 	0.97345 0.33998 0.38153 -0.41400
O 	O 	0.90617 0.27755 0.37888 -0.40900
O 	O 	0.87794 0.27450 0.41050 -0.40600
O 	O 	0.87501 0.34302 0.47397 -0.41200
O 	O 	0.90536 0.37274 0.47398 -0.41200
O 	O 	0.84159 0.27773 0.37291 -0.41200
O 	O 	0.86949 0.27469 0.34111 -0.42200
C 	C 	0.96493 0.35042 0.40100 0.38300
C 	C 	0.94210 0.33837 0.41311 -0.12400
C 	C 	0.93145 0.31702 0.40222 0.07000
H 	H 	0.93900 0.30950 0.38760 0.04200
C 	C 	0.90943 0.30652 0.41280 -0.12300
C 	C 	0.89781 0.31791 0.43363 0.07100
H 	H 	0.88260 0.31090 0.44040 0.04100
C 	C 	0.90830 0.33934 0.44457 -0.12400
C 	C 	0.93081 0.34972 0.43445 0.06800
H 	H 	0.93830 0.36430 0.44200 0.04200
C 	C 	0.89688 0.28445 0.39977 0.37500
C 	C 	0.89500 0.35269 0.46592 0.38300
C 	C 	0.85067 0.28384 0.35188 0.39400
C 	C 	0.83783 0.30554 0.33886 -0.12800
C 	C 	0.84906 0.31613 0.31686 0.07200
H 	H 	0.86370 0.30840 0.30970 0.04100
Cu	Cu	0.64280 0.25030 0.39241 0.90600
O 	O 	0.52630 0.12976 0.41115 -0.41000
O 	O 	0.52655 0.16002 0.38153 -0.41400
O 	O 	0.59383 0.22245 0.37888 -0.40900
O 	O 	0.62206 0.22550 0.41050 -0.40600
O 	O 	0.62499 0.15698 0.47397 -0.41200
O 	O 	0.59464 0.12726 0.47398 -0.41200
O 	O 	0.65841 0.22227 0.37291 -0.41200
O 	O 	0.63051 0.22531 0.34111 -0.42200
C 	C 	0.53507 0.14958 0.40100 0.38300
C 	C 	0.55790 0.16163 0.41311 -0.12500
C 	C 	0.56855 0.18298 0.40222 0.07000
H 	H 	0.56100 0.19050 0.38760 0.04200
C 	C 	0.59057 0.19348 0.41280 -0.12300
C 	C 	0.60219 0.18209 0.43363 0.07100
H 	H 	0.61740 0.18910 0.44040 0.04100
C 	C 	0.59170 0.16066 0.44457 -0.12400
C 	C 	0.56919 0.15028 0.43445 0.06800
H 	H 	0.56170 0.13570 0.44200 0.04200
C 	C 	0.60312 0.21555 0.39977 0.37500
C 	C 	0.60500 0.14731 0.46592 0.38300
C 	C 	0.64933 0.21616 0.35188 0.39400
C 	C 	0.66217 0.19446 0.33886 -0.12800
C 	C 	0.65094 0.18387 0.31686 0.07200
H 	H 	0.63630 0.19160 0.30970 0.04100
Cu	Cu	0.64280 0.75030 0.89241 0.90600
O 	O 	0.52630 0.62976 0.91115 -0.40900
O 	O 	0.52655 0.66002 0.88153 -0.41400
O 	O 	0.59383 0.72245 0.87888 -0.40900
O 	O 	0.62206 0.72550 0.91050 -0.40600
O 	O 	0.62499 0.65698 0.97397 -0.41200
O 	O 	0.59464 0.62726 0.97398 -0.41200
O 	O 	0.65841 0.72227 0.87291 -0.41200
O 	O 	0.63051 0.72531 0.84111 -0.42200
C 	C 	0.53507 0.64958 0.90100 0.38300
C 	C 	0.55790 0.66163 0.91311 -0.12500
C 	C 	0.56855 0.68298 0.90222 0.07000
H 	H 	0.56100 0.69050 0.88760 0.04200
C 	C 	0.59057 0.69348 0.91280 -0.12300
C 	C 	0.60219 0.68209 0.93363 0.07100
H 	H 	0.61740 0.68910 0.94040 0.04100
C 	C 	0.59170 0.66066 0.94457 -0.12400
C 	C 	0.56919 0.65028 0.93445 0.06800
H 	H 	0.56170 0.63570 0.94200 0.04200
C 	C 	0.60312 0.71555 0.89977 0.37500
C 	C 	0.60500 0.64731 0.96592 0.38300
C 	C 	0.64933 0.71616 0.85188 0.39400
C 	C 	0.66217 0.69446 0.83886 -0.12800
C 	C 	0.65094 0.68387 0.81686 0.07200
H 	H 	0.63630 0.69160 0.80970 0.04100
Cu	Cu	0.14280 0.25030 0.89241 0.90600
O 	O 	0.02630 0.12976 0.91115 -0.41000
O 	O 	0.02655 0.16002 0.88153 -0.41500
O 	O 	0.09383 0.22245 0.87888 -0.40900
O 	O 	0.12206 0.22550 0.91050 -0.40600
O 	O 	0.12499 0.15698 0.97397 -0.41200
O 	O 	0.09464 0.12726 0.97398 -0.41200
O 	O 	0.15841 0.22227 0.87291 -0.41200
O 	O 	0.13051 0.22531 0.84111 -0.42200
C 	C 	0.03507 0.14958 0.90100 0.38300
C 	C 	0.05790 0.16163 0.91311 -0.12500
C 	C 	0.06855 0.18298 0.90222 0.07000
H 	H 	0.06100 0.19050 0.88760 0.04200
C 	C 	0.09057 0.19348 0.91280 -0.12300
C 	C 	0.10219 0.18209 0.93363 0.07100
H 	H 	0.11740 0.18910 0.94040 0.04100
C 	C 	0.09170 0.16066 0.94457 -0.12400
C 	C 	0.06919 0.15028 0.93445 0.06800
H 	H 	0.06170 0.13570 0.94200 0.04200
C 	C 	0.10312 0.21555 0.89977 0.37500
C 	C 	0.10500 0.14731 0.96592 0.38300
C 	C 	0.14933 0.21616 0.85188 0.39400
C 	C 	0.16217 0.19446 0.83886 -0.12800
C 	C 	0.15094 0.18387 0.81686 0.07200
H 	H 	0.13630 0.19160 0.80970 0.04100
Cu	Cu	0.14280 0.75030 0.39241 0.90600
O 	O 	0.02630 0.62976 0.41115 -0.41000
O 	O 	0.02655 0.66002 0.38153 -0.41500
O 	O 	0.09383 0.72245 0.37888 -0.40900
O 	O 	0.12206 0.72550 0.41050 -0.40600
O 	O 	0.12499 0.65698 0.47397 -0.41200
O 	O 	0.09464 0.62726 0.47398 -0.41200
O 	O 	0.15841 0.72227 0.37291 -0.41200
O 	O 	0.13051 0.72531 0.34111 -0.42200
C 	C 	0.03507 0.64958 0.40100 0.38300
C 	C 	0.05790 0.66163 0.41311 -0.12500
C 	C 	0.06855 0.68298 0.40222 0.07000
H 	H 	0.06100 0.69050 0.38760 0.04200
C 	C 	0.09057 0.69348 0.41280 -0.12300
C 	C 	0.10219 0.68209 0.43363 0.07100
H 	H 	0.11740 0.68910 0.44040 0.04100
C 	C 	0.09170 0.66066 0.44457 -0.12500
C 	C 	0.06919 0.65028 0.43445 0.06800
H 	H 	0.06170 0.63570 0.44200 0.04200
C 	C 	0.10312 0.71555 0.39977 0.37500
C 	C 	0.10500 0.64731 0.46592 0.38300
C 	C 	0.14933 0.71616 0.35188 0.39400
C 	C 	0.16217 0.69446 0.33886 -0.12800
C 	C 	0.15094 0.68387 0.31686 0.07200
H 	H 	0.13630 0.69160 0.30970 0.04100
Cu	Cu	0.25030 0.39241 0.64280 0.90600
O 	O 	0.12976 0.41115 0.52630 -0.41000
O 	O 	0.16002 0.38153 0.52655 -0.41400
O 	O 	0.22245 0.37888 0.59383 -0.40900
O 	O 	0.22550 0.41050 0.62206 -0.40600
O 	O 	0.15698 0.47397 0.62499 -0.41200
O 	O 	0.12726 0.47398 0.59464 -0.41200
O 	O 	0.22227 0.37291 0.65841 -0.41200
O 	O 	0.22531 0.34111 0.63051 -0.42200
C 	C 	0.14958 0.40100 0.53507 0.38300
C 	C 	0.16163 0.41311 0.55790 -0.12500
C 	C 	0.18298 0.40222 0.56855 0.07000
H 	H 	0.19050 0.38760 0.56100 0.04200
C 	C 	0.19348 0.41280 0.59057 -0.12300
C 	C 	0.18209 0.43363 0.60219 0.07100
H 	H 	0.18910 0.44040 0.61740 0.04100
C 	C 	0.16066 0.44457 0.59170 -0.12400
C 	C 	0.15028 0.43445 0.56919 0.06800
H 	H 	0.13570 0.44200 0.56170 0.04200
C 	C 	0.21555 0.39977 0.60312 0.37500
C 	C 	0.14731 0.46592 0.60500 0.38300
C 	C 	0.21616 0.35188 0.64933 0.39400
C 	C 	0.19446 0.33886 0.66217 -0.12800
C 	C 	0.18387 0.31686 0.65094 0.07200
H 	H 	0.19160 0.30970 0.63630 0.04100
Cu	Cu	0.25030 0.89241 0.14280 0.90600
O 	O 	0.12976 0.91115 0.02630 -0.41000
O 	O 	0.16002 0.88153 0.02655 -0.41500
O 	O 	0.22245 0.87888 0.09383 -0.40900
O 	O 	0.22550 0.91050 0.12206 -0.40600
O 	O 	0.15698 0.97397 0.12499 -0.41200
O 	O 	0.12726 0.97398 0.09464 -0.41200
O 	O 	0.22227 0.87291 0.15841 -0.41200
O 	O 	0.22531 0.84111 0.13051 -0.42200
C 	C 	0.14958 0.90100 0.03507 0.38300
C 	C 	0.16163 0.91311 0.05790 -0.12500
C 	C 	0.18298 0.90222 0.06855 0.07000
H 	H 	0.19050 0.88760 0.06100 0.04200
C 	C 	0.19348 0.91280 0.09057 -0.12300
C 	C 	0.18209 0.93363 0.10219 0.07100
H 	H 	0.18910 0.94040 0.11740 0.04100
C 	C 	0.16066 0.94457 0.09170 -0.12400
C 	C 	0.15028 0.93445 0.06919 0.06800
H 	H 	0.13570 0.94200 0.06170 0.04200
C 	C 	0.21555 0.89977 0.10312 0.37500
C 	C 	0.14731 0.96592 0.10500 0.38300
C 	C 	0.21616 0.85188 0.14933 0.39400
C 	C 	0.19446 0.83886 0.16217 -0.12800
C 	C 	0.18387 0.81686 0.15094 0.07200
H 	H 	0.19160 0.80970 0.13630 0.04100
Cu	Cu	0.75030 0.39241 0.14280 0.90600
O 	O 	0.62976 0.41115 0.02630 -0.41000
O 	O 	0.66002 0.38153 0.02655 -0.41500
O 	O 	0.72245 0.37888 0.09383 -0.40900
O 	O 	0.72550 0.41050 0.12206 -0.40600
O 	O 	0.65698 0.47397 0.12499 -0.41200
O 	O 	0.62726 0.47398 0.09464 -0.41200
O 	O 	0.72227 0.37291 0.15841 -0.41200
O 	O 	0.72531 0.34111 0.13051 -0.42200
C 	C 	0.64958 0.40100 0.03507 0.38300
C 	C 	0.66163 0.41311 0.05790 -0.12500
C 	C 	0.68298 0.40222 0.06855 0.07000
H 	H 	0.69050 0.38760 0.06100 0.04200
C 	C 	0.69348 0.41280 0.09057 -0.12300
C 	C 	0.68209 0.43363 0.10219 0.07100
H 	H 	0.68910 0.44040 0.11740 0.04100
C 	C 	0.66066 0.44457 0.09170 -0.12500
C 	C 	0.65028 0.43445 0.06919 0.06800
H 	H 	0.63570 0.44200 0.06170 0.04200
C 	C 	0.71555 0.39977 0.10312 0.37500
C 	C 	0.64731 0.46592 0.10500 0.38300
C 	C 	0.71616 0.35188 0.14933 0.39400
C 	C 	0.69446 0.33886 0.16217 -0.12800
C 	C 	0.68387 0.31686 0.15094 0.07200
H 	H 	0.69160 0.30970 0.13630 0.04100
Cu	Cu	0.75030 0.89241 0.64280 0.90600
O 	O 	0.62976 0.91115 0.52630 -0.40900
O 	O 	0.66002 0.88153 0.52655 -0.41400
O 	O 	0.72245 0.87888 0.59383 -0.40900
O 	O 	0.72550 0.91050 0.62206 -0.40600
O 	O 	0.65698 0.97397 0.62499 -0.41200
O 	O 	0.62726 0.97398 0.59464 -0.41200
O 	O 	0.72227 0.87291 0.65841 -0.41200
O 	O 	0.72531 0.84111 0.63051 -0.42200
C 	C 	0.64958 0.90100 0.53507 0.38300
C 	C 	0.66163 0.91311 0.55790 -0.12500
C 	C 	0.68298 0.90222 0.56855 0.07000
H 	H 	0.69050 0.88760 0.56100 0.04200
C 	C 	0.69348 0.91280 0.59057 -0.12300
C 	C 	0.68209 0.93363 0.60219 0.07100
H 	H 	0.68910 0.94040 0.61740 0.04100
C 	C 	0.66066 0.94457 0.59170 -0.12400
C 	C 	0.65028 0.93445 0.56919 0.06800
H 	H 	0.63570 0.94200 0.56170 0.04200
C 	C 	0.71555 0.89977 0.60312 0.37500
C 	C 	0.64731 0.96592 0.60500 0.38300
C 	C 	0.71616 0.85188 0.64933 0.39400
C 	C 	0.69446 0.83886 0.66217 -0.12800
C 	C 	0.68387 0.81686 0.65094 0.07200
H 	H 	0.69160 0.80970 0.63630 0.04100
Cu	Cu	0.74970 0.39241 0.35720 0.90600
O 	O 	0.87024 0.41115 0.47370 -0.40900
O 	O 	0.83998 0.38153 0.47345 -0.41400
O 	O 	0.77755 0.37888 0.40617 -0.40900
O 	O 	0.77450 0.41050 0.37794 -0.40600
O 	O 	0.84302 0.47397 0.37501 -0.41200
O 	O 	0.87274 0.47398 0.40536 -0.41200
O 	O 	0.77773 0.37291 0.34159 -0.41200
O 	O 	0.77469 0.34111 0.36949 -0.42200
C 	C 	0.85042 0.40100 0.46493 0.38300
C 	C 	0.83837 0.41311 0.44210 -0.12500
C 	C 	0.81702 0.40222 0.43145 0.07000
H 	H 	0.80950 0.38760 0.43900 0.04200
C 	C 	0.80652 0.41280 0.40943 -0.12300
C 	C 	0.81791 0.43363 0.39781 0.07100
H 	H 	0.81090 0.44040 0.38260 0.04100
C 	C 	0.83934 0.44457 0.40830 -0.12400
C 	C 	0.84972 0.43445 0.43081 0.06800
H 	H 	0.86430 0.44200 0.43830 0.04200
C 	C 	0.78445 0.39977 0.39688 0.37500
C 	C 	0.85269 0.46592 0.39500 0.38300
C 	C 	0.78384 0.35188 0.35067 0.39400
C 	C 	0.80554 0.33886 0.33783 -0.12800
C 	C 	0.81613 0.31686 0.34906 0.07200
H 	H 	0.80840 0.30970 0.36370 0.04100
Cu	Cu	0.74970 0.89241 0.85720 0.90600
O 	O 	0.87024 0.91115 0.97370 -0.40900
O 	O 	0.83998 0.88153 0.97345 -0.41400
O 	O 	0.77755 0.87888 0.90617 -0.40900
O 	O 	0.77450 0.91050 0.87794 -0.40600
O 	O 	0.84302 0.97397 0.87501 -0.41200
O 	O 	0.87274 0.97398 0.90536 -0.41200
O 	O 	0.77773 0.87291 0.84159 -0.41200
O 	O 	0.77469 0.84111 0.86949 -0.42200
C 	C 	0.85042 0.90100 0.96493 0.38300
C 	C 	0.83837 0.91311 0.94210 -0.12400
C 	C 	0.81702 0.90222 0.93145 0.07000
H 	H 	0.80950 0.88760 0.93900 0.04200
C 	C 	0.80652 0.91280 0.90943 -0.12200
C 	C 	0.81791 0.93363 0.89781 0.07100
H 	H 	0.81090 0.94040 0.88260 0.04100
C 	C 	0.83934 0.94457 0.90830 -0.12400
C 	C 	0.84972 0.93445 0.93081 0.06800
H 	H 	0.86430 0.94200 0.93830 0.04200
C 	C 	0.78445 0.89977 0.89688 0.37500
C 	C 	0.85269 0.96592 0.89500 0.38300
C 	C 	0.78384 0.85188 0.85067 0.39400
C 	C 	0.80554 0.83886 0.83783 -0.12800
C 	C 	0.81613 0.81686 0.84906 0.07200
H 	H 	0.80840 0.80970 0.86370 0.04100
Cu	Cu	0.24970 0.39241 0.85720 0.90600
O 	O 	0.37024 0.41115 0.97370 -0.40900
O 	O 	0.33998 0.38153 0.97345 -0.41400
O 	O 	0.27755 0.37888 0.90617 -0.40900
O 	O 	0.27450 0.41050 0.87794 -0.40600
O 	O 	0.34302 0.47397 0.87501 -0.41200
O 	O 	0.37274 0.47398 0.90536 -0.41200
O 	O 	0.27773 0.37291 0.84159 -0.41200
O 	O 	0.27469 0.34111 0.86949 -0.42200
C 	C 	0.35042 0.40100 0.96493 0.38300
C 	C 	0.33837 0.41311 0.94210 -0.12400
C 	C 	0.31702 0.40222 0.93145 0.07000
H 	H 	0.30950 0.38760 0.93900 0.04200
C 	C 	0.30652 0.41280 0.90943 -0.12300
C 	C 	0.31791 0.43363 0.89781 0.07100
H 	H 	0.31090 0.44040 0.88260 0.04100
C 	C 	0.33934 0.44457 0.90830 -0.12400
C 	C 	0.34972 0.43445 0.93081 0.06800
H 	H 	0.36430 0.44200 0.93830 0.04200
C 	C 	0.28445 0.39977 0.89688 0.37500
C 	C 	0.35269 0.46592 0.89500 0.38300
C 	C 	0.28384 0.35188 0.85067 0.39400
C 	C 	0.30554 0.33886 0.83783 -0.12800
C 	C 	0.31613 0.31686 0.84906 0.07200
H 	H 	0.30840 0.30970 0.86370 0.04100
Cu	Cu	0.24970 0.89241 0.35720 0.90600
O 	O 	0.37024 0.91115 0.47370 -0.40900
O 	O 	0.33998 0.88153 0.47345 -0.41400
O 	O 	0.27755 0.87888 0.40617 -0.40900
O 	O 	0.27450 0.91050 0.37794 -0.40600
O 	O 	0.34302 0.97397 0.37501 -0.41200
O 	O 	0.37274 0.97398 0.40536 -0.41200
O 	O 	0.27773 0.87291 0.34159 -0.41200
O 	O 	0.27469 0.84111 0.36949 -0.42200
C 	C 	0.35042 0.90100 0.46493 0.38300
C 	C 	0.33837 0.91311 0.44210 -0.12500
C 	C 	0.31702 0.90222 0.43145 0.07000
H 	H 	0.30950 0.88760 0.43900 0.04200
C 	C 	0.30652 0.91280 0.40943 -0.12300
C 	C 	0.31791 0.93363 0.39781 0.07100
H 	H 	0.31090 0.94040 0.38260 0.04100
C 	C 	0.33934 0.94457 0.40830 -0.12400
C 	C 	0.34972 0.93445 0.43081 0.06800
H 	H 	0.36430 0.94200 0.43830 0.04200
C 	C 	0.28445 0.89977 0.39688 0.37500
C 	C 	0.35269 0.96592 0.39500 0.38300
C 	C 	0.28384 0.85188 0.35067 0.39400
C 	C 	0.30554 0.83886 0.33783 -0.12800
C 	C 	0.31613 0.81686 0.34906 0.07200
H 	H 	0.30840 0.80970 0.36370 0.04100
Cu	Cu	0.74970 0.60759 0.64280 0.90600
O 	O 	0.87024 0.58885 0.52630 -0.40900
O 	O 	0.83998 0.61847 0.52655 -0.41400
O 	O 	0.77755 0.62112 0.59383 -0.40900
O 	O 	0.77450 0.58950 0.62206 -0.40600
O 	O 	0.84302 0.52603 0.62499 -0.41200
O 	O 	0.87274 0.52602 0.59464 -0.41200
O 	O 	0.77773 0.62709 0.65841 -0.41200
O 	O 	0.77469 0.65889 0.63051 -0.42200
C 	C 	0.85042 0.59900 0.53507 0.38300
C 	C 	0.83837 0.58689 0.55790 -0.12500
C 	C 	0.81702 0.59778 0.56855 0.07000
H 	H 	0.80950 0.61240 0.56100 0.04200
C 	C 	0.80652 0.58720 0.59057 -0.12300
C 	C 	0.81791 0.56637 0.60219 0.07100
H 	H 	0.81090 0.55960 0.61740 0.04100
C 	C 	0.83934 0.55543 0.59170 -0.12400
C 	C 	0.84972 0.56555 0.56919 0.06800
H 	H 	0.86430 0.55800 0.56170 0.04200
C 	C 	0.78445 0.60023 0.60312 0.37500
C 	C 	0.85269 0.53408 0.60500 0.38300
C 	C 	0.78384 0.64812 0.64933 0.39400
C 	C 	0.80554 0.66114 0.66217 -0.12800
C 	C 	0.81613 0.68314 0.65094 0.07200
H 	H 	0.80840 0.69030 0.63630 0.04100
Cu	Cu	0.74970 0.10759 0.14280 0.90600
O 	O 	0.87024 0.08885 0.02630 -0.41000
O 	O 	0.83998 0.11847 0.02655 -0.41500
O 	O 	0.77755 0.12112 0.09383 -0.40900
O 	O 	0.77450 0.08950 0.12206 -0.40600
O 	O 	0.84302 0.02603 0.12499 -0.41300
O 	O 	0.87274 0.02602 0.09464 -0.41300
O 	O 	0.77773 0.12709 0.15841 -0.41200
O 	O 	0.77469 0.15889 0.13051 -0.42200
C 	C 	0.85042 0.09900 0.03507 0.38300
C 	C 	0.83837 0.08689 0.05790 -0.12500
C 	C 	0.81702 0.09778 0.06855 0.07000
H 	H 	0.80950 0.11240 0.06100 0.04100
C 	C 	0.80652 0.08720 0.09057 -0.12300
C 	C 	0.81791 0.06637 0.10219 0.07100
H 	H 	0.81090 0.05960 0.11740 0.04100
C 	C 	0.83934 0.05543 0.09170 -0.12500
C 	C 	0.84972 0.06555 0.06919 0.06800
H 	H 	0.86430 0.05800 0.06170 0.04200
C 	C 	0.78445 0.10023 0.10312 0.37500
C 	C 	0.85269 0.03408 0.10500 0.38400
C 	C 	0.78384 0.14812 0.14933 0.39400
C 	C 	0.80554 0.16114 0.16217 -0.12800
C 	C 	0.81613 0.18314 0.15094 0.07200
H 	H 	0.80840 0.19030 0.13630 0.04100
Cu	Cu	0.24970 0.60759 0.14280 0.90600
O 	O 	0.37024 0.58885 0.02630 -0.41000
O 	O 	0.33998 0.61847 0.02655 -0.41500
O 	O 	0.27755 0.62112 0.09383 -0.40900
O 	O 	0.27450 0.58950 0.12206 -0.40600
O 	O 	0.34302 0.52603 0.12499 -0.41200
O 	O 	0.37274 0.52602 0.09464 -0.41200
O 	O 	0.27773 0.62709 0.15841 -0.41200
O 	O 	0.27469 0.65889 0.13051 -0.42200
C 	C 	0.35042 0.59900 0.03507 0.38300
C 	C 	0.33837 0.58689 0.05790 -0.12500
C 	C 	0.31702 0.59778 0.06855 0.07000
H 	H 	0.30950 0.61240 0.06100 0.04200
C 	C 	0.30652 0.58720 0.09057 -0.12300
C 	C 	0.31791 0.56637 0.10219 0.07100
H 	H 	0.31090 0.55960 0.11740 0.04100
C 	C 	0.33934 0.55543 0.09170 -0.12500
C 	C 	0.34972 0.56555 0.06919 0.06800
H 	H 	0.36430 0.55800 0.06170 0.04200
C 	C 	0.28445 0.60023 0.10312 0.37500
C 	C 	0.35269 0.53408 0.10500 0.38300
C 	C 	0.28384 0.64812 0.14933 0.39400
C 	C 	0.30554 0.66114 0.16217 -0.12800
C 	C 	0.31613 0.68314 0.15094 0.07200
H 	H 	0.30840 0.69030 0.13630 0.04100
Cu	Cu	0.24970 0.10759 0.64280 0.90600
O 	O 	0.37024 0.08885 0.52630 -0.41000
O 	O 	0.33998 0.11847 0.52655 -0.41400
O 	O 	0.27755 0.12112 0.59383 -0.40900
O 	O 	0.27450 0.08950 0.62206 -0.40600
O 	O 	0.34302 0.02603 0.62499 -0.41300
O 	O 	0.37274 0.02602 0.59464 -0.41300
O 	O 	0.27773 0.12709 0.65841 -0.41200
O 	O 	0.27469 0.15889 0.63051 -0.42200
C 	C 	0.35042 0.09900 0.53507 0.38300
C 	C 	0.33837 0.08689 0.55790 -0.12500
C 	C 	0.31702 0.09778 0.56855 0.07000
H 	H 	0.30950 0.11240 0.56100 0.04200
C 	C 	0.30652 0.08720 0.59057 -0.12300
C 	C 	0.31791 0.06637 0.60219 0.07100
H 	H 	0.31090 0.05960 0.61740 0.04100
C 	C 	0.33934 0.05543 0.59170 -0.12500
C 	C 	0.34972 0.06555 0.56919 0.06800
H 	H 	0.36430 0.05800 0.56170 0.04200
C 	C 	0.28445 0.10023 0.60312 0.37500
C 	C 	0.35269 0.03408 0.60500 0.38300
C 	C 	0.28384 0.14812 0.64933 0.39400
C 	C 	0.30554 0.16114 0.66217 -0.12800
C 	C 	0.31613 0.18314 0.65094 0.07200
H 	H 	0.30840 0.19030 0.63630 0.04100
Cu	Cu	0.25030 0.60759 0.35720 0.90600
O 	O 	0.12976 0.58885 0.47370 -0.41000
O 	O 	0.16002 0.61847 0.47345 -0.41400
O 	O 	0.22245 0.62112 0.40617 -0.40900
O 	O 	0.22550 0.58950 0.37794 -0.40600
O 	O 	0.15698 0.52603 0.37501 -0.41200
O 	O 	0.12726 0.52602 0.40536 -0.41200
O 	O 	0.22227 0.62709 0.34159 -0.41200
O 	O 	0.22531 0.65889 0.36949 -0.42200
C 	C 	0.14958 0.59900 0.46493 0.38300
C 	C 	0.16163 0.58689 0.44210 -0.12500
C 	C 	0.18298 0.59778 0.43145 0.07000
H 	H 	0.19050 0.61240 0.43900 0.04200
C 	C 	0.19348 0.58720 0.40943 -0.12300
C 	C 	0.18209 0.56637 0.39781 0.07100
H 	H 	0.18910 0.55960 0.38260 0.04100
C 	C 	0.16066 0.55543 0.40830 -0.12400
C 	C 	0.15028 0.56555 0.43081 0.06800
H 	H 	0.13570 0.55800 0.43830 0.04200
C 	C 	0.21555 0.60023 0.39688 0.37500
C 	C 	0.14731 0.53408 0.39500 0.38300
C 	C 	0.21616 0.64812 0.35067 0.39400
C 	C 	0.19446 0.66114 0.33783 -0.12800
C 	C 	0.18387 0.68314 0.34906 0.07200
H 	H 	0.19160 0.69030 0.36370 0.04100
Cu	Cu	0.25030 0.10759 0.85720 0.90600
O 	O 	0.12976 0.08885 0.97370 -0.40900
O 	O 	0.16002 0.11847 0.97345 -0.41400
O 	O 	0.22245 0.12112 0.90617 -0.40900
O 	O 	0.22550 0.08950 0.87794 -0.40600
O 	O 	0.15698 0.02603 0.87501 -0.41300
O 	O 	0.12726 0.02602 0.90536 -0.41300
O 	O 	0.22227 0.12709 0.84159 -0.41200
O 	O 	0.22531 0.15889 0.86949 -0.42200
C 	C 	0.14958 0.09900 0.96493 0.38300
C 	C 	0.16163 0.08689 0.94210 -0.12500
C 	C 	0.18298 0.09778 0.93145 0.07000
H 	H 	0.19050 0.11240 0.93900 0.04200
C 	C 	0.19348 0.08720 0.90943 -0.12300
C 	C 	0.18209 0.06637 0.89781 0.07100
H 	H 	0.18910 0.05960 0.88260 0.04100
C 	C 	0.16066 0.05543 0.90830 -0.12400
C 	C 	0.15028 0.06555 0.93081 0.06800
H 	H 	0.13570 0.05800 0.93830 0.04200
C 	C 	0.21555 0.10023 0.89688 0.37500
C 	C 	0.14731 0.03408 0.89500 0.38300
C 	C 	0.21616 0.14812 0.85067 0.39400
C 	C 	0.19446 0.16114 0.83783 -0.12800
C 	C 	0.18387 0.18314 0.84906 0.07200
H 	H 	0.19160 0.19030 0.86370 0.04100
Cu	Cu	0.75030 0.60759 0.85720 0.90600
O 	O 	0.62976 0.58885 0.97370 -0.40900
O 	O 	0.66002 0.61847 0.97345 -0.41400
O 	O 	0.72245 0.62112 0.90617 -0.40900
O 	O 	0.72550 0.58950 0.87794 -0.40600
O 	O 	0.65698 0.52603 0.87501 -0.41200
O 	O 	0.62726 0.52602 0.90536 -0.41200
O 	O 	0.72227 0.62709 0.84159 -0.41200
O 	O 	0.72531 0.65889 0.86949 -0.42200
C 	C 	0.64958 0.59900 0.96493 0.38300
C 	C 	0.66163 0.58689 0.94210 -0.12400
C 	C 	0.68298 0.59778 0.93145 0.07000
H 	H 	0.69050 0.61240 0.93900 0.04200
C 	C 	0.69348 0.58720 0.90943 -0.12300
C 	C 	0.68209 0.56637 0.89781 0.07100
H 	H 	0.68910 0.55960 0.88260 0.04100
C 	C 	0.66066 0.55543 0.90830 -0.12400
C 	C 	0.65028 0.56555 0.93081 0.06800
H 	H 	0.63570 0.55800 0.93830 0.04200
C 	C 	0.71555 0.60023 0.89688 0.37500
C 	C 	0.64731 0.53408 0.89500 0.38300
C 	C 	0.71616 0.64812 0.85067 0.39400
C 	C 	0.69446 0.66114 0.83783 -0.12800
C 	C 	0.68387 0.68314 0.84906 0.07200
H 	H 	0.69160 0.69030 0.86370 0.04100
Cu	Cu	0.75030 0.10759 0.35720 0.90600
O 	O 	0.62976 0.08885 0.47370 -0.41000
O 	O 	0.66002 0.11847 0.47345 -0.41400
O 	O 	0.72245 0.12112 0.40617 -0.40900
O 	O 	0.72550 0.08950 0.37794 -0.40600
O 	O 	0.65698 0.02603 0.37501 -0.41300
O 	O 	0.62726 0.02602 0.40536 -0.41300
O 	O 	0.72227 0.12709 0.34159 -0.41200
O 	O 	0.72531 0.15889 0.36949 -0.42200
C 	C 	0.64958 0.09900 0.46493 0.38300
C 	C 	0.66163 0.08689 0.44210 -0.12500
C 	C 	0.68298 0.09778 0.43145 0.07000
H 	H 	0.69050 0.11240 0.43900 0.04200
C 	C 	0.69348 0.08720 0.40943 -0.12300
C 	C 	0.68209 0.06637 0.39781 0.07100
H 	H 	0.68910 0.05960 0.38260 0.04100
C 	C 	0.66066 0.05543 0.40830 -0.12500
C 	C 	0.65028 0.06555 0.43081 0.06800
H 	H 	0.63570 0.05800 0.43830 0.04200
C 	C 	0.71555 0.10023 0.39688 0.37500
C 	C 	0.64731 0.03408 0.39500 0.38300
C 	C 	0.71616 0.14812 0.35067 0.39400
C 	C 	0.69446 0.16114 0.33783 -0.12800
C 	C 	0.68387 0.18314 0.34906 0.07200
H 	H 	0.69160 0.19030 0.36370 0.04100
Cu	Cu	0.39241 0.35720 0.74970 0.90600
O 	O 	0.41115 0.47370 0.87024 -0.40900
O 	O 	0.38153 0.47345 0.83998 -0.41400
O 	O 	0.37888 0.40617 0.77755 -0.40900
O 	O 	0.41050 0.37794 0.77450 -0.40600
O 	O 	0.47397 0.37501 0.84302 -0.41200
O 	O 	0.47398 0.40536 0.87274 -0.41200
O 	O 	0.37291 0.34159 0.77773 -0.41200
O 	O 	0.34111 0.36949 0.77469 -0.42200
C 	C 	0.40100 0.46493 0.85042 0.38300
C 	C 	0.41311 0.44210 0.83837 -0.12500
C 	C 	0.40222 0.43145 0.81702 0.07000
H 	H 	0.38760 0.43900 0.80950 0.04200
C 	C 	0.41280 0.40943 0.80652 -0.12300
C 	C 	0.43363 0.39781 0.81791 0.07100
H 	H 	0.44040 0.38260 0.81090 0.04100
C 	C 	0.44457 0.40830 0.83934 -0.12400
C 	C 	0.43445 0.43081 0.84972 0.06800
H 	H 	0.44200 0.43830 0.86430 0.04200
C 	C 	0.39977 0.39688 0.78445 0.37500
C 	C 	0.46592 0.39500 0.85269 0.38300
C 	C 	0.35188 0.35067 0.78384 0.39400
C 	C 	0.33886 0.33783 0.80554 -0.12800
C 	C 	0.31686 0.34906 0.81613 0.07200
H 	H 	0.30970 0.36370 0.80840 0.04100
Cu	Cu	0.39241 0.85720 0.24970 0.90600
O 	O 	0.41115 0.97370 0.37024 -0.40900
O 	O 	0.38153 0.97345 0.33998 -0.41400
O 	O 	0.37888 0.90617 0.27755 -0.40900
O 	O 	0.41050 0.87794 0.27450 -0.40600
O 	O 	0.47397 0.87501 0.34302 -0.41200
O 	O 	0.47398 0.90536 0.37274 -0.41200
O 	O 	0.37291 0.84159 0.27773 -0.41200
O 	O 	0.34111 0.86949 0.27469 -0.42200
C 	C 	0.40100 0.96493 0.35042 0.38300
C 	C 	0.41311 0.94210 0.33837 -0.12400
C 	C 	0.40222 0.93145 0.31702 0.07000
H 	H 	0.38760 0.93900 0.30950 0.04200
C 	C 	0.41280 0.90943 0.30652 -0.12300
C 	C 	0.43363 0.89781 0.31791 0.07100
H 	H 	0.44040 0.88260 0.31090 0.04100
C 	C 	0.44457 0.90830 0.33934 -0.12400
C 	C 	0.43445 0.93081 0.34972 0.06800
H 	H 	0.44200 0.93830 0.36430 0.04200
C 	C 	0.39977 0.89688 0.28445 0.37500
C 	C 	0.46592 0.89500 0.35269 0.38300
C 	C 	0.35188 0.85067 0.28384 0.39400
C 	C 	0.33886 0.83783 0.30554 -0.12800
C 	C 	0.31686 0.84906 0.31613 0.07200
H 	H 	0.30970 0.86370 0.30840 0.04100
Cu	Cu	0.89241 0.35720 0.24970 0.90600
O 	O 	0.91115 0.47370 0.37024 -0.40900
O 	O 	0.88153 0.47345 0.33998 -0.41400
O 	O 	0.87888 0.40617 0.27755 -0.40900
O 	O 	0.91050 0.37794 0.27450 -0.40600
O 	O 	0.97397 0.37501 0.34302 -0.41200
O 	O 	0.97398 0.40536 0.37274 -0.41200
O 	O 	0.87291 0.34159 0.27773 -0.41200
O 	O 	0.84111 0.36949 0.27469 -0.42200
C 	C 	0.90100 0.46493 0.35042 0.38300
C 	C 	0.91311 0.44210 0.33837 -0.12500
C 	C 	0.90222 0.43145 0.31702 0.07000
H 	H 	0.88760 0.43900 0.30950 0.04200
C 	C 	0.91280 0.40943 0.30652 -0.12300
C 	C 	0.93363 0.39781 0.31791 0.07100
H 	H 	0.94040 0.38260 0.31090 0.04100
C 	C 	0.94457 0.40830 0.33934 -0.12400
C 	C 	0.93445 0.43081 0.34972 0.06800
H 	H 	0.94200 0.43830 0.36430 0.04200
C 	C 	0.89977 0.39688 0.28445 0.37500
C 	C 	0.96592 0.39500 0.35269 0.38300
C 	C 	0.85188 0.35067 0.28384 0.39400
C 	C 	0.83886 0.33783 0.30554 -0.12800
C 	C 	0.81686 0.34906 0.31613 0.07200
H 	H 	0.80970 0.36370 0.30840 0.04100
Cu	Cu	0.89241 0.85720 0.74970 0.90600
O 	O 	0.91115 0.97370 0.87024 -0.40900
O 	O 	0.88153 0.97345 0.83998 -0.41400
O 	O 	0.87888 0.90617 0.77755 -0.40900
O 	O 	0.91050 0.87794 0.77450 -0.40600
O 	O 	0.97397 0.87501 0.84302 -0.41200
O 	O 	0.97398 0.90536 0.87274 -0.41200
O 	O 	0.87291 0.84159 0.77773 -0.41200
O 	O 	0.84111 0.86949 0.77469 -0.42200
C 	C 	0.90100 0.96493 0.85042 0.38300
C 	C 	0.91311 0.94210 0.83837 -0.12400
C 	C 	0.90222 0.93145 0.81702 0.07000
H 	H 	0.88760 0.93900 0.80950 0.04200
C 	C 	0.91280 0.90943 0.80652 -0.12200
C 	C 	0.93363 0.89781 0.81791 0.07100
H 	H 	0.94040 0.88260 0.81090 0.04100
C 	C 	0.94457 0.90830 0.83934 -0.12400
C 	C 	0.93445 0.93081 0.84972 0.06800
H 	H 	0.94200 0.93830 0.86430 0.04200
C 	C 	0.89977 0.89688 0.78445 0.37500
C 	C 	0.96592 0.89500 0.85269 0.38300
C 	C 	0.85188 0.85067 0.78384 0.39400
C 	C 	0.83886 0.83783 0.80554 -0.12800
C 	C 	0.81686 0.84906 0.81613 0.07200
H 	H 	0.80970 0.86370 0.80840 0.04100
Cu	Cu	0.39241 0.64280 0.25030 0.90600
O 	O 	0.41115 0.52630 0.12976 -0.41000
O 	O 	0.38153 0.52655 0.16002 -0.41400
O 	O 	0.37888 0.59383 0.22245 -0.40900
O 	O 	0.41050 0.62206 0.22550 -0.40600
O 	O 	0.47397 0.62499 0.15698 -0.41200
O 	O 	0.47398 0.59464 0.12726 -0.41200
O 	O 	0.37291 0.65841 0.22227 -0.41200
O 	O 	0.34111 0.63051 0.22531 -0.42200
C 	C 	0.40100 0.53507 0.14958 0.38300
C 	C 	0.41311 0.55790 0.16163 -0.12500
C 	C 	0.40222 0.56855 0.18298 0.07000
H 	H 	0.38760 0.56100 0.19050 0.04200
C 	C 	0.41280 0.59057 0.19348 -0.12300
C 	C 	0.43363 0.60219 0.18209 0.07100
H 	H 	0.44040 0.61740 0.18910 0.04100
C 	C 	0.44457 0.59170 0.16066 -0.12400
C 	C 	0.43445 0.56919 0.15028 0.06800
H 	H 	0.44200 0.56170 0.13570 0.04200
C 	C 	0.39977 0.60312 0.21555 0.37500
C 	C 	0.46592 0.60500 0.14731 0.38300
C 	C 	0.35188 0.64933 0.21616 0.39400
C 	C 	0.33886 0.66217 0.19446 -0.12800
C 	C 	0.31686 0.65094 0.18387 0.07200
H 	H 	0.30970 0.63630 0.19160 0.04100
Cu	Cu	0.39241 0.14280 0.75030 0.90600
O 	O 	0.41115 0.02630 0.62976 -0.41000
O 	O 	0.38153 0.02655 0.66002 -0.41500
O 	O 	0.37888 0.09383 0.72245 -0.40900
O 	O 	0.41050 0.12206 0.72550 -0.40600
O 	O 	0.47397 0.12499 0.65698 -0.41200
O 	O 	0.47398 0.09464 0.62726 -0.41200
O 	O 	0.37291 0.15841 0.72227 -0.41200
O 	O 	0.34111 0.13051 0.72531 -0.42200
C 	C 	0.40100 0.03507 0.64958 0.38300
C 	C 	0.41311 0.05790 0.66163 -0.12500
C 	C 	0.40222 0.06855 0.68298 0.07000
H 	H 	0.38760 0.06100 0.69050 0.04200
C 	C 	0.41280 0.09057 0.69348 -0.12300
C 	C 	0.43363 0.10219 0.68209 0.07100
H 	H 	0.44040 0.11740 0.68910 0.04100
C 	C 	0.44457 0.09170 0.66066 -0.12500
C 	C 	0.43445 0.06919 0.65028 0.06800
H 	H 	0.44200 0.06170 0.63570 0.04200
C 	C 	0.39977 0.10312 0.71555 0.37500
C 	C 	0.46592 0.10500 0.64731 0.38300
C 	C 	0.35188 0.14933 0.71616 0.39400
C 	C 	0.33886 0.16217 0.69446 -0.12800
C 	C 	0.31686 0.15094 0.68387 0.07200
H 	H 	0.30970 0.13630 0.69160 0.04100
Cu	Cu	0.89241 0.64280 0.75030 0.90600
O 	O 	0.91115 0.52630 0.62976 -0.40900
O 	O 	0.88153 0.52655 0.66002 -0.41400
O 	O 	0.87888 0.59383 0.72245 -0.40900
O 	O 	0.91050 0.62206 0.72550 -0.40600
O 	O 	0.97397 0.62499 0.65698 -0.41200
O 	O 	0.97398 0.59464 0.62726 -0.41200
O 	O 	0.87291 0.65841 0.72227 -0.41200
O 	O 	0.84111 0.63051 0.72531 -0.42200
C 	C 	0.90100 0.53507 0.64958 0.38300
C 	C 	0.91311 0.55790 0.66163 -0.12500
C 	C 	0.90222 0.56855 0.68298 0.07000
H 	H 	0.88760 0.56100 0.69050 0.04200
C 	C 	0.91280 0.59057 0.69348 -0.12300
C 	C 	0.93363 0.60219 0.68209 0.07100
H 	H 	0.94040 0.61740 0.68910 0.04100
C 	C 	0.94457 0.59170 0.66066 -0.12400
C 	C 	0.93445 0.56919 0.65028 0.06800
H 	H 	0.94200 0.56170 0.63570 0.04200
C 	C 	0.89977 0.60312 0.71555 0.37500
C 	C 	0.96592 0.60500 0.64731 0.38300
C 	C 	0.85188 0.64933 0.71616 0.39400
C 	C 	0.83886 0.66217 0.69446 -0.12800
C 	C 	0.81686 0.65094 0.68387 0.07200
H 	H 	0.80970 0.63630 0.69160 0.04100
Cu	Cu	0.89241 0.14280 0.25030 0.90600
O 	O 	0.91115 0.02630 0.12976 -0.41000
O 	O 	0.88153 0.02655 0.16002 -0.41500
O 	O 	0.87888 0.09383 0.22245 -0.40900
O 	O 	0.91050 0.12206 0.22550 -0.40600
O 	O 	0.97397 0.12499 0.15698 -0.41200
O 	O 	0.97398 0.09464 0.12726 -0.41200
O 	O 	0.87291 0.15841 0.22227 -0.41200
O 	O 	0.84111 0.13051 0.22531 -0.42200
C 	C 	0.90100 0.03507 0.14958 0.38300
C 	C 	0.91311 0.05790 0.16163 -0.12500
C 	C 	0.90222 0.06855 0.18298 0.07000
H 	H 	0.88760 0.06100 0.19050 0.04200
C 	C 	0.91280 0.09057 0.19348 -0.12300
C 	C 	0.93363 0.10219 0.18209 0.07100
H 	H 	0.94040 0.11740 0.18910 0.04100
C 	C 	0.94457 0.09170 0.16066 -0.12400
C 	C 	0.93445 0.06919 0.15028 0.06800
H 	H 	0.94200 0.06170 0.13570 0.04200
C 	C 	0.89977 0.10312 0.21555 0.37500
C 	C 	0.96592 0.10500 0.14731 0.38300
C 	C 	0.85188 0.14933 0.21616 0.39400
C 	C 	0.83886 0.16217 0.19446 -0.12800
C 	C 	0.81686 0.15094 0.18387 0.07200
H 	H 	0.80970 0.13630 0.19160 0.04100
Cu	Cu	0.60759 0.35720 0.25030 0.90600
O 	O 	0.58885 0.47370 0.12976 -0.41000
O 	O 	0.61847 0.47345 0.16002 -0.41400
O 	O 	0.62112 0.40617 0.22245 -0.40900
O 	O 	0.58950 0.37794 0.22550 -0.40600
O 	O 	0.52603 0.37501 0.15698 -0.41200
O 	O 	0.52602 0.40536 0.12726 -0.41200
O 	O 	0.62709 0.34159 0.22227 -0.41200
O 	O 	0.65889 0.36949 0.22531 -0.42200
C 	C 	0.59900 0.46493 0.14958 0.38300
C 	C 	0.58689 0.44210 0.16163 -0.12500
C 	C 	0.59778 0.43145 0.18298 0.07000
H 	H 	0.61240 0.43900 0.19050 0.04200
C 	C 	0.58720 0.40943 0.19348 -0.12300
C 	C 	0.56637 0.39781 0.18209 0.07100
H 	H 	0.55960 0.38260 0.18910 0.04100
C 	C 	0.55543 0.40830 0.16066 -0.12400
C 	C 	0.56555 0.43081 0.15028 0.06800
H 	H 	0.55800 0.43830 0.13570 0.04200
C 	C 	0.60023 0.39688 0.21555 0.37500
C 	C 	0.53408 0.39500 0.14731 0.38300
C 	C 	0.64812 0.35067 0.21616 0.39400
C 	C 	0.66114 0.33783 0.19446 -0.12800
C 	C 	0.68314 0.34906 0.18387 0.07200
H 	H 	0.69030 0.36370 0.19160 0.04100
Cu	Cu	0.60759 0.85720 0.75030 0.90600
O 	O 	0.58885 0.97370 0.62976 -0.40900
O 	O 	0.61847 0.97345 0.66002 -0.41400
O 	O 	0.62112 0.90617 0.72245 -0.40900
O 	O 	0.58950 0.87794 0.72550 -0.40600
O 	O 	0.52603 0.87501 0.65698 -0.41200
O 	O 	0.52602 0.90536 0.62726 -0.41200
O 	O 	0.62709 0.84159 0.72227 -0.41200
O 	O 	0.65889 0.86949 0.72531 -0.42200
C 	C 	0.59900 0.96493 0.64958 0.38300
C 	C 	0.58689 0.94210 0.66163 -0.12400
C 	C 	0.59778 0.93145 0.68298 0.07000
H 	H 	0.61240 0.93900 0.69050 0.04200
C 	C 	0.58720 0.90943 0.69348 -0.12300
C 	C 	0.56637 0.89781 0.68209 0.07100
H 	H 	0.55960 0.88260 0.68910 0.04100
C 	C 	0.55543 0.90830 0.66066 -0.12400
C 	C 	0.56555 0.93081 0.65028 0.06800
H 	H 	0.55800 0.93830 0.63570 0.04200
C 	C 	0.60023 0.89688 0.71555 0.37500
C 	C 	0.53408 0.89500 0.64731 0.38300
C 	C 	0.64812 0.85067 0.71616 0.39400
C 	C 	0.66114 0.83783 0.69446 -0.12800
C 	C 	0.68314 0.84906 0.68387 0.07200
H 	H 	0.69030 0.86370 0.69160 0.04100
Cu	Cu	0.10759 0.35720 0.75030 0.90600
O 	O 	0.08885 0.47370 0.62976 -0.41000
O 	O 	0.11847 0.47345 0.66002 -0.41400
O 	O 	0.12112 0.40617 0.72245 -0.40900
O 	O 	0.08950 0.37794 0.72550 -0.40600
O 	O 	0.02603 0.37501 0.65698 -0.41300
O 	O 	0.02602 0.40536 0.62726 -0.41300
O 	O 	0.12709 0.34159 0.72227 -0.41200
O 	O 	0.15889 0.36949 0.72531 -0.42200
C 	C 	0.09900 0.46493 0.64958 0.38300
C 	C 	0.08689 0.44210 0.66163 -0.12500
C 	C 	0.09778 0.43145 0.68298 0.07000
H 	H 	0.11240 0.43900 0.69050 0.04200
C 	C 	0.08720 0.40943 0.69348 -0.12300
C 	C 	0.06637 0.39781 0.68209 0.07100
H 	H 	0.05960 0.38260 0.68910 0.04100
C 	C 	0.05543 0.40830 0.66066 -0.12500
C 	C 	0.06555 0.43081 0.65028 0.06800
H 	H 	0.05800 0.43830 0.63570 0.04200
C 	C 	0.10023 0.39688 0.71555 0.37500
C 	C 	0.03408 0.39500 0.64731 0.38300
C 	C 	0.14812 0.35067 0.71616 0.39400
C 	C 	0.16114 0.33783 0.69446 -0.12800
C 	C 	0.18314 0.34906 0.68387 0.07200
H 	H 	0.19030 0.36370 0.69160 0.04100
Cu	Cu	0.10759 0.85720 0.25030 0.90600
O 	O 	0.08885 0.97370 0.12976 -0.40900
O 	O 	0.11847 0.97345 0.16002 -0.41400
O 	O 	0.12112 0.90617 0.22245 -0.40900
O 	O 	0.08950 0.87794 0.22550 -0.40600
O 	O 	0.02603 0.87501 0.15698 -0.41300
O 	O 	0.02602 0.90536 0.12726 -0.41300
O 	O 	0.12709 0.84159 0.22227 -0.41200
O 	O 	0.15889 0.86949 0.22531 -0.42200
C 	C 	0.09900 0.96493 0.14958 0.38300
C 	C 	0.08689 0.94210 0.16163 -0.12500
C 	C 	0.09778 0.93145 0.18298 0.07000
H 	H 	0.11240 0.93900 0.19050 0.04200
C 	C 	0.08720 0.90943 0.19348 -0.12300
C 	C 	0.06637 0.89781 0.18209 0.07100
H 	H 	0.05960 0.88260 0.18910 0.04100
C 	C 	0.05543 0.90830 0.16066 -0.12400
C 	C 	0.06555 0.93081 0.15028 0.06800
H 	H 	0.05800 0.93830 0.13570 0.04200
C 	C 	0.10023 0.89688 0.21555 0.37500
C 	C 	0.03408 0.89500 0.14731 0.38300
C 	C 	0.14812 0.85067 0.21616 0.39400
C 	C 	0.16114 0.83783 0.19446 -0.12800
C 	C 	0.18314 0.84906 0.18387 0.07200
H 	H 	0.19030 0.86370 0.19160 0.04100
Cu	Cu	0.60759 0.64280 0.74970 0.90600
O 	O 	0.58885 0.52630 0.87024 -0.40900
O 	O 	0.61847 0.52655 0.83998 -0.41400
O 	O 	0.62112 0.59383 0.77755 -0.40900
O 	O 	0.58950 0.62206 0.77450 -0.40600
O 	O 	0.52603 0.62499 0.84302 -0.41200
O 	O 	0.52602 0.59464 0.87274 -0.41200
O 	O 	0.62709 0.65841 0.77773 -0.41200
O 	O 	0.65889 0.63051 0.77469 -0.42200
C 	C 	0.59900 0.53507 0.85042 0.38300
C 	C 	0.58689 0.55790 0.83837 -0.12500
C 	C 	0.59778 0.56855 0.81702 0.07000
H 	H 	0.61240 0.56100 0.80950 0.04200
C 	C 	0.58720 0.59057 0.80652 -0.12300
C 	C 	0.56637 0.60219 0.81791 0.07100
H 	H 	0.55960 0.61740 0.81090 0.04100
C 	C 	0.55543 0.59170 0.83934 -0.12400
C 	C 	0.56555 0.56919 0.84972 0.06800
H 	H 	0.55800 0.56170 0.86430 0.04200
C 	C 	0.60023 0.60312 0.78445 0.37500
C 	C 	0.53408 0.60500 0.85269 0.38300
C 	C 	0.64812 0.64933 0.78384 0.39400
C 	C 	0.66114 0.66217 0.80554 -0.12800
C 	C 	0.68314 0.65094 0.81613 0.07200
H 	H 	0.69030 0.63630 0.80840 0.04100
Cu	Cu	0.60759 0.14280 0.24970 0.90600
O 	O 	0.58885 0.02630 0.37024 -0.41000
O 	O 	0.61847 0.02655 0.33998 -0.41500
O 	O 	0.62112 0.09383 0.27755 -0.40900
O 	O 	0.58950 0.12206 0.27450 -0.40600
O 	O 	0.52603 0.12499 0.34302 -0.41200
O 	O 	0.52602 0.09464 0.37274 -0.41200
O 	O 	0.62709 0.15841 0.27773 -0.41200
O 	O 	0.65889 0.13051 0.27469 -0.42200
C 	C 	0.59900 0.03507 0.35042 0.38300
C 	C 	0.58689 0.05790 0.33837 -0.12500
C 	C 	0.59778 0.06855 0.31702 0.07000
H 	H 	0.61240 0.06100 0.30950 0.04200
C 	C 	0.58720 0.09057 0.30652 -0.12300
C 	C 	0.56637 0.10219 0.31791 0.07100
H 	H 	0.55960 0.11740 0.31090 0.04100
C 	C 	0.55543 0.09170 0.33934 -0.12500
C 	C 	0.56555 0.06919 0.34972 0.06800
H 	H 	0.55800 0.06170 0.36430 0.04200
C 	C 	0.60023 0.10312 0.28445 0.37500
C 	C 	0.53408 0.10500 0.35269 0.38300
C 	C 	0.64812 0.14933 0.28384 0.39400
C 	C 	0.66114 0.16217 0.30554 -0.12800
C 	C 	0.68314 0.15094 0.31613 0.07200
H 	H 	0.69030 0.13630 0.30840 0.04100
Cu	Cu	0.10759 0.64280 0.24970 0.90600
O 	O 	0.08885 0.52630 0.37024 -0.41000
O 	O 	0.11847 0.52655 0.33998 -0.41400
O 	O 	0.12112 0.59383 0.27755 -0.40900
O 	O 	0.08950 0.62206 0.27450 -0.40600
O 	O 	0.02603 0.62499 0.34302 -0.41300
O 	O 	0.02602 0.59464 0.37274 -0.41300
O 	O 	0.12709 0.65841 0.27773 -0.41200
O 	O 	0.15889 0.63051 0.27469 -0.42200
C 	C 	0.09900 0.53507 0.35042 0.38300
C 	C 	0.08689 0.55790 0.33837 -0.12500
C 	C 	0.09778 0.56855 0.31702 0.07000
H 	H 	0.11240 0.56100 0.30950 0.04200
C 	C 	0.08720 0.59057 0.30652 -0.12300
C 	C 	0.06637 0.60219 0.31791 0.07100
H 	H 	0.05960 0.61740 0.31090 0.04100
C 	C 	0.05543 0.59170 0.33934 -0.12500
C 	C 	0.06555 0.56919 0.34972 0.06800
H 	H 	0.05800 0.56170 0.36430 0.04200
C 	C 	0.10023 0.60312 0.28445 0.37500
C 	C 	0.03408 0.60500 0.35269 0.38300
C 	C 	0.14812 0.64933 0.28384 0.39400
C 	C 	0.16114 0.66217 0.30554 -0.12800
C 	C 	0.18314 0.65094 0.31613 0.07200
H 	H 	0.19030 0.63630 0.30840 0.04100
Cu	Cu	0.10759 0.14280 0.74970 0.90600
O 	O 	0.08885 0.02630 0.87024 -0.41000
O 	O 	0.11847 0.02655 0.83998 -0.41500
O 	O 	0.12112 0.09383 0.77755 -0.40900
O 	O 	0.08950 0.12206 0.77450 -0.40600
O 	O 	0.02603 0.12499 0.84302 -0.41300
O 	O 	0.02602 0.09464 0.87274 -0.41300
O 	O 	0.12709 0.15841 0.77773 -0.41200
O 	O 	0.15889 0.13051 0.77469 -0.42200
C 	C 	0.09900 0.03507 0.85042 0.38300
C 	C 	0.08689 0.05790 0.83837 -0.12500
C 	C 	0.09778 0.06855 0.81702 0.07000
H 	H 	0.11240 0.06100 0.80950 0.04100
C 	C 	0.08720 0.09057 0.80652 -0.12300
C 	C 	0.06637 0.10219 0.81791 0.07100
H 	H 	0.05960 0.11740 0.81090 0.04100
C 	C 	0.05543 0.09170 0.83934 -0.12500
C 	C 	0.06555 0.06919 0.84972 0.06800
H 	H 	0.05800 0.06170 0.86430 0.04200
C 	C 	0.10023 0.10312 0.78445 0.37500
C 	C 	0.03408 0.10500 0.85269 0.38400
C 	C 	0.14812 0.14933 0.78384 0.39400
C 	C 	0.16114 0.16217 0.80554 -0.12800
C 	C 	0.18314 0.15094 0.81613 0.07200
H 	H 	0.19030 0.13630 0.80840 0.04100
Cu	Cu	0.39054 0.00000 0.10535 0.90800
Cu	Cu	0.35466 -0.00000 0.14009 0.90800
Cu	Cu	0.39054 0.50000 0.60535 0.90800
Cu	Cu	0.35466 0.50000 0.64009 0.90800
Cu	Cu	0.89054 0.00000 0.60535 0.90800
Cu	Cu	0.85466 0.00000 0.64009 0.90800
Cu	Cu	0.89054 0.50000 0.10535 0.90800
Cu	Cu	0.85466 0.50000 0.14009 0.90800
Cu	Cu	0.60946 0.00000 0.10535 0.90800
Cu	Cu	0.64534 -0.00000 0.14009 0.90800
Cu	Cu	0.60946 0.50000 0.60535 0.90800
Cu	Cu	0.64534 0.50000 0.64009 0.90800
Cu	Cu	0.10946 0.00000 0.60535 0.90800
Cu	Cu	0.14534 0.00000 0.64009 0.90800
Cu	Cu	0.10946 0.50000 0.10535 0.90800
Cu	Cu	0.14534 0.50000 0.14009 0.90800
Cu	Cu	0.60946 0.00000 0.89465 0.90800
Cu	Cu	0.64534 0.00000 0.85991 0.90800
Cu	Cu	0.60946 0.50000 0.39465 0.90800
Cu	Cu	0.64534 0.50000 0.35991 0.90800
Cu	Cu	0.10946 -0.00000 0.39465 0.90800
Cu	Cu	0.14534 0.00000 0.35991 0.90800
Cu	Cu	0.10946 0.50000 0.89465 0.90800
Cu	Cu	0.14534 0.50000 0.85991 0.90800
Cu	Cu	0.39054 0.00000 0.89465 0.90800
Cu	Cu	0.35466 0.00000 0.85991 0.90800
Cu	Cu	0.39054 0.50000 0.39465 0.90800
Cu	Cu	0.35466 0.50000 0.35991 0.90800
Cu	Cu	0.89054 -0.00000 0.39465 0.90800
Cu	Cu	0.85466 0.00000 0.35991 0.90800
Cu	Cu	0.89054 0.50000 0.89465 0.90900
Cu	Cu	0.85466 0.50000 0.85991 0.90800
Cu	Cu	0.10535 0.39054 -0.00000 0.90800
Cu	Cu	0.14009 0.35466 -0.00000 0.90800
Cu	Cu	0.10535 0.89054 0.50000 0.90800
Cu	Cu	0.14009 0.85466 0.50000 0.90800
Cu	Cu	0.60535 0.39054 0.50000 0.90800
Cu	Cu	0.64009 0.35466 0.50000 0.90800
Cu	Cu	0.60535 0.89054 -0.00000 0.90800
Cu	Cu	0.64009 0.85466 -0.00000 0.90800
Cu	Cu	0.10535 0.60946 -0.00000 0.90800
Cu	Cu	0.14009 0.64534 -0.00000 0.90800
Cu	Cu	0.10535 0.10946 0.50000 0.90800
Cu	Cu	0.14009 0.14534 0.50000 0.90800
Cu	Cu	0.60535 0.60946 0.50000 0.90800
Cu	Cu	0.64009 0.64534 0.50000 0.90800
Cu	Cu	0.60535 0.10946 -0.00000 0.90800
Cu	Cu	0.64009 0.14534 -0.00000 0.90800
Cu	Cu	0.89465 0.60946 -0.00000 0.90800
Cu	Cu	0.85991 0.64534 -0.00000 0.90800
Cu	Cu	0.89465 0.10946 0.50000 0.90800
Cu	Cu	0.85991 0.14534 0.50000 0.90800
Cu	Cu	0.39465 0.60946 0.50000 0.90800
Cu	Cu	0.35991 0.64534 0.50000 0.90800
Cu	Cu	0.39465 0.10946 -0.00000 0.90800
Cu	Cu	0.35991 0.14534 -0.00000 0.90800
Cu	Cu	0.89465 0.39054 -0.00000 0.90800
Cu	Cu	0.85991 0.35466 -0.00000 0.90800
Cu	Cu	0.89465 0.89054 0.50000 0.90900
Cu	Cu	0.85991 0.85466 0.50000 0.90800
Cu	Cu	0.39465 0.39054 0.50000 0.90800
Cu	Cu	0.35991 0.35466 0.50000 0.90800
Cu	Cu	0.39465 0.89054 -0.00000 0.90800
Cu	Cu	0.35991 0.85466 -0.00000 0.90800
Cu	Cu	0.00000 0.10535 0.39054 0.90800
Cu	Cu	-0.00000 0.14009 0.35466 0.90800
Cu	Cu	-0.00000 0.60535 0.89054 0.90800
Cu	Cu	0.00000 0.64009 0.85466 0.90800
Cu	Cu	0.50000 0.10535 0.89054 0.90800
Cu	Cu	0.50000 0.14009 0.85466 0.90800
Cu	Cu	0.50000 0.60535 0.39054 0.90800
Cu	Cu	0.50000 0.64009 0.35466 0.90800
Cu	Cu	-0.00000 0.10535 0.60946 0.90800
Cu	Cu	-0.00000 0.14009 0.64534 0.90800
Cu	Cu	0.00000 0.60535 0.10946 0.90800
Cu	Cu	-0.00000 0.64009 0.14534 0.90800
Cu	Cu	0.50000 0.10535 0.10946 0.90800
Cu	Cu	0.50000 0.14009 0.14534 0.90800
Cu	Cu	0.50000 0.60535 0.60946 0.90800
Cu	Cu	0.50000 0.64009 0.64534 0.90800
Cu	Cu	-0.00000 0.89465 0.60946 0.90800
Cu	Cu	0.00000 0.85991 0.64534 0.90800
Cu	Cu	-0.00000 0.39465 0.10946 0.90800
Cu	Cu	0.00000 0.35991 0.14534 0.90800
Cu	Cu	0.50000 0.89465 0.10946 0.90800
Cu	Cu	0.50000 0.85991 0.14534 0.90800
Cu	Cu	0.50000 0.39465 0.60946 0.90800
Cu	Cu	0.50000 0.35991 0.64534 0.90800
Cu	Cu	0.00000 0.89465 0.39054 0.90800
Cu	Cu	0.00000 0.85991 0.35466 0.90800
Cu	Cu	-0.00000 0.39465 0.89054 0.90800
Cu	Cu	0.00000 0.35991 0.85466 0.90800
Cu	Cu	0.50000 0.89465 0.89054 0.90900
Cu	Cu	0.50000 0.85991 0.85466 0.90800
Cu	Cu	0.50000 0.39465 0.39054 0.90800
Cu	Cu	0.50000 0.35991 0.35466 0.90800
Cu	Cu	0.50000 0.89054 0.39465 0.90900
Cu	Cu	0.50000 0.85466 0.35991 0.90800
Cu	Cu	0.50000 0.39054 0.89465 0.90900
Cu	Cu	0.50000 0.35466 0.85991 0.90800
Cu	Cu	0.00000 0.89054 0.89465 0.90800
Cu	Cu	0.00000 0.85466 0.85991 0.90800
Cu	Cu	-0.00000 0.39054 0.39465 0.90800
Cu	Cu	-0.00000 0.35466 0.35991 0.90800
Cu	Cu	0.50000 0.10946 0.39465 0.90800
Cu	Cu	0.50000 0.14534 0.35991 0.90800
Cu	Cu	0.50000 0.60946 0.89465 0.90900
Cu	Cu	0.50000 0.64534 0.85991 0.90800
Cu	Cu	0.00000 0.10946 0.89465 0.90800
Cu	Cu	0.00000 0.14534 0.85991 0.90800
Cu	Cu	0.00000 0.60946 0.39465 0.90800
Cu	Cu	0.00000 0.64534 0.35991 0.90800
Cu	Cu	0.50000 0.10946 0.60535 0.90800
Cu	Cu	0.50000 0.14534 0.64009 0.90800
Cu	Cu	0.50000 0.60946 0.10535 0.90800
Cu	Cu	0.50000 0.64534 0.14009 0.90800
Cu	Cu	0.00000 0.10946 0.10535 0.90800
Cu	Cu	-0.00000 0.14534 0.14009 0.90800
Cu	Cu	-0.00000 0.60946 0.60535 0.90800
Cu	Cu	0.00000 0.64534 0.64009 0.90800
Cu	Cu	0.50000 0.89054 0.60535 0.90900
Cu	Cu	0.50000 0.85466 0.64009 0.90800
Cu	Cu	0.50000 0.39054 0.10535 0.90800
Cu	Cu	0.50000 0.35466 0.14009 0.90800
Cu	Cu	0.00000 0.89054 0.10535 0.90800
Cu	Cu	0.00000 0.85466 0.14009 0.90800
Cu	Cu	-0.00000 0.39054 0.60535 0.90800
Cu	Cu	0.00000 0.35466 0.64009 0.90800
Cu	Cu	0.89054 0.60535 0.50000 0.90900
Cu	Cu	0.85466 0.64009 0.50000 0.90800
Cu	Cu	0.89054 0.10535 -0.00000 0.90800
Cu	Cu	0.85466 0.14009 -0.00000 0.90800
Cu	Cu	0.39054 0.60535 -0.00000 0.90800
Cu	Cu	0.35466 0.64009 -0.00000 0.90800
Cu	Cu	0.39054 0.10535 0.50000 0.90800
Cu	Cu	0.35466 0.14009 0.50000 0.90800
Cu	Cu	0.10946 0.60535 0.50000 0.90800
Cu	Cu	0.14534 0.64009 0.50000 0.90800
Cu	Cu	0.10946 0.10535 -0.00000 0.90800
Cu	Cu	0.14534 0.14009 -0.00000 0.90800
Cu	Cu	0.60946 0.60535 -0.00000 0.90800
Cu	Cu	0.64534 0.64009 -0.00000 0.90800
Cu	Cu	0.60946 0.10535 0.50000 0.90800
Cu	Cu	0.64534 0.14009 0.50000 0.90800
Cu	Cu	0.10946 0.39465 0.50000 0.90800
Cu	Cu	0.14534 0.35991 0.50000 0.90800
Cu	Cu	0.10946 0.89465 -0.00000 0.90800
Cu	Cu	0.14534 0.85991 -0.00000 0.90800
Cu	Cu	0.60946 0.39465 -0.00000 0.90800
Cu	Cu	0.64534 0.35991 -0.00000 0.90800
Cu	Cu	0.60946 0.89465 0.50000 0.90900
Cu	Cu	0.64534 0.85991 0.50000 0.90800
Cu	Cu	0.89054 0.39465 0.50000 0.90900
Cu	Cu	0.85466 0.35991 0.50000 0.90800
Cu	Cu	0.89054 0.89465 -0.00000 0.90800
Cu	Cu	0.85466 0.85991 -0.00000 0.90800
Cu	Cu	0.39054 0.39465 -0.00000 0.90800
Cu	Cu	0.35466 0.35991 -0.00000 0.90800
Cu	Cu	0.39054 0.89465 0.50000 0.90900
Cu	Cu	0.35466 0.85991 0.50000 0.90800
Cu	Cu	0.60535 0.50000 0.10946 0.90800
Cu	Cu	0.64009 0.50000 0.14534 0.90800
Cu	Cu	0.60535 -0.00000 0.60946 0.90800
Cu	Cu	0.64009 0.00000 0.64534 0.90800
Cu	Cu	0.10535 0.50000 0.60946 0.90800
Cu	Cu	0.14009 0.50000 0.64534 0.90800
Cu	Cu	0.10535 0.00000 0.10946 0.90800
Cu	Cu	0.14009 0.00000 0.14534 0.90800
Cu	Cu	0.60535 0.50000 0.89054 0.90900
Cu	Cu	0.64009 0.50000 0.85466 0.90800
Cu	Cu	0.60535 -0.00000 0.39054 0.90800
Cu	Cu	0.64009 -0.00000 0.35466 0.90800
Cu	Cu	0.10535 0.50000 0.39054 0.90800
Cu	Cu	0.14009 0.50000 0.35466 0.90800
Cu	Cu	0.10535 0.00000 0.89054 0.90800
Cu	Cu	0.14009 0.00000 0.85466 0.90800
Cu	Cu	0.39465 0.50000 0.89054 0.90900
Cu	Cu	0.35991 0.50000 0.85466 0.90800
Cu	Cu	0.39465 -0.00000 0.39054 0.90800
Cu	Cu	0.35991 -0.00000 0.35466 0.90800
Cu	Cu	0.89465 0.50000 0.39054 0.90900
Cu	Cu	0.85991 0.50000 0.35466 0.90800
Cu	Cu	0.89465 0.00000 0.89054 0.90800
Cu	Cu	0.85991 0.00000 0.85466 0.90800
Cu	Cu	0.39465 0.50000 0.10946 0.90800
Cu	Cu	0.35991 0.50000 0.14534 0.90800
Cu	Cu	0.39465 -0.00000 0.60946 0.90800
Cu	Cu	0.35991 0.00000 0.64534 0.90800
Cu	Cu	0.89465 0.50000 0.60946 0.90900
Cu	Cu	0.85991 0.50000 0.64534 0.90800
Cu	Cu	0.89465 0.00000 0.10946 0.90800
Cu	Cu	0.85991 0.00000 0.14534 0.90800
