data_crystal

_cell_length_a 17.93090
_cell_length_b 17.93090
_cell_length_c 17.93090
_cell_angle_alpha 90.00000
_cell_angle_beta  90.00000
_cell_angle_gamma 90.00000

_symmetry_space_group_name_	'P 1'
_symmetry_space_group_name_H-M	'P 1'

loop_
_symmetry_equiv_pos_as_xyz
  x,y,z

loop_
_atom_site_label
_atom_site_type_symbol
_atom_site_fract_x
_atom_site_fract_y
_atom_site_fract_z
_atom_site_charge
O 	O 	-0.19973 0.08928 -0.01010 -0.62500
O 	O 	0.18740 0.11581 0.00421 -0.61900
O 	O 	-0.01357 0.20015 0.08968 -0.62500
O 	O 	-0.00421 0.18740 -0.11581 -0.61800
O 	O 	0.00954 0.09017 -0.19936 -0.62700
O 	O 	-0.01299 0.11623 0.18744 -0.61800
O 	O 	0.09017 0.19936 -0.00955 -0.62700
O 	O 	-0.11581 0.18705 -0.00834 -0.61600
Zr	Zr	-0.00828 0.13265 -0.00848 3.23100
O 	O 	0.06757 0.06757 -0.06757 -1.25700
O 	O 	-0.07651 0.06728 0.05875 -1.26100
C 	C 	-0.18387 0.16027 -0.00752 0.44900
C 	C 	0.16093 0.18355 -0.00384 0.45100
C 	C 	-0.01320 0.18435 0.16075 0.44500
C 	C 	0.00384 0.16093 -0.18355 0.44800
H 	H 	0.08856 0.10952 0.09840 0.30700
O 	O 	0.05901 0.07538 0.06681 -1.48800
H 	H 	-0.09840 0.08856 -0.10951 0.30600
O 	O 	-0.06681 0.05901 -0.07538 -1.48800
O 	O 	0.20015 -0.08968 0.01357 -0.62500
O 	O 	-0.18625 -0.11701 -0.00852 -0.61700
O 	O 	0.08928 0.01010 0.19973 -0.62400
O 	O 	0.11581 -0.00421 -0.18740 -0.61900
O 	O 	-0.08968 -0.01357 -0.20015 -0.62600
O 	O 	-0.11701 0.00852 0.18625 -0.61700
O 	O 	0.00852 -0.18625 0.11701 -0.61700
O 	O 	0.01010 -0.19973 -0.08928 -0.62400
O 	O 	-0.00639 -0.08890 0.20021 -0.62800
O 	O 	0.00834 -0.11581 -0.18705 -0.61600
O 	O 	0.18705 0.00834 0.11581 -0.61600
O 	O 	-0.20021 -0.00639 0.08890 -0.62800
O 	O 	-0.18744 -0.01299 -0.11623 -0.61900
O 	O 	0.19936 0.00954 -0.09017 -0.62700
O 	O 	0.11623 -0.18744 0.01299 -0.61900
O 	O 	-0.08890 -0.20021 0.00640 -0.62800
Zr	Zr	0.13265 0.00848 0.00828 3.23100
Zr	Zr	-0.13255 -0.00909 -0.00890 3.23100
Zr	Zr	-0.00909 0.00890 0.13255 3.23100
Zr	Zr	0.00848 -0.00828 -0.13265 3.23100
Zr	Zr	0.00890 -0.13255 0.00909 3.23100
O 	O 	-0.05875 -0.07651 -0.06728 -1.26100
O 	O 	0.06728 -0.05875 0.07651 -1.26100
C 	C 	0.18435 -0.16075 0.01320 0.44200
C 	C 	-0.15954 -0.18475 -0.00142 0.44500
C 	C 	0.16027 0.00752 0.18387 0.45200
C 	C 	0.18355 0.00384 -0.16093 0.44800
C 	C 	-0.16075 -0.01320 -0.18435 0.43900
C 	C 	-0.18475 0.00142 0.15954 0.44800
C 	C 	0.00142 -0.15954 0.18476 0.44800
C 	C 	0.00752 -0.18387 -0.16027 0.44600
H 	H 	-0.09882 -0.09882 0.09882 0.30600
O 	O 	-0.06701 -0.06701 0.06701 -1.48400
H 	H 	0.10951 -0.09840 -0.08856 0.30700
O 	O 	0.07538 -0.06681 -0.05901 -1.48800
O 	O 	0.30027 0.58928 -0.01010 -0.62400
O 	O 	0.68740 0.61581 0.00421 -0.61800
O 	O 	0.48643 0.70015 0.08968 -0.62500
O 	O 	0.49579 0.68740 -0.11581 -0.61800
O 	O 	0.50954 0.59017 -0.19936 -0.62700
O 	O 	0.48701 0.61623 0.18744 -0.61800
O 	O 	0.59017 0.69936 -0.00955 -0.62700
O 	O 	0.38419 0.68705 -0.00834 -0.61600
Zr	Zr	0.49172 0.63265 -0.00848 3.23100
O 	O 	0.56757 0.56757 -0.06757 -1.25700
O 	O 	0.42349 0.56728 0.05875 -1.26100
C 	C 	0.31613 0.66027 -0.00752 0.45200
C 	C 	0.66093 0.68355 -0.00384 0.45200
C 	C 	0.48680 0.68435 0.16075 0.44600
C 	C 	0.50384 0.66093 -0.18355 0.44800
H 	H 	0.58856 0.60952 0.09840 0.30700
O 	O 	0.55901 0.57538 0.06681 -1.48800
H 	H 	0.40160 0.58856 -0.10951 0.30700
O 	O 	0.43319 0.55901 -0.07538 -1.48800
O 	O 	0.70015 0.41032 0.01357 -0.62500
O 	O 	0.31375 0.38299 -0.00852 -0.61700
O 	O 	0.58928 0.51010 0.19973 -0.62300
O 	O 	0.61581 0.49579 -0.18740 -0.61900
O 	O 	0.41032 0.48643 -0.20015 -0.62500
O 	O 	0.38299 0.50852 0.18625 -0.61700
O 	O 	0.50852 0.31375 0.11701 -0.61700
O 	O 	0.51010 0.30027 -0.08928 -0.62300
O 	O 	0.49361 0.41110 0.20021 -0.62700
O 	O 	0.50834 0.38419 -0.18705 -0.61600
O 	O 	0.68705 0.50834 0.11581 -0.61600
O 	O 	0.29979 0.49361 0.08890 -0.62800
O 	O 	0.31256 0.48701 -0.11623 -0.61800
O 	O 	0.69936 0.50954 -0.09017 -0.62700
O 	O 	0.61623 0.31256 0.01299 -0.61800
O 	O 	0.41110 0.29979 0.00640 -0.62800
Zr	Zr	0.63265 0.50848 0.00828 3.23100
Zr	Zr	0.36745 0.49091 -0.00890 3.23100
Zr	Zr	0.49091 0.50890 0.13255 3.23100
Zr	Zr	0.50848 0.49172 -0.13265 3.23100
Zr	Zr	0.50890 0.36745 0.00909 3.23100
O 	O 	0.44125 0.42349 -0.06728 -1.26100
O 	O 	0.56728 0.44125 0.07651 -1.26100
C 	C 	0.68435 0.33925 0.01320 0.44500
C 	C 	0.34046 0.31525 -0.00142 0.45100
C 	C 	0.66027 0.50752 0.18387 0.45300
C 	C 	0.68355 0.50384 -0.16093 0.44900
C 	C 	0.33925 0.48680 -0.18435 0.44200
C 	C 	0.31525 0.50142 0.15954 0.45100
C 	C 	0.50142 0.34046 0.18476 0.45100
C 	C 	0.50752 0.31613 -0.16027 0.44900
H 	H 	0.40118 0.40118 0.09882 0.30700
O 	O 	0.43299 0.43299 0.06701 -1.48400
H 	H 	0.60951 0.40160 -0.08856 0.30700
O 	O 	0.57538 0.43319 -0.05901 -1.48800
O 	O 	-0.19973 0.58928 0.48990 -0.62400
O 	O 	0.18740 0.61581 0.50421 -0.61800
O 	O 	-0.01357 0.70015 0.58968 -0.62500
O 	O 	-0.00421 0.68740 0.38419 -0.61800
O 	O 	0.00954 0.59017 0.30064 -0.62700
O 	O 	-0.01299 0.61623 0.68744 -0.61800
O 	O 	0.09017 0.69936 0.49046 -0.62700
O 	O 	-0.11581 0.68705 0.49166 -0.61600
Zr	Zr	-0.00828 0.63265 0.49152 3.23100
O 	O 	0.06757 0.56757 0.43243 -1.25700
O 	O 	-0.07651 0.56728 0.55875 -1.26100
C 	C 	-0.18387 0.66027 0.49248 0.44900
C 	C 	0.16093 0.68355 0.49616 0.45200
C 	C 	-0.01320 0.68435 0.66075 0.44600
C 	C 	0.00384 0.66093 0.31645 0.45200
H 	H 	0.08856 0.60951 0.59840 0.30700
O 	O 	0.05901 0.57538 0.56681 -1.48800
H 	H 	-0.09840 0.58856 0.39049 0.30700
O 	O 	-0.06681 0.55901 0.42462 -1.48800
O 	O 	0.20015 0.41032 0.51357 -0.62500
O 	O 	-0.18625 0.38299 0.49148 -0.61700
O 	O 	0.08928 0.51010 0.69973 -0.62300
O 	O 	0.11581 0.49579 0.31260 -0.61800
O 	O 	-0.08968 0.48643 0.29985 -0.62500
O 	O 	-0.11701 0.50852 0.68625 -0.61600
O 	O 	0.00852 0.31375 0.61701 -0.61700
O 	O 	0.01010 0.30027 0.41072 -0.62300
O 	O 	-0.00640 0.41110 0.70021 -0.62800
O 	O 	0.00834 0.38419 0.31295 -0.61600
O 	O 	0.18705 0.50834 0.61581 -0.61600
O 	O 	-0.20021 0.49360 0.58890 -0.62800
O 	O 	-0.18744 0.48701 0.38377 -0.61800
O 	O 	0.19936 0.50954 0.40983 -0.62700
O 	O 	0.11623 0.31256 0.51299 -0.61800
O 	O 	-0.08890 0.29979 0.50639 -0.62700
Zr	Zr	0.13265 0.50848 0.50828 3.23100
Zr	Zr	-0.13255 0.49091 0.49110 3.23100
Zr	Zr	-0.00909 0.50890 0.63255 3.23100
Zr	Zr	0.00848 0.49172 0.36735 3.23100
Zr	Zr	0.00890 0.36745 0.50909 3.23100
O 	O 	-0.05875 0.42349 0.43272 -1.26100
O 	O 	0.06728 0.44125 0.57651 -1.26100
C 	C 	0.18435 0.33925 0.51320 0.44500
C 	C 	-0.15954 0.31525 0.49858 0.44800
C 	C 	0.16027 0.50752 0.68387 0.45300
C 	C 	0.18355 0.50384 0.33907 0.45100
C 	C 	-0.16075 0.48680 0.31565 0.44200
C 	C 	-0.18476 0.50142 0.65954 0.44800
C 	C 	0.00142 0.34046 0.68475 0.45100
C 	C 	0.00752 0.31613 0.33973 0.45200
H 	H 	-0.09882 0.40118 0.59882 0.30600
O 	O 	-0.06701 0.43299 0.56701 -1.48400
H 	H 	0.10952 0.40160 0.41144 0.30700
O 	O 	0.07538 0.43319 0.44099 -1.48800
O 	O 	0.30027 0.08928 0.48990 -0.62300
O 	O 	0.68740 0.11581 0.50421 -0.61800
O 	O 	0.48643 0.20015 0.58968 -0.62500
O 	O 	0.49579 0.18740 0.38419 -0.61800
O 	O 	0.50954 0.09017 0.30064 -0.62700
O 	O 	0.48701 0.11623 0.68744 -0.61800
O 	O 	0.59017 0.19936 0.49046 -0.62700
O 	O 	0.38419 0.18705 0.49166 -0.61600
Zr	Zr	0.49172 0.13265 0.49152 3.23100
O 	O 	0.56757 0.06757 0.43243 -1.25700
O 	O 	0.42349 0.06728 0.55875 -1.26100
C 	C 	0.31613 0.16027 0.49248 0.45200
C 	C 	0.66093 0.18355 0.49616 0.45200
C 	C 	0.48680 0.18435 0.66075 0.44600
C 	C 	0.50384 0.16093 0.31645 0.45100
H 	H 	0.58856 0.10951 0.59840 0.30700
O 	O 	0.55901 0.07538 0.56681 -1.48800
H 	H 	0.40160 0.08856 0.39049 0.30700
O 	O 	0.43319 0.05901 0.42462 -1.48800
O 	O 	0.70015 -0.08968 0.51357 -0.62500
O 	O 	0.31375 -0.11701 0.49148 -0.61700
O 	O 	0.58928 0.01010 0.69973 -0.62300
O 	O 	0.61581 -0.00421 0.31260 -0.61800
O 	O 	0.41032 -0.01357 0.29985 -0.62500
O 	O 	0.38299 0.00852 0.68625 -0.61700
O 	O 	0.50852 -0.18625 0.61701 -0.61700
O 	O 	0.51010 -0.19973 0.41072 -0.62400
O 	O 	0.49360 -0.08890 0.70021 -0.62700
O 	O 	0.50834 -0.11581 0.31295 -0.61600
O 	O 	0.68705 0.00834 0.61581 -0.61600
O 	O 	0.29979 -0.00640 0.58890 -0.62800
O 	O 	0.31256 -0.01299 0.38377 -0.61800
O 	O 	0.69936 0.00954 0.40983 -0.62700
O 	O 	0.61623 -0.18744 0.51299 -0.61800
O 	O 	0.41110 -0.20021 0.50639 -0.62800
Zr	Zr	0.63265 0.00848 0.50828 3.23100
Zr	Zr	0.36745 -0.00909 0.49110 3.23100
Zr	Zr	0.49091 0.00890 0.63255 3.23100
Zr	Zr	0.50848 -0.00828 0.36735 3.23100
Zr	Zr	0.50890 -0.13255 0.50909 3.23100
O 	O 	0.44125 -0.07651 0.43272 -1.26100
O 	O 	0.56728 -0.05875 0.57651 -1.26100
C 	C 	0.68435 -0.16075 0.51320 0.44300
C 	C 	0.34046 -0.18475 0.49858 0.44800
C 	C 	0.66027 0.00752 0.68387 0.45300
C 	C 	0.68355 0.00384 0.33907 0.45200
C 	C 	0.33925 -0.01320 0.31565 0.44500
C 	C 	0.31524 0.00142 0.65954 0.45100
C 	C 	0.50142 -0.15954 0.68475 0.44800
C 	C 	0.50752 -0.18387 0.33973 0.44900
H 	H 	0.40118 -0.09882 0.59882 0.30600
O 	O 	0.43299 -0.06701 0.56701 -1.48400
H 	H 	0.60952 -0.09840 0.41144 0.30700
O 	O 	0.57538 -0.06681 0.44099 -1.48800
C 	C 	0.21311 0.25041 -0.00600 -0.10400
C 	C 	0.28849 0.24818 -0.00076 -0.10400
H 	H 	0.18715 0.30465 -0.01183 0.09500
H 	H 	0.31448 0.19397 0.00516 0.09500
C 	C 	0.21311 0.75041 0.49400 -0.10500
C 	C 	0.28849 0.74818 0.49924 -0.10000
H 	H 	0.18715 0.80465 0.48818 0.09700
H 	H 	0.31448 0.69397 0.50516 0.09500
C 	C 	0.78849 0.74818 -0.00076 -0.09700
C 	C 	0.71311 0.75041 -0.00600 -0.10600
H 	H 	0.81448 0.69397 0.00516 0.09400
H 	H 	0.68715 0.80465 -0.01183 0.09700
C 	C 	0.78849 0.24818 0.49924 -0.10000
C 	C 	0.71311 0.25041 0.49400 -0.10500
H 	H 	0.81448 0.19397 0.50516 0.09500
H 	H 	0.68715 0.30465 0.48818 0.09700
C 	C 	0.74916 0.21249 -0.00337 -0.10100
C 	C 	0.75132 0.28693 0.01060 -0.10300
H 	H 	0.69484 0.18716 -0.01090 0.09200
H 	H 	0.80563 0.31231 0.01804 0.09600
C 	C 	0.74916 0.71249 0.49663 -0.10100
C 	C 	0.75132 0.78693 0.51060 -0.10000
H 	H 	0.69484 0.68716 0.48910 0.09400
H 	H 	0.80563 0.81231 0.51804 0.09600
C 	C 	0.25132 0.28693 0.51060 -0.10200
C 	C 	0.24916 0.21249 0.49663 -0.10400
H 	H 	0.30563 0.31231 0.51804 0.09500
H 	H 	0.19484 0.18716 0.48910 0.09300
C 	C 	0.25132 0.78693 0.01060 -0.09900
C 	C 	0.24916 0.71249 -0.00337 -0.10500
H 	H 	0.30563 0.81231 0.01804 0.09500
H 	H 	0.19484 0.68716 -0.01090 0.09300
C 	C 	-0.01060 0.25132 0.21307 -0.10300
C 	C 	0.00337 0.24916 0.28751 -0.10400
H 	H 	-0.01804 0.30563 0.18769 0.09500
H 	H 	0.01090 0.19484 0.31284 0.09300
C 	C 	0.50337 0.24916 0.78751 -0.10000
C 	C 	0.48940 0.25132 0.71307 -0.10300
H 	H 	0.51090 0.19484 0.81284 0.09300
H 	H 	0.48196 0.30563 0.68769 0.09600
C 	C 	0.00337 0.74916 0.78751 -0.09800
C 	C 	-0.01060 0.75132 0.71307 -0.10400
H 	H 	0.01090 0.69484 0.81284 0.09200
H 	H 	-0.01804 0.80563 0.68769 0.09600
C 	C 	0.48940 0.75132 0.21307 -0.10300
C 	C 	0.50337 0.74916 0.28751 -0.10100
H 	H 	0.48196 0.80563 0.18769 0.09600
H 	H 	0.51090 0.69484 0.31284 0.09300
C 	C 	0.00076 0.78849 0.25182 -0.10100
C 	C 	0.00600 0.71311 0.24959 -0.10500
H 	H 	-0.00516 0.81448 0.30603 0.09400
H 	H 	0.01183 0.68715 0.19535 0.09600
C 	C 	0.50600 0.71311 0.74959 -0.10100
C 	C 	0.50076 0.78849 0.75182 -0.10100
H 	H 	0.51182 0.68715 0.69535 0.09600
H 	H 	0.49484 0.81448 0.80603 0.09600
C 	C 	0.50076 0.28849 0.25182 -0.10400
C 	C 	0.50600 0.21311 0.24959 -0.10400
H 	H 	0.49484 0.31448 0.30603 0.09500
H 	H 	0.51183 0.18715 0.19535 0.09600
C 	C 	0.00600 0.21311 0.74959 -0.10000
C 	C 	0.00076 0.28849 0.75182 -0.10500
H 	H 	0.01182 0.18715 0.69535 0.09500
H 	H 	-0.00516 0.31448 0.80603 0.09600
C 	C 	0.21249 0.00337 0.25084 -0.10400
C 	C 	0.28693 -0.01060 0.24868 -0.10300
H 	H 	0.18716 0.01090 0.30516 0.09300
H 	H 	0.31231 -0.01804 0.19437 0.09500
C 	C 	0.28693 0.48940 0.74868 -0.09900
C 	C 	0.21249 0.50337 0.75084 -0.10500
H 	H 	0.31231 0.48196 0.69437 0.09500
H 	H 	0.18716 0.51090 0.80516 0.09400
C 	C 	0.78693 -0.01060 0.74868 -0.09600
C 	C 	0.71249 0.00337 0.75084 -0.10600
H 	H 	0.81231 -0.01804 0.69437 0.09400
H 	H 	0.68716 0.01090 0.80516 0.09500
C 	C 	0.71249 0.50337 0.25084 -0.10500
C 	C 	0.78693 0.48940 0.24868 -0.09900
H 	H 	0.68716 0.51090 0.30516 0.09400
H 	H 	0.81231 0.48196 0.19437 0.09500
C 	C 	0.25041 0.00600 0.78689 -0.10100
C 	C 	0.24818 0.00076 0.71151 -0.10500
H 	H 	0.30465 0.01182 0.81285 0.09500
H 	H 	0.19397 -0.00516 0.68552 0.09500
C 	C 	0.24818 0.50076 0.21151 -0.10400
C 	C 	0.25041 0.50600 0.28689 -0.10400
H 	H 	0.19397 0.49484 0.18552 0.09500
H 	H 	0.30465 0.51182 0.31285 0.09600
C 	C 	0.74818 0.00076 0.21151 -0.10000
C 	C 	0.75041 0.00600 0.28689 -0.10500
H 	H 	0.69397 -0.00516 0.18552 0.09400
H 	H 	0.80465 0.01182 0.31285 0.09600
C 	C 	0.75041 0.50600 0.78689 -0.10100
C 	C 	0.74818 0.50076 0.71151 -0.10100
H 	H 	0.80465 0.51182 0.81285 0.09700
H 	H 	0.69397 0.49484 0.68552 0.09500
