data_crystal

_cell_length_a 23.96510
_cell_length_b 29.28420
_cell_length_c 17.35450
_cell_angle_alpha 90.00000
_cell_angle_beta  96.30100
_cell_angle_gamma 90.00000

_symmetry_space_group_name_	'P 1'
_symmetry_space_group_name_H-M	'P 1'

loop_
_symmetry_equiv_pos_as_xyz
  x,y,z

loop_
_atom_site_label
_atom_site_type_symbol
_atom_site_fract_x
_atom_site_fract_y
_atom_site_fract_z
_atom_site_charge
Zr	Zr	0.16605 0.20733 0.53357 3.24000
Zr	Zr	0.29804 0.23111 0.62936 3.22800
Zr	Zr	0.21407 0.32190 0.55258 3.28500
O 	O 	0.29260 0.29220 0.56590 -9.22800
O 	O 	0.13900 0.33557 0.60340 -0.66900
O 	O 	0.23930 0.33962 0.67750 -0.70300
O 	O 	0.29090 0.27799 0.72560 -0.85400
O 	O 	0.24940 0.32380 0.43790 -0.37600
O 	O 	0.20700 0.25760 0.61990 0.04700
O 	O 	0.15460 0.27550 0.47060 -0.71300
O 	O 	0.33260 0.32484 0.35030 -0.68900
O 	O 	0.24550 0.30821 0.28680 -0.66300
O 	O 	0.84610 0.66731 0.64720 -0.72600
O 	O 	0.26010 0.61340 0.05070 -0.68700
O 	O 	0.83870 0.63239 0.53030 -0.62000
O 	O 	0.34010 0.63250 0.99010 -0.70900
O 	O 	0.58840 0.30420 0.96270 -0.90700
C 	C 	0.30090 0.41180 0.87780 -0.02600
C 	C 	0.28700 0.34250 0.80310 -0.16500
C 	C 	0.29470 0.32610 0.29310 0.50400
C 	C 	0.36020 0.41020 0.01130 -0.02500
C 	C 	0.31030 0.34980 0.22160 -0.15900
C 	C 	0.26960 0.31840 0.72790 0.39600
C 	C 	0.34760 0.46160 0.01650 0.02600
C 	C 	0.34120 0.38910 0.08560 0.02900
C 	C 	0.30470 0.60440 0.02090 0.39100
C 	C 	0.32010 0.55500 0.02050 -0.13700
C 	C 	0.27910 0.38910 0.80980 0.05000
C 	C 	0.32910 0.38740 0.93890 0.02500
C 	C 	0.31350 0.31780 0.86550 0.04600
C 	C 	0.33450 0.34020 0.93200 -0.03200
C 	C 	0.42200 0.39980 0.00120 0.02300
C 	C 	0.29200 0.36460 0.08450 -0.03200
C 	C 	0.37170 0.39760 0.15660 -0.03500
C 	C 	0.29410 0.47520 0.02710 -0.02600
C 	C 	0.27980 0.52230 0.02940 0.06800
C 	C 	0.35710 0.37790 0.22350 0.07000
C 	C 	0.27550 0.34610 0.15200 0.07100
C 	C 	0.44190 0.41500 0.93380 -0.02700
C 	C 	0.37320 0.54080 0.00890 0.06000
C 	C 	0.38630 0.49410 0.00610 -0.02700
C 	C 	0.51820 0.36410 0.95660 -0.13100
C 	C 	0.44970 0.36520 0.04130 -0.02800
C 	C 	0.49890 0.34900 0.01950 0.03300
C 	C 	0.56850 0.33830 0.92570 0.39900
C 	C 	0.49030 0.39840 0.90790 0.04500
C 	C 	0.95680 0.52670 0.70720 0.02800
C 	C 	0.02560 0.46040 0.69500 0.02700
C 	C 	0.00890 0.39670 0.60640 0.06300
C 	C 	0.10320 0.41560 0.66080 0.06800
C 	C 	0.06700 0.38720 0.61490 -0.14800
C 	C 	0.91630 0.56720 0.59230 0.07800
C 	C 	0.98910 0.43310 0.64600 -0.02700
C 	C 	0.95100 0.53260 0.62840 -0.03100
C 	C 	0.92690 0.55530 0.75290 -0.03200
C 	C 	0.08290 0.45230 0.70090 -0.02600
C 	C 	0.88880 0.59610 0.63870 -0.17200
C 	C 	0.85420 0.63460 0.60210 0.53800
C 	C 	0.89370 0.59040 0.71910 0.06700
C 	C 	0.08870 0.34610 0.57900 0.44200
O 	O 	0.05650 0.32220 0.53380 -0.32600
O 	O 	0.58840 0.35140 0.86160 -0.54800
O 	O 	0.17210 0.27170 0.48680 -0.21100
O 	O 	0.30880 0.30140 0.58580 7.96900
O 	O 	0.25040 0.30490 0.45480 -0.46700
O 	O 	0.21870 0.25530 0.59250 -0.92100
Zr	Zr	0.66605 0.70733 0.53357 3.23900
Zr	Zr	0.79804 0.73111 0.62936 3.22700
Zr	Zr	0.71407 0.82190 0.55258 3.28400
O 	O 	0.79260 0.79220 0.56590 -9.22800
O 	O 	0.63900 0.83557 0.60340 -0.66900
O 	O 	0.73930 0.83962 0.67750 -0.70300
O 	O 	0.79090 0.77799 0.72560 -0.85400
O 	O 	0.74940 0.82380 0.43790 -0.37600
O 	O 	0.70700 0.75760 0.61990 0.04700
O 	O 	0.65460 0.77550 0.47060 -0.71300
O 	O 	0.83260 0.82484 0.35030 -0.68900
O 	O 	0.74550 0.80821 0.28680 -0.66300
O 	O 	0.34610 0.16731 0.64720 -0.72600
O 	O 	0.76010 0.11340 0.05070 -0.68700
O 	O 	0.33870 0.13239 0.53030 -0.62000
O 	O 	0.84010 0.13250 0.99010 -0.71100
O 	O 	0.08840 0.80420 0.96270 -0.90600
C 	C 	0.80090 0.91180 0.87780 -0.02600
C 	C 	0.78700 0.84250 0.80310 -0.16500
C 	C 	0.79470 0.82610 0.29310 0.50400
C 	C 	0.86020 0.91020 0.01130 -0.02300
C 	C 	0.81030 0.84980 0.22160 -0.15900
C 	C 	0.76960 0.81840 0.72790 0.39500
C 	C 	0.84760 0.96160 0.01650 0.02600
C 	C 	0.84120 0.88910 0.08560 0.02900
C 	C 	0.80470 0.10440 0.02090 0.39300
C 	C 	0.82010 0.05500 0.02050 -0.13700
C 	C 	0.77910 0.88910 0.80980 0.05000
C 	C 	0.82910 0.88740 0.93890 0.02300
C 	C 	0.81350 0.81780 0.86550 0.04600
C 	C 	0.83450 0.84020 0.93200 -0.03300
C 	C 	0.92200 0.89980 0.00120 0.02500
C 	C 	0.79200 0.86460 0.08450 -0.03100
C 	C 	0.87170 0.89760 0.15660 -0.03500
C 	C 	0.79410 0.97520 0.02710 -0.02500
C 	C 	0.77980 0.02230 0.02940 0.06800
C 	C 	0.85710 0.87790 0.22350 0.06900
C 	C 	0.77550 0.84610 0.15200 0.07100
C 	C 	0.94190 0.91500 0.93380 -0.02900
C 	C 	0.87320 0.04080 0.00890 0.06000
C 	C 	0.88630 0.99410 0.00610 -0.02700
C 	C 	0.01820 0.86410 0.95660 -0.12900
C 	C 	0.94970 0.86520 0.04130 -0.02800
C 	C 	0.99890 0.84900 0.01950 0.03200
C 	C 	0.06850 0.83830 0.92570 0.39800
C 	C 	0.99030 0.89840 0.90790 0.04200
C 	C 	0.45680 0.02670 0.70720 0.03000
C 	C 	0.52560 0.96040 0.69500 0.02600
C 	C 	0.50890 0.89670 0.60640 0.06100
C 	C 	0.60320 0.91560 0.66080 0.06800
C 	C 	0.56700 0.88720 0.61490 -0.14700
C 	C 	0.41630 0.06720 0.59230 0.07800
C 	C 	0.48910 0.93310 0.64600 -0.02500
C 	C 	0.45100 0.03260 0.62840 -0.03100
C 	C 	0.42690 0.05530 0.75290 -0.03200
C 	C 	0.58290 0.95230 0.70090 -0.02600
C 	C 	0.38880 0.09610 0.63870 -0.17200
C 	C 	0.35420 0.13460 0.60210 0.53800
C 	C 	0.39370 0.09040 0.71910 0.06800
C 	C 	0.58870 0.84610 0.57900 0.44200
O 	O 	0.55650 0.82220 0.53380 -0.32600
O 	O 	0.08840 0.85140 0.86160 -0.54800
O 	O 	0.67210 0.77170 0.48680 -0.21100
O 	O 	0.80880 0.80140 0.58580 7.96800
O 	O 	0.75040 0.80490 0.45480 -0.46700
O 	O 	0.71870 0.75530 0.59250 -0.92100
Zr	Zr	0.83395 0.20733 0.96643 3.23800
Zr	Zr	0.70196 0.23111 0.87064 3.22700
Zr	Zr	0.78593 0.32190 0.94742 3.28400
O 	O 	0.70740 0.29220 0.93410 -9.23400
O 	O 	0.86100 0.33557 0.89660 -0.66900
O 	O 	0.76070 0.33962 0.82250 -0.70400
O 	O 	0.70910 0.27799 0.77440 -0.85400
O 	O 	0.75060 0.32380 0.06210 -0.37700
O 	O 	0.79300 0.25760 0.88010 0.04600
O 	O 	0.84540 0.27550 0.02940 -0.71300
O 	O 	0.66740 0.32484 0.14970 -0.68900
O 	O 	0.75450 0.30821 0.21320 -0.66300
O 	O 	0.15390 0.66731 0.85280 -0.72600
O 	O 	0.73990 0.61340 0.44930 -0.68700
O 	O 	0.16130 0.63239 0.96970 -0.61900
O 	O 	0.65990 0.63250 0.50990 -0.70900
O 	O 	0.41160 0.30420 0.53730 -0.90700
C 	C 	0.69910 0.41180 0.62220 -0.02600
C 	C 	0.71300 0.34250 0.69690 -0.16500
C 	C 	0.70530 0.32610 0.20690 0.50400
C 	C 	0.63980 0.41020 0.48870 -0.02400
C 	C 	0.68970 0.34980 0.27840 -0.15900
C 	C 	0.73040 0.31840 0.77210 0.39500
C 	C 	0.65240 0.46160 0.48350 0.02600
C 	C 	0.65880 0.38910 0.41440 0.02900
C 	C 	0.69530 0.60440 0.47910 0.39200
C 	C 	0.67990 0.55500 0.47950 -0.13700
C 	C 	0.72090 0.38910 0.69020 0.05000
C 	C 	0.67090 0.38740 0.56110 0.02400
C 	C 	0.68650 0.31780 0.63450 0.04600
C 	C 	0.66550 0.34020 0.56800 -0.03300
C 	C 	0.57800 0.39980 0.49880 0.02400
C 	C 	0.70800 0.36460 0.41550 -0.03100
C 	C 	0.62830 0.39760 0.34340 -0.03500
C 	C 	0.70590 0.47520 0.47290 -0.02600
C 	C 	0.72020 0.52230 0.47060 0.06800
C 	C 	0.64290 0.37790 0.27650 0.07000
C 	C 	0.72450 0.34610 0.34800 0.07100
C 	C 	0.55810 0.41500 0.56620 -0.02700
C 	C 	0.62680 0.54080 0.49110 0.06100
C 	C 	0.61370 0.49410 0.49390 -0.02700
C 	C 	0.48180 0.36410 0.54340 -0.13100
C 	C 	0.55030 0.36520 0.45870 -0.02800
C 	C 	0.50110 0.34900 0.48050 0.03300
C 	C 	0.43150 0.33830 0.57430 0.39900
C 	C 	0.50970 0.39840 0.59210 0.04500
C 	C 	0.04320 0.52670 0.79280 0.02900
C 	C 	0.97440 0.46040 0.80500 0.02100
C 	C 	0.99110 0.39670 0.89360 0.05800
C 	C 	0.89680 0.41560 0.83920 0.06700
C 	C 	0.93300 0.38720 0.88510 -0.14600
C 	C 	0.08370 0.56720 0.90770 0.07900
C 	C 	0.01090 0.43310 0.85400 -0.02100
C 	C 	0.04900 0.53260 0.87160 -0.03000
C 	C 	0.07310 0.55530 0.74710 -0.03200
C 	C 	0.91710 0.45230 0.79910 -0.02400
C 	C 	0.11120 0.59610 0.86130 -0.17200
C 	C 	0.14580 0.63460 0.89790 0.53800
C 	C 	0.10630 0.59040 0.78090 0.06800
C 	C 	0.91130 0.34610 0.92100 0.44200
O 	O 	0.94350 0.32220 0.96620 -0.32700
O 	O 	0.41160 0.35140 0.63840 -0.54800
O 	O 	0.82790 0.27170 0.01320 -0.21100
O 	O 	0.69120 0.30140 0.91420 7.97400
O 	O 	0.74960 0.30490 0.04520 -0.46500
O 	O 	0.78130 0.25530 0.90750 -0.92000
Zr	Zr	0.33395 0.70733 0.96643 3.23900
Zr	Zr	0.20196 0.73111 0.87064 3.22700
Zr	Zr	0.28593 0.82190 0.94742 3.28400
O 	O 	0.20740 0.79220 0.93410 -9.22700
O 	O 	0.36100 0.83557 0.89660 -0.66900
O 	O 	0.26070 0.83962 0.82250 -0.70300
O 	O 	0.20910 0.77799 0.77440 -0.85400
O 	O 	0.25060 0.82380 0.06210 -0.37500
O 	O 	0.29300 0.75760 0.88010 0.04700
O 	O 	0.34540 0.77550 0.02940 -0.71400
O 	O 	0.16740 0.82484 0.14970 -0.68900
O 	O 	0.25450 0.80821 0.21320 -0.66300
O 	O 	0.65390 0.16731 0.85280 -0.72600
O 	O 	0.23990 0.11340 0.44930 -0.68700
O 	O 	0.66130 0.13239 0.96970 -0.62000
O 	O 	0.15990 0.13250 0.50990 -0.70900
O 	O 	0.91160 0.80420 0.53730 -0.90700
C 	C 	0.19910 0.91180 0.62220 -0.02600
C 	C 	0.21300 0.84250 0.69690 -0.16500
C 	C 	0.20530 0.82610 0.20690 0.50400
C 	C 	0.13980 0.91020 0.48870 -0.02400
C 	C 	0.18970 0.84980 0.27840 -0.15900
C 	C 	0.23040 0.81840 0.77210 0.39600
C 	C 	0.15240 0.96160 0.48350 0.02600
C 	C 	0.15880 0.88910 0.41440 0.02900
C 	C 	0.19530 0.10440 0.47910 0.39200
C 	C 	0.17990 0.05500 0.47950 -0.13700
C 	C 	0.22090 0.88910 0.69020 0.05000
C 	C 	0.17090 0.88740 0.56110 0.02400
C 	C 	0.18650 0.81780 0.63450 0.04600
C 	C 	0.16550 0.84020 0.56800 -0.03300
C 	C 	0.07800 0.89980 0.49880 0.02400
C 	C 	0.20800 0.86460 0.41550 -0.03100
C 	C 	0.12830 0.89760 0.34340 -0.03500
C 	C 	0.20590 0.97520 0.47290 -0.02600
C 	C 	0.22020 0.02230 0.47060 0.06800
C 	C 	0.14290 0.87790 0.27650 0.06900
C 	C 	0.22450 0.84610 0.34800 0.07100
C 	C 	0.05810 0.91500 0.56620 -0.02700
C 	C 	0.12680 0.04080 0.49110 0.06100
C 	C 	0.11370 0.99410 0.49390 -0.02800
C 	C 	0.98180 0.86410 0.54340 -0.13300
C 	C 	0.05030 0.86520 0.45870 -0.02800
C 	C 	0.00110 0.84900 0.48050 0.03400
C 	C 	0.93150 0.83830 0.57430 0.39900
C 	C 	0.00970 0.89840 0.59210 0.04600
C 	C 	0.54320 0.02670 0.79280 0.03000
C 	C 	0.47440 0.96040 0.80500 0.02600
C 	C 	0.49110 0.89670 0.89360 0.06100
C 	C 	0.39680 0.91560 0.83920 0.06800
C 	C 	0.43300 0.88720 0.88510 -0.14700
C 	C 	0.58370 0.06720 0.90770 0.07800
C 	C 	0.51090 0.93310 0.85400 -0.02500
C 	C 	0.54900 0.03260 0.87160 -0.03100
C 	C 	0.57310 0.05530 0.74710 -0.03200
C 	C 	0.41710 0.95230 0.79910 -0.02500
C 	C 	0.61120 0.09610 0.86130 -0.17200
C 	C 	0.64580 0.13460 0.89790 0.53800
C 	C 	0.60630 0.09040 0.78090 0.06800
C 	C 	0.41130 0.84610 0.92100 0.44200
O 	O 	0.44350 0.82220 0.96620 -0.32600
O 	O 	0.91160 0.85140 0.63840 -0.54800
O 	O 	0.32790 0.77170 0.01320 -0.21100
O 	O 	0.19120 0.80140 0.91420 7.96700
O 	O 	0.24960 0.80490 0.04520 -0.46700
O 	O 	0.28130 0.75530 0.90750 -0.92100
Zr	Zr	0.83395 0.79267 0.46643 3.23900
Zr	Zr	0.70196 0.76889 0.37064 3.22700
Zr	Zr	0.78593 0.67810 0.44742 3.28400
O 	O 	0.70740 0.70780 0.43410 -9.22900
O 	O 	0.86100 0.66443 0.39660 -0.66900
O 	O 	0.76070 0.66038 0.32250 -0.70300
O 	O 	0.70910 0.72201 0.27440 -0.85400
O 	O 	0.75060 0.67620 0.56210 -0.37600
O 	O 	0.79300 0.74240 0.38010 0.04700
O 	O 	0.84540 0.72450 0.52940 -0.71300
O 	O 	0.66740 0.67516 0.64970 -0.68900
O 	O 	0.75450 0.69179 0.71320 -0.66300
O 	O 	0.15390 0.33269 0.35280 -0.72600
O 	O 	0.73990 0.38660 0.94930 -0.68700
O 	O 	0.16130 0.36761 0.46970 -0.62000
O 	O 	0.65990 0.36750 0.00990 -0.70900
O 	O 	0.41160 0.69580 0.03730 -0.90700
C 	C 	0.69910 0.58820 0.12220 -0.02600
C 	C 	0.71300 0.65750 0.19690 -0.16500
C 	C 	0.70530 0.67390 0.70690 0.50400
C 	C 	0.63980 0.58980 0.98870 -0.02500
C 	C 	0.68970 0.65020 0.77840 -0.15900
C 	C 	0.73040 0.68160 0.27210 0.39600
C 	C 	0.65240 0.53840 0.98350 0.02600
C 	C 	0.65880 0.61090 0.91440 0.02900
C 	C 	0.69530 0.39560 0.97910 0.39100
C 	C 	0.67990 0.44500 0.97950 -0.13700
C 	C 	0.72090 0.61090 0.19020 0.05000
C 	C 	0.67090 0.61260 0.06110 0.02500
C 	C 	0.68650 0.68220 0.13450 0.04600
C 	C 	0.66550 0.65980 0.06800 -0.03200
C 	C 	0.57800 0.60020 0.99880 0.02300
C 	C 	0.70800 0.63540 0.91550 -0.03200
C 	C 	0.62830 0.60240 0.84340 -0.03500
C 	C 	0.70590 0.52480 0.97290 -0.02700
C 	C 	0.72020 0.47770 0.97060 0.06800
C 	C 	0.64290 0.62210 0.77650 0.07000
C 	C 	0.72450 0.65390 0.84800 0.07100
C 	C 	0.55810 0.58500 0.06620 -0.02700
C 	C 	0.62680 0.45920 0.99110 0.06000
C 	C 	0.61370 0.50590 0.99390 -0.02700
C 	C 	0.48180 0.63590 0.04340 -0.13100
C 	C 	0.55030 0.63480 0.95870 -0.02800
C 	C 	0.50110 0.65100 0.98050 0.03300
C 	C 	0.43150 0.66170 0.07430 0.39900
C 	C 	0.50970 0.60160 0.09210 0.04500
C 	C 	0.04320 0.47330 0.29280 0.02900
C 	C 	0.97440 0.53960 0.30500 0.02600
C 	C 	0.99110 0.60330 0.39360 0.06100
C 	C 	0.89680 0.58440 0.33920 0.06800
C 	C 	0.93300 0.61280 0.38510 -0.14700
C 	C 	0.08370 0.43280 0.40770 0.07800
C 	C 	0.01090 0.56690 0.35400 -0.02500
C 	C 	0.04900 0.46740 0.37160 -0.03100
C 	C 	0.07310 0.44470 0.24710 -0.03300
C 	C 	0.91710 0.54770 0.29910 -0.02500
C 	C 	0.11120 0.40390 0.36130 -0.17200
C 	C 	0.14580 0.36540 0.39790 0.53800
C 	C 	0.10630 0.40960 0.28090 0.06700
C 	C 	0.91130 0.65390 0.42100 0.44200
O 	O 	0.94350 0.67780 0.46620 -0.32600
O 	O 	0.41160 0.64860 0.13840 -0.54800
O 	O 	0.82790 0.72830 0.51320 -0.21100
O 	O 	0.69120 0.69860 0.41420 7.96900
O 	O 	0.74960 0.69510 0.54520 -0.46600
O 	O 	0.78130 0.74470 0.40750 -0.92100
Zr	Zr	0.33395 0.29267 0.46643 3.23900
Zr	Zr	0.20196 0.26889 0.37064 3.22700
Zr	Zr	0.28593 0.17810 0.44742 3.28400
O 	O 	0.20740 0.20780 0.43410 -9.22800
O 	O 	0.36100 0.16443 0.39660 -0.66900
O 	O 	0.26070 0.16038 0.32250 -0.70300
O 	O 	0.20910 0.22201 0.27440 -0.85400
O 	O 	0.25060 0.17620 0.56210 -0.37600
O 	O 	0.29300 0.24240 0.38010 0.04700
O 	O 	0.34540 0.22450 0.52940 -0.71300
O 	O 	0.16740 0.17516 0.64970 -0.68900
O 	O 	0.25450 0.19179 0.71320 -0.66300
O 	O 	0.65390 0.83269 0.35280 -0.72600
O 	O 	0.23990 0.88660 0.94930 -0.68700
O 	O 	0.66130 0.86761 0.46970 -0.62000
O 	O 	0.15990 0.86750 0.00990 -0.71000
O 	O 	0.91160 0.19580 0.03730 -0.90600
C 	C 	0.19910 0.08820 0.12220 -0.02600
C 	C 	0.21300 0.15750 0.19690 -0.16500
C 	C 	0.20530 0.17390 0.70690 0.50400
C 	C 	0.13980 0.08980 0.98870 -0.02300
C 	C 	0.18970 0.15020 0.77840 -0.15900
C 	C 	0.23040 0.18160 0.27210 0.39500
C 	C 	0.15240 0.03840 0.98350 0.02600
C 	C 	0.15880 0.11090 0.91440 0.02900
C 	C 	0.19530 0.89560 0.97910 0.39200
C 	C 	0.17990 0.94500 0.97950 -0.13700
C 	C 	0.22090 0.11090 0.19020 0.05000
C 	C 	0.17090 0.11260 0.06110 0.02300
C 	C 	0.18650 0.18220 0.13450 0.04600
C 	C 	0.16550 0.15980 0.06800 -0.03300
C 	C 	0.07800 0.10020 0.99880 0.02600
C 	C 	0.20800 0.13540 0.91550 -0.03100
C 	C 	0.12830 0.10240 0.84340 -0.03400
C 	C 	0.20590 0.02480 0.97290 -0.02500
C 	C 	0.22020 0.97770 0.97060 0.06800
C 	C 	0.14290 0.12210 0.77650 0.07000
C 	C 	0.22450 0.15390 0.84800 0.07100
C 	C 	0.05810 0.08500 0.06620 -0.02900
C 	C 	0.12680 0.95920 0.99110 0.06000
C 	C 	0.11370 0.00590 0.99390 -0.02600
C 	C 	0.98180 0.13590 0.04340 -0.13100
C 	C 	0.05030 0.13480 0.95870 -0.02800
C 	C 	0.00110 0.15100 0.98050 0.03400
C 	C 	0.93150 0.16170 0.07430 0.39900
C 	C 	0.00970 0.10160 0.09210 0.04400
C 	C 	0.54320 0.97330 0.29280 0.03000
C 	C 	0.47440 0.03960 0.30500 0.02600
C 	C 	0.49110 0.10330 0.39360 0.06100
C 	C 	0.39680 0.08440 0.33920 0.06800
C 	C 	0.43300 0.11280 0.38510 -0.14700
C 	C 	0.58370 0.93280 0.40770 0.07800
C 	C 	0.51090 0.06690 0.35400 -0.02500
C 	C 	0.54900 0.96740 0.37160 -0.03100
C 	C 	0.57310 0.94470 0.24710 -0.03200
C 	C 	0.41710 0.04770 0.29910 -0.02600
C 	C 	0.61120 0.90390 0.36130 -0.17200
C 	C 	0.64580 0.86540 0.39790 0.53800
C 	C 	0.60630 0.90960 0.28090 0.06800
C 	C 	0.41130 0.15390 0.42100 0.44200
O 	O 	0.44350 0.17780 0.46620 -0.32600
O 	O 	0.91160 0.14860 0.13840 -0.54800
O 	O 	0.32790 0.22830 0.51320 -0.21100
O 	O 	0.19120 0.19860 0.41420 7.96800
O 	O 	0.24960 0.19510 0.54520 -0.46700
O 	O 	0.28130 0.24470 0.40750 -0.92100
Zr	Zr	0.16605 0.79267 0.03357 3.23900
Zr	Zr	0.29804 0.76889 0.12936 3.22700
Zr	Zr	0.21407 0.67810 0.05258 3.28400
O 	O 	0.29260 0.70780 0.06590 -9.23300
O 	O 	0.13900 0.66443 0.10340 -0.66900
O 	O 	0.23930 0.66038 0.17750 -0.70400
O 	O 	0.29090 0.72201 0.22560 -0.85400
O 	O 	0.24940 0.67620 0.93790 -0.37700
O 	O 	0.20700 0.74240 0.11990 0.04600
O 	O 	0.15460 0.72450 0.97060 -0.71300
O 	O 	0.33260 0.67516 0.85030 -0.68900
O 	O 	0.24550 0.69179 0.78680 -0.66300
O 	O 	0.84610 0.33269 0.14720 -0.72600
O 	O 	0.26010 0.38660 0.55070 -0.68700
O 	O 	0.83870 0.36761 0.03030 -0.61900
O 	O 	0.34010 0.36750 0.49010 -0.70900
O 	O 	0.58840 0.69580 0.46270 -0.90700
C 	C 	0.30090 0.58820 0.37780 -0.02600
C 	C 	0.28700 0.65750 0.30310 -0.16500
C 	C 	0.29470 0.67390 0.79310 0.50400
C 	C 	0.36020 0.58980 0.51130 -0.02400
C 	C 	0.31030 0.65020 0.72160 -0.15900
C 	C 	0.26960 0.68160 0.22790 0.39500
C 	C 	0.34760 0.53840 0.51650 0.02600
C 	C 	0.34120 0.61090 0.58560 0.02900
C 	C 	0.30470 0.39560 0.52090 0.39200
C 	C 	0.32010 0.44500 0.52050 -0.13700
C 	C 	0.27910 0.61090 0.30980 0.05000
C 	C 	0.32910 0.61260 0.43890 0.02400
C 	C 	0.31350 0.68220 0.36550 0.04600
C 	C 	0.33450 0.65980 0.43200 -0.03300
C 	C 	0.42200 0.60020 0.50120 0.02400
C 	C 	0.29200 0.63540 0.58450 -0.03100
C 	C 	0.37170 0.60240 0.65660 -0.03500
C 	C 	0.29410 0.52480 0.52710 -0.02600
C 	C 	0.27980 0.47770 0.52940 0.06800
C 	C 	0.35710 0.62210 0.72350 0.07000
C 	C 	0.27550 0.65390 0.65200 0.07100
C 	C 	0.44190 0.58500 0.43380 -0.02700
C 	C 	0.37320 0.45920 0.50890 0.06100
C 	C 	0.38630 0.50590 0.50610 -0.02700
C 	C 	0.51820 0.63590 0.45660 -0.13100
C 	C 	0.44970 0.63480 0.54130 -0.02800
C 	C 	0.49890 0.65100 0.51950 0.03300
C 	C 	0.56850 0.66170 0.42570 0.39900
C 	C 	0.49030 0.60160 0.40790 0.04500
C 	C 	0.95680 0.47330 0.20720 0.03000
C 	C 	0.02560 0.53960 0.19500 0.02400
C 	C 	0.00890 0.60330 0.10640 0.05900
C 	C 	0.10320 0.58440 0.16080 0.06700
C 	C 	0.06700 0.61280 0.11490 -0.14700
C 	C 	0.91630 0.43280 0.09230 0.07900
C 	C 	0.98910 0.56690 0.14600 -0.02300
C 	C 	0.95100 0.46740 0.12840 -0.03100
C 	C 	0.92690 0.44470 0.25290 -0.03300
C 	C 	0.08290 0.54770 0.20090 -0.02500
C 	C 	0.88880 0.40390 0.13870 -0.17200
C 	C 	0.85420 0.36540 0.10210 0.53800
C 	C 	0.89370 0.40960 0.21910 0.06800
C 	C 	0.08870 0.65390 0.07900 0.44200
O 	O 	0.05650 0.67780 0.03380 -0.32700
O 	O 	0.58840 0.64860 0.36160 -0.54800
O 	O 	0.17210 0.72830 0.98680 -0.21100
O 	O 	0.30880 0.69860 0.08580 7.97300
O 	O 	0.25040 0.69510 0.95480 -0.46600
O 	O 	0.21870 0.74470 0.09250 -0.92000
Zr	Zr	0.66605 0.29267 0.03357 3.23900
Zr	Zr	0.79804 0.26889 0.12936 3.22700
Zr	Zr	0.71407 0.17810 0.05258 3.28400
O 	O 	0.79260 0.20780 0.06590 -9.22600
O 	O 	0.63900 0.16443 0.10340 -0.66900
O 	O 	0.73930 0.16038 0.17750 -0.70300
O 	O 	0.79090 0.22201 0.22560 -0.85400
O 	O 	0.74940 0.17620 0.93790 -0.37500
O 	O 	0.70700 0.24240 0.11990 0.04700
O 	O 	0.65460 0.22450 0.97060 -0.71400
O 	O 	0.83260 0.17516 0.85030 -0.68900
O 	O 	0.74550 0.19179 0.78680 -0.66300
O 	O 	0.34610 0.83269 0.14720 -0.72600
O 	O 	0.76010 0.88660 0.55070 -0.68700
O 	O 	0.33870 0.86761 0.03030 -0.62000
O 	O 	0.84010 0.86750 0.49010 -0.70900
O 	O 	0.08840 0.19580 0.46270 -0.90700
C 	C 	0.80090 0.08820 0.37780 -0.02600
C 	C 	0.78700 0.15750 0.30310 -0.16500
C 	C 	0.79470 0.17390 0.79310 0.50400
C 	C 	0.86020 0.08980 0.51130 -0.02400
C 	C 	0.81030 0.15020 0.72160 -0.15900
C 	C 	0.76960 0.18160 0.22790 0.39600
C 	C 	0.84760 0.03840 0.51650 0.02600
C 	C 	0.84120 0.11090 0.58560 0.02900
C 	C 	0.80470 0.89560 0.52090 0.39200
C 	C 	0.82010 0.94500 0.52050 -0.13700
C 	C 	0.77910 0.11090 0.30980 0.05000
C 	C 	0.82910 0.11260 0.43890 0.02400
C 	C 	0.81350 0.18220 0.36550 0.04600
C 	C 	0.83450 0.15980 0.43200 -0.03300
C 	C 	0.92200 0.10020 0.50120 0.02400
C 	C 	0.79200 0.13540 0.58450 -0.03100
C 	C 	0.87170 0.10240 0.65660 -0.03500
C 	C 	0.79410 0.02480 0.52710 -0.02600
C 	C 	0.77980 0.97770 0.52940 0.06800
C 	C 	0.85710 0.12210 0.72350 0.06900
C 	C 	0.77550 0.15390 0.65200 0.07100
C 	C 	0.94190 0.08500 0.43380 -0.02700
C 	C 	0.87320 0.95920 0.50890 0.06000
C 	C 	0.88630 0.00590 0.50610 -0.02800
C 	C 	0.01820 0.13590 0.45660 -0.13100
C 	C 	0.94970 0.13480 0.54130 -0.02800
C 	C 	0.99890 0.15100 0.51950 0.03200
C 	C 	0.06850 0.16170 0.42570 0.39800
C 	C 	0.99030 0.10160 0.40790 0.04400
C 	C 	0.45680 0.97330 0.20720 0.03000
C 	C 	0.52560 0.03960 0.19500 0.02600
C 	C 	0.50890 0.10330 0.10640 0.06100
C 	C 	0.60320 0.08440 0.16080 0.06800
C 	C 	0.56700 0.11280 0.11490 -0.14700
C 	C 	0.41630 0.93280 0.09230 0.07800
C 	C 	0.48910 0.06690 0.14600 -0.02500
C 	C 	0.45100 0.96740 0.12840 -0.03100
C 	C 	0.42690 0.94470 0.25290 -0.03200
C 	C 	0.58290 0.04770 0.20090 -0.02500
C 	C 	0.38880 0.90390 0.13870 -0.17200
C 	C 	0.35420 0.86540 0.10210 0.53800
C 	C 	0.39370 0.90960 0.21910 0.06800
C 	C 	0.58870 0.15390 0.07900 0.44200
O 	O 	0.55650 0.17780 0.03380 -0.32600
O 	O 	0.08840 0.14860 0.36160 -0.54800
O 	O 	0.67210 0.22830 0.98680 -0.21100
O 	O 	0.80880 0.19860 0.08580 7.96600
O 	O 	0.75040 0.19510 0.95480 -0.46800
O 	O 	0.71870 0.24470 0.09250 -0.92100
C 	C 	-0.00000 0.49410 0.75000 -0.02100
C 	C 	0.50000 0.99410 0.75000 -0.02400
C 	C 	0.00000 0.50590 0.25000 -0.02500
C 	C 	0.50000 0.00590 0.25000 -0.02400
