data_crystal

_cell_length_a 17.87360
_cell_length_b 17.87360
_cell_length_c 17.87360
_cell_angle_alpha 90.00000
_cell_angle_beta  90.00000
_cell_angle_gamma 90.00000

_symmetry_space_group_name_	'P 1'
_symmetry_space_group_name_H-M	'P 1'

loop_
_symmetry_equiv_pos_as_xyz
  x,y,z

loop_
_atom_site_label
_atom_site_type_symbol
_atom_site_fract_x
_atom_site_fract_y
_atom_site_fract_z
_atom_site_charge
Zr	Zr	0.36080 0.51120 0.00880 3.27500
O 	O 	0.30950 0.62440 0.02970 -0.68100
O 	O 	0.29190 0.40610 0.00720 -0.68900
C 	C 	0.33680 0.68420 0.02250 0.57300
C 	C 	0.30650 0.34230 0.00130 0.59200
C 	C 	0.24280 0.28690 0.00270 -0.14200
H 	H 	0.19020 0.30430 0.99800 0.11200
O 	O 	0.40710 0.70560 0.02090 -0.68700
O 	O 	0.37290 0.31400 0.99630 -0.62900
C 	C 	0.28840 0.75410 0.02640 -0.15200
H 	H 	0.31600 0.79480 0.02410 0.13800
O 	O 	0.43620 0.57710 0.09040 3.79400
H 	H 	0.41110 0.60840 0.12390 -1.28700
O 	O 	0.44990 0.55610 0.06620 -4.02800
Zr	Zr	0.13920 0.98880 0.00880 3.27300
O 	O 	0.19050 0.87560 0.02970 -0.68300
O 	O 	0.20810 0.09390 0.00720 -0.68800
C 	C 	0.16320 0.81580 0.02250 0.57300
C 	C 	0.19350 0.15770 0.00130 0.59600
C 	C 	0.25720 0.21310 0.00270 -0.14500
H 	H 	0.30980 0.19570 0.99800 0.11100
O 	O 	0.09290 0.79440 0.02090 -0.68700
O 	O 	0.12710 0.18600 0.99630 -0.63300
C 	C 	0.21160 0.74590 0.02640 -0.15400
H 	H 	0.18400 0.70520 0.02410 0.14000
O 	O 	0.06380 0.92290 0.09040 3.80200
H 	H 	0.08890 0.89160 0.12390 -1.29100
O 	O 	0.05010 0.94390 0.06620 -4.03500
Zr	Zr	0.13920 0.51120 0.49120 3.27300
O 	O 	0.19050 0.62440 0.47030 -0.68300
O 	O 	0.20810 0.40610 0.49280 -0.69200
C 	C 	0.16320 0.68420 0.47750 0.57200
C 	C 	0.19350 0.34230 0.49870 0.58800
C 	C 	0.25720 0.28690 0.49730 -0.14900
H 	H 	0.30980 0.30430 0.50200 0.11700
O 	O 	0.09290 0.70560 0.47910 -0.68800
O 	O 	0.12710 0.31400 0.50370 -0.62500
C 	C 	0.21160 0.75410 0.47360 -0.15300
H 	H 	0.18400 0.79480 0.47590 0.13800
O 	O 	0.06380 0.57710 0.40960 3.79500
H 	H 	0.08890 0.60840 0.37610 -1.28700
O 	O 	0.05010 0.55610 0.43380 -4.02800
Zr	Zr	0.36080 0.98880 0.49120 3.27300
O 	O 	0.30950 0.87560 0.47030 -0.68300
O 	O 	0.29190 0.09390 0.49280 -0.69000
C 	C 	0.33680 0.81580 0.47750 0.57200
C 	C 	0.30650 0.15770 0.49870 0.58800
C 	C 	0.24280 0.21310 0.49730 -0.14900
H 	H 	0.19020 0.19570 0.50200 0.11700
O 	O 	0.40710 0.79440 0.47910 -0.68800
O 	O 	0.37290 0.18600 0.50370 -0.62600
C 	C 	0.28840 0.74590 0.47360 -0.15300
H 	H 	0.31600 0.70520 0.47590 0.13900
O 	O 	0.43620 0.92290 0.40960 3.79100
H 	H 	0.41110 0.89160 0.37610 -1.28700
O 	O 	0.44990 0.94390 0.43380 -4.02600
Zr	Zr	0.00880 0.36080 0.51120 3.27400
O 	O 	0.02970 0.30950 0.62440 -0.68200
O 	O 	0.00720 0.29190 0.40610 -0.69000
C 	C 	0.02250 0.33680 0.68420 0.57200
C 	C 	0.00130 0.30650 0.34230 0.59100
C 	C 	0.00270 0.24280 0.28690 -0.14300
H 	H 	0.99800 0.19020 0.30430 0.11100
O 	O 	0.02090 0.40710 0.70560 -0.68800
O 	O 	0.99630 0.37290 0.31400 -0.62900
C 	C 	0.02640 0.28840 0.75410 -0.15200
H 	H 	0.02410 0.31600 0.79480 0.13800
O 	O 	0.09040 0.43620 0.57710 3.79400
H 	H 	0.12390 0.41110 0.60840 -1.28700
O 	O 	0.06620 0.44990 0.55610 -4.02800
Zr	Zr	0.00880 0.13920 0.98880 3.27300
O 	O 	0.02970 0.19050 0.87560 -0.68300
O 	O 	0.00720 0.20810 0.09390 -0.68800
C 	C 	0.02250 0.16320 0.81580 0.57300
C 	C 	0.00130 0.19350 0.15770 0.59600
C 	C 	0.00270 0.25720 0.21310 -0.14500
H 	H 	0.99800 0.30980 0.19570 0.11100
O 	O 	0.02090 0.09290 0.79440 -0.68700
O 	O 	0.99630 0.12710 0.18600 -0.63300
C 	C 	0.02640 0.21160 0.74590 -0.15400
H 	H 	0.02410 0.18400 0.70520 0.14000
O 	O 	0.09040 0.06380 0.92290 3.80200
H 	H 	0.12390 0.08890 0.89160 -1.29100
O 	O 	0.06620 0.05010 0.94390 -4.03500
Zr	Zr	0.49120 0.13920 0.51120 3.27300
O 	O 	0.47030 0.19050 0.62440 -0.68300
O 	O 	0.49280 0.20810 0.40610 -0.69200
C 	C 	0.47750 0.16320 0.68420 0.57200
C 	C 	0.49870 0.19350 0.34230 0.58800
C 	C 	0.49730 0.25720 0.28690 -0.14900
H 	H 	0.50200 0.30980 0.30430 0.11700
O 	O 	0.47910 0.09290 0.70560 -0.68800
O 	O 	0.50370 0.12710 0.31400 -0.62500
C 	C 	0.47360 0.21160 0.75410 -0.15300
H 	H 	0.47590 0.18400 0.79480 0.13800
O 	O 	0.40960 0.06380 0.57710 3.79500
H 	H 	0.37610 0.08890 0.60840 -1.28700
O 	O 	0.43380 0.05010 0.55610 -4.02800
Zr	Zr	0.49120 0.36080 0.98880 3.27300
O 	O 	0.47030 0.30950 0.87560 -0.68300
O 	O 	0.49280 0.29190 0.09390 -0.69000
C 	C 	0.47750 0.33680 0.81580 0.57200
C 	C 	0.49870 0.30650 0.15770 0.58800
C 	C 	0.49730 0.24280 0.21310 -0.14900
H 	H 	0.50200 0.19020 0.19570 0.11700
O 	O 	0.47910 0.40710 0.79440 -0.68800
O 	O 	0.50370 0.37290 0.18600 -0.62600
C 	C 	0.47360 0.28840 0.74590 -0.15300
H 	H 	0.47590 0.31600 0.70520 0.13900
O 	O 	0.40960 0.43620 0.92290 3.79100
H 	H 	0.37610 0.41110 0.89160 -1.28700
O 	O 	0.43380 0.44990 0.94390 -4.02600
Zr	Zr	0.51120 0.00880 0.36080 3.27400
O 	O 	0.62440 0.02970 0.30950 -0.68200
O 	O 	0.40610 0.00720 0.29190 -0.69000
C 	C 	0.68420 0.02250 0.33680 0.57200
C 	C 	0.34230 0.00130 0.30650 0.59100
C 	C 	0.28690 0.00270 0.24280 -0.14300
H 	H 	0.30430 0.99800 0.19020 0.11100
O 	O 	0.70560 0.02090 0.40710 -0.68800
O 	O 	0.31400 0.99630 0.37290 -0.62900
C 	C 	0.75410 0.02640 0.28840 -0.15200
H 	H 	0.79480 0.02410 0.31600 0.13800
O 	O 	0.57710 0.09040 0.43620 3.79400
H 	H 	0.60840 0.12390 0.41110 -1.28700
O 	O 	0.55610 0.06620 0.44990 -4.02800
Zr	Zr	0.98880 0.00880 0.13920 3.27300
O 	O 	0.87560 0.02970 0.19050 -0.68300
O 	O 	0.09390 0.00720 0.20810 -0.68800
C 	C 	0.81580 0.02250 0.16320 0.57300
C 	C 	0.15770 0.00130 0.19350 0.59600
C 	C 	0.21310 0.00270 0.25720 -0.14500
H 	H 	0.19570 0.99800 0.30980 0.11100
O 	O 	0.79440 0.02090 0.09290 -0.68700
O 	O 	0.18600 0.99630 0.12710 -0.63300
C 	C 	0.74590 0.02640 0.21160 -0.15400
H 	H 	0.70520 0.02410 0.18400 0.14000
O 	O 	0.92290 0.09040 0.06380 3.80200
H 	H 	0.89160 0.12390 0.08890 -1.29100
O 	O 	0.94390 0.06620 0.05010 -4.03500
Zr	Zr	0.51120 0.49120 0.13920 3.27300
O 	O 	0.62440 0.47030 0.19050 -0.68300
O 	O 	0.40610 0.49280 0.20810 -0.69200
C 	C 	0.68420 0.47750 0.16320 0.57200
C 	C 	0.34230 0.49870 0.19350 0.58800
C 	C 	0.28690 0.49730 0.25720 -0.14900
H 	H 	0.30430 0.50200 0.30980 0.11700
O 	O 	0.70560 0.47910 0.09290 -0.68800
O 	O 	0.31400 0.50370 0.12710 -0.62500
C 	C 	0.75410 0.47360 0.21160 -0.15300
H 	H 	0.79480 0.47590 0.18400 0.13800
O 	O 	0.57710 0.40960 0.06380 3.79500
H 	H 	0.60840 0.37610 0.08890 -1.28700
O 	O 	0.55610 0.43380 0.05010 -4.02800
Zr	Zr	0.98880 0.49120 0.36080 3.27300
O 	O 	0.87560 0.47030 0.30950 -0.68300
O 	O 	0.09390 0.49280 0.29190 -0.69000
C 	C 	0.81580 0.47750 0.33680 0.57200
C 	C 	0.15770 0.49870 0.30650 0.58800
C 	C 	0.21310 0.49730 0.24280 -0.14900
H 	H 	0.19570 0.50200 0.19020 0.11700
O 	O 	0.79440 0.47910 0.40710 -0.68800
O 	O 	0.18600 0.50370 0.37290 -0.62600
C 	C 	0.74590 0.47360 0.28840 -0.15300
H 	H 	0.70520 0.47590 0.31600 0.13900
O 	O 	0.92290 0.40960 0.43620 3.79100
H 	H 	0.89160 0.37610 0.41110 -1.28700
O 	O 	0.94390 0.43380 0.44990 -4.02600
Zr	Zr	0.63920 0.48880 0.99120 3.27400
O 	O 	0.69050 0.37560 0.97030 -0.68200
O 	O 	0.70810 0.59390 0.99280 -0.69000
C 	C 	0.66320 0.31580 0.97750 0.57200
C 	C 	0.69350 0.65770 0.99870 0.59100
C 	C 	0.75720 0.71310 0.99730 -0.14300
H 	H 	0.80980 0.69570 0.00200 0.11100
O 	O 	0.59290 0.29440 0.97910 -0.68800
O 	O 	0.62710 0.68600 0.00370 -0.62900
C 	C 	0.71160 0.24590 0.97360 -0.15200
H 	H 	0.68400 0.20520 0.97590 0.13800
O 	O 	0.56380 0.42290 0.90960 3.79400
H 	H 	0.58890 0.39160 0.87610 -1.28700
O 	O 	0.55010 0.44390 0.93380 -4.02800
Zr	Zr	0.86080 0.01120 0.99120 3.27300
O 	O 	0.80950 0.12440 0.97030 -0.68300
O 	O 	0.79190 0.90610 0.99280 -0.68800
C 	C 	0.83680 0.18420 0.97750 0.57300
C 	C 	0.80650 0.84230 0.99870 0.59600
C 	C 	0.74280 0.78690 0.99730 -0.14500
H 	H 	0.69020 0.80430 0.00200 0.11100
O 	O 	0.90710 0.20560 0.97910 -0.68700
O 	O 	0.87290 0.81400 0.00370 -0.63300
C 	C 	0.78840 0.25410 0.97360 -0.15400
H 	H 	0.81600 0.29480 0.97590 0.14000
O 	O 	0.93620 0.07710 0.90960 3.80200
H 	H 	0.91110 0.10840 0.87610 -1.29100
O 	O 	0.94990 0.05610 0.93380 -4.03500
Zr	Zr	0.86080 0.48880 0.50880 3.27300
O 	O 	0.80950 0.37560 0.52970 -0.68300
O 	O 	0.79190 0.59390 0.50720 -0.69200
C 	C 	0.83680 0.31580 0.52250 0.57200
C 	C 	0.80650 0.65770 0.50130 0.58800
C 	C 	0.74280 0.71310 0.50270 -0.14900
H 	H 	0.69020 0.69570 0.49800 0.11700
O 	O 	0.90710 0.29440 0.52090 -0.68800
O 	O 	0.87290 0.68600 0.49630 -0.62500
C 	C 	0.78840 0.24590 0.52640 -0.15300
H 	H 	0.81600 0.20520 0.52410 0.13800
O 	O 	0.93620 0.42290 0.59040 3.79500
H 	H 	0.91110 0.39160 0.62390 -1.28700
O 	O 	0.94990 0.44390 0.56620 -4.02800
Zr	Zr	0.63920 0.01120 0.50880 3.27300
O 	O 	0.69050 0.12440 0.52970 -0.68300
O 	O 	0.70810 0.90610 0.50720 -0.69000
C 	C 	0.66320 0.18420 0.52250 0.57200
C 	C 	0.69350 0.84230 0.50130 0.58800
C 	C 	0.75720 0.78690 0.50270 -0.14900
H 	H 	0.80980 0.80430 0.49800 0.11700
O 	O 	0.59290 0.20560 0.52090 -0.68800
O 	O 	0.62710 0.81400 0.49630 -0.62600
C 	C 	0.71160 0.25410 0.52640 -0.15300
H 	H 	0.68400 0.29480 0.52410 0.13900
O 	O 	0.56380 0.07710 0.59040 3.79100
H 	H 	0.58890 0.10840 0.62390 -1.28700
O 	O 	0.55010 0.05610 0.56620 -4.02600
Zr	Zr	0.99120 0.63920 0.48880 3.27400
O 	O 	0.97030 0.69050 0.37560 -0.68200
O 	O 	0.99280 0.70810 0.59390 -0.69000
C 	C 	0.97750 0.66320 0.31580 0.57200
C 	C 	0.99870 0.69350 0.65770 0.59100
C 	C 	0.99730 0.75720 0.71310 -0.14300
H 	H 	0.00200 0.80980 0.69570 0.11100
O 	O 	0.97910 0.59290 0.29440 -0.68800
O 	O 	0.00370 0.62710 0.68600 -0.62900
C 	C 	0.97360 0.71160 0.24590 -0.15200
H 	H 	0.97590 0.68400 0.20520 0.13800
O 	O 	0.90960 0.56380 0.42290 3.79400
H 	H 	0.87610 0.58890 0.39160 -1.28700
O 	O 	0.93380 0.55010 0.44390 -4.02800
Zr	Zr	0.99120 0.86080 0.01120 3.27300
O 	O 	0.97030 0.80950 0.12440 -0.68300
O 	O 	0.99280 0.79190 0.90610 -0.68800
C 	C 	0.97750 0.83680 0.18420 0.57300
C 	C 	0.99870 0.80650 0.84230 0.59600
C 	C 	0.99730 0.74280 0.78690 -0.14500
H 	H 	0.00200 0.69020 0.80430 0.11100
O 	O 	0.97910 0.90710 0.20560 -0.68700
O 	O 	0.00370 0.87290 0.81400 -0.63300
C 	C 	0.97360 0.78840 0.25410 -0.15400
H 	H 	0.97590 0.81600 0.29480 0.14000
O 	O 	0.90960 0.93620 0.07710 3.80200
H 	H 	0.87610 0.91110 0.10840 -1.29100
O 	O 	0.93380 0.94990 0.05610 -4.03500
Zr	Zr	0.50880 0.86080 0.48880 3.27300
O 	O 	0.52970 0.80950 0.37560 -0.68300
O 	O 	0.50720 0.79190 0.59390 -0.69200
C 	C 	0.52250 0.83680 0.31580 0.57200
C 	C 	0.50130 0.80650 0.65770 0.58800
C 	C 	0.50270 0.74280 0.71310 -0.14900
H 	H 	0.49800 0.69020 0.69570 0.11700
O 	O 	0.52090 0.90710 0.29440 -0.68800
O 	O 	0.49630 0.87290 0.68600 -0.62500
C 	C 	0.52640 0.78840 0.24590 -0.15300
H 	H 	0.52410 0.81600 0.20520 0.13800
O 	O 	0.59040 0.93620 0.42290 3.79500
H 	H 	0.62390 0.91110 0.39160 -1.28700
O 	O 	0.56620 0.94990 0.44390 -4.02800
Zr	Zr	0.50880 0.63920 0.01120 3.27300
O 	O 	0.52970 0.69050 0.12440 -0.68300
O 	O 	0.50720 0.70810 0.90610 -0.69000
C 	C 	0.52250 0.66320 0.18420 0.57200
C 	C 	0.50130 0.69350 0.84230 0.58800
C 	C 	0.50270 0.75720 0.78690 -0.14900
H 	H 	0.49800 0.80980 0.80430 0.11700
O 	O 	0.52090 0.59290 0.20560 -0.68800
O 	O 	0.49630 0.62710 0.81400 -0.62600
C 	C 	0.52640 0.71160 0.25410 -0.15300
H 	H 	0.52410 0.68400 0.29480 0.13900
O 	O 	0.59040 0.56380 0.07710 3.79100
H 	H 	0.62390 0.58890 0.10840 -1.28700
O 	O 	0.56620 0.55010 0.05610 -4.02600
Zr	Zr	0.48880 0.99120 0.63920 3.27400
O 	O 	0.37560 0.97030 0.69050 -0.68200
O 	O 	0.59390 0.99280 0.70810 -0.69000
C 	C 	0.31580 0.97750 0.66320 0.57200
C 	C 	0.65770 0.99870 0.69350 0.59100
C 	C 	0.71310 0.99730 0.75720 -0.14300
H 	H 	0.69570 0.00200 0.80980 0.11100
O 	O 	0.29440 0.97910 0.59290 -0.68800
O 	O 	0.68600 0.00370 0.62710 -0.62900
C 	C 	0.24590 0.97360 0.71160 -0.15200
H 	H 	0.20520 0.97590 0.68400 0.13800
O 	O 	0.42290 0.90960 0.56380 3.79400
H 	H 	0.39160 0.87610 0.58890 -1.28700
O 	O 	0.44390 0.93380 0.55010 -4.02800
Zr	Zr	0.01120 0.99120 0.86080 3.27300
O 	O 	0.12440 0.97030 0.80950 -0.68300
O 	O 	0.90610 0.99280 0.79190 -0.68800
C 	C 	0.18420 0.97750 0.83680 0.57300
C 	C 	0.84230 0.99870 0.80650 0.59600
C 	C 	0.78690 0.99730 0.74280 -0.14500
H 	H 	0.80430 0.00200 0.69020 0.11100
O 	O 	0.20560 0.97910 0.90710 -0.68700
O 	O 	0.81400 0.00370 0.87290 -0.63300
C 	C 	0.25410 0.97360 0.78840 -0.15400
H 	H 	0.29480 0.97590 0.81600 0.14000
O 	O 	0.07710 0.90960 0.93620 3.80200
H 	H 	0.10840 0.87610 0.91110 -1.29100
O 	O 	0.05610 0.93380 0.94990 -4.03500
Zr	Zr	0.48880 0.50880 0.86080 3.27300
O 	O 	0.37560 0.52970 0.80950 -0.68300
O 	O 	0.59390 0.50720 0.79190 -0.69200
C 	C 	0.31580 0.52250 0.83680 0.57200
C 	C 	0.65770 0.50130 0.80650 0.58800
C 	C 	0.71310 0.50270 0.74280 -0.14900
H 	H 	0.69570 0.49800 0.69020 0.11700
O 	O 	0.29440 0.52090 0.90710 -0.68800
O 	O 	0.68600 0.49630 0.87290 -0.62500
C 	C 	0.24590 0.52640 0.78840 -0.15300
H 	H 	0.20520 0.52410 0.81600 0.13800
O 	O 	0.42290 0.59040 0.93620 3.79500
H 	H 	0.39160 0.62390 0.91110 -1.28700
O 	O 	0.44390 0.56620 0.94990 -4.02800
Zr	Zr	0.01120 0.50880 0.63920 3.27300
O 	O 	0.12440 0.52970 0.69050 -0.68300
O 	O 	0.90610 0.50720 0.70810 -0.69000
C 	C 	0.18420 0.52250 0.66320 0.57200
C 	C 	0.84230 0.50130 0.69350 0.58800
C 	C 	0.78690 0.50270 0.75720 -0.14900
H 	H 	0.80430 0.49800 0.80980 0.11700
O 	O 	0.20560 0.52090 0.59290 -0.68800
O 	O 	0.81400 0.49630 0.62710 -0.62600
C 	C 	0.25410 0.52640 0.71160 -0.15300
H 	H 	0.29480 0.52410 0.68400 0.13900
O 	O 	0.07710 0.59040 0.56380 3.79100
H 	H 	0.10840 0.62390 0.58890 -1.28700
O 	O 	0.05610 0.56620 0.55010 -4.02600
O 	O 	0.43820 0.43820 0.06180 -0.52700
H 	H 	0.39300 0.39300 0.10700 -0.02100
O 	O 	0.42600 0.42600 0.07400 0.00800
O 	O 	0.06180 0.06180 0.06180 -0.52900
H 	H 	0.10700 0.10700 0.10700 -0.02100
O 	O 	0.07400 0.07400 0.07400 0.01800
O 	O 	0.06180 0.43820 0.43820 -0.52700
H 	H 	0.10700 0.39300 0.39300 -0.02100
O 	O 	0.07400 0.42600 0.42600 0.00800
O 	O 	0.43820 0.06180 0.43820 -0.52700
H 	H 	0.39300 0.10700 0.39300 -0.02100
O 	O 	0.42600 0.07400 0.42600 0.00800
O 	O 	0.56180 0.56180 0.93820 -0.52700
H 	H 	0.60700 0.60700 0.89300 -0.02100
O 	O 	0.57400 0.57400 0.92600 0.00800
O 	O 	0.93820 0.93820 0.93820 -0.52900
H 	H 	0.89300 0.89300 0.89300 -0.02100
O 	O 	0.92600 0.92600 0.92600 0.01800
O 	O 	0.93820 0.56180 0.56180 -0.52700
H 	H 	0.89300 0.60700 0.60700 -0.02100
O 	O 	0.92600 0.57400 0.57400 0.00800
O 	O 	0.56180 0.93820 0.56180 -0.52700
H 	H 	0.60700 0.89300 0.60700 -0.02100
O 	O 	0.57400 0.92600 0.57400 0.00800
