data_crystal

_cell_length_a 22.57560
_cell_length_b 29.63020
_cell_length_c 28.20800
_cell_angle_alpha 90.00000
_cell_angle_beta  90.00000
_cell_angle_gamma 90.00000

_symmetry_space_group_name_	'P 1'
_symmetry_space_group_name_H-M	'P 1'

loop_
_symmetry_equiv_pos_as_xyz
  x,y,z

loop_
_atom_site_label
_atom_site_type_symbol
_atom_site_fract_x
_atom_site_fract_y
_atom_site_fract_z
_atom_site_charge
Zn	Zn	0.35714 0.12640 0.65802 1.23600
Zn	Zn	0.42135 0.12495 0.77307 1.18000
Zn	Zn	0.85414 0.37189 0.86128 1.23300
Zn	Zn	0.76101 0.45867 0.90002 1.17700
Zn	Zn	0.85714 0.87360 0.84198 1.23500
Zn	Zn	0.92135 0.87505 0.72693 1.17900
Zn	Zn	0.35414 0.62811 0.63872 1.23300
Zn	Zn	0.26101 0.54133 0.59998 1.17700
Zn	Zn	0.64286 0.87360 0.34198 1.23500
Zn	Zn	0.57865 0.87505 0.22693 1.17900
Zn	Zn	0.14586 0.62811 0.13872 1.23300
Zn	Zn	0.23899 0.54133 0.09998 1.17700
Zn	Zn	0.14286 0.12640 0.15802 1.23500
Zn	Zn	0.07865 0.12495 0.27307 1.17900
Zn	Zn	0.64586 0.37189 0.36128 1.23300
Zn	Zn	0.73899 0.45867 0.40002 1.17700
Si	Si	0.56181 0.37765 0.66004 0.76400
Si	Si	0.06176 0.12215 0.85771 0.79100
Si	Si	0.06181 0.62235 0.83996 0.76400
Si	Si	0.56176 0.87785 0.64229 0.79100
Si	Si	0.43819 0.62235 0.33996 0.76400
Si	Si	0.93824 0.87785 0.14229 0.79100
Si	Si	0.93819 0.37765 0.16004 0.76400
Si	Si	0.43824 0.12215 0.35771 0.79100
H 	H 	0.47500 0.32010 0.60950 -0.00900
H 	H 	0.42520 0.25370 0.62540 0.06200
H 	H 	0.50820 0.24460 0.75100 0.06100
H 	H 	0.55770 0.31070 0.73510 -0.00300
H 	H 	0.56570 0.41210 0.75380 -0.00700
H 	H 	0.63480 0.41530 0.81550 0.05500
H 	H 	0.75840 0.35840 0.73020 0.06800
H 	H 	0.68930 0.35520 0.66840 -0.00600
H 	H 	0.62800 0.44280 0.61000 -0.01400
H 	H 	0.66920 0.45120 0.53440 0.05400
H 	H 	0.61310 0.32570 0.49940 0.06900
H 	H 	0.57190 0.31730 0.57500 -0.00700
H 	H 	0.56850 0.47600 0.66110 -0.01200
H 	H 	0.50330 0.53500 0.65400 0.03200
H 	H 	0.36660 0.44830 0.66140 0.05000
H 	H 	0.43300 0.38890 0.66820 -0.00600
H 	H 	0.18970 0.11730 0.87050 -0.01300
H 	H 	0.27350 0.11720 0.82330 0.03800
H 	H 	0.16980 0.14500 0.71050 0.06800
H 	H 	0.08840 0.14480 0.75800 -0.01600
H 	H 	0.07460 0.22040 0.85080 -0.02400
H 	H 	0.01030 0.28240 0.85090 0.05300
H 	H 	0.87110 0.19920 0.85070 0.08600
H 	H 	0.93330 0.13720 0.85040 -0.01800
H 	H 	0.06730 0.05670 0.77870 -0.00600
H 	H 	0.01890 0.99040 0.75870 0.06600
H 	H 	0.91920 0.99990 0.87710 0.06400
H 	H 	0.96670 0.06670 0.89630 -0.01800
H 	H 	0.10340 0.04690 0.91610 -0.01600
H 	H 	0.14030 0.03750 0.99140 0.06400
H 	H 	0.11240 0.16690 0.02090 0.08000
H 	H 	0.07530 0.17870 0.94360 -0.01800
H 	H 	0.97500 0.67990 0.89050 -0.00900
H 	H 	0.92520 0.74630 0.87460 0.06200
H 	H 	0.00820 0.75540 0.74900 0.06100
H 	H 	0.05770 0.68930 0.76490 -0.00300
H 	H 	0.06570 0.58790 0.74620 -0.00700
H 	H 	0.13480 0.58470 0.68450 0.05500
H 	H 	0.25840 0.64160 0.76980 0.06800
H 	H 	0.18930 0.64480 0.83160 -0.00600
H 	H 	0.12800 0.55720 0.89000 -0.01400
H 	H 	0.16920 0.54880 0.96560 0.05400
H 	H 	0.11310 0.67430 0.00060 0.06900
H 	H 	0.07190 0.68270 0.92500 -0.00700
H 	H 	0.06850 0.52400 0.83890 -0.01200
H 	H 	0.00330 0.46500 0.84600 0.03200
H 	H 	0.86660 0.55170 0.83860 0.05000
H 	H 	0.93300 0.61110 0.83180 -0.00600
H 	H 	0.68970 0.88270 0.62950 -0.01300
H 	H 	0.77350 0.88280 0.67670 0.03800
H 	H 	0.66980 0.85500 0.78950 0.06800
H 	H 	0.58840 0.85520 0.74200 -0.01600
H 	H 	0.57460 0.77960 0.64920 -0.02400
H 	H 	0.51030 0.71760 0.64910 0.05200
H 	H 	0.37110 0.80080 0.64930 0.08600
H 	H 	0.43330 0.86280 0.64960 -0.01800
H 	H 	0.56730 0.94330 0.72130 -0.00600
H 	H 	0.51890 0.00960 0.74130 0.06600
H 	H 	0.41920 0.00010 0.62290 0.06300
H 	H 	0.46670 0.93330 0.60370 -0.01800
H 	H 	0.60340 0.95310 0.58390 -0.01600
H 	H 	0.64030 0.96250 0.50860 0.06400
H 	H 	0.61240 0.83310 0.47910 0.08100
H 	H 	0.57530 0.82130 0.55640 -0.01800
H 	H 	0.52500 0.67990 0.39050 -0.00900
H 	H 	0.57480 0.74630 0.37460 0.06200
H 	H 	0.49180 0.75540 0.24900 0.06100
H 	H 	0.44230 0.68930 0.26490 -0.00300
H 	H 	0.43430 0.58790 0.24620 -0.00700
H 	H 	0.36520 0.58470 0.18450 0.05500
H 	H 	0.24160 0.64160 0.26980 0.06800
H 	H 	0.31070 0.64480 0.33160 -0.00600
H 	H 	0.37200 0.55720 0.39000 -0.01400
H 	H 	0.33080 0.54880 0.46560 0.05400
H 	H 	0.38690 0.67430 0.50060 0.06900
H 	H 	0.42810 0.68270 0.42500 -0.00700
H 	H 	0.43150 0.52400 0.33890 -0.01200
H 	H 	0.49670 0.46500 0.34600 0.03200
H 	H 	0.63340 0.55170 0.33860 0.05000
H 	H 	0.56700 0.61110 0.33180 -0.00600
H 	H 	0.81030 0.88270 0.12950 -0.01300
H 	H 	0.72650 0.88280 0.17670 0.03800
H 	H 	0.83020 0.85500 0.28950 0.06800
H 	H 	0.91160 0.85520 0.24200 -0.01600
H 	H 	0.92540 0.77960 0.14920 -0.02400
H 	H 	0.98970 0.71760 0.14910 0.05300
H 	H 	0.12890 0.80080 0.14930 0.08600
H 	H 	0.06670 0.86280 0.14960 -0.01800
H 	H 	0.93270 0.94330 0.22130 -0.00600
H 	H 	0.98110 0.00960 0.24130 0.06600
H 	H 	0.08080 0.00010 0.12290 0.06400
H 	H 	0.03330 0.93330 0.10370 -0.01800
H 	H 	0.89660 0.95310 0.08390 -0.01600
H 	H 	0.85970 0.96250 0.00860 0.06400
H 	H 	0.88760 0.83310 0.97910 0.08000
H 	H 	0.92470 0.82130 0.05640 -0.01800
H 	H 	0.02500 0.32010 0.10950 -0.00900
H 	H 	0.07480 0.25370 0.12540 0.06200
H 	H 	0.99180 0.24460 0.25100 0.06100
H 	H 	0.94230 0.31070 0.23510 -0.00300
H 	H 	0.93430 0.41210 0.25380 -0.00700
H 	H 	0.86520 0.41530 0.31550 0.05500
H 	H 	0.74160 0.35840 0.23020 0.06800
H 	H 	0.81070 0.35520 0.16840 -0.00600
H 	H 	0.87200 0.44280 0.11000 -0.01400
H 	H 	0.83080 0.45120 0.03440 0.05400
H 	H 	0.88690 0.32570 0.99940 0.06900
H 	H 	0.92810 0.31730 0.07500 -0.00700
H 	H 	0.93150 0.47600 0.16110 -0.01200
H 	H 	0.99670 0.53500 0.15400 0.03200
H 	H 	0.13340 0.44830 0.16140 0.05000
H 	H 	0.06700 0.38890 0.16820 -0.00600
H 	H 	0.31030 0.11730 0.37050 -0.01300
H 	H 	0.22650 0.11720 0.32330 0.03800
H 	H 	0.33020 0.14500 0.21050 0.06800
H 	H 	0.41160 0.14480 0.25800 -0.01600
H 	H 	0.42540 0.22040 0.35080 -0.02400
H 	H 	0.48970 0.28240 0.35090 0.05200
H 	H 	0.62890 0.19920 0.35070 0.08600
H 	H 	0.56670 0.13720 0.35040 -0.01800
H 	H 	0.43270 0.05670 0.27870 -0.00600
H 	H 	0.48110 0.99040 0.25870 0.06600
H 	H 	0.58080 0.99990 0.37710 0.06300
H 	H 	0.53330 0.06670 0.39630 -0.01800
H 	H 	0.39660 0.04690 0.41610 -0.01600
H 	H 	0.35970 0.03750 0.49140 0.06400
H 	H 	0.38760 0.16690 0.52090 0.08100
H 	H 	0.42470 0.17870 0.44360 -0.01800
C 	C 	0.52233 0.32325 0.67128 -0.26800
C 	C 	0.48220 0.30473 0.63855 0.07000
C 	C 	0.45320 0.26495 0.64760 -0.06600
C 	C 	0.46440 0.24109 0.68876 -0.07100
C 	C 	0.50200 0.25951 0.72153 -0.06800
C 	C 	0.53070 0.29929 0.71219 0.07700
C 	C 	0.43510 0.19689 0.69770 0.42700
C 	C 	0.62100 0.38338 0.70529 -0.26800
C 	C 	0.60480 0.40120 0.74900 0.06900
C 	C 	0.64590 0.40310 0.78566 -0.07400
C 	C 	0.70310 0.38720 0.77864 -0.05000
C 	C 	0.71930 0.36930 0.73500 -0.07300
C 	C 	0.67830 0.36740 0.69828 0.07600
C 	C 	0.74600 0.39020 0.81900 0.37400
C 	C 	0.59605 0.37927 0.59959 -0.26400
C 	C 	0.62500 0.41906 0.58753 0.06800
C 	C 	0.64950 0.42404 0.54263 -0.07500
C 	C 	0.64510 0.38923 0.50979 -0.04900
C 	C 	0.61610 0.34944 0.52184 -0.08000
C 	C 	0.59160 0.34446 0.56674 0.07700
C 	C 	0.67090 0.39480 0.46110 0.37200
C 	C 	0.50726 0.42589 0.66273 -0.25700
C 	C 	0.52720 0.47007 0.66026 0.05900
C 	C 	0.48840 0.50512 0.65661 -0.05400
C 	C 	0.42750 0.49826 0.65660 -0.08300
C 	C 	0.40792 0.45425 0.66089 -0.06200
C 	C 	0.44760 0.41875 0.66446 0.06600
C 	C 	0.38580 0.53601 0.64990 0.39700
C 	C 	0.12918 0.12925 0.81941 -0.28300
C 	C 	0.18550 0.12233 0.83744 0.08000
C 	C 	0.23560 0.12241 0.80972 -0.08100
C 	C 	0.22951 0.13026 0.76164 -0.05200
C 	C 	0.17410 0.13877 0.74336 -0.09000
C 	C 	0.12600 0.13843 0.77162 0.09500
C 	C 	0.28460 0.12966 0.73187 0.37700
C 	C 	0.01187 0.17158 0.85260 -0.29700
C 	C 	0.03307 0.21538 0.85156 0.10000
C 	C 	0.99460 0.25266 0.85160 -0.11000
C 	C 	0.93492 0.24631 0.85258 0.00400
C 	C 	0.91278 0.20362 0.85145 -0.11900
C 	C 	0.94990 0.16665 0.85135 0.10500
C 	C 	0.89180 0.28630 0.85594 0.30000
C 	C 	0.02202 0.06922 0.84034 -0.27800
C 	C 	0.03699 0.04539 0.79876 0.07800
C 	C 	0.00844 0.00599 0.78685 -0.08200
C 	C 	0.96463 0.98929 0.81591 -0.05000
C 	C 	0.94914 0.01162 0.85694 -0.09000
C 	C 	0.97784 0.05117 0.86818 0.08800
C 	C 	0.93469 0.94599 0.80249 0.39400
C 	C 	0.08680 0.11459 0.92077 -0.28700
C 	C 	0.10560 0.07219 0.93682 0.09600
C 	C 	0.12730 0.06650 0.98171 -0.11400
C 	C 	0.13040 0.10040 0.01167 0.00100
C 	C 	0.11090 0.14270 0.99889 -0.11600
C 	C 	0.08890 0.14960 0.95273 0.10300
C 	C 	0.15320 0.09580 0.06280 0.30800
C 	C 	0.02233 0.67675 0.82872 -0.26800
C 	C 	0.98220 0.69527 0.86145 0.06900
C 	C 	0.95320 0.73505 0.85240 -0.06600
C 	C 	0.96440 0.75891 0.81124 -0.07100
C 	C 	0.00200 0.74049 0.77847 -0.06800
C 	C 	0.03070 0.70071 0.78781 0.07700
C 	C 	0.93510 0.80311 0.80230 0.42700
C 	C 	0.12100 0.61662 0.79471 -0.26800
C 	C 	0.10480 0.59880 0.75100 0.06900
C 	C 	0.14590 0.59690 0.71434 -0.07400
C 	C 	0.20310 0.61280 0.72136 -0.05100
C 	C 	0.21930 0.63070 0.76500 -0.07300
C 	C 	0.17830 0.63260 0.80172 0.07600
C 	C 	0.24600 0.60980 0.68100 0.37400
C 	C 	0.09605 0.62073 0.90041 -0.26300
C 	C 	0.12500 0.58094 0.91247 0.06800
C 	C 	0.14950 0.57596 0.95737 -0.07400
C 	C 	0.14510 0.61077 0.99021 -0.04900
C 	C 	0.11610 0.65056 0.97816 -0.08000
C 	C 	0.09160 0.65554 0.93326 0.07700
C 	C 	0.17090 0.60520 0.03890 0.37200
C 	C 	0.00726 0.57411 0.83727 -0.25800
C 	C 	0.02720 0.52993 0.83974 0.06000
C 	C 	0.98840 0.49488 0.84339 -0.05500
C 	C 	0.92750 0.50174 0.84340 -0.08200
C 	C 	0.90792 0.54575 0.83911 -0.06200
C 	C 	0.94760 0.58125 0.83554 0.06600
C 	C 	0.88580 0.46399 0.85010 0.39700
C 	C 	0.62918 0.87075 0.68059 -0.28200
C 	C 	0.68550 0.87767 0.66256 0.08000
C 	C 	0.73560 0.87759 0.69028 -0.08100
C 	C 	0.72951 0.86974 0.73836 -0.05200
C 	C 	0.67410 0.86123 0.75664 -0.09000
C 	C 	0.62600 0.86157 0.72838 0.09500
C 	C 	0.78460 0.87034 0.76813 0.37700
C 	C 	0.51187 0.82842 0.64740 -0.29700
C 	C 	0.53307 0.78462 0.64844 0.10000
C 	C 	0.49460 0.74734 0.64840 -0.10900
C 	C 	0.43492 0.75369 0.64742 0.00400
C 	C 	0.41278 0.79638 0.64855 -0.11900
C 	C 	0.44990 0.83335 0.64865 0.10500
C 	C 	0.39180 0.71370 0.64406 0.30000
C 	C 	0.52202 0.93078 0.65966 -0.27800
C 	C 	0.53699 0.95461 0.70124 0.07700
C 	C 	0.50844 0.99401 0.71315 -0.08100
C 	C 	0.46463 0.01071 0.68409 -0.05100
C 	C 	0.44914 0.98838 0.64306 -0.08900
C 	C 	0.47784 0.94883 0.63182 0.08800
C 	C 	0.43469 0.05401 0.69751 0.39400
C 	C 	0.58680 0.88541 0.57923 -0.28700
C 	C 	0.60560 0.92781 0.56318 0.09600
C 	C 	0.62730 0.93350 0.51829 -0.11400
C 	C 	0.63040 0.89960 0.48833 0.00100
C 	C 	0.61090 0.85730 0.50111 -0.11600
C 	C 	0.58890 0.85040 0.54727 0.10300
C 	C 	0.65320 0.90420 0.43720 0.30800
C 	C 	0.47767 0.67675 0.32872 -0.26800
C 	C 	0.51780 0.69527 0.36145 0.07000
C 	C 	0.54680 0.73505 0.35240 -0.06600
C 	C 	0.53560 0.75891 0.31124 -0.07100
C 	C 	0.49800 0.74049 0.27847 -0.06800
C 	C 	0.46930 0.70071 0.28781 0.07700
C 	C 	0.56490 0.80311 0.30230 0.42700
C 	C 	0.37900 0.61662 0.29471 -0.26800
C 	C 	0.39520 0.59880 0.25100 0.06900
C 	C 	0.35410 0.59690 0.21434 -0.07400
C 	C 	0.29690 0.61280 0.22136 -0.05000
C 	C 	0.28070 0.63070 0.26500 -0.07300
C 	C 	0.32170 0.63260 0.30172 0.07600
C 	C 	0.25400 0.60980 0.18100 0.37400
C 	C 	0.40395 0.62073 0.40041 -0.26400
C 	C 	0.37500 0.58094 0.41247 0.06800
C 	C 	0.35050 0.57596 0.45737 -0.07500
C 	C 	0.35490 0.61077 0.49021 -0.04900
C 	C 	0.38390 0.65056 0.47816 -0.08000
C 	C 	0.40840 0.65554 0.43326 0.07700
C 	C 	0.32910 0.60520 0.53890 0.37200
C 	C 	0.49274 0.57411 0.33727 -0.25700
C 	C 	0.47280 0.52993 0.33974 0.05900
C 	C 	0.51160 0.49488 0.34339 -0.05400
C 	C 	0.57250 0.50174 0.34340 -0.08300
C 	C 	0.59208 0.54575 0.33911 -0.06200
C 	C 	0.55240 0.58125 0.33554 0.06600
C 	C 	0.61420 0.46399 0.35010 0.39700
C 	C 	0.87082 0.87075 0.18059 -0.28300
C 	C 	0.81450 0.87767 0.16256 0.08000
C 	C 	0.76440 0.87759 0.19028 -0.08100
C 	C 	0.77049 0.86974 0.23836 -0.05200
C 	C 	0.82590 0.86123 0.25664 -0.09000
C 	C 	0.87400 0.86157 0.22838 0.09500
C 	C 	0.71540 0.87034 0.26813 0.37700
C 	C 	0.98813 0.82842 0.14740 -0.29700
C 	C 	0.96693 0.78462 0.14844 0.10000
C 	C 	0.00540 0.74734 0.14840 -0.11000
C 	C 	0.06508 0.75369 0.14742 0.00400
C 	C 	0.08722 0.79638 0.14855 -0.11900
C 	C 	0.05010 0.83335 0.14865 0.10500
C 	C 	0.10820 0.71370 0.14406 0.30000
C 	C 	0.97798 0.93078 0.15966 -0.27800
C 	C 	0.96301 0.95461 0.20124 0.07800
C 	C 	0.99156 0.99401 0.21315 -0.08200
C 	C 	0.03537 0.01071 0.18409 -0.05000
C 	C 	0.05086 0.98838 0.14306 -0.09000
C 	C 	0.02216 0.94883 0.13182 0.08800
C 	C 	0.06531 0.05401 0.19751 0.39400
C 	C 	0.91320 0.88541 0.07923 -0.28700
C 	C 	0.89440 0.92781 0.06318 0.09600
C 	C 	0.87270 0.93350 0.01829 -0.11400
C 	C 	0.86960 0.89960 0.98833 0.00100
C 	C 	0.88910 0.85730 0.00111 -0.11600
C 	C 	0.91110 0.85040 0.04727 0.10300
C 	C 	0.84680 0.90420 0.93720 0.30800
C 	C 	0.97767 0.32325 0.17128 -0.26800
C 	C 	0.01780 0.30473 0.13855 0.06900
C 	C 	0.04680 0.26495 0.14760 -0.06600
C 	C 	0.03560 0.24109 0.18876 -0.07100
C 	C 	0.99800 0.25951 0.22153 -0.06800
C 	C 	0.96930 0.29929 0.21219 0.07700
C 	C 	0.06490 0.19689 0.19770 0.42700
C 	C 	0.87900 0.38338 0.20529 -0.26800
C 	C 	0.89520 0.40120 0.24900 0.06900
C 	C 	0.85410 0.40310 0.28566 -0.07400
C 	C 	0.79690 0.38720 0.27864 -0.05100
C 	C 	0.78070 0.36930 0.23500 -0.07300
C 	C 	0.82170 0.36740 0.19828 0.07600
C 	C 	0.75400 0.39020 0.31900 0.37400
C 	C 	0.90395 0.37927 0.09959 -0.26300
C 	C 	0.87500 0.41906 0.08753 0.06800
C 	C 	0.85050 0.42404 0.04263 -0.07400
C 	C 	0.85490 0.38923 0.00979 -0.04900
C 	C 	0.88390 0.34944 0.02184 -0.08000
C 	C 	0.90840 0.34446 0.06674 0.07700
C 	C 	0.82910 0.39480 0.96110 0.37200
C 	C 	0.99274 0.42589 0.16273 -0.25800
C 	C 	0.97280 0.47007 0.16026 0.06000
C 	C 	0.01160 0.50512 0.15661 -0.05500
C 	C 	0.07250 0.49826 0.15660 -0.08200
C 	C 	0.09208 0.45425 0.16089 -0.06200
C 	C 	0.05240 0.41875 0.16446 0.06600
C 	C 	0.11420 0.53601 0.14990 0.39700
C 	C 	0.37082 0.12925 0.31941 -0.28200
C 	C 	0.31450 0.12233 0.33744 0.08000
C 	C 	0.26440 0.12241 0.30972 -0.08100
C 	C 	0.27049 0.13026 0.26164 -0.05200
C 	C 	0.32590 0.13877 0.24336 -0.09000
C 	C 	0.37400 0.13843 0.27162 0.09500
C 	C 	0.21540 0.12966 0.23187 0.37700
C 	C 	0.48813 0.17158 0.35260 -0.29700
C 	C 	0.46693 0.21538 0.35156 0.10000
C 	C 	0.50540 0.25266 0.35160 -0.10900
C 	C 	0.56508 0.24631 0.35258 0.00400
C 	C 	0.58722 0.20362 0.35145 -0.11900
C 	C 	0.55010 0.16665 0.35135 0.10500
C 	C 	0.60820 0.28630 0.35594 0.30000
C 	C 	0.47798 0.06922 0.34034 -0.27800
C 	C 	0.46301 0.04539 0.29876 0.07700
C 	C 	0.49156 0.00599 0.28685 -0.08100
C 	C 	0.53537 0.98929 0.31591 -0.05100
C 	C 	0.55086 0.01162 0.35694 -0.08900
C 	C 	0.52216 0.05117 0.36818 0.08800
C 	C 	0.56531 0.94599 0.30249 0.39400
C 	C 	0.41320 0.11459 0.42077 -0.28700
C 	C 	0.39440 0.07219 0.43682 0.09600
C 	C 	0.37270 0.06650 0.48171 -0.11400
C 	C 	0.36960 0.10040 0.51167 0.00100
C 	C 	0.38910 0.14270 0.49889 -0.11600
C 	C 	0.41110 0.14960 0.45273 0.10300
C 	C 	0.34680 0.09580 0.56280 0.30800
O 	O 	0.40396 0.18142 0.66554 -0.49900
O 	O 	0.44382 0.17872 0.73695 -0.53300
O 	O 	0.72970 0.41000 0.85648 -0.51300
O 	O 	0.79460 0.37030 0.81300 -0.47800
O 	O 	0.69140 0.43360 0.45180 -0.51900
O 	O 	0.65870 0.36520 0.43070 -0.47000
O 	O 	0.40575 0.57559 0.64954 -0.48600
O 	O 	0.33222 0.52757 0.64587 -0.50000
O 	O 	0.33270 0.12598 0.75154 -0.53300
O 	O 	0.27809 0.13100 0.68703 -0.46700
O 	O 	0.91499 0.32514 0.84932 -0.43400
O 	O 	0.84003 0.28089 0.86509 -0.29700
O 	O 	0.94319 0.93037 0.76199 -0.51800
O 	O 	0.90143 0.92913 0.83399 -0.49300
O 	O 	0.16840 0.05480 0.07390 -0.32100
O 	O 	0.14980 0.12893 0.08926 -0.44500
O 	O 	0.90396 0.81858 0.83446 -0.49900
O 	O 	0.94382 0.82128 0.76305 -0.53300
O 	O 	0.22970 0.59000 0.64352 -0.51300
O 	O 	0.29460 0.62970 0.68700 -0.47800
O 	O 	0.19140 0.56640 0.04820 -0.51900
O 	O 	0.15870 0.63480 0.06930 -0.47000
O 	O 	0.90575 0.42441 0.85046 -0.48600
O 	O 	0.83222 0.47243 0.85413 -0.50000
O 	O 	0.83270 0.87402 0.74846 -0.53300
O 	O 	0.77809 0.86900 0.81297 -0.46700
O 	O 	0.41499 0.67486 0.65068 -0.43400
O 	O 	0.34003 0.71911 0.63491 -0.29700
O 	O 	0.44319 0.06963 0.73801 -0.51800
O 	O 	0.40143 0.07087 0.66601 -0.49300
O 	O 	0.66840 0.94520 0.42610 -0.32100
O 	O 	0.64980 0.87107 0.41074 -0.44500
O 	O 	0.59604 0.81858 0.33446 -0.49900
O 	O 	0.55618 0.82128 0.26305 -0.53300
O 	O 	0.27030 0.59000 0.14352 -0.51300
O 	O 	0.20540 0.62970 0.18700 -0.47800
O 	O 	0.30860 0.56640 0.54820 -0.51900
O 	O 	0.34130 0.63480 0.56930 -0.47000
O 	O 	0.59425 0.42441 0.35046 -0.48600
O 	O 	0.66778 0.47243 0.35413 -0.50000
O 	O 	0.66730 0.87402 0.24846 -0.53300
O 	O 	0.72191 0.86900 0.31297 -0.46700
O 	O 	0.08501 0.67486 0.15068 -0.43400
O 	O 	0.15997 0.71911 0.13491 -0.29700
O 	O 	0.05681 0.06963 0.23801 -0.51800
O 	O 	0.09857 0.07087 0.16601 -0.49300
O 	O 	0.83160 0.94520 0.92610 -0.32100
O 	O 	0.85020 0.87107 0.91074 -0.44500
O 	O 	0.09604 0.18142 0.16554 -0.49900
O 	O 	0.05618 0.17872 0.23695 -0.53300
O 	O 	0.77030 0.41000 0.35648 -0.51300
O 	O 	0.70540 0.37030 0.31300 -0.47800
O 	O 	0.80860 0.43360 0.95180 -0.51900
O 	O 	0.84130 0.36520 0.93070 -0.47000
O 	O 	0.09425 0.57559 0.14954 -0.48600
O 	O 	0.16778 0.52757 0.14587 -0.50000
O 	O 	0.16730 0.12598 0.25154 -0.53300
O 	O 	0.22191 0.13100 0.18703 -0.46700
O 	O 	0.58501 0.32514 0.34932 -0.43400
O 	O 	0.65997 0.28089 0.36509 -0.29700
O 	O 	0.55681 0.93037 0.26199 -0.51800
O 	O 	0.59857 0.92913 0.33399 -0.49300
O 	O 	0.33160 0.05480 0.57390 -0.32100
O 	O 	0.35020 0.12893 0.58926 -0.44500
Zn	Zn	0.14286 0.37360 0.65802 1.23500
Zn	Zn	0.07865 0.37505 0.77307 1.17900
Zn	Zn	0.64586 0.12811 0.86128 1.23300
Zn	Zn	0.73899 0.04133 0.90002 1.17700
Zn	Zn	0.64286 0.62640 0.84198 1.23500
Zn	Zn	0.57865 0.62495 0.72693 1.17900
Zn	Zn	0.14586 0.87189 0.63872 1.23300
Zn	Zn	0.23899 0.95867 0.59998 1.17700
Zn	Zn	0.85714 0.62640 0.34198 1.23500
Zn	Zn	0.92135 0.62495 0.22693 1.17900
Zn	Zn	0.35414 0.87189 0.13872 1.23300
Zn	Zn	0.26101 0.95867 0.09998 1.17700
Zn	Zn	0.35714 0.37360 0.15802 1.23500
Zn	Zn	0.42135 0.37505 0.27307 1.17900
Zn	Zn	0.85414 0.12811 0.36128 1.23300
Zn	Zn	0.76101 0.04133 0.40002 1.17700
Si	Si	0.93819 0.12235 0.66004 0.76400
Si	Si	0.43824 0.37785 0.85771 0.79100
Si	Si	0.43819 0.87765 0.83996 0.76400
Si	Si	0.93824 0.62215 0.64229 0.79100
Si	Si	0.06181 0.87765 0.33996 0.76400
Si	Si	0.56176 0.62215 0.14229 0.79100
Si	Si	0.56181 0.12235 0.16004 0.76400
Si	Si	0.06176 0.37785 0.35771 0.79100
H 	H 	0.02500 0.17990 0.60950 -0.00900
H 	H 	0.07480 0.24630 0.62540 0.06200
H 	H 	0.99180 0.25540 0.75100 0.06100
H 	H 	0.94230 0.18930 0.73510 -0.00300
H 	H 	0.93430 0.08790 0.75380 -0.00700
H 	H 	0.86520 0.08470 0.81550 0.05500
H 	H 	0.74160 0.14160 0.73020 0.06800
H 	H 	0.81070 0.14480 0.66840 -0.00600
H 	H 	0.87200 0.05720 0.61000 -0.01400
H 	H 	0.83080 0.04880 0.53440 0.05400
H 	H 	0.88690 0.17430 0.49940 0.06900
H 	H 	0.92810 0.18270 0.57500 -0.00700
H 	H 	0.93150 0.02400 0.66110 -0.01200
H 	H 	0.99670 0.96500 0.65400 0.03200
H 	H 	0.13340 0.05170 0.66140 0.05000
H 	H 	0.06700 0.11110 0.66820 -0.00600
H 	H 	0.31030 0.38270 0.87050 -0.01300
H 	H 	0.22650 0.38280 0.82330 0.03800
H 	H 	0.33020 0.35500 0.71050 0.06800
H 	H 	0.41160 0.35520 0.75800 -0.01600
H 	H 	0.42540 0.27960 0.85080 -0.02400
H 	H 	0.48970 0.21760 0.85090 0.05200
H 	H 	0.62890 0.30080 0.85070 0.08600
H 	H 	0.56670 0.36280 0.85040 -0.01800
H 	H 	0.43270 0.44330 0.77870 -0.00600
H 	H 	0.48110 0.50960 0.75870 0.06600
H 	H 	0.58080 0.50010 0.87710 0.06300
H 	H 	0.53330 0.43330 0.89630 -0.01800
H 	H 	0.39660 0.45310 0.91610 -0.01600
H 	H 	0.35970 0.46250 0.99140 0.06400
H 	H 	0.38760 0.33310 0.02090 0.08100
H 	H 	0.42470 0.32130 0.94360 -0.01800
H 	H 	0.52500 0.82010 0.89050 -0.00900
H 	H 	0.57480 0.75370 0.87460 0.06200
H 	H 	0.49180 0.74460 0.74900 0.06100
H 	H 	0.44230 0.81070 0.76490 -0.00300
H 	H 	0.43430 0.91210 0.74620 -0.00700
H 	H 	0.36520 0.91530 0.68450 0.05500
H 	H 	0.24160 0.85840 0.76980 0.06800
H 	H 	0.31070 0.85520 0.83160 -0.00600
H 	H 	0.37200 0.94280 0.89000 -0.01400
H 	H 	0.33080 0.95120 0.96560 0.05400
H 	H 	0.38690 0.82570 0.00060 0.06900
H 	H 	0.42810 0.81730 0.92500 -0.00700
H 	H 	0.43150 0.97600 0.83890 -0.01200
H 	H 	0.49670 0.03500 0.84600 0.03200
H 	H 	0.63340 0.94830 0.83860 0.05000
H 	H 	0.56700 0.88890 0.83180 -0.00600
H 	H 	0.81030 0.61730 0.62950 -0.01300
H 	H 	0.72650 0.61720 0.67670 0.03800
H 	H 	0.83020 0.64500 0.78950 0.06800
H 	H 	0.91160 0.64480 0.74200 -0.01600
H 	H 	0.92540 0.72040 0.64920 -0.02400
H 	H 	0.98970 0.78240 0.64910 0.05200
H 	H 	0.12890 0.69920 0.64930 0.08600
H 	H 	0.06670 0.63720 0.64960 -0.01800
H 	H 	0.93270 0.55670 0.72130 -0.00600
H 	H 	0.98110 0.49040 0.74130 0.06600
H 	H 	0.08080 0.49990 0.62290 0.06300
H 	H 	0.03330 0.56670 0.60370 -0.01800
H 	H 	0.89660 0.54690 0.58390 -0.01600
H 	H 	0.85970 0.53750 0.50860 0.06400
H 	H 	0.88760 0.66690 0.47910 0.08100
H 	H 	0.92470 0.67870 0.55640 -0.01800
H 	H 	0.97500 0.82010 0.39050 -0.00900
H 	H 	0.92520 0.75370 0.37460 0.06200
H 	H 	0.00820 0.74460 0.24900 0.06100
H 	H 	0.05770 0.81070 0.26490 -0.00300
H 	H 	0.06570 0.91210 0.24620 -0.00700
H 	H 	0.13480 0.91530 0.18450 0.05500
H 	H 	0.25840 0.85840 0.26980 0.06800
H 	H 	0.18930 0.85520 0.33160 -0.00600
H 	H 	0.12800 0.94280 0.39000 -0.01400
H 	H 	0.16920 0.95120 0.46560 0.05400
H 	H 	0.11310 0.82570 0.50060 0.06900
H 	H 	0.07190 0.81730 0.42500 -0.00700
H 	H 	0.06850 0.97600 0.33890 -0.01200
H 	H 	0.00330 0.03500 0.34600 0.03200
H 	H 	0.86660 0.94830 0.33860 0.05000
H 	H 	0.93300 0.88890 0.33180 -0.00600
H 	H 	0.68970 0.61730 0.12950 -0.01300
H 	H 	0.77350 0.61720 0.17670 0.03800
H 	H 	0.66980 0.64500 0.28950 0.06800
H 	H 	0.58840 0.64480 0.24200 -0.01600
H 	H 	0.57460 0.72040 0.14920 -0.02400
H 	H 	0.51030 0.78240 0.14910 0.05200
H 	H 	0.37110 0.69920 0.14930 0.08600
H 	H 	0.43330 0.63720 0.14960 -0.01800
H 	H 	0.56730 0.55670 0.22130 -0.00600
H 	H 	0.51890 0.49040 0.24130 0.06600
H 	H 	0.41920 0.49990 0.12290 0.06300
H 	H 	0.46670 0.56670 0.10370 -0.01800
H 	H 	0.60340 0.54690 0.08390 -0.01600
H 	H 	0.64030 0.53750 0.00860 0.06400
H 	H 	0.61240 0.66690 0.97910 0.08100
H 	H 	0.57530 0.67870 0.05640 -0.01800
H 	H 	0.47500 0.17990 0.10950 -0.00900
H 	H 	0.42520 0.24630 0.12540 0.06200
H 	H 	0.50820 0.25540 0.25100 0.06100
H 	H 	0.55770 0.18930 0.23510 -0.00300
H 	H 	0.56570 0.08790 0.25380 -0.00700
H 	H 	0.63480 0.08470 0.31550 0.05500
H 	H 	0.75840 0.14160 0.23020 0.06800
H 	H 	0.68930 0.14480 0.16840 -0.00600
H 	H 	0.62800 0.05720 0.11000 -0.01400
H 	H 	0.66920 0.04880 0.03440 0.05400
H 	H 	0.61310 0.17430 0.99940 0.06900
H 	H 	0.57190 0.18270 0.07500 -0.00700
H 	H 	0.56850 0.02400 0.16110 -0.01200
H 	H 	0.50330 0.96500 0.15400 0.03200
H 	H 	0.36660 0.05170 0.16140 0.05000
H 	H 	0.43300 0.11110 0.16820 -0.00600
H 	H 	0.18970 0.38270 0.37050 -0.01300
H 	H 	0.27350 0.38280 0.32330 0.03800
H 	H 	0.16980 0.35500 0.21050 0.06800
H 	H 	0.08840 0.35520 0.25800 -0.01600
H 	H 	0.07460 0.27960 0.35080 -0.02400
H 	H 	0.01030 0.21760 0.35090 0.05200
H 	H 	0.87110 0.30080 0.35070 0.08600
H 	H 	0.93330 0.36280 0.35040 -0.01800
H 	H 	0.06730 0.44330 0.27870 -0.00600
H 	H 	0.01890 0.50960 0.25870 0.06600
H 	H 	0.91920 0.50010 0.37710 0.06300
H 	H 	0.96670 0.43330 0.39630 -0.01800
H 	H 	0.10340 0.45310 0.41610 -0.01600
H 	H 	0.14030 0.46250 0.49140 0.06400
H 	H 	0.11240 0.33310 0.52090 0.08100
H 	H 	0.07530 0.32130 0.44360 -0.01800
C 	C 	0.97767 0.17675 0.67128 -0.26800
C 	C 	0.01780 0.19527 0.63855 0.07000
C 	C 	0.04680 0.23505 0.64760 -0.06600
C 	C 	0.03560 0.25891 0.68876 -0.07000
C 	C 	0.99800 0.24049 0.72153 -0.06900
C 	C 	0.96930 0.20071 0.71219 0.07700
C 	C 	0.06490 0.30311 0.69770 0.42700
C 	C 	0.87900 0.11662 0.70529 -0.26800
C 	C 	0.89520 0.09880 0.74900 0.06900
C 	C 	0.85410 0.09690 0.78566 -0.07400
C 	C 	0.79690 0.11280 0.77864 -0.05000
C 	C 	0.78070 0.13070 0.73500 -0.07300
C 	C 	0.82170 0.13260 0.69828 0.07600
C 	C 	0.75400 0.10980 0.81900 0.37400
C 	C 	0.90395 0.12073 0.59959 -0.26400
C 	C 	0.87500 0.08094 0.58753 0.06800
C 	C 	0.85050 0.07596 0.54263 -0.07500
C 	C 	0.85490 0.11077 0.50979 -0.04900
C 	C 	0.88390 0.15056 0.52184 -0.08000
C 	C 	0.90840 0.15554 0.56674 0.07700
C 	C 	0.82910 0.10520 0.46110 0.37200
C 	C 	0.99274 0.07411 0.66273 -0.25800
C 	C 	0.97280 0.02993 0.66026 0.05900
C 	C 	0.01160 0.99488 0.65661 -0.05400
C 	C 	0.07250 0.00174 0.65660 -0.08300
C 	C 	0.09208 0.04575 0.66089 -0.06200
C 	C 	0.05240 0.08125 0.66446 0.06600
C 	C 	0.11420 0.96399 0.64990 0.39700
C 	C 	0.37082 0.37075 0.81941 -0.28300
C 	C 	0.31450 0.37767 0.83744 0.08000
C 	C 	0.26440 0.37759 0.80972 -0.08100
C 	C 	0.27049 0.36974 0.76164 -0.05200
C 	C 	0.32590 0.36123 0.74336 -0.09000
C 	C 	0.37400 0.36157 0.77162 0.09500
C 	C 	0.21540 0.37034 0.73187 0.37700
C 	C 	0.48813 0.32842 0.85260 -0.29700
C 	C 	0.46693 0.28462 0.85156 0.10000
C 	C 	0.50540 0.24734 0.85160 -0.10900
C 	C 	0.56508 0.25369 0.85258 0.00400
C 	C 	0.58722 0.29638 0.85145 -0.11900
C 	C 	0.55010 0.33335 0.85135 0.10500
C 	C 	0.60820 0.21370 0.85594 0.30000
C 	C 	0.47798 0.43078 0.84034 -0.27800
C 	C 	0.46301 0.45461 0.79876 0.07800
C 	C 	0.49156 0.49401 0.78685 -0.08200
C 	C 	0.53537 0.51071 0.81591 -0.05100
C 	C 	0.55086 0.48838 0.85694 -0.08900
C 	C 	0.52216 0.44883 0.86818 0.08800
C 	C 	0.56531 0.55401 0.80249 0.39400
C 	C 	0.41320 0.38541 0.92077 -0.28700
C 	C 	0.39440 0.42781 0.93682 0.09600
C 	C 	0.37270 0.43350 0.98171 -0.11400
C 	C 	0.36960 0.39960 0.01167 0.00100
C 	C 	0.38910 0.35730 0.99889 -0.11600
C 	C 	0.41110 0.35040 0.95273 0.10300
C 	C 	0.34680 0.40420 0.06280 0.30800
C 	C 	0.47767 0.82325 0.82872 -0.26800
C 	C 	0.51780 0.80473 0.86145 0.07000
C 	C 	0.54680 0.76495 0.85240 -0.06600
C 	C 	0.53560 0.74109 0.81124 -0.07100
C 	C 	0.49800 0.75951 0.77847 -0.06800
C 	C 	0.46930 0.79929 0.78781 0.07700
C 	C 	0.56490 0.69689 0.80230 0.42700
C 	C 	0.37900 0.88338 0.79471 -0.26800
C 	C 	0.39520 0.90120 0.75100 0.06900
C 	C 	0.35410 0.90310 0.71434 -0.07400
C 	C 	0.29690 0.88720 0.72136 -0.05000
C 	C 	0.28070 0.86930 0.76500 -0.07300
C 	C 	0.32170 0.86740 0.80172 0.07600
C 	C 	0.25400 0.89020 0.68100 0.37400
C 	C 	0.40395 0.87927 0.90041 -0.26400
C 	C 	0.37500 0.91906 0.91247 0.06800
C 	C 	0.35050 0.92404 0.95737 -0.07500
C 	C 	0.35490 0.88923 0.99021 -0.04900
C 	C 	0.38390 0.84944 0.97816 -0.08000
C 	C 	0.40840 0.84446 0.93326 0.07700
C 	C 	0.32910 0.89480 0.03890 0.37200
C 	C 	0.49274 0.92589 0.83727 -0.25800
C 	C 	0.47280 0.97007 0.83974 0.06000
C 	C 	0.51160 0.00512 0.84339 -0.05500
C 	C 	0.57250 0.99826 0.84340 -0.08200
C 	C 	0.59208 0.95425 0.83911 -0.06200
C 	C 	0.55240 0.91875 0.83554 0.06600
C 	C 	0.61420 0.03601 0.85010 0.39600
C 	C 	0.87082 0.62925 0.68059 -0.28300
C 	C 	0.81450 0.62233 0.66256 0.08000
C 	C 	0.76440 0.62241 0.69028 -0.08100
C 	C 	0.77049 0.63026 0.73836 -0.05200
C 	C 	0.82590 0.63877 0.75664 -0.09000
C 	C 	0.87400 0.63843 0.72838 0.09500
C 	C 	0.71540 0.62966 0.76813 0.37700
C 	C 	0.98813 0.67158 0.64740 -0.29700
C 	C 	0.96693 0.71538 0.64844 0.10000
C 	C 	0.00540 0.75266 0.64840 -0.10900
C 	C 	0.06508 0.74631 0.64742 0.00400
C 	C 	0.08722 0.70362 0.64855 -0.11900
C 	C 	0.05010 0.66665 0.64865 0.10500
C 	C 	0.10820 0.78630 0.64406 0.30000
C 	C 	0.97798 0.56922 0.65966 -0.27800
C 	C 	0.96301 0.54539 0.70124 0.07800
C 	C 	0.99156 0.50599 0.71315 -0.08200
C 	C 	0.03537 0.48929 0.68409 -0.05100
C 	C 	0.05086 0.51162 0.64306 -0.08900
C 	C 	0.02216 0.55117 0.63182 0.08800
C 	C 	0.06531 0.44599 0.69751 0.39400
C 	C 	0.91320 0.61459 0.57923 -0.28700
C 	C 	0.89440 0.57219 0.56318 0.09600
C 	C 	0.87270 0.56650 0.51829 -0.11400
C 	C 	0.86960 0.60040 0.48833 0.00100
C 	C 	0.88910 0.64270 0.50111 -0.11600
C 	C 	0.91110 0.64960 0.54727 0.10300
C 	C 	0.84680 0.59580 0.43720 0.30800
C 	C 	0.02233 0.82325 0.32872 -0.26800
C 	C 	0.98220 0.80473 0.36145 0.07000
C 	C 	0.95320 0.76495 0.35240 -0.06600
C 	C 	0.96440 0.74109 0.31124 -0.07000
C 	C 	0.00200 0.75951 0.27847 -0.06900
C 	C 	0.03070 0.79929 0.28781 0.07700
C 	C 	0.93510 0.69689 0.30230 0.42700
C 	C 	0.12100 0.88338 0.29471 -0.26800
C 	C 	0.10480 0.90120 0.25100 0.06900
C 	C 	0.14590 0.90310 0.21434 -0.07400
C 	C 	0.20310 0.88720 0.22136 -0.05000
C 	C 	0.21930 0.86930 0.26500 -0.07300
C 	C 	0.17830 0.86740 0.30172 0.07600
C 	C 	0.24600 0.89020 0.18100 0.37400
C 	C 	0.09605 0.87927 0.40041 -0.26400
C 	C 	0.12500 0.91906 0.41247 0.06800
C 	C 	0.14950 0.92404 0.45737 -0.07500
C 	C 	0.14510 0.88923 0.49021 -0.04900
C 	C 	0.11610 0.84944 0.47816 -0.08000
C 	C 	0.09160 0.84446 0.43326 0.07700
C 	C 	0.17090 0.89480 0.53890 0.37200
C 	C 	0.00726 0.92589 0.33727 -0.25800
C 	C 	0.02720 0.97007 0.33974 0.05900
C 	C 	0.98840 0.00512 0.34339 -0.05400
C 	C 	0.92750 0.99826 0.34340 -0.08300
C 	C 	0.90792 0.95425 0.33911 -0.06200
C 	C 	0.94760 0.91875 0.33554 0.06600
C 	C 	0.88580 0.03601 0.35010 0.39700
C 	C 	0.62918 0.62925 0.18059 -0.28300
C 	C 	0.68550 0.62233 0.16256 0.08000
C 	C 	0.73560 0.62241 0.19028 -0.08100
C 	C 	0.72951 0.63026 0.23836 -0.05200
C 	C 	0.67410 0.63877 0.25664 -0.09000
C 	C 	0.62600 0.63843 0.22838 0.09500
C 	C 	0.78460 0.62966 0.26813 0.37700
C 	C 	0.51187 0.67158 0.14740 -0.29700
C 	C 	0.53307 0.71538 0.14844 0.10000
C 	C 	0.49460 0.75266 0.14840 -0.10900
C 	C 	0.43492 0.74631 0.14742 0.00400
C 	C 	0.41278 0.70362 0.14855 -0.11900
C 	C 	0.44990 0.66665 0.14865 0.10500
C 	C 	0.39180 0.78630 0.14406 0.30000
C 	C 	0.52202 0.56922 0.15966 -0.27800
C 	C 	0.53699 0.54539 0.20124 0.07800
C 	C 	0.50844 0.50599 0.21315 -0.08200
C 	C 	0.46463 0.48929 0.18409 -0.05100
C 	C 	0.44914 0.51162 0.14306 -0.08900
C 	C 	0.47784 0.55117 0.13182 0.08800
C 	C 	0.43469 0.44599 0.19751 0.39400
C 	C 	0.58680 0.61459 0.07923 -0.28700
C 	C 	0.60560 0.57219 0.06318 0.09600
C 	C 	0.62730 0.56650 0.01829 -0.11400
C 	C 	0.63040 0.60040 0.98833 0.00100
C 	C 	0.61090 0.64270 0.00111 -0.11600
C 	C 	0.58890 0.64960 0.04727 0.10300
C 	C 	0.65320 0.59580 0.93720 0.30800
C 	C 	0.52233 0.17675 0.17128 -0.26800
C 	C 	0.48220 0.19527 0.13855 0.07000
C 	C 	0.45320 0.23505 0.14760 -0.06600
C 	C 	0.46440 0.25891 0.18876 -0.07100
C 	C 	0.50200 0.24049 0.22153 -0.06800
C 	C 	0.53070 0.20071 0.21219 0.07700
C 	C 	0.43510 0.30311 0.19770 0.42700
C 	C 	0.62100 0.11662 0.20529 -0.26800
C 	C 	0.60480 0.09880 0.24900 0.06900
C 	C 	0.64590 0.09690 0.28566 -0.07400
C 	C 	0.70310 0.11280 0.27864 -0.05000
C 	C 	0.71930 0.13070 0.23500 -0.07300
C 	C 	0.67830 0.13260 0.19828 0.07600
C 	C 	0.74600 0.10980 0.31900 0.37400
C 	C 	0.59605 0.12073 0.09959 -0.26400
C 	C 	0.62500 0.08094 0.08753 0.06800
C 	C 	0.64950 0.07596 0.04263 -0.07500
C 	C 	0.64510 0.11077 0.00979 -0.04900
C 	C 	0.61610 0.15056 0.02184 -0.08000
C 	C 	0.59160 0.15554 0.06674 0.07700
C 	C 	0.67090 0.10520 0.96110 0.37200
C 	C 	0.50726 0.07411 0.16273 -0.25800
C 	C 	0.52720 0.02993 0.16026 0.06000
C 	C 	0.48840 0.99488 0.15661 -0.05500
C 	C 	0.42750 0.00174 0.15660 -0.08200
C 	C 	0.40792 0.04575 0.16089 -0.06200
C 	C 	0.44760 0.08125 0.16446 0.06600
C 	C 	0.38580 0.96399 0.14990 0.39600
C 	C 	0.12918 0.37075 0.31941 -0.28300
C 	C 	0.18550 0.37767 0.33744 0.08000
C 	C 	0.23560 0.37759 0.30972 -0.08100
C 	C 	0.22951 0.36974 0.26164 -0.05200
C 	C 	0.17410 0.36123 0.24336 -0.09000
C 	C 	0.12600 0.36157 0.27162 0.09500
C 	C 	0.28460 0.37034 0.23187 0.37700
C 	C 	0.01187 0.32842 0.35260 -0.29700
C 	C 	0.03307 0.28462 0.35156 0.10000
C 	C 	0.99460 0.24734 0.35160 -0.10900
C 	C 	0.93492 0.25369 0.35258 0.00400
C 	C 	0.91278 0.29638 0.35145 -0.11900
C 	C 	0.94990 0.33335 0.35135 0.10500
C 	C 	0.89180 0.21370 0.35594 0.30000
C 	C 	0.02202 0.43078 0.34034 -0.27800
C 	C 	0.03699 0.45461 0.29876 0.07800
C 	C 	0.00844 0.49401 0.28685 -0.08200
C 	C 	0.96463 0.51071 0.31591 -0.05100
C 	C 	0.94914 0.48838 0.35694 -0.08900
C 	C 	0.97784 0.44883 0.36818 0.08800
C 	C 	0.93469 0.55401 0.30249 0.39400
C 	C 	0.08680 0.38541 0.42077 -0.28700
C 	C 	0.10560 0.42781 0.43682 0.09600
C 	C 	0.12730 0.43350 0.48171 -0.11400
C 	C 	0.13040 0.39960 0.51167 0.00100
C 	C 	0.11090 0.35730 0.49889 -0.11600
C 	C 	0.08890 0.35040 0.45273 0.10300
C 	C 	0.15320 0.40420 0.56280 0.30800
O 	O 	0.09604 0.31858 0.66554 -0.49900
O 	O 	0.05618 0.32128 0.73695 -0.53300
O 	O 	0.77030 0.09000 0.85648 -0.51300
O 	O 	0.70540 0.12970 0.81300 -0.47800
O 	O 	0.80860 0.06640 0.45180 -0.51900
O 	O 	0.84130 0.13480 0.43070 -0.47000
O 	O 	0.09425 0.92441 0.64954 -0.48600
O 	O 	0.16778 0.97243 0.64587 -0.50000
O 	O 	0.16730 0.37402 0.75154 -0.53300
O 	O 	0.22191 0.36900 0.68703 -0.46700
O 	O 	0.58501 0.17486 0.84932 -0.43400
O 	O 	0.65997 0.21911 0.86509 -0.29700
O 	O 	0.55681 0.56963 0.76199 -0.51800
O 	O 	0.59857 0.57087 0.83399 -0.49300
O 	O 	0.33160 0.44520 0.07390 -0.32100
O 	O 	0.35020 0.37107 0.08926 -0.44500
O 	O 	0.59604 0.68142 0.83446 -0.49900
O 	O 	0.55618 0.67872 0.76305 -0.53300
O 	O 	0.27030 0.91000 0.64352 -0.51300
O 	O 	0.20540 0.87030 0.68700 -0.47800
O 	O 	0.30860 0.93360 0.04820 -0.51900
O 	O 	0.34130 0.86520 0.06930 -0.47000
O 	O 	0.59425 0.07559 0.85046 -0.48600
O 	O 	0.66778 0.02757 0.85413 -0.50000
O 	O 	0.66730 0.62598 0.74846 -0.53300
O 	O 	0.72191 0.63100 0.81297 -0.46700
O 	O 	0.08501 0.82514 0.65068 -0.43400
O 	O 	0.15997 0.78089 0.63491 -0.29700
O 	O 	0.05681 0.43037 0.73801 -0.51800
O 	O 	0.09857 0.42913 0.66601 -0.49300
O 	O 	0.83160 0.55480 0.42610 -0.32100
O 	O 	0.85020 0.62893 0.41074 -0.44500
O 	O 	0.90396 0.68142 0.33446 -0.49900
O 	O 	0.94382 0.67872 0.26305 -0.53300
O 	O 	0.22970 0.91000 0.14352 -0.51300
O 	O 	0.29460 0.87030 0.18700 -0.47800
O 	O 	0.19140 0.93360 0.54820 -0.51900
O 	O 	0.15870 0.86520 0.56930 -0.47000
O 	O 	0.90575 0.07559 0.35046 -0.48600
O 	O 	0.83222 0.02757 0.35413 -0.50000
O 	O 	0.83270 0.62598 0.24846 -0.53300
O 	O 	0.77809 0.63100 0.31297 -0.46700
O 	O 	0.41499 0.82514 0.15068 -0.43400
O 	O 	0.34003 0.78089 0.13491 -0.29700
O 	O 	0.44319 0.43037 0.23801 -0.51800
O 	O 	0.40143 0.42913 0.16601 -0.49300
O 	O 	0.66840 0.55480 0.92610 -0.32100
O 	O 	0.64980 0.62893 0.91074 -0.44500
O 	O 	0.40396 0.31858 0.16554 -0.49900
O 	O 	0.44382 0.32128 0.23695 -0.53300
O 	O 	0.72970 0.09000 0.35648 -0.51300
O 	O 	0.79460 0.12970 0.31300 -0.47800
O 	O 	0.69140 0.06640 0.95180 -0.51900
O 	O 	0.65870 0.13480 0.93070 -0.47000
O 	O 	0.40575 0.92441 0.14954 -0.48600
O 	O 	0.33222 0.97243 0.14587 -0.50000
O 	O 	0.33270 0.37402 0.25154 -0.53300
O 	O 	0.27809 0.36900 0.18703 -0.46700
O 	O 	0.91499 0.17486 0.34932 -0.43400
O 	O 	0.84003 0.21911 0.36509 -0.29700
O 	O 	0.94319 0.56963 0.26199 -0.51800
O 	O 	0.90143 0.57087 0.33399 -0.49300
O 	O 	0.16840 0.44520 0.57390 -0.32100
O 	O 	0.14980 0.37107 0.58926 -0.44500
