data_crystal

_cell_length_a 38.12770
_cell_length_b 38.12770
_cell_length_c 38.12770
_cell_angle_alpha 109.47100
_cell_angle_beta  109.47100
_cell_angle_gamma 109.47100

_symmetry_space_group_name_	'P 1'
_symmetry_space_group_name_H-M	'P 1'

loop_
_symmetry_equiv_pos_as_xyz
  x,y,z

loop_
_atom_site_label
_atom_site_type_symbol
_atom_site_fract_x
_atom_site_fract_y
_atom_site_fract_z
_atom_site_charge
Zr	Zr	0.99493 0.94126 0.44121 3.21400
Zr	Zr	0.44121 0.99493 0.94126 3.21400
Zr	Zr	0.05367 0.49995 0.05874 3.21700
Zr	Zr	0.49995 0.44628 0.44121 3.21600
Zr	Zr	0.50005 0.55372 0.55879 3.21600
Zr	Zr	0.94633 0.00507 0.44628 3.21700
Zr	Zr	0.44121 0.49995 0.44628 3.21600
Zr	Zr	0.05874 0.05367 0.49995 3.21700
Zr	Zr	0.94633 0.50005 0.94126 3.21500
Zr	Zr	0.55372 0.55879 0.50005 3.21600
Zr	Zr	0.55879 0.50005 0.55372 3.21600
Zr	Zr	0.94126 0.44121 0.99493 3.21400
Zr	Zr	0.50005 0.94126 0.94633 3.21500
Zr	Zr	0.99493 0.55372 0.05367 3.21500
Zr	Zr	0.44628 0.44121 0.49995 3.21600
Zr	Zr	0.05874 0.55879 0.00507 3.21800
Zr	Zr	0.55879 0.00507 0.05874 3.21800
Zr	Zr	0.05367 0.99493 0.55372 3.21500
Zr	Zr	0.49995 0.05874 0.05367 3.21700
Zr	Zr	0.44628 0.94633 0.00507 3.21700
Zr	Zr	0.55372 0.05367 0.99493 3.21500
Zr	Zr	0.94126 0.94633 0.50005 3.21500
Zr	Zr	0.00507 0.44628 0.94633 3.21700
Zr	Zr	0.00507 0.05874 0.55879 3.21800
H 	H 	0.91950 0.83010 0.59760 0.09600
H 	H 	0.16660 0.77660 0.11780 0.09700
H 	H 	0.82420 0.72420 0.04900 0.04500
H 	H 	0.45370 0.32480 0.60410 0.09700
H 	H 	0.08050 0.67810 0.91060 0.10100
H 	H 	0.17580 0.27580 0.95100 0.05500
H 	H 	0.20240 0.63820 0.08320 0.01300
H 	H 	0.43580 0.55500 0.63820 0.01100
H 	H 	0.57910 0.91010 0.17840 0.09900
H 	H 	0.43780 0.30680 0.36360 0.00200
H 	H 	0.63640 0.94320 0.07420 -0.00100
H 	H 	0.04950 0.62390 0.19320 0.01000
H 	H 	0.12890 0.45370 0.84960 0.09700
H 	H 	0.67810 0.91060 0.08050 0.10100
H 	H 	0.54780 0.73550 0.33810 0.05100
H 	H 	0.33810 0.54780 0.73550 0.05100
H 	H 	0.04900 0.32480 0.22480 0.04600
H 	H 	0.33810 0.60260 0.79030 0.05100
H 	H 	0.10000 0.82420 0.77520 0.05400
H 	H 	0.08990 0.66900 0.26830 0.10000
H 	H 	0.72420 0.90000 0.67520 0.04500
H 	H 	0.95100 0.67520 0.77520 0.05400
H 	H 	0.32190 0.08940 0.91950 0.09800
H 	H 	0.24980 0.14850 0.89870 0.06200
H 	H 	0.26290 0.60070 0.86360 0.05800
H 	H 	0.56220 0.69320 0.63640 0.00200
H 	H 	0.60410 0.27930 0.15040 0.09700
H 	H 	0.18770 0.45220 0.79030 0.05200
H 	H 	0.94640 0.07760 0.37540 0.00500
H 	H 	0.27930 0.67520 0.12890 0.09700
H 	H 	0.36180 0.91680 0.79760 0.00900
H 	H 	0.62390 0.19320 0.04950 0.01000
H 	H 	0.04880 0.88220 0.65880 0.09300
H 	H 	0.77660 0.61000 0.65880 0.09600
H 	H 	0.77520 0.10000 0.82420 0.05400
H 	H 	0.18770 0.39740 0.73550 0.05200
H 	H 	0.73550 0.33810 0.54780 0.05100
H 	H 	0.83340 0.22340 0.88220 0.09600
H 	H 	0.13120 0.70220 0.07760 0.00500
H 	H 	0.91060 0.23250 0.83010 0.09900
H 	H 	0.79030 0.33810 0.60260 0.05100
H 	H 	0.08320 0.44500 0.88080 0.01200
H 	H 	0.79760 0.88080 0.43580 0.01000
H 	H 	0.57910 0.40070 0.66900 0.09900
H 	H 	0.76750 0.67810 0.59760 0.09800
H 	H 	0.86880 0.29780 0.92240 -0.00000
H 	H 	0.27580 0.95100 0.17580 0.05500
H 	H 	0.39000 0.16660 0.04880 0.09400
H 	H 	0.34120 0.95120 0.11780 0.10000
H 	H 	0.10130 0.24980 0.35110 0.05800
H 	H 	0.08320 0.20240 0.63820 0.01300
H 	H 	0.62460 0.05360 0.92240 -0.00100
H 	H 	0.66190 0.39740 0.20970 0.05200
H 	H 	0.62390 0.57440 0.43070 0.00800
H 	H 	0.32480 0.60410 0.45370 0.09700
H 	H 	0.39930 0.66220 0.26290 0.05900
H 	H 	0.84960 0.12890 0.45370 0.09700
H 	H 	0.42090 0.08990 0.82160 0.10000
H 	H 	0.54780 0.20970 0.81230 0.05100
H 	H 	0.82420 0.77520 0.10000 0.05400
H 	H 	0.59760 0.76750 0.67810 0.09800
H 	H 	0.91680 0.55500 0.11920 0.00900
H 	H 	0.95050 0.37610 0.80680 0.00600
H 	H 	0.14850 0.89870 0.24980 0.06200
H 	H 	0.29780 0.42900 0.37540 0.00200
H 	H 	0.43070 0.62390 0.57440 0.00800
H 	H 	0.33100 0.42090 0.59930 0.10000
H 	H 	0.75020 0.64890 0.89870 0.06100
H 	H 	0.73550 0.18770 0.39740 0.05200
H 	H 	0.66190 0.45220 0.26450 0.05200
H 	H 	0.65880 0.04880 0.88220 0.09300
H 	H 	0.83010 0.59760 0.91950 0.09600
H 	H 	0.45220 0.79030 0.18770 0.05200
H 	H 	0.08050 0.16990 0.40240 0.10200
H 	H 	0.22340 0.39000 0.34120 0.09700
H 	H 	0.88080 0.43580 0.79760 0.01000
H 	H 	0.11920 0.56420 0.20240 0.01100
H 	H 	0.67810 0.59760 0.76750 0.09800
H 	H 	0.08990 0.82160 0.42090 0.10000
H 	H 	0.94320 0.30680 0.86900 -0.00100
H 	H 	0.60260 0.26450 0.81230 0.05100
H 	H 	0.36180 0.56420 0.44500 0.01100
H 	H 	0.32480 0.87110 0.72070 0.09600
H 	H 	0.22480 0.04900 0.32480 0.04600
H 	H 	0.11920 0.91680 0.55500 0.00900
H 	H 	0.73170 0.91010 0.33100 0.09900
H 	H 	0.07760 0.13120 0.70220 0.00500
H 	H 	0.67520 0.39590 0.54630 0.09700
H 	H 	0.42900 0.13120 0.05360 0.00200
H 	H 	0.94640 0.57100 0.86880 0.00300
H 	H 	0.26290 0.39930 0.66220 0.05900
H 	H 	0.63820 0.43580 0.55500 0.01100
H 	H 	0.92240 0.62460 0.05360 -0.00100
H 	H 	0.88220 0.83340 0.22340 0.09600
H 	H 	0.67520 0.72420 0.90000 0.04500
H 	H 	0.54630 0.15040 0.87110 0.09600
H 	H 	0.56220 0.92580 0.86900 0.00200
H 	H 	0.85150 0.10130 0.75020 0.05700
H 	H 	0.67520 0.12890 0.27930 0.09700
H 	H 	0.70220 0.57100 0.62460 0.00200
H 	H 	0.95120 0.61000 0.83340 0.09900
H 	H 	0.05360 0.42900 0.13120 0.00200
H 	H 	0.07420 0.13100 0.43780 0.00200
H 	H 	0.39740 0.73550 0.18770 0.05200
H 	H 	0.73170 0.40070 0.82160 0.09900
H 	H 	0.82160 0.73170 0.40070 0.09900
H 	H 	0.57440 0.95050 0.14370 0.00600
H 	H 	0.77660 0.11780 0.16660 0.09700
H 	H 	0.86360 0.26290 0.60070 0.05800
H 	H 	0.79030 0.18770 0.45220 0.05200
H 	H 	0.30680 0.36360 0.43780 0.00200
H 	H 	0.14370 0.57440 0.95050 0.00600
H 	H 	0.60410 0.45370 0.32480 0.09700
H 	H 	0.40070 0.82160 0.73170 0.09900
H 	H 	0.23250 0.32190 0.40240 0.10000
H 	H 	0.26830 0.59930 0.17840 0.09900
H 	H 	0.44500 0.88080 0.08320 0.01200
H 	H 	0.20970 0.81230 0.54780 0.05100
H 	H 	0.45370 0.84960 0.12890 0.09700
H 	H 	0.40070 0.66900 0.57910 0.09900
H 	H 	0.04950 0.85630 0.42560 0.01000
H 	H 	0.34120 0.22340 0.39000 0.09700
H 	H 	0.22340 0.88220 0.83340 0.09600
H 	H 	0.64890 0.89870 0.75020 0.06100
H 	H 	0.92240 0.86880 0.29780 -0.00000
H 	H 	0.60070 0.33780 0.73710 0.05900
H 	H 	0.37610 0.42560 0.56930 0.00800
H 	H 	0.70220 0.07760 0.13120 0.00500
H 	H 	0.63640 0.56220 0.69320 0.00200
H 	H 	0.91680 0.79760 0.36180 0.00900
H 	H 	0.86900 0.94320 0.30680 -0.00100
H 	H 	0.36360 0.05680 0.92580 0.00500
H 	H 	0.11780 0.16660 0.77660 0.09700
H 	H 	0.59930 0.17840 0.26830 0.09900
H 	H 	0.42560 0.56930 0.37610 0.00800
H 	H 	0.22480 0.90000 0.17580 0.04600
H 	H 	0.42900 0.37540 0.29780 0.00200
H 	H 	0.92580 0.86900 0.56220 0.00200
H 	H 	0.26450 0.81230 0.60260 0.05100
H 	H 	0.19320 0.04950 0.62390 0.01000
H 	H 	0.16990 0.08940 0.76750 0.10000
H 	H 	0.85630 0.42560 0.04950 0.01000
H 	H 	0.84960 0.39590 0.72070 0.09700
H 	H 	0.15040 0.87110 0.54630 0.09600
H 	H 	0.72070 0.32480 0.87110 0.09600
H 	H 	0.32190 0.40240 0.23250 0.10000
H 	H 	0.05680 0.69320 0.13100 0.00500
H 	H 	0.61000 0.83340 0.95120 0.09900
H 	H 	0.77520 0.95100 0.67520 0.05400
H 	H 	0.59930 0.33100 0.42090 0.10000
H 	H 	0.91060 0.08050 0.67810 0.10100
H 	H 	0.15040 0.60410 0.27930 0.09700
H 	H 	0.91950 0.32190 0.08940 0.09800
H 	H 	0.95120 0.11780 0.34120 0.10000
H 	H 	0.91010 0.33100 0.73170 0.09900
H 	H 	0.85630 0.80680 0.43070 0.00700
H 	H 	0.13100 0.43780 0.07420 0.00200
H 	H 	0.69320 0.63640 0.56220 0.00200
H 	H 	0.57100 0.86880 0.94640 0.00300
H 	H 	0.33100 0.73170 0.91010 0.09900
H 	H 	0.39590 0.72070 0.84960 0.09700
H 	H 	0.13120 0.05360 0.42900 0.00200
H 	H 	0.54630 0.67520 0.39590 0.09700
H 	H 	0.89870 0.75020 0.64890 0.06100
H 	H 	0.72070 0.84960 0.39590 0.09700
H 	H 	0.57440 0.43070 0.62390 0.00800
H 	H 	0.05360 0.92240 0.62460 -0.00100
H 	H 	0.43070 0.85630 0.80680 0.00700
H 	H 	0.90000 0.67520 0.72420 0.04500
H 	H 	0.26450 0.66190 0.45220 0.05200
H 	H 	0.43580 0.79760 0.88080 0.01000
H 	H 	0.55500 0.11920 0.91680 0.00900
H 	H 	0.42560 0.04950 0.85630 0.01000
H 	H 	0.92580 0.36360 0.05680 0.00500
H 	H 	0.76750 0.16990 0.08940 0.10000
H 	H 	0.40240 0.23250 0.32190 0.10000
H 	H 	0.20240 0.11920 0.56420 0.01100
H 	H 	0.62460 0.70220 0.57100 0.00200
H 	H 	0.75020 0.85150 0.10130 0.05700
H 	H 	0.24980 0.35110 0.10130 0.05800
H 	H 	0.61000 0.65880 0.77660 0.09600
H 	H 	0.29780 0.92240 0.86880 -0.00000
H 	H 	0.56420 0.44500 0.36180 0.01100
H 	H 	0.65880 0.77660 0.61000 0.09600
H 	H 	0.39740 0.20970 0.66190 0.05200
H 	H 	0.40240 0.08050 0.16990 0.10200
H 	H 	0.81230 0.54780 0.20970 0.05100
H 	H 	0.83010 0.91060 0.23250 0.09900
H 	H 	0.04880 0.39000 0.16660 0.09400
H 	H 	0.16660 0.04880 0.39000 0.09400
H 	H 	0.67520 0.77520 0.95100 0.05400
H 	H 	0.87110 0.72070 0.32480 0.09600
H 	H 	0.33780 0.73710 0.60070 0.05900
H 	H 	0.07420 0.63640 0.94320 -0.00100
H 	H 	0.10130 0.75020 0.85150 0.05700
H 	H 	0.60260 0.79030 0.33810 0.05100
H 	H 	0.66900 0.26830 0.08990 0.10000
H 	H 	0.90000 0.17580 0.22480 0.04600
H 	H 	0.39590 0.54630 0.67520 0.09700
H 	H 	0.19320 0.56930 0.14370 0.00800
H 	H 	0.42090 0.59930 0.33100 0.10000
H 	H 	0.44500 0.36180 0.56420 0.01100
H 	H 	0.17580 0.22480 0.90000 0.04600
H 	H 	0.17840 0.26830 0.59930 0.09900
H 	H 	0.23250 0.83010 0.91060 0.09900
H 	H 	0.27580 0.10000 0.32480 0.05500
H 	H 	0.35110 0.10130 0.24980 0.05800
H 	H 	0.80680 0.95050 0.37610 0.00600
H 	H 	0.88080 0.08320 0.44500 0.01200
H 	H 	0.69320 0.13100 0.05680 0.00500
H 	H 	0.04900 0.82420 0.72420 0.04500
H 	H 	0.72420 0.04900 0.82420 0.04500
H 	H 	0.73710 0.39930 0.13640 0.06000
H 	H 	0.20970 0.66190 0.39740 0.05200
H 	H 	0.95050 0.14370 0.57440 0.00600
H 	H 	0.66900 0.57910 0.40070 0.09900
H 	H 	0.10000 0.32480 0.27580 0.05500
H 	H 	0.56420 0.20240 0.11920 0.01100
H 	H 	0.13640 0.73710 0.39930 0.06000
H 	H 	0.87110 0.54630 0.15040 0.09600
H 	H 	0.91010 0.17840 0.57910 0.09900
H 	H 	0.80680 0.43070 0.85630 0.00700
H 	H 	0.14370 0.19320 0.56930 0.00800
H 	H 	0.08940 0.91950 0.32190 0.09800
H 	H 	0.39000 0.34120 0.22340 0.09700
H 	H 	0.88220 0.65880 0.04880 0.09300
H 	H 	0.55500 0.63820 0.43580 0.01100
H 	H 	0.32480 0.22480 0.04900 0.04600
H 	H 	0.36360 0.43780 0.30680 0.00200
H 	H 	0.89870 0.24980 0.14850 0.06200
H 	H 	0.13100 0.05680 0.69320 0.00500
H 	H 	0.60070 0.86360 0.26290 0.05800
H 	H 	0.05680 0.92580 0.36360 0.00500
H 	H 	0.37540 0.94640 0.07760 0.00500
H 	H 	0.94320 0.07420 0.63640 -0.00100
H 	H 	0.63820 0.08320 0.20240 0.01300
H 	H 	0.08940 0.76750 0.16990 0.10000
H 	H 	0.45220 0.26450 0.66190 0.05200
H 	H 	0.82160 0.42090 0.08990 0.10000
H 	H 	0.86880 0.94640 0.57100 0.00300
H 	H 	0.26830 0.08990 0.66900 0.10000
H 	H 	0.59760 0.91950 0.83010 0.09600
H 	H 	0.56930 0.14370 0.19320 0.00800
H 	H 	0.43780 0.07420 0.13100 0.00200
H 	H 	0.07760 0.37540 0.94640 0.00500
H 	H 	0.57100 0.62460 0.70220 0.00200
H 	H 	0.73710 0.60070 0.33780 0.05900
H 	H 	0.37610 0.80680 0.95050 0.00600
H 	H 	0.11780 0.34120 0.95120 0.10000
H 	H 	0.30680 0.86900 0.94320 -0.00100
H 	H 	0.12890 0.27930 0.67520 0.09700
H 	H 	0.79760 0.36180 0.91680 0.00900
H 	H 	0.95100 0.17580 0.27580 0.05500
H 	H 	0.66220 0.26290 0.39930 0.05900
H 	H 	0.16990 0.40240 0.08050 0.10200
H 	H 	0.86900 0.56220 0.92580 0.00200
H 	H 	0.56930 0.37610 0.42560 0.00800
H 	H 	0.83340 0.95120 0.61000 0.09900
H 	H 	0.37540 0.29780 0.42900 0.00200
H 	H 	0.32480 0.27580 0.10000 0.05500
H 	H 	0.39930 0.13640 0.73710 0.06000
H 	H 	0.17840 0.57910 0.91010 0.09900
H 	H 	0.27930 0.15040 0.60410 0.09700
H 	H 	0.81230 0.60260 0.26450 0.05100
C 	C 	0.14687 0.36811 0.01678 0.15700
C 	C 	0.48360 0.64185 0.36315 0.15400
C 	C 	0.23460 0.50291 0.79451 0.01200
C 	C 	0.76451 0.46320 0.17329 0.00300
C 	C 	0.66214 0.18290 0.32524 -0.07100
C 	C 	0.16096 0.25489 0.60893 -0.19300
C 	C 	0.19389 0.26460 0.95929 -0.07200
C 	C 	0.36315 0.72130 0.87955 0.15400
C 	C 	0.61906 0.71553 0.59281 0.13700
C 	C 	0.92004 0.49399 0.06229 0.53400
C 	C 	0.85656 0.24049 0.88013 -0.19200
C 	C 	0.08987 0.98994 0.39947 -0.23200
C 	C 	0.12045 0.63685 0.27870 0.15400
C 	C 	0.66802 0.86316 0.69474 0.01100
C 	C 	0.87728 0.97375 0.59281 0.13000
C 	C 	0.53680 0.30131 0.71009 0.00300
C 	C 	0.55991 0.79451 0.29160 0.01200
C 	C 	0.14344 0.75951 0.11987 -0.18700
C 	C 	0.17419 0.82612 0.84687 -0.06900
C 	C 	0.36849 0.07879 0.95108 0.14000
C 	C 	0.98994 0.39947 0.08987 -0.23200
C 	C 	0.97925 0.82612 0.65193 -0.06300
C 	C 	0.60893 0.35404 0.44797 -0.19400
C 	C 	0.59047 0.98994 0.90007 -0.23500
C 	C 	0.72330 0.71974 0.93984 0.00300
C 	C 	0.40719 0.38094 0.28447 0.13900
C 	C 	0.77990 0.78346 0.06016 0.01500
C 	C 	0.41741 0.04892 0.12771 0.14600
C 	C 	0.30131 0.71009 0.53680 0.00300
C 	C 	0.71030 0.63151 0.58259 0.14200
C 	C 	0.13804 0.21005 0.58901 0.12300
C 	C 	0.34382 0.39676 0.24558 -0.19700
C 	C 	0.52725 0.63049 0.41536 0.11100
C 	C 	0.46320 0.69869 0.28991 0.00300
C 	C 	0.73720 0.42090 0.15810 -0.07000
C 	C 	0.98322 0.35133 0.13009 0.12000
C 	C 	0.78346 0.00356 0.72330 0.02800
C 	C 	0.70840 0.44009 0.20549 0.01200
C 	C 	0.47829 0.86945 0.13084 -0.18800
C 	C 	0.85775 0.93771 0.43170 0.53400
C 	C 	0.09993 0.08987 0.69040 -0.22200
C 	C 	0.01530 0.74940 0.76470 0.00100
C 	C 	0.10324 0.47275 0.88811 0.11100
C 	C 	0.02672 0.19514 0.33198 0.02400
C 	C 	0.11189 0.58464 0.21513 0.11100
C 	C 	0.33198 0.02672 0.19514 0.02400
C 	C 	0.63151 0.58259 0.71030 0.14200
C 	C 	0.15825 0.51640 0.87955 0.15300
C 	C 	0.90176 0.24558 0.84882 -0.19900
C 	C 	0.60893 0.16096 0.25489 -0.19300
C 	C 	0.49399 0.57395 0.43170 0.53400
C 	C 	0.13084 0.26139 0.65255 -0.18700
C 	C 	0.54903 0.41099 0.62104 0.12400
C 	C 	0.43197 0.35687 0.42506 0.54500
C 	C 	0.41099 0.62104 0.54903 0.12400
C 	C 	0.72353 0.81492 0.03665 -0.00500
C 	C 	0.58464 0.47275 0.36951 0.11100
C 	C 	0.09393 0.64596 0.25489 -0.19300
C 	C 	0.87728 0.28447 0.90353 0.13900
C 	C 	0.07996 0.14225 0.57395 0.53300
C 	C 	0.90353 0.61906 0.02625 0.14700
C 	C 	0.91013 0.01006 0.60053 -0.21800
C 	C 	0.07071 0.30531 0.26460 -0.05900
C 	C 	0.18290 0.32524 0.66214 -0.07100
C 	C 	0.57910 0.84190 0.26280 -0.07000
C 	C 	0.02625 0.40719 0.12272 0.14600
C 	C 	0.10714 0.19032 0.59764 -0.19400
C 	C 	0.67268 0.84687 0.02075 -0.07100
C 	C 	0.78487 0.36951 0.89676 0.11200
C 	C 	0.21654 0.99644 0.27670 -0.00900
C 	C 	0.75951 0.61607 0.63964 -0.18900
C 	C 	0.39107 0.83904 0.74511 -0.19500
C 	C 	0.14687 0.13009 0.77876 0.13700
C 	C 	0.32524 0.66214 0.18290 -0.07100
C 	C 	0.51640 0.87955 0.15825 0.15300
C 	C 	0.37896 0.78995 0.92799 0.12400
C 	C 	0.53680 0.82671 0.23549 0.00200
C 	C 	0.39116 0.52171 0.65255 -0.18900
C 	C 	0.97925 0.32732 0.15313 -0.06100
C 	C 	0.22124 0.85313 0.86991 0.13900
C 	C 	0.90607 0.16096 0.55203 -0.19400
C 	C 	0.92799 0.37896 0.78995 0.12400
C 	C 	0.92004 0.85775 0.42605 0.53400
C 	C 	0.08318 0.89286 0.49050 -0.19500
C 	C 	0.35687 0.92490 0.93181 0.54500
C 	C 	0.52644 0.84284 0.20700 0.01300
C 	C 	0.25334 0.79366 0.57300 -0.05200
C 	C 	0.72353 0.68688 0.90861 0.00600
C 	C 	0.72130 0.87955 0.36315 0.15400
C 	C 	0.97375 0.09647 0.38094 0.12900
C 	C 	0.52076 0.33786 0.66310 -0.07200
C 	C 	0.33690 0.47924 0.66214 -0.07100
C 	C 	0.25489 0.09393 0.64596 -0.19300
C 	C 	0.77876 0.14687 0.13009 0.13700
C 	C 	0.73861 0.86945 0.39116 -0.18900
C 	C 	0.07980 0.24940 0.32920 -0.06400
C 	C 	0.75060 0.83040 0.07980 -0.06400
C 	C 	0.57910 0.31630 0.73720 -0.07000
C 	C 	0.79366 0.57300 0.25334 -0.05200
C 	C 	0.23460 0.04071 0.30531 -0.02300
C 	C 	0.36416 0.15716 0.68360 0.01400
C 	C 	0.21513 0.63049 0.10324 0.11100
C 	C 	0.90007 0.59047 0.98994 -0.23500
C 	C 	0.41536 0.78487 0.88811 0.11100
C 	C 	0.63049 0.41536 0.52725 0.11100
C 	C 	0.73410 0.98470 0.74940 -0.00800
C 	C 	0.17388 0.34807 0.02075 -0.07000
C 	C 	0.03665 0.72353 0.81492 -0.00500
C 	C 	0.68370 0.26280 0.42090 -0.07000
C 	C 	0.56830 0.14225 0.06229 0.53400
C 	C 	0.68688 0.96335 0.77827 0.01000
C 	C 	0.42700 0.74666 0.20634 -0.05100
C 	C 	0.40732 0.49050 0.59764 -0.19500
C 	C 	0.16842 0.97328 0.30526 0.00500
C 	C 	0.85313 0.63189 0.98322 0.12000
C 	C 	0.92020 0.24940 0.16960 -0.07600
C 	C 	0.54032 0.22066 0.79366 -0.05100
C 	C 	0.85766 0.18290 0.52076 -0.07100
C 	C 	0.02357 0.38393 0.14344 -0.17200
C 	C 	0.12771 0.07879 0.71030 0.14200
C 	C 	0.86945 0.39116 0.73861 -0.18900
C 	C 	0.79451 0.29160 0.55991 0.01200
C 	C 	0.23460 0.92929 0.19389 -0.03700
C 	C 	0.66802 0.97328 0.80486 0.00400
C 	C 	0.81492 0.09139 0.77827 -0.00200
C 	C 	0.71974 0.99644 0.77990 -0.00900
C 	C 	0.31630 0.73720 0.57910 -0.07000
C 	C 	0.26831 0.76540 0.55991 0.01200
C 	C 	0.40878 0.69869 0.23549 0.00300
C 	C 	0.39676 0.05294 0.15118 -0.20200
C 	C 	0.36315 0.48360 0.64185 0.15400
C 	C 	0.38393 0.14344 0.02357 -0.17200
C 	C 	0.80611 0.73540 0.04071 -0.02500
C 	C 	0.26280 0.42090 0.68370 -0.07000
C 	C 	0.59047 0.69040 0.60053 -0.22500
C 	C 	0.02625 0.90353 0.61906 0.14700
C 	C 	0.81710 0.67476 0.33786 -0.07200
C 	C 	0.84687 0.02075 0.67268 -0.07100
C 	C 	0.29160 0.49709 0.73169 0.01200
C 	C 	0.24558 0.84882 0.90176 -0.19900
C 	C 	0.26460 0.95929 0.19389 -0.07200
C 	C 	0.40236 0.59268 0.50950 -0.19500
C 	C 	0.55203 0.90607 0.16096 -0.19400
C 	C 	0.82581 0.17388 0.15313 -0.06400
C 	C 	0.30526 0.33198 0.13684 0.01700
C 	C 	0.90007 0.91013 0.30960 -0.22900
C 	C 	0.86991 0.01678 0.64867 0.15600
C 	C 	0.01678 0.64867 0.86991 0.15600
C 	C 	0.42090 0.68370 0.26280 -0.07000
C 	C 	0.82612 0.84687 0.17419 -0.06900
C 	C 	0.17329 0.71009 0.40878 0.00300
C 	C 	0.29160 0.55991 0.79451 0.01200
C 	C 	0.51615 0.25235 0.73620 -0.00500
C 	C 	0.12272 0.71553 0.09647 0.13700
C 	C 	0.01006 0.09993 0.40953 -0.21500
C 	C 	0.80968 0.40236 0.89286 -0.19700
C 	C 	0.19032 0.59764 0.10714 -0.19400
C 	C 	0.92490 0.93181 0.35687 0.54500
C 	C 	0.01530 0.25060 0.26590 0.00100
C 	C 	0.39116 0.73861 0.86945 -0.18900
C 	C 	0.90176 0.05294 0.65618 -0.20300
C 	C 	0.06819 0.99309 0.42506 0.53100
C 	C 	0.06229 0.92004 0.49399 0.53400
C 	C 	0.65618 0.90176 0.05294 -0.20300
C 	C 	0.28991 0.59122 0.82671 0.00200
C 	C 	0.83040 0.07980 0.75060 -0.06400
C 	C 	0.52171 0.65255 0.39116 -0.18900
C 	C 	0.60324 0.94706 0.84882 -0.19100
C 	C 	0.61607 0.85656 0.97643 -0.20700
C 	C 	0.93181 0.00691 0.57494 0.55800
C 	C 	0.33786 0.81710 0.67476 -0.07200
C 	C 	0.82671 0.28991 0.59122 0.00200
C 	C 	0.36951 0.89676 0.78487 0.11200
C 	C 	0.24558 0.34382 0.39676 -0.19700
C 	C 	0.85656 0.97643 0.61607 -0.20700
C 	C 	0.41099 0.86196 0.78995 0.12400
C 	C 	0.57395 0.43170 0.49399 0.53400
C 	C 	0.48360 0.12045 0.84175 0.15400
C 	C 	0.41536 0.52725 0.63049 0.11100
C 	C 	0.59281 0.87728 0.97375 0.13000
C 	C 	0.69469 0.76540 0.95929 -0.07300
C 	C 	0.34807 0.17419 0.32732 -0.06700
C 	C 	0.63049 0.10324 0.21513 0.11100
C 	C 	0.06016 0.77990 0.78346 0.01500
C 	C 	0.36951 0.58464 0.47275 0.11100
C 	C 	0.31944 0.79300 0.63584 0.01300
C 	C 	0.91682 0.40732 0.80968 -0.19700
C 	C 	0.47356 0.68056 0.31640 0.01300
C 	C 	0.87955 0.15825 0.51640 0.15300
C 	C 	0.34745 0.60884 0.47829 -0.18900
C 	C 	0.47829 0.34745 0.60884 -0.18900
C 	C 	0.25334 0.68034 0.45968 -0.05100
C 	C 	0.04892 0.63151 0.92121 0.14600
C 	C 	0.83904 0.74511 0.39107 -0.19500
C 	C 	0.64313 0.07510 0.06819 0.54400
C 	C 	0.78995 0.92799 0.37896 0.12400
C 	C 	0.16096 0.55203 0.90607 -0.19400
C 	C 	0.41741 0.28970 0.36849 0.14400
C 	C 	0.15313 0.97925 0.32732 -0.06100
C 	C 	0.67080 0.92020 0.75060 -0.07700
C 	C 	0.73540 0.92929 0.69469 -0.03700
C 	C 	0.25489 0.60893 0.16096 -0.19300
C 	C 	0.46320 0.17329 0.76451 0.00300
C 	C 	0.74940 0.73410 0.98470 -0.00800
C 	C 	0.26280 0.57910 0.84190 -0.07000
C 	C 	0.96335 0.27647 0.18508 0.01100
C 	C 	0.31640 0.47356 0.68056 0.01300
C 	C 	0.47356 0.15716 0.79300 0.01400
C 	C 	0.07510 0.43197 0.00691 0.55800
C 	C 	0.56830 0.50601 0.42605 0.53400
C 	C 	0.79300 0.63584 0.31944 0.01300
C 	C 	0.63964 0.75951 0.61607 -0.18900
C 	C 	0.86945 0.13084 0.47829 -0.18800
C 	C 	0.75951 0.11987 0.14344 -0.18700
C 	C 	0.50950 0.91682 0.10714 -0.19500
C 	C 	0.32920 0.07980 0.24940 -0.06400
C 	C 	0.67476 0.33786 0.81710 -0.07200
C 	C 	0.85313 0.86991 0.22124 0.13900
C 	C 	0.20700 0.52644 0.84284 0.01300
C 	C 	0.14225 0.57395 0.07996 0.53300
C 	C 	0.26380 0.48385 0.74765 -0.00500
C 	C 	0.76451 0.59122 0.30131 0.00200
C 	C 	0.94706 0.34382 0.09824 -0.18900
C 	C 	0.73540 0.04071 0.80611 -0.02500
C 	C 	0.38094 0.28447 0.40719 0.13900
C 	C 	0.22010 0.28026 0.00356 0.02900
C 	C 	0.50291 0.26831 0.70840 0.01200
C 	C 	0.24940 0.16960 0.92020 -0.07600
C 	C 	0.62104 0.21005 0.07201 0.12400
C 	C 	0.87229 0.92121 0.28970 0.14400
C 	C 	0.06819 0.64313 0.07510 0.54400
C 	C 	0.80968 0.91682 0.40732 -0.19700
C 	C 	0.32732 0.15313 0.97925 -0.06100
C 	C 	0.15825 0.27870 0.64185 0.15300
C 	C 	0.35687 0.42506 0.43197 0.54500
C 	C 	0.80486 0.83158 0.13684 0.01600
C 	C 	0.39947 0.40953 0.30960 -0.22500
C 	C 	0.47924 0.66214 0.33690 -0.07100
C 	C 	0.42605 0.92004 0.85775 0.53400
C 	C 	0.22124 0.35133 0.36811 0.14000
C 	C 	0.40732 0.80968 0.91682 -0.19700
C 	C 	0.59764 0.40732 0.49050 -0.19500
C 	C 	0.50950 0.40236 0.59268 -0.19500
C 	C 	0.13009 0.77876 0.14687 0.13700
C 	C 	0.82581 0.67268 0.65193 -0.06600
C 	C 	0.24940 0.32920 0.07980 -0.06400
C 	C 	0.65193 0.82581 0.67268 -0.06600
C 	C 	0.77934 0.31966 0.57300 -0.05200
C 	C 	0.69469 0.73540 0.92929 -0.03700
C 	C 	0.59764 0.10714 0.19032 -0.19400
C 	C 	0.03665 0.22173 0.31312 -0.00400
C 	C 	0.73620 0.51615 0.25235 -0.00500
C 	C 	0.77827 0.81492 0.09139 -0.00200
C 	C 	0.02075 0.67268 0.84687 -0.07100
C 	C 	0.45097 0.07201 0.86196 0.12400
C 	C 	0.40953 0.30960 0.39947 -0.22500
C 	C 	0.77876 0.64867 0.63189 0.13700
C 	C 	0.04892 0.12771 0.41741 0.14600
C 	C 	0.15118 0.09824 0.75442 -0.19300
C 	C 	0.64185 0.15825 0.27870 0.15300
C 	C 	0.97328 0.30526 0.16842 0.00500
C 	C 	0.27647 0.31312 0.09139 -0.00100
C 	C 	0.10714 0.50950 0.91682 -0.19500
C 	C 	0.31944 0.68360 0.52644 0.01300
C 	C 	0.45968 0.77934 0.20634 -0.05100
C 	C 	0.34807 0.02075 0.17388 -0.07000
C 	C 	0.28970 0.36849 0.41741 0.14400
C 	C 	0.78487 0.88811 0.41536 0.11100
C 	C 	0.69040 0.60053 0.59047 -0.22500
C 	C 	0.06016 0.27670 0.28026 0.01600
C 	C 	0.58464 0.21513 0.11189 0.11100
C 	C 	0.36811 0.01678 0.14687 0.15700
C 	C 	0.49399 0.06229 0.92004 0.53400
C 	C 	0.60884 0.47829 0.34745 -0.18900
C 	C 	0.92799 0.13804 0.54903 0.12300
C 	C 	0.74940 0.76470 0.01530 0.00100
C 	C 	0.35815 0.84175 0.72130 0.15400
C 	C 	0.10324 0.21513 0.63049 0.11100
C 	C 	0.00691 0.07510 0.43197 0.55800
C 	C 	0.21005 0.58901 0.13804 0.12300
C 	C 	0.71009 0.53680 0.30131 0.00300
C 	C 	0.86316 0.19514 0.16842 0.01200
C 	C 	0.14344 0.02357 0.38393 -0.17200
C 	C 	0.83158 0.13684 0.80486 0.01600
C 	C 	0.11189 0.89676 0.52725 0.11200
C 	C 	0.97643 0.11987 0.36036 -0.20500
C 	C 	0.95108 0.36849 0.07879 0.14000
C 	C 	0.58901 0.13804 0.21005 0.12300
C 	C 	0.73861 0.34745 0.86916 -0.19000
C 	C 	0.93984 0.72330 0.71974 0.00300
C 	C 	0.76540 0.95929 0.69469 -0.07300
C 	C 	0.49709 0.73169 0.29160 0.01200
C 	C 	0.89676 0.78487 0.36951 0.11200
C 	C 	0.57494 0.56803 0.64313 0.54500
C 	C 	0.86316 0.69474 0.66802 0.01100
C 	C 	0.84882 0.90176 0.24558 -0.19900
C 	C 	0.75442 0.15118 0.09824 -0.19300
C 	C 	0.76540 0.07071 0.80611 -0.06000
C 	C 	0.17388 0.15313 0.82581 -0.06400
C 	C 	0.57300 0.77934 0.31966 -0.05200
C 	C 	0.04071 0.80611 0.73540 -0.02500
C 	C 	0.65193 0.97925 0.82612 -0.06300
C 	C 	0.12771 0.41741 0.04892 0.14600
C 	C 	0.84175 0.72130 0.35815 0.15400
C 	C 	0.60324 0.75442 0.65618 -0.19600
C 	C 	0.14234 0.81710 0.47924 -0.07200
C 	C 	0.42506 0.06819 0.99309 0.53100
C 	C 	0.39947 0.08987 0.98994 -0.23200
C 	C 	0.63685 0.51640 0.35815 0.15400
C 	C 	0.97328 0.80486 0.66802 0.00400
C 	C 	0.88811 0.10324 0.47275 0.11100
C 	C 	0.64867 0.63189 0.77876 0.13700
C 	C 	0.89286 0.49050 0.08318 -0.19500
C 	C 	0.42090 0.15810 0.73720 -0.07000
C 	C 	0.00691 0.57494 0.93181 0.55800
C 	C 	0.70840 0.50291 0.26831 0.01200
C 	C 	0.97375 0.59281 0.87728 0.13000
C 	C 	0.52076 0.85766 0.18290 -0.07100
C 	C 	0.66310 0.52076 0.33786 -0.07200
C 	C 	0.71553 0.59281 0.61906 0.13700
C 	C 	0.68056 0.20700 0.36416 0.01300
C 	C 	0.40719 0.12272 0.02625 0.14600
C 	C 	0.52644 0.31944 0.68360 0.01300
C 	C 	0.47924 0.14234 0.81710 -0.07200
C 	C 	0.07980 0.75060 0.83040 -0.06400
C 	C 	0.55203 0.39107 0.64596 -0.19400
C 	C 	0.26139 0.65255 0.13084 -0.18700
C 	C 	0.68360 0.36416 0.15716 0.01400
C 	C 	0.74666 0.20634 0.42700 -0.05100
C 	C 	0.40953 0.01006 0.09993 -0.21500
C 	C 	0.09824 0.75442 0.15118 -0.19300
C 	C 	0.06229 0.56830 0.14225 0.53400
C 	C 	0.49709 0.20549 0.76540 0.01200
C 	C 	0.09824 0.94706 0.34382 -0.18900
C 	C 	0.79300 0.47356 0.15716 0.01400
C 	C 	0.55991 0.26831 0.76540 0.01200
C 	C 	0.93771 0.43170 0.85775 0.53400
C 	C 	0.18508 0.90861 0.22173 0.00700
C 	C 	0.45968 0.25334 0.68034 -0.05100
C 	C 	0.96335 0.77827 0.68688 0.01000
C 	C 	0.73169 0.29160 0.49709 0.01200
C 	C 	0.42605 0.56830 0.50601 0.53400
C 	C 	0.66310 0.32524 0.14234 -0.07100
C 	C 	0.27670 0.28026 0.06016 0.01600
C 	C 	0.72130 0.35815 0.84175 0.15400
C 	C 	0.01678 0.14687 0.36811 0.15700
C 	C 	0.12045 0.84175 0.48360 0.15400
C 	C 	0.58901 0.37896 0.45097 0.12400
C 	C 	0.56803 0.64313 0.57494 0.54500
C 	C 	0.39107 0.64596 0.55203 -0.19400
C 	C 	0.36811 0.22124 0.35133 0.14000
C 	C 	0.27670 0.21654 0.99644 -0.00900
C 	C 	0.86916 0.73861 0.34745 -0.19000
C 	C 	0.04071 0.30531 0.23460 -0.02300
C 	C 	0.67476 0.85766 0.33690 -0.07200
C 	C 	0.22173 0.18508 0.90861 0.00700
C 	C 	0.68034 0.45968 0.25334 -0.05100
C 	C 	0.02357 0.88013 0.63964 -0.17400
C 	C 	0.19032 0.08318 0.59268 -0.19400
C 	C 	0.23460 0.44009 0.73169 0.01200
C 	C 	0.63151 0.92121 0.04892 0.14600
C 	C 	0.66214 0.33690 0.47924 -0.07100
C 	C 	0.89676 0.52725 0.11189 0.11200
C 	C 	0.38094 0.97375 0.09647 0.12900
C 	C 	0.07201 0.86196 0.45097 0.12400
C 	C 	0.40236 0.89286 0.80968 -0.19700
C 	C 	0.20549 0.76540 0.49709 0.01200
C 	C 	0.64185 0.36315 0.48360 0.15400
C 	C 	0.11987 0.14344 0.75951 -0.18700
C 	C 	0.93771 0.07996 0.50601 0.53300
C 	C 	0.63189 0.98322 0.85313 0.12000
C 	C 	0.60884 0.26139 0.13055 -0.18800
C 	C 	0.83904 0.44797 0.09393 -0.19400
C 	C 	0.12272 0.02625 0.40719 0.14600
C 	C 	0.92929 0.19389 0.23460 -0.03700
C 	C 	0.86196 0.78995 0.41099 0.12400
C 	C 	0.07879 0.71030 0.12771 0.14200
C 	C 	0.50601 0.42605 0.56830 0.53400
C 	C 	0.50601 0.93771 0.07996 0.53300
C 	C 	0.91682 0.10714 0.50950 -0.19500
C 	C 	0.44797 0.09393 0.83904 -0.19400
C 	C 	0.26831 0.70840 0.50291 0.01200
C 	C 	0.13055 0.86916 0.52171 -0.18900
C 	C 	0.32524 0.14234 0.66310 -0.07100
C 	C 	0.84284 0.20700 0.52644 0.01300
C 	C 	0.19514 0.16842 0.86316 0.01200
C 	C 	0.80611 0.76540 0.07071 -0.06000
C 	C 	0.80486 0.66802 0.97328 0.00400
C 	C 	0.98470 0.74940 0.73410 -0.00800
C 	C 	0.79366 0.54032 0.22066 -0.05100
C 	C 	0.88811 0.41536 0.78487 0.11100
C 	C 	0.00356 0.22010 0.28026 0.02900
C 	C 	0.16842 0.86316 0.19514 0.01200
C 	C 	0.91013 0.30960 0.90007 -0.22900
C 	C 	0.32732 0.34807 0.17419 -0.06700
C 	C 	0.44009 0.73169 0.23460 0.01200
C 	C 	0.84190 0.26280 0.57910 -0.07000
C 	C 	0.74666 0.31966 0.54032 -0.05100
C 	C 	0.21005 0.07201 0.62104 0.12400
C 	C 	0.90353 0.87728 0.28447 0.13900
C 	C 	0.22010 0.21654 0.93984 0.00300
C 	C 	0.89286 0.80968 0.40236 -0.19700
C 	C 	0.65618 0.60324 0.75442 -0.19600
C 	C 	0.68056 0.31640 0.47356 0.01300
C 	C 	0.76540 0.55991 0.26831 0.01200
C 	C 	0.07879 0.95108 0.36849 0.14000
C 	C 	0.40878 0.17329 0.71009 0.00300
C 	C 	0.28447 0.40719 0.38094 0.13900
C 	C 	0.16960 0.92020 0.24940 -0.07600
C 	C 	0.88013 0.63964 0.02357 -0.17400
C 	C 	0.17329 0.76451 0.46320 0.00300
C 	C 	0.81710 0.47924 0.14234 -0.07200
C 	C 	0.90607 0.35404 0.74511 -0.19500
C 	C 	0.85775 0.42605 0.92004 0.53400
C 	C 	0.34745 0.86916 0.73861 -0.19000
C 	C 	0.36036 0.24049 0.38393 -0.19000
C 	C 	0.57300 0.25334 0.79366 -0.05200
C 	C 	0.00356 0.72330 0.78346 0.02800
C 	C 	0.63964 0.02357 0.88013 -0.17400
C 	C 	0.36416 0.68056 0.20700 0.01300
C 	C 	0.13055 0.60884 0.26139 -0.18800
C 	C 	0.92121 0.28970 0.87229 0.14400
C 	C 	0.95108 0.87229 0.58259 0.14000
C 	C 	0.68688 0.90861 0.72353 0.00600
C 	C 	0.22005 0.73620 0.48385 -0.00500
C 	C 	0.73720 0.57910 0.31630 -0.07000
C 	C 	0.02672 0.69474 0.83158 0.02300
C 	C 	0.92490 0.56803 0.99309 0.53200
C 	C 	0.63685 0.27870 0.12045 0.15400
C 	C 	0.51640 0.35815 0.63685 0.15400
C 	C 	0.25060 0.23530 0.98470 -0.00800
C 	C 	0.14225 0.06229 0.56830 0.53400
C 	C 	0.76470 0.01530 0.74940 0.00100
C 	C 	0.86196 0.45097 0.07201 0.12400
C 	C 	0.21513 0.11189 0.58464 0.11100
C 	C 	0.59268 0.50950 0.40236 -0.19500
C 	C 	0.23530 0.98470 0.25060 -0.00800
C 	C 	0.59122 0.82671 0.28991 0.00200
C 	C 	0.28026 0.00356 0.22010 0.02900
C 	C 	0.99644 0.77990 0.71974 -0.00900
C 	C 	0.31312 0.09139 0.27647 -0.00100
C 	C 	0.78995 0.41099 0.86196 0.12400
C 	C 	0.59281 0.61906 0.71553 0.13700
C 	C 	0.28447 0.90353 0.87728 0.13900
C 	C 	0.60053 0.91013 0.01006 -0.21800
C 	C 	0.54032 0.74666 0.31966 -0.05100
C 	C 	0.78346 0.06016 0.77990 0.01500
C 	C 	0.15313 0.82581 0.17388 -0.06400
C 	C 	0.81492 0.03665 0.72353 -0.00500
C 	C 	0.58259 0.95108 0.87229 0.14000
C 	C 	0.90861 0.22173 0.18508 0.00700
C 	C 	0.19514 0.33198 0.02672 0.02400
C 	C 	0.97643 0.61607 0.85656 -0.20700
C 	C 	0.07071 0.80611 0.76540 -0.06000
C 	C 	0.49050 0.59764 0.40732 -0.19500
C 	C 	0.31640 0.63584 0.84284 0.01300
C 	C 	0.95929 0.69469 0.76540 -0.07300
C 	C 	0.99644 0.27670 0.21654 -0.00900
C 	C 	0.84687 0.17419 0.82612 -0.06900
C 	C 	0.02075 0.17388 0.34807 -0.07000
C 	C 	0.36036 0.97643 0.11987 -0.20500
C 	C 	0.35133 0.13009 0.98322 0.12000
C 	C 	0.47275 0.36951 0.58464 0.11100
C 	C 	0.69869 0.28991 0.46320 0.00300
C 	C 	0.64596 0.25489 0.09393 -0.19300
C 	C 	0.98470 0.25060 0.23530 -0.00800
C 	C 	0.39676 0.24558 0.34382 -0.19700
C 	C 	0.11987 0.36036 0.97643 -0.20500
C 	C 	0.65255 0.39116 0.52171 -0.18900
C 	C 	0.73620 0.48385 0.22005 -0.00500
C 	C 	0.69474 0.83158 0.02672 0.02300
C 	C 	0.07510 0.06819 0.64313 0.54400
C 	C 	0.28026 0.06016 0.27670 0.01600
C 	C 	0.31966 0.57300 0.77934 -0.05200
C 	C 	0.56803 0.99309 0.92490 0.53200
C 	C 	0.85766 0.33690 0.67476 -0.07200
C 	C 	0.61607 0.63964 0.75951 -0.18900
C 	C 	0.75060 0.67080 0.92020 -0.07700
C 	C 	0.13084 0.47829 0.86945 -0.18800
C 	C 	0.42506 0.43197 0.35687 0.54500
C 	C 	0.54903 0.92799 0.13804 0.12300
C 	C 	0.38393 0.36036 0.24049 -0.19000
C 	C 	0.44009 0.20549 0.70840 0.01200
C 	C 	0.76540 0.49709 0.20549 0.01200
C 	C 	0.15716 0.79300 0.47356 0.01400
C 	C 	0.63584 0.84284 0.31640 0.01300
C 	C 	0.15716 0.68360 0.36416 0.01400
C 	C 	0.48385 0.74765 0.26380 -0.00500
C 	C 	0.44797 0.60893 0.35404 -0.19400
C 	C 	0.20700 0.36416 0.68056 0.01300
C 	C 	0.58259 0.71030 0.63151 0.14200
C 	C 	0.20634 0.45968 0.77934 -0.05100
C 	C 	0.86916 0.52171 0.13055 -0.18900
C 	C 	0.82612 0.65193 0.97925 -0.06300
C 	C 	0.75442 0.65618 0.60324 -0.19600
C 	C 	0.73169 0.23460 0.44009 0.01200
C 	C 	0.83158 0.02672 0.69474 0.02300
C 	C 	0.59268 0.19032 0.08318 -0.19400
C 	C 	0.28991 0.46320 0.69869 0.00300
C 	C 	0.61906 0.02625 0.90353 0.14700
C 	C 	0.24049 0.38393 0.36036 -0.19000
C 	C 	0.77990 0.71974 0.99644 -0.00900
C 	C 	0.26460 0.07071 0.30531 -0.05900
C 	C 	0.30531 0.23460 0.04071 -0.02300
C 	C 	0.35133 0.36811 0.22124 0.14000
C 	C 	0.22173 0.31312 0.03665 -0.00400
C 	C 	0.86991 0.22124 0.85313 0.13900
C 	C 	0.15810 0.73720 0.42090 -0.07000
C 	C 	0.21654 0.93984 0.22010 0.00300
C 	C 	0.08987 0.69040 0.09993 -0.22200
C 	C 	0.52171 0.13055 0.86916 -0.18900
C 	C 	0.18290 0.52076 0.85766 -0.07100
C 	C 	0.13684 0.80486 0.83158 0.01600
C 	C 	0.28970 0.87229 0.92121 0.14400
C 	C 	0.35404 0.44797 0.60893 -0.19400
C 	C 	0.25060 0.26590 0.01530 0.00100
C 	C 	0.35815 0.63685 0.51640 0.15400
C 	C 	0.84284 0.31640 0.63584 0.01300
C 	C 	0.33690 0.67476 0.85766 -0.07200
C 	C 	0.77995 0.26380 0.51615 -0.00500
C 	C 	0.62104 0.54903 0.41099 0.12400
C 	C 	0.93181 0.35687 0.92490 0.54500
C 	C 	0.93984 0.22010 0.21654 0.00300
C 	C 	0.64596 0.55203 0.39107 -0.19400
C 	C 	0.98322 0.85313 0.63189 0.12000
C 	C 	0.30960 0.90007 0.91013 -0.22900
C 	C 	0.20549 0.70840 0.44009 0.01200
C 	C 	0.68034 0.42700 0.22066 -0.05100
C 	C 	0.09139 0.27647 0.31312 -0.00100
C 	C 	0.43170 0.49399 0.57395 0.53400
C 	C 	0.34382 0.09824 0.94706 -0.18900
C 	C 	0.94706 0.84882 0.60324 -0.19100
C 	C 	0.25235 0.73620 0.51615 -0.00500
C 	C 	0.33198 0.13684 0.30526 0.01700
C 	C 	0.84882 0.60324 0.94706 -0.19100
C 	C 	0.17419 0.32732 0.34807 -0.06700
C 	C 	0.92121 0.04892 0.63151 0.14600
C 	C 	0.68360 0.52644 0.31944 0.01300
C 	C 	0.24049 0.88013 0.85656 -0.19200
C 	C 	0.43170 0.85775 0.93771 0.53400
C 	C 	0.92929 0.69469 0.73540 -0.03700
C 	C 	0.92020 0.75060 0.67080 -0.07700
C 	C 	0.87955 0.36315 0.72130 0.15400
C 	C 	0.82671 0.23549 0.53680 0.00200
C 	C 	0.98994 0.90007 0.59047 -0.23500
C 	C 	0.19389 0.23460 0.92929 -0.03700
C 	C 	0.59122 0.30131 0.76451 0.00200
C 	C 	0.30131 0.76451 0.59122 0.00200
C 	C 	0.05294 0.65618 0.90176 -0.20300
C 	C 	0.87229 0.58259 0.95108 0.14000
C 	C 	0.64867 0.86991 0.01678 0.15600
C 	C 	0.01006 0.60053 0.91013 -0.21800
C 	C 	0.22066 0.68034 0.42700 -0.05100
C 	C 	0.69040 0.09993 0.08987 -0.22200
C 	C 	0.74511 0.90607 0.35404 -0.19500
C 	C 	0.30531 0.26460 0.07071 -0.05900
C 	C 	0.77827 0.68688 0.96335 0.01000
C 	C 	0.23549 0.40878 0.69869 0.00300
C 	C 	0.47275 0.88811 0.10324 0.11100
C 	C 	0.71974 0.93984 0.72330 0.00300
C 	C 	0.60053 0.59047 0.69040 -0.22500
C 	C 	0.27870 0.64185 0.15825 0.15300
C 	C 	0.09139 0.77827 0.81492 -0.00200
C 	C 	0.23549 0.53680 0.82671 0.00200
C 	C 	0.99309 0.42506 0.06819 0.53100
C 	C 	0.27870 0.12045 0.63685 0.15400
C 	C 	0.33786 0.66310 0.52076 -0.07200
C 	C 	0.26139 0.13055 0.60884 -0.18800
C 	C 	0.90861 0.72353 0.68688 0.00600
C 	C 	0.09993 0.40953 0.01006 -0.21500
C 	C 	0.49050 0.08318 0.89286 -0.19500
C 	C 	0.20634 0.42700 0.74666 -0.05100
C 	C 	0.15118 0.39676 0.05294 -0.20200
C 	C 	0.18508 0.96335 0.27647 0.01100
C 	C 	0.48385 0.22005 0.73620 -0.00500
C 	C 	0.69869 0.23549 0.40878 0.00300
C 	C 	0.13804 0.54903 0.92799 0.12300
C 	C 	0.63584 0.31944 0.79300 0.01300
C 	C 	0.30960 0.39947 0.40953 -0.22500
C 	C 	0.65255 0.13084 0.26139 -0.18700
C 	C 	0.13009 0.98322 0.35133 0.12000
C 	C 	0.09647 0.38094 0.97375 0.12900
C 	C 	0.67268 0.65193 0.82581 -0.06600
C 	C 	0.84175 0.48360 0.12045 0.15400
C 	C 	0.09647 0.12272 0.71553 0.13700
C 	C 	0.74765 0.26380 0.48385 -0.00500
C 	C 	0.26380 0.51615 0.77995 -0.00500
C 	C 	0.71009 0.40878 0.17329 0.00300
C 	C 	0.71553 0.09647 0.12272 0.13700
C 	C 	0.36849 0.41741 0.28970 0.14400
C 	C 	0.08318 0.59268 0.19032 -0.19400
C 	C 	0.30526 0.16842 0.97328 0.00500
C 	C 	0.63189 0.77876 0.64867 0.13700
C 	C 	0.71030 0.12771 0.07879 0.14200
C 	C 	0.22066 0.79366 0.54032 -0.05100
C 	C 	0.43197 0.00691 0.07510 0.55800
C 	C 	0.95929 0.19389 0.26460 -0.07200
C 	C 	0.74511 0.39107 0.83904 -0.19500
C 	C 	0.99309 0.92490 0.56803 0.53200
C 	C 	0.09393 0.83904 0.44797 -0.19400
C 	C 	0.05294 0.15118 0.39676 -0.20200
C 	C 	0.57494 0.93181 0.00691 0.55800
C 	C 	0.42700 0.22066 0.68034 -0.05100
C 	C 	0.72330 0.78346 0.00356 0.02800
C 	C 	0.64313 0.57494 0.56803 0.54500
C 	C 	0.07201 0.62104 0.21005 0.12400
C 	C 	0.79451 0.23460 0.50291 0.01200
C 	C 	0.13684 0.30526 0.33198 0.01700
C 	C 	0.88013 0.85656 0.24049 -0.19200
C 	C 	0.50291 0.79451 0.23460 0.01200
C 	C 	0.52725 0.11189 0.89676 0.11200
C 	C 	0.27647 0.18508 0.96335 0.01100
C 	C 	0.07996 0.50601 0.93771 0.53300
C 	C 	0.77934 0.20634 0.45968 -0.05100
C 	C 	0.14234 0.66310 0.32524 -0.07100
C 	C 	0.35404 0.74511 0.90607 -0.19500
C 	C 	0.45097 0.58901 0.37896 0.12400
C 	C 	0.26590 0.01530 0.25060 0.00100
C 	C 	0.57395 0.07996 0.14225 0.53300
C 	C 	0.51615 0.77995 0.26380 -0.00500
C 	C 	0.37896 0.45097 0.58901 0.12400
C 	C 	0.69474 0.66802 0.86316 0.01100
C 	C 	0.31312 0.03665 0.22173 -0.00400
C 	C 	0.31966 0.54032 0.74666 -0.05100
O 	O 	-0.00000 0.00000 0.44466 -1.21800
O 	O 	0.45777 0.53140 0.58393 -0.64700
O 	O 	0.53140 0.07363 0.94747 -0.64800
O 	O 	0.94733 0.00484 0.50249 -1.23500
O 	O 	0.94249 0.94733 0.44484 -1.24500
O 	O 	0.62670 0.05015 0.08023 -0.63700
O 	O 	0.62272 0.08073 0.03823 -0.64500
O 	O 	0.45423 0.57669 0.54164 -0.64700
O 	O 	0.45801 0.37728 0.41551 -0.64900
O 	O 	0.45836 0.54577 0.42331 -0.64700
O 	O 	0.05751 0.05267 0.55516 -1.23400
O 	O 	0.62670 0.54647 0.57655 -0.64000
O 	O 	0.37330 0.45353 0.42345 -0.64000
O 	O 	0.99516 0.94249 0.49765 -1.24800
O 	O 	0.92637 0.45777 0.87384 -0.64900
O 	O 	0.03008 0.45353 0.08023 -0.62800
O 	O 	0.57669 0.12246 0.03505 -0.64300
O 	O 	0.41551 0.45801 0.37728 -0.64900
O 	O 	0.49751 0.05267 0.99516 -1.24400
O 	O 	0.55516 0.05751 0.05267 -1.23400
O 	O 	0.12246 0.54577 0.08741 -0.64700
O 	O 	0.87384 0.92637 0.45777 -0.64900
O 	O 	0.45353 0.42345 0.37330 -0.64000
O 	O 	0.05015 0.42345 0.96992 -0.65000
O 	O 	0.44484 0.49751 0.50235 -1.23800
O 	O 	0.05751 0.50235 0.00484 -1.23000
O 	O 	0.96177 0.04250 0.58449 -0.65600
O 	O 	0.03505 0.91259 0.45836 -0.64300
O 	O 	0.44484 0.94249 0.94733 -1.24500
O 	O 	0.96992 0.54647 0.91977 -0.65400
O 	O 	0.04250 0.58449 0.96177 -0.65600
O 	O 	0.42331 0.87754 0.96495 -0.65200
O 	O 	0.87384 0.41607 0.94747 -0.65000
O 	O 	0.45801 0.04250 0.08073 -0.65000
O 	O 	0.54577 0.42331 0.45836 -0.64700
O 	O 	0.05267 0.99516 0.49751 -1.24400
O 	O 	0.08023 0.03008 0.45353 -0.62800
O 	O 	0.94747 0.53140 0.07363 -0.64800
O 	O 	0.54647 0.91977 0.96992 -0.65400
O 	O 	0.12246 0.03505 0.57669 -0.64300
O 	O 	0.54199 0.62272 0.58449 -0.64900
O 	O 	-0.00000 0.44466 -0.00000 -1.21800
O 	O 	0.46860 0.41607 0.54223 -0.64700
O 	O 	0.57669 0.54164 0.45423 -0.64700
O 	O 	0.58449 0.96177 0.04250 -0.65600
O 	O 	0.00000 0.00000 0.55534 -1.21800
O 	O 	0.42331 0.45836 0.54577 -0.64700
O 	O 	0.08741 0.12246 0.54577 -0.64700
O 	O 	0.49751 0.50235 0.44484 -1.23800
O 	O 	0.94249 0.49765 0.99516 -1.24800
O 	O 	0.41607 0.94747 0.87384 -0.65000
O 	O 	0.91927 0.54199 0.95750 -0.65000
O 	O 	0.12616 0.58393 0.05253 -0.64400
O 	O 	0.91259 0.87754 0.45423 -0.64800
O 	O 	0.96177 0.37728 0.91927 -0.65600
O 	O 	0.57655 0.03008 0.94985 -0.63300
O 	O 	0.53140 0.58393 0.45777 -0.64700
O 	O 	0.58393 0.05253 0.12616 -0.64400
O 	O 	0.44466 0.00000 -0.00000 -1.21800
O 	O 	0.08073 0.45801 0.04250 -0.65000
O 	O 	0.49765 0.55516 0.50249 -1.23800
O 	O 	0.05253 0.12616 0.58393 -0.64400
O 	O 	0.92637 0.05253 0.46860 -0.64600
O 	O 	0.54647 0.57655 0.62670 -0.64000
O 	O 	0.03823 0.62272 0.08073 -0.64500
O 	O 	0.91259 0.45836 0.03505 -0.64300
O 	O 	0.91977 0.96992 0.54647 -0.65400
O 	O 	0.41607 0.54223 0.46860 -0.64700
O 	O 	0.45836 0.03505 0.91259 -0.64300
O 	O 	0.07363 0.54223 0.12616 -0.64500
O 	O 	0.42345 0.96992 0.05015 -0.65000
O 	O 	0.94747 0.87384 0.41607 -0.65000
O 	O 	0.00484 0.05751 0.50235 -1.23000
O 	O 	0.96992 0.05015 0.42345 -0.65000
O 	O 	0.87754 0.96495 0.42331 -0.65200
O 	O 	0.42345 0.37330 0.45353 -0.64000
O 	O 	0.50235 0.44484 0.49751 -1.23800
O 	O 	0.12616 0.07363 0.54223 -0.64500
O 	O 	0.00484 0.50249 0.94733 -1.23500
O 	O 	0.95750 0.91927 0.54199 -0.65000
O 	O 	0.94985 0.91977 0.37330 -0.64600
O 	O 	0.96495 0.08741 0.54164 -0.65200
O 	O 	0.46860 0.92637 0.05253 -0.64600
O 	O 	0.55516 0.50249 0.49765 -1.23800
O 	O 	0.44466 0.44466 0.44466 -1.23300
O 	O 	0.03823 0.95750 0.41551 -0.64500
O 	O 	-0.00000 0.55534 -0.00000 -1.21800
O 	O 	0.94733 0.44484 0.94249 -1.24500
O 	O 	0.49765 0.99516 0.94249 -1.24800
O 	O 	0.87754 0.45423 0.91259 -0.64800
O 	O 	0.58449 0.54199 0.62272 -0.64900
O 	O 	0.45777 0.87384 0.92637 -0.64900
O 	O 	0.62272 0.58449 0.54199 -0.64900
O 	O 	0.50249 0.49765 0.55516 -1.23800
O 	O 	0.54577 0.08741 0.12246 -0.64700
O 	O 	0.08023 0.62670 0.05015 -0.63700
O 	O 	0.91977 0.37330 0.94985 -0.64600
O 	O 	0.57655 0.62670 0.54647 -0.64000
O 	O 	0.54223 0.12616 0.07363 -0.64500
O 	O 	0.03505 0.57669 0.12246 -0.64300
O 	O 	0.58393 0.45777 0.53140 -0.64700
O 	O 	0.54199 0.95750 0.91927 -0.65000
O 	O 	0.50235 0.00484 0.05751 -1.23000
O 	O 	0.05015 0.08023 0.62670 -0.63700
O 	O 	0.37330 0.94985 0.91977 -0.64600
O 	O 	0.41551 0.03823 0.95750 -0.64500
O 	O 	0.03008 0.94985 0.57655 -0.63300
O 	O 	0.55534 0.00000 -0.00000 -1.21800
O 	O 	0.05267 0.55516 0.05751 -1.23400
O 	O 	0.50249 0.94733 0.00484 -1.23500
O 	O 	0.45353 0.08023 0.03008 -0.62800
O 	O 	0.54164 0.45423 0.57669 -0.64700
O 	O 	0.37728 0.41551 0.45801 -0.64900
O 	O 	0.96495 0.42331 0.87754 -0.65200
O 	O 	0.37728 0.91927 0.96177 -0.65600
O 	O 	0.08741 0.54164 0.96495 -0.65200
O 	O 	0.94985 0.57655 0.03008 -0.63300
O 	O 	0.08073 0.03823 0.62272 -0.64500
O 	O 	0.05253 0.46860 0.92637 -0.64600
O 	O 	0.54223 0.46860 0.41607 -0.64700
O 	O 	0.95750 0.41551 0.03823 -0.64500
O 	O 	0.91927 0.96177 0.37728 -0.65600
O 	O 	0.99516 0.49751 0.05267 -1.24400
O 	O 	0.45423 0.91259 0.87754 -0.64800
O 	O 	0.07363 0.94747 0.53140 -0.64800
O 	O 	0.04250 0.08073 0.45801 -0.65000
O 	O 	0.55534 0.55534 0.55534 -1.23300
O 	O 	0.54164 0.96495 0.08741 -0.65200
