data_crystal

_cell_length_a 10.42970
_cell_length_b 11.21900
_cell_length_c 11.21900
_cell_angle_alpha 98.50860
_cell_angle_beta  109.59200
_cell_angle_gamma 109.59200

_symmetry_space_group_name_	'P 1'
_symmetry_space_group_name_H-M	'P 1'

loop_
_symmetry_equiv_pos_as_xyz
  x,y,z

loop_
_atom_site_label
_atom_site_type_symbol
_atom_site_fract_x
_atom_site_fract_y
_atom_site_fract_z
_atom_site_charge
Cd	Cd	0.25094 0.97483 0.06675 1.19700
Cd	Cd	0.75094 0.06675 0.97483 1.19900
H 	H 	0.12930 0.20970 0.04010 -0.01700
H 	H 	0.17800 0.40610 0.98430 0.04500
H 	H 	0.35980 0.47440 0.90080 0.04100
H 	H 	0.41890 0.78350 0.03250 -0.02300
H 	H 	0.50300 0.63790 0.12650 0.09800
H 	H 	0.29920 0.66880 0.37060 0.09500
H 	H 	0.23450 0.82290 0.28050 0.01000
H 	H 	0.38830 0.48800 0.35200 0.09100
H 	H 	0.48040 0.48470 0.26310 0.09700
H 	H 	0.68180 0.68560 0.42140 0.01700
H 	H 	0.59080 0.67950 0.51170 0.01700
H 	H 	0.70960 0.49120 0.45760 0.09800
H 	H 	0.61160 0.47840 0.54260 0.10500
H 	H 	0.94920 0.72470 0.55010 0.10200
H 	H 	0.14800 0.87410 0.74090 0.00200
H 	H 	0.95640 0.71660 0.96160 0.00100
H 	H 	0.74790 0.56760 0.77680 0.11800
H 	H 	0.62930 0.04010 0.20970 -0.01000
H 	H 	0.67800 0.98430 0.40610 0.04500
H 	H 	0.85980 0.90080 0.47440 0.05100
H 	H 	0.91890 0.03250 0.78350 -0.01500
H 	H 	0.00300 0.12650 0.63790 0.07600
H 	H 	0.79920 0.37060 0.66880 0.09300
H 	H 	0.73450 0.28050 0.82290 0.01400
H 	H 	0.88830 0.35200 0.48800 0.08500
H 	H 	0.98040 0.26310 0.48470 0.09200
H 	H 	0.18180 0.42140 0.68560 0.02300
H 	H 	0.09080 0.51170 0.67950 0.02100
H 	H 	0.20960 0.45760 0.49120 0.09000
H 	H 	0.11160 0.54260 0.47840 0.09500
H 	H 	0.44920 0.55010 0.72470 0.10500
H 	H 	0.64800 0.74090 0.87410 -0.00400
H 	H 	0.45640 0.96160 0.71660 0.00200
H 	H 	0.24790 0.77680 0.56760 0.11300
C 	C 	0.20500 0.23885 0.00865 -0.02000
C 	C 	0.23210 0.35484 0.97456 -0.04100
C 	C 	0.34000 0.39499 0.92573 -0.02000
C 	C 	0.41990 0.31942 0.91286 -0.03700
C 	C 	0.53420 0.36813 0.85507 0.29200
C 	C 	0.38910 0.20577 0.95439 -0.03000
C 	C 	0.47980 0.12346 0.96140 0.31300
C 	C 	0.39720 0.76201 0.10439 0.10300
C 	C 	0.44560 0.67294 0.15846 -0.20100
C 	C 	0.40910 0.63539 0.26029 0.16600
C 	C 	0.32800 0.69239 0.30261 -0.19400
C 	C 	0.28810 0.78340 0.24740 0.08700
C 	C 	0.46410 0.54373 0.32587 -0.26600
C 	C 	0.61030 0.62475 0.44805 0.05800
C 	C 	0.68310 0.54204 0.51816 -0.27100
C 	C 	0.82170 0.63084 0.64076 0.16900
C 	C 	0.94650 0.72312 0.63368 -0.17400
C 	C 	0.06530 0.81145 0.74815 0.08000
C 	C 	0.95300 0.72026 0.87654 0.12200
C 	C 	0.82850 0.63001 0.76659 -0.20400
C 	C 	0.70500 0.00865 0.23885 -0.01800
C 	C 	0.73210 0.97456 0.35484 -0.03400
C 	C 	0.84000 0.92573 0.39499 -0.03500
C 	C 	0.91990 0.91286 0.31942 -0.00000
C 	C 	0.03420 0.85507 0.36813 0.24100
C 	C 	0.88910 0.95439 0.20577 -0.04400
C 	C 	0.97980 0.96140 0.12346 0.34700
C 	C 	0.89720 0.10439 0.76201 0.08900
C 	C 	0.94560 0.15846 0.67294 -0.16400
C 	C 	0.90910 0.26029 0.63539 0.14600
C 	C 	0.82800 0.30261 0.69239 -0.17800
C 	C 	0.78810 0.24740 0.78340 0.08300
C 	C 	0.96410 0.32587 0.54373 -0.23200
C 	C 	0.11030 0.44805 0.62475 0.02700
C 	C 	0.18310 0.51816 0.54204 -0.25700
C 	C 	0.32170 0.64076 0.63084 0.16700
C 	C 	0.44650 0.63368 0.72312 -0.19900
C 	C 	0.56530 0.74815 0.81145 0.10900
C 	C 	0.45300 0.87654 0.72026 0.10700
C 	C 	0.32850 0.76659 0.63001 -0.20100
N 	N 	0.28120 0.16534 0.99922 -0.20000
N 	N 	0.32190 0.81866 0.14870 -0.25100
N 	N 	0.06960 0.81307 0.86933 -0.24000
N 	N 	0.78120 0.99922 0.16534 -0.19800
N 	N 	0.82190 0.14870 0.81866 -0.24500
N 	N 	0.56960 0.86933 0.81307 -0.23500
O 	O 	0.43883 0.01820 0.99068 -0.45000
O 	O 	0.59487 0.17070 0.93990 -0.41000
O 	O 	0.65521 0.46324 0.93152 -0.23900
O 	O 	0.49390 0.31668 0.73484 -0.25000
O 	O 	0.93883 0.99068 0.01820 -0.45000
O 	O 	0.09487 0.93990 0.17070 -0.43600
O 	O 	0.15521 0.93152 0.46324 -0.23200
O 	O 	0.99390 0.73484 0.31668 -0.21900
