data_crystal

_cell_length_a 13.56670
_cell_length_b 9.56660
_cell_length_c 23.14320
_cell_angle_alpha 90.00000
_cell_angle_beta  122.67200
_cell_angle_gamma 90.00000

_symmetry_space_group_name_	'P 1'
_symmetry_space_group_name_H-M	'P 1'

loop_
_symmetry_equiv_pos_as_xyz
  x,y,z

loop_
_atom_site_label
_atom_site_type_symbol
_atom_site_fract_x
_atom_site_fract_y
_atom_site_fract_z
_atom_site_charge
Cd	Cd	0.22679 0.75074 0.74412 1.24200
O 	O 	0.15090 0.93240 0.66060 -0.34200
O 	O 	0.32130 0.84140 0.69230 -0.34700
O 	O 	0.52830 0.21960 0.64070 -0.27300
O 	O 	0.68080 0.07380 0.68290 -0.36100
O 	O 	0.02680 0.66060 0.68860 -0.33800
O 	O 	0.13670 0.58950 0.65140 -0.34200
C 	C 	0.23670 0.91860 0.65450 0.28800
C 	C 	0.23350 0.99660 0.59640 -0.01600
C 	C 	0.13590 0.07530 0.55050 -0.05400
H 	H 	0.07360 0.08340 0.55650 0.07000
C 	C 	0.32630 0.98480 0.58690 -0.06700
H 	H 	0.39180 0.93240 0.61760 0.08300
C 	C 	0.32220 0.05040 0.53180 0.04800
C 	C 	0.22320 0.12840 0.48650 -0.08200
H 	H 	0.21870 0.17250 0.44930 0.07400
C 	C 	0.13110 0.14120 0.49620 0.00400
H 	H 	0.06590 0.19450 0.46590 0.04000
C 	C 	0.41620 0.02790 0.51760 0.02100
C 	C 	0.38480 0.97440 0.45400 -0.04300
H 	H 	0.30590 0.95730 0.42200 0.06700
C 	C 	0.53430 0.05560 0.56500 -0.04800
C 	C 	0.58210 0.12120 0.63420 0.28900
C 	C 	0.93920 0.51030 0.59180 -0.02000
C 	C 	0.83010 0.52140 0.58100 -0.06100
H 	H 	0.81900 0.58370 0.60780 0.08100
C 	C 	0.73400 0.44290 0.53110 0.04700
C 	C 	0.75390 0.35000 0.49230 -0.08200
H 	H 	0.69280 0.29520 0.45910 0.07200
C 	C 	0.86370 0.33840 0.50250 0.00500
H 	H 	0.87530 0.27640 0.47580 0.04000
C 	C 	0.95620 0.41710 0.55180 -0.05000
H 	H 	0.02980 0.40810 0.55820 0.07100
C 	C 	0.61470 0.46850 0.51700 0.02300
C 	C 	0.04040 0.59340 0.64800 0.28800
C 	C 	0.59390 0.48760 0.56920 -0.04900
C 	C 	0.52070 0.47770 0.44880 -0.04200
H 	H 	0.53400 0.46050 0.41400 0.07100
O 	O 	0.75390 0.36540 0.66410 -0.36900
O 	O 	0.68550 0.55650 0.68560 -0.24700
C 	C 	0.68630 0.46780 0.64600 0.30000
Cd	Cd	0.77321 0.25074 0.75588 1.24300
O 	O 	0.84910 0.43240 0.83940 -0.34100
O 	O 	0.67870 0.34140 0.80770 -0.34600
O 	O 	0.47170 0.71960 0.85930 -0.27200
O 	O 	0.31920 0.57380 0.81710 -0.36000
O 	O 	0.97320 0.16060 0.81140 -0.33700
O 	O 	0.86330 0.08950 0.84860 -0.34100
C 	C 	0.76330 0.41860 0.84550 0.28900
C 	C 	0.76650 0.49660 0.90360 -0.01500
C 	C 	0.86410 0.57530 0.94950 -0.05400
H 	H 	0.92640 0.58340 0.94350 0.07000
C 	C 	0.67370 0.48480 0.91310 -0.06700
H 	H 	0.60820 0.43240 0.88240 0.08300
C 	C 	0.67780 0.55040 0.96820 0.04800
C 	C 	0.77680 0.62840 0.01350 -0.08200
H 	H 	0.78130 0.67250 0.05070 0.07500
C 	C 	0.86890 0.64120 0.00380 0.00500
H 	H 	0.93410 0.69450 0.03410 0.04000
C 	C 	0.58380 0.52790 0.98240 0.02200
C 	C 	0.61520 0.47440 0.04600 -0.04300
H 	H 	0.69410 0.45730 0.07800 0.06700
C 	C 	0.46570 0.55560 0.93500 -0.04900
C 	C 	0.41790 0.62120 0.86580 0.28900
C 	C 	0.06080 0.01030 0.90820 -0.02000
C 	C 	0.16990 0.02140 0.91900 -0.05900
H 	H 	0.18100 0.08370 0.89220 0.08100
C 	C 	0.26600 0.94290 0.96890 0.04500
C 	C 	0.24610 0.85000 0.00770 -0.07900
H 	H 	0.30720 0.79520 0.04090 0.07100
C 	C 	0.13630 0.83840 0.99750 0.00200
H 	H 	0.12470 0.77640 0.02420 0.04100
C 	C 	0.04380 0.91710 0.94820 -0.04800
H 	H 	0.97020 0.90810 0.94180 0.07000
C 	C 	0.38530 0.96850 0.98300 0.02300
C 	C 	0.95960 0.09340 0.85200 0.28800
C 	C 	0.40610 0.98760 0.93080 -0.05000
C 	C 	0.47930 0.97770 0.05120 -0.04000
H 	H 	0.46600 0.96050 0.08600 0.07100
O 	O 	0.24610 0.86540 0.83590 -0.36900
O 	O 	0.31450 0.05650 0.81440 -0.24700
C 	C 	0.31370 0.96780 0.85400 0.30000
Cd	Cd	0.77321 0.24926 0.25588 1.24300
O 	O 	0.84910 0.06760 0.33940 -0.34100
O 	O 	0.67870 0.15860 0.30770 -0.34600
O 	O 	0.47170 0.78040 0.35930 -0.27200
O 	O 	0.31920 0.92620 0.31710 -0.36000
O 	O 	0.97320 0.33940 0.31140 -0.33700
O 	O 	0.86330 0.41050 0.34860 -0.34100
C 	C 	0.76330 0.08140 0.34550 0.28900
C 	C 	0.76650 0.00340 0.40360 -0.01500
C 	C 	0.86410 0.92470 0.44950 -0.05300
H 	H 	0.92640 0.91660 0.44350 0.07000
C 	C 	0.67370 0.01520 0.41310 -0.06700
H 	H 	0.60820 0.06760 0.38240 0.08300
C 	C 	0.67780 0.94960 0.46820 0.04800
C 	C 	0.77680 0.87160 0.51350 -0.08200
H 	H 	0.78130 0.82750 0.55070 0.07400
C 	C 	0.86890 0.85880 0.50380 0.00400
H 	H 	0.93410 0.80550 0.53410 0.04000
C 	C 	0.58380 0.97210 0.48240 0.02100
C 	C 	0.61520 0.02560 0.54600 -0.04300
H 	H 	0.69410 0.04270 0.57800 0.06700
C 	C 	0.46570 0.94440 0.43500 -0.04800
C 	C 	0.41790 0.87880 0.36580 0.28900
C 	C 	0.06080 0.48970 0.40820 -0.02000
C 	C 	0.16990 0.47860 0.41900 -0.06100
H 	H 	0.18100 0.41630 0.39220 0.08100
C 	C 	0.26600 0.55710 0.46890 0.04700
C 	C 	0.24610 0.65000 0.50770 -0.08200
H 	H 	0.30720 0.70480 0.54090 0.07200
C 	C 	0.13630 0.66160 0.49750 0.00500
H 	H 	0.12470 0.72360 0.52420 0.04000
C 	C 	0.04380 0.58290 0.44820 -0.05000
H 	H 	0.97020 0.59190 0.44180 0.07100
C 	C 	0.38530 0.53150 0.48300 0.02300
C 	C 	0.95960 0.40660 0.35200 0.28800
C 	C 	0.40610 0.51240 0.43080 -0.04900
C 	C 	0.47930 0.52230 0.55120 -0.04200
H 	H 	0.46600 0.53950 0.58600 0.07100
O 	O 	0.24610 0.63460 0.33590 -0.36900
O 	O 	0.31450 0.44350 0.31440 -0.24700
C 	C 	0.31370 0.53220 0.35400 0.30000
Cd	Cd	0.22679 0.74926 0.24412 1.24300
O 	O 	0.15090 0.56760 0.16060 -0.34100
O 	O 	0.32130 0.65860 0.19230 -0.34600
O 	O 	0.52830 0.28040 0.14070 -0.27200
O 	O 	0.68080 0.42620 0.18290 -0.36000
O 	O 	0.02680 0.83940 0.18860 -0.33700
O 	O 	0.13670 0.91050 0.15140 -0.34100
C 	C 	0.23670 0.58140 0.15450 0.28900
C 	C 	0.23350 0.50340 0.09640 -0.01500
C 	C 	0.13590 0.42470 0.05050 -0.05400
H 	H 	0.07360 0.41660 0.05650 0.07000
C 	C 	0.32630 0.51520 0.08690 -0.06700
H 	H 	0.39180 0.56760 0.11760 0.08300
C 	C 	0.32220 0.44960 0.03180 0.04800
C 	C 	0.22320 0.37160 0.98650 -0.08200
H 	H 	0.21870 0.32750 0.94930 0.07500
C 	C 	0.13110 0.35880 0.99620 0.00500
H 	H 	0.06590 0.30550 0.96590 0.04000
C 	C 	0.41620 0.47210 0.01760 0.02200
C 	C 	0.38480 0.52560 0.95400 -0.04300
H 	H 	0.30590 0.54270 0.92200 0.06700
C 	C 	0.53430 0.44440 0.06500 -0.04900
C 	C 	0.58210 0.37880 0.13420 0.28900
C 	C 	0.93920 0.98970 0.09180 -0.02000
C 	C 	0.83010 0.97860 0.08100 -0.05900
H 	H 	0.81900 0.91630 0.10780 0.08100
C 	C 	0.73400 0.05710 0.03110 0.04500
C 	C 	0.75390 0.15000 0.99230 -0.07900
H 	H 	0.69280 0.20480 0.95910 0.07100
C 	C 	0.86370 0.16160 0.00250 0.00200
H 	H 	0.87530 0.22360 0.97580 0.04100
C 	C 	0.95620 0.08290 0.05180 -0.04800
H 	H 	0.02980 0.09190 0.05820 0.07000
C 	C 	0.61470 0.03150 0.01700 0.02300
C 	C 	0.04040 0.90660 0.14800 0.28800
C 	C 	0.59390 0.01240 0.06920 -0.05000
C 	C 	0.52070 0.02230 0.94880 -0.04000
H 	H 	0.53400 0.03950 0.91400 0.07100
O 	O 	0.75390 0.13460 0.16410 -0.36900
O 	O 	0.68550 0.94350 0.18560 -0.24700
C 	C 	0.68630 0.03220 0.14600 0.30000
