data_crystal

_cell_length_a 21.70250
_cell_length_b 10.03560
_cell_length_c 14.03430
_cell_angle_alpha 90.00000
_cell_angle_beta  91.71100
_cell_angle_gamma 90.00000

_symmetry_space_group_name_	'P 1'
_symmetry_space_group_name_H-M	'P 1'

loop_
_symmetry_equiv_pos_as_xyz
  x,y,z

loop_
_atom_site_label
_atom_site_type_symbol
_atom_site_fract_x
_atom_site_fract_y
_atom_site_fract_z
_atom_site_charge
Ho	Ho	0.75910 0.56538 0.27170 1.81800
Ho	Ho	0.74939 0.75242 0.02700 1.94900
O 	O 	0.71838 0.53820 0.11361 -0.59400
O 	O 	0.65035 0.51700 0.29930 -0.49200
O 	O 	0.69847 0.62720 0.40959 -0.63300
O 	O 	0.81002 0.76290 0.86172 -0.54500
O 	O 	0.28741 0.26420 0.27770 -0.58200
O 	O 	0.80809 0.45500 0.39878 -0.54300
O 	O 	0.81111 0.56690 0.53460 -0.56200
O 	O 	0.30999 0.40370 0.38730 -0.51700
O 	O 	0.78404 0.57690 0.92857 -0.49200
O 	O 	0.65671 0.63330 0.00990 -0.50500
O 	O 	0.13967 0.48760 0.78532 -0.48800
O 	O 	0.17742 0.32190 0.86466 -0.61200
C 	C 	0.64874 0.57540 0.37650 0.53600
C 	C 	0.59130 0.58760 0.43360 -0.48500
H 	H 	0.58760 0.68130 0.45470 0.17700
H 	H 	0.59660 0.53190 0.49150 0.17600
C 	C 	0.53161 0.54810 0.38320 0.17200
C 	C 	0.48822 0.64230 0.35660 -0.11700
H 	H 	0.49630 0.73370 0.36950 0.06800
C 	C 	0.51788 0.41580 0.36480 -0.10600
H 	H 	0.54680 0.34870 0.38290 0.06500
C 	C 	0.82818 0.47570 0.48170 0.59800
C 	C 	0.87797 0.38410 0.52200 -0.50100
H 	H 	0.87100 0.36770 0.59040 0.16900
H 	H 	0.87610 0.29740 0.48840 0.17200
C 	C 	0.94097 0.44610 0.51070 0.16400
C 	C 	0.98335 0.45070 0.58690 -0.10900
H 	H 	0.97200 0.41730 0.64730 0.06800
C 	C 	0.95840 0.49690 0.42350 -0.11300
H 	H 	0.93000 0.49570 0.37070 0.08200
C 	C 	0.13514 0.40750 0.85160 0.53800
C 	C 	0.08297 0.40780 0.91830 -0.49100
H 	H 	0.07930 0.31720 0.94550 0.16500
H 	H 	0.09370 0.46890 0.97170 0.16400
C 	C 	0.02059 0.44800 0.87720 0.18700
C 	C 	0.97549 0.35360 0.86280 -0.13800
H 	H 	0.98490 0.26260 0.87490 0.07600
C 	C 	0.80821 0.63730 0.86090 0.48100
C 	C 	0.83705 0.55940 0.78210 -0.42600
H 	H 	0.83810 0.61450 0.72360 0.15400
H 	H 	0.81220 0.47870 0.76770 0.14300
C 	C 	0.90212 0.51940 0.81270 0.12400
C 	C 	0.94761 0.61430 0.82480 -0.08400
H 	H 	0.93850 0.70510 0.81140 0.06100
C 	C 	0.91703 0.38770 0.83120 -0.08300
H 	H 	0.88670 0.32030 0.82200 0.05000
C 	C 	0.00650 0.57880 0.85640 -0.12700
H 	H 	0.03740 0.64540 0.86370 0.07500
C 	C 	0.66695 0.54230 0.06810 0.51300
C 	C 	0.62002 0.43530 0.08360 -0.47100
H 	H 	0.63490 0.35110 0.05560 0.15400
H 	H 	0.61620 0.42100 0.15290 0.16700
C 	C 	0.55768 0.46670 0.04090 0.16900
C 	C 	0.54366 0.44130 0.94520 -0.09900
H 	H 	0.57370 0.40060 0.90680 0.05800
C 	C 	0.51300 0.52590 0.09470 -0.11400
H 	H 	0.52150 0.54420 0.16020 0.07200
C 	C 	0.31709 0.36240 0.30530 0.57200
C 	C 	0.36011 0.43490 0.24170 -0.49800
H 	H 	0.33920 0.51560 0.21620 0.16300
H 	H 	0.36970 0.37690 0.18700 0.17300
C 	C 	0.41967 0.47540 0.29240 0.16600
C 	C 	0.46268 0.37970 0.32040 -0.11000
H 	H 	0.45410 0.28820 0.30890 0.06600
C 	C 	0.43322 0.60670 0.31150 -0.10600
H 	H 	0.40430 0.67390 0.29350 0.05500
Ho	Ho	0.24090 0.06538 0.22830 1.81700
Ho	Ho	0.25061 0.25242 0.47300 1.94800
O 	O 	0.28162 0.03820 0.38639 -0.59500
O 	O 	0.34965 0.01700 0.20070 -0.49300
O 	O 	0.30153 0.12720 0.09041 -0.63400
O 	O 	0.18998 0.26290 0.63828 -0.54600
O 	O 	0.71259 0.76420 0.22230 -0.58300
O 	O 	0.19191 0.95500 0.10122 -0.54500
O 	O 	0.18889 0.06690 0.96540 -0.56400
O 	O 	0.69001 0.90370 0.11270 -0.51800
O 	O 	0.21596 0.07690 0.57143 -0.49300
O 	O 	0.34329 0.13330 0.49010 -0.50600
O 	O 	0.86033 0.98760 0.71468 -0.48900
O 	O 	0.82258 0.82190 0.63534 -0.61300
C 	C 	0.35126 0.07540 0.12350 0.53600
C 	C 	0.40870 0.08760 0.06640 -0.48600
H 	H 	0.41240 0.18130 0.04530 0.17700
H 	H 	0.40340 0.03190 0.00850 0.17600
C 	C 	0.46839 0.04810 0.11680 0.17200
C 	C 	0.51178 0.14230 0.14340 -0.11900
H 	H 	0.50370 0.23370 0.13050 0.06800
C 	C 	0.48212 0.91580 0.13520 -0.10700
H 	H 	0.45320 0.84870 0.11710 0.06500
C 	C 	0.17182 0.97570 0.01830 0.59800
C 	C 	0.12203 0.88410 0.97800 -0.50100
H 	H 	0.12900 0.86770 0.90960 0.16900
H 	H 	0.12390 0.79740 0.01160 0.17200
C 	C 	0.05903 0.94610 0.98930 0.16500
C 	C 	0.01665 0.95070 0.91310 -0.10900
H 	H 	0.02800 0.91730 0.85270 0.06800
C 	C 	0.04160 0.99690 0.07650 -0.11300
H 	H 	0.07000 0.99570 0.12930 0.08100
C 	C 	0.86486 0.90750 0.64840 0.53800
C 	C 	0.91703 0.90780 0.58170 -0.49100
H 	H 	0.92070 0.81720 0.55450 0.16500
H 	H 	0.90630 0.96890 0.52830 0.16300
C 	C 	0.97941 0.94800 0.62280 0.18700
C 	C 	0.02451 0.85360 0.63720 -0.13800
H 	H 	0.01510 0.76260 0.62510 0.07600
C 	C 	0.19179 0.13730 0.63910 0.48100
C 	C 	0.16295 0.05940 0.71790 -0.42600
H 	H 	0.16190 0.11450 0.77640 0.15400
H 	H 	0.18780 0.97870 0.73230 0.14300
C 	C 	0.09788 0.01940 0.68730 0.12400
C 	C 	0.05239 0.11430 0.67520 -0.08500
H 	H 	0.06150 0.20510 0.68860 0.06100
C 	C 	0.08297 0.88770 0.66880 -0.08300
H 	H 	0.11330 0.82030 0.67800 0.05000
C 	C 	0.99350 0.07880 0.64360 -0.12700
H 	H 	0.96260 0.14540 0.63630 0.07500
C 	C 	0.33305 0.04230 0.43190 0.51300
C 	C 	0.37998 0.93530 0.41640 -0.47100
H 	H 	0.36510 0.85110 0.44440 0.15400
H 	H 	0.38380 0.92100 0.34710 0.16700
C 	C 	0.44232 0.96670 0.45910 0.16800
C 	C 	0.45634 0.94130 0.55480 -0.09900
H 	H 	0.42630 0.90060 0.59320 0.05800
C 	C 	0.48700 0.02590 0.40530 -0.11400
H 	H 	0.47850 0.04420 0.33980 0.07200
C 	C 	0.68291 0.86240 0.19470 0.57100
C 	C 	0.63989 0.93490 0.25830 -0.49800
H 	H 	0.66080 0.01560 0.28380 0.16300
H 	H 	0.63030 0.87690 0.31300 0.17300
C 	C 	0.58033 0.97540 0.20760 0.16500
C 	C 	0.53732 0.87970 0.17960 -0.10900
H 	H 	0.54590 0.78820 0.19110 0.06600
C 	C 	0.56678 0.10670 0.18850 -0.10500
H 	H 	0.59570 0.17390 0.20650 0.05400
Ho	Ho	0.24090 0.43462 0.72830 1.81700
Ho	Ho	0.25061 0.24758 0.97300 1.94800
O 	O 	0.28162 0.46180 0.88639 -0.59500
O 	O 	0.34965 0.48300 0.70070 -0.49300
O 	O 	0.30153 0.37280 0.59041 -0.63400
O 	O 	0.18998 0.23710 0.13828 -0.54600
O 	O 	0.71259 0.73580 0.72230 -0.58300
O 	O 	0.19191 0.54500 0.60122 -0.54400
O 	O 	0.18889 0.43310 0.46540 -0.56300
O 	O 	0.69001 0.59630 0.61270 -0.51800
O 	O 	0.21596 0.42310 0.07143 -0.49300
O 	O 	0.34329 0.36670 0.99010 -0.50600
O 	O 	0.86033 0.51240 0.21468 -0.48900
O 	O 	0.82258 0.67810 0.13534 -0.61300
C 	C 	0.35126 0.42460 0.62350 0.53500
C 	C 	0.40870 0.41240 0.56640 -0.48600
H 	H 	0.41240 0.31870 0.54530 0.17600
H 	H 	0.40340 0.46810 0.50850 0.17500
C 	C 	0.46839 0.45190 0.61680 0.17100
C 	C 	0.51178 0.35770 0.64340 -0.11800
H 	H 	0.50370 0.26630 0.63050 0.06800
C 	C 	0.48212 0.58420 0.63520 -0.10600
H 	H 	0.45320 0.65130 0.61710 0.06500
C 	C 	0.17182 0.52430 0.51830 0.59800
C 	C 	0.12203 0.61590 0.47800 -0.50100
H 	H 	0.12900 0.63230 0.40960 0.16900
H 	H 	0.12390 0.70260 0.51160 0.17200
C 	C 	0.05903 0.55390 0.48930 0.16400
C 	C 	0.01665 0.54930 0.41310 -0.10900
H 	H 	0.02800 0.58270 0.35270 0.06800
C 	C 	0.04160 0.50310 0.57650 -0.11300
H 	H 	0.07000 0.50430 0.62930 0.08200
C 	C 	0.86486 0.59250 0.14840 0.53800
C 	C 	0.91703 0.59220 0.08170 -0.49100
H 	H 	0.92070 0.68280 0.05450 0.16500
H 	H 	0.90630 0.53110 0.02830 0.16400
C 	C 	0.97941 0.55200 0.12280 0.18700
C 	C 	0.02451 0.64640 0.13720 -0.13800
H 	H 	0.01510 0.73740 0.12510 0.07600
C 	C 	0.19179 0.36270 0.13910 0.48100
C 	C 	0.16295 0.44060 0.21790 -0.42600
H 	H 	0.16190 0.38550 0.27640 0.15400
H 	H 	0.18780 0.52130 0.23230 0.14300
C 	C 	0.09788 0.48060 0.18730 0.12400
C 	C 	0.05239 0.38570 0.17520 -0.08400
H 	H 	0.06150 0.29490 0.18860 0.06100
C 	C 	0.08297 0.61230 0.16880 -0.08300
H 	H 	0.11330 0.67970 0.17800 0.05000
C 	C 	0.99350 0.42120 0.14360 -0.12700
H 	H 	0.96260 0.35460 0.13630 0.07500
C 	C 	0.33305 0.45770 0.93190 0.51300
C 	C 	0.37998 0.56470 0.91640 -0.47100
H 	H 	0.36510 0.64890 0.94440 0.15400
H 	H 	0.38380 0.57900 0.84710 0.16700
C 	C 	0.44232 0.53330 0.95910 0.16900
C 	C 	0.45634 0.55870 0.05480 -0.09900
H 	H 	0.42630 0.59940 0.09320 0.05800
C 	C 	0.48700 0.47410 0.90530 -0.11400
H 	H 	0.47850 0.45580 0.83980 0.07200
C 	C 	0.68291 0.63760 0.69470 0.57200
C 	C 	0.63989 0.56510 0.75830 -0.49800
H 	H 	0.66080 0.48440 0.78380 0.16300
H 	H 	0.63030 0.62310 0.81300 0.17300
C 	C 	0.58033 0.52460 0.70760 0.16600
C 	C 	0.53732 0.62030 0.67960 -0.11000
H 	H 	0.54590 0.71180 0.69110 0.06600
C 	C 	0.56678 0.39330 0.68850 -0.10600
H 	H 	0.59570 0.32610 0.70650 0.05500
Ho	Ho	0.75910 0.93462 0.77170 1.81700
Ho	Ho	0.74939 0.74758 0.52700 1.94800
O 	O 	0.71838 0.96180 0.61361 -0.59500
O 	O 	0.65035 0.98300 0.79930 -0.49300
O 	O 	0.69847 0.87280 0.90959 -0.63400
O 	O 	0.81002 0.73710 0.36172 -0.54600
O 	O 	0.28741 0.23580 0.77770 -0.58300
O 	O 	0.80809 0.04500 0.89878 -0.54500
O 	O 	0.81111 0.93310 0.03460 -0.56400
O 	O 	0.30999 0.09630 0.88730 -0.51800
O 	O 	0.78404 0.92310 0.42857 -0.49300
O 	O 	0.65671 0.86670 0.50990 -0.50600
O 	O 	0.13967 0.01240 0.28532 -0.48900
O 	O 	0.17742 0.17810 0.36466 -0.61300
C 	C 	0.64874 0.92460 0.87650 0.53600
C 	C 	0.59130 0.91240 0.93360 -0.48600
H 	H 	0.58760 0.81870 0.95470 0.17700
H 	H 	0.59660 0.96810 0.99150 0.17600
C 	C 	0.53161 0.95190 0.88320 0.17200
C 	C 	0.48822 0.85770 0.85660 -0.11900
H 	H 	0.49630 0.76630 0.86950 0.06800
C 	C 	0.51788 0.08420 0.86480 -0.10700
H 	H 	0.54680 0.15130 0.88290 0.06500
C 	C 	0.82818 0.02430 0.98170 0.59800
C 	C 	0.87797 0.11590 0.02200 -0.50100
H 	H 	0.87100 0.13230 0.09040 0.16900
H 	H 	0.87610 0.20260 0.98840 0.17200
C 	C 	0.94097 0.05390 0.01070 0.16500
C 	C 	0.98335 0.04930 0.08690 -0.10900
H 	H 	0.97200 0.08270 0.14730 0.06800
C 	C 	0.95840 0.00310 0.92350 -0.11300
H 	H 	0.93000 0.00430 0.87070 0.08100
C 	C 	0.13514 0.09250 0.35160 0.53800
C 	C 	0.08297 0.09220 0.41830 -0.49100
H 	H 	0.07930 0.18280 0.44550 0.16500
H 	H 	0.09370 0.03110 0.47170 0.16300
C 	C 	0.02059 0.05200 0.37720 0.18700
C 	C 	0.97549 0.14640 0.36280 -0.13800
H 	H 	0.98490 0.23740 0.37490 0.07600
C 	C 	0.80821 0.86270 0.36090 0.48100
C 	C 	0.83705 0.94060 0.28210 -0.42600
H 	H 	0.83810 0.88550 0.22360 0.15400
H 	H 	0.81220 0.02130 0.26770 0.14300
C 	C 	0.90212 0.98060 0.31270 0.12400
C 	C 	0.94761 0.88570 0.32480 -0.08500
H 	H 	0.93850 0.79490 0.31140 0.06100
C 	C 	0.91703 0.11230 0.33120 -0.08300
H 	H 	0.88670 0.17970 0.32200 0.05000
C 	C 	0.00650 0.92120 0.35640 -0.12700
H 	H 	0.03740 0.85460 0.36370 0.07500
C 	C 	0.66695 0.95770 0.56810 0.51300
C 	C 	0.62002 0.06470 0.58360 -0.47100
H 	H 	0.63490 0.14890 0.55560 0.15400
H 	H 	0.61620 0.07900 0.65290 0.16700
C 	C 	0.55768 0.03330 0.54090 0.16800
C 	C 	0.54366 0.05870 0.44520 -0.09900
H 	H 	0.57370 0.09940 0.40680 0.05800
C 	C 	0.51300 0.97410 0.59470 -0.11400
H 	H 	0.52150 0.95580 0.66020 0.07200
C 	C 	0.31709 0.13760 0.80530 0.57100
C 	C 	0.36011 0.06510 0.74170 -0.49800
H 	H 	0.33920 0.98440 0.71620 0.16300
H 	H 	0.36970 0.12310 0.68700 0.17300
C 	C 	0.41967 0.02460 0.79240 0.16500
C 	C 	0.46268 0.12030 0.82040 -0.10900
H 	H 	0.45410 0.21180 0.80890 0.06600
C 	C 	0.43322 0.89330 0.81150 -0.10500
H 	H 	0.40430 0.82610 0.79350 0.05400
