data_crystal

_cell_length_a 18.68430
_cell_length_b 18.68430
_cell_length_c 38.60520
_cell_angle_alpha 90.00000
_cell_angle_beta  90.00000
_cell_angle_gamma 120.00000

_symmetry_space_group_name_	'P 1'
_symmetry_space_group_name_H-M	'P 1'

loop_
_symmetry_equiv_pos_as_xyz
  x,y,z

loop_
_atom_site_label
_atom_site_type_symbol
_atom_site_fract_x
_atom_site_fract_y
_atom_site_fract_z
_atom_site_charge
O 	O 	0.96190 0.18490 0.16312 -0.40500
O 	O 	0.92264 0.22492 0.21064 -0.40800
C 	C 	0.97310 0.21390 0.19338 0.35100
C 	C 	0.05300 0.23450 0.21053 -0.07300
C 	C 	0.06800 0.26450 0.24441 -0.04700
H 	H 	0.03000 0.27480 0.25560 0.06300
C 	C 	0.09740 0.25210 0.32573 0.01000
C 	C 	0.03320 0.17420 0.31670 -0.04800
C 	C 	0.98340 0.11970 0.34240 -0.03900
C 	C 	0.99790 0.14320 0.37700 -0.01800
C 	C 	0.06210 0.22100 0.38597 -0.05700
C 	C 	0.11190 0.27550 0.36030 0.01300
H 	H 	0.02140 0.15590 0.29290 0.05000
H 	H 	0.96550 0.10280 0.39500 0.03000
H 	H 	0.07210 0.23690 0.40980 0.05100
O 	O 	0.62857 0.51823 0.49645 -0.40500
O 	O 	0.58931 0.55825 0.54397 -0.40800
C 	C 	0.63977 0.54723 0.52671 0.35200
C 	C 	0.71967 0.56783 0.54386 -0.07300
C 	C 	0.73467 0.59783 0.57774 -0.04700
H 	H 	0.69667 0.60813 0.58893 0.06300
C 	C 	0.76407 0.58543 0.65906 0.01000
C 	C 	0.69987 0.50753 0.65003 -0.04800
C 	C 	0.65007 0.45303 0.67573 -0.03900
C 	C 	0.66457 0.47653 0.71033 -0.01800
C 	C 	0.72877 0.55433 0.71930 -0.05700
C 	C 	0.77857 0.60883 0.69363 0.01300
H 	H 	0.68807 0.48923 0.62623 0.05000
H 	H 	0.63217 0.43613 0.72833 0.03000
H 	H 	0.73877 0.57023 0.74313 0.05100
O 	O 	0.29523 0.85157 0.82979 -0.40500
O 	O 	0.25597 0.89159 0.87731 -0.40800
C 	C 	0.30643 0.88057 0.86005 0.35200
C 	C 	0.38633 0.90117 0.87720 -0.07300
C 	C 	0.40133 0.93117 0.91108 -0.04700
H 	H 	0.36333 0.94147 0.92227 0.06300
C 	C 	0.43073 0.91877 0.99240 0.01000
C 	C 	0.36653 0.84087 0.98337 -0.04800
C 	C 	0.31673 0.78637 0.00907 -0.03900
C 	C 	0.33123 0.80987 0.04367 -0.01800
C 	C 	0.39543 0.88767 0.05264 -0.05700
C 	C 	0.44523 0.94217 0.02697 0.01300
H 	H 	0.35473 0.82257 0.95957 0.05000
H 	H 	0.29883 0.76947 0.06167 0.03000
H 	H 	0.40543 0.90357 0.07647 0.05200
O 	O 	0.81510 0.77700 0.16312 -0.40400
O 	O 	0.77508 0.69772 0.21064 -0.40700
C 	C 	0.78610 0.75920 0.19338 0.35300
C 	C 	0.76550 0.81850 0.21053 -0.07200
C 	C 	0.73550 0.80350 0.24441 -0.04600
H 	H 	0.72520 0.75520 0.25560 0.06400
C 	C 	0.74790 0.84530 0.32573 0.01100
C 	C 	0.82580 0.85900 0.31670 -0.04700
C 	C 	0.88030 0.86370 0.34240 -0.03800
C 	C 	0.85680 0.85470 0.37700 -0.01700
C 	C 	0.77900 0.84110 0.38597 -0.05600
C 	C 	0.72450 0.83640 0.36030 0.01400
H 	H 	0.84410 0.86550 0.29290 0.05100
H 	H 	0.89720 0.86270 0.39500 0.03100
H 	H 	0.76310 0.83520 0.40980 0.05200
O 	O 	0.48177 0.11033 0.49645 -0.40400
O 	O 	0.44175 0.03105 0.54397 -0.40700
C 	C 	0.45277 0.09253 0.52671 0.35300
C 	C 	0.43217 0.15183 0.54386 -0.07200
C 	C 	0.40217 0.13683 0.57774 -0.04600
H 	H 	0.39187 0.08853 0.58893 0.06400
C 	C 	0.41457 0.17863 0.65906 0.01100
C 	C 	0.49247 0.19233 0.65003 -0.04700
C 	C 	0.54697 0.19703 0.67573 -0.03800
C 	C 	0.52347 0.18803 0.71033 -0.01700
C 	C 	0.44567 0.17443 0.71930 -0.05600
C 	C 	0.39117 0.16973 0.69363 0.01400
H 	H 	0.51077 0.19883 0.62623 0.05100
H 	H 	0.56387 0.19603 0.72833 0.03100
H 	H 	0.42977 0.16853 0.74313 0.05200
O 	O 	0.14843 0.44367 0.82979 -0.40400
O 	O 	0.10841 0.36439 0.87731 -0.40700
C 	C 	0.11943 0.42587 0.86005 0.35300
C 	C 	0.09883 0.48517 0.87720 -0.07200
C 	C 	0.06883 0.47017 0.91108 -0.04600
H 	H 	0.05853 0.42187 0.92227 0.06400
C 	C 	0.08123 0.51197 0.99240 0.01200
C 	C 	0.15913 0.52567 0.98337 -0.04700
C 	C 	0.21363 0.53037 0.00907 -0.03800
C 	C 	0.19013 0.52137 0.04367 -0.01700
C 	C 	0.11233 0.50777 0.05264 -0.05600
C 	C 	0.05783 0.50307 0.02697 0.01400
H 	H 	0.17743 0.53217 0.95957 0.05100
H 	H 	0.23053 0.52937 0.06167 0.03100
H 	H 	0.09643 0.50187 0.07647 0.05200
O 	O 	0.22300 0.03810 0.16312 -0.40400
O 	O 	0.30228 0.07736 0.21064 -0.40700
C 	C 	0.24080 0.02690 0.19338 0.35200
C 	C 	0.18150 0.94700 0.21053 -0.07200
C 	C 	0.19650 0.93200 0.24441 -0.04600
H 	H 	0.24480 0.97000 0.25560 0.06400
C 	C 	0.15470 0.90260 0.32573 0.01100
C 	C 	0.14100 0.96680 0.31670 -0.04700
C 	C 	0.13630 0.01660 0.34240 -0.03800
C 	C 	0.14530 0.00210 0.37700 -0.01700
C 	C 	0.15890 0.93790 0.38597 -0.05600
C 	C 	0.16360 0.88810 0.36030 0.01400
H 	H 	0.13450 0.97860 0.29290 0.05100
H 	H 	0.13730 0.03450 0.39500 0.03100
H 	H 	0.16480 0.92790 0.40980 0.05200
O 	O 	0.88967 0.37143 0.49645 -0.40400
O 	O 	0.96895 0.41069 0.54397 -0.40700
C 	C 	0.90747 0.36023 0.52671 0.35300
C 	C 	0.84817 0.28033 0.54386 -0.07200
C 	C 	0.86317 0.26533 0.57774 -0.04600
H 	H 	0.91147 0.30333 0.58893 0.06400
C 	C 	0.82137 0.23593 0.65906 0.01100
C 	C 	0.80767 0.30013 0.65003 -0.04700
C 	C 	0.80297 0.34993 0.67573 -0.03800
C 	C 	0.81197 0.33543 0.71033 -0.01700
C 	C 	0.82557 0.27123 0.71930 -0.05600
C 	C 	0.83027 0.22143 0.69363 0.01400
H 	H 	0.80117 0.31193 0.62623 0.05100
H 	H 	0.80397 0.36783 0.72833 0.03100
H 	H 	0.83147 0.26123 0.74313 0.05200
O 	O 	0.55633 0.70477 0.82979 -0.40400
O 	O 	0.63561 0.74403 0.87731 -0.40700
C 	C 	0.57413 0.69357 0.86005 0.35300
C 	C 	0.51483 0.61367 0.87720 -0.07200
C 	C 	0.52983 0.59867 0.91108 -0.04600
H 	H 	0.57813 0.63667 0.92227 0.06400
C 	C 	0.48803 0.56927 0.99240 0.01100
C 	C 	0.47433 0.63347 0.98337 -0.04700
C 	C 	0.46963 0.68327 0.00907 -0.03800
C 	C 	0.47863 0.66877 0.04367 -0.01700
C 	C 	0.49223 0.60457 0.05264 -0.05600
C 	C 	0.49693 0.55477 0.02697 0.01400
H 	H 	0.46783 0.64527 0.95957 0.05100
H 	H 	0.47063 0.70117 0.06167 0.03100
H 	H 	0.49813 0.59457 0.07647 0.05200
O 	O 	0.18490 0.96190 0.83688 -0.40400
O 	O 	0.22492 0.92264 0.78936 -0.40700
C 	C 	0.21390 0.97310 0.80662 0.35200
C 	C 	0.23450 0.05300 0.78947 -0.07200
C 	C 	0.26450 0.06800 0.75559 -0.04600
H 	H 	0.27480 0.03000 0.74440 0.06400
C 	C 	0.25210 0.09740 0.67427 0.01100
C 	C 	0.17420 0.03320 0.68330 -0.04700
C 	C 	0.11970 0.98340 0.65760 -0.03800
C 	C 	0.14320 0.99790 0.62300 -0.01700
C 	C 	0.22100 0.06210 0.61403 -0.05600
C 	C 	0.27550 0.11190 0.63970 0.01400
H 	H 	0.15590 0.02140 0.70710 0.05100
H 	H 	0.10280 0.96550 0.60500 0.03100
H 	H 	0.23690 0.07210 0.59020 0.05200
O 	O 	0.85157 0.29523 0.17021 -0.40400
O 	O 	0.89159 0.25597 0.12269 -0.40700
C 	C 	0.88057 0.30643 0.13995 0.35300
C 	C 	0.90117 0.38633 0.12280 -0.07200
C 	C 	0.93117 0.40133 0.08892 -0.04600
H 	H 	0.94147 0.36333 0.07773 0.06400
C 	C 	0.91877 0.43073 0.00760 0.01100
C 	C 	0.84087 0.36653 0.01663 -0.04700
C 	C 	0.78637 0.31673 0.99093 -0.03800
C 	C 	0.80987 0.33123 0.95633 -0.01700
C 	C 	0.88767 0.39543 0.94736 -0.05600
C 	C 	0.94217 0.44523 0.97303 0.01400
H 	H 	0.82257 0.35473 0.04043 0.05100
H 	H 	0.76947 0.29883 0.93833 0.03100
H 	H 	0.90357 0.40543 0.92353 0.05200
O 	O 	0.51823 0.62857 0.50355 -0.40400
O 	O 	0.55825 0.58931 0.45603 -0.40700
C 	C 	0.54723 0.63977 0.47329 0.35300
C 	C 	0.56783 0.71967 0.45614 -0.07200
C 	C 	0.59783 0.73467 0.42226 -0.04600
H 	H 	0.60813 0.69667 0.41107 0.06400
C 	C 	0.58543 0.76407 0.34094 0.01100
C 	C 	0.50753 0.69987 0.34997 -0.04700
C 	C 	0.45303 0.65007 0.32427 -0.03800
C 	C 	0.47653 0.66457 0.28967 -0.01700
C 	C 	0.55433 0.72877 0.28070 -0.05600
C 	C 	0.60883 0.77857 0.30637 0.01400
H 	H 	0.48923 0.68807 0.37377 0.05100
H 	H 	0.43613 0.63217 0.27167 0.03100
H 	H 	0.57023 0.73877 0.25687 0.05200
O 	O 	0.77700 0.81510 0.83688 -0.40400
O 	O 	0.69772 0.77508 0.78936 -0.40700
C 	C 	0.75920 0.78610 0.80662 0.35300
C 	C 	0.81850 0.76550 0.78947 -0.07200
C 	C 	0.80350 0.73550 0.75559 -0.04600
H 	H 	0.75520 0.72520 0.74440 0.06400
C 	C 	0.84530 0.74790 0.67427 0.01100
C 	C 	0.85900 0.82580 0.68330 -0.04700
C 	C 	0.86370 0.88030 0.65760 -0.03800
C 	C 	0.85470 0.85680 0.62300 -0.01700
C 	C 	0.84110 0.77900 0.61403 -0.05600
C 	C 	0.83640 0.72450 0.63970 0.01400
H 	H 	0.86550 0.84410 0.70710 0.05100
H 	H 	0.86270 0.89720 0.60500 0.03100
H 	H 	0.83520 0.76310 0.59020 0.05200
O 	O 	0.44367 0.14843 0.17021 -0.40400
O 	O 	0.36439 0.10841 0.12269 -0.40700
C 	C 	0.42587 0.11943 0.13995 0.35300
C 	C 	0.48517 0.09883 0.12280 -0.07200
C 	C 	0.47017 0.06883 0.08892 -0.04600
H 	H 	0.42187 0.05853 0.07773 0.06400
C 	C 	0.51197 0.08123 0.00760 0.01200
C 	C 	0.52567 0.15913 0.01663 -0.04700
C 	C 	0.53037 0.21363 0.99093 -0.03800
C 	C 	0.52137 0.19013 0.95633 -0.01700
C 	C 	0.50777 0.11233 0.94736 -0.05600
C 	C 	0.50307 0.05783 0.97303 0.01400
H 	H 	0.53217 0.17743 0.04043 0.05100
H 	H 	0.52937 0.23053 0.93833 0.03100
H 	H 	0.50187 0.09643 0.92353 0.05200
O 	O 	0.11033 0.48177 0.50355 -0.40400
O 	O 	0.03105 0.44175 0.45603 -0.40700
C 	C 	0.09253 0.45277 0.47329 0.35300
C 	C 	0.15183 0.43217 0.45614 -0.07200
C 	C 	0.13683 0.40217 0.42226 -0.04600
H 	H 	0.08853 0.39187 0.41107 0.06400
C 	C 	0.17863 0.41457 0.34094 0.01100
C 	C 	0.19233 0.49247 0.34997 -0.04700
C 	C 	0.19703 0.54697 0.32427 -0.03800
C 	C 	0.18803 0.52347 0.28967 -0.01700
C 	C 	0.17443 0.44567 0.28070 -0.05600
C 	C 	0.16973 0.39117 0.30637 0.01400
H 	H 	0.19883 0.51077 0.37377 0.05100
H 	H 	0.19603 0.56387 0.27167 0.03100
H 	H 	0.16853 0.42977 0.25687 0.05200
O 	O 	0.03810 0.22300 0.83688 -0.40400
O 	O 	0.07736 0.30228 0.78936 -0.40700
C 	C 	0.02690 0.24080 0.80662 0.35200
C 	C 	0.94700 0.18150 0.78947 -0.07200
C 	C 	0.93200 0.19650 0.75559 -0.04600
H 	H 	0.97000 0.24480 0.74440 0.06400
C 	C 	0.90260 0.15470 0.67427 0.01100
C 	C 	0.96680 0.14100 0.68330 -0.04700
C 	C 	0.01660 0.13630 0.65760 -0.03800
C 	C 	0.00210 0.14530 0.62300 -0.01700
C 	C 	0.93790 0.15890 0.61403 -0.05600
C 	C 	0.88810 0.16360 0.63970 0.01400
H 	H 	0.97860 0.13450 0.70710 0.05100
H 	H 	0.03450 0.13730 0.60500 0.03100
H 	H 	0.92790 0.16480 0.59020 0.05200
O 	O 	0.70477 0.55633 0.17021 -0.40400
O 	O 	0.74403 0.63561 0.12269 -0.40700
C 	C 	0.69357 0.57413 0.13995 0.35300
C 	C 	0.61367 0.51483 0.12280 -0.07200
C 	C 	0.59867 0.52983 0.08892 -0.04600
H 	H 	0.63667 0.57813 0.07773 0.06400
C 	C 	0.56927 0.48803 0.00760 0.01100
C 	C 	0.63347 0.47433 0.01663 -0.04700
C 	C 	0.68327 0.46963 0.99093 -0.03800
C 	C 	0.66877 0.47863 0.95633 -0.01700
C 	C 	0.60457 0.49223 0.94736 -0.05600
C 	C 	0.55477 0.49693 0.97303 0.01400
H 	H 	0.64527 0.46783 0.04043 0.05100
H 	H 	0.70117 0.47063 0.93833 0.03100
H 	H 	0.59457 0.49813 0.92353 0.05200
O 	O 	0.37143 0.88967 0.50355 -0.40400
O 	O 	0.41069 0.96895 0.45603 -0.40700
C 	C 	0.36023 0.90747 0.47329 0.35300
C 	C 	0.28033 0.84817 0.45614 -0.07200
C 	C 	0.26533 0.86317 0.42226 -0.04600
H 	H 	0.30333 0.91147 0.41107 0.06400
C 	C 	0.23593 0.82137 0.34094 0.01100
C 	C 	0.30013 0.80767 0.34997 -0.04700
C 	C 	0.34993 0.80297 0.32427 -0.03800
C 	C 	0.33543 0.81197 0.28967 -0.01700
C 	C 	0.27123 0.82557 0.28070 -0.05600
C 	C 	0.22143 0.83027 0.30637 0.01400
H 	H 	0.31193 0.80117 0.37377 0.05100
H 	H 	0.36783 0.80397 0.27167 0.03100
H 	H 	0.26123 0.83147 0.25687 0.05200
O 	O 	0.03810 0.81510 0.83688 -0.40400
O 	O 	0.07736 0.77508 0.78936 -0.40700
C 	C 	0.02690 0.78610 0.80662 0.35200
C 	C 	0.94700 0.76550 0.78947 -0.07200
C 	C 	0.93200 0.73550 0.75559 -0.04600
H 	H 	0.97000 0.72520 0.74440 0.06400
C 	C 	0.90260 0.74790 0.67427 0.01100
C 	C 	0.96680 0.82580 0.68330 -0.04700
C 	C 	0.01660 0.88030 0.65760 -0.03800
C 	C 	0.00210 0.85680 0.62300 -0.01700
C 	C 	0.93790 0.77900 0.61403 -0.05600
C 	C 	0.88810 0.72450 0.63970 0.01400
H 	H 	0.97860 0.84410 0.70710 0.05100
H 	H 	0.03450 0.89720 0.60500 0.03100
H 	H 	0.92790 0.76310 0.59020 0.05200
O 	O 	0.70477 0.14843 0.17021 -0.40400
O 	O 	0.74403 0.10841 0.12269 -0.40700
C 	C 	0.69357 0.11943 0.13995 0.35300
C 	C 	0.61367 0.09883 0.12280 -0.07200
C 	C 	0.59867 0.06883 0.08892 -0.04600
H 	H 	0.63667 0.05853 0.07773 0.06400
C 	C 	0.56927 0.08123 0.00760 0.01100
C 	C 	0.63347 0.15913 0.01663 -0.04700
C 	C 	0.68327 0.21363 0.99093 -0.03800
C 	C 	0.66877 0.19013 0.95633 -0.01700
C 	C 	0.60457 0.11233 0.94736 -0.05600
C 	C 	0.55477 0.05783 0.97303 0.01400
H 	H 	0.64527 0.17743 0.04043 0.05100
H 	H 	0.70117 0.23053 0.93833 0.03100
H 	H 	0.59457 0.09643 0.92353 0.05200
O 	O 	0.37143 0.48177 0.50355 -0.40400
O 	O 	0.41069 0.44175 0.45603 -0.40700
C 	C 	0.36023 0.45277 0.47329 0.35300
C 	C 	0.28033 0.43217 0.45614 -0.07200
C 	C 	0.26533 0.40217 0.42226 -0.04600
H 	H 	0.30333 0.39187 0.41107 0.06400
C 	C 	0.23593 0.41457 0.34094 0.01100
C 	C 	0.30013 0.49247 0.34997 -0.04700
C 	C 	0.34993 0.54697 0.32427 -0.03800
C 	C 	0.33543 0.52347 0.28967 -0.01700
C 	C 	0.27123 0.44567 0.28070 -0.05600
C 	C 	0.22143 0.39117 0.30637 0.01400
H 	H 	0.31193 0.51077 0.37377 0.05100
H 	H 	0.36783 0.56387 0.27167 0.03100
H 	H 	0.26123 0.42977 0.25687 0.05200
O 	O 	0.18490 0.22300 0.83688 -0.40400
O 	O 	0.22492 0.30228 0.78936 -0.40700
C 	C 	0.21390 0.24080 0.80662 0.35300
C 	C 	0.23450 0.18150 0.78947 -0.07200
C 	C 	0.26450 0.19650 0.75559 -0.04600
H 	H 	0.27480 0.24480 0.74440 0.06400
C 	C 	0.25210 0.15470 0.67427 0.01100
C 	C 	0.17420 0.14100 0.68330 -0.04700
C 	C 	0.11970 0.13630 0.65760 -0.03800
C 	C 	0.14320 0.14530 0.62300 -0.01700
C 	C 	0.22100 0.15890 0.61403 -0.05600
C 	C 	0.27550 0.16360 0.63970 0.01400
H 	H 	0.15590 0.13450 0.70710 0.05100
H 	H 	0.10280 0.13730 0.60500 0.03100
H 	H 	0.23690 0.16480 0.59020 0.05200
O 	O 	0.85157 0.55633 0.17021 -0.40400
O 	O 	0.89159 0.63561 0.12269 -0.40700
C 	C 	0.88057 0.57413 0.13995 0.35300
C 	C 	0.90117 0.51483 0.12280 -0.07200
C 	C 	0.93117 0.52983 0.08892 -0.04600
H 	H 	0.94147 0.57813 0.07773 0.06400
C 	C 	0.91877 0.48803 0.00760 0.01200
C 	C 	0.84087 0.47433 0.01663 -0.04700
C 	C 	0.78637 0.46963 0.99093 -0.03800
C 	C 	0.80987 0.47863 0.95633 -0.01700
C 	C 	0.88767 0.49223 0.94736 -0.05600
C 	C 	0.94217 0.49693 0.97303 0.01400
H 	H 	0.82257 0.46783 0.04043 0.05100
H 	H 	0.76947 0.47063 0.93833 0.03100
H 	H 	0.90357 0.49813 0.92353 0.05200
O 	O 	0.51823 0.88967 0.50355 -0.40400
O 	O 	0.55825 0.96895 0.45603 -0.40700
C 	C 	0.54723 0.90747 0.47329 0.35300
C 	C 	0.56783 0.84817 0.45614 -0.07200
C 	C 	0.59783 0.86317 0.42226 -0.04600
H 	H 	0.60813 0.91147 0.41107 0.06400
C 	C 	0.58543 0.82137 0.34094 0.01100
C 	C 	0.50753 0.80767 0.34997 -0.04700
C 	C 	0.45303 0.80297 0.32427 -0.03800
C 	C 	0.47653 0.81197 0.28967 -0.01700
C 	C 	0.55433 0.82557 0.28070 -0.05600
C 	C 	0.60883 0.83027 0.30637 0.01400
H 	H 	0.48923 0.80117 0.37377 0.05100
H 	H 	0.43613 0.80397 0.27167 0.03100
H 	H 	0.57023 0.83147 0.25687 0.05200
O 	O 	0.77700 0.96190 0.83688 -0.40400
O 	O 	0.69772 0.92264 0.78936 -0.40700
C 	C 	0.75920 0.97310 0.80662 0.35200
C 	C 	0.81850 0.05300 0.78947 -0.07200
C 	C 	0.80350 0.06800 0.75559 -0.04600
H 	H 	0.75520 0.03000 0.74440 0.06400
C 	C 	0.84530 0.09740 0.67427 0.01100
C 	C 	0.85900 0.03320 0.68330 -0.04700
C 	C 	0.86370 0.98340 0.65760 -0.03800
C 	C 	0.85470 0.99790 0.62300 -0.01700
C 	C 	0.84110 0.06210 0.61403 -0.05600
C 	C 	0.83640 0.11190 0.63970 0.01400
H 	H 	0.86550 0.02140 0.70710 0.05100
H 	H 	0.86270 0.96550 0.60500 0.03100
H 	H 	0.83520 0.07210 0.59020 0.05200
O 	O 	0.44367 0.29523 0.17021 -0.40400
O 	O 	0.36439 0.25597 0.12269 -0.40700
C 	C 	0.42587 0.30643 0.13995 0.35300
C 	C 	0.48517 0.38633 0.12280 -0.07200
C 	C 	0.47017 0.40133 0.08892 -0.04600
H 	H 	0.42187 0.36333 0.07773 0.06400
C 	C 	0.51197 0.43073 0.00760 0.01100
C 	C 	0.52567 0.36653 0.01663 -0.04700
C 	C 	0.53037 0.31673 0.99093 -0.03800
C 	C 	0.52137 0.33123 0.95633 -0.01700
C 	C 	0.50777 0.39543 0.94736 -0.05600
C 	C 	0.50307 0.44523 0.97303 0.01400
H 	H 	0.53217 0.35473 0.04043 0.05100
H 	H 	0.52937 0.29883 0.93833 0.03100
H 	H 	0.50187 0.40543 0.92353 0.05200
O 	O 	0.11033 0.62857 0.50355 -0.40400
O 	O 	0.03105 0.58931 0.45603 -0.40700
C 	C 	0.09253 0.63977 0.47329 0.35300
C 	C 	0.15183 0.71967 0.45614 -0.07200
C 	C 	0.13683 0.73467 0.42226 -0.04600
H 	H 	0.08853 0.69667 0.41107 0.06400
C 	C 	0.17863 0.76407 0.34094 0.01100
C 	C 	0.19233 0.69987 0.34997 -0.04700
C 	C 	0.19703 0.65007 0.32427 -0.03800
C 	C 	0.18803 0.66457 0.28967 -0.01700
C 	C 	0.17443 0.72877 0.28070 -0.05600
C 	C 	0.16973 0.77857 0.30637 0.01400
H 	H 	0.19883 0.68807 0.37377 0.05100
H 	H 	0.19603 0.63217 0.27167 0.03100
H 	H 	0.16853 0.73877 0.25687 0.05200
O 	O 	0.81510 0.03810 0.16312 -0.40400
O 	O 	0.77508 0.07736 0.21064 -0.40700
C 	C 	0.78610 0.02690 0.19338 0.35200
C 	C 	0.76550 0.94700 0.21053 -0.07200
C 	C 	0.73550 0.93200 0.24441 -0.04600
H 	H 	0.72520 0.97000 0.25560 0.06400
C 	C 	0.74790 0.90260 0.32573 0.01100
C 	C 	0.82580 0.96680 0.31670 -0.04700
C 	C 	0.88030 0.01660 0.34240 -0.03800
C 	C 	0.85680 0.00210 0.37700 -0.01700
C 	C 	0.77900 0.93790 0.38597 -0.05600
C 	C 	0.72450 0.88810 0.36030 0.01400
H 	H 	0.84410 0.97860 0.29290 0.05100
H 	H 	0.89720 0.03450 0.39500 0.03100
H 	H 	0.76310 0.92790 0.40980 0.05200
O 	O 	0.48177 0.37143 0.49645 -0.40400
O 	O 	0.44175 0.41069 0.54397 -0.40700
C 	C 	0.45277 0.36023 0.52671 0.35300
C 	C 	0.43217 0.28033 0.54386 -0.07200
C 	C 	0.40217 0.26533 0.57774 -0.04600
H 	H 	0.39187 0.30333 0.58893 0.06400
C 	C 	0.41457 0.23593 0.65906 0.01100
C 	C 	0.49247 0.30013 0.65003 -0.04700
C 	C 	0.54697 0.34993 0.67573 -0.03800
C 	C 	0.52347 0.33543 0.71033 -0.01700
C 	C 	0.44567 0.27123 0.71930 -0.05600
C 	C 	0.39117 0.22143 0.69363 0.01400
H 	H 	0.51077 0.31193 0.62623 0.05100
H 	H 	0.56387 0.36783 0.72833 0.03100
H 	H 	0.42977 0.26123 0.74313 0.05200
O 	O 	0.14843 0.70477 0.82979 -0.40400
O 	O 	0.10841 0.74403 0.87731 -0.40700
C 	C 	0.11943 0.69357 0.86005 0.35300
C 	C 	0.09883 0.61367 0.87720 -0.07200
C 	C 	0.06883 0.59867 0.91108 -0.04600
H 	H 	0.05853 0.63667 0.92227 0.06400
C 	C 	0.08123 0.56927 0.99240 0.01100
C 	C 	0.15913 0.63347 0.98337 -0.04700
C 	C 	0.21363 0.68327 0.00907 -0.03800
C 	C 	0.19013 0.66877 0.04367 -0.01700
C 	C 	0.11233 0.60457 0.05264 -0.05600
C 	C 	0.05783 0.55477 0.02697 0.01400
H 	H 	0.17743 0.64527 0.95957 0.05100
H 	H 	0.23053 0.70117 0.06167 0.03100
H 	H 	0.09643 0.59457 0.07647 0.05200
O 	O 	0.22300 0.18490 0.16312 -0.40400
O 	O 	0.30228 0.22492 0.21064 -0.40700
C 	C 	0.24080 0.21390 0.19338 0.35300
C 	C 	0.18150 0.23450 0.21053 -0.07200
C 	C 	0.19650 0.26450 0.24441 -0.04600
H 	H 	0.24480 0.27480 0.25560 0.06400
C 	C 	0.15470 0.25210 0.32573 0.01100
C 	C 	0.14100 0.17420 0.31670 -0.04700
C 	C 	0.13630 0.11970 0.34240 -0.03800
C 	C 	0.14530 0.14320 0.37700 -0.01700
C 	C 	0.15890 0.22100 0.38597 -0.05600
C 	C 	0.16360 0.27550 0.36030 0.01400
H 	H 	0.13450 0.15590 0.29290 0.05100
H 	H 	0.13730 0.10280 0.39500 0.03100
H 	H 	0.16480 0.23690 0.40980 0.05200
O 	O 	0.88967 0.51823 0.49645 -0.40400
O 	O 	0.96895 0.55825 0.54397 -0.40700
C 	C 	0.90747 0.54723 0.52671 0.35300
C 	C 	0.84817 0.56783 0.54386 -0.07200
C 	C 	0.86317 0.59783 0.57774 -0.04600
H 	H 	0.91147 0.60813 0.58893 0.06400
C 	C 	0.82137 0.58543 0.65906 0.01100
C 	C 	0.80767 0.50753 0.65003 -0.04700
C 	C 	0.80297 0.45303 0.67573 -0.03800
C 	C 	0.81197 0.47653 0.71033 -0.01700
C 	C 	0.82557 0.55433 0.71930 -0.05600
C 	C 	0.83027 0.60883 0.69363 0.01400
H 	H 	0.80117 0.48923 0.62623 0.05100
H 	H 	0.80397 0.43613 0.72833 0.03100
H 	H 	0.83147 0.57023 0.74313 0.05200
O 	O 	0.55633 0.85157 0.82979 -0.40400
O 	O 	0.63561 0.89159 0.87731 -0.40700
C 	C 	0.57413 0.88057 0.86005 0.35300
C 	C 	0.51483 0.90117 0.87720 -0.07200
C 	C 	0.52983 0.93117 0.91108 -0.04600
H 	H 	0.57813 0.94147 0.92227 0.06400
C 	C 	0.48803 0.91877 0.99240 0.01200
C 	C 	0.47433 0.84087 0.98337 -0.04700
C 	C 	0.46963 0.78637 0.00907 -0.03800
C 	C 	0.47863 0.80987 0.04367 -0.01700
C 	C 	0.49223 0.88767 0.05264 -0.05600
C 	C 	0.49693 0.94217 0.02697 0.01400
H 	H 	0.46783 0.82257 0.95957 0.05100
H 	H 	0.47063 0.76947 0.06167 0.03100
H 	H 	0.49813 0.90357 0.07647 0.05200
O 	O 	0.96190 0.77700 0.16312 -0.40400
O 	O 	0.92264 0.69772 0.21064 -0.40700
C 	C 	0.97310 0.75920 0.19338 0.35200
C 	C 	0.05300 0.81850 0.21053 -0.07200
C 	C 	0.06800 0.80350 0.24441 -0.04600
H 	H 	0.03000 0.75520 0.25560 0.06400
C 	C 	0.09740 0.84530 0.32573 0.01100
C 	C 	0.03320 0.85900 0.31670 -0.04700
C 	C 	0.98340 0.86370 0.34240 -0.03800
C 	C 	0.99790 0.85470 0.37700 -0.01700
C 	C 	0.06210 0.84110 0.38597 -0.05600
C 	C 	0.11190 0.83640 0.36030 0.01400
H 	H 	0.02140 0.86550 0.29290 0.05100
H 	H 	0.96550 0.86270 0.39500 0.03100
H 	H 	0.07210 0.83520 0.40980 0.05200
O 	O 	0.62857 0.11033 0.49645 -0.40400
O 	O 	0.58931 0.03105 0.54397 -0.40700
C 	C 	0.63977 0.09253 0.52671 0.35300
C 	C 	0.71967 0.15183 0.54386 -0.07200
C 	C 	0.73467 0.13683 0.57774 -0.04600
H 	H 	0.69667 0.08853 0.58893 0.06400
C 	C 	0.76407 0.17863 0.65906 0.01100
C 	C 	0.69987 0.19233 0.65003 -0.04700
C 	C 	0.65007 0.19703 0.67573 -0.03800
C 	C 	0.66457 0.18803 0.71033 -0.01700
C 	C 	0.72877 0.17443 0.71930 -0.05600
C 	C 	0.77857 0.16973 0.69363 0.01400
H 	H 	0.68807 0.19883 0.62623 0.05100
H 	H 	0.63217 0.19603 0.72833 0.03100
H 	H 	0.73877 0.16853 0.74313 0.05200
O 	O 	0.29523 0.44367 0.82979 -0.40400
O 	O 	0.25597 0.36439 0.87731 -0.40700
C 	C 	0.30643 0.42587 0.86005 0.35300
C 	C 	0.38633 0.48517 0.87720 -0.07200
C 	C 	0.40133 0.47017 0.91108 -0.04600
H 	H 	0.36333 0.42187 0.92227 0.06400
C 	C 	0.43073 0.51197 0.99240 0.01100
C 	C 	0.36653 0.52567 0.98337 -0.04700
C 	C 	0.31673 0.53037 0.00907 -0.03800
C 	C 	0.33123 0.52137 0.04367 -0.01700
C 	C 	0.39543 0.50777 0.05264 -0.05600
C 	C 	0.44523 0.50307 0.02697 0.01400
H 	H 	0.35473 0.53217 0.95957 0.05100
H 	H 	0.29883 0.52937 0.06167 0.03100
H 	H 	0.40543 0.50187 0.07647 0.05200
Cu	Cu	0.85678 0.14322 0.13842 0.90400
H 	H 	0.94010 0.05990 0.33660 0.06300
Cu	Cu	0.52345 0.47655 0.47176 0.90400
H 	H 	0.60677 0.39323 0.66993 0.06300
Cu	Cu	0.19011 0.80989 0.80509 0.90400
H 	H 	0.27343 0.72657 0.00327 0.06300
Cu	Cu	0.85678 0.71356 0.13842 0.90400
H 	H 	0.94010 0.88020 0.33660 0.06300
Cu	Cu	0.52345 0.04690 0.47176 0.90400
H 	H 	0.60677 0.21353 0.66993 0.06300
Cu	Cu	0.19011 0.38023 0.80509 0.90400
H 	H 	0.27343 0.54687 0.00327 0.06300
Cu	Cu	0.28644 0.14322 0.13842 0.90400
H 	H 	0.11980 0.05990 0.33660 0.06300
Cu	Cu	0.95310 0.47655 0.47176 0.90400
H 	H 	0.78647 0.39323 0.66993 0.06300
Cu	Cu	0.61977 0.80989 0.80509 0.90400
H 	H 	0.45313 0.72657 0.00327 0.06300
Cu	Cu	0.14322 0.85678 0.86158 0.90400
H 	H 	0.05990 0.94010 0.66340 0.06300
Cu	Cu	0.80989 0.19011 0.19491 0.90400
H 	H 	0.72657 0.27343 0.99673 0.06300
Cu	Cu	0.47655 0.52345 0.52824 0.90400
H 	H 	0.39323 0.60677 0.33007 0.06300
Cu	Cu	0.71356 0.85678 0.86158 0.90400
H 	H 	0.88020 0.94010 0.66340 0.06300
Cu	Cu	0.38023 0.19011 0.19491 0.90400
H 	H 	0.54687 0.27343 0.99673 0.06300
Cu	Cu	0.04690 0.52345 0.52824 0.90400
H 	H 	0.21353 0.60677 0.33007 0.06300
Cu	Cu	0.14322 0.28644 0.86158 0.90400
H 	H 	0.05990 0.11980 0.66340 0.06300
Cu	Cu	0.80989 0.61977 0.19491 0.90400
H 	H 	0.72657 0.45313 0.99673 0.06300
Cu	Cu	0.47655 0.95310 0.52824 0.90400
H 	H 	0.39323 0.78647 0.33007 0.06300
C 	C 	0.10995 0.21990 0.19394 0.01200
H 	H 	0.10005 0.20010 0.17130 0.05600
C 	C 	0.13950 0.27900 0.26151 0.02300
C 	C 	0.15355 0.30710 0.29884 -0.03400
C 	C 	0.77662 0.55323 0.52727 0.01300
H 	H 	0.76672 0.53343 0.50463 0.05600
C 	C 	0.80617 0.61233 0.59484 0.02300
C 	C 	0.82022 0.64043 0.63217 -0.03400
C 	C 	0.44328 0.88657 0.86061 0.01300
H 	H 	0.43338 0.86677 0.83797 0.05600
C 	C 	0.47283 0.94567 0.92818 0.02300
C 	C 	0.48688 0.97377 0.96551 -0.03400
C 	C 	0.78010 0.89005 0.19394 0.01200
H 	H 	0.79990 0.89995 0.17130 0.05600
C 	C 	0.72100 0.86050 0.26151 0.02300
C 	C 	0.69290 0.84645 0.29884 -0.03400
C 	C 	0.44677 0.22338 0.52727 0.01300
H 	H 	0.46657 0.23328 0.50463 0.05600
C 	C 	0.38767 0.19383 0.59484 0.02300
C 	C 	0.35957 0.17978 0.63217 -0.03400
C 	C 	0.11343 0.55672 0.86061 0.01300
H 	H 	0.13323 0.56662 0.83797 0.05600
C 	C 	0.05433 0.52717 0.92818 0.02300
C 	C 	0.02623 0.51312 0.96551 -0.03400
C 	C 	0.10995 0.89005 0.19394 0.01200
H 	H 	0.10005 0.89995 0.17130 0.05600
C 	C 	0.13950 0.86050 0.26151 0.02300
C 	C 	0.15355 0.84645 0.29884 -0.03400
C 	C 	0.77662 0.22338 0.52727 0.01300
H 	H 	0.76672 0.23328 0.50463 0.05600
C 	C 	0.80617 0.19383 0.59484 0.02300
C 	C 	0.82022 0.17978 0.63217 -0.03400
C 	C 	0.44328 0.55672 0.86061 0.01300
H 	H 	0.43338 0.56662 0.83797 0.05600
C 	C 	0.47283 0.52717 0.92818 0.02300
C 	C 	0.48688 0.51312 0.96551 -0.03400
C 	C 	0.21990 0.10995 0.80606 0.01200
H 	H 	0.20010 0.10005 0.82870 0.05600
C 	C 	0.27900 0.13950 0.73849 0.02300
C 	C 	0.30710 0.15355 0.70116 -0.03400
C 	C 	0.88657 0.44328 0.13939 0.01300
H 	H 	0.86677 0.43338 0.16203 0.05600
C 	C 	0.94567 0.47283 0.07182 0.02300
C 	C 	0.97377 0.48688 0.03449 -0.03400
C 	C 	0.55323 0.77662 0.47273 0.01300
H 	H 	0.53343 0.76672 0.49537 0.05600
C 	C 	0.61233 0.80617 0.40516 0.02300
C 	C 	0.64043 0.82022 0.36783 -0.03400
C 	C 	0.89005 0.78010 0.80606 0.01200
H 	H 	0.89995 0.79990 0.82870 0.05600
C 	C 	0.86050 0.72100 0.73849 0.02300
C 	C 	0.84645 0.69290 0.70116 -0.03400
C 	C 	0.55672 0.11343 0.13939 0.01300
H 	H 	0.56662 0.13323 0.16203 0.05600
C 	C 	0.52717 0.05433 0.07182 0.02300
C 	C 	0.51312 0.02623 0.03449 -0.03400
C 	C 	0.22338 0.44677 0.47273 0.01300
H 	H 	0.23328 0.46657 0.49537 0.05600
C 	C 	0.19383 0.38767 0.40516 0.02300
C 	C 	0.17978 0.35957 0.36783 -0.03400
C 	C 	0.89005 0.10995 0.80606 0.01200
H 	H 	0.89995 0.10005 0.82870 0.05600
C 	C 	0.86050 0.13950 0.73849 0.02300
C 	C 	0.84645 0.15355 0.70116 -0.03400
C 	C 	0.55672 0.44328 0.13939 0.01300
H 	H 	0.56662 0.43338 0.16203 0.05600
C 	C 	0.52717 0.47283 0.07182 0.02300
C 	C 	0.51312 0.48688 0.03449 -0.03400
C 	C 	0.22338 0.77662 0.47273 0.01300
H 	H 	0.23328 0.76672 0.49537 0.05600
C 	C 	0.19383 0.80617 0.40516 0.02300
C 	C 	0.17978 0.82022 0.36783 -0.03400
