data_crystal

_cell_length_a 32.50900
_cell_length_b 32.50900
_cell_length_c 32.50900
_cell_angle_alpha 90.00000
_cell_angle_beta  90.00000
_cell_angle_gamma 90.00000

_symmetry_space_group_name_	'P 1'
_symmetry_space_group_name_H-M	'P 1'

loop_
_symmetry_equiv_pos_as_xyz
  x,y,z

loop_
_atom_site_label
_atom_site_type_symbol
_atom_site_fract_x
_atom_site_fract_y
_atom_site_fract_z
_atom_site_charge
C 	C 	-0.00000 0.77690 0.22310 -0.04200
C 	C 	-0.00000 0.81020 0.18980 0.09500
C 	C 	-0.00000 0.87290 0.12710 -0.18900
C 	C 	-0.00000 0.90250 0.09750 0.45700
C 	C 	-0.00000 0.22310 0.22310 -0.05200
C 	C 	-0.00000 0.18980 0.18980 0.09300
C 	C 	-0.00000 0.12710 0.12710 -0.20500
C 	C 	-0.00000 0.09750 0.09750 0.46100
C 	C 	0.00000 0.77690 0.77690 -0.03400
C 	C 	-0.00000 0.81020 0.81020 0.09400
C 	C 	0.00000 0.87290 0.87290 -0.17600
C 	C 	-0.00000 0.90250 0.90250 0.45000
C 	C 	-0.00000 0.22310 0.77690 -0.04300
C 	C 	-0.00000 0.18980 0.81020 0.09400
C 	C 	-0.00000 0.12710 0.87290 -0.19000
C 	C 	-0.00000 0.09750 0.90250 0.45600
C 	C 	0.22310 0.00000 0.77690 -0.04300
C 	C 	0.18980 -0.00000 0.81020 0.09400
C 	C 	0.12710 0.00000 0.87290 -0.19000
C 	C 	0.09750 -0.00000 0.90250 0.45600
C 	C 	0.22310 -0.00000 0.22310 -0.05300
C 	C 	0.18980 -0.00000 0.18980 0.09300
C 	C 	0.12710 -0.00000 0.12710 -0.20500
C 	C 	0.09750 -0.00000 0.09750 0.46100
C 	C 	0.77690 0.00000 0.77690 -0.03400
C 	C 	0.81020 -0.00000 0.81020 0.09400
C 	C 	0.87290 0.00000 0.87290 -0.17600
C 	C 	0.90250 -0.00000 0.90250 0.45000
C 	C 	0.77690 -0.00000 0.22310 -0.04300
C 	C 	0.81020 -0.00000 0.18980 0.09400
C 	C 	0.87290 -0.00000 0.12710 -0.19000
C 	C 	0.90250 -0.00000 0.09750 0.45600
C 	C 	0.77690 0.22310 -0.00000 -0.04300
C 	C 	0.81020 0.18980 -0.00000 0.09400
C 	C 	0.87290 0.12710 -0.00000 -0.19000
C 	C 	0.90250 0.09750 -0.00000 0.45600
C 	C 	0.22310 0.22310 -0.00000 -0.05300
C 	C 	0.18980 0.18980 -0.00000 0.09300
C 	C 	0.12710 0.12710 -0.00000 -0.20500
C 	C 	0.09750 0.09750 -0.00000 0.46100
C 	C 	0.77690 0.77690 -0.00000 -0.03400
C 	C 	0.81020 0.81020 -0.00000 0.09400
C 	C 	0.87290 0.87290 -0.00000 -0.17600
C 	C 	0.90250 0.90250 -0.00000 0.45000
C 	C 	0.22310 0.77690 -0.00000 -0.04300
C 	C 	0.18980 0.81020 -0.00000 0.09400
C 	C 	0.12710 0.87290 -0.00000 -0.19000
C 	C 	0.09750 0.90250 -0.00000 0.45600
Zr	Zr	-0.00000 -0.00000 0.07572 3.20500
Zr	Zr	-0.00000 -0.00000 0.92428 3.20400
Zr	Zr	0.07572 0.00000 -0.00000 3.20500
Zr	Zr	0.92428 0.00000 -0.00000 3.20400
Zr	Zr	-0.00000 0.07572 -0.00000 3.20500
Zr	Zr	-0.00000 0.92428 -0.00000 3.20400
O 	O 	0.03700 0.03700 0.03700 -1.30400
O 	O 	0.96300 0.96300 0.03700 -1.21000
O 	O 	0.96300 0.03700 0.96300 -1.21000
O 	O 	0.03700 0.96300 0.96300 -1.21000
O 	O 	0.03700 0.03700 0.96300 -1.25700
O 	O 	0.96300 0.96300 0.96300 -1.16400
O 	O 	0.03700 0.96300 0.03700 -1.25700
O 	O 	0.96300 0.03700 0.03700 -1.25700
O 	O 	-0.00000 0.94130 0.11060 -0.59100
C 	C 	-0.00000 0.85410 0.19720 -0.16000
H 	H 	-0.00000 0.86210 0.22470 0.09400
C 	C 	-0.00000 0.88370 0.17020 0.11400
H 	H 	-0.00000 0.91110 0.17850 0.01900
O 	O 	-0.00000 0.05870 0.11060 -0.62800
C 	C 	-0.00000 0.14590 0.19720 -0.17100
H 	H 	-0.00000 0.13790 0.22470 0.08300
C 	C 	0.00000 0.11630 0.17020 0.11800
H 	H 	-0.00000 0.08890 0.17850 -0.00200
O 	O 	-0.00000 0.94130 0.88940 -0.58800
C 	C 	-0.00000 0.85410 0.80280 -0.15300
H 	H 	-0.00000 0.86210 0.77530 0.09300
C 	C 	-0.00000 0.88370 0.82980 0.11000
H 	H 	-0.00000 0.91110 0.82150 0.02300
O 	O 	-0.00000 0.05870 0.88940 -0.62400
C 	C 	-0.00000 0.14590 0.80280 -0.16400
H 	H 	-0.00000 0.13790 0.77530 0.08200
C 	C 	-0.00000 0.11630 0.82980 0.11300
H 	H 	-0.00000 0.08890 0.82150 0.00100
O 	O 	0.11060 -0.00000 0.94130 -0.59100
C 	C 	0.19720 -0.00000 0.85410 -0.16000
H 	H 	0.22470 -0.00000 0.86210 0.09400
C 	C 	0.17020 -0.00000 0.88370 0.11400
H 	H 	0.17850 0.00000 0.91110 0.01900
O 	O 	0.11060 -0.00000 0.05870 -0.62800
C 	C 	0.19720 -0.00000 0.14590 -0.17100
H 	H 	0.22470 -0.00000 0.13790 0.08300
C 	C 	0.17020 0.00000 0.11630 0.11800
H 	H 	0.17850 -0.00000 0.08890 -0.00200
O 	O 	0.88940 -0.00000 0.94130 -0.58800
C 	C 	0.80280 -0.00000 0.85410 -0.15300
H 	H 	0.77530 -0.00000 0.86210 0.09300
C 	C 	0.82980 -0.00000 0.88370 0.11000
H 	H 	0.82150 0.00000 0.91110 0.02300
O 	O 	0.88940 -0.00000 0.05870 -0.62400
C 	C 	0.80280 -0.00000 0.14590 -0.16400
H 	H 	0.77530 -0.00000 0.13790 0.08200
C 	C 	0.82980 0.00000 0.11630 0.11300
H 	H 	0.82150 -0.00000 0.08890 0.00100
O 	O 	0.94130 0.11060 -0.00000 -0.59100
C 	C 	0.85410 0.19720 -0.00000 -0.16000
H 	H 	0.86210 0.22470 -0.00000 0.09400
C 	C 	0.88370 0.17020 -0.00000 0.11400
H 	H 	0.91110 0.17850 -0.00000 0.01900
O 	O 	0.05870 0.11060 -0.00000 -0.62800
C 	C 	0.14590 0.19720 -0.00000 -0.17100
H 	H 	0.13790 0.22470 -0.00000 0.08300
C 	C 	0.11630 0.17020 -0.00000 0.11800
H 	H 	0.08890 0.17850 -0.00000 -0.00200
O 	O 	0.94130 0.88940 -0.00000 -0.58800
C 	C 	0.85410 0.80280 -0.00000 -0.15300
H 	H 	0.86210 0.77530 -0.00000 0.09300
C 	C 	0.88370 0.82980 -0.00000 0.11000
H 	H 	0.91110 0.82150 -0.00000 0.02300
O 	O 	0.05870 0.88940 -0.00000 -0.62400
C 	C 	0.14590 0.80280 -0.00000 -0.16400
H 	H 	0.13790 0.77530 -0.00000 0.08200
C 	C 	0.11630 0.82980 -0.00000 0.11300
H 	H 	0.08890 0.82150 -0.00000 0.00100
O 	O 	0.94130 -0.00000 0.88940 -0.58800
C 	C 	0.85410 -0.00000 0.80280 -0.15300
H 	H 	0.86210 -0.00000 0.77530 0.09300
C 	C 	0.88370 -0.00000 0.82980 0.11000
H 	H 	0.91110 -0.00000 0.82150 0.02300
O 	O 	0.05870 -0.00000 0.88940 -0.62400
C 	C 	0.14590 -0.00000 0.80280 -0.16400
H 	H 	0.13790 -0.00000 0.77530 0.08200
C 	C 	0.11630 -0.00000 0.82980 0.11300
H 	H 	0.08890 -0.00000 0.82150 0.00100
O 	O 	0.94130 -0.00000 0.11060 -0.59100
C 	C 	0.85410 0.00000 0.19720 -0.16000
H 	H 	0.86210 0.00000 0.22470 0.09400
C 	C 	0.88370 -0.00000 0.17020 0.11400
H 	H 	0.91110 -0.00000 0.17850 0.01900
O 	O 	0.05870 -0.00000 0.11060 -0.62800
C 	C 	0.14590 0.00000 0.19720 -0.17100
H 	H 	0.13790 0.00000 0.22470 0.08300
C 	C 	0.11630 -0.00000 0.17020 0.11800
H 	H 	0.08890 -0.00000 0.17850 -0.00200
O 	O 	-0.00000 0.11060 0.05870 -0.62800
C 	C 	-0.00000 0.19720 0.14590 -0.17100
H 	H 	-0.00000 0.22470 0.13790 0.08300
C 	C 	0.00000 0.17020 0.11630 0.11800
H 	H 	-0.00000 0.17850 0.08890 -0.00200
O 	O 	-0.00000 0.11060 0.94130 -0.59100
C 	C 	-0.00000 0.19720 0.85410 -0.16000
H 	H 	-0.00000 0.22470 0.86210 0.09400
C 	C 	-0.00000 0.17020 0.88370 0.11400
H 	H 	-0.00000 0.17850 0.91110 0.01900
O 	O 	-0.00000 0.88940 0.05870 -0.62400
C 	C 	-0.00000 0.80280 0.14590 -0.16400
H 	H 	-0.00000 0.77530 0.13790 0.08200
C 	C 	-0.00000 0.82980 0.11630 0.11300
H 	H 	-0.00000 0.82150 0.08890 0.00100
O 	O 	-0.00000 0.88940 0.94130 -0.58800
C 	C 	-0.00000 0.80280 0.85410 -0.15300
H 	H 	-0.00000 0.77530 0.86210 0.09300
C 	C 	-0.00000 0.82980 0.88370 0.11000
H 	H 	-0.00000 0.82150 0.91110 0.02300
O 	O 	0.11060 0.94130 -0.00000 -0.59100
C 	C 	0.19720 0.85410 -0.00000 -0.16000
H 	H 	0.22470 0.86210 -0.00000 0.09400
C 	C 	0.17020 0.88370 -0.00000 0.11400
H 	H 	0.17850 0.91110 -0.00000 0.01900
O 	O 	0.11060 0.05870 -0.00000 -0.62800
C 	C 	0.19720 0.14590 -0.00000 -0.17100
H 	H 	0.22470 0.13790 -0.00000 0.08300
C 	C 	0.17020 0.11630 -0.00000 0.11800
H 	H 	0.17850 0.08890 -0.00000 -0.00200
O 	O 	0.88940 0.94130 -0.00000 -0.58800
C 	C 	0.80280 0.85410 -0.00000 -0.15300
H 	H 	0.77530 0.86210 -0.00000 0.09300
C 	C 	0.82980 0.88370 -0.00000 0.11000
H 	H 	0.82150 0.91110 -0.00000 0.02300
O 	O 	0.88940 0.05870 -0.00000 -0.62400
C 	C 	0.80280 0.14590 -0.00000 -0.16400
H 	H 	0.77530 0.13790 -0.00000 0.08200
C 	C 	0.82980 0.11630 -0.00000 0.11300
H 	H 	0.82150 0.08890 -0.00000 0.00100
C 	C 	-0.00000 0.27690 0.72310 -0.04600
C 	C 	-0.00000 0.31020 0.68980 0.09400
C 	C 	-0.00000 0.37290 0.62710 -0.20100
C 	C 	-0.00000 0.40250 0.59750 0.45700
C 	C 	-0.00000 0.72310 0.72310 -0.03900
C 	C 	-0.00000 0.68980 0.68980 0.09700
C 	C 	-0.00000 0.62710 0.62710 -0.20100
C 	C 	-0.00000 0.59750 0.59750 0.45700
C 	C 	-0.00000 0.27690 0.27690 -0.05200
C 	C 	0.00000 0.31020 0.31020 0.09200
C 	C 	-0.00000 0.37290 0.37290 -0.20100
C 	C 	-0.00000 0.40250 0.40250 0.45700
C 	C 	-0.00000 0.72310 0.27690 -0.04600
C 	C 	-0.00000 0.68980 0.31020 0.09400
C 	C 	-0.00000 0.62710 0.37290 -0.20100
C 	C 	-0.00000 0.59750 0.40250 0.45700
C 	C 	0.22310 0.50000 0.27690 -0.03900
C 	C 	0.18980 0.50000 0.31020 0.09600
C 	C 	0.12710 0.50000 0.37290 -0.19200
C 	C 	0.09750 0.50000 0.40250 0.46000
C 	C 	0.22310 0.50000 0.72310 -0.03200
C 	C 	0.18980 0.50000 0.68980 0.09900
C 	C 	0.12710 0.50000 0.62710 -0.19200
C 	C 	0.09750 0.50000 0.59750 0.46000
C 	C 	0.77690 0.50000 0.27690 -0.02900
C 	C 	0.81020 0.50000 0.31020 0.09700
C 	C 	0.87290 0.50000 0.37290 -0.17800
C 	C 	0.90250 0.50000 0.40250 0.45500
C 	C 	0.77690 0.50000 0.72310 -0.02200
C 	C 	0.81020 0.50000 0.68980 0.09900
C 	C 	0.87290 0.50000 0.62710 -0.17700
C 	C 	0.90250 0.50000 0.59750 0.45500
C 	C 	0.77690 0.72310 0.50000 -0.02200
C 	C 	0.81020 0.68980 0.50000 0.09900
C 	C 	0.87290 0.62710 0.50000 -0.17700
C 	C 	0.90250 0.59750 0.50000 0.45500
C 	C 	0.22310 0.72310 0.50000 -0.03200
C 	C 	0.18980 0.68980 0.50000 0.09900
C 	C 	0.12710 0.62710 0.50000 -0.19200
C 	C 	0.09750 0.59750 0.50000 0.46000
C 	C 	0.77690 0.27690 0.50000 -0.02900
C 	C 	0.81020 0.31020 0.50000 0.09700
C 	C 	0.87290 0.37290 0.50000 -0.17800
C 	C 	0.90250 0.40250 0.50000 0.45500
C 	C 	0.22310 0.27690 0.50000 -0.03900
C 	C 	0.18980 0.31020 0.50000 0.09600
C 	C 	0.12710 0.37290 0.50000 -0.19200
C 	C 	0.09750 0.40250 0.50000 0.46000
Zr	Zr	0.00000 0.50000 0.57572 3.21100
Zr	Zr	-0.00000 0.50000 0.42428 3.21100
Zr	Zr	0.07572 0.50000 0.50000 3.21800
Zr	Zr	0.92428 0.50000 0.50000 3.21700
Zr	Zr	0.00000 0.57572 0.50000 3.21100
Zr	Zr	-0.00000 0.42428 0.50000 3.21100
O 	O 	0.03700 0.53700 0.53700 -1.27600
O 	O 	0.96300 0.46300 0.53700 -1.22900
O 	O 	0.96300 0.53700 0.46300 -1.22900
O 	O 	0.03700 0.46300 0.46300 -1.27600
O 	O 	0.03700 0.53700 0.46300 -1.27600
O 	O 	0.96300 0.46300 0.46300 -1.22900
O 	O 	0.03700 0.46300 0.53700 -1.27600
O 	O 	0.96300 0.53700 0.53700 -1.22900
O 	O 	-0.00000 0.44130 0.61060 -0.62400
C 	C 	-0.00000 0.35410 0.69720 -0.16800
H 	H 	0.00000 0.36210 0.72470 0.08900
C 	C 	-0.00000 0.38370 0.67020 0.11700
H 	H 	-0.00000 0.41110 0.67850 0.00300
O 	O 	-0.00000 0.55870 0.61060 -0.62400
C 	C 	-0.00000 0.64590 0.69720 -0.16800
H 	H 	0.00000 0.63790 0.72470 0.09000
C 	C 	-0.00000 0.61630 0.67020 0.11800
H 	H 	-0.00000 0.58890 0.67850 0.00400
O 	O 	-0.00000 0.44130 0.38940 -0.62500
C 	C 	0.00000 0.35410 0.30280 -0.16900
H 	H 	-0.00000 0.36210 0.27530 0.08300
C 	C 	-0.00000 0.38370 0.32980 0.11500
H 	H 	-0.00000 0.41110 0.32150 0.00100
O 	O 	-0.00000 0.55870 0.38940 -0.62400
C 	C 	-0.00000 0.64590 0.30280 -0.16800
H 	H 	-0.00000 0.63790 0.27530 0.08400
C 	C 	-0.00000 0.61630 0.32980 0.11600
H 	H 	-0.00000 0.58890 0.32150 0.00100
O 	O 	0.11060 0.50000 0.44130 -0.60200
C 	C 	0.19720 0.50000 0.35410 -0.16300
H 	H 	0.22470 0.50000 0.36210 0.09200
C 	C 	0.17020 0.50000 0.38370 0.11700
H 	H 	0.17850 0.50000 0.41110 0.01100
O 	O 	0.11060 0.50000 0.55870 -0.60200
C 	C 	0.19720 0.50000 0.64590 -0.16300
H 	H 	0.22470 0.50000 0.63790 0.09300
C 	C 	0.17020 0.50000 0.61630 0.11800
H 	H 	0.17850 0.50000 0.58890 0.01100
O 	O 	0.88940 0.50000 0.44130 -0.59800
C 	C 	0.80280 0.50000 0.35410 -0.15500
H 	H 	0.77530 0.50000 0.36210 0.09100
C 	C 	0.82980 0.50000 0.38370 0.11300
H 	H 	0.82150 0.50000 0.41110 0.01400
O 	O 	0.88940 0.50000 0.55870 -0.59800
C 	C 	0.80280 0.50000 0.64590 -0.15500
H 	H 	0.77530 0.50000 0.63790 0.09200
C 	C 	0.82980 0.50000 0.61630 0.11400
H 	H 	0.82150 0.50000 0.58890 0.01500
O 	O 	0.94130 0.61060 0.50000 -0.56900
C 	C 	0.85410 0.69720 0.50000 -0.15300
H 	H 	0.86210 0.72470 0.50000 0.10500
C 	C 	0.88370 0.67020 0.50000 0.11600
H 	H 	0.91110 0.67850 0.50000 0.03100
O 	O 	0.05870 0.61060 0.50000 -0.60600
C 	C 	0.14590 0.69720 0.50000 -0.16300
H 	H 	0.13790 0.72470 0.50000 0.09400
C 	C 	0.11630 0.67020 0.50000 0.11900
H 	H 	0.08890 0.67850 0.50000 0.00900
O 	O 	0.94130 0.38940 0.50000 -0.57000
C 	C 	0.85410 0.30280 0.50000 -0.15300
H 	H 	0.86210 0.27530 0.50000 0.09900
C 	C 	0.88370 0.32980 0.50000 0.11400
H 	H 	0.91110 0.32150 0.50000 0.02900
O 	O 	0.05870 0.38940 0.50000 -0.60700
C 	C 	0.14590 0.30280 0.50000 -0.16300
H 	H 	0.13790 0.27530 0.50000 0.08800
C 	C 	0.11630 0.32980 0.50000 0.11700
H 	H 	0.08890 0.32150 0.50000 0.00700
O 	O 	0.94130 0.50000 0.38940 -0.57000
C 	C 	0.85410 0.50000 0.30280 -0.15300
H 	H 	0.86210 0.50000 0.27530 0.09900
C 	C 	0.88370 0.50000 0.32980 0.11400
H 	H 	0.91110 0.50000 0.32150 0.02900
O 	O 	0.05870 0.50000 0.38940 -0.60700
C 	C 	0.14590 0.50000 0.30280 -0.16300
H 	H 	0.13790 0.50000 0.27530 0.08800
C 	C 	0.11630 0.50000 0.32980 0.11700
H 	H 	0.08890 0.50000 0.32150 0.00700
O 	O 	0.94130 0.50000 0.61060 -0.56900
C 	C 	0.85410 0.50000 0.69720 -0.15300
H 	H 	0.86210 0.50000 0.72470 0.10500
C 	C 	0.88370 0.50000 0.67020 0.11600
H 	H 	0.91110 0.50000 0.67850 0.03100
O 	O 	0.05870 0.50000 0.61060 -0.60600
C 	C 	0.14590 0.50000 0.69720 -0.16300
H 	H 	0.13790 0.50000 0.72470 0.09400
C 	C 	0.11630 0.50000 0.67020 0.11900
H 	H 	0.08890 0.50000 0.67850 0.00900
O 	O 	-0.00000 0.61060 0.55870 -0.62400
C 	C 	-0.00000 0.69720 0.64590 -0.16800
H 	H 	0.00000 0.72470 0.63790 0.09000
C 	C 	-0.00000 0.67020 0.61630 0.11800
H 	H 	-0.00000 0.67850 0.58890 0.00400
O 	O 	-0.00000 0.61060 0.44130 -0.62400
C 	C 	-0.00000 0.69720 0.35410 -0.16800
H 	H 	0.00000 0.72470 0.36210 0.08900
C 	C 	-0.00000 0.67020 0.38370 0.11700
H 	H 	-0.00000 0.67850 0.41110 0.00300
O 	O 	-0.00000 0.38940 0.55870 -0.62400
C 	C 	-0.00000 0.30280 0.64590 -0.16800
H 	H 	-0.00000 0.27530 0.63790 0.08400
C 	C 	-0.00000 0.32980 0.61630 0.11600
H 	H 	-0.00000 0.32150 0.58890 0.00100
O 	O 	-0.00000 0.38940 0.44130 -0.62500
C 	C 	0.00000 0.30280 0.35410 -0.16900
H 	H 	-0.00000 0.27530 0.36210 0.08300
C 	C 	-0.00000 0.32980 0.38370 0.11500
H 	H 	-0.00000 0.32150 0.41110 0.00100
O 	O 	0.11060 0.44130 0.50000 -0.60200
C 	C 	0.19720 0.35410 0.50000 -0.16300
H 	H 	0.22470 0.36210 0.50000 0.09200
C 	C 	0.17020 0.38370 0.50000 0.11700
H 	H 	0.17850 0.41110 0.50000 0.01100
O 	O 	0.11060 0.55870 0.50000 -0.60200
C 	C 	0.19720 0.64590 0.50000 -0.16300
H 	H 	0.22470 0.63790 0.50000 0.09300
C 	C 	0.17020 0.61630 0.50000 0.11800
H 	H 	0.17850 0.58890 0.50000 0.01100
O 	O 	0.88940 0.44130 0.50000 -0.59800
C 	C 	0.80280 0.35410 0.50000 -0.15500
H 	H 	0.77530 0.36210 0.50000 0.09100
C 	C 	0.82980 0.38370 0.50000 0.11300
H 	H 	0.82150 0.41110 0.50000 0.01400
O 	O 	0.88940 0.55870 0.50000 -0.59800
C 	C 	0.80280 0.64590 0.50000 -0.15500
H 	H 	0.77530 0.63790 0.50000 0.09200
C 	C 	0.82980 0.61630 0.50000 0.11400
H 	H 	0.82150 0.58890 0.50000 0.01500
C 	C 	0.50000 0.77690 0.72310 -0.02200
C 	C 	0.50000 0.81020 0.68980 0.09900
C 	C 	0.50000 0.87290 0.62710 -0.17700
C 	C 	0.50000 0.90250 0.59750 0.45500
C 	C 	0.50000 0.22310 0.72310 -0.03200
C 	C 	0.50000 0.18980 0.68980 0.09900
C 	C 	0.50000 0.12710 0.62710 -0.19200
C 	C 	0.50000 0.09750 0.59750 0.46000
C 	C 	0.50000 0.77690 0.27690 -0.02900
C 	C 	0.50000 0.81020 0.31020 0.09700
C 	C 	0.50000 0.87290 0.37290 -0.17800
C 	C 	0.50000 0.90250 0.40250 0.45500
C 	C 	0.50000 0.22310 0.27690 -0.03900
C 	C 	0.50000 0.18980 0.31020 0.09600
C 	C 	0.50000 0.12710 0.37290 -0.19200
C 	C 	0.50000 0.09750 0.40250 0.46000
C 	C 	0.72310 -0.00000 0.27690 -0.04600
C 	C 	0.68980 0.00000 0.31020 0.09400
C 	C 	0.62710 -0.00000 0.37290 -0.20100
C 	C 	0.59750 -0.00000 0.40250 0.45700
C 	C 	0.72310 -0.00000 0.72310 -0.03900
C 	C 	0.68980 -0.00000 0.68980 0.09700
C 	C 	0.62710 -0.00000 0.62710 -0.20100
C 	C 	0.59750 -0.00000 0.59750 0.45700
C 	C 	0.27690 -0.00000 0.27690 -0.05200
C 	C 	0.31020 0.00000 0.31020 0.09200
C 	C 	0.37290 -0.00000 0.37290 -0.20100
C 	C 	0.40250 -0.00000 0.40250 0.45700
C 	C 	0.27690 -0.00000 0.72310 -0.04600
C 	C 	0.31020 -0.00000 0.68980 0.09400
C 	C 	0.37290 -0.00000 0.62710 -0.20100
C 	C 	0.40250 -0.00000 0.59750 0.45700
C 	C 	0.27690 0.22310 0.50000 -0.03900
C 	C 	0.31020 0.18980 0.50000 0.09600
C 	C 	0.37290 0.12710 0.50000 -0.19200
C 	C 	0.40250 0.09750 0.50000 0.46000
C 	C 	0.72310 0.22310 0.50000 -0.03200
C 	C 	0.68980 0.18980 0.50000 0.09900
C 	C 	0.62710 0.12710 0.50000 -0.19200
C 	C 	0.59750 0.09750 0.50000 0.46000
C 	C 	0.27690 0.77690 0.50000 -0.02900
C 	C 	0.31020 0.81020 0.50000 0.09700
C 	C 	0.37290 0.87290 0.50000 -0.17800
C 	C 	0.40250 0.90250 0.50000 0.45500
C 	C 	0.72310 0.77690 0.50000 -0.02200
C 	C 	0.68980 0.81020 0.50000 0.09900
C 	C 	0.62710 0.87290 0.50000 -0.17700
C 	C 	0.59750 0.90250 0.50000 0.45500
Zr	Zr	0.50000 0.00000 0.57572 3.21100
Zr	Zr	0.50000 -0.00000 0.42428 3.21100
Zr	Zr	0.57572 -0.00000 0.50000 3.21100
Zr	Zr	0.42428 -0.00000 0.50000 3.21100
Zr	Zr	0.50000 0.07572 0.50000 3.21800
Zr	Zr	0.50000 0.92428 0.50000 3.21700
O 	O 	0.53700 0.03700 0.53700 -1.27600
O 	O 	0.46300 0.96300 0.53700 -1.22900
O 	O 	0.46300 0.03700 0.46300 -1.27600
O 	O 	0.53700 0.96300 0.46300 -1.22900
O 	O 	0.53700 0.03700 0.46300 -1.27600
O 	O 	0.46300 0.96300 0.46300 -1.22900
O 	O 	0.53700 0.96300 0.53700 -1.22900
O 	O 	0.46300 0.03700 0.53700 -1.27600
O 	O 	0.50000 0.94130 0.61060 -0.56900
C 	C 	0.50000 0.85410 0.69720 -0.15300
H 	H 	0.50000 0.86210 0.72470 0.10500
C 	C 	0.50000 0.88370 0.67020 0.11600
H 	H 	0.50000 0.91110 0.67850 0.03100
O 	O 	0.50000 0.05870 0.61060 -0.60600
C 	C 	0.50000 0.14590 0.69720 -0.16300
H 	H 	0.50000 0.13790 0.72470 0.09400
C 	C 	0.50000 0.11630 0.67020 0.11900
H 	H 	0.50000 0.08890 0.67850 0.00900
O 	O 	0.50000 0.94130 0.38940 -0.57000
C 	C 	0.50000 0.85410 0.30280 -0.15300
H 	H 	0.50000 0.86210 0.27530 0.09900
C 	C 	0.50000 0.88370 0.32980 0.11400
H 	H 	0.50000 0.91110 0.32150 0.02900
O 	O 	0.50000 0.05870 0.38940 -0.60700
C 	C 	0.50000 0.14590 0.30280 -0.16300
H 	H 	0.50000 0.13790 0.27530 0.08800
C 	C 	0.50000 0.11630 0.32980 0.11700
H 	H 	0.50000 0.08890 0.32150 0.00700
O 	O 	0.61060 -0.00000 0.44130 -0.62400
C 	C 	0.69720 -0.00000 0.35410 -0.16800
H 	H 	0.72470 -0.00000 0.36210 0.08900
C 	C 	0.67020 -0.00000 0.38370 0.11700
H 	H 	0.67850 -0.00000 0.41110 0.00300
O 	O 	0.61060 -0.00000 0.55870 -0.62400
C 	C 	0.69720 -0.00000 0.64590 -0.16800
H 	H 	0.72470 -0.00000 0.63790 0.09000
C 	C 	0.67020 -0.00000 0.61630 0.11800
H 	H 	0.67850 -0.00000 0.58890 0.00400
O 	O 	0.38940 -0.00000 0.44130 -0.62500
C 	C 	0.30280 -0.00000 0.35410 -0.16900
H 	H 	0.27530 -0.00000 0.36210 0.08300
C 	C 	0.32980 -0.00000 0.38370 0.11500
H 	H 	0.32150 -0.00000 0.41110 0.00100
O 	O 	0.38940 -0.00000 0.55870 -0.62400
C 	C 	0.30280 -0.00000 0.64590 -0.16800
H 	H 	0.27530 -0.00000 0.63790 0.08400
C 	C 	0.32980 -0.00000 0.61630 0.11600
H 	H 	0.32150 -0.00000 0.58890 0.00100
O 	O 	0.44130 0.11060 0.50000 -0.60200
C 	C 	0.35410 0.19720 0.50000 -0.16300
H 	H 	0.36210 0.22470 0.50000 0.09200
C 	C 	0.38370 0.17020 0.50000 0.11700
H 	H 	0.41110 0.17850 0.50000 0.01100
O 	O 	0.55870 0.11060 0.50000 -0.60200
C 	C 	0.64590 0.19720 0.50000 -0.16300
H 	H 	0.63790 0.22470 0.50000 0.09300
C 	C 	0.61630 0.17020 0.50000 0.11800
H 	H 	0.58890 0.17850 0.50000 0.01100
O 	O 	0.44130 0.88940 0.50000 -0.59800
C 	C 	0.35410 0.80280 0.50000 -0.15500
H 	H 	0.36210 0.77530 0.50000 0.09100
C 	C 	0.38370 0.82980 0.50000 0.11300
H 	H 	0.41110 0.82150 0.50000 0.01400
O 	O 	0.55870 0.88940 0.50000 -0.59800
C 	C 	0.64590 0.80280 0.50000 -0.15500
H 	H 	0.63790 0.77530 0.50000 0.09200
C 	C 	0.61630 0.82980 0.50000 0.11400
H 	H 	0.58890 0.82150 0.50000 0.01500
O 	O 	0.44130 0.00000 0.38940 -0.62500
C 	C 	0.35410 0.00000 0.30280 -0.16900
H 	H 	0.36210 -0.00000 0.27530 0.08300
C 	C 	0.38370 -0.00000 0.32980 0.11500
H 	H 	0.41110 -0.00000 0.32150 0.00100
O 	O 	0.55870 0.00000 0.38940 -0.62400
C 	C 	0.64590 0.00000 0.30280 -0.16800
H 	H 	0.63790 -0.00000 0.27530 0.08400
C 	C 	0.61630 -0.00000 0.32980 0.11600
H 	H 	0.58890 -0.00000 0.32150 0.00100
O 	O 	0.44130 -0.00000 0.61060 -0.62400
C 	C 	0.35410 -0.00000 0.69720 -0.16800
H 	H 	0.36210 0.00000 0.72470 0.08900
C 	C 	0.38370 0.00000 0.67020 0.11700
H 	H 	0.41110 -0.00000 0.67850 0.00300
O 	O 	0.55870 -0.00000 0.61060 -0.62400
C 	C 	0.64590 -0.00000 0.69720 -0.16800
H 	H 	0.63790 0.00000 0.72470 0.09000
C 	C 	0.61630 0.00000 0.67020 0.11800
H 	H 	0.58890 -0.00000 0.67850 0.00400
O 	O 	0.50000 0.11060 0.55870 -0.60200
C 	C 	0.50000 0.19720 0.64590 -0.16300
H 	H 	0.50000 0.22470 0.63790 0.09300
C 	C 	0.50000 0.17020 0.61630 0.11800
H 	H 	0.50000 0.17850 0.58890 0.01100
O 	O 	0.50000 0.11060 0.44130 -0.60200
C 	C 	0.50000 0.19720 0.35410 -0.16300
H 	H 	0.50000 0.22470 0.36210 0.09200
C 	C 	0.50000 0.17020 0.38370 0.11700
H 	H 	0.50000 0.17850 0.41110 0.01100
O 	O 	0.50000 0.88940 0.55870 -0.59800
C 	C 	0.50000 0.80280 0.64590 -0.15500
H 	H 	0.50000 0.77530 0.63790 0.09200
C 	C 	0.50000 0.82980 0.61630 0.11400
H 	H 	0.50000 0.82150 0.58890 0.01500
O 	O 	0.50000 0.88940 0.44130 -0.59800
C 	C 	0.50000 0.80280 0.35410 -0.15500
H 	H 	0.50000 0.77530 0.36210 0.09100
C 	C 	0.50000 0.82980 0.38370 0.11300
H 	H 	0.50000 0.82150 0.41110 0.01400
O 	O 	0.61060 0.94130 0.50000 -0.56900
C 	C 	0.69720 0.85410 0.50000 -0.15300
H 	H 	0.72470 0.86210 0.50000 0.10500
C 	C 	0.67020 0.88370 0.50000 0.11600
H 	H 	0.67850 0.91110 0.50000 0.03100
O 	O 	0.61060 0.05870 0.50000 -0.60600
C 	C 	0.69720 0.14590 0.50000 -0.16300
H 	H 	0.72470 0.13790 0.50000 0.09400
C 	C 	0.67020 0.11630 0.50000 0.11900
H 	H 	0.67850 0.08890 0.50000 0.00900
O 	O 	0.38940 0.94130 0.50000 -0.57000
C 	C 	0.30280 0.85410 0.50000 -0.15300
H 	H 	0.27530 0.86210 0.50000 0.09900
C 	C 	0.32980 0.88370 0.50000 0.11400
H 	H 	0.32150 0.91110 0.50000 0.02900
O 	O 	0.38940 0.05870 0.50000 -0.60700
C 	C 	0.30280 0.14590 0.50000 -0.16300
H 	H 	0.27530 0.13790 0.50000 0.08800
C 	C 	0.32980 0.11630 0.50000 0.11700
H 	H 	0.32150 0.08890 0.50000 0.00700
C 	C 	0.50000 0.27690 0.22310 -0.03900
C 	C 	0.50000 0.31020 0.18980 0.09600
C 	C 	0.50000 0.37290 0.12710 -0.19200
C 	C 	0.50000 0.40250 0.09750 0.46000
C 	C 	0.50000 0.72310 0.22310 -0.03200
C 	C 	0.50000 0.68980 0.18980 0.09900
C 	C 	0.50000 0.62710 0.12710 -0.19200
C 	C 	0.50000 0.59750 0.09750 0.46000
C 	C 	0.50000 0.27690 0.77690 -0.02900
C 	C 	0.50000 0.31020 0.81020 0.09700
C 	C 	0.50000 0.37290 0.87290 -0.17800
C 	C 	0.50000 0.40250 0.90250 0.45500
C 	C 	0.50000 0.72310 0.77690 -0.02200
C 	C 	0.50000 0.68980 0.81020 0.09900
C 	C 	0.50000 0.62710 0.87290 -0.17700
C 	C 	0.50000 0.59750 0.90250 0.45500
C 	C 	0.72310 0.50000 0.77690 -0.02200
C 	C 	0.68980 0.50000 0.81020 0.09900
C 	C 	0.62710 0.50000 0.87290 -0.17700
C 	C 	0.59750 0.50000 0.90250 0.45500
C 	C 	0.72310 0.50000 0.22310 -0.03200
C 	C 	0.68980 0.50000 0.18980 0.09900
C 	C 	0.62710 0.50000 0.12710 -0.19200
C 	C 	0.59750 0.50000 0.09750 0.46000
C 	C 	0.27690 0.50000 0.77690 -0.02900
C 	C 	0.31020 0.50000 0.81020 0.09700
C 	C 	0.37290 0.50000 0.87290 -0.17800
C 	C 	0.40250 0.50000 0.90250 0.45500
C 	C 	0.27690 0.50000 0.22310 -0.03900
C 	C 	0.31020 0.50000 0.18980 0.09600
C 	C 	0.37290 0.50000 0.12710 -0.19200
C 	C 	0.40250 0.50000 0.09750 0.46000
C 	C 	0.27690 0.72310 -0.00000 -0.04600
C 	C 	0.31020 0.68980 -0.00000 0.09400
C 	C 	0.37290 0.62710 -0.00000 -0.20100
C 	C 	0.40250 0.59750 -0.00000 0.45700
C 	C 	0.72310 0.72310 -0.00000 -0.03900
C 	C 	0.68980 0.68980 -0.00000 0.09700
C 	C 	0.62710 0.62710 -0.00000 -0.20100
C 	C 	0.59750 0.59750 -0.00000 0.45700
C 	C 	0.27690 0.27690 -0.00000 -0.05200
C 	C 	0.31020 0.31020 -0.00000 0.09200
C 	C 	0.37290 0.37290 -0.00000 -0.20100
C 	C 	0.40250 0.40250 -0.00000 0.45700
C 	C 	0.72310 0.27690 -0.00000 -0.04600
C 	C 	0.68980 0.31020 -0.00000 0.09400
C 	C 	0.62710 0.37290 -0.00000 -0.20100
C 	C 	0.59750 0.40250 -0.00000 0.45700
Zr	Zr	0.50000 0.50000 0.07572 3.21800
Zr	Zr	0.50000 0.50000 0.92428 3.21700
Zr	Zr	0.57572 0.50000 -0.00000 3.21100
Zr	Zr	0.42428 0.50000 -0.00000 3.21100
Zr	Zr	0.50000 0.57572 -0.00000 3.21100
Zr	Zr	0.50000 0.42428 -0.00000 3.21100
O 	O 	0.53700 0.53700 0.03700 -1.27600
O 	O 	0.46300 0.46300 0.03700 -1.27600
O 	O 	0.46300 0.53700 0.96300 -1.22900
O 	O 	0.53700 0.46300 0.96300 -1.22900
O 	O 	0.53700 0.53700 0.96300 -1.22900
O 	O 	0.46300 0.46300 0.96300 -1.22900
O 	O 	0.53700 0.46300 0.03700 -1.27600
O 	O 	0.46300 0.53700 0.03700 -1.27600
O 	O 	0.50000 0.44130 0.11060 -0.60200
C 	C 	0.50000 0.35410 0.19720 -0.16300
H 	H 	0.50000 0.36210 0.22470 0.09200
C 	C 	0.50000 0.38370 0.17020 0.11700
H 	H 	0.50000 0.41110 0.17850 0.01100
O 	O 	0.50000 0.55870 0.11060 -0.60200
C 	C 	0.50000 0.64590 0.19720 -0.16300
H 	H 	0.50000 0.63790 0.22470 0.09300
C 	C 	0.50000 0.61630 0.17020 0.11800
H 	H 	0.50000 0.58890 0.17850 0.01100
O 	O 	0.50000 0.44130 0.88940 -0.59800
C 	C 	0.50000 0.35410 0.80280 -0.15500
H 	H 	0.50000 0.36210 0.77530 0.09100
C 	C 	0.50000 0.38370 0.82980 0.11300
H 	H 	0.50000 0.41110 0.82150 0.01400
O 	O 	0.50000 0.55870 0.88940 -0.59800
C 	C 	0.50000 0.64590 0.80280 -0.15500
H 	H 	0.50000 0.63790 0.77530 0.09200
C 	C 	0.50000 0.61630 0.82980 0.11400
H 	H 	0.50000 0.58890 0.82150 0.01500
O 	O 	0.61060 0.50000 0.94130 -0.56900
C 	C 	0.69720 0.50000 0.85410 -0.15300
H 	H 	0.72470 0.50000 0.86210 0.10500
C 	C 	0.67020 0.50000 0.88370 0.11600
H 	H 	0.67850 0.50000 0.91110 0.03100
O 	O 	0.61060 0.50000 0.05870 -0.60600
C 	C 	0.69720 0.50000 0.14590 -0.16300
H 	H 	0.72470 0.50000 0.13790 0.09400
C 	C 	0.67020 0.50000 0.11630 0.11900
H 	H 	0.67850 0.50000 0.08890 0.00900
O 	O 	0.38940 0.50000 0.94130 -0.57000
C 	C 	0.30280 0.50000 0.85410 -0.15300
H 	H 	0.27530 0.50000 0.86210 0.09900
C 	C 	0.32980 0.50000 0.88370 0.11400
H 	H 	0.32150 0.50000 0.91110 0.02900
O 	O 	0.38940 0.50000 0.05870 -0.60700
C 	C 	0.30280 0.50000 0.14590 -0.16300
H 	H 	0.27530 0.50000 0.13790 0.08800
C 	C 	0.32980 0.50000 0.11630 0.11700
H 	H 	0.32150 0.50000 0.08890 0.00700
O 	O 	0.44130 0.61060 -0.00000 -0.62400
C 	C 	0.35410 0.69720 -0.00000 -0.16800
H 	H 	0.36210 0.72470 -0.00000 0.08900
C 	C 	0.38370 0.67020 -0.00000 0.11700
H 	H 	0.41110 0.67850 -0.00000 0.00300
O 	O 	0.55870 0.61060 -0.00000 -0.62400
C 	C 	0.64590 0.69720 -0.00000 -0.16800
H 	H 	0.63790 0.72470 -0.00000 0.09000
C 	C 	0.61630 0.67020 -0.00000 0.11800
H 	H 	0.58890 0.67850 -0.00000 0.00400
O 	O 	0.44130 0.38940 -0.00000 -0.62500
C 	C 	0.35410 0.30280 -0.00000 -0.16900
H 	H 	0.36210 0.27530 -0.00000 0.08300
C 	C 	0.38370 0.32980 -0.00000 0.11500
H 	H 	0.41110 0.32150 -0.00000 0.00100
O 	O 	0.55870 0.38940 -0.00000 -0.62400
C 	C 	0.64590 0.30280 -0.00000 -0.16800
H 	H 	0.63790 0.27530 -0.00000 0.08400
C 	C 	0.61630 0.32980 -0.00000 0.11600
H 	H 	0.58890 0.32150 -0.00000 0.00100
O 	O 	0.44130 0.50000 0.88940 -0.59800
C 	C 	0.35410 0.50000 0.80280 -0.15500
H 	H 	0.36210 0.50000 0.77530 0.09100
C 	C 	0.38370 0.50000 0.82980 0.11300
H 	H 	0.41110 0.50000 0.82150 0.01400
O 	O 	0.55870 0.50000 0.88940 -0.59800
C 	C 	0.64590 0.50000 0.80280 -0.15500
H 	H 	0.63790 0.50000 0.77530 0.09200
C 	C 	0.61630 0.50000 0.82980 0.11400
H 	H 	0.58890 0.50000 0.82150 0.01500
O 	O 	0.44130 0.50000 0.11060 -0.60200
C 	C 	0.35410 0.50000 0.19720 -0.16300
H 	H 	0.36210 0.50000 0.22470 0.09200
C 	C 	0.38370 0.50000 0.17020 0.11700
H 	H 	0.41110 0.50000 0.17850 0.01100
O 	O 	0.55870 0.50000 0.11060 -0.60200
C 	C 	0.64590 0.50000 0.19720 -0.16300
H 	H 	0.63790 0.50000 0.22470 0.09300
C 	C 	0.61630 0.50000 0.17020 0.11800
H 	H 	0.58890 0.50000 0.17850 0.01100
O 	O 	0.50000 0.61060 0.05870 -0.60600
C 	C 	0.50000 0.69720 0.14590 -0.16300
H 	H 	0.50000 0.72470 0.13790 0.09400
C 	C 	0.50000 0.67020 0.11630 0.11900
H 	H 	0.50000 0.67850 0.08890 0.00900
O 	O 	0.50000 0.61060 0.94130 -0.56900
C 	C 	0.50000 0.69720 0.85410 -0.15300
H 	H 	0.50000 0.72470 0.86210 0.10500
C 	C 	0.50000 0.67020 0.88370 0.11600
H 	H 	0.50000 0.67850 0.91110 0.03100
O 	O 	0.50000 0.38940 0.05870 -0.60700
C 	C 	0.50000 0.30280 0.14590 -0.16300
H 	H 	0.50000 0.27530 0.13790 0.08800
C 	C 	0.50000 0.32980 0.11630 0.11700
H 	H 	0.50000 0.32150 0.08890 0.00700
O 	O 	0.50000 0.38940 0.94130 -0.57000
C 	C 	0.50000 0.30280 0.85410 -0.15300
H 	H 	0.50000 0.27530 0.86210 0.09900
C 	C 	0.50000 0.32980 0.88370 0.11400
H 	H 	0.50000 0.32150 0.91110 0.02900
O 	O 	0.61060 0.44130 -0.00000 -0.62400
C 	C 	0.69720 0.35410 -0.00000 -0.16800
H 	H 	0.72470 0.36210 -0.00000 0.08900
C 	C 	0.67020 0.38370 -0.00000 0.11700
H 	H 	0.67850 0.41110 -0.00000 0.00300
O 	O 	0.61060 0.55870 -0.00000 -0.62400
C 	C 	0.69720 0.64590 -0.00000 -0.16800
H 	H 	0.72470 0.63790 -0.00000 0.09000
C 	C 	0.67020 0.61630 -0.00000 0.11800
H 	H 	0.67850 0.58890 -0.00000 0.00400
O 	O 	0.38940 0.44130 -0.00000 -0.62500
C 	C 	0.30280 0.35410 -0.00000 -0.16900
H 	H 	0.27530 0.36210 -0.00000 0.08300
C 	C 	0.32980 0.38370 -0.00000 0.11500
H 	H 	0.32150 0.41110 -0.00000 0.00100
O 	O 	0.38940 0.55870 -0.00000 -0.62400
C 	C 	0.30280 0.64590 -0.00000 -0.16800
H 	H 	0.27530 0.63790 -0.00000 0.08400
C 	C 	0.32980 0.61630 -0.00000 0.11600
H 	H 	0.32150 0.58890 -0.00000 0.00100
