data_crystal

_cell_length_a 8.38600
_cell_length_b 17.19900
_cell_length_c 25.13200
_cell_angle_alpha 90.00000
_cell_angle_beta  94.18200
_cell_angle_gamma 90.00000

_symmetry_space_group_name_	'P 1'
_symmetry_space_group_name_H-M	'P 1'

loop_
_symmetry_equiv_pos_as_xyz
  x,y,z

loop_
_atom_site_label
_atom_site_type_symbol
_atom_site_fract_x
_atom_site_fract_y
_atom_site_fract_z
_atom_site_charge
N 	N 	0.59600 0.63580 0.13742 -0.20800
O 	O 	0.06550 0.71720 0.05594 -0.54800
Zn	Zn	0.83395 0.59393 0.13272 1.19900
O 	O 	0.39450 0.85630 0.70124 -0.53800
N 	N 	0.75480 0.51660 0.61996 -0.24300
O 	O 	0.53180 0.75140 0.68773 -0.55500
N 	N 	0.68950 0.53380 0.57060 -0.06500
C 	C 	0.82230 0.58940 0.70343 -0.09700
N 	N 	0.35520 0.68750 0.13836 -0.25500
N 	N 	0.65690 0.60750 0.56859 -0.05900
C 	C 	0.94750 0.61660 0.87079 0.07200
C 	C 	0.47890 0.67200 0.10863 0.11400
N 	N 	0.40030 0.65730 0.18719 -0.06800
O 	O 	0.87830 0.63420 0.06421 -0.57300
N 	N 	0.70080 0.64000 0.61614 -0.23200
C 	C 	0.36290 0.80050 0.86120 -0.18300
H 	H 	0.29680 0.82850 0.88240 0.09100
C 	C 	0.97660 0.66730 0.03823 0.50200
C 	C 	0.77900 0.53390 0.73951 0.00000
H 	H 	0.71820 0.49130 0.72750 0.01800
C 	C 	0.03670 0.69710 0.94490 0.14500
H 	H 	0.09020 0.74180 0.95710 -0.00100
C 	C 	0.97340 0.64810 0.97998 -0.23000
C 	C 	0.76240 0.58260 0.64676 0.13000
C 	C 	0.91860 0.60470 0.81222 0.02300
C 	C 	0.46380 0.79520 0.71669 0.49500
C 	C 	0.91870 0.65000 0.72102 0.01500
H 	H 	0.95390 0.68590 0.69680 0.00800
C 	C 	0.44230 0.78180 0.97930 -0.02000
H 	H 	0.41940 0.83230 0.96790 0.03900
N 	N 	0.53940 0.62520 0.18639 -0.06300
C 	C 	0.45120 0.76520 0.03240 -0.06000
H 	H 	0.43810 0.80520 0.05660 0.03600
C 	C 	0.02180 0.68080 0.89110 -0.15300
H 	H 	0.06490 0.71560 0.86770 0.08800
C 	C 	0.82530 0.54110 0.79291 -0.08500
H 	H 	0.79440 0.50350 0.81670 0.05700
C 	C 	0.54880 0.71530 0.79610 0.11100
H 	H 	0.60990 0.68560 0.77430 0.00500
C 	C 	0.45750 0.77640 0.77453 -0.20800
C 	C 	0.36470 0.81690 0.80707 0.12000
H 	H 	0.30050 0.85680 0.79260 0.00000
C 	C 	0.47910 0.69130 0.05130 -0.03700
C 	C 	0.46010 0.74220 0.88350 0.10800
C 	C 	0.89660 0.58260 0.96050 0.11800
H 	H 	0.84870 0.54920 0.98370 -0.00200
C 	C 	0.54970 0.69820 0.84990 -0.17400
H 	H 	0.61070 0.65680 0.86380 0.09500
C 	C 	0.96390 0.65750 0.77536 -0.12600
H 	H 	0.02670 0.69960 0.78690 0.08900
C 	C 	0.89010 0.56580 0.90660 -0.17000
H 	H 	0.84570 0.51900 0.89440 0.08400
C 	C 	0.49850 0.65050 0.96080 -0.01900
H 	H 	0.51770 0.61110 0.93670 0.04100
C 	C 	0.46670 0.72440 0.94180 -0.03000
C 	C 	0.50270 0.63310 0.01480 -0.05400
H 	H 	0.52150 0.58230 0.02640 0.05100
Zn	Zn	0.15372 0.74532 0.12527 1.21000
N 	N 	0.09600 0.13580 0.13742 -0.20300
O 	O 	0.56550 0.21720 0.05594 -0.57000
Zn	Zn	0.33395 0.09393 0.13272 1.20000
O 	O 	0.89450 0.35630 0.70124 -0.53600
N 	N 	0.25480 0.01660 0.61996 -0.24100
O 	O 	0.03180 0.25140 0.68773 -0.53400
N 	N 	0.18950 0.03380 0.57060 -0.06300
C 	C 	0.32230 0.08940 0.70343 -0.06800
N 	N 	0.85520 0.18750 0.13836 -0.25900
N 	N 	0.15690 0.10750 0.56859 -0.05900
C 	C 	0.44750 0.11660 0.87079 0.12900
C 	C 	0.97890 0.17200 0.10863 0.12500
N 	N 	0.90030 0.15730 0.18719 -0.08000
O 	O 	0.37830 0.13420 0.06421 -0.57500
N 	N 	0.20080 0.14000 0.61614 -0.23100
C 	C 	0.86290 0.30050 0.86120 -0.14000
H 	H 	0.79680 0.32850 0.88240 0.07500
C 	C 	0.47660 0.16730 0.03823 0.53100
C 	C 	0.27900 0.03390 0.73951 -0.03100
H 	H 	0.21820 0.99130 0.72750 0.02900
C 	C 	0.53670 0.19710 0.94490 0.15200
H 	H 	0.59020 0.24180 0.95710 -0.00600
C 	C 	0.47340 0.14810 0.97998 -0.23200
C 	C 	0.26240 0.08260 0.64676 0.12100
C 	C 	0.41860 0.10470 0.81222 -0.02700
C 	C 	0.96380 0.29520 0.71669 0.46500
C 	C 	0.41870 0.15000 0.72102 -0.03300
H 	H 	0.45390 0.18590 0.69680 0.02800
C 	C 	0.94230 0.28180 0.97930 -0.10500
H 	H 	0.91940 0.33230 0.96790 0.06800
N 	N 	0.03940 0.12520 0.18639 -0.05500
C 	C 	0.95120 0.26520 0.03240 0.02100
H 	H 	0.93810 0.30520 0.05660 0.00700
C 	C 	0.52180 0.18080 0.89110 -0.20600
H 	H 	0.56490 0.21560 0.86770 0.10300
C 	C 	0.32530 0.04110 0.79291 -0.04700
H 	H 	0.29440 0.00350 0.81670 0.04400
C 	C 	0.04880 0.21530 0.79610 0.10000
H 	H 	0.10990 0.18560 0.77430 0.01200
C 	C 	0.95750 0.27640 0.77453 -0.20100
C 	C 	0.86470 0.31690 0.80707 0.09100
H 	H 	0.80050 0.35680 0.79260 0.00900
C 	C 	0.97910 0.19130 0.05130 -0.12800
C 	C 	0.96010 0.24220 0.88350 0.03600
C 	C 	0.39660 0.08260 0.96050 0.14100
H 	H 	0.34870 0.04920 0.98370 -0.00900
C 	C 	0.04970 0.19820 0.84990 -0.11400
H 	H 	0.11070 0.15680 0.86380 0.07700
C 	C 	0.46390 0.15750 0.77536 -0.04800
H 	H 	0.52670 0.19960 0.78690 0.04800
C 	C 	0.39010 0.06580 0.90660 -0.20200
H 	H 	0.34570 0.01900 0.89440 0.09700
C 	C 	0.99850 0.15050 0.96080 -0.17400
H 	H 	0.01770 0.11110 0.93670 0.10500
C 	C 	0.96670 0.22440 0.94180 0.06200
C 	C 	0.00270 0.13310 0.01480 0.09100
H 	H 	0.02150 0.08230 0.02640 0.00400
Zn	Zn	0.65372 0.24532 0.12527 1.21000
N 	N 	0.59600 0.36420 0.63742 -0.21000
O 	O 	0.06550 0.28280 0.55594 -0.55100
Zn	Zn	0.83395 0.40607 0.63272 1.19900
O 	O 	0.39450 0.14370 0.20124 -0.53900
N 	N 	0.75480 0.48340 0.11996 -0.24400
O 	O 	0.53180 0.24860 0.18773 -0.55400
N 	N 	0.68950 0.46620 0.07060 -0.06700
C 	C 	0.82230 0.41060 0.20343 -0.09600
N 	N 	0.35520 0.31250 0.63836 -0.25600
N 	N 	0.65690 0.39250 0.06859 -0.06100
C 	C 	0.94750 0.38340 0.37079 0.08000
C 	C 	0.47890 0.32800 0.60863 0.12300
N 	N 	0.40030 0.34270 0.68719 -0.06800
O 	O 	0.87830 0.36580 0.56421 -0.57400
N 	N 	0.70080 0.36000 0.11614 -0.23200
C 	C 	0.36290 0.19950 0.36120 -0.17200
H 	H 	0.29680 0.17150 0.38240 0.08700
C 	C 	0.97660 0.33270 0.53823 0.51700
C 	C 	0.77900 0.46610 0.23951 -0.00200
H 	H 	0.71820 0.50870 0.22750 0.01800
C 	C 	0.03670 0.30290 0.44490 0.15900
H 	H 	0.09020 0.25820 0.45710 -0.00800
C 	C 	0.97340 0.35190 0.47998 -0.25000
C 	C 	0.76240 0.41740 0.14676 0.12900
C 	C 	0.91860 0.39530 0.31222 0.01900
C 	C 	0.46380 0.20480 0.21669 0.49200
C 	C 	0.91870 0.35000 0.22102 0.01300
H 	H 	0.95390 0.31410 0.19680 0.00800
C 	C 	0.44230 0.21820 0.47930 -0.06000
H 	H 	0.41940 0.16770 0.46790 0.05100
N 	N 	0.53940 0.37480 0.68639 -0.06300
C 	C 	0.45120 0.23480 0.53240 -0.02000
H 	H 	0.43810 0.19480 0.55660 0.02300
C 	C 	0.02180 0.31920 0.39110 -0.16400
H 	H 	0.06490 0.28440 0.36770 0.09100
C 	C 	0.82530 0.45890 0.29291 -0.08300
H 	H 	0.79440 0.49650 0.31670 0.05500
C 	C 	0.54880 0.28470 0.29610 0.10300
H 	H 	0.60990 0.31440 0.27430 0.00800
C 	C 	0.45750 0.22360 0.27453 -0.20200
C 	C 	0.36470 0.18310 0.30707 0.11100
H 	H 	0.30050 0.14320 0.29260 0.00300
C 	C 	0.47910 0.30870 0.55130 -0.06300
C 	C 	0.46010 0.25780 0.38350 0.09300
C 	C 	0.89660 0.41740 0.46050 0.13100
H 	H 	0.84870 0.45080 0.48370 -0.01000
C 	C 	0.54970 0.30180 0.34990 -0.16300
H 	H 	0.61070 0.34320 0.36380 0.09100
C 	C 	0.96390 0.34250 0.27536 -0.12400
H 	H 	0.02670 0.30040 0.28690 0.08800
C 	C 	0.89010 0.43420 0.40660 -0.18100
H 	H 	0.84570 0.48100 0.39440 0.08800
C 	C 	0.49850 0.34950 0.46080 -0.05700
H 	H 	0.51770 0.38890 0.43670 0.05300
C 	C 	0.46670 0.27560 0.44180 -0.00200
C 	C 	0.50270 0.36690 0.51480 -0.01500
H 	H 	0.52150 0.41770 0.52640 0.04000
Zn	Zn	0.15372 0.25468 0.62527 1.21100
N 	N 	0.09600 0.86420 0.63742 -0.20400
O 	O 	0.56550 0.78280 0.55594 -0.57100
Zn	Zn	0.33395 0.90607 0.63272 1.20100
O 	O 	0.89450 0.64370 0.20124 -0.53500
N 	N 	0.25480 0.98340 0.11996 -0.24100
O 	O 	0.03180 0.74860 0.18773 -0.53300
N 	N 	0.18950 0.96620 0.07060 -0.06500
C 	C 	0.32230 0.91060 0.20343 -0.06600
N 	N 	0.85520 0.81250 0.63836 -0.26100
N 	N 	0.15690 0.89250 0.06859 -0.06000
C 	C 	0.44750 0.88340 0.37079 0.13800
C 	C 	0.97890 0.82800 0.60863 0.13500
N 	N 	0.90030 0.84270 0.68719 -0.08000
O 	O 	0.37830 0.86580 0.56421 -0.57600
N 	N 	0.20080 0.86000 0.11614 -0.23100
C 	C 	0.86290 0.69950 0.36120 -0.12800
H 	H 	0.79680 0.67150 0.38240 0.07000
C 	C 	0.47660 0.83270 0.53823 0.54500
C 	C 	0.27900 0.96610 0.23951 -0.03400
H 	H 	0.21820 0.00870 0.22750 0.03000
C 	C 	0.53670 0.80290 0.44490 0.16600
H 	H 	0.59020 0.75820 0.45710 -0.01300
C 	C 	0.47340 0.85190 0.47998 -0.25100
C 	C 	0.26240 0.91740 0.14676 0.12100
C 	C 	0.41860 0.89530 0.31222 -0.03200
C 	C 	0.96380 0.70480 0.21669 0.46200
C 	C 	0.41870 0.85000 0.22102 -0.03600
H 	H 	0.45390 0.81410 0.19680 0.02800
C 	C 	0.94230 0.71820 0.47930 -0.15000
H 	H 	0.91940 0.66770 0.46790 0.08200
N 	N 	0.03940 0.87480 0.68639 -0.05500
C 	C 	0.95120 0.73480 0.53240 0.06600
H 	H 	0.93810 0.69480 0.55660 -0.00700
C 	C 	0.52180 0.81920 0.39110 -0.21800
H 	H 	0.56490 0.78440 0.36770 0.10700
C 	C 	0.32530 0.95890 0.29291 -0.04400
H 	H 	0.29440 0.99650 0.31670 0.04200
C 	C 	0.04880 0.78470 0.29610 0.09100
H 	H 	0.10990 0.81440 0.27430 0.01500
C 	C 	0.95750 0.72360 0.27453 -0.19400
C 	C 	0.86470 0.68310 0.30707 0.08100
H 	H 	0.80050 0.64320 0.29260 0.01200
C 	C 	0.97910 0.80870 0.55130 -0.15600
C 	C 	0.96010 0.75780 0.38350 0.01800
C 	C 	0.39660 0.91740 0.46050 0.15500
H 	H 	0.34870 0.95080 0.48370 -0.01700
C 	C 	0.04970 0.80180 0.34990 -0.10200
H 	H 	0.11070 0.84320 0.36380 0.07200
C 	C 	0.46390 0.84250 0.27536 -0.04400
H 	H 	0.52670 0.80040 0.28690 0.04600
C 	C 	0.39010 0.93420 0.40660 -0.21400
H 	H 	0.34570 0.98100 0.39440 0.10100
C 	C 	0.99850 0.84950 0.46080 -0.21600
H 	H 	0.01770 0.88890 0.43670 0.11800
C 	C 	0.96670 0.77560 0.44180 0.09300
C 	C 	0.00270 0.86690 0.51480 0.13200
H 	H 	0.02150 0.91770 0.52640 -0.00800
Zn	Zn	0.65372 0.75468 0.62527 1.21000
