data_crystal

_cell_length_a 34.83700
_cell_length_b 34.83700
_cell_length_c 34.83700
_cell_angle_alpha 60.00000
_cell_angle_beta  60.00000
_cell_angle_gamma 60.00000

_symmetry_space_group_name_	'P 1'
_symmetry_space_group_name_H-M	'P 1'

loop_
_symmetry_equiv_pos_as_xyz
  x,y,z

loop_
_atom_site_label
_atom_site_type_symbol
_atom_site_fract_x
_atom_site_fract_y
_atom_site_fract_z
_atom_site_charge
Dy	Dy	0.52276 0.05858 0.94142 1.67100
Dy	Dy	0.05858 0.52276 0.47724 1.68400
Dy	Dy	0.94142 0.47724 0.52276 1.66700
Dy	Dy	0.47724 0.94142 0.05858 1.67100
Dy	Dy	0.52276 0.94142 0.47724 1.66700
Dy	Dy	0.05858 0.47724 0.94142 1.67100
Dy	Dy	0.94142 0.52276 0.05858 1.67100
Dy	Dy	0.47724 0.05858 0.52276 1.68400
Dy	Dy	0.52276 0.47724 0.05858 1.68400
Dy	Dy	0.05858 0.94142 0.52276 1.67100
Dy	Dy	0.94142 0.05858 0.47724 1.67100
Dy	Dy	0.47724 0.52276 0.94142 1.66700
Dy	Dy	0.44142 0.97724 0.55858 1.66500
Dy	Dy	0.97724 0.44142 0.02276 1.66600
Dy	Dy	0.02276 0.55858 0.97724 1.66600
Dy	Dy	0.55858 0.02276 0.44142 1.68300
Dy	Dy	0.55858 0.97724 0.02276 1.66600
Dy	Dy	0.02276 0.44142 0.55858 1.68300
Dy	Dy	0.97724 0.55858 0.44142 1.66500
Dy	Dy	0.44142 0.02276 0.97724 1.66600
Dy	Dy	0.02276 0.97724 0.44142 1.66600
Dy	Dy	0.55858 0.44142 0.97724 1.66500
Dy	Dy	0.44142 0.55858 0.02276 1.68300
Dy	Dy	0.97724 0.02276 0.55858 1.66600
H 	H 	0.54170 0.05230 0.07470 0.03900
H 	H 	0.55490 0.20190 0.00990 0.05000
H 	H 	0.55030 0.17310 0.96570 0.03200
H 	H 	0.59330 0.01010 0.17010 0.01900
H 	H 	0.58900 0.00840 0.12740 0.02600
H 	H 	0.63840 0.05640 0.07320 0.13300
H 	H 	0.66520 0.00740 0.10500 0.12600
H 	H 	0.64460 0.05440 0.11680 0.13100
H 	H 	0.49950 0.04330 0.15910 0.02100
H 	H 	0.50320 0.04460 0.20240 0.01600
H 	H 	0.45760 0.12300 0.18740 0.13300
H 	H 	0.43050 0.09630 0.18870 0.12900
H 	H 	0.45860 0.12640 0.13940 0.13800
H 	H 	0.05230 0.54170 0.33130 0.03000
H 	H 	0.20190 0.55490 0.23330 0.06200
H 	H 	0.17310 0.55030 0.31090 0.01600
H 	H 	0.01010 0.59330 0.22650 0.02000
H 	H 	0.00840 0.58900 0.27520 0.02700
H 	H 	0.05640 0.63840 0.23200 0.13100
H 	H 	0.00740 0.66520 0.22240 0.12400
H 	H 	0.05440 0.64460 0.18420 0.13000
H 	H 	0.04330 0.49950 0.29810 0.02300
H 	H 	0.04460 0.50320 0.24980 0.01700
H 	H 	0.12300 0.45760 0.23200 0.13100
H 	H 	0.09630 0.43050 0.28450 0.12700
H 	H 	0.12640 0.45860 0.27560 0.13600
H 	H 	0.07470 0.33130 0.54170 0.03600
H 	H 	0.00990 0.23330 0.55490 0.05100
H 	H 	0.96570 0.31090 0.55030 0.03100
H 	H 	0.17010 0.22650 0.59330 0.01600
H 	H 	0.12740 0.27520 0.58900 0.02300
H 	H 	0.07320 0.23200 0.63840 0.13200
H 	H 	0.10500 0.22240 0.66520 0.12400
H 	H 	0.11680 0.18420 0.64460 0.13100
H 	H 	0.15910 0.29810 0.49950 0.01800
H 	H 	0.20240 0.24980 0.50320 0.01300
H 	H 	0.18740 0.23200 0.45760 0.13300
H 	H 	0.18870 0.28450 0.43050 0.12800
H 	H 	0.13940 0.27560 0.45860 0.13800
H 	H 	0.33130 0.07470 0.05230 0.04000
H 	H 	0.23330 0.00990 0.20190 0.04900
H 	H 	0.31090 0.96570 0.17310 0.03400
H 	H 	0.22650 0.17010 0.01010 0.01900
H 	H 	0.27520 0.12740 0.00840 0.02600
H 	H 	0.23200 0.07320 0.05640 0.13500
H 	H 	0.22240 0.10500 0.00740 0.12800
H 	H 	0.18420 0.11680 0.05440 0.13300
H 	H 	0.29810 0.15910 0.04330 0.02200
H 	H 	0.24980 0.20240 0.04460 0.01600
H 	H 	0.23200 0.18740 0.12300 0.13300
H 	H 	0.28450 0.18870 0.09630 0.12900
H 	H 	0.27560 0.13940 0.12640 0.13800
H 	H 	0.54170 0.07470 0.33130 0.03600
H 	H 	0.55490 0.00990 0.23330 0.05100
H 	H 	0.55030 0.96570 0.31090 0.03100
H 	H 	0.59330 0.17010 0.22650 0.01600
H 	H 	0.58900 0.12740 0.27520 0.02300
H 	H 	0.63840 0.07320 0.23200 0.13200
H 	H 	0.66520 0.10500 0.22240 0.12400
H 	H 	0.64460 0.11680 0.18420 0.13100
H 	H 	0.49950 0.15910 0.29810 0.01800
H 	H 	0.50320 0.20240 0.24980 0.01300
H 	H 	0.45760 0.18740 0.23200 0.13300
H 	H 	0.43050 0.18870 0.28450 0.12800
H 	H 	0.45860 0.13940 0.27560 0.13800
H 	H 	0.05230 0.33130 0.07470 0.04000
H 	H 	0.20190 0.23330 0.00990 0.04900
H 	H 	0.17310 0.31090 0.96570 0.03400
H 	H 	0.01010 0.22650 0.17010 0.01900
H 	H 	0.00840 0.27520 0.12740 0.02600
H 	H 	0.05640 0.23200 0.07320 0.13500
H 	H 	0.00740 0.22240 0.10500 0.12800
H 	H 	0.05440 0.18420 0.11680 0.13300
H 	H 	0.04330 0.29810 0.15910 0.02200
H 	H 	0.04460 0.24980 0.20240 0.01600
H 	H 	0.12300 0.23200 0.18740 0.13300
H 	H 	0.09630 0.28450 0.18870 0.12900
H 	H 	0.12640 0.27560 0.13940 0.13800
H 	H 	0.07470 0.54170 0.05230 0.03900
H 	H 	0.00990 0.55490 0.20190 0.05000
H 	H 	0.96570 0.55030 0.17310 0.03200
H 	H 	0.17010 0.59330 0.01010 0.01900
H 	H 	0.12740 0.58900 0.00840 0.02600
H 	H 	0.07320 0.63840 0.05640 0.13300
H 	H 	0.10500 0.66520 0.00740 0.12600
H 	H 	0.11680 0.64460 0.05440 0.13100
H 	H 	0.15910 0.49950 0.04330 0.02100
H 	H 	0.20240 0.50320 0.04460 0.01600
H 	H 	0.18740 0.45760 0.12300 0.13300
H 	H 	0.18870 0.43050 0.09630 0.12900
H 	H 	0.13940 0.45860 0.12640 0.13800
H 	H 	0.33130 0.05230 0.54170 0.03000
H 	H 	0.23330 0.20190 0.55490 0.06200
H 	H 	0.31090 0.17310 0.55030 0.01600
H 	H 	0.22650 0.01010 0.59330 0.02000
H 	H 	0.27520 0.00840 0.58900 0.02700
H 	H 	0.23200 0.05640 0.63840 0.13100
H 	H 	0.22240 0.00740 0.66520 0.12400
H 	H 	0.18420 0.05440 0.64460 0.13000
H 	H 	0.29810 0.04330 0.49950 0.02300
H 	H 	0.24980 0.04460 0.50320 0.01700
H 	H 	0.23200 0.12300 0.45760 0.13100
H 	H 	0.28450 0.09630 0.43050 0.12700
H 	H 	0.27560 0.12640 0.45860 0.13600
H 	H 	0.54170 0.33130 0.05230 0.03000
H 	H 	0.55490 0.23330 0.20190 0.06200
H 	H 	0.55030 0.31090 0.17310 0.01600
H 	H 	0.59330 0.22650 0.01010 0.02000
H 	H 	0.58900 0.27520 0.00840 0.02700
H 	H 	0.63840 0.23200 0.05640 0.13100
H 	H 	0.66520 0.22240 0.00740 0.12400
H 	H 	0.64460 0.18420 0.05440 0.13000
H 	H 	0.49950 0.29810 0.04330 0.02300
H 	H 	0.50320 0.24980 0.04460 0.01700
H 	H 	0.45760 0.23200 0.12300 0.13100
H 	H 	0.43050 0.28450 0.09630 0.12700
H 	H 	0.45860 0.27560 0.12640 0.13600
H 	H 	0.05230 0.07470 0.54170 0.03900
H 	H 	0.20190 0.00990 0.55490 0.05000
H 	H 	0.17310 0.96570 0.55030 0.03200
H 	H 	0.01010 0.17010 0.59330 0.01900
H 	H 	0.00840 0.12740 0.58900 0.02600
H 	H 	0.05640 0.07320 0.63840 0.13300
H 	H 	0.00740 0.10500 0.66520 0.12600
H 	H 	0.05440 0.11680 0.64460 0.13100
H 	H 	0.04330 0.15910 0.49950 0.02100
H 	H 	0.04460 0.20240 0.50320 0.01600
H 	H 	0.12300 0.18740 0.45760 0.13300
H 	H 	0.09630 0.18870 0.43050 0.12900
H 	H 	0.12640 0.13940 0.45860 0.13800
H 	H 	0.07470 0.05230 0.33130 0.04000
H 	H 	0.00990 0.20190 0.23330 0.04900
H 	H 	0.96570 0.17310 0.31090 0.03400
H 	H 	0.17010 0.01010 0.22650 0.01900
H 	H 	0.12740 0.00840 0.27520 0.02600
H 	H 	0.07320 0.05640 0.23200 0.13500
H 	H 	0.10500 0.00740 0.22240 0.12800
H 	H 	0.11680 0.05440 0.18420 0.13300
H 	H 	0.15910 0.04330 0.29810 0.02200
H 	H 	0.20240 0.04460 0.24980 0.01600
H 	H 	0.18740 0.12300 0.23200 0.13300
H 	H 	0.18870 0.09630 0.28450 0.12900
H 	H 	0.13940 0.12640 0.27560 0.13800
H 	H 	0.33130 0.54170 0.07470 0.03600
H 	H 	0.23330 0.55490 0.00990 0.05100
H 	H 	0.31090 0.55030 0.96570 0.03100
H 	H 	0.22650 0.59330 0.17010 0.01600
H 	H 	0.27520 0.58900 0.12740 0.02300
H 	H 	0.23200 0.63840 0.07320 0.13200
H 	H 	0.22240 0.66520 0.10500 0.12400
H 	H 	0.18420 0.64460 0.11680 0.13100
H 	H 	0.29810 0.49950 0.15910 0.01800
H 	H 	0.24980 0.50320 0.20240 0.01300
H 	H 	0.23200 0.45760 0.18740 0.13300
H 	H 	0.28450 0.43050 0.18870 0.12800
H 	H 	0.27560 0.45860 0.13940 0.13800
H 	H 	0.44770 0.95830 0.42530 0.02500
H 	H 	0.29810 0.94510 0.49010 0.06100
H 	H 	0.32690 0.94970 0.53430 0.01300
H 	H 	0.48990 0.90670 0.32990 0.01900
H 	H 	0.49160 0.91100 0.37260 0.02500
H 	H 	0.44360 0.86160 0.42680 0.12800
H 	H 	0.49260 0.83480 0.39500 0.11900
H 	H 	0.44560 0.85540 0.38320 0.12700
H 	H 	0.45670 0.00050 0.34090 0.04100
H 	H 	0.45540 0.99680 0.29760 0.02500
H 	H 	0.37700 0.04240 0.31260 0.12100
H 	H 	0.40370 0.06950 0.31130 0.11400
H 	H 	0.37360 0.04140 0.36060 0.12600
H 	H 	0.95830 0.44770 0.16870 0.02400
H 	H 	0.94510 0.29810 0.26670 0.06100
H 	H 	0.94970 0.32690 0.18910 0.01300
H 	H 	0.90670 0.48990 0.27350 0.01900
H 	H 	0.91100 0.49160 0.22480 0.02500
H 	H 	0.86160 0.44360 0.26800 0.12800
H 	H 	0.83480 0.49260 0.27760 0.11900
H 	H 	0.85540 0.44560 0.31580 0.12700
H 	H 	0.00050 0.45670 0.20190 0.04200
H 	H 	0.99680 0.45540 0.25020 0.02600
H 	H 	0.04240 0.37700 0.26800 0.12100
H 	H 	0.06950 0.40370 0.21550 0.11300
H 	H 	0.04140 0.37360 0.22440 0.12500
H 	H 	0.16870 0.42530 0.95830 0.02400
H 	H 	0.26670 0.49010 0.94510 0.06100
H 	H 	0.18910 0.53430 0.94970 0.01300
H 	H 	0.27350 0.32990 0.90670 0.01900
H 	H 	0.22480 0.37260 0.91100 0.02500
H 	H 	0.26800 0.42680 0.86160 0.12800
H 	H 	0.27760 0.39500 0.83480 0.11900
H 	H 	0.31580 0.38320 0.85540 0.12700
H 	H 	0.20190 0.34090 0.00050 0.04300
H 	H 	0.25020 0.29760 0.99680 0.02600
H 	H 	0.26800 0.31260 0.04240 0.12000
H 	H 	0.21550 0.31130 0.06950 0.11300
H 	H 	0.22440 0.36060 0.04140 0.12500
H 	H 	0.42530 0.16870 0.44770 0.02700
H 	H 	0.49010 0.26670 0.29810 0.06200
H 	H 	0.53430 0.18910 0.32690 0.01600
H 	H 	0.32990 0.27350 0.48990 0.01700
H 	H 	0.37260 0.22480 0.49160 0.02400
H 	H 	0.42680 0.26800 0.44360 0.13000
H 	H 	0.39500 0.27760 0.49260 0.12200
H 	H 	0.38320 0.31580 0.44560 0.12900
H 	H 	0.34090 0.20190 0.45670 0.02000
H 	H 	0.29760 0.25020 0.45540 0.01400
H 	H 	0.31260 0.26800 0.37700 0.13100
H 	H 	0.31130 0.21550 0.40370 0.12700
H 	H 	0.36060 0.22440 0.37360 0.13700
H 	H 	0.42530 0.95830 0.16870 0.02400
H 	H 	0.49010 0.94510 0.26670 0.06100
H 	H 	0.53430 0.94970 0.18910 0.01300
H 	H 	0.32990 0.90670 0.27350 0.01900
H 	H 	0.37260 0.91100 0.22480 0.02500
H 	H 	0.42680 0.86160 0.26800 0.12800
H 	H 	0.39500 0.83480 0.27760 0.11900
H 	H 	0.38320 0.85540 0.31580 0.12700
H 	H 	0.34090 0.00050 0.20190 0.04300
H 	H 	0.29760 0.99680 0.25020 0.02600
H 	H 	0.31260 0.04240 0.26800 0.12000
H 	H 	0.31130 0.06950 0.21550 0.11300
H 	H 	0.36060 0.04140 0.22440 0.12500
H 	H 	0.16870 0.44770 0.42530 0.02700
H 	H 	0.26670 0.29810 0.49010 0.06200
H 	H 	0.18910 0.32690 0.53430 0.01600
H 	H 	0.27350 0.48990 0.32990 0.01700
H 	H 	0.22480 0.49160 0.37260 0.02400
H 	H 	0.26800 0.44360 0.42680 0.13000
H 	H 	0.27760 0.49260 0.39500 0.12200
H 	H 	0.31580 0.44560 0.38320 0.12900
H 	H 	0.20190 0.45670 0.34090 0.02000
H 	H 	0.25020 0.45540 0.29760 0.01400
H 	H 	0.26800 0.37700 0.31260 0.13100
H 	H 	0.21550 0.40370 0.31130 0.12700
H 	H 	0.22440 0.37360 0.36060 0.13700
H 	H 	0.95830 0.42530 0.44770 0.02500
H 	H 	0.94510 0.49010 0.29810 0.06100
H 	H 	0.94970 0.53430 0.32690 0.01300
H 	H 	0.90670 0.32990 0.48990 0.01900
H 	H 	0.91100 0.37260 0.49160 0.02500
H 	H 	0.86160 0.42680 0.44360 0.12800
H 	H 	0.83480 0.39500 0.49260 0.11900
H 	H 	0.85540 0.38320 0.44560 0.12700
H 	H 	0.00050 0.34090 0.45670 0.04100
H 	H 	0.99680 0.29760 0.45540 0.02500
H 	H 	0.04240 0.31260 0.37700 0.12100
H 	H 	0.06950 0.31130 0.40370 0.11400
H 	H 	0.04140 0.36060 0.37360 0.12600
H 	H 	0.44770 0.16870 0.95830 0.02400
H 	H 	0.29810 0.26670 0.94510 0.06100
H 	H 	0.32690 0.18910 0.94970 0.01300
H 	H 	0.48990 0.27350 0.90670 0.01900
H 	H 	0.49160 0.22480 0.91100 0.02500
H 	H 	0.44360 0.26800 0.86160 0.12800
H 	H 	0.49260 0.27760 0.83480 0.11900
H 	H 	0.44560 0.31580 0.85540 0.12700
H 	H 	0.45670 0.20190 0.00050 0.04200
H 	H 	0.45540 0.25020 0.99680 0.02600
H 	H 	0.37700 0.26800 0.04240 0.12100
H 	H 	0.40370 0.21550 0.06950 0.11300
H 	H 	0.37360 0.22440 0.04140 0.12500
H 	H 	0.16870 0.95830 0.44770 0.02400
H 	H 	0.26670 0.94510 0.29810 0.06100
H 	H 	0.18910 0.94970 0.32690 0.01300
H 	H 	0.27350 0.90670 0.48990 0.01900
H 	H 	0.22480 0.91100 0.49160 0.02500
H 	H 	0.26800 0.86160 0.44360 0.12800
H 	H 	0.27760 0.83480 0.49260 0.11900
H 	H 	0.31580 0.85540 0.44560 0.12700
H 	H 	0.20190 0.00050 0.45670 0.04200
H 	H 	0.25020 0.99680 0.45540 0.02600
H 	H 	0.26800 0.04240 0.37700 0.12100
H 	H 	0.21550 0.06950 0.40370 0.11300
H 	H 	0.22440 0.04140 0.37360 0.12500
H 	H 	0.42530 0.44770 0.95830 0.02500
H 	H 	0.49010 0.29810 0.94510 0.06100
H 	H 	0.53430 0.32690 0.94970 0.01300
H 	H 	0.32990 0.48990 0.90670 0.01900
H 	H 	0.37260 0.49160 0.91100 0.02500
H 	H 	0.42680 0.44360 0.86160 0.12800
H 	H 	0.39500 0.49260 0.83480 0.11900
H 	H 	0.38320 0.44560 0.85540 0.12700
H 	H 	0.34090 0.45670 0.00050 0.04100
H 	H 	0.29760 0.45540 0.99680 0.02500
H 	H 	0.31260 0.37700 0.04240 0.12100
H 	H 	0.31130 0.40370 0.06950 0.11400
H 	H 	0.36060 0.37360 0.04140 0.12600
H 	H 	0.44770 0.42530 0.16870 0.02700
H 	H 	0.29810 0.49010 0.26670 0.06200
H 	H 	0.32690 0.53430 0.18910 0.01600
H 	H 	0.48990 0.32990 0.27350 0.01700
H 	H 	0.49160 0.37260 0.22480 0.02400
H 	H 	0.44360 0.42680 0.26800 0.13000
H 	H 	0.49260 0.39500 0.27760 0.12200
H 	H 	0.44560 0.38320 0.31580 0.12900
H 	H 	0.45670 0.34090 0.20190 0.02000
H 	H 	0.45540 0.29760 0.25020 0.01400
H 	H 	0.37700 0.31260 0.26800 0.13100
H 	H 	0.40370 0.31130 0.21550 0.12700
H 	H 	0.37360 0.36060 0.22440 0.13700
H 	H 	0.95830 0.16870 0.42530 0.02400
H 	H 	0.94510 0.26670 0.49010 0.06100
H 	H 	0.94970 0.18910 0.53430 0.01300
H 	H 	0.90670 0.27350 0.32990 0.01900
H 	H 	0.91100 0.22480 0.37260 0.02500
H 	H 	0.86160 0.26800 0.42680 0.12800
H 	H 	0.83480 0.27760 0.39500 0.11900
H 	H 	0.85540 0.31580 0.38320 0.12700
H 	H 	0.00050 0.20190 0.34090 0.04300
H 	H 	0.99680 0.25020 0.29760 0.02600
H 	H 	0.04240 0.26800 0.31260 0.12000
H 	H 	0.06950 0.21550 0.31130 0.11300
H 	H 	0.04140 0.22440 0.36060 0.12500
H 	H 	0.45830 0.94770 0.92530 0.01900
H 	H 	0.44510 0.79810 0.99010 0.07100
H 	H 	0.44970 0.82690 0.03430 0.00300
H 	H 	0.40670 0.98990 0.82990 0.01600
H 	H 	0.41100 0.99160 0.87260 0.02200
H 	H 	0.36160 0.94360 0.92680 0.12600
H 	H 	0.33480 0.99260 0.89500 0.11700
H 	H 	0.35540 0.94560 0.88320 0.12600
H 	H 	0.50050 0.95670 0.84090 0.01800
H 	H 	0.49680 0.95540 0.79760 0.01300
H 	H 	0.54240 0.87700 0.81260 0.13000
H 	H 	0.56950 0.90370 0.81130 0.12500
H 	H 	0.54140 0.87360 0.86060 0.13500
H 	H 	0.94770 0.45830 0.66870 0.02500
H 	H 	0.79810 0.44510 0.76670 0.06200
H 	H 	0.82690 0.44970 0.68910 0.01500
H 	H 	0.98990 0.40670 0.77350 0.01500
H 	H 	0.99160 0.41100 0.72480 0.02100
H 	H 	0.94360 0.36160 0.76800 0.12800
H 	H 	0.99260 0.33480 0.77760 0.11900
H 	H 	0.94560 0.35540 0.81580 0.12700
H 	H 	0.95670 0.50050 0.70190 0.01700
H 	H 	0.95540 0.49680 0.75020 0.01200
H 	H 	0.87700 0.54240 0.76800 0.13100
H 	H 	0.90370 0.56950 0.71550 0.12600
H 	H 	0.87360 0.54140 0.72440 0.13700
H 	H 	0.92530 0.66870 0.45830 0.02000
H 	H 	0.99010 0.76670 0.44510 0.07100
H 	H 	0.03430 0.68910 0.44970 0.00300
H 	H 	0.82990 0.77350 0.40670 0.01800
H 	H 	0.87260 0.72480 0.41100 0.02500
H 	H 	0.92680 0.76800 0.36160 0.12700
H 	H 	0.89500 0.77760 0.33480 0.11900
H 	H 	0.88320 0.81580 0.35540 0.12600
H 	H 	0.84090 0.70190 0.50050 0.02100
H 	H 	0.79760 0.75020 0.49680 0.01500
H 	H 	0.81260 0.76800 0.54240 0.13000
H 	H 	0.81130 0.71550 0.56950 0.12500
H 	H 	0.86060 0.72440 0.54140 0.13500
H 	H 	0.66870 0.92530 0.94770 0.02000
H 	H 	0.76670 0.99010 0.79810 0.07000
H 	H 	0.68910 0.03430 0.82690 0.00500
H 	H 	0.77350 0.82990 0.98990 0.01600
H 	H 	0.72480 0.87260 0.99160 0.02200
H 	H 	0.76800 0.92680 0.94360 0.12600
H 	H 	0.77760 0.89500 0.99260 0.11700
H 	H 	0.81580 0.88320 0.94560 0.12600
H 	H 	0.70190 0.84090 0.95670 0.01800
H 	H 	0.75020 0.79760 0.95540 0.01300
H 	H 	0.76800 0.81260 0.87700 0.13000
H 	H 	0.71550 0.81130 0.90370 0.12500
H 	H 	0.72440 0.86060 0.87360 0.13500
H 	H 	0.45830 0.92530 0.66870 0.02000
H 	H 	0.44510 0.99010 0.76670 0.07100
H 	H 	0.44970 0.03430 0.68910 0.00300
H 	H 	0.40670 0.82990 0.77350 0.01800
H 	H 	0.41100 0.87260 0.72480 0.02500
H 	H 	0.36160 0.92680 0.76800 0.12700
H 	H 	0.33480 0.89500 0.77760 0.11900
H 	H 	0.35540 0.88320 0.81580 0.12600
H 	H 	0.50050 0.84090 0.70190 0.02100
H 	H 	0.49680 0.79760 0.75020 0.01500
H 	H 	0.54240 0.81260 0.76800 0.13000
H 	H 	0.56950 0.81130 0.71550 0.12500
H 	H 	0.54140 0.86060 0.72440 0.13500
H 	H 	0.94770 0.66870 0.92530 0.02000
H 	H 	0.79810 0.76670 0.99010 0.07000
H 	H 	0.82690 0.68910 0.03430 0.00500
H 	H 	0.98990 0.77350 0.82990 0.01600
H 	H 	0.99160 0.72480 0.87260 0.02200
H 	H 	0.94360 0.76800 0.92680 0.12600
H 	H 	0.99260 0.77760 0.89500 0.11700
H 	H 	0.94560 0.81580 0.88320 0.12600
H 	H 	0.95670 0.70190 0.84090 0.01800
H 	H 	0.95540 0.75020 0.79760 0.01300
H 	H 	0.87700 0.76800 0.81260 0.13000
H 	H 	0.90370 0.71550 0.81130 0.12500
H 	H 	0.87360 0.72440 0.86060 0.13500
H 	H 	0.92530 0.45830 0.94770 0.01900
H 	H 	0.99010 0.44510 0.79810 0.07100
H 	H 	0.03430 0.44970 0.82690 0.00300
H 	H 	0.82990 0.40670 0.98990 0.01600
H 	H 	0.87260 0.41100 0.99160 0.02200
H 	H 	0.92680 0.36160 0.94360 0.12600
H 	H 	0.89500 0.33480 0.99260 0.11700
H 	H 	0.88320 0.35540 0.94560 0.12600
H 	H 	0.84090 0.50050 0.95670 0.01800
H 	H 	0.79760 0.49680 0.95540 0.01300
H 	H 	0.81260 0.54240 0.87700 0.13000
H 	H 	0.81130 0.56950 0.90370 0.12500
H 	H 	0.86060 0.54140 0.87360 0.13500
H 	H 	0.66870 0.94770 0.45830 0.02500
H 	H 	0.76670 0.79810 0.44510 0.06200
H 	H 	0.68910 0.82690 0.44970 0.01500
H 	H 	0.77350 0.98990 0.40670 0.01500
H 	H 	0.72480 0.99160 0.41100 0.02100
H 	H 	0.76800 0.94360 0.36160 0.12800
H 	H 	0.77760 0.99260 0.33480 0.11900
H 	H 	0.81580 0.94560 0.35540 0.12700
H 	H 	0.70190 0.95670 0.50050 0.01700
H 	H 	0.75020 0.95540 0.49680 0.01200
H 	H 	0.76800 0.87700 0.54240 0.13100
H 	H 	0.71550 0.90370 0.56950 0.12600
H 	H 	0.72440 0.87360 0.54140 0.13700
H 	H 	0.45830 0.66870 0.94770 0.02500
H 	H 	0.44510 0.76670 0.79810 0.06200
H 	H 	0.44970 0.68910 0.82690 0.01500
H 	H 	0.40670 0.77350 0.98990 0.01500
H 	H 	0.41100 0.72480 0.99160 0.02100
H 	H 	0.36160 0.76800 0.94360 0.12800
H 	H 	0.33480 0.77760 0.99260 0.11900
H 	H 	0.35540 0.81580 0.94560 0.12700
H 	H 	0.50050 0.70190 0.95670 0.01700
H 	H 	0.49680 0.75020 0.95540 0.01200
H 	H 	0.54240 0.76800 0.87700 0.13100
H 	H 	0.56950 0.71550 0.90370 0.12600
H 	H 	0.54140 0.72440 0.87360 0.13700
H 	H 	0.94770 0.92530 0.45830 0.01900
H 	H 	0.79810 0.99010 0.44510 0.07100
H 	H 	0.82690 0.03430 0.44970 0.00300
H 	H 	0.98990 0.82990 0.40670 0.01600
H 	H 	0.99160 0.87260 0.41100 0.02200
H 	H 	0.94360 0.92680 0.36160 0.12600
H 	H 	0.99260 0.89500 0.33480 0.11700
H 	H 	0.94560 0.88320 0.35540 0.12600
H 	H 	0.95670 0.84090 0.50050 0.01800
H 	H 	0.95540 0.79760 0.49680 0.01300
H 	H 	0.87700 0.81260 0.54240 0.13000
H 	H 	0.90370 0.81130 0.56950 0.12500
H 	H 	0.87360 0.86060 0.54140 0.13500
H 	H 	0.92530 0.94770 0.66870 0.02000
H 	H 	0.99010 0.79810 0.76670 0.07000
H 	H 	0.03430 0.82690 0.68910 0.00500
H 	H 	0.82990 0.98990 0.77350 0.01600
H 	H 	0.87260 0.99160 0.72480 0.02200
H 	H 	0.92680 0.94360 0.76800 0.12600
H 	H 	0.89500 0.99260 0.77760 0.11700
H 	H 	0.88320 0.94560 0.81580 0.12600
H 	H 	0.84090 0.95670 0.70190 0.01800
H 	H 	0.79760 0.95540 0.75020 0.01300
H 	H 	0.81260 0.87700 0.76800 0.13000
H 	H 	0.81130 0.90370 0.71550 0.12500
H 	H 	0.86060 0.87360 0.72440 0.13500
H 	H 	0.66870 0.45830 0.92530 0.02000
H 	H 	0.76670 0.44510 0.99010 0.07100
H 	H 	0.68910 0.44970 0.03430 0.00300
H 	H 	0.77350 0.40670 0.82990 0.01800
H 	H 	0.72480 0.41100 0.87260 0.02500
H 	H 	0.76800 0.36160 0.92680 0.12700
H 	H 	0.77760 0.33480 0.89500 0.11900
H 	H 	0.81580 0.35540 0.88320 0.12600
H 	H 	0.70190 0.50050 0.84090 0.02100
H 	H 	0.75020 0.49680 0.79760 0.01500
H 	H 	0.76800 0.54240 0.81260 0.13000
H 	H 	0.71550 0.56950 0.81130 0.12500
H 	H 	0.72440 0.54140 0.86060 0.13500
H 	H 	0.55230 0.04170 0.57470 0.03000
H 	H 	0.70190 0.05490 0.50990 0.06300
H 	H 	0.67310 0.05030 0.46570 0.01800
H 	H 	0.51010 0.09330 0.67010 0.01500
H 	H 	0.50840 0.08900 0.62740 0.02200
H 	H 	0.55640 0.13840 0.57320 0.13100
H 	H 	0.50740 0.16520 0.60500 0.12300
H 	H 	0.55440 0.14460 0.61680 0.13000
H 	H 	0.54330 0.99950 0.65910 0.00100
H 	H 	0.54460 0.00320 0.70240 0.00500
H 	H 	0.62300 0.95760 0.68740 0.14000
H 	H 	0.59630 0.93050 0.68870 0.13700
H 	H 	0.62640 0.95860 0.63940 0.14500
H 	H 	0.04170 0.55230 0.83130 0.03000
H 	H 	0.05490 0.70190 0.73330 0.06300
H 	H 	0.05030 0.67310 0.81090 0.01700
H 	H 	0.09330 0.51010 0.72650 0.01500
H 	H 	0.08900 0.50840 0.77520 0.02200
H 	H 	0.13840 0.55640 0.73200 0.13100
H 	H 	0.16520 0.50740 0.72240 0.12300
H 	H 	0.14460 0.55440 0.68420 0.13000
H 	H 	0.99950 0.54330 0.79810 0.00300
H 	H 	0.00320 0.54460 0.74980 0.00600
H 	H 	0.95760 0.62300 0.73200 0.13900
H 	H 	0.93050 0.59630 0.78450 0.13600
H 	H 	0.95860 0.62640 0.77560 0.14500
H 	H 	0.83130 0.57470 0.04170 0.03000
H 	H 	0.73330 0.50990 0.05490 0.06300
H 	H 	0.81090 0.46570 0.05030 0.01800
H 	H 	0.72650 0.67010 0.09330 0.01500
H 	H 	0.77520 0.62740 0.08900 0.02200
H 	H 	0.73200 0.57320 0.13840 0.13100
H 	H 	0.72240 0.60500 0.16520 0.12300
H 	H 	0.68420 0.61680 0.14460 0.13000
H 	H 	0.79810 0.65910 0.99950 0.00300
H 	H 	0.74980 0.70240 0.00320 0.00600
H 	H 	0.73200 0.68740 0.95760 0.13900
H 	H 	0.78450 0.68870 0.93050 0.13600
H 	H 	0.77560 0.63940 0.95860 0.14400
H 	H 	0.57470 0.83130 0.55230 0.02700
H 	H 	0.50990 0.73330 0.70190 0.06200
H 	H 	0.46570 0.81090 0.67310 0.01600
H 	H 	0.67010 0.72650 0.51010 0.01700
H 	H 	0.62740 0.77520 0.50840 0.02400
H 	H 	0.57320 0.73200 0.55640 0.13000
H 	H 	0.60500 0.72240 0.50740 0.12200
H 	H 	0.61680 0.68420 0.55440 0.12900
H 	H 	0.65910 0.79810 0.54330 0.02000
H 	H 	0.70240 0.74980 0.54460 0.01400
H 	H 	0.68740 0.73200 0.62300 0.13100
H 	H 	0.68870 0.78450 0.59630 0.12600
H 	H 	0.63940 0.77560 0.62640 0.13600
H 	H 	0.57470 0.04170 0.83130 0.03000
H 	H 	0.50990 0.05490 0.73330 0.06300
H 	H 	0.46570 0.05030 0.81090 0.01800
H 	H 	0.67010 0.09330 0.72650 0.01500
H 	H 	0.62740 0.08900 0.77520 0.02200
H 	H 	0.57320 0.13840 0.73200 0.13100
H 	H 	0.60500 0.16520 0.72240 0.12300
H 	H 	0.61680 0.14460 0.68420 0.13000
H 	H 	0.65910 0.99950 0.79810 0.00300
H 	H 	0.70240 0.00320 0.74980 0.00600
H 	H 	0.68740 0.95760 0.73200 0.13900
H 	H 	0.68870 0.93050 0.78450 0.13600
H 	H 	0.63940 0.95860 0.77560 0.14400
H 	H 	0.83130 0.55230 0.57470 0.02700
H 	H 	0.73330 0.70190 0.50990 0.06200
H 	H 	0.81090 0.67310 0.46570 0.01600
H 	H 	0.72650 0.51010 0.67010 0.01700
H 	H 	0.77520 0.50840 0.62740 0.02400
H 	H 	0.73200 0.55640 0.57320 0.13000
H 	H 	0.72240 0.50740 0.60500 0.12200
H 	H 	0.68420 0.55440 0.61680 0.12900
H 	H 	0.79810 0.54330 0.65910 0.02000
H 	H 	0.74980 0.54460 0.70240 0.01400
H 	H 	0.73200 0.62300 0.68740 0.13100
H 	H 	0.78450 0.59630 0.68870 0.12600
H 	H 	0.77560 0.62640 0.63940 0.13600
H 	H 	0.04170 0.57470 0.55230 0.03000
H 	H 	0.05490 0.50990 0.70190 0.06300
H 	H 	0.05030 0.46570 0.67310 0.01800
H 	H 	0.09330 0.67010 0.51010 0.01500
H 	H 	0.08900 0.62740 0.50840 0.02200
H 	H 	0.13840 0.57320 0.55640 0.13100
H 	H 	0.16520 0.60500 0.50740 0.12300
H 	H 	0.14460 0.61680 0.55440 0.13000
H 	H 	0.99950 0.65910 0.54330 0.00100
H 	H 	0.00320 0.70240 0.54460 0.00500
H 	H 	0.95760 0.68740 0.62300 0.14000
H 	H 	0.93050 0.68870 0.59630 0.13700
H 	H 	0.95860 0.63940 0.62640 0.14500
H 	H 	0.55230 0.83130 0.04170 0.03000
H 	H 	0.70190 0.73330 0.05490 0.06300
H 	H 	0.67310 0.81090 0.05030 0.01700
H 	H 	0.51010 0.72650 0.09330 0.01500
H 	H 	0.50840 0.77520 0.08900 0.02200
H 	H 	0.55640 0.73200 0.13840 0.13100
H 	H 	0.50740 0.72240 0.16520 0.12300
H 	H 	0.55440 0.68420 0.14460 0.13000
H 	H 	0.54330 0.79810 0.99950 0.00300
H 	H 	0.54460 0.74980 0.00320 0.00600
H 	H 	0.62300 0.73200 0.95760 0.13900
H 	H 	0.59630 0.78450 0.93050 0.13600
H 	H 	0.62640 0.77560 0.95860 0.14500
H 	H 	0.83130 0.04170 0.55230 0.03000
H 	H 	0.73330 0.05490 0.70190 0.06300
H 	H 	0.81090 0.05030 0.67310 0.01700
H 	H 	0.72650 0.09330 0.51010 0.01500
H 	H 	0.77520 0.08900 0.50840 0.02200
H 	H 	0.73200 0.13840 0.55640 0.13100
H 	H 	0.72240 0.16520 0.50740 0.12300
H 	H 	0.68420 0.14460 0.55440 0.13000
H 	H 	0.79810 0.99950 0.54330 0.00300
H 	H 	0.74980 0.00320 0.54460 0.00600
H 	H 	0.73200 0.95760 0.62300 0.13900
H 	H 	0.78450 0.93050 0.59630 0.13600
H 	H 	0.77560 0.95860 0.62640 0.14500
H 	H 	0.57470 0.55230 0.04170 0.03000
H 	H 	0.50990 0.70190 0.05490 0.06300
H 	H 	0.46570 0.67310 0.05030 0.01800
H 	H 	0.67010 0.51010 0.09330 0.01500
H 	H 	0.62740 0.50840 0.08900 0.02200
H 	H 	0.57320 0.55640 0.13840 0.13100
H 	H 	0.60500 0.50740 0.16520 0.12300
H 	H 	0.61680 0.55440 0.14460 0.13000
H 	H 	0.65910 0.54330 0.99950 0.00100
H 	H 	0.70240 0.54460 0.00320 0.00500
H 	H 	0.68740 0.62300 0.95760 0.14000
H 	H 	0.68870 0.59630 0.93050 0.13700
H 	H 	0.63940 0.62640 0.95860 0.14500
H 	H 	0.55230 0.57470 0.83130 0.02700
H 	H 	0.70190 0.50990 0.73330 0.06200
H 	H 	0.67310 0.46570 0.81090 0.01600
H 	H 	0.51010 0.67010 0.72650 0.01700
H 	H 	0.50840 0.62740 0.77520 0.02400
H 	H 	0.55640 0.57320 0.73200 0.13000
H 	H 	0.50740 0.60500 0.72240 0.12200
H 	H 	0.55440 0.61680 0.68420 0.12900
H 	H 	0.54330 0.65910 0.79810 0.02000
H 	H 	0.54460 0.70240 0.74980 0.01400
H 	H 	0.62300 0.68740 0.73200 0.13100
H 	H 	0.59630 0.68870 0.78450 0.12600
H 	H 	0.62640 0.63940 0.77560 0.13600
H 	H 	0.04170 0.83130 0.57470 0.03000
H 	H 	0.05490 0.73330 0.50990 0.06300
H 	H 	0.05030 0.81090 0.46570 0.01800
H 	H 	0.09330 0.72650 0.67010 0.01500
H 	H 	0.08900 0.77520 0.62740 0.02200
H 	H 	0.13840 0.73200 0.57320 0.13100
H 	H 	0.16520 0.72240 0.60500 0.12300
H 	H 	0.14460 0.68420 0.61680 0.13000
H 	H 	0.99950 0.79810 0.65910 0.00300
H 	H 	0.00320 0.74980 0.70240 0.00600
H 	H 	0.95760 0.73200 0.68740 0.13900
H 	H 	0.93050 0.78450 0.68870 0.13600
H 	H 	0.95860 0.77560 0.63940 0.14400
C 	C 	0.53963 0.09419 0.98723 0.37900
C 	C 	0.54508 0.11060 0.01554 -0.10100
C 	C 	0.54449 0.08245 0.06161 -0.02500
C 	C 	0.54816 0.09956 0.08814 -0.00800
C 	C 	0.55158 0.14448 0.06964 0.01400
C 	C 	0.55234 0.17160 0.02338 -0.07600
C 	C 	0.54939 0.15431 0.99721 -0.01500
C 	C 	0.54904 0.07348 0.13768 -0.03600
C 	C 	0.55242 0.10962 0.14714 0.00800
C 	C 	0.55323 0.15155 0.10743 -0.03500
C 	C 	0.59238 0.02810 0.13762 0.01400
C 	C 	0.63942 0.03738 0.10524 -0.38200
C 	C 	0.50206 0.06306 0.16996 0.03200
C 	C 	0.45836 0.10598 0.17144 -0.40100
C 	C 	0.09419 0.53963 0.37895 0.41300
C 	C 	0.11060 0.54508 0.32878 -0.14700
C 	C 	0.08245 0.54449 0.31145 0.00100
C 	C 	0.09956 0.54816 0.26414 -0.02500
C 	C 	0.14448 0.55158 0.23430 0.03300
C 	C 	0.17160 0.55234 0.25268 -0.11700
C 	C 	0.15431 0.54939 0.29909 0.04200
C 	C 	0.07348 0.54904 0.23980 -0.03000
C 	C 	0.10962 0.55242 0.19082 0.00800
C 	C 	0.15155 0.55323 0.18779 -0.04100
C 	C 	0.02810 0.59238 0.24190 0.01000
C 	C 	0.03738 0.63942 0.21796 -0.37700
C 	C 	0.06306 0.50206 0.26492 0.02700
C 	C 	0.10598 0.45836 0.26422 -0.39600
C 	C 	0.98723 0.37895 0.53963 0.38300
C 	C 	0.01554 0.32878 0.54508 -0.10700
C 	C 	0.06161 0.31145 0.54449 -0.02200
C 	C 	0.08814 0.26414 0.54816 -0.01000
C 	C 	0.06964 0.23430 0.55158 0.01600
C 	C 	0.02338 0.25268 0.55234 -0.07900
C 	C 	0.99721 0.29909 0.54939 -0.01000
C 	C 	0.13768 0.23980 0.54904 -0.03800
C 	C 	0.14714 0.19082 0.55242 0.01100
C 	C 	0.10743 0.18779 0.55323 -0.03600
C 	C 	0.13762 0.24190 0.59238 0.01600
C 	C 	0.10524 0.21796 0.63942 -0.38200
C 	C 	0.16996 0.26492 0.50206 0.03400
C 	C 	0.17144 0.26422 0.45836 -0.40200
C 	C 	0.37895 0.98723 0.09419 0.37600
C 	C 	0.32878 0.01554 0.11060 -0.09800
C 	C 	0.31145 0.06161 0.08245 -0.02700
C 	C 	0.26414 0.08814 0.09956 -0.00700
C 	C 	0.23430 0.06964 0.14448 0.01200
C 	C 	0.25268 0.02338 0.17160 -0.07200
C 	C 	0.29909 0.99721 0.15431 -0.01900
C 	C 	0.23980 0.13768 0.07348 -0.03700
C 	C 	0.19082 0.14714 0.10962 0.00700
C 	C 	0.18779 0.10743 0.15155 -0.03300
C 	C 	0.24190 0.13762 0.02810 0.01500
C 	C 	0.21796 0.10524 0.03738 -0.38400
C 	C 	0.26492 0.16996 0.06306 0.03200
C 	C 	0.26422 0.17144 0.10598 -0.40100
C 	C 	0.53963 0.98723 0.37895 0.38300
C 	C 	0.54508 0.01554 0.32878 -0.10700
C 	C 	0.54449 0.06161 0.31145 -0.02200
C 	C 	0.54816 0.08814 0.26414 -0.01000
C 	C 	0.55158 0.06964 0.23430 0.01600
C 	C 	0.55234 0.02338 0.25268 -0.07900
C 	C 	0.54939 0.99721 0.29909 -0.01000
C 	C 	0.54904 0.13768 0.23980 -0.03800
C 	C 	0.55242 0.14714 0.19082 0.01100
C 	C 	0.55323 0.10743 0.18779 -0.03600
C 	C 	0.59238 0.13762 0.24190 0.01600
C 	C 	0.63942 0.10524 0.21796 -0.38200
C 	C 	0.50206 0.16996 0.26492 0.03400
C 	C 	0.45836 0.17144 0.26422 -0.40200
C 	C 	0.09419 0.37895 0.98723 0.37600
C 	C 	0.11060 0.32878 0.01554 -0.09800
C 	C 	0.08245 0.31145 0.06161 -0.02700
C 	C 	0.09956 0.26414 0.08814 -0.00700
C 	C 	0.14448 0.23430 0.06964 0.01200
C 	C 	0.17160 0.25268 0.02338 -0.07200
C 	C 	0.15431 0.29909 0.99721 -0.01900
C 	C 	0.07348 0.23980 0.13768 -0.03700
C 	C 	0.10962 0.19082 0.14714 0.00700
C 	C 	0.15155 0.18779 0.10743 -0.03300
C 	C 	0.02810 0.24190 0.13762 0.01500
C 	C 	0.03738 0.21796 0.10524 -0.38400
C 	C 	0.06306 0.26492 0.16996 0.03200
C 	C 	0.10598 0.26422 0.17144 -0.40100
C 	C 	0.98723 0.53963 0.09419 0.37900
C 	C 	0.01554 0.54508 0.11060 -0.10100
C 	C 	0.06161 0.54449 0.08245 -0.02500
C 	C 	0.08814 0.54816 0.09956 -0.00800
C 	C 	0.06964 0.55158 0.14448 0.01400
C 	C 	0.02338 0.55234 0.17160 -0.07600
C 	C 	0.99721 0.54939 0.15431 -0.01500
C 	C 	0.13768 0.54904 0.07348 -0.03600
C 	C 	0.14714 0.55242 0.10962 0.00800
C 	C 	0.10743 0.55323 0.15155 -0.03500
C 	C 	0.13762 0.59238 0.02810 0.01400
C 	C 	0.10524 0.63942 0.03738 -0.38200
C 	C 	0.16996 0.50206 0.06306 0.03200
C 	C 	0.17144 0.45836 0.10598 -0.40100
C 	C 	0.37895 0.09419 0.53963 0.41300
C 	C 	0.32878 0.11060 0.54508 -0.14700
C 	C 	0.31145 0.08245 0.54449 0.00100
C 	C 	0.26414 0.09956 0.54816 -0.02500
C 	C 	0.23430 0.14448 0.55158 0.03300
C 	C 	0.25268 0.17160 0.55234 -0.11700
C 	C 	0.29909 0.15431 0.54939 0.04200
C 	C 	0.23980 0.07348 0.54904 -0.03000
C 	C 	0.19082 0.10962 0.55242 0.00800
C 	C 	0.18779 0.15155 0.55323 -0.04100
C 	C 	0.24190 0.02810 0.59238 0.01000
C 	C 	0.21796 0.03738 0.63942 -0.37700
C 	C 	0.26492 0.06306 0.50206 0.02700
C 	C 	0.26422 0.10598 0.45836 -0.39600
C 	C 	0.53963 0.37895 0.09419 0.41300
C 	C 	0.54508 0.32878 0.11060 -0.14700
C 	C 	0.54449 0.31145 0.08245 0.00100
C 	C 	0.54816 0.26414 0.09956 -0.02500
C 	C 	0.55158 0.23430 0.14448 0.03300
C 	C 	0.55234 0.25268 0.17160 -0.11700
C 	C 	0.54939 0.29909 0.15431 0.04200
C 	C 	0.54904 0.23980 0.07348 -0.03000
C 	C 	0.55242 0.19082 0.10962 0.00800
C 	C 	0.55323 0.18779 0.15155 -0.04100
C 	C 	0.59238 0.24190 0.02810 0.01000
C 	C 	0.63942 0.21796 0.03738 -0.37700
C 	C 	0.50206 0.26492 0.06306 0.02700
C 	C 	0.45836 0.26422 0.10598 -0.39600
C 	C 	0.09419 0.98723 0.53963 0.37900
C 	C 	0.11060 0.01554 0.54508 -0.10100
C 	C 	0.08245 0.06161 0.54449 -0.02500
C 	C 	0.09956 0.08814 0.54816 -0.00800
C 	C 	0.14448 0.06964 0.55158 0.01400
C 	C 	0.17160 0.02338 0.55234 -0.07600
C 	C 	0.15431 0.99721 0.54939 -0.01500
C 	C 	0.07348 0.13768 0.54904 -0.03600
C 	C 	0.10962 0.14714 0.55242 0.00800
C 	C 	0.15155 0.10743 0.55323 -0.03500
C 	C 	0.02810 0.13762 0.59238 0.01400
C 	C 	0.03738 0.10524 0.63942 -0.38200
C 	C 	0.06306 0.16996 0.50206 0.03200
C 	C 	0.10598 0.17144 0.45836 -0.40100
C 	C 	0.98723 0.09419 0.37895 0.37600
C 	C 	0.01554 0.11060 0.32878 -0.09800
C 	C 	0.06161 0.08245 0.31145 -0.02700
C 	C 	0.08814 0.09956 0.26414 -0.00700
C 	C 	0.06964 0.14448 0.23430 0.01200
C 	C 	0.02338 0.17160 0.25268 -0.07200
C 	C 	0.99721 0.15431 0.29909 -0.01900
C 	C 	0.13768 0.07348 0.23980 -0.03700
C 	C 	0.14714 0.10962 0.19082 0.00700
C 	C 	0.10743 0.15155 0.18779 -0.03300
C 	C 	0.13762 0.02810 0.24190 0.01500
C 	C 	0.10524 0.03738 0.21796 -0.38400
C 	C 	0.16996 0.06306 0.26492 0.03200
C 	C 	0.17144 0.10598 0.26422 -0.40100
C 	C 	0.37895 0.53963 0.98723 0.38300
C 	C 	0.32878 0.54508 0.01554 -0.10700
C 	C 	0.31145 0.54449 0.06161 -0.02200
C 	C 	0.26414 0.54816 0.08814 -0.01000
C 	C 	0.23430 0.55158 0.06964 0.01600
C 	C 	0.25268 0.55234 0.02338 -0.07900
C 	C 	0.29909 0.54939 0.99721 -0.01000
C 	C 	0.23980 0.54904 0.13768 -0.03800
C 	C 	0.19082 0.55242 0.14714 0.01100
C 	C 	0.18779 0.55323 0.10743 -0.03600
C 	C 	0.24190 0.59238 0.13762 0.01600
C 	C 	0.21796 0.63942 0.10524 -0.38200
C 	C 	0.26492 0.50206 0.16996 0.03400
C 	C 	0.26422 0.45836 0.17144 -0.40200
C 	C 	0.40581 0.96037 0.51277 0.41400
C 	C 	0.38940 0.95492 0.48446 -0.15200
C 	C 	0.41755 0.95551 0.43839 0.00500
C 	C 	0.40044 0.95184 0.41186 -0.03100
C 	C 	0.35552 0.94842 0.43036 0.03400
C 	C 	0.32840 0.94766 0.47662 -0.12000
C 	C 	0.34569 0.95061 0.50279 0.04300
C 	C 	0.42652 0.95096 0.36232 -0.01800
C 	C 	0.39038 0.94758 0.35286 0.00600
C 	C 	0.34845 0.94677 0.39257 -0.03900
C 	C 	0.47190 0.90762 0.36238 0.00300
C 	C 	0.46262 0.86058 0.39476 -0.37000
C 	C 	0.43694 0.99794 0.33004 -0.01900
C 	C 	0.39402 0.04164 0.32856 -0.35000
C 	C 	0.96037 0.40581 0.12105 0.41400
C 	C 	0.95492 0.38940 0.17122 -0.15300
C 	C 	0.95551 0.41755 0.18855 0.00500
C 	C 	0.95184 0.40044 0.23586 -0.03200
C 	C 	0.94842 0.35552 0.26570 0.03400
C 	C 	0.94766 0.32840 0.24732 -0.12000
C 	C 	0.95061 0.34569 0.20091 0.04300
C 	C 	0.95096 0.42652 0.26020 -0.01700
C 	C 	0.94758 0.39038 0.30918 0.00600
C 	C 	0.94677 0.34845 0.31221 -0.03900
C 	C 	0.90762 0.47190 0.25810 0.00200
C 	C 	0.86058 0.46262 0.28204 -0.36900
C 	C 	0.99794 0.43694 0.23508 -0.02100
C 	C 	0.04164 0.39402 0.23578 -0.34800
C 	C 	0.12105 0.51277 0.96037 0.41400
C 	C 	0.17122 0.48446 0.95492 -0.15300
C 	C 	0.18855 0.43839 0.95551 0.00500
C 	C 	0.23586 0.41186 0.95184 -0.03200
C 	C 	0.26570 0.43036 0.94842 0.03400
C 	C 	0.24732 0.47662 0.94766 -0.12000
C 	C 	0.20091 0.50279 0.95061 0.04400
C 	C 	0.26020 0.36232 0.95096 -0.01700
C 	C 	0.30918 0.35286 0.94758 0.00600
C 	C 	0.31221 0.39257 0.94677 -0.04000
C 	C 	0.25810 0.36238 0.90762 0.00200
C 	C 	0.28204 0.39476 0.86058 -0.36900
C 	C 	0.23508 0.33004 0.99794 -0.02300
C 	C 	0.23578 0.32856 0.04164 -0.34600
C 	C 	0.51277 0.12105 0.40581 0.41400
C 	C 	0.48446 0.17122 0.38940 -0.14900
C 	C 	0.43839 0.18855 0.41755 0.00200
C 	C 	0.41186 0.23586 0.40044 -0.02500
C 	C 	0.43036 0.26570 0.35552 0.03400
C 	C 	0.47662 0.24732 0.32840 -0.11800
C 	C 	0.50279 0.20091 0.34569 0.04300
C 	C 	0.36232 0.26020 0.42652 -0.03300
C 	C 	0.35286 0.30918 0.39038 0.01200
C 	C 	0.39257 0.31221 0.34845 -0.04300
C 	C 	0.36238 0.25810 0.47190 0.01200
C 	C 	0.39476 0.28204 0.46262 -0.37700
C 	C 	0.33004 0.23508 0.43694 0.03000
C 	C 	0.32856 0.23578 0.39402 -0.39800
C 	C 	0.51277 0.96037 0.12105 0.41400
C 	C 	0.48446 0.95492 0.17122 -0.15300
C 	C 	0.43839 0.95551 0.18855 0.00500
C 	C 	0.41186 0.95184 0.23586 -0.03200
C 	C 	0.43036 0.94842 0.26570 0.03400
C 	C 	0.47662 0.94766 0.24732 -0.12000
C 	C 	0.50279 0.95061 0.20091 0.04400
C 	C 	0.36232 0.95096 0.26020 -0.01700
C 	C 	0.35286 0.94758 0.30918 0.00600
C 	C 	0.39257 0.94677 0.31221 -0.04000
C 	C 	0.36238 0.90762 0.25810 0.00200
C 	C 	0.39476 0.86058 0.28204 -0.36900
C 	C 	0.33004 0.99794 0.23508 -0.02300
C 	C 	0.32856 0.04164 0.23578 -0.34600
C 	C 	0.12105 0.40581 0.51277 0.41400
C 	C 	0.17122 0.38940 0.48446 -0.14900
C 	C 	0.18855 0.41755 0.43839 0.00200
C 	C 	0.23586 0.40044 0.41186 -0.02500
C 	C 	0.26570 0.35552 0.43036 0.03400
C 	C 	0.24732 0.32840 0.47662 -0.11800
C 	C 	0.20091 0.34569 0.50279 0.04300
C 	C 	0.26020 0.42652 0.36232 -0.03300
C 	C 	0.30918 0.39038 0.35286 0.01200
C 	C 	0.31221 0.34845 0.39257 -0.04300
C 	C 	0.25810 0.47190 0.36238 0.01200
C 	C 	0.28204 0.46262 0.39476 -0.37700
C 	C 	0.23508 0.43694 0.33004 0.03000
C 	C 	0.23578 0.39402 0.32856 -0.39800
C 	C 	0.96037 0.51277 0.40581 0.41400
C 	C 	0.95492 0.48446 0.38940 -0.15200
C 	C 	0.95551 0.43839 0.41755 0.00500
C 	C 	0.95184 0.41186 0.40044 -0.03100
C 	C 	0.94842 0.43036 0.35552 0.03400
C 	C 	0.94766 0.47662 0.32840 -0.12000
C 	C 	0.95061 0.50279 0.34569 0.04300
C 	C 	0.95096 0.36232 0.42652 -0.01800
C 	C 	0.94758 0.35286 0.39038 0.00600
C 	C 	0.94677 0.39257 0.34845 -0.03900
C 	C 	0.90762 0.36238 0.47190 0.00300
C 	C 	0.86058 0.39476 0.46262 -0.37000
C 	C 	0.99794 0.33004 0.43694 -0.01900
C 	C 	0.04164 0.32856 0.39402 -0.35000
C 	C 	0.40581 0.12105 0.96037 0.41400
C 	C 	0.38940 0.17122 0.95492 -0.15300
C 	C 	0.41755 0.18855 0.95551 0.00500
C 	C 	0.40044 0.23586 0.95184 -0.03200
C 	C 	0.35552 0.26570 0.94842 0.03400
C 	C 	0.32840 0.24732 0.94766 -0.12000
C 	C 	0.34569 0.20091 0.95061 0.04300
C 	C 	0.42652 0.26020 0.95096 -0.01700
C 	C 	0.39038 0.30918 0.94758 0.00600
C 	C 	0.34845 0.31221 0.94677 -0.03900
C 	C 	0.47190 0.25810 0.90762 0.00200
C 	C 	0.46262 0.28204 0.86058 -0.36900
C 	C 	0.43694 0.23508 0.99794 -0.02100
C 	C 	0.39402 0.23578 0.04164 -0.34800
C 	C 	0.12105 0.96037 0.40581 0.41400
C 	C 	0.17122 0.95492 0.38940 -0.15300
C 	C 	0.18855 0.95551 0.41755 0.00500
C 	C 	0.23586 0.95184 0.40044 -0.03200
C 	C 	0.26570 0.94842 0.35552 0.03400
C 	C 	0.24732 0.94766 0.32840 -0.12000
C 	C 	0.20091 0.95061 0.34569 0.04300
C 	C 	0.26020 0.95096 0.42652 -0.01700
C 	C 	0.30918 0.94758 0.39038 0.00600
C 	C 	0.31221 0.94677 0.34845 -0.03900
C 	C 	0.25810 0.90762 0.47190 0.00200
C 	C 	0.28204 0.86058 0.46262 -0.36900
C 	C 	0.23508 0.99794 0.43694 -0.02100
C 	C 	0.23578 0.04164 0.39402 -0.34800
C 	C 	0.51277 0.40581 0.96037 0.41400
C 	C 	0.48446 0.38940 0.95492 -0.15200
C 	C 	0.43839 0.41755 0.95551 0.00500
C 	C 	0.41186 0.40044 0.95184 -0.03100
C 	C 	0.43036 0.35552 0.94842 0.03400
C 	C 	0.47662 0.32840 0.94766 -0.12000
C 	C 	0.50279 0.34569 0.95061 0.04300
C 	C 	0.36232 0.42652 0.95096 -0.01800
C 	C 	0.35286 0.39038 0.94758 0.00600
C 	C 	0.39257 0.34845 0.94677 -0.03900
C 	C 	0.36238 0.47190 0.90762 0.00300
C 	C 	0.39476 0.46262 0.86058 -0.37000
C 	C 	0.33004 0.43694 0.99794 -0.01900
C 	C 	0.32856 0.39402 0.04164 -0.35000
C 	C 	0.40581 0.51277 0.12105 0.41400
C 	C 	0.38940 0.48446 0.17122 -0.14900
C 	C 	0.41755 0.43839 0.18855 0.00200
C 	C 	0.40044 0.41186 0.23586 -0.02500
C 	C 	0.35552 0.43036 0.26570 0.03400
C 	C 	0.32840 0.47662 0.24732 -0.11800
C 	C 	0.34569 0.50279 0.20091 0.04300
C 	C 	0.42652 0.36232 0.26020 -0.03300
C 	C 	0.39038 0.35286 0.30918 0.01200
C 	C 	0.34845 0.39257 0.31221 -0.04300
C 	C 	0.47190 0.36238 0.25810 0.01200
C 	C 	0.46262 0.39476 0.28204 -0.37700
C 	C 	0.43694 0.33004 0.23508 0.03000
C 	C 	0.39402 0.32856 0.23578 -0.39800
C 	C 	0.96037 0.12105 0.51277 0.41400
C 	C 	0.95492 0.17122 0.48446 -0.15300
C 	C 	0.95551 0.18855 0.43839 0.00500
C 	C 	0.95184 0.23586 0.41186 -0.03200
C 	C 	0.94842 0.26570 0.43036 0.03400
C 	C 	0.94766 0.24732 0.47662 -0.12000
C 	C 	0.95061 0.20091 0.50279 0.04400
C 	C 	0.95096 0.26020 0.36232 -0.01700
C 	C 	0.94758 0.30918 0.35286 0.00600
C 	C 	0.94677 0.31221 0.39257 -0.04000
C 	C 	0.90762 0.25810 0.36238 0.00200
C 	C 	0.86058 0.28204 0.39476 -0.36900
C 	C 	0.99794 0.23508 0.33004 -0.02300
C 	C 	0.04164 0.23578 0.32856 -0.34600
C 	C 	0.46037 0.90581 0.01277 0.43900
C 	C 	0.45492 0.88940 0.98446 -0.18500
C 	C 	0.45551 0.91755 0.93839 0.02200
C 	C 	0.45184 0.90044 0.91186 -0.03800
C 	C 	0.44842 0.85552 0.93036 0.04800
C 	C 	0.44766 0.82840 0.97662 -0.15000
C 	C 	0.45061 0.84569 0.00279 0.08600
C 	C 	0.45096 0.92652 0.86232 -0.03000
C 	C 	0.44758 0.89038 0.85286 0.01500
C 	C 	0.44677 0.84845 0.89257 -0.04900
C 	C 	0.40762 0.97190 0.86238 0.00900
C 	C 	0.36058 0.96262 0.89476 -0.37100
C 	C 	0.49794 0.93694 0.83004 0.02900
C 	C 	0.54164 0.89402 0.82856 -0.39600
C 	C 	0.90581 0.46037 0.62105 0.41500
C 	C 	0.88940 0.45492 0.67122 -0.15100
C 	C 	0.91755 0.45551 0.68855 0.00300
C 	C 	0.90044 0.45184 0.73586 -0.02600
C 	C 	0.85552 0.44842 0.76570 0.03400
C 	C 	0.82840 0.44766 0.74732 -0.11900
C 	C 	0.84569 0.45061 0.70091 0.04300
C 	C 	0.92652 0.45096 0.76020 -0.03500
C 	C 	0.89038 0.44758 0.80918 0.01500
C 	C 	0.84845 0.44677 0.81221 -0.04400
C 	C 	0.97190 0.40762 0.75810 0.01300
C 	C 	0.96262 0.36058 0.78204 -0.37500
C 	C 	0.93694 0.49794 0.73508 0.03200
C 	C 	0.89402 0.54164 0.73578 -0.39900
C 	C 	0.01277 0.62105 0.46037 0.44200
C 	C 	0.98446 0.67122 0.45492 -0.18800
C 	C 	0.93839 0.68855 0.45551 0.02400
C 	C 	0.91186 0.73586 0.45184 -0.03900
C 	C 	0.93036 0.76570 0.44842 0.04900
C 	C 	0.97662 0.74732 0.44766 -0.15200
C 	C 	0.00279 0.70091 0.45061 0.08900
C 	C 	0.86232 0.76020 0.45096 -0.02700
C 	C 	0.85286 0.80918 0.44758 0.01300
C 	C 	0.89257 0.81221 0.44677 -0.04900
C 	C 	0.86238 0.75810 0.40762 0.00700
C 	C 	0.89476 0.78204 0.36058 -0.37100
C 	C 	0.83004 0.73508 0.49794 0.02600
C 	C 	0.82856 0.73578 0.54164 -0.39400
C 	C 	0.62105 0.01277 0.90581 0.43700
C 	C 	0.67122 0.98446 0.88940 -0.18200
C 	C 	0.68855 0.93839 0.91755 0.02000
C 	C 	0.73586 0.91186 0.90044 -0.03700
C 	C 	0.76570 0.93036 0.85552 0.04700
C 	C 	0.74732 0.97662 0.82840 -0.14600
C 	C 	0.70091 0.00279 0.84569 0.08100
C 	C 	0.76020 0.86232 0.92652 -0.03000
C 	C 	0.80918 0.85286 0.89038 0.01500
C 	C 	0.81221 0.89257 0.84845 -0.04800
C 	C 	0.75810 0.86238 0.97190 0.00900
C 	C 	0.78204 0.89476 0.96262 -0.37100
C 	C 	0.73508 0.83004 0.93694 0.02900
C 	C 	0.73578 0.82856 0.89402 -0.39600
C 	C 	0.46037 0.01277 0.62105 0.44200
C 	C 	0.45492 0.98446 0.67122 -0.18800
C 	C 	0.45551 0.93839 0.68855 0.02400
C 	C 	0.45184 0.91186 0.73586 -0.03900
C 	C 	0.44842 0.93036 0.76570 0.04900
C 	C 	0.44766 0.97662 0.74732 -0.15200
C 	C 	0.45061 0.00279 0.70091 0.08900
C 	C 	0.45096 0.86232 0.76020 -0.02700
C 	C 	0.44758 0.85286 0.80918 0.01300
C 	C 	0.44677 0.89257 0.81221 -0.04900
C 	C 	0.40762 0.86238 0.75810 0.00700
C 	C 	0.36058 0.89476 0.78204 -0.37100
C 	C 	0.49794 0.83004 0.73508 0.02600
C 	C 	0.54164 0.82856 0.73578 -0.39400
C 	C 	0.90581 0.62105 0.01277 0.43700
C 	C 	0.88940 0.67122 0.98446 -0.18200
C 	C 	0.91755 0.68855 0.93839 0.02000
C 	C 	0.90044 0.73586 0.91186 -0.03700
C 	C 	0.85552 0.76570 0.93036 0.04700
C 	C 	0.82840 0.74732 0.97662 -0.14600
C 	C 	0.84569 0.70091 0.00279 0.08100
C 	C 	0.92652 0.76020 0.86232 -0.03000
C 	C 	0.89038 0.80918 0.85286 0.01500
C 	C 	0.84845 0.81221 0.89257 -0.04800
C 	C 	0.97190 0.75810 0.86238 0.00900
C 	C 	0.96262 0.78204 0.89476 -0.37100
C 	C 	0.93694 0.73508 0.83004 0.02900
C 	C 	0.89402 0.73578 0.82856 -0.39600
C 	C 	0.01277 0.46037 0.90581 0.43900
C 	C 	0.98446 0.45492 0.88940 -0.18500
C 	C 	0.93839 0.45551 0.91755 0.02200
C 	C 	0.91186 0.45184 0.90044 -0.03800
C 	C 	0.93036 0.44842 0.85552 0.04800
C 	C 	0.97662 0.44766 0.82840 -0.15000
C 	C 	0.00279 0.45061 0.84569 0.08600
C 	C 	0.86232 0.45096 0.92652 -0.03000
C 	C 	0.85286 0.44758 0.89038 0.01500
C 	C 	0.89257 0.44677 0.84845 -0.04900
C 	C 	0.86238 0.40762 0.97190 0.00900
C 	C 	0.89476 0.36058 0.96262 -0.37100
C 	C 	0.83004 0.49794 0.93694 0.02900
C 	C 	0.82856 0.54164 0.89402 -0.39600
C 	C 	0.62105 0.90581 0.46037 0.41500
C 	C 	0.67122 0.88940 0.45492 -0.15100
C 	C 	0.68855 0.91755 0.45551 0.00300
C 	C 	0.73586 0.90044 0.45184 -0.02600
C 	C 	0.76570 0.85552 0.44842 0.03400
C 	C 	0.74732 0.82840 0.44766 -0.11900
C 	C 	0.70091 0.84569 0.45061 0.04300
C 	C 	0.76020 0.92652 0.45096 -0.03500
C 	C 	0.80918 0.89038 0.44758 0.01500
C 	C 	0.81221 0.84845 0.44677 -0.04400
C 	C 	0.75810 0.97190 0.40762 0.01300
C 	C 	0.78204 0.96262 0.36058 -0.37500
C 	C 	0.73508 0.93694 0.49794 0.03200
C 	C 	0.73578 0.89402 0.54164 -0.39900
C 	C 	0.46037 0.62105 0.90581 0.41500
C 	C 	0.45492 0.67122 0.88940 -0.15100
C 	C 	0.45551 0.68855 0.91755 0.00300
C 	C 	0.45184 0.73586 0.90044 -0.02600
C 	C 	0.44842 0.76570 0.85552 0.03400
C 	C 	0.44766 0.74732 0.82840 -0.11900
C 	C 	0.45061 0.70091 0.84569 0.04300
C 	C 	0.45096 0.76020 0.92652 -0.03500
C 	C 	0.44758 0.80918 0.89038 0.01500
C 	C 	0.44677 0.81221 0.84845 -0.04400
C 	C 	0.40762 0.75810 0.97190 0.01300
C 	C 	0.36058 0.78204 0.96262 -0.37500
C 	C 	0.49794 0.73508 0.93694 0.03200
C 	C 	0.54164 0.73578 0.89402 -0.39900
C 	C 	0.90581 0.01277 0.46037 0.43900
C 	C 	0.88940 0.98446 0.45492 -0.18500
C 	C 	0.91755 0.93839 0.45551 0.02200
C 	C 	0.90044 0.91186 0.45184 -0.03800
C 	C 	0.85552 0.93036 0.44842 0.04800
C 	C 	0.82840 0.97662 0.44766 -0.15000
C 	C 	0.84569 0.00279 0.45061 0.08600
C 	C 	0.92652 0.86232 0.45096 -0.03000
C 	C 	0.89038 0.85286 0.44758 0.01500
C 	C 	0.84845 0.89257 0.44677 -0.04900
C 	C 	0.97190 0.86238 0.40762 0.00900
C 	C 	0.96262 0.89476 0.36058 -0.37100
C 	C 	0.93694 0.83004 0.49794 0.02900
C 	C 	0.89402 0.82856 0.54164 -0.39600
C 	C 	0.01277 0.90581 0.62105 0.43700
C 	C 	0.98446 0.88940 0.67122 -0.18200
C 	C 	0.93839 0.91755 0.68855 0.02000
C 	C 	0.91186 0.90044 0.73586 -0.03700
C 	C 	0.93036 0.85552 0.76570 0.04700
C 	C 	0.97662 0.82840 0.74732 -0.14600
C 	C 	0.00279 0.84569 0.70091 0.08100
C 	C 	0.86232 0.92652 0.76020 -0.03000
C 	C 	0.85286 0.89038 0.80918 0.01500
C 	C 	0.89257 0.84845 0.81221 -0.04800
C 	C 	0.86238 0.97190 0.75810 0.00900
C 	C 	0.89476 0.96262 0.78204 -0.37100
C 	C 	0.83004 0.93694 0.73508 0.02900
C 	C 	0.82856 0.89402 0.73578 -0.39600
C 	C 	0.62105 0.46037 0.01277 0.44200
C 	C 	0.67122 0.45492 0.98446 -0.18800
C 	C 	0.68855 0.45551 0.93839 0.02400
C 	C 	0.73586 0.45184 0.91186 -0.03900
C 	C 	0.76570 0.44842 0.93036 0.04900
C 	C 	0.74732 0.44766 0.97662 -0.15200
C 	C 	0.70091 0.45061 0.00279 0.08900
C 	C 	0.76020 0.45096 0.86232 -0.02700
C 	C 	0.80918 0.44758 0.85286 0.01300
C 	C 	0.81221 0.44677 0.89257 -0.04900
C 	C 	0.75810 0.40762 0.86238 0.00700
C 	C 	0.78204 0.36058 0.89476 -0.37100
C 	C 	0.73508 0.49794 0.83004 0.02600
C 	C 	0.73578 0.54164 0.82856 -0.39400
C 	C 	0.59419 0.03963 0.48723 0.41400
C 	C 	0.61060 0.04508 0.51554 -0.14600
C 	C 	0.58245 0.04449 0.56161 -0.00000
C 	C 	0.59956 0.04816 0.58814 -0.02000
C 	C 	0.64448 0.05158 0.56964 0.03300
C 	C 	0.67160 0.05234 0.52338 -0.11600
C 	C 	0.65431 0.04939 0.49721 0.04200
C 	C 	0.57348 0.04904 0.63768 -0.04500
C 	C 	0.60962 0.05242 0.64714 0.01700
C 	C 	0.65155 0.05323 0.60743 -0.04500
C 	C 	0.52810 0.09238 0.63762 0.02000
C 	C 	0.53738 0.13942 0.60524 -0.38300
C 	C 	0.56306 0.00206 0.66996 0.07100
C 	C 	0.60598 0.95836 0.67144 -0.43800
C 	C 	0.03963 0.59419 0.87895 0.41300
C 	C 	0.04508 0.61060 0.82878 -0.14700
C 	C 	0.04449 0.58245 0.81145 -0.00000
C 	C 	0.04816 0.59956 0.76414 -0.02000
C 	C 	0.05158 0.64448 0.73430 0.03300
C 	C 	0.05234 0.67160 0.75268 -0.11600
C 	C 	0.04939 0.65431 0.79909 0.04200
C 	C 	0.04904 0.57348 0.73980 -0.04400
C 	C 	0.05242 0.60962 0.69082 0.01700
C 	C 	0.05323 0.65155 0.68779 -0.04500
C 	C 	0.09238 0.52810 0.74190 0.01900
C 	C 	0.13942 0.53738 0.71796 -0.38200
C 	C 	0.00206 0.56306 0.76492 0.06900
C 	C 	0.95836 0.60598 0.76422 -0.43500
C 	C 	0.87895 0.48723 0.03963 0.41300
C 	C 	0.82878 0.51554 0.04508 -0.14700
C 	C 	0.81145 0.56161 0.04449 -0.00000
C 	C 	0.76414 0.58814 0.04816 -0.02000
C 	C 	0.73430 0.56964 0.05158 0.03300
C 	C 	0.75268 0.52338 0.05234 -0.11600
C 	C 	0.79909 0.49721 0.04939 0.04200
C 	C 	0.73980 0.63768 0.04904 -0.04400
C 	C 	0.69082 0.64714 0.05242 0.01700
C 	C 	0.68779 0.60743 0.05323 -0.04500
C 	C 	0.74190 0.63762 0.09238 0.01900
C 	C 	0.71796 0.60524 0.13942 -0.38200
C 	C 	0.76492 0.66996 0.00206 0.06700
C 	C 	0.76422 0.67144 0.95836 -0.43300
C 	C 	0.48723 0.87895 0.59419 0.41300
C 	C 	0.51554 0.82878 0.61060 -0.14900
C 	C 	0.56161 0.81145 0.58245 0.00200
C 	C 	0.58814 0.76414 0.59956 -0.02500
C 	C 	0.56964 0.73430 0.64448 0.03300
C 	C 	0.52338 0.75268 0.67160 -0.11800
C 	C 	0.49721 0.79909 0.65431 0.04300
C 	C 	0.63768 0.73980 0.57348 -0.03300
C 	C 	0.64714 0.69082 0.60962 0.01200
C 	C 	0.60743 0.68779 0.65155 -0.04300
C 	C 	0.63762 0.74190 0.52810 0.01200
C 	C 	0.60524 0.71796 0.53738 -0.37700
C 	C 	0.66996 0.76492 0.56306 0.03000
C 	C 	0.67144 0.76422 0.60598 -0.39700
C 	C 	0.48723 0.03963 0.87895 0.41300
C 	C 	0.51554 0.04508 0.82878 -0.14700
C 	C 	0.56161 0.04449 0.81145 -0.00000
C 	C 	0.58814 0.04816 0.76414 -0.02000
C 	C 	0.56964 0.05158 0.73430 0.03300
C 	C 	0.52338 0.05234 0.75268 -0.11600
C 	C 	0.49721 0.04939 0.79909 0.04200
C 	C 	0.63768 0.04904 0.73980 -0.04400
C 	C 	0.64714 0.05242 0.69082 0.01700
C 	C 	0.60743 0.05323 0.68779 -0.04500
C 	C 	0.63762 0.09238 0.74190 0.01900
C 	C 	0.60524 0.13942 0.71796 -0.38200
C 	C 	0.66996 0.00206 0.76492 0.06700
C 	C 	0.67144 0.95836 0.76422 -0.43300
C 	C 	0.87895 0.59419 0.48723 0.41300
C 	C 	0.82878 0.61060 0.51554 -0.14900
C 	C 	0.81145 0.58245 0.56161 0.00200
C 	C 	0.76414 0.59956 0.58814 -0.02500
C 	C 	0.73430 0.64448 0.56964 0.03300
C 	C 	0.75268 0.67160 0.52338 -0.11800
C 	C 	0.79909 0.65431 0.49721 0.04300
C 	C 	0.73980 0.57348 0.63768 -0.03300
C 	C 	0.69082 0.60962 0.64714 0.01200
C 	C 	0.68779 0.65155 0.60743 -0.04300
C 	C 	0.74190 0.52810 0.63762 0.01200
C 	C 	0.71796 0.53738 0.60524 -0.37700
C 	C 	0.76492 0.56306 0.66996 0.03000
C 	C 	0.76422 0.60598 0.67144 -0.39700
C 	C 	0.03963 0.48723 0.59419 0.41400
C 	C 	0.04508 0.51554 0.61060 -0.14600
C 	C 	0.04449 0.56161 0.58245 -0.00000
C 	C 	0.04816 0.58814 0.59956 -0.02000
C 	C 	0.05158 0.56964 0.64448 0.03300
C 	C 	0.05234 0.52338 0.67160 -0.11600
C 	C 	0.04939 0.49721 0.65431 0.04200
C 	C 	0.04904 0.63768 0.57348 -0.04500
C 	C 	0.05242 0.64714 0.60962 0.01700
C 	C 	0.05323 0.60743 0.65155 -0.04500
C 	C 	0.09238 0.63762 0.52810 0.02000
C 	C 	0.13942 0.60524 0.53738 -0.38300
C 	C 	0.00206 0.66996 0.56306 0.07100
C 	C 	0.95836 0.67144 0.60598 -0.43800
C 	C 	0.59419 0.87895 0.03963 0.41300
C 	C 	0.61060 0.82878 0.04508 -0.14700
C 	C 	0.58245 0.81145 0.04449 -0.00000
C 	C 	0.59956 0.76414 0.04816 -0.02000
C 	C 	0.64448 0.73430 0.05158 0.03300
C 	C 	0.67160 0.75268 0.05234 -0.11600
C 	C 	0.65431 0.79909 0.04939 0.04200
C 	C 	0.57348 0.73980 0.04904 -0.04400
C 	C 	0.60962 0.69082 0.05242 0.01700
C 	C 	0.65155 0.68779 0.05323 -0.04500
C 	C 	0.52810 0.74190 0.09238 0.01900
C 	C 	0.53738 0.71796 0.13942 -0.38200
C 	C 	0.56306 0.76492 0.00206 0.06900
C 	C 	0.60598 0.76422 0.95836 -0.43500
C 	C 	0.87895 0.03963 0.59419 0.41300
C 	C 	0.82878 0.04508 0.61060 -0.14700
C 	C 	0.81145 0.04449 0.58245 -0.00000
C 	C 	0.76414 0.04816 0.59956 -0.02000
C 	C 	0.73430 0.05158 0.64448 0.03300
C 	C 	0.75268 0.05234 0.67160 -0.11600
C 	C 	0.79909 0.04939 0.65431 0.04200
C 	C 	0.73980 0.04904 0.57348 -0.04400
C 	C 	0.69082 0.05242 0.60962 0.01700
C 	C 	0.68779 0.05323 0.65155 -0.04500
C 	C 	0.74190 0.09238 0.52810 0.01900
C 	C 	0.71796 0.13942 0.53738 -0.38200
C 	C 	0.76492 0.00206 0.56306 0.06900
C 	C 	0.76422 0.95836 0.60598 -0.43500
C 	C 	0.48723 0.59419 0.03963 0.41400
C 	C 	0.51554 0.61060 0.04508 -0.14600
C 	C 	0.56161 0.58245 0.04449 -0.00000
C 	C 	0.58814 0.59956 0.04816 -0.02000
C 	C 	0.56964 0.64448 0.05158 0.03300
C 	C 	0.52338 0.67160 0.05234 -0.11600
C 	C 	0.49721 0.65431 0.04939 0.04200
C 	C 	0.63768 0.57348 0.04904 -0.04500
C 	C 	0.64714 0.60962 0.05242 0.01700
C 	C 	0.60743 0.65155 0.05323 -0.04500
C 	C 	0.63762 0.52810 0.09238 0.02000
C 	C 	0.60524 0.53738 0.13942 -0.38300
C 	C 	0.66996 0.56306 0.00206 0.07100
C 	C 	0.67144 0.60598 0.95836 -0.43800
C 	C 	0.59419 0.48723 0.87895 0.41300
C 	C 	0.61060 0.51554 0.82878 -0.14900
C 	C 	0.58245 0.56161 0.81145 0.00200
C 	C 	0.59956 0.58814 0.76414 -0.02500
C 	C 	0.64448 0.56964 0.73430 0.03300
C 	C 	0.67160 0.52338 0.75268 -0.11800
C 	C 	0.65431 0.49721 0.79909 0.04300
C 	C 	0.57348 0.63768 0.73980 -0.03300
C 	C 	0.60962 0.64714 0.69082 0.01200
C 	C 	0.65155 0.60743 0.68779 -0.04300
C 	C 	0.52810 0.63762 0.74190 0.01200
C 	C 	0.53738 0.60524 0.71796 -0.37700
C 	C 	0.56306 0.66996 0.76492 0.03000
C 	C 	0.60598 0.67144 0.76422 -0.39700
C 	C 	0.03963 0.87895 0.48723 0.41300
C 	C 	0.04508 0.82878 0.51554 -0.14700
C 	C 	0.04449 0.81145 0.56161 -0.00000
C 	C 	0.04816 0.76414 0.58814 -0.02000
C 	C 	0.05158 0.73430 0.56964 0.03300
C 	C 	0.05234 0.75268 0.52338 -0.11600
C 	C 	0.04939 0.79909 0.49721 0.04200
C 	C 	0.04904 0.73980 0.63768 -0.04400
C 	C 	0.05242 0.69082 0.64714 0.01700
C 	C 	0.05323 0.68779 0.60743 -0.04500
C 	C 	0.09238 0.74190 0.63762 0.01900
C 	C 	0.13942 0.71796 0.60524 -0.38200
C 	C 	0.00206 0.76492 0.66996 0.06700
C 	C 	0.95836 0.76422 0.67144 -0.43300
O 	O 	0.53444 0.05306 0.00670 -0.61700
O 	O 	0.53558 0.11916 0.94852 -0.43500
O 	O 	0.05306 0.53444 0.40580 -0.63300
O 	O 	0.11916 0.53558 0.39674 -0.44300
O 	O 	0.00670 0.40580 0.53444 -0.62400
O 	O 	0.94852 0.39674 0.53558 -0.43700
O 	O 	0.40580 0.00670 0.05306 -0.61600
O 	O 	0.39674 0.94852 0.11916 -0.43500
O 	O 	0.53444 0.00670 0.40580 -0.62400
O 	O 	0.53558 0.94852 0.39674 -0.43700
O 	O 	0.05306 0.40580 0.00670 -0.61600
O 	O 	0.11916 0.39674 0.94852 -0.43500
O 	O 	0.00670 0.53444 0.05306 -0.61700
O 	O 	0.94852 0.53558 0.11916 -0.43500
O 	O 	0.40580 0.05306 0.53444 -0.63300
O 	O 	0.39674 0.11916 0.53558 -0.44300
O 	O 	0.53444 0.40580 0.05306 -0.63300
O 	O 	0.53558 0.39674 0.11916 -0.44300
O 	O 	0.05306 0.00670 0.53444 -0.61700
O 	O 	0.11916 0.94852 0.53558 -0.43500
O 	O 	0.00670 0.05306 0.40580 -0.61600
O 	O 	0.94852 0.11916 0.39674 -0.43500
O 	O 	0.40580 0.53444 0.00670 -0.62400
O 	O 	0.39674 0.53558 0.94852 -0.43700
O 	O 	0.44694 0.96556 0.49330 -0.63800
O 	O 	0.38084 0.96442 0.55148 -0.44600
O 	O 	0.96556 0.44694 0.09420 -0.63900
O 	O 	0.96442 0.38084 0.10326 -0.44700
O 	O 	0.09420 0.49330 0.96556 -0.63900
O 	O 	0.10326 0.55148 0.96442 -0.44700
O 	O 	0.49330 0.09420 0.44694 -0.63900
O 	O 	0.55148 0.10326 0.38084 -0.44400
O 	O 	0.49330 0.96556 0.09420 -0.63900
O 	O 	0.55148 0.96442 0.10326 -0.44700
O 	O 	0.09420 0.44694 0.49330 -0.63900
O 	O 	0.10326 0.38084 0.55148 -0.44400
O 	O 	0.96556 0.49330 0.44694 -0.63800
O 	O 	0.96442 0.55148 0.38084 -0.44600
O 	O 	0.44694 0.09420 0.96556 -0.63900
O 	O 	0.38084 0.10326 0.96442 -0.44700
O 	O 	0.09420 0.96556 0.44694 -0.63900
O 	O 	0.10326 0.96442 0.38084 -0.44700
O 	O 	0.49330 0.44694 0.96556 -0.63800
O 	O 	0.55148 0.38084 0.96442 -0.44600
O 	O 	0.44694 0.49330 0.09420 -0.63900
O 	O 	0.38084 0.55148 0.10326 -0.44400
O 	O 	0.96556 0.09420 0.49330 -0.63900
O 	O 	0.96442 0.10326 0.55148 -0.44700
O 	O 	0.46556 0.94694 0.99330 -0.65100
O 	O 	0.46442 0.88084 0.05148 -0.44900
O 	O 	0.94694 0.46556 0.59420 -0.64200
O 	O 	0.88084 0.46442 0.60326 -0.44400
O 	O 	0.99330 0.59420 0.46556 -0.65000
O 	O 	0.05148 0.60326 0.46442 -0.45000
O 	O 	0.59420 0.99330 0.94694 -0.65000
O 	O 	0.60326 0.05148 0.88084 -0.44900
O 	O 	0.46556 0.99330 0.59420 -0.65000
O 	O 	0.46442 0.05148 0.60326 -0.45000
O 	O 	0.94694 0.59420 0.99330 -0.65000
O 	O 	0.88084 0.60326 0.05148 -0.44900
O 	O 	0.99330 0.46556 0.94694 -0.65100
O 	O 	0.05148 0.46442 0.88084 -0.44900
O 	O 	0.59420 0.94694 0.46556 -0.64200
O 	O 	0.60326 0.88084 0.46442 -0.44400
O 	O 	0.46556 0.59420 0.94694 -0.64200
O 	O 	0.46442 0.60326 0.88084 -0.44400
O 	O 	0.94694 0.99330 0.46556 -0.65100
O 	O 	0.88084 0.05148 0.46442 -0.44900
O 	O 	0.99330 0.94694 0.59420 -0.65000
O 	O 	0.05148 0.88084 0.60326 -0.44900
O 	O 	0.59420 0.46556 0.99330 -0.65000
O 	O 	0.60326 0.46442 0.05148 -0.45000
O 	O 	0.55306 0.03444 0.50670 -0.63700
O 	O 	0.61916 0.03558 0.44852 -0.44200
O 	O 	0.03444 0.55306 0.90580 -0.63500
O 	O 	0.03558 0.61916 0.89674 -0.44100
O 	O 	0.90580 0.50670 0.03444 -0.63500
O 	O 	0.89674 0.44852 0.03558 -0.44100
O 	O 	0.50670 0.90580 0.55306 -0.63600
O 	O 	0.44852 0.89674 0.61916 -0.44300
O 	O 	0.50670 0.03444 0.90580 -0.63500
O 	O 	0.44852 0.03558 0.89674 -0.44100
O 	O 	0.90580 0.55306 0.50670 -0.63600
O 	O 	0.89674 0.61916 0.44852 -0.44300
O 	O 	0.03444 0.50670 0.55306 -0.63700
O 	O 	0.03558 0.44852 0.61916 -0.44200
O 	O 	0.55306 0.90580 0.03444 -0.63500
O 	O 	0.61916 0.89674 0.03558 -0.44100
O 	O 	0.90580 0.03444 0.55306 -0.63500
O 	O 	0.89674 0.03558 0.61916 -0.44100
O 	O 	0.50670 0.55306 0.03444 -0.63700
O 	O 	0.44852 0.61916 0.03558 -0.44200
O 	O 	0.55306 0.50670 0.90580 -0.63600
O 	O 	0.61916 0.44852 0.89674 -0.44300
O 	O 	0.03444 0.90580 0.50670 -0.63500
O 	O 	0.03558 0.89674 0.44852 -0.44100
O 	O 	0.50000 0.00000 -0.00000 -0.90100
O 	O 	-0.00000 0.50000 0.50000 -0.91000
O 	O 	0.50000 -0.00000 0.50000 -0.91000
O 	O 	0.00000 0.50000 -0.00000 -0.90100
O 	O 	0.50000 0.50000 -0.00000 -0.91000
O 	O 	-0.00000 -0.00000 0.50000 -0.90100
