data_crystal

_cell_length_a 11.65990
_cell_length_b 10.93360
_cell_length_c 11.76690
_cell_angle_alpha 90.00000
_cell_angle_beta  90.00000
_cell_angle_gamma 90.00000

_symmetry_space_group_name_	'P 1'
_symmetry_space_group_name_H-M	'P 1'

loop_
_symmetry_equiv_pos_as_xyz
  x,y,z

loop_
_atom_site_label
_atom_site_type_symbol
_atom_site_fract_x
_atom_site_fract_y
_atom_site_fract_z
_atom_site_charge
Mn	Mn	0.28234 0.27214 0.31355 1.31500
Mn	Mn	0.31784 0.74035 0.09830 1.29500
P 	P 	0.21359 0.97898 0.24598 0.63000
O 	O 	0.22880 0.11320 0.23850 -0.42600
O 	O 	0.28000 0.90680 0.16290 -0.45200
O 	O 	0.24560 0.92950 0.36740 -0.45200
H 	H 	0.22270 0.97760 0.41580 0.30500
O 	O 	0.08190 0.95500 0.23070 -0.45200
H 	H 	0.07170 0.88410 0.21050 0.28700
O 	O 	0.28110 0.35950 0.14520 -0.34500
O 	O 	0.31080 0.53980 0.06060 -0.40900
O 	O 	0.30240 0.46920 0.34830 -0.34400
O 	O 	0.31120 0.65050 0.26190 -0.34300
O 	O 	0.37520 0.77480 0.91970 -0.48900
O 	O 	0.53040 0.76430 0.80860 -0.38300
O 	O 	0.50630 0.74180 0.10310 -0.35200
O 	O 	0.66110 0.76010 0.99240 -0.36500
C 	C 	0.29990 0.47280 0.14640 0.23100
C 	C 	0.30550 0.53660 0.26420 0.24200
C 	C 	0.48020 0.76480 0.90160 0.38000
C 	C 	0.55610 0.75460 0.00820 0.05500
Mn	Mn	0.71766 0.72786 0.81355 1.31700
Mn	Mn	0.68216 0.25965 0.59830 1.31700
P 	P 	0.78641 0.02102 0.74598 0.63100
O 	O 	0.77120 0.88680 0.73850 -0.41200
O 	O 	0.72000 0.09320 0.66290 -0.42900
O 	O 	0.75440 0.07050 0.86740 -0.44200
H 	H 	0.77730 0.02240 0.91580 0.32600
O 	O 	0.91810 0.04500 0.73070 -0.44800
H 	H 	0.92830 0.11590 0.71050 0.29300
O 	O 	0.71890 0.64050 0.64520 -0.32300
O 	O 	0.68920 0.46020 0.56060 -0.36200
O 	O 	0.69760 0.53080 0.84830 -0.32300
O 	O 	0.68880 0.34950 0.76190 -0.32800
O 	O 	0.62480 0.22520 0.41970 -0.49200
O 	O 	0.46960 0.23570 0.30860 -0.36700
O 	O 	0.49370 0.25820 0.60310 -0.38200
O 	O 	0.33890 0.23990 0.49240 -0.49600
C 	C 	0.70010 0.52720 0.64640 0.22600
C 	C 	0.69450 0.46340 0.76420 0.24500
C 	C 	0.51980 0.23520 0.40160 0.26500
C 	C 	0.44390 0.24540 0.50820 0.25600
Mn	Mn	0.78234 0.22786 0.31355 1.31300
Mn	Mn	0.81784 0.75965 0.09830 1.29200
P 	P 	0.71359 0.52102 0.24598 0.62900
O 	O 	0.72880 0.38680 0.23850 -0.42700
O 	O 	0.78000 0.59320 0.16290 -0.45400
O 	O 	0.74560 0.57050 0.36740 -0.45300
H 	H 	0.72270 0.52240 0.41580 0.30300
O 	O 	0.58190 0.54500 0.23070 -0.45500
H 	H 	0.57170 0.61590 0.21050 0.28700
O 	O 	0.78110 0.14050 0.14520 -0.34700
O 	O 	0.81080 0.96020 0.06060 -0.41200
O 	O 	0.80240 0.03080 0.34830 -0.34500
O 	O 	0.81120 0.84950 0.26190 -0.34500
O 	O 	0.87520 0.72520 0.91970 -0.48600
O 	O 	0.03040 0.73570 0.80860 -0.37000
O 	O 	0.00630 0.75820 0.10310 -0.35100
O 	O 	0.16110 0.73990 0.99240 -0.36800
C 	C 	0.79990 0.02720 0.14640 0.23300
C 	C 	0.80550 0.96340 0.26420 0.23900
C 	C 	0.98020 0.73520 0.90160 0.35700
C 	C 	0.05610 0.74540 0.00820 0.06900
Mn	Mn	0.21766 0.77214 0.81355 1.31800
Mn	Mn	0.18216 0.24035 0.59830 1.31800
P 	P 	0.28641 0.47898 0.74598 0.63400
O 	O 	0.27120 0.61320 0.73850 -0.41200
O 	O 	0.22000 0.40680 0.66290 -0.42700
O 	O 	0.25440 0.42950 0.86740 -0.44000
H 	H 	0.27730 0.47760 0.91580 0.32800
O 	O 	0.41810 0.45500 0.73070 -0.44400
H 	H 	0.42830 0.38410 0.71050 0.29400
O 	O 	0.21890 0.85950 0.64520 -0.32300
O 	O 	0.18920 0.03980 0.56060 -0.36600
O 	O 	0.19760 0.96920 0.84830 -0.31600
O 	O 	0.18880 0.15050 0.76190 -0.32400
O 	O 	0.12480 0.27480 0.41970 -0.49500
O 	O 	0.96960 0.26430 0.30860 -0.37700
O 	O 	0.99370 0.24180 0.60310 -0.38400
O 	O 	0.83890 0.26010 0.49240 -0.49400
C 	C 	0.20010 0.97280 0.64640 0.23700
C 	C 	0.19450 0.03660 0.76420 0.23500
C 	C 	0.01980 0.26480 0.40160 0.28300
C 	C 	0.94390 0.25460 0.50820 0.24600
