data_crystal

_cell_length_a 24.66020
_cell_length_b 28.69110
_cell_length_c 12.56020
_cell_angle_alpha 90.00000
_cell_angle_beta  90.00000
_cell_angle_gamma 90.00000

_symmetry_space_group_name_	'P 1'
_symmetry_space_group_name_H-M	'P 1'

loop_
_symmetry_equiv_pos_as_xyz
  x,y,z

loop_
_atom_site_label
_atom_site_type_symbol
_atom_site_fract_x
_atom_site_fract_y
_atom_site_fract_z
_atom_site_charge
Cd	Cd	0.99389 0.31217 0.06286 1.21600
Cd	Cd	0.89786 0.24038 0.19015 1.24500
Cd	Cd	0.79826 0.17338 0.31844 1.21300
N 	N 	0.61300 0.04290 0.65080 -0.13800
N 	N 	0.52290 0.88570 0.63190 -0.24200
N 	N 	0.73560 0.14450 0.43320 -0.24100
N 	N 	0.58660 0.15970 0.27550 -0.14500
N 	N 	0.55820 0.17430 0.43240 -0.22100
N 	N 	0.84870 0.22640 0.64630 -0.11900
N 	N 	0.62560 0.40190 0.19100 -0.12200
N 	N 	0.59920 0.34270 0.67100 -0.11200
O 	O 	0.97690 0.28090 0.23000 -0.50800
O 	O 	0.06690 0.28570 0.21860 -0.33100
O 	O 	0.81930 0.20270 0.15200 -0.55400
O 	O 	0.73180 0.20300 0.17290 -0.37100
O 	O 	0.89430 0.30400 0.08270 -0.46500
O 	O 	0.92470 0.33820 0.92960 -0.35500
O 	O 	0.50110 0.26140 0.50070 -0.43800
O 	O 	0.44130 0.30870 0.56950 -0.42900
O 	O 	0.85350 0.28320 0.30820 -0.41400
O 	O 	0.78670 0.24250 0.39360 -0.41500
O 	O 	0.40010 0.31960 0.80430 -0.51600
O 	O 	0.36620 0.36900 0.91550 -0.39300
C 	C 	0.63490 0.08160 0.67700 0.09000
C 	C 	0.63380 0.10240 0.77890 -0.14700
H 	H 	0.65090 0.13070 0.79160 0.08700
C 	C 	0.60460 0.07780 0.86500 0.09900
C 	C 	0.58520 0.03770 0.83200 -0.15700
H 	H 	0.56570 0.02040 0.88180 0.08400
C 	C 	0.59080 0.01910 0.73460 0.07200
C 	C 	0.59970 0.10060 0.97000 -0.04900
C 	C 	0.59650 0.14860 0.98400 0.04200
H 	H 	0.59850 0.16820 0.92480 0.02500
C 	C 	0.59040 0.16740 0.08500 -0.16300
H 	H 	0.58830 0.19950 0.09390 0.09600
C 	C 	0.58740 0.13820 0.17300 0.13600
C 	C 	0.59050 0.09020 0.16000 -0.14300
H 	H 	0.58850 0.07060 0.21870 0.07800
C 	C 	0.59670 0.07140 0.05900 0.00100
H 	H 	0.59890 0.03920 0.04970 0.02100
C 	C 	0.53760 0.89460 0.72800 0.11800
H 	H 	0.53450 0.87070 0.77790 -0.01100
C 	C 	0.55740 0.93700 0.76390 -0.18000
H 	H 	0.56680 0.94040 0.83510 0.09400
C 	C 	0.56330 0.97280 0.69800 0.10300
C 	C 	0.55500 0.96600 0.59800 -0.16400
H 	H 	0.56390 0.98870 0.54820 0.09500
C 	C 	0.53240 0.92370 0.56600 0.08300
H 	H 	0.52280 0.92080 0.49510 -0.00900
C 	C 	0.73780 0.15970 0.53200 0.06600
H 	H 	0.76540 0.18030 0.55000 0.00400
C 	C 	0.70090 0.14670 0.61400 -0.11100
H 	H 	0.69780 0.16400 0.67590 0.07300
C 	C 	0.66750 0.10460 0.59600 0.03300
C 	C 	0.66420 0.09160 0.48700 -0.12200
H 	H 	0.63690 0.07160 0.46350 0.07500
C 	C 	0.70050 0.10840 0.41800 0.07700
H 	H 	0.70200 0.09380 0.35190 -0.01900
C 	C 	0.55250 0.14610 0.35000 0.10100
H 	H 	0.52860 0.12110 0.34520 -0.01100
C 	C 	0.59900 0.20660 0.41700 -0.00200
H 	H 	0.60970 0.23080 0.46170 0.02700
C 	C 	0.61990 0.19430 0.32000 0.00200
H 	H 	0.65090 0.20680 0.28840 0.03900
C 	C 	0.89240 0.23410 0.58600 0.02900
H 	H 	0.88690 0.24150 0.51490 0.02900
C 	C 	0.94440 0.23210 0.62200 -0.03000
C 	C 	0.95200 0.23480 0.71600 -0.01000
H 	H 	0.98710 0.23920 0.74130 0.04100
C 	C 	0.90700 0.23130 0.79300 -0.08600
H 	H 	0.91380 0.22830 0.86570 0.06800
C 	C 	0.85290 0.23270 0.75400 0.07100
C 	C 	0.02320 0.27430 0.26700 0.31900
C 	C 	0.02680 0.25090 0.37600 -0.05500
C 	C 	0.98350 0.25410 0.44600 -0.06600
H 	H 	0.95220 0.27010 0.42640 0.05800
C 	C 	0.98690 0.23330 0.54600 0.04500
C 	C 	0.03350 0.20930 0.57500 -0.08200
H 	H 	0.03580 0.19540 0.64170 0.06500
C 	C 	0.07680 0.20610 0.50400 -0.02000
H 	H 	0.10800 0.19010 0.52390 0.04300
C 	C 	0.07340 0.22690 0.40500 -0.03300
H 	H 	0.10240 0.22480 0.35760 0.05200
C 	C 	0.77460 0.20830 0.11900 0.35600
C 	C 	0.76450 0.21840 0.99800 -0.06200
C 	C 	0.81010 0.22060 0.93400 -0.03300
H 	H 	0.84440 0.21600 0.96270 0.04400
C 	C 	0.80460 0.22980 0.82600 0.00200
C 	C 	0.75330 0.23670 0.78200 -0.04800
H 	H 	0.74960 0.24280 0.70990 0.05500
C 	C 	0.70770 0.23450 0.84700 -0.04600
H 	H 	0.67340 0.23920 0.81790 0.05400
C 	C 	0.71330 0.22540 0.95500 -0.01300
H 	H 	0.68280 0.22390 0.99830 0.05200
C 	C 	0.66250 0.39550 0.11100 0.02100
H 	H 	0.66340 0.41740 0.05680 0.02400
C 	C 	0.69710 0.36040 0.10700 -0.03300
C 	C 	0.68950 0.32630 0.18900 -0.01400
H 	H 	0.71220 0.30050 0.19090 0.04000
C 	C 	0.64920 0.33050 0.26800 -0.09600
H 	H 	0.64650 0.30840 0.32150 0.06700
C 	C 	0.61210 0.36910 0.26400 0.08000
C 	C 	0.88720 0.32660 0.98600 0.28800
C 	C 	0.82830 0.33780 0.96700 -0.01800
C 	C 	0.78910 0.33880 0.04700 -0.08600
H 	H 	0.79780 0.32930 0.11550 0.06500
C 	C 	0.73680 0.35390 0.02400 0.03400
C 	C 	0.72380 0.36800 0.92100 -0.06700
H 	H 	0.68890 0.37810 0.90510 0.05900
C 	C 	0.76310 0.36710 0.84100 -0.01400
H 	H 	0.75440 0.37650 0.77260 0.03900
C 	C 	0.81530 0.35190 0.86500 -0.04700
H 	H 	0.84150 0.35130 0.81140 0.06200
C 	C 	0.48210 0.30210 0.51800 0.40000
C 	C 	0.50570 0.34250 0.46400 -0.11400
C 	C 	0.54650 0.33600 0.38900 0.00500
H 	H 	0.55730 0.30600 0.37020 0.03700
C 	C 	0.57110 0.37430 0.34100 -0.02700
C 	C 	0.55490 0.41910 0.36900 -0.02100
H 	H 	0.57140 0.44470 0.33680 0.04500
C 	C 	0.51420 0.42560 0.44400 -0.07100
H 	H 	0.50340 0.45560 0.46200 0.05300
C 	C 	0.48960 0.38730 0.49100 0.02600
H 	H 	0.46220 0.39160 0.54100 0.03400
C 	C 	0.64690 0.33700 0.60100 0.00800
H 	H 	0.65460 0.30870 0.56790 0.03400
C 	C 	0.67840 0.37470 0.58700 -0.03200
C 	C 	0.67120 0.41010 0.64300 0.01100
H 	H 	0.69610 0.43410 0.63400 0.02400
C 	C 	0.63300 0.41780 0.71400 -0.11700
H 	H 	0.63000 0.44640 0.74830 0.06800
C 	C 	0.59780 0.38230 0.73600 0.07500
C 	C 	0.80900 0.28050 0.36100 0.32000
C 	C 	0.78780 0.32640 0.39900 -0.04800
C 	C 	0.74840 0.32710 0.47800 -0.06100
H 	H 	0.73960 0.29990 0.51460 0.06400
C 	C 	0.72220 0.36860 0.50400 0.03800
C 	C 	0.73530 0.40930 0.44900 -0.07800
H 	H 	0.71780 0.43710 0.46630 0.05900
C 	C 	0.77470 0.40860 0.37000 -0.01800
H 	H 	0.78340 0.43590 0.33390 0.03900
C 	C 	0.80090 0.36720 0.34500 -0.03600
H 	H 	0.82720 0.36670 0.29200 0.05500
C 	C 	0.40620 0.35080 0.86800 0.38100
C 	C 	0.46020 0.37540 0.87800 -0.08100
C 	C 	0.50030 0.36530 0.80300 -0.02200
H 	H 	0.49260 0.34470 0.74800 0.04800
C 	C 	0.55120 0.38520 0.80900 0.00300
C 	C 	0.56240 0.41760 0.88800 -0.06700
H 	H 	0.59610 0.43200 0.89120 0.05400
C 	C 	0.52290 0.42840 0.96300 -0.00300
H 	H 	0.53150 0.44680 0.02200 0.02400
C 	C 	0.47020 0.41130 0.95000 -0.02100
H 	H 	0.44190 0.42380 0.99000 0.05500
Cd	Cd	0.00611 0.68783 0.06286 1.21500
Cd	Cd	0.10214 0.75962 0.19015 1.24400
Cd	Cd	0.20174 0.82662 0.31844 1.21200
N 	N 	0.38700 0.95710 0.65080 -0.13900
N 	N 	0.47710 0.11430 0.63190 -0.24200
N 	N 	0.26440 0.85550 0.43320 -0.24100
N 	N 	0.41340 0.84030 0.27550 -0.14500
N 	N 	0.44180 0.82570 0.43240 -0.22100
N 	N 	0.15130 0.77360 0.64630 -0.11900
N 	N 	0.37440 0.59810 0.19100 -0.12200
N 	N 	0.40080 0.65730 0.67100 -0.11200
O 	O 	0.02310 0.71910 0.23000 -0.50800
O 	O 	0.93310 0.71430 0.21860 -0.33100
O 	O 	0.18070 0.79730 0.15200 -0.55400
O 	O 	0.26820 0.79700 0.17290 -0.37100
O 	O 	0.10570 0.69600 0.08270 -0.46500
O 	O 	0.07530 0.66180 0.92960 -0.35500
O 	O 	0.49890 0.73860 0.50070 -0.43800
O 	O 	0.55870 0.69130 0.56950 -0.42900
O 	O 	0.14650 0.71680 0.30820 -0.41400
O 	O 	0.21330 0.75750 0.39360 -0.41500
O 	O 	0.59990 0.68040 0.80430 -0.51600
O 	O 	0.63380 0.63100 0.91550 -0.39300
C 	C 	0.36510 0.91840 0.67700 0.09000
C 	C 	0.36620 0.89760 0.77890 -0.14700
H 	H 	0.34910 0.86930 0.79160 0.08700
C 	C 	0.39540 0.92220 0.86500 0.09900
C 	C 	0.41480 0.96230 0.83200 -0.15700
H 	H 	0.43430 0.97960 0.88180 0.08400
C 	C 	0.40920 0.98090 0.73460 0.07200
C 	C 	0.40030 0.89940 0.97000 -0.04900
C 	C 	0.40350 0.85140 0.98400 0.04200
H 	H 	0.40150 0.83180 0.92480 0.02500
C 	C 	0.40960 0.83260 0.08500 -0.16300
H 	H 	0.41170 0.80050 0.09390 0.09600
C 	C 	0.41260 0.86180 0.17300 0.13600
C 	C 	0.40950 0.90980 0.16000 -0.14300
H 	H 	0.41150 0.92940 0.21870 0.07800
C 	C 	0.40330 0.92860 0.05900 0.00100
H 	H 	0.40110 0.96080 0.04970 0.02100
C 	C 	0.46240 0.10540 0.72800 0.11800
H 	H 	0.46550 0.12930 0.77790 -0.01100
C 	C 	0.44260 0.06300 0.76390 -0.18000
H 	H 	0.43320 0.05960 0.83510 0.09400
C 	C 	0.43670 0.02720 0.69800 0.10300
C 	C 	0.44500 0.03400 0.59800 -0.16400
H 	H 	0.43610 0.01130 0.54820 0.09500
C 	C 	0.46760 0.07630 0.56600 0.08300
H 	H 	0.47720 0.07920 0.49510 -0.00900
C 	C 	0.26220 0.84030 0.53200 0.06600
H 	H 	0.23460 0.81970 0.55000 0.00400
C 	C 	0.29910 0.85330 0.61400 -0.11100
H 	H 	0.30220 0.83600 0.67590 0.07300
C 	C 	0.33250 0.89540 0.59600 0.03300
C 	C 	0.33580 0.90840 0.48700 -0.12200
H 	H 	0.36310 0.92840 0.46350 0.07500
C 	C 	0.29950 0.89160 0.41800 0.07700
H 	H 	0.29800 0.90620 0.35190 -0.01900
C 	C 	0.44750 0.85390 0.35000 0.10100
H 	H 	0.47140 0.87890 0.34520 -0.01100
C 	C 	0.40100 0.79340 0.41700 -0.00200
H 	H 	0.39030 0.76920 0.46170 0.02700
C 	C 	0.38010 0.80570 0.32000 0.00200
H 	H 	0.34910 0.79320 0.28840 0.03900
C 	C 	0.10760 0.76590 0.58600 0.02900
H 	H 	0.11310 0.75850 0.51490 0.02900
C 	C 	0.05560 0.76790 0.62200 -0.03000
C 	C 	0.04800 0.76520 0.71600 -0.01000
H 	H 	0.01290 0.76080 0.74130 0.04100
C 	C 	0.09300 0.76870 0.79300 -0.08600
H 	H 	0.08620 0.77170 0.86570 0.06800
C 	C 	0.14710 0.76730 0.75400 0.07100
C 	C 	0.97680 0.72570 0.26700 0.31900
C 	C 	0.97320 0.74910 0.37600 -0.05500
C 	C 	0.01650 0.74590 0.44600 -0.06600
H 	H 	0.04780 0.72990 0.42640 0.05800
C 	C 	0.01310 0.76670 0.54600 0.04500
C 	C 	0.96650 0.79070 0.57500 -0.08200
H 	H 	0.96420 0.80460 0.64170 0.06500
C 	C 	0.92320 0.79390 0.50400 -0.02000
H 	H 	0.89200 0.80990 0.52390 0.04300
C 	C 	0.92660 0.77310 0.40500 -0.03300
H 	H 	0.89760 0.77520 0.35760 0.05200
C 	C 	0.22540 0.79170 0.11900 0.35600
C 	C 	0.23550 0.78160 0.99800 -0.06200
C 	C 	0.18990 0.77940 0.93400 -0.03300
H 	H 	0.15560 0.78400 0.96270 0.04400
C 	C 	0.19540 0.77020 0.82600 0.00200
C 	C 	0.24670 0.76330 0.78200 -0.04800
H 	H 	0.25040 0.75720 0.70990 0.05500
C 	C 	0.29230 0.76550 0.84700 -0.04600
H 	H 	0.32660 0.76080 0.81790 0.05400
C 	C 	0.28670 0.77460 0.95500 -0.01300
H 	H 	0.31720 0.77610 0.99830 0.05200
C 	C 	0.33750 0.60450 0.11100 0.02100
H 	H 	0.33660 0.58260 0.05680 0.02400
C 	C 	0.30290 0.63960 0.10700 -0.03300
C 	C 	0.31050 0.67370 0.18900 -0.01400
H 	H 	0.28780 0.69950 0.19090 0.04000
C 	C 	0.35080 0.66950 0.26800 -0.09600
H 	H 	0.35350 0.69160 0.32150 0.06700
C 	C 	0.38790 0.63090 0.26400 0.08000
C 	C 	0.11280 0.67340 0.98600 0.28800
C 	C 	0.17170 0.66220 0.96700 -0.01800
C 	C 	0.21090 0.66120 0.04700 -0.08600
H 	H 	0.20220 0.67070 0.11550 0.06500
C 	C 	0.26320 0.64610 0.02400 0.03400
C 	C 	0.27620 0.63200 0.92100 -0.06700
H 	H 	0.31110 0.62190 0.90510 0.05900
C 	C 	0.23690 0.63290 0.84100 -0.01400
H 	H 	0.24560 0.62350 0.77260 0.03900
C 	C 	0.18470 0.64810 0.86500 -0.04700
H 	H 	0.15850 0.64870 0.81140 0.06200
C 	C 	0.51790 0.69790 0.51800 0.40000
C 	C 	0.49430 0.65750 0.46400 -0.11400
C 	C 	0.45350 0.66400 0.38900 0.00500
H 	H 	0.44270 0.69400 0.37020 0.03700
C 	C 	0.42890 0.62570 0.34100 -0.02700
C 	C 	0.44510 0.58090 0.36900 -0.02100
H 	H 	0.42860 0.55530 0.33680 0.04500
C 	C 	0.48580 0.57440 0.44400 -0.07100
H 	H 	0.49660 0.54440 0.46200 0.05300
C 	C 	0.51040 0.61270 0.49100 0.02600
H 	H 	0.53780 0.60840 0.54100 0.03400
C 	C 	0.35310 0.66300 0.60100 0.00800
H 	H 	0.34540 0.69130 0.56790 0.03400
C 	C 	0.32160 0.62530 0.58700 -0.03200
C 	C 	0.32880 0.58990 0.64300 0.01100
H 	H 	0.30390 0.56590 0.63400 0.02400
C 	C 	0.36700 0.58220 0.71400 -0.11700
H 	H 	0.37000 0.55360 0.74830 0.06800
C 	C 	0.40220 0.61770 0.73600 0.07500
C 	C 	0.19100 0.71950 0.36100 0.32000
C 	C 	0.21220 0.67360 0.39900 -0.04800
C 	C 	0.25160 0.67290 0.47800 -0.06100
H 	H 	0.26040 0.70010 0.51460 0.06400
C 	C 	0.27780 0.63140 0.50400 0.03800
C 	C 	0.26470 0.59070 0.44900 -0.07800
H 	H 	0.28220 0.56290 0.46630 0.05900
C 	C 	0.22530 0.59140 0.37000 -0.01800
H 	H 	0.21660 0.56410 0.33390 0.03900
C 	C 	0.19910 0.63280 0.34500 -0.03600
H 	H 	0.17280 0.63330 0.29200 0.05500
C 	C 	0.59380 0.64920 0.86800 0.38100
C 	C 	0.53980 0.62460 0.87800 -0.08100
C 	C 	0.49970 0.63470 0.80300 -0.02200
H 	H 	0.50740 0.65530 0.74800 0.04800
C 	C 	0.44880 0.61480 0.80900 0.00300
C 	C 	0.43760 0.58240 0.88800 -0.06700
H 	H 	0.40390 0.56800 0.89120 0.05400
C 	C 	0.47710 0.57160 0.96300 -0.00300
H 	H 	0.46850 0.55320 0.02200 0.02400
C 	C 	0.52980 0.58870 0.95000 -0.02100
H 	H 	0.55810 0.57620 0.99000 0.05500
Cd	Cd	0.49389 0.18783 0.56286 1.21800
Cd	Cd	0.39786 0.25962 0.69015 1.24500
Cd	Cd	0.29826 0.32662 0.81844 1.21300
N 	N 	0.11300 0.45710 0.15080 -0.14400
N 	N 	0.02290 0.61430 0.13190 -0.23700
N 	N 	0.23560 0.35550 0.93320 -0.22800
N 	N 	0.08660 0.34030 0.77550 -0.14400
N 	N 	0.05820 0.32570 0.93240 -0.21700
N 	N 	0.34870 0.27360 0.14630 -0.11600
N 	N 	0.12560 0.09810 0.69100 -0.12200
N 	N 	0.09920 0.15730 0.17100 -0.10900
O 	O 	0.47690 0.21910 0.73000 -0.51000
O 	O 	0.56690 0.21430 0.71860 -0.33200
O 	O 	0.31930 0.29730 0.65200 -0.55600
O 	O 	0.23180 0.29700 0.67290 -0.37100
O 	O 	0.39430 0.19600 0.58270 -0.45300
O 	O 	0.42470 0.16180 0.42960 -0.35700
O 	O 	0.00110 0.23860 0.00070 -0.44400
O 	O 	0.94130 0.19130 0.06950 -0.43100
O 	O 	0.35350 0.21680 0.80820 -0.41600
O 	O 	0.28670 0.25750 0.89360 -0.41400
O 	O 	0.90010 0.18040 0.30430 -0.52000
O 	O 	0.86620 0.13100 0.41550 -0.39900
C 	C 	0.13490 0.41840 0.17700 0.09800
C 	C 	0.13380 0.39760 0.27890 -0.15500
H 	H 	0.15090 0.36930 0.29160 0.08900
C 	C 	0.10460 0.42220 0.36500 0.10400
C 	C 	0.08520 0.46230 0.33200 -0.16400
H 	H 	0.06570 0.47960 0.38180 0.08400
C 	C 	0.09080 0.48090 0.23460 0.07800
C 	C 	0.09970 0.39940 0.47000 -0.06200
C 	C 	0.09650 0.35140 0.48400 0.02200
H 	H 	0.09850 0.33180 0.42480 0.03000
C 	C 	0.09040 0.33260 0.58500 -0.13900
H 	H 	0.08830 0.30050 0.59390 0.09100
C 	C 	0.08740 0.36180 0.67300 0.13300
C 	C 	0.09050 0.40980 0.66000 -0.14600
H 	H 	0.08850 0.42940 0.71870 0.08100
C 	C 	0.09670 0.42860 0.55900 0.02100
H 	H 	0.09890 0.46080 0.54970 0.02000
C 	C 	0.03760 0.60540 0.22800 0.11000
H 	H 	0.03450 0.62930 0.27790 -0.01000
C 	C 	0.05740 0.56300 0.26390 -0.16700
H 	H 	0.06680 0.55960 0.33510 0.08800
C 	C 	0.06330 0.52720 0.19800 0.08600
C 	C 	0.05500 0.53400 0.09800 -0.13700
H 	H 	0.06390 0.51130 0.04820 0.08100
C 	C 	0.03240 0.57630 0.06600 0.04300
H 	H 	0.02280 0.57920 0.99510 0.01600
C 	C 	0.23780 0.34030 0.03200 0.03900
H 	H 	0.26540 0.31970 0.05000 0.00900
C 	C 	0.20090 0.35330 0.11400 -0.09500
H 	H 	0.19780 0.33600 0.17590 0.06600
C 	C 	0.16750 0.39540 0.09600 0.00500
C 	C 	0.16420 0.40840 0.98700 -0.08800
H 	H 	0.13690 0.42840 0.96350 0.06800
C 	C 	0.20050 0.39160 0.91800 0.06400
H 	H 	0.20200 0.40620 0.85190 -0.01300
C 	C 	0.05250 0.35390 0.85000 0.10200
H 	H 	0.02860 0.37890 0.84520 -0.00900
C 	C 	0.09900 0.29340 0.91700 0.00000
H 	H 	0.10970 0.26920 0.96170 0.03200
C 	C 	0.11990 0.30570 0.82000 0.00300
H 	H 	0.15090 0.29320 0.78840 0.04000
C 	C 	0.39240 0.26590 0.08600 0.00800
H 	H 	0.38690 0.25850 0.01490 0.03000
C 	C 	0.44440 0.26790 0.12200 0.00700
C 	C 	0.45200 0.26520 0.21600 -0.04100
H 	H 	0.48710 0.26080 0.24130 0.05100
C 	C 	0.40700 0.26870 0.29300 -0.07300
H 	H 	0.41380 0.27170 0.36570 0.06000
C 	C 	0.35290 0.26730 0.25400 0.06600
C 	C 	0.52320 0.22570 0.76700 0.33300
C 	C 	0.52680 0.24910 0.87600 -0.09500
C 	C 	0.48350 0.24590 0.94600 -0.00500
H 	H 	0.45220 0.22990 0.92640 0.04200
C 	C 	0.48690 0.26670 0.04600 -0.01500
C 	C 	0.53350 0.29070 0.07500 -0.02900
H 	H 	0.53580 0.30460 0.14170 0.04500
C 	C 	0.57680 0.29390 0.00400 -0.09100
H 	H 	0.60800 0.30990 0.02390 0.06400
C 	C 	0.57340 0.27310 0.90500 0.03200
H 	H 	0.60240 0.27520 0.85760 0.03200
C 	C 	0.27460 0.29170 0.61900 0.37300
C 	C 	0.26450 0.28160 0.49800 -0.08500
C 	C 	0.31010 0.27940 0.43400 -0.02200
H 	H 	0.34440 0.28400 0.46270 0.03600
C 	C 	0.30460 0.27020 0.32600 -0.00300
C 	C 	0.25330 0.26330 0.28200 -0.04100
H 	H 	0.24960 0.25720 0.20990 0.05200
C 	C 	0.20770 0.26550 0.34700 -0.05700
H 	H 	0.17340 0.26080 0.31790 0.05600
C 	C 	0.21330 0.27460 0.45500 -0.00000
H 	H 	0.18280 0.27610 0.49830 0.04200
C 	C 	0.16250 0.10450 0.61100 0.02500
H 	H 	0.16340 0.08260 0.55680 0.02800
C 	C 	0.19710 0.13960 0.60700 -0.03700
C 	C 	0.18950 0.17370 0.68900 -0.00800
H 	H 	0.21220 0.19950 0.69090 0.04000
C 	C 	0.14920 0.16950 0.76800 -0.09900
H 	H 	0.14650 0.19160 0.82150 0.07000
C 	C 	0.11210 0.13090 0.76400 0.08400
C 	C 	0.38720 0.17340 0.48600 0.27600
C 	C 	0.32830 0.16220 0.46700 -0.03000
C 	C 	0.28910 0.16120 0.54700 -0.07300
H 	H 	0.29780 0.17070 0.61550 0.06300
C 	C 	0.23680 0.14610 0.52400 0.05200
C 	C 	0.22380 0.13200 0.42100 -0.09200
H 	H 	0.18890 0.12190 0.40510 0.06400
C 	C 	0.26310 0.13290 0.34100 -0.00700
H 	H 	0.25440 0.12350 0.27260 0.03500
C 	C 	0.31530 0.14810 0.36500 -0.04900
H 	H 	0.34150 0.14870 0.31140 0.06100
C 	C 	0.98210 0.19790 0.01800 0.38900
C 	C 	0.00570 0.15750 0.96400 -0.11200
C 	C 	0.04650 0.16400 0.88900 0.01000
H 	H 	0.05730 0.19400 0.87020 0.03800
C 	C 	0.07110 0.12570 0.84100 -0.03200
C 	C 	0.05490 0.08090 0.86900 -0.00700
H 	H 	0.07140 0.05530 0.83680 0.04200
C 	C 	0.01420 0.07440 0.94400 -0.09000
H 	H 	0.00340 0.04440 0.96200 0.06300
C 	C 	0.98960 0.11270 0.99100 0.06100
H 	H 	0.96220 0.10840 0.04100 0.01200
C 	C 	0.14690 0.16300 0.10100 -0.01900
H 	H 	0.15460 0.19130 0.06790 0.04100
C 	C 	0.17840 0.12530 0.08700 0.01600
C 	C 	0.17120 0.08990 0.14300 -0.03600
H 	H 	0.19610 0.06590 0.13400 0.03700
C 	C 	0.13300 0.08220 0.21400 -0.09100
H 	H 	0.13000 0.05360 0.24830 0.05700
C 	C 	0.09780 0.11770 0.23600 0.06800
C 	C 	0.30900 0.21950 0.86100 0.33900
C 	C 	0.28780 0.17360 0.89900 -0.09800
C 	C 	0.24840 0.17290 0.97800 0.03800
H 	H 	0.23960 0.20010 0.01460 0.02000
C 	C 	0.22220 0.13140 0.00400 -0.05000
C 	C 	0.23530 0.09070 0.94900 0.00000
H 	H 	0.21780 0.06290 0.96630 0.03600
C 	C 	0.27470 0.09140 0.87000 -0.07700
H 	H 	0.28340 0.06410 0.83390 0.06200
C 	C 	0.30090 0.13280 0.84500 0.01800
H 	H 	0.32720 0.13330 0.79200 0.03800
C 	C 	0.90620 0.14920 0.36800 0.38600
C 	C 	0.96020 0.12460 0.37800 -0.09900
C 	C 	0.00030 0.13470 0.30300 -0.00800
H 	H 	0.99260 0.15530 0.24800 0.04200
C 	C 	0.05120 0.11480 0.30900 -0.01100
C 	C 	0.06240 0.08240 0.38800 -0.04000
H 	H 	0.09610 0.06800 0.39120 0.04100
C 	C 	0.02290 0.07160 0.46300 -0.05600
H 	H 	0.03150 0.05320 0.52200 0.05300
C 	C 	0.97020 0.08870 0.45000 0.00700
H 	H 	0.94190 0.07620 0.49000 0.04100
Cd	Cd	0.50611 0.81217 0.56286 1.21800
Cd	Cd	0.60214 0.74038 0.69015 1.24500
Cd	Cd	0.70174 0.67338 0.81844 1.21300
N 	N 	0.88700 0.54290 0.15080 -0.14400
N 	N 	0.97710 0.38570 0.13190 -0.23700
N 	N 	0.76440 0.64450 0.93320 -0.22800
N 	N 	0.91340 0.65970 0.77550 -0.14400
N 	N 	0.94180 0.67430 0.93240 -0.21700
N 	N 	0.65130 0.72640 0.14630 -0.11600
N 	N 	0.87440 0.90190 0.69100 -0.12200
N 	N 	0.90080 0.84270 0.17100 -0.10900
O 	O 	0.52310 0.78090 0.73000 -0.51000
O 	O 	0.43310 0.78570 0.71860 -0.33200
O 	O 	0.68070 0.70270 0.65200 -0.55600
O 	O 	0.76820 0.70300 0.67290 -0.37100
O 	O 	0.60570 0.80400 0.58270 -0.45300
O 	O 	0.57530 0.83820 0.42960 -0.35700
O 	O 	0.99890 0.76140 0.00070 -0.44400
O 	O 	0.05870 0.80870 0.06950 -0.43100
O 	O 	0.64650 0.78320 0.80820 -0.41600
O 	O 	0.71330 0.74250 0.89360 -0.41400
O 	O 	0.09990 0.81960 0.30430 -0.52000
O 	O 	0.13380 0.86900 0.41550 -0.39900
C 	C 	0.86510 0.58160 0.17700 0.09800
C 	C 	0.86620 0.60240 0.27890 -0.15500
H 	H 	0.84910 0.63070 0.29160 0.08900
C 	C 	0.89540 0.57780 0.36500 0.10400
C 	C 	0.91480 0.53770 0.33200 -0.16400
H 	H 	0.93430 0.52040 0.38180 0.08400
C 	C 	0.90920 0.51910 0.23460 0.07800
C 	C 	0.90030 0.60060 0.47000 -0.06200
C 	C 	0.90350 0.64860 0.48400 0.02200
H 	H 	0.90150 0.66820 0.42480 0.03000
C 	C 	0.90960 0.66740 0.58500 -0.13900
H 	H 	0.91170 0.69950 0.59390 0.09100
C 	C 	0.91260 0.63820 0.67300 0.13300
C 	C 	0.90950 0.59020 0.66000 -0.14600
H 	H 	0.91150 0.57060 0.71870 0.08100
C 	C 	0.90330 0.57140 0.55900 0.02100
H 	H 	0.90110 0.53920 0.54970 0.02000
C 	C 	0.96240 0.39460 0.22800 0.11000
H 	H 	0.96550 0.37070 0.27790 -0.01000
C 	C 	0.94260 0.43700 0.26390 -0.16700
H 	H 	0.93320 0.44040 0.33510 0.08800
C 	C 	0.93670 0.47280 0.19800 0.08600
C 	C 	0.94500 0.46600 0.09800 -0.13700
H 	H 	0.93610 0.48870 0.04820 0.08100
C 	C 	0.96760 0.42370 0.06600 0.04300
H 	H 	0.97720 0.42080 0.99510 0.01600
C 	C 	0.76220 0.65970 0.03200 0.03900
H 	H 	0.73460 0.68030 0.05000 0.00900
C 	C 	0.79910 0.64670 0.11400 -0.09500
H 	H 	0.80220 0.66400 0.17590 0.06600
C 	C 	0.83250 0.60460 0.09600 0.00500
C 	C 	0.83580 0.59160 0.98700 -0.08800
H 	H 	0.86310 0.57160 0.96350 0.06800
C 	C 	0.79950 0.60840 0.91800 0.06400
H 	H 	0.79800 0.59380 0.85190 -0.01300
C 	C 	0.94750 0.64610 0.85000 0.10200
H 	H 	0.97140 0.62110 0.84520 -0.00900
C 	C 	0.90100 0.70660 0.91700 0.00000
H 	H 	0.89030 0.73080 0.96170 0.03200
C 	C 	0.88010 0.69430 0.82000 0.00300
H 	H 	0.84910 0.70680 0.78840 0.04000
C 	C 	0.60760 0.73410 0.08600 0.00800
H 	H 	0.61310 0.74150 0.01490 0.03000
C 	C 	0.55560 0.73210 0.12200 0.00700
C 	C 	0.54800 0.73480 0.21600 -0.04100
H 	H 	0.51290 0.73920 0.24130 0.05100
C 	C 	0.59300 0.73130 0.29300 -0.07300
H 	H 	0.58620 0.72830 0.36570 0.06000
C 	C 	0.64710 0.73270 0.25400 0.06600
C 	C 	0.47680 0.77430 0.76700 0.33300
C 	C 	0.47320 0.75090 0.87600 -0.09500
C 	C 	0.51650 0.75410 0.94600 -0.00500
H 	H 	0.54780 0.77010 0.92640 0.04200
C 	C 	0.51310 0.73330 0.04600 -0.01500
C 	C 	0.46650 0.70930 0.07500 -0.02900
H 	H 	0.46420 0.69540 0.14170 0.04500
C 	C 	0.42320 0.70610 0.00400 -0.09100
H 	H 	0.39200 0.69010 0.02390 0.06400
C 	C 	0.42660 0.72690 0.90500 0.03200
H 	H 	0.39760 0.72480 0.85760 0.03200
C 	C 	0.72540 0.70830 0.61900 0.37300
C 	C 	0.73550 0.71840 0.49800 -0.08500
C 	C 	0.68990 0.72060 0.43400 -0.02200
H 	H 	0.65560 0.71600 0.46270 0.03600
C 	C 	0.69540 0.72980 0.32600 -0.00300
C 	C 	0.74670 0.73670 0.28200 -0.04100
H 	H 	0.75040 0.74280 0.20990 0.05200
C 	C 	0.79230 0.73450 0.34700 -0.05700
H 	H 	0.82660 0.73920 0.31790 0.05600
C 	C 	0.78670 0.72540 0.45500 -0.00000
H 	H 	0.81720 0.72390 0.49830 0.04200
C 	C 	0.83750 0.89550 0.61100 0.02500
H 	H 	0.83660 0.91740 0.55680 0.02800
C 	C 	0.80290 0.86040 0.60700 -0.03700
C 	C 	0.81050 0.82630 0.68900 -0.00800
H 	H 	0.78780 0.80050 0.69090 0.04000
C 	C 	0.85080 0.83050 0.76800 -0.09900
H 	H 	0.85350 0.80840 0.82150 0.07000
C 	C 	0.88790 0.86910 0.76400 0.08400
C 	C 	0.61280 0.82660 0.48600 0.27600
C 	C 	0.67170 0.83780 0.46700 -0.03000
C 	C 	0.71090 0.83880 0.54700 -0.07300
H 	H 	0.70220 0.82930 0.61550 0.06300
C 	C 	0.76320 0.85390 0.52400 0.05200
C 	C 	0.77620 0.86800 0.42100 -0.09200
H 	H 	0.81110 0.87810 0.40510 0.06400
C 	C 	0.73690 0.86710 0.34100 -0.00700
H 	H 	0.74560 0.87650 0.27260 0.03500
C 	C 	0.68470 0.85190 0.36500 -0.04900
H 	H 	0.65850 0.85130 0.31140 0.06100
C 	C 	0.01790 0.80210 0.01800 0.38900
C 	C 	0.99430 0.84250 0.96400 -0.11200
C 	C 	0.95350 0.83600 0.88900 0.01000
H 	H 	0.94270 0.80600 0.87020 0.03800
C 	C 	0.92890 0.87430 0.84100 -0.03200
C 	C 	0.94510 0.91910 0.86900 -0.00700
H 	H 	0.92860 0.94470 0.83680 0.04200
C 	C 	0.98580 0.92560 0.94400 -0.09000
H 	H 	0.99660 0.95560 0.96200 0.06300
C 	C 	0.01040 0.88730 0.99100 0.06100
H 	H 	0.03780 0.89160 0.04100 0.01200
C 	C 	0.85310 0.83700 0.10100 -0.01900
H 	H 	0.84540 0.80870 0.06790 0.04100
C 	C 	0.82160 0.87470 0.08700 0.01600
C 	C 	0.82880 0.91010 0.14300 -0.03600
H 	H 	0.80390 0.93410 0.13400 0.03700
C 	C 	0.86700 0.91780 0.21400 -0.09100
H 	H 	0.87000 0.94640 0.24830 0.05700
C 	C 	0.90220 0.88230 0.23600 0.06800
C 	C 	0.69100 0.78050 0.86100 0.33900
C 	C 	0.71220 0.82640 0.89900 -0.09800
C 	C 	0.75160 0.82710 0.97800 0.03800
H 	H 	0.76040 0.79990 0.01460 0.02000
C 	C 	0.77780 0.86860 0.00400 -0.05000
C 	C 	0.76470 0.90930 0.94900 0.00000
H 	H 	0.78220 0.93710 0.96630 0.03600
C 	C 	0.72530 0.90860 0.87000 -0.07700
H 	H 	0.71660 0.93590 0.83390 0.06200
C 	C 	0.69910 0.86720 0.84500 0.01800
H 	H 	0.67280 0.86670 0.79200 0.03800
C 	C 	0.09380 0.85080 0.36800 0.38600
C 	C 	0.03980 0.87540 0.37800 -0.09900
C 	C 	0.99970 0.86530 0.30300 -0.00800
H 	H 	0.00740 0.84470 0.24800 0.04200
C 	C 	0.94880 0.88520 0.30900 -0.01100
C 	C 	0.93760 0.91760 0.38800 -0.04000
H 	H 	0.90390 0.93200 0.39120 0.04100
C 	C 	0.97710 0.92840 0.46300 -0.05600
H 	H 	0.96850 0.94680 0.52200 0.05300
C 	C 	0.02980 0.91130 0.45000 0.00700
H 	H 	0.05810 0.92380 0.49000 0.04100
