data_crystal

_cell_length_a 17.96930
_cell_length_b 17.96930
_cell_length_c 30.18940
_cell_angle_alpha 90.00000
_cell_angle_beta  90.00000
_cell_angle_gamma 90.00000

_symmetry_space_group_name_	'P 1'
_symmetry_space_group_name_H-M	'P 1'

loop_
_symmetry_equiv_pos_as_xyz
  x,y,z

loop_
_atom_site_label
_atom_site_type_symbol
_atom_site_fract_x
_atom_site_fract_y
_atom_site_fract_z
_atom_site_charge
Cd	Cd	0.68097 0.16820 0.31251 1.15000
Cd	Cd	0.85047 0.67294 0.31837 1.18200
O 	O 	0.83496 0.80356 0.31397 -0.38900
N 	N 	0.97860 0.50500 0.07809 -0.11700
N 	N 	0.79890 0.65880 0.17527 -0.12500
O 	O 	0.75490 0.06470 0.31576 -0.42000
O 	O 	0.95460 0.77620 0.31826 -0.35300
N 	N 	0.09047 0.55280 0.07277 -0.24900
C 	C 	0.88180 0.03230 0.31143 -0.04200
N 	N 	0.84010 0.67442 0.24354 -0.25000
C 	C 	0.99490 0.92670 0.31371 -0.07800
H 	H 	0.03320 0.89190 0.31380 0.08300
O 	O 	0.83540 0.15550 0.30534 -0.37900
C 	C 	0.01040 0.00190 0.31353 0.09000
C 	C 	0.92090 0.90390 0.31379 -0.03300
N 	N 	0.83950 0.68280 0.39292 -0.25300
N 	N 	0.52680 0.98140 0.29917 -0.11900
N 	N 	0.58560 0.08747 0.30388 -0.26100
C 	C 	0.86530 0.95690 0.31229 -0.02100
H 	H 	0.81580 0.94170 0.31180 0.06300
C 	C 	0.75400 0.63110 0.13746 -0.03700
H 	H 	0.75230 0.66910 0.11460 0.01700
H 	H 	0.70350 0.62200 0.14740 0.03700
C 	C 	0.81990 0.08970 0.31073 0.31500
C 	C 	0.58970 0.01500 0.31067 0.08800
H 	H 	0.63120 0.99070 0.32200 -0.00500
C 	C 	0.48020 0.03440 0.28419 -0.00700
H 	H 	0.43210 0.02740 0.27370 0.02800
C 	C 	0.86610 0.56820 0.10432 -0.10100
H 	H 	0.87040 0.61070 0.08470 0.03400
H 	H 	0.89560 0.57850 0.13050 0.06500
C 	C 	0.95520 0.05520 0.31148 -0.07700
H 	H 	0.96720 0.10550 0.31020 0.08000
C 	C 	0.01890 0.56690 0.07337 0.08500
H 	H 	0.99860 0.61430 0.07080 -0.04900
N 	N 	0.80960 0.65170 0.46039 -0.11600
C 	C 	0.90320 0.82130 0.31547 0.29900
C 	C 	0.62590 0.74430 0.24627 -0.02900
H 	H 	0.61340 0.69360 0.23820 0.02600
H 	H 	0.66270 0.74220 0.26970 0.01900
O 	O 	0.13730 0.98060 0.31550 -0.14900
O 	O 	0.10130 0.09220 0.31520 -0.14800
C 	C 	0.89700 0.50120 0.08161 -0.04600
H 	H 	0.88320 0.45690 0.09800 0.03600
H 	H 	0.87570 0.49730 0.05220 0.03800
C 	C 	0.51640 0.09870 0.28738 -0.00000
H 	H 	0.49700 0.14480 0.27940 -0.01900
C 	C 	0.78570 0.55970 0.11783 -0.10100
H 	H 	0.78170 0.52000 0.13950 0.03300
H 	H 	0.75650 0.54560 0.09220 0.05300
C 	C 	0.88190 0.71660 0.21484 -0.00100
H 	H 	0.92160 0.74680 0.22300 0.03600
C 	C 	0.87020 0.73220 0.42120 0.01600
H 	H 	0.89940 0.77260 0.41300 0.01300
C 	C 	0.85690 0.70790 0.17338 0.00200
H 	H 	0.87550 0.73090 0.14810 0.01700
C 	C 	0.09620 0.47830 0.07726 0.01900
H 	H 	0.14080 0.45200 0.07830 0.01400
N 	N 	0.08850 0.02650 0.31475 -0.00600
C 	C 	0.85230 0.71420 0.46335 -0.02300
H 	H 	0.86610 0.73920 0.48900 0.03300
C 	C 	0.57110 0.86250 0.27220 -0.10200
H 	H 	0.61900 0.86770 0.28680 0.06300
H 	H 	0.57460 0.88780 0.24390 0.06900
C 	C 	0.79080 0.64070 0.21832 0.09000
H 	H 	0.75470 0.60820 0.22890 -0.04300
C 	C 	0.51570 0.90020 0.29880 -0.04700
H 	H 	0.51800 0.88160 0.32890 0.04300
H 	H 	0.46660 0.88920 0.28720 0.05000
C 	C 	0.55810 0.78160 0.26347 -0.10900
H 	H 	0.54270 0.75750 0.29070 0.05200
H 	H 	0.51810 0.77630 0.24210 0.05800
C 	C 	0.02820 0.44790 0.07995 -0.01600
H 	H 	0.01710 0.39760 0.08260 0.03300
C 	C 	0.80260 0.63660 0.41720 0.08500
H 	H 	0.77450 0.59740 0.40600 -0.02800
N 	N 	0.65920 0.78220 0.20712 -0.12100
N 	N 	0.67692 0.81685 0.13842 -0.25200
C 	C 	0.72150 0.82540 0.20673 -0.00400
H 	H 	0.75110 0.83790 0.23090 0.04300
C 	C 	0.63340 0.77870 0.16550 0.08600
H 	H 	0.59090 0.75300 0.15690 -0.00800
C 	C 	0.73170 0.84650 0.16436 -0.00300
H 	H 	0.77010 0.87670 0.15430 0.00600
C 	C 	0.71220 0.66700 0.51691 -0.10300
H 	H 	0.68630 0.64260 0.54060 0.06900
H 	H 	0.73810 0.70970 0.52810 0.06900
C 	C 	0.76740 0.61530 0.49600 -0.05500
H 	H 	0.80180 0.59770 0.51840 0.04700
H 	H 	0.74140 0.57250 0.48400 0.06500
Cd	Cd	0.31903 0.83180 0.81251 1.14900
Cd	Cd	0.14953 0.32706 0.81837 1.18100
O 	O 	0.16504 0.19644 0.81397 -0.39000
N 	N 	0.02140 0.49500 0.57809 -0.11900
N 	N 	0.20110 0.34120 0.67527 -0.12500
O 	O 	0.24510 0.93530 0.81576 -0.42000
O 	O 	0.04540 0.22380 0.81826 -0.35300
N 	N 	0.90953 0.44720 0.57277 -0.24900
C 	C 	0.11820 0.96770 0.81143 -0.04200
N 	N 	0.15990 0.32558 0.74354 -0.25000
C 	C 	0.00510 0.07330 0.81371 -0.07900
H 	H 	0.96680 0.10810 0.81380 0.08300
O 	O 	0.16460 0.84450 0.80534 -0.37900
C 	C 	0.98960 0.99810 0.81353 0.09000
C 	C 	0.07910 0.09610 0.81379 -0.03300
N 	N 	0.16050 0.31720 0.89292 -0.25300
N 	N 	0.47320 0.01860 0.79917 -0.11900
N 	N 	0.41440 0.91253 0.80388 -0.26100
C 	C 	0.13470 0.04310 0.81229 -0.02100
H 	H 	0.18420 0.05830 0.81180 0.06300
C 	C 	0.24600 0.36890 0.63746 -0.03700
H 	H 	0.24770 0.33090 0.61460 0.01700
H 	H 	0.29650 0.37800 0.64740 0.03700
C 	C 	0.18010 0.91030 0.81073 0.31400
C 	C 	0.41030 0.98500 0.81067 0.08800
H 	H 	0.36880 0.00930 0.82200 -0.00500
C 	C 	0.51980 0.96560 0.78419 -0.00700
H 	H 	0.56790 0.97260 0.77370 0.02800
C 	C 	0.13390 0.43180 0.60432 -0.10200
H 	H 	0.12960 0.38930 0.58470 0.03400
H 	H 	0.10440 0.42150 0.63050 0.06500
C 	C 	0.04480 0.94480 0.81148 -0.07700
H 	H 	0.03280 0.89450 0.81020 0.08000
C 	C 	0.98110 0.43310 0.57337 0.08600
H 	H 	0.00140 0.38570 0.57080 -0.05000
N 	N 	0.19040 0.34830 0.96039 -0.11600
C 	C 	0.09680 0.17870 0.81547 0.29900
C 	C 	0.37410 0.25570 0.74627 -0.02900
H 	H 	0.38660 0.30640 0.73820 0.02600
H 	H 	0.33730 0.25780 0.76970 0.01900
O 	O 	0.86270 0.01940 0.81550 -0.14900
O 	O 	0.89870 0.90780 0.81520 -0.14800
C 	C 	0.10300 0.49880 0.58161 -0.04600
H 	H 	0.11680 0.54310 0.59800 0.03600
H 	H 	0.12430 0.50270 0.55220 0.03800
C 	C 	0.48360 0.90130 0.78738 -0.00000
H 	H 	0.50300 0.85520 0.77940 -0.01900
C 	C 	0.21430 0.44030 0.61783 -0.10100
H 	H 	0.21830 0.48000 0.63950 0.03300
H 	H 	0.24350 0.45440 0.59220 0.05300
C 	C 	0.11810 0.28340 0.71484 -0.00100
H 	H 	0.07840 0.25320 0.72300 0.03600
C 	C 	0.12980 0.26780 0.92120 0.01600
H 	H 	0.10060 0.22740 0.91300 0.01300
C 	C 	0.14310 0.29210 0.67338 0.00200
H 	H 	0.12450 0.26910 0.64810 0.01600
C 	C 	0.90380 0.52170 0.57726 0.01900
H 	H 	0.85920 0.54800 0.57830 0.01500
N 	N 	0.91150 0.97350 0.81475 -0.00600
C 	C 	0.14770 0.28580 0.96335 -0.02300
H 	H 	0.13390 0.26080 0.98900 0.03300
C 	C 	0.42890 0.13750 0.77220 -0.10300
H 	H 	0.38100 0.13230 0.78680 0.06300
H 	H 	0.42540 0.11220 0.74390 0.06900
C 	C 	0.20920 0.35930 0.71832 0.09000
H 	H 	0.24530 0.39180 0.72890 -0.04300
C 	C 	0.48430 0.09980 0.79880 -0.04700
H 	H 	0.48200 0.11840 0.82890 0.04300
H 	H 	0.53340 0.11080 0.78720 0.04900
C 	C 	0.44190 0.21840 0.76347 -0.10900
H 	H 	0.45730 0.24250 0.79070 0.05200
H 	H 	0.48190 0.22370 0.74210 0.05800
C 	C 	0.97180 0.55210 0.57995 -0.01500
H 	H 	0.98290 0.60240 0.58260 0.03300
C 	C 	0.19740 0.36340 0.91720 0.08500
H 	H 	0.22550 0.40260 0.90600 -0.02800
N 	N 	0.34080 0.21780 0.70712 -0.12100
N 	N 	0.32308 0.18315 0.63842 -0.25200
C 	C 	0.27850 0.17460 0.70673 -0.00400
H 	H 	0.24890 0.16210 0.73090 0.04300
C 	C 	0.36660 0.22130 0.66550 0.08600
H 	H 	0.40910 0.24700 0.65690 -0.00800
C 	C 	0.26830 0.15350 0.66436 -0.00300
H 	H 	0.22990 0.12330 0.65430 0.00600
C 	C 	0.28780 0.33300 0.01691 -0.10300
H 	H 	0.31370 0.35740 0.04060 0.06900
H 	H 	0.26190 0.29030 0.02810 0.06900
C 	C 	0.23260 0.38470 0.99600 -0.05400
H 	H 	0.19820 0.40230 0.01840 0.04700
H 	H 	0.25860 0.42750 0.98400 0.06500
Cd	Cd	0.33180 0.18097 0.56251 1.14900
Cd	Cd	0.82706 0.35047 0.56837 1.18100
O 	O 	0.69644 0.33496 0.56397 -0.39000
N 	N 	0.99500 0.47860 0.32809 -0.11900
N 	N 	0.84120 0.29890 0.42527 -0.12500
O 	O 	0.43530 0.25490 0.56576 -0.42000
O 	O 	0.72380 0.45460 0.56826 -0.35300
N 	N 	0.94720 0.59047 0.32277 -0.24900
C 	C 	0.46770 0.38180 0.56143 -0.04200
N 	N 	0.82558 0.34010 0.49354 -0.25000
C 	C 	0.57330 0.49490 0.56371 -0.07900
H 	H 	0.60810 0.53320 0.56380 0.08300
O 	O 	0.34450 0.33540 0.55534 -0.37900
C 	C 	0.49810 0.51040 0.56353 0.09100
C 	C 	0.59610 0.42090 0.56379 -0.03300
N 	N 	0.81720 0.33950 0.64292 -0.25300
N 	N 	0.51860 0.02680 0.54917 -0.11900
N 	N 	0.41253 0.08560 0.55388 -0.26100
C 	C 	0.54310 0.36530 0.56229 -0.02100
H 	H 	0.55830 0.31580 0.56180 0.06300
C 	C 	0.86890 0.25400 0.38746 -0.03700
H 	H 	0.83090 0.25230 0.36460 0.01700
H 	H 	0.87800 0.20350 0.39740 0.03700
C 	C 	0.41030 0.31990 0.56073 0.31400
C 	C 	0.48500 0.08970 0.56067 0.08700
H 	H 	0.50930 0.13120 0.57200 -0.00400
C 	C 	0.46560 0.98020 0.53419 -0.00700
H 	H 	0.47260 0.93210 0.52370 0.02800
C 	C 	0.93180 0.36610 0.35432 -0.10200
H 	H 	0.88930 0.37040 0.33470 0.03500
H 	H 	0.92150 0.39560 0.38050 0.06500
C 	C 	0.44480 0.45520 0.56148 -0.07800
H 	H 	0.39450 0.46720 0.56020 0.08000
C 	C 	0.93310 0.51890 0.32337 0.08600
H 	H 	0.88570 0.49860 0.32080 -0.05000
N 	N 	0.84830 0.30960 0.71039 -0.11600
C 	C 	0.67870 0.40320 0.56547 0.29900
C 	C 	0.75570 0.12590 0.49627 -0.02900
H 	H 	0.80640 0.11340 0.48820 0.02500
H 	H 	0.75780 0.16270 0.51970 0.01900
O 	O 	0.51940 0.63730 0.56550 -0.14900
O 	O 	0.40780 0.60130 0.56520 -0.14800
C 	C 	0.99880 0.39700 0.33161 -0.04500
H 	H 	0.04310 0.38320 0.34800 0.03500
H 	H 	0.00270 0.37570 0.30220 0.03800
C 	C 	0.40130 0.01640 0.53738 -0.00000
H 	H 	0.35520 0.99700 0.52940 -0.01900
C 	C 	0.94030 0.28570 0.36783 -0.10000
H 	H 	0.98000 0.28170 0.38950 0.03300
H 	H 	0.95440 0.25650 0.34220 0.05300
C 	C 	0.78340 0.38190 0.46484 -0.00100
H 	H 	0.75320 0.42160 0.47300 0.03600
C 	C 	0.76780 0.37020 0.67120 0.01600
H 	H 	0.72740 0.39940 0.66300 0.01300
C 	C 	0.79210 0.35690 0.42338 0.00200
H 	H 	0.76910 0.37550 0.39810 0.01700
C 	C 	0.02170 0.59620 0.32726 0.01800
H 	H 	0.04800 0.64080 0.32830 0.01500
N 	N 	0.47350 0.58850 0.56475 -0.00600
C 	C 	0.78580 0.35230 0.71335 -0.02300
H 	H 	0.76080 0.36610 0.73900 0.03300
C 	C 	0.63750 0.07110 0.52220 -0.10200
H 	H 	0.63230 0.11900 0.53680 0.06300
H 	H 	0.61220 0.07460 0.49390 0.06900
C 	C 	0.85930 0.29080 0.46832 0.09000
H 	H 	0.89180 0.25470 0.47890 -0.04300
C 	C 	0.59980 0.01570 0.54880 -0.04700
H 	H 	0.61840 0.01800 0.57890 0.04300
H 	H 	0.61080 0.96660 0.53720 0.05000
C 	C 	0.71840 0.05810 0.51347 -0.10900
H 	H 	0.74250 0.04270 0.54070 0.05200
H 	H 	0.72370 0.01810 0.49210 0.05800
C 	C 	0.05210 0.52820 0.32995 -0.01500
H 	H 	0.10240 0.51710 0.33260 0.03300
C 	C 	0.86340 0.30260 0.66720 0.08500
H 	H 	0.90260 0.27450 0.65600 -0.02800
N 	N 	0.71780 0.15920 0.45712 -0.12100
N 	N 	0.68315 0.17692 0.38842 -0.25200
C 	C 	0.67460 0.22150 0.45673 -0.00400
H 	H 	0.66210 0.25110 0.48090 0.04300
C 	C 	0.72130 0.13340 0.41550 0.08600
H 	H 	0.74700 0.09090 0.40690 -0.00900
C 	C 	0.65350 0.23170 0.41436 -0.00300
H 	H 	0.62330 0.27010 0.40430 0.00700
C 	C 	0.83300 0.21220 0.76691 -0.10300
H 	H 	0.85740 0.18630 0.79060 0.06900
H 	H 	0.79030 0.23810 0.77810 0.06900
C 	C 	0.88470 0.26740 0.74600 -0.05400
H 	H 	0.90230 0.30180 0.76840 0.04700
H 	H 	0.92750 0.24140 0.73400 0.06500
Cd	Cd	0.66820 0.81903 0.06251 1.14900
Cd	Cd	0.17294 0.64953 0.06837 1.18100
O 	O 	0.30356 0.66504 0.06397 -0.39000
N 	N 	0.00500 0.52140 0.82809 -0.11900
N 	N 	0.15880 0.70110 0.92527 -0.12500
O 	O 	0.56470 0.74510 0.06576 -0.42000
O 	O 	0.27620 0.54540 0.06826 -0.35300
N 	N 	0.05280 0.40953 0.82277 -0.24900
C 	C 	0.53230 0.61820 0.06143 -0.04200
N 	N 	0.17442 0.65990 0.99354 -0.25000
C 	C 	0.42670 0.50510 0.06371 -0.07900
H 	H 	0.39190 0.46680 0.06380 0.08300
O 	O 	0.65550 0.66460 0.05534 -0.37900
C 	C 	0.50190 0.48960 0.06353 0.09100
C 	C 	0.40390 0.57910 0.06379 -0.03300
N 	N 	0.18280 0.66050 0.14292 -0.25300
N 	N 	0.48140 0.97320 0.04917 -0.11900
N 	N 	0.58747 0.91440 0.05388 -0.26100
C 	C 	0.45690 0.63470 0.06229 -0.02100
H 	H 	0.44170 0.68420 0.06180 0.06300
C 	C 	0.13110 0.74600 0.88746 -0.03700
H 	H 	0.16910 0.74770 0.86460 0.01700
H 	H 	0.12200 0.79650 0.89740 0.03700
C 	C 	0.58970 0.68010 0.06073 0.31400
C 	C 	0.51500 0.91030 0.06067 0.08700
H 	H 	0.49070 0.86880 0.07200 -0.00400
C 	C 	0.53440 0.01980 0.03419 -0.00600
H 	H 	0.52740 0.06790 0.02370 0.02700
C 	C 	0.06820 0.63390 0.85432 -0.10200
H 	H 	0.11070 0.62960 0.83470 0.03500
H 	H 	0.07850 0.60440 0.88050 0.06500
C 	C 	0.55520 0.54480 0.06148 -0.07800
H 	H 	0.60550 0.53280 0.06020 0.08000
C 	C 	0.06690 0.48110 0.82337 0.08600
H 	H 	0.11430 0.50140 0.82080 -0.05000
N 	N 	0.15170 0.69040 0.21039 -0.11600
C 	C 	0.32130 0.59680 0.06547 0.29900
C 	C 	0.24430 0.87410 0.99627 -0.02500
H 	H 	0.19360 0.88660 0.98820 0.02500
H 	H 	0.24220 0.83730 0.01970 0.01800
O 	O 	0.48060 0.36270 0.06550 -0.14900
O 	O 	0.59220 0.39870 0.06520 -0.14800
C 	C 	0.00120 0.60300 0.83161 -0.04400
H 	H 	0.95690 0.61680 0.84800 0.03500
H 	H 	0.99730 0.62430 0.80220 0.03700
C 	C 	0.59870 0.98360 0.03738 -0.00200
H 	H 	0.64480 0.00300 0.02940 -0.01800
C 	C 	0.05970 0.71430 0.86783 -0.10000
H 	H 	0.02000 0.71830 0.88950 0.03300
H 	H 	0.04560 0.74350 0.84220 0.05300
C 	C 	0.21660 0.61810 0.96484 -0.00100
H 	H 	0.24680 0.57840 0.97300 0.03600
C 	C 	0.23220 0.62980 0.17120 0.01600
H 	H 	0.27260 0.60060 0.16300 0.01300
C 	C 	0.20790 0.64310 0.92338 0.00200
H 	H 	0.23090 0.62450 0.89810 0.01700
C 	C 	0.97830 0.40380 0.82726 0.01800
H 	H 	0.95200 0.35920 0.82830 0.01500
N 	N 	0.52650 0.41150 0.06475 -0.00600
C 	C 	0.21420 0.64770 0.21335 -0.02300
H 	H 	0.23920 0.63390 0.23900 0.03300
C 	C 	0.36250 0.92890 0.02220 -0.10000
H 	H 	0.36770 0.88100 0.03680 0.06200
H 	H 	0.38780 0.92540 0.99390 0.06900
C 	C 	0.14070 0.70920 0.96832 0.09000
H 	H 	0.10820 0.74530 0.97890 -0.04300
C 	C 	0.40020 0.98430 0.04880 -0.04900
H 	H 	0.38160 0.98200 0.07890 0.04400
H 	H 	0.38920 0.03340 0.03720 0.05000
C 	C 	0.28160 0.94190 0.01347 -0.11300
H 	H 	0.25750 0.95730 0.04070 0.05300
H 	H 	0.27630 0.98190 0.99210 0.06000
C 	C 	0.94790 0.47180 0.82995 -0.01500
H 	H 	0.89760 0.48290 0.83260 0.03300
C 	C 	0.13660 0.69740 0.16720 0.08500
H 	H 	0.09740 0.72550 0.15600 -0.02800
N 	N 	0.28220 0.84080 0.95712 -0.12100
N 	N 	0.31685 0.82308 0.88842 -0.25200
C 	C 	0.32540 0.77850 0.95673 -0.00400
H 	H 	0.33790 0.74890 0.98090 0.04300
C 	C 	0.27870 0.86660 0.91550 0.08600
H 	H 	0.25300 0.90910 0.90690 -0.00900
C 	C 	0.34650 0.76830 0.91436 -0.00400
H 	H 	0.37670 0.72990 0.90430 0.00700
C 	C 	0.16700 0.78780 0.26691 -0.10300
H 	H 	0.14260 0.81370 0.29060 0.06900
H 	H 	0.20970 0.76190 0.27810 0.06900
C 	C 	0.11530 0.73260 0.24600 -0.05400
H 	H 	0.09770 0.69820 0.26840 0.04700
H 	H 	0.07250 0.75860 0.23400 0.06500
Cd	Cd	0.81903 0.66820 0.93750 1.14900
Cd	Cd	0.64953 0.17294 0.93163 1.18100
O 	O 	0.66504 0.30356 0.93603 -0.39000
N 	N 	0.52140 0.00500 0.17191 -0.11900
N 	N 	0.70110 0.15880 0.07473 -0.12500
O 	O 	0.74510 0.56470 0.93424 -0.42000
O 	O 	0.54540 0.27620 0.93174 -0.35300
N 	N 	0.40953 0.05280 0.17723 -0.24900
C 	C 	0.61820 0.53230 0.93857 -0.04200
N 	N 	0.65990 0.17442 0.00646 -0.25000
C 	C 	0.50510 0.42670 0.93629 -0.07900
H 	H 	0.46680 0.39190 0.93620 0.08300
O 	O 	0.66460 0.65550 0.94466 -0.37900
C 	C 	0.48960 0.50190 0.93647 0.09100
C 	C 	0.57910 0.40390 0.93621 -0.03300
N 	N 	0.66050 0.18280 0.85708 -0.25300
N 	N 	0.97320 0.48140 0.95083 -0.11900
N 	N 	0.91440 0.58747 0.94612 -0.26100
C 	C 	0.63470 0.45690 0.93771 -0.02100
H 	H 	0.68420 0.44170 0.93820 0.06300
C 	C 	0.74600 0.13110 0.11254 -0.03700
H 	H 	0.74770 0.16910 0.13540 0.01700
H 	H 	0.79650 0.12200 0.10260 0.03700
C 	C 	0.68010 0.58970 0.93927 0.31400
C 	C 	0.91030 0.51500 0.93933 0.08700
H 	H 	0.86880 0.49070 0.92800 -0.00400
C 	C 	0.01980 0.53440 0.96581 -0.00600
H 	H 	0.06790 0.52740 0.97630 0.02700
C 	C 	0.63390 0.06820 0.14568 -0.10200
H 	H 	0.62960 0.11070 0.16530 0.03500
H 	H 	0.60440 0.07850 0.11950 0.06500
C 	C 	0.54480 0.55520 0.93852 -0.07800
H 	H 	0.53280 0.60550 0.93980 0.08000
C 	C 	0.48110 0.06690 0.17663 0.08600
H 	H 	0.50140 0.11430 0.17920 -0.05000
N 	N 	0.69040 0.15170 0.78961 -0.11600
C 	C 	0.59680 0.32130 0.93453 0.29900
C 	C 	0.87410 0.24430 0.00373 -0.02500
H 	H 	0.88660 0.19360 0.01180 0.02500
H 	H 	0.83730 0.24220 0.98030 0.01800
O 	O 	0.36270 0.48060 0.93450 -0.14900
O 	O 	0.39870 0.59220 0.93480 -0.14800
C 	C 	0.60300 0.00120 0.16839 -0.04400
H 	H 	0.61680 0.95690 0.15200 0.03500
H 	H 	0.62430 0.99730 0.19780 0.03700
C 	C 	0.98360 0.59870 0.96262 -0.00200
H 	H 	0.00300 0.64480 0.97060 -0.01800
C 	C 	0.71430 0.05970 0.13217 -0.10000
H 	H 	0.71830 0.02000 0.11050 0.03300
H 	H 	0.74350 0.04560 0.15780 0.05300
C 	C 	0.61810 0.21660 0.03516 -0.00100
H 	H 	0.57840 0.24680 0.02700 0.03600
C 	C 	0.62980 0.23220 0.82880 0.01600
H 	H 	0.60060 0.27260 0.83700 0.01300
C 	C 	0.64310 0.20790 0.07662 0.00200
H 	H 	0.62450 0.23090 0.10190 0.01700
C 	C 	0.40380 0.97830 0.17274 0.01800
H 	H 	0.35920 0.95200 0.17170 0.01500
N 	N 	0.41150 0.52650 0.93525 -0.00600
C 	C 	0.64770 0.21420 0.78665 -0.02300
H 	H 	0.63390 0.23920 0.76100 0.03300
C 	C 	0.92890 0.36250 0.97780 -0.10000
H 	H 	0.88100 0.36770 0.96320 0.06200
H 	H 	0.92540 0.38780 0.00610 0.06900
C 	C 	0.70920 0.14070 0.03168 0.09000
H 	H 	0.74530 0.10820 0.02110 -0.04300
C 	C 	0.98430 0.40020 0.95120 -0.04900
H 	H 	0.98200 0.38160 0.92110 0.04400
H 	H 	0.03340 0.38920 0.96280 0.05000
C 	C 	0.94190 0.28160 0.98653 -0.11300
H 	H 	0.95730 0.25750 0.95930 0.05300
H 	H 	0.98190 0.27630 0.00790 0.06000
C 	C 	0.47180 0.94790 0.17005 -0.01500
H 	H 	0.48290 0.89760 0.16740 0.03300
C 	C 	0.69740 0.13660 0.83280 0.08500
H 	H 	0.72550 0.09740 0.84400 -0.02800
N 	N 	0.84080 0.28220 0.04288 -0.12100
N 	N 	0.82308 0.31685 0.11158 -0.25200
C 	C 	0.77850 0.32540 0.04327 -0.00400
H 	H 	0.74890 0.33790 0.01910 0.04300
C 	C 	0.86660 0.27870 0.08450 0.08600
H 	H 	0.90910 0.25300 0.09310 -0.00900
C 	C 	0.76830 0.34650 0.08564 -0.00400
H 	H 	0.72990 0.37670 0.09570 0.00700
C 	C 	0.78780 0.16700 0.73309 -0.10300
H 	H 	0.81370 0.14260 0.70940 0.06900
H 	H 	0.76190 0.20970 0.72190 0.06900
C 	C 	0.73260 0.11530 0.75400 -0.05400
H 	H 	0.69820 0.09770 0.73160 0.04700
H 	H 	0.75860 0.07250 0.76600 0.06500
Cd	Cd	0.18097 0.33180 0.43750 1.14900
Cd	Cd	0.35047 0.82706 0.43163 1.18100
O 	O 	0.33496 0.69644 0.43603 -0.39000
N 	N 	0.47860 0.99500 0.67191 -0.11900
N 	N 	0.29890 0.84120 0.57473 -0.12500
O 	O 	0.25490 0.43530 0.43424 -0.42000
O 	O 	0.45460 0.72380 0.43174 -0.35300
N 	N 	0.59047 0.94720 0.67723 -0.24900
C 	C 	0.38180 0.46770 0.43857 -0.04200
N 	N 	0.34010 0.82558 0.50646 -0.25000
C 	C 	0.49490 0.57330 0.43629 -0.07900
H 	H 	0.53320 0.60810 0.43620 0.08300
O 	O 	0.33540 0.34450 0.44466 -0.37900
C 	C 	0.51040 0.49810 0.43647 0.09100
C 	C 	0.42090 0.59610 0.43621 -0.03300
N 	N 	0.33950 0.81720 0.35708 -0.25300
N 	N 	0.02680 0.51860 0.45083 -0.11900
N 	N 	0.08560 0.41253 0.44612 -0.26100
C 	C 	0.36530 0.54310 0.43771 -0.02100
H 	H 	0.31580 0.55830 0.43820 0.06300
C 	C 	0.25400 0.86890 0.61254 -0.03700
H 	H 	0.25230 0.83090 0.63540 0.01700
H 	H 	0.20350 0.87800 0.60260 0.03700
C 	C 	0.31990 0.41030 0.43927 0.31400
C 	C 	0.08970 0.48500 0.43933 0.08700
H 	H 	0.13120 0.50930 0.42800 -0.00400
C 	C 	0.98020 0.46560 0.46581 -0.00700
H 	H 	0.93210 0.47260 0.47630 0.02800
C 	C 	0.36610 0.93180 0.64568 -0.10200
H 	H 	0.37040 0.88930 0.66530 0.03500
H 	H 	0.39560 0.92150 0.61950 0.06500
C 	C 	0.45520 0.44480 0.43852 -0.07800
H 	H 	0.46720 0.39450 0.43980 0.08000
C 	C 	0.51890 0.93310 0.67663 0.08600
H 	H 	0.49860 0.88570 0.67920 -0.05000
N 	N 	0.30960 0.84830 0.28961 -0.11600
C 	C 	0.40320 0.67870 0.43453 0.29900
C 	C 	0.12590 0.75570 0.50373 -0.02900
H 	H 	0.11340 0.80640 0.51180 0.02500
H 	H 	0.16270 0.75780 0.48030 0.01900
O 	O 	0.63730 0.51940 0.43450 -0.14900
O 	O 	0.60130 0.40780 0.43480 -0.14800
C 	C 	0.39700 0.99880 0.66839 -0.04500
H 	H 	0.38320 0.04310 0.65200 0.03500
H 	H 	0.37570 0.00270 0.69780 0.03800
C 	C 	0.01640 0.40130 0.46262 -0.00000
H 	H 	0.99700 0.35520 0.47060 -0.01900
C 	C 	0.28570 0.94030 0.63217 -0.10000
H 	H 	0.28170 0.98000 0.61050 0.03300
H 	H 	0.25650 0.95440 0.65780 0.05300
C 	C 	0.38190 0.78340 0.53516 -0.00100
H 	H 	0.42160 0.75320 0.52700 0.03600
C 	C 	0.37020 0.76780 0.32880 0.01600
H 	H 	0.39940 0.72740 0.33700 0.01300
C 	C 	0.35690 0.79210 0.57662 0.00200
H 	H 	0.37550 0.76910 0.60190 0.01700
C 	C 	0.59620 0.02170 0.67274 0.01800
H 	H 	0.64080 0.04800 0.67170 0.01500
N 	N 	0.58850 0.47350 0.43525 -0.00600
C 	C 	0.35230 0.78580 0.28665 -0.02300
H 	H 	0.36610 0.76080 0.26100 0.03300
C 	C 	0.07110 0.63750 0.47780 -0.10200
H 	H 	0.11900 0.63230 0.46320 0.06300
H 	H 	0.07460 0.61220 0.50610 0.06900
C 	C 	0.29080 0.85930 0.53168 0.09000
H 	H 	0.25470 0.89180 0.52110 -0.04300
C 	C 	0.01570 0.59980 0.45120 -0.04700
H 	H 	0.01800 0.61840 0.42110 0.04300
H 	H 	0.96660 0.61080 0.46280 0.05000
C 	C 	0.05810 0.71840 0.48653 -0.10900
H 	H 	0.04270 0.74250 0.45930 0.05200
H 	H 	0.01810 0.72370 0.50790 0.05800
C 	C 	0.52820 0.05210 0.67005 -0.01500
H 	H 	0.51710 0.10240 0.66740 0.03300
C 	C 	0.30260 0.86340 0.33280 0.08500
H 	H 	0.27450 0.90260 0.34400 -0.02800
N 	N 	0.15920 0.71780 0.54288 -0.12100
N 	N 	0.17692 0.68315 0.61158 -0.25200
C 	C 	0.22150 0.67460 0.54327 -0.00400
H 	H 	0.25110 0.66210 0.51910 0.04300
C 	C 	0.13340 0.72130 0.58450 0.08600
H 	H 	0.09090 0.74700 0.59310 -0.00900
C 	C 	0.23170 0.65350 0.58564 -0.00300
H 	H 	0.27010 0.62330 0.59570 0.00700
C 	C 	0.21220 0.83300 0.23309 -0.10300
H 	H 	0.18630 0.85740 0.20940 0.06900
H 	H 	0.23810 0.79030 0.22190 0.06900
C 	C 	0.26740 0.88470 0.25400 -0.05400
H 	H 	0.30180 0.90230 0.23160 0.04700
H 	H 	0.24140 0.92750 0.26600 0.06500
Cd	Cd	0.16820 0.68097 0.68749 1.14900
Cd	Cd	0.67294 0.85047 0.68163 1.18100
O 	O 	0.80356 0.83496 0.68603 -0.39000
N 	N 	0.50500 0.97860 0.92191 -0.11800
N 	N 	0.65880 0.79890 0.82473 -0.12500
O 	O 	0.06470 0.75490 0.68424 -0.42000
O 	O 	0.77620 0.95460 0.68174 -0.35300
N 	N 	0.55280 0.09047 0.92723 -0.24900
C 	C 	0.03230 0.88180 0.68857 -0.04200
N 	N 	0.67442 0.84010 0.75646 -0.25000
C 	C 	0.92670 0.99490 0.68629 -0.07800
H 	H 	0.89190 0.03320 0.68620 0.08300
O 	O 	0.15550 0.83540 0.69466 -0.37900
C 	C 	0.00190 0.01040 0.68647 0.09000
C 	C 	0.90390 0.92090 0.68621 -0.03300
N 	N 	0.68280 0.83950 0.60708 -0.25300
N 	N 	0.98140 0.52680 0.70083 -0.11900
N 	N 	0.08747 0.58560 0.69612 -0.26100
C 	C 	0.95690 0.86530 0.68771 -0.02100
H 	H 	0.94170 0.81580 0.68820 0.06300
C 	C 	0.63110 0.75400 0.86254 -0.03700
H 	H 	0.66910 0.75230 0.88540 0.01700
H 	H 	0.62200 0.70350 0.85260 0.03700
C 	C 	0.08970 0.81990 0.68927 0.31500
C 	C 	0.01500 0.58970 0.68933 0.08800
H 	H 	0.99070 0.63120 0.67800 -0.00500
C 	C 	0.03440 0.48020 0.71581 -0.00700
H 	H 	0.02740 0.43210 0.72630 0.02800
C 	C 	0.56820 0.86610 0.89568 -0.10100
H 	H 	0.61070 0.87040 0.91530 0.03400
H 	H 	0.57850 0.89560 0.86950 0.06500
C 	C 	0.05520 0.95520 0.68852 -0.07700
H 	H 	0.10550 0.96720 0.68980 0.08000
C 	C 	0.56690 0.01890 0.92663 0.08500
H 	H 	0.61430 0.99860 0.92920 -0.04900
N 	N 	0.65170 0.80960 0.53961 -0.11600
C 	C 	0.82130 0.90320 0.68453 0.29900
C 	C 	0.74430 0.62590 0.75373 -0.02900
H 	H 	0.69360 0.61340 0.76180 0.02600
H 	H 	0.74220 0.66270 0.73030 0.01900
O 	O 	0.98060 0.13730 0.68450 -0.14900
O 	O 	0.09220 0.10130 0.68480 -0.14800
C 	C 	0.50120 0.89700 0.91839 -0.04600
H 	H 	0.45690 0.88320 0.90200 0.03600
H 	H 	0.49730 0.87570 0.94780 0.03800
C 	C 	0.09870 0.51640 0.71262 -0.00000
H 	H 	0.14480 0.49700 0.72060 -0.01900
C 	C 	0.55970 0.78570 0.88217 -0.10100
H 	H 	0.52000 0.78170 0.86050 0.03300
H 	H 	0.54560 0.75650 0.90780 0.05300
C 	C 	0.71660 0.88190 0.78516 -0.00100
H 	H 	0.74680 0.92160 0.77700 0.03600
C 	C 	0.73220 0.87020 0.57880 0.01600
H 	H 	0.77260 0.89940 0.58700 0.01300
C 	C 	0.70790 0.85690 0.82662 0.00200
H 	H 	0.73090 0.87550 0.85190 0.01700
C 	C 	0.47830 0.09620 0.92274 0.01900
H 	H 	0.45200 0.14080 0.92170 0.01400
N 	N 	0.02650 0.08850 0.68525 -0.00600
C 	C 	0.71420 0.85230 0.53665 -0.02300
H 	H 	0.73920 0.86610 0.51100 0.03300
C 	C 	0.86250 0.57110 0.72780 -0.10200
H 	H 	0.86770 0.61900 0.71320 0.06300
H 	H 	0.88780 0.57460 0.75610 0.06900
C 	C 	0.64070 0.79080 0.78168 0.09000
H 	H 	0.60820 0.75470 0.77110 -0.04300
C 	C 	0.90020 0.51570 0.70120 -0.04700
H 	H 	0.88160 0.51800 0.67110 0.04300
H 	H 	0.88920 0.46660 0.71280 0.05000
C 	C 	0.78160 0.55810 0.73653 -0.10900
H 	H 	0.75750 0.54270 0.70930 0.05200
H 	H 	0.77630 0.51810 0.75790 0.05800
C 	C 	0.44790 0.02820 0.92005 -0.01600
H 	H 	0.39760 0.01710 0.91740 0.03300
C 	C 	0.63660 0.80260 0.58280 0.08500
H 	H 	0.59740 0.77450 0.59400 -0.02800
N 	N 	0.78220 0.65920 0.79288 -0.12100
N 	N 	0.81685 0.67692 0.86158 -0.25200
C 	C 	0.82540 0.72150 0.79327 -0.00400
H 	H 	0.83790 0.75110 0.76910 0.04300
C 	C 	0.77870 0.63340 0.83450 0.08600
H 	H 	0.75300 0.59090 0.84310 -0.00800
C 	C 	0.84650 0.73170 0.83564 -0.00300
H 	H 	0.87670 0.77010 0.84570 0.00600
C 	C 	0.66700 0.71220 0.48309 -0.10300
H 	H 	0.64260 0.68630 0.45940 0.06900
H 	H 	0.70970 0.73810 0.47190 0.06900
C 	C 	0.61530 0.76740 0.50400 -0.05500
H 	H 	0.59770 0.80180 0.48160 0.04700
H 	H 	0.57250 0.74140 0.51600 0.06500
Cd	Cd	0.83180 0.31903 0.18749 1.14900
Cd	Cd	0.32706 0.14953 0.18163 1.18100
O 	O 	0.19644 0.16504 0.18603 -0.39000
N 	N 	0.49500 0.02140 0.42191 -0.11900
N 	N 	0.34120 0.20110 0.32473 -0.12500
O 	O 	0.93530 0.24510 0.18424 -0.42000
O 	O 	0.22380 0.04540 0.18174 -0.35300
N 	N 	0.44720 0.90953 0.42723 -0.24900
C 	C 	0.96770 0.11820 0.18857 -0.04200
N 	N 	0.32558 0.15990 0.25646 -0.25000
C 	C 	0.07330 0.00510 0.18629 -0.07900
H 	H 	0.10810 0.96680 0.18620 0.08300
O 	O 	0.84450 0.16460 0.19466 -0.37900
C 	C 	0.99810 0.98960 0.18647 0.09000
C 	C 	0.09610 0.07910 0.18621 -0.03300
N 	N 	0.31720 0.16050 0.10708 -0.25300
N 	N 	0.01860 0.47320 0.20083 -0.11900
N 	N 	0.91253 0.41440 0.19612 -0.26100
C 	C 	0.04310 0.13470 0.18771 -0.02100
H 	H 	0.05830 0.18420 0.18820 0.06300
C 	C 	0.36890 0.24600 0.36254 -0.03700
H 	H 	0.33090 0.24770 0.38540 0.01700
H 	H 	0.37800 0.29650 0.35260 0.03700
C 	C 	0.91030 0.18010 0.18927 0.31400
C 	C 	0.98500 0.41030 0.18933 0.08800
H 	H 	0.00930 0.36880 0.17800 -0.00500
C 	C 	0.96560 0.51980 0.21581 -0.00700
H 	H 	0.97260 0.56790 0.22630 0.02800
C 	C 	0.43180 0.13390 0.39568 -0.10200
H 	H 	0.38930 0.12960 0.41530 0.03400
H 	H 	0.42150 0.10440 0.36950 0.06500
C 	C 	0.94480 0.04480 0.18852 -0.07700
H 	H 	0.89450 0.03280 0.18980 0.08000
C 	C 	0.43310 0.98110 0.42663 0.08600
H 	H 	0.38570 0.00140 0.42920 -0.05000
N 	N 	0.34830 0.19040 0.03961 -0.11600
C 	C 	0.17870 0.09680 0.18453 0.29900
C 	C 	0.25570 0.37410 0.25373 -0.02900
H 	H 	0.30640 0.38660 0.26180 0.02600
H 	H 	0.25780 0.33730 0.23030 0.01900
O 	O 	0.01940 0.86270 0.18450 -0.14900
O 	O 	0.90780 0.89870 0.18480 -0.14800
C 	C 	0.49880 0.10300 0.41839 -0.04600
H 	H 	0.54310 0.11680 0.40200 0.03600
H 	H 	0.50270 0.12430 0.44780 0.03800
C 	C 	0.90130 0.48360 0.21262 -0.00000
H 	H 	0.85520 0.50300 0.22060 -0.01900
C 	C 	0.44030 0.21430 0.38217 -0.10100
H 	H 	0.48000 0.21830 0.36050 0.03300
H 	H 	0.45440 0.24350 0.40780 0.05300
C 	C 	0.28340 0.11810 0.28516 -0.00100
H 	H 	0.25320 0.07840 0.27700 0.03600
C 	C 	0.26780 0.12980 0.07880 0.01600
H 	H 	0.22740 0.10060 0.08700 0.01300
C 	C 	0.29210 0.14310 0.32662 0.00200
H 	H 	0.26910 0.12450 0.35190 0.01600
C 	C 	0.52170 0.90380 0.42274 0.01900
H 	H 	0.54800 0.85920 0.42170 0.01500
N 	N 	0.97350 0.91150 0.18525 -0.00600
C 	C 	0.28580 0.14770 0.03665 -0.02300
H 	H 	0.26080 0.13390 0.01100 0.03300
C 	C 	0.13750 0.42890 0.22780 -0.10300
H 	H 	0.13230 0.38100 0.21320 0.06300
H 	H 	0.11220 0.42540 0.25610 0.06900
C 	C 	0.35930 0.20920 0.28168 0.09000
H 	H 	0.39180 0.24530 0.27110 -0.04300
C 	C 	0.09980 0.48430 0.20120 -0.04700
H 	H 	0.11840 0.48200 0.17110 0.04300
H 	H 	0.11080 0.53340 0.21280 0.04900
C 	C 	0.21840 0.44190 0.23653 -0.10900
H 	H 	0.24250 0.45730 0.20930 0.05200
H 	H 	0.22370 0.48190 0.25790 0.05800
C 	C 	0.55210 0.97180 0.42005 -0.01500
H 	H 	0.60240 0.98290 0.41740 0.03300
C 	C 	0.36340 0.19740 0.08280 0.08500
H 	H 	0.40260 0.22550 0.09400 -0.02800
N 	N 	0.21780 0.34080 0.29288 -0.12100
N 	N 	0.18315 0.32308 0.36158 -0.25200
C 	C 	0.17460 0.27850 0.29327 -0.00400
H 	H 	0.16210 0.24890 0.26910 0.04300
C 	C 	0.22130 0.36660 0.33450 0.08600
H 	H 	0.24700 0.40910 0.34310 -0.00800
C 	C 	0.15350 0.26830 0.33564 -0.00300
H 	H 	0.12330 0.22990 0.34570 0.00600
C 	C 	0.33300 0.28780 0.98309 -0.10300
H 	H 	0.35740 0.31370 0.95940 0.06900
H 	H 	0.29030 0.26190 0.97190 0.06900
C 	C 	0.38470 0.23260 0.00400 -0.05400
H 	H 	0.40230 0.19820 0.98160 0.04700
H 	H 	0.42750 0.25860 0.01600 0.06500
