data_crystal

_cell_length_a 40.99900
_cell_length_b 14.35300
_cell_length_c 20.25700
_cell_angle_alpha 90.00000
_cell_angle_beta  108.79000
_cell_angle_gamma 90.00000

_symmetry_space_group_name_	'P 1'
_symmetry_space_group_name_H-M	'P 1'

loop_
_symmetry_equiv_pos_as_xyz
  x,y,z

loop_
_atom_site_label
_atom_site_type_symbol
_atom_site_fract_x
_atom_site_fract_y
_atom_site_fract_z
_atom_site_charge
Co	Co	0.91797 0.53417 0.37912 1.15100
Co	Co	0.27665 0.34564 0.17034 1.15400
N 	N 	0.94728 0.42020 0.39610 -0.25500
N 	N 	0.98327 0.31150 0.38750 -0.14500
N 	N 	0.06769 0.66870 0.11410 -0.26400
N 	N 	0.06966 0.81110 0.15120 -0.14300
N 	N 	0.19320 0.09120 0.74535 -0.27400
N 	N 	0.16401 0.06050 0.63501 -0.14200
N 	N 	0.22871 0.35200 0.17669 -0.25400
N 	N 	0.18395 0.32140 0.20954 -0.13900
O 	O 	0.88424 0.52980 0.43119 -0.42000
O 	O 	0.93382 0.52960 0.51738 -0.32800
O 	O 	0.88526 0.48660 0.78335 -0.43000
O 	O 	0.93270 0.46100 0.75526 -0.31700
O 	O 	0.27701 0.38770 0.08056 -0.44600
O 	O 	0.27423 0.53800 0.10340 -0.30700
O 	O 	0.21602 0.28400 0.84440 -0.46100
O 	O 	0.22508 0.36230 0.75730 -0.29000
C 	C 	0.90215 0.53000 0.49590 0.31100
C 	C 	0.88270 0.53180 0.54830 -0.08600
C 	C 	0.89893 0.50740 0.61570 0.02200
H 	H 	0.92220 0.48920 0.62930 0.04900
C 	C 	0.88199 0.50880 0.66510 -0.08500
C 	C 	0.84806 0.53550 0.64550 0.01900
H 	H 	0.83640 0.53640 0.67860 0.04600
C 	C 	0.83097 0.56120 0.57730 -0.08200
H 	H 	0.80790 0.58060 0.56400 0.06600
C 	C 	0.84826 0.55800 0.52810 0.01300
H 	H 	0.83660 0.57370 0.48140 0.04000
C 	C 	0.90188 0.48300 0.73940 0.30900
C 	C 	0.97000 0.39370 0.36580 0.10500
H 	H 	0.97590 0.42960 0.33250 -0.00200
C 	C 	0.96856 0.28100 0.43470 0.00500
H 	H 	0.97290 0.22430 0.45920 0.02900
C 	C 	0.94673 0.34730 0.43940 0.00400
H 	H 	0.93290 0.34450 0.46840 0.02400
C 	C 	0.01052 0.26400 0.36950 0.11600
C 	C 	0.03402 0.31510 0.34880 -0.11000
H 	H 	0.03160 0.38010 0.34390 0.08400
C 	C 	0.06139 0.27020 0.33520 -0.02200
H 	H 	0.07720 0.30540 0.32070 0.04600
C 	C 	0.06552 0.17540 0.34270 0.00500
C 	C 	0.04125 0.12670 0.36430 -0.02000
H 	H 	0.04370 0.06190 0.37070 0.03800
C 	C 	0.01392 0.17070 0.37660 -0.12000
H 	H 	0.99770 0.13580 0.39000 0.07100
C 	C 	0.09827 0.12450 0.34050 -0.03000
C 	C 	0.07370 0.72400 0.16860 0.10700
H 	H 	0.08020 0.70260 0.21490 -0.00600
C 	C 	0.06040 0.81610 0.07990 0.00500
H 	H 	0.05560 0.87020 0.05230 0.03300
C 	C 	0.05968 0.72740 0.05790 0.00600
H 	H 	0.05450 0.70880 0.01120 0.03100
C 	C 	0.07623 0.88960 0.19970 0.10500
C 	C 	0.10755 0.89690 0.25010 -0.10200
H 	H 	0.12470 0.85190 0.25360 0.06400
C 	C 	0.11386 0.97110 0.29600 -0.03000
H 	H 	0.13570 0.97720 0.32980 0.04200
C 	C 	0.08873 0.03660 0.29320 0.01000
C 	C 	0.05732 0.02770 0.24100 -0.03100
H 	H 	0.04000 0.07210 0.23770 0.04400
C 	C 	0.05086 0.95590 0.19440 -0.10300
H 	H 	0.02950 0.95150 0.15900 0.06800
C 	C 	0.17866 0.12720 0.68260 0.09600
H 	H 	0.17850 0.19110 0.67230 -0.01500
C 	C 	0.16959 0.97800 0.66860 0.01800
H 	H 	0.16250 0.91900 0.64910 0.03000
C 	C 	0.18752 0.99730 0.73610 -0.00400
H 	H 	0.19500 0.95240 0.77160 0.03800
C 	C 	0.14750 0.07600 0.56160 0.11400
C 	C 	0.14594 0.16330 0.53300 -0.11100
H 	H 	0.15520 0.21470 0.56170 0.07300
C 	C 	0.13070 0.17550 0.46210 -0.02500
H 	H 	0.12970 0.23580 0.44340 0.04500
C 	C 	0.11693 0.10220 0.41780 0.00900
C 	C 	0.11811 0.01660 0.44770 -0.02800
H 	H 	0.10850 0.96530 0.41930 0.04300
C 	C 	0.13322 0.00300 0.51940 -0.10900
H 	H 	0.13350 0.94320 0.53860 0.07200
C 	C 	0.21583 0.29420 0.21220 0.08900
H 	H 	0.22730 0.24140 0.23610 -0.00200
C 	C 	0.17573 0.40060 0.17130 0.00800
H 	H 	0.15520 0.43490 0.16050 0.04300
C 	C 	0.20417 0.41940 0.15170 0.01200
H 	H 	0.20650 0.47110 0.12510 0.02900
C 	C 	0.16233 0.27320 0.24310 0.10700
C 	C 	0.17679 0.23190 0.30660 -0.10700
H 	H 	0.20070 0.23540 0.32890 0.07700
C 	C 	0.15653 0.18560 0.33800 -0.02600
H 	H 	0.16690 0.15550 0.38090 0.05100
C 	C 	0.12127 0.18230 0.30800 0.01100
C 	C 	0.10700 0.22330 0.24310 -0.03000
H 	H 	0.08310 0.22030 0.22070 0.04600
C 	C 	0.12756 0.26880 0.21070 -0.10200
H 	H 	0.11760 0.29660 0.16680 0.06500
C 	C 	0.27227 0.47280 0.06270 0.34100
C 	C 	0.26312 0.49170 0.98570 -0.10700
C 	C 	0.24988 0.41810 0.93920 0.04400
H 	H 	0.24750 0.35820 0.95580 0.04000
C 	C 	0.24041 0.43550 0.86840 -0.11300
C 	C 	0.24405 0.52320 0.84390 0.04000
H 	H 	0.23760 0.53420 0.79570 0.02500
C 	C 	0.25704 0.59400 0.89010 -0.10500
H 	H 	0.25960 0.65350 0.87300 0.06400
C 	C 	0.26641 0.58000 0.96080 0.03600
H 	H 	0.27490 0.62960 0.99190 0.02900
C 	C 	0.22580 0.35620 0.81880 0.34700
Zn	Zn	0.08203 0.53417 0.12088 1.20800
Zn	Zn	0.22335 0.15436 0.82966 1.21200
Co	Co	0.41797 0.03417 0.37912 1.15200
Co	Co	0.77665 0.84564 0.17034 1.15500
N 	N 	0.44728 0.92020 0.39610 -0.25400
N 	N 	0.48327 0.81150 0.38750 -0.14400
N 	N 	0.56769 0.16870 0.11410 -0.26300
N 	N 	0.56966 0.31110 0.15120 -0.14200
N 	N 	0.69320 0.59120 0.74535 -0.27300
N 	N 	0.66401 0.56050 0.63501 -0.14100
N 	N 	0.72871 0.85200 0.17669 -0.25300
N 	N 	0.68395 0.82140 0.20954 -0.13800
O 	O 	0.38424 0.02980 0.43119 -0.41900
O 	O 	0.43382 0.02960 0.51738 -0.32700
O 	O 	0.38526 0.98660 0.78335 -0.43000
O 	O 	0.43270 0.96100 0.75526 -0.31700
O 	O 	0.77701 0.88770 0.08056 -0.44600
O 	O 	0.77423 0.03800 0.10340 -0.30800
O 	O 	0.71602 0.78400 0.84440 -0.46100
O 	O 	0.72508 0.86230 0.75730 -0.29000
C 	C 	0.40215 0.03000 0.49590 0.31100
C 	C 	0.38270 0.03180 0.54830 -0.08600
C 	C 	0.39893 0.00740 0.61570 0.02200
H 	H 	0.42220 0.98920 0.62930 0.04800
C 	C 	0.38199 0.00880 0.66510 -0.08500
C 	C 	0.34806 0.03550 0.64550 0.01900
H 	H 	0.33640 0.03640 0.67860 0.04600
C 	C 	0.33097 0.06120 0.57730 -0.08200
H 	H 	0.30790 0.08060 0.56400 0.06600
C 	C 	0.34826 0.05800 0.52810 0.01300
H 	H 	0.33660 0.07370 0.48140 0.04000
C 	C 	0.40188 0.98300 0.73940 0.30900
C 	C 	0.47000 0.89370 0.36580 0.10500
H 	H 	0.47590 0.92960 0.33250 -0.00200
C 	C 	0.46856 0.78100 0.43470 0.00500
H 	H 	0.47290 0.72430 0.45920 0.02900
C 	C 	0.44673 0.84730 0.43940 0.00400
H 	H 	0.43290 0.84450 0.46840 0.02400
C 	C 	0.51052 0.76400 0.36950 0.11600
C 	C 	0.53402 0.81510 0.34880 -0.11000
H 	H 	0.53160 0.88010 0.34390 0.08500
C 	C 	0.56139 0.77020 0.33520 -0.02200
H 	H 	0.57720 0.80540 0.32070 0.04600
C 	C 	0.56552 0.67540 0.34270 0.00500
C 	C 	0.54125 0.62670 0.36430 -0.02000
H 	H 	0.54370 0.56190 0.37070 0.03800
C 	C 	0.51392 0.67070 0.37660 -0.12000
H 	H 	0.49770 0.63580 0.39000 0.07100
C 	C 	0.59827 0.62450 0.34050 -0.03000
C 	C 	0.57370 0.22400 0.16860 0.10700
H 	H 	0.58020 0.20260 0.21490 -0.00600
C 	C 	0.56040 0.31610 0.07990 0.00500
H 	H 	0.55560 0.37020 0.05230 0.03300
C 	C 	0.55968 0.22740 0.05790 0.00600
H 	H 	0.55450 0.20880 0.01120 0.03100
C 	C 	0.57623 0.38960 0.19970 0.10500
C 	C 	0.60755 0.39690 0.25010 -0.10200
H 	H 	0.62470 0.35190 0.25360 0.06400
C 	C 	0.61386 0.47110 0.29600 -0.03000
H 	H 	0.63570 0.47720 0.32980 0.04200
C 	C 	0.58873 0.53660 0.29320 0.01100
C 	C 	0.55732 0.52770 0.24100 -0.03000
H 	H 	0.54000 0.57210 0.23770 0.04400
C 	C 	0.55086 0.45590 0.19440 -0.10400
H 	H 	0.52950 0.45150 0.15900 0.06800
C 	C 	0.67866 0.62720 0.68260 0.09600
H 	H 	0.67850 0.69110 0.67230 -0.01500
C 	C 	0.66959 0.47800 0.66860 0.01800
H 	H 	0.66250 0.41900 0.64910 0.03000
C 	C 	0.68752 0.49730 0.73610 -0.00400
H 	H 	0.69500 0.45240 0.77160 0.03800
C 	C 	0.64750 0.57600 0.56160 0.11400
C 	C 	0.64594 0.66330 0.53300 -0.11100
H 	H 	0.65520 0.71470 0.56170 0.07300
C 	C 	0.63070 0.67550 0.46210 -0.02500
H 	H 	0.62970 0.73580 0.44340 0.04500
C 	C 	0.61693 0.60220 0.41780 0.00900
C 	C 	0.61811 0.51660 0.44770 -0.02800
H 	H 	0.60850 0.46530 0.41930 0.04300
C 	C 	0.63322 0.50300 0.51940 -0.10900
H 	H 	0.63350 0.44320 0.53860 0.07200
C 	C 	0.71583 0.79420 0.21220 0.08900
H 	H 	0.72730 0.74140 0.23610 -0.00200
C 	C 	0.67573 0.90060 0.17130 0.00800
H 	H 	0.65520 0.93490 0.16050 0.04300
C 	C 	0.70417 0.91940 0.15170 0.01200
H 	H 	0.70650 0.97110 0.12510 0.02900
C 	C 	0.66233 0.77320 0.24310 0.10700
C 	C 	0.67679 0.73190 0.30660 -0.10700
H 	H 	0.70070 0.73540 0.32890 0.07700
C 	C 	0.65653 0.68560 0.33800 -0.02600
H 	H 	0.66690 0.65550 0.38090 0.05100
C 	C 	0.62127 0.68230 0.30800 0.01100
C 	C 	0.60700 0.72330 0.24310 -0.03000
H 	H 	0.58310 0.72030 0.22070 0.04600
C 	C 	0.62756 0.76880 0.21070 -0.10300
H 	H 	0.61760 0.79660 0.16680 0.06500
C 	C 	0.77227 0.97280 0.06270 0.34300
C 	C 	0.76312 0.99170 0.98570 -0.11000
C 	C 	0.74988 0.91810 0.93920 0.04600
H 	H 	0.74750 0.85820 0.95580 0.03900
C 	C 	0.74041 0.93550 0.86840 -0.11400
C 	C 	0.74405 0.02320 0.84390 0.04300
H 	H 	0.73760 0.03420 0.79570 0.02400
C 	C 	0.75704 0.09400 0.89010 -0.10800
H 	H 	0.75960 0.15350 0.87300 0.06500
C 	C 	0.76641 0.08000 0.96080 0.03900
H 	H 	0.77490 0.12960 0.99190 0.02800
C 	C 	0.72580 0.85620 0.81880 0.34700
Zn	Zn	0.58203 0.03417 0.12088 1.20800
Zn	Zn	0.72335 0.65436 0.82966 1.21200
Co	Co	0.72335 0.34564 0.32966 1.15500
N 	N 	0.05272 0.42020 0.10390 -0.26600
N 	N 	0.01673 0.31150 0.11250 -0.14400
N 	N 	0.93231 0.66870 0.38590 -0.25100
N 	N 	0.93034 0.81110 0.34880 -0.14200
N 	N 	0.80680 0.09120 0.75465 -0.27300
N 	N 	0.83599 0.06050 0.86499 -0.14000
N 	N 	0.77129 0.35200 0.32331 -0.25300
N 	N 	0.81605 0.32140 0.29046 -0.13800
O 	O 	0.11576 0.52980 0.06881 -0.43400
O 	O 	0.06618 0.52960 0.98262 -0.33200
O 	O 	0.11474 0.48660 0.71665 -0.41500
O 	O 	0.06730 0.46100 0.74474 -0.31300
O 	O 	0.72299 0.38770 0.41944 -0.44600
O 	O 	0.72577 0.53800 0.39660 -0.30700
O 	O 	0.78398 0.28400 0.65560 -0.46100
O 	O 	0.77492 0.36230 0.74270 -0.29000
C 	C 	0.09785 0.53000 0.00410 0.31200
C 	C 	0.11730 0.53180 0.95170 -0.08500
C 	C 	0.10107 0.50740 0.88430 0.02100
H 	H 	0.07780 0.48920 0.87070 0.04900
C 	C 	0.11801 0.50880 0.83490 -0.08500
C 	C 	0.15194 0.53550 0.85450 0.01900
H 	H 	0.16360 0.53640 0.82140 0.04500
C 	C 	0.16903 0.56120 0.92270 -0.08200
H 	H 	0.19210 0.58060 0.93600 0.06600
C 	C 	0.15174 0.55800 0.97190 0.01300
H 	H 	0.16340 0.57370 0.01860 0.04000
C 	C 	0.09812 0.48300 0.76060 0.30700
C 	C 	0.03000 0.39370 0.13420 0.10600
H 	H 	0.02410 0.42960 0.16750 -0.00300
C 	C 	0.03144 0.28100 0.06530 0.00400
H 	H 	0.02710 0.22430 0.04080 0.02900
C 	C 	0.05327 0.34730 0.06060 0.00500
H 	H 	0.06710 0.34450 0.03160 0.02200
C 	C 	0.98948 0.26400 0.13050 0.11600
C 	C 	0.96598 0.31510 0.15120 -0.11000
H 	H 	0.96840 0.38010 0.15610 0.08400
C 	C 	0.93861 0.27020 0.16480 -0.02300
H 	H 	0.92280 0.30540 0.17930 0.04600
C 	C 	0.93448 0.17540 0.15730 0.00500
C 	C 	0.95875 0.12670 0.13570 -0.02000
H 	H 	0.95630 0.06190 0.12930 0.03800
C 	C 	0.98608 0.17070 0.12340 -0.11900
H 	H 	0.00230 0.13580 0.11000 0.07100
C 	C 	0.90173 0.12450 0.15950 -0.03100
C 	C 	0.92630 0.72400 0.33140 0.10600
H 	H 	0.91980 0.70260 0.28510 -0.00500
C 	C 	0.93960 0.81610 0.42010 0.00500
H 	H 	0.94440 0.87020 0.44770 0.03300
C 	C 	0.94032 0.72740 0.44210 0.00400
H 	H 	0.94550 0.70880 0.48880 0.03300
C 	C 	0.92377 0.88960 0.30030 0.10500
C 	C 	0.89245 0.89690 0.24990 -0.10200
H 	H 	0.87530 0.85190 0.24640 0.06400
C 	C 	0.88614 0.97110 0.20400 -0.03000
H 	H 	0.86430 0.97720 0.17020 0.04200
C 	C 	0.91127 0.03660 0.20680 0.01000
C 	C 	0.94268 0.02770 0.25900 -0.03100
H 	H 	0.96000 0.07210 0.26230 0.04400
C 	C 	0.94914 0.95590 0.30560 -0.10300
H 	H 	0.97050 0.95150 0.34100 0.06800
C 	C 	0.82134 0.12720 0.81740 0.09600
H 	H 	0.82150 0.19110 0.82770 -0.01500
C 	C 	0.83041 0.97800 0.83140 0.01700
H 	H 	0.83750 0.91900 0.85090 0.03000
C 	C 	0.81248 0.99730 0.76390 -0.00400
H 	H 	0.80500 0.95240 0.72840 0.03800
C 	C 	0.85250 0.07600 0.93840 0.11200
C 	C 	0.85406 0.16330 0.96700 -0.10800
H 	H 	0.84480 0.21470 0.93830 0.07200
C 	C 	0.86930 0.17550 0.03790 -0.02800
H 	H 	0.87030 0.23580 0.05660 0.04600
C 	C 	0.88307 0.10220 0.08220 0.01200
C 	C 	0.88189 0.01660 0.05230 -0.03300
H 	H 	0.89150 0.96530 0.08070 0.04500
C 	C 	0.86678 0.00300 0.98060 -0.10400
H 	H 	0.86650 0.94320 0.96140 0.07000
C 	C 	0.78417 0.29420 0.28780 0.08900
H 	H 	0.77270 0.24140 0.26390 -0.00200
C 	C 	0.82427 0.40060 0.32870 0.00800
H 	H 	0.84480 0.43490 0.33950 0.04300
C 	C 	0.79583 0.41940 0.34830 0.01200
H 	H 	0.79350 0.47110 0.37490 0.02900
C 	C 	0.83767 0.27320 0.25690 0.10700
C 	C 	0.82321 0.23190 0.19340 -0.10700
H 	H 	0.79930 0.23540 0.17110 0.07700
C 	C 	0.84347 0.18560 0.16200 -0.02700
H 	H 	0.83310 0.15550 0.11910 0.05100
C 	C 	0.87873 0.18230 0.19200 0.01200
C 	C 	0.89300 0.22330 0.25690 -0.03000
H 	H 	0.91690 0.22030 0.27930 0.04600
C 	C 	0.87244 0.26880 0.28930 -0.10300
H 	H 	0.88240 0.29660 0.33320 0.06500
C 	C 	0.72773 0.47280 0.43730 0.34100
C 	C 	0.73688 0.49170 0.51430 -0.10700
C 	C 	0.75012 0.41810 0.56080 0.04400
H 	H 	0.75250 0.35820 0.54420 0.03900
C 	C 	0.75959 0.43550 0.63160 -0.11300
C 	C 	0.75595 0.52320 0.65610 0.04100
H 	H 	0.76240 0.53420 0.70430 0.02500
C 	C 	0.74296 0.59400 0.60990 -0.10500
H 	H 	0.74040 0.65350 0.62700 0.06400
C 	C 	0.73359 0.58000 0.53920 0.03600
H 	H 	0.72510 0.62960 0.50810 0.02900
C 	C 	0.77420 0.35620 0.68120 0.34700
Zn	Zn	0.77665 0.15436 0.67034 1.21200
Co	Co	0.22335 0.84564 0.32966 1.15500
N 	N 	0.55272 0.92020 0.10390 -0.26600
N 	N 	0.51673 0.81150 0.11250 -0.14400
N 	N 	0.43231 0.16870 0.38590 -0.25100
N 	N 	0.43034 0.31110 0.34880 -0.14200
N 	N 	0.30680 0.59120 0.75465 -0.27300
N 	N 	0.33599 0.56050 0.86499 -0.14100
N 	N 	0.27129 0.85200 0.32331 -0.25300
N 	N 	0.31605 0.82140 0.29046 -0.13800
O 	O 	0.61576 0.02980 0.06881 -0.43400
O 	O 	0.56618 0.02960 0.98262 -0.33100
O 	O 	0.61474 0.98660 0.71665 -0.41500
O 	O 	0.56730 0.96100 0.74474 -0.31400
O 	O 	0.22299 0.88770 0.41944 -0.44600
O 	O 	0.22577 0.03800 0.39660 -0.30700
O 	O 	0.28398 0.78400 0.65560 -0.46100
O 	O 	0.27492 0.86230 0.74270 -0.29000
C 	C 	0.59785 0.03000 0.00410 0.31100
C 	C 	0.61730 0.03180 0.95170 -0.08500
C 	C 	0.60107 0.00740 0.88430 0.02200
H 	H 	0.57780 0.98920 0.87070 0.04800
C 	C 	0.61801 0.00880 0.83490 -0.08500
C 	C 	0.65194 0.03550 0.85450 0.02000
H 	H 	0.66360 0.03640 0.82140 0.04500
C 	C 	0.66903 0.06120 0.92270 -0.08300
H 	H 	0.69210 0.08060 0.93600 0.06600
C 	C 	0.65174 0.05800 0.97190 0.01400
H 	H 	0.66340 0.07370 0.01860 0.03900
C 	C 	0.59812 0.98300 0.76060 0.30700
C 	C 	0.53000 0.89370 0.13420 0.10600
H 	H 	0.52410 0.92960 0.16750 -0.00300
C 	C 	0.53144 0.78100 0.06530 0.00400
H 	H 	0.52710 0.72430 0.04080 0.02900
C 	C 	0.55327 0.84730 0.06060 0.00500
H 	H 	0.56710 0.84450 0.03160 0.02300
C 	C 	0.48948 0.76400 0.13050 0.11600
C 	C 	0.46598 0.81510 0.15120 -0.11000
H 	H 	0.46840 0.88010 0.15610 0.08500
C 	C 	0.43861 0.77020 0.16480 -0.02200
H 	H 	0.42280 0.80540 0.17930 0.04600
C 	C 	0.43448 0.67540 0.15730 0.00500
C 	C 	0.45875 0.62670 0.13570 -0.02000
H 	H 	0.45630 0.56190 0.12930 0.03800
C 	C 	0.48608 0.67070 0.12340 -0.12000
H 	H 	0.50230 0.63580 0.11000 0.07100
C 	C 	0.40173 0.62450 0.15950 -0.03000
C 	C 	0.42630 0.22400 0.33140 0.10600
H 	H 	0.41980 0.20260 0.28510 -0.00500
C 	C 	0.43960 0.31610 0.42010 0.00500
H 	H 	0.44440 0.37020 0.44770 0.03300
C 	C 	0.44032 0.22740 0.44210 0.00400
H 	H 	0.44550 0.20880 0.48880 0.03300
C 	C 	0.42377 0.38960 0.30030 0.10500
C 	C 	0.39245 0.39690 0.24990 -0.10200
H 	H 	0.37530 0.35190 0.24640 0.06400
C 	C 	0.38614 0.47110 0.20400 -0.03000
H 	H 	0.36430 0.47720 0.17020 0.04200
C 	C 	0.41127 0.53660 0.20680 0.01000
C 	C 	0.44268 0.52770 0.25900 -0.03000
H 	H 	0.46000 0.57210 0.26230 0.04400
C 	C 	0.44914 0.45590 0.30560 -0.10400
H 	H 	0.47050 0.45150 0.34100 0.06800
C 	C 	0.32134 0.62720 0.81740 0.09600
H 	H 	0.32150 0.69110 0.82770 -0.01500
C 	C 	0.33041 0.47800 0.83140 0.01800
H 	H 	0.33750 0.41900 0.85090 0.03000
C 	C 	0.31248 0.49730 0.76390 -0.00400
H 	H 	0.30500 0.45240 0.72840 0.03800
C 	C 	0.35250 0.57600 0.93840 0.11500
C 	C 	0.35406 0.66330 0.96700 -0.11200
H 	H 	0.34480 0.71470 0.93830 0.07300
C 	C 	0.36930 0.67550 0.03790 -0.02400
H 	H 	0.37030 0.73580 0.05660 0.04500
C 	C 	0.38307 0.60220 0.08220 0.00900
C 	C 	0.38189 0.51660 0.05230 -0.02700
H 	H 	0.39150 0.46530 0.08070 0.04200
C 	C 	0.36678 0.50300 0.98060 -0.10900
H 	H 	0.36650 0.44320 0.96140 0.07200
C 	C 	0.28417 0.79420 0.28780 0.08900
H 	H 	0.27270 0.74140 0.26390 -0.00200
C 	C 	0.32427 0.90060 0.32870 0.00800
H 	H 	0.34480 0.93490 0.33950 0.04300
C 	C 	0.29583 0.91940 0.34830 0.01200
H 	H 	0.29350 0.97110 0.37490 0.02900
C 	C 	0.33767 0.77320 0.25690 0.10700
C 	C 	0.32321 0.73190 0.19340 -0.10700
H 	H 	0.29930 0.73540 0.17110 0.07700
C 	C 	0.34347 0.68560 0.16200 -0.02600
H 	H 	0.33310 0.65550 0.11910 0.05100
C 	C 	0.37873 0.68230 0.19200 0.01100
C 	C 	0.39300 0.72330 0.25690 -0.03000
H 	H 	0.41690 0.72030 0.27930 0.04600
C 	C 	0.37244 0.76880 0.28930 -0.10300
H 	H 	0.38240 0.79660 0.33320 0.06500
C 	C 	0.22773 0.97280 0.43730 0.34100
C 	C 	0.23688 0.99170 0.51430 -0.10800
C 	C 	0.25012 0.91810 0.56080 0.04400
H 	H 	0.25250 0.85820 0.54420 0.03900
C 	C 	0.25959 0.93550 0.63160 -0.11300
C 	C 	0.25595 0.02320 0.65610 0.04100
H 	H 	0.26240 0.03420 0.70430 0.02500
C 	C 	0.24296 0.09400 0.60990 -0.10500
H 	H 	0.24040 0.15350 0.62700 0.06400
C 	C 	0.23359 0.08000 0.53920 0.03600
H 	H 	0.22510 0.12960 0.50810 0.02900
C 	C 	0.27420 0.85620 0.68120 0.34700
Zn	Zn	0.27665 0.65436 0.67034 1.21200
Co	Co	0.08203 0.46583 0.62088 1.15200
N 	N 	0.05272 0.57980 0.60390 -0.25400
N 	N 	0.01673 0.68850 0.61250 -0.14400
N 	N 	0.93231 0.33130 0.88590 -0.26300
N 	N 	0.93034 0.18890 0.84880 -0.14200
N 	N 	0.80680 0.90880 0.25465 -0.26100
N 	N 	0.83599 0.93950 0.36499 -0.14100
N 	N 	0.77129 0.64800 0.82331 -0.26400
N 	N 	0.81605 0.67860 0.79046 -0.13800
O 	O 	0.11576 0.47020 0.56881 -0.41900
O 	O 	0.06618 0.47040 0.48262 -0.32700
O 	O 	0.11474 0.51340 0.21665 -0.43000
O 	O 	0.06730 0.53900 0.24474 -0.31700
O 	O 	0.72299 0.61230 0.91944 -0.46300
O 	O 	0.72577 0.46200 0.89660 -0.31000
O 	O 	0.78398 0.71600 0.15560 -0.44300
O 	O 	0.77492 0.63770 0.24270 -0.28700
C 	C 	0.09785 0.47000 0.50410 0.31100
C 	C 	0.11730 0.46820 0.45170 -0.08600
C 	C 	0.10107 0.49260 0.38430 0.02100
H 	H 	0.07780 0.51080 0.37070 0.04900
C 	C 	0.11801 0.49120 0.33490 -0.08500
C 	C 	0.15194 0.46450 0.35450 0.01900
H 	H 	0.16360 0.46360 0.32140 0.04600
C 	C 	0.16903 0.43880 0.42270 -0.08200
H 	H 	0.19210 0.41940 0.43600 0.06600
C 	C 	0.15174 0.44200 0.47190 0.01300
H 	H 	0.16340 0.42630 0.51860 0.04000
C 	C 	0.09812 0.51700 0.26060 0.30900
C 	C 	0.03000 0.60630 0.63420 0.10500
H 	H 	0.02410 0.57040 0.66750 -0.00200
C 	C 	0.03144 0.71900 0.56530 0.00500
H 	H 	0.02710 0.77570 0.54080 0.02900
C 	C 	0.05327 0.65270 0.56060 0.00400
H 	H 	0.06710 0.65550 0.53160 0.02400
C 	C 	0.98948 0.73600 0.63050 0.11600
C 	C 	0.96598 0.68490 0.65120 -0.11000
H 	H 	0.96840 0.61990 0.65610 0.08400
C 	C 	0.93861 0.72980 0.66480 -0.02200
H 	H 	0.92280 0.69460 0.67930 0.04600
C 	C 	0.93448 0.82460 0.65730 0.00500
C 	C 	0.95875 0.87330 0.63570 -0.02000
H 	H 	0.95630 0.93810 0.62930 0.03800
C 	C 	0.98608 0.82930 0.62340 -0.12000
H 	H 	0.00230 0.86420 0.61000 0.07100
C 	C 	0.90173 0.87550 0.65950 -0.03000
C 	C 	0.92630 0.27600 0.83140 0.10700
H 	H 	0.91980 0.29740 0.78510 -0.00600
C 	C 	0.93960 0.18390 0.92010 0.00500
H 	H 	0.94440 0.12980 0.94770 0.03300
C 	C 	0.94032 0.27260 0.94210 0.00600
H 	H 	0.94550 0.29120 0.98880 0.03100
C 	C 	0.92377 0.11040 0.80030 0.10500
C 	C 	0.89245 0.10310 0.74990 -0.10200
H 	H 	0.87530 0.14810 0.74640 0.06300
C 	C 	0.88614 0.02890 0.70400 -0.03000
H 	H 	0.86430 0.02280 0.67020 0.04100
C 	C 	0.91127 0.96340 0.70680 0.01100
C 	C 	0.94268 0.97230 0.75900 -0.03100
H 	H 	0.96000 0.92790 0.76230 0.04400
C 	C 	0.94914 0.04410 0.80560 -0.10300
H 	H 	0.97050 0.04850 0.84100 0.06800
C 	C 	0.82134 0.87280 0.31740 0.09400
H 	H 	0.82150 0.80890 0.32770 -0.01300
C 	C 	0.83041 0.02200 0.33140 0.01800
H 	H 	0.83750 0.08100 0.35090 0.03000
C 	C 	0.81248 0.00270 0.26390 -0.00500
H 	H 	0.80500 0.04760 0.22840 0.03900
C 	C 	0.85250 0.92400 0.43840 0.11400
C 	C 	0.85406 0.83670 0.46700 -0.11100
H 	H 	0.84480 0.78530 0.43830 0.07300
C 	C 	0.86930 0.82450 0.53790 -0.02500
H 	H 	0.87030 0.76420 0.55660 0.04500
C 	C 	0.88307 0.89780 0.58220 0.00900
C 	C 	0.88189 0.98340 0.55230 -0.02800
H 	H 	0.89150 0.03470 0.58070 0.04300
C 	C 	0.86678 0.99700 0.48060 -0.10800
H 	H 	0.86650 0.05680 0.46140 0.07200
C 	C 	0.78417 0.70580 0.78780 0.09100
H 	H 	0.77270 0.75860 0.76390 -0.00300
C 	C 	0.82427 0.59940 0.82870 0.00800
H 	H 	0.84480 0.56510 0.83950 0.04300
C 	C 	0.79583 0.58060 0.84830 0.01300
H 	H 	0.79350 0.52890 0.87490 0.02700
C 	C 	0.83767 0.72680 0.75690 0.10700
C 	C 	0.82321 0.76810 0.69340 -0.10600
H 	H 	0.79930 0.76460 0.67110 0.07700
C 	C 	0.84347 0.81440 0.66200 -0.02700
H 	H 	0.83310 0.84450 0.61910 0.05100
C 	C 	0.87873 0.81770 0.69200 0.01100
C 	C 	0.89300 0.77670 0.75690 -0.03000
H 	H 	0.91690 0.77970 0.77930 0.04600
C 	C 	0.87244 0.73120 0.78930 -0.10200
H 	H 	0.88240 0.70340 0.83320 0.06500
C 	C 	0.72773 0.52720 0.93730 0.34500
C 	C 	0.73688 0.50830 0.01430 -0.10700
C 	C 	0.75012 0.58190 0.06080 0.04300
H 	H 	0.75250 0.64180 0.04420 0.04000
C 	C 	0.75959 0.56450 0.13160 -0.11100
C 	C 	0.75595 0.47680 0.15610 0.03900
H 	H 	0.76240 0.46580 0.20430 0.02600
C 	C 	0.74296 0.40600 0.10990 -0.10400
H 	H 	0.74040 0.34650 0.12700 0.06400
C 	C 	0.73359 0.42000 0.03920 0.03500
H 	H 	0.72510 0.37040 0.00810 0.02900
C 	C 	0.77420 0.64380 0.18120 0.34100
Zn	Zn	0.91797 0.46583 0.87912 1.20800
Co	Co	0.58203 0.96583 0.62088 1.15200
N 	N 	0.55272 0.07980 0.60390 -0.25400
N 	N 	0.51673 0.18850 0.61250 -0.14400
N 	N 	0.43231 0.83130 0.88590 -0.26300
N 	N 	0.43034 0.68890 0.84880 -0.14200
N 	N 	0.30680 0.40880 0.25465 -0.26100
N 	N 	0.33599 0.43950 0.36499 -0.14100
N 	N 	0.27129 0.14800 0.82331 -0.26400
N 	N 	0.31605 0.17860 0.79046 -0.13800
O 	O 	0.61576 0.97020 0.56881 -0.41900
O 	O 	0.56618 0.97040 0.48262 -0.32700
O 	O 	0.61474 0.01340 0.21665 -0.43100
O 	O 	0.56730 0.03900 0.24474 -0.31700
O 	O 	0.22299 0.11230 0.91944 -0.46300
O 	O 	0.22577 0.96200 0.89660 -0.31100
O 	O 	0.28398 0.21600 0.15560 -0.44300
O 	O 	0.27492 0.13770 0.24270 -0.28700
C 	C 	0.59785 0.97000 0.50410 0.31100
C 	C 	0.61730 0.96820 0.45170 -0.08600
C 	C 	0.60107 0.99260 0.38430 0.02200
H 	H 	0.57780 0.01080 0.37070 0.04800
C 	C 	0.61801 0.99120 0.33490 -0.08500
C 	C 	0.65194 0.96450 0.35450 0.01900
H 	H 	0.66360 0.96360 0.32140 0.04600
C 	C 	0.66903 0.93880 0.42270 -0.08200
H 	H 	0.69210 0.91940 0.43600 0.06600
C 	C 	0.65174 0.94200 0.47190 0.01300
H 	H 	0.66340 0.92630 0.51860 0.04000
C 	C 	0.59812 0.01700 0.26060 0.30900
C 	C 	0.53000 0.10630 0.63420 0.10500
H 	H 	0.52410 0.07040 0.66750 -0.00200
C 	C 	0.53144 0.21900 0.56530 0.00500
H 	H 	0.52710 0.27570 0.54080 0.02900
C 	C 	0.55327 0.15270 0.56060 0.00400
H 	H 	0.56710 0.15550 0.53160 0.02400
C 	C 	0.48948 0.23600 0.63050 0.11600
C 	C 	0.46598 0.18490 0.65120 -0.11000
H 	H 	0.46840 0.11990 0.65610 0.08500
C 	C 	0.43861 0.22980 0.66480 -0.02200
H 	H 	0.42280 0.19460 0.67930 0.04600
C 	C 	0.43448 0.32460 0.65730 0.00500
C 	C 	0.45875 0.37330 0.63570 -0.02000
H 	H 	0.45630 0.43810 0.62930 0.03800
C 	C 	0.48608 0.32930 0.62340 -0.12000
H 	H 	0.50230 0.36420 0.61000 0.07100
C 	C 	0.40173 0.37550 0.65950 -0.03000
C 	C 	0.42630 0.77600 0.83140 0.10700
H 	H 	0.41980 0.79740 0.78510 -0.00600
C 	C 	0.43960 0.68390 0.92010 0.00500
H 	H 	0.44440 0.62980 0.94770 0.03300
C 	C 	0.44032 0.77260 0.94210 0.00600
H 	H 	0.44550 0.79120 0.98880 0.03100
C 	C 	0.42377 0.61040 0.80030 0.10500
C 	C 	0.39245 0.60310 0.74990 -0.10200
H 	H 	0.37530 0.64810 0.74640 0.06300
C 	C 	0.38614 0.52890 0.70400 -0.03000
H 	H 	0.36430 0.52280 0.67020 0.04100
C 	C 	0.41127 0.46340 0.70680 0.01100
C 	C 	0.44268 0.47230 0.75900 -0.03000
H 	H 	0.46000 0.42790 0.76230 0.04400
C 	C 	0.44914 0.54410 0.80560 -0.10400
H 	H 	0.47050 0.54850 0.84100 0.06800
C 	C 	0.32134 0.37280 0.31740 0.09400
H 	H 	0.32150 0.30890 0.32770 -0.01300
C 	C 	0.33041 0.52200 0.33140 0.01800
H 	H 	0.33750 0.58100 0.35090 0.02900
C 	C 	0.31248 0.50270 0.26390 -0.00500
H 	H 	0.30500 0.54760 0.22840 0.03900
C 	C 	0.35250 0.42400 0.43840 0.11400
C 	C 	0.35406 0.33670 0.46700 -0.11100
H 	H 	0.34480 0.28530 0.43830 0.07300
C 	C 	0.36930 0.32450 0.53790 -0.02500
H 	H 	0.37030 0.26420 0.55660 0.04500
C 	C 	0.38307 0.39780 0.58220 0.00900
C 	C 	0.38189 0.48340 0.55230 -0.02800
H 	H 	0.39150 0.53470 0.58070 0.04300
C 	C 	0.36678 0.49700 0.48060 -0.10900
H 	H 	0.36650 0.55680 0.46140 0.07200
C 	C 	0.28417 0.20580 0.78780 0.09100
H 	H 	0.27270 0.25860 0.76390 -0.00300
C 	C 	0.32427 0.09940 0.82870 0.00800
H 	H 	0.34480 0.06510 0.83950 0.04300
C 	C 	0.29583 0.08060 0.84830 0.01300
H 	H 	0.29350 0.02890 0.87490 0.02800
C 	C 	0.33767 0.22680 0.75690 0.10700
C 	C 	0.32321 0.26810 0.69340 -0.10700
H 	H 	0.29930 0.26460 0.67110 0.07700
C 	C 	0.34347 0.31440 0.66200 -0.02700
H 	H 	0.33310 0.34450 0.61910 0.05100
C 	C 	0.37873 0.31770 0.69200 0.01100
C 	C 	0.39300 0.27670 0.75690 -0.03000
H 	H 	0.41690 0.27970 0.77930 0.04600
C 	C 	0.37244 0.23120 0.78930 -0.10200
H 	H 	0.38240 0.20340 0.83320 0.06500
C 	C 	0.22773 0.02720 0.93730 0.34700
C 	C 	0.23688 0.00830 0.01430 -0.11100
C 	C 	0.25012 0.08190 0.06080 0.04600
H 	H 	0.25250 0.14180 0.04420 0.03900
C 	C 	0.25959 0.06450 0.13160 -0.11300
C 	C 	0.25595 0.97680 0.15610 0.04300
H 	H 	0.26240 0.96580 0.20430 0.02500
C 	C 	0.24296 0.90600 0.10990 -0.10700
H 	H 	0.24040 0.84650 0.12700 0.06500
C 	C 	0.23359 0.92000 0.03920 0.03900
H 	H 	0.22510 0.87040 0.00810 0.02800
C 	C 	0.27420 0.14380 0.18120 0.34200
Zn	Zn	0.41797 0.96583 0.87912 1.20800
N 	N 	0.94728 0.57980 0.89610 -0.26600
N 	N 	0.98327 0.68850 0.88750 -0.14400
N 	N 	0.06769 0.33130 0.61410 -0.25100
N 	N 	0.06966 0.18890 0.65120 -0.14200
N 	N 	0.19320 0.90880 0.24535 -0.26100
N 	N 	0.16401 0.93950 0.13501 -0.14000
N 	N 	0.22871 0.64800 0.67669 -0.26400
N 	N 	0.18395 0.67860 0.70954 -0.13800
O 	O 	0.88424 0.47020 0.93119 -0.43400
O 	O 	0.93382 0.47040 0.01738 -0.33200
O 	O 	0.88526 0.51340 0.28335 -0.41500
O 	O 	0.93270 0.53900 0.25526 -0.31300
O 	O 	0.27701 0.61230 0.58056 -0.46300
O 	O 	0.27423 0.46200 0.60340 -0.31000
O 	O 	0.21602 0.71600 0.34440 -0.44300
O 	O 	0.22508 0.63770 0.25730 -0.28700
C 	C 	0.90215 0.47000 0.99590 0.31200
C 	C 	0.88270 0.46820 0.04830 -0.08500
C 	C 	0.89893 0.49260 0.11570 0.02100
H 	H 	0.92220 0.51080 0.12930 0.04900
C 	C 	0.88199 0.49120 0.16510 -0.08500
C 	C 	0.84806 0.46450 0.14550 0.01900
H 	H 	0.83640 0.46360 0.17860 0.04500
C 	C 	0.83097 0.43880 0.07730 -0.08200
H 	H 	0.80790 0.41940 0.06400 0.06600
C 	C 	0.84826 0.44200 0.02810 0.01200
H 	H 	0.83660 0.42630 0.98140 0.04000
C 	C 	0.90188 0.51700 0.23940 0.30700
C 	C 	0.97000 0.60630 0.86580 0.10600
H 	H 	0.97590 0.57040 0.83250 -0.00300
C 	C 	0.96856 0.71900 0.93470 0.00400
H 	H 	0.97290 0.77570 0.95920 0.02900
C 	C 	0.94673 0.65270 0.93940 0.00500
H 	H 	0.93290 0.65550 0.96840 0.02200
C 	C 	0.01052 0.73600 0.86950 0.11600
C 	C 	0.03402 0.68490 0.84880 -0.11000
H 	H 	0.03160 0.61990 0.84390 0.08400
C 	C 	0.06139 0.72980 0.83520 -0.02300
H 	H 	0.07720 0.69460 0.82070 0.04600
C 	C 	0.06552 0.82460 0.84270 0.00500
C 	C 	0.04125 0.87330 0.86430 -0.02000
H 	H 	0.04370 0.93810 0.87070 0.03800
C 	C 	0.01392 0.82930 0.87660 -0.11900
H 	H 	0.99770 0.86420 0.89000 0.07100
C 	C 	0.09827 0.87550 0.84050 -0.03100
C 	C 	0.07370 0.27600 0.66860 0.10600
H 	H 	0.08020 0.29740 0.71490 -0.00500
C 	C 	0.06040 0.18390 0.57990 0.00500
H 	H 	0.05560 0.12980 0.55230 0.03300
C 	C 	0.05968 0.27260 0.55790 0.00400
H 	H 	0.05450 0.29120 0.51120 0.03300
C 	C 	0.07623 0.11040 0.69970 0.10500
C 	C 	0.10755 0.10310 0.75010 -0.10200
H 	H 	0.12470 0.14810 0.75360 0.06300
C 	C 	0.11386 0.02890 0.79600 -0.03000
H 	H 	0.13570 0.02280 0.82980 0.04100
C 	C 	0.08873 0.96340 0.79320 0.01100
C 	C 	0.05732 0.97230 0.74100 -0.03100
H 	H 	0.04000 0.92790 0.73770 0.04400
C 	C 	0.05086 0.04410 0.69440 -0.10300
H 	H 	0.02950 0.04850 0.65900 0.06800
C 	C 	0.17866 0.87280 0.18260 0.09400
H 	H 	0.17850 0.80890 0.17230 -0.01300
C 	C 	0.16959 0.02200 0.16860 0.01700
H 	H 	0.16250 0.08100 0.14910 0.03000
C 	C 	0.18752 0.00270 0.23610 -0.00500
H 	H 	0.19500 0.04760 0.27160 0.03900
C 	C 	0.14750 0.92400 0.06160 0.11200
C 	C 	0.14594 0.83670 0.03300 -0.10800
H 	H 	0.15520 0.78530 0.06170 0.07200
C 	C 	0.13070 0.82450 0.96210 -0.02800
H 	H 	0.12970 0.76420 0.94340 0.04600
C 	C 	0.11693 0.89780 0.91780 0.01200
C 	C 	0.11811 0.98340 0.94770 -0.03300
H 	H 	0.10850 0.03470 0.91930 0.04500
C 	C 	0.13322 0.99700 0.01940 -0.10300
H 	H 	0.13350 0.05680 0.03860 0.07000
C 	C 	0.21583 0.70580 0.71220 0.09100
H 	H 	0.22730 0.75860 0.73610 -0.00300
C 	C 	0.17573 0.59940 0.67130 0.00700
H 	H 	0.15520 0.56510 0.66050 0.04300
C 	C 	0.20417 0.58060 0.65170 0.01300
H 	H 	0.20650 0.52890 0.62510 0.02700
C 	C 	0.16233 0.72680 0.74310 0.10700
C 	C 	0.17679 0.76810 0.80660 -0.10600
H 	H 	0.20070 0.76460 0.82890 0.07700
C 	C 	0.15653 0.81440 0.83800 -0.02700
H 	H 	0.16690 0.84450 0.88090 0.05100
C 	C 	0.12127 0.81770 0.80800 0.01200
C 	C 	0.10700 0.77670 0.74310 -0.03000
H 	H 	0.08310 0.77970 0.72070 0.04600
C 	C 	0.12756 0.73120 0.71070 -0.10300
H 	H 	0.11760 0.70340 0.66680 0.06500
C 	C 	0.27227 0.52720 0.56270 0.34500
C 	C 	0.26312 0.50830 0.48570 -0.10700
C 	C 	0.24988 0.58190 0.43920 0.04300
H 	H 	0.24750 0.64180 0.45580 0.04000
C 	C 	0.24041 0.56450 0.36840 -0.11100
C 	C 	0.24405 0.47680 0.34390 0.03900
H 	H 	0.23760 0.46580 0.29570 0.02600
C 	C 	0.25704 0.40600 0.39010 -0.10400
H 	H 	0.25960 0.34650 0.37300 0.06400
C 	C 	0.26641 0.42000 0.46080 0.03500
H 	H 	0.27490 0.37040 0.49190 0.02900
C 	C 	0.22580 0.64380 0.31880 0.34100
N 	N 	0.44728 0.07980 0.89610 -0.26600
N 	N 	0.48327 0.18850 0.88750 -0.14400
N 	N 	0.56769 0.83130 0.61410 -0.25100
N 	N 	0.56966 0.68890 0.65120 -0.14200
N 	N 	0.69320 0.40880 0.24535 -0.26100
N 	N 	0.66401 0.43950 0.13501 -0.14100
N 	N 	0.72871 0.14800 0.67669 -0.26400
N 	N 	0.68395 0.17860 0.70954 -0.13800
O 	O 	0.38424 0.97020 0.93119 -0.43400
O 	O 	0.43382 0.97040 0.01738 -0.33100
O 	O 	0.38526 0.01340 0.28335 -0.41500
O 	O 	0.43270 0.03900 0.25526 -0.31400
O 	O 	0.77701 0.11230 0.58056 -0.46300
O 	O 	0.77423 0.96200 0.60340 -0.31000
O 	O 	0.71602 0.21600 0.34440 -0.44300
O 	O 	0.72508 0.13770 0.25730 -0.28700
C 	C 	0.40215 0.97000 0.99590 0.31100
C 	C 	0.38270 0.96820 0.04830 -0.08500
C 	C 	0.39893 0.99260 0.11570 0.02300
H 	H 	0.42220 0.01080 0.12930 0.04800
C 	C 	0.38199 0.99120 0.16510 -0.08500
C 	C 	0.34806 0.96450 0.14550 0.02000
H 	H 	0.33640 0.96360 0.17860 0.04500
C 	C 	0.33097 0.93880 0.07730 -0.08300
H 	H 	0.30790 0.91940 0.06400 0.06600
C 	C 	0.34826 0.94200 0.02810 0.01400
H 	H 	0.33660 0.92630 0.98140 0.03900
C 	C 	0.40188 0.01700 0.23940 0.30700
C 	C 	0.47000 0.10630 0.86580 0.10600
H 	H 	0.47590 0.07040 0.83250 -0.00300
C 	C 	0.46856 0.21900 0.93470 0.00400
H 	H 	0.47290 0.27570 0.95920 0.02900
C 	C 	0.44673 0.15270 0.93940 0.00500
H 	H 	0.43290 0.15550 0.96840 0.02300
C 	C 	0.51052 0.23600 0.86950 0.11600
C 	C 	0.53402 0.18490 0.84880 -0.11000
H 	H 	0.53160 0.11990 0.84390 0.08400
C 	C 	0.56139 0.22980 0.83520 -0.02200
H 	H 	0.57720 0.19460 0.82070 0.04600
C 	C 	0.56552 0.32460 0.84270 0.00500
C 	C 	0.54125 0.37330 0.86430 -0.02000
H 	H 	0.54370 0.43810 0.87070 0.03800
C 	C 	0.51392 0.32930 0.87660 -0.12000
H 	H 	0.49770 0.36420 0.89000 0.07100
C 	C 	0.59827 0.37550 0.84050 -0.03000
C 	C 	0.57370 0.77600 0.66860 0.10600
H 	H 	0.58020 0.79740 0.71490 -0.00500
C 	C 	0.56040 0.68390 0.57990 0.00500
H 	H 	0.55560 0.62980 0.55230 0.03300
C 	C 	0.55968 0.77260 0.55790 0.00400
H 	H 	0.55450 0.79120 0.51120 0.03300
C 	C 	0.57623 0.61040 0.69970 0.10500
C 	C 	0.60755 0.60310 0.75010 -0.10200
H 	H 	0.62470 0.64810 0.75360 0.06300
C 	C 	0.61386 0.52890 0.79600 -0.03000
H 	H 	0.63570 0.52280 0.82980 0.04100
C 	C 	0.58873 0.46340 0.79320 0.01100
C 	C 	0.55732 0.47230 0.74100 -0.03000
H 	H 	0.54000 0.42790 0.73770 0.04400
C 	C 	0.55086 0.54410 0.69440 -0.10400
H 	H 	0.52950 0.54850 0.65900 0.06800
C 	C 	0.67866 0.37280 0.18260 0.09400
H 	H 	0.67850 0.30890 0.17230 -0.01400
C 	C 	0.66959 0.52200 0.16860 0.01800
H 	H 	0.66250 0.58100 0.14910 0.02900
C 	C 	0.68752 0.50270 0.23610 -0.00500
H 	H 	0.69500 0.54760 0.27160 0.03900
C 	C 	0.64750 0.42400 0.06160 0.11500
C 	C 	0.64594 0.33670 0.03300 -0.11200
H 	H 	0.65520 0.28530 0.06170 0.07300
C 	C 	0.63070 0.32450 0.96210 -0.02400
H 	H 	0.62970 0.26420 0.94340 0.04500
C 	C 	0.61693 0.39780 0.91780 0.00900
C 	C 	0.61811 0.48340 0.94770 -0.02700
H 	H 	0.60850 0.53470 0.91930 0.04200
C 	C 	0.63322 0.49700 0.01940 -0.10900
H 	H 	0.63350 0.55680 0.03860 0.07200
C 	C 	0.71583 0.20580 0.71220 0.09100
H 	H 	0.72730 0.25860 0.73610 -0.00300
C 	C 	0.67573 0.09940 0.67130 0.00700
H 	H 	0.65520 0.06510 0.66050 0.04300
C 	C 	0.70417 0.08060 0.65170 0.01300
H 	H 	0.70650 0.02890 0.62510 0.02700
C 	C 	0.66233 0.22680 0.74310 0.10700
C 	C 	0.67679 0.26810 0.80660 -0.10700
H 	H 	0.70070 0.26460 0.82890 0.07700
C 	C 	0.65653 0.31440 0.83800 -0.02600
H 	H 	0.66690 0.34450 0.88090 0.05100
C 	C 	0.62127 0.31770 0.80800 0.01100
C 	C 	0.60700 0.27670 0.74310 -0.03000
H 	H 	0.58310 0.27970 0.72070 0.04600
C 	C 	0.62756 0.23120 0.71070 -0.10300
H 	H 	0.61760 0.20340 0.66680 0.06500
C 	C 	0.77227 0.02720 0.56270 0.34500
C 	C 	0.76312 0.00830 0.48570 -0.10800
C 	C 	0.74988 0.08190 0.43920 0.04400
H 	H 	0.74750 0.14180 0.45580 0.04000
C 	C 	0.74041 0.06450 0.36840 -0.11200
C 	C 	0.74405 0.97680 0.34390 0.04000
H 	H 	0.73760 0.96580 0.29570 0.02600
C 	C 	0.75704 0.90600 0.39010 -0.10500
H 	H 	0.75960 0.84650 0.37300 0.06400
C 	C 	0.76641 0.92000 0.46080 0.03600
H 	H 	0.77490 0.87040 0.49190 0.02900
C 	C 	0.72580 0.14380 0.31880 0.34100
