data_crystal

_cell_length_a 40.57500
_cell_length_b 14.37470
_cell_length_c 20.15600
_cell_angle_alpha 90.00000
_cell_angle_beta  108.05800
_cell_angle_gamma 90.00000

_symmetry_space_group_name_	'P 1'
_symmetry_space_group_name_H-M	'P 1'

loop_
_symmetry_equiv_pos_as_xyz
  x,y,z

loop_
_atom_site_label
_atom_site_type_symbol
_atom_site_fract_x
_atom_site_fract_y
_atom_site_fract_z
_atom_site_charge
Co	Co	0.41648 0.46531 0.87910 1.15200
Co	Co	0.77885 0.65438 0.67145 1.15200
O 	O 	0.38255 0.48350 0.78449 -0.41600
O 	O 	0.43091 0.46354 0.75886 -0.32600
O 	O 	0.38213 0.53207 0.43176 -0.41500
O 	O 	0.43225 0.53168 0.51508 -0.33000
O 	O 	0.78021 0.62450 0.57840 -0.43800
O 	O 	0.77232 0.48060 0.60537 -0.32500
O 	O 	0.71436 0.71193 0.33700 -0.43800
O 	O 	0.72585 0.63070 0.25371 -0.28500
N 	N 	0.44475 0.58368 0.89491 -0.25000
N 	N 	0.48144 0.69210 0.88771 -0.14200
N 	N 	0.56826 0.33133 0.61268 -0.24900
N 	N 	0.56875 0.18807 0.64961 -0.14200
N 	N 	0.73044 0.64757 0.67788 -0.25200
N 	N 	0.68500 0.67974 0.71086 -0.14000
N 	N 	0.69121 0.91260 0.24384 -0.25700
N 	N 	0.66241 0.94224 0.13429 -0.14100
C 	C 	0.39991 0.48370 0.74132 0.31600
C 	C 	0.38072 0.51020 0.66713 -0.09000
C 	C 	0.39815 0.50930 0.61756 0.02400
H 	H 	0.42140 0.49210 0.63040 0.04700
C 	C 	0.38097 0.53404 0.54906 -0.09100
C 	C 	0.40026 0.53260 0.49644 0.31100
C 	C 	0.34661 0.56000 0.53037 0.02000
H 	H 	0.33500 0.57610 0.48430 0.03900
C 	C 	0.32928 0.56230 0.57955 -0.08800
H 	H 	0.30620 0.58110 0.56690 0.06900
C 	C 	0.34642 0.53650 0.64808 0.02200
H 	H 	0.33470 0.53700 0.68110 0.04500
C 	C 	0.46748 0.60980 0.86448 0.10400
H 	H 	0.47320 0.57500 0.83070 -0.00200
C 	C 	0.46550 0.72260 0.93509 0.00000
H 	H 	0.46950 0.77840 0.95960 0.03100
C 	C 	0.44329 0.65600 0.93870 0.00400
H 	H 	0.42890 0.65800 0.96670 0.02400
C 	C 	0.50894 0.73790 0.86977 0.11600
C 	C 	0.53226 0.68650 0.84815 -0.11300
H 	H 	0.52950 0.62240 0.84260 0.08500
C 	C 	0.56000 0.73080 0.83458 -0.02300
H 	H 	0.57570 0.69590 0.81980 0.04700
C 	C 	0.56451 0.82600 0.84269 0.00600
C 	C 	0.54026 0.87660 0.86419 -0.02300
H 	H 	0.54290 0.94070 0.86990 0.04000
C 	C 	0.51247 0.83330 0.87708 -0.11800
H 	H 	0.49630 0.86800 0.89060 0.07200
C 	C 	0.59736 0.87776 0.83989 -0.02900
C 	C 	0.57477 0.27610 0.66747 0.10100
H 	H 	0.58270 0.29690 0.71340 -0.00500
C 	C 	0.55835 0.18370 0.57793 0.00300
H 	H 	0.55280 0.13070 0.55030 0.03400
C 	C 	0.55782 0.27310 0.55616 0.00600
H 	H 	0.55140 0.29200 0.50980 0.03400
C 	C 	0.57511 0.11110 0.69766 0.11100
C 	C 	0.60682 0.10480 0.74854 -0.10600
H 	H 	0.62370 0.14980 0.75160 0.06500
C 	C 	0.61346 0.03100 0.79527 -0.02900
H 	H 	0.63510 0.02610 0.82900 0.04000
C 	C 	0.58821 0.96406 0.79238 0.01100
C 	C 	0.55691 0.97190 0.74080 -0.03100
H 	H 	0.53980 0.92750 0.73780 0.04500
C 	C 	0.55015 0.04500 0.69278 -0.11000
H 	H 	0.52890 0.04880 0.65790 0.07200
C 	C 	0.71683 0.70600 0.71262 0.09300
H 	H 	0.72800 0.75890 0.73550 -0.00400
C 	C 	0.70549 0.57950 0.65293 0.00900
H 	H 	0.70780 0.52830 0.62640 0.03500
C 	C 	0.67755 0.59860 0.67279 0.00600
H 	H 	0.65720 0.56400 0.66280 0.04500
C 	C 	0.66307 0.72718 0.74395 0.11100
C 	C 	0.67757 0.76850 0.80816 -0.11200
H 	H 	0.70130 0.76490 0.83030 0.07800
C 	C 	0.65650 0.81520 0.83934 -0.02500
H 	H 	0.66640 0.84410 0.88220 0.04900
C 	C 	0.62089 0.81980 0.80813 0.00900
C 	C 	0.60718 0.77820 0.74295 -0.02700
H 	H 	0.58340 0.78130 0.72060 0.04500
C 	C 	0.62800 0.73260 0.71086 -0.10900
H 	H 	0.61840 0.70570 0.66720 0.06900
C 	C 	0.67619 0.87600 0.18182 0.09700
H 	H 	0.67530 0.81260 0.17220 -0.01600
C 	C 	0.68704 0.00700 0.23535 -0.00200
H 	H 	0.69520 0.05090 0.27050 0.03900
C 	C 	0.66931 0.02640 0.16832 0.01200
H 	H 	0.66300 0.08500 0.14900 0.03200
C 	C 	0.64569 0.92800 0.06084 0.11800
C 	C 	0.64419 0.83930 0.03342 -0.11500
H 	H 	0.65320 0.78890 0.06230 0.07600
C 	C 	0.62922 0.82680 0.96287 -0.02300
H 	H 	0.62820 0.76700 0.94470 0.04500
C 	C 	0.61565 0.89990 0.91763 0.00600
C 	C 	0.61695 0.98690 0.94700 -0.02500
H 	H 	0.60780 0.03750 0.91840 0.04200
C 	C 	0.63167 0.00090 0.01849 -0.11500
H 	H 	0.63190 0.06010 0.03730 0.07600
C 	C 	0.77372 0.53940 0.56259 0.34300
C 	C 	0.76524 0.51540 0.48697 -0.11800
C 	C 	0.75182 0.58510 0.43743 0.05600
H 	H 	0.74970 0.64540 0.45230 0.03400
C 	C 	0.74166 0.56580 0.36663 -0.12900
C 	C 	0.72675 0.64080 0.31490 0.35400
C 	C 	0.74642 0.47670 0.34624 0.05900
H 	H 	0.74080 0.46380 0.29880 0.01900
C 	C 	0.75894 0.40740 0.39230 -0.12300
H 	H 	0.76150 0.34790 0.37660 0.07100
C 	C 	0.76816 0.42610 0.46470 0.04600
H 	H 	0.77610 0.37850 0.49690 0.02400
Co	Co	0.91648 0.96531 0.87910 1.15200
Co	Co	0.27885 0.15438 0.67145 1.15200
O 	O 	0.88255 0.98350 0.78449 -0.41600
O 	O 	0.93091 0.96354 0.75886 -0.32600
O 	O 	0.88213 0.03207 0.43176 -0.41500
O 	O 	0.93225 0.03168 0.51508 -0.33000
O 	O 	0.28021 0.12450 0.57840 -0.43800
O 	O 	0.27232 0.98060 0.60537 -0.32500
O 	O 	0.21436 0.21193 0.33700 -0.43900
O 	O 	0.22585 0.13070 0.25371 -0.28500
N 	N 	0.94475 0.08368 0.89491 -0.24900
N 	N 	0.98144 0.19210 0.88771 -0.14200
N 	N 	0.06826 0.83133 0.61268 -0.24900
N 	N 	0.06875 0.68807 0.64961 -0.14200
N 	N 	0.23044 0.14757 0.67788 -0.25200
N 	N 	0.18500 0.17974 0.71086 -0.14000
N 	N 	0.19121 0.41260 0.24384 -0.25700
N 	N 	0.16241 0.44224 0.13429 -0.14100
C 	C 	0.89991 0.98370 0.74132 0.31600
C 	C 	0.88072 0.01020 0.66713 -0.09000
C 	C 	0.89815 0.00930 0.61756 0.02400
H 	H 	0.92140 0.99210 0.63040 0.04700
C 	C 	0.88097 0.03404 0.54906 -0.09100
C 	C 	0.90026 0.03260 0.49644 0.31100
C 	C 	0.84661 0.06000 0.53037 0.02000
H 	H 	0.83500 0.07610 0.48430 0.03900
C 	C 	0.82928 0.06230 0.57955 -0.08800
H 	H 	0.80620 0.08110 0.56690 0.06900
C 	C 	0.84642 0.03650 0.64808 0.02200
H 	H 	0.83470 0.03700 0.68110 0.04500
C 	C 	0.96748 0.10980 0.86448 0.10400
H 	H 	0.97320 0.07500 0.83070 -0.00200
C 	C 	0.96550 0.22260 0.93509 0.00000
H 	H 	0.96950 0.27840 0.95960 0.03100
C 	C 	0.94329 0.15600 0.93870 0.00400
H 	H 	0.92890 0.15800 0.96670 0.02400
C 	C 	0.00894 0.23790 0.86977 0.11600
C 	C 	0.03226 0.18650 0.84815 -0.11300
H 	H 	0.02950 0.12240 0.84260 0.08500
C 	C 	0.06000 0.23080 0.83458 -0.02300
H 	H 	0.07570 0.19590 0.81980 0.04700
C 	C 	0.06451 0.32600 0.84269 0.00600
C 	C 	0.04026 0.37660 0.86419 -0.02300
H 	H 	0.04290 0.44070 0.86990 0.04000
C 	C 	0.01247 0.33330 0.87708 -0.11700
H 	H 	0.99630 0.36800 0.89060 0.07200
C 	C 	0.09736 0.37776 0.83989 -0.02900
C 	C 	0.07477 0.77610 0.66747 0.10100
H 	H 	0.08270 0.79690 0.71340 -0.00500
C 	C 	0.05835 0.68370 0.57793 0.00300
H 	H 	0.05280 0.63070 0.55030 0.03400
C 	C 	0.05782 0.77310 0.55616 0.00600
H 	H 	0.05140 0.79200 0.50980 0.03400
C 	C 	0.07511 0.61110 0.69766 0.11100
C 	C 	0.10682 0.60480 0.74854 -0.10600
H 	H 	0.12370 0.64980 0.75160 0.06500
C 	C 	0.11346 0.53100 0.79527 -0.02900
H 	H 	0.13510 0.52610 0.82900 0.04000
C 	C 	0.08821 0.46406 0.79238 0.01100
C 	C 	0.05691 0.47190 0.74080 -0.03100
H 	H 	0.03980 0.42750 0.73780 0.04500
C 	C 	0.05015 0.54500 0.69278 -0.11000
H 	H 	0.02890 0.54880 0.65790 0.07200
C 	C 	0.21683 0.20600 0.71262 0.09300
H 	H 	0.22800 0.25890 0.73550 -0.00400
C 	C 	0.20549 0.07950 0.65293 0.00900
H 	H 	0.20780 0.02830 0.62640 0.03500
C 	C 	0.17755 0.09860 0.67279 0.00600
H 	H 	0.15720 0.06400 0.66280 0.04500
C 	C 	0.16307 0.22718 0.74395 0.11100
C 	C 	0.17757 0.26850 0.80816 -0.11200
H 	H 	0.20130 0.26490 0.83030 0.07800
C 	C 	0.15650 0.31520 0.83934 -0.02500
H 	H 	0.16640 0.34410 0.88220 0.04900
C 	C 	0.12089 0.31980 0.80813 0.00900
C 	C 	0.10718 0.27820 0.74295 -0.02700
H 	H 	0.08340 0.28130 0.72060 0.04500
C 	C 	0.12800 0.23260 0.71086 -0.10900
H 	H 	0.11840 0.20570 0.66720 0.06900
C 	C 	0.17619 0.37600 0.18182 0.09700
H 	H 	0.17530 0.31260 0.17220 -0.01600
C 	C 	0.18704 0.50700 0.23535 -0.00200
H 	H 	0.19520 0.55090 0.27050 0.03900
C 	C 	0.16931 0.52640 0.16832 0.01200
H 	H 	0.16300 0.58500 0.14900 0.03200
C 	C 	0.14569 0.42800 0.06084 0.11800
C 	C 	0.14419 0.33930 0.03342 -0.11600
H 	H 	0.15320 0.28890 0.06230 0.07600
C 	C 	0.12922 0.32680 0.96287 -0.02200
H 	H 	0.12820 0.26700 0.94470 0.04500
C 	C 	0.11565 0.39990 0.91763 0.00600
C 	C 	0.11695 0.48690 0.94700 -0.02400
H 	H 	0.10780 0.53750 0.91840 0.04200
C 	C 	0.13167 0.50090 0.01849 -0.11600
H 	H 	0.13190 0.56010 0.03730 0.07600
C 	C 	0.27372 0.03940 0.56259 0.34300
C 	C 	0.26524 0.01540 0.48697 -0.11800
C 	C 	0.25182 0.08510 0.43743 0.05700
H 	H 	0.24970 0.14540 0.45230 0.03400
C 	C 	0.24166 0.06580 0.36663 -0.12900
C 	C 	0.22675 0.14080 0.31490 0.35400
C 	C 	0.24642 0.97670 0.34624 0.06000
H 	H 	0.24080 0.96380 0.29880 0.01900
C 	C 	0.25894 0.90740 0.39230 -0.12300
H 	H 	0.26150 0.84790 0.37660 0.07100
C 	C 	0.26816 0.92610 0.46470 0.04600
H 	H 	0.27610 0.87850 0.49690 0.02400
Co	Co	0.58352 0.46531 0.62090 1.15200
Co	Co	0.22115 0.65438 0.82855 1.15200
O 	O 	0.61745 0.48350 0.71551 -0.41600
O 	O 	0.56909 0.46354 0.74114 -0.32600
O 	O 	0.61787 0.53207 0.06824 -0.41500
O 	O 	0.56775 0.53168 0.98492 -0.33000
O 	O 	0.21979 0.62450 0.92160 -0.43800
O 	O 	0.22768 0.48060 0.89463 -0.32500
O 	O 	0.28564 0.71193 0.16300 -0.43800
O 	O 	0.27415 0.63070 0.24629 -0.28500
N 	N 	0.55525 0.58368 0.60509 -0.25000
N 	N 	0.51856 0.69210 0.61229 -0.14200
N 	N 	0.43174 0.33133 0.88732 -0.24900
N 	N 	0.43125 0.18807 0.85039 -0.14200
N 	N 	0.26956 0.64757 0.82212 -0.25200
N 	N 	0.31500 0.67974 0.78914 -0.14000
N 	N 	0.30879 0.91260 0.25616 -0.25700
N 	N 	0.33759 0.94224 0.36571 -0.14100
C 	C 	0.60009 0.48370 0.75868 0.31600
C 	C 	0.61928 0.51020 0.83287 -0.09000
C 	C 	0.60185 0.50930 0.88244 0.02400
H 	H 	0.57860 0.49210 0.86960 0.04700
C 	C 	0.61903 0.53404 0.95094 -0.09100
C 	C 	0.59974 0.53260 0.00356 0.31100
C 	C 	0.65339 0.56000 0.96963 0.02000
H 	H 	0.66500 0.57610 0.01570 0.03900
C 	C 	0.67072 0.56230 0.92045 -0.08800
H 	H 	0.69380 0.58110 0.93310 0.06900
C 	C 	0.65358 0.53650 0.85192 0.02200
H 	H 	0.66530 0.53700 0.81890 0.04500
C 	C 	0.53252 0.60980 0.63552 0.10400
H 	H 	0.52680 0.57500 0.66930 -0.00200
C 	C 	0.53450 0.72260 0.56491 0.00000
H 	H 	0.53050 0.77840 0.54040 0.03100
C 	C 	0.55671 0.65600 0.56130 0.00400
H 	H 	0.57110 0.65800 0.53330 0.02400
C 	C 	0.49106 0.73790 0.63023 0.11600
C 	C 	0.46774 0.68650 0.65185 -0.11300
H 	H 	0.47050 0.62240 0.65740 0.08500
C 	C 	0.44000 0.73080 0.66542 -0.02300
H 	H 	0.42430 0.69590 0.68020 0.04700
C 	C 	0.43549 0.82600 0.65731 0.00600
C 	C 	0.45974 0.87660 0.63581 -0.02300
H 	H 	0.45710 0.94070 0.63010 0.04000
C 	C 	0.48753 0.83330 0.62292 -0.11800
H 	H 	0.50370 0.86800 0.60940 0.07200
C 	C 	0.40264 0.87776 0.66011 -0.02900
C 	C 	0.42523 0.27610 0.83253 0.10100
H 	H 	0.41730 0.29690 0.78660 -0.00500
C 	C 	0.44165 0.18370 0.92207 0.00300
H 	H 	0.44720 0.13070 0.94970 0.03400
C 	C 	0.44218 0.27310 0.94384 0.00600
H 	H 	0.44860 0.29200 0.99020 0.03400
C 	C 	0.42489 0.11110 0.80234 0.11100
C 	C 	0.39318 0.10480 0.75146 -0.10600
H 	H 	0.37630 0.14980 0.74840 0.06500
C 	C 	0.38654 0.03100 0.70473 -0.02900
H 	H 	0.36490 0.02610 0.67100 0.04000
C 	C 	0.41179 0.96406 0.70762 0.01100
C 	C 	0.44309 0.97190 0.75920 -0.03200
H 	H 	0.46020 0.92750 0.76220 0.04500
C 	C 	0.44985 0.04500 0.80722 -0.11000
H 	H 	0.47110 0.04880 0.84210 0.07200
C 	C 	0.28317 0.70600 0.78738 0.09300
H 	H 	0.27200 0.75890 0.76450 -0.00400
C 	C 	0.29451 0.57950 0.84707 0.00900
H 	H 	0.29220 0.52830 0.87360 0.03500
C 	C 	0.32245 0.59860 0.82721 0.00600
H 	H 	0.34280 0.56400 0.83720 0.04500
C 	C 	0.33693 0.72718 0.75605 0.11100
C 	C 	0.32243 0.76850 0.69184 -0.11200
H 	H 	0.29870 0.76490 0.66970 0.07800
C 	C 	0.34350 0.81520 0.66066 -0.02500
H 	H 	0.33360 0.84410 0.61780 0.04900
C 	C 	0.37911 0.81980 0.69187 0.00900
C 	C 	0.39282 0.77820 0.75705 -0.02700
H 	H 	0.41660 0.78130 0.77940 0.04500
C 	C 	0.37200 0.73260 0.78914 -0.10900
H 	H 	0.38160 0.70570 0.83280 0.06900
C 	C 	0.32381 0.87600 0.31818 0.09700
H 	H 	0.32470 0.81260 0.32780 -0.01600
C 	C 	0.31296 0.00700 0.26465 -0.00200
H 	H 	0.30480 0.05090 0.22950 0.03900
C 	C 	0.33069 0.02640 0.33168 0.01200
H 	H 	0.33700 0.08500 0.35100 0.03200
C 	C 	0.35431 0.92800 0.43916 0.11800
C 	C 	0.35581 0.83930 0.46658 -0.11600
H 	H 	0.34680 0.78890 0.43770 0.07600
C 	C 	0.37078 0.82680 0.53713 -0.02200
H 	H 	0.37180 0.76700 0.55530 0.04500
C 	C 	0.38435 0.89990 0.58237 0.00600
C 	C 	0.38305 0.98690 0.55300 -0.02400
H 	H 	0.39220 0.03750 0.58160 0.04200
C 	C 	0.36833 0.00090 0.48151 -0.11500
H 	H 	0.36810 0.06010 0.46270 0.07600
C 	C 	0.22628 0.53940 0.93741 0.34300
C 	C 	0.23476 0.51540 0.01303 -0.11800
C 	C 	0.24818 0.58510 0.06257 0.05700
H 	H 	0.25030 0.64540 0.04770 0.03400
C 	C 	0.25834 0.56580 0.13337 -0.12900
C 	C 	0.27325 0.64080 0.18510 0.35400
C 	C 	0.25358 0.47670 0.15376 0.05900
H 	H 	0.25920 0.46380 0.20120 0.01900
C 	C 	0.24106 0.40740 0.10770 -0.12300
H 	H 	0.23850 0.34790 0.12340 0.07100
C 	C 	0.23184 0.42610 0.03530 0.04600
H 	H 	0.22390 0.37850 0.00310 0.02400
Co	Co	0.08352 0.96531 0.62090 1.15200
Co	Co	0.72115 0.15438 0.82855 1.15200
O 	O 	0.11745 0.98350 0.71551 -0.41600
O 	O 	0.06909 0.96354 0.74114 -0.32600
O 	O 	0.11787 0.03207 0.06824 -0.41500
O 	O 	0.06775 0.03168 0.98492 -0.33000
O 	O 	0.71979 0.12450 0.92160 -0.43800
O 	O 	0.72768 0.98060 0.89463 -0.32600
O 	O 	0.78564 0.21193 0.16300 -0.43900
O 	O 	0.77415 0.13070 0.24629 -0.28500
N 	N 	0.05525 0.08368 0.60509 -0.24900
N 	N 	0.01856 0.19210 0.61229 -0.14200
N 	N 	0.93174 0.83133 0.88732 -0.24900
N 	N 	0.93125 0.68807 0.85039 -0.14200
N 	N 	0.76956 0.14757 0.82212 -0.25200
N 	N 	0.81500 0.17974 0.78914 -0.14000
N 	N 	0.80879 0.41260 0.25616 -0.25700
N 	N 	0.83759 0.44224 0.36571 -0.14100
C 	C 	0.10009 0.98370 0.75868 0.31600
C 	C 	0.11928 0.01020 0.83287 -0.09000
C 	C 	0.10185 0.00930 0.88244 0.02400
H 	H 	0.07860 0.99210 0.86960 0.04600
C 	C 	0.11903 0.03404 0.95094 -0.09100
C 	C 	0.09974 0.03260 0.00356 0.31000
C 	C 	0.15339 0.06000 0.96963 0.02000
H 	H 	0.16500 0.07610 0.01570 0.03800
C 	C 	0.17072 0.06230 0.92045 -0.08800
H 	H 	0.19380 0.08110 0.93310 0.06900
C 	C 	0.15358 0.03650 0.85192 0.02300
H 	H 	0.16530 0.03700 0.81890 0.04500
C 	C 	0.03252 0.10980 0.63552 0.10400
H 	H 	0.02680 0.07500 0.66930 -0.00200
C 	C 	0.03450 0.22260 0.56491 0.00000
H 	H 	0.03050 0.27840 0.54040 0.03100
C 	C 	0.05671 0.15600 0.56130 0.00400
H 	H 	0.07110 0.15800 0.53330 0.02400
C 	C 	0.99106 0.23790 0.63023 0.11600
C 	C 	0.96774 0.18650 0.65185 -0.11300
H 	H 	0.97050 0.12240 0.65740 0.08500
C 	C 	0.94000 0.23080 0.66542 -0.02300
H 	H 	0.92430 0.19590 0.68020 0.04700
C 	C 	0.93549 0.32600 0.65731 0.00600
C 	C 	0.95974 0.37660 0.63581 -0.02300
H 	H 	0.95710 0.44070 0.63010 0.04000
C 	C 	0.98753 0.33330 0.62292 -0.11800
H 	H 	0.00370 0.36800 0.60940 0.07200
C 	C 	0.90264 0.37776 0.66011 -0.02900
C 	C 	0.92523 0.77610 0.83253 0.10100
H 	H 	0.91730 0.79690 0.78660 -0.00500
C 	C 	0.94165 0.68370 0.92207 0.00300
H 	H 	0.94720 0.63070 0.94970 0.03400
C 	C 	0.94218 0.77310 0.94384 0.00600
H 	H 	0.94860 0.79200 0.99020 0.03400
C 	C 	0.92489 0.61110 0.80234 0.11100
C 	C 	0.89318 0.60480 0.75146 -0.10600
H 	H 	0.87630 0.64980 0.74840 0.06500
C 	C 	0.88654 0.53100 0.70473 -0.02900
H 	H 	0.86490 0.52610 0.67100 0.04000
C 	C 	0.91179 0.46406 0.70762 0.01100
C 	C 	0.94309 0.47190 0.75920 -0.03100
H 	H 	0.96020 0.42750 0.76220 0.04500
C 	C 	0.94985 0.54500 0.80722 -0.11000
H 	H 	0.97110 0.54880 0.84210 0.07200
C 	C 	0.78317 0.20600 0.78738 0.09300
H 	H 	0.77200 0.25890 0.76450 -0.00400
C 	C 	0.79451 0.07950 0.84707 0.00900
H 	H 	0.79220 0.02830 0.87360 0.03500
C 	C 	0.82245 0.09860 0.82721 0.00600
H 	H 	0.84280 0.06400 0.83720 0.04500
C 	C 	0.83693 0.22718 0.75605 0.11100
C 	C 	0.82243 0.26850 0.69184 -0.11200
H 	H 	0.79870 0.26490 0.66970 0.07800
C 	C 	0.84350 0.31520 0.66066 -0.02500
H 	H 	0.83360 0.34410 0.61780 0.04900
C 	C 	0.87911 0.31980 0.69187 0.00900
C 	C 	0.89282 0.27820 0.75705 -0.02700
H 	H 	0.91660 0.28130 0.77940 0.04500
C 	C 	0.87200 0.23260 0.78914 -0.10900
H 	H 	0.88160 0.20570 0.83280 0.06900
C 	C 	0.82381 0.37600 0.31818 0.09700
H 	H 	0.82470 0.31260 0.32780 -0.01600
C 	C 	0.81296 0.50700 0.26465 -0.00200
H 	H 	0.80480 0.55090 0.22950 0.03900
C 	C 	0.83069 0.52640 0.33168 0.01200
H 	H 	0.83700 0.58500 0.35100 0.03200
C 	C 	0.85431 0.42800 0.43916 0.11800
C 	C 	0.85581 0.33930 0.46658 -0.11600
H 	H 	0.84680 0.28890 0.43770 0.07600
C 	C 	0.87078 0.32680 0.53713 -0.02200
H 	H 	0.87180 0.26700 0.55530 0.04500
C 	C 	0.88435 0.39990 0.58237 0.00600
C 	C 	0.88305 0.48690 0.55300 -0.02400
H 	H 	0.89220 0.53750 0.58160 0.04200
C 	C 	0.86833 0.50090 0.48151 -0.11500
H 	H 	0.86810 0.56010 0.46270 0.07600
C 	C 	0.72628 0.03940 0.93741 0.34300
C 	C 	0.73476 0.01540 0.01303 -0.11900
C 	C 	0.74818 0.08510 0.06257 0.05700
H 	H 	0.75030 0.14540 0.04770 0.03300
C 	C 	0.75834 0.06580 0.13337 -0.13000
C 	C 	0.77325 0.14080 0.18510 0.35500
C 	C 	0.75358 0.97670 0.15376 0.06000
H 	H 	0.75920 0.96380 0.20120 0.01900
C 	C 	0.74106 0.90740 0.10770 -0.12300
H 	H 	0.73850 0.84790 0.12340 0.07200
C 	C 	0.73184 0.92610 0.03530 0.04700
H 	H 	0.72390 0.87850 0.00310 0.02400
Co	Co	0.58352 0.53469 0.12090 1.15200
Co	Co	0.22115 0.34562 0.32855 1.15200
O 	O 	0.61745 0.51650 0.21551 -0.41600
O 	O 	0.56909 0.53646 0.24114 -0.32600
O 	O 	0.61787 0.46793 0.56824 -0.41500
O 	O 	0.56775 0.46832 0.48492 -0.33000
O 	O 	0.21979 0.37550 0.42160 -0.43800
O 	O 	0.22768 0.51940 0.39463 -0.32500
O 	O 	0.28564 0.28807 0.66300 -0.43800
O 	O 	0.27415 0.36930 0.74629 -0.28500
N 	N 	0.55525 0.41632 0.10509 -0.25000
N 	N 	0.51856 0.30790 0.11229 -0.14200
N 	N 	0.43174 0.66867 0.38732 -0.24900
N 	N 	0.43125 0.81193 0.35039 -0.14200
N 	N 	0.26956 0.35243 0.32212 -0.25200
N 	N 	0.31500 0.32026 0.28914 -0.14000
N 	N 	0.30879 0.08740 0.75616 -0.25700
N 	N 	0.33759 0.05776 0.86571 -0.14100
C 	C 	0.60009 0.51630 0.25868 0.31600
C 	C 	0.61928 0.48980 0.33287 -0.09000
C 	C 	0.60185 0.49070 0.38244 0.02400
H 	H 	0.57860 0.50790 0.36960 0.04700
C 	C 	0.61903 0.46596 0.45094 -0.09100
C 	C 	0.59974 0.46740 0.50356 0.31100
C 	C 	0.65339 0.44000 0.46963 0.02000
H 	H 	0.66500 0.42390 0.51570 0.03900
C 	C 	0.67072 0.43770 0.42045 -0.08800
H 	H 	0.69380 0.41890 0.43310 0.06900
C 	C 	0.65358 0.46350 0.35192 0.02200
H 	H 	0.66530 0.46300 0.31890 0.04500
C 	C 	0.53252 0.39020 0.13552 0.10400
H 	H 	0.52680 0.42500 0.16930 -0.00200
C 	C 	0.53450 0.27740 0.06491 0.00000
H 	H 	0.53050 0.22160 0.04040 0.03100
C 	C 	0.55671 0.34400 0.06130 0.00400
H 	H 	0.57110 0.34200 0.03330 0.02400
C 	C 	0.49106 0.26210 0.13023 0.11600
C 	C 	0.46774 0.31350 0.15185 -0.11300
H 	H 	0.47050 0.37760 0.15740 0.08500
C 	C 	0.44000 0.26920 0.16542 -0.02300
H 	H 	0.42430 0.30410 0.18020 0.04700
C 	C 	0.43549 0.17400 0.15731 0.00600
C 	C 	0.45974 0.12340 0.13581 -0.02300
H 	H 	0.45710 0.05930 0.13010 0.04000
C 	C 	0.48753 0.16670 0.12292 -0.11800
H 	H 	0.50370 0.13200 0.10940 0.07200
C 	C 	0.40264 0.12224 0.16011 -0.02900
C 	C 	0.42523 0.72390 0.33253 0.10100
H 	H 	0.41730 0.70310 0.28660 -0.00500
C 	C 	0.44165 0.81630 0.42207 0.00300
H 	H 	0.44720 0.86930 0.44970 0.03400
C 	C 	0.44218 0.72690 0.44384 0.00600
H 	H 	0.44860 0.70800 0.49020 0.03400
C 	C 	0.42489 0.88890 0.30234 0.11100
C 	C 	0.39318 0.89520 0.25146 -0.10600
H 	H 	0.37630 0.85020 0.24840 0.06500
C 	C 	0.38654 0.96900 0.20473 -0.02900
H 	H 	0.36490 0.97390 0.17100 0.04000
C 	C 	0.41179 0.03594 0.20762 0.01100
C 	C 	0.44309 0.02810 0.25920 -0.03100
H 	H 	0.46020 0.07250 0.26220 0.04500
C 	C 	0.44985 0.95500 0.30722 -0.11000
H 	H 	0.47110 0.95120 0.34210 0.07200
C 	C 	0.28317 0.29400 0.28738 0.09300
H 	H 	0.27200 0.24110 0.26450 -0.00400
C 	C 	0.29451 0.42050 0.34707 0.00900
H 	H 	0.29220 0.47170 0.37360 0.03500
C 	C 	0.32245 0.40140 0.32721 0.00600
H 	H 	0.34280 0.43600 0.33720 0.04500
C 	C 	0.33693 0.27282 0.25605 0.11100
C 	C 	0.32243 0.23150 0.19184 -0.11200
H 	H 	0.29870 0.23510 0.16970 0.07800
C 	C 	0.34350 0.18480 0.16066 -0.02500
H 	H 	0.33360 0.15590 0.11780 0.04900
C 	C 	0.37911 0.18020 0.19187 0.00900
C 	C 	0.39282 0.22180 0.25705 -0.02700
H 	H 	0.41660 0.21870 0.27940 0.04500
C 	C 	0.37200 0.26740 0.28914 -0.10900
H 	H 	0.38160 0.29430 0.33280 0.06900
C 	C 	0.32381 0.12400 0.81818 0.09700
H 	H 	0.32470 0.18740 0.82780 -0.01600
C 	C 	0.31296 0.99300 0.76465 -0.00200
H 	H 	0.30480 0.94910 0.72950 0.03900
C 	C 	0.33069 0.97360 0.83168 0.01200
H 	H 	0.33700 0.91500 0.85100 0.03200
C 	C 	0.35431 0.07200 0.93916 0.11800
C 	C 	0.35581 0.16070 0.96658 -0.11500
H 	H 	0.34680 0.21110 0.93770 0.07600
C 	C 	0.37078 0.17320 0.03713 -0.02300
H 	H 	0.37180 0.23300 0.05530 0.04500
C 	C 	0.38435 0.10010 0.08237 0.00600
C 	C 	0.38305 0.01310 0.05300 -0.02500
H 	H 	0.39220 0.96250 0.08160 0.04200
C 	C 	0.36833 0.99910 0.98151 -0.11500
H 	H 	0.36810 0.93990 0.96270 0.07600
C 	C 	0.22628 0.46060 0.43741 0.34300
C 	C 	0.23476 0.48460 0.51303 -0.11800
C 	C 	0.24818 0.41490 0.56257 0.05600
H 	H 	0.25030 0.35460 0.54770 0.03400
C 	C 	0.25834 0.43420 0.63337 -0.12900
C 	C 	0.27325 0.35920 0.68510 0.35400
C 	C 	0.25358 0.52330 0.65376 0.05900
H 	H 	0.25920 0.53620 0.70120 0.01900
C 	C 	0.24106 0.59260 0.60770 -0.12300
H 	H 	0.23850 0.65210 0.62340 0.07100
C 	C 	0.23184 0.57390 0.53530 0.04600
H 	H 	0.22390 0.62150 0.50310 0.02400
Co	Co	0.08352 0.03469 0.12090 1.15200
Co	Co	0.72115 0.84562 0.32855 1.15200
O 	O 	0.11745 0.01650 0.21551 -0.41600
O 	O 	0.06909 0.03646 0.24114 -0.32600
O 	O 	0.11787 0.96793 0.56824 -0.41500
O 	O 	0.06775 0.96832 0.48492 -0.33000
O 	O 	0.71979 0.87550 0.42160 -0.43800
O 	O 	0.72768 0.01940 0.39463 -0.32500
O 	O 	0.78564 0.78807 0.66300 -0.43900
O 	O 	0.77415 0.86930 0.74629 -0.28500
N 	N 	0.05525 0.91632 0.10509 -0.24900
N 	N 	0.01856 0.80790 0.11229 -0.14200
N 	N 	0.93174 0.16867 0.38732 -0.24900
N 	N 	0.93125 0.31193 0.35039 -0.14200
N 	N 	0.76956 0.85243 0.32212 -0.25200
N 	N 	0.81500 0.82026 0.28914 -0.14000
N 	N 	0.80879 0.58740 0.75616 -0.25700
N 	N 	0.83759 0.55776 0.86571 -0.14100
C 	C 	0.10009 0.01630 0.25868 0.31600
C 	C 	0.11928 0.98980 0.33287 -0.09000
C 	C 	0.10185 0.99070 0.38244 0.02400
H 	H 	0.07860 0.00790 0.36960 0.04700
C 	C 	0.11903 0.96596 0.45094 -0.09100
C 	C 	0.09974 0.96740 0.50356 0.31100
C 	C 	0.15339 0.94000 0.46963 0.02000
H 	H 	0.16500 0.92390 0.51570 0.03900
C 	C 	0.17072 0.93770 0.42045 -0.08800
H 	H 	0.19380 0.91890 0.43310 0.06900
C 	C 	0.15358 0.96350 0.35192 0.02200
H 	H 	0.16530 0.96300 0.31890 0.04500
C 	C 	0.03252 0.89020 0.13552 0.10400
H 	H 	0.02680 0.92500 0.16930 -0.00200
C 	C 	0.03450 0.77740 0.06491 0.00000
H 	H 	0.03050 0.72160 0.04040 0.03100
C 	C 	0.05671 0.84400 0.06130 0.00400
H 	H 	0.07110 0.84200 0.03330 0.02400
C 	C 	0.99106 0.76210 0.13023 0.11600
C 	C 	0.96774 0.81350 0.15185 -0.11300
H 	H 	0.97050 0.87760 0.15740 0.08500
C 	C 	0.94000 0.76920 0.16542 -0.02300
H 	H 	0.92430 0.80410 0.18020 0.04700
C 	C 	0.93549 0.67400 0.15731 0.00600
C 	C 	0.95974 0.62340 0.13581 -0.02300
H 	H 	0.95710 0.55930 0.13010 0.04000
C 	C 	0.98753 0.66670 0.12292 -0.11700
H 	H 	0.00370 0.63200 0.10940 0.07200
C 	C 	0.90264 0.62224 0.16011 -0.02900
C 	C 	0.92523 0.22390 0.33253 0.10100
H 	H 	0.91730 0.20310 0.28660 -0.00500
C 	C 	0.94165 0.31630 0.42207 0.00300
H 	H 	0.94720 0.36930 0.44970 0.03400
C 	C 	0.94218 0.22690 0.44384 0.00600
H 	H 	0.94860 0.20800 0.49020 0.03400
C 	C 	0.92489 0.38890 0.30234 0.11100
C 	C 	0.89318 0.39520 0.25146 -0.10600
H 	H 	0.87630 0.35020 0.24840 0.06500
C 	C 	0.88654 0.46900 0.20473 -0.02900
H 	H 	0.86490 0.47390 0.17100 0.04000
C 	C 	0.91179 0.53594 0.20762 0.01100
C 	C 	0.94309 0.52810 0.25920 -0.03100
H 	H 	0.96020 0.57250 0.26220 0.04500
C 	C 	0.94985 0.45500 0.30722 -0.11000
H 	H 	0.97110 0.45120 0.34210 0.07200
C 	C 	0.78317 0.79400 0.28738 0.09300
H 	H 	0.77200 0.74110 0.26450 -0.00400
C 	C 	0.79451 0.92050 0.34707 0.00900
H 	H 	0.79220 0.97170 0.37360 0.03500
C 	C 	0.82245 0.90140 0.32721 0.00600
H 	H 	0.84280 0.93600 0.33720 0.04500
C 	C 	0.83693 0.77282 0.25605 0.11100
C 	C 	0.82243 0.73150 0.19184 -0.11200
H 	H 	0.79870 0.73510 0.16970 0.07800
C 	C 	0.84350 0.68480 0.16066 -0.02500
H 	H 	0.83360 0.65590 0.11780 0.04900
C 	C 	0.87911 0.68020 0.19187 0.00900
C 	C 	0.89282 0.72180 0.25705 -0.02700
H 	H 	0.91660 0.71870 0.27940 0.04500
C 	C 	0.87200 0.76740 0.28914 -0.10900
H 	H 	0.88160 0.79430 0.33280 0.06900
C 	C 	0.82381 0.62400 0.81818 0.09700
H 	H 	0.82470 0.68740 0.82780 -0.01600
C 	C 	0.81296 0.49300 0.76465 -0.00200
H 	H 	0.80480 0.44910 0.72950 0.03900
C 	C 	0.83069 0.47360 0.83168 0.01200
H 	H 	0.83700 0.41500 0.85100 0.03200
C 	C 	0.85431 0.57200 0.93916 0.11800
C 	C 	0.85581 0.66070 0.96658 -0.11600
H 	H 	0.84680 0.71110 0.93770 0.07600
C 	C 	0.87078 0.67320 0.03713 -0.02200
H 	H 	0.87180 0.73300 0.05530 0.04500
C 	C 	0.88435 0.60010 0.08237 0.00600
C 	C 	0.88305 0.51310 0.05300 -0.02400
H 	H 	0.89220 0.46250 0.08160 0.04200
C 	C 	0.86833 0.49910 0.98151 -0.11600
H 	H 	0.86810 0.43990 0.96270 0.07600
C 	C 	0.72628 0.96060 0.43741 0.34300
C 	C 	0.73476 0.98460 0.51303 -0.11800
C 	C 	0.74818 0.91490 0.56257 0.05700
H 	H 	0.75030 0.85460 0.54770 0.03400
C 	C 	0.75834 0.93420 0.63337 -0.12900
C 	C 	0.77325 0.85920 0.68510 0.35400
C 	C 	0.75358 0.02330 0.65376 0.06000
H 	H 	0.75920 0.03620 0.70120 0.01900
C 	C 	0.74106 0.09260 0.60770 -0.12300
H 	H 	0.73850 0.15210 0.62340 0.07100
C 	C 	0.73184 0.07390 0.53530 0.04600
H 	H 	0.72390 0.12150 0.50310 0.02400
Co	Co	0.41648 0.53469 0.37910 1.15200
Co	Co	0.77885 0.34562 0.17145 1.15200
O 	O 	0.38255 0.51650 0.28449 -0.41600
O 	O 	0.43091 0.53646 0.25886 -0.32600
O 	O 	0.38213 0.46793 0.93176 -0.41500
O 	O 	0.43225 0.46832 0.01508 -0.33000
O 	O 	0.78021 0.37550 0.07840 -0.43800
O 	O 	0.77232 0.51940 0.10537 -0.32500
O 	O 	0.71436 0.28807 0.83700 -0.43800
O 	O 	0.72585 0.36930 0.75371 -0.28500
N 	N 	0.44475 0.41632 0.39491 -0.25000
N 	N 	0.48144 0.30790 0.38771 -0.14200
N 	N 	0.56826 0.66867 0.11268 -0.24900
N 	N 	0.56875 0.81193 0.14961 -0.14200
N 	N 	0.73044 0.35243 0.17788 -0.25200
N 	N 	0.68500 0.32026 0.21086 -0.14000
N 	N 	0.69121 0.08740 0.74384 -0.25700
N 	N 	0.66241 0.05776 0.63429 -0.14100
C 	C 	0.39991 0.51630 0.24132 0.31600
C 	C 	0.38072 0.48980 0.16713 -0.09000
C 	C 	0.39815 0.49070 0.11756 0.02400
H 	H 	0.42140 0.50790 0.13040 0.04700
C 	C 	0.38097 0.46596 0.04906 -0.09100
C 	C 	0.40026 0.46740 0.99644 0.31100
C 	C 	0.34661 0.44000 0.03037 0.02000
H 	H 	0.33500 0.42390 0.98430 0.03900
C 	C 	0.32928 0.43770 0.07955 -0.08800
H 	H 	0.30620 0.41890 0.06690 0.06900
C 	C 	0.34642 0.46350 0.14808 0.02200
H 	H 	0.33470 0.46300 0.18110 0.04500
C 	C 	0.46748 0.39020 0.36448 0.10400
H 	H 	0.47320 0.42500 0.33070 -0.00200
C 	C 	0.46550 0.27740 0.43509 0.00000
H 	H 	0.46950 0.22160 0.45960 0.03100
C 	C 	0.44329 0.34400 0.43870 0.00400
H 	H 	0.42890 0.34200 0.46670 0.02400
C 	C 	0.50894 0.26210 0.36977 0.11600
C 	C 	0.53226 0.31350 0.34815 -0.11300
H 	H 	0.52950 0.37760 0.34260 0.08500
C 	C 	0.56000 0.26920 0.33458 -0.02300
H 	H 	0.57570 0.30410 0.31980 0.04700
C 	C 	0.56451 0.17400 0.34269 0.00600
C 	C 	0.54026 0.12340 0.36419 -0.02300
H 	H 	0.54290 0.05930 0.36990 0.04000
C 	C 	0.51247 0.16670 0.37708 -0.11800
H 	H 	0.49630 0.13200 0.39060 0.07200
C 	C 	0.59736 0.12224 0.33989 -0.02900
C 	C 	0.57477 0.72390 0.16747 0.10100
H 	H 	0.58270 0.70310 0.21340 -0.00500
C 	C 	0.55835 0.81630 0.07793 0.00300
H 	H 	0.55280 0.86930 0.05030 0.03400
C 	C 	0.55782 0.72690 0.05616 0.00600
H 	H 	0.55140 0.70800 0.00980 0.03400
C 	C 	0.57511 0.88890 0.19766 0.11100
C 	C 	0.60682 0.89520 0.24854 -0.10600
H 	H 	0.62370 0.85020 0.25160 0.06500
C 	C 	0.61346 0.96900 0.29527 -0.02900
H 	H 	0.63510 0.97390 0.32900 0.04000
C 	C 	0.58821 0.03594 0.29238 0.01100
C 	C 	0.55691 0.02810 0.24080 -0.03200
H 	H 	0.53980 0.07250 0.23780 0.04500
C 	C 	0.55015 0.95500 0.19278 -0.11000
H 	H 	0.52890 0.95120 0.15790 0.07200
C 	C 	0.71683 0.29400 0.21262 0.09300
H 	H 	0.72800 0.24110 0.23550 -0.00400
C 	C 	0.70549 0.42050 0.15293 0.00900
H 	H 	0.70780 0.47170 0.12640 0.03500
C 	C 	0.67755 0.40140 0.17279 0.00600
H 	H 	0.65720 0.43600 0.16280 0.04500
C 	C 	0.66307 0.27282 0.24395 0.11100
C 	C 	0.67757 0.23150 0.30816 -0.11200
H 	H 	0.70130 0.23510 0.33030 0.07800
C 	C 	0.65650 0.18480 0.33934 -0.02500
H 	H 	0.66640 0.15590 0.38220 0.04900
C 	C 	0.62089 0.18020 0.30813 0.00900
C 	C 	0.60718 0.22180 0.24295 -0.02700
H 	H 	0.58340 0.21870 0.22060 0.04500
C 	C 	0.62800 0.26740 0.21086 -0.10900
H 	H 	0.61840 0.29430 0.16720 0.06900
C 	C 	0.67619 0.12400 0.68182 0.09700
H 	H 	0.67530 0.18740 0.67220 -0.01600
C 	C 	0.68704 0.99300 0.73535 -0.00200
H 	H 	0.69520 0.94910 0.77050 0.03900
C 	C 	0.66931 0.97360 0.66832 0.01200
H 	H 	0.66300 0.91500 0.64900 0.03200
C 	C 	0.64569 0.07200 0.56084 0.11800
C 	C 	0.64419 0.16070 0.53342 -0.11600
H 	H 	0.65320 0.21110 0.56230 0.07600
C 	C 	0.62922 0.17320 0.46287 -0.02200
H 	H 	0.62820 0.23300 0.44470 0.04500
C 	C 	0.61565 0.10010 0.41763 0.00600
C 	C 	0.61695 0.01310 0.44700 -0.02400
H 	H 	0.60780 0.96250 0.41840 0.04200
C 	C 	0.63167 0.99910 0.51849 -0.11500
H 	H 	0.63190 0.93990 0.53730 0.07600
C 	C 	0.77372 0.46060 0.06259 0.34300
C 	C 	0.76524 0.48460 0.98697 -0.11800
C 	C 	0.75182 0.41490 0.93743 0.05700
H 	H 	0.74970 0.35460 0.95230 0.03400
C 	C 	0.74166 0.43420 0.86663 -0.12900
C 	C 	0.72675 0.35920 0.81490 0.35400
C 	C 	0.74642 0.52330 0.84624 0.05900
H 	H 	0.74080 0.53620 0.79880 0.01900
C 	C 	0.75894 0.59260 0.89230 -0.12300
H 	H 	0.76150 0.65210 0.87660 0.07100
C 	C 	0.76816 0.57390 0.96470 0.04600
H 	H 	0.77610 0.62150 0.99690 0.02400
Co	Co	0.91648 0.03469 0.37910 1.15200
Co	Co	0.27885 0.84562 0.17145 1.15200
O 	O 	0.88255 0.01650 0.28449 -0.41600
O 	O 	0.93091 0.03646 0.25886 -0.32600
O 	O 	0.88213 0.96793 0.93176 -0.41500
O 	O 	0.93225 0.96832 0.01508 -0.33000
O 	O 	0.28021 0.87550 0.07840 -0.43800
O 	O 	0.27232 0.01940 0.10537 -0.32600
O 	O 	0.21436 0.78807 0.83700 -0.43900
O 	O 	0.22585 0.86930 0.75371 -0.28500
N 	N 	0.94475 0.91632 0.39491 -0.24900
N 	N 	0.98144 0.80790 0.38771 -0.14200
N 	N 	0.06826 0.16867 0.11268 -0.24900
N 	N 	0.06875 0.31193 0.14961 -0.14200
N 	N 	0.23044 0.85243 0.17788 -0.25200
N 	N 	0.18500 0.82026 0.21086 -0.14000
N 	N 	0.19121 0.58740 0.74384 -0.25700
N 	N 	0.16241 0.55776 0.63429 -0.14100
C 	C 	0.89991 0.01630 0.24132 0.31600
C 	C 	0.88072 0.98980 0.16713 -0.09000
C 	C 	0.89815 0.99070 0.11756 0.02400
H 	H 	0.92140 0.00790 0.13040 0.04600
C 	C 	0.88097 0.96596 0.04906 -0.09100
C 	C 	0.90026 0.96740 0.99644 0.31000
C 	C 	0.84661 0.94000 0.03037 0.02000
H 	H 	0.83500 0.92390 0.98430 0.03800
C 	C 	0.82928 0.93770 0.07955 -0.08800
H 	H 	0.80620 0.91890 0.06690 0.06900
C 	C 	0.84642 0.96350 0.14808 0.02300
H 	H 	0.83470 0.96300 0.18110 0.04500
C 	C 	0.96748 0.89020 0.36448 0.10400
H 	H 	0.97320 0.92500 0.33070 -0.00200
C 	C 	0.96550 0.77740 0.43509 0.00000
H 	H 	0.96950 0.72160 0.45960 0.03100
C 	C 	0.94329 0.84400 0.43870 0.00400
H 	H 	0.92890 0.84200 0.46670 0.02400
C 	C 	0.00894 0.76210 0.36977 0.11600
C 	C 	0.03226 0.81350 0.34815 -0.11300
H 	H 	0.02950 0.87760 0.34260 0.08500
C 	C 	0.06000 0.76920 0.33458 -0.02300
H 	H 	0.07570 0.80410 0.31980 0.04700
C 	C 	0.06451 0.67400 0.34269 0.00600
C 	C 	0.04026 0.62340 0.36419 -0.02300
H 	H 	0.04290 0.55930 0.36990 0.04000
C 	C 	0.01247 0.66670 0.37708 -0.11800
H 	H 	0.99630 0.63200 0.39060 0.07200
C 	C 	0.09736 0.62224 0.33989 -0.02900
C 	C 	0.07477 0.22390 0.16747 0.10100
H 	H 	0.08270 0.20310 0.21340 -0.00500
C 	C 	0.05835 0.31630 0.07793 0.00300
H 	H 	0.05280 0.36930 0.05030 0.03400
C 	C 	0.05782 0.22690 0.05616 0.00600
H 	H 	0.05140 0.20800 0.00980 0.03400
C 	C 	0.07511 0.38890 0.19766 0.11100
C 	C 	0.10682 0.39520 0.24854 -0.10600
H 	H 	0.12370 0.35020 0.25160 0.06500
C 	C 	0.11346 0.46900 0.29527 -0.02900
H 	H 	0.13510 0.47390 0.32900 0.04000
C 	C 	0.08821 0.53594 0.29238 0.01100
C 	C 	0.05691 0.52810 0.24080 -0.03100
H 	H 	0.03980 0.57250 0.23780 0.04500
C 	C 	0.05015 0.45500 0.19278 -0.11000
H 	H 	0.02890 0.45120 0.15790 0.07200
C 	C 	0.21683 0.79400 0.21262 0.09300
H 	H 	0.22800 0.74110 0.23550 -0.00400
C 	C 	0.20549 0.92050 0.15293 0.00900
H 	H 	0.20780 0.97170 0.12640 0.03500
C 	C 	0.17755 0.90140 0.17279 0.00600
H 	H 	0.15720 0.93600 0.16280 0.04500
C 	C 	0.16307 0.77282 0.24395 0.11100
C 	C 	0.17757 0.73150 0.30816 -0.11200
H 	H 	0.20130 0.73510 0.33030 0.07800
C 	C 	0.15650 0.68480 0.33934 -0.02500
H 	H 	0.16640 0.65590 0.38220 0.04900
C 	C 	0.12089 0.68020 0.30813 0.00900
C 	C 	0.10718 0.72180 0.24295 -0.02700
H 	H 	0.08340 0.71870 0.22060 0.04500
C 	C 	0.12800 0.76740 0.21086 -0.10900
H 	H 	0.11840 0.79430 0.16720 0.06900
C 	C 	0.17619 0.62400 0.68182 0.09700
H 	H 	0.17530 0.68740 0.67220 -0.01600
C 	C 	0.18704 0.49300 0.73535 -0.00200
H 	H 	0.19520 0.44910 0.77050 0.03900
C 	C 	0.16931 0.47360 0.66832 0.01200
H 	H 	0.16300 0.41500 0.64900 0.03200
C 	C 	0.14569 0.57200 0.56084 0.11800
C 	C 	0.14419 0.66070 0.53342 -0.11600
H 	H 	0.15320 0.71110 0.56230 0.07600
C 	C 	0.12922 0.67320 0.46287 -0.02200
H 	H 	0.12820 0.73300 0.44470 0.04500
C 	C 	0.11565 0.60010 0.41763 0.00600
C 	C 	0.11695 0.51310 0.44700 -0.02400
H 	H 	0.10780 0.46250 0.41840 0.04200
C 	C 	0.13167 0.49910 0.51849 -0.11500
H 	H 	0.13190 0.43990 0.53730 0.07600
C 	C 	0.27372 0.96060 0.06259 0.34300
C 	C 	0.26524 0.98460 0.98697 -0.11900
C 	C 	0.25182 0.91490 0.93743 0.05700
H 	H 	0.24970 0.85460 0.95230 0.03300
C 	C 	0.24166 0.93420 0.86663 -0.13000
C 	C 	0.22675 0.85920 0.81490 0.35500
C 	C 	0.24642 0.02330 0.84624 0.06000
H 	H 	0.24080 0.03620 0.79880 0.01900
C 	C 	0.25894 0.09260 0.89230 -0.12300
H 	H 	0.26150 0.15210 0.87660 0.07200
C 	C 	0.26816 0.07390 0.96470 0.04700
H 	H 	0.27610 0.12150 0.99690 0.02400
