data_crystal

_cell_length_a 14.15120
_cell_length_b 14.50760
_cell_length_c 25.80730
_cell_angle_alpha 90.00000
_cell_angle_beta  92.16600
_cell_angle_gamma 90.00000

_symmetry_space_group_name_	'P 1'
_symmetry_space_group_name_H-M	'P 1'

loop_
_symmetry_equiv_pos_as_xyz
  x,y,z

loop_
_atom_site_label
_atom_site_type_symbol
_atom_site_fract_x
_atom_site_fract_y
_atom_site_fract_z
_atom_site_charge
Cd	Cd	0.83713 0.20975 0.37585 1.19100
Cd	Cd	0.74983 0.29244 0.50026 1.24700
Cd	Cd	0.66325 0.37456 0.62474 1.19100
Cd	Cd	0.24669 0.05431 0.01853 1.23000
Cd	Cd	0.32825 0.16586 0.91143 1.15600
O 	O 	0.70540 0.27820 0.35420 -0.47500
O 	O 	0.65530 0.32590 0.43150 -0.42800
O 	O 	0.20000 0.65970 0.53980 -0.51200
O 	O 	0.06250 0.61560 0.56890 -0.39700
O 	O 	0.87330 0.37870 0.47110 -0.42100
O 	O 	0.92690 0.32940 0.39560 -0.46700
O 	O 	0.33020 0.15270 0.06670 -0.45500
O 	O 	0.38150 0.20280 0.99290 -0.51800
O 	O 	0.62380 0.44670 0.98920 -0.39300
O 	O 	0.66790 0.51640 0.06020 -0.52200
O 	O 	0.84570 0.26040 0.56950 -0.47300
O 	O 	0.79730 0.30270 0.64550 -0.49300
O 	O 	0.81880 0.47420 0.91350 -0.36000
O 	O 	0.86510 0.43650 0.99360 -0.35300
O 	O 	0.10910 0.18090 0.01670 -0.36000
O 	O 	0.18550 0.13900 0.94950 -0.53900
O 	O 	0.57100 0.25800 0.60370 -0.47100
O 	O 	0.62720 0.20700 0.52980 -0.43400
O 	O 	0.43670 0.97200 0.42940 -0.38700
O 	O 	0.30230 0.92140 0.45890 -0.49600
O 	O 	0.24640 0.45320 0.38350 -0.21500
O 	O 	0.48110 0.37430 0.19840 -0.22200
O 	O 	0.99770 0.27170 0.79880 -0.23500
O 	O 	0.25090 0.13240 0.61550 -0.21200
C 	C 	0.64500 0.31570 0.38290 0.35500
C 	C 	0.55430 0.34660 0.35740 -0.05000
C 	C 	0.53160 0.32350 0.30730 -0.06400
H 	H 	0.57370 0.28900 0.28850 0.05600
C 	C 	0.44480 0.35130 0.28380 0.05000
C 	C 	0.38580 0.40650 0.31220 -0.12200
H 	H 	0.32990 0.42850 0.29660 0.08200
C 	C 	0.40900 0.43010 0.36470 0.07100
C 	C 	0.49140 0.39920 0.38650 -0.08000
H 	H 	0.50680 0.41280 0.42100 0.07400
C 	C 	0.34010 0.48750 0.39480 -0.04200
H 	H 	0.35510 0.48290 0.43170 0.05000
H 	H 	0.34430 0.55170 0.38470 0.05000
C 	C 	0.17650 0.47440 0.41780 0.17700
C 	C 	0.18530 0.53630 0.45690 -0.13300
H 	H 	0.24070 0.57060 0.46100 0.08800
C 	C 	0.11290 0.54940 0.49110 -0.03900
C 	C 	0.12600 0.61350 0.53540 0.31500
C 	C 	0.03130 0.49540 0.48400 -0.02500
H 	H 	0.98280 0.50080 0.50710 0.05800
C 	C 	0.02180 0.43350 0.44230 -0.04100
C 	C 	0.93330 0.37420 0.43610 0.36600
C 	C 	0.09410 0.42480 0.41080 -0.11900
H 	H 	0.08840 0.38390 0.38310 0.08700
C 	C 	0.43100 0.28920 0.12140 -0.09100
H 	H 	0.39340 0.25070 0.14070 0.07200
C 	C 	0.43450 0.27710 0.06760 -0.10000
C 	C 	0.37830 0.20370 0.04060 0.41100
C 	C 	0.49400 0.33360 0.04160 0.02700
H 	H 	0.49770 0.32630 0.00590 0.02200
C 	C 	0.55050 0.40300 0.06650 -0.10200
C 	C 	0.61760 0.45650 0.03630 0.35700
C 	C 	0.53760 0.41450 0.11860 -0.07900
H 	H 	0.56760 0.46320 0.13600 0.03700
C 	C 	0.48250 0.35680 0.14530 0.13800
C 	C 	0.42120 0.32700 0.22960 -0.00700
H 	H 	0.42850 0.26120 0.22450 0.02400
H 	H 	0.35610 0.34340 0.22080 0.03300
C 	C 	0.85300 0.26700 0.61500 0.43200
C 	C 	0.94240 0.22810 0.64170 -0.06800
C 	C 	0.95720 0.23410 0.69430 -0.05300
H 	H 	0.91060 0.25960 0.71440 0.06600
C 	C 	0.04200 0.20200 0.71870 0.04700
C 	C 	0.10440 0.15440 0.68930 -0.12700
H 	H 	0.15790 0.12860 0.70550 0.06800
C 	C 	0.09050 0.14340 0.63670 0.06700
C 	C 	0.00690 0.18110 0.61340 -0.06400
H 	H 	0.99540 0.17370 0.57800 0.06700
C 	C 	0.05940 0.20330 0.77620 -0.01400
H 	H 	0.04670 0.14290 0.79050 0.02700
H 	H 	0.12500 0.21860 0.78440 0.00700
C 	C 	0.00220 0.28060 0.85060 0.18100
C 	C 	0.93930 0.34580 0.87160 -0.14800
H 	H 	0.90070 0.38190 0.84990 0.09900
C 	C 	0.93630 0.35450 0.92300 0.00200
C 	C 	0.86690 0.42400 0.94530 0.25800
C 	C 	0.99700 0.30280 0.95550 -0.04200
H 	H 	0.99430 0.30980 0.99130 0.06700
C 	C 	0.05890 0.24360 0.93630 -0.05700
C 	C 	0.12070 0.18500 0.97160 0.34700
C 	C 	0.06470 0.23590 0.88320 -0.13200
H 	H 	0.11190 0.19970 0.86950 0.04000
C 	C 	0.40330 0.16410 0.58920 -0.09600
H 	H 	0.40840 0.20640 0.61620 0.07400
C 	C 	0.47910 0.15190 0.55550 -0.07300
C 	C 	0.56730 0.20960 0.56370 0.38500
C 	C 	0.46830 0.09070 0.51370 0.00500
H 	H 	0.51550 0.08540 0.48980 0.04200
C 	C 	0.38810 0.03890 0.50840 -0.08700
C 	C 	0.37850 0.97530 0.46490 0.32100
C 	C 	0.31270 0.04780 0.54230 -0.10200
H 	H 	0.25880 0.01150 0.53830 0.06800
C 	C 	0.32150 0.11240 0.58160 0.15100
C 	C 	0.15830 0.09080 0.60470 -0.04900
H 	H 	0.15880 0.02620 0.61420 0.04500
H 	H 	0.14060 0.09600 0.56810 0.05000
Cd	Cd	0.16287 0.70975 0.62415 1.19200
Cd	Cd	0.25017 0.79244 0.49974 1.24700
Cd	Cd	0.33675 0.87456 0.37526 1.19400
Cd	Cd	0.75331 0.55431 0.98147 1.23700
Cd	Cd	0.67175 0.66586 0.08857 1.15900
O 	O 	0.29460 0.77820 0.64580 -0.47000
O 	O 	0.34470 0.82590 0.56850 -0.42500
O 	O 	0.80000 0.15970 0.46020 -0.51800
O 	O 	0.93750 0.11560 0.43110 -0.40700
O 	O 	0.12670 0.87870 0.52890 -0.41600
O 	O 	0.07310 0.82940 0.60440 -0.46500
O 	O 	0.66980 0.65270 0.93330 -0.44800
O 	O 	0.61850 0.70280 0.00710 -0.51400
O 	O 	0.37620 0.94670 0.01080 -0.38900
O 	O 	0.33210 0.01640 0.93980 -0.54600
O 	O 	0.15430 0.76040 0.43050 -0.47100
O 	O 	0.20270 0.80270 0.35450 -0.48800
O 	O 	0.18120 0.97420 0.08650 -0.34900
O 	O 	0.13490 0.93650 0.00640 -0.34100
O 	O 	0.89090 0.68090 0.98330 -0.35300
O 	O 	0.81450 0.63900 0.05050 -0.53500
O 	O 	0.42900 0.75800 0.39630 -0.46700
O 	O 	0.37280 0.70700 0.47020 -0.43100
O 	O 	0.56330 0.47200 0.57060 -0.39000
O 	O 	0.69770 0.42140 0.54110 -0.49600
O 	O 	0.75360 0.95320 0.61650 -0.22300
O 	O 	0.51890 0.87430 0.80160 -0.21700
O 	O 	0.00230 0.77170 0.20120 -0.22600
O 	O 	0.74910 0.63240 0.38450 -0.21000
C 	C 	0.35500 0.81570 0.61710 0.35800
C 	C 	0.44570 0.84660 0.64260 -0.05000
C 	C 	0.46840 0.82350 0.69270 -0.06100
H 	H 	0.42630 0.78900 0.71150 0.05800
C 	C 	0.55520 0.85130 0.71620 0.05000
C 	C 	0.61420 0.90650 0.68780 -0.11200
H 	H 	0.67010 0.92850 0.70340 0.08300
C 	C 	0.59100 0.93010 0.63530 0.05800
C 	C 	0.50860 0.89920 0.61350 -0.06900
H 	H 	0.49320 0.91280 0.57900 0.07500
C 	C 	0.65990 0.98750 0.60520 0.01200
H 	H 	0.64490 0.98290 0.56830 0.04200
H 	H 	0.65570 0.05170 0.61530 0.01800
C 	C 	0.82350 0.97440 0.58220 0.19900
C 	C 	0.81470 0.03630 0.54310 -0.14900
H 	H 	0.75930 0.07060 0.53900 0.08900
C 	C 	0.88710 0.04940 0.50890 -0.08100
C 	C 	0.87400 0.11350 0.46460 0.32900
C 	C 	0.96870 0.99540 0.51600 0.06100
H 	H 	0.01720 0.00080 0.49290 0.01300
C 	C 	0.97820 0.93350 0.55770 -0.06700
C 	C 	0.06670 0.87420 0.56390 0.38000
C 	C 	0.90590 0.92480 0.58920 -0.10900
H 	H 	0.91160 0.88390 0.61690 0.08700
C 	C 	0.56900 0.78920 0.87860 -0.08900
H 	H 	0.60660 0.75070 0.85930 0.07400
C 	C 	0.56550 0.77710 0.93240 -0.09800
C 	C 	0.62170 0.70370 0.95940 0.41200
C 	C 	0.50600 0.83360 0.95840 0.03100
H 	H 	0.50230 0.82630 0.99410 0.02300
C 	C 	0.44950 0.90300 0.93350 -0.10600
C 	C 	0.38240 0.95650 0.96370 0.38300
C 	C 	0.46240 0.91450 0.88140 -0.07400
H 	H 	0.43240 0.96320 0.86400 0.04200
C 	C 	0.51750 0.85680 0.85470 0.13800
C 	C 	0.57880 0.82700 0.77040 -0.01000
H 	H 	0.57150 0.76120 0.77550 0.02800
H 	H 	0.64390 0.84340 0.77920 0.03600
C 	C 	0.14700 0.76700 0.38500 0.43000
C 	C 	0.05760 0.72810 0.35830 -0.05600
C 	C 	0.04280 0.73410 0.30570 -0.05700
H 	H 	0.08940 0.75960 0.28560 0.07100
C 	C 	0.95800 0.70200 0.28130 0.05600
C 	C 	0.89560 0.65440 0.31070 -0.13500
H 	H 	0.84210 0.62860 0.29450 0.07400
C 	C 	0.90950 0.64340 0.36330 0.08000
C 	C 	0.99310 0.68110 0.38660 -0.07600
H 	H 	0.00460 0.67370 0.42200 0.07400
C 	C 	0.94060 0.70330 0.22380 -0.02400
H 	H 	0.95330 0.64290 0.20950 0.03300
H 	H 	0.87500 0.71860 0.21560 0.01300
C 	C 	0.99780 0.78060 0.14940 0.17400
C 	C 	0.06070 0.84580 0.12840 -0.14100
H 	H 	0.09930 0.88190 0.15010 0.10000
C 	C 	0.06370 0.85450 0.07700 0.00300
C 	C 	0.13310 0.92400 0.05470 0.25800
C 	C 	0.00300 0.80280 0.04450 -0.03600
H 	H 	0.00570 0.80980 0.00870 0.07000
C 	C 	0.94110 0.74360 0.06370 -0.05900
C 	C 	0.87930 0.68500 0.02840 0.34800
C 	C 	0.93530 0.73590 0.11680 -0.12600
H 	H 	0.88810 0.69970 0.13050 0.04000
C 	C 	0.59670 0.66410 0.41080 -0.10600
H 	H 	0.59160 0.70640 0.38380 0.08100
C 	C 	0.52090 0.65190 0.44450 -0.05800
C 	C 	0.43270 0.70960 0.43630 0.38100
C 	C 	0.53170 0.59070 0.48630 -0.01500
H 	H 	0.48450 0.58540 0.51020 0.05500
C 	C 	0.61190 0.53890 0.49160 -0.04600
C 	C 	0.62150 0.47530 0.53510 0.29000
C 	C 	0.68730 0.54780 0.45770 -0.12100
H 	H 	0.74120 0.51150 0.46170 0.08300
C 	C 	0.67850 0.61240 0.41840 0.16500
C 	C 	0.84170 0.59080 0.39530 -0.05900
H 	H 	0.84120 0.52620 0.38580 0.05500
H 	H 	0.85940 0.59600 0.43190 0.05600
