data_crystal

_cell_length_a 5.52860
_cell_length_b 13.31400
_cell_length_c 20.59900
_cell_angle_alpha 90.00000
_cell_angle_beta  95.24400
_cell_angle_gamma 90.00000

_symmetry_space_group_name_	'P 1'
_symmetry_space_group_name_H-M	'P 1'

loop_
_symmetry_equiv_pos_as_xyz
  x,y,z

loop_
_atom_site_label
_atom_site_type_symbol
_atom_site_fract_x
_atom_site_fract_y
_atom_site_fract_z
_atom_site_charge
Dy	Dy	0.87235 0.63267 0.52782 1.59500
Dy	Dy	0.12765 0.13267 0.97218 1.58700
Dy	Dy	0.12765 0.36733 0.47218 1.59600
Dy	Dy	0.87235 0.86733 0.02782 1.58800
P 	P 	0.58990 0.52090 0.41395 0.48100
P 	P 	0.41010 0.02090 0.08605 0.48000
P 	P 	0.41010 0.47910 0.58605 0.48100
P 	P 	0.58990 0.97910 0.91395 0.48000
H 	H 	0.83490 0.58040 0.33660 0.07900
H 	H 	0.74080 0.47270 0.31710 0.10300
H 	H 	0.62250 0.72870 0.29830 0.04300
H 	H 	0.41440 0.69890 0.34180 0.04700
H 	H 	0.12490 0.70110 0.24880 0.05000
H 	H 	0.25330 0.80630 0.25490 0.04400
H 	H 	0.51530 0.75870 0.17530 0.07000
H 	H 	0.45170 0.59970 0.12190 0.02900
H 	H 	0.24820 0.57340 0.16770 0.04100
H 	H 	0.62550 0.49750 0.20980 0.04400
H 	H 	0.74840 0.60410 0.21500 0.04900
H 	H 	0.16510 0.08040 0.16340 0.08000
H 	H 	0.25920 0.97270 0.18290 0.10500
H 	H 	0.37750 0.22870 0.20170 0.04400
H 	H 	0.58560 0.19890 0.15820 0.04800
H 	H 	0.87510 0.20110 0.25120 0.05000
H 	H 	0.74670 0.30630 0.24510 0.04400
H 	H 	0.48470 0.25870 0.32470 0.07100
H 	H 	0.54830 0.09970 0.37810 0.02800
H 	H 	0.75180 0.07340 0.33230 0.04000
H 	H 	0.37450 0.99750 0.29020 0.04500
H 	H 	0.25160 0.10410 0.28500 0.04900
H 	H 	0.16510 0.41960 0.66340 0.07900
H 	H 	0.25920 0.52730 0.68290 0.10300
H 	H 	0.37750 0.27130 0.70170 0.04300
H 	H 	0.58560 0.30110 0.65820 0.04700
H 	H 	0.87510 0.29890 0.75120 0.05000
H 	H 	0.74670 0.19370 0.74510 0.04400
H 	H 	0.48470 0.24130 0.82470 0.07000
H 	H 	0.54830 0.40030 0.87810 0.02900
H 	H 	0.75180 0.42660 0.83230 0.04100
H 	H 	0.37450 0.50250 0.79020 0.04400
H 	H 	0.25160 0.39590 0.78500 0.04900
H 	H 	0.83490 0.91960 0.83660 0.08000
H 	H 	0.74080 0.02730 0.81710 0.10500
H 	H 	0.62250 0.77130 0.79830 0.04400
H 	H 	0.41440 0.80110 0.84180 0.04800
H 	H 	0.12490 0.79890 0.74880 0.05000
H 	H 	0.25330 0.69370 0.75490 0.04400
H 	H 	0.51530 0.74130 0.67530 0.07100
H 	H 	0.45170 0.90030 0.62190 0.02800
H 	H 	0.24820 0.92660 0.66770 0.04000
H 	H 	0.62550 0.00250 0.70980 0.04500
H 	H 	0.74840 0.89590 0.71500 0.04900
C 	C 	0.69220 0.53770 0.33280 -0.22200
C 	C 	0.47100 0.69220 0.29880 -0.07500
C 	C 	0.27800 0.73560 0.24640 -0.06300
C 	C 	0.36100 0.72300 0.17790 -0.13200
C 	C 	0.40000 0.60940 0.16510 -0.05900
C 	C 	0.59700 0.56820 0.21750 -0.07700
C 	C 	0.17040 0.76420 0.12510 0.34200
C 	C 	0.30780 0.03770 0.16720 -0.22500
C 	C 	0.52900 0.19220 0.20120 -0.07600
C 	C 	0.72200 0.23560 0.25360 -0.06100
C 	C 	0.63900 0.22300 0.32210 -0.13300
C 	C 	0.60000 0.10940 0.33490 -0.05700
C 	C 	0.40300 0.06820 0.28250 -0.07900
C 	C 	0.82960 0.26420 0.37490 0.34300
C 	C 	0.30780 0.46230 0.66720 -0.22200
C 	C 	0.52900 0.30780 0.70120 -0.07500
C 	C 	0.72200 0.26440 0.75360 -0.06300
C 	C 	0.63900 0.27700 0.82210 -0.13200
C 	C 	0.60000 0.39060 0.83490 -0.05900
C 	C 	0.40300 0.43180 0.78250 -0.07700
C 	C 	0.82960 0.23580 0.87490 0.34200
C 	C 	0.69220 0.96230 0.83280 -0.22500
C 	C 	0.47100 0.80780 0.79880 -0.07600
C 	C 	0.27800 0.76440 0.74640 -0.06100
C 	C 	0.36100 0.77700 0.67790 -0.13300
C 	C 	0.40000 0.89060 0.66510 -0.05700
C 	C 	0.59700 0.93180 0.71750 -0.07900
C 	C 	0.17040 0.73580 0.62510 0.34300
N 	N 	0.50950 0.58220 0.28340 -0.06700
N 	N 	0.49050 0.08220 0.21660 -0.06600
N 	N 	0.49050 0.41780 0.71660 -0.06700
N 	N 	0.50950 0.91780 0.78340 -0.06600
O 	O 	0.54080 0.62300 0.44440 -0.45500
O 	O 	0.82240 0.48140 0.45430 -0.55700
O 	O 	0.37600 0.45020 0.40910 -0.45100
O 	O 	0.00200 0.81920 0.14090 -0.40400
O 	O 	0.19780 0.74880 0.06740 -0.45300
O 	O 	0.45920 0.12300 0.05560 -0.45300
O 	O 	0.17760 0.98140 0.04570 -0.55300
O 	O 	0.62400 0.95020 0.09090 -0.45200
O 	O 	0.99800 0.31920 0.35910 -0.40700
O 	O 	0.80220 0.24880 0.43260 -0.45500
O 	O 	0.45920 0.37700 0.55560 -0.45500
O 	O 	0.17760 0.51860 0.54570 -0.55700
O 	O 	0.62400 0.54980 0.59090 -0.45100
O 	O 	0.99800 0.18080 0.85910 -0.40400
O 	O 	0.80220 0.25120 0.93260 -0.45300
O 	O 	0.54080 0.87700 0.94440 -0.45300
O 	O 	0.82240 0.01860 0.95430 -0.55300
O 	O 	0.37600 0.04980 0.90910 -0.45200
O 	O 	0.00200 0.68080 0.64090 -0.40700
O 	O 	0.19780 0.75120 0.56740 -0.45500
