data_crystal

_cell_length_a 10.82850
_cell_length_b 11.19330
_cell_length_c 14.79900
_cell_angle_alpha 90.00000
_cell_angle_beta  90.00000
_cell_angle_gamma 90.00000

_symmetry_space_group_name_	'P 1'
_symmetry_space_group_name_H-M	'P 1'

loop_
_symmetry_equiv_pos_as_xyz
  x,y,z

loop_
_atom_site_label
_atom_site_type_symbol
_atom_site_fract_x
_atom_site_fract_y
_atom_site_fract_z
_atom_site_charge
Zn	Zn	0.34279 0.81577 0.15840 1.18800
O 	O 	0.26005 0.24718 0.56238 -0.47400
O 	O 	0.10602 0.37047 0.52490 -0.31800
O 	O 	0.40304 0.70387 0.24790 -0.47200
O 	O 	0.21025 0.69836 0.29872 -0.33400
N 	N 	0.49701 0.39689 0.37997 -0.27600
C 	C 	0.46436 0.49909 0.33816 0.07400
H 	H 	0.52200 0.53630 0.29880 -0.01800
C 	C 	0.41604 0.34601 0.43704 0.07800
H 	H 	0.43860 0.27390 0.46670 0.01500
C 	C 	0.30105 0.39490 0.45414 -0.12600
C 	C 	0.26720 0.49950 0.40980 0.06200
H 	H 	0.18850 0.53450 0.42010 0.03400
C 	C 	0.35020 0.55179 0.35045 -0.12700
C 	C 	0.21200 0.33560 0.51874 0.34600
C 	C 	0.31580 0.66090 0.29602 0.34700
Zn	Zn	0.15721 0.18423 0.65840 1.18800
O 	O 	0.23995 0.75282 0.06238 -0.47300
O 	O 	0.39398 0.62953 0.02490 -0.31800
O 	O 	0.09696 0.29613 0.74790 -0.47200
O 	O 	0.28975 0.30164 0.79872 -0.33400
N 	N 	0.00299 0.60311 0.87997 -0.27600
C 	C 	0.03564 0.50091 0.83816 0.07500
H 	H 	0.97800 0.46370 0.79880 -0.01900
C 	C 	0.08396 0.65399 0.93704 0.07800
H 	H 	0.06140 0.72610 0.96670 0.01500
C 	C 	0.19895 0.60510 0.95414 -0.12600
C 	C 	0.23280 0.50050 0.90980 0.06200
H 	H 	0.31150 0.46550 0.92010 0.03300
C 	C 	0.14980 0.44821 0.85045 -0.12700
C 	C 	0.28800 0.66440 0.01874 0.34600
C 	C 	0.18420 0.33910 0.79602 0.34700
Zn	Zn	0.65721 0.31577 0.34160 1.18900
O 	O 	0.73995 0.74718 0.93762 -0.47300
O 	O 	0.89398 0.87047 0.97510 -0.31800
O 	O 	0.59696 0.20387 0.25210 -0.47100
O 	O 	0.78975 0.19836 0.20128 -0.33400
N 	N 	0.50299 0.89689 0.12003 -0.27500
C 	C 	0.53564 0.99909 0.16184 0.07100
H 	H 	0.47800 0.03630 0.20120 -0.01700
C 	C 	0.58396 0.84601 0.06296 0.07700
H 	H 	0.56140 0.77390 0.03330 0.01500
C 	C 	0.69895 0.89490 0.04586 -0.12500
C 	C 	0.73280 0.99950 0.09020 0.05800
H 	H 	0.81150 0.03450 0.07990 0.03600
C 	C 	0.64980 0.05179 0.14955 -0.12300
C 	C 	0.78800 0.83560 0.98126 0.34600
C 	C 	0.68420 0.16090 0.20398 0.34600
Zn	Zn	0.84279 0.68423 0.84160 1.18800
O 	O 	0.76005 0.25282 0.43762 -0.47300
O 	O 	0.60602 0.12953 0.47510 -0.31800
O 	O 	0.90304 0.79613 0.75210 -0.47200
O 	O 	0.71025 0.80164 0.70128 -0.33400
N 	N 	0.99701 0.10311 0.62003 -0.27500
C 	C 	0.96436 0.00091 0.66184 0.07100
H 	H 	0.02200 0.96370 0.70120 -0.01600
C 	C 	0.91604 0.15399 0.56296 0.07800
H 	H 	0.93860 0.22610 0.53330 0.01500
C 	C 	0.80105 0.10510 0.54586 -0.12600
C 	C 	0.76720 0.00050 0.59020 0.06200
H 	H 	0.68850 0.96550 0.57990 0.03400
C 	C 	0.85020 0.94821 0.64955 -0.12600
C 	C 	0.71200 0.16440 0.48126 0.34600
C 	C 	0.81580 0.83910 0.70398 0.34600
