data_crystal

_cell_length_a 20.16160
_cell_length_b 20.16160
_cell_length_c 20.16160
_cell_angle_alpha 90.00000
_cell_angle_beta  90.00000
_cell_angle_gamma 90.00000

_symmetry_space_group_name_	'P 1'
_symmetry_space_group_name_H-M	'P 1'

loop_
_symmetry_equiv_pos_as_xyz
  x,y,z

loop_
_atom_site_label
_atom_site_type_symbol
_atom_site_fract_x
_atom_site_fract_y
_atom_site_fract_z
_atom_site_charge
Zn	Zn	0.30416 0.80887 0.19746 1.27600
Zn	Zn	0.30281 0.80382 0.80799 1.14900
C 	C 	0.20980 0.70720 0.96480 0.14800
H 	H 	0.18410 0.67120 0.98100 -0.04200
C 	C 	0.24030 0.75290 0.00290 -0.28200
C 	C 	0.23610 0.76350 0.07490 0.65000
C 	C 	0.29230 0.77770 0.96740 0.11500
H 	H 	0.33390 0.79400 0.98230 -0.03200
C 	C 	0.22890 0.94700 0.70910 0.47300
H 	H 	0.21330 0.95050 0.66480 -0.16000
C 	C 	0.24800 0.00210 0.73640 -0.43000
C 	C 	0.22080 0.07580 0.73130 1.09100
N 	N 	0.26670 0.77250 0.90160 -0.26200
N 	N 	0.22170 0.72070 0.89780 -0.29800
N 	N 	0.22820 0.89840 0.72980 -0.39600
N 	N 	0.27840 0.89380 0.78000 -0.26100
O 	O 	0.27550 0.78970 0.10710 -0.58800
O 	O 	0.20420 0.72650 0.10740 -0.58300
O 	O 	0.20820 0.10370 0.70190 -1.02000
O 	O 	0.21870 0.11320 0.79050 -0.39200
Zn	Zn	0.19584 0.19113 0.69746 1.27500
Zn	Zn	0.19719 0.19618 0.30799 1.14800
C 	C 	0.29020 0.29280 0.46480 0.14700
H 	H 	0.31590 0.32880 0.48100 -0.04200
C 	C 	0.25970 0.24710 0.50290 -0.28200
C 	C 	0.26390 0.23650 0.57490 0.65000
C 	C 	0.20770 0.22230 0.46740 0.11500
H 	H 	0.16610 0.20600 0.48230 -0.03200
C 	C 	0.27110 0.05300 0.20910 0.47200
H 	H 	0.28670 0.04950 0.16480 -0.16000
C 	C 	0.25200 0.99790 0.23640 -0.43000
C 	C 	0.27920 0.92420 0.23130 1.09100
N 	N 	0.23330 0.22750 0.40160 -0.26200
N 	N 	0.27830 0.27930 0.39780 -0.29800
N 	N 	0.27180 0.10160 0.22980 -0.39600
N 	N 	0.22160 0.10620 0.28000 -0.26200
O 	O 	0.22450 0.21030 0.60710 -0.58800
O 	O 	0.29580 0.27350 0.60740 -0.58300
O 	O 	0.29180 0.89630 0.20190 -1.01900
O 	O 	0.28130 0.88680 0.29050 -0.39200
Zn	Zn	0.69584 0.30887 0.30254 1.27500
Zn	Zn	0.69719 0.30382 0.69201 1.14800
C 	C 	0.79020 0.20720 0.53520 0.14700
H 	H 	0.81590 0.17120 0.51900 -0.04200
C 	C 	0.75970 0.25290 0.49710 -0.28200
C 	C 	0.76390 0.26350 0.42510 0.65000
C 	C 	0.70770 0.27770 0.53260 0.11500
H 	H 	0.66610 0.29400 0.51770 -0.03200
C 	C 	0.77110 0.44700 0.79090 0.47200
H 	H 	0.78670 0.45050 0.83520 -0.16000
C 	C 	0.75200 0.50210 0.76360 -0.43000
C 	C 	0.77920 0.57580 0.76870 1.09100
N 	N 	0.73330 0.27250 0.59840 -0.26200
N 	N 	0.77830 0.22070 0.60220 -0.29800
N 	N 	0.77180 0.39840 0.77020 -0.39600
N 	N 	0.72160 0.39380 0.72000 -0.26100
O 	O 	0.72450 0.28970 0.39290 -0.58800
O 	O 	0.79580 0.22650 0.39260 -0.58300
O 	O 	0.79180 0.60370 0.79810 -1.01900
O 	O 	0.78130 0.61320 0.70950 -0.39200
Zn	Zn	0.80416 0.69113 0.80254 1.27500
Zn	Zn	0.80281 0.69618 0.19201 1.14800
C 	C 	0.70980 0.79280 0.03520 0.14800
H 	H 	0.68410 0.82880 0.01900 -0.04200
C 	C 	0.74030 0.74710 0.99710 -0.28200
C 	C 	0.73610 0.73650 0.92510 0.65000
C 	C 	0.79230 0.72230 0.03260 0.11600
H 	H 	0.83390 0.70600 0.01770 -0.03200
C 	C 	0.72890 0.55300 0.29090 0.47200
H 	H 	0.71330 0.54950 0.33520 -0.16000
C 	C 	0.74800 0.49790 0.26360 -0.43000
C 	C 	0.72080 0.42420 0.26870 1.09100
N 	N 	0.76670 0.72750 0.09840 -0.26200
N 	N 	0.72170 0.77930 0.10220 -0.29800
N 	N 	0.72820 0.60160 0.27020 -0.39600
N 	N 	0.77840 0.60620 0.22000 -0.26100
O 	O 	0.77550 0.71030 0.89290 -0.58800
O 	O 	0.70420 0.77350 0.89260 -0.58300
O 	O 	0.70820 0.39630 0.29810 -1.01900
O 	O 	0.71870 0.38680 0.20950 -0.39200
Zn	Zn	0.19746 0.30416 0.80887 1.27500
Zn	Zn	0.80799 0.30281 0.80382 1.14800
C 	C 	0.96480 0.20980 0.70720 0.14800
H 	H 	0.98100 0.18410 0.67120 -0.04200
C 	C 	0.00290 0.24030 0.75290 -0.28200
C 	C 	0.07490 0.23610 0.76350 0.65000
C 	C 	0.96740 0.29230 0.77770 0.11500
H 	H 	0.98230 0.33390 0.79400 -0.03200
C 	C 	0.70910 0.22890 0.94700 0.47300
H 	H 	0.66480 0.21330 0.95050 -0.16000
C 	C 	0.73640 0.24800 0.00210 -0.43000
C 	C 	0.73130 0.22080 0.07580 1.09100
N 	N 	0.90160 0.26670 0.77250 -0.26200
N 	N 	0.89780 0.22170 0.72070 -0.29800
N 	N 	0.72980 0.22820 0.89840 -0.39600
N 	N 	0.78000 0.27840 0.89380 -0.26100
O 	O 	0.10710 0.27550 0.78970 -0.58800
O 	O 	0.10740 0.20420 0.72650 -0.58300
O 	O 	0.70190 0.20820 0.10370 -1.02000
O 	O 	0.79050 0.21870 0.11320 -0.39200
Zn	Zn	0.69746 0.19584 0.19113 1.27500
Zn	Zn	0.30799 0.19719 0.19618 1.14800
C 	C 	0.46480 0.29020 0.29280 0.14700
H 	H 	0.48100 0.31590 0.32880 -0.04200
C 	C 	0.50290 0.25970 0.24710 -0.28200
C 	C 	0.57490 0.26390 0.23650 0.65000
C 	C 	0.46740 0.20770 0.22230 0.11500
H 	H 	0.48230 0.16610 0.20600 -0.03200
C 	C 	0.20910 0.27110 0.05300 0.47200
H 	H 	0.16480 0.28670 0.04950 -0.16000
C 	C 	0.23640 0.25200 0.99790 -0.43000
C 	C 	0.23130 0.27920 0.92420 1.09100
N 	N 	0.40160 0.23330 0.22750 -0.26200
N 	N 	0.39780 0.27830 0.27930 -0.29800
N 	N 	0.22980 0.27180 0.10160 -0.39600
N 	N 	0.28000 0.22160 0.10620 -0.26200
O 	O 	0.60710 0.22450 0.21030 -0.58800
O 	O 	0.60740 0.29580 0.27350 -0.58300
O 	O 	0.20190 0.29180 0.89630 -1.01900
O 	O 	0.29050 0.28130 0.88680 -0.39200
Zn	Zn	0.30254 0.69584 0.30887 1.27500
Zn	Zn	0.69201 0.69719 0.30382 1.14800
C 	C 	0.53520 0.79020 0.20720 0.14700
H 	H 	0.51900 0.81590 0.17120 -0.04200
C 	C 	0.49710 0.75970 0.25290 -0.28200
C 	C 	0.42510 0.76390 0.26350 0.65000
C 	C 	0.53260 0.70770 0.27770 0.11500
H 	H 	0.51770 0.66610 0.29400 -0.03200
C 	C 	0.79090 0.77110 0.44700 0.47200
H 	H 	0.83520 0.78670 0.45050 -0.16000
C 	C 	0.76360 0.75200 0.50210 -0.43000
C 	C 	0.76870 0.77920 0.57580 1.09100
N 	N 	0.59840 0.73330 0.27250 -0.26200
N 	N 	0.60220 0.77830 0.22070 -0.29800
N 	N 	0.77020 0.77180 0.39840 -0.39600
N 	N 	0.72000 0.72160 0.39380 -0.26100
O 	O 	0.39290 0.72450 0.28970 -0.58800
O 	O 	0.39260 0.79580 0.22650 -0.58300
O 	O 	0.79810 0.79180 0.60370 -1.01900
O 	O 	0.70950 0.78130 0.61320 -0.39200
Zn	Zn	0.80254 0.80416 0.69113 1.27500
Zn	Zn	0.19201 0.80281 0.69618 1.14800
C 	C 	0.03520 0.70980 0.79280 0.14800
H 	H 	0.01900 0.68410 0.82880 -0.04200
C 	C 	0.99710 0.74030 0.74710 -0.28200
C 	C 	0.92510 0.73610 0.73650 0.65000
C 	C 	0.03260 0.79230 0.72230 0.11600
H 	H 	0.01770 0.83390 0.70600 -0.03200
C 	C 	0.29090 0.72890 0.55300 0.47200
H 	H 	0.33520 0.71330 0.54950 -0.16000
C 	C 	0.26360 0.74800 0.49790 -0.43000
C 	C 	0.26870 0.72080 0.42420 1.09100
N 	N 	0.09840 0.76670 0.72750 -0.26200
N 	N 	0.10220 0.72170 0.77930 -0.29800
N 	N 	0.27020 0.72820 0.60160 -0.39600
N 	N 	0.22000 0.77840 0.60620 -0.26100
O 	O 	0.89290 0.77550 0.71030 -0.58800
O 	O 	0.89260 0.70420 0.77350 -0.58300
O 	O 	0.29810 0.70820 0.39630 -1.01900
O 	O 	0.20950 0.71870 0.38680 -0.39200
Zn	Zn	0.80887 0.19746 0.30416 1.27500
Zn	Zn	0.80382 0.80799 0.30281 1.14800
C 	C 	0.70720 0.96480 0.20980 0.14800
H 	H 	0.67120 0.98100 0.18410 -0.04200
C 	C 	0.75290 0.00290 0.24030 -0.28200
C 	C 	0.76350 0.07490 0.23610 0.65000
C 	C 	0.77770 0.96740 0.29230 0.11500
H 	H 	0.79400 0.98230 0.33390 -0.03200
C 	C 	0.94700 0.70910 0.22890 0.47300
H 	H 	0.95050 0.66480 0.21330 -0.16000
C 	C 	0.00210 0.73640 0.24800 -0.43000
C 	C 	0.07580 0.73130 0.22080 1.09100
N 	N 	0.77250 0.90160 0.26670 -0.26200
N 	N 	0.72070 0.89780 0.22170 -0.29800
N 	N 	0.89840 0.72980 0.22820 -0.39600
N 	N 	0.89380 0.78000 0.27840 -0.26100
O 	O 	0.78970 0.10710 0.27550 -0.58800
O 	O 	0.72650 0.10740 0.20420 -0.58300
O 	O 	0.10370 0.70190 0.20820 -1.02000
O 	O 	0.11320 0.79050 0.21870 -0.39200
Zn	Zn	0.19113 0.69746 0.19584 1.27500
Zn	Zn	0.19618 0.30799 0.19719 1.14800
C 	C 	0.29280 0.46480 0.29020 0.14700
H 	H 	0.32880 0.48100 0.31590 -0.04200
C 	C 	0.24710 0.50290 0.25970 -0.28200
C 	C 	0.23650 0.57490 0.26390 0.65000
C 	C 	0.22230 0.46740 0.20770 0.11500
H 	H 	0.20600 0.48230 0.16610 -0.03200
C 	C 	0.05300 0.20910 0.27110 0.47200
H 	H 	0.04950 0.16480 0.28670 -0.16000
C 	C 	0.99790 0.23640 0.25200 -0.43000
C 	C 	0.92420 0.23130 0.27920 1.09100
N 	N 	0.22750 0.40160 0.23330 -0.26200
N 	N 	0.27930 0.39780 0.27830 -0.29800
N 	N 	0.10160 0.22980 0.27180 -0.39600
N 	N 	0.10620 0.28000 0.22160 -0.26200
O 	O 	0.21030 0.60710 0.22450 -0.58800
O 	O 	0.27350 0.60740 0.29580 -0.58300
O 	O 	0.89630 0.20190 0.29180 -1.01900
O 	O 	0.88680 0.29050 0.28130 -0.39200
Zn	Zn	0.30887 0.30254 0.69584 1.27500
Zn	Zn	0.30382 0.69201 0.69719 1.14800
C 	C 	0.20720 0.53520 0.79020 0.14700
H 	H 	0.17120 0.51900 0.81590 -0.04200
C 	C 	0.25290 0.49710 0.75970 -0.28200
C 	C 	0.26350 0.42510 0.76390 0.65000
C 	C 	0.27770 0.53260 0.70770 0.11500
H 	H 	0.29400 0.51770 0.66610 -0.03200
C 	C 	0.44700 0.79090 0.77110 0.47200
H 	H 	0.45050 0.83520 0.78670 -0.16000
C 	C 	0.50210 0.76360 0.75200 -0.43000
C 	C 	0.57580 0.76870 0.77920 1.09100
N 	N 	0.27250 0.59840 0.73330 -0.26200
N 	N 	0.22070 0.60220 0.77830 -0.29800
N 	N 	0.39840 0.77020 0.77180 -0.39600
N 	N 	0.39380 0.72000 0.72160 -0.26100
O 	O 	0.28970 0.39290 0.72450 -0.58800
O 	O 	0.22650 0.39260 0.79580 -0.58300
O 	O 	0.60370 0.79810 0.79180 -1.01900
O 	O 	0.61320 0.70950 0.78130 -0.39200
Zn	Zn	0.69113 0.80254 0.80416 1.27500
Zn	Zn	0.69618 0.19201 0.80281 1.14800
C 	C 	0.79280 0.03520 0.70980 0.14800
H 	H 	0.82880 0.01900 0.68410 -0.04200
C 	C 	0.74710 0.99710 0.74030 -0.28200
C 	C 	0.73650 0.92510 0.73610 0.65000
C 	C 	0.72230 0.03260 0.79230 0.11600
H 	H 	0.70600 0.01770 0.83390 -0.03200
C 	C 	0.55300 0.29090 0.72890 0.47200
H 	H 	0.54950 0.33520 0.71330 -0.16000
C 	C 	0.49790 0.26360 0.74800 -0.43000
C 	C 	0.42420 0.26870 0.72080 1.09100
N 	N 	0.72750 0.09840 0.76670 -0.26200
N 	N 	0.77930 0.10220 0.72170 -0.29800
N 	N 	0.60160 0.27020 0.72820 -0.39600
N 	N 	0.60620 0.22000 0.77840 -0.26100
O 	O 	0.71030 0.89290 0.77550 -0.58800
O 	O 	0.77350 0.89260 0.70420 -0.58300
O 	O 	0.39630 0.29810 0.70820 -1.01900
O 	O 	0.38680 0.20950 0.71870 -0.39200
Zn	Zn	0.18975 0.68975 0.81025 1.15400
O 	O 	0.24700 0.74700 0.75300 -0.98300
Zn	Zn	0.31025 0.31025 0.31025 1.15400
O 	O 	0.25300 0.25300 0.25300 -0.98300
Zn	Zn	0.81025 0.18975 0.68975 1.15400
O 	O 	0.75300 0.24700 0.74700 -0.98300
Zn	Zn	0.68975 0.81025 0.18975 1.15400
O 	O 	0.74700 0.75300 0.24700 -0.98300
O 	O 	0.24500 0.75500 0.25500 -0.63200
O 	O 	0.25500 0.24500 0.75500 -0.63200
O 	O 	0.75500 0.25500 0.24500 -0.63200
O 	O 	0.74500 0.74500 0.74500 -0.63200
