data_crystal

_cell_length_a 20.16190
_cell_length_b 20.16190
_cell_length_c 20.16190
_cell_angle_alpha 90.00000
_cell_angle_beta  90.00000
_cell_angle_gamma 90.00000

_symmetry_space_group_name_	'P 1'
_symmetry_space_group_name_H-M	'P 1'

loop_
_symmetry_equiv_pos_as_xyz
  x,y,z

loop_
_atom_site_label
_atom_site_type_symbol
_atom_site_fract_x
_atom_site_fract_y
_atom_site_fract_z
_atom_site_charge
N 	N 	0.27300 0.73740 0.10780 -0.29200
Zn	Zn	0.19008 0.80983 0.19582 1.15700
N 	N 	0.22307 0.77977 0.10224 -0.27500
C 	C 	0.29290 0.72150 0.04720 0.10500
N 	N 	0.20770 0.90080 0.21970 -0.36100
N 	N 	0.09860 0.79000 0.21940 -0.37800
C 	C 	0.21210 0.79000 0.03830 0.11000
H 	H 	0.32800 0.69190 0.03640 -0.06000
C 	C 	0.25520 0.75390 0.00420 -0.22700
C 	C 	0.21000 0.95970 0.21340 0.20000
C 	C 	0.29080 0.95850 0.28930 0.26400
H 	H 	0.17900 0.81820 0.02000 -0.06200
C 	C 	0.25770 0.73590 0.93270 0.24600
H 	H 	0.18640 0.98000 0.17800 -0.06000
C 	C 	0.24970 0.00270 0.26030 -0.30800
H 	H 	0.32990 0.97450 0.31010 -0.09300
O 	O 	0.25710 0.70360 0.89110 -0.59600
C 	C 	0.25060 0.08120 0.26420 0.59600
Zn	Zn	0.30404 0.69229 0.80918 1.19300
O 	O 	0.21795 0.10533 0.22000 -0.60100
O 	O 	0.29140 0.11150 0.29200 -0.70100
N 	N 	0.22700 0.26260 0.60780 -0.29100
Zn	Zn	0.30992 0.19017 0.69582 1.15800
N 	N 	0.27693 0.22023 0.60224 -0.27400
C 	C 	0.20710 0.27850 0.54720 0.10600
N 	N 	0.29230 0.09920 0.71970 -0.36000
N 	N 	0.40140 0.21000 0.71940 -0.37700
C 	C 	0.28790 0.21000 0.53830 0.11100
H 	H 	0.17200 0.30810 0.53640 -0.06000
C 	C 	0.24480 0.24610 0.50420 -0.22600
C 	C 	0.29000 0.04030 0.71340 0.20100
C 	C 	0.20920 0.04150 0.78930 0.26600
H 	H 	0.32100 0.18180 0.52000 -0.06200
C 	C 	0.24230 0.26410 0.43270 0.24600
H 	H 	0.31360 0.02000 0.67800 -0.06000
C 	C 	0.25030 0.99730 0.76030 -0.31000
H 	H 	0.17010 0.02550 0.81010 -0.09300
O 	O 	0.24290 0.29640 0.39110 -0.59500
C 	C 	0.24940 0.91880 0.76420 0.59700
Zn	Zn	0.19596 0.30771 0.30918 1.19300
O 	O 	0.28205 0.89467 0.72000 -0.60200
O 	O 	0.20860 0.88850 0.79200 -0.70100
N 	N 	0.72700 0.23740 0.39220 -0.29100
Zn	Zn	0.80992 0.30983 0.30418 1.15800
N 	N 	0.77693 0.27977 0.39776 -0.27400
C 	C 	0.70710 0.22150 0.45280 0.10600
N 	N 	0.79230 0.40080 0.28030 -0.36000
N 	N 	0.90140 0.29000 0.28060 -0.37700
C 	C 	0.78790 0.29000 0.46170 0.11100
H 	H 	0.67200 0.19190 0.46360 -0.06000
C 	C 	0.74480 0.25390 0.49580 -0.22600
C 	C 	0.79000 0.45970 0.28660 0.20100
C 	C 	0.70920 0.45850 0.21070 0.26600
H 	H 	0.82100 0.31820 0.48000 -0.06200
C 	C 	0.74230 0.23590 0.56730 0.24600
H 	H 	0.81360 0.48000 0.32200 -0.06000
C 	C 	0.75030 0.50270 0.23970 -0.31000
H 	H 	0.67010 0.47450 0.18990 -0.09300
O 	O 	0.74290 0.20360 0.60890 -0.59600
C 	C 	0.74940 0.58120 0.23580 0.59700
Zn	Zn	0.69596 0.19229 0.69082 1.19300
O 	O 	0.78205 0.60533 0.28000 -0.60100
O 	O 	0.70860 0.61150 0.20800 -0.70100
N 	N 	0.77300 0.76260 0.89220 -0.29100
Zn	Zn	0.69008 0.69017 0.80418 1.15800
N 	N 	0.72307 0.72023 0.89776 -0.27400
C 	C 	0.79290 0.77850 0.95280 0.10600
N 	N 	0.70770 0.59920 0.78030 -0.36000
N 	N 	0.59860 0.71000 0.78060 -0.37700
C 	C 	0.71210 0.71000 0.96170 0.11000
H 	H 	0.82800 0.80810 0.96360 -0.06000
C 	C 	0.75520 0.74610 0.99580 -0.22500
C 	C 	0.71000 0.54030 0.78660 0.20100
C 	C 	0.79080 0.54150 0.71070 0.26600
H 	H 	0.67900 0.68180 0.98000 -0.06200
C 	C 	0.75770 0.76410 0.06730 0.24400
H 	H 	0.68640 0.52000 0.82200 -0.06000
C 	C 	0.74970 0.49730 0.73970 -0.30900
H 	H 	0.82990 0.52550 0.68990 -0.09300
O 	O 	0.75710 0.79640 0.10890 -0.59500
C 	C 	0.75060 0.41880 0.73580 0.59700
Zn	Zn	0.80404 0.80771 0.19082 1.19300
O 	O 	0.71795 0.39467 0.78000 -0.60100
O 	O 	0.79140 0.38850 0.70800 -0.70100
N 	N 	0.10780 0.27300 0.73740 -0.29100
Zn	Zn	0.19582 0.19008 0.80983 1.15800
N 	N 	0.10224 0.22307 0.77977 -0.27400
C 	C 	0.04720 0.29290 0.72150 0.10600
N 	N 	0.21970 0.20770 0.90080 -0.36000
N 	N 	0.21940 0.09860 0.79000 -0.37700
C 	C 	0.03830 0.21210 0.79000 0.11100
H 	H 	0.03640 0.32800 0.69190 -0.06000
C 	C 	0.00420 0.25520 0.75390 -0.22700
C 	C 	0.21340 0.21000 0.95970 0.20000
C 	C 	0.28930 0.29080 0.95850 0.26400
H 	H 	0.02000 0.17900 0.81820 -0.06200
C 	C 	0.93270 0.25770 0.73590 0.24600
H 	H 	0.17800 0.18640 0.98000 -0.06000
C 	C 	0.26030 0.24970 0.00270 -0.30800
H 	H 	0.31010 0.32990 0.97450 -0.09300
O 	O 	0.89110 0.25710 0.70360 -0.59600
C 	C 	0.26420 0.25060 0.08120 0.59600
Zn	Zn	0.80918 0.30404 0.69229 1.19300
O 	O 	0.22000 0.21795 0.10533 -0.60100
O 	O 	0.29200 0.29140 0.11150 -0.70100
N 	N 	0.60780 0.22700 0.26260 -0.29100
Zn	Zn	0.69582 0.30992 0.19017 1.15800
N 	N 	0.60224 0.27693 0.22023 -0.27400
C 	C 	0.54720 0.20710 0.27850 0.10600
N 	N 	0.71970 0.29230 0.09920 -0.36000
N 	N 	0.71940 0.40140 0.21000 -0.37700
C 	C 	0.53830 0.28790 0.21000 0.11100
H 	H 	0.53640 0.17200 0.30810 -0.06000
C 	C 	0.50420 0.24480 0.24610 -0.22600
C 	C 	0.71340 0.29000 0.04030 0.20100
C 	C 	0.78930 0.20920 0.04150 0.26600
H 	H 	0.52000 0.32100 0.18180 -0.06200
C 	C 	0.43270 0.24230 0.26410 0.24600
H 	H 	0.67800 0.31360 0.02000 -0.06000
C 	C 	0.76030 0.25030 0.99730 -0.31000
H 	H 	0.81010 0.17010 0.02550 -0.09300
O 	O 	0.39110 0.24290 0.29640 -0.59500
C 	C 	0.76420 0.24940 0.91880 0.59700
Zn	Zn	0.30918 0.19596 0.30771 1.19300
O 	O 	0.72000 0.28205 0.89467 -0.60200
O 	O 	0.79200 0.20860 0.88850 -0.70100
N 	N 	0.39220 0.72700 0.23740 -0.29100
Zn	Zn	0.30418 0.80992 0.30983 1.15800
N 	N 	0.39776 0.77693 0.27977 -0.27400
C 	C 	0.45280 0.70710 0.22150 0.10600
N 	N 	0.28030 0.79230 0.40080 -0.36000
N 	N 	0.28060 0.90140 0.29000 -0.37700
C 	C 	0.46170 0.78790 0.29000 0.11100
H 	H 	0.46360 0.67200 0.19190 -0.06000
C 	C 	0.49580 0.74480 0.25390 -0.22600
C 	C 	0.28660 0.79000 0.45970 0.20100
C 	C 	0.21070 0.70920 0.45850 0.26600
H 	H 	0.48000 0.82100 0.31820 -0.06200
C 	C 	0.56730 0.74230 0.23590 0.24600
H 	H 	0.32200 0.81360 0.48000 -0.06000
C 	C 	0.23970 0.75030 0.50270 -0.31000
H 	H 	0.18990 0.67010 0.47450 -0.09300
O 	O 	0.60890 0.74290 0.20360 -0.59600
C 	C 	0.23580 0.74940 0.58120 0.59700
Zn	Zn	0.69082 0.69596 0.19229 1.19300
O 	O 	0.28000 0.78205 0.60533 -0.60100
O 	O 	0.20800 0.70860 0.61150 -0.70100
N 	N 	0.89220 0.77300 0.76260 -0.29100
Zn	Zn	0.80418 0.69008 0.69017 1.15800
N 	N 	0.89776 0.72307 0.72023 -0.27400
C 	C 	0.95280 0.79290 0.77850 0.10600
N 	N 	0.78030 0.70770 0.59920 -0.36000
N 	N 	0.78060 0.59860 0.71000 -0.37700
C 	C 	0.96170 0.71210 0.71000 0.11000
H 	H 	0.96360 0.82800 0.80810 -0.06000
C 	C 	0.99580 0.75520 0.74610 -0.22500
C 	C 	0.78660 0.71000 0.54030 0.20100
C 	C 	0.71070 0.79080 0.54150 0.26600
H 	H 	0.98000 0.67900 0.68180 -0.06200
C 	C 	0.06730 0.75770 0.76410 0.24400
H 	H 	0.82200 0.68640 0.52000 -0.06000
C 	C 	0.73970 0.74970 0.49730 -0.30900
H 	H 	0.68990 0.82990 0.52550 -0.09300
O 	O 	0.10890 0.75710 0.79640 -0.59500
C 	C 	0.73580 0.75060 0.41880 0.59700
Zn	Zn	0.19082 0.80404 0.80771 1.19300
O 	O 	0.78000 0.71795 0.39467 -0.60100
O 	O 	0.70800 0.79140 0.38850 -0.70100
N 	N 	0.73740 0.10780 0.27300 -0.29100
Zn	Zn	0.80983 0.19582 0.19008 1.15800
N 	N 	0.77977 0.10224 0.22307 -0.27400
C 	C 	0.72150 0.04720 0.29290 0.10600
N 	N 	0.90080 0.21970 0.20770 -0.36000
N 	N 	0.79000 0.21940 0.09860 -0.37700
C 	C 	0.79000 0.03830 0.21210 0.11100
H 	H 	0.69190 0.03640 0.32800 -0.06000
C 	C 	0.75390 0.00420 0.25520 -0.22700
C 	C 	0.95970 0.21340 0.21000 0.20000
C 	C 	0.95850 0.28930 0.29080 0.26400
H 	H 	0.81820 0.02000 0.17900 -0.06200
C 	C 	0.73590 0.93270 0.25770 0.24600
H 	H 	0.98000 0.17800 0.18640 -0.06000
C 	C 	0.00270 0.26030 0.24970 -0.30800
H 	H 	0.97450 0.31010 0.32990 -0.09300
O 	O 	0.70360 0.89110 0.25710 -0.59600
C 	C 	0.08120 0.26420 0.25060 0.59600
Zn	Zn	0.69229 0.80918 0.30404 1.19300
O 	O 	0.10533 0.22000 0.21795 -0.60100
O 	O 	0.11150 0.29200 0.29140 -0.70100
N 	N 	0.26260 0.60780 0.22700 -0.29100
Zn	Zn	0.19017 0.69582 0.30992 1.15800
N 	N 	0.22023 0.60224 0.27693 -0.27400
C 	C 	0.27850 0.54720 0.20710 0.10600
N 	N 	0.09920 0.71970 0.29230 -0.36000
N 	N 	0.21000 0.71940 0.40140 -0.37700
C 	C 	0.21000 0.53830 0.28790 0.11100
H 	H 	0.30810 0.53640 0.17200 -0.06000
C 	C 	0.24610 0.50420 0.24480 -0.22600
C 	C 	0.04030 0.71340 0.29000 0.20100
C 	C 	0.04150 0.78930 0.20920 0.26600
H 	H 	0.18180 0.52000 0.32100 -0.06200
C 	C 	0.26410 0.43270 0.24230 0.24600
H 	H 	0.02000 0.67800 0.31360 -0.06000
C 	C 	0.99730 0.76030 0.25030 -0.31000
H 	H 	0.02550 0.81010 0.17010 -0.09300
O 	O 	0.29640 0.39110 0.24290 -0.59500
C 	C 	0.91880 0.76420 0.24940 0.59700
Zn	Zn	0.30771 0.30918 0.19596 1.19300
O 	O 	0.89467 0.72000 0.28205 -0.60200
O 	O 	0.88850 0.79200 0.20860 -0.70100
N 	N 	0.23740 0.39220 0.72700 -0.29100
Zn	Zn	0.30983 0.30418 0.80992 1.15800
N 	N 	0.27977 0.39776 0.77693 -0.27400
C 	C 	0.22150 0.45280 0.70710 0.10600
N 	N 	0.40080 0.28030 0.79230 -0.36000
N 	N 	0.29000 0.28060 0.90140 -0.37700
C 	C 	0.29000 0.46170 0.78790 0.11100
H 	H 	0.19190 0.46360 0.67200 -0.06000
C 	C 	0.25390 0.49580 0.74480 -0.22600
C 	C 	0.45970 0.28660 0.79000 0.20100
C 	C 	0.45850 0.21070 0.70920 0.26600
H 	H 	0.31820 0.48000 0.82100 -0.06200
C 	C 	0.23590 0.56730 0.74230 0.24600
H 	H 	0.48000 0.32200 0.81360 -0.06000
C 	C 	0.50270 0.23970 0.75030 -0.31000
H 	H 	0.47450 0.18990 0.67010 -0.09300
O 	O 	0.20360 0.60890 0.74290 -0.59600
C 	C 	0.58120 0.23580 0.74940 0.59700
Zn	Zn	0.19229 0.69082 0.69596 1.19300
O 	O 	0.60533 0.28000 0.78205 -0.60100
O 	O 	0.61150 0.20800 0.70860 -0.70100
N 	N 	0.76260 0.89220 0.77300 -0.29100
Zn	Zn	0.69017 0.80418 0.69008 1.15800
N 	N 	0.72023 0.89776 0.72307 -0.27400
C 	C 	0.77850 0.95280 0.79290 0.10600
N 	N 	0.59920 0.78030 0.70770 -0.36000
N 	N 	0.71000 0.78060 0.59860 -0.37700
C 	C 	0.71000 0.96170 0.71210 0.11000
H 	H 	0.80810 0.96360 0.82800 -0.06000
C 	C 	0.74610 0.99580 0.75520 -0.22500
C 	C 	0.54030 0.78660 0.71000 0.20100
C 	C 	0.54150 0.71070 0.79080 0.26600
H 	H 	0.68180 0.98000 0.67900 -0.06200
C 	C 	0.76410 0.06730 0.75770 0.24400
H 	H 	0.52000 0.82200 0.68640 -0.06000
C 	C 	0.49730 0.73970 0.74970 -0.30900
H 	H 	0.52550 0.68990 0.82990 -0.09300
O 	O 	0.79640 0.10890 0.75710 -0.59500
C 	C 	0.41880 0.73580 0.75060 0.59700
Zn	Zn	0.80771 0.19082 0.80404 1.19300
O 	O 	0.39467 0.78000 0.71795 -0.60100
O 	O 	0.38850 0.70800 0.79140 -0.70100
Zn	Zn	0.30080 0.69920 0.19920 1.13500
O 	O 	0.24486 0.75514 0.25514 -0.99100
Zn	Zn	0.19920 0.30080 0.69920 1.13500
O 	O 	0.25514 0.24486 0.75514 -0.99100
Zn	Zn	0.69920 0.19920 0.30080 1.13500
O 	O 	0.75514 0.25514 0.24486 -0.99100
Zn	Zn	0.80080 0.80080 0.80080 1.13500
O 	O 	0.74486 0.74486 0.74486 -0.99100
O 	O 	0.24440 0.74440 0.75560 -0.94800
O 	O 	0.25560 0.25560 0.25560 -0.94800
O 	O 	0.75560 0.24440 0.74440 -0.94800
O 	O 	0.74440 0.75560 0.24440 -0.94800
Zn	Zn	0.19662 0.19662 0.19662 1.20700
Zn	Zn	0.30338 0.80338 0.69662 1.20700
Zn	Zn	0.80338 0.69662 0.30338 1.20700
Zn	Zn	0.69662 0.30338 0.80338 1.20700
