data_crystal

_cell_length_a 20.14050
_cell_length_b 20.14050
_cell_length_c 20.14050
_cell_angle_alpha 90.00000
_cell_angle_beta  90.00000
_cell_angle_gamma 90.00000

_symmetry_space_group_name_	'P 1'
_symmetry_space_group_name_H-M	'P 1'

loop_
_symmetry_equiv_pos_as_xyz
  x,y,z

loop_
_atom_site_label
_atom_site_type_symbol
_atom_site_fract_x
_atom_site_fract_y
_atom_site_fract_z
_atom_site_charge
Zn	Zn	0.30330 0.80890 0.19697 1.18500
Zn	Zn	0.30332 0.80404 0.80794 1.14400
C 	C 	0.20990 0.70800 0.96380 0.19400
H 	H 	0.18300 0.67210 0.97840 -0.07800
C 	C 	0.24150 0.75260 0.00540 -0.38700
C 	C 	0.23880 0.75570 0.07480 0.75000
C 	C 	0.29020 0.77980 0.96130 0.17300
H 	H 	0.33070 0.79970 0.97480 -0.07200
C 	C 	0.23730 0.95261 0.71060 0.20400
H 	H 	0.23530 0.95640 0.66360 -0.08800
C 	C 	0.29330 0.96976 0.78410 0.00400
H 	H 	0.32520 0.98920 0.81290 -0.01500
C 	C 	0.25090 0.00330 0.73660 -0.20200
N 	N 	0.27040 0.77300 0.89810 -0.30700
N 	N 	0.22230 0.72220 0.90090 -0.30500
N 	N 	0.22530 0.89640 0.72980 -0.31800
N 	N 	0.27540 0.89690 0.77780 -0.27400
O 	O 	0.27770 0.79220 0.10580 -0.65200
O 	O 	0.20470 0.72680 0.10650 -0.72700
Zn	Zn	0.19670 0.19110 0.69697 1.18400
Zn	Zn	0.19668 0.19596 0.30794 1.14300
C 	C 	0.29010 0.29200 0.46380 0.19300
H 	H 	0.31700 0.32790 0.47840 -0.07900
C 	C 	0.25850 0.24740 0.50540 -0.38800
C 	C 	0.26120 0.24430 0.57480 0.74900
C 	C 	0.20980 0.22020 0.46130 0.17200
H 	H 	0.16930 0.20030 0.47480 -0.07300
C 	C 	0.26270 0.04739 0.21060 0.20400
H 	H 	0.26470 0.04360 0.16360 -0.08900
C 	C 	0.20670 0.03024 0.28410 0.00300
H 	H 	0.17480 0.01080 0.31290 -0.01600
C 	C 	0.24910 0.99670 0.23660 -0.20400
N 	N 	0.22960 0.22700 0.39810 -0.30700
N 	N 	0.27770 0.27780 0.40090 -0.30500
N 	N 	0.27470 0.10360 0.22980 -0.31800
N 	N 	0.22460 0.10310 0.27780 -0.27400
O 	O 	0.22230 0.20780 0.60580 -0.65200
O 	O 	0.29530 0.27320 0.60650 -0.72700
Zn	Zn	0.69670 0.30890 0.30303 1.18400
Zn	Zn	0.69668 0.30404 0.69206 1.14300
C 	C 	0.79010 0.20800 0.53620 0.19300
H 	H 	0.81700 0.17210 0.52160 -0.07900
C 	C 	0.75850 0.25260 0.49460 -0.38800
C 	C 	0.76120 0.25570 0.42520 0.74900
C 	C 	0.70980 0.27980 0.53870 0.17200
H 	H 	0.66930 0.29970 0.52520 -0.07300
C 	C 	0.76270 0.45261 0.78940 0.20300
H 	H 	0.76470 0.45640 0.83640 -0.08800
C 	C 	0.70670 0.46976 0.71590 0.00300
H 	H 	0.67480 0.48920 0.68710 -0.01600
C 	C 	0.74910 0.50330 0.76340 -0.20300
N 	N 	0.72960 0.27300 0.60190 -0.30700
N 	N 	0.77770 0.22220 0.59910 -0.30500
N 	N 	0.77470 0.39640 0.77020 -0.31800
N 	N 	0.72460 0.39690 0.72220 -0.27400
O 	O 	0.72230 0.29220 0.39420 -0.65200
O 	O 	0.79530 0.22680 0.39350 -0.72700
Zn	Zn	0.80330 0.69110 0.80303 1.18400
Zn	Zn	0.80332 0.69596 0.19206 1.14300
C 	C 	0.70990 0.79200 0.03620 0.19200
H 	H 	0.68300 0.82790 0.02160 -0.07900
C 	C 	0.74150 0.74740 0.99460 -0.38700
C 	C 	0.73880 0.74430 0.92520 0.74900
C 	C 	0.79020 0.72020 0.03870 0.17100
H 	H 	0.83070 0.70030 0.02520 -0.07300
C 	C 	0.73730 0.54739 0.28940 0.20300
H 	H 	0.73530 0.54360 0.33640 -0.08800
C 	C 	0.79330 0.53024 0.21590 0.00300
H 	H 	0.82520 0.51080 0.18710 -0.01600
C 	C 	0.75090 0.49670 0.26340 -0.20300
N 	N 	0.77040 0.72700 0.10190 -0.30700
N 	N 	0.72230 0.77780 0.09910 -0.30500
N 	N 	0.72530 0.60360 0.27020 -0.31800
N 	N 	0.77540 0.60310 0.22220 -0.27400
O 	O 	0.77770 0.70780 0.89420 -0.65200
O 	O 	0.70470 0.77320 0.89350 -0.72700
Zn	Zn	0.19697 0.30330 0.80890 1.18400
Zn	Zn	0.80794 0.30332 0.80404 1.14300
C 	C 	0.96380 0.20990 0.70800 0.19300
H 	H 	0.97840 0.18300 0.67210 -0.07900
C 	C 	0.00540 0.24150 0.75260 -0.38800
C 	C 	0.07480 0.23880 0.75570 0.74900
C 	C 	0.96130 0.29020 0.77980 0.17200
H 	H 	0.97480 0.33070 0.79970 -0.07300
C 	C 	0.71060 0.23730 0.95261 0.20300
H 	H 	0.66360 0.23530 0.95640 -0.08900
C 	C 	0.78410 0.29330 0.96976 0.00300
H 	H 	0.81290 0.32520 0.98920 -0.01600
C 	C 	0.73660 0.25090 0.00330 -0.20300
N 	N 	0.89810 0.27040 0.77300 -0.30700
N 	N 	0.90090 0.22230 0.72220 -0.30500
N 	N 	0.72980 0.22530 0.89640 -0.31800
N 	N 	0.77780 0.27540 0.89690 -0.27400
O 	O 	0.10580 0.27770 0.79220 -0.65200
O 	O 	0.10650 0.20470 0.72680 -0.72700
Zn	Zn	0.69697 0.19670 0.19110 1.18400
Zn	Zn	0.30794 0.19668 0.19596 1.14300
C 	C 	0.46380 0.29010 0.29200 0.19300
H 	H 	0.47840 0.31700 0.32790 -0.07900
C 	C 	0.50540 0.25850 0.24740 -0.38800
C 	C 	0.57480 0.26120 0.24430 0.74900
C 	C 	0.46130 0.20980 0.22020 0.17200
H 	H 	0.47480 0.16930 0.20030 -0.07300
C 	C 	0.21060 0.26270 0.04739 0.20400
H 	H 	0.16360 0.26470 0.04360 -0.08900
C 	C 	0.28410 0.20670 0.03024 0.00300
H 	H 	0.31290 0.17480 0.01080 -0.01600
C 	C 	0.23660 0.24910 0.99670 -0.20400
N 	N 	0.39810 0.22960 0.22700 -0.30700
N 	N 	0.40090 0.27770 0.27780 -0.30500
N 	N 	0.22980 0.27470 0.10360 -0.31800
N 	N 	0.27780 0.22460 0.10310 -0.27400
O 	O 	0.60580 0.22230 0.20780 -0.65200
O 	O 	0.60650 0.29530 0.27320 -0.72700
Zn	Zn	0.30303 0.69670 0.30890 1.18400
Zn	Zn	0.69206 0.69668 0.30404 1.14300
C 	C 	0.53620 0.79010 0.20800 0.19300
H 	H 	0.52160 0.81700 0.17210 -0.07900
C 	C 	0.49460 0.75850 0.25260 -0.38800
C 	C 	0.42520 0.76120 0.25570 0.74900
C 	C 	0.53870 0.70980 0.27980 0.17200
H 	H 	0.52520 0.66930 0.29970 -0.07300
C 	C 	0.78940 0.76270 0.45261 0.20300
H 	H 	0.83640 0.76470 0.45640 -0.08800
C 	C 	0.71590 0.70670 0.46976 0.00300
H 	H 	0.68710 0.67480 0.48920 -0.01600
C 	C 	0.76340 0.74910 0.50330 -0.20300
N 	N 	0.60190 0.72960 0.27300 -0.30700
N 	N 	0.59910 0.77770 0.22220 -0.30500
N 	N 	0.77020 0.77470 0.39640 -0.31800
N 	N 	0.72220 0.72460 0.39690 -0.27400
O 	O 	0.39420 0.72230 0.29220 -0.65200
O 	O 	0.39350 0.79530 0.22680 -0.72700
Zn	Zn	0.80303 0.80330 0.69110 1.18400
Zn	Zn	0.19206 0.80332 0.69596 1.14300
C 	C 	0.03620 0.70990 0.79200 0.19200
H 	H 	0.02160 0.68300 0.82790 -0.07900
C 	C 	0.99460 0.74150 0.74740 -0.38700
C 	C 	0.92520 0.73880 0.74430 0.74900
C 	C 	0.03870 0.79020 0.72020 0.17100
H 	H 	0.02520 0.83070 0.70030 -0.07300
C 	C 	0.28940 0.73730 0.54739 0.20300
H 	H 	0.33640 0.73530 0.54360 -0.08800
C 	C 	0.21590 0.79330 0.53024 0.00300
H 	H 	0.18710 0.82520 0.51080 -0.01600
C 	C 	0.26340 0.75090 0.49670 -0.20300
N 	N 	0.10190 0.77040 0.72700 -0.30700
N 	N 	0.09910 0.72230 0.77780 -0.30500
N 	N 	0.27020 0.72530 0.60360 -0.31800
N 	N 	0.22220 0.77540 0.60310 -0.27400
O 	O 	0.89420 0.77770 0.70780 -0.65200
O 	O 	0.89350 0.70470 0.77320 -0.72700
Zn	Zn	0.80890 0.19697 0.30330 1.18400
Zn	Zn	0.80404 0.80794 0.30332 1.14300
C 	C 	0.70800 0.96380 0.20990 0.19300
H 	H 	0.67210 0.97840 0.18300 -0.07900
C 	C 	0.75260 0.00540 0.24150 -0.38800
C 	C 	0.75570 0.07480 0.23880 0.74900
C 	C 	0.77980 0.96130 0.29020 0.17200
H 	H 	0.79970 0.97480 0.33070 -0.07300
C 	C 	0.95261 0.71060 0.23730 0.20300
H 	H 	0.95640 0.66360 0.23530 -0.08900
C 	C 	0.96976 0.78410 0.29330 0.00300
H 	H 	0.98920 0.81290 0.32520 -0.01600
C 	C 	0.00330 0.73660 0.25090 -0.20300
N 	N 	0.77300 0.89810 0.27040 -0.30700
N 	N 	0.72220 0.90090 0.22230 -0.30500
N 	N 	0.89640 0.72980 0.22530 -0.31800
N 	N 	0.89690 0.77780 0.27540 -0.27400
O 	O 	0.79220 0.10580 0.27770 -0.65200
O 	O 	0.72680 0.10650 0.20470 -0.72700
Zn	Zn	0.19110 0.69697 0.19670 1.18400
Zn	Zn	0.19596 0.30794 0.19668 1.14300
C 	C 	0.29200 0.46380 0.29010 0.19300
H 	H 	0.32790 0.47840 0.31700 -0.07900
C 	C 	0.24740 0.50540 0.25850 -0.38800
C 	C 	0.24430 0.57480 0.26120 0.74900
C 	C 	0.22020 0.46130 0.20980 0.17200
H 	H 	0.20030 0.47480 0.16930 -0.07300
C 	C 	0.04739 0.21060 0.26270 0.20400
H 	H 	0.04360 0.16360 0.26470 -0.08900
C 	C 	0.03024 0.28410 0.20670 0.00300
H 	H 	0.01080 0.31290 0.17480 -0.01600
C 	C 	0.99670 0.23660 0.24910 -0.20400
N 	N 	0.22700 0.39810 0.22960 -0.30700
N 	N 	0.27780 0.40090 0.27770 -0.30500
N 	N 	0.10360 0.22980 0.27470 -0.31800
N 	N 	0.10310 0.27780 0.22460 -0.27400
O 	O 	0.20780 0.60580 0.22230 -0.65200
O 	O 	0.27320 0.60650 0.29530 -0.72700
Zn	Zn	0.30890 0.30303 0.69670 1.18400
Zn	Zn	0.30404 0.69206 0.69668 1.14300
C 	C 	0.20800 0.53620 0.79010 0.19300
H 	H 	0.17210 0.52160 0.81700 -0.07900
C 	C 	0.25260 0.49460 0.75850 -0.38800
C 	C 	0.25570 0.42520 0.76120 0.74900
C 	C 	0.27980 0.53870 0.70980 0.17200
H 	H 	0.29970 0.52520 0.66930 -0.07300
C 	C 	0.45261 0.78940 0.76270 0.20300
H 	H 	0.45640 0.83640 0.76470 -0.08800
C 	C 	0.46976 0.71590 0.70670 0.00300
H 	H 	0.48920 0.68710 0.67480 -0.01600
C 	C 	0.50330 0.76340 0.74910 -0.20300
N 	N 	0.27300 0.60190 0.72960 -0.30700
N 	N 	0.22220 0.59910 0.77770 -0.30500
N 	N 	0.39640 0.77020 0.77470 -0.31800
N 	N 	0.39690 0.72220 0.72460 -0.27400
O 	O 	0.29220 0.39420 0.72230 -0.65200
O 	O 	0.22680 0.39350 0.79530 -0.72700
Zn	Zn	0.69110 0.80303 0.80330 1.18400
Zn	Zn	0.69596 0.19206 0.80332 1.14300
C 	C 	0.79200 0.03620 0.70990 0.19200
H 	H 	0.82790 0.02160 0.68300 -0.07900
C 	C 	0.74740 0.99460 0.74150 -0.38700
C 	C 	0.74430 0.92520 0.73880 0.74900
C 	C 	0.72020 0.03870 0.79020 0.17100
H 	H 	0.70030 0.02520 0.83070 -0.07300
C 	C 	0.54739 0.28940 0.73730 0.20300
H 	H 	0.54360 0.33640 0.73530 -0.08800
C 	C 	0.53024 0.21590 0.79330 0.00300
H 	H 	0.51080 0.18710 0.82520 -0.01600
C 	C 	0.49670 0.26340 0.75090 -0.20300
N 	N 	0.72700 0.10190 0.77040 -0.30700
N 	N 	0.77780 0.09910 0.72230 -0.30500
N 	N 	0.60360 0.27020 0.72530 -0.31800
N 	N 	0.60310 0.22220 0.77540 -0.27400
O 	O 	0.70780 0.89420 0.77770 -0.65200
O 	O 	0.77320 0.89350 0.70470 -0.72700
Zn	Zn	0.19033 0.69033 0.80967 1.14100
O 	O 	0.24830 0.74830 0.75170 -0.99500
Zn	Zn	0.30967 0.30967 0.30967 1.14100
O 	O 	0.25170 0.25170 0.25170 -0.99500
Zn	Zn	0.80967 0.19033 0.69033 1.14100
O 	O 	0.75170 0.24830 0.74830 -0.99500
Zn	Zn	0.69033 0.80967 0.19033 1.14100
O 	O 	0.74830 0.75170 0.24830 -0.99500
O 	O 	0.24570 0.75430 0.25430 -0.79800
O 	O 	0.25430 0.24570 0.75430 -0.79800
O 	O 	0.75430 0.25430 0.24570 -0.79800
O 	O 	0.74570 0.74570 0.74570 -0.79800
