data_crystal

_cell_length_a 49.92000
_cell_length_b 49.92000
_cell_length_c 16.19500
_cell_angle_alpha 90.00000
_cell_angle_beta  90.00000
_cell_angle_gamma 120.00000

_symmetry_space_group_name_	'P 1'
_symmetry_space_group_name_H-M	'P 1'

loop_
_symmetry_equiv_pos_as_xyz
  x,y,z

loop_
_atom_site_label
_atom_site_type_symbol
_atom_site_fract_x
_atom_site_fract_y
_atom_site_fract_z
_atom_site_charge
O 	O 	0.51681 0.08157 0.07241 -0.63900
O 	O 	0.47708 0.04667 0.14781 -0.68000
C 	C 	0.49728 0.07573 0.13295 0.50300
C 	C 	0.49915 0.10284 0.18222 -0.14400
C 	C 	0.47376 0.09887 0.22750 0.06900
C 	C 	0.47545 0.12346 0.27218 -0.10100
C 	C 	0.50223 0.15226 0.27269 0.06100
C 	C 	0.52793 0.15597 0.22628 -0.10100
C 	C 	0.52623 0.13139 0.18161 0.06600
C 	C 	0.50336 0.17834 0.32150 -0.00900
C 	C 	0.47618 0.17852 0.33902 -0.02700
C 	C 	0.47722 0.20269 0.38425 -0.06300
C 	C 	0.50541 0.22670 0.41202 0.03600
C 	C 	0.53261 0.22650 0.39446 -0.06200
C 	C 	0.53157 0.20233 0.34922 -0.02700
H 	H 	0.45427 0.07834 0.22794 0.01600
H 	H 	0.45718 0.12060 0.30475 0.06500
H 	H 	0.54752 0.17642 0.22545 0.06000
H 	H 	0.54450 0.13425 0.14903 0.03100
H 	H 	0.45589 0.16126 0.31907 0.03400
H 	H 	0.45766 0.20279 0.39681 0.04600
H 	H 	0.55291 0.24375 0.41438 0.04800
H 	H 	0.55112 0.20220 0.33662 0.04000
F 	F 	0.49852 0.02672 0.39491 -0.25800
O 	O 	0.91843 0.43524 0.07241 -0.64000
O 	O 	0.95333 0.43041 0.14781 -0.67600
C 	C 	0.92427 0.42155 0.13295 0.50100
C 	C 	0.89716 0.39631 0.18222 -0.14400
C 	C 	0.90113 0.37489 0.22750 0.06800
C 	C 	0.87654 0.35199 0.27218 -0.10100
C 	C 	0.84774 0.34997 0.27269 0.06000
C 	C 	0.84403 0.37196 0.22628 -0.10100
C 	C 	0.86861 0.39484 0.18161 0.06500
C 	C 	0.82166 0.32502 0.32150 -0.01000
C 	C 	0.82148 0.29766 0.33902 -0.02800
C 	C 	0.79731 0.27453 0.38425 -0.06300
C 	C 	0.77330 0.27871 0.41202 0.03600
C 	C 	0.77350 0.30611 0.39446 -0.06100
C 	C 	0.79767 0.32924 0.34922 -0.02700
H 	H 	0.92166 0.37593 0.22794 0.01800
H 	H 	0.87940 0.33658 0.30475 0.06600
H 	H 	0.82358 0.37110 0.22545 0.06000
H 	H 	0.86575 0.41025 0.14903 0.03100
H 	H 	0.83874 0.29463 0.31907 0.03500
H 	H 	0.79721 0.25487 0.39681 0.04700
H 	H 	0.75625 0.30916 0.41438 0.04800
H 	H 	0.79780 0.34892 0.33662 0.04000
F 	F 	0.97328 0.47180 0.39491 -0.25200
O 	O 	0.56476 0.48319 0.07241 -0.64000
O 	O 	0.56959 0.52292 0.14781 -0.67900
C 	C 	0.57845 0.50272 0.13295 0.50100
C 	C 	0.60369 0.50085 0.18222 -0.14400
C 	C 	0.62511 0.52624 0.22750 0.06800
C 	C 	0.64801 0.52455 0.27218 -0.10200
C 	C 	0.65003 0.49777 0.27269 0.06000
C 	C 	0.62804 0.47207 0.22628 -0.10200
C 	C 	0.60516 0.47377 0.18161 0.06500
C 	C 	0.67498 0.49664 0.32150 -0.01000
C 	C 	0.70234 0.52382 0.33902 -0.02800
C 	C 	0.72547 0.52278 0.38425 -0.06300
C 	C 	0.72129 0.49459 0.41202 0.03600
C 	C 	0.69389 0.46739 0.39446 -0.06200
C 	C 	0.67076 0.46843 0.34922 -0.02700
H 	H 	0.62407 0.54573 0.22794 0.01700
H 	H 	0.66342 0.54282 0.30475 0.06500
H 	H 	0.62890 0.45248 0.22545 0.06000
H 	H 	0.58975 0.45550 0.14903 0.03100
H 	H 	0.70537 0.54411 0.31907 0.03500
H 	H 	0.74513 0.54234 0.39681 0.04700
H 	H 	0.69084 0.44709 0.41438 0.04800
H 	H 	0.65108 0.44888 0.33662 0.04000
F 	F 	0.52820 0.50148 0.39491 -0.25800
O 	O 	0.48319 0.91843 0.07241 -0.64000
O 	O 	0.52292 0.95333 0.14781 -0.67600
C 	C 	0.50272 0.92427 0.13295 0.50100
C 	C 	0.50085 0.89716 0.18222 -0.14300
C 	C 	0.52624 0.90113 0.22750 0.06800
C 	C 	0.52455 0.87654 0.27218 -0.10100
C 	C 	0.49777 0.84774 0.27269 0.06000
C 	C 	0.47207 0.84403 0.22628 -0.10100
C 	C 	0.47377 0.86861 0.18161 0.06500
C 	C 	0.49664 0.82166 0.32150 -0.01000
C 	C 	0.52382 0.82148 0.33902 -0.02800
C 	C 	0.52278 0.79731 0.38425 -0.06300
C 	C 	0.49459 0.77330 0.41202 0.03600
C 	C 	0.46739 0.77350 0.39446 -0.06100
C 	C 	0.46843 0.79767 0.34922 -0.02700
H 	H 	0.54573 0.92166 0.22794 0.01800
H 	H 	0.54282 0.87940 0.30475 0.06600
H 	H 	0.45248 0.82358 0.22545 0.06000
H 	H 	0.45550 0.86575 0.14903 0.03100
H 	H 	0.54411 0.83874 0.31907 0.03500
H 	H 	0.54234 0.79721 0.39681 0.04700
H 	H 	0.44709 0.75625 0.41438 0.04800
H 	H 	0.44888 0.79780 0.33662 0.04000
F 	F 	0.50148 0.97328 0.39491 -0.25200
O 	O 	0.08157 0.56476 0.07241 -0.64000
O 	O 	0.04667 0.56959 0.14781 -0.68100
C 	C 	0.07573 0.57845 0.13295 0.50200
C 	C 	0.10284 0.60369 0.18222 -0.14500
C 	C 	0.09887 0.62511 0.22750 0.06800
C 	C 	0.12346 0.64801 0.27218 -0.10200
C 	C 	0.15226 0.65003 0.27269 0.06000
C 	C 	0.15597 0.62804 0.22628 -0.10200
C 	C 	0.13139 0.60516 0.18161 0.06500
C 	C 	0.17834 0.67498 0.32150 -0.01000
C 	C 	0.17852 0.70234 0.33902 -0.02800
C 	C 	0.20269 0.72547 0.38425 -0.06300
C 	C 	0.22670 0.72129 0.41202 0.03600
C 	C 	0.22650 0.69389 0.39446 -0.06200
C 	C 	0.20233 0.67076 0.34922 -0.02700
H 	H 	0.07834 0.62407 0.22794 0.01600
H 	H 	0.12060 0.66342 0.30475 0.06500
H 	H 	0.17642 0.62890 0.22545 0.06000
H 	H 	0.13425 0.58975 0.14903 0.03100
H 	H 	0.16126 0.70537 0.31907 0.03500
H 	H 	0.20279 0.74513 0.39681 0.04700
H 	H 	0.24375 0.69084 0.41438 0.04800
H 	H 	0.20220 0.65108 0.33662 0.04000
F 	F 	0.02672 0.52820 0.39491 -0.25800
O 	O 	0.43524 0.51681 0.07241 -0.64000
O 	O 	0.43041 0.47708 0.14781 -0.68000
C 	C 	0.42155 0.49728 0.13295 0.50100
C 	C 	0.39631 0.49915 0.18222 -0.14400
C 	C 	0.37489 0.47376 0.22750 0.06800
C 	C 	0.35199 0.47545 0.27218 -0.10200
C 	C 	0.34997 0.50223 0.27269 0.06000
C 	C 	0.37196 0.52793 0.22628 -0.10200
C 	C 	0.39484 0.52623 0.18161 0.06500
C 	C 	0.32502 0.50336 0.32150 -0.01000
C 	C 	0.29766 0.47618 0.33902 -0.02800
C 	C 	0.27453 0.47722 0.38425 -0.06300
C 	C 	0.27871 0.50541 0.41202 0.03600
C 	C 	0.30611 0.53261 0.39446 -0.06200
C 	C 	0.32924 0.53157 0.34922 -0.02700
H 	H 	0.37593 0.45427 0.22794 0.01600
H 	H 	0.33658 0.45718 0.30475 0.06500
H 	H 	0.37110 0.54752 0.22545 0.06000
H 	H 	0.41025 0.54450 0.14903 0.03100
H 	H 	0.29463 0.45589 0.31907 0.03400
H 	H 	0.25487 0.45766 0.39681 0.04600
H 	H 	0.30916 0.55291 0.41438 0.04800
H 	H 	0.34892 0.55112 0.33662 0.04000
F 	F 	0.47180 0.49852 0.39491 -0.25800
O 	O 	0.08157 0.51681 0.92759 -0.61700
O 	O 	0.04667 0.47708 0.85219 -0.67100
C 	C 	0.07573 0.49728 0.86705 0.50000
C 	C 	0.10284 0.49915 0.81778 -0.13700
C 	C 	0.09887 0.47376 0.77250 0.06800
C 	C 	0.12346 0.47545 0.72782 -0.09900
C 	C 	0.15226 0.50223 0.72731 0.06100
C 	C 	0.15597 0.52793 0.77372 -0.09700
C 	C 	0.13139 0.52623 0.81839 0.06600
C 	C 	0.17834 0.50336 0.67850 -0.00700
C 	C 	0.17852 0.47618 0.66098 -0.02700
C 	C 	0.20269 0.47722 0.61575 -0.06100
C 	C 	0.22670 0.50541 0.58798 0.03600
C 	C 	0.22650 0.53261 0.60554 -0.06000
C 	C 	0.20233 0.53157 0.65078 -0.02700
H 	H 	0.07834 0.45427 0.77206 0.02100
H 	H 	0.12060 0.45718 0.69525 0.06600
H 	H 	0.17642 0.54752 0.77455 0.06400
H 	H 	0.13425 0.54450 0.85097 0.03700
H 	H 	0.16126 0.45589 0.68093 0.03800
H 	H 	0.20279 0.45766 0.60319 0.04800
H 	H 	0.24375 0.55291 0.58562 0.04900
H 	H 	0.20220 0.55112 0.66338 0.04200
F 	F 	0.02672 0.49852 0.60509 -0.25800
O 	O 	0.43524 0.91843 0.92759 -0.61700
O 	O 	0.43041 0.95333 0.85219 -0.66700
C 	C 	0.42155 0.92427 0.86705 0.50000
C 	C 	0.39631 0.89716 0.81778 -0.13600
C 	C 	0.37489 0.90113 0.77250 0.06800
C 	C 	0.35199 0.87654 0.72782 -0.09800
C 	C 	0.34997 0.84774 0.72731 0.06100
C 	C 	0.37196 0.84403 0.77372 -0.09700
C 	C 	0.39484 0.86861 0.81839 0.06500
C 	C 	0.32502 0.82166 0.67850 -0.00700
C 	C 	0.29766 0.82148 0.66098 -0.02700
C 	C 	0.27453 0.79731 0.61575 -0.06000
C 	C 	0.27871 0.77330 0.58798 0.03600
C 	C 	0.30611 0.77350 0.60554 -0.05900
C 	C 	0.32924 0.79767 0.65078 -0.02700
H 	H 	0.37593 0.92166 0.77206 0.02300
H 	H 	0.33658 0.87940 0.69525 0.06700
H 	H 	0.37110 0.82358 0.77455 0.06400
H 	H 	0.41025 0.86575 0.85097 0.03800
H 	H 	0.29463 0.83874 0.68093 0.03900
H 	H 	0.25487 0.79721 0.60319 0.04800
H 	H 	0.30916 0.75625 0.58562 0.04900
H 	H 	0.34892 0.79780 0.66338 0.04200
F 	F 	0.47180 0.97328 0.60509 -0.25200
O 	O 	0.48319 0.56476 0.92759 -0.61700
O 	O 	0.52292 0.56959 0.85219 -0.67000
C 	C 	0.50272 0.57845 0.86705 0.50000
C 	C 	0.50085 0.60369 0.81778 -0.13700
C 	C 	0.52624 0.62511 0.77250 0.06800
C 	C 	0.52455 0.64801 0.72782 -0.09800
C 	C 	0.49777 0.65003 0.72731 0.06100
C 	C 	0.47207 0.62804 0.77372 -0.09700
C 	C 	0.47377 0.60516 0.81839 0.06600
C 	C 	0.49664 0.67498 0.67850 -0.00700
C 	C 	0.52382 0.70234 0.66098 -0.02700
C 	C 	0.52278 0.72547 0.61575 -0.06100
C 	C 	0.49459 0.72129 0.58798 0.03600
C 	C 	0.46739 0.69389 0.60554 -0.05900
C 	C 	0.46843 0.67076 0.65078 -0.02700
H 	H 	0.54573 0.62407 0.77206 0.02200
H 	H 	0.54282 0.66342 0.69525 0.06700
H 	H 	0.45248 0.62890 0.77455 0.06400
H 	H 	0.45550 0.58975 0.85097 0.03700
H 	H 	0.54411 0.70537 0.68093 0.03900
H 	H 	0.54234 0.74513 0.60319 0.04800
H 	H 	0.44709 0.69084 0.58562 0.04900
H 	H 	0.44888 0.65108 0.66338 0.04200
F 	F 	0.50148 0.52820 0.60509 -0.25800
O 	O 	0.91843 0.48319 0.92759 -0.61700
O 	O 	0.95333 0.52292 0.85219 -0.66700
C 	C 	0.92427 0.50272 0.86705 0.50000
C 	C 	0.89716 0.50085 0.81778 -0.13600
C 	C 	0.90113 0.52624 0.77250 0.06800
C 	C 	0.87654 0.52455 0.72782 -0.09800
C 	C 	0.84774 0.49777 0.72731 0.06100
C 	C 	0.84403 0.47207 0.77372 -0.09700
C 	C 	0.86861 0.47377 0.81839 0.06500
C 	C 	0.82166 0.49664 0.67850 -0.00700
C 	C 	0.82148 0.52382 0.66098 -0.02700
C 	C 	0.79731 0.52278 0.61575 -0.06000
C 	C 	0.77330 0.49459 0.58798 0.03600
C 	C 	0.77350 0.46739 0.60554 -0.05900
C 	C 	0.79767 0.46843 0.65078 -0.02700
H 	H 	0.92166 0.54573 0.77206 0.02300
H 	H 	0.87940 0.54282 0.69525 0.06700
H 	H 	0.82358 0.45248 0.77455 0.06400
H 	H 	0.86575 0.45550 0.85097 0.03800
H 	H 	0.83874 0.54411 0.68093 0.03900
H 	H 	0.79721 0.54234 0.60319 0.04800
H 	H 	0.75625 0.44709 0.58562 0.04900
H 	H 	0.79780 0.44888 0.66338 0.04200
F 	F 	0.97328 0.50148 0.60509 -0.25200
O 	O 	0.56476 0.08157 0.92759 -0.61700
O 	O 	0.56959 0.04667 0.85219 -0.67100
C 	C 	0.57845 0.07573 0.86705 0.50000
C 	C 	0.60369 0.10284 0.81778 -0.13700
C 	C 	0.62511 0.09887 0.77250 0.06800
C 	C 	0.64801 0.12346 0.72782 -0.09800
C 	C 	0.65003 0.15226 0.72731 0.06100
C 	C 	0.62804 0.15597 0.77372 -0.09700
C 	C 	0.60516 0.13139 0.81839 0.06600
C 	C 	0.67498 0.17834 0.67850 -0.00700
C 	C 	0.70234 0.17852 0.66098 -0.02700
C 	C 	0.72547 0.20269 0.61575 -0.06100
C 	C 	0.72129 0.22670 0.58798 0.03600
C 	C 	0.69389 0.22650 0.60554 -0.06000
C 	C 	0.67076 0.20233 0.65078 -0.02600
H 	H 	0.62407 0.07834 0.77206 0.02100
H 	H 	0.66342 0.12060 0.69525 0.06600
H 	H 	0.62890 0.17642 0.77455 0.06400
H 	H 	0.58975 0.13425 0.85097 0.03700
H 	H 	0.70537 0.16126 0.68093 0.03800
H 	H 	0.74513 0.20279 0.60319 0.04800
H 	H 	0.69084 0.24375 0.58562 0.04900
H 	H 	0.65108 0.20220 0.66338 0.04200
F 	F 	0.52820 0.02672 0.60509 -0.25800
O 	O 	0.51681 0.43524 0.92759 -0.61700
O 	O 	0.47708 0.43041 0.85219 -0.67000
C 	C 	0.49728 0.42155 0.86705 0.50000
C 	C 	0.49915 0.39631 0.81778 -0.13700
C 	C 	0.47376 0.37489 0.77250 0.06800
C 	C 	0.47545 0.35199 0.72782 -0.09800
C 	C 	0.50223 0.34997 0.72731 0.06100
C 	C 	0.52793 0.37196 0.77372 -0.09700
C 	C 	0.52623 0.39484 0.81839 0.06600
C 	C 	0.50336 0.32502 0.67850 -0.00700
C 	C 	0.47618 0.29766 0.66098 -0.02700
C 	C 	0.47722 0.27453 0.61575 -0.06100
C 	C 	0.50541 0.27871 0.58798 0.03600
C 	C 	0.53261 0.30611 0.60554 -0.05900
C 	C 	0.53157 0.32924 0.65078 -0.02700
H 	H 	0.45427 0.37593 0.77206 0.02100
H 	H 	0.45718 0.33658 0.69525 0.06700
H 	H 	0.54752 0.37110 0.77455 0.06400
H 	H 	0.54450 0.41025 0.85097 0.03700
H 	H 	0.45589 0.29463 0.68093 0.03800
H 	H 	0.45766 0.25487 0.60319 0.04800
H 	H 	0.55291 0.30916 0.58562 0.04900
H 	H 	0.55112 0.34892 0.66338 0.04200
F 	F 	0.49852 0.47180 0.60509 -0.25800
O 	O 	0.48319 0.91843 0.92759 -0.61700
O 	O 	0.52292 0.95333 0.85219 -0.66700
C 	C 	0.50272 0.92427 0.86705 0.50000
C 	C 	0.50085 0.89716 0.81778 -0.13600
C 	C 	0.52624 0.90113 0.77250 0.06800
C 	C 	0.52455 0.87654 0.72782 -0.09800
C 	C 	0.49777 0.84774 0.72731 0.06100
C 	C 	0.47207 0.84403 0.77372 -0.09700
C 	C 	0.47377 0.86861 0.81839 0.06500
C 	C 	0.49664 0.82166 0.67850 -0.00700
C 	C 	0.52382 0.82148 0.66098 -0.02700
C 	C 	0.52278 0.79731 0.61575 -0.06000
C 	C 	0.49459 0.77330 0.58798 0.03600
C 	C 	0.46739 0.77350 0.60554 -0.05900
C 	C 	0.46843 0.79767 0.65078 -0.02700
H 	H 	0.54573 0.92166 0.77206 0.02300
H 	H 	0.54282 0.87940 0.69525 0.06700
H 	H 	0.45248 0.82358 0.77455 0.06400
H 	H 	0.45550 0.86575 0.85097 0.03800
H 	H 	0.54411 0.83874 0.68093 0.03900
H 	H 	0.54234 0.79721 0.60319 0.04800
H 	H 	0.44709 0.75625 0.58562 0.04900
H 	H 	0.44888 0.79780 0.66338 0.04200
F 	F 	0.50148 0.97328 0.60509 -0.25200
O 	O 	0.08157 0.56476 0.92759 -0.61700
O 	O 	0.04667 0.56959 0.85219 -0.67100
C 	C 	0.07573 0.57845 0.86705 0.50000
C 	C 	0.10284 0.60369 0.81778 -0.13700
C 	C 	0.09887 0.62511 0.77250 0.06800
C 	C 	0.12346 0.64801 0.72782 -0.09800
C 	C 	0.15226 0.65003 0.72731 0.06100
C 	C 	0.15597 0.62804 0.77372 -0.09700
C 	C 	0.13139 0.60516 0.81839 0.06600
C 	C 	0.17834 0.67498 0.67850 -0.00700
C 	C 	0.17852 0.70234 0.66098 -0.02700
C 	C 	0.20269 0.72547 0.61575 -0.06100
C 	C 	0.22670 0.72129 0.58798 0.03600
C 	C 	0.22650 0.69389 0.60554 -0.06000
C 	C 	0.20233 0.67076 0.65078 -0.02600
H 	H 	0.07834 0.62407 0.77206 0.02100
H 	H 	0.12060 0.66342 0.69525 0.06600
H 	H 	0.17642 0.62890 0.77455 0.06400
H 	H 	0.13425 0.58975 0.85097 0.03700
H 	H 	0.16126 0.70537 0.68093 0.03800
H 	H 	0.20279 0.74513 0.60319 0.04800
H 	H 	0.24375 0.69084 0.58562 0.04900
H 	H 	0.20220 0.65108 0.66338 0.04200
F 	F 	0.02672 0.52820 0.60509 -0.25800
O 	O 	0.43524 0.51681 0.92759 -0.61700
O 	O 	0.43041 0.47708 0.85219 -0.67000
C 	C 	0.42155 0.49728 0.86705 0.50000
C 	C 	0.39631 0.49915 0.81778 -0.13700
C 	C 	0.37489 0.47376 0.77250 0.06800
C 	C 	0.35199 0.47545 0.72782 -0.09800
C 	C 	0.34997 0.50223 0.72731 0.06100
C 	C 	0.37196 0.52793 0.77372 -0.09700
C 	C 	0.39484 0.52623 0.81839 0.06600
C 	C 	0.32502 0.50336 0.67850 -0.00700
C 	C 	0.29766 0.47618 0.66098 -0.02700
C 	C 	0.27453 0.47722 0.61575 -0.06100
C 	C 	0.27871 0.50541 0.58798 0.03600
C 	C 	0.30611 0.53261 0.60554 -0.05900
C 	C 	0.32924 0.53157 0.65078 -0.02700
H 	H 	0.37593 0.45427 0.77206 0.02100
H 	H 	0.33658 0.45718 0.69525 0.06700
H 	H 	0.37110 0.54752 0.77455 0.06400
H 	H 	0.41025 0.54450 0.85097 0.03700
H 	H 	0.29463 0.45589 0.68093 0.03800
H 	H 	0.25487 0.45766 0.60319 0.04800
H 	H 	0.30916 0.55291 0.58562 0.04900
H 	H 	0.34892 0.55112 0.66338 0.04200
F 	F 	0.47180 0.49852 0.60509 -0.25800
O 	O 	0.51681 0.08157 0.92759 -0.61700
O 	O 	0.47708 0.04667 0.85219 -0.67100
C 	C 	0.49728 0.07573 0.86705 0.50000
C 	C 	0.49915 0.10284 0.81778 -0.13700
C 	C 	0.47376 0.09887 0.77250 0.06800
C 	C 	0.47545 0.12346 0.72782 -0.09900
C 	C 	0.50223 0.15226 0.72731 0.06100
C 	C 	0.52793 0.15597 0.77372 -0.09700
C 	C 	0.52623 0.13139 0.81839 0.06600
C 	C 	0.50336 0.17834 0.67850 -0.00700
C 	C 	0.47618 0.17852 0.66098 -0.02700
C 	C 	0.47722 0.20269 0.61575 -0.06100
C 	C 	0.50541 0.22670 0.58798 0.03600
C 	C 	0.53261 0.22650 0.60554 -0.06000
C 	C 	0.53157 0.20233 0.65078 -0.02700
H 	H 	0.45427 0.07834 0.77206 0.02100
H 	H 	0.45718 0.12060 0.69525 0.06600
H 	H 	0.54752 0.17642 0.77455 0.06400
H 	H 	0.54450 0.13425 0.85097 0.03700
H 	H 	0.45589 0.16126 0.68093 0.03800
H 	H 	0.45766 0.20279 0.60319 0.04800
H 	H 	0.55291 0.24375 0.58562 0.04900
H 	H 	0.55112 0.20220 0.66338 0.04200
F 	F 	0.49852 0.02672 0.60509 -0.25800
O 	O 	0.91843 0.43524 0.92759 -0.61700
O 	O 	0.95333 0.43041 0.85219 -0.66700
C 	C 	0.92427 0.42155 0.86705 0.50000
C 	C 	0.89716 0.39631 0.81778 -0.13600
C 	C 	0.90113 0.37489 0.77250 0.06800
C 	C 	0.87654 0.35199 0.72782 -0.09800
C 	C 	0.84774 0.34997 0.72731 0.06100
C 	C 	0.84403 0.37196 0.77372 -0.09700
C 	C 	0.86861 0.39484 0.81839 0.06500
C 	C 	0.82166 0.32502 0.67850 -0.00700
C 	C 	0.82148 0.29766 0.66098 -0.02700
C 	C 	0.79731 0.27453 0.61575 -0.06000
C 	C 	0.77330 0.27871 0.58798 0.03600
C 	C 	0.77350 0.30611 0.60554 -0.05900
C 	C 	0.79767 0.32924 0.65078 -0.02700
H 	H 	0.92166 0.37593 0.77206 0.02300
H 	H 	0.87940 0.33658 0.69525 0.06700
H 	H 	0.82358 0.37110 0.77455 0.06400
H 	H 	0.86575 0.41025 0.85097 0.03800
H 	H 	0.83874 0.29463 0.68093 0.03900
H 	H 	0.79721 0.25487 0.60319 0.04800
H 	H 	0.75625 0.30916 0.58562 0.04900
H 	H 	0.79780 0.34892 0.66338 0.04200
F 	F 	0.97328 0.47180 0.60509 -0.25200
O 	O 	0.56476 0.48319 0.92759 -0.61700
O 	O 	0.56959 0.52292 0.85219 -0.67000
C 	C 	0.57845 0.50272 0.86705 0.50000
C 	C 	0.60369 0.50085 0.81778 -0.13700
C 	C 	0.62511 0.52624 0.77250 0.06800
C 	C 	0.64801 0.52455 0.72782 -0.09800
C 	C 	0.65003 0.49777 0.72731 0.06100
C 	C 	0.62804 0.47207 0.77372 -0.09700
C 	C 	0.60516 0.47377 0.81839 0.06600
C 	C 	0.67498 0.49664 0.67850 -0.00700
C 	C 	0.70234 0.52382 0.66098 -0.02700
C 	C 	0.72547 0.52278 0.61575 -0.06100
C 	C 	0.72129 0.49459 0.58798 0.03600
C 	C 	0.69389 0.46739 0.60554 -0.05900
C 	C 	0.67076 0.46843 0.65078 -0.02700
H 	H 	0.62407 0.54573 0.77206 0.02200
H 	H 	0.66342 0.54282 0.69525 0.06700
H 	H 	0.62890 0.45248 0.77455 0.06400
H 	H 	0.58975 0.45550 0.85097 0.03700
H 	H 	0.70537 0.54411 0.68093 0.03900
H 	H 	0.74513 0.54234 0.60319 0.04800
H 	H 	0.69084 0.44709 0.58562 0.04900
H 	H 	0.65108 0.44888 0.66338 0.04200
F 	F 	0.52820 0.50148 0.60509 -0.25800
O 	O 	0.91843 0.48319 0.07241 -0.64000
O 	O 	0.95333 0.52292 0.14781 -0.67600
C 	C 	0.92427 0.50272 0.13295 0.50100
C 	C 	0.89716 0.50085 0.18222 -0.14300
C 	C 	0.90113 0.52624 0.22750 0.06800
C 	C 	0.87654 0.52455 0.27218 -0.10100
C 	C 	0.84774 0.49777 0.27269 0.06000
C 	C 	0.84403 0.47207 0.22628 -0.10100
C 	C 	0.86861 0.47377 0.18161 0.06500
C 	C 	0.82166 0.49664 0.32150 -0.01000
C 	C 	0.82148 0.52382 0.33902 -0.02800
C 	C 	0.79731 0.52278 0.38425 -0.06300
C 	C 	0.77330 0.49459 0.41202 0.03600
C 	C 	0.77350 0.46739 0.39446 -0.06100
C 	C 	0.79767 0.46843 0.34922 -0.02700
H 	H 	0.92166 0.54573 0.22794 0.01800
H 	H 	0.87940 0.54282 0.30475 0.06600
H 	H 	0.82358 0.45248 0.22545 0.06000
H 	H 	0.86575 0.45550 0.14903 0.03100
H 	H 	0.83874 0.54411 0.31907 0.03500
H 	H 	0.79721 0.54234 0.39681 0.04700
H 	H 	0.75625 0.44709 0.41438 0.04800
H 	H 	0.79780 0.44888 0.33662 0.04000
F 	F 	0.97328 0.50148 0.39491 -0.25200
O 	O 	0.56476 0.08157 0.07241 -0.64000
O 	O 	0.56959 0.04667 0.14781 -0.68100
C 	C 	0.57845 0.07573 0.13295 0.50200
C 	C 	0.60369 0.10284 0.18222 -0.14500
C 	C 	0.62511 0.09887 0.22750 0.06800
C 	C 	0.64801 0.12346 0.27218 -0.10200
C 	C 	0.65003 0.15226 0.27269 0.06000
C 	C 	0.62804 0.15597 0.22628 -0.10200
C 	C 	0.60516 0.13139 0.18161 0.06500
C 	C 	0.67498 0.17834 0.32150 -0.01000
C 	C 	0.70234 0.17852 0.33902 -0.02800
C 	C 	0.72547 0.20269 0.38425 -0.06300
C 	C 	0.72129 0.22670 0.41202 0.03600
C 	C 	0.69389 0.22650 0.39446 -0.06200
C 	C 	0.67076 0.20233 0.34922 -0.02700
H 	H 	0.62407 0.07834 0.22794 0.01600
H 	H 	0.66342 0.12060 0.30475 0.06500
H 	H 	0.62890 0.17642 0.22545 0.06000
H 	H 	0.58975 0.13425 0.14903 0.03100
H 	H 	0.70537 0.16126 0.31907 0.03500
H 	H 	0.74513 0.20279 0.39681 0.04700
H 	H 	0.69084 0.24375 0.41438 0.04800
H 	H 	0.65108 0.20220 0.33662 0.04000
F 	F 	0.52820 0.02672 0.39491 -0.25800
O 	O 	0.51681 0.43524 0.07241 -0.64000
O 	O 	0.47708 0.43041 0.14781 -0.68000
C 	C 	0.49728 0.42155 0.13295 0.50100
C 	C 	0.49915 0.39631 0.18222 -0.14400
C 	C 	0.47376 0.37489 0.22750 0.06800
C 	C 	0.47545 0.35199 0.27218 -0.10200
C 	C 	0.50223 0.34997 0.27269 0.06000
C 	C 	0.52793 0.37196 0.22628 -0.10200
C 	C 	0.52623 0.39484 0.18161 0.06500
C 	C 	0.50336 0.32502 0.32150 -0.01000
C 	C 	0.47618 0.29766 0.33902 -0.02800
C 	C 	0.47722 0.27453 0.38425 -0.06300
C 	C 	0.50541 0.27871 0.41202 0.03600
C 	C 	0.53261 0.30611 0.39446 -0.06200
C 	C 	0.53157 0.32924 0.34922 -0.02700
H 	H 	0.45427 0.37593 0.22794 0.01600
H 	H 	0.45718 0.33658 0.30475 0.06500
H 	H 	0.54752 0.37110 0.22545 0.06000
H 	H 	0.54450 0.41025 0.14903 0.03100
H 	H 	0.45589 0.29463 0.31907 0.03400
H 	H 	0.45766 0.25487 0.39681 0.04600
H 	H 	0.55291 0.30916 0.41438 0.04800
H 	H 	0.55112 0.34892 0.33662 0.04000
F 	F 	0.49852 0.47180 0.39491 -0.25800
O 	O 	0.08157 0.51681 0.07241 -0.64000
O 	O 	0.04667 0.47708 0.14781 -0.68100
C 	C 	0.07573 0.49728 0.13295 0.50200
C 	C 	0.10284 0.49915 0.18222 -0.14500
C 	C 	0.09887 0.47376 0.22750 0.06800
C 	C 	0.12346 0.47545 0.27218 -0.10200
C 	C 	0.15226 0.50223 0.27269 0.06000
C 	C 	0.15597 0.52793 0.22628 -0.10200
C 	C 	0.13139 0.52623 0.18161 0.06500
C 	C 	0.17834 0.50336 0.32150 -0.01000
C 	C 	0.17852 0.47618 0.33902 -0.02800
C 	C 	0.20269 0.47722 0.38425 -0.06300
C 	C 	0.22670 0.50541 0.41202 0.03600
C 	C 	0.22650 0.53261 0.39446 -0.06200
C 	C 	0.20233 0.53157 0.34922 -0.02700
H 	H 	0.07834 0.45427 0.22794 0.01600
H 	H 	0.12060 0.45718 0.30475 0.06500
H 	H 	0.17642 0.54752 0.22545 0.06000
H 	H 	0.13425 0.54450 0.14903 0.03100
H 	H 	0.16126 0.45589 0.31907 0.03400
H 	H 	0.20279 0.45766 0.39681 0.04600
H 	H 	0.24375 0.55291 0.41438 0.04800
H 	H 	0.20220 0.55112 0.33662 0.04000
F 	F 	0.02672 0.49852 0.39491 -0.25800
O 	O 	0.43524 0.91843 0.07241 -0.64000
O 	O 	0.43041 0.95333 0.14781 -0.67600
C 	C 	0.42155 0.92427 0.13295 0.50100
C 	C 	0.39631 0.89716 0.18222 -0.14400
C 	C 	0.37489 0.90113 0.22750 0.06800
C 	C 	0.35199 0.87654 0.27218 -0.10100
C 	C 	0.34997 0.84774 0.27269 0.06000
C 	C 	0.37196 0.84403 0.22628 -0.10100
C 	C 	0.39484 0.86861 0.18161 0.06500
C 	C 	0.32502 0.82166 0.32150 -0.01000
C 	C 	0.29766 0.82148 0.33902 -0.02800
C 	C 	0.27453 0.79731 0.38425 -0.06300
C 	C 	0.27871 0.77330 0.41202 0.03600
C 	C 	0.30611 0.77350 0.39446 -0.06100
C 	C 	0.32924 0.79767 0.34922 -0.02700
H 	H 	0.37593 0.92166 0.22794 0.01800
H 	H 	0.33658 0.87940 0.30475 0.06600
H 	H 	0.37110 0.82358 0.22545 0.06000
H 	H 	0.41025 0.86575 0.14903 0.03100
H 	H 	0.29463 0.83874 0.31907 0.03500
H 	H 	0.25487 0.79721 0.39681 0.04700
H 	H 	0.30916 0.75625 0.41438 0.04800
H 	H 	0.34892 0.79780 0.33662 0.04000
F 	F 	0.47180 0.97328 0.39491 -0.25200
O 	O 	0.48319 0.56476 0.07241 -0.64000
O 	O 	0.52292 0.56959 0.14781 -0.67900
C 	C 	0.50272 0.57845 0.13295 0.50100
C 	C 	0.50085 0.60369 0.18222 -0.14400
C 	C 	0.52624 0.62511 0.22750 0.06800
C 	C 	0.52455 0.64801 0.27218 -0.10200
C 	C 	0.49777 0.65003 0.27269 0.06000
C 	C 	0.47207 0.62804 0.22628 -0.10200
C 	C 	0.47377 0.60516 0.18161 0.06500
C 	C 	0.49664 0.67498 0.32150 -0.01000
C 	C 	0.52382 0.70234 0.33902 -0.02800
C 	C 	0.52278 0.72547 0.38425 -0.06300
C 	C 	0.49459 0.72129 0.41202 0.03600
C 	C 	0.46739 0.69389 0.39446 -0.06200
C 	C 	0.46843 0.67076 0.34922 -0.02700
H 	H 	0.54573 0.62407 0.22794 0.01700
H 	H 	0.54282 0.66342 0.30475 0.06500
H 	H 	0.45248 0.62890 0.22545 0.06000
H 	H 	0.45550 0.58975 0.14903 0.03100
H 	H 	0.54411 0.70537 0.31907 0.03500
H 	H 	0.54234 0.74513 0.39681 0.04700
H 	H 	0.44709 0.69084 0.41438 0.04800
H 	H 	0.44888 0.65108 0.33662 0.04000
F 	F 	0.50148 0.52820 0.39491 -0.25800
Zr	Zr	0.46388 0.00000 0.10830 3.19100
O 	O 	0.47616 0.00000 0.23155 -0.57100
F 	F 	0.47145 0.00000 0.39491 -0.22800
Zr	Zr	-0.00000 0.46388 0.10830 3.19100
O 	O 	0.00000 0.47616 0.23155 -0.57100
F 	F 	-0.00000 0.47145 0.39491 -0.22800
Zr	Zr	0.53612 0.53612 0.10830 3.19200
O 	O 	0.52384 0.52384 0.23155 -0.56700
F 	F 	0.52855 0.52855 0.39491 -0.22400
Zr	Zr	0.53612 0.00000 0.10830 3.19100
O 	O 	0.52384 0.00000 0.23155 -0.57100
F 	F 	0.52855 0.00000 0.39491 -0.22800
Zr	Zr	-0.00000 0.53612 0.10830 3.19100
O 	O 	-0.00000 0.52384 0.23155 -0.57100
F 	F 	-0.00000 0.52855 0.39491 -0.22800
Zr	Zr	0.46388 0.46388 0.10830 3.19200
O 	O 	0.47616 0.47616 0.23155 -0.56700
F 	F 	0.47145 0.47145 0.39491 -0.22400
Zr	Zr	-0.00000 0.46388 0.89170 3.19300
O 	O 	0.00000 0.47616 0.76845 -0.56900
F 	F 	-0.00000 0.47145 0.60509 -0.22700
Zr	Zr	0.46388 0.00000 0.89170 3.19300
O 	O 	0.47616 0.00000 0.76845 -0.56900
F 	F 	0.47145 0.00000 0.60509 -0.22700
Zr	Zr	0.53612 0.53612 0.89170 3.19400
O 	O 	0.52384 0.52384 0.76845 -0.56600
F 	F 	0.52855 0.52855 0.60509 -0.22400
Zr	Zr	-0.00000 0.53612 0.89170 3.19300
O 	O 	-0.00000 0.52384 0.76845 -0.56900
F 	F 	-0.00000 0.52855 0.60509 -0.22700
Zr	Zr	0.53612 0.00000 0.89170 3.19300
O 	O 	0.52384 0.00000 0.76845 -0.56900
F 	F 	0.52855 0.00000 0.60509 -0.22700
Zr	Zr	0.46388 0.46388 0.89170 3.19400
O 	O 	0.47616 0.47616 0.76845 -0.56600
F 	F 	0.47145 0.47145 0.60509 -0.22400
Zr	Zr	0.52669 0.05338 -0.00000 3.21800
Zr	Zr	0.94662 0.47331 -0.00000 3.21800
Zr	Zr	0.52669 0.47331 -0.00000 3.21800
Zr	Zr	0.47331 0.94662 -0.00000 3.21800
Zr	Zr	0.05338 0.52669 -0.00000 3.21800
Zr	Zr	0.47331 0.52669 -0.00000 3.21800
O 	O 	0.51338 0.02676 0.10884 -1.27000
O 	O 	0.97324 0.48662 0.10884 -1.26400
O 	O 	0.51338 0.48662 0.10884 -1.26800
O 	O 	0.48662 0.97324 0.10884 -1.26400
O 	O 	0.02676 0.51338 0.10884 -1.27000
O 	O 	0.48662 0.51338 0.10884 -1.26800
O 	O 	0.02676 0.51338 0.89116 -1.25800
O 	O 	0.48662 0.97324 0.89116 -1.25200
O 	O 	0.48662 0.51338 0.89116 -1.25600
O 	O 	0.97324 0.48662 0.89116 -1.25200
O 	O 	0.51338 0.02676 0.89116 -1.25800
O 	O 	0.51338 0.48662 0.89116 -1.25600
O 	O 	0.47682 0.03079 -0.00000 -1.28800
O 	O 	0.96921 0.44603 -0.00000 -1.28200
O 	O 	0.55397 0.52318 -0.00000 -1.28500
O 	O 	0.52318 0.96921 -0.00000 -1.28200
O 	O 	0.03079 0.55397 -0.00000 -1.28800
O 	O 	0.44603 0.47682 -0.00000 -1.28500
O 	O 	0.03079 0.47682 -0.00000 -1.28800
O 	O 	0.44603 0.96921 -0.00000 -1.28200
O 	O 	0.52318 0.55397 -0.00000 -1.28500
O 	O 	0.96921 0.52318 -0.00000 -1.28200
O 	O 	0.55397 0.03079 -0.00000 -1.28800
O 	O 	0.47682 0.44603 -0.00000 -1.28500
C 	C 	0.50980 0.25490 0.45802 -0.03100
C 	C 	0.74510 0.25490 0.45802 -0.03100
C 	C 	0.74510 0.49020 0.45802 -0.03100
C 	C 	0.49020 0.74510 0.45802 -0.03100
C 	C 	0.25490 0.74510 0.45802 -0.03100
C 	C 	0.25490 0.50980 0.45802 -0.03100
C 	C 	0.25490 0.50980 0.54198 -0.03000
C 	C 	0.25490 0.74510 0.54198 -0.03000
C 	C 	0.49020 0.74510 0.54198 -0.02900
C 	C 	0.74510 0.49020 0.54198 -0.02900
C 	C 	0.74510 0.25490 0.54198 -0.03000
C 	C 	0.50980 0.25490 0.54198 -0.03000
C 	C 	0.50000 -0.00000 0.27106 0.32700
C 	C 	0.50000 0.00000 0.36606 0.80200
C 	C 	0.00000 0.50000 0.27106 0.32700
C 	C 	0.00000 0.50000 0.36606 0.80200
C 	C 	0.50000 0.50000 0.27106 0.32700
C 	C 	0.50000 0.50000 0.36606 0.81000
C 	C 	0.00000 0.50000 0.72894 0.32600
C 	C 	0.00000 0.50000 0.63394 0.80300
C 	C 	0.50000 0.00000 0.72894 0.32600
C 	C 	0.50000 0.00000 0.63394 0.80300
C 	C 	0.50000 0.50000 0.72894 0.32600
C 	C 	0.50000 0.50000 0.63394 0.81000
