data_crystal

_cell_length_a 50.72000
_cell_length_b 50.72000
_cell_length_c 15.50200
_cell_angle_alpha 90.00000
_cell_angle_beta  90.00000
_cell_angle_gamma 120.00000

_symmetry_space_group_name_	'P 1'
_symmetry_space_group_name_H-M	'P 1'

loop_
_symmetry_equiv_pos_as_xyz
  x,y,z

loop_
_atom_site_label
_atom_site_type_symbol
_atom_site_fract_x
_atom_site_fract_y
_atom_site_fract_z
_atom_site_charge
O 	O 	0.51047 0.07494 0.09308 -0.69000
O 	O 	0.47000 0.04220 0.16605 -0.79000
C 	C 	0.48970 0.06984 0.14833 0.54900
C 	C 	0.48787 0.09579 0.19334 -0.20200
C 	C 	0.45968 0.09241 0.21417 0.07800
C 	C 	0.45802 0.11594 0.25498 -0.13100
C 	C 	0.48417 0.14309 0.27572 0.06700
C 	C 	0.51273 0.14622 0.25413 -0.12500
C 	C 	0.51439 0.12269 0.21332 0.07700
C 	C 	0.48165 0.16790 0.31947 -0.02700
C 	C 	0.45505 0.16133 0.36274 -0.01600
C 	C 	0.45271 0.18448 0.40355 -0.07200
C 	C 	0.47694 0.21420 0.40116 0.03700
C 	C 	0.50357 0.22075 0.35782 -0.06700
C 	C 	0.50591 0.19761 0.31701 -0.02400
H 	H 	0.44060 0.07306 0.19980 -0.01400
H 	H 	0.43775 0.11351 0.26996 0.05700
H 	H 	0.53194 0.16549 0.26824 0.06100
H 	H 	0.53466 0.12512 0.19834 0.00500
H 	H 	0.43601 0.13801 0.36467 0.02100
H 	H 	0.43356 0.17972 0.43466 0.04400
H 	H 	0.52103 0.24212 0.35603 0.04500
H 	H 	0.52505 0.20233 0.28588 0.03000
O 	O 	0.92506 0.43553 0.09308 -0.69100
O 	O 	0.95780 0.42780 0.16605 -0.78600
C 	C 	0.93016 0.41986 0.14833 0.54900
C 	C 	0.90421 0.39208 0.19334 -0.20100
C 	C 	0.90759 0.36727 0.21417 0.07800
C 	C 	0.88406 0.34208 0.25498 -0.13000
C 	C 	0.85691 0.34108 0.27572 0.06700
C 	C 	0.85378 0.36651 0.25413 -0.12500
C 	C 	0.87731 0.39170 0.21332 0.07600
C 	C 	0.83210 0.31375 0.31947 -0.02600
C 	C 	0.83867 0.29372 0.36274 -0.01600
C 	C 	0.81552 0.26823 0.40355 -0.07200
C 	C 	0.78580 0.26274 0.40116 0.03700
C 	C 	0.77925 0.28282 0.35782 -0.06700
C 	C 	0.80239 0.30830 0.31701 -0.02400
H 	H 	0.92694 0.36754 0.19980 -0.01200
H 	H 	0.88649 0.32424 0.26996 0.05800
H 	H 	0.83451 0.36645 0.26824 0.06100
H 	H 	0.87488 0.40954 0.19834 0.00600
H 	H 	0.86199 0.29800 0.36467 0.02200
H 	H 	0.82028 0.25384 0.43466 0.04500
H 	H 	0.75788 0.27891 0.35603 0.04500
H 	H 	0.79767 0.32272 0.28588 0.03000
O 	O 	0.56447 0.48953 0.09308 -0.69100
O 	O 	0.57220 0.53000 0.16605 -0.78900
C 	C 	0.58014 0.51030 0.14833 0.54900
C 	C 	0.60792 0.51213 0.19334 -0.20100
C 	C 	0.63273 0.54032 0.21417 0.07800
C 	C 	0.65792 0.54198 0.25498 -0.13000
C 	C 	0.65892 0.51583 0.27572 0.06700
C 	C 	0.63349 0.48727 0.25413 -0.12500
C 	C 	0.60830 0.48561 0.21332 0.07700
C 	C 	0.68625 0.51835 0.31947 -0.02600
C 	C 	0.70628 0.54495 0.36274 -0.01600
C 	C 	0.73177 0.54729 0.40355 -0.07200
C 	C 	0.73726 0.52306 0.40116 0.03700
C 	C 	0.71718 0.49643 0.35782 -0.06700
C 	C 	0.69170 0.49409 0.31701 -0.02400
H 	H 	0.63246 0.55940 0.19980 -0.01300
H 	H 	0.67576 0.56225 0.26996 0.05800
H 	H 	0.63355 0.46806 0.26824 0.06100
H 	H 	0.59046 0.46534 0.19834 0.00600
H 	H 	0.70200 0.56399 0.36467 0.02200
H 	H 	0.74616 0.56644 0.43466 0.04500
H 	H 	0.72109 0.47897 0.35603 0.04500
H 	H 	0.67728 0.47495 0.28588 0.03000
O 	O 	0.48953 0.92506 0.09308 -0.69100
O 	O 	0.53000 0.95780 0.16605 -0.78600
C 	C 	0.51030 0.93016 0.14833 0.54900
C 	C 	0.51213 0.90421 0.19334 -0.20100
C 	C 	0.54032 0.90759 0.21417 0.07800
C 	C 	0.54198 0.88406 0.25498 -0.13000
C 	C 	0.51583 0.85691 0.27572 0.06700
C 	C 	0.48727 0.85378 0.25413 -0.12500
C 	C 	0.48561 0.87731 0.21332 0.07600
C 	C 	0.51835 0.83210 0.31947 -0.02600
C 	C 	0.54495 0.83867 0.36274 -0.01600
C 	C 	0.54729 0.81552 0.40355 -0.07200
C 	C 	0.52306 0.78580 0.40116 0.03700
C 	C 	0.49643 0.77925 0.35782 -0.06700
C 	C 	0.49409 0.80239 0.31701 -0.02400
H 	H 	0.55940 0.92694 0.19980 -0.01200
H 	H 	0.56225 0.88649 0.26996 0.05800
H 	H 	0.46806 0.83451 0.26824 0.06100
H 	H 	0.46534 0.87488 0.19834 0.00600
H 	H 	0.56399 0.86199 0.36467 0.02200
H 	H 	0.56644 0.82028 0.43466 0.04500
H 	H 	0.47897 0.75788 0.35603 0.04500
H 	H 	0.47495 0.79767 0.28588 0.03000
O 	O 	0.07494 0.56447 0.09308 -0.69100
O 	O 	0.04220 0.57220 0.16605 -0.79100
C 	C 	0.06984 0.58014 0.14833 0.55000
C 	C 	0.09579 0.60792 0.19334 -0.20200
C 	C 	0.09241 0.63273 0.21417 0.07800
C 	C 	0.11594 0.65792 0.25498 -0.13100
C 	C 	0.14309 0.65892 0.27572 0.06700
C 	C 	0.14622 0.63349 0.25413 -0.12500
C 	C 	0.12269 0.60830 0.21332 0.07700
C 	C 	0.16790 0.68625 0.31947 -0.02700
C 	C 	0.16133 0.70628 0.36274 -0.01600
C 	C 	0.18448 0.73177 0.40355 -0.07200
C 	C 	0.21420 0.73726 0.40116 0.03700
C 	C 	0.22075 0.71718 0.35782 -0.06800
C 	C 	0.19761 0.69170 0.31701 -0.02400
H 	H 	0.07306 0.63246 0.19980 -0.01400
H 	H 	0.11351 0.67576 0.26996 0.05700
H 	H 	0.16549 0.63355 0.26824 0.06100
H 	H 	0.12512 0.59046 0.19834 0.00500
H 	H 	0.13801 0.70200 0.36467 0.02100
H 	H 	0.17972 0.74616 0.43466 0.04500
H 	H 	0.24212 0.72109 0.35603 0.04500
H 	H 	0.20233 0.67728 0.28588 0.03000
O 	O 	0.43553 0.51047 0.09308 -0.69100
O 	O 	0.42780 0.47000 0.16605 -0.78900
C 	C 	0.41986 0.48970 0.14833 0.54900
C 	C 	0.39208 0.48787 0.19334 -0.20100
C 	C 	0.36727 0.45968 0.21417 0.07800
C 	C 	0.34208 0.45802 0.25498 -0.13000
C 	C 	0.34108 0.48417 0.27572 0.06700
C 	C 	0.36651 0.51273 0.25413 -0.12500
C 	C 	0.39170 0.51439 0.21332 0.07700
C 	C 	0.31375 0.48165 0.31947 -0.02600
C 	C 	0.29372 0.45505 0.36274 -0.01600
C 	C 	0.26823 0.45271 0.40355 -0.07200
C 	C 	0.26274 0.47694 0.40116 0.03700
C 	C 	0.28282 0.50357 0.35782 -0.06700
C 	C 	0.30830 0.50591 0.31701 -0.02400
H 	H 	0.36754 0.44060 0.19980 -0.01300
H 	H 	0.32424 0.43775 0.26996 0.05700
H 	H 	0.36645 0.53194 0.26824 0.06100
H 	H 	0.40954 0.53466 0.19834 0.00600
H 	H 	0.29800 0.43601 0.36467 0.02100
H 	H 	0.25384 0.43356 0.43466 0.04500
H 	H 	0.27891 0.52103 0.35603 0.04500
H 	H 	0.32272 0.52505 0.28588 0.03000
O 	O 	0.07494 0.51047 0.90692 -0.67600
O 	O 	0.04220 0.47000 0.83395 -0.78400
C 	C 	0.06984 0.48970 0.85167 0.54900
C 	C 	0.09579 0.48787 0.80666 -0.19600
C 	C 	0.09241 0.45968 0.78583 0.07800
C 	C 	0.11594 0.45802 0.74502 -0.12700
C 	C 	0.14309 0.48417 0.72428 0.06800
C 	C 	0.14622 0.51273 0.74587 -0.12200
C 	C 	0.12269 0.51439 0.78668 0.07700
C 	C 	0.16790 0.48165 0.68053 -0.02400
C 	C 	0.16133 0.45505 0.63726 -0.01500
C 	C 	0.18448 0.45271 0.59645 -0.07000
C 	C 	0.21420 0.47694 0.59884 0.03800
C 	C 	0.22075 0.50357 0.64218 -0.06600
C 	C 	0.19761 0.50591 0.68299 -0.02300
H 	H 	0.07306 0.44060 0.80020 -0.00900
H 	H 	0.11351 0.43775 0.73004 0.05900
H 	H 	0.16549 0.53194 0.73176 0.06300
H 	H 	0.12512 0.53466 0.80166 0.00900
H 	H 	0.13801 0.43601 0.63533 0.02300
H 	H 	0.17972 0.43356 0.56534 0.04500
H 	H 	0.24212 0.52103 0.64397 0.04700
H 	H 	0.20233 0.52505 0.71412 0.03400
O 	O 	0.43553 0.92506 0.90692 -0.67500
O 	O 	0.42780 0.95780 0.83395 -0.77900
C 	C 	0.41986 0.93016 0.85167 0.54800
C 	C 	0.39208 0.90421 0.80666 -0.19500
C 	C 	0.36727 0.90759 0.78583 0.07800
C 	C 	0.34208 0.88406 0.74502 -0.12600
C 	C 	0.34108 0.85691 0.72428 0.06800
C 	C 	0.36651 0.85378 0.74587 -0.12200
C 	C 	0.39170 0.87731 0.78668 0.07700
C 	C 	0.31375 0.83210 0.68053 -0.02400
C 	C 	0.29372 0.83867 0.63726 -0.01500
C 	C 	0.26823 0.81552 0.59645 -0.07000
C 	C 	0.26274 0.78580 0.59884 0.03800
C 	C 	0.28282 0.77925 0.64218 -0.06600
C 	C 	0.30830 0.80239 0.68299 -0.02300
H 	H 	0.36754 0.92694 0.80020 -0.00600
H 	H 	0.32424 0.88649 0.73004 0.06000
H 	H 	0.36645 0.83451 0.73176 0.06300
H 	H 	0.40954 0.87488 0.80166 0.01000
H 	H 	0.29800 0.86199 0.63533 0.02300
H 	H 	0.25384 0.82028 0.56534 0.04600
H 	H 	0.27891 0.75788 0.64397 0.04700
H 	H 	0.32272 0.79767 0.71412 0.03400
O 	O 	0.48953 0.56447 0.90692 -0.67600
O 	O 	0.53000 0.57220 0.83395 -0.78200
C 	C 	0.51030 0.58014 0.85167 0.54900
C 	C 	0.51213 0.60792 0.80666 -0.19500
C 	C 	0.54032 0.63273 0.78583 0.07800
C 	C 	0.54198 0.65792 0.74502 -0.12700
C 	C 	0.51583 0.65892 0.72428 0.06800
C 	C 	0.48727 0.63349 0.74587 -0.12200
C 	C 	0.48561 0.60830 0.78668 0.07700
C 	C 	0.51835 0.68625 0.68053 -0.02400
C 	C 	0.54495 0.70628 0.63726 -0.01500
C 	C 	0.54729 0.73177 0.59645 -0.07000
C 	C 	0.52306 0.73726 0.59884 0.03800
C 	C 	0.49643 0.71718 0.64218 -0.06600
C 	C 	0.49409 0.69170 0.68299 -0.02300
H 	H 	0.55940 0.63246 0.80020 -0.00700
H 	H 	0.56225 0.67576 0.73004 0.06000
H 	H 	0.46806 0.63355 0.73176 0.06300
H 	H 	0.46534 0.59046 0.80166 0.00900
H 	H 	0.56399 0.70200 0.63533 0.02300
H 	H 	0.56644 0.74616 0.56534 0.04600
H 	H 	0.47897 0.72109 0.64397 0.04700
H 	H 	0.47495 0.67728 0.71412 0.03400
O 	O 	0.92506 0.48953 0.90692 -0.67500
O 	O 	0.95780 0.53000 0.83395 -0.77900
C 	C 	0.93016 0.51030 0.85167 0.54800
C 	C 	0.90421 0.51213 0.80666 -0.19400
C 	C 	0.90759 0.54032 0.78583 0.07800
C 	C 	0.88406 0.54198 0.74502 -0.12600
C 	C 	0.85691 0.51583 0.72428 0.06800
C 	C 	0.85378 0.48727 0.74587 -0.12200
C 	C 	0.87731 0.48561 0.78668 0.07700
C 	C 	0.83210 0.51835 0.68053 -0.02400
C 	C 	0.83867 0.54495 0.63726 -0.01500
C 	C 	0.81552 0.54729 0.59645 -0.07000
C 	C 	0.78580 0.52306 0.59884 0.03800
C 	C 	0.77925 0.49643 0.64218 -0.06600
C 	C 	0.80239 0.49409 0.68299 -0.02300
H 	H 	0.92694 0.55940 0.80020 -0.00600
H 	H 	0.88649 0.56225 0.73004 0.06000
H 	H 	0.83451 0.46806 0.73176 0.06300
H 	H 	0.87488 0.46534 0.80166 0.01000
H 	H 	0.86199 0.56399 0.63533 0.02400
H 	H 	0.82028 0.56644 0.56534 0.04600
H 	H 	0.75788 0.47897 0.64397 0.04700
H 	H 	0.79767 0.47495 0.71412 0.03400
O 	O 	0.56447 0.07494 0.90692 -0.67600
O 	O 	0.57220 0.04220 0.83395 -0.78400
C 	C 	0.58014 0.06984 0.85167 0.54900
C 	C 	0.60792 0.09579 0.80666 -0.19600
C 	C 	0.63273 0.09241 0.78583 0.07800
C 	C 	0.65792 0.11594 0.74502 -0.12700
C 	C 	0.65892 0.14309 0.72428 0.06800
C 	C 	0.63349 0.14622 0.74587 -0.12200
C 	C 	0.60830 0.12269 0.78668 0.07700
C 	C 	0.68625 0.16790 0.68053 -0.02400
C 	C 	0.70628 0.16133 0.63726 -0.01500
C 	C 	0.73177 0.18448 0.59645 -0.07000
C 	C 	0.73726 0.21420 0.59884 0.03800
C 	C 	0.71718 0.22075 0.64218 -0.06600
C 	C 	0.69170 0.19761 0.68299 -0.02300
H 	H 	0.63246 0.07306 0.80020 -0.00800
H 	H 	0.67576 0.11351 0.73004 0.06000
H 	H 	0.63355 0.16549 0.73176 0.06300
H 	H 	0.59046 0.12512 0.80166 0.00900
H 	H 	0.70200 0.13801 0.63533 0.02300
H 	H 	0.74616 0.17972 0.56534 0.04500
H 	H 	0.72109 0.24212 0.64397 0.04700
H 	H 	0.67728 0.20233 0.71412 0.03400
O 	O 	0.51047 0.43553 0.90692 -0.67600
O 	O 	0.47000 0.42780 0.83395 -0.78200
C 	C 	0.48970 0.41986 0.85167 0.54900
C 	C 	0.48787 0.39208 0.80666 -0.19500
C 	C 	0.45968 0.36727 0.78583 0.07800
C 	C 	0.45802 0.34208 0.74502 -0.12700
C 	C 	0.48417 0.34108 0.72428 0.06800
C 	C 	0.51273 0.36651 0.74587 -0.12200
C 	C 	0.51439 0.39170 0.78668 0.07700
C 	C 	0.48165 0.31375 0.68053 -0.02400
C 	C 	0.45505 0.29372 0.63726 -0.01500
C 	C 	0.45271 0.26823 0.59645 -0.07000
C 	C 	0.47694 0.26274 0.59884 0.03800
C 	C 	0.50357 0.28282 0.64218 -0.06600
C 	C 	0.50591 0.30830 0.68299 -0.02300
H 	H 	0.44060 0.36754 0.80020 -0.00800
H 	H 	0.43775 0.32424 0.73004 0.06000
H 	H 	0.53194 0.36645 0.73176 0.06300
H 	H 	0.53466 0.40954 0.80166 0.00900
H 	H 	0.43601 0.29800 0.63533 0.02300
H 	H 	0.43356 0.25384 0.56534 0.04500
H 	H 	0.52103 0.27891 0.64397 0.04700
H 	H 	0.52505 0.32272 0.71412 0.03400
O 	O 	0.48953 0.92506 0.90692 -0.67500
O 	O 	0.53000 0.95780 0.83395 -0.77900
C 	C 	0.51030 0.93016 0.85167 0.54800
C 	C 	0.51213 0.90421 0.80666 -0.19400
C 	C 	0.54032 0.90759 0.78583 0.07800
C 	C 	0.54198 0.88406 0.74502 -0.12600
C 	C 	0.51583 0.85691 0.72428 0.06800
C 	C 	0.48727 0.85378 0.74587 -0.12200
C 	C 	0.48561 0.87731 0.78668 0.07700
C 	C 	0.51835 0.83210 0.68053 -0.02400
C 	C 	0.54495 0.83867 0.63726 -0.01500
C 	C 	0.54729 0.81552 0.59645 -0.07000
C 	C 	0.52306 0.78580 0.59884 0.03800
C 	C 	0.49643 0.77925 0.64218 -0.06600
C 	C 	0.49409 0.80239 0.68299 -0.02300
H 	H 	0.55940 0.92694 0.80020 -0.00600
H 	H 	0.56225 0.88649 0.73004 0.06000
H 	H 	0.46806 0.83451 0.73176 0.06300
H 	H 	0.46534 0.87488 0.80166 0.01000
H 	H 	0.56399 0.86199 0.63533 0.02400
H 	H 	0.56644 0.82028 0.56534 0.04600
H 	H 	0.47897 0.75788 0.64397 0.04700
H 	H 	0.47495 0.79767 0.71412 0.03400
O 	O 	0.07494 0.56447 0.90692 -0.67600
O 	O 	0.04220 0.57220 0.83395 -0.78400
C 	C 	0.06984 0.58014 0.85167 0.54900
C 	C 	0.09579 0.60792 0.80666 -0.19600
C 	C 	0.09241 0.63273 0.78583 0.07800
C 	C 	0.11594 0.65792 0.74502 -0.12700
C 	C 	0.14309 0.65892 0.72428 0.06800
C 	C 	0.14622 0.63349 0.74587 -0.12200
C 	C 	0.12269 0.60830 0.78668 0.07700
C 	C 	0.16790 0.68625 0.68053 -0.02400
C 	C 	0.16133 0.70628 0.63726 -0.01500
C 	C 	0.18448 0.73177 0.59645 -0.07000
C 	C 	0.21420 0.73726 0.59884 0.03800
C 	C 	0.22075 0.71718 0.64218 -0.06600
C 	C 	0.19761 0.69170 0.68299 -0.02300
H 	H 	0.07306 0.63246 0.80020 -0.00800
H 	H 	0.11351 0.67576 0.73004 0.06000
H 	H 	0.16549 0.63355 0.73176 0.06300
H 	H 	0.12512 0.59046 0.80166 0.00900
H 	H 	0.13801 0.70200 0.63533 0.02300
H 	H 	0.17972 0.74616 0.56534 0.04500
H 	H 	0.24212 0.72109 0.64397 0.04700
H 	H 	0.20233 0.67728 0.71412 0.03400
O 	O 	0.43553 0.51047 0.90692 -0.67600
O 	O 	0.42780 0.47000 0.83395 -0.78200
C 	C 	0.41986 0.48970 0.85167 0.54900
C 	C 	0.39208 0.48787 0.80666 -0.19500
C 	C 	0.36727 0.45968 0.78583 0.07800
C 	C 	0.34208 0.45802 0.74502 -0.12700
C 	C 	0.34108 0.48417 0.72428 0.06800
C 	C 	0.36651 0.51273 0.74587 -0.12200
C 	C 	0.39170 0.51439 0.78668 0.07700
C 	C 	0.31375 0.48165 0.68053 -0.02400
C 	C 	0.29372 0.45505 0.63726 -0.01500
C 	C 	0.26823 0.45271 0.59645 -0.07000
C 	C 	0.26274 0.47694 0.59884 0.03800
C 	C 	0.28282 0.50357 0.64218 -0.06600
C 	C 	0.30830 0.50591 0.68299 -0.02300
H 	H 	0.36754 0.44060 0.80020 -0.00800
H 	H 	0.32424 0.43775 0.73004 0.06000
H 	H 	0.36645 0.53194 0.73176 0.06300
H 	H 	0.40954 0.53466 0.80166 0.00900
H 	H 	0.29800 0.43601 0.63533 0.02300
H 	H 	0.25384 0.43356 0.56534 0.04500
H 	H 	0.27891 0.52103 0.64397 0.04700
H 	H 	0.32272 0.52505 0.71412 0.03400
O 	O 	0.51047 0.07494 0.90692 -0.67600
O 	O 	0.47000 0.04220 0.83395 -0.78400
C 	C 	0.48970 0.06984 0.85167 0.54900
C 	C 	0.48787 0.09579 0.80666 -0.19600
C 	C 	0.45968 0.09241 0.78583 0.07800
C 	C 	0.45802 0.11594 0.74502 -0.12700
C 	C 	0.48417 0.14309 0.72428 0.06800
C 	C 	0.51273 0.14622 0.74587 -0.12200
C 	C 	0.51439 0.12269 0.78668 0.07700
C 	C 	0.48165 0.16790 0.68053 -0.02400
C 	C 	0.45505 0.16133 0.63726 -0.01500
C 	C 	0.45271 0.18448 0.59645 -0.07000
C 	C 	0.47694 0.21420 0.59884 0.03800
C 	C 	0.50357 0.22075 0.64218 -0.06600
C 	C 	0.50591 0.19761 0.68299 -0.02300
H 	H 	0.44060 0.07306 0.80020 -0.00900
H 	H 	0.43775 0.11351 0.73004 0.05900
H 	H 	0.53194 0.16549 0.73176 0.06300
H 	H 	0.53466 0.12512 0.80166 0.00900
H 	H 	0.43601 0.13801 0.63533 0.02300
H 	H 	0.43356 0.17972 0.56534 0.04500
H 	H 	0.52103 0.24212 0.64397 0.04700
H 	H 	0.52505 0.20233 0.71412 0.03400
O 	O 	0.92506 0.43553 0.90692 -0.67500
O 	O 	0.95780 0.42780 0.83395 -0.77900
C 	C 	0.93016 0.41986 0.85167 0.54800
C 	C 	0.90421 0.39208 0.80666 -0.19500
C 	C 	0.90759 0.36727 0.78583 0.07800
C 	C 	0.88406 0.34208 0.74502 -0.12600
C 	C 	0.85691 0.34108 0.72428 0.06800
C 	C 	0.85378 0.36651 0.74587 -0.12200
C 	C 	0.87731 0.39170 0.78668 0.07700
C 	C 	0.83210 0.31375 0.68053 -0.02400
C 	C 	0.83867 0.29372 0.63726 -0.01500
C 	C 	0.81552 0.26823 0.59645 -0.07000
C 	C 	0.78580 0.26274 0.59884 0.03800
C 	C 	0.77925 0.28282 0.64218 -0.06600
C 	C 	0.80239 0.30830 0.68299 -0.02300
H 	H 	0.92694 0.36754 0.80020 -0.00600
H 	H 	0.88649 0.32424 0.73004 0.06000
H 	H 	0.83451 0.36645 0.73176 0.06300
H 	H 	0.87488 0.40954 0.80166 0.01000
H 	H 	0.86199 0.29800 0.63533 0.02300
H 	H 	0.82028 0.25384 0.56534 0.04600
H 	H 	0.75788 0.27891 0.64397 0.04700
H 	H 	0.79767 0.32272 0.71412 0.03400
O 	O 	0.56447 0.48953 0.90692 -0.67600
O 	O 	0.57220 0.53000 0.83395 -0.78200
C 	C 	0.58014 0.51030 0.85167 0.54900
C 	C 	0.60792 0.51213 0.80666 -0.19500
C 	C 	0.63273 0.54032 0.78583 0.07800
C 	C 	0.65792 0.54198 0.74502 -0.12700
C 	C 	0.65892 0.51583 0.72428 0.06800
C 	C 	0.63349 0.48727 0.74587 -0.12200
C 	C 	0.60830 0.48561 0.78668 0.07700
C 	C 	0.68625 0.51835 0.68053 -0.02400
C 	C 	0.70628 0.54495 0.63726 -0.01500
C 	C 	0.73177 0.54729 0.59645 -0.07000
C 	C 	0.73726 0.52306 0.59884 0.03800
C 	C 	0.71718 0.49643 0.64218 -0.06600
C 	C 	0.69170 0.49409 0.68299 -0.02300
H 	H 	0.63246 0.55940 0.80020 -0.00700
H 	H 	0.67576 0.56225 0.73004 0.06000
H 	H 	0.63355 0.46806 0.73176 0.06300
H 	H 	0.59046 0.46534 0.80166 0.00900
H 	H 	0.70200 0.56399 0.63533 0.02300
H 	H 	0.74616 0.56644 0.56534 0.04600
H 	H 	0.72109 0.47897 0.64397 0.04700
H 	H 	0.67728 0.47495 0.71412 0.03400
O 	O 	0.92506 0.48953 0.09308 -0.69100
O 	O 	0.95780 0.53000 0.16605 -0.78600
C 	C 	0.93016 0.51030 0.14833 0.54900
C 	C 	0.90421 0.51213 0.19334 -0.20100
C 	C 	0.90759 0.54032 0.21417 0.07800
C 	C 	0.88406 0.54198 0.25498 -0.13000
C 	C 	0.85691 0.51583 0.27572 0.06700
C 	C 	0.85378 0.48727 0.25413 -0.12500
C 	C 	0.87731 0.48561 0.21332 0.07600
C 	C 	0.83210 0.51835 0.31947 -0.02600
C 	C 	0.83867 0.54495 0.36274 -0.01600
C 	C 	0.81552 0.54729 0.40355 -0.07200
C 	C 	0.78580 0.52306 0.40116 0.03700
C 	C 	0.77925 0.49643 0.35782 -0.06700
C 	C 	0.80239 0.49409 0.31701 -0.02400
H 	H 	0.92694 0.55940 0.19980 -0.01200
H 	H 	0.88649 0.56225 0.26996 0.05800
H 	H 	0.83451 0.46806 0.26824 0.06100
H 	H 	0.87488 0.46534 0.19834 0.00600
H 	H 	0.86199 0.56399 0.36467 0.02200
H 	H 	0.82028 0.56644 0.43466 0.04500
H 	H 	0.75788 0.47897 0.35603 0.04500
H 	H 	0.79767 0.47495 0.28588 0.03000
O 	O 	0.56447 0.07494 0.09308 -0.69100
O 	O 	0.57220 0.04220 0.16605 -0.79100
C 	C 	0.58014 0.06984 0.14833 0.55000
C 	C 	0.60792 0.09579 0.19334 -0.20200
C 	C 	0.63273 0.09241 0.21417 0.07800
C 	C 	0.65792 0.11594 0.25498 -0.13100
C 	C 	0.65892 0.14309 0.27572 0.06700
C 	C 	0.63349 0.14622 0.25413 -0.12500
C 	C 	0.60830 0.12269 0.21332 0.07700
C 	C 	0.68625 0.16790 0.31947 -0.02700
C 	C 	0.70628 0.16133 0.36274 -0.01600
C 	C 	0.73177 0.18448 0.40355 -0.07200
C 	C 	0.73726 0.21420 0.40116 0.03700
C 	C 	0.71718 0.22075 0.35782 -0.06800
C 	C 	0.69170 0.19761 0.31701 -0.02400
H 	H 	0.63246 0.07306 0.19980 -0.01400
H 	H 	0.67576 0.11351 0.26996 0.05700
H 	H 	0.63355 0.16549 0.26824 0.06100
H 	H 	0.59046 0.12512 0.19834 0.00500
H 	H 	0.70200 0.13801 0.36467 0.02100
H 	H 	0.74616 0.17972 0.43466 0.04500
H 	H 	0.72109 0.24212 0.35603 0.04500
H 	H 	0.67728 0.20233 0.28588 0.03000
O 	O 	0.51047 0.43553 0.09308 -0.69100
O 	O 	0.47000 0.42780 0.16605 -0.78900
C 	C 	0.48970 0.41986 0.14833 0.54900
C 	C 	0.48787 0.39208 0.19334 -0.20100
C 	C 	0.45968 0.36727 0.21417 0.07800
C 	C 	0.45802 0.34208 0.25498 -0.13000
C 	C 	0.48417 0.34108 0.27572 0.06700
C 	C 	0.51273 0.36651 0.25413 -0.12500
C 	C 	0.51439 0.39170 0.21332 0.07700
C 	C 	0.48165 0.31375 0.31947 -0.02600
C 	C 	0.45505 0.29372 0.36274 -0.01600
C 	C 	0.45271 0.26823 0.40355 -0.07200
C 	C 	0.47694 0.26274 0.40116 0.03700
C 	C 	0.50357 0.28282 0.35782 -0.06700
C 	C 	0.50591 0.30830 0.31701 -0.02400
H 	H 	0.44060 0.36754 0.19980 -0.01300
H 	H 	0.43775 0.32424 0.26996 0.05700
H 	H 	0.53194 0.36645 0.26824 0.06100
H 	H 	0.53466 0.40954 0.19834 0.00600
H 	H 	0.43601 0.29800 0.36467 0.02100
H 	H 	0.43356 0.25384 0.43466 0.04500
H 	H 	0.52103 0.27891 0.35603 0.04500
H 	H 	0.52505 0.32272 0.28588 0.03000
O 	O 	0.07494 0.51047 0.09308 -0.69100
O 	O 	0.04220 0.47000 0.16605 -0.79100
C 	C 	0.06984 0.48970 0.14833 0.54900
C 	C 	0.09579 0.48787 0.19334 -0.20200
C 	C 	0.09241 0.45968 0.21417 0.07800
C 	C 	0.11594 0.45802 0.25498 -0.13100
C 	C 	0.14309 0.48417 0.27572 0.06700
C 	C 	0.14622 0.51273 0.25413 -0.12500
C 	C 	0.12269 0.51439 0.21332 0.07700
C 	C 	0.16790 0.48165 0.31947 -0.02700
C 	C 	0.16133 0.45505 0.36274 -0.01600
C 	C 	0.18448 0.45271 0.40355 -0.07200
C 	C 	0.21420 0.47694 0.40116 0.03700
C 	C 	0.22075 0.50357 0.35782 -0.06700
C 	C 	0.19761 0.50591 0.31701 -0.02400
H 	H 	0.07306 0.44060 0.19980 -0.01400
H 	H 	0.11351 0.43775 0.26996 0.05700
H 	H 	0.16549 0.53194 0.26824 0.06100
H 	H 	0.12512 0.53466 0.19834 0.00500
H 	H 	0.13801 0.43601 0.36467 0.02100
H 	H 	0.17972 0.43356 0.43466 0.04400
H 	H 	0.24212 0.52103 0.35603 0.04500
H 	H 	0.20233 0.52505 0.28588 0.03000
O 	O 	0.43553 0.92506 0.09308 -0.69100
O 	O 	0.42780 0.95780 0.16605 -0.78600
C 	C 	0.41986 0.93016 0.14833 0.54900
C 	C 	0.39208 0.90421 0.19334 -0.20100
C 	C 	0.36727 0.90759 0.21417 0.07800
C 	C 	0.34208 0.88406 0.25498 -0.13000
C 	C 	0.34108 0.85691 0.27572 0.06700
C 	C 	0.36651 0.85378 0.25413 -0.12500
C 	C 	0.39170 0.87731 0.21332 0.07600
C 	C 	0.31375 0.83210 0.31947 -0.02600
C 	C 	0.29372 0.83867 0.36274 -0.01600
C 	C 	0.26823 0.81552 0.40355 -0.07200
C 	C 	0.26274 0.78580 0.40116 0.03700
C 	C 	0.28282 0.77925 0.35782 -0.06700
C 	C 	0.30830 0.80239 0.31701 -0.02400
H 	H 	0.36754 0.92694 0.19980 -0.01200
H 	H 	0.32424 0.88649 0.26996 0.05800
H 	H 	0.36645 0.83451 0.26824 0.06100
H 	H 	0.40954 0.87488 0.19834 0.00600
H 	H 	0.29800 0.86199 0.36467 0.02200
H 	H 	0.25384 0.82028 0.43466 0.04500
H 	H 	0.27891 0.75788 0.35603 0.04500
H 	H 	0.32272 0.79767 0.28588 0.03000
O 	O 	0.48953 0.56447 0.09308 -0.69100
O 	O 	0.53000 0.57220 0.16605 -0.78900
C 	C 	0.51030 0.58014 0.14833 0.54900
C 	C 	0.51213 0.60792 0.19334 -0.20100
C 	C 	0.54032 0.63273 0.21417 0.07800
C 	C 	0.54198 0.65792 0.25498 -0.13000
C 	C 	0.51583 0.65892 0.27572 0.06700
C 	C 	0.48727 0.63349 0.25413 -0.12500
C 	C 	0.48561 0.60830 0.21332 0.07700
C 	C 	0.51835 0.68625 0.31947 -0.02600
C 	C 	0.54495 0.70628 0.36274 -0.01600
C 	C 	0.54729 0.73177 0.40355 -0.07200
C 	C 	0.52306 0.73726 0.40116 0.03700
C 	C 	0.49643 0.71718 0.35782 -0.06700
C 	C 	0.49409 0.69170 0.31701 -0.02400
H 	H 	0.55940 0.63246 0.19980 -0.01300
H 	H 	0.56225 0.67576 0.26996 0.05800
H 	H 	0.46806 0.63355 0.26824 0.06100
H 	H 	0.46534 0.59046 0.19834 0.00600
H 	H 	0.56399 0.70200 0.36467 0.02200
H 	H 	0.56644 0.74616 0.43466 0.04500
H 	H 	0.47897 0.72109 0.35603 0.04500
H 	H 	0.47495 0.67728 0.28588 0.03000
Zr	Zr	0.46539 0.00000 0.11538 3.16500
Zr	Zr	-0.00000 0.46539 0.11538 3.16500
Zr	Zr	0.53461 0.53461 0.11538 3.16600
Zr	Zr	0.53461 0.00000 0.11538 3.16500
Zr	Zr	-0.00000 0.53461 0.11538 3.16500
Zr	Zr	0.46539 0.46539 0.11538 3.16600
Zr	Zr	-0.00000 0.46539 0.88462 3.16700
Zr	Zr	0.46539 0.00000 0.88462 3.16700
Zr	Zr	0.53461 0.53461 0.88462 3.16800
Zr	Zr	-0.00000 0.53461 0.88462 3.16700
Zr	Zr	0.53461 0.00000 0.88462 3.16700
Zr	Zr	0.46539 0.46539 0.88462 3.16800
Zr	Zr	0.52742 0.05484 -0.00000 3.20000
Zr	Zr	0.94516 0.47258 -0.00000 3.20000
Zr	Zr	0.52742 0.47258 -0.00000 3.20000
Zr	Zr	0.47258 0.94516 -0.00000 3.20000
Zr	Zr	0.05484 0.52742 -0.00000 3.20000
Zr	Zr	0.47258 0.52742 -0.00000 3.20000
O 	O 	0.51512 0.03024 0.12322 -1.30700
O 	O 	0.96976 0.48488 0.12322 -1.30100
O 	O 	0.51512 0.48488 0.12322 -1.30500
O 	O 	0.48488 0.96976 0.12322 -1.30100
O 	O 	0.03024 0.51512 0.12322 -1.30700
O 	O 	0.48488 0.51512 0.12322 -1.30500
O 	O 	0.03024 0.51512 0.87678 -1.29800
O 	O 	0.48488 0.96976 0.87678 -1.29200
O 	O 	0.48488 0.51512 0.87678 -1.29600
O 	O 	0.96976 0.48488 0.87678 -1.29200
O 	O 	0.51512 0.03024 0.87678 -1.29800
O 	O 	0.51512 0.48488 0.87678 -1.29600
O 	O 	0.47787 0.02895 -0.00000 -1.34200
O 	O 	0.97105 0.44892 -0.00000 -1.33700
O 	O 	0.55108 0.52213 -0.00000 -1.34000
O 	O 	0.52213 0.97105 -0.00000 -1.33700
O 	O 	0.02895 0.55108 -0.00000 -1.34200
O 	O 	0.44892 0.47787 -0.00000 -1.34000
O 	O 	0.02895 0.47787 -0.00000 -1.34200
O 	O 	0.44892 0.97105 -0.00000 -1.33700
O 	O 	0.52213 0.55108 -0.00000 -1.34000
O 	O 	0.97105 0.52213 -0.00000 -1.33700
O 	O 	0.55108 0.02895 -0.00000 -1.34200
O 	O 	0.47787 0.44892 -0.00000 -1.34000
C 	C 	0.47882 0.23941 0.45645 -0.03100
C 	C 	0.76059 0.23941 0.45645 -0.03100
C 	C 	0.76059 0.52118 0.45645 -0.03100
C 	C 	0.52118 0.76059 0.45645 -0.03100
C 	C 	0.23941 0.76059 0.45645 -0.03100
C 	C 	0.23941 0.47882 0.45645 -0.03100
C 	C 	0.23941 0.47882 0.54355 -0.03000
C 	C 	0.23941 0.76059 0.54355 -0.03000
C 	C 	0.52118 0.76059 0.54355 -0.03000
C 	C 	0.76059 0.52118 0.54355 -0.03000
C 	C 	0.76059 0.23941 0.54355 -0.03000
C 	C 	0.47882 0.23941 0.54355 -0.03000
