data_crystal

_cell_length_a 36.57700
_cell_length_b 36.57700
_cell_length_c 36.57700
_cell_angle_alpha 90.00000
_cell_angle_beta  90.00000
_cell_angle_gamma 90.00000

_symmetry_space_group_name_	'P 1'
_symmetry_space_group_name_H-M	'P 1'

loop_
_symmetry_equiv_pos_as_xyz
  x,y,z

loop_
_atom_site_label
_atom_site_type_symbol
_atom_site_fract_x
_atom_site_fract_y
_atom_site_fract_z
_atom_site_charge
Cu	Cu	0.89121 0.66882 0.58599 0.80300
Cu	Cu	0.95348 0.73125 0.55481 0.78600
S 	S 	0.96786 0.71144 0.45747 -0.54100
S 	S 	0.83165 0.68391 0.60106 -0.47900
N 	N 	0.93064 0.69517 0.52098 -0.26700
N 	N 	0.90394 0.66992 0.53304 -0.24500
N 	N 	0.91553 0.66052 0.47498 -0.24900
H 	H 	0.91470 0.65110 0.45350 0.12800
N 	N 	0.87051 0.62237 0.50396 -0.32700
H 	H 	0.85820 0.61720 0.52330 0.12900
H 	H 	0.86690 0.61030 0.48410 0.14400
N 	N 	0.80537 0.61874 0.57352 -0.26100
N 	N 	0.78159 0.60714 0.54611 -0.25100
N 	N 	0.78422 0.66722 0.54531 -0.24400
H 	H 	0.78060 0.68960 0.53910 0.12200
N 	N 	0.74460 0.63890 0.50200 -0.32200
H 	H 	0.73550 0.61910 0.49320 0.10400
H 	H 	0.73810 0.65970 0.49320 0.13200
C 	C 	0.93668 0.68903 0.48606 0.14800
C 	C 	0.89606 0.64992 0.50478 0.21200
C 	C 	0.80629 0.65491 0.57274 0.12900
C 	C 	0.76927 0.63734 0.53000 0.19000
Cu	Cu	0.89121 0.16882 0.08599 0.80200
Cu	Cu	0.95348 0.23125 0.05481 0.78400
S 	S 	0.96786 0.21144 0.95747 -0.54000
S 	S 	0.83165 0.18391 0.10106 -0.48100
N 	N 	0.93064 0.19517 0.02098 -0.27200
N 	N 	0.90394 0.16992 0.03304 -0.24500
N 	N 	0.91553 0.16052 0.97498 -0.24700
H 	H 	0.91470 0.15110 0.95350 0.12700
N 	N 	0.87051 0.12237 0.00396 -0.33400
H 	H 	0.85820 0.11720 0.02330 0.13000
H 	H 	0.86690 0.11030 0.98410 0.15100
N 	N 	0.80537 0.11874 0.07352 -0.26100
N 	N 	0.78159 0.10714 0.04611 -0.25200
N 	N 	0.78422 0.16722 0.04531 -0.24500
H 	H 	0.78060 0.18960 0.03910 0.12000
N 	N 	0.74460 0.13890 0.00200 -0.33700
H 	H 	0.73550 0.11910 0.99320 0.11400
H 	H 	0.73810 0.15970 0.99320 0.14200
C 	C 	0.93668 0.18903 0.98606 0.15500
C 	C 	0.89606 0.14992 0.00478 0.20600
C 	C 	0.80629 0.15491 0.07274 0.12800
C 	C 	0.76927 0.13734 0.03000 0.19100
Cu	Cu	0.39121 0.66882 0.08599 0.80200
Cu	Cu	0.45348 0.73125 0.05481 0.78300
S 	S 	0.46786 0.71144 0.95747 -0.54500
S 	S 	0.33165 0.68391 0.10106 -0.48100
N 	N 	0.43064 0.69517 0.02098 -0.27300
N 	N 	0.40394 0.66992 0.03304 -0.24500
N 	N 	0.41553 0.66052 0.97498 -0.24700
H 	H 	0.41470 0.65110 0.95350 0.12700
N 	N 	0.37051 0.62237 0.00396 -0.33400
H 	H 	0.35820 0.61720 0.02330 0.13000
H 	H 	0.36690 0.61030 0.98410 0.15100
N 	N 	0.30537 0.61874 0.07352 -0.26100
N 	N 	0.28159 0.60714 0.04611 -0.25200
N 	N 	0.28422 0.66722 0.04531 -0.24500
H 	H 	0.28060 0.68960 0.03910 0.12000
N 	N 	0.24460 0.63890 0.00200 -0.33700
H 	H 	0.23550 0.61910 0.99320 0.11400
H 	H 	0.23810 0.65970 0.99320 0.14200
C 	C 	0.43668 0.68903 0.98606 0.15500
C 	C 	0.39606 0.64992 0.00478 0.20600
C 	C 	0.30629 0.65491 0.07274 0.12800
C 	C 	0.26927 0.63734 0.03000 0.19100
Cu	Cu	0.39121 0.16882 0.58599 0.80200
Cu	Cu	0.45348 0.23125 0.55481 0.78300
S 	S 	0.46786 0.21144 0.45747 -0.54700
S 	S 	0.33165 0.18391 0.60106 -0.48000
N 	N 	0.43064 0.19517 0.52098 -0.26900
N 	N 	0.40394 0.16992 0.53304 -0.24600
N 	N 	0.41553 0.16052 0.47498 -0.25000
H 	H 	0.41470 0.15110 0.45350 0.12700
N 	N 	0.37051 0.12237 0.50396 -0.32700
H 	H 	0.35820 0.11720 0.52330 0.12900
H 	H 	0.36690 0.11030 0.48410 0.14400
N 	N 	0.30537 0.11874 0.57352 -0.26100
N 	N 	0.28159 0.10714 0.54611 -0.25100
N 	N 	0.28422 0.16722 0.54531 -0.24400
H 	H 	0.28060 0.18960 0.53910 0.12200
N 	N 	0.24460 0.13890 0.50200 -0.32200
H 	H 	0.23550 0.11910 0.49320 0.10500
H 	H 	0.23810 0.15970 0.49320 0.13200
C 	C 	0.43668 0.18903 0.48606 0.14800
C 	C 	0.39606 0.14992 0.50478 0.21100
C 	C 	0.30629 0.15491 0.57274 0.12900
C 	C 	0.26927 0.13734 0.53000 0.19000
Cu	Cu	0.10879 0.33118 0.58599 0.80100
Cu	Cu	0.04652 0.26875 0.55481 0.78200
S 	S 	0.03214 0.28856 0.45747 -0.55100
S 	S 	0.16835 0.31609 0.60106 -0.48000
N 	N 	0.06936 0.30483 0.52098 -0.26900
N 	N 	0.09606 0.33008 0.53304 -0.24600
N 	N 	0.08447 0.33948 0.47498 -0.25000
H 	H 	0.08530 0.34890 0.45350 0.12600
N 	N 	0.12949 0.37763 0.50396 -0.32700
H 	H 	0.14180 0.38280 0.52330 0.12900
H 	H 	0.13310 0.38970 0.48410 0.14400
N 	N 	0.19463 0.38126 0.57352 -0.26100
N 	N 	0.21841 0.39286 0.54611 -0.25100
N 	N 	0.21578 0.33278 0.54531 -0.24400
H 	H 	0.21940 0.31040 0.53910 0.12200
N 	N 	0.25540 0.36110 0.50200 -0.32200
H 	H 	0.26450 0.38090 0.49320 0.10500
H 	H 	0.26190 0.34030 0.49320 0.13200
C 	C 	0.06332 0.31097 0.48606 0.14800
C 	C 	0.10394 0.35008 0.50478 0.21100
C 	C 	0.19371 0.34509 0.57274 0.12900
C 	C 	0.23073 0.36266 0.53000 0.19000
Cu	Cu	0.10879 0.83118 0.08599 0.80100
Cu	Cu	0.04652 0.76875 0.05481 0.78200
S 	S 	0.03214 0.78856 0.95747 -0.54900
S 	S 	0.16835 0.81609 0.10106 -0.48100
N 	N 	0.06936 0.80483 0.02098 -0.27300
N 	N 	0.09606 0.83008 0.03304 -0.24600
N 	N 	0.08447 0.83948 0.97498 -0.24700
H 	H 	0.08530 0.84890 0.95350 0.12700
N 	N 	0.12949 0.87763 0.00396 -0.33400
H 	H 	0.14180 0.88280 0.02330 0.13000
H 	H 	0.13310 0.88970 0.98410 0.15100
N 	N 	0.19463 0.88126 0.07352 -0.26100
N 	N 	0.21841 0.89286 0.04611 -0.25200
N 	N 	0.21578 0.83278 0.04531 -0.24500
H 	H 	0.21940 0.81040 0.03910 0.12000
N 	N 	0.25540 0.86110 0.00200 -0.33700
H 	H 	0.26450 0.88090 0.99320 0.11300
H 	H 	0.26190 0.84030 0.99320 0.14200
C 	C 	0.06332 0.81097 0.98606 0.15500
C 	C 	0.10394 0.85008 0.00478 0.20600
C 	C 	0.19371 0.84509 0.07274 0.12800
C 	C 	0.23073 0.86266 0.03000 0.19100
Cu	Cu	0.60879 0.33118 0.08599 0.80200
Cu	Cu	0.54652 0.26875 0.05481 0.78300
S 	S 	0.53214 0.28856 0.95747 -0.54500
S 	S 	0.66835 0.31609 0.10106 -0.48100
N 	N 	0.56936 0.30483 0.02098 -0.27300
N 	N 	0.59606 0.33008 0.03304 -0.24500
N 	N 	0.58447 0.33948 0.97498 -0.24700
H 	H 	0.58530 0.34890 0.95350 0.12700
N 	N 	0.62949 0.37763 0.00396 -0.33400
H 	H 	0.64180 0.38280 0.02330 0.13000
H 	H 	0.63310 0.38970 0.98410 0.15100
N 	N 	0.69463 0.38126 0.07352 -0.26100
N 	N 	0.71841 0.39286 0.04611 -0.25200
N 	N 	0.71578 0.33278 0.04531 -0.24500
H 	H 	0.71940 0.31040 0.03910 0.12000
N 	N 	0.75540 0.36110 0.00200 -0.33700
H 	H 	0.76450 0.38090 0.99320 0.11300
H 	H 	0.76190 0.34030 0.99320 0.14200
C 	C 	0.56332 0.31097 0.98606 0.15500
C 	C 	0.60394 0.35008 0.00478 0.20600
C 	C 	0.69371 0.34509 0.07274 0.12800
C 	C 	0.73073 0.36266 0.03000 0.19100
Cu	Cu	0.60879 0.83118 0.58599 0.80200
Cu	Cu	0.54652 0.76875 0.55481 0.78300
S 	S 	0.53214 0.78856 0.45747 -0.54700
S 	S 	0.66835 0.81609 0.60106 -0.48000
N 	N 	0.56936 0.80483 0.52098 -0.26900
N 	N 	0.59606 0.83008 0.53304 -0.24600
N 	N 	0.58447 0.83948 0.47498 -0.25000
H 	H 	0.58530 0.84890 0.45350 0.12700
N 	N 	0.62949 0.87763 0.50396 -0.32800
H 	H 	0.64180 0.88280 0.52330 0.12900
H 	H 	0.63310 0.88970 0.48410 0.14400
N 	N 	0.69463 0.88126 0.57352 -0.26100
N 	N 	0.71841 0.89286 0.54611 -0.25100
N 	N 	0.71578 0.83278 0.54531 -0.24400
H 	H 	0.71940 0.81040 0.53910 0.12200
N 	N 	0.75540 0.86110 0.50200 -0.32200
H 	H 	0.76450 0.88090 0.49320 0.10400
H 	H 	0.76190 0.84030 0.49320 0.13200
C 	C 	0.56332 0.81097 0.48606 0.14800
C 	C 	0.60394 0.85008 0.50478 0.21200
C 	C 	0.69371 0.84509 0.57274 0.12900
C 	C 	0.73073 0.86266 0.53000 0.19000
Cu	Cu	0.10879 0.66882 0.41401 0.80100
Cu	Cu	0.04652 0.73125 0.44519 0.78200
S 	S 	0.03214 0.71144 0.54253 -0.55100
S 	S 	0.16835 0.68391 0.39894 -0.48000
N 	N 	0.06936 0.69517 0.47902 -0.26900
N 	N 	0.09606 0.66992 0.46696 -0.24600
N 	N 	0.08447 0.66052 0.52502 -0.25000
H 	H 	0.08530 0.65110 0.54650 0.12600
N 	N 	0.12949 0.62237 0.49604 -0.32700
H 	H 	0.14180 0.61720 0.47670 0.12900
H 	H 	0.13310 0.61030 0.51590 0.14400
N 	N 	0.19463 0.61874 0.42648 -0.26100
N 	N 	0.21841 0.60714 0.45389 -0.25100
N 	N 	0.21578 0.66722 0.45469 -0.24400
H 	H 	0.21940 0.68960 0.46090 0.12200
N 	N 	0.25540 0.63890 0.49800 -0.32200
H 	H 	0.26450 0.61910 0.50680 0.10500
H 	H 	0.26190 0.65970 0.50680 0.13200
C 	C 	0.06332 0.68903 0.51394 0.14800
C 	C 	0.10394 0.64992 0.49522 0.21100
C 	C 	0.19371 0.65491 0.42726 0.12900
C 	C 	0.23073 0.63734 0.47000 0.19000
Cu	Cu	0.10879 0.16882 0.91401 0.80200
Cu	Cu	0.04652 0.23125 0.94519 0.78300
S 	S 	0.03214 0.21144 0.04253 -0.55300
S 	S 	0.16835 0.18391 0.89894 -0.48000
N 	N 	0.06936 0.19517 0.97902 -0.26500
N 	N 	0.09606 0.16992 0.96696 -0.24700
N 	N 	0.08447 0.16052 0.02502 -0.25300
H 	H 	0.08530 0.15110 0.04650 0.12600
N 	N 	0.12949 0.12237 0.99604 -0.32100
H 	H 	0.14180 0.11720 0.97670 0.12800
H 	H 	0.13310 0.11030 0.01590 0.13600
N 	N 	0.19463 0.11874 0.92648 -0.26100
N 	N 	0.21841 0.10714 0.95389 -0.25000
N 	N 	0.21578 0.16722 0.95469 -0.24400
H 	H 	0.21940 0.18960 0.96090 0.12300
N 	N 	0.25540 0.13890 0.99800 -0.30800
H 	H 	0.26450 0.11910 0.00680 0.09600
H 	H 	0.26190 0.15970 0.00680 0.12300
C 	C 	0.06332 0.18903 0.01394 0.14100
C 	C 	0.10394 0.14992 0.99522 0.21600
C 	C 	0.19371 0.15491 0.92726 0.12900
C 	C 	0.23073 0.13734 0.97000 0.19000
Cu	Cu	0.60879 0.66882 0.91401 0.80200
Cu	Cu	0.54652 0.73125 0.94519 0.78400
S 	S 	0.53214 0.71144 0.04253 -0.54800
S 	S 	0.66835 0.68391 0.89894 -0.48000
N 	N 	0.56936 0.69517 0.97902 -0.26500
N 	N 	0.59606 0.66992 0.96696 -0.24700
N 	N 	0.58447 0.66052 0.02502 -0.25200
H 	H 	0.58530 0.65110 0.04650 0.12700
N 	N 	0.62949 0.62237 0.99604 -0.32100
H 	H 	0.64180 0.61720 0.97670 0.12900
H 	H 	0.63310 0.61030 0.01590 0.13700
N 	N 	0.69463 0.61874 0.92648 -0.26100
N 	N 	0.71841 0.60714 0.95389 -0.24900
N 	N 	0.71578 0.66722 0.95469 -0.24400
H 	H 	0.71940 0.68960 0.96090 0.12300
N 	N 	0.75540 0.63890 0.99800 -0.30800
H 	H 	0.76450 0.61910 0.00680 0.09600
H 	H 	0.76190 0.65970 0.00680 0.12300
C 	C 	0.56332 0.68903 0.01394 0.14100
C 	C 	0.60394 0.64992 0.99522 0.21700
C 	C 	0.69371 0.65491 0.92726 0.12900
C 	C 	0.73073 0.63734 0.97000 0.19000
Cu	Cu	0.60879 0.16882 0.41401 0.80200
Cu	Cu	0.54652 0.23125 0.44519 0.78300
S 	S 	0.53214 0.21144 0.54253 -0.54700
S 	S 	0.66835 0.18391 0.39894 -0.48000
N 	N 	0.56936 0.19517 0.47902 -0.26900
N 	N 	0.59606 0.16992 0.46696 -0.24600
N 	N 	0.58447 0.16052 0.52502 -0.25000
H 	H 	0.58530 0.15110 0.54650 0.12700
N 	N 	0.62949 0.12237 0.49604 -0.32700
H 	H 	0.64180 0.11720 0.47670 0.12900
H 	H 	0.63310 0.11030 0.51590 0.14400
N 	N 	0.69463 0.11874 0.42648 -0.26100
N 	N 	0.71841 0.10714 0.45389 -0.25100
N 	N 	0.71578 0.16722 0.45469 -0.24400
H 	H 	0.71940 0.18960 0.46090 0.12200
N 	N 	0.75540 0.13890 0.49800 -0.32200
H 	H 	0.76450 0.11910 0.50680 0.10500
H 	H 	0.76190 0.15970 0.50680 0.13200
C 	C 	0.56332 0.18903 0.51394 0.14800
C 	C 	0.60394 0.14992 0.49522 0.21100
C 	C 	0.69371 0.15491 0.42726 0.12900
C 	C 	0.73073 0.13734 0.47000 0.19000
Cu	Cu	0.89121 0.33118 0.41401 0.80200
Cu	Cu	0.95348 0.26875 0.44519 0.78500
S 	S 	0.96786 0.28856 0.54253 -0.54200
S 	S 	0.83165 0.31609 0.39894 -0.48000
N 	N 	0.93064 0.30483 0.47902 -0.26800
N 	N 	0.90394 0.33008 0.46696 -0.24600
N 	N 	0.91553 0.33948 0.52502 -0.25000
H 	H 	0.91470 0.34890 0.54650 0.12700
N 	N 	0.87051 0.37763 0.49604 -0.32800
H 	H 	0.85820 0.38280 0.47670 0.12900
H 	H 	0.86690 0.38970 0.51590 0.14400
N 	N 	0.80537 0.38126 0.42648 -0.26100
N 	N 	0.78159 0.39286 0.45389 -0.25100
N 	N 	0.78422 0.33278 0.45469 -0.24400
H 	H 	0.78060 0.31040 0.46090 0.12200
N 	N 	0.74460 0.36110 0.49800 -0.32200
H 	H 	0.73550 0.38090 0.50680 0.10500
H 	H 	0.73810 0.34030 0.50680 0.13200
C 	C 	0.93668 0.31097 0.51394 0.14800
C 	C 	0.89606 0.35008 0.49522 0.21200
C 	C 	0.80629 0.34509 0.42726 0.12900
C 	C 	0.76927 0.36266 0.47000 0.19000
Cu	Cu	0.89121 0.83118 0.91401 0.80200
Cu	Cu	0.95348 0.76875 0.94519 0.78500
S 	S 	0.96786 0.78856 0.04253 -0.54300
S 	S 	0.83165 0.81609 0.89894 -0.48000
N 	N 	0.93064 0.80483 0.97902 -0.26400
N 	N 	0.90394 0.83008 0.96696 -0.24600
N 	N 	0.91553 0.83948 0.02502 -0.25200
H 	H 	0.91470 0.84890 0.04650 0.12700
N 	N 	0.87051 0.87763 0.99604 -0.32200
H 	H 	0.85820 0.88280 0.97670 0.12900
H 	H 	0.86690 0.88970 0.01590 0.13800
N 	N 	0.80537 0.88126 0.92648 -0.26100
N 	N 	0.78159 0.89286 0.95389 -0.24900
N 	N 	0.78422 0.83278 0.95469 -0.24400
H 	H 	0.78060 0.81040 0.96090 0.12300
N 	N 	0.74460 0.86110 0.99800 -0.30800
H 	H 	0.73550 0.88090 0.00680 0.09600
H 	H 	0.73810 0.84030 0.00680 0.12300
C 	C 	0.93668 0.81097 0.01394 0.14100
C 	C 	0.89606 0.85008 0.99522 0.21800
C 	C 	0.80629 0.84509 0.92726 0.12900
C 	C 	0.76927 0.86266 0.97000 0.19000
Cu	Cu	0.39121 0.33118 0.91401 0.80200
Cu	Cu	0.45348 0.26875 0.94519 0.78400
S 	S 	0.46786 0.28856 0.04253 -0.54800
S 	S 	0.33165 0.31609 0.89894 -0.48000
N 	N 	0.43064 0.30483 0.97902 -0.26500
N 	N 	0.40394 0.33008 0.96696 -0.24700
N 	N 	0.41553 0.33948 0.02502 -0.25200
H 	H 	0.41470 0.34890 0.04650 0.12700
N 	N 	0.37051 0.37763 0.99604 -0.32100
H 	H 	0.35820 0.38280 0.97670 0.12900
H 	H 	0.36690 0.38970 0.01590 0.13700
N 	N 	0.30537 0.38126 0.92648 -0.26100
N 	N 	0.28159 0.39286 0.95389 -0.24900
N 	N 	0.28422 0.33278 0.95469 -0.24400
H 	H 	0.28060 0.31040 0.96090 0.12300
N 	N 	0.24460 0.36110 0.99800 -0.30800
H 	H 	0.23550 0.38090 0.00680 0.09600
H 	H 	0.23810 0.34030 0.00680 0.12300
C 	C 	0.43668 0.31097 0.01394 0.14100
C 	C 	0.39606 0.35008 0.99522 0.21700
C 	C 	0.30629 0.34509 0.92726 0.12900
C 	C 	0.26927 0.36266 0.97000 0.19000
Cu	Cu	0.39121 0.83118 0.41401 0.80200
Cu	Cu	0.45348 0.76875 0.44519 0.78300
S 	S 	0.46786 0.78856 0.54253 -0.54700
S 	S 	0.33165 0.81609 0.39894 -0.48000
N 	N 	0.43064 0.80483 0.47902 -0.26900
N 	N 	0.40394 0.83008 0.46696 -0.24600
N 	N 	0.41553 0.83948 0.52502 -0.25000
H 	H 	0.41470 0.84890 0.54650 0.12700
N 	N 	0.37051 0.87763 0.49604 -0.32800
H 	H 	0.35820 0.88280 0.47670 0.12900
H 	H 	0.36690 0.88970 0.51590 0.14400
N 	N 	0.30537 0.88126 0.42648 -0.26100
N 	N 	0.28159 0.89286 0.45389 -0.25100
N 	N 	0.28422 0.83278 0.45469 -0.24400
H 	H 	0.28060 0.81040 0.46090 0.12200
N 	N 	0.24460 0.86110 0.49800 -0.32200
H 	H 	0.23550 0.88090 0.50680 0.10500
H 	H 	0.23810 0.84030 0.50680 0.13200
C 	C 	0.43668 0.81097 0.51394 0.14800
C 	C 	0.39606 0.85008 0.49522 0.21200
C 	C 	0.30629 0.84509 0.42726 0.12900
C 	C 	0.26927 0.86266 0.47000 0.19000
Cu	Cu	0.58599 0.89121 0.66882 0.80200
Cu	Cu	0.55481 0.95348 0.73125 0.78500
S 	S 	0.45747 0.96786 0.71144 -0.54200
S 	S 	0.60106 0.83165 0.68391 -0.48000
N 	N 	0.52098 0.93064 0.69517 -0.26800
N 	N 	0.53304 0.90394 0.66992 -0.24600
N 	N 	0.47498 0.91553 0.66052 -0.25000
H 	H 	0.45350 0.91470 0.65110 0.12700
N 	N 	0.50396 0.87051 0.62237 -0.32800
H 	H 	0.52330 0.85820 0.61720 0.12900
H 	H 	0.48410 0.86690 0.61030 0.14400
N 	N 	0.57352 0.80537 0.61874 -0.26100
N 	N 	0.54611 0.78159 0.60714 -0.25100
N 	N 	0.54531 0.78422 0.66722 -0.24400
H 	H 	0.53910 0.78060 0.68960 0.12200
N 	N 	0.50200 0.74460 0.63890 -0.32200
H 	H 	0.49320 0.73550 0.61910 0.10400
H 	H 	0.49320 0.73810 0.65970 0.13200
C 	C 	0.48606 0.93668 0.68903 0.14800
C 	C 	0.50478 0.89606 0.64992 0.21200
C 	C 	0.57274 0.80629 0.65491 0.12900
C 	C 	0.53000 0.76927 0.63734 0.19000
Cu	Cu	0.58599 0.39121 0.16882 0.80200
Cu	Cu	0.55481 0.45348 0.23125 0.78300
S 	S 	0.45747 0.46786 0.21144 -0.54700
S 	S 	0.60106 0.33165 0.18391 -0.48000
N 	N 	0.52098 0.43064 0.19517 -0.26900
N 	N 	0.53304 0.40394 0.16992 -0.24600
N 	N 	0.47498 0.41553 0.16052 -0.25000
H 	H 	0.45350 0.41470 0.15110 0.12700
N 	N 	0.50396 0.37051 0.12237 -0.32700
H 	H 	0.52330 0.35820 0.11720 0.12900
H 	H 	0.48410 0.36690 0.11030 0.14400
N 	N 	0.57352 0.30537 0.11874 -0.26100
N 	N 	0.54611 0.28159 0.10714 -0.25100
N 	N 	0.54531 0.28422 0.16722 -0.24400
H 	H 	0.53910 0.28060 0.18960 0.12200
N 	N 	0.50200 0.24460 0.13890 -0.32200
H 	H 	0.49320 0.23550 0.11910 0.10500
H 	H 	0.49320 0.23810 0.15970 0.13200
C 	C 	0.48606 0.43668 0.18903 0.14800
C 	C 	0.50478 0.39606 0.14992 0.21100
C 	C 	0.57274 0.30629 0.15491 0.12900
C 	C 	0.53000 0.26927 0.13734 0.19000
Cu	Cu	0.08599 0.89121 0.16882 0.80200
Cu	Cu	0.05481 0.95348 0.23125 0.78400
S 	S 	0.95747 0.96786 0.21144 -0.54000
S 	S 	0.10106 0.83165 0.18391 -0.48100
N 	N 	0.02098 0.93064 0.19517 -0.27200
N 	N 	0.03304 0.90394 0.16992 -0.24500
N 	N 	0.97498 0.91553 0.16052 -0.24700
H 	H 	0.95350 0.91470 0.15110 0.12700
N 	N 	0.00396 0.87051 0.12237 -0.33400
H 	H 	0.02330 0.85820 0.11720 0.13000
H 	H 	0.98410 0.86690 0.11030 0.15100
N 	N 	0.07352 0.80537 0.11874 -0.26100
N 	N 	0.04611 0.78159 0.10714 -0.25200
N 	N 	0.04531 0.78422 0.16722 -0.24500
H 	H 	0.03910 0.78060 0.18960 0.12000
N 	N 	0.00200 0.74460 0.13890 -0.33700
H 	H 	0.99320 0.73550 0.11910 0.11400
H 	H 	0.99320 0.73810 0.15970 0.14200
C 	C 	0.98606 0.93668 0.18903 0.15500
C 	C 	0.00478 0.89606 0.14992 0.20600
C 	C 	0.07274 0.80629 0.15491 0.12800
C 	C 	0.03000 0.76927 0.13734 0.19100
Cu	Cu	0.08599 0.39121 0.66882 0.80200
Cu	Cu	0.05481 0.45348 0.73125 0.78300
S 	S 	0.95747 0.46786 0.71144 -0.54500
S 	S 	0.10106 0.33165 0.68391 -0.48100
N 	N 	0.02098 0.43064 0.69517 -0.27300
N 	N 	0.03304 0.40394 0.66992 -0.24500
N 	N 	0.97498 0.41553 0.66052 -0.24700
H 	H 	0.95350 0.41470 0.65110 0.12700
N 	N 	0.00396 0.37051 0.62237 -0.33400
H 	H 	0.02330 0.35820 0.61720 0.13000
H 	H 	0.98410 0.36690 0.61030 0.15100
N 	N 	0.07352 0.30537 0.61874 -0.26100
N 	N 	0.04611 0.28159 0.60714 -0.25200
N 	N 	0.04531 0.28422 0.66722 -0.24500
H 	H 	0.03910 0.28060 0.68960 0.12000
N 	N 	0.00200 0.24460 0.63890 -0.33700
H 	H 	0.99320 0.23550 0.61910 0.11400
H 	H 	0.99320 0.23810 0.65970 0.14200
C 	C 	0.98606 0.43668 0.68903 0.15500
C 	C 	0.00478 0.39606 0.64992 0.20600
C 	C 	0.07274 0.30629 0.65491 0.12800
C 	C 	0.03000 0.26927 0.63734 0.19100
Cu	Cu	0.58599 0.10879 0.33118 0.80100
Cu	Cu	0.55481 0.04652 0.26875 0.78200
S 	S 	0.45747 0.03214 0.28856 -0.55100
S 	S 	0.60106 0.16835 0.31609 -0.48000
N 	N 	0.52098 0.06936 0.30483 -0.26900
N 	N 	0.53304 0.09606 0.33008 -0.24600
N 	N 	0.47498 0.08447 0.33948 -0.25000
H 	H 	0.45350 0.08530 0.34890 0.12600
N 	N 	0.50396 0.12949 0.37763 -0.32700
H 	H 	0.52330 0.14180 0.38280 0.12900
H 	H 	0.48410 0.13310 0.38970 0.14400
N 	N 	0.57352 0.19463 0.38126 -0.26100
N 	N 	0.54611 0.21841 0.39286 -0.25100
N 	N 	0.54531 0.21578 0.33278 -0.24400
H 	H 	0.53910 0.21940 0.31040 0.12200
N 	N 	0.50200 0.25540 0.36110 -0.32200
H 	H 	0.49320 0.26450 0.38090 0.10500
H 	H 	0.49320 0.26190 0.34030 0.13200
C 	C 	0.48606 0.06332 0.31097 0.14800
C 	C 	0.50478 0.10394 0.35008 0.21100
C 	C 	0.57274 0.19371 0.34509 0.12900
C 	C 	0.53000 0.23073 0.36266 0.19000
Cu	Cu	0.58599 0.60879 0.83118 0.80200
Cu	Cu	0.55481 0.54652 0.76875 0.78300
S 	S 	0.45747 0.53214 0.78856 -0.54700
S 	S 	0.60106 0.66835 0.81609 -0.48000
N 	N 	0.52098 0.56936 0.80483 -0.26900
N 	N 	0.53304 0.59606 0.83008 -0.24600
N 	N 	0.47498 0.58447 0.83948 -0.25000
H 	H 	0.45350 0.58530 0.84890 0.12700
N 	N 	0.50396 0.62949 0.87763 -0.32800
H 	H 	0.52330 0.64180 0.88280 0.12900
H 	H 	0.48410 0.63310 0.88970 0.14400
N 	N 	0.57352 0.69463 0.88126 -0.26100
N 	N 	0.54611 0.71841 0.89286 -0.25100
N 	N 	0.54531 0.71578 0.83278 -0.24400
H 	H 	0.53910 0.71940 0.81040 0.12200
N 	N 	0.50200 0.75540 0.86110 -0.32200
H 	H 	0.49320 0.76450 0.88090 0.10400
H 	H 	0.49320 0.76190 0.84030 0.13200
C 	C 	0.48606 0.56332 0.81097 0.14800
C 	C 	0.50478 0.60394 0.85008 0.21200
C 	C 	0.57274 0.69371 0.84509 0.12900
C 	C 	0.53000 0.73073 0.86266 0.19000
Cu	Cu	0.08599 0.10879 0.83118 0.80100
Cu	Cu	0.05481 0.04652 0.76875 0.78200
S 	S 	0.95747 0.03214 0.78856 -0.54900
S 	S 	0.10106 0.16835 0.81609 -0.48100
N 	N 	0.02098 0.06936 0.80483 -0.27300
N 	N 	0.03304 0.09606 0.83008 -0.24600
N 	N 	0.97498 0.08447 0.83948 -0.24700
H 	H 	0.95350 0.08530 0.84890 0.12700
N 	N 	0.00396 0.12949 0.87763 -0.33400
H 	H 	0.02330 0.14180 0.88280 0.13000
H 	H 	0.98410 0.13310 0.88970 0.15100
N 	N 	0.07352 0.19463 0.88126 -0.26100
N 	N 	0.04611 0.21841 0.89286 -0.25200
N 	N 	0.04531 0.21578 0.83278 -0.24500
H 	H 	0.03910 0.21940 0.81040 0.12000
N 	N 	0.00200 0.25540 0.86110 -0.33700
H 	H 	0.99320 0.26450 0.88090 0.11300
H 	H 	0.99320 0.26190 0.84030 0.14200
C 	C 	0.98606 0.06332 0.81097 0.15500
C 	C 	0.00478 0.10394 0.85008 0.20600
C 	C 	0.07274 0.19371 0.84509 0.12800
C 	C 	0.03000 0.23073 0.86266 0.19100
Cu	Cu	0.08599 0.60879 0.33118 0.80200
Cu	Cu	0.05481 0.54652 0.26875 0.78300
S 	S 	0.95747 0.53214 0.28856 -0.54500
S 	S 	0.10106 0.66835 0.31609 -0.48100
N 	N 	0.02098 0.56936 0.30483 -0.27300
N 	N 	0.03304 0.59606 0.33008 -0.24500
N 	N 	0.97498 0.58447 0.33948 -0.24700
H 	H 	0.95350 0.58530 0.34890 0.12700
N 	N 	0.00396 0.62949 0.37763 -0.33400
H 	H 	0.02330 0.64180 0.38280 0.13000
H 	H 	0.98410 0.63310 0.38970 0.15100
N 	N 	0.07352 0.69463 0.38126 -0.26100
N 	N 	0.04611 0.71841 0.39286 -0.25200
N 	N 	0.04531 0.71578 0.33278 -0.24500
H 	H 	0.03910 0.71940 0.31040 0.12000
N 	N 	0.00200 0.75540 0.36110 -0.33700
H 	H 	0.99320 0.76450 0.38090 0.11300
H 	H 	0.99320 0.76190 0.34030 0.14200
C 	C 	0.98606 0.56332 0.31097 0.15500
C 	C 	0.00478 0.60394 0.35008 0.20600
C 	C 	0.07274 0.69371 0.34509 0.12800
C 	C 	0.03000 0.73073 0.36266 0.19100
Cu	Cu	0.41401 0.10879 0.66882 0.80100
Cu	Cu	0.44519 0.04652 0.73125 0.78200
S 	S 	0.54253 0.03214 0.71144 -0.55100
S 	S 	0.39894 0.16835 0.68391 -0.48000
N 	N 	0.47902 0.06936 0.69517 -0.26900
N 	N 	0.46696 0.09606 0.66992 -0.24600
N 	N 	0.52502 0.08447 0.66052 -0.25000
H 	H 	0.54650 0.08530 0.65110 0.12600
N 	N 	0.49604 0.12949 0.62237 -0.32700
H 	H 	0.47670 0.14180 0.61720 0.12900
H 	H 	0.51590 0.13310 0.61030 0.14400
N 	N 	0.42648 0.19463 0.61874 -0.26100
N 	N 	0.45389 0.21841 0.60714 -0.25100
N 	N 	0.45469 0.21578 0.66722 -0.24400
H 	H 	0.46090 0.21940 0.68960 0.12200
N 	N 	0.49800 0.25540 0.63890 -0.32200
H 	H 	0.50680 0.26450 0.61910 0.10500
H 	H 	0.50680 0.26190 0.65970 0.13200
C 	C 	0.51394 0.06332 0.68903 0.14800
C 	C 	0.49522 0.10394 0.64992 0.21100
C 	C 	0.42726 0.19371 0.65491 0.12900
C 	C 	0.47000 0.23073 0.63734 0.19000
Cu	Cu	0.41401 0.60879 0.16882 0.80200
Cu	Cu	0.44519 0.54652 0.23125 0.78300
S 	S 	0.54253 0.53214 0.21144 -0.54700
S 	S 	0.39894 0.66835 0.18391 -0.48000
N 	N 	0.47902 0.56936 0.19517 -0.26900
N 	N 	0.46696 0.59606 0.16992 -0.24600
N 	N 	0.52502 0.58447 0.16052 -0.25000
H 	H 	0.54650 0.58530 0.15110 0.12700
N 	N 	0.49604 0.62949 0.12237 -0.32700
H 	H 	0.47670 0.64180 0.11720 0.12900
H 	H 	0.51590 0.63310 0.11030 0.14400
N 	N 	0.42648 0.69463 0.11874 -0.26100
N 	N 	0.45389 0.71841 0.10714 -0.25100
N 	N 	0.45469 0.71578 0.16722 -0.24400
H 	H 	0.46090 0.71940 0.18960 0.12200
N 	N 	0.49800 0.75540 0.13890 -0.32200
H 	H 	0.50680 0.76450 0.11910 0.10500
H 	H 	0.50680 0.76190 0.15970 0.13200
C 	C 	0.51394 0.56332 0.18903 0.14800
C 	C 	0.49522 0.60394 0.14992 0.21100
C 	C 	0.42726 0.69371 0.15491 0.12900
C 	C 	0.47000 0.73073 0.13734 0.19000
Cu	Cu	0.91401 0.10879 0.16882 0.80200
Cu	Cu	0.94519 0.04652 0.23125 0.78300
S 	S 	0.04253 0.03214 0.21144 -0.55300
S 	S 	0.89894 0.16835 0.18391 -0.48000
N 	N 	0.97902 0.06936 0.19517 -0.26500
N 	N 	0.96696 0.09606 0.16992 -0.24700
N 	N 	0.02502 0.08447 0.16052 -0.25300
H 	H 	0.04650 0.08530 0.15110 0.12600
N 	N 	0.99604 0.12949 0.12237 -0.32100
H 	H 	0.97670 0.14180 0.11720 0.12800
H 	H 	0.01590 0.13310 0.11030 0.13600
N 	N 	0.92648 0.19463 0.11874 -0.26100
N 	N 	0.95389 0.21841 0.10714 -0.25000
N 	N 	0.95469 0.21578 0.16722 -0.24400
H 	H 	0.96090 0.21940 0.18960 0.12300
N 	N 	0.99800 0.25540 0.13890 -0.30800
H 	H 	0.00680 0.26450 0.11910 0.09600
H 	H 	0.00680 0.26190 0.15970 0.12300
C 	C 	0.01394 0.06332 0.18903 0.14100
C 	C 	0.99522 0.10394 0.14992 0.21600
C 	C 	0.92726 0.19371 0.15491 0.12900
C 	C 	0.97000 0.23073 0.13734 0.19000
Cu	Cu	0.91401 0.60879 0.66882 0.80200
Cu	Cu	0.94519 0.54652 0.73125 0.78400
S 	S 	0.04253 0.53214 0.71144 -0.54800
S 	S 	0.89894 0.66835 0.68391 -0.48000
N 	N 	0.97902 0.56936 0.69517 -0.26500
N 	N 	0.96696 0.59606 0.66992 -0.24700
N 	N 	0.02502 0.58447 0.66052 -0.25200
H 	H 	0.04650 0.58530 0.65110 0.12700
N 	N 	0.99604 0.62949 0.62237 -0.32100
H 	H 	0.97670 0.64180 0.61720 0.12900
H 	H 	0.01590 0.63310 0.61030 0.13700
N 	N 	0.92648 0.69463 0.61874 -0.26100
N 	N 	0.95389 0.71841 0.60714 -0.24900
N 	N 	0.95469 0.71578 0.66722 -0.24400
H 	H 	0.96090 0.71940 0.68960 0.12300
N 	N 	0.99800 0.75540 0.63890 -0.30800
H 	H 	0.00680 0.76450 0.61910 0.09600
H 	H 	0.00680 0.76190 0.65970 0.12300
C 	C 	0.01394 0.56332 0.68903 0.14100
C 	C 	0.99522 0.60394 0.64992 0.21700
C 	C 	0.92726 0.69371 0.65491 0.12900
C 	C 	0.97000 0.73073 0.63734 0.19000
Cu	Cu	0.41401 0.89121 0.33118 0.80200
Cu	Cu	0.44519 0.95348 0.26875 0.78500
S 	S 	0.54253 0.96786 0.28856 -0.54200
S 	S 	0.39894 0.83165 0.31609 -0.48000
N 	N 	0.47902 0.93064 0.30483 -0.26800
N 	N 	0.46696 0.90394 0.33008 -0.24600
N 	N 	0.52502 0.91553 0.33948 -0.25000
H 	H 	0.54650 0.91470 0.34890 0.12700
N 	N 	0.49604 0.87051 0.37763 -0.32800
H 	H 	0.47670 0.85820 0.38280 0.12900
H 	H 	0.51590 0.86690 0.38970 0.14400
N 	N 	0.42648 0.80537 0.38126 -0.26100
N 	N 	0.45389 0.78159 0.39286 -0.25100
N 	N 	0.45469 0.78422 0.33278 -0.24400
H 	H 	0.46090 0.78060 0.31040 0.12200
N 	N 	0.49800 0.74460 0.36110 -0.32200
H 	H 	0.50680 0.73550 0.38090 0.10500
H 	H 	0.50680 0.73810 0.34030 0.13200
C 	C 	0.51394 0.93668 0.31097 0.14800
C 	C 	0.49522 0.89606 0.35008 0.21200
C 	C 	0.42726 0.80629 0.34509 0.12900
C 	C 	0.47000 0.76927 0.36266 0.19000
Cu	Cu	0.41401 0.39121 0.83118 0.80200
Cu	Cu	0.44519 0.45348 0.76875 0.78300
S 	S 	0.54253 0.46786 0.78856 -0.54700
S 	S 	0.39894 0.33165 0.81609 -0.48000
N 	N 	0.47902 0.43064 0.80483 -0.26900
N 	N 	0.46696 0.40394 0.83008 -0.24600
N 	N 	0.52502 0.41553 0.83948 -0.25000
H 	H 	0.54650 0.41470 0.84890 0.12700
N 	N 	0.49604 0.37051 0.87763 -0.32800
H 	H 	0.47670 0.35820 0.88280 0.12900
H 	H 	0.51590 0.36690 0.88970 0.14400
N 	N 	0.42648 0.30537 0.88126 -0.26100
N 	N 	0.45389 0.28159 0.89286 -0.25100
N 	N 	0.45469 0.28422 0.83278 -0.24400
H 	H 	0.46090 0.28060 0.81040 0.12200
N 	N 	0.49800 0.24460 0.86110 -0.32200
H 	H 	0.50680 0.23550 0.88090 0.10500
H 	H 	0.50680 0.23810 0.84030 0.13200
C 	C 	0.51394 0.43668 0.81097 0.14800
C 	C 	0.49522 0.39606 0.85008 0.21200
C 	C 	0.42726 0.30629 0.84509 0.12900
C 	C 	0.47000 0.26927 0.86266 0.19000
Cu	Cu	0.91401 0.89121 0.83118 0.80200
Cu	Cu	0.94519 0.95348 0.76875 0.78500
S 	S 	0.04253 0.96786 0.78856 -0.54300
S 	S 	0.89894 0.83165 0.81609 -0.48000
N 	N 	0.97902 0.93064 0.80483 -0.26400
N 	N 	0.96696 0.90394 0.83008 -0.24600
N 	N 	0.02502 0.91553 0.83948 -0.25200
H 	H 	0.04650 0.91470 0.84890 0.12700
N 	N 	0.99604 0.87051 0.87763 -0.32200
H 	H 	0.97670 0.85820 0.88280 0.12900
H 	H 	0.01590 0.86690 0.88970 0.13800
N 	N 	0.92648 0.80537 0.88126 -0.26100
N 	N 	0.95389 0.78159 0.89286 -0.24900
N 	N 	0.95469 0.78422 0.83278 -0.24400
H 	H 	0.96090 0.78060 0.81040 0.12300
N 	N 	0.99800 0.74460 0.86110 -0.30800
H 	H 	0.00680 0.73550 0.88090 0.09600
H 	H 	0.00680 0.73810 0.84030 0.12300
C 	C 	0.01394 0.93668 0.81097 0.14100
C 	C 	0.99522 0.89606 0.85008 0.21800
C 	C 	0.92726 0.80629 0.84509 0.12900
C 	C 	0.97000 0.76927 0.86266 0.19000
Cu	Cu	0.91401 0.39121 0.33118 0.80200
Cu	Cu	0.94519 0.45348 0.26875 0.78400
S 	S 	0.04253 0.46786 0.28856 -0.54800
S 	S 	0.89894 0.33165 0.31609 -0.48000
N 	N 	0.97902 0.43064 0.30483 -0.26500
N 	N 	0.96696 0.40394 0.33008 -0.24700
N 	N 	0.02502 0.41553 0.33948 -0.25200
H 	H 	0.04650 0.41470 0.34890 0.12700
N 	N 	0.99604 0.37051 0.37763 -0.32100
H 	H 	0.97670 0.35820 0.38280 0.12900
H 	H 	0.01590 0.36690 0.38970 0.13700
N 	N 	0.92648 0.30537 0.38126 -0.26100
N 	N 	0.95389 0.28159 0.39286 -0.24900
N 	N 	0.95469 0.28422 0.33278 -0.24400
H 	H 	0.96090 0.28060 0.31040 0.12300
N 	N 	0.99800 0.24460 0.36110 -0.30800
H 	H 	0.00680 0.23550 0.38090 0.09600
H 	H 	0.00680 0.23810 0.34030 0.12300
C 	C 	0.01394 0.43668 0.31097 0.14100
C 	C 	0.99522 0.39606 0.35008 0.21700
C 	C 	0.92726 0.30629 0.34509 0.12900
C 	C 	0.97000 0.26927 0.36266 0.19000
Cu	Cu	0.66882 0.58599 0.89121 0.80200
Cu	Cu	0.73125 0.55481 0.95348 0.78500
S 	S 	0.71144 0.45747 0.96786 -0.54200
S 	S 	0.68391 0.60106 0.83165 -0.48000
N 	N 	0.69517 0.52098 0.93064 -0.26800
N 	N 	0.66992 0.53304 0.90394 -0.24600
N 	N 	0.66052 0.47498 0.91553 -0.25000
H 	H 	0.65110 0.45350 0.91470 0.12700
N 	N 	0.62237 0.50396 0.87051 -0.32800
H 	H 	0.61720 0.52330 0.85820 0.12900
H 	H 	0.61030 0.48410 0.86690 0.14400
N 	N 	0.61874 0.57352 0.80537 -0.26100
N 	N 	0.60714 0.54611 0.78159 -0.25100
N 	N 	0.66722 0.54531 0.78422 -0.24400
H 	H 	0.68960 0.53910 0.78060 0.12200
N 	N 	0.63890 0.50200 0.74460 -0.32200
H 	H 	0.61910 0.49320 0.73550 0.10400
H 	H 	0.65970 0.49320 0.73810 0.13200
C 	C 	0.68903 0.48606 0.93668 0.14800
C 	C 	0.64992 0.50478 0.89606 0.21200
C 	C 	0.65491 0.57274 0.80629 0.12900
C 	C 	0.63734 0.53000 0.76927 0.19000
Cu	Cu	0.66882 0.08599 0.39121 0.80200
Cu	Cu	0.73125 0.05481 0.45348 0.78300
S 	S 	0.71144 0.95747 0.46786 -0.54500
S 	S 	0.68391 0.10106 0.33165 -0.48100
N 	N 	0.69517 0.02098 0.43064 -0.27300
N 	N 	0.66992 0.03304 0.40394 -0.24500
N 	N 	0.66052 0.97498 0.41553 -0.24700
H 	H 	0.65110 0.95350 0.41470 0.12700
N 	N 	0.62237 0.00396 0.37051 -0.33400
H 	H 	0.61720 0.02330 0.35820 0.13000
H 	H 	0.61030 0.98410 0.36690 0.15100
N 	N 	0.61874 0.07352 0.30537 -0.26100
N 	N 	0.60714 0.04611 0.28159 -0.25200
N 	N 	0.66722 0.04531 0.28422 -0.24500
H 	H 	0.68960 0.03910 0.28060 0.12000
N 	N 	0.63890 0.00200 0.24460 -0.33700
H 	H 	0.61910 0.99320 0.23550 0.11400
H 	H 	0.65970 0.99320 0.23810 0.14200
C 	C 	0.68903 0.98606 0.43668 0.15500
C 	C 	0.64992 0.00478 0.39606 0.20600
C 	C 	0.65491 0.07274 0.30629 0.12800
C 	C 	0.63734 0.03000 0.26927 0.19100
Cu	Cu	0.16882 0.58599 0.39121 0.80200
Cu	Cu	0.23125 0.55481 0.45348 0.78300
S 	S 	0.21144 0.45747 0.46786 -0.54700
S 	S 	0.18391 0.60106 0.33165 -0.48000
N 	N 	0.19517 0.52098 0.43064 -0.26900
N 	N 	0.16992 0.53304 0.40394 -0.24600
N 	N 	0.16052 0.47498 0.41553 -0.25000
H 	H 	0.15110 0.45350 0.41470 0.12700
N 	N 	0.12237 0.50396 0.37051 -0.32700
H 	H 	0.11720 0.52330 0.35820 0.12900
H 	H 	0.11030 0.48410 0.36690 0.14400
N 	N 	0.11874 0.57352 0.30537 -0.26100
N 	N 	0.10714 0.54611 0.28159 -0.25100
N 	N 	0.16722 0.54531 0.28422 -0.24400
H 	H 	0.18960 0.53910 0.28060 0.12200
N 	N 	0.13890 0.50200 0.24460 -0.32200
H 	H 	0.11910 0.49320 0.23550 0.10500
H 	H 	0.15970 0.49320 0.23810 0.13200
C 	C 	0.18903 0.48606 0.43668 0.14800
C 	C 	0.14992 0.50478 0.39606 0.21100
C 	C 	0.15491 0.57274 0.30629 0.12900
C 	C 	0.13734 0.53000 0.26927 0.19000
Cu	Cu	0.16882 0.08599 0.89121 0.80200
Cu	Cu	0.23125 0.05481 0.95348 0.78400
S 	S 	0.21144 0.95747 0.96786 -0.54000
S 	S 	0.18391 0.10106 0.83165 -0.48100
N 	N 	0.19517 0.02098 0.93064 -0.27200
N 	N 	0.16992 0.03304 0.90394 -0.24500
N 	N 	0.16052 0.97498 0.91553 -0.24700
H 	H 	0.15110 0.95350 0.91470 0.12700
N 	N 	0.12237 0.00396 0.87051 -0.33400
H 	H 	0.11720 0.02330 0.85820 0.13000
H 	H 	0.11030 0.98410 0.86690 0.15100
N 	N 	0.11874 0.07352 0.80537 -0.26100
N 	N 	0.10714 0.04611 0.78159 -0.25200
N 	N 	0.16722 0.04531 0.78422 -0.24500
H 	H 	0.18960 0.03910 0.78060 0.12000
N 	N 	0.13890 0.00200 0.74460 -0.33700
H 	H 	0.11910 0.99320 0.73550 0.11400
H 	H 	0.15970 0.99320 0.73810 0.14200
C 	C 	0.18903 0.98606 0.93668 0.15500
C 	C 	0.14992 0.00478 0.89606 0.20600
C 	C 	0.15491 0.07274 0.80629 0.12800
C 	C 	0.13734 0.03000 0.76927 0.19100
Cu	Cu	0.33118 0.58599 0.10879 0.80100
Cu	Cu	0.26875 0.55481 0.04652 0.78200
S 	S 	0.28856 0.45747 0.03214 -0.55100
S 	S 	0.31609 0.60106 0.16835 -0.48000
N 	N 	0.30483 0.52098 0.06936 -0.26900
N 	N 	0.33008 0.53304 0.09606 -0.24600
N 	N 	0.33948 0.47498 0.08447 -0.25000
H 	H 	0.34890 0.45350 0.08530 0.12600
N 	N 	0.37763 0.50396 0.12949 -0.32700
H 	H 	0.38280 0.52330 0.14180 0.12900
H 	H 	0.38970 0.48410 0.13310 0.14400
N 	N 	0.38126 0.57352 0.19463 -0.26100
N 	N 	0.39286 0.54611 0.21841 -0.25100
N 	N 	0.33278 0.54531 0.21578 -0.24400
H 	H 	0.31040 0.53910 0.21940 0.12200
N 	N 	0.36110 0.50200 0.25540 -0.32200
H 	H 	0.38090 0.49320 0.26450 0.10500
H 	H 	0.34030 0.49320 0.26190 0.13200
C 	C 	0.31097 0.48606 0.06332 0.14800
C 	C 	0.35008 0.50478 0.10394 0.21100
C 	C 	0.34509 0.57274 0.19371 0.12900
C 	C 	0.36266 0.53000 0.23073 0.19000
Cu	Cu	0.33118 0.08599 0.60879 0.80200
Cu	Cu	0.26875 0.05481 0.54652 0.78300
S 	S 	0.28856 0.95747 0.53214 -0.54500
S 	S 	0.31609 0.10106 0.66835 -0.48100
N 	N 	0.30483 0.02098 0.56936 -0.27300
N 	N 	0.33008 0.03304 0.59606 -0.24500
N 	N 	0.33948 0.97498 0.58447 -0.24700
H 	H 	0.34890 0.95350 0.58530 0.12700
N 	N 	0.37763 0.00396 0.62949 -0.33400
H 	H 	0.38280 0.02330 0.64180 0.13000
H 	H 	0.38970 0.98410 0.63310 0.15100
N 	N 	0.38126 0.07352 0.69463 -0.26100
N 	N 	0.39286 0.04611 0.71841 -0.25200
N 	N 	0.33278 0.04531 0.71578 -0.24500
H 	H 	0.31040 0.03910 0.71940 0.12000
N 	N 	0.36110 0.00200 0.75540 -0.33700
H 	H 	0.38090 0.99320 0.76450 0.11300
H 	H 	0.34030 0.99320 0.76190 0.14200
C 	C 	0.31097 0.98606 0.56332 0.15500
C 	C 	0.35008 0.00478 0.60394 0.20600
C 	C 	0.34509 0.07274 0.69371 0.12800
C 	C 	0.36266 0.03000 0.73073 0.19100
Cu	Cu	0.83118 0.58599 0.60879 0.80200
Cu	Cu	0.76875 0.55481 0.54652 0.78300
S 	S 	0.78856 0.45747 0.53214 -0.54700
S 	S 	0.81609 0.60106 0.66835 -0.48000
N 	N 	0.80483 0.52098 0.56936 -0.26900
N 	N 	0.83008 0.53304 0.59606 -0.24600
N 	N 	0.83948 0.47498 0.58447 -0.25000
H 	H 	0.84890 0.45350 0.58530 0.12700
N 	N 	0.87763 0.50396 0.62949 -0.32800
H 	H 	0.88280 0.52330 0.64180 0.12900
H 	H 	0.88970 0.48410 0.63310 0.14400
N 	N 	0.88126 0.57352 0.69463 -0.26100
N 	N 	0.89286 0.54611 0.71841 -0.25100
N 	N 	0.83278 0.54531 0.71578 -0.24400
H 	H 	0.81040 0.53910 0.71940 0.12200
N 	N 	0.86110 0.50200 0.75540 -0.32200
H 	H 	0.88090 0.49320 0.76450 0.10400
H 	H 	0.84030 0.49320 0.76190 0.13200
C 	C 	0.81097 0.48606 0.56332 0.14800
C 	C 	0.85008 0.50478 0.60394 0.21200
C 	C 	0.84509 0.57274 0.69371 0.12900
C 	C 	0.86266 0.53000 0.73073 0.19000
Cu	Cu	0.83118 0.08599 0.10879 0.80100
Cu	Cu	0.76875 0.05481 0.04652 0.78200
S 	S 	0.78856 0.95747 0.03214 -0.54900
S 	S 	0.81609 0.10106 0.16835 -0.48100
N 	N 	0.80483 0.02098 0.06936 -0.27300
N 	N 	0.83008 0.03304 0.09606 -0.24600
N 	N 	0.83948 0.97498 0.08447 -0.24700
H 	H 	0.84890 0.95350 0.08530 0.12700
N 	N 	0.87763 0.00396 0.12949 -0.33400
H 	H 	0.88280 0.02330 0.14180 0.13000
H 	H 	0.88970 0.98410 0.13310 0.15100
N 	N 	0.88126 0.07352 0.19463 -0.26100
N 	N 	0.89286 0.04611 0.21841 -0.25200
N 	N 	0.83278 0.04531 0.21578 -0.24500
H 	H 	0.81040 0.03910 0.21940 0.12000
N 	N 	0.86110 0.00200 0.25540 -0.33700
H 	H 	0.88090 0.99320 0.26450 0.11300
H 	H 	0.84030 0.99320 0.26190 0.14200
C 	C 	0.81097 0.98606 0.06332 0.15500
C 	C 	0.85008 0.00478 0.10394 0.20600
C 	C 	0.84509 0.07274 0.19371 0.12800
C 	C 	0.86266 0.03000 0.23073 0.19100
Cu	Cu	0.66882 0.41401 0.10879 0.80100
Cu	Cu	0.73125 0.44519 0.04652 0.78200
S 	S 	0.71144 0.54253 0.03214 -0.55100
S 	S 	0.68391 0.39894 0.16835 -0.48000
N 	N 	0.69517 0.47902 0.06936 -0.26900
N 	N 	0.66992 0.46696 0.09606 -0.24600
N 	N 	0.66052 0.52502 0.08447 -0.25000
H 	H 	0.65110 0.54650 0.08530 0.12600
N 	N 	0.62237 0.49604 0.12949 -0.32700
H 	H 	0.61720 0.47670 0.14180 0.12900
H 	H 	0.61030 0.51590 0.13310 0.14400
N 	N 	0.61874 0.42648 0.19463 -0.26100
N 	N 	0.60714 0.45389 0.21841 -0.25100
N 	N 	0.66722 0.45469 0.21578 -0.24400
H 	H 	0.68960 0.46090 0.21940 0.12200
N 	N 	0.63890 0.49800 0.25540 -0.32200
H 	H 	0.61910 0.50680 0.26450 0.10500
H 	H 	0.65970 0.50680 0.26190 0.13200
C 	C 	0.68903 0.51394 0.06332 0.14800
C 	C 	0.64992 0.49522 0.10394 0.21100
C 	C 	0.65491 0.42726 0.19371 0.12900
C 	C 	0.63734 0.47000 0.23073 0.19000
Cu	Cu	0.66882 0.91401 0.60879 0.80200
Cu	Cu	0.73125 0.94519 0.54652 0.78400
S 	S 	0.71144 0.04253 0.53214 -0.54800
S 	S 	0.68391 0.89894 0.66835 -0.48000
N 	N 	0.69517 0.97902 0.56936 -0.26500
N 	N 	0.66992 0.96696 0.59606 -0.24700
N 	N 	0.66052 0.02502 0.58447 -0.25200
H 	H 	0.65110 0.04650 0.58530 0.12700
N 	N 	0.62237 0.99604 0.62949 -0.32100
H 	H 	0.61720 0.97670 0.64180 0.12900
H 	H 	0.61030 0.01590 0.63310 0.13700
N 	N 	0.61874 0.92648 0.69463 -0.26100
N 	N 	0.60714 0.95389 0.71841 -0.24900
N 	N 	0.66722 0.95469 0.71578 -0.24400
H 	H 	0.68960 0.96090 0.71940 0.12300
N 	N 	0.63890 0.99800 0.75540 -0.30800
H 	H 	0.61910 0.00680 0.76450 0.09600
H 	H 	0.65970 0.00680 0.76190 0.12300
C 	C 	0.68903 0.01394 0.56332 0.14100
C 	C 	0.64992 0.99522 0.60394 0.21700
C 	C 	0.65491 0.92726 0.69371 0.12900
C 	C 	0.63734 0.97000 0.73073 0.19000
Cu	Cu	0.16882 0.41401 0.60879 0.80200
Cu	Cu	0.23125 0.44519 0.54652 0.78300
S 	S 	0.21144 0.54253 0.53214 -0.54700
S 	S 	0.18391 0.39894 0.66835 -0.48000
N 	N 	0.19517 0.47902 0.56936 -0.26900
N 	N 	0.16992 0.46696 0.59606 -0.24600
N 	N 	0.16052 0.52502 0.58447 -0.25000
H 	H 	0.15110 0.54650 0.58530 0.12700
N 	N 	0.12237 0.49604 0.62949 -0.32700
H 	H 	0.11720 0.47670 0.64180 0.12900
H 	H 	0.11030 0.51590 0.63310 0.14400
N 	N 	0.11874 0.42648 0.69463 -0.26100
N 	N 	0.10714 0.45389 0.71841 -0.25100
N 	N 	0.16722 0.45469 0.71578 -0.24400
H 	H 	0.18960 0.46090 0.71940 0.12200
N 	N 	0.13890 0.49800 0.75540 -0.32200
H 	H 	0.11910 0.50680 0.76450 0.10500
H 	H 	0.15970 0.50680 0.76190 0.13200
C 	C 	0.18903 0.51394 0.56332 0.14800
C 	C 	0.14992 0.49522 0.60394 0.21100
C 	C 	0.15491 0.42726 0.69371 0.12900
C 	C 	0.13734 0.47000 0.73073 0.19000
Cu	Cu	0.16882 0.91401 0.10879 0.80200
Cu	Cu	0.23125 0.94519 0.04652 0.78300
S 	S 	0.21144 0.04253 0.03214 -0.55300
S 	S 	0.18391 0.89894 0.16835 -0.48000
N 	N 	0.19517 0.97902 0.06936 -0.26500
N 	N 	0.16992 0.96696 0.09606 -0.24700
N 	N 	0.16052 0.02502 0.08447 -0.25300
H 	H 	0.15110 0.04650 0.08530 0.12600
N 	N 	0.12237 0.99604 0.12949 -0.32100
H 	H 	0.11720 0.97670 0.14180 0.12800
H 	H 	0.11030 0.01590 0.13310 0.13600
N 	N 	0.11874 0.92648 0.19463 -0.26100
N 	N 	0.10714 0.95389 0.21841 -0.25000
N 	N 	0.16722 0.95469 0.21578 -0.24400
H 	H 	0.18960 0.96090 0.21940 0.12300
N 	N 	0.13890 0.99800 0.25540 -0.30800
H 	H 	0.11910 0.00680 0.26450 0.09600
H 	H 	0.15970 0.00680 0.26190 0.12300
C 	C 	0.18903 0.01394 0.06332 0.14100
C 	C 	0.14992 0.99522 0.10394 0.21600
C 	C 	0.15491 0.92726 0.19371 0.12900
C 	C 	0.13734 0.97000 0.23073 0.19000
Cu	Cu	0.33118 0.41401 0.89121 0.80200
Cu	Cu	0.26875 0.44519 0.95348 0.78500
S 	S 	0.28856 0.54253 0.96786 -0.54200
S 	S 	0.31609 0.39894 0.83165 -0.48000
N 	N 	0.30483 0.47902 0.93064 -0.26800
N 	N 	0.33008 0.46696 0.90394 -0.24600
N 	N 	0.33948 0.52502 0.91553 -0.25000
H 	H 	0.34890 0.54650 0.91470 0.12700
N 	N 	0.37763 0.49604 0.87051 -0.32800
H 	H 	0.38280 0.47670 0.85820 0.12900
H 	H 	0.38970 0.51590 0.86690 0.14400
N 	N 	0.38126 0.42648 0.80537 -0.26100
N 	N 	0.39286 0.45389 0.78159 -0.25100
N 	N 	0.33278 0.45469 0.78422 -0.24400
H 	H 	0.31040 0.46090 0.78060 0.12200
N 	N 	0.36110 0.49800 0.74460 -0.32200
H 	H 	0.38090 0.50680 0.73550 0.10500
H 	H 	0.34030 0.50680 0.73810 0.13200
C 	C 	0.31097 0.51394 0.93668 0.14800
C 	C 	0.35008 0.49522 0.89606 0.21200
C 	C 	0.34509 0.42726 0.80629 0.12900
C 	C 	0.36266 0.47000 0.76927 0.19000
Cu	Cu	0.33118 0.91401 0.39121 0.80200
Cu	Cu	0.26875 0.94519 0.45348 0.78400
S 	S 	0.28856 0.04253 0.46786 -0.54800
S 	S 	0.31609 0.89894 0.33165 -0.48000
N 	N 	0.30483 0.97902 0.43064 -0.26500
N 	N 	0.33008 0.96696 0.40394 -0.24700
N 	N 	0.33948 0.02502 0.41553 -0.25200
H 	H 	0.34890 0.04650 0.41470 0.12700
N 	N 	0.37763 0.99604 0.37051 -0.32100
H 	H 	0.38280 0.97670 0.35820 0.12900
H 	H 	0.38970 0.01590 0.36690 0.13700
N 	N 	0.38126 0.92648 0.30537 -0.26100
N 	N 	0.39286 0.95389 0.28159 -0.24900
N 	N 	0.33278 0.95469 0.28422 -0.24400
H 	H 	0.31040 0.96090 0.28060 0.12300
N 	N 	0.36110 0.99800 0.24460 -0.30800
H 	H 	0.38090 0.00680 0.23550 0.09600
H 	H 	0.34030 0.00680 0.23810 0.12300
C 	C 	0.31097 0.01394 0.43668 0.14100
C 	C 	0.35008 0.99522 0.39606 0.21700
C 	C 	0.34509 0.92726 0.30629 0.12900
C 	C 	0.36266 0.97000 0.26927 0.19000
Cu	Cu	0.83118 0.41401 0.39121 0.80200
Cu	Cu	0.76875 0.44519 0.45348 0.78300
S 	S 	0.78856 0.54253 0.46786 -0.54700
S 	S 	0.81609 0.39894 0.33165 -0.48000
N 	N 	0.80483 0.47902 0.43064 -0.26900
N 	N 	0.83008 0.46696 0.40394 -0.24600
N 	N 	0.83948 0.52502 0.41553 -0.25000
H 	H 	0.84890 0.54650 0.41470 0.12700
N 	N 	0.87763 0.49604 0.37051 -0.32800
H 	H 	0.88280 0.47670 0.35820 0.12900
H 	H 	0.88970 0.51590 0.36690 0.14400
N 	N 	0.88126 0.42648 0.30537 -0.26100
N 	N 	0.89286 0.45389 0.28159 -0.25100
N 	N 	0.83278 0.45469 0.28422 -0.24400
H 	H 	0.81040 0.46090 0.28060 0.12200
N 	N 	0.86110 0.49800 0.24460 -0.32200
H 	H 	0.88090 0.50680 0.23550 0.10500
H 	H 	0.84030 0.50680 0.23810 0.13200
C 	C 	0.81097 0.51394 0.43668 0.14800
C 	C 	0.85008 0.49522 0.39606 0.21200
C 	C 	0.84509 0.42726 0.30629 0.12900
C 	C 	0.86266 0.47000 0.26927 0.19000
Cu	Cu	0.83118 0.91401 0.89121 0.80200
Cu	Cu	0.76875 0.94519 0.95348 0.78500
S 	S 	0.78856 0.04253 0.96786 -0.54300
S 	S 	0.81609 0.89894 0.83165 -0.48000
N 	N 	0.80483 0.97902 0.93064 -0.26400
N 	N 	0.83008 0.96696 0.90394 -0.24600
N 	N 	0.83948 0.02502 0.91553 -0.25200
H 	H 	0.84890 0.04650 0.91470 0.12700
N 	N 	0.87763 0.99604 0.87051 -0.32200
H 	H 	0.88280 0.97670 0.85820 0.12900
H 	H 	0.88970 0.01590 0.86690 0.13800
N 	N 	0.88126 0.92648 0.80537 -0.26100
N 	N 	0.89286 0.95389 0.78159 -0.24900
N 	N 	0.83278 0.95469 0.78422 -0.24400
H 	H 	0.81040 0.96090 0.78060 0.12300
N 	N 	0.86110 0.99800 0.74460 -0.30800
H 	H 	0.88090 0.00680 0.73550 0.09600
H 	H 	0.84030 0.00680 0.73810 0.12300
C 	C 	0.81097 0.01394 0.93668 0.14100
C 	C 	0.85008 0.99522 0.89606 0.21800
C 	C 	0.84509 0.92726 0.80629 0.12900
C 	C 	0.86266 0.97000 0.76927 0.19000
Cu	Cu	0.16882 0.39121 0.08599 0.80200
Cu	Cu	0.23125 0.45348 0.05481 0.78300
S 	S 	0.21144 0.46786 0.95747 -0.54500
S 	S 	0.18391 0.33165 0.10106 -0.48100
N 	N 	0.19517 0.43064 0.02098 -0.27300
N 	N 	0.16992 0.40394 0.03304 -0.24500
N 	N 	0.16052 0.41553 0.97498 -0.24700
H 	H 	0.15110 0.41470 0.95350 0.12700
N 	N 	0.12237 0.37051 0.00396 -0.33400
H 	H 	0.11720 0.35820 0.02330 0.12900
H 	H 	0.11030 0.36690 0.98410 0.15000
N 	N 	0.11874 0.30537 0.07352 -0.26100
N 	N 	0.10714 0.28159 0.04611 -0.25200
N 	N 	0.16722 0.28422 0.04531 -0.24500
H 	H 	0.18960 0.28060 0.03910 0.12000
N 	N 	0.13890 0.24460 0.00200 -0.33700
H 	H 	0.11910 0.23550 0.99320 0.11400
H 	H 	0.15970 0.23810 0.99320 0.14200
C 	C 	0.18903 0.43668 0.98606 0.15500
C 	C 	0.14992 0.39606 0.00478 0.20500
C 	C 	0.15491 0.30629 0.07274 0.12800
C 	C 	0.13734 0.26927 0.03000 0.19100
Cu	Cu	0.16882 0.89121 0.58599 0.80200
Cu	Cu	0.23125 0.95348 0.55481 0.78500
S 	S 	0.21144 0.96786 0.45747 -0.54200
S 	S 	0.18391 0.83165 0.60106 -0.48000
N 	N 	0.19517 0.93064 0.52098 -0.26800
N 	N 	0.16992 0.90394 0.53304 -0.24600
N 	N 	0.16052 0.91553 0.47498 -0.24900
H 	H 	0.15110 0.91470 0.45350 0.12700
N 	N 	0.12237 0.87051 0.50396 -0.32700
H 	H 	0.11720 0.85820 0.52330 0.12900
H 	H 	0.11030 0.86690 0.48410 0.14400
N 	N 	0.11874 0.80537 0.57352 -0.26100
N 	N 	0.10714 0.78159 0.54611 -0.25100
N 	N 	0.16722 0.78422 0.54531 -0.24400
H 	H 	0.18960 0.78060 0.53910 0.12200
N 	N 	0.13890 0.74460 0.50200 -0.32200
H 	H 	0.11910 0.73550 0.49320 0.10500
H 	H 	0.15970 0.73810 0.49320 0.13200
C 	C 	0.18903 0.93668 0.48606 0.14800
C 	C 	0.14992 0.89606 0.50478 0.21200
C 	C 	0.15491 0.80629 0.57274 0.12900
C 	C 	0.13734 0.76927 0.53000 0.19000
Cu	Cu	0.66882 0.39121 0.58599 0.80200
Cu	Cu	0.73125 0.45348 0.55481 0.78300
S 	S 	0.71144 0.46786 0.45747 -0.54700
S 	S 	0.68391 0.33165 0.60106 -0.48000
N 	N 	0.69517 0.43064 0.52098 -0.26900
N 	N 	0.66992 0.40394 0.53304 -0.24600
N 	N 	0.66052 0.41553 0.47498 -0.25000
H 	H 	0.65110 0.41470 0.45350 0.12700
N 	N 	0.62237 0.37051 0.50396 -0.32800
H 	H 	0.61720 0.35820 0.52330 0.12900
H 	H 	0.61030 0.36690 0.48410 0.14400
N 	N 	0.61874 0.30537 0.57352 -0.26100
N 	N 	0.60714 0.28159 0.54611 -0.25100
N 	N 	0.66722 0.28422 0.54531 -0.24400
H 	H 	0.68960 0.28060 0.53910 0.12200
N 	N 	0.63890 0.24460 0.50200 -0.32200
H 	H 	0.61910 0.23550 0.49320 0.10500
H 	H 	0.65970 0.23810 0.49320 0.13200
C 	C 	0.68903 0.43668 0.48606 0.14800
C 	C 	0.64992 0.39606 0.50478 0.21100
C 	C 	0.65491 0.30629 0.57274 0.12900
C 	C 	0.63734 0.26927 0.53000 0.19000
Cu	Cu	0.66882 0.89121 0.08599 0.80200
Cu	Cu	0.73125 0.95348 0.05481 0.78400
S 	S 	0.71144 0.96786 0.95747 -0.54000
S 	S 	0.68391 0.83165 0.10106 -0.48100
N 	N 	0.69517 0.93064 0.02098 -0.27200
N 	N 	0.66992 0.90394 0.03304 -0.24500
N 	N 	0.66052 0.91553 0.97498 -0.24700
H 	H 	0.65110 0.91470 0.95350 0.12700
N 	N 	0.62237 0.87051 0.00396 -0.33400
H 	H 	0.61720 0.85820 0.02330 0.13000
H 	H 	0.61030 0.86690 0.98410 0.15100
N 	N 	0.61874 0.80537 0.07352 -0.26100
N 	N 	0.60714 0.78159 0.04611 -0.25200
N 	N 	0.66722 0.78422 0.04531 -0.24500
H 	H 	0.68960 0.78060 0.03910 0.12000
N 	N 	0.63890 0.74460 0.00200 -0.33700
H 	H 	0.61910 0.73550 0.99320 0.11300
H 	H 	0.65970 0.73810 0.99320 0.14200
C 	C 	0.68903 0.93668 0.98606 0.15500
C 	C 	0.64992 0.89606 0.00478 0.20600
C 	C 	0.65491 0.80629 0.07274 0.12800
C 	C 	0.63734 0.76927 0.03000 0.19100
Cu	Cu	0.83118 0.60879 0.08599 0.80200
Cu	Cu	0.76875 0.54652 0.05481 0.78300
S 	S 	0.78856 0.53214 0.95747 -0.54500
S 	S 	0.81609 0.66835 0.10106 -0.48100
N 	N 	0.80483 0.56936 0.02098 -0.27300
N 	N 	0.83008 0.59606 0.03304 -0.24500
N 	N 	0.83948 0.58447 0.97498 -0.24700
H 	H 	0.84890 0.58530 0.95350 0.12700
N 	N 	0.87763 0.62949 0.00396 -0.33400
H 	H 	0.88280 0.64180 0.02330 0.13000
H 	H 	0.88970 0.63310 0.98410 0.15100
N 	N 	0.88126 0.69463 0.07352 -0.26100
N 	N 	0.89286 0.71841 0.04611 -0.25200
N 	N 	0.83278 0.71578 0.04531 -0.24500
H 	H 	0.81040 0.71940 0.03910 0.12000
N 	N 	0.86110 0.75540 0.00200 -0.33700
H 	H 	0.88090 0.76450 0.99320 0.11300
H 	H 	0.84030 0.76190 0.99320 0.14100
C 	C 	0.81097 0.56332 0.98606 0.15500
C 	C 	0.85008 0.60394 0.00478 0.20600
C 	C 	0.84509 0.69371 0.07274 0.12800
C 	C 	0.86266 0.73073 0.03000 0.19100
Cu	Cu	0.83118 0.10879 0.58599 0.80100
Cu	Cu	0.76875 0.04652 0.55481 0.78200
S 	S 	0.78856 0.03214 0.45747 -0.55100
S 	S 	0.81609 0.16835 0.60106 -0.48000
N 	N 	0.80483 0.06936 0.52098 -0.26900
N 	N 	0.83008 0.09606 0.53304 -0.24600
N 	N 	0.83948 0.08447 0.47498 -0.25000
H 	H 	0.84890 0.08530 0.45350 0.12700
N 	N 	0.87763 0.12949 0.50396 -0.32800
H 	H 	0.88280 0.14180 0.52330 0.12900
H 	H 	0.88970 0.13310 0.48410 0.14400
N 	N 	0.88126 0.19463 0.57352 -0.26100
N 	N 	0.89286 0.21841 0.54611 -0.25100
N 	N 	0.83278 0.21578 0.54531 -0.24400
H 	H 	0.81040 0.21940 0.53910 0.12200
N 	N 	0.86110 0.25540 0.50200 -0.32200
H 	H 	0.88090 0.26450 0.49320 0.10400
H 	H 	0.84030 0.26190 0.49320 0.13200
C 	C 	0.81097 0.06332 0.48606 0.14800
C 	C 	0.85008 0.10394 0.50478 0.21100
C 	C 	0.84509 0.19371 0.57274 0.12900
C 	C 	0.86266 0.23073 0.53000 0.19000
Cu	Cu	0.33118 0.60879 0.58599 0.80200
Cu	Cu	0.26875 0.54652 0.55481 0.78300
S 	S 	0.28856 0.53214 0.45747 -0.54700
S 	S 	0.31609 0.66835 0.60106 -0.48000
N 	N 	0.30483 0.56936 0.52098 -0.26900
N 	N 	0.33008 0.59606 0.53304 -0.24600
N 	N 	0.33948 0.58447 0.47498 -0.25000
H 	H 	0.34890 0.58530 0.45350 0.12700
N 	N 	0.37763 0.62949 0.50396 -0.32800
H 	H 	0.38280 0.64180 0.52330 0.12900
H 	H 	0.38970 0.63310 0.48410 0.14400
N 	N 	0.38126 0.69463 0.57352 -0.26100
N 	N 	0.39286 0.71841 0.54611 -0.25100
N 	N 	0.33278 0.71578 0.54531 -0.24400
H 	H 	0.31040 0.71940 0.53910 0.12200
N 	N 	0.36110 0.75540 0.50200 -0.32200
H 	H 	0.38090 0.76450 0.49320 0.10400
H 	H 	0.34030 0.76190 0.49320 0.13200
C 	C 	0.31097 0.56332 0.48606 0.14800
C 	C 	0.35008 0.60394 0.50478 0.21100
C 	C 	0.34509 0.69371 0.57274 0.12900
C 	C 	0.36266 0.73073 0.53000 0.19000
Cu	Cu	0.33118 0.10879 0.08599 0.80100
Cu	Cu	0.26875 0.04652 0.05481 0.78200
S 	S 	0.28856 0.03214 0.95747 -0.54900
S 	S 	0.31609 0.16835 0.10106 -0.48100
N 	N 	0.30483 0.06936 0.02098 -0.27300
N 	N 	0.33008 0.09606 0.03304 -0.24600
N 	N 	0.33948 0.08447 0.97498 -0.24700
H 	H 	0.34890 0.08530 0.95350 0.12700
N 	N 	0.37763 0.12949 0.00396 -0.33400
H 	H 	0.38280 0.14180 0.02330 0.13000
H 	H 	0.38970 0.13310 0.98410 0.15000
N 	N 	0.38126 0.19463 0.07352 -0.26100
N 	N 	0.39286 0.21841 0.04611 -0.25200
N 	N 	0.33278 0.21578 0.04531 -0.24500
H 	H 	0.31040 0.21940 0.03910 0.12000
N 	N 	0.36110 0.25540 0.00200 -0.33700
H 	H 	0.38090 0.26450 0.99320 0.11400
H 	H 	0.34030 0.26190 0.99320 0.14200
C 	C 	0.31097 0.06332 0.98606 0.15500
C 	C 	0.35008 0.10394 0.00478 0.20500
C 	C 	0.34509 0.19371 0.07274 0.12800
C 	C 	0.36266 0.23073 0.03000 0.19100
Cu	Cu	0.16882 0.60879 0.91401 0.80200
Cu	Cu	0.23125 0.54652 0.94519 0.78400
S 	S 	0.21144 0.53214 0.04253 -0.54900
S 	S 	0.18391 0.66835 0.89894 -0.48000
N 	N 	0.19517 0.56936 0.97902 -0.26500
N 	N 	0.16992 0.59606 0.96696 -0.24700
N 	N 	0.16052 0.58447 0.02502 -0.25200
H 	H 	0.15110 0.58530 0.04650 0.12600
N 	N 	0.12237 0.62949 0.99604 -0.32100
H 	H 	0.11720 0.64180 0.97670 0.12900
H 	H 	0.11030 0.63310 0.01590 0.13700
N 	N 	0.11874 0.69463 0.92648 -0.26100
N 	N 	0.10714 0.71841 0.95389 -0.25000
N 	N 	0.16722 0.71578 0.95469 -0.24400
H 	H 	0.18960 0.71940 0.96090 0.12300
N 	N 	0.13890 0.75540 0.99800 -0.30800
H 	H 	0.11910 0.76450 0.00680 0.09600
H 	H 	0.15970 0.76190 0.00680 0.12300
C 	C 	0.18903 0.56332 0.01394 0.14100
C 	C 	0.14992 0.60394 0.99522 0.21700
C 	C 	0.15491 0.69371 0.92726 0.12900
C 	C 	0.13734 0.73073 0.97000 0.19000
Cu	Cu	0.16882 0.10879 0.41401 0.80100
Cu	Cu	0.23125 0.04652 0.44519 0.78200
S 	S 	0.21144 0.03214 0.54253 -0.55100
S 	S 	0.18391 0.16835 0.39894 -0.48000
N 	N 	0.19517 0.06936 0.47902 -0.26900
N 	N 	0.16992 0.09606 0.46696 -0.24600
N 	N 	0.16052 0.08447 0.52502 -0.25000
H 	H 	0.15110 0.08530 0.54650 0.12600
N 	N 	0.12237 0.12949 0.49604 -0.32700
H 	H 	0.11720 0.14180 0.47670 0.12900
H 	H 	0.11030 0.13310 0.51590 0.14300
N 	N 	0.11874 0.19463 0.42648 -0.26100
N 	N 	0.10714 0.21841 0.45389 -0.25100
N 	N 	0.16722 0.21578 0.45469 -0.24400
H 	H 	0.18960 0.21940 0.46090 0.12200
N 	N 	0.13890 0.25540 0.49800 -0.32200
H 	H 	0.11910 0.26450 0.50680 0.10500
H 	H 	0.15970 0.26190 0.50680 0.13200
C 	C 	0.18903 0.06332 0.51394 0.14800
C 	C 	0.14992 0.10394 0.49522 0.21100
C 	C 	0.15491 0.19371 0.42726 0.12900
C 	C 	0.13734 0.23073 0.47000 0.19000
Cu	Cu	0.66882 0.60879 0.41401 0.80200
Cu	Cu	0.73125 0.54652 0.44519 0.78300
S 	S 	0.71144 0.53214 0.54253 -0.54700
S 	S 	0.68391 0.66835 0.39894 -0.48000
N 	N 	0.69517 0.56936 0.47902 -0.26900
N 	N 	0.66992 0.59606 0.46696 -0.24600
N 	N 	0.66052 0.58447 0.52502 -0.25000
H 	H 	0.65110 0.58530 0.54650 0.12700
N 	N 	0.62237 0.62949 0.49604 -0.32700
H 	H 	0.61720 0.64180 0.47670 0.12900
H 	H 	0.61030 0.63310 0.51590 0.14400
N 	N 	0.61874 0.69463 0.42648 -0.26100
N 	N 	0.60714 0.71841 0.45389 -0.25100
N 	N 	0.66722 0.71578 0.45469 -0.24400
H 	H 	0.68960 0.71940 0.46090 0.12200
N 	N 	0.63890 0.75540 0.49800 -0.32200
H 	H 	0.61910 0.76450 0.50680 0.10400
H 	H 	0.65970 0.76190 0.50680 0.13200
C 	C 	0.68903 0.56332 0.51394 0.14800
C 	C 	0.64992 0.60394 0.49522 0.21100
C 	C 	0.65491 0.69371 0.42726 0.12900
C 	C 	0.63734 0.73073 0.47000 0.19000
Cu	Cu	0.66882 0.10879 0.91401 0.80200
Cu	Cu	0.73125 0.04652 0.94519 0.78300
S 	S 	0.71144 0.03214 0.04253 -0.55200
S 	S 	0.68391 0.16835 0.89894 -0.48000
N 	N 	0.69517 0.06936 0.97902 -0.26500
N 	N 	0.66992 0.09606 0.96696 -0.24700
N 	N 	0.66052 0.08447 0.02502 -0.25300
H 	H 	0.65110 0.08530 0.04650 0.12600
N 	N 	0.62237 0.12949 0.99604 -0.32100
H 	H 	0.61720 0.14180 0.97670 0.12900
H 	H 	0.61030 0.13310 0.01590 0.13700
N 	N 	0.61874 0.19463 0.92648 -0.26100
N 	N 	0.60714 0.21841 0.95389 -0.24900
N 	N 	0.66722 0.21578 0.95469 -0.24400
H 	H 	0.68960 0.21940 0.96090 0.12300
N 	N 	0.63890 0.25540 0.99800 -0.30800
H 	H 	0.61910 0.26450 0.00680 0.09600
H 	H 	0.65970 0.26190 0.00680 0.12300
C 	C 	0.68903 0.06332 0.01394 0.14100
C 	C 	0.64992 0.10394 0.99522 0.21700
C 	C 	0.65491 0.19371 0.92726 0.12900
C 	C 	0.63734 0.23073 0.97000 0.19000
Cu	Cu	0.83118 0.39121 0.91401 0.80200
Cu	Cu	0.76875 0.45348 0.94519 0.78400
S 	S 	0.78856 0.46786 0.04253 -0.54800
S 	S 	0.81609 0.33165 0.89894 -0.48000
N 	N 	0.80483 0.43064 0.97902 -0.26500
N 	N 	0.83008 0.40394 0.96696 -0.24700
N 	N 	0.83948 0.41553 0.02502 -0.25200
H 	H 	0.84890 0.41470 0.04650 0.12700
N 	N 	0.87763 0.37051 0.99604 -0.32200
H 	H 	0.88280 0.35820 0.97670 0.12900
H 	H 	0.88970 0.36690 0.01590 0.13800
N 	N 	0.88126 0.30537 0.92648 -0.26100
N 	N 	0.89286 0.28159 0.95389 -0.24900
N 	N 	0.83278 0.28422 0.95469 -0.24400
H 	H 	0.81040 0.28060 0.96090 0.12300
N 	N 	0.86110 0.24460 0.99800 -0.30800
H 	H 	0.88090 0.23550 0.00680 0.09600
H 	H 	0.84030 0.23810 0.00680 0.12300
C 	C 	0.81097 0.43668 0.01394 0.14100
C 	C 	0.85008 0.39606 0.99522 0.21700
C 	C 	0.84509 0.30629 0.92726 0.12900
C 	C 	0.86266 0.26927 0.97000 0.19000
Cu	Cu	0.83118 0.89121 0.41401 0.80200
Cu	Cu	0.76875 0.95348 0.44519 0.78500
S 	S 	0.78856 0.96786 0.54253 -0.54200
S 	S 	0.81609 0.83165 0.39894 -0.48000
N 	N 	0.80483 0.93064 0.47902 -0.26800
N 	N 	0.83008 0.90394 0.46696 -0.24600
N 	N 	0.83948 0.91553 0.52502 -0.25000
H 	H 	0.84890 0.91470 0.54650 0.12800
N 	N 	0.87763 0.87051 0.49604 -0.32800
H 	H 	0.88280 0.85820 0.47670 0.13000
H 	H 	0.88970 0.86690 0.51590 0.14500
N 	N 	0.88126 0.80537 0.42648 -0.26100
N 	N 	0.89286 0.78159 0.45389 -0.25100
N 	N 	0.83278 0.78422 0.45469 -0.24400
H 	H 	0.81040 0.78060 0.46090 0.12200
N 	N 	0.86110 0.74460 0.49800 -0.32200
H 	H 	0.88090 0.73550 0.50680 0.10400
H 	H 	0.84030 0.73810 0.50680 0.13200
C 	C 	0.81097 0.93668 0.51394 0.14800
C 	C 	0.85008 0.89606 0.49522 0.21200
C 	C 	0.84509 0.80629 0.42726 0.12900
C 	C 	0.86266 0.76927 0.47000 0.19000
Cu	Cu	0.33118 0.39121 0.41401 0.80200
Cu	Cu	0.26875 0.45348 0.44519 0.78300
S 	S 	0.28856 0.46786 0.54253 -0.54700
S 	S 	0.31609 0.33165 0.39894 -0.48000
N 	N 	0.30483 0.43064 0.47902 -0.26900
N 	N 	0.33008 0.40394 0.46696 -0.24600
N 	N 	0.33948 0.41553 0.52502 -0.25000
H 	H 	0.34890 0.41470 0.54650 0.12700
N 	N 	0.37763 0.37051 0.49604 -0.32800
H 	H 	0.38280 0.35820 0.47670 0.12900
H 	H 	0.38970 0.36690 0.51590 0.14400
N 	N 	0.38126 0.30537 0.42648 -0.26100
N 	N 	0.39286 0.28159 0.45389 -0.25100
N 	N 	0.33278 0.28422 0.45469 -0.24400
H 	H 	0.31040 0.28060 0.46090 0.12200
N 	N 	0.36110 0.24460 0.49800 -0.32200
H 	H 	0.38090 0.23550 0.50680 0.10500
H 	H 	0.34030 0.23810 0.50680 0.13200
C 	C 	0.31097 0.43668 0.51394 0.14800
C 	C 	0.35008 0.39606 0.49522 0.21200
C 	C 	0.34509 0.30629 0.42726 0.12900
C 	C 	0.36266 0.26927 0.47000 0.19000
Cu	Cu	0.33118 0.89121 0.91401 0.80200
Cu	Cu	0.26875 0.95348 0.94519 0.78500
S 	S 	0.28856 0.96786 0.04253 -0.54300
S 	S 	0.31609 0.83165 0.89894 -0.48000
N 	N 	0.30483 0.93064 0.97902 -0.26400
N 	N 	0.33008 0.90394 0.96696 -0.24600
N 	N 	0.33948 0.91553 0.02502 -0.25200
H 	H 	0.34890 0.91470 0.04650 0.12700
N 	N 	0.37763 0.87051 0.99604 -0.32100
H 	H 	0.38280 0.85820 0.97670 0.12900
H 	H 	0.38970 0.86690 0.01590 0.13700
N 	N 	0.38126 0.80537 0.92648 -0.26100
N 	N 	0.39286 0.78159 0.95389 -0.24900
N 	N 	0.33278 0.78422 0.95469 -0.24400
H 	H 	0.31040 0.78060 0.96090 0.12300
N 	N 	0.36110 0.74460 0.99800 -0.30800
H 	H 	0.38090 0.73550 0.00680 0.09600
H 	H 	0.34030 0.73810 0.00680 0.12300
C 	C 	0.31097 0.93668 0.01394 0.14100
C 	C 	0.35008 0.89606 0.99522 0.21800
C 	C 	0.34509 0.80629 0.92726 0.12900
C 	C 	0.36266 0.76927 0.97000 0.19000
Cu	Cu	0.39121 0.08599 0.16882 0.80200
Cu	Cu	0.45348 0.05481 0.23125 0.78300
S 	S 	0.46786 0.95747 0.21144 -0.54500
S 	S 	0.33165 0.10106 0.18391 -0.48100
N 	N 	0.43064 0.02098 0.19517 -0.27300
N 	N 	0.40394 0.03304 0.16992 -0.24500
N 	N 	0.41553 0.97498 0.16052 -0.24700
H 	H 	0.41470 0.95350 0.15110 0.12700
N 	N 	0.37051 0.00396 0.12237 -0.33400
H 	H 	0.35820 0.02330 0.11720 0.12900
H 	H 	0.36690 0.98410 0.11030 0.15000
N 	N 	0.30537 0.07352 0.11874 -0.26100
N 	N 	0.28159 0.04611 0.10714 -0.25200
N 	N 	0.28422 0.04531 0.16722 -0.24500
H 	H 	0.28060 0.03910 0.18960 0.12000
N 	N 	0.24460 0.00200 0.13890 -0.33700
H 	H 	0.23550 0.99320 0.11910 0.11400
H 	H 	0.23810 0.99320 0.15970 0.14200
C 	C 	0.43668 0.98606 0.18903 0.15500
C 	C 	0.39606 0.00478 0.14992 0.20500
C 	C 	0.30629 0.07274 0.15491 0.12800
C 	C 	0.26927 0.03000 0.13734 0.19100
Cu	Cu	0.39121 0.58599 0.66882 0.80200
Cu	Cu	0.45348 0.55481 0.73125 0.78300
S 	S 	0.46786 0.45747 0.71144 -0.54700
S 	S 	0.33165 0.60106 0.68391 -0.48000
N 	N 	0.43064 0.52098 0.69517 -0.26900
N 	N 	0.40394 0.53304 0.66992 -0.24600
N 	N 	0.41553 0.47498 0.66052 -0.25000
H 	H 	0.41470 0.45350 0.65110 0.12700
N 	N 	0.37051 0.50396 0.62237 -0.32800
H 	H 	0.35820 0.52330 0.61720 0.12900
H 	H 	0.36690 0.48410 0.61030 0.14400
N 	N 	0.30537 0.57352 0.61874 -0.26100
N 	N 	0.28159 0.54611 0.60714 -0.25100
N 	N 	0.28422 0.54531 0.66722 -0.24400
H 	H 	0.28060 0.53910 0.68960 0.12200
N 	N 	0.24460 0.50200 0.63890 -0.32200
H 	H 	0.23550 0.49320 0.61910 0.10500
H 	H 	0.23810 0.49320 0.65970 0.13200
C 	C 	0.43668 0.48606 0.68903 0.14800
C 	C 	0.39606 0.50478 0.64992 0.21100
C 	C 	0.30629 0.57274 0.65491 0.12900
C 	C 	0.26927 0.53000 0.63734 0.19000
Cu	Cu	0.89121 0.08599 0.66882 0.80200
Cu	Cu	0.95348 0.05481 0.73125 0.78400
S 	S 	0.96786 0.95747 0.71144 -0.54000
S 	S 	0.83165 0.10106 0.68391 -0.48100
N 	N 	0.93064 0.02098 0.69517 -0.27200
N 	N 	0.90394 0.03304 0.66992 -0.24500
N 	N 	0.91553 0.97498 0.66052 -0.24700
H 	H 	0.91470 0.95350 0.65110 0.12700
N 	N 	0.87051 0.00396 0.62237 -0.33400
H 	H 	0.85820 0.02330 0.61720 0.13000
H 	H 	0.86690 0.98410 0.61030 0.15100
N 	N 	0.80537 0.07352 0.61874 -0.26100
N 	N 	0.78159 0.04611 0.60714 -0.25200
N 	N 	0.78422 0.04531 0.66722 -0.24500
H 	H 	0.78060 0.03910 0.68960 0.12000
N 	N 	0.74460 0.00200 0.63890 -0.33700
H 	H 	0.73550 0.99320 0.61910 0.11300
H 	H 	0.73810 0.99320 0.65970 0.14200
C 	C 	0.93668 0.98606 0.68903 0.15500
C 	C 	0.89606 0.00478 0.64992 0.20600
C 	C 	0.80629 0.07274 0.65491 0.12800
C 	C 	0.76927 0.03000 0.63734 0.19100
Cu	Cu	0.89121 0.58599 0.16882 0.80200
Cu	Cu	0.95348 0.55481 0.23125 0.78500
S 	S 	0.96786 0.45747 0.21144 -0.54200
S 	S 	0.83165 0.60106 0.18391 -0.48000
N 	N 	0.93064 0.52098 0.19517 -0.26800
N 	N 	0.90394 0.53304 0.16992 -0.24600
N 	N 	0.91553 0.47498 0.16052 -0.24900
H 	H 	0.91470 0.45350 0.15110 0.12700
N 	N 	0.87051 0.50396 0.12237 -0.32700
H 	H 	0.85820 0.52330 0.11720 0.12900
H 	H 	0.86690 0.48410 0.11030 0.14400
N 	N 	0.80537 0.57352 0.11874 -0.26100
N 	N 	0.78159 0.54611 0.10714 -0.25100
N 	N 	0.78422 0.54531 0.16722 -0.24400
H 	H 	0.78060 0.53910 0.18960 0.12200
N 	N 	0.74460 0.50200 0.13890 -0.32200
H 	H 	0.73550 0.49320 0.11910 0.10500
H 	H 	0.73810 0.49320 0.15970 0.13200
C 	C 	0.93668 0.48606 0.18903 0.14800
C 	C 	0.89606 0.50478 0.14992 0.21200
C 	C 	0.80629 0.57274 0.15491 0.12900
C 	C 	0.76927 0.53000 0.13734 0.19000
Cu	Cu	0.60879 0.08599 0.83118 0.80200
Cu	Cu	0.54652 0.05481 0.76875 0.78300
S 	S 	0.53214 0.95747 0.78856 -0.54500
S 	S 	0.66835 0.10106 0.81609 -0.48100
N 	N 	0.56936 0.02098 0.80483 -0.27300
N 	N 	0.59606 0.03304 0.83008 -0.24500
N 	N 	0.58447 0.97498 0.83948 -0.24700
H 	H 	0.58530 0.95350 0.84890 0.12700
N 	N 	0.62949 0.00396 0.87763 -0.33400
H 	H 	0.64180 0.02330 0.88280 0.13000
H 	H 	0.63310 0.98410 0.88970 0.15100
N 	N 	0.69463 0.07352 0.88126 -0.26100
N 	N 	0.71841 0.04611 0.89286 -0.25200
N 	N 	0.71578 0.04531 0.83278 -0.24500
H 	H 	0.71940 0.03910 0.81040 0.12000
N 	N 	0.75540 0.00200 0.86110 -0.33700
H 	H 	0.76450 0.99320 0.88090 0.11300
H 	H 	0.76190 0.99320 0.84030 0.14100
C 	C 	0.56332 0.98606 0.81097 0.15500
C 	C 	0.60394 0.00478 0.85008 0.20600
C 	C 	0.69371 0.07274 0.84509 0.12800
C 	C 	0.73073 0.03000 0.86266 0.19100
Cu	Cu	0.60879 0.58599 0.33118 0.80200
Cu	Cu	0.54652 0.55481 0.26875 0.78300
S 	S 	0.53214 0.45747 0.28856 -0.54700
S 	S 	0.66835 0.60106 0.31609 -0.48000
N 	N 	0.56936 0.52098 0.30483 -0.26900
N 	N 	0.59606 0.53304 0.33008 -0.24600
N 	N 	0.58447 0.47498 0.33948 -0.25000
H 	H 	0.58530 0.45350 0.34890 0.12700
N 	N 	0.62949 0.50396 0.37763 -0.32800
H 	H 	0.64180 0.52330 0.38280 0.12900
H 	H 	0.63310 0.48410 0.38970 0.14400
N 	N 	0.69463 0.57352 0.38126 -0.26100
N 	N 	0.71841 0.54611 0.39286 -0.25100
N 	N 	0.71578 0.54531 0.33278 -0.24400
H 	H 	0.71940 0.53910 0.31040 0.12200
N 	N 	0.75540 0.50200 0.36110 -0.32200
H 	H 	0.76450 0.49320 0.38090 0.10400
H 	H 	0.76190 0.49320 0.34030 0.13200
C 	C 	0.56332 0.48606 0.31097 0.14800
C 	C 	0.60394 0.50478 0.35008 0.21100
C 	C 	0.69371 0.57274 0.34509 0.12900
C 	C 	0.73073 0.53000 0.36266 0.19000
Cu	Cu	0.10879 0.08599 0.33118 0.80100
Cu	Cu	0.04652 0.05481 0.26875 0.78200
S 	S 	0.03214 0.95747 0.28856 -0.54900
S 	S 	0.16835 0.10106 0.31609 -0.48100
N 	N 	0.06936 0.02098 0.30483 -0.27300
N 	N 	0.09606 0.03304 0.33008 -0.24600
N 	N 	0.08447 0.97498 0.33948 -0.24700
H 	H 	0.08530 0.95350 0.34890 0.12700
N 	N 	0.12949 0.00396 0.37763 -0.33400
H 	H 	0.14180 0.02330 0.38280 0.13000
H 	H 	0.13310 0.98410 0.38970 0.15000
N 	N 	0.19463 0.07352 0.38126 -0.26100
N 	N 	0.21841 0.04611 0.39286 -0.25200
N 	N 	0.21578 0.04531 0.33278 -0.24500
H 	H 	0.21940 0.03910 0.31040 0.12000
N 	N 	0.25540 0.00200 0.36110 -0.33700
H 	H 	0.26450 0.99320 0.38090 0.11400
H 	H 	0.26190 0.99320 0.34030 0.14200
C 	C 	0.06332 0.98606 0.31097 0.15500
C 	C 	0.10394 0.00478 0.35008 0.20500
C 	C 	0.19371 0.07274 0.34509 0.12800
C 	C 	0.23073 0.03000 0.36266 0.19100
Cu	Cu	0.10879 0.58599 0.83118 0.80100
Cu	Cu	0.04652 0.55481 0.76875 0.78200
S 	S 	0.03214 0.45747 0.78856 -0.55100
S 	S 	0.16835 0.60106 0.81609 -0.48000
N 	N 	0.06936 0.52098 0.80483 -0.26900
N 	N 	0.09606 0.53304 0.83008 -0.24600
N 	N 	0.08447 0.47498 0.83948 -0.25000
H 	H 	0.08530 0.45350 0.84890 0.12700
N 	N 	0.12949 0.50396 0.87763 -0.32800
H 	H 	0.14180 0.52330 0.88280 0.12900
H 	H 	0.13310 0.48410 0.88970 0.14400
N 	N 	0.19463 0.57352 0.88126 -0.26100
N 	N 	0.21841 0.54611 0.89286 -0.25100
N 	N 	0.21578 0.54531 0.83278 -0.24400
H 	H 	0.21940 0.53910 0.81040 0.12200
N 	N 	0.25540 0.50200 0.86110 -0.32200
H 	H 	0.26450 0.49320 0.88090 0.10400
H 	H 	0.26190 0.49320 0.84030 0.13200
C 	C 	0.06332 0.48606 0.81097 0.14800
C 	C 	0.10394 0.50478 0.85008 0.21100
C 	C 	0.19371 0.57274 0.84509 0.12900
C 	C 	0.23073 0.53000 0.86266 0.19000
Cu	Cu	0.60879 0.91401 0.16882 0.80200
Cu	Cu	0.54652 0.94519 0.23125 0.78400
S 	S 	0.53214 0.04253 0.21144 -0.54900
S 	S 	0.66835 0.89894 0.18391 -0.48000
N 	N 	0.56936 0.97902 0.19517 -0.26500
N 	N 	0.59606 0.96696 0.16992 -0.24700
N 	N 	0.58447 0.02502 0.16052 -0.25200
H 	H 	0.58530 0.04650 0.15110 0.12600
N 	N 	0.62949 0.99604 0.12237 -0.32100
H 	H 	0.64180 0.97670 0.11720 0.12900
H 	H 	0.63310 0.01590 0.11030 0.13700
N 	N 	0.69463 0.92648 0.11874 -0.26100
N 	N 	0.71841 0.95389 0.10714 -0.25000
N 	N 	0.71578 0.95469 0.16722 -0.24400
H 	H 	0.71940 0.96090 0.18960 0.12300
N 	N 	0.75540 0.99800 0.13890 -0.30800
H 	H 	0.76450 0.00680 0.11910 0.09600
H 	H 	0.76190 0.00680 0.15970 0.12300
C 	C 	0.56332 0.01394 0.18903 0.14100
C 	C 	0.60394 0.99522 0.14992 0.21700
C 	C 	0.69371 0.92726 0.15491 0.12900
C 	C 	0.73073 0.97000 0.13734 0.19000
Cu	Cu	0.60879 0.41401 0.66882 0.80200
Cu	Cu	0.54652 0.44519 0.73125 0.78300
S 	S 	0.53214 0.54253 0.71144 -0.54700
S 	S 	0.66835 0.39894 0.68391 -0.48000
N 	N 	0.56936 0.47902 0.69517 -0.26900
N 	N 	0.59606 0.46696 0.66992 -0.24600
N 	N 	0.58447 0.52502 0.66052 -0.25000
H 	H 	0.58530 0.54650 0.65110 0.12700
N 	N 	0.62949 0.49604 0.62237 -0.32700
H 	H 	0.64180 0.47670 0.61720 0.12900
H 	H 	0.63310 0.51590 0.61030 0.14400
N 	N 	0.69463 0.42648 0.61874 -0.26100
N 	N 	0.71841 0.45389 0.60714 -0.25100
N 	N 	0.71578 0.45469 0.66722 -0.24400
H 	H 	0.71940 0.46090 0.68960 0.12200
N 	N 	0.75540 0.49800 0.63890 -0.32200
H 	H 	0.76450 0.50680 0.61910 0.10400
H 	H 	0.76190 0.50680 0.65970 0.13200
C 	C 	0.56332 0.51394 0.68903 0.14800
C 	C 	0.60394 0.49522 0.64992 0.21100
C 	C 	0.69371 0.42726 0.65491 0.12900
C 	C 	0.73073 0.47000 0.63734 0.19000
Cu	Cu	0.10879 0.91401 0.66882 0.80200
Cu	Cu	0.04652 0.94519 0.73125 0.78300
S 	S 	0.03214 0.04253 0.71144 -0.55200
S 	S 	0.16835 0.89894 0.68391 -0.48000
N 	N 	0.06936 0.97902 0.69517 -0.26500
N 	N 	0.09606 0.96696 0.66992 -0.24700
N 	N 	0.08447 0.02502 0.66052 -0.25300
H 	H 	0.08530 0.04650 0.65110 0.12600
N 	N 	0.12949 0.99604 0.62237 -0.32100
H 	H 	0.14180 0.97670 0.61720 0.12900
H 	H 	0.13310 0.01590 0.61030 0.13700
N 	N 	0.19463 0.92648 0.61874 -0.26100
N 	N 	0.21841 0.95389 0.60714 -0.24900
N 	N 	0.21578 0.95469 0.66722 -0.24400
H 	H 	0.21940 0.96090 0.68960 0.12300
N 	N 	0.25540 0.99800 0.63890 -0.30800
H 	H 	0.26450 0.00680 0.61910 0.09600
H 	H 	0.26190 0.00680 0.65970 0.12300
C 	C 	0.06332 0.01394 0.68903 0.14100
C 	C 	0.10394 0.99522 0.64992 0.21700
C 	C 	0.19371 0.92726 0.65491 0.12900
C 	C 	0.23073 0.97000 0.63734 0.19000
Cu	Cu	0.10879 0.41401 0.16882 0.80100
Cu	Cu	0.04652 0.44519 0.23125 0.78200
S 	S 	0.03214 0.54253 0.21144 -0.55100
S 	S 	0.16835 0.39894 0.18391 -0.48000
N 	N 	0.06936 0.47902 0.19517 -0.26900
N 	N 	0.09606 0.46696 0.16992 -0.24600
N 	N 	0.08447 0.52502 0.16052 -0.25000
H 	H 	0.08530 0.54650 0.15110 0.12600
N 	N 	0.12949 0.49604 0.12237 -0.32700
H 	H 	0.14180 0.47670 0.11720 0.12900
H 	H 	0.13310 0.51590 0.11030 0.14300
N 	N 	0.19463 0.42648 0.11874 -0.26100
N 	N 	0.21841 0.45389 0.10714 -0.25100
N 	N 	0.21578 0.45469 0.16722 -0.24400
H 	H 	0.21940 0.46090 0.18960 0.12200
N 	N 	0.25540 0.49800 0.13890 -0.32200
H 	H 	0.26450 0.50680 0.11910 0.10500
H 	H 	0.26190 0.50680 0.15970 0.13200
C 	C 	0.06332 0.51394 0.18903 0.14800
C 	C 	0.10394 0.49522 0.14992 0.21100
C 	C 	0.19371 0.42726 0.15491 0.12900
C 	C 	0.23073 0.47000 0.13734 0.19000
Cu	Cu	0.39121 0.91401 0.83118 0.80200
Cu	Cu	0.45348 0.94519 0.76875 0.78400
S 	S 	0.46786 0.04253 0.78856 -0.54800
S 	S 	0.33165 0.89894 0.81609 -0.48000
N 	N 	0.43064 0.97902 0.80483 -0.26500
N 	N 	0.40394 0.96696 0.83008 -0.24700
N 	N 	0.41553 0.02502 0.83948 -0.25200
H 	H 	0.41470 0.04650 0.84890 0.12700
N 	N 	0.37051 0.99604 0.87763 -0.32200
H 	H 	0.35820 0.97670 0.88280 0.12900
H 	H 	0.36690 0.01590 0.88970 0.13800
N 	N 	0.30537 0.92648 0.88126 -0.26100
N 	N 	0.28159 0.95389 0.89286 -0.24900
N 	N 	0.28422 0.95469 0.83278 -0.24400
H 	H 	0.28060 0.96090 0.81040 0.12300
N 	N 	0.24460 0.99800 0.86110 -0.30800
H 	H 	0.23550 0.00680 0.88090 0.09600
H 	H 	0.23810 0.00680 0.84030 0.12300
C 	C 	0.43668 0.01394 0.81097 0.14100
C 	C 	0.39606 0.99522 0.85008 0.21700
C 	C 	0.30629 0.92726 0.84509 0.12900
C 	C 	0.26927 0.97000 0.86266 0.19000
Cu	Cu	0.39121 0.41401 0.33118 0.80200
Cu	Cu	0.45348 0.44519 0.26875 0.78300
S 	S 	0.46786 0.54253 0.28856 -0.54700
S 	S 	0.33165 0.39894 0.31609 -0.48000
N 	N 	0.43064 0.47902 0.30483 -0.26900
N 	N 	0.40394 0.46696 0.33008 -0.24600
N 	N 	0.41553 0.52502 0.33948 -0.25000
H 	H 	0.41470 0.54650 0.34890 0.12700
N 	N 	0.37051 0.49604 0.37763 -0.32800
H 	H 	0.35820 0.47670 0.38280 0.12900
H 	H 	0.36690 0.51590 0.38970 0.14400
N 	N 	0.30537 0.42648 0.38126 -0.26100
N 	N 	0.28159 0.45389 0.39286 -0.25100
N 	N 	0.28422 0.45469 0.33278 -0.24400
H 	H 	0.28060 0.46090 0.31040 0.12200
N 	N 	0.24460 0.49800 0.36110 -0.32200
H 	H 	0.23550 0.50680 0.38090 0.10500
H 	H 	0.23810 0.50680 0.34030 0.13200
C 	C 	0.43668 0.51394 0.31097 0.14800
C 	C 	0.39606 0.49522 0.35008 0.21200
C 	C 	0.30629 0.42726 0.34509 0.12900
C 	C 	0.26927 0.47000 0.36266 0.19000
Cu	Cu	0.89121 0.91401 0.33118 0.80200
Cu	Cu	0.95348 0.94519 0.26875 0.78500
S 	S 	0.96786 0.04253 0.28856 -0.54300
S 	S 	0.83165 0.89894 0.31609 -0.48000
N 	N 	0.93064 0.97902 0.30483 -0.26400
N 	N 	0.90394 0.96696 0.33008 -0.24600
N 	N 	0.91553 0.02502 0.33948 -0.25200
H 	H 	0.91470 0.04650 0.34890 0.12700
N 	N 	0.87051 0.99604 0.37763 -0.32100
H 	H 	0.85820 0.97670 0.38280 0.12900
H 	H 	0.86690 0.01590 0.38970 0.13700
N 	N 	0.80537 0.92648 0.38126 -0.26100
N 	N 	0.78159 0.95389 0.39286 -0.24900
N 	N 	0.78422 0.95469 0.33278 -0.24400
H 	H 	0.78060 0.96090 0.31040 0.12300
N 	N 	0.74460 0.99800 0.36110 -0.30800
H 	H 	0.73550 0.00680 0.38090 0.09600
H 	H 	0.73810 0.00680 0.34030 0.12300
C 	C 	0.93668 0.01394 0.31097 0.14100
C 	C 	0.89606 0.99522 0.35008 0.21800
C 	C 	0.80629 0.92726 0.34509 0.12900
C 	C 	0.76927 0.97000 0.36266 0.19000
Cu	Cu	0.89121 0.41401 0.83118 0.80200
Cu	Cu	0.95348 0.44519 0.76875 0.78500
S 	S 	0.96786 0.54253 0.78856 -0.54200
S 	S 	0.83165 0.39894 0.81609 -0.48000
N 	N 	0.93064 0.47902 0.80483 -0.26800
N 	N 	0.90394 0.46696 0.83008 -0.24600
N 	N 	0.91553 0.52502 0.83948 -0.25000
H 	H 	0.91470 0.54650 0.84890 0.12800
N 	N 	0.87051 0.49604 0.87763 -0.32800
H 	H 	0.85820 0.47670 0.88280 0.13000
H 	H 	0.86690 0.51590 0.88970 0.14500
N 	N 	0.80537 0.42648 0.88126 -0.26100
N 	N 	0.78159 0.45389 0.89286 -0.25100
N 	N 	0.78422 0.45469 0.83278 -0.24400
H 	H 	0.78060 0.46090 0.81040 0.12200
N 	N 	0.74460 0.49800 0.86110 -0.32200
H 	H 	0.73550 0.50680 0.88090 0.10400
H 	H 	0.73810 0.50680 0.84030 0.13200
C 	C 	0.93668 0.51394 0.81097 0.14800
C 	C 	0.89606 0.49522 0.85008 0.21200
C 	C 	0.80629 0.42726 0.84509 0.12900
C 	C 	0.76927 0.47000 0.86266 0.19000
Cu	Cu	0.08599 0.16882 0.39121 0.80200
Cu	Cu	0.05481 0.23125 0.45348 0.78300
S 	S 	0.95747 0.21144 0.46786 -0.54500
S 	S 	0.10106 0.18391 0.33165 -0.48100
N 	N 	0.02098 0.19517 0.43064 -0.27300
N 	N 	0.03304 0.16992 0.40394 -0.24500
N 	N 	0.97498 0.16052 0.41553 -0.24700
H 	H 	0.95350 0.15110 0.41470 0.12700
N 	N 	0.00396 0.12237 0.37051 -0.33400
H 	H 	0.02330 0.11720 0.35820 0.12900
H 	H 	0.98410 0.11030 0.36690 0.15000
N 	N 	0.07352 0.11874 0.30537 -0.26100
N 	N 	0.04611 0.10714 0.28159 -0.25200
N 	N 	0.04531 0.16722 0.28422 -0.24500
H 	H 	0.03910 0.18960 0.28060 0.12000
N 	N 	0.00200 0.13890 0.24460 -0.33700
H 	H 	0.99320 0.11910 0.23550 0.11400
H 	H 	0.99320 0.15970 0.23810 0.14200
C 	C 	0.98606 0.18903 0.43668 0.15500
C 	C 	0.00478 0.14992 0.39606 0.20500
C 	C 	0.07274 0.15491 0.30629 0.12800
C 	C 	0.03000 0.13734 0.26927 0.19100
Cu	Cu	0.08599 0.66882 0.89121 0.80200
Cu	Cu	0.05481 0.73125 0.95348 0.78400
S 	S 	0.95747 0.71144 0.96786 -0.54000
S 	S 	0.10106 0.68391 0.83165 -0.48100
N 	N 	0.02098 0.69517 0.93064 -0.27200
N 	N 	0.03304 0.66992 0.90394 -0.24500
N 	N 	0.97498 0.66052 0.91553 -0.24700
H 	H 	0.95350 0.65110 0.91470 0.12700
N 	N 	0.00396 0.62237 0.87051 -0.33400
H 	H 	0.02330 0.61720 0.85820 0.13000
H 	H 	0.98410 0.61030 0.86690 0.15100
N 	N 	0.07352 0.61874 0.80537 -0.26100
N 	N 	0.04611 0.60714 0.78159 -0.25200
N 	N 	0.04531 0.66722 0.78422 -0.24500
H 	H 	0.03910 0.68960 0.78060 0.12000
N 	N 	0.00200 0.63890 0.74460 -0.33700
H 	H 	0.99320 0.61910 0.73550 0.11300
H 	H 	0.99320 0.65970 0.73810 0.14200
C 	C 	0.98606 0.68903 0.93668 0.15500
C 	C 	0.00478 0.64992 0.89606 0.20600
C 	C 	0.07274 0.65491 0.80629 0.12800
C 	C 	0.03000 0.63734 0.76927 0.19100
Cu	Cu	0.58599 0.16882 0.89121 0.80200
Cu	Cu	0.55481 0.23125 0.95348 0.78500
S 	S 	0.45747 0.21144 0.96786 -0.54200
S 	S 	0.60106 0.18391 0.83165 -0.48000
N 	N 	0.52098 0.19517 0.93064 -0.26800
N 	N 	0.53304 0.16992 0.90394 -0.24600
N 	N 	0.47498 0.16052 0.91553 -0.24900
H 	H 	0.45350 0.15110 0.91470 0.12700
N 	N 	0.50396 0.12237 0.87051 -0.32700
H 	H 	0.52330 0.11720 0.85820 0.12900
H 	H 	0.48410 0.11030 0.86690 0.14400
N 	N 	0.57352 0.11874 0.80537 -0.26100
N 	N 	0.54611 0.10714 0.78159 -0.25100
N 	N 	0.54531 0.16722 0.78422 -0.24400
H 	H 	0.53910 0.18960 0.78060 0.12200
N 	N 	0.50200 0.13890 0.74460 -0.32200
H 	H 	0.49320 0.11910 0.73550 0.10500
H 	H 	0.49320 0.15970 0.73810 0.13200
C 	C 	0.48606 0.18903 0.93668 0.14800
C 	C 	0.50478 0.14992 0.89606 0.21200
C 	C 	0.57274 0.15491 0.80629 0.12900
C 	C 	0.53000 0.13734 0.76927 0.19000
Cu	Cu	0.58599 0.66882 0.39121 0.80200
Cu	Cu	0.55481 0.73125 0.45348 0.78300
S 	S 	0.45747 0.71144 0.46786 -0.54700
S 	S 	0.60106 0.68391 0.33165 -0.48000
N 	N 	0.52098 0.69517 0.43064 -0.26900
N 	N 	0.53304 0.66992 0.40394 -0.24600
N 	N 	0.47498 0.66052 0.41553 -0.25000
H 	H 	0.45350 0.65110 0.41470 0.12700
N 	N 	0.50396 0.62237 0.37051 -0.32800
H 	H 	0.52330 0.61720 0.35820 0.12900
H 	H 	0.48410 0.61030 0.36690 0.14400
N 	N 	0.57352 0.61874 0.30537 -0.26100
N 	N 	0.54611 0.60714 0.28159 -0.25100
N 	N 	0.54531 0.66722 0.28422 -0.24400
H 	H 	0.53910 0.68960 0.28060 0.12200
N 	N 	0.50200 0.63890 0.24460 -0.32200
H 	H 	0.49320 0.61910 0.23550 0.10500
H 	H 	0.49320 0.65970 0.23810 0.13200
C 	C 	0.48606 0.68903 0.43668 0.14800
C 	C 	0.50478 0.64992 0.39606 0.21100
C 	C 	0.57274 0.65491 0.30629 0.12900
C 	C 	0.53000 0.63734 0.26927 0.19000
Cu	Cu	0.08599 0.83118 0.60879 0.80200
Cu	Cu	0.05481 0.76875 0.54652 0.78300
S 	S 	0.95747 0.78856 0.53214 -0.54500
S 	S 	0.10106 0.81609 0.66835 -0.48100
N 	N 	0.02098 0.80483 0.56936 -0.27300
N 	N 	0.03304 0.83008 0.59606 -0.24500
N 	N 	0.97498 0.83948 0.58447 -0.24700
H 	H 	0.95350 0.84890 0.58530 0.12700
N 	N 	0.00396 0.87763 0.62949 -0.33400
H 	H 	0.02330 0.88280 0.64180 0.13000
H 	H 	0.98410 0.88970 0.63310 0.15100
N 	N 	0.07352 0.88126 0.69463 -0.26100
N 	N 	0.04611 0.89286 0.71841 -0.25200
N 	N 	0.04531 0.83278 0.71578 -0.24500
H 	H 	0.03910 0.81040 0.71940 0.12000
N 	N 	0.00200 0.86110 0.75540 -0.33700
H 	H 	0.99320 0.88090 0.76450 0.11300
H 	H 	0.99320 0.84030 0.76190 0.14100
C 	C 	0.98606 0.81097 0.56332 0.15500
C 	C 	0.00478 0.85008 0.60394 0.20600
C 	C 	0.07274 0.84509 0.69371 0.12800
C 	C 	0.03000 0.86266 0.73073 0.19100
Cu	Cu	0.08599 0.33118 0.10879 0.80100
Cu	Cu	0.05481 0.26875 0.04652 0.78200
S 	S 	0.95747 0.28856 0.03214 -0.54900
S 	S 	0.10106 0.31609 0.16835 -0.48100
N 	N 	0.02098 0.30483 0.06936 -0.27300
N 	N 	0.03304 0.33008 0.09606 -0.24600
N 	N 	0.97498 0.33948 0.08447 -0.24700
H 	H 	0.95350 0.34890 0.08530 0.12700
N 	N 	0.00396 0.37763 0.12949 -0.33400
H 	H 	0.02330 0.38280 0.14180 0.13000
H 	H 	0.98410 0.38970 0.13310 0.15000
N 	N 	0.07352 0.38126 0.19463 -0.26100
N 	N 	0.04611 0.39286 0.21841 -0.25200
N 	N 	0.04531 0.33278 0.21578 -0.24500
H 	H 	0.03910 0.31040 0.21940 0.12000
N 	N 	0.00200 0.36110 0.25540 -0.33700
H 	H 	0.99320 0.38090 0.26450 0.11400
H 	H 	0.99320 0.34030 0.26190 0.14200
C 	C 	0.98606 0.31097 0.06332 0.15500
C 	C 	0.00478 0.35008 0.10394 0.20500
C 	C 	0.07274 0.34509 0.19371 0.12800
C 	C 	0.03000 0.36266 0.23073 0.19100
Cu	Cu	0.58599 0.83118 0.10879 0.80100
Cu	Cu	0.55481 0.76875 0.04652 0.78200
S 	S 	0.45747 0.78856 0.03214 -0.55100
S 	S 	0.60106 0.81609 0.16835 -0.48000
N 	N 	0.52098 0.80483 0.06936 -0.26900
N 	N 	0.53304 0.83008 0.09606 -0.24600
N 	N 	0.47498 0.83948 0.08447 -0.25000
H 	H 	0.45350 0.84890 0.08530 0.12700
N 	N 	0.50396 0.87763 0.12949 -0.32800
H 	H 	0.52330 0.88280 0.14180 0.12900
H 	H 	0.48410 0.88970 0.13310 0.14400
N 	N 	0.57352 0.88126 0.19463 -0.26100
N 	N 	0.54611 0.89286 0.21841 -0.25100
N 	N 	0.54531 0.83278 0.21578 -0.24400
H 	H 	0.53910 0.81040 0.21940 0.12200
N 	N 	0.50200 0.86110 0.25540 -0.32200
H 	H 	0.49320 0.88090 0.26450 0.10400
H 	H 	0.49320 0.84030 0.26190 0.13200
C 	C 	0.48606 0.81097 0.06332 0.14800
C 	C 	0.50478 0.85008 0.10394 0.21100
C 	C 	0.57274 0.84509 0.19371 0.12900
C 	C 	0.53000 0.86266 0.23073 0.19000
Cu	Cu	0.58599 0.33118 0.60879 0.80200
Cu	Cu	0.55481 0.26875 0.54652 0.78300
S 	S 	0.45747 0.28856 0.53214 -0.54700
S 	S 	0.60106 0.31609 0.66835 -0.48000
N 	N 	0.52098 0.30483 0.56936 -0.26900
N 	N 	0.53304 0.33008 0.59606 -0.24600
N 	N 	0.47498 0.33948 0.58447 -0.25000
H 	H 	0.45350 0.34890 0.58530 0.12700
N 	N 	0.50396 0.37763 0.62949 -0.32800
H 	H 	0.52330 0.38280 0.64180 0.12900
H 	H 	0.48410 0.38970 0.63310 0.14400
N 	N 	0.57352 0.38126 0.69463 -0.26100
N 	N 	0.54611 0.39286 0.71841 -0.25100
N 	N 	0.54531 0.33278 0.71578 -0.24400
H 	H 	0.53910 0.31040 0.71940 0.12200
N 	N 	0.50200 0.36110 0.75540 -0.32200
H 	H 	0.49320 0.38090 0.76450 0.10400
H 	H 	0.49320 0.34030 0.76190 0.13200
C 	C 	0.48606 0.31097 0.56332 0.14800
C 	C 	0.50478 0.35008 0.60394 0.21100
C 	C 	0.57274 0.34509 0.69371 0.12900
C 	C 	0.53000 0.36266 0.73073 0.19000
Cu	Cu	0.91401 0.16882 0.60879 0.80200
Cu	Cu	0.94519 0.23125 0.54652 0.78400
S 	S 	0.04253 0.21144 0.53214 -0.54900
S 	S 	0.89894 0.18391 0.66835 -0.48000
N 	N 	0.97902 0.19517 0.56936 -0.26500
N 	N 	0.96696 0.16992 0.59606 -0.24700
N 	N 	0.02502 0.16052 0.58447 -0.25200
H 	H 	0.04650 0.15110 0.58530 0.12600
N 	N 	0.99604 0.12237 0.62949 -0.32100
H 	H 	0.97670 0.11720 0.64180 0.12900
H 	H 	0.01590 0.11030 0.63310 0.13700
N 	N 	0.92648 0.11874 0.69463 -0.26100
N 	N 	0.95389 0.10714 0.71841 -0.25000
N 	N 	0.95469 0.16722 0.71578 -0.24400
H 	H 	0.96090 0.18960 0.71940 0.12300
N 	N 	0.99800 0.13890 0.75540 -0.30800
H 	H 	0.00680 0.11910 0.76450 0.09600
H 	H 	0.00680 0.15970 0.76190 0.12300
C 	C 	0.01394 0.18903 0.56332 0.14100
C 	C 	0.99522 0.14992 0.60394 0.21700
C 	C 	0.92726 0.15491 0.69371 0.12900
C 	C 	0.97000 0.13734 0.73073 0.19000
Cu	Cu	0.91401 0.66882 0.10879 0.80200
Cu	Cu	0.94519 0.73125 0.04652 0.78300
S 	S 	0.04253 0.71144 0.03214 -0.55200
S 	S 	0.89894 0.68391 0.16835 -0.48000
N 	N 	0.97902 0.69517 0.06936 -0.26500
N 	N 	0.96696 0.66992 0.09606 -0.24700
N 	N 	0.02502 0.66052 0.08447 -0.25300
H 	H 	0.04650 0.65110 0.08530 0.12600
N 	N 	0.99604 0.62237 0.12949 -0.32100
H 	H 	0.97670 0.61720 0.14180 0.12900
H 	H 	0.01590 0.61030 0.13310 0.13700
N 	N 	0.92648 0.61874 0.19463 -0.26100
N 	N 	0.95389 0.60714 0.21841 -0.24900
N 	N 	0.95469 0.66722 0.21578 -0.24400
H 	H 	0.96090 0.68960 0.21940 0.12300
N 	N 	0.99800 0.63890 0.25540 -0.30800
H 	H 	0.00680 0.61910 0.26450 0.09600
H 	H 	0.00680 0.65970 0.26190 0.12300
C 	C 	0.01394 0.68903 0.06332 0.14100
C 	C 	0.99522 0.64992 0.10394 0.21700
C 	C 	0.92726 0.65491 0.19371 0.12900
C 	C 	0.97000 0.63734 0.23073 0.19000
Cu	Cu	0.41401 0.16882 0.10879 0.80100
Cu	Cu	0.44519 0.23125 0.04652 0.78200
S 	S 	0.54253 0.21144 0.03214 -0.55100
S 	S 	0.39894 0.18391 0.16835 -0.48000
N 	N 	0.47902 0.19517 0.06936 -0.26900
N 	N 	0.46696 0.16992 0.09606 -0.24600
N 	N 	0.52502 0.16052 0.08447 -0.25000
H 	H 	0.54650 0.15110 0.08530 0.12600
N 	N 	0.49604 0.12237 0.12949 -0.32700
H 	H 	0.47670 0.11720 0.14180 0.12900
H 	H 	0.51590 0.11030 0.13310 0.14300
N 	N 	0.42648 0.11874 0.19463 -0.26100
N 	N 	0.45389 0.10714 0.21841 -0.25100
N 	N 	0.45469 0.16722 0.21578 -0.24400
H 	H 	0.46090 0.18960 0.21940 0.12200
N 	N 	0.49800 0.13890 0.25540 -0.32200
H 	H 	0.50680 0.11910 0.26450 0.10500
H 	H 	0.50680 0.15970 0.26190 0.13200
C 	C 	0.51394 0.18903 0.06332 0.14800
C 	C 	0.49522 0.14992 0.10394 0.21100
C 	C 	0.42726 0.15491 0.19371 0.12900
C 	C 	0.47000 0.13734 0.23073 0.19000
Cu	Cu	0.41401 0.66882 0.60879 0.80200
Cu	Cu	0.44519 0.73125 0.54652 0.78300
S 	S 	0.54253 0.71144 0.53214 -0.54700
S 	S 	0.39894 0.68391 0.66835 -0.48000
N 	N 	0.47902 0.69517 0.56936 -0.26900
N 	N 	0.46696 0.66992 0.59606 -0.24600
N 	N 	0.52502 0.66052 0.58447 -0.25000
H 	H 	0.54650 0.65110 0.58530 0.12700
N 	N 	0.49604 0.62237 0.62949 -0.32700
H 	H 	0.47670 0.61720 0.64180 0.12900
H 	H 	0.51590 0.61030 0.63310 0.14400
N 	N 	0.42648 0.61874 0.69463 -0.26100
N 	N 	0.45389 0.60714 0.71841 -0.25100
N 	N 	0.45469 0.66722 0.71578 -0.24400
H 	H 	0.46090 0.68960 0.71940 0.12200
N 	N 	0.49800 0.63890 0.75540 -0.32200
H 	H 	0.50680 0.61910 0.76450 0.10400
H 	H 	0.50680 0.65970 0.76190 0.13200
C 	C 	0.51394 0.68903 0.56332 0.14800
C 	C 	0.49522 0.64992 0.60394 0.21100
C 	C 	0.42726 0.65491 0.69371 0.12900
C 	C 	0.47000 0.63734 0.73073 0.19000
Cu	Cu	0.91401 0.83118 0.39121 0.80200
Cu	Cu	0.94519 0.76875 0.45348 0.78400
S 	S 	0.04253 0.78856 0.46786 -0.54800
S 	S 	0.89894 0.81609 0.33165 -0.48000
N 	N 	0.97902 0.80483 0.43064 -0.26500
N 	N 	0.96696 0.83008 0.40394 -0.24700
N 	N 	0.02502 0.83948 0.41553 -0.25200
H 	H 	0.04650 0.84890 0.41470 0.12700
N 	N 	0.99604 0.87763 0.37051 -0.32200
H 	H 	0.97670 0.88280 0.35820 0.12900
H 	H 	0.01590 0.88970 0.36690 0.13800
N 	N 	0.92648 0.88126 0.30537 -0.26100
N 	N 	0.95389 0.89286 0.28159 -0.24900
N 	N 	0.95469 0.83278 0.28422 -0.24400
H 	H 	0.96090 0.81040 0.28060 0.12300
N 	N 	0.99800 0.86110 0.24460 -0.30800
H 	H 	0.00680 0.88090 0.23550 0.09600
H 	H 	0.00680 0.84030 0.23810 0.12300
C 	C 	0.01394 0.81097 0.43668 0.14100
C 	C 	0.99522 0.85008 0.39606 0.21700
C 	C 	0.92726 0.84509 0.30629 0.12900
C 	C 	0.97000 0.86266 0.26927 0.19000
Cu	Cu	0.91401 0.33118 0.89121 0.80200
Cu	Cu	0.94519 0.26875 0.95348 0.78500
S 	S 	0.04253 0.28856 0.96786 -0.54300
S 	S 	0.89894 0.31609 0.83165 -0.48000
N 	N 	0.97902 0.30483 0.93064 -0.26400
N 	N 	0.96696 0.33008 0.90394 -0.24600
N 	N 	0.02502 0.33948 0.91553 -0.25200
H 	H 	0.04650 0.34890 0.91470 0.12700
N 	N 	0.99604 0.37763 0.87051 -0.32100
H 	H 	0.97670 0.38280 0.85820 0.12900
H 	H 	0.01590 0.38970 0.86690 0.13700
N 	N 	0.92648 0.38126 0.80537 -0.26100
N 	N 	0.95389 0.39286 0.78159 -0.24900
N 	N 	0.95469 0.33278 0.78422 -0.24400
H 	H 	0.96090 0.31040 0.78060 0.12300
N 	N 	0.99800 0.36110 0.74460 -0.30800
H 	H 	0.00680 0.38090 0.73550 0.09600
H 	H 	0.00680 0.34030 0.73810 0.12300
C 	C 	0.01394 0.31097 0.93668 0.14100
C 	C 	0.99522 0.35008 0.89606 0.21800
C 	C 	0.92726 0.34509 0.80629 0.12900
C 	C 	0.97000 0.36266 0.76927 0.19000
Cu	Cu	0.41401 0.83118 0.89121 0.80200
Cu	Cu	0.44519 0.76875 0.95348 0.78500
S 	S 	0.54253 0.78856 0.96786 -0.54200
S 	S 	0.39894 0.81609 0.83165 -0.48000
N 	N 	0.47902 0.80483 0.93064 -0.26800
N 	N 	0.46696 0.83008 0.90394 -0.24600
N 	N 	0.52502 0.83948 0.91553 -0.25000
H 	H 	0.54650 0.84890 0.91470 0.12800
N 	N 	0.49604 0.87763 0.87051 -0.32800
H 	H 	0.47670 0.88280 0.85820 0.13000
H 	H 	0.51590 0.88970 0.86690 0.14500
N 	N 	0.42648 0.88126 0.80537 -0.26100
N 	N 	0.45389 0.89286 0.78159 -0.25100
N 	N 	0.45469 0.83278 0.78422 -0.24400
H 	H 	0.46090 0.81040 0.78060 0.12200
N 	N 	0.49800 0.86110 0.74460 -0.32200
H 	H 	0.50680 0.88090 0.73550 0.10400
H 	H 	0.50680 0.84030 0.73810 0.13200
C 	C 	0.51394 0.81097 0.93668 0.14800
C 	C 	0.49522 0.85008 0.89606 0.21200
C 	C 	0.42726 0.84509 0.80629 0.12900
C 	C 	0.47000 0.86266 0.76927 0.19000
Cu	Cu	0.41401 0.33118 0.39121 0.80200
Cu	Cu	0.44519 0.26875 0.45348 0.78300
S 	S 	0.54253 0.28856 0.46786 -0.54700
S 	S 	0.39894 0.31609 0.33165 -0.48000
N 	N 	0.47902 0.30483 0.43064 -0.26900
N 	N 	0.46696 0.33008 0.40394 -0.24600
N 	N 	0.52502 0.33948 0.41553 -0.25000
H 	H 	0.54650 0.34890 0.41470 0.12700
N 	N 	0.49604 0.37763 0.37051 -0.32800
H 	H 	0.47670 0.38280 0.35820 0.12900
H 	H 	0.51590 0.38970 0.36690 0.14400
N 	N 	0.42648 0.38126 0.30537 -0.26100
N 	N 	0.45389 0.39286 0.28159 -0.25100
N 	N 	0.45469 0.33278 0.28422 -0.24400
H 	H 	0.46090 0.31040 0.28060 0.12200
N 	N 	0.49800 0.36110 0.24460 -0.32200
H 	H 	0.50680 0.38090 0.23550 0.10500
H 	H 	0.50680 0.34030 0.23810 0.13200
C 	C 	0.51394 0.31097 0.43668 0.14800
C 	C 	0.49522 0.35008 0.39606 0.21200
C 	C 	0.42726 0.34509 0.30629 0.12900
C 	C 	0.47000 0.36266 0.26927 0.19000
Cu	Cu	0.85210 0.64790 0.64790 0.74600
Cl	Cl	0.90038 0.59962 0.59962 -0.74300
Cu	Cu	0.85210 0.14790 0.14790 0.74600
Cl	Cl	0.90038 0.09962 0.09962 -0.74500
Cu	Cu	0.14790 0.35210 0.64790 0.74600
Cl	Cl	0.09962 0.40038 0.59962 -0.74500
Cu	Cu	0.14790 0.85210 0.14790 0.74600
Cl	Cl	0.09962 0.90038 0.09962 -0.74500
Cu	Cu	0.14790 0.64790 0.35210 0.74600
Cl	Cl	0.09962 0.59962 0.40038 -0.74500
Cu	Cu	0.14790 0.14790 0.85210 0.74600
Cl	Cl	0.09962 0.09962 0.90038 -0.74500
Cu	Cu	0.85210 0.35210 0.35210 0.74600
Cl	Cl	0.90038 0.40038 0.40038 -0.74300
Cu	Cu	0.85210 0.85210 0.85210 0.74600
Cl	Cl	0.90038 0.90038 0.90038 -0.74200
Cu	Cu	0.64790 0.85210 0.64790 0.74600
Cl	Cl	0.59962 0.90038 0.59962 -0.74300
Cu	Cu	0.64790 0.14790 0.35210 0.74600
Cl	Cl	0.59962 0.09962 0.40038 -0.74500
Cu	Cu	0.35210 0.14790 0.64790 0.74600
Cl	Cl	0.40038 0.09962 0.59962 -0.74500
Cu	Cu	0.35210 0.85210 0.35210 0.74600
Cl	Cl	0.40038 0.90038 0.40038 -0.74300
Cu	Cu	0.64790 0.64790 0.85210 0.74600
Cl	Cl	0.59962 0.59962 0.90038 -0.74300
Cu	Cu	0.35210 0.64790 0.14790 0.74600
Cl	Cl	0.40038 0.59962 0.09962 -0.74500
Cu	Cu	0.64790 0.35210 0.14790 0.74600
Cl	Cl	0.59962 0.40038 0.09962 -0.74500
Cu	Cu	0.35210 0.35210 0.85210 0.74600
Cl	Cl	0.40038 0.40038 0.90038 -0.74300
Cu	Cu	0.14790 0.35210 0.14790 0.74600
Cl	Cl	0.09962 0.40038 0.09962 -0.74600
Cu	Cu	0.85210 0.64790 0.14790 0.74600
Cl	Cl	0.90038 0.59962 0.09962 -0.74400
Cu	Cu	0.14790 0.64790 0.85210 0.74600
Cl	Cl	0.09962 0.59962 0.90038 -0.74400
Cu	Cu	0.85210 0.35210 0.85210 0.74600
Cl	Cl	0.90038 0.40038 0.90038 -0.74200
Cu	Cu	0.35210 0.14790 0.14790 0.74600
Cl	Cl	0.40038 0.09962 0.09962 -0.74600
Cu	Cu	0.35210 0.64790 0.64790 0.74600
Cl	Cl	0.40038 0.59962 0.59962 -0.74400
Cu	Cu	0.64790 0.14790 0.85210 0.74600
Cl	Cl	0.59962 0.09962 0.90038 -0.74400
Cu	Cu	0.64790 0.64790 0.35210 0.74600
Cl	Cl	0.59962 0.59962 0.40038 -0.74400
Cu	Cu	0.64790 0.85210 0.14790 0.74600
Cl	Cl	0.59962 0.90038 0.09962 -0.74400
Cu	Cu	0.64790 0.35210 0.64790 0.74600
Cl	Cl	0.59962 0.40038 0.59962 -0.74400
Cu	Cu	0.35210 0.85210 0.85210 0.74600
Cl	Cl	0.40038 0.90038 0.90038 -0.74200
Cu	Cu	0.35210 0.35210 0.35210 0.74600
Cl	Cl	0.40038 0.40038 0.40038 -0.74400
Cu	Cu	0.14790 0.14790 0.35210 0.74600
Cl	Cl	0.09962 0.09962 0.40038 -0.74600
Cu	Cu	0.14790 0.85210 0.64790 0.74600
Cl	Cl	0.09962 0.90038 0.59962 -0.74400
Cu	Cu	0.85210 0.14790 0.64790 0.74600
Cl	Cl	0.90038 0.09962 0.59962 -0.74400
Cu	Cu	0.85210 0.85210 0.35210 0.74600
Cl	Cl	0.90038 0.90038 0.40038 -0.74200
Cu	Cu	0.00000 0.75000 0.50000 0.69700
Cu	Cu	-0.00000 0.25000 -0.00000 0.69300
Cu	Cu	0.50000 0.75000 -0.00000 0.69700
Cu	Cu	0.50000 0.25000 0.50000 0.70000
Cu	Cu	-0.00000 0.25000 0.50000 0.69700
Cu	Cu	-0.00000 0.75000 -0.00000 0.69300
Cu	Cu	0.50000 0.25000 -0.00000 0.69700
Cu	Cu	0.50000 0.75000 0.50000 0.70000
Cu	Cu	0.50000 0.00000 0.75000 0.69700
Cu	Cu	0.50000 0.50000 0.25000 0.70000
Cu	Cu	0.00000 0.00000 0.25000 0.69300
Cu	Cu	0.00000 0.50000 0.75000 0.69700
Cu	Cu	0.50000 0.00000 0.25000 0.69700
Cu	Cu	0.50000 0.50000 0.75000 0.70000
Cu	Cu	0.00000 0.00000 0.75000 0.69300
Cu	Cu	-0.00000 0.50000 0.25000 0.69700
Cu	Cu	0.75000 0.50000 -0.00000 0.69700
Cu	Cu	0.75000 0.00000 0.50000 0.69700
Cu	Cu	0.25000 0.50000 0.50000 0.70000
Cu	Cu	0.25000 0.00000 -0.00000 0.69300
Cu	Cu	0.25000 0.50000 -0.00000 0.69700
Cu	Cu	0.25000 0.00000 0.50000 0.69700
Cu	Cu	0.75000 0.50000 0.50000 0.70000
Cu	Cu	0.75000 0.00000 -0.00000 0.69300
