data_crystal

_cell_length_a 36.62890
_cell_length_b 36.62890
_cell_length_c 36.62890
_cell_angle_alpha 90.00000
_cell_angle_beta  90.00000
_cell_angle_gamma 90.00000

_symmetry_space_group_name_	'P 1'
_symmetry_space_group_name_H-M	'P 1'

loop_
_symmetry_equiv_pos_as_xyz
  x,y,z

loop_
_atom_site_label
_atom_site_type_symbol
_atom_site_fract_x
_atom_site_fract_y
_atom_site_fract_z
_atom_site_charge
Cu	Cu	0.89082 0.67057 0.58486 0.78600
Cu	Cu	0.95317 0.73158 0.55455 0.78300
S 	S 	0.96856 0.71126 0.45732 -0.54400
S 	S 	0.83097 0.68308 0.60115 -0.48300
N 	N 	0.93046 0.69639 0.51997 -0.27300
N 	N 	0.90285 0.67220 0.53156 -0.25000
N 	N 	0.91510 0.66213 0.47385 -0.24900
H 	H 	0.91400 0.65310 0.45220 0.12500
N 	N 	0.86874 0.62535 0.50242 -0.32700
H 	H 	0.85560 0.62090 0.52140 0.12200
H 	H 	0.86540 0.61310 0.48270 0.14200
N 	N 	0.80408 0.61843 0.57441 -0.26700
N 	N 	0.78040 0.60739 0.54661 -0.25500
N 	N 	0.78426 0.66660 0.54587 -0.24900
H 	H 	0.78070 0.68900 0.53980 0.12100
N 	N 	0.74514 0.63883 0.50221 -0.32800
H 	H 	0.73560 0.61920 0.49360 0.10600
H 	H 	0.73940 0.65970 0.49310 0.13200
C 	C 	0.93712 0.68958 0.48572 0.15100
C 	C 	0.89514 0.65207 0.50372 0.20600
C 	C 	0.80605 0.65440 0.57310 0.13300
C 	C 	0.76916 0.63691 0.53009 0.19900
Cu	Cu	0.89082 0.17057 0.08486 0.78600
Cu	Cu	0.95317 0.23158 0.05455 0.78200
S 	S 	0.96856 0.21126 0.95732 -0.54200
S 	S 	0.83097 0.18308 0.10115 -0.48300
N 	N 	0.93046 0.19639 0.01997 -0.27700
N 	N 	0.90285 0.17220 0.03156 -0.25000
N 	N 	0.91510 0.16213 0.97385 -0.24600
H 	H 	0.91400 0.15310 0.95220 0.12600
N 	N 	0.86874 0.12535 0.00242 -0.33200
H 	H 	0.85560 0.12090 0.02140 0.12400
H 	H 	0.86540 0.11310 0.98270 0.15000
N 	N 	0.80408 0.11843 0.07441 -0.26600
N 	N 	0.78040 0.10739 0.04661 -0.25500
N 	N 	0.78426 0.16660 0.04587 -0.24800
H 	H 	0.78070 0.18900 0.03980 0.12100
N 	N 	0.74514 0.13883 0.00221 -0.34200
H 	H 	0.73560 0.11920 0.99360 0.11600
H 	H 	0.73940 0.15970 0.99310 0.14200
C 	C 	0.93712 0.18958 0.98572 0.15900
C 	C 	0.89514 0.15207 0.00372 0.20100
C 	C 	0.80605 0.15440 0.07310 0.13300
C 	C 	0.76916 0.13691 0.03009 0.20100
Cu	Cu	0.39082 0.67057 0.08486 0.78700
Cu	Cu	0.45317 0.73158 0.05455 0.78200
S 	S 	0.46856 0.71126 0.95732 -0.54600
S 	S 	0.33097 0.68308 0.10115 -0.48200
N 	N 	0.43046 0.69639 0.01997 -0.27700
N 	N 	0.40285 0.67220 0.03156 -0.24900
N 	N 	0.41510 0.66213 0.97385 -0.24600
H 	H 	0.41400 0.65310 0.95220 0.12600
N 	N 	0.36874 0.62535 0.00242 -0.33200
H 	H 	0.35560 0.62090 0.02140 0.12400
H 	H 	0.36540 0.61310 0.98270 0.15000
N 	N 	0.30408 0.61843 0.07441 -0.26600
N 	N 	0.28040 0.60739 0.04661 -0.25500
N 	N 	0.28426 0.66660 0.04587 -0.24800
H 	H 	0.28070 0.68900 0.03980 0.12100
N 	N 	0.24514 0.63883 0.00221 -0.34200
H 	H 	0.23560 0.61920 0.99360 0.11600
H 	H 	0.23940 0.65970 0.99310 0.14200
C 	C 	0.43712 0.68958 0.98572 0.15900
C 	C 	0.39514 0.65207 0.00372 0.20100
C 	C 	0.30605 0.65440 0.07310 0.13300
C 	C 	0.26916 0.63691 0.03009 0.20100
Cu	Cu	0.39082 0.17057 0.58486 0.78700
Cu	Cu	0.45317 0.23158 0.55455 0.78200
S 	S 	0.46856 0.21126 0.45732 -0.54800
S 	S 	0.33097 0.18308 0.60115 -0.48200
N 	N 	0.43046 0.19639 0.51997 -0.27300
N 	N 	0.40285 0.17220 0.53156 -0.25000
N 	N 	0.41510 0.16213 0.47385 -0.24800
H 	H 	0.41400 0.15310 0.45220 0.12600
N 	N 	0.36874 0.12535 0.50242 -0.32600
H 	H 	0.35560 0.12090 0.52140 0.12300
H 	H 	0.36540 0.11310 0.48270 0.14300
N 	N 	0.30408 0.11843 0.57441 -0.26600
N 	N 	0.28040 0.10739 0.54661 -0.25400
N 	N 	0.28426 0.16660 0.54587 -0.24800
H 	H 	0.28070 0.18900 0.53980 0.12200
N 	N 	0.24514 0.13883 0.50221 -0.32700
H 	H 	0.23560 0.11920 0.49360 0.10700
H 	H 	0.23940 0.15970 0.49310 0.13300
C 	C 	0.43712 0.18958 0.48572 0.15200
C 	C 	0.39514 0.15207 0.50372 0.20600
C 	C 	0.30605 0.15440 0.57310 0.13400
C 	C 	0.26916 0.13691 0.53009 0.20000
Cu	Cu	0.10918 0.32943 0.58486 0.78700
Cu	Cu	0.04683 0.26842 0.55455 0.78100
S 	S 	0.03144 0.28874 0.45732 -0.55200
S 	S 	0.16903 0.31692 0.60115 -0.48200
N 	N 	0.06954 0.30361 0.51997 -0.27300
N 	N 	0.09715 0.32780 0.53156 -0.25000
N 	N 	0.08490 0.33787 0.47385 -0.24800
H 	H 	0.08600 0.34690 0.45220 0.12500
N 	N 	0.13126 0.37465 0.50242 -0.32600
H 	H 	0.14440 0.37910 0.52140 0.12300
H 	H 	0.13460 0.38690 0.48270 0.14300
N 	N 	0.19592 0.38157 0.57441 -0.26600
N 	N 	0.21960 0.39261 0.54661 -0.25400
N 	N 	0.21574 0.33340 0.54587 -0.24800
H 	H 	0.21930 0.31100 0.53980 0.12200
N 	N 	0.25486 0.36117 0.50221 -0.32700
H 	H 	0.26440 0.38080 0.49360 0.10700
H 	H 	0.26060 0.34030 0.49310 0.13300
C 	C 	0.06288 0.31042 0.48572 0.15200
C 	C 	0.10486 0.34793 0.50372 0.20600
C 	C 	0.19395 0.34560 0.57310 0.13400
C 	C 	0.23084 0.36309 0.53009 0.20000
Cu	Cu	0.10918 0.82943 0.08486 0.78700
Cu	Cu	0.04683 0.76842 0.05455 0.78100
S 	S 	0.03144 0.78874 0.95732 -0.55000
S 	S 	0.16903 0.81692 0.10115 -0.48200
N 	N 	0.06954 0.80361 0.01997 -0.27700
N 	N 	0.09715 0.82780 0.03156 -0.24900
N 	N 	0.08490 0.83787 0.97385 -0.24600
H 	H 	0.08600 0.84690 0.95220 0.12600
N 	N 	0.13126 0.87465 0.00242 -0.33200
H 	H 	0.14440 0.87910 0.02140 0.12400
H 	H 	0.13460 0.88690 0.98270 0.15000
N 	N 	0.19592 0.88157 0.07441 -0.26600
N 	N 	0.21960 0.89261 0.04661 -0.25500
N 	N 	0.21574 0.83340 0.04587 -0.24800
H 	H 	0.21930 0.81100 0.03980 0.12100
N 	N 	0.25486 0.86117 0.00221 -0.34200
H 	H 	0.26440 0.88080 0.99360 0.11600
H 	H 	0.26060 0.84030 0.99310 0.14200
C 	C 	0.06288 0.81042 0.98572 0.15900
C 	C 	0.10486 0.84793 0.00372 0.20100
C 	C 	0.19395 0.84560 0.07310 0.13300
C 	C 	0.23084 0.86309 0.03009 0.20100
Cu	Cu	0.60918 0.32943 0.08486 0.78700
Cu	Cu	0.54683 0.26842 0.05455 0.78200
S 	S 	0.53144 0.28874 0.95732 -0.54600
S 	S 	0.66903 0.31692 0.10115 -0.48200
N 	N 	0.56954 0.30361 0.01997 -0.27700
N 	N 	0.59715 0.32780 0.03156 -0.24900
N 	N 	0.58490 0.33787 0.97385 -0.24600
H 	H 	0.58600 0.34690 0.95220 0.12600
N 	N 	0.63126 0.37465 0.00242 -0.33200
H 	H 	0.64440 0.37910 0.02140 0.12400
H 	H 	0.63460 0.38690 0.98270 0.15000
N 	N 	0.69592 0.38157 0.07441 -0.26600
N 	N 	0.71960 0.39261 0.04661 -0.25500
N 	N 	0.71574 0.33340 0.04587 -0.24800
H 	H 	0.71930 0.31100 0.03980 0.12100
N 	N 	0.75486 0.36117 0.00221 -0.34200
H 	H 	0.76440 0.38080 0.99360 0.11600
H 	H 	0.76060 0.34030 0.99310 0.14200
C 	C 	0.56288 0.31042 0.98572 0.15900
C 	C 	0.60486 0.34793 0.00372 0.20100
C 	C 	0.69395 0.34560 0.07310 0.13300
C 	C 	0.73084 0.36309 0.03009 0.20100
Cu	Cu	0.60918 0.82943 0.58486 0.78700
Cu	Cu	0.54683 0.76842 0.55455 0.78200
S 	S 	0.53144 0.78874 0.45732 -0.54800
S 	S 	0.66903 0.81692 0.60115 -0.48200
N 	N 	0.56954 0.80361 0.51997 -0.27300
N 	N 	0.59715 0.82780 0.53156 -0.25000
N 	N 	0.58490 0.83787 0.47385 -0.24800
H 	H 	0.58600 0.84690 0.45220 0.12600
N 	N 	0.63126 0.87465 0.50242 -0.32600
H 	H 	0.64440 0.87910 0.52140 0.12300
H 	H 	0.63460 0.88690 0.48270 0.14400
N 	N 	0.69592 0.88157 0.57441 -0.26600
N 	N 	0.71960 0.89261 0.54661 -0.25400
N 	N 	0.71574 0.83340 0.54587 -0.24800
H 	H 	0.71930 0.81100 0.53980 0.12200
N 	N 	0.75486 0.86117 0.50221 -0.32700
H 	H 	0.76440 0.88080 0.49360 0.10700
H 	H 	0.76060 0.84030 0.49310 0.13300
C 	C 	0.56288 0.81042 0.48572 0.15200
C 	C 	0.60486 0.84793 0.50372 0.20700
C 	C 	0.69395 0.84560 0.57310 0.13400
C 	C 	0.73084 0.86309 0.53009 0.20000
Cu	Cu	0.10918 0.67057 0.41514 0.78700
Cu	Cu	0.04683 0.73158 0.44545 0.78100
S 	S 	0.03144 0.71126 0.54268 -0.55200
S 	S 	0.16903 0.68308 0.39885 -0.48200
N 	N 	0.06954 0.69639 0.48003 -0.27300
N 	N 	0.09715 0.67220 0.46844 -0.25000
N 	N 	0.08490 0.66213 0.52615 -0.24800
H 	H 	0.08600 0.65310 0.54780 0.12500
N 	N 	0.13126 0.62535 0.49758 -0.32600
H 	H 	0.14440 0.62090 0.47860 0.12300
H 	H 	0.13460 0.61310 0.51730 0.14300
N 	N 	0.19592 0.61843 0.42559 -0.26600
N 	N 	0.21960 0.60739 0.45339 -0.25400
N 	N 	0.21574 0.66660 0.45413 -0.24800
H 	H 	0.21930 0.68900 0.46020 0.12200
N 	N 	0.25486 0.63883 0.49779 -0.32700
H 	H 	0.26440 0.61920 0.50640 0.10700
H 	H 	0.26060 0.65970 0.50690 0.13300
C 	C 	0.06288 0.68958 0.51428 0.15200
C 	C 	0.10486 0.65207 0.49628 0.20600
C 	C 	0.19395 0.65440 0.42690 0.13400
C 	C 	0.23084 0.63691 0.46991 0.20000
Cu	Cu	0.10918 0.17057 0.91514 0.78700
Cu	Cu	0.04683 0.23158 0.94545 0.78200
S 	S 	0.03144 0.21126 0.04268 -0.55300
S 	S 	0.16903 0.18308 0.89885 -0.48200
N 	N 	0.06954 0.19639 0.98003 -0.26900
N 	N 	0.09715 0.17220 0.96844 -0.25000
N 	N 	0.08490 0.16213 0.02615 -0.25100
H 	H 	0.08600 0.15310 0.04780 0.12500
N 	N 	0.13126 0.12535 0.99758 -0.32000
H 	H 	0.14440 0.12090 0.97860 0.12200
H 	H 	0.13460 0.11310 0.01730 0.13600
N 	N 	0.19592 0.11843 0.92559 -0.26600
N 	N 	0.21960 0.10739 0.95339 -0.25200
N 	N 	0.21574 0.16660 0.95413 -0.24700
H 	H 	0.21930 0.18900 0.96020 0.12400
N 	N 	0.25486 0.13883 0.99779 -0.31200
H 	H 	0.26440 0.11920 0.00640 0.09800
H 	H 	0.26060 0.15970 0.00690 0.12400
C 	C 	0.06288 0.18958 0.01428 0.14500
C 	C 	0.10486 0.15207 0.99628 0.21100
C 	C 	0.19395 0.15440 0.92690 0.13400
C 	C 	0.23084 0.13691 0.96991 0.20000
Cu	Cu	0.60918 0.67057 0.91514 0.78700
Cu	Cu	0.54683 0.73158 0.94545 0.78300
S 	S 	0.53144 0.71126 0.04268 -0.54900
S 	S 	0.66903 0.68308 0.89885 -0.48200
N 	N 	0.56954 0.69639 0.98003 -0.26800
N 	N 	0.59715 0.67220 0.96844 -0.25000
N 	N 	0.58490 0.66213 0.02615 -0.25100
H 	H 	0.58600 0.65310 0.04780 0.12500
N 	N 	0.63126 0.62535 0.99758 -0.32000
H 	H 	0.64440 0.62090 0.97860 0.12300
H 	H 	0.63460 0.61310 0.01730 0.13600
N 	N 	0.69592 0.61843 0.92559 -0.26600
N 	N 	0.71960 0.60739 0.95339 -0.25200
N 	N 	0.71574 0.66660 0.95413 -0.24700
H 	H 	0.71930 0.68900 0.96020 0.12400
N 	N 	0.75486 0.63883 0.99779 -0.31300
H 	H 	0.76440 0.61920 0.00640 0.09800
H 	H 	0.76060 0.65970 0.00690 0.12400
C 	C 	0.56288 0.68958 0.01428 0.14500
C 	C 	0.60486 0.65207 0.99628 0.21200
C 	C 	0.69395 0.65440 0.92690 0.13400
C 	C 	0.73084 0.63691 0.96991 0.20000
Cu	Cu	0.60918 0.17057 0.41514 0.78700
Cu	Cu	0.54683 0.23158 0.44545 0.78200
S 	S 	0.53144 0.21126 0.54268 -0.54800
S 	S 	0.66903 0.18308 0.39885 -0.48200
N 	N 	0.56954 0.19639 0.48003 -0.27300
N 	N 	0.59715 0.17220 0.46844 -0.25000
N 	N 	0.58490 0.16213 0.52615 -0.24800
H 	H 	0.58600 0.15310 0.54780 0.12600
N 	N 	0.63126 0.12535 0.49758 -0.32600
H 	H 	0.64440 0.12090 0.47860 0.12300
H 	H 	0.63460 0.11310 0.51730 0.14300
N 	N 	0.69592 0.11843 0.42559 -0.26600
N 	N 	0.71960 0.10739 0.45339 -0.25400
N 	N 	0.71574 0.16660 0.45413 -0.24800
H 	H 	0.71930 0.18900 0.46020 0.12200
N 	N 	0.75486 0.13883 0.49779 -0.32700
H 	H 	0.76440 0.11920 0.50640 0.10700
H 	H 	0.76060 0.15970 0.50690 0.13300
C 	C 	0.56288 0.18958 0.51428 0.15200
C 	C 	0.60486 0.15207 0.49628 0.20600
C 	C 	0.69395 0.15440 0.42690 0.13400
C 	C 	0.73084 0.13691 0.46991 0.20000
Cu	Cu	0.89082 0.32943 0.41514 0.78700
Cu	Cu	0.95317 0.26842 0.44545 0.78400
S 	S 	0.96856 0.28874 0.54268 -0.54300
S 	S 	0.83097 0.31692 0.39885 -0.48200
N 	N 	0.93046 0.30361 0.48003 -0.27200
N 	N 	0.90285 0.32780 0.46844 -0.24900
N 	N 	0.91510 0.33787 0.52615 -0.24800
H 	H 	0.91400 0.34690 0.54780 0.12600
N 	N 	0.86874 0.37465 0.49758 -0.32600
H 	H 	0.85560 0.37910 0.47860 0.12300
H 	H 	0.86540 0.38690 0.51730 0.14300
N 	N 	0.80408 0.38157 0.42559 -0.26600
N 	N 	0.78040 0.39261 0.45339 -0.25400
N 	N 	0.78426 0.33340 0.45413 -0.24800
H 	H 	0.78070 0.31100 0.46020 0.12200
N 	N 	0.74514 0.36117 0.49779 -0.32700
H 	H 	0.73560 0.38080 0.50640 0.10700
H 	H 	0.73940 0.34030 0.50690 0.13300
C 	C 	0.93712 0.31042 0.51428 0.15200
C 	C 	0.89514 0.34793 0.49628 0.20700
C 	C 	0.80605 0.34560 0.42690 0.13400
C 	C 	0.76916 0.36309 0.46991 0.20000
Cu	Cu	0.89082 0.82943 0.91514 0.78700
Cu	Cu	0.95317 0.76842 0.94545 0.78400
S 	S 	0.96856 0.78874 0.04268 -0.54400
S 	S 	0.83097 0.81692 0.89885 -0.48200
N 	N 	0.93046 0.80361 0.98003 -0.26800
N 	N 	0.90285 0.82780 0.96844 -0.25000
N 	N 	0.91510 0.83787 0.02615 -0.25100
H 	H 	0.91400 0.84690 0.04780 0.12600
N 	N 	0.86874 0.87465 0.99758 -0.32000
H 	H 	0.85560 0.87910 0.97860 0.12300
H 	H 	0.86540 0.88690 0.01730 0.13700
N 	N 	0.80408 0.88157 0.92559 -0.26600
N 	N 	0.78040 0.89261 0.95339 -0.25200
N 	N 	0.78426 0.83340 0.95413 -0.24700
H 	H 	0.78070 0.81100 0.96020 0.12400
N 	N 	0.74514 0.86117 0.99779 -0.31300
H 	H 	0.73560 0.88080 0.00640 0.09800
H 	H 	0.73940 0.84030 0.00690 0.12400
C 	C 	0.93712 0.81042 0.01428 0.14500
C 	C 	0.89514 0.84793 0.99628 0.21300
C 	C 	0.80605 0.84560 0.92690 0.13400
C 	C 	0.76916 0.86309 0.96991 0.20000
Cu	Cu	0.39082 0.32943 0.91514 0.78700
Cu	Cu	0.45317 0.26842 0.94545 0.78300
S 	S 	0.46856 0.28874 0.04268 -0.54900
S 	S 	0.33097 0.31692 0.89885 -0.48200
N 	N 	0.43046 0.30361 0.98003 -0.26800
N 	N 	0.40285 0.32780 0.96844 -0.25000
N 	N 	0.41510 0.33787 0.02615 -0.25100
H 	H 	0.41400 0.34690 0.04780 0.12600
N 	N 	0.36874 0.37465 0.99758 -0.32000
H 	H 	0.35560 0.37910 0.97860 0.12300
H 	H 	0.36540 0.38690 0.01730 0.13600
N 	N 	0.30408 0.38157 0.92559 -0.26600
N 	N 	0.28040 0.39261 0.95339 -0.25200
N 	N 	0.28426 0.33340 0.95413 -0.24700
H 	H 	0.28070 0.31100 0.96020 0.12400
N 	N 	0.24514 0.36117 0.99779 -0.31200
H 	H 	0.23560 0.38080 0.00640 0.09800
H 	H 	0.23940 0.34030 0.00690 0.12400
C 	C 	0.43712 0.31042 0.01428 0.14500
C 	C 	0.39514 0.34793 0.99628 0.21200
C 	C 	0.30605 0.34560 0.92690 0.13400
C 	C 	0.26916 0.36309 0.96991 0.20000
Cu	Cu	0.39082 0.82943 0.41514 0.78700
Cu	Cu	0.45317 0.76842 0.44545 0.78200
S 	S 	0.46856 0.78874 0.54268 -0.54800
S 	S 	0.33097 0.81692 0.39885 -0.48200
N 	N 	0.43046 0.80361 0.48003 -0.27300
N 	N 	0.40285 0.82780 0.46844 -0.25000
N 	N 	0.41510 0.83787 0.52615 -0.24800
H 	H 	0.41400 0.84690 0.54780 0.12600
N 	N 	0.36874 0.87465 0.49758 -0.32600
H 	H 	0.35560 0.87910 0.47860 0.12300
H 	H 	0.36540 0.88690 0.51730 0.14400
N 	N 	0.30408 0.88157 0.42559 -0.26600
N 	N 	0.28040 0.89261 0.45339 -0.25400
N 	N 	0.28426 0.83340 0.45413 -0.24800
H 	H 	0.28070 0.81100 0.46020 0.12200
N 	N 	0.24514 0.86117 0.49779 -0.32700
H 	H 	0.23560 0.88080 0.50640 0.10700
H 	H 	0.23940 0.84030 0.50690 0.13300
C 	C 	0.43712 0.81042 0.51428 0.15200
C 	C 	0.39514 0.84793 0.49628 0.20700
C 	C 	0.30605 0.84560 0.42690 0.13400
C 	C 	0.26916 0.86309 0.46991 0.20000
Cu	Cu	0.58486 0.89082 0.67057 0.78700
Cu	Cu	0.55455 0.95317 0.73158 0.78400
S 	S 	0.45732 0.96856 0.71126 -0.54300
S 	S 	0.60115 0.83097 0.68308 -0.48200
N 	N 	0.51997 0.93046 0.69639 -0.27200
N 	N 	0.53156 0.90285 0.67220 -0.24900
N 	N 	0.47385 0.91510 0.66213 -0.24800
H 	H 	0.45220 0.91400 0.65310 0.12600
N 	N 	0.50242 0.86874 0.62535 -0.32600
H 	H 	0.52140 0.85560 0.62090 0.12300
H 	H 	0.48270 0.86540 0.61310 0.14300
N 	N 	0.57441 0.80408 0.61843 -0.26600
N 	N 	0.54661 0.78040 0.60739 -0.25400
N 	N 	0.54587 0.78426 0.66660 -0.24800
H 	H 	0.53980 0.78070 0.68900 0.12200
N 	N 	0.50221 0.74514 0.63883 -0.32700
H 	H 	0.49360 0.73560 0.61920 0.10700
H 	H 	0.49310 0.73940 0.65970 0.13300
C 	C 	0.48572 0.93712 0.68958 0.15200
C 	C 	0.50372 0.89514 0.65207 0.20700
C 	C 	0.57310 0.80605 0.65440 0.13400
C 	C 	0.53009 0.76916 0.63691 0.20000
Cu	Cu	0.58486 0.39082 0.17057 0.78700
Cu	Cu	0.55455 0.45317 0.23158 0.78200
S 	S 	0.45732 0.46856 0.21126 -0.54800
S 	S 	0.60115 0.33097 0.18308 -0.48200
N 	N 	0.51997 0.43046 0.19639 -0.27300
N 	N 	0.53156 0.40285 0.17220 -0.25000
N 	N 	0.47385 0.41510 0.16213 -0.24800
H 	H 	0.45220 0.41400 0.15310 0.12600
N 	N 	0.50242 0.36874 0.12535 -0.32600
H 	H 	0.52140 0.35560 0.12090 0.12300
H 	H 	0.48270 0.36540 0.11310 0.14300
N 	N 	0.57441 0.30408 0.11843 -0.26600
N 	N 	0.54661 0.28040 0.10739 -0.25400
N 	N 	0.54587 0.28426 0.16660 -0.24800
H 	H 	0.53980 0.28070 0.18900 0.12200
N 	N 	0.50221 0.24514 0.13883 -0.32700
H 	H 	0.49360 0.23560 0.11920 0.10700
H 	H 	0.49310 0.23940 0.15970 0.13300
C 	C 	0.48572 0.43712 0.18958 0.15200
C 	C 	0.50372 0.39514 0.15207 0.20600
C 	C 	0.57310 0.30605 0.15440 0.13400
C 	C 	0.53009 0.26916 0.13691 0.20000
Cu	Cu	0.08486 0.89082 0.17057 0.78700
Cu	Cu	0.05455 0.95317 0.23158 0.78300
S 	S 	0.95732 0.96856 0.21126 -0.54100
S 	S 	0.10115 0.83097 0.18308 -0.48200
N 	N 	0.01997 0.93046 0.19639 -0.27600
N 	N 	0.03156 0.90285 0.17220 -0.24900
N 	N 	0.97385 0.91510 0.16213 -0.24500
H 	H 	0.95220 0.91400 0.15310 0.12600
N 	N 	0.00242 0.86874 0.12535 -0.33200
H 	H 	0.02140 0.85560 0.12090 0.12400
H 	H 	0.98270 0.86540 0.11310 0.15000
N 	N 	0.07441 0.80408 0.11843 -0.26600
N 	N 	0.04661 0.78040 0.10739 -0.25500
N 	N 	0.04587 0.78426 0.16660 -0.24800
H 	H 	0.03980 0.78070 0.18900 0.12100
N 	N 	0.00221 0.74514 0.13883 -0.34200
H 	H 	0.99360 0.73560 0.11920 0.11600
H 	H 	0.99310 0.73940 0.15970 0.14200
C 	C 	0.98572 0.93712 0.18958 0.15900
C 	C 	0.00372 0.89514 0.15207 0.20100
C 	C 	0.07310 0.80605 0.15440 0.13300
C 	C 	0.03009 0.76916 0.13691 0.20100
Cu	Cu	0.08486 0.39082 0.67057 0.78700
Cu	Cu	0.05455 0.45317 0.73158 0.78200
S 	S 	0.95732 0.46856 0.71126 -0.54600
S 	S 	0.10115 0.33097 0.68308 -0.48200
N 	N 	0.01997 0.43046 0.69639 -0.27700
N 	N 	0.03156 0.40285 0.67220 -0.24900
N 	N 	0.97385 0.41510 0.66213 -0.24600
H 	H 	0.95220 0.41400 0.65310 0.12600
N 	N 	0.00242 0.36874 0.62535 -0.33200
H 	H 	0.02140 0.35560 0.62090 0.12400
H 	H 	0.98270 0.36540 0.61310 0.15000
N 	N 	0.07441 0.30408 0.61843 -0.26600
N 	N 	0.04661 0.28040 0.60739 -0.25500
N 	N 	0.04587 0.28426 0.66660 -0.24800
H 	H 	0.03980 0.28070 0.68900 0.12100
N 	N 	0.00221 0.24514 0.63883 -0.34200
H 	H 	0.99360 0.23560 0.61920 0.11600
H 	H 	0.99310 0.23940 0.65970 0.14200
C 	C 	0.98572 0.43712 0.68958 0.15900
C 	C 	0.00372 0.39514 0.65207 0.20100
C 	C 	0.07310 0.30605 0.65440 0.13300
C 	C 	0.03009 0.26916 0.63691 0.20100
Cu	Cu	0.58486 0.10918 0.32943 0.78700
Cu	Cu	0.55455 0.04683 0.26842 0.78100
S 	S 	0.45732 0.03144 0.28874 -0.55200
S 	S 	0.60115 0.16903 0.31692 -0.48200
N 	N 	0.51997 0.06954 0.30361 -0.27300
N 	N 	0.53156 0.09715 0.32780 -0.25000
N 	N 	0.47385 0.08490 0.33787 -0.24800
H 	H 	0.45220 0.08600 0.34690 0.12500
N 	N 	0.50242 0.13126 0.37465 -0.32600
H 	H 	0.52140 0.14440 0.37910 0.12300
H 	H 	0.48270 0.13460 0.38690 0.14300
N 	N 	0.57441 0.19592 0.38157 -0.26600
N 	N 	0.54661 0.21960 0.39261 -0.25400
N 	N 	0.54587 0.21574 0.33340 -0.24800
H 	H 	0.53980 0.21930 0.31100 0.12200
N 	N 	0.50221 0.25486 0.36117 -0.32700
H 	H 	0.49360 0.26440 0.38080 0.10700
H 	H 	0.49310 0.26060 0.34030 0.13300
C 	C 	0.48572 0.06288 0.31042 0.15200
C 	C 	0.50372 0.10486 0.34793 0.20600
C 	C 	0.57310 0.19395 0.34560 0.13400
C 	C 	0.53009 0.23084 0.36309 0.20000
Cu	Cu	0.58486 0.60918 0.82943 0.78700
Cu	Cu	0.55455 0.54683 0.76842 0.78200
S 	S 	0.45732 0.53144 0.78874 -0.54800
S 	S 	0.60115 0.66903 0.81692 -0.48200
N 	N 	0.51997 0.56954 0.80361 -0.27300
N 	N 	0.53156 0.59715 0.82780 -0.25000
N 	N 	0.47385 0.58490 0.83787 -0.24800
H 	H 	0.45220 0.58600 0.84690 0.12600
N 	N 	0.50242 0.63126 0.87465 -0.32600
H 	H 	0.52140 0.64440 0.87910 0.12300
H 	H 	0.48270 0.63460 0.88690 0.14400
N 	N 	0.57441 0.69592 0.88157 -0.26600
N 	N 	0.54661 0.71960 0.89261 -0.25400
N 	N 	0.54587 0.71574 0.83340 -0.24800
H 	H 	0.53980 0.71930 0.81100 0.12200
N 	N 	0.50221 0.75486 0.86117 -0.32700
H 	H 	0.49360 0.76440 0.88080 0.10700
H 	H 	0.49310 0.76060 0.84030 0.13300
C 	C 	0.48572 0.56288 0.81042 0.15200
C 	C 	0.50372 0.60486 0.84793 0.20700
C 	C 	0.57310 0.69395 0.84560 0.13400
C 	C 	0.53009 0.73084 0.86309 0.20000
Cu	Cu	0.08486 0.10918 0.82943 0.78700
Cu	Cu	0.05455 0.04683 0.76842 0.78100
S 	S 	0.95732 0.03144 0.78874 -0.55000
S 	S 	0.10115 0.16903 0.81692 -0.48200
N 	N 	0.01997 0.06954 0.80361 -0.27700
N 	N 	0.03156 0.09715 0.82780 -0.24900
N 	N 	0.97385 0.08490 0.83787 -0.24600
H 	H 	0.95220 0.08600 0.84690 0.12600
N 	N 	0.00242 0.13126 0.87465 -0.33200
H 	H 	0.02140 0.14440 0.87910 0.12400
H 	H 	0.98270 0.13460 0.88690 0.15000
N 	N 	0.07441 0.19592 0.88157 -0.26600
N 	N 	0.04661 0.21960 0.89261 -0.25500
N 	N 	0.04587 0.21574 0.83340 -0.24800
H 	H 	0.03980 0.21930 0.81100 0.12100
N 	N 	0.00221 0.25486 0.86117 -0.34200
H 	H 	0.99360 0.26440 0.88080 0.11600
H 	H 	0.99310 0.26060 0.84030 0.14200
C 	C 	0.98572 0.06288 0.81042 0.15900
C 	C 	0.00372 0.10486 0.84793 0.20100
C 	C 	0.07310 0.19395 0.84560 0.13300
C 	C 	0.03009 0.23084 0.86309 0.20100
Cu	Cu	0.08486 0.60918 0.32943 0.78700
Cu	Cu	0.05455 0.54683 0.26842 0.78200
S 	S 	0.95732 0.53144 0.28874 -0.54600
S 	S 	0.10115 0.66903 0.31692 -0.48200
N 	N 	0.01997 0.56954 0.30361 -0.27700
N 	N 	0.03156 0.59715 0.32780 -0.24900
N 	N 	0.97385 0.58490 0.33787 -0.24600
H 	H 	0.95220 0.58600 0.34690 0.12600
N 	N 	0.00242 0.63126 0.37465 -0.33200
H 	H 	0.02140 0.64440 0.37910 0.12400
H 	H 	0.98270 0.63460 0.38690 0.15000
N 	N 	0.07441 0.69592 0.38157 -0.26600
N 	N 	0.04661 0.71960 0.39261 -0.25500
N 	N 	0.04587 0.71574 0.33340 -0.24800
H 	H 	0.03980 0.71930 0.31100 0.12100
N 	N 	0.00221 0.75486 0.36117 -0.34200
H 	H 	0.99360 0.76440 0.38080 0.11600
H 	H 	0.99310 0.76060 0.34030 0.14200
C 	C 	0.98572 0.56288 0.31042 0.15900
C 	C 	0.00372 0.60486 0.34793 0.20100
C 	C 	0.07310 0.69395 0.34560 0.13300
C 	C 	0.03009 0.73084 0.36309 0.20100
Cu	Cu	0.41514 0.10918 0.67057 0.78700
Cu	Cu	0.44545 0.04683 0.73158 0.78100
S 	S 	0.54268 0.03144 0.71126 -0.55200
S 	S 	0.39885 0.16903 0.68308 -0.48200
N 	N 	0.48003 0.06954 0.69639 -0.27300
N 	N 	0.46844 0.09715 0.67220 -0.25000
N 	N 	0.52615 0.08490 0.66213 -0.24800
H 	H 	0.54780 0.08600 0.65310 0.12500
N 	N 	0.49758 0.13126 0.62535 -0.32600
H 	H 	0.47860 0.14440 0.62090 0.12300
H 	H 	0.51730 0.13460 0.61310 0.14300
N 	N 	0.42559 0.19592 0.61843 -0.26600
N 	N 	0.45339 0.21960 0.60739 -0.25400
N 	N 	0.45413 0.21574 0.66660 -0.24800
H 	H 	0.46020 0.21930 0.68900 0.12200
N 	N 	0.49779 0.25486 0.63883 -0.32700
H 	H 	0.50640 0.26440 0.61920 0.10700
H 	H 	0.50690 0.26060 0.65970 0.13300
C 	C 	0.51428 0.06288 0.68958 0.15200
C 	C 	0.49628 0.10486 0.65207 0.20600
C 	C 	0.42690 0.19395 0.65440 0.13400
C 	C 	0.46991 0.23084 0.63691 0.20000
Cu	Cu	0.41514 0.60918 0.17057 0.78700
Cu	Cu	0.44545 0.54683 0.23158 0.78200
S 	S 	0.54268 0.53144 0.21126 -0.54800
S 	S 	0.39885 0.66903 0.18308 -0.48200
N 	N 	0.48003 0.56954 0.19639 -0.27300
N 	N 	0.46844 0.59715 0.17220 -0.25000
N 	N 	0.52615 0.58490 0.16213 -0.24800
H 	H 	0.54780 0.58600 0.15310 0.12600
N 	N 	0.49758 0.63126 0.12535 -0.32600
H 	H 	0.47860 0.64440 0.12090 0.12300
H 	H 	0.51730 0.63460 0.11310 0.14300
N 	N 	0.42559 0.69592 0.11843 -0.26600
N 	N 	0.45339 0.71960 0.10739 -0.25400
N 	N 	0.45413 0.71574 0.16660 -0.24800
H 	H 	0.46020 0.71930 0.18900 0.12200
N 	N 	0.49779 0.75486 0.13883 -0.32700
H 	H 	0.50640 0.76440 0.11920 0.10700
H 	H 	0.50690 0.76060 0.15970 0.13300
C 	C 	0.51428 0.56288 0.18958 0.15200
C 	C 	0.49628 0.60486 0.15207 0.20600
C 	C 	0.42690 0.69395 0.15440 0.13400
C 	C 	0.46991 0.73084 0.13691 0.20000
Cu	Cu	0.91514 0.10918 0.17057 0.78700
Cu	Cu	0.94545 0.04683 0.23158 0.78200
S 	S 	0.04268 0.03144 0.21126 -0.55300
S 	S 	0.89885 0.16903 0.18308 -0.48200
N 	N 	0.98003 0.06954 0.19639 -0.26900
N 	N 	0.96844 0.09715 0.17220 -0.25000
N 	N 	0.02615 0.08490 0.16213 -0.25100
H 	H 	0.04780 0.08600 0.15310 0.12500
N 	N 	0.99758 0.13126 0.12535 -0.32000
H 	H 	0.97860 0.14440 0.12090 0.12200
H 	H 	0.01730 0.13460 0.11310 0.13600
N 	N 	0.92559 0.19592 0.11843 -0.26600
N 	N 	0.95339 0.21960 0.10739 -0.25200
N 	N 	0.95413 0.21574 0.16660 -0.24700
H 	H 	0.96020 0.21930 0.18900 0.12400
N 	N 	0.99779 0.25486 0.13883 -0.31200
H 	H 	0.00640 0.26440 0.11920 0.09800
H 	H 	0.00690 0.26060 0.15970 0.12400
C 	C 	0.01428 0.06288 0.18958 0.14500
C 	C 	0.99628 0.10486 0.15207 0.21100
C 	C 	0.92690 0.19395 0.15440 0.13400
C 	C 	0.96991 0.23084 0.13691 0.20000
Cu	Cu	0.91514 0.60918 0.67057 0.78700
Cu	Cu	0.94545 0.54683 0.73158 0.78300
S 	S 	0.04268 0.53144 0.71126 -0.54900
S 	S 	0.89885 0.66903 0.68308 -0.48200
N 	N 	0.98003 0.56954 0.69639 -0.26800
N 	N 	0.96844 0.59715 0.67220 -0.25000
N 	N 	0.02615 0.58490 0.66213 -0.25100
H 	H 	0.04780 0.58600 0.65310 0.12500
N 	N 	0.99758 0.63126 0.62535 -0.32000
H 	H 	0.97860 0.64440 0.62090 0.12300
H 	H 	0.01730 0.63460 0.61310 0.13600
N 	N 	0.92559 0.69592 0.61843 -0.26600
N 	N 	0.95339 0.71960 0.60739 -0.25200
N 	N 	0.95413 0.71574 0.66660 -0.24700
H 	H 	0.96020 0.71930 0.68900 0.12400
N 	N 	0.99779 0.75486 0.63883 -0.31300
H 	H 	0.00640 0.76440 0.61920 0.09800
H 	H 	0.00690 0.76060 0.65970 0.12400
C 	C 	0.01428 0.56288 0.68958 0.14500
C 	C 	0.99628 0.60486 0.65207 0.21200
C 	C 	0.92690 0.69395 0.65440 0.13400
C 	C 	0.96991 0.73084 0.63691 0.20000
Cu	Cu	0.41514 0.89082 0.32943 0.78700
Cu	Cu	0.44545 0.95317 0.26842 0.78400
S 	S 	0.54268 0.96856 0.28874 -0.54300
S 	S 	0.39885 0.83097 0.31692 -0.48200
N 	N 	0.48003 0.93046 0.30361 -0.27200
N 	N 	0.46844 0.90285 0.32780 -0.24900
N 	N 	0.52615 0.91510 0.33787 -0.24800
H 	H 	0.54780 0.91400 0.34690 0.12600
N 	N 	0.49758 0.86874 0.37465 -0.32600
H 	H 	0.47860 0.85560 0.37910 0.12300
H 	H 	0.51730 0.86540 0.38690 0.14300
N 	N 	0.42559 0.80408 0.38157 -0.26600
N 	N 	0.45339 0.78040 0.39261 -0.25400
N 	N 	0.45413 0.78426 0.33340 -0.24800
H 	H 	0.46020 0.78070 0.31100 0.12200
N 	N 	0.49779 0.74514 0.36117 -0.32700
H 	H 	0.50640 0.73560 0.38080 0.10700
H 	H 	0.50690 0.73940 0.34030 0.13300
C 	C 	0.51428 0.93712 0.31042 0.15200
C 	C 	0.49628 0.89514 0.34793 0.20700
C 	C 	0.42690 0.80605 0.34560 0.13400
C 	C 	0.46991 0.76916 0.36309 0.20000
Cu	Cu	0.41514 0.39082 0.82943 0.78700
Cu	Cu	0.44545 0.45317 0.76842 0.78200
S 	S 	0.54268 0.46856 0.78874 -0.54800
S 	S 	0.39885 0.33097 0.81692 -0.48200
N 	N 	0.48003 0.43046 0.80361 -0.27300
N 	N 	0.46844 0.40285 0.82780 -0.25000
N 	N 	0.52615 0.41510 0.83787 -0.24800
H 	H 	0.54780 0.41400 0.84690 0.12600
N 	N 	0.49758 0.36874 0.87465 -0.32600
H 	H 	0.47860 0.35560 0.87910 0.12300
H 	H 	0.51730 0.36540 0.88690 0.14400
N 	N 	0.42559 0.30408 0.88157 -0.26600
N 	N 	0.45339 0.28040 0.89261 -0.25400
N 	N 	0.45413 0.28426 0.83340 -0.24800
H 	H 	0.46020 0.28070 0.81100 0.12200
N 	N 	0.49779 0.24514 0.86117 -0.32700
H 	H 	0.50640 0.23560 0.88080 0.10700
H 	H 	0.50690 0.23940 0.84030 0.13300
C 	C 	0.51428 0.43712 0.81042 0.15200
C 	C 	0.49628 0.39514 0.84793 0.20700
C 	C 	0.42690 0.30605 0.84560 0.13400
C 	C 	0.46991 0.26916 0.86309 0.20000
Cu	Cu	0.91514 0.89082 0.82943 0.78700
Cu	Cu	0.94545 0.95317 0.76842 0.78400
S 	S 	0.04268 0.96856 0.78874 -0.54400
S 	S 	0.89885 0.83097 0.81692 -0.48200
N 	N 	0.98003 0.93046 0.80361 -0.26800
N 	N 	0.96844 0.90285 0.82780 -0.25000
N 	N 	0.02615 0.91510 0.83787 -0.25100
H 	H 	0.04780 0.91400 0.84690 0.12600
N 	N 	0.99758 0.86874 0.87465 -0.32000
H 	H 	0.97860 0.85560 0.87910 0.12300
H 	H 	0.01730 0.86540 0.88690 0.13700
N 	N 	0.92559 0.80408 0.88157 -0.26600
N 	N 	0.95339 0.78040 0.89261 -0.25200
N 	N 	0.95413 0.78426 0.83340 -0.24700
H 	H 	0.96020 0.78070 0.81100 0.12400
N 	N 	0.99779 0.74514 0.86117 -0.31300
H 	H 	0.00640 0.73560 0.88080 0.09800
H 	H 	0.00690 0.73940 0.84030 0.12400
C 	C 	0.01428 0.93712 0.81042 0.14500
C 	C 	0.99628 0.89514 0.84793 0.21300
C 	C 	0.92690 0.80605 0.84560 0.13400
C 	C 	0.96991 0.76916 0.86309 0.20000
Cu	Cu	0.91514 0.39082 0.32943 0.78700
Cu	Cu	0.94545 0.45317 0.26842 0.78300
S 	S 	0.04268 0.46856 0.28874 -0.54900
S 	S 	0.89885 0.33097 0.31692 -0.48200
N 	N 	0.98003 0.43046 0.30361 -0.26800
N 	N 	0.96844 0.40285 0.32780 -0.25000
N 	N 	0.02615 0.41510 0.33787 -0.25100
H 	H 	0.04780 0.41400 0.34690 0.12600
N 	N 	0.99758 0.36874 0.37465 -0.32000
H 	H 	0.97860 0.35560 0.37910 0.12300
H 	H 	0.01730 0.36540 0.38690 0.13600
N 	N 	0.92559 0.30408 0.38157 -0.26600
N 	N 	0.95339 0.28040 0.39261 -0.25200
N 	N 	0.95413 0.28426 0.33340 -0.24700
H 	H 	0.96020 0.28070 0.31100 0.12400
N 	N 	0.99779 0.24514 0.36117 -0.31200
H 	H 	0.00640 0.23560 0.38080 0.09800
H 	H 	0.00690 0.23940 0.34030 0.12400
C 	C 	0.01428 0.43712 0.31042 0.14500
C 	C 	0.99628 0.39514 0.34793 0.21200
C 	C 	0.92690 0.30605 0.34560 0.13400
C 	C 	0.96991 0.26916 0.36309 0.20000
Cu	Cu	0.67057 0.58486 0.89082 0.78700
Cu	Cu	0.73158 0.55455 0.95317 0.78400
S 	S 	0.71126 0.45732 0.96856 -0.54300
S 	S 	0.68308 0.60115 0.83097 -0.48200
N 	N 	0.69639 0.51997 0.93046 -0.27200
N 	N 	0.67220 0.53156 0.90285 -0.24900
N 	N 	0.66213 0.47385 0.91510 -0.24800
H 	H 	0.65310 0.45220 0.91400 0.12600
N 	N 	0.62535 0.50242 0.86874 -0.32600
H 	H 	0.62090 0.52140 0.85560 0.12300
H 	H 	0.61310 0.48270 0.86540 0.14300
N 	N 	0.61843 0.57441 0.80408 -0.26600
N 	N 	0.60739 0.54661 0.78040 -0.25400
N 	N 	0.66660 0.54587 0.78426 -0.24800
H 	H 	0.68900 0.53980 0.78070 0.12200
N 	N 	0.63883 0.50221 0.74514 -0.32700
H 	H 	0.61920 0.49360 0.73560 0.10700
H 	H 	0.65970 0.49310 0.73940 0.13300
C 	C 	0.68958 0.48572 0.93712 0.15200
C 	C 	0.65207 0.50372 0.89514 0.20700
C 	C 	0.65440 0.57310 0.80605 0.13400
C 	C 	0.63691 0.53009 0.76916 0.20000
Cu	Cu	0.67057 0.08486 0.39082 0.78700
Cu	Cu	0.73158 0.05455 0.45317 0.78200
S 	S 	0.71126 0.95732 0.46856 -0.54600
S 	S 	0.68308 0.10115 0.33097 -0.48200
N 	N 	0.69639 0.01997 0.43046 -0.27700
N 	N 	0.67220 0.03156 0.40285 -0.24900
N 	N 	0.66213 0.97385 0.41510 -0.24600
H 	H 	0.65310 0.95220 0.41400 0.12600
N 	N 	0.62535 0.00242 0.36874 -0.33200
H 	H 	0.62090 0.02140 0.35560 0.12400
H 	H 	0.61310 0.98270 0.36540 0.15000
N 	N 	0.61843 0.07441 0.30408 -0.26600
N 	N 	0.60739 0.04661 0.28040 -0.25500
N 	N 	0.66660 0.04587 0.28426 -0.24800
H 	H 	0.68900 0.03980 0.28070 0.12100
N 	N 	0.63883 0.00221 0.24514 -0.34200
H 	H 	0.61920 0.99360 0.23560 0.11600
H 	H 	0.65970 0.99310 0.23940 0.14200
C 	C 	0.68958 0.98572 0.43712 0.15900
C 	C 	0.65207 0.00372 0.39514 0.20100
C 	C 	0.65440 0.07310 0.30605 0.13300
C 	C 	0.63691 0.03009 0.26916 0.20100
Cu	Cu	0.17057 0.58486 0.39082 0.78700
Cu	Cu	0.23158 0.55455 0.45317 0.78200
S 	S 	0.21126 0.45732 0.46856 -0.54800
S 	S 	0.18308 0.60115 0.33097 -0.48200
N 	N 	0.19639 0.51997 0.43046 -0.27300
N 	N 	0.17220 0.53156 0.40285 -0.25000
N 	N 	0.16213 0.47385 0.41510 -0.24800
H 	H 	0.15310 0.45220 0.41400 0.12600
N 	N 	0.12535 0.50242 0.36874 -0.32600
H 	H 	0.12090 0.52140 0.35560 0.12300
H 	H 	0.11310 0.48270 0.36540 0.14300
N 	N 	0.11843 0.57441 0.30408 -0.26600
N 	N 	0.10739 0.54661 0.28040 -0.25400
N 	N 	0.16660 0.54587 0.28426 -0.24800
H 	H 	0.18900 0.53980 0.28070 0.12200
N 	N 	0.13883 0.50221 0.24514 -0.32700
H 	H 	0.11920 0.49360 0.23560 0.10700
H 	H 	0.15970 0.49310 0.23940 0.13300
C 	C 	0.18958 0.48572 0.43712 0.15200
C 	C 	0.15207 0.50372 0.39514 0.20600
C 	C 	0.15440 0.57310 0.30605 0.13400
C 	C 	0.13691 0.53009 0.26916 0.20000
Cu	Cu	0.17057 0.08486 0.89082 0.78700
Cu	Cu	0.23158 0.05455 0.95317 0.78300
S 	S 	0.21126 0.95732 0.96856 -0.54100
S 	S 	0.18308 0.10115 0.83097 -0.48200
N 	N 	0.19639 0.01997 0.93046 -0.27600
N 	N 	0.17220 0.03156 0.90285 -0.24900
N 	N 	0.16213 0.97385 0.91510 -0.24500
H 	H 	0.15310 0.95220 0.91400 0.12600
N 	N 	0.12535 0.00242 0.86874 -0.33200
H 	H 	0.12090 0.02140 0.85560 0.12400
H 	H 	0.11310 0.98270 0.86540 0.15000
N 	N 	0.11843 0.07441 0.80408 -0.26600
N 	N 	0.10739 0.04661 0.78040 -0.25500
N 	N 	0.16660 0.04587 0.78426 -0.24800
H 	H 	0.18900 0.03980 0.78070 0.12100
N 	N 	0.13883 0.00221 0.74514 -0.34200
H 	H 	0.11920 0.99360 0.73560 0.11600
H 	H 	0.15970 0.99310 0.73940 0.14200
C 	C 	0.18958 0.98572 0.93712 0.15900
C 	C 	0.15207 0.00372 0.89514 0.20100
C 	C 	0.15440 0.07310 0.80605 0.13300
C 	C 	0.13691 0.03009 0.76916 0.20100
Cu	Cu	0.32943 0.58486 0.10918 0.78700
Cu	Cu	0.26842 0.55455 0.04683 0.78100
S 	S 	0.28874 0.45732 0.03144 -0.55200
S 	S 	0.31692 0.60115 0.16903 -0.48200
N 	N 	0.30361 0.51997 0.06954 -0.27300
N 	N 	0.32780 0.53156 0.09715 -0.25000
N 	N 	0.33787 0.47385 0.08490 -0.24800
H 	H 	0.34690 0.45220 0.08600 0.12500
N 	N 	0.37465 0.50242 0.13126 -0.32600
H 	H 	0.37910 0.52140 0.14440 0.12300
H 	H 	0.38690 0.48270 0.13460 0.14300
N 	N 	0.38157 0.57441 0.19592 -0.26600
N 	N 	0.39261 0.54661 0.21960 -0.25400
N 	N 	0.33340 0.54587 0.21574 -0.24800
H 	H 	0.31100 0.53980 0.21930 0.12200
N 	N 	0.36117 0.50221 0.25486 -0.32700
H 	H 	0.38080 0.49360 0.26440 0.10700
H 	H 	0.34030 0.49310 0.26060 0.13300
C 	C 	0.31042 0.48572 0.06288 0.15200
C 	C 	0.34793 0.50372 0.10486 0.20600
C 	C 	0.34560 0.57310 0.19395 0.13400
C 	C 	0.36309 0.53009 0.23084 0.20000
Cu	Cu	0.32943 0.08486 0.60918 0.78700
Cu	Cu	0.26842 0.05455 0.54683 0.78200
S 	S 	0.28874 0.95732 0.53144 -0.54600
S 	S 	0.31692 0.10115 0.66903 -0.48200
N 	N 	0.30361 0.01997 0.56954 -0.27700
N 	N 	0.32780 0.03156 0.59715 -0.24900
N 	N 	0.33787 0.97385 0.58490 -0.24600
H 	H 	0.34690 0.95220 0.58600 0.12600
N 	N 	0.37465 0.00242 0.63126 -0.33200
H 	H 	0.37910 0.02140 0.64440 0.12400
H 	H 	0.38690 0.98270 0.63460 0.15000
N 	N 	0.38157 0.07441 0.69592 -0.26600
N 	N 	0.39261 0.04661 0.71960 -0.25500
N 	N 	0.33340 0.04587 0.71574 -0.24800
H 	H 	0.31100 0.03980 0.71930 0.12100
N 	N 	0.36117 0.00221 0.75486 -0.34200
H 	H 	0.38080 0.99360 0.76440 0.11600
H 	H 	0.34030 0.99310 0.76060 0.14200
C 	C 	0.31042 0.98572 0.56288 0.15900
C 	C 	0.34793 0.00372 0.60486 0.20100
C 	C 	0.34560 0.07310 0.69395 0.13300
C 	C 	0.36309 0.03009 0.73084 0.20100
Cu	Cu	0.82943 0.58486 0.60918 0.78700
Cu	Cu	0.76842 0.55455 0.54683 0.78200
S 	S 	0.78874 0.45732 0.53144 -0.54800
S 	S 	0.81692 0.60115 0.66903 -0.48200
N 	N 	0.80361 0.51997 0.56954 -0.27300
N 	N 	0.82780 0.53156 0.59715 -0.25000
N 	N 	0.83787 0.47385 0.58490 -0.24800
H 	H 	0.84690 0.45220 0.58600 0.12600
N 	N 	0.87465 0.50242 0.63126 -0.32600
H 	H 	0.87910 0.52140 0.64440 0.12300
H 	H 	0.88690 0.48270 0.63460 0.14400
N 	N 	0.88157 0.57441 0.69592 -0.26600
N 	N 	0.89261 0.54661 0.71960 -0.25400
N 	N 	0.83340 0.54587 0.71574 -0.24800
H 	H 	0.81100 0.53980 0.71930 0.12200
N 	N 	0.86117 0.50221 0.75486 -0.32700
H 	H 	0.88080 0.49360 0.76440 0.10700
H 	H 	0.84030 0.49310 0.76060 0.13300
C 	C 	0.81042 0.48572 0.56288 0.15200
C 	C 	0.84793 0.50372 0.60486 0.20700
C 	C 	0.84560 0.57310 0.69395 0.13400
C 	C 	0.86309 0.53009 0.73084 0.20000
Cu	Cu	0.82943 0.08486 0.10918 0.78700
Cu	Cu	0.76842 0.05455 0.04683 0.78100
S 	S 	0.78874 0.95732 0.03144 -0.55000
S 	S 	0.81692 0.10115 0.16903 -0.48200
N 	N 	0.80361 0.01997 0.06954 -0.27700
N 	N 	0.82780 0.03156 0.09715 -0.24900
N 	N 	0.83787 0.97385 0.08490 -0.24600
H 	H 	0.84690 0.95220 0.08600 0.12600
N 	N 	0.87465 0.00242 0.13126 -0.33200
H 	H 	0.87910 0.02140 0.14440 0.12400
H 	H 	0.88690 0.98270 0.13460 0.15000
N 	N 	0.88157 0.07441 0.19592 -0.26600
N 	N 	0.89261 0.04661 0.21960 -0.25500
N 	N 	0.83340 0.04587 0.21574 -0.24800
H 	H 	0.81100 0.03980 0.21930 0.12100
N 	N 	0.86117 0.00221 0.25486 -0.34200
H 	H 	0.88080 0.99360 0.26440 0.11600
H 	H 	0.84030 0.99310 0.26060 0.14200
C 	C 	0.81042 0.98572 0.06288 0.15900
C 	C 	0.84793 0.00372 0.10486 0.20100
C 	C 	0.84560 0.07310 0.19395 0.13300
C 	C 	0.86309 0.03009 0.23084 0.20100
Cu	Cu	0.67057 0.41514 0.10918 0.78700
Cu	Cu	0.73158 0.44545 0.04683 0.78100
S 	S 	0.71126 0.54268 0.03144 -0.55200
S 	S 	0.68308 0.39885 0.16903 -0.48200
N 	N 	0.69639 0.48003 0.06954 -0.27300
N 	N 	0.67220 0.46844 0.09715 -0.25000
N 	N 	0.66213 0.52615 0.08490 -0.24800
H 	H 	0.65310 0.54780 0.08600 0.12500
N 	N 	0.62535 0.49758 0.13126 -0.32600
H 	H 	0.62090 0.47860 0.14440 0.12300
H 	H 	0.61310 0.51730 0.13460 0.14300
N 	N 	0.61843 0.42559 0.19592 -0.26600
N 	N 	0.60739 0.45339 0.21960 -0.25400
N 	N 	0.66660 0.45413 0.21574 -0.24800
H 	H 	0.68900 0.46020 0.21930 0.12200
N 	N 	0.63883 0.49779 0.25486 -0.32700
H 	H 	0.61920 0.50640 0.26440 0.10700
H 	H 	0.65970 0.50690 0.26060 0.13300
C 	C 	0.68958 0.51428 0.06288 0.15200
C 	C 	0.65207 0.49628 0.10486 0.20600
C 	C 	0.65440 0.42690 0.19395 0.13400
C 	C 	0.63691 0.46991 0.23084 0.20000
Cu	Cu	0.67057 0.91514 0.60918 0.78700
Cu	Cu	0.73158 0.94545 0.54683 0.78300
S 	S 	0.71126 0.04268 0.53144 -0.54900
S 	S 	0.68308 0.89885 0.66903 -0.48200
N 	N 	0.69639 0.98003 0.56954 -0.26800
N 	N 	0.67220 0.96844 0.59715 -0.25000
N 	N 	0.66213 0.02615 0.58490 -0.25100
H 	H 	0.65310 0.04780 0.58600 0.12500
N 	N 	0.62535 0.99758 0.63126 -0.32000
H 	H 	0.62090 0.97860 0.64440 0.12300
H 	H 	0.61310 0.01730 0.63460 0.13600
N 	N 	0.61843 0.92559 0.69592 -0.26600
N 	N 	0.60739 0.95339 0.71960 -0.25200
N 	N 	0.66660 0.95413 0.71574 -0.24700
H 	H 	0.68900 0.96020 0.71930 0.12400
N 	N 	0.63883 0.99779 0.75486 -0.31300
H 	H 	0.61920 0.00640 0.76440 0.09800
H 	H 	0.65970 0.00690 0.76060 0.12400
C 	C 	0.68958 0.01428 0.56288 0.14500
C 	C 	0.65207 0.99628 0.60486 0.21200
C 	C 	0.65440 0.92690 0.69395 0.13400
C 	C 	0.63691 0.96991 0.73084 0.20000
Cu	Cu	0.17057 0.41514 0.60918 0.78700
Cu	Cu	0.23158 0.44545 0.54683 0.78200
S 	S 	0.21126 0.54268 0.53144 -0.54800
S 	S 	0.18308 0.39885 0.66903 -0.48200
N 	N 	0.19639 0.48003 0.56954 -0.27300
N 	N 	0.17220 0.46844 0.59715 -0.25000
N 	N 	0.16213 0.52615 0.58490 -0.24800
H 	H 	0.15310 0.54780 0.58600 0.12600
N 	N 	0.12535 0.49758 0.63126 -0.32600
H 	H 	0.12090 0.47860 0.64440 0.12300
H 	H 	0.11310 0.51730 0.63460 0.14300
N 	N 	0.11843 0.42559 0.69592 -0.26600
N 	N 	0.10739 0.45339 0.71960 -0.25400
N 	N 	0.16660 0.45413 0.71574 -0.24800
H 	H 	0.18900 0.46020 0.71930 0.12200
N 	N 	0.13883 0.49779 0.75486 -0.32700
H 	H 	0.11920 0.50640 0.76440 0.10700
H 	H 	0.15970 0.50690 0.76060 0.13300
C 	C 	0.18958 0.51428 0.56288 0.15200
C 	C 	0.15207 0.49628 0.60486 0.20600
C 	C 	0.15440 0.42690 0.69395 0.13400
C 	C 	0.13691 0.46991 0.73084 0.20000
Cu	Cu	0.17057 0.91514 0.10918 0.78700
Cu	Cu	0.23158 0.94545 0.04683 0.78200
S 	S 	0.21126 0.04268 0.03144 -0.55300
S 	S 	0.18308 0.89885 0.16903 -0.48200
N 	N 	0.19639 0.98003 0.06954 -0.26900
N 	N 	0.17220 0.96844 0.09715 -0.25000
N 	N 	0.16213 0.02615 0.08490 -0.25100
H 	H 	0.15310 0.04780 0.08600 0.12500
N 	N 	0.12535 0.99758 0.13126 -0.32000
H 	H 	0.12090 0.97860 0.14440 0.12200
H 	H 	0.11310 0.01730 0.13460 0.13600
N 	N 	0.11843 0.92559 0.19592 -0.26600
N 	N 	0.10739 0.95339 0.21960 -0.25200
N 	N 	0.16660 0.95413 0.21574 -0.24700
H 	H 	0.18900 0.96020 0.21930 0.12400
N 	N 	0.13883 0.99779 0.25486 -0.31200
H 	H 	0.11920 0.00640 0.26440 0.09800
H 	H 	0.15970 0.00690 0.26060 0.12400
C 	C 	0.18958 0.01428 0.06288 0.14500
C 	C 	0.15207 0.99628 0.10486 0.21100
C 	C 	0.15440 0.92690 0.19395 0.13400
C 	C 	0.13691 0.96991 0.23084 0.20000
Cu	Cu	0.32943 0.41514 0.89082 0.78700
Cu	Cu	0.26842 0.44545 0.95317 0.78400
S 	S 	0.28874 0.54268 0.96856 -0.54300
S 	S 	0.31692 0.39885 0.83097 -0.48200
N 	N 	0.30361 0.48003 0.93046 -0.27200
N 	N 	0.32780 0.46844 0.90285 -0.24900
N 	N 	0.33787 0.52615 0.91510 -0.24800
H 	H 	0.34690 0.54780 0.91400 0.12600
N 	N 	0.37465 0.49758 0.86874 -0.32600
H 	H 	0.37910 0.47860 0.85560 0.12300
H 	H 	0.38690 0.51730 0.86540 0.14300
N 	N 	0.38157 0.42559 0.80408 -0.26600
N 	N 	0.39261 0.45339 0.78040 -0.25400
N 	N 	0.33340 0.45413 0.78426 -0.24800
H 	H 	0.31100 0.46020 0.78070 0.12200
N 	N 	0.36117 0.49779 0.74514 -0.32700
H 	H 	0.38080 0.50640 0.73560 0.10700
H 	H 	0.34030 0.50690 0.73940 0.13300
C 	C 	0.31042 0.51428 0.93712 0.15200
C 	C 	0.34793 0.49628 0.89514 0.20700
C 	C 	0.34560 0.42690 0.80605 0.13400
C 	C 	0.36309 0.46991 0.76916 0.20000
Cu	Cu	0.32943 0.91514 0.39082 0.78700
Cu	Cu	0.26842 0.94545 0.45317 0.78300
S 	S 	0.28874 0.04268 0.46856 -0.54900
S 	S 	0.31692 0.89885 0.33097 -0.48200
N 	N 	0.30361 0.98003 0.43046 -0.26800
N 	N 	0.32780 0.96844 0.40285 -0.25000
N 	N 	0.33787 0.02615 0.41510 -0.25100
H 	H 	0.34690 0.04780 0.41400 0.12600
N 	N 	0.37465 0.99758 0.36874 -0.32000
H 	H 	0.37910 0.97860 0.35560 0.12300
H 	H 	0.38690 0.01730 0.36540 0.13600
N 	N 	0.38157 0.92559 0.30408 -0.26600
N 	N 	0.39261 0.95339 0.28040 -0.25200
N 	N 	0.33340 0.95413 0.28426 -0.24700
H 	H 	0.31100 0.96020 0.28070 0.12400
N 	N 	0.36117 0.99779 0.24514 -0.31200
H 	H 	0.38080 0.00640 0.23560 0.09800
H 	H 	0.34030 0.00690 0.23940 0.12400
C 	C 	0.31042 0.01428 0.43712 0.14500
C 	C 	0.34793 0.99628 0.39514 0.21200
C 	C 	0.34560 0.92690 0.30605 0.13400
C 	C 	0.36309 0.96991 0.26916 0.20000
Cu	Cu	0.82943 0.41514 0.39082 0.78700
Cu	Cu	0.76842 0.44545 0.45317 0.78200
S 	S 	0.78874 0.54268 0.46856 -0.54800
S 	S 	0.81692 0.39885 0.33097 -0.48200
N 	N 	0.80361 0.48003 0.43046 -0.27300
N 	N 	0.82780 0.46844 0.40285 -0.25000
N 	N 	0.83787 0.52615 0.41510 -0.24800
H 	H 	0.84690 0.54780 0.41400 0.12600
N 	N 	0.87465 0.49758 0.36874 -0.32600
H 	H 	0.87910 0.47860 0.35560 0.12300
H 	H 	0.88690 0.51730 0.36540 0.14400
N 	N 	0.88157 0.42559 0.30408 -0.26600
N 	N 	0.89261 0.45339 0.28040 -0.25400
N 	N 	0.83340 0.45413 0.28426 -0.24800
H 	H 	0.81100 0.46020 0.28070 0.12200
N 	N 	0.86117 0.49779 0.24514 -0.32700
H 	H 	0.88080 0.50640 0.23560 0.10700
H 	H 	0.84030 0.50690 0.23940 0.13300
C 	C 	0.81042 0.51428 0.43712 0.15200
C 	C 	0.84793 0.49628 0.39514 0.20700
C 	C 	0.84560 0.42690 0.30605 0.13400
C 	C 	0.86309 0.46991 0.26916 0.20000
Cu	Cu	0.82943 0.91514 0.89082 0.78700
Cu	Cu	0.76842 0.94545 0.95317 0.78400
S 	S 	0.78874 0.04268 0.96856 -0.54400
S 	S 	0.81692 0.89885 0.83097 -0.48200
N 	N 	0.80361 0.98003 0.93046 -0.26800
N 	N 	0.82780 0.96844 0.90285 -0.25000
N 	N 	0.83787 0.02615 0.91510 -0.25100
H 	H 	0.84690 0.04780 0.91400 0.12600
N 	N 	0.87465 0.99758 0.86874 -0.32000
H 	H 	0.87910 0.97860 0.85560 0.12300
H 	H 	0.88690 0.01730 0.86540 0.13700
N 	N 	0.88157 0.92559 0.80408 -0.26600
N 	N 	0.89261 0.95339 0.78040 -0.25200
N 	N 	0.83340 0.95413 0.78426 -0.24700
H 	H 	0.81100 0.96020 0.78070 0.12400
N 	N 	0.86117 0.99779 0.74514 -0.31300
H 	H 	0.88080 0.00640 0.73560 0.09800
H 	H 	0.84030 0.00690 0.73940 0.12400
C 	C 	0.81042 0.01428 0.93712 0.14500
C 	C 	0.84793 0.99628 0.89514 0.21300
C 	C 	0.84560 0.92690 0.80605 0.13400
C 	C 	0.86309 0.96991 0.76916 0.20000
Cu	Cu	0.17057 0.39082 0.08486 0.78700
Cu	Cu	0.23158 0.45317 0.05455 0.78200
S 	S 	0.21126 0.46856 0.95732 -0.54600
S 	S 	0.18308 0.33097 0.10115 -0.48200
N 	N 	0.19639 0.43046 0.01997 -0.27700
N 	N 	0.17220 0.40285 0.03156 -0.24900
N 	N 	0.16213 0.41510 0.97385 -0.24500
H 	H 	0.15310 0.41400 0.95220 0.12600
N 	N 	0.12535 0.36874 0.00242 -0.33200
H 	H 	0.12090 0.35560 0.02140 0.12300
H 	H 	0.11310 0.36540 0.98270 0.15000
N 	N 	0.11843 0.30408 0.07441 -0.26600
N 	N 	0.10739 0.28040 0.04661 -0.25500
N 	N 	0.16660 0.28426 0.04587 -0.24800
H 	H 	0.18900 0.28070 0.03980 0.12100
N 	N 	0.13883 0.24514 0.00221 -0.34200
H 	H 	0.11920 0.23560 0.99360 0.11600
H 	H 	0.15970 0.23940 0.99310 0.14200
C 	C 	0.18958 0.43712 0.98572 0.15900
C 	C 	0.15207 0.39514 0.00372 0.20000
C 	C 	0.15440 0.30605 0.07310 0.13300
C 	C 	0.13691 0.26916 0.03009 0.20100
Cu	Cu	0.17057 0.89082 0.58486 0.78700
Cu	Cu	0.23158 0.95317 0.55455 0.78400
S 	S 	0.21126 0.96856 0.45732 -0.54300
S 	S 	0.18308 0.83097 0.60115 -0.48200
N 	N 	0.19639 0.93046 0.51997 -0.27200
N 	N 	0.17220 0.90285 0.53156 -0.24900
N 	N 	0.16213 0.91510 0.47385 -0.24800
H 	H 	0.15310 0.91400 0.45220 0.12600
N 	N 	0.12535 0.86874 0.50242 -0.32600
H 	H 	0.12090 0.85560 0.52140 0.12300
H 	H 	0.11310 0.86540 0.48270 0.14300
N 	N 	0.11843 0.80408 0.57441 -0.26600
N 	N 	0.10739 0.78040 0.54661 -0.25400
N 	N 	0.16660 0.78426 0.54587 -0.24800
H 	H 	0.18900 0.78070 0.53980 0.12200
N 	N 	0.13883 0.74514 0.50221 -0.32700
H 	H 	0.11920 0.73560 0.49360 0.10700
H 	H 	0.15970 0.73940 0.49310 0.13300
C 	C 	0.18958 0.93712 0.48572 0.15200
C 	C 	0.15207 0.89514 0.50372 0.20700
C 	C 	0.15440 0.80605 0.57310 0.13400
C 	C 	0.13691 0.76916 0.53009 0.20000
Cu	Cu	0.67057 0.39082 0.58486 0.78700
Cu	Cu	0.73158 0.45317 0.55455 0.78200
S 	S 	0.71126 0.46856 0.45732 -0.54800
S 	S 	0.68308 0.33097 0.60115 -0.48200
N 	N 	0.69639 0.43046 0.51997 -0.27300
N 	N 	0.67220 0.40285 0.53156 -0.25000
N 	N 	0.66213 0.41510 0.47385 -0.24800
H 	H 	0.65310 0.41400 0.45220 0.12600
N 	N 	0.62535 0.36874 0.50242 -0.32600
H 	H 	0.62090 0.35560 0.52140 0.12300
H 	H 	0.61310 0.36540 0.48270 0.14300
N 	N 	0.61843 0.30408 0.57441 -0.26600
N 	N 	0.60739 0.28040 0.54661 -0.25400
N 	N 	0.66660 0.28426 0.54587 -0.24800
H 	H 	0.68900 0.28070 0.53980 0.12200
N 	N 	0.63883 0.24514 0.50221 -0.32700
H 	H 	0.61920 0.23560 0.49360 0.10700
H 	H 	0.65970 0.23940 0.49310 0.13300
C 	C 	0.68958 0.43712 0.48572 0.15200
C 	C 	0.65207 0.39514 0.50372 0.20600
C 	C 	0.65440 0.30605 0.57310 0.13400
C 	C 	0.63691 0.26916 0.53009 0.20000
Cu	Cu	0.67057 0.89082 0.08486 0.78700
Cu	Cu	0.73158 0.95317 0.05455 0.78300
S 	S 	0.71126 0.96856 0.95732 -0.54100
S 	S 	0.68308 0.83097 0.10115 -0.48200
N 	N 	0.69639 0.93046 0.01997 -0.27600
N 	N 	0.67220 0.90285 0.03156 -0.24900
N 	N 	0.66213 0.91510 0.97385 -0.24500
H 	H 	0.65310 0.91400 0.95220 0.12600
N 	N 	0.62535 0.86874 0.00242 -0.33200
H 	H 	0.62090 0.85560 0.02140 0.12400
H 	H 	0.61310 0.86540 0.98270 0.15000
N 	N 	0.61843 0.80408 0.07441 -0.26600
N 	N 	0.60739 0.78040 0.04661 -0.25500
N 	N 	0.66660 0.78426 0.04587 -0.24800
H 	H 	0.68900 0.78070 0.03980 0.12100
N 	N 	0.63883 0.74514 0.00221 -0.34200
H 	H 	0.61920 0.73560 0.99360 0.11600
H 	H 	0.65970 0.73940 0.99310 0.14200
C 	C 	0.68958 0.93712 0.98572 0.15900
C 	C 	0.65207 0.89514 0.00372 0.20100
C 	C 	0.65440 0.80605 0.07310 0.13300
C 	C 	0.63691 0.76916 0.03009 0.20100
Cu	Cu	0.82943 0.60918 0.08486 0.78700
Cu	Cu	0.76842 0.54683 0.05455 0.78200
S 	S 	0.78874 0.53144 0.95732 -0.54600
S 	S 	0.81692 0.66903 0.10115 -0.48200
N 	N 	0.80361 0.56954 0.01997 -0.27700
N 	N 	0.82780 0.59715 0.03156 -0.24900
N 	N 	0.83787 0.58490 0.97385 -0.24600
H 	H 	0.84690 0.58600 0.95220 0.12600
N 	N 	0.87465 0.63126 0.00242 -0.33200
H 	H 	0.87910 0.64440 0.02140 0.12400
H 	H 	0.88690 0.63460 0.98270 0.15000
N 	N 	0.88157 0.69592 0.07441 -0.26600
N 	N 	0.89261 0.71960 0.04661 -0.25500
N 	N 	0.83340 0.71574 0.04587 -0.24800
H 	H 	0.81100 0.71930 0.03980 0.12100
N 	N 	0.86117 0.75486 0.00221 -0.34100
H 	H 	0.88080 0.76440 0.99360 0.11600
H 	H 	0.84030 0.76060 0.99310 0.14200
C 	C 	0.81042 0.56288 0.98572 0.15900
C 	C 	0.84793 0.60486 0.00372 0.20100
C 	C 	0.84560 0.69395 0.07310 0.13300
C 	C 	0.86309 0.73084 0.03009 0.20100
Cu	Cu	0.82943 0.10918 0.58486 0.78700
Cu	Cu	0.76842 0.04683 0.55455 0.78100
S 	S 	0.78874 0.03144 0.45732 -0.55200
S 	S 	0.81692 0.16903 0.60115 -0.48200
N 	N 	0.80361 0.06954 0.51997 -0.27300
N 	N 	0.82780 0.09715 0.53156 -0.25000
N 	N 	0.83787 0.08490 0.47385 -0.24800
H 	H 	0.84690 0.08600 0.45220 0.12600
N 	N 	0.87465 0.13126 0.50242 -0.32600
H 	H 	0.87910 0.14440 0.52140 0.12300
H 	H 	0.88690 0.13460 0.48270 0.14300
N 	N 	0.88157 0.19592 0.57441 -0.26600
N 	N 	0.89261 0.21960 0.54661 -0.25400
N 	N 	0.83340 0.21574 0.54587 -0.24800
H 	H 	0.81100 0.21930 0.53980 0.12200
N 	N 	0.86117 0.25486 0.50221 -0.32700
H 	H 	0.88080 0.26440 0.49360 0.10700
H 	H 	0.84030 0.26060 0.49310 0.13300
C 	C 	0.81042 0.06288 0.48572 0.15200
C 	C 	0.84793 0.10486 0.50372 0.20600
C 	C 	0.84560 0.19395 0.57310 0.13400
C 	C 	0.86309 0.23084 0.53009 0.20000
Cu	Cu	0.32943 0.60918 0.58486 0.78700
Cu	Cu	0.26842 0.54683 0.55455 0.78200
S 	S 	0.28874 0.53144 0.45732 -0.54800
S 	S 	0.31692 0.66903 0.60115 -0.48200
N 	N 	0.30361 0.56954 0.51997 -0.27300
N 	N 	0.32780 0.59715 0.53156 -0.25000
N 	N 	0.33787 0.58490 0.47385 -0.24800
H 	H 	0.34690 0.58600 0.45220 0.12600
N 	N 	0.37465 0.63126 0.50242 -0.32600
H 	H 	0.37910 0.64440 0.52140 0.12300
H 	H 	0.38690 0.63460 0.48270 0.14300
N 	N 	0.38157 0.69592 0.57441 -0.26600
N 	N 	0.39261 0.71960 0.54661 -0.25400
N 	N 	0.33340 0.71574 0.54587 -0.24800
H 	H 	0.31100 0.71930 0.53980 0.12200
N 	N 	0.36117 0.75486 0.50221 -0.32700
H 	H 	0.38080 0.76440 0.49360 0.10700
H 	H 	0.34030 0.76060 0.49310 0.13300
C 	C 	0.31042 0.56288 0.48572 0.15200
C 	C 	0.34793 0.60486 0.50372 0.20600
C 	C 	0.34560 0.69395 0.57310 0.13400
C 	C 	0.36309 0.73084 0.53009 0.20000
Cu	Cu	0.32943 0.10918 0.08486 0.78700
Cu	Cu	0.26842 0.04683 0.05455 0.78100
S 	S 	0.28874 0.03144 0.95732 -0.55000
S 	S 	0.31692 0.16903 0.10115 -0.48200
N 	N 	0.30361 0.06954 0.01997 -0.27700
N 	N 	0.32780 0.09715 0.03156 -0.24900
N 	N 	0.33787 0.08490 0.97385 -0.24600
H 	H 	0.34690 0.08600 0.95220 0.12600
N 	N 	0.37465 0.13126 0.00242 -0.33200
H 	H 	0.37910 0.14440 0.02140 0.12400
H 	H 	0.38690 0.13460 0.98270 0.15000
N 	N 	0.38157 0.19592 0.07441 -0.26600
N 	N 	0.39261 0.21960 0.04661 -0.25500
N 	N 	0.33340 0.21574 0.04587 -0.24800
H 	H 	0.31100 0.21930 0.03980 0.12100
N 	N 	0.36117 0.25486 0.00221 -0.34200
H 	H 	0.38080 0.26440 0.99360 0.11600
H 	H 	0.34030 0.26060 0.99310 0.14200
C 	C 	0.31042 0.06288 0.98572 0.15900
C 	C 	0.34793 0.10486 0.00372 0.20000
C 	C 	0.34560 0.19395 0.07310 0.13300
C 	C 	0.36309 0.23084 0.03009 0.20100
Cu	Cu	0.17057 0.60918 0.91514 0.78700
Cu	Cu	0.23158 0.54683 0.94545 0.78300
S 	S 	0.21126 0.53144 0.04268 -0.54900
S 	S 	0.18308 0.66903 0.89885 -0.48200
N 	N 	0.19639 0.56954 0.98003 -0.26800
N 	N 	0.17220 0.59715 0.96844 -0.25000
N 	N 	0.16213 0.58490 0.02615 -0.25100
H 	H 	0.15310 0.58600 0.04780 0.12500
N 	N 	0.12535 0.63126 0.99758 -0.32000
H 	H 	0.12090 0.64440 0.97860 0.12300
H 	H 	0.11310 0.63460 0.01730 0.13600
N 	N 	0.11843 0.69592 0.92559 -0.26600
N 	N 	0.10739 0.71960 0.95339 -0.25200
N 	N 	0.16660 0.71574 0.95413 -0.24700
H 	H 	0.18900 0.71930 0.96020 0.12400
N 	N 	0.13883 0.75486 0.99779 -0.31200
H 	H 	0.11920 0.76440 0.00640 0.09800
H 	H 	0.15970 0.76060 0.00690 0.12400
C 	C 	0.18958 0.56288 0.01428 0.14500
C 	C 	0.15207 0.60486 0.99628 0.21200
C 	C 	0.15440 0.69395 0.92690 0.13400
C 	C 	0.13691 0.73084 0.96991 0.20000
Cu	Cu	0.17057 0.10918 0.41514 0.78700
Cu	Cu	0.23158 0.04683 0.44545 0.78100
S 	S 	0.21126 0.03144 0.54268 -0.55200
S 	S 	0.18308 0.16903 0.39885 -0.48200
N 	N 	0.19639 0.06954 0.48003 -0.27300
N 	N 	0.17220 0.09715 0.46844 -0.25000
N 	N 	0.16213 0.08490 0.52615 -0.24800
H 	H 	0.15310 0.08600 0.54780 0.12500
N 	N 	0.12535 0.13126 0.49758 -0.32600
H 	H 	0.12090 0.14440 0.47860 0.12300
H 	H 	0.11310 0.13460 0.51730 0.14300
N 	N 	0.11843 0.19592 0.42559 -0.26600
N 	N 	0.10739 0.21960 0.45339 -0.25400
N 	N 	0.16660 0.21574 0.45413 -0.24800
H 	H 	0.18900 0.21930 0.46020 0.12200
N 	N 	0.13883 0.25486 0.49779 -0.32700
H 	H 	0.11920 0.26440 0.50640 0.10700
H 	H 	0.15970 0.26060 0.50690 0.13300
C 	C 	0.18958 0.06288 0.51428 0.15200
C 	C 	0.15207 0.10486 0.49628 0.20600
C 	C 	0.15440 0.19395 0.42690 0.13400
C 	C 	0.13691 0.23084 0.46991 0.20000
Cu	Cu	0.67057 0.60918 0.41514 0.78700
Cu	Cu	0.73158 0.54683 0.44545 0.78200
S 	S 	0.71126 0.53144 0.54268 -0.54800
S 	S 	0.68308 0.66903 0.39885 -0.48200
N 	N 	0.69639 0.56954 0.48003 -0.27300
N 	N 	0.67220 0.59715 0.46844 -0.25000
N 	N 	0.66213 0.58490 0.52615 -0.24800
H 	H 	0.65310 0.58600 0.54780 0.12600
N 	N 	0.62535 0.63126 0.49758 -0.32600
H 	H 	0.62090 0.64440 0.47860 0.12300
H 	H 	0.61310 0.63460 0.51730 0.14300
N 	N 	0.61843 0.69592 0.42559 -0.26600
N 	N 	0.60739 0.71960 0.45339 -0.25400
N 	N 	0.66660 0.71574 0.45413 -0.24800
H 	H 	0.68900 0.71930 0.46020 0.12200
N 	N 	0.63883 0.75486 0.49779 -0.32700
H 	H 	0.61920 0.76440 0.50640 0.10700
H 	H 	0.65970 0.76060 0.50690 0.13300
C 	C 	0.68958 0.56288 0.51428 0.15200
C 	C 	0.65207 0.60486 0.49628 0.20600
C 	C 	0.65440 0.69395 0.42690 0.13400
C 	C 	0.63691 0.73084 0.46991 0.20000
Cu	Cu	0.67057 0.10918 0.91514 0.78700
Cu	Cu	0.73158 0.04683 0.94545 0.78200
S 	S 	0.71126 0.03144 0.04268 -0.55300
S 	S 	0.68308 0.16903 0.89885 -0.48200
N 	N 	0.69639 0.06954 0.98003 -0.26900
N 	N 	0.67220 0.09715 0.96844 -0.25000
N 	N 	0.66213 0.08490 0.02615 -0.25100
H 	H 	0.65310 0.08600 0.04780 0.12500
N 	N 	0.62535 0.13126 0.99758 -0.32000
H 	H 	0.62090 0.14440 0.97860 0.12300
H 	H 	0.61310 0.13460 0.01730 0.13600
N 	N 	0.61843 0.19592 0.92559 -0.26600
N 	N 	0.60739 0.21960 0.95339 -0.25200
N 	N 	0.66660 0.21574 0.95413 -0.24700
H 	H 	0.68900 0.21930 0.96020 0.12400
N 	N 	0.63883 0.25486 0.99779 -0.31200
H 	H 	0.61920 0.26440 0.00640 0.09800
H 	H 	0.65970 0.26060 0.00690 0.12400
C 	C 	0.68958 0.06288 0.01428 0.14500
C 	C 	0.65207 0.10486 0.99628 0.21200
C 	C 	0.65440 0.19395 0.92690 0.13400
C 	C 	0.63691 0.23084 0.96991 0.20000
Cu	Cu	0.82943 0.39082 0.91514 0.78700
Cu	Cu	0.76842 0.45317 0.94545 0.78300
S 	S 	0.78874 0.46856 0.04268 -0.54900
S 	S 	0.81692 0.33097 0.89885 -0.48200
N 	N 	0.80361 0.43046 0.98003 -0.26800
N 	N 	0.82780 0.40285 0.96844 -0.25000
N 	N 	0.83787 0.41510 0.02615 -0.25100
H 	H 	0.84690 0.41400 0.04780 0.12600
N 	N 	0.87465 0.36874 0.99758 -0.32000
H 	H 	0.87910 0.35560 0.97860 0.12300
H 	H 	0.88690 0.36540 0.01730 0.13700
N 	N 	0.88157 0.30408 0.92559 -0.26600
N 	N 	0.89261 0.28040 0.95339 -0.25200
N 	N 	0.83340 0.28426 0.95413 -0.24700
H 	H 	0.81100 0.28070 0.96020 0.12400
N 	N 	0.86117 0.24514 0.99779 -0.31300
H 	H 	0.88080 0.23560 0.00640 0.09800
H 	H 	0.84030 0.23940 0.00690 0.12400
C 	C 	0.81042 0.43712 0.01428 0.14500
C 	C 	0.84793 0.39514 0.99628 0.21200
C 	C 	0.84560 0.30605 0.92690 0.13400
C 	C 	0.86309 0.26916 0.96991 0.20000
Cu	Cu	0.82943 0.89082 0.41514 0.78700
Cu	Cu	0.76842 0.95317 0.44545 0.78400
S 	S 	0.78874 0.96856 0.54268 -0.54300
S 	S 	0.81692 0.83097 0.39885 -0.48200
N 	N 	0.80361 0.93046 0.48003 -0.27200
N 	N 	0.82780 0.90285 0.46844 -0.24900
N 	N 	0.83787 0.91510 0.52615 -0.24800
H 	H 	0.84690 0.91400 0.54780 0.12600
N 	N 	0.87465 0.86874 0.49758 -0.32600
H 	H 	0.87910 0.85560 0.47860 0.12400
H 	H 	0.88690 0.86540 0.51730 0.14400
N 	N 	0.88157 0.80408 0.42559 -0.26600
N 	N 	0.89261 0.78040 0.45339 -0.25400
N 	N 	0.83340 0.78426 0.45413 -0.24800
H 	H 	0.81100 0.78070 0.46020 0.12200
N 	N 	0.86117 0.74514 0.49779 -0.32700
H 	H 	0.88080 0.73560 0.50640 0.10700
H 	H 	0.84030 0.73940 0.50690 0.13300
C 	C 	0.81042 0.93712 0.51428 0.15200
C 	C 	0.84793 0.89514 0.49628 0.20700
C 	C 	0.84560 0.80605 0.42690 0.13400
C 	C 	0.86309 0.76916 0.46991 0.20000
Cu	Cu	0.32943 0.39082 0.41514 0.78700
Cu	Cu	0.26842 0.45317 0.44545 0.78200
S 	S 	0.28874 0.46856 0.54268 -0.54800
S 	S 	0.31692 0.33097 0.39885 -0.48200
N 	N 	0.30361 0.43046 0.48003 -0.27300
N 	N 	0.32780 0.40285 0.46844 -0.25000
N 	N 	0.33787 0.41510 0.52615 -0.24800
H 	H 	0.34690 0.41400 0.54780 0.12600
N 	N 	0.37465 0.36874 0.49758 -0.32600
H 	H 	0.37910 0.35560 0.47860 0.12300
H 	H 	0.38690 0.36540 0.51730 0.14300
N 	N 	0.38157 0.30408 0.42559 -0.26600
N 	N 	0.39261 0.28040 0.45339 -0.25400
N 	N 	0.33340 0.28426 0.45413 -0.24800
H 	H 	0.31100 0.28070 0.46020 0.12200
N 	N 	0.36117 0.24514 0.49779 -0.32700
H 	H 	0.38080 0.23560 0.50640 0.10700
H 	H 	0.34030 0.23940 0.50690 0.13300
C 	C 	0.31042 0.43712 0.51428 0.15200
C 	C 	0.34793 0.39514 0.49628 0.20600
C 	C 	0.34560 0.30605 0.42690 0.13400
C 	C 	0.36309 0.26916 0.46991 0.20000
Cu	Cu	0.32943 0.89082 0.91514 0.78700
Cu	Cu	0.26842 0.95317 0.94545 0.78400
S 	S 	0.28874 0.96856 0.04268 -0.54400
S 	S 	0.31692 0.83097 0.89885 -0.48200
N 	N 	0.30361 0.93046 0.98003 -0.26800
N 	N 	0.32780 0.90285 0.96844 -0.25000
N 	N 	0.33787 0.91510 0.02615 -0.25100
H 	H 	0.34690 0.91400 0.04780 0.12600
N 	N 	0.37465 0.86874 0.99758 -0.32000
H 	H 	0.37910 0.85560 0.97860 0.12300
H 	H 	0.38690 0.86540 0.01730 0.13700
N 	N 	0.38157 0.80408 0.92559 -0.26600
N 	N 	0.39261 0.78040 0.95339 -0.25200
N 	N 	0.33340 0.78426 0.95413 -0.24700
H 	H 	0.31100 0.78070 0.96020 0.12400
N 	N 	0.36117 0.74514 0.99779 -0.31200
H 	H 	0.38080 0.73560 0.00640 0.09800
H 	H 	0.34030 0.73940 0.00690 0.12400
C 	C 	0.31042 0.93712 0.01428 0.14500
C 	C 	0.34793 0.89514 0.99628 0.21200
C 	C 	0.34560 0.80605 0.92690 0.13400
C 	C 	0.36309 0.76916 0.96991 0.20000
Cu	Cu	0.39082 0.08486 0.17057 0.78700
Cu	Cu	0.45317 0.05455 0.23158 0.78200
S 	S 	0.46856 0.95732 0.21126 -0.54600
S 	S 	0.33097 0.10115 0.18308 -0.48200
N 	N 	0.43046 0.01997 0.19639 -0.27700
N 	N 	0.40285 0.03156 0.17220 -0.24900
N 	N 	0.41510 0.97385 0.16213 -0.24500
H 	H 	0.41400 0.95220 0.15310 0.12600
N 	N 	0.36874 0.00242 0.12535 -0.33200
H 	H 	0.35560 0.02140 0.12090 0.12300
H 	H 	0.36540 0.98270 0.11310 0.15000
N 	N 	0.30408 0.07441 0.11843 -0.26600
N 	N 	0.28040 0.04661 0.10739 -0.25500
N 	N 	0.28426 0.04587 0.16660 -0.24800
H 	H 	0.28070 0.03980 0.18900 0.12100
N 	N 	0.24514 0.00221 0.13883 -0.34200
H 	H 	0.23560 0.99360 0.11920 0.11600
H 	H 	0.23940 0.99310 0.15970 0.14200
C 	C 	0.43712 0.98572 0.18958 0.15900
C 	C 	0.39514 0.00372 0.15207 0.20000
C 	C 	0.30605 0.07310 0.15440 0.13300
C 	C 	0.26916 0.03009 0.13691 0.20100
Cu	Cu	0.39082 0.58486 0.67057 0.78700
Cu	Cu	0.45317 0.55455 0.73158 0.78200
S 	S 	0.46856 0.45732 0.71126 -0.54800
S 	S 	0.33097 0.60115 0.68308 -0.48200
N 	N 	0.43046 0.51997 0.69639 -0.27300
N 	N 	0.40285 0.53156 0.67220 -0.25000
N 	N 	0.41510 0.47385 0.66213 -0.24800
H 	H 	0.41400 0.45220 0.65310 0.12600
N 	N 	0.36874 0.50242 0.62535 -0.32600
H 	H 	0.35560 0.52140 0.62090 0.12300
H 	H 	0.36540 0.48270 0.61310 0.14300
N 	N 	0.30408 0.57441 0.61843 -0.26600
N 	N 	0.28040 0.54661 0.60739 -0.25400
N 	N 	0.28426 0.54587 0.66660 -0.24800
H 	H 	0.28070 0.53980 0.68900 0.12200
N 	N 	0.24514 0.50221 0.63883 -0.32700
H 	H 	0.23560 0.49360 0.61920 0.10700
H 	H 	0.23940 0.49310 0.65970 0.13300
C 	C 	0.43712 0.48572 0.68958 0.15200
C 	C 	0.39514 0.50372 0.65207 0.20600
C 	C 	0.30605 0.57310 0.65440 0.13400
C 	C 	0.26916 0.53009 0.63691 0.20000
Cu	Cu	0.89082 0.08486 0.67057 0.78700
Cu	Cu	0.95317 0.05455 0.73158 0.78300
S 	S 	0.96856 0.95732 0.71126 -0.54100
S 	S 	0.83097 0.10115 0.68308 -0.48200
N 	N 	0.93046 0.01997 0.69639 -0.27600
N 	N 	0.90285 0.03156 0.67220 -0.24900
N 	N 	0.91510 0.97385 0.66213 -0.24500
H 	H 	0.91400 0.95220 0.65310 0.12600
N 	N 	0.86874 0.00242 0.62535 -0.33200
H 	H 	0.85560 0.02140 0.62090 0.12400
H 	H 	0.86540 0.98270 0.61310 0.15000
N 	N 	0.80408 0.07441 0.61843 -0.26600
N 	N 	0.78040 0.04661 0.60739 -0.25500
N 	N 	0.78426 0.04587 0.66660 -0.24800
H 	H 	0.78070 0.03980 0.68900 0.12100
N 	N 	0.74514 0.00221 0.63883 -0.34200
H 	H 	0.73560 0.99360 0.61920 0.11600
H 	H 	0.73940 0.99310 0.65970 0.14200
C 	C 	0.93712 0.98572 0.68958 0.15900
C 	C 	0.89514 0.00372 0.65207 0.20100
C 	C 	0.80605 0.07310 0.65440 0.13300
C 	C 	0.76916 0.03009 0.63691 0.20100
Cu	Cu	0.89082 0.58486 0.17057 0.78700
Cu	Cu	0.95317 0.55455 0.23158 0.78400
S 	S 	0.96856 0.45732 0.21126 -0.54300
S 	S 	0.83097 0.60115 0.18308 -0.48200
N 	N 	0.93046 0.51997 0.19639 -0.27200
N 	N 	0.90285 0.53156 0.17220 -0.24900
N 	N 	0.91510 0.47385 0.16213 -0.24800
H 	H 	0.91400 0.45220 0.15310 0.12600
N 	N 	0.86874 0.50242 0.12535 -0.32600
H 	H 	0.85560 0.52140 0.12090 0.12300
H 	H 	0.86540 0.48270 0.11310 0.14300
N 	N 	0.80408 0.57441 0.11843 -0.26600
N 	N 	0.78040 0.54661 0.10739 -0.25400
N 	N 	0.78426 0.54587 0.16660 -0.24800
H 	H 	0.78070 0.53980 0.18900 0.12200
N 	N 	0.74514 0.50221 0.13883 -0.32700
H 	H 	0.73560 0.49360 0.11920 0.10700
H 	H 	0.73940 0.49310 0.15970 0.13300
C 	C 	0.93712 0.48572 0.18958 0.15200
C 	C 	0.89514 0.50372 0.15207 0.20700
C 	C 	0.80605 0.57310 0.15440 0.13400
C 	C 	0.76916 0.53009 0.13691 0.20000
Cu	Cu	0.60918 0.08486 0.82943 0.78700
Cu	Cu	0.54683 0.05455 0.76842 0.78200
S 	S 	0.53144 0.95732 0.78874 -0.54600
S 	S 	0.66903 0.10115 0.81692 -0.48200
N 	N 	0.56954 0.01997 0.80361 -0.27700
N 	N 	0.59715 0.03156 0.82780 -0.24900
N 	N 	0.58490 0.97385 0.83787 -0.24600
H 	H 	0.58600 0.95220 0.84690 0.12600
N 	N 	0.63126 0.00242 0.87465 -0.33200
H 	H 	0.64440 0.02140 0.87910 0.12400
H 	H 	0.63460 0.98270 0.88690 0.15000
N 	N 	0.69592 0.07441 0.88157 -0.26600
N 	N 	0.71960 0.04661 0.89261 -0.25500
N 	N 	0.71574 0.04587 0.83340 -0.24800
H 	H 	0.71930 0.03980 0.81100 0.12100
N 	N 	0.75486 0.00221 0.86117 -0.34100
H 	H 	0.76440 0.99360 0.88080 0.11600
H 	H 	0.76060 0.99310 0.84030 0.14200
C 	C 	0.56288 0.98572 0.81042 0.15900
C 	C 	0.60486 0.00372 0.84793 0.20100
C 	C 	0.69395 0.07310 0.84560 0.13300
C 	C 	0.73084 0.03009 0.86309 0.20100
Cu	Cu	0.60918 0.58486 0.32943 0.78700
Cu	Cu	0.54683 0.55455 0.26842 0.78200
S 	S 	0.53144 0.45732 0.28874 -0.54800
S 	S 	0.66903 0.60115 0.31692 -0.48200
N 	N 	0.56954 0.51997 0.30361 -0.27300
N 	N 	0.59715 0.53156 0.32780 -0.25000
N 	N 	0.58490 0.47385 0.33787 -0.24800
H 	H 	0.58600 0.45220 0.34690 0.12600
N 	N 	0.63126 0.50242 0.37465 -0.32600
H 	H 	0.64440 0.52140 0.37910 0.12300
H 	H 	0.63460 0.48270 0.38690 0.14300
N 	N 	0.69592 0.57441 0.38157 -0.26600
N 	N 	0.71960 0.54661 0.39261 -0.25400
N 	N 	0.71574 0.54587 0.33340 -0.24800
H 	H 	0.71930 0.53980 0.31100 0.12200
N 	N 	0.75486 0.50221 0.36117 -0.32700
H 	H 	0.76440 0.49360 0.38080 0.10700
H 	H 	0.76060 0.49310 0.34030 0.13300
C 	C 	0.56288 0.48572 0.31042 0.15200
C 	C 	0.60486 0.50372 0.34793 0.20600
C 	C 	0.69395 0.57310 0.34560 0.13400
C 	C 	0.73084 0.53009 0.36309 0.20000
Cu	Cu	0.10918 0.08486 0.32943 0.78700
Cu	Cu	0.04683 0.05455 0.26842 0.78100
S 	S 	0.03144 0.95732 0.28874 -0.55000
S 	S 	0.16903 0.10115 0.31692 -0.48200
N 	N 	0.06954 0.01997 0.30361 -0.27700
N 	N 	0.09715 0.03156 0.32780 -0.24900
N 	N 	0.08490 0.97385 0.33787 -0.24600
H 	H 	0.08600 0.95220 0.34690 0.12600
N 	N 	0.13126 0.00242 0.37465 -0.33200
H 	H 	0.14440 0.02140 0.37910 0.12400
H 	H 	0.13460 0.98270 0.38690 0.15000
N 	N 	0.19592 0.07441 0.38157 -0.26600
N 	N 	0.21960 0.04661 0.39261 -0.25500
N 	N 	0.21574 0.04587 0.33340 -0.24800
H 	H 	0.21930 0.03980 0.31100 0.12100
N 	N 	0.25486 0.00221 0.36117 -0.34200
H 	H 	0.26440 0.99360 0.38080 0.11600
H 	H 	0.26060 0.99310 0.34030 0.14200
C 	C 	0.06288 0.98572 0.31042 0.15900
C 	C 	0.10486 0.00372 0.34793 0.20000
C 	C 	0.19395 0.07310 0.34560 0.13300
C 	C 	0.23084 0.03009 0.36309 0.20100
Cu	Cu	0.10918 0.58486 0.82943 0.78700
Cu	Cu	0.04683 0.55455 0.76842 0.78100
S 	S 	0.03144 0.45732 0.78874 -0.55200
S 	S 	0.16903 0.60115 0.81692 -0.48200
N 	N 	0.06954 0.51997 0.80361 -0.27300
N 	N 	0.09715 0.53156 0.82780 -0.25000
N 	N 	0.08490 0.47385 0.83787 -0.24800
H 	H 	0.08600 0.45220 0.84690 0.12600
N 	N 	0.13126 0.50242 0.87465 -0.32600
H 	H 	0.14440 0.52140 0.87910 0.12300
H 	H 	0.13460 0.48270 0.88690 0.14300
N 	N 	0.19592 0.57441 0.88157 -0.26600
N 	N 	0.21960 0.54661 0.89261 -0.25400
N 	N 	0.21574 0.54587 0.83340 -0.24800
H 	H 	0.21930 0.53980 0.81100 0.12200
N 	N 	0.25486 0.50221 0.86117 -0.32700
H 	H 	0.26440 0.49360 0.88080 0.10700
H 	H 	0.26060 0.49310 0.84030 0.13300
C 	C 	0.06288 0.48572 0.81042 0.15200
C 	C 	0.10486 0.50372 0.84793 0.20600
C 	C 	0.19395 0.57310 0.84560 0.13400
C 	C 	0.23084 0.53009 0.86309 0.20000
Cu	Cu	0.60918 0.91514 0.17057 0.78700
Cu	Cu	0.54683 0.94545 0.23158 0.78300
S 	S 	0.53144 0.04268 0.21126 -0.54900
S 	S 	0.66903 0.89885 0.18308 -0.48200
N 	N 	0.56954 0.98003 0.19639 -0.26800
N 	N 	0.59715 0.96844 0.17220 -0.25000
N 	N 	0.58490 0.02615 0.16213 -0.25100
H 	H 	0.58600 0.04780 0.15310 0.12500
N 	N 	0.63126 0.99758 0.12535 -0.32000
H 	H 	0.64440 0.97860 0.12090 0.12300
H 	H 	0.63460 0.01730 0.11310 0.13600
N 	N 	0.69592 0.92559 0.11843 -0.26600
N 	N 	0.71960 0.95339 0.10739 -0.25200
N 	N 	0.71574 0.95413 0.16660 -0.24700
H 	H 	0.71930 0.96020 0.18900 0.12400
N 	N 	0.75486 0.99779 0.13883 -0.31200
H 	H 	0.76440 0.00640 0.11920 0.09800
H 	H 	0.76060 0.00690 0.15970 0.12400
C 	C 	0.56288 0.01428 0.18958 0.14500
C 	C 	0.60486 0.99628 0.15207 0.21200
C 	C 	0.69395 0.92690 0.15440 0.13400
C 	C 	0.73084 0.96991 0.13691 0.20000
Cu	Cu	0.60918 0.41514 0.67057 0.78700
Cu	Cu	0.54683 0.44545 0.73158 0.78200
S 	S 	0.53144 0.54268 0.71126 -0.54800
S 	S 	0.66903 0.39885 0.68308 -0.48200
N 	N 	0.56954 0.48003 0.69639 -0.27300
N 	N 	0.59715 0.46844 0.67220 -0.25000
N 	N 	0.58490 0.52615 0.66213 -0.24800
H 	H 	0.58600 0.54780 0.65310 0.12600
N 	N 	0.63126 0.49758 0.62535 -0.32600
H 	H 	0.64440 0.47860 0.62090 0.12300
H 	H 	0.63460 0.51730 0.61310 0.14300
N 	N 	0.69592 0.42559 0.61843 -0.26600
N 	N 	0.71960 0.45339 0.60739 -0.25400
N 	N 	0.71574 0.45413 0.66660 -0.24800
H 	H 	0.71930 0.46020 0.68900 0.12200
N 	N 	0.75486 0.49779 0.63883 -0.32700
H 	H 	0.76440 0.50640 0.61920 0.10700
H 	H 	0.76060 0.50690 0.65970 0.13300
C 	C 	0.56288 0.51428 0.68958 0.15200
C 	C 	0.60486 0.49628 0.65207 0.20600
C 	C 	0.69395 0.42690 0.65440 0.13400
C 	C 	0.73084 0.46991 0.63691 0.20000
Cu	Cu	0.10918 0.91514 0.67057 0.78700
Cu	Cu	0.04683 0.94545 0.73158 0.78200
S 	S 	0.03144 0.04268 0.71126 -0.55300
S 	S 	0.16903 0.89885 0.68308 -0.48200
N 	N 	0.06954 0.98003 0.69639 -0.26900
N 	N 	0.09715 0.96844 0.67220 -0.25000
N 	N 	0.08490 0.02615 0.66213 -0.25100
H 	H 	0.08600 0.04780 0.65310 0.12500
N 	N 	0.13126 0.99758 0.62535 -0.32000
H 	H 	0.14440 0.97860 0.62090 0.12300
H 	H 	0.13460 0.01730 0.61310 0.13600
N 	N 	0.19592 0.92559 0.61843 -0.26600
N 	N 	0.21960 0.95339 0.60739 -0.25200
N 	N 	0.21574 0.95413 0.66660 -0.24700
H 	H 	0.21930 0.96020 0.68900 0.12400
N 	N 	0.25486 0.99779 0.63883 -0.31200
H 	H 	0.26440 0.00640 0.61920 0.09800
H 	H 	0.26060 0.00690 0.65970 0.12400
C 	C 	0.06288 0.01428 0.68958 0.14500
C 	C 	0.10486 0.99628 0.65207 0.21200
C 	C 	0.19395 0.92690 0.65440 0.13400
C 	C 	0.23084 0.96991 0.63691 0.20000
Cu	Cu	0.10918 0.41514 0.17057 0.78700
Cu	Cu	0.04683 0.44545 0.23158 0.78100
S 	S 	0.03144 0.54268 0.21126 -0.55200
S 	S 	0.16903 0.39885 0.18308 -0.48200
N 	N 	0.06954 0.48003 0.19639 -0.27300
N 	N 	0.09715 0.46844 0.17220 -0.25000
N 	N 	0.08490 0.52615 0.16213 -0.24800
H 	H 	0.08600 0.54780 0.15310 0.12500
N 	N 	0.13126 0.49758 0.12535 -0.32600
H 	H 	0.14440 0.47860 0.12090 0.12300
H 	H 	0.13460 0.51730 0.11310 0.14300
N 	N 	0.19592 0.42559 0.11843 -0.26600
N 	N 	0.21960 0.45339 0.10739 -0.25400
N 	N 	0.21574 0.45413 0.16660 -0.24800
H 	H 	0.21930 0.46020 0.18900 0.12200
N 	N 	0.25486 0.49779 0.13883 -0.32700
H 	H 	0.26440 0.50640 0.11920 0.10700
H 	H 	0.26060 0.50690 0.15970 0.13300
C 	C 	0.06288 0.51428 0.18958 0.15200
C 	C 	0.10486 0.49628 0.15207 0.20600
C 	C 	0.19395 0.42690 0.15440 0.13400
C 	C 	0.23084 0.46991 0.13691 0.20000
Cu	Cu	0.39082 0.91514 0.82943 0.78700
Cu	Cu	0.45317 0.94545 0.76842 0.78300
S 	S 	0.46856 0.04268 0.78874 -0.54900
S 	S 	0.33097 0.89885 0.81692 -0.48200
N 	N 	0.43046 0.98003 0.80361 -0.26800
N 	N 	0.40285 0.96844 0.82780 -0.25000
N 	N 	0.41510 0.02615 0.83787 -0.25100
H 	H 	0.41400 0.04780 0.84690 0.12600
N 	N 	0.36874 0.99758 0.87465 -0.32000
H 	H 	0.35560 0.97860 0.87910 0.12300
H 	H 	0.36540 0.01730 0.88690 0.13700
N 	N 	0.30408 0.92559 0.88157 -0.26600
N 	N 	0.28040 0.95339 0.89261 -0.25200
N 	N 	0.28426 0.95413 0.83340 -0.24700
H 	H 	0.28070 0.96020 0.81100 0.12400
N 	N 	0.24514 0.99779 0.86117 -0.31300
H 	H 	0.23560 0.00640 0.88080 0.09800
H 	H 	0.23940 0.00690 0.84030 0.12400
C 	C 	0.43712 0.01428 0.81042 0.14500
C 	C 	0.39514 0.99628 0.84793 0.21200
C 	C 	0.30605 0.92690 0.84560 0.13400
C 	C 	0.26916 0.96991 0.86309 0.20000
Cu	Cu	0.39082 0.41514 0.32943 0.78700
Cu	Cu	0.45317 0.44545 0.26842 0.78200
S 	S 	0.46856 0.54268 0.28874 -0.54800
S 	S 	0.33097 0.39885 0.31692 -0.48200
N 	N 	0.43046 0.48003 0.30361 -0.27300
N 	N 	0.40285 0.46844 0.32780 -0.25000
N 	N 	0.41510 0.52615 0.33787 -0.24800
H 	H 	0.41400 0.54780 0.34690 0.12600
N 	N 	0.36874 0.49758 0.37465 -0.32600
H 	H 	0.35560 0.47860 0.37910 0.12300
H 	H 	0.36540 0.51730 0.38690 0.14300
N 	N 	0.30408 0.42559 0.38157 -0.26600
N 	N 	0.28040 0.45339 0.39261 -0.25400
N 	N 	0.28426 0.45413 0.33340 -0.24800
H 	H 	0.28070 0.46020 0.31100 0.12200
N 	N 	0.24514 0.49779 0.36117 -0.32700
H 	H 	0.23560 0.50640 0.38080 0.10700
H 	H 	0.23940 0.50690 0.34030 0.13300
C 	C 	0.43712 0.51428 0.31042 0.15200
C 	C 	0.39514 0.49628 0.34793 0.20600
C 	C 	0.30605 0.42690 0.34560 0.13400
C 	C 	0.26916 0.46991 0.36309 0.20000
Cu	Cu	0.89082 0.91514 0.32943 0.78700
Cu	Cu	0.95317 0.94545 0.26842 0.78400
S 	S 	0.96856 0.04268 0.28874 -0.54400
S 	S 	0.83097 0.89885 0.31692 -0.48200
N 	N 	0.93046 0.98003 0.30361 -0.26800
N 	N 	0.90285 0.96844 0.32780 -0.25000
N 	N 	0.91510 0.02615 0.33787 -0.25100
H 	H 	0.91400 0.04780 0.34690 0.12600
N 	N 	0.86874 0.99758 0.37465 -0.32000
H 	H 	0.85560 0.97860 0.37910 0.12300
H 	H 	0.86540 0.01730 0.38690 0.13700
N 	N 	0.80408 0.92559 0.38157 -0.26600
N 	N 	0.78040 0.95339 0.39261 -0.25200
N 	N 	0.78426 0.95413 0.33340 -0.24700
H 	H 	0.78070 0.96020 0.31100 0.12400
N 	N 	0.74514 0.99779 0.36117 -0.31200
H 	H 	0.73560 0.00640 0.38080 0.09800
H 	H 	0.73940 0.00690 0.34030 0.12400
C 	C 	0.93712 0.01428 0.31042 0.14500
C 	C 	0.89514 0.99628 0.34793 0.21200
C 	C 	0.80605 0.92690 0.34560 0.13400
C 	C 	0.76916 0.96991 0.36309 0.20000
Cu	Cu	0.89082 0.41514 0.82943 0.78700
Cu	Cu	0.95317 0.44545 0.76842 0.78400
S 	S 	0.96856 0.54268 0.78874 -0.54300
S 	S 	0.83097 0.39885 0.81692 -0.48200
N 	N 	0.93046 0.48003 0.80361 -0.27200
N 	N 	0.90285 0.46844 0.82780 -0.24900
N 	N 	0.91510 0.52615 0.83787 -0.24800
H 	H 	0.91400 0.54780 0.84690 0.12600
N 	N 	0.86874 0.49758 0.87465 -0.32600
H 	H 	0.85560 0.47860 0.87910 0.12400
H 	H 	0.86540 0.51730 0.88690 0.14400
N 	N 	0.80408 0.42559 0.88157 -0.26600
N 	N 	0.78040 0.45339 0.89261 -0.25400
N 	N 	0.78426 0.45413 0.83340 -0.24800
H 	H 	0.78070 0.46020 0.81100 0.12200
N 	N 	0.74514 0.49779 0.86117 -0.32700
H 	H 	0.73560 0.50640 0.88080 0.10700
H 	H 	0.73940 0.50690 0.84030 0.13300
C 	C 	0.93712 0.51428 0.81042 0.15200
C 	C 	0.89514 0.49628 0.84793 0.20700
C 	C 	0.80605 0.42690 0.84560 0.13400
C 	C 	0.76916 0.46991 0.86309 0.20000
Cu	Cu	0.08486 0.17057 0.39082 0.78700
Cu	Cu	0.05455 0.23158 0.45317 0.78200
S 	S 	0.95732 0.21126 0.46856 -0.54600
S 	S 	0.10115 0.18308 0.33097 -0.48200
N 	N 	0.01997 0.19639 0.43046 -0.27700
N 	N 	0.03156 0.17220 0.40285 -0.24900
N 	N 	0.97385 0.16213 0.41510 -0.24500
H 	H 	0.95220 0.15310 0.41400 0.12600
N 	N 	0.00242 0.12535 0.36874 -0.33200
H 	H 	0.02140 0.12090 0.35560 0.12300
H 	H 	0.98270 0.11310 0.36540 0.15000
N 	N 	0.07441 0.11843 0.30408 -0.26600
N 	N 	0.04661 0.10739 0.28040 -0.25500
N 	N 	0.04587 0.16660 0.28426 -0.24800
H 	H 	0.03980 0.18900 0.28070 0.12100
N 	N 	0.00221 0.13883 0.24514 -0.34200
H 	H 	0.99360 0.11920 0.23560 0.11600
H 	H 	0.99310 0.15970 0.23940 0.14200
C 	C 	0.98572 0.18958 0.43712 0.15900
C 	C 	0.00372 0.15207 0.39514 0.20000
C 	C 	0.07310 0.15440 0.30605 0.13300
C 	C 	0.03009 0.13691 0.26916 0.20100
Cu	Cu	0.08486 0.67057 0.89082 0.78700
Cu	Cu	0.05455 0.73158 0.95317 0.78300
S 	S 	0.95732 0.71126 0.96856 -0.54100
S 	S 	0.10115 0.68308 0.83097 -0.48200
N 	N 	0.01997 0.69639 0.93046 -0.27600
N 	N 	0.03156 0.67220 0.90285 -0.24900
N 	N 	0.97385 0.66213 0.91510 -0.24500
H 	H 	0.95220 0.65310 0.91400 0.12600
N 	N 	0.00242 0.62535 0.86874 -0.33200
H 	H 	0.02140 0.62090 0.85560 0.12400
H 	H 	0.98270 0.61310 0.86540 0.15000
N 	N 	0.07441 0.61843 0.80408 -0.26600
N 	N 	0.04661 0.60739 0.78040 -0.25500
N 	N 	0.04587 0.66660 0.78426 -0.24800
H 	H 	0.03980 0.68900 0.78070 0.12100
N 	N 	0.00221 0.63883 0.74514 -0.34200
H 	H 	0.99360 0.61920 0.73560 0.11600
H 	H 	0.99310 0.65970 0.73940 0.14200
C 	C 	0.98572 0.68958 0.93712 0.15900
C 	C 	0.00372 0.65207 0.89514 0.20100
C 	C 	0.07310 0.65440 0.80605 0.13300
C 	C 	0.03009 0.63691 0.76916 0.20100
Cu	Cu	0.58486 0.17057 0.89082 0.78700
Cu	Cu	0.55455 0.23158 0.95317 0.78400
S 	S 	0.45732 0.21126 0.96856 -0.54300
S 	S 	0.60115 0.18308 0.83097 -0.48200
N 	N 	0.51997 0.19639 0.93046 -0.27200
N 	N 	0.53156 0.17220 0.90285 -0.24900
N 	N 	0.47385 0.16213 0.91510 -0.24800
H 	H 	0.45220 0.15310 0.91400 0.12600
N 	N 	0.50242 0.12535 0.86874 -0.32600
H 	H 	0.52140 0.12090 0.85560 0.12300
H 	H 	0.48270 0.11310 0.86540 0.14300
N 	N 	0.57441 0.11843 0.80408 -0.26600
N 	N 	0.54661 0.10739 0.78040 -0.25400
N 	N 	0.54587 0.16660 0.78426 -0.24800
H 	H 	0.53980 0.18900 0.78070 0.12200
N 	N 	0.50221 0.13883 0.74514 -0.32700
H 	H 	0.49360 0.11920 0.73560 0.10700
H 	H 	0.49310 0.15970 0.73940 0.13300
C 	C 	0.48572 0.18958 0.93712 0.15200
C 	C 	0.50372 0.15207 0.89514 0.20700
C 	C 	0.57310 0.15440 0.80605 0.13400
C 	C 	0.53009 0.13691 0.76916 0.20000
Cu	Cu	0.58486 0.67057 0.39082 0.78700
Cu	Cu	0.55455 0.73158 0.45317 0.78200
S 	S 	0.45732 0.71126 0.46856 -0.54800
S 	S 	0.60115 0.68308 0.33097 -0.48200
N 	N 	0.51997 0.69639 0.43046 -0.27300
N 	N 	0.53156 0.67220 0.40285 -0.25000
N 	N 	0.47385 0.66213 0.41510 -0.24800
H 	H 	0.45220 0.65310 0.41400 0.12600
N 	N 	0.50242 0.62535 0.36874 -0.32600
H 	H 	0.52140 0.62090 0.35560 0.12300
H 	H 	0.48270 0.61310 0.36540 0.14300
N 	N 	0.57441 0.61843 0.30408 -0.26600
N 	N 	0.54661 0.60739 0.28040 -0.25400
N 	N 	0.54587 0.66660 0.28426 -0.24800
H 	H 	0.53980 0.68900 0.28070 0.12200
N 	N 	0.50221 0.63883 0.24514 -0.32700
H 	H 	0.49360 0.61920 0.23560 0.10700
H 	H 	0.49310 0.65970 0.23940 0.13300
C 	C 	0.48572 0.68958 0.43712 0.15200
C 	C 	0.50372 0.65207 0.39514 0.20600
C 	C 	0.57310 0.65440 0.30605 0.13400
C 	C 	0.53009 0.63691 0.26916 0.20000
Cu	Cu	0.08486 0.82943 0.60918 0.78700
Cu	Cu	0.05455 0.76842 0.54683 0.78200
S 	S 	0.95732 0.78874 0.53144 -0.54600
S 	S 	0.10115 0.81692 0.66903 -0.48200
N 	N 	0.01997 0.80361 0.56954 -0.27700
N 	N 	0.03156 0.82780 0.59715 -0.24900
N 	N 	0.97385 0.83787 0.58490 -0.24600
H 	H 	0.95220 0.84690 0.58600 0.12600
N 	N 	0.00242 0.87465 0.63126 -0.33200
H 	H 	0.02140 0.87910 0.64440 0.12400
H 	H 	0.98270 0.88690 0.63460 0.15000
N 	N 	0.07441 0.88157 0.69592 -0.26600
N 	N 	0.04661 0.89261 0.71960 -0.25500
N 	N 	0.04587 0.83340 0.71574 -0.24800
H 	H 	0.03980 0.81100 0.71930 0.12100
N 	N 	0.00221 0.86117 0.75486 -0.34100
H 	H 	0.99360 0.88080 0.76440 0.11600
H 	H 	0.99310 0.84030 0.76060 0.14200
C 	C 	0.98572 0.81042 0.56288 0.15900
C 	C 	0.00372 0.84793 0.60486 0.20100
C 	C 	0.07310 0.84560 0.69395 0.13300
C 	C 	0.03009 0.86309 0.73084 0.20100
Cu	Cu	0.08486 0.32943 0.10918 0.78700
Cu	Cu	0.05455 0.26842 0.04683 0.78100
S 	S 	0.95732 0.28874 0.03144 -0.55000
S 	S 	0.10115 0.31692 0.16903 -0.48200
N 	N 	0.01997 0.30361 0.06954 -0.27700
N 	N 	0.03156 0.32780 0.09715 -0.24900
N 	N 	0.97385 0.33787 0.08490 -0.24600
H 	H 	0.95220 0.34690 0.08600 0.12600
N 	N 	0.00242 0.37465 0.13126 -0.33200
H 	H 	0.02140 0.37910 0.14440 0.12400
H 	H 	0.98270 0.38690 0.13460 0.15000
N 	N 	0.07441 0.38157 0.19592 -0.26600
N 	N 	0.04661 0.39261 0.21960 -0.25500
N 	N 	0.04587 0.33340 0.21574 -0.24800
H 	H 	0.03980 0.31100 0.21930 0.12100
N 	N 	0.00221 0.36117 0.25486 -0.34200
H 	H 	0.99360 0.38080 0.26440 0.11600
H 	H 	0.99310 0.34030 0.26060 0.14200
C 	C 	0.98572 0.31042 0.06288 0.15900
C 	C 	0.00372 0.34793 0.10486 0.20000
C 	C 	0.07310 0.34560 0.19395 0.13300
C 	C 	0.03009 0.36309 0.23084 0.20100
Cu	Cu	0.58486 0.82943 0.10918 0.78700
Cu	Cu	0.55455 0.76842 0.04683 0.78100
S 	S 	0.45732 0.78874 0.03144 -0.55200
S 	S 	0.60115 0.81692 0.16903 -0.48200
N 	N 	0.51997 0.80361 0.06954 -0.27300
N 	N 	0.53156 0.82780 0.09715 -0.25000
N 	N 	0.47385 0.83787 0.08490 -0.24800
H 	H 	0.45220 0.84690 0.08600 0.12600
N 	N 	0.50242 0.87465 0.13126 -0.32600
H 	H 	0.52140 0.87910 0.14440 0.12300
H 	H 	0.48270 0.88690 0.13460 0.14300
N 	N 	0.57441 0.88157 0.19592 -0.26600
N 	N 	0.54661 0.89261 0.21960 -0.25400
N 	N 	0.54587 0.83340 0.21574 -0.24800
H 	H 	0.53980 0.81100 0.21930 0.12200
N 	N 	0.50221 0.86117 0.25486 -0.32700
H 	H 	0.49360 0.88080 0.26440 0.10700
H 	H 	0.49310 0.84030 0.26060 0.13300
C 	C 	0.48572 0.81042 0.06288 0.15200
C 	C 	0.50372 0.84793 0.10486 0.20600
C 	C 	0.57310 0.84560 0.19395 0.13400
C 	C 	0.53009 0.86309 0.23084 0.20000
Cu	Cu	0.58486 0.32943 0.60918 0.78700
Cu	Cu	0.55455 0.26842 0.54683 0.78200
S 	S 	0.45732 0.28874 0.53144 -0.54800
S 	S 	0.60115 0.31692 0.66903 -0.48200
N 	N 	0.51997 0.30361 0.56954 -0.27300
N 	N 	0.53156 0.32780 0.59715 -0.25000
N 	N 	0.47385 0.33787 0.58490 -0.24800
H 	H 	0.45220 0.34690 0.58600 0.12600
N 	N 	0.50242 0.37465 0.63126 -0.32600
H 	H 	0.52140 0.37910 0.64440 0.12300
H 	H 	0.48270 0.38690 0.63460 0.14300
N 	N 	0.57441 0.38157 0.69592 -0.26600
N 	N 	0.54661 0.39261 0.71960 -0.25400
N 	N 	0.54587 0.33340 0.71574 -0.24800
H 	H 	0.53980 0.31100 0.71930 0.12200
N 	N 	0.50221 0.36117 0.75486 -0.32700
H 	H 	0.49360 0.38080 0.76440 0.10700
H 	H 	0.49310 0.34030 0.76060 0.13300
C 	C 	0.48572 0.31042 0.56288 0.15200
C 	C 	0.50372 0.34793 0.60486 0.20600
C 	C 	0.57310 0.34560 0.69395 0.13400
C 	C 	0.53009 0.36309 0.73084 0.20000
Cu	Cu	0.91514 0.17057 0.60918 0.78700
Cu	Cu	0.94545 0.23158 0.54683 0.78300
S 	S 	0.04268 0.21126 0.53144 -0.54900
S 	S 	0.89885 0.18308 0.66903 -0.48200
N 	N 	0.98003 0.19639 0.56954 -0.26800
N 	N 	0.96844 0.17220 0.59715 -0.25000
N 	N 	0.02615 0.16213 0.58490 -0.25100
H 	H 	0.04780 0.15310 0.58600 0.12500
N 	N 	0.99758 0.12535 0.63126 -0.32000
H 	H 	0.97860 0.12090 0.64440 0.12300
H 	H 	0.01730 0.11310 0.63460 0.13600
N 	N 	0.92559 0.11843 0.69592 -0.26600
N 	N 	0.95339 0.10739 0.71960 -0.25200
N 	N 	0.95413 0.16660 0.71574 -0.24700
H 	H 	0.96020 0.18900 0.71930 0.12400
N 	N 	0.99779 0.13883 0.75486 -0.31200
H 	H 	0.00640 0.11920 0.76440 0.09800
H 	H 	0.00690 0.15970 0.76060 0.12400
C 	C 	0.01428 0.18958 0.56288 0.14500
C 	C 	0.99628 0.15207 0.60486 0.21200
C 	C 	0.92690 0.15440 0.69395 0.13400
C 	C 	0.96991 0.13691 0.73084 0.20000
Cu	Cu	0.91514 0.67057 0.10918 0.78700
Cu	Cu	0.94545 0.73158 0.04683 0.78200
S 	S 	0.04268 0.71126 0.03144 -0.55300
S 	S 	0.89885 0.68308 0.16903 -0.48200
N 	N 	0.98003 0.69639 0.06954 -0.26900
N 	N 	0.96844 0.67220 0.09715 -0.25000
N 	N 	0.02615 0.66213 0.08490 -0.25100
H 	H 	0.04780 0.65310 0.08600 0.12500
N 	N 	0.99758 0.62535 0.13126 -0.32000
H 	H 	0.97860 0.62090 0.14440 0.12300
H 	H 	0.01730 0.61310 0.13460 0.13600
N 	N 	0.92559 0.61843 0.19592 -0.26600
N 	N 	0.95339 0.60739 0.21960 -0.25200
N 	N 	0.95413 0.66660 0.21574 -0.24700
H 	H 	0.96020 0.68900 0.21930 0.12400
N 	N 	0.99779 0.63883 0.25486 -0.31200
H 	H 	0.00640 0.61920 0.26440 0.09800
H 	H 	0.00690 0.65970 0.26060 0.12400
C 	C 	0.01428 0.68958 0.06288 0.14500
C 	C 	0.99628 0.65207 0.10486 0.21200
C 	C 	0.92690 0.65440 0.19395 0.13400
C 	C 	0.96991 0.63691 0.23084 0.20000
Cu	Cu	0.41514 0.17057 0.10918 0.78700
Cu	Cu	0.44545 0.23158 0.04683 0.78100
S 	S 	0.54268 0.21126 0.03144 -0.55200
S 	S 	0.39885 0.18308 0.16903 -0.48200
N 	N 	0.48003 0.19639 0.06954 -0.27300
N 	N 	0.46844 0.17220 0.09715 -0.25000
N 	N 	0.52615 0.16213 0.08490 -0.24800
H 	H 	0.54780 0.15310 0.08600 0.12500
N 	N 	0.49758 0.12535 0.13126 -0.32600
H 	H 	0.47860 0.12090 0.14440 0.12300
H 	H 	0.51730 0.11310 0.13460 0.14300
N 	N 	0.42559 0.11843 0.19592 -0.26600
N 	N 	0.45339 0.10739 0.21960 -0.25400
N 	N 	0.45413 0.16660 0.21574 -0.24800
H 	H 	0.46020 0.18900 0.21930 0.12200
N 	N 	0.49779 0.13883 0.25486 -0.32700
H 	H 	0.50640 0.11920 0.26440 0.10700
H 	H 	0.50690 0.15970 0.26060 0.13300
C 	C 	0.51428 0.18958 0.06288 0.15200
C 	C 	0.49628 0.15207 0.10486 0.20600
C 	C 	0.42690 0.15440 0.19395 0.13400
C 	C 	0.46991 0.13691 0.23084 0.20000
Cu	Cu	0.41514 0.67057 0.60918 0.78700
Cu	Cu	0.44545 0.73158 0.54683 0.78200
S 	S 	0.54268 0.71126 0.53144 -0.54800
S 	S 	0.39885 0.68308 0.66903 -0.48200
N 	N 	0.48003 0.69639 0.56954 -0.27300
N 	N 	0.46844 0.67220 0.59715 -0.25000
N 	N 	0.52615 0.66213 0.58490 -0.24800
H 	H 	0.54780 0.65310 0.58600 0.12600
N 	N 	0.49758 0.62535 0.63126 -0.32600
H 	H 	0.47860 0.62090 0.64440 0.12300
H 	H 	0.51730 0.61310 0.63460 0.14300
N 	N 	0.42559 0.61843 0.69592 -0.26600
N 	N 	0.45339 0.60739 0.71960 -0.25400
N 	N 	0.45413 0.66660 0.71574 -0.24800
H 	H 	0.46020 0.68900 0.71930 0.12200
N 	N 	0.49779 0.63883 0.75486 -0.32700
H 	H 	0.50640 0.61920 0.76440 0.10700
H 	H 	0.50690 0.65970 0.76060 0.13300
C 	C 	0.51428 0.68958 0.56288 0.15200
C 	C 	0.49628 0.65207 0.60486 0.20600
C 	C 	0.42690 0.65440 0.69395 0.13400
C 	C 	0.46991 0.63691 0.73084 0.20000
Cu	Cu	0.91514 0.82943 0.39082 0.78700
Cu	Cu	0.94545 0.76842 0.45317 0.78300
S 	S 	0.04268 0.78874 0.46856 -0.54900
S 	S 	0.89885 0.81692 0.33097 -0.48200
N 	N 	0.98003 0.80361 0.43046 -0.26800
N 	N 	0.96844 0.82780 0.40285 -0.25000
N 	N 	0.02615 0.83787 0.41510 -0.25100
H 	H 	0.04780 0.84690 0.41400 0.12600
N 	N 	0.99758 0.87465 0.36874 -0.32000
H 	H 	0.97860 0.87910 0.35560 0.12300
H 	H 	0.01730 0.88690 0.36540 0.13700
N 	N 	0.92559 0.88157 0.30408 -0.26600
N 	N 	0.95339 0.89261 0.28040 -0.25200
N 	N 	0.95413 0.83340 0.28426 -0.24700
H 	H 	0.96020 0.81100 0.28070 0.12400
N 	N 	0.99779 0.86117 0.24514 -0.31300
H 	H 	0.00640 0.88080 0.23560 0.09800
H 	H 	0.00690 0.84030 0.23940 0.12400
C 	C 	0.01428 0.81042 0.43712 0.14500
C 	C 	0.99628 0.84793 0.39514 0.21200
C 	C 	0.92690 0.84560 0.30605 0.13400
C 	C 	0.96991 0.86309 0.26916 0.20000
Cu	Cu	0.91514 0.32943 0.89082 0.78700
Cu	Cu	0.94545 0.26842 0.95317 0.78400
S 	S 	0.04268 0.28874 0.96856 -0.54400
S 	S 	0.89885 0.31692 0.83097 -0.48200
N 	N 	0.98003 0.30361 0.93046 -0.26800
N 	N 	0.96844 0.32780 0.90285 -0.25000
N 	N 	0.02615 0.33787 0.91510 -0.25100
H 	H 	0.04780 0.34690 0.91400 0.12600
N 	N 	0.99758 0.37465 0.86874 -0.32000
H 	H 	0.97860 0.37910 0.85560 0.12300
H 	H 	0.01730 0.38690 0.86540 0.13700
N 	N 	0.92559 0.38157 0.80408 -0.26600
N 	N 	0.95339 0.39261 0.78040 -0.25200
N 	N 	0.95413 0.33340 0.78426 -0.24700
H 	H 	0.96020 0.31100 0.78070 0.12400
N 	N 	0.99779 0.36117 0.74514 -0.31200
H 	H 	0.00640 0.38080 0.73560 0.09800
H 	H 	0.00690 0.34030 0.73940 0.12400
C 	C 	0.01428 0.31042 0.93712 0.14500
C 	C 	0.99628 0.34793 0.89514 0.21200
C 	C 	0.92690 0.34560 0.80605 0.13400
C 	C 	0.96991 0.36309 0.76916 0.20000
Cu	Cu	0.41514 0.82943 0.89082 0.78700
Cu	Cu	0.44545 0.76842 0.95317 0.78400
S 	S 	0.54268 0.78874 0.96856 -0.54300
S 	S 	0.39885 0.81692 0.83097 -0.48200
N 	N 	0.48003 0.80361 0.93046 -0.27200
N 	N 	0.46844 0.82780 0.90285 -0.24900
N 	N 	0.52615 0.83787 0.91510 -0.24800
H 	H 	0.54780 0.84690 0.91400 0.12600
N 	N 	0.49758 0.87465 0.86874 -0.32600
H 	H 	0.47860 0.87910 0.85560 0.12400
H 	H 	0.51730 0.88690 0.86540 0.14400
N 	N 	0.42559 0.88157 0.80408 -0.26600
N 	N 	0.45339 0.89261 0.78040 -0.25400
N 	N 	0.45413 0.83340 0.78426 -0.24800
H 	H 	0.46020 0.81100 0.78070 0.12200
N 	N 	0.49779 0.86117 0.74514 -0.32700
H 	H 	0.50640 0.88080 0.73560 0.10700
H 	H 	0.50690 0.84030 0.73940 0.13300
C 	C 	0.51428 0.81042 0.93712 0.15200
C 	C 	0.49628 0.84793 0.89514 0.20700
C 	C 	0.42690 0.84560 0.80605 0.13400
C 	C 	0.46991 0.86309 0.76916 0.20000
Cu	Cu	0.41514 0.32943 0.39082 0.78700
Cu	Cu	0.44545 0.26842 0.45317 0.78200
S 	S 	0.54268 0.28874 0.46856 -0.54800
S 	S 	0.39885 0.31692 0.33097 -0.48200
N 	N 	0.48003 0.30361 0.43046 -0.27300
N 	N 	0.46844 0.32780 0.40285 -0.25000
N 	N 	0.52615 0.33787 0.41510 -0.24800
H 	H 	0.54780 0.34690 0.41400 0.12600
N 	N 	0.49758 0.37465 0.36874 -0.32600
H 	H 	0.47860 0.37910 0.35560 0.12300
H 	H 	0.51730 0.38690 0.36540 0.14300
N 	N 	0.42559 0.38157 0.30408 -0.26600
N 	N 	0.45339 0.39261 0.28040 -0.25400
N 	N 	0.45413 0.33340 0.28426 -0.24800
H 	H 	0.46020 0.31100 0.28070 0.12200
N 	N 	0.49779 0.36117 0.24514 -0.32700
H 	H 	0.50640 0.38080 0.23560 0.10700
H 	H 	0.50690 0.34030 0.23940 0.13300
C 	C 	0.51428 0.31042 0.43712 0.15200
C 	C 	0.49628 0.34793 0.39514 0.20600
C 	C 	0.42690 0.34560 0.30605 0.13400
C 	C 	0.46991 0.36309 0.26916 0.20000
Cu	Cu	0.85419 0.64581 0.64581 0.73600
I 	I 	0.90351 0.59649 0.59649 -0.64400
Cu	Cu	0.85419 0.14581 0.14581 0.73600
I 	I 	0.90351 0.09649 0.09649 -0.64700
Cu	Cu	0.14581 0.35419 0.64581 0.73600
I 	I 	0.09649 0.40351 0.59649 -0.64700
Cu	Cu	0.14581 0.85419 0.14581 0.73600
I 	I 	0.09649 0.90351 0.09649 -0.64700
Cu	Cu	0.14581 0.64581 0.35419 0.73600
I 	I 	0.09649 0.59649 0.40351 -0.64700
Cu	Cu	0.14581 0.14581 0.85419 0.73600
I 	I 	0.09649 0.09649 0.90351 -0.64700
Cu	Cu	0.85419 0.35419 0.35419 0.73600
I 	I 	0.90351 0.40351 0.40351 -0.64400
Cu	Cu	0.85419 0.85419 0.85419 0.73600
I 	I 	0.90351 0.90351 0.90351 -0.64100
Cu	Cu	0.64581 0.85419 0.64581 0.73600
I 	I 	0.59649 0.90351 0.59649 -0.64400
Cu	Cu	0.64581 0.14581 0.35419 0.73600
I 	I 	0.59649 0.09649 0.40351 -0.64700
Cu	Cu	0.35419 0.14581 0.64581 0.73600
I 	I 	0.40351 0.09649 0.59649 -0.64700
Cu	Cu	0.35419 0.85419 0.35419 0.73600
I 	I 	0.40351 0.90351 0.40351 -0.64400
Cu	Cu	0.64581 0.64581 0.85419 0.73600
I 	I 	0.59649 0.59649 0.90351 -0.64400
Cu	Cu	0.35419 0.64581 0.14581 0.73600
I 	I 	0.40351 0.59649 0.09649 -0.64700
Cu	Cu	0.64581 0.35419 0.14581 0.73600
I 	I 	0.59649 0.40351 0.09649 -0.64700
Cu	Cu	0.35419 0.35419 0.85419 0.73600
I 	I 	0.40351 0.40351 0.90351 -0.64400
Cu	Cu	0.14581 0.35419 0.14581 0.73700
I 	I 	0.09649 0.40351 0.09649 -0.64800
Cu	Cu	0.85419 0.64581 0.14581 0.73600
I 	I 	0.90351 0.59649 0.09649 -0.64600
Cu	Cu	0.14581 0.64581 0.85419 0.73600
I 	I 	0.09649 0.59649 0.90351 -0.64600
Cu	Cu	0.85419 0.35419 0.85419 0.73600
I 	I 	0.90351 0.40351 0.90351 -0.64300
Cu	Cu	0.35419 0.14581 0.14581 0.73700
I 	I 	0.40351 0.09649 0.09649 -0.64800
Cu	Cu	0.35419 0.64581 0.64581 0.73600
I 	I 	0.40351 0.59649 0.59649 -0.64600
Cu	Cu	0.64581 0.14581 0.85419 0.73600
I 	I 	0.59649 0.09649 0.90351 -0.64600
Cu	Cu	0.64581 0.64581 0.35419 0.73600
I 	I 	0.59649 0.59649 0.40351 -0.64600
Cu	Cu	0.64581 0.85419 0.14581 0.73600
I 	I 	0.59649 0.90351 0.09649 -0.64600
Cu	Cu	0.64581 0.35419 0.64581 0.73600
I 	I 	0.59649 0.40351 0.59649 -0.64600
Cu	Cu	0.35419 0.85419 0.85419 0.73600
I 	I 	0.40351 0.90351 0.90351 -0.64300
Cu	Cu	0.35419 0.35419 0.35419 0.73600
I 	I 	0.40351 0.40351 0.40351 -0.64600
Cu	Cu	0.14581 0.14581 0.35419 0.73700
I 	I 	0.09649 0.09649 0.40351 -0.64800
Cu	Cu	0.14581 0.85419 0.64581 0.73600
I 	I 	0.09649 0.90351 0.59649 -0.64600
Cu	Cu	0.85419 0.14581 0.64581 0.73600
I 	I 	0.90351 0.09649 0.59649 -0.64600
Cu	Cu	0.85419 0.85419 0.35419 0.73600
I 	I 	0.90351 0.90351 0.40351 -0.64300
Cu	Cu	0.00000 0.75000 0.50000 0.69800
Cu	Cu	-0.00000 0.25000 -0.00000 0.69400
Cu	Cu	0.50000 0.75000 -0.00000 0.69800
Cu	Cu	0.50000 0.25000 0.50000 0.70100
Cu	Cu	-0.00000 0.25000 0.50000 0.69800
Cu	Cu	-0.00000 0.75000 -0.00000 0.69400
Cu	Cu	0.50000 0.25000 -0.00000 0.69800
Cu	Cu	0.50000 0.75000 0.50000 0.70100
Cu	Cu	0.50000 0.00000 0.75000 0.69800
Cu	Cu	0.50000 0.50000 0.25000 0.70100
Cu	Cu	0.00000 0.00000 0.25000 0.69400
Cu	Cu	0.00000 0.50000 0.75000 0.69800
Cu	Cu	0.50000 0.00000 0.25000 0.69800
Cu	Cu	0.50000 0.50000 0.75000 0.70100
Cu	Cu	0.00000 0.00000 0.75000 0.69400
Cu	Cu	0.00000 0.50000 0.25000 0.69800
Cu	Cu	0.75000 0.50000 -0.00000 0.69800
Cu	Cu	0.75000 0.00000 0.50000 0.69800
Cu	Cu	0.25000 0.50000 0.50000 0.70100
Cu	Cu	0.25000 0.00000 -0.00000 0.69400
Cu	Cu	0.25000 0.50000 -0.00000 0.69800
Cu	Cu	0.25000 0.00000 0.50000 0.69800
Cu	Cu	0.75000 0.50000 0.50000 0.70100
Cu	Cu	0.75000 0.00000 -0.00000 0.69400
