data_crystal

_cell_length_a 36.39970
_cell_length_b 36.39970
_cell_length_c 36.39970
_cell_angle_alpha 90.00000
_cell_angle_beta  90.00000
_cell_angle_gamma 90.00000

_symmetry_space_group_name_	'P 1'
_symmetry_space_group_name_H-M	'P 1'

loop_
_symmetry_equiv_pos_as_xyz
  x,y,z

loop_
_atom_site_label
_atom_site_type_symbol
_atom_site_fract_x
_atom_site_fract_y
_atom_site_fract_z
_atom_site_charge
Cu	Cu	0.89012 0.67053 0.58582 0.79600
Cu	Cu	0.95316 0.73158 0.55467 0.78500
S 	S 	0.96823 0.71101 0.45733 -0.54400
S 	S 	0.83026 0.68437 0.60173 -0.48500
N 	N 	0.93023 0.69552 0.52054 -0.26900
N 	N 	0.90299 0.67102 0.53238 -0.24700
N 	N 	0.91491 0.66055 0.47489 -0.25200
H 	H 	0.91410 0.65090 0.45340 0.12800
N 	N 	0.86909 0.62337 0.50366 -0.33100
H 	H 	0.85640 0.61860 0.52300 0.12900
H 	H 	0.86550 0.61100 0.48390 0.14600
N 	N 	0.80433 0.61907 0.57466 -0.26800
N 	N 	0.78059 0.60725 0.54638 -0.25500
N 	N 	0.78403 0.66699 0.54559 -0.25100
H 	H 	0.78040 0.68950 0.53950 0.12300
N 	N 	0.74583 0.63846 0.50081 -0.32500
H 	H 	0.73690 0.61840 0.49200 0.10200
H 	H 	0.73980 0.65920 0.49130 0.13200
C 	C 	0.93660 0.68909 0.48587 0.15200
C 	C 	0.89497 0.65052 0.50439 0.21700
C 	C 	0.80555 0.65497 0.57304 0.13800
C 	C 	0.76920 0.63737 0.52940 0.19900
Cu	Cu	0.89012 0.17053 0.08582 0.79600
Cu	Cu	0.95316 0.23158 0.05467 0.78400
S 	S 	0.96823 0.21101 0.95733 -0.54200
S 	S 	0.83026 0.18437 0.10173 -0.48500
N 	N 	0.93023 0.19552 0.02054 -0.27300
N 	N 	0.90299 0.17102 0.03238 -0.24600
N 	N 	0.91491 0.16055 0.97489 -0.24900
H 	H 	0.91410 0.15090 0.95340 0.12800
N 	N 	0.86909 0.12337 0.00366 -0.33700
H 	H 	0.85640 0.11860 0.02300 0.12900
H 	H 	0.86550 0.11100 0.98390 0.15200
N 	N 	0.80433 0.11907 0.07466 -0.26800
N 	N 	0.78059 0.10725 0.04638 -0.25600
N 	N 	0.78403 0.16699 0.04559 -0.25100
H 	H 	0.78040 0.18950 0.03950 0.12200
N 	N 	0.74583 0.13846 0.00081 -0.34000
H 	H 	0.73690 0.11840 0.99200 0.11200
H 	H 	0.73980 0.15920 0.99130 0.14100
C 	C 	0.93660 0.18909 0.98587 0.15900
C 	C 	0.89497 0.15052 0.00439 0.21000
C 	C 	0.80555 0.15497 0.07304 0.13800
C 	C 	0.76920 0.13737 0.02940 0.20000
Cu	Cu	0.39012 0.67053 0.08582 0.79600
Cu	Cu	0.45316 0.73158 0.05467 0.78300
S 	S 	0.46823 0.71101 0.95733 -0.54700
S 	S 	0.33026 0.68437 0.10173 -0.48500
N 	N 	0.43023 0.69552 0.02054 -0.27400
N 	N 	0.40299 0.67102 0.03238 -0.24600
N 	N 	0.41491 0.66055 0.97489 -0.24900
H 	H 	0.41410 0.65090 0.95340 0.12800
N 	N 	0.36909 0.62337 0.00366 -0.33700
H 	H 	0.35640 0.61860 0.02300 0.12900
H 	H 	0.36550 0.61100 0.98390 0.15200
N 	N 	0.30433 0.61907 0.07466 -0.26800
N 	N 	0.28059 0.60725 0.04638 -0.25600
N 	N 	0.28403 0.66699 0.04559 -0.25100
H 	H 	0.28040 0.68950 0.03950 0.12200
N 	N 	0.24583 0.63846 0.00081 -0.34000
H 	H 	0.23690 0.61840 0.99200 0.11200
H 	H 	0.23980 0.65920 0.99130 0.14100
C 	C 	0.43660 0.68909 0.98587 0.15900
C 	C 	0.39497 0.65052 0.00439 0.21000
C 	C 	0.30555 0.65497 0.07304 0.13800
C 	C 	0.26920 0.63737 0.02940 0.20000
Cu	Cu	0.39012 0.17053 0.58582 0.79600
Cu	Cu	0.45316 0.23158 0.55467 0.78300
S 	S 	0.46823 0.21101 0.45733 -0.55000
S 	S 	0.33026 0.18437 0.60173 -0.48500
N 	N 	0.43023 0.19552 0.52054 -0.27000
N 	N 	0.40299 0.17102 0.53238 -0.24700
N 	N 	0.41491 0.16055 0.47489 -0.25200
H 	H 	0.41410 0.15090 0.45340 0.12700
N 	N 	0.36909 0.12337 0.50366 -0.33100
H 	H 	0.35640 0.11860 0.52300 0.12800
H 	H 	0.36550 0.11100 0.48390 0.14500
N 	N 	0.30433 0.11907 0.57466 -0.26800
N 	N 	0.28059 0.10725 0.54638 -0.25500
N 	N 	0.28403 0.16699 0.54559 -0.25100
H 	H 	0.28040 0.18950 0.53950 0.12300
N 	N 	0.24583 0.13846 0.50081 -0.32500
H 	H 	0.23690 0.11840 0.49200 0.10200
H 	H 	0.23980 0.15920 0.49130 0.13200
C 	C 	0.43660 0.18909 0.48587 0.15200
C 	C 	0.39497 0.15052 0.50439 0.21600
C 	C 	0.30555 0.15497 0.57304 0.13800
C 	C 	0.26920 0.13737 0.52940 0.19900
Cu	Cu	0.10988 0.32947 0.58582 0.79600
Cu	Cu	0.04684 0.26842 0.55467 0.78200
S 	S 	0.03177 0.28899 0.45733 -0.55400
S 	S 	0.16974 0.31563 0.60173 -0.48500
N 	N 	0.06977 0.30448 0.52054 -0.27000
N 	N 	0.09701 0.32898 0.53238 -0.24700
N 	N 	0.08509 0.33945 0.47489 -0.25200
H 	H 	0.08590 0.34910 0.45340 0.12700
N 	N 	0.13091 0.37663 0.50366 -0.33100
H 	H 	0.14360 0.38140 0.52300 0.12800
H 	H 	0.13450 0.38900 0.48390 0.14500
N 	N 	0.19567 0.38093 0.57466 -0.26800
N 	N 	0.21941 0.39275 0.54638 -0.25500
N 	N 	0.21597 0.33301 0.54559 -0.25100
H 	H 	0.21960 0.31050 0.53950 0.12300
N 	N 	0.25417 0.36154 0.50081 -0.32500
H 	H 	0.26310 0.38160 0.49200 0.10200
H 	H 	0.26020 0.34080 0.49130 0.13200
C 	C 	0.06340 0.31091 0.48587 0.15200
C 	C 	0.10503 0.34948 0.50439 0.21600
C 	C 	0.19445 0.34503 0.57304 0.13800
C 	C 	0.23080 0.36263 0.52940 0.19900
Cu	Cu	0.10988 0.82947 0.08582 0.79600
Cu	Cu	0.04684 0.76842 0.05467 0.78200
S 	S 	0.03177 0.78899 0.95733 -0.55100
S 	S 	0.16974 0.81563 0.10173 -0.48500
N 	N 	0.06977 0.80448 0.02054 -0.27400
N 	N 	0.09701 0.82898 0.03238 -0.24600
N 	N 	0.08509 0.83945 0.97489 -0.24900
H 	H 	0.08590 0.84910 0.95340 0.12800
N 	N 	0.13091 0.87663 0.00366 -0.33700
H 	H 	0.14360 0.88140 0.02300 0.12900
H 	H 	0.13450 0.88900 0.98390 0.15200
N 	N 	0.19567 0.88093 0.07466 -0.26800
N 	N 	0.21941 0.89275 0.04638 -0.25600
N 	N 	0.21597 0.83301 0.04559 -0.25100
H 	H 	0.21960 0.81050 0.03950 0.12200
N 	N 	0.25417 0.86154 0.00081 -0.34000
H 	H 	0.26310 0.88160 0.99200 0.11100
H 	H 	0.26020 0.84080 0.99130 0.14100
C 	C 	0.06340 0.81091 0.98587 0.15900
C 	C 	0.10503 0.84948 0.00439 0.21000
C 	C 	0.19445 0.84503 0.07304 0.13800
C 	C 	0.23080 0.86263 0.02940 0.20000
Cu	Cu	0.60988 0.32947 0.08582 0.79600
Cu	Cu	0.54684 0.26842 0.05467 0.78300
S 	S 	0.53177 0.28899 0.95733 -0.54700
S 	S 	0.66974 0.31563 0.10173 -0.48500
N 	N 	0.56977 0.30448 0.02054 -0.27400
N 	N 	0.59701 0.32898 0.03238 -0.24600
N 	N 	0.58509 0.33945 0.97489 -0.24900
H 	H 	0.58590 0.34910 0.95340 0.12800
N 	N 	0.63091 0.37663 0.00366 -0.33700
H 	H 	0.64360 0.38140 0.02300 0.12900
H 	H 	0.63450 0.38900 0.98390 0.15200
N 	N 	0.69567 0.38093 0.07466 -0.26800
N 	N 	0.71941 0.39275 0.04638 -0.25600
N 	N 	0.71597 0.33301 0.04559 -0.25100
H 	H 	0.71960 0.31050 0.03950 0.12200
N 	N 	0.75417 0.36154 0.00081 -0.34000
H 	H 	0.76310 0.38160 0.99200 0.11100
H 	H 	0.76020 0.34080 0.99130 0.14100
C 	C 	0.56340 0.31091 0.98587 0.15900
C 	C 	0.60503 0.34948 0.00439 0.21000
C 	C 	0.69445 0.34503 0.07304 0.13800
C 	C 	0.73080 0.36263 0.02940 0.20000
Cu	Cu	0.60988 0.82947 0.58582 0.79600
Cu	Cu	0.54684 0.76842 0.55467 0.78300
S 	S 	0.53177 0.78899 0.45733 -0.55000
S 	S 	0.66974 0.81563 0.60173 -0.48500
N 	N 	0.56977 0.80448 0.52054 -0.27000
N 	N 	0.59701 0.82898 0.53238 -0.24700
N 	N 	0.58509 0.83945 0.47489 -0.25200
H 	H 	0.58590 0.84910 0.45340 0.12800
N 	N 	0.63091 0.87663 0.50366 -0.33100
H 	H 	0.64360 0.88140 0.52300 0.12900
H 	H 	0.63450 0.88900 0.48390 0.14600
N 	N 	0.69567 0.88093 0.57466 -0.26800
N 	N 	0.71941 0.89275 0.54638 -0.25500
N 	N 	0.71597 0.83301 0.54559 -0.25100
H 	H 	0.71960 0.81050 0.53950 0.12300
N 	N 	0.75417 0.86154 0.50081 -0.32500
H 	H 	0.76310 0.88160 0.49200 0.10200
H 	H 	0.76020 0.84080 0.49130 0.13200
C 	C 	0.56340 0.81091 0.48587 0.15200
C 	C 	0.60503 0.84948 0.50439 0.21600
C 	C 	0.69445 0.84503 0.57304 0.13800
C 	C 	0.73080 0.86263 0.52940 0.19900
Cu	Cu	0.10988 0.67053 0.41418 0.79600
Cu	Cu	0.04684 0.73158 0.44533 0.78200
S 	S 	0.03177 0.71101 0.54267 -0.55400
S 	S 	0.16974 0.68437 0.39827 -0.48500
N 	N 	0.06977 0.69552 0.47946 -0.27000
N 	N 	0.09701 0.67102 0.46762 -0.24700
N 	N 	0.08509 0.66055 0.52511 -0.25200
H 	H 	0.08590 0.65090 0.54660 0.12700
N 	N 	0.13091 0.62337 0.49634 -0.33100
H 	H 	0.14360 0.61860 0.47700 0.12800
H 	H 	0.13450 0.61100 0.51610 0.14500
N 	N 	0.19567 0.61907 0.42534 -0.26800
N 	N 	0.21941 0.60725 0.45362 -0.25500
N 	N 	0.21597 0.66699 0.45441 -0.25100
H 	H 	0.21960 0.68950 0.46050 0.12300
N 	N 	0.25417 0.63846 0.49919 -0.32500
H 	H 	0.26310 0.61840 0.50800 0.10200
H 	H 	0.26020 0.65920 0.50870 0.13200
C 	C 	0.06340 0.68909 0.51413 0.15200
C 	C 	0.10503 0.65052 0.49561 0.21600
C 	C 	0.19445 0.65497 0.42696 0.13800
C 	C 	0.23080 0.63737 0.47060 0.19900
Cu	Cu	0.10988 0.17053 0.91418 0.79600
Cu	Cu	0.04684 0.23158 0.94533 0.78300
S 	S 	0.03177 0.21101 0.04267 -0.55500
S 	S 	0.16974 0.18437 0.89827 -0.48400
N 	N 	0.06977 0.19552 0.97946 -0.26600
N 	N 	0.09701 0.17102 0.96762 -0.24800
N 	N 	0.08509 0.16055 0.02511 -0.25500
H 	H 	0.08590 0.15090 0.04660 0.12700
N 	N 	0.13091 0.12337 0.99634 -0.32400
H 	H 	0.14360 0.11860 0.97700 0.12800
H 	H 	0.13450 0.11100 0.01610 0.13800
N 	N 	0.19567 0.11907 0.92534 -0.26800
N 	N 	0.21941 0.10725 0.95362 -0.25300
N 	N 	0.21597 0.16699 0.95441 -0.25000
H 	H 	0.21960 0.18950 0.96050 0.12500
N 	N 	0.25417 0.13846 0.99919 -0.31000
H 	H 	0.26310 0.11840 0.00800 0.09300
H 	H 	0.26020 0.15920 0.00870 0.12300
C 	C 	0.06340 0.18909 0.01413 0.14400
C 	C 	0.10503 0.15052 0.99561 0.22100
C 	C 	0.19445 0.15497 0.92696 0.13800
C 	C 	0.23080 0.13737 0.97060 0.19900
Cu	Cu	0.60988 0.67053 0.91418 0.79600
Cu	Cu	0.54684 0.73158 0.94533 0.78400
S 	S 	0.53177 0.71101 0.04267 -0.55100
S 	S 	0.66974 0.68437 0.89827 -0.48400
N 	N 	0.56977 0.69552 0.97946 -0.26600
N 	N 	0.59701 0.67102 0.96762 -0.24700
N 	N 	0.58509 0.66055 0.02511 -0.25500
H 	H 	0.58590 0.65090 0.04660 0.12700
N 	N 	0.63091 0.62337 0.99634 -0.32400
H 	H 	0.64360 0.61860 0.97700 0.12800
H 	H 	0.63450 0.61100 0.01610 0.13800
N 	N 	0.69567 0.61907 0.92534 -0.26800
N 	N 	0.71941 0.60725 0.95362 -0.25300
N 	N 	0.71597 0.66699 0.95441 -0.25000
H 	H 	0.71960 0.68950 0.96050 0.12400
N 	N 	0.75417 0.63846 0.99919 -0.31000
H 	H 	0.76310 0.61840 0.00800 0.09300
H 	H 	0.76020 0.65920 0.00870 0.12300
C 	C 	0.56340 0.68909 0.01413 0.14400
C 	C 	0.60503 0.65052 0.99561 0.22200
C 	C 	0.69445 0.65497 0.92696 0.13800
C 	C 	0.73080 0.63737 0.97060 0.19900
Cu	Cu	0.60988 0.17053 0.41418 0.79600
Cu	Cu	0.54684 0.23158 0.44533 0.78300
S 	S 	0.53177 0.21101 0.54267 -0.55000
S 	S 	0.66974 0.18437 0.39827 -0.48500
N 	N 	0.56977 0.19552 0.47946 -0.27000
N 	N 	0.59701 0.17102 0.46762 -0.24700
N 	N 	0.58509 0.16055 0.52511 -0.25200
H 	H 	0.58590 0.15090 0.54660 0.12700
N 	N 	0.63091 0.12337 0.49634 -0.33100
H 	H 	0.64360 0.11860 0.47700 0.12800
H 	H 	0.63450 0.11100 0.51610 0.14500
N 	N 	0.69567 0.11907 0.42534 -0.26800
N 	N 	0.71941 0.10725 0.45362 -0.25500
N 	N 	0.71597 0.16699 0.45441 -0.25100
H 	H 	0.71960 0.18950 0.46050 0.12300
N 	N 	0.75417 0.13846 0.49919 -0.32500
H 	H 	0.76310 0.11840 0.50800 0.10200
H 	H 	0.76020 0.15920 0.50870 0.13200
C 	C 	0.56340 0.18909 0.51413 0.15200
C 	C 	0.60503 0.15052 0.49561 0.21600
C 	C 	0.69445 0.15497 0.42696 0.13800
C 	C 	0.73080 0.13737 0.47060 0.19900
Cu	Cu	0.89012 0.32947 0.41418 0.79600
Cu	Cu	0.95316 0.26842 0.44533 0.78500
S 	S 	0.96823 0.28899 0.54267 -0.54400
S 	S 	0.83026 0.31563 0.39827 -0.48500
N 	N 	0.93023 0.30448 0.47946 -0.26900
N 	N 	0.90299 0.32898 0.46762 -0.24700
N 	N 	0.91491 0.33945 0.52511 -0.25200
H 	H 	0.91410 0.34910 0.54660 0.12800
N 	N 	0.86909 0.37663 0.49634 -0.33100
H 	H 	0.85640 0.38140 0.47700 0.12900
H 	H 	0.86550 0.38900 0.51610 0.14600
N 	N 	0.80433 0.38093 0.42534 -0.26800
N 	N 	0.78059 0.39275 0.45362 -0.25500
N 	N 	0.78403 0.33301 0.45441 -0.25100
H 	H 	0.78040 0.31050 0.46050 0.12300
N 	N 	0.74583 0.36154 0.49919 -0.32500
H 	H 	0.73690 0.38160 0.50800 0.10200
H 	H 	0.73980 0.34080 0.50870 0.13200
C 	C 	0.93660 0.31091 0.51413 0.15200
C 	C 	0.89497 0.34948 0.49561 0.21700
C 	C 	0.80555 0.34503 0.42696 0.13800
C 	C 	0.76920 0.36263 0.47060 0.19900
Cu	Cu	0.89012 0.82947 0.91418 0.79600
Cu	Cu	0.95316 0.76842 0.94533 0.78500
S 	S 	0.96823 0.78899 0.04267 -0.54500
S 	S 	0.83026 0.81563 0.89827 -0.48400
N 	N 	0.93023 0.80448 0.97946 -0.26500
N 	N 	0.90299 0.82898 0.96762 -0.24700
N 	N 	0.91491 0.83945 0.02511 -0.25500
H 	H 	0.91410 0.84910 0.04660 0.12800
N 	N 	0.86909 0.87663 0.99634 -0.32500
H 	H 	0.85640 0.88140 0.97700 0.12800
H 	H 	0.86550 0.88900 0.01610 0.13900
N 	N 	0.80433 0.88093 0.92534 -0.26800
N 	N 	0.78059 0.89275 0.95362 -0.25300
N 	N 	0.78403 0.83301 0.95441 -0.25000
H 	H 	0.78040 0.81050 0.96050 0.12400
N 	N 	0.74583 0.86154 0.99919 -0.31000
H 	H 	0.73690 0.88160 0.00800 0.09300
H 	H 	0.73980 0.84080 0.00870 0.12300
C 	C 	0.93660 0.81091 0.01413 0.14500
C 	C 	0.89497 0.84948 0.99561 0.22300
C 	C 	0.80555 0.84503 0.92696 0.13800
C 	C 	0.76920 0.86263 0.97060 0.19900
Cu	Cu	0.39012 0.32947 0.91418 0.79600
Cu	Cu	0.45316 0.26842 0.94533 0.78400
S 	S 	0.46823 0.28899 0.04267 -0.55100
S 	S 	0.33026 0.31563 0.89827 -0.48400
N 	N 	0.43023 0.30448 0.97946 -0.26600
N 	N 	0.40299 0.32898 0.96762 -0.24700
N 	N 	0.41491 0.33945 0.02511 -0.25500
H 	H 	0.41410 0.34910 0.04660 0.12700
N 	N 	0.36909 0.37663 0.99634 -0.32400
H 	H 	0.35640 0.38140 0.97700 0.12800
H 	H 	0.36550 0.38900 0.01610 0.13800
N 	N 	0.30433 0.38093 0.92534 -0.26800
N 	N 	0.28059 0.39275 0.95362 -0.25300
N 	N 	0.28403 0.33301 0.95441 -0.25000
H 	H 	0.28040 0.31050 0.96050 0.12500
N 	N 	0.24583 0.36154 0.99919 -0.31000
H 	H 	0.23690 0.38160 0.00800 0.09300
H 	H 	0.23980 0.34080 0.00870 0.12300
C 	C 	0.43660 0.31091 0.01413 0.14400
C 	C 	0.39497 0.34948 0.99561 0.22200
C 	C 	0.30555 0.34503 0.92696 0.13800
C 	C 	0.26920 0.36263 0.97060 0.19900
Cu	Cu	0.39012 0.82947 0.41418 0.79600
Cu	Cu	0.45316 0.76842 0.44533 0.78300
S 	S 	0.46823 0.78899 0.54267 -0.55000
S 	S 	0.33026 0.81563 0.39827 -0.48500
N 	N 	0.43023 0.80448 0.47946 -0.27000
N 	N 	0.40299 0.82898 0.46762 -0.24700
N 	N 	0.41491 0.83945 0.52511 -0.25200
H 	H 	0.41410 0.84910 0.54660 0.12800
N 	N 	0.36909 0.87663 0.49634 -0.33100
H 	H 	0.35640 0.88140 0.47700 0.12900
H 	H 	0.36550 0.88900 0.51610 0.14600
N 	N 	0.30433 0.88093 0.42534 -0.26800
N 	N 	0.28059 0.89275 0.45362 -0.25500
N 	N 	0.28403 0.83301 0.45441 -0.25100
H 	H 	0.28040 0.81050 0.46050 0.12300
N 	N 	0.24583 0.86154 0.49919 -0.32500
H 	H 	0.23690 0.88160 0.50800 0.10200
H 	H 	0.23980 0.84080 0.50870 0.13200
C 	C 	0.43660 0.81091 0.51413 0.15200
C 	C 	0.39497 0.84948 0.49561 0.21600
C 	C 	0.30555 0.84503 0.42696 0.13800
C 	C 	0.26920 0.86263 0.47060 0.19900
Cu	Cu	0.58582 0.89012 0.67053 0.79600
Cu	Cu	0.55467 0.95316 0.73158 0.78500
S 	S 	0.45733 0.96823 0.71101 -0.54400
S 	S 	0.60173 0.83026 0.68437 -0.48500
N 	N 	0.52054 0.93023 0.69552 -0.26900
N 	N 	0.53238 0.90299 0.67102 -0.24700
N 	N 	0.47489 0.91491 0.66055 -0.25200
H 	H 	0.45340 0.91410 0.65090 0.12800
N 	N 	0.50366 0.86909 0.62337 -0.33100
H 	H 	0.52300 0.85640 0.61860 0.12900
H 	H 	0.48390 0.86550 0.61100 0.14600
N 	N 	0.57466 0.80433 0.61907 -0.26800
N 	N 	0.54638 0.78059 0.60725 -0.25500
N 	N 	0.54559 0.78403 0.66699 -0.25100
H 	H 	0.53950 0.78040 0.68950 0.12300
N 	N 	0.50081 0.74583 0.63846 -0.32500
H 	H 	0.49200 0.73690 0.61840 0.10200
H 	H 	0.49130 0.73980 0.65920 0.13200
C 	C 	0.48587 0.93660 0.68909 0.15200
C 	C 	0.50439 0.89497 0.65052 0.21700
C 	C 	0.57304 0.80555 0.65497 0.13800
C 	C 	0.52940 0.76920 0.63737 0.19900
Cu	Cu	0.58582 0.39012 0.17053 0.79600
Cu	Cu	0.55467 0.45316 0.23158 0.78300
S 	S 	0.45733 0.46823 0.21101 -0.55000
S 	S 	0.60173 0.33026 0.18437 -0.48500
N 	N 	0.52054 0.43023 0.19552 -0.27000
N 	N 	0.53238 0.40299 0.17102 -0.24700
N 	N 	0.47489 0.41491 0.16055 -0.25200
H 	H 	0.45340 0.41410 0.15090 0.12700
N 	N 	0.50366 0.36909 0.12337 -0.33100
H 	H 	0.52300 0.35640 0.11860 0.12800
H 	H 	0.48390 0.36550 0.11100 0.14500
N 	N 	0.57466 0.30433 0.11907 -0.26800
N 	N 	0.54638 0.28059 0.10725 -0.25500
N 	N 	0.54559 0.28403 0.16699 -0.25100
H 	H 	0.53950 0.28040 0.18950 0.12300
N 	N 	0.50081 0.24583 0.13846 -0.32500
H 	H 	0.49200 0.23690 0.11840 0.10200
H 	H 	0.49130 0.23980 0.15920 0.13200
C 	C 	0.48587 0.43660 0.18909 0.15200
C 	C 	0.50439 0.39497 0.15052 0.21600
C 	C 	0.57304 0.30555 0.15497 0.13800
C 	C 	0.52940 0.26920 0.13737 0.19900
Cu	Cu	0.08582 0.89012 0.17053 0.79600
Cu	Cu	0.05467 0.95316 0.23158 0.78400
S 	S 	0.95733 0.96823 0.21101 -0.54200
S 	S 	0.10173 0.83026 0.18437 -0.48500
N 	N 	0.02054 0.93023 0.19552 -0.27300
N 	N 	0.03238 0.90299 0.17102 -0.24600
N 	N 	0.97489 0.91491 0.16055 -0.24900
H 	H 	0.95340 0.91410 0.15090 0.12800
N 	N 	0.00366 0.86909 0.12337 -0.33700
H 	H 	0.02300 0.85640 0.11860 0.12900
H 	H 	0.98390 0.86550 0.11100 0.15200
N 	N 	0.07466 0.80433 0.11907 -0.26800
N 	N 	0.04638 0.78059 0.10725 -0.25600
N 	N 	0.04559 0.78403 0.16699 -0.25100
H 	H 	0.03950 0.78040 0.18950 0.12200
N 	N 	0.00081 0.74583 0.13846 -0.34000
H 	H 	0.99200 0.73690 0.11840 0.11200
H 	H 	0.99130 0.73980 0.15920 0.14100
C 	C 	0.98587 0.93660 0.18909 0.15900
C 	C 	0.00439 0.89497 0.15052 0.21000
C 	C 	0.07304 0.80555 0.15497 0.13800
C 	C 	0.02940 0.76920 0.13737 0.20000
Cu	Cu	0.08582 0.39012 0.67053 0.79600
Cu	Cu	0.05467 0.45316 0.73158 0.78300
S 	S 	0.95733 0.46823 0.71101 -0.54700
S 	S 	0.10173 0.33026 0.68437 -0.48500
N 	N 	0.02054 0.43023 0.69552 -0.27400
N 	N 	0.03238 0.40299 0.67102 -0.24600
N 	N 	0.97489 0.41491 0.66055 -0.24900
H 	H 	0.95340 0.41410 0.65090 0.12800
N 	N 	0.00366 0.36909 0.62337 -0.33700
H 	H 	0.02300 0.35640 0.61860 0.12900
H 	H 	0.98390 0.36550 0.61100 0.15200
N 	N 	0.07466 0.30433 0.61907 -0.26800
N 	N 	0.04638 0.28059 0.60725 -0.25600
N 	N 	0.04559 0.28403 0.66699 -0.25100
H 	H 	0.03950 0.28040 0.68950 0.12200
N 	N 	0.00081 0.24583 0.63846 -0.34000
H 	H 	0.99200 0.23690 0.61840 0.11200
H 	H 	0.99130 0.23980 0.65920 0.14100
C 	C 	0.98587 0.43660 0.68909 0.15900
C 	C 	0.00439 0.39497 0.65052 0.21000
C 	C 	0.07304 0.30555 0.65497 0.13800
C 	C 	0.02940 0.26920 0.63737 0.20000
Cu	Cu	0.58582 0.10988 0.32947 0.79600
Cu	Cu	0.55467 0.04684 0.26842 0.78200
S 	S 	0.45733 0.03177 0.28899 -0.55400
S 	S 	0.60173 0.16974 0.31563 -0.48500
N 	N 	0.52054 0.06977 0.30448 -0.27000
N 	N 	0.53238 0.09701 0.32898 -0.24700
N 	N 	0.47489 0.08509 0.33945 -0.25200
H 	H 	0.45340 0.08590 0.34910 0.12700
N 	N 	0.50366 0.13091 0.37663 -0.33100
H 	H 	0.52300 0.14360 0.38140 0.12800
H 	H 	0.48390 0.13450 0.38900 0.14500
N 	N 	0.57466 0.19567 0.38093 -0.26800
N 	N 	0.54638 0.21941 0.39275 -0.25500
N 	N 	0.54559 0.21597 0.33301 -0.25100
H 	H 	0.53950 0.21960 0.31050 0.12300
N 	N 	0.50081 0.25417 0.36154 -0.32500
H 	H 	0.49200 0.26310 0.38160 0.10200
H 	H 	0.49130 0.26020 0.34080 0.13200
C 	C 	0.48587 0.06340 0.31091 0.15200
C 	C 	0.50439 0.10503 0.34948 0.21600
C 	C 	0.57304 0.19445 0.34503 0.13800
C 	C 	0.52940 0.23080 0.36263 0.19900
Cu	Cu	0.58582 0.60988 0.82947 0.79600
Cu	Cu	0.55467 0.54684 0.76842 0.78300
S 	S 	0.45733 0.53177 0.78899 -0.55000
S 	S 	0.60173 0.66974 0.81563 -0.48500
N 	N 	0.52054 0.56977 0.80448 -0.27000
N 	N 	0.53238 0.59701 0.82898 -0.24700
N 	N 	0.47489 0.58509 0.83945 -0.25200
H 	H 	0.45340 0.58590 0.84910 0.12800
N 	N 	0.50366 0.63091 0.87663 -0.33100
H 	H 	0.52300 0.64360 0.88140 0.12900
H 	H 	0.48390 0.63450 0.88900 0.14600
N 	N 	0.57466 0.69567 0.88093 -0.26800
N 	N 	0.54638 0.71941 0.89275 -0.25500
N 	N 	0.54559 0.71597 0.83301 -0.25100
H 	H 	0.53950 0.71960 0.81050 0.12300
N 	N 	0.50081 0.75417 0.86154 -0.32500
H 	H 	0.49200 0.76310 0.88160 0.10200
H 	H 	0.49130 0.76020 0.84080 0.13200
C 	C 	0.48587 0.56340 0.81091 0.15200
C 	C 	0.50439 0.60503 0.84948 0.21600
C 	C 	0.57304 0.69445 0.84503 0.13800
C 	C 	0.52940 0.73080 0.86263 0.19900
Cu	Cu	0.08582 0.10988 0.82947 0.79600
Cu	Cu	0.05467 0.04684 0.76842 0.78200
S 	S 	0.95733 0.03177 0.78899 -0.55100
S 	S 	0.10173 0.16974 0.81563 -0.48500
N 	N 	0.02054 0.06977 0.80448 -0.27400
N 	N 	0.03238 0.09701 0.82898 -0.24600
N 	N 	0.97489 0.08509 0.83945 -0.24900
H 	H 	0.95340 0.08590 0.84910 0.12800
N 	N 	0.00366 0.13091 0.87663 -0.33700
H 	H 	0.02300 0.14360 0.88140 0.12900
H 	H 	0.98390 0.13450 0.88900 0.15200
N 	N 	0.07466 0.19567 0.88093 -0.26800
N 	N 	0.04638 0.21941 0.89275 -0.25600
N 	N 	0.04559 0.21597 0.83301 -0.25100
H 	H 	0.03950 0.21960 0.81050 0.12200
N 	N 	0.00081 0.25417 0.86154 -0.34000
H 	H 	0.99200 0.26310 0.88160 0.11100
H 	H 	0.99130 0.26020 0.84080 0.14100
C 	C 	0.98587 0.06340 0.81091 0.15900
C 	C 	0.00439 0.10503 0.84948 0.21000
C 	C 	0.07304 0.19445 0.84503 0.13800
C 	C 	0.02940 0.23080 0.86263 0.20000
Cu	Cu	0.08582 0.60988 0.32947 0.79600
Cu	Cu	0.05467 0.54684 0.26842 0.78300
S 	S 	0.95733 0.53177 0.28899 -0.54700
S 	S 	0.10173 0.66974 0.31563 -0.48500
N 	N 	0.02054 0.56977 0.30448 -0.27400
N 	N 	0.03238 0.59701 0.32898 -0.24600
N 	N 	0.97489 0.58509 0.33945 -0.24900
H 	H 	0.95340 0.58590 0.34910 0.12800
N 	N 	0.00366 0.63091 0.37663 -0.33700
H 	H 	0.02300 0.64360 0.38140 0.12900
H 	H 	0.98390 0.63450 0.38900 0.15200
N 	N 	0.07466 0.69567 0.38093 -0.26800
N 	N 	0.04638 0.71941 0.39275 -0.25600
N 	N 	0.04559 0.71597 0.33301 -0.25100
H 	H 	0.03950 0.71960 0.31050 0.12200
N 	N 	0.00081 0.75417 0.36154 -0.34000
H 	H 	0.99200 0.76310 0.38160 0.11100
H 	H 	0.99130 0.76020 0.34080 0.14100
C 	C 	0.98587 0.56340 0.31091 0.15900
C 	C 	0.00439 0.60503 0.34948 0.21000
C 	C 	0.07304 0.69445 0.34503 0.13800
C 	C 	0.02940 0.73080 0.36263 0.20000
Cu	Cu	0.41418 0.10988 0.67053 0.79600
Cu	Cu	0.44533 0.04684 0.73158 0.78200
S 	S 	0.54267 0.03177 0.71101 -0.55400
S 	S 	0.39827 0.16974 0.68437 -0.48500
N 	N 	0.47946 0.06977 0.69552 -0.27000
N 	N 	0.46762 0.09701 0.67102 -0.24700
N 	N 	0.52511 0.08509 0.66055 -0.25200
H 	H 	0.54660 0.08590 0.65090 0.12700
N 	N 	0.49634 0.13091 0.62337 -0.33100
H 	H 	0.47700 0.14360 0.61860 0.12800
H 	H 	0.51610 0.13450 0.61100 0.14500
N 	N 	0.42534 0.19567 0.61907 -0.26800
N 	N 	0.45362 0.21941 0.60725 -0.25500
N 	N 	0.45441 0.21597 0.66699 -0.25100
H 	H 	0.46050 0.21960 0.68950 0.12300
N 	N 	0.49919 0.25417 0.63846 -0.32500
H 	H 	0.50800 0.26310 0.61840 0.10200
H 	H 	0.50870 0.26020 0.65920 0.13200
C 	C 	0.51413 0.06340 0.68909 0.15200
C 	C 	0.49561 0.10503 0.65052 0.21600
C 	C 	0.42696 0.19445 0.65497 0.13800
C 	C 	0.47060 0.23080 0.63737 0.19900
Cu	Cu	0.41418 0.60988 0.17053 0.79600
Cu	Cu	0.44533 0.54684 0.23158 0.78300
S 	S 	0.54267 0.53177 0.21101 -0.55000
S 	S 	0.39827 0.66974 0.18437 -0.48500
N 	N 	0.47946 0.56977 0.19552 -0.27000
N 	N 	0.46762 0.59701 0.17102 -0.24700
N 	N 	0.52511 0.58509 0.16055 -0.25200
H 	H 	0.54660 0.58590 0.15090 0.12700
N 	N 	0.49634 0.63091 0.12337 -0.33100
H 	H 	0.47700 0.64360 0.11860 0.12800
H 	H 	0.51610 0.63450 0.11100 0.14500
N 	N 	0.42534 0.69567 0.11907 -0.26800
N 	N 	0.45362 0.71941 0.10725 -0.25500
N 	N 	0.45441 0.71597 0.16699 -0.25100
H 	H 	0.46050 0.71960 0.18950 0.12300
N 	N 	0.49919 0.75417 0.13846 -0.32500
H 	H 	0.50800 0.76310 0.11840 0.10200
H 	H 	0.50870 0.76020 0.15920 0.13200
C 	C 	0.51413 0.56340 0.18909 0.15200
C 	C 	0.49561 0.60503 0.15052 0.21600
C 	C 	0.42696 0.69445 0.15497 0.13800
C 	C 	0.47060 0.73080 0.13737 0.19900
Cu	Cu	0.91418 0.10988 0.17053 0.79600
Cu	Cu	0.94533 0.04684 0.23158 0.78300
S 	S 	0.04267 0.03177 0.21101 -0.55500
S 	S 	0.89827 0.16974 0.18437 -0.48400
N 	N 	0.97946 0.06977 0.19552 -0.26600
N 	N 	0.96762 0.09701 0.17102 -0.24800
N 	N 	0.02511 0.08509 0.16055 -0.25500
H 	H 	0.04660 0.08590 0.15090 0.12700
N 	N 	0.99634 0.13091 0.12337 -0.32400
H 	H 	0.97700 0.14360 0.11860 0.12800
H 	H 	0.01610 0.13450 0.11100 0.13800
N 	N 	0.92534 0.19567 0.11907 -0.26800
N 	N 	0.95362 0.21941 0.10725 -0.25300
N 	N 	0.95441 0.21597 0.16699 -0.25000
H 	H 	0.96050 0.21960 0.18950 0.12500
N 	N 	0.99919 0.25417 0.13846 -0.31000
H 	H 	0.00800 0.26310 0.11840 0.09300
H 	H 	0.00870 0.26020 0.15920 0.12300
C 	C 	0.01413 0.06340 0.18909 0.14400
C 	C 	0.99561 0.10503 0.15052 0.22100
C 	C 	0.92696 0.19445 0.15497 0.13800
C 	C 	0.97060 0.23080 0.13737 0.19900
Cu	Cu	0.91418 0.60988 0.67053 0.79600
Cu	Cu	0.94533 0.54684 0.73158 0.78400
S 	S 	0.04267 0.53177 0.71101 -0.55100
S 	S 	0.89827 0.66974 0.68437 -0.48400
N 	N 	0.97946 0.56977 0.69552 -0.26600
N 	N 	0.96762 0.59701 0.67102 -0.24700
N 	N 	0.02511 0.58509 0.66055 -0.25500
H 	H 	0.04660 0.58590 0.65090 0.12700
N 	N 	0.99634 0.63091 0.62337 -0.32400
H 	H 	0.97700 0.64360 0.61860 0.12800
H 	H 	0.01610 0.63450 0.61100 0.13800
N 	N 	0.92534 0.69567 0.61907 -0.26800
N 	N 	0.95362 0.71941 0.60725 -0.25300
N 	N 	0.95441 0.71597 0.66699 -0.25000
H 	H 	0.96050 0.71960 0.68950 0.12400
N 	N 	0.99919 0.75417 0.63846 -0.31000
H 	H 	0.00800 0.76310 0.61840 0.09300
H 	H 	0.00870 0.76020 0.65920 0.12300
C 	C 	0.01413 0.56340 0.68909 0.14400
C 	C 	0.99561 0.60503 0.65052 0.22200
C 	C 	0.92696 0.69445 0.65497 0.13800
C 	C 	0.97060 0.73080 0.63737 0.19900
Cu	Cu	0.41418 0.89012 0.32947 0.79600
Cu	Cu	0.44533 0.95316 0.26842 0.78500
S 	S 	0.54267 0.96823 0.28899 -0.54400
S 	S 	0.39827 0.83026 0.31563 -0.48500
N 	N 	0.47946 0.93023 0.30448 -0.26900
N 	N 	0.46762 0.90299 0.32898 -0.24700
N 	N 	0.52511 0.91491 0.33945 -0.25200
H 	H 	0.54660 0.91410 0.34910 0.12800
N 	N 	0.49634 0.86909 0.37663 -0.33100
H 	H 	0.47700 0.85640 0.38140 0.12900
H 	H 	0.51610 0.86550 0.38900 0.14600
N 	N 	0.42534 0.80433 0.38093 -0.26800
N 	N 	0.45362 0.78059 0.39275 -0.25500
N 	N 	0.45441 0.78403 0.33301 -0.25100
H 	H 	0.46050 0.78040 0.31050 0.12300
N 	N 	0.49919 0.74583 0.36154 -0.32500
H 	H 	0.50800 0.73690 0.38160 0.10200
H 	H 	0.50870 0.73980 0.34080 0.13200
C 	C 	0.51413 0.93660 0.31091 0.15200
C 	C 	0.49561 0.89497 0.34948 0.21700
C 	C 	0.42696 0.80555 0.34503 0.13800
C 	C 	0.47060 0.76920 0.36263 0.19900
Cu	Cu	0.41418 0.39012 0.82947 0.79600
Cu	Cu	0.44533 0.45316 0.76842 0.78300
S 	S 	0.54267 0.46823 0.78899 -0.55000
S 	S 	0.39827 0.33026 0.81563 -0.48500
N 	N 	0.47946 0.43023 0.80448 -0.27000
N 	N 	0.46762 0.40299 0.82898 -0.24700
N 	N 	0.52511 0.41491 0.83945 -0.25200
H 	H 	0.54660 0.41410 0.84910 0.12800
N 	N 	0.49634 0.36909 0.87663 -0.33100
H 	H 	0.47700 0.35640 0.88140 0.12900
H 	H 	0.51610 0.36550 0.88900 0.14600
N 	N 	0.42534 0.30433 0.88093 -0.26800
N 	N 	0.45362 0.28059 0.89275 -0.25500
N 	N 	0.45441 0.28403 0.83301 -0.25100
H 	H 	0.46050 0.28040 0.81050 0.12300
N 	N 	0.49919 0.24583 0.86154 -0.32500
H 	H 	0.50800 0.23690 0.88160 0.10200
H 	H 	0.50870 0.23980 0.84080 0.13200
C 	C 	0.51413 0.43660 0.81091 0.15200
C 	C 	0.49561 0.39497 0.84948 0.21600
C 	C 	0.42696 0.30555 0.84503 0.13800
C 	C 	0.47060 0.26920 0.86263 0.19900
Cu	Cu	0.91418 0.89012 0.82947 0.79600
Cu	Cu	0.94533 0.95316 0.76842 0.78500
S 	S 	0.04267 0.96823 0.78899 -0.54500
S 	S 	0.89827 0.83026 0.81563 -0.48400
N 	N 	0.97946 0.93023 0.80448 -0.26500
N 	N 	0.96762 0.90299 0.82898 -0.24700
N 	N 	0.02511 0.91491 0.83945 -0.25500
H 	H 	0.04660 0.91410 0.84910 0.12800
N 	N 	0.99634 0.86909 0.87663 -0.32500
H 	H 	0.97700 0.85640 0.88140 0.12800
H 	H 	0.01610 0.86550 0.88900 0.13900
N 	N 	0.92534 0.80433 0.88093 -0.26800
N 	N 	0.95362 0.78059 0.89275 -0.25300
N 	N 	0.95441 0.78403 0.83301 -0.25000
H 	H 	0.96050 0.78040 0.81050 0.12400
N 	N 	0.99919 0.74583 0.86154 -0.31000
H 	H 	0.00800 0.73690 0.88160 0.09300
H 	H 	0.00870 0.73980 0.84080 0.12300
C 	C 	0.01413 0.93660 0.81091 0.14500
C 	C 	0.99561 0.89497 0.84948 0.22300
C 	C 	0.92696 0.80555 0.84503 0.13800
C 	C 	0.97060 0.76920 0.86263 0.19900
Cu	Cu	0.91418 0.39012 0.32947 0.79600
Cu	Cu	0.94533 0.45316 0.26842 0.78400
S 	S 	0.04267 0.46823 0.28899 -0.55100
S 	S 	0.89827 0.33026 0.31563 -0.48400
N 	N 	0.97946 0.43023 0.30448 -0.26600
N 	N 	0.96762 0.40299 0.32898 -0.24700
N 	N 	0.02511 0.41491 0.33945 -0.25500
H 	H 	0.04660 0.41410 0.34910 0.12700
N 	N 	0.99634 0.36909 0.37663 -0.32400
H 	H 	0.97700 0.35640 0.38140 0.12800
H 	H 	0.01610 0.36550 0.38900 0.13800
N 	N 	0.92534 0.30433 0.38093 -0.26800
N 	N 	0.95362 0.28059 0.39275 -0.25300
N 	N 	0.95441 0.28403 0.33301 -0.25000
H 	H 	0.96050 0.28040 0.31050 0.12500
N 	N 	0.99919 0.24583 0.36154 -0.31000
H 	H 	0.00800 0.23690 0.38160 0.09300
H 	H 	0.00870 0.23980 0.34080 0.12300
C 	C 	0.01413 0.43660 0.31091 0.14400
C 	C 	0.99561 0.39497 0.34948 0.22200
C 	C 	0.92696 0.30555 0.34503 0.13800
C 	C 	0.97060 0.26920 0.36263 0.19900
Cu	Cu	0.67053 0.58582 0.89012 0.79600
Cu	Cu	0.73158 0.55467 0.95316 0.78500
S 	S 	0.71101 0.45733 0.96823 -0.54400
S 	S 	0.68437 0.60173 0.83026 -0.48500
N 	N 	0.69552 0.52054 0.93023 -0.26900
N 	N 	0.67102 0.53238 0.90299 -0.24700
N 	N 	0.66055 0.47489 0.91491 -0.25200
H 	H 	0.65090 0.45340 0.91410 0.12800
N 	N 	0.62337 0.50366 0.86909 -0.33100
H 	H 	0.61860 0.52300 0.85640 0.12900
H 	H 	0.61100 0.48390 0.86550 0.14600
N 	N 	0.61907 0.57466 0.80433 -0.26800
N 	N 	0.60725 0.54638 0.78059 -0.25500
N 	N 	0.66699 0.54559 0.78403 -0.25100
H 	H 	0.68950 0.53950 0.78040 0.12300
N 	N 	0.63846 0.50081 0.74583 -0.32500
H 	H 	0.61840 0.49200 0.73690 0.10200
H 	H 	0.65920 0.49130 0.73980 0.13200
C 	C 	0.68909 0.48587 0.93660 0.15200
C 	C 	0.65052 0.50439 0.89497 0.21700
C 	C 	0.65497 0.57304 0.80555 0.13800
C 	C 	0.63737 0.52940 0.76920 0.19900
Cu	Cu	0.67053 0.08582 0.39012 0.79600
Cu	Cu	0.73158 0.05467 0.45316 0.78300
S 	S 	0.71101 0.95733 0.46823 -0.54700
S 	S 	0.68437 0.10173 0.33026 -0.48500
N 	N 	0.69552 0.02054 0.43023 -0.27400
N 	N 	0.67102 0.03238 0.40299 -0.24600
N 	N 	0.66055 0.97489 0.41491 -0.24900
H 	H 	0.65090 0.95340 0.41410 0.12800
N 	N 	0.62337 0.00366 0.36909 -0.33700
H 	H 	0.61860 0.02300 0.35640 0.12900
H 	H 	0.61100 0.98390 0.36550 0.15200
N 	N 	0.61907 0.07466 0.30433 -0.26800
N 	N 	0.60725 0.04638 0.28059 -0.25600
N 	N 	0.66699 0.04559 0.28403 -0.25100
H 	H 	0.68950 0.03950 0.28040 0.12200
N 	N 	0.63846 0.00081 0.24583 -0.34000
H 	H 	0.61840 0.99200 0.23690 0.11200
H 	H 	0.65920 0.99130 0.23980 0.14100
C 	C 	0.68909 0.98587 0.43660 0.15900
C 	C 	0.65052 0.00439 0.39497 0.21000
C 	C 	0.65497 0.07304 0.30555 0.13800
C 	C 	0.63737 0.02940 0.26920 0.20000
Cu	Cu	0.17053 0.58582 0.39012 0.79600
Cu	Cu	0.23158 0.55467 0.45316 0.78300
S 	S 	0.21101 0.45733 0.46823 -0.55000
S 	S 	0.18437 0.60173 0.33026 -0.48500
N 	N 	0.19552 0.52054 0.43023 -0.27000
N 	N 	0.17102 0.53238 0.40299 -0.24700
N 	N 	0.16055 0.47489 0.41491 -0.25200
H 	H 	0.15090 0.45340 0.41410 0.12700
N 	N 	0.12337 0.50366 0.36909 -0.33100
H 	H 	0.11860 0.52300 0.35640 0.12800
H 	H 	0.11100 0.48390 0.36550 0.14500
N 	N 	0.11907 0.57466 0.30433 -0.26800
N 	N 	0.10725 0.54638 0.28059 -0.25500
N 	N 	0.16699 0.54559 0.28403 -0.25100
H 	H 	0.18950 0.53950 0.28040 0.12300
N 	N 	0.13846 0.50081 0.24583 -0.32500
H 	H 	0.11840 0.49200 0.23690 0.10200
H 	H 	0.15920 0.49130 0.23980 0.13200
C 	C 	0.18909 0.48587 0.43660 0.15200
C 	C 	0.15052 0.50439 0.39497 0.21600
C 	C 	0.15497 0.57304 0.30555 0.13800
C 	C 	0.13737 0.52940 0.26920 0.19900
Cu	Cu	0.17053 0.08582 0.89012 0.79600
Cu	Cu	0.23158 0.05467 0.95316 0.78400
S 	S 	0.21101 0.95733 0.96823 -0.54200
S 	S 	0.18437 0.10173 0.83026 -0.48500
N 	N 	0.19552 0.02054 0.93023 -0.27300
N 	N 	0.17102 0.03238 0.90299 -0.24600
N 	N 	0.16055 0.97489 0.91491 -0.24900
H 	H 	0.15090 0.95340 0.91410 0.12800
N 	N 	0.12337 0.00366 0.86909 -0.33700
H 	H 	0.11860 0.02300 0.85640 0.12900
H 	H 	0.11100 0.98390 0.86550 0.15200
N 	N 	0.11907 0.07466 0.80433 -0.26800
N 	N 	0.10725 0.04638 0.78059 -0.25600
N 	N 	0.16699 0.04559 0.78403 -0.25100
H 	H 	0.18950 0.03950 0.78040 0.12200
N 	N 	0.13846 0.00081 0.74583 -0.34000
H 	H 	0.11840 0.99200 0.73690 0.11200
H 	H 	0.15920 0.99130 0.73980 0.14100
C 	C 	0.18909 0.98587 0.93660 0.15900
C 	C 	0.15052 0.00439 0.89497 0.21000
C 	C 	0.15497 0.07304 0.80555 0.13800
C 	C 	0.13737 0.02940 0.76920 0.20000
Cu	Cu	0.32947 0.58582 0.10988 0.79600
Cu	Cu	0.26842 0.55467 0.04684 0.78200
S 	S 	0.28899 0.45733 0.03177 -0.55400
S 	S 	0.31563 0.60173 0.16974 -0.48500
N 	N 	0.30448 0.52054 0.06977 -0.27000
N 	N 	0.32898 0.53238 0.09701 -0.24700
N 	N 	0.33945 0.47489 0.08509 -0.25200
H 	H 	0.34910 0.45340 0.08590 0.12700
N 	N 	0.37663 0.50366 0.13091 -0.33100
H 	H 	0.38140 0.52300 0.14360 0.12800
H 	H 	0.38900 0.48390 0.13450 0.14500
N 	N 	0.38093 0.57466 0.19567 -0.26800
N 	N 	0.39275 0.54638 0.21941 -0.25500
N 	N 	0.33301 0.54559 0.21597 -0.25100
H 	H 	0.31050 0.53950 0.21960 0.12300
N 	N 	0.36154 0.50081 0.25417 -0.32500
H 	H 	0.38160 0.49200 0.26310 0.10200
H 	H 	0.34080 0.49130 0.26020 0.13200
C 	C 	0.31091 0.48587 0.06340 0.15200
C 	C 	0.34948 0.50439 0.10503 0.21600
C 	C 	0.34503 0.57304 0.19445 0.13800
C 	C 	0.36263 0.52940 0.23080 0.19900
Cu	Cu	0.32947 0.08582 0.60988 0.79600
Cu	Cu	0.26842 0.05467 0.54684 0.78300
S 	S 	0.28899 0.95733 0.53177 -0.54700
S 	S 	0.31563 0.10173 0.66974 -0.48500
N 	N 	0.30448 0.02054 0.56977 -0.27400
N 	N 	0.32898 0.03238 0.59701 -0.24600
N 	N 	0.33945 0.97489 0.58509 -0.24900
H 	H 	0.34910 0.95340 0.58590 0.12800
N 	N 	0.37663 0.00366 0.63091 -0.33700
H 	H 	0.38140 0.02300 0.64360 0.12900
H 	H 	0.38900 0.98390 0.63450 0.15200
N 	N 	0.38093 0.07466 0.69567 -0.26800
N 	N 	0.39275 0.04638 0.71941 -0.25600
N 	N 	0.33301 0.04559 0.71597 -0.25100
H 	H 	0.31050 0.03950 0.71960 0.12200
N 	N 	0.36154 0.00081 0.75417 -0.34000
H 	H 	0.38160 0.99200 0.76310 0.11100
H 	H 	0.34080 0.99130 0.76020 0.14100
C 	C 	0.31091 0.98587 0.56340 0.15900
C 	C 	0.34948 0.00439 0.60503 0.21000
C 	C 	0.34503 0.07304 0.69445 0.13800
C 	C 	0.36263 0.02940 0.73080 0.20000
Cu	Cu	0.82947 0.58582 0.60988 0.79600
Cu	Cu	0.76842 0.55467 0.54684 0.78300
S 	S 	0.78899 0.45733 0.53177 -0.55000
S 	S 	0.81563 0.60173 0.66974 -0.48500
N 	N 	0.80448 0.52054 0.56977 -0.27000
N 	N 	0.82898 0.53238 0.59701 -0.24700
N 	N 	0.83945 0.47489 0.58509 -0.25200
H 	H 	0.84910 0.45340 0.58590 0.12800
N 	N 	0.87663 0.50366 0.63091 -0.33100
H 	H 	0.88140 0.52300 0.64360 0.12900
H 	H 	0.88900 0.48390 0.63450 0.14600
N 	N 	0.88093 0.57466 0.69567 -0.26800
N 	N 	0.89275 0.54638 0.71941 -0.25500
N 	N 	0.83301 0.54559 0.71597 -0.25100
H 	H 	0.81050 0.53950 0.71960 0.12300
N 	N 	0.86154 0.50081 0.75417 -0.32500
H 	H 	0.88160 0.49200 0.76310 0.10200
H 	H 	0.84080 0.49130 0.76020 0.13200
C 	C 	0.81091 0.48587 0.56340 0.15200
C 	C 	0.84948 0.50439 0.60503 0.21600
C 	C 	0.84503 0.57304 0.69445 0.13800
C 	C 	0.86263 0.52940 0.73080 0.19900
Cu	Cu	0.82947 0.08582 0.10988 0.79600
Cu	Cu	0.76842 0.05467 0.04684 0.78200
S 	S 	0.78899 0.95733 0.03177 -0.55100
S 	S 	0.81563 0.10173 0.16974 -0.48500
N 	N 	0.80448 0.02054 0.06977 -0.27400
N 	N 	0.82898 0.03238 0.09701 -0.24600
N 	N 	0.83945 0.97489 0.08509 -0.24900
H 	H 	0.84910 0.95340 0.08590 0.12800
N 	N 	0.87663 0.00366 0.13091 -0.33700
H 	H 	0.88140 0.02300 0.14360 0.12900
H 	H 	0.88900 0.98390 0.13450 0.15200
N 	N 	0.88093 0.07466 0.19567 -0.26800
N 	N 	0.89275 0.04638 0.21941 -0.25600
N 	N 	0.83301 0.04559 0.21597 -0.25100
H 	H 	0.81050 0.03950 0.21960 0.12200
N 	N 	0.86154 0.00081 0.25417 -0.34000
H 	H 	0.88160 0.99200 0.26310 0.11100
H 	H 	0.84080 0.99130 0.26020 0.14100
C 	C 	0.81091 0.98587 0.06340 0.15900
C 	C 	0.84948 0.00439 0.10503 0.21000
C 	C 	0.84503 0.07304 0.19445 0.13800
C 	C 	0.86263 0.02940 0.23080 0.20000
Cu	Cu	0.67053 0.41418 0.10988 0.79600
Cu	Cu	0.73158 0.44533 0.04684 0.78200
S 	S 	0.71101 0.54267 0.03177 -0.55400
S 	S 	0.68437 0.39827 0.16974 -0.48500
N 	N 	0.69552 0.47946 0.06977 -0.27000
N 	N 	0.67102 0.46762 0.09701 -0.24700
N 	N 	0.66055 0.52511 0.08509 -0.25200
H 	H 	0.65090 0.54660 0.08590 0.12700
N 	N 	0.62337 0.49634 0.13091 -0.33100
H 	H 	0.61860 0.47700 0.14360 0.12800
H 	H 	0.61100 0.51610 0.13450 0.14500
N 	N 	0.61907 0.42534 0.19567 -0.26800
N 	N 	0.60725 0.45362 0.21941 -0.25500
N 	N 	0.66699 0.45441 0.21597 -0.25100
H 	H 	0.68950 0.46050 0.21960 0.12300
N 	N 	0.63846 0.49919 0.25417 -0.32500
H 	H 	0.61840 0.50800 0.26310 0.10200
H 	H 	0.65920 0.50870 0.26020 0.13200
C 	C 	0.68909 0.51413 0.06340 0.15200
C 	C 	0.65052 0.49561 0.10503 0.21600
C 	C 	0.65497 0.42696 0.19445 0.13800
C 	C 	0.63737 0.47060 0.23080 0.19900
Cu	Cu	0.67053 0.91418 0.60988 0.79600
Cu	Cu	0.73158 0.94533 0.54684 0.78400
S 	S 	0.71101 0.04267 0.53177 -0.55100
S 	S 	0.68437 0.89827 0.66974 -0.48400
N 	N 	0.69552 0.97946 0.56977 -0.26600
N 	N 	0.67102 0.96762 0.59701 -0.24700
N 	N 	0.66055 0.02511 0.58509 -0.25500
H 	H 	0.65090 0.04660 0.58590 0.12700
N 	N 	0.62337 0.99634 0.63091 -0.32400
H 	H 	0.61860 0.97700 0.64360 0.12800
H 	H 	0.61100 0.01610 0.63450 0.13800
N 	N 	0.61907 0.92534 0.69567 -0.26800
N 	N 	0.60725 0.95362 0.71941 -0.25300
N 	N 	0.66699 0.95441 0.71597 -0.25000
H 	H 	0.68950 0.96050 0.71960 0.12400
N 	N 	0.63846 0.99919 0.75417 -0.31000
H 	H 	0.61840 0.00800 0.76310 0.09300
H 	H 	0.65920 0.00870 0.76020 0.12300
C 	C 	0.68909 0.01413 0.56340 0.14400
C 	C 	0.65052 0.99561 0.60503 0.22200
C 	C 	0.65497 0.92696 0.69445 0.13800
C 	C 	0.63737 0.97060 0.73080 0.19900
Cu	Cu	0.17053 0.41418 0.60988 0.79600
Cu	Cu	0.23158 0.44533 0.54684 0.78300
S 	S 	0.21101 0.54267 0.53177 -0.55000
S 	S 	0.18437 0.39827 0.66974 -0.48500
N 	N 	0.19552 0.47946 0.56977 -0.27000
N 	N 	0.17102 0.46762 0.59701 -0.24700
N 	N 	0.16055 0.52511 0.58509 -0.25200
H 	H 	0.15090 0.54660 0.58590 0.12700
N 	N 	0.12337 0.49634 0.63091 -0.33100
H 	H 	0.11860 0.47700 0.64360 0.12800
H 	H 	0.11100 0.51610 0.63450 0.14500
N 	N 	0.11907 0.42534 0.69567 -0.26800
N 	N 	0.10725 0.45362 0.71941 -0.25500
N 	N 	0.16699 0.45441 0.71597 -0.25100
H 	H 	0.18950 0.46050 0.71960 0.12300
N 	N 	0.13846 0.49919 0.75417 -0.32500
H 	H 	0.11840 0.50800 0.76310 0.10200
H 	H 	0.15920 0.50870 0.76020 0.13200
C 	C 	0.18909 0.51413 0.56340 0.15200
C 	C 	0.15052 0.49561 0.60503 0.21600
C 	C 	0.15497 0.42696 0.69445 0.13800
C 	C 	0.13737 0.47060 0.73080 0.19900
Cu	Cu	0.17053 0.91418 0.10988 0.79600
Cu	Cu	0.23158 0.94533 0.04684 0.78300
S 	S 	0.21101 0.04267 0.03177 -0.55500
S 	S 	0.18437 0.89827 0.16974 -0.48400
N 	N 	0.19552 0.97946 0.06977 -0.26600
N 	N 	0.17102 0.96762 0.09701 -0.24800
N 	N 	0.16055 0.02511 0.08509 -0.25500
H 	H 	0.15090 0.04660 0.08590 0.12700
N 	N 	0.12337 0.99634 0.13091 -0.32400
H 	H 	0.11860 0.97700 0.14360 0.12800
H 	H 	0.11100 0.01610 0.13450 0.13800
N 	N 	0.11907 0.92534 0.19567 -0.26800
N 	N 	0.10725 0.95362 0.21941 -0.25300
N 	N 	0.16699 0.95441 0.21597 -0.25000
H 	H 	0.18950 0.96050 0.21960 0.12500
N 	N 	0.13846 0.99919 0.25417 -0.31000
H 	H 	0.11840 0.00800 0.26310 0.09300
H 	H 	0.15920 0.00870 0.26020 0.12300
C 	C 	0.18909 0.01413 0.06340 0.14400
C 	C 	0.15052 0.99561 0.10503 0.22100
C 	C 	0.15497 0.92696 0.19445 0.13800
C 	C 	0.13737 0.97060 0.23080 0.19900
Cu	Cu	0.32947 0.41418 0.89012 0.79600
Cu	Cu	0.26842 0.44533 0.95316 0.78500
S 	S 	0.28899 0.54267 0.96823 -0.54400
S 	S 	0.31563 0.39827 0.83026 -0.48500
N 	N 	0.30448 0.47946 0.93023 -0.26900
N 	N 	0.32898 0.46762 0.90299 -0.24700
N 	N 	0.33945 0.52511 0.91491 -0.25200
H 	H 	0.34910 0.54660 0.91410 0.12800
N 	N 	0.37663 0.49634 0.86909 -0.33100
H 	H 	0.38140 0.47700 0.85640 0.12900
H 	H 	0.38900 0.51610 0.86550 0.14600
N 	N 	0.38093 0.42534 0.80433 -0.26800
N 	N 	0.39275 0.45362 0.78059 -0.25500
N 	N 	0.33301 0.45441 0.78403 -0.25100
H 	H 	0.31050 0.46050 0.78040 0.12300
N 	N 	0.36154 0.49919 0.74583 -0.32500
H 	H 	0.38160 0.50800 0.73690 0.10200
H 	H 	0.34080 0.50870 0.73980 0.13200
C 	C 	0.31091 0.51413 0.93660 0.15200
C 	C 	0.34948 0.49561 0.89497 0.21700
C 	C 	0.34503 0.42696 0.80555 0.13800
C 	C 	0.36263 0.47060 0.76920 0.19900
Cu	Cu	0.32947 0.91418 0.39012 0.79600
Cu	Cu	0.26842 0.94533 0.45316 0.78400
S 	S 	0.28899 0.04267 0.46823 -0.55100
S 	S 	0.31563 0.89827 0.33026 -0.48400
N 	N 	0.30448 0.97946 0.43023 -0.26600
N 	N 	0.32898 0.96762 0.40299 -0.24700
N 	N 	0.33945 0.02511 0.41491 -0.25500
H 	H 	0.34910 0.04660 0.41410 0.12700
N 	N 	0.37663 0.99634 0.36909 -0.32400
H 	H 	0.38140 0.97700 0.35640 0.12800
H 	H 	0.38900 0.01610 0.36550 0.13800
N 	N 	0.38093 0.92534 0.30433 -0.26800
N 	N 	0.39275 0.95362 0.28059 -0.25300
N 	N 	0.33301 0.95441 0.28403 -0.25000
H 	H 	0.31050 0.96050 0.28040 0.12500
N 	N 	0.36154 0.99919 0.24583 -0.31000
H 	H 	0.38160 0.00800 0.23690 0.09300
H 	H 	0.34080 0.00870 0.23980 0.12300
C 	C 	0.31091 0.01413 0.43660 0.14400
C 	C 	0.34948 0.99561 0.39497 0.22200
C 	C 	0.34503 0.92696 0.30555 0.13800
C 	C 	0.36263 0.97060 0.26920 0.19900
Cu	Cu	0.82947 0.41418 0.39012 0.79600
Cu	Cu	0.76842 0.44533 0.45316 0.78300
S 	S 	0.78899 0.54267 0.46823 -0.55000
S 	S 	0.81563 0.39827 0.33026 -0.48500
N 	N 	0.80448 0.47946 0.43023 -0.27000
N 	N 	0.82898 0.46762 0.40299 -0.24700
N 	N 	0.83945 0.52511 0.41491 -0.25200
H 	H 	0.84910 0.54660 0.41410 0.12800
N 	N 	0.87663 0.49634 0.36909 -0.33100
H 	H 	0.88140 0.47700 0.35640 0.12900
H 	H 	0.88900 0.51610 0.36550 0.14600
N 	N 	0.88093 0.42534 0.30433 -0.26800
N 	N 	0.89275 0.45362 0.28059 -0.25500
N 	N 	0.83301 0.45441 0.28403 -0.25100
H 	H 	0.81050 0.46050 0.28040 0.12300
N 	N 	0.86154 0.49919 0.24583 -0.32500
H 	H 	0.88160 0.50800 0.23690 0.10200
H 	H 	0.84080 0.50870 0.23980 0.13200
C 	C 	0.81091 0.51413 0.43660 0.15200
C 	C 	0.84948 0.49561 0.39497 0.21600
C 	C 	0.84503 0.42696 0.30555 0.13800
C 	C 	0.86263 0.47060 0.26920 0.19900
Cu	Cu	0.82947 0.91418 0.89012 0.79600
Cu	Cu	0.76842 0.94533 0.95316 0.78500
S 	S 	0.78899 0.04267 0.96823 -0.54500
S 	S 	0.81563 0.89827 0.83026 -0.48400
N 	N 	0.80448 0.97946 0.93023 -0.26500
N 	N 	0.82898 0.96762 0.90299 -0.24700
N 	N 	0.83945 0.02511 0.91491 -0.25500
H 	H 	0.84910 0.04660 0.91410 0.12800
N 	N 	0.87663 0.99634 0.86909 -0.32500
H 	H 	0.88140 0.97700 0.85640 0.12800
H 	H 	0.88900 0.01610 0.86550 0.13900
N 	N 	0.88093 0.92534 0.80433 -0.26800
N 	N 	0.89275 0.95362 0.78059 -0.25300
N 	N 	0.83301 0.95441 0.78403 -0.25000
H 	H 	0.81050 0.96050 0.78040 0.12400
N 	N 	0.86154 0.99919 0.74583 -0.31000
H 	H 	0.88160 0.00800 0.73690 0.09300
H 	H 	0.84080 0.00870 0.73980 0.12300
C 	C 	0.81091 0.01413 0.93660 0.14500
C 	C 	0.84948 0.99561 0.89497 0.22300
C 	C 	0.84503 0.92696 0.80555 0.13800
C 	C 	0.86263 0.97060 0.76920 0.19900
Cu	Cu	0.17053 0.39012 0.08582 0.79600
Cu	Cu	0.23158 0.45316 0.05467 0.78300
S 	S 	0.21101 0.46823 0.95733 -0.54700
S 	S 	0.18437 0.33026 0.10173 -0.48500
N 	N 	0.19552 0.43023 0.02054 -0.27400
N 	N 	0.17102 0.40299 0.03238 -0.24600
N 	N 	0.16055 0.41491 0.97489 -0.24900
H 	H 	0.15090 0.41410 0.95340 0.12800
N 	N 	0.12337 0.36909 0.00366 -0.33700
H 	H 	0.11860 0.35640 0.02300 0.12900
H 	H 	0.11100 0.36550 0.98390 0.15200
N 	N 	0.11907 0.30433 0.07466 -0.26800
N 	N 	0.10725 0.28059 0.04638 -0.25600
N 	N 	0.16699 0.28403 0.04559 -0.25100
H 	H 	0.18950 0.28040 0.03950 0.12200
N 	N 	0.13846 0.24583 0.00081 -0.34000
H 	H 	0.11840 0.23690 0.99200 0.11200
H 	H 	0.15920 0.23980 0.99130 0.14100
C 	C 	0.18909 0.43660 0.98587 0.15900
C 	C 	0.15052 0.39497 0.00439 0.21000
C 	C 	0.15497 0.30555 0.07304 0.13800
C 	C 	0.13737 0.26920 0.02940 0.20000
Cu	Cu	0.17053 0.89012 0.58582 0.79600
Cu	Cu	0.23158 0.95316 0.55467 0.78500
S 	S 	0.21101 0.96823 0.45733 -0.54400
S 	S 	0.18437 0.83026 0.60173 -0.48500
N 	N 	0.19552 0.93023 0.52054 -0.26900
N 	N 	0.17102 0.90299 0.53238 -0.24700
N 	N 	0.16055 0.91491 0.47489 -0.25200
H 	H 	0.15090 0.91410 0.45340 0.12800
N 	N 	0.12337 0.86909 0.50366 -0.33100
H 	H 	0.11860 0.85640 0.52300 0.12800
H 	H 	0.11100 0.86550 0.48390 0.14500
N 	N 	0.11907 0.80433 0.57466 -0.26800
N 	N 	0.10725 0.78059 0.54638 -0.25500
N 	N 	0.16699 0.78403 0.54559 -0.25100
H 	H 	0.18950 0.78040 0.53950 0.12300
N 	N 	0.13846 0.74583 0.50081 -0.32500
H 	H 	0.11840 0.73690 0.49200 0.10200
H 	H 	0.15920 0.73980 0.49130 0.13200
C 	C 	0.18909 0.93660 0.48587 0.15200
C 	C 	0.15052 0.89497 0.50439 0.21600
C 	C 	0.15497 0.80555 0.57304 0.13800
C 	C 	0.13737 0.76920 0.52940 0.19900
Cu	Cu	0.67053 0.39012 0.58582 0.79600
Cu	Cu	0.73158 0.45316 0.55467 0.78300
S 	S 	0.71101 0.46823 0.45733 -0.55000
S 	S 	0.68437 0.33026 0.60173 -0.48500
N 	N 	0.69552 0.43023 0.52054 -0.27000
N 	N 	0.67102 0.40299 0.53238 -0.24700
N 	N 	0.66055 0.41491 0.47489 -0.25200
H 	H 	0.65090 0.41410 0.45340 0.12800
N 	N 	0.62337 0.36909 0.50366 -0.33100
H 	H 	0.61860 0.35640 0.52300 0.12800
H 	H 	0.61100 0.36550 0.48390 0.14500
N 	N 	0.61907 0.30433 0.57466 -0.26800
N 	N 	0.60725 0.28059 0.54638 -0.25500
N 	N 	0.66699 0.28403 0.54559 -0.25100
H 	H 	0.68950 0.28040 0.53950 0.12300
N 	N 	0.63846 0.24583 0.50081 -0.32500
H 	H 	0.61840 0.23690 0.49200 0.10200
H 	H 	0.65920 0.23980 0.49130 0.13200
C 	C 	0.68909 0.43660 0.48587 0.15200
C 	C 	0.65052 0.39497 0.50439 0.21600
C 	C 	0.65497 0.30555 0.57304 0.13800
C 	C 	0.63737 0.26920 0.52940 0.19900
Cu	Cu	0.67053 0.89012 0.08582 0.79600
Cu	Cu	0.73158 0.95316 0.05467 0.78400
S 	S 	0.71101 0.96823 0.95733 -0.54200
S 	S 	0.68437 0.83026 0.10173 -0.48500
N 	N 	0.69552 0.93023 0.02054 -0.27300
N 	N 	0.67102 0.90299 0.03238 -0.24600
N 	N 	0.66055 0.91491 0.97489 -0.24900
H 	H 	0.65090 0.91410 0.95340 0.12800
N 	N 	0.62337 0.86909 0.00366 -0.33700
H 	H 	0.61860 0.85640 0.02300 0.12900
H 	H 	0.61100 0.86550 0.98390 0.15300
N 	N 	0.61907 0.80433 0.07466 -0.26800
N 	N 	0.60725 0.78059 0.04638 -0.25600
N 	N 	0.66699 0.78403 0.04559 -0.25100
H 	H 	0.68950 0.78040 0.03950 0.12200
N 	N 	0.63846 0.74583 0.00081 -0.34000
H 	H 	0.61840 0.73690 0.99200 0.11100
H 	H 	0.65920 0.73980 0.99130 0.14100
C 	C 	0.68909 0.93660 0.98587 0.15900
C 	C 	0.65052 0.89497 0.00439 0.21100
C 	C 	0.65497 0.80555 0.07304 0.13800
C 	C 	0.63737 0.76920 0.02940 0.20000
Cu	Cu	0.82947 0.60988 0.08582 0.79600
Cu	Cu	0.76842 0.54684 0.05467 0.78300
S 	S 	0.78899 0.53177 0.95733 -0.54700
S 	S 	0.81563 0.66974 0.10173 -0.48500
N 	N 	0.80448 0.56977 0.02054 -0.27400
N 	N 	0.82898 0.59701 0.03238 -0.24600
N 	N 	0.83945 0.58509 0.97489 -0.24900
H 	H 	0.84910 0.58590 0.95340 0.12800
N 	N 	0.87663 0.63091 0.00366 -0.33700
H 	H 	0.88140 0.64360 0.02300 0.12900
H 	H 	0.88900 0.63450 0.98390 0.15300
N 	N 	0.88093 0.69567 0.07466 -0.26800
N 	N 	0.89275 0.71941 0.04638 -0.25600
N 	N 	0.83301 0.71597 0.04559 -0.25100
H 	H 	0.81050 0.71960 0.03950 0.12200
N 	N 	0.86154 0.75417 0.00081 -0.34000
H 	H 	0.88160 0.76310 0.99200 0.11100
H 	H 	0.84080 0.76020 0.99130 0.14100
C 	C 	0.81091 0.56340 0.98587 0.15900
C 	C 	0.84948 0.60503 0.00439 0.21000
C 	C 	0.84503 0.69445 0.07304 0.13800
C 	C 	0.86263 0.73080 0.02940 0.20000
Cu	Cu	0.82947 0.10988 0.58582 0.79600
Cu	Cu	0.76842 0.04684 0.55467 0.78200
S 	S 	0.78899 0.03177 0.45733 -0.55400
S 	S 	0.81563 0.16974 0.60173 -0.48500
N 	N 	0.80448 0.06977 0.52054 -0.27000
N 	N 	0.82898 0.09701 0.53238 -0.24700
N 	N 	0.83945 0.08509 0.47489 -0.25200
H 	H 	0.84910 0.08590 0.45340 0.12700
N 	N 	0.87663 0.13091 0.50366 -0.33100
H 	H 	0.88140 0.14360 0.52300 0.12900
H 	H 	0.88900 0.13450 0.48390 0.14600
N 	N 	0.88093 0.19567 0.57466 -0.26800
N 	N 	0.89275 0.21941 0.54638 -0.25500
N 	N 	0.83301 0.21597 0.54559 -0.25100
H 	H 	0.81050 0.21960 0.53950 0.12300
N 	N 	0.86154 0.25417 0.50081 -0.32500
H 	H 	0.88160 0.26310 0.49200 0.10200
H 	H 	0.84080 0.26020 0.49130 0.13200
C 	C 	0.81091 0.06340 0.48587 0.15200
C 	C 	0.84948 0.10503 0.50439 0.21600
C 	C 	0.84503 0.19445 0.57304 0.13800
C 	C 	0.86263 0.23080 0.52940 0.19900
Cu	Cu	0.32947 0.60988 0.58582 0.79600
Cu	Cu	0.26842 0.54684 0.55467 0.78300
S 	S 	0.28899 0.53177 0.45733 -0.55000
S 	S 	0.31563 0.66974 0.60173 -0.48500
N 	N 	0.30448 0.56977 0.52054 -0.27000
N 	N 	0.32898 0.59701 0.53238 -0.24700
N 	N 	0.33945 0.58509 0.47489 -0.25200
H 	H 	0.34910 0.58590 0.45340 0.12800
N 	N 	0.37663 0.63091 0.50366 -0.33100
H 	H 	0.38140 0.64360 0.52300 0.12800
H 	H 	0.38900 0.63450 0.48390 0.14500
N 	N 	0.38093 0.69567 0.57466 -0.26800
N 	N 	0.39275 0.71941 0.54638 -0.25500
N 	N 	0.33301 0.71597 0.54559 -0.25100
H 	H 	0.31050 0.71960 0.53950 0.12300
N 	N 	0.36154 0.75417 0.50081 -0.32500
H 	H 	0.38160 0.76310 0.49200 0.10200
H 	H 	0.34080 0.76020 0.49130 0.13200
C 	C 	0.31091 0.56340 0.48587 0.15200
C 	C 	0.34948 0.60503 0.50439 0.21600
C 	C 	0.34503 0.69445 0.57304 0.13800
C 	C 	0.36263 0.73080 0.52940 0.19900
Cu	Cu	0.32947 0.10988 0.08582 0.79600
Cu	Cu	0.26842 0.04684 0.05467 0.78200
S 	S 	0.28899 0.03177 0.95733 -0.55100
S 	S 	0.31563 0.16974 0.10173 -0.48500
N 	N 	0.30448 0.06977 0.02054 -0.27400
N 	N 	0.32898 0.09701 0.03238 -0.24600
N 	N 	0.33945 0.08509 0.97489 -0.24900
H 	H 	0.34910 0.08590 0.95340 0.12700
N 	N 	0.37663 0.13091 0.00366 -0.33700
H 	H 	0.38140 0.14360 0.02300 0.12900
H 	H 	0.38900 0.13450 0.98390 0.15200
N 	N 	0.38093 0.19567 0.07466 -0.26800
N 	N 	0.39275 0.21941 0.04638 -0.25600
N 	N 	0.33301 0.21597 0.04559 -0.25100
H 	H 	0.31050 0.21960 0.03950 0.12200
N 	N 	0.36154 0.25417 0.00081 -0.34000
H 	H 	0.38160 0.26310 0.99200 0.11200
H 	H 	0.34080 0.26020 0.99130 0.14100
C 	C 	0.31091 0.06340 0.98587 0.15900
C 	C 	0.34948 0.10503 0.00439 0.21000
C 	C 	0.34503 0.19445 0.07304 0.13800
C 	C 	0.36263 0.23080 0.02940 0.20000
Cu	Cu	0.17053 0.60988 0.91418 0.79600
Cu	Cu	0.23158 0.54684 0.94533 0.78400
S 	S 	0.21101 0.53177 0.04267 -0.55100
S 	S 	0.18437 0.66974 0.89827 -0.48400
N 	N 	0.19552 0.56977 0.97946 -0.26600
N 	N 	0.17102 0.59701 0.96762 -0.24700
N 	N 	0.16055 0.58509 0.02511 -0.25500
H 	H 	0.15090 0.58590 0.04660 0.12700
N 	N 	0.12337 0.63091 0.99634 -0.32400
H 	H 	0.11860 0.64360 0.97700 0.12800
H 	H 	0.11100 0.63450 0.01610 0.13800
N 	N 	0.11907 0.69567 0.92534 -0.26800
N 	N 	0.10725 0.71941 0.95362 -0.25300
N 	N 	0.16699 0.71597 0.95441 -0.25000
H 	H 	0.18950 0.71960 0.96050 0.12500
N 	N 	0.13846 0.75417 0.99919 -0.31000
H 	H 	0.11840 0.76310 0.00800 0.09300
H 	H 	0.15920 0.76020 0.00870 0.12300
C 	C 	0.18909 0.56340 0.01413 0.14400
C 	C 	0.15052 0.60503 0.99561 0.22200
C 	C 	0.15497 0.69445 0.92696 0.13800
C 	C 	0.13737 0.73080 0.97060 0.19900
Cu	Cu	0.17053 0.10988 0.41418 0.79600
Cu	Cu	0.23158 0.04684 0.44533 0.78200
S 	S 	0.21101 0.03177 0.54267 -0.55400
S 	S 	0.18437 0.16974 0.39827 -0.48500
N 	N 	0.19552 0.06977 0.47946 -0.27000
N 	N 	0.17102 0.09701 0.46762 -0.24700
N 	N 	0.16055 0.08509 0.52511 -0.25200
H 	H 	0.15090 0.08590 0.54660 0.12700
N 	N 	0.12337 0.13091 0.49634 -0.33100
H 	H 	0.11860 0.14360 0.47700 0.12800
H 	H 	0.11100 0.13450 0.51610 0.14500
N 	N 	0.11907 0.19567 0.42534 -0.26800
N 	N 	0.10725 0.21941 0.45362 -0.25500
N 	N 	0.16699 0.21597 0.45441 -0.25100
H 	H 	0.18950 0.21960 0.46050 0.12300
N 	N 	0.13846 0.25417 0.49919 -0.32500
H 	H 	0.11840 0.26310 0.50800 0.10200
H 	H 	0.15920 0.26020 0.50870 0.13200
C 	C 	0.18909 0.06340 0.51413 0.15100
C 	C 	0.15052 0.10503 0.49561 0.21500
C 	C 	0.15497 0.19445 0.42696 0.13800
C 	C 	0.13737 0.23080 0.47060 0.19900
Cu	Cu	0.67053 0.60988 0.41418 0.79600
Cu	Cu	0.73158 0.54684 0.44533 0.78300
S 	S 	0.71101 0.53177 0.54267 -0.55000
S 	S 	0.68437 0.66974 0.39827 -0.48500
N 	N 	0.69552 0.56977 0.47946 -0.27000
N 	N 	0.67102 0.59701 0.46762 -0.24700
N 	N 	0.66055 0.58509 0.52511 -0.25200
H 	H 	0.65090 0.58590 0.54660 0.12800
N 	N 	0.62337 0.63091 0.49634 -0.33100
H 	H 	0.61860 0.64360 0.47700 0.12800
H 	H 	0.61100 0.63450 0.51610 0.14500
N 	N 	0.61907 0.69567 0.42534 -0.26800
N 	N 	0.60725 0.71941 0.45362 -0.25500
N 	N 	0.66699 0.71597 0.45441 -0.25100
H 	H 	0.68950 0.71960 0.46050 0.12300
N 	N 	0.63846 0.75417 0.49919 -0.32500
H 	H 	0.61840 0.76310 0.50800 0.10200
H 	H 	0.65920 0.76020 0.50870 0.13200
C 	C 	0.68909 0.56340 0.51413 0.15200
C 	C 	0.65052 0.60503 0.49561 0.21600
C 	C 	0.65497 0.69445 0.42696 0.13800
C 	C 	0.63737 0.73080 0.47060 0.19900
Cu	Cu	0.67053 0.10988 0.91418 0.79600
Cu	Cu	0.73158 0.04684 0.94533 0.78300
S 	S 	0.71101 0.03177 0.04267 -0.55500
S 	S 	0.68437 0.16974 0.89827 -0.48400
N 	N 	0.69552 0.06977 0.97946 -0.26600
N 	N 	0.67102 0.09701 0.96762 -0.24800
N 	N 	0.66055 0.08509 0.02511 -0.25500
H 	H 	0.65090 0.08590 0.04660 0.12700
N 	N 	0.62337 0.13091 0.99634 -0.32400
H 	H 	0.61860 0.14360 0.97700 0.12800
H 	H 	0.61100 0.13450 0.01610 0.13800
N 	N 	0.61907 0.19567 0.92534 -0.26800
N 	N 	0.60725 0.21941 0.95362 -0.25300
N 	N 	0.66699 0.21597 0.95441 -0.25000
H 	H 	0.68950 0.21960 0.96050 0.12500
N 	N 	0.63846 0.25417 0.99919 -0.31000
H 	H 	0.61840 0.26310 0.00800 0.09300
H 	H 	0.65920 0.26020 0.00870 0.12300
C 	C 	0.68909 0.06340 0.01413 0.14400
C 	C 	0.65052 0.10503 0.99561 0.22200
C 	C 	0.65497 0.19445 0.92696 0.13800
C 	C 	0.63737 0.23080 0.97060 0.19900
Cu	Cu	0.82947 0.39012 0.91418 0.79600
Cu	Cu	0.76842 0.45316 0.94533 0.78400
S 	S 	0.78899 0.46823 0.04267 -0.55100
S 	S 	0.81563 0.33026 0.89827 -0.48400
N 	N 	0.80448 0.43023 0.97946 -0.26600
N 	N 	0.82898 0.40299 0.96762 -0.24700
N 	N 	0.83945 0.41491 0.02511 -0.25500
H 	H 	0.84910 0.41410 0.04660 0.12800
N 	N 	0.87663 0.36909 0.99634 -0.32500
H 	H 	0.88140 0.35640 0.97700 0.12800
H 	H 	0.88900 0.36550 0.01610 0.13900
N 	N 	0.88093 0.30433 0.92534 -0.26800
N 	N 	0.89275 0.28059 0.95362 -0.25300
N 	N 	0.83301 0.28403 0.95441 -0.25000
H 	H 	0.81050 0.28040 0.96050 0.12500
N 	N 	0.86154 0.24583 0.99919 -0.31000
H 	H 	0.88160 0.23690 0.00800 0.09300
H 	H 	0.84080 0.23980 0.00870 0.12300
C 	C 	0.81091 0.43660 0.01413 0.14500
C 	C 	0.84948 0.39497 0.99561 0.22200
C 	C 	0.84503 0.30555 0.92696 0.13800
C 	C 	0.86263 0.26920 0.97060 0.19900
Cu	Cu	0.82947 0.89012 0.41418 0.79600
Cu	Cu	0.76842 0.95316 0.44533 0.78500
S 	S 	0.78899 0.96823 0.54267 -0.54400
S 	S 	0.81563 0.83026 0.39827 -0.48500
N 	N 	0.80448 0.93023 0.47946 -0.26900
N 	N 	0.82898 0.90299 0.46762 -0.24700
N 	N 	0.83945 0.91491 0.52511 -0.25200
H 	H 	0.84910 0.91410 0.54660 0.12800
N 	N 	0.87663 0.86909 0.49634 -0.33100
H 	H 	0.88140 0.85640 0.47700 0.12900
H 	H 	0.88900 0.86550 0.51610 0.14600
N 	N 	0.88093 0.80433 0.42534 -0.26800
N 	N 	0.89275 0.78059 0.45362 -0.25500
N 	N 	0.83301 0.78403 0.45441 -0.25100
H 	H 	0.81050 0.78040 0.46050 0.12300
N 	N 	0.86154 0.74583 0.49919 -0.32500
H 	H 	0.88160 0.73690 0.50800 0.10200
H 	H 	0.84080 0.73980 0.50870 0.13200
C 	C 	0.81091 0.93660 0.51413 0.15200
C 	C 	0.84948 0.89497 0.49561 0.21700
C 	C 	0.84503 0.80555 0.42696 0.13800
C 	C 	0.86263 0.76920 0.47060 0.19900
Cu	Cu	0.32947 0.39012 0.41418 0.79600
Cu	Cu	0.26842 0.45316 0.44533 0.78300
S 	S 	0.28899 0.46823 0.54267 -0.55000
S 	S 	0.31563 0.33026 0.39827 -0.48500
N 	N 	0.30448 0.43023 0.47946 -0.27000
N 	N 	0.32898 0.40299 0.46762 -0.24700
N 	N 	0.33945 0.41491 0.52511 -0.25200
H 	H 	0.34910 0.41410 0.54660 0.12800
N 	N 	0.37663 0.36909 0.49634 -0.33100
H 	H 	0.38140 0.35640 0.47700 0.12800
H 	H 	0.38900 0.36550 0.51610 0.14500
N 	N 	0.38093 0.30433 0.42534 -0.26800
N 	N 	0.39275 0.28059 0.45362 -0.25500
N 	N 	0.33301 0.28403 0.45441 -0.25100
H 	H 	0.31050 0.28040 0.46050 0.12300
N 	N 	0.36154 0.24583 0.49919 -0.32500
H 	H 	0.38160 0.23690 0.50800 0.10200
H 	H 	0.34080 0.23980 0.50870 0.13200
C 	C 	0.31091 0.43660 0.51413 0.15200
C 	C 	0.34948 0.39497 0.49561 0.21600
C 	C 	0.34503 0.30555 0.42696 0.13800
C 	C 	0.36263 0.26920 0.47060 0.19900
Cu	Cu	0.32947 0.89012 0.91418 0.79600
Cu	Cu	0.26842 0.95316 0.94533 0.78500
S 	S 	0.28899 0.96823 0.04267 -0.54500
S 	S 	0.31563 0.83026 0.89827 -0.48400
N 	N 	0.30448 0.93023 0.97946 -0.26500
N 	N 	0.32898 0.90299 0.96762 -0.24700
N 	N 	0.33945 0.91491 0.02511 -0.25500
H 	H 	0.34910 0.91410 0.04660 0.12800
N 	N 	0.37663 0.86909 0.99634 -0.32500
H 	H 	0.38140 0.85640 0.97700 0.12800
H 	H 	0.38900 0.86550 0.01610 0.13900
N 	N 	0.38093 0.80433 0.92534 -0.26800
N 	N 	0.39275 0.78059 0.95362 -0.25300
N 	N 	0.33301 0.78403 0.95441 -0.25000
H 	H 	0.31050 0.78040 0.96050 0.12500
N 	N 	0.36154 0.74583 0.99919 -0.31000
H 	H 	0.38160 0.73690 0.00800 0.09300
H 	H 	0.34080 0.73980 0.00870 0.12300
C 	C 	0.31091 0.93660 0.01413 0.14500
C 	C 	0.34948 0.89497 0.99561 0.22300
C 	C 	0.34503 0.80555 0.92696 0.13800
C 	C 	0.36263 0.76920 0.97060 0.19900
Cu	Cu	0.39012 0.08582 0.17053 0.79600
Cu	Cu	0.45316 0.05467 0.23158 0.78300
S 	S 	0.46823 0.95733 0.21101 -0.54700
S 	S 	0.33026 0.10173 0.18437 -0.48500
N 	N 	0.43023 0.02054 0.19552 -0.27400
N 	N 	0.40299 0.03238 0.17102 -0.24600
N 	N 	0.41491 0.97489 0.16055 -0.24900
H 	H 	0.41410 0.95340 0.15090 0.12800
N 	N 	0.36909 0.00366 0.12337 -0.33700
H 	H 	0.35640 0.02300 0.11860 0.12900
H 	H 	0.36550 0.98390 0.11100 0.15200
N 	N 	0.30433 0.07466 0.11907 -0.26800
N 	N 	0.28059 0.04638 0.10725 -0.25600
N 	N 	0.28403 0.04559 0.16699 -0.25100
H 	H 	0.28040 0.03950 0.18950 0.12200
N 	N 	0.24583 0.00081 0.13846 -0.34000
H 	H 	0.23690 0.99200 0.11840 0.11200
H 	H 	0.23980 0.99130 0.15920 0.14100
C 	C 	0.43660 0.98587 0.18909 0.15900
C 	C 	0.39497 0.00439 0.15052 0.21000
C 	C 	0.30555 0.07304 0.15497 0.13800
C 	C 	0.26920 0.02940 0.13737 0.20000
Cu	Cu	0.39012 0.58582 0.67053 0.79600
Cu	Cu	0.45316 0.55467 0.73158 0.78300
S 	S 	0.46823 0.45733 0.71101 -0.55000
S 	S 	0.33026 0.60173 0.68437 -0.48500
N 	N 	0.43023 0.52054 0.69552 -0.27000
N 	N 	0.40299 0.53238 0.67102 -0.24700
N 	N 	0.41491 0.47489 0.66055 -0.25200
H 	H 	0.41410 0.45340 0.65090 0.12800
N 	N 	0.36909 0.50366 0.62337 -0.33100
H 	H 	0.35640 0.52300 0.61860 0.12800
H 	H 	0.36550 0.48390 0.61100 0.14500
N 	N 	0.30433 0.57466 0.61907 -0.26800
N 	N 	0.28059 0.54638 0.60725 -0.25500
N 	N 	0.28403 0.54559 0.66699 -0.25100
H 	H 	0.28040 0.53950 0.68950 0.12300
N 	N 	0.24583 0.50081 0.63846 -0.32500
H 	H 	0.23690 0.49200 0.61840 0.10200
H 	H 	0.23980 0.49130 0.65920 0.13200
C 	C 	0.43660 0.48587 0.68909 0.15200
C 	C 	0.39497 0.50439 0.65052 0.21600
C 	C 	0.30555 0.57304 0.65497 0.13800
C 	C 	0.26920 0.52940 0.63737 0.19900
Cu	Cu	0.89012 0.08582 0.67053 0.79600
Cu	Cu	0.95316 0.05467 0.73158 0.78400
S 	S 	0.96823 0.95733 0.71101 -0.54200
S 	S 	0.83026 0.10173 0.68437 -0.48500
N 	N 	0.93023 0.02054 0.69552 -0.27300
N 	N 	0.90299 0.03238 0.67102 -0.24600
N 	N 	0.91491 0.97489 0.66055 -0.24900
H 	H 	0.91410 0.95340 0.65090 0.12800
N 	N 	0.86909 0.00366 0.62337 -0.33700
H 	H 	0.85640 0.02300 0.61860 0.12900
H 	H 	0.86550 0.98390 0.61100 0.15300
N 	N 	0.80433 0.07466 0.61907 -0.26800
N 	N 	0.78059 0.04638 0.60725 -0.25600
N 	N 	0.78403 0.04559 0.66699 -0.25100
H 	H 	0.78040 0.03950 0.68950 0.12200
N 	N 	0.74583 0.00081 0.63846 -0.34000
H 	H 	0.73690 0.99200 0.61840 0.11100
H 	H 	0.73980 0.99130 0.65920 0.14100
C 	C 	0.93660 0.98587 0.68909 0.15900
C 	C 	0.89497 0.00439 0.65052 0.21100
C 	C 	0.80555 0.07304 0.65497 0.13800
C 	C 	0.76920 0.02940 0.63737 0.20000
Cu	Cu	0.89012 0.58582 0.17053 0.79600
Cu	Cu	0.95316 0.55467 0.23158 0.78500
S 	S 	0.96823 0.45733 0.21101 -0.54400
S 	S 	0.83026 0.60173 0.18437 -0.48500
N 	N 	0.93023 0.52054 0.19552 -0.26900
N 	N 	0.90299 0.53238 0.17102 -0.24700
N 	N 	0.91491 0.47489 0.16055 -0.25200
H 	H 	0.91410 0.45340 0.15090 0.12800
N 	N 	0.86909 0.50366 0.12337 -0.33100
H 	H 	0.85640 0.52300 0.11860 0.12800
H 	H 	0.86550 0.48390 0.11100 0.14500
N 	N 	0.80433 0.57466 0.11907 -0.26800
N 	N 	0.78059 0.54638 0.10725 -0.25500
N 	N 	0.78403 0.54559 0.16699 -0.25100
H 	H 	0.78040 0.53950 0.18950 0.12300
N 	N 	0.74583 0.50081 0.13846 -0.32500
H 	H 	0.73690 0.49200 0.11840 0.10200
H 	H 	0.73980 0.49130 0.15920 0.13200
C 	C 	0.93660 0.48587 0.18909 0.15200
C 	C 	0.89497 0.50439 0.15052 0.21600
C 	C 	0.80555 0.57304 0.15497 0.13800
C 	C 	0.76920 0.52940 0.13737 0.19900
Cu	Cu	0.60988 0.08582 0.82947 0.79600
Cu	Cu	0.54684 0.05467 0.76842 0.78300
S 	S 	0.53177 0.95733 0.78899 -0.54700
S 	S 	0.66974 0.10173 0.81563 -0.48500
N 	N 	0.56977 0.02054 0.80448 -0.27400
N 	N 	0.59701 0.03238 0.82898 -0.24600
N 	N 	0.58509 0.97489 0.83945 -0.24900
H 	H 	0.58590 0.95340 0.84910 0.12800
N 	N 	0.63091 0.00366 0.87663 -0.33700
H 	H 	0.64360 0.02300 0.88140 0.12900
H 	H 	0.63450 0.98390 0.88900 0.15300
N 	N 	0.69567 0.07466 0.88093 -0.26800
N 	N 	0.71941 0.04638 0.89275 -0.25600
N 	N 	0.71597 0.04559 0.83301 -0.25100
H 	H 	0.71960 0.03950 0.81050 0.12200
N 	N 	0.75417 0.00081 0.86154 -0.34000
H 	H 	0.76310 0.99200 0.88160 0.11100
H 	H 	0.76020 0.99130 0.84080 0.14100
C 	C 	0.56340 0.98587 0.81091 0.15900
C 	C 	0.60503 0.00439 0.84948 0.21000
C 	C 	0.69445 0.07304 0.84503 0.13800
C 	C 	0.73080 0.02940 0.86263 0.20000
Cu	Cu	0.60988 0.58582 0.32947 0.79600
Cu	Cu	0.54684 0.55467 0.26842 0.78300
S 	S 	0.53177 0.45733 0.28899 -0.55000
S 	S 	0.66974 0.60173 0.31563 -0.48500
N 	N 	0.56977 0.52054 0.30448 -0.27000
N 	N 	0.59701 0.53238 0.32898 -0.24700
N 	N 	0.58509 0.47489 0.33945 -0.25200
H 	H 	0.58590 0.45340 0.34910 0.12800
N 	N 	0.63091 0.50366 0.37663 -0.33100
H 	H 	0.64360 0.52300 0.38140 0.12800
H 	H 	0.63450 0.48390 0.38900 0.14500
N 	N 	0.69567 0.57466 0.38093 -0.26800
N 	N 	0.71941 0.54638 0.39275 -0.25500
N 	N 	0.71597 0.54559 0.33301 -0.25100
H 	H 	0.71960 0.53950 0.31050 0.12300
N 	N 	0.75417 0.50081 0.36154 -0.32500
H 	H 	0.76310 0.49200 0.38160 0.10200
H 	H 	0.76020 0.49130 0.34080 0.13200
C 	C 	0.56340 0.48587 0.31091 0.15200
C 	C 	0.60503 0.50439 0.34948 0.21600
C 	C 	0.69445 0.57304 0.34503 0.13800
C 	C 	0.73080 0.52940 0.36263 0.19900
Cu	Cu	0.10988 0.08582 0.32947 0.79600
Cu	Cu	0.04684 0.05467 0.26842 0.78200
S 	S 	0.03177 0.95733 0.28899 -0.55100
S 	S 	0.16974 0.10173 0.31563 -0.48500
N 	N 	0.06977 0.02054 0.30448 -0.27400
N 	N 	0.09701 0.03238 0.32898 -0.24600
N 	N 	0.08509 0.97489 0.33945 -0.24900
H 	H 	0.08590 0.95340 0.34910 0.12700
N 	N 	0.13091 0.00366 0.37663 -0.33700
H 	H 	0.14360 0.02300 0.38140 0.12900
H 	H 	0.13450 0.98390 0.38900 0.15200
N 	N 	0.19567 0.07466 0.38093 -0.26800
N 	N 	0.21941 0.04638 0.39275 -0.25600
N 	N 	0.21597 0.04559 0.33301 -0.25100
H 	H 	0.21960 0.03950 0.31050 0.12200
N 	N 	0.25417 0.00081 0.36154 -0.34000
H 	H 	0.26310 0.99200 0.38160 0.11200
H 	H 	0.26020 0.99130 0.34080 0.14100
C 	C 	0.06340 0.98587 0.31091 0.15900
C 	C 	0.10503 0.00439 0.34948 0.21000
C 	C 	0.19445 0.07304 0.34503 0.13800
C 	C 	0.23080 0.02940 0.36263 0.20000
Cu	Cu	0.10988 0.58582 0.82947 0.79600
Cu	Cu	0.04684 0.55467 0.76842 0.78200
S 	S 	0.03177 0.45733 0.78899 -0.55400
S 	S 	0.16974 0.60173 0.81563 -0.48500
N 	N 	0.06977 0.52054 0.80448 -0.27000
N 	N 	0.09701 0.53238 0.82898 -0.24700
N 	N 	0.08509 0.47489 0.83945 -0.25200
H 	H 	0.08590 0.45340 0.84910 0.12700
N 	N 	0.13091 0.50366 0.87663 -0.33100
H 	H 	0.14360 0.52300 0.88140 0.12900
H 	H 	0.13450 0.48390 0.88900 0.14600
N 	N 	0.19567 0.57466 0.88093 -0.26800
N 	N 	0.21941 0.54638 0.89275 -0.25500
N 	N 	0.21597 0.54559 0.83301 -0.25100
H 	H 	0.21960 0.53950 0.81050 0.12300
N 	N 	0.25417 0.50081 0.86154 -0.32500
H 	H 	0.26310 0.49200 0.88160 0.10200
H 	H 	0.26020 0.49130 0.84080 0.13200
C 	C 	0.06340 0.48587 0.81091 0.15200
C 	C 	0.10503 0.50439 0.84948 0.21600
C 	C 	0.19445 0.57304 0.84503 0.13800
C 	C 	0.23080 0.52940 0.86263 0.19900
Cu	Cu	0.60988 0.91418 0.17053 0.79600
Cu	Cu	0.54684 0.94533 0.23158 0.78400
S 	S 	0.53177 0.04267 0.21101 -0.55100
S 	S 	0.66974 0.89827 0.18437 -0.48400
N 	N 	0.56977 0.97946 0.19552 -0.26600
N 	N 	0.59701 0.96762 0.17102 -0.24700
N 	N 	0.58509 0.02511 0.16055 -0.25500
H 	H 	0.58590 0.04660 0.15090 0.12700
N 	N 	0.63091 0.99634 0.12337 -0.32400
H 	H 	0.64360 0.97700 0.11860 0.12800
H 	H 	0.63450 0.01610 0.11100 0.13800
N 	N 	0.69567 0.92534 0.11907 -0.26800
N 	N 	0.71941 0.95362 0.10725 -0.25300
N 	N 	0.71597 0.95441 0.16699 -0.25000
H 	H 	0.71960 0.96050 0.18950 0.12500
N 	N 	0.75417 0.99919 0.13846 -0.31000
H 	H 	0.76310 0.00800 0.11840 0.09300
H 	H 	0.76020 0.00870 0.15920 0.12300
C 	C 	0.56340 0.01413 0.18909 0.14400
C 	C 	0.60503 0.99561 0.15052 0.22200
C 	C 	0.69445 0.92696 0.15497 0.13800
C 	C 	0.73080 0.97060 0.13737 0.19900
Cu	Cu	0.60988 0.41418 0.67053 0.79600
Cu	Cu	0.54684 0.44533 0.73158 0.78300
S 	S 	0.53177 0.54267 0.71101 -0.55000
S 	S 	0.66974 0.39827 0.68437 -0.48500
N 	N 	0.56977 0.47946 0.69552 -0.27000
N 	N 	0.59701 0.46762 0.67102 -0.24700
N 	N 	0.58509 0.52511 0.66055 -0.25200
H 	H 	0.58590 0.54660 0.65090 0.12800
N 	N 	0.63091 0.49634 0.62337 -0.33100
H 	H 	0.64360 0.47700 0.61860 0.12800
H 	H 	0.63450 0.51610 0.61100 0.14500
N 	N 	0.69567 0.42534 0.61907 -0.26800
N 	N 	0.71941 0.45362 0.60725 -0.25500
N 	N 	0.71597 0.45441 0.66699 -0.25100
H 	H 	0.71960 0.46050 0.68950 0.12300
N 	N 	0.75417 0.49919 0.63846 -0.32500
H 	H 	0.76310 0.50800 0.61840 0.10200
H 	H 	0.76020 0.50870 0.65920 0.13200
C 	C 	0.56340 0.51413 0.68909 0.15200
C 	C 	0.60503 0.49561 0.65052 0.21600
C 	C 	0.69445 0.42696 0.65497 0.13800
C 	C 	0.73080 0.47060 0.63737 0.19900
Cu	Cu	0.10988 0.91418 0.67053 0.79600
Cu	Cu	0.04684 0.94533 0.73158 0.78300
S 	S 	0.03177 0.04267 0.71101 -0.55500
S 	S 	0.16974 0.89827 0.68437 -0.48400
N 	N 	0.06977 0.97946 0.69552 -0.26600
N 	N 	0.09701 0.96762 0.67102 -0.24800
N 	N 	0.08509 0.02511 0.66055 -0.25500
H 	H 	0.08590 0.04660 0.65090 0.12700
N 	N 	0.13091 0.99634 0.62337 -0.32400
H 	H 	0.14360 0.97700 0.61860 0.12800
H 	H 	0.13450 0.01610 0.61100 0.13800
N 	N 	0.19567 0.92534 0.61907 -0.26800
N 	N 	0.21941 0.95362 0.60725 -0.25300
N 	N 	0.21597 0.95441 0.66699 -0.25000
H 	H 	0.21960 0.96050 0.68950 0.12500
N 	N 	0.25417 0.99919 0.63846 -0.31000
H 	H 	0.26310 0.00800 0.61840 0.09300
H 	H 	0.26020 0.00870 0.65920 0.12300
C 	C 	0.06340 0.01413 0.68909 0.14400
C 	C 	0.10503 0.99561 0.65052 0.22200
C 	C 	0.19445 0.92696 0.65497 0.13800
C 	C 	0.23080 0.97060 0.63737 0.19900
Cu	Cu	0.10988 0.41418 0.17053 0.79600
Cu	Cu	0.04684 0.44533 0.23158 0.78200
S 	S 	0.03177 0.54267 0.21101 -0.55400
S 	S 	0.16974 0.39827 0.18437 -0.48500
N 	N 	0.06977 0.47946 0.19552 -0.27000
N 	N 	0.09701 0.46762 0.17102 -0.24700
N 	N 	0.08509 0.52511 0.16055 -0.25200
H 	H 	0.08590 0.54660 0.15090 0.12700
N 	N 	0.13091 0.49634 0.12337 -0.33100
H 	H 	0.14360 0.47700 0.11860 0.12800
H 	H 	0.13450 0.51610 0.11100 0.14500
N 	N 	0.19567 0.42534 0.11907 -0.26800
N 	N 	0.21941 0.45362 0.10725 -0.25500
N 	N 	0.21597 0.45441 0.16699 -0.25100
H 	H 	0.21960 0.46050 0.18950 0.12300
N 	N 	0.25417 0.49919 0.13846 -0.32500
H 	H 	0.26310 0.50800 0.11840 0.10200
H 	H 	0.26020 0.50870 0.15920 0.13200
C 	C 	0.06340 0.51413 0.18909 0.15100
C 	C 	0.10503 0.49561 0.15052 0.21500
C 	C 	0.19445 0.42696 0.15497 0.13800
C 	C 	0.23080 0.47060 0.13737 0.19900
Cu	Cu	0.39012 0.91418 0.82947 0.79600
Cu	Cu	0.45316 0.94533 0.76842 0.78400
S 	S 	0.46823 0.04267 0.78899 -0.55100
S 	S 	0.33026 0.89827 0.81563 -0.48400
N 	N 	0.43023 0.97946 0.80448 -0.26600
N 	N 	0.40299 0.96762 0.82898 -0.24700
N 	N 	0.41491 0.02511 0.83945 -0.25500
H 	H 	0.41410 0.04660 0.84910 0.12800
N 	N 	0.36909 0.99634 0.87663 -0.32500
H 	H 	0.35640 0.97700 0.88140 0.12800
H 	H 	0.36550 0.01610 0.88900 0.13900
N 	N 	0.30433 0.92534 0.88093 -0.26800
N 	N 	0.28059 0.95362 0.89275 -0.25300
N 	N 	0.28403 0.95441 0.83301 -0.25000
H 	H 	0.28040 0.96050 0.81050 0.12500
N 	N 	0.24583 0.99919 0.86154 -0.31000
H 	H 	0.23690 0.00800 0.88160 0.09300
H 	H 	0.23980 0.00870 0.84080 0.12300
C 	C 	0.43660 0.01413 0.81091 0.14500
C 	C 	0.39497 0.99561 0.84948 0.22200
C 	C 	0.30555 0.92696 0.84503 0.13800
C 	C 	0.26920 0.97060 0.86263 0.19900
Cu	Cu	0.39012 0.41418 0.32947 0.79600
Cu	Cu	0.45316 0.44533 0.26842 0.78300
S 	S 	0.46823 0.54267 0.28899 -0.55000
S 	S 	0.33026 0.39827 0.31563 -0.48500
N 	N 	0.43023 0.47946 0.30448 -0.27000
N 	N 	0.40299 0.46762 0.32898 -0.24700
N 	N 	0.41491 0.52511 0.33945 -0.25200
H 	H 	0.41410 0.54660 0.34910 0.12800
N 	N 	0.36909 0.49634 0.37663 -0.33100
H 	H 	0.35640 0.47700 0.38140 0.12800
H 	H 	0.36550 0.51610 0.38900 0.14500
N 	N 	0.30433 0.42534 0.38093 -0.26800
N 	N 	0.28059 0.45362 0.39275 -0.25500
N 	N 	0.28403 0.45441 0.33301 -0.25100
H 	H 	0.28040 0.46050 0.31050 0.12300
N 	N 	0.24583 0.49919 0.36154 -0.32500
H 	H 	0.23690 0.50800 0.38160 0.10200
H 	H 	0.23980 0.50870 0.34080 0.13200
C 	C 	0.43660 0.51413 0.31091 0.15200
C 	C 	0.39497 0.49561 0.34948 0.21600
C 	C 	0.30555 0.42696 0.34503 0.13800
C 	C 	0.26920 0.47060 0.36263 0.19900
Cu	Cu	0.89012 0.91418 0.32947 0.79600
Cu	Cu	0.95316 0.94533 0.26842 0.78500
S 	S 	0.96823 0.04267 0.28899 -0.54500
S 	S 	0.83026 0.89827 0.31563 -0.48400
N 	N 	0.93023 0.97946 0.30448 -0.26500
N 	N 	0.90299 0.96762 0.32898 -0.24700
N 	N 	0.91491 0.02511 0.33945 -0.25500
H 	H 	0.91410 0.04660 0.34910 0.12800
N 	N 	0.86909 0.99634 0.37663 -0.32500
H 	H 	0.85640 0.97700 0.38140 0.12800
H 	H 	0.86550 0.01610 0.38900 0.13900
N 	N 	0.80433 0.92534 0.38093 -0.26800
N 	N 	0.78059 0.95362 0.39275 -0.25300
N 	N 	0.78403 0.95441 0.33301 -0.25000
H 	H 	0.78040 0.96050 0.31050 0.12500
N 	N 	0.74583 0.99919 0.36154 -0.31000
H 	H 	0.73690 0.00800 0.38160 0.09300
H 	H 	0.73980 0.00870 0.34080 0.12300
C 	C 	0.93660 0.01413 0.31091 0.14500
C 	C 	0.89497 0.99561 0.34948 0.22300
C 	C 	0.80555 0.92696 0.34503 0.13800
C 	C 	0.76920 0.97060 0.36263 0.19900
Cu	Cu	0.89012 0.41418 0.82947 0.79600
Cu	Cu	0.95316 0.44533 0.76842 0.78500
S 	S 	0.96823 0.54267 0.78899 -0.54400
S 	S 	0.83026 0.39827 0.81563 -0.48500
N 	N 	0.93023 0.47946 0.80448 -0.26900
N 	N 	0.90299 0.46762 0.82898 -0.24700
N 	N 	0.91491 0.52511 0.83945 -0.25200
H 	H 	0.91410 0.54660 0.84910 0.12800
N 	N 	0.86909 0.49634 0.87663 -0.33100
H 	H 	0.85640 0.47700 0.88140 0.12900
H 	H 	0.86550 0.51610 0.88900 0.14600
N 	N 	0.80433 0.42534 0.88093 -0.26800
N 	N 	0.78059 0.45362 0.89275 -0.25500
N 	N 	0.78403 0.45441 0.83301 -0.25100
H 	H 	0.78040 0.46050 0.81050 0.12300
N 	N 	0.74583 0.49919 0.86154 -0.32500
H 	H 	0.73690 0.50800 0.88160 0.10200
H 	H 	0.73980 0.50870 0.84080 0.13200
C 	C 	0.93660 0.51413 0.81091 0.15200
C 	C 	0.89497 0.49561 0.84948 0.21700
C 	C 	0.80555 0.42696 0.84503 0.13800
C 	C 	0.76920 0.47060 0.86263 0.19900
Cu	Cu	0.08582 0.17053 0.39012 0.79600
Cu	Cu	0.05467 0.23158 0.45316 0.78300
S 	S 	0.95733 0.21101 0.46823 -0.54700
S 	S 	0.10173 0.18437 0.33026 -0.48500
N 	N 	0.02054 0.19552 0.43023 -0.27400
N 	N 	0.03238 0.17102 0.40299 -0.24600
N 	N 	0.97489 0.16055 0.41491 -0.24900
H 	H 	0.95340 0.15090 0.41410 0.12800
N 	N 	0.00366 0.12337 0.36909 -0.33700
H 	H 	0.02300 0.11860 0.35640 0.12900
H 	H 	0.98390 0.11100 0.36550 0.15200
N 	N 	0.07466 0.11907 0.30433 -0.26800
N 	N 	0.04638 0.10725 0.28059 -0.25600
N 	N 	0.04559 0.16699 0.28403 -0.25100
H 	H 	0.03950 0.18950 0.28040 0.12200
N 	N 	0.00081 0.13846 0.24583 -0.34000
H 	H 	0.99200 0.11840 0.23690 0.11200
H 	H 	0.99130 0.15920 0.23980 0.14100
C 	C 	0.98587 0.18909 0.43660 0.15900
C 	C 	0.00439 0.15052 0.39497 0.21000
C 	C 	0.07304 0.15497 0.30555 0.13800
C 	C 	0.02940 0.13737 0.26920 0.20000
Cu	Cu	0.08582 0.67053 0.89012 0.79600
Cu	Cu	0.05467 0.73158 0.95316 0.78400
S 	S 	0.95733 0.71101 0.96823 -0.54200
S 	S 	0.10173 0.68437 0.83026 -0.48500
N 	N 	0.02054 0.69552 0.93023 -0.27300
N 	N 	0.03238 0.67102 0.90299 -0.24600
N 	N 	0.97489 0.66055 0.91491 -0.24900
H 	H 	0.95340 0.65090 0.91410 0.12800
N 	N 	0.00366 0.62337 0.86909 -0.33700
H 	H 	0.02300 0.61860 0.85640 0.12900
H 	H 	0.98390 0.61100 0.86550 0.15300
N 	N 	0.07466 0.61907 0.80433 -0.26800
N 	N 	0.04638 0.60725 0.78059 -0.25600
N 	N 	0.04559 0.66699 0.78403 -0.25100
H 	H 	0.03950 0.68950 0.78040 0.12200
N 	N 	0.00081 0.63846 0.74583 -0.34000
H 	H 	0.99200 0.61840 0.73690 0.11100
H 	H 	0.99130 0.65920 0.73980 0.14100
C 	C 	0.98587 0.68909 0.93660 0.15900
C 	C 	0.00439 0.65052 0.89497 0.21100
C 	C 	0.07304 0.65497 0.80555 0.13800
C 	C 	0.02940 0.63737 0.76920 0.20000
Cu	Cu	0.58582 0.17053 0.89012 0.79600
Cu	Cu	0.55467 0.23158 0.95316 0.78500
S 	S 	0.45733 0.21101 0.96823 -0.54400
S 	S 	0.60173 0.18437 0.83026 -0.48500
N 	N 	0.52054 0.19552 0.93023 -0.26900
N 	N 	0.53238 0.17102 0.90299 -0.24700
N 	N 	0.47489 0.16055 0.91491 -0.25200
H 	H 	0.45340 0.15090 0.91410 0.12800
N 	N 	0.50366 0.12337 0.86909 -0.33100
H 	H 	0.52300 0.11860 0.85640 0.12800
H 	H 	0.48390 0.11100 0.86550 0.14500
N 	N 	0.57466 0.11907 0.80433 -0.26800
N 	N 	0.54638 0.10725 0.78059 -0.25500
N 	N 	0.54559 0.16699 0.78403 -0.25100
H 	H 	0.53950 0.18950 0.78040 0.12300
N 	N 	0.50081 0.13846 0.74583 -0.32500
H 	H 	0.49200 0.11840 0.73690 0.10200
H 	H 	0.49130 0.15920 0.73980 0.13200
C 	C 	0.48587 0.18909 0.93660 0.15200
C 	C 	0.50439 0.15052 0.89497 0.21600
C 	C 	0.57304 0.15497 0.80555 0.13800
C 	C 	0.52940 0.13737 0.76920 0.19900
Cu	Cu	0.58582 0.67053 0.39012 0.79600
Cu	Cu	0.55467 0.73158 0.45316 0.78300
S 	S 	0.45733 0.71101 0.46823 -0.55000
S 	S 	0.60173 0.68437 0.33026 -0.48500
N 	N 	0.52054 0.69552 0.43023 -0.27000
N 	N 	0.53238 0.67102 0.40299 -0.24700
N 	N 	0.47489 0.66055 0.41491 -0.25200
H 	H 	0.45340 0.65090 0.41410 0.12800
N 	N 	0.50366 0.62337 0.36909 -0.33100
H 	H 	0.52300 0.61860 0.35640 0.12800
H 	H 	0.48390 0.61100 0.36550 0.14500
N 	N 	0.57466 0.61907 0.30433 -0.26800
N 	N 	0.54638 0.60725 0.28059 -0.25500
N 	N 	0.54559 0.66699 0.28403 -0.25100
H 	H 	0.53950 0.68950 0.28040 0.12300
N 	N 	0.50081 0.63846 0.24583 -0.32500
H 	H 	0.49200 0.61840 0.23690 0.10200
H 	H 	0.49130 0.65920 0.23980 0.13200
C 	C 	0.48587 0.68909 0.43660 0.15200
C 	C 	0.50439 0.65052 0.39497 0.21600
C 	C 	0.57304 0.65497 0.30555 0.13800
C 	C 	0.52940 0.63737 0.26920 0.19900
Cu	Cu	0.08582 0.82947 0.60988 0.79600
Cu	Cu	0.05467 0.76842 0.54684 0.78300
S 	S 	0.95733 0.78899 0.53177 -0.54700
S 	S 	0.10173 0.81563 0.66974 -0.48500
N 	N 	0.02054 0.80448 0.56977 -0.27400
N 	N 	0.03238 0.82898 0.59701 -0.24600
N 	N 	0.97489 0.83945 0.58509 -0.24900
H 	H 	0.95340 0.84910 0.58590 0.12800
N 	N 	0.00366 0.87663 0.63091 -0.33700
H 	H 	0.02300 0.88140 0.64360 0.12900
H 	H 	0.98390 0.88900 0.63450 0.15300
N 	N 	0.07466 0.88093 0.69567 -0.26800
N 	N 	0.04638 0.89275 0.71941 -0.25600
N 	N 	0.04559 0.83301 0.71597 -0.25100
H 	H 	0.03950 0.81050 0.71960 0.12200
N 	N 	0.00081 0.86154 0.75417 -0.34000
H 	H 	0.99200 0.88160 0.76310 0.11100
H 	H 	0.99130 0.84080 0.76020 0.14100
C 	C 	0.98587 0.81091 0.56340 0.15900
C 	C 	0.00439 0.84948 0.60503 0.21000
C 	C 	0.07304 0.84503 0.69445 0.13800
C 	C 	0.02940 0.86263 0.73080 0.20000
Cu	Cu	0.08582 0.32947 0.10988 0.79600
Cu	Cu	0.05467 0.26842 0.04684 0.78200
S 	S 	0.95733 0.28899 0.03177 -0.55100
S 	S 	0.10173 0.31563 0.16974 -0.48500
N 	N 	0.02054 0.30448 0.06977 -0.27400
N 	N 	0.03238 0.32898 0.09701 -0.24600
N 	N 	0.97489 0.33945 0.08509 -0.24900
H 	H 	0.95340 0.34910 0.08590 0.12700
N 	N 	0.00366 0.37663 0.13091 -0.33700
H 	H 	0.02300 0.38140 0.14360 0.12900
H 	H 	0.98390 0.38900 0.13450 0.15200
N 	N 	0.07466 0.38093 0.19567 -0.26800
N 	N 	0.04638 0.39275 0.21941 -0.25600
N 	N 	0.04559 0.33301 0.21597 -0.25100
H 	H 	0.03950 0.31050 0.21960 0.12200
N 	N 	0.00081 0.36154 0.25417 -0.34000
H 	H 	0.99200 0.38160 0.26310 0.11200
H 	H 	0.99130 0.34080 0.26020 0.14100
C 	C 	0.98587 0.31091 0.06340 0.15900
C 	C 	0.00439 0.34948 0.10503 0.21000
C 	C 	0.07304 0.34503 0.19445 0.13800
C 	C 	0.02940 0.36263 0.23080 0.20000
Cu	Cu	0.58582 0.82947 0.10988 0.79600
Cu	Cu	0.55467 0.76842 0.04684 0.78200
S 	S 	0.45733 0.78899 0.03177 -0.55400
S 	S 	0.60173 0.81563 0.16974 -0.48500
N 	N 	0.52054 0.80448 0.06977 -0.27000
N 	N 	0.53238 0.82898 0.09701 -0.24700
N 	N 	0.47489 0.83945 0.08509 -0.25200
H 	H 	0.45340 0.84910 0.08590 0.12700
N 	N 	0.50366 0.87663 0.13091 -0.33100
H 	H 	0.52300 0.88140 0.14360 0.12900
H 	H 	0.48390 0.88900 0.13450 0.14600
N 	N 	0.57466 0.88093 0.19567 -0.26800
N 	N 	0.54638 0.89275 0.21941 -0.25500
N 	N 	0.54559 0.83301 0.21597 -0.25100
H 	H 	0.53950 0.81050 0.21960 0.12300
N 	N 	0.50081 0.86154 0.25417 -0.32500
H 	H 	0.49200 0.88160 0.26310 0.10200
H 	H 	0.49130 0.84080 0.26020 0.13200
C 	C 	0.48587 0.81091 0.06340 0.15200
C 	C 	0.50439 0.84948 0.10503 0.21600
C 	C 	0.57304 0.84503 0.19445 0.13800
C 	C 	0.52940 0.86263 0.23080 0.19900
Cu	Cu	0.58582 0.32947 0.60988 0.79600
Cu	Cu	0.55467 0.26842 0.54684 0.78300
S 	S 	0.45733 0.28899 0.53177 -0.55000
S 	S 	0.60173 0.31563 0.66974 -0.48500
N 	N 	0.52054 0.30448 0.56977 -0.27000
N 	N 	0.53238 0.32898 0.59701 -0.24700
N 	N 	0.47489 0.33945 0.58509 -0.25200
H 	H 	0.45340 0.34910 0.58590 0.12800
N 	N 	0.50366 0.37663 0.63091 -0.33100
H 	H 	0.52300 0.38140 0.64360 0.12800
H 	H 	0.48390 0.38900 0.63450 0.14500
N 	N 	0.57466 0.38093 0.69567 -0.26800
N 	N 	0.54638 0.39275 0.71941 -0.25500
N 	N 	0.54559 0.33301 0.71597 -0.25100
H 	H 	0.53950 0.31050 0.71960 0.12300
N 	N 	0.50081 0.36154 0.75417 -0.32500
H 	H 	0.49200 0.38160 0.76310 0.10200
H 	H 	0.49130 0.34080 0.76020 0.13200
C 	C 	0.48587 0.31091 0.56340 0.15200
C 	C 	0.50439 0.34948 0.60503 0.21600
C 	C 	0.57304 0.34503 0.69445 0.13800
C 	C 	0.52940 0.36263 0.73080 0.19900
Cu	Cu	0.91418 0.17053 0.60988 0.79600
Cu	Cu	0.94533 0.23158 0.54684 0.78400
S 	S 	0.04267 0.21101 0.53177 -0.55100
S 	S 	0.89827 0.18437 0.66974 -0.48400
N 	N 	0.97946 0.19552 0.56977 -0.26600
N 	N 	0.96762 0.17102 0.59701 -0.24700
N 	N 	0.02511 0.16055 0.58509 -0.25500
H 	H 	0.04660 0.15090 0.58590 0.12700
N 	N 	0.99634 0.12337 0.63091 -0.32400
H 	H 	0.97700 0.11860 0.64360 0.12800
H 	H 	0.01610 0.11100 0.63450 0.13800
N 	N 	0.92534 0.11907 0.69567 -0.26800
N 	N 	0.95362 0.10725 0.71941 -0.25300
N 	N 	0.95441 0.16699 0.71597 -0.25000
H 	H 	0.96050 0.18950 0.71960 0.12500
N 	N 	0.99919 0.13846 0.75417 -0.31000
H 	H 	0.00800 0.11840 0.76310 0.09300
H 	H 	0.00870 0.15920 0.76020 0.12300
C 	C 	0.01413 0.18909 0.56340 0.14400
C 	C 	0.99561 0.15052 0.60503 0.22200
C 	C 	0.92696 0.15497 0.69445 0.13800
C 	C 	0.97060 0.13737 0.73080 0.19900
Cu	Cu	0.91418 0.67053 0.10988 0.79600
Cu	Cu	0.94533 0.73158 0.04684 0.78300
S 	S 	0.04267 0.71101 0.03177 -0.55500
S 	S 	0.89827 0.68437 0.16974 -0.48400
N 	N 	0.97946 0.69552 0.06977 -0.26600
N 	N 	0.96762 0.67102 0.09701 -0.24800
N 	N 	0.02511 0.66055 0.08509 -0.25500
H 	H 	0.04660 0.65090 0.08590 0.12700
N 	N 	0.99634 0.62337 0.13091 -0.32400
H 	H 	0.97700 0.61860 0.14360 0.12800
H 	H 	0.01610 0.61100 0.13450 0.13800
N 	N 	0.92534 0.61907 0.19567 -0.26800
N 	N 	0.95362 0.60725 0.21941 -0.25300
N 	N 	0.95441 0.66699 0.21597 -0.25000
H 	H 	0.96050 0.68950 0.21960 0.12500
N 	N 	0.99919 0.63846 0.25417 -0.31000
H 	H 	0.00800 0.61840 0.26310 0.09300
H 	H 	0.00870 0.65920 0.26020 0.12300
C 	C 	0.01413 0.68909 0.06340 0.14400
C 	C 	0.99561 0.65052 0.10503 0.22200
C 	C 	0.92696 0.65497 0.19445 0.13800
C 	C 	0.97060 0.63737 0.23080 0.19900
Cu	Cu	0.41418 0.17053 0.10988 0.79600
Cu	Cu	0.44533 0.23158 0.04684 0.78200
S 	S 	0.54267 0.21101 0.03177 -0.55400
S 	S 	0.39827 0.18437 0.16974 -0.48500
N 	N 	0.47946 0.19552 0.06977 -0.27000
N 	N 	0.46762 0.17102 0.09701 -0.24700
N 	N 	0.52511 0.16055 0.08509 -0.25200
H 	H 	0.54660 0.15090 0.08590 0.12700
N 	N 	0.49634 0.12337 0.13091 -0.33100
H 	H 	0.47700 0.11860 0.14360 0.12800
H 	H 	0.51610 0.11100 0.13450 0.14500
N 	N 	0.42534 0.11907 0.19567 -0.26800
N 	N 	0.45362 0.10725 0.21941 -0.25500
N 	N 	0.45441 0.16699 0.21597 -0.25100
H 	H 	0.46050 0.18950 0.21960 0.12300
N 	N 	0.49919 0.13846 0.25417 -0.32500
H 	H 	0.50800 0.11840 0.26310 0.10200
H 	H 	0.50870 0.15920 0.26020 0.13200
C 	C 	0.51413 0.18909 0.06340 0.15100
C 	C 	0.49561 0.15052 0.10503 0.21500
C 	C 	0.42696 0.15497 0.19445 0.13800
C 	C 	0.47060 0.13737 0.23080 0.19900
Cu	Cu	0.41418 0.67053 0.60988 0.79600
Cu	Cu	0.44533 0.73158 0.54684 0.78300
S 	S 	0.54267 0.71101 0.53177 -0.55000
S 	S 	0.39827 0.68437 0.66974 -0.48500
N 	N 	0.47946 0.69552 0.56977 -0.27000
N 	N 	0.46762 0.67102 0.59701 -0.24700
N 	N 	0.52511 0.66055 0.58509 -0.25200
H 	H 	0.54660 0.65090 0.58590 0.12800
N 	N 	0.49634 0.62337 0.63091 -0.33100
H 	H 	0.47700 0.61860 0.64360 0.12800
H 	H 	0.51610 0.61100 0.63450 0.14500
N 	N 	0.42534 0.61907 0.69567 -0.26800
N 	N 	0.45362 0.60725 0.71941 -0.25500
N 	N 	0.45441 0.66699 0.71597 -0.25100
H 	H 	0.46050 0.68950 0.71960 0.12300
N 	N 	0.49919 0.63846 0.75417 -0.32500
H 	H 	0.50800 0.61840 0.76310 0.10200
H 	H 	0.50870 0.65920 0.76020 0.13200
C 	C 	0.51413 0.68909 0.56340 0.15200
C 	C 	0.49561 0.65052 0.60503 0.21600
C 	C 	0.42696 0.65497 0.69445 0.13800
C 	C 	0.47060 0.63737 0.73080 0.19900
Cu	Cu	0.91418 0.82947 0.39012 0.79600
Cu	Cu	0.94533 0.76842 0.45316 0.78400
S 	S 	0.04267 0.78899 0.46823 -0.55100
S 	S 	0.89827 0.81563 0.33026 -0.48400
N 	N 	0.97946 0.80448 0.43023 -0.26600
N 	N 	0.96762 0.82898 0.40299 -0.24700
N 	N 	0.02511 0.83945 0.41491 -0.25500
H 	H 	0.04660 0.84910 0.41410 0.12800
N 	N 	0.99634 0.87663 0.36909 -0.32500
H 	H 	0.97700 0.88140 0.35640 0.12800
H 	H 	0.01610 0.88900 0.36550 0.13900
N 	N 	0.92534 0.88093 0.30433 -0.26800
N 	N 	0.95362 0.89275 0.28059 -0.25300
N 	N 	0.95441 0.83301 0.28403 -0.25000
H 	H 	0.96050 0.81050 0.28040 0.12500
N 	N 	0.99919 0.86154 0.24583 -0.31000
H 	H 	0.00800 0.88160 0.23690 0.09300
H 	H 	0.00870 0.84080 0.23980 0.12300
C 	C 	0.01413 0.81091 0.43660 0.14500
C 	C 	0.99561 0.84948 0.39497 0.22200
C 	C 	0.92696 0.84503 0.30555 0.13800
C 	C 	0.97060 0.86263 0.26920 0.19900
Cu	Cu	0.91418 0.32947 0.89012 0.79600
Cu	Cu	0.94533 0.26842 0.95316 0.78500
S 	S 	0.04267 0.28899 0.96823 -0.54500
S 	S 	0.89827 0.31563 0.83026 -0.48400
N 	N 	0.97946 0.30448 0.93023 -0.26500
N 	N 	0.96762 0.32898 0.90299 -0.24700
N 	N 	0.02511 0.33945 0.91491 -0.25500
H 	H 	0.04660 0.34910 0.91410 0.12800
N 	N 	0.99634 0.37663 0.86909 -0.32500
H 	H 	0.97700 0.38140 0.85640 0.12800
H 	H 	0.01610 0.38900 0.86550 0.13900
N 	N 	0.92534 0.38093 0.80433 -0.26800
N 	N 	0.95362 0.39275 0.78059 -0.25300
N 	N 	0.95441 0.33301 0.78403 -0.25000
H 	H 	0.96050 0.31050 0.78040 0.12500
N 	N 	0.99919 0.36154 0.74583 -0.31000
H 	H 	0.00800 0.38160 0.73690 0.09300
H 	H 	0.00870 0.34080 0.73980 0.12300
C 	C 	0.01413 0.31091 0.93660 0.14500
C 	C 	0.99561 0.34948 0.89497 0.22300
C 	C 	0.92696 0.34503 0.80555 0.13800
C 	C 	0.97060 0.36263 0.76920 0.19900
Cu	Cu	0.41418 0.82947 0.89012 0.79600
Cu	Cu	0.44533 0.76842 0.95316 0.78500
S 	S 	0.54267 0.78899 0.96823 -0.54400
S 	S 	0.39827 0.81563 0.83026 -0.48500
N 	N 	0.47946 0.80448 0.93023 -0.26900
N 	N 	0.46762 0.82898 0.90299 -0.24700
N 	N 	0.52511 0.83945 0.91491 -0.25200
H 	H 	0.54660 0.84910 0.91410 0.12800
N 	N 	0.49634 0.87663 0.86909 -0.33100
H 	H 	0.47700 0.88140 0.85640 0.12900
H 	H 	0.51610 0.88900 0.86550 0.14600
N 	N 	0.42534 0.88093 0.80433 -0.26800
N 	N 	0.45362 0.89275 0.78059 -0.25500
N 	N 	0.45441 0.83301 0.78403 -0.25100
H 	H 	0.46050 0.81050 0.78040 0.12300
N 	N 	0.49919 0.86154 0.74583 -0.32500
H 	H 	0.50800 0.88160 0.73690 0.10200
H 	H 	0.50870 0.84080 0.73980 0.13200
C 	C 	0.51413 0.81091 0.93660 0.15200
C 	C 	0.49561 0.84948 0.89497 0.21700
C 	C 	0.42696 0.84503 0.80555 0.13800
C 	C 	0.47060 0.86263 0.76920 0.19900
Cu	Cu	0.41418 0.32947 0.39012 0.79600
Cu	Cu	0.44533 0.26842 0.45316 0.78300
S 	S 	0.54267 0.28899 0.46823 -0.55000
S 	S 	0.39827 0.31563 0.33026 -0.48500
N 	N 	0.47946 0.30448 0.43023 -0.27000
N 	N 	0.46762 0.32898 0.40299 -0.24700
N 	N 	0.52511 0.33945 0.41491 -0.25200
H 	H 	0.54660 0.34910 0.41410 0.12800
N 	N 	0.49634 0.37663 0.36909 -0.33100
H 	H 	0.47700 0.38140 0.35640 0.12800
H 	H 	0.51610 0.38900 0.36550 0.14500
N 	N 	0.42534 0.38093 0.30433 -0.26800
N 	N 	0.45362 0.39275 0.28059 -0.25500
N 	N 	0.45441 0.33301 0.28403 -0.25100
H 	H 	0.46050 0.31050 0.28040 0.12300
N 	N 	0.49919 0.36154 0.24583 -0.32500
H 	H 	0.50800 0.38160 0.23690 0.10200
H 	H 	0.50870 0.34080 0.23980 0.13200
C 	C 	0.51413 0.31091 0.43660 0.15200
C 	C 	0.49561 0.34948 0.39497 0.21600
C 	C 	0.42696 0.34503 0.30555 0.13800
C 	C 	0.47060 0.36263 0.26920 0.19900
Cu	Cu	0.85207 0.64793 0.64793 0.74400
Br	Br	0.90142 0.59858 0.59858 -0.70000
Cu	Cu	0.85207 0.14793 0.14793 0.74400
Br	Br	0.90142 0.09858 0.09858 -0.70200
Cu	Cu	0.14793 0.35207 0.64793 0.74400
Br	Br	0.09858 0.40142 0.59858 -0.70200
Cu	Cu	0.14793 0.85207 0.14793 0.74400
Br	Br	0.09858 0.90142 0.09858 -0.70200
Cu	Cu	0.14793 0.64793 0.35207 0.74400
Br	Br	0.09858 0.59858 0.40142 -0.70200
Cu	Cu	0.14793 0.14793 0.85207 0.74400
Br	Br	0.09858 0.09858 0.90142 -0.70200
Cu	Cu	0.85207 0.35207 0.35207 0.74400
Br	Br	0.90142 0.40142 0.40142 -0.70000
Cu	Cu	0.85207 0.85207 0.85207 0.74400
Br	Br	0.90142 0.90142 0.90142 -0.69700
Cu	Cu	0.64793 0.85207 0.64793 0.74400
Br	Br	0.59858 0.90142 0.59858 -0.70000
Cu	Cu	0.64793 0.14793 0.35207 0.74400
Br	Br	0.59858 0.09858 0.40142 -0.70200
Cu	Cu	0.35207 0.14793 0.64793 0.74400
Br	Br	0.40142 0.09858 0.59858 -0.70200
Cu	Cu	0.35207 0.85207 0.35207 0.74400
Br	Br	0.40142 0.90142 0.40142 -0.70000
Cu	Cu	0.64793 0.64793 0.85207 0.74400
Br	Br	0.59858 0.59858 0.90142 -0.70000
Cu	Cu	0.35207 0.64793 0.14793 0.74400
Br	Br	0.40142 0.59858 0.09858 -0.70200
Cu	Cu	0.64793 0.35207 0.14793 0.74400
Br	Br	0.59858 0.40142 0.09858 -0.70200
Cu	Cu	0.35207 0.35207 0.85207 0.74400
Br	Br	0.40142 0.40142 0.90142 -0.70000
Cu	Cu	0.14793 0.35207 0.14793 0.74400
Br	Br	0.09858 0.40142 0.09858 -0.70300
Cu	Cu	0.85207 0.64793 0.14793 0.74400
Br	Br	0.90142 0.59858 0.09858 -0.70100
Cu	Cu	0.14793 0.64793 0.85207 0.74400
Br	Br	0.09858 0.59858 0.90142 -0.70100
Cu	Cu	0.85207 0.35207 0.85207 0.74400
Br	Br	0.90142 0.40142 0.90142 -0.69800
Cu	Cu	0.35207 0.14793 0.14793 0.74400
Br	Br	0.40142 0.09858 0.09858 -0.70300
Cu	Cu	0.35207 0.64793 0.64793 0.74400
Br	Br	0.40142 0.59858 0.59858 -0.70100
Cu	Cu	0.64793 0.14793 0.85207 0.74400
Br	Br	0.59858 0.09858 0.90142 -0.70100
Cu	Cu	0.64793 0.64793 0.35207 0.74400
Br	Br	0.59858 0.59858 0.40142 -0.70100
Cu	Cu	0.64793 0.85207 0.14793 0.74400
Br	Br	0.59858 0.90142 0.09858 -0.70100
Cu	Cu	0.64793 0.35207 0.64793 0.74400
Br	Br	0.59858 0.40142 0.59858 -0.70100
Cu	Cu	0.35207 0.85207 0.85207 0.74400
Br	Br	0.40142 0.90142 0.90142 -0.69800
Cu	Cu	0.35207 0.35207 0.35207 0.74400
Br	Br	0.40142 0.40142 0.40142 -0.70100
Cu	Cu	0.14793 0.14793 0.35207 0.74400
Br	Br	0.09858 0.09858 0.40142 -0.70300
Cu	Cu	0.14793 0.85207 0.64793 0.74400
Br	Br	0.09858 0.90142 0.59858 -0.70100
Cu	Cu	0.85207 0.14793 0.64793 0.74400
Br	Br	0.90142 0.09858 0.59858 -0.70100
Cu	Cu	0.85207 0.85207 0.35207 0.74400
Br	Br	0.90142 0.90142 0.40142 -0.69800
Cu	Cu	-0.00000 0.75000 0.50000 0.69600
Cu	Cu	-0.00000 0.25000 -0.00000 0.69300
Cu	Cu	0.50000 0.75000 -0.00000 0.69600
Cu	Cu	0.50000 0.25000 0.50000 0.70000
Cu	Cu	-0.00000 0.25000 0.50000 0.69600
Cu	Cu	-0.00000 0.75000 -0.00000 0.69300
Cu	Cu	0.50000 0.25000 -0.00000 0.69600
Cu	Cu	0.50000 0.75000 0.50000 0.70000
Cu	Cu	0.50000 -0.00000 0.75000 0.69600
Cu	Cu	0.50000 0.50000 0.25000 0.70000
Cu	Cu	-0.00000 0.00000 0.25000 0.69300
Cu	Cu	0.00000 0.50000 0.75000 0.69600
Cu	Cu	0.50000 0.00000 0.25000 0.69600
Cu	Cu	0.50000 0.50000 0.75000 0.70000
Cu	Cu	-0.00000 -0.00000 0.75000 0.69300
Cu	Cu	-0.00000 0.50000 0.25000 0.69600
Cu	Cu	0.75000 0.50000 -0.00000 0.69600
Cu	Cu	0.75000 0.00000 0.50000 0.69600
Cu	Cu	0.25000 0.50000 0.50000 0.70000
Cu	Cu	0.25000 0.00000 -0.00000 0.69300
Cu	Cu	0.25000 0.50000 -0.00000 0.69600
Cu	Cu	0.25000 0.00000 0.50000 0.69600
Cu	Cu	0.75000 0.50000 0.50000 0.70000
Cu	Cu	0.75000 0.00000 -0.00000 0.69300
