data_crystal

_cell_length_a 10.12600
_cell_length_b 15.98920
_cell_length_c 15.98920
_cell_angle_alpha 64.33210
_cell_angle_beta  77.81310
_cell_angle_gamma 102.18700

_symmetry_space_group_name_	'P 1'
_symmetry_space_group_name_H-M	'P 1'

loop_
_symmetry_equiv_pos_as_xyz
  x,y,z

loop_
_atom_site_label
_atom_site_type_symbol
_atom_site_fract_x
_atom_site_fract_y
_atom_site_fract_z
_atom_site_charge
Co	Co	0.50000 1.00000 0.50000 1.10700
Co	Co	0.00000 0.50000 0.50000 1.10600
Co	Co	0.50000 0.50000 -0.00000 1.11000
H 	H 	0.37470 0.86280 0.73380 0.01300
H 	H 	0.45980 0.80880 0.86280 0.03300
H 	H 	0.70000 0.88010 0.83510 0.08400
H 	H 	0.01140 0.22600 0.17750 0.03300
H 	H 	0.21690 0.33760 0.05150 -0.02500
H 	H 	0.39280 0.37090 0.23300 0.00200
H 	H 	0.19110 0.25880 0.36570 0.07000
H 	H 	0.96660 0.06070 0.60230 0.22200
H 	H 	0.95910 0.96250 0.69130 0.18100
H 	H 	0.92690 0.04630 0.70910 0.20200
H 	H 	0.10850 0.73380 0.40340 0.01300
H 	H 	0.32260 0.86280 0.32840 -0.00000
H 	H 	0.53510 0.83510 0.28480 0.10300
H 	H 	0.18890 0.17750 0.59650 0.06000
H 	H 	0.26840 0.05150 0.61090 -0.00700
H 	H 	0.62580 0.23300 0.39610 -0.00200
H 	H 	0.55680 0.36570 0.37550 0.08500
H 	H 	0.56890 0.60230 0.33700 0.27700
H 	H 	0.65040 0.69130 0.34620 0.26600
H 	H 	0.63600 0.70910 0.24460 0.25400
H 	H 	0.51190 0.40340 0.86280 0.03800
H 	H 	0.65100 0.32840 0.80880 -0.00700
H 	H 	0.81990 0.28480 0.88010 0.15000
H 	H 	0.78540 0.59650 0.22600 0.07500
H 	H 	0.87930 0.61090 0.33760 -0.01700
H 	H 	0.02190 0.39610 0.37090 -0.06600
H 	H 	0.93230 0.37550 0.25880 0.11700
H 	H 	0.90590 0.33700 0.06070 0.36400
H 	H 	0.99660 0.34620 0.96250 0.37800
H 	H 	0.88060 0.24460 0.04630 0.34200
H 	H 	0.62530 0.13720 0.26620 0.03700
H 	H 	0.54020 0.19120 0.13720 -0.01100
H 	H 	0.30000 0.11990 0.16490 0.12800
H 	H 	0.98860 0.77400 0.82250 0.09300
H 	H 	0.78310 0.66240 0.94850 -0.00800
H 	H 	0.60720 0.62910 0.76700 -0.00900
H 	H 	0.80890 0.74120 0.63430 0.10200
H 	H 	0.03340 0.93930 0.39770 0.32300
H 	H 	0.04090 0.03750 0.30870 0.33500
H 	H 	0.07310 0.95370 0.29090 0.29900
H 	H 	0.89150 0.26620 0.59660 0.03800
H 	H 	0.67740 0.13720 0.67160 0.01900
H 	H 	0.46490 0.16490 0.71520 0.11400
H 	H 	0.81110 0.82250 0.40350 0.07100
H 	H 	0.73160 0.94850 0.38910 -0.02700
H 	H 	0.37420 0.76700 0.60390 -0.00500
H 	H 	0.44320 0.63430 0.62450 0.08900
H 	H 	0.43110 0.39770 0.66300 0.27900
H 	H 	0.34960 0.30870 0.65380 0.26700
H 	H 	0.36400 0.29090 0.75540 0.25900
H 	H 	0.48810 0.59660 0.13720 0.01100
H 	H 	0.34900 0.67160 0.19120 0.02900
H 	H 	0.18010 0.71520 0.11990 0.06000
H 	H 	0.21460 0.40350 0.77400 0.05700
H 	H 	0.12070 0.38910 0.66240 -0.01600
H 	H 	0.97810 0.60390 0.62910 0.05400
H 	H 	0.06770 0.62450 0.74120 0.06100
H 	H 	0.09410 0.66300 0.93930 0.17800
H 	H 	0.00340 0.65380 0.03750 0.13400
H 	H 	0.11940 0.75540 0.95370 0.15800
C 	C 	0.47230 0.88870 0.72220 -0.00400
C 	C 	0.52180 0.85730 0.79970 -0.00200
C 	C 	0.66610 0.89930 0.78230 -0.16900
C 	C 	0.75970 0.96840 0.68940 0.17700
C 	C 	0.70230 0.99550 0.61330 -0.10400
C 	C 	0.78410 0.06530 0.50820 0.13800
C 	C 	0.93820 0.16300 0.36890 0.12300
C 	C 	0.07390 0.23130 0.28690 -0.01000
C 	C 	0.08740 0.25560 0.19090 -0.11500
C 	C 	0.21110 0.32250 0.11560 0.05100
C 	C 	0.31390 0.34200 0.22150 0.06300
C 	C 	0.19280 0.27470 0.30210 -0.10500
C 	C 	0.91760 0.01370 0.67140 -0.54900
C 	C 	0.19450 0.72220 0.38910 -0.03300
C 	C 	0.32150 0.79970 0.34300 0.04700
C 	C 	0.44840 0.78230 0.31840 -0.24600
C 	C 	0.44910 0.68940 0.34220 0.28100
C 	C 	0.31560 0.61330 0.39120 -0.11000
C 	C 	0.29230 0.50820 0.42650 0.11300
C 	C 	0.30710 0.36890 0.46810 0.07200
C 	C 	0.36080 0.28690 0.48180 0.05300
C 	C 	0.27830 0.19090 0.55350 -0.14100
C 	C 	0.32670 0.11560 0.56190 0.07200
C 	C 	0.53540 0.22150 0.43650 0.08300
C 	C 	0.49490 0.30210 0.42320 -0.13600
C 	C 	0.58900 0.67140 0.31490 -0.80000
C 	C 	0.58360 0.38910 0.88870 -0.05800
C 	C 	0.66450 0.34300 0.85730 0.11000
C 	C 	0.76680 0.31840 0.89930 -0.32400
C 	C 	0.79130 0.34220 0.96840 0.40400
C 	C 	0.70680 0.39120 0.99550 -0.12300
C 	C 	0.71880 0.42650 0.06530 0.10400
C 	C 	0.77520 0.46810 0.16300 0.06800
C 	C 	0.84260 0.48180 0.23130 0.09000
C 	C 	0.83180 0.55350 0.25560 -0.16300
C 	C 	0.88860 0.56190 0.32250 0.09400
C 	C 	0.97190 0.43650 0.34200 0.18700
C 	C 	0.91810 0.42320 0.27470 -0.19500
C 	C 	0.90390 0.31490 0.01370 -1.07600
C 	C 	0.52770 0.11130 0.27780 -0.05200
C 	C 	0.47820 0.14270 0.20030 0.09300
C 	C 	0.33390 0.10070 0.21770 -0.30500
C 	C 	0.24030 0.03160 0.31060 0.37100
C 	C 	0.29770 0.00450 0.38670 -0.11000
C 	C 	0.21590 0.93470 0.49180 0.09100
C 	C 	0.06180 0.83700 0.63110 0.02700
C 	C 	0.92610 0.76870 0.71310 0.11400
C 	C 	0.91260 0.74440 0.80910 -0.17200
C 	C 	0.78890 0.67750 0.88440 0.09700
C 	C 	0.68610 0.65800 0.77850 0.10400
C 	C 	0.80720 0.72530 0.69790 -0.16900
C 	C 	0.08240 0.98630 0.32860 -1.01200
C 	C 	0.80550 0.27780 0.61090 -0.02800
C 	C 	0.67850 0.20030 0.65700 0.05300
C 	C 	0.55160 0.21770 0.68160 -0.24300
C 	C 	0.55090 0.31060 0.65780 0.28600
C 	C 	0.68440 0.38670 0.60880 -0.10700
C 	C 	0.70770 0.49180 0.57350 0.11500
C 	C 	0.69290 0.63110 0.53190 0.07000
C 	C 	0.63920 0.71310 0.51820 0.06100
C 	C 	0.72170 0.80910 0.44650 -0.15200
C 	C 	0.67330 0.88440 0.43810 0.07900
C 	C 	0.46460 0.77850 0.56350 0.08700
C 	C 	0.50510 0.69790 0.57680 -0.14300
C 	C 	0.41100 0.32860 0.68510 -0.80400
C 	C 	0.41640 0.61090 0.11130 0.00300
C 	C 	0.33550 0.65700 0.14270 -0.02200
C 	C 	0.23320 0.68160 0.10070 -0.14700
C 	C 	0.20870 0.65780 0.03160 0.13800
C 	C 	0.29320 0.60880 0.00450 -0.08800
C 	C 	0.28120 0.57350 0.93470 0.12400
C 	C 	0.22480 0.53190 0.83700 0.07400
C 	C 	0.15740 0.51820 0.76870 0.02700
C 	C 	0.16820 0.44650 0.74440 -0.13100
C 	C 	0.11140 0.43810 0.67750 0.05900
C 	C 	0.02810 0.56350 0.65800 -0.00800
C 	C 	0.08190 0.57680 0.72530 -0.08900
C 	C 	0.09610 0.68510 0.98630 -0.47100
N 	N 	0.56020 0.95550 0.63060 -0.20100
N 	N 	0.71502 0.07754 0.44298 -0.21700
N 	N 	0.81579 0.14078 0.35091 -0.10700
N 	N 	0.92620 0.11920 0.46520 -0.14200
N 	N 	0.32560 0.36840 0.12880 -0.23000
N 	N 	0.19080 0.63060 0.41390 -0.19100
N 	N 	0.15800 0.44298 0.47948 -0.22900
N 	N 	0.16670 0.35091 0.50831 -0.11200
N 	N 	0.39140 0.46520 0.41560 -0.14800
N 	N 	0.45440 0.12880 0.50280 -0.22600
N 	N 	0.60470 0.41390 0.95550 -0.16900
N 	N 	0.63748 0.47948 0.07754 -0.22700
N 	N 	0.67501 0.50831 0.14078 -0.10500
N 	N 	0.80700 0.41560 0.11920 -0.14700
N 	N 	0.95720 0.50280 0.36840 -0.24300
N 	N 	0.43980 0.04450 0.36940 -0.17200
N 	N 	0.28498 0.92246 0.55702 -0.22700
N 	N 	0.18421 0.85922 0.64909 -0.10500
N 	N 	0.07380 0.88080 0.53480 -0.15300
N 	N 	0.67440 0.63160 0.87120 -0.23400
N 	N 	0.80920 0.36940 0.58610 -0.17900
N 	N 	0.84200 0.55702 0.52052 -0.21600
N 	N 	0.83330 0.64909 0.49169 -0.10100
N 	N 	0.60860 0.53480 0.58440 -0.14800
N 	N 	0.54560 0.87120 0.49720 -0.23900
N 	N 	0.39530 0.58610 0.04450 -0.20400
N 	N 	0.36252 0.52052 0.92246 -0.21800
N 	N 	0.32499 0.49169 0.85922 -0.10700
N 	N 	0.19300 0.58440 0.88080 -0.14700
N 	N 	0.04280 0.49720 0.63160 -0.22300
