data_crystal

_cell_length_a 54.78000
_cell_length_b 16.07000
_cell_length_c 12.32800
_cell_angle_alpha 90.00000
_cell_angle_beta  96.78000
_cell_angle_gamma 90.00000

_symmetry_space_group_name_	'P 1'
_symmetry_space_group_name_H-M	'P 1'

loop_
_symmetry_equiv_pos_as_xyz
  x,y,z

loop_
_atom_site_label
_atom_site_type_symbol
_atom_site_fract_x
_atom_site_fract_y
_atom_site_fract_z
_atom_site_charge
Nd	Nd	0.77168 0.02422 0.38384 1.77800
Nd	Nd	0.90423 0.05331 0.18013 2.08500
Nd	Nd	0.82821 0.33880 0.21386 1.84200
N 	N 	0.81638 0.05450 0.48810 -0.19600
C 	C 	0.81914 0.03340 0.59450 -0.11800
C 	C 	0.84230 0.01820 0.65120 0.07900
H 	H 	0.84370 0.00790 0.72590 0.00400
N 	N 	0.86231 0.01820 0.60040 -0.19100
C 	C 	0.85945 0.03980 0.49510 -0.09600
C 	C 	0.83672 0.06220 0.44110 0.07200
H 	H 	0.83580 0.08300 0.37040 -0.00900
C 	C 	0.79610 0.01680 0.64660 0.39900
O 	O 	0.77610 0.01460 0.58350 -0.52100
O 	O 	0.79870 0.00200 0.74600 -0.51900
C 	C 	0.88239 0.03440 0.43690 0.42600
O 	O 	0.90126 0.00540 0.49310 -0.47800
O 	O 	0.88071 0.05510 0.33870 -0.50100
N 	N 	0.75778 0.17230 0.46770 -0.18700
C 	C 	0.76572 0.24240 0.42720 -0.10200
C 	C 	0.75785 0.32070 0.45800 0.05500
H 	H 	0.76360 0.36830 0.42630 0.00100
C 	C 	0.78463 0.23230 0.34740 0.38300
O 	O 	0.78919 0.15760 0.32240 -0.49300
O 	O 	0.79459 0.29630 0.31470 -0.51200
N 	N 	0.83320 0.47270 0.08130 -0.19600
C 	C 	0.81098 0.49930 0.03370 -0.12900
C 	C 	0.80884 0.53990 0.93340 0.07100
H 	H 	0.79340 0.55660 0.90170 -0.00600
N 	N 	0.82841 0.55540 0.88120 -0.19900
C 	C 	0.85011 0.52940 0.93030 -0.11100
C 	C 	0.85265 0.48880 0.03040 0.06100
H 	H 	0.86820 0.47260 0.06200 -0.00200
C 	C 	0.78924 0.47810 0.09170 0.39600
O 	O 	0.76914 0.51040 0.05620 -0.51400
O 	O 	0.79322 0.42990 0.17220 -0.53700
C 	C 	0.87141 0.54270 0.86580 0.44000
O 	O 	0.86732 0.58570 0.78030 -0.49400
O 	O 	0.89127 0.50690 0.89920 -0.58300
N 	N 	0.90854 0.17490 0.02650 -0.19600
C 	C 	0.89392 0.23990 0.03320 -0.11600
C 	C 	0.89730 0.31480 0.97820 0.08900
H 	H 	0.88610 0.35800 0.98130 -0.02200
N 	N 	0.91634 0.32490 0.92160 -0.20000
C 	C 	0.93052 0.25830 0.91520 -0.08600
C 	C 	0.92663 0.18320 0.96290 0.08800
H 	H 	0.93660 0.13800 0.95110 0.00900
C 	C 	0.87355 0.23110 0.10550 0.40600
O 	O 	0.87101 0.15930 0.14570 -0.52000
O 	O 	0.86119 0.29420 0.11950 -0.54100
C 	C 	0.95266 0.27140 0.85200 0.47900
O 	O 	0.95576 0.34440 0.81840 -0.52000
O 	O 	0.96608 0.20960 0.84220 -0.52600
N 	N 	0.99945 0.93640 0.07520 -0.20700
C 	C 	0.98330 0.99900 0.06970 -0.11400
C 	C 	0.98430 0.06290 0.99520 0.09800
H 	H 	0.97310 0.10650 0.99480 -0.01000
C 	C 	0.96397 0.99590 0.14700 0.45300
O 	O 	0.96806 0.94590 0.22520 -0.52100
O 	O 	0.94543 0.04120 0.12550 -0.52700
O 	O 	0.90770 0.90700 0.22690 -0.39600
O 	O 	0.96380 0.81450 0.09800 -0.17600
Nd	Nd	0.93094 0.47201 0.84031 3.15300
N 	N 	0.97701 0.49060 0.94050 -0.23900
C 	C 	0.97961 0.49450 0.04850 -0.13000
C 	C 	0.99730 0.49550 0.89350 0.12900
H 	H 	0.99610 0.49210 0.81780 -0.00700
C 	C 	0.95650 0.48820 0.10140 0.50200
O 	O 	0.93724 0.46820 0.04080 -0.62000
O 	O 	0.95796 0.50310 0.20120 -0.59800
O 	O 	0.94320 0.62040 0.88490 -0.21300
O 	O 	0.90370 0.40270 0.70130 -5.40200
O 	O 	0.91190 0.89100 0.16900 -0.07300
N 	N 	0.90010 0.86600 0.22200 0.25400
O 	O 	0.88820 0.91100 0.27100 -0.19000
O 	O 	0.89870 0.78100 0.23000 -0.21200
O 	O 	0.88930 0.59500 0.23700 1.06200
N 	N 	0.89800 0.61500 0.16800 3.68600
O 	O 	0.91820 0.60950 0.15500 0.78400
O 	O 	0.88160 0.65100 0.07500 -0.74800
O 	O 	0.93590 0.38720 0.42630 -0.26300
O 	O 	0.97690 0.76200 0.10780 -0.26900
O 	O 	0.00550 0.68310 0.30390 -0.19300
Nd	Nd	0.27168 0.52422 0.38384 1.78100
Nd	Nd	0.40423 0.55331 0.18013 2.08900
Nd	Nd	0.32821 0.83880 0.21386 1.84400
N 	N 	0.31638 0.55450 0.48810 -0.19700
C 	C 	0.31914 0.53340 0.59450 -0.11900
C 	C 	0.34230 0.51820 0.65120 0.08000
H 	H 	0.34370 0.50790 0.72590 0.00200
N 	N 	0.36231 0.51820 0.60040 -0.19200
C 	C 	0.35945 0.53980 0.49510 -0.09600
C 	C 	0.33672 0.56220 0.44110 0.07200
H 	H 	0.33580 0.58300 0.37040 -0.00800
C 	C 	0.29610 0.51680 0.64660 0.40000
O 	O 	0.27610 0.51460 0.58350 -0.52200
O 	O 	0.29870 0.50200 0.74600 -0.52300
C 	C 	0.38239 0.53440 0.43690 0.42600
O 	O 	0.40126 0.50540 0.49310 -0.47900
O 	O 	0.38071 0.55510 0.33870 -0.50100
N 	N 	0.25778 0.67230 0.46770 -0.18700
C 	C 	0.26572 0.74240 0.42720 -0.10100
C 	C 	0.25785 0.82070 0.45800 0.05500
H 	H 	0.26360 0.86830 0.42630 0.00200
C 	C 	0.28463 0.73230 0.34740 0.38300
O 	O 	0.28919 0.65760 0.32240 -0.49200
O 	O 	0.29459 0.79630 0.31470 -0.51100
N 	N 	0.33320 0.97270 0.08130 -0.19600
C 	C 	0.31098 0.99930 0.03370 -0.12900
C 	C 	0.30884 0.03990 0.93340 0.07200
H 	H 	0.29340 0.05660 0.90170 -0.00600
N 	N 	0.32841 0.05540 0.88120 -0.19900
C 	C 	0.35011 0.02940 0.93030 -0.11000
C 	C 	0.35265 0.98880 0.03040 0.06300
H 	H 	0.36820 0.97260 0.06200 -0.00100
C 	C 	0.28924 0.97810 0.09170 0.40400
O 	O 	0.26914 0.01040 0.05620 -0.52100
O 	O 	0.29322 0.92990 0.17220 -0.53800
C 	C 	0.37141 0.04270 0.86580 0.44000
O 	O 	0.36732 0.08570 0.78030 -0.49300
O 	O 	0.39127 0.00690 0.89920 -0.57800
N 	N 	0.40854 0.67490 0.02650 -0.19400
C 	C 	0.39392 0.73990 0.03320 -0.10700
C 	C 	0.39730 0.81480 0.97820 0.07900
H 	H 	0.38610 0.85800 0.98130 -0.02200
N 	N 	0.41634 0.82490 0.92160 -0.19900
C 	C 	0.43052 0.75830 0.91520 -0.08500
C 	C 	0.42663 0.68320 0.96290 0.08100
H 	H 	0.43660 0.63800 0.95110 0.01000
C 	C 	0.37355 0.73110 0.10550 0.40400
O 	O 	0.37101 0.65930 0.14570 -0.51900
O 	O 	0.36119 0.79420 0.11950 -0.53900
C 	C 	0.45266 0.77140 0.85200 0.47800
O 	O 	0.45576 0.84440 0.81840 -0.51900
O 	O 	0.46608 0.70960 0.84220 -0.52600
N 	N 	0.49945 0.43640 0.07520 -0.20800
C 	C 	0.48330 0.49900 0.06970 -0.11300
C 	C 	0.48430 0.56290 0.99520 0.09400
H 	H 	0.47310 0.60650 0.99480 -0.01000
C 	C 	0.46397 0.49590 0.14700 0.44600
O 	O 	0.46806 0.44590 0.22520 -0.52100
O 	O 	0.44543 0.54120 0.12550 -0.52200
O 	O 	0.40770 0.40700 0.22690 -0.39700
O 	O 	0.46380 0.31450 0.09800 -0.17800
Nd	Nd	0.43094 0.97201 0.84031 3.13700
N 	N 	0.47701 0.99060 0.94050 -0.24100
C 	C 	0.47961 0.99450 0.04850 -0.11900
C 	C 	0.49730 0.99550 0.89350 0.11600
H 	H 	0.49610 0.99210 0.81780 -0.00300
C 	C 	0.45650 0.98820 0.10140 0.50400
O 	O 	0.43724 0.96820 0.04080 -0.61500
O 	O 	0.45796 0.00310 0.20120 -0.60100
O 	O 	0.44320 0.12040 0.88490 -0.21100
O 	O 	0.40370 0.90270 0.70130 -5.37900
O 	O 	0.41190 0.39100 0.16900 -0.07500
N 	N 	0.40010 0.36600 0.22200 0.25500
O 	O 	0.38820 0.41100 0.27100 -0.19200
O 	O 	0.39870 0.28100 0.23000 -0.21300
O 	O 	0.38930 0.09500 0.23700 1.05800
N 	N 	0.39800 0.11500 0.16800 3.67900
O 	O 	0.41820 0.10950 0.15500 0.78000
O 	O 	0.38160 0.15100 0.07500 -0.75000
O 	O 	0.43590 0.88720 0.42630 -0.26400
O 	O 	0.47690 0.26200 0.10780 -0.27100
O 	O 	0.50550 0.18310 0.30390 -0.19200
Nd	Nd	0.22832 0.02422 0.11616 1.77100
Nd	Nd	0.09577 0.05331 0.31987 2.08500
Nd	Nd	0.17179 0.33880 0.28614 1.84200
N 	N 	0.18362 0.05450 0.01190 -0.20200
C 	C 	0.18086 0.03340 0.90550 -0.11200
C 	C 	0.15770 0.01820 0.84880 0.07800
H 	H 	0.15630 0.00790 0.77410 0.00400
N 	N 	0.13769 0.01820 0.89960 -0.18600
C 	C 	0.14055 0.03980 0.00490 -0.10400
C 	C 	0.16328 0.06220 0.05890 0.07400
H 	H 	0.16420 0.08300 0.12960 -0.01000
C 	C 	0.20390 0.01680 0.85340 0.39800
O 	O 	0.22390 0.01460 0.91650 -0.51700
O 	O 	0.20130 0.00200 0.75400 -0.52100
C 	C 	0.11761 0.03440 0.06310 0.42700
O 	O 	0.09874 0.00540 0.00690 -0.48200
O 	O 	0.11929 0.05510 0.16130 -0.50200
N 	N 	0.24222 0.17230 0.03230 -0.19000
C 	C 	0.23428 0.24240 0.07280 -0.10100
C 	C 	0.24215 0.32070 0.04200 0.05200
H 	H 	0.23640 0.36830 0.07370 0.00200
C 	C 	0.21537 0.23230 0.15260 0.38200
O 	O 	0.21081 0.15760 0.17760 -0.49200
O 	O 	0.20541 0.29630 0.18530 -0.51200
N 	N 	0.16680 0.47270 0.41870 -0.19600
C 	C 	0.18902 0.49930 0.46630 -0.12900
C 	C 	0.19116 0.53990 0.56660 0.07100
H 	H 	0.20660 0.55660 0.59830 -0.00600
N 	N 	0.17159 0.55540 0.61880 -0.19900
C 	C 	0.14989 0.52940 0.56970 -0.11100
C 	C 	0.14735 0.48880 0.46960 0.06100
H 	H 	0.13180 0.47260 0.43800 -0.00200
C 	C 	0.21076 0.47810 0.40830 0.39600
O 	O 	0.23086 0.51040 0.44380 -0.51400
O 	O 	0.20678 0.42990 0.32780 -0.53700
C 	C 	0.12859 0.54270 0.63420 0.44000
O 	O 	0.13268 0.58570 0.71970 -0.49400
O 	O 	0.10873 0.50690 0.60080 -0.58300
N 	N 	0.09146 0.17490 0.47350 -0.19400
C 	C 	0.10608 0.23990 0.46680 -0.11200
C 	C 	0.10270 0.31480 0.52180 0.08500
H 	H 	0.11390 0.35800 0.51870 -0.02100
N 	N 	0.08366 0.32490 0.57840 -0.19900
C 	C 	0.06948 0.25830 0.58480 -0.08500
C 	C 	0.07337 0.18320 0.53710 0.08400
H 	H 	0.06340 0.13800 0.54890 0.00900
C 	C 	0.12645 0.23110 0.39450 0.40600
O 	O 	0.12899 0.15930 0.35430 -0.51900
O 	O 	0.13881 0.29420 0.38050 -0.54000
C 	C 	0.04734 0.27140 0.64800 0.47900
O 	O 	0.04424 0.34440 0.68160 -0.52000
O 	O 	0.03392 0.20960 0.65780 -0.52600
N 	N 	0.00055 0.93640 0.42480 -0.20900
C 	C 	0.01670 0.99900 0.43030 -0.11300
C 	C 	0.01570 0.06290 0.50480 0.09300
H 	H 	0.02690 0.10650 0.50520 -0.00900
C 	C 	0.03603 0.99590 0.35300 0.44900
O 	O 	0.03194 0.94590 0.27480 -0.52100
O 	O 	0.05457 0.04120 0.37450 -0.52300
O 	O 	0.09230 0.90700 0.27310 -0.39500
O 	O 	0.03620 0.81450 0.40200 -0.17700
Nd	Nd	0.06906 0.47201 0.65969 3.15300
N 	N 	0.02299 0.49060 0.55950 -0.23800
C 	C 	0.02039 0.49450 0.45150 -0.13400
C 	C 	0.00270 0.49550 0.60650 0.12500
H 	H 	0.00390 0.49210 0.68220 -0.00600
C 	C 	0.04350 0.48820 0.39860 0.50300
O 	O 	0.06276 0.46820 0.45920 -0.61900
O 	O 	0.04204 0.50310 0.29880 -0.59800
O 	O 	0.05680 0.62040 0.61510 -0.21400
O 	O 	0.09630 0.40270 0.79870 -5.40200
O 	O 	0.08810 0.89100 0.33100 -0.07500
N 	N 	0.09990 0.86600 0.27800 0.25400
O 	O 	0.11180 0.91100 0.22900 -0.18900
O 	O 	0.10130 0.78100 0.27000 -0.21200
O 	O 	0.11070 0.59500 0.26300 1.06200
N 	N 	0.10200 0.61500 0.33200 3.68600
O 	O 	0.08180 0.60950 0.34500 0.78400
O 	O 	0.11840 0.65100 0.42500 -0.74800
O 	O 	0.06410 0.38720 0.07370 -0.26400
O 	O 	0.02310 0.76200 0.39220 -0.27000
O 	O 	0.99450 0.68310 0.19610 -0.19100
Nd	Nd	0.72832 0.52422 0.11616 1.78000
Nd	Nd	0.59577 0.55331 0.31987 2.08900
Nd	Nd	0.67179 0.83880 0.28614 1.84300
N 	N 	0.68362 0.55450 0.01190 -0.19800
C 	C 	0.68086 0.53340 0.90550 -0.12000
C 	C 	0.65770 0.51820 0.84880 0.08000
H 	H 	0.65630 0.50790 0.77410 0.00300
N 	N 	0.63769 0.51820 0.89960 -0.19200
C 	C 	0.64055 0.53980 0.00490 -0.09700
C 	C 	0.66328 0.56220 0.05890 0.07200
H 	H 	0.66420 0.58300 0.12960 -0.00800
C 	C 	0.70390 0.51680 0.85340 0.40000
O 	O 	0.72390 0.51460 0.91650 -0.52300
O 	O 	0.70130 0.50200 0.75400 -0.52300
C 	C 	0.61761 0.53440 0.06310 0.42600
O 	O 	0.59874 0.50540 0.00690 -0.48000
O 	O 	0.61929 0.55510 0.16130 -0.50100
N 	N 	0.74222 0.67230 0.03230 -0.18600
C 	C 	0.73428 0.74240 0.07280 -0.10300
C 	C 	0.74215 0.82070 0.04200 0.06000
H 	H 	0.73640 0.86830 0.07370 0.00100
C 	C 	0.71537 0.73230 0.15260 0.38300
O 	O 	0.71081 0.65760 0.17760 -0.49200
O 	O 	0.70541 0.79630 0.18530 -0.51200
N 	N 	0.66680 0.97270 0.41870 -0.19600
C 	C 	0.68902 0.99930 0.46630 -0.13000
C 	C 	0.69116 0.03990 0.56660 0.07100
H 	H 	0.70660 0.05660 0.59830 -0.00600
N 	N 	0.67159 0.05540 0.61880 -0.19900
C 	C 	0.64989 0.02940 0.56970 -0.11000
C 	C 	0.64735 0.98880 0.46960 0.06000
H 	H 	0.63180 0.97260 0.43800 -0.00100
C 	C 	0.71076 0.97810 0.40830 0.39800
O 	O 	0.73086 0.01040 0.44380 -0.51500
O 	O 	0.70678 0.92990 0.32780 -0.53700
C 	C 	0.62859 0.04270 0.63420 0.44000
O 	O 	0.63268 0.08570 0.71970 -0.49300
O 	O 	0.60873 0.00690 0.60080 -0.58100
N 	N 	0.59146 0.67490 0.47350 -0.19400
C 	C 	0.60608 0.73990 0.46680 -0.11200
C 	C 	0.60270 0.81480 0.52180 0.08600
H 	H 	0.61390 0.85800 0.51870 -0.02100
N 	N 	0.58366 0.82490 0.57840 -0.19900
C 	C 	0.56948 0.75830 0.58480 -0.08500
C 	C 	0.57337 0.68320 0.53710 0.08400
H 	H 	0.56340 0.63800 0.54890 0.00900
C 	C 	0.62645 0.73110 0.39450 0.40600
O 	O 	0.62899 0.65930 0.35430 -0.52000
O 	O 	0.63881 0.79420 0.38050 -0.54000
C 	C 	0.54734 0.77140 0.64800 0.47900
O 	O 	0.54424 0.84440 0.68160 -0.52000
O 	O 	0.53392 0.70960 0.65780 -0.52600
N 	N 	0.50055 0.43640 0.42480 -0.20800
C 	C 	0.51670 0.49900 0.43030 -0.11300
C 	C 	0.51570 0.56290 0.50480 0.09500
H 	H 	0.52690 0.60650 0.50520 -0.00900
C 	C 	0.53603 0.49590 0.35300 0.44700
O 	O 	0.53194 0.44590 0.27480 -0.52100
O 	O 	0.55457 0.54120 0.37450 -0.52200
O 	O 	0.59230 0.40700 0.27310 -0.39700
O 	O 	0.53620 0.31450 0.40200 -0.17700
Nd	Nd	0.56906 0.97201 0.65969 3.14900
N 	N 	0.52299 0.99060 0.55950 -0.23800
C 	C 	0.52039 0.99450 0.45150 -0.13000
C 	C 	0.50270 0.99550 0.60650 0.12600
H 	H 	0.50390 0.99210 0.68220 -0.00700
C 	C 	0.54350 0.98820 0.39860 0.50500
O 	O 	0.56276 0.96820 0.45920 -0.61900
O 	O 	0.54204 0.00310 0.29880 -0.59800
O 	O 	0.55680 0.12040 0.61510 -0.21200
O 	O 	0.59630 0.90270 0.79870 -5.39000
O 	O 	0.58810 0.39100 0.33100 -0.07500
N 	N 	0.59990 0.36600 0.27800 0.25500
O 	O 	0.61180 0.41100 0.22900 -0.19200
O 	O 	0.60130 0.28100 0.27000 -0.21200
O 	O 	0.61070 0.09500 0.26300 1.05500
N 	N 	0.60200 0.11500 0.33200 3.67100
O 	O 	0.58180 0.10950 0.34500 0.78000
O 	O 	0.61840 0.15100 0.42500 -0.74600
O 	O 	0.56410 0.88720 0.07370 -0.26100
O 	O 	0.52310 0.26200 0.39220 -0.27000
O 	O 	0.49450 0.18310 0.19610 -0.19300
Nd	Nd	0.22832 0.97578 0.61616 1.77700
Nd	Nd	0.09577 0.94669 0.81987 2.08300
Nd	Nd	0.17179 0.66120 0.78614 1.84100
N 	N 	0.18362 0.94550 0.51190 -0.19700
C 	C 	0.18086 0.96660 0.40550 -0.11800
C 	C 	0.15770 0.98180 0.34880 0.07900
H 	H 	0.15630 0.99210 0.27410 0.00400
N 	N 	0.13769 0.98180 0.39960 -0.19100
C 	C 	0.14055 0.96020 0.50490 -0.09600
C 	C 	0.16328 0.93780 0.55890 0.07200
H 	H 	0.16420 0.91700 0.62960 -0.00900
C 	C 	0.20390 0.98320 0.35340 0.39900
O 	O 	0.22390 0.98540 0.41650 -0.52100
O 	O 	0.20130 0.99800 0.25400 -0.51900
C 	C 	0.11761 0.96560 0.56310 0.42600
O 	O 	0.09874 0.99460 0.50690 -0.47800
O 	O 	0.11929 0.94490 0.66130 -0.50100
N 	N 	0.24222 0.82770 0.53230 -0.18700
C 	C 	0.23428 0.75760 0.57280 -0.10200
C 	C 	0.24215 0.67930 0.54200 0.05500
H 	H 	0.23640 0.63170 0.57370 0.00100
C 	C 	0.21537 0.76770 0.65260 0.38300
O 	O 	0.21081 0.84240 0.67760 -0.49300
O 	O 	0.20541 0.70370 0.68530 -0.51200
N 	N 	0.16680 0.52730 0.91870 -0.19600
C 	C 	0.18902 0.50070 0.96630 -0.12900
C 	C 	0.19116 0.46010 0.06660 0.07100
H 	H 	0.20660 0.44340 0.09830 -0.00600
N 	N 	0.17159 0.44460 0.11880 -0.19900
C 	C 	0.14989 0.47060 0.06970 -0.11100
C 	C 	0.14735 0.51120 0.96960 0.06100
H 	H 	0.13180 0.52740 0.93800 -0.00200
C 	C 	0.21076 0.52190 0.90830 0.39600
O 	O 	0.23086 0.48960 0.94380 -0.51400
O 	O 	0.20678 0.57010 0.82780 -0.53700
C 	C 	0.12859 0.45730 0.13420 0.44000
O 	O 	0.13268 0.41430 0.21970 -0.49400
O 	O 	0.10873 0.49310 0.10080 -0.58300
N 	N 	0.09146 0.82510 0.97350 -0.19600
C 	C 	0.10608 0.76010 0.96680 -0.11600
C 	C 	0.10270 0.68520 0.02180 0.08900
H 	H 	0.11390 0.64200 0.01870 -0.02200
N 	N 	0.08366 0.67510 0.07840 -0.20000
C 	C 	0.06948 0.74170 0.08480 -0.08600
C 	C 	0.07337 0.81680 0.03710 0.08800
H 	H 	0.06340 0.86200 0.04890 0.00900
C 	C 	0.12645 0.76890 0.89450 0.40600
O 	O 	0.12899 0.84070 0.85430 -0.52000
O 	O 	0.13881 0.70580 0.88050 -0.54100
C 	C 	0.04734 0.72860 0.14800 0.47900
O 	O 	0.04424 0.65560 0.18160 -0.52000
O 	O 	0.03392 0.79040 0.15780 -0.52600
N 	N 	0.00055 0.06360 0.92480 -0.20900
C 	C 	0.01670 0.00100 0.93030 -0.11300
C 	C 	0.01570 0.93710 0.00480 0.09500
H 	H 	0.02690 0.89350 0.00520 -0.00900
C 	C 	0.03603 0.00410 0.85300 0.45300
O 	O 	0.03194 0.05410 0.77480 -0.52200
O 	O 	0.05457 0.95880 0.87450 -0.52700
O 	O 	0.09230 0.09300 0.77310 -0.39600
O 	O 	0.03620 0.18550 0.90200 -0.17600
Nd	Nd	0.06906 0.52799 0.15969 3.15300
N 	N 	0.02299 0.50940 0.05950 -0.23800
C 	C 	0.02039 0.50550 0.95150 -0.13400
C 	C 	0.00270 0.50450 0.10650 0.12500
H 	H 	0.00390 0.50790 0.18220 -0.00600
C 	C 	0.04350 0.51180 0.89860 0.50300
O 	O 	0.06276 0.53180 0.95920 -0.62000
O 	O 	0.04204 0.49690 0.79880 -0.59900
O 	O 	0.05680 0.37960 0.11510 -0.21400
O 	O 	0.09630 0.59730 0.29870 -5.40200
O 	O 	0.08810 0.10900 0.83100 -0.07300
N 	N 	0.09990 0.13400 0.77800 0.25400
O 	O 	0.11180 0.08900 0.72900 -0.19000
O 	O 	0.10130 0.21900 0.77000 -0.21200
O 	O 	0.11070 0.40500 0.76300 1.06200
N 	N 	0.10200 0.38500 0.83200 3.68600
O 	O 	0.08180 0.39050 0.84500 0.78400
O 	O 	0.11840 0.34900 0.92500 -0.74800
O 	O 	0.06410 0.61280 0.57370 -0.26300
O 	O 	0.02310 0.23800 0.89220 -0.27000
O 	O 	0.99450 0.31690 0.69610 -0.19100
Nd	Nd	0.72832 0.47578 0.61616 1.78100
Nd	Nd	0.59577 0.44669 0.81987 2.08900
Nd	Nd	0.67179 0.16120 0.78614 1.84400
N 	N 	0.68362 0.44550 0.51190 -0.19700
C 	C 	0.68086 0.46660 0.40550 -0.11900
C 	C 	0.65770 0.48180 0.34880 0.08000
H 	H 	0.65630 0.49210 0.27410 0.00200
N 	N 	0.63769 0.48180 0.39960 -0.19200
C 	C 	0.64055 0.46020 0.50490 -0.09600
C 	C 	0.66328 0.43780 0.55890 0.07200
H 	H 	0.66420 0.41700 0.62960 -0.00800
C 	C 	0.70390 0.48320 0.35340 0.40000
O 	O 	0.72390 0.48540 0.41650 -0.52200
O 	O 	0.70130 0.49800 0.25400 -0.52300
C 	C 	0.61761 0.46560 0.56310 0.42600
O 	O 	0.59874 0.49460 0.50690 -0.47900
O 	O 	0.61929 0.44490 0.66130 -0.50100
N 	N 	0.74222 0.32770 0.53230 -0.18700
C 	C 	0.73428 0.25760 0.57280 -0.10100
C 	C 	0.74215 0.17930 0.54200 0.05500
H 	H 	0.73640 0.13170 0.57370 0.00200
C 	C 	0.71537 0.26770 0.65260 0.38300
O 	O 	0.71081 0.34240 0.67760 -0.49200
O 	O 	0.70541 0.20370 0.68530 -0.51100
N 	N 	0.66680 0.02730 0.91870 -0.19600
C 	C 	0.68902 0.00070 0.96630 -0.12900
C 	C 	0.69116 0.96010 0.06660 0.07200
H 	H 	0.70660 0.94340 0.09830 -0.00600
N 	N 	0.67159 0.94460 0.11880 -0.19900
C 	C 	0.64989 0.97060 0.06970 -0.11000
C 	C 	0.64735 0.01120 0.96960 0.06300
H 	H 	0.63180 0.02740 0.93800 -0.00100
C 	C 	0.71076 0.02190 0.90830 0.40400
O 	O 	0.73086 0.98960 0.94380 -0.52100
O 	O 	0.70678 0.07010 0.82780 -0.53800
C 	C 	0.62859 0.95730 0.13420 0.44000
O 	O 	0.63268 0.91430 0.21970 -0.49300
O 	O 	0.60873 0.99310 0.10080 -0.57800
N 	N 	0.59146 0.32510 0.97350 -0.19400
C 	C 	0.60608 0.26010 0.96680 -0.10700
C 	C 	0.60270 0.18520 0.02180 0.07900
H 	H 	0.61390 0.14200 0.01870 -0.02200
N 	N 	0.58366 0.17510 0.07840 -0.19900
C 	C 	0.56948 0.24170 0.08480 -0.08500
C 	C 	0.57337 0.31680 0.03710 0.08100
H 	H 	0.56340 0.36200 0.04890 0.01000
C 	C 	0.62645 0.26890 0.89450 0.40400
O 	O 	0.62899 0.34070 0.85430 -0.51900
O 	O 	0.63881 0.20580 0.88050 -0.53900
C 	C 	0.54734 0.22860 0.14800 0.47800
O 	O 	0.54424 0.15560 0.18160 -0.51900
O 	O 	0.53392 0.29040 0.15780 -0.52600
N 	N 	0.50055 0.56360 0.92480 -0.20800
C 	C 	0.51670 0.50100 0.93030 -0.11300
C 	C 	0.51570 0.43710 0.00480 0.09400
H 	H 	0.52690 0.39350 0.00520 -0.01000
C 	C 	0.53603 0.50410 0.85300 0.44600
O 	O 	0.53194 0.55410 0.77480 -0.52100
O 	O 	0.55457 0.45880 0.87450 -0.52200
O 	O 	0.59230 0.59300 0.77310 -0.39700
O 	O 	0.53620 0.68550 0.90200 -0.17800
Nd	Nd	0.56906 0.02799 0.15969 3.13700
N 	N 	0.52299 0.00940 0.05950 -0.24100
C 	C 	0.52039 0.00550 0.95150 -0.11900
C 	C 	0.50270 0.00450 0.10650 0.11600
H 	H 	0.50390 0.00790 0.18220 -0.00300
C 	C 	0.54350 0.01180 0.89860 0.50400
O 	O 	0.56276 0.03180 0.95920 -0.61500
O 	O 	0.54204 0.99690 0.79880 -0.60100
O 	O 	0.55680 0.87960 0.11510 -0.21100
O 	O 	0.59630 0.09730 0.29870 -5.37900
O 	O 	0.58810 0.60900 0.83100 -0.07500
N 	N 	0.59990 0.63400 0.77800 0.25500
O 	O 	0.61180 0.58900 0.72900 -0.19200
O 	O 	0.60130 0.71900 0.77000 -0.21300
O 	O 	0.61070 0.90500 0.76300 1.05800
N 	N 	0.60200 0.88500 0.83200 3.67900
O 	O 	0.58180 0.89050 0.84500 0.78000
O 	O 	0.61840 0.84900 0.92500 -0.75000
O 	O 	0.56410 0.11280 0.57370 -0.26400
O 	O 	0.52310 0.73800 0.89220 -0.27100
O 	O 	0.49450 0.81690 0.69610 -0.19200
Nd	Nd	0.77168 0.97578 0.88384 1.77100
Nd	Nd	0.90423 0.94669 0.68013 2.08500
Nd	Nd	0.82821 0.66120 0.71386 1.84200
N 	N 	0.81638 0.94550 0.98810 -0.20200
C 	C 	0.81914 0.96660 0.09450 -0.11200
C 	C 	0.84230 0.98180 0.15120 0.07800
H 	H 	0.84370 0.99210 0.22590 0.00400
N 	N 	0.86231 0.98180 0.10040 -0.18600
C 	C 	0.85945 0.96020 0.99510 -0.10400
C 	C 	0.83672 0.93780 0.94110 0.07400
H 	H 	0.83580 0.91700 0.87040 -0.01000
C 	C 	0.79610 0.98320 0.14660 0.39800
O 	O 	0.77610 0.98540 0.08350 -0.51700
O 	O 	0.79870 0.99800 0.24600 -0.52100
C 	C 	0.88239 0.96560 0.93690 0.42700
O 	O 	0.90126 0.99460 0.99310 -0.48200
O 	O 	0.88071 0.94490 0.83870 -0.50200
N 	N 	0.75778 0.82770 0.96770 -0.19000
C 	C 	0.76572 0.75760 0.92720 -0.10100
C 	C 	0.75785 0.67930 0.95800 0.05200
H 	H 	0.76360 0.63170 0.92630 0.00200
C 	C 	0.78463 0.76770 0.84740 0.38200
O 	O 	0.78919 0.84240 0.82240 -0.49200
O 	O 	0.79459 0.70370 0.81470 -0.51200
N 	N 	0.83320 0.52730 0.58130 -0.19600
C 	C 	0.81098 0.50070 0.53370 -0.12900
C 	C 	0.80884 0.46010 0.43340 0.07100
H 	H 	0.79340 0.44340 0.40170 -0.00600
N 	N 	0.82841 0.44460 0.38120 -0.19900
C 	C 	0.85011 0.47060 0.43030 -0.11100
C 	C 	0.85265 0.51120 0.53040 0.06100
H 	H 	0.86820 0.52740 0.56200 -0.00200
C 	C 	0.78924 0.52190 0.59170 0.39600
O 	O 	0.76914 0.48960 0.55620 -0.51400
O 	O 	0.79322 0.57010 0.67220 -0.53700
C 	C 	0.87141 0.45730 0.36580 0.44000
O 	O 	0.86732 0.41430 0.28030 -0.49400
O 	O 	0.89127 0.49310 0.39920 -0.58300
N 	N 	0.90854 0.82510 0.52650 -0.19400
C 	C 	0.89392 0.76010 0.53320 -0.11200
C 	C 	0.89730 0.68520 0.47820 0.08500
H 	H 	0.88610 0.64200 0.48130 -0.02100
N 	N 	0.91634 0.67510 0.42160 -0.20000
C 	C 	0.93052 0.74170 0.41520 -0.08500
C 	C 	0.92663 0.81680 0.46290 0.08400
H 	H 	0.93660 0.86200 0.45110 0.01000
C 	C 	0.87355 0.76890 0.60550 0.40600
O 	O 	0.87101 0.84070 0.64570 -0.51900
O 	O 	0.86119 0.70580 0.61950 -0.54000
C 	C 	0.95266 0.72860 0.35200 0.47900
O 	O 	0.95576 0.65560 0.31840 -0.52000
O 	O 	0.96608 0.79040 0.34220 -0.52600
N 	N 	0.99945 0.06360 0.57520 -0.20700
C 	C 	0.98330 0.00100 0.56970 -0.11400
C 	C 	0.98430 0.93710 0.49520 0.09600
H 	H 	0.97310 0.89350 0.49480 -0.01000
C 	C 	0.96397 0.00410 0.64700 0.44900
O 	O 	0.96806 0.05410 0.72520 -0.52100
O 	O 	0.94543 0.95880 0.62550 -0.52400
O 	O 	0.90770 0.09300 0.72690 -0.39500
O 	O 	0.96380 0.18550 0.59800 -0.17700
Nd	Nd	0.93094 0.52799 0.34031 3.15300
N 	N 	0.97701 0.50940 0.44050 -0.23900
C 	C 	0.97961 0.50550 0.54850 -0.13000
C 	C 	0.99730 0.50450 0.39350 0.12900
H 	H 	0.99610 0.50790 0.31780 -0.00700
C 	C 	0.95650 0.51180 0.60140 0.50200
O 	O 	0.93724 0.53180 0.54080 -0.61900
O 	O 	0.95796 0.49690 0.70120 -0.59800
O 	O 	0.94320 0.37960 0.38490 -0.21400
O 	O 	0.90370 0.59730 0.20130 -5.40300
O 	O 	0.91190 0.10900 0.66900 -0.07500
N 	N 	0.90010 0.13400 0.72200 0.25400
O 	O 	0.88820 0.08900 0.77100 -0.18900
O 	O 	0.89870 0.21900 0.73000 -0.21200
O 	O 	0.88930 0.40500 0.73700 1.06200
N 	N 	0.89800 0.38500 0.66800 3.68600
O 	O 	0.91820 0.39050 0.65500 0.78400
O 	O 	0.88160 0.34900 0.57500 -0.74800
O 	O 	0.93590 0.61280 0.92630 -0.26500
O 	O 	0.97690 0.23800 0.60780 -0.26900
O 	O 	0.00550 0.31690 0.80390 -0.19300
Nd	Nd	0.27168 0.47578 0.88384 1.78000
Nd	Nd	0.40423 0.44669 0.68013 2.08900
Nd	Nd	0.32821 0.16120 0.71386 1.84300
N 	N 	0.31638 0.44550 0.98810 -0.19800
C 	C 	0.31914 0.46660 0.09450 -0.12000
C 	C 	0.34230 0.48180 0.15120 0.08000
H 	H 	0.34370 0.49210 0.22590 0.00300
N 	N 	0.36231 0.48180 0.10040 -0.19200
C 	C 	0.35945 0.46020 0.99510 -0.09700
C 	C 	0.33672 0.43780 0.94110 0.07200
H 	H 	0.33580 0.41700 0.87040 -0.00800
C 	C 	0.29610 0.48320 0.14660 0.40000
O 	O 	0.27610 0.48540 0.08350 -0.52300
O 	O 	0.29870 0.49800 0.24600 -0.52300
C 	C 	0.38239 0.46560 0.93690 0.42600
O 	O 	0.40126 0.49460 0.99310 -0.48000
O 	O 	0.38071 0.44490 0.83870 -0.50100
N 	N 	0.25778 0.32770 0.96770 -0.18600
C 	C 	0.26572 0.25760 0.92720 -0.10300
C 	C 	0.25785 0.17930 0.95800 0.06000
H 	H 	0.26360 0.13170 0.92630 0.00100
C 	C 	0.28463 0.26770 0.84740 0.38300
O 	O 	0.28919 0.34240 0.82240 -0.49200
O 	O 	0.29459 0.20370 0.81470 -0.51200
N 	N 	0.33320 0.02730 0.58130 -0.19600
C 	C 	0.31098 0.00070 0.53370 -0.13000
C 	C 	0.30884 0.96010 0.43340 0.07100
H 	H 	0.29340 0.94340 0.40170 -0.00600
N 	N 	0.32841 0.94460 0.38120 -0.19900
C 	C 	0.35011 0.97060 0.43030 -0.11000
C 	C 	0.35265 0.01120 0.53040 0.06000
H 	H 	0.36820 0.02740 0.56200 -0.00100
C 	C 	0.28924 0.02190 0.59170 0.39800
O 	O 	0.26914 0.98960 0.55620 -0.51500
O 	O 	0.29322 0.07010 0.67220 -0.53700
C 	C 	0.37141 0.95730 0.36580 0.44000
O 	O 	0.36732 0.91430 0.28030 -0.49300
O 	O 	0.39127 0.99310 0.39920 -0.58100
N 	N 	0.40854 0.32510 0.52650 -0.19400
C 	C 	0.39392 0.26010 0.53320 -0.11200
C 	C 	0.39730 0.18520 0.47820 0.08600
H 	H 	0.38610 0.14200 0.48130 -0.02100
N 	N 	0.41634 0.17510 0.42160 -0.19900
C 	C 	0.43052 0.24170 0.41520 -0.08500
C 	C 	0.42663 0.31680 0.46290 0.08400
H 	H 	0.43660 0.36200 0.45110 0.00900
C 	C 	0.37355 0.26890 0.60550 0.40600
O 	O 	0.37101 0.34070 0.64570 -0.52000
O 	O 	0.36119 0.20580 0.61950 -0.54000
C 	C 	0.45266 0.22860 0.35200 0.47900
O 	O 	0.45576 0.15560 0.31840 -0.52000
O 	O 	0.46608 0.29040 0.34220 -0.52600
N 	N 	0.49945 0.56360 0.57520 -0.20800
C 	C 	0.48330 0.50100 0.56970 -0.11300
C 	C 	0.48430 0.43710 0.49520 0.09500
H 	H 	0.47310 0.39350 0.49480 -0.00900
C 	C 	0.46397 0.50410 0.64700 0.44700
O 	O 	0.46806 0.55410 0.72520 -0.52100
O 	O 	0.44543 0.45880 0.62550 -0.52200
O 	O 	0.40770 0.59300 0.72690 -0.39700
O 	O 	0.46380 0.68550 0.59800 -0.17700
Nd	Nd	0.43094 0.02799 0.34031 3.14900
N 	N 	0.47701 0.00940 0.44050 -0.23800
C 	C 	0.47961 0.00550 0.54850 -0.13000
C 	C 	0.49730 0.00450 0.39350 0.12600
H 	H 	0.49610 0.00790 0.31780 -0.00700
C 	C 	0.45650 0.01180 0.60140 0.50500
O 	O 	0.43724 0.03180 0.54080 -0.61900
O 	O 	0.45796 0.99690 0.70120 -0.59800
O 	O 	0.44320 0.87960 0.38490 -0.21200
O 	O 	0.40370 0.09730 0.20130 -5.39000
O 	O 	0.41190 0.60900 0.66900 -0.07500
N 	N 	0.40010 0.63400 0.72200 0.25500
O 	O 	0.38820 0.58900 0.77100 -0.19200
O 	O 	0.39870 0.71900 0.73000 -0.21200
O 	O 	0.38930 0.90500 0.73700 1.05600
N 	N 	0.39800 0.88500 0.66800 3.67100
O 	O 	0.41820 0.89050 0.65500 0.78000
O 	O 	0.38160 0.84900 0.57500 -0.74600
O 	O 	0.43590 0.11280 0.92630 -0.26100
O 	O 	0.47690 0.73800 0.60780 -0.27000
O 	O 	0.50550 0.81690 0.80390 -0.19300
Nd	Nd	0.00000 0.83693 0.25000 2.51200
Nd	Nd	0.50000 0.33693 0.25000 2.51500
Nd	Nd	0.00000 0.16307 0.75000 2.51200
Nd	Nd	0.50000 0.66307 0.75000 2.51500
