data_crystal

_cell_length_a 55.10600
_cell_length_b 16.05800
_cell_length_c 12.41800
_cell_angle_alpha 90.00000
_cell_angle_beta  96.66400
_cell_angle_gamma 90.00000

_symmetry_space_group_name_	'P 1'
_symmetry_space_group_name_H-M	'P 1'

loop_
_symmetry_equiv_pos_as_xyz
  x,y,z

loop_
_atom_site_label
_atom_site_type_symbol
_atom_site_fract_x
_atom_site_fract_y
_atom_site_fract_z
_atom_site_charge
Pr	Pr	0.22854 0.02357 0.11707 1.99100
Pr	Pr	0.09596 0.94825 0.82029 2.04200
Pr	Pr	0.17172 0.33821 0.28588 2.00000
Pr	Pr	0.06916 0.52820 0.15994 2.07900
N 	N 	0.18369 0.05450 0.01200 -0.21400
C 	C 	0.18096 0.03270 0.90720 -0.10100
C 	C 	0.15810 0.01820 0.85120 0.05600
H 	H 	0.15670 0.00810 0.77700 0.01800
N 	N 	0.13805 0.01850 0.90150 -0.18600
C 	C 	0.14073 0.03980 0.00620 -0.08200
C 	C 	0.16339 0.06170 0.05990 0.04500
H 	H 	0.16440 0.08180 0.13050 0.00200
C 	C 	0.20414 0.01610 0.85530 0.36200
O 	O 	0.22387 0.01420 0.91790 -0.54900
O 	O 	0.20137 0.00210 0.75550 -0.53300
C 	C 	0.11798 0.03470 0.06370 0.38000
O 	O 	0.09914 0.00650 0.00810 -0.45900
O 	O 	0.11965 0.05690 0.16150 -0.47400
N 	N 	0.24236 0.17190 0.03200 -0.20500
C 	C 	0.23414 0.24240 0.07290 -0.10300
C 	C 	0.25800 0.18000 0.95820 0.05100
H 	H 	0.26380 0.13250 0.92680 0.00600
C 	C 	0.21555 0.23170 0.15250 0.36800
O 	O 	0.21114 0.15780 0.17810 -0.52700
O 	O 	0.20582 0.29600 0.18480 -0.52400
N 	N 	0.17160 0.44330 0.11640 -0.21100
C 	C 	0.14979 0.47020 0.06870 -0.07900
C 	C 	0.14757 0.51110 0.96900 0.05800
H 	H 	0.13220 0.52770 0.93780 0.02700
N 	N 	0.16675 0.52670 0.91800 -0.20000
C 	C 	0.18860 0.50040 0.96540 -0.11200
C 	C 	0.19096 0.45930 0.06430 0.05400
H 	H 	0.20640 0.44240 0.09500 0.00300
C 	C 	0.12846 0.45650 0.13280 0.38700
O 	O 	0.13265 0.41320 0.21780 -0.48000
O 	O 	0.10882 0.49120 0.09860 -0.44800
C 	C 	0.21050 0.52080 0.90670 0.36100
O 	O 	0.20670 0.56960 0.82690 -0.55300
O 	O 	0.23050 0.48970 0.94340 -0.53000
N 	N 	0.09122 0.82590 0.97300 -0.19200
C 	C 	0.10595 0.76010 0.96680 -0.09600
C 	C 	0.10266 0.68680 0.02130 0.08000
H 	H 	0.11400 0.64410 0.01870 0.01500
N 	N 	0.08372 0.67510 0.07760 -0.17900
C 	C 	0.06909 0.74110 0.08430 -0.05500
C 	C 	0.07309 0.81660 0.03460 0.06500
H 	H 	0.06290 0.86150 0.04440 0.02800
C 	C 	0.12617 0.77050 0.89570 0.37300
O 	O 	0.12900 0.84160 0.85610 -0.51300
O 	O 	0.13857 0.70690 0.88200 -0.53400
C 	C 	0.04717 0.72780 0.14500 0.39100
O 	O 	0.04391 0.65540 0.17940 -0.41500
O 	O 	0.03365 0.78980 0.15430 -0.43600
N 	N 	0.02287 0.50870 0.05900 -0.18000
C 	C 	0.02037 0.50540 0.95200 -0.05800
C 	C 	0.00259 0.50330 0.10660 0.07200
H 	H 	0.00380 0.50530 0.18190 0.03700
C 	C 	0.04348 0.51220 0.89880 0.38900
O 	O 	0.06261 0.53210 0.95980 -0.46200
O 	O 	0.04183 0.49850 0.79930 -0.45200
N 	N 	0.00076 0.93540 0.42500 -0.18700
C 	C 	0.01665 0.99940 0.43030 -0.07800
C 	C 	0.98445 0.93640 0.49600 0.06300
H 	H 	0.97340 0.89260 0.49620 0.01900
C 	C 	0.03575 0.99580 0.35250 0.39200
O 	O 	0.03147 0.94800 0.27310 -0.46000
O 	O 	0.05437 0.04030 0.37490 -0.48600
O 	O 	0.09235 0.09530 0.77360 -0.32700
O 	O 	0.05744 0.37830 0.11700 -0.21000
O 	O 	0.09570 0.59930 0.30180 -0.58900
O 	O 	0.97570 0.75980 0.11000 -0.20000
O 	O 	0.08810 0.11370 0.84210 -0.09500
N 	N 	0.10110 0.13810 0.77590 0.19900
O 	O 	0.11260 0.09190 0.72530 -0.19600
O 	O 	0.10360 0.21830 0.76440 -0.12400
O 	O 	0.08210 0.61130 0.34680 -0.04100
N 	N 	0.10350 0.61880 0.34020 0.40500
O 	O 	0.11148 0.59600 0.26030 -0.09200
O 	O 	0.11790 0.64800 0.42150 -0.19700
O 	O 	0.06505 0.38690 0.07090 -0.13100
O 	O 	0.96240 0.81490 0.10270 -0.15700
O 	O 	0.99415 0.68450 0.19410 -0.16800
Pr	Pr	0.72854 0.52357 0.11707 1.99300
Pr	Pr	0.59596 0.44825 0.82029 2.04400
Pr	Pr	0.67172 0.83821 0.28588 2.00200
Pr	Pr	0.56916 0.02820 0.15994 2.07800
N 	N 	0.68369 0.55450 0.01200 -0.20900
C 	C 	0.68096 0.53270 0.90720 -0.10700
C 	C 	0.65810 0.51820 0.85120 0.05800
H 	H 	0.65670 0.50810 0.77700 0.01700
N 	N 	0.63805 0.51850 0.90150 -0.19000
C 	C 	0.64073 0.53980 0.00620 -0.07500
C 	C 	0.66339 0.56170 0.05990 0.04500
H 	H 	0.66440 0.58180 0.13050 0.00400
C 	C 	0.70414 0.51610 0.85530 0.36400
O 	O 	0.72387 0.51420 0.91790 -0.55300
O 	O 	0.70137 0.50210 0.75550 -0.53500
C 	C 	0.61798 0.53470 0.06370 0.37900
O 	O 	0.59914 0.50650 0.00810 -0.45600
O 	O 	0.61965 0.55690 0.16150 -0.47300
N 	N 	0.74236 0.67190 0.03200 -0.20100
C 	C 	0.73414 0.74240 0.07290 -0.10400
C 	C 	0.75800 0.68000 0.95820 0.04300
H 	H 	0.76380 0.63250 0.92680 0.00700
C 	C 	0.71555 0.73170 0.15250 0.36900
O 	O 	0.71114 0.65780 0.17810 -0.52600
O 	O 	0.70582 0.79600 0.18480 -0.52400
N 	N 	0.67160 0.94330 0.11640 -0.21100
C 	C 	0.64979 0.97020 0.06870 -0.07800
C 	C 	0.64757 0.01110 0.96900 0.06000
H 	H 	0.63220 0.02770 0.93780 0.02800
N 	N 	0.66675 0.02670 0.91800 -0.19900
C 	C 	0.68860 0.00040 0.96540 -0.11200
C 	C 	0.69096 0.95930 0.06430 0.05500
H 	H 	0.70640 0.94240 0.09500 0.00400
C 	C 	0.62846 0.95650 0.13280 0.38700
O 	O 	0.63265 0.91320 0.21780 -0.48000
O 	O 	0.60882 0.99120 0.09860 -0.44600
C 	C 	0.71050 0.02080 0.90670 0.36800
O 	O 	0.70670 0.06960 0.82690 -0.55400
O 	O 	0.73050 0.98970 0.94340 -0.53700
N 	N 	0.59122 0.32590 0.97300 -0.19000
C 	C 	0.60595 0.26010 0.96680 -0.08800
C 	C 	0.60266 0.18680 0.02130 0.07100
H 	H 	0.61400 0.14410 0.01870 0.01500
N 	N 	0.58372 0.17510 0.07760 -0.17800
C 	C 	0.56909 0.24110 0.08430 -0.05400
C 	C 	0.57309 0.31660 0.03460 0.05900
H 	H 	0.56290 0.36150 0.04440 0.02800
C 	C 	0.62617 0.27050 0.89570 0.37100
O 	O 	0.62900 0.34160 0.85610 -0.51100
O 	O 	0.63857 0.20690 0.88200 -0.53300
C 	C 	0.54717 0.22780 0.14500 0.39000
O 	O 	0.54391 0.15540 0.17940 -0.41500
O 	O 	0.53365 0.28980 0.15430 -0.43600
N 	N 	0.52287 0.00870 0.05900 -0.18300
C 	C 	0.52037 0.00540 0.95200 -0.04700
C 	C 	0.50259 0.00330 0.10660 0.06500
H 	H 	0.50380 0.00530 0.18190 0.03900
C 	C 	0.54348 0.01220 0.89880 0.39000
O 	O 	0.56261 0.03210 0.95980 -0.45900
O 	O 	0.54183 0.99850 0.79930 -0.45500
N 	N 	0.50076 0.43540 0.42500 -0.18600
C 	C 	0.51665 0.49940 0.43030 -0.07800
C 	C 	0.48445 0.43640 0.49600 0.06300
H 	H 	0.47340 0.39260 0.49620 0.02000
C 	C 	0.53575 0.49580 0.35250 0.39000
O 	O 	0.53147 0.44800 0.27310 -0.46000
O 	O 	0.55437 0.54030 0.37490 -0.48400
O 	O 	0.59235 0.59530 0.77360 -0.32700
O 	O 	0.55744 0.87830 0.11700 -0.20900
O 	O 	0.59570 0.09930 0.30180 -0.58900
O 	O 	0.47570 0.25980 0.11000 -0.20100
O 	O 	0.58810 0.61370 0.84210 -0.09800
N 	N 	0.60110 0.63810 0.77590 0.19900
O 	O 	0.61260 0.59190 0.72530 -0.19700
O 	O 	0.60360 0.71830 0.76440 -0.12500
O 	O 	0.58210 0.11130 0.34680 -0.04100
N 	N 	0.60350 0.11880 0.34020 0.40600
O 	O 	0.61148 0.09600 0.26030 -0.09400
O 	O 	0.61790 0.14800 0.42150 -0.19700
O 	O 	0.56505 0.88690 0.07090 -0.12900
O 	O 	0.46240 0.31490 0.10270 -0.15800
O 	O 	0.49415 0.18450 0.19410 -0.16900
Pr	Pr	0.77146 0.02357 0.38293 1.99200
Pr	Pr	0.90404 0.94825 0.67971 2.04400
Pr	Pr	0.82828 0.33821 0.21412 2.00100
Pr	Pr	0.93084 0.52820 0.34006 2.08000
N 	N 	0.81631 0.05450 0.48800 -0.20900
C 	C 	0.81904 0.03270 0.59280 -0.10500
C 	C 	0.84190 0.01820 0.64880 0.05800
H 	H 	0.84330 0.00810 0.72300 0.01900
N 	N 	0.86195 0.01850 0.59850 -0.19000
C 	C 	0.85927 0.03980 0.49380 -0.07400
C 	C 	0.83661 0.06170 0.44010 0.04500
H 	H 	0.83560 0.08180 0.36950 0.00300
C 	C 	0.79586 0.01610 0.64470 0.36400
O 	O 	0.77613 0.01420 0.58210 -0.55200
O 	O 	0.79863 0.00210 0.74450 -0.53200
C 	C 	0.88202 0.03470 0.43630 0.37900
O 	O 	0.90086 0.00650 0.49190 -0.45500
O 	O 	0.88035 0.05690 0.33850 -0.47400
N 	N 	0.75764 0.17190 0.46800 -0.20300
C 	C 	0.76586 0.24240 0.42710 -0.10300
C 	C 	0.74200 0.18000 0.54180 0.04600
H 	H 	0.73620 0.13250 0.57320 0.00700
C 	C 	0.78445 0.23170 0.34750 0.36900
O 	O 	0.78886 0.15780 0.32190 -0.52700
O 	O 	0.79418 0.29600 0.31520 -0.52400
N 	N 	0.82840 0.44330 0.38360 -0.21100
C 	C 	0.85021 0.47020 0.43130 -0.07900
C 	C 	0.85243 0.51110 0.53100 0.05800
H 	H 	0.86780 0.52770 0.56220 0.02700
N 	N 	0.83325 0.52670 0.58200 -0.20000
C 	C 	0.81140 0.50040 0.53460 -0.11200
C 	C 	0.80904 0.45930 0.43570 0.05500
H 	H 	0.79360 0.44240 0.40500 0.00300
C 	C 	0.87154 0.45650 0.36720 0.38700
O 	O 	0.86735 0.41320 0.28220 -0.48000
O 	O 	0.89118 0.49120 0.40140 -0.44800
C 	C 	0.78950 0.52080 0.59330 0.36100
O 	O 	0.79330 0.56960 0.67310 -0.55300
O 	O 	0.76950 0.48970 0.55660 -0.53000
N 	N 	0.90878 0.82590 0.52700 -0.19000
C 	C 	0.89405 0.76010 0.53320 -0.09300
C 	C 	0.89734 0.68680 0.47870 0.07600
H 	H 	0.88600 0.64410 0.48130 0.01600
N 	N 	0.91628 0.67510 0.42240 -0.17800
C 	C 	0.93091 0.74110 0.41570 -0.05400
C 	C 	0.92691 0.81660 0.46540 0.06200
H 	H 	0.93710 0.86150 0.45560 0.02800
C 	C 	0.87383 0.77050 0.60430 0.37200
O 	O 	0.87100 0.84160 0.64390 -0.51200
O 	O 	0.86143 0.70690 0.61800 -0.53400
C 	C 	0.95283 0.72780 0.35500 0.39000
O 	O 	0.95609 0.65540 0.32060 -0.41500
O 	O 	0.96635 0.78980 0.34570 -0.43600
N 	N 	0.97713 0.50870 0.44100 -0.18100
C 	C 	0.97963 0.50540 0.54800 -0.05500
C 	C 	0.99741 0.50330 0.39340 0.07500
H 	H 	0.99620 0.50530 0.31810 0.03600
C 	C 	0.95652 0.51220 0.60120 0.38800
O 	O 	0.93739 0.53210 0.54020 -0.46100
O 	O 	0.95817 0.49850 0.70070 -0.45100
N 	N 	0.99924 0.93540 0.07500 -0.18600
C 	C 	0.98335 0.99940 0.06970 -0.07800
C 	C 	0.01555 0.93640 0.00400 0.06300
H 	H 	0.02660 0.89260 0.00380 0.02000
C 	C 	0.96425 0.99580 0.14750 0.39600
O 	O 	0.96853 0.94800 0.22690 -0.46100
O 	O 	0.94563 0.04030 0.12510 -0.48900
O 	O 	0.90765 0.09530 0.72640 -0.32700
O 	O 	0.94256 0.37830 0.38300 -0.21000
O 	O 	0.90430 0.59930 0.19820 -0.59000
O 	O 	0.02430 0.75980 0.39000 -0.20100
O 	O 	0.91190 0.11370 0.65790 -0.09700
N 	N 	0.89890 0.13810 0.72410 0.19800
O 	O 	0.88740 0.09190 0.77470 -0.19500
O 	O 	0.89640 0.21830 0.73560 -0.12400
O 	O 	0.91790 0.61130 0.15320 -0.04100
N 	N 	0.89650 0.61880 0.15980 0.40500
O 	O 	0.88852 0.59600 0.23970 -0.09200
O 	O 	0.88210 0.64800 0.07850 -0.19600
O 	O 	0.93495 0.38690 0.42910 -0.13000
O 	O 	0.03760 0.81490 0.39730 -0.15700
O 	O 	0.00585 0.68450 0.30590 -0.16900
Pr	Pr	0.27146 0.52357 0.38293 1.99300
Pr	Pr	0.40404 0.44825 0.67971 2.04400
Pr	Pr	0.32828 0.83821 0.21412 2.00200
Pr	Pr	0.43084 0.02820 0.34006 2.08000
N 	N 	0.31631 0.55450 0.48800 -0.20900
C 	C 	0.31904 0.53270 0.59280 -0.10600
C 	C 	0.34190 0.51820 0.64880 0.05800
H 	H 	0.34330 0.50810 0.72300 0.01700
N 	N 	0.36195 0.51850 0.59850 -0.19000
C 	C 	0.35927 0.53980 0.49380 -0.07400
C 	C 	0.33661 0.56170 0.44010 0.04500
H 	H 	0.33560 0.58180 0.36950 0.00400
C 	C 	0.29586 0.51610 0.64470 0.36400
O 	O 	0.27613 0.51420 0.58210 -0.55200
O 	O 	0.29863 0.50210 0.74450 -0.53500
C 	C 	0.38202 0.53470 0.43630 0.37900
O 	O 	0.40086 0.50650 0.49190 -0.45500
O 	O 	0.38035 0.55690 0.33850 -0.47300
N 	N 	0.25764 0.67190 0.46800 -0.20300
C 	C 	0.26586 0.74240 0.42710 -0.10300
C 	C 	0.24200 0.68000 0.54180 0.04600
H 	H 	0.23620 0.63250 0.57320 0.00600
C 	C 	0.28445 0.73170 0.34750 0.36900
O 	O 	0.28886 0.65780 0.32190 -0.52600
O 	O 	0.29418 0.79600 0.31520 -0.52400
N 	N 	0.32840 0.94330 0.38360 -0.21100
C 	C 	0.35021 0.97020 0.43130 -0.07800
C 	C 	0.35243 0.01110 0.53100 0.05700
H 	H 	0.36780 0.02770 0.56220 0.02700
N 	N 	0.33325 0.02670 0.58200 -0.19900
C 	C 	0.31140 0.00040 0.53460 -0.11300
C 	C 	0.30904 0.95930 0.43570 0.05500
H 	H 	0.29360 0.94240 0.40500 0.00300
C 	C 	0.37154 0.95650 0.36720 0.38700
O 	O 	0.36735 0.91320 0.28220 -0.48000
O 	O 	0.39118 0.99120 0.40140 -0.44700
C 	C 	0.28950 0.02080 0.59330 0.36300
O 	O 	0.29330 0.06960 0.67310 -0.55300
O 	O 	0.26950 0.98970 0.55660 -0.53100
N 	N 	0.40878 0.32590 0.52700 -0.19000
C 	C 	0.39405 0.26010 0.53320 -0.09300
C 	C 	0.39734 0.18680 0.47870 0.07600
H 	H 	0.38600 0.14410 0.48130 0.01600
N 	N 	0.41628 0.17510 0.42240 -0.17800
C 	C 	0.43091 0.24110 0.41570 -0.05400
C 	C 	0.42691 0.31660 0.46540 0.06200
H 	H 	0.43710 0.36150 0.45560 0.02800
C 	C 	0.37383 0.27050 0.60430 0.37200
O 	O 	0.37100 0.34160 0.64390 -0.51200
O 	O 	0.36143 0.20690 0.61800 -0.53400
C 	C 	0.45283 0.22780 0.35500 0.39000
O 	O 	0.45609 0.15540 0.32060 -0.41500
O 	O 	0.46635 0.28980 0.34570 -0.43600
N 	N 	0.47713 0.00870 0.44100 -0.18000
C 	C 	0.47963 0.00540 0.54800 -0.05600
C 	C 	0.49741 0.00330 0.39340 0.07400
H 	H 	0.49620 0.00530 0.31810 0.03600
C 	C 	0.45652 0.01220 0.60120 0.39100
O 	O 	0.43739 0.03210 0.54020 -0.46200
O 	O 	0.45817 0.99850 0.70070 -0.45300
N 	N 	0.49924 0.43540 0.07500 -0.18600
C 	C 	0.48335 0.49940 0.06970 -0.07800
C 	C 	0.51555 0.43640 0.00400 0.06200
H 	H 	0.52660 0.39260 0.00380 0.01900
C 	C 	0.46425 0.49580 0.14750 0.39000
O 	O 	0.46853 0.44800 0.22690 -0.46000
O 	O 	0.44563 0.54030 0.12510 -0.48300
O 	O 	0.40765 0.59530 0.72640 -0.32800
O 	O 	0.44256 0.87830 0.38300 -0.20900
O 	O 	0.40430 0.09930 0.19820 -0.58900
O 	O 	0.52430 0.25980 0.39000 -0.20000
O 	O 	0.41190 0.61370 0.65790 -0.09700
N 	N 	0.39890 0.63810 0.72410 0.19900
O 	O 	0.38740 0.59190 0.77470 -0.19700
O 	O 	0.39640 0.71830 0.73560 -0.12500
O 	O 	0.41790 0.11130 0.15320 -0.04300
N 	N 	0.39650 0.11880 0.15980 0.40500
O 	O 	0.38852 0.09600 0.23970 -0.09400
O 	O 	0.38210 0.14800 0.07850 -0.19900
O 	O 	0.43495 0.88690 0.42910 -0.13100
O 	O 	0.53760 0.31490 0.39730 -0.15700
O 	O 	0.50585 0.18450 0.30590 -0.16900
Pr	Pr	0.77146 0.97643 0.88293 1.99200
Pr	Pr	0.90404 0.05175 0.17971 2.04300
Pr	Pr	0.82828 0.66179 0.71412 2.00100
Pr	Pr	0.93084 0.47180 0.84006 2.08000
N 	N 	0.81631 0.94550 0.98800 -0.21300
C 	C 	0.81904 0.96730 0.09280 -0.10000
C 	C 	0.84190 0.98180 0.14880 0.05700
H 	H 	0.84330 0.99190 0.22300 0.01900
N 	N 	0.86195 0.98150 0.09850 -0.18500
C 	C 	0.85927 0.96020 0.99380 -0.08100
C 	C 	0.83661 0.93830 0.94010 0.04600
H 	H 	0.83560 0.91820 0.86950 0.00300
C 	C 	0.79586 0.98390 0.14470 0.36300
O 	O 	0.77613 0.98580 0.08210 -0.54900
O 	O 	0.79863 0.99790 0.24450 -0.53300
C 	C 	0.88202 0.96530 0.93630 0.38000
O 	O 	0.90086 0.99350 0.99190 -0.45900
O 	O 	0.88035 0.94310 0.83850 -0.47400
N 	N 	0.75764 0.82810 0.96800 -0.20500
C 	C 	0.76586 0.75760 0.92710 -0.10300
C 	C 	0.74200 0.82000 0.04180 0.05100
H 	H 	0.73620 0.86750 0.07320 0.00600
C 	C 	0.78445 0.76830 0.84750 0.36800
O 	O 	0.78886 0.84220 0.82190 -0.52700
O 	O 	0.79418 0.70400 0.81520 -0.52400
N 	N 	0.82840 0.55670 0.88360 -0.21100
C 	C 	0.85021 0.52980 0.93130 -0.07900
C 	C 	0.85243 0.48890 0.03100 0.05800
H 	H 	0.86780 0.47230 0.06220 0.02700
N 	N 	0.83325 0.47330 0.08200 -0.20000
C 	C 	0.81140 0.49960 0.03460 -0.11200
C 	C 	0.80904 0.54070 0.93570 0.05400
H 	H 	0.79360 0.55760 0.90500 0.00300
C 	C 	0.87154 0.54350 0.86720 0.38700
O 	O 	0.86735 0.58680 0.78220 -0.48000
O 	O 	0.89118 0.50880 0.90140 -0.44800
C 	C 	0.78950 0.47920 0.09330 0.36100
O 	O 	0.79330 0.43040 0.17310 -0.55300
O 	O 	0.76950 0.51030 0.05660 -0.53000
N 	N 	0.90878 0.17410 0.02700 -0.19200
C 	C 	0.89405 0.23990 0.03320 -0.09600
C 	C 	0.89734 0.31320 0.97870 0.08000
H 	H 	0.88600 0.35590 0.98130 0.01500
N 	N 	0.91628 0.32490 0.92240 -0.17900
C 	C 	0.93091 0.25890 0.91570 -0.05500
C 	C 	0.92691 0.18340 0.96540 0.06500
H 	H 	0.93710 0.13850 0.95560 0.02800
C 	C 	0.87383 0.22950 0.10430 0.37300
O 	O 	0.87100 0.15840 0.14390 -0.51300
O 	O 	0.86143 0.29310 0.11800 -0.53400
C 	C 	0.95283 0.27220 0.85500 0.39100
O 	O 	0.95609 0.34460 0.82060 -0.41500
O 	O 	0.96635 0.21020 0.84570 -0.43600
N 	N 	0.97713 0.49130 0.94100 -0.18100
C 	C 	0.97963 0.49460 0.04800 -0.05600
C 	C 	0.99741 0.49670 0.89340 0.07500
H 	H 	0.99620 0.49470 0.81810 0.03600
C 	C 	0.95652 0.48780 0.10120 0.38800
O 	O 	0.93739 0.46790 0.04020 -0.46200
O 	O 	0.95817 0.50150 0.20070 -0.45200
N 	N 	0.99924 0.06460 0.57500 -0.18500
C 	C 	0.98335 0.00060 0.56970 -0.07900
C 	C 	0.01555 0.06360 0.50400 0.06100
H 	H 	0.02660 0.10740 0.50380 0.02000
C 	C 	0.96425 0.00420 0.64750 0.39200
O 	O 	0.96853 0.05200 0.72690 -0.46000
O 	O 	0.94563 0.95970 0.62510 -0.48600
O 	O 	0.90765 0.90470 0.22640 -0.32700
O 	O 	0.94256 0.62170 0.88300 -0.21000
O 	O 	0.90430 0.40070 0.69820 -0.58900
O 	O 	0.02430 0.24020 0.89000 -0.20000
O 	O 	0.91190 0.88630 0.15790 -0.09500
N 	N 	0.89890 0.86190 0.22410 0.19900
O 	O 	0.88740 0.90810 0.27470 -0.19600
O 	O 	0.89640 0.78170 0.23560 -0.12400
O 	O 	0.91790 0.38870 0.65320 -0.04100
N 	N 	0.89650 0.38120 0.65980 0.40500
O 	O 	0.88852 0.40400 0.73970 -0.09200
O 	O 	0.88210 0.35200 0.57850 -0.19700
O 	O 	0.93495 0.61310 0.92910 -0.13100
O 	O 	0.03760 0.18510 0.89730 -0.15700
O 	O 	0.00585 0.31550 0.80590 -0.16900
Pr	Pr	0.27146 0.47643 0.88293 1.99300
Pr	Pr	0.40404 0.55175 0.17971 2.04400
Pr	Pr	0.32828 0.16179 0.71412 2.00200
Pr	Pr	0.43084 0.97180 0.84006 2.07800
N 	N 	0.31631 0.44550 0.98800 -0.20900
C 	C 	0.31904 0.46730 0.09280 -0.10700
C 	C 	0.34190 0.48180 0.14880 0.05800
H 	H 	0.34330 0.49190 0.22300 0.01700
N 	N 	0.36195 0.48150 0.09850 -0.19000
C 	C 	0.35927 0.46020 0.99380 -0.07500
C 	C 	0.33661 0.43830 0.94010 0.04500
H 	H 	0.33560 0.41820 0.86950 0.00400
C 	C 	0.29586 0.48390 0.14470 0.36400
O 	O 	0.27613 0.48580 0.08210 -0.55300
O 	O 	0.29863 0.49790 0.24450 -0.53500
C 	C 	0.38202 0.46530 0.93630 0.37900
O 	O 	0.40086 0.49350 0.99190 -0.45600
O 	O 	0.38035 0.44310 0.83850 -0.47300
N 	N 	0.25764 0.32810 0.96800 -0.20100
C 	C 	0.26586 0.25760 0.92710 -0.10400
C 	C 	0.24200 0.32000 0.04180 0.04300
H 	H 	0.23620 0.36750 0.07320 0.00700
C 	C 	0.28445 0.26830 0.84750 0.36900
O 	O 	0.28886 0.34220 0.82190 -0.52600
O 	O 	0.29418 0.20400 0.81520 -0.52400
N 	N 	0.32840 0.05670 0.88360 -0.21100
C 	C 	0.35021 0.02980 0.93130 -0.07800
C 	C 	0.35243 0.98890 0.03100 0.06000
H 	H 	0.36780 0.97230 0.06220 0.02800
N 	N 	0.33325 0.97330 0.08200 -0.19900
C 	C 	0.31140 0.99960 0.03460 -0.11200
C 	C 	0.30904 0.04070 0.93570 0.05600
H 	H 	0.29360 0.05760 0.90500 0.00400
C 	C 	0.37154 0.04350 0.86720 0.38700
O 	O 	0.36735 0.08680 0.78220 -0.48000
O 	O 	0.39118 0.00880 0.90140 -0.44600
C 	C 	0.28950 0.97920 0.09330 0.36800
O 	O 	0.29330 0.93040 0.17310 -0.55400
O 	O 	0.26950 0.01030 0.05660 -0.53700
N 	N 	0.40878 0.67410 0.02700 -0.19000
C 	C 	0.39405 0.73990 0.03320 -0.08800
C 	C 	0.39734 0.81320 0.97870 0.07100
H 	H 	0.38600 0.85590 0.98130 0.01500
N 	N 	0.41628 0.82490 0.92240 -0.17800
C 	C 	0.43091 0.75890 0.91570 -0.05400
C 	C 	0.42691 0.68340 0.96540 0.05900
H 	H 	0.43710 0.63850 0.95560 0.02800
C 	C 	0.37383 0.72950 0.10430 0.37100
O 	O 	0.37100 0.65840 0.14390 -0.51100
O 	O 	0.36143 0.79310 0.11800 -0.53300
C 	C 	0.45283 0.77220 0.85500 0.39000
O 	O 	0.45609 0.84460 0.82060 -0.41500
O 	O 	0.46635 0.71020 0.84570 -0.43600
N 	N 	0.47713 0.99130 0.94100 -0.18300
C 	C 	0.47963 0.99460 0.04800 -0.04700
C 	C 	0.49741 0.99670 0.89340 0.06500
H 	H 	0.49620 0.99470 0.81810 0.03900
C 	C 	0.45652 0.98780 0.10120 0.39000
O 	O 	0.43739 0.96790 0.04020 -0.45900
O 	O 	0.45817 0.00150 0.20070 -0.45500
N 	N 	0.49924 0.56460 0.57500 -0.18600
C 	C 	0.48335 0.50060 0.56970 -0.07800
C 	C 	0.51555 0.56360 0.50400 0.06300
H 	H 	0.52660 0.60740 0.50380 0.02000
C 	C 	0.46425 0.50420 0.64750 0.39000
O 	O 	0.46853 0.55200 0.72690 -0.46000
O 	O 	0.44563 0.45970 0.62510 -0.48400
O 	O 	0.40765 0.40470 0.22640 -0.32700
O 	O 	0.44256 0.12170 0.88300 -0.20900
O 	O 	0.40430 0.90070 0.69820 -0.58900
O 	O 	0.52430 0.74020 0.89000 -0.20100
O 	O 	0.41190 0.38630 0.15790 -0.09800
N 	N 	0.39890 0.36190 0.22410 0.19900
O 	O 	0.38740 0.40810 0.27470 -0.19700
O 	O 	0.39640 0.28170 0.23560 -0.12500
O 	O 	0.41790 0.88870 0.65320 -0.04100
N 	N 	0.39650 0.88120 0.65980 0.40600
O 	O 	0.38852 0.90400 0.73970 -0.09400
O 	O 	0.38210 0.85200 0.57850 -0.19700
O 	O 	0.43495 0.11310 0.92910 -0.12900
O 	O 	0.53760 0.68510 0.89730 -0.15800
O 	O 	0.50585 0.81550 0.80590 -0.16900
Pr	Pr	0.22854 0.97643 0.61707 1.99200
Pr	Pr	0.09596 0.05175 0.32029 2.04400
Pr	Pr	0.17172 0.66179 0.78588 2.00100
Pr	Pr	0.06916 0.47180 0.65994 2.08000
N 	N 	0.18369 0.94550 0.51200 -0.20900
C 	C 	0.18096 0.96730 0.40720 -0.10500
C 	C 	0.15810 0.98180 0.35120 0.05800
H 	H 	0.15670 0.99190 0.27700 0.01900
N 	N 	0.13805 0.98150 0.40150 -0.19000
C 	C 	0.14073 0.96020 0.50620 -0.07400
C 	C 	0.16339 0.93830 0.55990 0.04500
H 	H 	0.16440 0.91820 0.63050 0.00300
C 	C 	0.20414 0.98390 0.35530 0.36400
O 	O 	0.22387 0.98580 0.41790 -0.55200
O 	O 	0.20137 0.99790 0.25550 -0.53200
C 	C 	0.11798 0.96530 0.56370 0.37900
O 	O 	0.09914 0.99350 0.50810 -0.45500
O 	O 	0.11965 0.94310 0.66150 -0.47400
N 	N 	0.24236 0.82810 0.53200 -0.20300
C 	C 	0.23414 0.75760 0.57290 -0.10300
C 	C 	0.25800 0.82000 0.45820 0.04600
H 	H 	0.26380 0.86750 0.42680 0.00700
C 	C 	0.21555 0.76830 0.65250 0.36900
O 	O 	0.21114 0.84220 0.67810 -0.52700
O 	O 	0.20582 0.70400 0.68480 -0.52400
N 	N 	0.17160 0.55670 0.61640 -0.21100
C 	C 	0.14979 0.52980 0.56870 -0.07900
C 	C 	0.14757 0.48890 0.46900 0.05800
H 	H 	0.13220 0.47230 0.43780 0.02700
N 	N 	0.16675 0.47330 0.41800 -0.20000
C 	C 	0.18860 0.49960 0.46540 -0.11200
C 	C 	0.19096 0.54070 0.56430 0.05500
H 	H 	0.20640 0.55760 0.59500 0.00300
C 	C 	0.12846 0.54350 0.63280 0.38700
O 	O 	0.13265 0.58680 0.71780 -0.48000
O 	O 	0.10882 0.50880 0.59860 -0.44800
C 	C 	0.21050 0.47920 0.40670 0.36100
O 	O 	0.20670 0.43040 0.32690 -0.55300
O 	O 	0.23050 0.51030 0.44340 -0.53000
N 	N 	0.09122 0.17410 0.47300 -0.19000
C 	C 	0.10595 0.23990 0.46680 -0.09300
C 	C 	0.10266 0.31320 0.52130 0.07600
H 	H 	0.11400 0.35590 0.51870 0.01600
N 	N 	0.08372 0.32490 0.57760 -0.17800
C 	C 	0.06909 0.25890 0.58430 -0.05400
C 	C 	0.07309 0.18340 0.53460 0.06200
H 	H 	0.06290 0.13850 0.54440 0.02800
C 	C 	0.12617 0.22950 0.39570 0.37200
O 	O 	0.12900 0.15840 0.35610 -0.51200
O 	O 	0.13857 0.29310 0.38200 -0.53400
C 	C 	0.04717 0.27220 0.64500 0.39000
O 	O 	0.04391 0.34460 0.67940 -0.41500
O 	O 	0.03365 0.21020 0.65430 -0.43600
N 	N 	0.02287 0.49130 0.55900 -0.18000
C 	C 	0.02037 0.49460 0.45200 -0.05800
C 	C 	0.00259 0.49670 0.60660 0.07200
H 	H 	0.00380 0.49470 0.68190 0.03700
C 	C 	0.04348 0.48780 0.39880 0.38800
O 	O 	0.06261 0.46790 0.45980 -0.46100
O 	O 	0.04183 0.50150 0.29930 -0.45200
N 	N 	0.00076 0.06460 0.92500 -0.18700
C 	C 	0.01665 0.00060 0.93030 -0.07800
C 	C 	0.98445 0.06360 0.99600 0.06500
H 	H 	0.97340 0.10740 0.99620 0.01900
C 	C 	0.03575 0.00420 0.85250 0.39600
O 	O 	0.03147 0.05200 0.77310 -0.46100
O 	O 	0.05437 0.95970 0.87490 -0.48900
O 	O 	0.09235 0.90470 0.27360 -0.32700
O 	O 	0.05744 0.62170 0.61700 -0.21100
O 	O 	0.09570 0.40070 0.80180 -0.58900
O 	O 	0.97570 0.24020 0.61000 -0.20000
O 	O 	0.08810 0.88630 0.34210 -0.09700
N 	N 	0.10110 0.86190 0.27590 0.19800
O 	O 	0.11260 0.90810 0.22530 -0.19500
O 	O 	0.10360 0.78170 0.26440 -0.12400
O 	O 	0.08210 0.38870 0.84680 -0.04100
N 	N 	0.10350 0.38120 0.84020 0.40500
O 	O 	0.11148 0.40400 0.76030 -0.09200
O 	O 	0.11790 0.35200 0.92150 -0.19600
O 	O 	0.06505 0.61310 0.57090 -0.13000
O 	O 	0.96240 0.18510 0.60270 -0.15700
O 	O 	0.99415 0.31550 0.69410 -0.16800
Pr	Pr	0.72854 0.47643 0.61707 1.99300
Pr	Pr	0.59596 0.55175 0.32029 2.04400
Pr	Pr	0.67172 0.16179 0.78588 2.00200
Pr	Pr	0.56916 0.97180 0.65994 2.08000
N 	N 	0.68369 0.44550 0.51200 -0.20900
C 	C 	0.68096 0.46730 0.40720 -0.10600
C 	C 	0.65810 0.48180 0.35120 0.05800
H 	H 	0.65670 0.49190 0.27700 0.01700
N 	N 	0.63805 0.48150 0.40150 -0.19000
C 	C 	0.64073 0.46020 0.50620 -0.07400
C 	C 	0.66339 0.43830 0.55990 0.04500
H 	H 	0.66440 0.41820 0.63050 0.00400
C 	C 	0.70414 0.48390 0.35530 0.36400
O 	O 	0.72387 0.48580 0.41790 -0.55200
O 	O 	0.70137 0.49790 0.25550 -0.53500
C 	C 	0.61798 0.46530 0.56370 0.37900
O 	O 	0.59914 0.49350 0.50810 -0.45500
O 	O 	0.61965 0.44310 0.66150 -0.47300
N 	N 	0.74236 0.32810 0.53200 -0.20300
C 	C 	0.73414 0.25760 0.57290 -0.10300
C 	C 	0.75800 0.32000 0.45820 0.04600
H 	H 	0.76380 0.36750 0.42680 0.00600
C 	C 	0.71555 0.26830 0.65250 0.36900
O 	O 	0.71114 0.34220 0.67810 -0.52600
O 	O 	0.70582 0.20400 0.68480 -0.52400
N 	N 	0.67160 0.05670 0.61640 -0.21100
C 	C 	0.64979 0.02980 0.56870 -0.07800
C 	C 	0.64757 0.98890 0.46900 0.05700
H 	H 	0.63220 0.97230 0.43780 0.02700
N 	N 	0.66675 0.97330 0.41800 -0.19900
C 	C 	0.68860 0.99960 0.46540 -0.11300
C 	C 	0.69096 0.04070 0.56430 0.05500
H 	H 	0.70640 0.05760 0.59500 0.00300
C 	C 	0.62846 0.04350 0.63280 0.38700
O 	O 	0.63265 0.08680 0.71780 -0.48000
O 	O 	0.60882 0.00880 0.59860 -0.44700
C 	C 	0.71050 0.97920 0.40670 0.36300
O 	O 	0.70670 0.93040 0.32690 -0.55300
O 	O 	0.73050 0.01030 0.44340 -0.53100
N 	N 	0.59122 0.67410 0.47300 -0.19000
C 	C 	0.60595 0.73990 0.46680 -0.09300
C 	C 	0.60266 0.81320 0.52130 0.07600
H 	H 	0.61400 0.85590 0.51870 0.01600
N 	N 	0.58372 0.82490 0.57760 -0.17800
C 	C 	0.56909 0.75890 0.58430 -0.05400
C 	C 	0.57309 0.68340 0.53460 0.06200
H 	H 	0.56290 0.63850 0.54440 0.02800
C 	C 	0.62617 0.72950 0.39570 0.37200
O 	O 	0.62900 0.65840 0.35610 -0.51200
O 	O 	0.63857 0.79310 0.38200 -0.53400
C 	C 	0.54717 0.77220 0.64500 0.39000
O 	O 	0.54391 0.84460 0.67940 -0.41500
O 	O 	0.53365 0.71020 0.65430 -0.43600
N 	N 	0.52287 0.99130 0.55900 -0.18000
C 	C 	0.52037 0.99460 0.45200 -0.05600
C 	C 	0.50259 0.99670 0.60660 0.07400
H 	H 	0.50380 0.99470 0.68190 0.03600
C 	C 	0.54348 0.98780 0.39880 0.39100
O 	O 	0.56261 0.96790 0.45980 -0.46200
O 	O 	0.54183 0.00150 0.29930 -0.45300
N 	N 	0.50076 0.56460 0.92500 -0.18600
C 	C 	0.51665 0.50060 0.93030 -0.07800
C 	C 	0.48445 0.56360 0.99600 0.06200
H 	H 	0.47340 0.60740 0.99620 0.01900
C 	C 	0.53575 0.50420 0.85250 0.39000
O 	O 	0.53147 0.55200 0.77310 -0.46000
O 	O 	0.55437 0.45970 0.87490 -0.48300
O 	O 	0.59235 0.40470 0.27360 -0.32800
O 	O 	0.55744 0.12170 0.61700 -0.20900
O 	O 	0.59570 0.90070 0.80180 -0.58900
O 	O 	0.47570 0.74020 0.61000 -0.20000
O 	O 	0.58810 0.38630 0.34210 -0.09700
N 	N 	0.60110 0.36190 0.27590 0.19900
O 	O 	0.61260 0.40810 0.22530 -0.19700
O 	O 	0.60360 0.28170 0.26440 -0.12500
O 	O 	0.58210 0.88870 0.84680 -0.04300
N 	N 	0.60350 0.88120 0.84020 0.40500
O 	O 	0.61148 0.90400 0.76030 -0.09400
O 	O 	0.61790 0.85200 0.92150 -0.19900
O 	O 	0.56505 0.11310 0.57090 -0.13100
O 	O 	0.46240 0.68510 0.60270 -0.15700
O 	O 	0.49415 0.81550 0.69410 -0.16900
Pr	Pr	0.00000 0.83694 0.25000 2.09900
Pr	Pr	0.50000 0.33694 0.25000 2.09900
Pr	Pr	0.00000 0.16306 0.75000 2.09900
Pr	Pr	0.50000 0.66306 0.75000 2.09900
