data_crystal

_cell_length_a 15.51490
_cell_length_b 29.72600
_cell_length_c 22.62060
_cell_angle_alpha 90.00000
_cell_angle_beta  97.54900
_cell_angle_gamma 90.00000

_symmetry_space_group_name_	'P 1'
_symmetry_space_group_name_H-M	'P 1'

loop_
_symmetry_equiv_pos_as_xyz
  x,y,z

loop_
_atom_site_label
_atom_site_type_symbol
_atom_site_fract_x
_atom_site_fract_y
_atom_site_fract_z
_atom_site_charge
N 	N 	0.43570 0.09690 0.29140 -0.20900
O 	O 	0.38760 0.05737 0.18670 -0.44200
O 	O 	0.42160 0.00645 0.32970 -0.46100
O 	O 	0.07790 0.46400 0.29410 -0.45700
C 	C 	0.37500 0.11780 0.25340 0.00300
C 	C 	0.45240 0.11380 0.34670 0.10600
C 	C 	0.35400 0.09640 0.19180 0.31400
C 	C 	0.36390 0.01570 0.36060 0.40800
C 	C 	0.33080 0.15560 0.26900 -0.08700
C 	C 	0.41080 0.15050 0.36690 -0.13600
H 	H 	0.49490 0.09970 0.37320 -0.00600
O 	O 	0.30750 0.11660 0.15220 -0.25500
C 	C 	0.36610 0.99220 0.42040 -0.04200
O 	O 	0.30110 0.04270 0.34670 -0.47300
C 	C 	0.34720 0.17190 0.32670 0.04400
H 	H 	0.29060 0.16990 0.24100 0.07700
H 	H 	0.42430 0.16070 0.40590 0.08400
C 	C 	0.42810 0.96120 0.44010 -0.04600
N 	N 	0.30010 0.00410 0.45120 -0.20400
Dy	Dy	0.19033 0.05769 0.40334 1.79500
C 	C 	0.29720 0.21090 0.34600 0.06700
H 	H 	0.47140 0.95300 0.41740 0.07400
C 	C 	0.42330 0.94250 0.49570 0.01800
C 	C 	0.29520 0.98560 0.50460 0.05800
N 	N 	0.16350 0.02740 0.50410 -0.22700
N 	N 	0.06570 0.08980 0.44700 -0.19400
O 	O 	0.14270 0.12632 0.36330 -0.43700
O 	O 	0.27650 0.10390 0.46630 -0.63700
N 	N 	0.12770 0.95450 0.79530 -0.19900
O 	O 	0.11970 0.00944 0.88530 -0.48800
C 	C 	0.25330 0.20730 0.39540 -0.12200
C 	C 	0.28900 0.25060 0.31310 -0.13100
H 	H 	0.46430 0.92120 0.51070 0.04100
C 	C 	0.35990 0.95450 0.52860 -0.09800
C 	C 	0.22220 0.99950 0.53450 0.08400
C 	C 	0.09440 0.04080 0.52950 0.10300
C 	C 	0.03530 0.07230 0.49420 -0.01500
C 	C 	0.01900 0.12300 0.41610 -0.08300
C 	C 	0.06970 0.14360 0.36820 0.33500
C 	C 	0.32690 0.10940 0.51140 0.87200
C 	C 	0.19800 0.24090 0.40810 0.07900
H 	H 	0.26120 0.18210 0.41980 0.09000
H 	H 	0.31910 0.25470 0.28060 0.08100
C 	C 	0.23440 0.28410 0.33010 0.08400
H 	H 	0.35900 0.94260 0.56650 0.08600
C 	C 	0.21190 0.98490 0.59130 -0.16000
C 	C 	0.08290 0.02800 0.58640 -0.17700
C 	C 	0.95410 0.08550 0.50850 0.01000
C 	C 	0.94190 0.13770 0.42880 0.05000
O 	O 	0.03470 0.17520 0.33840 -0.24900
H 	H 	0.36780 0.08660 0.51970 -0.27200
O 	O 	0.33230 0.13870 0.54620 -0.67700
C 	C 	0.14300 0.23710 0.45660 0.08700
N 	N 	0.18720 0.27860 0.37470 -0.19400
C 	C 	0.22830 0.32850 0.30090 0.06400
H 	H 	0.25230 0.96540 0.61160 0.10900
C 	C 	0.14130 0.99960 0.61760 0.09300
H 	H 	0.03560 0.03870 0.60360 0.09800
H 	H 	0.93180 0.07230 0.54050 0.04500
C 	C 	0.90790 0.11770 0.47560 -0.08100
H 	H 	0.91220 0.16060 0.40680 0.04400
Dy	Dy	0.44230 0.16927 0.61824 0.95600
C 	C 	0.14870 0.20230 0.49700 -0.14500
N 	N 	0.08470 0.26970 0.45760 -0.19300
C 	C 	0.27990 0.34210 0.25880 -0.08600
N 	N 	0.16890 0.35640 0.31740 -0.18700
C 	C 	0.13080 0.98390 0.67810 0.01300
H 	H 	0.85340 0.12620 0.48460 0.07600
C 	C 	0.09420 0.20160 0.54090 0.08200
H 	H 	0.18890 0.17930 0.49490 0.09600
C 	C 	0.03050 0.26830 0.49990 -0.01100
O 	O 	0.97780 0.33790 0.46090 -0.38400
O 	O 	0.04640 0.40700 0.35280 -0.45400
H 	H 	0.32290 0.32290 0.24840 0.06600
C 	C 	0.26830 0.38390 0.23210 0.00600
C 	C 	0.15910 0.39720 0.29300 -0.04000
C 	C 	0.14380 0.93890 0.69330 -0.11500
C 	C 	0.11240 0.01370 0.72330 -0.05800
C 	C 	0.03450 0.23440 0.54080 -0.16100
H 	H 	0.09880 0.17910 0.56970 0.00100
C 	C 	0.96730 0.30740 0.49650 0.36700
C 	C 	0.08820 0.42540 0.31550 0.41300
H 	H 	0.30020 0.39250 0.20200 0.03000
C 	C 	0.20750 0.41230 0.25170 -0.03300
H 	H 	0.15400 0.91800 0.66450 0.08400
C 	C 	0.14150 0.92520 0.75230 0.07500
H 	H 	0.10080 0.04380 0.71500 0.07100
C 	C 	0.11200 0.99700 0.78050 -0.03800
H 	H 	0.99560 0.23390 0.56870 0.12600
O 	O 	0.91350 0.30810 0.52990 -0.24900
H 	H 	0.20010 0.44140 0.23670 0.05100
H 	H 	0.14980 0.89500 0.76200 0.01700
C 	C 	0.10030 0.02780 0.83280 0.39500
O 	O 	0.07230 0.06600 0.82360 -0.52900
O 	O 	0.48890 0.19340 0.72690 -0.00700
O 	O 	0.59510 0.15840 0.64460 -0.22100
Dy	Dy	0.08210 0.34210 0.39430 0.63900
O 	O 	0.01510 0.28960 0.30770 -0.26000
H 	H 	0.10480 0.08390 0.84320 0.28000
N 	N 	0.93570 0.59690 0.29140 -0.19600
O 	O 	0.88760 0.55737 0.18670 -0.42100
O 	O 	0.92160 0.50645 0.32970 -0.43800
O 	O 	0.57790 0.96400 0.29410 -0.45600
C 	C 	0.87500 0.61780 0.25340 0.01100
C 	C 	0.95240 0.61380 0.34670 0.10900
C 	C 	0.85400 0.59640 0.19180 0.31400
C 	C 	0.86390 0.51570 0.36060 0.40300
C 	C 	0.83080 0.65560 0.26900 -0.08600
C 	C 	0.91080 0.65050 0.36690 -0.13000
H 	H 	0.99490 0.59970 0.37320 0.00900
O 	O 	0.80750 0.61660 0.15220 -0.24900
C 	C 	0.86610 0.49220 0.42040 -0.03300
O 	O 	0.80110 0.54270 0.34670 -0.46900
C 	C 	0.84720 0.67190 0.32670 0.04700
H 	H 	0.79060 0.66990 0.24100 0.08100
H 	H 	0.92430 0.66070 0.40590 0.09100
C 	C 	0.92810 0.46120 0.44010 -0.04800
N 	N 	0.80010 0.50410 0.45120 -0.20400
Dy	Dy	0.69033 0.55769 0.40334 1.80000
C 	C 	0.79720 0.71090 0.34600 0.07200
H 	H 	0.97140 0.45300 0.41740 0.08700
C 	C 	0.92330 0.44250 0.49570 0.02500
C 	C 	0.79520 0.48560 0.50460 0.06100
N 	N 	0.66350 0.52740 0.50410 -0.22300
N 	N 	0.56570 0.58980 0.44700 -0.21700
O 	O 	0.64270 0.62632 0.36330 -0.43000
O 	O 	0.77650 0.60390 0.46630 -0.63700
N 	N 	0.62770 0.45450 0.79530 -0.19900
O 	O 	0.61970 0.50944 0.88530 -0.48200
C 	C 	0.75330 0.70730 0.39540 -0.12700
C 	C 	0.78900 0.75060 0.31310 -0.13200
H 	H 	0.96430 0.42120 0.51070 0.04900
C 	C 	0.85990 0.45450 0.52860 -0.09800
C 	C 	0.72220 0.49950 0.53450 0.08300
C 	C 	0.59440 0.54080 0.52950 0.08400
C 	C 	0.53530 0.57230 0.49420 0.05700
C 	C 	0.51900 0.62300 0.41610 -0.00300
C 	C 	0.56970 0.64360 0.36820 0.31300
C 	C 	0.82690 0.60940 0.51140 0.87600
C 	C 	0.69800 0.74090 0.40810 0.08700
H 	H 	0.76120 0.68210 0.41980 0.09200
H 	H 	0.81910 0.75470 0.28060 0.08500
C 	C 	0.73440 0.78410 0.33010 0.08600
H 	H 	0.85900 0.44260 0.56650 0.09100
C 	C 	0.71190 0.48490 0.59130 -0.15500
C 	C 	0.58290 0.52800 0.58640 -0.16100
C 	C 	0.45410 0.58550 0.50850 -0.10700
C 	C 	0.44190 0.63770 0.42880 -0.07300
O 	O 	0.53470 0.67520 0.33840 -0.22900
H 	H 	0.86780 0.58660 0.51970 -0.26800
O 	O 	0.83230 0.63870 0.54620 -0.68200
C 	C 	0.64300 0.73710 0.45660 0.07200
N 	N 	0.68720 0.77860 0.37470 -0.19600
C 	C 	0.72830 0.82850 0.30090 0.06600
H 	H 	0.75230 0.46540 0.61160 0.10700
C 	C 	0.64130 0.49960 0.61760 0.08900
H 	H 	0.53560 0.53870 0.60360 0.10400
H 	H 	0.43180 0.57230 0.54050 0.07700
C 	C 	0.40790 0.61770 0.47560 0.02000
H 	H 	0.41220 0.66060 0.40680 0.07700
Dy	Dy	0.94230 0.66927 0.61824 0.96300
C 	C 	0.64870 0.70230 0.49700 -0.10800
N 	N 	0.58470 0.76970 0.45760 -0.18600
C 	C 	0.77990 0.84210 0.25880 -0.08500
N 	N 	0.66890 0.85640 0.31740 -0.18900
C 	C 	0.63080 0.48390 0.67810 0.02200
H 	H 	0.35340 0.62620 0.48460 0.03800
C 	C 	0.59420 0.70160 0.54090 0.02100
H 	H 	0.68890 0.67930 0.49490 0.08300
C 	C 	0.53050 0.76830 0.49990 -0.01500
O 	O 	0.47780 0.83790 0.46090 -0.40000
O 	O 	0.54640 0.90700 0.35280 -0.44500
H 	H 	0.82290 0.82290 0.24840 0.07000
C 	C 	0.76830 0.88390 0.23210 0.00700
C 	C 	0.65910 0.89720 0.29300 -0.03900
C 	C 	0.64380 0.43890 0.69330 -0.11600
C 	C 	0.61240 0.51370 0.72330 -0.06200
C 	C 	0.53450 0.73440 0.54080 -0.06500
H 	H 	0.59880 0.67910 0.56970 0.02900
C 	C 	0.46730 0.80740 0.49650 0.34800
C 	C 	0.58820 0.92540 0.31550 0.41700
H 	H 	0.80020 0.89250 0.20200 0.03100
C 	C 	0.70750 0.91230 0.25170 -0.03200
H 	H 	0.65400 0.41800 0.66450 0.08700
C 	C 	0.64150 0.42520 0.75230 0.08100
H 	H 	0.60080 0.54380 0.71500 0.07800
C 	C 	0.61200 0.49700 0.78050 -0.02800
H 	H 	0.49560 0.73390 0.56870 0.06800
O 	O 	0.41350 0.80810 0.52990 -0.25400
H 	H 	0.70010 0.94140 0.23670 0.05100
H 	H 	0.64980 0.39500 0.76200 0.01800
C 	C 	0.60030 0.52780 0.83280 0.39500
O 	O 	0.57230 0.56600 0.82360 -0.51500
O 	O 	0.98890 0.69340 0.72690 0.05100
O 	O 	0.09510 0.65840 0.64460 -0.23700
Dy	Dy	0.58210 0.84210 0.39430 0.66900
O 	O 	0.51510 0.78960 0.30770 -0.27400
H 	H 	0.60480 0.58390 0.84320 0.28000
N 	N 	0.56430 0.09690 0.20860 -0.20800
O 	O 	0.61240 0.05737 0.31330 -0.44100
O 	O 	0.57840 0.00645 0.17030 -0.46000
O 	O 	0.92210 0.46400 0.20590 -0.43300
C 	C 	0.62500 0.11780 0.24660 0.00500
C 	C 	0.54760 0.11380 0.15330 0.10700
C 	C 	0.64600 0.09640 0.30820 0.31400
C 	C 	0.63610 0.01570 0.13940 0.40800
C 	C 	0.66920 0.15560 0.23100 -0.08600
C 	C 	0.58920 0.15050 0.13310 -0.13500
H 	H 	0.50510 0.09970 0.12680 -0.00500
O 	O 	0.69250 0.11660 0.34780 -0.25200
C 	C 	0.63390 0.99220 0.07960 -0.04100
O 	O 	0.69890 0.04270 0.15330 -0.47300
C 	C 	0.65280 0.17190 0.17330 0.04500
H 	H 	0.70940 0.16990 0.25900 0.08100
H 	H 	0.57570 0.16070 0.09410 0.08400
C 	C 	0.57190 0.96120 0.05990 -0.04400
N 	N 	0.69990 0.00410 0.04880 -0.20500
Dy	Dy	0.80967 0.05769 0.09666 1.80100
C 	C 	0.70280 0.21090 0.15400 0.07200
H 	H 	0.52860 0.95300 0.08260 0.07400
C 	C 	0.57670 0.94250 0.00430 0.01400
C 	C 	0.70480 0.98560 0.99540 0.06000
N 	N 	0.83650 0.02740 0.99590 -0.21800
N 	N 	0.93430 0.08980 0.05300 -0.23600
O 	O 	0.85730 0.12632 0.13670 -0.42300
O 	O 	0.72350 0.10390 0.03370 -0.64100
N 	N 	0.87230 0.95450 0.70470 -0.19800
O 	O 	0.88030 0.00944 0.61470 -0.47600
C 	C 	0.74670 0.20730 0.10460 -0.13000
C 	C 	0.71100 0.25060 0.18690 -0.13200
H 	H 	0.53570 0.92120 0.98930 0.04200
C 	C 	0.64010 0.95450 0.97140 -0.09700
C 	C 	0.77780 0.99950 0.96550 0.08100
C 	C 	0.90560 0.04080 0.97050 0.07200
C 	C 	0.96470 0.07230 0.00580 0.11900
C 	C 	0.98100 0.12300 0.08390 0.07100
C 	C 	0.93030 0.14360 0.13180 0.29200
C 	C 	0.67310 0.10940 0.98860 0.87900
C 	C 	0.80200 0.24090 0.09190 0.09200
H 	H 	0.73880 0.18210 0.08020 0.09200
H 	H 	0.68090 0.25470 0.21940 0.08300
C 	C 	0.76560 0.28410 0.16990 0.08600
H 	H 	0.64100 0.94260 0.93350 0.08600
C 	C 	0.78810 0.98490 0.90870 -0.15100
C 	C 	0.91710 0.02800 0.91360 -0.14700
C 	C 	0.04590 0.08550 0.99150 -0.20700
C 	C 	0.05810 0.13770 0.07120 -0.18700
O 	O 	0.96530 0.17520 0.16160 -0.21000
H 	H 	0.63220 0.08660 0.98030 -0.27300
O 	O 	0.66770 0.13870 0.95380 -0.67800
C 	C 	0.85700 0.23710 0.04340 0.05800
N 	N 	0.81280 0.27860 0.12530 -0.19800
C 	C 	0.77170 0.32850 0.19910 0.06600
H 	H 	0.74770 0.96540 0.88840 0.10600
C 	C 	0.85870 0.99960 0.88240 0.08600
H 	H 	0.96440 0.03870 0.89640 0.11100
H 	H 	0.06820 0.07230 0.95950 0.10500
C 	C 	0.09210 0.11770 0.02440 0.10700
H 	H 	0.08780 0.16060 0.09320 0.10800
Dy	Dy	0.55770 0.16927 0.88176 0.95700
C 	C 	0.85130 0.20230 0.00300 -0.07600
N 	N 	0.91530 0.26970 0.04240 -0.17900
C 	C 	0.72010 0.34210 0.24120 -0.08600
N 	N 	0.83110 0.35640 0.18260 -0.19100
C 	C 	0.86920 0.98390 0.82190 0.02800
H 	H 	0.14660 0.12620 0.01540 0.00500
C 	C 	0.90580 0.20160 0.95910 -0.03600
H 	H 	0.81110 0.17930 0.00510 0.07100
C 	C 	0.96950 0.26830 0.00010 -0.02200
O 	O 	0.02220 0.33790 0.03910 -0.41500
O 	O 	0.95360 0.40700 0.14720 -0.43200
H 	H 	0.67710 0.32290 0.25160 0.06600
C 	C 	0.73170 0.38390 0.26790 0.00800
C 	C 	0.84090 0.39720 0.20700 -0.03400
C 	C 	0.85620 0.93890 0.80670 -0.11500
C 	C 	0.88760 0.01370 0.77670 -0.06100
C 	C 	0.96550 0.23440 0.95920 0.03300
H 	H 	0.90120 0.17910 0.93030 0.05600
C 	C 	0.03270 0.30740 0.00350 0.32800
C 	C 	0.91180 0.42540 0.18450 0.41300
H 	H 	0.69980 0.39250 0.29800 0.03000
C 	C 	0.79250 0.41230 0.24830 -0.03300
H 	H 	0.84600 0.91800 0.83550 0.09000
C 	C 	0.85850 0.92520 0.74770 0.08500
H 	H 	0.89920 0.04380 0.78500 0.08300
C 	C 	0.88800 0.99700 0.71950 -0.02200
H 	H 	0.00440 0.23390 0.93130 0.01000
O 	O 	0.08650 0.30810 0.97010 -0.25500
H 	H 	0.79990 0.44140 0.26330 0.05300
H 	H 	0.85020 0.89500 0.73800 0.02000
C 	C 	0.89970 0.02780 0.66720 0.39600
O 	O 	0.92770 0.06600 0.67640 -0.50200
O 	O 	0.51110 0.19340 0.77310 -0.00700
O 	O 	0.40490 0.15840 0.85540 -0.22200
Dy	Dy	0.91790 0.34210 0.10570 0.69900
O 	O 	0.98490 0.28960 0.19230 -0.28800
H 	H 	0.89520 0.08390 0.65680 0.27900
N 	N 	0.06430 0.59690 0.20860 -0.20900
O 	O 	0.11240 0.55737 0.31330 -0.43900
O 	O 	0.07840 0.50645 0.17030 -0.46000
O 	O 	0.42210 0.96400 0.20590 -0.45600
C 	C 	0.12500 0.61780 0.24660 0.00200
C 	C 	0.04760 0.61380 0.15330 0.10300
C 	C 	0.14600 0.59640 0.30820 0.31000
C 	C 	0.13610 0.51570 0.13940 0.40700
C 	C 	0.16920 0.65560 0.23100 -0.08700
C 	C 	0.08920 0.65050 0.13310 -0.13700
H 	H 	0.00510 0.59970 0.12680 -0.01500
O 	O 	0.19250 0.61660 0.34780 -0.25500
C 	C 	0.13390 0.49220 0.07960 -0.04700
O 	O 	0.19890 0.54270 0.15330 -0.47100
C 	C 	0.15280 0.67190 0.17330 0.04300
H 	H 	0.20940 0.66990 0.25900 0.07900
H 	H 	0.07570 0.66070 0.09410 0.07800
C 	C 	0.07190 0.46120 0.05990 -0.04200
N 	N 	0.19990 0.50410 0.04880 -0.20300
Dy	Dy	0.30967 0.55769 0.09666 1.79800
C 	C 	0.20280 0.71090 0.15400 0.06800
H 	H 	0.02860 0.45300 0.08260 0.06100
C 	C 	0.07670 0.44250 0.00430 0.00500
C 	C 	0.20480 0.48560 0.99540 0.05600
N 	N 	0.33650 0.52740 0.99590 -0.22300
N 	N 	0.43430 0.58980 0.05300 -0.21500
O 	O 	0.35730 0.62632 0.13670 -0.43000
O 	O 	0.22350 0.60390 0.03370 -0.63900
N 	N 	0.37230 0.45450 0.70470 -0.19800
O 	O 	0.38030 0.50944 0.61470 -0.48200
C 	C 	0.24670 0.70730 0.10460 -0.12500
C 	C 	0.21100 0.75060 0.18690 -0.13200
H 	H 	0.03570 0.42120 0.98930 0.03500
C 	C 	0.14010 0.45450 0.97140 -0.09500
C 	C 	0.27780 0.49950 0.96550 0.08400
C 	C 	0.40560 0.54080 0.97050 0.08800
C 	C 	0.46470 0.57230 0.00580 0.05100
C 	C 	0.48100 0.62300 0.08390 -0.00500
C 	C 	0.43030 0.64360 0.13180 0.31400
C 	C 	0.17310 0.60940 0.98860 0.87100
C 	C 	0.30200 0.74090 0.09190 0.08500
H 	H 	0.23880 0.68210 0.08020 0.09100
H 	H 	0.18090 0.75470 0.21940 0.07900
C 	C 	0.26560 0.78410 0.16990 0.08500
H 	H 	0.14100 0.44260 0.93350 0.08100
C 	C 	0.28810 0.48490 0.90870 -0.15700
C 	C 	0.41710 0.52800 0.91360 -0.16400
C 	C 	0.54590 0.58550 0.99150 -0.09700
C 	C 	0.55810 0.63770 0.07120 -0.06800
O 	O 	0.46530 0.67520 0.16160 -0.22900
H 	H 	0.13220 0.58660 0.98030 -0.27700
O 	O 	0.16770 0.63870 0.95380 -0.67300
C 	C 	0.35700 0.73710 0.04340 0.07300
N 	N 	0.31280 0.77860 0.12530 -0.19600
C 	C 	0.27170 0.82850 0.19910 0.06400
H 	H 	0.24770 0.46540 0.88840 0.10700
C 	C 	0.35870 0.49960 0.88240 0.09100
H 	H 	0.46440 0.53870 0.89640 0.10500
H 	H 	0.56820 0.57230 0.95950 0.07400
C 	C 	0.59210 0.61770 0.02440 0.01100
H 	H 	0.58780 0.66060 0.09320 0.07600
Dy	Dy	0.05770 0.66927 0.88176 0.94900
C 	C 	0.35130 0.70230 0.00300 -0.11100
N 	N 	0.41530 0.76970 0.04240 -0.18600
C 	C 	0.22010 0.84210 0.24120 -0.08500
N 	N 	0.33110 0.85640 0.18260 -0.18900
C 	C 	0.36920 0.48390 0.82190 0.02100
H 	H 	0.64660 0.62620 0.01540 0.04200
C 	C 	0.40580 0.70160 0.95910 0.02300
H 	H 	0.31110 0.67930 0.00510 0.08400
C 	C 	0.46950 0.76830 0.00010 -0.01500
O 	O 	0.52220 0.83790 0.03910 -0.39900
O 	O 	0.45360 0.90700 0.14720 -0.44500
H 	H 	0.17710 0.82290 0.25160 0.06200
C 	C 	0.23170 0.88390 0.26790 0.00300
C 	C 	0.34090 0.89720 0.20700 -0.04000
C 	C 	0.35620 0.43890 0.80670 -0.11500
C 	C 	0.38760 0.51370 0.77670 -0.06200
C 	C 	0.46550 0.73440 0.95920 -0.06500
H 	H 	0.40120 0.67910 0.93030 0.02900
C 	C 	0.53270 0.80740 0.00350 0.34600
C 	C 	0.41180 0.92540 0.18450 0.41700
H 	H 	0.19980 0.89250 0.29800 0.03000
C 	C 	0.29250 0.91230 0.24830 -0.03000
H 	H 	0.34600 0.41800 0.83550 0.08700
C 	C 	0.35850 0.42520 0.74770 0.08100
H 	H 	0.39920 0.54380 0.78500 0.07800
C 	C 	0.38800 0.49700 0.71950 -0.02800
H 	H 	0.50440 0.73390 0.93130 0.06800
O 	O 	0.58650 0.80810 0.97010 -0.25100
H 	H 	0.29990 0.94140 0.26330 0.05100
H 	H 	0.35020 0.39500 0.73800 0.01800
C 	C 	0.39970 0.52780 0.66720 0.39500
O 	O 	0.42770 0.56600 0.67640 -0.51500
O 	O 	0.01110 0.69340 0.77310 -0.06500
O 	O 	0.90490 0.65840 0.85540 -0.20600
Dy	Dy	0.41790 0.84210 0.10570 0.66900
O 	O 	0.48490 0.78960 0.19230 -0.27400
H 	H 	0.39520 0.58390 0.65680 0.27900
N 	N 	0.56430 0.90310 0.70860 -0.20800
O 	O 	0.61240 0.94263 0.81330 -0.44100
O 	O 	0.57840 0.99355 0.67030 -0.46000
O 	O 	0.92210 0.53600 0.70590 -0.43300
C 	C 	0.62500 0.88220 0.74660 0.00500
C 	C 	0.54760 0.88620 0.65330 0.10700
C 	C 	0.64600 0.90360 0.80820 0.31400
C 	C 	0.63610 0.98430 0.63940 0.40900
C 	C 	0.66920 0.84440 0.73100 -0.08600
C 	C 	0.58920 0.84950 0.63310 -0.13500
H 	H 	0.50510 0.90030 0.62680 -0.00500
O 	O 	0.69250 0.88340 0.84780 -0.25200
C 	C 	0.63390 0.00780 0.57960 -0.04100
O 	O 	0.69890 0.95730 0.65330 -0.47300
C 	C 	0.65280 0.82810 0.67330 0.04500
H 	H 	0.70940 0.83010 0.75900 0.08100
H 	H 	0.57570 0.83930 0.59410 0.08400
C 	C 	0.57190 0.03880 0.55990 -0.04600
N 	N 	0.69990 0.99590 0.54880 -0.20400
Dy	Dy	0.80967 0.94231 0.59666 1.80300
C 	C 	0.70280 0.78910 0.65400 0.07200
H 	H 	0.52860 0.04700 0.58260 0.07400
C 	C 	0.57670 0.05750 0.50430 0.01800
C 	C 	0.70480 0.01440 0.49540 0.05900
N 	N 	0.83650 0.97260 0.49590 -0.21800
N 	N 	0.93430 0.91020 0.55300 -0.23900
O 	O 	0.85730 0.87368 0.63670 -0.42300
O 	O 	0.72350 0.89610 0.53370 -0.63800
N 	N 	0.87230 0.04550 0.20470 -0.19800
O 	O 	0.88030 0.99056 0.11470 -0.47600
C 	C 	0.74670 0.79270 0.60460 -0.13000
C 	C 	0.71100 0.74940 0.68690 -0.13200
H 	H 	0.53570 0.07880 0.48930 0.04000
C 	C 	0.64010 0.04550 0.47140 -0.09900
C 	C 	0.77780 0.00050 0.46550 0.08200
C 	C 	0.90560 0.95920 0.47050 0.06500
C 	C 	0.96470 0.92770 0.50580 0.13100
C 	C 	0.98100 0.87700 0.58390 0.07700
C 	C 	0.93030 0.85640 0.63180 0.29100
C 	C 	0.67310 0.89060 0.48860 0.87300
C 	C 	0.80200 0.75910 0.59190 0.09300
H 	H 	0.73880 0.81790 0.58020 0.09300
H 	H 	0.68090 0.74530 0.71940 0.08300
C 	C 	0.76560 0.71590 0.66990 0.08700
H 	H 	0.64100 0.05740 0.43350 0.08700
C 	C 	0.78810 0.01510 0.40870 -0.15100
C 	C 	0.91710 0.97200 0.41360 -0.14500
C 	C 	0.04590 0.91450 0.49150 -0.22400
C 	C 	0.05810 0.86230 0.57120 -0.19700
O 	O 	0.96530 0.82480 0.66160 -0.20900
H 	H 	0.63220 0.91340 0.48030 -0.27200
O 	O 	0.66770 0.86130 0.45380 -0.67700
C 	C 	0.85700 0.76290 0.54340 0.05700
N 	N 	0.81280 0.72140 0.62530 -0.19800
C 	C 	0.77170 0.67150 0.69910 0.06600
H 	H 	0.74770 0.03460 0.38840 0.10500
C 	C 	0.85870 0.00040 0.38240 0.08500
H 	H 	0.96440 0.96130 0.39640 0.10900
H 	H 	0.06820 0.92770 0.45950 0.11000
C 	C 	0.09210 0.88230 0.52440 0.12100
H 	H 	0.08780 0.83940 0.59320 0.11100
Dy	Dy	0.55770 0.83073 0.38176 0.95600
C 	C 	0.85130 0.79770 0.50300 -0.07100
N 	N 	0.91530 0.73030 0.54240 -0.17900
C 	C 	0.72010 0.65790 0.74120 -0.08600
N 	N 	0.83110 0.64360 0.68260 -0.19100
C 	C 	0.86920 0.01610 0.32190 0.02800
H 	H 	0.14660 0.87380 0.51540 0.00100
C 	C 	0.90580 0.79840 0.45910 -0.03900
H 	H 	0.81110 0.82070 0.50510 0.07000
C 	C 	0.96950 0.73170 0.50010 -0.01900
O 	O 	0.02220 0.66210 0.53910 -0.41500
O 	O 	0.95360 0.59300 0.64720 -0.43200
H 	H 	0.67710 0.67710 0.75160 0.06600
C 	C 	0.73170 0.61610 0.76790 0.00800
C 	C 	0.84090 0.60280 0.70700 -0.03400
C 	C 	0.85620 0.06110 0.30670 -0.11500
C 	C 	0.88760 0.98630 0.27670 -0.06100
C 	C 	0.96550 0.76560 0.45920 0.03000
H 	H 	0.90120 0.82090 0.43030 0.05700
C 	C 	0.03270 0.69260 0.50350 0.32900
C 	C 	0.91180 0.57460 0.68450 0.41300
H 	H 	0.69980 0.60750 0.79800 0.03000
C 	C 	0.79250 0.58770 0.74830 -0.03300
H 	H 	0.84600 0.08200 0.33550 0.09000
C 	C 	0.85850 0.07480 0.24770 0.08500
H 	H 	0.89920 0.95620 0.28500 0.08300
C 	C 	0.88800 0.00300 0.21950 -0.02200
H 	H 	0.00440 0.76610 0.43130 0.01100
O 	O 	0.08650 0.69190 0.47010 -0.25700
H 	H 	0.79990 0.55860 0.76330 0.05300
H 	H 	0.85020 0.10500 0.23800 0.02000
C 	C 	0.89970 0.97220 0.16720 0.39700
O 	O 	0.92770 0.93400 0.17640 -0.50200
O 	O 	0.51110 0.80660 0.27310 -0.00700
O 	O 	0.40490 0.84160 0.35540 -0.22200
Dy	Dy	0.91790 0.65790 0.60570 0.69900
O 	O 	0.98490 0.71040 0.69230 -0.28800
H 	H 	0.89520 0.91610 0.15680 0.27900
N 	N 	0.06430 0.40310 0.70860 -0.20900
O 	O 	0.11240 0.44263 0.81330 -0.43900
O 	O 	0.07840 0.49355 0.67030 -0.45900
O 	O 	0.42210 0.03600 0.70590 -0.45600
C 	C 	0.12500 0.38220 0.74660 0.00200
C 	C 	0.04760 0.38620 0.65330 0.10300
C 	C 	0.14600 0.40360 0.80820 0.31000
C 	C 	0.13610 0.48430 0.63940 0.40700
C 	C 	0.16920 0.34440 0.73100 -0.08700
C 	C 	0.08920 0.34950 0.63310 -0.13700
H 	H 	0.00510 0.40030 0.62680 -0.01600
O 	O 	0.19250 0.38340 0.84780 -0.25500
C 	C 	0.13390 0.50780 0.57960 -0.04500
O 	O 	0.19890 0.45730 0.65330 -0.47100
C 	C 	0.15280 0.32810 0.67330 0.04300
H 	H 	0.20940 0.33010 0.75900 0.07900
H 	H 	0.07570 0.33930 0.59410 0.07800
C 	C 	0.07190 0.53880 0.55990 -0.04600
N 	N 	0.19990 0.49590 0.54880 -0.20300
Dy	Dy	0.30967 0.44231 0.59666 1.79800
C 	C 	0.20280 0.28910 0.65400 0.06800
H 	H 	0.02860 0.54700 0.58260 0.06300
C 	C 	0.07670 0.55750 0.50430 0.01300
C 	C 	0.20480 0.51440 0.49540 0.05700
N 	N 	0.33650 0.47260 0.49590 -0.22300
N 	N 	0.43430 0.41020 0.55300 -0.21700
O 	O 	0.35730 0.37368 0.63670 -0.43000
O 	O 	0.22350 0.39610 0.53370 -0.63700
N 	N 	0.37230 0.54550 0.20470 -0.19800
O 	O 	0.38030 0.49056 0.11470 -0.48300
C 	C 	0.24670 0.29270 0.60460 -0.12500
C 	C 	0.21100 0.24940 0.68690 -0.13200
H 	H 	0.03570 0.57880 0.48930 0.03200
C 	C 	0.14010 0.54550 0.47140 -0.10000
C 	C 	0.27780 0.50050 0.46550 0.08300
C 	C 	0.40560 0.45920 0.47050 0.08500
C 	C 	0.46470 0.42770 0.50580 0.05700
C 	C 	0.48100 0.37700 0.58390 -0.00300
C 	C 	0.43030 0.35640 0.63180 0.31300
C 	C 	0.17310 0.39060 0.48860 0.86900
C 	C 	0.30200 0.25910 0.59190 0.08600
H 	H 	0.23880 0.31790 0.58020 0.09100
H 	H 	0.18090 0.24530 0.71940 0.07900
C 	C 	0.26560 0.21590 0.66990 0.08500
H 	H 	0.14100 0.55740 0.43350 0.08300
C 	C 	0.28810 0.51510 0.40870 -0.15600
C 	C 	0.41710 0.47200 0.41360 -0.16100
C 	C 	0.54590 0.41450 0.49150 -0.10600
C 	C 	0.55810 0.36230 0.57120 -0.07300
O 	O 	0.46530 0.32480 0.66160 -0.22900
H 	H 	0.13220 0.41340 0.48030 -0.27600
O 	O 	0.16770 0.36130 0.45380 -0.67300
C 	C 	0.35700 0.26290 0.54340 0.07200
N 	N 	0.31280 0.22140 0.62530 -0.19600
C 	C 	0.27170 0.17150 0.69910 0.06400
H 	H 	0.24770 0.53460 0.38840 0.10700
C 	C 	0.35870 0.50040 0.38240 0.08900
H 	H 	0.46440 0.46130 0.39640 0.10400
H 	H 	0.56820 0.42770 0.45950 0.07700
C 	C 	0.59210 0.38230 0.52440 0.01900
H 	H 	0.58780 0.33940 0.59320 0.07800
Dy	Dy	0.05770 0.33073 0.38176 0.94900
C 	C 	0.35130 0.29770 0.50300 -0.10800
N 	N 	0.41530 0.23030 0.54240 -0.18600
C 	C 	0.22010 0.15790 0.74120 -0.08500
N 	N 	0.33110 0.14360 0.68260 -0.18900
C 	C 	0.36920 0.51610 0.32190 0.02200
H 	H 	0.64660 0.37380 0.51540 0.03900
C 	C 	0.40580 0.29840 0.45910 0.02200
H 	H 	0.31110 0.32070 0.50510 0.08300
C 	C 	0.46950 0.23170 0.50010 -0.01500
O 	O 	0.52220 0.16210 0.53910 -0.40000
O 	O 	0.45360 0.09300 0.64720 -0.44500
H 	H 	0.17710 0.17710 0.75160 0.06200
C 	C 	0.23170 0.11610 0.76790 0.00300
C 	C 	0.34090 0.10280 0.70700 -0.04000
C 	C 	0.35620 0.56110 0.30670 -0.11600
C 	C 	0.38760 0.48630 0.27670 -0.06200
C 	C 	0.46550 0.26560 0.45920 -0.06600
H 	H 	0.40120 0.32090 0.43030 0.02900
C 	C 	0.53270 0.19260 0.50350 0.34800
C 	C 	0.41180 0.07460 0.68450 0.41700
H 	H 	0.19980 0.10750 0.79800 0.03000
C 	C 	0.29250 0.08770 0.74830 -0.03100
H 	H 	0.34600 0.58200 0.33550 0.08700
C 	C 	0.35850 0.57480 0.24770 0.08100
H 	H 	0.39920 0.45620 0.28500 0.07800
C 	C 	0.38800 0.50300 0.21950 -0.02800
H 	H 	0.50440 0.26610 0.43130 0.06800
O 	O 	0.58650 0.19190 0.47010 -0.25200
H 	H 	0.29990 0.05860 0.76330 0.05100
H 	H 	0.35020 0.60500 0.23800 0.01800
C 	C 	0.39970 0.47220 0.16720 0.39500
O 	O 	0.42770 0.43400 0.17640 -0.51500
O 	O 	0.01110 0.30660 0.27310 -0.06400
O 	O 	0.90490 0.34160 0.35540 -0.20600
Dy	Dy	0.41790 0.15790 0.60570 0.66900
O 	O 	0.48490 0.21040 0.69230 -0.27400
H 	H 	0.39520 0.41610 0.15680 0.27900
N 	N 	0.43570 0.90310 0.79140 -0.20800
O 	O 	0.38760 0.94263 0.68670 -0.44100
O 	O 	0.42160 0.99355 0.82970 -0.45900
O 	O 	0.07790 0.53600 0.79410 -0.45600
C 	C 	0.37500 0.88220 0.75340 0.00400
C 	C 	0.45240 0.88620 0.84670 0.10700
C 	C 	0.35400 0.90360 0.69180 0.31500
C 	C 	0.36390 0.98430 0.86060 0.40600
C 	C 	0.33080 0.84440 0.76900 -0.08600
C 	C 	0.41080 0.84950 0.86690 -0.13500
H 	H 	0.49490 0.90030 0.87320 -0.00500
O 	O 	0.30750 0.88340 0.65220 -0.25400
C 	C 	0.36610 0.00780 0.92040 -0.03600
O 	O 	0.30110 0.95730 0.84670 -0.47100
C 	C 	0.34720 0.82810 0.82670 0.04500
H 	H 	0.29060 0.83010 0.74100 0.07800
H 	H 	0.42430 0.83930 0.90590 0.08500
C 	C 	0.42810 0.03880 0.94010 -0.05500
N 	N 	0.30010 0.99590 0.95120 -0.20400
Dy	Dy	0.19033 0.94231 0.90334 1.79500
C 	C 	0.29720 0.78910 0.84600 0.06800
H 	H 	0.47140 0.04700 0.91740 0.07800
C 	C 	0.42330 0.05750 0.99570 0.03500
C 	C 	0.29520 0.01440 0.00460 0.06100
N 	N 	0.16350 0.97260 0.00410 -0.22600
N 	N 	0.06570 0.91020 0.94700 -0.19500
O 	O 	0.14270 0.87368 0.86330 -0.43700
O 	O 	0.27650 0.89610 0.96630 -0.63600
N 	N 	0.12770 0.04550 0.29530 -0.19900
O 	O 	0.11970 0.99056 0.38530 -0.48900
C 	C 	0.25330 0.79270 0.89540 -0.12200
C 	C 	0.28900 0.74940 0.81310 -0.13100
H 	H 	0.46430 0.07880 0.01070 0.03300
C 	C 	0.35990 0.04550 0.02860 -0.11100
C 	C 	0.22220 0.00050 0.03450 0.08100
C 	C 	0.09440 0.95920 0.02950 0.10100
C 	C 	0.03530 0.92770 0.99420 -0.01200
C 	C 	0.01900 0.87700 0.91610 -0.08100
C 	C 	0.06970 0.85640 0.86820 0.33500
C 	C 	0.32690 0.89060 0.01140 0.87100
C 	C 	0.19800 0.75910 0.90810 0.08000
H 	H 	0.26120 0.81790 0.91980 0.09000
H 	H 	0.31910 0.74530 0.78060 0.08100
C 	C 	0.23440 0.71590 0.83010 0.08400
H 	H 	0.35900 0.05740 0.06650 0.09000
C 	C 	0.21190 0.01510 0.09130 -0.15800
C 	C 	0.08290 0.97200 0.08640 -0.17500
C 	C 	0.95410 0.91450 0.00850 0.00300
C 	C 	0.94190 0.86230 0.92880 0.04700
O 	O 	0.03470 0.82480 0.83840 -0.24900
H 	H 	0.36780 0.91340 0.01970 -0.27200
O 	O 	0.33230 0.86130 0.04620 -0.67700
C 	C 	0.14300 0.76290 0.95660 0.08600
N 	N 	0.18720 0.72140 0.87470 -0.19400
C 	C 	0.22830 0.67150 0.80090 0.06400
H 	H 	0.25230 0.03460 0.11160 0.10800
C 	C 	0.14130 0.00040 0.11760 0.09100
H 	H 	0.03560 0.96130 0.10360 0.09700
H 	H 	0.93180 0.92770 0.04050 0.04700
C 	C 	0.90790 0.88230 0.97560 -0.07600
H 	H 	0.91220 0.83940 0.90680 0.04500
Dy	Dy	0.44230 0.83073 0.11824 0.95600
C 	C 	0.14870 0.79770 0.99700 -0.14300
N 	N 	0.08470 0.73030 0.95760 -0.19300
C 	C 	0.27990 0.65790 0.75880 -0.08600
N 	N 	0.16890 0.64360 0.81740 -0.18700
C 	C 	0.13080 0.01610 0.17810 0.01400
H 	H 	0.85340 0.87380 0.98460 0.07500
C 	C 	0.09420 0.79840 0.04090 0.07800
H 	H 	0.18890 0.82070 0.99490 0.09500
C 	C 	0.03050 0.73170 0.99990 -0.01200
O 	O 	0.97780 0.66210 0.96090 -0.38500
O 	O 	0.04640 0.59300 0.85280 -0.45500
H 	H 	0.32290 0.67710 0.74840 0.06600
C 	C 	0.26830 0.61610 0.73210 0.00600
C 	C 	0.15910 0.60280 0.79300 -0.04000
C 	C 	0.14380 0.06110 0.19330 -0.11600
C 	C 	0.11240 0.98630 0.22330 -0.05900
C 	C 	0.03450 0.76560 0.04080 -0.15800
H 	H 	0.09880 0.82090 0.06970 0.00200
C 	C 	0.96730 0.69260 0.99650 0.37000
C 	C 	0.08820 0.57460 0.81550 0.41300
H 	H 	0.30020 0.60750 0.70200 0.03000
C 	C 	0.20750 0.58770 0.75170 -0.03300
H 	H 	0.15400 0.08200 0.16450 0.08400
C 	C 	0.14150 0.07480 0.25230 0.07500
H 	H 	0.10080 0.95620 0.21500 0.07100
C 	C 	0.11200 0.00300 0.28050 -0.03700
H 	H 	0.99560 0.76610 0.06870 0.12400
O 	O 	0.91350 0.69190 0.02990 -0.25100
H 	H 	0.20010 0.55860 0.73670 0.05100
H 	H 	0.14980 0.10500 0.26200 0.01700
C 	C 	0.10030 0.97220 0.33280 0.39500
O 	O 	0.07230 0.93400 0.32360 -0.52800
O 	O 	0.48890 0.80660 0.22690 -0.00700
O 	O 	0.59510 0.84160 0.14460 -0.22100
Dy	Dy	0.08210 0.65790 0.89430 0.63800
O 	O 	0.01510 0.71040 0.80770 -0.26000
H 	H 	0.10480 0.91610 0.34320 0.28000
N 	N 	0.93570 0.40310 0.79140 -0.19600
O 	O 	0.88760 0.44263 0.68670 -0.42100
O 	O 	0.92160 0.49355 0.82970 -0.43700
O 	O 	0.57790 0.03600 0.79410 -0.45600
C 	C 	0.87500 0.38220 0.75340 0.01100
C 	C 	0.95240 0.38620 0.84670 0.10900
C 	C 	0.85400 0.40360 0.69180 0.31400
C 	C 	0.86390 0.48430 0.86060 0.40200
C 	C 	0.83080 0.34440 0.76900 -0.08600
C 	C 	0.91080 0.34950 0.86690 -0.13100
H 	H 	0.99490 0.40030 0.87320 0.00900
O 	O 	0.80750 0.38340 0.65220 -0.24900
C 	C 	0.86610 0.50780 0.92040 -0.03000
O 	O 	0.80110 0.45730 0.84670 -0.46900
C 	C 	0.84720 0.32810 0.82670 0.04700
H 	H 	0.79060 0.33010 0.74100 0.08100
H 	H 	0.92430 0.33930 0.90590 0.09100
C 	C 	0.92810 0.53880 0.94010 -0.05400
N 	N 	0.80010 0.49590 0.95120 -0.20400
Dy	Dy	0.69033 0.44231 0.90334 1.80100
C 	C 	0.79720 0.28910 0.84600 0.07200
H 	H 	0.97140 0.54700 0.91740 0.09000
C 	C 	0.92330 0.55750 0.99570 0.03800
C 	C 	0.79520 0.51440 0.00460 0.06200
N 	N 	0.66350 0.47260 0.00410 -0.22300
N 	N 	0.56570 0.41020 0.94700 -0.21800
O 	O 	0.64270 0.37368 0.86330 -0.43000
O 	O 	0.77650 0.39610 0.96630 -0.63500
N 	N 	0.62770 0.54550 0.29530 -0.19900
O 	O 	0.61970 0.49056 0.38530 -0.48300
C 	C 	0.75330 0.29270 0.89540 -0.12700
C 	C 	0.78900 0.24940 0.81310 -0.13200
H 	H 	0.96430 0.57880 0.01070 0.04300
C 	C 	0.85990 0.54550 0.02860 -0.10700
C 	C 	0.72220 0.50050 0.03450 0.08100
C 	C 	0.59440 0.45920 0.02950 0.08000
C 	C 	0.53530 0.42770 0.99420 0.06500
C 	C 	0.51900 0.37700 0.91610 -0.00100
C 	C 	0.56970 0.35640 0.86820 0.31200
C 	C 	0.82690 0.39060 0.01140 0.87200
C 	C 	0.69800 0.25910 0.90810 0.08700
H 	H 	0.76120 0.31790 0.91980 0.09200
H 	H 	0.81910 0.24530 0.78060 0.08500
C 	C 	0.73440 0.21590 0.83010 0.08600
H 	H 	0.85900 0.55740 0.06650 0.09400
C 	C 	0.71190 0.51510 0.09130 -0.15400
C 	C 	0.58290 0.47200 0.08640 -0.15800
C 	C 	0.45410 0.41450 0.00850 -0.11800
C 	C 	0.44190 0.36230 0.92880 -0.07900
O 	O 	0.53470 0.32480 0.83840 -0.22900
H 	H 	0.86780 0.41340 0.01970 -0.26700
O 	O 	0.83230 0.36130 0.04620 -0.68100
C 	C 	0.64300 0.26290 0.95660 0.07100
N 	N 	0.68720 0.22140 0.87470 -0.19600
C 	C 	0.72830 0.17150 0.80090 0.06600
H 	H 	0.75230 0.53460 0.11160 0.10700
C 	C 	0.64130 0.50040 0.11760 0.08700
H 	H 	0.53560 0.46130 0.10360 0.10200
H 	H 	0.43180 0.42770 0.04050 0.08100
C 	C 	0.40790 0.38230 0.97560 0.02900
H 	H 	0.41220 0.33940 0.90680 0.07900
Dy	Dy	0.94230 0.33073 0.11824 0.96200
C 	C 	0.64870 0.29770 0.99700 -0.10400
N 	N 	0.58470 0.23030 0.95760 -0.18600
C 	C 	0.77990 0.15790 0.75880 -0.08500
N 	N 	0.66890 0.14360 0.81740 -0.18900
C 	C 	0.63080 0.51610 0.17810 0.02300
H 	H 	0.35340 0.37380 0.98460 0.03500
C 	C 	0.59420 0.29840 0.04090 0.01700
H 	H 	0.68890 0.32070 0.99490 0.08200
C 	C 	0.53050 0.23170 0.99990 -0.01400
O 	O 	0.47780 0.16210 0.96090 -0.40000
O 	O 	0.54640 0.09300 0.85280 -0.44500
H 	H 	0.82290 0.17710 0.74840 0.07000
C 	C 	0.76830 0.11610 0.73210 0.00700
C 	C 	0.65910 0.10280 0.79300 -0.03900
C 	C 	0.64380 0.56110 0.19330 -0.11600
C 	C 	0.61240 0.48630 0.22330 -0.06200
C 	C 	0.53450 0.26560 0.04080 -0.06700
H 	H 	0.59880 0.32090 0.06970 0.03000
C 	C 	0.46730 0.19260 0.99650 0.35100
C 	C 	0.58820 0.07460 0.81550 0.41700
H 	H 	0.80020 0.10750 0.70200 0.03100
C 	C 	0.70750 0.08770 0.75170 -0.03200
H 	H 	0.65400 0.58200 0.16450 0.08700
C 	C 	0.64150 0.57480 0.25230 0.08100
H 	H 	0.60080 0.45620 0.21500 0.07800
C 	C 	0.61200 0.50300 0.28050 -0.02800
H 	H 	0.49560 0.26610 0.06870 0.06800
O 	O 	0.41350 0.19190 0.02990 -0.25600
H 	H 	0.70010 0.05860 0.73670 0.05100
H 	H 	0.64980 0.60500 0.26200 0.01800
C 	C 	0.60030 0.47220 0.33280 0.39500
O 	O 	0.57230 0.43400 0.32360 -0.51500
O 	O 	0.98890 0.30660 0.22690 0.05000
O 	O 	0.09510 0.34160 0.14460 -0.23700
Dy	Dy	0.58210 0.15790 0.89430 0.66800
O 	O 	0.51510 0.21040 0.80770 -0.27400
H 	H 	0.60480 0.41610 0.34320 0.28000
Dy	Dy	0.50000 0.02512 0.25000 1.93400
Dy	Dy	-0.00000 0.52512 0.25000 1.85500
Dy	Dy	0.50000 0.97488 0.75000 1.93400
Dy	Dy	-0.00000 0.47488 0.75000 1.85300
