data_crystal

_cell_length_a 15.56590
_cell_length_b 29.75900
_cell_length_c 22.71340
_cell_angle_alpha 90.00000
_cell_angle_beta  97.15500
_cell_angle_gamma 90.00000

_symmetry_space_group_name_	'P 1'
_symmetry_space_group_name_H-M	'P 1'

loop_
_symmetry_equiv_pos_as_xyz
  x,y,z

loop_
_atom_site_label
_atom_site_type_symbol
_atom_site_fract_x
_atom_site_fract_y
_atom_site_fract_z
_atom_site_charge
Tb	Tb	0.55681 0.17071 0.38488 1.81900
Tb	Tb	0.81151 0.05686 0.59681 1.83200
N 	N 	0.58750 0.23172 0.46170 -0.20700
N 	N 	0.68760 0.22306 0.37710 -0.20900
N 	N 	0.66870 0.14545 0.32009 -0.18500
N 	N 	0.93570 0.40465 0.29112 -0.19300
N 	N 	0.93560 0.08985 0.55183 -0.24500
N 	N 	0.83770 0.02635 0.49592 -0.21800
N 	N 	0.70170 0.00241 0.54986 -0.20500
N 	N 	0.87430 0.95464 0.20488 -0.20200
O 	O 	0.48260 0.16368 0.46860 -0.45800
O 	O 	0.41860 0.19560 0.53870 -0.25900
O 	O 	0.54490 0.09457 0.35429 -0.47300
O 	O 	0.57630 0.03817 0.29550 -0.47200
O 	O 	0.80770 0.38518 0.15410 -0.25100
O 	O 	0.88840 0.44397 0.18698 -0.41700
O 	O 	0.86030 0.12605 0.63638 -0.42200
O 	O 	0.96640 0.17570 0.65945 -0.22500
O 	O 	0.69950 0.04180 0.65319 -0.48300
O 	O 	0.58160 0.00424 0.67140 -0.46700
O 	O 	0.92810 0.06609 0.17807 -0.24600
O 	O 	0.88270 0.01031 0.11664 -0.44900
O 	O 	0.66240 0.13871 0.45555 -0.58200
O 	O 	0.72430 0.10291 0.53351 -0.59900
O 	O 	0.51420 0.18350 0.28140 -0.27800
C 	C 	0.47290 0.19440 0.50420 0.33600
C 	C 	0.53610 0.23360 0.50500 -0.02200
C 	C 	0.54040 0.26770 0.54670 -0.06200
H 	H 	0.50370 0.26780 0.57600 0.06500
C 	C 	0.59980 0.30130 0.54400 0.01300
H 	H 	0.60380 0.32470 0.57130 0.03200
C 	C 	0.65430 0.29996 0.49980 -0.10300
H 	H 	0.69590 0.32210 0.49770 0.08000
C 	C 	0.64550 0.26504 0.45910 0.06300
C 	C 	0.69870 0.26095 0.40950 0.08100
C 	C 	0.75530 0.29470 0.39670 -0.12600
H 	H 	0.76480 0.31960 0.42140 0.09100
C 	C 	0.79740 0.29076 0.34680 0.07200
C 	C 	0.78860 0.25140 0.31470 -0.14000
H 	H 	0.81750 0.24750 0.28170 0.08500
C 	C 	0.73610 0.21757 0.33240 0.08300
C 	C 	0.72880 0.17294 0.30270 0.05100
C 	C 	0.78180 0.15950 0.26170 -0.08000
H 	H 	0.82430 0.17870 0.25080 0.06600
C 	C 	0.77100 0.11750 0.23730 -0.02800
H 	H 	0.80580 0.10820 0.20920 0.05800
C 	C 	0.70900 0.08899 0.25440 -0.02200
H 	H 	0.70110 0.06030 0.23830 0.04300
C 	C 	0.65900 0.10433 0.29590 -0.05700
C 	C 	0.58720 0.07643 0.31710 0.43500
C 	C 	0.95200 0.38788 0.34630 0.11400
H 	H 	0.99460 0.40170 0.37250 0.01400
C 	C 	0.90990 0.35181 0.36630 -0.13500
H 	H 	0.92270 0.34190 0.40520 0.09800
C 	C 	0.84750 0.33008 0.32720 0.04800
C 	C 	0.83070 0.34653 0.26980 -0.08500
H 	H 	0.79020 0.33250 0.24220 0.07600
C 	C 	0.87490 0.38407 0.25410 0.01200
C 	C 	0.85450 0.40543 0.19330 0.31600
C 	C 	0.93350 0.14337 0.63040 0.28600
C 	C 	0.97980 0.12273 0.58260 0.08700
C 	C 	0.05910 0.13800 0.56820 -0.22300
H 	H 	0.08880 0.16090 0.58980 0.10500
C 	C 	0.09240 0.11810 0.52100 0.14000
H 	H 	0.14640 0.12680 0.51140 -0.01100
C 	C 	0.04530 0.08520 0.48800 -0.26800
H 	H 	0.06650 0.07190 0.45570 0.12800
C 	C 	0.96620 0.07253 0.50430 0.16500
C 	C 	0.90590 0.04036 0.47020 0.05200
C 	C 	0.91850 0.02767 0.41270 -0.12800
H 	H 	0.96560 0.03840 0.39550 0.10900
C 	C 	0.85940 0.99873 0.38180 0.07200
C 	C 	0.79000 0.98370 0.40870 -0.14200
H 	H 	0.75000 0.96400 0.38890 0.10200
C 	C 	0.78020 0.99826 0.46600 0.07800
C 	C 	0.70580 0.98385 0.49640 0.06400
C 	C 	0.64430 0.95320 0.47210 -0.10300
H 	H 	0.64680 0.94110 0.43460 0.08700
C 	C 	0.57900 0.94110 0.50530 0.01200
H 	H 	0.53740 0.92020 0.49040 0.03800
C 	C 	0.57550 0.95980 0.56020 -0.05100
H 	H 	0.53240 0.95170 0.58300 0.06700
C 	C 	0.63670 0.99057 0.58040 -0.04100
C 	C 	0.63950 0.01409 0.64030 0.41300
C 	C 	0.86040 0.92497 0.24760 0.09300
H 	H 	0.85320 0.89470 0.23790 0.01500
C 	C 	0.85670 0.93852 0.30560 -0.12700
H 	H 	0.84550 0.91770 0.33410 0.09400
C 	C 	0.86990 0.98320 0.32070 0.04400
C 	C 	0.88870 0.01335 0.27680 -0.07900
H 	H 	0.90090 0.04330 0.28580 0.08500
C 	C 	0.88880 0.99746 0.21980 0.00000
C 	C 	0.90140 0.02812 0.16840 0.32200
C 	C 	0.67350 0.10662 0.48800 0.75200
H 	H 	0.63940 0.08160 0.47720 -0.23300
O 	O 	0.47220 0.21420 0.19720 -0.47500
Tb	Tb	0.05681 0.67071 0.38488 1.75500
Tb	Tb	0.31151 0.55686 0.59681 1.82400
N 	N 	0.08750 0.73172 0.46170 -0.20100
N 	N 	0.18760 0.72306 0.37710 -0.20800
N 	N 	0.16870 0.64545 0.32009 -0.18400
N 	N 	0.43570 0.90465 0.29112 -0.21000
N 	N 	0.43560 0.58985 0.55183 -0.21500
N 	N 	0.33770 0.52635 0.49592 -0.22500
N 	N 	0.20170 0.50241 0.54986 -0.20500
N 	N 	0.37430 0.45464 0.20488 -0.20400
O 	O 	0.98260 0.66368 0.46860 -0.43500
O 	O 	0.91860 0.69560 0.53870 -0.25100
O 	O 	0.04490 0.59457 0.35429 -0.48600
O 	O 	0.07630 0.53817 0.29550 -0.47200
O 	O 	0.30770 0.88518 0.15410 -0.25900
O 	O 	0.38840 0.94397 0.18698 -0.44800
O 	O 	0.36030 0.62605 0.63638 -0.43200
O 	O 	0.46640 0.67570 0.65945 -0.25500
O 	O 	0.19950 0.54180 0.65319 -0.48000
O 	O 	0.08160 0.50424 0.67140 -0.46600
O 	O 	0.42810 0.56609 0.17807 -0.26600
O 	O 	0.38270 0.51031 0.11664 -0.46000
O 	O 	0.16240 0.63871 0.45555 -0.58000
O 	O 	0.22430 0.60291 0.53351 -0.59800
O 	O 	0.01420 0.68350 0.28140 -0.29000
C 	C 	0.97290 0.69440 0.50420 0.39000
C 	C 	0.03610 0.73360 0.50500 -0.07900
C 	C 	0.04040 0.76770 0.54670 -0.03100
H 	H 	0.00370 0.76780 0.57600 0.03800
C 	C 	0.09980 0.80130 0.54400 -0.01400
H 	H 	0.10380 0.82470 0.57130 0.03600
C 	C 	0.15430 0.79996 0.49980 -0.08900
H 	H 	0.19590 0.82210 0.49770 0.07500
C 	C 	0.14550 0.76504 0.45910 0.05500
C 	C 	0.19870 0.76095 0.40950 0.08200
C 	C 	0.25530 0.79470 0.39670 -0.12700
H 	H 	0.26480 0.81960 0.42140 0.09100
C 	C 	0.29740 0.79076 0.34680 0.07000
C 	C 	0.28860 0.75140 0.31470 -0.14100
H 	H 	0.31750 0.74750 0.28170 0.07900
C 	C 	0.23610 0.71757 0.33240 0.08200
C 	C 	0.22880 0.67294 0.30270 0.04800
C 	C 	0.28180 0.65950 0.26170 -0.08100
H 	H 	0.32430 0.67870 0.25080 0.05900
C 	C 	0.27100 0.61750 0.23730 -0.03200
H 	H 	0.30580 0.60820 0.20920 0.05500
C 	C 	0.20900 0.58899 0.25440 -0.02500
H 	H 	0.20110 0.56030 0.23830 0.04300
C 	C 	0.15900 0.60433 0.29590 -0.06000
C 	C 	0.08720 0.57643 0.31710 0.42800
C 	C 	0.45200 0.88788 0.34630 0.11000
H 	H 	0.49460 0.90170 0.37250 -0.00700
C 	C 	0.40990 0.85181 0.36630 -0.13900
H 	H 	0.42270 0.84190 0.40520 0.08800
C 	C 	0.34750 0.83008 0.32720 0.04300
C 	C 	0.33070 0.84653 0.26980 -0.08300
H 	H 	0.29020 0.83250 0.24220 0.07100
C 	C 	0.37490 0.88407 0.25410 0.00100
C 	C 	0.35450 0.90543 0.19330 0.31800
C 	C 	0.43350 0.64337 0.63040 0.31600
C 	C 	0.47980 0.62273 0.58260 -0.01900
C 	C 	0.55910 0.63800 0.56820 -0.06200
H 	H 	0.58880 0.66090 0.58980 0.06500
C 	C 	0.59240 0.61810 0.52100 0.01300
H 	H 	0.64640 0.62680 0.51140 0.04000
C 	C 	0.54530 0.58520 0.48800 -0.10600
H 	H 	0.56650 0.57190 0.45570 0.08500
C 	C 	0.46620 0.57253 0.50430 0.05900
C 	C 	0.40590 0.54036 0.47020 0.07700
C 	C 	0.41850 0.52767 0.41270 -0.15000
H 	H 	0.46560 0.53840 0.39550 0.09900
C 	C 	0.35940 0.49873 0.38180 0.07600
C 	C 	0.29000 0.48370 0.40870 -0.14800
H 	H 	0.25000 0.46400 0.38890 0.10300
C 	C 	0.28020 0.49826 0.46600 0.07900
C 	C 	0.20580 0.48385 0.49640 0.06000
C 	C 	0.14430 0.45320 0.47210 -0.10500
H 	H 	0.14680 0.44110 0.43460 0.08200
C 	C 	0.07900 0.44110 0.50530 0.00300
H 	H 	0.03740 0.42020 0.49040 0.02500
C 	C 	0.07550 0.45980 0.56020 -0.05200
H 	H 	0.03240 0.45170 0.58300 0.04900
C 	C 	0.13670 0.49057 0.58040 -0.04800
C 	C 	0.13950 0.51409 0.64030 0.40900
C 	C 	0.36040 0.42497 0.24760 0.08600
H 	H 	0.35320 0.39470 0.23790 0.01200
C 	C 	0.35670 0.43852 0.30560 -0.12800
H 	H 	0.34550 0.41770 0.33410 0.09000
C 	C 	0.36990 0.48320 0.32070 0.03400
C 	C 	0.38870 0.51335 0.27680 -0.08000
H 	H 	0.40090 0.54330 0.28580 0.07700
C 	C 	0.38880 0.49746 0.21980 -0.00900
C 	C 	0.40140 0.52812 0.16840 0.32000
C 	C 	0.17350 0.60662 0.48800 0.74800
H 	H 	0.13940 0.58160 0.47720 -0.23900
O 	O 	0.97220 0.71420 0.19720 -0.44200
Tb	Tb	0.44319 0.17071 0.11512 1.81900
Tb	Tb	0.18849 0.05686 0.90319 1.81900
N 	N 	0.41250 0.23172 0.03830 -0.21000
N 	N 	0.31240 0.22306 0.12290 -0.20900
N 	N 	0.33130 0.14545 0.17991 -0.18600
N 	N 	0.06430 0.40465 0.20888 -0.21200
N 	N 	0.06440 0.08985 0.94817 -0.18600
N 	N 	0.16230 0.02635 0.00408 -0.23000
N 	N 	0.29830 0.00241 0.95014 -0.20700
N 	N 	0.12570 0.95464 0.29512 -0.20500
O 	O 	0.51740 0.16368 0.03140 -0.45800
O 	O 	0.58140 0.19560 0.96130 -0.25500
O 	O 	0.45510 0.09457 0.14571 -0.47300
O 	O 	0.42370 0.03817 0.20450 -0.47200
O 	O 	0.19230 0.38518 0.34590 -0.26100
O 	O 	0.11160 0.44397 0.31302 -0.44500
O 	O 	0.13970 0.12605 0.86362 -0.44100
O 	O 	0.03360 0.17570 0.84055 -0.28100
O 	O 	0.30050 0.04180 0.84681 -0.48000
O 	O 	0.41840 0.00424 0.82860 -0.46600
O 	O 	0.07190 0.06609 0.32193 -0.28600
O 	O 	0.11730 0.01031 0.38336 -0.46900
O 	O 	0.33760 0.13871 0.04445 -0.58200
O 	O 	0.27570 0.10291 0.96649 -0.59500
O 	O 	0.48580 0.18350 0.21860 -0.27800
C 	C 	0.52710 0.19440 0.99580 0.33700
C 	C 	0.46390 0.23360 0.99500 -0.01900
C 	C 	0.45960 0.26770 0.95330 -0.06500
H 	H 	0.49630 0.26780 0.92400 0.06800
C 	C 	0.40020 0.30130 0.95600 0.01800
H 	H 	0.39620 0.32470 0.92870 0.03100
C 	C 	0.34570 0.29996 0.00020 -0.10700
H 	H 	0.30410 0.32210 0.00230 0.08100
C 	C 	0.35450 0.26504 0.04090 0.06500
C 	C 	0.30130 0.26095 0.09050 0.07900
C 	C 	0.24470 0.29470 0.10330 -0.12400
H 	H 	0.23520 0.31960 0.07860 0.08900
C 	C 	0.20260 0.29076 0.15320 0.06700
C 	C 	0.21140 0.25140 0.18530 -0.13900
H 	H 	0.18250 0.24750 0.21830 0.07500
C 	C 	0.26390 0.21757 0.16760 0.08100
C 	C 	0.27120 0.17294 0.19730 0.04800
C 	C 	0.21820 0.15950 0.23830 -0.07900
H 	H 	0.17570 0.17870 0.24920 0.05300
C 	C 	0.22900 0.11750 0.26270 -0.03400
H 	H 	0.19420 0.10820 0.29080 0.05500
C 	C 	0.29100 0.08899 0.24560 -0.02000
H 	H 	0.29890 0.06030 0.26170 0.04300
C 	C 	0.34100 0.10433 0.20410 -0.05900
C 	C 	0.41280 0.07643 0.18290 0.43600
C 	C 	0.04800 0.38788 0.15370 0.10400
H 	H 	0.00540 0.40170 0.12750 -0.02200
C 	C 	0.09010 0.35181 0.13370 -0.14200
H 	H 	0.07730 0.34190 0.09480 0.07800
C 	C 	0.15250 0.33008 0.17280 0.04200
C 	C 	0.16930 0.34653 0.23020 -0.08700
H 	H 	0.20980 0.33250 0.25780 0.07200
C 	C 	0.12510 0.38407 0.24590 -0.00200
C 	C 	0.14550 0.40543 0.30670 0.31100
C 	C 	0.06650 0.14337 0.86960 0.34500
C 	C 	0.02020 0.12273 0.91740 -0.12200
C 	C 	0.94090 0.13800 0.93180 0.09400
H 	H 	0.91120 0.16090 0.91020 0.02500
C 	C 	0.90760 0.11810 0.97900 -0.10500
H 	H 	0.85360 0.12680 0.98860 0.08500
C 	C 	0.95470 0.08520 0.01200 0.04400
H 	H 	0.93350 0.07190 0.04430 0.04400
C 	C 	0.03380 0.07253 0.99570 -0.04200
C 	C 	0.09410 0.04036 0.02980 0.09900
C 	C 	0.08150 0.02767 0.08730 -0.16700
H 	H 	0.03440 0.03840 0.10450 0.08800
C 	C 	0.14060 0.99873 0.11820 0.07800
C 	C 	0.21000 0.98370 0.09130 -0.15100
H 	H 	0.25000 0.96400 0.11110 0.10400
C 	C 	0.21980 0.99826 0.03400 0.07700
C 	C 	0.29420 0.98385 0.00360 0.06500
C 	C 	0.35570 0.95320 0.02790 -0.11700
H 	H 	0.35320 0.94110 0.06540 0.09200
C 	C 	0.42100 0.94110 0.99470 0.03100
H 	H 	0.46260 0.92020 0.00960 0.02900
C 	C 	0.42450 0.95980 0.93980 -0.06300
H 	H 	0.46760 0.95170 0.91700 0.07100
C 	C 	0.36330 0.99057 0.91960 -0.03500
C 	C 	0.36050 0.01409 0.85970 0.41000
C 	C 	0.13960 0.92497 0.25240 0.07700
H 	H 	0.14680 0.89470 0.26210 0.01000
C 	C 	0.14330 0.93852 0.19440 -0.12800
H 	H 	0.15450 0.91770 0.16590 0.08500
C 	C 	0.13010 0.98320 0.17930 0.02200
C 	C 	0.11130 0.01335 0.22320 -0.07600
H 	H 	0.09910 0.04330 0.21420 0.06800
C 	C 	0.11120 0.99746 0.28020 -0.02200
C 	C 	0.09860 0.02812 0.33160 0.32000
C 	C 	0.32650 0.10662 0.01200 0.74900
H 	H 	0.36060 0.08160 0.02280 -0.23200
O 	O 	0.52780 0.21420 0.30280 -0.47600
Tb	Tb	0.94319 0.67071 0.11512 1.85900
Tb	Tb	0.68849 0.55686 0.90319 1.82700
N 	N 	0.91250 0.73172 0.03830 -0.21900
N 	N 	0.81240 0.72306 0.12290 -0.21000
N 	N 	0.83130 0.64545 0.17991 -0.18900
N 	N 	0.56430 0.90465 0.20888 -0.21100
N 	N 	0.56440 0.58985 0.94817 -0.21700
N 	N 	0.66230 0.52635 0.00408 -0.22500
N 	N 	0.79830 0.50241 0.95014 -0.20700
N 	N 	0.62570 0.45464 0.29512 -0.20500
O 	O 	0.01740 0.66368 0.03140 -0.47700
O 	O 	0.08140 0.69560 0.96130 -0.26200
O 	O 	0.95510 0.59457 0.14571 -0.45400
O 	O 	0.92370 0.53817 0.20450 -0.43700
O 	O 	0.69230 0.88518 0.34590 -0.25500
O 	O 	0.61160 0.94397 0.31302 -0.44800
O 	O 	0.63970 0.62605 0.86362 -0.43200
O 	O 	0.53360 0.67570 0.84055 -0.25500
O 	O 	0.80050 0.54180 0.84681 -0.47600
O 	O 	0.91840 0.50424 0.82860 -0.43200
O 	O 	0.57190 0.56609 0.32193 -0.26500
O 	O 	0.61730 0.51031 0.38336 -0.45900
O 	O 	0.83760 0.63871 0.04445 -0.58000
O 	O 	0.77570 0.60291 0.96649 -0.59200
O 	O 	0.98580 0.68350 0.21860 -0.22900
C 	C 	0.02710 0.69440 0.99580 0.28000
C 	C 	0.96390 0.73360 0.99500 0.04500
C 	C 	0.95960 0.76770 0.95330 -0.10200
H 	H 	0.99630 0.76780 0.92400 0.09700
C 	C 	0.90020 0.80130 0.95600 0.05500
H 	H 	0.89620 0.82470 0.92870 0.02500
C 	C 	0.84570 0.79996 0.00020 -0.12900
H 	H 	0.80410 0.82210 0.00230 0.08800
C 	C 	0.85450 0.76504 0.04090 0.07500
C 	C 	0.80130 0.76095 0.09050 0.07700
C 	C 	0.74470 0.79470 0.10330 -0.12200
H 	H 	0.73520 0.81960 0.07860 0.08800
C 	C 	0.70260 0.79076 0.15320 0.06800
C 	C 	0.71140 0.75140 0.18530 -0.13700
H 	H 	0.68250 0.74750 0.21830 0.08000
C 	C 	0.76390 0.71757 0.16760 0.08200
C 	C 	0.77120 0.67294 0.19730 0.05300
C 	C 	0.71820 0.65950 0.23830 -0.08000
H 	H 	0.67570 0.67870 0.24920 0.06100
C 	C 	0.72900 0.61750 0.26270 -0.02600
H 	H 	0.69420 0.60820 0.29080 0.05600
C 	C 	0.79100 0.58899 0.24560 -0.02300
H 	H 	0.79890 0.56030 0.26170 0.04700
C 	C 	0.84100 0.60433 0.20410 -0.04900
C 	C 	0.91280 0.57643 0.18290 0.42800
C 	C 	0.54800 0.88788 0.15370 0.11100
H 	H 	0.50540 0.90170 0.12750 -0.00800
C 	C 	0.59010 0.85181 0.13370 -0.14100
H 	H 	0.57730 0.84190 0.09480 0.08800
C 	C 	0.65250 0.83008 0.17280 0.04700
C 	C 	0.66930 0.84653 0.23020 -0.08700
H 	H 	0.70980 0.83250 0.25780 0.07700
C 	C 	0.62510 0.88407 0.24590 0.00300
C 	C 	0.64550 0.90543 0.30670 0.31700
C 	C 	0.56650 0.64337 0.86960 0.31600
C 	C 	0.52020 0.62273 0.91740 -0.01600
C 	C 	0.44090 0.63800 0.93180 -0.06800
H 	H 	0.41120 0.66090 0.91020 0.06500
C 	C 	0.40760 0.61810 0.97900 0.02400
H 	H 	0.35360 0.62680 0.98860 0.03400
C 	C 	0.45470 0.58520 0.01200 -0.12000
H 	H 	0.43350 0.57190 0.04430 0.08800
C 	C 	0.53380 0.57253 0.99570 0.06800
C 	C 	0.59410 0.54036 0.02980 0.07100
C 	C 	0.58150 0.52767 0.08730 -0.14600
H 	H 	0.53440 0.53840 0.10450 0.09700
C 	C 	0.64060 0.49873 0.11820 0.07400
C 	C 	0.71000 0.48370 0.09130 -0.14500
H 	H 	0.75000 0.46400 0.11110 0.10300
C 	C 	0.71980 0.49826 0.03400 0.07700
C 	C 	0.79420 0.48385 0.00360 0.06800
C 	C 	0.85570 0.45320 0.02790 -0.11600
H 	H 	0.85320 0.44110 0.06540 0.09800
C 	C 	0.92100 0.44110 0.99470 0.04300
H 	H 	0.96260 0.42020 0.00960 0.04100
C 	C 	0.92450 0.45980 0.93980 -0.06600
H 	H 	0.96760 0.45170 0.91700 0.09100
C 	C 	0.86330 0.49057 0.91960 -0.02400
C 	C 	0.86050 0.51409 0.85970 0.40200
C 	C 	0.63960 0.42497 0.25240 0.08600
H 	H 	0.64680 0.39470 0.26210 0.01200
C 	C 	0.64330 0.43852 0.19440 -0.12900
H 	H 	0.65450 0.41770 0.16590 0.09000
C 	C 	0.63010 0.48320 0.17930 0.03500
C 	C 	0.61130 0.51335 0.22320 -0.08000
H 	H 	0.59910 0.54330 0.21420 0.07700
C 	C 	0.61120 0.49746 0.28020 -0.00800
C 	C 	0.59860 0.52812 0.33160 0.32000
C 	C 	0.82650 0.60662 0.01200 0.74700
H 	H 	0.86060 0.58160 0.02280 -0.22400
O 	O 	0.02780 0.71420 0.30280 -0.44900
Tb	Tb	0.44319 0.82930 0.61512 1.81900
Tb	Tb	0.18849 0.94314 0.40319 1.82000
N 	N 	0.41250 0.76828 0.53830 -0.20900
N 	N 	0.31240 0.77694 0.62290 -0.20900
N 	N 	0.33130 0.85455 0.67991 -0.18600
N 	N 	0.06430 0.59535 0.70888 -0.21200
N 	N 	0.06440 0.91015 0.44817 -0.18500
N 	N 	0.16230 0.97365 0.50408 -0.23100
N 	N 	0.29830 0.99759 0.45014 -0.20500
N 	N 	0.12570 0.04536 0.79512 -0.20500
O 	O 	0.51740 0.83632 0.53140 -0.45700
O 	O 	0.58140 0.80440 0.46130 -0.25500
O 	O 	0.45510 0.90543 0.64571 -0.47300
O 	O 	0.42370 0.96183 0.70450 -0.47200
O 	O 	0.19230 0.61482 0.84590 -0.26100
O 	O 	0.11160 0.55603 0.81302 -0.44500
O 	O 	0.13970 0.87395 0.36362 -0.44100
O 	O 	0.03360 0.82430 0.34055 -0.28100
O 	O 	0.30050 0.95820 0.34681 -0.48000
O 	O 	0.41840 0.99576 0.32860 -0.46600
O 	O 	0.07190 0.93391 0.82193 -0.28600
O 	O 	0.11730 0.98969 0.88336 -0.46900
O 	O 	0.33760 0.86129 0.54445 -0.58200
O 	O 	0.27570 0.89709 0.46649 -0.59600
O 	O 	0.48580 0.81650 0.71860 -0.27800
C 	C 	0.52710 0.80560 0.49580 0.33600
C 	C 	0.46390 0.76640 0.49500 -0.02000
C 	C 	0.45960 0.73230 0.45330 -0.06300
H 	H 	0.49630 0.73220 0.42400 0.06700
C 	C 	0.40020 0.69870 0.45600 0.01400
H 	H 	0.39620 0.67530 0.42870 0.03200
C 	C 	0.34570 0.70004 0.50020 -0.10300
H 	H 	0.30410 0.67790 0.50230 0.08000
C 	C 	0.35450 0.73496 0.54090 0.06400
C 	C 	0.30130 0.73905 0.59050 0.08000
C 	C 	0.24470 0.70530 0.60330 -0.12400
H 	H 	0.23520 0.68040 0.57860 0.08900
C 	C 	0.20260 0.70924 0.65320 0.06700
C 	C 	0.21140 0.74860 0.68530 -0.13900
H 	H 	0.18250 0.75250 0.71830 0.07500
C 	C 	0.26390 0.78243 0.66760 0.08100
C 	C 	0.27120 0.82706 0.69730 0.04800
C 	C 	0.21820 0.84050 0.73830 -0.07900
H 	H 	0.17570 0.82130 0.74920 0.05300
C 	C 	0.22900 0.88250 0.76270 -0.03400
H 	H 	0.19420 0.89180 0.79080 0.05500
C 	C 	0.29100 0.91101 0.74560 -0.02000
H 	H 	0.29890 0.93970 0.76170 0.04300
C 	C 	0.34100 0.89567 0.70410 -0.05900
C 	C 	0.41280 0.92357 0.68290 0.43600
C 	C 	0.04800 0.61212 0.65370 0.10400
H 	H 	0.00540 0.59830 0.62750 -0.02300
C 	C 	0.09010 0.64819 0.63370 -0.14200
H 	H 	0.07730 0.65810 0.59480 0.07800
C 	C 	0.15250 0.66992 0.67280 0.04100
C 	C 	0.16930 0.65347 0.73020 -0.08700
H 	H 	0.20980 0.66750 0.75780 0.07200
C 	C 	0.12510 0.61593 0.74590 -0.00200
C 	C 	0.14550 0.59457 0.80670 0.31100
C 	C 	0.06650 0.85663 0.36960 0.34500
C 	C 	0.02020 0.87727 0.41740 -0.12200
C 	C 	0.94090 0.86200 0.43180 0.09700
H 	H 	0.91120 0.83910 0.41020 0.02400
C 	C 	0.90760 0.88190 0.47900 -0.11300
H 	H 	0.85360 0.87320 0.48860 0.08700
C 	C 	0.95470 0.91480 0.51200 0.05400
H 	H 	0.93350 0.92810 0.54430 0.04100
C 	C 	0.03380 0.92747 0.49570 -0.04600
C 	C 	0.09410 0.95964 0.52980 0.10100
C 	C 	0.08150 0.97233 0.58730 -0.17000
H 	H 	0.03440 0.96160 0.60450 0.08800
C 	C 	0.14060 0.00127 0.61820 0.08000
C 	C 	0.21000 0.01630 0.59130 -0.15300
H 	H 	0.25000 0.03600 0.61110 0.10500
C 	C 	0.21980 0.00174 0.53400 0.08100
C 	C 	0.29420 0.01615 0.50360 0.06200
C 	C 	0.35570 0.04680 0.52790 -0.10200
H 	H 	0.35320 0.05890 0.56540 0.08700
C 	C 	0.42100 0.05890 0.49470 0.01100
H 	H 	0.46260 0.07980 0.50960 0.03800
C 	C 	0.42450 0.04020 0.43980 -0.05100
H 	H 	0.46760 0.04830 0.41700 0.06700
C 	C 	0.36330 0.00943 0.41960 -0.04100
C 	C 	0.36050 0.98591 0.35970 0.41200
C 	C 	0.13960 0.07503 0.75240 0.07700
H 	H 	0.14680 0.10530 0.76210 0.01000
C 	C 	0.14330 0.06148 0.69440 -0.12700
H 	H 	0.15450 0.08230 0.66590 0.08400
C 	C 	0.13010 0.01680 0.67930 0.02100
C 	C 	0.11130 0.98665 0.72320 -0.07500
H 	H 	0.09910 0.95670 0.71420 0.06700
C 	C 	0.11120 0.00254 0.78020 -0.02200
C 	C 	0.09860 0.97188 0.83160 0.32100
C 	C 	0.32650 0.89338 0.51200 0.75100
H 	H 	0.36060 0.91840 0.52280 -0.23200
O 	O 	0.52780 0.78580 0.80280 -0.47600
Tb	Tb	0.94319 0.32929 0.61512 1.86200
Tb	Tb	0.68849 0.44314 0.40319 1.82600
N 	N 	0.91250 0.26828 0.53830 -0.21500
N 	N 	0.81240 0.27694 0.62290 -0.21100
N 	N 	0.83130 0.35455 0.67991 -0.18900
N 	N 	0.56430 0.09535 0.70888 -0.21100
N 	N 	0.56440 0.41015 0.44817 -0.21500
N 	N 	0.66230 0.47365 0.50408 -0.22500
N 	N 	0.79830 0.49759 0.45014 -0.20700
N 	N 	0.62570 0.54536 0.79512 -0.20500
O 	O 	0.01740 0.33632 0.53140 -0.47700
O 	O 	0.08140 0.30440 0.46130 -0.26300
O 	O 	0.95510 0.40543 0.64571 -0.45300
O 	O 	0.92370 0.46183 0.70450 -0.43600
O 	O 	0.69230 0.11482 0.84590 -0.25500
O 	O 	0.61160 0.05603 0.81302 -0.44800
O 	O 	0.63970 0.37395 0.36362 -0.43200
O 	O 	0.53360 0.32430 0.34055 -0.25500
O 	O 	0.80050 0.45820 0.34681 -0.47700
O 	O 	0.91840 0.49576 0.32860 -0.43300
O 	O 	0.57190 0.43391 0.82193 -0.26500
O 	O 	0.61730 0.48969 0.88336 -0.45900
O 	O 	0.83760 0.36129 0.54445 -0.58200
O 	O 	0.77570 0.39709 0.46649 -0.59600
O 	O 	0.98580 0.31650 0.71860 -0.22800
C 	C 	0.02710 0.30560 0.49580 0.28100
C 	C 	0.96390 0.26640 0.49500 0.03800
C 	C 	0.95960 0.23230 0.45330 -0.09400
H 	H 	0.99630 0.23220 0.42400 0.09400
C 	C 	0.90020 0.19870 0.45600 0.04100
H 	H 	0.89620 0.17530 0.42870 0.02900
C 	C 	0.84570 0.20004 0.50020 -0.11700
H 	H 	0.80410 0.17790 0.50230 0.08500
C 	C 	0.85450 0.23496 0.54090 0.07100
C 	C 	0.80130 0.23905 0.59050 0.07900
C 	C 	0.74470 0.20530 0.60330 -0.12300
H 	H 	0.73520 0.18040 0.57860 0.08900
C 	C 	0.70260 0.20924 0.65320 0.06900
C 	C 	0.71140 0.24860 0.68530 -0.13700
H 	H 	0.68250 0.25250 0.71830 0.08100
C 	C 	0.76390 0.28243 0.66760 0.08300
C 	C 	0.77120 0.32706 0.69730 0.05400
C 	C 	0.71820 0.34050 0.73830 -0.08000
H 	H 	0.67570 0.32130 0.74920 0.06100
C 	C 	0.72900 0.38250 0.76270 -0.02600
H 	H 	0.69420 0.39180 0.79080 0.05600
C 	C 	0.79100 0.41101 0.74560 -0.02400
H 	H 	0.79890 0.43970 0.76170 0.04700
C 	C 	0.84100 0.39567 0.70410 -0.04900
C 	C 	0.91280 0.42357 0.68290 0.42800
C 	C 	0.54800 0.11212 0.65370 0.11200
H 	H 	0.50540 0.09830 0.62750 -0.00800
C 	C 	0.59010 0.14819 0.63370 -0.14100
H 	H 	0.57730 0.15810 0.59480 0.08800
C 	C 	0.65250 0.16992 0.67280 0.04700
C 	C 	0.66930 0.15347 0.73020 -0.08700
H 	H 	0.70980 0.16750 0.75780 0.07700
C 	C 	0.62510 0.11593 0.74590 0.00300
C 	C 	0.64550 0.09457 0.80670 0.31700
C 	C 	0.56650 0.35663 0.36960 0.31600
C 	C 	0.52020 0.37727 0.41740 -0.01900
C 	C 	0.44090 0.36200 0.43180 -0.06200
H 	H 	0.41120 0.33910 0.41020 0.06300
C 	C 	0.40760 0.38190 0.47900 0.01300
H 	H 	0.35360 0.37320 0.48860 0.03700
C 	C 	0.45470 0.41480 0.51200 -0.10700
H 	H 	0.43350 0.42810 0.54430 0.08400
C 	C 	0.53380 0.42747 0.49570 0.05900
C 	C 	0.59410 0.45964 0.52980 0.07600
C 	C 	0.58150 0.47233 0.58730 -0.14900
H 	H 	0.53440 0.46160 0.60450 0.09800
C 	C 	0.64060 0.50127 0.61820 0.07600
C 	C 	0.71000 0.51630 0.59130 -0.14700
H 	H 	0.75000 0.53600 0.61110 0.10400
C 	C 	0.71980 0.50174 0.53400 0.07900
C 	C 	0.79420 0.51615 0.50360 0.06600
C 	C 	0.85570 0.54680 0.52790 -0.10200
H 	H 	0.85320 0.55890 0.56540 0.09300
C 	C 	0.92100 0.55890 0.49470 0.02300
H 	H 	0.96260 0.57980 0.50960 0.05100
C 	C 	0.92450 0.54020 0.43980 -0.05500
H 	H 	0.96760 0.54830 0.41700 0.08700
C 	C 	0.86330 0.50943 0.41960 -0.02900
C 	C 	0.86050 0.48591 0.35970 0.40300
C 	C 	0.63960 0.57503 0.75240 0.08600
H 	H 	0.64680 0.60530 0.76210 0.01200
C 	C 	0.64330 0.56148 0.69440 -0.12800
H 	H 	0.65450 0.58230 0.66590 0.09000
C 	C 	0.63010 0.51680 0.67930 0.03400
C 	C 	0.61130 0.48665 0.72320 -0.08000
H 	H 	0.59910 0.45670 0.71420 0.07700
C 	C 	0.61120 0.50254 0.78020 -0.00900
C 	C 	0.59860 0.47188 0.83160 0.32000
C 	C 	0.82650 0.39338 0.51200 0.75300
H 	H 	0.86060 0.41840 0.52280 -0.22500
O 	O 	0.02780 0.28580 0.80280 -0.44800
Tb	Tb	0.55681 0.82930 0.88488 1.81900
Tb	Tb	0.81151 0.94314 0.09681 1.82900
N 	N 	0.58750 0.76828 0.96170 -0.20600
N 	N 	0.68760 0.77694 0.87710 -0.21000
N 	N 	0.66870 0.85455 0.82009 -0.18600
N 	N 	0.93570 0.59535 0.79112 -0.19300
N 	N 	0.93560 0.91015 0.05183 -0.24300
N 	N 	0.83770 0.97365 0.99592 -0.21900
N 	N 	0.70170 0.99759 0.04986 -0.20800
N 	N 	0.87430 0.04536 0.70488 -0.20300
O 	O 	0.48260 0.83632 0.96860 -0.45500
O 	O 	0.41860 0.80440 0.03870 -0.25900
O 	O 	0.54490 0.90543 0.85429 -0.47400
O 	O 	0.57630 0.96183 0.79550 -0.47200
O 	O 	0.80770 0.61482 0.65410 -0.25000
O 	O 	0.88840 0.55603 0.68698 -0.41600
O 	O 	0.86030 0.87395 0.13638 -0.42200
O 	O 	0.96640 0.82430 0.15945 -0.22600
O 	O 	0.69950 0.95820 0.15319 -0.48300
O 	O 	0.58160 0.99576 0.17140 -0.46700
O 	O 	0.92810 0.93391 0.67807 -0.24600
O 	O 	0.88270 0.98969 0.61664 -0.44900
O 	O 	0.66240 0.86129 0.95555 -0.58400
O 	O 	0.72430 0.89709 0.03351 -0.60300
O 	O 	0.51420 0.81650 0.78140 -0.27800
C 	C 	0.47290 0.80560 0.00420 0.33300
C 	C 	0.53610 0.76640 0.00500 -0.02600
C 	C 	0.54040 0.73230 0.04670 -0.05700
H 	H 	0.50370 0.73220 0.07600 0.06300
C 	C 	0.59980 0.69870 0.04400 0.00400
H 	H 	0.60380 0.67530 0.07130 0.03500
C 	C 	0.65430 0.70004 0.99980 -0.09400
H 	H 	0.69590 0.67790 0.99770 0.07800
C 	C 	0.64550 0.73496 0.95910 0.06000
C 	C 	0.69870 0.73905 0.90950 0.08200
C 	C 	0.75530 0.70530 0.89670 -0.12700
H 	H 	0.76480 0.68040 0.92140 0.09100
C 	C 	0.79740 0.70924 0.84680 0.07200
C 	C 	0.78860 0.74860 0.81470 -0.14000
H 	H 	0.81750 0.75250 0.78170 0.08500
C 	C 	0.73610 0.78243 0.83240 0.08300
C 	C 	0.72880 0.82706 0.80270 0.05100
C 	C 	0.78180 0.84050 0.76170 -0.08000
H 	H 	0.82430 0.82130 0.75080 0.06600
C 	C 	0.77100 0.88250 0.73730 -0.02800
H 	H 	0.80580 0.89180 0.70920 0.05900
C 	C 	0.70900 0.91101 0.75440 -0.02200
H 	H 	0.70110 0.93970 0.73830 0.04300
C 	C 	0.65900 0.89567 0.79590 -0.05700
C 	C 	0.58720 0.92357 0.81710 0.43600
C 	C 	0.95200 0.61212 0.84630 0.11400
H 	H 	0.99460 0.59830 0.87250 0.01400
C 	C 	0.90990 0.64819 0.86630 -0.13500
H 	H 	0.92270 0.65810 0.90520 0.09800
C 	C 	0.84750 0.66992 0.82720 0.04800
C 	C 	0.83070 0.65347 0.76980 -0.08500
H 	H 	0.79020 0.66750 0.74220 0.07600
C 	C 	0.87490 0.61593 0.75410 0.01200
C 	C 	0.85450 0.59457 0.69330 0.31600
C 	C 	0.93350 0.85663 0.13040 0.28800
C 	C 	0.97980 0.87727 0.08260 0.08000
C 	C 	0.05910 0.86200 0.06820 -0.21100
H 	H 	0.08880 0.83910 0.08980 0.10100
C 	C 	0.09240 0.88190 0.02100 0.12500
H 	H 	0.14640 0.87320 0.01140 -0.00600
C 	C 	0.04530 0.91480 0.98800 -0.24900
H 	H 	0.06650 0.92810 0.95570 0.12200
C 	C 	0.96620 0.92747 0.00430 0.15000
C 	C 	0.90590 0.95964 0.97020 0.06000
C 	C 	0.91850 0.97233 0.91270 -0.13100
H 	H 	0.96560 0.96160 0.89550 0.11100
C 	C 	0.85940 0.00127 0.88180 0.07300
C 	C 	0.79000 0.01630 0.90870 -0.14300
H 	H 	0.75000 0.03600 0.88890 0.10200
C 	C 	0.78020 0.00174 0.96600 0.07800
C 	C 	0.70580 0.01615 0.99640 0.06400
C 	C 	0.64430 0.04680 0.97210 -0.09900
H 	H 	0.64680 0.05890 0.93460 0.08600
C 	C 	0.57900 0.05890 0.00530 0.00500
H 	H 	0.53740 0.07980 0.99040 0.04100
C 	C 	0.57550 0.04020 0.06020 -0.04800
H 	H 	0.53240 0.04830 0.08300 0.06600
C 	C 	0.63670 0.00943 0.08040 -0.04100
C 	C 	0.63950 0.98591 0.14030 0.41200
C 	C 	0.86040 0.07503 0.74760 0.09300
H 	H 	0.85320 0.10530 0.73790 0.01500
C 	C 	0.85670 0.06148 0.80560 -0.12600
H 	H 	0.84550 0.08230 0.83410 0.09400
C 	C 	0.86990 0.01680 0.82070 0.04300
C 	C 	0.88870 0.98665 0.77680 -0.07900
H 	H 	0.90090 0.95670 0.78580 0.08500
C 	C 	0.88880 0.00254 0.71980 0.00100
C 	C 	0.90140 0.97188 0.66840 0.32200
C 	C 	0.67350 0.89338 0.98800 0.76000
H 	H 	0.63940 0.91840 0.97720 -0.23400
O 	O 	0.47220 0.78580 0.69720 -0.47500
Tb	Tb	0.05681 0.32929 0.88488 1.75400
Tb	Tb	0.31151 0.44314 0.09681 1.82300
N 	N 	0.08750 0.26828 0.96170 -0.20100
N 	N 	0.18760 0.27694 0.87710 -0.20800
N 	N 	0.16870 0.35455 0.82009 -0.18300
N 	N 	0.43570 0.09535 0.79112 -0.21000
N 	N 	0.43560 0.41015 0.05183 -0.21400
N 	N 	0.33770 0.47365 0.99592 -0.22500
N 	N 	0.20170 0.49759 0.04986 -0.20500
N 	N 	0.37430 0.54536 0.70488 -0.20400
O 	O 	0.98260 0.33632 0.96860 -0.43000
O 	O 	0.91860 0.30440 0.03870 -0.25100
O 	O 	0.04490 0.40543 0.85429 -0.48600
O 	O 	0.07630 0.46183 0.79550 -0.47300
O 	O 	0.30770 0.11482 0.65410 -0.25900
O 	O 	0.38840 0.05603 0.68698 -0.44800
O 	O 	0.36030 0.37395 0.13638 -0.43200
O 	O 	0.46640 0.32430 0.15945 -0.25500
O 	O 	0.19950 0.45820 0.15319 -0.48000
O 	O 	0.08160 0.49576 0.17140 -0.46600
O 	O 	0.42810 0.43391 0.67807 -0.26600
O 	O 	0.38270 0.48969 0.61664 -0.45900
O 	O 	0.16240 0.36129 0.95555 -0.58100
O 	O 	0.22430 0.39709 0.03351 -0.59900
O 	O 	0.01420 0.31650 0.78140 -0.29100
C 	C 	0.97290 0.30560 0.00420 0.38400
C 	C 	0.03610 0.26640 0.00500 -0.07700
C 	C 	0.04040 0.23230 0.04670 -0.03300
H 	H 	0.00370 0.23220 0.07600 0.03900
C 	C 	0.09980 0.19870 0.04400 -0.01400
H 	H 	0.10380 0.17530 0.07130 0.03600
C 	C 	0.15430 0.20004 0.99980 -0.08900
H 	H 	0.19590 0.17790 0.99770 0.07500
C 	C 	0.14550 0.23496 0.95910 0.05500
C 	C 	0.19870 0.23905 0.90950 0.08200
C 	C 	0.25530 0.20530 0.89670 -0.12700
H 	H 	0.26480 0.18040 0.92140 0.09100
C 	C 	0.29740 0.20924 0.84680 0.07000
C 	C 	0.28860 0.24860 0.81470 -0.14100
H 	H 	0.31750 0.25250 0.78170 0.07900
C 	C 	0.23610 0.28243 0.83240 0.08200
C 	C 	0.22880 0.32706 0.80270 0.04800
C 	C 	0.28180 0.34050 0.76170 -0.08100
H 	H 	0.32430 0.32130 0.75080 0.05900
C 	C 	0.27100 0.38250 0.73730 -0.03200
H 	H 	0.30580 0.39180 0.70920 0.05500
C 	C 	0.20900 0.41101 0.75440 -0.02500
H 	H 	0.20110 0.43970 0.73830 0.04300
C 	C 	0.15900 0.39567 0.79590 -0.06000
C 	C 	0.08720 0.42357 0.81710 0.42800
C 	C 	0.45200 0.11212 0.84630 0.11000
H 	H 	0.49460 0.09830 0.87250 -0.00700
C 	C 	0.40990 0.14819 0.86630 -0.13900
H 	H 	0.42270 0.15810 0.90520 0.08800
C 	C 	0.34750 0.16992 0.82720 0.04300
C 	C 	0.33070 0.15347 0.76980 -0.08300
H 	H 	0.29020 0.16750 0.74220 0.07100
C 	C 	0.37490 0.11593 0.75410 0.00100
C 	C 	0.35450 0.09457 0.69330 0.31800
C 	C 	0.43350 0.35663 0.13040 0.31700
C 	C 	0.47980 0.37727 0.08260 -0.02100
C 	C 	0.55910 0.36200 0.06820 -0.05700
H 	H 	0.58880 0.33910 0.08980 0.06300
C 	C 	0.59240 0.38190 0.02100 0.00300
H 	H 	0.64640 0.37320 0.01140 0.04200
C 	C 	0.54530 0.41480 0.98800 -0.09500
H 	H 	0.56650 0.42810 0.95570 0.08100
C 	C 	0.46620 0.42747 0.00430 0.05100
C 	C 	0.40590 0.45964 0.97020 0.08100
C 	C 	0.41850 0.47233 0.91270 -0.15200
H 	H 	0.46560 0.46160 0.89550 0.10000
C 	C 	0.35940 0.50127 0.88180 0.07800
C 	C 	0.29000 0.51630 0.90870 -0.14900
H 	H 	0.25000 0.53600 0.88890 0.10400
C 	C 	0.28020 0.50174 0.96600 0.08000
C 	C 	0.20580 0.51615 0.99640 0.06000
C 	C 	0.14430 0.54680 0.97210 -0.10100
H 	H 	0.14680 0.55890 0.93460 0.08100
C 	C 	0.07900 0.55890 0.00530 -0.00300
H 	H 	0.03740 0.57980 0.99040 0.02800
C 	C 	0.07550 0.54020 0.06020 -0.04800
H 	H 	0.03240 0.54830 0.08300 0.04800
C 	C 	0.13670 0.50943 0.08040 -0.05000
C 	C 	0.13950 0.48591 0.14030 0.40900
C 	C 	0.36040 0.57503 0.74760 0.08600
H 	H 	0.35320 0.60530 0.73790 0.01200
C 	C 	0.35670 0.56148 0.80560 -0.12700
H 	H 	0.34550 0.58230 0.83410 0.09000
C 	C 	0.36990 0.51680 0.82070 0.03400
C 	C 	0.38870 0.48665 0.77680 -0.07900
H 	H 	0.40090 0.45670 0.78580 0.07700
C 	C 	0.38880 0.50254 0.71980 -0.00900
C 	C 	0.40140 0.47188 0.66840 0.32000
C 	C 	0.17350 0.39338 0.98800 0.75000
H 	H 	0.13940 0.41840 0.97720 -0.23900
O 	O 	0.97220 0.28580 0.69720 -0.44100
Tb	Tb	0.50000 0.02305 0.75000 1.99000
Tb	Tb	-0.00000 0.52305 0.75000 1.86300
Tb	Tb	0.50000 0.97695 0.25000 1.99000
Tb	Tb	0.00000 0.47695 0.25000 1.86700
C 	C 	0.50000 0.21700 0.25000 0.70900
C 	C 	0.00000 0.71700 0.25000 0.61500
C 	C 	0.50000 0.78300 0.75000 0.70900
C 	C 	-0.00000 0.28300 0.75000 0.61200
