data_crystal

_cell_length_a 27.67000
_cell_length_b 29.29700
_cell_length_c 25.91200
_cell_angle_alpha 90.00000
_cell_angle_beta  90.00000
_cell_angle_gamma 90.00000

_symmetry_space_group_name_	'P 1'
_symmetry_space_group_name_H-M	'P 1'

loop_
_symmetry_equiv_pos_as_xyz
  x,y,z

loop_
_atom_site_label
_atom_site_type_symbol
_atom_site_fract_x
_atom_site_fract_y
_atom_site_fract_z
_atom_site_charge
C 	C 	0.15360 0.45590 0.07410 0.02700
C 	C 	0.14320 0.40880 0.09740 -0.07600
H 	H 	0.12200 0.40140 0.12400 0.07100
C 	C 	0.17040 0.38260 0.07210 0.03800
C 	C 	0.14210 0.49910 0.09750 0.17500
C 	C 	0.13880 0.58090 0.07940 0.14500
C 	C 	0.10990 0.59360 0.12370 -0.10500
H 	H 	0.09440 0.57130 0.14310 0.11200
C 	C 	0.10560 0.64020 0.13720 -0.02400
C 	C 	0.12830 0.67261 0.11210 -0.02400
H 	H 	0.12490 0.70290 0.12200 0.06900
C 	C 	0.15770 0.66120 0.07030 -0.02600
C 	C 	0.16190 0.61600 0.05410 -0.11200
H 	H 	0.18080 0.60940 0.02530 0.07500
C 	C 	0.07130 0.65080 0.18050 0.33000
C 	C 	0.18440 0.69740 0.03930 0.35000
C 	C 	0.17430 0.33230 0.08110 0.17100
C 	C 	0.13240 0.26200 0.10330 0.15100
C 	C 	0.16160 0.22810 0.08010 -0.10600
H 	H 	0.18560 0.23660 0.05690 0.10900
C 	C 	0.15490 0.18290 0.09150 -0.02400
C 	C 	0.11940 0.17010 0.12550 -0.02900
H 	H 	0.11620 0.13960 0.13480 0.07200
C 	C 	0.08800 0.20240 0.14630 -0.01900
C 	C 	0.09610 0.24830 0.13490 -0.11800
H 	H 	0.07590 0.27030 0.14940 0.09100
C 	C 	0.18590 0.14780 0.06730 0.32300
C 	C 	0.04900 0.18940 0.18440 0.34200
C 	C 	0.33130 0.47540 0.06950 -0.02700
C 	C 	0.36120 0.44400 0.09940 -0.04900
H 	H 	0.38660 0.44970 0.12210 0.06200
C 	C 	0.33950 0.40140 0.08330 0.03400
C 	C 	0.35800 0.35700 0.10550 0.23000
C 	C 	0.36440 0.27510 0.09550 0.17200
C 	C 	0.33900 0.24030 0.06830 -0.12500
H 	H 	0.31690 0.24670 0.04220 0.10200
C 	C 	0.34980 0.19550 0.08390 -0.00700
C 	C 	0.38310 0.18590 0.11840 -0.02900
H 	H 	0.39070 0.15540 0.12440 0.07200
C 	C 	0.40760 0.21920 0.14600 -0.03200
C 	C 	0.39760 0.26530 0.13190 -0.12100
H 	H 	0.41420 0.28890 0.14800 0.11700
C 	C 	0.44370 0.20750 0.18280 0.34200
C 	C 	0.32260 0.15730 0.05350 0.32300
C 	C 	0.32800 0.52150 0.06790 0.21100
C 	C 	0.36460 0.59450 0.09230 0.13900
C 	C 	0.39340 0.61110 0.13330 -0.10000
H 	H 	0.41020 0.59070 0.15410 0.08400
C 	C 	0.39680 0.65740 0.14260 -0.04100
C 	C 	0.36800 0.68780 0.11570 -0.01500
H 	H 	0.36860 0.71870 0.12360 0.06500
C 	C 	0.33870 0.67180 0.07720 -0.03400
C 	C 	0.33620 0.62620 0.06480 -0.10000
H 	H 	0.31600 0.61640 0.03840 0.09700
C 	C 	0.30840 0.70470 0.04670 0.34100
C 	C 	0.43320 0.67150 0.18140 0.35400
Cu	Cu	0.25445 0.36895 0.01568 0.91100
Cu	Cu	0.24831 0.48489 0.01022 0.82600
Cu	Cu	0.24508 0.72189 0.95932 0.90400
N 	N 	0.20270 0.40444 0.04580 -0.19700
N 	N 	0.19270 0.44856 0.04560 -0.18600
N 	N 	0.30250 0.40559 0.05440 -0.18400
N 	N 	0.29640 0.45027 0.04660 -0.19700
N 	N 	0.13560 0.30930 0.09370 -0.23700
H 	H 	0.10920 0.32460 0.09650 0.13300
N 	N 	0.34950 0.31932 0.08330 -0.26100
H 	H 	0.33160 0.32130 0.05620 0.14900
N 	N 	0.14840 0.53719 0.06800 -0.23300
H 	H 	0.16030 0.53250 0.03780 0.09200
N 	N 	0.36410 0.54740 0.08520 -0.24400
H 	H 	0.39040 0.53330 0.09290 0.13400
O 	O 	0.21790 0.31475 0.07240 -0.26000
O 	O 	0.29270 0.53725 0.04040 -0.35300
O 	O 	0.11400 0.49770 0.13500 -0.20700
O 	O 	0.38190 0.36120 0.14380 -0.22900
O 	O 	0.02205 0.22171 0.19940 -0.40700
O 	O 	0.04905 0.14893 0.19780 -0.40500
O 	O 	0.18410 0.10718 0.08200 -0.28500
O 	O 	0.21271 0.16160 0.03150 -0.38000
O 	O 	0.30317 0.16993 0.01160 -0.39500
O 	O 	0.32210 0.11947 0.07200 -0.30000
O 	O 	0.44730 0.16725 0.19640 -0.40500
O 	O 	0.47165 0.24034 0.19720 -0.38700
O 	O 	0.46110 0.64107 0.19760 -0.41700
O 	O 	0.43276 0.71227 0.19580 -0.40100
O 	O 	0.29691 0.74156 0.06980 -0.39700
O 	O 	0.29130 0.69050 0.00560 -0.40900
O 	O 	0.19520 0.68909 0.99610 -0.42900
O 	O 	0.19795 0.73265 0.06740 -0.38600
O 	O 	0.07188 0.69114 0.19590 -0.39700
O 	O 	0.04411 0.61864 0.19730 -0.39400
C 	C 	0.84640 0.54410 0.57410 0.02600
C 	C 	0.85680 0.59120 0.59740 -0.07700
H 	H 	0.87800 0.59860 0.62400 0.07000
C 	C 	0.82960 0.61740 0.57210 0.03700
C 	C 	0.85790 0.50090 0.59750 0.17400
C 	C 	0.86120 0.41910 0.57940 0.14400
C 	C 	0.89010 0.40640 0.62370 -0.10500
H 	H 	0.90560 0.42870 0.64310 0.11100
C 	C 	0.89440 0.35980 0.63720 -0.02500
C 	C 	0.87170 0.32739 0.61210 -0.02500
H 	H 	0.87510 0.29710 0.62200 0.06800
C 	C 	0.84230 0.33880 0.57030 -0.02700
C 	C 	0.83810 0.38400 0.55410 -0.11300
H 	H 	0.81920 0.39060 0.52530 0.07400
C 	C 	0.92870 0.34920 0.68050 0.32900
C 	C 	0.81560 0.30260 0.53930 0.34900
C 	C 	0.82570 0.66770 0.58110 0.17000
C 	C 	0.86760 0.73800 0.60330 0.15000
C 	C 	0.83840 0.77190 0.58010 -0.10700
H 	H 	0.81440 0.76340 0.55690 0.10800
C 	C 	0.84510 0.81710 0.59150 -0.02500
C 	C 	0.88060 0.82990 0.62550 -0.02900
H 	H 	0.88380 0.86040 0.63480 0.07100
C 	C 	0.91200 0.79760 0.64630 -0.02000
C 	C 	0.90390 0.75170 0.63490 -0.11900
H 	H 	0.92410 0.72970 0.64940 0.09000
C 	C 	0.81410 0.85220 0.56730 0.32300
C 	C 	0.95100 0.81060 0.68440 0.34100
C 	C 	0.66870 0.52460 0.56950 -0.02800
C 	C 	0.63880 0.55600 0.59940 -0.05000
H 	H 	0.61340 0.55030 0.62210 0.06100
C 	C 	0.66050 0.59860 0.58330 0.03300
C 	C 	0.64200 0.64300 0.60550 0.22900
C 	C 	0.63560 0.72490 0.59550 0.17000
C 	C 	0.66100 0.75970 0.56830 -0.12600
H 	H 	0.68310 0.75330 0.54220 0.10100
C 	C 	0.65020 0.80450 0.58390 -0.00800
C 	C 	0.61690 0.81410 0.61840 -0.03000
H 	H 	0.60930 0.84460 0.62440 0.07100
C 	C 	0.59240 0.78080 0.64600 -0.03300
C 	C 	0.60240 0.73470 0.63190 -0.12200
H 	H 	0.58580 0.71110 0.64800 0.11600
C 	C 	0.55630 0.79250 0.68280 0.34100
C 	C 	0.67740 0.84270 0.55350 0.32300
C 	C 	0.67200 0.47850 0.56790 0.21000
C 	C 	0.63540 0.40550 0.59230 0.13800
C 	C 	0.60660 0.38890 0.63330 -0.10000
H 	H 	0.58980 0.40930 0.65410 0.08400
C 	C 	0.60320 0.34260 0.64260 -0.04100
C 	C 	0.63200 0.31220 0.61570 -0.01500
H 	H 	0.63140 0.28130 0.62360 0.06500
C 	C 	0.66130 0.32820 0.57720 -0.03400
C 	C 	0.66380 0.37380 0.56480 -0.10000
H 	H 	0.68400 0.38360 0.53840 0.09700
C 	C 	0.69160 0.29530 0.54670 0.34100
C 	C 	0.56680 0.32850 0.68140 0.35400
Cu	Cu	0.74555 0.63105 0.51568 0.91100
Cu	Cu	0.75169 0.51511 0.51022 0.82600
Cu	Cu	0.75492 0.27811 0.45932 0.90400
N 	N 	0.79730 0.59556 0.54580 -0.19700
N 	N 	0.80730 0.55144 0.54560 -0.18600
N 	N 	0.69750 0.59441 0.55440 -0.18500
N 	N 	0.70360 0.54973 0.54660 -0.19700
N 	N 	0.86440 0.69070 0.59370 -0.23700
H 	H 	0.89080 0.67540 0.59650 0.13300
N 	N 	0.65050 0.68068 0.58330 -0.26100
H 	H 	0.66840 0.67870 0.55620 0.14900
N 	N 	0.85160 0.46281 0.56800 -0.23300
H 	H 	0.83970 0.46750 0.53780 0.09200
N 	N 	0.63590 0.45260 0.58520 -0.24400
H 	H 	0.60960 0.46670 0.59290 0.13400
O 	O 	0.78210 0.68525 0.57240 -0.26000
O 	O 	0.70730 0.46275 0.54040 -0.35300
O 	O 	0.88600 0.50230 0.63500 -0.20700
O 	O 	0.61810 0.63880 0.64380 -0.22900
O 	O 	0.97795 0.77829 0.69940 -0.40700
O 	O 	0.95095 0.85107 0.69780 -0.40600
O 	O 	0.81590 0.89282 0.58200 -0.28500
O 	O 	0.78729 0.83840 0.53150 -0.38000
O 	O 	0.69683 0.83007 0.51160 -0.39600
O 	O 	0.67790 0.88053 0.57200 -0.30000
O 	O 	0.55270 0.83275 0.69640 -0.40500
O 	O 	0.52835 0.75966 0.69720 -0.38700
O 	O 	0.53890 0.35893 0.69760 -0.41700
O 	O 	0.56724 0.28773 0.69580 -0.40100
O 	O 	0.70309 0.25844 0.56980 -0.39700
O 	O 	0.70870 0.30950 0.50560 -0.40900
O 	O 	0.80480 0.31091 0.49610 -0.42900
O 	O 	0.80205 0.26735 0.56740 -0.38600
O 	O 	0.92812 0.30886 0.69590 -0.39700
O 	O 	0.95589 0.38136 0.69730 -0.39400
C 	C 	0.84640 0.95590 0.42590 0.02600
C 	C 	0.85680 0.90880 0.40260 -0.07700
H 	H 	0.87800 0.90140 0.37600 0.07000
C 	C 	0.82960 0.88260 0.42790 0.03700
C 	C 	0.85790 0.99910 0.40250 0.17400
C 	C 	0.86120 0.08090 0.42060 0.14400
C 	C 	0.89010 0.09360 0.37630 -0.10600
H 	H 	0.90560 0.07130 0.35690 0.11100
C 	C 	0.89440 0.14020 0.36280 -0.02500
C 	C 	0.87170 0.17261 0.38790 -0.02500
H 	H 	0.87510 0.20290 0.37800 0.06800
C 	C 	0.84230 0.16120 0.42970 -0.02700
C 	C 	0.83810 0.11600 0.44590 -0.11300
H 	H 	0.81920 0.10940 0.47470 0.07400
C 	C 	0.92870 0.15080 0.31950 0.32900
C 	C 	0.81560 0.19740 0.46070 0.34900
C 	C 	0.82570 0.83230 0.41890 0.17000
C 	C 	0.86760 0.76200 0.39670 0.15000
C 	C 	0.83840 0.72810 0.41990 -0.10700
H 	H 	0.81440 0.73660 0.44310 0.10800
C 	C 	0.84510 0.68290 0.40850 -0.02500
C 	C 	0.88060 0.67010 0.37450 -0.02900
H 	H 	0.88380 0.63960 0.36520 0.07100
C 	C 	0.91200 0.70240 0.35370 -0.02000
C 	C 	0.90390 0.74830 0.36510 -0.11900
H 	H 	0.92410 0.77030 0.35060 0.09000
C 	C 	0.81410 0.64780 0.43270 0.32300
C 	C 	0.95100 0.68940 0.31560 0.34100
C 	C 	0.66870 0.97540 0.43050 -0.02800
C 	C 	0.63880 0.94400 0.40060 -0.04900
H 	H 	0.61340 0.94970 0.37790 0.06100
C 	C 	0.66050 0.90140 0.41670 0.03300
C 	C 	0.64200 0.85700 0.39450 0.22900
C 	C 	0.63560 0.77510 0.40450 0.17000
C 	C 	0.66100 0.74030 0.43170 -0.12600
H 	H 	0.68310 0.74670 0.45780 0.10100
C 	C 	0.65020 0.69550 0.41610 -0.00800
C 	C 	0.61690 0.68590 0.38160 -0.03000
H 	H 	0.60930 0.65540 0.37560 0.07100
C 	C 	0.59240 0.71920 0.35400 -0.03300
C 	C 	0.60240 0.76530 0.36810 -0.12200
H 	H 	0.58580 0.78890 0.35200 0.11600
C 	C 	0.55630 0.70750 0.31720 0.34100
C 	C 	0.67740 0.65730 0.44650 0.32300
C 	C 	0.67200 0.02150 0.43210 0.21000
C 	C 	0.63540 0.09450 0.40770 0.13800
C 	C 	0.60660 0.11110 0.36670 -0.10000
H 	H 	0.58980 0.09070 0.34590 0.08500
C 	C 	0.60320 0.15740 0.35740 -0.04100
C 	C 	0.63200 0.18780 0.38430 -0.01500
H 	H 	0.63140 0.21870 0.37640 0.06500
C 	C 	0.66130 0.17180 0.42280 -0.03400
C 	C 	0.66380 0.12620 0.43520 -0.10000
H 	H 	0.68400 0.11640 0.46160 0.09700
C 	C 	0.69160 0.20470 0.45330 0.34100
C 	C 	0.56680 0.17150 0.31860 0.35400
Cu	Cu	0.74555 0.86895 0.48432 0.91100
Cu	Cu	0.75169 0.98489 0.48978 0.82600
Cu	Cu	0.75492 0.22189 0.54068 0.90400
N 	N 	0.79730 0.90444 0.45420 -0.19700
N 	N 	0.80730 0.94856 0.45440 -0.18600
N 	N 	0.69750 0.90559 0.44560 -0.18500
N 	N 	0.70360 0.95027 0.45340 -0.19700
N 	N 	0.86440 0.80930 0.40630 -0.23700
H 	H 	0.89080 0.82460 0.40350 0.13300
N 	N 	0.65050 0.81932 0.41670 -0.26100
H 	H 	0.66840 0.82130 0.44380 0.14900
N 	N 	0.85160 0.03719 0.43200 -0.23300
H 	H 	0.83970 0.03250 0.46220 0.09200
N 	N 	0.63590 0.04740 0.41480 -0.24400
H 	H 	0.60960 0.03330 0.40710 0.13400
O 	O 	0.78210 0.81475 0.42760 -0.26000
O 	O 	0.70730 0.03725 0.45960 -0.35300
O 	O 	0.88600 0.99770 0.36500 -0.20700
O 	O 	0.61810 0.86120 0.35620 -0.22900
O 	O 	0.97795 0.72171 0.30060 -0.40700
O 	O 	0.95095 0.64893 0.30220 -0.40600
O 	O 	0.81590 0.60718 0.41800 -0.28500
O 	O 	0.78729 0.66160 0.46850 -0.38000
O 	O 	0.69683 0.66993 0.48840 -0.39600
O 	O 	0.67790 0.61947 0.42800 -0.30000
O 	O 	0.55270 0.66725 0.30360 -0.40500
O 	O 	0.52835 0.74034 0.30280 -0.38700
O 	O 	0.53890 0.14107 0.30240 -0.41700
O 	O 	0.56724 0.21227 0.30420 -0.40100
O 	O 	0.70309 0.24156 0.43020 -0.39700
O 	O 	0.70870 0.19050 0.49440 -0.40900
O 	O 	0.80480 0.18909 0.50390 -0.42900
O 	O 	0.80205 0.23265 0.43260 -0.38600
O 	O 	0.92812 0.19114 0.30410 -0.39700
O 	O 	0.95589 0.11864 0.30270 -0.39400
C 	C 	0.15360 0.04410 0.92590 0.02600
C 	C 	0.14320 0.09120 0.90260 -0.07700
H 	H 	0.12200 0.09860 0.87600 0.07000
C 	C 	0.17040 0.11740 0.92790 0.03700
C 	C 	0.14210 0.00090 0.90250 0.17400
C 	C 	0.13880 0.91910 0.92060 0.14400
C 	C 	0.10990 0.90640 0.87630 -0.10500
H 	H 	0.09440 0.92870 0.85690 0.11100
C 	C 	0.10560 0.85980 0.86280 -0.02500
C 	C 	0.12830 0.82739 0.88790 -0.02500
H 	H 	0.12490 0.79710 0.87800 0.06800
C 	C 	0.15770 0.83880 0.92970 -0.02700
C 	C 	0.16190 0.88400 0.94590 -0.11300
H 	H 	0.18080 0.89060 0.97470 0.07400
C 	C 	0.07130 0.84920 0.81950 0.32900
C 	C 	0.18440 0.80260 0.96070 0.34900
C 	C 	0.17430 0.16770 0.91890 0.17000
C 	C 	0.13240 0.23800 0.89670 0.15000
C 	C 	0.16160 0.27190 0.91990 -0.10700
H 	H 	0.18560 0.26340 0.94310 0.10800
C 	C 	0.15490 0.31710 0.90850 -0.02500
C 	C 	0.11940 0.32990 0.87450 -0.02900
H 	H 	0.11620 0.36040 0.86520 0.07100
C 	C 	0.08800 0.29760 0.85370 -0.02000
C 	C 	0.09610 0.25170 0.86510 -0.11900
H 	H 	0.07590 0.22970 0.85060 0.09000
C 	C 	0.18590 0.35220 0.93270 0.32300
C 	C 	0.04900 0.31060 0.81560 0.34100
C 	C 	0.33130 0.02460 0.93050 -0.02800
C 	C 	0.36120 0.05600 0.90060 -0.04900
H 	H 	0.38660 0.05030 0.87790 0.06100
C 	C 	0.33950 0.09860 0.91670 0.03300
C 	C 	0.35800 0.14300 0.89450 0.22900
C 	C 	0.36440 0.22490 0.90450 0.17000
C 	C 	0.33900 0.25970 0.93170 -0.12500
H 	H 	0.31690 0.25330 0.95780 0.10100
C 	C 	0.34980 0.30450 0.91610 -0.00800
C 	C 	0.38310 0.31410 0.88160 -0.03000
H 	H 	0.39070 0.34460 0.87560 0.07100
C 	C 	0.40760 0.28080 0.85400 -0.03300
C 	C 	0.39760 0.23470 0.86810 -0.12200
H 	H 	0.41420 0.21110 0.85200 0.11600
C 	C 	0.44370 0.29250 0.81720 0.34100
C 	C 	0.32260 0.34270 0.94650 0.32300
C 	C 	0.32800 0.97850 0.93210 0.21100
C 	C 	0.36460 0.90550 0.90770 0.13800
C 	C 	0.39340 0.88890 0.86670 -0.10000
H 	H 	0.41020 0.90930 0.84590 0.08500
C 	C 	0.39680 0.84260 0.85740 -0.04100
C 	C 	0.36800 0.81220 0.88430 -0.01500
H 	H 	0.36860 0.78130 0.87640 0.06500
C 	C 	0.33870 0.82820 0.92280 -0.03400
C 	C 	0.33620 0.87380 0.93520 -0.10100
H 	H 	0.31600 0.88360 0.96160 0.09700
C 	C 	0.30840 0.79530 0.95330 0.34100
C 	C 	0.43320 0.82850 0.81860 0.35400
Cu	Cu	0.25445 0.13105 0.98432 0.91100
Cu	Cu	0.24831 0.01511 0.98978 0.82600
Cu	Cu	0.24508 0.77811 0.04068 0.90400
N 	N 	0.20270 0.09556 0.95420 -0.19700
N 	N 	0.19270 0.05144 0.95440 -0.18600
N 	N 	0.30250 0.09441 0.94560 -0.18500
N 	N 	0.29640 0.04973 0.95340 -0.19700
N 	N 	0.13560 0.19070 0.90630 -0.23700
H 	H 	0.10920 0.17540 0.90350 0.13300
N 	N 	0.34950 0.18068 0.91670 -0.26100
H 	H 	0.33160 0.17870 0.94380 0.14900
N 	N 	0.14840 0.96281 0.93200 -0.23200
H 	H 	0.16030 0.96750 0.96220 0.09200
N 	N 	0.36410 0.95260 0.91480 -0.24400
H 	H 	0.39040 0.96670 0.90710 0.13400
O 	O 	0.21790 0.18525 0.92760 -0.26000
O 	O 	0.29270 0.96275 0.95960 -0.35300
O 	O 	0.11400 0.00230 0.86500 -0.20700
O 	O 	0.38190 0.13880 0.85620 -0.22900
O 	O 	0.02205 0.27829 0.80060 -0.40700
O 	O 	0.04905 0.35107 0.80220 -0.40600
O 	O 	0.18410 0.39282 0.91800 -0.28500
O 	O 	0.21271 0.33840 0.96850 -0.38000
O 	O 	0.30317 0.33007 0.98840 -0.39600
O 	O 	0.32210 0.38053 0.92800 -0.30000
O 	O 	0.44730 0.33275 0.80360 -0.40500
O 	O 	0.47165 0.25966 0.80280 -0.38700
O 	O 	0.46110 0.85893 0.80240 -0.41700
O 	O 	0.43276 0.78773 0.80420 -0.40100
O 	O 	0.29691 0.75844 0.93020 -0.39700
O 	O 	0.29130 0.80950 0.99440 -0.40900
O 	O 	0.19520 0.81091 0.00390 -0.42900
O 	O 	0.19795 0.76735 0.93260 -0.38600
O 	O 	0.07188 0.80886 0.80410 -0.39700
O 	O 	0.04411 0.88136 0.80270 -0.39400
C 	C 	0.84640 0.54410 0.92590 0.02600
C 	C 	0.85680 0.59120 0.90260 -0.07700
H 	H 	0.87800 0.59860 0.87600 0.07000
C 	C 	0.82960 0.61740 0.92790 0.03700
C 	C 	0.85790 0.50090 0.90250 0.17400
C 	C 	0.86120 0.41910 0.92060 0.14400
C 	C 	0.89010 0.40640 0.87630 -0.10600
H 	H 	0.90560 0.42870 0.85690 0.11100
C 	C 	0.89440 0.35980 0.86280 -0.02500
C 	C 	0.87170 0.32739 0.88790 -0.02500
H 	H 	0.87510 0.29710 0.87800 0.06800
C 	C 	0.84230 0.33880 0.92970 -0.02700
C 	C 	0.83810 0.38400 0.94590 -0.11300
H 	H 	0.81920 0.39060 0.97470 0.07400
C 	C 	0.92870 0.34920 0.81950 0.32900
C 	C 	0.81560 0.30260 0.96070 0.34900
C 	C 	0.82570 0.66770 0.91890 0.17000
C 	C 	0.86760 0.73800 0.89670 0.15000
C 	C 	0.83840 0.77190 0.91990 -0.10700
H 	H 	0.81440 0.76340 0.94310 0.10800
C 	C 	0.84510 0.81710 0.90850 -0.02500
C 	C 	0.88060 0.82990 0.87450 -0.03000
H 	H 	0.88380 0.86040 0.86520 0.07100
C 	C 	0.91200 0.79760 0.85370 -0.02000
C 	C 	0.90390 0.75170 0.86510 -0.11900
H 	H 	0.92410 0.72970 0.85060 0.09000
C 	C 	0.81410 0.85220 0.93270 0.32200
C 	C 	0.95100 0.81060 0.81560 0.34100
C 	C 	0.66870 0.52460 0.93050 -0.02800
C 	C 	0.63880 0.55600 0.90060 -0.05000
H 	H 	0.61340 0.55030 0.87790 0.06100
C 	C 	0.66050 0.59860 0.91670 0.03300
C 	C 	0.64200 0.64300 0.89450 0.22900
C 	C 	0.63560 0.72490 0.90450 0.17100
C 	C 	0.66100 0.75970 0.93170 -0.12600
H 	H 	0.68310 0.75330 0.95780 0.10100
C 	C 	0.65020 0.80450 0.91610 -0.00800
C 	C 	0.61690 0.81410 0.88160 -0.03000
H 	H 	0.60930 0.84460 0.87560 0.07100
C 	C 	0.59240 0.78080 0.85400 -0.03300
C 	C 	0.60240 0.73470 0.86810 -0.12200
H 	H 	0.58580 0.71110 0.85200 0.11600
C 	C 	0.55630 0.79250 0.81720 0.34100
C 	C 	0.67740 0.84270 0.94650 0.32200
C 	C 	0.67200 0.47850 0.93210 0.21000
C 	C 	0.63540 0.40550 0.90770 0.13800
C 	C 	0.60660 0.38890 0.86670 -0.10000
H 	H 	0.58980 0.40930 0.84590 0.08400
C 	C 	0.60320 0.34260 0.85740 -0.04100
C 	C 	0.63200 0.31220 0.88430 -0.01500
H 	H 	0.63140 0.28130 0.87640 0.06500
C 	C 	0.66130 0.32820 0.92280 -0.03400
C 	C 	0.66380 0.37380 0.93520 -0.10000
H 	H 	0.68400 0.38360 0.96160 0.09700
C 	C 	0.69160 0.29530 0.95330 0.34100
C 	C 	0.56680 0.32850 0.81860 0.35400
Cu	Cu	0.74555 0.63105 0.98432 0.91100
Cu	Cu	0.75169 0.51511 0.98978 0.82600
Cu	Cu	0.75492 0.27811 0.04068 0.90400
N 	N 	0.79730 0.59556 0.95420 -0.19700
N 	N 	0.80730 0.55144 0.95440 -0.18600
N 	N 	0.69750 0.59441 0.94560 -0.18400
N 	N 	0.70360 0.54973 0.95340 -0.19700
N 	N 	0.86440 0.69070 0.90630 -0.23700
H 	H 	0.89080 0.67540 0.90350 0.13300
N 	N 	0.65050 0.68068 0.91670 -0.26100
H 	H 	0.66840 0.67870 0.94380 0.14900
N 	N 	0.85160 0.46281 0.93200 -0.23300
H 	H 	0.83970 0.46750 0.96220 0.09200
N 	N 	0.63590 0.45260 0.91480 -0.24400
H 	H 	0.60960 0.46670 0.90710 0.13400
O 	O 	0.78210 0.68525 0.92760 -0.26000
O 	O 	0.70730 0.46275 0.95960 -0.35300
O 	O 	0.88600 0.50230 0.86500 -0.20700
O 	O 	0.61810 0.63880 0.85620 -0.22900
O 	O 	0.97795 0.77829 0.80060 -0.40700
O 	O 	0.95095 0.85107 0.80220 -0.40500
O 	O 	0.81590 0.89282 0.91800 -0.28500
O 	O 	0.78729 0.83840 0.96850 -0.38000
O 	O 	0.69683 0.83007 0.98840 -0.39500
O 	O 	0.67790 0.88053 0.92800 -0.30000
O 	O 	0.55270 0.83275 0.80360 -0.40500
O 	O 	0.52835 0.75966 0.80280 -0.38700
O 	O 	0.53890 0.35893 0.80240 -0.41700
O 	O 	0.56724 0.28773 0.80420 -0.40100
O 	O 	0.70309 0.25844 0.93020 -0.39700
O 	O 	0.70870 0.30950 0.99440 -0.40900
O 	O 	0.80480 0.31091 0.00390 -0.42900
O 	O 	0.80205 0.26735 0.93260 -0.38600
O 	O 	0.92812 0.30886 0.80410 -0.39700
O 	O 	0.95589 0.38136 0.80270 -0.39400
C 	C 	0.15360 0.45590 0.42590 0.02600
C 	C 	0.14320 0.40880 0.40260 -0.07700
H 	H 	0.12200 0.40140 0.37600 0.07000
C 	C 	0.17040 0.38260 0.42790 0.03700
C 	C 	0.14210 0.49910 0.40250 0.17400
C 	C 	0.13880 0.58090 0.42060 0.14400
C 	C 	0.10990 0.59360 0.37630 -0.10500
H 	H 	0.09440 0.57130 0.35690 0.11100
C 	C 	0.10560 0.64020 0.36280 -0.02500
C 	C 	0.12830 0.67261 0.38790 -0.02500
H 	H 	0.12490 0.70290 0.37800 0.06800
C 	C 	0.15770 0.66120 0.42970 -0.02700
C 	C 	0.16190 0.61600 0.44590 -0.11300
H 	H 	0.18080 0.60940 0.47470 0.07400
C 	C 	0.07130 0.65080 0.31950 0.32900
C 	C 	0.18440 0.69740 0.46070 0.34900
C 	C 	0.17430 0.33230 0.41890 0.17000
C 	C 	0.13240 0.26200 0.39670 0.15000
C 	C 	0.16160 0.22810 0.41990 -0.10700
H 	H 	0.18560 0.23660 0.44310 0.10800
C 	C 	0.15490 0.18290 0.40850 -0.02500
C 	C 	0.11940 0.17010 0.37450 -0.02900
H 	H 	0.11620 0.13960 0.36520 0.07100
C 	C 	0.08800 0.20240 0.35370 -0.02000
C 	C 	0.09610 0.24830 0.36510 -0.11900
H 	H 	0.07590 0.27030 0.35060 0.09000
C 	C 	0.18590 0.14780 0.43270 0.32300
C 	C 	0.04900 0.18940 0.31560 0.34100
C 	C 	0.33130 0.47540 0.43050 -0.02800
C 	C 	0.36120 0.44400 0.40060 -0.05000
H 	H 	0.38660 0.44970 0.37790 0.06100
C 	C 	0.33950 0.40140 0.41670 0.03300
C 	C 	0.35800 0.35700 0.39450 0.22900
C 	C 	0.36440 0.27510 0.40450 0.17000
C 	C 	0.33900 0.24030 0.43170 -0.12600
H 	H 	0.31690 0.24670 0.45780 0.10100
C 	C 	0.34980 0.19550 0.41610 -0.00800
C 	C 	0.38310 0.18590 0.38160 -0.03000
H 	H 	0.39070 0.15540 0.37560 0.07100
C 	C 	0.40760 0.21920 0.35400 -0.03300
C 	C 	0.39760 0.26530 0.36810 -0.12200
H 	H 	0.41420 0.28890 0.35200 0.11600
C 	C 	0.44370 0.20750 0.31720 0.34100
C 	C 	0.32260 0.15730 0.44650 0.32300
C 	C 	0.32800 0.52150 0.43210 0.21000
C 	C 	0.36460 0.59450 0.40770 0.13800
C 	C 	0.39340 0.61110 0.36670 -0.10000
H 	H 	0.41020 0.59070 0.34590 0.08400
C 	C 	0.39680 0.65740 0.35740 -0.04100
C 	C 	0.36800 0.68780 0.38430 -0.01500
H 	H 	0.36860 0.71870 0.37640 0.06500
C 	C 	0.33870 0.67180 0.42280 -0.03400
C 	C 	0.33620 0.62620 0.43520 -0.10000
H 	H 	0.31600 0.61640 0.46160 0.09700
C 	C 	0.30840 0.70470 0.45330 0.34100
C 	C 	0.43320 0.67150 0.31860 0.35400
Cu	Cu	0.25445 0.36895 0.48432 0.91100
Cu	Cu	0.24831 0.48489 0.48978 0.82600
Cu	Cu	0.24508 0.72189 0.54068 0.90400
N 	N 	0.20270 0.40444 0.45420 -0.19700
N 	N 	0.19270 0.44856 0.45440 -0.18600
N 	N 	0.30250 0.40559 0.44560 -0.18500
N 	N 	0.29640 0.45027 0.45340 -0.19700
N 	N 	0.13560 0.30930 0.40630 -0.23700
H 	H 	0.10920 0.32460 0.40350 0.13300
N 	N 	0.34950 0.31932 0.41670 -0.26100
H 	H 	0.33160 0.32130 0.44380 0.14900
N 	N 	0.14840 0.53719 0.43200 -0.23300
H 	H 	0.16030 0.53250 0.46220 0.09200
N 	N 	0.36410 0.54740 0.41480 -0.24400
H 	H 	0.39040 0.53330 0.40710 0.13400
O 	O 	0.21790 0.31475 0.42760 -0.26000
O 	O 	0.29270 0.53725 0.45960 -0.35300
O 	O 	0.11400 0.49770 0.36500 -0.20700
O 	O 	0.38190 0.36120 0.35620 -0.22900
O 	O 	0.02205 0.22171 0.30060 -0.40700
O 	O 	0.04905 0.14893 0.30220 -0.40600
O 	O 	0.18410 0.10718 0.41800 -0.28500
O 	O 	0.21271 0.16160 0.46850 -0.38000
O 	O 	0.30317 0.16993 0.48840 -0.39600
O 	O 	0.32210 0.11947 0.42800 -0.30000
O 	O 	0.44730 0.16725 0.30360 -0.40500
O 	O 	0.47165 0.24034 0.30280 -0.38700
O 	O 	0.46110 0.64107 0.30240 -0.41700
O 	O 	0.43276 0.71227 0.30420 -0.40100
O 	O 	0.29691 0.74156 0.43020 -0.39700
O 	O 	0.29130 0.69050 0.49440 -0.40900
O 	O 	0.19520 0.68909 0.50390 -0.42900
O 	O 	0.19795 0.73265 0.43260 -0.38600
O 	O 	0.07188 0.69114 0.30410 -0.39700
O 	O 	0.04411 0.61864 0.30270 -0.39400
C 	C 	0.15360 0.04410 0.57410 0.02600
C 	C 	0.14320 0.09120 0.59740 -0.07700
H 	H 	0.12200 0.09860 0.62400 0.07000
C 	C 	0.17040 0.11740 0.57210 0.03700
C 	C 	0.14210 0.00090 0.59750 0.17400
C 	C 	0.13880 0.91910 0.57940 0.14400
C 	C 	0.10990 0.90640 0.62370 -0.10600
H 	H 	0.09440 0.92870 0.64310 0.11100
C 	C 	0.10560 0.85980 0.63720 -0.02500
C 	C 	0.12830 0.82739 0.61210 -0.02500
H 	H 	0.12490 0.79710 0.62200 0.06800
C 	C 	0.15770 0.83880 0.57030 -0.02700
C 	C 	0.16190 0.88400 0.55410 -0.11300
H 	H 	0.18080 0.89060 0.52530 0.07400
C 	C 	0.07130 0.84920 0.68050 0.32900
C 	C 	0.18440 0.80260 0.53930 0.34900
C 	C 	0.17430 0.16770 0.58110 0.17000
C 	C 	0.13240 0.23800 0.60330 0.15000
C 	C 	0.16160 0.27190 0.58010 -0.10700
H 	H 	0.18560 0.26340 0.55690 0.10800
C 	C 	0.15490 0.31710 0.59150 -0.02500
C 	C 	0.11940 0.32990 0.62550 -0.02900
H 	H 	0.11620 0.36040 0.63480 0.07100
C 	C 	0.08800 0.29760 0.64630 -0.02000
C 	C 	0.09610 0.25170 0.63490 -0.11900
H 	H 	0.07590 0.22970 0.64940 0.09000
C 	C 	0.18590 0.35220 0.56730 0.32300
C 	C 	0.04900 0.31060 0.68440 0.34100
C 	C 	0.33130 0.02460 0.56950 -0.02800
C 	C 	0.36120 0.05600 0.59940 -0.04900
H 	H 	0.38660 0.05030 0.62210 0.06100
C 	C 	0.33950 0.09860 0.58330 0.03300
C 	C 	0.35800 0.14300 0.60550 0.22900
C 	C 	0.36440 0.22490 0.59550 0.17000
C 	C 	0.33900 0.25970 0.56830 -0.12600
H 	H 	0.31690 0.25330 0.54220 0.10100
C 	C 	0.34980 0.30450 0.58390 -0.00800
C 	C 	0.38310 0.31410 0.61840 -0.03000
H 	H 	0.39070 0.34460 0.62440 0.07100
C 	C 	0.40760 0.28080 0.64600 -0.03300
C 	C 	0.39760 0.23470 0.63190 -0.12200
H 	H 	0.41420 0.21110 0.64800 0.11600
C 	C 	0.44370 0.29250 0.68280 0.34100
C 	C 	0.32260 0.34270 0.55350 0.32300
C 	C 	0.32800 0.97850 0.56790 0.21000
C 	C 	0.36460 0.90550 0.59230 0.13800
C 	C 	0.39340 0.88890 0.63330 -0.10000
H 	H 	0.41020 0.90930 0.65410 0.08500
C 	C 	0.39680 0.84260 0.64260 -0.04100
C 	C 	0.36800 0.81220 0.61570 -0.01500
H 	H 	0.36860 0.78130 0.62360 0.06500
C 	C 	0.33870 0.82820 0.57720 -0.03400
C 	C 	0.33620 0.87380 0.56480 -0.10000
H 	H 	0.31600 0.88360 0.53840 0.09700
C 	C 	0.30840 0.79530 0.54670 0.34100
C 	C 	0.43320 0.82850 0.68140 0.35400
Cu	Cu	0.25445 0.13105 0.51568 0.91100
Cu	Cu	0.24831 0.01511 0.51022 0.82600
Cu	Cu	0.24508 0.77811 0.45932 0.90400
N 	N 	0.20270 0.09556 0.54580 -0.19700
N 	N 	0.19270 0.05144 0.54560 -0.18600
N 	N 	0.30250 0.09441 0.55440 -0.18500
N 	N 	0.29640 0.04973 0.54660 -0.19700
N 	N 	0.13560 0.19070 0.59370 -0.23700
H 	H 	0.10920 0.17540 0.59650 0.13300
N 	N 	0.34950 0.18068 0.58330 -0.26100
H 	H 	0.33160 0.17870 0.55620 0.14900
N 	N 	0.14840 0.96281 0.56800 -0.23300
H 	H 	0.16030 0.96750 0.53780 0.09200
N 	N 	0.36410 0.95260 0.58520 -0.24400
H 	H 	0.39040 0.96670 0.59290 0.13400
O 	O 	0.21790 0.18525 0.57240 -0.26000
O 	O 	0.29270 0.96275 0.54040 -0.35300
O 	O 	0.11400 0.00230 0.63500 -0.20700
O 	O 	0.38190 0.13880 0.64380 -0.22900
O 	O 	0.02205 0.27829 0.69940 -0.40700
O 	O 	0.04905 0.35107 0.69780 -0.40600
O 	O 	0.18410 0.39282 0.58200 -0.28500
O 	O 	0.21271 0.33840 0.53150 -0.38000
O 	O 	0.30317 0.33007 0.51160 -0.39600
O 	O 	0.32210 0.38053 0.57200 -0.30000
O 	O 	0.44730 0.33275 0.69640 -0.40500
O 	O 	0.47165 0.25966 0.69720 -0.38700
O 	O 	0.46110 0.85893 0.69760 -0.41700
O 	O 	0.43276 0.78773 0.69580 -0.40100
O 	O 	0.29691 0.75844 0.56980 -0.39700
O 	O 	0.29130 0.80950 0.50560 -0.40900
O 	O 	0.19520 0.81091 0.49610 -0.42900
O 	O 	0.19795 0.76735 0.56740 -0.38600
O 	O 	0.07188 0.80886 0.69590 -0.39700
O 	O 	0.04411 0.88136 0.69730 -0.39400
C 	C 	0.84640 0.95590 0.07410 0.02600
C 	C 	0.85680 0.90880 0.09740 -0.07700
H 	H 	0.87800 0.90140 0.12400 0.07000
C 	C 	0.82960 0.88260 0.07210 0.03700
C 	C 	0.85790 0.99910 0.09750 0.17400
C 	C 	0.86120 0.08090 0.07940 0.14400
C 	C 	0.89010 0.09360 0.12370 -0.10500
H 	H 	0.90560 0.07130 0.14310 0.11100
C 	C 	0.89440 0.14020 0.13720 -0.02500
C 	C 	0.87170 0.17261 0.11210 -0.02500
H 	H 	0.87510 0.20290 0.12200 0.06800
C 	C 	0.84230 0.16120 0.07030 -0.02700
C 	C 	0.83810 0.11600 0.05410 -0.11300
H 	H 	0.81920 0.10940 0.02530 0.07400
C 	C 	0.92870 0.15080 0.18050 0.32900
C 	C 	0.81560 0.19740 0.03930 0.34900
C 	C 	0.82570 0.83230 0.08110 0.17000
C 	C 	0.86760 0.76200 0.10330 0.15000
C 	C 	0.83840 0.72810 0.08010 -0.10700
H 	H 	0.81440 0.73660 0.05690 0.10800
C 	C 	0.84510 0.68290 0.09150 -0.02500
C 	C 	0.88060 0.67010 0.12550 -0.02900
H 	H 	0.88380 0.63960 0.13480 0.07100
C 	C 	0.91200 0.70240 0.14630 -0.02000
C 	C 	0.90390 0.74830 0.13490 -0.11900
H 	H 	0.92410 0.77030 0.14940 0.09000
C 	C 	0.81410 0.64780 0.06730 0.32300
C 	C 	0.95100 0.68940 0.18440 0.34100
C 	C 	0.66870 0.97540 0.06950 -0.02800
C 	C 	0.63880 0.94400 0.09940 -0.04900
H 	H 	0.61340 0.94970 0.12210 0.06100
C 	C 	0.66050 0.90140 0.08330 0.03300
C 	C 	0.64200 0.85700 0.10550 0.22900
C 	C 	0.63560 0.77510 0.09550 0.17000
C 	C 	0.66100 0.74030 0.06830 -0.12500
H 	H 	0.68310 0.74670 0.04220 0.10100
C 	C 	0.65020 0.69550 0.08390 -0.00800
C 	C 	0.61690 0.68590 0.11840 -0.03000
H 	H 	0.60930 0.65540 0.12440 0.07100
C 	C 	0.59240 0.71920 0.14600 -0.03300
C 	C 	0.60240 0.76530 0.13190 -0.12200
H 	H 	0.58580 0.78890 0.14800 0.11600
C 	C 	0.55630 0.70750 0.18280 0.34100
C 	C 	0.67740 0.65730 0.05350 0.32300
C 	C 	0.67200 0.02150 0.06790 0.21100
C 	C 	0.63540 0.09450 0.09230 0.13800
C 	C 	0.60660 0.11110 0.13330 -0.10000
H 	H 	0.58980 0.09070 0.15410 0.08500
C 	C 	0.60320 0.15740 0.14260 -0.04100
C 	C 	0.63200 0.18780 0.11570 -0.01500
H 	H 	0.63140 0.21870 0.12360 0.06500
C 	C 	0.66130 0.17180 0.07720 -0.03400
C 	C 	0.66380 0.12620 0.06480 -0.10100
H 	H 	0.68400 0.11640 0.03840 0.09700
C 	C 	0.69160 0.20470 0.04670 0.34100
C 	C 	0.56680 0.17150 0.18140 0.35400
Cu	Cu	0.74555 0.86895 0.01568 0.91100
Cu	Cu	0.75169 0.98489 0.01022 0.82600
Cu	Cu	0.75492 0.22189 0.95932 0.90400
N 	N 	0.79730 0.90444 0.04580 -0.19700
N 	N 	0.80730 0.94856 0.04560 -0.18600
N 	N 	0.69750 0.90559 0.05440 -0.18500
N 	N 	0.70360 0.95027 0.04660 -0.19700
N 	N 	0.86440 0.80930 0.09370 -0.23700
H 	H 	0.89080 0.82460 0.09650 0.13300
N 	N 	0.65050 0.81932 0.08330 -0.26100
H 	H 	0.66840 0.82130 0.05620 0.14900
N 	N 	0.85160 0.03719 0.06800 -0.23200
H 	H 	0.83970 0.03250 0.03780 0.09200
N 	N 	0.63590 0.04740 0.08520 -0.24400
H 	H 	0.60960 0.03330 0.09290 0.13400
O 	O 	0.78210 0.81475 0.07240 -0.26000
O 	O 	0.70730 0.03725 0.04040 -0.35300
O 	O 	0.88600 0.99770 0.13500 -0.20700
O 	O 	0.61810 0.86120 0.14380 -0.22900
O 	O 	0.97795 0.72171 0.19940 -0.40700
O 	O 	0.95095 0.64893 0.19780 -0.40600
O 	O 	0.81590 0.60718 0.08200 -0.28500
O 	O 	0.78729 0.66160 0.03150 -0.38000
O 	O 	0.69683 0.66993 0.01160 -0.39600
O 	O 	0.67790 0.61947 0.07200 -0.30000
O 	O 	0.55270 0.66725 0.19640 -0.40500
O 	O 	0.52835 0.74034 0.19720 -0.38700
O 	O 	0.53890 0.14107 0.19760 -0.41700
O 	O 	0.56724 0.21227 0.19580 -0.40100
O 	O 	0.70309 0.24156 0.06980 -0.39700
O 	O 	0.70870 0.19050 0.00560 -0.40900
O 	O 	0.80480 0.18909 0.99610 -0.42900
O 	O 	0.80205 0.23265 0.06740 -0.38600
O 	O 	0.92812 0.19114 0.19590 -0.39700
O 	O 	0.95589 0.11864 0.19730 -0.39400
Cu	Cu	0.99570 0.62728 0.25000 0.91100
Cu	Cu	0.02738 0.71256 0.25000 0.90800
Cu	Cu	0.47753 0.73281 0.25000 0.90300
Cu	Cu	0.50889 0.64767 0.25000 0.91600
Cu	Cu	0.00430 0.37272 0.75000 0.91100
Cu	Cu	0.97262 0.28744 0.75000 0.90800
Cu	Cu	0.52247 0.26719 0.75000 0.90300
Cu	Cu	0.49111 0.35233 0.75000 0.91600
Cu	Cu	0.00430 0.12728 0.25000 0.91100
Cu	Cu	0.97262 0.21256 0.25000 0.90800
Cu	Cu	0.52247 0.23281 0.25000 0.90300
Cu	Cu	0.49111 0.14767 0.25000 0.91600
Cu	Cu	0.99570 0.87272 0.75000 0.91100
Cu	Cu	0.02738 0.78744 0.75000 0.90800
Cu	Cu	0.47753 0.76719 0.75000 0.90300
Cu	Cu	0.50889 0.85233 0.75000 0.91600
