data_crystal

_cell_length_a 42.76450
_cell_length_b 42.76450
_cell_length_c 16.75560
_cell_angle_alpha 90.00000
_cell_angle_beta  90.00000
_cell_angle_gamma 120.00000

_symmetry_space_group_name_	'P 1'
_symmetry_space_group_name_H-M	'P 1'

loop_
_symmetry_equiv_pos_as_xyz
  x,y,z

loop_
_atom_site_label
_atom_site_type_symbol
_atom_site_fract_x
_atom_site_fract_y
_atom_site_fract_z
_atom_site_charge
O 	O 	0.48198 0.57901 0.58060 -0.39600
O 	O 	0.53115 0.58538 0.64460 -0.42400
C 	C 	0.50640 0.59400 0.63040 0.38900
C 	C 	0.50700 0.62270 0.68480 -0.15800
C 	C 	0.47620 0.62500 0.69080 0.08700
H 	H 	0.45580 0.61000 0.65970 0.01800
C 	C 	0.47530 0.64980 0.74340 -0.17300
H 	H 	0.45480 0.65250 0.74620 0.09800
C 	C 	0.50520 0.67060 0.79160 0.13000
C 	C 	0.53540 0.66590 0.78760 -0.18000
H 	H 	0.55530 0.67930 0.82140 0.08400
C 	C 	0.53610 0.64200 0.73530 0.09100
H 	H 	0.55620 0.63860 0.73330 -0.00100
C 	C 	0.50380 0.69570 0.85600 -0.15200
C 	C 	0.50420 0.72700 0.83030 0.11300
C 	C 	0.50640 0.73810 0.74840 -0.08200
H 	H 	0.50760 0.72570 0.70330 0.06200
C 	C 	0.50190 0.65340 0.95940 -0.12500
C 	C 	0.50220 0.68490 0.93410 0.12400
H 	H 	0.52330 0.65320 0.93920 0.06000
H 	H 	0.48030 0.63200 0.93920 0.07000
O 	O 	0.42099 0.90297 0.58060 -0.39600
O 	O 	0.41462 0.94577 0.64460 -0.41900
C 	C 	0.40600 0.91240 0.63040 0.38800
C 	C 	0.37730 0.88430 0.68480 -0.15700
C 	C 	0.37500 0.85120 0.69080 0.08600
H 	H 	0.39000 0.84580 0.65970 0.01800
C 	C 	0.35020 0.82550 0.74340 -0.17200
H 	H 	0.34750 0.80230 0.74620 0.09800
C 	C 	0.32940 0.83460 0.79160 0.13000
C 	C 	0.33410 0.86950 0.78760 -0.17900
H 	H 	0.32070 0.87600 0.82140 0.08400
C 	C 	0.35800 0.89410 0.73530 0.09000
H 	H 	0.36140 0.91760 0.73330 0.00100
C 	C 	0.30430 0.80810 0.85600 -0.15200
C 	C 	0.27300 0.77720 0.83030 0.11300
C 	C 	0.26190 0.76830 0.74840 -0.08200
H 	H 	0.27430 0.78190 0.70330 0.06200
C 	C 	0.34660 0.84850 0.95940 -0.12500
C 	C 	0.31510 0.81730 0.93410 0.12400
H 	H 	0.34680 0.87010 0.93920 0.06100
H 	H 	0.36800 0.84830 0.93920 0.07000
O 	O 	0.09703 0.51802 0.58060 -0.39700
O 	O 	0.05423 0.46885 0.64460 -0.42600
C 	C 	0.08760 0.49360 0.63040 0.38900
C 	C 	0.11570 0.49300 0.68480 -0.15900
C 	C 	0.14880 0.52380 0.69080 0.08700
H 	H 	0.15420 0.54420 0.65970 0.01800
C 	C 	0.17450 0.52470 0.74340 -0.17300
H 	H 	0.19770 0.54520 0.74620 0.09800
C 	C 	0.16540 0.49480 0.79160 0.13000
C 	C 	0.13050 0.46460 0.78760 -0.18100
H 	H 	0.12400 0.44470 0.82140 0.08300
C 	C 	0.10590 0.46390 0.73530 0.09100
H 	H 	0.08240 0.44380 0.73330 -0.00300
C 	C 	0.19190 0.49620 0.85600 -0.15200
C 	C 	0.22280 0.49580 0.83030 0.11300
C 	C 	0.23170 0.49360 0.74840 -0.08200
H 	H 	0.21810 0.49240 0.70330 0.06200
C 	C 	0.15150 0.49810 0.95940 -0.12400
C 	C 	0.18270 0.49780 0.93410 0.12300
H 	H 	0.12990 0.47670 0.93920 0.05900
H 	H 	0.15170 0.51970 0.93920 0.06900
O 	O 	0.51802 0.42099 0.58060 -0.39700
O 	O 	0.46885 0.41462 0.64460 -0.42400
C 	C 	0.49360 0.40600 0.63040 0.38900
C 	C 	0.49300 0.37730 0.68480 -0.15800
C 	C 	0.52380 0.37500 0.69080 0.08700
H 	H 	0.54420 0.39000 0.65970 0.01800
C 	C 	0.52470 0.35020 0.74340 -0.17300
H 	H 	0.54520 0.34750 0.74620 0.09800
C 	C 	0.49480 0.32940 0.79160 0.13000
C 	C 	0.46460 0.33410 0.78760 -0.18000
H 	H 	0.44470 0.32070 0.82140 0.08300
C 	C 	0.46390 0.35800 0.73530 0.09100
H 	H 	0.44380 0.36140 0.73330 -0.00200
C 	C 	0.49620 0.30430 0.85600 -0.15200
C 	C 	0.49580 0.27300 0.83030 0.11300
C 	C 	0.49360 0.26190 0.74840 -0.08200
H 	H 	0.49240 0.27430 0.70330 0.06200
C 	C 	0.49810 0.34660 0.95940 -0.12400
C 	C 	0.49780 0.31510 0.93410 0.12300
H 	H 	0.47670 0.34680 0.93920 0.06000
H 	H 	0.51970 0.36800 0.93920 0.06900
O 	O 	0.57901 0.09703 0.58060 -0.39700
O 	O 	0.58538 0.05423 0.64460 -0.42600
C 	C 	0.59400 0.08760 0.63040 0.38900
C 	C 	0.62270 0.11570 0.68480 -0.15900
C 	C 	0.62500 0.14880 0.69080 0.08700
H 	H 	0.61000 0.15420 0.65970 0.01800
C 	C 	0.64980 0.17450 0.74340 -0.17300
H 	H 	0.65250 0.19770 0.74620 0.09800
C 	C 	0.67060 0.16540 0.79160 0.13000
C 	C 	0.66590 0.13050 0.78760 -0.18100
H 	H 	0.67930 0.12400 0.82140 0.08300
C 	C 	0.64200 0.10590 0.73530 0.09100
H 	H 	0.63860 0.08240 0.73330 -0.00300
C 	C 	0.69570 0.19190 0.85600 -0.15200
C 	C 	0.72700 0.22280 0.83030 0.11300
C 	C 	0.73810 0.23170 0.74840 -0.08200
H 	H 	0.72570 0.21810 0.70330 0.06200
C 	C 	0.65340 0.15150 0.95940 -0.12400
C 	C 	0.68490 0.18270 0.93410 0.12300
H 	H 	0.65320 0.12990 0.93920 0.05900
H 	H 	0.63200 0.15170 0.93920 0.06900
O 	O 	0.90297 0.48198 0.58060 -0.39600
O 	O 	0.94577 0.53115 0.64460 -0.41900
C 	C 	0.91240 0.50640 0.63040 0.38800
C 	C 	0.88430 0.50700 0.68480 -0.15600
C 	C 	0.85120 0.47620 0.69080 0.08600
H 	H 	0.84580 0.45580 0.65970 0.01800
C 	C 	0.82550 0.47530 0.74340 -0.17200
H 	H 	0.80230 0.45480 0.74620 0.09800
C 	C 	0.83460 0.50520 0.79160 0.13000
C 	C 	0.86950 0.53540 0.78760 -0.17900
H 	H 	0.87600 0.55530 0.82140 0.08500
C 	C 	0.89410 0.53610 0.73530 0.09100
H 	H 	0.91760 0.55620 0.73330 0.00100
C 	C 	0.80810 0.50380 0.85600 -0.15200
C 	C 	0.77720 0.50420 0.83030 0.11300
C 	C 	0.76830 0.50640 0.74840 -0.08200
H 	H 	0.78190 0.50760 0.70330 0.06200
C 	C 	0.84850 0.50190 0.95940 -0.12500
C 	C 	0.81730 0.50220 0.93410 0.12400
H 	H 	0.87010 0.52330 0.93920 0.06100
H 	H 	0.84830 0.48030 0.93920 0.07000
O 	O 	0.57901 0.48198 0.41940 -0.39700
O 	O 	0.58538 0.53115 0.35540 -0.42500
C 	C 	0.59400 0.50640 0.36960 0.38900
C 	C 	0.62270 0.50700 0.31520 -0.15900
C 	C 	0.62500 0.47620 0.30920 0.08700
H 	H 	0.61000 0.45580 0.34030 0.01700
C 	C 	0.64980 0.47530 0.25660 -0.17500
H 	H 	0.65250 0.45480 0.25380 0.09800
C 	C 	0.67060 0.50520 0.20840 0.13200
C 	C 	0.66590 0.53540 0.21240 -0.18200
H 	H 	0.67930 0.55530 0.17860 0.08300
C 	C 	0.64200 0.53610 0.26470 0.09100
H 	H 	0.63860 0.55620 0.26670 -0.00200
C 	C 	0.69570 0.50380 0.14400 -0.15800
C 	C 	0.72700 0.50420 0.16970 0.11400
C 	C 	0.73810 0.50640 0.25160 -0.08200
H 	H 	0.72570 0.50760 0.29670 0.06200
C 	C 	0.65340 0.50190 0.04060 -0.17400
C 	C 	0.68490 0.50220 0.06590 0.13100
H 	H 	0.65320 0.52330 0.06080 0.07100
H 	H 	0.63200 0.48030 0.06080 0.08000
O 	O 	0.90297 0.42099 0.41940 -0.39600
O 	O 	0.94577 0.41462 0.35540 -0.42000
C 	C 	0.91240 0.40600 0.36960 0.38800
C 	C 	0.88430 0.37730 0.31520 -0.15800
C 	C 	0.85120 0.37500 0.30920 0.08700
H 	H 	0.84580 0.39000 0.34030 0.01800
C 	C 	0.82550 0.35020 0.25660 -0.17400
H 	H 	0.80230 0.34750 0.25380 0.09800
C 	C 	0.83460 0.32940 0.20840 0.13100
C 	C 	0.86950 0.33410 0.21240 -0.18100
H 	H 	0.87600 0.32070 0.17860 0.08300
C 	C 	0.89410 0.35800 0.26470 0.09100
H 	H 	0.91760 0.36140 0.26670 -0.00100
C 	C 	0.80810 0.30430 0.14400 -0.15800
C 	C 	0.77720 0.27300 0.16970 0.11400
C 	C 	0.76830 0.26190 0.25160 -0.08300
H 	H 	0.78190 0.27430 0.29670 0.06200
C 	C 	0.84850 0.34660 0.04060 -0.17400
C 	C 	0.81730 0.31510 0.06590 0.13100
H 	H 	0.87010 0.34680 0.06080 0.07200
H 	H 	0.84830 0.36800 0.06080 0.08100
O 	O 	0.51802 0.09703 0.41940 -0.39700
O 	O 	0.46885 0.05423 0.35540 -0.42600
C 	C 	0.49360 0.08760 0.36960 0.38900
C 	C 	0.49300 0.11570 0.31520 -0.16000
C 	C 	0.52380 0.14880 0.30920 0.08700
H 	H 	0.54420 0.15420 0.34030 0.01700
C 	C 	0.52470 0.17450 0.25660 -0.17500
H 	H 	0.54520 0.19770 0.25380 0.09800
C 	C 	0.49480 0.16540 0.20840 0.13200
C 	C 	0.46460 0.13050 0.21240 -0.18300
H 	H 	0.44470 0.12400 0.17860 0.08100
C 	C 	0.46390 0.10590 0.26470 0.09100
H 	H 	0.44380 0.08240 0.26670 -0.00400
C 	C 	0.49620 0.19190 0.14400 -0.15800
C 	C 	0.49580 0.22280 0.16970 0.11300
C 	C 	0.49360 0.23170 0.25160 -0.08300
H 	H 	0.49240 0.21810 0.29670 0.06200
C 	C 	0.49810 0.15150 0.04060 -0.17400
C 	C 	0.49780 0.18270 0.06590 0.13100
H 	H 	0.47670 0.12990 0.06080 0.07000
H 	H 	0.51970 0.15170 0.06080 0.08000
O 	O 	0.42099 0.51802 0.41940 -0.39700
O 	O 	0.41462 0.46885 0.35540 -0.42500
C 	C 	0.40600 0.49360 0.36960 0.38900
C 	C 	0.37730 0.49300 0.31520 -0.15900
C 	C 	0.37500 0.52380 0.30920 0.08700
H 	H 	0.39000 0.54420 0.34030 0.01700
C 	C 	0.35020 0.52470 0.25660 -0.17500
H 	H 	0.34750 0.54520 0.25380 0.09800
C 	C 	0.32940 0.49480 0.20840 0.13200
C 	C 	0.33410 0.46460 0.21240 -0.18200
H 	H 	0.32070 0.44470 0.17860 0.08200
C 	C 	0.35800 0.46390 0.26470 0.09100
H 	H 	0.36140 0.44380 0.26670 -0.00300
C 	C 	0.30430 0.49620 0.14400 -0.15800
C 	C 	0.27300 0.49580 0.16970 0.11300
C 	C 	0.26190 0.49360 0.25160 -0.08300
H 	H 	0.27430 0.49240 0.29670 0.06200
C 	C 	0.34660 0.49810 0.04060 -0.17400
C 	C 	0.31510 0.49780 0.06590 0.13100
H 	H 	0.34680 0.47670 0.06080 0.07100
H 	H 	0.36800 0.51970 0.06080 0.08000
O 	O 	0.09703 0.57901 0.41940 -0.39700
O 	O 	0.05423 0.58538 0.35540 -0.42600
C 	C 	0.08760 0.59400 0.36960 0.38900
C 	C 	0.11570 0.62270 0.31520 -0.16000
C 	C 	0.14880 0.62500 0.30920 0.08800
H 	H 	0.15420 0.61000 0.34030 0.01700
C 	C 	0.17450 0.64980 0.25660 -0.17500
H 	H 	0.19770 0.65250 0.25380 0.09800
C 	C 	0.16540 0.67060 0.20840 0.13200
C 	C 	0.13050 0.66590 0.21240 -0.18300
H 	H 	0.12400 0.67930 0.17860 0.08200
C 	C 	0.10590 0.64200 0.26470 0.09200
H 	H 	0.08240 0.63860 0.26670 -0.00400
C 	C 	0.19190 0.69570 0.14400 -0.15800
C 	C 	0.22280 0.72700 0.16970 0.11300
C 	C 	0.23170 0.73810 0.25160 -0.08300
H 	H 	0.21810 0.72570 0.29670 0.06200
C 	C 	0.15150 0.65340 0.04060 -0.17400
C 	C 	0.18270 0.68490 0.06590 0.13100
H 	H 	0.12990 0.65320 0.06080 0.07000
H 	H 	0.15170 0.63200 0.06080 0.08000
O 	O 	0.48198 0.90297 0.41940 -0.39600
O 	O 	0.53115 0.94577 0.35540 -0.42000
C 	C 	0.50640 0.91240 0.36960 0.38800
C 	C 	0.50700 0.88430 0.31520 -0.15700
C 	C 	0.47620 0.85120 0.30920 0.08700
H 	H 	0.45580 0.84580 0.34030 0.01800
C 	C 	0.47530 0.82550 0.25660 -0.17400
H 	H 	0.45480 0.80230 0.25380 0.09800
C 	C 	0.50520 0.83460 0.20840 0.13200
C 	C 	0.53540 0.86950 0.21240 -0.18100
H 	H 	0.55530 0.87600 0.17860 0.08300
C 	C 	0.53610 0.89410 0.26470 0.09100
H 	H 	0.55620 0.91760 0.26670 -0.00000
C 	C 	0.50380 0.80810 0.14400 -0.15800
C 	C 	0.50420 0.77720 0.16970 0.11400
C 	C 	0.50640 0.76830 0.25160 -0.08200
H 	H 	0.50760 0.78190 0.29670 0.06200
C 	C 	0.50190 0.84850 0.04060 -0.17400
C 	C 	0.50220 0.81730 0.06590 0.13100
H 	H 	0.52330 0.87010 0.06080 0.07200
H 	H 	0.48030 0.84830 0.06080 0.08100
O 	O 	0.51802 0.42099 0.41940 -0.39700
O 	O 	0.46885 0.41462 0.35540 -0.42500
C 	C 	0.49360 0.40600 0.36960 0.38900
C 	C 	0.49300 0.37730 0.31520 -0.15900
C 	C 	0.52380 0.37500 0.30920 0.08700
H 	H 	0.54420 0.39000 0.34030 0.01700
C 	C 	0.52470 0.35020 0.25660 -0.17500
H 	H 	0.54520 0.34750 0.25380 0.09800
C 	C 	0.49480 0.32940 0.20840 0.13200
C 	C 	0.46460 0.33410 0.21240 -0.18200
H 	H 	0.44470 0.32070 0.17860 0.08200
C 	C 	0.46390 0.35800 0.26470 0.09100
H 	H 	0.44380 0.36140 0.26670 -0.00300
C 	C 	0.49620 0.30430 0.14400 -0.15800
C 	C 	0.49580 0.27300 0.16970 0.11300
C 	C 	0.49360 0.26190 0.25160 -0.08300
H 	H 	0.49240 0.27430 0.29670 0.06200
C 	C 	0.49810 0.34660 0.04060 -0.17400
C 	C 	0.49780 0.31510 0.06590 0.13100
H 	H 	0.47670 0.34680 0.06080 0.07100
H 	H 	0.51970 0.36800 0.06080 0.08000
O 	O 	0.57901 0.09703 0.41940 -0.39700
O 	O 	0.58538 0.05423 0.35540 -0.42600
C 	C 	0.59400 0.08760 0.36960 0.38900
C 	C 	0.62270 0.11570 0.31520 -0.16000
C 	C 	0.62500 0.14880 0.30920 0.08800
H 	H 	0.61000 0.15420 0.34030 0.01700
C 	C 	0.64980 0.17450 0.25660 -0.17500
H 	H 	0.65250 0.19770 0.25380 0.09800
C 	C 	0.67060 0.16540 0.20840 0.13200
C 	C 	0.66590 0.13050 0.21240 -0.18300
H 	H 	0.67930 0.12400 0.17860 0.08200
C 	C 	0.64200 0.10590 0.26470 0.09200
H 	H 	0.63860 0.08240 0.26670 -0.00400
C 	C 	0.69570 0.19190 0.14400 -0.15800
C 	C 	0.72700 0.22280 0.16970 0.11300
C 	C 	0.73810 0.23170 0.25160 -0.08300
H 	H 	0.72570 0.21810 0.29670 0.06200
C 	C 	0.65340 0.15150 0.04060 -0.17400
C 	C 	0.68490 0.18270 0.06590 0.13100
H 	H 	0.65320 0.12990 0.06080 0.07000
H 	H 	0.63200 0.15170 0.06080 0.08000
O 	O 	0.90297 0.48198 0.41940 -0.39600
O 	O 	0.94577 0.53115 0.35540 -0.42000
C 	C 	0.91240 0.50640 0.36960 0.38800
C 	C 	0.88430 0.50700 0.31520 -0.15700
C 	C 	0.85120 0.47620 0.30920 0.08700
H 	H 	0.84580 0.45580 0.34030 0.01800
C 	C 	0.82550 0.47530 0.25660 -0.17400
H 	H 	0.80230 0.45480 0.25380 0.09800
C 	C 	0.83460 0.50520 0.20840 0.13200
C 	C 	0.86950 0.53540 0.21240 -0.18100
H 	H 	0.87600 0.55530 0.17860 0.08300
C 	C 	0.89410 0.53610 0.26470 0.09100
H 	H 	0.91760 0.55620 0.26670 -0.00000
C 	C 	0.80810 0.50380 0.14400 -0.15800
C 	C 	0.77720 0.50420 0.16970 0.11400
C 	C 	0.76830 0.50640 0.25160 -0.08200
H 	H 	0.78190 0.50760 0.29670 0.06200
C 	C 	0.84850 0.50190 0.04060 -0.17400
C 	C 	0.81730 0.50220 0.06590 0.13100
H 	H 	0.87010 0.52330 0.06080 0.07200
H 	H 	0.84830 0.48030 0.06080 0.08100
O 	O 	0.48198 0.57901 0.41940 -0.39700
O 	O 	0.53115 0.58538 0.35540 -0.42500
C 	C 	0.50640 0.59400 0.36960 0.38900
C 	C 	0.50700 0.62270 0.31520 -0.15900
C 	C 	0.47620 0.62500 0.30920 0.08700
H 	H 	0.45580 0.61000 0.34030 0.01700
C 	C 	0.47530 0.64980 0.25660 -0.17500
H 	H 	0.45480 0.65250 0.25380 0.09800
C 	C 	0.50520 0.67060 0.20840 0.13200
C 	C 	0.53540 0.66590 0.21240 -0.18200
H 	H 	0.55530 0.67930 0.17860 0.08300
C 	C 	0.53610 0.64200 0.26470 0.09100
H 	H 	0.55620 0.63860 0.26670 -0.00200
C 	C 	0.50380 0.69570 0.14400 -0.15800
C 	C 	0.50420 0.72700 0.16970 0.11400
C 	C 	0.50640 0.73810 0.25160 -0.08200
H 	H 	0.50760 0.72570 0.29670 0.06200
C 	C 	0.50190 0.65340 0.04060 -0.17400
C 	C 	0.50220 0.68490 0.06590 0.13100
H 	H 	0.52330 0.65320 0.06080 0.07100
H 	H 	0.48030 0.63200 0.06080 0.08000
O 	O 	0.42099 0.90297 0.41940 -0.39600
O 	O 	0.41462 0.94577 0.35540 -0.42000
C 	C 	0.40600 0.91240 0.36960 0.38800
C 	C 	0.37730 0.88430 0.31520 -0.15800
C 	C 	0.37500 0.85120 0.30920 0.08700
H 	H 	0.39000 0.84580 0.34030 0.01800
C 	C 	0.35020 0.82550 0.25660 -0.17400
H 	H 	0.34750 0.80230 0.25380 0.09800
C 	C 	0.32940 0.83460 0.20840 0.13100
C 	C 	0.33410 0.86950 0.21240 -0.18100
H 	H 	0.32070 0.87600 0.17860 0.08300
C 	C 	0.35800 0.89410 0.26470 0.09100
H 	H 	0.36140 0.91760 0.26670 -0.00100
C 	C 	0.30430 0.80810 0.14400 -0.15800
C 	C 	0.27300 0.77720 0.16970 0.11400
C 	C 	0.26190 0.76830 0.25160 -0.08300
H 	H 	0.27430 0.78190 0.29670 0.06200
C 	C 	0.34660 0.84850 0.04060 -0.17400
C 	C 	0.31510 0.81730 0.06590 0.13100
H 	H 	0.34680 0.87010 0.06080 0.07200
H 	H 	0.36800 0.84830 0.06080 0.08100
O 	O 	0.09703 0.51802 0.41940 -0.39700
O 	O 	0.05423 0.46885 0.35540 -0.42600
C 	C 	0.08760 0.49360 0.36960 0.38900
C 	C 	0.11570 0.49300 0.31520 -0.16000
C 	C 	0.14880 0.52380 0.30920 0.08700
H 	H 	0.15420 0.54420 0.34030 0.01700
C 	C 	0.17450 0.52470 0.25660 -0.17500
H 	H 	0.19770 0.54520 0.25380 0.09800
C 	C 	0.16540 0.49480 0.20840 0.13200
C 	C 	0.13050 0.46460 0.21240 -0.18300
H 	H 	0.12400 0.44470 0.17860 0.08100
C 	C 	0.10590 0.46390 0.26470 0.09100
H 	H 	0.08240 0.44380 0.26670 -0.00400
C 	C 	0.19190 0.49620 0.14400 -0.15800
C 	C 	0.22280 0.49580 0.16970 0.11300
C 	C 	0.23170 0.49360 0.25160 -0.08300
H 	H 	0.21810 0.49240 0.29670 0.06200
C 	C 	0.15150 0.49810 0.04060 -0.17400
C 	C 	0.18270 0.49780 0.06590 0.13100
H 	H 	0.12990 0.47670 0.06080 0.07000
H 	H 	0.15170 0.51970 0.06080 0.08000
O 	O 	0.42099 0.51802 0.58060 -0.39700
O 	O 	0.41462 0.46885 0.64460 -0.42400
C 	C 	0.40600 0.49360 0.63040 0.38900
C 	C 	0.37730 0.49300 0.68480 -0.15800
C 	C 	0.37500 0.52380 0.69080 0.08700
H 	H 	0.39000 0.54420 0.65970 0.01800
C 	C 	0.35020 0.52470 0.74340 -0.17300
H 	H 	0.34750 0.54520 0.74620 0.09800
C 	C 	0.32940 0.49480 0.79160 0.13000
C 	C 	0.33410 0.46460 0.78760 -0.18000
H 	H 	0.32070 0.44470 0.82140 0.08300
C 	C 	0.35800 0.46390 0.73530 0.09100
H 	H 	0.36140 0.44380 0.73330 -0.00200
C 	C 	0.30430 0.49620 0.85600 -0.15200
C 	C 	0.27300 0.49580 0.83030 0.11300
C 	C 	0.26190 0.49360 0.74840 -0.08200
H 	H 	0.27430 0.49240 0.70330 0.06200
C 	C 	0.34660 0.49810 0.95940 -0.12400
C 	C 	0.31510 0.49780 0.93410 0.12300
H 	H 	0.34680 0.47670 0.93920 0.06000
H 	H 	0.36800 0.51970 0.93920 0.06900
O 	O 	0.09703 0.57901 0.58060 -0.39700
O 	O 	0.05423 0.58538 0.64460 -0.42600
C 	C 	0.08760 0.59400 0.63040 0.38900
C 	C 	0.11570 0.62270 0.68480 -0.15900
C 	C 	0.14880 0.62500 0.69080 0.08700
H 	H 	0.15420 0.61000 0.65970 0.01800
C 	C 	0.17450 0.64980 0.74340 -0.17300
H 	H 	0.19770 0.65250 0.74620 0.09800
C 	C 	0.16540 0.67060 0.79160 0.13000
C 	C 	0.13050 0.66590 0.78760 -0.18100
H 	H 	0.12400 0.67930 0.82140 0.08300
C 	C 	0.10590 0.64200 0.73530 0.09100
H 	H 	0.08240 0.63860 0.73330 -0.00300
C 	C 	0.19190 0.69570 0.85600 -0.15200
C 	C 	0.22280 0.72700 0.83030 0.11300
C 	C 	0.23170 0.73810 0.74840 -0.08200
H 	H 	0.21810 0.72570 0.70330 0.06200
C 	C 	0.15150 0.65340 0.95940 -0.12400
C 	C 	0.18270 0.68490 0.93410 0.12300
H 	H 	0.12990 0.65320 0.93920 0.05900
H 	H 	0.15170 0.63200 0.93920 0.06900
O 	O 	0.48198 0.90297 0.58060 -0.39600
O 	O 	0.53115 0.94577 0.64460 -0.41900
C 	C 	0.50640 0.91240 0.63040 0.38800
C 	C 	0.50700 0.88430 0.68480 -0.15600
C 	C 	0.47620 0.85120 0.69080 0.08600
H 	H 	0.45580 0.84580 0.65970 0.01800
C 	C 	0.47530 0.82550 0.74340 -0.17200
H 	H 	0.45480 0.80230 0.74620 0.09800
C 	C 	0.50520 0.83460 0.79160 0.13000
C 	C 	0.53540 0.86950 0.78760 -0.17900
H 	H 	0.55530 0.87600 0.82140 0.08500
C 	C 	0.53610 0.89410 0.73530 0.09100
H 	H 	0.55620 0.91760 0.73330 0.00100
C 	C 	0.50380 0.80810 0.85600 -0.15200
C 	C 	0.50420 0.77720 0.83030 0.11300
C 	C 	0.50640 0.76830 0.74840 -0.08200
H 	H 	0.50760 0.78190 0.70330 0.06200
C 	C 	0.50190 0.84850 0.95940 -0.12500
C 	C 	0.50220 0.81730 0.93410 0.12400
H 	H 	0.52330 0.87010 0.93920 0.06100
H 	H 	0.48030 0.84830 0.93920 0.07000
O 	O 	0.57901 0.48198 0.58060 -0.39600
O 	O 	0.58538 0.53115 0.64460 -0.42400
C 	C 	0.59400 0.50640 0.63040 0.38900
C 	C 	0.62270 0.50700 0.68480 -0.15800
C 	C 	0.62500 0.47620 0.69080 0.08700
H 	H 	0.61000 0.45580 0.65970 0.01800
C 	C 	0.64980 0.47530 0.74340 -0.17300
H 	H 	0.65250 0.45480 0.74620 0.09800
C 	C 	0.67060 0.50520 0.79160 0.13000
C 	C 	0.66590 0.53540 0.78760 -0.18000
H 	H 	0.67930 0.55530 0.82140 0.08400
C 	C 	0.64200 0.53610 0.73530 0.09100
H 	H 	0.63860 0.55620 0.73330 -0.00100
C 	C 	0.69570 0.50380 0.85600 -0.15200
C 	C 	0.72700 0.50420 0.83030 0.11300
C 	C 	0.73810 0.50640 0.74840 -0.08200
H 	H 	0.72570 0.50760 0.70330 0.06200
C 	C 	0.65340 0.50190 0.95940 -0.12500
C 	C 	0.68490 0.50220 0.93410 0.12400
H 	H 	0.65320 0.52330 0.93920 0.06000
H 	H 	0.63200 0.48030 0.93920 0.07000
O 	O 	0.90297 0.42099 0.58060 -0.39600
O 	O 	0.94577 0.41462 0.64460 -0.41900
C 	C 	0.91240 0.40600 0.63040 0.38800
C 	C 	0.88430 0.37730 0.68480 -0.15700
C 	C 	0.85120 0.37500 0.69080 0.08600
H 	H 	0.84580 0.39000 0.65970 0.01800
C 	C 	0.82550 0.35020 0.74340 -0.17200
H 	H 	0.80230 0.34750 0.74620 0.09800
C 	C 	0.83460 0.32940 0.79160 0.13000
C 	C 	0.86950 0.33410 0.78760 -0.17900
H 	H 	0.87600 0.32070 0.82140 0.08400
C 	C 	0.89410 0.35800 0.73530 0.09000
H 	H 	0.91760 0.36140 0.73330 0.00100
C 	C 	0.80810 0.30430 0.85600 -0.15200
C 	C 	0.77720 0.27300 0.83030 0.11300
C 	C 	0.76830 0.26190 0.74840 -0.08200
H 	H 	0.78190 0.27430 0.70330 0.06200
C 	C 	0.84850 0.34660 0.95940 -0.12500
C 	C 	0.81730 0.31510 0.93410 0.12400
H 	H 	0.87010 0.34680 0.93920 0.06100
H 	H 	0.84830 0.36800 0.93920 0.07000
O 	O 	0.51802 0.09703 0.58060 -0.39700
O 	O 	0.46885 0.05423 0.64460 -0.42600
C 	C 	0.49360 0.08760 0.63040 0.38900
C 	C 	0.49300 0.11570 0.68480 -0.15900
C 	C 	0.52380 0.14880 0.69080 0.08700
H 	H 	0.54420 0.15420 0.65970 0.01800
C 	C 	0.52470 0.17450 0.74340 -0.17300
H 	H 	0.54520 0.19770 0.74620 0.09800
C 	C 	0.49480 0.16540 0.79160 0.13000
C 	C 	0.46460 0.13050 0.78760 -0.18100
H 	H 	0.44470 0.12400 0.82140 0.08300
C 	C 	0.46390 0.10590 0.73530 0.09100
H 	H 	0.44380 0.08240 0.73330 -0.00300
C 	C 	0.49620 0.19190 0.85600 -0.15200
C 	C 	0.49580 0.22280 0.83030 0.11300
C 	C 	0.49360 0.23170 0.74840 -0.08200
H 	H 	0.49240 0.21810 0.70330 0.06200
C 	C 	0.49810 0.15150 0.95940 -0.12400
C 	C 	0.49780 0.18270 0.93410 0.12300
H 	H 	0.47670 0.12990 0.93920 0.05900
H 	H 	0.51970 0.15170 0.93920 0.06900
Hf	Hf	0.46655 0.53345 0.50000 1.50500
Hf	Hf	0.46655 0.93310 0.50000 1.50500
Hf	Hf	0.06690 0.53345 0.50000 1.50500
Hf	Hf	0.53345 0.46655 0.50000 1.50500
Hf	Hf	0.53345 0.06690 0.50000 1.50500
Hf	Hf	0.93310 0.46655 0.50000 1.50500
Hf	Hf	0.45920 0.45920 0.60321 1.36700
Hf	Hf	0.54080 0.00000 0.60321 1.35700
Hf	Hf	-0.00000 0.54080 0.60321 1.35700
Hf	Hf	0.54080 0.54080 0.60321 1.36700
Hf	Hf	0.45920 0.00000 0.60321 1.35700
Hf	Hf	-0.00000 0.45920 0.60321 1.35700
Hf	Hf	0.45920 0.45920 0.39679 1.36700
Hf	Hf	-0.00000 0.54080 0.39679 1.35600
Hf	Hf	0.54080 0.00000 0.39679 1.35600
Hf	Hf	0.54080 0.54080 0.39679 1.36700
Hf	Hf	-0.00000 0.45920 0.39679 1.35600
Hf	Hf	0.45920 0.00000 0.39679 1.35600
Fe	Fe	0.49574 0.74787 -0.00000 1.15100
Cl	Cl	0.42990 0.71495 -0.00000 -0.43500
Fe	Fe	0.25213 0.74787 -0.00000 1.15000
Cl	Cl	0.28505 0.71495 -0.00000 -0.43500
Fe	Fe	0.25213 0.50426 -0.00000 1.15000
Cl	Cl	0.28505 0.57010 -0.00000 -0.43500
Fe	Fe	0.50426 0.25213 -0.00000 1.15000
Cl	Cl	0.57010 0.28505 -0.00000 -0.43500
Fe	Fe	0.74787 0.25213 -0.00000 1.15000
Cl	Cl	0.71495 0.28505 -0.00000 -0.43500
Fe	Fe	0.74787 0.49574 -0.00000 1.15100
Cl	Cl	0.71495 0.42990 -0.00000 -0.43500
O 	O 	0.48399 0.51601 0.60560 -0.57500
O 	O 	0.48399 0.96798 0.60560 -0.56800
O 	O 	0.03202 0.51601 0.60560 -0.57700
O 	O 	0.51601 0.48399 0.60560 -0.57500
O 	O 	0.51601 0.03202 0.60560 -0.57700
O 	O 	0.96798 0.48399 0.60560 -0.56800
O 	O 	0.51601 0.48399 0.39440 -0.57600
O 	O 	0.96798 0.48399 0.39440 -0.56800
O 	O 	0.51601 0.03202 0.39440 -0.57700
O 	O 	0.48399 0.51601 0.39440 -0.57600
O 	O 	0.03202 0.51601 0.39440 -0.57700
O 	O 	0.48399 0.96798 0.39440 -0.56800
O 	O 	0.44390 0.47688 0.50000 -0.59300
O 	O 	0.52312 0.96702 0.50000 -0.58600
O 	O 	0.03298 0.55610 0.50000 -0.59400
O 	O 	0.55610 0.52312 0.50000 -0.59300
O 	O 	0.47688 0.03298 0.50000 -0.59400
O 	O 	0.96702 0.44390 0.50000 -0.58600
O 	O 	0.47688 0.44390 0.50000 -0.59300
O 	O 	0.96702 0.52312 0.50000 -0.58600
O 	O 	0.55610 0.03298 0.50000 -0.59400
O 	O 	0.52312 0.55610 0.50000 -0.59300
O 	O 	0.03298 0.47688 0.50000 -0.59400
O 	O 	0.44390 0.96702 0.50000 -0.58600
N 	N 	0.50130 0.75065 0.87920 -0.26200
N 	N 	0.24935 0.75065 0.87920 -0.26300
N 	N 	0.24935 0.49870 0.87920 -0.26300
N 	N 	0.49870 0.24935 0.87920 -0.26300
N 	N 	0.75065 0.24935 0.87920 -0.26300
N 	N 	0.75065 0.50130 0.87920 -0.26200
N 	N 	0.75065 0.50130 0.12080 -0.26600
N 	N 	0.75065 0.24935 0.12080 -0.26600
N 	N 	0.49870 0.24935 0.12080 -0.26600
N 	N 	0.24935 0.49870 0.12080 -0.26600
N 	N 	0.24935 0.75065 0.12080 -0.26600
N 	N 	0.50130 0.75065 0.12080 -0.26600
N 	N 	0.50270 0.70510 -0.00000 -0.27700
N 	N 	0.29490 0.79760 -0.00000 -0.27700
N 	N 	0.20240 0.49730 -0.00000 -0.27700
N 	N 	0.49730 0.29490 -0.00000 -0.27700
N 	N 	0.70510 0.20240 -0.00000 -0.27700
N 	N 	0.79760 0.50270 -0.00000 -0.27700
N 	N 	0.70510 0.50270 -0.00000 -0.27700
N 	N 	0.79760 0.29490 -0.00000 -0.27700
N 	N 	0.49730 0.20240 -0.00000 -0.27700
N 	N 	0.29490 0.49730 -0.00000 -0.27700
N 	N 	0.20240 0.70510 -0.00000 -0.27700
N 	N 	0.50270 0.79760 -0.00000 -0.27700
