data_crystal

_cell_length_a 26.31360
_cell_length_b 26.31360
_cell_length_c 26.31360
_cell_angle_alpha 90.00000
_cell_angle_beta  90.00000
_cell_angle_gamma 90.00000

_symmetry_space_group_name_	'P 1'
_symmetry_space_group_name_H-M	'P 1'

loop_
_symmetry_equiv_pos_as_xyz
  x,y,z

loop_
_atom_site_label
_atom_site_type_symbol
_atom_site_fract_x
_atom_site_fract_y
_atom_site_fract_z
_atom_site_charge
O 	O 	0.05191 0.18253 0.25688 0.41400
O 	O 	0.05191 0.68253 0.75688 0.41000
O 	O 	0.55191 0.18253 0.75688 0.42300
O 	O 	0.55191 0.68253 0.25688 0.42400
O 	O 	0.94809 0.81747 0.25688 0.45300
O 	O 	0.94809 0.31747 0.75688 0.45100
O 	O 	0.44809 0.81747 0.75688 0.42300
O 	O 	0.44809 0.31747 0.25688 0.42600
O 	O 	0.94809 0.18253 0.74312 0.45500
O 	O 	0.94809 0.68253 0.24312 0.45600
O 	O 	0.44809 0.18253 0.24312 0.43000
O 	O 	0.44809 0.68253 0.74312 0.42700
O 	O 	0.05191 0.81747 0.74312 0.41500
O 	O 	0.05191 0.31747 0.24312 0.41700
O 	O 	0.55191 0.81747 0.24312 0.42900
O 	O 	0.55191 0.31747 0.74312 0.42700
O 	O 	0.25688 0.05191 0.18253 0.41400
O 	O 	0.25688 0.55191 0.68253 0.42400
O 	O 	0.75688 0.05191 0.68253 0.41000
O 	O 	0.75688 0.55191 0.18253 0.42300
O 	O 	0.25688 0.94809 0.81747 0.45300
O 	O 	0.25688 0.44809 0.31747 0.42600
O 	O 	0.75688 0.94809 0.31747 0.45100
O 	O 	0.75688 0.44809 0.81747 0.42300
O 	O 	0.74312 0.94809 0.18253 0.45500
O 	O 	0.74312 0.44809 0.68253 0.42700
O 	O 	0.24312 0.94809 0.68253 0.45600
O 	O 	0.24312 0.44809 0.18253 0.43000
O 	O 	0.74312 0.05191 0.81747 0.41500
O 	O 	0.74312 0.55191 0.31747 0.42700
O 	O 	0.24312 0.05191 0.31747 0.41700
O 	O 	0.24312 0.55191 0.81747 0.42900
O 	O 	0.18253 0.25688 0.05191 0.41400
O 	O 	0.18253 0.75688 0.55191 0.42300
O 	O 	0.68253 0.25688 0.55191 0.42400
O 	O 	0.68253 0.75688 0.05191 0.41000
O 	O 	0.81747 0.25688 0.94809 0.45300
O 	O 	0.81747 0.75688 0.44809 0.42300
O 	O 	0.31747 0.25688 0.44809 0.42600
O 	O 	0.31747 0.75688 0.94809 0.45100
O 	O 	0.18253 0.74312 0.94809 0.45500
O 	O 	0.18253 0.24312 0.44809 0.43000
O 	O 	0.68253 0.74312 0.44809 0.42700
O 	O 	0.68253 0.24312 0.94809 0.45600
O 	O 	0.81747 0.74312 0.05191 0.41500
O 	O 	0.81747 0.24312 0.55191 0.42900
O 	O 	0.31747 0.74312 0.55191 0.42700
O 	O 	0.31747 0.24312 0.05191 0.41700
O 	O 	0.18253 0.05191 0.74312 0.41500
O 	O 	0.18253 0.55191 0.24312 0.42900
O 	O 	0.68253 0.05191 0.24312 0.41600
O 	O 	0.68253 0.55191 0.74312 0.42600
O 	O 	0.81747 0.94809 0.74312 0.45500
O 	O 	0.81747 0.44809 0.24312 0.42900
O 	O 	0.31747 0.94809 0.24312 0.45700
O 	O 	0.31747 0.44809 0.74312 0.42800
O 	O 	0.18253 0.94809 0.25688 0.45300
O 	O 	0.18253 0.44809 0.75688 0.42400
O 	O 	0.68253 0.94809 0.75688 0.45000
O 	O 	0.68253 0.44809 0.25688 0.42500
O 	O 	0.81747 0.05191 0.25688 0.41300
O 	O 	0.81747 0.55191 0.75688 0.42300
O 	O 	0.31747 0.05191 0.75688 0.41100
O 	O 	0.31747 0.55191 0.25688 0.42500
O 	O 	0.05191 0.25688 0.81747 0.41300
O 	O 	0.05191 0.75688 0.31747 0.41100
O 	O 	0.55191 0.25688 0.31747 0.42500
O 	O 	0.55191 0.75688 0.81747 0.42300
O 	O 	0.94809 0.25688 0.18253 0.45300
O 	O 	0.94809 0.75688 0.68253 0.45000
O 	O 	0.44809 0.25688 0.68253 0.42500
O 	O 	0.44809 0.75688 0.18253 0.42400
O 	O 	0.94809 0.74312 0.81747 0.45500
O 	O 	0.94809 0.24312 0.31747 0.45700
O 	O 	0.44809 0.74312 0.31747 0.42800
O 	O 	0.44809 0.24312 0.81747 0.42900
O 	O 	0.05191 0.74312 0.18253 0.41500
O 	O 	0.05191 0.24312 0.68253 0.41600
O 	O 	0.55191 0.74312 0.68253 0.42600
O 	O 	0.55191 0.24312 0.18253 0.42900
O 	O 	0.25688 0.18253 0.94809 0.45300
O 	O 	0.25688 0.68253 0.44809 0.42500
O 	O 	0.75688 0.18253 0.44809 0.42400
O 	O 	0.75688 0.68253 0.94809 0.45000
O 	O 	0.25688 0.81747 0.05191 0.41300
O 	O 	0.25688 0.31747 0.55191 0.42500
O 	O 	0.75688 0.81747 0.55191 0.42300
O 	O 	0.75688 0.31747 0.05191 0.41100
O 	O 	0.74312 0.18253 0.05191 0.41500
O 	O 	0.74312 0.68253 0.55191 0.42600
O 	O 	0.24312 0.18253 0.55191 0.42900
O 	O 	0.24312 0.68253 0.05191 0.41600
O 	O 	0.74312 0.81747 0.94809 0.45500
O 	O 	0.74312 0.31747 0.44809 0.42800
O 	O 	0.24312 0.81747 0.44809 0.42900
O 	O 	0.24312 0.31747 0.94809 0.45700
O 	O 	0.94809 0.81747 0.74312 0.45500
O 	O 	0.94809 0.31747 0.24312 0.45700
O 	O 	0.44809 0.81747 0.24312 0.42900
O 	O 	0.44809 0.31747 0.74312 0.42800
O 	O 	0.05191 0.18253 0.74312 0.41500
O 	O 	0.05191 0.68253 0.24312 0.41600
O 	O 	0.55191 0.18253 0.24312 0.42900
O 	O 	0.55191 0.68253 0.74312 0.42600
O 	O 	0.05191 0.81747 0.25688 0.41300
O 	O 	0.05191 0.31747 0.75688 0.41100
O 	O 	0.55191 0.81747 0.75688 0.42300
O 	O 	0.55191 0.31747 0.25688 0.42500
O 	O 	0.94809 0.18253 0.25688 0.45300
O 	O 	0.94809 0.68253 0.75688 0.45000
O 	O 	0.44809 0.18253 0.75688 0.42400
O 	O 	0.44809 0.68253 0.25688 0.42500
O 	O 	0.74312 0.94809 0.81747 0.45500
O 	O 	0.74312 0.44809 0.31747 0.42800
O 	O 	0.24312 0.94809 0.31747 0.45700
O 	O 	0.24312 0.44809 0.81747 0.42900
O 	O 	0.74312 0.05191 0.18253 0.41500
O 	O 	0.74312 0.55191 0.68253 0.42600
O 	O 	0.24312 0.05191 0.68253 0.41600
O 	O 	0.24312 0.55191 0.18253 0.42900
O 	O 	0.25688 0.05191 0.81747 0.41300
O 	O 	0.25688 0.55191 0.31747 0.42500
O 	O 	0.75688 0.05191 0.31747 0.41100
O 	O 	0.75688 0.55191 0.81747 0.42300
O 	O 	0.25688 0.94809 0.18253 0.45300
O 	O 	0.25688 0.44809 0.68253 0.42500
O 	O 	0.75688 0.94809 0.68253 0.45000
O 	O 	0.75688 0.44809 0.18253 0.42400
O 	O 	0.81747 0.74312 0.94809 0.45500
O 	O 	0.81747 0.24312 0.44809 0.42900
O 	O 	0.31747 0.74312 0.44809 0.42800
O 	O 	0.31747 0.24312 0.94809 0.45700
O 	O 	0.18253 0.74312 0.05191 0.41500
O 	O 	0.18253 0.24312 0.55191 0.42900
O 	O 	0.68253 0.74312 0.55191 0.42600
O 	O 	0.68253 0.24312 0.05191 0.41600
O 	O 	0.81747 0.25688 0.05191 0.41300
O 	O 	0.81747 0.75688 0.55191 0.42300
O 	O 	0.31747 0.25688 0.55191 0.42500
O 	O 	0.31747 0.75688 0.05191 0.41100
O 	O 	0.18253 0.25688 0.94809 0.45300
O 	O 	0.18253 0.75688 0.44809 0.42400
O 	O 	0.68253 0.25688 0.44809 0.42500
O 	O 	0.68253 0.75688 0.94809 0.45000
O 	O 	0.81747 0.94809 0.25688 0.45300
O 	O 	0.81747 0.44809 0.75688 0.42300
O 	O 	0.31747 0.94809 0.75688 0.45100
O 	O 	0.31747 0.44809 0.25688 0.42600
O 	O 	0.18253 0.05191 0.25688 0.41400
O 	O 	0.18253 0.55191 0.75688 0.42300
O 	O 	0.68253 0.05191 0.75688 0.41000
O 	O 	0.68253 0.55191 0.25688 0.42400
O 	O 	0.81747 0.05191 0.74312 0.41500
O 	O 	0.81747 0.55191 0.24312 0.42900
O 	O 	0.31747 0.05191 0.24312 0.41700
O 	O 	0.31747 0.55191 0.74312 0.42700
O 	O 	0.18253 0.94809 0.74312 0.45500
O 	O 	0.18253 0.44809 0.24312 0.43000
O 	O 	0.68253 0.94809 0.24312 0.45600
O 	O 	0.68253 0.44809 0.74312 0.42700
O 	O 	0.94809 0.74312 0.18253 0.45500
O 	O 	0.94809 0.24312 0.68253 0.45600
O 	O 	0.44809 0.74312 0.68253 0.42700
O 	O 	0.44809 0.24312 0.18253 0.43000
O 	O 	0.05191 0.74312 0.81747 0.41500
O 	O 	0.05191 0.24312 0.31747 0.41700
O 	O 	0.55191 0.74312 0.31747 0.42700
O 	O 	0.55191 0.24312 0.81747 0.42900
O 	O 	0.05191 0.25688 0.18253 0.41400
O 	O 	0.05191 0.75688 0.68253 0.41000
O 	O 	0.55191 0.25688 0.68253 0.42400
O 	O 	0.55191 0.75688 0.18253 0.42300
O 	O 	0.94809 0.25688 0.81747 0.45300
O 	O 	0.94809 0.75688 0.31747 0.45100
O 	O 	0.44809 0.25688 0.31747 0.42600
O 	O 	0.44809 0.75688 0.81747 0.42300
O 	O 	0.74312 0.81747 0.05191 0.41500
O 	O 	0.74312 0.31747 0.55191 0.42700
O 	O 	0.24312 0.81747 0.55191 0.42900
O 	O 	0.24312 0.31747 0.05191 0.41700
O 	O 	0.74312 0.18253 0.94809 0.45500
O 	O 	0.74312 0.68253 0.44809 0.42700
O 	O 	0.24312 0.18253 0.44809 0.43000
O 	O 	0.24312 0.68253 0.94809 0.45600
O 	O 	0.25688 0.81747 0.94809 0.45300
O 	O 	0.25688 0.31747 0.44809 0.42600
O 	O 	0.75688 0.81747 0.44809 0.42300
O 	O 	0.75688 0.31747 0.94809 0.45100
O 	O 	0.25688 0.18253 0.05191 0.41400
O 	O 	0.25688 0.68253 0.55191 0.42400
O 	O 	0.75688 0.18253 0.55191 0.42300
O 	O 	0.75688 0.68253 0.05191 0.41000
Cu	Cu	-0.00000 0.21448 0.21448 0.93500
Cu	Cu	0.00000 0.71448 0.71448 0.93700
Cu	Cu	0.50000 0.21448 0.71448 0.96700
Cu	Cu	0.50000 0.71448 0.21448 0.96700
Cu	Cu	0.00000 0.78552 0.21448 0.93800
Cu	Cu	0.00000 0.28552 0.71448 0.93700
Cu	Cu	0.50000 0.78552 0.71448 0.97000
Cu	Cu	0.50000 0.28552 0.21448 0.96700
Cu	Cu	0.00000 0.21448 0.78552 0.93800
Cu	Cu	0.00000 0.71448 0.28552 0.93700
Cu	Cu	0.50000 0.21448 0.28552 0.96700
Cu	Cu	0.50000 0.71448 0.78552 0.97000
Cu	Cu	0.00000 0.78552 0.78552 0.94000
Cu	Cu	-0.00000 0.28552 0.28552 0.93700
Cu	Cu	0.50000 0.78552 0.28552 0.97000
Cu	Cu	0.50000 0.28552 0.78552 0.97000
Cu	Cu	0.21448 -0.00000 0.21448 0.93500
Cu	Cu	0.21448 0.50000 0.71448 0.96700
Cu	Cu	0.71448 0.00000 0.71448 0.93700
Cu	Cu	0.71448 0.50000 0.21448 0.96700
Cu	Cu	0.21448 0.00000 0.78552 0.93800
Cu	Cu	0.21448 0.50000 0.28552 0.96700
Cu	Cu	0.71448 0.00000 0.28552 0.93700
Cu	Cu	0.71448 0.50000 0.78552 0.97000
Cu	Cu	0.78552 -0.00000 0.21448 0.93800
Cu	Cu	0.78552 0.50000 0.71448 0.97000
Cu	Cu	0.28552 0.00000 0.71448 0.93700
Cu	Cu	0.28552 0.50000 0.21448 0.96700
Cu	Cu	0.78552 0.00000 0.78552 0.94000
Cu	Cu	0.78552 0.50000 0.28552 0.97000
Cu	Cu	0.28552 0.00000 0.28552 0.93700
Cu	Cu	0.28552 0.50000 0.78552 0.97000
Cu	Cu	0.21448 0.21448 -0.00000 0.93500
Cu	Cu	0.21448 0.71448 0.50000 0.96700
Cu	Cu	0.71448 0.21448 0.50000 0.96700
Cu	Cu	0.71448 0.71448 -0.00000 0.93700
Cu	Cu	0.78552 0.21448 -0.00000 0.93800
Cu	Cu	0.78552 0.71448 0.50000 0.97000
Cu	Cu	0.28552 0.21448 0.50000 0.96700
Cu	Cu	0.28552 0.71448 -0.00000 0.93700
Cu	Cu	0.21448 0.78552 -0.00000 0.93800
Cu	Cu	0.21448 0.28552 0.50000 0.96700
Cu	Cu	0.71448 0.78552 0.50000 0.97000
Cu	Cu	0.71448 0.28552 -0.00000 0.93700
Cu	Cu	0.78552 0.78552 -0.00000 0.94000
Cu	Cu	0.78552 0.28552 0.50000 0.97000
Cu	Cu	0.28552 0.78552 0.50000 0.97000
Cu	Cu	0.28552 0.28552 -0.00000 0.93700
C 	C 	0.06800 0.20300 0.29700 -1.51100
C 	C 	0.11160 0.17780 0.32220 4.95100
C 	C 	0.56800 0.20300 0.79700 -1.48300
C 	C 	0.61160 0.17780 0.82220 4.88700
C 	C 	0.93200 0.79700 0.29700 -1.46400
C 	C 	0.88840 0.82220 0.32220 4.83400
C 	C 	0.43200 0.79700 0.79700 -1.46000
C 	C 	0.38840 0.82220 0.82220 4.83200
C 	C 	0.43200 0.29700 0.29700 -1.48600
C 	C 	0.38840 0.32220 0.32220 4.89800
C 	C 	0.93200 0.20300 0.70300 -1.48600
C 	C 	0.88840 0.17780 0.67780 4.88600
C 	C 	0.43200 0.20300 0.20300 -1.50900
C 	C 	0.38840 0.17780 0.17780 4.95000
C 	C 	0.06800 0.79700 0.70300 -1.48500
C 	C 	0.11160 0.82220 0.67780 4.88600
C 	C 	0.06800 0.29700 0.20300 -1.51100
C 	C 	0.11160 0.32220 0.17780 4.95100
C 	C 	0.56800 0.79700 0.20300 -1.48300
C 	C 	0.61160 0.82220 0.17780 4.88700
C 	C 	0.29700 0.06800 0.20300 -1.51100
C 	C 	0.32220 0.11160 0.17780 4.95100
C 	C 	0.29700 0.56800 0.70300 -1.48300
C 	C 	0.32220 0.61160 0.67780 4.88700
C 	C 	0.29700 0.93200 0.79700 -1.46400
C 	C 	0.32220 0.88840 0.82220 4.83400
C 	C 	0.29700 0.43200 0.29700 -1.48600
C 	C 	0.32220 0.38840 0.32220 4.89800
C 	C 	0.70300 0.93200 0.20300 -1.48600
C 	C 	0.67780 0.88840 0.17780 4.88600
C 	C 	0.70300 0.43200 0.70300 -1.48300
C 	C 	0.67780 0.38840 0.67780 4.88500
C 	C 	0.20300 0.43200 0.20300 -1.50900
C 	C 	0.17780 0.38840 0.17780 4.95000
C 	C 	0.70300 0.06800 0.79700 -1.48500
C 	C 	0.67780 0.11160 0.82220 4.88600
C 	C 	0.70300 0.56800 0.29700 -1.48300
C 	C 	0.67780 0.61160 0.32220 4.88700
C 	C 	0.20300 0.06800 0.29700 -1.51100
C 	C 	0.17780 0.11160 0.32220 4.95100
C 	C 	0.20300 0.29700 0.06800 -1.51100
C 	C 	0.17780 0.32220 0.11160 4.95100
C 	C 	0.20300 0.79700 0.56800 -1.48300
C 	C 	0.17780 0.82220 0.61160 4.88700
C 	C 	0.79700 0.29700 0.93200 -1.46400
C 	C 	0.82220 0.32220 0.88840 4.83400
C 	C 	0.79700 0.79700 0.43200 -1.46000
C 	C 	0.82220 0.82220 0.38840 4.83200
C 	C 	0.29700 0.29700 0.43200 -1.48600
C 	C 	0.32220 0.32220 0.38840 4.89800
C 	C 	0.20300 0.70300 0.93200 -1.48600
C 	C 	0.17780 0.67780 0.88840 4.88600
C 	C 	0.20300 0.20300 0.43200 -1.50900
C 	C 	0.17780 0.17780 0.38840 4.95000
C 	C 	0.79700 0.70300 0.06800 -1.48500
C 	C 	0.82220 0.67780 0.11160 4.88600
C 	C 	0.79700 0.20300 0.56800 -1.48300
C 	C 	0.82220 0.17780 0.61160 4.88700
C 	C 	0.29700 0.20300 0.06800 -1.51100
C 	C 	0.32220 0.17780 0.11160 4.95100
C 	C 	0.20300 0.06800 0.70300 -1.50900
C 	C 	0.17780 0.11160 0.67780 4.94500
C 	C 	0.20300 0.56800 0.20300 -1.50700
C 	C 	0.17780 0.61160 0.17780 4.94500
C 	C 	0.79700 0.93200 0.70300 -1.46200
C 	C 	0.82220 0.88840 0.67780 4.82800
C 	C 	0.79700 0.43200 0.20300 -1.48500
C 	C 	0.82220 0.38840 0.17780 4.89100
C 	C 	0.29700 0.93200 0.20300 -1.48800
C 	C 	0.32220 0.88840 0.17780 4.89300
C 	C 	0.20300 0.93200 0.29700 -1.48800
C 	C 	0.17780 0.88840 0.32220 4.89300
C 	C 	0.20300 0.43200 0.79700 -1.48500
C 	C 	0.17780 0.38840 0.82220 4.89100
C 	C 	0.79700 0.06800 0.29700 -1.48600
C 	C 	0.82220 0.11160 0.32220 4.89200
C 	C 	0.79700 0.56800 0.79700 -1.45900
C 	C 	0.82220 0.61160 0.82220 4.82800
C 	C 	0.29700 0.56800 0.29700 -1.48500
C 	C 	0.32220 0.61160 0.32220 4.89300
C 	C 	0.06800 0.29700 0.79700 -1.48600
C 	C 	0.11160 0.32220 0.82220 4.89200
C 	C 	0.56800 0.29700 0.29700 -1.48500
C 	C 	0.61160 0.32220 0.32220 4.89300
C 	C 	0.93200 0.29700 0.20300 -1.48800
C 	C 	0.88840 0.32220 0.17780 4.89300
C 	C 	0.43200 0.29700 0.70300 -1.48500
C 	C 	0.38840 0.32220 0.67780 4.89100
C 	C 	0.93200 0.70300 0.79700 -1.46200
C 	C 	0.88840 0.67780 0.82220 4.82800
C 	C 	0.93200 0.20300 0.29700 -1.48800
C 	C 	0.88840 0.17780 0.32220 4.89300
C 	C 	0.43200 0.70300 0.29700 -1.48500
C 	C 	0.38840 0.67780 0.32220 4.89100
C 	C 	0.06800 0.70300 0.20300 -1.50900
C 	C 	0.11160 0.67780 0.17780 4.94500
C 	C 	0.56800 0.70300 0.70300 -1.48200
C 	C 	0.61160 0.67780 0.67780 4.88000
C 	C 	0.56800 0.20300 0.20300 -1.50700
C 	C 	0.61160 0.17780 0.17780 4.94500
C 	C 	0.29700 0.20300 0.93200 -1.48800
C 	C 	0.32220 0.17780 0.88840 4.89300
C 	C 	0.29700 0.70300 0.43200 -1.48500
C 	C 	0.32220 0.67780 0.38840 4.89100
C 	C 	0.29700 0.79700 0.06800 -1.48600
C 	C 	0.32220 0.82220 0.11160 4.89200
C 	C 	0.29700 0.29700 0.56800 -1.48500
C 	C 	0.32220 0.32220 0.61160 4.89300
C 	C 	0.70300 0.20300 0.06800 -1.50900
C 	C 	0.67780 0.17780 0.11160 4.94500
C 	C 	0.70300 0.70300 0.56800 -1.48200
C 	C 	0.67780 0.67780 0.61160 4.88000
C 	C 	0.20300 0.20300 0.56800 -1.50700
C 	C 	0.17780 0.17780 0.61160 4.94500
C 	C 	0.70300 0.79700 0.93200 -1.46200
C 	C 	0.67780 0.82220 0.88840 4.82800
C 	C 	0.70300 0.29700 0.43200 -1.48500
C 	C 	0.67780 0.32220 0.38840 4.89100
C 	C 	0.20300 0.29700 0.93200 -1.48800
C 	C 	0.17780 0.32220 0.88840 4.89300
C 	C 	0.93200 0.79700 0.70300 -1.46200
C 	C 	0.88840 0.82220 0.67780 4.82800
C 	C 	0.43200 0.79700 0.20300 -1.48500
C 	C 	0.38840 0.82220 0.17780 4.89100
C 	C 	0.06800 0.20300 0.70300 -1.50900
C 	C 	0.11160 0.17780 0.67780 4.94500
C 	C 	0.06800 0.79700 0.29700 -1.48600
C 	C 	0.11160 0.82220 0.32220 4.89200
C 	C 	0.56800 0.79700 0.79700 -1.45900
C 	C 	0.61160 0.82220 0.82220 4.82800
C 	C 	0.43200 0.20300 0.79700 -1.48500
C 	C 	0.38840 0.17780 0.82220 4.89100
C 	C 	0.70300 0.93200 0.79700 -1.46200
C 	C 	0.67780 0.88840 0.82220 4.82800
C 	C 	0.70300 0.43200 0.29700 -1.48500
C 	C 	0.67780 0.38840 0.32220 4.89100
C 	C 	0.70300 0.06800 0.20300 -1.50900
C 	C 	0.67780 0.11160 0.17780 4.94500
C 	C 	0.70300 0.56800 0.70300 -1.48200
C 	C 	0.67780 0.61160 0.67780 4.88000
C 	C 	0.29700 0.06800 0.79700 -1.48600
C 	C 	0.32220 0.11160 0.82220 4.89200
C 	C 	0.29700 0.43200 0.70300 -1.48500
C 	C 	0.32220 0.38840 0.67780 4.89100
C 	C 	0.79700 0.70300 0.93200 -1.46200
C 	C 	0.82220 0.67780 0.88840 4.82800
C 	C 	0.79700 0.20300 0.43200 -1.48500
C 	C 	0.82220 0.17780 0.38840 4.89100
C 	C 	0.20300 0.70300 0.06800 -1.50900
C 	C 	0.17780 0.67780 0.11160 4.94500
C 	C 	0.79700 0.29700 0.06800 -1.48600
C 	C 	0.82220 0.32220 0.11160 4.89200
C 	C 	0.79700 0.79700 0.56800 -1.45900
C 	C 	0.82220 0.82220 0.61160 4.82800
C 	C 	0.20300 0.79700 0.43200 -1.48500
C 	C 	0.17780 0.82220 0.38840 4.89100
C 	C 	0.79700 0.93200 0.29700 -1.46400
C 	C 	0.82220 0.88840 0.32220 4.83400
C 	C 	0.79700 0.43200 0.79700 -1.46000
C 	C 	0.82220 0.38840 0.82220 4.83200
C 	C 	0.20300 0.56800 0.79700 -1.48300
C 	C 	0.17780 0.61160 0.82220 4.88700
C 	C 	0.79700 0.06800 0.70300 -1.48500
C 	C 	0.82220 0.11160 0.67780 4.88600
C 	C 	0.79700 0.56800 0.20300 -1.48300
C 	C 	0.82220 0.61160 0.17780 4.88700
C 	C 	0.20300 0.93200 0.70300 -1.48600
C 	C 	0.17780 0.88840 0.67780 4.88600
C 	C 	0.93200 0.70300 0.20300 -1.48600
C 	C 	0.88840 0.67780 0.17780 4.88600
C 	C 	0.43200 0.70300 0.70300 -1.48300
C 	C 	0.38840 0.67780 0.67780 4.88500
C 	C 	0.06800 0.70300 0.79700 -1.48500
C 	C 	0.11160 0.67780 0.82220 4.88600
C 	C 	0.56800 0.70300 0.29700 -1.48300
C 	C 	0.61160 0.67780 0.32220 4.88700
C 	C 	0.56800 0.29700 0.70300 -1.48300
C 	C 	0.61160 0.32220 0.67780 4.88700
C 	C 	0.93200 0.29700 0.79700 -1.46400
C 	C 	0.88840 0.32220 0.82220 4.83400
C 	C 	0.70300 0.79700 0.06800 -1.48500
C 	C 	0.67780 0.82220 0.11160 4.88600
C 	C 	0.70300 0.29700 0.56800 -1.48300
C 	C 	0.67780 0.32220 0.61160 4.88700
C 	C 	0.70300 0.20300 0.93200 -1.48600
C 	C 	0.67780 0.17780 0.88840 4.88600
C 	C 	0.70300 0.70300 0.43200 -1.48300
C 	C 	0.67780 0.67780 0.38840 4.88500
C 	C 	0.29700 0.79700 0.93200 -1.46400
C 	C 	0.32220 0.82220 0.88840 4.83400
C 	C 	0.29700 0.70300 0.56800 -1.48300
C 	C 	0.32220 0.67780 0.61160 4.88700
C 	C 	0.13415 0.19950 0.36585 -6.54000
H 	H 	0.11970 0.22920 0.38030 6.08000
F 	F 	0.10960 0.24770 0.39040 -4.35800
C 	C 	0.13415 0.69950 0.86585 -6.44100
H 	H 	0.11970 0.72920 0.88030 5.99600
F 	F 	0.10960 0.74770 0.89040 -4.28800
C 	C 	0.86585 0.80050 0.36585 -6.36000
H 	H 	0.88030 0.77080 0.38030 5.93100
F 	F 	0.89040 0.75230 0.39040 -4.23700
C 	C 	0.86585 0.30050 0.86585 -6.35100
H 	H 	0.88030 0.27080 0.88030 5.91900
F 	F 	0.89040 0.25230 0.89040 -4.22200
C 	C 	0.36585 0.30050 0.36585 -6.46000
H 	H 	0.38030 0.27080 0.38030 6.01600
F 	F 	0.39040 0.25230 0.39040 -4.30700
C 	C 	0.86585 0.19950 0.63415 -6.43200
H 	H 	0.88030 0.22920 0.61970 5.98500
F 	F 	0.89040 0.24770 0.60960 -4.27500
C 	C 	0.86585 0.69950 0.13415 -6.44100
H 	H 	0.88030 0.72920 0.11970 5.99600
F 	F 	0.89040 0.74770 0.10960 -4.28800
C 	C 	0.36585 0.19950 0.13415 -6.54000
H 	H 	0.38030 0.22920 0.11970 6.08000
F 	F 	0.39040 0.24770 0.10960 -4.35800
C 	C 	0.13415 0.80050 0.63415 -6.45800
H 	H 	0.11970 0.77080 0.61970 6.01800
F 	F 	0.10960 0.75230 0.60960 -4.31500
C 	C 	0.13415 0.30050 0.13415 -6.55500
H 	H 	0.11970 0.27080 0.11970 6.09900
F 	F 	0.10960 0.25230 0.10960 -4.38200
C 	C 	0.36585 0.13415 0.19950 -6.54000
H 	H 	0.38030 0.11970 0.22920 6.08000
F 	F 	0.39040 0.10960 0.24770 -4.35800
C 	C 	0.36585 0.63415 0.69950 -6.44100
H 	H 	0.38030 0.61970 0.72920 5.99700
F 	F 	0.39040 0.60960 0.74770 -4.29000
C 	C 	0.36585 0.86585 0.80050 -6.36000
H 	H 	0.38030 0.88030 0.77080 5.93100
F 	F 	0.39040 0.89040 0.75230 -4.23700
C 	C 	0.36585 0.36585 0.30050 -6.46000
H 	H 	0.38030 0.38030 0.27080 6.01600
F 	F 	0.39040 0.39040 0.25230 -4.30700
C 	C 	0.63415 0.86585 0.19950 -6.43200
H 	H 	0.61970 0.88030 0.22920 5.98500
F 	F 	0.60960 0.89040 0.24770 -4.27500
C 	C 	0.63415 0.36585 0.69950 -6.44100
H 	H 	0.61970 0.38030 0.72920 5.99700
F 	F 	0.60960 0.39040 0.74770 -4.29000
C 	C 	0.13415 0.36585 0.19950 -6.54000
H 	H 	0.11970 0.38030 0.22920 6.08000
F 	F 	0.10960 0.39040 0.24770 -4.35800
C 	C 	0.63415 0.13415 0.80050 -6.45800
H 	H 	0.61970 0.11970 0.77080 6.01800
F 	F 	0.60960 0.10960 0.75230 -4.31500
C 	C 	0.63415 0.63415 0.30050 -6.44900
H 	H 	0.61970 0.61970 0.27080 6.00700
F 	F 	0.60960 0.60960 0.25230 -4.30200
C 	C 	0.13415 0.13415 0.30050 -6.55500
H 	H 	0.11970 0.11970 0.27080 6.09900
F 	F 	0.10960 0.10960 0.25230 -4.38200
C 	C 	0.19950 0.36585 0.13415 -6.54000
H 	H 	0.22920 0.38030 0.11970 6.08000
F 	F 	0.24770 0.39040 0.10960 -4.35800
C 	C 	0.69950 0.36585 0.63415 -6.44100
H 	H 	0.72920 0.38030 0.61970 5.99700
F 	F 	0.74770 0.39040 0.60960 -4.29000
C 	C 	0.80050 0.36585 0.86585 -6.36000
H 	H 	0.77080 0.38030 0.88030 5.93100
F 	F 	0.75230 0.39040 0.89040 -4.23700
C 	C 	0.30050 0.36585 0.36585 -6.46000
H 	H 	0.27080 0.38030 0.38030 6.01600
F 	F 	0.25230 0.39040 0.39040 -4.30700
C 	C 	0.19950 0.63415 0.86585 -6.43200
H 	H 	0.22920 0.61970 0.88030 5.98500
F 	F 	0.24770 0.60960 0.89040 -4.27500
C 	C 	0.19950 0.13415 0.36585 -6.54000
H 	H 	0.22920 0.11970 0.38030 6.08000
F 	F 	0.24770 0.10960 0.39040 -4.35800
C 	C 	0.69950 0.63415 0.36585 -6.44100
H 	H 	0.72920 0.61970 0.38030 5.99700
F 	F 	0.74770 0.60960 0.39040 -4.29000
C 	C 	0.80050 0.63415 0.13415 -6.45800
H 	H 	0.77080 0.61970 0.11970 6.01800
F 	F 	0.75230 0.60960 0.10960 -4.31500
C 	C 	0.30050 0.63415 0.63415 -6.44900
H 	H 	0.27080 0.61970 0.61970 6.00700
F 	F 	0.25230 0.60960 0.60960 -4.30200
C 	C 	0.30050 0.13415 0.13415 -6.55500
H 	H 	0.27080 0.11970 0.11970 6.09900
F 	F 	0.25230 0.10960 0.10960 -4.38200
C 	C 	0.19950 0.13415 0.63415 -6.53400
H 	H 	0.22920 0.11970 0.61970 6.07600
F 	F 	0.24770 0.10960 0.60960 -4.35600
C 	C 	0.69950 0.13415 0.13415 -6.54300
H 	H 	0.72920 0.11970 0.11970 6.08600
F 	F 	0.74770 0.10960 0.10960 -4.36800
C 	C 	0.80050 0.86585 0.63415 -6.35500
H 	H 	0.77080 0.88030 0.61970 5.92700
F 	F 	0.75230 0.89040 0.60960 -4.23500
C 	C 	0.80050 0.36585 0.13415 -6.46300
H 	H 	0.77080 0.38030 0.11970 6.02100
F 	F 	0.75230 0.39040 0.10960 -4.31700
C 	C 	0.30050 0.86585 0.13415 -6.45300
H 	H 	0.27080 0.88030 0.11970 6.00900
F 	F 	0.25230 0.89040 0.10960 -4.30200
C 	C 	0.19950 0.86585 0.36585 -6.43700
H 	H 	0.22920 0.88030 0.38030 5.98900
F 	F 	0.24770 0.89040 0.39040 -4.27800
C 	C 	0.69950 0.86585 0.86585 -6.33900
H 	H 	0.72920 0.88030 0.88030 5.90600
F 	F 	0.74770 0.89040 0.89040 -4.20800
C 	C 	0.69950 0.36585 0.36585 -6.44700
H 	H 	0.72920 0.38030 0.38030 6.00100
F 	F 	0.74770 0.39040 0.39040 -4.29300
C 	C 	0.80050 0.13415 0.36585 -6.46300
H 	H 	0.77080 0.11970 0.38030 6.02100
F 	F 	0.75230 0.10960 0.39040 -4.31700
C 	C 	0.30050 0.13415 0.86585 -6.45300
H 	H 	0.27080 0.11970 0.88030 6.00900
F 	F 	0.25230 0.10960 0.89040 -4.30200
C 	C 	0.13415 0.36585 0.80050 -6.46300
H 	H 	0.11970 0.38030 0.77080 6.02100
F 	F 	0.10960 0.39040 0.75230 -4.31700
C 	C 	0.13415 0.86585 0.30050 -6.45300
H 	H 	0.11970 0.88030 0.27080 6.00900
F 	F 	0.10960 0.89040 0.25230 -4.30200
C 	C 	0.86585 0.36585 0.19950 -6.43700
H 	H 	0.88030 0.38030 0.22920 5.98900
F 	F 	0.89040 0.39040 0.24770 -4.27800
C 	C 	0.86585 0.86585 0.69950 -6.33900
H 	H 	0.88030 0.88030 0.72920 5.90600
F 	F 	0.89040 0.89040 0.74770 -4.20800
C 	C 	0.36585 0.36585 0.69950 -6.44700
H 	H 	0.38030 0.38030 0.72920 6.00100
F 	F 	0.39040 0.39040 0.74770 -4.29300
C 	C 	0.86585 0.63415 0.80050 -6.35500
H 	H 	0.88030 0.61970 0.77080 5.92700
F 	F 	0.89040 0.60960 0.75230 -4.23500
C 	C 	0.86585 0.13415 0.30050 -6.45300
H 	H 	0.88030 0.11970 0.27080 6.00900
F 	F 	0.89040 0.10960 0.25230 -4.30200
C 	C 	0.36585 0.13415 0.80050 -6.46300
H 	H 	0.38030 0.11970 0.77080 6.02100
F 	F 	0.39040 0.10960 0.75230 -4.31700
C 	C 	0.13415 0.63415 0.19950 -6.53400
H 	H 	0.11970 0.61970 0.22920 6.07600
F 	F 	0.10960 0.60960 0.24770 -4.35600
C 	C 	0.13415 0.13415 0.69950 -6.54300
H 	H 	0.11970 0.11970 0.72920 6.08600
F 	F 	0.10960 0.10960 0.74770 -4.36800
C 	C 	0.36585 0.19950 0.86585 -6.43700
H 	H 	0.38030 0.22920 0.88030 5.98900
F 	F 	0.39040 0.24770 0.89040 -4.27800
C 	C 	0.36585 0.69950 0.36585 -6.44700
H 	H 	0.38030 0.72920 0.38030 6.00100
F 	F 	0.39040 0.74770 0.39040 -4.29300
C 	C 	0.36585 0.80050 0.13415 -6.46300
H 	H 	0.38030 0.77080 0.11970 6.02100
F 	F 	0.39040 0.75230 0.10960 -4.31700
C 	C 	0.36585 0.30050 0.63415 -6.45500
H 	H 	0.38030 0.27080 0.61970 6.01100
F 	F 	0.39040 0.25230 0.60960 -4.30500
C 	C 	0.63415 0.19950 0.13415 -6.53400
H 	H 	0.61970 0.22920 0.11970 6.07600
F 	F 	0.60960 0.24770 0.10960 -4.35600
C 	C 	0.63415 0.69950 0.63415 -6.43600
H 	H 	0.61970 0.72920 0.61970 5.99300
F 	F 	0.60960 0.74770 0.60960 -4.28800
C 	C 	0.13415 0.69950 0.13415 -6.54300
H 	H 	0.11970 0.72920 0.11970 6.08600
F 	F 	0.10960 0.74770 0.10960 -4.36800
C 	C 	0.63415 0.80050 0.86585 -6.35500
H 	H 	0.61970 0.77080 0.88030 5.92700
F 	F 	0.60960 0.75230 0.89040 -4.23500
C 	C 	0.63415 0.30050 0.36585 -6.45500
H 	H 	0.61970 0.27080 0.38030 6.01100
F 	F 	0.60960 0.25230 0.39040 -4.30500
C 	C 	0.13415 0.80050 0.36585 -6.46300
H 	H 	0.11970 0.77080 0.38030 6.02100
F 	F 	0.10960 0.75230 0.39040 -4.31700
C 	C 	0.86585 0.80050 0.63415 -6.35500
H 	H 	0.88030 0.77080 0.61970 5.92700
F 	F 	0.89040 0.75230 0.60960 -4.23500
C 	C 	0.86585 0.30050 0.13415 -6.45300
H 	H 	0.88030 0.27080 0.11970 6.00900
F 	F 	0.89040 0.25230 0.10960 -4.30200
C 	C 	0.13415 0.19950 0.63415 -6.53400
H 	H 	0.11970 0.22920 0.61970 6.07600
F 	F 	0.10960 0.24770 0.60960 -4.35600
C 	C 	0.13415 0.30050 0.86585 -6.45300
H 	H 	0.11970 0.27080 0.88030 6.00900
F 	F 	0.10960 0.25230 0.89040 -4.30200
C 	C 	0.86585 0.19950 0.36585 -6.43700
H 	H 	0.88030 0.22920 0.38030 5.98900
F 	F 	0.89040 0.24770 0.39040 -4.27800
C 	C 	0.86585 0.69950 0.86585 -6.33900
H 	H 	0.88030 0.72920 0.88030 5.90600
F 	F 	0.89040 0.74770 0.89040 -4.20800
C 	C 	0.63415 0.86585 0.80050 -6.35500
H 	H 	0.61970 0.88030 0.77080 5.92700
F 	F 	0.60960 0.89040 0.75230 -4.23500
C 	C 	0.63415 0.36585 0.30050 -6.45500
H 	H 	0.61970 0.38030 0.27080 6.01100
F 	F 	0.60960 0.39040 0.25230 -4.30500
C 	C 	0.63415 0.13415 0.19950 -6.53400
H 	H 	0.61970 0.11970 0.22920 6.07600
F 	F 	0.60960 0.10960 0.24770 -4.35600
C 	C 	0.63415 0.63415 0.69950 -6.43600
H 	H 	0.61970 0.61970 0.72920 5.99300
F 	F 	0.60960 0.60960 0.74770 -4.28800
C 	C 	0.36585 0.63415 0.30050 -6.45500
H 	H 	0.38030 0.61970 0.27080 6.01100
F 	F 	0.39040 0.60960 0.25230 -4.30500
C 	C 	0.36585 0.86585 0.19950 -6.43700
H 	H 	0.38030 0.88030 0.22920 5.98900
F 	F 	0.39040 0.89040 0.24770 -4.27800
C 	C 	0.80050 0.63415 0.86585 -6.35500
H 	H 	0.77080 0.61970 0.88030 5.92700
F 	F 	0.75230 0.60960 0.89040 -4.23500
C 	C 	0.30050 0.63415 0.36585 -6.45500
H 	H 	0.27080 0.61970 0.38030 6.01100
F 	F 	0.25230 0.60960 0.39040 -4.30500
C 	C 	0.19950 0.63415 0.13415 -6.53400
H 	H 	0.22920 0.61970 0.11970 6.07600
F 	F 	0.24770 0.60960 0.10960 -4.35600
C 	C 	0.69950 0.63415 0.63415 -6.43600
H 	H 	0.72920 0.61970 0.61970 5.99300
F 	F 	0.74770 0.60960 0.60960 -4.28800
C 	C 	0.30050 0.36585 0.63415 -6.45500
H 	H 	0.27080 0.38030 0.61970 6.01100
F 	F 	0.25230 0.39040 0.60960 -4.30500
C 	C 	0.19950 0.36585 0.86585 -6.43700
H 	H 	0.22920 0.38030 0.88030 5.98900
F 	F 	0.24770 0.39040 0.89040 -4.27800
C 	C 	0.80050 0.86585 0.36585 -6.36000
H 	H 	0.77080 0.88030 0.38030 5.93100
F 	F 	0.75230 0.89040 0.39040 -4.23700
C 	C 	0.30050 0.86585 0.86585 -6.35100
H 	H 	0.27080 0.88030 0.88030 5.91900
F 	F 	0.25230 0.89040 0.89040 -4.22200
C 	C 	0.69950 0.13415 0.86585 -6.44100
H 	H 	0.72920 0.11970 0.88030 5.99600
F 	F 	0.74770 0.10960 0.89040 -4.28800
C 	C 	0.80050 0.13415 0.63415 -6.45800
H 	H 	0.77080 0.11970 0.61970 6.01800
F 	F 	0.75230 0.10960 0.60960 -4.31500
C 	C 	0.19950 0.86585 0.63415 -6.43200
H 	H 	0.22920 0.88030 0.61970 5.98500
F 	F 	0.24770 0.89040 0.60960 -4.27500
C 	C 	0.69950 0.86585 0.13415 -6.44100
H 	H 	0.72920 0.88030 0.11970 5.99600
F 	F 	0.74770 0.89040 0.10960 -4.28800
C 	C 	0.86585 0.63415 0.19950 -6.43200
H 	H 	0.88030 0.61970 0.22920 5.98500
F 	F 	0.89040 0.60960 0.24770 -4.27500
C 	C 	0.86585 0.13415 0.69950 -6.44100
H 	H 	0.88030 0.11970 0.72920 5.99600
F 	F 	0.89040 0.10960 0.74770 -4.28800
C 	C 	0.13415 0.63415 0.80050 -6.45800
H 	H 	0.11970 0.61970 0.77080 6.01800
F 	F 	0.10960 0.60960 0.75230 -4.31500
C 	C 	0.13415 0.86585 0.69950 -6.44100
H 	H 	0.11970 0.88030 0.72920 5.99600
F 	F 	0.10960 0.89040 0.74770 -4.28800
C 	C 	0.86585 0.36585 0.80050 -6.36000
H 	H 	0.88030 0.38030 0.77080 5.93100
F 	F 	0.89040 0.39040 0.75230 -4.23700
C 	C 	0.86585 0.86585 0.30050 -6.35100
H 	H 	0.88030 0.88030 0.27080 5.91900
F 	F 	0.89040 0.89040 0.25230 -4.22200
C 	C 	0.63415 0.80050 0.13415 -6.45800
H 	H 	0.61970 0.77080 0.11970 6.01800
F 	F 	0.60960 0.75230 0.10960 -4.31500
C 	C 	0.63415 0.30050 0.63415 -6.44900
H 	H 	0.61970 0.27080 0.61970 6.00700
F 	F 	0.60960 0.25230 0.60960 -4.30200
C 	C 	0.63415 0.19950 0.86585 -6.43200
H 	H 	0.61970 0.22920 0.88030 5.98500
F 	F 	0.60960 0.24770 0.89040 -4.27500
C 	C 	0.63415 0.69950 0.36585 -6.44100
H 	H 	0.61970 0.72920 0.38030 5.99700
F 	F 	0.60960 0.74770 0.39040 -4.29000
C 	C 	0.36585 0.80050 0.86585 -6.36000
H 	H 	0.38030 0.77080 0.88030 5.93100
F 	F 	0.39040 0.75230 0.89040 -4.23700
C 	C 	0.36585 0.69950 0.63415 -6.44100
H 	H 	0.38030 0.72920 0.61970 5.99700
F 	F 	0.39040 0.74770 0.60960 -4.29000
