data_crystal

_cell_length_a 18.06100
_cell_length_b 26.18600
_cell_length_c 9.73500
_cell_angle_alpha 90.00000
_cell_angle_beta  90.00000
_cell_angle_gamma 90.00000

_symmetry_space_group_name_	'P 1'
_symmetry_space_group_name_H-M	'P 1'

loop_
_symmetry_equiv_pos_as_xyz
  x,y,z

loop_
_atom_site_label
_atom_site_type_symbol
_atom_site_fract_x
_atom_site_fract_y
_atom_site_fract_z
_atom_site_charge
N 	N 	0.30580 0.17730 0.33200 2.16600
H 	H 	0.34860 0.18270 0.36770 -0.45000
H 	H 	0.27490 0.20210 0.32310 -0.58200
C 	C 	0.33040 0.08510 0.29350 -0.18700
C 	C 	0.28640 0.12800 0.28620 0.54600
C 	C 	0.21880 0.12500 0.21410 1.60200
H 	H 	0.18970 0.15410 0.20550 -2.47100
C 	C 	0.19500 0.08030 0.15640 -0.94800
C 	C 	0.24050 0.03710 0.16130 0.66700
H 	H 	0.22640 0.00670 0.11930 -0.52200
C 	C 	0.30830 0.04120 0.23220 -0.36500
H 	H 	0.33900 0.01270 0.23700 0.15000
N 	N 	0.18100 0.17300 0.18600 2.61100
H 	H 	0.14350 0.17390 0.13210 -0.63500
H 	H 	0.19690 0.20100 0.22300 -0.68600
H 	H 	0.30100 0.15830 0.32800 -1.87000
N 	N 	0.22710 0.99220 0.08800 0.30500
H 	H 	0.18880 0.98990 0.03590 0.04000
H 	H 	0.25710 0.96690 0.09540 -0.01000
C 	C 	0.48850 0.96850 0.11350 -0.06200
C 	C 	0.54640 0.00390 0.11040 -0.61300
H 	H 	0.57760 0.00640 0.18620 0.25000
C 	C 	0.44100 0.96490 0.00130 0.60800
N 	N 	0.37650 0.93310 0.99830 0.99200
H 	H 	0.34730 0.93390 0.92860 -0.22900
H 	H 	0.36700 0.91310 0.06630 -0.21700
H 	H 	0.40170 0.94190 0.00170 -0.98600
C 	C 	0.40340 0.08590 0.37180 0.47300
O 	O 	0.43930 0.04510 0.37120 -0.52000
O 	O 	0.42320 0.12690 0.42810 -0.46800
C 	C 	0.12220 0.07710 0.07660 0.74400
O 	O 	0.09770 0.03380 0.05410 -0.63300
O 	O 	0.09200 0.11870 0.04570 -0.56600
C 	C 	0.48020 0.93530 0.23780 0.34300
O 	O 	0.51640 0.94500 0.34680 -0.56800
O 	O 	0.44340 0.89360 0.23120 -0.38900
Mg	Mg	0.50317 0.13075 0.57560 1.46800
C 	C 	0.36010 0.13520 0.72400 0.15500
H 	H 	0.35700 0.10690 0.66720 -0.14900
C 	C 	0.23680 0.11640 0.79000 -1.33900
H 	H 	0.21060 0.12210 0.87490 0.87600
H 	H 	0.25020 0.08100 0.78380 0.97300
H 	H 	0.20570 0.12540 0.71430 2.73400
C 	C 	0.31400 0.18800 0.90000 -0.67600
H 	H 	0.27320 0.18840 0.96400 0.19500
H 	H 	0.31760 0.22110 0.85720 0.27300
H 	H 	0.35890 0.18100 0.94890 0.26500
N 	N 	0.30050 0.14630 0.78800 -0.67100
O 	O 	0.41990 0.15590 0.72700 -0.54900
C 	C 	0.24300 0.24300 0.69500 0.37400
H 	H 	0.20230 0.26200 0.66530 0.02200
C 	C 	0.25400 0.24400 0.93700 0.00500
H 	H 	0.22750 0.22690 0.01020 -0.01600
H 	H 	0.24160 0.27920 0.93610 0.13700
H 	H 	0.30620 0.23960 0.95160 0.04700
C 	C 	0.22700 0.16200 0.79800 1.81700
H 	H 	0.19630 0.14920 0.87130 -0.85700
H 	H 	0.27500 0.14670 0.80350 0.40700
H 	H 	0.20450 0.15390 0.71150 -1.63700
N 	N 	0.23400 0.22200 0.81200 -0.31900
O 	O 	0.29500 0.24200 0.61800 -0.31500
C 	C 	0.35200 0.13250 0.70200 0.26700
H 	H 	0.32400 0.12920 0.62280 -0.01100
C 	C 	0.34900 0.12000 0.94300 -0.13500
H 	H 	0.32020 0.10020 0.00490 0.00300
H 	H 	0.34900 0.15540 0.97330 0.02600
H 	H 	0.39950 0.10810 0.94290 0.08600
C 	C 	0.24500 0.08900 0.78300 -0.16300
H 	H 	0.22850 0.07280 0.86550 -0.13900
H 	H 	0.25260 0.06400 0.71260 -0.25800
H 	H 	0.20890 0.11350 0.75310 -1.73200
N 	N 	0.32020 0.11730 0.81200 0.12700
O 	O 	0.41290 0.15060 0.68600 0.13600
N 	N 	0.19420 0.82270 0.83200 2.21400
H 	H 	0.15140 0.81730 0.86770 -0.46100
H 	H 	0.22510 0.79790 0.82310 -0.59800
C 	C 	0.16960 0.91490 0.79350 -0.09900
C 	C 	0.21360 0.87200 0.78620 0.53100
C 	C 	0.28120 0.87500 0.71410 1.60700
H 	H 	0.31030 0.84590 0.70550 -2.39500
C 	C 	0.30500 0.91970 0.65640 -1.04600
C 	C 	0.25950 0.96290 0.66130 1.02300
H 	H 	0.27360 0.99330 0.61930 -0.87000
C 	C 	0.19170 0.95880 0.73220 -0.55700
H 	H 	0.16100 0.98730 0.73700 0.26300
N 	N 	0.31900 0.82700 0.68600 2.51000
H 	H 	0.35650 0.82610 0.63210 -0.59400
H 	H 	0.30310 0.79900 0.72300 -0.65000
H 	H 	0.19900 0.84170 0.82800 -1.89900
N 	N 	0.27290 0.00780 0.58800 0.67200
H 	H 	0.31120 0.01010 0.53590 -0.08900
H 	H 	0.24290 0.03310 0.59540 -0.13900
C 	C 	0.01150 0.03150 0.61350 -0.40900
C 	C 	0.95360 0.99610 0.61040 -0.15600
H 	H 	0.92240 0.99360 0.68620 0.14300
C 	C 	0.05900 0.03510 0.50130 0.81300
N 	N 	0.12350 0.06690 0.49830 0.79300
H 	H 	0.15270 0.06610 0.42860 -0.19000
H 	H 	0.13300 0.08690 0.56630 -0.15000
H 	H 	0.09830 0.05810 0.50170 -0.90400
C 	C 	0.09660 0.91410 0.87180 0.44200
O 	O 	0.06070 0.95490 0.87120 -0.48900
O 	O 	0.07680 0.87310 0.92810 -0.46200
C 	C 	0.37780 0.92290 0.57660 0.77700
O 	O 	0.40230 0.96620 0.55410 -0.55300
O 	O 	0.40800 0.88130 0.54570 -0.54400
C 	C 	0.01980 0.06470 0.73780 0.35200
O 	O 	0.98360 0.05500 0.84680 -0.53900
O 	O 	0.05660 0.10640 0.73120 -0.41500
Mg	Mg	0.99683 0.86925 0.07560 1.47100
C 	C 	0.13990 0.86480 0.22400 0.15600
H 	H 	0.14300 0.89310 0.16720 -0.15100
C 	C 	0.26320 0.88360 0.29000 -1.39100
H 	H 	0.28940 0.87790 0.37490 0.90700
H 	H 	0.24980 0.91900 0.28380 1.01000
H 	H 	0.29430 0.87460 0.21430 2.83400
C 	C 	0.18600 0.81200 0.40000 -0.58300
H 	H 	0.22680 0.81160 0.46400 0.15200
H 	H 	0.18240 0.77890 0.35720 0.24300
H 	H 	0.14110 0.81900 0.44890 0.18100
N 	N 	0.19950 0.85370 0.28800 -0.69700
O 	O 	0.08010 0.84410 0.22700 -0.55700
C 	C 	0.25700 0.75700 0.19500 0.37900
H 	H 	0.29770 0.73800 0.16530 0.02300
C 	C 	0.24600 0.75600 0.43700 -0.09300
H 	H 	0.27250 0.77310 0.51020 0.03800
H 	H 	0.25840 0.72080 0.43610 0.16000
H 	H 	0.19380 0.76040 0.45160 0.07000
C 	C 	0.27300 0.83800 0.29800 1.89600
H 	H 	0.30370 0.85080 0.37130 -0.89600
H 	H 	0.22500 0.85330 0.30350 0.40200
H 	H 	0.29550 0.84610 0.21150 -1.70100
N 	N 	0.26600 0.77800 0.31200 -0.31400
O 	O 	0.20500 0.75800 0.11800 -0.33000
C 	C 	0.14800 0.86750 0.20200 0.26900
H 	H 	0.17600 0.87080 0.12280 -0.01800
C 	C 	0.15100 0.88000 0.44300 -0.35600
H 	H 	0.17980 0.89980 0.50490 0.09400
H 	H 	0.15100 0.84460 0.47330 0.11900
H 	H 	0.10050 0.89190 0.44290 0.14200
C 	C 	0.25500 0.91100 0.28300 -0.16800
H 	H 	0.27150 0.92720 0.36550 -0.13500
H 	H 	0.24740 0.93600 0.21260 -0.26500
H 	H 	0.29110 0.88650 0.25310 -1.79200
N 	N 	0.17980 0.88270 0.31200 0.17400
O 	O 	0.08710 0.84940 0.18600 0.12000
N 	N 	0.69420 0.82270 0.66800 2.22000
H 	H 	0.65140 0.81730 0.63230 -0.46100
H 	H 	0.72510 0.79790 0.67690 -0.59900
C 	C 	0.66960 0.91490 0.70650 -0.10100
C 	C 	0.71360 0.87200 0.71380 0.52900
C 	C 	0.78120 0.87500 0.78590 1.61700
H 	H 	0.81030 0.84590 0.79450 -2.41100
C 	C 	0.80500 0.91970 0.84360 -1.04300
C 	C 	0.75950 0.96290 0.83870 1.01100
H 	H 	0.77360 0.99330 0.88070 -0.85800
C 	C 	0.69170 0.95880 0.76780 -0.55500
H 	H 	0.66100 0.98730 0.76300 0.25900
N 	N 	0.81900 0.82700 0.81400 2.52800
H 	H 	0.85650 0.82610 0.86790 -0.59100
H 	H 	0.80310 0.79900 0.77700 -0.65500
H 	H 	0.69900 0.84170 0.67200 -1.90600
N 	N 	0.77290 0.00780 0.91200 0.65700
H 	H 	0.81120 0.01010 0.96410 -0.07400
H 	H 	0.74290 0.03310 0.90460 -0.12800
C 	C 	0.51150 0.03150 0.88650 -0.44200
C 	C 	0.45360 0.99610 0.88960 -0.09500
H 	H 	0.42240 0.99360 0.81380 0.11700
C 	C 	0.55900 0.03510 0.99870 0.97800
N 	N 	0.62350 0.06690 0.00170 0.89100
H 	H 	0.65270 0.06610 0.07140 -0.22800
H 	H 	0.63300 0.08690 0.93370 -0.15700
H 	H 	0.59830 0.05810 0.99830 -1.02900
C 	C 	0.59660 0.91410 0.62820 0.43900
O 	O 	0.56070 0.95490 0.62880 -0.47800
O 	O 	0.57680 0.87310 0.57190 -0.45500
C 	C 	0.87780 0.92290 0.92340 0.77600
O 	O 	0.90230 0.96620 0.94590 -0.53100
O 	O 	0.90800 0.88130 0.95430 -0.51300
C 	C 	0.51980 0.06470 0.76220 0.45600
O 	O 	0.48360 0.05500 0.65320 -0.63000
O 	O 	0.55660 0.10640 0.76880 -0.42100
Mg	Mg	0.49683 0.86925 0.42440 1.46800
C 	C 	0.63990 0.86480 0.27600 0.14100
H 	H 	0.64300 0.89310 0.33280 -0.14400
C 	C 	0.76320 0.88360 0.21000 -1.43000
H 	H 	0.78940 0.87790 0.12510 0.92500
H 	H 	0.74980 0.91900 0.21620 1.03200
H 	H 	0.79430 0.87460 0.28570 2.89200
C 	C 	0.68600 0.81200 0.10000 -0.48500
H 	H 	0.72680 0.81160 0.03600 0.10700
H 	H 	0.68240 0.77890 0.14280 0.21800
H 	H 	0.64110 0.81900 0.05110 0.09600
N 	N 	0.69950 0.85370 0.21200 -0.70500
O 	O 	0.58010 0.84410 0.27300 -0.54100
C 	C 	0.75700 0.75700 0.30500 0.36700
H 	H 	0.79770 0.73800 0.33470 0.02900
C 	C 	0.74600 0.75600 0.06300 -0.22200
H 	H 	0.77250 0.77310 0.98980 0.10400
H 	H 	0.75840 0.72080 0.06390 0.19300
H 	H 	0.69380 0.76040 0.04840 0.10500
C 	C 	0.77300 0.83800 0.20200 1.95200
H 	H 	0.80370 0.85080 0.12870 -0.92500
H 	H 	0.72500 0.85330 0.19650 0.38600
H 	H 	0.79550 0.84610 0.28850 -1.73800
N 	N 	0.76600 0.77800 0.18800 -0.29900
O 	O 	0.70500 0.75800 0.38200 -0.31100
C 	C 	0.64800 0.86750 0.29800 0.26300
H 	H 	0.67600 0.87080 0.37720 -0.00900
C 	C 	0.65100 0.88000 0.05700 -0.63100
H 	H 	0.67980 0.89980 0.99510 0.20200
H 	H 	0.65100 0.84460 0.02670 0.23600
H 	H 	0.60050 0.89190 0.05710 0.23000
C 	C 	0.75500 0.91100 0.21700 -0.17000
H 	H 	0.77150 0.92720 0.13450 -0.15000
H 	H 	0.74740 0.93600 0.28740 -0.27400
H 	H 	0.79110 0.88650 0.24690 -1.82300
N 	N 	0.67980 0.88270 0.18800 0.22600
O 	O 	0.58710 0.84940 0.31400 0.13400
N 	N 	0.80580 0.17730 0.16800 2.17600
H 	H 	0.84860 0.18270 0.13230 -0.45000
H 	H 	0.77490 0.20210 0.17690 -0.58400
C 	C 	0.83040 0.08510 0.20650 -0.18100
C 	C 	0.78640 0.12800 0.21380 0.54300
C 	C 	0.71880 0.12500 0.28590 1.61000
H 	H 	0.68970 0.15410 0.29450 -2.47800
C 	C 	0.69500 0.08030 0.34360 -0.95400
C 	C 	0.74050 0.03710 0.33870 0.68500
H 	H 	0.72640 0.00670 0.38070 -0.54000
C 	C 	0.80830 0.04120 0.26780 -0.37900
H 	H 	0.83900 0.01270 0.26300 0.15500
N 	N 	0.68100 0.17300 0.31400 2.61700
H 	H 	0.64350 0.17390 0.36790 -0.62900
H 	H 	0.69690 0.20100 0.27700 -0.68700
H 	H 	0.80100 0.15830 0.17200 -1.87800
N 	N 	0.72710 0.99220 0.41200 0.32200
H 	H 	0.68880 0.98990 0.46410 0.04100
H 	H 	0.75710 0.96690 0.40460 -0.01100
C 	C 	0.98850 0.96850 0.38650 -0.09100
C 	C 	0.04640 0.00390 0.38960 -0.55000
H 	H 	0.07760 0.00640 0.31380 0.22200
C 	C 	0.94100 0.96490 0.49870 0.76400
N 	N 	0.87650 0.93310 0.50170 1.08400
H 	H 	0.84730 0.93390 0.57140 -0.26500
H 	H 	0.86700 0.91310 0.43370 -0.22300
H 	H 	0.90170 0.94190 0.49830 -1.10400
C 	C 	0.90340 0.08590 0.12820 0.46600
O 	O 	0.93930 0.04510 0.12880 -0.50400
O 	O 	0.92320 0.12690 0.07190 -0.45900
C 	C 	0.62220 0.07710 0.42340 0.74600
O 	O 	0.59770 0.03380 0.44590 -0.61000
O 	O 	0.59200 0.11870 0.45430 -0.53800
C 	C 	0.98020 0.93530 0.26220 0.42800
O 	O 	0.01640 0.94500 0.15320 -0.64000
O 	O 	0.94340 0.89360 0.26880 -0.39400
Mg	Mg	0.00317 0.13075 0.92440 1.46300
C 	C 	0.86010 0.13520 0.77600 0.13900
H 	H 	0.85700 0.10690 0.83280 -0.14000
C 	C 	0.73680 0.11640 0.71000 -1.37100
H 	H 	0.71060 0.12210 0.62510 0.89200
H 	H 	0.75020 0.08100 0.71620 0.99200
H 	H 	0.70570 0.12540 0.78570 2.78500
C 	C 	0.81400 0.18800 0.60000 -0.58700
H 	H 	0.77320 0.18840 0.53600 0.15400
H 	H 	0.81760 0.22110 0.64280 0.25100
H 	H 	0.85890 0.18100 0.55110 0.18800
N 	N 	0.80050 0.14630 0.71200 -0.67700
O 	O 	0.91990 0.15590 0.77300 -0.53100
C 	C 	0.74300 0.24300 0.80500 0.36200
H 	H 	0.70230 0.26200 0.83470 0.02800
C 	C 	0.75400 0.24400 0.56300 -0.10800
H 	H 	0.72750 0.22690 0.48980 0.04200
H 	H 	0.74160 0.27920 0.56390 0.16600
H 	H 	0.80620 0.23960 0.54840 0.07800
C 	C 	0.72700 0.16200 0.70200 1.86500
H 	H 	0.69630 0.14920 0.62870 -0.88100
H 	H 	0.77500 0.14670 0.69650 0.39200
H 	H 	0.70450 0.15390 0.78850 -1.66700
N 	N 	0.73400 0.22200 0.68800 -0.30400
O 	O 	0.79500 0.24200 0.88200 -0.29300
C 	C 	0.85200 0.13250 0.79800 0.26000
H 	H 	0.82400 0.12920 0.87720 -0.00100
C 	C 	0.84900 0.12000 0.55700 -0.39000
H 	H 	0.82020 0.10020 0.49510 0.10400
H 	H 	0.84900 0.15540 0.52670 0.13500
H 	H 	0.89950 0.10810 0.55710 0.17200
C 	C 	0.74500 0.08900 0.71700 -0.16500
H 	H 	0.72850 0.07280 0.63450 -0.15000
H 	H 	0.75260 0.06400 0.78740 -0.26400
H 	H 	0.70890 0.11350 0.74690 -1.76000
N 	N 	0.82020 0.11730 0.68800 0.17600
O 	O 	0.91290 0.15060 0.81400 0.15200
Mg	Mg	0.50000 0.00000 0.50000 1.47600
Mg	Mg	-0.00000 0.00000 -0.00000 1.46800
N 	N 	0.69420 0.67730 0.16800 2.19400
H 	H 	0.65140 0.68270 0.13230 -0.45900
H 	H 	0.72510 0.70210 0.17690 -0.59100
C 	C 	0.66960 0.58510 0.20650 -0.14600
C 	C 	0.71360 0.62800 0.21380 0.53300
C 	C 	0.78120 0.62500 0.28590 1.61300
H 	H 	0.81030 0.65410 0.29450 -2.44400
C 	C 	0.80500 0.58030 0.34360 -0.99800
C 	C 	0.75950 0.53710 0.33870 0.84500
H 	H 	0.77360 0.50670 0.38070 -0.69800
C 	C 	0.69170 0.54120 0.26780 -0.46500
H 	H 	0.66100 0.51270 0.26300 0.20400
N 	N 	0.81900 0.67300 0.31400 2.57100
H 	H 	0.85650 0.67390 0.36790 -0.60900
H 	H 	0.80310 0.70100 0.27700 -0.67100
H 	H 	0.69900 0.65830 0.17200 -1.88800
N 	N 	0.77290 0.49220 0.41200 0.49000
H 	H 	0.81120 0.48990 0.46410 -0.02200
H 	H 	0.74290 0.46690 0.40460 -0.07200
C 	C 	0.51150 0.46850 0.38650 -0.25100
C 	C 	0.45360 0.50390 0.38960 -0.35300
H 	H 	0.42240 0.50640 0.31380 0.18300
C 	C 	0.55900 0.46490 0.49870 0.78800
N 	N 	0.62350 0.43310 0.50170 0.93600
H 	H 	0.65270 0.43390 0.57140 -0.22700
H 	H 	0.63300 0.41310 0.43370 -0.18700
H 	H 	0.59830 0.44190 0.49830 -1.00200
C 	C 	0.59660 0.58590 0.12820 0.45300
O 	O 	0.56070 0.54510 0.12880 -0.50900
O 	O 	0.57680 0.62690 0.07190 -0.47300
C 	C 	0.87780 0.57710 0.42340 0.75900
O 	O 	0.90230 0.53380 0.44590 -0.56900
O 	O 	0.90800 0.61870 0.45430 -0.52300
C 	C 	0.51980 0.43530 0.26220 0.40000
O 	O 	0.48360 0.44500 0.15320 -0.61000
O 	O 	0.55660 0.39360 0.26880 -0.41000
Mg	Mg	0.49683 0.63075 0.92440 1.47100
C 	C 	0.63990 0.63520 0.77600 0.14400
H 	H 	0.64300 0.60690 0.83280 -0.14100
C 	C 	0.76320 0.61640 0.71000 -1.37200
H 	H 	0.78940 0.62210 0.62510 0.89300
H 	H 	0.74980 0.58100 0.71620 0.99400
H 	H 	0.79430 0.62540 0.78570 2.79100
C 	C 	0.68600 0.68800 0.60000 -0.58700
H 	H 	0.72680 0.68840 0.53600 0.15400
H 	H 	0.68240 0.72110 0.64280 0.24700
H 	H 	0.64110 0.68100 0.55110 0.18600
N 	N 	0.69950 0.64630 0.71200 -0.67600
O 	O 	0.58010 0.65590 0.77300 -0.53000
C 	C 	0.75700 0.74300 0.80500 0.36500
H 	H 	0.79770 0.76200 0.83470 0.02800
C 	C 	0.74600 0.74400 0.56300 -0.10600
H 	H 	0.77250 0.72690 0.48980 0.04300
H 	H 	0.75840 0.77920 0.56390 0.16800
H 	H 	0.69380 0.73960 0.54840 0.07600
C 	C 	0.77300 0.66200 0.70200 1.86900
H 	H 	0.80370 0.64920 0.62870 -0.88000
H 	H 	0.72500 0.64670 0.69650 0.38900
H 	H 	0.79550 0.65390 0.78850 -1.66700
N 	N 	0.76600 0.72200 0.68800 -0.30400
O 	O 	0.70500 0.74200 0.88200 -0.29700
C 	C 	0.64800 0.63250 0.79800 0.26300
H 	H 	0.67600 0.62920 0.87720 -0.00200
C 	C 	0.65100 0.62000 0.55700 -0.36600
H 	H 	0.67980 0.60020 0.49510 0.09700
H 	H 	0.65100 0.65540 0.52670 0.12400
H 	H 	0.60050 0.60810 0.55710 0.15300
C 	C 	0.75500 0.58900 0.71700 -0.16500
H 	H 	0.77150 0.57280 0.63450 -0.14200
H 	H 	0.74740 0.56400 0.78740 -0.26200
H 	H 	0.79110 0.61350 0.74690 -1.76200
N 	N 	0.67980 0.61730 0.68800 0.17100
O 	O 	0.58710 0.65060 0.81400 0.12800
N 	N 	0.80580 0.32270 0.66800 2.20300
H 	H 	0.84860 0.31730 0.63230 -0.45100
H 	H 	0.77490 0.29790 0.67690 -0.59200
C 	C 	0.83040 0.41490 0.70650 -0.13700
C 	C 	0.78640 0.37200 0.71380 0.54000
C 	C 	0.71880 0.37500 0.78590 1.61300
H 	H 	0.68970 0.34590 0.79450 -2.44500
C 	C 	0.69500 0.41970 0.84360 -0.99900
C 	C 	0.74050 0.46290 0.83870 0.85200
H 	H 	0.72640 0.49330 0.88070 -0.70200
C 	C 	0.80830 0.45880 0.76780 -0.46900
H 	H 	0.83900 0.48730 0.76300 0.20900
N 	N 	0.68100 0.32700 0.81400 2.57400
H 	H 	0.64350 0.32610 0.86790 -0.61100
H 	H 	0.69690 0.29900 0.77700 -0.67100
H 	H 	0.80100 0.34170 0.67200 -1.89500
N 	N 	0.72710 0.50780 0.91200 0.49200
H 	H 	0.68880 0.51010 0.96410 -0.01200
H 	H 	0.75710 0.53310 0.90460 -0.06700
C 	C 	0.98850 0.53150 0.88650 -0.28200
C 	C 	0.04640 0.49610 0.88960 -0.30100
H 	H 	0.07760 0.49360 0.81380 0.15800
C 	C 	0.94100 0.53510 0.99870 0.96900
N 	N 	0.87650 0.56690 0.00170 1.04800
H 	H 	0.84730 0.56610 0.07140 -0.26900
H 	H 	0.86700 0.58690 0.93370 -0.19400
H 	H 	0.90170 0.55810 0.99830 -1.14200
C 	C 	0.90340 0.41410 0.62820 0.45200
O 	O 	0.93930 0.45490 0.62880 -0.47500
O 	O 	0.92320 0.37310 0.57190 -0.44100
C 	C 	0.62220 0.42290 0.92340 0.76300
O 	O 	0.59770 0.46620 0.94590 -0.57200
O 	O 	0.59200 0.38130 0.95430 -0.52900
C 	C 	0.98020 0.56470 0.76220 0.49400
O 	O 	0.01640 0.55500 0.65320 -0.67200
O 	O 	0.94340 0.60640 0.76880 -0.40500
Mg	Mg	0.00317 0.36925 0.42440 1.46100
C 	C 	0.86010 0.36480 0.27600 0.13600
H 	H 	0.85700 0.39310 0.33280 -0.14300
C 	C 	0.73680 0.38360 0.21000 -1.42900
H 	H 	0.71060 0.37790 0.12510 0.92500
H 	H 	0.75020 0.41900 0.21620 1.03100
H 	H 	0.70570 0.37460 0.28570 2.88800
C 	C 	0.81400 0.31200 0.10000 -0.48300
H 	H 	0.77320 0.31160 0.03600 0.10600
H 	H 	0.81760 0.27890 0.14280 0.22000
H 	H 	0.85890 0.31900 0.05110 0.09500
N 	N 	0.80050 0.35370 0.21200 -0.70700
O 	O 	0.91990 0.34410 0.27300 -0.54300
C 	C 	0.74300 0.25700 0.30500 0.36500
H 	H 	0.70230 0.23800 0.33470 0.03000
C 	C 	0.75400 0.25600 0.06300 -0.22300
H 	H 	0.72750 0.27310 0.98980 0.10200
H 	H 	0.74160 0.22080 0.06390 0.19200
H 	H 	0.80620 0.26040 0.04840 0.10700
C 	C 	0.72700 0.33800 0.20200 1.94900
H 	H 	0.69630 0.35080 0.12870 -0.92600
H 	H 	0.77500 0.35330 0.19650 0.38800
H 	H 	0.70450 0.34610 0.28850 -1.73800
N 	N 	0.73400 0.27800 0.18800 -0.29900
O 	O 	0.79500 0.25800 0.38200 -0.30600
C 	C 	0.85200 0.36750 0.29800 0.26000
H 	H 	0.82400 0.37080 0.37720 -0.00800
C 	C 	0.84900 0.38000 0.05700 -0.66200
H 	H 	0.82020 0.39980 0.99510 0.21300
H 	H 	0.84900 0.34460 0.02670 0.25100
H 	H 	0.89950 0.39190 0.05710 0.24900
C 	C 	0.74500 0.41100 0.21700 -0.17000
H 	H 	0.72850 0.42720 0.13450 -0.15800
H 	H 	0.75260 0.43600 0.28740 -0.27600
H 	H 	0.70890 0.38650 0.24690 -1.82100
N 	N 	0.82020 0.38270 0.18800 0.23200
O 	O 	0.91290 0.34940 0.31400 0.15600
N 	N 	0.30580 0.32270 0.83200 2.19400
H 	H 	0.34860 0.31730 0.86770 -0.45100
H 	H 	0.27490 0.29790 0.82310 -0.59000
C 	C 	0.33040 0.41490 0.79350 -0.13900
C 	C 	0.28640 0.37200 0.78620 0.54200
C 	C 	0.21880 0.37500 0.71410 1.60400
H 	H 	0.18970 0.34590 0.70550 -2.43200
C 	C 	0.19500 0.41970 0.65640 -0.99700
C 	C 	0.24050 0.46290 0.66130 0.84700
H 	H 	0.22640 0.49330 0.61930 -0.69700
C 	C 	0.30830 0.45880 0.73220 -0.46200
H 	H 	0.33900 0.48730 0.73700 0.20800
N 	N 	0.18100 0.32700 0.68600 2.56100
H 	H 	0.14350 0.32610 0.63210 -0.61600
H 	H 	0.19690 0.29900 0.72300 -0.66800
H 	H 	0.30100 0.34170 0.82800 -1.88800
N 	N 	0.22710 0.50780 0.58800 0.48900
H 	H 	0.18880 0.51010 0.53590 -0.02000
H 	H 	0.25710 0.53310 0.59540 -0.07200
C 	C 	0.48850 0.53150 0.61350 -0.25000
C 	C 	0.54640 0.49610 0.61040 -0.35200
H 	H 	0.57760 0.49360 0.68620 0.18300
C 	C 	0.44100 0.53510 0.50130 0.79000
N 	N 	0.37650 0.56690 0.49830 0.93900
H 	H 	0.34730 0.56610 0.42860 -0.22700
H 	H 	0.36700 0.58690 0.56630 -0.18600
H 	H 	0.40170 0.55810 0.50170 -1.00500
C 	C 	0.40340 0.41410 0.87180 0.45700
O 	O 	0.43930 0.45490 0.87120 -0.49000
O 	O 	0.42320 0.37310 0.92810 -0.45000
C 	C 	0.12220 0.42290 0.57660 0.76200
O 	O 	0.09770 0.46620 0.55410 -0.59500
O 	O 	0.09200 0.38130 0.54570 -0.55900
C 	C 	0.48020 0.56470 0.73780 0.39700
O 	O 	0.51640 0.55500 0.84680 -0.58900
O 	O 	0.44340 0.60640 0.73120 -0.40000
Mg	Mg	0.50317 0.36925 0.07560 1.46500
C 	C 	0.36010 0.36480 0.22400 0.15200
H 	H 	0.35700 0.39310 0.16720 -0.15100
C 	C 	0.23680 0.38360 0.29000 -1.39000
H 	H 	0.21060 0.37790 0.37490 0.90500
H 	H 	0.25020 0.41900 0.28380 1.00800
H 	H 	0.20570 0.37460 0.21430 2.82700
C 	C 	0.31400 0.31200 0.40000 -0.58400
H 	H 	0.27320 0.31160 0.46400 0.15200
H 	H 	0.31760 0.27890 0.35720 0.24600
H 	H 	0.35890 0.31900 0.44890 0.18400
N 	N 	0.30050 0.35370 0.28800 -0.69800
O 	O 	0.41990 0.34410 0.22700 -0.56000
C 	C 	0.24300 0.25700 0.19500 0.37700
H 	H 	0.20230 0.23800 0.16530 0.02400
C 	C 	0.25400 0.25600 0.43700 -0.09400
H 	H 	0.22750 0.27310 0.51020 0.03700
H 	H 	0.24160 0.22080 0.43610 0.15900
H 	H 	0.30620 0.26040 0.45160 0.07200
C 	C 	0.22700 0.33800 0.29800 1.89100
H 	H 	0.19630 0.35080 0.37130 -0.89600
H 	H 	0.27500 0.35330 0.30350 0.40400
H 	H 	0.20450 0.34610 0.21150 -1.70000
N 	N 	0.23400 0.27800 0.31200 -0.31500
O 	O 	0.29500 0.25800 0.11800 -0.32700
C 	C 	0.35200 0.36750 0.20200 0.26700
H 	H 	0.32400 0.37080 0.12280 -0.01800
C 	C 	0.34900 0.38000 0.44300 -0.37400
H 	H 	0.32020 0.39980 0.50490 0.09800
H 	H 	0.34900 0.34460 0.47330 0.12700
H 	H 	0.39950 0.39190 0.44290 0.15500
C 	C 	0.24500 0.41100 0.28300 -0.16800
H 	H 	0.22850 0.42720 0.36550 -0.14400
H 	H 	0.25260 0.43600 0.21260 -0.26800
H 	H 	0.20890 0.38650 0.25310 -1.78800
N 	N 	0.32020 0.38270 0.31200 0.17700
O 	O 	0.41290 0.34940 0.18600 0.14100
N 	N 	0.19420 0.67730 0.33200 2.18600
H 	H 	0.15140 0.68270 0.36770 -0.45900
H 	H 	0.22510 0.70210 0.32310 -0.59000
C 	C 	0.16960 0.58510 0.29350 -0.14700
C 	C 	0.21360 0.62800 0.28620 0.53600
C 	C 	0.28120 0.62500 0.21410 1.60500
H 	H 	0.31030 0.65410 0.20550 -2.43300
C 	C 	0.30500 0.58030 0.15640 -0.99600
C 	C 	0.25950 0.53710 0.16130 0.84100
H 	H 	0.27360 0.50670 0.11930 -0.69400
C 	C 	0.19170 0.54120 0.23220 -0.45900
H 	H 	0.16100 0.51270 0.23700 0.20300
N 	N 	0.31900 0.67300 0.18600 2.56100
H 	H 	0.35650 0.67390 0.13210 -0.61400
H 	H 	0.30310 0.70100 0.22300 -0.66800
H 	H 	0.19900 0.65830 0.32800 -1.88200
N 	N 	0.27290 0.49220 0.08800 0.48700
H 	H 	0.31120 0.48990 0.03590 -0.02900
H 	H 	0.24290 0.46690 0.09540 -0.07600
C 	C 	0.01150 0.46850 0.11350 -0.21700
C 	C 	0.95360 0.50390 0.11040 -0.42900
H 	H 	0.92240 0.50640 0.18620 0.21500
C 	C 	0.05900 0.46490 0.00130 0.63900
N 	N 	0.12350 0.43310 0.99830 0.85000
H 	H 	0.15270 0.43390 0.92860 -0.19300
H 	H 	0.13300 0.41310 0.06630 -0.18200
H 	H 	0.09830 0.44190 0.00170 -0.89100
C 	C 	0.09660 0.58590 0.37180 0.45800
O 	O 	0.06070 0.54510 0.37120 -0.52100
O 	O 	0.07680 0.62690 0.42810 -0.47900
C 	C 	0.37780 0.57710 0.07660 0.75900
O 	O 	0.40230 0.53380 0.05410 -0.59300
O 	O 	0.40800 0.61870 0.04570 -0.55300
C 	C 	0.01980 0.43530 0.23780 0.30500
O 	O 	0.98360 0.44500 0.34680 -0.52800
O 	O 	0.05660 0.39360 0.23120 -0.40400
Mg	Mg	0.99683 0.63075 0.57560 1.47500
C 	C 	0.13990 0.63520 0.72400 0.15900
H 	H 	0.14300 0.60690 0.66720 -0.14900
C 	C 	0.26320 0.61640 0.79000 -1.33900
H 	H 	0.28940 0.62210 0.87490 0.87700
H 	H 	0.24980 0.58100 0.78380 0.97500
H 	H 	0.29430 0.62540 0.71430 2.74000
C 	C 	0.18600 0.68800 0.90000 -0.67500
H 	H 	0.22680 0.68840 0.96400 0.19500
H 	H 	0.18240 0.72110 0.85720 0.27000
H 	H 	0.14110 0.68100 0.94890 0.26300
N 	N 	0.19950 0.64630 0.78800 -0.66900
O 	O 	0.08010 0.65590 0.72700 -0.54700
C 	C 	0.25700 0.74300 0.69500 0.37700
H 	H 	0.29770 0.76200 0.66530 0.02100
C 	C 	0.24600 0.74400 0.93700 0.00900
H 	H 	0.27250 0.72690 0.01020 -0.01600
H 	H 	0.25840 0.77920 0.93610 0.13800
H 	H 	0.19380 0.73960 0.95160 0.04400
C 	C 	0.27300 0.66200 0.79800 1.82000
H 	H 	0.30370 0.64920 0.87130 -0.85500
H 	H 	0.22500 0.64670 0.80350 0.40400
H 	H 	0.29550 0.65390 0.71150 -1.63700
N 	N 	0.26600 0.72200 0.81200 -0.31900
O 	O 	0.20500 0.74200 0.61800 -0.31900
C 	C 	0.14800 0.63250 0.70200 0.26900
H 	H 	0.17600 0.62920 0.62280 -0.01200
C 	C 	0.15100 0.62000 0.94300 -0.11500
H 	H 	0.17980 0.60020 0.00490 -0.00200
H 	H 	0.15100 0.65540 0.97330 0.01600
H 	H 	0.10050 0.60810 0.94290 0.07000
C 	C 	0.25500 0.58900 0.78300 -0.16300
H 	H 	0.27150 0.57280 0.86550 -0.12900
H 	H 	0.24740 0.56400 0.71260 -0.25500
H 	H 	0.29110 0.61350 0.75310 -1.73500
N 	N 	0.17980 0.61730 0.81200 0.12300
O 	O 	0.08710 0.65060 0.68600 0.11300
Mg	Mg	0.50000 0.50000 -0.00000 1.47900
Mg	Mg	-0.00000 0.50000 0.50000 1.47600
