data_crystal

_cell_length_a 39.33400
_cell_length_b 19.83290
_cell_length_c 16.02920
_cell_angle_alpha 90.00000
_cell_angle_beta  98.41800
_cell_angle_gamma 90.00000

_symmetry_space_group_name_	'P 1'
_symmetry_space_group_name_H-M	'P 1'

loop_
_symmetry_equiv_pos_as_xyz
  x,y,z

loop_
_atom_site_label
_atom_site_type_symbol
_atom_site_fract_x
_atom_site_fract_y
_atom_site_fract_z
_atom_site_charge
Fe	Fe	0.49987 0.08654 0.14017 1.05600
N 	N 	0.48457 0.98892 0.10441 -0.27300
N 	N 	0.51470 0.18440 0.11468 -0.27300
N 	N 	0.54963 0.05686 0.12884 -0.27000
N 	N 	0.44945 0.11620 0.09710 -0.26900
O 	O 	0.59934 0.64509 0.27140 -0.18400
O 	O 	0.71558 0.35260 0.20570 -0.20000
O 	O 	0.28828 0.82390 0.12140 -0.18000
O 	O 	0.62357 0.64842 0.15530 -0.21300
C 	C 	0.45148 0.96534 0.08546 0.08300
C 	C 	0.54769 0.20756 0.11468 0.09400
O 	O 	0.26434 0.89380 0.02100 -0.18800
C 	C 	0.54182 0.93398 0.13246 -0.14400
C 	C 	0.50563 0.93370 0.10767 0.07700
C 	C 	0.56161 0.99266 0.14340 0.08200
C 	C 	0.49341 0.23923 0.10408 0.08900
C 	C 	0.43781 0.18043 0.10473 0.08200
C 	C 	0.45237 0.89366 0.07138 -0.07700
H 	H 	0.43310 0.86510 0.05550 0.06200
C 	C 	0.42166 0.00441 0.08579 -0.13200
C 	C 	0.57788 0.09857 0.14220 0.08400
C 	C 	0.58524 0.84593 0.10725 -0.14000
H 	H 	0.59250 0.87330 0.06450 0.08500
C 	C 	0.45803 0.23904 0.10567 -0.14200
C 	C 	0.55884 0.86814 0.15019 0.10700
C 	C 	0.42133 0.07472 0.09553 0.07900
C 	C 	0.57724 0.16914 0.13134 -0.13800
C 	C 	0.48568 0.87464 0.08505 -0.09900
H 	H 	0.49420 0.83020 0.08050 0.06500
C 	C 	0.54923 0.82720 0.21400 -0.14000
H 	H 	0.53160 0.84180 0.24460 0.07500
C 	C 	0.38344 0.91696 0.13520 -0.13300
H 	H 	0.40220 0.90320 0.17590 0.07800
C 	C 	0.32881 0.95501 0.01590 0.03300
H 	H 	0.31010 0.96810 0.97470 0.04700
C 	C 	0.54652 0.27891 0.09750 -0.08000
H 	H 	0.56560 0.30690 0.09110 0.07300
C 	C 	0.39170 0.11428 0.10435 -0.07900
H 	H 	0.36910 0.09780 0.10600 0.06700
C 	C 	0.40183 0.17958 0.10988 -0.08100
H 	H 	0.38770 0.21760 0.11600 0.06600
C 	C 	0.59854 0.99375 0.16965 -0.07900
H 	H 	0.61300 0.95600 0.18450 0.06300
C 	C 	0.60812 0.05873 0.16870 -0.07800
H 	H 	0.63090 0.07540 0.18300 0.06600
C 	C 	0.44103 0.30525 0.11430 0.11400
C 	C 	0.51346 0.29862 0.09230 -0.07500
H 	H 	0.50500 0.34320 0.08260 0.06800
C 	C 	0.38800 0.96806 0.07911 0.10300
C 	C 	0.44903 0.34175 0.18990 -0.14700
H 	H 	0.46550 0.32420 0.23370 0.07700
C 	C 	0.61940 0.25623 0.19750 -0.13100
H 	H 	0.60290 0.27060 0.23160 0.07900
C 	C 	0.61139 0.20379 0.13890 0.11000
C 	C 	0.36037 0.98656 0.01820 -0.13000
H 	H 	0.36320 0.02080 0.97840 0.08100
C 	C 	0.67547 0.26670 0.15530 -0.07900
C 	C 	0.63553 0.18430 0.08920 -0.13200
H 	H 	0.63030 0.14940 0.04880 0.08600
C 	C 	0.66762 0.21570 0.09800 0.04600
H 	H 	0.68420 0.20170 0.06390 0.05200
C 	C 	0.60087 0.78423 0.12670 0.04500
H 	H 	0.61870 0.76980 0.09680 0.03300
C 	C 	0.56500 0.76600 0.23300 0.04400
H 	H 	0.55820 0.73890 0.27650 0.03800
C 	C 	0.59119 0.74309 0.18860 -0.09400
C 	C 	0.35168 0.88558 0.13250 0.03600
H 	H 	0.34880 0.85090 0.17170 0.04500
C 	C 	0.32421 0.90489 0.07260 -0.08100
C 	C 	0.41750 0.33196 0.05120 -0.13700
H 	H 	0.41170 0.30790 0.99980 0.09500
C 	C 	0.65108 0.28664 0.20540 0.04400
H 	H 	0.65650 0.32180 0.24540 0.04500
C 	C 	0.60689 0.67448 0.20510 0.30300
C 	C 	0.43350 0.40193 0.20130 0.05800
H 	H 	0.43860 0.42500 0.25360 0.03500
C 	C 	0.41080 0.42896 0.13830 -0.10000
C 	C 	0.28939 0.87190 0.07030 0.29300
C 	C 	0.40215 0.39383 0.06190 0.05100
H 	H 	0.38600 0.41220 0.01800 0.05400
C 	C 	0.70966 0.30180 0.16320 0.30200
C 	C 	0.39495 0.49650 0.14730 0.31800
O 	O 	0.37739 0.52353 0.09040 -0.21000
O 	O 	0.73076 0.27360 0.12020 -0.17100
O 	O 	0.40198 0.52376 0.22050 -0.18700
Fe	Fe	0.50013 0.08654 0.35983 1.05500
N 	N 	0.51543 0.98892 0.39559 -0.27400
N 	N 	0.48530 0.18440 0.38532 -0.27300
N 	N 	0.45037 0.05686 0.37116 -0.27000
N 	N 	0.55055 0.11620 0.40290 -0.26900
O 	O 	0.40066 0.64509 0.22860 -0.18400
O 	O 	0.28442 0.35260 0.29430 -0.20000
O 	O 	0.71172 0.82390 0.37860 -0.18000
O 	O 	0.37643 0.64842 0.34470 -0.21300
C 	C 	0.54852 0.96534 0.41454 0.08300
C 	C 	0.45231 0.20756 0.38532 0.09300
O 	O 	0.73566 0.89380 0.47900 -0.18800
C 	C 	0.45818 0.93398 0.36754 -0.14400
C 	C 	0.49437 0.93370 0.39233 0.07700
C 	C 	0.43839 0.99266 0.35660 0.08200
C 	C 	0.50659 0.23923 0.39592 0.08900
C 	C 	0.56219 0.18043 0.39527 0.08200
C 	C 	0.54763 0.89366 0.42862 -0.07700
H 	H 	0.56690 0.86510 0.44450 0.06200
C 	C 	0.57834 0.00441 0.41421 -0.13200
C 	C 	0.42212 0.09857 0.35780 0.08400
C 	C 	0.41476 0.84593 0.39275 -0.14000
H 	H 	0.40750 0.87330 0.43550 0.08500
C 	C 	0.54197 0.23904 0.39433 -0.14200
C 	C 	0.44116 0.86814 0.34981 0.10700
C 	C 	0.57867 0.07472 0.40447 0.07900
C 	C 	0.42276 0.16914 0.36866 -0.13800
C 	C 	0.51432 0.87464 0.41495 -0.09900
H 	H 	0.50580 0.83020 0.41950 0.06500
C 	C 	0.45077 0.82720 0.28600 -0.14000
H 	H 	0.46840 0.84180 0.25540 0.07500
C 	C 	0.61656 0.91696 0.36480 -0.13400
H 	H 	0.59780 0.90320 0.32410 0.07900
C 	C 	0.67119 0.95501 0.48410 0.03500
H 	H 	0.68990 0.96810 0.52530 0.04600
C 	C 	0.45348 0.27891 0.40250 -0.08000
H 	H 	0.43440 0.30690 0.40890 0.07300
C 	C 	0.60830 0.11428 0.39565 -0.08000
H 	H 	0.63090 0.09780 0.39400 0.06700
C 	C 	0.59817 0.17958 0.39012 -0.08100
H 	H 	0.61230 0.21760 0.38400 0.06600
C 	C 	0.40146 0.99375 0.33035 -0.07900
H 	H 	0.38700 0.95600 0.31550 0.06300
C 	C 	0.39188 0.05873 0.33130 -0.07800
H 	H 	0.36910 0.07540 0.31700 0.06600
C 	C 	0.55897 0.30525 0.38570 0.11400
C 	C 	0.48654 0.29862 0.40770 -0.07500
H 	H 	0.49500 0.34320 0.41740 0.06800
C 	C 	0.61200 0.96806 0.42089 0.10400
C 	C 	0.55097 0.34175 0.31010 -0.14700
H 	H 	0.53450 0.32420 0.26630 0.07700
C 	C 	0.38060 0.25623 0.30250 -0.13100
H 	H 	0.39710 0.27060 0.26840 0.07900
C 	C 	0.38861 0.20379 0.36110 0.11000
C 	C 	0.63963 0.98656 0.48180 -0.13100
H 	H 	0.63680 0.02080 0.52160 0.08200
C 	C 	0.32453 0.26670 0.34470 -0.07900
C 	C 	0.36447 0.18430 0.41080 -0.13200
H 	H 	0.36970 0.14940 0.45120 0.08600
C 	C 	0.33238 0.21570 0.40200 0.04600
H 	H 	0.31580 0.20170 0.43610 0.05200
C 	C 	0.39913 0.78423 0.37330 0.04500
H 	H 	0.38130 0.76980 0.40320 0.03300
C 	C 	0.43500 0.76600 0.26700 0.04400
H 	H 	0.44180 0.73890 0.22350 0.03800
C 	C 	0.40881 0.74309 0.31140 -0.09400
C 	C 	0.64832 0.88558 0.36750 0.03700
H 	H 	0.65120 0.85090 0.32830 0.04500
C 	C 	0.67579 0.90489 0.42740 -0.08200
C 	C 	0.58250 0.33196 0.44880 -0.13700
H 	H 	0.58830 0.30790 0.50020 0.09500
C 	C 	0.34892 0.28664 0.29460 0.04400
H 	H 	0.34350 0.32180 0.25460 0.04500
C 	C 	0.39311 0.67448 0.29490 0.30300
C 	C 	0.56650 0.40193 0.29870 0.05800
H 	H 	0.56140 0.42500 0.24640 0.03500
C 	C 	0.58920 0.42896 0.36170 -0.10000
C 	C 	0.71061 0.87190 0.42970 0.29300
C 	C 	0.59785 0.39383 0.43810 0.05100
H 	H 	0.61400 0.41220 0.48200 0.05400
C 	C 	0.29034 0.30180 0.33680 0.30200
C 	C 	0.60505 0.49650 0.35270 0.31800
O 	O 	0.62261 0.52353 0.40960 -0.21000
O 	O 	0.26924 0.27360 0.37980 -0.17100
O 	O 	0.59802 0.52376 0.27950 -0.18700
Fe	Fe	0.99987 0.58654 0.14017 1.05500
N 	N 	0.98457 0.48892 0.10441 -0.27400
N 	N 	0.01470 0.68440 0.11468 -0.27300
N 	N 	0.04963 0.55686 0.12884 -0.27000
N 	N 	0.94945 0.61620 0.09710 -0.26900
O 	O 	0.09934 0.14509 0.27140 -0.18400
O 	O 	0.21558 0.85260 0.20570 -0.20000
O 	O 	0.78828 0.32390 0.12140 -0.18000
O 	O 	0.12357 0.14842 0.15530 -0.21300
C 	C 	0.95148 0.46534 0.08546 0.08300
C 	C 	0.04769 0.70756 0.11468 0.09300
O 	O 	0.76434 0.39380 0.02100 -0.18800
C 	C 	0.04182 0.43398 0.13246 -0.14400
C 	C 	0.00563 0.43370 0.10767 0.07700
C 	C 	0.06161 0.49266 0.14340 0.08200
C 	C 	0.99341 0.73923 0.10408 0.08900
C 	C 	0.93781 0.68043 0.10473 0.08200
C 	C 	0.95237 0.39366 0.07138 -0.07700
H 	H 	0.93310 0.36510 0.05550 0.06200
C 	C 	0.92166 0.50441 0.08579 -0.13300
C 	C 	0.07788 0.59857 0.14220 0.08400
C 	C 	0.08524 0.34593 0.10725 -0.14000
H 	H 	0.09250 0.37330 0.06450 0.08500
C 	C 	0.95803 0.73904 0.10567 -0.14200
C 	C 	0.05884 0.36814 0.15019 0.10700
C 	C 	0.92133 0.57472 0.09553 0.07900
C 	C 	0.07724 0.66914 0.13134 -0.13800
C 	C 	0.98568 0.37464 0.08505 -0.09800
H 	H 	0.99420 0.33020 0.08050 0.06500
C 	C 	0.04923 0.32720 0.21400 -0.14000
H 	H 	0.03160 0.34180 0.24460 0.07500
C 	C 	0.88344 0.41696 0.13520 -0.13400
H 	H 	0.90220 0.40320 0.17590 0.07900
C 	C 	0.82881 0.45501 0.01590 0.03500
H 	H 	0.81010 0.46810 0.97470 0.04600
C 	C 	0.04652 0.77891 0.09750 -0.08000
H 	H 	0.06560 0.80690 0.09110 0.07200
C 	C 	0.89170 0.61428 0.10435 -0.08000
H 	H 	0.86910 0.59780 0.10600 0.06700
C 	C 	0.90183 0.67958 0.10988 -0.08100
H 	H 	0.88770 0.71760 0.11600 0.06600
C 	C 	0.09854 0.49375 0.16965 -0.07900
H 	H 	0.11300 0.45600 0.18450 0.06300
C 	C 	0.10812 0.55873 0.16870 -0.07800
H 	H 	0.13090 0.57540 0.18300 0.06600
C 	C 	0.94103 0.80525 0.11430 0.11400
C 	C 	0.01346 0.79862 0.09230 -0.07500
H 	H 	0.00500 0.84320 0.08260 0.06800
C 	C 	0.88800 0.46806 0.07911 0.10400
C 	C 	0.94903 0.84175 0.18990 -0.14700
H 	H 	0.96550 0.82420 0.23370 0.07700
C 	C 	0.11940 0.75623 0.19750 -0.13100
H 	H 	0.10290 0.77060 0.23160 0.07900
C 	C 	0.11139 0.70379 0.13890 0.11000
C 	C 	0.86037 0.48656 0.01820 -0.13100
H 	H 	0.86320 0.52080 0.97840 0.08200
C 	C 	0.17547 0.76670 0.15530 -0.07900
C 	C 	0.13553 0.68430 0.08920 -0.13200
H 	H 	0.13030 0.64940 0.04880 0.08600
C 	C 	0.16762 0.71570 0.09800 0.04600
H 	H 	0.18420 0.70170 0.06390 0.05200
C 	C 	0.10087 0.28423 0.12670 0.04500
H 	H 	0.11870 0.26980 0.09680 0.03400
C 	C 	0.06500 0.26600 0.23300 0.04400
H 	H 	0.05820 0.23890 0.27650 0.03800
C 	C 	0.09119 0.24309 0.18860 -0.09400
C 	C 	0.85168 0.38558 0.13250 0.03700
H 	H 	0.84880 0.35090 0.17170 0.04500
C 	C 	0.82421 0.40489 0.07260 -0.08200
C 	C 	0.91750 0.83196 0.05120 -0.13800
H 	H 	0.91170 0.80790 0.99980 0.09600
C 	C 	0.15108 0.78664 0.20540 0.04400
H 	H 	0.15650 0.82180 0.24540 0.04500
C 	C 	0.10689 0.17448 0.20510 0.30300
C 	C 	0.93350 0.90193 0.20130 0.05800
H 	H 	0.93860 0.92500 0.25360 0.03500
C 	C 	0.91080 0.92896 0.13830 -0.10000
C 	C 	0.78939 0.37190 0.07030 0.29300
C 	C 	0.90215 0.89383 0.06190 0.05100
H 	H 	0.88600 0.91220 0.01800 0.05400
C 	C 	0.20966 0.80180 0.16320 0.30200
C 	C 	0.89495 0.99650 0.14730 0.31800
O 	O 	0.87739 0.02353 0.09040 -0.21000
O 	O 	0.23076 0.77360 0.12020 -0.17100
O 	O 	0.90198 0.02376 0.22050 -0.18700
Fe	Fe	0.00013 0.58654 0.35983 1.05500
N 	N 	0.01543 0.48892 0.39559 -0.27400
N 	N 	0.98530 0.68440 0.38532 -0.27300
N 	N 	0.95037 0.55686 0.37116 -0.27000
N 	N 	0.05055 0.61620 0.40290 -0.26900
O 	O 	0.90066 0.14509 0.22860 -0.18400
O 	O 	0.78442 0.85260 0.29430 -0.20000
O 	O 	0.21172 0.32390 0.37860 -0.18000
O 	O 	0.87643 0.14842 0.34470 -0.21300
C 	C 	0.04852 0.46534 0.41454 0.08300
C 	C 	0.95231 0.70756 0.38532 0.09300
O 	O 	0.23566 0.39380 0.47900 -0.18800
C 	C 	0.95818 0.43398 0.36754 -0.14500
C 	C 	0.99437 0.43370 0.39233 0.07700
C 	C 	0.93839 0.49266 0.35660 0.08200
C 	C 	0.00659 0.73923 0.39592 0.08900
C 	C 	0.06219 0.68043 0.39527 0.08200
C 	C 	0.04763 0.39366 0.42862 -0.07700
H 	H 	0.06690 0.36510 0.44450 0.06200
C 	C 	0.07834 0.50441 0.41421 -0.13300
C 	C 	0.92212 0.59857 0.35780 0.08400
C 	C 	0.91476 0.34593 0.39275 -0.14000
H 	H 	0.90750 0.37330 0.43550 0.08500
C 	C 	0.04197 0.73904 0.39433 -0.14200
C 	C 	0.94116 0.36814 0.34981 0.10700
C 	C 	0.07867 0.57472 0.40447 0.07900
C 	C 	0.92276 0.66914 0.36866 -0.13800
C 	C 	0.01432 0.37464 0.41495 -0.09900
H 	H 	0.00580 0.33020 0.41950 0.06500
C 	C 	0.95077 0.32720 0.28600 -0.14000
H 	H 	0.96840 0.34180 0.25540 0.07500
C 	C 	0.11656 0.41696 0.36480 -0.13400
H 	H 	0.09780 0.40320 0.32410 0.07900
C 	C 	0.17119 0.45501 0.48410 0.03500
H 	H 	0.18990 0.46810 0.52530 0.04600
C 	C 	0.95348 0.77891 0.40250 -0.08000
H 	H 	0.93440 0.80690 0.40890 0.07300
C 	C 	0.10830 0.61428 0.39565 -0.08000
H 	H 	0.13090 0.59780 0.39400 0.06700
C 	C 	0.09817 0.67958 0.39012 -0.08100
H 	H 	0.11230 0.71760 0.38400 0.06600
C 	C 	0.90146 0.49375 0.33035 -0.07900
H 	H 	0.88700 0.45600 0.31550 0.06300
C 	C 	0.89188 0.55873 0.33130 -0.07800
H 	H 	0.86910 0.57540 0.31700 0.06600
C 	C 	0.05897 0.80525 0.38570 0.11400
C 	C 	0.98654 0.79862 0.40770 -0.07500
H 	H 	0.99500 0.84320 0.41740 0.06800
C 	C 	0.11200 0.46806 0.42089 0.10400
C 	C 	0.05097 0.84175 0.31010 -0.14700
H 	H 	0.03450 0.82420 0.26630 0.07700
C 	C 	0.88060 0.75623 0.30250 -0.13100
H 	H 	0.89710 0.77060 0.26840 0.07900
C 	C 	0.88861 0.70379 0.36110 0.11000
C 	C 	0.13963 0.48656 0.48180 -0.13100
H 	H 	0.13680 0.52080 0.52160 0.08200
C 	C 	0.82453 0.76670 0.34470 -0.07900
C 	C 	0.86447 0.68430 0.41080 -0.13200
H 	H 	0.86970 0.64940 0.45120 0.08600
C 	C 	0.83238 0.71570 0.40200 0.04600
H 	H 	0.81580 0.70170 0.43610 0.05200
C 	C 	0.89913 0.28423 0.37330 0.04500
H 	H 	0.88130 0.26980 0.40320 0.03300
C 	C 	0.93500 0.26600 0.26700 0.04400
H 	H 	0.94180 0.23890 0.22350 0.03800
C 	C 	0.90881 0.24309 0.31140 -0.09400
C 	C 	0.14832 0.38558 0.36750 0.03700
H 	H 	0.15120 0.35090 0.32830 0.04500
C 	C 	0.17579 0.40489 0.42740 -0.08200
C 	C 	0.08250 0.83196 0.44880 -0.13700
H 	H 	0.08830 0.80790 0.50020 0.09500
C 	C 	0.84892 0.78664 0.29460 0.04500
H 	H 	0.84350 0.82180 0.25460 0.04500
C 	C 	0.89311 0.17448 0.29490 0.30300
C 	C 	0.06650 0.90193 0.29870 0.05800
H 	H 	0.06140 0.92500 0.24640 0.03500
C 	C 	0.08920 0.92896 0.36170 -0.10000
C 	C 	0.21061 0.37190 0.42970 0.29300
C 	C 	0.09785 0.89383 0.43810 0.05100
H 	H 	0.11400 0.91220 0.48200 0.05400
C 	C 	0.79034 0.80180 0.33680 0.30200
C 	C 	0.10505 0.99650 0.35270 0.31800
O 	O 	0.12261 0.02353 0.40960 -0.21000
O 	O 	0.76924 0.77360 0.37980 -0.17100
O 	O 	0.09802 0.02376 0.27950 -0.18700
Fe	Fe	0.50013 0.91346 0.85983 1.05500
N 	N 	0.51543 0.01108 0.89559 -0.27400
N 	N 	0.48530 0.81560 0.88532 -0.27300
N 	N 	0.45037 0.94314 0.87116 -0.27000
N 	N 	0.55055 0.88380 0.90290 -0.26900
O 	O 	0.40066 0.35491 0.72860 -0.18400
O 	O 	0.28442 0.64740 0.79430 -0.20000
O 	O 	0.71172 0.17610 0.87860 -0.18000
O 	O 	0.37643 0.35158 0.84470 -0.21300
C 	C 	0.54852 0.03466 0.91454 0.08300
C 	C 	0.45231 0.79244 0.88532 0.09400
O 	O 	0.73566 0.10620 0.97900 -0.18800
C 	C 	0.45818 0.06602 0.86754 -0.14400
C 	C 	0.49437 0.06630 0.89233 0.07700
C 	C 	0.43839 0.00734 0.85660 0.08200
C 	C 	0.50659 0.76077 0.89592 0.08900
C 	C 	0.56219 0.81957 0.89527 0.08200
C 	C 	0.54763 0.10634 0.92862 -0.07700
H 	H 	0.56690 0.13490 0.94450 0.06200
C 	C 	0.57834 0.99559 0.91421 -0.13200
C 	C 	0.42212 0.90143 0.85780 0.08400
C 	C 	0.41476 0.15407 0.89275 -0.14000
H 	H 	0.40750 0.12670 0.93550 0.08500
C 	C 	0.54197 0.76096 0.89433 -0.14200
C 	C 	0.44116 0.13186 0.84981 0.10700
C 	C 	0.57867 0.92528 0.90447 0.07900
C 	C 	0.42276 0.83086 0.86866 -0.13800
C 	C 	0.51432 0.12536 0.91495 -0.09900
H 	H 	0.50580 0.16980 0.91950 0.06500
C 	C 	0.45077 0.17280 0.78600 -0.14000
H 	H 	0.46840 0.15820 0.75540 0.07500
C 	C 	0.61656 0.08304 0.86480 -0.13300
H 	H 	0.59780 0.09680 0.82410 0.07800
C 	C 	0.67119 0.04499 0.98410 0.03300
H 	H 	0.68990 0.03190 0.02530 0.04700
C 	C 	0.45348 0.72109 0.90250 -0.08000
H 	H 	0.43440 0.69310 0.90890 0.07300
C 	C 	0.60830 0.88572 0.89565 -0.07900
H 	H 	0.63090 0.90220 0.89400 0.06700
C 	C 	0.59817 0.82042 0.89012 -0.08100
H 	H 	0.61230 0.78240 0.88400 0.06600
C 	C 	0.40146 0.00625 0.83035 -0.07900
H 	H 	0.38700 0.04400 0.81550 0.06300
C 	C 	0.39188 0.94127 0.83130 -0.07800
H 	H 	0.36910 0.92460 0.81700 0.06600
C 	C 	0.55897 0.69475 0.88570 0.11400
C 	C 	0.48654 0.70138 0.90770 -0.07500
H 	H 	0.49500 0.65680 0.91740 0.06800
C 	C 	0.61200 0.03194 0.92089 0.10300
C 	C 	0.55097 0.65825 0.81010 -0.14700
H 	H 	0.53450 0.67580 0.76630 0.07700
C 	C 	0.38060 0.74377 0.80250 -0.13100
H 	H 	0.39710 0.72940 0.76840 0.07900
C 	C 	0.38861 0.79621 0.86110 0.11000
C 	C 	0.63963 0.01344 0.98180 -0.13000
H 	H 	0.63680 0.97920 0.02160 0.08100
C 	C 	0.32453 0.73330 0.84470 -0.07900
C 	C 	0.36447 0.81570 0.91080 -0.13200
H 	H 	0.36970 0.85060 0.95120 0.08600
C 	C 	0.33238 0.78430 0.90200 0.04600
H 	H 	0.31580 0.79830 0.93610 0.05200
C 	C 	0.39913 0.21577 0.87330 0.04500
H 	H 	0.38130 0.23020 0.90320 0.03300
C 	C 	0.43500 0.23400 0.76700 0.04400
H 	H 	0.44180 0.26110 0.72350 0.03800
C 	C 	0.40881 0.25691 0.81140 -0.09400
C 	C 	0.64832 0.11442 0.86750 0.03600
H 	H 	0.65120 0.14910 0.82830 0.04500
C 	C 	0.67579 0.09511 0.92740 -0.08100
C 	C 	0.58250 0.66804 0.94880 -0.13700
H 	H 	0.58830 0.69210 0.00020 0.09500
C 	C 	0.34892 0.71336 0.79460 0.04400
H 	H 	0.34350 0.67820 0.75460 0.04500
C 	C 	0.39311 0.32552 0.79490 0.30300
C 	C 	0.56650 0.59807 0.79870 0.05800
H 	H 	0.56140 0.57500 0.74640 0.03500
C 	C 	0.58920 0.57104 0.86170 -0.10000
C 	C 	0.71061 0.12810 0.92970 0.29300
C 	C 	0.59785 0.60617 0.93810 0.05100
H 	H 	0.61400 0.58780 0.98200 0.05400
C 	C 	0.29034 0.69820 0.83680 0.30200
C 	C 	0.60505 0.50350 0.85270 0.31800
O 	O 	0.62261 0.47647 0.90960 -0.21000
O 	O 	0.26924 0.72640 0.87980 -0.17100
O 	O 	0.59802 0.47624 0.77950 -0.18700
Fe	Fe	0.49987 0.91346 0.64017 1.05500
N 	N 	0.48457 0.01108 0.60441 -0.27400
N 	N 	0.51470 0.81560 0.61468 -0.27300
N 	N 	0.54963 0.94314 0.62884 -0.27000
N 	N 	0.44945 0.88380 0.59710 -0.26900
O 	O 	0.59934 0.35491 0.77140 -0.18400
O 	O 	0.71558 0.64740 0.70570 -0.20000
O 	O 	0.28828 0.17610 0.62140 -0.18000
O 	O 	0.62357 0.35158 0.65530 -0.21300
C 	C 	0.45148 0.03466 0.58546 0.08300
C 	C 	0.54769 0.79244 0.61468 0.09300
O 	O 	0.26434 0.10620 0.52100 -0.18800
C 	C 	0.54182 0.06602 0.63246 -0.14400
C 	C 	0.50563 0.06630 0.60767 0.07700
C 	C 	0.56161 0.00734 0.64340 0.08200
C 	C 	0.49341 0.76077 0.60408 0.08900
C 	C 	0.43781 0.81957 0.60473 0.08200
C 	C 	0.45237 0.10634 0.57138 -0.07700
H 	H 	0.43310 0.13490 0.55550 0.06200
C 	C 	0.42166 0.99559 0.58579 -0.13200
C 	C 	0.57788 0.90143 0.64220 0.08400
C 	C 	0.58524 0.15407 0.60725 -0.14000
H 	H 	0.59250 0.12670 0.56450 0.08500
C 	C 	0.45803 0.76096 0.60567 -0.14200
C 	C 	0.55884 0.13186 0.65019 0.10700
C 	C 	0.42133 0.92528 0.59553 0.07900
C 	C 	0.57724 0.83086 0.63134 -0.13800
C 	C 	0.48568 0.12536 0.58505 -0.09900
H 	H 	0.49420 0.16980 0.58050 0.06500
C 	C 	0.54923 0.17280 0.71400 -0.14000
H 	H 	0.53160 0.15820 0.74460 0.07500
C 	C 	0.38344 0.08304 0.63520 -0.13400
H 	H 	0.40220 0.09680 0.67590 0.07900
C 	C 	0.32881 0.04499 0.51590 0.03500
H 	H 	0.31010 0.03190 0.47470 0.04600
C 	C 	0.54652 0.72109 0.59750 -0.08000
H 	H 	0.56560 0.69310 0.59110 0.07300
C 	C 	0.39170 0.88572 0.60435 -0.08000
H 	H 	0.36910 0.90220 0.60600 0.06700
C 	C 	0.40183 0.82042 0.60988 -0.08100
H 	H 	0.38770 0.78240 0.61600 0.06600
C 	C 	0.59854 0.00625 0.66965 -0.07900
H 	H 	0.61300 0.04400 0.68450 0.06300
C 	C 	0.60812 0.94127 0.66870 -0.07800
H 	H 	0.63090 0.92460 0.68300 0.06600
C 	C 	0.44103 0.69475 0.61430 0.11400
C 	C 	0.51346 0.70138 0.59230 -0.07500
H 	H 	0.50500 0.65680 0.58260 0.06800
C 	C 	0.38800 0.03194 0.57911 0.10400
C 	C 	0.44903 0.65825 0.68990 -0.14700
H 	H 	0.46550 0.67580 0.73370 0.07700
C 	C 	0.61940 0.74377 0.69750 -0.13100
H 	H 	0.60290 0.72940 0.73160 0.07900
C 	C 	0.61139 0.79621 0.63890 0.11000
C 	C 	0.36037 0.01344 0.51820 -0.13100
H 	H 	0.36320 0.97920 0.47840 0.08200
C 	C 	0.67547 0.73330 0.65530 -0.07900
C 	C 	0.63553 0.81570 0.58920 -0.13200
H 	H 	0.63030 0.85060 0.54880 0.08600
C 	C 	0.66762 0.78430 0.59800 0.04600
H 	H 	0.68420 0.79830 0.56390 0.05200
C 	C 	0.60087 0.21577 0.62670 0.04500
H 	H 	0.61870 0.23020 0.59680 0.03300
C 	C 	0.56500 0.23400 0.73300 0.04400
H 	H 	0.55820 0.26110 0.77650 0.03800
C 	C 	0.59119 0.25691 0.68860 -0.09400
C 	C 	0.35168 0.11442 0.63250 0.03700
H 	H 	0.34880 0.14910 0.67170 0.04500
C 	C 	0.32421 0.09511 0.57260 -0.08200
C 	C 	0.41750 0.66804 0.55120 -0.13700
H 	H 	0.41170 0.69210 0.49980 0.09500
C 	C 	0.65108 0.71336 0.70540 0.04400
H 	H 	0.65650 0.67820 0.74540 0.04500
C 	C 	0.60689 0.32552 0.70510 0.30300
C 	C 	0.43350 0.59807 0.70130 0.05800
H 	H 	0.43860 0.57500 0.75360 0.03500
C 	C 	0.41080 0.57104 0.63830 -0.10000
C 	C 	0.28939 0.12810 0.57030 0.29300
C 	C 	0.40215 0.60617 0.56190 0.05100
H 	H 	0.38600 0.58780 0.51800 0.05400
C 	C 	0.70966 0.69820 0.66320 0.30200
C 	C 	0.39495 0.50350 0.64730 0.31800
O 	O 	0.37739 0.47647 0.59040 -0.21000
O 	O 	0.73076 0.72640 0.62020 -0.17100
O 	O 	0.40198 0.47624 0.72050 -0.18700
Fe	Fe	0.00013 0.41346 0.85983 1.05500
N 	N 	0.01543 0.51108 0.89559 -0.27400
N 	N 	0.98530 0.31560 0.88532 -0.27300
N 	N 	0.95037 0.44314 0.87116 -0.27000
N 	N 	0.05055 0.38380 0.90290 -0.26900
O 	O 	0.90066 0.85491 0.72860 -0.18400
O 	O 	0.78442 0.14740 0.79430 -0.20000
O 	O 	0.21172 0.67610 0.87860 -0.18000
O 	O 	0.87643 0.85158 0.84470 -0.21300
C 	C 	0.04852 0.53466 0.91454 0.08300
C 	C 	0.95231 0.29244 0.88532 0.09300
O 	O 	0.23566 0.60620 0.97900 -0.18800
C 	C 	0.95818 0.56602 0.86754 -0.14400
C 	C 	0.99437 0.56630 0.89233 0.07700
C 	C 	0.93839 0.50734 0.85660 0.08200
C 	C 	0.00659 0.26077 0.89592 0.08900
C 	C 	0.06219 0.31957 0.89527 0.08200
C 	C 	0.04763 0.60634 0.92862 -0.07700
H 	H 	0.06690 0.63490 0.94450 0.06200
C 	C 	0.07834 0.49559 0.91421 -0.13300
C 	C 	0.92212 0.40143 0.85780 0.08400
C 	C 	0.91476 0.65407 0.89275 -0.14000
H 	H 	0.90750 0.62670 0.93550 0.08500
C 	C 	0.04197 0.26096 0.89433 -0.14200
C 	C 	0.94116 0.63186 0.84981 0.10700
C 	C 	0.07867 0.42528 0.90447 0.07900
C 	C 	0.92276 0.33086 0.86866 -0.13800
C 	C 	0.01432 0.62536 0.91495 -0.09800
H 	H 	0.00580 0.66980 0.91950 0.06500
C 	C 	0.95077 0.67280 0.78600 -0.14000
H 	H 	0.96840 0.65820 0.75540 0.07500
C 	C 	0.11656 0.58304 0.86480 -0.13400
H 	H 	0.09780 0.59680 0.82410 0.07900
C 	C 	0.17119 0.54499 0.98410 0.03500
H 	H 	0.18990 0.53190 0.02530 0.04600
C 	C 	0.95348 0.22109 0.90250 -0.08000
H 	H 	0.93440 0.19310 0.90890 0.07200
C 	C 	0.10830 0.38572 0.89565 -0.08000
H 	H 	0.13090 0.40220 0.89400 0.06700
C 	C 	0.09817 0.32042 0.89012 -0.08100
H 	H 	0.11230 0.28240 0.88400 0.06600
C 	C 	0.90146 0.50625 0.83035 -0.07900
H 	H 	0.88700 0.54400 0.81550 0.06300
C 	C 	0.89188 0.44127 0.83130 -0.07800
H 	H 	0.86910 0.42460 0.81700 0.06600
C 	C 	0.05897 0.19475 0.88570 0.11400
C 	C 	0.98654 0.20138 0.90770 -0.07500
H 	H 	0.99500 0.15680 0.91740 0.06800
C 	C 	0.11200 0.53194 0.92089 0.10400
C 	C 	0.05097 0.15825 0.81010 -0.14700
H 	H 	0.03450 0.17580 0.76630 0.07700
C 	C 	0.88060 0.24377 0.80250 -0.13100
H 	H 	0.89710 0.22940 0.76840 0.07900
C 	C 	0.88861 0.29621 0.86110 0.11000
C 	C 	0.13963 0.51344 0.98180 -0.13100
H 	H 	0.13680 0.47920 0.02160 0.08200
C 	C 	0.82453 0.23330 0.84470 -0.07900
C 	C 	0.86447 0.31570 0.91080 -0.13200
H 	H 	0.86970 0.35060 0.95120 0.08600
C 	C 	0.83238 0.28430 0.90200 0.04600
H 	H 	0.81580 0.29830 0.93610 0.05200
C 	C 	0.89913 0.71577 0.87330 0.04500
H 	H 	0.88130 0.73020 0.90320 0.03400
C 	C 	0.93500 0.73400 0.76700 0.04400
H 	H 	0.94180 0.76110 0.72350 0.03800
C 	C 	0.90881 0.75691 0.81140 -0.09400
C 	C 	0.14832 0.61442 0.86750 0.03700
H 	H 	0.15120 0.64910 0.82830 0.04500
C 	C 	0.17579 0.59511 0.92740 -0.08200
C 	C 	0.08250 0.16804 0.94880 -0.13800
H 	H 	0.08830 0.19210 0.00020 0.09600
C 	C 	0.84892 0.21336 0.79460 0.04400
H 	H 	0.84350 0.17820 0.75460 0.04500
C 	C 	0.89311 0.82552 0.79490 0.30300
C 	C 	0.06650 0.09807 0.79870 0.05800
H 	H 	0.06140 0.07500 0.74640 0.03500
C 	C 	0.08920 0.07104 0.86170 -0.10000
C 	C 	0.21061 0.62810 0.92970 0.29300
C 	C 	0.09785 0.10617 0.93810 0.05100
H 	H 	0.11400 0.08780 0.98200 0.05400
C 	C 	0.79034 0.19820 0.83680 0.30200
C 	C 	0.10505 0.00350 0.85270 0.31800
O 	O 	0.12261 0.97647 0.90960 -0.21000
O 	O 	0.76924 0.22640 0.87980 -0.17100
O 	O 	0.09802 0.97624 0.77950 -0.18700
Fe	Fe	0.99987 0.41346 0.64017 1.05500
N 	N 	0.98457 0.51108 0.60441 -0.27400
N 	N 	0.01470 0.31560 0.61468 -0.27300
N 	N 	0.04963 0.44314 0.62884 -0.27000
N 	N 	0.94945 0.38380 0.59710 -0.26900
O 	O 	0.09934 0.85491 0.77140 -0.18400
O 	O 	0.21558 0.14740 0.70570 -0.20000
O 	O 	0.78828 0.67610 0.62140 -0.18000
O 	O 	0.12357 0.85158 0.65530 -0.21300
C 	C 	0.95148 0.53466 0.58546 0.08300
C 	C 	0.04769 0.29244 0.61468 0.09300
O 	O 	0.76434 0.60620 0.52100 -0.18800
C 	C 	0.04182 0.56602 0.63246 -0.14500
C 	C 	0.00563 0.56630 0.60767 0.07700
C 	C 	0.06161 0.50734 0.64340 0.08200
C 	C 	0.99341 0.26077 0.60408 0.08900
C 	C 	0.93781 0.31957 0.60473 0.08200
C 	C 	0.95237 0.60634 0.57138 -0.07700
H 	H 	0.93310 0.63490 0.55550 0.06200
C 	C 	0.92166 0.49559 0.58579 -0.13300
C 	C 	0.07788 0.40143 0.64220 0.08400
C 	C 	0.08524 0.65407 0.60725 -0.14000
H 	H 	0.09250 0.62670 0.56450 0.08500
C 	C 	0.95803 0.26096 0.60567 -0.14200
C 	C 	0.05884 0.63186 0.65019 0.10700
C 	C 	0.92133 0.42528 0.59553 0.07900
C 	C 	0.07724 0.33086 0.63134 -0.13800
C 	C 	0.98568 0.62536 0.58505 -0.09900
H 	H 	0.99420 0.66980 0.58050 0.06500
C 	C 	0.04923 0.67280 0.71400 -0.14000
H 	H 	0.03160 0.65820 0.74460 0.07500
C 	C 	0.88344 0.58304 0.63520 -0.13400
H 	H 	0.90220 0.59680 0.67590 0.07900
C 	C 	0.82881 0.54499 0.51590 0.03500
H 	H 	0.81010 0.53190 0.47470 0.04600
C 	C 	0.04652 0.22109 0.59750 -0.08000
H 	H 	0.06560 0.19310 0.59110 0.07300
C 	C 	0.89170 0.38572 0.60435 -0.08000
H 	H 	0.86910 0.40220 0.60600 0.06700
C 	C 	0.90183 0.32042 0.60988 -0.08100
H 	H 	0.88770 0.28240 0.61600 0.06600
C 	C 	0.09854 0.50625 0.66965 -0.07900
H 	H 	0.11300 0.54400 0.68450 0.06300
C 	C 	0.10812 0.44127 0.66870 -0.07800
H 	H 	0.13090 0.42460 0.68300 0.06600
C 	C 	0.94103 0.19475 0.61430 0.11400
C 	C 	0.01346 0.20138 0.59230 -0.07500
H 	H 	0.00500 0.15680 0.58260 0.06800
C 	C 	0.88800 0.53194 0.57911 0.10400
C 	C 	0.94903 0.15825 0.68990 -0.14700
H 	H 	0.96550 0.17580 0.73370 0.07700
C 	C 	0.11940 0.24377 0.69750 -0.13100
H 	H 	0.10290 0.22940 0.73160 0.07900
C 	C 	0.11139 0.29621 0.63890 0.11000
C 	C 	0.86037 0.51344 0.51820 -0.13100
H 	H 	0.86320 0.47920 0.47840 0.08200
C 	C 	0.17547 0.23330 0.65530 -0.07900
C 	C 	0.13553 0.31570 0.58920 -0.13200
H 	H 	0.13030 0.35060 0.54880 0.08600
C 	C 	0.16762 0.28430 0.59800 0.04600
H 	H 	0.18420 0.29830 0.56390 0.05200
C 	C 	0.10087 0.71577 0.62670 0.04500
H 	H 	0.11870 0.73020 0.59680 0.03300
C 	C 	0.06500 0.73400 0.73300 0.04400
H 	H 	0.05820 0.76110 0.77650 0.03800
C 	C 	0.09119 0.75691 0.68860 -0.09400
C 	C 	0.85168 0.61442 0.63250 0.03700
H 	H 	0.84880 0.64910 0.67170 0.04500
C 	C 	0.82421 0.59511 0.57260 -0.08200
C 	C 	0.91750 0.16804 0.55120 -0.13700
H 	H 	0.91170 0.19210 0.49980 0.09500
C 	C 	0.15108 0.21336 0.70540 0.04500
H 	H 	0.15650 0.17820 0.74540 0.04500
C 	C 	0.10689 0.82552 0.70510 0.30300
C 	C 	0.93350 0.09807 0.70130 0.05800
H 	H 	0.93860 0.07500 0.75360 0.03500
C 	C 	0.91080 0.07104 0.63830 -0.10000
C 	C 	0.78939 0.62810 0.57030 0.29300
C 	C 	0.90215 0.10617 0.56190 0.05100
H 	H 	0.88600 0.08780 0.51800 0.05400
C 	C 	0.20966 0.19820 0.66320 0.30200
C 	C 	0.89495 0.00350 0.64730 0.31800
O 	O 	0.87739 0.97647 0.59040 -0.21000
O 	O 	0.23076 0.22640 0.62020 -0.17100
O 	O 	0.90198 0.97624 0.72050 -0.18700
