data_crystal

_cell_length_a 18.95630
_cell_length_b 16.29030
_cell_length_c 38.56310
_cell_angle_alpha 90.00000
_cell_angle_beta  101.67700
_cell_angle_gamma 90.00000

_symmetry_space_group_name_	'P 1'
_symmetry_space_group_name_H-M	'P 1'

loop_
_symmetry_equiv_pos_as_xyz
  x,y,z

loop_
_atom_site_label
_atom_site_type_symbol
_atom_site_fract_x
_atom_site_fract_y
_atom_site_fract_z
_atom_site_charge
Al	Al	0.23671 0.18907 0.21765 2.36300
Al	Al	0.28841 0.89828 0.16863 2.35200
Al	Al	0.39358 0.16521 0.11770 2.66400
N 	N 	0.17392 0.11482 0.24608 0.90500
N 	N 	0.34569 0.84380 0.13321 0.03900
N 	N 	0.39059 0.29372 0.12309 -11.95700
O 	O 	0.16034 0.24172 0.19675 8.27900
O 	O 	0.29041 0.22545 0.25642 -0.17500
O 	O 	0.25719 0.08908 0.20095 -0.44800
O 	O 	0.23808 0.95426 0.19874 -0.82200
O 	O 	0.20640 0.86568 0.14304 1.55400
O 	O 	0.33433 0.84296 0.20469 -0.94600
O 	O 	0.33003 0.99264 0.15510 -0.65500
O 	O 	0.39123 0.04980 0.11783 -0.71800
O 	O 	0.33714 0.16913 0.07638 -32.24500
O 	O 	0.48619 0.16444 0.11959 0.82600
O 	O 	0.35344 0.17042 0.15760 0.19500
O 	O 	0.29334 0.24456 0.19032 1.03800
C 	C 	0.08965 0.22040 0.18813 -21.95500
C 	C 	0.04675 0.24690 0.15566 52.92200
C 	C 	0.97603 0.21970 0.14777 -33.04100
H 	H 	0.94740 0.23610 0.12640 14.62800
C 	C 	0.94516 0.16950 0.16992 17.02800
C 	C 	0.98779 0.14820 0.20224 -14.53600
H 	H 	0.96840 0.11620 0.21800 4.85300
C 	C 	0.05937 0.17390 0.21167 13.47400
C 	C 	0.10320 0.15420 0.24767 -7.35500
H 	H 	0.11200 0.20440 0.26140 2.20700
H 	H 	0.07580 0.11760 0.25980 1.98000
C 	C 	0.07840 0.30070 0.12945 -135.99500
C 	C 	0.13030 0.24850 0.11333 156.73900
H 	H 	0.10540 0.20130 0.10210 -49.31300
H 	H 	0.16960 0.23110 0.13170 -47.49300
H 	H 	0.14860 0.28030 0.09610 -59.92000
C 	C 	0.11750 0.37650 0.14757 169.97700
H 	H 	0.08440 0.40900 0.15760 -56.08000
H 	H 	0.13570 0.40860 0.13050 -73.06500
H 	H 	0.15670 0.35930 0.16600 -52.59200
C 	C 	0.01820 0.33350 0.09952 205.84700
H 	H 	0.98540 0.36640 0.10950 -72.92900
H 	H 	0.99270 0.28820 0.08690 -66.84200
H 	H 	0.03910 0.36630 0.08350 -108.78500
C 	C 	0.86685 0.13840 0.15770 -6.45500
C 	C 	0.86370 0.08180 0.12588 0.99700
H 	H 	0.88020 0.11090 0.10740 1.84800
H 	H 	0.81500 0.06400 0.11750 1.05200
H 	H 	0.89400 0.03490 0.13280 1.17600
C 	C 	0.84070 0.09140 0.18659 5.76400
H 	H 	0.84240 0.12650 0.20680 -1.99200
H 	H 	0.87100 0.04450 0.19330 -1.47600
H 	H 	0.79200 0.07360 0.17800 -1.28400
C 	C 	0.81690 0.21210 0.14695 4.17500
H 	H 	0.83280 0.24250 0.12860 -0.16100
H 	H 	0.81790 0.24700 0.16710 -1.04900
H 	H 	0.76860 0.19310 0.13840 -0.57300
C 	C 	0.27470 0.23820 0.28858 -2.28900
C 	C 	0.29636 0.31060 0.30743 3.61800
C 	C 	0.27680 0.32060 0.33993 -7.33100
H 	H 	0.29050 0.36870 0.35240 3.00800
C 	C 	0.23800 0.26310 0.35485 11.89800
C 	C 	0.21800 0.19110 0.33565 -6.89400
H 	H 	0.19200 0.15120 0.34500 2.36400
C 	C 	0.23610 0.17800 0.30310 3.37200
C 	C 	0.21650 0.09980 0.28260 -2.18800
H 	H 	0.26030 0.07040 0.28100 0.66900
H 	H 	0.18870 0.06520 0.29530 0.61000
C 	C 	0.34120 0.37530 0.29213 -1.93200
C 	C 	0.29480 0.41550 0.25880 1.79000
H 	H 	0.25300 0.44020 0.26490 -0.66200
H 	H 	0.28020 0.37440 0.24100 -0.36700
H 	H 	0.32260 0.45680 0.24990 -1.00600
C 	C 	0.40830 0.33530 0.28345 1.49100
H 	H 	0.43590 0.37590 0.27400 -0.40700
H 	H 	0.39430 0.29260 0.26630 -0.45000
H 	H 	0.43700 0.31240 0.30460 -0.40700
C 	C 	0.36600 0.44510 0.31874 1.33900
H 	H 	0.32460 0.47140 0.32470 -0.36300
H 	H 	0.39310 0.48460 0.30840 -0.37700
H 	H 	0.39570 0.42300 0.33980 -0.34400
C 	C 	0.21550 0.27670 0.39015 -27.39400
C 	C 	0.24630 0.35980 0.40700 27.38300
H 	H 	0.29770 0.36040 0.40930 -8.31500
H 	H 	0.23480 0.36550 0.43000 -9.17300
H 	H 	0.22550 0.40440 0.39220 -8.20200
C 	C 	0.25330 0.21360 0.41706 34.55600
H 	H 	0.30450 0.21820 0.41930 -10.78300
H 	H 	0.23810 0.15940 0.40910 -14.10500
H 	H 	0.24090 0.22370 0.43960 -14.44300
C 	C 	0.13800 0.27170 0.38601 39.12200
H 	H 	0.12490 0.28050 0.40850 -15.02600
H 	H 	0.12190 0.21840 0.37720 -14.16900
H 	H 	0.11570 0.31290 0.36960 -11.75900
C 	C 	0.16355 0.03611 0.22700 -0.79500
H 	H 	0.11790 0.03630 0.21020 0.68100
H 	H 	0.16290 0.99150 0.24360 0.18100
C 	C 	0.22440 0.02414 0.20780 1.11700
C 	C 	0.18663 0.84731 0.10866 -13.70200
C 	C 	0.11813 0.87110 0.08896 17.50900
C 	C 	0.10235 0.85240 0.05323 -37.52100
H 	H 	0.05800 0.86900 0.04010 10.93700
C 	C 	0.14910 0.81000 0.03546 44.87600
C 	C 	0.21469 0.78540 0.05599 -34.71000
H 	H 	0.24690 0.75650 0.04540 7.28300
C 	C 	0.23323 0.80297 0.09181 8.91700
C 	C 	0.30446 0.77434 0.11352 -3.88900
H 	H 	0.29580 0.73290 0.13020 -3.90100
H 	H 	0.33280 0.74950 0.09800 -2.53500
C 	C 	0.06373 0.91660 0.10704 -25.85200
C 	C 	0.09300 0.99970 0.12162 25.86500
H 	H 	0.10390 0.03260 0.10270 -8.44900
H 	H 	0.13610 0.99170 0.13930 -7.72600
H 	H 	0.05760 0.02710 0.13200 -6.73700
C 	C 	0.99240 0.93160 0.08036 30.91100
H 	H 	0.97300 0.88000 0.07080 -12.84800
H 	H 	0.00130 0.96600 0.06150 -10.02900
H 	H 	0.95860 0.95800 0.09220 -8.28900
C 	C 	0.04660 0.86480 0.13703 31.74000
H 	H 	0.02820 0.81250 0.12790 -13.93200
H 	H 	0.01120 0.89230 0.14740 -8.64400
H 	H 	0.08970 0.85680 0.15470 -10.79200
C 	C 	0.13000 0.79050 0.99591 -119.63000
C 	C 	0.19010 0.82130 0.97770 126.10800
H 	H 	0.17780 0.80890 0.95290 -37.45100
H 	H 	0.23460 0.79470 0.98800 -39.50100
H 	H 	0.19550 0.87960 0.98090 -39.78600
C 	C 	0.06010 0.83280 0.97681 131.40900
H 	H 	0.05070 0.81850 0.95220 -39.14600
H 	H 	0.06530 0.89120 0.97930 -40.59000
H 	H 	0.02060 0.81490 0.98710 -49.61000
C 	C 	0.12320 0.69750 0.99062 211.58000
H 	H 	0.11120 0.68540 0.96580 -81.61600
H 	H 	0.08600 0.67700 0.00190 -110.10000
H 	H 	0.16810 0.67170 0.00090 -92.36900
C 	C 	0.37502 0.77516 0.20834 -0.33900
C 	C 	0.37924 0.72380 0.23830 -0.05800
C 	C 	0.42499 0.65670 0.24128 -0.75800
H 	H 	0.42860 0.62330 0.26110 0.19600
C 	C 	0.46645 0.63580 0.21601 -0.01500
C 	C 	0.45922 0.68660 0.18640 -0.85500
H 	H 	0.48440 0.67410 0.16870 -0.29200
C 	C 	0.41499 0.75566 0.18273 -0.51800
C 	C 	0.41761 0.81594 0.15338 -0.28000
H 	H 	0.44470 0.86380 0.16350 0.29400
H 	H 	0.44370 0.79100 0.13690 -0.22800
C 	C 	0.33457 0.74340 0.26651 -0.94500
C 	C 	0.25408 0.73870 0.24973 2.49200
H 	H 	0.24300 0.68510 0.23970 -2.01700
H 	H 	0.24260 0.77930 0.23140 -1.41400
H 	H 	0.22630 0.74860 0.26750 -0.90900
C 	C 	0.35350 0.82820 0.28259 0.43500
H 	H 	0.40390 0.83020 0.29300 -0.07700
H 	H 	0.32600 0.83840 0.30050 -0.02100
H 	H 	0.34230 0.86910 0.26440 -0.09300
C 	C 	0.34960 0.68120 0.29735 0.48900
H 	H 	0.33830 0.62680 0.28830 -0.27100
H 	H 	0.32020 0.69430 0.31420 -0.08600
H 	H 	0.39950 0.68390 0.30870 -0.09700
C 	C 	0.51653 0.56080 0.22178 -0.92600
C 	C 	0.56450 0.55670 0.19420 0.44200
H 	H 	0.59360 0.60540 0.19580 0.05700
H 	H 	0.53480 0.55300 0.17090 -0.43500
H 	H 	0.59510 0.50930 0.19860 0.12400
C 	C 	0.47120 0.48350 0.21870 1.76800
H 	H 	0.44020 0.48140 0.19570 -1.59400
H 	H 	0.44260 0.48380 0.23660 -0.76100
H 	H 	0.50220 0.43630 0.22180 -0.55600
C 	C 	0.56650 0.56600 0.25797 0.50900
H 	H 	0.59460 0.61530 0.25940 -0.09800
H 	H 	0.59800 0.51930 0.26130 -0.14300
H 	H 	0.53840 0.56670 0.27610 -0.09800
C 	C 	0.35897 0.91018 0.10935 0.28300
H 	H 	0.32090 0.91120 0.08830 -1.40700
H 	H 	0.40440 0.90120 0.10210 -0.39800
C 	C 	0.36097 0.99048 0.12897 -1.10200
C 	C 	0.29131 0.22550 0.05839 128.57100
C 	C 	0.23140 0.19990 0.03306 -193.87600
C 	C 	0.18560 0.26210 0.01590 359.13100
H 	H 	0.14550 0.24620 0.99910 -143.02700
C 	C 	0.19580 0.34390 0.02218 -558.58800
C 	C 	0.25680 0.36670 0.04699 327.85300
H 	H 	0.26560 0.42220 0.05170 -148.32300
C 	C 	0.30490 0.30910 0.06498 -174.30300
C 	C 	0.37420 0.33690 0.08806 97.77300
H 	H 	0.41330 0.32730 0.07580 -30.09800
H 	H 	0.37160 0.39550 0.09210 -33.76100
C 	C 	0.21750 0.10860 0.02446 153.92700
C 	C 	0.28180 0.07010 0.01147 -158.23700
H 	H 	0.28940 0.09870 0.99080 48.91800
H 	H 	0.27180 0.01330 0.00580 47.24100
H 	H 	0.32430 0.07420 0.02980 48.20700
C 	C 	0.20530 0.06300 0.05741 -160.40800
H 	H 	0.24650 0.07040 0.07630 49.31200
H 	H 	0.19860 0.00560 0.05220 47.79400
H 	H 	0.16330 0.08450 0.06450 49.58200
C 	C 	0.15020 0.09450 0.99544 -155.10400
H 	H 	0.15570 0.12230 0.97420 47.53300
H 	H 	0.10860 0.11570 0.00320 46.09800
H 	H 	0.14400 0.03680 0.99080 47.45900
C 	C 	0.14420 0.41030 0.00333 1219.56100
C 	C 	0.18270 0.46450 0.98182 -1327.77400
H 	H 	0.20000 0.43200 0.96450 392.03700
H 	H 	0.22280 0.49050 0.99710 386.81700
H 	H 	0.15020 0.50560 0.97010 377.38600
C 	C 	0.07940 0.37370 0.97910 -1293.69000
H 	H 	0.05060 0.41690 0.96640 344.83800
H 	H 	0.05130 0.34350 0.99280 370.81700
H 	H 	0.09510 0.33750 0.96250 381.33800
C 	C 	0.11930 0.46440 0.03120 -2200.99200
H 	H 	0.09430 0.43110 0.04540 366.31800
H 	H 	0.08750 0.50630 0.01960 349.60000
H 	H 	0.16040 0.48940 0.04610 363.58400
H 	H 	0.13380 0.52010 0.02860 365.88900
H 	H 	0.14060 0.44490 0.05450 368.53800
H 	H 	0.06770 0.46180 0.02800 344.29500
C 	C 	0.53018 0.22380 0.11231 -3.55300
C 	C 	0.58393 0.20710 0.09243 6.67000
C 	C 	0.62943 0.27200 0.08789 -12.72400
H 	H 	0.66560 0.26170 0.07540 5.26800
C 	C 	0.62440 0.35100 0.10083 19.92200
C 	C 	0.56880 0.36590 0.11869 -11.41400
H 	H 	0.56220 0.41860 0.12680 4.57700
C 	C 	0.52290 0.30300 0.12458 5.02000
C 	C 	0.46290 0.32020 0.14398 -0.06000
H 	H 	0.47270 0.29160 0.16650 -0.02200
H 	H 	0.46170 0.37860 0.14880 -0.85600
C 	C 	0.59048 0.12180 0.07660 -5.56300
C 	C 	0.52010 0.10050 0.05034 6.67700
H 	H 	0.51070 0.14140 0.03210 -2.57700
H 	H 	0.48090 0.09900 0.06270 -2.59700
H 	H 	0.52490 0.04780 0.03990 -2.54700
C 	C 	0.60710 0.05780 0.10604 4.52200
H 	H 	0.56980 0.05860 0.11960 -1.30800
H 	H 	0.65250 0.07030 0.12120 -1.01700
H 	H 	0.60920 0.00440 0.09580 -0.91900
C 	C 	0.65160 0.11780 0.05585 6.08100
H 	H 	0.64290 0.15740 0.03700 -1.87800
H 	H 	0.65330 0.06380 0.04610 -2.42900
H 	H 	0.69660 0.12960 0.07150 -1.16800
C 	C 	0.67560 0.42140 0.09545 -47.47700
C 	C 	0.71290 0.45550 0.13158 51.92200
H 	H 	0.73910 0.41230 0.14550 -15.91000
H 	H 	0.67730 0.47700 0.14360 -15.49900
H 	H 	0.74550 0.49840 0.12830 -18.02700
C 	C 	0.63380 0.48700 0.07270 62.50600
H 	H 	0.59590 0.50670 0.08370 -19.32000
H 	H 	0.61330 0.46460 0.04980 -22.95100
H 	H 	0.66540 0.53150 0.07000 -25.50300
C 	C 	0.73530 0.39140 0.07718 65.92000
H 	H 	0.76280 0.34940 0.09130 -20.99100
H 	H 	0.76640 0.43650 0.07450 -33.78400
H 	H 	0.71430 0.36960 0.05430 -25.48400
C 	C 	0.33450 0.31140 0.14395 6.97600
H 	H 	0.28900 0.32360 0.12820 -5.18400
H 	H 	0.34850 0.35850 0.15920 -3.88400
C 	C 	0.32698 0.23630 0.16603 -0.63800
Al	Al	0.76329 0.68907 0.28235 2.36700
Al	Al	0.71159 0.39828 0.33137 2.38100
Al	Al	0.60642 0.66521 0.38230 2.47400
N 	N 	0.82608 0.61482 0.25392 0.78100
N 	N 	0.65431 0.34380 0.36679 -0.20100
N 	N 	0.60941 0.79372 0.37691 -3.75000
O 	O 	0.83966 0.74172 0.30325 2.11200
O 	O 	0.70959 0.72545 0.24358 1.41300
O 	O 	0.74281 0.58908 0.29905 -0.71800
O 	O 	0.76192 0.45426 0.30126 -0.78800
O 	O 	0.79360 0.36568 0.35696 -0.19500
O 	O 	0.66567 0.34296 0.29531 -0.95800
O 	O 	0.66997 0.49264 0.34490 -0.71300
O 	O 	0.60877 0.54980 0.38217 -0.73100
O 	O 	0.66286 0.66913 0.42362 -10.24000
O 	O 	0.51381 0.66444 0.38041 -0.33200
O 	O 	0.64656 0.67042 0.34240 -0.47000
O 	O 	0.70666 0.74456 0.30968 -0.16800
C 	C 	0.91035 0.72040 0.31187 -6.76300
C 	C 	0.95325 0.74690 0.34434 16.61800
C 	C 	0.02397 0.71970 0.35223 -10.71800
H 	H 	0.05260 0.73610 0.37360 4.65500
C 	C 	0.05484 0.66950 0.33008 5.47700
C 	C 	0.01221 0.64820 0.29776 -4.91700
H 	H 	0.03160 0.61620 0.28200 1.33300
C 	C 	0.94063 0.67390 0.28833 4.35600
C 	C 	0.89680 0.65420 0.25233 -2.48200
H 	H 	0.88800 0.70440 0.23860 0.74200
H 	H 	0.92420 0.61760 0.24020 0.22500
C 	C 	0.92160 0.80070 0.37055 -41.77500
C 	C 	0.86970 0.74850 0.38667 47.76000
H 	H 	0.89460 0.70130 0.39790 -15.00900
H 	H 	0.83040 0.73110 0.36830 -14.46600
H 	H 	0.85140 0.78030 0.40390 -18.15600
C 	C 	0.88250 0.87650 0.35243 51.42300
H 	H 	0.91560 0.90900 0.34240 -16.81000
H 	H 	0.86430 0.90860 0.36950 -21.95000
H 	H 	0.84330 0.85930 0.33400 -15.80600
C 	C 	0.98180 0.83350 0.40048 64.54700
H 	H 	0.01460 0.86640 0.39050 -22.91200
H 	H 	0.00730 0.78820 0.41310 -21.08300
H 	H 	0.96090 0.86630 0.41650 -33.30400
C 	C 	0.13315 0.63840 0.34230 -2.21600
C 	C 	0.13630 0.58180 0.37412 0.37900
H 	H 	0.11980 0.61090 0.39260 0.49400
H 	H 	0.18500 0.56400 0.38250 0.27300
H 	H 	0.10600 0.53490 0.36720 0.28300
C 	C 	0.15930 0.59140 0.31341 2.16600
H 	H 	0.15760 0.62650 0.29320 -0.98000
H 	H 	0.12900 0.54450 0.30670 -0.70300
H 	H 	0.20800 0.57360 0.32200 -0.55800
C 	C 	0.18310 0.71210 0.35305 1.26500
H 	H 	0.16720 0.74250 0.37140 -0.08400
H 	H 	0.18210 0.74700 0.33290 -0.33100
H 	H 	0.23140 0.69310 0.36160 -0.17300
C 	C 	0.72530 0.73820 0.21142 -8.56000
C 	C 	0.70364 0.81060 0.19257 13.19600
C 	C 	0.72320 0.82060 0.16007 -25.38100
H 	H 	0.70950 0.86870 0.14760 10.45300
C 	C 	0.76200 0.76310 0.14515 41.16100
C 	C 	0.78200 0.69110 0.16435 -23.58200
H 	H 	0.80800 0.65120 0.15500 8.15600
C 	C 	0.76390 0.67800 0.19690 11.89600
C 	C 	0.78350 0.59980 0.21740 -6.61000
H 	H 	0.73970 0.57040 0.21900 2.11700
H 	H 	0.81130 0.56520 0.20470 1.67700
C 	C 	0.65880 0.87530 0.20787 -8.17300
C 	C 	0.70520 0.91550 0.24120 7.50700
H 	H 	0.74700 0.94020 0.23510 -2.09500
H 	H 	0.71980 0.87440 0.25900 -2.20300
H 	H 	0.67740 0.95680 0.25010 -2.29600
C 	C 	0.59170 0.83530 0.21655 7.89300
H 	H 	0.56410 0.87590 0.22600 -2.27400
H 	H 	0.60570 0.79260 0.23370 -2.37100
H 	H 	0.56300 0.81240 0.19540 -2.27200
C 	C 	0.63400 0.94510 0.18126 7.05400
H 	H 	0.67540 0.97140 0.17530 -1.86100
H 	H 	0.60690 0.98460 0.19160 -1.96400
H 	H 	0.60430 0.92300 0.16020 -1.89000
C 	C 	0.78450 0.77670 0.10985 -94.31300
C 	C 	0.75370 0.85980 0.09300 94.81400
H 	H 	0.70230 0.86040 0.09070 -28.67800
H 	H 	0.76520 0.86550 0.07000 -31.46700
H 	H 	0.77450 0.90440 0.10780 -28.27000
C 	C 	0.74670 0.71360 0.08294 119.17200
H 	H 	0.69550 0.71820 0.08070 -37.06800
H 	H 	0.76190 0.65940 0.09090 -48.23300
H 	H 	0.75910 0.72370 0.06040 -49.32500
C 	C 	0.86200 0.77170 0.11399 134.81200
H 	H 	0.87510 0.78050 0.09150 -51.28000
H 	H 	0.87810 0.71840 0.12280 -48.50900
H 	H 	0.88430 0.81290 0.13040 -40.28500
C 	C 	0.83645 0.53611 0.27300 -0.83500
H 	H 	0.88210 0.53630 0.28980 0.33600
H 	H 	0.83710 0.49150 0.25640 0.23800
C 	C 	0.77560 0.52414 0.29220 0.78500
C 	C 	0.81337 0.34731 0.39134 -3.56100
C 	C 	0.88187 0.37110 0.41104 4.36800
C 	C 	0.89765 0.35240 0.44677 -10.57700
H 	H 	0.94200 0.36900 0.45990 3.02700
C 	C 	0.85090 0.31000 0.46454 12.74400
C 	C 	0.78531 0.28540 0.44401 -9.94200
H 	H 	0.75310 0.25650 0.45460 2.00600
C 	C 	0.76677 0.30297 0.40819 2.25900
C 	C 	0.69554 0.27434 0.38648 -1.04000
H 	H 	0.70420 0.23290 0.36980 -1.22000
H 	H 	0.66720 0.24950 0.40200 -0.79100
C 	C 	0.93627 0.41660 0.39296 -5.91400
C 	C 	0.90700 0.49970 0.37838 5.84000
H 	H 	0.89610 0.53260 0.39730 -1.98300
H 	H 	0.86390 0.49170 0.36070 -1.72600
H 	H 	0.94240 0.52710 0.36800 -1.43800
C 	C 	0.00760 0.43160 0.41964 6.35100
H 	H 	0.02700 0.38000 0.42920 -3.03600
H 	H 	0.99870 0.46600 0.43850 -2.03000
H 	H 	0.04140 0.45800 0.40780 -1.70600
C 	C 	0.95340 0.36480 0.36297 7.28400
H 	H 	0.97180 0.31250 0.37210 -3.49900
H 	H 	0.98880 0.39230 0.35260 -1.89600
H 	H 	0.91030 0.35680 0.34530 -2.56600
C 	C 	0.87000 0.29050 0.50409 -34.55600
C 	C 	0.80990 0.32130 0.52230 36.21100
H 	H 	0.82220 0.30890 0.54710 -10.76200
H 	H 	0.76540 0.29470 0.51200 -11.38700
H 	H 	0.80450 0.37960 0.51910 -11.47900
C 	C 	0.93990 0.33280 0.52319 37.81600
H 	H 	0.94930 0.31850 0.54780 -11.25900
H 	H 	0.93470 0.39120 0.52070 -11.74800
H 	H 	0.97940 0.31490 0.51290 -14.44600
C 	C 	0.87680 0.19750 0.50938 61.13200
H 	H 	0.88880 0.18540 0.53420 -23.77000
H 	H 	0.91400 0.17700 0.49810 -32.22700
H 	H 	0.83190 0.17170 0.49910 -26.93400
C 	C 	0.62498 0.27516 0.29166 0.52800
C 	C 	0.62076 0.22380 0.26170 -1.03900
C 	C 	0.57501 0.15670 0.25872 0.56300
H 	H 	0.57140 0.12330 0.23890 -0.21500
C 	C 	0.53355 0.13580 0.28399 -0.87200
C 	C 	0.54078 0.18660 0.31360 0.29400
H 	H 	0.51560 0.17410 0.33130 -0.30200
C 	C 	0.58501 0.25566 0.31727 -0.62700
C 	C 	0.58239 0.31594 0.34662 0.06200
H 	H 	0.55530 0.36380 0.33650 0.03500
H 	H 	0.55630 0.29100 0.36310 -0.11100
C 	C 	0.66543 0.24340 0.23349 1.85200
C 	C 	0.74592 0.23870 0.25027 -1.88000
H 	H 	0.75700 0.18510 0.26030 0.21100
H 	H 	0.75740 0.27930 0.26860 0.37200
H 	H 	0.77370 0.24860 0.23250 0.62100
C 	C 	0.64650 0.32820 0.21741 -2.99400
H 	H 	0.59610 0.33020 0.20700 0.98100
H 	H 	0.67400 0.33840 0.19950 1.28700
H 	H 	0.65770 0.36910 0.23560 1.01400
C 	C 	0.65040 0.18120 0.20265 -2.57500
H 	H 	0.66170 0.12680 0.21170 0.86500
H 	H 	0.67980 0.19430 0.18580 0.95600
H 	H 	0.60050 0.18390 0.19130 0.82800
C 	C 	0.48347 0.06080 0.27822 1.29100
C 	C 	0.43550 0.05670 0.30580 -1.77700
H 	H 	0.40640 0.10540 0.30420 0.58900
H 	H 	0.46520 0.05300 0.32910 0.43000
H 	H 	0.40490 0.00930 0.30140 0.60800
C 	C 	0.52880 0.98350 0.28130 -1.74600
H 	H 	0.55980 0.98140 0.30430 0.26800
H 	H 	0.55740 0.98380 0.26340 0.68000
H 	H 	0.49780 0.93630 0.27820 0.61000
C 	C 	0.43350 0.06600 0.24203 -1.87300
H 	H 	0.40540 0.11530 0.24060 0.56700
H 	H 	0.40200 0.01930 0.23870 0.58800
H 	H 	0.46160 0.06670 0.22390 0.63000
C 	C 	0.64103 0.41018 0.39065 -0.24200
H 	H 	0.67910 0.41120 0.41170 -0.33200
H 	H 	0.59560 0.40120 0.39790 -0.02200
C 	C 	0.63903 0.49048 0.37103 0.06600
C 	C 	0.70869 0.72550 0.44161 38.80400
C 	C 	0.76860 0.69990 0.46694 -58.50300
C 	C 	0.81440 0.76210 0.48410 107.77300
H 	H 	0.85450 0.74620 0.50090 -42.98100
C 	C 	0.80420 0.84390 0.47782 -167.07400
C 	C 	0.74320 0.86670 0.45301 98.08700
H 	H 	0.73440 0.92220 0.44830 -44.32300
C 	C 	0.69510 0.80910 0.43502 -52.29500
C 	C 	0.62580 0.83690 0.41194 29.22400
H 	H 	0.58670 0.82730 0.42420 -9.00400
H 	H 	0.62840 0.89550 0.40790 -10.06700
C 	C 	0.78250 0.60860 0.47554 47.17500
C 	C 	0.71820 0.57010 0.48853 -48.41500
H 	H 	0.71060 0.59870 0.50920 14.87800
H 	H 	0.72820 0.51330 0.49420 14.45000
H 	H 	0.67570 0.57420 0.47020 14.75500
C 	C 	0.79470 0.56300 0.44259 -49.41700
H 	H 	0.75350 0.57040 0.42370 15.18400
H 	H 	0.80140 0.50560 0.44780 14.72000
H 	H 	0.83670 0.58450 0.43550 15.25100
C 	C 	0.84980 0.59450 0.50456 -48.27800
H 	H 	0.84430 0.62230 0.52580 14.72300
H 	H 	0.89140 0.61570 0.49680 14.41000
H 	H 	0.85600 0.53680 0.50920 14.65400
C 	C 	0.85580 0.91030 0.49667 364.36500
C 	C 	0.81730 0.96450 0.51818 -396.31300
H 	H 	0.80000 0.93200 0.53550 117.00400
H 	H 	0.77720 0.99050 0.50290 115.46200
H 	H 	0.84980 0.00560 0.52990 112.47000
C 	C 	0.92060 0.87370 0.52090 -386.89100
H 	H 	0.94940 0.91690 0.53360 103.18300
H 	H 	0.94870 0.84350 0.50720 110.89000
H 	H 	0.90490 0.83750 0.53750 114.02700
C 	C 	0.88070 0.96440 0.46880 -656.81900
H 	H 	0.90570 0.93110 0.45460 109.34800
H 	H 	0.91250 0.00630 0.48040 104.14700
H 	H 	0.83960 0.98940 0.45390 108.63200
H 	H 	0.86620 0.02010 0.47140 109.06000
H 	H 	0.85940 0.94490 0.44550 109.98700
H 	H 	0.93230 0.96180 0.47200 102.93800
C 	C 	0.46982 0.72380 0.38769 -0.64200
C 	C 	0.41607 0.70710 0.40757 1.43100
C 	C 	0.37057 0.77200 0.41211 -3.29700
H 	H 	0.33440 0.76170 0.42460 1.36900
C 	C 	0.37560 0.85100 0.39917 5.29600
C 	C 	0.43120 0.86590 0.38131 -3.01500
H 	H 	0.43780 0.91860 0.37320 1.20100
C 	C 	0.47710 0.80300 0.37542 1.19700
C 	C 	0.53710 0.82020 0.35602 0.01700
H 	H 	0.52730 0.79160 0.33350 0.01800
H 	H 	0.53830 0.87860 0.35120 -0.26000
C 	C 	0.40952 0.62180 0.42340 -0.69400
C 	C 	0.47990 0.60050 0.44966 0.75100
H 	H 	0.48930 0.64140 0.46790 -0.40900
H 	H 	0.51910 0.59900 0.43730 -0.40600
H 	H 	0.47510 0.54780 0.46010 -0.40600
C 	C 	0.39290 0.55780 0.39396 -0.01500
H 	H 	0.43020 0.55860 0.38040 0.05200
H 	H 	0.34750 0.57030 0.37880 0.12400
H 	H 	0.39080 0.50440 0.40420 0.13400
C 	C 	0.34840 0.61780 0.44415 0.56800
H 	H 	0.35710 0.65740 0.46300 -0.20700
H 	H 	0.34670 0.56380 0.45390 -0.37000
H 	H 	0.30340 0.62960 0.42850 0.02300
C 	C 	0.32440 0.92140 0.40455 -12.88200
C 	C 	0.28710 0.95550 0.36842 13.91800
H 	H 	0.26090 0.91230 0.35450 -4.28100
H 	H 	0.32270 0.97700 0.35640 -4.17200
H 	H 	0.25450 0.99840 0.37170 -4.96500
C 	C 	0.36620 0.98700 0.42730 16.59400
H 	H 	0.40410 0.00670 0.41630 -5.13600
H 	H 	0.38670 0.96460 0.45020 -6.27100
H 	H 	0.33460 0.03150 0.43000 -6.96900
C 	C 	0.26470 0.89140 0.42282 18.12300
H 	H 	0.23720 0.84940 0.40870 -5.81000
H 	H 	0.23360 0.93650 0.42550 -9.67000
H 	H 	0.28570 0.86960 0.44570 -7.17100
C 	C 	0.66550 0.81140 0.35605 1.70000
H 	H 	0.71100 0.82360 0.37180 -1.39500
H 	H 	0.65150 0.85850 0.34080 -0.98700
C 	C 	0.67302 0.73630 0.33397 0.28700
Al	Al	0.76329 0.81093 0.78235 2.36400
Al	Al	0.71159 0.10172 0.83137 2.35300
Al	Al	0.60642 0.83479 0.88230 2.66500
N 	N 	0.82608 0.88518 0.75392 0.90600
N 	N 	0.65431 0.15620 0.86679 0.03900
N 	N 	0.60941 0.70628 0.87691 -11.95700
O 	O 	0.83966 0.75828 0.80325 8.27900
O 	O 	0.70959 0.77455 0.74358 -0.17500
O 	O 	0.74281 0.91092 0.79905 -0.44800
O 	O 	0.76192 0.04574 0.80126 -0.82200
O 	O 	0.79360 0.13432 0.85696 1.55400
O 	O 	0.66567 0.15704 0.79531 -0.94600
O 	O 	0.66997 0.00736 0.84490 -0.65500
O 	O 	0.60877 0.95020 0.88217 -0.71800
O 	O 	0.66286 0.83087 0.92362 -32.24500
O 	O 	0.51381 0.83556 0.88041 0.82600
O 	O 	0.64656 0.82958 0.84240 0.19500
O 	O 	0.70666 0.75544 0.80968 1.03800
C 	C 	0.91035 0.77960 0.81187 -21.95500
C 	C 	0.95325 0.75310 0.84434 52.92200
C 	C 	0.02397 0.78030 0.85223 -33.04100
H 	H 	0.05260 0.76390 0.87360 14.62800
C 	C 	0.05484 0.83050 0.83008 17.02800
C 	C 	0.01221 0.85180 0.79776 -14.53600
H 	H 	0.03160 0.88380 0.78200 4.85300
C 	C 	0.94063 0.82610 0.78833 13.47400
C 	C 	0.89680 0.84580 0.75233 -7.35500
H 	H 	0.88800 0.79560 0.73860 2.20700
H 	H 	0.92420 0.88240 0.74020 1.98000
C 	C 	0.92160 0.69930 0.87055 -135.99500
C 	C 	0.86970 0.75150 0.88667 156.73900
H 	H 	0.89460 0.79870 0.89790 -49.31300
H 	H 	0.83040 0.76890 0.86830 -47.49300
H 	H 	0.85140 0.71970 0.90390 -59.92000
C 	C 	0.88250 0.62350 0.85243 169.97700
H 	H 	0.91560 0.59100 0.84240 -56.08000
H 	H 	0.86430 0.59140 0.86950 -73.06500
H 	H 	0.84330 0.64070 0.83400 -52.59200
C 	C 	0.98180 0.66650 0.90048 205.84700
H 	H 	0.01460 0.63360 0.89050 -72.92900
H 	H 	0.00730 0.71180 0.91310 -66.84200
H 	H 	0.96090 0.63370 0.91650 -108.78500
C 	C 	0.13315 0.86160 0.84230 -6.45500
C 	C 	0.13630 0.91820 0.87412 0.99700
H 	H 	0.11980 0.88910 0.89260 1.84800
H 	H 	0.18500 0.93600 0.88250 1.05200
H 	H 	0.10600 0.96510 0.86720 1.17600
C 	C 	0.15930 0.90860 0.81341 5.76400
H 	H 	0.15760 0.87350 0.79320 -1.99200
H 	H 	0.12900 0.95550 0.80670 -1.47600
H 	H 	0.20800 0.92640 0.82200 -1.28400
C 	C 	0.18310 0.78790 0.85305 4.17500
H 	H 	0.16720 0.75750 0.87140 -0.16100
H 	H 	0.18210 0.75300 0.83290 -1.04900
H 	H 	0.23140 0.80690 0.86160 -0.57300
C 	C 	0.72530 0.76180 0.71142 -2.28900
C 	C 	0.70364 0.68940 0.69257 3.61800
C 	C 	0.72320 0.67940 0.66007 -7.33100
H 	H 	0.70950 0.63130 0.64760 3.00800
C 	C 	0.76200 0.73690 0.64515 11.89800
C 	C 	0.78200 0.80890 0.66435 -6.89400
H 	H 	0.80800 0.84880 0.65500 2.36400
C 	C 	0.76390 0.82200 0.69690 3.37200
C 	C 	0.78350 0.90020 0.71740 -2.18800
H 	H 	0.73970 0.92960 0.71900 0.66900
H 	H 	0.81130 0.93480 0.70470 0.61000
C 	C 	0.65880 0.62470 0.70787 -1.93200
C 	C 	0.70520 0.58450 0.74120 1.79000
H 	H 	0.74700 0.55980 0.73510 -0.66200
H 	H 	0.71980 0.62560 0.75900 -0.36700
H 	H 	0.67740 0.54320 0.75010 -1.00600
C 	C 	0.59170 0.66470 0.71655 1.49100
H 	H 	0.56410 0.62410 0.72600 -0.40700
H 	H 	0.60570 0.70740 0.73370 -0.45000
H 	H 	0.56300 0.68760 0.69540 -0.40700
C 	C 	0.63400 0.55490 0.68126 1.33900
H 	H 	0.67540 0.52860 0.67530 -0.36300
H 	H 	0.60690 0.51540 0.69160 -0.37700
H 	H 	0.60430 0.57700 0.66020 -0.34400
C 	C 	0.78450 0.72330 0.60985 -27.39400
C 	C 	0.75370 0.64020 0.59300 27.38300
H 	H 	0.70230 0.63960 0.59070 -8.31500
H 	H 	0.76520 0.63450 0.57000 -9.17300
H 	H 	0.77450 0.59560 0.60780 -8.20200
C 	C 	0.74670 0.78640 0.58294 34.55600
H 	H 	0.69550 0.78180 0.58070 -10.78300
H 	H 	0.76190 0.84060 0.59090 -14.10500
H 	H 	0.75910 0.77630 0.56040 -14.44300
C 	C 	0.86200 0.72830 0.61399 39.12200
H 	H 	0.87510 0.71950 0.59150 -15.02600
H 	H 	0.87810 0.78160 0.62280 -14.16900
H 	H 	0.88430 0.68710 0.63040 -11.75900
C 	C 	0.83645 0.96389 0.77300 -0.79500
H 	H 	0.88210 0.96370 0.78980 0.68100
H 	H 	0.83710 0.00850 0.75640 0.18100
C 	C 	0.77560 0.97586 0.79220 1.11700
C 	C 	0.81337 0.15269 0.89134 -13.70200
C 	C 	0.88187 0.12890 0.91104 17.50900
C 	C 	0.89765 0.14760 0.94677 -37.52100
H 	H 	0.94200 0.13100 0.95990 10.93700
C 	C 	0.85090 0.19000 0.96454 44.87600
C 	C 	0.78531 0.21460 0.94401 -34.71000
H 	H 	0.75310 0.24350 0.95460 7.28300
C 	C 	0.76677 0.19703 0.90819 8.91700
C 	C 	0.69554 0.22566 0.88648 -3.88900
H 	H 	0.70420 0.26710 0.86980 -3.90100
H 	H 	0.66720 0.25050 0.90200 -2.53500
C 	C 	0.93627 0.08340 0.89296 -25.85200
C 	C 	0.90700 0.00030 0.87838 25.86500
H 	H 	0.89610 0.96740 0.89730 -8.44900
H 	H 	0.86390 0.00830 0.86070 -7.72600
H 	H 	0.94240 0.97290 0.86800 -6.73700
C 	C 	0.00760 0.06840 0.91964 30.91100
H 	H 	0.02700 0.12000 0.92920 -12.84800
H 	H 	0.99870 0.03400 0.93850 -10.02900
H 	H 	0.04140 0.04200 0.90780 -8.28900
C 	C 	0.95340 0.13520 0.86297 31.74000
H 	H 	0.97180 0.18750 0.87210 -13.93200
H 	H 	0.98880 0.10770 0.85260 -8.64400
H 	H 	0.91030 0.14320 0.84530 -10.79200
C 	C 	0.87000 0.20950 0.00409 -119.63000
C 	C 	0.80990 0.17870 0.02230 126.10800
H 	H 	0.82220 0.19110 0.04710 -37.45100
H 	H 	0.76540 0.20530 0.01200 -39.50100
H 	H 	0.80450 0.12040 0.01910 -39.78600
C 	C 	0.93990 0.16720 0.02319 131.40900
H 	H 	0.94930 0.18150 0.04780 -39.14600
H 	H 	0.93470 0.10880 0.02070 -40.59000
H 	H 	0.97940 0.18510 0.01290 -49.61000
C 	C 	0.87680 0.30250 0.00938 211.58000
H 	H 	0.88880 0.31460 0.03420 -81.61600
H 	H 	0.91400 0.32300 0.99810 -110.10000
H 	H 	0.83190 0.32830 0.99910 -92.36900
C 	C 	0.62498 0.22484 0.79166 -0.33900
C 	C 	0.62076 0.27620 0.76170 -0.05800
C 	C 	0.57501 0.34330 0.75872 -0.75800
H 	H 	0.57140 0.37670 0.73890 0.19600
C 	C 	0.53355 0.36420 0.78399 -0.01500
C 	C 	0.54078 0.31340 0.81360 -0.85500
H 	H 	0.51560 0.32590 0.83130 -0.29200
C 	C 	0.58501 0.24434 0.81727 -0.51800
C 	C 	0.58239 0.18406 0.84662 -0.28000
H 	H 	0.55530 0.13620 0.83650 0.29400
H 	H 	0.55630 0.20900 0.86310 -0.22800
C 	C 	0.66543 0.25660 0.73349 -0.94500
C 	C 	0.74592 0.26130 0.75027 2.49200
H 	H 	0.75700 0.31490 0.76030 -2.01700
H 	H 	0.75740 0.22070 0.76860 -1.41400
H 	H 	0.77370 0.25140 0.73250 -0.90900
C 	C 	0.64650 0.17180 0.71741 0.43500
H 	H 	0.59610 0.16980 0.70700 -0.07700
H 	H 	0.67400 0.16160 0.69950 -0.02100
H 	H 	0.65770 0.13090 0.73560 -0.09300
C 	C 	0.65040 0.31880 0.70265 0.48900
H 	H 	0.66170 0.37320 0.71170 -0.27100
H 	H 	0.67980 0.30570 0.68580 -0.08600
H 	H 	0.60050 0.31610 0.69130 -0.09700
C 	C 	0.48347 0.43920 0.77822 -0.92600
C 	C 	0.43550 0.44330 0.80580 0.44200
H 	H 	0.40640 0.39460 0.80420 0.05700
H 	H 	0.46520 0.44700 0.82910 -0.43500
H 	H 	0.40490 0.49070 0.80140 0.12400
C 	C 	0.52880 0.51650 0.78130 1.76800
H 	H 	0.55980 0.51860 0.80430 -1.59400
H 	H 	0.55740 0.51620 0.76340 -0.76100
H 	H 	0.49780 0.56370 0.77820 -0.55600
C 	C 	0.43350 0.43400 0.74203 0.50900
H 	H 	0.40540 0.38470 0.74060 -0.09800
H 	H 	0.40200 0.48070 0.73870 -0.14300
H 	H 	0.46160 0.43330 0.72390 -0.09800
C 	C 	0.64103 0.08982 0.89065 0.28300
H 	H 	0.67910 0.08880 0.91170 -1.40700
H 	H 	0.59560 0.09880 0.89790 -0.39800
C 	C 	0.63903 0.00952 0.87103 -1.10200
C 	C 	0.70869 0.77450 0.94161 128.57100
C 	C 	0.76860 0.80010 0.96694 -193.87600
C 	C 	0.81440 0.73790 0.98410 359.13100
H 	H 	0.85450 0.75380 0.00090 -143.02700
C 	C 	0.80420 0.65610 0.97782 -558.58800
C 	C 	0.74320 0.63330 0.95301 327.85300
H 	H 	0.73440 0.57780 0.94830 -148.32300
C 	C 	0.69510 0.69090 0.93502 -174.30300
C 	C 	0.62580 0.66310 0.91194 97.77300
H 	H 	0.58670 0.67270 0.92420 -30.09800
H 	H 	0.62840 0.60450 0.90790 -33.76100
C 	C 	0.78250 0.89140 0.97554 153.92700
C 	C 	0.71820 0.92990 0.98853 -158.23700
H 	H 	0.71060 0.90130 0.00920 48.91800
H 	H 	0.72820 0.98670 0.99420 47.24100
H 	H 	0.67570 0.92580 0.97020 48.20700
C 	C 	0.79470 0.93700 0.94259 -160.40800
H 	H 	0.75350 0.92960 0.92370 49.31200
H 	H 	0.80140 0.99440 0.94780 47.79400
H 	H 	0.83670 0.91550 0.93550 49.58200
C 	C 	0.84980 0.90550 0.00456 -155.10400
H 	H 	0.84430 0.87770 0.02580 47.53300
H 	H 	0.89140 0.88430 0.99680 46.09800
H 	H 	0.85600 0.96320 0.00920 47.45900
C 	C 	0.85580 0.58970 0.99667 1219.56100
C 	C 	0.81730 0.53550 0.01818 -1327.77400
H 	H 	0.80000 0.56800 0.03550 392.03700
H 	H 	0.77720 0.50950 0.00290 386.81700
H 	H 	0.84980 0.49440 0.02990 377.38600
C 	C 	0.92060 0.62630 0.02090 -1293.69000
H 	H 	0.94940 0.58310 0.03360 344.83800
H 	H 	0.94870 0.65650 0.00720 370.81700
H 	H 	0.90490 0.66250 0.03750 381.33800
C 	C 	0.88070 0.53560 0.96880 -2200.99200
H 	H 	0.90570 0.56890 0.95460 366.31800
H 	H 	0.91250 0.49370 0.98040 349.60000
H 	H 	0.83960 0.51060 0.95390 363.58400
H 	H 	0.86620 0.47990 0.97140 365.88900
H 	H 	0.85940 0.55510 0.94550 368.53800
H 	H 	0.93230 0.53820 0.97200 344.29500
C 	C 	0.46982 0.77620 0.88769 -3.55300
C 	C 	0.41607 0.79290 0.90757 6.67000
C 	C 	0.37057 0.72800 0.91211 -12.72400
H 	H 	0.33440 0.73830 0.92460 5.26800
C 	C 	0.37560 0.64900 0.89917 19.92200
C 	C 	0.43120 0.63410 0.88131 -11.41400
H 	H 	0.43780 0.58140 0.87320 4.57700
C 	C 	0.47710 0.69700 0.87542 5.02000
C 	C 	0.53710 0.67980 0.85602 -0.06000
H 	H 	0.52730 0.70840 0.83350 -0.02200
H 	H 	0.53830 0.62140 0.85120 -0.85600
C 	C 	0.40952 0.87820 0.92340 -5.56300
C 	C 	0.47990 0.89950 0.94966 6.67700
H 	H 	0.48930 0.85860 0.96790 -2.57700
H 	H 	0.51910 0.90100 0.93730 -2.59700
H 	H 	0.47510 0.95220 0.96010 -2.54700
C 	C 	0.39290 0.94220 0.89396 4.52200
H 	H 	0.43020 0.94140 0.88040 -1.30800
H 	H 	0.34750 0.92970 0.87880 -1.01700
H 	H 	0.39080 0.99560 0.90420 -0.91900
C 	C 	0.34840 0.88220 0.94415 6.08100
H 	H 	0.35710 0.84260 0.96300 -1.87800
H 	H 	0.34670 0.93620 0.95390 -2.42900
H 	H 	0.30340 0.87040 0.92850 -1.16800
C 	C 	0.32440 0.57860 0.90455 -47.47700
C 	C 	0.28710 0.54450 0.86842 51.92200
H 	H 	0.26090 0.58770 0.85450 -15.91000
H 	H 	0.32270 0.52300 0.85640 -15.49900
H 	H 	0.25450 0.50160 0.87170 -18.02700
C 	C 	0.36620 0.51300 0.92730 62.50600
H 	H 	0.40410 0.49330 0.91630 -19.32000
H 	H 	0.38670 0.53540 0.95020 -22.95100
H 	H 	0.33460 0.46850 0.93000 -25.50300
C 	C 	0.26470 0.60860 0.92282 65.92000
H 	H 	0.23720 0.65060 0.90870 -20.99100
H 	H 	0.23360 0.56350 0.92550 -33.78400
H 	H 	0.28570 0.63040 0.94570 -25.48400
C 	C 	0.66550 0.68860 0.85605 6.97600
H 	H 	0.71100 0.67640 0.87180 -5.18400
H 	H 	0.65150 0.64150 0.84080 -3.88400
C 	C 	0.67302 0.76370 0.83397 -0.63800
Al	Al	0.23671 0.31093 0.71765 2.36700
Al	Al	0.28841 0.60172 0.66863 2.38100
Al	Al	0.39358 0.33479 0.61770 2.47400
N 	N 	0.17392 0.38518 0.74608 0.78100
N 	N 	0.34569 0.65620 0.63321 -0.20100
N 	N 	0.39059 0.20628 0.62309 -3.75000
O 	O 	0.16034 0.25828 0.69675 2.11200
O 	O 	0.29041 0.27455 0.75642 1.41300
O 	O 	0.25719 0.41092 0.70095 -0.71800
O 	O 	0.23808 0.54574 0.69874 -0.78800
O 	O 	0.20640 0.63432 0.64304 -0.19500
O 	O 	0.33433 0.65704 0.70469 -0.95800
O 	O 	0.33003 0.50736 0.65510 -0.71300
O 	O 	0.39123 0.45020 0.61783 -0.73100
O 	O 	0.33714 0.33087 0.57638 -10.24000
O 	O 	0.48619 0.33556 0.61959 -0.33200
O 	O 	0.35344 0.32958 0.65760 -0.47000
O 	O 	0.29334 0.25544 0.69032 -0.16800
C 	C 	0.08965 0.27960 0.68813 -6.76300
C 	C 	0.04675 0.25310 0.65566 16.61800
C 	C 	0.97603 0.28030 0.64777 -10.71800
H 	H 	0.94740 0.26390 0.62640 4.65500
C 	C 	0.94516 0.33050 0.66992 5.47700
C 	C 	0.98779 0.35180 0.70224 -4.91700
H 	H 	0.96840 0.38380 0.71800 1.33300
C 	C 	0.05937 0.32610 0.71167 4.35600
C 	C 	0.10320 0.34580 0.74767 -2.48200
H 	H 	0.11200 0.29560 0.76140 0.74200
H 	H 	0.07580 0.38240 0.75980 0.22500
C 	C 	0.07840 0.19930 0.62945 -41.77500
C 	C 	0.13030 0.25150 0.61333 47.76000
H 	H 	0.10540 0.29870 0.60210 -15.00900
H 	H 	0.16960 0.26890 0.63170 -14.46600
H 	H 	0.14860 0.21970 0.59610 -18.15600
C 	C 	0.11750 0.12350 0.64757 51.42300
H 	H 	0.08440 0.09100 0.65760 -16.81000
H 	H 	0.13570 0.09140 0.63050 -21.95000
H 	H 	0.15670 0.14070 0.66600 -15.80600
C 	C 	0.01820 0.16650 0.59952 64.54700
H 	H 	0.98540 0.13360 0.60950 -22.91200
H 	H 	0.99270 0.21180 0.58690 -21.08300
H 	H 	0.03910 0.13370 0.58350 -33.30400
C 	C 	0.86685 0.36160 0.65770 -2.21600
C 	C 	0.86370 0.41820 0.62588 0.37900
H 	H 	0.88020 0.38910 0.60740 0.49400
H 	H 	0.81500 0.43600 0.61750 0.27300
H 	H 	0.89400 0.46510 0.63280 0.28300
C 	C 	0.84070 0.40860 0.68659 2.16600
H 	H 	0.84240 0.37350 0.70680 -0.98000
H 	H 	0.87100 0.45550 0.69330 -0.70300
H 	H 	0.79200 0.42640 0.67800 -0.55800
C 	C 	0.81690 0.28790 0.64695 1.26500
H 	H 	0.83280 0.25750 0.62860 -0.08400
H 	H 	0.81790 0.25300 0.66710 -0.33100
H 	H 	0.76860 0.30690 0.63840 -0.17300
C 	C 	0.27470 0.26180 0.78858 -8.56000
C 	C 	0.29636 0.18940 0.80743 13.19600
C 	C 	0.27680 0.17940 0.83993 -25.38100
H 	H 	0.29050 0.13130 0.85240 10.45300
C 	C 	0.23800 0.23690 0.85485 41.16100
C 	C 	0.21800 0.30890 0.83565 -23.58200
H 	H 	0.19200 0.34880 0.84500 8.15600
C 	C 	0.23610 0.32200 0.80310 11.89600
C 	C 	0.21650 0.40020 0.78260 -6.61000
H 	H 	0.26030 0.42960 0.78100 2.11700
H 	H 	0.18870 0.43480 0.79530 1.67700
C 	C 	0.34120 0.12470 0.79213 -8.17300
C 	C 	0.29480 0.08450 0.75880 7.50700
H 	H 	0.25300 0.05980 0.76490 -2.09500
H 	H 	0.28020 0.12560 0.74100 -2.20300
H 	H 	0.32260 0.04320 0.74990 -2.29600
C 	C 	0.40830 0.16470 0.78345 7.89300
H 	H 	0.43590 0.12410 0.77400 -2.27400
H 	H 	0.39430 0.20740 0.76630 -2.37100
H 	H 	0.43700 0.18760 0.80460 -2.27200
C 	C 	0.36600 0.05490 0.81874 7.05400
H 	H 	0.32460 0.02860 0.82470 -1.86100
H 	H 	0.39310 0.01540 0.80840 -1.96400
H 	H 	0.39570 0.07700 0.83980 -1.89000
C 	C 	0.21550 0.22330 0.89015 -94.31300
C 	C 	0.24630 0.14020 0.90700 94.81400
H 	H 	0.29770 0.13960 0.90930 -28.67800
H 	H 	0.23480 0.13450 0.93000 -31.46700
H 	H 	0.22550 0.09560 0.89220 -28.27000
C 	C 	0.25330 0.28640 0.91706 119.17200
H 	H 	0.30450 0.28180 0.91930 -37.06800
H 	H 	0.23810 0.34060 0.90910 -48.23300
H 	H 	0.24090 0.27630 0.93960 -49.32500
C 	C 	0.13800 0.22830 0.88601 134.81200
H 	H 	0.12490 0.21950 0.90850 -51.28000
H 	H 	0.12190 0.28160 0.87720 -48.50900
H 	H 	0.11570 0.18710 0.86960 -40.28500
C 	C 	0.16355 0.46389 0.72700 -0.83500
H 	H 	0.11790 0.46370 0.71020 0.33600
H 	H 	0.16290 0.50850 0.74360 0.23800
C 	C 	0.22440 0.47586 0.70780 0.78500
C 	C 	0.18663 0.65269 0.60866 -3.56100
C 	C 	0.11813 0.62890 0.58896 4.36800
C 	C 	0.10235 0.64760 0.55323 -10.57700
H 	H 	0.05800 0.63100 0.54010 3.02700
C 	C 	0.14910 0.69000 0.53546 12.74400
C 	C 	0.21469 0.71460 0.55599 -9.94200
H 	H 	0.24690 0.74350 0.54540 2.00600
C 	C 	0.23323 0.69703 0.59181 2.25900
C 	C 	0.30446 0.72566 0.61352 -1.04000
H 	H 	0.29580 0.76710 0.63020 -1.22000
H 	H 	0.33280 0.75050 0.59800 -0.79100
C 	C 	0.06373 0.58340 0.60704 -5.91400
C 	C 	0.09300 0.50030 0.62162 5.84000
H 	H 	0.10390 0.46740 0.60270 -1.98300
H 	H 	0.13610 0.50830 0.63930 -1.72600
H 	H 	0.05760 0.47290 0.63200 -1.43800
C 	C 	0.99240 0.56840 0.58036 6.35100
H 	H 	0.97300 0.62000 0.57080 -3.03600
H 	H 	0.00130 0.53400 0.56150 -2.03000
H 	H 	0.95860 0.54200 0.59220 -1.70600
C 	C 	0.04660 0.63520 0.63703 7.28400
H 	H 	0.02820 0.68750 0.62790 -3.49900
H 	H 	0.01120 0.60770 0.64740 -1.89600
H 	H 	0.08970 0.64320 0.65470 -2.56600
C 	C 	0.13000 0.70950 0.49591 -34.55600
C 	C 	0.19010 0.67870 0.47770 36.21100
H 	H 	0.17780 0.69110 0.45290 -10.76200
H 	H 	0.23460 0.70530 0.48800 -11.38700
H 	H 	0.19550 0.62040 0.48090 -11.47900
C 	C 	0.06010 0.66720 0.47681 37.81600
H 	H 	0.05070 0.68150 0.45220 -11.25900
H 	H 	0.06530 0.60880 0.47930 -11.74800
H 	H 	0.02060 0.68510 0.48710 -14.44600
C 	C 	0.12320 0.80250 0.49062 61.13200
H 	H 	0.11120 0.81460 0.46580 -23.77000
H 	H 	0.08600 0.82300 0.50190 -32.22700
H 	H 	0.16810 0.82830 0.50090 -26.93400
C 	C 	0.37502 0.72484 0.70834 0.52800
C 	C 	0.37924 0.77620 0.73830 -1.03900
C 	C 	0.42499 0.84330 0.74128 0.56300
H 	H 	0.42860 0.87670 0.76110 -0.21500
C 	C 	0.46645 0.86420 0.71601 -0.87200
C 	C 	0.45922 0.81340 0.68640 0.29400
H 	H 	0.48440 0.82590 0.66870 -0.30200
C 	C 	0.41499 0.74434 0.68273 -0.62700
C 	C 	0.41761 0.68406 0.65338 0.06200
H 	H 	0.44470 0.63620 0.66350 0.03500
H 	H 	0.44370 0.70900 0.63690 -0.11100
C 	C 	0.33457 0.75660 0.76651 1.85200
C 	C 	0.25408 0.76130 0.74973 -1.88000
H 	H 	0.24300 0.81490 0.73970 0.21100
H 	H 	0.24260 0.72070 0.73140 0.37200
H 	H 	0.22630 0.75140 0.76750 0.62100
C 	C 	0.35350 0.67180 0.78259 -2.99400
H 	H 	0.40390 0.66980 0.79300 0.98100
H 	H 	0.32600 0.66160 0.80050 1.28700
H 	H 	0.34230 0.63090 0.76440 1.01400
C 	C 	0.34960 0.81880 0.79735 -2.57500
H 	H 	0.33830 0.87320 0.78830 0.86500
H 	H 	0.32020 0.80570 0.81420 0.95600
H 	H 	0.39950 0.81610 0.80870 0.82800
C 	C 	0.51653 0.93920 0.72178 1.29100
C 	C 	0.56450 0.94330 0.69420 -1.77700
H 	H 	0.59360 0.89460 0.69580 0.58900
H 	H 	0.53480 0.94700 0.67090 0.43000
H 	H 	0.59510 0.99070 0.69860 0.60800
C 	C 	0.47120 0.01650 0.71870 -1.74600
H 	H 	0.44020 0.01860 0.69570 0.26800
H 	H 	0.44260 0.01620 0.73660 0.68000
H 	H 	0.50220 0.06370 0.72180 0.61000
C 	C 	0.56650 0.93400 0.75797 -1.87300
H 	H 	0.59460 0.88470 0.75940 0.56700
H 	H 	0.59800 0.98070 0.76130 0.58800
H 	H 	0.53840 0.93330 0.77610 0.63000
C 	C 	0.35897 0.58982 0.60935 -0.24200
H 	H 	0.32090 0.58880 0.58830 -0.33200
H 	H 	0.40440 0.59880 0.60210 -0.02200
C 	C 	0.36097 0.50952 0.62897 0.06600
C 	C 	0.29131 0.27450 0.55839 38.80400
C 	C 	0.23140 0.30010 0.53306 -58.50300
C 	C 	0.18560 0.23790 0.51590 107.77300
H 	H 	0.14550 0.25380 0.49910 -42.98100
C 	C 	0.19580 0.15610 0.52218 -167.07400
C 	C 	0.25680 0.13330 0.54699 98.08700
H 	H 	0.26560 0.07780 0.55170 -44.32300
C 	C 	0.30490 0.19090 0.56498 -52.29500
C 	C 	0.37420 0.16310 0.58806 29.22400
H 	H 	0.41330 0.17270 0.57580 -9.00400
H 	H 	0.37160 0.10450 0.59210 -10.06700
C 	C 	0.21750 0.39140 0.52446 47.17500
C 	C 	0.28180 0.42990 0.51147 -48.41500
H 	H 	0.28940 0.40130 0.49080 14.87800
H 	H 	0.27180 0.48670 0.50580 14.45000
H 	H 	0.32430 0.42580 0.52980 14.75500
C 	C 	0.20530 0.43700 0.55741 -49.41700
H 	H 	0.24650 0.42960 0.57630 15.18400
H 	H 	0.19860 0.49440 0.55220 14.72000
H 	H 	0.16330 0.41550 0.56450 15.25100
C 	C 	0.15020 0.40550 0.49544 -48.27800
H 	H 	0.15570 0.37770 0.47420 14.72300
H 	H 	0.10860 0.38430 0.50320 14.41000
H 	H 	0.14400 0.46320 0.49080 14.65400
C 	C 	0.14420 0.08970 0.50333 364.36500
C 	C 	0.18270 0.03550 0.48182 -396.31300
H 	H 	0.20000 0.06800 0.46450 117.00400
H 	H 	0.22280 0.00950 0.49710 115.46200
H 	H 	0.15020 0.99440 0.47010 112.47000
C 	C 	0.07940 0.12630 0.47910 -386.89100
H 	H 	0.05060 0.08310 0.46640 103.18300
H 	H 	0.05130 0.15650 0.49280 110.89000
H 	H 	0.09510 0.16250 0.46250 114.02700
C 	C 	0.11930 0.03560 0.53120 -656.81900
H 	H 	0.09430 0.06890 0.54540 109.34800
H 	H 	0.08750 0.99370 0.51960 104.14700
H 	H 	0.16040 0.01060 0.54610 108.63200
H 	H 	0.13380 0.97990 0.52860 109.06000
H 	H 	0.14060 0.05510 0.55450 109.98700
H 	H 	0.06770 0.03820 0.52800 102.93800
C 	C 	0.53018 0.27620 0.61231 -0.64200
C 	C 	0.58393 0.29290 0.59243 1.43100
C 	C 	0.62943 0.22800 0.58789 -3.29700
H 	H 	0.66560 0.23830 0.57540 1.36900
C 	C 	0.62440 0.14900 0.60083 5.29600
C 	C 	0.56880 0.13410 0.61869 -3.01500
H 	H 	0.56220 0.08140 0.62680 1.20100
C 	C 	0.52290 0.19700 0.62458 1.19700
C 	C 	0.46290 0.17980 0.64398 0.01700
H 	H 	0.47270 0.20840 0.66650 0.01800
H 	H 	0.46170 0.12140 0.64880 -0.26000
C 	C 	0.59048 0.37820 0.57660 -0.69400
C 	C 	0.52010 0.39950 0.55034 0.75100
H 	H 	0.51070 0.35860 0.53210 -0.40900
H 	H 	0.48090 0.40100 0.56270 -0.40600
H 	H 	0.52490 0.45220 0.53990 -0.40600
C 	C 	0.60710 0.44220 0.60604 -0.01500
H 	H 	0.56980 0.44140 0.61960 0.05200
H 	H 	0.65250 0.42970 0.62120 0.12400
H 	H 	0.60920 0.49560 0.59580 0.13400
C 	C 	0.65160 0.38220 0.55585 0.56800
H 	H 	0.64290 0.34260 0.53700 -0.20700
H 	H 	0.65330 0.43620 0.54610 -0.37000
H 	H 	0.69660 0.37040 0.57150 0.02300
C 	C 	0.67560 0.07860 0.59545 -12.88200
C 	C 	0.71290 0.04450 0.63158 13.91800
H 	H 	0.73910 0.08770 0.64550 -4.28100
H 	H 	0.67730 0.02300 0.64360 -4.17200
H 	H 	0.74550 0.00160 0.62830 -4.96500
C 	C 	0.63380 0.01300 0.57270 16.59400
H 	H 	0.59590 0.99330 0.58370 -5.13600
H 	H 	0.61330 0.03540 0.54980 -6.27100
H 	H 	0.66540 0.96850 0.57000 -6.96900
C 	C 	0.73530 0.10860 0.57718 18.12300
H 	H 	0.76280 0.15060 0.59130 -5.81000
H 	H 	0.76640 0.06350 0.57450 -9.67000
H 	H 	0.71430 0.13040 0.55430 -7.17100
C 	C 	0.33450 0.18860 0.64395 1.70000
H 	H 	0.28900 0.17640 0.62820 -1.39500
H 	H 	0.34850 0.14150 0.65920 -0.98700
C 	C 	0.32698 0.26370 0.66603 0.28700
