data_crystal

_cell_length_a 15.47390
_cell_length_b 57.18140
_cell_length_c 24.74690
_cell_angle_alpha 90.00000
_cell_angle_beta  94.60200
_cell_angle_gamma 90.00000

_symmetry_space_group_name_	'P 1'
_symmetry_space_group_name_H-M	'P 1'

loop_
_symmetry_equiv_pos_as_xyz
  x,y,z

loop_
_atom_site_label
_atom_site_type_symbol
_atom_site_fract_x
_atom_site_fract_y
_atom_site_fract_z
_atom_site_charge
Zn	Zn	0.54571 0.45675 0.75236 1.17300
Zn	Zn	0.44595 0.48476 0.84117 1.17100
Zn	Zn	0.37276 0.48361 0.72071 1.19700
Zn	Zn	0.54171 0.51377 0.74482 1.21400
Zn	Zn	0.86546 0.65342 0.27606 1.21000
Zn	Zn	0.95962 0.67880 0.17664 1.17500
Zn	Zn	0.03502 0.68128 0.30069 1.20800
Zn	Zn	0.85872 0.70739 0.26746 1.20700
O 	O 	0.66920 0.46762 0.74126 -0.47100
O 	O 	0.26950 0.48005 0.76077 -0.51500
O 	O 	0.98900 0.95759 0.33068 -0.51300
O 	O 	0.32300 0.48030 0.84796 -0.54200
O 	O 	0.98220 0.96612 0.10533 -0.52200
O 	O 	0.13360 0.96143 0.33961 -0.49300
O 	O 	0.90060 0.64774 0.15335 -0.49400
O 	O 	0.93000 0.68047 0.25436 -0.95700
O 	O 	0.91100 0.94718 0.16737 -0.51300
O 	O 	0.47960 0.48627 0.76826 -0.96300
O 	O 	0.08070 0.66243 0.19480 -0.49200
O 	O 	0.73980 0.69827 0.28684 -0.49000
O 	O 	0.14050 0.68445 0.26298 -0.49100
O 	O 	0.76010 0.66113 0.31239 -0.49800
O 	O 	0.92970 0.63327 0.32945 -0.49100
O 	O 	0.64890 0.50558 0.71679 -0.48800
O 	O 	0.84650 0.69877 0.14886 -0.49600
O 	O 	0.82530 0.63288 0.21785 -0.50200
O 	O 	0.06070 0.65103 0.33790 -0.48900
O 	O 	0.33910 0.51402 0.68512 -0.49700
O 	O 	0.55900 0.53509 0.80812 -0.47600
O 	O 	0.82880 0.72846 0.20677 -0.49000
O 	O 	0.47000 0.53007 0.68715 -0.49500
O 	O 	0.02950 0.70456 0.35600 -0.51700
N 	N 	0.66730 0.50041 0.92895 -0.21000
H 	H 	0.61870 0.49270 0.92100 0.10600
N 	N 	0.73170 0.66988 0.08508 -0.21500
H 	H 	0.78020 0.67700 0.09670 0.13600
O 	O 	0.60890 0.55853 0.74530 -0.29500
N 	N 	0.25300 0.49628 0.55000 -0.20900
H 	H 	0.30390 0.48940 0.55420 0.12600
O 	O 	0.90500 0.72389 0.33080 -0.51900
N 	N 	0.14590 0.66572 0.46480 -0.21000
H 	H 	0.09460 0.67240 0.46050 0.12200
N 	N 	0.67850 0.83203 0.86070 -0.20900
H 	H 	0.65650 0.83110 0.82680 0.11800
C 	C 	0.74410 0.49675 0.90540 0.09100
C 	C 	0.28810 0.65728 0.45620 -0.02100
N 	N 	0.11240 0.83598 0.65100 -0.21200
H 	H 	0.12910 0.83620 0.68580 0.12000
C 	C 	0.26170 0.48160 0.81098 0.39500
C 	C 	0.69340 0.48655 0.72023 0.37800
C 	C 	0.18040 0.49125 0.57840 0.09900
C 	C 	0.78080 0.48691 0.69840 -0.13000
C 	C 	0.80830 0.51201 0.92964 -0.01400
C 	C 	0.00370 0.49235 0.85960 0.06800
C 	C 	0.83180 0.46713 0.69861 0.05300
H 	H 	0.81260 0.45310 0.71430 0.02200
C 	C 	0.91360 0.49492 0.87535 -0.01600
C 	C 	0.67880 0.51830 0.96740 0.08600
C 	C 	0.11120 0.50555 0.55970 -0.02100
C 	C 	0.17320 0.47503 0.62070 -0.11500
H 	H 	0.22010 0.46520 0.63340 0.07900
C 	C 	0.84680 0.48063 0.84990 -0.00900
H 	H 	0.86080 0.47020 0.82200 0.03900
C 	C 	0.63430 0.64745 0.03490 -0.01200
C 	C 	0.38880 0.52994 0.67530 0.40600
C 	C 	0.76590 0.52629 0.96811 -0.01400
C 	C 	0.88840 0.93510 0.07690 -0.14000
C 	C 	0.21760 0.67135 0.43680 0.09900
C 	C 	0.79300 0.54550 -0.00000 -0.05400
H 	H 	0.85010 0.55150 0.99920 0.04900
C 	C 	0.02310 0.48857 0.62540 -0.01900
C 	C 	0.93910 0.48804 0.65280 0.07200
C 	C 	0.04720 0.61342 0.37460 -0.12300
C 	C 	0.10220 0.48660 0.78910 0.06100
H 	H 	0.11130 0.48500 0.75180 0.02400
C 	C 	0.15750 0.48770 0.88260 0.05700
H 	H 	0.20470 0.48670 0.90950 0.02300
C 	C 	0.06080 0.95334 0.35470 0.35900
C 	C 	0.17260 0.48529 0.82780 -0.14300
C 	C 	0.01990 0.49018 0.80440 -0.12700
H 	H 	0.97290 0.49120 0.77730 0.07800
C 	C 	0.14180 0.52091 0.51830 -0.01200
C 	C 	0.59190 0.65649 0.08170 -0.01800
C 	C 	0.89330 0.51075 0.91510 -0.05600
H 	H 	0.93690 0.52060 0.93220 0.04900
C 	C 	0.07500 0.84810 0.56520 -0.01600
C 	C 	0.76250 0.57589 0.06760 0.07600
C 	C 	0.62090 0.52755 0.00080 -0.11300
H 	H 	0.56390 0.52150 0.00170 0.05500
C 	C 	0.25840 0.64203 0.49670 -0.01300
C 	C 	0.36820 0.65913 0.43400 -0.05000
H 	H 	0.41510 0.64940 0.44710 0.04300
C 	C 	0.82040 0.61332 0.13470 -0.15700
C 	C 	0.73420 0.55570 0.03310 -0.01500
C 	C 	0.91080 0.93648 0.02310 0.05400
H 	H 	0.95080 0.94800 0.01300 0.01400
C 	C 	0.93050 0.95041 0.12030 0.39400
C 	C 	0.49000 0.66697 0.14530 -0.01600
C 	C 	0.03170 0.50400 0.58270 -0.05200
H 	H 	0.98400 0.51340 0.56930 0.05000
C 	C 	0.06840 0.93686 0.40140 -0.13900
C 	C 	0.15710 0.55238 0.45520 -0.01000
C 	C 	0.09320 0.47421 0.64259 -0.01300
H 	H 	0.08580 0.46330 0.67080 0.03400
C 	C 	0.11960 0.57341 0.42770 0.06100
C 	C 	0.10700 0.53926 0.48840 -0.05900
H 	H 	0.04760 0.54310 0.49020 0.05200
C 	C 	0.35290 0.55103 0.64630 -0.13500
C 	C 	0.07530 0.49150 0.89800 -0.12500
H 	H 	0.06690 0.49360 0.93530 0.07200
C 	C 	0.91150 0.46764 0.67590 -0.12800
H 	H 	0.94670 0.45400 0.67620 0.07500
C 	C 	0.26660 0.55102 0.62330 0.05400
H 	H 	0.23230 0.53730 0.62560 0.03100
C 	C 	0.28220 0.59060 0.59190 0.06300
C 	C 	0.46340 0.67659 0.36870 0.07100
C 	C 	0.81110 0.50747 0.67650 0.05200
H 	H 	0.77670 0.52120 0.67670 0.03200
C 	C 	0.00020 0.92166 0.40930 0.05300
H 	H 	0.94920 0.92230 0.38520 0.00900
C 	C 	0.51750 0.65704 0.36980 -0.12700
H 	H 	0.49780 0.64270 0.38370 0.06900
C 	C 	0.06520 0.86446 0.52350 -0.05500
H 	H 	0.04320 0.85970 0.48820 0.04800
C 	C 	0.37960 0.67502 0.39310 -0.02400
C 	C 	0.39980 0.66796 0.16280 0.06300
C 	C 	0.23150 0.57042 0.59760 -0.11800
H 	H 	0.17250 0.57030 0.58360 0.07300
C 	C 	0.13520 0.61278 0.39310 0.04600
H 	H 	0.17090 0.62600 0.38840 0.03300
C 	C 	0.64580 0.60825 0.91240 0.06100
C 	C 	0.60520 0.58760 0.92660 -0.11600
H 	H 	0.58960 0.58540 0.96270 0.07000
C 	C 	0.73650 0.57758 0.12080 -0.12900
H 	H 	0.69910 0.56610 0.13400 0.06200
C 	C 	0.65010 0.54639 0.03320 -0.01900
H 	H 	0.61120 0.55320 0.05650 0.03300
C 	C 	0.14290 0.93601 0.43760 0.05600
H 	H 	0.19000 0.94630 0.43310 0.02000
C 	C 	0.89030 0.50819 0.65440 -0.12500
H 	H 	0.91100 0.52240 0.64050 0.07300
C 	C 	0.01030 0.63447 0.34530 0.38200
C 	C 	0.84920 0.63270 0.17030 0.42000
C 	C 	0.03200 0.57452 0.40900 -0.11800
H 	H 	0.99610 0.56140 0.41400 0.07000
C 	C 	0.65670 0.66959 0.11120 0.10100
C 	C 	0.62870 0.67862 0.32810 -0.14700
C 	C 	0.99590 0.59397 0.38350 0.04500
H 	H 	0.93590 0.59420 0.37190 0.02800
C 	C 	0.16920 0.64796 0.50010 0.09600
C 	C 	0.30720 0.68945 0.37530 -0.00700
H 	H 	0.31480 0.70060 0.34760 0.03400
C 	C 	0.14760 0.92024 0.47970 -0.12500
H 	H 	0.19850 0.91970 0.50380 0.07300
C 	C 	0.08760 0.88778 0.53340 -0.01500
C 	C 	0.22910 0.51432 0.51360 0.09300
C 	C 	0.40380 0.57073 0.63980 0.05000
H 	H 	0.46300 0.57070 0.65340 0.03500
C 	C 	0.07910 0.90507 0.48760 0.06800
C 	C 	0.77470 0.65296 0.99810 -0.11000
H 	H 	0.83010 0.66020 0.99910 0.06000
C 	C 	0.77880 0.88632 0.95860 -0.01500
C 	C 	0.22750 0.68805 0.39570 -0.11500
H 	H 	0.18090 0.69790 0.38280 0.07200
C 	C 	0.71900 0.65737 0.03810 0.10000
C 	C 	0.76300 0.48136 0.86400 -0.11400
H 	H 	0.71930 0.47180 0.84640 0.07400
C 	C 	0.58800 0.57053 0.88880 0.04000
H 	H 	0.55970 0.55660 0.89850 0.01700
C 	C 	0.59220 0.55492 0.79280 0.31500
C 	C 	0.00530 0.90574 0.45130 -0.12500
H 	H 	0.95860 0.89530 0.45550 0.06700
C 	C 	0.64010 0.67998 0.16030 -0.10900
H 	H 	0.68450 0.68800 0.18160 0.06300
C 	C 	0.84400 0.61142 0.08140 0.07700
H 	H 	0.87990 0.62310 0.06740 0.01200
C 	C 	0.61200 0.57341 0.83550 -0.10500
C 	C 	0.81590 0.59299 0.04900 -0.13700
H 	H 	0.83360 0.59200 0.01320 0.07800
C 	C 	0.57400 0.69830 0.32660 0.06500
H 	H 	0.59280 0.71250 0.31160 0.01700
C 	C 	0.76530 0.59578 0.15330 0.06700
H 	H 	0.74790 0.59670 0.18920 0.01300
C 	C 	0.36810 0.59061 0.61340 -0.11700
H 	H 	0.40270 0.60420 0.61020 0.07300
C 	C 	0.55810 0.67830 0.17680 -0.01500
H 	H 	0.54640 0.68500 0.21060 0.03700
C 	C 	0.23020 0.67149 0.19760 -0.13900
C 	C 	0.24390 0.61099 0.56100 -0.01000
C 	C 	0.29500 0.62365 0.52790 -0.06000
H 	H 	0.35450 0.61980 0.52640 0.05100
C 	C 	0.50960 0.65524 0.09840 -0.05400
H 	H 	0.46620 0.64640 0.07820 0.04800
C 	C 	0.14410 0.67265 0.21980 0.35800
C 	C 	0.73030 0.82155 0.94560 -0.01800
C 	C 	0.80030 0.73555 0.11350 -0.13100
C 	C 	0.71560 0.67954 0.30810 0.39900
C 	C 	0.11840 0.89442 0.58530 -0.01700
H 	H 	0.13440 0.91030 0.59170 0.04100
C 	C 	0.60040 0.65823 0.35070 0.05900
H 	H 	0.63720 0.64490 0.35330 0.02400
C 	C 	0.82810 0.71995 0.15990 0.35400
C 	C 	0.81280 0.90450 0.99900 0.06700
C 	C 	0.49470 0.69720 0.34640 -0.13200
H 	H 	0.45930 0.71080 0.34500 0.07400
C 	C 	0.66540 0.62650 0.95500 -0.00900
C 	C 	0.24200 0.54486 0.44930 -0.01700
H 	H 	0.27540 0.55300 0.42480 0.03900
C 	C 	0.60970 0.63167 0.99320 -0.06000
H 	H 	0.55410 0.62460 0.99160 0.05300
C 	C 	0.87390 0.92089 0.98480 -0.12900
H 	H 	0.89040 0.92140 0.94870 0.06800
C 	C 	0.77480 0.86353 0.97620 -0.06000
H 	H 	0.79440 0.85970 0.01240 0.04800
C 	C 	0.78710 0.90400 0.05050 -0.12500
H 	H 	0.74360 0.89320 0.05920 0.07000
C 	C 	0.77100 0.75876 0.12360 0.04100
H 	H 	0.76790 0.76410 0.15970 0.02400
C 	C 	0.82380 0.91903 0.09060 0.04900
H 	H 	0.80580 0.91850 0.12640 0.02100
C 	C 	0.33230 0.65405 0.14060 -0.12600
H 	H 	0.34320 0.64310 0.11320 0.06800
C 	C 	0.11940 0.63563 0.53540 -0.10500
H 	H 	0.06040 0.63970 0.53870 0.06600
C 	C 	0.12660 0.87872 0.62850 -0.10900
H 	H 	0.14540 0.88380 0.66400 0.07100
C 	C 	0.74750 0.63773 0.95670 -0.02000
H 	H 	0.78460 0.63470 0.92870 0.03400
C 	C 	0.74210 0.84605 0.94130 -0.01300
C 	C 	0.17020 0.59305 0.41810 -0.11400
H 	H 	0.23040 0.59270 0.42910 0.07000
C 	C 	0.70700 0.85220 0.88760 0.09300
C 	C 	0.27980 0.52573 0.47820 -0.10300
H 	H 	0.33750 0.52090 0.47370 0.07100
C 	C 	0.67250 0.78982 0.88860 -0.10800
H 	H 	0.64860 0.78430 0.85440 0.06400
C 	C 	0.10640 0.85515 0.61780 0.09600
C 	C 	0.03830 0.80654 0.52880 -0.05600
H 	H 	0.02210 0.81090 0.49230 0.05500
C 	C 	0.03690 0.78260 0.54430 -0.01600
C 	C 	0.74640 0.89175 0.90560 -0.01600
H 	H 	0.74860 0.90750 0.89380 0.03300
C 	C 	0.72930 0.78210 0.98130 -0.01500
C 	C 	0.06320 0.82334 0.56660 -0.01200
C 	C 	0.74790 0.80564 0.98910 -0.06000
H 	H 	0.77220 0.81110 0.02320 0.05100
C 	C 	0.71150 0.87504 0.86990 -0.11000
H 	H 	0.69110 0.87920 0.83390 0.06600
C 	C 	0.15780 0.61743 0.56560 -0.01900
H 	H 	0.12470 0.60910 0.59000 0.03600
C 	C 	0.92970 0.75318 0.42000 0.06500
H 	H 	0.88070 0.75570 0.39500 0.01900
C 	C 	0.74750 0.77321 0.08050 -0.11800
H 	H 	0.72850 0.78870 0.08730 0.06200
C 	C 	0.29520 0.68693 0.21620 0.05300
H 	H 	0.28220 0.69870 0.24140 0.02300
C 	C 	0.98120 0.73440 0.41330 -0.14700
C 	C 	0.75090 0.76568 0.02690 0.06100
C 	C 	0.80360 0.72824 0.06080 0.04700
H 	H 	0.82150 0.71270 0.05380 0.01100
C 	C 	0.01370 0.76505 0.50240 0.07400
C 	C 	0.65310 0.59398 0.82210 0.03700
H 	H 	0.67070 0.59610 0.78650 0.02900
C 	C 	0.08980 0.79340 0.63710 -0.11200
H 	H 	0.10610 0.78920 0.67360 0.06700
C 	C 	0.06640 0.77611 0.59770 -0.01600
H 	H 	0.07060 0.76000 0.60720 0.03400
C 	C 	0.69100 0.81344 0.89710 0.09200
C 	C 	0.94660 0.76897 0.46280 -0.13200
H 	H 	0.91170 0.78260 0.46470 0.07800
C 	C 	0.78090 0.74324 0.01760 -0.11900
H 	H 	0.78610 0.73810 0.98150 0.06700
C 	C 	0.25010 0.65583 0.15750 0.05200
H 	H 	0.20560 0.64610 0.14120 0.01700
C 	C 	0.66820 0.61125 0.86010 -0.11400
H 	H 	0.69450 0.62550 0.85020 0.06600
C 	C 	0.08820 0.81622 0.62120 0.09800
C 	C 	0.69020 0.77470 0.93160 -0.02000
H 	H 	0.67520 0.75870 0.92710 0.03400
C 	C 	0.97040 0.71983 0.36320 0.38700
C 	C 	0.37730 0.68575 0.19980 -0.12100
H 	H 	0.41960 0.69680 0.21290 0.06900
C 	C 	0.06260 0.74454 0.49800 -0.12600
H 	H 	0.10590 0.74060 0.52590 0.07300
C 	C 	0.04790 0.72984 0.45280 0.06100
H 	H 	0.08410 0.71660 0.44920 0.01800
Zn	Zn	0.95429 0.95675 0.24764 1.17400
Zn	Zn	0.05405 0.98476 0.15883 1.17200
Zn	Zn	0.12724 0.98361 0.27929 1.19800
Zn	Zn	0.95829 0.01377 0.25518 1.21500
Zn	Zn	0.63454 0.15342 0.72394 1.21100
Zn	Zn	0.54038 0.17880 0.82336 1.17700
Zn	Zn	0.46498 0.18128 0.69931 1.20900
Zn	Zn	0.64128 0.20739 0.73254 1.20800
O 	O 	0.83080 0.96762 0.25874 -0.47000
O 	O 	0.23050 0.98005 0.23923 -0.51400
O 	O 	0.51100 0.45759 0.66932 -0.51200
O 	O 	0.17700 0.98030 0.15204 -0.54000
O 	O 	0.51780 0.46612 0.89467 -0.52100
O 	O 	0.36640 0.46143 0.66039 -0.49200
O 	O 	0.59940 0.14774 0.84665 -0.49300
O 	O 	0.57000 0.18047 0.74564 -0.95600
O 	O 	0.58900 0.44718 0.83263 -0.51200
O 	O 	0.02040 0.98627 0.23174 -0.96200
O 	O 	0.41930 0.16243 0.80520 -0.49300
O 	O 	0.76020 0.19827 0.71316 -0.49000
O 	O 	0.35950 0.18445 0.73702 -0.49200
O 	O 	0.73990 0.16113 0.68761 -0.49800
O 	O 	0.57030 0.13327 0.67055 -0.49000
O 	O 	0.85110 0.00558 0.28321 -0.48800
O 	O 	0.65350 0.19877 0.85114 -0.49600
O 	O 	0.67470 0.13288 0.78215 -0.50100
O 	O 	0.43930 0.15103 0.66210 -0.48900
O 	O 	0.16090 0.01402 0.31488 -0.49700
O 	O 	0.94100 0.03509 0.19188 -0.47600
O 	O 	0.67120 0.22846 0.79323 -0.49000
O 	O 	0.03000 0.03007 0.31285 -0.49500
O 	O 	0.47050 0.20456 0.64400 -0.51800
N 	N 	0.83270 0.00041 0.07105 -0.21000
H 	H 	0.88130 0.99270 0.07900 0.10600
N 	N 	0.76830 0.16988 0.91492 -0.21500
H 	H 	0.71980 0.17700 0.90330 0.13600
O 	O 	0.89110 0.05853 0.25470 -0.29500
N 	N 	0.24700 0.99628 0.45000 -0.20900
H 	H 	0.19610 0.98940 0.44580 0.12600
O 	O 	0.59500 0.22389 0.66920 -0.51900
N 	N 	0.35410 0.16572 0.53520 -0.21000
H 	H 	0.40540 0.17240 0.53950 0.12200
N 	N 	0.82150 0.33203 0.13930 -0.20900
H 	H 	0.84350 0.33110 0.17320 0.11800
C 	C 	0.75590 0.99675 0.09460 0.09100
C 	C 	0.21190 0.15728 0.54380 -0.02000
N 	N 	0.38760 0.33598 0.34900 -0.21200
H 	H 	0.37090 0.33620 0.31420 0.11900
C 	C 	0.23830 0.98160 0.18902 0.39500
C 	C 	0.80660 0.98655 0.27977 0.37800
C 	C 	0.31960 0.99125 0.42160 0.09900
C 	C 	0.71920 0.98691 0.30160 -0.13000
C 	C 	0.69170 0.01201 0.07036 -0.01400
C 	C 	0.49630 0.99235 0.14040 0.06800
C 	C 	0.66820 0.96713 0.30139 0.05300
H 	H 	0.68740 0.95310 0.28570 0.02200
C 	C 	0.58640 0.99492 0.12465 -0.01600
C 	C 	0.82120 0.01830 0.03260 0.08900
C 	C 	0.38880 0.00555 0.44030 -0.02100
C 	C 	0.32680 0.97503 0.37930 -0.11400
H 	H 	0.27990 0.96520 0.36660 0.07900
C 	C 	0.65320 0.98063 0.15010 -0.00900
H 	H 	0.63920 0.97020 0.17800 0.03900
C 	C 	0.86570 0.14745 0.96510 -0.01200
C 	C 	0.11120 0.02994 0.32470 0.40600
C 	C 	0.73410 0.02629 0.03189 -0.01400
C 	C 	0.61160 0.43510 0.92310 -0.14000
C 	C 	0.28240 0.17135 0.56320 0.09800
C 	C 	0.70700 0.04550 -0.00000 -0.05500
H 	H 	0.64990 0.05150 0.00080 0.05100
C 	C 	0.47690 0.98857 0.37460 -0.01800
C 	C 	0.56090 0.98804 0.34720 0.07200
C 	C 	0.45280 0.11342 0.62540 -0.12500
C 	C 	0.39780 0.98660 0.21090 0.06100
H 	H 	0.38870 0.98500 0.24820 0.02400
C 	C 	0.34250 0.98770 0.11740 0.05700
H 	H 	0.29530 0.98670 0.09050 0.02400
C 	C 	0.43920 0.45334 0.64530 0.35800
C 	C 	0.32740 0.98529 0.17220 -0.14300
C 	C 	0.48010 0.99018 0.19560 -0.12700
H 	H 	0.52710 0.99120 0.22270 0.07800
C 	C 	0.35820 0.02091 0.48170 -0.01200
C 	C 	0.90810 0.15649 0.91830 -0.02100
C 	C 	0.60670 0.01075 0.08490 -0.05500
H 	H 	0.56310 0.02060 0.06780 0.04900
C 	C 	0.42500 0.34810 0.43480 -0.01700
C 	C 	0.73750 0.07589 0.93240 0.07600
C 	C 	0.87910 0.02755 0.99920 -0.11600
H 	H 	0.93610 0.02150 0.99830 0.05600
C 	C 	0.24160 0.14203 0.50330 -0.01300
C 	C 	0.13180 0.15913 0.56600 -0.05100
H 	H 	0.08490 0.14940 0.55290 0.04300
C 	C 	0.67960 0.11332 0.86530 -0.15700
C 	C 	0.76580 0.05570 0.96690 -0.01600
C 	C 	0.58920 0.43648 0.97690 0.05200
H 	H 	0.54920 0.44800 0.98700 0.01500
C 	C 	0.56950 0.45041 0.87970 0.39400
C 	C 	0.01000 0.16697 0.85470 -0.02200
C 	C 	0.46830 0.00400 0.41730 -0.05300
H 	H 	0.51600 0.01340 0.43070 0.05000
C 	C 	0.43160 0.43686 0.59860 -0.13900
C 	C 	0.34290 0.05238 0.54480 -0.01100
C 	C 	0.40680 0.97421 0.35741 -0.01300
H 	H 	0.41420 0.96330 0.32920 0.03400
C 	C 	0.38040 0.07341 0.57230 0.06300
C 	C 	0.39300 0.03926 0.51160 -0.05900
H 	H 	0.45240 0.04310 0.50980 0.05200
C 	C 	0.14710 0.05103 0.35370 -0.13500
C 	C 	0.42470 0.99150 0.10200 -0.12500
H 	H 	0.43310 0.99360 0.06470 0.07300
C 	C 	0.58850 0.96764 0.32410 -0.12700
H 	H 	0.55330 0.95400 0.32380 0.07400
C 	C 	0.23340 0.05102 0.37670 0.05400
H 	H 	0.26770 0.03730 0.37440 0.03100
C 	C 	0.21780 0.09060 0.40810 0.06300
C 	C 	0.03660 0.17659 0.63130 0.06900
C 	C 	0.68890 0.00747 0.32350 0.05200
H 	H 	0.72330 0.02120 0.32330 0.03200
C 	C 	0.49980 0.42166 0.59070 0.05300
H 	H 	0.55080 0.42230 0.61480 0.00900
C 	C 	0.98250 0.15704 0.63020 -0.12200
H 	H 	0.00220 0.14270 0.61630 0.06700
C 	C 	0.43480 0.36446 0.47650 -0.05500
H 	H 	0.45680 0.35970 0.51180 0.04800
C 	C 	0.12040 0.17502 0.60690 -0.02300
C 	C 	0.10020 0.16796 0.83720 0.06500
C 	C 	0.26850 0.07042 0.40240 -0.11800
H 	H 	0.32750 0.07030 0.41640 0.07300
C 	C 	0.36480 0.11278 0.60690 0.04800
H 	H 	0.32910 0.12600 0.61160 0.03200
C 	C 	0.85420 0.10825 0.08760 0.06100
C 	C 	0.89480 0.08760 0.07340 -0.11600
H 	H 	0.91040 0.08540 0.03730 0.07000
C 	C 	0.76350 0.07758 0.87920 -0.13000
H 	H 	0.80090 0.06610 0.86600 0.06200
C 	C 	0.84990 0.04639 0.96680 -0.01800
H 	H 	0.88880 0.05320 0.94350 0.03200
C 	C 	0.35710 0.43601 0.56240 0.05600
H 	H 	0.31000 0.44630 0.56690 0.02000
C 	C 	0.60970 0.00819 0.34560 -0.12500
H 	H 	0.58900 0.02240 0.35950 0.07300
C 	C 	0.48970 0.13447 0.65470 0.38200
C 	C 	0.65080 0.13270 0.82970 0.42000
C 	C 	0.46800 0.07452 0.59100 -0.12200
H 	H 	0.50390 0.06140 0.58600 0.07200
C 	C 	0.84330 0.16959 0.88880 0.10300
C 	C 	0.87130 0.17862 0.67190 -0.14700
C 	C 	0.50410 0.09397 0.61650 0.04900
H 	H 	0.56410 0.09420 0.62810 0.02700
C 	C 	0.33080 0.14796 0.49990 0.09600
C 	C 	0.19280 0.18945 0.62470 -0.00700
H 	H 	0.18520 0.20060 0.65240 0.03500
C 	C 	0.35240 0.42024 0.52030 -0.12500
H 	H 	0.30150 0.41970 0.49620 0.07300
C 	C 	0.41240 0.38778 0.46660 -0.01600
C 	C 	0.27090 0.01432 0.48640 0.09400
C 	C 	0.09620 0.07073 0.36020 0.05000
H 	H 	0.03700 0.07070 0.34660 0.03500
C 	C 	0.42090 0.40507 0.51240 0.06800
C 	C 	0.72530 0.15296 0.00190 -0.10700
H 	H 	0.66990 0.16020 0.00090 0.06000
C 	C 	0.72120 0.38632 0.04140 -0.01800
C 	C 	0.27250 0.18805 0.60430 -0.11400
H 	H 	0.31910 0.19790 0.61720 0.07200
C 	C 	0.78100 0.15737 0.96190 0.09700
C 	C 	0.73700 0.98136 0.13600 -0.11400
H 	H 	0.78070 0.97180 0.15360 0.07400
C 	C 	0.91200 0.07053 0.11120 0.04100
H 	H 	0.94030 0.05660 0.10150 0.01700
C 	C 	0.90780 0.05492 0.20720 0.31500
C 	C 	0.49470 0.40574 0.54870 -0.12700
H 	H 	0.54140 0.39530 0.54450 0.06800
C 	C 	0.85990 0.17998 0.83970 -0.11200
H 	H 	0.81550 0.18800 0.81840 0.06400
C 	C 	0.65600 0.11142 0.91860 0.07700
H 	H 	0.62010 0.12310 0.93260 0.01200
C 	C 	0.88800 0.07341 0.16450 -0.10500
C 	C 	0.68410 0.09299 0.95100 -0.13700
H 	H 	0.66640 0.09200 0.98680 0.07700
C 	C 	0.92600 0.19830 0.67340 0.06600
H 	H 	0.90720 0.21250 0.68840 0.01700
C 	C 	0.73470 0.09578 0.84670 0.06700
H 	H 	0.75210 0.09670 0.81080 0.01300
C 	C 	0.13190 0.09061 0.38660 -0.11700
H 	H 	0.09730 0.10420 0.38980 0.07300
C 	C 	0.94190 0.17830 0.82320 -0.01100
H 	H 	0.95360 0.18500 0.78940 0.03600
C 	C 	0.26980 0.17149 0.80240 -0.14000
C 	C 	0.25610 0.11099 0.43900 -0.01000
C 	C 	0.20500 0.12365 0.47210 -0.06000
H 	H 	0.14550 0.11980 0.47360 0.05100
C 	C 	0.99040 0.15524 0.90160 -0.04700
H 	H 	0.03380 0.14640 0.92180 0.04500
C 	C 	0.35590 0.17265 0.78020 0.35900
C 	C 	0.76970 0.32155 0.05440 -0.01900
C 	C 	0.69970 0.23555 0.88650 -0.13200
C 	C 	0.78440 0.17954 0.69190 0.39900
C 	C 	0.38160 0.39442 0.41470 -0.01700
H 	H 	0.36560 0.41030 0.40830 0.04100
C 	C 	0.89960 0.15823 0.64930 0.05700
H 	H 	0.86280 0.14490 0.64670 0.02500
C 	C 	0.67190 0.21995 0.84010 0.35500
C 	C 	0.68720 0.40450 0.00100 0.07000
C 	C 	0.00530 0.19720 0.65360 -0.13300
H 	H 	0.04070 0.21080 0.65500 0.07400
C 	C 	0.83460 0.12650 0.04500 -0.00900
C 	C 	0.25800 0.04486 0.55070 -0.01600
H 	H 	0.22460 0.05300 0.57520 0.03900
C 	C 	0.89030 0.13167 0.00680 -0.05800
H 	H 	0.94590 0.12460 0.00840 0.05300
C 	C 	0.62610 0.42089 0.01520 -0.12700
H 	H 	0.60960 0.42140 0.05130 0.06800
C 	C 	0.72520 0.36353 0.02380 -0.05500
H 	H 	0.70560 0.35970 0.98760 0.04500
C 	C 	0.71290 0.40400 0.94950 -0.12800
H 	H 	0.75640 0.39320 0.94080 0.07100
C 	C 	0.72900 0.25876 0.87640 0.04200
H 	H 	0.73210 0.26410 0.84030 0.02400
C 	C 	0.67620 0.41903 0.90940 0.05000
H 	H 	0.69420 0.41850 0.87360 0.02100
C 	C 	0.16770 0.15405 0.85940 -0.12800
H 	H 	0.15680 0.14310 0.88680 0.06800
C 	C 	0.38060 0.13563 0.46460 -0.10500
H 	H 	0.43960 0.13970 0.46130 0.06600
C 	C 	0.37340 0.37872 0.37150 -0.10900
H 	H 	0.35460 0.38380 0.33600 0.07100
C 	C 	0.75250 0.13773 0.04330 -0.02100
H 	H 	0.71540 0.13470 0.07130 0.03400
C 	C 	0.75790 0.34605 0.05870 -0.01400
C 	C 	0.32980 0.09305 0.58190 -0.11600
H 	H 	0.26960 0.09270 0.57090 0.07000
C 	C 	0.79300 0.35220 0.11240 0.09400
C 	C 	0.22020 0.02573 0.52180 -0.10300
H 	H 	0.16250 0.02090 0.52630 0.07100
C 	C 	0.82750 0.28982 0.11140 -0.10800
H 	H 	0.85140 0.28430 0.14560 0.06400
C 	C 	0.39360 0.35515 0.38220 0.09600
C 	C 	0.46170 0.30654 0.47120 -0.05700
H 	H 	0.47790 0.31090 0.50770 0.05500
C 	C 	0.46310 0.28260 0.45570 -0.01500
C 	C 	0.75360 0.39175 0.09440 -0.01400
H 	H 	0.75140 0.40750 0.10620 0.03200
C 	C 	0.77070 0.28210 0.01870 -0.01400
C 	C 	0.43680 0.32334 0.43340 -0.01200
C 	C 	0.75210 0.30564 0.01090 -0.05700
H 	H 	0.72780 0.31110 0.97680 0.04800
C 	C 	0.78850 0.37504 0.13010 -0.11100
H 	H 	0.80890 0.37920 0.16610 0.06700
C 	C 	0.34220 0.11743 0.43440 -0.01900
H 	H 	0.37530 0.10910 0.41000 0.03500
C 	C 	0.57030 0.25318 0.58000 0.06200
H 	H 	0.61930 0.25570 0.60500 0.02000
C 	C 	0.75250 0.27321 0.91950 -0.11900
H 	H 	0.77150 0.28870 0.91270 0.06200
C 	C 	0.20480 0.18693 0.78380 0.05400
H 	H 	0.21780 0.19870 0.75860 0.02200
C 	C 	0.51880 0.23440 0.58670 -0.14400
C 	C 	0.74910 0.26568 0.97310 0.06100
C 	C 	0.69640 0.22824 0.93920 0.05000
H 	H 	0.67850 0.21270 0.94620 0.01000
C 	C 	0.48630 0.26505 0.49760 0.07100
C 	C 	0.84690 0.09398 0.17790 0.03700
H 	H 	0.82930 0.09610 0.21350 0.02900
C 	C 	0.41020 0.29340 0.36290 -0.11200
H 	H 	0.39390 0.28920 0.32640 0.06600
C 	C 	0.43360 0.27611 0.40230 -0.01700
H 	H 	0.42940 0.26000 0.39280 0.03400
C 	C 	0.80900 0.31344 0.10290 0.09200
C 	C 	0.55340 0.26897 0.53720 -0.12800
H 	H 	0.58830 0.28260 0.53530 0.07700
C 	C 	0.71910 0.24324 0.98240 -0.12400
H 	H 	0.71390 0.23810 0.01850 0.07000
C 	C 	0.24990 0.15583 0.84250 0.05300
H 	H 	0.29440 0.14610 0.85880 0.01600
C 	C 	0.83180 0.11125 0.13990 -0.11500
H 	H 	0.80550 0.12550 0.14980 0.06600
C 	C 	0.41180 0.31622 0.37880 0.09700
C 	C 	0.80980 0.27470 0.06840 -0.02000
H 	H 	0.82480 0.25870 0.07290 0.03500
C 	C 	0.52960 0.21983 0.63680 0.38800
C 	C 	0.12270 0.18575 0.80020 -0.12300
H 	H 	0.08040 0.19680 0.78710 0.07000
C 	C 	0.43740 0.24454 0.50200 -0.12400
H 	H 	0.39410 0.24060 0.47410 0.07200
C 	C 	0.45210 0.22984 0.54720 0.05700
H 	H 	0.41590 0.21660 0.55080 0.01900
Zn	Zn	0.45429 0.54325 0.24764 1.17400
Zn	Zn	0.55405 0.51524 0.15883 1.17200
Zn	Zn	0.62724 0.51639 0.27929 1.19800
Zn	Zn	0.45829 0.48623 0.25518 1.21500
Zn	Zn	0.13454 0.34658 0.72394 1.21100
Zn	Zn	0.04038 0.32120 0.82336 1.17600
Zn	Zn	0.96498 0.31872 0.69931 1.20900
Zn	Zn	0.14128 0.29261 0.73254 1.20800
O 	O 	0.33080 0.53238 0.25874 -0.47000
O 	O 	0.73050 0.51995 0.23923 -0.51400
O 	O 	0.01100 0.04241 0.66932 -0.51200
O 	O 	0.67700 0.51970 0.15204 -0.54100
O 	O 	0.01780 0.03388 0.89467 -0.52100
O 	O 	0.86640 0.03857 0.66039 -0.49200
O 	O 	0.09940 0.35226 0.84665 -0.49300
O 	O 	0.07000 0.31953 0.74564 -0.95600
O 	O 	0.08900 0.05282 0.83263 -0.51200
O 	O 	0.52040 0.51373 0.23174 -0.96200
O 	O 	0.91930 0.33757 0.80520 -0.49200
O 	O 	0.26020 0.30173 0.71316 -0.49000
O 	O 	0.85950 0.31555 0.73702 -0.49100
O 	O 	0.23990 0.33887 0.68761 -0.49800
O 	O 	0.07030 0.36673 0.67055 -0.49100
O 	O 	0.35110 0.49442 0.28321 -0.48800
O 	O 	0.15350 0.30123 0.85114 -0.49600
O 	O 	0.17470 0.36712 0.78215 -0.50200
O 	O 	0.93930 0.34897 0.66210 -0.48900
O 	O 	0.66090 0.48598 0.31488 -0.49700
O 	O 	0.44100 0.46491 0.19188 -0.47600
O 	O 	0.17120 0.27154 0.79323 -0.49000
O 	O 	0.53000 0.46993 0.31285 -0.49500
O 	O 	0.97050 0.29544 0.64400 -0.51700
N 	N 	0.33270 0.49959 0.07105 -0.21000
H 	H 	0.38130 0.50730 0.07900 0.10600
N 	N 	0.26830 0.33012 0.91492 -0.21500
H 	H 	0.21980 0.32300 0.90330 0.13500
O 	O 	0.39110 0.44147 0.25470 -0.29500
N 	N 	0.74700 0.50372 0.45000 -0.20900
H 	H 	0.69610 0.51060 0.44580 0.12600
O 	O 	0.09500 0.27611 0.66920 -0.51900
N 	N 	0.85410 0.33428 0.53520 -0.21000
H 	H 	0.90540 0.32760 0.53950 0.12200
N 	N 	0.32150 0.16797 0.13930 -0.20900
H 	H 	0.34350 0.16890 0.17320 0.11800
C 	C 	0.25590 0.50325 0.09460 0.09100
C 	C 	0.71190 0.34272 0.54380 -0.02100
N 	N 	0.88760 0.16402 0.34900 -0.21200
H 	H 	0.87090 0.16380 0.31420 0.12000
C 	C 	0.73830 0.51840 0.18902 0.39500
C 	C 	0.30660 0.51345 0.27977 0.37800
C 	C 	0.81960 0.50875 0.42160 0.09900
C 	C 	0.21920 0.51309 0.30160 -0.13000
C 	C 	0.19170 0.48799 0.07036 -0.01400
C 	C 	0.99630 0.50765 0.14040 0.06800
C 	C 	0.16820 0.53287 0.30139 0.05300
H 	H 	0.18740 0.54690 0.28570 0.02200
C 	C 	0.08640 0.50508 0.12465 -0.01600
C 	C 	0.32120 0.48170 0.03260 0.08900
C 	C 	0.88880 0.49445 0.44030 -0.02100
C 	C 	0.82680 0.52497 0.37930 -0.11500
H 	H 	0.77990 0.53480 0.36660 0.07900
C 	C 	0.15320 0.51937 0.15010 -0.00900
H 	H 	0.13920 0.52980 0.17800 0.03900
C 	C 	0.36570 0.35255 0.96510 -0.01400
C 	C 	0.61120 0.47006 0.32470 0.40600
C 	C 	0.23410 0.47371 0.03189 -0.01400
C 	C 	0.11160 0.06490 0.92310 -0.14000
C 	C 	0.78240 0.32865 0.56320 0.09900
C 	C 	0.20700 0.45450 -0.00000 -0.05400
H 	H 	0.14990 0.44850 0.00080 0.05000
C 	C 	0.97690 0.51143 0.37460 -0.01900
C 	C 	0.06090 0.51196 0.34720 0.07200
C 	C 	0.95280 0.38658 0.62540 -0.12300
C 	C 	0.89780 0.51340 0.21090 0.06100
H 	H 	0.88870 0.51500 0.24820 0.02400
C 	C 	0.84250 0.51230 0.11740 0.05700
H 	H 	0.79530 0.51330 0.09050 0.02400
C 	C 	0.93920 0.04666 0.64530 0.35900
C 	C 	0.82740 0.51471 0.17220 -0.14300
C 	C 	0.98010 0.50982 0.19560 -0.12700
H 	H 	0.02710 0.50880 0.22270 0.07800
C 	C 	0.85820 0.47909 0.48170 -0.01200
C 	C 	0.40810 0.34351 0.91830 -0.01700
C 	C 	0.10670 0.48925 0.08490 -0.05500
H 	H 	0.06310 0.47940 0.06780 0.05000
C 	C 	0.92500 0.15190 0.43480 -0.01600
C 	C 	0.23750 0.42411 0.93240 0.07600
C 	C 	0.37910 0.47245 0.99920 -0.11700
H 	H 	0.43610 0.47850 0.99830 0.05600
C 	C 	0.74160 0.35797 0.50330 -0.01300
C 	C 	0.63180 0.34087 0.56600 -0.05000
H 	H 	0.58490 0.35060 0.55290 0.04300
C 	C 	0.17960 0.38668 0.86530 -0.15800
C 	C 	0.26580 0.44430 0.96690 -0.01700
C 	C 	0.08920 0.06352 0.97690 0.05200
H 	H 	0.04920 0.05200 0.98700 0.01400
C 	C 	0.06950 0.04959 0.87970 0.39400
C 	C 	0.51000 0.33303 0.85470 -0.01600
C 	C 	0.96830 0.49600 0.41730 -0.05200
H 	H 	0.01600 0.48660 0.43070 0.05000
C 	C 	0.93160 0.06314 0.59860 -0.13900
C 	C 	0.84290 0.44762 0.54480 -0.01000
C 	C 	0.90680 0.52579 0.35741 -0.01300
H 	H 	0.91420 0.53670 0.32920 0.03400
C 	C 	0.88040 0.42659 0.57230 0.06100
C 	C 	0.89300 0.46074 0.51160 -0.05900
H 	H 	0.95240 0.45690 0.50980 0.05200
C 	C 	0.64710 0.44897 0.35370 -0.13500
C 	C 	0.92470 0.50850 0.10200 -0.12500
H 	H 	0.93310 0.50640 0.06470 0.07300
C 	C 	0.08850 0.53236 0.32410 -0.12800
H 	H 	0.05330 0.54600 0.32380 0.07500
C 	C 	0.73340 0.44898 0.37670 0.05400
H 	H 	0.76770 0.46270 0.37440 0.03100
C 	C 	0.71780 0.40940 0.40810 0.06300
C 	C 	0.53660 0.32341 0.63130 0.07100
C 	C 	0.18890 0.49253 0.32350 0.05200
H 	H 	0.22330 0.47880 0.32330 0.03200
C 	C 	0.99980 0.07834 0.59070 0.05400
H 	H 	0.05080 0.07770 0.61480 0.00900
C 	C 	0.48250 0.34296 0.63020 -0.12700
H 	H 	0.50220 0.35730 0.61630 0.06900
C 	C 	0.93480 0.13554 0.47650 -0.05500
H 	H 	0.95680 0.14030 0.51180 0.04800
C 	C 	0.62040 0.32498 0.60690 -0.02400
C 	C 	0.60020 0.33204 0.83720 0.06300
C 	C 	0.76850 0.42958 0.40240 -0.11800
H 	H 	0.82750 0.42970 0.41640 0.07300
C 	C 	0.86480 0.38722 0.60690 0.04600
H 	H 	0.82910 0.37400 0.61160 0.03300
C 	C 	0.35420 0.39175 0.08760 0.06200
C 	C 	0.39480 0.41240 0.07340 -0.11600
H 	H 	0.41040 0.41460 0.03730 0.07000
C 	C 	0.26350 0.42242 0.87920 -0.13000
H 	H 	0.30090 0.43390 0.86600 0.06200
C 	C 	0.34990 0.45361 0.96680 -0.01800
H 	H 	0.38880 0.44680 0.94350 0.03200
C 	C 	0.85710 0.06399 0.56240 0.05600
H 	H 	0.81000 0.05370 0.56690 0.02000
C 	C 	0.10970 0.49181 0.34560 -0.12500
H 	H 	0.08900 0.47760 0.35950 0.07300
C 	C 	0.98970 0.36553 0.65470 0.38200
C 	C 	0.15080 0.36730 0.82970 0.42000
C 	C 	0.96800 0.42548 0.59100 -0.11800
H 	H 	0.00390 0.43860 0.58600 0.07000
C 	C 	0.34330 0.33041 0.88880 0.10100
C 	C 	0.37130 0.32138 0.67190 -0.14700
C 	C 	0.00410 0.40603 0.61650 0.04500
H 	H 	0.06410 0.40580 0.62810 0.02800
C 	C 	0.83080 0.35204 0.49990 0.09600
C 	C 	0.69280 0.31055 0.62470 -0.00700
H 	H 	0.68520 0.29940 0.65240 0.03400
C 	C 	0.85240 0.07976 0.52030 -0.12500
H 	H 	0.80150 0.08030 0.49620 0.07300
C 	C 	0.91240 0.11222 0.46660 -0.01500
C 	C 	0.77090 0.48568 0.48640 0.09300
C 	C 	0.59620 0.42927 0.36020 0.05000
H 	H 	0.53700 0.42930 0.34660 0.03500
C 	C 	0.92090 0.09493 0.51240 0.06800
C 	C 	0.22530 0.34704 0.00190 -0.10700
H 	H 	0.16990 0.33980 0.00090 0.06000
C 	C 	0.22120 0.11368 0.04140 -0.01800
C 	C 	0.77250 0.31195 0.60430 -0.11500
H 	H 	0.81910 0.30210 0.61720 0.07200
C 	C 	0.28100 0.34263 0.96190 0.09800
C 	C 	0.23700 0.51864 0.13600 -0.11400
H 	H 	0.28070 0.52820 0.15360 0.07400
C 	C 	0.41200 0.42947 0.11120 0.04100
H 	H 	0.44030 0.44340 0.10150 0.01700
C 	C 	0.40780 0.44508 0.20720 0.31500
C 	C 	0.99470 0.09426 0.54870 -0.12500
H 	H 	0.04140 0.10470 0.54450 0.06700
C 	C 	0.35990 0.32002 0.83970 -0.10800
H 	H 	0.31550 0.31200 0.81840 0.06300
C 	C 	0.15600 0.38858 0.91860 0.07700
H 	H 	0.12010 0.37690 0.93260 0.01200
C 	C 	0.38800 0.42659 0.16450 -0.10500
C 	C 	0.18410 0.40701 0.95100 -0.13700
H 	H 	0.16640 0.40800 0.98680 0.07700
C 	C 	0.42600 0.30170 0.67340 0.06500
H 	H 	0.40720 0.28750 0.68840 0.01700
C 	C 	0.23470 0.40422 0.84670 0.06700
H 	H 	0.25210 0.40330 0.81080 0.01300
C 	C 	0.63190 0.40939 0.38660 -0.11700
H 	H 	0.59730 0.39580 0.38980 0.07300
C 	C 	0.44190 0.32170 0.82320 -0.01600
H 	H 	0.45360 0.31500 0.78940 0.03700
C 	C 	0.76980 0.32851 0.80240 -0.13900
C 	C 	0.75610 0.38901 0.43900 -0.01000
C 	C 	0.70500 0.37635 0.47210 -0.06000
H 	H 	0.64550 0.38020 0.47360 0.05100
C 	C 	0.49040 0.34476 0.90160 -0.05400
H 	H 	0.53380 0.35360 0.92180 0.04800
C 	C 	0.85590 0.32735 0.78020 0.35800
C 	C 	0.26970 0.17845 0.05440 -0.01900
C 	C 	0.19970 0.26445 0.88650 -0.13300
C 	C 	0.28440 0.32046 0.69190 0.39900
C 	C 	0.88160 0.10558 0.41470 -0.01700
H 	H 	0.86560 0.08970 0.40830 0.04100
C 	C 	0.39960 0.34177 0.64930 0.05900
H 	H 	0.36280 0.35510 0.64670 0.02400
C 	C 	0.17190 0.28005 0.84010 0.35500
C 	C 	0.18720 0.09550 0.00100 0.07100
C 	C 	0.50530 0.30280 0.65360 -0.13200
H 	H 	0.54070 0.28920 0.65500 0.07400
C 	C 	0.33460 0.37350 0.04500 -0.01000
C 	C 	0.75800 0.45514 0.55070 -0.01700
H 	H 	0.72460 0.44700 0.57520 0.03900
C 	C 	0.39030 0.36833 0.00680 -0.05700
H 	H 	0.44590 0.37540 0.00840 0.05200
C 	C 	0.12610 0.07911 0.01520 -0.12700
H 	H 	0.10960 0.07860 0.05130 0.06800
C 	C 	0.22520 0.13647 0.02380 -0.05400
H 	H 	0.20560 0.14030 0.98760 0.04500
C 	C 	0.21290 0.09600 0.94950 -0.12900
H 	H 	0.25640 0.10680 0.94080 0.07100
C 	C 	0.22900 0.24124 0.87640 0.04200
H 	H 	0.23210 0.23590 0.84030 0.02400
C 	C 	0.17620 0.08097 0.90940 0.05000
H 	H 	0.19420 0.08150 0.87360 0.02100
C 	C 	0.66770 0.34595 0.85940 -0.12600
H 	H 	0.65680 0.35690 0.88680 0.06700
C 	C 	0.88060 0.36437 0.46460 -0.10500
H 	H 	0.93960 0.36030 0.46130 0.06600
C 	C 	0.87340 0.12128 0.37150 -0.10900
H 	H 	0.85460 0.11620 0.33600 0.07100
C 	C 	0.25250 0.36227 0.04330 -0.02100
H 	H 	0.21540 0.36530 0.07130 0.03400
C 	C 	0.25790 0.15395 0.05870 -0.01400
C 	C 	0.82980 0.40695 0.58190 -0.11400
H 	H 	0.76960 0.40730 0.57090 0.07000
C 	C 	0.29300 0.14780 0.11240 0.09400
C 	C 	0.72020 0.47427 0.52180 -0.10300
H 	H 	0.66250 0.47910 0.52630 0.07100
C 	C 	0.32750 0.21018 0.11140 -0.10800
H 	H 	0.35140 0.21570 0.14560 0.06400
C 	C 	0.89360 0.14485 0.38220 0.09600
C 	C 	0.96170 0.19346 0.47120 -0.05600
H 	H 	0.97790 0.18910 0.50770 0.05500
C 	C 	0.96310 0.21740 0.45570 -0.01600
C 	C 	0.25360 0.10825 0.09440 -0.01400
H 	H 	0.25140 0.09250 0.10620 0.03200
C 	C 	0.27070 0.21790 0.01870 -0.01400
C 	C 	0.93680 0.17666 0.43340 -0.01200
C 	C 	0.25210 0.19436 0.01090 -0.05600
H 	H 	0.22780 0.18890 0.97680 0.04800
C 	C 	0.28850 0.12496 0.13010 -0.11100
H 	H 	0.30890 0.12080 0.16610 0.06600
C 	C 	0.84220 0.38257 0.43440 -0.01900
H 	H 	0.87530 0.39090 0.41000 0.03600
C 	C 	0.07030 0.24682 0.58000 0.06500
H 	H 	0.11930 0.24430 0.60500 0.01900
C 	C 	0.25250 0.22679 0.91950 -0.11900
H 	H 	0.27150 0.21130 0.91270 0.06100
C 	C 	0.70480 0.31307 0.78380 0.05300
H 	H 	0.71780 0.30130 0.75860 0.02300
C 	C 	0.01880 0.26560 0.58670 -0.14700
C 	C 	0.24910 0.23432 0.97310 0.06100
C 	C 	0.19640 0.27176 0.93920 0.05000
H 	H 	0.17850 0.28730 0.94620 0.01000
C 	C 	0.98630 0.23495 0.49760 0.07400
C 	C 	0.34690 0.40602 0.17790 0.03700
H 	H 	0.32930 0.40390 0.21350 0.02900
C 	C 	0.91020 0.20660 0.36290 -0.11200
H 	H 	0.89390 0.21080 0.32640 0.06700
C 	C 	0.93360 0.22389 0.40230 -0.01600
H 	H 	0.92940 0.24000 0.39280 0.03400
C 	C 	0.30900 0.18656 0.10290 0.09200
C 	C 	0.05340 0.23103 0.53720 -0.13200
H 	H 	0.08830 0.21740 0.53530 0.07800
C 	C 	0.21910 0.25676 0.98240 -0.12400
H 	H 	0.21390 0.26190 0.01850 0.07000
C 	C 	0.74990 0.34417 0.84250 0.05100
H 	H 	0.79440 0.35390 0.85880 0.01700
C 	C 	0.33180 0.38875 0.13990 -0.11500
H 	H 	0.30550 0.37450 0.14980 0.06600
C 	C 	0.91180 0.18378 0.37880 0.09800
C 	C 	0.30980 0.22530 0.06840 -0.02000
H 	H 	0.32480 0.24130 0.07290 0.03400
C 	C 	0.02960 0.28017 0.63680 0.38700
C 	C 	0.62270 0.31425 0.80020 -0.12100
H 	H 	0.58040 0.30320 0.78710 0.06900
C 	C 	0.93740 0.25546 0.50200 -0.12600
H 	H 	0.89410 0.25940 0.47410 0.07300
C 	C 	0.95210 0.27016 0.54720 0.06100
H 	H 	0.91590 0.28340 0.55080 0.01800
Zn	Zn	0.04571 0.04325 0.75236 1.17400
Zn	Zn	0.94595 0.01524 0.84117 1.17200
Zn	Zn	0.87276 0.01639 0.72071 1.19800
Zn	Zn	0.04171 0.98623 0.74482 1.21500
Zn	Zn	0.36546 0.84658 0.27606 1.21100
Zn	Zn	0.45962 0.82120 0.17664 1.17700
Zn	Zn	0.53502 0.81872 0.30069 1.20900
Zn	Zn	0.35872 0.79261 0.26746 1.20800
O 	O 	0.16920 0.03238 0.74126 -0.47000
O 	O 	0.76950 0.01995 0.76077 -0.51400
O 	O 	0.48900 0.54241 0.33068 -0.51200
O 	O 	0.82300 0.01970 0.84796 -0.54100
O 	O 	0.48220 0.53388 0.10533 -0.52100
O 	O 	0.63360 0.53857 0.33961 -0.49200
O 	O 	0.40060 0.85226 0.15335 -0.49300
O 	O 	0.43000 0.81953 0.25436 -0.95500
O 	O 	0.41100 0.55282 0.16737 -0.51200
O 	O 	0.97960 0.01373 0.76826 -0.96200
O 	O 	0.58070 0.83757 0.19480 -0.49300
O 	O 	0.23980 0.80173 0.28684 -0.49000
O 	O 	0.64050 0.81555 0.26298 -0.49200
O 	O 	0.26010 0.83887 0.31239 -0.49800
O 	O 	0.42970 0.86673 0.32945 -0.49000
O 	O 	0.14890 0.99442 0.71679 -0.48800
O 	O 	0.34650 0.80123 0.14886 -0.49600
O 	O 	0.32530 0.86712 0.21785 -0.50100
O 	O 	0.56070 0.84897 0.33790 -0.48900
O 	O 	0.83910 0.98598 0.68512 -0.49700
O 	O 	0.05900 0.96491 0.80812 -0.47600
O 	O 	0.32880 0.77154 0.20677 -0.49000
O 	O 	0.97000 0.96993 0.68715 -0.49500
O 	O 	0.52950 0.79544 0.35600 -0.51800
N 	N 	0.16730 0.99959 0.92895 -0.21000
H 	H 	0.11870 0.00730 0.92100 0.10600
N 	N 	0.23170 0.83012 0.08508 -0.21600
H 	H 	0.28020 0.82300 0.09670 0.13600
O 	O 	0.10890 0.94147 0.74530 -0.29500
N 	N 	0.75300 0.00372 0.55000 -0.20900
H 	H 	0.80390 0.01060 0.55420 0.12600
O 	O 	0.40500 0.77611 0.33080 -0.51900
N 	N 	0.64590 0.83428 0.46480 -0.21000
H 	H 	0.59460 0.82760 0.46050 0.12200
N 	N 	0.17850 0.66797 0.86070 -0.20900
H 	H 	0.15650 0.66890 0.82680 0.11800
C 	C 	0.24410 0.00325 0.90540 0.09100
C 	C 	0.78810 0.84272 0.45620 -0.02000
N 	N 	0.61240 0.66402 0.65100 -0.21200
H 	H 	0.62910 0.66380 0.68580 0.11900
C 	C 	0.76170 0.01840 0.81098 0.39500
C 	C 	0.19340 0.01345 0.72023 0.37800
C 	C 	0.68040 0.00875 0.57840 0.09900
C 	C 	0.28080 0.01309 0.69840 -0.13000
C 	C 	0.30830 0.98799 0.92964 -0.01400
C 	C 	0.50370 0.00765 0.85960 0.06800
C 	C 	0.33180 0.03287 0.69861 0.05300
H 	H 	0.31260 0.04690 0.71430 0.02200
C 	C 	0.41360 0.00508 0.87535 -0.01600
C 	C 	0.17880 0.98170 0.96740 0.08600
C 	C 	0.61120 0.99445 0.55970 -0.02100
C 	C 	0.67320 0.02497 0.62070 -0.11400
H 	H 	0.72010 0.03480 0.63340 0.07900
C 	C 	0.34680 0.01937 0.84990 -0.00900
H 	H 	0.36080 0.02980 0.82200 0.03900
C 	C 	0.13430 0.85255 0.03490 -0.01000
C 	C 	0.88880 0.97006 0.67530 0.40600
C 	C 	0.26590 0.97371 0.96811 -0.01500
C 	C 	0.38840 0.56490 0.07690 -0.14000
C 	C 	0.71760 0.82865 0.43680 0.09800
C 	C 	0.29300 0.95450 -0.00000 -0.05300
H 	H 	0.35010 0.94850 0.99920 0.04900
C 	C 	0.52310 0.01143 0.62540 -0.01800
C 	C 	0.43910 0.01196 0.65280 0.07200
C 	C 	0.54720 0.88658 0.37460 -0.12500
C 	C 	0.60220 0.01340 0.78910 0.06100
H 	H 	0.61130 0.01500 0.75180 0.02400
C 	C 	0.65750 0.01230 0.88260 0.05700
H 	H 	0.70470 0.01330 0.90950 0.02400
C 	C 	0.56080 0.54666 0.35470 0.35800
C 	C 	0.67260 0.01471 0.82780 -0.14300
C 	C 	0.51990 0.00982 0.80440 -0.12700
H 	H 	0.47290 0.00880 0.77730 0.07800
C 	C 	0.64180 0.97909 0.51830 -0.01200
C 	C 	0.09190 0.84351 0.08170 -0.02100
C 	C 	0.39330 0.98925 0.91510 -0.05600
H 	H 	0.43690 0.97940 0.93220 0.04900
C 	C 	0.57500 0.65190 0.56520 -0.01700
C 	C 	0.26250 0.92411 0.06760 0.07600
C 	C 	0.12090 0.97245 0.00080 -0.11300
H 	H 	0.06390 0.97850 0.00170 0.05500
C 	C 	0.75840 0.85797 0.49670 -0.01300
C 	C 	0.86820 0.84087 0.43400 -0.05100
H 	H 	0.91510 0.85060 0.44710 0.04300
C 	C 	0.32040 0.88668 0.13470 -0.15700
C 	C 	0.23420 0.94430 0.03310 -0.01500
C 	C 	0.41080 0.56352 0.02310 0.05400
H 	H 	0.45080 0.55200 0.01300 0.01400
C 	C 	0.43050 0.54959 0.12030 0.39400
C 	C 	0.99000 0.83303 0.14530 -0.02200
C 	C 	0.53170 0.99600 0.58270 -0.05300
H 	H 	0.48400 0.98660 0.56930 0.05000
C 	C 	0.56840 0.56314 0.40140 -0.13900
C 	C 	0.65710 0.94762 0.45520 -0.01100
C 	C 	0.59320 0.02579 0.64259 -0.01300
H 	H 	0.58580 0.03670 0.67080 0.03400
C 	C 	0.61960 0.92659 0.42770 0.06300
C 	C 	0.60700 0.96074 0.48840 -0.05900
H 	H 	0.54760 0.95690 0.49020 0.05200
C 	C 	0.85290 0.94897 0.64630 -0.13500
C 	C 	0.57530 0.00850 0.89800 -0.12500
H 	H 	0.56690 0.00640 0.93530 0.07200
C 	C 	0.41150 0.03236 0.67590 -0.12700
H 	H 	0.44670 0.04600 0.67620 0.07400
C 	C 	0.76660 0.94898 0.62330 0.05400
H 	H 	0.73230 0.96270 0.62560 0.03100
C 	C 	0.78220 0.90940 0.59190 0.06300
C 	C 	0.96340 0.82341 0.36870 0.06900
C 	C 	0.31110 0.99253 0.67650 0.05200
H 	H 	0.27670 0.97880 0.67670 0.03200
C 	C 	0.50020 0.57834 0.40930 0.05300
H 	H 	0.44920 0.57770 0.38520 0.00900
C 	C 	0.01750 0.84296 0.36980 -0.12200
H 	H 	0.99780 0.85730 0.38370 0.06700
C 	C 	0.56520 0.63554 0.52350 -0.05500
H 	H 	0.54320 0.64030 0.48820 0.04800
C 	C 	0.87960 0.82498 0.39310 -0.02300
C 	C 	0.89980 0.83204 0.16280 0.06500
C 	C 	0.73150 0.92958 0.59760 -0.11800
H 	H 	0.67250 0.92970 0.58360 0.07300
C 	C 	0.63520 0.88722 0.39310 0.04800
H 	H 	0.67090 0.87400 0.38840 0.03200
C 	C 	0.14580 0.89175 0.91240 0.06100
C 	C 	0.10520 0.91240 0.92660 -0.11500
H 	H 	0.08960 0.91460 0.96270 0.07000
C 	C 	0.23650 0.92242 0.12080 -0.12900
H 	H 	0.19910 0.93390 0.13400 0.06200
C 	C 	0.15010 0.95361 0.03320 -0.01900
H 	H 	0.11120 0.94680 0.05650 0.03300
C 	C 	0.64290 0.56399 0.43760 0.05600
H 	H 	0.69000 0.55370 0.43310 0.02000
C 	C 	0.39030 0.99181 0.65440 -0.12500
H 	H 	0.41100 0.97760 0.64050 0.07300
C 	C 	0.51030 0.86553 0.34530 0.38200
C 	C 	0.34920 0.86730 0.17030 0.42000
C 	C 	0.53200 0.92548 0.40900 -0.12200
H 	H 	0.49610 0.93860 0.41400 0.07200
C 	C 	0.15670 0.83041 0.11120 0.10400
C 	C 	0.12870 0.82138 0.32810 -0.14700
C 	C 	0.49590 0.90603 0.38350 0.04900
H 	H 	0.43590 0.90580 0.37190 0.02700
C 	C 	0.66920 0.85204 0.50010 0.09600
C 	C 	0.80720 0.81055 0.37530 -0.00700
H 	H 	0.81480 0.79940 0.34760 0.03500
C 	C 	0.64760 0.57976 0.47970 -0.12500
H 	H 	0.69850 0.58030 0.50380 0.07300
C 	C 	0.58760 0.61222 0.53340 -0.01600
C 	C 	0.72910 0.98568 0.51360 0.09400
C 	C 	0.90380 0.92927 0.63980 0.05000
H 	H 	0.96300 0.92930 0.65340 0.03500
C 	C 	0.57910 0.59493 0.48760 0.06800
C 	C 	0.27470 0.84704 0.99810 -0.11000
H 	H 	0.33010 0.83980 0.99910 0.06000
C 	C 	0.27880 0.61368 0.95860 -0.01500
C 	C 	0.72750 0.81195 0.39570 -0.11400
H 	H 	0.68090 0.80210 0.38280 0.07200
C 	C 	0.21900 0.84263 0.03810 0.09900
C 	C 	0.26300 0.01864 0.86400 -0.11400
H 	H 	0.21930 0.02820 0.84640 0.07400
C 	C 	0.08800 0.92947 0.88880 0.04000
H 	H 	0.05970 0.94340 0.89850 0.01700
C 	C 	0.09220 0.94508 0.79280 0.31500
C 	C 	0.50530 0.59426 0.45130 -0.12700
H 	H 	0.45860 0.60470 0.45550 0.06800
C 	C 	0.14010 0.82002 0.16030 -0.11200
H 	H 	0.18450 0.81200 0.18160 0.06500
C 	C 	0.34400 0.88858 0.08140 0.07700
H 	H 	0.37990 0.87690 0.06740 0.01200
C 	C 	0.11200 0.92659 0.83550 -0.10400
C 	C 	0.31590 0.90701 0.04900 -0.13700
H 	H 	0.33360 0.90800 0.01320 0.07800
C 	C 	0.07400 0.80170 0.32660 0.06600
H 	H 	0.09280 0.78750 0.31160 0.01700
C 	C 	0.26530 0.90422 0.15330 0.06700
H 	H 	0.24790 0.90330 0.18920 0.01300
C 	C 	0.86810 0.90939 0.61340 -0.11700
H 	H 	0.90270 0.89580 0.61020 0.07300
C 	C 	0.05810 0.82170 0.17680 -0.01000
H 	H 	0.04640 0.81500 0.21060 0.03600
C 	C 	0.73020 0.82851 0.19760 -0.14000
C 	C 	0.74390 0.88901 0.56100 -0.01000
C 	C 	0.79500 0.87635 0.52790 -0.06000
H 	H 	0.85450 0.88020 0.52640 0.05100
C 	C 	0.00960 0.84476 0.09840 -0.04700
H 	H 	0.96620 0.85360 0.07820 0.04500
C 	C 	0.64410 0.82735 0.21980 0.35900
C 	C 	0.23030 0.67845 0.94560 -0.01800
C 	C 	0.30030 0.76445 0.11350 -0.13100
C 	C 	0.21560 0.82046 0.30810 0.39900
C 	C 	0.61840 0.60558 0.58530 -0.01700
H 	H 	0.63440 0.58970 0.59170 0.04100
C 	C 	0.10040 0.84177 0.35070 0.05700
H 	H 	0.13720 0.85510 0.35330 0.02500
C 	C 	0.32810 0.78005 0.15990 0.35400
C 	C 	0.31280 0.59550 0.99900 0.06700
C 	C 	0.99470 0.80280 0.34640 -0.13300
H 	H 	0.95930 0.78920 0.34500 0.07400
C 	C 	0.16540 0.87350 0.95500 -0.00900
C 	C 	0.74200 0.95514 0.44930 -0.01600
H 	H 	0.77540 0.94700 0.42480 0.03900
C 	C 	0.10970 0.86833 0.99320 -0.06100
H 	H 	0.05410 0.87540 0.99160 0.05300
C 	C 	0.37390 0.57911 0.98480 -0.12900
H 	H 	0.39040 0.57860 0.94870 0.06800
C 	C 	0.27480 0.63647 0.97620 -0.06000
H 	H 	0.29440 0.64030 0.01240 0.04900
C 	C 	0.28710 0.59600 0.05050 -0.12400
H 	H 	0.24360 0.60680 0.05920 0.07000
C 	C 	0.27100 0.74124 0.12360 0.04100
H 	H 	0.26790 0.73590 0.15970 0.02400
C 	C 	0.32380 0.58097 0.09060 0.04900
H 	H 	0.30580 0.58150 0.12640 0.02100
C 	C 	0.83230 0.84595 0.14060 -0.12800
H 	H 	0.84320 0.85690 0.11320 0.06800
C 	C 	0.61940 0.86437 0.53540 -0.10500
H 	H 	0.56040 0.86030 0.53870 0.06600
C 	C 	0.62660 0.62128 0.62850 -0.10900
H 	H 	0.64540 0.61620 0.66400 0.07100
C 	C 	0.24750 0.86227 0.95670 -0.02100
H 	H 	0.28460 0.86530 0.92870 0.03400
C 	C 	0.24210 0.65395 0.94130 -0.01300
C 	C 	0.67020 0.90695 0.41810 -0.11600
H 	H 	0.73040 0.90730 0.42910 0.07000
C 	C 	0.20700 0.64780 0.88760 0.09300
C 	C 	0.77980 0.97427 0.47820 -0.10300
H 	H 	0.83750 0.97910 0.47370 0.07100
C 	C 	0.17250 0.71018 0.88860 -0.10800
H 	H 	0.14860 0.71570 0.85440 0.06400
C 	C 	0.60640 0.64485 0.61780 0.09600
C 	C 	0.53830 0.69346 0.52880 -0.05700
H 	H 	0.52210 0.68910 0.49230 0.05500
C 	C 	0.53690 0.71740 0.54430 -0.01500
C 	C 	0.24640 0.60825 0.90560 -0.01600
H 	H 	0.24860 0.59250 0.89380 0.03300
C 	C 	0.22930 0.71790 0.98130 -0.01500
C 	C 	0.56320 0.67666 0.56660 -0.01200
C 	C 	0.24790 0.69436 0.98910 -0.06000
H 	H 	0.27220 0.68890 0.02320 0.05100
C 	C 	0.21150 0.62496 0.86990 -0.10900
H 	H 	0.19110 0.62080 0.83390 0.06600
C 	C 	0.65780 0.88257 0.56560 -0.01900
H 	H 	0.62470 0.89090 0.59000 0.03500
C 	C 	0.42970 0.74682 0.42000 0.06200
H 	H 	0.38070 0.74430 0.39500 0.02000
C 	C 	0.24750 0.72679 0.08050 -0.11800
H 	H 	0.22850 0.71130 0.08730 0.06200
C 	C 	0.79520 0.81307 0.21620 0.05400
H 	H 	0.78220 0.80130 0.24140 0.02200
C 	C 	0.48120 0.76560 0.41330 -0.14400
C 	C 	0.25090 0.73432 0.02690 0.06100
C 	C 	0.30360 0.77176 0.06080 0.04700
H 	H 	0.32150 0.78730 0.05380 0.01200
C 	C 	0.51370 0.73495 0.50240 0.07100
C 	C 	0.15310 0.90602 0.82210 0.03700
H 	H 	0.17070 0.90390 0.78650 0.02900
C 	C 	0.58980 0.70660 0.63710 -0.11200
H 	H 	0.60610 0.71080 0.67360 0.06600
C 	C 	0.56640 0.72389 0.59770 -0.01700
H 	H 	0.57060 0.74000 0.60720 0.03400
C 	C 	0.19100 0.68656 0.89710 0.09200
C 	C 	0.44660 0.73103 0.46280 -0.12800
H 	H 	0.41170 0.71740 0.46470 0.07700
C 	C 	0.28090 0.75676 0.01760 -0.11900
H 	H 	0.28610 0.76190 0.98150 0.06700
C 	C 	0.75010 0.84417 0.15750 0.05300
H 	H 	0.70560 0.85390 0.14120 0.01700
C 	C 	0.16820 0.88875 0.86010 -0.11400
H 	H 	0.19450 0.87450 0.85020 0.06600
C 	C 	0.58820 0.68378 0.62120 0.09700
C 	C 	0.19020 0.72530 0.93160 -0.02000
H 	H 	0.17520 0.74130 0.92710 0.03400
C 	C 	0.47040 0.78017 0.36320 0.38800
C 	C 	0.87730 0.81425 0.19980 -0.12300
H 	H 	0.91960 0.80320 0.21290 0.07000
C 	C 	0.56260 0.75546 0.49800 -0.12400
H 	H 	0.60590 0.75940 0.52590 0.07200
C 	C 	0.54790 0.77016 0.45280 0.05700
H 	H 	0.58410 0.78340 0.44920 0.01900
