data_crystal

_cell_length_a 32.20600
_cell_length_b 8.80200
_cell_length_c 30.44000
_cell_angle_alpha 90.00000
_cell_angle_beta  108.12000
_cell_angle_gamma 90.00000

_symmetry_space_group_name_	'P 1'
_symmetry_space_group_name_H-M	'P 1'

loop_
_symmetry_equiv_pos_as_xyz
  x,y,z

loop_
_atom_site_label
_atom_site_type_symbol
_atom_site_fract_x
_atom_site_fract_y
_atom_site_fract_z
_atom_site_charge
Cu	Cu	0.62802 0.24769 0.17280 0.81200
Cu	Cu	0.58337 0.37012 0.22886 0.80200
Cu	Cu	0.51164 0.07623 0.31415 0.83000
I 	I 	0.66334 0.43831 0.23391 -0.48000
I 	I 	0.57158 0.24027 0.30051 -0.55200
I 	I 	0.45881 0.22322 0.34967 -0.60500
C 	C 	0.69440 0.51270 0.43690 0.10500
C 	C 	0.67650 0.47500 0.38930 -0.08900
H 	H 	0.66060 0.38810 0.37730 0.07300
C 	C 	0.68670 0.58670 0.36490 -0.08000
H 	H 	0.67850 0.59330 0.33280 0.07000
C 	C 	0.71260 0.69490 0.39710 0.10000
C 	C 	0.72990 0.82680 0.38520 -0.13100
C 	C 	0.71930 0.86100 0.33500 0.08700
C 	C 	0.73740 0.77330 0.30780 -0.09400
H 	H 	0.75640 0.69460 0.32130 0.07200
C 	C 	0.72780 0.80020 0.26180 -0.04200
H 	H 	0.74010 0.73900 0.24420 0.06100
C 	C 	0.70060 0.91500 0.24110 0.05400
C 	C 	0.68060 0.99840 0.26670 -0.02300
H 	H 	0.66060 0.07360 0.25250 -0.00900
C 	C 	0.68990 0.97110 0.31400 -0.10700
H 	H 	0.67610 0.02780 0.33120 0.07100
C 	C 	0.72020 0.87760 0.16900 0.04900
H 	H 	0.74190 0.80460 0.17950 0.02100
C 	C 	0.70680 0.94540 0.12590 -0.11600
H 	H 	0.71750 0.92900 0.10130 0.06900
C 	C 	0.67340 0.04390 0.12780 0.05700
C 	C 	0.65110 0.15130 0.09240 0.00900
C 	C 	0.65130 0.14510 0.04740 0.00900
H 	H 	0.66680 0.06640 0.03940 0.01800
C 	C 	0.61270 0.35000 0.02950 0.01600
H 	H 	0.59910 0.42440 0.00820 0.02600
C 	C 	0.61110 0.36530 0.07350 0.00200
H 	H 	0.59680 0.44810 0.08120 0.01700
C 	C 	0.75690 0.92300 0.41700 0.11000
C 	C 	0.77870 0.05130 0.40460 -0.08800
H 	H 	0.77740 0.08130 0.37490 0.06400
C 	C 	0.80140 0.11930 0.44470 -0.08100
H 	H 	0.81840 0.20630 0.44770 0.05900
C 	C 	0.79440 0.03340 0.48130 0.10000
C 	C 	0.68840 0.42900 0.47260 -0.12600
C 	C 	0.66180 0.28610 0.45920 0.06400
C 	C 	0.61740 0.28820 0.44310 -0.06900
H 	H 	0.60290 0.37850 0.44430 0.05900
C 	C 	0.59340 0.16130 0.42500 -0.07800
H 	H 	0.56300 0.16470 0.41490 0.05900
C 	C 	0.61500 0.02980 0.42210 0.08500
C 	C 	0.65970 0.02370 0.43990 -0.07500
H 	H 	0.67430 0.93270 0.43960 0.04100
C 	C 	0.68280 0.15200 0.45810 -0.07800
H 	H 	0.71310 0.14760 0.47000 0.05400
C 	C 	0.60560 0.75370 0.40420 0.08000
H 	H 	0.63160 0.71750 0.42450 0.00600
C 	C 	0.57470 0.67060 0.37420 -0.13800
H 	H 	0.57460 0.56600 0.36990 0.08400
C 	C 	0.54310 0.77450 0.35100 0.06500
C 	C 	0.50190 0.75190 0.31450 0.01500
C 	C 	0.48380 0.60860 0.30530 -0.00400
H 	H 	0.49990 0.52580 0.32050 0.01100
C 	C 	0.42370 0.70610 0.25430 0.00700
H 	H 	0.39590 0.69460 0.23320 0.02000
C 	C 	0.44190 0.84900 0.26210 -0.00900
H 	H 	0.42640 0.93130 0.24590 -0.00400
N 	N 	0.71740 0.64610 0.44160 -0.24700
N 	N 	0.76760 0.91230 0.46380 -0.24500
N 	N 	0.69430 0.94130 0.19340 -0.09400
N 	N 	0.66700 0.04740 0.16870 -0.17900
N 	N 	0.63000 0.26140 0.10570 -0.20200
N 	N 	0.63170 0.23990 0.01540 -0.12100
N 	N 	0.59220 0.89860 0.39970 -0.10400
N 	N 	0.55340 0.91340 0.36680 -0.16000
N 	N 	0.48160 0.87210 0.29260 -0.21900
N 	N 	0.44460 0.58440 0.27590 -0.20900
Cu	Cu	0.37198 0.24769 0.32720 0.81100
Cu	Cu	0.41663 0.37012 0.27114 0.80100
Cu	Cu	0.48836 0.07623 0.18585 0.82900
I 	I 	0.33666 0.43831 0.26609 -0.48100
I 	I 	0.42842 0.24027 0.19949 -0.55300
I 	I 	0.54119 0.22322 0.15033 -0.60800
C 	C 	0.30560 0.51270 0.06310 0.11100
C 	C 	0.32350 0.47500 0.11070 -0.09400
H 	H 	0.33940 0.38810 0.12270 0.07500
C 	C 	0.31330 0.58670 0.13510 -0.07700
H 	H 	0.32150 0.59330 0.16720 0.06900
C 	C 	0.28740 0.69490 0.10290 0.10000
C 	C 	0.27010 0.82680 0.11480 -0.13300
C 	C 	0.28070 0.86100 0.16500 0.08800
C 	C 	0.26260 0.77330 0.19220 -0.09500
H 	H 	0.24360 0.69460 0.17870 0.07200
C 	C 	0.27220 0.80020 0.23820 -0.04200
H 	H 	0.25990 0.73900 0.25580 0.06100
C 	C 	0.29940 0.91500 0.25890 0.05400
C 	C 	0.31940 0.99840 0.23330 -0.02300
H 	H 	0.33940 0.07360 0.24750 -0.00900
C 	C 	0.31010 0.97110 0.18600 -0.10700
H 	H 	0.32390 0.02780 0.16880 0.07100
C 	C 	0.27980 0.87760 0.33100 0.05000
H 	H 	0.25810 0.80460 0.32050 0.02100
C 	C 	0.29320 0.94540 0.37410 -0.11600
H 	H 	0.28250 0.92900 0.39870 0.07000
C 	C 	0.32660 0.04390 0.37220 0.05700
C 	C 	0.34890 0.15130 0.40760 0.01000
C 	C 	0.34870 0.14510 0.45260 0.00900
H 	H 	0.33320 0.06640 0.46060 0.02100
C 	C 	0.38730 0.35000 0.47050 0.01600
H 	H 	0.40090 0.42440 0.49180 0.03200
C 	C 	0.38890 0.36530 0.42650 0.00400
H 	H 	0.40320 0.44810 0.41880 0.01800
C 	C 	0.24310 0.92300 0.08300 0.11200
C 	C 	0.22130 0.05130 0.09540 -0.09500
H 	H 	0.22260 0.08130 0.12510 0.06600
C 	C 	0.19860 0.11930 0.05530 -0.06800
H 	H 	0.18160 0.20630 0.05230 0.05100
C 	C 	0.20560 0.03340 0.01870 0.07300
C 	C 	0.31160 0.42900 0.02740 -0.15100
C 	C 	0.33820 0.28610 0.04080 0.07100
C 	C 	0.38260 0.28820 0.05690 -0.07700
H 	H 	0.39710 0.37850 0.05570 0.05800
C 	C 	0.40660 0.16130 0.07500 -0.07400
H 	H 	0.43700 0.16470 0.08510 0.05600
C 	C 	0.38500 0.02980 0.07790 0.08000
C 	C 	0.34030 0.02370 0.06010 -0.07200
H 	H 	0.32570 0.93270 0.06040 0.03900
C 	C 	0.31720 0.15200 0.04190 -0.08600
H 	H 	0.28690 0.14760 0.03000 0.05300
C 	C 	0.39440 0.75370 0.09580 0.07900
H 	H 	0.36840 0.71750 0.07550 0.00400
C 	C 	0.42530 0.67060 0.12580 -0.13900
H 	H 	0.42540 0.56600 0.13010 0.08300
C 	C 	0.45690 0.77450 0.14900 0.06400
C 	C 	0.49810 0.75190 0.18550 0.01400
C 	C 	0.51620 0.60860 0.19470 -0.00400
H 	H 	0.50010 0.52580 0.17950 0.01000
C 	C 	0.57630 0.70610 0.24570 0.00700
H 	H 	0.60410 0.69460 0.26680 0.02000
C 	C 	0.55810 0.84900 0.23790 -0.00900
H 	H 	0.57360 0.93130 0.25410 -0.00400
N 	N 	0.28260 0.64610 0.05840 -0.25000
N 	N 	0.23240 0.91230 0.03620 -0.24400
N 	N 	0.30570 0.94130 0.30660 -0.09400
N 	N 	0.33300 0.04740 0.33130 -0.17900
N 	N 	0.37000 0.26140 0.39430 -0.20200
N 	N 	0.36830 0.23990 0.48460 -0.11600
N 	N 	0.40780 0.89860 0.10030 -0.10400
N 	N 	0.44660 0.91340 0.13320 -0.16100
N 	N 	0.51840 0.87210 0.20740 -0.21900
N 	N 	0.55540 0.58440 0.22410 -0.20900
Cu	Cu	0.87198 0.25231 0.82720 0.81100
Cu	Cu	0.91663 0.12988 0.77114 0.80100
Cu	Cu	0.98836 0.42377 0.68585 0.83000
I 	I 	0.83666 0.06169 0.76609 -0.47900
I 	I 	0.92842 0.25973 0.69949 -0.55100
I 	I 	0.04119 0.27678 0.65033 -0.60400
C 	C 	0.80560 0.98730 0.56310 0.10400
C 	C 	0.82350 0.02500 0.61070 -0.08900
H 	H 	0.83940 0.11190 0.62270 0.07300
C 	C 	0.81330 0.91330 0.63510 -0.08000
H 	H 	0.82150 0.90670 0.66720 0.06900
C 	C 	0.78740 0.80510 0.60290 0.10000
C 	C 	0.77010 0.67320 0.61480 -0.13100
C 	C 	0.78070 0.63900 0.66500 0.08800
C 	C 	0.76260 0.72670 0.69220 -0.09400
H 	H 	0.74360 0.80540 0.67870 0.07100
C 	C 	0.77220 0.69980 0.73820 -0.04300
H 	H 	0.75990 0.76100 0.75580 0.06100
C 	C 	0.79940 0.58500 0.75890 0.05600
C 	C 	0.81940 0.50160 0.73330 -0.02800
H 	H 	0.83940 0.42640 0.74750 -0.00500
C 	C 	0.81010 0.52890 0.68600 -0.11200
H 	H 	0.82390 0.47220 0.66880 0.07500
C 	C 	0.77980 0.62240 0.83100 0.05100
H 	H 	0.75810 0.69540 0.82050 0.02000
C 	C 	0.79320 0.55460 0.87410 -0.12000
H 	H 	0.78250 0.57100 0.89870 0.07200
C 	C 	0.82660 0.45610 0.87220 0.06000
C 	C 	0.84890 0.34870 0.90760 0.01000
C 	C 	0.84870 0.35490 0.95260 0.00900
H 	H 	0.83320 0.43360 0.96060 0.02500
C 	C 	0.88730 0.15000 0.97050 0.01600
H 	H 	0.90090 0.07560 0.99180 0.03800
C 	C 	0.88890 0.13470 0.92650 0.00600
H 	H 	0.90320 0.05190 0.91880 0.01900
C 	C 	0.74310 0.57700 0.58300 0.10700
C 	C 	0.72130 0.44870 0.59540 -0.08300
H 	H 	0.72260 0.41870 0.62510 0.06300
C 	C 	0.69860 0.38070 0.55530 -0.08300
H 	H 	0.68160 0.29370 0.55230 0.06000
C 	C 	0.70560 0.46660 0.51870 0.10200
C 	C 	0.81160 0.07100 0.52740 -0.12600
C 	C 	0.83820 0.21390 0.54080 0.06600
C 	C 	0.88260 0.21180 0.55690 -0.07000
H 	H 	0.89710 0.12150 0.55570 0.05900
C 	C 	0.90660 0.33870 0.57500 -0.07700
H 	H 	0.93700 0.33530 0.58510 0.05900
C 	C 	0.88500 0.47020 0.57790 0.08500
C 	C 	0.84030 0.47630 0.56010 -0.06900
H 	H 	0.82570 0.56730 0.56040 0.03800
C 	C 	0.81720 0.34800 0.54190 -0.08200
H 	H 	0.78690 0.35240 0.53000 0.05500
C 	C 	0.89440 0.74630 0.59580 0.08000
H 	H 	0.86840 0.78250 0.57550 0.00600
C 	C 	0.92530 0.82940 0.62580 -0.13800
H 	H 	0.92540 0.93400 0.63010 0.08300
C 	C 	0.95690 0.72550 0.64900 0.06500
C 	C 	0.99810 0.74810 0.68550 0.01400
C 	C 	0.01620 0.89140 0.69470 -0.00300
H 	H 	0.00010 0.97420 0.67950 0.01000
C 	C 	0.07630 0.79390 0.74570 0.00600
H 	H 	0.10410 0.80540 0.76680 0.02000
C 	C 	0.05810 0.65100 0.73790 -0.00900
H 	H 	0.07360 0.56870 0.75410 -0.00600
N 	N 	0.78260 0.85390 0.55840 -0.24700
N 	N 	0.73240 0.58770 0.53620 -0.24600
N 	N 	0.80570 0.55870 0.80660 -0.09600
N 	N 	0.83300 0.45260 0.83130 -0.17800
N 	N 	0.87000 0.23860 0.89430 -0.20200
N 	N 	0.86830 0.26010 0.98460 -0.11100
N 	N 	0.90780 0.60140 0.60030 -0.10500
N 	N 	0.94660 0.58660 0.63320 -0.16200
N 	N 	0.01840 0.62790 0.70740 -0.22000
N 	N 	0.05540 0.91560 0.72410 -0.20900
Cu	Cu	0.12802 0.25231 0.67280 0.81100
Cu	Cu	0.08337 0.12988 0.72886 0.80100
Cu	Cu	0.01164 0.42377 0.81415 0.83000
I 	I 	0.16334 0.06169 0.73391 -0.48000
I 	I 	0.07158 0.25973 0.80051 -0.55100
I 	I 	0.95881 0.27678 0.84967 -0.60200
C 	C 	0.19440 0.98730 0.93690 0.09600
C 	C 	0.17650 0.02500 0.88930 -0.08200
H 	H 	0.16060 0.11190 0.87730 0.07100
C 	C 	0.18670 0.91330 0.86490 -0.08300
H 	H 	0.17850 0.90670 0.83280 0.07100
C 	C 	0.21260 0.80510 0.89710 0.10100
C 	C 	0.22990 0.67320 0.88520 -0.13000
C 	C 	0.21930 0.63900 0.83500 0.08700
C 	C 	0.23740 0.72670 0.80780 -0.09400
H 	H 	0.25640 0.80540 0.82130 0.07100
C 	C 	0.22780 0.69980 0.76180 -0.04400
H 	H 	0.24010 0.76100 0.74420 0.06100
C 	C 	0.20060 0.58500 0.74110 0.05600
C 	C 	0.18060 0.50160 0.76670 -0.02900
H 	H 	0.16060 0.42640 0.75250 -0.00500
C 	C 	0.18990 0.52890 0.81400 -0.11100
H 	H 	0.17610 0.47220 0.83120 0.07500
C 	C 	0.22020 0.62240 0.66900 0.05100
H 	H 	0.24190 0.69540 0.67950 0.02000
C 	C 	0.20680 0.55460 0.62590 -0.12000
H 	H 	0.21750 0.57100 0.60130 0.07100
C 	C 	0.17340 0.45610 0.62780 0.06000
C 	C 	0.15110 0.34870 0.59240 0.00900
C 	C 	0.15130 0.35490 0.54740 0.00900
H 	H 	0.16680 0.43360 0.53940 0.02100
C 	C 	0.11270 0.15000 0.52950 0.01600
H 	H 	0.09910 0.07560 0.50820 0.03200
C 	C 	0.11110 0.13470 0.57350 0.00400
H 	H 	0.09680 0.05190 0.58120 0.01800
C 	C 	0.25690 0.57700 0.91700 0.10400
C 	C 	0.27870 0.44870 0.90460 -0.07600
H 	H 	0.27740 0.41870 0.87490 0.06000
C 	C 	0.30140 0.38070 0.94470 -0.09600
H 	H 	0.31840 0.29370 0.94770 0.06900
C 	C 	0.29440 0.46660 0.98130 0.12800
C 	C 	0.18840 0.07100 0.97260 -0.09800
C 	C 	0.16180 0.21390 0.95920 0.05800
C 	C 	0.11740 0.21180 0.94310 -0.06100
H 	H 	0.10290 0.12150 0.94430 0.05900
C 	C 	0.09340 0.33870 0.92500 -0.08100
H 	H 	0.06300 0.33530 0.91490 0.06200
C 	C 	0.11500 0.47020 0.92210 0.09100
C 	C 	0.15970 0.47630 0.93990 -0.07300
H 	H 	0.17430 0.56730 0.93960 0.04200
C 	C 	0.18280 0.34800 0.95810 -0.07200
H 	H 	0.21310 0.35240 0.97000 0.05600
C 	C 	0.10560 0.74630 0.90420 0.08100
H 	H 	0.13160 0.78250 0.92450 0.00800
C 	C 	0.07470 0.82940 0.87420 -0.13700
H 	H 	0.07460 0.93400 0.86990 0.08400
C 	C 	0.04310 0.72550 0.85100 0.06500
C 	C 	0.00190 0.74810 0.81450 0.01600
C 	C 	0.98380 0.89140 0.80530 -0.00400
H 	H 	0.99990 0.97420 0.82050 0.01100
C 	C 	0.92370 0.79390 0.75430 0.00600
H 	H 	0.89590 0.80540 0.73320 0.02000
C 	C 	0.94190 0.65100 0.76210 -0.00900
H 	H 	0.92640 0.56870 0.74590 -0.00600
N 	N 	0.21740 0.85390 0.94160 -0.24100
N 	N 	0.26760 0.58770 0.96380 -0.24500
N 	N 	0.19430 0.55870 0.69340 -0.09600
N 	N 	0.16700 0.45260 0.66870 -0.17800
N 	N 	0.13000 0.23860 0.60570 -0.20200
N 	N 	0.13170 0.26010 0.51540 -0.11600
N 	N 	0.09220 0.60140 0.89970 -0.10500
N 	N 	0.05340 0.58660 0.86680 -0.16100
N 	N 	0.98160 0.62790 0.79260 -0.22000
N 	N 	0.94460 0.91560 0.77590 -0.20900
Cu	Cu	0.75000 0.75000 0.50000 0.86400
Cu	Cu	0.25000 0.75000 -0.00000 0.85700
Cu	Cu	0.12802 0.74769 0.17280 0.81100
Cu	Cu	0.08337 0.87012 0.22886 0.80200
Cu	Cu	0.01164 0.57623 0.31415 0.83000
I 	I 	0.16334 0.93831 0.23391 -0.48000
I 	I 	0.07158 0.74027 0.30051 -0.55100
I 	I 	0.95881 0.72322 0.34967 -0.60500
C 	C 	0.19440 0.01270 0.43690 0.10400
C 	C 	0.17650 0.97500 0.38930 -0.08800
H 	H 	0.16060 0.88810 0.37730 0.07300
C 	C 	0.18670 0.08670 0.36490 -0.08000
H 	H 	0.17850 0.09330 0.33280 0.07000
C 	C 	0.21260 0.19490 0.39710 0.10000
C 	C 	0.22990 0.32680 0.38520 -0.13100
C 	C 	0.21930 0.36100 0.33500 0.08800
C 	C 	0.23740 0.27330 0.30780 -0.09500
H 	H 	0.25640 0.19460 0.32130 0.07100
C 	C 	0.22780 0.30020 0.26180 -0.04300
H 	H 	0.24010 0.23900 0.24420 0.06100
C 	C 	0.20060 0.41500 0.24110 0.05500
C 	C 	0.18060 0.49840 0.26670 -0.02800
H 	H 	0.16060 0.57360 0.25250 -0.00500
C 	C 	0.18990 0.47110 0.31400 -0.11200
H 	H 	0.17610 0.52780 0.33120 0.07500
C 	C 	0.22020 0.37760 0.16900 0.05000
H 	H 	0.24190 0.30460 0.17950 0.02000
C 	C 	0.20680 0.44540 0.12590 -0.12000
H 	H 	0.21750 0.42900 0.10130 0.07000
C 	C 	0.17340 0.54390 0.12780 0.05900
C 	C 	0.15110 0.65130 0.09240 0.00800
C 	C 	0.15130 0.64510 0.04740 0.00900
H 	H 	0.16680 0.56640 0.03940 0.01700
C 	C 	0.11270 0.85000 0.02950 0.01700
H 	H 	0.09910 0.92440 0.00820 0.02700
C 	C 	0.11110 0.86530 0.07350 0.00200
H 	H 	0.09680 0.94810 0.08120 0.01700
C 	C 	0.25690 0.42300 0.41700 0.10700
C 	C 	0.27870 0.55130 0.40460 -0.08300
H 	H 	0.27740 0.58130 0.37490 0.06300
C 	C 	0.30140 0.61930 0.44470 -0.08300
H 	H 	0.31840 0.70630 0.44770 0.06000
C 	C 	0.29440 0.53340 0.48130 0.10200
C 	C 	0.18840 0.92900 0.47260 -0.12600
C 	C 	0.16180 0.78610 0.45920 0.06600
C 	C 	0.11740 0.78820 0.44310 -0.07000
H 	H 	0.10290 0.87850 0.44430 0.05900
C 	C 	0.09340 0.66130 0.42500 -0.07700
H 	H 	0.06300 0.66470 0.41490 0.05900
C 	C 	0.11500 0.52980 0.42210 0.08500
C 	C 	0.15970 0.52370 0.43990 -0.06900
H 	H 	0.17430 0.43270 0.43960 0.03800
C 	C 	0.18280 0.65200 0.45810 -0.08200
H 	H 	0.21310 0.64760 0.47000 0.05500
C 	C 	0.10560 0.25370 0.40420 0.08000
H 	H 	0.13160 0.21750 0.42450 0.00600
C 	C 	0.07470 0.17060 0.37420 -0.13800
H 	H 	0.07460 0.06600 0.36990 0.08300
C 	C 	0.04310 0.27450 0.35100 0.06400
C 	C 	0.00190 0.25190 0.31450 0.01600
C 	C 	0.98380 0.10860 0.30530 -0.00500
H 	H 	0.99990 0.02580 0.32050 0.01000
C 	C 	0.92370 0.20610 0.25430 0.00600
H 	H 	0.89590 0.19460 0.23320 0.02000
C 	C 	0.94190 0.34900 0.26210 -0.00900
H 	H 	0.92640 0.43130 0.24590 -0.00600
N 	N 	0.21740 0.14610 0.44160 -0.24700
N 	N 	0.26760 0.41230 0.46380 -0.24600
N 	N 	0.19430 0.44130 0.19340 -0.09600
N 	N 	0.16700 0.54740 0.16870 -0.17800
N 	N 	0.13000 0.76140 0.10570 -0.20200
N 	N 	0.13170 0.73990 0.01540 -0.12100
N 	N 	0.09220 0.39860 0.39970 -0.10500
N 	N 	0.05340 0.41340 0.36680 -0.16100
N 	N 	0.98160 0.37210 0.29260 -0.22000
N 	N 	0.94460 0.08440 0.27590 -0.20900
Cu	Cu	0.87198 0.74769 0.32720 0.81100
Cu	Cu	0.91663 0.87012 0.27114 0.80200
Cu	Cu	0.98836 0.57623 0.18585 0.83000
I 	I 	0.83666 0.93831 0.26609 -0.47900
I 	I 	0.92842 0.74027 0.19949 -0.55100
I 	I 	0.04119 0.72322 0.15033 -0.60600
C 	C 	0.80560 0.01270 0.06310 0.11000
C 	C 	0.82350 0.97500 0.11070 -0.09200
H 	H 	0.83940 0.88810 0.12270 0.07500
C 	C 	0.81330 0.08670 0.13510 -0.07900
H 	H 	0.82150 0.09330 0.16720 0.06900
C 	C 	0.78740 0.19490 0.10290 0.10000
C 	C 	0.77010 0.32680 0.11480 -0.13300
C 	C 	0.78070 0.36100 0.16500 0.08900
C 	C 	0.76260 0.27330 0.19220 -0.09500
H 	H 	0.74360 0.19460 0.17870 0.07200
C 	C 	0.77220 0.30020 0.23820 -0.04300
H 	H 	0.75990 0.23900 0.25580 0.06100
C 	C 	0.79940 0.41500 0.25890 0.05500
C 	C 	0.81940 0.49840 0.23330 -0.02800
H 	H 	0.83940 0.57360 0.24750 -0.00500
C 	C 	0.81010 0.47110 0.18600 -0.11200
H 	H 	0.82390 0.52780 0.16880 0.07500
C 	C 	0.77980 0.37760 0.33100 0.05100
H 	H 	0.75810 0.30460 0.32050 0.02000
C 	C 	0.79320 0.44540 0.37410 -0.12000
H 	H 	0.78250 0.42900 0.39870 0.07100
C 	C 	0.82660 0.54390 0.37220 0.06000
C 	C 	0.84890 0.65130 0.40760 0.00900
C 	C 	0.84870 0.64510 0.45260 0.00900
H 	H 	0.83320 0.56640 0.46060 0.02100
C 	C 	0.88730 0.85000 0.47050 0.01600
H 	H 	0.90090 0.92440 0.49180 0.03200
C 	C 	0.88890 0.86530 0.42650 0.00400
H 	H 	0.90320 0.94810 0.41880 0.01800
C 	C 	0.74310 0.42300 0.08300 0.10900
C 	C 	0.72130 0.55130 0.09540 -0.09000
H 	H 	0.72260 0.58130 0.12510 0.06500
C 	C 	0.69860 0.61930 0.05530 -0.07000
H 	H 	0.68160 0.70630 0.05230 0.05300
C 	C 	0.70560 0.53340 0.01870 0.07600
C 	C 	0.81160 0.92900 0.02740 -0.15000
C 	C 	0.83820 0.78610 0.04080 0.07200
C 	C 	0.88260 0.78820 0.05690 -0.07800
H 	H 	0.89710 0.87850 0.05570 0.05900
C 	C 	0.90660 0.66130 0.07500 -0.07300
H 	H 	0.93700 0.66470 0.08510 0.05600
C 	C 	0.88500 0.52980 0.07790 0.08000
C 	C 	0.84030 0.52370 0.06010 -0.06600
H 	H 	0.82570 0.43270 0.06040 0.03500
C 	C 	0.81720 0.65200 0.04190 -0.09000
H 	H 	0.78690 0.64760 0.03000 0.05400
C 	C 	0.89440 0.25370 0.09580 0.07900
H 	H 	0.86840 0.21750 0.07550 0.00400
C 	C 	0.92530 0.17060 0.12580 -0.13900
H 	H 	0.92540 0.06600 0.13010 0.08300
C 	C 	0.95690 0.27450 0.14900 0.06400
C 	C 	0.99810 0.25190 0.18550 0.01300
C 	C 	0.01620 0.10860 0.19470 -0.00300
H 	H 	0.00010 0.02580 0.17950 0.01000
C 	C 	0.07630 0.20610 0.24570 0.00600
H 	H 	0.10410 0.19460 0.26680 0.02000
C 	C 	0.05810 0.34900 0.23790 -0.00900
H 	H 	0.07360 0.43130 0.25410 -0.00600
N 	N 	0.78260 0.14610 0.05840 -0.25000
N 	N 	0.73240 0.41230 0.03620 -0.24500
N 	N 	0.80570 0.44130 0.30660 -0.09600
N 	N 	0.83300 0.54740 0.33130 -0.17800
N 	N 	0.87000 0.76140 0.39430 -0.20200
N 	N 	0.86830 0.73990 0.48460 -0.11600
N 	N 	0.90780 0.39860 0.10030 -0.10500
N 	N 	0.94660 0.41340 0.13320 -0.16200
N 	N 	0.01840 0.37210 0.20740 -0.21900
N 	N 	0.05540 0.08440 0.22410 -0.20900
Cu	Cu	0.37198 0.75231 0.82720 0.81100
Cu	Cu	0.41663 0.62988 0.77114 0.80100
Cu	Cu	0.48836 0.92377 0.68585 0.82900
I 	I 	0.33666 0.56169 0.76609 -0.48100
I 	I 	0.42842 0.75973 0.69949 -0.55300
I 	I 	0.54119 0.77678 0.65033 -0.60600
C 	C 	0.30560 0.48730 0.56310 0.10400
C 	C 	0.32350 0.52500 0.61070 -0.08900
H 	H 	0.33940 0.61190 0.62270 0.07300
C 	C 	0.31330 0.41330 0.63510 -0.08000
H 	H 	0.32150 0.40670 0.66720 0.07000
C 	C 	0.28740 0.30510 0.60290 0.10000
C 	C 	0.27010 0.17320 0.61480 -0.13100
C 	C 	0.28070 0.13900 0.66500 0.08700
C 	C 	0.26260 0.22670 0.69220 -0.09400
H 	H 	0.24360 0.30540 0.67870 0.07200
C 	C 	0.27220 0.19980 0.73820 -0.04300
H 	H 	0.25990 0.26100 0.75580 0.06200
C 	C 	0.29940 0.08500 0.75890 0.05400
C 	C 	0.31940 0.00160 0.73330 -0.02300
H 	H 	0.33940 0.92640 0.74750 -0.00900
C 	C 	0.31010 0.02890 0.68600 -0.10700
H 	H 	0.32390 0.97220 0.66880 0.07100
C 	C 	0.27980 0.12240 0.83100 0.05000
H 	H 	0.25810 0.19540 0.82050 0.02100
C 	C 	0.29320 0.05460 0.87410 -0.11700
H 	H 	0.28250 0.07100 0.89870 0.07100
C 	C 	0.32660 0.95610 0.87220 0.05800
C 	C 	0.34890 0.84870 0.90760 0.01100
C 	C 	0.34870 0.85490 0.95260 0.00900
H 	H 	0.33320 0.93360 0.96060 0.02500
C 	C 	0.38730 0.65000 0.97050 0.01600
H 	H 	0.40090 0.57560 0.99180 0.03800
C 	C 	0.38890 0.63470 0.92650 0.00600
H 	H 	0.40320 0.55190 0.91880 0.01900
C 	C 	0.24310 0.07700 0.58300 0.11000
C 	C 	0.22130 0.94870 0.59540 -0.08700
H 	H 	0.22260 0.91870 0.62510 0.06400
C 	C 	0.19860 0.88070 0.55530 -0.08100
H 	H 	0.18160 0.79370 0.55230 0.06000
C 	C 	0.20560 0.96660 0.51870 0.10000
C 	C 	0.31160 0.57100 0.52740 -0.12600
C 	C 	0.33820 0.71390 0.54080 0.06400
C 	C 	0.38260 0.71180 0.55690 -0.06900
H 	H 	0.39710 0.62150 0.55570 0.05900
C 	C 	0.40660 0.83870 0.57500 -0.07800
H 	H 	0.43700 0.83530 0.58510 0.05900
C 	C 	0.38500 0.97020 0.57790 0.08500
C 	C 	0.34030 0.97630 0.56010 -0.07500
H 	H 	0.32570 0.06730 0.56040 0.04100
C 	C 	0.31720 0.84800 0.54190 -0.07800
H 	H 	0.28690 0.85240 0.53000 0.05400
C 	C 	0.39440 0.24630 0.59580 0.08000
H 	H 	0.36840 0.28250 0.57550 0.00600
C 	C 	0.42530 0.32940 0.62580 -0.13800
H 	H 	0.42540 0.43400 0.63010 0.08400
C 	C 	0.45690 0.22550 0.64900 0.06500
C 	C 	0.49810 0.24810 0.68550 0.01500
C 	C 	0.51620 0.39140 0.69470 -0.00400
H 	H 	0.50010 0.47420 0.67950 0.01100
C 	C 	0.57630 0.29390 0.74570 0.00700
H 	H 	0.60410 0.30540 0.76680 0.02000
C 	C 	0.55810 0.15100 0.73790 -0.00900
H 	H 	0.57360 0.06870 0.75410 -0.00400
N 	N 	0.28260 0.35390 0.55840 -0.24700
N 	N 	0.23240 0.08770 0.53620 -0.24500
N 	N 	0.30570 0.05870 0.80660 -0.09400
N 	N 	0.33300 0.95260 0.83130 -0.17900
N 	N 	0.37000 0.73860 0.89430 -0.20200
N 	N 	0.36830 0.76010 0.98460 -0.11100
N 	N 	0.40780 0.10140 0.60030 -0.10400
N 	N 	0.44660 0.08660 0.63320 -0.16000
N 	N 	0.51840 0.12790 0.70740 -0.21900
N 	N 	0.55540 0.41560 0.72410 -0.20900
Cu	Cu	0.62802 0.75231 0.67280 0.81100
Cu	Cu	0.58337 0.62988 0.72886 0.80100
Cu	Cu	0.51164 0.92377 0.81415 0.82900
I 	I 	0.66334 0.56169 0.73391 -0.48100
I 	I 	0.57158 0.75973 0.80051 -0.55300
I 	I 	0.45881 0.77678 0.84967 -0.60300
C 	C 	0.69440 0.48730 0.93690 0.09600
C 	C 	0.67650 0.52500 0.88930 -0.08300
H 	H 	0.66060 0.61190 0.87730 0.07100
C 	C 	0.68670 0.41330 0.86490 -0.08200
H 	H 	0.67850 0.40670 0.83280 0.07100
C 	C 	0.71260 0.30510 0.89710 0.10100
C 	C 	0.72990 0.17320 0.88520 -0.13000
C 	C 	0.71930 0.13900 0.83500 0.08600
C 	C 	0.73740 0.22670 0.80780 -0.09300
H 	H 	0.75640 0.30540 0.82130 0.07100
C 	C 	0.72780 0.19980 0.76180 -0.04300
H 	H 	0.74010 0.26100 0.74420 0.06200
C 	C 	0.70060 0.08500 0.74110 0.05500
C 	C 	0.68060 0.00160 0.76670 -0.02400
H 	H 	0.66060 0.92640 0.75250 -0.00900
C 	C 	0.68990 0.02890 0.81400 -0.10600
H 	H 	0.67610 0.97220 0.83120 0.07100
C 	C 	0.72020 0.12240 0.66900 0.05000
H 	H 	0.74190 0.19540 0.67950 0.02100
C 	C 	0.70680 0.05460 0.62590 -0.11700
H 	H 	0.71750 0.07100 0.60130 0.07000
C 	C 	0.67340 0.95610 0.62780 0.05700
C 	C 	0.65110 0.84870 0.59240 0.01000
C 	C 	0.65130 0.85490 0.54740 0.00900
H 	H 	0.66680 0.93360 0.53940 0.02100
C 	C 	0.61270 0.65000 0.52950 0.01600
H 	H 	0.59910 0.57560 0.50820 0.03200
C 	C 	0.61110 0.63470 0.57350 0.00400
H 	H 	0.59680 0.55190 0.58120 0.01800
C 	C 	0.75690 0.07700 0.91700 0.10800
C 	C 	0.77870 0.94870 0.90460 -0.08100
H 	H 	0.77740 0.91870 0.87490 0.06100
C 	C 	0.80140 0.88070 0.94470 -0.09300
H 	H 	0.81840 0.79370 0.94770 0.06700
C 	C 	0.79440 0.96660 0.98130 0.12400
C 	C 	0.68840 0.57100 0.97260 -0.09900
C 	C 	0.66180 0.71390 0.95920 0.05700
C 	C 	0.61740 0.71180 0.94310 -0.05900
H 	H 	0.60290 0.62150 0.94430 0.05900
C 	C 	0.59340 0.83870 0.92500 -0.08200
H 	H 	0.56300 0.83530 0.91490 0.06200
C 	C 	0.61500 0.97020 0.92210 0.09100
C 	C 	0.65970 0.97630 0.93990 -0.07900
H 	H 	0.67430 0.06730 0.93960 0.04500
C 	C 	0.68280 0.84800 0.95810 -0.06900
H 	H 	0.71310 0.85240 0.97000 0.05400
C 	C 	0.60560 0.24630 0.90420 0.08200
H 	H 	0.63160 0.28250 0.92450 0.00800
C 	C 	0.57470 0.32940 0.87420 -0.13700
H 	H 	0.57460 0.43400 0.86990 0.08400
C 	C 	0.54310 0.22550 0.85100 0.06500
C 	C 	0.50190 0.24810 0.81450 0.01500
C 	C 	0.48380 0.39140 0.80530 -0.00400
H 	H 	0.49990 0.47420 0.82050 0.01100
C 	C 	0.42370 0.29390 0.75430 0.00700
H 	H 	0.39590 0.30540 0.73320 0.02000
C 	C 	0.44190 0.15100 0.76210 -0.00900
H 	H 	0.42640 0.06870 0.74590 -0.00400
N 	N 	0.71740 0.35390 0.94160 -0.24100
N 	N 	0.76760 0.08770 0.96380 -0.24400
N 	N 	0.69430 0.05870 0.69340 -0.09400
N 	N 	0.66700 0.95260 0.66870 -0.17900
N 	N 	0.63000 0.73860 0.60570 -0.20200
N 	N 	0.63170 0.76010 0.51540 -0.11600
N 	N 	0.59220 0.10140 0.89970 -0.10400
N 	N 	0.55340 0.08660 0.86680 -0.16000
N 	N 	0.48160 0.12790 0.79260 -0.21900
N 	N 	0.44460 0.41560 0.77590 -0.20900
Cu	Cu	0.25000 0.25000 0.50000 0.86400
Cu	Cu	0.75000 0.25000 -0.00000 0.85700
