data_crystal

_cell_length_a 37.41900
_cell_length_b 37.41900
_cell_length_c 10.74710
_cell_angle_alpha 90.00000
_cell_angle_beta  90.00000
_cell_angle_gamma 120.00000

_symmetry_space_group_name_	'P 1'
_symmetry_space_group_name_H-M	'P 1'

loop_
_symmetry_equiv_pos_as_xyz
  x,y,z

loop_
_atom_site_label
_atom_site_type_symbol
_atom_site_fract_x
_atom_site_fract_y
_atom_site_fract_z
_atom_site_charge
N 	N 	0.44342 0.98463 0.41400 -0.28500
N 	N 	0.49606 0.04506 0.60490 -0.29200
C 	C 	0.41283 0.89847 0.17670 -0.01100
C 	C 	0.43047 0.03618 0.51740 -0.10300
C 	C 	0.42480 0.95521 0.32200 0.06000
C 	C 	0.52524 0.07125 0.68850 0.05500
C 	C 	0.42061 0.00348 0.43410 0.05800
C 	C 	0.40196 0.05322 0.52630 -0.00800
C 	C 	0.51244 0.09962 0.73170 -0.07600
H 	H 	0.52690 0.12130 0.78990 0.04600
C 	C 	0.43881 0.92919 0.27440 -0.10500
C 	C 	0.47655 0.09021 0.67560 -0.08400
H 	H 	0.46120 0.10390 0.68730 0.05700
C 	C 	0.37561 0.04413 0.62640 0.01400
H 	H 	0.37370 0.02480 0.68690 0.02300
C 	C 	0.38798 0.95576 0.28460 -0.07700
H 	H 	0.36880 0.93850 0.22320 0.05300
C 	C 	0.37924 0.09929 0.45210 -0.19300
H 	H 	0.38050 0.11810 0.39060 0.06400
C 	C 	0.40281 0.08074 0.43780 0.01100
H 	H 	0.41990 0.08680 0.36650 0.01500
C 	C 	0.38551 0.98497 0.35190 -0.06800
H 	H 	0.36440 0.99200 0.34600 0.05300
C 	C 	0.32935 0.11256 0.57310 -0.58000
H 	H 	0.30030 0.09350 0.55380 0.18900
H 	H 	0.34000 0.13660 0.51800 0.16800
H 	H 	0.33190 0.12160 0.65990 0.18000
C 	C 	0.35369 0.09110 0.55460 0.23300
C 	C 	0.35196 0.06278 0.63990 -0.20100
H 	H 	0.33410 0.05590 0.70970 0.09100
C 	C 	0.46564 0.05557 0.59470 0.06400
C 	C 	0.36696 0.84039 0.99260 0.22300
C 	C 	0.42462 0.90503 0.05280 0.01900
H 	H 	0.44890 0.92970 0.02950 0.00800
C 	C 	0.35478 0.83313 0.11640 -0.19500
H 	H 	0.33070 0.80820 0.13920 0.08300
C 	C 	0.37754 0.86215 0.20760 0.01100
H 	H 	0.36870 0.85690 0.29180 0.01600
C 	C 	0.40160 0.87637 0.96240 -0.20300
H 	H 	0.41020 0.88190 0.87800 0.08100
C 	C 	0.34120 0.80910 0.89270 -0.55900
H 	H 	0.32910 0.82110 0.83750 0.17500
H 	H 	0.31900 0.78430 0.93220 0.17300
H 	H 	0.35880 0.80180 0.84410 0.16900
N 	N 	0.55658 0.01537 0.58600 -0.29100
N 	N 	0.50394 0.95494 0.39510 -0.29000
C 	C 	0.58717 0.10153 0.82330 -0.01100
C 	C 	0.56953 0.96382 0.48260 -0.10900
C 	C 	0.57520 0.04479 0.67800 0.05700
C 	C 	0.47476 0.92875 0.31150 0.05800
C 	C 	0.57939 0.99652 0.56590 0.08000
C 	C 	0.59804 0.94678 0.47370 -0.00100
C 	C 	0.48756 0.90038 0.26830 -0.07400
H 	H 	0.47310 0.87870 0.21010 0.04700
C 	C 	0.56119 0.07081 0.72560 -0.10400
C 	C 	0.52345 0.90979 0.32440 -0.08400
H 	H 	0.53880 0.89610 0.31270 0.05900
C 	C 	0.62439 0.95587 0.37360 0.01200
H 	H 	0.62630 0.97520 0.31310 0.02800
C 	C 	0.61202 0.04424 0.71540 -0.06800
H 	H 	0.63120 0.06150 0.77680 0.05100
C 	C 	0.62076 0.90071 0.54790 -0.18900
H 	H 	0.61950 0.88190 0.60940 0.06500
C 	C 	0.59719 0.91926 0.56220 0.00800
H 	H 	0.58010 0.91320 0.63350 0.01700
C 	C 	0.61449 0.01503 0.64810 -0.08700
H 	H 	0.63560 0.00800 0.65400 0.05600
C 	C 	0.67065 0.88744 0.42690 -0.57900
H 	H 	0.69970 0.90650 0.44620 0.19000
H 	H 	0.66000 0.86340 0.48200 0.16800
H 	H 	0.66810 0.87840 0.34010 0.18000
C 	C 	0.64631 0.90890 0.44540 0.23200
C 	C 	0.64804 0.93722 0.36010 -0.19800
H 	H 	0.66590 0.94410 0.29030 0.09200
C 	C 	0.53436 0.94443 0.40530 0.06900
C 	C 	0.63304 0.15961 0.00740 0.22300
C 	C 	0.57538 0.09497 0.94720 0.01900
H 	H 	0.55110 0.07030 0.97050 0.00600
C 	C 	0.64522 0.16687 0.88360 -0.19500
H 	H 	0.66930 0.19180 0.86080 0.08300
C 	C 	0.62246 0.13785 0.79240 0.01200
H 	H 	0.63130 0.14310 0.70820 0.01600
C 	C 	0.59840 0.12363 0.03760 -0.20400
H 	H 	0.58980 0.11810 0.12200 0.08100
C 	C 	0.65880 0.19090 0.10730 -0.55900
H 	H 	0.67090 0.17890 0.16250 0.17500
H 	H 	0.68100 0.21570 0.06780 0.17300
H 	H 	0.64120 0.19820 0.15590 0.16900
Sn	Sn	0.50000 0.00000 0.50000 1.24400
N 	N 	0.11009 0.31796 0.74733 -0.28800
N 	N 	0.16273 0.37839 0.93823 -0.29100
C 	C 	0.07950 0.23180 0.51003 -0.02200
C 	C 	0.09714 0.36951 0.85073 -0.10800
C 	C 	0.09147 0.28854 0.65533 0.05700
C 	C 	0.19191 0.40458 0.02183 0.05800
C 	C 	0.08728 0.33681 0.76743 0.07100
C 	C 	0.06863 0.38655 0.85963 0.00300
C 	C 	0.17911 0.43295 0.06503 -0.07400
H 	H 	0.19357 0.45463 0.12323 0.04700
C 	C 	0.10548 0.26252 0.60773 -0.10000
C 	C 	0.14322 0.42354 0.00893 -0.08300
H 	H 	0.12787 0.43723 0.02063 0.05900
C 	C 	0.04228 0.37746 0.95973 0.00200
H 	H 	0.04037 0.35813 0.02023 0.02900
C 	C 	0.05465 0.28909 0.61793 -0.07100
H 	H 	0.03547 0.27183 0.55653 0.05100
C 	C 	0.04591 0.43262 0.78543 -0.17600
H 	H 	0.04717 0.45143 0.72393 0.05900
C 	C 	0.06948 0.41407 0.77113 -0.00100
H 	H 	0.08657 0.42013 0.69983 0.02000
C 	C 	0.05218 0.31830 0.68523 -0.07900
H 	H 	0.03107 0.32533 0.67933 0.05400
C 	C 	0.99602 0.44589 0.90643 -0.53900
H 	H 	0.96697 0.42683 0.88713 0.17900
H 	H 	0.00667 0.46993 0.85133 0.15300
H 	H 	0.99857 0.45493 0.99323 0.17100
C 	C 	0.02036 0.42443 0.88793 0.21000
C 	C 	0.01863 0.39611 0.97323 -0.18500
H 	H 	0.00077 0.38923 0.04303 0.08500
C 	C 	0.13231 0.38890 0.92803 0.06700
C 	C 	0.03363 0.17372 0.32593 0.24700
C 	C 	0.09129 0.23836 0.38613 0.03100
H 	H 	0.11557 0.26303 0.36283 0.00300
C 	C 	0.02145 0.16646 0.44973 -0.22300
H 	H 	0.99737 0.14153 0.47253 0.09500
C 	C 	0.04421 0.19548 0.54093 0.02800
H 	H 	0.03537 0.19023 0.62513 0.00900
C 	C 	0.06827 0.20970 0.29573 -0.22100
H 	H 	0.07687 0.21523 0.21133 0.08600
C 	C 	0.00787 0.14243 0.22603 -0.60600
H 	H 	0.99577 0.15443 0.17083 0.19100
H 	H 	0.98567 0.11763 0.26553 0.18900
H 	H 	0.02547 0.13513 0.17743 0.18100
N 	N 	0.22325 0.34870 0.91933 -0.28800
N 	N 	0.17061 0.28827 0.72843 -0.29000
C 	C 	0.25384 0.43486 0.15663 -0.01100
C 	C 	0.23620 0.29715 0.81593 -0.10600
C 	C 	0.24187 0.37812 0.01133 0.05900
C 	C 	0.14143 0.26208 0.64483 0.05500
C 	C 	0.24606 0.32985 0.89923 0.07000
C 	C 	0.26471 0.28011 0.80703 -0.00400
C 	C 	0.15423 0.23371 0.60163 -0.07300
H 	H 	0.13977 0.21203 0.54343 0.04600
C 	C 	0.22786 0.40414 0.05893 -0.10400
C 	C 	0.19012 0.24312 0.65773 -0.08400
H 	H 	0.20547 0.22943 0.64603 0.05900
C 	C 	0.29106 0.28920 0.70693 0.01400
H 	H 	0.29297 0.30853 0.64643 0.02600
C 	C 	0.27869 0.37757 0.04873 -0.07200
H 	H 	0.29787 0.39483 0.11013 0.05300
C 	C 	0.28743 0.23404 0.88123 -0.19000
H 	H 	0.28617 0.21523 0.94273 0.06500
C 	C 	0.26386 0.25259 0.89553 0.01000
H 	H 	0.24677 0.24653 0.96683 0.01600
C 	C 	0.28116 0.34836 0.98143 -0.07800
H 	H 	0.30227 0.34133 0.98733 0.05500
C 	C 	0.33732 0.22077 0.76023 -0.57900
H 	H 	0.36637 0.23983 0.77953 0.19000
H 	H 	0.32667 0.19673 0.81533 0.16800
H 	H 	0.33477 0.21173 0.67343 0.18000
C 	C 	0.31298 0.24223 0.77873 0.23300
C 	C 	0.31471 0.27055 0.69343 -0.19900
H 	H 	0.33257 0.27743 0.62363 0.09100
C 	C 	0.20103 0.27776 0.73863 0.06700
C 	C 	0.29971 0.49294 0.34073 0.22400
C 	C 	0.24205 0.42830 0.28053 0.01800
H 	H 	0.21777 0.40363 0.30383 0.00700
C 	C 	0.31189 0.50020 0.21693 -0.19700
H 	H 	0.33597 0.52513 0.19413 0.08300
C 	C 	0.28913 0.47118 0.12573 0.01200
H 	H 	0.29797 0.47643 0.04153 0.01600
C 	C 	0.26507 0.45696 0.37093 -0.20300
H 	H 	0.25647 0.45143 0.45533 0.08100
C 	C 	0.32547 0.52423 0.44063 -0.56000
H 	H 	0.33757 0.51223 0.49583 0.17600
H 	H 	0.34767 0.54903 0.40113 0.17400
H 	H 	0.30787 0.53153 0.48923 0.17000
Sn	Sn	0.16667 0.33333 0.83333 1.24600
N 	N 	0.77675 0.65130 0.08067 -0.28800
N 	N 	0.82939 0.71173 0.27157 -0.29100
C 	C 	0.74616 0.56514 0.84337 -0.01100
C 	C 	0.76380 0.70285 0.18407 -0.10500
C 	C 	0.75813 0.62188 0.98867 0.05900
C 	C 	0.85857 0.73792 0.35517 0.05900
C 	C 	0.75394 0.67015 0.10077 0.07000
C 	C 	0.73529 0.71989 0.19297 -0.00400
C 	C 	0.84577 0.76629 0.39837 -0.07500
H 	H 	0.86023 0.78797 0.45657 0.04700
C 	C 	0.77214 0.59586 0.94107 -0.10400
C 	C 	0.80988 0.75688 0.34227 -0.08300
H 	H 	0.79453 0.77057 0.35397 0.05800
C 	C 	0.70894 0.71080 0.29307 0.01400
H 	H 	0.70703 0.69147 0.35357 0.02600
C 	C 	0.72131 0.62243 0.95127 -0.07200
H 	H 	0.70213 0.60517 0.88987 0.05300
C 	C 	0.71257 0.76596 0.11877 -0.19000
H 	H 	0.71383 0.78477 0.05727 0.06500
C 	C 	0.73614 0.74741 0.10447 0.01000
H 	H 	0.75323 0.75347 0.03317 0.01600
C 	C 	0.71884 0.65164 0.01857 -0.07800
H 	H 	0.69773 0.65867 0.01267 0.05500
C 	C 	0.66268 0.77923 0.23977 -0.58000
H 	H 	0.63363 0.76017 0.22047 0.19000
H 	H 	0.67333 0.80327 0.18467 0.16800
H 	H 	0.66523 0.78827 0.32657 0.18000
C 	C 	0.68702 0.75777 0.22127 0.23300
C 	C 	0.68529 0.72945 0.30657 -0.20000
H 	H 	0.66743 0.72257 0.37637 0.09200
C 	C 	0.79897 0.72224 0.26137 0.06600
C 	C 	0.70029 0.50706 0.65927 0.22400
C 	C 	0.75795 0.57170 0.71947 0.01800
H 	H 	0.78223 0.59637 0.69617 0.00700
C 	C 	0.68811 0.49980 0.78307 -0.19700
H 	H 	0.66403 0.47487 0.80587 0.08300
C 	C 	0.71087 0.52882 0.87427 0.01200
H 	H 	0.70203 0.52357 0.95847 0.01600
C 	C 	0.73493 0.54304 0.62907 -0.20300
H 	H 	0.74353 0.54857 0.54467 0.08100
C 	C 	0.67453 0.47577 0.55937 -0.56000
H 	H 	0.66243 0.48777 0.50417 0.17600
H 	H 	0.65233 0.45097 0.59887 0.17400
H 	H 	0.69213 0.46847 0.51077 0.17000
N 	N 	0.88991 0.68204 0.25267 -0.28800
N 	N 	0.83727 0.62161 0.06177 -0.29100
C 	C 	0.92050 0.76820 0.48997 0.00000
C 	C 	0.90286 0.63049 0.14927 -0.10300
C 	C 	0.90853 0.71146 0.34467 0.06100
C 	C 	0.80809 0.59542 0.97817 0.05700
C 	C 	0.91272 0.66319 0.23257 0.06900
C 	C 	0.93137 0.61345 0.14037 -0.01100
C 	C 	0.82089 0.56705 0.93497 -0.07500
H 	H 	0.80643 0.54537 0.87677 0.04700
C 	C 	0.89452 0.73748 0.39227 -0.10800
C 	C 	0.85678 0.57646 0.99107 -0.08200
H 	H 	0.87213 0.56277 0.97937 0.05800
C 	C 	0.95772 0.62254 0.04027 0.02300
H 	H 	0.95963 0.64187 0.97977 0.02300
C 	C 	0.94535 0.71091 0.38207 -0.07300
H 	H 	0.96453 0.72817 0.44347 0.05400
C 	C 	0.95409 0.56738 0.21457 -0.20400
H 	H 	0.95283 0.54857 0.27607 0.07000
C 	C 	0.93052 0.58593 0.22887 0.02000
H 	H 	0.91343 0.57987 0.30017 0.01300
C 	C 	0.94782 0.68170 0.31477 -0.07600
H 	H 	0.96893 0.67467 0.32067 0.05500
C 	C 	0.00398 0.55411 0.09357 -0.61700
H 	H 	0.03303 0.57317 0.11287 0.19900
H 	H 	0.99333 0.53007 0.14867 0.18200
H 	H 	0.00143 0.54507 0.00677 0.18900
C 	C 	0.97964 0.57557 0.11207 0.25300
C 	C 	0.98137 0.60389 0.02677 -0.21300
H 	H 	0.99923 0.61077 0.95697 0.09800
C 	C 	0.86769 0.61110 0.07197 0.06500
C 	C 	0.96637 0.82628 0.67407 0.20100
C 	C 	0.90871 0.76164 0.61387 0.00500
H 	H 	0.88443 0.73697 0.63717 0.01200
C 	C 	0.97855 0.83354 0.55027 -0.17000
H 	H 	0.00263 0.85847 0.52747 0.07200
C 	C 	0.95579 0.80452 0.45907 -0.00400
H 	H 	0.96463 0.80977 0.37487 0.02200
C 	C 	0.93173 0.79030 0.70427 -0.18400
H 	H 	0.92313 0.78477 0.78867 0.07500
C 	C 	0.99213 0.85757 0.77397 -0.51200
H 	H 	0.00423 0.84557 0.82917 0.15900
H 	H 	0.01433 0.88237 0.73447 0.15800
H 	H 	0.97453 0.86487 0.82257 0.15800
Sn	Sn	0.83333 0.66667 0.16667 1.24600
N 	N 	0.01537 0.45879 0.41400 -0.29100
N 	N 	0.95494 0.45100 0.60490 -0.29000
C 	C 	0.10153 0.51436 0.17670 -0.01200
C 	C 	0.96382 0.39429 0.51740 -0.10900
C 	C 	0.04479 0.46959 0.32200 0.05700
C 	C 	0.92875 0.45399 0.68850 0.05800
C 	C 	0.99652 0.41713 0.43410 0.08000
C 	C 	0.94678 0.34874 0.52630 -0.00100
C 	C 	0.90038 0.41282 0.73170 -0.07400
H 	H 	0.87870 0.40560 0.78990 0.04700
C 	C 	0.07081 0.50962 0.27440 -0.10400
C 	C 	0.90979 0.38634 0.67560 -0.08400
H 	H 	0.89610 0.35730 0.68730 0.05900
C 	C 	0.95587 0.33148 0.62640 0.01200
H 	H 	0.97520 0.34890 0.68690 0.02800
C 	C 	0.04424 0.43222 0.28460 -0.06800
H 	H 	0.06150 0.43030 0.22320 0.05100
C 	C 	0.90071 0.27995 0.45210 -0.18900
H 	H 	0.88190 0.26240 0.39060 0.06500
C 	C 	0.91926 0.32207 0.43780 0.00900
H 	H 	0.91320 0.33310 0.36650 0.01700
C 	C 	0.01503 0.40054 0.35190 -0.08700
H 	H 	0.00800 0.37240 0.34600 0.05600
C 	C 	0.88744 0.21679 0.57310 -0.57900
H 	H 	0.90650 0.20680 0.55380 0.19000
H 	H 	0.86340 0.20340 0.51800 0.16800
H 	H 	0.87840 0.21030 0.65990 0.18000
C 	C 	0.90890 0.26259 0.55460 0.23200
C 	C 	0.93722 0.28918 0.63990 -0.19800
H 	H 	0.94410 0.27820 0.70970 0.09200
C 	C 	0.94443 0.41007 0.59470 0.06900
C 	C 	0.15961 0.52657 0.99260 0.22300
C 	C 	0.09497 0.51959 0.05280 0.01900
H 	H 	0.07030 0.51920 0.02950 0.00600
C 	C 	0.16687 0.52165 0.11640 -0.19500
H 	H 	0.19180 0.52250 0.13920 0.08300
C 	C 	0.13785 0.51539 0.20760 0.01200
H 	H 	0.14310 0.51180 0.29180 0.01600
C 	C 	0.12363 0.52523 0.96240 -0.20400
H 	H 	0.11810 0.52830 0.87800 0.08100
C 	C 	0.19090 0.53210 0.89270 -0.56000
H 	H 	0.17890 0.50800 0.83750 0.17500
H 	H 	0.21570 0.53470 0.93220 0.17300
H 	H 	0.19820 0.55700 0.84410 0.16900
N 	N 	0.98463 0.54121 0.58600 -0.28400
N 	N 	0.04506 0.54900 0.39510 -0.29100
C 	C 	0.89847 0.48564 0.82330 -0.01000
C 	C 	0.03618 0.60571 0.48260 -0.10200
C 	C 	0.95521 0.53041 0.67800 0.06100
C 	C 	0.07125 0.54601 0.31150 0.05600
C 	C 	0.00348 0.58287 0.56590 0.05900
C 	C 	0.05322 0.65126 0.47370 -0.00700
C 	C 	0.09962 0.58718 0.26830 -0.07500
H 	H 	0.12130 0.59440 0.21010 0.04700
C 	C 	0.92919 0.49038 0.72560 -0.10400
C 	C 	0.09021 0.61366 0.32440 -0.08300
H 	H 	0.10390 0.64270 0.31270 0.05800
C 	C 	0.04413 0.66852 0.37360 0.01500
H 	H 	0.02480 0.65110 0.31310 0.02400
C 	C 	0.95576 0.56778 0.71540 -0.07600
H 	H 	0.93850 0.56970 0.77680 0.05400
C 	C 	0.09929 0.72005 0.54790 -0.19100
H 	H 	0.11810 0.73760 0.60940 0.06500
C 	C 	0.08074 0.67793 0.56220 0.01200
H 	H 	0.08680 0.66690 0.63350 0.01500
C 	C 	0.98497 0.59946 0.64810 -0.06800
H 	H 	0.99200 0.62760 0.65400 0.05300
C 	C 	0.11256 0.78321 0.42690 -0.58000
H 	H 	0.09350 0.79320 0.44620 0.18900
H 	H 	0.13660 0.79660 0.48200 0.16800
H 	H 	0.12160 0.78970 0.34010 0.18000
C 	C 	0.09110 0.73741 0.44540 0.23300
C 	C 	0.06278 0.71082 0.36010 -0.20100
H 	H 	0.05590 0.72180 0.29030 0.09100
C 	C 	0.05557 0.58993 0.40530 0.06400
C 	C 	0.84039 0.47343 0.00740 0.22300
C 	C 	0.90503 0.48041 0.94720 0.01900
H 	H 	0.92970 0.48080 0.97050 0.00800
C 	C 	0.83313 0.47835 0.88360 -0.19500
H 	H 	0.80820 0.47750 0.86080 0.08300
C 	C 	0.86215 0.48461 0.79240 0.01100
H 	H 	0.85690 0.48820 0.70820 0.01600
C 	C 	0.87637 0.47477 0.03760 -0.20300
H 	H 	0.88190 0.47170 0.12200 0.08100
C 	C 	0.80910 0.46790 0.10730 -0.55900
H 	H 	0.82110 0.49200 0.16250 0.17500
H 	H 	0.78430 0.46530 0.06780 0.17300
H 	H 	0.80180 0.44300 0.15590 0.16900
Sn	Sn	0.00000 0.50000 0.50000 1.24400
N 	N 	0.68204 0.79212 0.74733 -0.28800
N 	N 	0.62161 0.78433 0.93823 -0.29100
C 	C 	0.76820 0.84769 0.51003 -0.01200
C 	C 	0.63049 0.72762 0.85073 -0.10500
C 	C 	0.71146 0.80292 0.65533 0.05900
C 	C 	0.59542 0.78732 0.02183 0.05700
C 	C 	0.66319 0.75046 0.76743 0.07000
C 	C 	0.61345 0.68207 0.85963 -0.00400
C 	C 	0.56705 0.74615 0.06503 -0.07500
H 	H 	0.54537 0.73893 0.12323 0.04700
C 	C 	0.73748 0.84295 0.60773 -0.10400
C 	C 	0.57646 0.71967 0.00893 -0.08300
H 	H 	0.56277 0.69063 0.02063 0.05800
C 	C 	0.62254 0.66481 0.95973 0.01300
H 	H 	0.64187 0.68223 0.02023 0.02600
C 	C 	0.71091 0.76555 0.61793 -0.07200
H 	H 	0.72817 0.76363 0.55653 0.05300
C 	C 	0.56738 0.61328 0.78543 -0.19000
H 	H 	0.54857 0.59573 0.72393 0.06500
C 	C 	0.58593 0.65540 0.77113 0.01000
H 	H 	0.57987 0.66643 0.69983 0.01600
C 	C 	0.68170 0.73387 0.68523 -0.07800
H 	H 	0.67467 0.70573 0.67933 0.05500
C 	C 	0.55411 0.55012 0.90643 -0.57900
H 	H 	0.57317 0.54013 0.88713 0.19000
H 	H 	0.53007 0.53673 0.85133 0.16800
H 	H 	0.54507 0.54363 0.99323 0.18000
C 	C 	0.57557 0.59592 0.88793 0.23200
C 	C 	0.60389 0.62251 0.97323 -0.19900
H 	H 	0.61077 0.61153 0.04303 0.09100
C 	C 	0.61110 0.74340 0.92803 0.06600
C 	C 	0.82628 0.85990 0.32593 0.22600
C 	C 	0.76164 0.85292 0.38613 0.01900
H 	H 	0.73697 0.85253 0.36283 0.00700
C 	C 	0.83354 0.85498 0.44973 -0.19800
H 	H 	0.85847 0.85583 0.47253 0.08400
C 	C 	0.80452 0.84872 0.54093 0.01300
H 	H 	0.80977 0.84513 0.62513 0.01500
C 	C 	0.79030 0.85856 0.29573 -0.20400
H 	H 	0.78477 0.86163 0.21133 0.08100
C 	C 	0.85757 0.86543 0.22603 -0.56300
H 	H 	0.84557 0.84133 0.17083 0.17700
H 	H 	0.88237 0.86803 0.26553 0.17600
H 	H 	0.86487 0.89033 0.17743 0.17100
N 	N 	0.65130 0.87454 0.91933 -0.28900
N 	N 	0.71173 0.88233 0.72843 -0.29100
C 	C 	0.56514 0.81897 0.15663 -0.01100
C 	C 	0.70285 0.93904 0.81593 -0.11400
C 	C 	0.62188 0.86374 0.01133 0.05900
C 	C 	0.73792 0.87934 0.64483 0.05600
C 	C 	0.67015 0.91620 0.89923 0.07400
C 	C 	0.71989 0.98459 0.80703 0.02100
C 	C 	0.76629 0.92051 0.60163 -0.07300
H 	H 	0.78797 0.92773 0.54343 0.04600
C 	C 	0.59586 0.82371 0.05893 -0.10400
C 	C 	0.75688 0.94699 0.65773 -0.08700
H 	H 	0.77057 0.97603 0.64603 0.06100
C 	C 	0.71080 0.00185 0.70693 -0.01900
H 	H 	0.69147 0.98443 0.64643 0.04000
C 	C 	0.62243 0.90111 0.04873 -0.07000
H 	H 	0.60517 0.90303 0.11013 0.05200
C 	C 	0.76596 0.05338 0.88123 -0.17200
H 	H 	0.78477 0.07093 0.94273 0.05900
C 	C 	0.74741 0.01126 0.89553 -0.01300
H 	H 	0.75347 0.00023 0.96683 0.02200
C 	C 	0.65164 0.93279 0.98143 -0.08100
H 	H 	0.65867 0.96093 0.98733 0.05700
C 	C 	0.77923 0.11654 0.76023 -0.56400
H 	H 	0.76017 0.12653 0.77953 0.18500
H 	H 	0.80327 0.12993 0.81533 0.16400
H 	H 	0.78827 0.12303 0.67343 0.17600
C 	C 	0.75777 0.07074 0.77873 0.21500
C 	C 	0.72945 0.04415 0.69343 -0.17800
H 	H 	0.72257 0.05513 0.62363 0.08400
C 	C 	0.72224 0.92326 0.73863 0.07000
C 	C 	0.50706 0.80676 0.34073 0.22500
C 	C 	0.57170 0.81374 0.28053 0.01800
H 	H 	0.59637 0.81413 0.30383 0.00700
C 	C 	0.49980 0.81168 0.21693 -0.19700
H 	H 	0.47487 0.81083 0.19413 0.08300
C 	C 	0.52882 0.81794 0.12573 0.01200
H 	H 	0.52357 0.82153 0.04153 0.01600
C 	C 	0.54304 0.80810 0.37093 -0.20300
H 	H 	0.54857 0.80503 0.45533 0.08100
C 	C 	0.47577 0.80123 0.44063 -0.56100
H 	H 	0.48777 0.82533 0.49583 0.17600
H 	H 	0.45097 0.79863 0.40113 0.17400
H 	H 	0.46847 0.77633 0.48923 0.17000
Sn	Sn	0.66667 0.83333 0.83333 1.24600
N 	N 	0.34870 0.12546 0.08067 -0.28800
N 	N 	0.28827 0.11767 0.27157 -0.29000
C 	C 	0.43486 0.18103 0.84337 -0.01100
C 	C 	0.29715 0.06096 0.18407 -0.09600
C 	C 	0.37812 0.13626 0.98867 0.06000
C 	C 	0.26208 0.12066 0.35517 0.05700
C 	C 	0.32985 0.08380 0.10077 0.06600
C 	C 	0.28011 0.01541 0.19297 -0.03100
C 	C 	0.23371 0.07949 0.39837 -0.07600
H 	H 	0.21203 0.07227 0.45657 0.04700
C 	C 	0.40414 0.17629 0.94107 -0.10500
C 	C 	0.24312 0.05301 0.34227 -0.08100
H 	H 	0.22943 0.02397 0.35397 0.05600
C 	C 	0.28920 0.99815 0.29307 0.04800
H 	H 	0.30853 0.01557 0.35357 0.01200
C 	C 	0.37757 0.09889 0.95127 -0.07300
H 	H 	0.39483 0.09697 0.88987 0.05300
C 	C 	0.23404 0.94662 0.11877 -0.21000
H 	H 	0.21523 0.92907 0.05727 0.07200
C 	C 	0.25259 0.98874 0.10447 0.03500
H 	H 	0.24653 0.99977 0.03317 0.01000
C 	C 	0.34836 0.06721 0.01857 -0.07600
H 	H 	0.34133 0.03907 0.01267 0.05300
C 	C 	0.22077 0.88346 0.23977 -0.59700
H 	H 	0.23983 0.87347 0.22047 0.19400
H 	H 	0.19673 0.87007 0.18467 0.17300
H 	H 	0.21173 0.87697 0.32657 0.18500
C 	C 	0.24223 0.92926 0.22127 0.25100
C 	C 	0.27055 0.95585 0.30657 -0.22300
H 	H 	0.27743 0.94487 0.37637 0.10000
C 	C 	0.27776 0.07674 0.26137 0.06200
C 	C 	0.49294 0.19324 0.65927 0.22400
C 	C 	0.42830 0.18626 0.71947 0.01800
H 	H 	0.40363 0.18587 0.69617 0.00700
C 	C 	0.50020 0.18832 0.78307 -0.19700
H 	H 	0.52513 0.18917 0.80587 0.08300
C 	C 	0.47118 0.18206 0.87427 0.01200
H 	H 	0.47643 0.17847 0.95847 0.01600
C 	C 	0.45696 0.19190 0.62907 -0.20300
H 	H 	0.45143 0.19497 0.54467 0.08100
C 	C 	0.52423 0.19877 0.55937 -0.56000
H 	H 	0.51223 0.17467 0.50417 0.17600
H 	H 	0.54903 0.20137 0.59887 0.17400
H 	H 	0.53153 0.22367 0.51077 0.17000
N 	N 	0.31796 0.20788 0.25267 -0.28800
N 	N 	0.37839 0.21567 0.06177 -0.29100
C 	C 	0.23180 0.15231 0.48997 -0.01000
C 	C 	0.36951 0.27238 0.14927 -0.10500
C 	C 	0.28854 0.19708 0.34467 0.05900
C 	C 	0.40458 0.21268 0.97817 0.05800
C 	C 	0.33681 0.24954 0.23257 0.07000
C 	C 	0.38655 0.31793 0.14037 -0.00400
C 	C 	0.43295 0.25385 0.93497 -0.07500
H 	H 	0.45463 0.26107 0.87677 0.04700
C 	C 	0.26252 0.15705 0.39227 -0.10500
C 	C 	0.42354 0.28033 0.99107 -0.08300
H 	H 	0.43723 0.30937 0.97937 0.05800
C 	C 	0.37746 0.33519 0.04027 0.01300
H 	H 	0.35813 0.31777 0.97977 0.02600
C 	C 	0.28909 0.23445 0.38207 -0.07200
H 	H 	0.27183 0.23637 0.44347 0.05300
C 	C 	0.43262 0.38672 0.21457 -0.19000
H 	H 	0.45143 0.40427 0.27607 0.06500
C 	C 	0.41407 0.34460 0.22887 0.01000
H 	H 	0.42013 0.33357 0.30017 0.01600
C 	C 	0.31830 0.26613 0.31477 -0.07800
H 	H 	0.32533 0.29427 0.32067 0.05500
C 	C 	0.44589 0.44988 0.09357 -0.57900
H 	H 	0.42683 0.45987 0.11287 0.19000
H 	H 	0.46993 0.46327 0.14867 0.16800
H 	H 	0.45493 0.45637 0.00677 0.18000
C 	C 	0.42443 0.40408 0.11207 0.23200
C 	C 	0.39611 0.37749 0.02677 -0.19900
H 	H 	0.38923 0.38847 0.95697 0.09100
C 	C 	0.38890 0.25660 0.07197 0.06600
C 	C 	0.17372 0.14010 0.67407 0.22300
C 	C 	0.23836 0.14708 0.61387 0.01700
H 	H 	0.26303 0.14747 0.63717 0.00700
C 	C 	0.16646 0.14502 0.55027 -0.19600
H 	H 	0.14153 0.14417 0.52747 0.08200
C 	C 	0.19548 0.15128 0.45907 0.01100
H 	H 	0.19023 0.15487 0.37487 0.01600
C 	C 	0.20970 0.14144 0.70427 -0.20200
H 	H 	0.21523 0.13837 0.78867 0.08000
C 	C 	0.14243 0.13457 0.77397 -0.55800
H 	H 	0.15443 0.15867 0.82917 0.17500
H 	H 	0.11763 0.13197 0.73447 0.17300
H 	H 	0.13513 0.10967 0.82257 0.16800
Sn	Sn	0.33333 0.16667 0.16667 1.24600
N 	N 	0.54121 0.55658 0.41400 -0.28800
N 	N 	0.54900 0.50394 0.60490 -0.29000
C 	C 	0.48564 0.58717 0.17670 -0.01100
C 	C 	0.60571 0.56953 0.51740 -0.10500
C 	C 	0.53041 0.57520 0.32200 0.05900
C 	C 	0.54601 0.47476 0.68850 0.05700
C 	C 	0.58287 0.57939 0.43410 0.07000
C 	C 	0.65126 0.59804 0.52630 -0.00400
C 	C 	0.58718 0.48756 0.73170 -0.07400
H 	H 	0.59440 0.47310 0.78990 0.04700
C 	C 	0.49038 0.56119 0.27440 -0.10400
C 	C 	0.61366 0.52345 0.67560 -0.08400
H 	H 	0.64270 0.53880 0.68730 0.05900
C 	C 	0.66852 0.62439 0.62640 0.01300
H 	H 	0.65110 0.62630 0.68690 0.02600
C 	C 	0.56778 0.61202 0.28460 -0.07200
H 	H 	0.56970 0.63120 0.22320 0.05300
C 	C 	0.72005 0.62076 0.45210 -0.19000
H 	H 	0.73760 0.61950 0.39060 0.06500
C 	C 	0.67793 0.59719 0.43780 0.01000
H 	H 	0.66690 0.58010 0.36650 0.01600
C 	C 	0.59946 0.61449 0.35190 -0.07800
H 	H 	0.62760 0.63560 0.34600 0.05500
C 	C 	0.78321 0.67065 0.57310 -0.57900
H 	H 	0.79320 0.69970 0.55380 0.18900
H 	H 	0.79660 0.66000 0.51800 0.16800
H 	H 	0.78970 0.66810 0.65990 0.18000
C 	C 	0.73741 0.64631 0.55460 0.23200
C 	C 	0.71082 0.64804 0.63990 -0.19900
H 	H 	0.72180 0.66590 0.70970 0.09100
C 	C 	0.58993 0.53436 0.59470 0.06700
C 	C 	0.47343 0.63304 0.99260 0.22300
C 	C 	0.48041 0.57538 0.05280 0.01900
H 	H 	0.48080 0.55110 0.02950 0.00700
C 	C 	0.47835 0.64522 0.11640 -0.19500
H 	H 	0.47750 0.66930 0.13920 0.08300
C 	C 	0.48461 0.62246 0.20760 0.01200
H 	H 	0.48820 0.63130 0.29180 0.01600
C 	C 	0.47477 0.59840 0.96240 -0.20300
H 	H 	0.47170 0.58980 0.87800 0.08100
C 	C 	0.46790 0.65880 0.89270 -0.55900
H 	H 	0.49200 0.67090 0.83750 0.17500
H 	H 	0.46530 0.68100 0.93220 0.17300
H 	H 	0.44300 0.64120 0.84410 0.16900
N 	N 	0.45879 0.44342 0.58600 -0.28800
N 	N 	0.45100 0.49606 0.39510 -0.29000
C 	C 	0.51436 0.41283 0.82330 -0.01100
C 	C 	0.39429 0.43047 0.48260 -0.10500
C 	C 	0.46959 0.42480 0.67800 0.05900
C 	C 	0.45399 0.52524 0.31150 0.05700
C 	C 	0.41713 0.42061 0.56590 0.07000
C 	C 	0.34874 0.40196 0.47370 -0.00400
C 	C 	0.41282 0.51244 0.26830 -0.07400
H 	H 	0.40560 0.52690 0.21010 0.04700
C 	C 	0.50962 0.43881 0.72560 -0.10400
C 	C 	0.38634 0.47655 0.32440 -0.08400
H 	H 	0.35730 0.46120 0.31270 0.05900
C 	C 	0.33148 0.37561 0.37360 0.01400
H 	H 	0.34890 0.37370 0.31310 0.02600
C 	C 	0.43222 0.38798 0.71540 -0.07200
H 	H 	0.43030 0.36880 0.77680 0.05300
C 	C 	0.27995 0.37924 0.54790 -0.19000
H 	H 	0.26240 0.38050 0.60940 0.06500
C 	C 	0.32207 0.40281 0.56220 0.01000
H 	H 	0.33310 0.41990 0.63350 0.01600
C 	C 	0.40054 0.38551 0.64810 -0.07800
H 	H 	0.37240 0.36440 0.65400 0.05500
C 	C 	0.21679 0.32935 0.42690 -0.58000
H 	H 	0.20680 0.30030 0.44620 0.19000
H 	H 	0.20340 0.34000 0.48200 0.16800
H 	H 	0.21030 0.33190 0.34010 0.18000
C 	C 	0.26259 0.35369 0.44540 0.23300
C 	C 	0.28918 0.35196 0.36010 -0.20000
H 	H 	0.27820 0.33410 0.29030 0.09200
C 	C 	0.41007 0.46564 0.40530 0.06700
C 	C 	0.52657 0.36696 0.00740 0.22300
C 	C 	0.51959 0.42462 0.94720 0.01900
H 	H 	0.51920 0.44890 0.97050 0.00700
C 	C 	0.52165 0.35478 0.88360 -0.19500
H 	H 	0.52250 0.33070 0.86080 0.08300
C 	C 	0.51539 0.37754 0.79240 0.01200
H 	H 	0.51180 0.36870 0.70820 0.01600
C 	C 	0.52523 0.40160 0.03760 -0.20300
H 	H 	0.52830 0.41020 0.12200 0.08100
C 	C 	0.53210 0.34120 0.10730 -0.55900
H 	H 	0.50800 0.32910 0.16250 0.17500
H 	H 	0.53470 0.31900 0.06780 0.17300
H 	H 	0.55700 0.35880 0.15590 0.16900
Sn	Sn	0.50000 0.50000 0.50000 1.24600
N 	N 	0.20788 0.88991 0.74733 -0.28800
N 	N 	0.21567 0.83727 0.93823 -0.29100
C 	C 	0.15231 0.92050 0.51003 0.00100
C 	C 	0.27238 0.90286 0.85073 -0.10300
C 	C 	0.19708 0.90853 0.65533 0.06100
C 	C 	0.21268 0.80809 0.02183 0.05800
C 	C 	0.24954 0.91272 0.76743 0.06900
C 	C 	0.31793 0.93137 0.85963 -0.01100
C 	C 	0.25385 0.82089 0.06503 -0.07500
H 	H 	0.26107 0.80643 0.12323 0.04700
C 	C 	0.15705 0.89452 0.60773 -0.10900
C 	C 	0.28033 0.85678 0.00893 -0.08200
H 	H 	0.30937 0.87213 0.02063 0.05800
C 	C 	0.33519 0.95772 0.95973 0.02300
H 	H 	0.31777 0.95963 0.02023 0.02300
C 	C 	0.23445 0.94535 0.61793 -0.07400
H 	H 	0.23637 0.96453 0.55653 0.05400
C 	C 	0.38672 0.95409 0.78543 -0.20400
H 	H 	0.40427 0.95283 0.72393 0.07000
C 	C 	0.34460 0.93052 0.77113 0.02000
H 	H 	0.33357 0.91343 0.69983 0.01300
C 	C 	0.26613 0.94782 0.68523 -0.07600
H 	H 	0.29427 0.96893 0.67933 0.05500
C 	C 	0.44988 0.00398 0.90643 -0.61700
H 	H 	0.45987 0.03303 0.88713 0.19900
H 	H 	0.46327 0.99333 0.85133 0.18200
H 	H 	0.45637 0.00143 0.99323 0.18900
C 	C 	0.40408 0.97964 0.88793 0.25300
C 	C 	0.37749 0.98137 0.97323 -0.21300
H 	H 	0.38847 0.99923 0.04303 0.09800
C 	C 	0.25660 0.86769 0.92803 0.06400
C 	C 	0.14010 0.96637 0.32593 0.19900
C 	C 	0.14708 0.90871 0.38613 0.00400
H 	H 	0.14747 0.88443 0.36283 0.01200
C 	C 	0.14502 0.97855 0.44973 -0.16900
H 	H 	0.14417 0.00263 0.47253 0.07100
C 	C 	0.15128 0.95579 0.54093 -0.00500
H 	H 	0.15487 0.96463 0.62513 0.02200
C 	C 	0.14144 0.93173 0.29573 -0.18300
H 	H 	0.13837 0.92313 0.21133 0.07500
C 	C 	0.13457 0.99213 0.22603 -0.51000
H 	H 	0.15867 0.00423 0.17083 0.15800
H 	H 	0.13197 0.01433 0.26553 0.15700
H 	H 	0.10967 0.97453 0.17743 0.15700
N 	N 	0.12546 0.77675 0.91933 -0.28800
N 	N 	0.11767 0.82939 0.72843 -0.29000
C 	C 	0.18103 0.74616 0.15663 -0.01100
C 	C 	0.06096 0.76380 0.81593 -0.09600
C 	C 	0.13626 0.75813 0.01133 0.06000
C 	C 	0.12066 0.85857 0.64483 0.05900
C 	C 	0.08380 0.75394 0.89923 0.06600
C 	C 	0.01541 0.73529 0.80703 -0.03100
C 	C 	0.07949 0.84577 0.60163 -0.07700
H 	H 	0.07227 0.86023 0.54343 0.04700
C 	C 	0.17629 0.77214 0.05893 -0.10500
C 	C 	0.05301 0.80988 0.65773 -0.08000
H 	H 	0.02397 0.79453 0.64603 0.05600
C 	C 	0.99815 0.70894 0.70693 0.04800
H 	H 	0.01557 0.70703 0.64643 0.01200
C 	C 	0.09889 0.72131 0.04873 -0.07300
H 	H 	0.09697 0.70213 0.11013 0.05300
C 	C 	0.94662 0.71257 0.88123 -0.21000
H 	H 	0.92907 0.71383 0.94273 0.07200
C 	C 	0.98874 0.73614 0.89553 0.03500
H 	H 	0.99977 0.75323 0.96683 0.01000
C 	C 	0.06721 0.71884 0.98143 -0.07600
H 	H 	0.03907 0.69773 0.98733 0.05300
C 	C 	0.88346 0.66268 0.76023 -0.59700
H 	H 	0.87347 0.63363 0.77953 0.19400
H 	H 	0.87007 0.67333 0.81533 0.17300
H 	H 	0.87697 0.66523 0.67343 0.18500
C 	C 	0.92926 0.68702 0.77873 0.25100
C 	C 	0.95585 0.68529 0.69343 -0.22300
H 	H 	0.94487 0.66743 0.62363 0.10000
C 	C 	0.07674 0.79897 0.73863 0.06200
C 	C 	0.19324 0.70029 0.34073 0.22400
C 	C 	0.18626 0.75795 0.28053 0.01800
H 	H 	0.18587 0.78223 0.30383 0.00700
C 	C 	0.18832 0.68811 0.21693 -0.19600
H 	H 	0.18917 0.66403 0.19413 0.08300
C 	C 	0.18206 0.71087 0.12573 0.01200
H 	H 	0.17847 0.70203 0.04153 0.01600
C 	C 	0.19190 0.73493 0.37093 -0.20300
H 	H 	0.19497 0.74353 0.45533 0.08100
C 	C 	0.19877 0.67453 0.44063 -0.56000
H 	H 	0.17467 0.66243 0.49583 0.17600
H 	H 	0.20137 0.65233 0.40113 0.17400
H 	H 	0.22367 0.69213 0.48923 0.17000
Sn	Sn	0.16667 0.83333 0.83333 1.24600
N 	N 	0.87454 0.22325 0.08067 -0.28900
N 	N 	0.88233 0.17061 0.27157 -0.29100
C 	C 	0.81897 0.25384 0.84337 -0.01100
C 	C 	0.93904 0.23620 0.18407 -0.11500
C 	C 	0.86374 0.24187 0.98867 0.05900
C 	C 	0.87934 0.14143 0.35517 0.05500
C 	C 	0.91620 0.24606 0.10077 0.07400
C 	C 	0.98459 0.26471 0.19297 0.02200
C 	C 	0.92051 0.15423 0.39837 -0.07200
H 	H 	0.92773 0.13977 0.45657 0.04600
C 	C 	0.82371 0.22786 0.94107 -0.10400
C 	C 	0.94699 0.19012 0.34227 -0.08700
H 	H 	0.97603 0.20547 0.35397 0.06100
C 	C 	0.00185 0.29106 0.29307 -0.01900
H 	H 	0.98443 0.29297 0.35357 0.04000
C 	C 	0.90111 0.27869 0.95127 -0.07000
H 	H 	0.90303 0.29787 0.88987 0.05200
C 	C 	0.05338 0.28743 0.11877 -0.17200
H 	H 	0.07093 0.28617 0.05727 0.05900
C 	C 	0.01126 0.26386 0.10447 -0.01300
H 	H 	0.00023 0.24677 0.03317 0.02200
C 	C 	0.93279 0.28116 0.01857 -0.08100
H 	H 	0.96093 0.30227 0.01267 0.05700
C 	C 	0.11654 0.33732 0.23977 -0.56300
H 	H 	0.12653 0.36637 0.22047 0.18500
H 	H 	0.12993 0.32667 0.18467 0.16300
H 	H 	0.12303 0.33477 0.32657 0.17600
C 	C 	0.07074 0.31298 0.22127 0.21500
C 	C 	0.04415 0.31471 0.30657 -0.17700
H 	H 	0.05513 0.33257 0.37637 0.08400
C 	C 	0.92326 0.20103 0.26137 0.07100
C 	C 	0.80676 0.29971 0.65927 0.22400
C 	C 	0.81374 0.24205 0.71947 0.01800
H 	H 	0.81413 0.21777 0.69617 0.00700
C 	C 	0.81168 0.31189 0.78307 -0.19700
H 	H 	0.81083 0.33597 0.80587 0.08300
C 	C 	0.81794 0.28913 0.87427 0.01200
H 	H 	0.82153 0.29797 0.95847 0.01600
C 	C 	0.80810 0.26507 0.62907 -0.20300
H 	H 	0.80503 0.25647 0.54467 0.08100
C 	C 	0.80123 0.32547 0.55937 -0.56100
H 	H 	0.82533 0.33757 0.50417 0.17600
H 	H 	0.79863 0.34767 0.59887 0.17400
H 	H 	0.77633 0.30787 0.51077 0.17000
N 	N 	0.79212 0.11009 0.25267 -0.28800
N 	N 	0.78433 0.16273 0.06177 -0.29100
C 	C 	0.84769 0.07950 0.48997 -0.02200
C 	C 	0.72762 0.09714 0.14927 -0.10800
C 	C 	0.80292 0.09147 0.34467 0.05700
C 	C 	0.78732 0.19191 0.97817 0.05800
C 	C 	0.75046 0.08728 0.23257 0.07100
C 	C 	0.68207 0.06863 0.14037 0.00300
C 	C 	0.74615 0.17911 0.93497 -0.07400
H 	H 	0.73893 0.19357 0.87677 0.04700
C 	C 	0.84295 0.10548 0.39227 -0.10000
C 	C 	0.71967 0.14322 0.99107 -0.08300
H 	H 	0.69063 0.12787 0.97937 0.05900
C 	C 	0.66481 0.04228 0.04027 0.00200
H 	H 	0.68223 0.04037 0.97977 0.03000
C 	C 	0.76555 0.05465 0.38207 -0.07100
H 	H 	0.76363 0.03547 0.44347 0.05100
C 	C 	0.61328 0.04591 0.21457 -0.17600
H 	H 	0.59573 0.04717 0.27607 0.05900
C 	C 	0.65540 0.06948 0.22887 -0.00100
H 	H 	0.66643 0.08657 0.30017 0.02000
C 	C 	0.73387 0.05218 0.31477 -0.07900
H 	H 	0.70573 0.03107 0.32067 0.05400
C 	C 	0.55012 0.99602 0.09357 -0.53900
H 	H 	0.54013 0.96697 0.11287 0.17900
H 	H 	0.53673 0.00667 0.14867 0.15300
H 	H 	0.54363 0.99857 0.00677 0.17100
C 	C 	0.59592 0.02036 0.11207 0.21000
C 	C 	0.62251 0.01863 0.02677 -0.18500
H 	H 	0.61153 0.00077 0.95697 0.08500
C 	C 	0.74340 0.13231 0.07197 0.06700
C 	C 	0.85990 0.03363 0.67407 0.24900
C 	C 	0.85292 0.09129 0.61387 0.03200
H 	H 	0.85253 0.11557 0.63717 0.00300
C 	C 	0.85498 0.02145 0.55027 -0.22400
H 	H 	0.85583 0.99737 0.52747 0.09500
C 	C 	0.84872 0.04421 0.45907 0.02900
H 	H 	0.84513 0.03537 0.37487 0.00900
C 	C 	0.85856 0.06827 0.70427 -0.22200
H 	H 	0.86163 0.07687 0.78867 0.08700
C 	C 	0.86543 0.00787 0.77397 -0.60900
H 	H 	0.84133 0.99577 0.82917 0.19200
H 	H 	0.86803 0.98567 0.73447 0.19100
H 	H 	0.89033 0.02547 0.82257 0.18300
Sn	Sn	0.83333 0.16667 0.16667 1.24600
