data_crystal

_cell_length_a 12.09350
_cell_length_b 34.00510
_cell_length_c 31.94580
_cell_angle_alpha 90.00000
_cell_angle_beta  93.56400
_cell_angle_gamma 90.00000

_symmetry_space_group_name_	'P 1'
_symmetry_space_group_name_H-M	'P 1'

loop_
_symmetry_equiv_pos_as_xyz
  x,y,z

loop_
_atom_site_label
_atom_site_type_symbol
_atom_site_fract_x
_atom_site_fract_y
_atom_site_fract_z
_atom_site_charge
Zn	Zn	0.82687 0.66579 0.54966 1.21100
Zn	Zn	0.42316 0.42325 0.65511 1.21100
O 	O 	0.89450 0.71426 0.57213 -0.44900
O 	O 	0.04870 0.67889 0.58360 -0.30600
O 	O 	0.02540 0.88041 0.64607 -0.44700
O 	O 	0.86900 0.84973 0.62392 -0.32100
O 	O 	0.80180 0.63346 0.59811 -0.44900
O 	O 	0.73450 0.58760 0.55381 -0.32700
O 	O 	0.55830 0.46919 0.61153 -0.31300
O 	O 	0.49500 0.47292 0.67541 -0.44000
N 	N 	0.89570 0.64844 0.49763 -0.28500
N 	N 	0.04860 0.61685 0.38907 -0.12400
N 	N 	0.16940 0.60725 0.31530 -0.12900
N 	N 	0.34010 0.58867 0.20714 -0.27700
N 	N 	0.67510 0.68773 0.53021 -0.27500
N 	N 	0.35940 0.73475 0.50356 -0.12600
N 	N 	0.30500 0.44073 0.61249 -0.28600
N 	N 	0.04010 0.47020 0.52679 -0.12600
C 	C 	0.84180 0.65057 0.45946 0.09800
H 	H 	0.76730 0.65960 0.45780 -0.01600
C 	C 	0.88860 0.64034 0.42279 -0.18400
H 	H 	0.84630 0.64220 0.39680 0.10200
C 	C 	0.99740 0.62730 0.42385 0.15700
C 	C 	0.05470 0.62480 0.46395 -0.17600
H 	H 	0.12930 0.61590 0.46660 0.08800
C 	C 	0.00120 0.63533 0.49878 0.09000
H 	H 	0.04070 0.63330 0.52530 -0.00900
C 	C 	0.16450 0.60345 0.39140 -0.04500
H 	H 	0.21420 0.62640 0.39610 0.05200
H 	H 	0.17710 0.58540 0.41560 0.04400
C 	C 	0.19230 0.58308 0.35284 -0.04600
H 	H 	0.27180 0.57600 0.35500 0.05200
H 	H 	0.14890 0.55840 0.35000 0.05000
C 	C 	0.08200 0.63560 0.31709 -0.03300
H 	H 	0.04610 0.63930 0.28870 0.03300
H 	H 	0.11360 0.66120 0.32660 0.04200
C 	C 	0.99670 0.62263 0.34651 -0.05400
H 	H 	0.93780 0.64280 0.34730 0.04200
H 	H 	0.96230 0.59770 0.33630 0.05100
C 	C 	0.22550 0.60159 0.28020 0.17100
C 	C 	0.21460 0.62681 0.24595 -0.19300
H 	H 	0.16660 0.64890 0.24650 0.09200
C 	C 	0.27300 0.61991 0.21144 0.10100
H 	H 	0.26580 0.63830 0.18900 -0.01400
C 	C 	0.34860 0.56456 0.24052 0.10200
H 	H 	0.39530 0.54220 0.23900 -0.00800
C 	C 	0.29550 0.56983 0.27610 -0.20100
H 	H 	0.30640 0.55160 0.29850 0.10200
C 	C 	0.58900 0.66504 0.51608 0.10300
H 	H 	0.60130 0.63760 0.51290 -0.01200
C 	C 	0.48620 0.67933 0.50622 -0.18200
H 	H 	0.42920 0.66200 0.49580 0.09400
C 	C 	0.46280 0.71966 0.51123 0.16300
C 	C 	0.55310 0.74265 0.52488 -0.18900
H 	H 	0.54380 0.77020 0.52820 0.08800
C 	C 	0.65360 0.72640 0.53343 0.10300
H 	H 	0.71310 0.74330 0.54230 -0.01500
C 	C 	0.33690 0.77565 0.51080 -0.04500
H 	H 	0.37370 0.78270 0.53830 0.04300
H 	H 	0.37410 0.79090 0.48930 0.05100
C 	C 	0.26540 0.71180 0.48940 -0.02800
H 	H 	0.27770 0.70400 0.46020 0.04400
H 	H 	0.26870 0.68730 0.50620 0.04000
C 	C 	0.99490 0.71008 0.58589 0.32500
C 	C 	0.04960 0.74572 0.60551 -0.09100
C 	C 	0.15810 0.74398 0.62189 0.01700
H 	H 	0.19960 0.72040 0.62020 0.04000
C 	C 	0.20600 0.77769 0.64115 -0.08300
H 	H 	0.28100 0.77720 0.65200 0.05600
C 	C 	0.14390 0.81120 0.64418 0.01900
H 	H 	0.17590 0.83350 0.65820 0.04100
C 	C 	0.03840 0.81334 0.62773 -0.09300
C 	C 	0.99170 0.78059 0.60860 0.03100
H 	H 	0.91740 0.78190 0.59720 0.04800
C 	C 	0.97130 0.84993 0.63255 0.31000
C 	C 	0.75060 0.60096 0.58905 0.32800
C 	C 	0.70450 0.58067 0.62629 -0.09300
C 	C 	0.70420 0.59851 0.66550 0.02100
H 	H 	0.73880 0.62340 0.67010 0.04000
C 	C 	0.65350 0.57995 0.69777 -0.08500
H 	H 	0.65270 0.59240 0.72440 0.06000
C 	C 	0.60430 0.54378 0.69182 0.02000
H 	H 	0.56960 0.53140 0.71420 0.03800
C 	C 	0.60520 0.52521 0.65295 -0.09500
C 	C 	0.65560 0.54382 0.62095 0.02900
H 	H 	0.65710 0.53110 0.59450 0.04600
C 	C 	0.54910 0.48673 0.64570 0.30900
C 	C 	0.21110 0.45761 0.62410 0.11000
H 	H 	0.20510 0.46230 0.65320 -0.02800
C 	C 	0.12370 0.46853 0.59751 -0.19300
H 	H 	0.05970 0.48010 0.60810 0.09700
C 	C 	0.12970 0.46246 0.55441 0.17200
C 	C 	0.22830 0.44628 0.54187 -0.20300
H 	H 	0.23860 0.44270 0.51290 0.11600
C 	C 	0.31050 0.43552 0.57120 0.12600
H 	H 	0.37530 0.42360 0.56150 -0.01900
C 	C 	0.04670 0.46751 0.48065 -0.06000
H 	H 	0.11240 0.45190 0.47400 0.05400
H 	H 	0.97990 0.45420 0.46810 0.05500
C 	C 	0.94540 0.49360 0.53651 -0.03200
H 	H 	0.87670 0.48080 0.52480 0.04900
H 	H 	0.94140 0.49530 0.56730 0.03700
Zn	Zn	0.32687 0.16579 0.54966 1.21000
Zn	Zn	0.92316 0.92325 0.65511 1.21000
O 	O 	0.39450 0.21426 0.57213 -0.45000
O 	O 	0.54870 0.17889 0.58360 -0.30700
O 	O 	0.52540 0.38041 0.64607 -0.44800
O 	O 	0.36900 0.34973 0.62392 -0.32200
O 	O 	0.30180 0.13346 0.59811 -0.45000
O 	O 	0.23450 0.08760 0.55381 -0.32800
O 	O 	0.05830 0.96919 0.61153 -0.31400
O 	O 	0.99500 0.97292 0.67541 -0.44100
N 	N 	0.39570 0.14844 0.49763 -0.28600
N 	N 	0.54860 0.11685 0.38907 -0.12600
N 	N 	0.66940 0.10725 0.31530 -0.12900
N 	N 	0.84010 0.08867 0.20714 -0.27800
N 	N 	0.17510 0.18773 0.53021 -0.27400
N 	N 	0.85940 0.23475 0.50356 -0.12600
N 	N 	0.80500 0.94073 0.61249 -0.28600
N 	N 	0.54010 0.97020 0.52679 -0.12600
C 	C 	0.34180 0.15057 0.45946 0.09900
H 	H 	0.26730 0.15960 0.45780 -0.01600
C 	C 	0.38860 0.14034 0.42279 -0.18400
H 	H 	0.34630 0.14220 0.39680 0.10200
C 	C 	0.49740 0.12730 0.42385 0.15700
C 	C 	0.55470 0.12480 0.46395 -0.17600
H 	H 	0.62930 0.11590 0.46660 0.08900
C 	C 	0.50120 0.13533 0.49878 0.09000
H 	H 	0.54070 0.13330 0.52530 -0.00900
C 	C 	0.66450 0.10345 0.39140 -0.04500
H 	H 	0.71420 0.12640 0.39610 0.05200
H 	H 	0.67710 0.08540 0.41560 0.04400
C 	C 	0.69230 0.08308 0.35284 -0.04600
H 	H 	0.77180 0.07600 0.35500 0.05200
H 	H 	0.64890 0.05840 0.35000 0.05000
C 	C 	0.58200 0.13560 0.31709 -0.03300
H 	H 	0.54610 0.13930 0.28870 0.03300
H 	H 	0.61360 0.16120 0.32660 0.04200
C 	C 	0.49670 0.12263 0.34651 -0.05300
H 	H 	0.43780 0.14280 0.34730 0.04200
H 	H 	0.46230 0.09770 0.33630 0.05100
C 	C 	0.72550 0.10159 0.28020 0.17100
C 	C 	0.71460 0.12681 0.24595 -0.19300
H 	H 	0.66660 0.14890 0.24650 0.09200
C 	C 	0.77300 0.11991 0.21144 0.10100
H 	H 	0.76580 0.13830 0.18900 -0.01400
C 	C 	0.84860 0.06456 0.24052 0.10200
H 	H 	0.89530 0.04220 0.23900 -0.00800
C 	C 	0.79550 0.06983 0.27610 -0.20100
H 	H 	0.80640 0.05160 0.29850 0.10200
C 	C 	0.08900 0.16504 0.51608 0.10300
H 	H 	0.10130 0.13760 0.51290 -0.01200
C 	C 	0.98620 0.17933 0.50622 -0.18100
H 	H 	0.92920 0.16200 0.49580 0.09300
C 	C 	0.96280 0.21966 0.51123 0.16300
C 	C 	0.05310 0.24265 0.52488 -0.19000
H 	H 	0.04380 0.27020 0.52820 0.08800
C 	C 	0.15360 0.22640 0.53343 0.10300
H 	H 	0.21310 0.24330 0.54230 -0.01500
C 	C 	0.83690 0.27565 0.51080 -0.04500
H 	H 	0.87370 0.28270 0.53830 0.04300
H 	H 	0.87410 0.29090 0.48930 0.05100
C 	C 	0.76540 0.21180 0.48940 -0.02800
H 	H 	0.77770 0.20400 0.46020 0.04400
H 	H 	0.76870 0.18730 0.50620 0.04000
C 	C 	0.49490 0.21008 0.58589 0.32600
C 	C 	0.54960 0.24572 0.60551 -0.09200
C 	C 	0.65810 0.24398 0.62189 0.01800
H 	H 	0.69960 0.22040 0.62020 0.04000
C 	C 	0.70600 0.27769 0.64115 -0.08400
H 	H 	0.78100 0.27720 0.65200 0.05600
C 	C 	0.64390 0.31120 0.64418 0.02000
H 	H 	0.67590 0.33350 0.65820 0.04000
C 	C 	0.53840 0.31334 0.62773 -0.09400
C 	C 	0.49170 0.28059 0.60860 0.03300
H 	H 	0.41740 0.28190 0.59720 0.04800
C 	C 	0.47130 0.34993 0.63255 0.31100
C 	C 	0.25060 0.10096 0.58905 0.32800
C 	C 	0.20450 0.08067 0.62629 -0.09300
C 	C 	0.20420 0.09851 0.66550 0.02100
H 	H 	0.23880 0.12340 0.67010 0.04000
C 	C 	0.15350 0.07995 0.69777 -0.08500
H 	H 	0.15270 0.09240 0.72440 0.06000
C 	C 	0.10430 0.04378 0.69182 0.02000
H 	H 	0.06960 0.03140 0.71420 0.03800
C 	C 	0.10520 0.02521 0.65295 -0.09500
C 	C 	0.15560 0.04382 0.62095 0.02900
H 	H 	0.15710 0.03110 0.59450 0.04600
C 	C 	0.04910 0.98673 0.64570 0.30900
C 	C 	0.71110 0.95761 0.62410 0.11000
H 	H 	0.70510 0.96230 0.65320 -0.02800
C 	C 	0.62370 0.96853 0.59751 -0.19300
H 	H 	0.55970 0.98010 0.60810 0.09700
C 	C 	0.62970 0.96246 0.55441 0.17200
C 	C 	0.72830 0.94628 0.54187 -0.20300
H 	H 	0.73860 0.94270 0.51290 0.11600
C 	C 	0.81050 0.93552 0.57120 0.12600
H 	H 	0.87530 0.92360 0.56150 -0.01900
C 	C 	0.54670 0.96751 0.48065 -0.06000
H 	H 	0.61240 0.95190 0.47400 0.05400
H 	H 	0.47990 0.95420 0.46810 0.05500
C 	C 	0.44540 0.99360 0.53651 -0.03200
H 	H 	0.37670 0.98080 0.52480 0.04900
H 	H 	0.44140 0.99530 0.56730 0.03700
Zn	Zn	0.17313 0.66579 0.95034 1.21000
Zn	Zn	0.57684 0.42325 0.84489 1.21000
O 	O 	0.10550 0.71426 0.92787 -0.44900
O 	O 	0.95130 0.67889 0.91640 -0.30600
O 	O 	0.97460 0.88041 0.85393 -0.44800
O 	O 	0.13100 0.84973 0.87608 -0.32200
O 	O 	0.19820 0.63346 0.90189 -0.45000
O 	O 	0.26550 0.58760 0.94619 -0.32800
O 	O 	0.44170 0.46919 0.88847 -0.31400
O 	O 	0.50500 0.47292 0.82459 -0.44100
N 	N 	0.10430 0.64844 0.00237 -0.28600
N 	N 	0.95140 0.61685 0.11093 -0.12600
N 	N 	0.83060 0.60725 0.18470 -0.12900
N 	N 	0.65990 0.58867 0.29286 -0.27700
N 	N 	0.32490 0.68773 0.96979 -0.27500
N 	N 	0.64060 0.73475 0.99644 -0.12600
N 	N 	0.69500 0.44073 0.88751 -0.28600
N 	N 	0.95990 0.47020 0.97321 -0.12500
C 	C 	0.15820 0.65057 0.04054 0.09900
H 	H 	0.23270 0.65960 0.04220 -0.01600
C 	C 	0.11140 0.64034 0.07721 -0.18400
H 	H 	0.15370 0.64220 0.10320 0.10200
C 	C 	0.00260 0.62730 0.07615 0.15700
C 	C 	0.94530 0.62480 0.03605 -0.17600
H 	H 	0.87070 0.61590 0.03340 0.08800
C 	C 	0.99880 0.63533 0.00122 0.08900
H 	H 	0.95930 0.63330 0.97470 -0.00900
C 	C 	0.83550 0.60345 0.10860 -0.04500
H 	H 	0.78580 0.62640 0.10390 0.05200
H 	H 	0.82290 0.58540 0.08440 0.04400
C 	C 	0.80770 0.58308 0.14716 -0.04600
H 	H 	0.72820 0.57600 0.14500 0.05200
H 	H 	0.85110 0.55840 0.15000 0.05000
C 	C 	0.91800 0.63560 0.18291 -0.03400
H 	H 	0.95390 0.63930 0.21130 0.03300
H 	H 	0.88640 0.66120 0.17340 0.04200
C 	C 	0.00330 0.62263 0.15349 -0.05300
H 	H 	0.06220 0.64280 0.15270 0.04200
H 	H 	0.03770 0.59770 0.16370 0.05100
C 	C 	0.77450 0.60159 0.21980 0.17100
C 	C 	0.78540 0.62681 0.25405 -0.19300
H 	H 	0.83340 0.64890 0.25350 0.09200
C 	C 	0.72700 0.61991 0.28856 0.10100
H 	H 	0.73420 0.63830 0.31100 -0.01400
C 	C 	0.65140 0.56456 0.25948 0.10200
H 	H 	0.60470 0.54220 0.26100 -0.00800
C 	C 	0.70450 0.56983 0.22390 -0.20100
H 	H 	0.69360 0.55160 0.20150 0.10200
C 	C 	0.41100 0.66504 0.98392 0.10300
H 	H 	0.39870 0.63760 0.98710 -0.01200
C 	C 	0.51380 0.67933 0.99378 -0.18200
H 	H 	0.57080 0.66200 0.00420 0.09400
C 	C 	0.53720 0.71966 0.98877 0.16300
C 	C 	0.44690 0.74265 0.97512 -0.18900
H 	H 	0.45620 0.77020 0.97180 0.08800
C 	C 	0.34640 0.72640 0.96657 0.10300
H 	H 	0.28690 0.74330 0.95770 -0.01500
C 	C 	0.66310 0.77565 0.98920 -0.04600
H 	H 	0.62630 0.78270 0.96170 0.04400
H 	H 	0.62590 0.79090 0.01070 0.05100
C 	C 	0.73460 0.71180 0.01060 -0.02800
H 	H 	0.72230 0.70400 0.03980 0.04400
H 	H 	0.73130 0.68730 0.99380 0.04000
C 	C 	0.00510 0.71008 0.91411 0.32400
C 	C 	0.95040 0.74572 0.89449 -0.08900
C 	C 	0.84190 0.74398 0.87811 0.01500
H 	H 	0.80040 0.72040 0.87980 0.04100
C 	C 	0.79400 0.77769 0.85885 -0.08200
H 	H 	0.71900 0.77720 0.84800 0.05500
C 	C 	0.85610 0.81120 0.85582 0.01700
H 	H 	0.82410 0.83350 0.84180 0.04100
C 	C 	0.96160 0.81334 0.87227 -0.09100
C 	C 	0.00830 0.78059 0.89140 0.02900
H 	H 	0.08260 0.78190 0.90280 0.04900
C 	C 	0.02870 0.84993 0.86745 0.30900
C 	C 	0.24940 0.60096 0.91095 0.32800
C 	C 	0.29550 0.58067 0.87371 -0.09300
C 	C 	0.29580 0.59851 0.83450 0.02100
H 	H 	0.26120 0.62340 0.82990 0.04000
C 	C 	0.34650 0.57995 0.80223 -0.08500
H 	H 	0.34730 0.59240 0.77560 0.06000
C 	C 	0.39570 0.54378 0.80818 0.02000
H 	H 	0.43040 0.53140 0.78580 0.03800
C 	C 	0.39480 0.52521 0.84705 -0.09500
C 	C 	0.34440 0.54382 0.87905 0.02900
H 	H 	0.34290 0.53110 0.90550 0.04600
C 	C 	0.45090 0.48673 0.85430 0.30900
C 	C 	0.78890 0.45761 0.87590 0.11000
H 	H 	0.79490 0.46230 0.84680 -0.02800
C 	C 	0.87630 0.46853 0.90249 -0.19300
H 	H 	0.94030 0.48010 0.89190 0.09700
C 	C 	0.87030 0.46246 0.94559 0.17200
C 	C 	0.77170 0.44628 0.95813 -0.20300
H 	H 	0.76140 0.44270 0.98710 0.11600
C 	C 	0.68950 0.43552 0.92880 0.12600
H 	H 	0.62470 0.42360 0.93850 -0.01900
C 	C 	0.95330 0.46751 0.01935 -0.06100
H 	H 	0.88760 0.45190 0.02600 0.05400
H 	H 	0.02010 0.45420 0.03190 0.05600
C 	C 	0.05460 0.49360 0.96349 -0.03100
H 	H 	0.12330 0.48080 0.97520 0.04900
H 	H 	0.05860 0.49530 0.93270 0.03700
Zn	Zn	0.67313 0.16579 0.95034 1.21000
Zn	Zn	0.07684 0.92325 0.84489 1.21000
O 	O 	0.60550 0.21426 0.92787 -0.45000
O 	O 	0.45130 0.17889 0.91640 -0.30700
O 	O 	0.47460 0.38041 0.85393 -0.44800
O 	O 	0.63100 0.34973 0.87608 -0.32200
O 	O 	0.69820 0.13346 0.90189 -0.45000
O 	O 	0.76550 0.08760 0.94619 -0.32800
O 	O 	0.94170 0.96919 0.88847 -0.31400
O 	O 	0.00500 0.97292 0.82459 -0.44100
N 	N 	0.60430 0.14844 0.00237 -0.28600
N 	N 	0.45140 0.11685 0.11093 -0.12600
N 	N 	0.33060 0.10725 0.18470 -0.12900
N 	N 	0.15990 0.08867 0.29286 -0.27700
N 	N 	0.82490 0.18773 0.96979 -0.27500
N 	N 	0.14060 0.23475 0.99644 -0.12700
N 	N 	0.19500 0.94073 0.88751 -0.28600
N 	N 	0.45990 0.97020 0.97321 -0.12600
C 	C 	0.65820 0.15057 0.04054 0.09900
H 	H 	0.73270 0.15960 0.04220 -0.01600
C 	C 	0.61140 0.14034 0.07721 -0.18400
H 	H 	0.65370 0.14220 0.10320 0.10200
C 	C 	0.50260 0.12730 0.07615 0.15700
C 	C 	0.44530 0.12480 0.03605 -0.17600
H 	H 	0.37070 0.11590 0.03340 0.08900
C 	C 	0.49880 0.13533 0.00122 0.09000
H 	H 	0.45930 0.13330 0.97470 -0.00900
C 	C 	0.33550 0.10345 0.10860 -0.04500
H 	H 	0.28580 0.12640 0.10390 0.05200
H 	H 	0.32290 0.08540 0.08440 0.04400
C 	C 	0.30770 0.08308 0.14716 -0.04600
H 	H 	0.22820 0.07600 0.14500 0.05200
H 	H 	0.35110 0.05840 0.15000 0.05000
C 	C 	0.41800 0.13560 0.18291 -0.03300
H 	H 	0.45390 0.13930 0.21130 0.03300
H 	H 	0.38640 0.16120 0.17340 0.04200
C 	C 	0.50330 0.12263 0.15349 -0.05300
H 	H 	0.56220 0.14280 0.15270 0.04200
H 	H 	0.53770 0.09770 0.16370 0.05100
C 	C 	0.27450 0.10159 0.21980 0.17100
C 	C 	0.28540 0.12681 0.25405 -0.19300
H 	H 	0.33340 0.14890 0.25350 0.09200
C 	C 	0.22700 0.11991 0.28856 0.10100
H 	H 	0.23420 0.13830 0.31100 -0.01400
C 	C 	0.15140 0.06456 0.25948 0.10200
H 	H 	0.10470 0.04220 0.26100 -0.00800
C 	C 	0.20450 0.06983 0.22390 -0.20100
H 	H 	0.19360 0.05160 0.20150 0.10200
C 	C 	0.91100 0.16504 0.98392 0.10400
H 	H 	0.89870 0.13760 0.98710 -0.01200
C 	C 	0.01380 0.17933 0.99378 -0.18300
H 	H 	0.07080 0.16200 0.00420 0.09400
C 	C 	0.03720 0.21966 0.98877 0.16300
C 	C 	0.94690 0.24265 0.97512 -0.19000
H 	H 	0.95620 0.27020 0.97180 0.08800
C 	C 	0.84640 0.22640 0.96657 0.10300
H 	H 	0.78690 0.24330 0.95770 -0.01500
C 	C 	0.16310 0.27565 0.98920 -0.04600
H 	H 	0.12630 0.28270 0.96170 0.04300
H 	H 	0.12590 0.29090 0.01070 0.05100
C 	C 	0.23460 0.21180 0.01060 -0.02700
H 	H 	0.22230 0.20400 0.03980 0.04300
H 	H 	0.23130 0.18730 0.99380 0.04000
C 	C 	0.50510 0.21008 0.91411 0.32600
C 	C 	0.45040 0.24572 0.89449 -0.09200
C 	C 	0.34190 0.24398 0.87811 0.01800
H 	H 	0.30040 0.22040 0.87980 0.04000
C 	C 	0.29400 0.27769 0.85885 -0.08400
H 	H 	0.21900 0.27720 0.84800 0.05600
C 	C 	0.35610 0.31120 0.85582 0.02000
H 	H 	0.32410 0.33350 0.84180 0.04000
C 	C 	0.46160 0.31334 0.87227 -0.09400
C 	C 	0.50830 0.28059 0.89140 0.03300
H 	H 	0.58260 0.28190 0.90280 0.04800
C 	C 	0.52870 0.34993 0.86745 0.31100
C 	C 	0.74940 0.10096 0.91095 0.32800
C 	C 	0.79550 0.08067 0.87371 -0.09300
C 	C 	0.79580 0.09851 0.83450 0.02100
H 	H 	0.76120 0.12340 0.82990 0.04000
C 	C 	0.84650 0.07995 0.80223 -0.08500
H 	H 	0.84730 0.09240 0.77560 0.06000
C 	C 	0.89570 0.04378 0.80818 0.02000
H 	H 	0.93040 0.03140 0.78580 0.03800
C 	C 	0.89480 0.02521 0.84705 -0.09500
C 	C 	0.84440 0.04382 0.87905 0.02900
H 	H 	0.84290 0.03110 0.90550 0.04600
C 	C 	0.95090 0.98673 0.85430 0.30900
C 	C 	0.28890 0.95761 0.87590 0.11000
H 	H 	0.29490 0.96230 0.84680 -0.02800
C 	C 	0.37630 0.96853 0.90249 -0.19300
H 	H 	0.44030 0.98010 0.89190 0.09700
C 	C 	0.37030 0.96246 0.94559 0.17200
C 	C 	0.27170 0.94628 0.95813 -0.20300
H 	H 	0.26140 0.94270 0.98710 0.11600
C 	C 	0.18950 0.93552 0.92880 0.12600
H 	H 	0.12470 0.92360 0.93850 -0.01900
C 	C 	0.45330 0.96751 0.01935 -0.05900
H 	H 	0.38760 0.95190 0.02600 0.05400
H 	H 	0.52010 0.95420 0.03190 0.05500
C 	C 	0.55460 0.99360 0.96349 -0.03200
H 	H 	0.62330 0.98080 0.97520 0.04900
H 	H 	0.55860 0.99530 0.93270 0.03700
Zn	Zn	0.17313 0.33421 0.45034 1.21000
Zn	Zn	0.57684 0.57675 0.34489 1.21000
O 	O 	0.10550 0.28574 0.42787 -0.45000
O 	O 	0.95130 0.32111 0.41640 -0.30700
O 	O 	0.97460 0.11959 0.35393 -0.44800
O 	O 	0.13100 0.15027 0.37608 -0.32200
O 	O 	0.19820 0.36654 0.40189 -0.45000
O 	O 	0.26550 0.41240 0.44619 -0.32800
O 	O 	0.44170 0.53081 0.38847 -0.31400
O 	O 	0.50500 0.52708 0.32459 -0.44100
N 	N 	0.10430 0.35156 0.50237 -0.28600
N 	N 	0.95140 0.38315 0.61093 -0.12500
N 	N 	0.83060 0.39275 0.68470 -0.12900
N 	N 	0.65990 0.41133 0.79286 -0.27700
N 	N 	0.32490 0.31227 0.46979 -0.27500
N 	N 	0.64060 0.26525 0.49644 -0.12600
N 	N 	0.69500 0.55927 0.38751 -0.28600
N 	N 	0.95990 0.52980 0.47321 -0.12600
C 	C 	0.15820 0.34943 0.54054 0.09800
H 	H 	0.23270 0.34040 0.54220 -0.01600
C 	C 	0.11140 0.35966 0.57721 -0.18400
H 	H 	0.15370 0.35780 0.60320 0.10200
C 	C 	0.00260 0.37270 0.57615 0.15700
C 	C 	0.94530 0.37520 0.53605 -0.17600
H 	H 	0.87070 0.38410 0.53340 0.08800
C 	C 	0.99880 0.36467 0.50122 0.09000
H 	H 	0.95930 0.36670 0.47470 -0.00900
C 	C 	0.83550 0.39655 0.60860 -0.04500
H 	H 	0.78580 0.37360 0.60390 0.05200
H 	H 	0.82290 0.41460 0.58440 0.04400
C 	C 	0.80770 0.41692 0.64716 -0.04600
H 	H 	0.72820 0.42400 0.64500 0.05200
H 	H 	0.85110 0.44160 0.65000 0.05000
C 	C 	0.91800 0.36440 0.68291 -0.03300
H 	H 	0.95390 0.36070 0.71130 0.03300
H 	H 	0.88640 0.33880 0.67340 0.04200
C 	C 	0.00330 0.37737 0.65349 -0.05400
H 	H 	0.06220 0.35720 0.65270 0.04200
H 	H 	0.03770 0.40230 0.66370 0.05100
C 	C 	0.77450 0.39841 0.71980 0.17100
C 	C 	0.78540 0.37319 0.75405 -0.19300
H 	H 	0.83340 0.35110 0.75350 0.09200
C 	C 	0.72700 0.38009 0.78856 0.10100
H 	H 	0.73420 0.36170 0.81100 -0.01400
C 	C 	0.65140 0.43544 0.75948 0.10200
H 	H 	0.60470 0.45780 0.76100 -0.00800
C 	C 	0.70450 0.43017 0.72390 -0.20100
H 	H 	0.69360 0.44840 0.70150 0.10200
C 	C 	0.41100 0.33496 0.48392 0.10300
H 	H 	0.39870 0.36240 0.48710 -0.01200
C 	C 	0.51380 0.32067 0.49378 -0.18200
H 	H 	0.57080 0.33800 0.50420 0.09400
C 	C 	0.53720 0.28034 0.48877 0.16300
C 	C 	0.44690 0.25735 0.47512 -0.18900
H 	H 	0.45620 0.22980 0.47180 0.08800
C 	C 	0.34640 0.27360 0.46657 0.10300
H 	H 	0.28690 0.25670 0.45770 -0.01500
C 	C 	0.66310 0.22435 0.48920 -0.04500
H 	H 	0.62630 0.21730 0.46170 0.04300
H 	H 	0.62590 0.20910 0.51070 0.05100
C 	C 	0.73460 0.28820 0.51060 -0.02800
H 	H 	0.72230 0.29600 0.53980 0.04400
H 	H 	0.73130 0.31270 0.49380 0.04000
C 	C 	0.00510 0.28992 0.41411 0.32500
C 	C 	0.95040 0.25428 0.39449 -0.09100
C 	C 	0.84190 0.25602 0.37811 0.01700
H 	H 	0.80040 0.27960 0.37980 0.04000
C 	C 	0.79400 0.22231 0.35885 -0.08300
H 	H 	0.71900 0.22280 0.34800 0.05600
C 	C 	0.85610 0.18880 0.35582 0.01900
H 	H 	0.82410 0.16650 0.34180 0.04100
C 	C 	0.96160 0.18666 0.37227 -0.09300
C 	C 	0.00830 0.21941 0.39140 0.03100
H 	H 	0.08260 0.21810 0.40280 0.04800
C 	C 	0.02870 0.15007 0.36745 0.31000
C 	C 	0.24940 0.39904 0.41095 0.32800
C 	C 	0.29550 0.41933 0.37371 -0.09300
C 	C 	0.29580 0.40149 0.33450 0.02100
H 	H 	0.26120 0.37660 0.32990 0.04000
C 	C 	0.34650 0.42005 0.30223 -0.08500
H 	H 	0.34730 0.40760 0.27560 0.06000
C 	C 	0.39570 0.45622 0.30818 0.02000
H 	H 	0.43040 0.46860 0.28580 0.03800
C 	C 	0.39480 0.47479 0.34705 -0.09500
C 	C 	0.34440 0.45618 0.37905 0.02900
H 	H 	0.34290 0.46890 0.40550 0.04600
C 	C 	0.45090 0.51327 0.35430 0.30900
C 	C 	0.78890 0.54239 0.37590 0.11000
H 	H 	0.79490 0.53770 0.34680 -0.02800
C 	C 	0.87630 0.53147 0.40249 -0.19300
H 	H 	0.94030 0.51990 0.39190 0.09700
C 	C 	0.87030 0.53754 0.44559 0.17200
C 	C 	0.77170 0.55372 0.45813 -0.20300
H 	H 	0.76140 0.55730 0.48710 0.11600
C 	C 	0.68950 0.56448 0.42880 0.12600
H 	H 	0.62470 0.57640 0.43850 -0.01900
C 	C 	0.95330 0.53249 0.51935 -0.06000
H 	H 	0.88760 0.54810 0.52600 0.05400
H 	H 	0.02010 0.54580 0.53190 0.05500
C 	C 	0.05460 0.50640 0.46349 -0.03200
H 	H 	0.12330 0.51920 0.47520 0.04900
H 	H 	0.05860 0.50470 0.43270 0.03700
Zn	Zn	0.67313 0.83421 0.45034 1.21000
Zn	Zn	0.07684 0.07675 0.34489 1.21000
O 	O 	0.60550 0.78574 0.42787 -0.45000
O 	O 	0.45130 0.82111 0.41640 -0.30700
O 	O 	0.47460 0.61959 0.35393 -0.44800
O 	O 	0.63100 0.65027 0.37608 -0.32200
O 	O 	0.69820 0.86654 0.40189 -0.45000
O 	O 	0.76550 0.91240 0.44619 -0.32800
O 	O 	0.94170 0.03081 0.38847 -0.31400
O 	O 	0.00500 0.02708 0.32459 -0.44100
N 	N 	0.60430 0.85156 0.50237 -0.28600
N 	N 	0.45140 0.88315 0.61093 -0.12600
N 	N 	0.33060 0.89275 0.68470 -0.12900
N 	N 	0.15990 0.91133 0.79286 -0.27800
N 	N 	0.82490 0.81227 0.46979 -0.27400
N 	N 	0.14060 0.76525 0.49644 -0.12600
N 	N 	0.19500 0.05927 0.38751 -0.28600
N 	N 	0.45990 0.02980 0.47321 -0.12600
C 	C 	0.65820 0.84943 0.54054 0.09900
H 	H 	0.73270 0.84040 0.54220 -0.01600
C 	C 	0.61140 0.85966 0.57721 -0.18400
H 	H 	0.65370 0.85780 0.60320 0.10200
C 	C 	0.50260 0.87270 0.57615 0.15700
C 	C 	0.44530 0.87520 0.53605 -0.17600
H 	H 	0.37070 0.88410 0.53340 0.08900
C 	C 	0.49880 0.86467 0.50122 0.09000
H 	H 	0.45930 0.86670 0.47470 -0.00900
C 	C 	0.33550 0.89655 0.60860 -0.04500
H 	H 	0.28580 0.87360 0.60390 0.05200
H 	H 	0.32290 0.91460 0.58440 0.04400
C 	C 	0.30770 0.91692 0.64716 -0.04600
H 	H 	0.22820 0.92400 0.64500 0.05200
H 	H 	0.35110 0.94160 0.65000 0.05000
C 	C 	0.41800 0.86440 0.68291 -0.03300
H 	H 	0.45390 0.86070 0.71130 0.03300
H 	H 	0.38640 0.83880 0.67340 0.04200
C 	C 	0.50330 0.87737 0.65349 -0.05300
H 	H 	0.56220 0.85720 0.65270 0.04200
H 	H 	0.53770 0.90230 0.66370 0.05100
C 	C 	0.27450 0.89841 0.71980 0.17100
C 	C 	0.28540 0.87319 0.75405 -0.19300
H 	H 	0.33340 0.85110 0.75350 0.09200
C 	C 	0.22700 0.88009 0.78856 0.10100
H 	H 	0.23420 0.86170 0.81100 -0.01400
C 	C 	0.15140 0.93544 0.75948 0.10200
H 	H 	0.10470 0.95780 0.76100 -0.00800
C 	C 	0.20450 0.93017 0.72390 -0.20100
H 	H 	0.19360 0.94840 0.70150 0.10200
C 	C 	0.91100 0.83496 0.48392 0.10300
H 	H 	0.89870 0.86240 0.48710 -0.01200
C 	C 	0.01380 0.82067 0.49378 -0.18100
H 	H 	0.07080 0.83800 0.50420 0.09300
C 	C 	0.03720 0.78034 0.48877 0.16300
C 	C 	0.94690 0.75735 0.47512 -0.19000
H 	H 	0.95620 0.72980 0.47180 0.08800
C 	C 	0.84640 0.77360 0.46657 0.10300
H 	H 	0.78690 0.75670 0.45770 -0.01500
C 	C 	0.16310 0.72435 0.48920 -0.04500
H 	H 	0.12630 0.71730 0.46170 0.04300
H 	H 	0.12590 0.70910 0.51070 0.05100
C 	C 	0.23460 0.78820 0.51060 -0.02800
H 	H 	0.22230 0.79600 0.53980 0.04400
H 	H 	0.23130 0.81270 0.49380 0.04000
C 	C 	0.50510 0.78992 0.41411 0.32600
C 	C 	0.45040 0.75428 0.39449 -0.09200
C 	C 	0.34190 0.75602 0.37811 0.01800
H 	H 	0.30040 0.77960 0.37980 0.04000
C 	C 	0.29400 0.72231 0.35885 -0.08400
H 	H 	0.21900 0.72280 0.34800 0.05600
C 	C 	0.35610 0.68880 0.35582 0.02000
H 	H 	0.32410 0.66650 0.34180 0.04000
C 	C 	0.46160 0.68666 0.37227 -0.09400
C 	C 	0.50830 0.71941 0.39140 0.03300
H 	H 	0.58260 0.71810 0.40280 0.04800
C 	C 	0.52870 0.65007 0.36745 0.31100
C 	C 	0.74940 0.89904 0.41095 0.32800
C 	C 	0.79550 0.91933 0.37371 -0.09300
C 	C 	0.79580 0.90149 0.33450 0.02100
H 	H 	0.76120 0.87660 0.32990 0.04000
C 	C 	0.84650 0.92005 0.30223 -0.08500
H 	H 	0.84730 0.90760 0.27560 0.06000
C 	C 	0.89570 0.95622 0.30818 0.02000
H 	H 	0.93040 0.96860 0.28580 0.03800
C 	C 	0.89480 0.97479 0.34705 -0.09500
C 	C 	0.84440 0.95618 0.37905 0.02900
H 	H 	0.84290 0.96890 0.40550 0.04600
C 	C 	0.95090 0.01327 0.35430 0.30900
C 	C 	0.28890 0.04239 0.37590 0.11000
H 	H 	0.29490 0.03770 0.34680 -0.02800
C 	C 	0.37630 0.03147 0.40249 -0.19300
H 	H 	0.44030 0.01990 0.39190 0.09700
C 	C 	0.37030 0.03754 0.44559 0.17200
C 	C 	0.27170 0.05372 0.45813 -0.20300
H 	H 	0.26140 0.05730 0.48710 0.11600
C 	C 	0.18950 0.06448 0.42880 0.12600
H 	H 	0.12470 0.07640 0.43850 -0.01900
C 	C 	0.45330 0.03249 0.51935 -0.06000
H 	H 	0.38760 0.04810 0.52600 0.05400
H 	H 	0.52010 0.04580 0.53190 0.05500
C 	C 	0.55460 0.00640 0.46349 -0.03200
H 	H 	0.62330 0.01920 0.47520 0.04900
H 	H 	0.55860 0.00470 0.43270 0.03700
Zn	Zn	0.82687 0.33421 0.04966 1.21000
Zn	Zn	0.42316 0.57675 0.15511 1.21000
O 	O 	0.89450 0.28574 0.07213 -0.44900
O 	O 	0.04870 0.32111 0.08360 -0.30600
O 	O 	0.02540 0.11959 0.14607 -0.44800
O 	O 	0.86900 0.15027 0.12392 -0.32200
O 	O 	0.80180 0.36654 0.09811 -0.45000
O 	O 	0.73450 0.41240 0.05381 -0.32800
O 	O 	0.55830 0.53081 0.11153 -0.31400
O 	O 	0.49500 0.52708 0.17541 -0.44100
N 	N 	0.89570 0.35156 0.99763 -0.28600
N 	N 	0.04860 0.38315 0.88907 -0.12600
N 	N 	0.16940 0.39275 0.81530 -0.12900
N 	N 	0.34010 0.41133 0.70714 -0.27700
N 	N 	0.67510 0.31227 0.03021 -0.27500
N 	N 	0.35940 0.26525 0.00356 -0.12600
N 	N 	0.30500 0.55927 0.11249 -0.28600
N 	N 	0.04010 0.52980 0.02679 -0.12500
C 	C 	0.84180 0.34943 0.95946 0.09900
H 	H 	0.76730 0.34040 0.95780 -0.01600
C 	C 	0.88860 0.35966 0.92279 -0.18400
H 	H 	0.84630 0.35780 0.89680 0.10200
C 	C 	0.99740 0.37270 0.92385 0.15700
C 	C 	0.05470 0.37520 0.96395 -0.17600
H 	H 	0.12930 0.38410 0.96660 0.08800
C 	C 	0.00120 0.36467 0.99878 0.08900
H 	H 	0.04070 0.36670 0.02530 -0.00900
C 	C 	0.16450 0.39655 0.89140 -0.04500
H 	H 	0.21420 0.37360 0.89610 0.05200
H 	H 	0.17710 0.41460 0.91560 0.04400
C 	C 	0.19230 0.41692 0.85284 -0.04600
H 	H 	0.27180 0.42400 0.85500 0.05200
H 	H 	0.14890 0.44160 0.85000 0.05000
C 	C 	0.08200 0.36440 0.81709 -0.03400
H 	H 	0.04610 0.36070 0.78870 0.03300
H 	H 	0.11360 0.33880 0.82660 0.04200
C 	C 	0.99670 0.37737 0.84651 -0.05300
H 	H 	0.93780 0.35720 0.84730 0.04200
H 	H 	0.96230 0.40230 0.83630 0.05100
C 	C 	0.22550 0.39841 0.78020 0.17100
C 	C 	0.21460 0.37319 0.74595 -0.19300
H 	H 	0.16660 0.35110 0.74650 0.09200
C 	C 	0.27300 0.38009 0.71144 0.10100
H 	H 	0.26580 0.36170 0.68900 -0.01400
C 	C 	0.34860 0.43544 0.74052 0.10200
H 	H 	0.39530 0.45780 0.73900 -0.00800
C 	C 	0.29550 0.43017 0.77610 -0.20100
H 	H 	0.30640 0.44840 0.79850 0.10200
C 	C 	0.58900 0.33496 0.01608 0.10300
H 	H 	0.60130 0.36240 0.01290 -0.01200
C 	C 	0.48620 0.32067 0.00622 -0.18200
H 	H 	0.42920 0.33800 0.99580 0.09400
C 	C 	0.46280 0.28034 0.01123 0.16300
C 	C 	0.55310 0.25735 0.02488 -0.18900
H 	H 	0.54380 0.22980 0.02820 0.08800
C 	C 	0.65360 0.27360 0.03343 0.10300
H 	H 	0.71310 0.25670 0.04230 -0.01500
C 	C 	0.33690 0.22435 0.01080 -0.04600
H 	H 	0.37370 0.21730 0.03830 0.04400
H 	H 	0.37410 0.20910 0.98930 0.05100
C 	C 	0.26540 0.28820 0.98940 -0.02800
H 	H 	0.27770 0.29600 0.96020 0.04400
H 	H 	0.26870 0.31270 0.00620 0.04000
C 	C 	0.99490 0.28992 0.08589 0.32400
C 	C 	0.04960 0.25428 0.10551 -0.08900
C 	C 	0.15810 0.25602 0.12189 0.01500
H 	H 	0.19960 0.27960 0.12020 0.04100
C 	C 	0.20600 0.22231 0.14115 -0.08200
H 	H 	0.28100 0.22280 0.15200 0.05500
C 	C 	0.14390 0.18880 0.14418 0.01700
H 	H 	0.17590 0.16650 0.15820 0.04100
C 	C 	0.03840 0.18666 0.12773 -0.09100
C 	C 	0.99170 0.21941 0.10860 0.02900
H 	H 	0.91740 0.21810 0.09720 0.04900
C 	C 	0.97130 0.15007 0.13255 0.30900
C 	C 	0.75060 0.39904 0.08905 0.32800
C 	C 	0.70450 0.41933 0.12629 -0.09300
C 	C 	0.70420 0.40149 0.16550 0.02100
H 	H 	0.73880 0.37660 0.17010 0.04000
C 	C 	0.65350 0.42005 0.19777 -0.08500
H 	H 	0.65270 0.40760 0.22440 0.06000
C 	C 	0.60430 0.45622 0.19182 0.02000
H 	H 	0.56960 0.46860 0.21420 0.03800
C 	C 	0.60520 0.47479 0.15295 -0.09500
C 	C 	0.65560 0.45618 0.12095 0.02900
H 	H 	0.65710 0.46890 0.09450 0.04600
C 	C 	0.54910 0.51327 0.14570 0.30900
C 	C 	0.21110 0.54239 0.12410 0.11000
H 	H 	0.20510 0.53770 0.15320 -0.02800
C 	C 	0.12370 0.53147 0.09751 -0.19300
H 	H 	0.05970 0.51990 0.10810 0.09700
C 	C 	0.12970 0.53754 0.05441 0.17200
C 	C 	0.22830 0.55372 0.04187 -0.20300
H 	H 	0.23860 0.55730 0.01290 0.11600
C 	C 	0.31050 0.56448 0.07120 0.12600
H 	H 	0.37530 0.57640 0.06150 -0.01900
C 	C 	0.04670 0.53249 0.98065 -0.06100
H 	H 	0.11240 0.54810 0.97400 0.05400
H 	H 	0.97990 0.54580 0.96810 0.05600
C 	C 	0.94540 0.50640 0.03651 -0.03100
H 	H 	0.87670 0.51920 0.02480 0.04900
H 	H 	0.94140 0.50470 0.06730 0.03700
Zn	Zn	0.32687 0.83421 0.04966 1.21000
Zn	Zn	0.92316 0.07675 0.15511 1.21000
O 	O 	0.39450 0.78574 0.07213 -0.45000
O 	O 	0.54870 0.82111 0.08360 -0.30700
O 	O 	0.52540 0.61959 0.14607 -0.44800
O 	O 	0.36900 0.65027 0.12392 -0.32200
O 	O 	0.30180 0.86654 0.09811 -0.45000
O 	O 	0.23450 0.91240 0.05381 -0.32800
O 	O 	0.05830 0.03081 0.11153 -0.31400
O 	O 	0.99500 0.02708 0.17541 -0.44100
N 	N 	0.39570 0.85156 0.99763 -0.28600
N 	N 	0.54860 0.88315 0.88907 -0.12600
N 	N 	0.66940 0.89275 0.81530 -0.12900
N 	N 	0.84010 0.91133 0.70714 -0.27700
N 	N 	0.17510 0.81227 0.03021 -0.27500
N 	N 	0.85940 0.76525 0.00356 -0.12700
N 	N 	0.80500 0.05927 0.11249 -0.28600
N 	N 	0.54010 0.02980 0.02679 -0.12600
C 	C 	0.34180 0.84943 0.95946 0.09900
H 	H 	0.26730 0.84040 0.95780 -0.01600
C 	C 	0.38860 0.85966 0.92279 -0.18400
H 	H 	0.34630 0.85780 0.89680 0.10200
C 	C 	0.49740 0.87270 0.92385 0.15700
C 	C 	0.55470 0.87520 0.96395 -0.17600
H 	H 	0.62930 0.88410 0.96660 0.08900
C 	C 	0.50120 0.86467 0.99878 0.09000
H 	H 	0.54070 0.86670 0.02530 -0.00900
C 	C 	0.66450 0.89655 0.89140 -0.04500
H 	H 	0.71420 0.87360 0.89610 0.05200
H 	H 	0.67710 0.91460 0.91560 0.04400
C 	C 	0.69230 0.91692 0.85284 -0.04600
H 	H 	0.77180 0.92400 0.85500 0.05200
H 	H 	0.64890 0.94160 0.85000 0.05000
C 	C 	0.58200 0.86440 0.81709 -0.03300
H 	H 	0.54610 0.86070 0.78870 0.03300
H 	H 	0.61360 0.83880 0.82660 0.04200
C 	C 	0.49670 0.87737 0.84651 -0.05300
H 	H 	0.43780 0.85720 0.84730 0.04200
H 	H 	0.46230 0.90230 0.83630 0.05100
C 	C 	0.72550 0.89841 0.78020 0.17100
C 	C 	0.71460 0.87319 0.74595 -0.19300
H 	H 	0.66660 0.85110 0.74650 0.09200
C 	C 	0.77300 0.88009 0.71144 0.10100
H 	H 	0.76580 0.86170 0.68900 -0.01400
C 	C 	0.84860 0.93544 0.74052 0.10200
H 	H 	0.89530 0.95780 0.73900 -0.00800
C 	C 	0.79550 0.93017 0.77610 -0.20100
H 	H 	0.80640 0.94840 0.79850 0.10200
C 	C 	0.08900 0.83496 0.01608 0.10400
H 	H 	0.10130 0.86240 0.01290 -0.01200
C 	C 	0.98620 0.82067 0.00622 -0.18300
H 	H 	0.92920 0.83800 0.99580 0.09400
C 	C 	0.96280 0.78034 0.01123 0.16300
C 	C 	0.05310 0.75735 0.02488 -0.19000
H 	H 	0.04380 0.72980 0.02820 0.08800
C 	C 	0.15360 0.77360 0.03343 0.10300
H 	H 	0.21310 0.75670 0.04230 -0.01500
C 	C 	0.83690 0.72435 0.01080 -0.04600
H 	H 	0.87370 0.71730 0.03830 0.04300
H 	H 	0.87410 0.70910 0.98930 0.05100
C 	C 	0.76540 0.78820 0.98940 -0.02700
H 	H 	0.77770 0.79600 0.96020 0.04300
H 	H 	0.76870 0.81270 0.00620 0.04000
C 	C 	0.49490 0.78992 0.08589 0.32600
C 	C 	0.54960 0.75428 0.10551 -0.09200
C 	C 	0.65810 0.75602 0.12189 0.01800
H 	H 	0.69960 0.77960 0.12020 0.04000
C 	C 	0.70600 0.72231 0.14115 -0.08400
H 	H 	0.78100 0.72280 0.15200 0.05600
C 	C 	0.64390 0.68880 0.14418 0.02000
H 	H 	0.67590 0.66650 0.15820 0.04000
C 	C 	0.53840 0.68666 0.12773 -0.09400
C 	C 	0.49170 0.71941 0.10860 0.03300
H 	H 	0.41740 0.71810 0.09720 0.04800
C 	C 	0.47130 0.65007 0.13255 0.31100
C 	C 	0.25060 0.89904 0.08905 0.32800
C 	C 	0.20450 0.91933 0.12629 -0.09300
C 	C 	0.20420 0.90149 0.16550 0.02100
H 	H 	0.23880 0.87660 0.17010 0.04000
C 	C 	0.15350 0.92005 0.19777 -0.08500
H 	H 	0.15270 0.90760 0.22440 0.06000
C 	C 	0.10430 0.95622 0.19182 0.02000
H 	H 	0.06960 0.96860 0.21420 0.03800
C 	C 	0.10520 0.97479 0.15295 -0.09500
C 	C 	0.15560 0.95618 0.12095 0.02900
H 	H 	0.15710 0.96890 0.09450 0.04600
C 	C 	0.04910 0.01327 0.14570 0.30900
C 	C 	0.71110 0.04239 0.12410 0.11000
H 	H 	0.70510 0.03770 0.15320 -0.02800
C 	C 	0.62370 0.03147 0.09751 -0.19300
H 	H 	0.55970 0.01990 0.10810 0.09700
C 	C 	0.62970 0.03754 0.05441 0.17200
C 	C 	0.72830 0.05372 0.04187 -0.20300
H 	H 	0.73860 0.05730 0.01290 0.11600
C 	C 	0.81050 0.06448 0.07120 0.12600
H 	H 	0.87530 0.07640 0.06150 -0.01900
C 	C 	0.54670 0.03249 0.98065 -0.05900
H 	H 	0.61240 0.04810 0.97400 0.05400
H 	H 	0.47990 0.04580 0.96810 0.05500
C 	C 	0.44540 0.00640 0.03651 -0.03200
H 	H 	0.37670 0.01920 0.02480 0.04900
H 	H 	0.44140 0.00470 0.06730 0.03700
