data_crystal

_cell_length_a 27.97050
_cell_length_b 27.97050
_cell_length_c 27.97050
_cell_angle_alpha 90.00000
_cell_angle_beta  90.00000
_cell_angle_gamma 90.00000

_symmetry_space_group_name_	'P 1'
_symmetry_space_group_name_H-M	'P 1'

loop_
_symmetry_equiv_pos_as_xyz
  x,y,z

loop_
_atom_site_label
_atom_site_type_symbol
_atom_site_fract_x
_atom_site_fract_y
_atom_site_fract_z
_atom_site_charge
C 	C 	0.24670 0.43850 0.67760 -0.18900
C 	C 	0.28300 0.40600 0.69300 0.15100
H 	H 	0.27900 0.37320 0.68940 -0.00600
C 	C 	0.32430 0.42440 0.71340 -0.28300
H 	H 	0.34800 0.40360 0.72380 0.14900
C 	C 	0.29540 0.50390 0.70300 -0.28000
H 	H 	0.30020 0.53680 0.70500 0.09000
C 	C 	0.33080 0.47300 0.71870 0.28200
C 	C 	0.25360 0.48710 0.68460 0.15800
H 	H 	0.22930 0.50840 0.67670 -0.03200
H 	H 	0.37310 0.48660 0.77610 0.16500
C 	C 	0.20360 0.41970 0.65390 0.35000
O 	O 	0.16640 0.44630 0.65240 -0.42700
O 	O 	0.20160 0.37790 0.63650 -0.37700
C 	C 	0.24670 0.93850 0.17760 -0.18900
C 	C 	0.28300 0.90600 0.19300 0.15100
H 	H 	0.27900 0.87320 0.18940 -0.00600
C 	C 	0.32430 0.92440 0.21340 -0.28300
H 	H 	0.34800 0.90360 0.22380 0.14900
C 	C 	0.29540 0.00390 0.20300 -0.28000
H 	H 	0.30020 0.03680 0.20500 0.09000
C 	C 	0.33080 0.97300 0.21870 0.28200
C 	C 	0.25360 0.98710 0.18460 0.15900
H 	H 	0.22930 0.00840 0.17670 -0.03200
H 	H 	0.37310 0.98660 0.27610 0.16500
C 	C 	0.20360 0.91970 0.15390 0.35000
O 	O 	0.16640 0.94630 0.15240 -0.42700
O 	O 	0.20160 0.87790 0.13650 -0.37700
C 	C 	0.74670 0.43850 0.17760 -0.18900
C 	C 	0.78300 0.40600 0.19300 0.15100
H 	H 	0.77900 0.37320 0.18940 -0.00600
C 	C 	0.82430 0.42440 0.21340 -0.28300
H 	H 	0.84800 0.40360 0.22380 0.14900
C 	C 	0.79540 0.50390 0.20300 -0.28000
H 	H 	0.80020 0.53680 0.20500 0.09000
C 	C 	0.83080 0.47300 0.21870 0.28200
C 	C 	0.75360 0.48710 0.18460 0.15800
H 	H 	0.72930 0.50840 0.17670 -0.03200
H 	H 	0.87310 0.48660 0.27610 0.16500
C 	C 	0.70360 0.41970 0.15390 0.35000
O 	O 	0.66640 0.44630 0.15240 -0.42700
O 	O 	0.70160 0.37790 0.13650 -0.37700
C 	C 	0.74670 0.93850 0.67760 -0.18900
C 	C 	0.78300 0.90600 0.69300 0.15100
H 	H 	0.77900 0.87320 0.68940 -0.00600
C 	C 	0.82430 0.92440 0.71340 -0.28300
H 	H 	0.84800 0.90360 0.72380 0.14900
C 	C 	0.79540 0.00390 0.70300 -0.28000
H 	H 	0.80020 0.03680 0.70500 0.09000
C 	C 	0.83080 0.97300 0.71870 0.28200
C 	C 	0.75360 0.98710 0.68460 0.15900
H 	H 	0.72930 0.00840 0.67670 -0.03200
H 	H 	0.87310 0.98660 0.77610 0.16500
C 	C 	0.70360 0.91970 0.65390 0.35000
O 	O 	0.66640 0.94630 0.65240 -0.42700
O 	O 	0.70160 0.87790 0.63650 -0.37700
C 	C 	0.17760 0.75330 0.06150 -0.18900
C 	C 	0.19300 0.71700 0.09400 0.15100
H 	H 	0.18940 0.72100 0.12680 -0.00600
C 	C 	0.21340 0.67570 0.07560 -0.28300
H 	H 	0.22380 0.65200 0.09640 0.14900
C 	C 	0.20300 0.70460 0.99610 -0.28000
H 	H 	0.20500 0.69980 0.96320 0.09000
C 	C 	0.21870 0.66920 0.02700 0.28200
C 	C 	0.18460 0.74640 0.01290 0.15900
H 	H 	0.17670 0.77070 0.99160 -0.03200
H 	H 	0.27610 0.62690 0.01340 0.16500
C 	C 	0.15390 0.79640 0.08030 0.35000
O 	O 	0.15240 0.83360 0.05370 -0.42700
O 	O 	0.13650 0.79840 0.12210 -0.37700
C 	C 	0.17760 0.25330 0.56150 -0.18900
C 	C 	0.19300 0.21700 0.59400 0.15100
H 	H 	0.18940 0.22100 0.62680 -0.00500
C 	C 	0.21340 0.17570 0.57560 -0.28200
H 	H 	0.22380 0.15200 0.59640 0.15000
C 	C 	0.20300 0.20460 0.49610 -0.27900
H 	H 	0.20500 0.19980 0.46320 0.09100
C 	C 	0.21870 0.16920 0.52700 0.28300
C 	C 	0.18460 0.24640 0.51290 0.15900
H 	H 	0.17670 0.27070 0.49160 -0.03100
H 	H 	0.27610 0.12690 0.51340 0.16600
C 	C 	0.15390 0.29640 0.58030 0.35100
O 	O 	0.15240 0.33360 0.55370 -0.42600
O 	O 	0.13650 0.29840 0.62210 -0.37600
C 	C 	0.67760 0.75330 0.56150 -0.18800
C 	C 	0.69300 0.71700 0.59400 0.15200
H 	H 	0.68940 0.72100 0.62680 -0.00500
C 	C 	0.71340 0.67570 0.57560 -0.28200
H 	H 	0.72380 0.65200 0.59640 0.15000
C 	C 	0.70300 0.70460 0.49610 -0.27900
H 	H 	0.70500 0.69980 0.46320 0.09100
C 	C 	0.71870 0.66920 0.52700 0.28300
C 	C 	0.68460 0.74640 0.51290 0.15900
H 	H 	0.67670 0.77070 0.49160 -0.03100
H 	H 	0.77610 0.62690 0.51340 0.16600
C 	C 	0.65390 0.79640 0.58030 0.35100
O 	O 	0.65240 0.83360 0.55370 -0.42600
O 	O 	0.63650 0.79840 0.62210 -0.37600
C 	C 	0.67760 0.25330 0.06150 -0.18800
C 	C 	0.69300 0.21700 0.09400 0.15200
H 	H 	0.68940 0.22100 0.12680 -0.00500
C 	C 	0.71340 0.17570 0.07560 -0.28200
H 	H 	0.72380 0.15200 0.09640 0.15000
C 	C 	0.70300 0.20460 0.99610 -0.27900
H 	H 	0.70500 0.19980 0.96320 0.09100
C 	C 	0.71870 0.16920 0.02700 0.28300
C 	C 	0.68460 0.24640 0.01290 0.16000
H 	H 	0.67670 0.27070 0.99160 -0.03100
H 	H 	0.77610 0.12690 0.01340 0.16600
C 	C 	0.65390 0.29640 0.08030 0.35100
O 	O 	0.65240 0.33360 0.05370 -0.42600
O 	O 	0.63650 0.29840 0.12210 -0.37600
C 	C 	0.56150 0.82240 0.74670 -0.18800
C 	C 	0.59400 0.80700 0.78300 0.15200
H 	H 	0.62680 0.81060 0.77900 -0.00500
C 	C 	0.57560 0.78660 0.82430 -0.28200
H 	H 	0.59640 0.77620 0.84800 0.15000
C 	C 	0.49610 0.79700 0.79540 -0.27900
H 	H 	0.46320 0.79500 0.80020 0.09100
C 	C 	0.52700 0.78130 0.83080 0.28300
C 	C 	0.51290 0.81540 0.75360 0.15900
H 	H 	0.49160 0.82330 0.72930 -0.03100
H 	H 	0.51340 0.72390 0.87310 0.16600
C 	C 	0.58030 0.84610 0.70360 0.35100
O 	O 	0.55370 0.84760 0.66640 -0.42600
O 	O 	0.62210 0.86350 0.70160 -0.37600
C 	C 	0.56150 0.32240 0.24670 -0.18800
C 	C 	0.59400 0.30700 0.28300 0.15200
H 	H 	0.62680 0.31060 0.27900 -0.00500
C 	C 	0.57560 0.28660 0.32430 -0.28200
H 	H 	0.59640 0.27620 0.34800 0.15000
C 	C 	0.49610 0.29700 0.29540 -0.27900
H 	H 	0.46320 0.29500 0.30020 0.09100
C 	C 	0.52700 0.28130 0.33080 0.28300
C 	C 	0.51290 0.31540 0.25360 0.15900
H 	H 	0.49160 0.32330 0.22930 -0.03100
H 	H 	0.51340 0.22390 0.37310 0.16600
C 	C 	0.58030 0.34610 0.20360 0.35100
O 	O 	0.55370 0.34760 0.16640 -0.42600
O 	O 	0.62210 0.36350 0.20160 -0.37600
C 	C 	0.06150 0.82240 0.24670 -0.18800
C 	C 	0.09400 0.80700 0.28300 0.15200
H 	H 	0.12680 0.81060 0.27900 -0.00500
C 	C 	0.07560 0.78660 0.32430 -0.28200
H 	H 	0.09640 0.77620 0.34800 0.15000
C 	C 	0.99610 0.79700 0.29540 -0.27900
H 	H 	0.96320 0.79500 0.30020 0.09100
C 	C 	0.02700 0.78130 0.33080 0.28300
C 	C 	0.01290 0.81540 0.25360 0.16000
H 	H 	0.99160 0.82330 0.22930 -0.03100
H 	H 	0.01340 0.72390 0.37310 0.16600
C 	C 	0.08030 0.84610 0.20360 0.35100
O 	O 	0.05370 0.84760 0.16640 -0.42600
O 	O 	0.12210 0.86350 0.20160 -0.37600
C 	C 	0.06150 0.32240 0.74670 -0.18800
C 	C 	0.09400 0.30700 0.78300 0.15200
H 	H 	0.12680 0.31060 0.77900 -0.00500
C 	C 	0.07560 0.28660 0.82430 -0.28200
H 	H 	0.09640 0.27620 0.84800 0.15000
C 	C 	0.99610 0.29700 0.79540 -0.27900
H 	H 	0.96320 0.29500 0.80020 0.09100
C 	C 	0.02700 0.28130 0.83080 0.28300
C 	C 	0.01290 0.31540 0.75360 0.16000
H 	H 	0.99160 0.32330 0.72930 -0.03100
H 	H 	0.01340 0.22390 0.87310 0.16600
C 	C 	0.08030 0.34610 0.70360 0.35100
O 	O 	0.05370 0.34760 0.66640 -0.42600
O 	O 	0.12210 0.36350 0.70160 -0.37600
C 	C 	0.18850 0.49670 0.07240 -0.18800
C 	C 	0.15600 0.53300 0.05700 0.15200
H 	H 	0.12320 0.52900 0.06060 -0.00500
C 	C 	0.17440 0.57430 0.03660 -0.28200
H 	H 	0.15360 0.59800 0.02620 0.15000
C 	C 	0.25390 0.54540 0.04700 -0.27900
H 	H 	0.28680 0.55020 0.04500 0.09100
C 	C 	0.22300 0.58080 0.03130 0.28300
C 	C 	0.23710 0.50360 0.06540 0.15900
H 	H 	0.25840 0.47930 0.07330 -0.03100
H 	H 	0.23660 0.62310 0.97390 0.16600
C 	C 	0.16970 0.45360 0.09610 0.35100
O 	O 	0.19630 0.41640 0.09760 -0.42600
O 	O 	0.12790 0.45160 0.11350 -0.37600
C 	C 	0.18850 0.99670 0.57240 -0.18800
C 	C 	0.15600 0.03300 0.55700 0.15200
H 	H 	0.12320 0.02900 0.56060 -0.00500
C 	C 	0.17440 0.07430 0.53660 -0.28200
H 	H 	0.15360 0.09800 0.52620 0.15000
C 	C 	0.25390 0.04540 0.54700 -0.27900
H 	H 	0.28680 0.05020 0.54500 0.09100
C 	C 	0.22300 0.08080 0.53130 0.28300
C 	C 	0.23710 0.00360 0.56540 0.15900
H 	H 	0.25840 0.97930 0.57330 -0.03100
H 	H 	0.23660 0.12310 0.47390 0.16600
C 	C 	0.16970 0.95360 0.59610 0.35100
O 	O 	0.19630 0.91640 0.59760 -0.42600
O 	O 	0.12790 0.95160 0.61350 -0.37600
C 	C 	0.68850 0.49670 0.57240 -0.18800
C 	C 	0.65600 0.53300 0.55700 0.15200
H 	H 	0.62320 0.52900 0.56060 -0.00500
C 	C 	0.67440 0.57430 0.53660 -0.28200
H 	H 	0.65360 0.59800 0.52620 0.15000
C 	C 	0.75390 0.54540 0.54700 -0.27900
H 	H 	0.78680 0.55020 0.54500 0.09100
C 	C 	0.72300 0.58080 0.53130 0.28300
C 	C 	0.73710 0.50360 0.56540 0.15900
H 	H 	0.75840 0.47930 0.57330 -0.03100
H 	H 	0.73660 0.62310 0.47390 0.16600
C 	C 	0.66970 0.45360 0.59610 0.35100
O 	O 	0.69630 0.41640 0.59760 -0.42600
O 	O 	0.62790 0.45160 0.61350 -0.37600
C 	C 	0.68850 0.99670 0.07240 -0.18800
C 	C 	0.65600 0.03300 0.05700 0.15200
H 	H 	0.62320 0.02900 0.06060 -0.00500
C 	C 	0.67440 0.07430 0.03660 -0.28200
H 	H 	0.65360 0.09800 0.02620 0.15000
C 	C 	0.75390 0.04540 0.04700 -0.27900
H 	H 	0.78680 0.05020 0.04500 0.09000
C 	C 	0.72300 0.08080 0.03130 0.28300
C 	C 	0.73710 0.00360 0.06540 0.15900
H 	H 	0.75840 0.97930 0.07330 -0.03100
H 	H 	0.73660 0.12310 0.97390 0.16600
C 	C 	0.66970 0.95360 0.09610 0.35100
O 	O 	0.69630 0.91640 0.09760 -0.42600
O 	O 	0.62790 0.95160 0.11350 -0.37600
C 	C 	0.50330 0.42760 0.68850 -0.18800
C 	C 	0.46700 0.44300 0.65600 0.15200
H 	H 	0.47100 0.43940 0.62320 -0.00500
C 	C 	0.42570 0.46340 0.67440 -0.28200
H 	H 	0.40200 0.47380 0.65360 0.15000
C 	C 	0.45460 0.45300 0.75390 -0.27900
H 	H 	0.44980 0.45500 0.78680 0.09100
C 	C 	0.41920 0.46870 0.72300 0.28300
C 	C 	0.49640 0.43460 0.73710 0.15900
H 	H 	0.52070 0.42670 0.75840 -0.03100
H 	H 	0.37690 0.52610 0.73660 0.16600
C 	C 	0.54640 0.40390 0.66970 0.35100
O 	O 	0.58360 0.40240 0.69630 -0.42600
O 	O 	0.54840 0.38650 0.62790 -0.37600
C 	C 	0.50330 0.92760 0.18850 -0.18800
C 	C 	0.46700 0.94300 0.15600 0.15200
H 	H 	0.47100 0.93940 0.12320 -0.00500
C 	C 	0.42570 0.96340 0.17440 -0.28200
H 	H 	0.40200 0.97380 0.15360 0.15000
C 	C 	0.45460 0.95300 0.25390 -0.27900
H 	H 	0.44980 0.95500 0.28680 0.09100
C 	C 	0.41920 0.96870 0.22300 0.28300
C 	C 	0.49640 0.93460 0.23710 0.15900
H 	H 	0.52070 0.92670 0.25840 -0.03100
H 	H 	0.37690 0.02610 0.23660 0.16600
C 	C 	0.54640 0.90390 0.16970 0.35100
O 	O 	0.58360 0.90240 0.19630 -0.42600
O 	O 	0.54840 0.88650 0.12790 -0.37600
C 	C 	0.00330 0.42760 0.18850 -0.18800
C 	C 	0.96700 0.44300 0.15600 0.15200
H 	H 	0.97100 0.43940 0.12320 -0.00500
C 	C 	0.92570 0.46340 0.17440 -0.28200
H 	H 	0.90200 0.47380 0.15360 0.15000
C 	C 	0.95460 0.45300 0.25390 -0.27900
H 	H 	0.94980 0.45500 0.28680 0.09100
C 	C 	0.91920 0.46870 0.22300 0.28300
C 	C 	0.99640 0.43460 0.23710 0.15900
H 	H 	0.02070 0.42670 0.25840 -0.03100
H 	H 	0.87690 0.52610 0.23660 0.16600
C 	C 	0.04640 0.40390 0.16970 0.35100
O 	O 	0.08360 0.40240 0.19630 -0.42600
O 	O 	0.04840 0.38650 0.12790 -0.37600
C 	C 	0.00330 0.92760 0.68850 -0.18800
C 	C 	0.96700 0.94300 0.65600 0.15200
H 	H 	0.97100 0.93940 0.62320 -0.00500
C 	C 	0.92570 0.96340 0.67440 -0.28200
H 	H 	0.90200 0.97380 0.65360 0.15000
C 	C 	0.95460 0.95300 0.75390 -0.27900
H 	H 	0.94980 0.95500 0.78680 0.09000
C 	C 	0.91920 0.96870 0.72300 0.28300
C 	C 	0.99640 0.93460 0.73710 0.15900
H 	H 	0.02070 0.92670 0.75840 -0.03100
H 	H 	0.87690 0.02610 0.73660 0.16600
C 	C 	0.04640 0.90390 0.66970 0.35100
O 	O 	0.08360 0.90240 0.69630 -0.42600
O 	O 	0.04840 0.88650 0.62790 -0.37600
C 	C 	0.57240 0.81150 0.00330 -0.18800
C 	C 	0.55700 0.84400 0.96700 0.15200
H 	H 	0.56060 0.87680 0.97100 -0.00500
C 	C 	0.53660 0.82560 0.92570 -0.28200
H 	H 	0.52620 0.84640 0.90200 0.15000
C 	C 	0.54700 0.74610 0.95460 -0.27900
H 	H 	0.54500 0.71320 0.94980 0.09100
C 	C 	0.53130 0.77700 0.91920 0.28300
C 	C 	0.56540 0.76290 0.99640 0.15900
H 	H 	0.57330 0.74160 0.02070 -0.03100
H 	H 	0.47390 0.76340 0.87690 0.16600
C 	C 	0.59610 0.83030 0.04640 0.35100
O 	O 	0.59760 0.80370 0.08360 -0.42600
O 	O 	0.61350 0.87210 0.04840 -0.37600
C 	C 	0.57240 0.31150 0.50330 -0.18800
C 	C 	0.55700 0.34400 0.46700 0.15200
H 	H 	0.56060 0.37680 0.47100 -0.00500
C 	C 	0.53660 0.32560 0.42570 -0.28200
H 	H 	0.52620 0.34640 0.40200 0.15000
C 	C 	0.54700 0.24610 0.45460 -0.27900
H 	H 	0.54500 0.21320 0.44980 0.09100
C 	C 	0.53130 0.27700 0.41920 0.28300
C 	C 	0.56540 0.26290 0.49640 0.15900
H 	H 	0.57330 0.24160 0.52070 -0.03100
H 	H 	0.47390 0.26340 0.37690 0.16600
C 	C 	0.59610 0.33030 0.54640 0.35100
O 	O 	0.59760 0.30370 0.58360 -0.42600
O 	O 	0.61350 0.37210 0.54840 -0.37600
C 	C 	0.07240 0.81150 0.50330 -0.18800
C 	C 	0.05700 0.84400 0.46700 0.15200
H 	H 	0.06060 0.87680 0.47100 -0.00500
C 	C 	0.03660 0.82560 0.42570 -0.28200
H 	H 	0.02620 0.84640 0.40200 0.15000
C 	C 	0.04700 0.74610 0.45460 -0.27900
H 	H 	0.04500 0.71320 0.44980 0.09100
C 	C 	0.03130 0.77700 0.41920 0.28300
C 	C 	0.06540 0.76290 0.49640 0.15900
H 	H 	0.07330 0.74160 0.52070 -0.03100
H 	H 	0.97390 0.76340 0.37690 0.16600
C 	C 	0.09610 0.83030 0.54640 0.35100
O 	O 	0.09760 0.80370 0.58360 -0.42600
O 	O 	0.11350 0.87210 0.54840 -0.37600
C 	C 	0.07240 0.31150 0.00330 -0.18800
C 	C 	0.05700 0.34400 0.96700 0.15200
H 	H 	0.06060 0.37680 0.97100 -0.00500
C 	C 	0.03660 0.32560 0.92570 -0.28200
H 	H 	0.02620 0.34640 0.90200 0.15000
C 	C 	0.04700 0.24610 0.95460 -0.27900
H 	H 	0.04500 0.21320 0.94980 0.09000
C 	C 	0.03130 0.27700 0.91920 0.28300
C 	C 	0.06540 0.26290 0.99640 0.15900
H 	H 	0.07330 0.24160 0.02070 -0.03100
H 	H 	0.97390 0.26340 0.87690 0.16600
C 	C 	0.09610 0.33030 0.04640 0.35100
O 	O 	0.09760 0.30370 0.08360 -0.42600
O 	O 	0.11350 0.37210 0.04840 -0.37600
C 	C 	0.37500 0.49190 0.74190 -0.47600
C 	C 	0.37500 0.99190 0.24190 -0.47600
C 	C 	0.87500 0.49190 0.24190 -0.47600
C 	C 	0.87500 0.99190 0.74190 -0.47600
C 	C 	0.24190 0.62500 0.00810 -0.47600
C 	C 	0.24190 0.12500 0.50810 -0.47600
C 	C 	0.74190 0.62500 0.50810 -0.47600
C 	C 	0.74190 0.12500 0.00810 -0.47600
C 	C 	0.50810 0.75810 0.87500 -0.47600
C 	C 	0.50810 0.25810 0.37500 -0.47600
C 	C 	0.00810 0.75810 0.37500 -0.47600
C 	C 	0.00810 0.25810 0.87500 -0.47600
Tb	Tb	0.11731 0.38269 0.61731 1.42100
Tb	Tb	0.11731 0.88269 0.11731 1.42000
Tb	Tb	0.61731 0.88269 0.61731 1.42100
Tb	Tb	0.61731 0.38269 0.11731 1.42100
Tb	Tb	0.13269 0.36731 0.13269 1.42100
Tb	Tb	0.13269 0.86731 0.63269 1.42100
Tb	Tb	0.63269 0.36731 0.63269 1.42100
Tb	Tb	0.63269 0.86731 0.13269 1.42100
C 	C 	0.75330 0.06150 0.17760 -0.18800
C 	C 	0.71700 0.09400 0.19300 0.15200
H 	H 	0.72100 0.12680 0.18940 -0.00500
C 	C 	0.67570 0.07560 0.21340 -0.28200
H 	H 	0.65200 0.09640 0.22380 0.15000
C 	C 	0.70460 0.99610 0.20300 -0.27900
H 	H 	0.69980 0.96320 0.20500 0.09100
C 	C 	0.66920 0.02700 0.21870 0.28300
C 	C 	0.74640 0.01290 0.18460 0.16000
H 	H 	0.77070 0.99160 0.17670 -0.03100
H 	H 	0.62690 0.01340 0.27610 0.16600
C 	C 	0.79640 0.08030 0.15390 0.35100
O 	O 	0.83360 0.05370 0.15240 -0.42600
O 	O 	0.79840 0.12210 0.13650 -0.37600
C 	C 	0.75330 0.56150 0.67760 -0.18800
C 	C 	0.71700 0.59400 0.69300 0.15200
H 	H 	0.72100 0.62680 0.68940 -0.00500
C 	C 	0.67570 0.57560 0.71340 -0.28200
H 	H 	0.65200 0.59640 0.72380 0.15000
C 	C 	0.70460 0.49610 0.70300 -0.27900
H 	H 	0.69980 0.46320 0.70500 0.09100
C 	C 	0.66920 0.52700 0.71870 0.28300
C 	C 	0.74640 0.51290 0.68460 0.15900
H 	H 	0.77070 0.49160 0.67670 -0.03100
H 	H 	0.62690 0.51340 0.77610 0.16600
C 	C 	0.79640 0.58030 0.65390 0.35100
O 	O 	0.83360 0.55370 0.65240 -0.42600
O 	O 	0.79840 0.62210 0.63650 -0.37600
C 	C 	0.25330 0.06150 0.67760 -0.18800
C 	C 	0.21700 0.09400 0.69300 0.15200
H 	H 	0.22100 0.12680 0.68940 -0.00500
C 	C 	0.17570 0.07560 0.71340 -0.28200
H 	H 	0.15200 0.09640 0.72380 0.15000
C 	C 	0.20460 0.99610 0.70300 -0.27900
H 	H 	0.19980 0.96320 0.70500 0.09100
C 	C 	0.16920 0.02700 0.71870 0.28300
C 	C 	0.24640 0.01290 0.68460 0.16000
H 	H 	0.27070 0.99160 0.67670 -0.03100
H 	H 	0.12690 0.01340 0.77610 0.16600
C 	C 	0.29640 0.08030 0.65390 0.35100
O 	O 	0.33360 0.05370 0.65240 -0.42600
O 	O 	0.29840 0.12210 0.63650 -0.37600
C 	C 	0.25330 0.56150 0.17760 -0.18800
C 	C 	0.21700 0.59400 0.19300 0.15200
H 	H 	0.22100 0.62680 0.18940 -0.00500
C 	C 	0.17570 0.57560 0.21340 -0.28200
H 	H 	0.15200 0.59640 0.22380 0.15000
C 	C 	0.20460 0.49610 0.20300 -0.27900
H 	H 	0.19980 0.46320 0.20500 0.09100
C 	C 	0.16920 0.52700 0.21870 0.28300
C 	C 	0.24640 0.51290 0.18460 0.15900
H 	H 	0.27070 0.49160 0.17670 -0.03100
H 	H 	0.12690 0.51340 0.27610 0.16600
C 	C 	0.29640 0.58030 0.15390 0.35100
O 	O 	0.33360 0.55370 0.15240 -0.42600
O 	O 	0.29840 0.62210 0.13650 -0.37600
C 	C 	0.82240 0.74670 0.56150 -0.18800
C 	C 	0.80700 0.78300 0.59400 0.15200
H 	H 	0.81060 0.77900 0.62680 -0.00500
C 	C 	0.78660 0.82430 0.57560 -0.28200
H 	H 	0.77620 0.84800 0.59640 0.15000
C 	C 	0.79700 0.79540 0.49610 -0.27900
H 	H 	0.79500 0.80020 0.46320 0.09100
C 	C 	0.78130 0.83080 0.52700 0.28300
C 	C 	0.81540 0.75360 0.51290 0.15900
H 	H 	0.82330 0.72930 0.49160 -0.03100
H 	H 	0.72390 0.87310 0.51340 0.16600
C 	C 	0.84610 0.70360 0.58030 0.35100
O 	O 	0.84760 0.66640 0.55370 -0.42600
O 	O 	0.86350 0.70160 0.62210 -0.37600
C 	C 	0.82240 0.24670 0.06150 -0.18800
C 	C 	0.80700 0.28300 0.09400 0.15200
H 	H 	0.81060 0.27900 0.12680 -0.00500
C 	C 	0.78660 0.32430 0.07560 -0.28200
H 	H 	0.77620 0.34800 0.09640 0.15000
C 	C 	0.79700 0.29540 0.99610 -0.27900
H 	H 	0.79500 0.30020 0.96320 0.09100
C 	C 	0.78130 0.33080 0.02700 0.28300
C 	C 	0.81540 0.25360 0.01290 0.16000
H 	H 	0.82330 0.22930 0.99160 -0.03100
H 	H 	0.72390 0.37310 0.01340 0.16600
C 	C 	0.84610 0.20360 0.08030 0.35100
O 	O 	0.84760 0.16640 0.05370 -0.42600
O 	O 	0.86350 0.20160 0.12210 -0.37600
C 	C 	0.32240 0.74670 0.06150 -0.18800
C 	C 	0.30700 0.78300 0.09400 0.15200
H 	H 	0.31060 0.77900 0.12680 -0.00500
C 	C 	0.28660 0.82430 0.07560 -0.28200
H 	H 	0.27620 0.84800 0.09640 0.15000
C 	C 	0.29700 0.79540 0.99610 -0.27900
H 	H 	0.29500 0.80020 0.96320 0.09100
C 	C 	0.28130 0.83080 0.02700 0.28300
C 	C 	0.31540 0.75360 0.01290 0.16000
H 	H 	0.32330 0.72930 0.99160 -0.03100
H 	H 	0.22390 0.87310 0.01340 0.16600
C 	C 	0.34610 0.70360 0.08030 0.35100
O 	O 	0.34760 0.66640 0.05370 -0.42600
O 	O 	0.36350 0.70160 0.12210 -0.37600
C 	C 	0.32240 0.24670 0.56150 -0.18800
C 	C 	0.30700 0.28300 0.59400 0.15200
H 	H 	0.31060 0.27900 0.62680 -0.00500
C 	C 	0.28660 0.32430 0.57560 -0.28200
H 	H 	0.27620 0.34800 0.59640 0.15000
C 	C 	0.29700 0.29540 0.49610 -0.27900
H 	H 	0.29500 0.30020 0.46320 0.09100
C 	C 	0.28130 0.33080 0.52700 0.28300
C 	C 	0.31540 0.25360 0.51290 0.15900
H 	H 	0.32330 0.22930 0.49160 -0.03100
H 	H 	0.22390 0.37310 0.51340 0.16600
C 	C 	0.34610 0.20360 0.58030 0.35100
O 	O 	0.34760 0.16640 0.55370 -0.42600
O 	O 	0.36350 0.20160 0.62210 -0.37600
C 	C 	0.43850 0.67760 0.24670 -0.18800
C 	C 	0.40600 0.69300 0.28300 0.15200
H 	H 	0.37320 0.68940 0.27900 -0.00500
C 	C 	0.42440 0.71340 0.32430 -0.28200
H 	H 	0.40360 0.72380 0.34800 0.15000
C 	C 	0.50390 0.70300 0.29540 -0.27900
H 	H 	0.53680 0.70500 0.30020 0.09100
C 	C 	0.47300 0.71870 0.33080 0.28300
C 	C 	0.48710 0.68460 0.25360 0.15900
H 	H 	0.50840 0.67670 0.22930 -0.03100
H 	H 	0.48660 0.77610 0.37310 0.16600
C 	C 	0.41970 0.65390 0.20360 0.35100
O 	O 	0.44630 0.65240 0.16640 -0.42600
O 	O 	0.37790 0.63650 0.20160 -0.37600
C 	C 	0.43850 0.17760 0.74670 -0.18800
C 	C 	0.40600 0.19300 0.78300 0.15200
H 	H 	0.37320 0.18940 0.77900 -0.00500
C 	C 	0.42440 0.21340 0.82430 -0.28200
H 	H 	0.40360 0.22380 0.84800 0.15000
C 	C 	0.50390 0.20300 0.79540 -0.27900
H 	H 	0.53680 0.20500 0.80020 0.09100
C 	C 	0.47300 0.21870 0.83080 0.28300
C 	C 	0.48710 0.18460 0.75360 0.15900
H 	H 	0.50840 0.17670 0.72930 -0.03100
H 	H 	0.48660 0.27610 0.87310 0.16600
C 	C 	0.41970 0.15390 0.70360 0.35100
O 	O 	0.44630 0.15240 0.66640 -0.42600
O 	O 	0.37790 0.13650 0.70160 -0.37600
C 	C 	0.93850 0.67760 0.74670 -0.18800
C 	C 	0.90600 0.69300 0.78300 0.15200
H 	H 	0.87320 0.68940 0.77900 -0.00500
C 	C 	0.92440 0.71340 0.82430 -0.28200
H 	H 	0.90360 0.72380 0.84800 0.15000
C 	C 	0.00390 0.70300 0.79540 -0.27900
H 	H 	0.03680 0.70500 0.80020 0.09100
C 	C 	0.97300 0.71870 0.83080 0.28300
C 	C 	0.98710 0.68460 0.75360 0.16000
H 	H 	0.00840 0.67670 0.72930 -0.03100
H 	H 	0.98660 0.77610 0.87310 0.16600
C 	C 	0.91970 0.65390 0.70360 0.35100
O 	O 	0.94630 0.65240 0.66640 -0.42600
O 	O 	0.87790 0.63650 0.70160 -0.37600
C 	C 	0.93850 0.17760 0.24670 -0.18800
C 	C 	0.90600 0.19300 0.28300 0.15200
H 	H 	0.87320 0.18940 0.27900 -0.00500
C 	C 	0.92440 0.21340 0.32430 -0.28200
H 	H 	0.90360 0.22380 0.34800 0.15000
C 	C 	0.00390 0.20300 0.29540 -0.27900
H 	H 	0.03680 0.20500 0.30020 0.09100
C 	C 	0.97300 0.21870 0.33080 0.28300
C 	C 	0.98710 0.18460 0.25360 0.16000
H 	H 	0.00840 0.17670 0.22930 -0.03100
H 	H 	0.98660 0.27610 0.37310 0.16600
C 	C 	0.91970 0.15390 0.20360 0.35100
O 	O 	0.94630 0.15240 0.16640 -0.42600
O 	O 	0.87790 0.13650 0.20160 -0.37600
C 	C 	0.81150 0.00330 0.57240 -0.18800
C 	C 	0.84400 0.96700 0.55700 0.15200
H 	H 	0.87680 0.97100 0.56060 -0.00500
C 	C 	0.82560 0.92570 0.53660 -0.28200
H 	H 	0.84640 0.90200 0.52620 0.15000
C 	C 	0.74610 0.95460 0.54700 -0.27900
H 	H 	0.71320 0.94980 0.54500 0.09100
C 	C 	0.77700 0.91920 0.53130 0.28300
C 	C 	0.76290 0.99640 0.56540 0.15900
H 	H 	0.74160 0.02070 0.57330 -0.03100
H 	H 	0.76340 0.87690 0.47390 0.16600
C 	C 	0.83030 0.04640 0.59610 0.35100
O 	O 	0.80370 0.08360 0.59760 -0.42600
O 	O 	0.87210 0.04840 0.61350 -0.37600
C 	C 	0.81150 0.50330 0.07240 -0.18800
C 	C 	0.84400 0.46700 0.05700 0.15200
H 	H 	0.87680 0.47100 0.06060 -0.00500
C 	C 	0.82560 0.42570 0.03660 -0.28200
H 	H 	0.84640 0.40200 0.02620 0.15000
C 	C 	0.74610 0.45460 0.04700 -0.27900
H 	H 	0.71320 0.44980 0.04500 0.09100
C 	C 	0.77700 0.41920 0.03130 0.28300
C 	C 	0.76290 0.49640 0.06540 0.15900
H 	H 	0.74160 0.52070 0.07330 -0.03100
H 	H 	0.76340 0.37690 0.97390 0.16600
C 	C 	0.83030 0.54640 0.09610 0.35100
O 	O 	0.80370 0.58360 0.09760 -0.42600
O 	O 	0.87210 0.54840 0.11350 -0.37600
C 	C 	0.31150 0.00330 0.07240 -0.18800
C 	C 	0.34400 0.96700 0.05700 0.15200
H 	H 	0.37680 0.97100 0.06060 -0.00500
C 	C 	0.32560 0.92570 0.03660 -0.28200
H 	H 	0.34640 0.90200 0.02620 0.15000
C 	C 	0.24610 0.95460 0.04700 -0.27900
H 	H 	0.21320 0.94980 0.04500 0.09000
C 	C 	0.27700 0.91920 0.03130 0.28300
C 	C 	0.26290 0.99640 0.06540 0.15900
H 	H 	0.24160 0.02070 0.07330 -0.03100
H 	H 	0.26340 0.87690 0.97390 0.16600
C 	C 	0.33030 0.04640 0.09610 0.35100
O 	O 	0.30370 0.08360 0.09760 -0.42600
O 	O 	0.37210 0.04840 0.11350 -0.37600
C 	C 	0.31150 0.50330 0.57240 -0.18800
C 	C 	0.34400 0.46700 0.55700 0.15200
H 	H 	0.37680 0.47100 0.56060 -0.00500
C 	C 	0.32560 0.42570 0.53660 -0.28200
H 	H 	0.34640 0.40200 0.52620 0.15000
C 	C 	0.24610 0.45460 0.54700 -0.27900
H 	H 	0.21320 0.44980 0.54500 0.09100
C 	C 	0.27700 0.41920 0.53130 0.28300
C 	C 	0.26290 0.49640 0.56540 0.15900
H 	H 	0.24160 0.52070 0.57330 -0.03100
H 	H 	0.26340 0.37690 0.47390 0.16600
C 	C 	0.33030 0.54640 0.59610 0.35100
O 	O 	0.30370 0.58360 0.59760 -0.42600
O 	O 	0.37210 0.54840 0.61350 -0.37600
C 	C 	0.49670 0.07240 0.18850 -0.18800
C 	C 	0.53300 0.05700 0.15600 0.15200
H 	H 	0.52900 0.06060 0.12320 -0.00500
C 	C 	0.57430 0.03660 0.17440 -0.28200
H 	H 	0.59800 0.02620 0.15360 0.15000
C 	C 	0.54540 0.04700 0.25390 -0.27900
H 	H 	0.55020 0.04500 0.28680 0.09100
C 	C 	0.58080 0.03130 0.22300 0.28300
C 	C 	0.50360 0.06540 0.23710 0.15900
H 	H 	0.47930 0.07330 0.25840 -0.03100
H 	H 	0.62310 0.97390 0.23660 0.16600
C 	C 	0.45360 0.09610 0.16970 0.35100
O 	O 	0.41640 0.09760 0.19630 -0.42600
O 	O 	0.45160 0.11350 0.12790 -0.37600
C 	C 	0.49670 0.57240 0.68850 -0.18800
C 	C 	0.53300 0.55700 0.65600 0.15200
H 	H 	0.52900 0.56060 0.62320 -0.00500
C 	C 	0.57430 0.53660 0.67440 -0.28200
H 	H 	0.59800 0.52620 0.65360 0.15000
C 	C 	0.54540 0.54700 0.75390 -0.27900
H 	H 	0.55020 0.54500 0.78680 0.09100
C 	C 	0.58080 0.53130 0.72300 0.28300
C 	C 	0.50360 0.56540 0.73710 0.15900
H 	H 	0.47930 0.57330 0.75840 -0.03100
H 	H 	0.62310 0.47390 0.73660 0.16600
C 	C 	0.45360 0.59610 0.66970 0.35100
O 	O 	0.41640 0.59760 0.69630 -0.42600
O 	O 	0.45160 0.61350 0.62790 -0.37600
C 	C 	0.99670 0.07240 0.68850 -0.18800
C 	C 	0.03300 0.05700 0.65600 0.15200
H 	H 	0.02900 0.06060 0.62320 -0.00500
C 	C 	0.07430 0.03660 0.67440 -0.28200
H 	H 	0.09800 0.02620 0.65360 0.15000
C 	C 	0.04540 0.04700 0.75390 -0.27900
H 	H 	0.05020 0.04500 0.78680 0.09000
C 	C 	0.08080 0.03130 0.72300 0.28300
C 	C 	0.00360 0.06540 0.73710 0.15900
H 	H 	0.97930 0.07330 0.75840 -0.03100
H 	H 	0.12310 0.97390 0.73660 0.16600
C 	C 	0.95360 0.09610 0.66970 0.35100
O 	O 	0.91640 0.09760 0.69630 -0.42600
O 	O 	0.95160 0.11350 0.62790 -0.37600
C 	C 	0.99670 0.57240 0.18850 -0.18800
C 	C 	0.03300 0.55700 0.15600 0.15200
H 	H 	0.02900 0.56060 0.12320 -0.00500
C 	C 	0.07430 0.53660 0.17440 -0.28200
H 	H 	0.09800 0.52620 0.15360 0.15000
C 	C 	0.04540 0.54700 0.25390 -0.27900
H 	H 	0.05020 0.54500 0.28680 0.09100
C 	C 	0.08080 0.53130 0.22300 0.28300
C 	C 	0.00360 0.56540 0.23710 0.15900
H 	H 	0.97930 0.57330 0.25840 -0.03100
H 	H 	0.12310 0.47390 0.23660 0.16600
C 	C 	0.95360 0.59610 0.16970 0.35100
O 	O 	0.91640 0.59760 0.19630 -0.42600
O 	O 	0.95160 0.61350 0.12790 -0.37600
C 	C 	0.42760 0.68850 0.50330 -0.18800
C 	C 	0.44300 0.65600 0.46700 0.15200
H 	H 	0.43940 0.62320 0.47100 -0.00500
C 	C 	0.46340 0.67440 0.42570 -0.28200
H 	H 	0.47380 0.65360 0.40200 0.15000
C 	C 	0.45300 0.75390 0.45460 -0.27900
H 	H 	0.45500 0.78680 0.44980 0.09100
C 	C 	0.46870 0.72300 0.41920 0.28300
C 	C 	0.43460 0.73710 0.49640 0.15900
H 	H 	0.42670 0.75840 0.52070 -0.03100
H 	H 	0.52610 0.73660 0.37690 0.16600
C 	C 	0.40390 0.66970 0.54640 0.35100
O 	O 	0.40240 0.69630 0.58360 -0.42600
O 	O 	0.38650 0.62790 0.54840 -0.37600
C 	C 	0.42760 0.18850 0.00330 -0.18800
C 	C 	0.44300 0.15600 0.96700 0.15200
H 	H 	0.43940 0.12320 0.97100 -0.00500
C 	C 	0.46340 0.17440 0.92570 -0.28200
H 	H 	0.47380 0.15360 0.90200 0.15000
C 	C 	0.45300 0.25390 0.95460 -0.27900
H 	H 	0.45500 0.28680 0.94980 0.09100
C 	C 	0.46870 0.22300 0.91920 0.28300
C 	C 	0.43460 0.23710 0.99640 0.15900
H 	H 	0.42670 0.25840 0.02070 -0.03100
H 	H 	0.52610 0.23660 0.87690 0.16600
C 	C 	0.40390 0.16970 0.04640 0.35100
O 	O 	0.40240 0.19630 0.08360 -0.42600
O 	O 	0.38650 0.12790 0.04840 -0.37600
C 	C 	0.92760 0.68850 0.00330 -0.18800
C 	C 	0.94300 0.65600 0.96700 0.15200
H 	H 	0.93940 0.62320 0.97100 -0.00500
C 	C 	0.96340 0.67440 0.92570 -0.28200
H 	H 	0.97380 0.65360 0.90200 0.15000
C 	C 	0.95300 0.75390 0.95460 -0.27900
H 	H 	0.95500 0.78680 0.94980 0.09000
C 	C 	0.96870 0.72300 0.91920 0.28300
C 	C 	0.93460 0.73710 0.99640 0.15900
H 	H 	0.92670 0.75840 0.02070 -0.03100
H 	H 	0.02610 0.73660 0.87690 0.16600
C 	C 	0.90390 0.66970 0.04640 0.35100
O 	O 	0.90240 0.69630 0.08360 -0.42600
O 	O 	0.88650 0.62790 0.04840 -0.37600
C 	C 	0.92760 0.18850 0.50330 -0.18800
C 	C 	0.94300 0.15600 0.46700 0.15200
H 	H 	0.93940 0.12320 0.47100 -0.00500
C 	C 	0.96340 0.17440 0.42570 -0.28200
H 	H 	0.97380 0.15360 0.40200 0.15000
C 	C 	0.95300 0.25390 0.45460 -0.27900
H 	H 	0.95500 0.28680 0.44980 0.09100
C 	C 	0.96870 0.22300 0.41920 0.28300
C 	C 	0.93460 0.23710 0.49640 0.15900
H 	H 	0.92670 0.25840 0.52070 -0.03100
H 	H 	0.02610 0.23660 0.37690 0.16600
C 	C 	0.90390 0.16970 0.54640 0.35100
O 	O 	0.90240 0.19630 0.58360 -0.42600
O 	O 	0.88650 0.12790 0.54840 -0.37600
C 	C 	0.62500 0.00810 0.24190 -0.47600
C 	C 	0.62500 0.50810 0.74190 -0.47600
C 	C 	0.12500 0.00810 0.74190 -0.47600
C 	C 	0.12500 0.50810 0.24190 -0.47600
C 	C 	0.75810 0.87500 0.50810 -0.47600
C 	C 	0.75810 0.37500 0.00810 -0.47600
C 	C 	0.25810 0.87500 0.00810 -0.47600
C 	C 	0.25810 0.37500 0.50810 -0.47600
C 	C 	0.49190 0.74190 0.37500 -0.47600
C 	C 	0.49190 0.24190 0.87500 -0.47600
C 	C 	0.99190 0.74190 0.87500 -0.47600
C 	C 	0.99190 0.24190 0.37500 -0.47600
Tb	Tb	0.88269 0.11731 0.11731 1.42000
Tb	Tb	0.88269 0.61731 0.61731 1.42100
Tb	Tb	0.38269 0.61731 0.11731 1.42100
Tb	Tb	0.38269 0.11731 0.61731 1.42100
Tb	Tb	0.86731 0.13269 0.63269 1.42100
Tb	Tb	0.86731 0.63269 0.13269 1.42100
Tb	Tb	0.36731 0.13269 0.13269 1.42100
Tb	Tb	0.36731 0.63269 0.63269 1.42100
C 	C 	0.25330 0.93850 0.32240 -0.18800
C 	C 	0.21700 0.90600 0.30700 0.15200
H 	H 	0.22100 0.87320 0.31060 -0.00500
C 	C 	0.17570 0.92440 0.28660 -0.28200
H 	H 	0.15200 0.90360 0.27620 0.15000
C 	C 	0.20460 0.00390 0.29700 -0.27900
H 	H 	0.19980 0.03680 0.29500 0.09100
C 	C 	0.16920 0.97300 0.28130 0.28300
C 	C 	0.24640 0.98710 0.31540 0.16000
H 	H 	0.27070 0.00840 0.32330 -0.03100
H 	H 	0.12690 0.98660 0.22390 0.16600
C 	C 	0.29640 0.91970 0.34610 0.35100
O 	O 	0.33360 0.94630 0.34760 -0.42600
O 	O 	0.29840 0.87790 0.36350 -0.37600
C 	C 	0.25330 0.43850 0.82240 -0.18800
C 	C 	0.21700 0.40600 0.80700 0.15200
H 	H 	0.22100 0.37320 0.81060 -0.00500
C 	C 	0.17570 0.42440 0.78660 -0.28200
H 	H 	0.15200 0.40360 0.77620 0.15000
C 	C 	0.20460 0.50390 0.79700 -0.27900
H 	H 	0.19980 0.53680 0.79500 0.09100
C 	C 	0.16920 0.47300 0.78130 0.28300
C 	C 	0.24640 0.48710 0.81540 0.15900
H 	H 	0.27070 0.50840 0.82330 -0.03100
H 	H 	0.12690 0.48660 0.72390 0.16600
C 	C 	0.29640 0.41970 0.84610 0.35100
O 	O 	0.33360 0.44630 0.84760 -0.42600
O 	O 	0.29840 0.37790 0.86350 -0.37600
C 	C 	0.75330 0.93850 0.82240 -0.18800
C 	C 	0.71700 0.90600 0.80700 0.15200
H 	H 	0.72100 0.87320 0.81060 -0.00500
C 	C 	0.67570 0.92440 0.78660 -0.28200
H 	H 	0.65200 0.90360 0.77620 0.15000
C 	C 	0.70460 0.00390 0.79700 -0.27900
H 	H 	0.69980 0.03680 0.79500 0.09100
C 	C 	0.66920 0.97300 0.78130 0.28300
C 	C 	0.74640 0.98710 0.81540 0.16000
H 	H 	0.77070 0.00840 0.82330 -0.03100
H 	H 	0.62690 0.98660 0.72390 0.16600
C 	C 	0.79640 0.91970 0.84610 0.35100
O 	O 	0.83360 0.94630 0.84760 -0.42600
O 	O 	0.79840 0.87790 0.86350 -0.37600
C 	C 	0.75330 0.43850 0.32240 -0.18800
C 	C 	0.71700 0.40600 0.30700 0.15200
H 	H 	0.72100 0.37320 0.31060 -0.00500
C 	C 	0.67570 0.42440 0.28660 -0.28200
H 	H 	0.65200 0.40360 0.27620 0.15000
C 	C 	0.70460 0.50390 0.29700 -0.27900
H 	H 	0.69980 0.53680 0.29500 0.09100
C 	C 	0.66920 0.47300 0.28130 0.28300
C 	C 	0.74640 0.48710 0.31540 0.15900
H 	H 	0.77070 0.50840 0.32330 -0.03100
H 	H 	0.62690 0.48660 0.22390 0.16600
C 	C 	0.79640 0.41970 0.34610 0.35100
O 	O 	0.83360 0.44630 0.34760 -0.42600
O 	O 	0.79840 0.37790 0.36350 -0.37600
C 	C 	0.32240 0.25330 0.93850 -0.18800
C 	C 	0.30700 0.21700 0.90600 0.15200
H 	H 	0.31060 0.22100 0.87320 -0.00500
C 	C 	0.28660 0.17570 0.92440 -0.28200
H 	H 	0.27620 0.15200 0.90360 0.15000
C 	C 	0.29700 0.20460 0.00390 -0.27900
H 	H 	0.29500 0.19980 0.03680 0.09100
C 	C 	0.28130 0.16920 0.97300 0.28300
C 	C 	0.31540 0.24640 0.98710 0.16000
H 	H 	0.32330 0.27070 0.00840 -0.03100
H 	H 	0.22390 0.12690 0.98660 0.16600
C 	C 	0.34610 0.29640 0.91970 0.35100
O 	O 	0.34760 0.33360 0.94630 -0.42600
O 	O 	0.36350 0.29840 0.87790 -0.37600
C 	C 	0.32240 0.75330 0.43850 -0.18800
C 	C 	0.30700 0.71700 0.40600 0.15200
H 	H 	0.31060 0.72100 0.37320 -0.00500
C 	C 	0.28660 0.67570 0.42440 -0.28200
H 	H 	0.27620 0.65200 0.40360 0.15000
C 	C 	0.29700 0.70460 0.50390 -0.27900
H 	H 	0.29500 0.69980 0.53680 0.09100
C 	C 	0.28130 0.66920 0.47300 0.28300
C 	C 	0.31540 0.74640 0.48710 0.15900
H 	H 	0.32330 0.77070 0.50840 -0.03100
H 	H 	0.22390 0.62690 0.48660 0.16600
C 	C 	0.34610 0.79640 0.41970 0.35100
O 	O 	0.34760 0.83360 0.44630 -0.42600
O 	O 	0.36350 0.79840 0.37790 -0.37600
C 	C 	0.82240 0.25330 0.43850 -0.18800
C 	C 	0.80700 0.21700 0.40600 0.15200
H 	H 	0.81060 0.22100 0.37320 -0.00500
C 	C 	0.78660 0.17570 0.42440 -0.28200
H 	H 	0.77620 0.15200 0.40360 0.15000
C 	C 	0.79700 0.20460 0.50390 -0.27900
H 	H 	0.79500 0.19980 0.53680 0.09100
C 	C 	0.78130 0.16920 0.47300 0.28300
C 	C 	0.81540 0.24640 0.48710 0.15900
H 	H 	0.82330 0.27070 0.50840 -0.03100
H 	H 	0.72390 0.12690 0.48660 0.16600
C 	C 	0.84610 0.29640 0.41970 0.35100
O 	O 	0.84760 0.33360 0.44630 -0.42600
O 	O 	0.86350 0.29840 0.37790 -0.37600
C 	C 	0.82240 0.75330 0.93850 -0.18800
C 	C 	0.80700 0.71700 0.90600 0.15200
H 	H 	0.81060 0.72100 0.87320 -0.00500
C 	C 	0.78660 0.67570 0.92440 -0.28200
H 	H 	0.77620 0.65200 0.90360 0.15000
C 	C 	0.79700 0.70460 0.00390 -0.27900
H 	H 	0.79500 0.69980 0.03680 0.09100
C 	C 	0.78130 0.66920 0.97300 0.28300
C 	C 	0.81540 0.74640 0.98710 0.16000
H 	H 	0.82330 0.77070 0.00840 -0.03100
H 	H 	0.72390 0.62690 0.98660 0.16600
C 	C 	0.84610 0.79640 0.91970 0.35100
O 	O 	0.84760 0.83360 0.94630 -0.42600
O 	O 	0.86350 0.79840 0.87790 -0.37600
C 	C 	0.93850 0.32240 0.25330 -0.18800
C 	C 	0.90600 0.30700 0.21700 0.15200
H 	H 	0.87320 0.31060 0.22100 -0.00500
C 	C 	0.92440 0.28660 0.17570 -0.28200
H 	H 	0.90360 0.27620 0.15200 0.15000
C 	C 	0.00390 0.29700 0.20460 -0.27900
H 	H 	0.03680 0.29500 0.19980 0.09100
C 	C 	0.97300 0.28130 0.16920 0.28300
C 	C 	0.98710 0.31540 0.24640 0.16000
H 	H 	0.00840 0.32330 0.27070 -0.03100
H 	H 	0.98660 0.22390 0.12690 0.16600
C 	C 	0.91970 0.34610 0.29640 0.35100
O 	O 	0.94630 0.34760 0.33360 -0.42600
O 	O 	0.87790 0.36350 0.29840 -0.37600
C 	C 	0.93850 0.82240 0.75330 -0.18800
C 	C 	0.90600 0.80700 0.71700 0.15200
H 	H 	0.87320 0.81060 0.72100 -0.00500
C 	C 	0.92440 0.78660 0.67570 -0.28200
H 	H 	0.90360 0.77620 0.65200 0.15000
C 	C 	0.00390 0.79700 0.70460 -0.27900
H 	H 	0.03680 0.79500 0.69980 0.09100
C 	C 	0.97300 0.78130 0.66920 0.28300
C 	C 	0.98710 0.81540 0.74640 0.16000
H 	H 	0.00840 0.82330 0.77070 -0.03100
H 	H 	0.98660 0.72390 0.62690 0.16600
C 	C 	0.91970 0.84610 0.79640 0.35100
O 	O 	0.94630 0.84760 0.83360 -0.42600
O 	O 	0.87790 0.86350 0.79840 -0.37600
C 	C 	0.43850 0.32240 0.75330 -0.18800
C 	C 	0.40600 0.30700 0.71700 0.15200
H 	H 	0.37320 0.31060 0.72100 -0.00500
C 	C 	0.42440 0.28660 0.67570 -0.28200
H 	H 	0.40360 0.27620 0.65200 0.15000
C 	C 	0.50390 0.29700 0.70460 -0.27900
H 	H 	0.53680 0.29500 0.69980 0.09100
C 	C 	0.47300 0.28130 0.66920 0.28300
C 	C 	0.48710 0.31540 0.74640 0.15900
H 	H 	0.50840 0.32330 0.77070 -0.03100
H 	H 	0.48660 0.22390 0.62690 0.16600
C 	C 	0.41970 0.34610 0.79640 0.35100
O 	O 	0.44630 0.34760 0.83360 -0.42600
O 	O 	0.37790 0.36350 0.79840 -0.37600
C 	C 	0.43850 0.82240 0.25330 -0.18800
C 	C 	0.40600 0.80700 0.21700 0.15200
H 	H 	0.37320 0.81060 0.22100 -0.00500
C 	C 	0.42440 0.78660 0.17570 -0.28200
H 	H 	0.40360 0.77620 0.15200 0.15000
C 	C 	0.50390 0.79700 0.20460 -0.27900
H 	H 	0.53680 0.79500 0.19980 0.09100
C 	C 	0.47300 0.78130 0.16920 0.28300
C 	C 	0.48710 0.81540 0.24640 0.15900
H 	H 	0.50840 0.82330 0.27070 -0.03100
H 	H 	0.48660 0.72390 0.12690 0.16600
C 	C 	0.41970 0.84610 0.29640 0.35100
O 	O 	0.44630 0.84760 0.33360 -0.42600
O 	O 	0.37790 0.86350 0.29840 -0.37600
C 	C 	0.31150 0.99670 0.92760 -0.18800
C 	C 	0.34400 0.03300 0.94300 0.15200
H 	H 	0.37680 0.02900 0.93940 -0.00500
C 	C 	0.32560 0.07430 0.96340 -0.28200
H 	H 	0.34640 0.09800 0.97380 0.15000
C 	C 	0.24610 0.04540 0.95300 -0.27900
H 	H 	0.21320 0.05020 0.95500 0.09000
C 	C 	0.27700 0.08080 0.96870 0.28300
C 	C 	0.26290 0.00360 0.93460 0.15900
H 	H 	0.24160 0.97930 0.92670 -0.03100
H 	H 	0.26340 0.12310 0.02610 0.16600
C 	C 	0.33030 0.95360 0.90390 0.35100
O 	O 	0.30370 0.91640 0.90240 -0.42600
O 	O 	0.37210 0.95160 0.88650 -0.37600
C 	C 	0.31150 0.49670 0.42760 -0.18800
C 	C 	0.34400 0.53300 0.44300 0.15200
H 	H 	0.37680 0.52900 0.43940 -0.00500
C 	C 	0.32560 0.57430 0.46340 -0.28200
H 	H 	0.34640 0.59800 0.47380 0.15000
C 	C 	0.24610 0.54540 0.45300 -0.27900
H 	H 	0.21320 0.55020 0.45500 0.09100
C 	C 	0.27700 0.58080 0.46870 0.28300
C 	C 	0.26290 0.50360 0.43460 0.15900
H 	H 	0.24160 0.47930 0.42670 -0.03100
H 	H 	0.26340 0.62310 0.52610 0.16600
C 	C 	0.33030 0.45360 0.40390 0.35100
O 	O 	0.30370 0.41640 0.40240 -0.42600
O 	O 	0.37210 0.45160 0.38650 -0.37600
C 	C 	0.81150 0.99670 0.42760 -0.18800
C 	C 	0.84400 0.03300 0.44300 0.15200
H 	H 	0.87680 0.02900 0.43940 -0.00500
C 	C 	0.82560 0.07430 0.46340 -0.28200
H 	H 	0.84640 0.09800 0.47380 0.15000
C 	C 	0.74610 0.04540 0.45300 -0.27900
H 	H 	0.71320 0.05020 0.45500 0.09100
C 	C 	0.77700 0.08080 0.46870 0.28300
C 	C 	0.76290 0.00360 0.43460 0.15900
H 	H 	0.74160 0.97930 0.42670 -0.03100
H 	H 	0.76340 0.12310 0.52610 0.16600
C 	C 	0.83030 0.95360 0.40390 0.35100
O 	O 	0.80370 0.91640 0.40240 -0.42600
O 	O 	0.87210 0.95160 0.38650 -0.37600
C 	C 	0.81150 0.49670 0.92760 -0.18800
C 	C 	0.84400 0.53300 0.94300 0.15200
H 	H 	0.87680 0.52900 0.93940 -0.00500
C 	C 	0.82560 0.57430 0.96340 -0.28200
H 	H 	0.84640 0.59800 0.97380 0.15000
C 	C 	0.74610 0.54540 0.95300 -0.27900
H 	H 	0.71320 0.55020 0.95500 0.09100
C 	C 	0.77700 0.58080 0.96870 0.28300
C 	C 	0.76290 0.50360 0.93460 0.15900
H 	H 	0.74160 0.47930 0.92670 -0.03100
H 	H 	0.76340 0.62310 0.02610 0.16600
C 	C 	0.83030 0.45360 0.90390 0.35100
O 	O 	0.80370 0.41640 0.90240 -0.42600
O 	O 	0.87210 0.45160 0.88650 -0.37600
C 	C 	0.99670 0.92760 0.31150 -0.18800
C 	C 	0.03300 0.94300 0.34400 0.15200
H 	H 	0.02900 0.93940 0.37680 -0.00500
C 	C 	0.07430 0.96340 0.32560 -0.28200
H 	H 	0.09800 0.97380 0.34640 0.15000
C 	C 	0.04540 0.95300 0.24610 -0.27900
H 	H 	0.05020 0.95500 0.21320 0.09000
C 	C 	0.08080 0.96870 0.27700 0.28300
C 	C 	0.00360 0.93460 0.26290 0.15900
H 	H 	0.97930 0.92670 0.24160 -0.03100
H 	H 	0.12310 0.02610 0.26340 0.16600
C 	C 	0.95360 0.90390 0.33030 0.35100
O 	O 	0.91640 0.90240 0.30370 -0.42600
O 	O 	0.95160 0.88650 0.37210 -0.37600
C 	C 	0.99670 0.42760 0.81150 -0.18800
C 	C 	0.03300 0.44300 0.84400 0.15200
H 	H 	0.02900 0.43940 0.87680 -0.00500
C 	C 	0.07430 0.46340 0.82560 -0.28200
H 	H 	0.09800 0.47380 0.84640 0.15000
C 	C 	0.04540 0.45300 0.74610 -0.27900
H 	H 	0.05020 0.45500 0.71320 0.09100
C 	C 	0.08080 0.46870 0.77700 0.28300
C 	C 	0.00360 0.43460 0.76290 0.15900
H 	H 	0.97930 0.42670 0.74160 -0.03100
H 	H 	0.12310 0.52610 0.76340 0.16600
C 	C 	0.95360 0.40390 0.83030 0.35100
O 	O 	0.91640 0.40240 0.80370 -0.42600
O 	O 	0.95160 0.38650 0.87210 -0.37600
C 	C 	0.49670 0.92760 0.81150 -0.18800
C 	C 	0.53300 0.94300 0.84400 0.15200
H 	H 	0.52900 0.93940 0.87680 -0.00500
C 	C 	0.57430 0.96340 0.82560 -0.28200
H 	H 	0.59800 0.97380 0.84640 0.15000
C 	C 	0.54540 0.95300 0.74610 -0.27900
H 	H 	0.55020 0.95500 0.71320 0.09100
C 	C 	0.58080 0.96870 0.77700 0.28300
C 	C 	0.50360 0.93460 0.76290 0.15900
H 	H 	0.47930 0.92670 0.74160 -0.03100
H 	H 	0.62310 0.02610 0.76340 0.16600
C 	C 	0.45360 0.90390 0.83030 0.35100
O 	O 	0.41640 0.90240 0.80370 -0.42600
O 	O 	0.45160 0.88650 0.87210 -0.37600
C 	C 	0.49670 0.42760 0.31150 -0.18800
C 	C 	0.53300 0.44300 0.34400 0.15200
H 	H 	0.52900 0.43940 0.37680 -0.00500
C 	C 	0.57430 0.46340 0.32560 -0.28200
H 	H 	0.59800 0.47380 0.34640 0.15000
C 	C 	0.54540 0.45300 0.24610 -0.27900
H 	H 	0.55020 0.45500 0.21320 0.09100
C 	C 	0.58080 0.46870 0.27700 0.28300
C 	C 	0.50360 0.43460 0.26290 0.15900
H 	H 	0.47930 0.42670 0.24160 -0.03100
H 	H 	0.62310 0.52610 0.26340 0.16600
C 	C 	0.45360 0.40390 0.33030 0.35100
O 	O 	0.41640 0.40240 0.30370 -0.42600
O 	O 	0.45160 0.38650 0.37210 -0.37600
C 	C 	0.92760 0.31150 0.99670 -0.18800
C 	C 	0.94300 0.34400 0.03300 0.15200
H 	H 	0.93940 0.37680 0.02900 -0.00500
C 	C 	0.96340 0.32560 0.07430 -0.28200
H 	H 	0.97380 0.34640 0.09800 0.15000
C 	C 	0.95300 0.24610 0.04540 -0.27900
H 	H 	0.95500 0.21320 0.05020 0.09000
C 	C 	0.96870 0.27700 0.08080 0.28300
C 	C 	0.93460 0.26290 0.00360 0.15900
H 	H 	0.92670 0.24160 0.97930 -0.03100
H 	H 	0.02610 0.26340 0.12310 0.16600
C 	C 	0.90390 0.33030 0.95360 0.35100
O 	O 	0.90240 0.30370 0.91640 -0.42600
O 	O 	0.88650 0.37210 0.95160 -0.37600
C 	C 	0.92760 0.81150 0.49670 -0.18800
C 	C 	0.94300 0.84400 0.53300 0.15200
H 	H 	0.93940 0.87680 0.52900 -0.00500
C 	C 	0.96340 0.82560 0.57430 -0.28200
H 	H 	0.97380 0.84640 0.59800 0.15000
C 	C 	0.95300 0.74610 0.54540 -0.27900
H 	H 	0.95500 0.71320 0.55020 0.09100
C 	C 	0.96870 0.77700 0.58080 0.28300
C 	C 	0.93460 0.76290 0.50360 0.15900
H 	H 	0.92670 0.74160 0.47930 -0.03100
H 	H 	0.02610 0.76340 0.62310 0.16600
C 	C 	0.90390 0.83030 0.45360 0.35100
O 	O 	0.90240 0.80370 0.41640 -0.42600
O 	O 	0.88650 0.87210 0.45160 -0.37600
C 	C 	0.42760 0.31150 0.49670 -0.18800
C 	C 	0.44300 0.34400 0.53300 0.15200
H 	H 	0.43940 0.37680 0.52900 -0.00500
C 	C 	0.46340 0.32560 0.57430 -0.28200
H 	H 	0.47380 0.34640 0.59800 0.15000
C 	C 	0.45300 0.24610 0.54540 -0.27900
H 	H 	0.45500 0.21320 0.55020 0.09100
C 	C 	0.46870 0.27700 0.58080 0.28300
C 	C 	0.43460 0.26290 0.50360 0.15900
H 	H 	0.42670 0.24160 0.47930 -0.03100
H 	H 	0.52610 0.26340 0.62310 0.16600
C 	C 	0.40390 0.33030 0.45360 0.35100
O 	O 	0.40240 0.30370 0.41640 -0.42600
O 	O 	0.38650 0.37210 0.45160 -0.37600
C 	C 	0.42760 0.81150 0.99670 -0.18800
C 	C 	0.44300 0.84400 0.03300 0.15200
H 	H 	0.43940 0.87680 0.02900 -0.00500
C 	C 	0.46340 0.82560 0.07430 -0.28200
H 	H 	0.47380 0.84640 0.09800 0.15000
C 	C 	0.45300 0.74610 0.04540 -0.27900
H 	H 	0.45500 0.71320 0.05020 0.09100
C 	C 	0.46870 0.77700 0.08080 0.28300
C 	C 	0.43460 0.76290 0.00360 0.15900
H 	H 	0.42670 0.74160 0.97930 -0.03100
H 	H 	0.52610 0.76340 0.12310 0.16600
C 	C 	0.40390 0.83030 0.95360 0.35100
O 	O 	0.40240 0.80370 0.91640 -0.42600
O 	O 	0.38650 0.87210 0.95160 -0.37600
C 	C 	0.12500 0.99190 0.25810 -0.47600
C 	C 	0.12500 0.49190 0.75810 -0.47600
C 	C 	0.62500 0.99190 0.75810 -0.47600
C 	C 	0.62500 0.49190 0.25810 -0.47600
C 	C 	0.25810 0.12500 0.99190 -0.47600
C 	C 	0.25810 0.62500 0.49190 -0.47600
C 	C 	0.75810 0.12500 0.49190 -0.47600
C 	C 	0.75810 0.62500 0.99190 -0.47600
C 	C 	0.99190 0.25810 0.12500 -0.47600
C 	C 	0.99190 0.75810 0.62500 -0.47600
C 	C 	0.49190 0.25810 0.62500 -0.47600
C 	C 	0.49190 0.75810 0.12500 -0.47600
Tb	Tb	0.38269 0.88269 0.38269 1.42100
Tb	Tb	0.38269 0.38269 0.88269 1.42100
Tb	Tb	0.88269 0.38269 0.38269 1.42100
Tb	Tb	0.88269 0.88269 0.88269 1.42000
Tb	Tb	0.36731 0.86731 0.86731 1.42100
Tb	Tb	0.36731 0.36731 0.36731 1.42100
Tb	Tb	0.86731 0.86731 0.36731 1.42100
Tb	Tb	0.86731 0.36731 0.86731 1.42100
C 	C 	0.74670 0.56150 0.82240 -0.18800
C 	C 	0.78300 0.59400 0.80700 0.15200
H 	H 	0.77900 0.62680 0.81060 -0.00500
C 	C 	0.82430 0.57560 0.78660 -0.28200
H 	H 	0.84800 0.59640 0.77620 0.15000
C 	C 	0.79540 0.49610 0.79700 -0.27900
H 	H 	0.80020 0.46320 0.79500 0.09100
C 	C 	0.83080 0.52700 0.78130 0.28300
C 	C 	0.75360 0.51290 0.81540 0.15900
H 	H 	0.72930 0.49160 0.82330 -0.03100
H 	H 	0.87310 0.51340 0.72390 0.16600
C 	C 	0.70360 0.58030 0.84610 0.35100
O 	O 	0.66640 0.55370 0.84760 -0.42600
O 	O 	0.70160 0.62210 0.86350 -0.37600
C 	C 	0.74670 0.06150 0.32240 -0.18800
C 	C 	0.78300 0.09400 0.30700 0.15200
H 	H 	0.77900 0.12680 0.31060 -0.00500
C 	C 	0.82430 0.07560 0.28660 -0.28200
H 	H 	0.84800 0.09640 0.27620 0.15000
C 	C 	0.79540 0.99610 0.29700 -0.27900
H 	H 	0.80020 0.96320 0.29500 0.09100
C 	C 	0.83080 0.02700 0.28130 0.28300
C 	C 	0.75360 0.01290 0.31540 0.16000
H 	H 	0.72930 0.99160 0.32330 -0.03100
H 	H 	0.87310 0.01340 0.22390 0.16600
C 	C 	0.70360 0.08030 0.34610 0.35100
O 	O 	0.66640 0.05370 0.34760 -0.42600
O 	O 	0.70160 0.12210 0.36350 -0.37600
C 	C 	0.24670 0.56150 0.32240 -0.18800
C 	C 	0.28300 0.59400 0.30700 0.15200
H 	H 	0.27900 0.62680 0.31060 -0.00500
C 	C 	0.32430 0.57560 0.28660 -0.28200
H 	H 	0.34800 0.59640 0.27620 0.15000
C 	C 	0.29540 0.49610 0.29700 -0.27900
H 	H 	0.30020 0.46320 0.29500 0.09100
C 	C 	0.33080 0.52700 0.28130 0.28300
C 	C 	0.25360 0.51290 0.31540 0.15900
H 	H 	0.22930 0.49160 0.32330 -0.03100
H 	H 	0.37310 0.51340 0.22390 0.16600
C 	C 	0.20360 0.58030 0.34610 0.35100
O 	O 	0.16640 0.55370 0.34760 -0.42600
O 	O 	0.20160 0.62210 0.36350 -0.37600
C 	C 	0.24670 0.06150 0.82240 -0.18800
C 	C 	0.28300 0.09400 0.80700 0.15200
H 	H 	0.27900 0.12680 0.81060 -0.00500
C 	C 	0.32430 0.07560 0.78660 -0.28200
H 	H 	0.34800 0.09640 0.77620 0.15000
C 	C 	0.29540 0.99610 0.79700 -0.27900
H 	H 	0.30020 0.96320 0.79500 0.09100
C 	C 	0.33080 0.02700 0.78130 0.28300
C 	C 	0.25360 0.01290 0.81540 0.16000
H 	H 	0.22930 0.99160 0.82330 -0.03100
H 	H 	0.37310 0.01340 0.72390 0.16600
C 	C 	0.20360 0.08030 0.84610 0.35100
O 	O 	0.16640 0.05370 0.84760 -0.42600
O 	O 	0.20160 0.12210 0.86350 -0.37600
C 	C 	0.67760 0.24670 0.43850 -0.18800
C 	C 	0.69300 0.28300 0.40600 0.15200
H 	H 	0.68940 0.27900 0.37320 -0.00500
C 	C 	0.71340 0.32430 0.42440 -0.28200
H 	H 	0.72380 0.34800 0.40360 0.15000
C 	C 	0.70300 0.29540 0.50390 -0.27900
H 	H 	0.70500 0.30020 0.53680 0.09100
C 	C 	0.71870 0.33080 0.47300 0.28300
C 	C 	0.68460 0.25360 0.48710 0.15900
H 	H 	0.67670 0.22930 0.50840 -0.03100
H 	H 	0.77610 0.37310 0.48660 0.16600
C 	C 	0.65390 0.20360 0.41970 0.35100
O 	O 	0.65240 0.16640 0.44630 -0.42600
O 	O 	0.63650 0.20160 0.37790 -0.37600
C 	C 	0.67760 0.74670 0.93850 -0.18800
C 	C 	0.69300 0.78300 0.90600 0.15200
H 	H 	0.68940 0.77900 0.87320 -0.00500
C 	C 	0.71340 0.82430 0.92440 -0.28200
H 	H 	0.72380 0.84800 0.90360 0.15000
C 	C 	0.70300 0.79540 0.00390 -0.27900
H 	H 	0.70500 0.80020 0.03680 0.09100
C 	C 	0.71870 0.83080 0.97300 0.28300
C 	C 	0.68460 0.75360 0.98710 0.16000
H 	H 	0.67670 0.72930 0.00840 -0.03100
H 	H 	0.77610 0.87310 0.98660 0.16600
C 	C 	0.65390 0.70360 0.91970 0.35100
O 	O 	0.65240 0.66640 0.94630 -0.42600
O 	O 	0.63650 0.70160 0.87790 -0.37600
C 	C 	0.17760 0.24670 0.93850 -0.18800
C 	C 	0.19300 0.28300 0.90600 0.15200
H 	H 	0.18940 0.27900 0.87320 -0.00500
C 	C 	0.21340 0.32430 0.92440 -0.28200
H 	H 	0.22380 0.34800 0.90360 0.15000
C 	C 	0.20300 0.29540 0.00390 -0.27900
H 	H 	0.20500 0.30020 0.03680 0.09100
C 	C 	0.21870 0.33080 0.97300 0.28300
C 	C 	0.18460 0.25360 0.98710 0.16000
H 	H 	0.17670 0.22930 0.00840 -0.03100
H 	H 	0.27610 0.37310 0.98660 0.16600
C 	C 	0.15390 0.20360 0.91970 0.35100
O 	O 	0.15240 0.16640 0.94630 -0.42600
O 	O 	0.13650 0.20160 0.87790 -0.37600
C 	C 	0.17760 0.74670 0.43850 -0.18800
C 	C 	0.19300 0.78300 0.40600 0.15200
H 	H 	0.18940 0.77900 0.37320 -0.00500
C 	C 	0.21340 0.82430 0.42440 -0.28200
H 	H 	0.22380 0.84800 0.40360 0.15000
C 	C 	0.20300 0.79540 0.50390 -0.27900
H 	H 	0.20500 0.80020 0.53680 0.09100
C 	C 	0.21870 0.83080 0.47300 0.28300
C 	C 	0.18460 0.75360 0.48710 0.15900
H 	H 	0.17670 0.72930 0.50840 -0.03100
H 	H 	0.27610 0.87310 0.48660 0.16600
C 	C 	0.15390 0.70360 0.41970 0.35100
O 	O 	0.15240 0.66640 0.44630 -0.42600
O 	O 	0.13650 0.70160 0.37790 -0.37600
C 	C 	0.06150 0.17760 0.75330 -0.18800
C 	C 	0.09400 0.19300 0.71700 0.15200
H 	H 	0.12680 0.18940 0.72100 -0.00500
C 	C 	0.07560 0.21340 0.67570 -0.28200
H 	H 	0.09640 0.22380 0.65200 0.15000
C 	C 	0.99610 0.20300 0.70460 -0.27900
H 	H 	0.96320 0.20500 0.69980 0.09100
C 	C 	0.02700 0.21870 0.66920 0.28300
C 	C 	0.01290 0.18460 0.74640 0.16000
H 	H 	0.99160 0.17670 0.77070 -0.03100
H 	H 	0.01340 0.27610 0.62690 0.16600
C 	C 	0.08030 0.15390 0.79640 0.35100
O 	O 	0.05370 0.15240 0.83360 -0.42600
O 	O 	0.12210 0.13650 0.79840 -0.37600
C 	C 	0.06150 0.67760 0.25330 -0.18800
C 	C 	0.09400 0.69300 0.21700 0.15200
H 	H 	0.12680 0.68940 0.22100 -0.00500
C 	C 	0.07560 0.71340 0.17570 -0.28200
H 	H 	0.09640 0.72380 0.15200 0.15000
C 	C 	0.99610 0.70300 0.20460 -0.27900
H 	H 	0.96320 0.70500 0.19980 0.09100
C 	C 	0.02700 0.71870 0.16920 0.28300
C 	C 	0.01290 0.68460 0.24640 0.16000
H 	H 	0.99160 0.67670 0.27070 -0.03100
H 	H 	0.01340 0.77610 0.12690 0.16600
C 	C 	0.08030 0.65390 0.29640 0.35100
O 	O 	0.05370 0.65240 0.33360 -0.42600
O 	O 	0.12210 0.63650 0.29840 -0.37600
C 	C 	0.56150 0.17760 0.25330 -0.18800
C 	C 	0.59400 0.19300 0.21700 0.15200
H 	H 	0.62680 0.18940 0.22100 -0.00500
C 	C 	0.57560 0.21340 0.17570 -0.28200
H 	H 	0.59640 0.22380 0.15200 0.15000
C 	C 	0.49610 0.20300 0.20460 -0.27900
H 	H 	0.46320 0.20500 0.19980 0.09100
C 	C 	0.52700 0.21870 0.16920 0.28300
C 	C 	0.51290 0.18460 0.24640 0.15900
H 	H 	0.49160 0.17670 0.27070 -0.03100
H 	H 	0.51340 0.27610 0.12690 0.16600
C 	C 	0.58030 0.15390 0.29640 0.35100
O 	O 	0.55370 0.15240 0.33360 -0.42600
O 	O 	0.62210 0.13650 0.29840 -0.37600
C 	C 	0.56150 0.67760 0.75330 -0.18800
C 	C 	0.59400 0.69300 0.71700 0.15200
H 	H 	0.62680 0.68940 0.72100 -0.00500
C 	C 	0.57560 0.71340 0.67570 -0.28200
H 	H 	0.59640 0.72380 0.65200 0.15000
C 	C 	0.49610 0.70300 0.70460 -0.27900
H 	H 	0.46320 0.70500 0.69980 0.09100
C 	C 	0.52700 0.71870 0.66920 0.28300
C 	C 	0.51290 0.68460 0.74640 0.15900
H 	H 	0.49160 0.67670 0.77070 -0.03100
H 	H 	0.51340 0.77610 0.62690 0.16600
C 	C 	0.58030 0.65390 0.79640 0.35100
O 	O 	0.55370 0.65240 0.83360 -0.42600
O 	O 	0.62210 0.63650 0.79840 -0.37600
C 	C 	0.68850 0.50330 0.42760 -0.18800
C 	C 	0.65600 0.46700 0.44300 0.15200
H 	H 	0.62320 0.47100 0.43940 -0.00500
C 	C 	0.67440 0.42570 0.46340 -0.28200
H 	H 	0.65360 0.40200 0.47380 0.15000
C 	C 	0.75390 0.45460 0.45300 -0.27900
H 	H 	0.78680 0.44980 0.45500 0.09100
C 	C 	0.72300 0.41920 0.46870 0.28300
C 	C 	0.73710 0.49640 0.43460 0.15900
H 	H 	0.75840 0.52070 0.42670 -0.03100
H 	H 	0.73660 0.37690 0.52610 0.16600
C 	C 	0.66970 0.54640 0.40390 0.35100
O 	O 	0.69630 0.58360 0.40240 -0.42600
O 	O 	0.62790 0.54840 0.38650 -0.37600
C 	C 	0.68850 0.00330 0.92760 -0.18800
C 	C 	0.65600 0.96700 0.94300 0.15200
H 	H 	0.62320 0.97100 0.93940 -0.00500
C 	C 	0.67440 0.92570 0.96340 -0.28200
H 	H 	0.65360 0.90200 0.97380 0.15000
C 	C 	0.75390 0.95460 0.95300 -0.27900
H 	H 	0.78680 0.94980 0.95500 0.09000
C 	C 	0.72300 0.91920 0.96870 0.28300
C 	C 	0.73710 0.99640 0.93460 0.15900
H 	H 	0.75840 0.02070 0.92670 -0.03100
H 	H 	0.73660 0.87690 0.02610 0.16600
C 	C 	0.66970 0.04640 0.90390 0.35100
O 	O 	0.69630 0.08360 0.90240 -0.42600
O 	O 	0.62790 0.04840 0.88650 -0.37600
C 	C 	0.18850 0.50330 0.92760 -0.18800
C 	C 	0.15600 0.46700 0.94300 0.15200
H 	H 	0.12320 0.47100 0.93940 -0.00500
C 	C 	0.17440 0.42570 0.96340 -0.28200
H 	H 	0.15360 0.40200 0.97380 0.15000
C 	C 	0.25390 0.45460 0.95300 -0.27900
H 	H 	0.28680 0.44980 0.95500 0.09100
C 	C 	0.22300 0.41920 0.96870 0.28300
C 	C 	0.23710 0.49640 0.93460 0.15900
H 	H 	0.25840 0.52070 0.92670 -0.03100
H 	H 	0.23660 0.37690 0.02610 0.16600
C 	C 	0.16970 0.54640 0.90390 0.35100
O 	O 	0.19630 0.58360 0.90240 -0.42600
O 	O 	0.12790 0.54840 0.88650 -0.37600
C 	C 	0.18850 0.00330 0.42760 -0.18800
C 	C 	0.15600 0.96700 0.44300 0.15200
H 	H 	0.12320 0.97100 0.43940 -0.00500
C 	C 	0.17440 0.92570 0.46340 -0.28200
H 	H 	0.15360 0.90200 0.47380 0.15000
C 	C 	0.25390 0.95460 0.45300 -0.27900
H 	H 	0.28680 0.94980 0.45500 0.09100
C 	C 	0.22300 0.91920 0.46870 0.28300
C 	C 	0.23710 0.99640 0.43460 0.15900
H 	H 	0.25840 0.02070 0.42670 -0.03100
H 	H 	0.23660 0.87690 0.52610 0.16600
C 	C 	0.16970 0.04640 0.40390 0.35100
O 	O 	0.19630 0.08360 0.40240 -0.42600
O 	O 	0.12790 0.04840 0.38650 -0.37600
C 	C 	0.00330 0.57240 0.81150 -0.18800
C 	C 	0.96700 0.55700 0.84400 0.15200
H 	H 	0.97100 0.56060 0.87680 -0.00500
C 	C 	0.92570 0.53660 0.82560 -0.28200
H 	H 	0.90200 0.52620 0.84640 0.15000
C 	C 	0.95460 0.54700 0.74610 -0.27900
H 	H 	0.94980 0.54500 0.71320 0.09100
C 	C 	0.91920 0.53130 0.77700 0.28300
C 	C 	0.99640 0.56540 0.76290 0.15900
H 	H 	0.02070 0.57330 0.74160 -0.03100
H 	H 	0.87690 0.47390 0.76340 0.16600
C 	C 	0.04640 0.59610 0.83030 0.35100
O 	O 	0.08360 0.59760 0.80370 -0.42600
O 	O 	0.04840 0.61350 0.87210 -0.37600
C 	C 	0.00330 0.07240 0.31150 -0.18800
C 	C 	0.96700 0.05700 0.34400 0.15200
H 	H 	0.97100 0.06060 0.37680 -0.00500
C 	C 	0.92570 0.03660 0.32560 -0.28200
H 	H 	0.90200 0.02620 0.34640 0.15000
C 	C 	0.95460 0.04700 0.24610 -0.27900
H 	H 	0.94980 0.04500 0.21320 0.09000
C 	C 	0.91920 0.03130 0.27700 0.28300
C 	C 	0.99640 0.06540 0.26290 0.15900
H 	H 	0.02070 0.07330 0.24160 -0.03100
H 	H 	0.87690 0.97390 0.26340 0.16600
C 	C 	0.04640 0.09610 0.33030 0.35100
O 	O 	0.08360 0.09760 0.30370 -0.42600
O 	O 	0.04840 0.11350 0.37210 -0.37600
C 	C 	0.50330 0.57240 0.31150 -0.18800
C 	C 	0.46700 0.55700 0.34400 0.15200
H 	H 	0.47100 0.56060 0.37680 -0.00500
C 	C 	0.42570 0.53660 0.32560 -0.28200
H 	H 	0.40200 0.52620 0.34640 0.15000
C 	C 	0.45460 0.54700 0.24610 -0.27900
H 	H 	0.44980 0.54500 0.21320 0.09100
C 	C 	0.41920 0.53130 0.27700 0.28300
C 	C 	0.49640 0.56540 0.26290 0.15900
H 	H 	0.52070 0.57330 0.24160 -0.03100
H 	H 	0.37690 0.47390 0.26340 0.16600
C 	C 	0.54640 0.59610 0.33030 0.35100
O 	O 	0.58360 0.59760 0.30370 -0.42600
O 	O 	0.54840 0.61350 0.37210 -0.37600
C 	C 	0.50330 0.07240 0.81150 -0.18800
C 	C 	0.46700 0.05700 0.84400 0.15200
H 	H 	0.47100 0.06060 0.87680 -0.00500
C 	C 	0.42570 0.03660 0.82560 -0.28200
H 	H 	0.40200 0.02620 0.84640 0.15000
C 	C 	0.45460 0.04700 0.74610 -0.27900
H 	H 	0.44980 0.04500 0.71320 0.09100
C 	C 	0.41920 0.03130 0.77700 0.28300
C 	C 	0.49640 0.06540 0.76290 0.15900
H 	H 	0.52070 0.07330 0.74160 -0.03100
H 	H 	0.37690 0.97390 0.76340 0.16600
C 	C 	0.54640 0.09610 0.83030 0.35100
O 	O 	0.58360 0.09760 0.80370 -0.42600
O 	O 	0.54840 0.11350 0.87210 -0.37600
C 	C 	0.07240 0.18850 0.49670 -0.18800
C 	C 	0.05700 0.15600 0.53300 0.15200
H 	H 	0.06060 0.12320 0.52900 -0.00500
C 	C 	0.03660 0.17440 0.57430 -0.28200
H 	H 	0.02620 0.15360 0.59800 0.15000
C 	C 	0.04700 0.25390 0.54540 -0.27900
H 	H 	0.04500 0.28680 0.55020 0.09100
C 	C 	0.03130 0.22300 0.58080 0.28300
C 	C 	0.06540 0.23710 0.50360 0.15900
H 	H 	0.07330 0.25840 0.47930 -0.03100
H 	H 	0.97390 0.23660 0.62310 0.16600
C 	C 	0.09610 0.16970 0.45360 0.35100
O 	O 	0.09760 0.19630 0.41640 -0.42600
O 	O 	0.11350 0.12790 0.45160 -0.37600
C 	C 	0.07240 0.68850 0.99670 -0.18800
C 	C 	0.05700 0.65600 0.03300 0.15200
H 	H 	0.06060 0.62320 0.02900 -0.00500
C 	C 	0.03660 0.67440 0.07430 -0.28200
H 	H 	0.02620 0.65360 0.09800 0.15000
C 	C 	0.04700 0.75390 0.04540 -0.27900
H 	H 	0.04500 0.78680 0.05020 0.09000
C 	C 	0.03130 0.72300 0.08080 0.28300
C 	C 	0.06540 0.73710 0.00360 0.15900
H 	H 	0.07330 0.75840 0.97930 -0.03100
H 	H 	0.97390 0.73660 0.12310 0.16600
C 	C 	0.09610 0.66970 0.95360 0.35100
O 	O 	0.09760 0.69630 0.91640 -0.42600
O 	O 	0.11350 0.62790 0.95160 -0.37600
C 	C 	0.57240 0.18850 0.99670 -0.18800
C 	C 	0.55700 0.15600 0.03300 0.15200
H 	H 	0.56060 0.12320 0.02900 -0.00500
C 	C 	0.53660 0.17440 0.07430 -0.28200
H 	H 	0.52620 0.15360 0.09800 0.15000
C 	C 	0.54700 0.25390 0.04540 -0.27900
H 	H 	0.54500 0.28680 0.05020 0.09100
C 	C 	0.53130 0.22300 0.08080 0.28300
C 	C 	0.56540 0.23710 0.00360 0.15900
H 	H 	0.57330 0.25840 0.97930 -0.03100
H 	H 	0.47390 0.23660 0.12310 0.16600
C 	C 	0.59610 0.16970 0.95360 0.35100
O 	O 	0.59760 0.19630 0.91640 -0.42600
O 	O 	0.61350 0.12790 0.95160 -0.37600
C 	C 	0.57240 0.68850 0.49670 -0.18800
C 	C 	0.55700 0.65600 0.53300 0.15200
H 	H 	0.56060 0.62320 0.52900 -0.00500
C 	C 	0.53660 0.67440 0.57430 -0.28200
H 	H 	0.52620 0.65360 0.59800 0.15000
C 	C 	0.54700 0.75390 0.54540 -0.27900
H 	H 	0.54500 0.78680 0.55020 0.09100
C 	C 	0.53130 0.72300 0.58080 0.28300
C 	C 	0.56540 0.73710 0.50360 0.15900
H 	H 	0.57330 0.75840 0.47930 -0.03100
H 	H 	0.47390 0.73660 0.62310 0.16600
C 	C 	0.59610 0.66970 0.45360 0.35100
O 	O 	0.59760 0.69630 0.41640 -0.42600
O 	O 	0.61350 0.62790 0.45160 -0.37600
C 	C 	0.87500 0.50810 0.75810 -0.47600
C 	C 	0.87500 0.00810 0.25810 -0.47600
C 	C 	0.37500 0.50810 0.25810 -0.47600
C 	C 	0.37500 0.00810 0.75810 -0.47600
C 	C 	0.74190 0.37500 0.49190 -0.47600
C 	C 	0.74190 0.87500 0.99190 -0.47600
C 	C 	0.24190 0.37500 0.99190 -0.47600
C 	C 	0.24190 0.87500 0.49190 -0.47600
C 	C 	0.00810 0.24190 0.62500 -0.47600
C 	C 	0.00810 0.74190 0.12500 -0.47600
C 	C 	0.50810 0.24190 0.12500 -0.47600
C 	C 	0.50810 0.74190 0.62500 -0.47600
Tb	Tb	0.61731 0.61731 0.88269 1.42100
Tb	Tb	0.61731 0.11731 0.38269 1.42100
Tb	Tb	0.11731 0.11731 0.88269 1.42000
Tb	Tb	0.11731 0.61731 0.38269 1.42100
Tb	Tb	0.63269 0.63269 0.36731 1.42100
Tb	Tb	0.63269 0.13269 0.86731 1.42100
Tb	Tb	0.13269 0.63269 0.86731 1.42100
Tb	Tb	0.13269 0.13269 0.36731 1.42100
