data_crystal

_cell_length_a 36.49840
_cell_length_b 36.49840
_cell_length_c 10.51480
_cell_angle_alpha 90.00000
_cell_angle_beta  90.00000
_cell_angle_gamma 120.00000

_symmetry_space_group_name_	'P 1'
_symmetry_space_group_name_H-M	'P 1'

loop_
_symmetry_equiv_pos_as_xyz
  x,y,z

loop_
_atom_site_label
_atom_site_type_symbol
_atom_site_fract_x
_atom_site_fract_y
_atom_site_fract_z
_atom_site_charge
N 	N 	0.45886 0.01925 0.07460 -0.28800
C 	C 	0.34604 0.94745 0.95980 0.01600
C 	C 	0.39294 0.96559 0.96770 -0.07100
N 	N 	0.54946 0.04627 0.10870 -0.29600
C 	C 	0.25771 0.90615 0.93520 0.26300
C 	C 	0.41618 0.00044 0.04890 0.03100
C 	C 	0.50989 0.07643 0.21460 -0.10800
C 	C 	0.39951 0.02225 0.12090 -0.06100
H 	H 	0.37100 0.01620 0.12060 0.04500
C 	C 	0.43183 0.05309 0.18960 -0.08400
H 	H 	0.42990 0.07240 0.24570 0.05500
C 	C 	0.38474 0.90793 0.81550 -0.07400
H 	H 	0.35510 0.89430 0.80090 0.05700
C 	C 	0.32757 0.95296 0.85130 0.01500
H 	H 	0.34500 0.97070 0.78450 0.02800
C 	C 	0.46946 0.05118 0.16220 0.06500
C 	C 	0.40888 0.94407 0.89590 0.06200
C 	C 	0.54651 0.07475 0.18870 0.05800
C 	C 	0.27636 0.90123 0.04310 -0.22100
H 	H 	0.25890 0.88350 0.10970 0.06800
C 	C 	0.41176 0.89682 0.76430 -0.08000
H 	H 	0.40440 0.87410 0.70700 0.05100
C 	C 	0.31993 0.92154 0.05640 -0.01000
H 	H 	0.33200 0.91780 0.13170 0.02000
C 	C 	0.51559 0.11038 0.30790 -0.01200
C 	C 	0.28387 0.93275 0.83990 -0.20400
H 	H 	0.27170 0.93720 0.76590 0.09400
C 	C 	0.52979 0.18104 0.35320 -0.20400
H 	H 	0.53400 0.20740 0.32300 0.08300
C 	C 	0.21033 0.88266 0.91940 -0.60000
H 	H 	0.19990 0.90270 0.92500 0.20000
H 	H 	0.19740 0.86140 0.98660 0.18000
H 	H 	0.20290 0.86870 0.83620 0.18300
C 	C 	0.51806 0.10457 0.43580 0.01800
H 	H 	0.51430 0.07830 0.46560 0.01100
C 	C 	0.53210 0.17496 0.48210 0.23000
C 	C 	0.52134 0.14883 0.26770 0.01600
H 	H 	0.51950 0.15340 0.17960 0.01000
C 	C 	0.52602 0.13667 0.52330 -0.20400
H 	H 	0.52720 0.13190 0.61160 0.08600
C 	C 	0.54076 0.21022 0.57560 -0.57100
H 	H 	0.56390 0.21470 0.63250 0.17600
H 	H 	0.51520 0.20230 0.62570 0.18200
H 	H 	0.54870 0.23640 0.52870 0.17800
N 	N 	0.54114 0.98075 0.92540 -0.28600
C 	C 	0.65396 0.05255 0.04020 -0.00300
C 	C 	0.60706 0.03441 0.03230 -0.14200
N 	N 	0.45054 0.95373 0.89130 -0.28300
C 	C 	0.74229 0.09385 0.06480 0.15900
C 	C 	0.58382 0.99956 0.95110 0.10700
C 	C 	0.49011 0.92357 0.78540 -0.10700
C 	C 	0.60049 0.97775 0.87910 -0.09000
H 	H 	0.62900 0.98380 0.87940 0.06600
C 	C 	0.56817 0.94691 0.81040 -0.06600
H 	H 	0.57010 0.92760 0.75430 0.05100
C 	C 	0.61526 0.09207 0.18450 -0.08700
H 	H 	0.64490 0.10570 0.19910 0.06000
C 	C 	0.67243 0.04704 0.14870 -0.01500
H 	H 	0.65500 0.02930 0.21550 0.03400
C 	C 	0.53054 0.94882 0.83780 0.06600
C 	C 	0.59112 0.05593 0.10410 0.07500
C 	C 	0.45349 0.92525 0.81130 0.06400
C 	C 	0.72364 0.09877 0.95690 -0.12800
H 	H 	0.74110 0.11650 0.89030 0.05000
C 	C 	0.58824 0.10318 0.23570 -0.07600
H 	H 	0.59560 0.12590 0.29300 0.05000
C 	C 	0.68007 0.07846 0.94360 0.00400
H 	H 	0.66800 0.08220 0.86830 0.02500
C 	C 	0.48441 0.88962 0.69210 -0.00600
C 	C 	0.71613 0.06725 0.16010 -0.15800
H 	H 	0.72830 0.06280 0.23410 0.07600
C 	C 	0.47021 0.81896 0.64680 -0.19300
H 	H 	0.46600 0.79260 0.67700 0.08100
C 	C 	0.78967 0.11734 0.08060 -0.49700
H 	H 	0.80010 0.09730 0.07500 0.15900
H 	H 	0.80260 0.13860 0.01340 0.13400
H 	H 	0.79710 0.13130 0.16380 0.15200
C 	C 	0.48194 0.89543 0.56420 0.00900
H 	H 	0.48570 0.92170 0.53440 0.01300
C 	C 	0.46790 0.82504 0.51790 0.21500
C 	C 	0.47866 0.85117 0.73230 0.00800
H 	H 	0.48050 0.84660 0.82040 0.01900
C 	C 	0.47398 0.86333 0.47670 -0.19400
H 	H 	0.47280 0.86810 0.38840 0.07700
C 	C 	0.45924 0.78978 0.42440 -0.54700
H 	H 	0.43610 0.78530 0.36750 0.16200
H 	H 	0.48480 0.79770 0.37430 0.16900
H 	H 	0.45130 0.76360 0.47130 0.16800
Sn	Sn	0.50000 0.00000 -0.00000 1.23500
N 	N 	0.12553 0.35258 0.40793 -0.28900
C 	C 	0.01271 0.28078 0.29313 -0.02500
C 	C 	0.05961 0.29892 0.30103 -0.09800
N 	N 	0.21613 0.37960 0.44203 -0.29200
C 	C 	0.92438 0.23948 0.26853 0.22700
C 	C 	0.08285 0.33377 0.38223 0.06300
C 	C 	0.17656 0.40976 0.54793 -0.10800
C 	C 	0.06618 0.35558 0.45423 -0.07400
H 	H 	0.03767 0.34953 0.45393 0.05200
C 	C 	0.09850 0.38642 0.52293 -0.07700
H 	H 	0.09657 0.40573 0.57903 0.05300
C 	C 	0.05141 0.24126 0.14883 -0.08100
H 	H 	0.02177 0.22763 0.13423 0.05300
C 	C 	0.99424 0.28629 0.18463 0.03700
H 	H 	0.01167 0.30403 0.11783 0.01000
C 	C 	0.13613 0.38451 0.49553 0.06500
C 	C 	0.07555 0.27740 0.22923 0.06100
C 	C 	0.21318 0.40808 0.52203 0.06000
C 	C 	0.94303 0.23456 0.37643 -0.19400
H 	H 	0.92557 0.21683 0.44303 0.06600
C 	C 	0.07843 0.23015 0.09763 -0.08300
H 	H 	0.07107 0.20743 0.04033 0.04400
C 	C 	0.98660 0.25487 0.38973 0.02400
H 	H 	0.99867 0.25113 0.46503 0.01500
C 	C 	0.18226 0.44371 0.64123 -0.01400
C 	C 	0.95054 0.26608 0.17323 -0.20600
H 	H 	0.93837 0.27053 0.09923 0.08800
C 	C 	0.19646 0.51437 0.68653 -0.20600
H 	H 	0.20067 0.54073 0.65633 0.08400
C 	C 	0.87700 0.21599 0.25273 -0.56100
H 	H 	0.86657 0.23603 0.25833 0.18100
H 	H 	0.86407 0.19473 0.31993 0.16000
H 	H 	0.86957 0.20203 0.16953 0.16900
C 	C 	0.18473 0.43790 0.76913 0.02100
H 	H 	0.18097 0.41163 0.79893 0.01100
C 	C 	0.19877 0.50829 0.81543 0.23400
C 	C 	0.18801 0.48216 0.60103 0.01800
H 	H 	0.18617 0.48673 0.51293 0.01000
C 	C 	0.19269 0.47000 0.85663 -0.20700
H 	H 	0.19387 0.46523 0.94493 0.09000
C 	C 	0.20743 0.54355 0.90893 -0.57600
H 	H 	0.23057 0.54803 0.96583 0.17900
H 	H 	0.18187 0.53563 0.95903 0.18500
H 	H 	0.21537 0.56973 0.86203 0.18000
N 	N 	0.20781 0.31408 0.25873 -0.29000
C 	C 	0.32063 0.38588 0.37353 0.00500
C 	C 	0.27373 0.36774 0.36563 -0.10800
N 	N 	0.11721 0.28706 0.22463 -0.29200
C 	C 	0.40896 0.42718 0.39813 0.21000
C 	C 	0.25049 0.33289 0.28443 0.06700
C 	C 	0.15678 0.25690 0.11873 -0.11600
C 	C 	0.26716 0.31108 0.21243 -0.07800
H 	H 	0.29567 0.31713 0.21273 0.05400
C 	C 	0.23484 0.28024 0.14373 -0.07800
H 	H 	0.23677 0.26093 0.08763 0.04800
C 	C 	0.28193 0.42540 0.51783 -0.08100
H 	H 	0.31157 0.43903 0.53243 0.05900
C 	C 	0.33910 0.38037 0.48203 0.00000
H 	H 	0.32167 0.36263 0.54883 0.03100
C 	C 	0.19721 0.28215 0.17113 0.06400
C 	C 	0.25779 0.38926 0.43743 0.06700
C 	C 	0.12016 0.25858 0.14463 0.05800
C 	C 	0.39031 0.43210 0.29023 -0.17500
H 	H 	0.40777 0.44983 0.22363 0.05500
C 	C 	0.25491 0.43651 0.56903 -0.07800
H 	H 	0.26227 0.45923 0.62633 0.05100
C 	C 	0.34674 0.41179 0.27693 -0.00300
H 	H 	0.33467 0.41553 0.20163 0.01700
C 	C 	0.15108 0.22295 0.02543 -0.00400
C 	C 	0.38280 0.40058 0.49343 -0.18100
H 	H 	0.39497 0.39613 0.56743 0.08600
C 	C 	0.13688 0.15229 0.98013 -0.09400
H 	H 	0.13267 0.12593 0.01033 0.03100
C 	C 	0.45634 0.45067 0.41393 -0.54800
H 	H 	0.46677 0.43063 0.40833 0.18000
H 	H 	0.46927 0.47193 0.34673 0.15600
H 	H 	0.46377 0.46463 0.49713 0.16800
C 	C 	0.14861 0.22876 0.89753 0.01800
H 	H 	0.15237 0.25503 0.86773 0.01400
C 	C 	0.13457 0.15837 0.85123 0.17600
C 	C 	0.14533 0.18450 0.06563 -0.06000
H 	H 	0.14717 0.17993 0.15373 0.03600
C 	C 	0.14065 0.19666 0.81003 -0.17300
H 	H 	0.13947 0.20143 0.72173 0.07300
C 	C 	0.12591 0.12311 0.75773 -0.51600
H 	H 	0.10277 0.11863 0.70083 0.15700
H 	H 	0.15147 0.13103 0.70763 0.16400
H 	H 	0.11797 0.09693 0.80463 0.16300
Sn	Sn	0.16667 0.33333 0.33333 1.24600
N 	N 	0.79219 0.68592 0.74127 -0.28800
C 	C 	0.67937 0.61412 0.62647 0.00700
C 	C 	0.72627 0.63226 0.63437 -0.10700
N 	N 	0.88279 0.71294 0.77537 -0.29000
C 	C 	0.59104 0.57282 0.60187 0.21200
C 	C 	0.74951 0.66711 0.71557 0.07000
C 	C 	0.84322 0.74310 0.88127 -0.10100
C 	C 	0.73284 0.68892 0.78757 -0.07400
H 	H 	0.70433 0.68287 0.78727 0.05700
C 	C 	0.76516 0.71976 0.85627 -0.07300
H 	H 	0.76323 0.73907 0.91237 0.05900
C 	C 	0.71807 0.57460 0.48217 -0.08100
H 	H 	0.68843 0.56097 0.46757 0.05900
C 	C 	0.66090 0.61963 0.51797 -0.00100
H 	H 	0.67833 0.63737 0.45117 0.03100
C 	C 	0.80279 0.71785 0.82887 0.06800
C 	C 	0.74221 0.61074 0.56257 0.06900
C 	C 	0.87984 0.74142 0.85537 0.06400
C 	C 	0.60969 0.56790 0.70977 -0.17400
H 	H 	0.59223 0.55017 0.77637 0.06400
C 	C 	0.74509 0.56349 0.43097 -0.07800
H 	H 	0.73773 0.54077 0.37367 0.05000
C 	C 	0.65326 0.58821 0.72307 -0.00200
H 	H 	0.66533 0.58447 0.79837 0.02700
C 	C 	0.84892 0.77705 0.97457 -0.01400
C 	C 	0.61720 0.59942 0.50657 -0.18100
H 	H 	0.60503 0.60387 0.43257 0.08500
C 	C 	0.86312 0.84771 0.01987 -0.30000
H 	H 	0.86733 0.87407 0.98967 0.13200
C 	C 	0.54366 0.54933 0.58607 -0.55000
H 	H 	0.53323 0.56937 0.59167 0.17900
H 	H 	0.53073 0.52807 0.65327 0.15900
H 	H 	0.53623 0.53537 0.50287 0.16800
C 	C 	0.85139 0.77124 0.10247 0.00900
H 	H 	0.84763 0.74497 0.13227 0.00900
C 	C 	0.86543 0.84163 0.14877 0.26800
C 	C 	0.85467 0.81550 0.93437 0.08200
H 	H 	0.85283 0.82007 0.84627 -0.00700
C 	C 	0.85935 0.80334 0.18997 -0.22400
H 	H 	0.86053 0.79857 0.27827 0.09000
C 	C 	0.87409 0.87689 0.24227 -0.60100
H 	H 	0.89723 0.88137 0.29917 0.18100
H 	H 	0.84853 0.86897 0.29237 0.18700
H 	H 	0.88203 0.90307 0.19537 0.18200
N 	N 	0.87447 0.64742 0.59207 -0.28900
C 	C 	0.98729 0.71922 0.70687 0.03500
C 	C 	0.94039 0.70108 0.69897 -0.11700
N 	N 	0.78387 0.62040 0.55797 -0.29100
C 	C 	0.07562 0.76052 0.73147 0.19600
C 	C 	0.91715 0.66623 0.61777 0.07300
C 	C 	0.82344 0.59024 0.45207 -0.10900
C 	C 	0.93382 0.64442 0.54577 -0.07800
H 	H 	0.96233 0.65047 0.54607 0.05800
C 	C 	0.90150 0.61358 0.47707 -0.07300
H 	H 	0.90343 0.59427 0.42097 0.05400
C 	C 	0.94859 0.75874 0.85117 -0.08100
H 	H 	0.97823 0.77237 0.86577 0.06500
C 	C 	0.00576 0.71371 0.81537 -0.03500
H 	H 	0.98833 0.69597 0.88217 0.05100
C 	C 	0.86387 0.61549 0.50447 0.06700
C 	C 	0.92445 0.72260 0.77077 0.07500
C 	C 	0.78682 0.59192 0.47797 0.06200
C 	C 	0.05697 0.76544 0.62357 -0.15600
H 	H 	0.07443 0.78317 0.55697 0.05400
C 	C 	0.92157 0.76985 0.90237 -0.07300
H 	H 	0.92893 0.79257 0.95967 0.05700
C 	C 	0.01340 0.74513 0.61027 -0.02800
H 	H 	0.00133 0.74887 0.53497 0.02900
C 	C 	0.81774 0.55629 0.35877 -0.00400
C 	C 	0.04946 0.73392 0.82677 -0.15800
H 	H 	0.06163 0.72947 0.90077 0.08300
C 	C 	0.80354 0.48563 0.31347 -0.19100
H 	H 	0.79933 0.45927 0.34367 0.08100
C 	C 	0.12300 0.78401 0.74727 -0.53700
H 	H 	0.13343 0.76397 0.74167 0.17700
H 	H 	0.13593 0.80527 0.68007 0.15400
H 	H 	0.13043 0.79797 0.83047 0.16700
C 	C 	0.81527 0.56210 0.23087 0.00700
H 	H 	0.81903 0.58837 0.20107 0.01300
C 	C 	0.80123 0.49171 0.18457 0.21200
C 	C 	0.81199 0.51784 0.39897 0.00600
H 	H 	0.81383 0.51327 0.48707 0.01800
C 	C 	0.80731 0.53000 0.14337 -0.19200
H 	H 	0.80613 0.53477 0.05507 0.07400
C 	C 	0.79257 0.45645 0.09107 -0.54300
H 	H 	0.76943 0.45197 0.03417 0.16000
H 	H 	0.81813 0.46437 0.04097 0.16700
H 	H 	0.78463 0.43027 0.13797 0.16600
Sn	Sn	0.83333 0.66667 0.66667 1.24900
N 	N 	0.98075 0.43961 0.07460 -0.28800
C 	C 	0.05255 0.39859 0.95980 0.01800
C 	C 	0.03441 0.42735 0.96770 -0.08600
N 	N 	0.95373 0.50319 0.10870 -0.29400
C 	C 	0.09385 0.35156 0.93520 0.26000
C 	C 	0.99956 0.41574 0.04890 0.04300
C 	C 	0.92357 0.43346 0.21460 -0.10800
C 	C 	0.97775 0.37726 0.12090 -0.06800
H 	H 	0.98380 0.35480 0.12060 0.05000
C 	C 	0.94691 0.37874 0.18960 -0.08100
H 	H 	0.92760 0.35750 0.24570 0.05500
C 	C 	0.09207 0.47681 0.81550 -0.07700
H 	H 	0.10570 0.46080 0.80090 0.05800
C 	C 	0.04704 0.37461 0.85130 0.01100
H 	H 	0.02930 0.37430 0.78450 0.02600
C 	C 	0.94882 0.41828 0.16220 0.06500
C 	C 	0.05593 0.46481 0.89590 0.06400
C 	C 	0.92525 0.47176 0.18870 0.06000
C 	C 	0.09877 0.37513 0.04310 -0.21900
H 	H 	0.11650 0.37540 0.10970 0.06800
C 	C 	0.10318 0.51494 0.76430 -0.08000
H 	H 	0.12590 0.53030 0.70700 0.05100
C 	C 	0.07846 0.39839 0.05640 -0.01400
H 	H 	0.08220 0.41420 0.13170 0.02000
C 	C 	0.88962 0.40521 0.30790 -0.01200
C 	C 	0.06725 0.35112 0.83990 -0.20300
H 	H 	0.06280 0.33450 0.76590 0.09200
C 	C 	0.81896 0.34875 0.35320 -0.20400
H 	H 	0.79260 0.32660 0.32300 0.08400
C 	C 	0.11734 0.32767 0.91940 -0.59800
H 	H 	0.09730 0.29720 0.92500 0.19800
H 	H 	0.13860 0.33600 0.98660 0.17900
H 	H 	0.13130 0.33420 0.83620 0.18200
C 	C 	0.89543 0.41349 0.43580 0.01800
H 	H 	0.92170 0.43600 0.46560 0.01100
C 	C 	0.82504 0.35714 0.48210 0.23000
C 	C 	0.85117 0.37251 0.26770 0.01600
H 	H 	0.84660 0.36610 0.17960 0.01000
C 	C 	0.86333 0.38935 0.52330 -0.20500
H 	H 	0.86810 0.39530 0.61160 0.08600
C 	C 	0.78978 0.33054 0.57560 -0.57100
H 	H 	0.78530 0.34920 0.63250 0.17700
H 	H 	0.79770 0.31290 0.62570 0.18200
H 	H 	0.76360 0.31230 0.52870 0.17800
N 	N 	0.01925 0.56039 0.92540 -0.28600
C 	C 	0.94745 0.60141 0.04020 -0.00600
C 	C 	0.96559 0.57265 0.03230 -0.12900
N 	N 	0.04627 0.49681 0.89130 -0.28500
C 	C 	0.90615 0.64844 0.06480 0.16200
C 	C 	0.00044 0.58426 0.95110 0.09400
C 	C 	0.07643 0.56654 0.78540 -0.10700
C 	C 	0.02225 0.62274 0.87910 -0.08400
H 	H 	0.01620 0.64520 0.87940 0.06100
C 	C 	0.05309 0.62126 0.81040 -0.06900
H 	H 	0.07240 0.64250 0.75430 0.05200
C 	C 	0.90793 0.52319 0.18450 -0.08400
H 	H 	0.89430 0.53920 0.19910 0.06000
C 	C 	0.95296 0.62539 0.14870 -0.01200
H 	H 	0.97070 0.62570 0.21550 0.03600
C 	C 	0.05118 0.58172 0.83780 0.06700
C 	C 	0.94407 0.53519 0.10410 0.07300
C 	C 	0.07475 0.52824 0.81130 0.06200
C 	C 	0.90123 0.62487 0.95690 -0.13100
H 	H 	0.88350 0.62460 0.89030 0.05100
C 	C 	0.89682 0.48506 0.23570 -0.07600
H 	H 	0.87410 0.46970 0.29300 0.05000
C 	C 	0.92154 0.60161 0.94360 0.00700
H 	H 	0.91780 0.58580 0.86830 0.02500
C 	C 	0.11038 0.59479 0.69210 -0.00600
C 	C 	0.93275 0.64888 0.16010 -0.16000
H 	H 	0.93720 0.66550 0.23410 0.07900
C 	C 	0.18104 0.65125 0.64680 -0.19200
H 	H 	0.20740 0.67340 0.67700 0.08100
C 	C 	0.88266 0.67233 0.08060 -0.50100
H 	H 	0.90270 0.70280 0.07500 0.16000
H 	H 	0.86140 0.66400 0.01340 0.13500
H 	H 	0.86870 0.66580 0.16380 0.15300
C 	C 	0.10457 0.58651 0.56420 0.00900
H 	H 	0.07830 0.56400 0.53440 0.01200
C 	C 	0.17496 0.64286 0.51790 0.21500
C 	C 	0.14883 0.62749 0.73230 0.00800
H 	H 	0.15340 0.63390 0.82040 0.01900
C 	C 	0.13667 0.61065 0.47670 -0.19400
H 	H 	0.13190 0.60470 0.38840 0.07700
C 	C 	0.21022 0.66946 0.42440 -0.54700
H 	H 	0.21470 0.65080 0.36750 0.16200
H 	H 	0.20230 0.68710 0.37430 0.16900
H 	H 	0.23640 0.68770 0.47130 0.16800
Sn	Sn	-0.00000 0.50000 -0.00000 1.23400
N 	N 	0.64742 0.77294 0.40793 -0.29000
C 	C 	0.71922 0.73192 0.29313 0.00700
C 	C 	0.70108 0.76068 0.30103 -0.10900
N 	N 	0.62040 0.83652 0.44203 -0.29200
C 	C 	0.76052 0.68489 0.26853 0.20600
C 	C 	0.66623 0.74907 0.38223 0.06800
C 	C 	0.59024 0.76679 0.54793 -0.10700
C 	C 	0.64442 0.71059 0.45423 -0.07700
H 	H 	0.65047 0.68813 0.45393 0.05500
C 	C 	0.61358 0.71207 0.52293 -0.07500
H 	H 	0.59427 0.69083 0.57903 0.05300
C 	C 	0.75874 0.81014 0.14883 -0.08400
H 	H 	0.77237 0.79413 0.13423 0.05600
C 	C 	0.71371 0.70794 0.18463 -0.00300
H 	H 	0.69597 0.70763 0.11783 0.02700
C 	C 	0.61549 0.75161 0.49553 0.06400
C 	C 	0.72260 0.79814 0.22923 0.06600
C 	C 	0.59192 0.80509 0.52203 0.06000
C 	C 	0.76544 0.70846 0.37643 -0.17200
H 	H 	0.78317 0.70873 0.44303 0.05800
C 	C 	0.76985 0.84827 0.09763 -0.08100
H 	H 	0.79257 0.86363 0.04033 0.04400
C 	C 	0.74513 0.73172 0.38973 -0.00500
H 	H 	0.74887 0.74753 0.46503 0.02300
C 	C 	0.55629 0.73854 0.64123 -0.01400
C 	C 	0.73392 0.68445 0.17323 -0.17900
H 	H 	0.72947 0.66783 0.09923 0.07900
C 	C 	0.48563 0.68208 0.68653 -0.20600
H 	H 	0.45927 0.65993 0.65633 0.08400
C 	C 	0.78401 0.66100 0.25273 -0.54200
H 	H 	0.76397 0.63053 0.25833 0.17600
H 	H 	0.80527 0.66933 0.31993 0.15500
H 	H 	0.79797 0.66753 0.16953 0.16300
C 	C 	0.56210 0.74682 0.76913 0.02100
H 	H 	0.58837 0.76933 0.79893 0.01000
C 	C 	0.49171 0.69047 0.81543 0.23400
C 	C 	0.51784 0.70584 0.60103 0.01800
H 	H 	0.51327 0.69943 0.51293 0.01100
C 	C 	0.53000 0.72268 0.85663 -0.20700
H 	H 	0.53477 0.72863 0.94493 0.09000
C 	C 	0.45645 0.66387 0.90893 -0.57600
H 	H 	0.45197 0.68253 0.96583 0.17900
H 	H 	0.46437 0.64623 0.95903 0.18500
H 	H 	0.43027 0.64563 0.86203 0.18000
N 	N 	0.68592 0.89372 0.25873 -0.29000
C 	C 	0.61412 0.93474 0.37353 -0.00400
C 	C 	0.63226 0.90598 0.36563 -0.10500
N 	N 	0.71294 0.83014 0.22463 -0.29300
C 	C 	0.57282 0.98177 0.39813 0.23800
C 	C 	0.66711 0.91759 0.28443 0.06500
C 	C 	0.74310 0.89987 0.11873 -0.11500
C 	C 	0.68892 0.95607 0.21243 -0.07700
H 	H 	0.68287 0.97853 0.21273 0.05400
C 	C 	0.71976 0.95459 0.14373 -0.07800
H 	H 	0.73907 0.97583 0.08763 0.04900
C 	C 	0.57460 0.85652 0.51783 -0.08000
H 	H 	0.56097 0.87253 0.53243 0.05800
C 	C 	0.61963 0.95872 0.48203 0.01300
H 	H 	0.63737 0.95903 0.54883 0.02800
C 	C 	0.71785 0.91505 0.17113 0.06400
C 	C 	0.61074 0.86852 0.43743 0.06600
C 	C 	0.74142 0.86157 0.14463 0.05700
C 	C 	0.56790 0.95820 0.29023 -0.19300
H 	H 	0.55017 0.95793 0.22363 0.06200
C 	C 	0.56349 0.81839 0.56903 -0.07900
H 	H 	0.54077 0.80303 0.62633 0.05100
C 	C 	0.58821 0.93494 0.27693 0.01000
H 	H 	0.58447 0.91913 0.20163 0.01300
C 	C 	0.77705 0.92812 0.02543 -0.00600
C 	C 	0.59942 0.98221 0.49343 -0.19900
H 	H 	0.60387 0.99883 0.56743 0.09300
C 	C 	0.84771 0.98458 0.98013 -0.09500
H 	H 	0.87407 0.00673 0.01033 0.03000
C 	C 	0.54933 0.00566 0.41393 -0.60400
H 	H 	0.56937 0.03613 0.40833 0.19400
H 	H 	0.52807 0.99733 0.34673 0.17500
H 	H 	0.53537 0.99913 0.49713 0.18700
C 	C 	0.77124 0.91984 0.89753 0.02200
H 	H 	0.74497 0.89733 0.86773 0.01300
C 	C 	0.84163 0.97619 0.85123 0.18900
C 	C 	0.81550 0.96082 0.06563 -0.05700
H 	H 	0.82007 0.96723 0.15373 0.03700
C 	C 	0.80334 0.94398 0.81003 -0.18100
H 	H 	0.79857 0.93803 0.72173 0.07700
C 	C 	0.87689 0.00279 0.75773 -0.54400
H 	H 	0.88137 0.98413 0.70083 0.16900
H 	H 	0.86897 0.02043 0.70763 0.17100
H 	H 	0.90307 0.02103 0.80463 0.17200
Sn	Sn	0.66667 0.83333 0.33333 1.24600
N 	N 	0.31408 0.10628 0.74127 -0.28800
C 	C 	0.38588 0.06526 0.62647 0.01600
C 	C 	0.36774 0.09402 0.63437 -0.11000
N 	N 	0.28706 0.16986 0.77537 -0.29000
C 	C 	0.42718 0.01823 0.60187 0.18500
C 	C 	0.33289 0.08241 0.71557 0.07100
C 	C 	0.25690 0.10013 0.88127 -0.10200
C 	C 	0.31108 0.04393 0.78757 -0.07500
H 	H 	0.31713 0.02147 0.78727 0.05600
C 	C 	0.28024 0.04541 0.85627 -0.07300
H 	H 	0.26093 0.02417 0.91237 0.05800
C 	C 	0.42540 0.14348 0.48217 -0.08100
H 	H 	0.43903 0.12747 0.46757 0.05900
C 	C 	0.38037 0.04128 0.51797 -0.01300
H 	H 	0.36263 0.04097 0.45117 0.03500
C 	C 	0.28215 0.08495 0.82887 0.06800
C 	C 	0.38926 0.13148 0.56257 0.07100
C 	C 	0.25858 0.13843 0.85537 0.06400
C 	C 	0.43210 0.04180 0.70977 -0.15600
H 	H 	0.44983 0.04207 0.77637 0.05800
C 	C 	0.43651 0.18161 0.43097 -0.07800
H 	H 	0.45923 0.19697 0.37367 0.05000
C 	C 	0.41179 0.06506 0.72307 -0.01500
H 	H 	0.41553 0.08087 0.79837 0.03200
C 	C 	0.22295 0.07188 0.97457 -0.01300
C 	C 	0.40058 0.01779 0.50657 -0.16300
H 	H 	0.39613 0.00117 0.43257 0.07800
C 	C 	0.15229 0.01542 0.01987 -0.30300
H 	H 	0.12593 0.99327 0.98967 0.13500
C 	C 	0.45067 0.99434 0.58607 -0.49500
H 	H 	0.43063 0.96387 0.59167 0.16500
H 	H 	0.47193 0.00267 0.65327 0.14000
H 	H 	0.46463 0.00087 0.50287 0.14900
C 	C 	0.22876 0.08016 0.10247 0.00500
H 	H 	0.25503 0.10267 0.13227 0.01100
C 	C 	0.15837 0.02381 0.14877 0.25700
C 	C 	0.18450 0.03918 0.93437 0.08200
H 	H 	0.17993 0.03277 0.84627 -0.00800
C 	C 	0.19666 0.05602 0.18997 -0.21800
H 	H 	0.20143 0.06197 0.27827 0.08700
C 	C 	0.12311 0.99721 0.24227 -0.57300
H 	H 	0.11863 0.01587 0.29917 0.16900
H 	H 	0.13103 0.97957 0.29237 0.18000
H 	H 	0.09693 0.97897 0.19537 0.17400
N 	N 	0.35258 0.22706 0.59207 -0.28800
C 	C 	0.28078 0.26808 0.70687 0.00500
C 	C 	0.29892 0.23932 0.69897 -0.10700
N 	N 	0.37960 0.16348 0.55797 -0.29100
C 	C 	0.23948 0.31511 0.73147 0.21500
C 	C 	0.33377 0.25093 0.61777 0.06900
C 	C 	0.40976 0.23321 0.45207 -0.10900
C 	C 	0.35558 0.28941 0.54577 -0.07600
H 	H 	0.34953 0.31187 0.54607 0.05500
C 	C 	0.38642 0.28793 0.47707 -0.07500
H 	H 	0.40573 0.30917 0.42097 0.05400
C 	C 	0.24126 0.18986 0.85117 -0.07800
H 	H 	0.22763 0.20587 0.86577 0.06200
C 	C 	0.28629 0.29206 0.81537 0.00200
H 	H 	0.30403 0.29237 0.88217 0.03600
C 	C 	0.38451 0.24839 0.50447 0.06700
C 	C 	0.27740 0.20186 0.77077 0.07000
C 	C 	0.40808 0.19491 0.47797 0.06200
C 	C 	0.23456 0.29154 0.62357 -0.17700
H 	H 	0.21683 0.29127 0.55697 0.06000
C 	C 	0.23015 0.15173 0.90237 -0.07500
H 	H 	0.20743 0.13637 0.95967 0.05700
C 	C 	0.25487 0.26828 0.61027 -0.00100
H 	H 	0.25113 0.25247 0.53497 0.02200
C 	C 	0.44371 0.26146 0.35877 -0.00400
C 	C 	0.26608 0.31555 0.82677 -0.18200
H 	H 	0.27053 0.33217 0.90077 0.09100
C 	C 	0.51437 0.31792 0.31347 -0.19100
H 	H 	0.54073 0.34007 0.34367 0.08000
C 	C 	0.21599 0.33900 0.74727 -0.55500
H 	H 	0.23603 0.36947 0.74167 0.18200
H 	H 	0.19473 0.33067 0.68007 0.15800
H 	H 	0.20203 0.33247 0.83047 0.17200
C 	C 	0.43790 0.25318 0.23087 0.00700
H 	H 	0.41163 0.23067 0.20107 0.01300
C 	C 	0.50829 0.30953 0.18457 0.21200
C 	C 	0.48216 0.29416 0.39897 0.00600
H 	H 	0.48673 0.30057 0.48707 0.01800
C 	C 	0.47000 0.27732 0.14337 -0.19200
H 	H 	0.46523 0.27137 0.05507 0.07400
C 	C 	0.54355 0.33613 0.09107 -0.54300
H 	H 	0.54803 0.31747 0.03417 0.16000
H 	H 	0.53563 0.35377 0.04097 0.16700
H 	H 	0.56973 0.35437 0.13797 0.16600
Sn	Sn	0.33333 0.16667 0.66667 1.24900
N 	N 	0.56039 0.54114 0.07460 -0.28900
C 	C 	0.60141 0.65396 0.95980 0.01600
C 	C 	0.57265 0.60706 0.96770 -0.07800
N 	N 	0.49681 0.45054 0.10870 -0.29600
C 	C 	0.64844 0.74229 0.93520 0.26100
C 	C 	0.58426 0.58382 0.04890 0.03500
C 	C 	0.56654 0.49011 0.21460 -0.10900
C 	C 	0.62274 0.60049 0.12090 -0.06500
H 	H 	0.64520 0.62900 0.12060 0.04700
C 	C 	0.62126 0.56817 0.18960 -0.08300
H 	H 	0.64250 0.57010 0.24570 0.05500
C 	C 	0.52319 0.61526 0.81550 -0.07600
H 	H 	0.53920 0.64490 0.80090 0.05800
C 	C 	0.62539 0.67243 0.85130 0.01300
H 	H 	0.62570 0.65500 0.78450 0.02800
C 	C 	0.58172 0.53054 0.16220 0.06500
C 	C 	0.53519 0.59112 0.89590 0.06300
C 	C 	0.52824 0.45349 0.18870 0.05900
C 	C 	0.62487 0.72364 0.04310 -0.21900
H 	H 	0.62460 0.74110 0.10970 0.06800
C 	C 	0.48506 0.58824 0.76430 -0.08000
H 	H 	0.46970 0.59560 0.70700 0.05100
C 	C 	0.60161 0.68007 0.05640 -0.01200
H 	H 	0.58580 0.66800 0.13170 0.02000
C 	C 	0.59479 0.48441 0.30790 -0.01200
C 	C 	0.64888 0.71613 0.83990 -0.20300
H 	H 	0.66550 0.72830 0.76590 0.09300
C 	C 	0.65125 0.47021 0.35320 -0.20400
H 	H 	0.67340 0.46600 0.32300 0.08300
C 	C 	0.67233 0.78967 0.91940 -0.59800
H 	H 	0.70280 0.80010 0.92500 0.19900
H 	H 	0.66400 0.80260 0.98660 0.17900
H 	H 	0.66580 0.79710 0.83620 0.18200
C 	C 	0.58651 0.48194 0.43580 0.01800
H 	H 	0.56400 0.48570 0.46560 0.01100
C 	C 	0.64286 0.46790 0.48210 0.23000
C 	C 	0.62749 0.47866 0.26770 0.01600
H 	H 	0.63390 0.48050 0.17960 0.01000
C 	C 	0.61065 0.47398 0.52330 -0.20400
H 	H 	0.60470 0.47280 0.61160 0.08600
C 	C 	0.66946 0.45924 0.57560 -0.57100
H 	H 	0.65080 0.43610 0.63250 0.17700
H 	H 	0.68710 0.48480 0.62570 0.18200
H 	H 	0.68770 0.45130 0.52870 0.17800
N 	N 	0.43961 0.45886 0.92540 -0.28600
C 	C 	0.39859 0.34604 0.04020 -0.00400
C 	C 	0.42735 0.39294 0.03230 -0.13700
N 	N 	0.50319 0.54946 0.89130 -0.28400
C 	C 	0.35156 0.25771 0.06480 0.16000
C 	C 	0.41574 0.41618 0.95110 0.10200
C 	C 	0.43346 0.50989 0.78540 -0.10700
C 	C 	0.37726 0.39951 0.87910 -0.08800
H 	H 	0.35480 0.37100 0.87940 0.06400
C 	C 	0.37874 0.43183 0.81040 -0.06800
H 	H 	0.35750 0.42990 0.75430 0.05200
C 	C 	0.47681 0.38474 0.18450 -0.08600
H 	H 	0.46080 0.35510 0.19910 0.06000
C 	C 	0.37461 0.32757 0.14870 -0.01400
H 	H 	0.37430 0.34500 0.21550 0.03500
C 	C 	0.41828 0.46946 0.83780 0.06600
C 	C 	0.46481 0.40888 0.10410 0.07400
C 	C 	0.47176 0.54651 0.81130 0.06300
C 	C 	0.37513 0.27636 0.95690 -0.12900
H 	H 	0.37540 0.25890 0.89030 0.05100
C 	C 	0.51494 0.41176 0.23570 -0.07600
H 	H 	0.53030 0.40440 0.29300 0.05000
C 	C 	0.39839 0.31993 0.94360 0.00600
H 	H 	0.41420 0.33200 0.86830 0.02500
C 	C 	0.40521 0.51559 0.69210 -0.00600
C 	C 	0.35112 0.28387 0.16010 -0.15800
H 	H 	0.33450 0.27170 0.23410 0.07700
C 	C 	0.34875 0.52979 0.64680 -0.19200
H 	H 	0.32660 0.53400 0.67700 0.08100
C 	C 	0.32767 0.21033 0.08060 -0.49900
H 	H 	0.29720 0.19990 0.07500 0.15900
H 	H 	0.33600 0.19740 0.01340 0.13500
H 	H 	0.33420 0.20290 0.16380 0.15300
C 	C 	0.41349 0.51806 0.56420 0.00900
H 	H 	0.43600 0.51430 0.53440 0.01200
C 	C 	0.35714 0.53210 0.51790 0.21500
C 	C 	0.37251 0.52134 0.73230 0.00800
H 	H 	0.36610 0.51950 0.82040 0.01900
C 	C 	0.38935 0.52602 0.47670 -0.19400
H 	H 	0.39530 0.52720 0.38840 0.07700
C 	C 	0.33054 0.54076 0.42440 -0.54700
H 	H 	0.34920 0.56390 0.36750 0.16200
H 	H 	0.31290 0.51520 0.37430 0.16900
H 	H 	0.31230 0.54870 0.47130 0.16800
Sn	Sn	0.50000 0.50000 -0.00000 1.23600
N 	N 	0.22706 0.87447 0.40793 -0.29000
C 	C 	0.26808 0.98729 0.29313 0.02900
C 	C 	0.23932 0.94039 0.30103 -0.11600
N 	N 	0.16348 0.78387 0.44203 -0.29200
C 	C 	0.31511 0.07562 0.26853 0.19200
C 	C 	0.25093 0.91715 0.38223 0.07100
C 	C 	0.23321 0.82344 0.54793 -0.10700
C 	C 	0.28941 0.93382 0.45423 -0.07800
H 	H 	0.31187 0.96233 0.45393 0.05700
C 	C 	0.28793 0.90150 0.52293 -0.07400
H 	H 	0.30917 0.90343 0.57903 0.05300
C 	C 	0.18986 0.94859 0.14883 -0.08600
H 	H 	0.20587 0.97823 0.13423 0.05800
C 	C 	0.29206 0.00576 0.18463 -0.03100
H 	H 	0.29237 0.98833 0.11783 0.03900
C 	C 	0.24839 0.86387 0.49553 0.06400
C 	C 	0.20186 0.92445 0.22923 0.07000
C 	C 	0.19491 0.78682 0.52203 0.05900
C 	C 	0.29154 0.05697 0.37643 -0.15600
H 	H 	0.29127 0.07443 0.44303 0.05300
C 	C 	0.15173 0.92157 0.09763 -0.07900
H 	H 	0.13637 0.92893 0.04033 0.04400
C 	C 	0.26828 0.01340 0.38973 -0.02500
H 	H 	0.25247 0.00133 0.46503 0.02800
C 	C 	0.26146 0.81774 0.64123 -0.01400
C 	C 	0.31555 0.04946 0.17323 -0.16100
H 	H 	0.33217 0.06163 0.09923 0.07300
C 	C 	0.31792 0.80354 0.68653 -0.20600
H 	H 	0.34007 0.79933 0.65633 0.08500
C 	C 	0.33900 0.12300 0.25273 -0.52900
H 	H 	0.36947 0.13343 0.25833 0.17200
H 	H 	0.33067 0.13593 0.31993 0.15100
H 	H 	0.33247 0.13043 0.16953 0.15900
C 	C 	0.25318 0.81527 0.76913 0.02100
H 	H 	0.23067 0.81903 0.79893 0.01100
C 	C 	0.30953 0.80123 0.81543 0.23400
C 	C 	0.29416 0.81199 0.60103 0.01800
H 	H 	0.30057 0.81383 0.51293 0.01100
C 	C 	0.27732 0.80731 0.85663 -0.20700
H 	H 	0.27137 0.80613 0.94493 0.09000
C 	C 	0.33613 0.79257 0.90893 -0.57600
H 	H 	0.31747 0.76943 0.96583 0.17900
H 	H 	0.35377 0.81813 0.95903 0.18500
H 	H 	0.35437 0.78463 0.86203 0.18000
N 	N 	0.10628 0.79219 0.25873 -0.29000
C 	C 	0.06526 0.67937 0.37353 0.01800
C 	C 	0.09402 0.72627 0.36563 -0.11300
N 	N 	0.16986 0.88279 0.22463 -0.29300
C 	C 	0.01823 0.59104 0.39813 0.17200
C 	C 	0.08241 0.74951 0.28443 0.06800
C 	C 	0.10013 0.84322 0.11873 -0.11500
C 	C 	0.04393 0.73284 0.21243 -0.08000
H 	H 	0.02147 0.70433 0.21273 0.05200
C 	C 	0.04541 0.76516 0.14373 -0.07700
H 	H 	0.02417 0.76323 0.08763 0.04700
C 	C 	0.14348 0.71807 0.51783 -0.08200
H 	H 	0.12747 0.68843 0.53243 0.05900
C 	C 	0.04128 0.66090 0.48203 -0.01800
H 	H 	0.04097 0.67833 0.54883 0.03700
C 	C 	0.08495 0.80279 0.17113 0.06300
C 	C 	0.13148 0.74221 0.43743 0.06900
C 	C 	0.13843 0.87984 0.14463 0.05700
C 	C 	0.04180 0.60969 0.29023 -0.15000
H 	H 	0.04207 0.59223 0.22363 0.04600
C 	C 	0.18161 0.74509 0.56903 -0.07700
H 	H 	0.19697 0.73773 0.62633 0.05100
C 	C 	0.06506 0.65326 0.27693 -0.02100
H 	H 	0.08087 0.66533 0.20163 0.02300
C 	C 	0.07188 0.84892 0.02543 -0.00400
C 	C 	0.01779 0.61720 0.49343 -0.15600
H 	H 	0.00117 0.60503 0.56743 0.07600
C 	C 	0.01542 0.86312 0.98013 -0.10100
H 	H 	0.99327 0.86733 0.01033 0.03900
C 	C 	0.99434 0.54366 0.41393 -0.47100
H 	H 	0.96387 0.53323 0.40833 0.15900
H 	H 	0.00267 0.53073 0.34673 0.12900
H 	H 	0.00087 0.53623 0.49713 0.14100
C 	C 	0.08016 0.85139 0.89753 0.01600
H 	H 	0.10267 0.84763 0.86773 0.01500
C 	C 	0.02381 0.86543 0.85123 0.16800
C 	C 	0.03918 0.85467 0.06563 -0.05700
H 	H 	0.03277 0.85283 0.15373 0.03400
C 	C 	0.05602 0.85935 0.81003 -0.16900
H 	H 	0.06197 0.86053 0.72173 0.07200
C 	C 	0.99721 0.87409 0.75773 -0.49000
H 	H 	0.01587 0.89723 0.70083 0.14800
H 	H 	0.97957 0.84853 0.70763 0.15800
H 	H 	0.97897 0.88203 0.80463 0.15900
Sn	Sn	0.16667 0.83333 0.33333 1.24600
N 	N 	0.89372 0.20781 0.74127 -0.28800
C 	C 	0.93474 0.32063 0.62647 -0.00500
C 	C 	0.90598 0.27373 0.63437 -0.10200
N 	N 	0.83014 0.11721 0.77537 -0.29000
C 	C 	0.98177 0.40896 0.60187 0.24900
C 	C 	0.91759 0.25049 0.71557 0.06800
C 	C 	0.89987 0.15678 0.88127 -0.10200
C 	C 	0.95607 0.26716 0.78757 -0.07300
H 	H 	0.97853 0.29567 0.78727 0.05800
C 	C 	0.95459 0.23484 0.85627 -0.07300
H 	H 	0.97583 0.23677 0.91237 0.06000
C 	C 	0.85652 0.28193 0.48217 -0.07900
H 	H 	0.87253 0.31157 0.46757 0.05800
C 	C 	0.95872 0.33910 0.51797 0.01700
H 	H 	0.95903 0.32167 0.45117 0.02600
C 	C 	0.91505 0.19721 0.82887 0.06800
C 	C 	0.86852 0.25779 0.56257 0.06700
C 	C 	0.86157 0.12016 0.85537 0.06400
C 	C 	0.95820 0.39031 0.70977 -0.20000
H 	H 	0.95793 0.40777 0.77637 0.07300
C 	C 	0.81839 0.25491 0.43097 -0.07900
H 	H 	0.80303 0.26227 0.37367 0.05000
C 	C 	0.93494 0.34674 0.72307 0.01600
H 	H 	0.91913 0.33467 0.79837 0.02200
C 	C 	0.92812 0.15108 0.97457 -0.01500
C 	C 	0.98221 0.38280 0.50657 -0.20600
H 	H 	0.99883 0.39497 0.43257 0.09500
C 	C 	0.98458 0.13688 0.01987 -0.29500
H 	H 	0.00673 0.13267 0.98967 0.12600
C 	C 	0.00566 0.45634 0.58607 -0.62600
H 	H 	0.03613 0.46677 0.59167 0.19900
H 	H 	0.99733 0.46927 0.65327 0.18500
H 	H 	0.99913 0.46377 0.50287 0.19400
C 	C 	0.91984 0.14861 0.10247 0.01200
H 	H 	0.89733 0.15237 0.13227 0.00800
C 	C 	0.97619 0.13457 0.14877 0.27900
C 	C 	0.96082 0.14533 0.93437 0.08000
H 	H 	0.96723 0.14717 0.84627 -0.00600
C 	C 	0.94398 0.14065 0.18997 -0.23000
H 	H 	0.93803 0.13947 0.27827 0.09200
C 	C 	0.00279 0.12591 0.24227 -0.63000
H 	H 	0.98413 0.10277 0.29917 0.19100
H 	H 	0.02043 0.15147 0.29237 0.19400
H 	H 	0.02103 0.11797 0.19537 0.18700
N 	N 	0.77294 0.12553 0.59207 -0.28800
C 	C 	0.73192 0.01271 0.70687 -0.01600
C 	C 	0.76068 0.05961 0.69897 -0.10000
N 	N 	0.83652 0.21613 0.55797 -0.29100
C 	C 	0.68489 0.92438 0.73147 0.22900
C 	C 	0.74907 0.08285 0.61777 0.06500
C 	C 	0.76679 0.17656 0.45207 -0.11000
C 	C 	0.71059 0.06618 0.54577 -0.07400
H 	H 	0.68813 0.03767 0.54607 0.05300
C 	C 	0.71207 0.09850 0.47707 -0.07700
H 	H 	0.69083 0.09657 0.42097 0.05400
C 	C 	0.81014 0.05141 0.85117 -0.07600
H 	H 	0.79413 0.02177 0.86577 0.05900
C 	C 	0.70794 0.99424 0.81537 0.02900
H 	H 	0.70763 0.01167 0.88217 0.02400
C 	C 	0.75161 0.13613 0.50447 0.06700
C 	C 	0.79814 0.07555 0.77077 0.06700
C 	C 	0.80509 0.21318 0.47797 0.06200
C 	C 	0.70846 0.94303 0.62357 -0.19200
H 	H 	0.70873 0.92557 0.55697 0.06500
C 	C 	0.84827 0.07843 0.90237 -0.07700
H 	H 	0.86363 0.07107 0.95967 0.05600
C 	C 	0.73172 0.98660 0.61027 0.01900
H 	H 	0.74753 0.99867 0.53497 0.01700
C 	C 	0.73854 0.18226 0.35877 -0.00400
C 	C 	0.68445 0.95054 0.82677 -0.20000
H 	H 	0.66783 0.93837 0.90077 0.09800
C 	C 	0.68208 0.19646 0.31347 -0.19100
H 	H 	0.65993 0.20067 0.34367 0.08000
C 	C 	0.66100 0.87700 0.74727 -0.56800
H 	H 	0.63053 0.86657 0.74167 0.18600
H 	H 	0.66933 0.86407 0.68007 0.16200
H 	H 	0.66753 0.86957 0.83047 0.17500
C 	C 	0.74682 0.18473 0.23087 0.00600
H 	H 	0.76933 0.18097 0.20107 0.01300
C 	C 	0.69047 0.19877 0.18457 0.21200
C 	C 	0.70584 0.18801 0.39897 0.00600
H 	H 	0.69943 0.18617 0.48707 0.01800
C 	C 	0.72268 0.19269 0.14337 -0.19200
H 	H 	0.72863 0.19387 0.05507 0.07400
C 	C 	0.66387 0.20743 0.09107 -0.54300
H 	H 	0.68253 0.23057 0.03417 0.16000
H 	H 	0.64623 0.18187 0.04097 0.16700
H 	H 	0.64563 0.21537 0.13797 0.16600
Sn	Sn	0.83333 0.16667 0.66667 1.24900
