data_crystal

_cell_length_a 46.64000
_cell_length_b 12.44700
_cell_length_c 31.37000
_cell_angle_alpha 90.00000
_cell_angle_beta  131.26300
_cell_angle_gamma 90.00000

_symmetry_space_group_name_	'P 1'
_symmetry_space_group_name_H-M	'P 1'

loop_
_symmetry_equiv_pos_as_xyz
  x,y,z

loop_
_atom_site_label
_atom_site_type_symbol
_atom_site_fract_x
_atom_site_fract_y
_atom_site_fract_z
_atom_site_charge
Cd	Cd	0.37754 0.62607 0.39546 1.20600
Cd	Cd	0.08689 0.46801 0.07084 1.20400
Cd	Cd	0.13959 0.80489 0.12080 1.22200
C 	C 	0.05800 0.44670 0.94500 0.06000
H 	H 	0.03490 0.45910 0.93610 -0.01500
C 	C 	0.12530 0.42900 0.20330 0.07000
H 	H 	0.14680 0.41580 0.20780 -0.00200
C 	C 	0.34610 0.65150 0.26990 0.07000
H 	H 	0.32900 0.69640 0.26720 -0.02900
C 	C 	0.16150 0.54950 0.14320 0.46200
C 	C 	0.43820 0.40240 0.47150 0.45000
C 	C 	0.05810 0.43000 0.90020 -0.14100
H 	H 	0.03540 0.43470 0.86270 0.07500
C 	C 	0.12800 0.41260 0.25130 -0.15100
H 	H 	0.15090 0.39340 0.28660 0.09300
C 	C 	0.34040 0.63200 0.22140 -0.15400
H 	H 	0.32050 0.66600 0.18770 0.08200
C 	C 	0.20340 0.57940 0.18680 -0.54900
H 	H 	0.20610 0.63730 0.20990 0.18100
H 	H 	0.21110 0.60740 0.16680 0.18500
C 	C 	0.47400 0.41380 0.53260 -0.49300
H 	H 	0.46690 0.41780 0.55560 0.17300
H 	H 	0.48630 0.48100 0.53720 0.17100
C 	C 	0.09280 0.40720 0.91270 0.08900
C 	C 	0.09540 0.42620 0.24300 0.11700
C 	C 	0.36440 0.56120 0.22250 0.10100
C 	C 	0.23150 0.48960 0.22680 0.32400
H 	H 	0.22320 0.45740 0.24520 -0.05800
H 	H 	0.23100 0.43430 0.20460 -0.05900
C 	C 	0.50410 0.31790 0.55610 0.25400
H 	H 	0.52550 0.32860 0.59620 -0.05200
H 	H 	0.49210 0.25010 0.55160 -0.04000
C 	C 	0.12690 0.40150 0.97050 -0.13700
H 	H 	0.15040 0.38690 0.98110 0.08700
C 	C 	0.06270 0.46070 0.19140 -0.16900
H 	H 	0.04060 0.47120 0.18560 0.08500
C 	C 	0.39560 0.51790 0.27490 -0.15200
H 	H 	0.41330 0.47480 0.27820 0.09100
C 	C 	0.27210 0.53000 0.27180 -0.53700
H 	H 	0.28060 0.55940 0.25310 0.17500
H 	H 	0.27210 0.58810 0.29240 0.17200
C 	C 	0.51870 0.31370 0.52350 -0.52600
H 	H 	0.49690 0.31080 0.48310 0.19100
H 	H 	0.53260 0.37930 0.53100 0.17700
C 	C 	0.12300 0.41950 0.01150 0.06700
H 	H 	0.14490 0.41310 0.04950 -0.00600
C 	C 	0.06280 0.48020 0.14710 0.08800
H 	H 	0.04070 0.50650 0.11280 -0.02100
C 	C 	0.39940 0.54030 0.32070 0.07300
H 	H 	0.41960 0.50790 0.35480 -0.01000
C 	C 	0.30030 0.44650 0.31370 0.42000
C 	C 	0.54370 0.22050 0.53930 0.44400
C 	C 	0.09200 0.38500 0.86650 -0.03200
H 	H 	0.06930 0.39280 0.82920 0.05000
C 	C 	0.09370 0.40580 0.28810 -0.04200
H 	H 	0.07360 0.43060 0.28490 0.05800
C 	C 	0.35790 0.53810 0.17050 -0.03500
H 	H 	0.33710 0.56910 0.13640 0.05400
C 	C 	0.14620 0.30170 0.83510 -0.04400
H 	H 	0.16950 0.29600 0.87200 0.05900
C 	C 	0.14400 0.28300 0.41630 -0.03900
H 	H 	0.16460 0.26010 0.42010 0.05600
C 	C 	0.39460 0.41760 0.12110 -0.04200
H 	H 	0.41650 0.39230 0.15600 0.06100
C 	C 	0.17350 0.21880 0.75080 0.07400
H 	H 	0.19590 0.20020 0.75880 -0.00900
C 	C 	0.11390 0.72850 0.00290 0.08800
H 	H 	0.09410 0.70210 -0.00000 -0.01900
C 	C 	0.41680 0.63970 0.52720 0.09000
H 	H 	0.43820 0.65560 0.53170 -0.02200
C 	C 	0.17550 0.24450 0.79750 -0.15900
H 	H 	0.19850 0.24080 0.83470 0.08300
C 	C 	0.11380 0.70720 0.95870 -0.16400
H 	H 	0.09370 0.66920 0.92690 0.09700
C 	C 	0.42100 0.62910 0.57460 -0.17100
H 	H 	0.44480 0.64060 0.61030 0.08700
C 	C 	0.14300 0.27430 0.78600 0.11100
C 	C 	0.14320 0.74190 0.96190 0.11200
C 	C 	0.38980 0.60100 0.56960 0.12000
C 	C 	0.10910 0.27890 0.72870 -0.15200
H 	H 	0.08660 0.30130 0.71960 0.08900
C 	C 	0.17270 0.80100 0.00930 -0.16400
H 	H 	0.19300 0.82700 0.01310 0.08500
C 	C 	0.35540 0.58710 0.51470 -0.18300
H 	H 	0.33380 0.56920 0.50910 0.10000
C 	C 	0.10870 0.25040 0.68540 0.07300
H 	H 	0.08580 0.25200 0.64800 -0.01900
C 	C 	0.17050 0.81880 0.05020 0.07800
H 	H 	0.19040 0.85740 0.08200 -0.00800
C 	C 	0.35270 0.59860 0.47090 0.10000
H 	H 	0.32910 0.58620 0.43520 -0.03100
N 	N 	0.09060 0.44460 0.00040 -0.23500
N 	N 	0.09290 0.46280 0.15190 -0.23400
N 	N 	0.37570 0.60780 0.32170 -0.24500
N 	N 	0.12180 0.35530 0.87590 -0.07300
N 	N 	0.12200 0.35120 0.33240 -0.07300
N 	N 	0.37990 0.47680 0.17140 -0.07300
N 	N 	0.11510 0.33490 0.82550 -0.07300
N 	N 	0.11710 0.33530 0.37230 -0.07300
N 	N 	0.36950 0.46730 0.11850 -0.07300
N 	N 	0.14110 0.22030 0.69660 -0.23300
N 	N 	0.14140 0.78490 0.04860 -0.23300
N 	N 	0.38250 0.62780 0.47380 -0.24900
O 	O 	0.13640 0.62150 0.11590 -0.54700
O 	O 	0.42190 0.48860 0.44340 -0.48600
O 	O 	0.15360 0.44980 0.13610 -0.44400
O 	O 	0.42490 0.30890 0.44960 -0.45200
O 	O 	0.33570 0.48030 0.35660 -0.54900
O 	O 	0.57980 0.23190 0.56750 -0.54100
O 	O 	0.20720 0.84750 0.19190 -0.41400
O 	O 	0.52960 0.12510 0.52590 -0.43400
Cd	Cd	0.87754 0.12607 0.39546 1.20500
Cd	Cd	0.58689 0.96801 0.07084 1.20300
Cd	Cd	0.63959 0.30489 0.12080 1.22100
C 	C 	0.55800 0.94670 0.94500 0.05900
H 	H 	0.53490 0.95910 0.93610 -0.01600
C 	C 	0.62530 0.92900 0.20330 0.06900
H 	H 	0.64680 0.91580 0.20780 -0.00300
C 	C 	0.84610 0.15150 0.26990 0.06900
H 	H 	0.82900 0.19640 0.26720 -0.03000
C 	C 	0.66150 0.04950 0.14320 0.46100
C 	C 	0.93820 0.90240 0.47150 0.44900
C 	C 	0.55810 0.93000 0.90020 -0.14200
H 	H 	0.53540 0.93470 0.86270 0.07400
C 	C 	0.62800 0.91260 0.25130 -0.15200
H 	H 	0.65090 0.89340 0.28660 0.09200
C 	C 	0.84040 0.13200 0.22140 -0.15500
H 	H 	0.82050 0.16600 0.18770 0.08100
C 	C 	0.70340 0.07940 0.18680 -0.54800
H 	H 	0.70610 0.13730 0.20990 0.18100
H 	H 	0.71110 0.10740 0.16680 0.18500
C 	C 	0.97400 0.91380 0.53260 -0.49300
H 	H 	0.96690 0.91780 0.55560 0.17300
H 	H 	0.98630 0.98100 0.53720 0.17100
C 	C 	0.59280 0.90720 0.91270 0.08900
C 	C 	0.59540 0.92620 0.24300 0.11700
C 	C 	0.86440 0.06120 0.22250 0.10100
C 	C 	0.73150 0.98960 0.22680 0.32400
H 	H 	0.72320 0.95740 0.24520 -0.05800
H 	H 	0.73100 0.93430 0.20460 -0.05900
C 	C 	0.00410 0.81790 0.55610 0.25400
H 	H 	0.02550 0.82860 0.59620 -0.05200
H 	H 	0.99210 0.75010 0.55160 -0.04000
C 	C 	0.62690 0.90150 0.97050 -0.13700
H 	H 	0.65040 0.88690 0.98110 0.08700
C 	C 	0.56270 0.96070 0.19140 -0.16900
H 	H 	0.54060 0.97120 0.18560 0.08500
C 	C 	0.89560 0.01790 0.27490 -0.15100
H 	H 	0.91330 0.97480 0.27820 0.09100
C 	C 	0.77210 0.03000 0.27180 -0.53700
H 	H 	0.78060 0.05940 0.25310 0.17500
H 	H 	0.77210 0.08810 0.29240 0.17200
C 	C 	0.01870 0.81370 0.52350 -0.52600
H 	H 	0.99690 0.81080 0.48310 0.19100
H 	H 	0.03260 0.87930 0.53100 0.17700
C 	C 	0.62300 0.91950 0.01150 0.06800
H 	H 	0.64490 0.91310 0.04950 -0.00600
C 	C 	0.56280 0.98020 0.14710 0.08800
H 	H 	0.54070 0.00650 0.11280 -0.02100
C 	C 	0.89940 0.04030 0.32070 0.07300
H 	H 	0.91960 0.00790 0.35480 -0.01000
C 	C 	0.80030 0.94650 0.31370 0.42000
C 	C 	0.04370 0.72050 0.53930 0.44400
C 	C 	0.59200 0.88500 0.86650 -0.03200
H 	H 	0.56930 0.89280 0.82920 0.05000
C 	C 	0.59370 0.90580 0.28810 -0.04200
H 	H 	0.57360 0.93060 0.28490 0.05800
C 	C 	0.85790 0.03810 0.17050 -0.03500
H 	H 	0.83710 0.06910 0.13640 0.05400
C 	C 	0.64620 0.80170 0.83510 -0.04400
H 	H 	0.66950 0.79600 0.87200 0.05900
C 	C 	0.64400 0.78300 0.41630 -0.03900
H 	H 	0.66460 0.76010 0.42010 0.05600
C 	C 	0.89460 0.91760 0.12110 -0.04200
H 	H 	0.91650 0.89230 0.15600 0.06100
C 	C 	0.67350 0.71880 0.75080 0.07400
H 	H 	0.69590 0.70020 0.75880 -0.00900
C 	C 	0.61390 0.22850 0.00290 0.08800
H 	H 	0.59410 0.20210 -0.00000 -0.01900
C 	C 	0.91680 0.13970 0.52720 0.09000
H 	H 	0.93820 0.15560 0.53170 -0.02200
C 	C 	0.67550 0.74450 0.79750 -0.15900
H 	H 	0.69850 0.74080 0.83470 0.08300
C 	C 	0.61380 0.20720 0.95870 -0.16400
H 	H 	0.59370 0.16920 0.92690 0.09800
C 	C 	0.92100 0.12910 0.57460 -0.17100
H 	H 	0.94480 0.14060 0.61030 0.08700
C 	C 	0.64300 0.77430 0.78600 0.11100
C 	C 	0.64320 0.24190 0.96190 0.11100
C 	C 	0.88980 0.10100 0.56960 0.12000
C 	C 	0.60910 0.77890 0.72870 -0.15200
H 	H 	0.58660 0.80130 0.71960 0.08900
C 	C 	0.67270 0.30100 0.00930 -0.16400
H 	H 	0.69300 0.32700 0.01310 0.08500
C 	C 	0.85540 0.08710 0.51470 -0.18300
H 	H 	0.83380 0.06920 0.50910 0.10000
C 	C 	0.60870 0.75040 0.68540 0.07300
H 	H 	0.58580 0.75200 0.64800 -0.01900
C 	C 	0.67050 0.31880 0.05020 0.07800
H 	H 	0.69040 0.35740 0.08200 -0.00800
C 	C 	0.85270 0.09860 0.47090 0.10000
H 	H 	0.82910 0.08620 0.43520 -0.03100
N 	N 	0.59060 0.94460 0.00040 -0.23500
N 	N 	0.59290 0.96280 0.15190 -0.23400
N 	N 	0.87570 0.10780 0.32170 -0.24500
N 	N 	0.62180 0.85530 0.87590 -0.07300
N 	N 	0.62200 0.85120 0.33240 -0.07300
N 	N 	0.87990 0.97680 0.17140 -0.07400
N 	N 	0.61510 0.83490 0.82550 -0.07300
N 	N 	0.61710 0.83530 0.37230 -0.07300
N 	N 	0.86950 0.96730 0.11850 -0.07300
N 	N 	0.64110 0.72030 0.69660 -0.23300
N 	N 	0.64140 0.28490 0.04860 -0.23300
N 	N 	0.88250 0.12780 0.47380 -0.24900
O 	O 	0.63640 0.12150 0.11590 -0.54700
O 	O 	0.92190 0.98860 0.44340 -0.48600
O 	O 	0.65360 0.94980 0.13610 -0.44400
O 	O 	0.92490 0.80890 0.44960 -0.45200
O 	O 	0.83570 0.98030 0.35660 -0.54900
O 	O 	0.07980 0.73190 0.56750 -0.54100
O 	O 	0.70720 0.34750 0.19190 -0.41400
O 	O 	0.02960 0.62510 0.52590 -0.43400
Cd	Cd	0.62246 0.62607 0.10454 1.20500
Cd	Cd	0.91311 0.46801 0.42916 1.20300
Cd	Cd	0.86041 0.80489 0.37920 1.22100
C 	C 	0.94200 0.44670 0.55500 0.05900
H 	H 	0.96510 0.45910 0.56390 -0.01600
C 	C 	0.87470 0.42900 0.29670 0.06900
H 	H 	0.85320 0.41580 0.29220 -0.00300
C 	C 	0.65390 0.65150 0.23010 0.06900
H 	H 	0.67100 0.69640 0.23280 -0.03000
C 	C 	0.83850 0.54950 0.35680 0.46100
C 	C 	0.56180 0.40240 0.02850 0.45000
C 	C 	0.94190 0.43000 0.59980 -0.14200
H 	H 	0.96460 0.43470 0.63730 0.07400
C 	C 	0.87200 0.41260 0.24870 -0.15200
H 	H 	0.84910 0.39340 0.21340 0.09200
C 	C 	0.65960 0.63200 0.27860 -0.15500
H 	H 	0.67950 0.66600 0.31230 0.08100
C 	C 	0.79660 0.57940 0.31320 -0.54900
H 	H 	0.79390 0.63730 0.29010 0.18100
H 	H 	0.78890 0.60740 0.33320 0.18500
C 	C 	0.52600 0.41380 0.96740 -0.49400
H 	H 	0.53310 0.41780 0.94440 0.17300
H 	H 	0.51370 0.48100 0.96280 0.17100
C 	C 	0.90720 0.40720 0.58730 0.08900
C 	C 	0.90460 0.42620 0.25700 0.11700
C 	C 	0.63560 0.56120 0.27750 0.10100
C 	C 	0.76850 0.48960 0.27320 0.32400
H 	H 	0.77680 0.45740 0.25480 -0.05800
H 	H 	0.76900 0.43430 0.29540 -0.05900
C 	C 	0.49590 0.31790 0.94390 0.25600
H 	H 	0.47450 0.32860 0.90380 -0.05200
H 	H 	0.50790 0.25010 0.94840 -0.04000
C 	C 	0.87310 0.40150 0.52950 -0.13700
H 	H 	0.84960 0.38690 0.51890 0.08700
C 	C 	0.93730 0.46070 0.30860 -0.16900
H 	H 	0.95940 0.47120 0.31440 0.08500
C 	C 	0.60440 0.51790 0.22510 -0.15200
H 	H 	0.58670 0.47480 0.22180 0.09100
C 	C 	0.72790 0.53000 0.22820 -0.53700
H 	H 	0.71940 0.55940 0.24690 0.17500
H 	H 	0.72790 0.58810 0.20760 0.17200
C 	C 	0.48130 0.31370 0.97650 -0.52800
H 	H 	0.50310 0.31080 0.01690 0.19200
H 	H 	0.46740 0.37930 0.96900 0.17700
C 	C 	0.87700 0.41950 0.48850 0.06700
H 	H 	0.85510 0.41310 0.45050 -0.00600
C 	C 	0.93720 0.48020 0.35290 0.08800
H 	H 	0.95930 0.50650 0.38720 -0.02100
C 	C 	0.60060 0.54030 0.17930 0.07300
H 	H 	0.58040 0.50790 0.14520 -0.01000
C 	C 	0.69970 0.44650 0.18630 0.42000
C 	C 	0.45630 0.22050 0.96070 0.44400
C 	C 	0.90800 0.38500 0.63350 -0.03100
H 	H 	0.93070 0.39280 0.67080 0.05000
C 	C 	0.90630 0.40580 0.21190 -0.04200
H 	H 	0.92640 0.43060 0.21510 0.05800
C 	C 	0.64210 0.53810 0.32950 -0.03500
H 	H 	0.66290 0.56910 0.36360 0.05400
C 	C 	0.85380 0.30170 0.66490 -0.04400
H 	H 	0.83050 0.29600 0.62800 0.05900
C 	C 	0.85600 0.28300 0.08370 -0.03900
H 	H 	0.83540 0.26010 0.07990 0.05600
C 	C 	0.60540 0.41760 0.37890 -0.04300
H 	H 	0.58350 0.39230 0.34400 0.06100
C 	C 	0.82650 0.21880 0.74920 0.07400
H 	H 	0.80410 0.20020 0.74120 -0.00900
C 	C 	0.88610 0.72850 0.49710 0.08700
H 	H 	0.90590 0.70210 0.50000 -0.01900
C 	C 	0.58320 0.63970 0.97280 0.09000
H 	H 	0.56180 0.65560 0.96830 -0.02200
C 	C 	0.82450 0.24450 0.70250 -0.15900
H 	H 	0.80150 0.24080 0.66530 0.08300
C 	C 	0.88620 0.70720 0.54130 -0.16300
H 	H 	0.90630 0.66920 0.57310 0.09700
C 	C 	0.57900 0.62910 0.92540 -0.17200
H 	H 	0.55520 0.64060 0.88970 0.08700
C 	C 	0.85700 0.27430 0.71400 0.11100
C 	C 	0.85680 0.74190 0.53810 0.11200
C 	C 	0.61020 0.60100 0.93040 0.12000
C 	C 	0.89090 0.27890 0.77130 -0.15200
H 	H 	0.91340 0.30130 0.78040 0.08900
C 	C 	0.82730 0.80100 0.49070 -0.16500
H 	H 	0.80700 0.82700 0.48690 0.08500
C 	C 	0.64460 0.58710 0.98530 -0.18500
H 	H 	0.66620 0.56920 0.99090 0.10000
C 	C 	0.89130 0.25040 0.81460 0.07300
H 	H 	0.91420 0.25200 0.85200 -0.01900
C 	C 	0.82950 0.81880 0.44980 0.07800
H 	H 	0.80960 0.85740 0.41800 -0.00800
C 	C 	0.64730 0.59860 0.02910 0.10200
H 	H 	0.67090 0.58620 0.06480 -0.03100
N 	N 	0.90940 0.44460 0.49960 -0.23500
N 	N 	0.90710 0.46280 0.34810 -0.23400
N 	N 	0.62430 0.60780 0.17830 -0.24500
N 	N 	0.87820 0.35530 0.62410 -0.07300
N 	N 	0.87800 0.35120 0.16760 -0.07300
N 	N 	0.62010 0.47680 0.32860 -0.07300
N 	N 	0.88490 0.33490 0.67450 -0.07300
N 	N 	0.88290 0.33530 0.12770 -0.07300
N 	N 	0.63050 0.46730 0.38150 -0.07300
N 	N 	0.85890 0.22030 0.80340 -0.23300
N 	N 	0.85860 0.78490 0.45140 -0.23300
N 	N 	0.61750 0.62780 0.02620 -0.24900
O 	O 	0.86360 0.62150 0.38410 -0.54700
O 	O 	0.57810 0.48860 0.05660 -0.48600
O 	O 	0.84640 0.44980 0.36390 -0.44400
O 	O 	0.57510 0.30890 0.05040 -0.45300
O 	O 	0.66430 0.48030 0.14340 -0.54900
O 	O 	0.42020 0.23190 0.93250 -0.54100
O 	O 	0.79280 0.84750 0.30810 -0.41400
O 	O 	0.47040 0.12510 0.97410 -0.43400
Cd	Cd	0.12246 0.12607 0.10454 1.20500
Cd	Cd	0.41311 0.96801 0.42916 1.20300
Cd	Cd	0.36041 0.30489 0.37920 1.22100
C 	C 	0.44200 0.94670 0.55500 0.05900
H 	H 	0.46510 0.95910 0.56390 -0.01600
C 	C 	0.37470 0.92900 0.29670 0.06900
H 	H 	0.35320 0.91580 0.29220 -0.00300
C 	C 	0.15390 0.15150 0.23010 0.06900
H 	H 	0.17100 0.19640 0.23280 -0.03000
C 	C 	0.33850 0.04950 0.35680 0.46100
C 	C 	0.06180 0.90240 0.02850 0.44900
C 	C 	0.44190 0.93000 0.59980 -0.14200
H 	H 	0.46460 0.93470 0.63730 0.07400
C 	C 	0.37200 0.91260 0.24870 -0.15200
H 	H 	0.34910 0.89340 0.21340 0.09200
C 	C 	0.15960 0.13200 0.27860 -0.15400
H 	H 	0.17950 0.16600 0.31230 0.08100
C 	C 	0.29660 0.07940 0.31320 -0.54800
H 	H 	0.29390 0.13730 0.29010 0.18100
H 	H 	0.28890 0.10740 0.33320 0.18500
C 	C 	0.02600 0.91380 0.96740 -0.49300
H 	H 	0.03310 0.91780 0.94440 0.17300
H 	H 	0.01370 0.98100 0.96280 0.17100
C 	C 	0.40720 0.90720 0.58730 0.08900
C 	C 	0.40460 0.92620 0.25700 0.11700
C 	C 	0.13560 0.06120 0.27750 0.10100
C 	C 	0.26850 0.98960 0.27320 0.32400
H 	H 	0.27680 0.95740 0.25480 -0.05800
H 	H 	0.26900 0.93430 0.29540 -0.05900
C 	C 	0.99590 0.81790 0.94390 0.25400
H 	H 	0.97450 0.82860 0.90380 -0.05200
H 	H 	0.00790 0.75010 0.94840 -0.04000
C 	C 	0.37310 0.90150 0.52950 -0.13700
H 	H 	0.34960 0.88690 0.51890 0.08700
C 	C 	0.43730 0.96070 0.30860 -0.16900
H 	H 	0.45940 0.97120 0.31440 0.08500
C 	C 	0.10440 0.01790 0.22510 -0.15100
H 	H 	0.08670 0.97480 0.22180 0.09100
C 	C 	0.22790 0.03000 0.22820 -0.53700
H 	H 	0.21940 0.05940 0.24690 0.17500
H 	H 	0.22790 0.08810 0.20760 0.17200
C 	C 	0.98130 0.81370 0.97650 -0.52700
H 	H 	0.00310 0.81080 0.01690 0.19100
H 	H 	0.96740 0.87930 0.96900 0.17700
C 	C 	0.37700 0.91950 0.48850 0.06700
H 	H 	0.35510 0.91310 0.45050 -0.00600
C 	C 	0.43720 0.98020 0.35290 0.08800
H 	H 	0.45930 0.00650 0.38720 -0.02100
C 	C 	0.10060 0.04030 0.17930 0.07300
H 	H 	0.08040 0.00790 0.14520 -0.01000
C 	C 	0.19970 0.94650 0.18630 0.42000
C 	C 	0.95630 0.72050 0.96070 0.44400
C 	C 	0.40800 0.88500 0.63350 -0.03100
H 	H 	0.43070 0.89280 0.67080 0.05000
C 	C 	0.40630 0.90580 0.21190 -0.04200
H 	H 	0.42640 0.93060 0.21510 0.05800
C 	C 	0.14210 0.03810 0.32950 -0.03500
H 	H 	0.16290 0.06910 0.36360 0.05400
C 	C 	0.35380 0.80170 0.66490 -0.04400
H 	H 	0.33050 0.79600 0.62800 0.05900
C 	C 	0.35600 0.78300 0.08370 -0.03900
H 	H 	0.33540 0.76010 0.07990 0.05600
C 	C 	0.10540 0.91760 0.37890 -0.04300
H 	H 	0.08350 0.89230 0.34400 0.06100
C 	C 	0.32650 0.71880 0.74920 0.07400
H 	H 	0.30410 0.70020 0.74120 -0.00900
C 	C 	0.38610 0.22850 0.49710 0.08700
H 	H 	0.40590 0.20210 0.50000 -0.01800
C 	C 	0.08320 0.13970 0.97280 0.09000
H 	H 	0.06180 0.15560 0.96830 -0.02200
C 	C 	0.32450 0.74450 0.70250 -0.15900
H 	H 	0.30150 0.74080 0.66530 0.08300
C 	C 	0.38620 0.20720 0.54130 -0.16300
H 	H 	0.40630 0.16920 0.57310 0.09700
C 	C 	0.07900 0.12910 0.92540 -0.17200
H 	H 	0.05520 0.14060 0.88970 0.08700
C 	C 	0.35700 0.77430 0.71400 0.11100
C 	C 	0.35680 0.24190 0.53810 0.11200
C 	C 	0.11020 0.10100 0.93040 0.12000
C 	C 	0.39090 0.77890 0.77130 -0.15200
H 	H 	0.41340 0.80130 0.78040 0.08900
C 	C 	0.32730 0.30100 0.49070 -0.16500
H 	H 	0.30700 0.32700 0.48690 0.08500
C 	C 	0.14460 0.08710 0.98530 -0.18500
H 	H 	0.16620 0.06920 0.99090 0.10000
C 	C 	0.39130 0.75040 0.81460 0.07300
H 	H 	0.41420 0.75200 0.85200 -0.01900
C 	C 	0.32950 0.31880 0.44980 0.07800
H 	H 	0.30960 0.35740 0.41800 -0.00800
C 	C 	0.14730 0.09860 0.02910 0.10100
H 	H 	0.17090 0.08620 0.06480 -0.03100
N 	N 	0.40940 0.94460 0.49960 -0.23500
N 	N 	0.40710 0.96280 0.34810 -0.23400
N 	N 	0.12430 0.10780 0.17830 -0.24500
N 	N 	0.37820 0.85530 0.62410 -0.07300
N 	N 	0.37800 0.85120 0.16760 -0.07300
N 	N 	0.12010 0.97680 0.32860 -0.07400
N 	N 	0.38490 0.83490 0.67450 -0.07300
N 	N 	0.38290 0.83530 0.12770 -0.07300
N 	N 	0.13050 0.96730 0.38150 -0.07300
N 	N 	0.35890 0.72030 0.80340 -0.23300
N 	N 	0.35860 0.28490 0.45140 -0.23300
N 	N 	0.11750 0.12780 0.02620 -0.24900
O 	O 	0.36360 0.12150 0.38410 -0.54700
O 	O 	0.07810 0.98860 0.05660 -0.48600
O 	O 	0.34640 0.94980 0.36390 -0.44400
O 	O 	0.07510 0.80890 0.05040 -0.45300
O 	O 	0.16430 0.98030 0.14340 -0.54900
O 	O 	0.92020 0.73190 0.93250 -0.54100
O 	O 	0.29280 0.34750 0.30810 -0.41400
O 	O 	0.97040 0.62510 0.97410 -0.43400
Cd	Cd	0.62246 0.37393 0.60454 1.20500
Cd	Cd	0.91311 0.53199 0.92916 1.20300
Cd	Cd	0.86041 0.19511 0.87920 1.22100
C 	C 	0.94200 0.55330 0.05500 0.06000
H 	H 	0.96510 0.54090 0.06390 -0.01600
C 	C 	0.87470 0.57100 0.79670 0.06900
H 	H 	0.85320 0.58420 0.79220 -0.00300
C 	C 	0.65390 0.34850 0.73010 0.06900
H 	H 	0.67100 0.30360 0.73280 -0.03000
C 	C 	0.83850 0.45050 0.85680 0.46100
C 	C 	0.56180 0.59760 0.52850 0.44900
C 	C 	0.94190 0.57000 0.09980 -0.14200
H 	H 	0.96460 0.56530 0.13730 0.07400
C 	C 	0.87200 0.58740 0.74870 -0.15200
H 	H 	0.84910 0.60660 0.71340 0.09200
C 	C 	0.65960 0.36800 0.77860 -0.15500
H 	H 	0.67950 0.33400 0.81230 0.08100
C 	C 	0.79660 0.42060 0.81320 -0.54900
H 	H 	0.79390 0.36270 0.79010 0.18100
H 	H 	0.78890 0.39260 0.83320 0.18500
C 	C 	0.52600 0.58620 0.46740 -0.49300
H 	H 	0.53310 0.58220 0.44440 0.17300
H 	H 	0.51370 0.51900 0.46280 0.17100
C 	C 	0.90720 0.59280 0.08730 0.08900
C 	C 	0.90460 0.57380 0.75700 0.11700
C 	C 	0.63560 0.43880 0.77750 0.10100
C 	C 	0.76850 0.51040 0.77320 0.32400
H 	H 	0.77680 0.54260 0.75480 -0.05800
H 	H 	0.76900 0.56570 0.79540 -0.05900
C 	C 	0.49590 0.68210 0.44390 0.25400
H 	H 	0.47450 0.67140 0.40380 -0.05200
H 	H 	0.50790 0.74990 0.44840 -0.04000
C 	C 	0.87310 0.59850 0.02950 -0.13600
H 	H 	0.84960 0.61310 0.01890 0.08700
C 	C 	0.93730 0.53930 0.80860 -0.16900
H 	H 	0.95940 0.52880 0.81440 0.08500
C 	C 	0.60440 0.48210 0.72510 -0.15200
H 	H 	0.58670 0.52520 0.72180 0.09100
C 	C 	0.72790 0.47000 0.72820 -0.53700
H 	H 	0.71940 0.44060 0.74690 0.17500
H 	H 	0.72790 0.41190 0.70760 0.17200
C 	C 	0.48130 0.68630 0.47650 -0.52600
H 	H 	0.50310 0.68920 0.51690 0.19100
H 	H 	0.46740 0.62070 0.46900 0.17700
C 	C 	0.87700 0.58050 0.98850 0.06600
H 	H 	0.85510 0.58690 0.95050 -0.00600
C 	C 	0.93720 0.51980 0.85290 0.08800
H 	H 	0.95930 0.49350 0.88720 -0.02100
C 	C 	0.60060 0.45970 0.67930 0.07300
H 	H 	0.58040 0.49210 0.64520 -0.01000
C 	C 	0.69970 0.55350 0.68630 0.42000
C 	C 	0.45630 0.77950 0.46070 0.44400
C 	C 	0.90800 0.61500 0.13350 -0.03100
H 	H 	0.93070 0.60720 0.17080 0.05000
C 	C 	0.90630 0.59420 0.71190 -0.04200
H 	H 	0.92640 0.56940 0.71510 0.05800
C 	C 	0.64210 0.46190 0.82950 -0.03500
H 	H 	0.66290 0.43090 0.86360 0.05400
C 	C 	0.85380 0.69830 0.16490 -0.04400
H 	H 	0.83050 0.70400 0.12800 0.05900
C 	C 	0.85600 0.71700 0.58370 -0.03900
H 	H 	0.83540 0.73990 0.57990 0.05600
C 	C 	0.60540 0.58240 0.87890 -0.04300
H 	H 	0.58350 0.60770 0.84400 0.06100
C 	C 	0.82650 0.78120 0.24920 0.07400
H 	H 	0.80410 0.79980 0.24120 -0.00900
C 	C 	0.88610 0.27150 0.99710 0.08500
H 	H 	0.90590 0.29790 -0.00000 -0.01700
C 	C 	0.58320 0.36030 0.47280 0.09000
H 	H 	0.56180 0.34440 0.46830 -0.02200
C 	C 	0.82450 0.75550 0.20250 -0.15900
H 	H 	0.80150 0.75920 0.16530 0.08300
C 	C 	0.88620 0.29280 0.04130 -0.16100
H 	H 	0.90630 0.33080 0.07310 0.09700
C 	C 	0.57900 0.37090 0.42540 -0.17100
H 	H 	0.55520 0.35940 0.38970 0.08700
C 	C 	0.85700 0.72570 0.21400 0.11100
C 	C 	0.85680 0.25810 0.03810 0.11200
C 	C 	0.61020 0.39900 0.43040 0.12000
C 	C 	0.89090 0.72110 0.27130 -0.15200
H 	H 	0.91340 0.69870 0.28040 0.08900
C 	C 	0.82730 0.19900 0.99070 -0.16600
H 	H 	0.80700 0.17300 0.98690 0.08500
C 	C 	0.64460 0.41290 0.48530 -0.18300
H 	H 	0.66620 0.43080 0.49090 0.10000
C 	C 	0.89130 0.74960 0.31460 0.07300
H 	H 	0.91420 0.74800 0.35200 -0.01900
C 	C 	0.82950 0.18120 0.94980 0.07800
H 	H 	0.80960 0.14260 0.91800 -0.00800
C 	C 	0.64730 0.40140 0.52910 0.10000
H 	H 	0.67090 0.41380 0.56480 -0.03100
N 	N 	0.90940 0.55540 0.99960 -0.23500
N 	N 	0.90710 0.53720 0.84810 -0.23400
N 	N 	0.62430 0.39220 0.67830 -0.24500
N 	N 	0.87820 0.64470 0.12410 -0.07300
N 	N 	0.87800 0.64880 0.66760 -0.07300
N 	N 	0.62010 0.52320 0.82860 -0.07300
N 	N 	0.88490 0.66510 0.17450 -0.07300
N 	N 	0.88290 0.66470 0.62770 -0.07300
N 	N 	0.63050 0.53270 0.88150 -0.07300
N 	N 	0.85890 0.77970 0.30340 -0.23300
N 	N 	0.85860 0.21510 0.95140 -0.23300
N 	N 	0.61750 0.37220 0.52620 -0.24900
O 	O 	0.86360 0.37850 0.88410 -0.54700
O 	O 	0.57810 0.51140 0.55660 -0.48600
O 	O 	0.84640 0.55020 0.86390 -0.44400
O 	O 	0.57510 0.69110 0.55040 -0.45200
O 	O 	0.66430 0.51970 0.64340 -0.54900
O 	O 	0.42020 0.76810 0.43250 -0.54100
O 	O 	0.79280 0.15250 0.80810 -0.41400
O 	O 	0.47040 0.87490 0.47410 -0.43400
Cd	Cd	0.12246 0.87393 0.60454 1.20500
Cd	Cd	0.41311 0.03199 0.92916 1.20300
Cd	Cd	0.36041 0.69511 0.87920 1.22100
C 	C 	0.44200 0.05330 0.05500 0.06000
H 	H 	0.46510 0.04090 0.06390 -0.01600
C 	C 	0.37470 0.07100 0.79670 0.06900
H 	H 	0.35320 0.08420 0.79220 -0.00300
C 	C 	0.15390 0.84850 0.73010 0.06900
H 	H 	0.17100 0.80360 0.73280 -0.03000
C 	C 	0.33850 0.95050 0.85680 0.46100
C 	C 	0.06180 0.09760 0.52850 0.44900
C 	C 	0.44190 0.07000 0.09980 -0.14200
H 	H 	0.46460 0.06530 0.13730 0.07400
C 	C 	0.37200 0.08740 0.74870 -0.15200
H 	H 	0.34910 0.10660 0.71340 0.09200
C 	C 	0.15960 0.86800 0.77860 -0.15400
H 	H 	0.17950 0.83400 0.81230 0.08100
C 	C 	0.29660 0.92060 0.81320 -0.54800
H 	H 	0.29390 0.86270 0.79010 0.18100
H 	H 	0.28890 0.89260 0.83320 0.18500
C 	C 	0.02600 0.08620 0.46740 -0.49300
H 	H 	0.03310 0.08220 0.44440 0.17300
H 	H 	0.01370 0.01900 0.46280 0.17100
C 	C 	0.40720 0.09280 0.08730 0.08900
C 	C 	0.40460 0.07380 0.75700 0.11700
C 	C 	0.13560 0.93880 0.77750 0.10100
C 	C 	0.26850 0.01040 0.77320 0.32400
H 	H 	0.27680 0.04260 0.75480 -0.05800
H 	H 	0.26900 0.06570 0.79540 -0.05900
C 	C 	0.99590 0.18210 0.44390 0.25500
H 	H 	0.97450 0.17140 0.40380 -0.05200
H 	H 	0.00790 0.24990 0.44840 -0.04000
C 	C 	0.37310 0.09850 0.02950 -0.13600
H 	H 	0.34960 0.11310 0.01890 0.08700
C 	C 	0.43730 0.03930 0.80860 -0.16900
H 	H 	0.45940 0.02880 0.81440 0.08500
C 	C 	0.10440 0.98210 0.72510 -0.15100
H 	H 	0.08670 0.02520 0.72180 0.09100
C 	C 	0.22790 0.97000 0.72820 -0.53700
H 	H 	0.21940 0.94060 0.74690 0.17500
H 	H 	0.22790 0.91190 0.70760 0.17200
C 	C 	0.98130 0.18630 0.47650 -0.52600
H 	H 	0.00310 0.18920 0.51690 0.19100
H 	H 	0.96740 0.12070 0.46900 0.17700
C 	C 	0.37700 0.08050 0.98850 0.06600
H 	H 	0.35510 0.08690 0.95050 -0.00600
C 	C 	0.43720 0.01980 0.85290 0.08800
H 	H 	0.45930 0.99350 0.88720 -0.02100
C 	C 	0.10060 0.95970 0.67930 0.07300
H 	H 	0.08040 0.99210 0.64520 -0.01000
C 	C 	0.19970 0.05350 0.68630 0.42000
C 	C 	0.95630 0.27950 0.46070 0.44400
C 	C 	0.40800 0.11500 0.13350 -0.03100
H 	H 	0.43070 0.10720 0.17080 0.05000
C 	C 	0.40630 0.09420 0.71190 -0.04200
H 	H 	0.42640 0.06940 0.71510 0.05800
C 	C 	0.14210 0.96190 0.82950 -0.03500
H 	H 	0.16290 0.93090 0.86360 0.05400
C 	C 	0.35380 0.19830 0.16490 -0.04400
H 	H 	0.33050 0.20400 0.12800 0.05900
C 	C 	0.35600 0.21700 0.58370 -0.03900
H 	H 	0.33540 0.23990 0.57990 0.05600
C 	C 	0.10540 0.08240 0.87890 -0.04300
H 	H 	0.08350 0.10770 0.84400 0.06100
C 	C 	0.32650 0.28120 0.24920 0.07400
H 	H 	0.30410 0.29980 0.24120 -0.00900
C 	C 	0.38610 0.77150 0.99710 0.08500
H 	H 	0.40590 0.79790 -0.00000 -0.01800
C 	C 	0.08320 0.86030 0.47280 0.09000
H 	H 	0.06180 0.84440 0.46830 -0.02200
C 	C 	0.32450 0.25550 0.20250 -0.15900
H 	H 	0.30150 0.25920 0.16530 0.08300
C 	C 	0.38620 0.79280 0.04130 -0.16200
H 	H 	0.40630 0.83080 0.07310 0.09700
C 	C 	0.07900 0.87090 0.42540 -0.17100
H 	H 	0.05520 0.85940 0.38970 0.08700
C 	C 	0.35700 0.22570 0.21400 0.11100
C 	C 	0.35680 0.75810 0.03810 0.11200
C 	C 	0.11020 0.89900 0.43040 0.12000
C 	C 	0.39090 0.22110 0.27130 -0.15200
H 	H 	0.41340 0.19870 0.28040 0.08900
C 	C 	0.32730 0.69900 0.99070 -0.16500
H 	H 	0.30700 0.67300 0.98690 0.08500
C 	C 	0.14460 0.91290 0.48530 -0.18300
H 	H 	0.16620 0.93080 0.49090 0.10000
C 	C 	0.39130 0.24960 0.31460 0.07300
H 	H 	0.41420 0.24800 0.35200 -0.01900
C 	C 	0.32950 0.68120 0.94980 0.07800
H 	H 	0.30960 0.64260 0.91800 -0.00800
C 	C 	0.14730 0.90140 0.52910 0.10000
H 	H 	0.17090 0.91380 0.56480 -0.03100
N 	N 	0.40940 0.05540 0.99960 -0.23500
N 	N 	0.40710 0.03720 0.84810 -0.23400
N 	N 	0.12430 0.89220 0.67830 -0.24500
N 	N 	0.37820 0.14470 0.12410 -0.07300
N 	N 	0.37800 0.14880 0.66760 -0.07300
N 	N 	0.12010 0.02320 0.82860 -0.07400
N 	N 	0.38490 0.16510 0.17450 -0.07300
N 	N 	0.38290 0.16470 0.62770 -0.07300
N 	N 	0.13050 0.03270 0.88150 -0.07300
N 	N 	0.35890 0.27970 0.30340 -0.23300
N 	N 	0.35860 0.71510 0.95140 -0.23300
N 	N 	0.11750 0.87220 0.52620 -0.24900
O 	O 	0.36360 0.87850 0.88410 -0.54700
O 	O 	0.07810 0.01140 0.55660 -0.48600
O 	O 	0.34640 0.05020 0.86390 -0.44400
O 	O 	0.07510 0.19110 0.55040 -0.45200
O 	O 	0.16430 0.01970 0.64340 -0.54900
O 	O 	0.92020 0.26810 0.43250 -0.54100
O 	O 	0.29280 0.65250 0.80810 -0.41400
O 	O 	0.97040 0.37490 0.47410 -0.43400
Cd	Cd	0.37754 0.37393 0.89546 1.20500
Cd	Cd	0.08689 0.53199 0.57084 1.20300
Cd	Cd	0.13959 0.19511 0.62080 1.22100
C 	C 	0.05800 0.55330 0.44500 0.05900
H 	H 	0.03490 0.54090 0.43610 -0.01600
C 	C 	0.12530 0.57100 0.70330 0.06900
H 	H 	0.14680 0.58420 0.70780 -0.00300
C 	C 	0.34610 0.34850 0.76990 0.06900
H 	H 	0.32900 0.30360 0.76720 -0.03000
C 	C 	0.16150 0.45050 0.64320 0.46100
C 	C 	0.43820 0.59760 0.97150 0.44800
C 	C 	0.05810 0.57000 0.40020 -0.14200
H 	H 	0.03540 0.56530 0.36270 0.07400
C 	C 	0.12800 0.58740 0.75130 -0.15200
H 	H 	0.15090 0.60660 0.78660 0.09200
C 	C 	0.34040 0.36800 0.72140 -0.15500
H 	H 	0.32050 0.33400 0.68770 0.08100
C 	C 	0.20340 0.42060 0.68680 -0.54900
H 	H 	0.20610 0.36270 0.70990 0.18100
H 	H 	0.21110 0.39260 0.66680 0.18500
C 	C 	0.47400 0.58620 0.03260 -0.49200
H 	H 	0.46690 0.58220 0.05560 0.17300
H 	H 	0.48630 0.51900 0.03720 0.17100
C 	C 	0.09280 0.59280 0.41270 0.08900
C 	C 	0.09540 0.57380 0.74300 0.11700
C 	C 	0.36440 0.43880 0.72250 0.10100
C 	C 	0.23150 0.51040 0.72680 0.32400
H 	H 	0.22320 0.54260 0.74520 -0.05800
H 	H 	0.23100 0.56570 0.70460 -0.05900
C 	C 	0.50410 0.68210 0.05610 0.25400
H 	H 	0.52550 0.67140 0.09620 -0.05200
H 	H 	0.49210 0.74990 0.05160 -0.03900
C 	C 	0.12690 0.59850 0.47050 -0.13700
H 	H 	0.15040 0.61310 0.48110 0.08700
C 	C 	0.06270 0.53930 0.69140 -0.16900
H 	H 	0.04060 0.52880 0.68560 0.08500
C 	C 	0.39560 0.48210 0.77490 -0.15200
H 	H 	0.41330 0.52520 0.77820 0.09100
C 	C 	0.27210 0.47000 0.77180 -0.53700
H 	H 	0.28060 0.44060 0.75310 0.17500
H 	H 	0.27210 0.41190 0.79240 0.17200
C 	C 	0.51870 0.68630 0.02350 -0.52500
H 	H 	0.49690 0.68920 0.98310 0.19000
H 	H 	0.53260 0.62070 0.03100 0.17700
C 	C 	0.12300 0.58050 0.51150 0.06700
H 	H 	0.14490 0.58690 0.54950 -0.00600
C 	C 	0.06280 0.51980 0.64710 0.08800
H 	H 	0.04070 0.49350 0.61280 -0.02100
C 	C 	0.39940 0.45970 0.82070 0.07300
H 	H 	0.41960 0.49210 0.85480 -0.01000
C 	C 	0.30030 0.55350 0.81370 0.42000
C 	C 	0.54370 0.77950 0.03930 0.44300
C 	C 	0.09200 0.61500 0.36650 -0.03100
H 	H 	0.06930 0.60720 0.32920 0.05000
C 	C 	0.09370 0.59420 0.78810 -0.04200
H 	H 	0.07360 0.56940 0.78490 0.05800
C 	C 	0.35790 0.46190 0.67050 -0.03500
H 	H 	0.33710 0.43090 0.63640 0.05400
C 	C 	0.14620 0.69830 0.33510 -0.04400
H 	H 	0.16950 0.70400 0.37200 0.05900
C 	C 	0.14400 0.71700 0.91630 -0.03900
H 	H 	0.16460 0.73990 0.92010 0.05600
C 	C 	0.39460 0.58240 0.62110 -0.04300
H 	H 	0.41650 0.60770 0.65600 0.06100
C 	C 	0.17350 0.78120 0.25080 0.07400
H 	H 	0.19590 0.79980 0.25880 -0.00900
C 	C 	0.11390 0.27150 0.50290 0.08700
H 	H 	0.09410 0.29790 0.50000 -0.01900
C 	C 	0.41680 0.36030 0.02720 0.09000
H 	H 	0.43820 0.34440 0.03170 -0.02200
C 	C 	0.17550 0.75550 0.29750 -0.15900
H 	H 	0.19850 0.75920 0.33470 0.08300
C 	C 	0.11380 0.29280 0.45870 -0.16300
H 	H 	0.09370 0.33080 0.42690 0.09700
C 	C 	0.42100 0.37090 0.07460 -0.17100
H 	H 	0.44480 0.35940 0.11030 0.08700
C 	C 	0.14300 0.72570 0.28600 0.11100
C 	C 	0.14320 0.25810 0.46190 0.11200
C 	C 	0.38980 0.39900 0.06960 0.12000
C 	C 	0.10910 0.72110 0.22870 -0.15200
H 	H 	0.08660 0.69870 0.21960 0.08900
C 	C 	0.17270 0.19900 0.50930 -0.16500
H 	H 	0.19300 0.17300 0.51310 0.08500
C 	C 	0.35540 0.41290 0.01470 -0.18200
H 	H 	0.33380 0.43080 0.00910 0.10000
C 	C 	0.10870 0.74960 0.18540 0.07300
H 	H 	0.08580 0.74800 0.14800 -0.01900
C 	C 	0.17050 0.18120 0.55020 0.07800
H 	H 	0.19040 0.14260 0.58200 -0.00800
C 	C 	0.35270 0.40140 0.97090 0.09900
H 	H 	0.32910 0.41380 0.93520 -0.03000
N 	N 	0.09060 0.55540 0.50040 -0.23500
N 	N 	0.09290 0.53720 0.65190 -0.23400
N 	N 	0.37570 0.39220 0.82170 -0.24500
N 	N 	0.12180 0.64470 0.37590 -0.07300
N 	N 	0.12200 0.64880 0.83240 -0.07300
N 	N 	0.37990 0.52320 0.67140 -0.07300
N 	N 	0.11510 0.66510 0.32550 -0.07300
N 	N 	0.11710 0.66470 0.87230 -0.07300
N 	N 	0.36950 0.53270 0.61850 -0.07300
N 	N 	0.14110 0.77970 0.19660 -0.23300
N 	N 	0.14140 0.21510 0.54860 -0.23300
N 	N 	0.38250 0.37220 0.97380 -0.24900
O 	O 	0.13640 0.37850 0.61590 -0.54700
O 	O 	0.42190 0.51140 0.94340 -0.48600
O 	O 	0.15360 0.55020 0.63610 -0.44400
O 	O 	0.42490 0.69110 0.94960 -0.45200
O 	O 	0.33570 0.51970 0.85660 -0.54900
O 	O 	0.57980 0.76810 0.06750 -0.54000
O 	O 	0.20720 0.15250 0.69190 -0.41400
O 	O 	0.52960 0.87490 0.02590 -0.43300
Cd	Cd	0.87754 0.87393 0.89546 1.20500
Cd	Cd	0.58689 0.03199 0.57084 1.20300
Cd	Cd	0.63959 0.69511 0.62080 1.22100
C 	C 	0.55800 0.05330 0.44500 0.05900
H 	H 	0.53490 0.04090 0.43610 -0.01600
C 	C 	0.62530 0.07100 0.70330 0.06900
H 	H 	0.64680 0.08420 0.70780 -0.00300
C 	C 	0.84610 0.84850 0.76990 0.06900
H 	H 	0.82900 0.80360 0.76720 -0.03000
C 	C 	0.66150 0.95050 0.64320 0.46100
C 	C 	0.93820 0.09760 0.97150 0.44800
C 	C 	0.55810 0.07000 0.40020 -0.14200
H 	H 	0.53540 0.06530 0.36270 0.07400
C 	C 	0.62800 0.08740 0.75130 -0.15200
H 	H 	0.65090 0.10660 0.78660 0.09200
C 	C 	0.84040 0.86800 0.72140 -0.15500
H 	H 	0.82050 0.83400 0.68770 0.08100
C 	C 	0.70340 0.92060 0.68680 -0.54800
H 	H 	0.70610 0.86270 0.70990 0.18100
H 	H 	0.71110 0.89260 0.66680 0.18500
C 	C 	0.97400 0.08620 0.03260 -0.49100
H 	H 	0.96690 0.08220 0.05560 0.17300
H 	H 	0.98630 0.01900 0.03720 0.17000
C 	C 	0.59280 0.09280 0.41270 0.08900
C 	C 	0.59540 0.07380 0.74300 0.11700
C 	C 	0.86440 0.93880 0.72250 0.10100
C 	C 	0.73150 0.01040 0.72680 0.32400
H 	H 	0.72320 0.04260 0.74520 -0.05800
H 	H 	0.73100 0.06570 0.70460 -0.05900
C 	C 	0.00410 0.18210 0.05610 0.25200
H 	H 	0.02550 0.17140 0.09620 -0.05100
H 	H 	0.99210 0.24990 0.05160 -0.03900
C 	C 	0.62690 0.09850 0.47050 -0.13700
H 	H 	0.65040 0.11310 0.48110 0.08700
C 	C 	0.56270 0.03930 0.69140 -0.16900
H 	H 	0.54060 0.02880 0.68560 0.08500
C 	C 	0.89560 0.98210 0.77490 -0.15100
H 	H 	0.91330 0.02520 0.77820 0.09100
C 	C 	0.77210 0.97000 0.77180 -0.53700
H 	H 	0.78060 0.94060 0.75310 0.17500
H 	H 	0.77210 0.91190 0.79240 0.17200
C 	C 	0.01870 0.18630 0.02350 -0.52400
H 	H 	0.99690 0.18920 0.98310 0.19000
H 	H 	0.03260 0.12070 0.03100 0.17600
C 	C 	0.62300 0.08050 0.51150 0.06700
H 	H 	0.64490 0.08690 0.54950 -0.00600
C 	C 	0.56280 0.01980 0.64710 0.08800
H 	H 	0.54070 0.99350 0.61280 -0.02100
C 	C 	0.89940 0.95970 0.82070 0.07300
H 	H 	0.91960 0.99210 0.85480 -0.01000
C 	C 	0.80030 0.05350 0.81370 0.42000
C 	C 	0.04370 0.27950 0.03930 0.44300
C 	C 	0.59200 0.11500 0.36650 -0.03100
H 	H 	0.56930 0.10720 0.32920 0.05000
C 	C 	0.59370 0.09420 0.78810 -0.04200
H 	H 	0.57360 0.06940 0.78490 0.05800
C 	C 	0.85790 0.96190 0.67050 -0.03500
H 	H 	0.83710 0.93090 0.63640 0.05400
C 	C 	0.64620 0.19830 0.33510 -0.04400
H 	H 	0.66950 0.20400 0.37200 0.05900
C 	C 	0.64400 0.21700 0.91630 -0.03900
H 	H 	0.66460 0.23990 0.92010 0.05500
C 	C 	0.89460 0.08240 0.62110 -0.04300
H 	H 	0.91650 0.10770 0.65600 0.06100
C 	C 	0.67350 0.28120 0.25080 0.07400
H 	H 	0.69590 0.29980 0.25880 -0.00900
C 	C 	0.61390 0.77150 0.50290 0.08700
H 	H 	0.59410 0.79790 0.50000 -0.01800
C 	C 	0.91680 0.86030 0.02720 0.09100
H 	H 	0.93820 0.84440 0.03170 -0.02200
C 	C 	0.67550 0.25550 0.29750 -0.15900
H 	H 	0.69850 0.25920 0.33470 0.08300
C 	C 	0.61380 0.79280 0.45870 -0.16300
H 	H 	0.59370 0.83080 0.42690 0.09700
C 	C 	0.92100 0.87090 0.07460 -0.17100
H 	H 	0.94480 0.85940 0.11030 0.08700
C 	C 	0.64300 0.22570 0.28600 0.11100
C 	C 	0.64320 0.75810 0.46190 0.11200
C 	C 	0.88980 0.89900 0.06960 0.12000
C 	C 	0.60910 0.22110 0.22870 -0.15200
H 	H 	0.58660 0.19870 0.21960 0.08900
C 	C 	0.67270 0.69900 0.50930 -0.16500
H 	H 	0.69300 0.67300 0.51310 0.08500
C 	C 	0.85540 0.91290 0.01470 -0.18200
H 	H 	0.83380 0.93080 0.00910 0.10000
C 	C 	0.60870 0.24960 0.18540 0.07300
H 	H 	0.58580 0.24800 0.14800 -0.01900
C 	C 	0.67050 0.68120 0.55020 0.07800
H 	H 	0.69040 0.64260 0.58200 -0.00800
C 	C 	0.85270 0.90140 0.97090 0.09900
H 	H 	0.82910 0.91380 0.93520 -0.03000
N 	N 	0.59060 0.05540 0.50040 -0.23500
N 	N 	0.59290 0.03720 0.65190 -0.23400
N 	N 	0.87570 0.89220 0.82170 -0.24500
N 	N 	0.62180 0.14470 0.37590 -0.07300
N 	N 	0.62200 0.14880 0.83240 -0.07300
N 	N 	0.87990 0.02320 0.67140 -0.07400
N 	N 	0.61510 0.16510 0.32550 -0.07300
N 	N 	0.61710 0.16470 0.87230 -0.07300
N 	N 	0.86950 0.03270 0.61850 -0.07300
N 	N 	0.64110 0.27970 0.19660 -0.23300
N 	N 	0.64140 0.71510 0.54860 -0.23300
N 	N 	0.88250 0.87220 0.97380 -0.24900
O 	O 	0.63640 0.87850 0.61590 -0.54700
O 	O 	0.92190 0.01140 0.94340 -0.48600
O 	O 	0.65360 0.05020 0.63610 -0.44400
O 	O 	0.92490 0.19110 0.94960 -0.45200
O 	O 	0.83570 0.01970 0.85660 -0.54900
O 	O 	0.07980 0.26810 0.06750 -0.54000
O 	O 	0.70720 0.65250 0.69190 -0.41400
O 	O 	0.02960 0.37490 0.02590 -0.43300
