data_crystal

_cell_length_a 21.04080
_cell_length_b 21.04080
_cell_length_c 21.04080
_cell_angle_alpha 90.00000
_cell_angle_beta  90.00000
_cell_angle_gamma 90.00000

_symmetry_space_group_name_	'P 1'
_symmetry_space_group_name_H-M	'P 1'

loop_
_symmetry_equiv_pos_as_xyz
  x,y,z

loop_
_atom_site_label
_atom_site_type_symbol
_atom_site_fract_x
_atom_site_fract_y
_atom_site_fract_z
_atom_site_charge
C 	C 	0.35180 0.19810 0.95560 -0.17300
H 	H 	0.32270 0.16650 0.93630 0.06700
H 	H 	0.38840 0.17500 0.97410 0.06500
C 	C 	0.37420 0.24270 0.90670 -0.08300
O 	O 	0.40610 0.21970 0.86460 -0.26700
O 	O 	0.35720 0.30000 0.91230 -0.24800
C 	C 	0.36060 0.21940 0.92760 0.06800
H 	H 	0.37560 0.17510 0.92300 0.04800
H 	H 	0.33150 0.22930 0.89200 0.08400
C 	C 	0.41670 0.26540 0.92820 0.46500
O 	O 	0.46100 0.25430 0.89030 -0.31600
O 	O 	0.41490 0.31240 0.96330 -0.25900
C 	C 	0.25290 0.21460 0.97550 0.01200
C 	C 	0.23710 0.14310 0.97790 0.07900
C 	C 	0.16600 0.13240 0.97010 0.00100
C 	C 	0.64820 0.80190 0.95560 -0.17800
H 	H 	0.67730 0.83350 0.93630 0.06900
H 	H 	0.61160 0.82500 0.97410 0.06900
C 	C 	0.62580 0.75730 0.90670 -0.07800
O 	O 	0.59390 0.78030 0.86460 -0.26900
O 	O 	0.64280 0.70000 0.91230 -0.24900
C 	C 	0.63940 0.78060 0.92760 0.06700
H 	H 	0.62440 0.82490 0.92300 0.05000
H 	H 	0.66850 0.77070 0.89200 0.08100
C 	C 	0.58330 0.73460 0.92820 0.46100
O 	O 	0.53900 0.74570 0.89030 -0.31500
O 	O 	0.58510 0.68760 0.96330 -0.25900
C 	C 	0.74710 0.78540 0.97550 0.01000
C 	C 	0.76290 0.85690 0.97790 0.07800
C 	C 	0.83400 0.86760 0.97010 0.00300
C 	C 	0.64820 0.19810 0.04440 -0.20900
H 	H 	0.67730 0.16650 0.06370 0.07700
H 	H 	0.61160 0.17500 0.02590 0.04000
C 	C 	0.62580 0.24270 0.09330 -0.05100
O 	O 	0.59390 0.21970 0.13540 -0.27800
O 	O 	0.64280 0.30000 0.08770 -0.25600
C 	C 	0.63940 0.21940 0.07240 0.05600
H 	H 	0.62440 0.17510 0.07700 0.05700
H 	H 	0.66850 0.22930 0.10800 0.08000
C 	C 	0.58330 0.26540 0.07180 0.44800
O 	O 	0.53900 0.25430 0.10970 -0.31700
O 	O 	0.58510 0.31240 0.03670 -0.29200
C 	C 	0.74710 0.21460 0.02450 -0.01300
C 	C 	0.76290 0.14310 0.02210 -0.10200
C 	C 	0.83400 0.13240 0.02990 -0.00600
C 	C 	0.35180 0.80190 0.04440 -0.21400
H 	H 	0.32270 0.83350 0.06370 0.07900
H 	H 	0.38840 0.82500 0.02590 0.04300
C 	C 	0.37420 0.75730 0.09330 -0.04700
O 	O 	0.40610 0.78030 0.13540 -0.27900
O 	O 	0.35720 0.70000 0.08770 -0.25700
C 	C 	0.36060 0.78060 0.07240 0.05500
H 	H 	0.37560 0.82490 0.07700 0.05900
H 	H 	0.33150 0.77070 0.10800 0.07900
C 	C 	0.41670 0.73460 0.07180 0.44600
O 	O 	0.46100 0.74570 0.10970 -0.31600
O 	O 	0.41490 0.68760 0.03670 -0.29200
C 	C 	0.25290 0.78540 0.02450 -0.01400
C 	C 	0.23710 0.85690 0.02210 -0.10100
C 	C 	0.16600 0.86760 0.02990 -0.00300
C 	C 	0.95560 0.35180 0.19810 -0.17400
H 	H 	0.93630 0.32270 0.16650 0.06600
H 	H 	0.97410 0.38840 0.17500 0.06400
C 	C 	0.90670 0.37420 0.24270 -0.08400
O 	O 	0.86460 0.40610 0.21970 -0.26800
O 	O 	0.91230 0.35720 0.30000 -0.24900
C 	C 	0.92760 0.36060 0.21940 0.06700
H 	H 	0.92300 0.37560 0.17510 0.04700
H 	H 	0.89200 0.33150 0.22930 0.08300
C 	C 	0.92820 0.41670 0.26540 0.46400
O 	O 	0.89030 0.46100 0.25430 -0.31700
O 	O 	0.96330 0.41490 0.31240 -0.26000
C 	C 	0.97550 0.25290 0.21460 0.01100
C 	C 	0.97790 0.23710 0.14310 0.07800
C 	C 	0.97010 0.16600 0.13240 -0.00000
C 	C 	0.95560 0.64820 0.80190 -0.17900
H 	H 	0.93630 0.67730 0.83350 0.06800
H 	H 	0.97410 0.61160 0.82500 0.06800
C 	C 	0.90670 0.62580 0.75730 -0.07900
O 	O 	0.86460 0.59390 0.78030 -0.27000
O 	O 	0.91230 0.64280 0.70000 -0.25000
C 	C 	0.92760 0.63940 0.78060 0.06700
H 	H 	0.92300 0.62440 0.82490 0.05000
H 	H 	0.89200 0.66850 0.77070 0.08100
C 	C 	0.92820 0.58330 0.73460 0.46100
O 	O 	0.89030 0.53900 0.74570 -0.31500
O 	O 	0.96330 0.58510 0.68760 -0.25900
C 	C 	0.97550 0.74710 0.78540 0.01000
C 	C 	0.97790 0.76290 0.85690 0.07800
C 	C 	0.97010 0.83400 0.86760 0.00300
C 	C 	0.04440 0.64820 0.19810 -0.20900
H 	H 	0.06370 0.67730 0.16650 0.07700
H 	H 	0.02590 0.61160 0.17500 0.04000
C 	C 	0.09330 0.62580 0.24270 -0.05100
O 	O 	0.13540 0.59390 0.21970 -0.27800
O 	O 	0.08770 0.64280 0.30000 -0.25600
C 	C 	0.07240 0.63940 0.21940 0.05600
H 	H 	0.07700 0.62440 0.17510 0.05700
H 	H 	0.10800 0.66850 0.22930 0.08000
C 	C 	0.07180 0.58330 0.26540 0.44800
O 	O 	0.10970 0.53900 0.25430 -0.31700
O 	O 	0.03670 0.58510 0.31240 -0.29200
C 	C 	0.02450 0.74710 0.21460 -0.01300
C 	C 	0.02210 0.76290 0.14310 -0.10200
C 	C 	0.02990 0.83400 0.13240 -0.00600
C 	C 	0.04440 0.35180 0.80190 -0.21400
H 	H 	0.06370 0.32270 0.83350 0.07900
H 	H 	0.02590 0.38840 0.82500 0.04300
C 	C 	0.09330 0.37420 0.75730 -0.04700
O 	O 	0.13540 0.40610 0.78030 -0.27900
O 	O 	0.08770 0.35720 0.70000 -0.25700
C 	C 	0.07240 0.36060 0.78060 0.05500
H 	H 	0.07700 0.37560 0.82490 0.05900
H 	H 	0.10800 0.33150 0.77070 0.07900
C 	C 	0.07180 0.41670 0.73460 0.44600
O 	O 	0.10970 0.46100 0.74570 -0.31600
O 	O 	0.03670 0.41490 0.68760 -0.29200
C 	C 	0.02450 0.25290 0.78540 -0.01400
C 	C 	0.02210 0.23710 0.85690 -0.10100
C 	C 	0.02990 0.16600 0.86760 -0.00300
C 	C 	0.19810 0.95560 0.35180 -0.17400
H 	H 	0.16650 0.93630 0.32270 0.06600
H 	H 	0.17500 0.97410 0.38840 0.06400
C 	C 	0.24270 0.90670 0.37420 -0.08400
O 	O 	0.21970 0.86460 0.40610 -0.26800
O 	O 	0.30000 0.91230 0.35720 -0.24900
C 	C 	0.21940 0.92760 0.36060 0.06700
H 	H 	0.17510 0.92300 0.37560 0.04700
H 	H 	0.22930 0.89200 0.33150 0.08300
C 	C 	0.26540 0.92820 0.41670 0.46400
O 	O 	0.25430 0.89030 0.46100 -0.31700
O 	O 	0.31240 0.96330 0.41490 -0.26000
C 	C 	0.21460 0.97550 0.25290 0.01100
C 	C 	0.14310 0.97790 0.23710 0.07800
C 	C 	0.13240 0.97010 0.16600 -0.00000
C 	C 	0.80190 0.95560 0.64820 -0.17900
H 	H 	0.83350 0.93630 0.67730 0.06800
H 	H 	0.82500 0.97410 0.61160 0.06800
C 	C 	0.75730 0.90670 0.62580 -0.07900
O 	O 	0.78030 0.86460 0.59390 -0.27000
O 	O 	0.70000 0.91230 0.64280 -0.25000
C 	C 	0.78060 0.92760 0.63940 0.06700
H 	H 	0.82490 0.92300 0.62440 0.05000
H 	H 	0.77070 0.89200 0.66850 0.08100
C 	C 	0.73460 0.92820 0.58330 0.46100
O 	O 	0.74570 0.89030 0.53900 -0.31500
O 	O 	0.68760 0.96330 0.58510 -0.25900
C 	C 	0.78540 0.97550 0.74710 0.01000
C 	C 	0.85690 0.97790 0.76290 0.07800
C 	C 	0.86760 0.97010 0.83400 0.00300
C 	C 	0.19810 0.04440 0.64820 -0.20900
H 	H 	0.16650 0.06370 0.67730 0.07700
H 	H 	0.17500 0.02590 0.61160 0.04000
C 	C 	0.24270 0.09330 0.62580 -0.05100
O 	O 	0.21970 0.13540 0.59390 -0.27800
O 	O 	0.30000 0.08770 0.64280 -0.25600
C 	C 	0.21940 0.07240 0.63940 0.05600
H 	H 	0.17510 0.07700 0.62440 0.05700
H 	H 	0.22930 0.10800 0.66850 0.08000
C 	C 	0.26540 0.07180 0.58330 0.44800
O 	O 	0.25430 0.10970 0.53900 -0.31700
O 	O 	0.31240 0.03670 0.58510 -0.29200
C 	C 	0.21460 0.02450 0.74710 -0.01300
C 	C 	0.14310 0.02210 0.76290 -0.10200
C 	C 	0.13240 0.02990 0.83400 -0.00600
C 	C 	0.80190 0.04440 0.35180 -0.21400
H 	H 	0.83350 0.06370 0.32270 0.07900
H 	H 	0.82500 0.02590 0.38840 0.04300
C 	C 	0.75730 0.09330 0.37420 -0.04700
O 	O 	0.78030 0.13540 0.40610 -0.27900
O 	O 	0.70000 0.08770 0.35720 -0.25700
C 	C 	0.78060 0.07240 0.36060 0.05500
H 	H 	0.82490 0.07700 0.37560 0.05900
H 	H 	0.77070 0.10800 0.33150 0.07900
C 	C 	0.73460 0.07180 0.41670 0.44600
O 	O 	0.74570 0.10970 0.46100 -0.31600
O 	O 	0.68760 0.03670 0.41490 -0.29200
C 	C 	0.78540 0.02450 0.25290 -0.01400
C 	C 	0.85690 0.02210 0.23710 -0.10100
C 	C 	0.86760 0.02990 0.16600 -0.00300
C 	C 	0.19810 0.35180 0.04440 -0.20900
H 	H 	0.16650 0.32270 0.06370 0.07700
H 	H 	0.17500 0.38840 0.02590 0.03900
C 	C 	0.24270 0.37420 0.09330 -0.05200
O 	O 	0.21970 0.40610 0.13540 -0.27800
O 	O 	0.30000 0.35720 0.08770 -0.25600
C 	C 	0.21940 0.36060 0.07240 0.05600
H 	H 	0.17510 0.37560 0.07700 0.05700
H 	H 	0.22930 0.33150 0.10800 0.08100
C 	C 	0.26540 0.41670 0.07180 0.44800
O 	O 	0.25430 0.46100 0.10970 -0.31700
O 	O 	0.31240 0.41490 0.03670 -0.29200
C 	C 	0.21460 0.25290 0.02450 -0.01300
C 	C 	0.14310 0.23710 0.02210 -0.10200
C 	C 	0.13240 0.16600 0.02990 -0.00700
C 	C 	0.80190 0.64820 0.04440 -0.21400
H 	H 	0.83350 0.67730 0.06370 0.07900
H 	H 	0.82500 0.61160 0.02590 0.04300
C 	C 	0.75730 0.62580 0.09330 -0.04700
O 	O 	0.78030 0.59390 0.13540 -0.27900
O 	O 	0.70000 0.64280 0.08770 -0.25800
C 	C 	0.78060 0.63940 0.07240 0.05600
H 	H 	0.82490 0.62440 0.07700 0.05900
H 	H 	0.77070 0.66850 0.10800 0.07800
C 	C 	0.73460 0.58330 0.07180 0.44600
O 	O 	0.74570 0.53900 0.10970 -0.31600
O 	O 	0.68760 0.58510 0.03670 -0.29200
C 	C 	0.78540 0.74710 0.02450 -0.01400
C 	C 	0.85690 0.76290 0.02210 -0.10100
C 	C 	0.86760 0.83400 0.02990 -0.00300
C 	C 	0.19810 0.64820 0.95560 -0.17400
H 	H 	0.16650 0.67730 0.93630 0.06600
H 	H 	0.17500 0.61160 0.97410 0.06400
C 	C 	0.24270 0.62580 0.90670 -0.08400
O 	O 	0.21970 0.59390 0.86460 -0.26900
O 	O 	0.30000 0.64280 0.91230 -0.24900
C 	C 	0.21940 0.63940 0.92760 0.06700
H 	H 	0.17510 0.62440 0.92300 0.04700
H 	H 	0.22930 0.66850 0.89200 0.08200
C 	C 	0.26540 0.58330 0.92820 0.46300
O 	O 	0.25430 0.53900 0.89030 -0.31700
O 	O 	0.31240 0.58510 0.96330 -0.26000
C 	C 	0.21460 0.74710 0.97550 0.01100
C 	C 	0.14310 0.76290 0.97790 0.07700
C 	C 	0.13240 0.83400 0.97010 -0.00000
C 	C 	0.80190 0.35180 0.95560 -0.17900
H 	H 	0.83350 0.32270 0.93630 0.06800
H 	H 	0.82500 0.38840 0.97410 0.06800
C 	C 	0.75730 0.37420 0.90670 -0.08000
O 	O 	0.78030 0.40610 0.86460 -0.26900
O 	O 	0.70000 0.35720 0.91230 -0.25000
C 	C 	0.78060 0.36060 0.92760 0.06700
H 	H 	0.82490 0.37560 0.92300 0.05000
H 	H 	0.77070 0.33150 0.89200 0.08100
C 	C 	0.73460 0.41670 0.92820 0.46200
O 	O 	0.74570 0.46100 0.89030 -0.31600
O 	O 	0.68760 0.41490 0.96330 -0.25900
C 	C 	0.78540 0.25290 0.97550 0.01100
C 	C 	0.85690 0.23710 0.97790 0.07800
C 	C 	0.86760 0.16600 0.97010 0.00300
C 	C 	0.35180 0.95560 0.80190 -0.17900
H 	H 	0.32270 0.93630 0.83350 0.06800
H 	H 	0.38840 0.97410 0.82500 0.06800
C 	C 	0.37420 0.90670 0.75730 -0.08000
O 	O 	0.40610 0.86460 0.78030 -0.26900
O 	O 	0.35720 0.91230 0.70000 -0.25000
C 	C 	0.36060 0.92760 0.78060 0.06700
H 	H 	0.37560 0.92300 0.82490 0.05000
H 	H 	0.33150 0.89200 0.77070 0.08100
C 	C 	0.41670 0.92820 0.73460 0.46200
O 	O 	0.46100 0.89030 0.74570 -0.31600
O 	O 	0.41490 0.96330 0.68760 -0.25900
C 	C 	0.25290 0.97550 0.78540 0.01100
C 	C 	0.23710 0.97790 0.85690 0.07800
C 	C 	0.16600 0.97010 0.86760 0.00300
C 	C 	0.64820 0.95560 0.19810 -0.17400
H 	H 	0.67730 0.93630 0.16650 0.06600
H 	H 	0.61160 0.97410 0.17500 0.06400
C 	C 	0.62580 0.90670 0.24270 -0.08400
O 	O 	0.59390 0.86460 0.21970 -0.26900
O 	O 	0.64280 0.91230 0.30000 -0.24900
C 	C 	0.63940 0.92760 0.21940 0.06700
H 	H 	0.62440 0.92300 0.17510 0.04700
H 	H 	0.66850 0.89200 0.22930 0.08200
C 	C 	0.58330 0.92820 0.26540 0.46300
O 	O 	0.53900 0.89030 0.25430 -0.31700
O 	O 	0.58510 0.96330 0.31240 -0.26000
C 	C 	0.74710 0.97550 0.21460 0.01100
C 	C 	0.76290 0.97790 0.14310 0.07700
C 	C 	0.83400 0.97010 0.13240 -0.00000
C 	C 	0.64820 0.04440 0.80190 -0.21400
H 	H 	0.67730 0.06370 0.83350 0.07900
H 	H 	0.61160 0.02590 0.82500 0.04300
C 	C 	0.62580 0.09330 0.75730 -0.04700
O 	O 	0.59390 0.13540 0.78030 -0.27900
O 	O 	0.64280 0.08770 0.70000 -0.25800
C 	C 	0.63940 0.07240 0.78060 0.05600
H 	H 	0.62440 0.07700 0.82490 0.05900
H 	H 	0.66850 0.10800 0.77070 0.07800
C 	C 	0.58330 0.07180 0.73460 0.44600
O 	O 	0.53900 0.10970 0.74570 -0.31600
O 	O 	0.58510 0.03670 0.68760 -0.29200
C 	C 	0.74710 0.02450 0.78540 -0.01400
C 	C 	0.76290 0.02210 0.85690 -0.10100
C 	C 	0.83400 0.02990 0.86760 -0.00300
C 	C 	0.35180 0.04440 0.19810 -0.20900
H 	H 	0.32270 0.06370 0.16650 0.07700
H 	H 	0.38840 0.02590 0.17500 0.03900
C 	C 	0.37420 0.09330 0.24270 -0.05200
O 	O 	0.40610 0.13540 0.21970 -0.27800
O 	O 	0.35720 0.08770 0.30000 -0.25600
C 	C 	0.36060 0.07240 0.21940 0.05600
H 	H 	0.37560 0.07700 0.17510 0.05700
H 	H 	0.33150 0.10800 0.22930 0.08100
C 	C 	0.41670 0.07180 0.26540 0.44800
O 	O 	0.46100 0.10970 0.25430 -0.31700
O 	O 	0.41490 0.03670 0.31240 -0.29200
C 	C 	0.25290 0.02450 0.21460 -0.01300
C 	C 	0.23710 0.02210 0.14310 -0.10200
C 	C 	0.16600 0.02990 0.13240 -0.00700
C 	C 	0.95560 0.19810 0.64820 -0.17400
H 	H 	0.93630 0.16650 0.67730 0.06600
H 	H 	0.97410 0.17500 0.61160 0.06400
C 	C 	0.90670 0.24270 0.62580 -0.08400
O 	O 	0.86460 0.21970 0.59390 -0.26900
O 	O 	0.91230 0.30000 0.64280 -0.24900
C 	C 	0.92760 0.21940 0.63940 0.06700
H 	H 	0.92300 0.17510 0.62440 0.04700
H 	H 	0.89200 0.22930 0.66850 0.08200
C 	C 	0.92820 0.26540 0.58330 0.46300
O 	O 	0.89030 0.25430 0.53900 -0.31700
O 	O 	0.96330 0.31240 0.58510 -0.26000
C 	C 	0.97550 0.21460 0.74710 0.01100
C 	C 	0.97790 0.14310 0.76290 0.07700
C 	C 	0.97010 0.13240 0.83400 -0.00000
C 	C 	0.95560 0.80190 0.35180 -0.17900
H 	H 	0.93630 0.83350 0.32270 0.06800
H 	H 	0.97410 0.82500 0.38840 0.06800
C 	C 	0.90670 0.75730 0.37420 -0.08000
O 	O 	0.86460 0.78030 0.40610 -0.26900
O 	O 	0.91230 0.70000 0.35720 -0.25000
C 	C 	0.92760 0.78060 0.36060 0.06700
H 	H 	0.92300 0.82490 0.37560 0.05000
H 	H 	0.89200 0.77070 0.33150 0.08100
C 	C 	0.92820 0.73460 0.41670 0.46200
O 	O 	0.89030 0.74570 0.46100 -0.31600
O 	O 	0.96330 0.68760 0.41490 -0.25900
C 	C 	0.97550 0.78540 0.25290 0.01100
C 	C 	0.97790 0.85690 0.23710 0.07800
C 	C 	0.97010 0.86760 0.16600 0.00300
C 	C 	0.04440 0.19810 0.35180 -0.20900
H 	H 	0.06370 0.16650 0.32270 0.07700
H 	H 	0.02590 0.17500 0.38840 0.03900
C 	C 	0.09330 0.24270 0.37420 -0.05200
O 	O 	0.13540 0.21970 0.40610 -0.27800
O 	O 	0.08770 0.30000 0.35720 -0.25600
C 	C 	0.07240 0.21940 0.36060 0.05600
H 	H 	0.07700 0.17510 0.37560 0.05700
H 	H 	0.10800 0.22930 0.33150 0.08100
C 	C 	0.07180 0.26540 0.41670 0.44800
O 	O 	0.10970 0.25430 0.46100 -0.31700
O 	O 	0.03670 0.31240 0.41490 -0.29200
C 	C 	0.02450 0.21460 0.25290 -0.01300
C 	C 	0.02210 0.14310 0.23710 -0.10200
C 	C 	0.02990 0.13240 0.16600 -0.00700
C 	C 	0.04440 0.80190 0.64820 -0.21400
H 	H 	0.06370 0.83350 0.67730 0.07900
H 	H 	0.02590 0.82500 0.61160 0.04300
C 	C 	0.09330 0.75730 0.62580 -0.04700
O 	O 	0.13540 0.78030 0.59390 -0.27900
O 	O 	0.08770 0.70000 0.64280 -0.25800
C 	C 	0.07240 0.78060 0.63940 0.05600
H 	H 	0.07700 0.82490 0.62440 0.05900
H 	H 	0.10800 0.77070 0.66850 0.07800
C 	C 	0.07180 0.73460 0.58330 0.44600
O 	O 	0.10970 0.74570 0.53900 -0.31600
O 	O 	0.03670 0.68760 0.58510 -0.29200
C 	C 	0.02450 0.78540 0.74710 -0.01400
C 	C 	0.02210 0.85690 0.76290 -0.10100
C 	C 	0.02990 0.86760 0.83400 -0.00300
C 	C 	0.64820 0.80190 0.04440 -0.21400
H 	H 	0.67730 0.83350 0.06370 0.07900
H 	H 	0.61160 0.82500 0.02590 0.04300
C 	C 	0.62580 0.75730 0.09330 -0.04700
O 	O 	0.59390 0.78030 0.13540 -0.27900
O 	O 	0.64280 0.70000 0.08770 -0.25800
C 	C 	0.63940 0.78060 0.07240 0.05600
H 	H 	0.62440 0.82490 0.07700 0.05900
H 	H 	0.66850 0.77070 0.10800 0.07800
C 	C 	0.58330 0.73460 0.07180 0.44600
O 	O 	0.53900 0.74570 0.10970 -0.31600
O 	O 	0.58510 0.68760 0.03670 -0.29200
C 	C 	0.74710 0.78540 0.02450 -0.01400
C 	C 	0.76290 0.85690 0.02210 -0.10100
C 	C 	0.83400 0.86760 0.02990 -0.00300
C 	C 	0.35180 0.19810 0.04440 -0.20900
H 	H 	0.32270 0.16650 0.06370 0.07700
H 	H 	0.38840 0.17500 0.02590 0.03900
C 	C 	0.37420 0.24270 0.09330 -0.05200
O 	O 	0.40610 0.21970 0.13540 -0.27800
O 	O 	0.35720 0.30000 0.08770 -0.25600
C 	C 	0.36060 0.21940 0.07240 0.05600
H 	H 	0.37560 0.17510 0.07700 0.05700
H 	H 	0.33150 0.22930 0.10800 0.08100
C 	C 	0.41670 0.26540 0.07180 0.44800
O 	O 	0.46100 0.25430 0.10970 -0.31700
O 	O 	0.41490 0.31240 0.03670 -0.29200
C 	C 	0.25290 0.21460 0.02450 -0.01300
C 	C 	0.23710 0.14310 0.02210 -0.10200
C 	C 	0.16600 0.13240 0.02990 -0.00700
C 	C 	0.35180 0.80190 0.95560 -0.17900
H 	H 	0.32270 0.83350 0.93630 0.06800
H 	H 	0.38840 0.82500 0.97410 0.06800
C 	C 	0.37420 0.75730 0.90670 -0.08000
O 	O 	0.40610 0.78030 0.86460 -0.26900
O 	O 	0.35720 0.70000 0.91230 -0.25000
C 	C 	0.36060 0.78060 0.92760 0.06700
H 	H 	0.37560 0.82490 0.92300 0.05000
H 	H 	0.33150 0.77070 0.89200 0.08100
C 	C 	0.41670 0.73460 0.92820 0.46200
O 	O 	0.46100 0.74570 0.89030 -0.31600
O 	O 	0.41490 0.68760 0.96330 -0.25900
C 	C 	0.25290 0.78540 0.97550 0.01100
C 	C 	0.23710 0.85690 0.97790 0.07800
C 	C 	0.16600 0.86760 0.97010 0.00300
C 	C 	0.64820 0.19810 0.95560 -0.17400
H 	H 	0.67730 0.16650 0.93630 0.06600
H 	H 	0.61160 0.17500 0.97410 0.06400
C 	C 	0.62580 0.24270 0.90670 -0.08400
O 	O 	0.59390 0.21970 0.86460 -0.26900
O 	O 	0.64280 0.30000 0.91230 -0.24900
C 	C 	0.63940 0.21940 0.92760 0.06700
H 	H 	0.62440 0.17510 0.92300 0.04700
H 	H 	0.66850 0.22930 0.89200 0.08200
C 	C 	0.58330 0.26540 0.92820 0.46300
O 	O 	0.53900 0.25430 0.89030 -0.31700
O 	O 	0.58510 0.31240 0.96330 -0.26000
C 	C 	0.74710 0.21460 0.97550 0.01100
C 	C 	0.76290 0.14310 0.97790 0.07700
C 	C 	0.83400 0.13240 0.97010 -0.00000
C 	C 	0.04440 0.64820 0.80190 -0.21400
H 	H 	0.06370 0.67730 0.83350 0.07900
H 	H 	0.02590 0.61160 0.82500 0.04300
C 	C 	0.09330 0.62580 0.75730 -0.04700
O 	O 	0.13540 0.59390 0.78030 -0.27900
O 	O 	0.08770 0.64280 0.70000 -0.25800
C 	C 	0.07240 0.63940 0.78060 0.05600
H 	H 	0.07700 0.62440 0.82490 0.05900
H 	H 	0.10800 0.66850 0.77070 0.07800
C 	C 	0.07180 0.58330 0.73460 0.44600
O 	O 	0.10970 0.53900 0.74570 -0.31600
O 	O 	0.03670 0.58510 0.68760 -0.29200
C 	C 	0.02450 0.74710 0.78540 -0.01400
C 	C 	0.02210 0.76290 0.85690 -0.10100
C 	C 	0.02990 0.83400 0.86760 -0.00300
C 	C 	0.04440 0.35180 0.19810 -0.20900
H 	H 	0.06370 0.32270 0.16650 0.07700
H 	H 	0.02590 0.38840 0.17500 0.03900
C 	C 	0.09330 0.37420 0.24270 -0.05200
O 	O 	0.13540 0.40610 0.21970 -0.27800
O 	O 	0.08770 0.35720 0.30000 -0.25600
C 	C 	0.07240 0.36060 0.21940 0.05600
H 	H 	0.07700 0.37560 0.17510 0.05700
H 	H 	0.10800 0.33150 0.22930 0.08100
C 	C 	0.07180 0.41670 0.26540 0.44800
O 	O 	0.10970 0.46100 0.25430 -0.31700
O 	O 	0.03670 0.41490 0.31240 -0.29200
C 	C 	0.02450 0.25290 0.21460 -0.01300
C 	C 	0.02210 0.23710 0.14310 -0.10200
C 	C 	0.02990 0.16600 0.13240 -0.00700
C 	C 	0.95560 0.35180 0.80190 -0.17900
H 	H 	0.93630 0.32270 0.83350 0.06800
H 	H 	0.97410 0.38840 0.82500 0.06800
C 	C 	0.90670 0.37420 0.75730 -0.08000
O 	O 	0.86460 0.40610 0.78030 -0.26900
O 	O 	0.91230 0.35720 0.70000 -0.25000
C 	C 	0.92760 0.36060 0.78060 0.06700
H 	H 	0.92300 0.37560 0.82490 0.05000
H 	H 	0.89200 0.33150 0.77070 0.08100
C 	C 	0.92820 0.41670 0.73460 0.46200
O 	O 	0.89030 0.46100 0.74570 -0.31600
O 	O 	0.96330 0.41490 0.68760 -0.25900
C 	C 	0.97550 0.25290 0.78540 0.01100
C 	C 	0.97790 0.23710 0.85690 0.07800
C 	C 	0.97010 0.16600 0.86760 0.00300
C 	C 	0.95560 0.64820 0.19810 -0.17400
H 	H 	0.93630 0.67730 0.16650 0.06600
H 	H 	0.97410 0.61160 0.17500 0.06400
C 	C 	0.90670 0.62580 0.24270 -0.08400
O 	O 	0.86460 0.59390 0.21970 -0.26900
O 	O 	0.91230 0.64280 0.30000 -0.24900
C 	C 	0.92760 0.63940 0.21940 0.06700
H 	H 	0.92300 0.62440 0.17510 0.04700
H 	H 	0.89200 0.66850 0.22930 0.08200
C 	C 	0.92820 0.58330 0.26540 0.46300
O 	O 	0.89030 0.53900 0.25430 -0.31700
O 	O 	0.96330 0.58510 0.31240 -0.26000
C 	C 	0.97550 0.74710 0.21460 0.01100
C 	C 	0.97790 0.76290 0.14310 0.07700
C 	C 	0.97010 0.83400 0.13240 -0.00000
C 	C 	0.80190 0.04440 0.64820 -0.21400
H 	H 	0.83350 0.06370 0.67730 0.07900
H 	H 	0.82500 0.02590 0.61160 0.04300
C 	C 	0.75730 0.09330 0.62580 -0.04700
O 	O 	0.78030 0.13540 0.59390 -0.27900
O 	O 	0.70000 0.08770 0.64280 -0.25800
C 	C 	0.78060 0.07240 0.63940 0.05600
H 	H 	0.82490 0.07700 0.62440 0.05900
H 	H 	0.77070 0.10800 0.66850 0.07800
C 	C 	0.73460 0.07180 0.58330 0.44600
O 	O 	0.74570 0.10970 0.53900 -0.31600
O 	O 	0.68760 0.03670 0.58510 -0.29200
C 	C 	0.78540 0.02450 0.74710 -0.01400
C 	C 	0.85690 0.02210 0.76290 -0.10100
C 	C 	0.86760 0.02990 0.83400 -0.00300
C 	C 	0.19810 0.04440 0.35180 -0.20900
H 	H 	0.16650 0.06370 0.32270 0.07700
H 	H 	0.17500 0.02590 0.38840 0.03900
C 	C 	0.24270 0.09330 0.37420 -0.05200
O 	O 	0.21970 0.13540 0.40610 -0.27800
O 	O 	0.30000 0.08770 0.35720 -0.25600
C 	C 	0.21940 0.07240 0.36060 0.05600
H 	H 	0.17510 0.07700 0.37560 0.05700
H 	H 	0.22930 0.10800 0.33150 0.08100
C 	C 	0.26540 0.07180 0.41670 0.44800
O 	O 	0.25430 0.10970 0.46100 -0.31700
O 	O 	0.31240 0.03670 0.41490 -0.29200
C 	C 	0.21460 0.02450 0.25290 -0.01300
C 	C 	0.14310 0.02210 0.23710 -0.10200
C 	C 	0.13240 0.02990 0.16600 -0.00700
C 	C 	0.80190 0.95560 0.35180 -0.17900
H 	H 	0.83350 0.93630 0.32270 0.06800
H 	H 	0.82500 0.97410 0.38840 0.06800
C 	C 	0.75730 0.90670 0.37420 -0.08000
O 	O 	0.78030 0.86460 0.40610 -0.26900
O 	O 	0.70000 0.91230 0.35720 -0.25000
C 	C 	0.78060 0.92760 0.36060 0.06700
H 	H 	0.82490 0.92300 0.37560 0.05000
H 	H 	0.77070 0.89200 0.33150 0.08100
C 	C 	0.73460 0.92820 0.41670 0.46200
O 	O 	0.74570 0.89030 0.46100 -0.31600
O 	O 	0.68760 0.96330 0.41490 -0.25900
C 	C 	0.78540 0.97550 0.25290 0.01100
C 	C 	0.85690 0.97790 0.23710 0.07800
C 	C 	0.86760 0.97010 0.16600 0.00300
C 	C 	0.19810 0.95560 0.64820 -0.17400
H 	H 	0.16650 0.93630 0.67730 0.06600
H 	H 	0.17500 0.97410 0.61160 0.06400
C 	C 	0.24270 0.90670 0.62580 -0.08400
O 	O 	0.21970 0.86460 0.59390 -0.26900
O 	O 	0.30000 0.91230 0.64280 -0.24900
C 	C 	0.21940 0.92760 0.63940 0.06700
H 	H 	0.17510 0.92300 0.62440 0.04700
H 	H 	0.22930 0.89200 0.66850 0.08200
C 	C 	0.26540 0.92820 0.58330 0.46300
O 	O 	0.25430 0.89030 0.53900 -0.31700
O 	O 	0.31240 0.96330 0.58510 -0.26000
C 	C 	0.21460 0.97550 0.74710 0.01100
C 	C 	0.14310 0.97790 0.76290 0.07700
C 	C 	0.13240 0.97010 0.83400 -0.00000
C 	C 	0.80190 0.64820 0.95560 -0.17900
H 	H 	0.83350 0.67730 0.93630 0.06800
H 	H 	0.82500 0.61160 0.97410 0.06800
C 	C 	0.75730 0.62580 0.90670 -0.07900
O 	O 	0.78030 0.59390 0.86460 -0.27000
O 	O 	0.70000 0.64280 0.91230 -0.25000
C 	C 	0.78060 0.63940 0.92760 0.06700
H 	H 	0.82490 0.62440 0.92300 0.05000
H 	H 	0.77070 0.66850 0.89200 0.08100
C 	C 	0.73460 0.58330 0.92820 0.46100
O 	O 	0.74570 0.53900 0.89030 -0.31500
O 	O 	0.68760 0.58510 0.96330 -0.25900
C 	C 	0.78540 0.74710 0.97550 0.01000
C 	C 	0.85690 0.76290 0.97790 0.07800
C 	C 	0.86760 0.83400 0.97010 0.00300
C 	C 	0.19810 0.35180 0.95560 -0.17400
H 	H 	0.16650 0.32270 0.93630 0.06600
H 	H 	0.17500 0.38840 0.97410 0.06400
C 	C 	0.24270 0.37420 0.90670 -0.08400
O 	O 	0.21970 0.40610 0.86460 -0.26800
O 	O 	0.30000 0.35720 0.91230 -0.24900
C 	C 	0.21940 0.36060 0.92760 0.06700
H 	H 	0.17510 0.37560 0.92300 0.04700
H 	H 	0.22930 0.33150 0.89200 0.08300
C 	C 	0.26540 0.41670 0.92820 0.46400
O 	O 	0.25430 0.46100 0.89030 -0.31700
O 	O 	0.31240 0.41490 0.96330 -0.26000
C 	C 	0.21460 0.25290 0.97550 0.01100
C 	C 	0.14310 0.23710 0.97790 0.07800
C 	C 	0.13240 0.16600 0.97010 -0.00000
C 	C 	0.80190 0.35180 0.04440 -0.21400
H 	H 	0.83350 0.32270 0.06370 0.07900
H 	H 	0.82500 0.38840 0.02590 0.04300
C 	C 	0.75730 0.37420 0.09330 -0.04700
O 	O 	0.78030 0.40610 0.13540 -0.27900
O 	O 	0.70000 0.35720 0.08770 -0.25700
C 	C 	0.78060 0.36060 0.07240 0.05500
H 	H 	0.82490 0.37560 0.07700 0.05900
H 	H 	0.77070 0.33150 0.10800 0.07900
C 	C 	0.73460 0.41670 0.07180 0.44600
O 	O 	0.74570 0.46100 0.10970 -0.31600
O 	O 	0.68760 0.41490 0.03670 -0.29200
C 	C 	0.78540 0.25290 0.02450 -0.01400
C 	C 	0.85690 0.23710 0.02210 -0.10100
C 	C 	0.86760 0.16600 0.02990 -0.00300
C 	C 	0.19810 0.64820 0.04440 -0.20900
H 	H 	0.16650 0.67730 0.06370 0.07700
H 	H 	0.17500 0.61160 0.02590 0.04000
C 	C 	0.24270 0.62580 0.09330 -0.05100
O 	O 	0.21970 0.59390 0.13540 -0.27800
O 	O 	0.30000 0.64280 0.08770 -0.25600
C 	C 	0.21940 0.63940 0.07240 0.05600
H 	H 	0.17510 0.62440 0.07700 0.05700
H 	H 	0.22930 0.66850 0.10800 0.08000
C 	C 	0.26540 0.58330 0.07180 0.44800
O 	O 	0.25430 0.53900 0.10970 -0.31700
O 	O 	0.31240 0.58510 0.03670 -0.29200
C 	C 	0.21460 0.74710 0.02450 -0.01300
C 	C 	0.14310 0.76290 0.02210 -0.10200
C 	C 	0.13240 0.83400 0.02990 -0.00600
C 	C 	0.64820 0.04440 0.19810 -0.20900
H 	H 	0.67730 0.06370 0.16650 0.07700
H 	H 	0.61160 0.02590 0.17500 0.04000
C 	C 	0.62580 0.09330 0.24270 -0.05100
O 	O 	0.59390 0.13540 0.21970 -0.27800
O 	O 	0.64280 0.08770 0.30000 -0.25600
C 	C 	0.63940 0.07240 0.21940 0.05600
H 	H 	0.62440 0.07700 0.17510 0.05700
H 	H 	0.66850 0.10800 0.22930 0.08000
C 	C 	0.58330 0.07180 0.26540 0.44800
O 	O 	0.53900 0.10970 0.25430 -0.31700
O 	O 	0.58510 0.03670 0.31240 -0.29200
C 	C 	0.74710 0.02450 0.21460 -0.01300
C 	C 	0.76290 0.02210 0.14310 -0.10200
C 	C 	0.83400 0.02990 0.13240 -0.00600
C 	C 	0.35180 0.04440 0.80190 -0.21400
H 	H 	0.32270 0.06370 0.83350 0.07900
H 	H 	0.38840 0.02590 0.82500 0.04300
C 	C 	0.37420 0.09330 0.75730 -0.04700
O 	O 	0.40610 0.13540 0.78030 -0.27900
O 	O 	0.35720 0.08770 0.70000 -0.25700
C 	C 	0.36060 0.07240 0.78060 0.05500
H 	H 	0.37560 0.07700 0.82490 0.05900
H 	H 	0.33150 0.10800 0.77070 0.07900
C 	C 	0.41670 0.07180 0.73460 0.44600
O 	O 	0.46100 0.10970 0.74570 -0.31600
O 	O 	0.41490 0.03670 0.68760 -0.29200
C 	C 	0.25290 0.02450 0.78540 -0.01400
C 	C 	0.23710 0.02210 0.85690 -0.10100
C 	C 	0.16600 0.02990 0.86760 -0.00300
C 	C 	0.35180 0.95560 0.19810 -0.17400
H 	H 	0.32270 0.93630 0.16650 0.06600
H 	H 	0.38840 0.97410 0.17500 0.06400
C 	C 	0.37420 0.90670 0.24270 -0.08400
O 	O 	0.40610 0.86460 0.21970 -0.26800
O 	O 	0.35720 0.91230 0.30000 -0.24900
C 	C 	0.36060 0.92760 0.21940 0.06700
H 	H 	0.37560 0.92300 0.17510 0.04700
H 	H 	0.33150 0.89200 0.22930 0.08300
C 	C 	0.41670 0.92820 0.26540 0.46400
O 	O 	0.46100 0.89030 0.25430 -0.31700
O 	O 	0.41490 0.96330 0.31240 -0.26000
C 	C 	0.25290 0.97550 0.21460 0.01100
C 	C 	0.23710 0.97790 0.14310 0.07800
C 	C 	0.16600 0.97010 0.13240 -0.00000
C 	C 	0.64820 0.95560 0.80190 -0.17900
H 	H 	0.67730 0.93630 0.83350 0.06800
H 	H 	0.61160 0.97410 0.82500 0.06800
C 	C 	0.62580 0.90670 0.75730 -0.07900
O 	O 	0.59390 0.86460 0.78030 -0.27000
O 	O 	0.64280 0.91230 0.70000 -0.25000
C 	C 	0.63940 0.92760 0.78060 0.06700
H 	H 	0.62440 0.92300 0.82490 0.05000
H 	H 	0.66850 0.89200 0.77070 0.08100
C 	C 	0.58330 0.92820 0.73460 0.46100
O 	O 	0.53900 0.89030 0.74570 -0.31500
O 	O 	0.58510 0.96330 0.68760 -0.25900
C 	C 	0.74710 0.97550 0.78540 0.01000
C 	C 	0.76290 0.97790 0.85690 0.07800
C 	C 	0.83400 0.97010 0.86760 0.00300
C 	C 	0.04440 0.80190 0.35180 -0.21400
H 	H 	0.06370 0.83350 0.32270 0.07900
H 	H 	0.02590 0.82500 0.38840 0.04300
C 	C 	0.09330 0.75730 0.37420 -0.04700
O 	O 	0.13540 0.78030 0.40610 -0.27900
O 	O 	0.08770 0.70000 0.35720 -0.25700
C 	C 	0.07240 0.78060 0.36060 0.05500
H 	H 	0.07700 0.82490 0.37560 0.05900
H 	H 	0.10800 0.77070 0.33150 0.07900
C 	C 	0.07180 0.73460 0.41670 0.44600
O 	O 	0.10970 0.74570 0.46100 -0.31600
O 	O 	0.03670 0.68760 0.41490 -0.29200
C 	C 	0.02450 0.78540 0.25290 -0.01400
C 	C 	0.02210 0.85690 0.23710 -0.10100
C 	C 	0.02990 0.86760 0.16600 -0.00300
C 	C 	0.04440 0.19810 0.64820 -0.20900
H 	H 	0.06370 0.16650 0.67730 0.07700
H 	H 	0.02590 0.17500 0.61160 0.04000
C 	C 	0.09330 0.24270 0.62580 -0.05100
O 	O 	0.13540 0.21970 0.59390 -0.27800
O 	O 	0.08770 0.30000 0.64280 -0.25600
C 	C 	0.07240 0.21940 0.63940 0.05600
H 	H 	0.07700 0.17510 0.62440 0.05700
H 	H 	0.10800 0.22930 0.66850 0.08000
C 	C 	0.07180 0.26540 0.58330 0.44800
O 	O 	0.10970 0.25430 0.53900 -0.31700
O 	O 	0.03670 0.31240 0.58510 -0.29200
C 	C 	0.02450 0.21460 0.74710 -0.01300
C 	C 	0.02210 0.14310 0.76290 -0.10200
C 	C 	0.02990 0.13240 0.83400 -0.00600
C 	C 	0.95560 0.80190 0.64820 -0.17900
H 	H 	0.93630 0.83350 0.67730 0.06800
H 	H 	0.97410 0.82500 0.61160 0.06800
C 	C 	0.90670 0.75730 0.62580 -0.07900
O 	O 	0.86460 0.78030 0.59390 -0.27000
O 	O 	0.91230 0.70000 0.64280 -0.25000
C 	C 	0.92760 0.78060 0.63940 0.06700
H 	H 	0.92300 0.82490 0.62440 0.05000
H 	H 	0.89200 0.77070 0.66850 0.08100
C 	C 	0.92820 0.73460 0.58330 0.46100
O 	O 	0.89030 0.74570 0.53900 -0.31500
O 	O 	0.96330 0.68760 0.58510 -0.25900
C 	C 	0.97550 0.78540 0.74710 0.01000
C 	C 	0.97790 0.85690 0.76290 0.07800
C 	C 	0.97010 0.86760 0.83400 0.00300
C 	C 	0.95560 0.19810 0.35180 -0.17400
H 	H 	0.93630 0.16650 0.32270 0.06600
H 	H 	0.97410 0.17500 0.38840 0.06400
C 	C 	0.90670 0.24270 0.37420 -0.08400
O 	O 	0.86460 0.21970 0.40610 -0.26800
O 	O 	0.91230 0.30000 0.35720 -0.24900
C 	C 	0.92760 0.21940 0.36060 0.06700
H 	H 	0.92300 0.17510 0.37560 0.04700
H 	H 	0.89200 0.22930 0.33150 0.08300
C 	C 	0.92820 0.26540 0.41670 0.46400
O 	O 	0.89030 0.25430 0.46100 -0.31700
O 	O 	0.96330 0.31240 0.41490 -0.26000
C 	C 	0.97550 0.21460 0.25290 0.01100
C 	C 	0.97790 0.14310 0.23710 0.07800
C 	C 	0.97010 0.13240 0.16600 -0.00000
La	La	0.50000 0.20644 0.79356 1.61700
La	La	0.50000 0.79356 0.79356 1.61800
La	La	0.50000 0.20644 0.20644 1.61700
La	La	0.50000 0.79356 0.20644 1.61700
La	La	0.79356 0.50000 0.20644 1.61700
La	La	0.79356 0.50000 0.79356 1.61800
La	La	0.20644 0.50000 0.20644 1.61700
La	La	0.20644 0.50000 0.79356 1.61700
La	La	0.20644 0.79356 0.50000 1.61700
La	La	0.79356 0.79356 0.50000 1.61800
La	La	0.20644 0.20644 0.50000 1.61700
La	La	0.79356 0.20644 0.50000 1.61700
Ni	Ni	0.32548 0.32548 -0.00000 1.15800
Ni	Ni	0.67452 0.67452 -0.00000 1.15800
Ni	Ni	0.67452 0.32548 -0.00000 1.15800
Ni	Ni	0.32548 0.67452 -0.00000 1.15800
Ni	Ni	0.00000 0.32548 0.32548 1.15800
Ni	Ni	0.00000 0.67452 0.67452 1.15800
Ni	Ni	0.00000 0.67452 0.32548 1.15800
Ni	Ni	0.00000 0.32548 0.67452 1.15800
Ni	Ni	0.32548 0.00000 0.32548 1.15800
Ni	Ni	0.67452 0.00000 0.67452 1.15800
Ni	Ni	0.32548 0.00000 0.67452 1.15800
Ni	Ni	0.67452 0.00000 0.32548 1.15800
N 	N 	0.32220 0.22960 -0.00000 -0.15500
N 	N 	0.67780 0.77040 -0.00000 -0.15300
N 	N 	0.67780 0.22960 -0.00000 -0.15500
N 	N 	0.32220 0.77040 -0.00000 -0.15300
N 	N 	0.00000 0.32220 0.22960 -0.15500
N 	N 	-0.00000 0.67780 0.77040 -0.15300
N 	N 	0.00000 0.67780 0.22960 -0.15500
N 	N 	0.00000 0.32220 0.77040 -0.15300
N 	N 	0.22960 0.00000 0.32220 -0.15500
N 	N 	0.77040 0.00000 0.67780 -0.15300
N 	N 	0.22960 0.00000 0.67780 -0.15500
N 	N 	0.77040 0.00000 0.32220 -0.15300
N 	N 	0.22960 0.32220 -0.00000 -0.15500
N 	N 	0.77040 0.67780 -0.00000 -0.15300
N 	N 	0.22960 0.67780 -0.00000 -0.15500
N 	N 	0.77040 0.32220 -0.00000 -0.15300
N 	N 	0.32220 0.00000 0.77040 -0.15300
N 	N 	0.67780 0.00000 0.22960 -0.15500
N 	N 	0.67780 0.00000 0.77040 -0.15300
N 	N 	0.32220 0.00000 0.22960 -0.15500
N 	N 	0.00000 0.22960 0.67780 -0.15500
N 	N 	0.00000 0.77040 0.32220 -0.15300
N 	N 	0.00000 0.22960 0.32220 -0.15500
N 	N 	0.00000 0.77040 0.67780 -0.15300
