data_crystal

_cell_length_a 36.65700
_cell_length_b 36.65700
_cell_length_c 10.46100
_cell_angle_alpha 90.00000
_cell_angle_beta  90.00000
_cell_angle_gamma 120.00000

_symmetry_space_group_name_	'P 1'
_symmetry_space_group_name_H-M	'P 1'

loop_
_symmetry_equiv_pos_as_xyz
  x,y,z

loop_
_atom_site_label
_atom_site_type_symbol
_atom_site_fract_x
_atom_site_fract_y
_atom_site_fract_z
_atom_site_charge
N 	N 	0.04598 0.49696 0.89050 -0.28400
N 	N 	0.98148 0.44040 0.07570 -0.28600
C 	C 	0.05237 0.39907 0.95770 0.02000
C 	C 	0.00001 0.41642 0.04920 0.02400
C 	C 	0.09134 0.47681 0.81290 -0.07700
H 	H 	0.10450 0.46060 0.79640 0.05700
C 	C 	0.94954 0.41914 0.16390 0.06200
C 	C 	0.03467 0.42815 0.96740 -0.07800
C 	C 	0.07488 0.52877 0.81120 0.05700
C 	C 	0.05571 0.46454 0.89590 0.05800
C 	C 	0.10308 0.51521 0.76190 -0.07900
H 	H 	0.12570 0.53040 0.70410 0.04800
C 	C 	0.09238 0.35100 0.93170 0.25200
C 	C 	0.09844 0.37498 0.03890 -0.21500
H 	H 	0.11680 0.37580 0.10440 0.06700
C 	C 	0.97760 0.37783 0.11990 -0.05600
H 	H 	0.98330 0.35530 0.11930 0.04500
C 	C 	0.04560 0.37497 0.84770 0.00200
H 	H 	0.02780 0.37490 0.78150 0.03000
C 	C 	0.94688 0.37927 0.18760 -0.08400
H 	H 	0.92700 0.35760 0.24160 0.05500
C 	C 	0.92371 0.43322 0.21560 -0.10200
C 	C 	0.88974 0.40486 0.30840 -0.02600
C 	C 	0.07798 0.39806 0.05270 -0.01700
H 	H 	0.08170 0.41350 0.12920 0.02100
C 	C 	0.06559 0.35070 0.83630 -0.19200
H 	H 	0.06070 0.33390 0.76220 0.08900
C 	C 	0.81950 0.35000 0.35430 -0.23500
H 	H 	0.79270 0.32920 0.32350 0.09300
C 	C 	0.11550 0.32690 0.91270 -0.58500
H 	H 	0.13670 0.33450 0.98020 0.17600
H 	H 	0.12940 0.33390 0.82910 0.17900
H 	H 	0.09540 0.29660 0.91660 0.19500
C 	C 	0.82500 0.35580 0.48100 0.27000
C 	C 	0.89510 0.41150 0.43560 0.04100
H 	H 	0.92130 0.43320 0.46750 0.00400
C 	C 	0.85190 0.37329 0.26370 0.03100
H 	H 	0.84740 0.36720 0.17500 0.00400
C 	C 	0.86270 0.38670 0.52130 -0.23700
H 	H 	0.86740 0.39190 0.61050 0.09700
C 	C 	0.79010 0.32870 0.57480 -0.60600
H 	H 	0.76470 0.30890 0.52750 0.18700
H 	H 	0.78380 0.34680 0.62860 0.18500
H 	H 	0.79930 0.31300 0.62890 0.19200
N 	N 	0.95402 0.50304 0.10950 -0.29300
N 	N 	0.01852 0.55960 0.92430 -0.29000
C 	C 	0.94763 0.60093 0.04230 0.00300
C 	C 	0.99999 0.58358 0.95080 0.11400
C 	C 	0.90866 0.52319 0.18710 -0.08800
H 	H 	0.89550 0.53940 0.20360 0.06100
C 	C 	0.05046 0.58086 0.83610 0.06100
C 	C 	0.96533 0.57185 0.03260 -0.14300
C 	C 	0.92512 0.47123 0.18880 0.05500
C 	C 	0.94429 0.53546 0.10410 0.07600
C 	C 	0.89692 0.48479 0.23810 -0.07200
H 	H 	0.87430 0.46960 0.29590 0.04800
C 	C 	0.90762 0.64900 0.06830 0.15300
C 	C 	0.90156 0.62502 0.96110 -0.12500
H 	H 	0.88320 0.62420 0.89560 0.05000
C 	C 	0.02240 0.62217 0.88010 -0.10000
H 	H 	0.01670 0.64470 0.88070 0.06700
C 	C 	0.95440 0.62503 0.15230 -0.02400
H 	H 	0.97220 0.62510 0.21850 0.04100
C 	C 	0.05312 0.62073 0.81240 -0.05900
H 	H 	0.07300 0.64240 0.75840 0.04900
C 	C 	0.07629 0.56678 0.78440 -0.10000
C 	C 	0.11026 0.59514 0.69160 -0.01900
C 	C 	0.92202 0.60194 0.94730 0.00000
H 	H 	0.91830 0.58650 0.87080 0.02800
C 	C 	0.93441 0.64930 0.16370 -0.14900
H 	H 	0.93930 0.66610 0.23780 0.07500
C 	C 	0.18050 0.65000 0.64570 -0.22200
H 	H 	0.20730 0.67080 0.67650 0.09000
C 	C 	0.88450 0.67310 0.08730 -0.48900
H 	H 	0.86330 0.66550 0.01980 0.13300
H 	H 	0.87060 0.66610 0.17090 0.15100
H 	H 	0.90460 0.70340 0.08340 0.15700
C 	C 	0.17500 0.64420 0.51900 0.25300
C 	C 	0.10490 0.58850 0.56440 0.03100
H 	H 	0.07870 0.56680 0.53250 0.00600
C 	C 	0.14810 0.62671 0.73630 0.02300
H 	H 	0.15260 0.63280 0.82500 0.01300
C 	C 	0.13730 0.61330 0.47870 -0.22500
H 	H 	0.13260 0.60810 0.38950 0.08700
C 	C 	0.20990 0.67130 0.42520 -0.57900
H 	H 	0.23530 0.69110 0.47250 0.17700
H 	H 	0.21620 0.65320 0.37140 0.16900
H 	H 	0.20070 0.68700 0.37110 0.17800
Sn	Sn	0.00000 0.50000 -0.00000 1.23500
N 	N 	0.71265 0.83029 0.22383 -0.29100
N 	N 	0.64815 0.77373 0.40903 -0.29100
C 	C 	0.71904 0.73240 0.29103 0.01300
C 	C 	0.66668 0.74975 0.38253 0.07000
C 	C 	0.75801 0.81014 0.14623 -0.08500
H 	H 	0.77117 0.79393 0.12973 0.05600
C 	C 	0.61621 0.75247 0.49723 0.06000
C 	C 	0.70134 0.76148 0.30073 -0.11200
C 	C 	0.74155 0.86210 0.14453 0.05200
C 	C 	0.72238 0.79787 0.22923 0.06600
C 	C 	0.76975 0.84854 0.09523 -0.07700
H 	H 	0.79237 0.86373 0.03743 0.04300
C 	C 	0.75905 0.68433 0.26503 0.19700
C 	C 	0.76511 0.70831 0.37223 -0.16700
H 	H 	0.78347 0.70913 0.43773 0.05700
C 	C 	0.64427 0.71116 0.45323 -0.07900
H 	H 	0.64997 0.68863 0.45263 0.05600
C 	C 	0.71227 0.70830 0.18103 -0.01400
H 	H 	0.69447 0.70823 0.11483 0.03100
C 	C 	0.61355 0.71260 0.52093 -0.07100
H 	H 	0.59367 0.69093 0.57493 0.05200
C 	C 	0.59038 0.76655 0.54893 -0.10000
C 	C 	0.55641 0.73819 0.64173 -0.02800
C 	C 	0.74465 0.73139 0.38603 -0.01100
H 	H 	0.74837 0.74683 0.46253 0.02500
C 	C 	0.73226 0.68403 0.16963 -0.16900
H 	H 	0.72737 0.66723 0.09553 0.07600
C 	C 	0.48617 0.68333 0.68763 -0.23800
H 	H 	0.45937 0.66253 0.65683 0.09400
C 	C 	0.78217 0.66023 0.24603 -0.53000
H 	H 	0.80337 0.66783 0.31353 0.15200
H 	H 	0.79607 0.66723 0.16243 0.16000
H 	H 	0.76207 0.62993 0.24993 0.17300
C 	C 	0.49167 0.68913 0.81433 0.27400
C 	C 	0.56177 0.74483 0.76893 0.04400
H 	H 	0.58797 0.76653 0.80083 0.00300
C 	C 	0.51857 0.70662 0.59703 0.03400
H 	H 	0.51407 0.70053 0.50833 0.00400
C 	C 	0.52937 0.72003 0.85463 -0.24000
H 	H 	0.53407 0.72523 0.94383 0.10100
C 	C 	0.45677 0.66203 0.90813 -0.61100
H 	H 	0.43137 0.64223 0.86083 0.18900
H 	H 	0.45047 0.68013 0.96193 0.18700
H 	H 	0.46597 0.64633 0.96223 0.19500
N 	N 	0.62069 0.83637 0.44283 -0.29000
N 	N 	0.68519 0.89293 0.25763 -0.29100
C 	C 	0.61430 0.93426 0.37563 0.00200
C 	C 	0.66666 0.91691 0.28413 0.06700
C 	C 	0.57533 0.85652 0.52043 -0.08200
H 	H 	0.56217 0.87273 0.53693 0.05900
C 	C 	0.71713 0.91419 0.16943 0.05900
C 	C 	0.63200 0.90518 0.36593 -0.10800
C 	C 	0.59179 0.80456 0.52213 0.05500
C 	C 	0.61096 0.86879 0.43743 0.06500
C 	C 	0.56359 0.81812 0.57143 -0.07500
H 	H 	0.54097 0.80293 0.62923 0.04900
C 	C 	0.57429 0.98233 0.40163 0.23100
C 	C 	0.56823 0.95835 0.29443 -0.19000
H 	H 	0.54987 0.95753 0.22893 0.06200
C 	C 	0.68907 0.95550 0.21343 -0.08000
H 	H 	0.68337 0.97803 0.21403 0.05600
C 	C 	0.62107 0.95836 0.48563 0.00200
H 	H 	0.63887 0.95843 0.55183 0.03200
C 	C 	0.71979 0.95406 0.14573 -0.07300
H 	H 	0.73967 0.97573 0.09173 0.04800
C 	C 	0.74296 0.90011 0.11773 -0.10600
C 	C 	0.77693 0.92847 0.02493 -0.02200
C 	C 	0.58869 0.93527 0.28063 0.00500
H 	H 	0.58497 0.91983 0.20413 0.01500
C 	C 	0.60108 0.98263 0.49703 -0.18900
H 	H 	0.60597 0.99943 0.57113 0.09000
C 	C 	0.84717 0.98333 0.97903 -0.12700
H 	H 	0.87397 0.00413 0.00983 0.04000
C 	C 	0.55117 0.00643 0.42063 -0.59700
H 	H 	0.52997 0.99883 0.35313 0.17400
H 	H 	0.53727 0.99943 0.50423 0.18600
H 	H 	0.57127 0.03673 0.41673 0.19300
C 	C 	0.84167 0.97753 0.85233 0.22500
C 	C 	0.77157 0.92183 0.89773 0.04500
H 	H 	0.74537 0.90013 0.86583 0.00600
C 	C 	0.81477 0.96004 0.06963 -0.03600
H 	H 	0.81927 0.96613 0.15833 0.02900
C 	C 	0.80397 0.94663 0.81203 -0.21200
H 	H 	0.79927 0.94143 0.72283 0.08700
C 	C 	0.87657 0.00463 0.75853 -0.57700
H 	H 	0.90197 0.02443 0.80583 0.18100
H 	H 	0.88287 0.98653 0.70473 0.17700
H 	H 	0.86737 0.02033 0.70443 0.18000
Sn	Sn	0.66667 0.83333 0.33333 1.24700
N 	N 	0.37931 0.16363 0.55717 -0.28900
N 	N 	0.31481 0.10707 0.74237 -0.28900
C 	C 	0.38570 0.06574 0.62437 0.02200
C 	C 	0.33334 0.08309 0.71587 0.07300
C 	C 	0.42467 0.14348 0.47957 -0.08300
H 	H 	0.43783 0.12727 0.46307 0.06000
C 	C 	0.28287 0.08581 0.83057 0.06400
C 	C 	0.36800 0.09482 0.63407 -0.11400
C 	C 	0.40821 0.19544 0.47787 0.05700
C 	C 	0.38904 0.13121 0.56257 0.07000
C 	C 	0.43641 0.18188 0.42857 -0.07400
H 	H 	0.45903 0.19707 0.37077 0.04800
C 	C 	0.42571 0.01767 0.59837 0.17400
C 	C 	0.43177 0.04165 0.70557 -0.15000
H 	H 	0.45013 0.04247 0.77107 0.05500
C 	C 	0.31093 0.04450 0.78657 -0.07800
H 	H 	0.31663 0.02197 0.78597 0.05700
C 	C 	0.37893 0.04164 0.51437 -0.02400
H 	H 	0.36113 0.04157 0.44817 0.03900
C 	C 	0.28021 0.04594 0.85427 -0.06900
H 	H 	0.26033 0.02427 0.90827 0.05600
C 	C 	0.25704 0.09989 0.88227 -0.09600
C 	C 	0.22307 0.07153 0.97507 -0.02300
C 	C 	0.41131 0.06473 0.71937 -0.02200
H 	H 	0.41503 0.08017 0.79587 0.03400
C 	C 	0.39892 0.01737 0.50297 -0.15200
H 	H 	0.39403 0.00057 0.42887 0.07400
C 	C 	0.15283 0.01667 0.02097 -0.33200
H 	H 	0.12603 0.99587 0.99017 0.14400
C 	C 	0.44883 0.99357 0.57937 -0.47700
H 	H 	0.47003 0.00117 0.64687 0.13500
H 	H 	0.46273 0.00057 0.49577 0.14400
H 	H 	0.42873 0.96327 0.58327 0.16000
C 	C 	0.15833 0.02247 0.14767 0.29800
C 	C 	0.22843 0.07817 0.10227 0.02600
H 	H 	0.25463 0.09987 0.13417 0.00400
C 	C 	0.18523 0.03996 0.93037 0.09100
H 	H 	0.18073 0.03387 0.84167 -0.01200
C 	C 	0.19603 0.05337 0.18797 -0.25000
H 	H 	0.20073 0.05857 0.27717 0.09700
C 	C 	0.12343 0.99537 0.24147 -0.60700
H 	H 	0.09803 0.97557 0.19417 0.18300
H 	H 	0.11713 0.01347 0.29527 0.17700
H 	H 	0.13263 0.97967 0.29557 0.19000
N 	N 	0.28735 0.16971 0.77617 -0.28800
N 	N 	0.35185 0.22627 0.59097 -0.28900
C 	C 	0.28096 0.26760 0.70897 0.01100
C 	C 	0.33332 0.25025 0.61747 0.07000
C 	C 	0.24199 0.18986 0.85377 -0.07900
H 	H 	0.22883 0.20607 0.87027 0.06200
C 	C 	0.38379 0.24753 0.50277 0.06300
C 	C 	0.29866 0.23852 0.69927 -0.11000
C 	C 	0.25845 0.13790 0.85547 0.06000
C 	C 	0.27762 0.20213 0.77077 0.07000
C 	C 	0.23025 0.15146 0.90477 -0.07200
H 	H 	0.20763 0.13627 0.96257 0.05500
C 	C 	0.24095 0.31567 0.73497 0.20600
C 	C 	0.23489 0.29169 0.62777 -0.17200
H 	H 	0.21653 0.29087 0.56227 0.05900
C 	C 	0.35573 0.28884 0.54677 -0.07800
H 	H 	0.35003 0.31137 0.54737 0.05600
C 	C 	0.28773 0.29170 0.81897 -0.00900
H 	H 	0.30553 0.29177 0.88517 0.04000
C 	C 	0.38645 0.28740 0.47907 -0.07100
H 	H 	0.40633 0.30907 0.42507 0.05200
C 	C 	0.40962 0.23345 0.45107 -0.10300
C 	C 	0.44359 0.26181 0.35827 -0.01600
C 	C 	0.25535 0.26861 0.61397 -0.00700
H 	H 	0.25163 0.25317 0.53747 0.02400
C 	C 	0.26774 0.31597 0.83037 -0.17100
H 	H 	0.27263 0.33277 0.90447 0.08800
C 	C 	0.51383 0.31667 0.31237 -0.22000
H 	H 	0.54063 0.33747 0.34317 0.08900
C 	C 	0.21783 0.33977 0.75397 -0.54300
H 	H 	0.19663 0.33217 0.68647 0.15600
H 	H 	0.20393 0.33277 0.83757 0.17000
H 	H 	0.23793 0.37007 0.75007 0.17900
C 	C 	0.50833 0.31087 0.18567 0.24900
C 	C 	0.43823 0.25517 0.23107 0.02700
H 	H 	0.41203 0.23347 0.19917 0.00600
C 	C 	0.48143 0.29338 0.40297 0.02000
H 	H 	0.48593 0.29947 0.49167 0.01300
C 	C 	0.47063 0.27997 0.14537 -0.22200
H 	H 	0.46593 0.27477 0.05617 0.08400
C 	C 	0.54323 0.33797 0.09187 -0.57400
H 	H 	0.56863 0.35777 0.13917 0.17500
H 	H 	0.54953 0.31987 0.03807 0.16700
H 	H 	0.53403 0.35367 0.03777 0.17500
Sn	Sn	0.33333 0.16667 0.66667 1.25000
N 	N 	0.50304 0.54902 0.89050 -0.28200
N 	N 	0.55960 0.54108 0.07570 -0.29000
C 	C 	0.60093 0.65330 0.95770 0.02400
C 	C 	0.58358 0.58359 0.04920 0.03700
C 	C 	0.52319 0.61453 0.81290 -0.07700
H 	H 	0.53940 0.64390 0.79640 0.05800
C 	C 	0.58086 0.53040 0.16390 0.06100
C 	C 	0.57185 0.60652 0.96740 -0.08100
C 	C 	0.47123 0.54611 0.81120 0.05900
C 	C 	0.53546 0.59117 0.89590 0.06200
C 	C 	0.48479 0.58787 0.76190 -0.07700
H 	H 	0.46960 0.59530 0.70410 0.04900
C 	C 	0.64900 0.74138 0.93170 0.25100
C 	C 	0.62502 0.72346 0.03890 -0.21300
H 	H 	0.62420 0.74100 0.10440 0.06600
C 	C 	0.62217 0.59977 0.11990 -0.06700
H 	H 	0.64470 0.62800 0.11930 0.04800
C 	C 	0.62503 0.67063 0.84770 0.00000
H 	H 	0.62510 0.65290 0.78150 0.03200
C 	C 	0.62073 0.56761 0.18760 -0.07900
H 	H 	0.64240 0.56940 0.24160 0.05300
C 	C 	0.56678 0.49049 0.21560 -0.10200
C 	C 	0.59514 0.48488 0.30840 -0.02600
C 	C 	0.60194 0.67992 0.05270 -0.01900
H 	H 	0.58650 0.66820 0.12920 0.02200
C 	C 	0.64930 0.71489 0.83630 -0.19000
H 	H 	0.66610 0.72680 0.76220 0.08900
C 	C 	0.65000 0.46950 0.35430 -0.23500
H 	H 	0.67080 0.46350 0.32350 0.09300
C 	C 	0.67310 0.78860 0.91270 -0.58400
H 	H 	0.66550 0.80220 0.98020 0.17500
H 	H 	0.66610 0.79550 0.82910 0.17900
H 	H 	0.70340 0.79880 0.91660 0.19500
C 	C 	0.64420 0.46920 0.48100 0.27000
C 	C 	0.58850 0.48360 0.43560 0.04100
H 	H 	0.56680 0.48810 0.46750 0.00400
C 	C 	0.62671 0.47861 0.26370 0.03100
H 	H 	0.63280 0.48020 0.17500 0.00400
C 	C 	0.61330 0.47600 0.52130 -0.23700
H 	H 	0.60810 0.47550 0.61050 0.09700
C 	C 	0.67130 0.46140 0.57480 -0.60600
H 	H 	0.69110 0.45580 0.52750 0.18700
H 	H 	0.65320 0.43700 0.62860 0.18500
H 	H 	0.68700 0.48630 0.62890 0.19200
N 	N 	0.49696 0.45098 0.10950 -0.29400
N 	N 	0.44040 0.45892 0.92430 -0.28700
C 	C 	0.39907 0.34670 0.04230 0.00000
C 	C 	0.41642 0.41641 0.95080 0.10400
C 	C 	0.47681 0.38547 0.18710 -0.08800
H 	H 	0.46060 0.35610 0.20360 0.06100
C 	C 	0.41914 0.46960 0.83610 0.06200
C 	C 	0.42815 0.39348 0.03260 -0.14000
C 	C 	0.52877 0.45389 0.18880 0.05400
C 	C 	0.46454 0.40883 0.10410 0.07400
C 	C 	0.51521 0.41213 0.23810 -0.07300
H 	H 	0.53040 0.40470 0.29590 0.04800
C 	C 	0.35100 0.25862 0.06830 0.15300
C 	C 	0.37498 0.27654 0.96110 -0.12500
H 	H 	0.37580 0.25900 0.89560 0.05000
C 	C 	0.37783 0.40023 0.88010 -0.09100
H 	H 	0.35530 0.37200 0.88070 0.06500
C 	C 	0.37497 0.32937 0.15230 -0.02300
H 	H 	0.37490 0.34710 0.21850 0.03800
C 	C 	0.37927 0.43239 0.81240 -0.06300
H 	H 	0.35760 0.43060 0.75840 0.05000
C 	C 	0.43322 0.50951 0.78440 -0.10000
C 	C 	0.40486 0.51512 0.69160 -0.01800
C 	C 	0.39806 0.32008 0.94730 0.00200
H 	H 	0.41350 0.33180 0.87080 0.02600
C 	C 	0.35070 0.28511 0.16370 -0.15000
H 	H 	0.33390 0.27320 0.23780 0.07500
C 	C 	0.35000 0.53050 0.64570 -0.22200
H 	H 	0.32920 0.53650 0.67650 0.09000
C 	C 	0.32690 0.21140 0.08730 -0.48900
H 	H 	0.33450 0.19780 0.01980 0.13300
H 	H 	0.33390 0.20450 0.17090 0.15100
H 	H 	0.29660 0.20120 0.08340 0.15700
C 	C 	0.35580 0.53080 0.51900 0.25300
C 	C 	0.41150 0.51640 0.56440 0.03000
H 	H 	0.43320 0.51190 0.53250 0.00600
C 	C 	0.37329 0.52139 0.73630 0.02200
H 	H 	0.36720 0.51980 0.82500 0.01300
C 	C 	0.38670 0.52400 0.47870 -0.22400
H 	H 	0.39190 0.52450 0.38950 0.08700
C 	C 	0.32870 0.53860 0.42520 -0.57900
H 	H 	0.30890 0.54420 0.47250 0.17700
H 	H 	0.34680 0.56300 0.37140 0.16900
H 	H 	0.31300 0.51370 0.37110 0.17800
Sn	Sn	0.50000 0.50000 -0.00000 1.23800
N 	N 	0.16971 0.88235 0.22383 -0.29200
N 	N 	0.22627 0.87441 0.40903 -0.29100
C 	C 	0.26760 0.98663 0.29103 0.03700
C 	C 	0.25025 0.91692 0.38253 0.07400
C 	C 	0.18986 0.94786 0.14623 -0.08800
H 	H 	0.20607 0.97723 0.12973 0.05900
C 	C 	0.24753 0.86373 0.49723 0.06000
C 	C 	0.23852 0.93985 0.30073 -0.12000
C 	C 	0.13790 0.87944 0.14453 0.05200
C 	C 	0.20213 0.92450 0.22923 0.07000
C 	C 	0.15146 0.92120 0.09523 -0.07600
H 	H 	0.13627 0.92863 0.03743 0.04300
C 	C 	0.31567 0.07471 0.26503 0.18300
C 	C 	0.29169 0.05679 0.37223 -0.15000
H 	H 	0.29087 0.07433 0.43773 0.05100
C 	C 	0.28884 0.93310 0.45323 -0.08200
H 	H 	0.31137 0.96133 0.45263 0.05800
C 	C 	0.29170 0.00396 0.18103 -0.04300
H 	H 	0.29177 0.98623 0.11483 0.04400
C 	C 	0.28740 0.90094 0.52093 -0.07000
H 	H 	0.30907 0.90273 0.57493 0.05200
C 	C 	0.23345 0.82382 0.54893 -0.10000
C 	C 	0.26181 0.81821 0.64173 -0.02800
C 	C 	0.26861 0.01325 0.38603 -0.03300
H 	H 	0.25317 0.00153 0.46253 0.03100
C 	C 	0.31597 0.04822 0.16963 -0.15000
H 	H 	0.33277 0.06013 0.09553 0.06900
C 	C 	0.31667 0.80283 0.68763 -0.23800
H 	H 	0.33747 0.79683 0.65683 0.09400
C 	C 	0.33977 0.12193 0.24603 -0.51700
H 	H 	0.33217 0.13553 0.31353 0.14800
H 	H 	0.33277 0.12883 0.16243 0.15600
H 	H 	0.37007 0.13213 0.24993 0.16900
C 	C 	0.31087 0.80253 0.81433 0.27400
C 	C 	0.25517 0.81693 0.76893 0.04500
H 	H 	0.23347 0.82143 0.80083 0.00400
C 	C 	0.29338 0.81194 0.59703 0.03400
H 	H 	0.29947 0.81353 0.50833 0.00400
C 	C 	0.27997 0.80933 0.85463 -0.24000
H 	H 	0.27477 0.80883 0.94383 0.10100
C 	C 	0.33797 0.79473 0.90813 -0.61100
H 	H 	0.35777 0.78913 0.86083 0.18900
H 	H 	0.31987 0.77033 0.96193 0.18700
H 	H 	0.35367 0.81963 0.96223 0.19500
N 	N 	0.16363 0.78431 0.44283 -0.29000
N 	N 	0.10707 0.79225 0.25763 -0.29100
C 	C 	0.06574 0.68003 0.37563 0.02100
C 	C 	0.08309 0.74974 0.28413 0.07000
C 	C 	0.14348 0.71880 0.52043 -0.08300
H 	H 	0.12727 0.68943 0.53693 0.06000
C 	C 	0.08581 0.80293 0.16943 0.05900
C 	C 	0.09482 0.72681 0.36593 -0.11500
C 	C 	0.19544 0.78722 0.52213 0.05400
C 	C 	0.13121 0.74216 0.43743 0.06800
C 	C 	0.18188 0.74546 0.57143 -0.07400
H 	H 	0.19707 0.73803 0.62923 0.04900
C 	C 	0.01767 0.59195 0.40163 0.17000
C 	C 	0.04165 0.60987 0.29443 -0.14900
H 	H 	0.04247 0.59233 0.22893 0.04600
C 	C 	0.04450 0.73356 0.21343 -0.08200
H 	H 	0.02197 0.70533 0.21403 0.05300
C 	C 	0.04164 0.66270 0.48563 -0.02500
H 	H 	0.04157 0.68043 0.55183 0.03900
C 	C 	0.04594 0.76572 0.14573 -0.07300
H 	H 	0.02427 0.76393 0.09173 0.04500
C 	C 	0.09989 0.84284 0.11773 -0.10700
C 	C 	0.07153 0.84845 0.02493 -0.01800
C 	C 	0.06473 0.65341 0.28063 -0.02400
H 	H 	0.08017 0.66513 0.20413 0.02400
C 	C 	0.01737 0.61844 0.49703 -0.15000
H 	H 	0.00057 0.60653 0.57113 0.07400
C 	C 	0.01667 0.86383 0.97903 -0.13000
H 	H 	0.99587 0.86983 0.00983 0.04700
C 	C 	0.99357 0.54473 0.42063 -0.47100
H 	H 	0.00117 0.53113 0.35313 0.13100
H 	H 	0.00057 0.53783 0.50423 0.14300
H 	H 	0.96327 0.53453 0.41673 0.15900
C 	C 	0.02247 0.86413 0.85233 0.20100
C 	C 	0.07817 0.84973 0.89773 0.03700
H 	H 	0.09987 0.84523 0.86583 0.00900
C 	C 	0.03996 0.85472 0.06963 -0.03900
H 	H 	0.03387 0.85313 0.15833 0.02800
C 	C 	0.05337 0.85733 0.81203 -0.19700
H 	H 	0.05857 0.85783 0.72283 0.08100
C 	C 	0.99537 0.87193 0.75853 -0.52100
H 	H 	0.97557 0.87753 0.80583 0.16700
H 	H 	0.01347 0.89633 0.70473 0.15600
H 	H 	0.97967 0.84703 0.70443 0.16700
Sn	Sn	0.16667 0.83333 0.33333 1.24700
N 	N 	0.83637 0.21569 0.55717 -0.28900
N 	N 	0.89293 0.20775 0.74237 -0.28900
C 	C 	0.93426 0.31997 0.62437 0.00300
C 	C 	0.91691 0.25026 0.71587 0.07000
C 	C 	0.85652 0.28120 0.47957 -0.08100
H 	H 	0.87273 0.31057 0.46307 0.05900
C 	C 	0.91419 0.19707 0.83057 0.06400
C 	C 	0.90518 0.27319 0.63407 -0.10600
C 	C 	0.80456 0.21278 0.47787 0.05800
C 	C 	0.86879 0.25784 0.56257 0.06700
C 	C 	0.81812 0.25454 0.42857 -0.07500
H 	H 	0.80293 0.26197 0.37077 0.04900
C 	C 	0.98233 0.40805 0.59837 0.23400
C 	C 	0.95835 0.39013 0.70557 -0.19000
H 	H 	0.95753 0.40767 0.77107 0.07100
C 	C 	0.95550 0.26644 0.78657 -0.07600
H 	H 	0.97803 0.29467 0.78597 0.05900
C 	C 	0.95836 0.33730 0.51437 0.00300
H 	H 	0.95843 0.31957 0.44817 0.03100
C 	C 	0.95406 0.23428 0.85427 -0.06900
H 	H 	0.97573 0.23607 0.90827 0.05800
C 	C 	0.90011 0.15716 0.88227 -0.09500
C 	C 	0.92847 0.15155 0.97507 -0.02700
C 	C 	0.93527 0.34659 0.71937 0.00700
H 	H 	0.91983 0.33487 0.79587 0.02500
C 	C 	0.98263 0.38156 0.50297 -0.19000
H 	H 	0.99943 0.39347 0.42887 0.09000
C 	C 	0.98333 0.13617 0.02097 -0.32800
H 	H 	0.00413 0.13017 0.99017 0.13600
C 	C 	0.00643 0.45527 0.57937 -0.60300
H 	H 	0.99883 0.46887 0.64687 0.17800
H 	H 	0.99943 0.46217 0.49577 0.18700
H 	H 	0.03673 0.46547 0.58327 0.19300
C 	C 	0.97753 0.13587 0.14767 0.32300
C 	C 	0.92183 0.15027 0.10227 0.03600
H 	H 	0.90013 0.15477 0.13417 0.00100
C 	C 	0.96004 0.14528 0.93037 0.09300
H 	H 	0.96613 0.14687 0.84167 -0.01100
C 	C 	0.94663 0.14267 0.18797 -0.26600
H 	H 	0.94143 0.14217 0.27717 0.10300
C 	C 	0.00463 0.12807 0.24147 -0.66600
H 	H 	0.02443 0.12247 0.19417 0.19700
H 	H 	0.98653 0.10367 0.29527 0.19900
H 	H 	0.02033 0.15297 0.29557 0.20400
N 	N 	0.83029 0.11765 0.77617 -0.28800
N 	N 	0.77373 0.12559 0.59097 -0.28900
C 	C 	0.73240 0.01337 0.70897 -0.01300
C 	C 	0.74975 0.08308 0.61747 0.06700
C 	C 	0.81014 0.05214 0.85377 -0.07700
H 	H 	0.79393 0.02277 0.87027 0.06000
C 	C 	0.75247 0.13627 0.50277 0.06400
C 	C 	0.76148 0.06015 0.69927 -0.10200
C 	C 	0.86210 0.12056 0.85547 0.05900
C 	C 	0.79787 0.07550 0.77077 0.06600
C 	C 	0.84854 0.07880 0.90477 -0.07300
H 	H 	0.86373 0.07137 0.96257 0.05500
C 	C 	0.68433 0.92529 0.73497 0.22100
C 	C 	0.70831 0.94321 0.62777 -0.18800
H 	H 	0.70913 0.92567 0.56227 0.06400
C 	C 	0.71116 0.06690 0.54677 -0.07600
H 	H 	0.68863 0.03867 0.54737 0.05400
C 	C 	0.70830 0.99604 0.81897 0.02000
H 	H 	0.70823 0.01377 0.88517 0.02700
C 	C 	0.71260 0.09906 0.47907 -0.07300
H 	H 	0.69093 0.09727 0.42507 0.05200
C 	C 	0.76655 0.17618 0.45107 -0.10300
C 	C 	0.73819 0.18179 0.35827 -0.01600
C 	C 	0.73139 0.98675 0.61397 0.01500
H 	H 	0.74683 0.99847 0.53747 0.01800
C 	C 	0.68403 0.95178 0.83037 -0.19000
H 	H 	0.66723 0.93987 0.90447 0.09400
C 	C 	0.68333 0.19717 0.31237 -0.22000
H 	H 	0.66253 0.20317 0.34317 0.08900
C 	C 	0.66023 0.87807 0.75397 -0.55600
H 	H 	0.66783 0.86447 0.68647 0.16000
H 	H 	0.66723 0.87117 0.83757 0.17300
H 	H 	0.62993 0.86787 0.75007 0.18300
C 	C 	0.68913 0.19747 0.18567 0.24900
C 	C 	0.74483 0.18307 0.23107 0.02700
H 	H 	0.76653 0.17857 0.19917 0.00600
C 	C 	0.70662 0.18806 0.40297 0.02000
H 	H 	0.70053 0.18647 0.49167 0.01300
C 	C 	0.72003 0.19067 0.14537 -0.22200
H 	H 	0.72523 0.19117 0.05617 0.08400
C 	C 	0.66203 0.20527 0.09187 -0.57400
H 	H 	0.64223 0.21087 0.13917 0.17500
H 	H 	0.68013 0.22967 0.03807 0.16700
H 	H 	0.64633 0.18037 0.03777 0.17500
Sn	Sn	0.83333 0.16667 0.66667 1.25000
N 	N 	0.45098 0.95402 0.89050 -0.28200
N 	N 	0.45892 0.01852 0.07570 -0.29300
C 	C 	0.34670 0.94763 0.95770 0.02600
C 	C 	0.41641 0.99999 0.04920 0.04800
C 	C 	0.38547 0.90866 0.81290 -0.07700
H 	H 	0.35610 0.89550 0.79640 0.05900
C 	C 	0.46960 0.05046 0.16390 0.06000
C 	C 	0.39348 0.96533 0.96740 -0.08400
C 	C 	0.45389 0.92512 0.81120 0.05900
C 	C 	0.40883 0.94429 0.89590 0.06400
C 	C 	0.41213 0.89692 0.76190 -0.07600
H 	H 	0.40470 0.87430 0.70410 0.04900
C 	C 	0.25862 0.90762 0.93170 0.25100
C 	C 	0.27654 0.90156 0.03890 -0.21300
H 	H 	0.25900 0.88320 0.10440 0.06600
C 	C 	0.40023 0.02240 0.11990 -0.07700
H 	H 	0.37200 0.01670 0.11930 0.05000
C 	C 	0.32937 0.95440 0.84770 -0.00100
H 	H 	0.34710 0.97220 0.78150 0.03400
C 	C 	0.43239 0.05312 0.18760 -0.07500
H 	H 	0.43060 0.07300 0.24160 0.05200
C 	C 	0.50951 0.07629 0.21560 -0.10100
C 	C 	0.51512 0.11026 0.30840 -0.02600
C 	C 	0.32008 0.92202 0.05270 -0.02000
H 	H 	0.33180 0.91830 0.12920 0.02300
C 	C 	0.28511 0.93441 0.83630 -0.18900
H 	H 	0.27320 0.93930 0.76220 0.09000
C 	C 	0.53050 0.18050 0.35430 -0.23500
H 	H 	0.53650 0.20730 0.32350 0.09300
C 	C 	0.21140 0.88450 0.91270 -0.58400
H 	H 	0.19780 0.86330 0.98020 0.17600
H 	H 	0.20450 0.87060 0.82910 0.17900
H 	H 	0.20120 0.90460 0.91660 0.19500
C 	C 	0.53080 0.17500 0.48100 0.27000
C 	C 	0.51640 0.10490 0.43560 0.04100
H 	H 	0.51190 0.07870 0.46750 0.00400
C 	C 	0.52139 0.14810 0.26370 0.03200
H 	H 	0.51980 0.15260 0.17500 0.00400
C 	C 	0.52400 0.13730 0.52130 -0.23800
H 	H 	0.52450 0.13260 0.61050 0.09700
C 	C 	0.53860 0.20990 0.57480 -0.60600
H 	H 	0.54420 0.23530 0.52750 0.18700
H 	H 	0.56300 0.21620 0.62860 0.18500
H 	H 	0.51370 0.20070 0.62890 0.19200
N 	N 	0.54902 0.04598 0.10950 -0.29400
N 	N 	0.54108 0.98148 0.92430 -0.28300
C 	C 	0.65330 0.05237 0.04230 -0.00200
C 	C 	0.58359 0.00001 0.95080 0.09300
C 	C 	0.61453 0.09134 0.18710 -0.08700
H 	H 	0.64390 0.10450 0.20360 0.06000
C 	C 	0.53040 0.94954 0.83610 0.06400
C 	C 	0.60652 0.03467 0.03260 -0.13700
C 	C 	0.54611 0.07488 0.18880 0.05300
C 	C 	0.59117 0.05571 0.10410 0.07200
C 	C 	0.58787 0.10308 0.23810 -0.07300
H 	H 	0.59530 0.12570 0.29590 0.04800
C 	C 	0.74138 0.09238 0.06830 0.15400
C 	C 	0.72346 0.09844 0.96110 -0.12600
H 	H 	0.74100 0.11680 0.89560 0.05000
C 	C 	0.59977 0.97760 0.88010 -0.08100
H 	H 	0.62800 0.98330 0.88070 0.06300
C 	C 	0.67063 0.04560 0.15230 -0.02100
H 	H 	0.65290 0.02780 0.21850 0.03600
C 	C 	0.56761 0.94688 0.81240 -0.06800
H 	H 	0.56940 0.92700 0.75840 0.05200
C 	C 	0.49049 0.92371 0.78440 -0.10100
C 	C 	0.48488 0.88974 0.69160 -0.01800
C 	C 	0.67992 0.07798 0.94730 0.00300
H 	H 	0.66820 0.08170 0.87080 0.02500
C 	C 	0.71489 0.06559 0.16370 -0.15100
H 	H 	0.72680 0.06070 0.23780 0.07400
C 	C 	0.46950 0.81950 0.64570 -0.22200
H 	H 	0.46350 0.79270 0.67650 0.09000
C 	C 	0.78860 0.11550 0.08730 -0.48900
H 	H 	0.80220 0.13670 0.01980 0.13300
H 	H 	0.79550 0.12940 0.17090 0.15000
H 	H 	0.79880 0.09540 0.08340 0.15700
C 	C 	0.46920 0.82500 0.51900 0.25200
C 	C 	0.48360 0.89510 0.56440 0.03000
H 	H 	0.48810 0.92130 0.53250 0.00600
C 	C 	0.47861 0.85190 0.73630 0.02200
H 	H 	0.48020 0.84740 0.82500 0.01300
C 	C 	0.47600 0.86270 0.47870 -0.22400
H 	H 	0.47550 0.86740 0.38950 0.08700
C 	C 	0.46140 0.79010 0.42520 -0.57900
H 	H 	0.45580 0.76470 0.47250 0.17700
H 	H 	0.43700 0.78380 0.37140 0.16900
H 	H 	0.48630 0.79930 0.37110 0.17800
Sn	Sn	0.50000 0.00000 -0.00000 1.23600
N 	N 	0.11765 0.28735 0.22383 -0.29100
N 	N 	0.12559 0.35185 0.40903 -0.29000
C 	C 	0.01337 0.28096 0.29103 -0.01400
C 	C 	0.08308 0.33332 0.38253 0.06500
C 	C 	0.05214 0.24199 0.14623 -0.08300
H 	H 	0.02277 0.22883 0.12973 0.05400
C 	C 	0.13627 0.38379 0.49723 0.06000
C 	C 	0.06015 0.29866 0.30073 -0.10300
C 	C 	0.12056 0.25845 0.14453 0.05300
C 	C 	0.07550 0.27762 0.22923 0.06100
C 	C 	0.07880 0.23025 0.09523 -0.07900
H 	H 	0.07137 0.20763 0.03743 0.04300
C 	C 	0.92529 0.24095 0.26503 0.21400
C 	C 	0.94321 0.23489 0.37223 -0.18500
H 	H 	0.92567 0.21653 0.43773 0.06300
C 	C 	0.06690 0.35573 0.45323 -0.07700
H 	H 	0.03867 0.35003 0.45263 0.05400
C 	C 	0.99604 0.28773 0.18103 0.01900
H 	H 	0.01377 0.30553 0.11483 0.01700
C 	C 	0.09906 0.38645 0.52093 -0.07300
H 	H 	0.09727 0.40633 0.57493 0.05200
C 	C 	0.17618 0.40962 0.54893 -0.10000
C 	C 	0.18179 0.44359 0.64173 -0.02800
C 	C 	0.98675 0.25535 0.38603 0.01400
H 	H 	0.99847 0.25163 0.46253 0.01900
C 	C 	0.95178 0.26774 0.16963 -0.18900
H 	H 	0.93987 0.27263 0.09553 0.08300
C 	C 	0.19717 0.51383 0.68763 -0.23800
H 	H 	0.20317 0.54063 0.65683 0.09400
C 	C 	0.87807 0.21783 0.24603 -0.54500
H 	H 	0.86447 0.19663 0.31353 0.15600
H 	H 	0.87117 0.20393 0.16243 0.16400
H 	H 	0.86787 0.23793 0.24993 0.17700
C 	C 	0.19747 0.50833 0.81433 0.27400
C 	C 	0.18307 0.43823 0.76893 0.04400
H 	H 	0.17857 0.41203 0.80083 0.00400
C 	C 	0.18806 0.48143 0.59703 0.03400
H 	H 	0.18647 0.48593 0.50833 0.00400
C 	C 	0.19067 0.47063 0.85463 -0.24000
H 	H 	0.19117 0.46593 0.94383 0.10100
C 	C 	0.20527 0.54323 0.90813 -0.61100
H 	H 	0.21087 0.56863 0.86083 0.18900
H 	H 	0.22967 0.54953 0.96193 0.18700
H 	H 	0.18037 0.53403 0.96223 0.19500
N 	N 	0.21569 0.37931 0.44283 -0.29000
N 	N 	0.20775 0.31481 0.25763 -0.29100
C 	C 	0.31997 0.38570 0.37563 0.01100
C 	C 	0.25026 0.33334 0.28413 0.06800
C 	C 	0.28120 0.42467 0.52043 -0.08200
H 	H 	0.31057 0.43783 0.53693 0.05900
C 	C 	0.19707 0.28287 0.16943 0.05900
C 	C 	0.27319 0.36800 0.36593 -0.11100
C 	C 	0.21278 0.40821 0.52213 0.05500
C 	C 	0.25784 0.38904 0.43743 0.06700
C 	C 	0.25454 0.43641 0.57143 -0.07400
H 	H 	0.26197 0.45903 0.62923 0.04900
C 	C 	0.40805 0.42571 0.40163 0.20200
C 	C 	0.39013 0.43177 0.29443 -0.17000
H 	H 	0.40767 0.45013 0.22893 0.05400
C 	C 	0.26644 0.31093 0.21343 -0.08100
H 	H 	0.29467 0.31663 0.21403 0.05400
C 	C 	0.33730 0.37893 0.48563 -0.01100
H 	H 	0.31957 0.36113 0.55183 0.03500
C 	C 	0.23428 0.28021 0.14573 -0.07300
H 	H 	0.23607 0.26033 0.09173 0.04700
C 	C 	0.15716 0.25704 0.11773 -0.10800
C 	C 	0.15155 0.22307 0.02493 -0.01800
C 	C 	0.34659 0.41131 0.28063 -0.00900
H 	H 	0.33487 0.41503 0.20413 0.01900
C 	C 	0.38156 0.39892 0.49703 -0.17000
H 	H 	0.39347 0.39403 0.57113 0.08200
C 	C 	0.13617 0.15283 0.97903 -0.12400
H 	H 	0.13017 0.12603 0.00983 0.04100
C 	C 	0.45527 0.44883 0.42063 -0.53700
H 	H 	0.46887 0.47003 0.35313 0.15300
H 	H 	0.46217 0.46273 0.50423 0.16500
H 	H 	0.46547 0.42873 0.41673 0.17600
C 	C 	0.13587 0.15833 0.85233 0.20900
C 	C 	0.15027 0.22843 0.89773 0.03900
H 	H 	0.15477 0.25463 0.86583 0.00800
C 	C 	0.14528 0.18523 0.06963 -0.04100
H 	H 	0.14687 0.18073 0.15833 0.02900
C 	C 	0.14267 0.19603 0.81203 -0.20200
H 	H 	0.14217 0.20073 0.72283 0.08300
C 	C 	0.12807 0.12343 0.75853 -0.54400
H 	H 	0.12247 0.09803 0.80583 0.17100
H 	H 	0.10367 0.11713 0.70473 0.16400
H 	H 	0.15297 0.13263 0.70443 0.17200
Sn	Sn	0.16667 0.33333 0.33333 1.24700
N 	N 	0.78431 0.62069 0.55717 -0.28900
N 	N 	0.79225 0.68519 0.74237 -0.28900
C 	C 	0.68003 0.61430 0.62437 0.01300
C 	C 	0.74974 0.66666 0.71587 0.07200
C 	C 	0.71880 0.57533 0.47957 -0.08200
H 	H 	0.68943 0.56217 0.46307 0.05900
C 	C 	0.80293 0.71713 0.83057 0.06400
C 	C 	0.72681 0.63200 0.63407 -0.11000
C 	C 	0.78722 0.59179 0.47787 0.05700
C 	C 	0.74216 0.61096 0.56257 0.06900
C 	C 	0.74546 0.56359 0.42857 -0.07500
H 	H 	0.73803 0.54097 0.37077 0.04800
C 	C 	0.59195 0.57429 0.59837 0.20300
C 	C 	0.60987 0.56823 0.70557 -0.16900
H 	H 	0.59233 0.54987 0.77107 0.06300
C 	C 	0.73356 0.68907 0.78657 -0.07700
H 	H 	0.70533 0.68337 0.78597 0.05800
C 	C 	0.66270 0.62107 0.51437 -0.01100
H 	H 	0.68043 0.63887 0.44817 0.03500
C 	C 	0.76572 0.71979 0.85427 -0.06900
H 	H 	0.76393 0.73967 0.90827 0.05700
C 	C 	0.84284 0.74296 0.88227 -0.09500
C 	C 	0.84845 0.77693 0.97507 -0.02600
C 	C 	0.65341 0.58869 0.71937 -0.00800
H 	H 	0.66513 0.58497 0.79587 0.02900
C 	C 	0.61844 0.60108 0.50297 -0.17000
H 	H 	0.60653 0.60597 0.42887 0.08100
C 	C 	0.86383 0.84717 0.02097 -0.33000
H 	H 	0.86983 0.87397 0.99017 0.14100
C 	C 	0.54473 0.55117 0.57937 -0.53700
H 	H 	0.53113 0.52997 0.64687 0.15600
H 	H 	0.53783 0.53727 0.49577 0.16500
H 	H 	0.53453 0.57127 0.58327 0.17600
C 	C 	0.86413 0.84167 0.14767 0.31200
C 	C 	0.84973 0.77157 0.10227 0.03300
H 	H 	0.84523 0.74537 0.13417 0.00200
C 	C 	0.85472 0.81477 0.93037 0.09300
H 	H 	0.85313 0.81927 0.84167 -0.01200
C 	C 	0.85733 0.80397 0.18797 -0.25900
H 	H 	0.85783 0.79927 0.27717 0.10100
C 	C 	0.87193 0.87657 0.24147 -0.63900
H 	H 	0.87753 0.90197 0.19417 0.19200
H 	H 	0.89633 0.88287 0.29527 0.19000
H 	H 	0.84703 0.86737 0.29557 0.19800
N 	N 	0.88235 0.71265 0.77617 -0.28900
N 	N 	0.87441 0.64815 0.59097 -0.29000
C 	C 	0.98663 0.71904 0.70897 0.03600
C 	C 	0.91692 0.66668 0.61747 0.07400
C 	C 	0.94786 0.75801 0.85377 -0.08200
H 	H 	0.97723 0.77117 0.87027 0.06500
C 	C 	0.86373 0.61621 0.50277 0.06300
C 	C 	0.93985 0.70134 0.69927 -0.11900
C 	C 	0.87944 0.74155 0.85547 0.05900
C 	C 	0.92450 0.72238 0.77077 0.07400
C 	C 	0.92120 0.76975 0.90477 -0.07000
H 	H 	0.92863 0.79237 0.96257 0.05500
C 	C 	0.07471 0.75905 0.73497 0.19100
C 	C 	0.05679 0.76511 0.62777 -0.15500
H 	H 	0.07433 0.78347 0.56227 0.05300
C 	C 	0.93310 0.64427 0.54677 -0.08100
H 	H 	0.96133 0.64997 0.54737 0.05900
C 	C 	0.00396 0.71227 0.81897 -0.03900
H 	H 	0.98623 0.69447 0.88517 0.05300
C 	C 	0.90094 0.61355 0.47907 -0.07000
H 	H 	0.90273 0.59367 0.42507 0.05200
C 	C 	0.82382 0.59038 0.45107 -0.10300
C 	C 	0.81821 0.55641 0.35827 -0.01600
C 	C 	0.01325 0.74465 0.61397 -0.03000
H 	H 	0.00153 0.74837 0.53747 0.03000
C 	C 	0.04822 0.73226 0.83037 -0.15200
H 	H 	0.06013 0.72737 0.90447 0.08100
C 	C 	0.80283 0.48617 0.31237 -0.22000
H 	H 	0.79683 0.45937 0.34317 0.08900
C 	C 	0.12193 0.78217 0.75397 -0.52900
H 	H 	0.13553 0.80337 0.68647 0.15200
H 	H 	0.12883 0.79607 0.83757 0.16600
H 	H 	0.13213 0.76207 0.75007 0.17500
C 	C 	0.80253 0.49167 0.18567 0.24900
C 	C 	0.81693 0.56177 0.23107 0.02800
H 	H 	0.82143 0.58797 0.19917 0.00600
C 	C 	0.81194 0.51857 0.40297 0.02000
H 	H 	0.81353 0.51407 0.49167 0.01300
C 	C 	0.80933 0.52937 0.14537 -0.22200
H 	H 	0.80883 0.53407 0.05617 0.08400
C 	C 	0.79473 0.45677 0.09187 -0.57500
H 	H 	0.78913 0.43137 0.13917 0.17500
H 	H 	0.77033 0.45047 0.03807 0.16700
H 	H 	0.81963 0.46597 0.03777 0.17600
Sn	Sn	0.83333 0.66667 0.66667 1.25000
