data_crystal

_cell_length_a 29.88100
_cell_length_b 29.88100
_cell_length_c 29.88100
_cell_angle_alpha 90.00000
_cell_angle_beta  90.00000
_cell_angle_gamma 90.00000

_symmetry_space_group_name_	'P 1'
_symmetry_space_group_name_H-M	'P 1'

loop_
_symmetry_equiv_pos_as_xyz
  x,y,z

loop_
_atom_site_label
_atom_site_type_symbol
_atom_site_fract_x
_atom_site_fract_y
_atom_site_fract_z
_atom_site_charge
Er	Er	0.24316 0.18123 0.14139 1.68100
O 	O 	0.31556 0.20182 0.15652 -0.50700
O 	O 	0.31787 0.24746 0.21811 -0.51200
O 	O 	0.64100 0.25869 0.89420 -0.53700
O 	O 	0.69875 0.29889 0.91967 -0.51600
O 	O 	0.24750 0.17303 0.22105 -0.80200
H 	H 	0.27370 0.16200 0.22980 0.26500
N 	N 	0.60501 0.24403 0.18525 -0.15400
C 	C 	0.33628 0.22670 0.18531 0.42100
C 	C 	0.38596 0.23000 0.17903 -0.17000
C 	C 	0.40616 0.21330 0.14008 0.07900
H 	H 	0.38890 0.19860 0.11880 0.00200
C 	C 	0.41357 0.24970 0.21113 0.08000
H 	H 	0.40070 0.25930 0.23780 0.00100
C 	C 	0.45209 0.21850 0.13311 -0.14900
H 	H 	0.46470 0.20780 0.10670 0.07800
C 	C 	0.45908 0.25560 0.20522 -0.14800
H 	H 	0.47620 0.26970 0.22700 0.07500
C 	C 	0.47953 0.23940 0.16457 0.08500
C 	C 	0.56083 0.24130 0.19107 0.02900
H 	H 	0.55030 0.23660 0.22000 0.01000
C 	C 	0.52887 0.24481 0.15652 -0.04300
C 	C 	0.54512 0.25245 0.11384 -0.03200
H 	H 	0.52520 0.25540 0.09010 0.03700
C 	C 	0.59190 0.25587 0.10589 -0.04900
C 	C 	0.61960 0.25050 0.14276 0.02600
H 	H 	0.65030 0.25140 0.13800 0.00900
C 	C 	0.61008 0.26080 0.05978 0.10200
C 	C 	0.58807 0.24350 0.02251 -0.16800
H 	H 	0.56170 0.22740 0.02650 0.08300
C 	C 	0.65052 0.28310 0.05184 -0.16800
H 	H 	0.66650 0.29430 0.07610 0.08300
C 	C 	0.60462 0.24980 0.97960 0.09600
H 	H 	0.58870 0.23880 0.95520 -0.00600
C 	C 	0.66757 0.28910 0.00923 0.10200
H 	H 	0.69440 0.30440 0.00530 -0.00900
C 	C 	0.64509 0.27250 0.97256 -0.19200
C 	C 	0.66282 0.27707 0.92477 0.47000
Er	Er	0.25684 0.81877 0.64139 1.68000
O 	O 	0.18444 0.79818 0.65652 -0.50800
O 	O 	0.18213 0.75254 0.71811 -0.51300
O 	O 	0.85900 0.74131 0.39420 -0.53800
O 	O 	0.80125 0.70111 0.41967 -0.51700
O 	O 	0.25250 0.82697 0.72105 -0.80300
H 	H 	0.22630 0.83800 0.72980 0.26400
N 	N 	0.89499 0.75597 0.68525 -0.15500
C 	C 	0.16372 0.77330 0.68531 0.42000
C 	C 	0.11404 0.77000 0.67903 -0.17100
C 	C 	0.09384 0.78670 0.64008 0.07800
H 	H 	0.11110 0.80140 0.61880 0.00100
C 	C 	0.08643 0.75030 0.71113 0.07900
H 	H 	0.09930 0.74070 0.73780 -0.00000
C 	C 	0.04791 0.78150 0.63311 -0.15000
H 	H 	0.03530 0.79220 0.60670 0.07700
C 	C 	0.04092 0.74440 0.70522 -0.14800
H 	H 	0.02380 0.73030 0.72700 0.07400
C 	C 	0.02047 0.76060 0.66457 0.08400
C 	C 	0.93917 0.75870 0.69107 0.02800
H 	H 	0.94970 0.76340 0.72000 0.01000
C 	C 	0.97113 0.75519 0.65652 -0.04300
C 	C 	0.95488 0.74755 0.61384 -0.03200
H 	H 	0.97480 0.74460 0.59010 0.03700
C 	C 	0.90810 0.74413 0.60589 -0.04900
C 	C 	0.88040 0.74950 0.64276 0.02600
H 	H 	0.84970 0.74860 0.63800 0.00900
C 	C 	0.88992 0.73920 0.55978 0.10200
C 	C 	0.91193 0.75650 0.52251 -0.16800
H 	H 	0.93830 0.77260 0.52650 0.08300
C 	C 	0.84948 0.71690 0.55184 -0.16900
H 	H 	0.83350 0.70570 0.57610 0.08300
C 	C 	0.89538 0.75020 0.47960 0.09600
H 	H 	0.91130 0.76120 0.45520 -0.00600
C 	C 	0.83243 0.71090 0.50923 0.10200
H 	H 	0.80560 0.69560 0.50530 -0.00900
C 	C 	0.85491 0.72750 0.47256 -0.19200
C 	C 	0.83718 0.72293 0.42477 0.47000
Er	Er	0.75684 0.68123 0.35861 1.68000
O 	O 	0.68444 0.70182 0.34348 -0.50800
O 	O 	0.68213 0.74746 0.28189 -0.51300
O 	O 	0.35900 0.75869 0.60580 -0.53800
O 	O 	0.30125 0.79889 0.58033 -0.51700
O 	O 	0.75250 0.67303 0.27895 -0.80300
H 	H 	0.72630 0.66200 0.27020 0.26400
N 	N 	0.39499 0.74403 0.31475 -0.15500
C 	C 	0.66372 0.72670 0.31469 0.42000
C 	C 	0.61404 0.73000 0.32097 -0.17100
C 	C 	0.59384 0.71330 0.35992 0.07800
H 	H 	0.61110 0.69860 0.38120 0.00100
C 	C 	0.58643 0.74970 0.28887 0.07900
H 	H 	0.59930 0.75930 0.26220 -0.00000
C 	C 	0.54791 0.71850 0.36689 -0.15000
H 	H 	0.53530 0.70780 0.39330 0.07700
C 	C 	0.54092 0.75560 0.29478 -0.14900
H 	H 	0.52380 0.76970 0.27300 0.07400
C 	C 	0.52047 0.73940 0.33543 0.08400
C 	C 	0.43917 0.74130 0.30893 0.02800
H 	H 	0.44970 0.73660 0.28000 0.01000
C 	C 	0.47113 0.74481 0.34348 -0.04300
C 	C 	0.45488 0.75245 0.38616 -0.03200
H 	H 	0.47480 0.75540 0.40990 0.03700
C 	C 	0.40810 0.75587 0.39411 -0.04900
C 	C 	0.38040 0.75050 0.35724 0.02600
H 	H 	0.34970 0.75140 0.36200 0.00900
C 	C 	0.38992 0.76080 0.44022 0.10200
C 	C 	0.41193 0.74350 0.47749 -0.16800
H 	H 	0.43830 0.72740 0.47350 0.08300
C 	C 	0.34948 0.78310 0.44816 -0.16900
H 	H 	0.33350 0.79430 0.42390 0.08300
C 	C 	0.39538 0.74980 0.52040 0.09600
H 	H 	0.41130 0.73880 0.54480 -0.00600
C 	C 	0.33243 0.78910 0.49077 0.10200
H 	H 	0.30560 0.80440 0.49470 -0.00900
C 	C 	0.35491 0.77250 0.52744 -0.19200
C 	C 	0.33718 0.77707 0.57523 0.47000
Er	Er	0.74316 0.31877 0.85861 1.68000
O 	O 	0.81556 0.29818 0.84348 -0.50800
O 	O 	0.81787 0.25254 0.78189 -0.51300
O 	O 	0.14100 0.24131 0.10580 -0.53800
O 	O 	0.19875 0.20111 0.08033 -0.51700
O 	O 	0.74750 0.32697 0.77895 -0.80300
H 	H 	0.77370 0.33800 0.77020 0.26400
N 	N 	0.10501 0.25597 0.81475 -0.15500
C 	C 	0.83628 0.27330 0.81469 0.42000
C 	C 	0.88596 0.27000 0.82097 -0.17100
C 	C 	0.90616 0.28670 0.85992 0.07800
H 	H 	0.88890 0.30140 0.88120 0.00100
C 	C 	0.91357 0.25030 0.78887 0.07900
H 	H 	0.90070 0.24070 0.76220 -0.00000
C 	C 	0.95209 0.28150 0.86689 -0.15000
H 	H 	0.96470 0.29220 0.89330 0.07700
C 	C 	0.95908 0.24440 0.79478 -0.14900
H 	H 	0.97620 0.23030 0.77300 0.07400
C 	C 	0.97953 0.26060 0.83543 0.08400
C 	C 	0.06083 0.25870 0.80893 0.02800
H 	H 	0.05030 0.26340 0.78000 0.01000
C 	C 	0.02887 0.25519 0.84348 -0.04300
C 	C 	0.04512 0.24755 0.88616 -0.03200
H 	H 	0.02520 0.24460 0.90990 0.03700
C 	C 	0.09190 0.24413 0.89411 -0.04900
C 	C 	0.11960 0.24950 0.85724 0.02600
H 	H 	0.15030 0.24860 0.86200 0.00900
C 	C 	0.11008 0.23920 0.94022 0.10200
C 	C 	0.08807 0.25650 0.97749 -0.16800
H 	H 	0.06170 0.27260 0.97350 0.08300
C 	C 	0.15052 0.21690 0.94816 -0.16900
H 	H 	0.16650 0.20570 0.92390 0.08300
C 	C 	0.10462 0.25020 0.02040 0.09600
H 	H 	0.08870 0.26120 0.04480 -0.00600
C 	C 	0.16757 0.21090 0.99077 0.10200
H 	H 	0.19440 0.19560 0.99470 -0.00900
C 	C 	0.14509 0.22750 0.02744 -0.19200
C 	C 	0.16282 0.22293 0.07523 0.47000
Er	Er	0.14139 0.24316 0.18123 1.68000
O 	O 	0.15652 0.31556 0.20182 -0.50800
O 	O 	0.21811 0.31787 0.24746 -0.51300
O 	O 	0.89420 0.64100 0.25869 -0.53800
O 	O 	0.91967 0.69875 0.29889 -0.51700
O 	O 	0.22105 0.24750 0.17303 -0.80300
H 	H 	0.22980 0.27370 0.16200 0.26400
N 	N 	0.18525 0.60501 0.24403 -0.15500
C 	C 	0.18531 0.33628 0.22670 0.42000
C 	C 	0.17903 0.38596 0.23000 -0.17100
C 	C 	0.14008 0.40616 0.21330 0.07800
H 	H 	0.11880 0.38890 0.19860 0.00100
C 	C 	0.21113 0.41357 0.24970 0.07900
H 	H 	0.23780 0.40070 0.25930 -0.00000
C 	C 	0.13311 0.45209 0.21850 -0.15000
H 	H 	0.10670 0.46470 0.20780 0.07700
C 	C 	0.20522 0.45908 0.25560 -0.14900
H 	H 	0.22700 0.47620 0.26970 0.07400
C 	C 	0.16457 0.47953 0.23940 0.08400
C 	C 	0.19107 0.56083 0.24130 0.02800
H 	H 	0.22000 0.55030 0.23660 0.01000
C 	C 	0.15652 0.52887 0.24481 -0.04300
C 	C 	0.11384 0.54512 0.25245 -0.03200
H 	H 	0.09010 0.52520 0.25540 0.03700
C 	C 	0.10589 0.59190 0.25587 -0.04900
C 	C 	0.14276 0.61960 0.25050 0.02600
H 	H 	0.13800 0.65030 0.25140 0.00900
C 	C 	0.05978 0.61008 0.26080 0.10200
C 	C 	0.02251 0.58807 0.24350 -0.16800
H 	H 	0.02650 0.56170 0.22740 0.08300
C 	C 	0.05184 0.65052 0.28310 -0.16800
H 	H 	0.07610 0.66650 0.29430 0.08300
C 	C 	0.97960 0.60462 0.24980 0.09600
H 	H 	0.95520 0.58870 0.23880 -0.00600
C 	C 	0.00923 0.66757 0.28910 0.10200
H 	H 	0.00530 0.69440 0.30440 -0.00900
C 	C 	0.97256 0.64509 0.27250 -0.19200
C 	C 	0.92477 0.66282 0.27707 0.47000
Er	Er	0.64139 0.25684 0.81877 1.68000
O 	O 	0.65652 0.18444 0.79818 -0.50800
O 	O 	0.71811 0.18213 0.75254 -0.51300
O 	O 	0.39420 0.85900 0.74131 -0.53800
O 	O 	0.41967 0.80125 0.70111 -0.51700
O 	O 	0.72105 0.25250 0.82697 -0.80300
H 	H 	0.72980 0.22630 0.83800 0.26400
N 	N 	0.68525 0.89499 0.75597 -0.15500
C 	C 	0.68531 0.16372 0.77330 0.42000
C 	C 	0.67903 0.11404 0.77000 -0.17100
C 	C 	0.64008 0.09384 0.78670 0.07800
H 	H 	0.61880 0.11110 0.80140 0.00100
C 	C 	0.71113 0.08643 0.75030 0.07900
H 	H 	0.73780 0.09930 0.74070 -0.00000
C 	C 	0.63311 0.04791 0.78150 -0.15000
H 	H 	0.60670 0.03530 0.79220 0.07700
C 	C 	0.70522 0.04092 0.74440 -0.14800
H 	H 	0.72700 0.02380 0.73030 0.07400
C 	C 	0.66457 0.02047 0.76060 0.08400
C 	C 	0.69107 0.93917 0.75870 0.02800
H 	H 	0.72000 0.94970 0.76340 0.01000
C 	C 	0.65652 0.97113 0.75519 -0.04300
C 	C 	0.61384 0.95488 0.74755 -0.03200
H 	H 	0.59010 0.97480 0.74460 0.03700
C 	C 	0.60589 0.90810 0.74413 -0.04900
C 	C 	0.64276 0.88040 0.74950 0.02600
H 	H 	0.63800 0.84970 0.74860 0.00900
C 	C 	0.55978 0.88992 0.73920 0.10200
C 	C 	0.52251 0.91193 0.75650 -0.16800
H 	H 	0.52650 0.93830 0.77260 0.08300
C 	C 	0.55184 0.84948 0.71690 -0.16900
H 	H 	0.57610 0.83350 0.70570 0.08300
C 	C 	0.47960 0.89538 0.75020 0.09600
H 	H 	0.45520 0.91130 0.76120 -0.00600
C 	C 	0.50923 0.83243 0.71090 0.10200
H 	H 	0.50530 0.80560 0.69560 -0.00900
C 	C 	0.47256 0.85491 0.72750 -0.19200
C 	C 	0.42477 0.83718 0.72293 0.47000
Er	Er	0.35861 0.75684 0.68123 1.68000
O 	O 	0.34348 0.68444 0.70182 -0.50800
O 	O 	0.28189 0.68213 0.74746 -0.51300
O 	O 	0.60580 0.35900 0.75869 -0.53800
O 	O 	0.58033 0.30125 0.79889 -0.51700
O 	O 	0.27895 0.75250 0.67303 -0.80300
H 	H 	0.27020 0.72630 0.66200 0.26400
N 	N 	0.31475 0.39499 0.74403 -0.15500
C 	C 	0.31469 0.66372 0.72670 0.42000
C 	C 	0.32097 0.61404 0.73000 -0.17100
C 	C 	0.35992 0.59384 0.71330 0.07800
H 	H 	0.38120 0.61110 0.69860 0.00100
C 	C 	0.28887 0.58643 0.74970 0.07900
H 	H 	0.26220 0.59930 0.75930 -0.00000
C 	C 	0.36689 0.54791 0.71850 -0.15000
H 	H 	0.39330 0.53530 0.70780 0.07700
C 	C 	0.29478 0.54092 0.75560 -0.14900
H 	H 	0.27300 0.52380 0.76970 0.07400
C 	C 	0.33543 0.52047 0.73940 0.08400
C 	C 	0.30893 0.43917 0.74130 0.02800
H 	H 	0.28000 0.44970 0.73660 0.01000
C 	C 	0.34348 0.47113 0.74481 -0.04300
C 	C 	0.38616 0.45488 0.75245 -0.03200
H 	H 	0.40990 0.47480 0.75540 0.03700
C 	C 	0.39411 0.40810 0.75587 -0.04900
C 	C 	0.35724 0.38040 0.75050 0.02600
H 	H 	0.36200 0.34970 0.75140 0.00900
C 	C 	0.44022 0.38992 0.76080 0.10200
C 	C 	0.47749 0.41193 0.74350 -0.16800
H 	H 	0.47350 0.43830 0.72740 0.08300
C 	C 	0.44816 0.34948 0.78310 -0.16900
H 	H 	0.42390 0.33350 0.79430 0.08300
C 	C 	0.52040 0.39538 0.74980 0.09600
H 	H 	0.54480 0.41130 0.73880 -0.00600
C 	C 	0.49077 0.33243 0.78910 0.10200
H 	H 	0.49470 0.30560 0.80440 -0.00900
C 	C 	0.52744 0.35491 0.77250 -0.19200
C 	C 	0.57523 0.33718 0.77707 0.47000
Er	Er	0.85861 0.74316 0.31877 1.68000
O 	O 	0.84348 0.81556 0.29818 -0.50800
O 	O 	0.78189 0.81787 0.25254 -0.51300
O 	O 	0.10580 0.14100 0.24131 -0.53800
O 	O 	0.08033 0.19875 0.20111 -0.51700
O 	O 	0.77895 0.74750 0.32697 -0.80300
H 	H 	0.77020 0.77370 0.33800 0.26400
N 	N 	0.81475 0.10501 0.25597 -0.15500
C 	C 	0.81469 0.83628 0.27330 0.42000
C 	C 	0.82097 0.88596 0.27000 -0.17100
C 	C 	0.85992 0.90616 0.28670 0.07800
H 	H 	0.88120 0.88890 0.30140 0.00100
C 	C 	0.78887 0.91357 0.25030 0.07900
H 	H 	0.76220 0.90070 0.24070 -0.00000
C 	C 	0.86689 0.95209 0.28150 -0.15000
H 	H 	0.89330 0.96470 0.29220 0.07700
C 	C 	0.79478 0.95908 0.24440 -0.14900
H 	H 	0.77300 0.97620 0.23030 0.07400
C 	C 	0.83543 0.97953 0.26060 0.08400
C 	C 	0.80893 0.06083 0.25870 0.02800
H 	H 	0.78000 0.05030 0.26340 0.01000
C 	C 	0.84348 0.02887 0.25519 -0.04300
C 	C 	0.88616 0.04512 0.24755 -0.03200
H 	H 	0.90990 0.02520 0.24460 0.03700
C 	C 	0.89411 0.09190 0.24413 -0.04900
C 	C 	0.85724 0.11960 0.24950 0.02600
H 	H 	0.86200 0.15030 0.24860 0.00900
C 	C 	0.94022 0.11008 0.23920 0.10200
C 	C 	0.97749 0.08807 0.25650 -0.16800
H 	H 	0.97350 0.06170 0.27260 0.08300
C 	C 	0.94816 0.15052 0.21690 -0.16900
H 	H 	0.92390 0.16650 0.20570 0.08300
C 	C 	0.02040 0.10462 0.25020 0.09600
H 	H 	0.04480 0.08870 0.26120 -0.00600
C 	C 	0.99077 0.16757 0.21090 0.10200
H 	H 	0.99470 0.19440 0.19560 -0.00900
C 	C 	0.02744 0.14509 0.22750 -0.19200
C 	C 	0.07523 0.16282 0.22293 0.47000
Er	Er	0.18123 0.14139 0.24316 1.68000
O 	O 	0.20182 0.15652 0.31556 -0.50800
O 	O 	0.24746 0.21811 0.31787 -0.51300
O 	O 	0.25869 0.89420 0.64100 -0.53800
O 	O 	0.29889 0.91967 0.69875 -0.51700
O 	O 	0.17303 0.22105 0.24750 -0.80300
H 	H 	0.16200 0.22980 0.27370 0.26400
N 	N 	0.24403 0.18525 0.60501 -0.15500
C 	C 	0.22670 0.18531 0.33628 0.42000
C 	C 	0.23000 0.17903 0.38596 -0.17100
C 	C 	0.21330 0.14008 0.40616 0.07800
H 	H 	0.19860 0.11880 0.38890 0.00100
C 	C 	0.24970 0.21113 0.41357 0.07900
H 	H 	0.25930 0.23780 0.40070 -0.00000
C 	C 	0.21850 0.13311 0.45209 -0.15000
H 	H 	0.20780 0.10670 0.46470 0.07700
C 	C 	0.25560 0.20522 0.45908 -0.14900
H 	H 	0.26970 0.22700 0.47620 0.07400
C 	C 	0.23940 0.16457 0.47953 0.08400
C 	C 	0.24130 0.19107 0.56083 0.02800
H 	H 	0.23660 0.22000 0.55030 0.01000
C 	C 	0.24481 0.15652 0.52887 -0.04300
C 	C 	0.25245 0.11384 0.54512 -0.03200
H 	H 	0.25540 0.09010 0.52520 0.03700
C 	C 	0.25587 0.10589 0.59190 -0.04900
C 	C 	0.25050 0.14276 0.61960 0.02600
H 	H 	0.25140 0.13800 0.65030 0.00900
C 	C 	0.26080 0.05978 0.61008 0.10200
C 	C 	0.24350 0.02251 0.58807 -0.16800
H 	H 	0.22740 0.02650 0.56170 0.08300
C 	C 	0.28310 0.05184 0.65052 -0.16800
H 	H 	0.29430 0.07610 0.66650 0.08300
C 	C 	0.24980 0.97960 0.60462 0.09600
H 	H 	0.23880 0.95520 0.58870 -0.00600
C 	C 	0.28910 0.00923 0.66757 0.10200
H 	H 	0.30440 0.00530 0.69440 -0.00900
C 	C 	0.27250 0.97256 0.64509 -0.19200
C 	C 	0.27707 0.92477 0.66282 0.47000
Er	Er	0.81877 0.64139 0.25684 1.68000
O 	O 	0.79818 0.65652 0.18444 -0.50800
O 	O 	0.75254 0.71811 0.18213 -0.51300
O 	O 	0.74131 0.39420 0.85900 -0.53800
O 	O 	0.70111 0.41967 0.80125 -0.51700
O 	O 	0.82697 0.72105 0.25250 -0.80300
H 	H 	0.83800 0.72980 0.22630 0.26400
N 	N 	0.75597 0.68525 0.89499 -0.15500
C 	C 	0.77330 0.68531 0.16372 0.42000
C 	C 	0.77000 0.67903 0.11404 -0.17100
C 	C 	0.78670 0.64008 0.09384 0.07800
H 	H 	0.80140 0.61880 0.11110 0.00100
C 	C 	0.75030 0.71113 0.08643 0.07900
H 	H 	0.74070 0.73780 0.09930 -0.00000
C 	C 	0.78150 0.63311 0.04791 -0.15000
H 	H 	0.79220 0.60670 0.03530 0.07700
C 	C 	0.74440 0.70522 0.04092 -0.14800
H 	H 	0.73030 0.72700 0.02380 0.07400
C 	C 	0.76060 0.66457 0.02047 0.08400
C 	C 	0.75870 0.69107 0.93917 0.02800
H 	H 	0.76340 0.72000 0.94970 0.01000
C 	C 	0.75519 0.65652 0.97113 -0.04300
C 	C 	0.74755 0.61384 0.95488 -0.03200
H 	H 	0.74460 0.59010 0.97480 0.03700
C 	C 	0.74413 0.60589 0.90810 -0.04900
C 	C 	0.74950 0.64276 0.88040 0.02600
H 	H 	0.74860 0.63800 0.84970 0.00900
C 	C 	0.73920 0.55978 0.88992 0.10200
C 	C 	0.75650 0.52251 0.91193 -0.16800
H 	H 	0.77260 0.52650 0.93830 0.08300
C 	C 	0.71690 0.55184 0.84948 -0.16900
H 	H 	0.70570 0.57610 0.83350 0.08300
C 	C 	0.75020 0.47960 0.89538 0.09600
H 	H 	0.76120 0.45520 0.91130 -0.00600
C 	C 	0.71090 0.50923 0.83243 0.10200
H 	H 	0.69560 0.50530 0.80560 -0.00900
C 	C 	0.72750 0.47256 0.85491 -0.19200
C 	C 	0.72293 0.42477 0.83718 0.47000
Er	Er	0.68123 0.35861 0.75684 1.68000
O 	O 	0.70182 0.34348 0.68444 -0.50800
O 	O 	0.74746 0.28189 0.68213 -0.51300
O 	O 	0.75869 0.60580 0.35900 -0.53800
O 	O 	0.79889 0.58033 0.30125 -0.51700
O 	O 	0.67303 0.27895 0.75250 -0.80300
H 	H 	0.66200 0.27020 0.72630 0.26400
N 	N 	0.74403 0.31475 0.39499 -0.15500
C 	C 	0.72670 0.31469 0.66372 0.42000
C 	C 	0.73000 0.32097 0.61404 -0.17100
C 	C 	0.71330 0.35992 0.59384 0.07800
H 	H 	0.69860 0.38120 0.61110 0.00100
C 	C 	0.74970 0.28887 0.58643 0.07900
H 	H 	0.75930 0.26220 0.59930 -0.00000
C 	C 	0.71850 0.36689 0.54791 -0.15000
H 	H 	0.70780 0.39330 0.53530 0.07700
C 	C 	0.75560 0.29478 0.54092 -0.14900
H 	H 	0.76970 0.27300 0.52380 0.07400
C 	C 	0.73940 0.33543 0.52047 0.08400
C 	C 	0.74130 0.30893 0.43917 0.02800
H 	H 	0.73660 0.28000 0.44970 0.01000
C 	C 	0.74481 0.34348 0.47113 -0.04300
C 	C 	0.75245 0.38616 0.45488 -0.03200
H 	H 	0.75540 0.40990 0.47480 0.03700
C 	C 	0.75587 0.39411 0.40810 -0.04900
C 	C 	0.75050 0.35724 0.38040 0.02600
H 	H 	0.75140 0.36200 0.34970 0.00900
C 	C 	0.76080 0.44022 0.38992 0.10200
C 	C 	0.74350 0.47749 0.41193 -0.16800
H 	H 	0.72740 0.47350 0.43830 0.08300
C 	C 	0.78310 0.44816 0.34948 -0.16900
H 	H 	0.79430 0.42390 0.33350 0.08300
C 	C 	0.74980 0.52040 0.39538 0.09600
H 	H 	0.73880 0.54480 0.41130 -0.00600
C 	C 	0.78910 0.49077 0.33243 0.10200
H 	H 	0.80440 0.49470 0.30560 -0.00900
C 	C 	0.77250 0.52744 0.35491 -0.19200
C 	C 	0.77707 0.57523 0.33718 0.47000
Er	Er	0.31877 0.85861 0.74316 1.68000
O 	O 	0.29818 0.84348 0.81556 -0.50800
O 	O 	0.25254 0.78189 0.81787 -0.51300
O 	O 	0.24131 0.10580 0.14100 -0.53800
O 	O 	0.20111 0.08033 0.19875 -0.51700
O 	O 	0.32697 0.77895 0.74750 -0.80300
H 	H 	0.33800 0.77020 0.77370 0.26400
N 	N 	0.25597 0.81475 0.10501 -0.15500
C 	C 	0.27330 0.81469 0.83628 0.42000
C 	C 	0.27000 0.82097 0.88596 -0.17100
C 	C 	0.28670 0.85992 0.90616 0.07800
H 	H 	0.30140 0.88120 0.88890 0.00100
C 	C 	0.25030 0.78887 0.91357 0.07900
H 	H 	0.24070 0.76220 0.90070 -0.00000
C 	C 	0.28150 0.86689 0.95209 -0.15000
H 	H 	0.29220 0.89330 0.96470 0.07700
C 	C 	0.24440 0.79478 0.95908 -0.14900
H 	H 	0.23030 0.77300 0.97620 0.07400
C 	C 	0.26060 0.83543 0.97953 0.08400
C 	C 	0.25870 0.80893 0.06083 0.02800
H 	H 	0.26340 0.78000 0.05030 0.01000
C 	C 	0.25519 0.84348 0.02887 -0.04300
C 	C 	0.24755 0.88616 0.04512 -0.03200
H 	H 	0.24460 0.90990 0.02520 0.03700
C 	C 	0.24413 0.89411 0.09190 -0.04900
C 	C 	0.24950 0.85724 0.11960 0.02600
H 	H 	0.24860 0.86200 0.15030 0.00900
C 	C 	0.23920 0.94022 0.11008 0.10200
C 	C 	0.25650 0.97749 0.08807 -0.16800
H 	H 	0.27260 0.97350 0.06170 0.08300
C 	C 	0.21690 0.94816 0.15052 -0.16900
H 	H 	0.20570 0.92390 0.16650 0.08300
C 	C 	0.25020 0.02040 0.10462 0.09600
H 	H 	0.26120 0.04480 0.08870 -0.00600
C 	C 	0.21090 0.99077 0.16757 0.10200
H 	H 	0.19560 0.99470 0.19440 -0.00900
C 	C 	0.22750 0.02744 0.14509 -0.19200
C 	C 	0.22293 0.07523 0.16282 0.47000
Er	Er	0.24763 0.24763 0.24763 1.63600
O 	O 	0.17074 0.17074 0.17074 -0.82700
H 	H 	0.15429 0.15429 0.15429 0.29400
Er	Er	0.25237 0.75237 0.74763 1.63600
O 	O 	0.32926 0.82926 0.67074 -0.82700
H 	H 	0.34571 0.84571 0.65429 0.29400
Er	Er	0.75237 0.74763 0.25237 1.63600
O 	O 	0.82926 0.67074 0.32926 -0.82700
H 	H 	0.84571 0.65429 0.34571 0.29400
Er	Er	0.74763 0.25237 0.75237 1.63600
O 	O 	0.67074 0.32926 0.82926 -0.82700
H 	H 	0.65429 0.34571 0.84571 0.29400
Er	Er	0.75684 0.81877 0.85861 1.68000
O 	O 	0.68444 0.79818 0.84348 -0.50800
O 	O 	0.68213 0.75254 0.78189 -0.51300
O 	O 	0.35900 0.74131 0.10580 -0.53800
O 	O 	0.30125 0.70111 0.08033 -0.51700
O 	O 	0.75250 0.82697 0.77895 -0.80300
H 	H 	0.72630 0.83800 0.77020 0.26400
N 	N 	0.39499 0.75597 0.81475 -0.15500
C 	C 	0.66372 0.77330 0.81469 0.42000
C 	C 	0.61404 0.77000 0.82097 -0.17100
C 	C 	0.59384 0.78670 0.85992 0.07800
H 	H 	0.61110 0.80140 0.88120 0.00100
C 	C 	0.58643 0.75030 0.78887 0.07900
H 	H 	0.59930 0.74070 0.76220 -0.00000
C 	C 	0.54791 0.78150 0.86689 -0.15000
H 	H 	0.53530 0.79220 0.89330 0.07700
C 	C 	0.54092 0.74440 0.79478 -0.14900
H 	H 	0.52380 0.73030 0.77300 0.07400
C 	C 	0.52047 0.76060 0.83543 0.08400
C 	C 	0.43917 0.75870 0.80893 0.02800
H 	H 	0.44970 0.76340 0.78000 0.01000
C 	C 	0.47113 0.75519 0.84348 -0.04300
C 	C 	0.45488 0.74755 0.88616 -0.03200
H 	H 	0.47480 0.74460 0.90990 0.03700
C 	C 	0.40810 0.74413 0.89411 -0.04900
C 	C 	0.38040 0.74950 0.85724 0.02600
H 	H 	0.34970 0.74860 0.86200 0.00900
C 	C 	0.38992 0.73920 0.94022 0.10200
C 	C 	0.41193 0.75650 0.97749 -0.16800
H 	H 	0.43830 0.77260 0.97350 0.08300
C 	C 	0.34948 0.71690 0.94816 -0.16800
H 	H 	0.33350 0.70570 0.92390 0.08300
C 	C 	0.39538 0.75020 0.02040 0.09600
H 	H 	0.41130 0.76120 0.04480 -0.00600
C 	C 	0.33243 0.71090 0.99077 0.10200
H 	H 	0.30560 0.69560 0.99470 -0.00900
C 	C 	0.35491 0.72750 0.02744 -0.19200
C 	C 	0.33718 0.72293 0.07523 0.47000
Er	Er	0.74316 0.18123 0.35861 1.68000
O 	O 	0.81556 0.20182 0.34348 -0.50800
O 	O 	0.81787 0.24746 0.28189 -0.51300
O 	O 	0.14100 0.25869 0.60580 -0.53800
O 	O 	0.19875 0.29889 0.58033 -0.51700
O 	O 	0.74750 0.17303 0.27895 -0.80300
H 	H 	0.77370 0.16200 0.27020 0.26400
N 	N 	0.10501 0.24403 0.31475 -0.15500
C 	C 	0.83628 0.22670 0.31469 0.42000
C 	C 	0.88596 0.23000 0.32097 -0.17100
C 	C 	0.90616 0.21330 0.35992 0.07800
H 	H 	0.88890 0.19860 0.38120 0.00100
C 	C 	0.91357 0.24970 0.28887 0.07900
H 	H 	0.90070 0.25930 0.26220 -0.00000
C 	C 	0.95209 0.21850 0.36689 -0.15000
H 	H 	0.96470 0.20780 0.39330 0.07700
C 	C 	0.95908 0.25560 0.29478 -0.14800
H 	H 	0.97620 0.26970 0.27300 0.07400
C 	C 	0.97953 0.23940 0.33543 0.08400
C 	C 	0.06083 0.24130 0.30893 0.02800
H 	H 	0.05030 0.23660 0.28000 0.01000
C 	C 	0.02887 0.24481 0.34348 -0.04300
C 	C 	0.04512 0.25245 0.38616 -0.03200
H 	H 	0.02520 0.25540 0.40990 0.03700
C 	C 	0.09190 0.25587 0.39411 -0.04900
C 	C 	0.11960 0.25050 0.35724 0.02600
H 	H 	0.15030 0.25140 0.36200 0.00900
C 	C 	0.11008 0.26080 0.44022 0.10200
C 	C 	0.08807 0.24350 0.47749 -0.16800
H 	H 	0.06170 0.22740 0.47350 0.08300
C 	C 	0.15052 0.28310 0.44816 -0.16900
H 	H 	0.16650 0.29430 0.42390 0.08300
C 	C 	0.10462 0.24980 0.52040 0.09600
H 	H 	0.08870 0.23880 0.54480 -0.00600
C 	C 	0.16757 0.28910 0.49077 0.10200
H 	H 	0.19440 0.30440 0.49470 -0.00900
C 	C 	0.14509 0.27250 0.52744 -0.19200
C 	C 	0.16282 0.27707 0.57523 0.47000
Er	Er	0.24316 0.31877 0.64139 1.68000
O 	O 	0.31556 0.29818 0.65652 -0.50800
O 	O 	0.31787 0.25254 0.71811 -0.51300
O 	O 	0.64100 0.24131 0.39420 -0.53800
O 	O 	0.69875 0.20111 0.41967 -0.51700
O 	O 	0.24750 0.32697 0.72105 -0.80300
H 	H 	0.27370 0.33800 0.72980 0.26400
N 	N 	0.60501 0.25597 0.68525 -0.15500
C 	C 	0.33628 0.27330 0.68531 0.42000
C 	C 	0.38596 0.27000 0.67903 -0.17100
C 	C 	0.40616 0.28670 0.64008 0.07800
H 	H 	0.38890 0.30140 0.61880 0.00100
C 	C 	0.41357 0.25030 0.71113 0.07900
H 	H 	0.40070 0.24070 0.73780 -0.00000
C 	C 	0.45209 0.28150 0.63311 -0.15000
H 	H 	0.46470 0.29220 0.60670 0.07700
C 	C 	0.45908 0.24440 0.70522 -0.14900
H 	H 	0.47620 0.23030 0.72700 0.07400
C 	C 	0.47953 0.26060 0.66457 0.08400
C 	C 	0.56083 0.25870 0.69107 0.02800
H 	H 	0.55030 0.26340 0.72000 0.01000
C 	C 	0.52887 0.25519 0.65652 -0.04300
C 	C 	0.54512 0.24755 0.61384 -0.03200
H 	H 	0.52520 0.24460 0.59010 0.03700
C 	C 	0.59190 0.24413 0.60589 -0.04900
C 	C 	0.61960 0.24950 0.64276 0.02600
H 	H 	0.65030 0.24860 0.63800 0.00900
C 	C 	0.61008 0.23920 0.55978 0.10200
C 	C 	0.58807 0.25650 0.52251 -0.16800
H 	H 	0.56170 0.27260 0.52650 0.08300
C 	C 	0.65052 0.21690 0.55184 -0.16900
H 	H 	0.66650 0.20570 0.57610 0.08300
C 	C 	0.60462 0.25020 0.47960 0.09600
H 	H 	0.58870 0.26120 0.45520 -0.00600
C 	C 	0.66757 0.21090 0.50923 0.10200
H 	H 	0.69440 0.19560 0.50530 -0.00900
C 	C 	0.64509 0.22750 0.47256 -0.19200
C 	C 	0.66282 0.22293 0.42477 0.47000
Er	Er	0.25684 0.68123 0.14139 1.68000
O 	O 	0.18444 0.70182 0.15652 -0.50800
O 	O 	0.18213 0.74746 0.21811 -0.51300
O 	O 	0.85900 0.75869 0.89420 -0.53800
O 	O 	0.80125 0.79889 0.91967 -0.51700
O 	O 	0.25250 0.67303 0.22105 -0.80300
H 	H 	0.22630 0.66200 0.22980 0.26400
N 	N 	0.89499 0.74403 0.18525 -0.15500
C 	C 	0.16372 0.72670 0.18531 0.42000
C 	C 	0.11404 0.73000 0.17903 -0.17100
C 	C 	0.09384 0.71330 0.14008 0.07800
H 	H 	0.11110 0.69860 0.11880 0.00100
C 	C 	0.08643 0.74970 0.21113 0.07900
H 	H 	0.09930 0.75930 0.23780 -0.00000
C 	C 	0.04791 0.71850 0.13311 -0.15000
H 	H 	0.03530 0.70780 0.10670 0.07700
C 	C 	0.04092 0.75560 0.20522 -0.14900
H 	H 	0.02380 0.76970 0.22700 0.07400
C 	C 	0.02047 0.73940 0.16457 0.08400
C 	C 	0.93917 0.74130 0.19107 0.02800
H 	H 	0.94970 0.73660 0.22000 0.01000
C 	C 	0.97113 0.74481 0.15652 -0.04300
C 	C 	0.95488 0.75245 0.11384 -0.03200
H 	H 	0.97480 0.75540 0.09010 0.03700
C 	C 	0.90810 0.75587 0.10589 -0.04900
C 	C 	0.88040 0.75050 0.14276 0.02600
H 	H 	0.84970 0.75140 0.13800 0.00900
C 	C 	0.88992 0.76080 0.05978 0.10200
C 	C 	0.91193 0.74350 0.02251 -0.16800
H 	H 	0.93830 0.72740 0.02650 0.08300
C 	C 	0.84948 0.78310 0.05184 -0.16900
H 	H 	0.83350 0.79430 0.07610 0.08300
C 	C 	0.89538 0.74980 0.97960 0.09600
H 	H 	0.91130 0.73880 0.95520 -0.00600
C 	C 	0.83243 0.78910 0.00923 0.10200
H 	H 	0.80560 0.80440 0.00530 -0.00900
C 	C 	0.85491 0.77250 0.97256 -0.19200
C 	C 	0.83718 0.77707 0.92477 0.47000
Er	Er	0.85861 0.75684 0.81877 1.68000
O 	O 	0.84348 0.68444 0.79818 -0.50800
O 	O 	0.78189 0.68213 0.75254 -0.51300
O 	O 	0.10580 0.35900 0.74131 -0.53800
O 	O 	0.08033 0.30125 0.70111 -0.51700
O 	O 	0.77895 0.75250 0.82697 -0.80300
H 	H 	0.77020 0.72630 0.83800 0.26400
N 	N 	0.81475 0.39499 0.75597 -0.15500
C 	C 	0.81469 0.66372 0.77330 0.42000
C 	C 	0.82097 0.61404 0.77000 -0.17100
C 	C 	0.85992 0.59384 0.78670 0.07800
H 	H 	0.88120 0.61110 0.80140 0.00100
C 	C 	0.78887 0.58643 0.75030 0.07900
H 	H 	0.76220 0.59930 0.74070 -0.00000
C 	C 	0.86689 0.54791 0.78150 -0.15000
H 	H 	0.89330 0.53530 0.79220 0.07700
C 	C 	0.79478 0.54092 0.74440 -0.14900
H 	H 	0.77300 0.52380 0.73030 0.07400
C 	C 	0.83543 0.52047 0.76060 0.08400
C 	C 	0.80893 0.43917 0.75870 0.02800
H 	H 	0.78000 0.44970 0.76340 0.01000
C 	C 	0.84348 0.47113 0.75519 -0.04300
C 	C 	0.88616 0.45488 0.74755 -0.03200
H 	H 	0.90990 0.47480 0.74460 0.03700
C 	C 	0.89411 0.40810 0.74413 -0.04900
C 	C 	0.85724 0.38040 0.74950 0.02600
H 	H 	0.86200 0.34970 0.74860 0.00900
C 	C 	0.94022 0.38992 0.73920 0.10200
C 	C 	0.97749 0.41193 0.75650 -0.16800
H 	H 	0.97350 0.43830 0.77260 0.08300
C 	C 	0.94816 0.34948 0.71690 -0.16800
H 	H 	0.92390 0.33350 0.70570 0.08300
C 	C 	0.02040 0.39538 0.75020 0.09600
H 	H 	0.04480 0.41130 0.76120 -0.00600
C 	C 	0.99077 0.33243 0.71090 0.10200
H 	H 	0.99470 0.30560 0.69560 -0.00900
C 	C 	0.02744 0.35491 0.72750 -0.19200
C 	C 	0.07523 0.33718 0.72293 0.47000
Er	Er	0.35861 0.74316 0.18123 1.68000
O 	O 	0.34348 0.81556 0.20182 -0.50800
O 	O 	0.28189 0.81787 0.24746 -0.51300
O 	O 	0.60580 0.14100 0.25869 -0.53800
O 	O 	0.58033 0.19875 0.29889 -0.51700
O 	O 	0.27895 0.74750 0.17303 -0.80300
H 	H 	0.27020 0.77370 0.16200 0.26400
N 	N 	0.31475 0.10501 0.24403 -0.15500
C 	C 	0.31469 0.83628 0.22670 0.42000
C 	C 	0.32097 0.88596 0.23000 -0.17100
C 	C 	0.35992 0.90616 0.21330 0.07800
H 	H 	0.38120 0.88890 0.19860 0.00100
C 	C 	0.28887 0.91357 0.24970 0.07900
H 	H 	0.26220 0.90070 0.25930 -0.00000
C 	C 	0.36689 0.95209 0.21850 -0.15000
H 	H 	0.39330 0.96470 0.20780 0.07700
C 	C 	0.29478 0.95908 0.25560 -0.14800
H 	H 	0.27300 0.97620 0.26970 0.07400
C 	C 	0.33543 0.97953 0.23940 0.08400
C 	C 	0.30893 0.06083 0.24130 0.02800
H 	H 	0.28000 0.05030 0.23660 0.01000
C 	C 	0.34348 0.02887 0.24481 -0.04300
C 	C 	0.38616 0.04512 0.25245 -0.03200
H 	H 	0.40990 0.02520 0.25540 0.03700
C 	C 	0.39411 0.09190 0.25587 -0.04900
C 	C 	0.35724 0.11960 0.25050 0.02600
H 	H 	0.36200 0.15030 0.25140 0.00900
C 	C 	0.44022 0.11008 0.26080 0.10200
C 	C 	0.47749 0.08807 0.24350 -0.16800
H 	H 	0.47350 0.06170 0.22740 0.08300
C 	C 	0.44816 0.15052 0.28310 -0.16900
H 	H 	0.42390 0.16650 0.29430 0.08300
C 	C 	0.52040 0.10462 0.24980 0.09600
H 	H 	0.54480 0.08870 0.23880 -0.00600
C 	C 	0.49077 0.16757 0.28910 0.10200
H 	H 	0.49470 0.19440 0.30440 -0.00900
C 	C 	0.52744 0.14509 0.27250 -0.19200
C 	C 	0.57523 0.16282 0.27707 0.47000
Er	Er	0.64139 0.24316 0.31877 1.68000
O 	O 	0.65652 0.31556 0.29818 -0.50800
O 	O 	0.71811 0.31787 0.25254 -0.51300
O 	O 	0.39420 0.64100 0.24131 -0.53800
O 	O 	0.41967 0.69875 0.20111 -0.51700
O 	O 	0.72105 0.24750 0.32697 -0.80300
H 	H 	0.72980 0.27370 0.33800 0.26400
N 	N 	0.68525 0.60501 0.25597 -0.15500
C 	C 	0.68531 0.33628 0.27330 0.42000
C 	C 	0.67903 0.38596 0.27000 -0.17100
C 	C 	0.64008 0.40616 0.28670 0.07800
H 	H 	0.61880 0.38890 0.30140 0.00100
C 	C 	0.71113 0.41357 0.25030 0.07900
H 	H 	0.73780 0.40070 0.24070 -0.00000
C 	C 	0.63311 0.45209 0.28150 -0.15000
H 	H 	0.60670 0.46470 0.29220 0.07700
C 	C 	0.70522 0.45908 0.24440 -0.14900
H 	H 	0.72700 0.47620 0.23030 0.07400
C 	C 	0.66457 0.47953 0.26060 0.08400
C 	C 	0.69107 0.56083 0.25870 0.02800
H 	H 	0.72000 0.55030 0.26340 0.01000
C 	C 	0.65652 0.52887 0.25519 -0.04300
C 	C 	0.61384 0.54512 0.24755 -0.03200
H 	H 	0.59010 0.52520 0.24460 0.03700
C 	C 	0.60589 0.59190 0.24413 -0.04900
C 	C 	0.64276 0.61960 0.24950 0.02600
H 	H 	0.63800 0.65030 0.24860 0.00900
C 	C 	0.55978 0.61008 0.23920 0.10200
C 	C 	0.52251 0.58807 0.25650 -0.16800
H 	H 	0.52650 0.56170 0.27260 0.08300
C 	C 	0.55184 0.65052 0.21690 -0.16900
H 	H 	0.57610 0.66650 0.20570 0.08300
C 	C 	0.47960 0.60462 0.25020 0.09600
H 	H 	0.45520 0.58870 0.26120 -0.00600
C 	C 	0.50923 0.66757 0.21090 0.10200
H 	H 	0.50530 0.69440 0.19560 -0.00900
C 	C 	0.47256 0.64509 0.22750 -0.19200
C 	C 	0.42477 0.66282 0.22293 0.47000
Er	Er	0.14139 0.25684 0.68123 1.68000
O 	O 	0.15652 0.18444 0.70182 -0.50800
O 	O 	0.21811 0.18213 0.74746 -0.51300
O 	O 	0.89420 0.85900 0.75869 -0.53800
O 	O 	0.91967 0.80125 0.79889 -0.51700
O 	O 	0.22105 0.25250 0.67303 -0.80300
H 	H 	0.22980 0.22630 0.66200 0.26400
N 	N 	0.18525 0.89499 0.74403 -0.15500
C 	C 	0.18531 0.16372 0.72670 0.42000
C 	C 	0.17903 0.11404 0.73000 -0.17100
C 	C 	0.14008 0.09384 0.71330 0.07800
H 	H 	0.11880 0.11110 0.69860 0.00100
C 	C 	0.21113 0.08643 0.74970 0.07900
H 	H 	0.23780 0.09930 0.75930 -0.00000
C 	C 	0.13311 0.04791 0.71850 -0.15000
H 	H 	0.10670 0.03530 0.70780 0.07700
C 	C 	0.20522 0.04092 0.75560 -0.14900
H 	H 	0.22700 0.02380 0.76970 0.07400
C 	C 	0.16457 0.02047 0.73940 0.08400
C 	C 	0.19107 0.93917 0.74130 0.02800
H 	H 	0.22000 0.94970 0.73660 0.01000
C 	C 	0.15652 0.97113 0.74481 -0.04300
C 	C 	0.11384 0.95488 0.75245 -0.03200
H 	H 	0.09010 0.97480 0.75540 0.03700
C 	C 	0.10589 0.90810 0.75587 -0.04900
C 	C 	0.14276 0.88040 0.75050 0.02600
H 	H 	0.13800 0.84970 0.75140 0.00900
C 	C 	0.05978 0.88992 0.76080 0.10200
C 	C 	0.02251 0.91193 0.74350 -0.16800
H 	H 	0.02650 0.93830 0.72740 0.08300
C 	C 	0.05184 0.84948 0.78310 -0.16900
H 	H 	0.07610 0.83350 0.79430 0.08300
C 	C 	0.97960 0.89538 0.74980 0.09600
H 	H 	0.95520 0.91130 0.73880 -0.00600
C 	C 	0.00923 0.83243 0.78910 0.10200
H 	H 	0.00530 0.80560 0.80440 -0.00900
C 	C 	0.97256 0.85491 0.77250 -0.19200
C 	C 	0.92477 0.83718 0.77707 0.47000
Er	Er	0.81877 0.85861 0.75684 1.68000
O 	O 	0.79818 0.84348 0.68444 -0.50800
O 	O 	0.75254 0.78189 0.68213 -0.51300
O 	O 	0.74131 0.10580 0.35900 -0.53800
O 	O 	0.70111 0.08033 0.30125 -0.51700
O 	O 	0.82697 0.77895 0.75250 -0.80300
H 	H 	0.83800 0.77020 0.72630 0.26400
N 	N 	0.75597 0.81475 0.39499 -0.15500
C 	C 	0.77330 0.81469 0.66372 0.42000
C 	C 	0.77000 0.82097 0.61404 -0.17100
C 	C 	0.78670 0.85992 0.59384 0.07800
H 	H 	0.80140 0.88120 0.61110 0.00100
C 	C 	0.75030 0.78887 0.58643 0.07900
H 	H 	0.74070 0.76220 0.59930 -0.00000
C 	C 	0.78150 0.86689 0.54791 -0.15000
H 	H 	0.79220 0.89330 0.53530 0.07700
C 	C 	0.74440 0.79478 0.54092 -0.14900
H 	H 	0.73030 0.77300 0.52380 0.07400
C 	C 	0.76060 0.83543 0.52047 0.08400
C 	C 	0.75870 0.80893 0.43917 0.02800
H 	H 	0.76340 0.78000 0.44970 0.01000
C 	C 	0.75519 0.84348 0.47113 -0.04300
C 	C 	0.74755 0.88616 0.45488 -0.03200
H 	H 	0.74460 0.90990 0.47480 0.03700
C 	C 	0.74413 0.89411 0.40810 -0.04900
C 	C 	0.74950 0.85724 0.38040 0.02600
H 	H 	0.74860 0.86200 0.34970 0.00900
C 	C 	0.73920 0.94022 0.38992 0.10200
C 	C 	0.75650 0.97749 0.41193 -0.16800
H 	H 	0.77260 0.97350 0.43830 0.08300
C 	C 	0.71690 0.94816 0.34948 -0.16800
H 	H 	0.70570 0.92390 0.33350 0.08300
C 	C 	0.75020 0.02040 0.39538 0.09600
H 	H 	0.76120 0.04480 0.41130 -0.00600
C 	C 	0.71090 0.99077 0.33243 0.10200
H 	H 	0.69560 0.99470 0.30560 -0.00900
C 	C 	0.72750 0.02744 0.35491 -0.19200
C 	C 	0.72293 0.07523 0.33718 0.47000
Er	Er	0.18123 0.35861 0.74316 1.68000
O 	O 	0.20182 0.34348 0.81556 -0.50800
O 	O 	0.24746 0.28189 0.81787 -0.51300
O 	O 	0.25869 0.60580 0.14100 -0.53800
O 	O 	0.29889 0.58033 0.19875 -0.51700
O 	O 	0.17303 0.27895 0.74750 -0.80300
H 	H 	0.16200 0.27020 0.77370 0.26400
N 	N 	0.24403 0.31475 0.10501 -0.15500
C 	C 	0.22670 0.31469 0.83628 0.42000
C 	C 	0.23000 0.32097 0.88596 -0.17100
C 	C 	0.21330 0.35992 0.90616 0.07800
H 	H 	0.19860 0.38120 0.88890 0.00100
C 	C 	0.24970 0.28887 0.91357 0.07900
H 	H 	0.25930 0.26220 0.90070 -0.00000
C 	C 	0.21850 0.36689 0.95209 -0.15000
H 	H 	0.20780 0.39330 0.96470 0.07700
C 	C 	0.25560 0.29478 0.95908 -0.14800
H 	H 	0.26970 0.27300 0.97620 0.07400
C 	C 	0.23940 0.33543 0.97953 0.08400
C 	C 	0.24130 0.30893 0.06083 0.02800
H 	H 	0.23660 0.28000 0.05030 0.01000
C 	C 	0.24481 0.34348 0.02887 -0.04300
C 	C 	0.25245 0.38616 0.04512 -0.03200
H 	H 	0.25540 0.40990 0.02520 0.03700
C 	C 	0.25587 0.39411 0.09190 -0.04900
C 	C 	0.25050 0.35724 0.11960 0.02600
H 	H 	0.25140 0.36200 0.15030 0.00900
C 	C 	0.26080 0.44022 0.11008 0.10200
C 	C 	0.24350 0.47749 0.08807 -0.16800
H 	H 	0.22740 0.47350 0.06170 0.08300
C 	C 	0.28310 0.44816 0.15052 -0.16900
H 	H 	0.29430 0.42390 0.16650 0.08300
C 	C 	0.24980 0.52040 0.10462 0.09600
H 	H 	0.23880 0.54480 0.08870 -0.00600
C 	C 	0.28910 0.49077 0.16757 0.10200
H 	H 	0.30440 0.49470 0.19440 -0.00900
C 	C 	0.27250 0.52744 0.14509 -0.19200
C 	C 	0.27707 0.57523 0.16282 0.47000
Er	Er	0.31877 0.64139 0.24316 1.68000
O 	O 	0.29818 0.65652 0.31556 -0.50800
O 	O 	0.25254 0.71811 0.31787 -0.51300
O 	O 	0.24131 0.39420 0.64100 -0.53800
O 	O 	0.20111 0.41967 0.69875 -0.51700
O 	O 	0.32697 0.72105 0.24750 -0.80300
H 	H 	0.33800 0.72980 0.27370 0.26400
N 	N 	0.25597 0.68525 0.60501 -0.15500
C 	C 	0.27330 0.68531 0.33628 0.42000
C 	C 	0.27000 0.67903 0.38596 -0.17100
C 	C 	0.28670 0.64008 0.40616 0.07800
H 	H 	0.30140 0.61880 0.38890 0.00100
C 	C 	0.25030 0.71113 0.41357 0.07900
H 	H 	0.24070 0.73780 0.40070 -0.00000
C 	C 	0.28150 0.63311 0.45209 -0.15000
H 	H 	0.29220 0.60670 0.46470 0.07700
C 	C 	0.24440 0.70522 0.45908 -0.14900
H 	H 	0.23030 0.72700 0.47620 0.07400
C 	C 	0.26060 0.66457 0.47953 0.08400
C 	C 	0.25870 0.69107 0.56083 0.02800
H 	H 	0.26340 0.72000 0.55030 0.01000
C 	C 	0.25519 0.65652 0.52887 -0.04300
C 	C 	0.24755 0.61384 0.54512 -0.03200
H 	H 	0.24460 0.59010 0.52520 0.03700
C 	C 	0.24413 0.60589 0.59190 -0.04900
C 	C 	0.24950 0.64276 0.61960 0.02600
H 	H 	0.24860 0.63800 0.65030 0.00900
C 	C 	0.23920 0.55978 0.61008 0.10200
C 	C 	0.25650 0.52251 0.58807 -0.16800
H 	H 	0.27260 0.52650 0.56170 0.08300
C 	C 	0.21690 0.55184 0.65052 -0.16900
H 	H 	0.20570 0.57610 0.66650 0.08300
C 	C 	0.25020 0.47960 0.60462 0.09600
H 	H 	0.26120 0.45520 0.58870 -0.00600
C 	C 	0.21090 0.50923 0.66757 0.10200
H 	H 	0.19560 0.50530 0.69440 -0.00900
C 	C 	0.22750 0.47256 0.64509 -0.19200
C 	C 	0.22293 0.42477 0.66282 0.47000
Er	Er	0.68123 0.14139 0.25684 1.68000
O 	O 	0.70182 0.15652 0.18444 -0.50800
O 	O 	0.74746 0.21811 0.18213 -0.51300
O 	O 	0.75869 0.89420 0.85900 -0.53800
O 	O 	0.79889 0.91967 0.80125 -0.51700
O 	O 	0.67303 0.22105 0.25250 -0.80300
H 	H 	0.66200 0.22980 0.22630 0.26400
N 	N 	0.74403 0.18525 0.89499 -0.15500
C 	C 	0.72670 0.18531 0.16372 0.42000
C 	C 	0.73000 0.17903 0.11404 -0.17100
C 	C 	0.71330 0.14008 0.09384 0.07800
H 	H 	0.69860 0.11880 0.11110 0.00100
C 	C 	0.74970 0.21113 0.08643 0.07900
H 	H 	0.75930 0.23780 0.09930 -0.00000
C 	C 	0.71850 0.13311 0.04791 -0.15000
H 	H 	0.70780 0.10670 0.03530 0.07700
C 	C 	0.75560 0.20522 0.04092 -0.14900
H 	H 	0.76970 0.22700 0.02380 0.07400
C 	C 	0.73940 0.16457 0.02047 0.08400
C 	C 	0.74130 0.19107 0.93917 0.02800
H 	H 	0.73660 0.22000 0.94970 0.01000
C 	C 	0.74481 0.15652 0.97113 -0.04300
C 	C 	0.75245 0.11384 0.95488 -0.03200
H 	H 	0.75540 0.09010 0.97480 0.03700
C 	C 	0.75587 0.10589 0.90810 -0.04900
C 	C 	0.75050 0.14276 0.88040 0.02600
H 	H 	0.75140 0.13800 0.84970 0.00900
C 	C 	0.76080 0.05978 0.88992 0.10200
C 	C 	0.74350 0.02251 0.91193 -0.16800
H 	H 	0.72740 0.02650 0.93830 0.08300
C 	C 	0.78310 0.05184 0.84948 -0.16900
H 	H 	0.79430 0.07610 0.83350 0.08300
C 	C 	0.74980 0.97960 0.89538 0.09600
H 	H 	0.73880 0.95520 0.91130 -0.00600
C 	C 	0.78910 0.00923 0.83243 0.10200
H 	H 	0.80440 0.00530 0.80560 -0.00900
C 	C 	0.77250 0.97256 0.85491 -0.19200
C 	C 	0.77707 0.92477 0.83718 0.47000
Er	Er	0.75237 0.75237 0.75237 1.63600
O 	O 	0.82926 0.82926 0.82926 -0.82700
H 	H 	0.84571 0.84571 0.84571 0.29400
Er	Er	0.74763 0.24763 0.25237 1.63600
O 	O 	0.67074 0.17074 0.32926 -0.82700
H 	H 	0.65429 0.15429 0.34571 0.29400
Er	Er	0.24763 0.25237 0.74763 1.63600
O 	O 	0.17074 0.32926 0.67074 -0.82700
H 	H 	0.15429 0.34571 0.65429 0.29400
Er	Er	0.25237 0.74763 0.24763 1.63600
O 	O 	0.32926 0.67074 0.17074 -0.82700
H 	H 	0.34571 0.65429 0.15429 0.29400
