data_crystal

_cell_length_a 23.26460
_cell_length_b 31.54500
_cell_length_c 23.73170
_cell_angle_alpha 90.00000
_cell_angle_beta  102.52800
_cell_angle_gamma 90.00000

_symmetry_space_group_name_	'P 1'
_symmetry_space_group_name_H-M	'P 1'

loop_
_symmetry_equiv_pos_as_xyz
  x,y,z

loop_
_atom_site_label
_atom_site_type_symbol
_atom_site_fract_x
_atom_site_fract_y
_atom_site_fract_z
_atom_site_charge
Cu	Cu	0.04385 0.51930 0.88893 0.88300
Cu	Cu	0.98464 0.77156 0.80140 0.87500
Cu	Cu	0.28808 0.88403 0.04887 0.89900
Cu	Cu	0.56289 0.72668 0.22384 0.87200
Cu	Cu	0.40277 0.50461 0.08466 0.87600
Mn	Mn	0.87635 0.61770 0.75913 1.22800
Mn	Mn	0.06397 0.91438 0.92456 1.22500
Mn	Mn	0.52784 0.87608 0.10643 1.22600
Mn	Mn	0.60351 0.55619 0.23122 1.22900
Mn	Mn	0.22204 0.40732 0.96540 1.27000
C 	C 	0.16110 0.76000 0.88590 -0.10200
H 	H 	0.18470 0.73370 0.89120 0.05700
H 	H 	0.12050 0.75290 0.88920 0.04900
C 	C 	0.19720 0.81130 0.03760 0.07400
C 	C 	0.16930 0.87840 0.00100 0.09000
C 	C 	0.19400 0.80100 0.09410 -0.11100
H 	H 	0.20010 0.82240 0.12290 0.06900
C 	C 	0.18730 0.78040 0.99410 0.00400
C 	C 	0.18760 0.92340 0.98790 0.23300
C 	C 	0.05160 0.84100 0.84690 0.09300
C 	C 	0.18820 0.79270 0.93340 -0.12000
H 	H 	0.22960 0.79780 0.93110 0.06400
H 	H 	0.16680 0.81980 0.92470 0.08000
C 	C 	0.17600 0.72900 0.06710 -0.05500
H 	H 	0.17080 0.70030 0.07730 0.03900
C 	C 	0.15990 0.77770 0.82900 0.00800
C 	C 	0.17710 0.73900 0.01150 -0.05100
H 	H 	0.17080 0.71710 0.98330 0.04100
C 	C 	0.11030 0.80080 0.79730 0.06100
C 	C 	0.18230 0.76020 0.10840 -0.00500
H 	H 	0.17850 0.75370 0.14660 0.02500
C 	C 	0.16260 0.81240 0.72100 -0.01800
H 	H 	0.16440 0.82420 0.68460 0.02700
C 	C 	0.20980 0.78980 0.75230 -0.04400
H 	H 	0.24350 0.78550 0.73640 0.03800
C 	C 	0.11160 0.81770 0.74360 -0.09800
H 	H 	0.07860 0.83270 0.72230 0.05200
C 	C 	0.20940 0.77380 0.80440 -0.05800
H 	H 	0.24330 0.75940 0.82520 0.04600
C 	C 	0.99370 0.84360 0.86560 0.24300
O 	O 	0.08700 0.87070 0.85880 -0.35600
O 	O 	0.23990 0.93420 0.01130 -0.35700
O 	O 	0.14980 0.94610 0.95600 -0.42700
O 	O 	0.98710 0.87310 0.89910 -0.42100
O 	O 	0.95500 0.81640 0.84700 -0.35900
O 	O 	0.11470 0.86940 0.98680 -0.36100
N 	N 	0.21220 0.85350 0.02410 -0.23400
N 	N 	0.05740 0.80570 0.81920 -0.24200
C 	C 	0.57690 0.79650 0.16110 0.23800
C 	C 	0.34730 0.80600 0.00350 0.07100
C 	C 	0.39740 0.77540 0.19590 0.01900
C 	C 	0.35370 0.80440 0.94630 -0.10200
H 	H 	0.36180 0.82970 0.92770 0.05900
C 	C 	0.33530 0.76870 0.03140 -0.00300
C 	C 	0.45170 0.77800 0.23320 0.05500
C 	C 	0.52110 0.80500 0.18350 0.08100
C 	C 	0.40570 0.86190 0.04900 0.10000
C 	C 	0.40510 0.90570 0.07770 0.25300
C 	C 	0.39380 0.76720 0.13230 -0.11800
H 	H 	0.41090 0.73890 0.12830 0.05800
H 	H 	0.41860 0.78830 0.11800 0.07900
C 	C 	0.34860 0.76640 0.91640 -0.01100
H 	H 	0.35400 0.76580 0.87780 0.02600
C 	C 	0.34750 0.78160 0.21840 -0.06200
H 	H 	0.30960 0.78000 0.19350 0.05300
C 	C 	0.35230 0.79000 0.27650 -0.04000
H 	H 	0.31760 0.79380 0.29100 0.03300
C 	C 	0.45710 0.78700 0.29180 -0.09100
H 	H 	0.49520 0.78900 0.31630 0.04200
C 	C 	0.32970 0.73070 0.99900 -0.05400
H 	H 	0.32160 0.70510 0.01690 0.04200
C 	C 	0.33180 0.76870 0.09330 -0.10300
H 	H 	0.30890 0.74380 0.10130 0.06000
H 	H 	0.31130 0.79460 0.10190 0.06000
C 	C 	0.40790 0.79310 0.31450 -0.02400
H 	H 	0.41130 0.79910 0.35430 0.02900
C 	C 	0.33570 0.72950 0.94180 -0.05400
H 	H 	0.33090 0.70360 0.92090 0.03900
O 	O 	0.49540 0.84026 0.17220 -0.35500
O 	O 	0.45380 0.84662 0.04520 -0.37000
O 	O 	0.45340 0.92148 0.09970 -0.42800
O 	O 	0.58990 0.82360 0.12550 -0.43400
O 	O 	0.60530 0.76413 0.17810 -0.38000
O 	O 	0.35500 0.92223 0.07580 -0.37200
N 	N 	0.50500 0.77300 0.21180 -0.24100
N 	N 	0.35160 0.84560 0.03220 -0.23000
C 	C 	0.00240 0.59400 0.95250 0.07900
C 	C 	0.95560 0.57790 0.85700 0.09000
C 	C 	0.04870 0.62380 0.96780 -0.02100
C 	C 	0.14700 0.65300 0.83110 -0.06900
H 	H 	0.16530 0.63570 0.86260 0.04300
C 	C 	0.95340 0.54770 0.80700 0.23600
C 	C 	0.96190 0.58910 0.98770 -0.11400
H 	H 	0.93050 0.56940 0.97740 0.07000
C 	C 	0.08900 0.63230 0.92690 -0.07300
H 	H 	0.09780 0.60540 0.90910 0.02400
H 	H 	0.12650 0.64440 0.94860 0.04300
C 	C 	0.09240 0.67020 0.83110 0.01100
C 	C 	0.06000 0.66300 0.88020 -0.13400
H 	H 	0.05570 0.69060 0.89840 0.05700
H 	H 	0.01990 0.65240 0.86310 0.08100
C 	C 	0.96730 0.61290 0.03790 -0.01000
H 	H 	0.93960 0.60940 0.06160 0.01700
C 	C 	0.05270 0.64650 0.01760 -0.04000
H 	H 	0.08390 0.66630 0.02840 0.03900
C 	C 	0.06410 0.69580 0.78480 0.05800
C 	C 	0.01270 0.64160 0.05320 -0.05500
H 	H 	0.01670 0.65790 0.08760 0.03800
C 	C 	0.17590 0.66030 0.78660 -0.03800
H 	H 	0.21380 0.64830 0.78840 0.02900
C 	C 	0.96200 0.68780 0.77130 0.07300
C 	C 	0.90380 0.70730 0.78000 0.26700
C 	C 	0.09330 0.70250 0.73890 -0.08900
H 	H 	0.07490 0.71920 0.70670 0.05100
C 	C 	0.15010 0.68450 0.74030 -0.02300
H 	H 	0.16950 0.68930 0.70950 0.03100
O 	O 	0.98940 0.51680 0.81430 -0.36500
O 	O 	0.95980 0.64920 0.75470 -0.35400
O 	O 	0.91810 0.55600 0.76010 -0.42600
O 	O 	0.85970 0.68400 0.77290 -0.43500
O 	O 	0.90510 0.74540 0.79240 -0.37300
O 	O 	0.91940 0.60780 0.85150 -0.35400
N 	N 	0.99750 0.56850 0.90250 -0.24300
N 	N 	0.00790 0.71320 0.78320 -0.23800
C 	C 	0.34230 0.53740 0.96170 0.07600
C 	C 	0.31440 0.47280 0.99770 0.08500
C 	C 	0.11680 0.53210 0.01440 0.05700
C 	C 	0.26870 0.57980 0.00420 -0.07700
H 	H 	0.26030 0.61040 0.00730 0.04300
H 	H 	0.29000 0.56980 0.04260 0.03100
C 	C 	0.13200 0.47390 0.95890 0.08500
C 	C 	0.32240 0.44170 0.04840 0.24400
C 	C 	0.16960 0.55550 0.02740 0.01800
C 	C 	0.30630 0.57330 0.96070 -0.01900
C 	C 	0.21030 0.55520 0.98580 -0.13400
H 	H 	0.18860 0.56700 0.94850 0.05600
H 	H 	0.21980 0.52530 0.97870 0.08300
C 	C 	0.37470 0.53170 0.91910 -0.11200
H 	H 	0.39810 0.50690 0.91930 0.06300
C 	C 	0.30460 0.60230 0.91540 -0.04300
H 	H 	0.27930 0.62620 0.91280 0.03600
C 	C 	0.12010 0.45330 0.89870 0.24200
C 	C 	0.33770 0.59750 0.87520 -0.06100
H 	H 	0.33670 0.61840 0.84620 0.03700
C 	C 	0.07990 0.53030 0.05340 -0.08100
H 	H 	0.04450 0.51440 0.04420 0.02900
C 	C 	0.18260 0.57680 0.07990 -0.06900
H 	H 	0.21750 0.59340 0.08930 0.04400
C 	C 	0.37280 0.56190 0.87660 -0.00600
H 	H 	0.39570 0.55830 0.84830 0.01200
C 	C 	0.14590 0.57470 0.11920 -0.03400
H 	H 	0.15630 0.58910 0.15510 0.03400
C 	C 	0.09460 0.55170 0.10590 -0.03000
H 	H 	0.06930 0.55040 0.13230 0.03300
O 	O 	0.27620 0.46325 0.95270 -0.33800
O 	O 	0.36180 0.45063 0.09230 -0.36700
O 	O 	0.16880 0.45622 0.99880 -0.35000
O 	O 	0.29060 0.40924 0.04330 -0.40900
O 	O 	0.15100 0.42256 0.89100 -0.39600
O 	O 	0.07960 0.46980 0.86100 -0.36600
N 	N 	0.10160 0.50880 0.96140 -0.24100
N 	N 	0.34770 0.50670 0.00750 -0.23800
C 	C 	0.45490 0.66770 0.22690 0.06600
C 	C 	0.42960 0.67660 0.27350 -0.10000
H 	H 	0.45330 0.68650 0.30880 0.05200
C 	C 	0.36920 0.67070 0.26810 -0.01000
H 	H 	0.35170 0.67660 0.29990 0.02600
C 	C 	0.33460 0.65640 0.21650 -0.05200
H 	H 	0.29350 0.65220 0.21270 0.03900
C 	C 	0.47730 0.57200 0.03510 0.06200
C 	C 	0.55000 0.64010 0.23760 0.07900
C 	C 	0.44720 0.61030 0.02850 -0.00800
C 	C 	0.50180 0.50760 0.16980 0.24500
C 	C 	0.51380 0.54050 0.12630 0.09200
C 	C 	0.41060 0.62430 0.07100 -0.08800
H 	H 	0.38920 0.59970 0.08200 0.02800
H 	H 	0.38120 0.64560 0.05240 0.04900
C 	C 	0.45350 0.63720 0.98330 -0.06000
H 	H 	0.43340 0.66360 0.97820 0.04500
C 	C 	0.51270 0.56050 0.99770 -0.09400
H 	H 	0.53310 0.53420 0.00270 0.04000
C 	C 	0.48920 0.62540 0.94560 -0.04100
H 	H 	0.49320 0.64370 0.91490 0.03600
C 	C 	0.45020 0.64370 0.12530 -0.11900
H 	H 	0.48330 0.62390 0.13940 0.07200
H 	H 	0.46730 0.67030 0.11400 0.04800
C 	C 	0.61410 0.64880 0.23260 0.23800
C 	C 	0.42130 0.65350 0.17480 0.00100
C 	C 	0.36090 0.64820 0.17080 -0.05600
H 	H 	0.33710 0.63860 0.13540 0.03800
C 	C 	0.51840 0.58750 0.95280 -0.03500
H 	H 	0.54260 0.57960 0.92710 0.03300
N 	N 	0.46990 0.54310 0.08090 -0.23700
N 	N 	0.51670 0.67430 0.23210 -0.23900
O 	O 	0.62890 0.68647 0.22780 -0.38700
O 	O 	0.64790 0.61754 0.23310 -0.42800
O 	O 	0.53530 0.60208 0.24310 -0.35900
O 	O 	0.45560 0.48677 0.15820 -0.36800
O 	O 	0.56140 0.56074 0.13810 -0.36200
O 	O 	0.54020 0.50455 0.21690 -0.42300
S 	S 	0.31508 0.33838 0.94162 0.04600
O 	O 	0.26010 0.36510 0.91330 -0.21800
C 	C 	0.31740 0.29440 0.89500 -0.34300
H 	H 	0.35150 0.27660 0.91120 0.04600
H 	H 	0.28120 0.27770 0.89130 0.23400
H 	H 	0.32070 0.30480 0.85690 0.22100
C 	C 	0.37670 0.36550 0.92610 -0.23300
H 	H 	0.41280 0.35000 0.94310 0.04700
H 	H 	0.37260 0.36740 0.88420 0.12500
H 	H 	0.37880 0.39410 0.94260 0.32500
S 	S 	0.29990 0.34870 0.88340 0.27000
O 	O 	0.26010 0.35970 0.92660 -0.18700
C 	C 	0.30350 0.29560 0.88320 -0.41900
H 	H 	0.32800 0.28640 0.85670 0.07300
H 	H 	0.32070 0.28540 0.92220 0.23200
H 	H 	0.26380 0.28390 0.87050 -0.00600
C 	C 	0.36990 0.37070 0.92190 -0.30300
H 	H 	0.39990 0.36600 0.89930 0.08200
H 	H 	0.36550 0.40120 0.92760 -0.15500
H 	H 	0.38200 0.35670 0.95950 0.13400
S 	S 	0.28420 0.91080 0.18880 0.12200
O 	O 	0.26950 0.88460 0.13540 0.15800
C 	C 	0.36150 0.91600 0.21600 -0.56300
H 	H 	0.36870 0.93350 0.25100 0.15900
H 	H 	0.37900 0.88790 0.22520 0.08200
H 	H 	0.37940 0.92960 0.18680 0.19300
C 	C 	0.27320 0.96310 0.16350 0.10900
H 	H 	0.28200 0.98270 0.19630 0.00100
H 	H 	0.29930 0.96900 0.13720 -0.08300
H 	H 	0.23210 0.96670 0.14300 -0.07100
S 	S 	0.30533 0.89247 0.20051 0.29400
O 	O 	0.28600 0.87230 0.14300 -0.51000
C 	C 	0.38370 0.89320 0.21720 0.12100
H 	H 	0.39780 0.90630 0.25510 0.02600
H 	H 	0.39850 0.86410 0.21800 -0.02800
H 	H 	0.39780 0.90950 0.18780 -0.02100
C 	C 	0.29630 0.94820 0.19390 -0.63900
H 	H 	0.30910 0.96140 0.23190 0.16600
H 	H 	0.32010 0.95910 0.16770 0.21900
H 	H 	0.25470 0.95480 0.17830 0.15300
Cu	Cu	0.95615 0.01930 0.61107 0.88400
Cu	Cu	0.01536 0.27156 0.69860 0.87600
Cu	Cu	0.71192 0.38403 0.45113 0.90000
Cu	Cu	0.43711 0.22668 0.27616 0.87300
Cu	Cu	0.59723 0.00461 0.41534 0.87700
Mn	Mn	0.12365 0.11770 0.74087 1.22900
Mn	Mn	0.93603 0.41438 0.57544 1.22700
Mn	Mn	0.47216 0.37608 0.39357 1.22700
Mn	Mn	0.39649 0.05619 0.26878 1.23000
Mn	Mn	0.77796 0.90732 0.53460 1.27100
C 	C 	0.83890 0.26000 0.61410 -0.09900
H 	H 	0.81530 0.23370 0.60880 0.05700
H 	H 	0.87950 0.25290 0.61080 0.04900
C 	C 	0.80280 0.31130 0.46240 0.07200
C 	C 	0.83070 0.37840 0.49900 0.08800
C 	C 	0.80600 0.30100 0.40590 -0.10700
H 	H 	0.79990 0.32240 0.37710 0.06900
C 	C 	0.81270 0.28040 0.50590 0.01000
C 	C 	0.81240 0.42340 0.51210 0.23600
C 	C 	0.94840 0.34100 0.65310 0.09600
C 	C 	0.81180 0.29270 0.56660 -0.12300
H 	H 	0.77040 0.29780 0.56890 0.06500
H 	H 	0.83320 0.31980 0.57530 0.08100
C 	C 	0.82400 0.22900 0.43290 -0.05000
H 	H 	0.82920 0.20030 0.42270 0.03700
C 	C 	0.84010 0.27770 0.67100 0.00700
C 	C 	0.82290 0.23900 0.48850 -0.05700
H 	H 	0.82920 0.21710 0.51670 0.04400
C 	C 	0.88970 0.30080 0.70270 0.06200
C 	C 	0.81770 0.26020 0.39160 -0.00800
H 	H 	0.82150 0.25370 0.35340 0.02600
C 	C 	0.83740 0.31240 0.77900 -0.01800
H 	H 	0.83560 0.32420 0.81540 0.02700
C 	C 	0.79020 0.28980 0.74770 -0.04500
H 	H 	0.75650 0.28550 0.76360 0.03900
C 	C 	0.88840 0.31770 0.75640 -0.09800
H 	H 	0.92140 0.33270 0.77770 0.05300
C 	C 	0.79060 0.27380 0.69560 -0.05700
H 	H 	0.75670 0.25940 0.67480 0.04600
C 	C 	0.00630 0.34360 0.63440 0.24200
O 	O 	0.91300 0.37070 0.64120 -0.35600
O 	O 	0.76010 0.43420 0.48870 -0.35900
O 	O 	0.85020 0.44610 0.54400 -0.42700
O 	O 	0.01290 0.37310 0.60090 -0.42100
O 	O 	0.04500 0.31640 0.65300 -0.35900
O 	O 	0.88530 0.36940 0.51320 -0.35900
N 	N 	0.78780 0.35350 0.47590 -0.23400
N 	N 	0.94260 0.30570 0.68080 -0.24200
C 	C 	0.42310 0.29650 0.33890 0.23800
C 	C 	0.65270 0.30600 0.49650 0.07000
C 	C 	0.60260 0.27540 0.30410 0.02000
C 	C 	0.64630 0.30440 0.55370 -0.10200
H 	H 	0.63820 0.32970 0.57230 0.05900
C 	C 	0.66470 0.26870 0.46860 -0.00400
C 	C 	0.54830 0.27800 0.26680 0.05500
C 	C 	0.47890 0.30500 0.31650 0.08100
C 	C 	0.59430 0.36190 0.45100 0.10000
C 	C 	0.59490 0.40570 0.42230 0.25300
C 	C 	0.60620 0.26720 0.36770 -0.11800
H 	H 	0.58910 0.23890 0.37170 0.05800
H 	H 	0.58140 0.28830 0.38200 0.07900
C 	C 	0.65140 0.26640 0.58360 -0.01100
H 	H 	0.64600 0.26580 0.62220 0.02600
C 	C 	0.65250 0.28160 0.28160 -0.06200
H 	H 	0.69040 0.28000 0.30650 0.05300
C 	C 	0.64770 0.29000 0.22350 -0.04000
H 	H 	0.68240 0.29380 0.20900 0.03300
C 	C 	0.54290 0.28700 0.20820 -0.09100
H 	H 	0.50480 0.28900 0.18370 0.04200
C 	C 	0.67030 0.23070 0.50100 -0.05200
H 	H 	0.67840 0.20510 0.48310 0.04100
C 	C 	0.66820 0.26870 0.40670 -0.10200
H 	H 	0.69110 0.24380 0.39870 0.05900
H 	H 	0.68870 0.29460 0.39810 0.05900
C 	C 	0.59210 0.29310 0.18550 -0.02500
H 	H 	0.58870 0.29910 0.14570 0.02900
C 	C 	0.66430 0.22950 0.55820 -0.05500
H 	H 	0.66910 0.20360 0.57910 0.03900
O 	O 	0.50460 0.34026 0.32780 -0.35500
O 	O 	0.54620 0.34662 0.45480 -0.37000
O 	O 	0.54660 0.42148 0.40030 -0.42800
O 	O 	0.41010 0.32360 0.37450 -0.43400
O 	O 	0.39470 0.26413 0.32190 -0.38000
O 	O 	0.64500 0.42223 0.42420 -0.37200
N 	N 	0.49500 0.27300 0.28820 -0.24100
N 	N 	0.64840 0.34560 0.46780 -0.23000
C 	C 	0.99760 0.09400 0.54750 0.08300
C 	C 	0.04440 0.07790 0.64300 0.09000
C 	C 	0.95130 0.12380 0.53220 -0.02200
C 	C 	0.85300 0.15300 0.66890 -0.06900
H 	H 	0.83470 0.13570 0.63740 0.04400
C 	C 	0.04660 0.04770 0.69300 0.23600
C 	C 	0.03810 0.08910 0.51230 -0.12100
H 	H 	0.06950 0.06940 0.52260 0.07300
C 	C 	0.91100 0.13230 0.57310 -0.07100
H 	H 	0.90220 0.10540 0.59090 0.02400
H 	H 	0.87350 0.14440 0.55140 0.04300
C 	C 	0.90760 0.17020 0.66890 0.01200
C 	C 	0.94000 0.16300 0.61980 -0.13500
H 	H 	0.94430 0.19060 0.60160 0.05700
H 	H 	0.98010 0.15240 0.63690 0.08200
C 	C 	0.03270 0.11290 0.46210 -0.00100
H 	H 	0.06040 0.10940 0.43840 0.01400
C 	C 	0.94730 0.14650 0.48240 -0.03800
H 	H 	0.91610 0.16630 0.47160 0.03800
C 	C 	0.93590 0.19580 0.71520 0.05800
C 	C 	0.98730 0.14160 0.44680 -0.06200
H 	H 	0.98330 0.15790 0.41240 0.04000
C 	C 	0.82410 0.16030 0.71340 -0.03800
H 	H 	0.78620 0.14830 0.71160 0.02900
C 	C 	0.03800 0.18780 0.72870 0.07100
C 	C 	0.09620 0.20730 0.72000 0.26800
C 	C 	0.90670 0.20250 0.76110 -0.08900
H 	H 	0.92510 0.21920 0.79330 0.05100
C 	C 	0.84990 0.18450 0.75970 -0.02300
H 	H 	0.83050 0.18930 0.79050 0.03100
O 	O 	0.01060 0.01680 0.68570 -0.36500
O 	O 	0.04020 0.14920 0.74530 -0.35400
O 	O 	0.08190 0.05600 0.73990 -0.42600
O 	O 	0.14030 0.18400 0.72710 -0.43500
O 	O 	0.09490 0.24540 0.70760 -0.37300
O 	O 	0.08060 0.10780 0.64850 -0.35400
N 	N 	0.00250 0.06850 0.59750 -0.24400
N 	N 	0.99210 0.21320 0.71680 -0.23700
C 	C 	0.65770 0.03740 0.53830 0.07600
C 	C 	0.68560 0.97280 0.50230 0.08600
C 	C 	0.88320 0.03210 0.48560 0.05700
C 	C 	0.73130 0.07980 0.49580 -0.08000
H 	H 	0.73970 0.11040 0.49270 0.04400
H 	H 	0.71000 0.06980 0.45740 0.03100
C 	C 	0.86800 0.97390 0.54110 0.08600
C 	C 	0.67760 0.94170 0.45160 0.24300
C 	C 	0.83040 0.05550 0.47260 0.01600
C 	C 	0.69370 0.07330 0.53930 -0.01800
C 	C 	0.78970 0.05520 0.51420 -0.13100
H 	H 	0.81140 0.06700 0.55150 0.05600
H 	H 	0.78020 0.02530 0.52130 0.08200
C 	C 	0.62530 0.03170 0.58090 -0.11200
H 	H 	0.60190 0.00690 0.58070 0.06300
C 	C 	0.69540 0.10230 0.58460 -0.04400
H 	H 	0.72070 0.12620 0.58720 0.03600
C 	C 	0.87990 0.95330 0.60130 0.24200
C 	C 	0.66230 0.09750 0.62480 -0.06100
H 	H 	0.66330 0.11840 0.65380 0.03700
C 	C 	0.92010 0.03030 0.44660 -0.08100
H 	H 	0.95550 0.01440 0.45580 0.02900
C 	C 	0.81740 0.07680 0.42010 -0.06800
H 	H 	0.78250 0.09340 0.41070 0.04400
C 	C 	0.62720 0.06190 0.62340 -0.00700
H 	H 	0.60430 0.05830 0.65170 0.01200
C 	C 	0.85410 0.07470 0.38080 -0.03500
H 	H 	0.84370 0.08910 0.34490 0.03400
C 	C 	0.90540 0.05170 0.39410 -0.03000
H 	H 	0.93070 0.05040 0.36770 0.03300
O 	O 	0.72380 0.96325 0.54730 -0.33800
O 	O 	0.63820 0.95063 0.40770 -0.36600
O 	O 	0.83120 0.95622 0.50120 -0.35000
O 	O 	0.70940 0.90924 0.45670 -0.40900
O 	O 	0.84900 0.92256 0.60900 -0.39600
O 	O 	0.92040 0.96980 0.63900 -0.36500
N 	N 	0.89840 0.00880 0.53860 -0.24100
N 	N 	0.65230 0.00670 0.49250 -0.23900
C 	C 	0.54510 0.16770 0.27310 0.06600
C 	C 	0.57040 0.17660 0.22650 -0.10000
H 	H 	0.54670 0.18650 0.19120 0.05200
C 	C 	0.63080 0.17070 0.23190 -0.01000
H 	H 	0.64830 0.17660 0.20010 0.02600
C 	C 	0.66540 0.15640 0.28350 -0.05200
H 	H 	0.70650 0.15220 0.28730 0.03900
C 	C 	0.52270 0.07200 0.46490 0.06200
C 	C 	0.45000 0.14010 0.26240 0.07900
C 	C 	0.55280 0.11030 0.47150 -0.00900
C 	C 	0.49820 0.00760 0.33020 0.24500
C 	C 	0.48620 0.04050 0.37370 0.09200
C 	C 	0.58940 0.12430 0.42900 -0.08800
H 	H 	0.61080 0.09970 0.41800 0.02700
H 	H 	0.61880 0.14560 0.44760 0.04800
C 	C 	0.54650 0.13720 0.51670 -0.06000
H 	H 	0.56660 0.16360 0.52180 0.04500
C 	C 	0.48730 0.06050 0.50230 -0.09500
H 	H 	0.46690 0.03420 0.49730 0.04000
C 	C 	0.51080 0.12540 0.55440 -0.04100
H 	H 	0.50680 0.14370 0.58510 0.03600
C 	C 	0.54980 0.14370 0.37470 -0.11900
H 	H 	0.51670 0.12390 0.36060 0.07200
H 	H 	0.53270 0.17030 0.38600 0.04800
C 	C 	0.38590 0.14880 0.26740 0.23800
C 	C 	0.57870 0.15350 0.32520 0.00100
C 	C 	0.63910 0.14820 0.32920 -0.05600
H 	H 	0.66290 0.13860 0.36460 0.03800
C 	C 	0.48160 0.08750 0.54720 -0.03500
H 	H 	0.45740 0.07960 0.57290 0.03300
N 	N 	0.53010 0.04310 0.41910 -0.23700
N 	N 	0.48330 0.17430 0.26790 -0.23900
O 	O 	0.37110 0.18647 0.27220 -0.38700
O 	O 	0.35210 0.11754 0.26690 -0.42800
O 	O 	0.46470 0.10208 0.25690 -0.35900
O 	O 	0.54440 0.98677 0.34180 -0.36800
O 	O 	0.43860 0.06074 0.36190 -0.36200
O 	O 	0.45980 0.00455 0.28310 -0.42300
S 	S 	0.68492 0.83838 0.55838 0.04600
O 	O 	0.73990 0.86510 0.58670 -0.21800
C 	C 	0.68260 0.79440 0.60500 -0.34300
H 	H 	0.64850 0.77660 0.58880 0.04700
H 	H 	0.71880 0.77770 0.60870 0.23400
H 	H 	0.67930 0.80480 0.64310 0.22100
C 	C 	0.62330 0.86550 0.57390 -0.23300
H 	H 	0.58720 0.85000 0.55690 0.04700
H 	H 	0.62740 0.86740 0.61580 0.12500
H 	H 	0.62120 0.89410 0.55740 0.32500
S 	S 	0.70010 0.84870 0.61660 0.27000
O 	O 	0.73990 0.85970 0.57340 -0.18700
C 	C 	0.69650 0.79560 0.61680 -0.41900
H 	H 	0.67200 0.78640 0.64330 0.07300
H 	H 	0.67930 0.78540 0.57780 0.23200
H 	H 	0.73620 0.78390 0.62950 -0.00600
C 	C 	0.63010 0.87070 0.57810 -0.30300
H 	H 	0.60010 0.86600 0.60070 0.08200
H 	H 	0.63450 0.90120 0.57240 -0.15500
H 	H 	0.61800 0.85670 0.54050 0.13500
S 	S 	0.71580 0.41080 0.31120 0.12200
O 	O 	0.73050 0.38460 0.36460 0.15800
C 	C 	0.63850 0.41600 0.28400 -0.56300
H 	H 	0.63130 0.43350 0.24900 0.15900
H 	H 	0.62100 0.38790 0.27480 0.08200
H 	H 	0.62060 0.42960 0.31320 0.19300
C 	C 	0.72680 0.46310 0.33650 0.10900
H 	H 	0.71800 0.48270 0.30370 0.00100
H 	H 	0.70070 0.46900 0.36280 -0.08300
H 	H 	0.76790 0.46670 0.35700 -0.07200
S 	S 	0.69467 0.39247 0.29949 0.29400
O 	O 	0.71400 0.37230 0.35700 -0.50900
C 	C 	0.61630 0.39320 0.28280 0.12100
H 	H 	0.60220 0.40630 0.24490 0.02600
H 	H 	0.60150 0.36410 0.28200 -0.02800
H 	H 	0.60220 0.40950 0.31220 -0.02100
C 	C 	0.70370 0.44820 0.30610 -0.63900
H 	H 	0.69090 0.46140 0.26810 0.16600
H 	H 	0.67990 0.45910 0.33230 0.21900
H 	H 	0.74530 0.45480 0.32170 0.15300
Cu	Cu	0.95615 0.48070 0.11107 0.88400
Cu	Cu	0.01536 0.22844 0.19860 0.87600
Cu	Cu	0.71192 0.11597 0.95113 0.90000
Cu	Cu	0.43711 0.27332 0.77616 0.87300
Cu	Cu	0.59723 0.49539 0.91534 0.87700
Mn	Mn	0.12365 0.38230 0.24087 1.22900
Mn	Mn	0.93603 0.08562 0.07544 1.22600
Mn	Mn	0.47216 0.12392 0.89357 1.22700
Mn	Mn	0.39649 0.44381 0.76878 1.23000
Mn	Mn	0.77796 0.59268 0.03460 1.27100
C 	C 	0.83890 0.24000 0.11410 -0.10100
H 	H 	0.81530 0.26630 0.10880 0.05800
H 	H 	0.87950 0.24710 0.11080 0.05000
C 	C 	0.80280 0.18870 0.96240 0.07500
C 	C 	0.83070 0.12160 0.99900 0.09100
C 	C 	0.80600 0.19900 0.90590 -0.11000
H 	H 	0.79990 0.17760 0.87710 0.07000
C 	C 	0.81270 0.21960 0.00590 0.00500
C 	C 	0.81240 0.07660 0.01210 0.23400
C 	C 	0.94840 0.15900 0.15310 0.09400
C 	C 	0.81180 0.20730 0.06660 -0.12000
H 	H 	0.77040 0.20220 0.06890 0.06400
H 	H 	0.83320 0.18020 0.07530 0.08000
C 	C 	0.82400 0.27100 0.93290 -0.05500
H 	H 	0.82920 0.29970 0.92270 0.03900
C 	C 	0.84010 0.22230 0.17100 0.00800
C 	C 	0.82290 0.26100 0.98850 -0.05100
H 	H 	0.82920 0.28290 0.01670 0.04100
C 	C 	0.88970 0.19920 0.20270 0.06100
C 	C 	0.81770 0.23980 0.89160 -0.00500
H 	H 	0.82150 0.24630 0.85340 0.02500
C 	C 	0.83740 0.18760 0.27900 -0.01800
H 	H 	0.83560 0.17580 0.31540 0.02700
C 	C 	0.79020 0.21020 0.24770 -0.04400
H 	H 	0.75650 0.21450 0.26360 0.03800
C 	C 	0.88840 0.18230 0.25640 -0.09800
H 	H 	0.92140 0.16730 0.27770 0.05200
C 	C 	0.79060 0.22620 0.19560 -0.05800
H 	H 	0.75670 0.24060 0.17480 0.04600
C 	C 	0.00630 0.15640 0.13440 0.24300
O 	O 	0.91300 0.12930 0.14120 -0.35600
O 	O 	0.76010 0.06580 0.98870 -0.35700
O 	O 	0.85020 0.05390 0.04400 -0.42700
O 	O 	0.01290 0.12690 0.10090 -0.42100
O 	O 	0.04500 0.18360 0.15300 -0.35900
O 	O 	0.88530 0.13060 0.01320 -0.36100
N 	N 	0.78780 0.14650 0.97590 -0.23400
N 	N 	0.94260 0.19430 0.18080 -0.24200
C 	C 	0.42310 0.20350 0.83890 0.23800
C 	C 	0.65270 0.19400 0.99650 0.07100
C 	C 	0.60260 0.22460 0.80410 0.01900
C 	C 	0.64630 0.19560 0.05370 -0.10200
H 	H 	0.63820 0.17030 0.07230 0.05900
C 	C 	0.66470 0.23130 0.96860 -0.00300
C 	C 	0.54830 0.22200 0.76680 0.05500
C 	C 	0.47890 0.19500 0.81650 0.08100
C 	C 	0.59430 0.13810 0.95100 0.10000
C 	C 	0.59490 0.09430 0.92230 0.25300
C 	C 	0.60620 0.23280 0.86770 -0.11800
H 	H 	0.58910 0.26110 0.87170 0.05800
H 	H 	0.58140 0.21170 0.88200 0.07900
C 	C 	0.65140 0.23360 0.08360 -0.01100
H 	H 	0.64600 0.23420 0.12220 0.02600
C 	C 	0.65250 0.21840 0.78160 -0.06200
H 	H 	0.69040 0.22000 0.80650 0.05300
C 	C 	0.64770 0.21000 0.72350 -0.04000
H 	H 	0.68240 0.20620 0.70900 0.03300
C 	C 	0.54290 0.21300 0.70820 -0.09100
H 	H 	0.50480 0.21100 0.68370 0.04200
C 	C 	0.67030 0.26930 0.00100 -0.05400
H 	H 	0.67840 0.29490 0.98310 0.04200
C 	C 	0.66820 0.23130 0.90670 -0.10300
H 	H 	0.69110 0.25620 0.89870 0.06000
H 	H 	0.68870 0.20540 0.89810 0.06000
C 	C 	0.59210 0.20690 0.68550 -0.02400
H 	H 	0.58870 0.20090 0.64570 0.02900
C 	C 	0.66430 0.27050 0.05820 -0.05400
H 	H 	0.66910 0.29640 0.07910 0.03900
O 	O 	0.50460 0.15974 0.82780 -0.35500
O 	O 	0.54620 0.15338 0.95480 -0.37000
O 	O 	0.54660 0.07852 0.90030 -0.42800
O 	O 	0.41010 0.17640 0.87450 -0.43400
O 	O 	0.39470 0.23587 0.82190 -0.38000
O 	O 	0.64500 0.07777 0.92420 -0.37200
N 	N 	0.49500 0.22700 0.78820 -0.24100
N 	N 	0.64840 0.15440 0.96780 -0.23000
C 	C 	0.99760 0.40600 0.04750 0.07900
C 	C 	0.04440 0.42210 0.14300 0.09000
C 	C 	0.95130 0.37620 0.03220 -0.02100
C 	C 	0.85300 0.34700 0.16890 -0.06900
H 	H 	0.83470 0.36430 0.13740 0.04300
C 	C 	0.04660 0.45230 0.19300 0.23600
C 	C 	0.03810 0.41090 0.01230 -0.11400
H 	H 	0.06950 0.43060 0.02260 0.07000
C 	C 	0.91100 0.36770 0.07310 -0.07300
H 	H 	0.90220 0.39460 0.09090 0.02400
H 	H 	0.87350 0.35560 0.05140 0.04300
C 	C 	0.90760 0.32980 0.16890 0.01100
C 	C 	0.94000 0.33700 0.11980 -0.13400
H 	H 	0.94430 0.30940 0.10160 0.05700
H 	H 	0.98010 0.34760 0.13690 0.08100
C 	C 	0.03270 0.38710 0.96210 -0.01000
H 	H 	0.06040 0.39060 0.93840 0.01700
C 	C 	0.94730 0.35350 0.98240 -0.04000
H 	H 	0.91610 0.33370 0.97160 0.03900
C 	C 	0.93590 0.30420 0.21520 0.05800
C 	C 	0.98730 0.35840 0.94680 -0.05500
H 	H 	0.98330 0.34210 0.91240 0.03800
C 	C 	0.82410 0.33970 0.21340 -0.03800
H 	H 	0.78620 0.35170 0.21160 0.02900
C 	C 	0.03800 0.31220 0.22870 0.07300
C 	C 	0.09620 0.29270 0.22000 0.26700
C 	C 	0.90670 0.29750 0.26110 -0.08900
H 	H 	0.92510 0.28080 0.29330 0.05100
C 	C 	0.84990 0.31550 0.25970 -0.02300
H 	H 	0.83050 0.31070 0.29050 0.03100
O 	O 	0.01060 0.48320 0.18570 -0.36500
O 	O 	0.04020 0.35080 0.24530 -0.35400
O 	O 	0.08190 0.44400 0.23990 -0.42600
O 	O 	0.14030 0.31600 0.22710 -0.43500
O 	O 	0.09490 0.25460 0.20760 -0.37300
O 	O 	0.08060 0.39220 0.14850 -0.35400
N 	N 	0.00250 0.43150 0.09750 -0.24300
N 	N 	0.99210 0.28680 0.21680 -0.23800
C 	C 	0.65770 0.46260 0.03830 0.07600
C 	C 	0.68560 0.52720 0.00230 0.08500
C 	C 	0.88320 0.46790 0.98560 0.05700
C 	C 	0.73130 0.42020 0.99580 -0.07700
H 	H 	0.73970 0.38960 0.99270 0.04300
H 	H 	0.71000 0.43020 0.95740 0.03100
C 	C 	0.86800 0.52610 0.04110 0.08500
C 	C 	0.67760 0.55830 0.95160 0.24400
C 	C 	0.83040 0.44450 0.97260 0.01800
C 	C 	0.69370 0.42670 0.03930 -0.01900
C 	C 	0.78970 0.44480 0.01420 -0.13400
H 	H 	0.81140 0.43300 0.05150 0.05600
H 	H 	0.78020 0.47470 0.02130 0.08300
C 	C 	0.62530 0.46830 0.08090 -0.11200
H 	H 	0.60190 0.49310 0.08070 0.06300
C 	C 	0.69540 0.39770 0.08460 -0.04300
H 	H 	0.72070 0.37380 0.08720 0.03600
C 	C 	0.87990 0.54670 0.10130 0.24200
C 	C 	0.66230 0.40250 0.12480 -0.06100
H 	H 	0.66330 0.38160 0.15380 0.03700
C 	C 	0.92010 0.46970 0.94660 -0.08100
H 	H 	0.95550 0.48560 0.95580 0.02900
C 	C 	0.81740 0.42320 0.92010 -0.06900
H 	H 	0.78250 0.40660 0.91070 0.04400
C 	C 	0.62720 0.43810 0.12340 -0.00600
H 	H 	0.60430 0.44170 0.15170 0.01200
C 	C 	0.85410 0.42530 0.88080 -0.03400
H 	H 	0.84370 0.41090 0.84490 0.03400
C 	C 	0.90540 0.44830 0.89410 -0.03000
H 	H 	0.93070 0.44960 0.86770 0.03300
O 	O 	0.72380 0.53675 0.04730 -0.33800
O 	O 	0.63820 0.54937 0.90770 -0.36700
O 	O 	0.83120 0.54378 0.00120 -0.35000
O 	O 	0.70940 0.59076 0.95670 -0.40900
O 	O 	0.84900 0.57744 0.10900 -0.39600
O 	O 	0.92040 0.53020 0.13900 -0.36600
N 	N 	0.89840 0.49120 0.03860 -0.24100
N 	N 	0.65230 0.49330 0.99250 -0.23800
C 	C 	0.54510 0.33230 0.77310 0.06600
C 	C 	0.57040 0.32340 0.72650 -0.10000
H 	H 	0.54670 0.31350 0.69120 0.05200
C 	C 	0.63080 0.32930 0.73190 -0.01000
H 	H 	0.64830 0.32340 0.70010 0.02600
C 	C 	0.66540 0.34360 0.78350 -0.05200
H 	H 	0.70650 0.34780 0.78730 0.03900
C 	C 	0.52270 0.42800 0.96490 0.06200
C 	C 	0.45000 0.35990 0.76240 0.07900
C 	C 	0.55280 0.38970 0.97150 -0.00800
C 	C 	0.49820 0.49240 0.83020 0.24500
C 	C 	0.48620 0.45950 0.87370 0.09200
C 	C 	0.58940 0.37570 0.92900 -0.08800
H 	H 	0.61080 0.40030 0.91800 0.02800
H 	H 	0.61880 0.35440 0.94760 0.04900
C 	C 	0.54650 0.36280 0.01670 -0.06000
H 	H 	0.56660 0.33640 0.02180 0.04500
C 	C 	0.48730 0.43950 0.00230 -0.09400
H 	H 	0.46690 0.46580 0.99730 0.04000
C 	C 	0.51080 0.37460 0.05440 -0.04100
H 	H 	0.50680 0.35630 0.08510 0.03600
C 	C 	0.54980 0.35630 0.87470 -0.11900
H 	H 	0.51670 0.37610 0.86060 0.07200
H 	H 	0.53270 0.32970 0.88600 0.04800
C 	C 	0.38590 0.35120 0.76740 0.23800
C 	C 	0.57870 0.34650 0.82520 0.00100
C 	C 	0.63910 0.35180 0.82920 -0.05600
H 	H 	0.66290 0.36140 0.86460 0.03800
C 	C 	0.48160 0.41250 0.04720 -0.03500
H 	H 	0.45740 0.42040 0.07290 0.03300
N 	N 	0.53010 0.45690 0.91910 -0.23700
N 	N 	0.48330 0.32570 0.76790 -0.23900
O 	O 	0.37110 0.31353 0.77220 -0.38700
O 	O 	0.35210 0.38246 0.76690 -0.42800
O 	O 	0.46470 0.39792 0.75690 -0.35900
O 	O 	0.54440 0.51323 0.84180 -0.36800
O 	O 	0.43860 0.43926 0.86190 -0.36200
O 	O 	0.45980 0.49545 0.78310 -0.42300
S 	S 	0.68492 0.66162 0.05838 0.04600
O 	O 	0.73990 0.63490 0.08670 -0.21800
C 	C 	0.68260 0.70560 0.10500 -0.34300
H 	H 	0.64850 0.72340 0.08880 0.04600
H 	H 	0.71880 0.72230 0.10870 0.23400
H 	H 	0.67930 0.69520 0.14310 0.22100
C 	C 	0.62330 0.63450 0.07390 -0.23300
H 	H 	0.58720 0.65000 0.05690 0.04700
H 	H 	0.62740 0.63260 0.11580 0.12500
H 	H 	0.62120 0.60590 0.05740 0.32500
S 	S 	0.70010 0.65130 0.11660 0.27000
O 	O 	0.73990 0.64030 0.07340 -0.18700
C 	C 	0.69650 0.70440 0.11680 -0.41900
H 	H 	0.67200 0.71360 0.14330 0.07300
H 	H 	0.67930 0.71460 0.07780 0.23200
H 	H 	0.73620 0.71610 0.12950 -0.00600
C 	C 	0.63010 0.62930 0.07810 -0.30300
H 	H 	0.60010 0.63400 0.10070 0.08200
H 	H 	0.63450 0.59880 0.07240 -0.15500
H 	H 	0.61800 0.64330 0.04050 0.13400
S 	S 	0.71580 0.08920 0.81120 0.12200
O 	O 	0.73050 0.11540 0.86460 0.15800
C 	C 	0.63850 0.08400 0.78400 -0.56300
H 	H 	0.63130 0.06650 0.74900 0.15900
H 	H 	0.62100 0.11210 0.77480 0.08200
H 	H 	0.62060 0.07040 0.81320 0.19300
C 	C 	0.72680 0.03690 0.83650 0.10900
H 	H 	0.71800 0.01730 0.80370 0.00100
H 	H 	0.70070 0.03100 0.86280 -0.08300
H 	H 	0.76790 0.03330 0.85700 -0.07100
S 	S 	0.69467 0.10753 0.79949 0.29400
O 	O 	0.71400 0.12770 0.85700 -0.51000
C 	C 	0.61630 0.10680 0.78280 0.12100
H 	H 	0.60220 0.09370 0.74490 0.02600
H 	H 	0.60150 0.13590 0.78200 -0.02800
H 	H 	0.60220 0.09050 0.81220 -0.02100
C 	C 	0.70370 0.05180 0.80610 -0.63900
H 	H 	0.69090 0.03860 0.76810 0.16600
H 	H 	0.67990 0.04090 0.83230 0.21900
H 	H 	0.74530 0.04520 0.82170 0.15300
Cu	Cu	0.04385 0.98070 0.38893 0.88400
Cu	Cu	0.98464 0.72844 0.30140 0.87600
Cu	Cu	0.28808 0.61597 0.54887 0.90000
Cu	Cu	0.56289 0.77332 0.72384 0.87300
Cu	Cu	0.40277 0.99539 0.58466 0.87700
Mn	Mn	0.87635 0.88230 0.25913 1.22900
Mn	Mn	0.06397 0.58562 0.42456 1.22700
Mn	Mn	0.52784 0.62392 0.60643 1.22700
Mn	Mn	0.60351 0.94381 0.73122 1.23000
Mn	Mn	0.22204 0.09268 0.46540 1.27100
C 	C 	0.16110 0.74000 0.38590 -0.09900
H 	H 	0.18470 0.76630 0.39120 0.05700
H 	H 	0.12050 0.74710 0.38920 0.04900
C 	C 	0.19720 0.68870 0.53760 0.07200
C 	C 	0.16930 0.62160 0.50100 0.08800
C 	C 	0.19400 0.69900 0.59410 -0.10700
H 	H 	0.20010 0.67760 0.62290 0.06900
C 	C 	0.18730 0.71960 0.49410 0.01000
C 	C 	0.18760 0.57660 0.48790 0.23600
C 	C 	0.05160 0.65900 0.34690 0.09600
C 	C 	0.18820 0.70730 0.43340 -0.12300
H 	H 	0.22960 0.70220 0.43110 0.06500
H 	H 	0.16680 0.68020 0.42470 0.08100
C 	C 	0.17600 0.77100 0.56710 -0.05000
H 	H 	0.17080 0.79970 0.57730 0.03700
C 	C 	0.15990 0.72230 0.32900 0.00700
C 	C 	0.17710 0.76100 0.51150 -0.05700
H 	H 	0.17080 0.78290 0.48330 0.04400
C 	C 	0.11030 0.69920 0.29730 0.06200
C 	C 	0.18230 0.73980 0.60840 -0.00800
H 	H 	0.17850 0.74630 0.64660 0.02600
C 	C 	0.16260 0.68760 0.22100 -0.01800
H 	H 	0.16440 0.67580 0.18460 0.02700
C 	C 	0.20980 0.71020 0.25230 -0.04500
H 	H 	0.24350 0.71450 0.23640 0.03900
C 	C 	0.11160 0.68230 0.24360 -0.09800
H 	H 	0.07860 0.66730 0.22230 0.05300
C 	C 	0.20940 0.72620 0.30440 -0.05700
H 	H 	0.24330 0.74060 0.32520 0.04600
C 	C 	0.99370 0.65640 0.36560 0.24200
O 	O 	0.08700 0.62930 0.35880 -0.35600
O 	O 	0.23990 0.56580 0.51130 -0.35900
O 	O 	0.14980 0.55390 0.45600 -0.42700
O 	O 	0.98710 0.62690 0.39910 -0.42100
O 	O 	0.95500 0.68360 0.34700 -0.35900
O 	O 	0.11470 0.63060 0.48680 -0.35900
N 	N 	0.21220 0.64650 0.52410 -0.23400
N 	N 	0.05740 0.69430 0.31920 -0.24200
C 	C 	0.57690 0.70350 0.66110 0.23800
C 	C 	0.34730 0.69400 0.50350 0.07000
C 	C 	0.39740 0.72460 0.69590 0.02000
C 	C 	0.35370 0.69560 0.44630 -0.10200
H 	H 	0.36180 0.67030 0.42770 0.05900
C 	C 	0.33530 0.73130 0.53140 -0.00400
C 	C 	0.45170 0.72200 0.73320 0.05500
C 	C 	0.52110 0.69500 0.68350 0.08100
C 	C 	0.40570 0.63810 0.54900 0.10000
C 	C 	0.40510 0.59430 0.57770 0.25300
C 	C 	0.39380 0.73280 0.63230 -0.11800
H 	H 	0.41090 0.76110 0.62830 0.05800
H 	H 	0.41860 0.71170 0.61800 0.07900
C 	C 	0.34860 0.73360 0.41640 -0.01100
H 	H 	0.35400 0.73420 0.37780 0.02600
C 	C 	0.34750 0.71840 0.71840 -0.06200
H 	H 	0.30960 0.72000 0.69350 0.05300
C 	C 	0.35230 0.71000 0.77650 -0.04000
H 	H 	0.31760 0.70620 0.79100 0.03300
C 	C 	0.45710 0.71300 0.79180 -0.09100
H 	H 	0.49520 0.71100 0.81630 0.04200
C 	C 	0.32970 0.76930 0.49900 -0.05200
H 	H 	0.32160 0.79490 0.51690 0.04100
C 	C 	0.33180 0.73130 0.59330 -0.10200
H 	H 	0.30890 0.75620 0.60130 0.05900
H 	H 	0.31130 0.70540 0.60190 0.05900
C 	C 	0.40790 0.70690 0.81450 -0.02500
H 	H 	0.41130 0.70090 0.85430 0.02900
C 	C 	0.33570 0.77050 0.44180 -0.05500
H 	H 	0.33090 0.79640 0.42090 0.03900
O 	O 	0.49540 0.65974 0.67220 -0.35500
O 	O 	0.45380 0.65338 0.54520 -0.37000
O 	O 	0.45340 0.57852 0.59970 -0.42800
O 	O 	0.58990 0.67640 0.62550 -0.43400
O 	O 	0.60530 0.73587 0.67810 -0.38000
O 	O 	0.35500 0.57777 0.57580 -0.37200
N 	N 	0.50500 0.72700 0.71180 -0.24100
N 	N 	0.35160 0.65440 0.53220 -0.23000
C 	C 	0.00240 0.90600 0.45250 0.08300
C 	C 	0.95560 0.92210 0.35700 0.09000
C 	C 	0.04870 0.87620 0.46780 -0.02200
C 	C 	0.14700 0.84700 0.33110 -0.06900
H 	H 	0.16530 0.86430 0.36260 0.04400
C 	C 	0.95340 0.95230 0.30700 0.23600
C 	C 	0.96190 0.91090 0.48770 -0.12100
H 	H 	0.93050 0.93060 0.47740 0.07300
C 	C 	0.08900 0.86770 0.42690 -0.07100
H 	H 	0.09780 0.89460 0.40910 0.02400
H 	H 	0.12650 0.85560 0.44860 0.04300
C 	C 	0.09240 0.82980 0.33110 0.01200
C 	C 	0.06000 0.83700 0.38020 -0.13500
H 	H 	0.05570 0.80940 0.39840 0.05700
H 	H 	0.01990 0.84760 0.36310 0.08200
C 	C 	0.96730 0.88710 0.53790 -0.00100
H 	H 	0.93960 0.89060 0.56160 0.01400
C 	C 	0.05270 0.85350 0.51760 -0.03800
H 	H 	0.08390 0.83370 0.52840 0.03800
C 	C 	0.06410 0.80420 0.28480 0.05800
C 	C 	0.01270 0.85840 0.55320 -0.06200
H 	H 	0.01670 0.84210 0.58760 0.04000
C 	C 	0.17590 0.83970 0.28660 -0.03800
H 	H 	0.21380 0.85170 0.28840 0.02900
C 	C 	0.96200 0.81220 0.27130 0.07100
C 	C 	0.90380 0.79270 0.28000 0.26800
C 	C 	0.09330 0.79750 0.23890 -0.08900
H 	H 	0.07490 0.78080 0.20670 0.05100
C 	C 	0.15010 0.81550 0.24030 -0.02300
H 	H 	0.16950 0.81070 0.20950 0.03100
O 	O 	0.98940 0.98320 0.31430 -0.36500
O 	O 	0.95980 0.85080 0.25470 -0.35400
O 	O 	0.91810 0.94400 0.26010 -0.42600
O 	O 	0.85970 0.81600 0.27290 -0.43500
O 	O 	0.90510 0.75460 0.29240 -0.37300
O 	O 	0.91940 0.89220 0.35150 -0.35400
N 	N 	0.99750 0.93150 0.40250 -0.24400
N 	N 	0.00790 0.78680 0.28320 -0.23700
C 	C 	0.34230 0.96260 0.46170 0.07600
C 	C 	0.31440 0.02720 0.49770 0.08600
C 	C 	0.11680 0.96790 0.51440 0.05700
C 	C 	0.26870 0.92020 0.50420 -0.08000
H 	H 	0.26030 0.88960 0.50730 0.04400
H 	H 	0.29000 0.93020 0.54260 0.03100
C 	C 	0.13200 0.02610 0.45890 0.08600
C 	C 	0.32240 0.05830 0.54840 0.24300
C 	C 	0.16960 0.94450 0.52740 0.01600
C 	C 	0.30630 0.92670 0.46070 -0.01800
C 	C 	0.21030 0.94480 0.48580 -0.13100
H 	H 	0.18860 0.93300 0.44850 0.05600
H 	H 	0.21980 0.97470 0.47870 0.08200
C 	C 	0.37470 0.96830 0.41910 -0.11200
H 	H 	0.39810 0.99310 0.41930 0.06300
C 	C 	0.30460 0.89770 0.41540 -0.04400
H 	H 	0.27930 0.87380 0.41280 0.03600
C 	C 	0.12010 0.04670 0.39870 0.24200
C 	C 	0.33770 0.90250 0.37520 -0.06100
H 	H 	0.33670 0.88160 0.34620 0.03700
C 	C 	0.07990 0.96970 0.55340 -0.08100
H 	H 	0.04450 0.98560 0.54420 0.02900
C 	C 	0.18260 0.92320 0.57990 -0.06800
H 	H 	0.21750 0.90660 0.58930 0.04400
C 	C 	0.37280 0.93810 0.37660 -0.00700
H 	H 	0.39570 0.94170 0.34830 0.01200
C 	C 	0.14590 0.92530 0.61920 -0.03500
H 	H 	0.15630 0.91090 0.65510 0.03400
C 	C 	0.09460 0.94830 0.60590 -0.03000
H 	H 	0.06930 0.94960 0.63230 0.03300
O 	O 	0.27620 0.03675 0.45270 -0.33800
O 	O 	0.36180 0.04937 0.59230 -0.36600
O 	O 	0.16880 0.04378 0.49880 -0.35000
O 	O 	0.29060 0.09076 0.54330 -0.40900
O 	O 	0.15100 0.07744 0.39100 -0.39600
O 	O 	0.07960 0.03020 0.36100 -0.36500
N 	N 	0.10160 0.99120 0.46140 -0.24100
N 	N 	0.34770 0.99330 0.50750 -0.23900
C 	C 	0.45490 0.83230 0.72690 0.06600
C 	C 	0.42960 0.82340 0.77350 -0.10000
H 	H 	0.45330 0.81350 0.80880 0.05200
C 	C 	0.36920 0.82930 0.76810 -0.01000
H 	H 	0.35170 0.82340 0.79990 0.02600
C 	C 	0.33460 0.84360 0.71650 -0.05200
H 	H 	0.29350 0.84780 0.71270 0.03900
C 	C 	0.47730 0.92800 0.53510 0.06200
C 	C 	0.55000 0.85990 0.73760 0.07900
C 	C 	0.44720 0.88970 0.52850 -0.00900
C 	C 	0.50180 0.99240 0.66980 0.24500
C 	C 	0.51380 0.95950 0.62630 0.09200
C 	C 	0.41060 0.87570 0.57100 -0.08800
H 	H 	0.38920 0.90030 0.58200 0.02700
H 	H 	0.38120 0.85440 0.55240 0.04800
C 	C 	0.45350 0.86280 0.48330 -0.06000
H 	H 	0.43340 0.83640 0.47820 0.04500
C 	C 	0.51270 0.93950 0.49770 -0.09500
H 	H 	0.53310 0.96580 0.50270 0.04000
C 	C 	0.48920 0.87460 0.44560 -0.04100
H 	H 	0.49320 0.85630 0.41490 0.03600
C 	C 	0.45020 0.85630 0.62530 -0.11900
H 	H 	0.48330 0.87610 0.63940 0.07200
H 	H 	0.46730 0.82970 0.61400 0.04800
C 	C 	0.61410 0.85120 0.73260 0.23800
C 	C 	0.42130 0.84650 0.67480 0.00100
C 	C 	0.36090 0.85180 0.67080 -0.05600
H 	H 	0.33710 0.86140 0.63540 0.03800
C 	C 	0.51840 0.91250 0.45280 -0.03500
H 	H 	0.54260 0.92040 0.42710 0.03300
N 	N 	0.46990 0.95690 0.58090 -0.23700
N 	N 	0.51670 0.82570 0.73210 -0.23900
O 	O 	0.62890 0.81353 0.72780 -0.38700
O 	O 	0.64790 0.88246 0.73310 -0.42800
O 	O 	0.53530 0.89792 0.74310 -0.35900
O 	O 	0.45560 0.01323 0.65820 -0.36800
O 	O 	0.56140 0.93926 0.63810 -0.36200
O 	O 	0.54020 0.99545 0.71690 -0.42300
S 	S 	0.31508 0.16162 0.44162 0.04600
O 	O 	0.26010 0.13490 0.41330 -0.21800
C 	C 	0.31740 0.20560 0.39500 -0.34300
H 	H 	0.35150 0.22340 0.41120 0.04700
H 	H 	0.28120 0.22230 0.39130 0.23400
H 	H 	0.32070 0.19520 0.35690 0.22100
C 	C 	0.37670 0.13450 0.42610 -0.23300
H 	H 	0.41280 0.15000 0.44310 0.04700
H 	H 	0.37260 0.13260 0.38420 0.12500
H 	H 	0.37880 0.10590 0.44260 0.32500
S 	S 	0.29990 0.15130 0.38340 0.27000
O 	O 	0.26010 0.14030 0.42660 -0.18700
C 	C 	0.30350 0.20440 0.38320 -0.41900
H 	H 	0.32800 0.21360 0.35670 0.07300
H 	H 	0.32070 0.21460 0.42220 0.23200
H 	H 	0.26380 0.21610 0.37050 -0.00600
C 	C 	0.36990 0.12930 0.42190 -0.30300
H 	H 	0.39990 0.13400 0.39930 0.08200
H 	H 	0.36550 0.09880 0.42760 -0.15500
H 	H 	0.38200 0.14330 0.45950 0.13500
S 	S 	0.28420 0.58920 0.68880 0.12200
O 	O 	0.26950 0.61540 0.63540 0.15800
C 	C 	0.36150 0.58400 0.71600 -0.56300
H 	H 	0.36870 0.56650 0.75100 0.15900
H 	H 	0.37900 0.61210 0.72520 0.08200
H 	H 	0.37940 0.57040 0.68680 0.19300
C 	C 	0.27320 0.53690 0.66350 0.10900
H 	H 	0.28200 0.51730 0.69630 0.00100
H 	H 	0.29930 0.53100 0.63720 -0.08300
H 	H 	0.23210 0.53330 0.64300 -0.07200
S 	S 	0.30533 0.60753 0.70051 0.29400
O 	O 	0.28600 0.62770 0.64300 -0.50900
C 	C 	0.38370 0.60680 0.71720 0.12100
H 	H 	0.39780 0.59370 0.75510 0.02600
H 	H 	0.39850 0.63590 0.71800 -0.02800
H 	H 	0.39780 0.59050 0.68780 -0.02100
C 	C 	0.29630 0.55180 0.69390 -0.63900
H 	H 	0.30910 0.53860 0.73190 0.16600
H 	H 	0.32010 0.54090 0.66770 0.21900
H 	H 	0.25470 0.54520 0.67830 0.15300
