data_crystal

_cell_length_a 23.94500
_cell_length_b 23.94500
_cell_length_c 17.17920
_cell_angle_alpha 90.00000
_cell_angle_beta  90.00000
_cell_angle_gamma 120.00000

_symmetry_space_group_name_	'P 1'
_symmetry_space_group_name_H-M	'P 1'

loop_
_symmetry_equiv_pos_as_xyz
  x,y,z

loop_
_atom_site_label
_atom_site_type_symbol
_atom_site_fract_x
_atom_site_fract_y
_atom_site_fract_z
_atom_site_charge
Co	Co	0.27151 0.41502 0.88882 1.18800
Co	Co	0.38641 0.55617 0.79826 1.14900
Co	Co	0.17430 0.45241 0.00279 1.15000
Co	Co	0.17776 0.31282 0.74049 1.20600
O 	O 	0.30270 0.51520 0.88490 -0.51700
O 	O 	0.23040 0.53670 0.93960 -0.39500
O 	O 	0.44940 0.63060 0.72310 -0.37300
O 	O 	0.47220 0.72600 0.67390 -0.24400
O 	O 	0.17660 0.39530 0.90020 -0.54800
O 	O 	0.11690 0.34150 0.79520 -0.44400
O 	O 	0.13320 0.49940 0.06410 -0.37100
O 	O 	0.04410 0.50710 0.07100 -0.21700
O 	O 	0.25890 0.41210 0.76670 -0.50100
O 	O 	0.31420 0.51070 0.71280 -0.39700
O 	O 	0.10110 0.24860 0.66550 -0.37300
O 	O 	0.06360 0.23700 0.54760 -0.27100
O 	O 	0.27820 0.40990 0.00600 -0.45000
O 	O 	0.25020 0.47270 0.07020 -0.45300
O 	O 	0.44120 0.36650 0.11850 -0.44700
O 	O 	0.49230 0.41630 0.22740 -0.42800
O 	O 	0.31970 0.24190 0.12500 -0.06300
O 	O 	0.25250 0.31900 0.88850 -0.33700
O 	O 	0.24770 0.16710 0.18010 -2.01200
O 	O 	0.14530 0.24690 0.83290 1.48800
O 	O 	0.25000 0.29660 0.68930 -0.57000
H 	H 	0.24040 0.26320 0.65530 0.12700
H 	H 	0.27770 0.28770 0.71720 0.00100
O 	O 	0.22590 0.27570 0.68260 0.06500
N 	N 	0.35910 0.62490 0.80990 -0.20000
N 	N 	0.09040 0.42510 0.94180 -0.20400
N 	N 	0.18600 0.36670 0.64590 -0.18600
N 	N 	0.29710 0.24160 0.65190 -0.07700
C 	C 	0.31040 0.61540 0.85610 -0.04000
C 	C 	0.29390 0.66230 0.86610 -0.01300
H 	H 	0.26170 0.65640 0.90280 0.05800
C 	C 	0.32370 0.71670 0.82330 -0.03200
H 	H 	0.31260 0.74940 0.82860 0.06600
C 	C 	0.37230 0.72390 0.77010 -0.02500
H 	H 	0.39210 0.76010 0.73620 0.06400
C 	C 	0.38990 0.67810 0.76860 -0.02200
C 	C 	0.27860 0.55070 0.89430 0.34200
C 	C 	0.44090 0.67890 0.71800 0.27900
C 	C 	0.07440 0.38580 0.88220 -0.04000
C 	C 	0.01520 0.36400 0.84590 -0.03300
H 	H 	0.00380 0.33700 0.80140 0.05700
C 	C 	0.97260 0.38270 0.87630 -0.02200
H 	H 	0.93130 0.36720 0.85340 0.03100
C 	C 	0.99040 0.42270 0.93780 -0.04100
H 	H 	0.96190 0.43560 0.95870 0.07200
C 	C 	0.05100 0.44480 0.97060 -0.02000
C 	C 	0.12560 0.37170 0.85630 0.33100
C 	C 	0.07840 0.48770 0.04070 0.27900
C 	C 	0.22990 0.42840 0.64070 -0.02900
C 	C 	0.23450 0.46330 0.57580 -0.01300
H 	H 	0.26500 0.50810 0.57360 0.04900
C 	C 	0.19470 0.43310 0.51390 -0.05800
H 	H 	0.19890 0.45700 0.46810 0.05700
C 	C 	0.14890 0.36880 0.51710 -0.01000
H 	H 	0.12170 0.34720 0.47400 0.03900
C 	C 	0.14470 0.33810 0.58360 -0.04600
C 	C 	0.27080 0.45300 0.71240 0.35400
C 	C 	0.09830 0.26790 0.59960 0.34300
C 	C 	0.32300 0.44690 0.13050 -0.12600
C 	C 	0.36440 0.42300 0.12380 0.05600
H 	H 	0.36530 0.40260 0.07670 0.04500
C 	C 	0.40550 0.42820 0.18530 -0.11400
C 	C 	0.40430 0.45950 0.25250 0.04100
H 	H 	0.43290 0.46510 0.29400 0.05200
C 	C 	0.36200 0.48280 0.25970 -0.10500
H 	H 	0.36040 0.50250 0.30700 0.08300
C 	C 	0.32240 0.47770 0.19910 0.04000
H 	H 	0.29460 0.49520 0.20380 0.03700
C 	C 	0.28000 0.44210 0.06360 0.38300
C 	C 	0.45030 0.40180 0.17580 0.37100
C 	C 	0.17950 0.22300 0.94780 -0.78100
C 	C 	0.11530 0.18160 0.96740 0.33300
H 	H 	0.08220 0.17310 0.93090 -0.11800
C 	C 	0.09970 0.15260 0.04030 -0.13200
H 	H 	0.05580 0.12430 0.05360 0.07200
C 	C 	0.14810 0.16500 0.09370 -0.21200
H 	H 	0.13740 0.14520 0.14350 0.12700
C 	C 	0.21230 0.20640 0.07410 0.63100
C 	C 	0.22800 0.23540 0.00120 -0.01200
H 	H 	0.27180 0.26370 0.98790 0.02600
C 	C 	0.26550 0.20960 0.12500 -0.05500
C 	C 	0.19100 0.26700 0.88200 0.62100
C 	C 	0.27070 0.27060 0.70400 0.35400
H 	H 	0.28880 0.28530 0.75440 -0.02400
C 	C 	0.26870 0.21620 0.59600 -0.26300
H 	H 	0.24050 0.23340 0.58210 0.09800
H 	H 	0.24250 0.16980 0.60600 0.11000
H 	H 	0.29890 0.22390 0.55380 0.11900
C 	C 	0.34300 0.22280 0.68710 -0.30700
H 	H 	0.38570 0.26120 0.69270 0.13200
H 	H 	0.34600 0.19160 0.65310 0.12300
H 	H 	0.32700 0.20340 0.73840 0.11600
Co	Co	0.41502 0.27151 0.11118 1.18900
Co	Co	0.55617 0.38641 0.20174 1.15000
Co	Co	0.45241 0.17430 0.99721 1.15100
Co	Co	0.31282 0.17776 0.25951 1.20700
O 	O 	0.51520 0.30270 0.11510 -0.51600
O 	O 	0.53670 0.23040 0.06040 -0.39400
O 	O 	0.63060 0.44940 0.27690 -0.37200
O 	O 	0.72600 0.47220 0.32610 -0.24300
O 	O 	0.39530 0.17660 0.09980 -0.54700
O 	O 	0.34150 0.11690 0.20480 -0.44300
O 	O 	0.49940 0.13320 0.93590 -0.37100
O 	O 	0.50710 0.04410 0.92900 -0.21700
O 	O 	0.41210 0.25890 0.23330 -0.50100
O 	O 	0.51070 0.31420 0.28720 -0.39700
O 	O 	0.24860 0.10110 0.33450 -0.37300
O 	O 	0.23700 0.06360 0.45240 -0.27100
O 	O 	0.40990 0.27820 0.99400 -0.45000
O 	O 	0.47270 0.25020 0.92980 -0.45300
O 	O 	0.36650 0.44120 0.88150 -0.44700
O 	O 	0.41630 0.49230 0.77260 -0.42800
O 	O 	0.24190 0.31970 0.87500 -0.06300
O 	O 	0.31900 0.25250 0.11150 -0.33700
O 	O 	0.16710 0.24770 0.81990 -2.01200
O 	O 	0.24690 0.14530 0.16710 1.48800
O 	O 	0.29660 0.25000 0.31070 -0.57000
H 	H 	0.26320 0.24040 0.34470 0.12700
H 	H 	0.28770 0.27770 0.28280 0.00100
O 	O 	0.27570 0.22590 0.31740 0.06500
N 	N 	0.62490 0.35910 0.19010 -0.20000
N 	N 	0.42510 0.09040 0.05820 -0.20400
N 	N 	0.36670 0.18600 0.35410 -0.18600
N 	N 	0.24160 0.29710 0.34810 -0.07700
C 	C 	0.61540 0.31040 0.14390 -0.04000
C 	C 	0.66230 0.29390 0.13390 -0.01300
H 	H 	0.65640 0.26170 0.09720 0.05800
C 	C 	0.71670 0.32370 0.17670 -0.03200
H 	H 	0.74940 0.31260 0.17140 0.06600
C 	C 	0.72390 0.37230 0.22990 -0.02500
H 	H 	0.76010 0.39210 0.26380 0.06400
C 	C 	0.67810 0.38990 0.23140 -0.02200
C 	C 	0.55070 0.27860 0.10570 0.34200
C 	C 	0.67890 0.44090 0.28200 0.27900
C 	C 	0.38580 0.07440 0.11780 -0.04000
C 	C 	0.36400 0.01520 0.15410 -0.03300
H 	H 	0.33700 0.00380 0.19860 0.05700
C 	C 	0.38270 0.97260 0.12370 -0.02200
H 	H 	0.36720 0.93130 0.14660 0.03100
C 	C 	0.42270 0.99040 0.06220 -0.04100
H 	H 	0.43560 0.96190 0.04130 0.07200
C 	C 	0.44480 0.05100 0.02940 -0.02000
C 	C 	0.37170 0.12560 0.14370 0.33100
C 	C 	0.48770 0.07840 0.95930 0.27900
C 	C 	0.42840 0.22990 0.35930 -0.02900
C 	C 	0.46330 0.23450 0.42420 -0.01300
H 	H 	0.50810 0.26500 0.42640 0.04900
C 	C 	0.43310 0.19470 0.48610 -0.05800
H 	H 	0.45700 0.19890 0.53190 0.05700
C 	C 	0.36880 0.14890 0.48290 -0.01000
H 	H 	0.34720 0.12170 0.52600 0.03900
C 	C 	0.33810 0.14470 0.41640 -0.04600
C 	C 	0.45300 0.27080 0.28760 0.35400
C 	C 	0.26790 0.09830 0.40040 0.34300
C 	C 	0.44690 0.32300 0.86950 -0.12600
C 	C 	0.42300 0.36440 0.87620 0.05600
H 	H 	0.40260 0.36530 0.92330 0.04500
C 	C 	0.42820 0.40550 0.81470 -0.11400
C 	C 	0.45950 0.40430 0.74750 0.04100
H 	H 	0.46510 0.43290 0.70600 0.05200
C 	C 	0.48280 0.36200 0.74030 -0.10500
H 	H 	0.50250 0.36040 0.69300 0.08300
C 	C 	0.47770 0.32240 0.80090 0.04000
H 	H 	0.49520 0.29460 0.79620 0.03700
C 	C 	0.44210 0.28000 0.93640 0.38300
C 	C 	0.40180 0.45030 0.82420 0.37100
C 	C 	0.22300 0.17950 0.05220 -0.78100
C 	C 	0.18160 0.11530 0.03260 0.33300
H 	H 	0.17310 0.08220 0.06910 -0.11800
C 	C 	0.15260 0.09970 0.95970 -0.13200
H 	H 	0.12430 0.05580 0.94640 0.07200
C 	C 	0.16500 0.14810 0.90630 -0.21200
H 	H 	0.14520 0.13740 0.85650 0.12700
C 	C 	0.20640 0.21230 0.92590 0.63100
C 	C 	0.23540 0.22800 0.99880 -0.01200
H 	H 	0.26370 0.27180 0.01210 0.02600
C 	C 	0.20960 0.26550 0.87500 -0.05500
C 	C 	0.26700 0.19100 0.11800 0.62100
C 	C 	0.27060 0.27070 0.29600 0.35400
H 	H 	0.28530 0.28880 0.24560 -0.02400
C 	C 	0.21620 0.26870 0.40400 -0.26300
H 	H 	0.23340 0.24050 0.41790 0.09800
H 	H 	0.16980 0.24250 0.39400 0.11000
H 	H 	0.22390 0.29890 0.44620 0.11900
C 	C 	0.22280 0.34300 0.31290 -0.30700
H 	H 	0.26120 0.38570 0.30730 0.13200
H 	H 	0.19160 0.34600 0.34690 0.12300
H 	H 	0.20340 0.32700 0.26160 0.11600
Co	Co	0.58498 0.85649 0.22215 1.18900
Co	Co	0.44383 0.83024 0.13159 1.15000
Co	Co	0.54759 0.72189 0.33612 1.15100
Co	Co	0.68718 0.86494 0.07382 1.20700
O 	O 	0.48480 0.78750 0.21823 -0.51600
O 	O 	0.46330 0.69370 0.27293 -0.39400
O 	O 	0.36940 0.81880 0.05643 -0.37200
O 	O 	0.27400 0.74620 0.00723 -0.24300
O 	O 	0.60470 0.78130 0.23353 -0.54700
O 	O 	0.65850 0.77540 0.12853 -0.44300
O 	O 	0.50060 0.63380 0.39743 -0.37100
O 	O 	0.49290 0.53700 0.40433 -0.21700
O 	O 	0.58790 0.84680 0.10003 -0.50100
O 	O 	0.48930 0.80350 0.04613 -0.39700
O 	O 	0.75140 0.85250 0.99883 -0.37300
O 	O 	0.76300 0.82660 0.88093 -0.27200
O 	O 	0.59010 0.86830 0.33933 -0.45000
O 	O 	0.52730 0.77750 0.40353 -0.45300
O 	O 	0.63350 0.07470 0.45183 -0.44700
O 	O 	0.58370 0.07600 0.56073 -0.42800
O 	O 	0.75810 0.07780 0.45833 -0.06300
O 	O 	0.68100 0.93350 0.22183 -0.33700
O 	O 	0.83290 0.08060 0.51343 -2.01300
O 	O 	0.75310 0.89840 0.16623 1.48700
O 	O 	0.70340 0.95340 0.02263 -0.57000
H 	H 	0.73680 0.97720 0.98863 0.12700
H 	H 	0.71230 0.99000 0.05053 0.00100
O 	O 	0.72430 0.95020 0.01593 0.06500
N 	N 	0.37510 0.73420 0.14323 -0.20000
N 	N 	0.57490 0.66530 0.27513 -0.20400
N 	N 	0.63330 0.81930 0.97923 -0.18600
N 	N 	0.75840 0.05550 0.98523 -0.07700
C 	C 	0.38460 0.69500 0.18943 -0.04000
C 	C 	0.33770 0.63160 0.19943 -0.01300
H 	H 	0.34360 0.60530 0.23613 0.05800
C 	C 	0.28330 0.60700 0.15663 -0.03200
H 	H 	0.25060 0.56320 0.16193 0.06600
C 	C 	0.27610 0.64840 0.10343 -0.02500
H 	H 	0.23990 0.63200 0.06953 0.06400
C 	C 	0.32190 0.71180 0.10193 -0.02200
C 	C 	0.44930 0.72790 0.22763 0.34200
C 	C 	0.32110 0.76200 0.05133 0.27900
C 	C 	0.61420 0.68860 0.21553 -0.04000
C 	C 	0.63600 0.65120 0.17923 -0.03300
H 	H 	0.66300 0.66680 0.13473 0.05700
C 	C 	0.61730 0.58990 0.20963 -0.02200
H 	H 	0.63280 0.56410 0.18673 0.03100
C 	C 	0.57730 0.56770 0.27113 -0.04200
H 	H 	0.56440 0.52630 0.29203 0.07200
C 	C 	0.55520 0.60620 0.30393 -0.02000
C 	C 	0.62830 0.75390 0.18963 0.33100
C 	C 	0.51230 0.59070 0.37403 0.27900
C 	C 	0.57160 0.80150 0.97403 -0.02900
C 	C 	0.53670 0.77120 0.90913 -0.01300
H 	H 	0.49190 0.75690 0.90693 0.04900
C 	C 	0.56690 0.76160 0.84723 -0.05800
H 	H 	0.54300 0.74190 0.80143 0.05700
C 	C 	0.63120 0.78010 0.85043 -0.01000
H 	H 	0.65280 0.77450 0.80733 0.03900
C 	C 	0.66190 0.80660 0.91693 -0.04600
C 	C 	0.54700 0.81780 0.04573 0.35400
C 	C 	0.73210 0.83040 0.93293 0.34300
C 	C 	0.55310 0.87610 0.46383 -0.12700
C 	C 	0.57700 0.94140 0.45713 0.05600
H 	H 	0.59740 0.96270 0.41003 0.04500
C 	C 	0.57180 0.97730 0.51863 -0.11400
C 	C 	0.54050 0.94480 0.58583 0.04100
H 	H 	0.53490 0.96780 0.62733 0.05200
C 	C 	0.51720 0.87920 0.59303 -0.10500
H 	H 	0.49750 0.85790 0.64033 0.08400
C 	C 	0.52230 0.84470 0.53243 0.04000
H 	H 	0.50480 0.79940 0.53713 0.03700
C 	C 	0.55790 0.83790 0.39693 0.38300
C 	C 	0.59820 0.04850 0.50913 0.37100
C 	C 	0.77700 0.95650 0.28113 -0.78000
C 	C 	0.81840 0.93370 0.30073 0.33200
H 	H 	0.82690 0.90910 0.26423 -0.11800
C 	C 	0.84740 0.94710 0.37363 -0.13100
H 	H 	0.87570 0.93150 0.38693 0.07100
C 	C 	0.83500 0.98310 0.42703 -0.21300
H 	H 	0.85480 0.99220 0.47683 0.12800
C 	C 	0.79360 0.00590 0.40743 0.63200
C 	C 	0.76460 0.99260 0.33453 -0.01200
H 	H 	0.73630 0.00810 0.32123 0.02700
C 	C 	0.79040 0.05590 0.45833 -0.05500
C 	C 	0.73300 0.92400 0.21533 0.62000
C 	C 	0.72940 0.00010 0.03733 0.35500
H 	H 	0.71470 0.00350 0.08773 -0.02400
C 	C 	0.78380 0.05250 0.92933 -0.26400
H 	H 	0.76660 0.00710 0.91543 0.09800
H 	H 	0.83020 0.07270 0.93933 0.11000
H 	H 	0.77610 0.07500 0.88713 0.11900
C 	C 	0.77720 0.12020 0.02043 -0.30800
H 	H 	0.73880 0.12450 0.02603 0.13300
H 	H 	0.80840 0.15440 0.98643 0.12400
H 	H 	0.79660 0.12360 0.07173 0.11700
Co	Co	0.72849 0.14351 0.44451 1.18900
Co	Co	0.61359 0.16976 0.53507 1.15000
Co	Co	0.82570 0.27811 0.33054 1.15100
Co	Co	0.82224 0.13506 0.59284 1.20700
O 	O 	0.69730 0.21250 0.44843 -0.51600
O 	O 	0.76960 0.30630 0.39373 -0.39400
O 	O 	0.55060 0.18120 0.61023 -0.37200
O 	O 	0.52780 0.25380 0.65943 -0.24300
O 	O 	0.82340 0.21870 0.43313 -0.54700
O 	O 	0.88310 0.22460 0.53813 -0.44300
O 	O 	0.86680 0.36620 0.26923 -0.37100
O 	O 	0.95590 0.46300 0.26233 -0.21700
O 	O 	0.74110 0.15320 0.56663 -0.50100
O 	O 	0.68580 0.19650 0.62053 -0.39700
O 	O 	0.89890 0.14750 0.66783 -0.37300
O 	O 	0.93640 0.17340 0.78573 -0.27200
O 	O 	0.72180 0.13170 0.32733 -0.45000
O 	O 	0.74980 0.22250 0.26313 -0.45300
O 	O 	0.55880 0.92530 0.21483 -0.44700
O 	O 	0.50770 0.92400 0.10593 -0.42800
O 	O 	0.68030 0.92220 0.20833 -0.06300
O 	O 	0.74750 0.06650 0.44483 -0.33700
O 	O 	0.75230 0.91940 0.15323 -2.01100
O 	O 	0.85470 0.10160 0.50043 1.48900
O 	O 	0.75000 0.04660 0.64403 -0.57100
H 	H 	0.75960 0.02280 0.67803 0.12700
H 	H 	0.72230 0.01000 0.61613 0.00000
O 	O 	0.77410 0.04980 0.65073 0.06500
N 	N 	0.64090 0.26580 0.52343 -0.20000
N 	N 	0.90960 0.33470 0.39153 -0.20400
N 	N 	0.81400 0.18070 0.68743 -0.18600
N 	N 	0.70290 0.94450 0.68143 -0.07800
C 	C 	0.68960 0.30500 0.47723 -0.04000
C 	C 	0.70610 0.36840 0.46723 -0.01300
H 	H 	0.73830 0.39470 0.43053 0.05800
C 	C 	0.67630 0.39300 0.51003 -0.03200
H 	H 	0.68740 0.43680 0.50473 0.06600
C 	C 	0.62770 0.35160 0.56323 -0.02500
H 	H 	0.60790 0.36800 0.59713 0.06400
C 	C 	0.61010 0.28820 0.56473 -0.02200
C 	C 	0.72140 0.27210 0.43903 0.34200
C 	C 	0.55910 0.23800 0.61533 0.27900
C 	C 	0.92560 0.31140 0.45113 -0.04000
C 	C 	0.98480 0.34880 0.48743 -0.03300
H 	H 	0.99620 0.33320 0.53193 0.05700
C 	C 	0.02740 0.41010 0.45703 -0.02200
H 	H 	0.06870 0.43590 0.47993 0.03100
C 	C 	0.00960 0.43230 0.39553 -0.04100
H 	H 	0.03810 0.47370 0.37463 0.07200
C 	C 	0.94900 0.39380 0.36273 -0.02000
C 	C 	0.87440 0.24610 0.47703 0.33100
C 	C 	0.92160 0.40930 0.29263 0.27900
C 	C 	0.77010 0.19850 0.69263 -0.02900
C 	C 	0.76550 0.22880 0.75753 -0.01300
H 	H 	0.73500 0.24310 0.75973 0.04900
C 	C 	0.80530 0.23840 0.81943 -0.05800
H 	H 	0.80110 0.25810 0.86523 0.05700
C 	C 	0.85110 0.21990 0.81623 -0.01000
H 	H 	0.87830 0.22550 0.85933 0.03900
C 	C 	0.85530 0.19340 0.74973 -0.04600
C 	C 	0.72920 0.18220 0.62093 0.35400
C 	C 	0.90170 0.16960 0.73373 0.34300
C 	C 	0.67700 0.12390 0.20283 -0.12600
C 	C 	0.63560 0.05860 0.20953 0.05600
H 	H 	0.63470 0.03730 0.25663 0.04500
C 	C 	0.59450 0.02270 0.14803 -0.11400
C 	C 	0.59570 0.05520 0.08083 0.04100
H 	H 	0.56710 0.03220 0.03933 0.05200
C 	C 	0.63800 0.12080 0.07363 -0.10500
H 	H 	0.63960 0.14210 0.02633 0.08300
C 	C 	0.67760 0.15530 0.13423 0.04000
H 	H 	0.70540 0.20060 0.12953 0.03700
C 	C 	0.72000 0.16210 0.26973 0.38300
C 	C 	0.54970 0.95150 0.15753 0.37100
C 	C 	0.82050 0.04350 0.38553 -0.78200
C 	C 	0.88470 0.06630 0.36593 0.33300
H 	H 	0.91780 0.09090 0.40243 -0.11900
C 	C 	0.90030 0.05290 0.29303 -0.13300
H 	H 	0.94420 0.06850 0.27973 0.07200
C 	C 	0.85190 0.01690 0.23963 -0.21100
H 	H 	0.86260 0.00780 0.18983 0.12700
C 	C 	0.78770 0.99410 0.25923 0.63000
C 	C 	0.77200 0.00740 0.33213 -0.01200
H 	H 	0.72820 0.99190 0.34543 0.02500
C 	C 	0.73450 0.94410 0.20833 -0.05500
C 	C 	0.80900 0.07600 0.45133 0.62100
C 	C 	0.72930 0.99990 0.62933 0.35500
H 	H 	0.71120 0.99650 0.57893 -0.02400
C 	C 	0.73130 0.94750 0.73733 -0.26300
H 	H 	0.75950 0.99290 0.75123 0.09700
H 	H 	0.75750 0.92730 0.72733 0.11000
H 	H 	0.70110 0.92500 0.77953 0.11800
C 	C 	0.65700 0.87980 0.64623 -0.30600
H 	H 	0.61430 0.87550 0.64063 0.13200
H 	H 	0.65400 0.84560 0.68023 0.12300
H 	H 	0.67300 0.87640 0.59493 0.11600
Co	Co	0.14351 0.72849 0.55549 1.18900
Co	Co	0.16976 0.61359 0.46493 1.15000
Co	Co	0.27811 0.82570 0.66946 1.15100
Co	Co	0.13506 0.82224 0.40716 1.20700
O 	O 	0.21250 0.69730 0.55157 -0.51600
O 	O 	0.30630 0.76960 0.60627 -0.39400
O 	O 	0.18120 0.55060 0.38977 -0.37200
O 	O 	0.25380 0.52780 0.34057 -0.24300
O 	O 	0.21870 0.82340 0.56687 -0.54700
O 	O 	0.22460 0.88310 0.46187 -0.44300
O 	O 	0.36620 0.86680 0.73077 -0.37100
O 	O 	0.46300 0.95590 0.73767 -0.21700
O 	O 	0.15320 0.74110 0.43337 -0.50100
O 	O 	0.19650 0.68580 0.37947 -0.39700
O 	O 	0.14750 0.89890 0.33217 -0.37300
O 	O 	0.17340 0.93640 0.21427 -0.27200
O 	O 	0.13170 0.72180 0.67267 -0.45000
O 	O 	0.22250 0.74980 0.73687 -0.45300
O 	O 	0.92530 0.55880 0.78517 -0.44700
O 	O 	0.92400 0.50770 0.89407 -0.42800
O 	O 	0.92220 0.68030 0.79167 -0.06300
O 	O 	0.06650 0.74750 0.55517 -0.33700
O 	O 	0.91940 0.75230 0.84677 -2.01100
O 	O 	0.10160 0.85470 0.49957 1.48900
O 	O 	0.04660 0.75000 0.35597 -0.57100
H 	H 	0.02280 0.75960 0.32197 0.12700
H 	H 	0.01000 0.72230 0.38387 0.00000
O 	O 	0.04980 0.77410 0.34927 0.06500
N 	N 	0.26580 0.64090 0.47657 -0.20000
N 	N 	0.33470 0.90960 0.60847 -0.20400
N 	N 	0.18070 0.81400 0.31257 -0.18600
N 	N 	0.94450 0.70290 0.31857 -0.07800
C 	C 	0.30500 0.68960 0.52277 -0.04000
C 	C 	0.36840 0.70610 0.53277 -0.01300
H 	H 	0.39470 0.73830 0.56947 0.05800
C 	C 	0.39300 0.67630 0.48997 -0.03200
H 	H 	0.43680 0.68740 0.49527 0.06600
C 	C 	0.35160 0.62770 0.43677 -0.02500
H 	H 	0.36800 0.60790 0.40287 0.06400
C 	C 	0.28820 0.61010 0.43527 -0.02200
C 	C 	0.27210 0.72140 0.56097 0.34200
C 	C 	0.23800 0.55910 0.38467 0.27900
C 	C 	0.31140 0.92560 0.54887 -0.04000
C 	C 	0.34880 0.98480 0.51257 -0.03300
H 	H 	0.33320 0.99620 0.46807 0.05700
C 	C 	0.41010 0.02740 0.54297 -0.02200
H 	H 	0.43590 0.06870 0.52007 0.03100
C 	C 	0.43230 0.00960 0.60447 -0.04100
H 	H 	0.47370 0.03810 0.62537 0.07200
C 	C 	0.39380 0.94900 0.63727 -0.02000
C 	C 	0.24610 0.87440 0.52297 0.33100
C 	C 	0.40930 0.92160 0.70737 0.27900
C 	C 	0.19850 0.77010 0.30737 -0.02900
C 	C 	0.22880 0.76550 0.24247 -0.01300
H 	H 	0.24310 0.73500 0.24027 0.04900
C 	C 	0.23840 0.80530 0.18057 -0.05800
H 	H 	0.25810 0.80110 0.13477 0.05700
C 	C 	0.21990 0.85110 0.18377 -0.01000
H 	H 	0.22550 0.87830 0.14067 0.03900
C 	C 	0.19340 0.85530 0.25027 -0.04600
C 	C 	0.18220 0.72920 0.37907 0.35400
C 	C 	0.16960 0.90170 0.26627 0.34300
C 	C 	0.12390 0.67700 0.79717 -0.12600
C 	C 	0.05860 0.63560 0.79047 0.05600
H 	H 	0.03730 0.63470 0.74337 0.04500
C 	C 	0.02270 0.59450 0.85197 -0.11400
C 	C 	0.05520 0.59570 0.91917 0.04100
H 	H 	0.03220 0.56710 0.96067 0.05200
C 	C 	0.12080 0.63800 0.92637 -0.10500
H 	H 	0.14210 0.63960 0.97367 0.08300
C 	C 	0.15530 0.67760 0.86577 0.04000
H 	H 	0.20060 0.70540 0.87047 0.03700
C 	C 	0.16210 0.72000 0.73027 0.38300
C 	C 	0.95150 0.54970 0.84247 0.37100
C 	C 	0.04350 0.82050 0.61447 -0.78200
C 	C 	0.06630 0.88470 0.63407 0.33300
H 	H 	0.09090 0.91780 0.59757 -0.11900
C 	C 	0.05290 0.90030 0.70697 -0.13300
H 	H 	0.06850 0.94420 0.72027 0.07200
C 	C 	0.01690 0.85190 0.76037 -0.21100
H 	H 	0.00780 0.86260 0.81017 0.12700
C 	C 	0.99410 0.78770 0.74077 0.63000
C 	C 	0.00740 0.77200 0.66787 -0.01200
H 	H 	0.99190 0.72820 0.65457 0.02500
C 	C 	0.94410 0.73450 0.79167 -0.05500
C 	C 	0.07600 0.80900 0.54867 0.62100
C 	C 	0.99990 0.72930 0.37067 0.35500
H 	H 	0.99650 0.71120 0.42107 -0.02400
C 	C 	0.94750 0.73130 0.26267 -0.26300
H 	H 	0.99290 0.75950 0.24877 0.09700
H 	H 	0.92730 0.75750 0.27267 0.11000
H 	H 	0.92500 0.70110 0.22047 0.11800
C 	C 	0.87980 0.65700 0.35377 -0.30600
H 	H 	0.87550 0.61430 0.35937 0.13200
H 	H 	0.84560 0.65400 0.31977 0.12300
H 	H 	0.87640 0.67300 0.40507 0.11600
Co	Co	0.85649 0.58498 0.77785 1.18900
Co	Co	0.83024 0.44383 0.86841 1.15000
Co	Co	0.72189 0.54759 0.66388 1.15100
Co	Co	0.86494 0.68718 0.92618 1.20700
O 	O 	0.78750 0.48480 0.78177 -0.51600
O 	O 	0.69370 0.46330 0.72707 -0.39400
O 	O 	0.81880 0.36940 0.94357 -0.37200
O 	O 	0.74620 0.27400 0.99277 -0.24300
O 	O 	0.78130 0.60470 0.76647 -0.54700
O 	O 	0.77540 0.65850 0.87147 -0.44300
O 	O 	0.63380 0.50060 0.60257 -0.37100
O 	O 	0.53700 0.49290 0.59567 -0.21700
O 	O 	0.84680 0.58790 0.89997 -0.50100
O 	O 	0.80350 0.48930 0.95387 -0.39700
O 	O 	0.85250 0.75140 0.00117 -0.37300
O 	O 	0.82660 0.76300 0.11907 -0.27200
O 	O 	0.86830 0.59010 0.66067 -0.45000
O 	O 	0.77750 0.52730 0.59647 -0.45300
O 	O 	0.07470 0.63350 0.54817 -0.44700
O 	O 	0.07600 0.58370 0.43927 -0.42800
O 	O 	0.07780 0.75810 0.54167 -0.06300
O 	O 	0.93350 0.68100 0.77817 -0.33700
O 	O 	0.08060 0.83290 0.48657 -2.01300
O 	O 	0.89840 0.75310 0.83377 1.48700
O 	O 	0.95340 0.70340 0.97737 -0.57000
H 	H 	0.97720 0.73680 0.01137 0.12700
H 	H 	0.99000 0.71230 0.94947 0.00100
O 	O 	0.95020 0.72430 0.98407 0.06500
N 	N 	0.73420 0.37510 0.85677 -0.20000
N 	N 	0.66530 0.57490 0.72487 -0.20400
N 	N 	0.81930 0.63330 0.02077 -0.18600
N 	N 	0.05550 0.75840 0.01477 -0.07700
C 	C 	0.69500 0.38460 0.81057 -0.04000
C 	C 	0.63160 0.33770 0.80057 -0.01300
H 	H 	0.60530 0.34360 0.76387 0.05800
C 	C 	0.60700 0.28330 0.84337 -0.03200
H 	H 	0.56320 0.25060 0.83807 0.06600
C 	C 	0.64840 0.27610 0.89657 -0.02500
H 	H 	0.63200 0.23990 0.93047 0.06400
C 	C 	0.71180 0.32190 0.89807 -0.02200
C 	C 	0.72790 0.44930 0.77237 0.34200
C 	C 	0.76200 0.32110 0.94867 0.27900
C 	C 	0.68860 0.61420 0.78447 -0.04000
C 	C 	0.65120 0.63600 0.82077 -0.03300
H 	H 	0.66680 0.66300 0.86527 0.05700
C 	C 	0.58990 0.61730 0.79037 -0.02200
H 	H 	0.56410 0.63280 0.81327 0.03100
C 	C 	0.56770 0.57730 0.72887 -0.04200
H 	H 	0.52630 0.56440 0.70797 0.07200
C 	C 	0.60620 0.55520 0.69607 -0.02000
C 	C 	0.75390 0.62830 0.81037 0.33100
C 	C 	0.59070 0.51230 0.62597 0.27900
C 	C 	0.80150 0.57160 0.02597 -0.02900
C 	C 	0.77120 0.53670 0.09087 -0.01300
H 	H 	0.75690 0.49190 0.09307 0.04900
C 	C 	0.76160 0.56690 0.15277 -0.05800
H 	H 	0.74190 0.54300 0.19857 0.05700
C 	C 	0.78010 0.63120 0.14957 -0.01000
H 	H 	0.77450 0.65280 0.19267 0.03900
C 	C 	0.80660 0.66190 0.08307 -0.04600
C 	C 	0.81780 0.54700 0.95427 0.35400
C 	C 	0.83040 0.73210 0.06707 0.34300
C 	C 	0.87610 0.55310 0.53617 -0.12700
C 	C 	0.94140 0.57700 0.54287 0.05600
H 	H 	0.96270 0.59740 0.58997 0.04500
C 	C 	0.97730 0.57180 0.48137 -0.11400
C 	C 	0.94480 0.54050 0.41417 0.04100
H 	H 	0.96780 0.53490 0.37267 0.05200
C 	C 	0.87920 0.51720 0.40697 -0.10500
H 	H 	0.85790 0.49750 0.35967 0.08400
C 	C 	0.84470 0.52230 0.46757 0.04000
H 	H 	0.79940 0.50480 0.46287 0.03700
C 	C 	0.83790 0.55790 0.60307 0.38300
C 	C 	0.04850 0.59820 0.49087 0.37100
C 	C 	0.95650 0.77700 0.71887 -0.78000
C 	C 	0.93370 0.81840 0.69927 0.33200
H 	H 	0.90910 0.82690 0.73577 -0.11800
C 	C 	0.94710 0.84740 0.62637 -0.13100
H 	H 	0.93150 0.87570 0.61307 0.07100
C 	C 	0.98310 0.83500 0.57297 -0.21300
H 	H 	0.99220 0.85480 0.52317 0.12800
C 	C 	0.00590 0.79360 0.59257 0.63200
C 	C 	0.99260 0.76460 0.66547 -0.01200
H 	H 	0.00810 0.73630 0.67877 0.02700
C 	C 	0.05590 0.79040 0.54167 -0.05500
C 	C 	0.92400 0.73300 0.78467 0.62000
C 	C 	0.00010 0.72940 0.96267 0.35500
H 	H 	0.00350 0.71470 0.91227 -0.02400
C 	C 	0.05250 0.78380 0.07067 -0.26400
H 	H 	0.00710 0.76660 0.08457 0.09800
H 	H 	0.07270 0.83020 0.06067 0.11000
H 	H 	0.07500 0.77610 0.11287 0.11900
C 	C 	0.12020 0.77720 0.97957 -0.30800
H 	H 	0.12450 0.73880 0.97397 0.13300
H 	H 	0.15440 0.80840 0.01357 0.12400
H 	H 	0.12360 0.79660 0.92827 0.11700
