data_crystal

_cell_length_a 40.53300
_cell_length_b 40.53300
_cell_length_c 64.80400
_cell_angle_alpha 90.00000
_cell_angle_beta  90.00000
_cell_angle_gamma 90.00000

_symmetry_space_group_name_	'P 1'
_symmetry_space_group_name_H-M	'P 1'

loop_
_symmetry_equiv_pos_as_xyz
  x,y,z

loop_
_atom_site_label
_atom_site_type_symbol
_atom_site_fract_x
_atom_site_fract_y
_atom_site_fract_z
_atom_site_charge
Co	Co	0.24138 0.13862 0.46694 1.17600
Co	Co	0.46718 0.45916 0.22160 1.18000
S 	S 	0.20181 0.09044 0.43879 0.47200
S 	S 	0.43713 0.42536 0.18257 0.44500
O 	O 	0.22340 0.11780 0.43923 -0.37100
O 	O 	0.19220 0.07930 0.41859 -0.27900
O 	O 	0.24960 0.09104 0.47716 -0.49700
O 	O 	0.19283 0.13557 0.47772 -0.48400
O 	O 	0.43840 0.42610 0.20494 -0.35900
O 	O 	0.41530 0.40170 0.17318 -0.25700
O 	O 	0.50620 0.44900 0.20131 -0.47900
O 	O 	0.28730 0.14200 0.45419 -0.42200
O 	O 	0.31840 0.11830 0.47830 -0.42000
O 	O 	0.48160 0.42180 0.24004 -0.43500
O 	O 	0.53370 0.42870 0.24193 -0.44100
O 	O 	0.81450 0.23470 0.45485 -0.50200
O 	O 	0.79210 0.20720 0.47846 -0.48700
C 	C 	0.24010 0.06030 0.46920 0.32000
C 	C 	0.21920 0.05760 0.45226 -0.27900
C 	C 	0.21090 0.02670 0.44458 0.23100
H 	H 	0.19670 0.02490 0.43300 -0.06300
C 	C 	0.22360 0.99846 0.45383 -0.38400
C 	C 	0.24450 0.00120 0.47075 0.22100
H 	H 	0.25310 0.98190 0.47710 -0.05200
C 	C 	0.25270 0.03210 0.47843 -0.25800
C 	C 	0.21560 0.96490 0.44542 0.75500
C 	C 	0.19530 0.96600 0.42588 -1.00700
H 	H 	0.19100 0.94340 0.42120 0.29200
H 	H 	0.17440 0.97720 0.42860 0.28900
H 	H 	0.20750 0.97800 0.41520 0.29800
C 	C 	0.19730 0.94440 0.46140 -1.02500
H 	H 	0.19230 0.92260 0.45570 0.31800
H 	H 	0.21110 0.94190 0.47370 0.32400
H 	H 	0.17670 0.95550 0.46520 0.31300
C 	C 	0.24750 0.94610 0.44040 -1.00300
H 	H 	0.24190 0.92430 0.43500 0.30500
H 	H 	0.26020 0.95850 0.43010 0.30900
H 	H 	0.26060 0.94370 0.45300 0.31500
C 	C 	0.16340 0.12320 0.46840 0.30300
C 	C 	0.16527 0.10260 0.45130 -0.25800
C 	C 	0.13720 0.08620 0.44441 0.19600
H 	H 	0.13850 0.07210 0.43270 -0.05000
C 	C 	0.10740 0.09040 0.45462 -0.33800
C 	C 	0.10560 0.11100 0.47173 0.19700
H 	H 	0.08510 0.11390 0.47870 -0.05100
C 	C 	0.13360 0.12740 0.47861 -0.27300
C 	C 	0.07770 0.07040 0.44869 0.63800
C 	C 	0.08300 0.05030 0.42929 -0.88500
H 	H 	0.06290 0.03780 0.42610 0.24000
H 	H 	0.08810 0.06510 0.41780 0.25700
H 	H 	0.10140 0.03500 0.43140 0.25400
C 	C 	0.06890 0.04600 0.46598 -0.83500
H 	H 	0.04950 0.03310 0.46190 0.22700
H 	H 	0.08760 0.03110 0.46840 0.24100
H 	H 	0.06410 0.05820 0.47870 0.24100
C 	C 	0.04760 0.09230 0.44580 -0.88700
H 	H 	0.02860 0.07870 0.44200 0.24600
H 	H 	0.04290 0.10390 0.45870 0.25800
H 	H 	0.05200 0.10840 0.43490 0.25400
C 	C 	0.50560 0.43140 0.18205 0.29400
C 	C 	0.47680 0.41910 0.17333 -0.25800
C 	C 	0.47830 0.39950 0.15577 0.21000
H 	H 	0.45860 0.39110 0.14980 -0.04900
C 	C 	0.50870 0.39220 0.14693 -0.36500
C 	C 	0.53750 0.40440 0.15565 0.20500
H 	H 	0.55830 0.39940 0.14960 -0.04300
C 	C 	0.53600 0.42410 0.17321 -0.24500
C 	C 	0.51000 0.37230 0.12723 0.74300
C 	C 	0.49330 0.33920 0.12970 -0.99900
H 	H 	0.49460 0.32700 0.11660 0.29100
H 	H 	0.50440 0.32650 0.14050 0.31200
H 	H 	0.47010 0.34250 0.13340 0.30600
C 	C 	0.49190 0.39020 0.10993 -0.95900
H 	H 	0.49300 0.37690 0.09730 0.26700
H 	H 	0.46880 0.39350 0.11380 0.28100
H 	H 	0.50240 0.41160 0.10750 0.27500
C 	C 	0.54490 0.36620 0.12000 -1.01200
H 	H 	0.54460 0.35330 0.10720 0.31500
H 	H 	0.55590 0.38740 0.11750 0.30000
H 	H 	0.55700 0.35400 0.13070 0.31800
C 	C 	0.31460 0.13360 0.46186 0.37400
C 	C 	0.34460 0.14170 0.44999 -0.11800
C 	C 	0.34216 0.15750 0.43101 0.04200
H 	H 	0.32110 0.16220 0.42530 0.03600
C 	C 	0.37060 0.16650 0.42039 -0.11000
H 	H 	0.36890 0.17730 0.40740 0.06700
C 	C 	0.40141 0.15970 0.42874 0.05700
C 	C 	0.40386 0.14390 0.44772 -0.11100
H 	H 	0.42490 0.13930 0.45340 0.06800
C 	C 	0.37550 0.13490 0.45834 0.04200
H 	H 	0.37710 0.12410 0.47130 0.03600
C 	C 	0.43210 0.17200 0.41797 0.00200
C 	C 	0.43310 0.17370 0.39656 -0.05100
H 	H 	0.41470 0.16650 0.38870 0.04600
C 	C 	0.46100 0.18600 0.38672 -0.04300
H 	H 	0.46160 0.18720 0.37210 0.04300
C 	C 	0.48780 0.19660 0.39829 -0.00900
C 	C 	0.48680 0.19480 0.41971 -0.04200
H 	H 	0.50520 0.20200 0.42760 0.04200
C 	C 	0.45900 0.18250 0.42955 -0.05100
H 	H 	0.45830 0.18130 0.44420 0.04600
C 	C 	0.51692 0.21230 0.38758 0.07200
C 	C 	0.51225 0.23190 0.37019 -0.13400
H 	H 	0.49110 0.23320 0.36400 0.07500
C 	C 	0.53855 0.24950 0.36192 0.07300
C 	C 	0.56953 0.24750 0.37104 -0.13400
H 	H 	0.58750 0.25950 0.36540 0.07500
C 	C 	0.57421 0.22800 0.38842 0.07100
C 	C 	0.54791 0.21040 0.39670 -0.13300
H 	H 	0.55110 0.19710 0.40860 0.07400
C 	C 	0.53310 0.27110 0.34345 -0.00800
C 	C 	0.50390 0.28890 0.34144 -0.04400
H 	H 	0.48680 0.28630 0.35130 0.04400
C 	C 	0.49980 0.31040 0.32494 -0.04900
H 	H 	0.47990 0.32250 0.32360 0.04600
C 	C 	0.52480 0.31410 0.31046 -0.00100
C 	C 	0.55390 0.29640 0.31247 -0.05000
H 	H 	0.57100 0.29890 0.30260 0.04600
C 	C 	0.55810 0.27480 0.32897 -0.04400
H 	H 	0.57800 0.26270 0.33030 0.04300
C 	C 	0.52100 0.33840 0.29289 0.06300
C 	C 	0.48980 0.34580 0.28524 -0.11900
H 	H 	0.47100 0.33450 0.29040 0.07000
C 	C 	0.48610 0.36970 0.27004 0.05500
H 	H 	0.46480 0.37470 0.26480 0.02800
C 	C 	0.51360 0.38620 0.26248 -0.13900
C 	C 	0.54480 0.37880 0.27012 0.05600
H 	H 	0.56360 0.39010 0.26500 0.03100
C 	C 	0.54850 0.35490 0.28533 -0.11900
H 	H 	0.56980 0.34990 0.29060 0.07100
C 	C 	0.50930 0.41350 0.24733 0.41100
C 	C 	0.60692 0.22780 0.39953 -0.00500
C 	C 	0.63590 0.22930 0.38812 -0.04800
H 	H 	0.63500 0.23150 0.37350 0.04400
C 	C 	0.66627 0.22770 0.39804 -0.04300
H 	H 	0.68610 0.22880 0.39020 0.04100
C 	C 	0.66763 0.22460 0.41939 -0.01100
C 	C 	0.63860 0.22310 0.43080 -0.04300
H 	H 	0.63960 0.22090 0.44540 0.04200
C 	C 	0.60828 0.22460 0.42088 -0.04900
H 	H 	0.58850 0.22360 0.42870 0.04400
C 	C 	0.70079 0.22250 0.43010 0.07800
C 	C 	0.72840 0.23720 0.42124 -0.14200
H 	H 	0.72680 0.24730 0.40800 0.07600
C 	C 	0.75840 0.23700 0.43168 0.08800
H 	H 	0.77720 0.24700 0.42560 0.02000
C 	C 	0.76070 0.22220 0.45098 -0.19000
C 	C 	0.73310 0.20760 0.45983 0.08600
H 	H 	0.73470 0.19750 0.47300 0.01700
C 	C 	0.70310 0.20780 0.44940 -0.14400
H 	H 	0.68430 0.19780 0.45550 0.07500
C 	C 	0.79230 0.22220 0.46240 0.52600
Co	Co	0.75862 0.86138 0.46694 1.17500
Co	Co	0.53282 0.54084 0.22160 1.17900
S 	S 	0.79819 0.90956 0.43879 0.47100
S 	S 	0.56287 0.57464 0.18257 0.44400
O 	O 	0.77660 0.88220 0.43923 -0.37200
O 	O 	0.80780 0.92070 0.41859 -0.28000
O 	O 	0.75040 0.90896 0.47716 -0.49800
O 	O 	0.80717 0.86443 0.47772 -0.48500
O 	O 	0.56160 0.57390 0.20494 -0.36000
O 	O 	0.58470 0.59830 0.17318 -0.25800
O 	O 	0.49380 0.55100 0.20131 -0.48000
O 	O 	0.71270 0.85800 0.45419 -0.42300
O 	O 	0.68160 0.88170 0.47830 -0.42000
O 	O 	0.51840 0.57820 0.24004 -0.43500
O 	O 	0.46630 0.57130 0.24193 -0.44100
O 	O 	0.18550 0.76530 0.45485 -0.50200
O 	O 	0.20790 0.79280 0.47846 -0.48700
C 	C 	0.75990 0.93970 0.46920 0.31900
C 	C 	0.78080 0.94240 0.45226 -0.27700
C 	C 	0.78910 0.97330 0.44458 0.22700
H 	H 	0.80330 0.97510 0.43300 -0.06200
C 	C 	0.77640 0.00154 0.45383 -0.37900
C 	C 	0.75550 0.99880 0.47075 0.21500
H 	H 	0.74690 0.01810 0.47710 -0.05000
C 	C 	0.74730 0.96790 0.47843 -0.25500
C 	C 	0.78440 0.03510 0.44542 0.75200
C 	C 	0.80470 0.03400 0.42588 -1.00600
H 	H 	0.80900 0.05660 0.42120 0.29200
H 	H 	0.82560 0.02280 0.42860 0.28900
H 	H 	0.79250 0.02200 0.41520 0.29800
C 	C 	0.80270 0.05560 0.46140 -1.02400
H 	H 	0.80770 0.07740 0.45570 0.31800
H 	H 	0.78890 0.05810 0.47370 0.32300
H 	H 	0.82330 0.04450 0.46520 0.31300
C 	C 	0.75250 0.05390 0.44040 -1.00100
H 	H 	0.75810 0.07570 0.43500 0.30500
H 	H 	0.73980 0.04150 0.43010 0.30900
H 	H 	0.73940 0.05630 0.45300 0.31500
C 	C 	0.83660 0.87680 0.46840 0.30300
C 	C 	0.83473 0.89740 0.45130 -0.25800
C 	C 	0.86280 0.91380 0.44441 0.19600
H 	H 	0.86150 0.92790 0.43270 -0.05000
C 	C 	0.89260 0.90960 0.45462 -0.33700
C 	C 	0.89440 0.88900 0.47173 0.19700
H 	H 	0.91490 0.88610 0.47870 -0.05100
C 	C 	0.86640 0.87260 0.47861 -0.27300
C 	C 	0.92230 0.92960 0.44869 0.63700
C 	C 	0.91700 0.94970 0.42929 -0.88400
H 	H 	0.93710 0.96220 0.42610 0.23900
H 	H 	0.91190 0.93490 0.41780 0.25600
H 	H 	0.89860 0.96500 0.43140 0.25300
C 	C 	0.93110 0.95400 0.46598 -0.83400
H 	H 	0.95050 0.96690 0.46190 0.22700
H 	H 	0.91240 0.96890 0.46840 0.24000
H 	H 	0.93590 0.94180 0.47870 0.24100
C 	C 	0.95240 0.90770 0.44580 -0.88600
H 	H 	0.97140 0.92130 0.44200 0.24500
H 	H 	0.95710 0.89610 0.45870 0.25800
H 	H 	0.94800 0.89160 0.43490 0.25300
C 	C 	0.49440 0.56860 0.18205 0.29400
C 	C 	0.52320 0.58090 0.17333 -0.25800
C 	C 	0.52170 0.60050 0.15577 0.21000
H 	H 	0.54140 0.60890 0.14980 -0.04900
C 	C 	0.49130 0.60780 0.14693 -0.36500
C 	C 	0.46250 0.59560 0.15565 0.20500
H 	H 	0.44170 0.60060 0.14960 -0.04300
C 	C 	0.46400 0.57590 0.17321 -0.24500
C 	C 	0.49000 0.62770 0.12723 0.74300
C 	C 	0.50670 0.66080 0.12970 -0.99900
H 	H 	0.50540 0.67300 0.11660 0.29100
H 	H 	0.49560 0.67350 0.14050 0.31200
H 	H 	0.52990 0.65750 0.13340 0.30600
C 	C 	0.50810 0.60980 0.10993 -0.95900
H 	H 	0.50700 0.62310 0.09730 0.26700
H 	H 	0.53120 0.60650 0.11380 0.28100
H 	H 	0.49760 0.58840 0.10750 0.27500
C 	C 	0.45510 0.63380 0.12000 -1.01200
H 	H 	0.45540 0.64670 0.10720 0.31500
H 	H 	0.44410 0.61260 0.11750 0.30000
H 	H 	0.44300 0.64600 0.13070 0.31800
C 	C 	0.68540 0.86640 0.46186 0.37400
C 	C 	0.65540 0.85830 0.44999 -0.11800
C 	C 	0.65784 0.84250 0.43101 0.04200
H 	H 	0.67890 0.83780 0.42530 0.03600
C 	C 	0.62940 0.83350 0.42039 -0.11000
H 	H 	0.63110 0.82270 0.40740 0.06700
C 	C 	0.59859 0.84030 0.42874 0.05700
C 	C 	0.59614 0.85610 0.44772 -0.11100
H 	H 	0.57510 0.86070 0.45340 0.06800
C 	C 	0.62450 0.86510 0.45834 0.04200
H 	H 	0.62290 0.87590 0.47130 0.03600
C 	C 	0.56790 0.82800 0.41797 0.00200
C 	C 	0.56690 0.82630 0.39656 -0.05100
H 	H 	0.58530 0.83350 0.38870 0.04600
C 	C 	0.53900 0.81400 0.38672 -0.04300
H 	H 	0.53840 0.81280 0.37210 0.04300
C 	C 	0.51220 0.80340 0.39829 -0.00900
C 	C 	0.51320 0.80520 0.41971 -0.04200
H 	H 	0.49480 0.79800 0.42760 0.04200
C 	C 	0.54100 0.81750 0.42955 -0.05100
H 	H 	0.54170 0.81870 0.44420 0.04600
C 	C 	0.48308 0.78770 0.38758 0.07200
C 	C 	0.48775 0.76810 0.37019 -0.13400
H 	H 	0.50890 0.76680 0.36400 0.07500
C 	C 	0.46145 0.75050 0.36192 0.07300
C 	C 	0.43047 0.75250 0.37104 -0.13400
H 	H 	0.41250 0.74050 0.36540 0.07500
C 	C 	0.42579 0.77200 0.38842 0.07100
C 	C 	0.45209 0.78960 0.39670 -0.13300
H 	H 	0.44890 0.80290 0.40860 0.07400
C 	C 	0.46690 0.72890 0.34345 -0.00800
C 	C 	0.49610 0.71110 0.34144 -0.04400
H 	H 	0.51320 0.71370 0.35130 0.04400
C 	C 	0.50020 0.68960 0.32494 -0.04900
H 	H 	0.52010 0.67750 0.32360 0.04600
C 	C 	0.47520 0.68590 0.31046 -0.00100
C 	C 	0.44610 0.70360 0.31247 -0.05000
H 	H 	0.42900 0.70110 0.30260 0.04600
C 	C 	0.44190 0.72520 0.32897 -0.04400
H 	H 	0.42200 0.73730 0.33030 0.04300
C 	C 	0.47900 0.66160 0.29289 0.06300
C 	C 	0.51020 0.65420 0.28524 -0.11900
H 	H 	0.52900 0.66550 0.29040 0.07000
C 	C 	0.51390 0.63030 0.27004 0.05500
H 	H 	0.53520 0.62530 0.26480 0.02800
C 	C 	0.48640 0.61380 0.26248 -0.13900
C 	C 	0.45520 0.62120 0.27012 0.05600
H 	H 	0.43640 0.60990 0.26500 0.03100
C 	C 	0.45150 0.64510 0.28533 -0.11900
H 	H 	0.43020 0.65010 0.29060 0.07100
C 	C 	0.49070 0.58650 0.24733 0.41100
C 	C 	0.39308 0.77220 0.39953 -0.00500
C 	C 	0.36410 0.77070 0.38812 -0.04800
H 	H 	0.36500 0.76850 0.37350 0.04400
C 	C 	0.33373 0.77230 0.39804 -0.04400
H 	H 	0.31390 0.77120 0.39020 0.04100
C 	C 	0.33237 0.77540 0.41939 -0.01100
C 	C 	0.36140 0.77690 0.43080 -0.04300
H 	H 	0.36040 0.77910 0.44540 0.04200
C 	C 	0.39172 0.77540 0.42088 -0.04900
H 	H 	0.41150 0.77640 0.42870 0.04400
C 	C 	0.29921 0.77750 0.43010 0.07800
C 	C 	0.27160 0.76280 0.42124 -0.14200
H 	H 	0.27320 0.75270 0.40800 0.07600
C 	C 	0.24160 0.76300 0.43168 0.08800
H 	H 	0.22280 0.75300 0.42560 0.02000
C 	C 	0.23930 0.77780 0.45098 -0.19100
C 	C 	0.26690 0.79240 0.45983 0.08600
H 	H 	0.26530 0.80250 0.47300 0.01700
C 	C 	0.29690 0.79220 0.44940 -0.14400
H 	H 	0.31570 0.80220 0.45550 0.07500
C 	C 	0.20770 0.77780 0.46240 0.52600
Co	Co	0.86138 0.24138 0.46694 1.17500
Co	Co	0.54084 0.46718 0.22160 1.17900
S 	S 	0.90956 0.20181 0.43879 0.47100
S 	S 	0.57464 0.43713 0.18257 0.44400
O 	O 	0.88220 0.22340 0.43923 -0.37200
O 	O 	0.92070 0.19220 0.41859 -0.28000
O 	O 	0.90896 0.24960 0.47716 -0.49800
O 	O 	0.86443 0.19283 0.47772 -0.48500
O 	O 	0.57390 0.43840 0.20494 -0.36000
O 	O 	0.59830 0.41530 0.17318 -0.25800
O 	O 	0.55100 0.50620 0.20131 -0.48000
O 	O 	0.85800 0.28730 0.45419 -0.42300
O 	O 	0.88170 0.31840 0.47830 -0.42000
O 	O 	0.57820 0.48160 0.24004 -0.43500
O 	O 	0.57130 0.53370 0.24193 -0.44100
O 	O 	0.76530 0.81450 0.45485 -0.50200
O 	O 	0.79280 0.79210 0.47846 -0.48700
C 	C 	0.93970 0.24010 0.46920 0.31900
C 	C 	0.94240 0.21920 0.45226 -0.27700
C 	C 	0.97330 0.21090 0.44458 0.22700
H 	H 	0.97510 0.19670 0.43300 -0.06200
C 	C 	0.00154 0.22360 0.45383 -0.37900
C 	C 	0.99880 0.24450 0.47075 0.21500
H 	H 	0.01810 0.25310 0.47710 -0.05000
C 	C 	0.96790 0.25270 0.47843 -0.25500
C 	C 	0.03510 0.21560 0.44542 0.75200
C 	C 	0.03400 0.19530 0.42588 -1.00500
H 	H 	0.05660 0.19100 0.42120 0.29200
H 	H 	0.02280 0.17440 0.42860 0.28900
H 	H 	0.02200 0.20750 0.41520 0.29800
C 	C 	0.05560 0.19730 0.46140 -1.02400
H 	H 	0.07740 0.19230 0.45570 0.31800
H 	H 	0.05810 0.21110 0.47370 0.32300
H 	H 	0.04450 0.17670 0.46520 0.31300
C 	C 	0.05390 0.24750 0.44040 -1.00100
H 	H 	0.07570 0.24190 0.43500 0.30500
H 	H 	0.04150 0.26020 0.43010 0.30900
H 	H 	0.05630 0.26060 0.45300 0.31500
C 	C 	0.87680 0.16340 0.46840 0.30300
C 	C 	0.89740 0.16527 0.45130 -0.25800
C 	C 	0.91380 0.13720 0.44441 0.19600
H 	H 	0.92790 0.13850 0.43270 -0.05000
C 	C 	0.90960 0.10740 0.45462 -0.33800
C 	C 	0.88900 0.10560 0.47173 0.19700
H 	H 	0.88610 0.08510 0.47870 -0.05100
C 	C 	0.87260 0.13360 0.47861 -0.27300
C 	C 	0.92960 0.07770 0.44869 0.63800
C 	C 	0.94970 0.08300 0.42929 -0.88500
H 	H 	0.96220 0.06290 0.42610 0.23900
H 	H 	0.93490 0.08810 0.41780 0.25700
H 	H 	0.96500 0.10140 0.43140 0.25400
C 	C 	0.95400 0.06890 0.46598 -0.83500
H 	H 	0.96690 0.04950 0.46190 0.22700
H 	H 	0.96890 0.08760 0.46840 0.24000
H 	H 	0.94180 0.06410 0.47870 0.24100
C 	C 	0.90770 0.04760 0.44580 -0.88700
H 	H 	0.92130 0.02860 0.44200 0.24600
H 	H 	0.89610 0.04290 0.45870 0.25800
H 	H 	0.89160 0.05200 0.43490 0.25300
C 	C 	0.56860 0.50560 0.18205 0.29400
C 	C 	0.58090 0.47680 0.17333 -0.25800
C 	C 	0.60050 0.47830 0.15577 0.21000
H 	H 	0.60890 0.45860 0.14980 -0.04900
C 	C 	0.60780 0.50870 0.14693 -0.36500
C 	C 	0.59560 0.53750 0.15565 0.20500
H 	H 	0.60060 0.55830 0.14960 -0.04300
C 	C 	0.57590 0.53600 0.17321 -0.24500
C 	C 	0.62770 0.51000 0.12723 0.74300
C 	C 	0.66080 0.49330 0.12970 -0.99900
H 	H 	0.67300 0.49460 0.11660 0.29100
H 	H 	0.67350 0.50440 0.14050 0.31200
H 	H 	0.65750 0.47010 0.13340 0.30600
C 	C 	0.60980 0.49190 0.10993 -0.95900
H 	H 	0.62310 0.49300 0.09730 0.26700
H 	H 	0.60650 0.46880 0.11380 0.28100
H 	H 	0.58840 0.50240 0.10750 0.27500
C 	C 	0.63380 0.54490 0.12000 -1.01200
H 	H 	0.64670 0.54460 0.10720 0.31500
H 	H 	0.61260 0.55590 0.11750 0.30000
H 	H 	0.64600 0.55700 0.13070 0.31800
C 	C 	0.86640 0.31460 0.46186 0.37400
C 	C 	0.85830 0.34460 0.44999 -0.11800
C 	C 	0.84250 0.34216 0.43101 0.04200
H 	H 	0.83780 0.32110 0.42530 0.03600
C 	C 	0.83350 0.37060 0.42039 -0.11000
H 	H 	0.82270 0.36890 0.40740 0.06700
C 	C 	0.84030 0.40141 0.42874 0.05700
C 	C 	0.85610 0.40386 0.44772 -0.11100
H 	H 	0.86070 0.42490 0.45340 0.06800
C 	C 	0.86510 0.37550 0.45834 0.04200
H 	H 	0.87590 0.37710 0.47130 0.03600
C 	C 	0.82800 0.43210 0.41797 0.00200
C 	C 	0.82630 0.43310 0.39656 -0.05100
H 	H 	0.83350 0.41470 0.38870 0.04600
C 	C 	0.81400 0.46100 0.38672 -0.04300
H 	H 	0.81280 0.46160 0.37210 0.04300
C 	C 	0.80340 0.48780 0.39829 -0.00900
C 	C 	0.80520 0.48680 0.41971 -0.04200
H 	H 	0.79800 0.50520 0.42760 0.04200
C 	C 	0.81750 0.45900 0.42955 -0.05100
H 	H 	0.81870 0.45830 0.44420 0.04600
C 	C 	0.78770 0.51692 0.38758 0.07200
C 	C 	0.76810 0.51225 0.37019 -0.13400
H 	H 	0.76680 0.49110 0.36400 0.07500
C 	C 	0.75050 0.53855 0.36192 0.07300
C 	C 	0.75250 0.56953 0.37104 -0.13400
H 	H 	0.74050 0.58750 0.36540 0.07500
C 	C 	0.77200 0.57421 0.38842 0.07100
C 	C 	0.78960 0.54791 0.39670 -0.13300
H 	H 	0.80290 0.55110 0.40860 0.07400
C 	C 	0.72890 0.53310 0.34345 -0.00800
C 	C 	0.71110 0.50390 0.34144 -0.04400
H 	H 	0.71370 0.48680 0.35130 0.04400
C 	C 	0.68960 0.49980 0.32494 -0.04900
H 	H 	0.67750 0.47990 0.32360 0.04600
C 	C 	0.68590 0.52480 0.31046 -0.00100
C 	C 	0.70360 0.55390 0.31247 -0.05000
H 	H 	0.70110 0.57100 0.30260 0.04600
C 	C 	0.72520 0.55810 0.32897 -0.04400
H 	H 	0.73730 0.57800 0.33030 0.04300
C 	C 	0.66160 0.52100 0.29289 0.06300
C 	C 	0.65420 0.48980 0.28524 -0.11900
H 	H 	0.66550 0.47100 0.29040 0.07000
C 	C 	0.63030 0.48610 0.27004 0.05500
H 	H 	0.62530 0.46480 0.26480 0.02800
C 	C 	0.61380 0.51360 0.26248 -0.13900
C 	C 	0.62120 0.54480 0.27012 0.05600
H 	H 	0.60990 0.56360 0.26500 0.03100
C 	C 	0.64510 0.54850 0.28533 -0.11900
H 	H 	0.65010 0.56980 0.29060 0.07100
C 	C 	0.58650 0.50930 0.24733 0.41100
C 	C 	0.77220 0.60692 0.39953 -0.00500
C 	C 	0.77070 0.63590 0.38812 -0.04800
H 	H 	0.76850 0.63500 0.37350 0.04400
C 	C 	0.77230 0.66627 0.39804 -0.04400
H 	H 	0.77120 0.68610 0.39020 0.04100
C 	C 	0.77540 0.66763 0.41939 -0.01100
C 	C 	0.77690 0.63860 0.43080 -0.04300
H 	H 	0.77910 0.63960 0.44540 0.04200
C 	C 	0.77540 0.60828 0.42088 -0.04900
H 	H 	0.77640 0.58850 0.42870 0.04400
C 	C 	0.77750 0.70079 0.43010 0.07800
C 	C 	0.76280 0.72840 0.42124 -0.14200
H 	H 	0.75270 0.72680 0.40800 0.07600
C 	C 	0.76300 0.75840 0.43168 0.08800
H 	H 	0.75300 0.77720 0.42560 0.02000
C 	C 	0.77780 0.76070 0.45098 -0.19100
C 	C 	0.79240 0.73310 0.45983 0.08600
H 	H 	0.80250 0.73470 0.47300 0.01700
C 	C 	0.79220 0.70310 0.44940 -0.14400
H 	H 	0.80220 0.68430 0.45550 0.07500
C 	C 	0.77780 0.79230 0.46240 0.52600
Co	Co	0.13862 0.75862 0.46694 1.17500
Co	Co	0.45916 0.53282 0.22160 1.17900
S 	S 	0.09044 0.79819 0.43879 0.47100
S 	S 	0.42536 0.56287 0.18257 0.44400
O 	O 	0.11780 0.77660 0.43923 -0.37200
O 	O 	0.07930 0.80780 0.41859 -0.28000
O 	O 	0.09104 0.75040 0.47716 -0.49800
O 	O 	0.13557 0.80717 0.47772 -0.48500
O 	O 	0.42610 0.56160 0.20494 -0.36000
O 	O 	0.40170 0.58470 0.17318 -0.25800
O 	O 	0.44900 0.49380 0.20131 -0.48000
O 	O 	0.14200 0.71270 0.45419 -0.42300
O 	O 	0.11830 0.68160 0.47830 -0.42000
O 	O 	0.42180 0.51840 0.24004 -0.43500
O 	O 	0.42870 0.46630 0.24193 -0.44100
O 	O 	0.23470 0.18550 0.45485 -0.50200
O 	O 	0.20720 0.20790 0.47846 -0.48700
C 	C 	0.06030 0.75990 0.46920 0.32000
C 	C 	0.05760 0.78080 0.45226 -0.27900
C 	C 	0.02670 0.78910 0.44458 0.23100
H 	H 	0.02490 0.80330 0.43300 -0.06300
C 	C 	0.99846 0.77640 0.45383 -0.38400
C 	C 	0.00120 0.75550 0.47075 0.22100
H 	H 	0.98190 0.74690 0.47710 -0.05200
C 	C 	0.03210 0.74730 0.47843 -0.25800
C 	C 	0.96490 0.78440 0.44542 0.75500
C 	C 	0.96600 0.80470 0.42588 -1.00700
H 	H 	0.94340 0.80900 0.42120 0.29200
H 	H 	0.97720 0.82560 0.42860 0.28900
H 	H 	0.97800 0.79250 0.41520 0.29800
C 	C 	0.94440 0.80270 0.46140 -1.02500
H 	H 	0.92260 0.80770 0.45570 0.31800
H 	H 	0.94190 0.78890 0.47370 0.32400
H 	H 	0.95550 0.82330 0.46520 0.31300
C 	C 	0.94610 0.75250 0.44040 -1.00300
H 	H 	0.92430 0.75810 0.43500 0.30500
H 	H 	0.95850 0.73980 0.43010 0.30900
H 	H 	0.94370 0.73940 0.45300 0.31500
C 	C 	0.12320 0.83660 0.46840 0.30300
C 	C 	0.10260 0.83473 0.45130 -0.25800
C 	C 	0.08620 0.86280 0.44441 0.19600
H 	H 	0.07210 0.86150 0.43270 -0.05000
C 	C 	0.09040 0.89260 0.45462 -0.33800
C 	C 	0.11100 0.89440 0.47173 0.19700
H 	H 	0.11390 0.91490 0.47870 -0.05100
C 	C 	0.12740 0.86640 0.47861 -0.27300
C 	C 	0.07040 0.92230 0.44869 0.63800
C 	C 	0.05030 0.91700 0.42929 -0.88500
H 	H 	0.03780 0.93710 0.42610 0.23900
H 	H 	0.06510 0.91190 0.41780 0.25700
H 	H 	0.03500 0.89860 0.43140 0.25400
C 	C 	0.04600 0.93110 0.46598 -0.83500
H 	H 	0.03310 0.95050 0.46190 0.22700
H 	H 	0.03110 0.91240 0.46840 0.24000
H 	H 	0.05820 0.93590 0.47870 0.24100
C 	C 	0.09230 0.95240 0.44580 -0.88600
H 	H 	0.07870 0.97140 0.44200 0.24600
H 	H 	0.10390 0.95710 0.45870 0.25800
H 	H 	0.10840 0.94800 0.43490 0.25300
C 	C 	0.43140 0.49440 0.18205 0.29400
C 	C 	0.41910 0.52320 0.17333 -0.25800
C 	C 	0.39950 0.52170 0.15577 0.21000
H 	H 	0.39110 0.54140 0.14980 -0.04900
C 	C 	0.39220 0.49130 0.14693 -0.36500
C 	C 	0.40440 0.46250 0.15565 0.20500
H 	H 	0.39940 0.44170 0.14960 -0.04300
C 	C 	0.42410 0.46400 0.17321 -0.24500
C 	C 	0.37230 0.49000 0.12723 0.74300
C 	C 	0.33920 0.50670 0.12970 -0.99900
H 	H 	0.32700 0.50540 0.11660 0.29100
H 	H 	0.32650 0.49560 0.14050 0.31200
H 	H 	0.34250 0.52990 0.13340 0.30600
C 	C 	0.39020 0.50810 0.10993 -0.95900
H 	H 	0.37690 0.50700 0.09730 0.26700
H 	H 	0.39350 0.53120 0.11380 0.28100
H 	H 	0.41160 0.49760 0.10750 0.27500
C 	C 	0.36620 0.45510 0.12000 -1.01200
H 	H 	0.35330 0.45540 0.10720 0.31500
H 	H 	0.38740 0.44410 0.11750 0.30000
H 	H 	0.35400 0.44300 0.13070 0.31800
C 	C 	0.13360 0.68540 0.46186 0.37400
C 	C 	0.14170 0.65540 0.44999 -0.11800
C 	C 	0.15750 0.65784 0.43101 0.04200
H 	H 	0.16220 0.67890 0.42530 0.03600
C 	C 	0.16650 0.62940 0.42039 -0.11000
H 	H 	0.17730 0.63110 0.40740 0.06700
C 	C 	0.15970 0.59859 0.42874 0.05700
C 	C 	0.14390 0.59614 0.44772 -0.11100
H 	H 	0.13930 0.57510 0.45340 0.06800
C 	C 	0.13490 0.62450 0.45834 0.04200
H 	H 	0.12410 0.62290 0.47130 0.03600
C 	C 	0.17200 0.56790 0.41797 0.00200
C 	C 	0.17370 0.56690 0.39656 -0.05100
H 	H 	0.16650 0.58530 0.38870 0.04600
C 	C 	0.18600 0.53900 0.38672 -0.04300
H 	H 	0.18720 0.53840 0.37210 0.04300
C 	C 	0.19660 0.51220 0.39829 -0.00900
C 	C 	0.19480 0.51320 0.41971 -0.04200
H 	H 	0.20200 0.49480 0.42760 0.04200
C 	C 	0.18250 0.54100 0.42955 -0.05100
H 	H 	0.18130 0.54170 0.44420 0.04600
C 	C 	0.21230 0.48308 0.38758 0.07200
C 	C 	0.23190 0.48775 0.37019 -0.13400
H 	H 	0.23320 0.50890 0.36400 0.07500
C 	C 	0.24950 0.46145 0.36192 0.07300
C 	C 	0.24750 0.43047 0.37104 -0.13400
H 	H 	0.25950 0.41250 0.36540 0.07500
C 	C 	0.22800 0.42579 0.38842 0.07100
C 	C 	0.21040 0.45209 0.39670 -0.13300
H 	H 	0.19710 0.44890 0.40860 0.07400
C 	C 	0.27110 0.46690 0.34345 -0.00800
C 	C 	0.28890 0.49610 0.34144 -0.04400
H 	H 	0.28630 0.51320 0.35130 0.04400
C 	C 	0.31040 0.50020 0.32494 -0.04900
H 	H 	0.32250 0.52010 0.32360 0.04600
C 	C 	0.31410 0.47520 0.31046 -0.00100
C 	C 	0.29640 0.44610 0.31247 -0.05000
H 	H 	0.29890 0.42900 0.30260 0.04600
C 	C 	0.27480 0.44190 0.32897 -0.04400
H 	H 	0.26270 0.42200 0.33030 0.04300
C 	C 	0.33840 0.47900 0.29289 0.06300
C 	C 	0.34580 0.51020 0.28524 -0.11900
H 	H 	0.33450 0.52900 0.29040 0.07000
C 	C 	0.36970 0.51390 0.27004 0.05500
H 	H 	0.37470 0.53520 0.26480 0.02800
C 	C 	0.38620 0.48640 0.26248 -0.13900
C 	C 	0.37880 0.45520 0.27012 0.05600
H 	H 	0.39010 0.43640 0.26500 0.03100
C 	C 	0.35490 0.45150 0.28533 -0.11900
H 	H 	0.34990 0.43020 0.29060 0.07100
C 	C 	0.41350 0.49070 0.24733 0.41100
C 	C 	0.22780 0.39308 0.39953 -0.00500
C 	C 	0.22930 0.36410 0.38812 -0.04800
H 	H 	0.23150 0.36500 0.37350 0.04400
C 	C 	0.22770 0.33373 0.39804 -0.04300
H 	H 	0.22880 0.31390 0.39020 0.04100
C 	C 	0.22460 0.33237 0.41939 -0.01100
C 	C 	0.22310 0.36140 0.43080 -0.04300
H 	H 	0.22090 0.36040 0.44540 0.04200
C 	C 	0.22460 0.39172 0.42088 -0.04900
H 	H 	0.22360 0.41150 0.42870 0.04400
C 	C 	0.22250 0.29921 0.43010 0.07800
C 	C 	0.23720 0.27160 0.42124 -0.14200
H 	H 	0.24730 0.27320 0.40800 0.07600
C 	C 	0.23700 0.24160 0.43168 0.08800
H 	H 	0.24700 0.22280 0.42560 0.02000
C 	C 	0.22220 0.23930 0.45098 -0.19000
C 	C 	0.20760 0.26690 0.45983 0.08600
H 	H 	0.19750 0.26530 0.47300 0.01700
C 	C 	0.20780 0.29690 0.44940 -0.14400
H 	H 	0.19780 0.31570 0.45550 0.07500
C 	C 	0.22220 0.20770 0.46240 0.52600
Co	Co	0.75862 0.86138 0.53306 1.17500
Co	Co	0.53282 0.54084 0.77840 1.17900
S 	S 	0.79819 0.90956 0.56121 0.47100
S 	S 	0.56287 0.57464 0.81743 0.44400
O 	O 	0.77660 0.88220 0.56077 -0.37200
O 	O 	0.80780 0.92070 0.58141 -0.28000
O 	O 	0.75040 0.90896 0.52284 -0.49800
O 	O 	0.80717 0.86443 0.52228 -0.48500
O 	O 	0.56160 0.57390 0.79506 -0.36000
O 	O 	0.58470 0.59830 0.82682 -0.25800
O 	O 	0.49380 0.55100 0.79869 -0.48000
O 	O 	0.71270 0.85800 0.54581 -0.42300
O 	O 	0.68160 0.88170 0.52170 -0.42000
O 	O 	0.51840 0.57820 0.75996 -0.43500
O 	O 	0.46630 0.57130 0.75807 -0.44100
O 	O 	0.18550 0.76530 0.54515 -0.50200
O 	O 	0.20790 0.79280 0.52154 -0.48700
C 	C 	0.75990 0.93970 0.53080 0.31900
C 	C 	0.78080 0.94240 0.54774 -0.27700
C 	C 	0.78910 0.97330 0.55542 0.22700
H 	H 	0.80330 0.97510 0.56700 -0.06200
C 	C 	0.77640 0.00154 0.54617 -0.37900
C 	C 	0.75550 0.99880 0.52925 0.21500
H 	H 	0.74690 0.01810 0.52290 -0.05000
C 	C 	0.74730 0.96790 0.52157 -0.25500
C 	C 	0.78440 0.03510 0.55458 0.75200
C 	C 	0.80470 0.03400 0.57412 -1.00600
H 	H 	0.80900 0.05660 0.57880 0.29200
H 	H 	0.82560 0.02280 0.57140 0.28900
H 	H 	0.79250 0.02200 0.58480 0.29800
C 	C 	0.80270 0.05560 0.53860 -1.02400
H 	H 	0.80770 0.07740 0.54430 0.31800
H 	H 	0.78890 0.05810 0.52630 0.32300
H 	H 	0.82330 0.04450 0.53480 0.31300
C 	C 	0.75250 0.05390 0.55960 -1.00100
H 	H 	0.75810 0.07570 0.56500 0.30500
H 	H 	0.73980 0.04150 0.56990 0.30900
H 	H 	0.73940 0.05630 0.54700 0.31500
C 	C 	0.83660 0.87680 0.53160 0.30300
C 	C 	0.83473 0.89740 0.54870 -0.25800
C 	C 	0.86280 0.91380 0.55559 0.19600
H 	H 	0.86150 0.92790 0.56730 -0.05000
C 	C 	0.89260 0.90960 0.54538 -0.33700
C 	C 	0.89440 0.88900 0.52827 0.19700
H 	H 	0.91490 0.88610 0.52130 -0.05100
C 	C 	0.86640 0.87260 0.52139 -0.27300
C 	C 	0.92230 0.92960 0.55131 0.63700
C 	C 	0.91700 0.94970 0.57071 -0.88400
H 	H 	0.93710 0.96220 0.57390 0.23900
H 	H 	0.91190 0.93490 0.58220 0.25600
H 	H 	0.89860 0.96500 0.56860 0.25300
C 	C 	0.93110 0.95400 0.53402 -0.83400
H 	H 	0.95050 0.96690 0.53810 0.22700
H 	H 	0.91240 0.96890 0.53160 0.24000
H 	H 	0.93590 0.94180 0.52130 0.24100
C 	C 	0.95240 0.90770 0.55420 -0.88600
H 	H 	0.97140 0.92130 0.55800 0.24500
H 	H 	0.95710 0.89610 0.54130 0.25800
H 	H 	0.94800 0.89160 0.56510 0.25300
C 	C 	0.49440 0.56860 0.81795 0.29400
C 	C 	0.52320 0.58090 0.82667 -0.25800
C 	C 	0.52170 0.60050 0.84423 0.21000
H 	H 	0.54140 0.60890 0.85020 -0.04900
C 	C 	0.49130 0.60780 0.85307 -0.36500
C 	C 	0.46250 0.59560 0.84435 0.20500
H 	H 	0.44170 0.60060 0.85040 -0.04300
C 	C 	0.46400 0.57590 0.82679 -0.24500
C 	C 	0.49000 0.62770 0.87277 0.74300
C 	C 	0.50670 0.66080 0.87030 -0.99900
H 	H 	0.50540 0.67300 0.88340 0.29100
H 	H 	0.49560 0.67350 0.85950 0.31200
H 	H 	0.52990 0.65750 0.86660 0.30600
C 	C 	0.50810 0.60980 0.89007 -0.95900
H 	H 	0.50700 0.62310 0.90270 0.26700
H 	H 	0.53120 0.60650 0.88620 0.28100
H 	H 	0.49760 0.58840 0.89250 0.27500
C 	C 	0.45510 0.63380 0.88000 -1.01200
H 	H 	0.45540 0.64670 0.89280 0.31500
H 	H 	0.44410 0.61260 0.88250 0.30000
H 	H 	0.44300 0.64600 0.86930 0.31800
C 	C 	0.68540 0.86640 0.53814 0.37400
C 	C 	0.65540 0.85830 0.55001 -0.11800
C 	C 	0.65784 0.84250 0.56899 0.04200
H 	H 	0.67890 0.83780 0.57470 0.03600
C 	C 	0.62940 0.83350 0.57961 -0.11000
H 	H 	0.63110 0.82270 0.59260 0.06700
C 	C 	0.59859 0.84030 0.57126 0.05700
C 	C 	0.59614 0.85610 0.55228 -0.11100
H 	H 	0.57510 0.86070 0.54660 0.06800
C 	C 	0.62450 0.86510 0.54166 0.04200
H 	H 	0.62290 0.87590 0.52870 0.03600
C 	C 	0.56790 0.82800 0.58203 0.00200
C 	C 	0.56690 0.82630 0.60344 -0.05100
H 	H 	0.58530 0.83350 0.61130 0.04600
C 	C 	0.53900 0.81400 0.61328 -0.04300
H 	H 	0.53840 0.81280 0.62790 0.04300
C 	C 	0.51220 0.80340 0.60171 -0.00900
C 	C 	0.51320 0.80520 0.58029 -0.04200
H 	H 	0.49480 0.79800 0.57240 0.04200
C 	C 	0.54100 0.81750 0.57045 -0.05100
H 	H 	0.54170 0.81870 0.55580 0.04600
C 	C 	0.48308 0.78770 0.61242 0.07200
C 	C 	0.48775 0.76810 0.62981 -0.13400
H 	H 	0.50890 0.76680 0.63600 0.07500
C 	C 	0.46145 0.75050 0.63808 0.07300
C 	C 	0.43047 0.75250 0.62896 -0.13400
H 	H 	0.41250 0.74050 0.63460 0.07500
C 	C 	0.42579 0.77200 0.61158 0.07100
C 	C 	0.45209 0.78960 0.60330 -0.13300
H 	H 	0.44890 0.80290 0.59140 0.07400
C 	C 	0.46690 0.72890 0.65655 -0.00800
C 	C 	0.49610 0.71110 0.65856 -0.04400
H 	H 	0.51320 0.71370 0.64870 0.04400
C 	C 	0.50020 0.68960 0.67506 -0.04900
H 	H 	0.52010 0.67750 0.67640 0.04600
C 	C 	0.47520 0.68590 0.68954 -0.00100
C 	C 	0.44610 0.70360 0.68753 -0.05000
H 	H 	0.42900 0.70110 0.69740 0.04600
C 	C 	0.44190 0.72520 0.67103 -0.04400
H 	H 	0.42200 0.73730 0.66970 0.04300
C 	C 	0.47900 0.66160 0.70711 0.06300
C 	C 	0.51020 0.65420 0.71476 -0.11900
H 	H 	0.52900 0.66550 0.70960 0.07000
C 	C 	0.51390 0.63030 0.72996 0.05500
H 	H 	0.53520 0.62530 0.73520 0.02800
C 	C 	0.48640 0.61380 0.73752 -0.13900
C 	C 	0.45520 0.62120 0.72988 0.05600
H 	H 	0.43640 0.60990 0.73500 0.03100
C 	C 	0.45150 0.64510 0.71467 -0.11900
H 	H 	0.43020 0.65010 0.70940 0.07100
C 	C 	0.49070 0.58650 0.75267 0.41100
C 	C 	0.39308 0.77220 0.60047 -0.00500
C 	C 	0.36410 0.77070 0.61188 -0.04800
H 	H 	0.36500 0.76850 0.62650 0.04400
C 	C 	0.33373 0.77230 0.60196 -0.04400
H 	H 	0.31390 0.77120 0.60980 0.04100
C 	C 	0.33237 0.77540 0.58061 -0.01100
C 	C 	0.36140 0.77690 0.56920 -0.04300
H 	H 	0.36040 0.77910 0.55460 0.04200
C 	C 	0.39172 0.77540 0.57912 -0.04900
H 	H 	0.41150 0.77640 0.57130 0.04400
C 	C 	0.29921 0.77750 0.56990 0.07800
C 	C 	0.27160 0.76280 0.57876 -0.14200
H 	H 	0.27320 0.75270 0.59200 0.07600
C 	C 	0.24160 0.76300 0.56832 0.08800
H 	H 	0.22280 0.75300 0.57440 0.02000
C 	C 	0.23930 0.77780 0.54902 -0.19100
C 	C 	0.26690 0.79240 0.54017 0.08600
H 	H 	0.26530 0.80250 0.52700 0.01700
C 	C 	0.29690 0.79220 0.55060 -0.14400
H 	H 	0.31570 0.80220 0.54450 0.07500
C 	C 	0.20770 0.77780 0.53760 0.52600
Co	Co	0.24138 0.13862 0.53306 1.17500
Co	Co	0.46718 0.45916 0.77840 1.17900
S 	S 	0.20181 0.09044 0.56121 0.47100
S 	S 	0.43713 0.42536 0.81743 0.44400
O 	O 	0.22340 0.11780 0.56077 -0.37200
O 	O 	0.19220 0.07930 0.58141 -0.28000
O 	O 	0.24960 0.09104 0.52284 -0.49800
O 	O 	0.19283 0.13557 0.52228 -0.48500
O 	O 	0.43840 0.42610 0.79506 -0.36000
O 	O 	0.41530 0.40170 0.82682 -0.25800
O 	O 	0.50620 0.44900 0.79869 -0.48000
O 	O 	0.28730 0.14200 0.54581 -0.42300
O 	O 	0.31840 0.11830 0.52170 -0.42000
O 	O 	0.48160 0.42180 0.75996 -0.43500
O 	O 	0.53370 0.42870 0.75807 -0.44100
O 	O 	0.81450 0.23470 0.54515 -0.50200
O 	O 	0.79210 0.20720 0.52154 -0.48700
C 	C 	0.24010 0.06030 0.53080 0.32000
C 	C 	0.21920 0.05760 0.54774 -0.27900
C 	C 	0.21090 0.02670 0.55542 0.23100
H 	H 	0.19670 0.02490 0.56700 -0.06300
C 	C 	0.22360 0.99846 0.54617 -0.38400
C 	C 	0.24450 0.00120 0.52925 0.22100
H 	H 	0.25310 0.98190 0.52290 -0.05200
C 	C 	0.25270 0.03210 0.52157 -0.25800
C 	C 	0.21560 0.96490 0.55458 0.75500
C 	C 	0.19530 0.96600 0.57412 -1.00700
H 	H 	0.19100 0.94340 0.57880 0.29200
H 	H 	0.17440 0.97720 0.57140 0.28900
H 	H 	0.20750 0.97800 0.58480 0.29800
C 	C 	0.19730 0.94440 0.53860 -1.02500
H 	H 	0.19230 0.92260 0.54430 0.31800
H 	H 	0.21110 0.94190 0.52630 0.32400
H 	H 	0.17670 0.95550 0.53480 0.31300
C 	C 	0.24750 0.94610 0.55960 -1.00300
H 	H 	0.24190 0.92430 0.56500 0.30500
H 	H 	0.26020 0.95850 0.56990 0.30900
H 	H 	0.26060 0.94370 0.54700 0.31500
C 	C 	0.16340 0.12320 0.53160 0.30300
C 	C 	0.16527 0.10260 0.54870 -0.25800
C 	C 	0.13720 0.08620 0.55559 0.19600
H 	H 	0.13850 0.07210 0.56730 -0.05000
C 	C 	0.10740 0.09040 0.54538 -0.33800
C 	C 	0.10560 0.11100 0.52827 0.19700
H 	H 	0.08510 0.11390 0.52130 -0.05100
C 	C 	0.13360 0.12740 0.52139 -0.27300
C 	C 	0.07770 0.07040 0.55131 0.63800
C 	C 	0.08300 0.05030 0.57071 -0.88500
H 	H 	0.06290 0.03780 0.57390 0.24000
H 	H 	0.08810 0.06510 0.58220 0.25700
H 	H 	0.10140 0.03500 0.56860 0.25400
C 	C 	0.06890 0.04600 0.53402 -0.83500
H 	H 	0.04950 0.03310 0.53810 0.22700
H 	H 	0.08760 0.03110 0.53160 0.24100
H 	H 	0.06410 0.05820 0.52130 0.24100
C 	C 	0.04760 0.09230 0.55420 -0.88700
H 	H 	0.02860 0.07870 0.55800 0.24600
H 	H 	0.04290 0.10390 0.54130 0.25800
H 	H 	0.05200 0.10840 0.56510 0.25400
C 	C 	0.50560 0.43140 0.81795 0.29400
C 	C 	0.47680 0.41910 0.82667 -0.25800
C 	C 	0.47830 0.39950 0.84423 0.21000
H 	H 	0.45860 0.39110 0.85020 -0.04900
C 	C 	0.50870 0.39220 0.85307 -0.36500
C 	C 	0.53750 0.40440 0.84435 0.20500
H 	H 	0.55830 0.39940 0.85040 -0.04300
C 	C 	0.53600 0.42410 0.82679 -0.24500
C 	C 	0.51000 0.37230 0.87277 0.74300
C 	C 	0.49330 0.33920 0.87030 -0.99900
H 	H 	0.49460 0.32700 0.88340 0.29100
H 	H 	0.50440 0.32650 0.85950 0.31200
H 	H 	0.47010 0.34250 0.86660 0.30600
C 	C 	0.49190 0.39020 0.89007 -0.95900
H 	H 	0.49300 0.37690 0.90270 0.26700
H 	H 	0.46880 0.39350 0.88620 0.28100
H 	H 	0.50240 0.41160 0.89250 0.27500
C 	C 	0.54490 0.36620 0.88000 -1.01200
H 	H 	0.54460 0.35330 0.89280 0.31500
H 	H 	0.55590 0.38740 0.88250 0.30000
H 	H 	0.55700 0.35400 0.86930 0.31800
C 	C 	0.31460 0.13360 0.53814 0.37400
C 	C 	0.34460 0.14170 0.55001 -0.11800
C 	C 	0.34216 0.15750 0.56899 0.04200
H 	H 	0.32110 0.16220 0.57470 0.03600
C 	C 	0.37060 0.16650 0.57961 -0.11000
H 	H 	0.36890 0.17730 0.59260 0.06700
C 	C 	0.40141 0.15970 0.57126 0.05700
C 	C 	0.40386 0.14390 0.55228 -0.11100
H 	H 	0.42490 0.13930 0.54660 0.06800
C 	C 	0.37550 0.13490 0.54166 0.04200
H 	H 	0.37710 0.12410 0.52870 0.03600
C 	C 	0.43210 0.17200 0.58203 0.00200
C 	C 	0.43310 0.17370 0.60344 -0.05100
H 	H 	0.41470 0.16650 0.61130 0.04600
C 	C 	0.46100 0.18600 0.61328 -0.04300
H 	H 	0.46160 0.18720 0.62790 0.04300
C 	C 	0.48780 0.19660 0.60171 -0.00900
C 	C 	0.48680 0.19480 0.58029 -0.04200
H 	H 	0.50520 0.20200 0.57240 0.04200
C 	C 	0.45900 0.18250 0.57045 -0.05100
H 	H 	0.45830 0.18130 0.55580 0.04600
C 	C 	0.51692 0.21230 0.61242 0.07200
C 	C 	0.51225 0.23190 0.62981 -0.13400
H 	H 	0.49110 0.23320 0.63600 0.07500
C 	C 	0.53855 0.24950 0.63808 0.07300
C 	C 	0.56953 0.24750 0.62896 -0.13400
H 	H 	0.58750 0.25950 0.63460 0.07500
C 	C 	0.57421 0.22800 0.61158 0.07100
C 	C 	0.54791 0.21040 0.60330 -0.13300
H 	H 	0.55110 0.19710 0.59140 0.07400
C 	C 	0.53310 0.27110 0.65655 -0.00800
C 	C 	0.50390 0.28890 0.65856 -0.04400
H 	H 	0.48680 0.28630 0.64870 0.04400
C 	C 	0.49980 0.31040 0.67506 -0.04900
H 	H 	0.47990 0.32250 0.67640 0.04600
C 	C 	0.52480 0.31410 0.68954 -0.00100
C 	C 	0.55390 0.29640 0.68753 -0.05000
H 	H 	0.57100 0.29890 0.69740 0.04600
C 	C 	0.55810 0.27480 0.67103 -0.04400
H 	H 	0.57800 0.26270 0.66970 0.04300
C 	C 	0.52100 0.33840 0.70711 0.06300
C 	C 	0.48980 0.34580 0.71476 -0.11900
H 	H 	0.47100 0.33450 0.70960 0.07000
C 	C 	0.48610 0.36970 0.72996 0.05500
H 	H 	0.46480 0.37470 0.73520 0.02800
C 	C 	0.51360 0.38620 0.73752 -0.13900
C 	C 	0.54480 0.37880 0.72988 0.05600
H 	H 	0.56360 0.39010 0.73500 0.03100
C 	C 	0.54850 0.35490 0.71467 -0.11900
H 	H 	0.56980 0.34990 0.70940 0.07100
C 	C 	0.50930 0.41350 0.75267 0.41100
C 	C 	0.60692 0.22780 0.60047 -0.00500
C 	C 	0.63590 0.22930 0.61188 -0.04800
H 	H 	0.63500 0.23150 0.62650 0.04400
C 	C 	0.66627 0.22770 0.60196 -0.04300
H 	H 	0.68610 0.22880 0.60980 0.04100
C 	C 	0.66763 0.22460 0.58061 -0.01100
C 	C 	0.63860 0.22310 0.56920 -0.04300
H 	H 	0.63960 0.22090 0.55460 0.04200
C 	C 	0.60828 0.22460 0.57912 -0.04900
H 	H 	0.58850 0.22360 0.57130 0.04400
C 	C 	0.70079 0.22250 0.56990 0.07800
C 	C 	0.72840 0.23720 0.57876 -0.14200
H 	H 	0.72680 0.24730 0.59200 0.07600
C 	C 	0.75840 0.23700 0.56832 0.08800
H 	H 	0.77720 0.24700 0.57440 0.02000
C 	C 	0.76070 0.22220 0.54902 -0.19000
C 	C 	0.73310 0.20760 0.54017 0.08600
H 	H 	0.73470 0.19750 0.52700 0.01700
C 	C 	0.70310 0.20780 0.55060 -0.14400
H 	H 	0.68430 0.19780 0.54450 0.07500
C 	C 	0.79230 0.22220 0.53760 0.52600
Co	Co	0.13862 0.75862 0.53306 1.17500
Co	Co	0.45916 0.53282 0.77840 1.17900
S 	S 	0.09044 0.79819 0.56121 0.47100
S 	S 	0.42536 0.56287 0.81743 0.44400
O 	O 	0.11780 0.77660 0.56077 -0.37200
O 	O 	0.07930 0.80780 0.58141 -0.28000
O 	O 	0.09104 0.75040 0.52284 -0.49800
O 	O 	0.13557 0.80717 0.52228 -0.48500
O 	O 	0.42610 0.56160 0.79506 -0.36000
O 	O 	0.40170 0.58470 0.82682 -0.25800
O 	O 	0.44900 0.49380 0.79869 -0.48000
O 	O 	0.14200 0.71270 0.54581 -0.42300
O 	O 	0.11830 0.68160 0.52170 -0.42000
O 	O 	0.42180 0.51840 0.75996 -0.43500
O 	O 	0.42870 0.46630 0.75807 -0.44100
O 	O 	0.23470 0.18550 0.54515 -0.50200
O 	O 	0.20720 0.20790 0.52154 -0.48700
C 	C 	0.06030 0.75990 0.53080 0.32000
C 	C 	0.05760 0.78080 0.54774 -0.27900
C 	C 	0.02670 0.78910 0.55542 0.23100
H 	H 	0.02490 0.80330 0.56700 -0.06300
C 	C 	0.99846 0.77640 0.54617 -0.38400
C 	C 	0.00120 0.75550 0.52925 0.22100
H 	H 	0.98190 0.74690 0.52290 -0.05200
C 	C 	0.03210 0.74730 0.52157 -0.25800
C 	C 	0.96490 0.78440 0.55458 0.75500
C 	C 	0.96600 0.80470 0.57412 -1.00700
H 	H 	0.94340 0.80900 0.57880 0.29200
H 	H 	0.97720 0.82560 0.57140 0.28900
H 	H 	0.97800 0.79250 0.58480 0.29800
C 	C 	0.94440 0.80270 0.53860 -1.02500
H 	H 	0.92260 0.80770 0.54430 0.31800
H 	H 	0.94190 0.78890 0.52630 0.32400
H 	H 	0.95550 0.82330 0.53480 0.31300
C 	C 	0.94610 0.75250 0.55960 -1.00300
H 	H 	0.92430 0.75810 0.56500 0.30500
H 	H 	0.95850 0.73980 0.56990 0.30900
H 	H 	0.94370 0.73940 0.54700 0.31500
C 	C 	0.12320 0.83660 0.53160 0.30300
C 	C 	0.10260 0.83473 0.54870 -0.25800
C 	C 	0.08620 0.86280 0.55559 0.19600
H 	H 	0.07210 0.86150 0.56730 -0.05000
C 	C 	0.09040 0.89260 0.54538 -0.33800
C 	C 	0.11100 0.89440 0.52827 0.19700
H 	H 	0.11390 0.91490 0.52130 -0.05100
C 	C 	0.12740 0.86640 0.52139 -0.27300
C 	C 	0.07040 0.92230 0.55131 0.63800
C 	C 	0.05030 0.91700 0.57071 -0.88500
H 	H 	0.03780 0.93710 0.57390 0.23900
H 	H 	0.06510 0.91190 0.58220 0.25700
H 	H 	0.03500 0.89860 0.56860 0.25400
C 	C 	0.04600 0.93110 0.53402 -0.83500
H 	H 	0.03310 0.95050 0.53810 0.22700
H 	H 	0.03110 0.91240 0.53160 0.24000
H 	H 	0.05820 0.93590 0.52130 0.24100
C 	C 	0.09230 0.95240 0.55420 -0.88600
H 	H 	0.07870 0.97140 0.55800 0.24600
H 	H 	0.10390 0.95710 0.54130 0.25800
H 	H 	0.10840 0.94800 0.56510 0.25300
C 	C 	0.43140 0.49440 0.81795 0.29400
C 	C 	0.41910 0.52320 0.82667 -0.25800
C 	C 	0.39950 0.52170 0.84423 0.21000
H 	H 	0.39110 0.54140 0.85020 -0.04900
C 	C 	0.39220 0.49130 0.85307 -0.36500
C 	C 	0.40440 0.46250 0.84435 0.20500
H 	H 	0.39940 0.44170 0.85040 -0.04300
C 	C 	0.42410 0.46400 0.82679 -0.24500
C 	C 	0.37230 0.49000 0.87277 0.74300
C 	C 	0.33920 0.50670 0.87030 -0.99900
H 	H 	0.32700 0.50540 0.88340 0.29100
H 	H 	0.32650 0.49560 0.85950 0.31200
H 	H 	0.34250 0.52990 0.86660 0.30600
C 	C 	0.39020 0.50810 0.89007 -0.95900
H 	H 	0.37690 0.50700 0.90270 0.26700
H 	H 	0.39350 0.53120 0.88620 0.28100
H 	H 	0.41160 0.49760 0.89250 0.27500
C 	C 	0.36620 0.45510 0.88000 -1.01200
H 	H 	0.35330 0.45540 0.89280 0.31500
H 	H 	0.38740 0.44410 0.88250 0.30000
H 	H 	0.35400 0.44300 0.86930 0.31800
C 	C 	0.13360 0.68540 0.53814 0.37400
C 	C 	0.14170 0.65540 0.55001 -0.11800
C 	C 	0.15750 0.65784 0.56899 0.04200
H 	H 	0.16220 0.67890 0.57470 0.03600
C 	C 	0.16650 0.62940 0.57961 -0.11000
H 	H 	0.17730 0.63110 0.59260 0.06700
C 	C 	0.15970 0.59859 0.57126 0.05700
C 	C 	0.14390 0.59614 0.55228 -0.11100
H 	H 	0.13930 0.57510 0.54660 0.06800
C 	C 	0.13490 0.62450 0.54166 0.04200
H 	H 	0.12410 0.62290 0.52870 0.03600
C 	C 	0.17200 0.56790 0.58203 0.00200
C 	C 	0.17370 0.56690 0.60344 -0.05100
H 	H 	0.16650 0.58530 0.61130 0.04600
C 	C 	0.18600 0.53900 0.61328 -0.04300
H 	H 	0.18720 0.53840 0.62790 0.04300
C 	C 	0.19660 0.51220 0.60171 -0.00900
C 	C 	0.19480 0.51320 0.58029 -0.04200
H 	H 	0.20200 0.49480 0.57240 0.04200
C 	C 	0.18250 0.54100 0.57045 -0.05100
H 	H 	0.18130 0.54170 0.55580 0.04600
C 	C 	0.21230 0.48308 0.61242 0.07200
C 	C 	0.23190 0.48775 0.62981 -0.13400
H 	H 	0.23320 0.50890 0.63600 0.07500
C 	C 	0.24950 0.46145 0.63808 0.07300
C 	C 	0.24750 0.43047 0.62896 -0.13400
H 	H 	0.25950 0.41250 0.63460 0.07500
C 	C 	0.22800 0.42579 0.61158 0.07100
C 	C 	0.21040 0.45209 0.60330 -0.13300
H 	H 	0.19710 0.44890 0.59140 0.07400
C 	C 	0.27110 0.46690 0.65655 -0.00800
C 	C 	0.28890 0.49610 0.65856 -0.04400
H 	H 	0.28630 0.51320 0.64870 0.04400
C 	C 	0.31040 0.50020 0.67506 -0.04900
H 	H 	0.32250 0.52010 0.67640 0.04600
C 	C 	0.31410 0.47520 0.68954 -0.00100
C 	C 	0.29640 0.44610 0.68753 -0.05000
H 	H 	0.29890 0.42900 0.69740 0.04600
C 	C 	0.27480 0.44190 0.67103 -0.04400
H 	H 	0.26270 0.42200 0.66970 0.04300
C 	C 	0.33840 0.47900 0.70711 0.06300
C 	C 	0.34580 0.51020 0.71476 -0.11900
H 	H 	0.33450 0.52900 0.70960 0.07000
C 	C 	0.36970 0.51390 0.72996 0.05500
H 	H 	0.37470 0.53520 0.73520 0.02800
C 	C 	0.38620 0.48640 0.73752 -0.13900
C 	C 	0.37880 0.45520 0.72988 0.05600
H 	H 	0.39010 0.43640 0.73500 0.03100
C 	C 	0.35490 0.45150 0.71467 -0.11900
H 	H 	0.34990 0.43020 0.70940 0.07100
C 	C 	0.41350 0.49070 0.75267 0.41100
C 	C 	0.22780 0.39308 0.60047 -0.00500
C 	C 	0.22930 0.36410 0.61188 -0.04800
H 	H 	0.23150 0.36500 0.62650 0.04400
C 	C 	0.22770 0.33373 0.60196 -0.04300
H 	H 	0.22880 0.31390 0.60980 0.04100
C 	C 	0.22460 0.33237 0.58061 -0.01100
C 	C 	0.22310 0.36140 0.56920 -0.04300
H 	H 	0.22090 0.36040 0.55460 0.04200
C 	C 	0.22460 0.39172 0.57912 -0.04900
H 	H 	0.22360 0.41150 0.57130 0.04400
C 	C 	0.22250 0.29921 0.56990 0.07800
C 	C 	0.23720 0.27160 0.57876 -0.14200
H 	H 	0.24730 0.27320 0.59200 0.07600
C 	C 	0.23700 0.24160 0.56832 0.08800
H 	H 	0.24700 0.22280 0.57440 0.02000
C 	C 	0.22220 0.23930 0.54902 -0.19000
C 	C 	0.20760 0.26690 0.54017 0.08600
H 	H 	0.19750 0.26530 0.52700 0.01700
C 	C 	0.20780 0.29690 0.55060 -0.14400
H 	H 	0.19780 0.31570 0.54450 0.07500
C 	C 	0.22220 0.20770 0.53760 0.52600
Co	Co	0.86138 0.24138 0.53306 1.17500
Co	Co	0.54084 0.46718 0.77840 1.17900
S 	S 	0.90956 0.20181 0.56121 0.47100
S 	S 	0.57464 0.43713 0.81743 0.44400
O 	O 	0.88220 0.22340 0.56077 -0.37200
O 	O 	0.92070 0.19220 0.58141 -0.28000
O 	O 	0.90896 0.24960 0.52284 -0.49800
O 	O 	0.86443 0.19283 0.52228 -0.48500
O 	O 	0.57390 0.43840 0.79506 -0.36000
O 	O 	0.59830 0.41530 0.82682 -0.25800
O 	O 	0.55100 0.50620 0.79869 -0.48000
O 	O 	0.85800 0.28730 0.54581 -0.42300
O 	O 	0.88170 0.31840 0.52170 -0.42000
O 	O 	0.57820 0.48160 0.75996 -0.43500
O 	O 	0.57130 0.53370 0.75807 -0.44100
O 	O 	0.76530 0.81450 0.54515 -0.50200
O 	O 	0.79280 0.79210 0.52154 -0.48700
C 	C 	0.93970 0.24010 0.53080 0.31900
C 	C 	0.94240 0.21920 0.54774 -0.27700
C 	C 	0.97330 0.21090 0.55542 0.22700
H 	H 	0.97510 0.19670 0.56700 -0.06200
C 	C 	0.00154 0.22360 0.54617 -0.37900
C 	C 	0.99880 0.24450 0.52925 0.21500
H 	H 	0.01810 0.25310 0.52290 -0.05000
C 	C 	0.96790 0.25270 0.52157 -0.25500
C 	C 	0.03510 0.21560 0.55458 0.75200
C 	C 	0.03400 0.19530 0.57412 -1.00500
H 	H 	0.05660 0.19100 0.57880 0.29200
H 	H 	0.02280 0.17440 0.57140 0.28900
H 	H 	0.02200 0.20750 0.58480 0.29800
C 	C 	0.05560 0.19730 0.53860 -1.02400
H 	H 	0.07740 0.19230 0.54430 0.31800
H 	H 	0.05810 0.21110 0.52630 0.32300
H 	H 	0.04450 0.17670 0.53480 0.31300
C 	C 	0.05390 0.24750 0.55960 -1.00100
H 	H 	0.07570 0.24190 0.56500 0.30500
H 	H 	0.04150 0.26020 0.56990 0.30900
H 	H 	0.05630 0.26060 0.54700 0.31500
C 	C 	0.87680 0.16340 0.53160 0.30300
C 	C 	0.89740 0.16527 0.54870 -0.25800
C 	C 	0.91380 0.13720 0.55559 0.19600
H 	H 	0.92790 0.13850 0.56730 -0.05000
C 	C 	0.90960 0.10740 0.54538 -0.33800
C 	C 	0.88900 0.10560 0.52827 0.19700
H 	H 	0.88610 0.08510 0.52130 -0.05100
C 	C 	0.87260 0.13360 0.52139 -0.27300
C 	C 	0.92960 0.07770 0.55131 0.63800
C 	C 	0.94970 0.08300 0.57071 -0.88500
H 	H 	0.96220 0.06290 0.57390 0.23900
H 	H 	0.93490 0.08810 0.58220 0.25700
H 	H 	0.96500 0.10140 0.56860 0.25400
C 	C 	0.95400 0.06890 0.53402 -0.83500
H 	H 	0.96690 0.04950 0.53810 0.22700
H 	H 	0.96890 0.08760 0.53160 0.24000
H 	H 	0.94180 0.06410 0.52130 0.24100
C 	C 	0.90770 0.04760 0.55420 -0.88700
H 	H 	0.92130 0.02860 0.55800 0.24600
H 	H 	0.89610 0.04290 0.54130 0.25800
H 	H 	0.89160 0.05200 0.56510 0.25300
C 	C 	0.56860 0.50560 0.81795 0.29400
C 	C 	0.58090 0.47680 0.82667 -0.25800
C 	C 	0.60050 0.47830 0.84423 0.21000
H 	H 	0.60890 0.45860 0.85020 -0.04900
C 	C 	0.60780 0.50870 0.85307 -0.36500
C 	C 	0.59560 0.53750 0.84435 0.20500
H 	H 	0.60060 0.55830 0.85040 -0.04300
C 	C 	0.57590 0.53600 0.82679 -0.24500
C 	C 	0.62770 0.51000 0.87277 0.74300
C 	C 	0.66080 0.49330 0.87030 -0.99900
H 	H 	0.67300 0.49460 0.88340 0.29100
H 	H 	0.67350 0.50440 0.85950 0.31200
H 	H 	0.65750 0.47010 0.86660 0.30600
C 	C 	0.60980 0.49190 0.89007 -0.95900
H 	H 	0.62310 0.49300 0.90270 0.26700
H 	H 	0.60650 0.46880 0.88620 0.28100
H 	H 	0.58840 0.50240 0.89250 0.27500
C 	C 	0.63380 0.54490 0.88000 -1.01200
H 	H 	0.64670 0.54460 0.89280 0.31500
H 	H 	0.61260 0.55590 0.88250 0.30000
H 	H 	0.64600 0.55700 0.86930 0.31800
C 	C 	0.86640 0.31460 0.53814 0.37400
C 	C 	0.85830 0.34460 0.55001 -0.11800
C 	C 	0.84250 0.34216 0.56899 0.04200
H 	H 	0.83780 0.32110 0.57470 0.03600
C 	C 	0.83350 0.37060 0.57961 -0.11000
H 	H 	0.82270 0.36890 0.59260 0.06700
C 	C 	0.84030 0.40141 0.57126 0.05700
C 	C 	0.85610 0.40386 0.55228 -0.11100
H 	H 	0.86070 0.42490 0.54660 0.06800
C 	C 	0.86510 0.37550 0.54166 0.04200
H 	H 	0.87590 0.37710 0.52870 0.03600
C 	C 	0.82800 0.43210 0.58203 0.00200
C 	C 	0.82630 0.43310 0.60344 -0.05100
H 	H 	0.83350 0.41470 0.61130 0.04600
C 	C 	0.81400 0.46100 0.61328 -0.04300
H 	H 	0.81280 0.46160 0.62790 0.04300
C 	C 	0.80340 0.48780 0.60171 -0.00900
C 	C 	0.80520 0.48680 0.58029 -0.04200
H 	H 	0.79800 0.50520 0.57240 0.04200
C 	C 	0.81750 0.45900 0.57045 -0.05100
H 	H 	0.81870 0.45830 0.55580 0.04600
C 	C 	0.78770 0.51692 0.61242 0.07200
C 	C 	0.76810 0.51225 0.62981 -0.13400
H 	H 	0.76680 0.49110 0.63600 0.07500
C 	C 	0.75050 0.53855 0.63808 0.07300
C 	C 	0.75250 0.56953 0.62896 -0.13400
H 	H 	0.74050 0.58750 0.63460 0.07500
C 	C 	0.77200 0.57421 0.61158 0.07100
C 	C 	0.78960 0.54791 0.60330 -0.13300
H 	H 	0.80290 0.55110 0.59140 0.07400
C 	C 	0.72890 0.53310 0.65655 -0.00800
C 	C 	0.71110 0.50390 0.65856 -0.04400
H 	H 	0.71370 0.48680 0.64870 0.04400
C 	C 	0.68960 0.49980 0.67506 -0.04900
H 	H 	0.67750 0.47990 0.67640 0.04600
C 	C 	0.68590 0.52480 0.68954 -0.00100
C 	C 	0.70360 0.55390 0.68753 -0.05000
H 	H 	0.70110 0.57100 0.69740 0.04600
C 	C 	0.72520 0.55810 0.67103 -0.04400
H 	H 	0.73730 0.57800 0.66970 0.04300
C 	C 	0.66160 0.52100 0.70711 0.06300
C 	C 	0.65420 0.48980 0.71476 -0.11900
H 	H 	0.66550 0.47100 0.70960 0.07000
C 	C 	0.63030 0.48610 0.72996 0.05500
H 	H 	0.62530 0.46480 0.73520 0.02800
C 	C 	0.61380 0.51360 0.73752 -0.13900
C 	C 	0.62120 0.54480 0.72988 0.05600
H 	H 	0.60990 0.56360 0.73500 0.03100
C 	C 	0.64510 0.54850 0.71467 -0.11900
H 	H 	0.65010 0.56980 0.70940 0.07100
C 	C 	0.58650 0.50930 0.75267 0.41100
C 	C 	0.77220 0.60692 0.60047 -0.00500
C 	C 	0.77070 0.63590 0.61188 -0.04800
H 	H 	0.76850 0.63500 0.62650 0.04400
C 	C 	0.77230 0.66627 0.60196 -0.04400
H 	H 	0.77120 0.68610 0.60980 0.04100
C 	C 	0.77540 0.66763 0.58061 -0.01100
C 	C 	0.77690 0.63860 0.56920 -0.04300
H 	H 	0.77910 0.63960 0.55460 0.04200
C 	C 	0.77540 0.60828 0.57912 -0.04900
H 	H 	0.77640 0.58850 0.57130 0.04400
C 	C 	0.77750 0.70079 0.56990 0.07800
C 	C 	0.76280 0.72840 0.57876 -0.14200
H 	H 	0.75270 0.72680 0.59200 0.07600
C 	C 	0.76300 0.75840 0.56832 0.08800
H 	H 	0.75300 0.77720 0.57440 0.02000
C 	C 	0.77780 0.76070 0.54902 -0.19100
C 	C 	0.79240 0.73310 0.54017 0.08600
H 	H 	0.80250 0.73470 0.52700 0.01700
C 	C 	0.79220 0.70310 0.55060 -0.14400
H 	H 	0.80220 0.68430 0.54450 0.07500
C 	C 	0.77780 0.79230 0.53760 0.52600
Co	Co	0.28223 0.10630 0.50000 1.16800
Co	Co	0.20087 0.17090 0.50000 1.18300
S 	S 	0.27818 0.03030 0.50000 0.40300
S 	S 	0.12620 0.15103 0.50000 0.48700
O 	O 	0.30140 0.05870 0.50000 -0.34400
O 	O 	0.29580 0.99770 0.50000 -0.23600
O 	O 	0.14900 0.17790 0.50000 -0.38500
O 	O 	0.09200 0.15860 0.50000 -0.30800
O 	O 	0.24780 0.14960 0.50000 -0.82500
H 	H 	0.25950 0.16680 0.50000 0.23000
Co	Co	0.71777 0.89370 0.50000 1.16800
Co	Co	0.79913 0.82910 0.50000 1.18300
S 	S 	0.72182 0.96970 0.50000 0.40100
S 	S 	0.87380 0.84897 0.50000 0.48700
O 	O 	0.69860 0.94130 0.50000 -0.34300
O 	O 	0.70420 0.00230 0.50000 -0.23500
O 	O 	0.85100 0.82210 0.50000 -0.38500
O 	O 	0.90800 0.84140 0.50000 -0.30800
O 	O 	0.75220 0.85040 0.50000 -0.82500
H 	H 	0.74050 0.83320 0.50000 0.23000
Co	Co	0.89370 0.28223 0.50000 1.16800
Co	Co	0.82910 0.20087 0.50000 1.18300
S 	S 	0.96970 0.27818 0.50000 0.40100
S 	S 	0.84897 0.12620 0.50000 0.48700
O 	O 	0.94130 0.30140 0.50000 -0.34300
O 	O 	0.00230 0.29580 0.50000 -0.23500
O 	O 	0.82210 0.14900 0.50000 -0.38500
O 	O 	0.84140 0.09200 0.50000 -0.30800
O 	O 	0.85040 0.24780 0.50000 -0.82500
H 	H 	0.83320 0.25950 0.50000 0.23000
Co	Co	0.10630 0.71777 0.50000 1.16800
Co	Co	0.17090 0.79913 0.50000 1.18300
S 	S 	0.03030 0.72182 0.50000 0.40300
S 	S 	0.15103 0.87380 0.50000 0.48700
O 	O 	0.05870 0.69860 0.50000 -0.34400
O 	O 	0.99770 0.70420 0.50000 -0.23600
O 	O 	0.17790 0.85100 0.50000 -0.38500
O 	O 	0.15860 0.90800 0.50000 -0.30800
O 	O 	0.14960 0.75220 0.50000 -0.82500
H 	H 	0.16680 0.74050 0.50000 0.23000
O 	O 	0.50000 0.50000 0.22910 -0.82600
H 	H 	0.50000 0.50000 0.24210 0.23000
O 	O 	0.50000 0.50000 0.77090 -0.82600
H 	H 	0.50000 0.50000 0.75790 0.23000
Co	Co	0.74138 0.63862 0.96694 1.17500
Co	Co	0.96718 0.95916 0.72160 1.17900
S 	S 	0.70181 0.59044 0.93879 0.47100
S 	S 	0.93713 0.92536 0.68257 0.44400
O 	O 	0.72340 0.61780 0.93923 -0.37200
O 	O 	0.69220 0.57930 0.91859 -0.28000
O 	O 	0.74960 0.59104 0.97716 -0.49800
O 	O 	0.69283 0.63557 0.97772 -0.48500
O 	O 	0.93840 0.92610 0.70494 -0.36100
O 	O 	0.91530 0.90170 0.67318 -0.25800
O 	O 	0.00620 0.94900 0.70131 -0.48000
O 	O 	0.78730 0.64200 0.95419 -0.42300
O 	O 	0.81840 0.61830 0.97830 -0.42000
O 	O 	0.98160 0.92180 0.74004 -0.43600
O 	O 	0.03370 0.92870 0.74193 -0.44100
O 	O 	0.31450 0.73470 0.95485 -0.50200
O 	O 	0.29210 0.70720 0.97846 -0.48700
C 	C 	0.74010 0.56030 0.96920 0.31900
C 	C 	0.71920 0.55760 0.95226 -0.27800
C 	C 	0.71090 0.52670 0.94458 0.22900
H 	H 	0.69670 0.52490 0.93300 -0.06200
C 	C 	0.72360 0.49846 0.95383 -0.38100
C 	C 	0.74450 0.50120 0.97075 0.21800
H 	H 	0.75310 0.48190 0.97710 -0.05100
C 	C 	0.75270 0.53210 0.97843 -0.25700
C 	C 	0.71560 0.46490 0.94542 0.75300
C 	C 	0.69530 0.46600 0.92588 -1.00600
H 	H 	0.69100 0.44340 0.92120 0.29200
H 	H 	0.67440 0.47720 0.92860 0.28900
H 	H 	0.70750 0.47800 0.91520 0.29800
C 	C 	0.69730 0.44440 0.96140 -1.02400
H 	H 	0.69230 0.42260 0.95570 0.31800
H 	H 	0.71110 0.44190 0.97370 0.32400
H 	H 	0.67670 0.45550 0.96520 0.31300
C 	C 	0.74750 0.44610 0.94040 -1.00200
H 	H 	0.74190 0.42430 0.93500 0.30500
H 	H 	0.76020 0.45850 0.93010 0.30900
H 	H 	0.76060 0.44370 0.95300 0.31500
C 	C 	0.66340 0.62320 0.96840 0.30300
C 	C 	0.66527 0.60260 0.95130 -0.25800
C 	C 	0.63720 0.58620 0.94441 0.19600
H 	H 	0.63850 0.57210 0.93270 -0.05000
C 	C 	0.60740 0.59040 0.95462 -0.33800
C 	C 	0.60560 0.61100 0.97173 0.19700
H 	H 	0.58510 0.61390 0.97870 -0.05100
C 	C 	0.63360 0.62740 0.97861 -0.27300
C 	C 	0.57770 0.57040 0.94869 0.63800
C 	C 	0.58300 0.55030 0.92929 -0.88500
H 	H 	0.56290 0.53780 0.92610 0.23900
H 	H 	0.58810 0.56510 0.91780 0.25700
H 	H 	0.60140 0.53500 0.93140 0.25400
C 	C 	0.56890 0.54600 0.96598 -0.83500
H 	H 	0.54950 0.53310 0.96190 0.22700
H 	H 	0.58760 0.53110 0.96840 0.24000
H 	H 	0.56410 0.55820 0.97870 0.24100
C 	C 	0.54760 0.59230 0.94580 -0.88700
H 	H 	0.52860 0.57870 0.94200 0.24600
H 	H 	0.54290 0.60390 0.95870 0.25800
H 	H 	0.55200 0.60840 0.93490 0.25300
C 	C 	0.00560 0.93140 0.68205 0.29400
C 	C 	0.97680 0.91910 0.67333 -0.25800
C 	C 	0.97830 0.89950 0.65577 0.21000
H 	H 	0.95860 0.89110 0.64980 -0.05000
C 	C 	0.00870 0.89220 0.64693 -0.36600
C 	C 	0.03750 0.90440 0.65565 0.20600
H 	H 	0.05830 0.89940 0.64960 -0.04300
C 	C 	0.03600 0.92410 0.67321 -0.24600
C 	C 	0.01000 0.87230 0.62723 0.74700
C 	C 	0.99330 0.83920 0.62970 -1.00500
H 	H 	0.99460 0.82700 0.61660 0.29200
H 	H 	0.00440 0.82650 0.64050 0.31300
H 	H 	0.97010 0.84250 0.63340 0.30800
C 	C 	0.99190 0.89020 0.60993 -0.96400
H 	H 	0.99300 0.87690 0.59730 0.26800
H 	H 	0.96880 0.89350 0.61380 0.28200
H 	H 	0.00240 0.91160 0.60750 0.27700
C 	C 	0.04490 0.86620 0.62000 -1.01500
H 	H 	0.04460 0.85330 0.60720 0.31500
H 	H 	0.05590 0.88740 0.61750 0.30100
H 	H 	0.05700 0.85400 0.63070 0.31900
C 	C 	0.81460 0.63360 0.96186 0.37400
C 	C 	0.84460 0.64170 0.94999 -0.11800
C 	C 	0.84216 0.65750 0.93101 0.04200
H 	H 	0.82110 0.66220 0.92530 0.03600
C 	C 	0.87060 0.66650 0.92039 -0.11000
H 	H 	0.86890 0.67730 0.90740 0.06700
C 	C 	0.90141 0.65970 0.92874 0.05700
C 	C 	0.90386 0.64390 0.94772 -0.11100
H 	H 	0.92490 0.63930 0.95340 0.06800
C 	C 	0.87550 0.63490 0.95834 0.04200
H 	H 	0.87710 0.62410 0.97130 0.03600
C 	C 	0.93210 0.67200 0.91797 0.00100
C 	C 	0.93310 0.67370 0.89656 -0.05100
H 	H 	0.91470 0.66650 0.88870 0.04600
C 	C 	0.96100 0.68600 0.88672 -0.04300
H 	H 	0.96160 0.68720 0.87210 0.04300
C 	C 	0.98780 0.69660 0.89829 -0.00900
C 	C 	0.98680 0.69480 0.91971 -0.04300
H 	H 	0.00520 0.70200 0.92760 0.04300
C 	C 	0.95900 0.68250 0.92955 -0.05000
H 	H 	0.95830 0.68130 0.94420 0.04600
C 	C 	0.01692 0.71230 0.88758 0.07200
C 	C 	0.01225 0.73190 0.87019 -0.13400
H 	H 	0.99110 0.73320 0.86400 0.07500
C 	C 	0.03855 0.74950 0.86192 0.07300
C 	C 	0.06953 0.74750 0.87104 -0.13400
H 	H 	0.08750 0.75950 0.86540 0.07500
C 	C 	0.07421 0.72800 0.88842 0.07100
C 	C 	0.04791 0.71040 0.89670 -0.13400
H 	H 	0.05110 0.69710 0.90860 0.07400
C 	C 	0.03310 0.77110 0.84345 -0.00900
C 	C 	0.00390 0.78890 0.84144 -0.04100
H 	H 	0.98680 0.78630 0.85130 0.04300
C 	C 	0.99980 0.81040 0.82494 -0.05200
H 	H 	0.97990 0.82250 0.82360 0.04700
C 	C 	0.02480 0.81410 0.81046 0.00100
C 	C 	0.05390 0.79640 0.81247 -0.05100
H 	H 	0.07100 0.79890 0.80260 0.04600
C 	C 	0.05810 0.77480 0.82897 -0.04300
H 	H 	0.07800 0.76270 0.83030 0.04300
C 	C 	0.02100 0.83840 0.79289 0.06300
C 	C 	0.98980 0.84580 0.78524 -0.11900
H 	H 	0.97100 0.83450 0.79040 0.07000
C 	C 	0.98610 0.86970 0.77004 0.05400
H 	H 	0.96480 0.87470 0.76480 0.02900
C 	C 	0.01360 0.88620 0.76248 -0.13900
C 	C 	0.04480 0.87880 0.77012 0.05600
H 	H 	0.06360 0.89010 0.76500 0.03100
C 	C 	0.04850 0.85490 0.78533 -0.11900
H 	H 	0.06980 0.84990 0.79060 0.07000
C 	C 	0.00930 0.91350 0.74733 0.41100
C 	C 	0.10692 0.72780 0.89953 -0.00500
C 	C 	0.13590 0.72930 0.88812 -0.04800
H 	H 	0.13500 0.73150 0.87350 0.04400
C 	C 	0.16627 0.72770 0.89804 -0.04400
H 	H 	0.18610 0.72880 0.89020 0.04100
C 	C 	0.16763 0.72460 0.91939 -0.01100
C 	C 	0.13860 0.72310 0.93080 -0.04300
H 	H 	0.13960 0.72090 0.94540 0.04200
C 	C 	0.10828 0.72460 0.92088 -0.04900
H 	H 	0.08850 0.72360 0.92870 0.04400
C 	C 	0.20079 0.72250 0.93010 0.07800
C 	C 	0.22840 0.73720 0.92124 -0.14200
H 	H 	0.22680 0.74730 0.90800 0.07600
C 	C 	0.25840 0.73700 0.93168 0.08800
H 	H 	0.27720 0.74700 0.92560 0.02000
C 	C 	0.26070 0.72220 0.95098 -0.19000
C 	C 	0.23310 0.70760 0.95983 0.08600
H 	H 	0.23470 0.69750 0.97300 0.01700
C 	C 	0.20310 0.70780 0.94940 -0.14400
H 	H 	0.18430 0.69780 0.95550 0.07500
C 	C 	0.29230 0.72220 0.96240 0.52600
Co	Co	0.25862 0.36138 0.96694 1.17500
Co	Co	0.03282 0.04084 0.72160 1.17900
S 	S 	0.29819 0.40956 0.93879 0.47100
S 	S 	0.06287 0.07464 0.68257 0.44400
O 	O 	0.27660 0.38220 0.93923 -0.37200
O 	O 	0.30780 0.42070 0.91859 -0.28000
O 	O 	0.25040 0.40896 0.97716 -0.49800
O 	O 	0.30717 0.36443 0.97772 -0.48500
O 	O 	0.06160 0.07390 0.70494 -0.36000
O 	O 	0.08470 0.09830 0.67318 -0.25800
O 	O 	0.99380 0.05100 0.70131 -0.48100
O 	O 	0.21270 0.35800 0.95419 -0.42300
O 	O 	0.18160 0.38170 0.97830 -0.42000
O 	O 	0.01840 0.07820 0.74004 -0.43500
O 	O 	0.96630 0.07130 0.74193 -0.44100
O 	O 	0.68550 0.26530 0.95485 -0.50200
O 	O 	0.70790 0.29280 0.97846 -0.48700
C 	C 	0.25990 0.43970 0.96920 0.31900
C 	C 	0.28080 0.44240 0.95226 -0.27800
C 	C 	0.28910 0.47330 0.94458 0.22900
H 	H 	0.30330 0.47510 0.93300 -0.06200
C 	C 	0.27640 0.50154 0.95383 -0.38100
C 	C 	0.25550 0.49880 0.97075 0.21800
H 	H 	0.24690 0.51810 0.97710 -0.05100
C 	C 	0.24730 0.46790 0.97843 -0.25700
C 	C 	0.28440 0.53510 0.94542 0.75300
C 	C 	0.30470 0.53400 0.92588 -1.00600
H 	H 	0.30900 0.55660 0.92120 0.29200
H 	H 	0.32560 0.52280 0.92860 0.28900
H 	H 	0.29250 0.52200 0.91520 0.29800
C 	C 	0.30270 0.55560 0.96140 -1.02500
H 	H 	0.30770 0.57740 0.95570 0.31800
H 	H 	0.28890 0.55810 0.97370 0.32400
H 	H 	0.32330 0.54450 0.96520 0.31300
C 	C 	0.25250 0.55390 0.94040 -1.00200
H 	H 	0.25810 0.57570 0.93500 0.30500
H 	H 	0.23980 0.54150 0.93010 0.30900
H 	H 	0.23940 0.55630 0.95300 0.31500
C 	C 	0.33660 0.37680 0.96840 0.30300
C 	C 	0.33473 0.39740 0.95130 -0.25800
C 	C 	0.36280 0.41380 0.94441 0.19600
H 	H 	0.36150 0.42790 0.93270 -0.05000
C 	C 	0.39260 0.40960 0.95462 -0.33800
C 	C 	0.39440 0.38900 0.97173 0.19700
H 	H 	0.41490 0.38610 0.97870 -0.05100
C 	C 	0.36640 0.37260 0.97861 -0.27300
C 	C 	0.42230 0.42960 0.94869 0.63800
C 	C 	0.41700 0.44970 0.92929 -0.88500
H 	H 	0.43710 0.46220 0.92610 0.23900
H 	H 	0.41190 0.43490 0.91780 0.25700
H 	H 	0.39860 0.46500 0.93140 0.25400
C 	C 	0.43110 0.45400 0.96598 -0.83500
H 	H 	0.45050 0.46690 0.96190 0.22700
H 	H 	0.41240 0.46890 0.96840 0.24000
H 	H 	0.43590 0.44180 0.97870 0.24100
C 	C 	0.45240 0.40770 0.94580 -0.88700
H 	H 	0.47140 0.42130 0.94200 0.24600
H 	H 	0.45710 0.39610 0.95870 0.25800
H 	H 	0.44800 0.39160 0.93490 0.25300
C 	C 	0.99440 0.06860 0.68205 0.29300
C 	C 	0.02320 0.08090 0.67333 -0.25700
C 	C 	0.02170 0.10050 0.65577 0.20900
H 	H 	0.04140 0.10890 0.64980 -0.04900
C 	C 	0.99130 0.10780 0.64693 -0.36300
C 	C 	0.96250 0.09560 0.65565 0.20400
H 	H 	0.94170 0.10060 0.64960 -0.04300
C 	C 	0.96400 0.07590 0.67321 -0.24500
C 	C 	0.99000 0.12770 0.62723 0.74000
C 	C 	0.00670 0.16080 0.62970 -0.99400
H 	H 	0.00540 0.17300 0.61660 0.29000
H 	H 	0.99560 0.17350 0.64050 0.31000
H 	H 	0.02990 0.15750 0.63340 0.30500
C 	C 	0.00810 0.10980 0.60993 -0.95400
H 	H 	0.00700 0.12310 0.59730 0.26600
H 	H 	0.03120 0.10650 0.61380 0.28000
H 	H 	0.99760 0.08840 0.60750 0.27300
C 	C 	0.95510 0.13380 0.62000 -1.00900
H 	H 	0.95540 0.14670 0.60720 0.31400
H 	H 	0.94410 0.11260 0.61750 0.29900
H 	H 	0.94300 0.14600 0.63070 0.31700
C 	C 	0.18540 0.36640 0.96186 0.37400
C 	C 	0.15540 0.35830 0.94999 -0.11800
C 	C 	0.15784 0.34250 0.93101 0.04200
H 	H 	0.17890 0.33780 0.92530 0.03600
C 	C 	0.12940 0.33350 0.92039 -0.11000
H 	H 	0.13110 0.32270 0.90740 0.06700
C 	C 	0.09859 0.34030 0.92874 0.05700
C 	C 	0.09614 0.35610 0.94772 -0.11100
H 	H 	0.07510 0.36070 0.95340 0.06800
C 	C 	0.12450 0.36510 0.95834 0.04200
H 	H 	0.12290 0.37590 0.97130 0.03600
C 	C 	0.06790 0.32800 0.91797 0.00200
C 	C 	0.06690 0.32630 0.89656 -0.05100
H 	H 	0.08530 0.33350 0.88870 0.04600
C 	C 	0.03900 0.31400 0.88672 -0.04300
H 	H 	0.03840 0.31280 0.87210 0.04300
C 	C 	0.01220 0.30340 0.89829 -0.00900
C 	C 	0.01320 0.30520 0.91971 -0.04100
H 	H 	0.99480 0.29800 0.92760 0.04100
C 	C 	0.04100 0.31750 0.92955 -0.05200
H 	H 	0.04170 0.31870 0.94420 0.04600
C 	C 	0.98308 0.28770 0.88758 0.07200
C 	C 	0.98775 0.26810 0.87019 -0.13500
H 	H 	0.00890 0.26680 0.86400 0.07600
C 	C 	0.96145 0.25050 0.86192 0.07200
C 	C 	0.93047 0.25250 0.87104 -0.13400
H 	H 	0.91250 0.24050 0.86540 0.07500
C 	C 	0.92579 0.27200 0.88842 0.07100
C 	C 	0.95209 0.28960 0.89670 -0.13300
H 	H 	0.94890 0.30290 0.90860 0.07400
C 	C 	0.96690 0.22890 0.84345 -0.00700
C 	C 	0.99610 0.21110 0.84144 -0.04700
H 	H 	0.01320 0.21370 0.85130 0.04600
C 	C 	0.00020 0.18960 0.82494 -0.04600
H 	H 	0.02010 0.17750 0.82360 0.04500
C 	C 	0.97520 0.18590 0.81046 -0.00200
C 	C 	0.94610 0.20360 0.81247 -0.04800
H 	H 	0.92900 0.20110 0.80260 0.04500
C 	C 	0.94190 0.22520 0.82897 -0.04600
H 	H 	0.92200 0.23730 0.83030 0.04300
C 	C 	0.97900 0.16160 0.79289 0.06300
C 	C 	0.01020 0.15420 0.78524 -0.11900
H 	H 	0.02900 0.16550 0.79040 0.07000
C 	C 	0.01390 0.13030 0.77004 0.05500
H 	H 	0.03520 0.12530 0.76480 0.02800
C 	C 	0.98640 0.11380 0.76248 -0.14000
C 	C 	0.95520 0.12120 0.77012 0.05600
H 	H 	0.93640 0.10990 0.76500 0.03100
C 	C 	0.95150 0.14510 0.78533 -0.12000
H 	H 	0.93020 0.15010 0.79060 0.07100
C 	C 	0.99070 0.08650 0.74733 0.41000
C 	C 	0.89308 0.27220 0.89953 -0.00500
C 	C 	0.86410 0.27070 0.88812 -0.04800
H 	H 	0.86500 0.26850 0.87350 0.04400
C 	C 	0.83373 0.27230 0.89804 -0.04300
H 	H 	0.81390 0.27120 0.89020 0.04100
C 	C 	0.83237 0.27540 0.91939 -0.01100
C 	C 	0.86140 0.27690 0.93080 -0.04300
H 	H 	0.86040 0.27910 0.94540 0.04200
C 	C 	0.89172 0.27540 0.92088 -0.04900
H 	H 	0.91150 0.27640 0.92870 0.04400
C 	C 	0.79921 0.27750 0.93010 0.07800
C 	C 	0.77160 0.26280 0.92124 -0.14200
H 	H 	0.77320 0.25270 0.90800 0.07600
C 	C 	0.74160 0.26300 0.93168 0.08800
H 	H 	0.72280 0.25300 0.92560 0.02000
C 	C 	0.73930 0.27780 0.95098 -0.19000
C 	C 	0.76690 0.29240 0.95983 0.08600
H 	H 	0.76530 0.30250 0.97300 0.01700
C 	C 	0.79690 0.29220 0.94940 -0.14400
H 	H 	0.81570 0.30220 0.95550 0.07500
C 	C 	0.70770 0.27780 0.96240 0.52600
Co	Co	0.36138 0.74138 0.96694 1.17500
Co	Co	0.04084 0.96718 0.72160 1.17900
S 	S 	0.40956 0.70181 0.93879 0.47100
S 	S 	0.07464 0.93713 0.68257 0.44400
O 	O 	0.38220 0.72340 0.93923 -0.37200
O 	O 	0.42070 0.69220 0.91859 -0.28000
O 	O 	0.40896 0.74960 0.97716 -0.49800
O 	O 	0.36443 0.69283 0.97772 -0.48500
O 	O 	0.07390 0.93840 0.70494 -0.36100
O 	O 	0.09830 0.91530 0.67318 -0.25800
O 	O 	0.05100 0.00620 0.70131 -0.48000
O 	O 	0.35800 0.78730 0.95419 -0.42300
O 	O 	0.38170 0.81840 0.97830 -0.42000
O 	O 	0.07820 0.98160 0.74004 -0.43600
O 	O 	0.07130 0.03370 0.74193 -0.44100
O 	O 	0.26530 0.31450 0.95485 -0.50200
O 	O 	0.29280 0.29210 0.97846 -0.48700
C 	C 	0.43970 0.74010 0.96920 0.31900
C 	C 	0.44240 0.71920 0.95226 -0.27800
C 	C 	0.47330 0.71090 0.94458 0.22900
H 	H 	0.47510 0.69670 0.93300 -0.06200
C 	C 	0.50154 0.72360 0.95383 -0.38100
C 	C 	0.49880 0.74450 0.97075 0.21800
H 	H 	0.51810 0.75310 0.97710 -0.05100
C 	C 	0.46790 0.75270 0.97843 -0.25700
C 	C 	0.53510 0.71560 0.94542 0.75300
C 	C 	0.53400 0.69530 0.92588 -1.00600
H 	H 	0.55660 0.69100 0.92120 0.29200
H 	H 	0.52280 0.67440 0.92860 0.28900
H 	H 	0.52200 0.70750 0.91520 0.29800
C 	C 	0.55560 0.69730 0.96140 -1.02400
H 	H 	0.57740 0.69230 0.95570 0.31800
H 	H 	0.55810 0.71110 0.97370 0.32400
H 	H 	0.54450 0.67670 0.96520 0.31300
C 	C 	0.55390 0.74750 0.94040 -1.00200
H 	H 	0.57570 0.74190 0.93500 0.30500
H 	H 	0.54150 0.76020 0.93010 0.30900
H 	H 	0.55630 0.76060 0.95300 0.31500
C 	C 	0.37680 0.66340 0.96840 0.30300
C 	C 	0.39740 0.66527 0.95130 -0.25800
C 	C 	0.41380 0.63720 0.94441 0.19600
H 	H 	0.42790 0.63850 0.93270 -0.05000
C 	C 	0.40960 0.60740 0.95462 -0.33800
C 	C 	0.38900 0.60560 0.97173 0.19700
H 	H 	0.38610 0.58510 0.97870 -0.05100
C 	C 	0.37260 0.63360 0.97861 -0.27300
C 	C 	0.42960 0.57770 0.94869 0.63800
C 	C 	0.44970 0.58300 0.92929 -0.88500
H 	H 	0.46220 0.56290 0.92610 0.23900
H 	H 	0.43490 0.58810 0.91780 0.25700
H 	H 	0.46500 0.60140 0.93140 0.25400
C 	C 	0.45400 0.56890 0.96598 -0.83500
H 	H 	0.46690 0.54950 0.96190 0.22700
H 	H 	0.46890 0.58760 0.96840 0.24000
H 	H 	0.44180 0.56410 0.97870 0.24100
C 	C 	0.40770 0.54760 0.94580 -0.88700
H 	H 	0.42130 0.52860 0.94200 0.24600
H 	H 	0.39610 0.54290 0.95870 0.25800
H 	H 	0.39160 0.55200 0.93490 0.25300
C 	C 	0.06860 0.00560 0.68205 0.29400
C 	C 	0.08090 0.97680 0.67333 -0.25900
C 	C 	0.10050 0.97830 0.65577 0.21000
H 	H 	0.10890 0.95860 0.64980 -0.05000
C 	C 	0.10780 0.00870 0.64693 -0.36600
C 	C 	0.09560 0.03750 0.65565 0.20600
H 	H 	0.10060 0.05830 0.64960 -0.04300
C 	C 	0.07590 0.03600 0.67321 -0.24600
C 	C 	0.12770 0.01000 0.62723 0.74700
C 	C 	0.16080 0.99330 0.62970 -1.00500
H 	H 	0.17300 0.99460 0.61660 0.29200
H 	H 	0.17350 0.00440 0.64050 0.31300
H 	H 	0.15750 0.97010 0.63340 0.30800
C 	C 	0.10980 0.99190 0.60993 -0.96400
H 	H 	0.12310 0.99300 0.59730 0.26800
H 	H 	0.10650 0.96880 0.61380 0.28200
H 	H 	0.08840 0.00240 0.60750 0.27700
C 	C 	0.13380 0.04490 0.62000 -1.01500
H 	H 	0.14670 0.04460 0.60720 0.31600
H 	H 	0.11260 0.05590 0.61750 0.30100
H 	H 	0.14600 0.05700 0.63070 0.31900
C 	C 	0.36640 0.81460 0.96186 0.37400
C 	C 	0.35830 0.84460 0.94999 -0.11800
C 	C 	0.34250 0.84216 0.93101 0.04200
H 	H 	0.33780 0.82110 0.92530 0.03600
C 	C 	0.33350 0.87060 0.92039 -0.11000
H 	H 	0.32270 0.86890 0.90740 0.06700
C 	C 	0.34030 0.90141 0.92874 0.05700
C 	C 	0.35610 0.90386 0.94772 -0.11100
H 	H 	0.36070 0.92490 0.95340 0.06800
C 	C 	0.36510 0.87550 0.95834 0.04200
H 	H 	0.37590 0.87710 0.97130 0.03600
C 	C 	0.32800 0.93210 0.91797 0.00100
C 	C 	0.32630 0.93310 0.89656 -0.05100
H 	H 	0.33350 0.91470 0.88870 0.04600
C 	C 	0.31400 0.96100 0.88672 -0.04300
H 	H 	0.31280 0.96160 0.87210 0.04300
C 	C 	0.30340 0.98780 0.89829 -0.00900
C 	C 	0.30520 0.98680 0.91971 -0.04300
H 	H 	0.29800 0.00520 0.92760 0.04300
C 	C 	0.31750 0.95900 0.92955 -0.05000
H 	H 	0.31870 0.95830 0.94420 0.04600
C 	C 	0.28770 0.01692 0.88758 0.07200
C 	C 	0.26810 0.01225 0.87019 -0.13400
H 	H 	0.26680 0.99110 0.86400 0.07500
C 	C 	0.25050 0.03855 0.86192 0.07300
C 	C 	0.25250 0.06953 0.87104 -0.13400
H 	H 	0.24050 0.08750 0.86540 0.07500
C 	C 	0.27200 0.07421 0.88842 0.07100
C 	C 	0.28960 0.04791 0.89670 -0.13400
H 	H 	0.30290 0.05110 0.90860 0.07400
C 	C 	0.22890 0.03310 0.84345 -0.00900
C 	C 	0.21110 0.00390 0.84144 -0.04100
H 	H 	0.21370 0.98680 0.85130 0.04300
C 	C 	0.18960 0.99980 0.82494 -0.05200
H 	H 	0.17750 0.97990 0.82360 0.04700
C 	C 	0.18590 0.02480 0.81046 0.00100
C 	C 	0.20360 0.05390 0.81247 -0.05100
H 	H 	0.20110 0.07100 0.80260 0.04600
C 	C 	0.22520 0.05810 0.82897 -0.04300
H 	H 	0.23730 0.07800 0.83030 0.04300
C 	C 	0.16160 0.02100 0.79289 0.06300
C 	C 	0.15420 0.98980 0.78524 -0.11900
H 	H 	0.16550 0.97100 0.79040 0.07000
C 	C 	0.13030 0.98610 0.77004 0.05400
H 	H 	0.12530 0.96480 0.76480 0.02900
C 	C 	0.11380 0.01360 0.76248 -0.13900
C 	C 	0.12120 0.04480 0.77012 0.05600
H 	H 	0.10990 0.06360 0.76500 0.03100
C 	C 	0.14510 0.04850 0.78533 -0.11900
H 	H 	0.15010 0.06980 0.79060 0.07000
C 	C 	0.08650 0.00930 0.74733 0.41100
C 	C 	0.27220 0.10692 0.89953 -0.00500
C 	C 	0.27070 0.13590 0.88812 -0.04800
H 	H 	0.26850 0.13500 0.87350 0.04400
C 	C 	0.27230 0.16627 0.89804 -0.04300
H 	H 	0.27120 0.18610 0.89020 0.04100
C 	C 	0.27540 0.16763 0.91939 -0.01100
C 	C 	0.27690 0.13860 0.93080 -0.04300
H 	H 	0.27910 0.13960 0.94540 0.04200
C 	C 	0.27540 0.10828 0.92088 -0.04900
H 	H 	0.27640 0.08850 0.92870 0.04400
C 	C 	0.27750 0.20079 0.93010 0.07800
C 	C 	0.26280 0.22840 0.92124 -0.14200
H 	H 	0.25270 0.22680 0.90800 0.07600
C 	C 	0.26300 0.25840 0.93168 0.08800
H 	H 	0.25300 0.27720 0.92560 0.02000
C 	C 	0.27780 0.26070 0.95098 -0.19000
C 	C 	0.29240 0.23310 0.95983 0.08600
H 	H 	0.30250 0.23470 0.97300 0.01700
C 	C 	0.29220 0.20310 0.94940 -0.14400
H 	H 	0.30220 0.18430 0.95550 0.07500
C 	C 	0.27780 0.29230 0.96240 0.52600
Co	Co	0.63862 0.25862 0.96694 1.17500
Co	Co	0.95916 0.03282 0.72160 1.17900
S 	S 	0.59044 0.29819 0.93879 0.47100
S 	S 	0.92536 0.06287 0.68257 0.44300
O 	O 	0.61780 0.27660 0.93923 -0.37200
O 	O 	0.57930 0.30780 0.91859 -0.28000
O 	O 	0.59104 0.25040 0.97716 -0.49800
O 	O 	0.63557 0.30717 0.97772 -0.48500
O 	O 	0.92610 0.06160 0.70494 -0.36000
O 	O 	0.90170 0.08470 0.67318 -0.25800
O 	O 	0.94900 0.99380 0.70131 -0.48100
O 	O 	0.64200 0.21270 0.95419 -0.42300
O 	O 	0.61830 0.18160 0.97830 -0.42000
O 	O 	0.92180 0.01840 0.74004 -0.43500
O 	O 	0.92870 0.96630 0.74193 -0.44100
O 	O 	0.73470 0.68550 0.95485 -0.50200
O 	O 	0.70720 0.70790 0.97846 -0.48700
C 	C 	0.56030 0.25990 0.96920 0.31900
C 	C 	0.55760 0.28080 0.95226 -0.27800
C 	C 	0.52670 0.28910 0.94458 0.22900
H 	H 	0.52490 0.30330 0.93300 -0.06200
C 	C 	0.49846 0.27640 0.95383 -0.38100
C 	C 	0.50120 0.25550 0.97075 0.21800
H 	H 	0.48190 0.24690 0.97710 -0.05100
C 	C 	0.53210 0.24730 0.97843 -0.25700
C 	C 	0.46490 0.28440 0.94542 0.75300
C 	C 	0.46600 0.30470 0.92588 -1.00600
H 	H 	0.44340 0.30900 0.92120 0.29200
H 	H 	0.47720 0.32560 0.92860 0.28900
H 	H 	0.47800 0.29250 0.91520 0.29800
C 	C 	0.44440 0.30270 0.96140 -1.02500
H 	H 	0.42260 0.30770 0.95570 0.31800
H 	H 	0.44190 0.28890 0.97370 0.32400
H 	H 	0.45550 0.32330 0.96520 0.31300
C 	C 	0.44610 0.25250 0.94040 -1.00200
H 	H 	0.42430 0.25810 0.93500 0.30500
H 	H 	0.45850 0.23980 0.93010 0.30900
H 	H 	0.44370 0.23940 0.95300 0.31500
C 	C 	0.62320 0.33660 0.96840 0.30300
C 	C 	0.60260 0.33473 0.95130 -0.25800
C 	C 	0.58620 0.36280 0.94441 0.19600
H 	H 	0.57210 0.36150 0.93270 -0.05000
C 	C 	0.59040 0.39260 0.95462 -0.33800
C 	C 	0.61100 0.39440 0.97173 0.19700
H 	H 	0.61390 0.41490 0.97870 -0.05100
C 	C 	0.62740 0.36640 0.97861 -0.27300
C 	C 	0.57040 0.42230 0.94869 0.63800
C 	C 	0.55030 0.41700 0.92929 -0.88500
H 	H 	0.53780 0.43710 0.92610 0.23900
H 	H 	0.56510 0.41190 0.91780 0.25700
H 	H 	0.53500 0.39860 0.93140 0.25400
C 	C 	0.54600 0.43110 0.96598 -0.83500
H 	H 	0.53310 0.45050 0.96190 0.22700
H 	H 	0.53110 0.41240 0.96840 0.24000
H 	H 	0.55820 0.43590 0.97870 0.24100
C 	C 	0.59230 0.45240 0.94580 -0.88700
H 	H 	0.57870 0.47140 0.94200 0.24600
H 	H 	0.60390 0.45710 0.95870 0.25800
H 	H 	0.60840 0.44800 0.93490 0.25300
C 	C 	0.93140 0.99440 0.68205 0.29300
C 	C 	0.91910 0.02320 0.67333 -0.25700
C 	C 	0.89950 0.02170 0.65577 0.20900
H 	H 	0.89110 0.04140 0.64980 -0.04900
C 	C 	0.89220 0.99130 0.64693 -0.36400
C 	C 	0.90440 0.96250 0.65565 0.20400
H 	H 	0.89940 0.94170 0.64960 -0.04300
C 	C 	0.92410 0.96400 0.67321 -0.24500
C 	C 	0.87230 0.99000 0.62723 0.73900
C 	C 	0.83920 0.00670 0.62970 -0.99400
H 	H 	0.82700 0.00540 0.61660 0.29000
H 	H 	0.82650 0.99560 0.64050 0.31000
H 	H 	0.84250 0.02990 0.63340 0.30500
C 	C 	0.89020 0.00810 0.60993 -0.95400
H 	H 	0.87690 0.00700 0.59730 0.26600
H 	H 	0.89350 0.03120 0.61380 0.28000
H 	H 	0.91160 0.99760 0.60750 0.27300
C 	C 	0.86620 0.95510 0.62000 -1.00800
H 	H 	0.85330 0.95540 0.60720 0.31300
H 	H 	0.88740 0.94410 0.61750 0.29900
H 	H 	0.85400 0.94300 0.63070 0.31700
C 	C 	0.63360 0.18540 0.96186 0.37400
C 	C 	0.64170 0.15540 0.94999 -0.11800
C 	C 	0.65750 0.15784 0.93101 0.04200
H 	H 	0.66220 0.17890 0.92530 0.03600
C 	C 	0.66650 0.12940 0.92039 -0.11000
H 	H 	0.67730 0.13110 0.90740 0.06700
C 	C 	0.65970 0.09859 0.92874 0.05700
C 	C 	0.64390 0.09614 0.94772 -0.11100
H 	H 	0.63930 0.07510 0.95340 0.06800
C 	C 	0.63490 0.12450 0.95834 0.04200
H 	H 	0.62410 0.12290 0.97130 0.03600
C 	C 	0.67200 0.06790 0.91797 0.00200
C 	C 	0.67370 0.06690 0.89656 -0.05100
H 	H 	0.66650 0.08530 0.88870 0.04600
C 	C 	0.68600 0.03900 0.88672 -0.04300
H 	H 	0.68720 0.03840 0.87210 0.04300
C 	C 	0.69660 0.01220 0.89829 -0.00900
C 	C 	0.69480 0.01320 0.91971 -0.04100
H 	H 	0.70200 0.99480 0.92760 0.04100
C 	C 	0.68250 0.04100 0.92955 -0.05200
H 	H 	0.68130 0.04170 0.94420 0.04600
C 	C 	0.71230 0.98308 0.88758 0.07200
C 	C 	0.73190 0.98775 0.87019 -0.13500
H 	H 	0.73320 0.00890 0.86400 0.07600
C 	C 	0.74950 0.96145 0.86192 0.07200
C 	C 	0.74750 0.93047 0.87104 -0.13400
H 	H 	0.75950 0.91250 0.86540 0.07500
C 	C 	0.72800 0.92579 0.88842 0.07100
C 	C 	0.71040 0.95209 0.89670 -0.13300
H 	H 	0.69710 0.94890 0.90860 0.07400
C 	C 	0.77110 0.96690 0.84345 -0.00700
C 	C 	0.78890 0.99610 0.84144 -0.04700
H 	H 	0.78630 0.01320 0.85130 0.04500
C 	C 	0.81040 0.00020 0.82494 -0.04600
H 	H 	0.82250 0.02010 0.82360 0.04500
C 	C 	0.81410 0.97520 0.81046 -0.00200
C 	C 	0.79640 0.94610 0.81247 -0.04800
H 	H 	0.79890 0.92900 0.80260 0.04500
C 	C 	0.77480 0.94190 0.82897 -0.04600
H 	H 	0.76270 0.92200 0.83030 0.04300
C 	C 	0.83840 0.97900 0.79289 0.06300
C 	C 	0.84580 0.01020 0.78524 -0.11900
H 	H 	0.83450 0.02900 0.79040 0.07000
C 	C 	0.86970 0.01390 0.77004 0.05500
H 	H 	0.87470 0.03520 0.76480 0.02800
C 	C 	0.88620 0.98640 0.76248 -0.14000
C 	C 	0.87880 0.95520 0.77012 0.05600
H 	H 	0.89010 0.93640 0.76500 0.03100
C 	C 	0.85490 0.95150 0.78533 -0.12000
H 	H 	0.84990 0.93020 0.79060 0.07100
C 	C 	0.91350 0.99070 0.74733 0.41000
C 	C 	0.72780 0.89308 0.89953 -0.00500
C 	C 	0.72930 0.86410 0.88812 -0.04800
H 	H 	0.73150 0.86500 0.87350 0.04400
C 	C 	0.72770 0.83373 0.89804 -0.04300
H 	H 	0.72880 0.81390 0.89020 0.04100
C 	C 	0.72460 0.83237 0.91939 -0.01100
C 	C 	0.72310 0.86140 0.93080 -0.04300
H 	H 	0.72090 0.86040 0.94540 0.04200
C 	C 	0.72460 0.89172 0.92088 -0.04900
H 	H 	0.72360 0.91150 0.92870 0.04400
C 	C 	0.72250 0.79921 0.93010 0.07800
C 	C 	0.73720 0.77160 0.92124 -0.14200
H 	H 	0.74730 0.77320 0.90800 0.07600
C 	C 	0.73700 0.74160 0.93168 0.08800
H 	H 	0.74700 0.72280 0.92560 0.02000
C 	C 	0.72220 0.73930 0.95098 -0.19000
C 	C 	0.70760 0.76690 0.95983 0.08600
H 	H 	0.69750 0.76530 0.97300 0.01700
C 	C 	0.70780 0.79690 0.94940 -0.14400
H 	H 	0.69780 0.81570 0.95550 0.07500
C 	C 	0.72220 0.70770 0.96240 0.52600
Co	Co	0.25862 0.36138 0.03306 1.17500
Co	Co	0.03282 0.04084 0.27840 1.17900
S 	S 	0.29819 0.40956 0.06121 0.47100
S 	S 	0.06287 0.07464 0.31743 0.44400
O 	O 	0.27660 0.38220 0.06077 -0.37200
O 	O 	0.30780 0.42070 0.08141 -0.28000
O 	O 	0.25040 0.40896 0.02284 -0.49800
O 	O 	0.30717 0.36443 0.02228 -0.48500
O 	O 	0.06160 0.07390 0.29506 -0.36000
O 	O 	0.08470 0.09830 0.32682 -0.25800
O 	O 	0.99380 0.05100 0.29869 -0.48100
O 	O 	0.21270 0.35800 0.04581 -0.42300
O 	O 	0.18160 0.38170 0.02170 -0.42000
O 	O 	0.01840 0.07820 0.25996 -0.43500
O 	O 	0.96630 0.07130 0.25807 -0.44100
O 	O 	0.68550 0.26530 0.04515 -0.50200
O 	O 	0.70790 0.29280 0.02154 -0.48700
C 	C 	0.25990 0.43970 0.03080 0.31900
C 	C 	0.28080 0.44240 0.04774 -0.27800
C 	C 	0.28910 0.47330 0.05542 0.22900
H 	H 	0.30330 0.47510 0.06700 -0.06200
C 	C 	0.27640 0.50154 0.04617 -0.38100
C 	C 	0.25550 0.49880 0.02925 0.21800
H 	H 	0.24690 0.51810 0.02290 -0.05100
C 	C 	0.24730 0.46790 0.02157 -0.25700
C 	C 	0.28440 0.53510 0.05458 0.75300
C 	C 	0.30470 0.53400 0.07412 -1.00600
H 	H 	0.30900 0.55660 0.07880 0.29200
H 	H 	0.32560 0.52280 0.07140 0.28900
H 	H 	0.29250 0.52200 0.08480 0.29800
C 	C 	0.30270 0.55560 0.03860 -1.02500
H 	H 	0.30770 0.57740 0.04430 0.31800
H 	H 	0.28890 0.55810 0.02630 0.32400
H 	H 	0.32330 0.54450 0.03480 0.31300
C 	C 	0.25250 0.55390 0.05960 -1.00200
H 	H 	0.25810 0.57570 0.06500 0.30500
H 	H 	0.23980 0.54150 0.06990 0.30900
H 	H 	0.23940 0.55630 0.04700 0.31500
C 	C 	0.33660 0.37680 0.03160 0.30300
C 	C 	0.33473 0.39740 0.04870 -0.25800
C 	C 	0.36280 0.41380 0.05559 0.19600
H 	H 	0.36150 0.42790 0.06730 -0.05000
C 	C 	0.39260 0.40960 0.04538 -0.33800
C 	C 	0.39440 0.38900 0.02827 0.19700
H 	H 	0.41490 0.38610 0.02130 -0.05100
C 	C 	0.36640 0.37260 0.02139 -0.27300
C 	C 	0.42230 0.42960 0.05131 0.63800
C 	C 	0.41700 0.44970 0.07071 -0.88500
H 	H 	0.43710 0.46220 0.07390 0.23900
H 	H 	0.41190 0.43490 0.08220 0.25700
H 	H 	0.39860 0.46500 0.06860 0.25400
C 	C 	0.43110 0.45400 0.03402 -0.83500
H 	H 	0.45050 0.46690 0.03810 0.22700
H 	H 	0.41240 0.46890 0.03160 0.24000
H 	H 	0.43590 0.44180 0.02130 0.24100
C 	C 	0.45240 0.40770 0.05420 -0.88600
H 	H 	0.47140 0.42130 0.05800 0.24600
H 	H 	0.45710 0.39610 0.04130 0.25800
H 	H 	0.44800 0.39160 0.06510 0.25300
C 	C 	0.99440 0.06860 0.31795 0.29300
C 	C 	0.02320 0.08090 0.32667 -0.25700
C 	C 	0.02170 0.10050 0.34423 0.20900
H 	H 	0.04140 0.10890 0.35020 -0.04900
C 	C 	0.99130 0.10780 0.35307 -0.36300
C 	C 	0.96250 0.09560 0.34435 0.20400
H 	H 	0.94170 0.10060 0.35040 -0.04300
C 	C 	0.96400 0.07590 0.32679 -0.24500
C 	C 	0.99000 0.12770 0.37277 0.74000
C 	C 	0.00670 0.16080 0.37030 -0.99400
H 	H 	0.00540 0.17300 0.38340 0.29000
H 	H 	0.99560 0.17350 0.35950 0.31000
H 	H 	0.02990 0.15750 0.36660 0.30500
C 	C 	0.00810 0.10980 0.39007 -0.95400
H 	H 	0.00700 0.12310 0.40270 0.26600
H 	H 	0.03120 0.10650 0.38620 0.28000
H 	H 	0.99760 0.08840 0.39250 0.27300
C 	C 	0.95510 0.13380 0.38000 -1.00900
H 	H 	0.95540 0.14670 0.39280 0.31400
H 	H 	0.94410 0.11260 0.38250 0.29900
H 	H 	0.94300 0.14600 0.36930 0.31700
C 	C 	0.18540 0.36640 0.03814 0.37400
C 	C 	0.15540 0.35830 0.05001 -0.11800
C 	C 	0.15784 0.34250 0.06899 0.04200
H 	H 	0.17890 0.33780 0.07470 0.03600
C 	C 	0.12940 0.33350 0.07961 -0.11000
H 	H 	0.13110 0.32270 0.09260 0.06700
C 	C 	0.09859 0.34030 0.07126 0.05700
C 	C 	0.09614 0.35610 0.05228 -0.11100
H 	H 	0.07510 0.36070 0.04660 0.06800
C 	C 	0.12450 0.36510 0.04166 0.04200
H 	H 	0.12290 0.37590 0.02870 0.03600
C 	C 	0.06790 0.32800 0.08203 0.00200
C 	C 	0.06690 0.32630 0.10344 -0.05100
H 	H 	0.08530 0.33350 0.11130 0.04600
C 	C 	0.03900 0.31400 0.11328 -0.04300
H 	H 	0.03840 0.31280 0.12790 0.04300
C 	C 	0.01220 0.30340 0.10171 -0.00900
C 	C 	0.01320 0.30520 0.08029 -0.04100
H 	H 	0.99480 0.29800 0.07240 0.04100
C 	C 	0.04100 0.31750 0.07045 -0.05200
H 	H 	0.04170 0.31870 0.05580 0.04600
C 	C 	0.98308 0.28770 0.11242 0.07200
C 	C 	0.98775 0.26810 0.12981 -0.13500
H 	H 	0.00890 0.26680 0.13600 0.07600
C 	C 	0.96145 0.25050 0.13808 0.07200
C 	C 	0.93047 0.25250 0.12896 -0.13400
H 	H 	0.91250 0.24050 0.13460 0.07500
C 	C 	0.92579 0.27200 0.11158 0.07100
C 	C 	0.95209 0.28960 0.10330 -0.13300
H 	H 	0.94890 0.30290 0.09140 0.07400
C 	C 	0.96690 0.22890 0.15655 -0.00700
C 	C 	0.99610 0.21110 0.15856 -0.04700
H 	H 	0.01320 0.21370 0.14870 0.04600
C 	C 	0.00020 0.18960 0.17506 -0.04600
H 	H 	0.02010 0.17750 0.17640 0.04500
C 	C 	0.97520 0.18590 0.18954 -0.00200
C 	C 	0.94610 0.20360 0.18753 -0.04800
H 	H 	0.92900 0.20110 0.19740 0.04500
C 	C 	0.94190 0.22520 0.17103 -0.04600
H 	H 	0.92200 0.23730 0.16970 0.04300
C 	C 	0.97900 0.16160 0.20711 0.06300
C 	C 	0.01020 0.15420 0.21476 -0.11900
H 	H 	0.02900 0.16550 0.20960 0.07000
C 	C 	0.01390 0.13030 0.22996 0.05500
H 	H 	0.03520 0.12530 0.23520 0.02800
C 	C 	0.98640 0.11380 0.23752 -0.14000
C 	C 	0.95520 0.12120 0.22988 0.05600
H 	H 	0.93640 0.10990 0.23500 0.03100
C 	C 	0.95150 0.14510 0.21467 -0.12000
H 	H 	0.93020 0.15010 0.20940 0.07100
C 	C 	0.99070 0.08650 0.25267 0.41000
C 	C 	0.89308 0.27220 0.10047 -0.00500
C 	C 	0.86410 0.27070 0.11188 -0.04800
H 	H 	0.86500 0.26850 0.12650 0.04400
C 	C 	0.83373 0.27230 0.10196 -0.04300
H 	H 	0.81390 0.27120 0.10980 0.04100
C 	C 	0.83237 0.27540 0.08061 -0.01100
C 	C 	0.86140 0.27690 0.06920 -0.04300
H 	H 	0.86040 0.27910 0.05460 0.04200
C 	C 	0.89172 0.27540 0.07912 -0.04900
H 	H 	0.91150 0.27640 0.07130 0.04400
C 	C 	0.79921 0.27750 0.06990 0.07800
C 	C 	0.77160 0.26280 0.07876 -0.14200
H 	H 	0.77320 0.25270 0.09200 0.07600
C 	C 	0.74160 0.26300 0.06832 0.08800
H 	H 	0.72280 0.25300 0.07440 0.02000
C 	C 	0.73930 0.27780 0.04902 -0.19100
C 	C 	0.76690 0.29240 0.04017 0.08600
H 	H 	0.76530 0.30250 0.02700 0.01700
C 	C 	0.79690 0.29220 0.05060 -0.14400
H 	H 	0.81570 0.30220 0.04450 0.07500
C 	C 	0.70770 0.27780 0.03760 0.52600
Co	Co	0.74138 0.63862 0.03306 1.17500
Co	Co	0.96718 0.95916 0.27840 1.17900
S 	S 	0.70181 0.59044 0.06121 0.47100
S 	S 	0.93713 0.92536 0.31743 0.44400
O 	O 	0.72340 0.61780 0.06077 -0.37200
O 	O 	0.69220 0.57930 0.08141 -0.28000
O 	O 	0.74960 0.59104 0.02284 -0.49800
O 	O 	0.69283 0.63557 0.02228 -0.48500
O 	O 	0.93840 0.92610 0.29506 -0.36100
O 	O 	0.91530 0.90170 0.32682 -0.25800
O 	O 	0.00620 0.94900 0.29869 -0.48000
O 	O 	0.78730 0.64200 0.04581 -0.42300
O 	O 	0.81840 0.61830 0.02170 -0.42000
O 	O 	0.98160 0.92180 0.25996 -0.43600
O 	O 	0.03370 0.92870 0.25807 -0.44100
O 	O 	0.31450 0.73470 0.04515 -0.50200
O 	O 	0.29210 0.70720 0.02154 -0.48700
C 	C 	0.74010 0.56030 0.03080 0.31900
C 	C 	0.71920 0.55760 0.04774 -0.27800
C 	C 	0.71090 0.52670 0.05542 0.22900
H 	H 	0.69670 0.52490 0.06700 -0.06200
C 	C 	0.72360 0.49846 0.04617 -0.38100
C 	C 	0.74450 0.50120 0.02925 0.21800
H 	H 	0.75310 0.48190 0.02290 -0.05100
C 	C 	0.75270 0.53210 0.02157 -0.25700
C 	C 	0.71560 0.46490 0.05458 0.75300
C 	C 	0.69530 0.46600 0.07412 -1.00600
H 	H 	0.69100 0.44340 0.07880 0.29200
H 	H 	0.67440 0.47720 0.07140 0.28900
H 	H 	0.70750 0.47800 0.08480 0.29800
C 	C 	0.69730 0.44440 0.03860 -1.02400
H 	H 	0.69230 0.42260 0.04430 0.31800
H 	H 	0.71110 0.44190 0.02630 0.32400
H 	H 	0.67670 0.45550 0.03480 0.31300
C 	C 	0.74750 0.44610 0.05960 -1.00200
H 	H 	0.74190 0.42430 0.06500 0.30500
H 	H 	0.76020 0.45850 0.06990 0.30900
H 	H 	0.76060 0.44370 0.04700 0.31500
C 	C 	0.66340 0.62320 0.03160 0.30300
C 	C 	0.66527 0.60260 0.04870 -0.25800
C 	C 	0.63720 0.58620 0.05559 0.19600
H 	H 	0.63850 0.57210 0.06730 -0.05000
C 	C 	0.60740 0.59040 0.04538 -0.33800
C 	C 	0.60560 0.61100 0.02827 0.19700
H 	H 	0.58510 0.61390 0.02130 -0.05100
C 	C 	0.63360 0.62740 0.02139 -0.27300
C 	C 	0.57770 0.57040 0.05131 0.63800
C 	C 	0.58300 0.55030 0.07071 -0.88500
H 	H 	0.56290 0.53780 0.07390 0.23900
H 	H 	0.58810 0.56510 0.08220 0.25700
H 	H 	0.60140 0.53500 0.06860 0.25400
C 	C 	0.56890 0.54600 0.03402 -0.83500
H 	H 	0.54950 0.53310 0.03810 0.22700
H 	H 	0.58760 0.53110 0.03160 0.24000
H 	H 	0.56410 0.55820 0.02130 0.24100
C 	C 	0.54760 0.59230 0.05420 -0.88700
H 	H 	0.52860 0.57870 0.05800 0.24600
H 	H 	0.54290 0.60390 0.04130 0.25800
H 	H 	0.55200 0.60840 0.06510 0.25300
C 	C 	0.00560 0.93140 0.31795 0.29400
C 	C 	0.97680 0.91910 0.32667 -0.25800
C 	C 	0.97830 0.89950 0.34423 0.21000
H 	H 	0.95860 0.89110 0.35020 -0.05000
C 	C 	0.00870 0.89220 0.35307 -0.36600
C 	C 	0.03750 0.90440 0.34435 0.20600
H 	H 	0.05830 0.89940 0.35040 -0.04300
C 	C 	0.03600 0.92410 0.32679 -0.24600
C 	C 	0.01000 0.87230 0.37277 0.74700
C 	C 	0.99330 0.83920 0.37030 -1.00500
H 	H 	0.99460 0.82700 0.38340 0.29200
H 	H 	0.00440 0.82650 0.35950 0.31300
H 	H 	0.97010 0.84250 0.36660 0.30800
C 	C 	0.99190 0.89020 0.39007 -0.96400
H 	H 	0.99300 0.87690 0.40270 0.26800
H 	H 	0.96880 0.89350 0.38620 0.28200
H 	H 	0.00240 0.91160 0.39250 0.27700
C 	C 	0.04490 0.86620 0.38000 -1.01500
H 	H 	0.04460 0.85330 0.39280 0.31500
H 	H 	0.05590 0.88740 0.38250 0.30100
H 	H 	0.05700 0.85400 0.36930 0.31900
C 	C 	0.81460 0.63360 0.03814 0.37400
C 	C 	0.84460 0.64170 0.05001 -0.11800
C 	C 	0.84216 0.65750 0.06899 0.04200
H 	H 	0.82110 0.66220 0.07470 0.03600
C 	C 	0.87060 0.66650 0.07961 -0.11000
H 	H 	0.86890 0.67730 0.09260 0.06700
C 	C 	0.90141 0.65970 0.07126 0.05700
C 	C 	0.90386 0.64390 0.05228 -0.11100
H 	H 	0.92490 0.63930 0.04660 0.06800
C 	C 	0.87550 0.63490 0.04166 0.04200
H 	H 	0.87710 0.62410 0.02870 0.03600
C 	C 	0.93210 0.67200 0.08203 0.00100
C 	C 	0.93310 0.67370 0.10344 -0.05100
H 	H 	0.91470 0.66650 0.11130 0.04600
C 	C 	0.96100 0.68600 0.11328 -0.04300
H 	H 	0.96160 0.68720 0.12790 0.04300
C 	C 	0.98780 0.69660 0.10171 -0.00900
C 	C 	0.98680 0.69480 0.08029 -0.04300
H 	H 	0.00520 0.70200 0.07240 0.04300
C 	C 	0.95900 0.68250 0.07045 -0.05000
H 	H 	0.95830 0.68130 0.05580 0.04600
C 	C 	0.01692 0.71230 0.11242 0.07200
C 	C 	0.01225 0.73190 0.12981 -0.13400
H 	H 	0.99110 0.73320 0.13600 0.07500
C 	C 	0.03855 0.74950 0.13808 0.07300
C 	C 	0.06953 0.74750 0.12896 -0.13400
H 	H 	0.08750 0.75950 0.13460 0.07500
C 	C 	0.07421 0.72800 0.11158 0.07100
C 	C 	0.04791 0.71040 0.10330 -0.13400
H 	H 	0.05110 0.69710 0.09140 0.07400
C 	C 	0.03310 0.77110 0.15655 -0.00900
C 	C 	0.00390 0.78890 0.15856 -0.04100
H 	H 	0.98680 0.78630 0.14870 0.04300
C 	C 	0.99980 0.81040 0.17506 -0.05200
H 	H 	0.97990 0.82250 0.17640 0.04700
C 	C 	0.02480 0.81410 0.18954 0.00100
C 	C 	0.05390 0.79640 0.18753 -0.05100
H 	H 	0.07100 0.79890 0.19740 0.04600
C 	C 	0.05810 0.77480 0.17103 -0.04300
H 	H 	0.07800 0.76270 0.16970 0.04300
C 	C 	0.02100 0.83840 0.20711 0.06300
C 	C 	0.98980 0.84580 0.21476 -0.11900
H 	H 	0.97100 0.83450 0.20960 0.07000
C 	C 	0.98610 0.86970 0.22996 0.05400
H 	H 	0.96480 0.87470 0.23520 0.02900
C 	C 	0.01360 0.88620 0.23752 -0.13900
C 	C 	0.04480 0.87880 0.22988 0.05600
H 	H 	0.06360 0.89010 0.23500 0.03100
C 	C 	0.04850 0.85490 0.21467 -0.11900
H 	H 	0.06980 0.84990 0.20940 0.07000
C 	C 	0.00930 0.91350 0.25267 0.41100
C 	C 	0.10692 0.72780 0.10047 -0.00500
C 	C 	0.13590 0.72930 0.11188 -0.04800
H 	H 	0.13500 0.73150 0.12650 0.04400
C 	C 	0.16627 0.72770 0.10196 -0.04400
H 	H 	0.18610 0.72880 0.10980 0.04100
C 	C 	0.16763 0.72460 0.08061 -0.01100
C 	C 	0.13860 0.72310 0.06920 -0.04300
H 	H 	0.13960 0.72090 0.05460 0.04200
C 	C 	0.10828 0.72460 0.07912 -0.04900
H 	H 	0.08850 0.72360 0.07130 0.04400
C 	C 	0.20079 0.72250 0.06990 0.07800
C 	C 	0.22840 0.73720 0.07876 -0.14200
H 	H 	0.22680 0.74730 0.09200 0.07600
C 	C 	0.25840 0.73700 0.06832 0.08800
H 	H 	0.27720 0.74700 0.07440 0.02000
C 	C 	0.26070 0.72220 0.04902 -0.19100
C 	C 	0.23310 0.70760 0.04017 0.08600
H 	H 	0.23470 0.69750 0.02700 0.01700
C 	C 	0.20310 0.70780 0.05060 -0.14400
H 	H 	0.18430 0.69780 0.04450 0.07500
C 	C 	0.29230 0.72220 0.03760 0.52600
Co	Co	0.63862 0.25862 0.03306 1.17500
Co	Co	0.95916 0.03282 0.27840 1.17900
S 	S 	0.59044 0.29819 0.06121 0.47100
S 	S 	0.92536 0.06287 0.31743 0.44300
O 	O 	0.61780 0.27660 0.06077 -0.37200
O 	O 	0.57930 0.30780 0.08141 -0.28000
O 	O 	0.59104 0.25040 0.02284 -0.49800
O 	O 	0.63557 0.30717 0.02228 -0.48500
O 	O 	0.92610 0.06160 0.29506 -0.36000
O 	O 	0.90170 0.08470 0.32682 -0.25800
O 	O 	0.94900 0.99380 0.29869 -0.48100
O 	O 	0.64200 0.21270 0.04581 -0.42300
O 	O 	0.61830 0.18160 0.02170 -0.42000
O 	O 	0.92180 0.01840 0.25996 -0.43500
O 	O 	0.92870 0.96630 0.25807 -0.44100
O 	O 	0.73470 0.68550 0.04515 -0.50200
O 	O 	0.70720 0.70790 0.02154 -0.48700
C 	C 	0.56030 0.25990 0.03080 0.31900
C 	C 	0.55760 0.28080 0.04774 -0.27800
C 	C 	0.52670 0.28910 0.05542 0.22900
H 	H 	0.52490 0.30330 0.06700 -0.06200
C 	C 	0.49846 0.27640 0.04617 -0.38100
C 	C 	0.50120 0.25550 0.02925 0.21800
H 	H 	0.48190 0.24690 0.02290 -0.05100
C 	C 	0.53210 0.24730 0.02157 -0.25700
C 	C 	0.46490 0.28440 0.05458 0.75300
C 	C 	0.46600 0.30470 0.07412 -1.00600
H 	H 	0.44340 0.30900 0.07880 0.29200
H 	H 	0.47720 0.32560 0.07140 0.28900
H 	H 	0.47800 0.29250 0.08480 0.29800
C 	C 	0.44440 0.30270 0.03860 -1.02500
H 	H 	0.42260 0.30770 0.04430 0.31800
H 	H 	0.44190 0.28890 0.02630 0.32400
H 	H 	0.45550 0.32330 0.03480 0.31300
C 	C 	0.44610 0.25250 0.05960 -1.00200
H 	H 	0.42430 0.25810 0.06500 0.30500
H 	H 	0.45850 0.23980 0.06990 0.30900
H 	H 	0.44370 0.23940 0.04700 0.31500
C 	C 	0.62320 0.33660 0.03160 0.30300
C 	C 	0.60260 0.33473 0.04870 -0.25800
C 	C 	0.58620 0.36280 0.05559 0.19600
H 	H 	0.57210 0.36150 0.06730 -0.05000
C 	C 	0.59040 0.39260 0.04538 -0.33800
C 	C 	0.61100 0.39440 0.02827 0.19700
H 	H 	0.61390 0.41490 0.02130 -0.05100
C 	C 	0.62740 0.36640 0.02139 -0.27300
C 	C 	0.57040 0.42230 0.05131 0.63800
C 	C 	0.55030 0.41700 0.07071 -0.88500
H 	H 	0.53780 0.43710 0.07390 0.23900
H 	H 	0.56510 0.41190 0.08220 0.25700
H 	H 	0.53500 0.39860 0.06860 0.25400
C 	C 	0.54600 0.43110 0.03402 -0.83500
H 	H 	0.53310 0.45050 0.03810 0.22700
H 	H 	0.53110 0.41240 0.03160 0.24000
H 	H 	0.55820 0.43590 0.02130 0.24100
C 	C 	0.59230 0.45240 0.05420 -0.88700
H 	H 	0.57870 0.47140 0.05800 0.24600
H 	H 	0.60390 0.45710 0.04130 0.25800
H 	H 	0.60840 0.44800 0.06510 0.25300
C 	C 	0.93140 0.99440 0.31795 0.29300
C 	C 	0.91910 0.02320 0.32667 -0.25700
C 	C 	0.89950 0.02170 0.34423 0.20900
H 	H 	0.89110 0.04140 0.35020 -0.04900
C 	C 	0.89220 0.99130 0.35307 -0.36400
C 	C 	0.90440 0.96250 0.34435 0.20400
H 	H 	0.89940 0.94170 0.35040 -0.04300
C 	C 	0.92410 0.96400 0.32679 -0.24500
C 	C 	0.87230 0.99000 0.37277 0.73900
C 	C 	0.83920 0.00670 0.37030 -0.99400
H 	H 	0.82700 0.00540 0.38340 0.29000
H 	H 	0.82650 0.99560 0.35950 0.31000
H 	H 	0.84250 0.02990 0.36660 0.30500
C 	C 	0.89020 0.00810 0.39007 -0.95400
H 	H 	0.87690 0.00700 0.40270 0.26600
H 	H 	0.89350 0.03120 0.38620 0.28000
H 	H 	0.91160 0.99760 0.39250 0.27300
C 	C 	0.86620 0.95510 0.38000 -1.00800
H 	H 	0.85330 0.95540 0.39280 0.31300
H 	H 	0.88740 0.94410 0.38250 0.29900
H 	H 	0.85400 0.94300 0.36930 0.31700
C 	C 	0.63360 0.18540 0.03814 0.37400
C 	C 	0.64170 0.15540 0.05001 -0.11800
C 	C 	0.65750 0.15784 0.06899 0.04200
H 	H 	0.66220 0.17890 0.07470 0.03600
C 	C 	0.66650 0.12940 0.07961 -0.11000
H 	H 	0.67730 0.13110 0.09260 0.06700
C 	C 	0.65970 0.09859 0.07126 0.05700
C 	C 	0.64390 0.09614 0.05228 -0.11100
H 	H 	0.63930 0.07510 0.04660 0.06800
C 	C 	0.63490 0.12450 0.04166 0.04200
H 	H 	0.62410 0.12290 0.02870 0.03600
C 	C 	0.67200 0.06790 0.08203 0.00200
C 	C 	0.67370 0.06690 0.10344 -0.05100
H 	H 	0.66650 0.08530 0.11130 0.04600
C 	C 	0.68600 0.03900 0.11328 -0.04300
H 	H 	0.68720 0.03840 0.12790 0.04300
C 	C 	0.69660 0.01220 0.10171 -0.00900
C 	C 	0.69480 0.01320 0.08029 -0.04100
H 	H 	0.70200 0.99480 0.07240 0.04100
C 	C 	0.68250 0.04100 0.07045 -0.05200
H 	H 	0.68130 0.04170 0.05580 0.04600
C 	C 	0.71230 0.98308 0.11242 0.07200
C 	C 	0.73190 0.98775 0.12981 -0.13500
H 	H 	0.73320 0.00890 0.13600 0.07600
C 	C 	0.74950 0.96145 0.13808 0.07200
C 	C 	0.74750 0.93047 0.12896 -0.13400
H 	H 	0.75950 0.91250 0.13460 0.07500
C 	C 	0.72800 0.92579 0.11158 0.07100
C 	C 	0.71040 0.95209 0.10330 -0.13300
H 	H 	0.69710 0.94890 0.09140 0.07400
C 	C 	0.77110 0.96690 0.15655 -0.00700
C 	C 	0.78890 0.99610 0.15856 -0.04700
H 	H 	0.78630 0.01320 0.14870 0.04500
C 	C 	0.81040 0.00020 0.17506 -0.04600
H 	H 	0.82250 0.02010 0.17640 0.04500
C 	C 	0.81410 0.97520 0.18954 -0.00200
C 	C 	0.79640 0.94610 0.18753 -0.04800
H 	H 	0.79890 0.92900 0.19740 0.04500
C 	C 	0.77480 0.94190 0.17103 -0.04600
H 	H 	0.76270 0.92200 0.16970 0.04300
C 	C 	0.83840 0.97900 0.20711 0.06300
C 	C 	0.84580 0.01020 0.21476 -0.11900
H 	H 	0.83450 0.02900 0.20960 0.07000
C 	C 	0.86970 0.01390 0.22996 0.05500
H 	H 	0.87470 0.03520 0.23520 0.02800
C 	C 	0.88620 0.98640 0.23752 -0.14000
C 	C 	0.87880 0.95520 0.22988 0.05600
H 	H 	0.89010 0.93640 0.23500 0.03100
C 	C 	0.85490 0.95150 0.21467 -0.12000
H 	H 	0.84990 0.93020 0.20940 0.07100
C 	C 	0.91350 0.99070 0.25267 0.41000
C 	C 	0.72780 0.89308 0.10047 -0.00500
C 	C 	0.72930 0.86410 0.11188 -0.04800
H 	H 	0.73150 0.86500 0.12650 0.04400
C 	C 	0.72770 0.83373 0.10196 -0.04300
H 	H 	0.72880 0.81390 0.10980 0.04100
C 	C 	0.72460 0.83237 0.08061 -0.01100
C 	C 	0.72310 0.86140 0.06920 -0.04300
H 	H 	0.72090 0.86040 0.05460 0.04200
C 	C 	0.72460 0.89172 0.07912 -0.04900
H 	H 	0.72360 0.91150 0.07130 0.04400
C 	C 	0.72250 0.79921 0.06990 0.07800
C 	C 	0.73720 0.77160 0.07876 -0.14200
H 	H 	0.74730 0.77320 0.09200 0.07600
C 	C 	0.73700 0.74160 0.06832 0.08800
H 	H 	0.74700 0.72280 0.07440 0.02000
C 	C 	0.72220 0.73930 0.04902 -0.19100
C 	C 	0.70760 0.76690 0.04017 0.08600
H 	H 	0.69750 0.76530 0.02700 0.01700
C 	C 	0.70780 0.79690 0.05060 -0.14400
H 	H 	0.69780 0.81570 0.04450 0.07500
C 	C 	0.72220 0.70770 0.03760 0.52600
Co	Co	0.36138 0.74138 0.03306 1.17500
Co	Co	0.04084 0.96718 0.27840 1.17900
S 	S 	0.40956 0.70181 0.06121 0.47100
S 	S 	0.07464 0.93713 0.31743 0.44400
O 	O 	0.38220 0.72340 0.06077 -0.37200
O 	O 	0.42070 0.69220 0.08141 -0.28000
O 	O 	0.40896 0.74960 0.02284 -0.49800
O 	O 	0.36443 0.69283 0.02228 -0.48500
O 	O 	0.07390 0.93840 0.29506 -0.36100
O 	O 	0.09830 0.91530 0.32682 -0.25800
O 	O 	0.05100 0.00620 0.29869 -0.48000
O 	O 	0.35800 0.78730 0.04581 -0.42300
O 	O 	0.38170 0.81840 0.02170 -0.42000
O 	O 	0.07820 0.98160 0.25996 -0.43600
O 	O 	0.07130 0.03370 0.25807 -0.44100
O 	O 	0.26530 0.31450 0.04515 -0.50200
O 	O 	0.29280 0.29210 0.02154 -0.48700
C 	C 	0.43970 0.74010 0.03080 0.31900
C 	C 	0.44240 0.71920 0.04774 -0.27800
C 	C 	0.47330 0.71090 0.05542 0.22900
H 	H 	0.47510 0.69670 0.06700 -0.06200
C 	C 	0.50154 0.72360 0.04617 -0.38100
C 	C 	0.49880 0.74450 0.02925 0.21800
H 	H 	0.51810 0.75310 0.02290 -0.05100
C 	C 	0.46790 0.75270 0.02157 -0.25700
C 	C 	0.53510 0.71560 0.05458 0.75300
C 	C 	0.53400 0.69530 0.07412 -1.00600
H 	H 	0.55660 0.69100 0.07880 0.29200
H 	H 	0.52280 0.67440 0.07140 0.28900
H 	H 	0.52200 0.70750 0.08480 0.29800
C 	C 	0.55560 0.69730 0.03860 -1.02400
H 	H 	0.57740 0.69230 0.04430 0.31800
H 	H 	0.55810 0.71110 0.02630 0.32400
H 	H 	0.54450 0.67670 0.03480 0.31300
C 	C 	0.55390 0.74750 0.05960 -1.00200
H 	H 	0.57570 0.74190 0.06500 0.30500
H 	H 	0.54150 0.76020 0.06990 0.30900
H 	H 	0.55630 0.76060 0.04700 0.31500
C 	C 	0.37680 0.66340 0.03160 0.30300
C 	C 	0.39740 0.66527 0.04870 -0.25800
C 	C 	0.41380 0.63720 0.05559 0.19600
H 	H 	0.42790 0.63850 0.06730 -0.05000
C 	C 	0.40960 0.60740 0.04538 -0.33800
C 	C 	0.38900 0.60560 0.02827 0.19700
H 	H 	0.38610 0.58510 0.02130 -0.05100
C 	C 	0.37260 0.63360 0.02139 -0.27300
C 	C 	0.42960 0.57770 0.05131 0.63800
C 	C 	0.44970 0.58300 0.07071 -0.88500
H 	H 	0.46220 0.56290 0.07390 0.23900
H 	H 	0.43490 0.58810 0.08220 0.25700
H 	H 	0.46500 0.60140 0.06860 0.25400
C 	C 	0.45400 0.56890 0.03402 -0.83500
H 	H 	0.46690 0.54950 0.03810 0.22700
H 	H 	0.46890 0.58760 0.03160 0.24000
H 	H 	0.44180 0.56410 0.02130 0.24100
C 	C 	0.40770 0.54760 0.05420 -0.88600
H 	H 	0.42130 0.52860 0.05800 0.24600
H 	H 	0.39610 0.54290 0.04130 0.25800
H 	H 	0.39160 0.55200 0.06510 0.25300
C 	C 	0.06860 0.00560 0.31795 0.29400
C 	C 	0.08090 0.97680 0.32667 -0.25900
C 	C 	0.10050 0.97830 0.34423 0.21000
H 	H 	0.10890 0.95860 0.35020 -0.05000
C 	C 	0.10780 0.00870 0.35307 -0.36600
C 	C 	0.09560 0.03750 0.34435 0.20600
H 	H 	0.10060 0.05830 0.35040 -0.04300
C 	C 	0.07590 0.03600 0.32679 -0.24600
C 	C 	0.12770 0.01000 0.37277 0.74700
C 	C 	0.16080 0.99330 0.37030 -1.00500
H 	H 	0.17300 0.99460 0.38340 0.29200
H 	H 	0.17350 0.00440 0.35950 0.31300
H 	H 	0.15750 0.97010 0.36660 0.30800
C 	C 	0.10980 0.99190 0.39007 -0.96400
H 	H 	0.12310 0.99300 0.40270 0.26800
H 	H 	0.10650 0.96880 0.38620 0.28200
H 	H 	0.08840 0.00240 0.39250 0.27700
C 	C 	0.13380 0.04490 0.38000 -1.01500
H 	H 	0.14670 0.04460 0.39280 0.31600
H 	H 	0.11260 0.05590 0.38250 0.30100
H 	H 	0.14600 0.05700 0.36930 0.31900
C 	C 	0.36640 0.81460 0.03814 0.37400
C 	C 	0.35830 0.84460 0.05001 -0.11800
C 	C 	0.34250 0.84216 0.06899 0.04200
H 	H 	0.33780 0.82110 0.07470 0.03600
C 	C 	0.33350 0.87060 0.07961 -0.11000
H 	H 	0.32270 0.86890 0.09260 0.06700
C 	C 	0.34030 0.90141 0.07126 0.05700
C 	C 	0.35610 0.90386 0.05228 -0.11100
H 	H 	0.36070 0.92490 0.04660 0.06800
C 	C 	0.36510 0.87550 0.04166 0.04200
H 	H 	0.37590 0.87710 0.02870 0.03600
C 	C 	0.32800 0.93210 0.08203 0.00100
C 	C 	0.32630 0.93310 0.10344 -0.05100
H 	H 	0.33350 0.91470 0.11130 0.04600
C 	C 	0.31400 0.96100 0.11328 -0.04300
H 	H 	0.31280 0.96160 0.12790 0.04300
C 	C 	0.30340 0.98780 0.10171 -0.00900
C 	C 	0.30520 0.98680 0.08029 -0.04300
H 	H 	0.29800 0.00520 0.07240 0.04300
C 	C 	0.31750 0.95900 0.07045 -0.05000
H 	H 	0.31870 0.95830 0.05580 0.04600
C 	C 	0.28770 0.01692 0.11242 0.07200
C 	C 	0.26810 0.01225 0.12981 -0.13400
H 	H 	0.26680 0.99110 0.13600 0.07500
C 	C 	0.25050 0.03855 0.13808 0.07300
C 	C 	0.25250 0.06953 0.12896 -0.13400
H 	H 	0.24050 0.08750 0.13460 0.07500
C 	C 	0.27200 0.07421 0.11158 0.07100
C 	C 	0.28960 0.04791 0.10330 -0.13400
H 	H 	0.30290 0.05110 0.09140 0.07400
C 	C 	0.22890 0.03310 0.15655 -0.00900
C 	C 	0.21110 0.00390 0.15856 -0.04100
H 	H 	0.21370 0.98680 0.14870 0.04300
C 	C 	0.18960 0.99980 0.17506 -0.05200
H 	H 	0.17750 0.97990 0.17640 0.04700
C 	C 	0.18590 0.02480 0.18954 0.00100
C 	C 	0.20360 0.05390 0.18753 -0.05100
H 	H 	0.20110 0.07100 0.19740 0.04600
C 	C 	0.22520 0.05810 0.17103 -0.04300
H 	H 	0.23730 0.07800 0.16970 0.04300
C 	C 	0.16160 0.02100 0.20711 0.06300
C 	C 	0.15420 0.98980 0.21476 -0.11900
H 	H 	0.16550 0.97100 0.20960 0.07000
C 	C 	0.13030 0.98610 0.22996 0.05400
H 	H 	0.12530 0.96480 0.23520 0.02900
C 	C 	0.11380 0.01360 0.23752 -0.13900
C 	C 	0.12120 0.04480 0.22988 0.05600
H 	H 	0.10990 0.06360 0.23500 0.03100
C 	C 	0.14510 0.04850 0.21467 -0.11900
H 	H 	0.15010 0.06980 0.20940 0.07000
C 	C 	0.08650 0.00930 0.25267 0.41100
C 	C 	0.27220 0.10692 0.10047 -0.00500
C 	C 	0.27070 0.13590 0.11188 -0.04800
H 	H 	0.26850 0.13500 0.12650 0.04400
C 	C 	0.27230 0.16627 0.10196 -0.04300
H 	H 	0.27120 0.18610 0.10980 0.04100
C 	C 	0.27540 0.16763 0.08061 -0.01100
C 	C 	0.27690 0.13860 0.06920 -0.04300
H 	H 	0.27910 0.13960 0.05460 0.04200
C 	C 	0.27540 0.10828 0.07912 -0.04900
H 	H 	0.27640 0.08850 0.07130 0.04400
C 	C 	0.27750 0.20079 0.06990 0.07800
C 	C 	0.26280 0.22840 0.07876 -0.14200
H 	H 	0.25270 0.22680 0.09200 0.07600
C 	C 	0.26300 0.25840 0.06832 0.08800
H 	H 	0.25300 0.27720 0.07440 0.02000
C 	C 	0.27780 0.26070 0.04902 -0.19100
C 	C 	0.29240 0.23310 0.04017 0.08600
H 	H 	0.30250 0.23470 0.02700 0.01700
C 	C 	0.29220 0.20310 0.05060 -0.14400
H 	H 	0.30220 0.18430 0.04450 0.07500
C 	C 	0.27780 0.29230 0.03760 0.52600
Co	Co	0.78223 0.60630 -0.00000 1.16800
Co	Co	0.70087 0.67090 -0.00000 1.18300
S 	S 	0.77818 0.53030 -0.00000 0.40200
S 	S 	0.62620 0.65103 -0.00000 0.48700
O 	O 	0.80140 0.55870 -0.00000 -0.34400
O 	O 	0.79580 0.49770 -0.00000 -0.23500
O 	O 	0.64900 0.67790 -0.00000 -0.38500
O 	O 	0.59200 0.65860 -0.00000 -0.30800
O 	O 	0.74780 0.64960 -0.00000 -0.82500
H 	H 	0.75950 0.66680 -0.00000 0.23000
Co	Co	0.21777 0.39370 -0.00000 1.16800
Co	Co	0.29913 0.32910 -0.00000 1.18300
S 	S 	0.22182 0.46970 -0.00000 0.40200
S 	S 	0.37380 0.34897 -0.00000 0.48700
O 	O 	0.19860 0.44130 -0.00000 -0.34400
O 	O 	0.20420 0.50230 -0.00000 -0.23500
O 	O 	0.35100 0.32210 -0.00000 -0.38500
O 	O 	0.40800 0.34140 -0.00000 -0.30800
O 	O 	0.25220 0.35040 -0.00000 -0.82500
H 	H 	0.24050 0.33320 -0.00000 0.23000
Co	Co	0.39370 0.78223 -0.00000 1.16800
Co	Co	0.32910 0.70087 -0.00000 1.18300
S 	S 	0.46970 0.77818 -0.00000 0.40200
S 	S 	0.34897 0.62620 -0.00000 0.48700
O 	O 	0.44130 0.80140 -0.00000 -0.34400
O 	O 	0.50230 0.79580 -0.00000 -0.23500
O 	O 	0.32210 0.64900 -0.00000 -0.38500
O 	O 	0.34140 0.59200 -0.00000 -0.30800
O 	O 	0.35040 0.74780 -0.00000 -0.82500
H 	H 	0.33320 0.75950 -0.00000 0.23000
Co	Co	0.60630 0.21777 -0.00000 1.16800
Co	Co	0.67090 0.29913 -0.00000 1.18300
S 	S 	0.53030 0.22182 -0.00000 0.40200
S 	S 	0.65103 0.37380 -0.00000 0.48700
O 	O 	0.55870 0.19860 -0.00000 -0.34400
O 	O 	0.49770 0.20420 -0.00000 -0.23500
O 	O 	0.67790 0.35100 -0.00000 -0.38500
O 	O 	0.65860 0.40800 -0.00000 -0.30800
O 	O 	0.64960 0.25220 -0.00000 -0.82500
H 	H 	0.66680 0.24050 -0.00000 0.23000
O 	O 	0.00000 0.00000 0.72910 -0.82500
H 	H 	0.00000 0.00000 0.74210 0.23000
O 	O 	0.00000 0.00000 0.27090 -0.82500
H 	H 	0.00000 0.00000 0.25790 0.23000
