data_crystal

_cell_length_a 22.77000
_cell_length_b 22.77000
_cell_length_c 27.58200
_cell_angle_alpha 90.00000
_cell_angle_beta  90.00000
_cell_angle_gamma 90.00000

_symmetry_space_group_name_	'P 1'
_symmetry_space_group_name_H-M	'P 1'

loop_
_symmetry_equiv_pos_as_xyz
  x,y,z

loop_
_atom_site_label
_atom_site_type_symbol
_atom_site_fract_x
_atom_site_fract_y
_atom_site_fract_z
_atom_site_charge
C 	C 	0.69520 0.13750 0.25050 0.07100
H 	H 	0.69290 0.17020 0.27050 -0.01000
C 	C 	0.64900 0.09800 0.25000 -0.11100
H 	H 	0.61590 0.10400 0.26910 0.07600
C 	C 	0.65350 0.04850 0.21980 0.01200
H 	H 	0.62360 0.02060 0.21860 0.03600
C 	C 	0.70530 0.04210 0.19080 -0.05500
C 	C 	0.74790 0.08400 0.19390 0.05100
H 	H 	0.78150 0.08020 0.17500 0.00700
C 	C 	0.71060 0.99180 0.15960 0.13200
C 	C 	0.69820 0.91300 0.12280 0.15200
C 	C 	0.67640 0.85810 0.10380 -0.08800
C 	C 	0.70730 0.82640 0.06960 0.06000
H 	H 	0.74350 0.84010 0.05880 -0.01600
C 	C 	0.63510 0.75510 0.06660 0.07500
H 	H 	0.62180 0.71940 0.05450 -0.02200
C 	C 	0.60110 0.78550 0.10040 -0.12700
H 	H 	0.56480 0.77130 0.11040 0.07500
C 	C 	0.62400 0.83880 0.11870 0.03100
H 	H 	0.60260 0.86040 0.14110 0.02500
N 	N 	0.74280 0.13010 0.22330 -0.21000
N 	N 	0.75360 0.98990 0.12900 -0.09800
N 	N 	0.74610 0.93670 0.10310 -0.18200
H 	H 	0.76750 0.92290 0.08010 0.12200
N 	N 	0.67410 0.94580 0.15730 -0.15300
N 	N 	0.68590 0.77630 0.05170 -0.21900
C 	C 	0.30480 0.86250 0.25050 0.07200
H 	H 	0.30710 0.82980 0.27050 -0.01200
C 	C 	0.35100 0.90200 0.25000 -0.11600
H 	H 	0.38410 0.89600 0.26910 0.07600
C 	C 	0.34650 0.95150 0.21980 0.01600
H 	H 	0.37640 0.97940 0.21860 0.03000
C 	C 	0.29470 0.95790 0.19080 -0.06700
C 	C 	0.25210 0.91600 0.19390 0.05500
H 	H 	0.21850 0.91980 0.17500 0.00300
C 	C 	0.28940 0.00820 0.15960 0.14100
C 	C 	0.30180 0.08700 0.12280 0.15100
C 	C 	0.32360 0.14190 0.10380 -0.08700
C 	C 	0.29270 0.17360 0.06960 0.06000
H 	H 	0.25650 0.15990 0.05880 -0.01500
C 	C 	0.36490 0.24490 0.06660 0.07500
H 	H 	0.37820 0.28060 0.05450 -0.02200
C 	C 	0.39890 0.21450 0.10040 -0.12600
H 	H 	0.43520 0.22870 0.11040 0.07500
C 	C 	0.37600 0.16120 0.11870 0.03100
H 	H 	0.39740 0.13960 0.14110 0.02600
N 	N 	0.25720 0.86990 0.22330 -0.21100
N 	N 	0.24640 0.01010 0.12900 -0.09700
N 	N 	0.25390 0.06330 0.10310 -0.18200
H 	H 	0.23250 0.07710 0.08010 0.12400
N 	N 	0.32590 0.05420 0.15730 -0.15300
N 	N 	0.31410 0.22370 0.05170 -0.21900
C 	C 	0.13750 0.69520 0.74950 0.07000
H 	H 	0.17020 0.69290 0.72950 -0.01100
C 	C 	0.09800 0.64900 0.75000 -0.11200
H 	H 	0.10400 0.61590 0.73090 0.07500
C 	C 	0.04850 0.65350 0.78020 0.01100
H 	H 	0.02060 0.62360 0.78140 0.03500
C 	C 	0.04210 0.70530 0.80920 -0.05500
C 	C 	0.08400 0.74790 0.80610 0.05000
H 	H 	0.08020 0.78150 0.82500 0.00700
C 	C 	0.99180 0.71060 0.84040 0.13100
C 	C 	0.91300 0.69820 0.87720 0.15300
C 	C 	0.85810 0.67640 0.89620 -0.08600
C 	C 	0.82640 0.70730 0.93040 0.06200
H 	H 	0.84010 0.74350 0.94120 -0.01200
C 	C 	0.75510 0.63510 0.93340 0.07700
H 	H 	0.71940 0.62180 0.94550 -0.01700
C 	C 	0.78550 0.60110 0.89960 -0.12500
H 	H 	0.77130 0.56480 0.88960 0.07700
C 	C 	0.83880 0.62400 0.88130 0.03200
H 	H 	0.86040 0.60260 0.85890 0.02600
N 	N 	0.13010 0.74280 0.77670 -0.21000
N 	N 	0.98990 0.75360 0.87100 -0.09600
N 	N 	0.93670 0.74610 0.89690 -0.18200
H 	H 	0.92290 0.76750 0.91990 0.12600
N 	N 	0.94580 0.67410 0.84270 -0.15200
N 	N 	0.77630 0.68590 0.94830 -0.21400
C 	C 	0.86250 0.30480 0.74950 0.07200
H 	H 	0.82980 0.30710 0.72950 -0.01200
C 	C 	0.90200 0.35100 0.75000 -0.11600
H 	H 	0.89600 0.38410 0.73090 0.07600
C 	C 	0.95150 0.34650 0.78020 0.01600
H 	H 	0.97940 0.37640 0.78140 0.03100
C 	C 	0.95790 0.29470 0.80920 -0.06700
C 	C 	0.91600 0.25210 0.80610 0.05500
H 	H 	0.91980 0.21850 0.82500 0.00400
C 	C 	0.00820 0.28940 0.84040 0.14200
C 	C 	0.08700 0.30180 0.87720 0.15300
C 	C 	0.14190 0.32360 0.89620 -0.08600
C 	C 	0.17360 0.29270 0.93040 0.06200
H 	H 	0.15990 0.25650 0.94120 -0.01100
C 	C 	0.24490 0.36490 0.93340 0.07700
H 	H 	0.28060 0.37820 0.94550 -0.01700
C 	C 	0.21450 0.39890 0.89960 -0.12400
H 	H 	0.22870 0.43520 0.88960 0.07700
C 	C 	0.16120 0.37600 0.88130 0.03200
H 	H 	0.13960 0.39740 0.85890 0.02700
N 	N 	0.86990 0.25720 0.77670 -0.21100
N 	N 	0.01010 0.24640 0.87100 -0.09500
N 	N 	0.06330 0.25390 0.89690 -0.18200
H 	H 	0.07710 0.23250 0.91990 0.12800
N 	N 	0.05420 0.32590 0.84270 -0.15300
N 	N 	0.22370 0.31410 0.94830 -0.21400
C 	C 	0.30480 0.86250 0.74950 0.07200
H 	H 	0.30710 0.82980 0.72950 -0.01200
C 	C 	0.35100 0.90200 0.75000 -0.11600
H 	H 	0.38410 0.89600 0.73090 0.07600
C 	C 	0.34650 0.95150 0.78020 0.01600
H 	H 	0.37640 0.97940 0.78140 0.03100
C 	C 	0.29470 0.95790 0.80920 -0.06700
C 	C 	0.25210 0.91600 0.80610 0.05500
H 	H 	0.21850 0.91980 0.82500 0.00400
C 	C 	0.28940 0.00820 0.84040 0.14200
C 	C 	0.30180 0.08700 0.87720 0.15300
C 	C 	0.32360 0.14190 0.89620 -0.08600
C 	C 	0.29270 0.17360 0.93040 0.06200
H 	H 	0.25650 0.15990 0.94120 -0.01100
C 	C 	0.36490 0.24490 0.93340 0.07700
H 	H 	0.37820 0.28060 0.94550 -0.01700
C 	C 	0.39890 0.21450 0.89960 -0.12400
H 	H 	0.43520 0.22870 0.88960 0.07700
C 	C 	0.37600 0.16120 0.88130 0.03200
H 	H 	0.39740 0.13960 0.85890 0.02700
N 	N 	0.25720 0.86990 0.77670 -0.21100
N 	N 	0.24640 0.01010 0.87100 -0.09500
N 	N 	0.25390 0.06330 0.89690 -0.18200
H 	H 	0.23250 0.07710 0.91990 0.12800
N 	N 	0.32590 0.05420 0.84270 -0.15300
N 	N 	0.31410 0.22370 0.94830 -0.21400
C 	C 	0.69520 0.13750 0.74950 0.07000
H 	H 	0.69290 0.17020 0.72950 -0.01100
C 	C 	0.64900 0.09800 0.75000 -0.11200
H 	H 	0.61590 0.10400 0.73090 0.07500
C 	C 	0.65350 0.04850 0.78020 0.01100
H 	H 	0.62360 0.02060 0.78140 0.03500
C 	C 	0.70530 0.04210 0.80920 -0.05500
C 	C 	0.74790 0.08400 0.80610 0.05000
H 	H 	0.78150 0.08020 0.82500 0.00700
C 	C 	0.71060 0.99180 0.84040 0.13100
C 	C 	0.69820 0.91300 0.87720 0.15300
C 	C 	0.67640 0.85810 0.89620 -0.08600
C 	C 	0.70730 0.82640 0.93040 0.06200
H 	H 	0.74350 0.84010 0.94120 -0.01200
C 	C 	0.63510 0.75510 0.93340 0.07700
H 	H 	0.62180 0.71940 0.94550 -0.01700
C 	C 	0.60110 0.78550 0.89960 -0.12500
H 	H 	0.56480 0.77130 0.88960 0.07700
C 	C 	0.62400 0.83880 0.88130 0.03200
H 	H 	0.60260 0.86040 0.85890 0.02600
N 	N 	0.74280 0.13010 0.77670 -0.21000
N 	N 	0.75360 0.98990 0.87100 -0.09600
N 	N 	0.74610 0.93670 0.89690 -0.18200
H 	H 	0.76750 0.92290 0.91990 0.12600
N 	N 	0.67410 0.94580 0.84270 -0.15200
N 	N 	0.68590 0.77630 0.94830 -0.21400
C 	C 	0.86250 0.30480 0.25050 0.07200
H 	H 	0.82980 0.30710 0.27050 -0.01200
C 	C 	0.90200 0.35100 0.25000 -0.11600
H 	H 	0.89600 0.38410 0.26910 0.07600
C 	C 	0.95150 0.34650 0.21980 0.01600
H 	H 	0.97940 0.37640 0.21860 0.03000
C 	C 	0.95790 0.29470 0.19080 -0.06700
C 	C 	0.91600 0.25210 0.19390 0.05500
H 	H 	0.91980 0.21850 0.17500 0.00300
C 	C 	0.00820 0.28940 0.15960 0.14100
C 	C 	0.08700 0.30180 0.12280 0.15100
C 	C 	0.14190 0.32360 0.10380 -0.08700
C 	C 	0.17360 0.29270 0.06960 0.06000
H 	H 	0.15990 0.25650 0.05880 -0.01500
C 	C 	0.24490 0.36490 0.06660 0.07500
H 	H 	0.28060 0.37820 0.05450 -0.02200
C 	C 	0.21450 0.39890 0.10040 -0.12600
H 	H 	0.22870 0.43520 0.11040 0.07500
C 	C 	0.16120 0.37600 0.11870 0.03100
H 	H 	0.13960 0.39740 0.14110 0.02600
N 	N 	0.86990 0.25720 0.22330 -0.21100
N 	N 	0.01010 0.24640 0.12900 -0.09700
N 	N 	0.06330 0.25390 0.10310 -0.18200
H 	H 	0.07710 0.23250 0.08010 0.12400
N 	N 	0.05420 0.32590 0.15730 -0.15300
N 	N 	0.22370 0.31410 0.05170 -0.21900
C 	C 	0.13750 0.69520 0.25050 0.07000
H 	H 	0.17020 0.69290 0.27050 -0.01100
C 	C 	0.09800 0.64900 0.25000 -0.11200
H 	H 	0.10400 0.61590 0.26910 0.07500
C 	C 	0.04850 0.65350 0.21980 0.01100
H 	H 	0.02060 0.62360 0.21860 0.03500
C 	C 	0.04210 0.70530 0.19080 -0.05600
C 	C 	0.08400 0.74790 0.19390 0.05000
H 	H 	0.08020 0.78150 0.17500 0.00600
C 	C 	0.99180 0.71060 0.15960 0.13100
C 	C 	0.91300 0.69820 0.12280 0.15100
C 	C 	0.85810 0.67640 0.10380 -0.08800
C 	C 	0.82640 0.70730 0.06960 0.06000
H 	H 	0.84010 0.74350 0.05880 -0.01600
C 	C 	0.75510 0.63510 0.06660 0.07500
H 	H 	0.71940 0.62180 0.05450 -0.02200
C 	C 	0.78550 0.60110 0.10040 -0.12700
H 	H 	0.77130 0.56480 0.11040 0.07500
C 	C 	0.83880 0.62400 0.11870 0.03100
H 	H 	0.86040 0.60260 0.14110 0.02500
N 	N 	0.13010 0.74280 0.22330 -0.21000
N 	N 	0.98990 0.75360 0.12900 -0.09800
N 	N 	0.93670 0.74610 0.10310 -0.18200
H 	H 	0.92290 0.76750 0.08010 0.12200
N 	N 	0.94580 0.67410 0.15730 -0.15300
N 	N 	0.77630 0.68590 0.05170 -0.21900
Pd	Pd	0.80742 0.19258 0.22407 0.74200
C 	C 	0.84270 0.15730 0.32280 0.05200
H 	H 	0.81490 0.18510 0.33210 -0.00400
C 	C 	0.87260 0.12740 0.35830 -0.09900
H 	H 	0.86540 0.13460 0.39090 0.05900
C 	C 	0.91390 0.08610 0.34420 0.00100
H 	H 	0.93470 0.06530 0.36760 0.03600
C 	C 	0.92420 0.07580 0.29710 -0.04400
C 	C 	0.89290 0.10710 0.26130 0.02900
H 	H 	0.90020 0.09980 0.22870 0.01400
C 	C 	0.96800 0.03200 0.28100 0.12100
C 	C 	0.72110 0.27890 0.18270 0.07000
H 	H 	0.71300 0.28700 0.21510 -0.00900
C 	C 	0.69250 0.30750 0.14980 -0.12400
H 	H 	0.66470 0.33530 0.15900 0.07500
C 	C 	0.70250 0.29750 0.10190 0.02200
H 	H 	0.68190 0.31810 0.07830 0.02900
C 	C 	0.74500 0.25500 0.08910 -0.05800
C 	C 	0.77560 0.22440 0.12570 0.04400
H 	H 	0.80360 0.19640 0.11760 0.00700
C 	C 	0.75750 0.24250 0.03930 0.13200
N 	N 	0.85180 0.14820 0.27420 -0.20800
N 	N 	0.97840 0.02160 0.23450 -0.09500
N 	N 	0.76380 0.23620 0.17240 -0.21100
N 	N 	0.79500 0.20500 0.02540 -0.10300
Pd	Pd	0.19258 0.80742 0.22407 0.74200
C 	C 	0.15730 0.84270 0.32280 0.05200
H 	H 	0.18510 0.81490 0.33210 -0.00400
C 	C 	0.12740 0.87260 0.35830 -0.09900
H 	H 	0.13460 0.86540 0.39090 0.05900
C 	C 	0.08610 0.91390 0.34420 0.00100
H 	H 	0.06530 0.93470 0.36760 0.03600
C 	C 	0.07580 0.92420 0.29710 -0.04400
C 	C 	0.10710 0.89290 0.26130 0.02900
H 	H 	0.09980 0.90020 0.22870 0.01400
C 	C 	0.03200 0.96800 0.28100 0.12100
C 	C 	0.27890 0.72110 0.18270 0.07000
H 	H 	0.28700 0.71300 0.21510 -0.00900
C 	C 	0.30750 0.69250 0.14980 -0.12400
H 	H 	0.33530 0.66470 0.15900 0.07500
C 	C 	0.29750 0.70250 0.10190 0.02200
H 	H 	0.31810 0.68190 0.07830 0.02900
C 	C 	0.25500 0.74500 0.08910 -0.05800
C 	C 	0.22440 0.77560 0.12570 0.04400
H 	H 	0.19640 0.80360 0.11760 0.00700
C 	C 	0.24250 0.75750 0.03930 0.13200
N 	N 	0.14820 0.85180 0.27420 -0.20800
N 	N 	0.02160 0.97840 0.23450 -0.09500
N 	N 	0.23620 0.76380 0.17240 -0.21100
N 	N 	0.20500 0.79500 0.02540 -0.10300
Pd	Pd	0.19258 0.80742 0.77593 0.74200
C 	C 	0.15730 0.84270 0.67720 0.05100
H 	H 	0.18510 0.81490 0.66790 -0.00400
C 	C 	0.12740 0.87260 0.64170 -0.09900
H 	H 	0.13460 0.86540 0.60910 0.05800
C 	C 	0.08610 0.91390 0.65580 0.00000
H 	H 	0.06530 0.93470 0.63240 0.03600
C 	C 	0.07580 0.92420 0.70290 -0.04300
C 	C 	0.10710 0.89290 0.73870 0.02800
H 	H 	0.09980 0.90020 0.77130 0.01500
C 	C 	0.03200 0.96800 0.71900 0.12100
C 	C 	0.27890 0.72110 0.81730 0.07200
H 	H 	0.28700 0.71300 0.78490 -0.00900
C 	C 	0.30750 0.69250 0.85020 -0.12400
H 	H 	0.33530 0.66470 0.84100 0.07700
C 	C 	0.29750 0.70250 0.89810 0.02400
H 	H 	0.31810 0.68190 0.92170 0.03300
C 	C 	0.25500 0.74500 0.91090 -0.05900
C 	C 	0.22440 0.77560 0.87430 0.04600
H 	H 	0.19640 0.80360 0.88240 0.00900
C 	C 	0.24250 0.75750 0.96070 0.14400
N 	N 	0.14820 0.85180 0.72580 -0.20800
N 	N 	0.02160 0.97840 0.76550 -0.09500
N 	N 	0.23620 0.76380 0.82760 -0.21100
N 	N 	0.20500 0.79500 0.97460 -0.09400
Pd	Pd	0.80742 0.19258 0.77593 0.74200
C 	C 	0.84270 0.15730 0.67720 0.05100
H 	H 	0.81490 0.18510 0.66790 -0.00400
C 	C 	0.87260 0.12740 0.64170 -0.09900
H 	H 	0.86540 0.13460 0.60910 0.05800
C 	C 	0.91390 0.08610 0.65580 0.00000
H 	H 	0.93470 0.06530 0.63240 0.03600
C 	C 	0.92420 0.07580 0.70290 -0.04300
C 	C 	0.89290 0.10710 0.73870 0.02800
H 	H 	0.90020 0.09980 0.77130 0.01500
C 	C 	0.96800 0.03200 0.71900 0.12100
C 	C 	0.72110 0.27890 0.81730 0.07200
H 	H 	0.71300 0.28700 0.78490 -0.00900
C 	C 	0.69250 0.30750 0.85020 -0.12400
H 	H 	0.66470 0.33530 0.84100 0.07700
C 	C 	0.70250 0.29750 0.89810 0.02400
H 	H 	0.68190 0.31810 0.92170 0.03300
C 	C 	0.74500 0.25500 0.91090 -0.05900
C 	C 	0.77560 0.22440 0.87430 0.04600
H 	H 	0.80360 0.19640 0.88240 0.00900
C 	C 	0.75750 0.24250 0.96070 0.14400
N 	N 	0.85180 0.14820 0.72580 -0.20800
N 	N 	0.97840 0.02160 0.76550 -0.09500
N 	N 	0.76380 0.23620 0.82760 -0.21100
N 	N 	0.79500 0.20500 0.97460 -0.09400
Pd	Pd	0.73176 0.73176 -0.00000 0.72900
Pd	Pd	0.26824 0.26824 -0.00000 0.72900
N 	N 	0.00000 0.00000 0.31120 -0.14000
N 	N 	-0.00000 0.00000 0.68880 -0.14000
N 	N 	0.73070 0.26930 -0.00000 -0.14700
N 	N 	0.26930 0.73070 -0.00000 -0.14700
C 	C 	0.36250 0.19520 0.75050 0.07100
H 	H 	0.32980 0.19290 0.77050 -0.01100
C 	C 	0.40200 0.14900 0.75000 -0.11400
H 	H 	0.39600 0.11590 0.76910 0.07600
C 	C 	0.45150 0.15350 0.71980 0.01400
H 	H 	0.47940 0.12360 0.71860 0.03300
C 	C 	0.45790 0.20530 0.69080 -0.06100
C 	C 	0.41600 0.24790 0.69390 0.05200
H 	H 	0.41980 0.28150 0.67500 0.00500
C 	C 	0.50820 0.21060 0.65960 0.13600
C 	C 	0.58700 0.19820 0.62280 0.15200
C 	C 	0.64190 0.17640 0.60380 -0.08700
C 	C 	0.67360 0.20730 0.56960 0.06100
H 	H 	0.65990 0.24350 0.55880 -0.01400
C 	C 	0.74490 0.13510 0.56660 0.07600
H 	H 	0.78060 0.12180 0.55450 -0.02000
C 	C 	0.71450 0.10110 0.60040 -0.12600
H 	H 	0.72870 0.06480 0.61040 0.07600
C 	C 	0.66120 0.12400 0.61870 0.03200
H 	H 	0.63960 0.10260 0.64110 0.02600
N 	N 	0.36990 0.24280 0.72330 -0.21100
N 	N 	0.51010 0.25360 0.62900 -0.09700
N 	N 	0.56330 0.24610 0.60310 -0.18200
H 	H 	0.57710 0.26750 0.58010 0.12500
N 	N 	0.55420 0.17410 0.65730 -0.15300
N 	N 	0.72370 0.18590 0.55170 -0.21800
C 	C 	0.63750 0.80480 0.75050 0.07100
H 	H 	0.67020 0.80710 0.77050 -0.01200
C 	C 	0.59800 0.85100 0.75000 -0.11400
H 	H 	0.60400 0.88410 0.76910 0.07500
C 	C 	0.54850 0.84650 0.71980 0.01300
H 	H 	0.52060 0.87640 0.71860 0.03200
C 	C 	0.54210 0.79470 0.69080 -0.06100
C 	C 	0.58400 0.75210 0.69390 0.05200
H 	H 	0.58020 0.71850 0.67500 0.00500
C 	C 	0.49180 0.78940 0.65960 0.13600
C 	C 	0.41300 0.80180 0.62280 0.15200
C 	C 	0.35810 0.82360 0.60380 -0.08700
C 	C 	0.32640 0.79270 0.56960 0.06100
H 	H 	0.34010 0.75650 0.55880 -0.01400
C 	C 	0.25510 0.86490 0.56660 0.07600
H 	H 	0.21940 0.87820 0.55450 -0.02000
C 	C 	0.28550 0.89890 0.60040 -0.12600
H 	H 	0.27130 0.93520 0.61040 0.07500
C 	C 	0.33880 0.87600 0.61870 0.03100
H 	H 	0.36040 0.89740 0.64110 0.02600
N 	N 	0.63010 0.75720 0.72330 -0.21100
N 	N 	0.48990 0.74640 0.62900 -0.09700
N 	N 	0.43670 0.75390 0.60310 -0.18200
H 	H 	0.42290 0.73250 0.58010 0.12500
N 	N 	0.44580 0.82590 0.65730 -0.15300
N 	N 	0.27630 0.81410 0.55170 -0.21800
C 	C 	0.80480 0.63750 0.24950 0.07100
H 	H 	0.80710 0.67020 0.22950 -0.01200
C 	C 	0.85100 0.59800 0.25000 -0.11400
H 	H 	0.88410 0.60400 0.23090 0.07500
C 	C 	0.84650 0.54850 0.28020 0.01300
H 	H 	0.87640 0.52060 0.28140 0.03200
C 	C 	0.79470 0.54210 0.30920 -0.06100
C 	C 	0.75210 0.58400 0.30610 0.05200
H 	H 	0.71850 0.58020 0.32500 0.00500
C 	C 	0.78940 0.49180 0.34040 0.13600
C 	C 	0.80180 0.41300 0.37720 0.15200
C 	C 	0.82360 0.35810 0.39620 -0.08700
C 	C 	0.79270 0.32640 0.43040 0.06100
H 	H 	0.75650 0.34010 0.44120 -0.01400
C 	C 	0.86490 0.25510 0.43340 0.07600
H 	H 	0.87820 0.21940 0.44550 -0.02000
C 	C 	0.89890 0.28550 0.39960 -0.12600
H 	H 	0.93520 0.27130 0.38960 0.07500
C 	C 	0.87600 0.33880 0.38130 0.03100
H 	H 	0.89740 0.36040 0.35890 0.02600
N 	N 	0.75720 0.63010 0.27670 -0.21100
N 	N 	0.74640 0.48990 0.37100 -0.09700
N 	N 	0.75390 0.43670 0.39690 -0.18200
H 	H 	0.73250 0.42290 0.41990 0.12500
N 	N 	0.82590 0.44580 0.34270 -0.15300
N 	N 	0.81410 0.27630 0.44830 -0.21800
C 	C 	0.19520 0.36250 0.24950 0.07100
H 	H 	0.19290 0.32980 0.22950 -0.01100
C 	C 	0.14900 0.40200 0.25000 -0.11400
H 	H 	0.11590 0.39600 0.23090 0.07600
C 	C 	0.15350 0.45150 0.28020 0.01300
H 	H 	0.12360 0.47940 0.28140 0.03300
C 	C 	0.20530 0.45790 0.30920 -0.06100
C 	C 	0.24790 0.41600 0.30610 0.05200
H 	H 	0.28150 0.41980 0.32500 0.00500
C 	C 	0.21060 0.50820 0.34040 0.13600
C 	C 	0.19820 0.58700 0.37720 0.15200
C 	C 	0.17640 0.64190 0.39620 -0.08700
C 	C 	0.20730 0.67360 0.43040 0.06100
H 	H 	0.24350 0.65990 0.44120 -0.01400
C 	C 	0.13510 0.74490 0.43340 0.07600
H 	H 	0.12180 0.78060 0.44550 -0.02000
C 	C 	0.10110 0.71450 0.39960 -0.12600
H 	H 	0.06480 0.72870 0.38960 0.07600
C 	C 	0.12400 0.66120 0.38130 0.03200
H 	H 	0.10260 0.63960 0.35890 0.02600
N 	N 	0.24280 0.36990 0.27670 -0.21100
N 	N 	0.25360 0.51010 0.37100 -0.09700
N 	N 	0.24610 0.56330 0.39690 -0.18200
H 	H 	0.26750 0.57710 0.41990 0.12500
N 	N 	0.17410 0.55420 0.34270 -0.15300
N 	N 	0.18590 0.72370 0.44830 -0.21800
C 	C 	0.63750 0.80480 0.24950 0.07100
H 	H 	0.67020 0.80710 0.22950 -0.01200
C 	C 	0.59800 0.85100 0.25000 -0.11400
H 	H 	0.60400 0.88410 0.23090 0.07500
C 	C 	0.54850 0.84650 0.28020 0.01300
H 	H 	0.52060 0.87640 0.28140 0.03200
C 	C 	0.54210 0.79470 0.30920 -0.06100
C 	C 	0.58400 0.75210 0.30610 0.05200
H 	H 	0.58020 0.71850 0.32500 0.00500
C 	C 	0.49180 0.78940 0.34040 0.13600
C 	C 	0.41300 0.80180 0.37720 0.15200
C 	C 	0.35810 0.82360 0.39620 -0.08700
C 	C 	0.32640 0.79270 0.43040 0.06100
H 	H 	0.34010 0.75650 0.44120 -0.01400
C 	C 	0.25510 0.86490 0.43340 0.07600
H 	H 	0.21940 0.87820 0.44550 -0.02000
C 	C 	0.28550 0.89890 0.39960 -0.12600
H 	H 	0.27130 0.93520 0.38960 0.07500
C 	C 	0.33880 0.87600 0.38130 0.03100
H 	H 	0.36040 0.89740 0.35890 0.02600
N 	N 	0.63010 0.75720 0.27670 -0.21100
N 	N 	0.48990 0.74640 0.37100 -0.09700
N 	N 	0.43670 0.75390 0.39690 -0.18200
H 	H 	0.42290 0.73250 0.41990 0.12500
N 	N 	0.44580 0.82590 0.34270 -0.15300
N 	N 	0.27630 0.81410 0.44830 -0.21800
C 	C 	0.36250 0.19520 0.24950 0.07100
H 	H 	0.32980 0.19290 0.22950 -0.01100
C 	C 	0.40200 0.14900 0.25000 -0.11400
H 	H 	0.39600 0.11590 0.23090 0.07600
C 	C 	0.45150 0.15350 0.28020 0.01300
H 	H 	0.47940 0.12360 0.28140 0.03300
C 	C 	0.45790 0.20530 0.30920 -0.06100
C 	C 	0.41600 0.24790 0.30610 0.05200
H 	H 	0.41980 0.28150 0.32500 0.00500
C 	C 	0.50820 0.21060 0.34040 0.13600
C 	C 	0.58700 0.19820 0.37720 0.15200
C 	C 	0.64190 0.17640 0.39620 -0.08700
C 	C 	0.67360 0.20730 0.43040 0.06100
H 	H 	0.65990 0.24350 0.44120 -0.01400
C 	C 	0.74490 0.13510 0.43340 0.07600
H 	H 	0.78060 0.12180 0.44550 -0.02000
C 	C 	0.71450 0.10110 0.39960 -0.12600
H 	H 	0.72870 0.06480 0.38960 0.07600
C 	C 	0.66120 0.12400 0.38130 0.03200
H 	H 	0.63960 0.10260 0.35890 0.02600
N 	N 	0.36990 0.24280 0.27670 -0.21100
N 	N 	0.51010 0.25360 0.37100 -0.09700
N 	N 	0.56330 0.24610 0.39690 -0.18200
H 	H 	0.57710 0.26750 0.41990 0.12500
N 	N 	0.55420 0.17410 0.34270 -0.15300
N 	N 	0.72370 0.18590 0.44830 -0.21800
C 	C 	0.19520 0.36250 0.75050 0.07100
H 	H 	0.19290 0.32980 0.77050 -0.01100
C 	C 	0.14900 0.40200 0.75000 -0.11400
H 	H 	0.11590 0.39600 0.76910 0.07600
C 	C 	0.15350 0.45150 0.71980 0.01400
H 	H 	0.12360 0.47940 0.71860 0.03300
C 	C 	0.20530 0.45790 0.69080 -0.06100
C 	C 	0.24790 0.41600 0.69390 0.05200
H 	H 	0.28150 0.41980 0.67500 0.00500
C 	C 	0.21060 0.50820 0.65960 0.13600
C 	C 	0.19820 0.58700 0.62280 0.15200
C 	C 	0.17640 0.64190 0.60380 -0.08700
C 	C 	0.20730 0.67360 0.56960 0.06100
H 	H 	0.24350 0.65990 0.55880 -0.01400
C 	C 	0.13510 0.74490 0.56660 0.07600
H 	H 	0.12180 0.78060 0.55450 -0.02000
C 	C 	0.10110 0.71450 0.60040 -0.12600
H 	H 	0.06480 0.72870 0.61040 0.07600
C 	C 	0.12400 0.66120 0.61870 0.03200
H 	H 	0.10260 0.63960 0.64110 0.02600
N 	N 	0.24280 0.36990 0.72330 -0.21100
N 	N 	0.25360 0.51010 0.62900 -0.09700
N 	N 	0.24610 0.56330 0.60310 -0.18200
H 	H 	0.26750 0.57710 0.58010 0.12500
N 	N 	0.17410 0.55420 0.65730 -0.15300
N 	N 	0.18590 0.72370 0.55170 -0.21800
C 	C 	0.80480 0.63750 0.75050 0.07100
H 	H 	0.80710 0.67020 0.77050 -0.01200
C 	C 	0.85100 0.59800 0.75000 -0.11400
H 	H 	0.88410 0.60400 0.76910 0.07500
C 	C 	0.84650 0.54850 0.71980 0.01300
H 	H 	0.87640 0.52060 0.71860 0.03200
C 	C 	0.79470 0.54210 0.69080 -0.06100
C 	C 	0.75210 0.58400 0.69390 0.05200
H 	H 	0.71850 0.58020 0.67500 0.00500
C 	C 	0.78940 0.49180 0.65960 0.13600
C 	C 	0.80180 0.41300 0.62280 0.15200
C 	C 	0.82360 0.35810 0.60380 -0.08700
C 	C 	0.79270 0.32640 0.56960 0.06100
H 	H 	0.75650 0.34010 0.55880 -0.01400
C 	C 	0.86490 0.25510 0.56660 0.07600
H 	H 	0.87820 0.21940 0.55450 -0.02000
C 	C 	0.89890 0.28550 0.60040 -0.12600
H 	H 	0.93520 0.27130 0.61040 0.07500
C 	C 	0.87600 0.33880 0.61870 0.03100
H 	H 	0.89740 0.36040 0.64110 0.02600
N 	N 	0.75720 0.63010 0.72330 -0.21100
N 	N 	0.74640 0.48990 0.62900 -0.09700
N 	N 	0.75390 0.43670 0.60310 -0.18200
H 	H 	0.73250 0.42290 0.58010 0.12500
N 	N 	0.82590 0.44580 0.65730 -0.15300
N 	N 	0.81410 0.27630 0.55170 -0.21800
Pd	Pd	0.30742 0.30742 0.72407 0.74200
C 	C 	0.34270 0.34270 0.82280 0.05200
H 	H 	0.31490 0.31490 0.83210 -0.00400
C 	C 	0.37260 0.37260 0.85830 -0.09900
H 	H 	0.36540 0.36540 0.89090 0.06000
C 	C 	0.41390 0.41390 0.84420 0.00200
H 	H 	0.43470 0.43470 0.86760 0.03700
C 	C 	0.42420 0.42420 0.79710 -0.04400
C 	C 	0.39290 0.39290 0.76130 0.02900
H 	H 	0.40020 0.40020 0.72870 0.01400
C 	C 	0.46800 0.46800 0.78100 0.12500
C 	C 	0.22110 0.22110 0.68270 0.07000
H 	H 	0.21300 0.21300 0.71510 -0.00800
C 	C 	0.19250 0.19250 0.64980 -0.12300
H 	H 	0.16470 0.16470 0.65900 0.07600
C 	C 	0.20250 0.20250 0.60190 0.02200
H 	H 	0.18190 0.18190 0.57830 0.03200
C 	C 	0.24500 0.24500 0.58910 -0.05700
C 	C 	0.27560 0.27560 0.62570 0.04400
H 	H 	0.30360 0.30360 0.61760 0.00800
C 	C 	0.25750 0.25750 0.53930 0.13400
N 	N 	0.35180 0.35180 0.77420 -0.20800
N 	N 	0.47840 0.47840 0.73450 -0.09500
N 	N 	0.26380 0.26380 0.67240 -0.21000
N 	N 	0.29500 0.29500 0.52540 -0.09800
Pd	Pd	0.69258 0.69258 0.72407 0.74200
C 	C 	0.65730 0.65730 0.82280 0.05200
H 	H 	0.68510 0.68510 0.83210 -0.00500
C 	C 	0.62740 0.62740 0.85830 -0.09900
H 	H 	0.63460 0.63460 0.89090 0.06000
C 	C 	0.58610 0.58610 0.84420 0.00200
H 	H 	0.56530 0.56530 0.86760 0.03700
C 	C 	0.57580 0.57580 0.79710 -0.04400
C 	C 	0.60710 0.60710 0.76130 0.02900
H 	H 	0.59980 0.59980 0.72870 0.01400
C 	C 	0.53200 0.53200 0.78100 0.12500
C 	C 	0.77890 0.77890 0.68270 0.07000
H 	H 	0.78700 0.78700 0.71510 -0.00900
C 	C 	0.80750 0.80750 0.64980 -0.12300
H 	H 	0.83530 0.83530 0.65900 0.07400
C 	C 	0.79750 0.79750 0.60190 0.02100
H 	H 	0.81810 0.81810 0.57830 0.03100
C 	C 	0.75500 0.75500 0.58910 -0.05700
C 	C 	0.72440 0.72440 0.62570 0.04400
H 	H 	0.69640 0.69640 0.61760 0.00800
C 	C 	0.74250 0.74250 0.53930 0.13300
N 	N 	0.64820 0.64820 0.77420 -0.20800
N 	N 	0.52160 0.52160 0.73450 -0.09500
N 	N 	0.73620 0.73620 0.67240 -0.21100
N 	N 	0.70500 0.70500 0.52540 -0.09800
Pd	Pd	0.69258 0.69258 0.27593 0.74200
C 	C 	0.65730 0.65730 0.17720 0.05200
H 	H 	0.68510 0.68510 0.16790 -0.00400
C 	C 	0.62740 0.62740 0.14170 -0.10000
H 	H 	0.63460 0.63460 0.10910 0.05800
C 	C 	0.58610 0.58610 0.15580 0.00100
H 	H 	0.56530 0.56530 0.13240 0.03500
C 	C 	0.57580 0.57580 0.20290 -0.04500
C 	C 	0.60710 0.60710 0.23870 0.02900
H 	H 	0.59980 0.59980 0.27130 0.01400
C 	C 	0.53200 0.53200 0.21900 0.12400
C 	C 	0.77890 0.77890 0.31730 0.07000
H 	H 	0.78700 0.78700 0.28490 -0.00900
C 	C 	0.80750 0.80750 0.35020 -0.12300
H 	H 	0.83530 0.83530 0.34100 0.07400
C 	C 	0.79750 0.79750 0.39810 0.02100
H 	H 	0.81810 0.81810 0.42170 0.03100
C 	C 	0.75500 0.75500 0.41090 -0.05700
C 	C 	0.72440 0.72440 0.37430 0.04400
H 	H 	0.69640 0.69640 0.38240 0.00800
C 	C 	0.74250 0.74250 0.46070 0.13300
N 	N 	0.64820 0.64820 0.22580 -0.20800
N 	N 	0.52160 0.52160 0.26550 -0.09500
N 	N 	0.73620 0.73620 0.32760 -0.21100
N 	N 	0.70500 0.70500 0.47460 -0.09800
Pd	Pd	0.30742 0.30742 0.27593 0.74200
C 	C 	0.34270 0.34270 0.17720 0.05200
H 	H 	0.31490 0.31490 0.16790 -0.00400
C 	C 	0.37260 0.37260 0.14170 -0.10000
H 	H 	0.36540 0.36540 0.10910 0.05800
C 	C 	0.41390 0.41390 0.15580 0.00100
H 	H 	0.43470 0.43470 0.13240 0.03500
C 	C 	0.42420 0.42420 0.20290 -0.04500
C 	C 	0.39290 0.39290 0.23870 0.02900
H 	H 	0.40020 0.40020 0.27130 0.01400
C 	C 	0.46800 0.46800 0.21900 0.12400
C 	C 	0.22110 0.22110 0.31730 0.07000
H 	H 	0.21300 0.21300 0.28490 -0.00800
C 	C 	0.19250 0.19250 0.35020 -0.12300
H 	H 	0.16470 0.16470 0.34100 0.07600
C 	C 	0.20250 0.20250 0.39810 0.02200
H 	H 	0.18190 0.18190 0.42170 0.03200
C 	C 	0.24500 0.24500 0.41090 -0.05700
C 	C 	0.27560 0.27560 0.37430 0.04400
H 	H 	0.30360 0.30360 0.38240 0.00800
C 	C 	0.25750 0.25750 0.46070 0.13400
N 	N 	0.35180 0.35180 0.22580 -0.20800
N 	N 	0.47840 0.47840 0.26550 -0.09500
N 	N 	0.26380 0.26380 0.32760 -0.21000
N 	N 	0.29500 0.29500 0.47460 -0.09800
Pd	Pd	0.76824 0.23176 0.50000 0.73600
Pd	Pd	0.23176 0.76824 0.50000 0.73600
N 	N 	0.50000 0.50000 0.81120 -0.14500
N 	N 	0.50000 0.50000 0.18880 -0.14600
N 	N 	0.23070 0.23070 0.50000 -0.13800
N 	N 	0.76930 0.76930 0.50000 -0.13900
