data_crystal

_cell_length_a 26.91490
_cell_length_b 31.08290
_cell_length_c 21.21740
_cell_angle_alpha 90.00000
_cell_angle_beta  96.49560
_cell_angle_gamma 90.00000

_symmetry_space_group_name_	'P 1'
_symmetry_space_group_name_H-M	'P 1'

loop_
_symmetry_equiv_pos_as_xyz
  x,y,z

loop_
_atom_site_label
_atom_site_type_symbol
_atom_site_fract_x
_atom_site_fract_y
_atom_site_fract_z
_atom_site_charge
Mn	Mn	0.51542 0.38906 0.94108 1.34300
As	As	0.45841 0.34430 0.04456 0.35100
As	As	0.45284 0.29364 0.57006 0.43500
As	As	0.40577 0.39032 0.66491 0.43500
As	As	0.25751 0.36217 0.67271 0.33800
As	As	0.30936 0.29213 0.88599 0.33300
C 	C 	0.39676 0.35820 0.07340 -0.06100
C 	C 	0.37940 0.33260 0.11990 -0.01600
H 	H 	0.39830 0.30870 0.13710 0.03000
C 	C 	0.33360 0.34270 0.14080 -0.05300
H 	H 	0.32100 0.32560 0.17260 0.05000
C 	C 	0.30620 0.37770 0.11550 -0.02300
H 	H 	0.27470 0.38400 0.12940 0.03800
C 	C 	0.32430 0.40350 0.06990 -0.04800
H 	H 	0.30580 0.42790 0.05370 0.05400
C 	C 	0.36980 0.39360 0.04820 -0.01200
H 	H 	0.38230 0.41080 0.01650 0.06100
C 	C 	0.43360 0.44360 0.88140 -0.03200
C 	C 	0.41290 0.39920 0.87110 0.35200
C 	C 	0.41000 0.48130 0.86030 -0.01600
H 	H 	0.37740 0.48070 0.83780 0.05500
C 	C 	0.43530 0.52020 0.87280 -0.02100
H 	H 	0.41960 0.54640 0.85880 0.04600
C 	C 	0.48350 0.52090 0.90580 -0.03900
H 	H 	0.50100 0.54720 0.91460 0.06600
C 	C 	0.50440 0.48190 0.92480 -0.00700
C 	C 	0.55700 0.47610 0.95840 0.28300
C 	C 	0.44067 0.24553 0.51500 -0.08200
C 	C 	0.43010 0.25129 0.44990 0.00200
H 	H 	0.43210 0.27900 0.43150 0.04500
C 	C 	0.41660 0.21560 0.41230 -0.05900
H 	H 	0.40920 0.21880 0.36770 0.05500
C 	C 	0.41380 0.17526 0.43960 -0.01400
H 	H 	0.40380 0.15120 0.41360 0.03400
C 	C 	0.42530 0.16970 0.50450 -0.06200
H 	H 	0.42430 0.14180 0.52270 0.04800
C 	C 	0.43850 0.20513 0.54280 -0.00700
H 	H 	0.44590 0.20180 0.58740 0.03000
C 	C 	0.39572 0.44970 0.68180 -0.06200
C 	C 	0.43810 0.47460 0.69850 -0.01400
H 	H 	0.47040 0.46190 0.70310 0.03900
C 	C 	0.43215 0.51851 0.70810 -0.04700
H 	H 	0.46060 0.53610 0.71950 0.04600
C 	C 	0.38480 0.53670 0.70120 -0.02000
H 	H 	0.38110 0.56660 0.70880 0.04100
C 	C 	0.34281 0.51174 0.68330 -0.04900
H 	H 	0.31060 0.52460 0.67750 0.04800
C 	C 	0.34811 0.46775 0.67400 -0.00500
H 	H 	0.31960 0.45030 0.66260 0.04700
C 	C 	0.31020 0.24070 0.52580 -0.01300
C 	C 	0.31700 0.27630 0.47990 0.28300
C 	C 	0.30020 0.19820 0.51190 -0.03400
H 	H 	0.29580 0.18870 0.46910 0.06600
C 	C 	0.29650 0.16950 0.56030 -0.01900
H 	H 	0.28960 0.14010 0.55100 0.04500
C 	C 	0.30290 0.18330 0.62270 -0.02800
H 	H 	0.30020 0.16380 0.65670 0.05400
C 	C 	0.31340 0.22690 0.63430 -0.01300
C 	C 	0.32150 0.24730 0.69970 0.33000
C 	C 	0.20910 0.33370 0.71630 -0.05500
C 	C 	0.18600 0.35660 0.76130 -0.01900
H 	H 	0.19300 0.38630 0.76840 0.03700
C 	C 	0.15250 0.33510 0.79560 -0.04400
H 	H 	0.13640 0.35020 0.82650 0.04500
C 	C 	0.14260 0.29180 0.78490 -0.02900
H 	H 	0.12020 0.27730 0.80910 0.03600
C 	C 	0.16500 0.26940 0.73900 -0.04200
H 	H 	0.15730 0.23990 0.73120 0.05000
C 	C 	0.19890 0.29030 0.70470 -0.02200
H 	H 	0.21500 0.27520 0.67380 0.06500
C 	C 	0.25340 0.30010 0.93090 -0.04700
C 	C 	0.24830 0.33910 0.96150 -0.01900
H 	H 	0.27280 0.36100 0.96070 0.04900
C 	C 	0.20640 0.34540 0.99330 -0.05100
H 	H 	0.20220 0.37190 0.01450 0.04400
C 	C 	0.17080 0.31330 0.99420 -0.02600
H 	H 	0.14270 0.31770 0.01680 0.02600
C 	C 	0.17570 0.27470 0.96250 -0.05500
H 	H 	0.15070 0.25320 0.96230 0.04800
C 	C 	0.21760 0.26780 0.93100 -0.02100
H 	H 	0.22170 0.24140 0.90970 0.03800
Mn	Mn	0.34016 0.31520 0.60473 1.34200
Mn	Mn	0.35350 0.33986 0.77462 1.35500
Mn	Mn	0.42725 0.29806 0.90736 1.32900
N 	N 	0.47984 0.44474 0.91430 -0.20500
N 	N 	0.31680 0.25410 0.58740 -0.20800
O 	O 	0.45503 0.30337 0.99395 -0.44700
O 	O 	0.48241 0.38936 0.01840 -0.40500
O 	O 	0.43999 0.36890 0.89538 -0.52000
O 	O 	0.37149 0.39556 0.83890 -0.38900
O 	O 	0.57003 0.43776 0.97100 -0.36100
O 	O 	0.58240 0.50913 0.97190 -0.22600
O 	O 	0.44855 0.33933 0.52839 -0.43100
O 	O 	0.50685 0.29047 0.61867 -0.47300
O 	O 	0.40786 0.29297 0.61935 -0.42400
O 	O 	0.46352 0.38453 0.64240 -0.44400
O 	O 	0.36071 0.37338 0.60802 -0.42400
O 	O 	0.40747 0.35877 0.72971 -0.47100
O 	O 	0.33241 0.31177 0.50300 -0.36200
O 	O 	0.30640 0.26680 0.42200 -0.22900
O 	O 	0.33349 0.28621 0.70084 -0.48100
O 	O 	0.31470 0.22377 0.74550 -0.26700
O 	O 	0.27214 0.33270 0.61090 -0.40700
O 	O 	0.30762 0.37611 0.72240 -0.41600
O 	O 	0.30095 0.32319 0.82150 -0.40700
O 	O 	0.36188 0.30442 0.93320 -0.43300
O 	O 	0.39830 0.29810 0.81959 -0.54700
Mn	Mn	0.48458 0.38906 0.55892 1.34200
As	As	0.54159 0.34430 0.45544 0.35000
As	As	0.54716 0.29364 0.92994 0.43400
As	As	0.59423 0.39032 0.83509 0.43400
As	As	0.74249 0.36217 0.82729 0.33700
As	As	0.69064 0.29213 0.61401 0.33200
C 	C 	0.60324 0.35820 0.42660 -0.06200
C 	C 	0.62060 0.33260 0.38010 -0.01700
H 	H 	0.60170 0.30870 0.36290 0.02900
C 	C 	0.66640 0.34270 0.35920 -0.05400
H 	H 	0.67900 0.32560 0.32740 0.04900
C 	C 	0.69380 0.37770 0.38450 -0.02400
H 	H 	0.72530 0.38400 0.37060 0.03700
C 	C 	0.67570 0.40350 0.43010 -0.04900
H 	H 	0.69420 0.42790 0.44630 0.05300
C 	C 	0.63020 0.39360 0.45180 -0.01300
H 	H 	0.61770 0.41080 0.48350 0.06000
C 	C 	0.56640 0.44360 0.61860 -0.03300
C 	C 	0.58710 0.39920 0.62890 0.35100
C 	C 	0.59000 0.48130 0.63970 -0.01700
H 	H 	0.62260 0.48070 0.66220 0.05600
C 	C 	0.56470 0.52020 0.62720 -0.02100
H 	H 	0.58040 0.54640 0.64120 0.04600
C 	C 	0.51650 0.52090 0.59420 -0.03900
H 	H 	0.49900 0.54720 0.58540 0.06700
C 	C 	0.49560 0.48190 0.57520 -0.00700
C 	C 	0.44300 0.47610 0.54160 0.28300
C 	C 	0.55933 0.24553 0.98500 -0.08100
C 	C 	0.56990 0.25129 0.05010 0.00100
H 	H 	0.56790 0.27900 0.06850 0.04500
C 	C 	0.58340 0.21560 0.08770 -0.05800
H 	H 	0.59080 0.21880 0.13230 0.05500
C 	C 	0.58620 0.17526 0.06040 -0.01500
H 	H 	0.59620 0.15120 0.08640 0.03400
C 	C 	0.57470 0.16970 0.99550 -0.06200
H 	H 	0.57570 0.14180 0.97730 0.04800
C 	C 	0.56150 0.20513 0.95720 -0.00800
H 	H 	0.55410 0.20180 0.91260 0.03000
C 	C 	0.60428 0.44970 0.81820 -0.06200
C 	C 	0.56190 0.47460 0.80150 -0.01400
H 	H 	0.52960 0.46190 0.79690 0.03900
C 	C 	0.56785 0.51851 0.79190 -0.04700
H 	H 	0.53940 0.53610 0.78050 0.04600
C 	C 	0.61520 0.53670 0.79880 -0.02000
H 	H 	0.61890 0.56660 0.79120 0.04100
C 	C 	0.65719 0.51174 0.81670 -0.04900
H 	H 	0.68940 0.52460 0.82250 0.04900
C 	C 	0.65189 0.46775 0.82600 -0.00500
H 	H 	0.68040 0.45030 0.83740 0.04700
C 	C 	0.68980 0.24070 0.97420 -0.01300
C 	C 	0.68300 0.27630 0.02010 0.28200
C 	C 	0.69980 0.19820 0.98810 -0.03400
H 	H 	0.70420 0.18870 0.03090 0.06500
C 	C 	0.70350 0.16950 0.93970 -0.01900
H 	H 	0.71040 0.14010 0.94900 0.04500
C 	C 	0.69710 0.18330 0.87730 -0.02800
H 	H 	0.69980 0.16380 0.84330 0.05400
C 	C 	0.68660 0.22690 0.86570 -0.01300
C 	C 	0.67850 0.24730 0.80030 0.33000
C 	C 	0.79090 0.33370 0.78370 -0.05500
C 	C 	0.81400 0.35660 0.73870 -0.01800
H 	H 	0.80700 0.38630 0.73160 0.03800
C 	C 	0.84750 0.33510 0.70440 -0.04400
H 	H 	0.86360 0.35020 0.67350 0.04600
C 	C 	0.85740 0.29180 0.71510 -0.02900
H 	H 	0.87980 0.27730 0.69090 0.03800
C 	C 	0.83500 0.26940 0.76100 -0.04200
H 	H 	0.84270 0.23990 0.76880 0.05100
C 	C 	0.80110 0.29030 0.79530 -0.02200
H 	H 	0.78500 0.27520 0.82620 0.06500
C 	C 	0.74660 0.30010 0.56910 -0.04700
C 	C 	0.75170 0.33910 0.53850 -0.01900
H 	H 	0.72720 0.36100 0.53930 0.04900
C 	C 	0.79360 0.34540 0.50670 -0.05000
H 	H 	0.79780 0.37190 0.48550 0.04500
C 	C 	0.82920 0.31330 0.50580 -0.02600
H 	H 	0.85730 0.31770 0.48320 0.02800
C 	C 	0.82430 0.27470 0.53750 -0.05500
H 	H 	0.84930 0.25320 0.53770 0.04900
C 	C 	0.78240 0.26780 0.56900 -0.02100
H 	H 	0.77830 0.24140 0.59030 0.03800
Mn	Mn	0.65984 0.31520 0.89527 1.34200
Mn	Mn	0.64650 0.33986 0.72538 1.35500
Mn	Mn	0.57275 0.29806 0.59264 1.32900
N 	N 	0.52016 0.44474 0.58570 -0.20500
N 	N 	0.68320 0.25410 0.91260 -0.20800
O 	O 	0.54497 0.30337 0.50605 -0.44700
O 	O 	0.51759 0.38936 0.48160 -0.40500
O 	O 	0.56001 0.36890 0.60462 -0.52000
O 	O 	0.62851 0.39556 0.66110 -0.38900
O 	O 	0.42997 0.43776 0.52900 -0.36100
O 	O 	0.41760 0.50913 0.52810 -0.22600
O 	O 	0.55145 0.33933 0.97161 -0.43100
O 	O 	0.49315 0.29047 0.88133 -0.47300
O 	O 	0.59214 0.29297 0.88065 -0.42400
O 	O 	0.53648 0.38453 0.85760 -0.44400
O 	O 	0.63929 0.37338 0.89198 -0.42400
O 	O 	0.59253 0.35877 0.77029 -0.47100
O 	O 	0.66759 0.31177 0.99700 -0.36100
O 	O 	0.69360 0.26680 0.07800 -0.22900
O 	O 	0.66651 0.28621 0.79916 -0.48100
O 	O 	0.68530 0.22377 0.75450 -0.26700
O 	O 	0.72786 0.33270 0.88910 -0.40700
O 	O 	0.69238 0.37611 0.77760 -0.41600
O 	O 	0.69905 0.32319 0.67850 -0.40700
O 	O 	0.63812 0.30442 0.56680 -0.43200
O 	O 	0.60170 0.29810 0.68041 -0.54700
K 	K 	0.50000 0.32176 0.75000 0.65700
Mn	Mn	0.01542 0.88906 0.94108 1.33900
As	As	0.95841 0.84430 0.04456 0.35200
As	As	0.95284 0.79364 0.57006 0.44000
As	As	0.90577 0.89032 0.66491 0.43400
As	As	0.75751 0.86217 0.67271 0.33700
As	As	0.80936 0.79213 0.88599 0.33200
C 	C 	0.89676 0.85820 0.07340 -0.06200
C 	C 	0.87940 0.83260 0.11990 -0.01700
H 	H 	0.89830 0.80870 0.13710 0.02900
C 	C 	0.83360 0.84270 0.14080 -0.05400
H 	H 	0.82100 0.82560 0.17260 0.04900
C 	C 	0.80620 0.87770 0.11550 -0.02400
H 	H 	0.77470 0.88400 0.12940 0.03700
C 	C 	0.82430 0.90350 0.06990 -0.04900
H 	H 	0.80580 0.92790 0.05370 0.05300
C 	C 	0.86980 0.89360 0.04820 -0.01300
H 	H 	0.88230 0.91080 0.01650 0.06000
C 	C 	0.93360 0.94360 0.88140 -0.03900
C 	C 	0.91290 0.89920 0.87110 0.35300
C 	C 	0.91000 0.98130 0.86030 -0.00200
H 	H 	0.87740 0.98070 0.83780 0.05100
C 	C 	0.93530 0.02020 0.87280 -0.04600
H 	H 	0.91960 0.04640 0.85880 0.05600
C 	C 	0.98350 0.02090 0.90580 0.00700
H 	H 	0.00100 0.04720 0.91460 0.04600
C 	C 	0.00440 0.98190 0.92480 -0.03800
C 	C 	0.05700 0.97610 0.95840 0.29200
C 	C 	0.94067 0.74553 0.51500 -0.08100
C 	C 	0.93010 0.75129 0.44990 0.00200
H 	H 	0.93210 0.77900 0.43150 0.04600
C 	C 	0.91660 0.71560 0.41230 -0.05800
H 	H 	0.90920 0.71880 0.36770 0.05600
C 	C 	0.91380 0.67526 0.43960 -0.01400
H 	H 	0.90380 0.65120 0.41360 0.03500
C 	C 	0.92530 0.66970 0.50450 -0.06100
H 	H 	0.92430 0.64180 0.52270 0.04900
C 	C 	0.93850 0.70513 0.54280 -0.00700
H 	H 	0.94590 0.70180 0.58740 0.03200
C 	C 	0.89572 0.94970 0.68180 -0.06200
C 	C 	0.93810 0.97460 0.69850 -0.01400
H 	H 	0.97040 0.96190 0.70310 0.04100
C 	C 	0.93215 0.01851 0.70810 -0.04600
H 	H 	0.96060 0.03610 0.71950 0.04800
C 	C 	0.88480 0.03670 0.70120 -0.02000
H 	H 	0.88110 0.06660 0.70880 0.04100
C 	C 	0.84281 0.01174 0.68330 -0.04800
H 	H 	0.81060 0.02460 0.67750 0.04800
C 	C 	0.84811 0.96775 0.67400 -0.00600
H 	H 	0.81960 0.95030 0.66260 0.04700
C 	C 	0.81020 0.74070 0.52580 -0.01300
C 	C 	0.81700 0.77630 0.47990 0.28300
C 	C 	0.80020 0.69820 0.51190 -0.03400
H 	H 	0.79580 0.68870 0.46910 0.06600
C 	C 	0.79650 0.66950 0.56030 -0.01900
H 	H 	0.78960 0.64010 0.55100 0.04500
C 	C 	0.80290 0.68330 0.62270 -0.02800
H 	H 	0.80020 0.66380 0.65670 0.05500
C 	C 	0.81340 0.72690 0.63430 -0.01300
C 	C 	0.82150 0.74730 0.69970 0.33000
C 	C 	0.70910 0.83370 0.71630 -0.05500
C 	C 	0.68600 0.85660 0.76130 -0.01900
H 	H 	0.69300 0.88630 0.76840 0.03800
C 	C 	0.65250 0.83510 0.79560 -0.04400
H 	H 	0.63640 0.85020 0.82650 0.04500
C 	C 	0.64260 0.79180 0.78490 -0.02900
H 	H 	0.62020 0.77730 0.80910 0.03700
C 	C 	0.66500 0.76940 0.73900 -0.04200
H 	H 	0.65730 0.73990 0.73120 0.05000
C 	C 	0.69890 0.79030 0.70470 -0.02200
H 	H 	0.71500 0.77520 0.67380 0.06500
C 	C 	0.75340 0.80010 0.93090 -0.04700
C 	C 	0.74830 0.83910 0.96150 -0.02000
H 	H 	0.77280 0.86100 0.96070 0.04900
C 	C 	0.70640 0.84540 0.99330 -0.05000
H 	H 	0.70220 0.87190 0.01450 0.04400
C 	C 	0.67080 0.81330 0.99420 -0.02600
H 	H 	0.64270 0.81770 0.01680 0.02700
C 	C 	0.67570 0.77470 0.96250 -0.05500
H 	H 	0.65070 0.75320 0.96230 0.04900
C 	C 	0.71760 0.76780 0.93100 -0.02100
H 	H 	0.72170 0.74140 0.90970 0.03800
Mn	Mn	0.84016 0.81520 0.60473 1.34200
Mn	Mn	0.85350 0.83986 0.77462 1.35500
Mn	Mn	0.92725 0.79806 0.90736 1.33000
N 	N 	0.97984 0.94474 0.91430 -0.19400
N 	N 	0.81680 0.75410 0.58740 -0.20800
O 	O 	0.95503 0.80337 0.99395 -0.44400
O 	O 	0.98241 0.88936 0.01840 -0.40200
O 	O 	0.93999 0.86890 0.89538 -0.51900
O 	O 	0.87149 0.89556 0.83890 -0.39000
O 	O 	0.07003 0.93776 0.97100 -0.36500
O 	O 	0.08240 0.00913 0.97190 -0.22900
O 	O 	0.94855 0.83933 0.52839 -0.43000
O 	O 	0.00685 0.79047 0.61867 -0.48000
O 	O 	0.90786 0.79297 0.61935 -0.42400
O 	O 	0.96352 0.88453 0.64240 -0.44100
O 	O 	0.86071 0.87338 0.60802 -0.42400
O 	O 	0.90747 0.85877 0.72971 -0.47000
O 	O 	0.83241 0.81177 0.50300 -0.36200
O 	O 	0.80640 0.76680 0.42200 -0.22900
O 	O 	0.83349 0.78621 0.70084 -0.48000
O 	O 	0.81470 0.72377 0.74550 -0.26600
O 	O 	0.77214 0.83270 0.61090 -0.40700
O 	O 	0.80762 0.87611 0.72240 -0.41600
O 	O 	0.80095 0.82319 0.82150 -0.40700
O 	O 	0.86188 0.80442 0.93320 -0.43200
O 	O 	0.89830 0.79810 0.81959 -0.54600
Mn	Mn	0.98458 0.88906 0.55892 1.34500
As	As	0.04159 0.84430 0.45544 0.34800
As	As	0.04716 0.79364 0.92994 0.42800
As	As	0.09423 0.89032 0.83509 0.43400
As	As	0.24249 0.86217 0.82729 0.33700
As	As	0.19064 0.79213 0.61401 0.33200
C 	C 	0.10324 0.85820 0.42660 -0.06200
C 	C 	0.12060 0.83260 0.38010 -0.01700
H 	H 	0.10170 0.80870 0.36290 0.02800
C 	C 	0.16640 0.84270 0.35920 -0.05400
H 	H 	0.17900 0.82560 0.32740 0.04900
C 	C 	0.19380 0.87770 0.38450 -0.02400
H 	H 	0.22530 0.88400 0.37060 0.03700
C 	C 	0.17570 0.90350 0.43010 -0.04900
H 	H 	0.19420 0.92790 0.44630 0.05300
C 	C 	0.13020 0.89360 0.45180 -0.01300
H 	H 	0.11770 0.91080 0.48350 0.06000
C 	C 	0.06640 0.94360 0.61860 -0.02700
C 	C 	0.08710 0.89920 0.62890 0.34800
C 	C 	0.09000 0.98130 0.63970 -0.03200
H 	H 	0.12260 0.98070 0.66220 0.06000
C 	C 	0.06470 0.02020 0.62720 0.00200
H 	H 	0.08040 0.04640 0.64120 0.03700
C 	C 	0.01650 0.02090 0.59420 -0.08400
H 	H 	0.99900 0.04720 0.58540 0.08700
C 	C 	0.99560 0.98190 0.57520 0.02300
C 	C 	0.94300 0.97610 0.54160 0.27500
C 	C 	0.05933 0.74553 0.98500 -0.08500
C 	C 	0.06990 0.75129 0.05010 0.00300
H 	H 	0.06790 0.77900 0.06850 0.04300
C 	C 	0.08340 0.71560 0.08770 -0.06100
H 	H 	0.09080 0.71880 0.13230 0.05500
C 	C 	0.08620 0.67526 0.06040 -0.01200
H 	H 	0.09620 0.65120 0.08640 0.03200
C 	C 	0.07470 0.66970 0.99550 -0.06600
H 	H 	0.07570 0.64180 0.97730 0.04800
C 	C 	0.06150 0.70513 0.95720 -0.00600
H 	H 	0.05410 0.70180 0.91260 0.02800
C 	C 	0.10428 0.94970 0.81820 -0.06300
C 	C 	0.06190 0.97460 0.80150 -0.01500
H 	H 	0.02960 0.96190 0.79690 0.03600
C 	C 	0.06785 0.01851 0.79190 -0.04700
H 	H 	0.03940 0.03610 0.78050 0.04300
C 	C 	0.11520 0.03670 0.79880 -0.02000
H 	H 	0.11890 0.06660 0.79120 0.04100
C 	C 	0.15719 0.01174 0.81670 -0.04800
H 	H 	0.18940 0.02460 0.82250 0.04800
C 	C 	0.15189 0.96775 0.82600 -0.00500
H 	H 	0.18040 0.95030 0.83740 0.04700
C 	C 	0.18980 0.74070 0.97420 -0.01300
C 	C 	0.18300 0.77630 0.02010 0.28400
C 	C 	0.19980 0.69820 0.98810 -0.03500
H 	H 	0.20420 0.68870 0.03090 0.06600
C 	C 	0.20350 0.66950 0.93970 -0.01900
H 	H 	0.21040 0.64010 0.94900 0.04400
C 	C 	0.19710 0.68330 0.87730 -0.02800
H 	H 	0.19980 0.66380 0.84330 0.05400
C 	C 	0.18660 0.72690 0.86570 -0.01400
C 	C 	0.17850 0.74730 0.80030 0.33000
C 	C 	0.29090 0.83370 0.78370 -0.05500
C 	C 	0.31400 0.85660 0.73870 -0.01900
H 	H 	0.30700 0.88630 0.73160 0.03800
C 	C 	0.34750 0.83510 0.70440 -0.04400
H 	H 	0.36360 0.85020 0.67350 0.04500
C 	C 	0.35740 0.79180 0.71510 -0.02900
H 	H 	0.37980 0.77730 0.69090 0.03700
C 	C 	0.33500 0.76940 0.76100 -0.04200
H 	H 	0.34270 0.73990 0.76880 0.05000
C 	C 	0.30110 0.79030 0.79530 -0.02200
H 	H 	0.28500 0.77520 0.82620 0.06500
C 	C 	0.24660 0.80010 0.56910 -0.04700
C 	C 	0.25170 0.83910 0.53850 -0.01900
H 	H 	0.22720 0.86100 0.53930 0.04900
C 	C 	0.29360 0.84540 0.50670 -0.05000
H 	H 	0.29780 0.87190 0.48550 0.04500
C 	C 	0.32920 0.81330 0.50580 -0.02600
H 	H 	0.35730 0.81770 0.48320 0.02700
C 	C 	0.32430 0.77470 0.53750 -0.05500
H 	H 	0.34930 0.75320 0.53770 0.04900
C 	C 	0.28240 0.76780 0.56900 -0.02100
H 	H 	0.27830 0.74140 0.59030 0.03800
Mn	Mn	0.15984 0.81520 0.89527 1.34200
Mn	Mn	0.14650 0.83986 0.72538 1.35500
Mn	Mn	0.07275 0.79806 0.59264 1.32900
N 	N 	0.02016 0.94474 0.58570 -0.21600
N 	N 	0.18320 0.75410 0.91260 -0.20800
O 	O 	0.04497 0.80337 0.50605 -0.44900
O 	O 	0.01759 0.88936 0.48160 -0.40800
O 	O 	0.06001 0.86890 0.60462 -0.52100
O 	O 	0.12851 0.89556 0.66110 -0.38900
O 	O 	0.92997 0.93776 0.52900 -0.35800
O 	O 	0.91760 0.00913 0.52810 -0.22300
O 	O 	0.05145 0.83933 0.97161 -0.43300
O 	O 	0.99315 0.79047 0.88133 -0.46600
O 	O 	0.09214 0.79297 0.88065 -0.42400
O 	O 	0.03648 0.88453 0.85760 -0.44700
O 	O 	0.13929 0.87338 0.89198 -0.42400
O 	O 	0.09253 0.85877 0.77029 -0.47200
O 	O 	0.16759 0.81177 0.99700 -0.36200
O 	O 	0.19360 0.76680 0.07800 -0.22900
O 	O 	0.16651 0.78621 0.79916 -0.48100
O 	O 	0.18530 0.72377 0.75450 -0.26700
O 	O 	0.22786 0.83270 0.88910 -0.40700
O 	O 	0.19238 0.87611 0.77760 -0.41600
O 	O 	0.19905 0.82319 0.67850 -0.40700
O 	O 	0.13812 0.80442 0.56680 -0.43300
O 	O 	0.10170 0.79810 0.68041 -0.54800
K 	K 	0.00000 0.82176 0.75000 0.65500
Mn	Mn	0.48458 0.61094 0.05892 1.34200
As	As	0.54159 0.65570 0.95544 0.35000
As	As	0.54716 0.70636 0.42994 0.43400
As	As	0.59423 0.60968 0.33509 0.43400
As	As	0.74249 0.63783 0.32729 0.33700
As	As	0.69064 0.70787 0.11401 0.33200
C 	C 	0.60324 0.64180 0.92660 -0.06200
C 	C 	0.62060 0.66740 0.88010 -0.01700
H 	H 	0.60170 0.69130 0.86290 0.02900
C 	C 	0.66640 0.65730 0.85920 -0.05400
H 	H 	0.67900 0.67440 0.82740 0.04900
C 	C 	0.69380 0.62230 0.88450 -0.02400
H 	H 	0.72530 0.61600 0.87060 0.03700
C 	C 	0.67570 0.59650 0.93010 -0.04900
H 	H 	0.69420 0.57210 0.94630 0.05300
C 	C 	0.63020 0.60640 0.95180 -0.01300
H 	H 	0.61770 0.58920 0.98350 0.06000
C 	C 	0.56640 0.55640 0.11860 -0.03300
C 	C 	0.58710 0.60080 0.12890 0.35100
C 	C 	0.59000 0.51870 0.13970 -0.01700
H 	H 	0.62260 0.51930 0.16220 0.05600
C 	C 	0.56470 0.47980 0.12720 -0.02100
H 	H 	0.58040 0.45360 0.14120 0.04600
C 	C 	0.51650 0.47910 0.09420 -0.03900
H 	H 	0.49900 0.45280 0.08540 0.06600
C 	C 	0.49560 0.51810 0.07520 -0.00700
C 	C 	0.44300 0.52390 0.04160 0.28300
C 	C 	0.55933 0.75447 0.48500 -0.08200
C 	C 	0.56990 0.74871 0.55010 0.00200
H 	H 	0.56790 0.72100 0.56850 0.04500
C 	C 	0.58340 0.78440 0.58770 -0.05900
H 	H 	0.59080 0.78120 0.63230 0.05500
C 	C 	0.58620 0.82474 0.56040 -0.01400
H 	H 	0.59620 0.84880 0.58640 0.03400
C 	C 	0.57470 0.83030 0.49550 -0.06200
H 	H 	0.57570 0.85820 0.47730 0.04800
C 	C 	0.56150 0.79487 0.45720 -0.00700
H 	H 	0.55410 0.79820 0.41260 0.03000
C 	C 	0.60428 0.55030 0.31820 -0.06200
C 	C 	0.56190 0.52540 0.30150 -0.01400
H 	H 	0.52960 0.53810 0.29690 0.03900
C 	C 	0.56785 0.48149 0.29190 -0.04700
H 	H 	0.53940 0.46390 0.28050 0.04600
C 	C 	0.61520 0.46330 0.29880 -0.02000
H 	H 	0.61890 0.43340 0.29120 0.04100
C 	C 	0.65719 0.48826 0.31670 -0.04900
H 	H 	0.68940 0.47540 0.32250 0.04900
C 	C 	0.65189 0.53225 0.32600 -0.00500
H 	H 	0.68040 0.54970 0.33740 0.04700
C 	C 	0.68980 0.75930 0.47420 -0.01300
C 	C 	0.68300 0.72370 0.52010 0.28300
C 	C 	0.69980 0.80180 0.48810 -0.03400
H 	H 	0.70420 0.81130 0.53090 0.06600
C 	C 	0.70350 0.83050 0.43970 -0.01900
H 	H 	0.71040 0.85990 0.44900 0.04500
C 	C 	0.69710 0.81670 0.37730 -0.02800
H 	H 	0.69980 0.83620 0.34330 0.05400
C 	C 	0.68660 0.77310 0.36570 -0.01300
C 	C 	0.67850 0.75270 0.30030 0.33000
C 	C 	0.79090 0.66630 0.28370 -0.05500
C 	C 	0.81400 0.64340 0.23870 -0.01800
H 	H 	0.80700 0.61370 0.23160 0.03800
C 	C 	0.84750 0.66490 0.20440 -0.04400
H 	H 	0.86360 0.64980 0.17350 0.04600
C 	C 	0.85740 0.70820 0.21510 -0.02900
H 	H 	0.87980 0.72270 0.19090 0.03800
C 	C 	0.83500 0.73060 0.26100 -0.04200
H 	H 	0.84270 0.76010 0.26880 0.05100
C 	C 	0.80110 0.70970 0.29530 -0.02200
H 	H 	0.78500 0.72480 0.32620 0.06500
C 	C 	0.74660 0.69990 0.06910 -0.04700
C 	C 	0.75170 0.66090 0.03850 -0.01900
H 	H 	0.72720 0.63900 0.03930 0.04900
C 	C 	0.79360 0.65460 0.00670 -0.05100
H 	H 	0.79780 0.62810 0.98550 0.04500
C 	C 	0.82920 0.68670 0.00580 -0.02700
H 	H 	0.85730 0.68230 0.98320 0.02800
C 	C 	0.82430 0.72530 0.03750 -0.05400
H 	H 	0.84930 0.74680 0.03770 0.04900
C 	C 	0.78240 0.73220 0.06900 -0.02100
H 	H 	0.77830 0.75860 0.09030 0.03800
Mn	Mn	0.65984 0.68480 0.39527 1.34200
Mn	Mn	0.64650 0.66014 0.22538 1.35500
Mn	Mn	0.57275 0.70194 0.09264 1.32900
N 	N 	0.52016 0.55526 0.08570 -0.20500
N 	N 	0.68320 0.74590 0.41260 -0.20800
O 	O 	0.54497 0.69663 0.00605 -0.44700
O 	O 	0.51759 0.61064 0.98160 -0.40500
O 	O 	0.56001 0.63110 0.10462 -0.52000
O 	O 	0.62851 0.60444 0.16110 -0.38900
O 	O 	0.42997 0.56224 0.02900 -0.36100
O 	O 	0.41760 0.49087 0.02810 -0.22600
O 	O 	0.55145 0.66067 0.47161 -0.43100
O 	O 	0.49315 0.70953 0.38133 -0.47300
O 	O 	0.59214 0.70703 0.38065 -0.42400
O 	O 	0.53648 0.61547 0.35760 -0.44400
O 	O 	0.63929 0.62662 0.39198 -0.42400
O 	O 	0.59253 0.64123 0.27029 -0.47100
O 	O 	0.66759 0.68823 0.49700 -0.36200
O 	O 	0.69360 0.73320 0.57800 -0.22900
O 	O 	0.66651 0.71379 0.29916 -0.48100
O 	O 	0.68530 0.77623 0.25450 -0.26700
O 	O 	0.72786 0.66730 0.38910 -0.40700
O 	O 	0.69238 0.62389 0.27760 -0.41600
O 	O 	0.69905 0.67681 0.17850 -0.40700
O 	O 	0.63812 0.69558 0.06680 -0.43300
O 	O 	0.60170 0.70190 0.18041 -0.54700
Mn	Mn	0.51542 0.61094 0.44108 1.34200
As	As	0.45841 0.65570 0.54456 0.35000
As	As	0.45284 0.70636 0.07006 0.43400
As	As	0.40577 0.60968 0.16491 0.43400
As	As	0.25751 0.63783 0.17271 0.33700
As	As	0.30936 0.70787 0.38599 0.33200
C 	C 	0.39676 0.64180 0.57340 -0.06200
C 	C 	0.37940 0.66740 0.61990 -0.01700
H 	H 	0.39830 0.69130 0.63710 0.02900
C 	C 	0.33360 0.65730 0.64080 -0.05400
H 	H 	0.32100 0.67440 0.67260 0.04900
C 	C 	0.30620 0.62230 0.61550 -0.02400
H 	H 	0.27470 0.61600 0.62940 0.03700
C 	C 	0.32430 0.59650 0.56990 -0.04900
H 	H 	0.30580 0.57210 0.55370 0.05300
C 	C 	0.36980 0.60640 0.54820 -0.01300
H 	H 	0.38230 0.58920 0.51650 0.06000
C 	C 	0.43360 0.55640 0.38140 -0.03300
C 	C 	0.41290 0.60080 0.37110 0.35100
C 	C 	0.41000 0.51870 0.36030 -0.01700
H 	H 	0.37740 0.51930 0.33780 0.05500
C 	C 	0.43530 0.47980 0.37280 -0.02100
H 	H 	0.41960 0.45360 0.35880 0.04600
C 	C 	0.48350 0.47910 0.40580 -0.03900
H 	H 	0.50100 0.45280 0.41460 0.06600
C 	C 	0.50440 0.51810 0.42480 -0.00700
C 	C 	0.55700 0.52390 0.45840 0.28300
C 	C 	0.44067 0.75447 0.01500 -0.08200
C 	C 	0.43010 0.74871 0.94990 0.00100
H 	H 	0.43210 0.72100 0.93150 0.04500
C 	C 	0.41660 0.78440 0.91230 -0.05900
H 	H 	0.40920 0.78120 0.86770 0.05500
C 	C 	0.41380 0.82474 0.93960 -0.01400
H 	H 	0.40380 0.84880 0.91360 0.03400
C 	C 	0.42530 0.83030 0.00450 -0.06200
H 	H 	0.42430 0.85820 0.02270 0.04800
C 	C 	0.43850 0.79487 0.04280 -0.00700
H 	H 	0.44590 0.79820 0.08740 0.03000
C 	C 	0.39572 0.55030 0.18180 -0.06200
C 	C 	0.43810 0.52540 0.19850 -0.01400
H 	H 	0.47040 0.53810 0.20310 0.03900
C 	C 	0.43215 0.48149 0.20810 -0.04700
H 	H 	0.46060 0.46390 0.21950 0.04600
C 	C 	0.38480 0.46330 0.20120 -0.02000
H 	H 	0.38110 0.43340 0.20880 0.04100
C 	C 	0.34281 0.48826 0.18330 -0.04900
H 	H 	0.31060 0.47540 0.17750 0.04800
C 	C 	0.34811 0.53225 0.17400 -0.00500
H 	H 	0.31960 0.54970 0.16260 0.04700
C 	C 	0.31020 0.75930 0.02580 -0.01300
C 	C 	0.31700 0.72370 0.97990 0.28300
C 	C 	0.30020 0.80180 0.01190 -0.03400
H 	H 	0.29580 0.81130 0.96910 0.06500
C 	C 	0.29650 0.83050 0.06030 -0.01900
H 	H 	0.28960 0.85990 0.05100 0.04500
C 	C 	0.30290 0.81670 0.12270 -0.02800
H 	H 	0.30020 0.83620 0.15670 0.05400
C 	C 	0.31340 0.77310 0.13430 -0.01300
C 	C 	0.32150 0.75270 0.19970 0.33000
C 	C 	0.20910 0.66630 0.21630 -0.05500
C 	C 	0.18600 0.64340 0.26130 -0.01900
H 	H 	0.19300 0.61370 0.26840 0.03700
C 	C 	0.15250 0.66490 0.29560 -0.04400
H 	H 	0.13640 0.64980 0.32650 0.04500
C 	C 	0.14260 0.70820 0.28490 -0.02900
H 	H 	0.12020 0.72270 0.30910 0.03600
C 	C 	0.16500 0.73060 0.23900 -0.04200
H 	H 	0.15730 0.76010 0.23120 0.05000
C 	C 	0.19890 0.70970 0.20470 -0.02200
H 	H 	0.21500 0.72480 0.17380 0.06500
C 	C 	0.25340 0.69990 0.43090 -0.04700
C 	C 	0.24830 0.66090 0.46150 -0.01900
H 	H 	0.27280 0.63900 0.46070 0.04900
C 	C 	0.20640 0.65460 0.49330 -0.05100
H 	H 	0.20220 0.62810 0.51450 0.04400
C 	C 	0.17080 0.68670 0.49420 -0.02600
H 	H 	0.14270 0.68230 0.51680 0.02600
C 	C 	0.17570 0.72530 0.46250 -0.05500
H 	H 	0.15070 0.74680 0.46230 0.04800
C 	C 	0.21760 0.73220 0.43100 -0.02100
H 	H 	0.22170 0.75860 0.40970 0.03800
Mn	Mn	0.34016 0.68480 0.10473 1.34200
Mn	Mn	0.35350 0.66014 0.27462 1.35500
Mn	Mn	0.42725 0.70194 0.40736 1.32900
N 	N 	0.47984 0.55526 0.41430 -0.20500
N 	N 	0.31680 0.74590 0.08740 -0.20800
O 	O 	0.45503 0.69663 0.49395 -0.44700
O 	O 	0.48241 0.61064 0.51840 -0.40500
O 	O 	0.43999 0.63110 0.39538 -0.52000
O 	O 	0.37149 0.60444 0.33890 -0.38900
O 	O 	0.57003 0.56224 0.47100 -0.36100
O 	O 	0.58240 0.49087 0.47190 -0.22600
O 	O 	0.44855 0.66067 0.02839 -0.43200
O 	O 	0.50685 0.70953 0.11867 -0.47300
O 	O 	0.40786 0.70703 0.11935 -0.42400
O 	O 	0.46352 0.61547 0.14240 -0.44400
O 	O 	0.36071 0.62662 0.10802 -0.42400
O 	O 	0.40747 0.64123 0.22971 -0.47100
O 	O 	0.33241 0.68823 0.00300 -0.36200
O 	O 	0.30640 0.73320 0.92200 -0.22900
O 	O 	0.33349 0.71379 0.20084 -0.48100
O 	O 	0.31470 0.77623 0.24550 -0.26700
O 	O 	0.27214 0.66730 0.11090 -0.40700
O 	O 	0.30762 0.62389 0.22240 -0.41600
O 	O 	0.30095 0.67681 0.32150 -0.40700
O 	O 	0.36188 0.69558 0.43320 -0.43200
O 	O 	0.39830 0.70190 0.31959 -0.54700
K 	K 	0.50000 0.67824 0.25000 0.65700
Mn	Mn	0.98458 0.11094 0.05892 1.34500
As	As	0.04159 0.15570 0.95544 0.34700
As	As	0.04716 0.20636 0.42994 0.42800
As	As	0.09423 0.10968 0.33509 0.43400
As	As	0.24249 0.13783 0.32729 0.33700
As	As	0.19064 0.20787 0.11401 0.33200
C 	C 	0.10324 0.14180 0.92660 -0.06200
C 	C 	0.12060 0.16740 0.88010 -0.01700
H 	H 	0.10170 0.19130 0.86290 0.02800
C 	C 	0.16640 0.15730 0.85920 -0.05400
H 	H 	0.17900 0.17440 0.82740 0.04900
C 	C 	0.19380 0.12230 0.88450 -0.02400
H 	H 	0.22530 0.11600 0.87060 0.03700
C 	C 	0.17570 0.09650 0.93010 -0.04900
H 	H 	0.19420 0.07210 0.94630 0.05300
C 	C 	0.13020 0.10640 0.95180 -0.01300
H 	H 	0.11770 0.08920 0.98350 0.06000
C 	C 	0.06640 0.05640 0.11860 -0.02700
C 	C 	0.08710 0.10080 0.12890 0.34800
C 	C 	0.09000 0.01870 0.13970 -0.03100
H 	H 	0.12260 0.01930 0.16220 0.06000
C 	C 	0.06470 0.97980 0.12720 0.00100
H 	H 	0.08040 0.95360 0.14120 0.03800
C 	C 	0.01650 0.97910 0.09420 -0.08000
H 	H 	0.99900 0.95280 0.08540 0.08500
C 	C 	0.99560 0.01810 0.07520 0.02000
C 	C 	0.94300 0.02390 0.04160 0.27500
C 	C 	0.05933 0.25447 0.48500 -0.08300
C 	C 	0.06990 0.24871 0.55010 0.00100
H 	H 	0.06790 0.22100 0.56850 0.04300
C 	C 	0.08340 0.28440 0.58770 -0.06000
H 	H 	0.09080 0.28120 0.63230 0.05400
C 	C 	0.08620 0.32474 0.56040 -0.01400
H 	H 	0.09620 0.34880 0.58640 0.03300
C 	C 	0.07470 0.33030 0.49550 -0.06300
H 	H 	0.07570 0.35820 0.47730 0.04700
C 	C 	0.06150 0.29487 0.45720 -0.00800
H 	H 	0.05410 0.29820 0.41260 0.02900
C 	C 	0.10428 0.05030 0.31820 -0.06300
C 	C 	0.06190 0.02540 0.30150 -0.01400
H 	H 	0.02960 0.03810 0.29690 0.03700
C 	C 	0.06785 0.98149 0.29190 -0.04700
H 	H 	0.03940 0.96390 0.28050 0.04300
C 	C 	0.11520 0.96330 0.29880 -0.02000
H 	H 	0.11890 0.93340 0.29120 0.04100
C 	C 	0.15719 0.98826 0.31670 -0.04800
H 	H 	0.18940 0.97540 0.32250 0.04800
C 	C 	0.15189 0.03225 0.32600 -0.00500
H 	H 	0.18040 0.04970 0.33740 0.04700
C 	C 	0.18980 0.25930 0.47420 -0.01300
C 	C 	0.18300 0.22370 0.52010 0.28300
C 	C 	0.19980 0.30180 0.48810 -0.03400
H 	H 	0.20420 0.31130 0.53090 0.06600
C 	C 	0.20350 0.33050 0.43970 -0.01900
H 	H 	0.21040 0.35990 0.44900 0.04500
C 	C 	0.19710 0.31670 0.37730 -0.02800
H 	H 	0.19980 0.33620 0.34330 0.05400
C 	C 	0.18660 0.27310 0.36570 -0.01400
C 	C 	0.17850 0.25270 0.30030 0.33000
C 	C 	0.29090 0.16630 0.28370 -0.05500
C 	C 	0.31400 0.14340 0.23870 -0.01900
H 	H 	0.30700 0.11370 0.23160 0.03800
C 	C 	0.34750 0.16490 0.20440 -0.04400
H 	H 	0.36360 0.14980 0.17350 0.04500
C 	C 	0.35740 0.20820 0.21510 -0.02900
H 	H 	0.37980 0.22270 0.19090 0.03700
C 	C 	0.33500 0.23060 0.26100 -0.04200
H 	H 	0.34270 0.26010 0.26880 0.05000
C 	C 	0.30110 0.20970 0.29530 -0.02200
H 	H 	0.28500 0.22480 0.32620 0.06500
C 	C 	0.24660 0.19990 0.06910 -0.04700
C 	C 	0.25170 0.16090 0.03850 -0.01900
H 	H 	0.22720 0.13900 0.03930 0.04900
C 	C 	0.29360 0.15460 0.00670 -0.05000
H 	H 	0.29780 0.12810 0.98550 0.04500
C 	C 	0.32920 0.18670 0.00580 -0.02600
H 	H 	0.35730 0.18230 0.98320 0.02700
C 	C 	0.32430 0.22530 0.03750 -0.05500
H 	H 	0.34930 0.24680 0.03770 0.04900
C 	C 	0.28240 0.23220 0.06900 -0.02100
H 	H 	0.27830 0.25860 0.09030 0.03800
Mn	Mn	0.15984 0.18480 0.39527 1.34200
Mn	Mn	0.14650 0.16014 0.22538 1.35500
Mn	Mn	0.07275 0.20194 0.09264 1.32900
N 	N 	0.02016 0.05526 0.08570 -0.21500
N 	N 	0.18320 0.24590 0.41260 -0.20800
O 	O 	0.04497 0.19663 0.00605 -0.44900
O 	O 	0.01759 0.11064 0.98160 -0.40800
O 	O 	0.06001 0.13110 0.10462 -0.52100
O 	O 	0.12851 0.10444 0.16110 -0.38900
O 	O 	0.92997 0.06224 0.02900 -0.35800
O 	O 	0.91760 0.99087 0.02810 -0.22300
O 	O 	0.05145 0.16067 0.47161 -0.43300
O 	O 	0.99315 0.20953 0.38133 -0.46700
O 	O 	0.09214 0.20703 0.38065 -0.42400
O 	O 	0.03648 0.11547 0.35760 -0.44700
O 	O 	0.13929 0.12662 0.39198 -0.42400
O 	O 	0.09253 0.14123 0.27029 -0.47200
O 	O 	0.16759 0.18823 0.49700 -0.36200
O 	O 	0.19360 0.23320 0.57800 -0.22900
O 	O 	0.16651 0.21379 0.29916 -0.48100
O 	O 	0.18530 0.27623 0.25450 -0.26700
O 	O 	0.22786 0.16730 0.38910 -0.40700
O 	O 	0.19238 0.12389 0.27760 -0.41600
O 	O 	0.19905 0.17681 0.17850 -0.40700
O 	O 	0.13812 0.19558 0.06680 -0.43300
O 	O 	0.10170 0.20190 0.18041 -0.54800
Mn	Mn	0.01542 0.11094 0.44108 1.33900
As	As	0.95841 0.15570 0.54456 0.35300
As	As	0.95284 0.20636 0.07006 0.44000
As	As	0.90577 0.10968 0.16491 0.43400
As	As	0.75751 0.13783 0.17271 0.33700
As	As	0.80936 0.20787 0.38599 0.33200
C 	C 	0.89676 0.14180 0.57340 -0.06200
C 	C 	0.87940 0.16740 0.61990 -0.01700
H 	H 	0.89830 0.19130 0.63710 0.03000
C 	C 	0.83360 0.15730 0.64080 -0.05300
H 	H 	0.82100 0.17440 0.67260 0.04900
C 	C 	0.80620 0.12230 0.61550 -0.02400
H 	H 	0.77470 0.11600 0.62940 0.03700
C 	C 	0.82430 0.09650 0.56990 -0.04900
H 	H 	0.80580 0.07210 0.55370 0.05300
C 	C 	0.86980 0.10640 0.54820 -0.01300
H 	H 	0.88230 0.08920 0.51650 0.06000
C 	C 	0.93360 0.05640 0.38140 -0.03900
C 	C 	0.91290 0.10080 0.37110 0.35300
C 	C 	0.91000 0.01870 0.36030 -0.00300
H 	H 	0.87740 0.01930 0.33780 0.05100
C 	C 	0.93530 0.97980 0.37280 -0.04500
H 	H 	0.91960 0.95360 0.35880 0.05500
C 	C 	0.98350 0.97910 0.40580 0.00400
H 	H 	0.00100 0.95280 0.41460 0.04700
C 	C 	0.00440 0.01810 0.42480 -0.03600
C 	C 	0.05700 0.02390 0.45840 0.29200
C 	C 	0.94067 0.25447 0.01500 -0.08300
C 	C 	0.93010 0.24871 0.94990 0.00400
H 	H 	0.93210 0.22100 0.93150 0.04500
C 	C 	0.91660 0.28440 0.91230 -0.06000
H 	H 	0.90920 0.28120 0.86770 0.05600
C 	C 	0.91380 0.32474 0.93960 -0.01100
H 	H 	0.90380 0.34880 0.91360 0.03400
C 	C 	0.92530 0.33030 0.00450 -0.06400
H 	H 	0.92430 0.35820 0.02270 0.05000
C 	C 	0.93850 0.29487 0.04280 -0.00500
H 	H 	0.94590 0.29820 0.08740 0.03100
C 	C 	0.89572 0.05030 0.18180 -0.06200
C 	C 	0.93810 0.02540 0.19850 -0.01400
H 	H 	0.97040 0.03810 0.20310 0.04100
C 	C 	0.93215 0.98149 0.20810 -0.04600
H 	H 	0.96060 0.96390 0.21950 0.04800
C 	C 	0.88480 0.96330 0.20120 -0.02000
H 	H 	0.88110 0.93340 0.20880 0.04100
C 	C 	0.84281 0.98826 0.18330 -0.04800
H 	H 	0.81060 0.97540 0.17750 0.04800
C 	C 	0.84811 0.03225 0.17400 -0.00600
H 	H 	0.81960 0.04970 0.16260 0.04700
C 	C 	0.81020 0.25930 0.02580 -0.01300
C 	C 	0.81700 0.22370 0.97990 0.28400
C 	C 	0.80020 0.30180 0.01190 -0.03500
H 	H 	0.79580 0.31130 0.96910 0.06600
C 	C 	0.79650 0.33050 0.06030 -0.01800
H 	H 	0.78960 0.35990 0.05100 0.04500
C 	C 	0.80290 0.31670 0.12270 -0.02800
H 	H 	0.80020 0.33620 0.15670 0.05500
C 	C 	0.81340 0.27310 0.13430 -0.01300
C 	C 	0.82150 0.25270 0.19970 0.33000
C 	C 	0.70910 0.16630 0.21630 -0.05500
C 	C 	0.68600 0.14340 0.26130 -0.01900
H 	H 	0.69300 0.11370 0.26840 0.03800
C 	C 	0.65250 0.16490 0.29560 -0.04400
H 	H 	0.63640 0.14980 0.32650 0.04500
C 	C 	0.64260 0.20820 0.28490 -0.02900
H 	H 	0.62020 0.22270 0.30910 0.03700
C 	C 	0.66500 0.23060 0.23900 -0.04200
H 	H 	0.65730 0.26010 0.23120 0.05000
C 	C 	0.69890 0.20970 0.20470 -0.02200
H 	H 	0.71500 0.22480 0.17380 0.06500
C 	C 	0.75340 0.19990 0.43090 -0.04700
C 	C 	0.74830 0.16090 0.46150 -0.01900
H 	H 	0.77280 0.13900 0.46070 0.04900
C 	C 	0.70640 0.15460 0.49330 -0.05000
H 	H 	0.70220 0.12810 0.51450 0.04500
C 	C 	0.67080 0.18670 0.49420 -0.02600
H 	H 	0.64270 0.18230 0.51680 0.02700
C 	C 	0.67570 0.22530 0.46250 -0.05500
H 	H 	0.65070 0.24680 0.46230 0.04900
C 	C 	0.71760 0.23220 0.43100 -0.02100
H 	H 	0.72170 0.25860 0.40970 0.03800
Mn	Mn	0.84016 0.18480 0.10473 1.34200
Mn	Mn	0.85350 0.16014 0.27462 1.35500
Mn	Mn	0.92725 0.20194 0.40736 1.33000
N 	N 	0.97984 0.05526 0.41430 -0.19400
N 	N 	0.81680 0.24590 0.08740 -0.20800
O 	O 	0.95503 0.19663 0.49395 -0.44400
O 	O 	0.98241 0.11064 0.51840 -0.40200
O 	O 	0.93999 0.13110 0.39538 -0.51900
O 	O 	0.87149 0.10444 0.33890 -0.39000
O 	O 	0.07003 0.06224 0.47100 -0.36500
O 	O 	0.08240 0.99087 0.47190 -0.22900
O 	O 	0.94855 0.16067 0.02839 -0.43000
O 	O 	0.00685 0.20953 0.11867 -0.47900
O 	O 	0.90786 0.20703 0.11935 -0.42400
O 	O 	0.96352 0.11547 0.14240 -0.44100
O 	O 	0.86071 0.12662 0.10802 -0.42400
O 	O 	0.90747 0.14123 0.22971 -0.47000
O 	O 	0.83241 0.18823 0.00300 -0.36200
O 	O 	0.80640 0.23320 0.92200 -0.22900
O 	O 	0.83349 0.21379 0.20084 -0.48000
O 	O 	0.81470 0.27623 0.24550 -0.26600
O 	O 	0.77214 0.16730 0.11090 -0.40700
O 	O 	0.80762 0.12389 0.22240 -0.41600
O 	O 	0.80095 0.17681 0.32150 -0.40700
O 	O 	0.86188 0.19558 0.43320 -0.43200
O 	O 	0.89830 0.20190 0.31959 -0.54600
K 	K 	0.00000 0.17824 0.25000 0.65600
