data_crystal

_cell_length_a 21.75600
_cell_length_b 29.05900
_cell_length_c 31.14900
_cell_angle_alpha 90.00000
_cell_angle_beta  92.59400
_cell_angle_gamma 90.00000

_symmetry_space_group_name_	'P 1'
_symmetry_space_group_name_H-M	'P 1'

loop_
_symmetry_equiv_pos_as_xyz
  x,y,z

loop_
_atom_site_label
_atom_site_type_symbol
_atom_site_fract_x
_atom_site_fract_y
_atom_site_fract_z
_atom_site_charge
Mo	Mo	0.18088 0.32856 0.45537 1.14100
Mo	Mo	0.20091 0.44152 0.50636 1.15800
Mo	Mo	0.26396 0.43063 0.29647 1.15800
Mo	Mo	0.39610 0.42852 0.37531 1.15000
Mo	Mo	0.99614 0.44382 0.36119 1.19500
Mo	Mo	0.20470 0.67829 0.44348 1.13800
Mo	Mo	0.23588 0.67322 0.33431 1.14100
Mo	Mo	0.00102 0.57323 0.35657 1.14000
Mo	Mo	0.21355 0.32311 0.34577 1.13400
Mo	Mo	0.40414 0.55730 0.37006 1.14900
Mo	Mo	0.06662 0.32709 0.37811 1.03300
Mo	Mo	0.20872 0.56931 0.50301 1.15800
Mo	Mo	0.27178 0.55839 0.29187 1.15700
Mo	Mo	0.36510 0.43444 0.48087 1.15000
Mo	Mo	0.08917 0.68331 0.36693 1.02900
Mo	Mo	0.32855 0.32752 0.42463 1.14600
Mo	Mo	0.37219 0.56320 0.47633 1.14900
Mo	Mo	0.35157 0.66661 0.41184 1.14500
Sr	Sr	0.13825 0.50341 0.38273 1.53600
P 	P 	0.25390 0.57217 0.39894 0.52200
P 	P 	0.24491 0.42714 0.40426 0.51200
P 	P 	0.11584 0.40679 0.30540 0.53200
P 	P 	0.08410 0.60206 0.44663 0.53200
P 	P 	0.12830 0.59412 0.29923 0.53200
P 	P 	0.07140 0.41294 0.45223 0.52900
O 	O 	0.40600 0.49250 0.37410 -0.54100
O 	O 	0.26200 0.49460 0.28950 -0.55100
O 	O 	0.19680 0.50570 0.50580 -0.54700
O 	O 	0.11790 0.58000 0.48520 -0.41300
O 	O 	0.01690 0.37780 0.36840 -0.56200
O 	O 	0.20210 0.44770 0.43600 -0.43800
O 	O 	0.37460 0.49850 0.47870 -0.53600
O 	O 	0.34050 0.43070 0.32800 -0.53700
O 	O 	0.42380 0.42580 0.43570 -0.52600
O 	O 	0.05980 0.44840 0.41690 -0.48000
O 	O 	0.20050 0.37280 0.49230 -0.53600
O 	O 	0.36050 0.63130 0.45860 -0.54300
O 	O 	0.13500 0.36740 0.33710 -0.47800
O 	O 	0.12360 0.63870 0.42430 -0.48000
O 	O 	0.22510 0.44420 0.35920 -0.43000
O 	O 	0.21680 0.63550 0.48340 -0.53900
O 	O 	0.09390 0.56100 0.32580 -0.49800
O 	O 	0.06810 0.38920 0.27200 -0.50400
O 	O 	0.17900 0.57070 0.27620 -0.42800
O 	O 	0.31860 0.55580 0.41080 -0.40400
O 	O 	0.29390 0.56400 0.49990 -0.53600
O 	O 	0.27800 0.29560 0.37390 -0.53400
O 	O 	0.23960 0.37270 0.40570 -0.42700
O 	O 	0.25580 0.62650 0.39710 -0.42900
O 	O 	0.31130 0.44000 0.41530 -0.40500
O 	O 	0.96180 0.43550 0.31010 -0.54900
O 	O 	0.08770 0.44480 0.33210 -0.50400
O 	O 	0.28730 0.44100 0.50480 -0.53200
O 	O 	0.28080 0.70160 0.44020 -0.54500
O 	O 	0.08510 0.61740 0.26460 -0.46300
O 	O 	0.15510 0.30670 0.39400 -0.62700
O 	O 	0.25320 0.36440 0.31470 -0.53600
O 	O 	0.17950 0.69630 0.38100 -0.63300
O 	O 	0.38440 0.62600 0.37550 -0.53900
O 	O 	0.20930 0.55710 0.43160 -0.43900
O 	O 	0.01140 0.50720 0.36010 -0.61700
O 	O 	0.34460 0.36620 0.46860 -0.54100
O 	O 	0.25360 0.30030 0.45370 -0.54300
O 	O 	0.23140 0.55340 0.35540 -0.43800
O 	O 	0.36770 0.36090 0.38540 -0.53400
O 	O 	0.17210 0.42510 0.28260 -0.43200
O 	O 	0.10810 0.37220 0.43240 -0.48100
O 	O 	0.06650 0.56590 0.41380 -0.47100
O 	O 	0.30390 0.69760 0.35960 -0.54300
O 	O 	0.43150 0.56330 0.43020 -0.52100
O 	O 	0.26940 0.62730 0.30640 -0.53300
O 	O 	0.15290 0.63500 0.32800 -0.47600
O 	O 	0.34740 0.55490 0.32220 -0.53800
O 	O 	0.02720 0.62690 0.46290 -0.31800
O 	O 	0.96650 0.57630 0.30550 -0.58400
O 	O 	0.10870 0.43450 0.48920 -0.41600
O 	O 	0.03230 0.63550 0.35960 -0.57300
O 	O 	0.01020 0.39550 0.46690 -0.31200
Mo	Mo	0.81912 0.32856 0.04463 1.14600
Mo	Mo	0.79909 0.44152 0.99364 1.16200
Mo	Mo	0.73604 0.43063 0.20353 1.16000
Mo	Mo	0.60390 0.42852 0.12469 1.15000
Mo	Mo	0.00386 0.44382 0.13881 1.13100
Mo	Mo	0.79530 0.67829 0.05652 1.14200
Mo	Mo	0.76412 0.67322 0.16569 1.14400
Mo	Mo	0.99898 0.57323 0.14343 1.17400
Mo	Mo	0.78645 0.32311 0.15423 1.13700
Mo	Mo	0.59586 0.55730 0.12994 1.15000
Mo	Mo	0.93338 0.32709 0.12189 1.04700
Mo	Mo	0.79128 0.56931 0.99699 1.16200
Mo	Mo	0.72822 0.55839 0.20813 1.15900
Mo	Mo	0.63490 0.43444 0.01913 1.15200
Mo	Mo	0.91083 0.68331 0.13307 1.04300
Mo	Mo	0.67145 0.32752 0.07537 1.14800
Mo	Mo	0.62781 0.56320 0.02367 1.15100
Mo	Mo	0.64843 0.66661 0.08816 1.14600
Sr	Sr	0.86175 0.50341 0.11727 1.53600
P 	P 	0.74610 0.57217 0.10106 0.52200
P 	P 	0.75509 0.42714 0.09574 0.51200
P 	P 	0.88416 0.40679 0.19460 0.53100
P 	P 	0.91590 0.60206 0.05337 0.53200
P 	P 	0.87170 0.59412 0.20077 0.53200
P 	P 	0.92860 0.41294 0.04777 0.52800
O 	O 	0.59400 0.49250 0.12590 -0.54100
O 	O 	0.73800 0.49460 0.21050 -0.54900
O 	O 	0.80320 0.50570 0.99420 -0.54100
O 	O 	0.88210 0.58000 0.01480 -0.39700
O 	O 	0.98310 0.37780 0.13160 -0.51700
O 	O 	0.79790 0.44770 0.06400 -0.43800
O 	O 	0.62540 0.49850 0.02130 -0.53600
O 	O 	0.65950 0.43070 0.17200 -0.53600
O 	O 	0.57620 0.42580 0.06430 -0.52700
O 	O 	0.94020 0.44840 0.08310 -0.45900
O 	O 	0.79950 0.37280 0.00770 -0.53000
O 	O 	0.63950 0.63130 0.04140 -0.54200
O 	O 	0.86500 0.36740 0.16290 -0.47300
O 	O 	0.87640 0.63870 0.07570 -0.47600
O 	O 	0.77490 0.44420 0.14080 -0.43100
O 	O 	0.78320 0.63550 0.01660 -0.53400
O 	O 	0.90610 0.56100 0.17420 -0.48800
O 	O 	0.93190 0.38920 0.22800 -0.47100
O 	O 	0.82100 0.57070 0.22380 -0.42300
O 	O 	0.68140 0.55580 0.08920 -0.40400
O 	O 	0.70610 0.56400 0.00010 -0.53500
O 	O 	0.72200 0.29560 0.12610 -0.53100
O 	O 	0.76040 0.37270 0.09430 -0.42800
O 	O 	0.74420 0.62650 0.10290 -0.43000
O 	O 	0.68870 0.44000 0.08470 -0.40500
O 	O 	0.03820 0.43550 0.18990 -0.59600
O 	O 	0.91230 0.44480 0.16790 -0.48400
O 	O 	0.71270 0.44100 0.99520 -0.53000
O 	O 	0.71920 0.70160 0.05980 -0.54300
O 	O 	0.91490 0.61740 0.23540 -0.43700
O 	O 	0.84490 0.30670 0.10600 -0.61800
O 	O 	0.74680 0.36440 0.18530 -0.53400
O 	O 	0.82050 0.69630 0.11900 -0.62600
O 	O 	0.61560 0.62600 0.12450 -0.53900
O 	O 	0.79070 0.55710 0.06840 -0.44000
O 	O 	0.98860 0.50720 0.13990 -0.56800
O 	O 	0.65540 0.36620 0.03140 -0.54000
O 	O 	0.74640 0.30030 0.04630 -0.53900
O 	O 	0.76860 0.55340 0.14460 -0.43900
O 	O 	0.63230 0.36090 0.11460 -0.53400
O 	O 	0.82790 0.42510 0.21740 -0.42700
O 	O 	0.89190 0.37220 0.06760 -0.47500
O 	O 	0.93350 0.56590 0.08620 -0.46200
O 	O 	0.69610 0.69760 0.14040 -0.54100
O 	O 	0.56850 0.56330 0.06980 -0.52200
O 	O 	0.73060 0.62730 0.19360 -0.53100
O 	O 	0.84710 0.63500 0.17200 -0.47300
O 	O 	0.65260 0.55490 0.17780 -0.53800
O 	O 	0.97280 0.62690 0.03710 -0.27500
O 	O 	0.03350 0.57630 0.19450 -0.65300
O 	O 	0.89130 0.43450 0.01080 -0.40000
O 	O 	0.96770 0.63550 0.14040 -0.54600
O 	O 	0.98980 0.39550 0.03310 -0.26200
Zn	Zn	0.00000 0.58397 0.25000 1.19100
Zn	Zn	0.00000 0.42737 0.25000 1.19200
Mo	Mo	0.68088 0.82856 0.45537 1.14400
Mo	Mo	0.70091 0.94152 0.50636 1.16100
Mo	Mo	0.76396 0.93063 0.29647 1.16100
Mo	Mo	0.89610 0.92852 0.37531 1.15500
Mo	Mo	0.49614 0.94382 0.36119 1.16300
Mo	Mo	0.70470 0.17829 0.44348 1.14100
Mo	Mo	0.73588 0.17322 0.33431 1.14300
Mo	Mo	0.50102 0.07323 0.35657 1.15700
Mo	Mo	0.71355 0.82311 0.34577 1.13600
Mo	Mo	0.90414 0.05730 0.37006 1.15400
Mo	Mo	0.56662 0.82709 0.37811 1.04100
Mo	Mo	0.70872 0.06931 0.50301 1.16100
Mo	Mo	0.77178 0.05839 0.29187 1.16000
Mo	Mo	0.86510 0.93444 0.48087 1.15500
Mo	Mo	0.58917 0.18331 0.36693 1.03600
Mo	Mo	0.82855 0.82752 0.42463 1.15000
Mo	Mo	0.87219 0.06320 0.47633 1.15400
Mo	Mo	0.85157 0.16661 0.41184 1.14900
Sr	Sr	0.63825 0.00341 0.38273 1.53600
P 	P 	0.75390 0.07217 0.39894 0.52200
P 	P 	0.74491 0.92714 0.40426 0.51200
P 	P 	0.61584 0.90679 0.30540 0.53200
P 	P 	0.58410 0.10206 0.44663 0.53200
P 	P 	0.62830 0.09412 0.29923 0.53200
P 	P 	0.57140 0.91294 0.45223 0.52900
O 	O 	0.90600 0.99250 0.37410 -0.53400
O 	O 	0.76200 0.99460 0.28950 -0.54800
O 	O 	0.69680 0.00570 0.50580 -0.54300
O 	O 	0.61790 0.08000 0.48520 -0.40500
O 	O 	0.51690 0.87780 0.36840 -0.54000
O 	O 	0.70210 0.94770 0.43600 -0.43800
O 	O 	0.87460 0.99850 0.47870 -0.53000
O 	O 	0.84050 0.93070 0.32800 -0.53200
O 	O 	0.92380 0.92580 0.43570 -0.51500
O 	O 	0.55980 0.94840 0.41690 -0.47000
O 	O 	0.70050 0.87280 0.49230 -0.53200
O 	O 	0.86050 0.13130 0.45860 -0.53700
O 	O 	0.63500 0.86740 0.33710 -0.47500
O 	O 	0.62360 0.13870 0.42430 -0.47800
O 	O 	0.72510 0.94420 0.35920 -0.43100
O 	O 	0.71680 0.13550 0.48340 -0.53500
O 	O 	0.59390 0.06100 0.32580 -0.49400
O 	O 	0.56810 0.88920 0.27200 -0.49000
O 	O 	0.67900 0.07070 0.27620 -0.42500
O 	O 	0.81860 0.05580 0.41080 -0.40500
O 	O 	0.79390 0.06400 0.49990 -0.53200
O 	O 	0.77800 0.79560 0.37390 -0.52800
O 	O 	0.73960 0.87270 0.40570 -0.42800
O 	O 	0.75580 0.12650 0.39710 -0.43000
O 	O 	0.81130 0.94000 0.41530 -0.40600
O 	O 	0.46180 0.93550 0.31010 -0.57600
O 	O 	0.58770 0.94480 0.33210 -0.49500
O 	O 	0.78730 0.94100 0.50480 -0.52800
O 	O 	0.78080 0.20160 0.44020 -0.54100
O 	O 	0.58510 0.11740 0.26460 -0.45200
O 	O 	0.65510 0.80670 0.39400 -0.62200
O 	O 	0.75320 0.86440 0.31470 -0.53200
O 	O 	0.67950 0.19630 0.38100 -0.62900
O 	O 	0.88440 0.12600 0.37550 -0.53200
O 	O 	0.70930 0.05710 0.43160 -0.44000
O 	O 	0.51140 0.00720 0.36010 -0.59400
O 	O 	0.84460 0.86620 0.46860 -0.53500
O 	O 	0.75360 0.80030 0.45370 -0.53900
O 	O 	0.73140 0.05340 0.35540 -0.43900
O 	O 	0.86770 0.86090 0.38540 -0.52700
O 	O 	0.67210 0.92510 0.28260 -0.42900
O 	O 	0.60810 0.87220 0.43240 -0.47800
O 	O 	0.56650 0.06590 0.41380 -0.46700
O 	O 	0.80390 0.19760 0.35960 -0.53700
O 	O 	0.93150 0.06330 0.43020 -0.51000
O 	O 	0.76940 0.12730 0.30640 -0.52900
O 	O 	0.65290 0.13500 0.32800 -0.47400
O 	O 	0.84740 0.05490 0.32220 -0.53300
O 	O 	0.52720 0.12690 0.46290 -0.29700
O 	O 	0.46650 0.07630 0.30550 -0.62300
O 	O 	0.60870 0.93450 0.48920 -0.40800
O 	O 	0.53230 0.13550 0.35960 -0.56000
O 	O 	0.51020 0.89550 0.46690 -0.28700
Mo	Mo	0.31912 0.82856 0.04463 1.14400
Mo	Mo	0.29909 0.94152 0.99364 1.15900
Mo	Mo	0.23604 0.93063 0.20353 1.15800
Mo	Mo	0.10390 0.92852 0.12469 1.14700
Mo	Mo	0.50386 0.94382 0.13881 1.16400
Mo	Mo	0.29530 0.17829 0.05652 1.14000
Mo	Mo	0.26412 0.17322 0.16569 1.14200
Mo	Mo	0.49898 0.07323 0.14343 1.15700
Mo	Mo	0.28645 0.82311 0.15423 1.13500
Mo	Mo	0.09586 0.05730 0.12994 1.14600
Mo	Mo	0.43338 0.82709 0.12189 1.04000
Mo	Mo	0.29128 0.06931 0.99699 1.16000
Mo	Mo	0.22822 0.05839 0.20813 1.15600
Mo	Mo	0.13490 0.93444 0.01913 1.14800
Mo	Mo	0.41083 0.18331 0.13307 1.03600
Mo	Mo	0.17145 0.82752 0.07537 1.14500
Mo	Mo	0.12781 0.06320 0.02367 1.14600
Mo	Mo	0.14843 0.16661 0.08816 1.14200
Sr	Sr	0.36175 0.00341 0.11727 1.53600
P 	P 	0.24610 0.07217 0.10106 0.52200
P 	P 	0.25509 0.92714 0.09574 0.51200
P 	P 	0.38416 0.90679 0.19460 0.53200
P 	P 	0.41590 0.10206 0.05337 0.53200
P 	P 	0.37170 0.09412 0.20077 0.53200
P 	P 	0.42860 0.91294 0.04777 0.52900
O 	O 	0.09400 0.99250 0.12590 -0.54700
O 	O 	0.23800 0.99460 0.21050 -0.55200
O 	O 	0.30320 0.00570 0.99420 -0.54400
O 	O 	0.38210 0.08000 0.01480 -0.40600
O 	O 	0.48310 0.87780 0.13160 -0.54000
O 	O 	0.29790 0.94770 0.06400 -0.43800
O 	O 	0.12540 0.99850 0.02130 -0.54200
O 	O 	0.15950 0.93070 0.17200 -0.54100
O 	O 	0.07620 0.92580 0.06430 -0.53700
O 	O 	0.44020 0.94840 0.08310 -0.46900
O 	O 	0.29950 0.87280 0.00770 -0.53400
O 	O 	0.13950 0.13130 0.04140 -0.54900
O 	O 	0.36500 0.86740 0.16290 -0.47600
O 	O 	0.37640 0.13870 0.07570 -0.47800
O 	O 	0.27490 0.94420 0.14080 -0.43000
O 	O 	0.28320 0.13550 0.01660 -0.53800
O 	O 	0.40610 0.06100 0.17420 -0.49400
O 	O 	0.43190 0.88920 0.22800 -0.49100
O 	O 	0.32100 0.07070 0.22380 -0.42700
O 	O 	0.18140 0.05580 0.08920 -0.40300
O 	O 	0.20610 0.06400 0.00010 -0.53900
O 	O 	0.22200 0.79560 0.12610 -0.53600
O 	O 	0.26040 0.87270 0.09430 -0.42700
O 	O 	0.24420 0.12650 0.10290 -0.42900
O 	O 	0.18870 0.94000 0.08470 -0.40400
O 	O 	0.53820 0.93550 0.18990 -0.57500
O 	O 	0.41230 0.94480 0.16790 -0.49500
O 	O 	0.21270 0.94100 0.99520 -0.53400
O 	O 	0.21920 0.20160 0.05980 -0.54800
O 	O 	0.41490 0.11740 0.23540 -0.45300
O 	O 	0.34490 0.80670 0.10600 -0.62300
O 	O 	0.24680 0.86440 0.18530 -0.53700
O 	O 	0.32050 0.19630 0.11900 -0.63100
O 	O 	0.11560 0.12600 0.12450 -0.54600
O 	O 	0.29070 0.05710 0.06840 -0.44000
O 	O 	0.48860 0.00720 0.13990 -0.59400
O 	O 	0.15540 0.86620 0.03140 -0.54600
O 	O 	0.24640 0.80030 0.04630 -0.54400
O 	O 	0.26860 0.05340 0.14460 -0.43900
O 	O 	0.13230 0.86090 0.11460 -0.54000
O 	O 	0.32790 0.92510 0.21740 -0.43100
O 	O 	0.39190 0.87220 0.06760 -0.47800
O 	O 	0.43350 0.06590 0.08620 -0.46700
O 	O 	0.19610 0.19760 0.14040 -0.54700
O 	O 	0.06850 0.06330 0.06980 -0.53300
O 	O 	0.23060 0.12730 0.19360 -0.53500
O 	O 	0.34710 0.13500 0.17200 -0.47500
O 	O 	0.15260 0.05490 0.17780 -0.54300
O 	O 	0.47280 0.12690 0.03710 -0.29700
O 	O 	0.53350 0.07630 0.19450 -0.62200
O 	O 	0.39130 0.93450 0.01080 -0.40900
O 	O 	0.46770 0.13550 0.14040 -0.56000
O 	O 	0.48980 0.89550 0.03310 -0.28700
Zn	Zn	0.50000 0.08397 0.25000 1.20600
Zn	Zn	0.50000 0.92737 0.25000 1.20600
Mo	Mo	0.81912 0.67144 0.54463 1.14600
Mo	Mo	0.79909 0.55848 0.49364 1.16200
Mo	Mo	0.73604 0.56937 0.70353 1.16000
Mo	Mo	0.60390 0.57148 0.62469 1.15000
Mo	Mo	0.00386 0.55618 0.63881 1.13100
Mo	Mo	0.79530 0.32171 0.55652 1.14200
Mo	Mo	0.76412 0.32678 0.66569 1.14400
Mo	Mo	0.99898 0.42677 0.64343 1.17400
Mo	Mo	0.78645 0.67689 0.65423 1.13700
Mo	Mo	0.59586 0.44270 0.62994 1.15000
Mo	Mo	0.93338 0.67291 0.62189 1.04700
Mo	Mo	0.79128 0.43069 0.49699 1.16200
Mo	Mo	0.72822 0.44161 0.70813 1.15900
Mo	Mo	0.63490 0.56556 0.51913 1.15200
Mo	Mo	0.91083 0.31669 0.63307 1.04200
Mo	Mo	0.67145 0.67248 0.57537 1.14800
Mo	Mo	0.62781 0.43680 0.52367 1.15100
Mo	Mo	0.64843 0.33339 0.58816 1.14600
Sr	Sr	0.86175 0.49659 0.61727 1.53600
P 	P 	0.74610 0.42783 0.60106 0.52200
P 	P 	0.75509 0.57286 0.59574 0.51200
P 	P 	0.88416 0.59321 0.69460 0.53100
P 	P 	0.91590 0.39794 0.55337 0.53200
P 	P 	0.87170 0.40588 0.70077 0.53200
P 	P 	0.92860 0.58706 0.54777 0.52800
O 	O 	0.59400 0.50750 0.62590 -0.54100
O 	O 	0.73800 0.50540 0.71050 -0.54900
O 	O 	0.80320 0.49430 0.49420 -0.54000
O 	O 	0.88210 0.42000 0.51480 -0.39700
O 	O 	0.98310 0.62220 0.63160 -0.51700
O 	O 	0.79790 0.55230 0.56400 -0.43800
O 	O 	0.62540 0.50150 0.52130 -0.53600
O 	O 	0.65950 0.56930 0.67200 -0.53600
O 	O 	0.57620 0.57420 0.56430 -0.52600
O 	O 	0.94020 0.55160 0.58310 -0.45900
O 	O 	0.79950 0.62720 0.50770 -0.53000
O 	O 	0.63950 0.36870 0.54140 -0.54200
O 	O 	0.86500 0.63260 0.66290 -0.47300
O 	O 	0.87640 0.36130 0.57570 -0.47600
O 	O 	0.77490 0.55580 0.64080 -0.43100
O 	O 	0.78320 0.36450 0.51660 -0.53400
O 	O 	0.90610 0.43900 0.67420 -0.48800
O 	O 	0.93190 0.61080 0.72800 -0.47100
O 	O 	0.82100 0.42930 0.72380 -0.42300
O 	O 	0.68140 0.44420 0.58920 -0.40400
O 	O 	0.70610 0.43600 0.50010 -0.53500
O 	O 	0.72200 0.70440 0.62610 -0.53000
O 	O 	0.76040 0.62730 0.59430 -0.42800
O 	O 	0.74420 0.37350 0.60290 -0.43000
O 	O 	0.68870 0.56000 0.58470 -0.40500
O 	O 	0.03820 0.56450 0.68990 -0.59600
O 	O 	0.91230 0.55520 0.66790 -0.48400
O 	O 	0.71270 0.55900 0.49520 -0.53000
O 	O 	0.71920 0.29840 0.55980 -0.54300
O 	O 	0.91490 0.38260 0.73540 -0.43700
O 	O 	0.84490 0.69330 0.60600 -0.61800
O 	O 	0.74680 0.63560 0.68530 -0.53400
O 	O 	0.82050 0.30370 0.61900 -0.62600
O 	O 	0.61560 0.37400 0.62450 -0.53900
O 	O 	0.79070 0.44290 0.56840 -0.44000
O 	O 	0.98860 0.49280 0.63990 -0.56800
O 	O 	0.65540 0.63380 0.53140 -0.54000
O 	O 	0.74640 0.69970 0.54630 -0.53900
O 	O 	0.76860 0.44660 0.64460 -0.43900
O 	O 	0.63230 0.63910 0.61460 -0.53400
O 	O 	0.82790 0.57490 0.71740 -0.42700
O 	O 	0.89190 0.62780 0.56760 -0.47500
O 	O 	0.93350 0.43410 0.58620 -0.46200
O 	O 	0.69610 0.30240 0.64040 -0.54100
O 	O 	0.56850 0.43670 0.56980 -0.52200
O 	O 	0.73060 0.37270 0.69360 -0.53100
O 	O 	0.84710 0.36500 0.67200 -0.47300
O 	O 	0.65260 0.44510 0.67780 -0.53800
O 	O 	0.97280 0.37310 0.53710 -0.27500
O 	O 	0.03350 0.42370 0.69450 -0.65300
O 	O 	0.89130 0.56550 0.51080 -0.40000
O 	O 	0.96770 0.36450 0.64040 -0.54600
O 	O 	0.98980 0.60450 0.53310 -0.26200
Mo	Mo	0.18088 0.67144 0.95537 1.14200
Mo	Mo	0.20091 0.55848 0.00636 1.15800
Mo	Mo	0.26396 0.56937 0.79647 1.15900
Mo	Mo	0.39610 0.57148 0.87531 1.15100
Mo	Mo	0.99614 0.55618 0.86119 1.19500
Mo	Mo	0.20470 0.32171 0.94348 1.13900
Mo	Mo	0.23588 0.32678 0.83431 1.14200
Mo	Mo	0.00102 0.42677 0.85657 1.14100
Mo	Mo	0.21355 0.67689 0.84577 1.13500
Mo	Mo	0.40414 0.44270 0.87006 1.15000
Mo	Mo	0.06662 0.67291 0.87811 1.03400
Mo	Mo	0.20872 0.43069 0.00301 1.15800
Mo	Mo	0.27178 0.44161 0.79187 1.15800
Mo	Mo	0.36510 0.56556 0.98087 1.15100
Mo	Mo	0.08917 0.31669 0.86693 1.03100
Mo	Mo	0.32855 0.67248 0.92463 1.14700
Mo	Mo	0.37219 0.43680 0.97633 1.15000
Mo	Mo	0.35157 0.33339 0.91184 1.14500
Sr	Sr	0.13825 0.49659 0.88273 1.53600
P 	P 	0.25390 0.42783 0.89894 0.52200
P 	P 	0.24491 0.57286 0.90426 0.51200
P 	P 	0.11584 0.59321 0.80540 0.53200
P 	P 	0.08410 0.39794 0.94663 0.53200
P 	P 	0.12830 0.40588 0.79923 0.53200
P 	P 	0.07140 0.58706 0.95223 0.52900
O 	O 	0.40600 0.50750 0.87410 -0.54100
O 	O 	0.26200 0.50540 0.78950 -0.55100
O 	O 	0.19680 0.49430 0.00580 -0.54700
O 	O 	0.11790 0.42000 0.98520 -0.41300
O 	O 	0.01690 0.62220 0.86840 -0.56200
O 	O 	0.20210 0.55230 0.93600 -0.43800
O 	O 	0.37460 0.50150 0.97870 -0.53600
O 	O 	0.34050 0.56930 0.82800 -0.53700
O 	O 	0.42380 0.57420 0.93570 -0.52600
O 	O 	0.05980 0.55160 0.91690 -0.48000
O 	O 	0.20050 0.62720 0.99230 -0.53600
O 	O 	0.36050 0.36870 0.95860 -0.54300
O 	O 	0.13500 0.63260 0.83710 -0.47800
O 	O 	0.12360 0.36130 0.92430 -0.47900
O 	O 	0.22510 0.55580 0.85920 -0.43000
O 	O 	0.21680 0.36450 0.98340 -0.53800
O 	O 	0.09390 0.43900 0.82580 -0.49800
O 	O 	0.06810 0.61080 0.77200 -0.50300
O 	O 	0.17900 0.42930 0.77620 -0.42800
O 	O 	0.31860 0.44420 0.91080 -0.40400
O 	O 	0.29390 0.43600 0.99990 -0.53600
O 	O 	0.27800 0.70440 0.87390 -0.53400
O 	O 	0.23960 0.62730 0.90570 -0.42700
O 	O 	0.25580 0.37350 0.89710 -0.42900
O 	O 	0.31130 0.56000 0.91530 -0.40500
O 	O 	0.96180 0.56450 0.81010 -0.55000
O 	O 	0.08770 0.55520 0.83210 -0.50400
O 	O 	0.28730 0.55900 0.00480 -0.53200
O 	O 	0.28080 0.29840 0.94020 -0.54500
O 	O 	0.08510 0.38260 0.76460 -0.46300
O 	O 	0.15510 0.69330 0.89400 -0.62700
O 	O 	0.25320 0.63560 0.81470 -0.53600
O 	O 	0.17950 0.30370 0.88100 -0.63300
O 	O 	0.38440 0.37400 0.87550 -0.53900
O 	O 	0.20930 0.44290 0.93160 -0.43900
O 	O 	0.01140 0.49280 0.86010 -0.61700
O 	O 	0.34460 0.63380 0.96860 -0.54100
O 	O 	0.25360 0.69970 0.95370 -0.54300
O 	O 	0.23140 0.44660 0.85540 -0.43800
O 	O 	0.36770 0.63910 0.88540 -0.53400
O 	O 	0.17210 0.57490 0.78260 -0.43200
O 	O 	0.10810 0.62780 0.93240 -0.48100
O 	O 	0.06650 0.43410 0.91380 -0.47100
O 	O 	0.30390 0.30240 0.85960 -0.54300
O 	O 	0.43150 0.43670 0.93020 -0.52100
O 	O 	0.26940 0.37270 0.80640 -0.53300
O 	O 	0.15290 0.36500 0.82800 -0.47600
O 	O 	0.34740 0.44510 0.82220 -0.53800
O 	O 	0.02720 0.37310 0.96290 -0.31800
O 	O 	0.96650 0.42370 0.80550 -0.58500
O 	O 	0.10870 0.56550 0.98920 -0.41600
O 	O 	0.03230 0.36450 0.85960 -0.57300
O 	O 	0.01020 0.60450 0.96690 -0.31100
Zn	Zn	-0.00000 0.41603 0.75000 1.19200
Zn	Zn	0.00000 0.57263 0.75000 1.19200
Mo	Mo	0.31912 0.17144 0.54463 1.14400
Mo	Mo	0.29909 0.05848 0.49364 1.16000
Mo	Mo	0.23604 0.06937 0.70353 1.15800
Mo	Mo	0.10390 0.07148 0.62469 1.14700
Mo	Mo	0.50386 0.05618 0.63881 1.16300
Mo	Mo	0.29530 0.82171 0.55652 1.14000
Mo	Mo	0.26412 0.82678 0.66569 1.14200
Mo	Mo	0.49898 0.92677 0.64343 1.15800
Mo	Mo	0.28645 0.17689 0.65423 1.13500
Mo	Mo	0.09586 0.94270 0.62994 1.14600
Mo	Mo	0.43338 0.17291 0.62189 1.04000
Mo	Mo	0.29128 0.93069 0.49699 1.16000
Mo	Mo	0.22822 0.94161 0.70813 1.15600
Mo	Mo	0.13490 0.06556 0.51913 1.14800
Mo	Mo	0.41083 0.81669 0.63307 1.03600
Mo	Mo	0.17145 0.17248 0.57537 1.14500
Mo	Mo	0.12781 0.93680 0.52367 1.14700
Mo	Mo	0.14843 0.83339 0.58816 1.14200
Sr	Sr	0.36175 0.99659 0.61727 1.53600
P 	P 	0.24610 0.92783 0.60106 0.52200
P 	P 	0.25509 0.07286 0.59574 0.51200
P 	P 	0.38416 0.09321 0.69460 0.53200
P 	P 	0.41590 0.89794 0.55337 0.53200
P 	P 	0.37170 0.90588 0.70077 0.53200
P 	P 	0.42860 0.08706 0.54777 0.52900
O 	O 	0.09400 0.00750 0.62590 -0.54700
O 	O 	0.23800 0.00540 0.71050 -0.55200
O 	O 	0.30320 0.99430 0.49420 -0.54500
O 	O 	0.38210 0.92000 0.51480 -0.40600
O 	O 	0.48310 0.12220 0.63160 -0.54000
O 	O 	0.29790 0.05230 0.56400 -0.43800
O 	O 	0.12540 0.00150 0.52130 -0.54200
O 	O 	0.15950 0.06930 0.67200 -0.54100
O 	O 	0.07620 0.07420 0.56430 -0.53700
O 	O 	0.44020 0.05160 0.58310 -0.47000
O 	O 	0.29950 0.12720 0.50770 -0.53400
O 	O 	0.13950 0.86870 0.54140 -0.54800
O 	O 	0.36500 0.13260 0.66290 -0.47600
O 	O 	0.37640 0.86130 0.57570 -0.47800
O 	O 	0.27490 0.05580 0.64080 -0.43000
O 	O 	0.28320 0.86450 0.51660 -0.53800
O 	O 	0.40610 0.93900 0.67420 -0.49400
O 	O 	0.43190 0.11080 0.72800 -0.49100
O 	O 	0.32100 0.92930 0.72380 -0.42700
O 	O 	0.18140 0.94420 0.58920 -0.40300
O 	O 	0.20610 0.93600 0.50010 -0.53800
O 	O 	0.22200 0.20440 0.62610 -0.53600
O 	O 	0.26040 0.12730 0.59430 -0.42700
O 	O 	0.24420 0.87350 0.60290 -0.42900
O 	O 	0.18870 0.06000 0.58470 -0.40400
O 	O 	0.53820 0.06450 0.68990 -0.57500
O 	O 	0.41230 0.05520 0.66790 -0.49500
O 	O 	0.21270 0.05900 0.49520 -0.53400
O 	O 	0.21920 0.79840 0.55980 -0.54700
O 	O 	0.41490 0.88260 0.73540 -0.45300
O 	O 	0.34490 0.19330 0.60600 -0.62300
O 	O 	0.24680 0.13560 0.68530 -0.53700
O 	O 	0.32050 0.80370 0.61900 -0.63100
O 	O 	0.11560 0.87400 0.62450 -0.54500
O 	O 	0.29070 0.94290 0.56840 -0.43900
O 	O 	0.48860 0.99280 0.63990 -0.59300
O 	O 	0.15540 0.13380 0.53140 -0.54600
O 	O 	0.24640 0.19970 0.54630 -0.54300
O 	O 	0.26860 0.94660 0.64460 -0.43800
O 	O 	0.13230 0.13910 0.61460 -0.54000
O 	O 	0.32790 0.07490 0.71740 -0.43100
O 	O 	0.39190 0.12780 0.56760 -0.47800
O 	O 	0.43350 0.93410 0.58620 -0.46700
O 	O 	0.19610 0.80240 0.64040 -0.54700
O 	O 	0.06850 0.93670 0.56980 -0.53200
O 	O 	0.23060 0.87270 0.69360 -0.53500
O 	O 	0.34710 0.86500 0.67200 -0.47500
O 	O 	0.15260 0.94510 0.67780 -0.54300
O 	O 	0.47280 0.87310 0.53710 -0.29600
O 	O 	0.53350 0.92370 0.69450 -0.62200
O 	O 	0.39130 0.06550 0.51080 -0.40900
O 	O 	0.46770 0.86450 0.64040 -0.56000
O 	O 	0.48980 0.10450 0.53310 -0.28700
Mo	Mo	0.68088 0.17144 0.95537 1.14400
Mo	Mo	0.70091 0.05848 0.00636 1.16000
Mo	Mo	0.76396 0.06937 0.79647 1.16100
Mo	Mo	0.89610 0.07148 0.87531 1.15400
Mo	Mo	0.49614 0.05618 0.86119 1.16300
Mo	Mo	0.70470 0.82171 0.94348 1.14100
Mo	Mo	0.73588 0.82678 0.83431 1.14300
Mo	Mo	0.50102 0.92677 0.85657 1.15700
Mo	Mo	0.71355 0.17689 0.84577 1.13600
Mo	Mo	0.90414 0.94270 0.87006 1.15400
Mo	Mo	0.56662 0.17291 0.87811 1.04100
Mo	Mo	0.70872 0.93069 0.00301 1.16200
Mo	Mo	0.77178 0.94161 0.79187 1.16000
Mo	Mo	0.86510 0.06556 0.98087 1.15500
Mo	Mo	0.58917 0.81669 0.86693 1.03600
Mo	Mo	0.82855 0.17248 0.92463 1.15000
Mo	Mo	0.87219 0.93680 0.97633 1.15400
Mo	Mo	0.85157 0.83339 0.91184 1.14900
Sr	Sr	0.63825 0.99659 0.88273 1.53600
P 	P 	0.75390 0.92783 0.89894 0.52200
P 	P 	0.74491 0.07286 0.90426 0.51200
P 	P 	0.61584 0.09321 0.80540 0.53200
P 	P 	0.58410 0.89794 0.94663 0.53200
P 	P 	0.62830 0.90588 0.79923 0.53200
P 	P 	0.57140 0.08706 0.95223 0.52900
O 	O 	0.90600 0.00750 0.87410 -0.53400
O 	O 	0.76200 0.00540 0.78950 -0.54800
O 	O 	0.69680 0.99430 0.00580 -0.54200
O 	O 	0.61790 0.92000 0.98520 -0.40500
O 	O 	0.51690 0.12220 0.86840 -0.54000
O 	O 	0.70210 0.05230 0.93600 -0.43800
O 	O 	0.87460 0.00150 0.97870 -0.53000
O 	O 	0.84050 0.06930 0.82800 -0.53200
O 	O 	0.92380 0.07420 0.93570 -0.51500
O 	O 	0.55980 0.05160 0.91690 -0.47000
O 	O 	0.70050 0.12720 0.99230 -0.53200
O 	O 	0.86050 0.86870 0.95860 -0.53700
O 	O 	0.63500 0.13260 0.83710 -0.47500
O 	O 	0.62360 0.86130 0.92430 -0.47800
O 	O 	0.72510 0.05580 0.85920 -0.43100
O 	O 	0.71680 0.86450 0.98340 -0.53500
O 	O 	0.59390 0.93900 0.82580 -0.49400
O 	O 	0.56810 0.11080 0.77200 -0.49000
O 	O 	0.67900 0.92930 0.77620 -0.42500
O 	O 	0.81860 0.94420 0.91080 -0.40500
O 	O 	0.79390 0.93600 0.99990 -0.53300
O 	O 	0.77800 0.20440 0.87390 -0.52800
O 	O 	0.73960 0.12730 0.90570 -0.42800
O 	O 	0.75580 0.87350 0.89710 -0.43000
O 	O 	0.81130 0.06000 0.91530 -0.40600
O 	O 	0.46180 0.06450 0.81010 -0.57600
O 	O 	0.58770 0.05520 0.83210 -0.49500
O 	O 	0.78730 0.05900 0.00480 -0.52800
O 	O 	0.78080 0.79840 0.94020 -0.54100
O 	O 	0.58510 0.88260 0.76460 -0.45200
O 	O 	0.65510 0.19330 0.89400 -0.62200
O 	O 	0.75320 0.13560 0.81470 -0.53200
O 	O 	0.67950 0.80370 0.88100 -0.62900
O 	O 	0.88440 0.87400 0.87550 -0.53200
O 	O 	0.70930 0.94290 0.93160 -0.44000
O 	O 	0.51140 0.99280 0.86010 -0.59400
O 	O 	0.84460 0.13380 0.96860 -0.53500
O 	O 	0.75360 0.19970 0.95370 -0.53900
O 	O 	0.73140 0.94660 0.85540 -0.43900
O 	O 	0.86770 0.13910 0.88540 -0.52700
O 	O 	0.67210 0.07490 0.78260 -0.42900
O 	O 	0.60810 0.12780 0.93240 -0.47800
O 	O 	0.56650 0.93410 0.91380 -0.46700
O 	O 	0.80390 0.80240 0.85960 -0.53700
O 	O 	0.93150 0.93670 0.93020 -0.51100
O 	O 	0.76940 0.87270 0.80640 -0.52900
O 	O 	0.65290 0.86500 0.82800 -0.47400
O 	O 	0.84740 0.94510 0.82220 -0.53300
O 	O 	0.52720 0.87310 0.96290 -0.29700
O 	O 	0.46650 0.92370 0.80550 -0.62300
O 	O 	0.60870 0.06550 0.98920 -0.40800
O 	O 	0.53230 0.86450 0.85960 -0.56000
O 	O 	0.51020 0.10450 0.96690 -0.28700
Zn	Zn	0.50000 0.91603 0.75000 1.20600
Zn	Zn	0.50000 0.07263 0.75000 1.20600
