data_crystal

_cell_length_a 47.62390
_cell_length_b 16.63790
_cell_length_c 36.14890
_cell_angle_alpha 90.00000
_cell_angle_beta  127.43800
_cell_angle_gamma 90.00000

_symmetry_space_group_name_	'P 1'
_symmetry_space_group_name_H-M	'P 1'

loop_
_symmetry_equiv_pos_as_xyz
  x,y,z

loop_
_atom_site_label
_atom_site_type_symbol
_atom_site_fract_x
_atom_site_fract_y
_atom_site_fract_z
_atom_site_charge
Ag	Ag	0.10250 0.25128 0.22916 0.42500
Ag	Ag	0.00853 0.37363 0.21414 0.35200
Ag	Ag	0.98223 0.22626 0.15958 0.37200
Ag	Ag	0.01763 0.09134 0.22316 0.35100
Ag	Ag	0.06414 0.15408 0.31606 0.37900
Ag	Ag	0.05998 0.32992 0.31309 0.37000
Au	Au	0.08121 0.38767 0.25879 0.08300
Au	Au	0.03311 0.32544 0.16367 0.08200
Au	Au	0.03887 0.15191 0.16927 0.08100
Au	Au	0.09146 0.10806 0.26600 0.07800
Au	Au	0.11491 0.25157 0.32085 0.08500
Au	Au	0.05158 0.24092 0.23947 -0.13000
C 	C 	0.07520 0.59480 0.25699 -0.02900
C 	C 	0.03939 0.57670 0.23070 -0.02100
H 	H 	0.03170 0.52430 0.22090 -0.00500
C 	C 	0.01511 0.63700 0.21920 -0.06100
H 	H 	0.99120 0.62490 0.20170 0.06800
C 	C 	0.02660 0.71540 0.23400 -0.02800
H 	H 	0.01040 0.75580 0.22630 0.03500
C 	C 	0.06240 0.73360 0.26020 -0.04500
H 	H 	0.07020 0.78600 0.27010 0.04400
C 	C 	0.08673 0.67330 0.27170 -0.04200
H 	H 	0.11070 0.68540 0.28930 0.04600
C 	C 	0.12131 0.53150 0.24010 -0.02700
C 	C 	0.12673 0.60860 0.23080 -0.04500
H 	H 	0.12170 0.65300 0.24150 0.04800
C 	C 	0.13960 0.61930 0.20540 -0.03900
H 	H 	0.14320 0.67090 0.19920 0.04300
C 	C 	0.14700 0.55300 0.18940 -0.03300
H 	H 	0.15570 0.56020 0.17240 0.04000
C 	C 	0.14160 0.47580 0.19870 -0.04800
H 	H 	0.14660 0.43140 0.18790 0.06200
C 	C 	0.12880 0.46510 0.22400 -0.03700
H 	H 	0.12510 0.41350 0.23030 0.00800
C 	C 	0.14024 0.53210 0.33150 0.00100
C 	C 	0.13160 0.55560 0.36037 -0.09300
H 	H 	0.10800 0.55710 0.34890 0.07100
C 	C 	0.15810 0.57690 0.40636 0.00200
H 	H 	0.15240 0.59260 0.42570 0.02900
C 	C 	0.19330 0.57460 0.42349 -0.07700
H 	H 	0.21110 0.58890 0.45430 0.05300
C 	C 	0.20199 0.55110 0.39460 -0.00200
H 	H 	0.22550 0.54960 0.40610 0.03000
C 	C 	0.17544 0.52990 0.34870 -0.08300
H 	H 	0.18120 0.51410 0.32940 0.06000
C 	C 	0.03000 0.49860 0.10800 -0.00300
C 	C 	0.05020 0.53240 0.09620 -0.07400
H 	H 	0.06010 0.49970 0.08600 0.05700
C 	C 	0.05570 0.61500 0.09950 -0.01100
H 	H 	0.06920 0.63760 0.09160 0.03100
C 	C 	0.04090 0.66380 0.11480 -0.06900
H 	H 	0.04450 0.71910 0.11700 0.05000
C 	C 	0.02060 0.63000 0.12660 -0.00700
H 	H 	0.01070 0.66270 0.13680 0.03500
C 	C 	0.01520 0.54740 0.12330 -0.08100
H 	H 	0.00160 0.52480 0.13120 0.05300
C 	C 	0.97250 0.40350 0.05320 -0.02500
C 	C 	0.96010 0.45570 0.01620 -0.04600
H 	H 	0.97590 0.48540 0.01480 0.04700
C 	C 	0.92390 0.46350 0.98130 -0.04200
H 	H 	0.91560 0.49840 0.95650 0.04400
C 	C 	0.90020 0.41910 0.98340 -0.03100
H 	H 	0.87600 0.42430 0.96010 0.03700
C 	C 	0.91270 0.36680 0.02050 -0.05200
H 	H 	0.89680 0.33710 0.02190 0.07000
C 	C 	0.94880 0.35910 0.05530 -0.02600
H 	H 	0.95720 0.32410 0.08010 0.01000
C 	C 	0.03750 0.35570 0.07510 -0.02300
C 	C 	0.02210 0.35710 0.02790 -0.05300
H 	H 	0.99940 0.37740 0.00660 0.05000
C 	C 	0.04070 0.32810 0.01240 -0.03600
H 	H 	0.03040 0.32910 0.98080 0.04400
C 	C 	0.07470 0.29780 0.04420 -0.04400
H 	H 	0.08710 0.27840 0.03380 0.04300
C 	C 	0.09010 0.29640 0.09140 -0.03900
H 	H 	0.11280 0.27610 0.11260 0.05700
C 	C 	0.07150 0.32530 0.10690 -0.05200
H 	H 	0.08180 0.32440 0.13850 0.02100
C 	C 	0.05990 0.06420 0.10510 -0.02900
C 	C 	0.05740 0.01320 0.07280 -0.04400
H 	H 	0.03670 0.98450 0.05200 0.04600
C 	C 	0.08590 0.00500 0.07170 -0.04500
H 	H 	0.08430 0.97090 0.05000 0.04800
C 	C 	0.11690 0.04790 0.10280 -0.03000
H 	H 	0.13600 0.04240 0.10200 0.03900
C 	C 	0.11940 0.09890 0.13510 -0.05500
H 	H 	0.14010 0.12750 0.15600 0.06500
C 	C 	0.09090 0.10700 0.13630 -0.03000
H 	H 	0.09250 0.14110 0.15790 0.00600
C 	C 	0.99357 0.13120 0.05290 -0.00900
C 	C 	0.99850 0.15550 0.02040 -0.07500
H 	H 	0.02000 0.14650 0.02590 0.05800
C 	C 	0.97120 0.19330 0.97950 -0.01400
H 	H 	0.97440 0.20960 0.95780 0.03300
C 	C 	0.93900 0.20690 0.97120 -0.06600
H 	H 	0.92070 0.23220 0.94390 0.05000
C 	C 	0.93410 0.18260 0.00370 -0.01100
H 	H 	0.91250 0.19160 0.99820 0.04200
C 	C 	0.96140 0.14480 0.04460 -0.08300
H 	H 	0.95810 0.12850 0.06630 0.04900
C 	C 	0.00459 0.98400 0.09970 -0.01800
C 	C 	0.98450 0.94720 0.05620 -0.05300
H 	H 	0.98210 0.97150 0.03130 0.04900
C 	C 	0.96790 0.87420 0.05010 -0.03000
H 	H 	0.95450 0.84960 0.02100 0.03900
C 	C 	0.97150 0.83800 0.08740 -0.04400
H 	H 	0.96050 0.78920 0.08320 0.04500
C 	C 	0.99160 0.87480 0.13080 -0.03200
H 	H 	0.99400 0.85060 0.15580 0.04100
C 	C 	0.00820 0.94780 0.13700 -0.03500
H 	H 	0.02160 0.97250 0.16610 0.00100
C 	C 	0.12930 0.92830 0.32610 -0.02200
C 	C 	0.14790 0.85660 0.33770 -0.05500
H 	H 	0.15990 0.84480 0.32560 0.04900
C 	C 	0.14850 0.80240 0.36750 -0.03700
H 	H 	0.16090 0.75450 0.37530 0.04300
C 	C 	0.13050 0.82010 0.38560 -0.03900
H 	H 	0.13090 0.78380 0.40550 0.04300
C 	C 	0.11190 0.89180 0.37400 -0.04400
H 	H 	0.09980 0.90360 0.38610 0.06400
C 	C 	0.11130 0.94590 0.34420 -0.04400
H 	H 	0.09890 0.99390 0.33640 0.01600
C 	C 	0.17331 0.03690 0.31996 -0.02000
C 	C 	0.20264 0.99400 0.35558 -0.05400
H 	H 	0.19970 0.94890 0.36810 0.05100
C 	C 	0.23643 0.01840 0.37250 -0.03000
H 	H 	0.25610 0.98970 0.39630 0.03700
C 	C 	0.24089 0.08570 0.35380 -0.04500
H 	H 	0.26350 0.10200 0.36510 0.04300
C 	C 	0.21156 0.12860 0.31816 -0.03600
H 	H 	0.21450 0.17370 0.30560 0.05800
C 	C 	0.17777 0.10420 0.30125 -0.05200
H 	H 	0.15810 0.13290 0.27740 0.01900
C 	C 	0.11971 0.94360 0.24079 -0.00800
C 	C 	0.09118 0.89130 0.22080 -0.07700
H 	H 	0.07810 0.88900 0.23210 0.03900
C 	C 	0.08220 0.84230 0.18390 -0.01400
H 	H 	0.06310 0.80730 0.17050 0.03300
C 	C 	0.10170 0.84560 0.16690 -0.06500
H 	H 	0.09560 0.81290 0.14220 0.04900
C 	C 	0.13020 0.89790 0.18693 -0.01100
H 	H 	0.14320 0.90020 0.17560 0.03400
C 	C 	0.13920 0.94690 0.22385 -0.07500
H 	H 	0.15830 0.98190 0.23720 0.05900
C 	C 	0.18382 0.16260 0.41640 -0.00900
C 	C 	0.21786 0.13810 0.43451 -0.07000
H 	H 	0.23190 0.17010 0.43050 0.05600
C 	C 	0.23099 0.06590 0.45860 -0.01600
H 	H 	0.25380 0.04950 0.47070 0.03500
C 	C 	0.21008 0.01810 0.46458 -0.06500
H 	H 	0.21890 0.96980 0.48070 0.04900
C 	C 	0.17604 0.04260 0.44648 -0.01200
H 	H 	0.16200 0.01060 0.45050 0.03900
C 	C 	0.16291 0.11480 0.42239 -0.07900
H 	H 	0.14010 0.13120 0.41030 0.04900
C 	C 	0.16903 0.31490 0.43488 -0.01000
C 	C 	0.19117 0.29540 0.48196 -0.05300
H 	H 	0.20660 0.25220 0.49230 0.05200
C 	C 	0.19021 0.34050 0.51350 -0.02800
H 	H 	0.20500 0.32750 0.54500 0.03900
C 	C 	0.16711 0.40520 0.49800 -0.04400
H 	H 	0.16650 0.43540 0.51920 0.04200
C 	C 	0.14496 0.42470 0.45090 -0.03200
H 	H 	0.12950 0.46800 0.44060 0.05100
C 	C 	0.14593 0.37960 0.41940 -0.04000
H 	H 	0.13110 0.39270 0.38790 0.01500
C 	C 	0.19952 0.30620 0.38892 -0.02700
C 	C 	0.23056 0.33720 0.42860 -0.04900
H 	H 	0.23450 0.33490 0.45710 0.05000
C 	C 	0.25568 0.37190 0.42560 -0.04000
H 	H 	0.27650 0.39270 0.45220 0.04600
C 	C 	0.24977 0.37550 0.38300 -0.03600
H 	H 	0.26660 0.39870 0.38100 0.04100
C 	C 	0.21873 0.34440 0.34330 -0.05000
H 	H 	0.21480 0.34680 0.31480 0.05900
C 	C 	0.19360 0.30970 0.34627 -0.03900
H 	H 	0.17280 0.28890 0.31970 0.00800
Cl	Cl	0.14701 0.26050 0.22059 -0.46800
Cl	Cl	0.95720 0.45940 0.17028 -0.56400
Cl	Cl	0.91994 0.23740 0.10592 -0.55900
Cl	Cl	0.04589 0.04000 0.34180 -0.56800
P 	P 	0.10430 0.51410 0.27136 0.02100
P 	P 	0.01797 0.39640 0.09922 0.02100
P 	P 	0.02498 0.07970 0.10646 0.02100
P 	P 	0.12908 0.00330 0.28930 0.01100
P 	P 	0.16790 0.25890 0.39164 0.02100
Ag	Ag	0.89750 0.25128 0.27084 0.42600
Ag	Ag	0.99147 0.37363 0.28586 0.35300
Ag	Ag	0.01777 0.22626 0.34042 0.37300
Ag	Ag	0.98237 0.09134 0.27684 0.35200
Ag	Ag	0.93586 0.15408 0.18394 0.38000
Ag	Ag	0.94002 0.32992 0.18691 0.37100
Au	Au	0.91879 0.38767 0.24121 0.08400
Au	Au	0.96689 0.32544 0.33633 0.08300
Au	Au	0.96113 0.15191 0.33073 0.08200
Au	Au	0.90854 0.10806 0.23400 0.07900
Au	Au	0.88509 0.25157 0.17915 0.08600
Au	Au	0.94842 0.24092 0.26053 -0.12900
C 	C 	0.92480 0.59480 0.24301 -0.03000
C 	C 	0.96061 0.57670 0.26930 -0.01700
H 	H 	0.96830 0.52430 0.27910 -0.00500
C 	C 	0.98489 0.63700 0.28080 -0.06500
H 	H 	0.00880 0.62490 0.29830 0.07200
C 	C 	0.97340 0.71540 0.26600 -0.02400
H 	H 	0.98960 0.75580 0.27370 0.03300
C 	C 	0.93760 0.73360 0.23980 -0.04800
H 	H 	0.92980 0.78600 0.22990 0.04400
C 	C 	0.91327 0.67330 0.22830 -0.04000
H 	H 	0.88930 0.68540 0.21070 0.04600
C 	C 	0.87869 0.53150 0.25990 -0.02700
C 	C 	0.87327 0.60860 0.26920 -0.04400
H 	H 	0.87830 0.65300 0.25850 0.04800
C 	C 	0.86040 0.61930 0.29460 -0.03900
H 	H 	0.85680 0.67090 0.30080 0.04300
C 	C 	0.85300 0.55300 0.31060 -0.03300
H 	H 	0.84430 0.56020 0.32760 0.04000
C 	C 	0.85840 0.47580 0.30130 -0.04900
H 	H 	0.85340 0.43140 0.31210 0.06200
C 	C 	0.87120 0.46510 0.27600 -0.03700
H 	H 	0.87490 0.41350 0.26970 0.00800
C 	C 	0.85976 0.53210 0.16850 0.00100
C 	C 	0.86840 0.55560 0.13963 -0.09300
H 	H 	0.89200 0.55710 0.15110 0.07100
C 	C 	0.84190 0.57690 0.09364 0.00200
H 	H 	0.84760 0.59260 0.07430 0.02900
C 	C 	0.80670 0.57460 0.07651 -0.07700
H 	H 	0.78890 0.58890 0.04570 0.05300
C 	C 	0.79801 0.55110 0.10540 -0.00200
H 	H 	0.77450 0.54960 0.09390 0.03000
C 	C 	0.82456 0.52990 0.15130 -0.08300
H 	H 	0.81880 0.51410 0.17060 0.06000
C 	C 	0.97000 0.49860 0.39200 -0.00200
C 	C 	0.94980 0.53240 0.40380 -0.07500
H 	H 	0.93990 0.49970 0.41400 0.05700
C 	C 	0.94430 0.61500 0.40050 -0.01100
H 	H 	0.93080 0.63760 0.40840 0.03100
C 	C 	0.95910 0.66380 0.38520 -0.06900
H 	H 	0.95550 0.71910 0.38300 0.05000
C 	C 	0.97940 0.63000 0.37340 -0.00700
H 	H 	0.98930 0.66270 0.36320 0.03500
C 	C 	0.98480 0.54740 0.37670 -0.08200
H 	H 	0.99840 0.52480 0.36880 0.05300
C 	C 	0.02750 0.40350 0.44680 -0.02400
C 	C 	0.03990 0.45570 0.48380 -0.04700
H 	H 	0.02410 0.48540 0.48520 0.04800
C 	C 	0.07610 0.46350 0.51870 -0.04000
H 	H 	0.08440 0.49840 0.54350 0.04300
C 	C 	0.09980 0.41910 0.51660 -0.03100
H 	H 	0.12400 0.42430 0.53990 0.03700
C 	C 	0.08730 0.36680 0.47950 -0.05100
H 	H 	0.10320 0.33710 0.47810 0.07000
C 	C 	0.05120 0.35910 0.44470 -0.02700
H 	H 	0.04280 0.32410 0.41990 0.01100
C 	C 	0.96250 0.35570 0.42490 -0.02100
C 	C 	0.97790 0.35710 0.47210 -0.05800
H 	H 	0.00060 0.37740 0.49340 0.05200
C 	C 	0.95930 0.32810 0.48760 -0.03300
H 	H 	0.96960 0.32910 0.51920 0.04200
C 	C 	0.92530 0.29780 0.45580 -0.04600
H 	H 	0.91290 0.27840 0.46620 0.04400
C 	C 	0.90990 0.29640 0.40860 -0.03600
H 	H 	0.88720 0.27610 0.38740 0.05600
C 	C 	0.92850 0.32530 0.39310 -0.05500
H 	H 	0.91820 0.32440 0.36150 0.02200
C 	C 	0.94010 0.06420 0.39490 -0.02900
C 	C 	0.94260 0.01320 0.42720 -0.04400
H 	H 	0.96330 0.98450 0.44800 0.04500
C 	C 	0.91410 0.00500 0.42830 -0.04500
H 	H 	0.91570 0.97090 0.45000 0.04800
C 	C 	0.88310 0.04790 0.39720 -0.03000
H 	H 	0.86400 0.04240 0.39800 0.03900
C 	C 	0.88060 0.09890 0.36490 -0.05500
H 	H 	0.85990 0.12750 0.34400 0.06500
C 	C 	0.90910 0.10700 0.36370 -0.03000
H 	H 	0.90750 0.14110 0.34210 0.00600
C 	C 	0.00643 0.13120 0.44710 -0.00900
C 	C 	0.00150 0.15550 0.47960 -0.07200
H 	H 	0.98000 0.14650 0.47410 0.05600
C 	C 	0.02880 0.19330 0.52050 -0.01600
H 	H 	0.02560 0.20960 0.54220 0.03400
C 	C 	0.06100 0.20690 0.52880 -0.06300
H 	H 	0.07930 0.23220 0.55610 0.04900
C 	C 	0.06590 0.18260 0.49630 -0.01300
H 	H 	0.08750 0.19160 0.50180 0.04300
C 	C 	0.03860 0.14480 0.45540 -0.08200
H 	H 	0.04190 0.12850 0.43370 0.04900
C 	C 	0.99541 0.98400 0.40030 -0.01900
C 	C 	0.01550 0.94720 0.44380 -0.05200
H 	H 	0.01790 0.97150 0.46870 0.04800
C 	C 	0.03210 0.87420 0.44990 -0.03000
H 	H 	0.04550 0.84960 0.47900 0.03900
C 	C 	0.02850 0.83800 0.41260 -0.04500
H 	H 	0.03950 0.78920 0.41680 0.04500
C 	C 	0.00840 0.87480 0.36920 -0.03000
H 	H 	0.00600 0.85060 0.34420 0.04000
C 	C 	0.99180 0.94780 0.36300 -0.03600
H 	H 	0.97840 0.97250 0.33390 0.00100
C 	C 	0.87070 0.92830 0.17390 -0.02200
C 	C 	0.85210 0.85660 0.16230 -0.05500
H 	H 	0.84010 0.84480 0.17440 0.04900
C 	C 	0.85150 0.80240 0.13250 -0.03700
H 	H 	0.83910 0.75450 0.12470 0.04300
C 	C 	0.86950 0.82010 0.11440 -0.03900
H 	H 	0.86910 0.78380 0.09450 0.04300
C 	C 	0.88810 0.89180 0.12600 -0.04400
H 	H 	0.90020 0.90360 0.11390 0.06400
C 	C 	0.88870 0.94590 0.15580 -0.04400
H 	H 	0.90110 0.99390 0.16360 0.01600
C 	C 	0.82669 0.03690 0.18004 -0.02000
C 	C 	0.79736 0.99400 0.14442 -0.05500
H 	H 	0.80030 0.94890 0.13190 0.05100
C 	C 	0.76357 0.01840 0.12750 -0.03000
H 	H 	0.74390 0.98970 0.10370 0.03700
C 	C 	0.75911 0.08570 0.14620 -0.04600
H 	H 	0.73650 0.10200 0.13490 0.04300
C 	C 	0.78844 0.12860 0.18184 -0.03500
H 	H 	0.78550 0.17370 0.19440 0.05800
C 	C 	0.82223 0.10420 0.19875 -0.05200
H 	H 	0.84190 0.13290 0.22260 0.01900
C 	C 	0.88029 0.94360 0.25921 -0.00800
C 	C 	0.90882 0.89130 0.27920 -0.07700
H 	H 	0.92190 0.88900 0.26790 0.03900
C 	C 	0.91780 0.84230 0.31610 -0.01400
H 	H 	0.93690 0.80730 0.32950 0.03300
C 	C 	0.89830 0.84560 0.33310 -0.06500
H 	H 	0.90440 0.81290 0.35780 0.04900
C 	C 	0.86980 0.89790 0.31307 -0.01100
H 	H 	0.85680 0.90020 0.32440 0.03400
C 	C 	0.86080 0.94690 0.27615 -0.07500
H 	H 	0.84170 0.98190 0.26280 0.05900
C 	C 	0.81618 0.16260 0.08360 -0.01000
C 	C 	0.78214 0.13810 0.06549 -0.06900
H 	H 	0.76810 0.17010 0.06950 0.05600
C 	C 	0.76901 0.06590 0.04140 -0.01600
H 	H 	0.74620 0.04950 0.02930 0.03600
C 	C 	0.78992 0.01810 0.03542 -0.06400
H 	H 	0.78110 0.96980 0.01930 0.04900
C 	C 	0.82396 0.04260 0.05352 -0.01200
H 	H 	0.83800 0.01060 0.04950 0.03900
C 	C 	0.83709 0.11480 0.07761 -0.07900
H 	H 	0.85990 0.13120 0.08970 0.04900
C 	C 	0.83097 0.31490 0.06512 -0.01000
C 	C 	0.80883 0.29540 0.01804 -0.05200
H 	H 	0.79340 0.25220 0.00770 0.05200
C 	C 	0.80979 0.34050 0.98650 -0.02900
H 	H 	0.79500 0.32750 0.95500 0.03900
C 	C 	0.83289 0.40520 0.00200 -0.04200
H 	H 	0.83350 0.43540 0.98080 0.04100
C 	C 	0.85504 0.42470 0.04910 -0.03300
H 	H 	0.87050 0.46800 0.05940 0.05200
C 	C 	0.85407 0.37960 0.08060 -0.03900
H 	H 	0.86890 0.39270 0.11210 0.01500
C 	C 	0.80048 0.30620 0.11108 -0.02700
C 	C 	0.76944 0.33720 0.07140 -0.04900
H 	H 	0.76550 0.33490 0.04290 0.05000
C 	C 	0.74432 0.37190 0.07440 -0.04000
H 	H 	0.72350 0.39270 0.04780 0.04600
C 	C 	0.75023 0.37550 0.11700 -0.03600
H 	H 	0.73340 0.39870 0.11900 0.04100
C 	C 	0.78127 0.34440 0.15670 -0.05000
H 	H 	0.78520 0.34680 0.18520 0.05900
C 	C 	0.80640 0.30970 0.15373 -0.03900
H 	H 	0.82720 0.28890 0.18030 0.00800
Cl	Cl	0.85299 0.26050 0.27941 -0.46800
Cl	Cl	0.04280 0.45940 0.32972 -0.56400
Cl	Cl	0.08006 0.23740 0.39408 -0.55900
Cl	Cl	0.95411 0.04000 0.15820 -0.56900
P 	P 	0.89570 0.51410 0.22864 0.02100
P 	P 	0.98203 0.39640 0.40078 0.02000
P 	P 	0.97502 0.07970 0.39354 0.02100
P 	P 	0.87092 0.00330 0.21070 0.01100
P 	P 	0.83210 0.25890 0.10836 0.02100
Au	Au	0.00000 0.23253 0.25000 -0.18100
Ag	Ag	0.60250 0.75128 0.22916 0.42600
Ag	Ag	0.50853 0.87363 0.21414 0.35300
Ag	Ag	0.48223 0.72626 0.15958 0.37300
Ag	Ag	0.51763 0.59134 0.22316 0.35200
Ag	Ag	0.56414 0.65408 0.31606 0.38000
Ag	Ag	0.55998 0.82992 0.31309 0.37100
Au	Au	0.58121 0.88767 0.25879 0.08400
Au	Au	0.53311 0.82544 0.16367 0.08300
Au	Au	0.53887 0.65191 0.16927 0.08200
Au	Au	0.59146 0.60806 0.26600 0.07900
Au	Au	0.61491 0.75157 0.32085 0.08600
Au	Au	0.55158 0.74092 0.23947 -0.12900
C 	C 	0.57520 0.09480 0.25699 -0.02900
C 	C 	0.53939 0.07670 0.23070 -0.01900
H 	H 	0.53170 0.02430 0.22090 -0.00400
C 	C 	0.51511 0.13700 0.21920 -0.06300
H 	H 	0.49120 0.12490 0.20170 0.07000
C 	C 	0.52660 0.21540 0.23400 -0.02500
H 	H 	0.51040 0.25580 0.22630 0.03400
C 	C 	0.56240 0.23360 0.26020 -0.04600
H 	H 	0.57020 0.28600 0.27010 0.04400
C 	C 	0.58673 0.17330 0.27170 -0.04100
H 	H 	0.61070 0.18540 0.28930 0.04600
C 	C 	0.62131 0.03150 0.24010 -0.02700
C 	C 	0.62673 0.10860 0.23080 -0.04400
H 	H 	0.62170 0.15300 0.24150 0.04800
C 	C 	0.63960 0.11930 0.20540 -0.03900
H 	H 	0.64320 0.17090 0.19920 0.04300
C 	C 	0.64700 0.05300 0.18940 -0.03300
H 	H 	0.65570 0.06020 0.17240 0.04000
C 	C 	0.64160 0.97580 0.19870 -0.04900
H 	H 	0.64660 0.93140 0.18790 0.06300
C 	C 	0.62880 0.96510 0.22400 -0.03700
H 	H 	0.62510 0.91350 0.23030 0.00800
C 	C 	0.64024 0.03210 0.33150 0.00100
C 	C 	0.63160 0.05560 0.36037 -0.09300
H 	H 	0.60800 0.05710 0.34890 0.07100
C 	C 	0.65810 0.07690 0.40636 0.00200
H 	H 	0.65240 0.09260 0.42570 0.02900
C 	C 	0.69330 0.07460 0.42349 -0.07700
H 	H 	0.71110 0.08890 0.45430 0.05300
C 	C 	0.70199 0.05110 0.39460 -0.00200
H 	H 	0.72550 0.04960 0.40610 0.03000
C 	C 	0.67544 0.02990 0.34870 -0.08300
H 	H 	0.68120 0.01410 0.32940 0.06000
C 	C 	0.53000 0.99860 0.10800 -0.00300
C 	C 	0.55020 0.03240 0.09620 -0.07400
H 	H 	0.56010 0.99970 0.08600 0.05700
C 	C 	0.55570 0.11500 0.09950 -0.01200
H 	H 	0.56920 0.13760 0.09160 0.03100
C 	C 	0.54090 0.16380 0.11480 -0.06800
H 	H 	0.54450 0.21910 0.11700 0.05000
C 	C 	0.52060 0.13000 0.12660 -0.00800
H 	H 	0.51070 0.16270 0.13680 0.03500
C 	C 	0.51520 0.04740 0.12330 -0.08100
H 	H 	0.50160 0.02480 0.13120 0.05300
C 	C 	0.47250 0.90350 0.05320 -0.02500
C 	C 	0.46010 0.95570 0.01620 -0.04700
H 	H 	0.47590 0.98540 0.01480 0.04700
C 	C 	0.42390 0.96350 0.98130 -0.04100
H 	H 	0.41560 0.99840 0.95650 0.04300
C 	C 	0.40020 0.91910 0.98340 -0.03000
H 	H 	0.37600 0.92430 0.96010 0.03700
C 	C 	0.41270 0.86680 0.02050 -0.05200
H 	H 	0.39680 0.83710 0.02190 0.07000
C 	C 	0.44880 0.85910 0.05530 -0.02600
H 	H 	0.45720 0.82410 0.08010 0.01100
C 	C 	0.53750 0.85570 0.07510 -0.02200
C 	C 	0.52210 0.85710 0.02790 -0.05500
H 	H 	0.49940 0.87740 0.00660 0.05100
C 	C 	0.54070 0.82810 0.01240 -0.03500
H 	H 	0.53040 0.82910 0.98080 0.04300
C 	C 	0.57470 0.79780 0.04420 -0.04500
H 	H 	0.58710 0.77840 0.03380 0.04400
C 	C 	0.59010 0.79640 0.09140 -0.03800
H 	H 	0.61280 0.77610 0.11260 0.05700
C 	C 	0.57150 0.82530 0.10690 -0.05300
H 	H 	0.58180 0.82440 0.13850 0.02200
C 	C 	0.55990 0.56420 0.10510 -0.02900
C 	C 	0.55740 0.51320 0.07280 -0.04400
H 	H 	0.53670 0.48450 0.05200 0.04600
C 	C 	0.58590 0.50500 0.07170 -0.04500
H 	H 	0.58430 0.47090 0.05000 0.04800
C 	C 	0.61690 0.54790 0.10280 -0.03000
H 	H 	0.63600 0.54240 0.10200 0.04000
C 	C 	0.61940 0.59890 0.13510 -0.05500
H 	H 	0.64010 0.62750 0.15600 0.06500
C 	C 	0.59090 0.60700 0.13630 -0.03000
H 	H 	0.59250 0.64110 0.15790 0.00600
C 	C 	0.49357 0.63120 0.05290 -0.00900
C 	C 	0.49850 0.65550 0.02040 -0.07300
H 	H 	0.52000 0.64650 0.02590 0.05700
C 	C 	0.47120 0.69330 0.97950 -0.01500
H 	H 	0.47440 0.70960 0.95780 0.03400
C 	C 	0.43900 0.70690 0.97120 -0.06400
H 	H 	0.42070 0.73220 0.94390 0.04900
C 	C 	0.43410 0.68260 0.00370 -0.01300
H 	H 	0.41250 0.69160 0.99820 0.04300
C 	C 	0.46140 0.64480 0.04460 -0.08200
H 	H 	0.45810 0.62850 0.06630 0.04900
C 	C 	0.50459 0.48400 0.09970 -0.01800
C 	C 	0.48450 0.44720 0.05620 -0.05300
H 	H 	0.48210 0.47150 0.03130 0.04900
C 	C 	0.46790 0.37420 0.05010 -0.03000
H 	H 	0.45450 0.34960 0.02100 0.03900
C 	C 	0.47150 0.33800 0.08740 -0.04500
H 	H 	0.46050 0.28920 0.08320 0.04500
C 	C 	0.49160 0.37480 0.13080 -0.03100
H 	H 	0.49400 0.35060 0.15580 0.04000
C 	C 	0.50820 0.44780 0.13700 -0.03600
H 	H 	0.52160 0.47250 0.16610 0.00100
C 	C 	0.62930 0.42830 0.32610 -0.02200
C 	C 	0.64790 0.35660 0.33770 -0.05500
H 	H 	0.65990 0.34480 0.32560 0.04900
C 	C 	0.64850 0.30240 0.36750 -0.03700
H 	H 	0.66090 0.25450 0.37530 0.04300
C 	C 	0.63050 0.32010 0.38560 -0.03900
H 	H 	0.63090 0.28380 0.40550 0.04300
C 	C 	0.61190 0.39180 0.37400 -0.04400
H 	H 	0.59980 0.40360 0.38610 0.06400
C 	C 	0.61130 0.44590 0.34420 -0.04400
H 	H 	0.59890 0.49390 0.33640 0.01700
C 	C 	0.67331 0.53690 0.31996 -0.02000
C 	C 	0.70264 0.49400 0.35558 -0.05400
H 	H 	0.69970 0.44890 0.36810 0.05100
C 	C 	0.73643 0.51840 0.37250 -0.03000
H 	H 	0.75610 0.48970 0.39630 0.03700
C 	C 	0.74089 0.58570 0.35380 -0.04500
H 	H 	0.76350 0.60200 0.36510 0.04300
C 	C 	0.71156 0.62860 0.31816 -0.03600
H 	H 	0.71450 0.67370 0.30560 0.05800
C 	C 	0.67777 0.60420 0.30125 -0.05200
H 	H 	0.65810 0.63290 0.27740 0.01900
C 	C 	0.61971 0.44360 0.24079 -0.00800
C 	C 	0.59118 0.39130 0.22080 -0.07700
H 	H 	0.57810 0.38900 0.23210 0.03900
C 	C 	0.58220 0.34230 0.18390 -0.01400
H 	H 	0.56310 0.30730 0.17050 0.03300
C 	C 	0.60170 0.34560 0.16690 -0.06500
H 	H 	0.59560 0.31290 0.14220 0.04900
C 	C 	0.63020 0.39790 0.18693 -0.01100
H 	H 	0.64320 0.40020 0.17560 0.03400
C 	C 	0.63920 0.44690 0.22385 -0.07500
H 	H 	0.65830 0.48190 0.23720 0.05900
C 	C 	0.68382 0.66260 0.41640 -0.00900
C 	C 	0.71786 0.63810 0.43451 -0.06900
H 	H 	0.73190 0.67010 0.43050 0.05600
C 	C 	0.73099 0.56590 0.45860 -0.01600
H 	H 	0.75380 0.54950 0.47070 0.03600
C 	C 	0.71008 0.51810 0.46458 -0.06400
H 	H 	0.71890 0.46980 0.48070 0.04900
C 	C 	0.67604 0.54260 0.44648 -0.01200
H 	H 	0.66200 0.51060 0.45050 0.03900
C 	C 	0.66291 0.61480 0.42239 -0.07900
H 	H 	0.64010 0.63120 0.41030 0.04900
C 	C 	0.66903 0.81490 0.43488 -0.01000
C 	C 	0.69117 0.79540 0.48196 -0.05300
H 	H 	0.70660 0.75220 0.49230 0.05200
C 	C 	0.69021 0.84050 0.51350 -0.02800
H 	H 	0.70500 0.82750 0.54500 0.03900
C 	C 	0.66711 0.90520 0.49800 -0.04400
H 	H 	0.66650 0.93540 0.51920 0.04200
C 	C 	0.64496 0.92470 0.45090 -0.03200
H 	H 	0.62950 0.96800 0.44060 0.05100
C 	C 	0.64593 0.87960 0.41940 -0.04000
H 	H 	0.63110 0.89270 0.38790 0.01500
C 	C 	0.69952 0.80620 0.38892 -0.02700
C 	C 	0.73056 0.83720 0.42860 -0.04900
H 	H 	0.73450 0.83490 0.45710 0.05000
C 	C 	0.75568 0.87190 0.42560 -0.04000
H 	H 	0.77650 0.89270 0.45220 0.04600
C 	C 	0.74977 0.87550 0.38300 -0.03600
H 	H 	0.76660 0.89870 0.38100 0.04100
C 	C 	0.71873 0.84440 0.34330 -0.05000
H 	H 	0.71480 0.84680 0.31480 0.05900
C 	C 	0.69360 0.80970 0.34627 -0.03900
H 	H 	0.67280 0.78890 0.31970 0.00800
Cl	Cl	0.64701 0.76050 0.22059 -0.46800
Cl	Cl	0.45720 0.95940 0.17028 -0.56400
Cl	Cl	0.41994 0.73740 0.10592 -0.55900
Cl	Cl	0.54589 0.54000 0.34180 -0.56900
P 	P 	0.60430 0.01410 0.27136 0.02100
P 	P 	0.51797 0.89640 0.09922 0.02100
P 	P 	0.52498 0.57970 0.10646 0.02100
P 	P 	0.62908 0.50330 0.28930 0.01200
P 	P 	0.66790 0.75890 0.39164 0.02100
Ag	Ag	0.39750 0.75128 0.27084 0.42600
Ag	Ag	0.49147 0.87363 0.28586 0.35300
Ag	Ag	0.51777 0.72626 0.34042 0.37300
Ag	Ag	0.48237 0.59134 0.27684 0.35200
Ag	Ag	0.43586 0.65408 0.18394 0.38000
Ag	Ag	0.44002 0.82992 0.18691 0.37100
Au	Au	0.41879 0.88767 0.24121 0.08400
Au	Au	0.46689 0.82544 0.33633 0.08300
Au	Au	0.46113 0.65191 0.33073 0.08200
Au	Au	0.40854 0.60806 0.23400 0.07900
Au	Au	0.38509 0.75157 0.17915 0.08600
Au	Au	0.44842 0.74092 0.26053 -0.12900
C 	C 	0.42480 0.09480 0.24301 -0.02900
C 	C 	0.46061 0.07670 0.26930 -0.01800
H 	H 	0.46830 0.02430 0.27910 -0.00500
C 	C 	0.48489 0.13700 0.28080 -0.06300
H 	H 	0.50880 0.12490 0.29830 0.07000
C 	C 	0.47340 0.21540 0.26600 -0.02500
H 	H 	0.48960 0.25580 0.27370 0.03400
C 	C 	0.43760 0.23360 0.23980 -0.04600
H 	H 	0.42980 0.28600 0.22990 0.04400
C 	C 	0.41327 0.17330 0.22830 -0.04100
H 	H 	0.38930 0.18540 0.21070 0.04600
C 	C 	0.37869 0.03150 0.25990 -0.02700
C 	C 	0.37327 0.10860 0.26920 -0.04400
H 	H 	0.37830 0.15300 0.25850 0.04800
C 	C 	0.36040 0.11930 0.29460 -0.03900
H 	H 	0.35680 0.17090 0.30080 0.04300
C 	C 	0.35300 0.05300 0.31060 -0.03300
H 	H 	0.34430 0.06020 0.32760 0.04000
C 	C 	0.35840 0.97580 0.30130 -0.04900
H 	H 	0.35340 0.93140 0.31210 0.06200
C 	C 	0.37120 0.96510 0.27600 -0.03800
H 	H 	0.37490 0.91350 0.26970 0.00800
C 	C 	0.35976 0.03210 0.16850 0.00100
C 	C 	0.36840 0.05560 0.13963 -0.09300
H 	H 	0.39200 0.05710 0.15110 0.07100
C 	C 	0.34190 0.07690 0.09364 0.00200
H 	H 	0.34760 0.09260 0.07430 0.02900
C 	C 	0.30670 0.07460 0.07651 -0.07700
H 	H 	0.28890 0.08890 0.04570 0.05300
C 	C 	0.29801 0.05110 0.10540 -0.00200
H 	H 	0.27450 0.04960 0.09390 0.03000
C 	C 	0.32456 0.02990 0.15130 -0.08300
H 	H 	0.31880 0.01410 0.17060 0.06000
C 	C 	0.47000 0.99860 0.39200 -0.00300
C 	C 	0.44980 0.03240 0.40380 -0.07400
H 	H 	0.43990 0.99970 0.41400 0.05700
C 	C 	0.44430 0.11500 0.40050 -0.01100
H 	H 	0.43080 0.13760 0.40840 0.03100
C 	C 	0.45910 0.16380 0.38520 -0.06900
H 	H 	0.45550 0.21910 0.38300 0.05000
C 	C 	0.47940 0.13000 0.37340 -0.00800
H 	H 	0.48930 0.16270 0.36320 0.03500
C 	C 	0.48480 0.04740 0.37670 -0.08100
H 	H 	0.49840 0.02480 0.36880 0.05300
C 	C 	0.52750 0.90350 0.44680 -0.02500
C 	C 	0.53990 0.95570 0.48380 -0.04600
H 	H 	0.52410 0.98540 0.48520 0.04700
C 	C 	0.57610 0.96350 0.51870 -0.04100
H 	H 	0.58440 0.99840 0.54350 0.04300
C 	C 	0.59980 0.91910 0.51660 -0.03100
H 	H 	0.62400 0.92430 0.53990 0.03700
C 	C 	0.58730 0.86680 0.47950 -0.05200
H 	H 	0.60320 0.83710 0.47810 0.07000
C 	C 	0.55120 0.85910 0.44470 -0.02600
H 	H 	0.54280 0.82410 0.41990 0.01100
C 	C 	0.46250 0.85570 0.42490 -0.02200
C 	C 	0.47790 0.85710 0.47210 -0.05500
H 	H 	0.50060 0.87740 0.49340 0.05100
C 	C 	0.45930 0.82810 0.48760 -0.03400
H 	H 	0.46960 0.82910 0.51920 0.04300
C 	C 	0.42530 0.79780 0.45580 -0.04500
H 	H 	0.41290 0.77840 0.46620 0.04400
C 	C 	0.40990 0.79640 0.40860 -0.03700
H 	H 	0.38720 0.77610 0.38740 0.05700
C 	C 	0.42850 0.82530 0.39310 -0.05300
H 	H 	0.41820 0.82440 0.36150 0.02200
C 	C 	0.44010 0.56420 0.39490 -0.02900
C 	C 	0.44260 0.51320 0.42720 -0.04400
H 	H 	0.46330 0.48450 0.44800 0.04600
C 	C 	0.41410 0.50500 0.42830 -0.04500
H 	H 	0.41570 0.47090 0.45000 0.04800
C 	C 	0.38310 0.54790 0.39720 -0.03000
H 	H 	0.36400 0.54240 0.39800 0.04000
C 	C 	0.38060 0.59890 0.36490 -0.05500
H 	H 	0.35990 0.62750 0.34400 0.06500
C 	C 	0.40910 0.60700 0.36370 -0.03000
H 	H 	0.40750 0.64110 0.34210 0.00600
C 	C 	0.50643 0.63120 0.44710 -0.00900
C 	C 	0.50150 0.65550 0.47960 -0.07400
H 	H 	0.48000 0.64650 0.47410 0.05700
C 	C 	0.52880 0.69330 0.52050 -0.01500
H 	H 	0.52560 0.70960 0.54220 0.03300
C 	C 	0.56100 0.70690 0.52880 -0.06400
H 	H 	0.57930 0.73220 0.55610 0.04900
C 	C 	0.56590 0.68260 0.49630 -0.01300
H 	H 	0.58750 0.69160 0.50180 0.04300
C 	C 	0.53860 0.64480 0.45540 -0.08200
H 	H 	0.54190 0.62850 0.43370 0.04900
C 	C 	0.49541 0.48400 0.40030 -0.01800
C 	C 	0.51550 0.44720 0.44380 -0.05300
H 	H 	0.51790 0.47150 0.46870 0.04900
C 	C 	0.53210 0.37420 0.44990 -0.03000
H 	H 	0.54550 0.34960 0.47900 0.03900
C 	C 	0.52850 0.33800 0.41260 -0.04500
H 	H 	0.53950 0.28920 0.41680 0.04500
C 	C 	0.50840 0.37480 0.36920 -0.03100
H 	H 	0.50600 0.35060 0.34420 0.04000
C 	C 	0.49180 0.44780 0.36300 -0.03600
H 	H 	0.47840 0.47250 0.33390 0.00100
C 	C 	0.37070 0.42830 0.17390 -0.02200
C 	C 	0.35210 0.35660 0.16230 -0.05500
H 	H 	0.34010 0.34480 0.17440 0.04900
C 	C 	0.35150 0.30240 0.13250 -0.03700
H 	H 	0.33910 0.25450 0.12470 0.04300
C 	C 	0.36950 0.32010 0.11440 -0.03900
H 	H 	0.36910 0.28380 0.09450 0.04300
C 	C 	0.38810 0.39180 0.12600 -0.04400
H 	H 	0.40020 0.40360 0.11390 0.06400
C 	C 	0.38870 0.44590 0.15580 -0.04400
H 	H 	0.40110 0.49390 0.16360 0.01600
C 	C 	0.32669 0.53690 0.18004 -0.02000
C 	C 	0.29736 0.49400 0.14442 -0.05400
H 	H 	0.30030 0.44890 0.13190 0.05100
C 	C 	0.26357 0.51840 0.12750 -0.03000
H 	H 	0.24390 0.48970 0.10370 0.03700
C 	C 	0.25911 0.58570 0.14620 -0.04500
H 	H 	0.23650 0.60200 0.13490 0.04300
C 	C 	0.28844 0.62860 0.18184 -0.03600
H 	H 	0.28550 0.67370 0.19440 0.05800
C 	C 	0.32223 0.60420 0.19875 -0.05200
H 	H 	0.34190 0.63290 0.22260 0.01900
C 	C 	0.38029 0.44360 0.25921 -0.00800
C 	C 	0.40882 0.39130 0.27920 -0.07700
H 	H 	0.42190 0.38900 0.26790 0.03900
C 	C 	0.41780 0.34230 0.31610 -0.01400
H 	H 	0.43690 0.30730 0.32950 0.03300
C 	C 	0.39830 0.34560 0.33310 -0.06500
H 	H 	0.40440 0.31290 0.35780 0.04900
C 	C 	0.36980 0.39790 0.31307 -0.01100
H 	H 	0.35680 0.40020 0.32440 0.03400
C 	C 	0.36080 0.44690 0.27615 -0.07500
H 	H 	0.34170 0.48190 0.26280 0.05900
C 	C 	0.31618 0.66260 0.08360 -0.00900
C 	C 	0.28214 0.63810 0.06549 -0.06900
H 	H 	0.26810 0.67010 0.06950 0.05600
C 	C 	0.26901 0.56590 0.04140 -0.01600
H 	H 	0.24620 0.54950 0.02930 0.03600
C 	C 	0.28992 0.51810 0.03542 -0.06400
H 	H 	0.28110 0.46980 0.01930 0.04900
C 	C 	0.32396 0.54260 0.05352 -0.01200
H 	H 	0.33800 0.51060 0.04950 0.03900
C 	C 	0.33709 0.61480 0.07761 -0.07900
H 	H 	0.35990 0.63120 0.08970 0.04900
C 	C 	0.33097 0.81490 0.06512 -0.00900
C 	C 	0.30883 0.79540 0.01804 -0.05500
H 	H 	0.29340 0.75220 0.00770 0.05200
C 	C 	0.30979 0.84050 0.98650 -0.02600
H 	H 	0.29500 0.82750 0.95500 0.03800
C 	C 	0.33289 0.90520 0.00200 -0.04600
H 	H 	0.33350 0.93540 0.98080 0.04200
C 	C 	0.35504 0.92470 0.04910 -0.03000
H 	H 	0.37050 0.96800 0.05940 0.05100
C 	C 	0.35407 0.87960 0.08060 -0.04100
H 	H 	0.36890 0.89270 0.11210 0.01500
C 	C 	0.30048 0.80620 0.11108 -0.02700
C 	C 	0.26944 0.83720 0.07140 -0.04900
H 	H 	0.26550 0.83490 0.04290 0.04900
C 	C 	0.24432 0.87190 0.07440 -0.04000
H 	H 	0.22350 0.89270 0.04780 0.04600
C 	C 	0.25023 0.87550 0.11700 -0.03600
H 	H 	0.23340 0.89870 0.11900 0.04100
C 	C 	0.28127 0.84440 0.15670 -0.05000
H 	H 	0.28520 0.84680 0.18520 0.05900
C 	C 	0.30640 0.80970 0.15373 -0.03900
H 	H 	0.32720 0.78890 0.18030 0.00800
Cl	Cl	0.35299 0.76050 0.27941 -0.46800
Cl	Cl	0.54280 0.95940 0.32972 -0.56400
Cl	Cl	0.58006 0.73740 0.39408 -0.55900
Cl	Cl	0.45411 0.54000 0.15820 -0.56900
P 	P 	0.39570 0.01410 0.22864 0.02100
P 	P 	0.48203 0.89640 0.40078 0.02100
P 	P 	0.47502 0.57970 0.39354 0.02100
P 	P 	0.37092 0.50330 0.21070 0.01200
P 	P 	0.33210 0.75890 0.10836 0.02100
Au	Au	0.50000 0.73253 0.25000 -0.18100
Ag	Ag	0.89750 0.74872 0.77084 0.42600
Ag	Ag	0.99147 0.62637 0.78586 0.35300
Ag	Ag	0.01777 0.77374 0.84042 0.37300
Ag	Ag	0.98237 0.90866 0.77684 0.35100
Ag	Ag	0.93586 0.84592 0.68394 0.38000
Ag	Ag	0.94002 0.67008 0.68691 0.37100
Au	Au	0.91879 0.61233 0.74121 0.08400
Au	Au	0.96689 0.67456 0.83633 0.08300
Au	Au	0.96113 0.84809 0.83073 0.08200
Au	Au	0.90854 0.89194 0.73400 0.07900
Au	Au	0.88509 0.74843 0.67916 0.08600
Au	Au	0.94842 0.75908 0.76053 -0.12900
C 	C 	0.92480 0.40520 0.74301 -0.03000
C 	C 	0.96061 0.42330 0.76930 -0.01600
H 	H 	0.96830 0.47570 0.77910 -0.00500
C 	C 	0.98489 0.36300 0.78080 -0.06600
H 	H 	0.00880 0.37510 0.79830 0.07200
C 	C 	0.97340 0.28460 0.76600 -0.02300
H 	H 	0.98960 0.24420 0.77370 0.03300
C 	C 	0.93760 0.26640 0.73980 -0.04800
H 	H 	0.92980 0.21400 0.72990 0.04400
C 	C 	0.91327 0.32670 0.72830 -0.03900
H 	H 	0.88930 0.31460 0.71070 0.04600
C 	C 	0.87869 0.46850 0.75990 -0.02700
C 	C 	0.87327 0.39140 0.76920 -0.04400
H 	H 	0.87830 0.34700 0.75850 0.04800
C 	C 	0.86040 0.38070 0.79460 -0.03900
H 	H 	0.85680 0.32910 0.80080 0.04300
C 	C 	0.85300 0.44700 0.81060 -0.03300
H 	H 	0.84430 0.43980 0.82760 0.04000
C 	C 	0.85840 0.52420 0.80130 -0.04900
H 	H 	0.85340 0.56860 0.81210 0.06200
C 	C 	0.87120 0.53490 0.77600 -0.03700
H 	H 	0.87490 0.58650 0.76970 0.00800
C 	C 	0.85976 0.46790 0.66850 0.00100
C 	C 	0.86840 0.44440 0.63963 -0.09300
H 	H 	0.89200 0.44290 0.65110 0.07100
C 	C 	0.84190 0.42310 0.59364 0.00200
H 	H 	0.84760 0.40740 0.57430 0.02900
C 	C 	0.80670 0.42540 0.57651 -0.07700
H 	H 	0.78890 0.41110 0.54570 0.05300
C 	C 	0.79801 0.44890 0.60540 -0.00200
H 	H 	0.77450 0.45040 0.59390 0.03000
C 	C 	0.82456 0.47010 0.65130 -0.08300
H 	H 	0.81880 0.48590 0.67060 0.06000
C 	C 	0.97000 0.50140 0.89200 -0.00200
C 	C 	0.94980 0.46760 0.90380 -0.07500
H 	H 	0.93990 0.50030 0.91400 0.05700
C 	C 	0.94430 0.38500 0.90050 -0.01100
H 	H 	0.93080 0.36240 0.90840 0.03100
C 	C 	0.95910 0.33620 0.88520 -0.06900
H 	H 	0.95550 0.28090 0.88300 0.05000
C 	C 	0.97940 0.37000 0.87340 -0.00700
H 	H 	0.98930 0.33730 0.86320 0.03500
C 	C 	0.98480 0.45260 0.87670 -0.08200
H 	H 	0.99840 0.47520 0.86880 0.05300
C 	C 	0.02750 0.59650 0.94680 -0.02400
C 	C 	0.03990 0.54430 0.98380 -0.04700
H 	H 	0.02410 0.51460 0.98520 0.04800
C 	C 	0.07610 0.53650 0.01870 -0.04100
H 	H 	0.08440 0.50160 0.04350 0.04300
C 	C 	0.09980 0.58090 0.01660 -0.03200
H 	H 	0.12400 0.57570 0.03990 0.03800
C 	C 	0.08730 0.63320 0.97950 -0.05100
H 	H 	0.10320 0.66290 0.97810 0.07000
C 	C 	0.05120 0.64090 0.94470 -0.02700
H 	H 	0.04280 0.67590 0.91990 0.01100
C 	C 	0.96250 0.64430 0.92490 -0.02000
C 	C 	0.97790 0.64290 0.97210 -0.05800
H 	H 	0.00060 0.62260 0.99340 0.05300
C 	C 	0.95930 0.67190 0.98760 -0.03300
H 	H 	0.96960 0.67090 0.01920 0.04200
C 	C 	0.92530 0.70220 0.95580 -0.04600
H 	H 	0.91290 0.72160 0.96620 0.04400
C 	C 	0.90990 0.70360 0.90860 -0.03600
H 	H 	0.88720 0.72390 0.88740 0.05600
C 	C 	0.92850 0.67470 0.89310 -0.05500
H 	H 	0.91820 0.67560 0.86150 0.02200
C 	C 	0.94010 0.93580 0.89490 -0.02900
C 	C 	0.94260 0.98680 0.92720 -0.04300
H 	H 	0.96330 0.01550 0.94800 0.04500
C 	C 	0.91410 0.99500 0.92830 -0.04500
H 	H 	0.91570 0.02910 0.95000 0.04800
C 	C 	0.88310 0.95210 0.89720 -0.03000
H 	H 	0.86400 0.95760 0.89800 0.03900
C 	C 	0.88060 0.90110 0.86490 -0.05500
H 	H 	0.85990 0.87250 0.84400 0.06500
C 	C 	0.90910 0.89300 0.86370 -0.03000
H 	H 	0.90750 0.85890 0.84210 0.00600
C 	C 	0.00643 0.86880 0.94710 -0.00900
C 	C 	0.00150 0.84450 0.97960 -0.07100
H 	H 	0.98000 0.85350 0.97410 0.05600
C 	C 	0.02880 0.80670 0.02050 -0.01700
H 	H 	0.02560 0.79040 0.04220 0.03400
C 	C 	0.06100 0.79310 0.02880 -0.06400
H 	H 	0.07930 0.76780 0.05610 0.04900
C 	C 	0.06590 0.81740 0.99630 -0.01200
H 	H 	0.08750 0.80840 0.00180 0.04200
C 	C 	0.03860 0.85520 0.95540 -0.08200
H 	H 	0.04190 0.87150 0.93370 0.04900
C 	C 	0.99541 0.01600 0.90030 -0.01900
C 	C 	0.01550 0.05280 0.94380 -0.05100
H 	H 	0.01790 0.02850 0.96870 0.04800
C 	C 	0.03210 0.12580 0.94990 -0.03000
H 	H 	0.04550 0.15040 0.97900 0.03900
C 	C 	0.02850 0.16200 0.91260 -0.04500
H 	H 	0.03950 0.21080 0.91680 0.04500
C 	C 	0.00840 0.12520 0.86920 -0.03000
H 	H 	0.00600 0.14940 0.84420 0.04000
C 	C 	0.99180 0.05220 0.86300 -0.03700
H 	H 	0.97840 0.02750 0.83390 0.00100
C 	C 	0.87070 0.07170 0.67390 -0.02200
C 	C 	0.85210 0.14340 0.66230 -0.05500
H 	H 	0.84010 0.15520 0.67440 0.04900
C 	C 	0.85150 0.19760 0.63250 -0.03700
H 	H 	0.83910 0.24550 0.62470 0.04300
C 	C 	0.86950 0.17990 0.61440 -0.03900
H 	H 	0.86910 0.21620 0.59450 0.04300
C 	C 	0.88810 0.10820 0.62600 -0.04400
H 	H 	0.90020 0.09640 0.61390 0.06400
C 	C 	0.88870 0.05410 0.65580 -0.04400
H 	H 	0.90110 0.00610 0.66360 0.01600
C 	C 	0.82669 0.96310 0.68004 -0.02000
C 	C 	0.79736 0.00600 0.64442 -0.05400
H 	H 	0.80030 0.05110 0.63190 0.05100
C 	C 	0.76357 0.98160 0.62750 -0.03000
H 	H 	0.74390 0.01030 0.60370 0.03700
C 	C 	0.75911 0.91430 0.64620 -0.04500
H 	H 	0.73650 0.89800 0.63490 0.04300
C 	C 	0.78844 0.87140 0.68184 -0.03600
H 	H 	0.78550 0.82630 0.69440 0.05800
C 	C 	0.82223 0.89580 0.69875 -0.05200
H 	H 	0.84190 0.86710 0.72260 0.01900
C 	C 	0.88029 0.05640 0.75921 -0.00800
C 	C 	0.90882 0.10870 0.77920 -0.07700
H 	H 	0.92190 0.11100 0.76790 0.03900
C 	C 	0.91780 0.15770 0.81610 -0.01400
H 	H 	0.93690 0.19270 0.82950 0.03300
C 	C 	0.89830 0.15440 0.83310 -0.06500
H 	H 	0.90440 0.18710 0.85780 0.04900
C 	C 	0.86980 0.10210 0.81307 -0.01100
H 	H 	0.85680 0.09980 0.82440 0.03400
C 	C 	0.86080 0.05310 0.77615 -0.07500
H 	H 	0.84170 0.01810 0.76280 0.05900
C 	C 	0.81618 0.83740 0.58360 -0.00900
C 	C 	0.78214 0.86190 0.56549 -0.07000
H 	H 	0.76810 0.82990 0.56950 0.05600
C 	C 	0.76901 0.93410 0.54140 -0.01600
H 	H 	0.74620 0.95050 0.52930 0.03500
C 	C 	0.78992 0.98190 0.53542 -0.06500
H 	H 	0.78110 0.03020 0.51930 0.04900
C 	C 	0.82396 0.95740 0.55352 -0.01200
H 	H 	0.83800 0.98940 0.54950 0.03900
C 	C 	0.83709 0.88520 0.57761 -0.07900
H 	H 	0.85990 0.86880 0.58970 0.04900
C 	C 	0.83097 0.68510 0.56512 -0.01000
C 	C 	0.80883 0.70460 0.51804 -0.05300
H 	H 	0.79340 0.74780 0.50770 0.05200
C 	C 	0.80979 0.65950 0.48650 -0.02800
H 	H 	0.79500 0.67250 0.45500 0.03900
C 	C 	0.83289 0.59480 0.50200 -0.04400
H 	H 	0.83350 0.56460 0.48080 0.04200
C 	C 	0.85504 0.57530 0.54910 -0.03200
H 	H 	0.87050 0.53200 0.55940 0.05100
C 	C 	0.85407 0.62040 0.58060 -0.04000
H 	H 	0.86890 0.60730 0.61210 0.01500
C 	C 	0.80048 0.69380 0.61108 -0.02700
C 	C 	0.76944 0.66280 0.57140 -0.04900
H 	H 	0.76550 0.66510 0.54290 0.05000
C 	C 	0.74432 0.62810 0.57440 -0.04000
H 	H 	0.72350 0.60730 0.54780 0.04600
C 	C 	0.75023 0.62450 0.61700 -0.03600
H 	H 	0.73340 0.60130 0.61900 0.04100
C 	C 	0.78127 0.65560 0.65670 -0.05000
H 	H 	0.78520 0.65320 0.68520 0.05900
C 	C 	0.80640 0.69030 0.65373 -0.03900
H 	H 	0.82720 0.71110 0.68030 0.00800
Cl	Cl	0.85299 0.73950 0.77941 -0.46800
Cl	Cl	0.04280 0.54060 0.82972 -0.56300
Cl	Cl	0.08006 0.76260 0.89408 -0.55900
Cl	Cl	0.95411 0.96000 0.65820 -0.56900
P 	P 	0.89570 0.48590 0.72864 0.02200
P 	P 	0.98203 0.60360 0.90078 0.02000
P 	P 	0.97502 0.92030 0.89354 0.02100
P 	P 	0.87092 0.99670 0.71070 0.01100
P 	P 	0.83210 0.74110 0.60836 0.02100
Ag	Ag	0.10250 0.74872 0.72916 0.42600
Ag	Ag	0.00853 0.62637 0.71414 0.35300
Ag	Ag	0.98223 0.77374 0.65958 0.37300
Ag	Ag	0.01763 0.90866 0.72316 0.35200
Ag	Ag	0.06414 0.84592 0.81606 0.38000
Ag	Ag	0.05998 0.67008 0.81309 0.37100
Au	Au	0.08121 0.61233 0.75879 0.08400
Au	Au	0.03311 0.67456 0.66367 0.08300
Au	Au	0.03887 0.84809 0.66927 0.08200
Au	Au	0.09146 0.89194 0.76600 0.07900
Au	Au	0.11491 0.74843 0.82085 0.08600
Au	Au	0.05158 0.75908 0.73947 -0.12900
C 	C 	0.07520 0.40520 0.75699 -0.02800
C 	C 	0.03939 0.42330 0.73070 -0.02100
H 	H 	0.03170 0.47570 0.72090 -0.00400
C 	C 	0.01511 0.36300 0.71920 -0.05900
H 	H 	0.99120 0.37510 0.70170 0.06900
C 	C 	0.02660 0.28460 0.73400 -0.02800
H 	H 	0.01040 0.24420 0.72630 0.03500
C 	C 	0.06240 0.26640 0.76020 -0.04500
H 	H 	0.07020 0.21400 0.77010 0.04300
C 	C 	0.08673 0.32670 0.77170 -0.04200
H 	H 	0.11070 0.31460 0.78930 0.04700
C 	C 	0.12131 0.46850 0.74010 -0.02700
C 	C 	0.12673 0.39140 0.73080 -0.04500
H 	H 	0.12170 0.34700 0.74150 0.04800
C 	C 	0.13960 0.38070 0.70540 -0.03900
H 	H 	0.14320 0.32910 0.69920 0.04300
C 	C 	0.14700 0.44700 0.68940 -0.03300
H 	H 	0.15570 0.43980 0.67240 0.04000
C 	C 	0.14160 0.52420 0.69870 -0.04800
H 	H 	0.14660 0.56860 0.68790 0.06200
C 	C 	0.12880 0.53490 0.72400 -0.03700
H 	H 	0.12510 0.58650 0.73030 0.00800
C 	C 	0.14024 0.46790 0.83150 0.00100
C 	C 	0.13160 0.44440 0.86037 -0.09300
H 	H 	0.10800 0.44290 0.84890 0.07100
C 	C 	0.15810 0.42310 0.90636 0.00200
H 	H 	0.15240 0.40740 0.92570 0.02900
C 	C 	0.19330 0.42540 0.92349 -0.07700
H 	H 	0.21110 0.41110 0.95430 0.05300
C 	C 	0.20199 0.44890 0.89460 -0.00200
H 	H 	0.22550 0.45040 0.90610 0.03000
C 	C 	0.17544 0.47010 0.84870 -0.08300
H 	H 	0.18120 0.48590 0.82940 0.06000
C 	C 	0.03000 0.50140 0.60800 -0.00300
C 	C 	0.05020 0.46760 0.59620 -0.07400
H 	H 	0.06010 0.50030 0.58600 0.05700
C 	C 	0.05570 0.38500 0.59950 -0.01100
H 	H 	0.06920 0.36240 0.59160 0.03100
C 	C 	0.04090 0.33620 0.61480 -0.06900
H 	H 	0.04450 0.28090 0.61700 0.05000
C 	C 	0.02060 0.37000 0.62660 -0.00700
H 	H 	0.01070 0.33730 0.63680 0.03500
C 	C 	0.01520 0.45260 0.62330 -0.08100
H 	H 	0.00160 0.47520 0.63120 0.05300
C 	C 	0.97250 0.59650 0.55320 -0.02600
C 	C 	0.96010 0.54430 0.51620 -0.04600
H 	H 	0.97590 0.51460 0.51480 0.04700
C 	C 	0.92390 0.53650 0.48130 -0.04200
H 	H 	0.91560 0.50160 0.45650 0.04400
C 	C 	0.90020 0.58090 0.48340 -0.03000
H 	H 	0.87600 0.57570 0.46010 0.03700
C 	C 	0.91270 0.63320 0.52050 -0.05200
H 	H 	0.89680 0.66290 0.52190 0.07000
C 	C 	0.94880 0.64090 0.55530 -0.02600
H 	H 	0.95720 0.67590 0.58010 0.01000
C 	C 	0.03750 0.64430 0.57510 -0.02300
C 	C 	0.02210 0.64290 0.52790 -0.05300
H 	H 	0.99940 0.62260 0.50660 0.05000
C 	C 	0.04070 0.67190 0.51240 -0.03600
H 	H 	0.03040 0.67090 0.48080 0.04400
C 	C 	0.07470 0.70220 0.54420 -0.04400
H 	H 	0.08710 0.72160 0.53380 0.04400
C 	C 	0.09010 0.70360 0.59140 -0.03900
H 	H 	0.11280 0.72390 0.61260 0.05700
C 	C 	0.07150 0.67470 0.60690 -0.05200
H 	H 	0.08180 0.67560 0.63850 0.02100
C 	C 	0.05990 0.93580 0.60510 -0.02900
C 	C 	0.05740 0.98680 0.57280 -0.04400
H 	H 	0.03670 0.01550 0.55200 0.04600
C 	C 	0.08590 0.99500 0.57170 -0.04500
H 	H 	0.08430 0.02910 0.55000 0.04800
C 	C 	0.11690 0.95210 0.60280 -0.03000
H 	H 	0.13600 0.95760 0.60200 0.03900
C 	C 	0.11940 0.90110 0.63510 -0.05500
H 	H 	0.14010 0.87250 0.65600 0.06500
C 	C 	0.09090 0.89300 0.63630 -0.03000
H 	H 	0.09250 0.85890 0.65790 0.00600
C 	C 	0.99357 0.86880 0.55290 -0.00900
C 	C 	0.99850 0.84450 0.52040 -0.07500
H 	H 	0.02000 0.85350 0.52590 0.05800
C 	C 	0.97120 0.80670 0.47950 -0.01400
H 	H 	0.97440 0.79040 0.45780 0.03300
C 	C 	0.93900 0.79310 0.47120 -0.06500
H 	H 	0.92070 0.76780 0.44390 0.04900
C 	C 	0.93410 0.81740 0.50370 -0.01200
H 	H 	0.91250 0.80840 0.49820 0.04300
C 	C 	0.96140 0.85520 0.54460 -0.08300
H 	H 	0.95810 0.87150 0.56630 0.04900
C 	C 	0.00459 0.01600 0.59970 -0.01800
C 	C 	0.98450 0.05280 0.55620 -0.05300
H 	H 	0.98210 0.02850 0.53130 0.04900
C 	C 	0.96790 0.12580 0.55010 -0.03000
H 	H 	0.95450 0.15040 0.52100 0.03900
C 	C 	0.97150 0.16200 0.58740 -0.04400
H 	H 	0.96050 0.21080 0.58320 0.04500
C 	C 	0.99160 0.12520 0.63080 -0.03300
H 	H 	0.99400 0.14940 0.65580 0.04100
C 	C 	0.00820 0.05220 0.63700 -0.03400
H 	H 	0.02160 0.02750 0.66610 0.00100
C 	C 	0.12930 0.07170 0.82610 -0.02200
C 	C 	0.14790 0.14340 0.83770 -0.05500
H 	H 	0.15990 0.15520 0.82560 0.04900
C 	C 	0.14850 0.19760 0.86750 -0.03700
H 	H 	0.16090 0.24550 0.87530 0.04300
C 	C 	0.13050 0.17990 0.88560 -0.03900
H 	H 	0.13090 0.21620 0.90550 0.04300
C 	C 	0.11190 0.10820 0.87400 -0.04400
H 	H 	0.09980 0.09640 0.88610 0.06400
C 	C 	0.11130 0.05410 0.84420 -0.04400
H 	H 	0.09890 0.00610 0.83640 0.01600
C 	C 	0.17331 0.96310 0.81996 -0.02000
C 	C 	0.20264 0.00600 0.85558 -0.05500
H 	H 	0.19970 0.05110 0.86810 0.05100
C 	C 	0.23643 0.98160 0.87250 -0.03000
H 	H 	0.25610 0.01030 0.89630 0.03700
C 	C 	0.24089 0.91430 0.85380 -0.04600
H 	H 	0.26350 0.89800 0.86510 0.04300
C 	C 	0.21156 0.87140 0.81816 -0.03500
H 	H 	0.21450 0.82630 0.80560 0.05800
C 	C 	0.17777 0.89580 0.80125 -0.05200
H 	H 	0.15810 0.86710 0.77740 0.01900
C 	C 	0.11971 0.05640 0.74079 -0.00800
C 	C 	0.09118 0.10870 0.72080 -0.07700
H 	H 	0.07810 0.11100 0.73210 0.03900
C 	C 	0.08220 0.15770 0.68390 -0.01400
H 	H 	0.06310 0.19270 0.67050 0.03300
C 	C 	0.10170 0.15440 0.66690 -0.06500
H 	H 	0.09560 0.18710 0.64220 0.04900
C 	C 	0.13020 0.10210 0.68693 -0.01100
H 	H 	0.14320 0.09980 0.67560 0.03400
C 	C 	0.13920 0.05310 0.72385 -0.07500
H 	H 	0.15830 0.01810 0.73720 0.05900
C 	C 	0.18382 0.83740 0.91640 -0.01000
C 	C 	0.21786 0.86190 0.93451 -0.06900
H 	H 	0.23190 0.82990 0.93050 0.05600
C 	C 	0.23099 0.93410 0.95860 -0.01600
H 	H 	0.25380 0.95050 0.97070 0.03600
C 	C 	0.21008 0.98190 0.96458 -0.06400
H 	H 	0.21890 0.03020 0.98070 0.04900
C 	C 	0.17604 0.95740 0.94648 -0.01200
H 	H 	0.16200 0.98940 0.95050 0.03900
C 	C 	0.16291 0.88520 0.92239 -0.07900
H 	H 	0.14010 0.86880 0.91030 0.04900
C 	C 	0.16903 0.68510 0.93488 -0.01100
C 	C 	0.19117 0.70460 0.98196 -0.05200
H 	H 	0.20660 0.74780 0.99230 0.05200
C 	C 	0.19021 0.65950 0.01350 -0.03000
H 	H 	0.20500 0.67250 0.04500 0.03900
C 	C 	0.16711 0.59480 0.99800 -0.04200
H 	H 	0.16650 0.56460 0.01920 0.04100
C 	C 	0.14496 0.57530 0.95090 -0.03300
H 	H 	0.12950 0.53200 0.94060 0.05200
C 	C 	0.14593 0.62040 0.91940 -0.03900
H 	H 	0.13110 0.60730 0.88790 0.01500
C 	C 	0.19952 0.69380 0.88892 -0.02700
C 	C 	0.23056 0.66280 0.92860 -0.04900
H 	H 	0.23450 0.66510 0.95710 0.05000
C 	C 	0.25568 0.62810 0.92560 -0.04000
H 	H 	0.27650 0.60730 0.95220 0.04600
C 	C 	0.24977 0.62450 0.88300 -0.03600
H 	H 	0.26660 0.60130 0.88100 0.04100
C 	C 	0.21873 0.65560 0.84330 -0.05000
H 	H 	0.21480 0.65320 0.81480 0.05900
C 	C 	0.19360 0.69030 0.84627 -0.03900
H 	H 	0.17280 0.71110 0.81970 0.00800
Cl	Cl	0.14701 0.73950 0.72059 -0.46800
Cl	Cl	0.95720 0.54060 0.67028 -0.56400
Cl	Cl	0.91994 0.76260 0.60592 -0.56000
Cl	Cl	0.04589 0.96000 0.84180 -0.56800
P 	P 	0.10430 0.48590 0.77136 0.02100
P 	P 	0.01797 0.60360 0.59922 0.02200
P 	P 	0.02498 0.92030 0.60646 0.02100
P 	P 	0.12908 0.99670 0.78930 0.01100
P 	P 	0.16790 0.74110 0.89164 0.02100
Au	Au	0.00000 0.76747 0.75000 -0.18000
Ag	Ag	0.39750 0.24872 0.77084 0.42600
Ag	Ag	0.49147 0.12637 0.78586 0.35300
Ag	Ag	0.51777 0.27374 0.84042 0.37300
Ag	Ag	0.48237 0.40866 0.77684 0.35200
Ag	Ag	0.43586 0.34592 0.68394 0.38000
Ag	Ag	0.44002 0.17008 0.68691 0.37100
Au	Au	0.41879 0.11233 0.74121 0.08400
Au	Au	0.46689 0.17456 0.83633 0.08300
Au	Au	0.46113 0.34809 0.83073 0.08200
Au	Au	0.40854 0.39194 0.73400 0.07900
Au	Au	0.38509 0.24843 0.67915 0.08600
Au	Au	0.44842 0.25908 0.76053 -0.12900
C 	C 	0.42480 0.90520 0.74301 -0.02900
C 	C 	0.46061 0.92330 0.76930 -0.01900
H 	H 	0.46830 0.97570 0.77910 -0.00400
C 	C 	0.48489 0.86300 0.78080 -0.06300
H 	H 	0.50880 0.87510 0.79830 0.07000
C 	C 	0.47340 0.78460 0.76600 -0.02500
H 	H 	0.48960 0.74420 0.77370 0.03400
C 	C 	0.43760 0.76640 0.73980 -0.04600
H 	H 	0.42980 0.71400 0.72990 0.04400
C 	C 	0.41327 0.82670 0.72830 -0.04100
H 	H 	0.38930 0.81460 0.71070 0.04600
C 	C 	0.37869 0.96850 0.75990 -0.02700
C 	C 	0.37327 0.89140 0.76920 -0.04400
H 	H 	0.37830 0.84700 0.75850 0.04800
C 	C 	0.36040 0.88070 0.79460 -0.03900
H 	H 	0.35680 0.82910 0.80080 0.04300
C 	C 	0.35300 0.94700 0.81060 -0.03300
H 	H 	0.34430 0.93980 0.82760 0.04000
C 	C 	0.35840 0.02420 0.80130 -0.04900
H 	H 	0.35340 0.06860 0.81210 0.06200
C 	C 	0.37120 0.03490 0.77600 -0.03700
H 	H 	0.37490 0.08650 0.76970 0.00800
C 	C 	0.35976 0.96790 0.66850 0.00100
C 	C 	0.36840 0.94440 0.63963 -0.09300
H 	H 	0.39200 0.94290 0.65110 0.07100
C 	C 	0.34190 0.92310 0.59364 0.00200
H 	H 	0.34760 0.90740 0.57430 0.02900
C 	C 	0.30670 0.92540 0.57651 -0.07700
H 	H 	0.28890 0.91110 0.54570 0.05300
C 	C 	0.29801 0.94890 0.60540 -0.00200
H 	H 	0.27450 0.95040 0.59390 0.03000
C 	C 	0.32456 0.97010 0.65130 -0.08300
H 	H 	0.31880 0.98590 0.67060 0.06000
C 	C 	0.47000 0.00140 0.89200 -0.00300
C 	C 	0.44980 0.96760 0.90380 -0.07400
H 	H 	0.43990 0.00030 0.91400 0.05700
C 	C 	0.44430 0.88500 0.90050 -0.01200
H 	H 	0.43080 0.86240 0.90840 0.03100
C 	C 	0.45910 0.83620 0.88520 -0.06800
H 	H 	0.45550 0.78090 0.88300 0.05000
C 	C 	0.47940 0.87000 0.87340 -0.00800
H 	H 	0.48930 0.83730 0.86320 0.03500
C 	C 	0.48480 0.95260 0.87670 -0.08100
H 	H 	0.49840 0.97520 0.86880 0.05300
C 	C 	0.52750 0.09650 0.94680 -0.02500
C 	C 	0.53990 0.04430 0.98380 -0.04700
H 	H 	0.52410 0.01460 0.98520 0.04700
C 	C 	0.57610 0.03650 0.01870 -0.04100
H 	H 	0.58440 0.00160 0.04350 0.04300
C 	C 	0.59980 0.08090 0.01660 -0.03000
H 	H 	0.62400 0.07570 0.03990 0.03700
C 	C 	0.58730 0.13320 0.97950 -0.05200
H 	H 	0.60320 0.16290 0.97810 0.07000
C 	C 	0.55120 0.14090 0.94470 -0.02600
H 	H 	0.54280 0.17590 0.91990 0.01100
C 	C 	0.46250 0.14430 0.92490 -0.02200
C 	C 	0.47790 0.14290 0.97210 -0.05500
H 	H 	0.50060 0.12260 0.99340 0.05100
C 	C 	0.45930 0.17190 0.98760 -0.03500
H 	H 	0.46960 0.17090 0.01920 0.04300
C 	C 	0.42530 0.20220 0.95580 -0.04500
H 	H 	0.41290 0.22160 0.96620 0.04400
C 	C 	0.40990 0.20360 0.90860 -0.03800
H 	H 	0.38720 0.22390 0.88740 0.05700
C 	C 	0.42850 0.17470 0.89310 -0.05300
H 	H 	0.41820 0.17560 0.86150 0.02200
C 	C 	0.44010 0.43580 0.89490 -0.02900
C 	C 	0.44260 0.48680 0.92720 -0.04400
H 	H 	0.46330 0.51550 0.94800 0.04600
C 	C 	0.41410 0.49500 0.92830 -0.04500
H 	H 	0.41570 0.52910 0.95000 0.04800
C 	C 	0.38310 0.45210 0.89720 -0.03000
H 	H 	0.36400 0.45760 0.89800 0.04000
C 	C 	0.38060 0.40110 0.86490 -0.05500
H 	H 	0.35990 0.37250 0.84400 0.06500
C 	C 	0.40910 0.39300 0.86370 -0.03000
H 	H 	0.40750 0.35890 0.84210 0.00600
C 	C 	0.50643 0.36880 0.94710 -0.00900
C 	C 	0.50150 0.34450 0.97960 -0.07300
H 	H 	0.48000 0.35350 0.97410 0.05700
C 	C 	0.52880 0.30670 0.02050 -0.01500
H 	H 	0.52560 0.29040 0.04220 0.03300
C 	C 	0.56100 0.29310 0.02880 -0.06400
H 	H 	0.57930 0.26780 0.05610 0.04900
C 	C 	0.56590 0.31740 0.99630 -0.01300
H 	H 	0.58750 0.30840 0.00180 0.04300
C 	C 	0.53860 0.35520 0.95540 -0.08200
H 	H 	0.54190 0.37150 0.93370 0.04900
C 	C 	0.49541 0.51600 0.90030 -0.01800
C 	C 	0.51550 0.55280 0.94380 -0.05300
H 	H 	0.51790 0.52850 0.96870 0.04900
C 	C 	0.53210 0.62580 0.94990 -0.03000
H 	H 	0.54550 0.65040 0.97900 0.03900
C 	C 	0.52850 0.66200 0.91260 -0.04500
H 	H 	0.53950 0.71080 0.91680 0.04500
C 	C 	0.50840 0.62520 0.86920 -0.03100
H 	H 	0.50600 0.64940 0.84420 0.04000
C 	C 	0.49180 0.55220 0.86300 -0.03600
H 	H 	0.47840 0.52750 0.83390 0.00100
C 	C 	0.37070 0.57170 0.67390 -0.02200
C 	C 	0.35210 0.64340 0.66230 -0.05500
H 	H 	0.34010 0.65520 0.67440 0.04900
C 	C 	0.35150 0.69760 0.63250 -0.03700
H 	H 	0.33910 0.74550 0.62470 0.04300
C 	C 	0.36950 0.67990 0.61440 -0.03900
H 	H 	0.36910 0.71620 0.59450 0.04300
C 	C 	0.38810 0.60820 0.62600 -0.04400
H 	H 	0.40020 0.59640 0.61390 0.06400
C 	C 	0.38870 0.55410 0.65580 -0.04400
H 	H 	0.40110 0.50610 0.66360 0.01700
C 	C 	0.32669 0.46310 0.68004 -0.02000
C 	C 	0.29736 0.50600 0.64442 -0.05400
H 	H 	0.30030 0.55110 0.63190 0.05100
C 	C 	0.26357 0.48160 0.62750 -0.03000
H 	H 	0.24390 0.51030 0.60370 0.03700
C 	C 	0.25911 0.41430 0.64620 -0.04500
H 	H 	0.23650 0.39800 0.63490 0.04300
C 	C 	0.28844 0.37140 0.68184 -0.03600
H 	H 	0.28550 0.32630 0.69440 0.05800
C 	C 	0.32223 0.39580 0.69875 -0.05200
H 	H 	0.34190 0.36710 0.72260 0.01900
C 	C 	0.38029 0.55640 0.75921 -0.00800
C 	C 	0.40882 0.60870 0.77920 -0.07700
H 	H 	0.42190 0.61100 0.76790 0.03900
C 	C 	0.41780 0.65770 0.81610 -0.01400
H 	H 	0.43690 0.69270 0.82950 0.03300
C 	C 	0.39830 0.65440 0.83310 -0.06500
H 	H 	0.40440 0.68710 0.85780 0.04900
C 	C 	0.36980 0.60210 0.81307 -0.01100
H 	H 	0.35680 0.59980 0.82440 0.03400
C 	C 	0.36080 0.55310 0.77615 -0.07500
H 	H 	0.34170 0.51810 0.76280 0.05900
C 	C 	0.31618 0.33740 0.58360 -0.00900
C 	C 	0.28214 0.36190 0.56549 -0.06900
H 	H 	0.26810 0.32990 0.56950 0.05600
C 	C 	0.26901 0.43410 0.54140 -0.01600
H 	H 	0.24620 0.45050 0.52930 0.03600
C 	C 	0.28992 0.48190 0.53542 -0.06400
H 	H 	0.28110 0.53020 0.51930 0.04900
C 	C 	0.32396 0.45740 0.55352 -0.01200
H 	H 	0.33800 0.48940 0.54950 0.03900
C 	C 	0.33709 0.38520 0.57761 -0.07900
H 	H 	0.35990 0.36880 0.58970 0.04900
C 	C 	0.33097 0.18510 0.56512 -0.01000
C 	C 	0.30883 0.20460 0.51804 -0.05300
H 	H 	0.29340 0.24780 0.50770 0.05200
C 	C 	0.30979 0.15950 0.48650 -0.02800
H 	H 	0.29500 0.17250 0.45500 0.03900
C 	C 	0.33289 0.09480 0.50200 -0.04400
H 	H 	0.33350 0.06460 0.48080 0.04200
C 	C 	0.35504 0.07530 0.54910 -0.03200
H 	H 	0.37050 0.03200 0.55940 0.05100
C 	C 	0.35407 0.12040 0.58060 -0.04000
H 	H 	0.36890 0.10730 0.61210 0.01500
C 	C 	0.30048 0.19380 0.61108 -0.02700
C 	C 	0.26944 0.16280 0.57140 -0.04900
H 	H 	0.26550 0.16510 0.54290 0.04900
C 	C 	0.24432 0.12810 0.57440 -0.04000
H 	H 	0.22350 0.10730 0.54780 0.04600
C 	C 	0.25023 0.12450 0.61700 -0.03600
H 	H 	0.23340 0.10130 0.61900 0.04100
C 	C 	0.28127 0.15560 0.65670 -0.05000
H 	H 	0.28520 0.15320 0.68520 0.05900
C 	C 	0.30640 0.19030 0.65373 -0.03900
H 	H 	0.32720 0.21110 0.68030 0.00800
Cl	Cl	0.35299 0.23950 0.77941 -0.46800
Cl	Cl	0.54280 0.04060 0.82972 -0.56400
Cl	Cl	0.58006 0.26260 0.89408 -0.55900
Cl	Cl	0.45411 0.46000 0.65820 -0.56900
P 	P 	0.39570 0.98590 0.72864 0.02100
P 	P 	0.48203 0.10360 0.90078 0.02100
P 	P 	0.47502 0.42030 0.89354 0.02100
P 	P 	0.37092 0.49670 0.71070 0.01200
P 	P 	0.33210 0.24110 0.60836 0.02100
Ag	Ag	0.60250 0.24872 0.72916 0.42600
Ag	Ag	0.50853 0.12637 0.71414 0.35300
Ag	Ag	0.48223 0.27374 0.65958 0.37300
Ag	Ag	0.51763 0.40866 0.72316 0.35200
Ag	Ag	0.56414 0.34592 0.81606 0.38000
Ag	Ag	0.55998 0.17008 0.81309 0.37100
Au	Au	0.58121 0.11233 0.75879 0.08400
Au	Au	0.53311 0.17456 0.66367 0.08300
Au	Au	0.53887 0.34809 0.66927 0.08200
Au	Au	0.59146 0.39194 0.76600 0.07900
Au	Au	0.61491 0.24843 0.82085 0.08600
Au	Au	0.55158 0.25908 0.73947 -0.12900
C 	C 	0.57520 0.90520 0.75699 -0.02900
C 	C 	0.53939 0.92330 0.73070 -0.01800
H 	H 	0.53170 0.97570 0.72090 -0.00500
C 	C 	0.51511 0.86300 0.71920 -0.06300
H 	H 	0.49120 0.87510 0.70170 0.07000
C 	C 	0.52660 0.78460 0.73400 -0.02500
H 	H 	0.51040 0.74420 0.72630 0.03400
C 	C 	0.56240 0.76640 0.76020 -0.04600
H 	H 	0.57020 0.71400 0.77010 0.04400
C 	C 	0.58673 0.82670 0.77170 -0.04100
H 	H 	0.61070 0.81460 0.78930 0.04600
C 	C 	0.62131 0.96850 0.74010 -0.02700
C 	C 	0.62673 0.89140 0.73080 -0.04400
H 	H 	0.62170 0.84700 0.74150 0.04800
C 	C 	0.63960 0.88070 0.70540 -0.03900
H 	H 	0.64320 0.82910 0.69920 0.04300
C 	C 	0.64700 0.94700 0.68940 -0.03300
H 	H 	0.65570 0.93980 0.67240 0.04000
C 	C 	0.64160 0.02420 0.69870 -0.04900
H 	H 	0.64660 0.06860 0.68790 0.06200
C 	C 	0.62880 0.03490 0.72400 -0.03800
H 	H 	0.62510 0.08650 0.73030 0.00800
C 	C 	0.64024 0.96790 0.83150 0.00100
C 	C 	0.63160 0.94440 0.86037 -0.09300
H 	H 	0.60800 0.94290 0.84890 0.07100
C 	C 	0.65810 0.92310 0.90636 0.00200
H 	H 	0.65240 0.90740 0.92570 0.02900
C 	C 	0.69330 0.92540 0.92349 -0.07700
H 	H 	0.71110 0.91110 0.95430 0.05300
C 	C 	0.70199 0.94890 0.89460 -0.00200
H 	H 	0.72550 0.95040 0.90610 0.03000
C 	C 	0.67544 0.97010 0.84870 -0.08300
H 	H 	0.68120 0.98590 0.82940 0.06000
C 	C 	0.53000 0.00140 0.60800 -0.00300
C 	C 	0.55020 0.96760 0.59620 -0.07400
H 	H 	0.56010 0.00030 0.58600 0.05700
C 	C 	0.55570 0.88500 0.59950 -0.01100
H 	H 	0.56920 0.86240 0.59160 0.03100
C 	C 	0.54090 0.83620 0.61480 -0.06900
H 	H 	0.54450 0.78090 0.61700 0.05000
C 	C 	0.52060 0.87000 0.62660 -0.00800
H 	H 	0.51070 0.83730 0.63680 0.03500
C 	C 	0.51520 0.95260 0.62330 -0.08100
H 	H 	0.50160 0.97520 0.63120 0.05300
C 	C 	0.47250 0.09650 0.55320 -0.02500
C 	C 	0.46010 0.04430 0.51620 -0.04600
H 	H 	0.47590 0.01460 0.51480 0.04700
C 	C 	0.42390 0.03650 0.48130 -0.04100
H 	H 	0.41560 0.00160 0.45650 0.04300
C 	C 	0.40020 0.08090 0.48340 -0.03100
H 	H 	0.37600 0.07570 0.46010 0.03700
C 	C 	0.41270 0.13320 0.52050 -0.05200
H 	H 	0.39680 0.16290 0.52190 0.07000
C 	C 	0.44880 0.14090 0.55530 -0.02600
H 	H 	0.45720 0.17590 0.58010 0.01100
C 	C 	0.53750 0.14430 0.57510 -0.02200
C 	C 	0.52210 0.14290 0.52790 -0.05500
H 	H 	0.49940 0.12260 0.50660 0.05100
C 	C 	0.54070 0.17190 0.51240 -0.03400
H 	H 	0.53040 0.17090 0.48080 0.04300
C 	C 	0.57470 0.20220 0.54420 -0.04500
H 	H 	0.58710 0.22160 0.53380 0.04400
C 	C 	0.59010 0.20360 0.59140 -0.03700
H 	H 	0.61280 0.22390 0.61260 0.05700
C 	C 	0.57150 0.17470 0.60690 -0.05300
H 	H 	0.58180 0.17560 0.63850 0.02200
C 	C 	0.55990 0.43580 0.60510 -0.02900
C 	C 	0.55740 0.48680 0.57280 -0.04400
H 	H 	0.53670 0.51550 0.55200 0.04600
C 	C 	0.58590 0.49500 0.57170 -0.04500
H 	H 	0.58430 0.52910 0.55000 0.04800
C 	C 	0.61690 0.45210 0.60280 -0.03000
H 	H 	0.63600 0.45760 0.60200 0.04000
C 	C 	0.61940 0.40110 0.63510 -0.05500
H 	H 	0.64010 0.37250 0.65600 0.06500
C 	C 	0.59090 0.39300 0.63630 -0.03000
H 	H 	0.59250 0.35890 0.65790 0.00600
C 	C 	0.49357 0.36880 0.55290 -0.00900
C 	C 	0.49850 0.34450 0.52040 -0.07400
H 	H 	0.52000 0.35350 0.52590 0.05700
C 	C 	0.47120 0.30670 0.47950 -0.01500
H 	H 	0.47440 0.29040 0.45780 0.03300
C 	C 	0.43900 0.29310 0.47120 -0.06400
H 	H 	0.42070 0.26780 0.44390 0.04900
C 	C 	0.43410 0.31740 0.50370 -0.01300
H 	H 	0.41250 0.30840 0.49820 0.04300
C 	C 	0.46140 0.35520 0.54460 -0.08200
H 	H 	0.45810 0.37150 0.56630 0.04900
C 	C 	0.50459 0.51600 0.59970 -0.01800
C 	C 	0.48450 0.55280 0.55620 -0.05300
H 	H 	0.48210 0.52850 0.53130 0.04900
C 	C 	0.46790 0.62580 0.55010 -0.03000
H 	H 	0.45450 0.65040 0.52100 0.03900
C 	C 	0.47150 0.66200 0.58740 -0.04500
H 	H 	0.46050 0.71080 0.58320 0.04500
C 	C 	0.49160 0.62520 0.63080 -0.03100
H 	H 	0.49400 0.64940 0.65580 0.04000
C 	C 	0.50820 0.55220 0.63700 -0.03600
H 	H 	0.52160 0.52750 0.66610 0.00100
C 	C 	0.62930 0.57170 0.82610 -0.02200
C 	C 	0.64790 0.64340 0.83770 -0.05500
H 	H 	0.65990 0.65520 0.82560 0.04900
C 	C 	0.64850 0.69760 0.86750 -0.03700
H 	H 	0.66090 0.74550 0.87530 0.04300
C 	C 	0.63050 0.67990 0.88560 -0.03900
H 	H 	0.63090 0.71620 0.90550 0.04300
C 	C 	0.61190 0.60820 0.87400 -0.04400
H 	H 	0.59980 0.59640 0.88610 0.06400
C 	C 	0.61130 0.55410 0.84420 -0.04400
H 	H 	0.59890 0.50610 0.83640 0.01700
C 	C 	0.67331 0.46310 0.81996 -0.02000
C 	C 	0.70264 0.50600 0.85558 -0.05400
H 	H 	0.69970 0.55110 0.86810 0.05100
C 	C 	0.73643 0.48160 0.87250 -0.03000
H 	H 	0.75610 0.51030 0.89630 0.03700
C 	C 	0.74089 0.41430 0.85380 -0.04500
H 	H 	0.76350 0.39800 0.86510 0.04300
C 	C 	0.71156 0.37140 0.81816 -0.03600
H 	H 	0.71450 0.32630 0.80560 0.05800
C 	C 	0.67777 0.39580 0.80125 -0.05200
H 	H 	0.65810 0.36710 0.77740 0.01900
C 	C 	0.61971 0.55640 0.74079 -0.00800
C 	C 	0.59118 0.60870 0.72080 -0.07700
H 	H 	0.57810 0.61100 0.73210 0.03900
C 	C 	0.58220 0.65770 0.68390 -0.01400
H 	H 	0.56310 0.69270 0.67050 0.03300
C 	C 	0.60170 0.65440 0.66690 -0.06500
H 	H 	0.59560 0.68710 0.64220 0.04900
C 	C 	0.63020 0.60210 0.68693 -0.01100
H 	H 	0.64320 0.59980 0.67560 0.03400
C 	C 	0.63920 0.55310 0.72385 -0.07500
H 	H 	0.65830 0.51810 0.73720 0.05900
C 	C 	0.68382 0.33740 0.91640 -0.00900
C 	C 	0.71786 0.36190 0.93451 -0.06900
H 	H 	0.73190 0.32990 0.93050 0.05600
C 	C 	0.73099 0.43410 0.95860 -0.01600
H 	H 	0.75380 0.45050 0.97070 0.03600
C 	C 	0.71008 0.48190 0.96458 -0.06400
H 	H 	0.71890 0.53020 0.98070 0.04900
C 	C 	0.67604 0.45740 0.94648 -0.01200
H 	H 	0.66200 0.48940 0.95050 0.03900
C 	C 	0.66291 0.38520 0.92239 -0.07900
H 	H 	0.64010 0.36880 0.91030 0.04900
C 	C 	0.66903 0.18510 0.93488 -0.00900
C 	C 	0.69117 0.20460 0.98196 -0.05400
H 	H 	0.70660 0.24780 0.99230 0.05200
C 	C 	0.69021 0.15950 0.01350 -0.02600
H 	H 	0.70500 0.17250 0.04500 0.03800
C 	C 	0.66711 0.09480 0.99800 -0.04500
H 	H 	0.66650 0.06460 0.01920 0.04200
C 	C 	0.64496 0.07530 0.95090 -0.03100
H 	H 	0.62950 0.03200 0.94060 0.05100
C 	C 	0.64593 0.12040 0.91940 -0.04100
H 	H 	0.63110 0.10730 0.88790 0.01500
C 	C 	0.69952 0.19380 0.88892 -0.02700
C 	C 	0.73056 0.16280 0.92860 -0.04900
H 	H 	0.73450 0.16510 0.95710 0.04900
C 	C 	0.75568 0.12810 0.92560 -0.04000
H 	H 	0.77650 0.10730 0.95220 0.04600
C 	C 	0.74977 0.12450 0.88300 -0.03600
H 	H 	0.76660 0.10130 0.88100 0.04100
C 	C 	0.71873 0.15560 0.84330 -0.05000
H 	H 	0.71480 0.15320 0.81480 0.05900
C 	C 	0.69360 0.19030 0.84627 -0.03900
H 	H 	0.67280 0.21110 0.81970 0.00800
Cl	Cl	0.64701 0.23950 0.72059 -0.46800
Cl	Cl	0.45720 0.04060 0.67028 -0.56400
Cl	Cl	0.41994 0.26260 0.60592 -0.55900
Cl	Cl	0.54589 0.46000 0.84180 -0.56900
P 	P 	0.60430 0.98590 0.77136 0.02100
P 	P 	0.51797 0.10360 0.59922 0.02100
P 	P 	0.52498 0.42030 0.60646 0.02100
P 	P 	0.62908 0.49670 0.78930 0.01200
P 	P 	0.66790 0.24110 0.89164 0.02100
Au	Au	0.50000 0.26747 0.75000 -0.18100
