data_crystal

_cell_length_a 23.67500
_cell_length_b 29.29900
_cell_length_c 34.53900
_cell_angle_alpha 90.00000
_cell_angle_beta  90.00000
_cell_angle_gamma 90.00000

_symmetry_space_group_name_	'P 1'
_symmetry_space_group_name_H-M	'P 1'

loop_
_symmetry_equiv_pos_as_xyz
  x,y,z

loop_
_atom_site_label
_atom_site_type_symbol
_atom_site_fract_x
_atom_site_fract_y
_atom_site_fract_z
_atom_site_charge
C 	C 	0.79310 0.33060 0.55670 0.08100
H 	H 	0.82490 0.32940 0.53990 0.01600
C 	C 	0.79440 0.36020 0.58800 -0.14100
H 	H 	0.82640 0.37920 0.59200 0.07800
C 	C 	0.74920 0.36200 0.61370 0.09100
C 	C 	0.70470 0.33390 0.60520 -0.14000
H 	H 	0.67270 0.33360 0.62180 0.07700
C 	C 	0.70550 0.30590 0.57310 0.07500
H 	H 	0.67350 0.28730 0.56780 0.02000
C 	C 	0.75080 0.39280 0.64770 -0.04100
C 	C 	0.78720 0.42950 0.65110 0.00100
H 	H 	0.81280 0.43600 0.63070 0.03000
C 	C 	0.78690 0.45700 0.68380 -0.10200
H 	H 	0.81300 0.48150 0.68550 0.08800
C 	C 	0.74960 0.44950 0.71380 0.07400
C 	C 	0.71360 0.41190 0.71140 -0.09800
H 	H 	0.68910 0.40510 0.73240 0.07700
C 	C 	0.71330 0.38480 0.67920 -0.00300
H 	H 	0.68740 0.36010 0.67780 0.02900
C 	C 	0.74940 0.47660 0.75050 -0.02200
C 	C 	0.74810 0.45030 0.78720 0.07900
C 	C 	0.78980 0.41830 0.79270 -0.10700
H 	H 	0.81870 0.41500 0.77380 0.08300
C 	C 	0.79040 0.39090 0.82520 0.00400
H 	H 	0.81960 0.36900 0.82840 0.02700
C 	C 	0.74890 0.39520 0.85330 -0.04700
C 	C 	0.70710 0.42790 0.84730 0.00800
H 	H 	0.67840 0.43170 0.86630 0.02600
C 	C 	0.70590 0.45480 0.81490 -0.11100
H 	H 	0.67650 0.47640 0.81140 0.09300
C 	C 	0.74800 0.36610 0.88820 0.09100
C 	C 	0.79870 0.35230 0.90610 -0.14300
H 	H 	0.83390 0.36320 0.89690 0.07700
C 	C 	0.79690 0.32280 0.93710 0.08100
H 	H 	0.83160 0.31440 0.94910 0.01100
C 	C 	0.70110 0.31920 0.93490 0.08300
H 	H 	0.66650 0.30880 0.94560 0.01000
C 	C 	0.69880 0.34770 0.90330 -0.14600
H 	H 	0.66340 0.35480 0.89180 0.07900
N 	N 	0.74960 0.30420 0.54931 -0.19000
N 	N 	0.74910 0.30530 0.95133 -0.12600
C 	C 	0.79310 0.83060 0.05670 0.08000
H 	H 	0.82490 0.82940 0.03990 0.01600
C 	C 	0.79440 0.86020 0.08800 -0.14200
H 	H 	0.82640 0.87920 0.09200 0.07700
C 	C 	0.74920 0.86200 0.11370 0.09000
C 	C 	0.70470 0.83390 0.10520 -0.14100
H 	H 	0.67270 0.83360 0.12180 0.07600
C 	C 	0.70550 0.80590 0.07310 0.07400
H 	H 	0.67350 0.78730 0.06780 0.01900
C 	C 	0.75080 0.89280 0.14770 -0.04200
C 	C 	0.78720 0.92950 0.15110 -0.00000
H 	H 	0.81280 0.93600 0.13070 0.03000
C 	C 	0.78690 0.95700 0.18380 -0.10200
H 	H 	0.81300 0.98150 0.18550 0.08800
C 	C 	0.74960 0.94950 0.21380 0.07500
C 	C 	0.71360 0.91190 0.21140 -0.09800
H 	H 	0.68910 0.90510 0.23240 0.07700
C 	C 	0.71330 0.88480 0.17920 -0.00300
H 	H 	0.68740 0.86010 0.17780 0.02900
C 	C 	0.74940 0.97660 0.25050 -0.02300
C 	C 	0.74810 0.95030 0.28720 0.08000
C 	C 	0.78980 0.91830 0.29270 -0.10700
H 	H 	0.81870 0.91500 0.27380 0.08300
C 	C 	0.79040 0.89090 0.32520 0.00400
H 	H 	0.81960 0.86900 0.32840 0.02700
C 	C 	0.74890 0.89520 0.35330 -0.04700
C 	C 	0.70710 0.92790 0.34730 0.00800
H 	H 	0.67840 0.93170 0.36630 0.02600
C 	C 	0.70590 0.95480 0.31490 -0.11100
H 	H 	0.67650 0.97640 0.31140 0.09300
C 	C 	0.74800 0.86610 0.38820 0.09100
C 	C 	0.79870 0.85230 0.40610 -0.14300
H 	H 	0.83390 0.86320 0.39690 0.07700
C 	C 	0.79690 0.82280 0.43710 0.08100
H 	H 	0.83160 0.81440 0.44910 0.01100
C 	C 	0.70110 0.81920 0.43490 0.08300
H 	H 	0.66650 0.80880 0.44560 0.01000
C 	C 	0.69880 0.84770 0.40330 -0.14600
H 	H 	0.66340 0.85480 0.39180 0.07900
N 	N 	0.74960 0.80420 0.04931 -0.19000
N 	N 	0.74910 0.80530 0.45133 -0.12600
C 	C 	0.79310 0.66940 0.94330 0.08000
H 	H 	0.82490 0.67060 0.96010 0.01500
C 	C 	0.79440 0.63980 0.91200 -0.14200
H 	H 	0.82640 0.62080 0.90800 0.07700
C 	C 	0.74920 0.63800 0.88630 0.09000
C 	C 	0.70470 0.66610 0.89480 -0.14100
H 	H 	0.67270 0.66640 0.87820 0.07600
C 	C 	0.70550 0.69410 0.92690 0.07400
H 	H 	0.67350 0.71270 0.93220 0.01900
C 	C 	0.75080 0.60720 0.85230 -0.04200
C 	C 	0.78720 0.57050 0.84890 -0.00000
H 	H 	0.81280 0.56400 0.86930 0.03000
C 	C 	0.78690 0.54300 0.81620 -0.10200
H 	H 	0.81300 0.51850 0.81450 0.08800
C 	C 	0.74960 0.55050 0.78620 0.07400
C 	C 	0.71360 0.58810 0.78860 -0.09800
H 	H 	0.68910 0.59490 0.76760 0.07700
C 	C 	0.71330 0.61520 0.82080 -0.00300
H 	H 	0.68740 0.63990 0.82220 0.02900
C 	C 	0.74940 0.52340 0.74950 -0.02200
C 	C 	0.74810 0.54970 0.71280 0.07900
C 	C 	0.78980 0.58170 0.70730 -0.10700
H 	H 	0.81870 0.58500 0.72620 0.08300
C 	C 	0.79040 0.60910 0.67480 0.00400
H 	H 	0.81960 0.63100 0.67160 0.02700
C 	C 	0.74890 0.60480 0.64670 -0.04700
C 	C 	0.70710 0.57210 0.65270 0.00800
H 	H 	0.67840 0.56830 0.63370 0.02600
C 	C 	0.70590 0.54520 0.68510 -0.11100
H 	H 	0.67650 0.52360 0.68860 0.09300
C 	C 	0.74800 0.63390 0.61180 0.09100
C 	C 	0.79870 0.64770 0.59390 -0.14300
H 	H 	0.83390 0.63680 0.60310 0.07700
C 	C 	0.79690 0.67720 0.56290 0.08100
H 	H 	0.83160 0.68560 0.55090 0.01100
C 	C 	0.70110 0.68080 0.56510 0.08300
H 	H 	0.66650 0.69120 0.55440 0.01000
C 	C 	0.69880 0.65230 0.59670 -0.14600
H 	H 	0.66340 0.64520 0.60820 0.07900
N 	N 	0.74960 0.69580 0.95069 -0.19000
N 	N 	0.74910 0.69470 0.54867 -0.12500
C 	C 	0.79310 0.16940 0.44330 0.08000
H 	H 	0.82490 0.17060 0.46010 0.01600
C 	C 	0.79440 0.13980 0.41200 -0.14100
H 	H 	0.82640 0.12080 0.40800 0.07700
C 	C 	0.74920 0.13800 0.38630 0.09000
C 	C 	0.70470 0.16610 0.39480 -0.14100
H 	H 	0.67270 0.16640 0.37820 0.07600
C 	C 	0.70550 0.19410 0.42690 0.07400
H 	H 	0.67350 0.21270 0.43220 0.01900
C 	C 	0.75080 0.10720 0.35230 -0.04200
C 	C 	0.78720 0.07050 0.34890 -0.00100
H 	H 	0.81280 0.06400 0.36930 0.03000
C 	C 	0.78690 0.04300 0.31620 -0.10200
H 	H 	0.81300 0.01850 0.31450 0.08800
C 	C 	0.74960 0.05050 0.28620 0.07400
C 	C 	0.71360 0.08810 0.28860 -0.09700
H 	H 	0.68910 0.09490 0.26760 0.07700
C 	C 	0.71330 0.11520 0.32080 -0.00300
H 	H 	0.68740 0.13990 0.32220 0.02900
C 	C 	0.74940 0.02340 0.24950 -0.02100
C 	C 	0.74810 0.04970 0.21280 0.07900
C 	C 	0.78980 0.08170 0.20730 -0.10600
H 	H 	0.81870 0.08500 0.22620 0.08300
C 	C 	0.79040 0.10910 0.17480 0.00300
H 	H 	0.81960 0.13100 0.17160 0.02700
C 	C 	0.74890 0.10480 0.14670 -0.04600
C 	C 	0.70710 0.07210 0.15270 0.00800
H 	H 	0.67840 0.06830 0.13370 0.02600
C 	C 	0.70590 0.04520 0.18510 -0.11000
H 	H 	0.67650 0.02360 0.18860 0.09300
C 	C 	0.74800 0.13390 0.11180 0.09100
C 	C 	0.79870 0.14770 0.09390 -0.14300
H 	H 	0.83390 0.13680 0.10310 0.07700
C 	C 	0.79690 0.17720 0.06290 0.08100
H 	H 	0.83160 0.18560 0.05090 0.01100
C 	C 	0.70110 0.18080 0.06510 0.08300
H 	H 	0.66650 0.19120 0.05440 0.01000
C 	C 	0.69880 0.15230 0.09670 -0.14600
H 	H 	0.66340 0.14520 0.10820 0.07900
N 	N 	0.74960 0.19580 0.45069 -0.19000
N 	N 	0.74910 0.19470 0.04867 -0.12500
C 	C 	0.70690 0.33060 0.44330 0.08000
H 	H 	0.67510 0.32940 0.46010 0.01500
C 	C 	0.70560 0.36020 0.41200 -0.14200
H 	H 	0.67360 0.37920 0.40800 0.07700
C 	C 	0.75080 0.36200 0.38630 0.09000
C 	C 	0.79530 0.33390 0.39480 -0.14100
H 	H 	0.82730 0.33360 0.37820 0.07600
C 	C 	0.79450 0.30590 0.42690 0.07400
H 	H 	0.82650 0.28730 0.43220 0.01900
C 	C 	0.74920 0.39280 0.35230 -0.04200
C 	C 	0.71280 0.42950 0.34890 -0.00000
H 	H 	0.68720 0.43600 0.36930 0.03000
C 	C 	0.71310 0.45700 0.31620 -0.10200
H 	H 	0.68700 0.48150 0.31450 0.08800
C 	C 	0.75040 0.44950 0.28620 0.07400
C 	C 	0.78640 0.41190 0.28860 -0.09800
H 	H 	0.81090 0.40510 0.26760 0.07700
C 	C 	0.78670 0.38480 0.32080 -0.00300
H 	H 	0.81260 0.36010 0.32220 0.02900
C 	C 	0.75060 0.47660 0.24950 -0.02200
C 	C 	0.75190 0.45030 0.21280 0.07900
C 	C 	0.71020 0.41830 0.20730 -0.10700
H 	H 	0.68130 0.41500 0.22620 0.08300
C 	C 	0.70960 0.39090 0.17480 0.00400
H 	H 	0.68040 0.36900 0.17160 0.02700
C 	C 	0.75110 0.39520 0.14670 -0.04700
C 	C 	0.79290 0.42790 0.15270 0.00800
H 	H 	0.82160 0.43170 0.13370 0.02600
C 	C 	0.79410 0.45480 0.18510 -0.11100
H 	H 	0.82350 0.47640 0.18860 0.09300
C 	C 	0.75200 0.36610 0.11180 0.09100
C 	C 	0.70130 0.35230 0.09390 -0.14300
H 	H 	0.66610 0.36320 0.10310 0.07700
C 	C 	0.70310 0.32280 0.06290 0.08100
H 	H 	0.66840 0.31440 0.05090 0.01100
C 	C 	0.79890 0.31920 0.06510 0.08300
H 	H 	0.83350 0.30880 0.05440 0.01000
C 	C 	0.80120 0.34770 0.09670 -0.14600
H 	H 	0.83660 0.35480 0.10820 0.07900
N 	N 	0.75040 0.30420 0.45069 -0.19000
N 	N 	0.75090 0.30530 0.04867 -0.12500
C 	C 	0.70690 0.83060 0.94330 0.08000
H 	H 	0.67510 0.82940 0.96010 0.01500
C 	C 	0.70560 0.86020 0.91200 -0.14200
H 	H 	0.67360 0.87920 0.90800 0.07700
C 	C 	0.75080 0.86200 0.88630 0.09000
C 	C 	0.79530 0.83390 0.89480 -0.14100
H 	H 	0.82730 0.83360 0.87820 0.07600
C 	C 	0.79450 0.80590 0.92690 0.07400
H 	H 	0.82650 0.78730 0.93220 0.01900
C 	C 	0.74920 0.89280 0.85230 -0.04200
C 	C 	0.71280 0.92950 0.84890 -0.00000
H 	H 	0.68720 0.93600 0.86930 0.03000
C 	C 	0.71310 0.95700 0.81620 -0.10200
H 	H 	0.68700 0.98150 0.81450 0.08800
C 	C 	0.75040 0.94950 0.78620 0.07500
C 	C 	0.78640 0.91190 0.78860 -0.09800
H 	H 	0.81090 0.90510 0.76760 0.07700
C 	C 	0.78670 0.88480 0.82080 -0.00300
H 	H 	0.81260 0.86010 0.82220 0.02900
C 	C 	0.75060 0.97660 0.74950 -0.02300
C 	C 	0.75190 0.95030 0.71280 0.08000
C 	C 	0.71020 0.91830 0.70730 -0.10700
H 	H 	0.68130 0.91500 0.72620 0.08300
C 	C 	0.70960 0.89090 0.67480 0.00400
H 	H 	0.68040 0.86900 0.67160 0.02700
C 	C 	0.75110 0.89520 0.64670 -0.04700
C 	C 	0.79290 0.92790 0.65270 0.00800
H 	H 	0.82160 0.93170 0.63370 0.02600
C 	C 	0.79410 0.95480 0.68510 -0.11100
H 	H 	0.82350 0.97640 0.68860 0.09300
C 	C 	0.75200 0.86610 0.61180 0.09100
C 	C 	0.70130 0.85230 0.59390 -0.14300
H 	H 	0.66610 0.86320 0.60310 0.07700
C 	C 	0.70310 0.82280 0.56290 0.08100
H 	H 	0.66840 0.81440 0.55090 0.01100
C 	C 	0.79890 0.81920 0.56510 0.08300
H 	H 	0.83350 0.80880 0.55440 0.01000
C 	C 	0.80120 0.84770 0.59670 -0.14600
H 	H 	0.83660 0.85480 0.60820 0.07900
N 	N 	0.75040 0.80420 0.95069 -0.19000
N 	N 	0.75090 0.80530 0.54867 -0.12600
C 	C 	0.70690 0.66940 0.05670 0.08000
H 	H 	0.67510 0.67060 0.03990 0.01600
C 	C 	0.70560 0.63980 0.08800 -0.14100
H 	H 	0.67360 0.62080 0.09200 0.07700
C 	C 	0.75080 0.63800 0.11370 0.09000
C 	C 	0.79530 0.66610 0.10520 -0.14100
H 	H 	0.82730 0.66640 0.12180 0.07600
C 	C 	0.79450 0.69410 0.07310 0.07400
H 	H 	0.82650 0.71270 0.06780 0.01900
C 	C 	0.74920 0.60720 0.14770 -0.04200
C 	C 	0.71280 0.57050 0.15110 -0.00000
H 	H 	0.68720 0.56400 0.13070 0.03000
C 	C 	0.71310 0.54300 0.18380 -0.10200
H 	H 	0.68700 0.51850 0.18550 0.08800
C 	C 	0.75040 0.55050 0.21380 0.07400
C 	C 	0.78640 0.58810 0.21140 -0.09800
H 	H 	0.81090 0.59490 0.23240 0.07700
C 	C 	0.78670 0.61520 0.17920 -0.00300
H 	H 	0.81260 0.63990 0.17780 0.02900
C 	C 	0.75060 0.52340 0.25050 -0.02200
C 	C 	0.75190 0.54970 0.28720 0.07900
C 	C 	0.71020 0.58170 0.29270 -0.10700
H 	H 	0.68130 0.58500 0.27380 0.08300
C 	C 	0.70960 0.60910 0.32520 0.00400
H 	H 	0.68040 0.63100 0.32840 0.02700
C 	C 	0.75110 0.60480 0.35330 -0.04700
C 	C 	0.79290 0.57210 0.34730 0.00800
H 	H 	0.82160 0.56830 0.36630 0.02600
C 	C 	0.79410 0.54520 0.31490 -0.11100
H 	H 	0.82350 0.52360 0.31140 0.09300
C 	C 	0.75200 0.63390 0.38820 0.09100
C 	C 	0.70130 0.64770 0.40610 -0.14300
H 	H 	0.66610 0.63680 0.39690 0.07700
C 	C 	0.70310 0.67720 0.43710 0.08100
H 	H 	0.66840 0.68560 0.44910 0.01100
C 	C 	0.79890 0.68080 0.43490 0.08300
H 	H 	0.83350 0.69120 0.44560 0.01000
C 	C 	0.80120 0.65230 0.40330 -0.14600
H 	H 	0.83660 0.64520 0.39180 0.07900
N 	N 	0.75040 0.69580 0.04931 -0.19000
N 	N 	0.75090 0.69470 0.45133 -0.12500
C 	C 	0.70690 0.16940 0.55670 0.08000
H 	H 	0.67510 0.17060 0.53990 0.01600
C 	C 	0.70560 0.13980 0.58800 -0.14100
H 	H 	0.67360 0.12080 0.59200 0.07700
C 	C 	0.75080 0.13800 0.61370 0.09000
C 	C 	0.79530 0.16610 0.60520 -0.14100
H 	H 	0.82730 0.16640 0.62180 0.07600
C 	C 	0.79450 0.19410 0.57310 0.07400
H 	H 	0.82650 0.21270 0.56780 0.01900
C 	C 	0.74920 0.10720 0.64770 -0.04200
C 	C 	0.71280 0.07050 0.65110 -0.00100
H 	H 	0.68720 0.06400 0.63070 0.03000
C 	C 	0.71310 0.04300 0.68380 -0.10200
H 	H 	0.68700 0.01850 0.68550 0.08800
C 	C 	0.75040 0.05050 0.71380 0.07400
C 	C 	0.78640 0.08810 0.71140 -0.09700
H 	H 	0.81090 0.09490 0.73240 0.07700
C 	C 	0.78670 0.11520 0.67920 -0.00300
H 	H 	0.81260 0.13990 0.67780 0.02900
C 	C 	0.75060 0.02340 0.75050 -0.02100
C 	C 	0.75190 0.04970 0.78720 0.07900
C 	C 	0.71020 0.08170 0.79270 -0.10600
H 	H 	0.68130 0.08500 0.77380 0.08300
C 	C 	0.70960 0.10910 0.82520 0.00300
H 	H 	0.68040 0.13100 0.82840 0.02700
C 	C 	0.75110 0.10480 0.85330 -0.04600
C 	C 	0.79290 0.07210 0.84730 0.00800
H 	H 	0.82160 0.06830 0.86630 0.02600
C 	C 	0.79410 0.04520 0.81490 -0.11000
H 	H 	0.82350 0.02360 0.81140 0.09300
C 	C 	0.75200 0.13390 0.88820 0.09100
C 	C 	0.70130 0.14770 0.90610 -0.14300
H 	H 	0.66610 0.13680 0.89690 0.07700
C 	C 	0.70310 0.17720 0.93710 0.08100
H 	H 	0.66840 0.18560 0.94910 0.01100
C 	C 	0.79890 0.18080 0.93490 0.08300
H 	H 	0.83350 0.19120 0.94560 0.01000
C 	C 	0.80120 0.15230 0.90330 -0.14600
H 	H 	0.83660 0.14520 0.89180 0.07900
N 	N 	0.75040 0.19580 0.54931 -0.19000
N 	N 	0.75090 0.19470 0.95133 -0.12600
Cl	Cl	0.64680 0.25000 0.50000 -0.46300
Cl	Cl	0.64680 0.75000 -0.00000 -0.46200
Cl	Cl	0.85320 0.25000 0.50000 -0.46300
Cl	Cl	0.85320 0.75000 -0.00000 -0.46200
Cu	Cu	0.75000 0.25000 0.50000 0.88900
Cu	Cu	0.75000 0.75000 -0.00000 0.88900
C 	C 	0.20690 0.66940 0.44330 0.08000
H 	H 	0.17510 0.67060 0.46010 0.01500
C 	C 	0.20560 0.63980 0.41200 -0.14200
H 	H 	0.17360 0.62080 0.40800 0.07700
C 	C 	0.25080 0.63800 0.38630 0.09000
C 	C 	0.29530 0.66610 0.39480 -0.14100
H 	H 	0.32730 0.66640 0.37820 0.07600
C 	C 	0.29450 0.69410 0.42690 0.07400
H 	H 	0.32650 0.71270 0.43220 0.01900
C 	C 	0.24920 0.60720 0.35230 -0.04200
C 	C 	0.21280 0.57050 0.34890 -0.00000
H 	H 	0.18720 0.56400 0.36930 0.03000
C 	C 	0.21310 0.54300 0.31620 -0.10200
H 	H 	0.18700 0.51850 0.31450 0.08800
C 	C 	0.25040 0.55050 0.28620 0.07400
C 	C 	0.28640 0.58810 0.28860 -0.09800
H 	H 	0.31090 0.59490 0.26760 0.07700
C 	C 	0.28670 0.61520 0.32080 -0.00300
H 	H 	0.31260 0.63990 0.32220 0.02900
C 	C 	0.25060 0.52340 0.24950 -0.02200
C 	C 	0.25190 0.54970 0.21280 0.07900
C 	C 	0.21020 0.58170 0.20730 -0.10700
H 	H 	0.18130 0.58500 0.22620 0.08300
C 	C 	0.20960 0.60910 0.17480 0.00400
H 	H 	0.18040 0.63100 0.17160 0.02700
C 	C 	0.25110 0.60480 0.14670 -0.04700
C 	C 	0.29290 0.57210 0.15270 0.00800
H 	H 	0.32160 0.56830 0.13370 0.02600
C 	C 	0.29410 0.54520 0.18510 -0.11100
H 	H 	0.32350 0.52360 0.18860 0.09300
C 	C 	0.25200 0.63390 0.11180 0.09100
C 	C 	0.20130 0.64770 0.09390 -0.14300
H 	H 	0.16610 0.63680 0.10310 0.07700
C 	C 	0.20310 0.67720 0.06290 0.08100
H 	H 	0.16840 0.68560 0.05090 0.01100
C 	C 	0.29890 0.68080 0.06510 0.08300
H 	H 	0.33350 0.69120 0.05440 0.01000
C 	C 	0.30120 0.65230 0.09670 -0.14600
H 	H 	0.33660 0.64520 0.10820 0.07900
N 	N 	0.25040 0.69580 0.45069 -0.19000
N 	N 	0.25090 0.69470 0.04867 -0.12500
C 	C 	0.20690 0.16940 0.94330 0.08000
H 	H 	0.17510 0.17060 0.96010 0.01500
C 	C 	0.20560 0.13980 0.91200 -0.14100
H 	H 	0.17360 0.12080 0.90800 0.07700
C 	C 	0.25080 0.13800 0.88630 0.09000
C 	C 	0.29530 0.16610 0.89480 -0.14100
H 	H 	0.32730 0.16640 0.87820 0.07600
C 	C 	0.29450 0.19410 0.92690 0.07400
H 	H 	0.32650 0.21270 0.93220 0.01900
C 	C 	0.24920 0.10720 0.85230 -0.04200
C 	C 	0.21280 0.07050 0.84890 -0.00100
H 	H 	0.18720 0.06400 0.86930 0.03000
C 	C 	0.21310 0.04300 0.81620 -0.10200
H 	H 	0.18700 0.01850 0.81450 0.08800
C 	C 	0.25040 0.05050 0.78620 0.07400
C 	C 	0.28640 0.08810 0.78860 -0.09700
H 	H 	0.31090 0.09490 0.76760 0.07700
C 	C 	0.28670 0.11520 0.82080 -0.00300
H 	H 	0.31260 0.13990 0.82220 0.02900
C 	C 	0.25060 0.02340 0.74950 -0.02100
C 	C 	0.25190 0.04970 0.71280 0.07900
C 	C 	0.21020 0.08170 0.70730 -0.10600
H 	H 	0.18130 0.08500 0.72620 0.08300
C 	C 	0.20960 0.10910 0.67480 0.00300
H 	H 	0.18040 0.13100 0.67160 0.02700
C 	C 	0.25110 0.10480 0.64670 -0.04600
C 	C 	0.29290 0.07210 0.65270 0.00800
H 	H 	0.32160 0.06830 0.63370 0.02600
C 	C 	0.29410 0.04520 0.68510 -0.11000
H 	H 	0.32350 0.02360 0.68860 0.09300
C 	C 	0.25200 0.13390 0.61180 0.09100
C 	C 	0.20130 0.14770 0.59390 -0.14300
H 	H 	0.16610 0.13680 0.60310 0.07700
C 	C 	0.20310 0.17720 0.56290 0.08100
H 	H 	0.16840 0.18560 0.55090 0.01100
C 	C 	0.29890 0.18080 0.56510 0.08300
H 	H 	0.33350 0.19120 0.55440 0.01000
C 	C 	0.30120 0.15230 0.59670 -0.14600
H 	H 	0.33660 0.14520 0.60820 0.07900
N 	N 	0.25040 0.19580 0.95069 -0.19000
N 	N 	0.25090 0.19470 0.54867 -0.12500
C 	C 	0.20690 0.33060 0.05670 0.08000
H 	H 	0.17510 0.32940 0.03990 0.01600
C 	C 	0.20560 0.36020 0.08800 -0.14100
H 	H 	0.17360 0.37920 0.09200 0.07700
C 	C 	0.25080 0.36200 0.11370 0.09000
C 	C 	0.29530 0.33390 0.10520 -0.14100
H 	H 	0.32730 0.33360 0.12180 0.07600
C 	C 	0.29450 0.30590 0.07310 0.07400
H 	H 	0.32650 0.28730 0.06780 0.01900
C 	C 	0.24920 0.39280 0.14770 -0.04200
C 	C 	0.21280 0.42950 0.15110 -0.00000
H 	H 	0.18720 0.43600 0.13070 0.03000
C 	C 	0.21310 0.45700 0.18380 -0.10200
H 	H 	0.18700 0.48150 0.18550 0.08800
C 	C 	0.25040 0.44950 0.21380 0.07400
C 	C 	0.28640 0.41190 0.21140 -0.09800
H 	H 	0.31090 0.40510 0.23240 0.07700
C 	C 	0.28670 0.38480 0.17920 -0.00300
H 	H 	0.31260 0.36010 0.17780 0.02900
C 	C 	0.25060 0.47660 0.25050 -0.02200
C 	C 	0.25190 0.45030 0.28720 0.07900
C 	C 	0.21020 0.41830 0.29270 -0.10700
H 	H 	0.18130 0.41500 0.27380 0.08300
C 	C 	0.20960 0.39090 0.32520 0.00400
H 	H 	0.18040 0.36900 0.32840 0.02700
C 	C 	0.25110 0.39520 0.35330 -0.04700
C 	C 	0.29290 0.42790 0.34730 0.00800
H 	H 	0.32160 0.43170 0.36630 0.02600
C 	C 	0.29410 0.45480 0.31490 -0.11100
H 	H 	0.32350 0.47640 0.31140 0.09300
C 	C 	0.25200 0.36610 0.38820 0.09100
C 	C 	0.20130 0.35230 0.40610 -0.14300
H 	H 	0.16610 0.36320 0.39690 0.07700
C 	C 	0.20310 0.32280 0.43710 0.08100
H 	H 	0.16840 0.31440 0.44910 0.01100
C 	C 	0.29890 0.31920 0.43490 0.08300
H 	H 	0.33350 0.30880 0.44560 0.01000
C 	C 	0.30120 0.34770 0.40330 -0.14600
H 	H 	0.33660 0.35480 0.39180 0.07900
N 	N 	0.25040 0.30420 0.04931 -0.19000
N 	N 	0.25090 0.30530 0.45133 -0.12500
C 	C 	0.20690 0.83060 0.55670 0.08000
H 	H 	0.17510 0.82940 0.53990 0.01500
C 	C 	0.20560 0.86020 0.58800 -0.14200
H 	H 	0.17360 0.87920 0.59200 0.07700
C 	C 	0.25080 0.86200 0.61370 0.09000
C 	C 	0.29530 0.83390 0.60520 -0.14100
H 	H 	0.32730 0.83360 0.62180 0.07600
C 	C 	0.29450 0.80590 0.57310 0.07400
H 	H 	0.32650 0.78730 0.56780 0.01900
C 	C 	0.24920 0.89280 0.64770 -0.04200
C 	C 	0.21280 0.92950 0.65110 -0.00000
H 	H 	0.18720 0.93600 0.63070 0.03000
C 	C 	0.21310 0.95700 0.68380 -0.10200
H 	H 	0.18700 0.98150 0.68550 0.08800
C 	C 	0.25040 0.94950 0.71380 0.07500
C 	C 	0.28640 0.91190 0.71140 -0.09800
H 	H 	0.31090 0.90510 0.73240 0.07700
C 	C 	0.28670 0.88480 0.67920 -0.00300
H 	H 	0.31260 0.86010 0.67780 0.02900
C 	C 	0.25060 0.97660 0.75050 -0.02300
C 	C 	0.25190 0.95030 0.78720 0.08000
C 	C 	0.21020 0.91830 0.79270 -0.10700
H 	H 	0.18130 0.91500 0.77380 0.08300
C 	C 	0.20960 0.89090 0.82520 0.00400
H 	H 	0.18040 0.86900 0.82840 0.02700
C 	C 	0.25110 0.89520 0.85330 -0.04700
C 	C 	0.29290 0.92790 0.84730 0.00800
H 	H 	0.32160 0.93170 0.86630 0.02600
C 	C 	0.29410 0.95480 0.81490 -0.11100
H 	H 	0.32350 0.97640 0.81140 0.09300
C 	C 	0.25200 0.86610 0.88820 0.09100
C 	C 	0.20130 0.85230 0.90610 -0.14300
H 	H 	0.16610 0.86320 0.89690 0.07700
C 	C 	0.20310 0.82280 0.93710 0.08100
H 	H 	0.16840 0.81440 0.94910 0.01100
C 	C 	0.29890 0.81920 0.93490 0.08300
H 	H 	0.33350 0.80880 0.94560 0.01000
C 	C 	0.30120 0.84770 0.90330 -0.14600
H 	H 	0.33660 0.85480 0.89180 0.07900
N 	N 	0.25040 0.80420 0.54931 -0.19000
N 	N 	0.25090 0.80530 0.95133 -0.12600
C 	C 	0.29310 0.66940 0.55670 0.08000
H 	H 	0.32490 0.67060 0.53990 0.01500
C 	C 	0.29440 0.63980 0.58800 -0.14200
H 	H 	0.32640 0.62080 0.59200 0.07700
C 	C 	0.24920 0.63800 0.61370 0.09000
C 	C 	0.20470 0.66610 0.60520 -0.14100
H 	H 	0.17270 0.66640 0.62180 0.07600
C 	C 	0.20550 0.69410 0.57310 0.07400
H 	H 	0.17350 0.71270 0.56780 0.01900
C 	C 	0.25080 0.60720 0.64770 -0.04200
C 	C 	0.28720 0.57050 0.65110 -0.00000
H 	H 	0.31280 0.56400 0.63070 0.03000
C 	C 	0.28690 0.54300 0.68380 -0.10200
H 	H 	0.31300 0.51850 0.68550 0.08800
C 	C 	0.24960 0.55050 0.71380 0.07400
C 	C 	0.21360 0.58810 0.71140 -0.09800
H 	H 	0.18910 0.59490 0.73240 0.07700
C 	C 	0.21330 0.61520 0.67920 -0.00300
H 	H 	0.18740 0.63990 0.67780 0.02900
C 	C 	0.24940 0.52340 0.75050 -0.02200
C 	C 	0.24810 0.54970 0.78720 0.07900
C 	C 	0.28980 0.58170 0.79270 -0.10700
H 	H 	0.31870 0.58500 0.77380 0.08300
C 	C 	0.29040 0.60910 0.82520 0.00400
H 	H 	0.31960 0.63100 0.82840 0.02700
C 	C 	0.24890 0.60480 0.85330 -0.04700
C 	C 	0.20710 0.57210 0.84730 0.00800
H 	H 	0.17840 0.56830 0.86630 0.02600
C 	C 	0.20590 0.54520 0.81490 -0.11100
H 	H 	0.17650 0.52360 0.81140 0.09300
C 	C 	0.24800 0.63390 0.88820 0.09100
C 	C 	0.29870 0.64770 0.90610 -0.14300
H 	H 	0.33390 0.63680 0.89690 0.07700
C 	C 	0.29690 0.67720 0.93710 0.08100
H 	H 	0.33160 0.68560 0.94910 0.01100
C 	C 	0.20110 0.68080 0.93490 0.08300
H 	H 	0.16650 0.69120 0.94560 0.01000
C 	C 	0.19880 0.65230 0.90330 -0.14600
H 	H 	0.16340 0.64520 0.89180 0.07900
N 	N 	0.24960 0.69580 0.54931 -0.19000
N 	N 	0.24910 0.69470 0.95133 -0.12600
C 	C 	0.29310 0.16940 0.05670 0.08000
H 	H 	0.32490 0.17060 0.03990 0.01600
C 	C 	0.29440 0.13980 0.08800 -0.14100
H 	H 	0.32640 0.12080 0.09200 0.07700
C 	C 	0.24920 0.13800 0.11370 0.09000
C 	C 	0.20470 0.16610 0.10520 -0.14100
H 	H 	0.17270 0.16640 0.12180 0.07600
C 	C 	0.20550 0.19410 0.07310 0.07400
H 	H 	0.17350 0.21270 0.06780 0.01900
C 	C 	0.25080 0.10720 0.14770 -0.04200
C 	C 	0.28720 0.07050 0.15110 -0.00100
H 	H 	0.31280 0.06400 0.13070 0.03000
C 	C 	0.28690 0.04300 0.18380 -0.10200
H 	H 	0.31300 0.01850 0.18550 0.08800
C 	C 	0.24960 0.05050 0.21380 0.07400
C 	C 	0.21360 0.08810 0.21140 -0.09700
H 	H 	0.18910 0.09490 0.23240 0.07700
C 	C 	0.21330 0.11520 0.17920 -0.00300
H 	H 	0.18740 0.13990 0.17780 0.02900
C 	C 	0.24940 0.02340 0.25050 -0.02100
C 	C 	0.24810 0.04970 0.28720 0.07900
C 	C 	0.28980 0.08170 0.29270 -0.10600
H 	H 	0.31870 0.08500 0.27380 0.08300
C 	C 	0.29040 0.10910 0.32520 0.00300
H 	H 	0.31960 0.13100 0.32840 0.02700
C 	C 	0.24890 0.10480 0.35330 -0.04600
C 	C 	0.20710 0.07210 0.34730 0.00800
H 	H 	0.17840 0.06830 0.36630 0.02600
C 	C 	0.20590 0.04520 0.31490 -0.11000
H 	H 	0.17650 0.02360 0.31140 0.09300
C 	C 	0.24800 0.13390 0.38820 0.09100
C 	C 	0.29870 0.14770 0.40610 -0.14300
H 	H 	0.33390 0.13680 0.39690 0.07700
C 	C 	0.29690 0.17720 0.43710 0.08100
H 	H 	0.33160 0.18560 0.44910 0.01100
C 	C 	0.20110 0.18080 0.43490 0.08300
H 	H 	0.16650 0.19120 0.44560 0.01000
C 	C 	0.19880 0.15230 0.40330 -0.14600
H 	H 	0.16340 0.14520 0.39180 0.07900
N 	N 	0.24960 0.19580 0.04931 -0.19000
N 	N 	0.24910 0.19470 0.45133 -0.12500
C 	C 	0.29310 0.33060 0.94330 0.08000
H 	H 	0.32490 0.32940 0.96010 0.01500
C 	C 	0.29440 0.36020 0.91200 -0.14200
H 	H 	0.32640 0.37920 0.90800 0.07700
C 	C 	0.24920 0.36200 0.88630 0.09000
C 	C 	0.20470 0.33390 0.89480 -0.14100
H 	H 	0.17270 0.33360 0.87820 0.07600
C 	C 	0.20550 0.30590 0.92690 0.07400
H 	H 	0.17350 0.28730 0.93220 0.01900
C 	C 	0.25080 0.39280 0.85230 -0.04200
C 	C 	0.28720 0.42950 0.84890 -0.00000
H 	H 	0.31280 0.43600 0.86930 0.03000
C 	C 	0.28690 0.45700 0.81620 -0.10200
H 	H 	0.31300 0.48150 0.81450 0.08800
C 	C 	0.24960 0.44950 0.78620 0.07400
C 	C 	0.21360 0.41190 0.78860 -0.09800
H 	H 	0.18910 0.40510 0.76760 0.07700
C 	C 	0.21330 0.38480 0.82080 -0.00300
H 	H 	0.18740 0.36010 0.82220 0.02900
C 	C 	0.24940 0.47660 0.74950 -0.02200
C 	C 	0.24810 0.45030 0.71280 0.07900
C 	C 	0.28980 0.41830 0.70730 -0.10700
H 	H 	0.31870 0.41500 0.72620 0.08300
C 	C 	0.29040 0.39090 0.67480 0.00400
H 	H 	0.31960 0.36900 0.67160 0.02700
C 	C 	0.24890 0.39520 0.64670 -0.04700
C 	C 	0.20710 0.42790 0.65270 0.00800
H 	H 	0.17840 0.43170 0.63370 0.02600
C 	C 	0.20590 0.45480 0.68510 -0.11100
H 	H 	0.17650 0.47640 0.68860 0.09300
C 	C 	0.24800 0.36610 0.61180 0.09100
C 	C 	0.29870 0.35230 0.59390 -0.14300
H 	H 	0.33390 0.36320 0.60310 0.07700
C 	C 	0.29690 0.32280 0.56290 0.08100
H 	H 	0.33160 0.31440 0.55090 0.01100
C 	C 	0.20110 0.31920 0.56510 0.08300
H 	H 	0.16650 0.30880 0.55440 0.01000
C 	C 	0.19880 0.34770 0.59670 -0.14600
H 	H 	0.16340 0.35480 0.60820 0.07900
N 	N 	0.24960 0.30420 0.95069 -0.19000
N 	N 	0.24910 0.30530 0.54867 -0.12500
C 	C 	0.29310 0.83060 0.44330 0.08000
H 	H 	0.32490 0.82940 0.46010 0.01500
C 	C 	0.29440 0.86020 0.41200 -0.14200
H 	H 	0.32640 0.87920 0.40800 0.07700
C 	C 	0.24920 0.86200 0.38630 0.09000
C 	C 	0.20470 0.83390 0.39480 -0.14100
H 	H 	0.17270 0.83360 0.37820 0.07600
C 	C 	0.20550 0.80590 0.42690 0.07400
H 	H 	0.17350 0.78730 0.43220 0.01900
C 	C 	0.25080 0.89280 0.35230 -0.04200
C 	C 	0.28720 0.92950 0.34890 -0.00000
H 	H 	0.31280 0.93600 0.36930 0.03000
C 	C 	0.28690 0.95700 0.31620 -0.10200
H 	H 	0.31300 0.98150 0.31450 0.08800
C 	C 	0.24960 0.94950 0.28620 0.07500
C 	C 	0.21360 0.91190 0.28860 -0.09800
H 	H 	0.18910 0.90510 0.26760 0.07700
C 	C 	0.21330 0.88480 0.32080 -0.00300
H 	H 	0.18740 0.86010 0.32220 0.02900
C 	C 	0.24940 0.97660 0.24950 -0.02300
C 	C 	0.24810 0.95030 0.21280 0.08000
C 	C 	0.28980 0.91830 0.20730 -0.10700
H 	H 	0.31870 0.91500 0.22620 0.08300
C 	C 	0.29040 0.89090 0.17480 0.00400
H 	H 	0.31960 0.86900 0.17160 0.02700
C 	C 	0.24890 0.89520 0.14670 -0.04700
C 	C 	0.20710 0.92790 0.15270 0.00800
H 	H 	0.17840 0.93170 0.13370 0.02600
C 	C 	0.20590 0.95480 0.18510 -0.11100
H 	H 	0.17650 0.97640 0.18860 0.09300
C 	C 	0.24800 0.86610 0.11180 0.09100
C 	C 	0.29870 0.85230 0.09390 -0.14300
H 	H 	0.33390 0.86320 0.10310 0.07700
C 	C 	0.29690 0.82280 0.06290 0.08100
H 	H 	0.33160 0.81440 0.05090 0.01100
C 	C 	0.20110 0.81920 0.06510 0.08300
H 	H 	0.16650 0.80880 0.05440 0.01000
C 	C 	0.19880 0.84770 0.09670 -0.14600
H 	H 	0.16340 0.85480 0.10820 0.07900
N 	N 	0.24960 0.80420 0.45069 -0.19000
N 	N 	0.24910 0.80530 0.04867 -0.12500
Cl	Cl	0.35320 0.75000 0.50000 -0.46300
Cl	Cl	0.35320 0.25000 -0.00000 -0.46200
Cl	Cl	0.14680 0.75000 0.50000 -0.46300
Cl	Cl	0.14680 0.25000 -0.00000 -0.46200
Cu	Cu	0.25000 0.75000 0.50000 0.88900
Cu	Cu	0.25000 0.25000 -0.00000 0.88900
C 	C 	0.53830 0.44890 0.82780 0.09600
H 	H 	0.57160 0.46560 0.82190 0.00800
C 	C 	0.53840 0.42240 0.86060 -0.16200
H 	H 	0.57040 0.42270 0.87710 0.08300
C 	C 	0.49330 0.39570 0.86970 0.10900
C 	C 	0.44840 0.40030 0.84560 -0.15700
H 	H 	0.41460 0.38400 0.85110 0.08200
C 	C 	0.45080 0.42790 0.81360 0.08700
H 	H 	0.41850 0.42940 0.79730 0.01600
C 	C 	0.49320 0.36450 0.90370 -0.05300
C 	C 	0.53380 0.36730 0.93300 0.00500
H 	H 	0.56170 0.39060 0.93170 0.02500
C 	C 	0.53440 0.33790 0.96330 -0.10500
H 	H 	0.56260 0.34100 0.98280 0.06700
C 	C 	0.49460 0.30320 0.96640 0.07100
C 	C 	0.45470 0.30000 0.93770 -0.10800
H 	H 	0.42710 0.27660 0.93910 0.09200
C 	C 	0.45350 0.32950 0.90710 0.00800
H 	H 	0.42520 0.32610 0.88780 0.02700
N 	N 	0.49570 0.45270 0.80414 -0.19600
C 	C 	0.53830 0.94890 0.32780 0.09600
H 	H 	0.57160 0.96560 0.32190 0.00800
C 	C 	0.53840 0.92240 0.36060 -0.16200
H 	H 	0.57040 0.92270 0.37710 0.08300
C 	C 	0.49330 0.89570 0.36970 0.10900
C 	C 	0.44840 0.90030 0.34560 -0.15700
H 	H 	0.41460 0.88400 0.35110 0.08200
C 	C 	0.45080 0.92790 0.31360 0.08700
H 	H 	0.41850 0.92940 0.29730 0.01600
C 	C 	0.49320 0.86450 0.40370 -0.05400
C 	C 	0.53380 0.86730 0.43300 0.00600
H 	H 	0.56170 0.89060 0.43170 0.02500
C 	C 	0.53440 0.83790 0.46330 -0.10600
H 	H 	0.56260 0.84100 0.48280 0.06800
C 	C 	0.49460 0.80320 0.46640 0.07200
C 	C 	0.45470 0.80000 0.43770 -0.10900
H 	H 	0.42710 0.77660 0.43910 0.09300
C 	C 	0.45350 0.82950 0.40710 0.00900
H 	H 	0.42520 0.82610 0.38780 0.02600
N 	N 	0.49570 0.95270 0.30414 -0.19600
C 	C 	0.53830 0.55110 0.67220 0.09600
H 	H 	0.57160 0.53440 0.67810 0.00800
C 	C 	0.53840 0.57760 0.63940 -0.16200
H 	H 	0.57040 0.57730 0.62290 0.08300
C 	C 	0.49330 0.60430 0.63030 0.10900
C 	C 	0.44840 0.59970 0.65440 -0.15700
H 	H 	0.41460 0.61600 0.64890 0.08200
C 	C 	0.45080 0.57210 0.68640 0.08700
H 	H 	0.41850 0.57060 0.70270 0.01600
C 	C 	0.49320 0.63550 0.59630 -0.05400
C 	C 	0.53380 0.63270 0.56700 0.00600
H 	H 	0.56170 0.60940 0.56830 0.02500
C 	C 	0.53440 0.66210 0.53670 -0.10600
H 	H 	0.56260 0.65900 0.51720 0.06800
C 	C 	0.49460 0.69680 0.53360 0.07200
C 	C 	0.45470 0.70000 0.56230 -0.10900
H 	H 	0.42710 0.72340 0.56090 0.09300
C 	C 	0.45350 0.67050 0.59290 0.00900
H 	H 	0.42520 0.67390 0.61220 0.02600
N 	N 	0.49570 0.54730 0.69586 -0.19600
C 	C 	0.53830 0.05110 0.17220 0.09600
H 	H 	0.57160 0.03440 0.17810 0.00800
C 	C 	0.53840 0.07760 0.13940 -0.16200
H 	H 	0.57040 0.07730 0.12290 0.08300
C 	C 	0.49330 0.10430 0.13030 0.10900
C 	C 	0.44840 0.09970 0.15440 -0.15700
H 	H 	0.41460 0.11600 0.14890 0.08200
C 	C 	0.45080 0.07210 0.18640 0.08700
H 	H 	0.41850 0.07060 0.20270 0.01600
C 	C 	0.49320 0.13550 0.09630 -0.05400
C 	C 	0.53380 0.13270 0.06700 0.00600
H 	H 	0.56170 0.10940 0.06830 0.02500
C 	C 	0.53440 0.16210 0.03670 -0.10600
H 	H 	0.56260 0.15900 0.01720 0.06800
C 	C 	0.49460 0.19680 0.03360 0.07300
C 	C 	0.45470 0.20000 0.06230 -0.10900
H 	H 	0.42710 0.22340 0.06090 0.09300
C 	C 	0.45350 0.17050 0.09290 0.00900
H 	H 	0.42520 0.17390 0.11220 0.02600
N 	N 	0.49570 0.04730 0.19586 -0.19600
C 	C 	0.49700 0.72770 0.49850 -0.02900
C 	C 	0.49790 0.70310 0.46050 0.06100
C 	C 	0.45570 0.67100 0.45340 -0.08900
H 	H 	0.42760 0.66570 0.47250 0.07900
C 	C 	0.45400 0.64680 0.41930 -0.01100
H 	H 	0.42370 0.62630 0.41450 0.03500
C 	C 	0.49670 0.65250 0.39170 -0.03400
C 	C 	0.53770 0.68420 0.39910 -0.01000
H 	H 	0.56670 0.68870 0.38050 0.03200
C 	C 	0.53840 0.70970 0.43230 -0.09400
H 	H 	0.56700 0.73200 0.43600 0.06500
C 	C 	0.49790 0.62310 0.35630 0.08300
C 	C 	0.44870 0.60740 0.33890 -0.13300
H 	H 	0.41290 0.61720 0.34810 0.07400
C 	C 	0.45210 0.57760 0.30790 0.06700
H 	H 	0.41780 0.56750 0.29640 0.02600
C 	C 	0.54660 0.57740 0.30960 0.07300
H 	H 	0.58180 0.56680 0.29990 0.02000
C 	C 	0.54760 0.60800 0.34040 -0.13600
H 	H 	0.58270 0.61850 0.35040 0.07300
N 	N 	0.50040 0.56210 0.29307 -0.18600
C 	C 	0.49700 0.22770 0.99850 -0.03000
C 	C 	0.49790 0.20310 0.96050 0.06100
C 	C 	0.45570 0.17100 0.95340 -0.09000
H 	H 	0.42760 0.16570 0.97250 0.07900
C 	C 	0.45400 0.14680 0.91930 -0.01100
H 	H 	0.42370 0.12630 0.91450 0.03500
C 	C 	0.49670 0.15250 0.89170 -0.03400
C 	C 	0.53770 0.18420 0.89910 -0.00900
H 	H 	0.56670 0.18870 0.88050 0.03200
C 	C 	0.53840 0.20970 0.93230 -0.09400
H 	H 	0.56700 0.23200 0.93600 0.06500
C 	C 	0.49790 0.12310 0.85630 0.08300
C 	C 	0.44870 0.10740 0.83890 -0.13300
H 	H 	0.41290 0.11720 0.84810 0.07400
C 	C 	0.45210 0.07760 0.80790 0.06700
H 	H 	0.41780 0.06750 0.79640 0.02600
C 	C 	0.54660 0.07740 0.80960 0.07300
H 	H 	0.58180 0.06680 0.79990 0.02000
C 	C 	0.54760 0.10800 0.84040 -0.13600
H 	H 	0.58270 0.11850 0.85040 0.07300
N 	N 	0.50040 0.06210 0.79307 -0.18600
C 	C 	0.49700 0.27230 0.00150 -0.02800
C 	C 	0.49790 0.29690 0.03950 0.06000
C 	C 	0.45570 0.32900 0.04660 -0.08900
H 	H 	0.42760 0.33430 0.02750 0.07900
C 	C 	0.45400 0.35320 0.08070 -0.01100
H 	H 	0.42370 0.37370 0.08550 0.03500
C 	C 	0.49670 0.34750 0.10830 -0.03400
C 	C 	0.53770 0.31580 0.10090 -0.01000
H 	H 	0.56670 0.31130 0.11950 0.03200
C 	C 	0.53840 0.29030 0.06770 -0.09400
H 	H 	0.56700 0.26800 0.06400 0.06500
C 	C 	0.49790 0.37690 0.14370 0.08300
C 	C 	0.44870 0.39260 0.16110 -0.13300
H 	H 	0.41290 0.38280 0.15190 0.07400
C 	C 	0.45210 0.42240 0.19210 0.06700
H 	H 	0.41780 0.43250 0.20360 0.02600
C 	C 	0.54660 0.42260 0.19040 0.07300
H 	H 	0.58180 0.43320 0.20010 0.02000
C 	C 	0.54760 0.39200 0.15960 -0.13600
H 	H 	0.58270 0.38150 0.14960 0.07300
N 	N 	0.50040 0.43790 0.20693 -0.18600
C 	C 	0.49700 0.77230 0.50150 -0.02900
C 	C 	0.49790 0.79690 0.53950 0.06100
C 	C 	0.45570 0.82900 0.54660 -0.09000
H 	H 	0.42760 0.83430 0.52750 0.07900
C 	C 	0.45400 0.85320 0.58070 -0.01100
H 	H 	0.42370 0.87370 0.58550 0.03500
C 	C 	0.49670 0.84750 0.60830 -0.03400
C 	C 	0.53770 0.81580 0.60090 -0.01000
H 	H 	0.56670 0.81130 0.61950 0.03200
C 	C 	0.53840 0.79030 0.56770 -0.09400
H 	H 	0.56700 0.76800 0.56400 0.06500
C 	C 	0.49790 0.87690 0.64370 0.08300
C 	C 	0.44870 0.89260 0.66110 -0.13300
H 	H 	0.41290 0.88280 0.65190 0.07400
C 	C 	0.45210 0.92240 0.69210 0.06700
H 	H 	0.41780 0.93250 0.70360 0.02600
C 	C 	0.54660 0.92260 0.69040 0.07300
H 	H 	0.58180 0.93320 0.70010 0.01900
C 	C 	0.54760 0.89200 0.65960 -0.13600
H 	H 	0.58270 0.88150 0.64960 0.07300
N 	N 	0.50040 0.93790 0.70693 -0.18600
Cl	Cl	0.39418 0.50000 0.75000 -0.46100
Cl	Cl	0.60139 0.50000 0.75000 -0.46000
Cu	Cu	0.49774 0.50000 0.75000 0.88800
Cl	Cl	0.39418 0.00000 0.25000 -0.46000
Cl	Cl	0.60139 0.00000 0.25000 -0.46000
Cu	Cu	0.49774 0.00000 0.25000 0.88800
C 	C 	0.50300 0.27230 0.50150 -0.02900
C 	C 	0.50210 0.29690 0.53950 0.06100
C 	C 	0.54430 0.32900 0.54660 -0.08900
H 	H 	0.57240 0.33430 0.52750 0.07900
C 	C 	0.54600 0.35320 0.58070 -0.01100
H 	H 	0.57630 0.37370 0.58550 0.03500
C 	C 	0.50330 0.34750 0.60830 -0.03400
C 	C 	0.46230 0.31580 0.60090 -0.01000
H 	H 	0.43330 0.31130 0.61950 0.03200
C 	C 	0.46160 0.29030 0.56770 -0.09400
H 	H 	0.43300 0.26800 0.56400 0.06500
C 	C 	0.50210 0.37690 0.64370 0.08300
C 	C 	0.55130 0.39260 0.66110 -0.13300
H 	H 	0.58710 0.38280 0.65190 0.07400
C 	C 	0.54790 0.42240 0.69210 0.06700
H 	H 	0.58220 0.43250 0.70360 0.02600
C 	C 	0.45340 0.42260 0.69040 0.07300
H 	H 	0.41820 0.43320 0.70010 0.02000
C 	C 	0.45240 0.39200 0.65960 -0.13600
H 	H 	0.41730 0.38150 0.64960 0.07300
N 	N 	0.49960 0.43790 0.70693 -0.18600
C 	C 	0.50300 0.77230 0.00150 -0.02800
C 	C 	0.50210 0.79690 0.03950 0.06000
C 	C 	0.54430 0.82900 0.04660 -0.08900
H 	H 	0.57240 0.83430 0.02750 0.07900
C 	C 	0.54600 0.85320 0.08070 -0.01100
H 	H 	0.57630 0.87370 0.08550 0.03500
C 	C 	0.50330 0.84750 0.10830 -0.03400
C 	C 	0.46230 0.81580 0.10090 -0.01000
H 	H 	0.43330 0.81130 0.11950 0.03200
C 	C 	0.46160 0.79030 0.06770 -0.09400
H 	H 	0.43300 0.76800 0.06400 0.06500
C 	C 	0.50210 0.87690 0.14370 0.08300
C 	C 	0.55130 0.89260 0.16110 -0.13300
H 	H 	0.58710 0.88280 0.15190 0.07400
C 	C 	0.54790 0.92240 0.19210 0.06700
H 	H 	0.58220 0.93250 0.20360 0.02600
C 	C 	0.45340 0.92260 0.19040 0.07300
H 	H 	0.41820 0.93320 0.20010 0.01900
C 	C 	0.45240 0.89200 0.15960 -0.13600
H 	H 	0.41730 0.88150 0.14960 0.07300
N 	N 	0.49960 0.93790 0.20693 -0.18600
C 	C 	0.50300 0.72770 0.99850 -0.03000
C 	C 	0.50210 0.70310 0.96050 0.06100
C 	C 	0.54430 0.67100 0.95340 -0.09000
H 	H 	0.57240 0.66570 0.97250 0.07900
C 	C 	0.54600 0.64680 0.91930 -0.01100
H 	H 	0.57630 0.62630 0.91450 0.03500
C 	C 	0.50330 0.65250 0.89170 -0.03400
C 	C 	0.46230 0.68420 0.89910 -0.00900
H 	H 	0.43330 0.68870 0.88050 0.03200
C 	C 	0.46160 0.70970 0.93230 -0.09400
H 	H 	0.43300 0.73200 0.93600 0.06500
C 	C 	0.50210 0.62310 0.85630 0.08300
C 	C 	0.55130 0.60740 0.83890 -0.13300
H 	H 	0.58710 0.61720 0.84810 0.07400
C 	C 	0.54790 0.57760 0.80790 0.06700
H 	H 	0.58220 0.56750 0.79640 0.02600
C 	C 	0.45340 0.57740 0.80960 0.07300
H 	H 	0.41820 0.56680 0.79990 0.02000
C 	C 	0.45240 0.60800 0.84040 -0.13600
H 	H 	0.41730 0.61850 0.85040 0.07300
N 	N 	0.49960 0.56210 0.79307 -0.18600
C 	C 	0.50300 0.22770 0.49850 -0.02900
C 	C 	0.50210 0.20310 0.46050 0.06100
C 	C 	0.54430 0.17100 0.45340 -0.08900
H 	H 	0.57240 0.16570 0.47250 0.07900
C 	C 	0.54600 0.14680 0.41930 -0.01100
H 	H 	0.57630 0.12630 0.41450 0.03500
C 	C 	0.50330 0.15250 0.39170 -0.03400
C 	C 	0.46230 0.18420 0.39910 -0.01000
H 	H 	0.43330 0.18870 0.38050 0.03200
C 	C 	0.46160 0.20970 0.43230 -0.09400
H 	H 	0.43300 0.23200 0.43600 0.06500
C 	C 	0.50210 0.12310 0.35630 0.08300
C 	C 	0.55130 0.10740 0.33890 -0.13300
H 	H 	0.58710 0.11720 0.34810 0.07400
C 	C 	0.54790 0.07760 0.30790 0.06700
H 	H 	0.58220 0.06750 0.29640 0.02600
C 	C 	0.45340 0.07740 0.30960 0.07300
H 	H 	0.41820 0.06680 0.29990 0.02000
C 	C 	0.45240 0.10800 0.34040 -0.13600
H 	H 	0.41730 0.11850 0.35040 0.07300
N 	N 	0.49960 0.06210 0.29307 -0.18600
C 	C 	0.46170 0.55110 0.17220 0.09600
H 	H 	0.42840 0.53440 0.17810 0.00800
C 	C 	0.46160 0.57760 0.13940 -0.16200
H 	H 	0.42960 0.57730 0.12290 0.08300
C 	C 	0.50670 0.60430 0.13030 0.10900
C 	C 	0.55160 0.59970 0.15440 -0.15700
H 	H 	0.58540 0.61600 0.14890 0.08200
C 	C 	0.54920 0.57210 0.18640 0.08700
H 	H 	0.58150 0.57060 0.20270 0.01600
C 	C 	0.50680 0.63550 0.09630 -0.05400
C 	C 	0.46620 0.63270 0.06700 0.00600
H 	H 	0.43830 0.60940 0.06830 0.02500
C 	C 	0.46560 0.66210 0.03670 -0.10600
H 	H 	0.43740 0.65900 0.01720 0.06800
C 	C 	0.50540 0.69680 0.03360 0.07300
C 	C 	0.54530 0.70000 0.06230 -0.10900
H 	H 	0.57290 0.72340 0.06090 0.09300
C 	C 	0.54650 0.67050 0.09290 0.00900
H 	H 	0.57480 0.67390 0.11220 0.02600
N 	N 	0.50430 0.54730 0.19586 -0.19600
C 	C 	0.46170 0.05110 0.67220 0.09600
H 	H 	0.42840 0.03440 0.67810 0.00800
C 	C 	0.46160 0.07760 0.63940 -0.16200
H 	H 	0.42960 0.07730 0.62290 0.08300
C 	C 	0.50670 0.10430 0.63030 0.10900
C 	C 	0.55160 0.09970 0.65440 -0.15700
H 	H 	0.58540 0.11600 0.64890 0.08200
C 	C 	0.54920 0.07210 0.68640 0.08700
H 	H 	0.58150 0.07060 0.70270 0.01600
C 	C 	0.50680 0.13550 0.59630 -0.05400
C 	C 	0.46620 0.13270 0.56700 0.00600
H 	H 	0.43830 0.10940 0.56830 0.02500
C 	C 	0.46560 0.16210 0.53670 -0.10600
H 	H 	0.43740 0.15900 0.51720 0.06800
C 	C 	0.50540 0.19680 0.53360 0.07200
C 	C 	0.54530 0.20000 0.56230 -0.10900
H 	H 	0.57290 0.22340 0.56090 0.09300
C 	C 	0.54650 0.17050 0.59290 0.00900
H 	H 	0.57480 0.17390 0.61220 0.02600
N 	N 	0.50430 0.04730 0.69586 -0.19600
C 	C 	0.46170 0.44890 0.32780 0.09600
H 	H 	0.42840 0.46560 0.32190 0.00800
C 	C 	0.46160 0.42240 0.36060 -0.16200
H 	H 	0.42960 0.42270 0.37710 0.08300
C 	C 	0.50670 0.39570 0.36970 0.10900
C 	C 	0.55160 0.40030 0.34560 -0.15700
H 	H 	0.58540 0.38400 0.35110 0.08200
C 	C 	0.54920 0.42790 0.31360 0.08700
H 	H 	0.58150 0.42940 0.29730 0.01600
C 	C 	0.50680 0.36450 0.40370 -0.05400
C 	C 	0.46620 0.36730 0.43300 0.00600
H 	H 	0.43830 0.39060 0.43170 0.02500
C 	C 	0.46560 0.33790 0.46330 -0.10600
H 	H 	0.43740 0.34100 0.48280 0.06800
C 	C 	0.50540 0.30320 0.46640 0.07200
C 	C 	0.54530 0.30000 0.43770 -0.10900
H 	H 	0.57290 0.27660 0.43910 0.09300
C 	C 	0.54650 0.32950 0.40710 0.00900
H 	H 	0.57480 0.32610 0.38780 0.02600
N 	N 	0.50430 0.45270 0.30414 -0.19600
C 	C 	0.46170 0.94890 0.82780 0.09600
H 	H 	0.42840 0.96560 0.82190 0.00800
C 	C 	0.46160 0.92240 0.86060 -0.16200
H 	H 	0.42960 0.92270 0.87710 0.08200
C 	C 	0.50670 0.89570 0.86970 0.10900
C 	C 	0.55160 0.90030 0.84560 -0.15700
H 	H 	0.58540 0.88400 0.85110 0.08200
C 	C 	0.54920 0.92790 0.81360 0.08700
H 	H 	0.58150 0.92940 0.79730 0.01600
C 	C 	0.50680 0.86450 0.90370 -0.05400
C 	C 	0.46620 0.86730 0.93300 0.00500
H 	H 	0.43830 0.89060 0.93170 0.02500
C 	C 	0.46560 0.83790 0.96330 -0.10500
H 	H 	0.43740 0.84100 0.98280 0.06700
C 	C 	0.50540 0.80320 0.96640 0.07100
C 	C 	0.54530 0.80000 0.93770 -0.10800
H 	H 	0.57290 0.77660 0.93910 0.09200
C 	C 	0.54650 0.82950 0.90710 0.00800
H 	H 	0.57480 0.82610 0.88780 0.02700
N 	N 	0.50430 0.95270 0.80414 -0.19600
Cl	Cl	0.60582 0.50000 0.25000 -0.46100
Cl	Cl	0.39861 0.50000 0.25000 -0.46000
Cu	Cu	0.50226 0.50000 0.25000 0.88800
Cl	Cl	0.60582 0.00000 0.75000 -0.46000
Cl	Cl	0.39861 0.00000 0.75000 -0.46000
Cu	Cu	0.50226 0.00000 0.75000 0.88800
C 	C 	0.96170 0.44890 0.17220 0.09600
H 	H 	0.92840 0.46560 0.17810 0.00800
C 	C 	0.96160 0.42240 0.13940 -0.16200
H 	H 	0.92960 0.42270 0.12290 0.08300
C 	C 	0.00670 0.39570 0.13030 0.10900
C 	C 	0.05160 0.40030 0.15440 -0.15700
H 	H 	0.08540 0.38400 0.14890 0.08200
C 	C 	0.04920 0.42790 0.18640 0.08700
H 	H 	0.08150 0.42940 0.20270 0.01600
C 	C 	0.00680 0.36450 0.09630 -0.05400
C 	C 	0.96620 0.36730 0.06700 0.00600
H 	H 	0.93830 0.39060 0.06830 0.02500
C 	C 	0.96560 0.33790 0.03670 -0.10600
H 	H 	0.93740 0.34100 0.01720 0.06800
C 	C 	0.00540 0.30320 0.03360 0.07300
C 	C 	0.04530 0.30000 0.06230 -0.10900
H 	H 	0.07290 0.27660 0.06090 0.09300
C 	C 	0.04650 0.32950 0.09290 0.00900
H 	H 	0.07480 0.32610 0.11220 0.02600
N 	N 	0.00430 0.45270 0.19586 -0.19600
C 	C 	0.96170 0.94890 0.67220 0.09600
H 	H 	0.92840 0.96560 0.67810 0.00800
C 	C 	0.96160 0.92240 0.63940 -0.16200
H 	H 	0.92960 0.92270 0.62290 0.08300
C 	C 	0.00670 0.89570 0.63030 0.10900
C 	C 	0.05160 0.90030 0.65440 -0.15700
H 	H 	0.08540 0.88400 0.64890 0.08200
C 	C 	0.04920 0.92790 0.68640 0.08700
H 	H 	0.08150 0.92940 0.70270 0.01600
C 	C 	0.00680 0.86450 0.59630 -0.05400
C 	C 	0.96620 0.86730 0.56700 0.00600
H 	H 	0.93830 0.89060 0.56830 0.02500
C 	C 	0.96560 0.83790 0.53670 -0.10600
H 	H 	0.93740 0.84100 0.51720 0.06800
C 	C 	0.00540 0.80320 0.53360 0.07200
C 	C 	0.04530 0.80000 0.56230 -0.10900
H 	H 	0.07290 0.77660 0.56090 0.09300
C 	C 	0.04650 0.82950 0.59290 0.00900
H 	H 	0.07480 0.82610 0.61220 0.02600
N 	N 	0.00430 0.95270 0.69586 -0.19600
C 	C 	0.96170 0.55110 0.32780 0.09600
H 	H 	0.92840 0.53440 0.32190 0.00800
C 	C 	0.96160 0.57760 0.36060 -0.16200
H 	H 	0.92960 0.57730 0.37710 0.08300
C 	C 	0.00670 0.60430 0.36970 0.10900
C 	C 	0.05160 0.59970 0.34560 -0.15700
H 	H 	0.08540 0.61600 0.35110 0.08200
C 	C 	0.04920 0.57210 0.31360 0.08700
H 	H 	0.08150 0.57060 0.29730 0.01600
C 	C 	0.00680 0.63550 0.40370 -0.05400
C 	C 	0.96620 0.63270 0.43300 0.00600
H 	H 	0.93830 0.60940 0.43170 0.02500
C 	C 	0.96560 0.66210 0.46330 -0.10600
H 	H 	0.93740 0.65900 0.48280 0.06800
C 	C 	0.00540 0.69680 0.46640 0.07200
C 	C 	0.04530 0.70000 0.43770 -0.10900
H 	H 	0.07290 0.72340 0.43910 0.09300
C 	C 	0.04650 0.67050 0.40710 0.00900
H 	H 	0.07480 0.67390 0.38780 0.02600
N 	N 	0.00430 0.54730 0.30414 -0.19600
C 	C 	0.96170 0.05110 0.82780 0.09600
H 	H 	0.92840 0.03440 0.82190 0.00800
C 	C 	0.96160 0.07760 0.86060 -0.16200
H 	H 	0.92960 0.07730 0.87710 0.08300
C 	C 	0.00670 0.10430 0.86970 0.10900
C 	C 	0.05160 0.09970 0.84560 -0.15700
H 	H 	0.08540 0.11600 0.85110 0.08200
C 	C 	0.04920 0.07210 0.81360 0.08700
H 	H 	0.08150 0.07060 0.79730 0.01600
C 	C 	0.00680 0.13550 0.90370 -0.05300
C 	C 	0.96620 0.13270 0.93300 0.00600
H 	H 	0.93830 0.10940 0.93170 0.02500
C 	C 	0.96560 0.16210 0.96330 -0.10500
H 	H 	0.93740 0.15900 0.98280 0.06700
C 	C 	0.00540 0.19680 0.96640 0.07100
C 	C 	0.04530 0.20000 0.93770 -0.10800
H 	H 	0.07290 0.22340 0.93910 0.09200
C 	C 	0.04650 0.17050 0.90710 0.00800
H 	H 	0.07480 0.17390 0.88780 0.02700
N 	N 	0.00430 0.04730 0.80414 -0.19600
C 	C 	0.00300 0.72770 0.50150 -0.02900
C 	C 	0.00210 0.70310 0.53950 0.06100
C 	C 	0.04430 0.67100 0.54660 -0.08900
H 	H 	0.07240 0.66570 0.52750 0.07900
C 	C 	0.04600 0.64680 0.58070 -0.01100
H 	H 	0.07630 0.62630 0.58550 0.03500
C 	C 	0.00330 0.65250 0.60830 -0.03400
C 	C 	0.96230 0.68420 0.60090 -0.01000
H 	H 	0.93330 0.68870 0.61950 0.03200
C 	C 	0.96160 0.70970 0.56770 -0.09400
H 	H 	0.93300 0.73200 0.56400 0.06500
C 	C 	0.00210 0.62310 0.64370 0.08300
C 	C 	0.05130 0.60740 0.66110 -0.13300
H 	H 	0.08710 0.61720 0.65190 0.07400
C 	C 	0.04790 0.57760 0.69210 0.06700
H 	H 	0.08220 0.56750 0.70360 0.02600
C 	C 	0.95340 0.57740 0.69040 0.07300
H 	H 	0.91820 0.56680 0.70010 0.02000
C 	C 	0.95240 0.60800 0.65960 -0.13600
H 	H 	0.91730 0.61850 0.64960 0.07300
N 	N 	0.99960 0.56210 0.70693 -0.18600
C 	C 	0.00300 0.22770 0.00150 -0.02800
C 	C 	0.00210 0.20310 0.03950 0.06000
C 	C 	0.04430 0.17100 0.04660 -0.08900
H 	H 	0.07240 0.16570 0.02750 0.07900
C 	C 	0.04600 0.14680 0.08070 -0.01100
H 	H 	0.07630 0.12630 0.08550 0.03500
C 	C 	0.00330 0.15250 0.10830 -0.03400
C 	C 	0.96230 0.18420 0.10090 -0.01000
H 	H 	0.93330 0.18870 0.11950 0.03200
C 	C 	0.96160 0.20970 0.06770 -0.09400
H 	H 	0.93300 0.23200 0.06400 0.06500
C 	C 	0.00210 0.12310 0.14370 0.08300
C 	C 	0.05130 0.10740 0.16110 -0.13300
H 	H 	0.08710 0.11720 0.15190 0.07400
C 	C 	0.04790 0.07760 0.19210 0.06700
H 	H 	0.08220 0.06750 0.20360 0.02600
C 	C 	0.95340 0.07740 0.19040 0.07300
H 	H 	0.91820 0.06680 0.20010 0.02000
C 	C 	0.95240 0.10800 0.15960 -0.13600
H 	H 	0.91730 0.11850 0.14960 0.07300
N 	N 	0.99960 0.06210 0.20693 -0.18600
C 	C 	0.00300 0.27230 0.99850 -0.03000
C 	C 	0.00210 0.29690 0.96050 0.06100
C 	C 	0.04430 0.32900 0.95340 -0.09000
H 	H 	0.07240 0.33430 0.97250 0.07900
C 	C 	0.04600 0.35320 0.91930 -0.01100
H 	H 	0.07630 0.37370 0.91450 0.03500
C 	C 	0.00330 0.34750 0.89170 -0.03400
C 	C 	0.96230 0.31580 0.89910 -0.00900
H 	H 	0.93330 0.31130 0.88050 0.03200
C 	C 	0.96160 0.29030 0.93230 -0.09400
H 	H 	0.93300 0.26800 0.93600 0.06500
C 	C 	0.00210 0.37690 0.85630 0.08300
C 	C 	0.05130 0.39260 0.83890 -0.13300
H 	H 	0.08710 0.38280 0.84810 0.07400
C 	C 	0.04790 0.42240 0.80790 0.06700
H 	H 	0.08220 0.43250 0.79640 0.02600
C 	C 	0.95340 0.42260 0.80960 0.07300
H 	H 	0.91820 0.43320 0.79990 0.02000
C 	C 	0.95240 0.39200 0.84040 -0.13600
H 	H 	0.91730 0.38150 0.85040 0.07300
N 	N 	0.99960 0.43790 0.79307 -0.18600
C 	C 	0.00300 0.77230 0.49850 -0.02900
C 	C 	0.00210 0.79690 0.46050 0.06100
C 	C 	0.04430 0.82900 0.45340 -0.09000
H 	H 	0.07240 0.83430 0.47250 0.07900
C 	C 	0.04600 0.85320 0.41930 -0.01100
H 	H 	0.07630 0.87370 0.41450 0.03500
C 	C 	0.00330 0.84750 0.39170 -0.03400
C 	C 	0.96230 0.81580 0.39910 -0.01000
H 	H 	0.93330 0.81130 0.38050 0.03200
C 	C 	0.96160 0.79030 0.43230 -0.09400
H 	H 	0.93300 0.76800 0.43600 0.06500
C 	C 	0.00210 0.87690 0.35630 0.08300
C 	C 	0.05130 0.89260 0.33890 -0.13300
H 	H 	0.08710 0.88280 0.34810 0.07400
C 	C 	0.04790 0.92240 0.30790 0.06700
H 	H 	0.08220 0.93250 0.29640 0.02600
C 	C 	0.95340 0.92260 0.30960 0.07300
H 	H 	0.91820 0.93320 0.29990 0.01900
C 	C 	0.95240 0.89200 0.34040 -0.13600
H 	H 	0.91730 0.88150 0.35040 0.07300
N 	N 	0.99960 0.93790 0.29307 -0.18600
Cl	Cl	0.10582 0.50000 0.25000 -0.46100
Cl	Cl	0.89861 0.50000 0.25000 -0.46000
Cu	Cu	0.00226 0.50000 0.25000 0.88800
Cl	Cl	0.10582 0.00000 0.75000 -0.46000
Cl	Cl	0.89861 0.00000 0.75000 -0.46000
Cu	Cu	0.00226 0.00000 0.75000 0.88800
C 	C 	0.99700 0.27230 0.49850 -0.02900
C 	C 	0.99790 0.29690 0.46050 0.06100
C 	C 	0.95570 0.32900 0.45340 -0.09000
H 	H 	0.92760 0.33430 0.47250 0.07900
C 	C 	0.95400 0.35320 0.41930 -0.01100
H 	H 	0.92370 0.37370 0.41450 0.03500
C 	C 	0.99670 0.34750 0.39170 -0.03400
C 	C 	0.03770 0.31580 0.39910 -0.01000
H 	H 	0.06670 0.31130 0.38050 0.03200
C 	C 	0.03840 0.29030 0.43230 -0.09400
H 	H 	0.06700 0.26800 0.43600 0.06500
C 	C 	0.99790 0.37690 0.35630 0.08300
C 	C 	0.94870 0.39260 0.33890 -0.13300
H 	H 	0.91290 0.38280 0.34810 0.07400
C 	C 	0.95210 0.42240 0.30790 0.06700
H 	H 	0.91780 0.43250 0.29640 0.02600
C 	C 	0.04660 0.42260 0.30960 0.07300
H 	H 	0.08180 0.43320 0.29990 0.02000
C 	C 	0.04760 0.39200 0.34040 -0.13600
H 	H 	0.08270 0.38150 0.35040 0.07300
N 	N 	0.00040 0.43790 0.29307 -0.18600
C 	C 	0.99700 0.77230 0.99850 -0.03000
C 	C 	0.99790 0.79690 0.96050 0.06100
C 	C 	0.95570 0.82900 0.95340 -0.09000
H 	H 	0.92760 0.83430 0.97250 0.07900
C 	C 	0.95400 0.85320 0.91930 -0.01100
H 	H 	0.92370 0.87370 0.91450 0.03500
C 	C 	0.99670 0.84750 0.89170 -0.03400
C 	C 	0.03770 0.81580 0.89910 -0.00900
H 	H 	0.06670 0.81130 0.88050 0.03200
C 	C 	0.03840 0.79030 0.93230 -0.09400
H 	H 	0.06700 0.76800 0.93600 0.06500
C 	C 	0.99790 0.87690 0.85630 0.08300
C 	C 	0.94870 0.89260 0.83890 -0.13300
H 	H 	0.91290 0.88280 0.84810 0.07400
C 	C 	0.95210 0.92240 0.80790 0.06700
H 	H 	0.91780 0.93250 0.79640 0.02600
C 	C 	0.04660 0.92260 0.80960 0.07300
H 	H 	0.08180 0.93320 0.79990 0.01900
C 	C 	0.04760 0.89200 0.84040 -0.13600
H 	H 	0.08270 0.88150 0.85040 0.07300
N 	N 	0.00040 0.93790 0.79307 -0.18600
C 	C 	0.99700 0.72770 0.00150 -0.02800
C 	C 	0.99790 0.70310 0.03950 0.06000
C 	C 	0.95570 0.67100 0.04660 -0.08900
H 	H 	0.92760 0.66570 0.02750 0.07900
C 	C 	0.95400 0.64680 0.08070 -0.01100
H 	H 	0.92370 0.62630 0.08550 0.03500
C 	C 	0.99670 0.65250 0.10830 -0.03400
C 	C 	0.03770 0.68420 0.10090 -0.01000
H 	H 	0.06670 0.68870 0.11950 0.03200
C 	C 	0.03840 0.70970 0.06770 -0.09400
H 	H 	0.06700 0.73200 0.06400 0.06500
C 	C 	0.99790 0.62310 0.14370 0.08300
C 	C 	0.94870 0.60740 0.16110 -0.13300
H 	H 	0.91290 0.61720 0.15190 0.07400
C 	C 	0.95210 0.57760 0.19210 0.06700
H 	H 	0.91780 0.56750 0.20360 0.02600
C 	C 	0.04660 0.57740 0.19040 0.07300
H 	H 	0.08180 0.56680 0.20010 0.02000
C 	C 	0.04760 0.60800 0.15960 -0.13600
H 	H 	0.08270 0.61850 0.14960 0.07300
N 	N 	0.00040 0.56210 0.20693 -0.18600
C 	C 	0.99700 0.22770 0.50150 -0.02900
C 	C 	0.99790 0.20310 0.53950 0.06100
C 	C 	0.95570 0.17100 0.54660 -0.08900
H 	H 	0.92760 0.16570 0.52750 0.07900
C 	C 	0.95400 0.14680 0.58070 -0.01100
H 	H 	0.92370 0.12630 0.58550 0.03500
C 	C 	0.99670 0.15250 0.60830 -0.03400
C 	C 	0.03770 0.18420 0.60090 -0.01000
H 	H 	0.06670 0.18870 0.61950 0.03200
C 	C 	0.03840 0.20970 0.56770 -0.09400
H 	H 	0.06700 0.23200 0.56400 0.06500
C 	C 	0.99790 0.12310 0.64370 0.08300
C 	C 	0.94870 0.10740 0.66110 -0.13300
H 	H 	0.91290 0.11720 0.65190 0.07400
C 	C 	0.95210 0.07760 0.69210 0.06700
H 	H 	0.91780 0.06750 0.70360 0.02600
C 	C 	0.04660 0.07740 0.69040 0.07300
H 	H 	0.08180 0.06680 0.70010 0.02000
C 	C 	0.04760 0.10800 0.65960 -0.13600
H 	H 	0.08270 0.11850 0.64960 0.07300
N 	N 	0.00040 0.06210 0.70693 -0.18600
C 	C 	0.03830 0.55110 0.82780 0.09600
H 	H 	0.07160 0.53440 0.82190 0.00800
C 	C 	0.03840 0.57760 0.86060 -0.16200
H 	H 	0.07040 0.57730 0.87710 0.08300
C 	C 	0.99330 0.60430 0.86970 0.10900
C 	C 	0.94840 0.59970 0.84560 -0.15700
H 	H 	0.91460 0.61600 0.85110 0.08200
C 	C 	0.95080 0.57210 0.81360 0.08700
H 	H 	0.91850 0.57060 0.79730 0.01600
C 	C 	0.99320 0.63550 0.90370 -0.05300
C 	C 	0.03380 0.63270 0.93300 0.00500
H 	H 	0.06170 0.60940 0.93170 0.02500
C 	C 	0.03440 0.66210 0.96330 -0.10500
H 	H 	0.06260 0.65900 0.98280 0.06700
C 	C 	0.99460 0.69680 0.96640 0.07100
C 	C 	0.95470 0.70000 0.93770 -0.10800
H 	H 	0.92710 0.72340 0.93910 0.09200
C 	C 	0.95350 0.67050 0.90710 0.00800
H 	H 	0.92520 0.67390 0.88780 0.02700
N 	N 	0.99570 0.54730 0.80414 -0.19600
C 	C 	0.03830 0.05110 0.32780 0.09600
H 	H 	0.07160 0.03440 0.32190 0.00800
C 	C 	0.03840 0.07760 0.36060 -0.16200
H 	H 	0.07040 0.07730 0.37710 0.08300
C 	C 	0.99330 0.10430 0.36970 0.10900
C 	C 	0.94840 0.09970 0.34560 -0.15700
H 	H 	0.91460 0.11600 0.35110 0.08200
C 	C 	0.95080 0.07210 0.31360 0.08700
H 	H 	0.91850 0.07060 0.29730 0.01600
C 	C 	0.99320 0.13550 0.40370 -0.05400
C 	C 	0.03380 0.13270 0.43300 0.00600
H 	H 	0.06170 0.10940 0.43170 0.02500
C 	C 	0.03440 0.16210 0.46330 -0.10600
H 	H 	0.06260 0.15900 0.48280 0.06800
C 	C 	0.99460 0.19680 0.46640 0.07200
C 	C 	0.95470 0.20000 0.43770 -0.10900
H 	H 	0.92710 0.22340 0.43910 0.09300
C 	C 	0.95350 0.17050 0.40710 0.00900
H 	H 	0.92520 0.17390 0.38780 0.02600
N 	N 	0.99570 0.04730 0.30414 -0.19600
C 	C 	0.03830 0.44890 0.67220 0.09600
H 	H 	0.07160 0.46560 0.67810 0.00800
C 	C 	0.03840 0.42240 0.63940 -0.16200
H 	H 	0.07040 0.42270 0.62290 0.08300
C 	C 	0.99330 0.39570 0.63030 0.10900
C 	C 	0.94840 0.40030 0.65440 -0.15700
H 	H 	0.91460 0.38400 0.64890 0.08200
C 	C 	0.95080 0.42790 0.68640 0.08700
H 	H 	0.91850 0.42940 0.70270 0.01600
C 	C 	0.99320 0.36450 0.59630 -0.05400
C 	C 	0.03380 0.36730 0.56700 0.00600
H 	H 	0.06170 0.39060 0.56830 0.02500
C 	C 	0.03440 0.33790 0.53670 -0.10600
H 	H 	0.06260 0.34100 0.51720 0.06800
C 	C 	0.99460 0.30320 0.53360 0.07200
C 	C 	0.95470 0.30000 0.56230 -0.10900
H 	H 	0.92710 0.27660 0.56090 0.09300
C 	C 	0.95350 0.32950 0.59290 0.00900
H 	H 	0.92520 0.32610 0.61220 0.02600
N 	N 	0.99570 0.45270 0.69586 -0.19600
C 	C 	0.03830 0.94890 0.17220 0.09600
H 	H 	0.07160 0.96560 0.17810 0.00800
C 	C 	0.03840 0.92240 0.13940 -0.16200
H 	H 	0.07040 0.92270 0.12290 0.08300
C 	C 	0.99330 0.89570 0.13030 0.10900
C 	C 	0.94840 0.90030 0.15440 -0.15800
H 	H 	0.91460 0.88400 0.14890 0.08200
C 	C 	0.95080 0.92790 0.18640 0.08700
H 	H 	0.91850 0.92940 0.20270 0.01600
C 	C 	0.99320 0.86450 0.09630 -0.05400
C 	C 	0.03380 0.86730 0.06700 0.00600
H 	H 	0.06170 0.89060 0.06830 0.02500
C 	C 	0.03440 0.83790 0.03670 -0.10600
H 	H 	0.06260 0.84100 0.01720 0.06800
C 	C 	0.99460 0.80320 0.03360 0.07300
C 	C 	0.95470 0.80000 0.06230 -0.10900
H 	H 	0.92710 0.77660 0.06090 0.09300
C 	C 	0.95350 0.82950 0.09290 0.00900
H 	H 	0.92520 0.82610 0.11220 0.02600
N 	N 	0.99570 0.95270 0.19586 -0.19600
Cl	Cl	0.89418 0.50000 0.75000 -0.46100
Cl	Cl	0.10139 0.50000 0.75000 -0.46000
Cu	Cu	0.99774 0.50000 0.75000 0.88800
Cl	Cl	0.89418 0.00000 0.25000 -0.46000
Cl	Cl	0.10139 0.00000 0.25000 -0.46000
Cu	Cu	0.99774 0.00000 0.25000 0.88800
