data_crystal

_cell_length_a 33.22700
_cell_length_b 33.22700
_cell_length_c 24.54600
_cell_angle_alpha 90.00000
_cell_angle_beta  90.00000
_cell_angle_gamma 90.00000

_symmetry_space_group_name_	'P 1'
_symmetry_space_group_name_H-M	'P 1'

loop_
_symmetry_equiv_pos_as_xyz
  x,y,z

loop_
_atom_site_label
_atom_site_type_symbol
_atom_site_fract_x
_atom_site_fract_y
_atom_site_fract_z
_atom_site_charge
Cu	Cu	0.26267 0.46817 0.92209 0.90400
Cu	Cu	0.25995 0.54589 0.94255 0.89600
Cu	Cu	0.19931 0.68442 0.36298 0.90200
Cu	Cu	0.21557 0.70396 0.26124 0.89800
Cu	Cu	0.97931 0.74953 0.91538 0.90400
Cu	Cu	0.05601 0.74438 0.94081 0.89600
C 	C 	0.18370 0.50420 0.93460 0.29800
C 	C 	0.13910 0.50490 0.93000 0.04900
H 	H 	0.12930 0.47690 0.93670 0.04700
C 	C 	0.12730 0.51610 0.87210 -0.43900
H 	H 	0.09800 0.51470 0.86840 0.16400
H 	H 	0.13990 0.49730 0.84650 0.17400
H 	H 	0.13650 0.54350 0.86420 0.16500
C 	C 	0.12050 0.52160 0.02170 0.21100
C 	C 	0.10270 0.55130 0.06150 -0.05000
C 	C 	0.11900 0.55360 0.11460 -0.00700
H 	H 	0.14140 0.53740 0.12460 0.04500
C 	C 	0.10240 0.57910 0.15080 -0.04900
C 	C 	0.07080 0.60660 0.13730 -0.01300
H 	H 	0.06100 0.62600 0.16250 0.04100
C 	C 	0.05520 0.60330 0.08410 -0.05300
C 	C 	0.07120 0.57710 0.04750 -0.00700
H 	H 	0.06070 0.57630 0.01160 0.04300
C 	C 	0.11850 0.58210 0.20930 0.22100
C 	C 	0.21810 0.55450 0.26080 -0.43000
H 	H 	0.21080 0.52650 0.25310 0.17000
H 	H 	0.23290 0.55580 0.29520 0.17500
H 	H 	0.23510 0.56480 0.23130 0.16300
C 	C 	0.17950 0.58030 0.26500 0.04300
H 	H 	0.16150 0.56880 0.29370 0.05300
C 	C 	0.19130 0.62270 0.28070 0.30300
C 	C 	0.02050 0.62960 0.06540 0.23000
C 	C 	0.98080 0.72600 0.11330 -0.45400
H 	H 	0.97310 0.71310 0.14770 0.17500
H 	H 	0.95920 0.74400 0.10140 0.17500
H 	H 	0.00550 0.74150 0.11860 0.17300
C 	C 	0.98780 0.69400 0.07050 0.05900
H 	H 	0.96190 0.67890 0.06620 0.04800
C 	C 	0.99760 0.71230 0.01580 0.30100
C 	C 	0.26440 0.49120 0.03350 0.29200
C 	C 	0.26200 0.48300 0.09420 0.08800
H 	H 	0.27350 0.45570 0.10170 0.02500
C 	C 	0.21960 0.48350 0.11160 -0.50000
H 	H 	0.21710 0.47010 0.14690 0.18300
H 	H 	0.20320 0.46930 0.08450 0.19800
H 	H 	0.21040 0.51140 0.11470 0.18300
C 	C 	0.32560 0.51020 0.12790 0.21600
C 	C 	0.34610 0.54440 0.15650 -0.06500
C 	C 	0.38230 0.55730 0.13720 -0.00100
H 	H 	0.39280 0.54560 0.10490 0.03800
C 	C 	0.40450 0.58730 0.16360 -0.05400
C 	C 	0.38720 0.60550 0.20940 -0.00000
H 	H 	0.40110 0.62670 0.22720 0.03900
C 	C 	0.35000 0.59320 0.22940 -0.06800
C 	C 	0.33090 0.56200 0.20360 0.00600
H 	H 	0.30640 0.55210 0.21830 0.03800
C 	C 	0.44490 0.60260 0.14230 0.21500
C 	C 	0.49680 0.60180 0.00950 -0.41500
H 	H 	0.48120 0.57740 0.00180 0.15100
H 	H 	0.52550 0.59610 0.00510 0.16000
H 	H 	0.48880 0.62320 0.98420 0.16300
C 	C 	0.48830 0.61600 0.07040 0.03700
H 	H 	0.51040 0.60590 0.09440 0.05100
C 	C 	0.48910 0.66480 0.07000 0.35800
C 	C 	0.33250 0.61070 0.28020 0.23800
C 	C 	0.34530 0.70660 0.34980 -0.47400
H 	H 	0.37190 0.70080 0.36520 0.17300
H 	H 	0.32960 0.72230 0.37610 0.18800
H 	H 	0.34840 0.72200 0.31610 0.17100
C 	C 	0.32420 0.66830 0.33810 0.07700
H 	H 	0.32700 0.65060 0.37080 0.03500
C 	C 	0.27920 0.67460 0.32790 0.30000
C 	C 	0.13586 0.71080 0.29580 0.32500
C 	C 	0.08840 0.71730 0.28340 0.09900
H 	H 	0.07370 0.72290 0.31810 0.02700
C 	C 	0.07400 0.67860 0.25940 -0.50800
H 	H 	0.04610 0.68160 0.24740 0.19500
H 	H 	0.07570 0.65720 0.28680 0.19600
H 	H 	0.09090 0.67150 0.22810 0.18200
C 	C 	0.09340 0.78710 0.26020 0.21000
C 	C 	0.08980 0.82010 0.21920 -0.05700
C 	C 	0.11450 0.85230 0.22330 0.00100
H 	H 	0.13350 0.85370 0.25210 0.04000
C 	C 	0.11220 0.88350 0.18570 -0.06400
C 	C 	0.08400 0.88010 0.14270 -0.00200
H 	H 	0.08210 0.90100 0.11630 0.03800
C 	C 	0.05960 0.84760 0.13860 -0.05900
C 	C 	0.06190 0.81680 0.17610 -0.01000
H 	H 	0.04510 0.79380 0.17290 0.03700
C 	C 	0.13620 0.92220 0.18880 0.23400
C 	C 	0.23200 0.94420 0.25460 -0.45800
H 	H 	0.22070 0.93890 0.29080 0.16800
H 	H 	0.25020 0.96730 0.25650 0.16700
H 	H 	0.24690 0.92050 0.24210 0.16600
C 	C 	0.19870 0.95300 0.21560 0.07600
H 	H 	0.18290 0.97650 0.22930 0.03900
C 	C 	0.21720 0.96390 0.15860 0.30100
C 	C 	0.02920 0.84360 0.09190 0.22700
C 	C 	0.02550 0.88480 0.95370 -0.45700
H 	H 	0.02430 0.91270 0.96650 0.16800
H 	H 	0.00720 0.88140 0.92280 0.18600
H 	H 	0.05310 0.87840 0.94230 0.17100
C 	C 	0.01310 0.85650 0.99960 0.05900
H 	H 	0.98480 0.86290 0.01060 0.04100
C 	C 	0.01410 0.81440 0.97480 0.31200
C 	C 	0.02040 0.68060 0.87900 0.31700
C 	C 	0.02350 0.63990 0.85140 0.02400
H 	H 	0.00110 0.63700 0.82440 0.05500
C 	C 	0.01950 0.60560 0.89610 -0.40600
H 	H 	0.03750 0.58330 0.88700 0.15400
H 	H 	0.99160 0.59590 0.89720 0.16100
H 	H 	0.02680 0.61650 0.93190 0.16300
C 	C 	0.06970 0.64760 0.77600 0.20600
C 	C 	0.11120 0.64100 0.75370 -0.05500
C 	C 	0.12660 0.67060 0.71900 -0.01000
H 	H 	0.11100 0.69370 0.71090 0.03800
C 	C 	0.16450 0.66620 0.69640 -0.05300
C 	C 	0.18760 0.63118 0.70810 -0.01400
H 	H 	0.21370 0.62760 0.69330 0.03700
C 	C 	0.17040 0.60240 0.74170 -0.04900
C 	C 	0.13280 0.60770 0.76410 -0.00800
H 	H 	0.12200 0.58750 0.78730 0.04000
C 	C 	0.18170 0.69780 0.66060 0.20400
C 	C 	0.16670 0.80490 0.64420 -0.45800
H 	H 	0.13910 0.79900 0.63240 0.17000
H 	H 	0.17800 0.82630 0.62130 0.17800
H 	H 	0.16640 0.81380 0.68230 0.17200
C 	C 	0.19200 0.76780 0.63900 0.07200
H 	H 	0.19250 0.75940 0.59990 0.03800
C 	C 	0.23480 0.77730 0.65690 0.28300
C 	C 	0.19270 0.56290 0.75360 0.19700
C 	C 	0.29760 0.53230 0.74880 -0.48200
H 	H 	0.29650 0.53780 0.70960 0.17800
H 	H 	0.31230 0.50720 0.75520 0.19000
H 	H 	0.31150 0.55450 0.76720 0.17900
C 	C 	0.25638 0.52869 0.77040 0.07600
H 	H 	0.24320 0.50500 0.75290 0.02900
C 	C 	0.25730 0.52180 0.83180 0.29900
N 	N 	0.12060 0.53030 0.96980 -0.20800
H 	H 	0.13300 0.55500 0.96660 0.11400
N 	N 	0.15900 0.57928 0.21300 -0.20400
H 	H 	0.16920 0.60030 0.19280 0.11600
N 	N 	0.01787 0.66525 0.08850 -0.21000
H 	H 	0.04250 0.67750 0.08400 0.11600
N 	N 	0.28500 0.51264 0.12410 -0.21500
H 	H 	0.27930 0.53720 0.10850 0.11700
N 	N 	0.45130 0.60090 0.08980 -0.21100
H 	H 	0.43120 0.61530 0.07300 0.11700
N 	N 	0.34235 0.64741 0.29220 -0.21900
H 	H 	0.33690 0.66260 0.26180 0.11600
N 	N 	0.08367 0.75002 0.24680 -0.21400
H 	H 	0.09850 0.74370 0.21630 0.11500
N 	N 	0.17280 0.91860 0.21160 -0.21300
H 	H 	0.18650 0.89930 0.19210 0.11600
N 	N 	0.03880 0.86210 0.04540 -0.21200
H 	H 	0.06390 0.85290 0.03560 0.11400
N 	N 	0.06140 0.63222 0.82470 -0.20100
H 	H 	0.08110 0.64130 0.84800 0.11500
N 	N 	0.17439 0.73595 0.67040 -0.21200
H 	H 	0.18180 0.74040 0.70600 0.11700
N 	N 	0.23349 0.56472 0.75640 -0.21200
H 	H 	0.23970 0.58400 0.78190 0.11600
O 	O 	0.20351 0.47279 0.91957 -0.37600
O 	O 	0.20129 0.53579 0.95080 -0.39100
O 	O 	0.13490 0.48921 0.03940 -0.22000
O 	O 	0.19537 0.62878 0.33242 -0.37600
O 	O 	0.19648 0.64862 0.24495 -0.40100
O 	O 	0.09770 0.58570 0.24850 -0.24000
O 	O 	0.96903 0.72598 0.98760 -0.38200
O 	O 	0.03465 0.71352 0.00274 -0.39800
O 	O 	0.99669 0.61806 0.03210 -0.23300
O 	O 	0.25886 0.46191 0.00180 -0.38100
O 	O 	0.26836 0.52755 0.01814 -0.39600
O 	O 	0.34400 0.48280 0.10670 -0.23500
O 	O 	0.52394 0.67818 0.07150 -0.40100
O 	O 	0.45735 0.68157 0.06940 -0.43300
O 	O 	0.46990 0.61350 0.17690 -0.22200
O 	O 	0.25716 0.67742 0.36990 -0.39000
O 	O 	0.26833 0.68174 0.27982 -0.40100
O 	O 	0.30946 0.59093 0.30780 -0.23800
O 	O 	0.14348 0.69365 0.33980 -0.40000
O 	O 	0.15925 0.72167 0.26040 -0.41400
O 	O 	0.10626 0.79614 0.30763 -0.22500
O 	O 	0.22695 0.00035 0.15264 -0.38900
O 	O 	0.22225 0.93550 0.12581 -0.39600
O 	O 	0.12400 0.95344 0.17220 -0.24000
O 	O 	0.98312 0.80321 0.94880 -0.38300
O 	O 	0.04549 0.79435 0.98080 -0.40500
O 	O 	0.99890 0.82467 0.09900 -0.24700
O 	O 	0.98593 0.69447 0.88550 -0.39100
O 	O 	0.05309 0.69649 0.89460 -0.40900
O 	O 	0.04318 0.66645 0.74980 -0.23500
O 	O 	0.25744 0.79431 0.62260 -0.37900
O 	O 	0.24466 0.76879 0.70654 -0.39100
O 	O 	0.20270 0.68705 0.62000 -0.22400
O 	O 	0.26430 0.48490 0.84518 -0.37600
O 	O 	0.25130 0.54981 0.86320 -0.40700
O 	O 	0.17331 0.53111 0.75690 -0.24000
Cu	Cu	0.53183 0.73733 0.07791 0.90300
Cu	Cu	0.45411 0.74005 0.05745 0.89500
Cu	Cu	0.31558 0.80069 0.63702 0.90100
Cu	Cu	0.29604 0.78443 0.73876 0.89700
Cu	Cu	0.25047 0.02069 0.08462 0.90300
Cu	Cu	0.25562 0.94399 0.05919 0.89500
C 	C 	0.49580 0.81630 0.06540 0.29700
C 	C 	0.49510 0.86090 0.07000 0.04800
H 	H 	0.52310 0.87070 0.06330 0.04600
C 	C 	0.48390 0.87270 0.12790 -0.44000
H 	H 	0.48530 0.90200 0.13160 0.16300
H 	H 	0.50270 0.86010 0.15350 0.17300
H 	H 	0.45650 0.86350 0.13580 0.16400
C 	C 	0.47840 0.87950 0.97830 0.21000
C 	C 	0.44870 0.89730 0.93850 -0.05100
C 	C 	0.44640 0.88100 0.88540 -0.00800
H 	H 	0.46260 0.85860 0.87540 0.04400
C 	C 	0.42090 0.89760 0.84920 -0.05000
C 	C 	0.39340 0.92920 0.86270 -0.01400
H 	H 	0.37400 0.93900 0.83750 0.04000
C 	C 	0.39670 0.94480 0.91590 -0.05400
C 	C 	0.42290 0.92880 0.95250 -0.00800
H 	H 	0.42370 0.93930 0.98840 0.04200
C 	C 	0.41790 0.88150 0.79070 0.22000
C 	C 	0.44550 0.78190 0.73920 -0.43100
H 	H 	0.47350 0.78920 0.74690 0.16900
H 	H 	0.44420 0.76710 0.70480 0.17400
H 	H 	0.43520 0.76490 0.76870 0.16200
C 	C 	0.41970 0.82050 0.73500 0.04200
H 	H 	0.43120 0.83850 0.70630 0.05200
C 	C 	0.37730 0.80870 0.71930 0.30200
C 	C 	0.37040 0.97950 0.93460 0.22900
C 	C 	0.27400 0.01920 0.88670 -0.45500
H 	H 	0.28690 0.02690 0.85230 0.17400
H 	H 	0.25600 0.04080 0.89860 0.17400
H 	H 	0.25850 0.99450 0.88140 0.17200
C 	C 	0.30600 0.01220 0.92950 0.05800
H 	H 	0.32110 0.03810 0.93380 0.04700
C 	C 	0.28770 0.00240 0.98420 0.30000
C 	C 	0.50880 0.73560 0.96650 0.29100
C 	C 	0.51700 0.73800 0.90580 0.08700
H 	H 	0.54430 0.72650 0.89830 0.02400
C 	C 	0.51650 0.78040 0.88840 -0.50100
H 	H 	0.52990 0.78290 0.85310 0.18200
H 	H 	0.53070 0.79680 0.91550 0.19800
H 	H 	0.48860 0.78960 0.88530 0.18300
C 	C 	0.48980 0.67440 0.87210 0.21600
C 	C 	0.45560 0.65390 0.84350 -0.06500
C 	C 	0.44270 0.61770 0.86280 -0.00100
H 	H 	0.45440 0.60720 0.89510 0.03800
C 	C 	0.41270 0.59550 0.83640 -0.05400
C 	C 	0.39450 0.61280 0.79060 -0.00000
H 	H 	0.37330 0.59890 0.77280 0.03900
C 	C 	0.40680 0.65000 0.77060 -0.06800
C 	C 	0.43800 0.66910 0.79640 0.00600
H 	H 	0.44790 0.69360 0.78170 0.03800
C 	C 	0.39740 0.55510 0.85770 0.21500
C 	C 	0.39820 0.50320 0.99050 -0.41500
H 	H 	0.42260 0.51880 0.99820 0.15100
H 	H 	0.40390 0.47450 0.99490 0.16000
H 	H 	0.37680 0.51120 0.01580 0.16300
C 	C 	0.38400 0.51170 0.92960 0.03700
H 	H 	0.39410 0.48960 0.90560 0.05100
C 	C 	0.33520 0.51090 0.93000 0.35800
C 	C 	0.38930 0.66750 0.71980 0.23800
C 	C 	0.29340 0.65470 0.65020 -0.47400
H 	H 	0.29920 0.62810 0.63480 0.17300
H 	H 	0.27770 0.67040 0.62390 0.18800
H 	H 	0.27800 0.65160 0.68390 0.17100
C 	C 	0.33170 0.67580 0.66190 0.07700
H 	H 	0.34940 0.67300 0.62920 0.03500
C 	C 	0.32540 0.72080 0.67210 0.30000
C 	C 	0.28920 0.86414 0.70420 0.32500
C 	C 	0.28270 0.91160 0.71660 0.09900
H 	H 	0.27710 0.92630 0.68190 0.02700
C 	C 	0.32140 0.92600 0.74060 -0.50800
H 	H 	0.31840 0.95390 0.75260 0.19500
H 	H 	0.34280 0.92430 0.71320 0.19600
H 	H 	0.32850 0.90910 0.77190 0.18200
C 	C 	0.21290 0.90660 0.73980 0.21000
C 	C 	0.17990 0.91020 0.78080 -0.05700
C 	C 	0.14770 0.88550 0.77670 0.00100
H 	H 	0.14630 0.86650 0.74790 0.04000
C 	C 	0.11650 0.88780 0.81430 -0.06400
C 	C 	0.11990 0.91600 0.85730 -0.00200
H 	H 	0.09900 0.91790 0.88370 0.03800
C 	C 	0.15240 0.94040 0.86140 -0.05900
C 	C 	0.18320 0.93810 0.82390 -0.01000
H 	H 	0.20620 0.95490 0.82710 0.03700
C 	C 	0.07780 0.86380 0.81120 0.23400
C 	C 	0.05580 0.76800 0.74540 -0.45800
H 	H 	0.06110 0.77930 0.70920 0.16800
H 	H 	0.03270 0.74980 0.74350 0.16700
H 	H 	0.07950 0.75310 0.75790 0.16600
C 	C 	0.04700 0.80130 0.78440 0.07600
H 	H 	0.02350 0.81710 0.77070 0.03900
C 	C 	0.03610 0.78280 0.84140 0.30100
C 	C 	0.15640 0.97080 0.90810 0.22700
C 	C 	0.11520 0.97450 0.04630 -0.45700
H 	H 	0.08730 0.97570 0.03350 0.16800
H 	H 	0.11860 0.99280 0.07720 0.18600
H 	H 	0.12160 0.94690 0.05770 0.17100
C 	C 	0.14350 0.98690 0.00040 0.05900
H 	H 	0.13710 0.01520 0.98940 0.04100
C 	C 	0.18560 0.98590 0.02520 0.31200
C 	C 	0.31940 0.97960 0.12100 0.31700
C 	C 	0.36010 0.97650 0.14860 0.02400
H 	H 	0.36300 0.99890 0.17560 0.05500
C 	C 	0.39440 0.98050 0.10390 -0.40600
H 	H 	0.41670 0.96250 0.11300 0.15400
H 	H 	0.40410 0.00840 0.10280 0.16100
H 	H 	0.38350 0.97320 0.06810 0.16300
C 	C 	0.35240 0.93030 0.22400 0.20600
C 	C 	0.35900 0.88880 0.24630 -0.05500
C 	C 	0.32940 0.87340 0.28100 -0.01000
H 	H 	0.30630 0.88900 0.28910 0.03800
C 	C 	0.33380 0.83550 0.30360 -0.05300
C 	C 	0.36882 0.81240 0.29190 -0.01400
H 	H 	0.37240 0.78630 0.30670 0.03700
C 	C 	0.39760 0.82960 0.25830 -0.04900
C 	C 	0.39230 0.86720 0.23590 -0.00800
H 	H 	0.41250 0.87800 0.21270 0.04000
C 	C 	0.30220 0.81830 0.33940 0.20400
C 	C 	0.19510 0.83330 0.35580 -0.45800
H 	H 	0.20100 0.86090 0.36760 0.17000
H 	H 	0.17370 0.82200 0.37870 0.17800
H 	H 	0.18620 0.83360 0.31770 0.17200
C 	C 	0.23220 0.80800 0.36100 0.07200
H 	H 	0.24060 0.80750 0.40010 0.03800
C 	C 	0.22270 0.76520 0.34310 0.28300
C 	C 	0.43710 0.80730 0.24640 0.19700
C 	C 	0.46770 0.70240 0.25120 -0.48200
H 	H 	0.46220 0.70350 0.29040 0.17800
H 	H 	0.49280 0.68770 0.24480 0.19000
H 	H 	0.44550 0.68850 0.23280 0.17900
C 	C 	0.47131 0.74362 0.22960 0.07600
H 	H 	0.49500 0.75680 0.24710 0.02900
C 	C 	0.47820 0.74270 0.16820 0.29900
N 	N 	0.46970 0.87940 0.03020 -0.20800
H 	H 	0.44500 0.86700 0.03340 0.11400
N 	N 	0.42072 0.84100 0.78700 -0.20400
H 	H 	0.39970 0.83080 0.80720 0.11600
N 	N 	0.33475 0.98213 0.91150 -0.21000
H 	H 	0.32250 0.95750 0.91600 0.11600
N 	N 	0.48736 0.71500 0.87590 -0.21500
H 	H 	0.46280 0.72070 0.89150 0.11700
N 	N 	0.39910 0.54870 0.91020 -0.21100
H 	H 	0.38470 0.56880 0.92700 0.11700
N 	N 	0.35259 0.65765 0.70780 -0.21900
H 	H 	0.33740 0.66310 0.73820 0.11600
N 	N 	0.24998 0.91633 0.75320 -0.21400
H 	H 	0.25630 0.90150 0.78370 0.11500
N 	N 	0.08140 0.82720 0.78840 -0.21300
H 	H 	0.10070 0.81350 0.80790 0.11600
N 	N 	0.13790 0.96120 0.95460 -0.21200
H 	H 	0.14710 0.93610 0.96440 0.11400
N 	N 	0.36778 0.93860 0.17530 -0.20100
H 	H 	0.35870 0.91890 0.15200 0.11500
N 	N 	0.26405 0.82561 0.32960 -0.21200
H 	H 	0.25960 0.81820 0.29400 0.11700
N 	N 	0.43528 0.76651 0.24360 -0.21200
H 	H 	0.41600 0.76030 0.21810 0.11600
O 	O 	0.52721 0.79649 0.08043 -0.37600
O 	O 	0.46421 0.79871 0.04920 -0.39100
O 	O 	0.51079 0.86510 0.96060 -0.22000
O 	O 	0.37122 0.80463 0.66758 -0.37600
O 	O 	0.35138 0.80352 0.75505 -0.40100
O 	O 	0.41430 0.90230 0.75150 -0.24000
O 	O 	0.27402 0.03097 0.01240 -0.38200
O 	O 	0.28648 0.96535 0.99726 -0.39800
O 	O 	0.38194 0.00331 0.96790 -0.23300
O 	O 	0.53809 0.74114 0.99820 -0.38100
O 	O 	0.47245 0.73164 0.98186 -0.39600
O 	O 	0.51720 0.65600 0.89330 -0.23500
O 	O 	0.32182 0.47606 0.92850 -0.40100
O 	O 	0.31843 0.54265 0.93060 -0.43300
O 	O 	0.38650 0.53010 0.82310 -0.22200
O 	O 	0.32258 0.74284 0.63010 -0.39000
O 	O 	0.31826 0.73167 0.72018 -0.40100
O 	O 	0.40907 0.69054 0.69220 -0.23800
O 	O 	0.30635 0.85652 0.66020 -0.40000
O 	O 	0.27833 0.84075 0.73960 -0.41400
O 	O 	0.20386 0.89374 0.69237 -0.22500
O 	O 	0.99965 0.77305 0.84736 -0.38900
O 	O 	0.06450 0.77775 0.87419 -0.39600
O 	O 	0.04656 0.87600 0.82780 -0.24000
O 	O 	0.19679 0.01688 0.05120 -0.38300
O 	O 	0.20565 0.95451 0.01920 -0.40500
O 	O 	0.17533 0.00110 0.90100 -0.24700
O 	O 	0.30553 0.01407 0.11450 -0.39100
O 	O 	0.30351 0.94691 0.10540 -0.40900
O 	O 	0.33355 0.95682 0.25020 -0.23500
O 	O 	0.20569 0.74256 0.37740 -0.37900
O 	O 	0.23121 0.75534 0.29346 -0.39100
O 	O 	0.31295 0.79730 0.38000 -0.22400
O 	O 	0.51510 0.73570 0.15482 -0.37600
O 	O 	0.45019 0.74870 0.13680 -0.40700
O 	O 	0.46889 0.82669 0.24310 -0.24000
Cu	Cu	0.73733 0.53183 0.92209 0.90300
Cu	Cu	0.74005 0.45411 0.94255 0.89500
Cu	Cu	0.80069 0.31558 0.36298 0.90100
Cu	Cu	0.78443 0.29604 0.26124 0.89700
Cu	Cu	0.02069 0.25047 0.91538 0.90300
Cu	Cu	0.94399 0.25562 0.94081 0.89500
C 	C 	0.81630 0.49580 0.93460 0.29700
C 	C 	0.86090 0.49510 0.93000 0.04800
H 	H 	0.87070 0.52310 0.93670 0.04600
C 	C 	0.87270 0.48390 0.87210 -0.44000
H 	H 	0.90200 0.48530 0.86840 0.16300
H 	H 	0.86010 0.50270 0.84650 0.17300
H 	H 	0.86350 0.45650 0.86420 0.16400
C 	C 	0.87950 0.47840 0.02170 0.21000
C 	C 	0.89730 0.44870 0.06150 -0.05100
C 	C 	0.88100 0.44640 0.11460 -0.00800
H 	H 	0.85860 0.46260 0.12460 0.04400
C 	C 	0.89760 0.42090 0.15080 -0.05000
C 	C 	0.92920 0.39340 0.13730 -0.01400
H 	H 	0.93900 0.37400 0.16250 0.04000
C 	C 	0.94480 0.39670 0.08410 -0.05400
C 	C 	0.92880 0.42290 0.04750 -0.00800
H 	H 	0.93930 0.42370 0.01160 0.04200
C 	C 	0.88150 0.41790 0.20930 0.22000
C 	C 	0.78190 0.44550 0.26080 -0.43100
H 	H 	0.78920 0.47350 0.25310 0.16900
H 	H 	0.76710 0.44420 0.29520 0.17400
H 	H 	0.76490 0.43520 0.23130 0.16200
C 	C 	0.82050 0.41970 0.26500 0.04200
H 	H 	0.83850 0.43120 0.29370 0.05200
C 	C 	0.80870 0.37730 0.28070 0.30200
C 	C 	0.97950 0.37040 0.06540 0.22900
C 	C 	0.01920 0.27400 0.11330 -0.45500
H 	H 	0.02690 0.28690 0.14770 0.17400
H 	H 	0.04080 0.25600 0.10140 0.17400
H 	H 	0.99450 0.25850 0.11860 0.17200
C 	C 	0.01220 0.30600 0.07050 0.05800
H 	H 	0.03810 0.32110 0.06620 0.04700
C 	C 	0.00240 0.28770 0.01580 0.30000
C 	C 	0.73560 0.50880 0.03350 0.29100
C 	C 	0.73800 0.51700 0.09420 0.08700
H 	H 	0.72650 0.54430 0.10170 0.02400
C 	C 	0.78040 0.51650 0.11160 -0.50100
H 	H 	0.78290 0.52990 0.14690 0.18200
H 	H 	0.79680 0.53070 0.08450 0.19800
H 	H 	0.78960 0.48860 0.11470 0.18300
C 	C 	0.67440 0.48980 0.12790 0.21600
C 	C 	0.65390 0.45560 0.15650 -0.06500
C 	C 	0.61770 0.44270 0.13720 -0.00100
H 	H 	0.60720 0.45440 0.10490 0.03800
C 	C 	0.59550 0.41270 0.16360 -0.05400
C 	C 	0.61280 0.39450 0.20940 -0.00000
H 	H 	0.59890 0.37330 0.22720 0.03900
C 	C 	0.65000 0.40680 0.22940 -0.06800
C 	C 	0.66910 0.43800 0.20360 0.00600
H 	H 	0.69360 0.44790 0.21830 0.03800
C 	C 	0.55510 0.39740 0.14230 0.21500
C 	C 	0.50320 0.39820 0.00950 -0.41500
H 	H 	0.51880 0.42260 0.00180 0.15100
H 	H 	0.47450 0.40390 0.00510 0.16000
H 	H 	0.51120 0.37680 0.98420 0.16300
C 	C 	0.51170 0.38400 0.07040 0.03700
H 	H 	0.48960 0.39410 0.09440 0.05100
C 	C 	0.51090 0.33520 0.07000 0.35800
C 	C 	0.66750 0.38930 0.28020 0.23800
C 	C 	0.65470 0.29340 0.34980 -0.47400
H 	H 	0.62810 0.29920 0.36520 0.17300
H 	H 	0.67040 0.27770 0.37610 0.18800
H 	H 	0.65160 0.27800 0.31610 0.17100
C 	C 	0.67580 0.33170 0.33810 0.07700
H 	H 	0.67300 0.34940 0.37080 0.03500
C 	C 	0.72080 0.32540 0.32790 0.30000
C 	C 	0.86414 0.28920 0.29580 0.32500
C 	C 	0.91160 0.28270 0.28340 0.09900
H 	H 	0.92630 0.27710 0.31810 0.02700
C 	C 	0.92600 0.32140 0.25940 -0.50800
H 	H 	0.95390 0.31840 0.24740 0.19500
H 	H 	0.92430 0.34280 0.28680 0.19600
H 	H 	0.90910 0.32850 0.22810 0.18200
C 	C 	0.90660 0.21290 0.26020 0.21000
C 	C 	0.91020 0.17990 0.21920 -0.05700
C 	C 	0.88550 0.14770 0.22330 0.00100
H 	H 	0.86650 0.14630 0.25210 0.04000
C 	C 	0.88780 0.11650 0.18570 -0.06400
C 	C 	0.91600 0.11990 0.14270 -0.00200
H 	H 	0.91790 0.09900 0.11630 0.03800
C 	C 	0.94040 0.15240 0.13860 -0.05900
C 	C 	0.93810 0.18320 0.17610 -0.01000
H 	H 	0.95490 0.20620 0.17290 0.03700
C 	C 	0.86380 0.07780 0.18880 0.23400
C 	C 	0.76800 0.05580 0.25460 -0.45800
H 	H 	0.77930 0.06110 0.29080 0.16800
H 	H 	0.74980 0.03270 0.25650 0.16700
H 	H 	0.75310 0.07950 0.24210 0.16600
C 	C 	0.80130 0.04700 0.21560 0.07600
H 	H 	0.81710 0.02350 0.22930 0.03900
C 	C 	0.78280 0.03610 0.15860 0.30100
C 	C 	0.97080 0.15640 0.09190 0.22700
C 	C 	0.97450 0.11520 0.95370 -0.45700
H 	H 	0.97570 0.08730 0.96650 0.16800
H 	H 	0.99280 0.11860 0.92280 0.18600
H 	H 	0.94690 0.12160 0.94230 0.17100
C 	C 	0.98690 0.14350 0.99960 0.05900
H 	H 	0.01520 0.13710 0.01060 0.04100
C 	C 	0.98590 0.18560 0.97480 0.31200
C 	C 	0.97960 0.31940 0.87900 0.31700
C 	C 	0.97650 0.36010 0.85140 0.02400
H 	H 	0.99890 0.36300 0.82440 0.05500
C 	C 	0.98050 0.39440 0.89610 -0.40600
H 	H 	0.96250 0.41670 0.88700 0.15400
H 	H 	0.00840 0.40410 0.89720 0.16100
H 	H 	0.97320 0.38350 0.93190 0.16300
C 	C 	0.93030 0.35240 0.77600 0.20600
C 	C 	0.88880 0.35900 0.75370 -0.05500
C 	C 	0.87340 0.32940 0.71900 -0.01000
H 	H 	0.88900 0.30630 0.71090 0.03800
C 	C 	0.83550 0.33380 0.69640 -0.05300
C 	C 	0.81240 0.36882 0.70810 -0.01400
H 	H 	0.78630 0.37240 0.69330 0.03700
C 	C 	0.82960 0.39760 0.74170 -0.04900
C 	C 	0.86720 0.39230 0.76410 -0.00800
H 	H 	0.87800 0.41250 0.78730 0.04000
C 	C 	0.81830 0.30220 0.66060 0.20400
C 	C 	0.83330 0.19510 0.64420 -0.45800
H 	H 	0.86090 0.20100 0.63240 0.17000
H 	H 	0.82200 0.17370 0.62130 0.17800
H 	H 	0.83360 0.18620 0.68230 0.17200
C 	C 	0.80800 0.23220 0.63900 0.07200
H 	H 	0.80750 0.24060 0.59990 0.03800
C 	C 	0.76520 0.22270 0.65690 0.28300
C 	C 	0.80730 0.43710 0.75360 0.19700
C 	C 	0.70240 0.46770 0.74880 -0.48200
H 	H 	0.70350 0.46220 0.70960 0.17800
H 	H 	0.68770 0.49280 0.75520 0.19000
H 	H 	0.68850 0.44550 0.76720 0.17900
C 	C 	0.74362 0.47131 0.77040 0.07600
H 	H 	0.75680 0.49500 0.75290 0.02900
C 	C 	0.74270 0.47820 0.83180 0.29900
N 	N 	0.87940 0.46970 0.96980 -0.20800
H 	H 	0.86700 0.44500 0.96660 0.11400
N 	N 	0.84100 0.42072 0.21300 -0.20400
H 	H 	0.83080 0.39970 0.19280 0.11600
N 	N 	0.98213 0.33475 0.08850 -0.21000
H 	H 	0.95750 0.32250 0.08400 0.11600
N 	N 	0.71500 0.48736 0.12410 -0.21500
H 	H 	0.72070 0.46280 0.10850 0.11700
N 	N 	0.54870 0.39910 0.08980 -0.21100
H 	H 	0.56880 0.38470 0.07300 0.11700
N 	N 	0.65765 0.35259 0.29220 -0.21900
H 	H 	0.66310 0.33740 0.26180 0.11600
N 	N 	0.91633 0.24998 0.24680 -0.21400
H 	H 	0.90150 0.25630 0.21630 0.11500
N 	N 	0.82720 0.08140 0.21160 -0.21300
H 	H 	0.81350 0.10070 0.19210 0.11600
N 	N 	0.96120 0.13790 0.04540 -0.21200
H 	H 	0.93610 0.14710 0.03560 0.11400
N 	N 	0.93860 0.36778 0.82470 -0.20100
H 	H 	0.91890 0.35870 0.84800 0.11500
N 	N 	0.82561 0.26405 0.67040 -0.21200
H 	H 	0.81820 0.25960 0.70600 0.11700
N 	N 	0.76651 0.43528 0.75640 -0.21200
H 	H 	0.76030 0.41600 0.78190 0.11600
O 	O 	0.79649 0.52721 0.91957 -0.37600
O 	O 	0.79871 0.46421 0.95080 -0.39100
O 	O 	0.86510 0.51079 0.03940 -0.22000
O 	O 	0.80463 0.37122 0.33242 -0.37600
O 	O 	0.80352 0.35138 0.24495 -0.40100
O 	O 	0.90230 0.41430 0.24850 -0.24000
O 	O 	0.03097 0.27402 0.98760 -0.38200
O 	O 	0.96535 0.28648 0.00274 -0.39800
O 	O 	0.00331 0.38194 0.03210 -0.23300
O 	O 	0.74114 0.53809 0.00180 -0.38100
O 	O 	0.73164 0.47245 0.01814 -0.39600
O 	O 	0.65600 0.51720 0.10670 -0.23500
O 	O 	0.47606 0.32182 0.07150 -0.40100
O 	O 	0.54265 0.31843 0.06940 -0.43300
O 	O 	0.53010 0.38650 0.17690 -0.22200
O 	O 	0.74284 0.32258 0.36990 -0.39000
O 	O 	0.73167 0.31826 0.27982 -0.40100
O 	O 	0.69054 0.40907 0.30780 -0.23800
O 	O 	0.85652 0.30635 0.33980 -0.40000
O 	O 	0.84075 0.27833 0.26040 -0.41400
O 	O 	0.89374 0.20386 0.30763 -0.22500
O 	O 	0.77305 0.99965 0.15264 -0.38900
O 	O 	0.77775 0.06450 0.12581 -0.39600
O 	O 	0.87600 0.04656 0.17220 -0.24000
O 	O 	0.01688 0.19679 0.94880 -0.38300
O 	O 	0.95451 0.20565 0.98080 -0.40500
O 	O 	0.00110 0.17533 0.09900 -0.24700
O 	O 	0.01407 0.30553 0.88550 -0.39100
O 	O 	0.94691 0.30351 0.89460 -0.40900
O 	O 	0.95682 0.33355 0.74980 -0.23500
O 	O 	0.74256 0.20569 0.62260 -0.37900
O 	O 	0.75534 0.23121 0.70654 -0.39100
O 	O 	0.79730 0.31295 0.62000 -0.22400
O 	O 	0.73570 0.51510 0.84518 -0.37600
O 	O 	0.74870 0.45019 0.86320 -0.40700
O 	O 	0.82669 0.46889 0.75690 -0.24000
Cu	Cu	0.46817 0.26267 0.07791 0.90300
Cu	Cu	0.54589 0.25995 0.05745 0.89500
Cu	Cu	0.68442 0.19931 0.63702 0.90100
Cu	Cu	0.70396 0.21557 0.73876 0.89700
Cu	Cu	0.74953 0.97931 0.08462 0.90300
Cu	Cu	0.74438 0.05601 0.05919 0.89500
C 	C 	0.50420 0.18370 0.06540 0.29700
C 	C 	0.50490 0.13910 0.07000 0.04800
H 	H 	0.47690 0.12930 0.06330 0.04600
C 	C 	0.51610 0.12730 0.12790 -0.44000
H 	H 	0.51470 0.09800 0.13160 0.16300
H 	H 	0.49730 0.13990 0.15350 0.17300
H 	H 	0.54350 0.13650 0.13580 0.16400
C 	C 	0.52160 0.12050 0.97830 0.21000
C 	C 	0.55130 0.10270 0.93850 -0.05100
C 	C 	0.55360 0.11900 0.88540 -0.00800
H 	H 	0.53740 0.14140 0.87540 0.04400
C 	C 	0.57910 0.10240 0.84920 -0.05000
C 	C 	0.60660 0.07080 0.86270 -0.01400
H 	H 	0.62600 0.06100 0.83750 0.04000
C 	C 	0.60330 0.05520 0.91590 -0.05400
C 	C 	0.57710 0.07120 0.95250 -0.00800
H 	H 	0.57630 0.06070 0.98840 0.04200
C 	C 	0.58210 0.11850 0.79070 0.22000
C 	C 	0.55450 0.21810 0.73920 -0.43100
H 	H 	0.52650 0.21080 0.74690 0.16900
H 	H 	0.55580 0.23290 0.70480 0.17400
H 	H 	0.56480 0.23510 0.76870 0.16200
C 	C 	0.58030 0.17950 0.73500 0.04200
H 	H 	0.56880 0.16150 0.70630 0.05200
C 	C 	0.62270 0.19130 0.71930 0.30200
C 	C 	0.62960 0.02050 0.93460 0.22900
C 	C 	0.72600 0.98080 0.88670 -0.45500
H 	H 	0.71310 0.97310 0.85230 0.17400
H 	H 	0.74400 0.95920 0.89860 0.17400
H 	H 	0.74150 0.00550 0.88140 0.17200
C 	C 	0.69400 0.98780 0.92950 0.05800
H 	H 	0.67890 0.96190 0.93380 0.04700
C 	C 	0.71230 0.99760 0.98420 0.30000
C 	C 	0.49120 0.26440 0.96650 0.29100
C 	C 	0.48300 0.26200 0.90580 0.08700
H 	H 	0.45570 0.27350 0.89830 0.02400
C 	C 	0.48350 0.21960 0.88840 -0.50100
H 	H 	0.47010 0.21710 0.85310 0.18200
H 	H 	0.46930 0.20320 0.91550 0.19800
H 	H 	0.51140 0.21040 0.88530 0.18300
C 	C 	0.51020 0.32560 0.87210 0.21600
C 	C 	0.54440 0.34610 0.84350 -0.06500
C 	C 	0.55730 0.38230 0.86280 -0.00100
H 	H 	0.54560 0.39280 0.89510 0.03800
C 	C 	0.58730 0.40450 0.83640 -0.05400
C 	C 	0.60550 0.38720 0.79060 -0.00000
H 	H 	0.62670 0.40110 0.77280 0.03900
C 	C 	0.59320 0.35000 0.77060 -0.06800
C 	C 	0.56200 0.33090 0.79640 0.00600
H 	H 	0.55210 0.30640 0.78170 0.03800
C 	C 	0.60260 0.44490 0.85770 0.21500
C 	C 	0.60180 0.49680 0.99050 -0.41500
H 	H 	0.57740 0.48120 0.99820 0.15100
H 	H 	0.59610 0.52550 0.99490 0.16000
H 	H 	0.62320 0.48880 0.01580 0.16300
C 	C 	0.61600 0.48830 0.92960 0.03700
H 	H 	0.60590 0.51040 0.90560 0.05100
C 	C 	0.66480 0.48910 0.93000 0.35800
C 	C 	0.61070 0.33250 0.71980 0.23800
C 	C 	0.70660 0.34530 0.65020 -0.47400
H 	H 	0.70080 0.37190 0.63480 0.17300
H 	H 	0.72230 0.32960 0.62390 0.18800
H 	H 	0.72200 0.34840 0.68390 0.17100
C 	C 	0.66830 0.32420 0.66190 0.07700
H 	H 	0.65060 0.32700 0.62920 0.03500
C 	C 	0.67460 0.27920 0.67210 0.30000
C 	C 	0.71080 0.13586 0.70420 0.32500
C 	C 	0.71730 0.08840 0.71660 0.09900
H 	H 	0.72290 0.07370 0.68190 0.02700
C 	C 	0.67860 0.07400 0.74060 -0.50800
H 	H 	0.68160 0.04610 0.75260 0.19500
H 	H 	0.65720 0.07570 0.71320 0.19600
H 	H 	0.67150 0.09090 0.77190 0.18200
C 	C 	0.78710 0.09340 0.73980 0.21000
C 	C 	0.82010 0.08980 0.78080 -0.05700
C 	C 	0.85230 0.11450 0.77670 0.00100
H 	H 	0.85370 0.13350 0.74790 0.04000
C 	C 	0.88350 0.11220 0.81430 -0.06400
C 	C 	0.88010 0.08400 0.85730 -0.00200
H 	H 	0.90100 0.08210 0.88370 0.03800
C 	C 	0.84760 0.05960 0.86140 -0.05900
C 	C 	0.81680 0.06190 0.82390 -0.01000
H 	H 	0.79380 0.04510 0.82710 0.03700
C 	C 	0.92220 0.13620 0.81120 0.23400
C 	C 	0.94420 0.23200 0.74540 -0.45800
H 	H 	0.93890 0.22070 0.70920 0.16800
H 	H 	0.96730 0.25020 0.74350 0.16700
H 	H 	0.92050 0.24690 0.75790 0.16600
C 	C 	0.95300 0.19870 0.78440 0.07600
H 	H 	0.97650 0.18290 0.77070 0.03900
C 	C 	0.96390 0.21720 0.84140 0.30100
C 	C 	0.84360 0.02920 0.90810 0.22700
C 	C 	0.88480 0.02550 0.04630 -0.45700
H 	H 	0.91270 0.02430 0.03350 0.16800
H 	H 	0.88140 0.00720 0.07720 0.18600
H 	H 	0.87840 0.05310 0.05770 0.17100
C 	C 	0.85650 0.01310 0.00040 0.05900
H 	H 	0.86290 0.98480 0.98940 0.04100
C 	C 	0.81440 0.01410 0.02520 0.31200
C 	C 	0.68060 0.02040 0.12100 0.31700
C 	C 	0.63990 0.02350 0.14860 0.02400
H 	H 	0.63700 0.00110 0.17560 0.05500
C 	C 	0.60560 0.01950 0.10390 -0.40600
H 	H 	0.58330 0.03750 0.11300 0.15400
H 	H 	0.59590 0.99160 0.10280 0.16100
H 	H 	0.61650 0.02680 0.06810 0.16300
C 	C 	0.64760 0.06970 0.22400 0.20600
C 	C 	0.64100 0.11120 0.24630 -0.05500
C 	C 	0.67060 0.12660 0.28100 -0.01000
H 	H 	0.69370 0.11100 0.28910 0.03800
C 	C 	0.66620 0.16450 0.30360 -0.05300
C 	C 	0.63118 0.18760 0.29190 -0.01400
H 	H 	0.62760 0.21370 0.30670 0.03700
C 	C 	0.60240 0.17040 0.25830 -0.04900
C 	C 	0.60770 0.13280 0.23590 -0.00800
H 	H 	0.58750 0.12200 0.21270 0.04000
C 	C 	0.69780 0.18170 0.33940 0.20400
C 	C 	0.80490 0.16670 0.35580 -0.45800
H 	H 	0.79900 0.13910 0.36760 0.17000
H 	H 	0.82630 0.17800 0.37870 0.17800
H 	H 	0.81380 0.16640 0.31770 0.17200
C 	C 	0.76780 0.19200 0.36100 0.07200
H 	H 	0.75940 0.19250 0.40010 0.03800
C 	C 	0.77730 0.23480 0.34310 0.28300
C 	C 	0.56290 0.19270 0.24640 0.19700
C 	C 	0.53230 0.29760 0.25120 -0.48200
H 	H 	0.53780 0.29650 0.29040 0.17800
H 	H 	0.50720 0.31230 0.24480 0.19000
H 	H 	0.55450 0.31150 0.23280 0.17900
C 	C 	0.52869 0.25638 0.22960 0.07600
H 	H 	0.50500 0.24320 0.24710 0.02900
C 	C 	0.52180 0.25730 0.16820 0.29900
N 	N 	0.53030 0.12060 0.03020 -0.20800
H 	H 	0.55500 0.13300 0.03340 0.11400
N 	N 	0.57928 0.15900 0.78700 -0.20400
H 	H 	0.60030 0.16920 0.80720 0.11600
N 	N 	0.66525 0.01787 0.91150 -0.21000
H 	H 	0.67750 0.04250 0.91600 0.11600
N 	N 	0.51264 0.28500 0.87590 -0.21500
H 	H 	0.53720 0.27930 0.89150 0.11700
N 	N 	0.60090 0.45130 0.91020 -0.21100
H 	H 	0.61530 0.43120 0.92700 0.11700
N 	N 	0.64741 0.34235 0.70780 -0.21900
H 	H 	0.66260 0.33690 0.73820 0.11600
N 	N 	0.75002 0.08367 0.75320 -0.21400
H 	H 	0.74370 0.09850 0.78370 0.11500
N 	N 	0.91860 0.17280 0.78840 -0.21300
H 	H 	0.89930 0.18650 0.80790 0.11600
N 	N 	0.86210 0.03880 0.95460 -0.21200
H 	H 	0.85290 0.06390 0.96440 0.11400
N 	N 	0.63222 0.06140 0.17530 -0.20100
H 	H 	0.64130 0.08110 0.15200 0.11500
N 	N 	0.73595 0.17439 0.32960 -0.21200
H 	H 	0.74040 0.18180 0.29400 0.11700
N 	N 	0.56472 0.23349 0.24360 -0.21200
H 	H 	0.58400 0.23970 0.21810 0.11600
O 	O 	0.47279 0.20351 0.08043 -0.37600
O 	O 	0.53579 0.20129 0.04920 -0.39100
O 	O 	0.48921 0.13490 0.96060 -0.22000
O 	O 	0.62878 0.19537 0.66758 -0.37600
O 	O 	0.64862 0.19648 0.75505 -0.40100
O 	O 	0.58570 0.09770 0.75150 -0.24000
O 	O 	0.72598 0.96903 0.01240 -0.38200
O 	O 	0.71352 0.03465 0.99726 -0.39800
O 	O 	0.61806 0.99669 0.96790 -0.23300
O 	O 	0.46191 0.25886 0.99820 -0.38100
O 	O 	0.52755 0.26836 0.98186 -0.39600
O 	O 	0.48280 0.34400 0.89330 -0.23500
O 	O 	0.67818 0.52394 0.92850 -0.40100
O 	O 	0.68157 0.45735 0.93060 -0.43300
O 	O 	0.61350 0.46990 0.82310 -0.22200
O 	O 	0.67742 0.25716 0.63010 -0.39000
O 	O 	0.68174 0.26833 0.72018 -0.40100
O 	O 	0.59093 0.30946 0.69220 -0.23800
O 	O 	0.69365 0.14348 0.66020 -0.40000
O 	O 	0.72167 0.15925 0.73960 -0.41400
O 	O 	0.79614 0.10626 0.69237 -0.22500
O 	O 	0.00035 0.22695 0.84736 -0.38900
O 	O 	0.93550 0.22225 0.87419 -0.39600
O 	O 	0.95344 0.12400 0.82780 -0.24000
O 	O 	0.80321 0.98312 0.05120 -0.38300
O 	O 	0.79435 0.04549 0.01920 -0.40500
O 	O 	0.82467 0.99890 0.90100 -0.24700
O 	O 	0.69447 0.98593 0.11450 -0.39100
O 	O 	0.69649 0.05309 0.10540 -0.40900
O 	O 	0.66645 0.04318 0.25020 -0.23500
O 	O 	0.79431 0.25744 0.37740 -0.37900
O 	O 	0.76879 0.24466 0.29346 -0.39100
O 	O 	0.68705 0.20270 0.38000 -0.22400
O 	O 	0.48490 0.26430 0.15482 -0.37600
O 	O 	0.54981 0.25130 0.13680 -0.40700
O 	O 	0.53111 0.17331 0.24310 -0.24000
Cu	Cu	0.03183 0.76267 0.42209 0.90300
Cu	Cu	0.95411 0.75995 0.44255 0.89500
Cu	Cu	0.81558 0.69931 0.86298 0.90100
Cu	Cu	0.79604 0.71557 0.76124 0.89700
Cu	Cu	0.75047 0.47931 0.41538 0.90300
Cu	Cu	0.75562 0.55601 0.44081 0.89500
C 	C 	0.99580 0.68370 0.43460 0.29700
C 	C 	0.99510 0.63910 0.43000 0.04800
H 	H 	0.02310 0.62930 0.43670 0.04600
C 	C 	0.98390 0.62730 0.37210 -0.44000
H 	H 	0.98530 0.59800 0.36840 0.16300
H 	H 	0.00270 0.63990 0.34650 0.17300
H 	H 	0.95650 0.63650 0.36420 0.16400
C 	C 	0.97840 0.62050 0.52170 0.21000
C 	C 	0.94870 0.60270 0.56150 -0.05100
C 	C 	0.94640 0.61900 0.61460 -0.00800
H 	H 	0.96260 0.64140 0.62460 0.04400
C 	C 	0.92090 0.60240 0.65080 -0.05000
C 	C 	0.89340 0.57080 0.63730 -0.01400
H 	H 	0.87400 0.56100 0.66250 0.04000
C 	C 	0.89670 0.55520 0.58410 -0.05400
C 	C 	0.92290 0.57120 0.54750 -0.00800
H 	H 	0.92370 0.56070 0.51160 0.04200
C 	C 	0.91790 0.61850 0.70930 0.22000
C 	C 	0.94550 0.71810 0.76080 -0.43100
H 	H 	0.97350 0.71080 0.75310 0.16900
H 	H 	0.94420 0.73290 0.79520 0.17400
H 	H 	0.93520 0.73510 0.73130 0.16200
C 	C 	0.91970 0.67950 0.76500 0.04200
H 	H 	0.93120 0.66150 0.79370 0.05200
C 	C 	0.87730 0.69130 0.78070 0.30200
C 	C 	0.87040 0.52050 0.56540 0.22900
C 	C 	0.77400 0.48080 0.61330 -0.45500
H 	H 	0.78690 0.47310 0.64770 0.17400
H 	H 	0.75600 0.45920 0.60140 0.17400
H 	H 	0.75850 0.50550 0.61860 0.17200
C 	C 	0.80600 0.48780 0.57050 0.05800
H 	H 	0.82110 0.46190 0.56620 0.04700
C 	C 	0.78770 0.49760 0.51580 0.30000
C 	C 	0.00880 0.76440 0.53350 0.29100
C 	C 	0.01700 0.76200 0.59420 0.08700
H 	H 	0.04430 0.77350 0.60170 0.02400
C 	C 	0.01650 0.71960 0.61160 -0.50100
H 	H 	0.02990 0.71710 0.64690 0.18200
H 	H 	0.03070 0.70320 0.58450 0.19900
H 	H 	0.98860 0.71040 0.61470 0.18300
C 	C 	0.98980 0.82560 0.62790 0.21600
C 	C 	0.95560 0.84610 0.65650 -0.06500
C 	C 	0.94270 0.88230 0.63720 -0.00100
H 	H 	0.95440 0.89280 0.60490 0.03800
C 	C 	0.91270 0.90450 0.66360 -0.05400
C 	C 	0.89450 0.88720 0.70940 -0.00000
H 	H 	0.87330 0.90110 0.72720 0.03900
C 	C 	0.90680 0.85000 0.72940 -0.06800
C 	C 	0.93800 0.83090 0.70360 0.00600
H 	H 	0.94790 0.80640 0.71830 0.03800
C 	C 	0.89740 0.94490 0.64230 0.21500
C 	C 	0.89820 0.99680 0.50950 -0.41500
H 	H 	0.92260 0.98120 0.50180 0.15100
H 	H 	0.90390 0.02550 0.50510 0.16000
H 	H 	0.87680 0.98880 0.48420 0.16300
C 	C 	0.88400 0.98830 0.57040 0.03700
H 	H 	0.89410 0.01040 0.59440 0.05100
C 	C 	0.83520 0.98910 0.57000 0.35800
C 	C 	0.88930 0.83250 0.78020 0.23800
C 	C 	0.79340 0.84530 0.84980 -0.47400
H 	H 	0.79920 0.87190 0.86520 0.17300
H 	H 	0.77770 0.82960 0.87610 0.18800
H 	H 	0.77800 0.84840 0.81610 0.17100
C 	C 	0.83170 0.82420 0.83810 0.07700
H 	H 	0.84940 0.82700 0.87080 0.03500
C 	C 	0.82540 0.77920 0.82790 0.30000
C 	C 	0.78920 0.63586 0.79580 0.32500
C 	C 	0.78270 0.58840 0.78340 0.09900
H 	H 	0.77710 0.57370 0.81810 0.02700
C 	C 	0.82140 0.57400 0.75940 -0.50800
H 	H 	0.81840 0.54610 0.74740 0.19500
H 	H 	0.84280 0.57570 0.78680 0.19600
H 	H 	0.82850 0.59090 0.72810 0.18200
C 	C 	0.71290 0.59340 0.76020 0.21000
C 	C 	0.67990 0.58980 0.71920 -0.05700
C 	C 	0.64770 0.61450 0.72330 0.00100
H 	H 	0.64630 0.63350 0.75210 0.04000
C 	C 	0.61650 0.61220 0.68570 -0.06400
C 	C 	0.61990 0.58400 0.64270 -0.00200
H 	H 	0.59900 0.58210 0.61630 0.03800
C 	C 	0.65240 0.55960 0.63860 -0.05900
C 	C 	0.68320 0.56190 0.67610 -0.01000
H 	H 	0.70620 0.54510 0.67290 0.03700
C 	C 	0.57780 0.63620 0.68880 0.23400
C 	C 	0.55580 0.73200 0.75460 -0.45800
H 	H 	0.56110 0.72070 0.79080 0.16800
H 	H 	0.53270 0.75020 0.75650 0.16700
H 	H 	0.57950 0.74690 0.74210 0.16600
C 	C 	0.54700 0.69870 0.71560 0.07600
H 	H 	0.52350 0.68290 0.72930 0.03900
C 	C 	0.53610 0.71720 0.65860 0.30100
C 	C 	0.65640 0.52920 0.59190 0.22700
C 	C 	0.61520 0.52550 0.45370 -0.45700
H 	H 	0.58730 0.52430 0.46650 0.16800
H 	H 	0.61860 0.50720 0.42280 0.18600
H 	H 	0.62160 0.55310 0.44230 0.17100
C 	C 	0.64350 0.51310 0.49960 0.05900
H 	H 	0.63710 0.48480 0.51060 0.04100
C 	C 	0.68560 0.51410 0.47480 0.31200
C 	C 	0.81940 0.52040 0.37900 0.31700
C 	C 	0.86010 0.52350 0.35140 0.02400
H 	H 	0.86300 0.50110 0.32440 0.05500
C 	C 	0.89440 0.51950 0.39610 -0.40600
H 	H 	0.91670 0.53750 0.38700 0.15400
H 	H 	0.90410 0.49160 0.39720 0.16100
H 	H 	0.88350 0.52680 0.43190 0.16300
C 	C 	0.85240 0.56970 0.27600 0.20600
C 	C 	0.85900 0.61120 0.25370 -0.05500
C 	C 	0.82940 0.62660 0.21900 -0.01000
H 	H 	0.80630 0.61100 0.21090 0.03800
C 	C 	0.83380 0.66450 0.19640 -0.05300
C 	C 	0.86882 0.68760 0.20810 -0.01400
H 	H 	0.87240 0.71370 0.19330 0.03700
C 	C 	0.89760 0.67040 0.24170 -0.04900
C 	C 	0.89230 0.63280 0.26410 -0.00800
H 	H 	0.91250 0.62200 0.28730 0.04000
C 	C 	0.80220 0.68170 0.16060 0.20400
C 	C 	0.69510 0.66670 0.14420 -0.45800
H 	H 	0.70100 0.63910 0.13240 0.17000
H 	H 	0.67370 0.67800 0.12130 0.17800
H 	H 	0.68620 0.66640 0.18230 0.17200
C 	C 	0.73220 0.69200 0.13900 0.07200
H 	H 	0.74060 0.69250 0.09990 0.03800
C 	C 	0.72270 0.73480 0.15690 0.28300
C 	C 	0.93710 0.69270 0.25360 0.19700
C 	C 	0.96770 0.79760 0.24880 -0.48200
H 	H 	0.96220 0.79650 0.20960 0.17800
H 	H 	0.99280 0.81230 0.25520 0.19000
H 	H 	0.94550 0.81150 0.26720 0.17900
C 	C 	0.97131 0.75638 0.27040 0.07600
H 	H 	0.99500 0.74320 0.25290 0.02900
C 	C 	0.97820 0.75730 0.33180 0.29900
N 	N 	0.96970 0.62060 0.46980 -0.20800
H 	H 	0.94500 0.63300 0.46660 0.11400
N 	N 	0.92072 0.65900 0.71300 -0.20400
H 	H 	0.89970 0.66920 0.69280 0.11600
N 	N 	0.83475 0.51787 0.58850 -0.21000
H 	H 	0.82250 0.54250 0.58400 0.11600
N 	N 	0.98736 0.78500 0.62410 -0.21500
H 	H 	0.96280 0.77930 0.60850 0.11700
N 	N 	0.89910 0.95130 0.58980 -0.21100
H 	H 	0.88470 0.93120 0.57300 0.11700
N 	N 	0.85259 0.84235 0.79220 -0.21900
H 	H 	0.83740 0.83690 0.76180 0.11600
N 	N 	0.74998 0.58367 0.74680 -0.21400
H 	H 	0.75630 0.59850 0.71630 0.11500
N 	N 	0.58140 0.67280 0.71160 -0.21300
H 	H 	0.60070 0.68650 0.69210 0.11600
N 	N 	0.63790 0.53880 0.54540 -0.21200
H 	H 	0.64710 0.56390 0.53560 0.11400
N 	N 	0.86778 0.56140 0.32470 -0.20100
H 	H 	0.85870 0.58110 0.34800 0.11500
N 	N 	0.76405 0.67439 0.17040 -0.21200
H 	H 	0.75960 0.68180 0.20600 0.11700
N 	N 	0.93528 0.73349 0.25640 -0.21200
H 	H 	0.91600 0.73970 0.28190 0.11600
O 	O 	0.02721 0.70351 0.41957 -0.37600
O 	O 	0.96421 0.70129 0.45080 -0.39100
O 	O 	0.01079 0.63490 0.53940 -0.22000
O 	O 	0.87122 0.69537 0.83242 -0.37600
O 	O 	0.85138 0.69648 0.74495 -0.40100
O 	O 	0.91430 0.59770 0.74850 -0.24000
O 	O 	0.77402 0.46903 0.48760 -0.38200
O 	O 	0.78648 0.53465 0.50274 -0.39800
O 	O 	0.88194 0.49669 0.53210 -0.23300
O 	O 	0.03809 0.75886 0.50180 -0.38100
O 	O 	0.97245 0.76836 0.51814 -0.39600
O 	O 	0.01720 0.84400 0.60670 -0.23500
O 	O 	0.82182 0.02394 0.57150 -0.40100
O 	O 	0.81843 0.95735 0.56940 -0.43300
O 	O 	0.88650 0.96990 0.67690 -0.22200
O 	O 	0.82258 0.75716 0.86990 -0.39000
O 	O 	0.81826 0.76833 0.77982 -0.40100
O 	O 	0.90907 0.80946 0.80780 -0.23800
O 	O 	0.80635 0.64348 0.83980 -0.40000
O 	O 	0.77833 0.65925 0.76040 -0.41400
O 	O 	0.70386 0.60626 0.80763 -0.22500
O 	O 	0.49965 0.72695 0.65264 -0.38900
O 	O 	0.56450 0.72225 0.62581 -0.39600
O 	O 	0.54656 0.62400 0.67220 -0.24000
O 	O 	0.69679 0.48312 0.44880 -0.38300
O 	O 	0.70565 0.54549 0.48080 -0.40500
O 	O 	0.67533 0.49890 0.59900 -0.24700
O 	O 	0.80553 0.48593 0.38550 -0.39100
O 	O 	0.80351 0.55309 0.39460 -0.40900
O 	O 	0.83355 0.54318 0.24980 -0.23500
O 	O 	0.70569 0.75744 0.12260 -0.37900
O 	O 	0.73121 0.74466 0.20654 -0.39100
O 	O 	0.81295 0.70270 0.12000 -0.22400
O 	O 	0.01510 0.76430 0.34518 -0.37600
O 	O 	0.95019 0.75130 0.36320 -0.40700
O 	O 	0.96889 0.67331 0.25690 -0.24000
Cu	Cu	0.76267 0.03183 0.57791 0.90300
Cu	Cu	0.75995 0.95411 0.55745 0.89500
Cu	Cu	0.69931 0.81558 0.13702 0.90100
Cu	Cu	0.71557 0.79604 0.23876 0.89700
Cu	Cu	0.47931 0.75047 0.58462 0.90300
Cu	Cu	0.55601 0.75562 0.55919 0.89500
C 	C 	0.68370 0.99580 0.56540 0.29700
C 	C 	0.63910 0.99510 0.57000 0.04800
H 	H 	0.62930 0.02310 0.56330 0.04600
C 	C 	0.62730 0.98390 0.62790 -0.44000
H 	H 	0.59800 0.98530 0.63160 0.16300
H 	H 	0.63990 0.00270 0.65350 0.17300
H 	H 	0.63650 0.95650 0.63580 0.16400
C 	C 	0.62050 0.97840 0.47830 0.21000
C 	C 	0.60270 0.94870 0.43850 -0.05100
C 	C 	0.61900 0.94640 0.38540 -0.00800
H 	H 	0.64140 0.96260 0.37540 0.04400
C 	C 	0.60240 0.92090 0.34920 -0.05000
C 	C 	0.57080 0.89340 0.36270 -0.01400
H 	H 	0.56100 0.87400 0.33750 0.04000
C 	C 	0.55520 0.89670 0.41590 -0.05400
C 	C 	0.57120 0.92290 0.45250 -0.00800
H 	H 	0.56070 0.92370 0.48840 0.04200
C 	C 	0.61850 0.91790 0.29070 0.22000
C 	C 	0.71810 0.94550 0.23920 -0.43100
H 	H 	0.71080 0.97350 0.24690 0.16900
H 	H 	0.73290 0.94420 0.20480 0.17400
H 	H 	0.73510 0.93520 0.26870 0.16200
C 	C 	0.67950 0.91970 0.23500 0.04200
H 	H 	0.66150 0.93120 0.20630 0.05200
C 	C 	0.69130 0.87730 0.21930 0.30200
C 	C 	0.52050 0.87040 0.43460 0.22900
C 	C 	0.48080 0.77400 0.38670 -0.45500
H 	H 	0.47310 0.78690 0.35230 0.17400
H 	H 	0.45920 0.75600 0.39860 0.17400
H 	H 	0.50550 0.75850 0.38140 0.17200
C 	C 	0.48780 0.80600 0.42950 0.05800
H 	H 	0.46190 0.82110 0.43380 0.04700
C 	C 	0.49760 0.78770 0.48420 0.30000
C 	C 	0.76440 0.00880 0.46650 0.29100
C 	C 	0.76200 0.01700 0.40580 0.08700
H 	H 	0.77350 0.04430 0.39830 0.02400
C 	C 	0.71960 0.01650 0.38840 -0.50100
H 	H 	0.71710 0.02990 0.35310 0.18200
H 	H 	0.70320 0.03070 0.41550 0.19900
H 	H 	0.71040 0.98860 0.38530 0.18300
C 	C 	0.82560 0.98980 0.37210 0.21600
C 	C 	0.84610 0.95560 0.34350 -0.06500
C 	C 	0.88230 0.94270 0.36280 -0.00100
H 	H 	0.89280 0.95440 0.39510 0.03800
C 	C 	0.90450 0.91270 0.33640 -0.05400
C 	C 	0.88720 0.89450 0.29060 -0.00000
H 	H 	0.90110 0.87330 0.27280 0.03900
C 	C 	0.85000 0.90680 0.27060 -0.06800
C 	C 	0.83090 0.93800 0.29640 0.00600
H 	H 	0.80640 0.94790 0.28170 0.03800
C 	C 	0.94490 0.89740 0.35770 0.21500
C 	C 	0.99680 0.89820 0.49050 -0.41500
H 	H 	0.98120 0.92260 0.49820 0.15100
H 	H 	0.02550 0.90390 0.49490 0.16000
H 	H 	0.98880 0.87680 0.51580 0.16300
C 	C 	0.98830 0.88400 0.42960 0.03700
H 	H 	0.01040 0.89410 0.40560 0.05100
C 	C 	0.98910 0.83520 0.43000 0.35800
C 	C 	0.83250 0.88930 0.21980 0.23800
C 	C 	0.84530 0.79340 0.15020 -0.47400
H 	H 	0.87190 0.79920 0.13480 0.17300
H 	H 	0.82960 0.77770 0.12390 0.18800
H 	H 	0.84840 0.77800 0.18390 0.17100
C 	C 	0.82420 0.83170 0.16190 0.07700
H 	H 	0.82700 0.84940 0.12920 0.03500
C 	C 	0.77920 0.82540 0.17210 0.30000
C 	C 	0.63586 0.78920 0.20420 0.32500
C 	C 	0.58840 0.78270 0.21660 0.09900
H 	H 	0.57370 0.77710 0.18190 0.02700
C 	C 	0.57400 0.82140 0.24060 -0.50800
H 	H 	0.54610 0.81840 0.25260 0.19500
H 	H 	0.57570 0.84280 0.21320 0.19600
H 	H 	0.59090 0.82850 0.27190 0.18200
C 	C 	0.59340 0.71290 0.23980 0.21000
C 	C 	0.58980 0.67990 0.28080 -0.05700
C 	C 	0.61450 0.64770 0.27670 0.00100
H 	H 	0.63350 0.64630 0.24790 0.04000
C 	C 	0.61220 0.61650 0.31430 -0.06400
C 	C 	0.58400 0.61990 0.35730 -0.00200
H 	H 	0.58210 0.59900 0.38370 0.03800
C 	C 	0.55960 0.65240 0.36140 -0.05900
C 	C 	0.56190 0.68320 0.32390 -0.01000
H 	H 	0.54510 0.70620 0.32710 0.03700
C 	C 	0.63620 0.57780 0.31120 0.23400
C 	C 	0.73200 0.55580 0.24540 -0.45800
H 	H 	0.72070 0.56110 0.20920 0.16800
H 	H 	0.75020 0.53270 0.24350 0.16700
H 	H 	0.74690 0.57950 0.25790 0.16600
C 	C 	0.69870 0.54700 0.28440 0.07600
H 	H 	0.68290 0.52350 0.27070 0.03900
C 	C 	0.71720 0.53610 0.34140 0.30100
C 	C 	0.52920 0.65640 0.40810 0.22700
C 	C 	0.52550 0.61520 0.54630 -0.45700
H 	H 	0.52430 0.58730 0.53350 0.16800
H 	H 	0.50720 0.61860 0.57720 0.18600
H 	H 	0.55310 0.62160 0.55770 0.17100
C 	C 	0.51310 0.64350 0.50040 0.05900
H 	H 	0.48480 0.63710 0.48940 0.04100
C 	C 	0.51410 0.68560 0.52520 0.31200
C 	C 	0.52040 0.81940 0.62100 0.31700
C 	C 	0.52350 0.86010 0.64860 0.02400
H 	H 	0.50110 0.86300 0.67560 0.05500
C 	C 	0.51950 0.89440 0.60390 -0.40600
H 	H 	0.53750 0.91670 0.61300 0.15400
H 	H 	0.49160 0.90410 0.60280 0.16100
H 	H 	0.52680 0.88350 0.56810 0.16300
C 	C 	0.56970 0.85240 0.72400 0.20600
C 	C 	0.61120 0.85900 0.74630 -0.05500
C 	C 	0.62660 0.82940 0.78100 -0.01000
H 	H 	0.61100 0.80630 0.78910 0.03800
C 	C 	0.66450 0.83380 0.80360 -0.05300
C 	C 	0.68760 0.86882 0.79190 -0.01400
H 	H 	0.71370 0.87240 0.80670 0.03700
C 	C 	0.67040 0.89760 0.75830 -0.04900
C 	C 	0.63280 0.89230 0.73590 -0.00800
H 	H 	0.62200 0.91250 0.71270 0.04000
C 	C 	0.68170 0.80220 0.83940 0.20400
C 	C 	0.66670 0.69510 0.85580 -0.45800
H 	H 	0.63910 0.70100 0.86760 0.17000
H 	H 	0.67800 0.67370 0.87870 0.17800
H 	H 	0.66640 0.68620 0.81770 0.17200
C 	C 	0.69200 0.73220 0.86100 0.07200
H 	H 	0.69250 0.74060 0.90010 0.03800
C 	C 	0.73480 0.72270 0.84310 0.28300
C 	C 	0.69270 0.93710 0.74640 0.19700
C 	C 	0.79760 0.96770 0.75120 -0.48200
H 	H 	0.79650 0.96220 0.79040 0.17800
H 	H 	0.81230 0.99280 0.74480 0.19000
H 	H 	0.81150 0.94550 0.73280 0.17900
C 	C 	0.75638 0.97131 0.72960 0.07600
H 	H 	0.74320 0.99500 0.74710 0.02900
C 	C 	0.75730 0.97820 0.66820 0.29900
N 	N 	0.62060 0.96970 0.53020 -0.20800
H 	H 	0.63300 0.94500 0.53340 0.11400
N 	N 	0.65900 0.92072 0.28700 -0.20400
H 	H 	0.66920 0.89970 0.30720 0.11600
N 	N 	0.51787 0.83475 0.41150 -0.21000
H 	H 	0.54250 0.82250 0.41600 0.11600
N 	N 	0.78500 0.98736 0.37590 -0.21500
H 	H 	0.77930 0.96280 0.39150 0.11700
N 	N 	0.95130 0.89910 0.41020 -0.21100
H 	H 	0.93120 0.88470 0.42700 0.11700
N 	N 	0.84235 0.85259 0.20780 -0.21900
H 	H 	0.83690 0.83740 0.23820 0.11600
N 	N 	0.58367 0.74998 0.25320 -0.21400
H 	H 	0.59850 0.75630 0.28370 0.11500
N 	N 	0.67280 0.58140 0.28840 -0.21300
H 	H 	0.68650 0.60070 0.30790 0.11600
N 	N 	0.53880 0.63790 0.45460 -0.21200
H 	H 	0.56390 0.64710 0.46440 0.11400
N 	N 	0.56140 0.86778 0.67530 -0.20100
H 	H 	0.58110 0.85870 0.65200 0.11500
N 	N 	0.67439 0.76405 0.82960 -0.21200
H 	H 	0.68180 0.75960 0.79400 0.11700
N 	N 	0.73349 0.93528 0.74360 -0.21200
H 	H 	0.73970 0.91600 0.71810 0.11600
O 	O 	0.70351 0.02721 0.58043 -0.37600
O 	O 	0.70129 0.96421 0.54920 -0.39100
O 	O 	0.63490 0.01079 0.46060 -0.22000
O 	O 	0.69537 0.87122 0.16758 -0.37600
O 	O 	0.69648 0.85138 0.25505 -0.40100
O 	O 	0.59770 0.91430 0.25150 -0.24000
O 	O 	0.46903 0.77402 0.51240 -0.38200
O 	O 	0.53465 0.78648 0.49726 -0.39800
O 	O 	0.49669 0.88194 0.46790 -0.23300
O 	O 	0.75886 0.03809 0.49820 -0.38100
O 	O 	0.76836 0.97245 0.48186 -0.39600
O 	O 	0.84400 0.01720 0.39330 -0.23500
O 	O 	0.02394 0.82182 0.42850 -0.40100
O 	O 	0.95735 0.81843 0.43060 -0.43300
O 	O 	0.96990 0.88650 0.32310 -0.22200
O 	O 	0.75716 0.82258 0.13010 -0.39000
O 	O 	0.76833 0.81826 0.22018 -0.40100
O 	O 	0.80946 0.90907 0.19220 -0.23800
O 	O 	0.64348 0.80635 0.16020 -0.40000
O 	O 	0.65925 0.77833 0.23960 -0.41400
O 	O 	0.60626 0.70386 0.19237 -0.22500
O 	O 	0.72695 0.49965 0.34736 -0.38900
O 	O 	0.72225 0.56450 0.37419 -0.39600
O 	O 	0.62400 0.54656 0.32780 -0.24000
O 	O 	0.48312 0.69679 0.55120 -0.38300
O 	O 	0.54549 0.70565 0.51920 -0.40500
O 	O 	0.49890 0.67533 0.40100 -0.24700
O 	O 	0.48593 0.80553 0.61450 -0.39100
O 	O 	0.55309 0.80351 0.60540 -0.40900
O 	O 	0.54318 0.83355 0.75020 -0.23500
O 	O 	0.75744 0.70569 0.87740 -0.37900
O 	O 	0.74466 0.73121 0.79346 -0.39100
O 	O 	0.70270 0.81295 0.88000 -0.22400
O 	O 	0.76430 0.01510 0.65482 -0.37600
O 	O 	0.75130 0.95019 0.63680 -0.40700
O 	O 	0.67331 0.96889 0.74310 -0.24000
Cu	Cu	0.96817 0.23733 0.42209 0.90300
Cu	Cu	0.04589 0.24005 0.44255 0.89500
Cu	Cu	0.18442 0.30069 0.86298 0.90100
Cu	Cu	0.20396 0.28443 0.76124 0.89700
Cu	Cu	0.24953 0.52069 0.41538 0.90300
Cu	Cu	0.24438 0.44399 0.44081 0.89500
C 	C 	0.00420 0.31630 0.43460 0.29700
C 	C 	0.00490 0.36090 0.43000 0.04800
H 	H 	0.97690 0.37070 0.43670 0.04600
C 	C 	0.01610 0.37270 0.37210 -0.44000
H 	H 	0.01470 0.40200 0.36840 0.16300
H 	H 	0.99730 0.36010 0.34650 0.17300
H 	H 	0.04350 0.36350 0.36420 0.16400
C 	C 	0.02160 0.37950 0.52170 0.21000
C 	C 	0.05130 0.39730 0.56150 -0.05100
C 	C 	0.05360 0.38100 0.61460 -0.00800
H 	H 	0.03740 0.35860 0.62460 0.04400
C 	C 	0.07910 0.39760 0.65080 -0.05000
C 	C 	0.10660 0.42920 0.63730 -0.01400
H 	H 	0.12600 0.43900 0.66250 0.04000
C 	C 	0.10330 0.44480 0.58410 -0.05400
C 	C 	0.07710 0.42880 0.54750 -0.00800
H 	H 	0.07630 0.43930 0.51160 0.04200
C 	C 	0.08210 0.38150 0.70930 0.22000
C 	C 	0.05450 0.28190 0.76080 -0.43100
H 	H 	0.02650 0.28920 0.75310 0.16900
H 	H 	0.05580 0.26710 0.79520 0.17400
H 	H 	0.06480 0.26490 0.73130 0.16200
C 	C 	0.08030 0.32050 0.76500 0.04200
H 	H 	0.06880 0.33850 0.79370 0.05200
C 	C 	0.12270 0.30870 0.78070 0.30200
C 	C 	0.12960 0.47950 0.56540 0.22900
C 	C 	0.22600 0.51920 0.61330 -0.45500
H 	H 	0.21310 0.52690 0.64770 0.17400
H 	H 	0.24400 0.54080 0.60140 0.17400
H 	H 	0.24150 0.49450 0.61860 0.17200
C 	C 	0.19400 0.51220 0.57050 0.05800
H 	H 	0.17890 0.53810 0.56620 0.04700
C 	C 	0.21230 0.50240 0.51580 0.30000
C 	C 	0.99120 0.23560 0.53350 0.29100
C 	C 	0.98300 0.23800 0.59420 0.08700
H 	H 	0.95570 0.22650 0.60170 0.02400
C 	C 	0.98350 0.28040 0.61160 -0.50100
H 	H 	0.97010 0.28290 0.64690 0.18200
H 	H 	0.96930 0.29680 0.58450 0.19900
H 	H 	0.01140 0.28960 0.61470 0.18300
C 	C 	0.01020 0.17440 0.62790 0.21600
C 	C 	0.04440 0.15390 0.65650 -0.06500
C 	C 	0.05730 0.11770 0.63720 -0.00100
H 	H 	0.04560 0.10720 0.60490 0.03800
C 	C 	0.08730 0.09550 0.66360 -0.05400
C 	C 	0.10550 0.11280 0.70940 -0.00000
H 	H 	0.12670 0.09890 0.72720 0.03900
C 	C 	0.09320 0.15000 0.72940 -0.06800
C 	C 	0.06200 0.16910 0.70360 0.00600
H 	H 	0.05210 0.19360 0.71830 0.03800
C 	C 	0.10260 0.05510 0.64230 0.21500
C 	C 	0.10180 0.00320 0.50950 -0.41500
H 	H 	0.07740 0.01880 0.50180 0.15100
H 	H 	0.09610 0.97450 0.50510 0.16000
H 	H 	0.12320 0.01120 0.48420 0.16300
C 	C 	0.11600 0.01170 0.57040 0.03700
H 	H 	0.10590 0.98960 0.59440 0.05100
C 	C 	0.16480 0.01090 0.57000 0.35800
C 	C 	0.11070 0.16750 0.78020 0.23800
C 	C 	0.20660 0.15470 0.84980 -0.47400
H 	H 	0.20080 0.12810 0.86520 0.17300
H 	H 	0.22230 0.17040 0.87610 0.18800
H 	H 	0.22200 0.15160 0.81610 0.17100
C 	C 	0.16830 0.17580 0.83810 0.07700
H 	H 	0.15060 0.17300 0.87080 0.03500
C 	C 	0.17460 0.22080 0.82790 0.30000
C 	C 	0.21080 0.36414 0.79580 0.32500
C 	C 	0.21730 0.41160 0.78340 0.09900
H 	H 	0.22290 0.42630 0.81810 0.02700
C 	C 	0.17860 0.42600 0.75940 -0.50800
H 	H 	0.18160 0.45390 0.74740 0.19500
H 	H 	0.15720 0.42430 0.78680 0.19600
H 	H 	0.17150 0.40910 0.72810 0.18200
C 	C 	0.28710 0.40660 0.76020 0.21000
C 	C 	0.32010 0.41020 0.71920 -0.05700
C 	C 	0.35230 0.38550 0.72330 0.00100
H 	H 	0.35370 0.36650 0.75210 0.04000
C 	C 	0.38350 0.38780 0.68570 -0.06400
C 	C 	0.38010 0.41600 0.64270 -0.00200
H 	H 	0.40100 0.41790 0.61630 0.03800
C 	C 	0.34760 0.44040 0.63860 -0.05900
C 	C 	0.31680 0.43810 0.67610 -0.01000
H 	H 	0.29380 0.45490 0.67290 0.03700
C 	C 	0.42220 0.36380 0.68880 0.23400
C 	C 	0.44420 0.26800 0.75460 -0.45800
H 	H 	0.43890 0.27930 0.79080 0.16800
H 	H 	0.46730 0.24980 0.75650 0.16700
H 	H 	0.42050 0.25310 0.74210 0.16600
C 	C 	0.45300 0.30130 0.71560 0.07600
H 	H 	0.47650 0.31710 0.72930 0.03900
C 	C 	0.46390 0.28280 0.65860 0.30100
C 	C 	0.34360 0.47080 0.59190 0.22700
C 	C 	0.38480 0.47450 0.45370 -0.45700
H 	H 	0.41270 0.47570 0.46650 0.16800
H 	H 	0.38140 0.49280 0.42280 0.18600
H 	H 	0.37840 0.44690 0.44230 0.17100
C 	C 	0.35650 0.48690 0.49960 0.05900
H 	H 	0.36290 0.51520 0.51060 0.04100
C 	C 	0.31440 0.48590 0.47480 0.31200
C 	C 	0.18060 0.47960 0.37900 0.31700
C 	C 	0.13990 0.47650 0.35140 0.02400
H 	H 	0.13700 0.49890 0.32440 0.05500
C 	C 	0.10560 0.48050 0.39610 -0.40600
H 	H 	0.08330 0.46250 0.38700 0.15400
H 	H 	0.09590 0.50840 0.39720 0.16100
H 	H 	0.11650 0.47320 0.43190 0.16300
C 	C 	0.14760 0.43030 0.27600 0.20600
C 	C 	0.14100 0.38880 0.25370 -0.05500
C 	C 	0.17060 0.37340 0.21900 -0.01000
H 	H 	0.19370 0.38900 0.21090 0.03800
C 	C 	0.16620 0.33550 0.19640 -0.05300
C 	C 	0.13118 0.31240 0.20810 -0.01400
H 	H 	0.12760 0.28630 0.19330 0.03700
C 	C 	0.10240 0.32960 0.24170 -0.04900
C 	C 	0.10770 0.36720 0.26410 -0.00800
H 	H 	0.08750 0.37800 0.28730 0.04000
C 	C 	0.19780 0.31830 0.16060 0.20400
C 	C 	0.30490 0.33330 0.14420 -0.45800
H 	H 	0.29900 0.36090 0.13240 0.17000
H 	H 	0.32630 0.32200 0.12130 0.17800
H 	H 	0.31380 0.33360 0.18230 0.17200
C 	C 	0.26780 0.30800 0.13900 0.07200
H 	H 	0.25940 0.30750 0.09990 0.03800
C 	C 	0.27730 0.26520 0.15690 0.28300
C 	C 	0.06290 0.30730 0.25360 0.19700
C 	C 	0.03230 0.20240 0.24880 -0.48200
H 	H 	0.03780 0.20350 0.20960 0.17800
H 	H 	0.00720 0.18770 0.25520 0.19000
H 	H 	0.05450 0.18850 0.26720 0.17900
C 	C 	0.02869 0.24362 0.27040 0.07600
H 	H 	0.00500 0.25680 0.25290 0.02900
C 	C 	0.02180 0.24270 0.33180 0.29900
N 	N 	0.03030 0.37940 0.46980 -0.20800
H 	H 	0.05500 0.36700 0.46660 0.11400
N 	N 	0.07928 0.34100 0.71300 -0.20400
H 	H 	0.10030 0.33080 0.69280 0.11600
N 	N 	0.16525 0.48213 0.58850 -0.21000
H 	H 	0.17750 0.45750 0.58400 0.11600
N 	N 	0.01264 0.21500 0.62410 -0.21500
H 	H 	0.03720 0.22070 0.60850 0.11700
N 	N 	0.10090 0.04870 0.58980 -0.21100
H 	H 	0.11530 0.06880 0.57300 0.11700
N 	N 	0.14741 0.15765 0.79220 -0.21900
H 	H 	0.16260 0.16310 0.76180 0.11600
N 	N 	0.25002 0.41633 0.74680 -0.21400
H 	H 	0.24370 0.40150 0.71630 0.11500
N 	N 	0.41860 0.32720 0.71160 -0.21300
H 	H 	0.39930 0.31350 0.69210 0.11600
N 	N 	0.36210 0.46120 0.54540 -0.21200
H 	H 	0.35290 0.43610 0.53560 0.11400
N 	N 	0.13222 0.43860 0.32470 -0.20100
H 	H 	0.14130 0.41890 0.34800 0.11500
N 	N 	0.23595 0.32561 0.17040 -0.21200
H 	H 	0.24040 0.31820 0.20600 0.11700
N 	N 	0.06472 0.26651 0.25640 -0.21200
H 	H 	0.08400 0.26030 0.28190 0.11600
O 	O 	0.97279 0.29649 0.41957 -0.37600
O 	O 	0.03579 0.29871 0.45080 -0.39100
O 	O 	0.98921 0.36510 0.53940 -0.22000
O 	O 	0.12878 0.30463 0.83242 -0.37600
O 	O 	0.14862 0.30352 0.74495 -0.40100
O 	O 	0.08570 0.40230 0.74850 -0.24000
O 	O 	0.22598 0.53097 0.48760 -0.38200
O 	O 	0.21352 0.46535 0.50274 -0.39800
O 	O 	0.11806 0.50331 0.53210 -0.23300
O 	O 	0.96191 0.24114 0.50180 -0.38100
O 	O 	0.02755 0.23164 0.51814 -0.39600
O 	O 	0.98280 0.15600 0.60670 -0.23500
O 	O 	0.17818 0.97606 0.57150 -0.40100
O 	O 	0.18157 0.04265 0.56940 -0.43300
O 	O 	0.11350 0.03010 0.67690 -0.22200
O 	O 	0.17742 0.24284 0.86990 -0.39000
O 	O 	0.18174 0.23167 0.77982 -0.40100
O 	O 	0.09093 0.19054 0.80780 -0.23800
O 	O 	0.19365 0.35652 0.83980 -0.40000
O 	O 	0.22167 0.34075 0.76040 -0.41400
O 	O 	0.29614 0.39374 0.80763 -0.22500
O 	O 	0.50035 0.27305 0.65264 -0.38900
O 	O 	0.43550 0.27775 0.62581 -0.39600
O 	O 	0.45344 0.37600 0.67220 -0.24000
O 	O 	0.30321 0.51688 0.44880 -0.38300
O 	O 	0.29435 0.45451 0.48080 -0.40500
O 	O 	0.32467 0.50110 0.59900 -0.24700
O 	O 	0.19447 0.51407 0.38550 -0.39100
O 	O 	0.19649 0.44691 0.39460 -0.40900
O 	O 	0.16645 0.45682 0.24980 -0.23500
O 	O 	0.29431 0.24256 0.12260 -0.37900
O 	O 	0.26879 0.25534 0.20654 -0.39100
O 	O 	0.18705 0.29730 0.12000 -0.22400
O 	O 	0.98490 0.23570 0.34518 -0.37600
O 	O 	0.04981 0.24870 0.36320 -0.40700
O 	O 	0.03111 0.32669 0.25690 -0.24000
Cu	Cu	0.23733 0.96817 0.57791 0.90300
Cu	Cu	0.24005 0.04589 0.55745 0.89500
Cu	Cu	0.30069 0.18442 0.13702 0.90100
Cu	Cu	0.28443 0.20396 0.23876 0.89700
Cu	Cu	0.52069 0.24953 0.58462 0.90300
Cu	Cu	0.44399 0.24438 0.55919 0.89500
C 	C 	0.31630 0.00420 0.56540 0.29700
C 	C 	0.36090 0.00490 0.57000 0.04800
H 	H 	0.37070 0.97690 0.56330 0.04600
C 	C 	0.37270 0.01610 0.62790 -0.44000
H 	H 	0.40200 0.01470 0.63160 0.16300
H 	H 	0.36010 0.99730 0.65350 0.17300
H 	H 	0.36350 0.04350 0.63580 0.16400
C 	C 	0.37950 0.02160 0.47830 0.21000
C 	C 	0.39730 0.05130 0.43850 -0.05100
C 	C 	0.38100 0.05360 0.38540 -0.00800
H 	H 	0.35860 0.03740 0.37540 0.04400
C 	C 	0.39760 0.07910 0.34920 -0.05000
C 	C 	0.42920 0.10660 0.36270 -0.01400
H 	H 	0.43900 0.12600 0.33750 0.04000
C 	C 	0.44480 0.10330 0.41590 -0.05400
C 	C 	0.42880 0.07710 0.45250 -0.00800
H 	H 	0.43930 0.07630 0.48840 0.04200
C 	C 	0.38150 0.08210 0.29070 0.22000
C 	C 	0.28190 0.05450 0.23920 -0.43100
H 	H 	0.28920 0.02650 0.24690 0.16900
H 	H 	0.26710 0.05580 0.20480 0.17400
H 	H 	0.26490 0.06480 0.26870 0.16200
C 	C 	0.32050 0.08030 0.23500 0.04200
H 	H 	0.33850 0.06880 0.20630 0.05200
C 	C 	0.30870 0.12270 0.21930 0.30200
C 	C 	0.47950 0.12960 0.43460 0.22900
C 	C 	0.51920 0.22600 0.38670 -0.45500
H 	H 	0.52690 0.21310 0.35230 0.17400
H 	H 	0.54080 0.24400 0.39860 0.17400
H 	H 	0.49450 0.24150 0.38140 0.17200
C 	C 	0.51220 0.19400 0.42950 0.05800
H 	H 	0.53810 0.17890 0.43380 0.04700
C 	C 	0.50240 0.21230 0.48420 0.30000
C 	C 	0.23560 0.99120 0.46650 0.29100
C 	C 	0.23800 0.98300 0.40580 0.08700
H 	H 	0.22650 0.95570 0.39830 0.02400
C 	C 	0.28040 0.98350 0.38840 -0.50100
H 	H 	0.28290 0.97010 0.35310 0.18200
H 	H 	0.29680 0.96930 0.41550 0.19900
H 	H 	0.28960 0.01140 0.38530 0.18300
C 	C 	0.17440 0.01020 0.37210 0.21600
C 	C 	0.15390 0.04440 0.34350 -0.06500
C 	C 	0.11770 0.05730 0.36280 -0.00100
H 	H 	0.10720 0.04560 0.39510 0.03800
C 	C 	0.09550 0.08730 0.33640 -0.05400
C 	C 	0.11280 0.10550 0.29060 -0.00000
H 	H 	0.09890 0.12670 0.27280 0.03900
C 	C 	0.15000 0.09320 0.27060 -0.06800
C 	C 	0.16910 0.06200 0.29640 0.00600
H 	H 	0.19360 0.05210 0.28170 0.03800
C 	C 	0.05510 0.10260 0.35770 0.21500
C 	C 	0.00320 0.10180 0.49050 -0.41500
H 	H 	0.01880 0.07740 0.49820 0.15100
H 	H 	0.97450 0.09610 0.49490 0.16000
H 	H 	0.01120 0.12320 0.51580 0.16300
C 	C 	0.01170 0.11600 0.42960 0.03700
H 	H 	0.98960 0.10590 0.40560 0.05100
C 	C 	0.01090 0.16480 0.43000 0.35800
C 	C 	0.16750 0.11070 0.21980 0.23800
C 	C 	0.15470 0.20660 0.15020 -0.47400
H 	H 	0.12810 0.20080 0.13480 0.17300
H 	H 	0.17040 0.22230 0.12390 0.18800
H 	H 	0.15160 0.22200 0.18390 0.17100
C 	C 	0.17580 0.16830 0.16190 0.07700
H 	H 	0.17300 0.15060 0.12920 0.03500
C 	C 	0.22080 0.17460 0.17210 0.30000
C 	C 	0.36414 0.21080 0.20420 0.32500
C 	C 	0.41160 0.21730 0.21660 0.09900
H 	H 	0.42630 0.22290 0.18190 0.02700
C 	C 	0.42600 0.17860 0.24060 -0.50800
H 	H 	0.45390 0.18160 0.25260 0.19500
H 	H 	0.42430 0.15720 0.21320 0.19600
H 	H 	0.40910 0.17150 0.27190 0.18200
C 	C 	0.40660 0.28710 0.23980 0.21000
C 	C 	0.41020 0.32010 0.28080 -0.05700
C 	C 	0.38550 0.35230 0.27670 0.00100
H 	H 	0.36650 0.35370 0.24790 0.04000
C 	C 	0.38780 0.38350 0.31430 -0.06400
C 	C 	0.41600 0.38010 0.35730 -0.00200
H 	H 	0.41790 0.40100 0.38370 0.03800
C 	C 	0.44040 0.34760 0.36140 -0.05900
C 	C 	0.43810 0.31680 0.32390 -0.01000
H 	H 	0.45490 0.29380 0.32710 0.03700
C 	C 	0.36380 0.42220 0.31120 0.23400
C 	C 	0.26800 0.44420 0.24540 -0.45800
H 	H 	0.27930 0.43890 0.20920 0.16800
H 	H 	0.24980 0.46730 0.24350 0.16700
H 	H 	0.25310 0.42050 0.25790 0.16600
C 	C 	0.30130 0.45300 0.28440 0.07600
H 	H 	0.31710 0.47650 0.27070 0.03900
C 	C 	0.28280 0.46390 0.34140 0.30100
C 	C 	0.47080 0.34360 0.40810 0.22700
C 	C 	0.47450 0.38480 0.54630 -0.45700
H 	H 	0.47570 0.41270 0.53350 0.16800
H 	H 	0.49280 0.38140 0.57720 0.18600
H 	H 	0.44690 0.37840 0.55770 0.17100
C 	C 	0.48690 0.35650 0.50040 0.05900
H 	H 	0.51520 0.36290 0.48940 0.04100
C 	C 	0.48590 0.31440 0.52520 0.31200
C 	C 	0.47960 0.18060 0.62100 0.31700
C 	C 	0.47650 0.13990 0.64860 0.02400
H 	H 	0.49890 0.13700 0.67560 0.05500
C 	C 	0.48050 0.10560 0.60390 -0.40600
H 	H 	0.46250 0.08330 0.61300 0.15400
H 	H 	0.50840 0.09590 0.60280 0.16100
H 	H 	0.47320 0.11650 0.56810 0.16300
C 	C 	0.43030 0.14760 0.72400 0.20600
C 	C 	0.38880 0.14100 0.74630 -0.05500
C 	C 	0.37340 0.17060 0.78100 -0.01000
H 	H 	0.38900 0.19370 0.78910 0.03800
C 	C 	0.33550 0.16620 0.80360 -0.05300
C 	C 	0.31240 0.13118 0.79190 -0.01400
H 	H 	0.28630 0.12760 0.80670 0.03700
C 	C 	0.32960 0.10240 0.75830 -0.04900
C 	C 	0.36720 0.10770 0.73590 -0.00800
H 	H 	0.37800 0.08750 0.71270 0.04000
C 	C 	0.31830 0.19780 0.83940 0.20400
C 	C 	0.33330 0.30490 0.85580 -0.45800
H 	H 	0.36090 0.29900 0.86760 0.17000
H 	H 	0.32200 0.32630 0.87870 0.17800
H 	H 	0.33360 0.31380 0.81770 0.17200
C 	C 	0.30800 0.26780 0.86100 0.07200
H 	H 	0.30750 0.25940 0.90010 0.03800
C 	C 	0.26520 0.27730 0.84310 0.28300
C 	C 	0.30730 0.06290 0.74640 0.19700
C 	C 	0.20240 0.03230 0.75120 -0.48200
H 	H 	0.20350 0.03780 0.79040 0.17800
H 	H 	0.18770 0.00720 0.74480 0.19000
H 	H 	0.18850 0.05450 0.73280 0.17900
C 	C 	0.24362 0.02869 0.72960 0.07600
H 	H 	0.25680 0.00500 0.74710 0.02900
C 	C 	0.24270 0.02180 0.66820 0.29900
N 	N 	0.37940 0.03030 0.53020 -0.20800
H 	H 	0.36700 0.05500 0.53340 0.11400
N 	N 	0.34100 0.07928 0.28700 -0.20400
H 	H 	0.33080 0.10030 0.30720 0.11600
N 	N 	0.48213 0.16525 0.41150 -0.21000
H 	H 	0.45750 0.17750 0.41600 0.11600
N 	N 	0.21500 0.01264 0.37590 -0.21500
H 	H 	0.22070 0.03720 0.39150 0.11700
N 	N 	0.04870 0.10090 0.41020 -0.21100
H 	H 	0.06880 0.11530 0.42700 0.11700
N 	N 	0.15765 0.14741 0.20780 -0.21900
H 	H 	0.16310 0.16260 0.23820 0.11600
N 	N 	0.41633 0.25002 0.25320 -0.21400
H 	H 	0.40150 0.24370 0.28370 0.11500
N 	N 	0.32720 0.41860 0.28840 -0.21300
H 	H 	0.31350 0.39930 0.30790 0.11600
N 	N 	0.46120 0.36210 0.45460 -0.21200
H 	H 	0.43610 0.35290 0.46440 0.11400
N 	N 	0.43860 0.13222 0.67530 -0.20100
H 	H 	0.41890 0.14130 0.65200 0.11500
N 	N 	0.32561 0.23595 0.82960 -0.21200
H 	H 	0.31820 0.24040 0.79400 0.11700
N 	N 	0.26651 0.06472 0.74360 -0.21200
H 	H 	0.26030 0.08400 0.71810 0.11600
O 	O 	0.29649 0.97279 0.58043 -0.37600
O 	O 	0.29871 0.03579 0.54920 -0.39100
O 	O 	0.36510 0.98921 0.46060 -0.22000
O 	O 	0.30463 0.12878 0.16758 -0.37600
O 	O 	0.30352 0.14862 0.25505 -0.40100
O 	O 	0.40230 0.08570 0.25150 -0.24000
O 	O 	0.53097 0.22598 0.51240 -0.38200
O 	O 	0.46535 0.21352 0.49726 -0.39800
O 	O 	0.50331 0.11806 0.46790 -0.23300
O 	O 	0.24114 0.96191 0.49820 -0.38100
O 	O 	0.23164 0.02755 0.48186 -0.39600
O 	O 	0.15600 0.98280 0.39330 -0.23500
O 	O 	0.97606 0.17818 0.42850 -0.40100
O 	O 	0.04265 0.18157 0.43060 -0.43300
O 	O 	0.03010 0.11350 0.32310 -0.22200
O 	O 	0.24284 0.17742 0.13010 -0.39000
O 	O 	0.23167 0.18174 0.22018 -0.40100
O 	O 	0.19054 0.09093 0.19220 -0.23800
O 	O 	0.35652 0.19365 0.16020 -0.40000
O 	O 	0.34075 0.22167 0.23960 -0.41400
O 	O 	0.39374 0.29614 0.19237 -0.22500
O 	O 	0.27305 0.50035 0.34736 -0.38900
O 	O 	0.27775 0.43550 0.37419 -0.39600
O 	O 	0.37600 0.45344 0.32780 -0.24000
O 	O 	0.51688 0.30321 0.55120 -0.38300
O 	O 	0.45451 0.29435 0.51920 -0.40500
O 	O 	0.50110 0.32467 0.40100 -0.24700
O 	O 	0.51407 0.19447 0.61450 -0.39100
O 	O 	0.44691 0.19649 0.60540 -0.40900
O 	O 	0.45682 0.16645 0.75020 -0.23500
O 	O 	0.24256 0.29431 0.87740 -0.37900
O 	O 	0.25534 0.26879 0.79346 -0.39100
O 	O 	0.29730 0.18705 0.88000 -0.22400
O 	O 	0.23570 0.98490 0.65482 -0.37600
O 	O 	0.24870 0.04981 0.63680 -0.40700
O 	O 	0.32669 0.03111 0.74310 -0.24000
