data_crystal

_cell_length_a 27.14990
_cell_length_b 27.14990
_cell_length_c 27.14990
_cell_angle_alpha 90.00000
_cell_angle_beta  90.00000
_cell_angle_gamma 90.00000

_symmetry_space_group_name_	'P 1'
_symmetry_space_group_name_H-M	'P 1'

loop_
_symmetry_equiv_pos_as_xyz
  x,y,z

loop_
_atom_site_label
_atom_site_type_symbol
_atom_site_fract_x
_atom_site_fract_y
_atom_site_fract_z
_atom_site_charge
W 	W 	0.74881 0.37515 0.33330 1.21000
W 	W 	0.64351 0.42715 0.37029 1.00700
W 	W 	0.70191 0.42697 0.14611 0.87600
W 	W 	0.70607 0.47627 0.27553 0.96900
W 	W 	0.80823 0.26446 0.46943 0.94500
W 	W 	0.56804 0.31498 0.35487 0.91500
W 	W 	0.59888 0.47325 0.19117 0.98000
W 	W 	0.91633 0.20253 0.46921 0.96800
Co	Co	0.59825 0.36976 0.13530 1.17900
Sb	Sb	0.65193 0.35048 0.24936 0.60100
Sb	Sb	0.79526 0.38269 0.21404 0.52300
Sb	Sb	0.68628 0.27993 0.39470 0.53200
O 	O 	0.76010 0.26870 0.42340 -0.38900
O 	O 	0.76000 0.34960 0.26680 -0.36100
O 	O 	0.65890 0.48330 0.15640 -0.44700
O 	O 	0.84180 0.31820 0.45250 -0.49300
O 	O 	0.55750 0.44890 0.24130 -0.46200
O 	O 	0.72920 0.44610 0.21620 -0.43300
O 	O 	0.67710 0.39970 0.29880 -0.40600
O 	O 	0.80350 0.36470 0.36450 -0.52800
O 	O 	0.57030 0.44180 0.14260 -0.49100
O 	O 	0.61860 0.36410 0.37960 -0.45600
O 	O 	0.87650 0.14390 0.47280 -0.43100
O 	O 	0.70930 0.39920 0.38580 -0.46100
O 	O 	0.66360 0.39690 0.10030 -0.45100
O 	O 	0.76270 0.43970 0.30800 -0.44600
O 	O 	0.64680 0.49040 0.24980 -0.43200
O 	O 	0.69690 0.21240 0.36810 -0.36300
O 	O 	0.52550 0.28790 0.31080 -0.43600
O 	O 	0.58860 0.44410 0.33460 -0.44300
O 	O 	0.64120 0.39940 0.19660 -0.45200
O 	O 	0.71860 0.31170 0.33980 -0.36500
O 	O 	0.87040 0.23950 0.50450 -0.42900
O 	O 	0.62170 0.27550 0.34390 -0.37900
O 	O 	0.58440 0.35400 0.28020 -0.38400
O 	O 	0.67950 0.48190 0.34290 -0.43200
O 	O 	0.74070 0.36990 0.16560 -0.37500
C 	C 	0.54320 0.39390 0.04550 -0.02200
H 	H 	0.57230 0.41300 0.03740 0.03300
H 	H 	0.52270 0.41370 0.06700 0.03100
C 	C 	0.47210 0.35580 0.01520 0.01800
H 	H 	0.44970 0.35100 0.98780 0.02800
H 	H 	0.45560 0.37720 0.03850 0.02200
C 	C 	0.51680 0.31850 0.08090 0.00100
H 	H 	0.49910 0.33230 0.10880 0.01600
H 	H 	0.52960 0.28680 0.09130 0.02000
C 	C 	0.54060 0.35170 0.96450 0.01100
H 	H 	0.56860 0.36970 0.95160 0.02800
H 	H 	0.51980 0.34240 0.93700 0.02800
C 	C 	0.51150 0.28300 0.00910 0.02100
H 	H 	0.49320 0.27110 0.98070 0.01000
H 	H 	0.52190 0.25420 0.02750 0.01700
C 	C 	0.58780 0.32230 0.03280 -0.01800
H 	H 	0.61480 0.34300 0.02190 0.03500
H 	H 	0.60180 0.29300 0.04780 0.04000
N 	N 	0.55780 0.34980 0.07110 -0.19400
N 	N 	0.51390 0.38220 0.99670 -0.10800
N 	N 	0.47830 0.30880 0.03880 -0.12500
N 	N 	0.55770 0.30770 0.98960 -0.11200
W 	W 	0.66670 0.24881 0.12485 1.21100
W 	W 	0.62971 0.14351 0.07285 1.00800
W 	W 	0.85389 0.20191 0.07303 0.87700
W 	W 	0.72447 0.20607 0.02373 0.97000
W 	W 	0.53057 0.30823 0.23554 0.94600
W 	W 	0.64513 0.06804 0.18502 0.91600
W 	W 	0.80883 0.09888 0.02675 0.98100
W 	W 	0.53079 0.41633 0.29747 0.96900
Co	Co	0.86470 0.09825 0.13024 1.18000
Sb	Sb	0.75064 0.15193 0.14952 0.60200
Sb	Sb	0.78596 0.29526 0.11731 0.52400
Sb	Sb	0.60530 0.18628 0.22007 0.53200
O 	O 	0.57660 0.26010 0.23130 -0.38900
O 	O 	0.73320 0.26000 0.15040 -0.36100
O 	O 	0.84360 0.15890 0.01670 -0.44700
O 	O 	0.54750 0.34180 0.18180 -0.49300
O 	O 	0.75870 0.05750 0.05110 -0.46200
O 	O 	0.78380 0.22920 0.05390 -0.43300
O 	O 	0.70120 0.17710 0.10030 -0.40600
O 	O 	0.63550 0.30350 0.13530 -0.52800
O 	O 	0.85740 0.07030 0.05820 -0.49100
O 	O 	0.62040 0.11860 0.13590 -0.45600
O 	O 	0.52720 0.37650 0.35610 -0.43100
O 	O 	0.61420 0.20930 0.10080 -0.46100
O 	O 	0.89970 0.16360 0.10310 -0.45100
O 	O 	0.69200 0.26270 0.06030 -0.44600
O 	O 	0.75020 0.14680 0.00960 -0.43200
O 	O 	0.63190 0.19690 0.28760 -0.36300
O 	O 	0.68920 0.02550 0.21210 -0.43600
O 	O 	0.66540 0.08860 0.05590 -0.44300
O 	O 	0.80340 0.14120 0.10060 -0.45200
O 	O 	0.66020 0.21860 0.18830 -0.36500
O 	O 	0.49550 0.37040 0.26050 -0.42900
O 	O 	0.65610 0.12170 0.22450 -0.37900
O 	O 	0.71980 0.08440 0.14600 -0.38400
O 	O 	0.65710 0.17950 0.01810 -0.43200
O 	O 	0.83440 0.24070 0.13010 -0.37500
C 	C 	0.95450 0.04320 0.10610 -0.02200
H 	H 	0.96260 0.07230 0.08700 0.03300
H 	H 	0.93300 0.02270 0.08630 0.03100
C 	C 	0.98480 0.97210 0.14420 0.01800
H 	H 	0.01220 0.94970 0.14900 0.02800
H 	H 	0.96150 0.95560 0.12280 0.02200
C 	C 	0.91910 0.01680 0.18150 0.00100
H 	H 	0.89120 0.99910 0.16770 0.01600
H 	H 	0.90870 0.02960 0.21320 0.02000
C 	C 	0.03550 0.04060 0.14830 0.01100
H 	H 	0.04840 0.06860 0.13030 0.02800
H 	H 	0.06300 0.01980 0.15760 0.02800
C 	C 	0.99090 0.01150 0.21700 0.02100
H 	H 	0.01930 0.99320 0.22890 0.01000
H 	H 	0.97250 0.02190 0.24580 0.01700
C 	C 	0.96720 0.08780 0.17770 -0.01700
H 	H 	0.97810 0.11480 0.15700 0.03500
H 	H 	0.95220 0.10180 0.20700 0.04000
N 	N 	0.92890 0.05780 0.15020 -0.19400
N 	N 	0.00330 0.01390 0.11780 -0.10800
N 	N 	0.96120 0.97830 0.19120 -0.12500
N 	N 	0.01040 0.05770 0.19230 -0.11200
W 	W 	0.87515 0.16670 0.25119 1.21100
W 	W 	0.92715 0.12971 0.35649 1.00800
W 	W 	0.92697 0.35389 0.29809 0.87700
W 	W 	0.97627 0.22447 0.29393 0.97000
W 	W 	0.76446 0.03057 0.19177 0.94600
W 	W 	0.81498 0.14513 0.43196 0.91600
W 	W 	0.97325 0.30883 0.40112 0.98100
W 	W 	0.70253 0.03079 0.08367 0.96900
Co	Co	0.86976 0.36470 0.40175 1.18000
Sb	Sb	0.85048 0.25064 0.34807 0.60200
Sb	Sb	0.88269 0.28596 0.20474 0.52400
Sb	Sb	0.77993 0.10530 0.31372 0.53200
O 	O 	0.76870 0.07660 0.23990 -0.38900
O 	O 	0.84960 0.23320 0.24000 -0.36100
O 	O 	0.98330 0.34360 0.34110 -0.44700
O 	O 	0.81820 0.04750 0.15820 -0.49300
O 	O 	0.94890 0.25870 0.44250 -0.46200
O 	O 	0.94610 0.28380 0.27080 -0.43300
O 	O 	0.89970 0.20120 0.32290 -0.40600
O 	O 	0.86470 0.13550 0.19650 -0.52800
O 	O 	0.94180 0.35740 0.42970 -0.49100
O 	O 	0.86410 0.12040 0.38140 -0.45600
O 	O 	0.64390 0.02720 0.12350 -0.43100
O 	O 	0.89920 0.11420 0.29070 -0.46100
O 	O 	0.89690 0.39970 0.33640 -0.45100
O 	O 	0.93970 0.19200 0.23730 -0.44600
O 	O 	0.99040 0.25020 0.35320 -0.43200
O 	O 	0.71240 0.13190 0.30310 -0.36300
O 	O 	0.78790 0.18920 0.47450 -0.43600
O 	O 	0.94410 0.16540 0.41140 -0.44300
O 	O 	0.89940 0.30340 0.35880 -0.45200
O 	O 	0.81170 0.16020 0.28140 -0.36500
O 	O 	0.73950 0.99550 0.12960 -0.42900
O 	O 	0.77550 0.15610 0.37830 -0.37900
O 	O 	0.85400 0.21980 0.41560 -0.38400
O 	O 	0.98190 0.15710 0.32050 -0.43200
O 	O 	0.86990 0.33440 0.25930 -0.37500
C 	C 	0.89390 0.45450 0.45680 -0.02200
H 	H 	0.91300 0.46260 0.42770 0.03300
H 	H 	0.91370 0.43300 0.47730 0.03100
C 	C 	0.85580 0.48480 0.52790 0.01800
H 	H 	0.85100 0.51220 0.55030 0.02800
H 	H 	0.87720 0.46150 0.54440 0.02200
C 	C 	0.81850 0.41910 0.48320 0.00100
H 	H 	0.83230 0.39120 0.50090 0.01600
H 	H 	0.78680 0.40870 0.47040 0.02000
C 	C 	0.85170 0.53550 0.45940 0.01100
H 	H 	0.86970 0.54840 0.43140 0.02800
H 	H 	0.84240 0.56300 0.48020 0.02800
C 	C 	0.78300 0.49090 0.48850 0.02100
H 	H 	0.77110 0.51930 0.50680 0.01000
H 	H 	0.75420 0.47250 0.47810 0.01700
C 	C 	0.82230 0.46720 0.41220 -0.01800
H 	H 	0.84300 0.47810 0.38520 0.03500
H 	H 	0.79300 0.45220 0.39820 0.04000
N 	N 	0.84980 0.42890 0.44220 -0.19400
N 	N 	0.88220 0.50330 0.48610 -0.10800
N 	N 	0.80880 0.46120 0.52170 -0.12500
N 	N 	0.80770 0.51040 0.44230 -0.11200
Co	Co	0.65366 0.15366 0.34634 1.06600
O 	O 	0.81630 0.31630 0.18370 -0.31700
W 	W 	0.75119 0.62485 0.83330 1.21100
W 	W 	0.85649 0.57285 0.87029 1.00800
W 	W 	0.79809 0.57303 0.64611 0.87700
W 	W 	0.79393 0.52373 0.77553 0.97000
W 	W 	0.69177 0.73554 0.96943 0.94600
W 	W 	0.93196 0.68502 0.85487 0.91600
W 	W 	0.90112 0.52675 0.69117 0.98100
W 	W 	0.58367 0.79747 0.96921 0.96900
Co	Co	0.90175 0.63024 0.63530 1.18000
Sb	Sb	0.84807 0.64952 0.74936 0.60200
Sb	Sb	0.70474 0.61731 0.71404 0.52400
Sb	Sb	0.81372 0.72007 0.89470 0.53200
O 	O 	0.73990 0.73130 0.92340 -0.38900
O 	O 	0.74000 0.65040 0.76680 -0.36100
O 	O 	0.84110 0.51670 0.65640 -0.44700
O 	O 	0.65820 0.68180 0.95250 -0.49300
O 	O 	0.94250 0.55110 0.74130 -0.46200
O 	O 	0.77080 0.55390 0.71620 -0.43300
O 	O 	0.82290 0.60030 0.79880 -0.40600
O 	O 	0.69650 0.63530 0.86450 -0.52800
O 	O 	0.92970 0.55820 0.64260 -0.49100
O 	O 	0.88140 0.63590 0.87960 -0.45600
O 	O 	0.62350 0.85610 0.97280 -0.43100
O 	O 	0.79070 0.60080 0.88580 -0.46100
O 	O 	0.83640 0.60310 0.60030 -0.45100
O 	O 	0.73730 0.56030 0.80800 -0.44600
O 	O 	0.85320 0.50960 0.74980 -0.43200
O 	O 	0.80310 0.78760 0.86810 -0.36300
O 	O 	0.97450 0.71210 0.81080 -0.43600
O 	O 	0.91140 0.55590 0.83460 -0.44300
O 	O 	0.85880 0.60060 0.69660 -0.45200
O 	O 	0.78140 0.68830 0.83980 -0.36500
O 	O 	0.62960 0.76050 0.00450 -0.42900
O 	O 	0.87830 0.72450 0.84390 -0.37900
O 	O 	0.91560 0.64600 0.78020 -0.38400
O 	O 	0.82050 0.51810 0.84290 -0.43200
O 	O 	0.75930 0.63010 0.66560 -0.37500
C 	C 	0.95680 0.60610 0.54550 -0.02200
H 	H 	0.92770 0.58700 0.53740 0.03300
H 	H 	0.97730 0.58630 0.56700 0.03100
C 	C 	0.02790 0.64420 0.51520 0.01800
H 	H 	0.05030 0.64900 0.48780 0.02800
H 	H 	0.04440 0.62280 0.53850 0.02200
C 	C 	0.98320 0.68150 0.58090 0.00100
H 	H 	0.00090 0.66770 0.60880 0.01600
H 	H 	0.97040 0.71320 0.59130 0.02000
C 	C 	0.95940 0.64830 0.46450 0.01100
H 	H 	0.93140 0.63030 0.45160 0.02800
H 	H 	0.98020 0.65760 0.43700 0.02800
C 	C 	0.98850 0.71700 0.50910 0.02100
H 	H 	0.00680 0.72890 0.48070 0.01000
H 	H 	0.97810 0.74580 0.52750 0.01700
C 	C 	0.91220 0.67770 0.53280 -0.01800
H 	H 	0.88520 0.65700 0.52190 0.03500
H 	H 	0.89820 0.70700 0.54780 0.04000
N 	N 	0.94220 0.65020 0.57110 -0.19400
N 	N 	0.98610 0.61780 0.49670 -0.10800
N 	N 	0.02170 0.69120 0.53880 -0.12500
N 	N 	0.94230 0.69230 0.48960 -0.11200
W 	W 	0.83330 0.75119 0.62485 1.21100
W 	W 	0.87029 0.85649 0.57285 1.00800
W 	W 	0.64611 0.79809 0.57303 0.87700
W 	W 	0.77553 0.79393 0.52373 0.97000
W 	W 	0.96943 0.69177 0.73554 0.94600
W 	W 	0.85487 0.93196 0.68502 0.91600
W 	W 	0.69117 0.90112 0.52675 0.98100
W 	W 	0.96921 0.58367 0.79747 0.96900
Co	Co	0.63530 0.90175 0.63024 1.18000
Sb	Sb	0.74936 0.84807 0.64952 0.60200
Sb	Sb	0.71404 0.70474 0.61731 0.52400
Sb	Sb	0.89470 0.81372 0.72007 0.53200
O 	O 	0.92340 0.73990 0.73130 -0.38900
O 	O 	0.76680 0.74000 0.65040 -0.36100
O 	O 	0.65640 0.84110 0.51670 -0.44700
O 	O 	0.95250 0.65820 0.68180 -0.49300
O 	O 	0.74130 0.94250 0.55110 -0.46200
O 	O 	0.71620 0.77080 0.55390 -0.43300
O 	O 	0.79880 0.82290 0.60030 -0.40600
O 	O 	0.86450 0.69650 0.63530 -0.52800
O 	O 	0.64260 0.92970 0.55820 -0.49100
O 	O 	0.87960 0.88140 0.63590 -0.45600
O 	O 	0.97280 0.62350 0.85610 -0.43100
O 	O 	0.88580 0.79070 0.60080 -0.46100
O 	O 	0.60030 0.83640 0.60310 -0.45100
O 	O 	0.80800 0.73730 0.56030 -0.44600
O 	O 	0.74980 0.85320 0.50960 -0.43200
O 	O 	0.86810 0.80310 0.78760 -0.36300
O 	O 	0.81080 0.97450 0.71210 -0.43600
O 	O 	0.83460 0.91140 0.55590 -0.44300
O 	O 	0.69660 0.85880 0.60060 -0.45200
O 	O 	0.83980 0.78140 0.68830 -0.36500
O 	O 	0.00450 0.62960 0.76050 -0.42900
O 	O 	0.84390 0.87830 0.72450 -0.37900
O 	O 	0.78020 0.91560 0.64600 -0.38400
O 	O 	0.84290 0.82050 0.51810 -0.43200
O 	O 	0.66560 0.75930 0.63010 -0.37500
C 	C 	0.54550 0.95680 0.60610 -0.02200
H 	H 	0.53740 0.92770 0.58700 0.03300
H 	H 	0.56700 0.97730 0.58630 0.03100
C 	C 	0.51520 0.02790 0.64420 0.01800
H 	H 	0.48780 0.05030 0.64900 0.02800
H 	H 	0.53850 0.04440 0.62280 0.02200
C 	C 	0.58090 0.98320 0.68150 0.00100
H 	H 	0.60880 0.00090 0.66770 0.01600
H 	H 	0.59130 0.97040 0.71320 0.02000
C 	C 	0.46450 0.95940 0.64830 0.01100
H 	H 	0.45160 0.93140 0.63030 0.02800
H 	H 	0.43700 0.98020 0.65760 0.02800
C 	C 	0.50910 0.98850 0.71700 0.02100
H 	H 	0.48070 0.00680 0.72890 0.01000
H 	H 	0.52750 0.97810 0.74580 0.01700
C 	C 	0.53280 0.91220 0.67770 -0.01800
H 	H 	0.52190 0.88520 0.65700 0.03500
H 	H 	0.54780 0.89820 0.70700 0.04000
N 	N 	0.57110 0.94220 0.65020 -0.19400
N 	N 	0.49670 0.98610 0.61780 -0.10800
N 	N 	0.53880 0.02170 0.69120 -0.12500
N 	N 	0.48960 0.94230 0.69230 -0.11200
W 	W 	0.62485 0.83330 0.75119 1.21100
W 	W 	0.57285 0.87029 0.85649 1.00800
W 	W 	0.57303 0.64611 0.79809 0.87700
W 	W 	0.52373 0.77553 0.79393 0.97000
W 	W 	0.73554 0.96943 0.69177 0.94600
W 	W 	0.68502 0.85487 0.93196 0.91600
W 	W 	0.52675 0.69117 0.90112 0.98100
W 	W 	0.79747 0.96921 0.58367 0.96900
Co	Co	0.63024 0.63530 0.90175 1.18000
Sb	Sb	0.64952 0.74936 0.84807 0.60200
Sb	Sb	0.61731 0.71404 0.70474 0.52400
Sb	Sb	0.72007 0.89470 0.81372 0.53200
O 	O 	0.73130 0.92340 0.73990 -0.38900
O 	O 	0.65040 0.76680 0.74000 -0.36100
O 	O 	0.51670 0.65640 0.84110 -0.44700
O 	O 	0.68180 0.95250 0.65820 -0.49300
O 	O 	0.55110 0.74130 0.94250 -0.46200
O 	O 	0.55390 0.71620 0.77080 -0.43300
O 	O 	0.60030 0.79880 0.82290 -0.40600
O 	O 	0.63530 0.86450 0.69650 -0.52800
O 	O 	0.55820 0.64260 0.92970 -0.49100
O 	O 	0.63590 0.87960 0.88140 -0.45600
O 	O 	0.85610 0.97280 0.62350 -0.43100
O 	O 	0.60080 0.88580 0.79070 -0.46100
O 	O 	0.60310 0.60030 0.83640 -0.45100
O 	O 	0.56030 0.80800 0.73730 -0.44600
O 	O 	0.50960 0.74980 0.85320 -0.43200
O 	O 	0.78760 0.86810 0.80310 -0.36300
O 	O 	0.71210 0.81080 0.97450 -0.43600
O 	O 	0.55590 0.83460 0.91140 -0.44300
O 	O 	0.60060 0.69660 0.85880 -0.45200
O 	O 	0.68830 0.83980 0.78140 -0.36500
O 	O 	0.76050 0.00450 0.62960 -0.42900
O 	O 	0.72450 0.84390 0.87830 -0.37900
O 	O 	0.64600 0.78020 0.91560 -0.38400
O 	O 	0.51810 0.84290 0.82050 -0.43200
O 	O 	0.63010 0.66560 0.75930 -0.37500
C 	C 	0.60610 0.54550 0.95680 -0.02200
H 	H 	0.58700 0.53740 0.92770 0.03300
H 	H 	0.58630 0.56700 0.97730 0.03100
C 	C 	0.64420 0.51520 0.02790 0.01800
H 	H 	0.64900 0.48780 0.05030 0.02800
H 	H 	0.62280 0.53850 0.04440 0.02200
C 	C 	0.68150 0.58090 0.98320 0.00100
H 	H 	0.66770 0.60880 0.00090 0.01600
H 	H 	0.71320 0.59130 0.97040 0.02000
C 	C 	0.64830 0.46450 0.95940 0.01100
H 	H 	0.63030 0.45160 0.93140 0.02800
H 	H 	0.65760 0.43700 0.98020 0.02800
C 	C 	0.71700 0.50910 0.98850 0.02100
H 	H 	0.72890 0.48070 0.00680 0.01000
H 	H 	0.74580 0.52750 0.97810 0.01700
C 	C 	0.67770 0.53280 0.91220 -0.01800
H 	H 	0.65700 0.52190 0.88520 0.03500
H 	H 	0.70700 0.54780 0.89820 0.04000
N 	N 	0.65020 0.57110 0.94220 -0.19400
N 	N 	0.61780 0.49670 0.98610 -0.10800
N 	N 	0.69120 0.53880 0.02170 -0.12500
N 	N 	0.69230 0.48960 0.94230 -0.11200
Co	Co	0.84634 0.84634 0.84634 1.06600
O 	O 	0.68370 0.68370 0.68370 -0.31700
W 	W 	0.25119 0.87515 0.16670 1.21100
W 	W 	0.35649 0.92715 0.12971 1.00800
W 	W 	0.29809 0.92697 0.35389 0.87700
W 	W 	0.29393 0.97627 0.22447 0.97000
W 	W 	0.19177 0.76446 0.03057 0.94600
W 	W 	0.43196 0.81498 0.14513 0.91600
W 	W 	0.40112 0.97325 0.30883 0.98100
W 	W 	0.08367 0.70253 0.03079 0.96900
Co	Co	0.40175 0.86976 0.36470 1.18000
Sb	Sb	0.34807 0.85048 0.25064 0.60200
Sb	Sb	0.20474 0.88269 0.28596 0.52400
Sb	Sb	0.31372 0.77993 0.10530 0.53200
O 	O 	0.23990 0.76870 0.07660 -0.38900
O 	O 	0.24000 0.84960 0.23320 -0.36100
O 	O 	0.34110 0.98330 0.34360 -0.44700
O 	O 	0.15820 0.81820 0.04750 -0.49300
O 	O 	0.44250 0.94890 0.25870 -0.46200
O 	O 	0.27080 0.94610 0.28380 -0.43300
O 	O 	0.32290 0.89970 0.20120 -0.40600
O 	O 	0.19650 0.86470 0.13550 -0.52800
O 	O 	0.42970 0.94180 0.35740 -0.49100
O 	O 	0.38140 0.86410 0.12040 -0.45600
O 	O 	0.12350 0.64390 0.02720 -0.43100
O 	O 	0.29070 0.89920 0.11420 -0.46100
O 	O 	0.33640 0.89690 0.39970 -0.45100
O 	O 	0.23730 0.93970 0.19200 -0.44600
O 	O 	0.35320 0.99040 0.25020 -0.43200
O 	O 	0.30310 0.71240 0.13190 -0.36300
O 	O 	0.47450 0.78790 0.18920 -0.43600
O 	O 	0.41140 0.94410 0.16540 -0.44300
O 	O 	0.35880 0.89940 0.30340 -0.45200
O 	O 	0.28140 0.81170 0.16020 -0.36500
O 	O 	0.12960 0.73950 0.99550 -0.42900
O 	O 	0.37830 0.77550 0.15610 -0.37900
O 	O 	0.41560 0.85400 0.21980 -0.38400
O 	O 	0.32050 0.98190 0.15710 -0.43200
O 	O 	0.25930 0.86990 0.33440 -0.37500
C 	C 	0.45680 0.89390 0.45450 -0.02200
H 	H 	0.42770 0.91300 0.46260 0.03300
H 	H 	0.47730 0.91370 0.43300 0.03100
C 	C 	0.52790 0.85580 0.48480 0.01800
H 	H 	0.55030 0.85100 0.51220 0.02800
H 	H 	0.54440 0.87720 0.46150 0.02200
C 	C 	0.48320 0.81850 0.41910 0.00100
H 	H 	0.50090 0.83230 0.39120 0.01600
H 	H 	0.47040 0.78680 0.40870 0.02000
C 	C 	0.45940 0.85170 0.53550 0.01100
H 	H 	0.43140 0.86970 0.54840 0.02800
H 	H 	0.48020 0.84240 0.56300 0.02800
C 	C 	0.48850 0.78300 0.49090 0.02100
H 	H 	0.50680 0.77110 0.51930 0.01000
H 	H 	0.47810 0.75420 0.47250 0.01700
C 	C 	0.41220 0.82230 0.46720 -0.01800
H 	H 	0.38520 0.84300 0.47810 0.03500
H 	H 	0.39820 0.79300 0.45220 0.04000
N 	N 	0.44220 0.84980 0.42890 -0.19400
N 	N 	0.48610 0.88220 0.50330 -0.10800
N 	N 	0.52170 0.80880 0.46120 -0.12500
N 	N 	0.44230 0.80770 0.51040 -0.11200
W 	W 	0.33330 0.74881 0.37515 1.21100
W 	W 	0.37029 0.64351 0.42715 1.00800
W 	W 	0.14611 0.70191 0.42697 0.87700
W 	W 	0.27553 0.70607 0.47627 0.97000
W 	W 	0.46943 0.80823 0.26446 0.94600
W 	W 	0.35487 0.56804 0.31498 0.91600
W 	W 	0.19117 0.59888 0.47325 0.98100
W 	W 	0.46921 0.91633 0.20253 0.96900
Co	Co	0.13530 0.59825 0.36976 1.18000
Sb	Sb	0.24936 0.65193 0.35048 0.60200
Sb	Sb	0.21404 0.79526 0.38269 0.52400
Sb	Sb	0.39470 0.68628 0.27993 0.53200
O 	O 	0.42340 0.76010 0.26870 -0.38900
O 	O 	0.26680 0.76000 0.34960 -0.36100
O 	O 	0.15640 0.65890 0.48330 -0.44700
O 	O 	0.45250 0.84180 0.31820 -0.49300
O 	O 	0.24130 0.55750 0.44890 -0.46200
O 	O 	0.21620 0.72920 0.44610 -0.43300
O 	O 	0.29880 0.67710 0.39970 -0.40600
O 	O 	0.36450 0.80350 0.36470 -0.52800
O 	O 	0.14260 0.57030 0.44180 -0.49100
O 	O 	0.37960 0.61860 0.36410 -0.45600
O 	O 	0.47280 0.87650 0.14390 -0.43100
O 	O 	0.38580 0.70930 0.39920 -0.46100
O 	O 	0.10030 0.66360 0.39690 -0.45100
O 	O 	0.30800 0.76270 0.43970 -0.44600
O 	O 	0.24980 0.64680 0.49040 -0.43200
O 	O 	0.36810 0.69690 0.21240 -0.36300
O 	O 	0.31080 0.52550 0.28790 -0.43600
O 	O 	0.33460 0.58860 0.44410 -0.44300
O 	O 	0.19660 0.64120 0.39940 -0.45200
O 	O 	0.33980 0.71860 0.31170 -0.36500
O 	O 	0.50450 0.87040 0.23950 -0.42900
O 	O 	0.34390 0.62170 0.27550 -0.37900
O 	O 	0.28020 0.58440 0.35400 -0.38400
O 	O 	0.34290 0.67950 0.48190 -0.43200
O 	O 	0.16560 0.74070 0.36990 -0.37500
C 	C 	0.04550 0.54320 0.39390 -0.02200
H 	H 	0.03740 0.57230 0.41300 0.03300
H 	H 	0.06700 0.52270 0.41370 0.03100
C 	C 	0.01520 0.47210 0.35580 0.01800
H 	H 	0.98780 0.44970 0.35100 0.02800
H 	H 	0.03850 0.45560 0.37720 0.02200
C 	C 	0.08090 0.51680 0.31850 0.00100
H 	H 	0.10880 0.49910 0.33230 0.01600
H 	H 	0.09130 0.52960 0.28680 0.02000
C 	C 	0.96450 0.54060 0.35170 0.01100
H 	H 	0.95160 0.56860 0.36970 0.02800
H 	H 	0.93700 0.51980 0.34240 0.02800
C 	C 	0.00910 0.51150 0.28300 0.02100
H 	H 	0.98070 0.49320 0.27110 0.01000
H 	H 	0.02750 0.52190 0.25420 0.01700
C 	C 	0.03280 0.58780 0.32230 -0.01800
H 	H 	0.02190 0.61480 0.34300 0.03500
H 	H 	0.04780 0.60180 0.29300 0.04000
N 	N 	0.07110 0.55780 0.34980 -0.19400
N 	N 	0.99670 0.51390 0.38220 -0.10800
N 	N 	0.03880 0.47830 0.30880 -0.12500
N 	N 	0.98960 0.55770 0.30770 -0.11200
W 	W 	0.12485 0.66670 0.24881 1.21100
W 	W 	0.07285 0.62971 0.14351 1.00800
W 	W 	0.07303 0.85389 0.20191 0.87700
W 	W 	0.02373 0.72447 0.20607 0.97000
W 	W 	0.23554 0.53057 0.30823 0.94600
W 	W 	0.18502 0.64513 0.06804 0.91600
W 	W 	0.02675 0.80883 0.09888 0.98100
W 	W 	0.29747 0.53079 0.41633 0.96900
Co	Co	0.13024 0.86470 0.09825 1.18000
Sb	Sb	0.14952 0.75064 0.15193 0.60200
Sb	Sb	0.11731 0.78596 0.29526 0.52400
Sb	Sb	0.22007 0.60530 0.18628 0.53200
O 	O 	0.23130 0.57660 0.26010 -0.38900
O 	O 	0.15040 0.73320 0.26000 -0.36100
O 	O 	0.01670 0.84360 0.15890 -0.44700
O 	O 	0.18180 0.54750 0.34180 -0.49300
O 	O 	0.05110 0.75870 0.05750 -0.46200
O 	O 	0.05390 0.78380 0.22920 -0.43300
O 	O 	0.10030 0.70120 0.17710 -0.40600
O 	O 	0.13530 0.63550 0.30350 -0.52800
O 	O 	0.05820 0.85740 0.07030 -0.49100
O 	O 	0.13590 0.62040 0.11860 -0.45600
O 	O 	0.35610 0.52720 0.37650 -0.43100
O 	O 	0.10080 0.61420 0.20930 -0.46100
O 	O 	0.10310 0.89970 0.16360 -0.45100
O 	O 	0.06030 0.69200 0.26270 -0.44600
O 	O 	0.00960 0.75020 0.14680 -0.43200
O 	O 	0.28760 0.63190 0.19690 -0.36300
O 	O 	0.21210 0.68920 0.02550 -0.43600
O 	O 	0.05590 0.66540 0.08860 -0.44300
O 	O 	0.10060 0.80340 0.14120 -0.45200
O 	O 	0.18830 0.66020 0.21860 -0.36500
O 	O 	0.26050 0.49550 0.37040 -0.42900
O 	O 	0.22450 0.65610 0.12170 -0.37900
O 	O 	0.14600 0.71980 0.08440 -0.38400
O 	O 	0.01810 0.65710 0.17950 -0.43200
O 	O 	0.13010 0.83440 0.24070 -0.37500
C 	C 	0.10610 0.95450 0.04320 -0.02200
H 	H 	0.08700 0.96260 0.07230 0.03300
H 	H 	0.08630 0.93300 0.02270 0.03100
C 	C 	0.14420 0.98480 0.97210 0.01800
H 	H 	0.14900 0.01220 0.94970 0.02800
H 	H 	0.12280 0.96150 0.95560 0.02200
C 	C 	0.18150 0.91910 0.01680 0.00100
H 	H 	0.16770 0.89120 0.99910 0.01600
H 	H 	0.21320 0.90870 0.02960 0.02000
C 	C 	0.14830 0.03550 0.04060 0.01100
H 	H 	0.13030 0.04840 0.06860 0.02800
H 	H 	0.15760 0.06300 0.01980 0.02800
C 	C 	0.21700 0.99090 0.01150 0.02100
H 	H 	0.22890 0.01930 0.99320 0.01000
H 	H 	0.24580 0.97250 0.02190 0.01700
C 	C 	0.17770 0.96720 0.08780 -0.01700
H 	H 	0.15700 0.97810 0.11480 0.03500
H 	H 	0.20700 0.95220 0.10180 0.04000
N 	N 	0.15020 0.92890 0.05780 -0.19400
N 	N 	0.11780 0.00330 0.01390 -0.10800
N 	N 	0.19120 0.96120 0.97830 -0.12500
N 	N 	0.19230 0.01040 0.05770 -0.11200
Co	Co	0.34634 0.65366 0.15366 1.06600
O 	O 	0.18370 0.81630 0.31630 -0.31700
W 	W 	0.24881 0.12485 0.66670 1.21100
W 	W 	0.14351 0.07285 0.62971 1.00800
W 	W 	0.20191 0.07303 0.85389 0.87700
W 	W 	0.20607 0.02373 0.72447 0.97000
W 	W 	0.30823 0.23554 0.53057 0.94600
W 	W 	0.06804 0.18502 0.64513 0.91600
W 	W 	0.09888 0.02675 0.80883 0.98100
W 	W 	0.41633 0.29747 0.53079 0.96900
Co	Co	0.09825 0.13024 0.86470 1.18000
Sb	Sb	0.15193 0.14952 0.75064 0.60200
Sb	Sb	0.29526 0.11731 0.78596 0.52400
Sb	Sb	0.18628 0.22007 0.60530 0.53200
O 	O 	0.26010 0.23130 0.57660 -0.38900
O 	O 	0.26000 0.15040 0.73320 -0.36100
O 	O 	0.15890 0.01670 0.84360 -0.44700
O 	O 	0.34180 0.18180 0.54750 -0.49300
O 	O 	0.05750 0.05110 0.75870 -0.46200
O 	O 	0.22920 0.05390 0.78380 -0.43300
O 	O 	0.17710 0.10030 0.70120 -0.40600
O 	O 	0.30350 0.13530 0.63550 -0.52800
O 	O 	0.07030 0.05820 0.85740 -0.49100
O 	O 	0.11860 0.13590 0.62040 -0.45600
O 	O 	0.37650 0.35610 0.52720 -0.43100
O 	O 	0.20930 0.10080 0.61420 -0.46100
O 	O 	0.16360 0.10310 0.89970 -0.45100
O 	O 	0.26270 0.06030 0.69200 -0.44600
O 	O 	0.14680 0.00960 0.75020 -0.43200
O 	O 	0.19690 0.28760 0.63190 -0.36300
O 	O 	0.02550 0.21210 0.68920 -0.43600
O 	O 	0.08860 0.05590 0.66540 -0.44300
O 	O 	0.14120 0.10060 0.80340 -0.45200
O 	O 	0.21860 0.18830 0.66020 -0.36500
O 	O 	0.37040 0.26050 0.49550 -0.42900
O 	O 	0.12170 0.22450 0.65610 -0.37900
O 	O 	0.08440 0.14600 0.71980 -0.38400
O 	O 	0.17950 0.01810 0.65710 -0.43200
O 	O 	0.24070 0.13010 0.83440 -0.37500
C 	C 	0.04320 0.10610 0.95450 -0.02200
H 	H 	0.07230 0.08700 0.96260 0.03300
H 	H 	0.02270 0.08630 0.93300 0.03100
C 	C 	0.97210 0.14420 0.98480 0.01800
H 	H 	0.94970 0.14900 0.01220 0.02800
H 	H 	0.95560 0.12280 0.96150 0.02200
C 	C 	0.01680 0.18150 0.91910 0.00100
H 	H 	0.99910 0.16770 0.89120 0.01600
H 	H 	0.02960 0.21320 0.90870 0.02000
C 	C 	0.04060 0.14830 0.03550 0.01100
H 	H 	0.06860 0.13030 0.04840 0.02800
H 	H 	0.01980 0.15760 0.06300 0.02800
C 	C 	0.01150 0.21700 0.99090 0.02100
H 	H 	0.99320 0.22890 0.01930 0.01000
H 	H 	0.02190 0.24580 0.97250 0.01700
C 	C 	0.08780 0.17770 0.96720 -0.01700
H 	H 	0.11480 0.15700 0.97810 0.03500
H 	H 	0.10180 0.20700 0.95220 0.04000
N 	N 	0.05780 0.15020 0.92890 -0.19400
N 	N 	0.01390 0.11780 0.00330 -0.10800
N 	N 	0.97830 0.19120 0.96120 -0.12500
N 	N 	0.05770 0.19230 0.01040 -0.11200
W 	W 	0.16670 0.25119 0.87515 1.21100
W 	W 	0.12971 0.35649 0.92715 1.00800
W 	W 	0.35389 0.29809 0.92697 0.87700
W 	W 	0.22447 0.29393 0.97627 0.97000
W 	W 	0.03057 0.19177 0.76446 0.94600
W 	W 	0.14513 0.43196 0.81498 0.91600
W 	W 	0.30883 0.40112 0.97325 0.98100
W 	W 	0.03079 0.08367 0.70253 0.96900
Co	Co	0.36470 0.40175 0.86976 1.18000
Sb	Sb	0.25064 0.34807 0.85048 0.60200
Sb	Sb	0.28596 0.20474 0.88269 0.52400
Sb	Sb	0.10530 0.31372 0.77993 0.53200
O 	O 	0.07660 0.23990 0.76870 -0.38900
O 	O 	0.23320 0.24000 0.84960 -0.36100
O 	O 	0.34360 0.34110 0.98330 -0.44700
O 	O 	0.04750 0.15820 0.81820 -0.49300
O 	O 	0.25870 0.44250 0.94890 -0.46200
O 	O 	0.28380 0.27080 0.94610 -0.43300
O 	O 	0.20120 0.32290 0.89970 -0.40600
O 	O 	0.13550 0.19650 0.86470 -0.52800
O 	O 	0.35740 0.42970 0.94180 -0.49100
O 	O 	0.12040 0.38140 0.86410 -0.45600
O 	O 	0.02720 0.12350 0.64390 -0.43100
O 	O 	0.11420 0.29070 0.89920 -0.46100
O 	O 	0.39970 0.33640 0.89690 -0.45100
O 	O 	0.19200 0.23730 0.93970 -0.44600
O 	O 	0.25020 0.35320 0.99040 -0.43200
O 	O 	0.13190 0.30310 0.71240 -0.36300
O 	O 	0.18920 0.47450 0.78790 -0.43600
O 	O 	0.16540 0.41140 0.94410 -0.44300
O 	O 	0.30340 0.35880 0.89940 -0.45200
O 	O 	0.16020 0.28140 0.81170 -0.36500
O 	O 	0.99550 0.12960 0.73950 -0.42900
O 	O 	0.15610 0.37830 0.77550 -0.37900
O 	O 	0.21980 0.41560 0.85400 -0.38400
O 	O 	0.15710 0.32050 0.98190 -0.43200
O 	O 	0.33440 0.25930 0.86990 -0.37500
C 	C 	0.45450 0.45680 0.89390 -0.02200
H 	H 	0.46260 0.42770 0.91300 0.03300
H 	H 	0.43300 0.47730 0.91370 0.03100
C 	C 	0.48480 0.52790 0.85580 0.01800
H 	H 	0.51220 0.55030 0.85100 0.02800
H 	H 	0.46150 0.54440 0.87720 0.02200
C 	C 	0.41910 0.48320 0.81850 0.00100
H 	H 	0.39120 0.50090 0.83230 0.01600
H 	H 	0.40870 0.47040 0.78680 0.02000
C 	C 	0.53550 0.45940 0.85170 0.01100
H 	H 	0.54840 0.43140 0.86970 0.02800
H 	H 	0.56300 0.48020 0.84240 0.02800
C 	C 	0.49090 0.48850 0.78300 0.02100
H 	H 	0.51930 0.50680 0.77110 0.01000
H 	H 	0.47250 0.47810 0.75420 0.01700
C 	C 	0.46720 0.41220 0.82230 -0.01800
H 	H 	0.47810 0.38520 0.84300 0.03500
H 	H 	0.45220 0.39820 0.79300 0.04000
N 	N 	0.42890 0.44220 0.84980 -0.19400
N 	N 	0.50330 0.48610 0.88220 -0.10800
N 	N 	0.46120 0.52170 0.80880 -0.12500
N 	N 	0.51040 0.44230 0.80770 -0.11200
W 	W 	0.37515 0.33330 0.74881 1.21100
W 	W 	0.42715 0.37029 0.64351 1.00800
W 	W 	0.42697 0.14611 0.70191 0.87700
W 	W 	0.47627 0.27553 0.70607 0.97000
W 	W 	0.26446 0.46943 0.80823 0.94600
W 	W 	0.31498 0.35487 0.56804 0.91600
W 	W 	0.47325 0.19117 0.59888 0.98100
W 	W 	0.20253 0.46921 0.91633 0.96900
Co	Co	0.36976 0.13530 0.59825 1.18000
Sb	Sb	0.35048 0.24936 0.65193 0.60200
Sb	Sb	0.38269 0.21404 0.79526 0.52400
Sb	Sb	0.27993 0.39470 0.68628 0.53200
O 	O 	0.26870 0.42340 0.76010 -0.38900
O 	O 	0.34960 0.26680 0.76000 -0.36100
O 	O 	0.48330 0.15640 0.65890 -0.44700
O 	O 	0.31820 0.45250 0.84180 -0.49300
O 	O 	0.44890 0.24130 0.55750 -0.46200
O 	O 	0.44610 0.21620 0.72920 -0.43300
O 	O 	0.39970 0.29880 0.67710 -0.40600
O 	O 	0.36470 0.36450 0.80350 -0.52800
O 	O 	0.44180 0.14260 0.57030 -0.49100
O 	O 	0.36410 0.37960 0.61860 -0.45600
O 	O 	0.14390 0.47280 0.87650 -0.43100
O 	O 	0.39920 0.38580 0.70930 -0.46100
O 	O 	0.39690 0.10030 0.66360 -0.45100
O 	O 	0.43970 0.30800 0.76270 -0.44600
O 	O 	0.49040 0.24980 0.64680 -0.43200
O 	O 	0.21240 0.36810 0.69690 -0.36300
O 	O 	0.28790 0.31080 0.52550 -0.43600
O 	O 	0.44410 0.33460 0.58860 -0.44300
O 	O 	0.39940 0.19660 0.64120 -0.45200
O 	O 	0.31170 0.33980 0.71860 -0.36500
O 	O 	0.23950 0.50450 0.87040 -0.42900
O 	O 	0.27550 0.34390 0.62170 -0.37900
O 	O 	0.35400 0.28020 0.58440 -0.38400
O 	O 	0.48190 0.34290 0.67950 -0.43200
O 	O 	0.36990 0.16560 0.74070 -0.37500
C 	C 	0.39390 0.04550 0.54320 -0.02200
H 	H 	0.41300 0.03740 0.57230 0.03300
H 	H 	0.41370 0.06700 0.52270 0.03100
C 	C 	0.35580 0.01520 0.47210 0.01800
H 	H 	0.35100 0.98780 0.44970 0.02800
H 	H 	0.37720 0.03850 0.45560 0.02200
C 	C 	0.31850 0.08090 0.51680 0.00100
H 	H 	0.33230 0.10880 0.49910 0.01600
H 	H 	0.28680 0.09130 0.52960 0.02000
C 	C 	0.35170 0.96450 0.54060 0.01100
H 	H 	0.36970 0.95160 0.56860 0.02800
H 	H 	0.34240 0.93700 0.51980 0.02800
C 	C 	0.28300 0.00910 0.51150 0.02100
H 	H 	0.27110 0.98070 0.49320 0.01000
H 	H 	0.25420 0.02750 0.52190 0.01700
C 	C 	0.32230 0.03280 0.58780 -0.01800
H 	H 	0.34300 0.02190 0.61480 0.03500
H 	H 	0.29300 0.04780 0.60180 0.04000
N 	N 	0.34980 0.07110 0.55780 -0.19400
N 	N 	0.38220 0.99670 0.51390 -0.10800
N 	N 	0.30880 0.03880 0.47830 -0.12500
N 	N 	0.30770 0.98960 0.55770 -0.11200
Co	Co	0.15366 0.34634 0.65366 1.06600
O 	O 	0.31630 0.18370 0.81630 -0.31700
