data_crystal

_cell_length_a 45.88700
_cell_length_b 45.88700
_cell_length_c 45.88700
_cell_angle_alpha 90.00000
_cell_angle_beta  90.00000
_cell_angle_gamma 90.00000

_symmetry_space_group_name_	'P 1'
_symmetry_space_group_name_H-M	'P 1'

loop_
_symmetry_equiv_pos_as_xyz
  x,y,z

loop_
_atom_site_label
_atom_site_type_symbol
_atom_site_fract_x
_atom_site_fract_y
_atom_site_fract_z
_atom_site_charge
Zr	Zr	0.50000 0.50000 0.55373 3.21600
Zr	Zr	0.50000 0.50000 0.44627 3.21600
Zr	Zr	0.55373 0.50000 0.50000 3.21600
Zr	Zr	0.44627 0.50000 0.50000 3.21600
Zr	Zr	0.50000 0.55373 0.50000 3.21600
Zr	Zr	0.50000 0.44627 0.50000 3.21600
O 	O 	0.47361 0.47361 0.52639 -1.25700
O 	O 	0.52639 0.52639 0.52639 -1.25700
O 	O 	0.52639 0.47361 0.47361 -1.25700
O 	O 	0.47361 0.52639 0.47361 -1.25700
O 	O 	0.47361 0.47361 0.47361 -1.25700
O 	O 	0.52639 0.52639 0.47361 -1.25700
O 	O 	0.47361 0.52639 0.52639 -1.25700
O 	O 	0.52639 0.47361 0.52639 -1.25700
O 	O 	0.54150 0.50000 0.57814 -0.60600
C 	C 	0.62169 0.50000 0.58104 0.03400
H 	H 	0.62680 0.50000 0.56140 0.03800
C 	C 	0.64193 0.50000 0.60424 -0.11100
H 	H 	0.66170 0.50000 0.59960 0.07500
C 	C 	0.72471 0.50000 0.68805 -0.00500
C 	C 	0.67930 0.50000 0.66800 0.00800
O 	O 	0.45850 0.50000 0.57814 -0.60500
C 	C 	0.37831 0.50000 0.58104 0.03500
H 	H 	0.37320 0.50000 0.56140 0.03900
C 	C 	0.35807 0.50000 0.60424 -0.11000
H 	H 	0.33830 0.50000 0.59960 0.07600
C 	C 	0.27529 0.50000 0.68805 -0.00400
C 	C 	0.32070 0.50000 0.66800 0.00700
O 	O 	0.45850 0.50000 0.42186 -0.60500
C 	C 	0.37831 0.50000 0.41896 0.03500
H 	H 	0.37320 0.50000 0.43860 0.03900
C 	C 	0.35807 0.50000 0.39576 -0.11000
H 	H 	0.33830 0.50000 0.40040 0.07600
C 	C 	0.27529 0.50000 0.31195 -0.00500
C 	C 	0.32070 0.50000 0.33200 0.00800
O 	O 	0.54150 0.50000 0.42186 -0.60500
C 	C 	0.62169 0.50000 0.41896 0.03500
H 	H 	0.62680 0.50000 0.43860 0.03900
C 	C 	0.64193 0.50000 0.39576 -0.11000
H 	H 	0.66170 0.50000 0.40040 0.07600
C 	C 	0.72471 0.50000 0.31195 -0.00400
C 	C 	0.67930 0.50000 0.33200 0.00800
O 	O 	0.57814 0.54150 0.50000 -0.60500
C 	C 	0.58104 0.62169 0.50000 0.03500
H 	H 	0.56140 0.62680 0.50000 0.03900
C 	C 	0.60424 0.64193 0.50000 -0.11000
H 	H 	0.59960 0.66170 0.50000 0.07600
C 	C 	0.68805 0.72471 0.50000 -0.00400
C 	C 	0.66800 0.67930 0.50000 0.00800
O 	O 	0.57814 0.45850 0.50000 -0.60500
C 	C 	0.58104 0.37831 0.50000 0.03500
H 	H 	0.56140 0.37320 0.50000 0.03900
C 	C 	0.60424 0.35807 0.50000 -0.11000
H 	H 	0.59960 0.33830 0.50000 0.07600
C 	C 	0.68805 0.27529 0.50000 -0.00400
C 	C 	0.66800 0.32070 0.50000 0.00700
O 	O 	0.42186 0.45850 0.50000 -0.60500
C 	C 	0.41896 0.37831 0.50000 0.03500
H 	H 	0.43860 0.37320 0.50000 0.03900
C 	C 	0.39576 0.35807 0.50000 -0.11000
H 	H 	0.40040 0.33830 0.50000 0.07600
C 	C 	0.31195 0.27529 0.50000 -0.00500
C 	C 	0.33200 0.32070 0.50000 0.00800
O 	O 	0.42186 0.54150 0.50000 -0.60500
C 	C 	0.41896 0.62169 0.50000 0.03500
H 	H 	0.43860 0.62680 0.50000 0.03900
C 	C 	0.39576 0.64193 0.50000 -0.11000
H 	H 	0.40040 0.66170 0.50000 0.07600
C 	C 	0.31195 0.72471 0.50000 -0.00400
C 	C 	0.33200 0.67930 0.50000 0.00800
O 	O 	0.50000 0.57814 0.54150 -0.60500
C 	C 	0.50000 0.58104 0.62169 0.03500
H 	H 	0.50000 0.56140 0.62680 0.03900
C 	C 	0.50000 0.60424 0.64193 -0.11000
H 	H 	0.50000 0.59960 0.66170 0.07600
C 	C 	0.50000 0.68805 0.72471 -0.00400
C 	C 	0.50000 0.66800 0.67930 0.00800
O 	O 	0.50000 0.57814 0.45850 -0.60500
C 	C 	0.50000 0.58104 0.37831 0.03500
H 	H 	0.50000 0.56140 0.37320 0.03900
C 	C 	0.50000 0.60424 0.35807 -0.11000
H 	H 	0.50000 0.59960 0.33830 0.07600
C 	C 	0.50000 0.68805 0.27529 -0.00400
C 	C 	0.50000 0.66800 0.32070 0.00700
O 	O 	0.50000 0.42186 0.45850 -0.60500
C 	C 	0.50000 0.41896 0.37831 0.03500
H 	H 	0.50000 0.43860 0.37320 0.03900
C 	C 	0.50000 0.39576 0.35807 -0.11000
H 	H 	0.50000 0.40040 0.33830 0.07600
C 	C 	0.50000 0.31195 0.27529 -0.00500
C 	C 	0.50000 0.33200 0.32070 0.00800
O 	O 	0.50000 0.42186 0.54150 -0.60500
C 	C 	0.50000 0.41896 0.62169 0.03500
H 	H 	0.50000 0.43860 0.62680 0.03900
C 	C 	0.50000 0.39576 0.64193 -0.11000
H 	H 	0.50000 0.40040 0.66170 0.07600
C 	C 	0.50000 0.31195 0.72471 -0.00400
C 	C 	0.50000 0.33200 0.67930 0.00800
O 	O 	0.50000 0.54150 0.42186 -0.60500
C 	C 	0.50000 0.62169 0.41896 0.03500
H 	H 	0.50000 0.62680 0.43860 0.03900
C 	C 	0.50000 0.64193 0.39576 -0.11000
H 	H 	0.50000 0.66170 0.40040 0.07600
C 	C 	0.50000 0.72471 0.31195 -0.00400
C 	C 	0.50000 0.67930 0.33200 0.00800
O 	O 	0.50000 0.45850 0.42186 -0.60500
C 	C 	0.50000 0.37831 0.41896 0.03500
H 	H 	0.50000 0.37320 0.43860 0.03900
C 	C 	0.50000 0.35807 0.39576 -0.11000
H 	H 	0.50000 0.33830 0.40040 0.07600
C 	C 	0.50000 0.27529 0.31195 -0.00500
C 	C 	0.50000 0.32070 0.33200 0.00800
O 	O 	0.50000 0.45850 0.57814 -0.60500
C 	C 	0.50000 0.37831 0.58104 0.03500
H 	H 	0.50000 0.37320 0.56140 0.03900
C 	C 	0.50000 0.35807 0.60424 -0.11000
H 	H 	0.50000 0.33830 0.59960 0.07600
C 	C 	0.50000 0.27529 0.68805 -0.00400
C 	C 	0.50000 0.32070 0.66800 0.00700
O 	O 	0.50000 0.54150 0.57814 -0.60500
C 	C 	0.50000 0.62169 0.58104 0.03500
H 	H 	0.50000 0.62680 0.56140 0.03900
C 	C 	0.50000 0.64193 0.60424 -0.11000
H 	H 	0.50000 0.66170 0.59960 0.07600
C 	C 	0.50000 0.72471 0.68805 -0.00400
C 	C 	0.50000 0.67930 0.66800 0.00800
O 	O 	0.54150 0.57814 0.50000 -0.60500
C 	C 	0.62169 0.58104 0.50000 0.03500
H 	H 	0.62680 0.56140 0.50000 0.03900
C 	C 	0.64193 0.60424 0.50000 -0.11000
H 	H 	0.66170 0.59960 0.50000 0.07600
C 	C 	0.72471 0.68805 0.50000 -0.00400
C 	C 	0.67930 0.66800 0.50000 0.00800
O 	O 	0.45850 0.57814 0.50000 -0.60500
C 	C 	0.37831 0.58104 0.50000 0.03500
H 	H 	0.37320 0.56140 0.50000 0.03900
C 	C 	0.35807 0.60424 0.50000 -0.11000
H 	H 	0.33830 0.59960 0.50000 0.07600
C 	C 	0.27529 0.68805 0.50000 -0.00400
C 	C 	0.32070 0.66800 0.50000 0.00700
O 	O 	0.45850 0.42186 0.50000 -0.60500
C 	C 	0.37831 0.41896 0.50000 0.03500
H 	H 	0.37320 0.43860 0.50000 0.03900
C 	C 	0.35807 0.39576 0.50000 -0.11000
H 	H 	0.33830 0.40040 0.50000 0.07600
C 	C 	0.27529 0.31195 0.50000 -0.00500
C 	C 	0.32070 0.33200 0.50000 0.00800
O 	O 	0.54150 0.42186 0.50000 -0.60500
C 	C 	0.62169 0.41896 0.50000 0.03500
H 	H 	0.62680 0.43860 0.50000 0.03900
C 	C 	0.64193 0.39576 0.50000 -0.11000
H 	H 	0.66170 0.40040 0.50000 0.07600
C 	C 	0.72471 0.31195 0.50000 -0.00400
C 	C 	0.67930 0.33200 0.50000 0.00800
O 	O 	0.57814 0.50000 0.45850 -0.60500
C 	C 	0.58104 0.50000 0.37831 0.03500
H 	H 	0.56140 0.50000 0.37320 0.03900
C 	C 	0.60424 0.50000 0.35807 -0.11000
H 	H 	0.59960 0.50000 0.33830 0.07600
C 	C 	0.68805 0.50000 0.27529 -0.00400
C 	C 	0.66800 0.50000 0.32070 0.00700
O 	O 	0.57814 0.50000 0.54150 -0.60500
C 	C 	0.58104 0.50000 0.62169 0.03500
H 	H 	0.56140 0.50000 0.62680 0.03900
C 	C 	0.60424 0.50000 0.64193 -0.11000
H 	H 	0.59960 0.50000 0.66170 0.07600
C 	C 	0.68805 0.50000 0.72471 -0.00400
C 	C 	0.66800 0.50000 0.67930 0.00800
O 	O 	0.42186 0.50000 0.54150 -0.60500
C 	C 	0.41896 0.50000 0.62169 0.03500
H 	H 	0.43860 0.50000 0.62680 0.03900
C 	C 	0.39576 0.50000 0.64193 -0.11000
H 	H 	0.40040 0.50000 0.66170 0.07600
C 	C 	0.31195 0.50000 0.72471 -0.00400
C 	C 	0.33200 0.50000 0.67930 0.00800
O 	O 	0.42186 0.50000 0.45850 -0.60500
C 	C 	0.41896 0.50000 0.37831 0.03500
H 	H 	0.43860 0.50000 0.37320 0.03900
C 	C 	0.39576 0.50000 0.35807 -0.11000
H 	H 	0.40040 0.50000 0.33830 0.07600
C 	C 	0.31195 0.50000 0.27529 -0.00500
C 	C 	0.33200 0.50000 0.32070 0.00800
C 	C 	0.56846 0.50000 0.56846 0.42400
C 	C 	0.59171 0.50000 0.59171 -0.09900
C 	C 	0.65591 0.50000 0.65591 -0.04400
C 	C 	0.63414 0.50000 0.63414 0.07900
C 	C 	0.69544 0.50000 0.69544 -0.00700
C 	C 	0.43154 0.50000 0.56846 0.42400
C 	C 	0.40829 0.50000 0.59171 -0.09900
C 	C 	0.34409 0.50000 0.65591 -0.04400
C 	C 	0.36586 0.50000 0.63414 0.07900
C 	C 	0.30456 0.50000 0.69544 -0.00700
C 	C 	0.43154 0.50000 0.43154 0.42400
C 	C 	0.40829 0.50000 0.40829 -0.09900
C 	C 	0.34409 0.50000 0.34409 -0.04400
C 	C 	0.36586 0.50000 0.36586 0.07900
C 	C 	0.30456 0.50000 0.30456 -0.00700
C 	C 	0.56846 0.50000 0.43154 0.42400
C 	C 	0.59171 0.50000 0.40829 -0.09900
C 	C 	0.65591 0.50000 0.34409 -0.04400
C 	C 	0.63414 0.50000 0.36586 0.07900
C 	C 	0.69544 0.50000 0.30456 -0.00700
C 	C 	0.56846 0.56846 0.50000 0.42400
C 	C 	0.59171 0.59171 0.50000 -0.09900
C 	C 	0.65591 0.65591 0.50000 -0.04400
C 	C 	0.63414 0.63414 0.50000 0.07900
C 	C 	0.69544 0.69544 0.50000 -0.00700
C 	C 	0.56846 0.43154 0.50000 0.42400
C 	C 	0.59171 0.40829 0.50000 -0.09900
C 	C 	0.65591 0.34409 0.50000 -0.04400
C 	C 	0.63414 0.36586 0.50000 0.07900
C 	C 	0.69544 0.30456 0.50000 -0.00700
C 	C 	0.43154 0.43154 0.50000 0.42400
C 	C 	0.40829 0.40829 0.50000 -0.09900
C 	C 	0.34409 0.34409 0.50000 -0.04400
C 	C 	0.36586 0.36586 0.50000 0.07900
C 	C 	0.30456 0.30456 0.50000 -0.00700
C 	C 	0.43154 0.56846 0.50000 0.42400
C 	C 	0.40829 0.59171 0.50000 -0.09900
C 	C 	0.34409 0.65591 0.50000 -0.04400
C 	C 	0.36586 0.63414 0.50000 0.07900
C 	C 	0.30456 0.69544 0.50000 -0.00700
C 	C 	0.50000 0.56846 0.56846 0.42400
C 	C 	0.50000 0.59171 0.59171 -0.09900
C 	C 	0.50000 0.65591 0.65591 -0.04400
C 	C 	0.50000 0.63414 0.63414 0.07900
C 	C 	0.50000 0.69544 0.69544 -0.00700
C 	C 	0.50000 0.56846 0.43154 0.42400
C 	C 	0.50000 0.59171 0.40829 -0.09900
C 	C 	0.50000 0.65591 0.34409 -0.04400
C 	C 	0.50000 0.63414 0.36586 0.07900
C 	C 	0.50000 0.69544 0.30456 -0.00700
C 	C 	0.50000 0.43154 0.43154 0.42400
C 	C 	0.50000 0.40829 0.40829 -0.09900
C 	C 	0.50000 0.34409 0.34409 -0.04400
C 	C 	0.50000 0.36586 0.36586 0.07900
C 	C 	0.50000 0.30456 0.30456 -0.00700
C 	C 	0.50000 0.43154 0.56846 0.42400
C 	C 	0.50000 0.40829 0.59171 -0.09900
C 	C 	0.50000 0.34409 0.65591 -0.04400
C 	C 	0.50000 0.36586 0.63414 0.07900
C 	C 	0.50000 0.30456 0.69544 -0.00700
Zr	Zr	0.50000 0.00000 0.05373 3.21700
Zr	Zr	0.50000 -0.00000 0.94627 3.21700
Zr	Zr	0.55373 0.00000 -0.00000 3.21600
Zr	Zr	0.44627 0.00000 -0.00000 3.21600
Zr	Zr	0.50000 0.05373 -0.00000 3.21700
Zr	Zr	0.50000 0.94627 -0.00000 3.21700
O 	O 	0.47361 0.97361 0.02639 -1.25500
O 	O 	0.52639 0.02639 0.02639 -1.25800
O 	O 	0.52639 0.97361 0.97361 -1.25200
O 	O 	0.47361 0.02639 0.97361 -1.25500
O 	O 	0.47361 0.97361 0.97361 -1.25200
O 	O 	0.52639 0.02639 0.97361 -1.25500
O 	O 	0.47361 0.02639 0.02639 -1.25800
O 	O 	0.52639 0.97361 0.02639 -1.25500
O 	O 	0.54150 0.00000 0.07814 -0.60600
C 	C 	0.62169 0.00000 0.08104 0.03500
H 	H 	0.62680 0.00000 0.06140 0.03900
C 	C 	0.64193 0.00000 0.10424 -0.11100
H 	H 	0.66170 0.00000 0.09960 0.07600
C 	C 	0.72471 0.00000 0.18805 -0.00600
C 	C 	0.67930 0.00000 0.16800 0.00700
O 	O 	0.45850 0.00000 0.07814 -0.60600
C 	C 	0.37831 0.00000 0.08104 0.03500
H 	H 	0.37320 0.00000 0.06140 0.03800
C 	C 	0.35807 0.00000 0.10424 -0.11100
H 	H 	0.33830 0.00000 0.09960 0.07500
C 	C 	0.27529 0.00000 0.18805 -0.00600
C 	C 	0.32070 0.00000 0.16800 0.00700
O 	O 	0.45850 0.00000 0.92186 -0.60600
C 	C 	0.37831 0.00000 0.91896 0.03500
H 	H 	0.37320 0.00000 0.93860 0.04000
C 	C 	0.35807 0.00000 0.89576 -0.11000
H 	H 	0.33830 0.00000 0.90040 0.07600
C 	C 	0.27529 -0.00000 0.81195 -0.00500
C 	C 	0.32070 -0.00000 0.83200 0.00900
O 	O 	0.54150 0.00000 0.92186 -0.60600
C 	C 	0.62169 0.00000 0.91896 0.03500
H 	H 	0.62680 0.00000 0.93860 0.04000
C 	C 	0.64193 0.00000 0.89576 -0.11000
H 	H 	0.66170 0.00000 0.90040 0.07600
C 	C 	0.72471 -0.00000 0.81195 -0.00500
C 	C 	0.67930 -0.00000 0.83200 0.00900
O 	O 	0.57814 0.04150 -0.00000 -0.60600
C 	C 	0.58104 0.12169 -0.00000 0.03500
H 	H 	0.56140 0.12680 -0.00000 0.03900
C 	C 	0.60424 0.14193 -0.00000 -0.11100
H 	H 	0.59960 0.16170 -0.00000 0.07600
C 	C 	0.68805 0.22471 -0.00000 -0.00600
C 	C 	0.66800 0.17930 -0.00000 0.00700
O 	O 	0.57814 0.95850 -0.00000 -0.60400
C 	C 	0.58104 0.87831 -0.00000 0.03500
H 	H 	0.56140 0.87320 -0.00000 0.03900
C 	C 	0.60424 0.85807 -0.00000 -0.11000
H 	H 	0.59960 0.83830 -0.00000 0.07600
C 	C 	0.68805 0.77529 -0.00000 -0.00500
C 	C 	0.66800 0.82070 -0.00000 0.00600
O 	O 	0.42186 0.95850 -0.00000 -0.60400
C 	C 	0.41896 0.87831 -0.00000 0.03500
H 	H 	0.43860 0.87320 -0.00000 0.03900
C 	C 	0.39576 0.85807 -0.00000 -0.11000
H 	H 	0.40040 0.83830 -0.00000 0.07600
C 	C 	0.31195 0.77529 -0.00000 -0.00500
C 	C 	0.33200 0.82070 -0.00000 0.00600
O 	O 	0.42186 0.04150 -0.00000 -0.60600
C 	C 	0.41896 0.12169 -0.00000 0.03500
H 	H 	0.43860 0.12680 -0.00000 0.03900
C 	C 	0.39576 0.14193 -0.00000 -0.11100
H 	H 	0.40040 0.16170 -0.00000 0.07600
C 	C 	0.31195 0.22471 -0.00000 -0.00600
C 	C 	0.33200 0.17930 -0.00000 0.00800
O 	O 	0.50000 0.07814 0.04150 -0.60500
C 	C 	0.50000 0.08104 0.12169 0.03500
H 	H 	0.50000 0.06140 0.12680 0.03900
C 	C 	0.50000 0.10424 0.14193 -0.11000
H 	H 	0.50000 0.09960 0.16170 0.07600
C 	C 	0.50000 0.18805 0.22471 -0.00500
C 	C 	0.50000 0.16800 0.17930 0.00800
O 	O 	0.50000 0.07814 0.95850 -0.60300
C 	C 	0.50000 0.08104 0.87831 0.03500
H 	H 	0.50000 0.06140 0.87320 0.03900
C 	C 	0.50000 0.10424 0.85807 -0.11000
H 	H 	0.50000 0.09960 0.83830 0.07600
C 	C 	0.50000 0.18805 0.77529 -0.00400
C 	C 	0.50000 0.16800 0.82070 0.00600
O 	O 	0.50000 0.92186 0.95850 -0.60200
C 	C 	0.50000 0.91896 0.87831 0.03500
H 	H 	0.50000 0.93860 0.87320 0.04100
C 	C 	0.50000 0.89576 0.85807 -0.11000
H 	H 	0.50000 0.90040 0.83830 0.07700
C 	C 	0.50000 0.81195 0.77529 -0.00300
C 	C 	0.50000 0.83200 0.82070 0.00800
O 	O 	0.50000 0.92186 0.04150 -0.60500
C 	C 	0.50000 0.91896 0.12169 0.03500
H 	H 	0.50000 0.93860 0.12680 0.04000
C 	C 	0.50000 0.89576 0.14193 -0.11000
H 	H 	0.50000 0.90040 0.16170 0.07700
C 	C 	0.50000 0.81195 0.22471 -0.00400
C 	C 	0.50000 0.83200 0.17930 0.01000
O 	O 	0.50000 0.04150 0.92186 -0.60500
C 	C 	0.50000 0.12169 0.91896 0.03500
H 	H 	0.50000 0.12680 0.93860 0.04000
C 	C 	0.50000 0.14193 0.89576 -0.11000
H 	H 	0.50000 0.16170 0.90040 0.07700
C 	C 	0.50000 0.22471 0.81195 -0.00400
C 	C 	0.50000 0.17930 0.83200 0.01000
O 	O 	0.50000 0.95850 0.92186 -0.60200
C 	C 	0.50000 0.87831 0.91896 0.03500
H 	H 	0.50000 0.87320 0.93860 0.04100
C 	C 	0.50000 0.85807 0.89576 -0.11000
H 	H 	0.50000 0.83830 0.90040 0.07700
C 	C 	0.50000 0.77529 0.81195 -0.00300
C 	C 	0.50000 0.82070 0.83200 0.00800
O 	O 	0.50000 0.95850 0.07814 -0.60300
C 	C 	0.50000 0.87831 0.08104 0.03500
H 	H 	0.50000 0.87320 0.06140 0.03900
C 	C 	0.50000 0.85807 0.10424 -0.11000
H 	H 	0.50000 0.83830 0.09960 0.07600
C 	C 	0.50000 0.77529 0.18805 -0.00400
C 	C 	0.50000 0.82070 0.16800 0.00600
O 	O 	0.50000 0.04150 0.07814 -0.60500
C 	C 	0.50000 0.12169 0.08104 0.03500
H 	H 	0.50000 0.12680 0.06140 0.03900
C 	C 	0.50000 0.14193 0.10424 -0.11000
H 	H 	0.50000 0.16170 0.09960 0.07600
C 	C 	0.50000 0.22471 0.18805 -0.00500
C 	C 	0.50000 0.17930 0.16800 0.00800
O 	O 	0.54150 0.07814 -0.00000 -0.60600
C 	C 	0.62169 0.08104 -0.00000 0.03500
H 	H 	0.62680 0.06140 -0.00000 0.03900
C 	C 	0.64193 0.10424 -0.00000 -0.11100
H 	H 	0.66170 0.09960 -0.00000 0.07600
C 	C 	0.72471 0.18805 -0.00000 -0.00600
C 	C 	0.67930 0.16800 -0.00000 0.00700
O 	O 	0.45850 0.07814 -0.00000 -0.60600
C 	C 	0.37831 0.08104 -0.00000 0.03500
H 	H 	0.37320 0.06140 -0.00000 0.03800
C 	C 	0.35807 0.10424 -0.00000 -0.11100
H 	H 	0.33830 0.09960 -0.00000 0.07500
C 	C 	0.27529 0.18805 -0.00000 -0.00600
C 	C 	0.32070 0.16800 -0.00000 0.00700
O 	O 	0.45850 0.92186 -0.00000 -0.60600
C 	C 	0.37831 0.91896 -0.00000 0.03500
H 	H 	0.37320 0.93860 -0.00000 0.04000
C 	C 	0.35807 0.89576 -0.00000 -0.11000
H 	H 	0.33830 0.90040 -0.00000 0.07600
C 	C 	0.27529 0.81195 -0.00000 -0.00500
C 	C 	0.32070 0.83200 -0.00000 0.00900
O 	O 	0.54150 0.92186 -0.00000 -0.60600
C 	C 	0.62169 0.91896 -0.00000 0.03500
H 	H 	0.62680 0.93860 -0.00000 0.04000
C 	C 	0.64193 0.89576 -0.00000 -0.11000
H 	H 	0.66170 0.90040 -0.00000 0.07600
C 	C 	0.72471 0.81195 -0.00000 -0.00500
C 	C 	0.67930 0.83200 -0.00000 0.00900
O 	O 	0.57814 0.00000 0.95850 -0.60400
C 	C 	0.58104 0.00000 0.87831 0.03500
H 	H 	0.56140 0.00000 0.87320 0.03900
C 	C 	0.60424 0.00000 0.85807 -0.11000
H 	H 	0.59960 0.00000 0.83830 0.07600
C 	C 	0.68805 0.00000 0.77529 -0.00500
C 	C 	0.66800 0.00000 0.82070 0.00600
O 	O 	0.57814 0.00000 0.04150 -0.60600
C 	C 	0.58104 0.00000 0.12169 0.03500
H 	H 	0.56140 0.00000 0.12680 0.03900
C 	C 	0.60424 0.00000 0.14193 -0.11100
H 	H 	0.59960 0.00000 0.16170 0.07600
C 	C 	0.68805 0.00000 0.22471 -0.00600
C 	C 	0.66800 0.00000 0.17930 0.00700
O 	O 	0.42186 0.00000 0.04150 -0.60600
C 	C 	0.41896 0.00000 0.12169 0.03500
H 	H 	0.43860 0.00000 0.12680 0.03900
C 	C 	0.39576 0.00000 0.14193 -0.11100
H 	H 	0.40040 0.00000 0.16170 0.07600
C 	C 	0.31195 0.00000 0.22471 -0.00600
C 	C 	0.33200 0.00000 0.17930 0.00800
O 	O 	0.42186 0.00000 0.95850 -0.60400
C 	C 	0.41896 0.00000 0.87831 0.03500
H 	H 	0.43860 0.00000 0.87320 0.03900
C 	C 	0.39576 0.00000 0.85807 -0.11000
H 	H 	0.40040 0.00000 0.83830 0.07600
C 	C 	0.31195 0.00000 0.77529 -0.00500
C 	C 	0.33200 0.00000 0.82070 0.00600
C 	C 	0.56846 0.00000 0.06846 0.42400
C 	C 	0.59171 0.00000 0.09171 -0.09900
C 	C 	0.65591 0.00000 0.15591 -0.04500
C 	C 	0.63414 0.00000 0.13414 0.07800
C 	C 	0.69544 0.00000 0.19544 -0.00700
C 	C 	0.43154 0.00000 0.06846 0.42400
C 	C 	0.40829 0.00000 0.09171 -0.09900
C 	C 	0.34409 0.00000 0.15591 -0.04500
C 	C 	0.36586 0.00000 0.13414 0.07800
C 	C 	0.30456 0.00000 0.19544 -0.00600
C 	C 	0.43154 0.00000 0.93154 0.42400
C 	C 	0.40829 0.00000 0.90829 -0.09800
C 	C 	0.34409 -0.00000 0.84409 -0.04400
C 	C 	0.36586 -0.00000 0.86586 0.07800
C 	C 	0.30456 0.00000 0.80456 -0.00700
C 	C 	0.56846 0.00000 0.93154 0.42400
C 	C 	0.59171 0.00000 0.90829 -0.09800
C 	C 	0.65591 -0.00000 0.84409 -0.04400
C 	C 	0.63414 -0.00000 0.86586 0.07900
C 	C 	0.69544 0.00000 0.80456 -0.00700
C 	C 	0.56846 0.06846 -0.00000 0.42400
C 	C 	0.59171 0.09171 -0.00000 -0.09900
C 	C 	0.65591 0.15591 -0.00000 -0.04500
C 	C 	0.63414 0.13414 -0.00000 0.07800
C 	C 	0.69544 0.19544 -0.00000 -0.00700
C 	C 	0.56846 0.93154 -0.00000 0.42400
C 	C 	0.59171 0.90829 -0.00000 -0.09800
C 	C 	0.65591 0.84409 -0.00000 -0.04400
C 	C 	0.63414 0.86586 -0.00000 0.07900
C 	C 	0.69544 0.80456 -0.00000 -0.00700
C 	C 	0.43154 0.93154 -0.00000 0.42400
C 	C 	0.40829 0.90829 -0.00000 -0.09800
C 	C 	0.34409 0.84409 -0.00000 -0.04400
C 	C 	0.36586 0.86586 -0.00000 0.07800
C 	C 	0.30456 0.80456 -0.00000 -0.00700
C 	C 	0.43154 0.06846 -0.00000 0.42400
C 	C 	0.40829 0.09171 -0.00000 -0.09900
C 	C 	0.34409 0.15591 -0.00000 -0.04500
C 	C 	0.36586 0.13414 -0.00000 0.07800
C 	C 	0.30456 0.19544 -0.00000 -0.00600
C 	C 	0.50000 0.06846 0.06846 0.42400
C 	C 	0.50000 0.09171 0.09171 -0.09900
C 	C 	0.50000 0.15591 0.15591 -0.04400
C 	C 	0.50000 0.13414 0.13414 0.07900
C 	C 	0.50000 0.19544 0.19544 -0.00700
C 	C 	0.50000 0.06846 0.93154 0.42400
C 	C 	0.50000 0.09171 0.90829 -0.09800
C 	C 	0.50000 0.15591 0.84409 -0.04400
C 	C 	0.50000 0.13414 0.86586 0.07900
C 	C 	0.50000 0.19544 0.80456 -0.00700
C 	C 	0.50000 0.93154 0.93154 0.42400
C 	C 	0.50000 0.90829 0.90829 -0.09700
C 	C 	0.50000 0.84409 0.84409 -0.04400
C 	C 	0.50000 0.86586 0.86586 0.07900
C 	C 	0.50000 0.80456 0.80456 -0.00700
C 	C 	0.50000 0.93154 0.06846 0.42400
C 	C 	0.50000 0.90829 0.09171 -0.09800
C 	C 	0.50000 0.84409 0.15591 -0.04400
C 	C 	0.50000 0.86586 0.13414 0.07900
C 	C 	0.50000 0.80456 0.19544 -0.00700
Zr	Zr	0.00000 0.50000 0.05373 3.21700
Zr	Zr	-0.00000 0.50000 0.94627 3.21700
Zr	Zr	0.05373 0.50000 -0.00000 3.21700
Zr	Zr	0.94627 0.50000 -0.00000 3.21700
Zr	Zr	0.00000 0.55373 -0.00000 3.21600
Zr	Zr	0.00000 0.44627 -0.00000 3.21600
O 	O 	0.97361 0.47361 0.02639 -1.25500
O 	O 	0.02639 0.52639 0.02639 -1.25800
O 	O 	0.02639 0.47361 0.97361 -1.25500
O 	O 	0.97361 0.52639 0.97361 -1.25200
O 	O 	0.97361 0.47361 0.97361 -1.25200
O 	O 	0.02639 0.52639 0.97361 -1.25500
O 	O 	0.97361 0.52639 0.02639 -1.25500
O 	O 	0.02639 0.47361 0.02639 -1.25800
O 	O 	0.04150 0.50000 0.07814 -0.60500
C 	C 	0.12169 0.50000 0.08104 0.03500
H 	H 	0.12680 0.50000 0.06140 0.03900
C 	C 	0.14193 0.50000 0.10424 -0.11000
H 	H 	0.16170 0.50000 0.09960 0.07600
C 	C 	0.22471 0.50000 0.18805 -0.00500
C 	C 	0.17930 0.50000 0.16800 0.00800
O 	O 	0.95850 0.50000 0.07814 -0.60300
C 	C 	0.87831 0.50000 0.08104 0.03500
H 	H 	0.87320 0.50000 0.06140 0.03900
C 	C 	0.85807 0.50000 0.10424 -0.11000
H 	H 	0.83830 0.50000 0.09960 0.07600
C 	C 	0.77529 0.50000 0.18805 -0.00400
C 	C 	0.82070 0.50000 0.16800 0.00600
O 	O 	0.95850 0.50000 0.92186 -0.60200
C 	C 	0.87831 0.50000 0.91896 0.03500
H 	H 	0.87320 0.50000 0.93860 0.04100
C 	C 	0.85807 0.50000 0.89576 -0.11000
H 	H 	0.83830 0.50000 0.90040 0.07700
C 	C 	0.77529 0.50000 0.81195 -0.00300
C 	C 	0.82070 0.50000 0.83200 0.00800
O 	O 	0.04150 0.50000 0.92186 -0.60500
C 	C 	0.12169 0.50000 0.91896 0.03500
H 	H 	0.12680 0.50000 0.93860 0.04000
C 	C 	0.14193 0.50000 0.89576 -0.11000
H 	H 	0.16170 0.50000 0.90040 0.07700
C 	C 	0.22471 0.50000 0.81195 -0.00400
C 	C 	0.17930 0.50000 0.83200 0.01000
O 	O 	0.07814 0.54150 -0.00000 -0.60600
C 	C 	0.08104 0.62169 -0.00000 0.03500
H 	H 	0.06140 0.62680 -0.00000 0.03900
C 	C 	0.10424 0.64193 -0.00000 -0.11100
H 	H 	0.09960 0.66170 -0.00000 0.07600
C 	C 	0.18805 0.72471 -0.00000 -0.00600
C 	C 	0.16800 0.67930 -0.00000 0.00700
O 	O 	0.07814 0.45850 -0.00000 -0.60600
C 	C 	0.08104 0.37831 -0.00000 0.03500
H 	H 	0.06140 0.37320 -0.00000 0.03800
C 	C 	0.10424 0.35807 -0.00000 -0.11100
H 	H 	0.09960 0.33830 -0.00000 0.07500
C 	C 	0.18805 0.27529 -0.00000 -0.00600
C 	C 	0.16800 0.32070 -0.00000 0.00700
O 	O 	0.92186 0.45850 -0.00000 -0.60600
C 	C 	0.91896 0.37831 -0.00000 0.03500
H 	H 	0.93860 0.37320 -0.00000 0.04000
C 	C 	0.89576 0.35807 -0.00000 -0.11000
H 	H 	0.90040 0.33830 -0.00000 0.07600
C 	C 	0.81195 0.27529 -0.00000 -0.00500
C 	C 	0.83200 0.32070 -0.00000 0.00900
O 	O 	0.92186 0.54150 -0.00000 -0.60600
C 	C 	0.91896 0.62169 -0.00000 0.03500
H 	H 	0.93860 0.62680 -0.00000 0.04000
C 	C 	0.89576 0.64193 -0.00000 -0.11000
H 	H 	0.90040 0.66170 -0.00000 0.07600
C 	C 	0.81195 0.72471 -0.00000 -0.00500
C 	C 	0.83200 0.67930 -0.00000 0.00900
O 	O 	-0.00000 0.57814 0.04150 -0.60600
C 	C 	-0.00000 0.58104 0.12169 0.03500
H 	H 	0.00000 0.56140 0.12680 0.03900
C 	C 	0.00000 0.60424 0.14193 -0.11100
H 	H 	0.00000 0.59960 0.16170 0.07600
C 	C 	0.00000 0.68805 0.22471 -0.00600
C 	C 	-0.00000 0.66800 0.17930 0.00700
O 	O 	0.00000 0.57814 0.95850 -0.60400
C 	C 	0.00000 0.58104 0.87831 0.03500
H 	H 	0.00000 0.56140 0.87320 0.03900
C 	C 	0.00000 0.60424 0.85807 -0.11000
H 	H 	-0.00000 0.59960 0.83830 0.07600
C 	C 	0.00000 0.68805 0.77529 -0.00500
C 	C 	0.00000 0.66800 0.82070 0.00600
O 	O 	0.00000 0.42186 0.95850 -0.60400
C 	C 	0.00000 0.41896 0.87831 0.03500
H 	H 	0.00000 0.43860 0.87320 0.03900
C 	C 	0.00000 0.39576 0.85807 -0.11000
H 	H 	0.00000 0.40040 0.83830 0.07600
C 	C 	0.00000 0.31195 0.77529 -0.00500
C 	C 	0.00000 0.33200 0.82070 0.00600
O 	O 	0.00000 0.42186 0.04150 -0.60600
C 	C 	0.00000 0.41896 0.12169 0.03500
H 	H 	0.00000 0.43860 0.12680 0.03900
C 	C 	0.00000 0.39576 0.14193 -0.11100
H 	H 	0.00000 0.40040 0.16170 0.07600
C 	C 	-0.00000 0.31195 0.22471 -0.00600
C 	C 	0.00000 0.33200 0.17930 0.00800
O 	O 	0.00000 0.54150 0.92186 -0.60600
C 	C 	0.00000 0.62169 0.91896 0.03500
H 	H 	0.00000 0.62680 0.93860 0.04000
C 	C 	0.00000 0.64193 0.89576 -0.11000
H 	H 	0.00000 0.66170 0.90040 0.07600
C 	C 	0.00000 0.72471 0.81195 -0.00500
C 	C 	0.00000 0.67930 0.83200 0.00900
O 	O 	-0.00000 0.45850 0.92186 -0.60600
C 	C 	0.00000 0.37831 0.91896 0.03500
H 	H 	0.00000 0.37320 0.93860 0.04000
C 	C 	0.00000 0.35807 0.89576 -0.11000
H 	H 	0.00000 0.33830 0.90040 0.07600
C 	C 	0.00000 0.27529 0.81195 -0.00500
C 	C 	-0.00000 0.32070 0.83200 0.00900
O 	O 	0.00000 0.45850 0.07814 -0.60600
C 	C 	0.00000 0.37831 0.08104 0.03500
H 	H 	0.00000 0.37320 0.06140 0.03800
C 	C 	0.00000 0.35807 0.10424 -0.11100
H 	H 	0.00000 0.33830 0.09960 0.07500
C 	C 	0.00000 0.27529 0.18805 -0.00600
C 	C 	0.00000 0.32070 0.16800 0.00700
O 	O 	0.00000 0.54150 0.07814 -0.60600
C 	C 	0.00000 0.62169 0.08104 0.03500
H 	H 	-0.00000 0.62680 0.06140 0.03900
C 	C 	0.00000 0.64193 0.10424 -0.11100
H 	H 	0.00000 0.66170 0.09960 0.07600
C 	C 	-0.00000 0.72471 0.18805 -0.00600
C 	C 	0.00000 0.67930 0.16800 0.00700
O 	O 	0.04150 0.57814 -0.00000 -0.60600
C 	C 	0.12169 0.58104 -0.00000 0.03500
H 	H 	0.12680 0.56140 -0.00000 0.03900
C 	C 	0.14193 0.60424 -0.00000 -0.11100
H 	H 	0.16170 0.59960 -0.00000 0.07600
C 	C 	0.22471 0.68805 -0.00000 -0.00600
C 	C 	0.17930 0.66800 -0.00000 0.00700
O 	O 	0.95850 0.57814 -0.00000 -0.60400
C 	C 	0.87831 0.58104 -0.00000 0.03500
H 	H 	0.87320 0.56140 -0.00000 0.03900
C 	C 	0.85807 0.60424 -0.00000 -0.11000
H 	H 	0.83830 0.59960 -0.00000 0.07600
C 	C 	0.77529 0.68805 -0.00000 -0.00500
C 	C 	0.82070 0.66800 -0.00000 0.00600
O 	O 	0.95850 0.42186 -0.00000 -0.60400
C 	C 	0.87831 0.41896 -0.00000 0.03500
H 	H 	0.87320 0.43860 -0.00000 0.03900
C 	C 	0.85807 0.39576 -0.00000 -0.11000
H 	H 	0.83830 0.40040 -0.00000 0.07600
C 	C 	0.77529 0.31195 -0.00000 -0.00500
C 	C 	0.82070 0.33200 -0.00000 0.00600
O 	O 	0.04150 0.42186 -0.00000 -0.60600
C 	C 	0.12169 0.41896 -0.00000 0.03500
H 	H 	0.12680 0.43860 -0.00000 0.03900
C 	C 	0.14193 0.39576 -0.00000 -0.11100
H 	H 	0.16170 0.40040 -0.00000 0.07600
C 	C 	0.22471 0.31195 -0.00000 -0.00600
C 	C 	0.17930 0.33200 -0.00000 0.00800
O 	O 	0.07814 0.50000 0.95850 -0.60300
C 	C 	0.08104 0.50000 0.87831 0.03500
H 	H 	0.06140 0.50000 0.87320 0.03900
C 	C 	0.10424 0.50000 0.85807 -0.11000
H 	H 	0.09960 0.50000 0.83830 0.07600
C 	C 	0.18805 0.50000 0.77529 -0.00400
C 	C 	0.16800 0.50000 0.82070 0.00600
O 	O 	0.07814 0.50000 0.04150 -0.60500
C 	C 	0.08104 0.50000 0.12169 0.03500
H 	H 	0.06140 0.50000 0.12680 0.03900
C 	C 	0.10424 0.50000 0.14193 -0.11000
H 	H 	0.09960 0.50000 0.16170 0.07600
C 	C 	0.18805 0.50000 0.22471 -0.00500
C 	C 	0.16800 0.50000 0.17930 0.00800
O 	O 	0.92186 0.50000 0.04150 -0.60500
C 	C 	0.91896 0.50000 0.12169 0.03500
H 	H 	0.93860 0.50000 0.12680 0.04000
C 	C 	0.89576 0.50000 0.14193 -0.11000
H 	H 	0.90040 0.50000 0.16170 0.07700
C 	C 	0.81195 0.50000 0.22471 -0.00400
C 	C 	0.83200 0.50000 0.17930 0.01000
O 	O 	0.92186 0.50000 0.95850 -0.60200
C 	C 	0.91896 0.50000 0.87831 0.03500
H 	H 	0.93860 0.50000 0.87320 0.04100
C 	C 	0.89576 0.50000 0.85807 -0.11000
H 	H 	0.90040 0.50000 0.83830 0.07700
C 	C 	0.81195 0.50000 0.77529 -0.00300
C 	C 	0.83200 0.50000 0.82070 0.00800
C 	C 	0.06846 0.50000 0.06846 0.42400
C 	C 	0.09171 0.50000 0.09171 -0.09900
C 	C 	0.15591 0.50000 0.15591 -0.04400
C 	C 	0.13414 0.50000 0.13414 0.07900
C 	C 	0.19544 0.50000 0.19544 -0.00700
C 	C 	0.93154 0.50000 0.06846 0.42400
C 	C 	0.90829 0.50000 0.09171 -0.09800
C 	C 	0.84409 0.50000 0.15591 -0.04400
C 	C 	0.86586 0.50000 0.13414 0.07900
C 	C 	0.80456 0.50000 0.19544 -0.00700
C 	C 	0.93154 0.50000 0.93154 0.42400
C 	C 	0.90829 0.50000 0.90829 -0.09700
C 	C 	0.84409 0.50000 0.84409 -0.04400
C 	C 	0.86586 0.50000 0.86586 0.07900
C 	C 	0.80456 0.50000 0.80456 -0.00700
C 	C 	0.06846 0.50000 0.93154 0.42400
C 	C 	0.09171 0.50000 0.90829 -0.09800
C 	C 	0.15591 0.50000 0.84409 -0.04400
C 	C 	0.13414 0.50000 0.86586 0.07900
C 	C 	0.19544 0.50000 0.80456 -0.00700
C 	C 	0.06846 0.56846 -0.00000 0.42400
C 	C 	0.09171 0.59171 -0.00000 -0.09900
C 	C 	0.15591 0.65591 -0.00000 -0.04500
C 	C 	0.13414 0.63414 -0.00000 0.07800
C 	C 	0.19544 0.69544 -0.00000 -0.00700
C 	C 	0.06846 0.43154 -0.00000 0.42400
C 	C 	0.09171 0.40829 -0.00000 -0.09900
C 	C 	0.15591 0.34409 -0.00000 -0.04500
C 	C 	0.13414 0.36586 -0.00000 0.07800
C 	C 	0.19544 0.30456 -0.00000 -0.00600
C 	C 	0.93154 0.43154 -0.00000 0.42400
C 	C 	0.90829 0.40829 -0.00000 -0.09800
C 	C 	0.84409 0.34409 -0.00000 -0.04400
C 	C 	0.86586 0.36586 -0.00000 0.07800
C 	C 	0.80456 0.30456 -0.00000 -0.00700
C 	C 	0.93154 0.56846 -0.00000 0.42400
C 	C 	0.90829 0.59171 -0.00000 -0.09800
C 	C 	0.84409 0.65591 -0.00000 -0.04400
C 	C 	0.86586 0.63414 -0.00000 0.07900
C 	C 	0.80456 0.69544 -0.00000 -0.00700
C 	C 	0.00000 0.56846 0.06846 0.42400
C 	C 	0.00000 0.59171 0.09171 -0.09900
C 	C 	-0.00000 0.65591 0.15591 -0.04500
C 	C 	0.00000 0.63414 0.13414 0.07800
C 	C 	0.00000 0.69544 0.19544 -0.00700
C 	C 	-0.00000 0.56846 0.93154 0.42400
C 	C 	-0.00000 0.59171 0.90829 -0.09800
C 	C 	-0.00000 0.65591 0.84409 -0.04400
C 	C 	0.00000 0.63414 0.86586 0.07900
C 	C 	-0.00000 0.69544 0.80456 -0.00700
C 	C 	-0.00000 0.43154 0.93154 0.42400
C 	C 	-0.00000 0.40829 0.90829 -0.09800
C 	C 	0.00000 0.34409 0.84409 -0.04400
C 	C 	0.00000 0.36586 0.86586 0.07800
C 	C 	0.00000 0.30456 0.80456 -0.00700
C 	C 	0.00000 0.43154 0.06846 0.42400
C 	C 	0.00000 0.40829 0.09171 -0.09900
C 	C 	0.00000 0.34409 0.15591 -0.04500
C 	C 	0.00000 0.36586 0.13414 0.07800
C 	C 	0.00000 0.30456 0.19544 -0.00600
Zr	Zr	0.00000 0.00000 0.55373 3.21600
Zr	Zr	0.00000 0.00000 0.44627 3.21600
Zr	Zr	0.05373 0.00000 0.50000 3.21700
Zr	Zr	0.94627 0.00000 0.50000 3.21700
Zr	Zr	0.00000 0.05373 0.50000 3.21700
Zr	Zr	-0.00000 0.94627 0.50000 3.21700
O 	O 	0.97361 0.97361 0.52639 -1.25200
O 	O 	0.02639 0.02639 0.52639 -1.25800
O 	O 	0.02639 0.97361 0.47361 -1.25500
O 	O 	0.97361 0.02639 0.47361 -1.25500
O 	O 	0.97361 0.97361 0.47361 -1.25200
O 	O 	0.02639 0.02639 0.47361 -1.25800
O 	O 	0.97361 0.02639 0.52639 -1.25500
O 	O 	0.02639 0.97361 0.52639 -1.25500
O 	O 	0.04150 0.00000 0.57814 -0.60600
C 	C 	0.12169 0.00000 0.58104 0.03500
H 	H 	0.12680 0.00000 0.56140 0.03900
C 	C 	0.14193 0.00000 0.60424 -0.11100
H 	H 	0.16170 0.00000 0.59960 0.07600
C 	C 	0.22471 0.00000 0.68805 -0.00600
C 	C 	0.17930 0.00000 0.66800 0.00700
O 	O 	0.95850 0.00000 0.57814 -0.60400
C 	C 	0.87831 0.00000 0.58104 0.03500
H 	H 	0.87320 0.00000 0.56140 0.03900
C 	C 	0.85807 0.00000 0.60424 -0.11000
H 	H 	0.83830 0.00000 0.59960 0.07600
C 	C 	0.77529 0.00000 0.68805 -0.00500
C 	C 	0.82070 0.00000 0.66800 0.00600
O 	O 	0.95850 0.00000 0.42186 -0.60400
C 	C 	0.87831 0.00000 0.41896 0.03500
H 	H 	0.87320 0.00000 0.43860 0.03900
C 	C 	0.85807 0.00000 0.39576 -0.11000
H 	H 	0.83830 0.00000 0.40040 0.07600
C 	C 	0.77529 0.00000 0.31195 -0.00500
C 	C 	0.82070 0.00000 0.33200 0.00600
O 	O 	0.04150 0.00000 0.42186 -0.60600
C 	C 	0.12169 0.00000 0.41896 0.03500
H 	H 	0.12680 0.00000 0.43860 0.03900
C 	C 	0.14193 0.00000 0.39576 -0.11100
H 	H 	0.16170 0.00000 0.40040 0.07600
C 	C 	0.22471 0.00000 0.31195 -0.00600
C 	C 	0.17930 0.00000 0.33200 0.00800
O 	O 	0.07814 0.04150 0.50000 -0.60500
C 	C 	0.08104 0.12169 0.50000 0.03500
H 	H 	0.06140 0.12680 0.50000 0.03900
C 	C 	0.10424 0.14193 0.50000 -0.11000
H 	H 	0.09960 0.16170 0.50000 0.07600
C 	C 	0.18805 0.22471 0.50000 -0.00500
C 	C 	0.16800 0.17930 0.50000 0.00800
O 	O 	0.07814 0.95850 0.50000 -0.60300
C 	C 	0.08104 0.87831 0.50000 0.03500
H 	H 	0.06140 0.87320 0.50000 0.03900
C 	C 	0.10424 0.85807 0.50000 -0.11000
H 	H 	0.09960 0.83830 0.50000 0.07600
C 	C 	0.18805 0.77529 0.50000 -0.00400
C 	C 	0.16800 0.82070 0.50000 0.00600
O 	O 	0.92186 0.95850 0.50000 -0.60200
C 	C 	0.91896 0.87831 0.50000 0.03500
H 	H 	0.93860 0.87320 0.50000 0.04100
C 	C 	0.89576 0.85807 0.50000 -0.11000
H 	H 	0.90040 0.83830 0.50000 0.07700
C 	C 	0.81195 0.77529 0.50000 -0.00300
C 	C 	0.83200 0.82070 0.50000 0.00800
O 	O 	0.92186 0.04150 0.50000 -0.60500
C 	C 	0.91896 0.12169 0.50000 0.03500
H 	H 	0.93860 0.12680 0.50000 0.04000
C 	C 	0.89576 0.14193 0.50000 -0.11000
H 	H 	0.90040 0.16170 0.50000 0.07700
C 	C 	0.81195 0.22471 0.50000 -0.00400
C 	C 	0.83200 0.17930 0.50000 0.01000
O 	O 	0.00000 0.07814 0.54150 -0.60600
C 	C 	0.00000 0.08104 0.62169 0.03500
H 	H 	-0.00000 0.06140 0.62680 0.03900
C 	C 	0.00000 0.10424 0.64193 -0.11100
H 	H 	0.00000 0.09960 0.66170 0.07600
C 	C 	-0.00000 0.18805 0.72471 -0.00600
C 	C 	0.00000 0.16800 0.67930 0.00700
O 	O 	0.00000 0.07814 0.45850 -0.60600
C 	C 	0.00000 0.08104 0.37831 0.03500
H 	H 	0.00000 0.06140 0.37320 0.03800
C 	C 	0.00000 0.10424 0.35807 -0.11100
H 	H 	0.00000 0.09960 0.33830 0.07500
C 	C 	0.00000 0.18805 0.27529 -0.00600
C 	C 	0.00000 0.16800 0.32070 0.00700
O 	O 	0.00000 0.92186 0.45850 -0.60600
C 	C 	0.00000 0.91896 0.37831 0.03500
H 	H 	0.00000 0.93860 0.37320 0.04000
C 	C 	0.00000 0.89576 0.35807 -0.11000
H 	H 	0.00000 0.90040 0.33830 0.07600
C 	C 	0.00000 0.81195 0.27529 -0.00500
C 	C 	-0.00000 0.83200 0.32070 0.00900
O 	O 	0.00000 0.92186 0.54150 -0.60600
C 	C 	0.00000 0.91896 0.62169 0.03500
H 	H 	0.00000 0.93860 0.62680 0.04000
C 	C 	0.00000 0.89576 0.64193 -0.11000
H 	H 	0.00000 0.90040 0.66170 0.07600
C 	C 	0.00000 0.81195 0.72471 -0.00500
C 	C 	0.00000 0.83200 0.67930 0.00900
O 	O 	0.00000 0.04150 0.42186 -0.60600
C 	C 	0.00000 0.12169 0.41896 0.03500
H 	H 	0.00000 0.12680 0.43860 0.03900
C 	C 	0.00000 0.14193 0.39576 -0.11100
H 	H 	0.00000 0.16170 0.40040 0.07600
C 	C 	-0.00000 0.22471 0.31195 -0.00600
C 	C 	0.00000 0.17930 0.33200 0.00800
O 	O 	0.00000 0.95850 0.42186 -0.60400
C 	C 	0.00000 0.87831 0.41896 0.03500
H 	H 	0.00000 0.87320 0.43860 0.03900
C 	C 	0.00000 0.85807 0.39576 -0.11000
H 	H 	0.00000 0.83830 0.40040 0.07600
C 	C 	0.00000 0.77529 0.31195 -0.00500
C 	C 	0.00000 0.82070 0.33200 0.00600
O 	O 	0.00000 0.95850 0.57814 -0.60400
C 	C 	0.00000 0.87831 0.58104 0.03500
H 	H 	0.00000 0.87320 0.56140 0.03900
C 	C 	0.00000 0.85807 0.60424 -0.11000
H 	H 	-0.00000 0.83830 0.59960 0.07600
C 	C 	0.00000 0.77529 0.68805 -0.00500
C 	C 	0.00000 0.82070 0.66800 0.00600
O 	O 	-0.00000 0.04150 0.57814 -0.60600
C 	C 	-0.00000 0.12169 0.58104 0.03500
H 	H 	0.00000 0.12680 0.56140 0.03900
C 	C 	0.00000 0.14193 0.60424 -0.11100
H 	H 	0.00000 0.16170 0.59960 0.07600
C 	C 	0.00000 0.22471 0.68805 -0.00600
C 	C 	-0.00000 0.17930 0.66800 0.00700
O 	O 	0.04150 0.07814 0.50000 -0.60500
C 	C 	0.12169 0.08104 0.50000 0.03500
H 	H 	0.12680 0.06140 0.50000 0.03900
C 	C 	0.14193 0.10424 0.50000 -0.11000
H 	H 	0.16170 0.09960 0.50000 0.07600
C 	C 	0.22471 0.18805 0.50000 -0.00500
C 	C 	0.17930 0.16800 0.50000 0.00800
O 	O 	0.95850 0.07814 0.50000 -0.60300
C 	C 	0.87831 0.08104 0.50000 0.03500
H 	H 	0.87320 0.06140 0.50000 0.03900
C 	C 	0.85807 0.10424 0.50000 -0.11000
H 	H 	0.83830 0.09960 0.50000 0.07600
C 	C 	0.77529 0.18805 0.50000 -0.00400
C 	C 	0.82070 0.16800 0.50000 0.00600
O 	O 	0.95850 0.92186 0.50000 -0.60200
C 	C 	0.87831 0.91896 0.50000 0.03500
H 	H 	0.87320 0.93860 0.50000 0.04100
C 	C 	0.85807 0.89576 0.50000 -0.11000
H 	H 	0.83830 0.90040 0.50000 0.07700
C 	C 	0.77529 0.81195 0.50000 -0.00300
C 	C 	0.82070 0.83200 0.50000 0.00800
O 	O 	0.04150 0.92186 0.50000 -0.60500
C 	C 	0.12169 0.91896 0.50000 0.03500
H 	H 	0.12680 0.93860 0.50000 0.04000
C 	C 	0.14193 0.89576 0.50000 -0.11000
H 	H 	0.16170 0.90040 0.50000 0.07700
C 	C 	0.22471 0.81195 0.50000 -0.00400
C 	C 	0.17930 0.83200 0.50000 0.01000
O 	O 	0.07814 0.00000 0.45850 -0.60600
C 	C 	0.08104 0.00000 0.37831 0.03500
H 	H 	0.06140 0.00000 0.37320 0.03800
C 	C 	0.10424 -0.00000 0.35807 -0.11100
H 	H 	0.09960 0.00000 0.33830 0.07500
C 	C 	0.18805 0.00000 0.27529 -0.00600
C 	C 	0.16800 0.00000 0.32070 0.00700
O 	O 	0.07814 0.00000 0.54150 -0.60600
C 	C 	0.08104 0.00000 0.62169 0.03500
H 	H 	0.06140 -0.00000 0.62680 0.03900
C 	C 	0.10424 0.00000 0.64193 -0.11100
H 	H 	0.09960 0.00000 0.66170 0.07600
C 	C 	0.18805 -0.00000 0.72471 -0.00600
C 	C 	0.16800 0.00000 0.67930 0.00700
O 	O 	0.92186 0.00000 0.54150 -0.60600
C 	C 	0.91896 0.00000 0.62169 0.03500
H 	H 	0.93860 -0.00000 0.62680 0.04000
C 	C 	0.89576 0.00000 0.64193 -0.11000
H 	H 	0.90040 0.00000 0.66170 0.07600
C 	C 	0.81195 -0.00000 0.72471 -0.00500
C 	C 	0.83200 0.00000 0.67930 0.00900
O 	O 	0.92186 0.00000 0.45850 -0.60600
C 	C 	0.91896 0.00000 0.37831 0.03500
H 	H 	0.93860 0.00000 0.37320 0.04000
C 	C 	0.89576 -0.00000 0.35807 -0.11000
H 	H 	0.90040 0.00000 0.33830 0.07600
C 	C 	0.81195 0.00000 0.27529 -0.00500
C 	C 	0.83200 0.00000 0.32070 0.00900
C 	C 	0.06846 0.00000 0.56846 0.42400
C 	C 	0.09171 0.00000 0.59171 -0.09900
C 	C 	0.15591 0.00000 0.65591 -0.04500
C 	C 	0.13414 0.00000 0.63414 0.07800
C 	C 	0.19544 0.00000 0.69544 -0.00700
C 	C 	0.93154 0.00000 0.56846 0.42400
C 	C 	0.90829 0.00000 0.59171 -0.09800
C 	C 	0.84409 0.00000 0.65591 -0.04400
C 	C 	0.86586 0.00000 0.63414 0.07900
C 	C 	0.80456 0.00000 0.69544 -0.00700
C 	C 	0.93154 0.00000 0.43154 0.42400
C 	C 	0.90829 0.00000 0.40829 -0.09800
C 	C 	0.84409 0.00000 0.34409 -0.04400
C 	C 	0.86586 0.00000 0.36586 0.07800
C 	C 	0.80456 0.00000 0.30456 -0.00700
C 	C 	0.06846 0.00000 0.43154 0.42400
C 	C 	0.09171 0.00000 0.40829 -0.09900
C 	C 	0.15591 0.00000 0.34409 -0.04500
C 	C 	0.13414 0.00000 0.36586 0.07800
C 	C 	0.19544 0.00000 0.30456 -0.00600
C 	C 	0.06846 0.06846 0.50000 0.42400
C 	C 	0.09171 0.09171 0.50000 -0.09900
C 	C 	0.15591 0.15591 0.50000 -0.04400
C 	C 	0.13414 0.13414 0.50000 0.07900
C 	C 	0.19544 0.19544 0.50000 -0.00700
C 	C 	0.06846 0.93154 0.50000 0.42400
C 	C 	0.09171 0.90829 0.50000 -0.09800
C 	C 	0.15591 0.84409 0.50000 -0.04400
C 	C 	0.13414 0.86586 0.50000 0.07900
C 	C 	0.19544 0.80456 0.50000 -0.00700
C 	C 	0.93154 0.93154 0.50000 0.42400
C 	C 	0.90829 0.90829 0.50000 -0.09700
C 	C 	0.84409 0.84409 0.50000 -0.04400
C 	C 	0.86586 0.86586 0.50000 0.07900
C 	C 	0.80456 0.80456 0.50000 -0.00700
C 	C 	0.93154 0.06846 0.50000 0.42400
C 	C 	0.90829 0.09171 0.50000 -0.09800
C 	C 	0.84409 0.15591 0.50000 -0.04400
C 	C 	0.86586 0.13414 0.50000 0.07900
C 	C 	0.80456 0.19544 0.50000 -0.00700
C 	C 	0.00000 0.06846 0.56846 0.42400
C 	C 	0.00000 0.09171 0.59171 -0.09900
C 	C 	-0.00000 0.15591 0.65591 -0.04500
C 	C 	0.00000 0.13414 0.63414 0.07800
C 	C 	0.00000 0.19544 0.69544 -0.00700
C 	C 	0.00000 0.06846 0.43154 0.42400
C 	C 	0.00000 0.09171 0.40829 -0.09900
C 	C 	0.00000 0.15591 0.34409 -0.04500
C 	C 	0.00000 0.13414 0.36586 0.07800
C 	C 	0.00000 0.19544 0.30456 -0.00600
C 	C 	-0.00000 0.93154 0.43154 0.42400
C 	C 	-0.00000 0.90829 0.40829 -0.09800
C 	C 	0.00000 0.84409 0.34409 -0.04400
C 	C 	0.00000 0.86586 0.36586 0.07800
C 	C 	0.00000 0.80456 0.30456 -0.00700
C 	C 	-0.00000 0.93154 0.56846 0.42400
C 	C 	-0.00000 0.90829 0.59171 -0.09800
C 	C 	-0.00000 0.84409 0.65591 -0.04400
C 	C 	0.00000 0.86586 0.63414 0.07900
C 	C 	0.00000 0.80456 0.69544 -0.00700
