data_crystal

_cell_length_a 19.30420
_cell_length_b 19.30420
_cell_length_c 19.30420
_cell_angle_alpha 90.00000
_cell_angle_beta  90.00000
_cell_angle_gamma 90.00000

_symmetry_space_group_name_	'P 1'
_symmetry_space_group_name_H-M	'P 1'

loop_
_symmetry_equiv_pos_as_xyz
  x,y,z

loop_
_atom_site_label
_atom_site_type_symbol
_atom_site_fract_x
_atom_site_fract_y
_atom_site_fract_z
_atom_site_charge
C 	C 	0.46460 0.29730 0.21080 0.10000
H 	H 	0.46810 0.34310 0.19640 -0.00200
C 	C 	0.45290 0.24640 0.16190 -0.24100
H 	H 	0.45060 0.25840 0.11530 0.11400
C 	C 	0.41100 0.07580 0.13120 0.13100
H 	H 	0.37020 0.07060 0.16000 -0.00700
H 	H 	0.45080 0.05640 0.15490 0.02200
C 	C 	0.41070 0.03610 0.06420 0.05300
O 	O 	0.43240 0.14450 0.11750 -0.20900
C 	C 	0.53540 0.70270 0.21080 0.10200
H 	H 	0.53190 0.65690 0.19640 -0.00300
C 	C 	0.54710 0.75360 0.16190 -0.24500
H 	H 	0.54940 0.74160 0.11530 0.11700
C 	C 	0.58900 0.92420 0.13120 0.14200
H 	H 	0.62980 0.92940 0.16000 -0.01700
H 	H 	0.54920 0.94360 0.15490 0.01300
C 	C 	0.58930 0.96390 0.06420 -0.00500
O 	O 	0.56760 0.85550 0.11750 -0.24200
C 	C 	0.53540 0.29730 0.78920 0.10300
H 	H 	0.53190 0.34310 0.80360 -0.00400
C 	C 	0.54710 0.24640 0.83810 -0.24700
H 	H 	0.54940 0.25840 0.88470 0.11300
C 	C 	0.58900 0.07580 0.86880 0.17300
H 	H 	0.62980 0.07060 0.84000 -0.01900
H 	H 	0.54920 0.05640 0.84510 0.01700
C 	C 	0.58930 0.03610 0.93580 0.05100
O 	O 	0.56760 0.14450 0.88250 -0.19500
C 	C 	0.46460 0.70270 0.78920 0.10500
H 	H 	0.46810 0.65690 0.80360 -0.00500
C 	C 	0.45290 0.75360 0.83810 -0.25100
H 	H 	0.45060 0.74160 0.88470 0.11600
C 	C 	0.41100 0.92420 0.86880 0.18400
H 	H 	0.37020 0.92940 0.84000 -0.02800
H 	H 	0.45080 0.94360 0.84510 0.00800
C 	C 	0.41070 0.96390 0.93580 -0.00500
O 	O 	0.43240 0.85550 0.88250 -0.22700
C 	C 	0.21080 0.46460 0.29730 0.10100
H 	H 	0.19640 0.46810 0.34310 -0.00100
C 	C 	0.16190 0.45290 0.24640 -0.24000
H 	H 	0.11530 0.45060 0.25840 0.11500
C 	C 	0.13120 0.41100 0.07580 0.13200
H 	H 	0.16000 0.37020 0.07060 -0.00600
H 	H 	0.15490 0.45080 0.05640 0.02300
C 	C 	0.06420 0.41070 0.03610 0.05400
O 	O 	0.11750 0.43240 0.14450 -0.20800
C 	C 	0.21080 0.53540 0.70270 0.10300
H 	H 	0.19640 0.53190 0.65690 -0.00200
C 	C 	0.16190 0.54710 0.75360 -0.24400
H 	H 	0.11530 0.54940 0.74160 0.11800
C 	C 	0.13120 0.58900 0.92420 0.14300
H 	H 	0.16000 0.62980 0.92940 -0.01600
H 	H 	0.15490 0.54920 0.94360 0.01400
C 	C 	0.06420 0.58930 0.96390 -0.00400
O 	O 	0.11750 0.56760 0.85550 -0.24100
C 	C 	0.78920 0.53540 0.29730 0.10400
H 	H 	0.80360 0.53190 0.34310 -0.00300
C 	C 	0.83810 0.54710 0.24640 -0.24600
H 	H 	0.88470 0.54940 0.25840 0.11400
C 	C 	0.86880 0.58900 0.07580 0.17400
H 	H 	0.84000 0.62980 0.07060 -0.01800
H 	H 	0.84510 0.54920 0.05640 0.01800
C 	C 	0.93580 0.58930 0.03610 0.05200
O 	O 	0.88250 0.56760 0.14450 -0.19400
C 	C 	0.78920 0.46460 0.70270 0.10600
H 	H 	0.80360 0.46810 0.65690 -0.00400
C 	C 	0.83810 0.45290 0.75360 -0.25000
H 	H 	0.88470 0.45060 0.74160 0.11700
C 	C 	0.86880 0.41100 0.92420 0.18500
H 	H 	0.84000 0.37020 0.92940 -0.02700
H 	H 	0.84510 0.45080 0.94360 0.00800
C 	C 	0.93580 0.41070 0.96390 -0.00500
O 	O 	0.88250 0.43240 0.85550 -0.22700
C 	C 	0.29730 0.21080 0.46460 0.10100
H 	H 	0.34310 0.19640 0.46810 -0.00100
C 	C 	0.24640 0.16190 0.45290 -0.24000
H 	H 	0.25840 0.11530 0.45060 0.11500
C 	C 	0.07580 0.13120 0.41100 0.13200
H 	H 	0.07060 0.16000 0.37020 -0.00600
H 	H 	0.05640 0.15490 0.45080 0.02300
C 	C 	0.03610 0.06420 0.41070 0.05400
O 	O 	0.14450 0.11750 0.43240 -0.20800
C 	C 	0.70270 0.21080 0.53540 0.10300
H 	H 	0.65690 0.19640 0.53190 -0.00200
C 	C 	0.75360 0.16190 0.54710 -0.24400
H 	H 	0.74160 0.11530 0.54940 0.11800
C 	C 	0.92420 0.13120 0.58900 0.14300
H 	H 	0.92940 0.16000 0.62980 -0.01600
H 	H 	0.94360 0.15490 0.54920 0.01400
C 	C 	0.96390 0.06420 0.58930 -0.00400
O 	O 	0.85550 0.11750 0.56760 -0.24100
C 	C 	0.29730 0.78920 0.53540 0.10400
H 	H 	0.34310 0.80360 0.53190 -0.00300
C 	C 	0.24640 0.83810 0.54710 -0.24600
H 	H 	0.25840 0.88470 0.54940 0.11400
C 	C 	0.07580 0.86880 0.58900 0.17400
H 	H 	0.07060 0.84000 0.62980 -0.01800
H 	H 	0.05640 0.84510 0.54920 0.01800
C 	C 	0.03610 0.93580 0.58930 0.05200
O 	O 	0.14450 0.88250 0.56760 -0.19400
C 	C 	0.70270 0.78920 0.46460 0.10600
H 	H 	0.65690 0.80360 0.46810 -0.00400
C 	C 	0.75360 0.83810 0.45290 -0.25000
H 	H 	0.74160 0.88470 0.45060 0.11700
C 	C 	0.92420 0.86880 0.41100 0.18500
H 	H 	0.92940 0.84000 0.37020 -0.02700
H 	H 	0.94360 0.84510 0.45080 0.00800
C 	C 	0.96390 0.93580 0.41070 -0.00500
O 	O 	0.85550 0.88250 0.43240 -0.22700
C 	C 	0.29730 0.46460 0.78920 0.10400
H 	H 	0.34310 0.46810 0.80360 -0.00400
C 	C 	0.24640 0.45290 0.83810 -0.24600
H 	H 	0.25840 0.45060 0.88470 0.11400
C 	C 	0.07580 0.41100 0.86880 0.17400
H 	H 	0.07060 0.37020 0.84000 -0.01800
H 	H 	0.05640 0.45080 0.84510 0.01800
C 	C 	0.03610 0.41070 0.93580 0.05200
O 	O 	0.14450 0.43240 0.88250 -0.19400
C 	C 	0.70270 0.53540 0.78920 0.10600
H 	H 	0.65690 0.53190 0.80360 -0.00400
C 	C 	0.75360 0.54710 0.83810 -0.25000
H 	H 	0.74160 0.54940 0.88470 0.11700
C 	C 	0.92420 0.58900 0.86880 0.18500
H 	H 	0.92940 0.62980 0.84000 -0.02700
H 	H 	0.94360 0.54920 0.84510 0.00800
C 	C 	0.96390 0.58930 0.93580 -0.00500
O 	O 	0.85550 0.56760 0.88250 -0.22700
C 	C 	0.29730 0.53540 0.21080 0.10100
H 	H 	0.34310 0.53190 0.19640 -0.00100
C 	C 	0.24640 0.54710 0.16190 -0.24000
H 	H 	0.25840 0.54940 0.11530 0.11500
C 	C 	0.07580 0.58900 0.13120 0.13300
H 	H 	0.07060 0.62980 0.16000 -0.00600
H 	H 	0.05640 0.54920 0.15490 0.02300
C 	C 	0.03610 0.58930 0.06420 0.05300
O 	O 	0.14450 0.56760 0.11750 -0.20800
C 	C 	0.70270 0.46460 0.21080 0.10300
H 	H 	0.65690 0.46810 0.19640 -0.00200
C 	C 	0.75360 0.45290 0.16190 -0.24400
H 	H 	0.74160 0.45060 0.11530 0.11800
C 	C 	0.92420 0.41100 0.13120 0.14300
H 	H 	0.92940 0.37020 0.16000 -0.01500
H 	H 	0.94360 0.45080 0.15490 0.01400
C 	C 	0.96390 0.41070 0.06420 -0.00400
O 	O 	0.85550 0.43240 0.11750 -0.24100
C 	C 	0.46460 0.21080 0.70270 0.10300
H 	H 	0.46810 0.19640 0.65690 -0.00200
C 	C 	0.45290 0.16190 0.75360 -0.24400
H 	H 	0.45060 0.11530 0.74160 0.11800
C 	C 	0.41100 0.13120 0.92420 0.14300
H 	H 	0.37020 0.16000 0.92940 -0.01500
H 	H 	0.45080 0.15490 0.94360 0.01400
C 	C 	0.41070 0.06420 0.96390 -0.00400
O 	O 	0.43240 0.11750 0.85550 -0.24100
C 	C 	0.53540 0.21080 0.29730 0.10100
H 	H 	0.53190 0.19640 0.34310 -0.00100
C 	C 	0.54710 0.16190 0.24640 -0.24000
H 	H 	0.54940 0.11530 0.25840 0.11500
C 	C 	0.58900 0.13120 0.07580 0.13300
H 	H 	0.62980 0.16000 0.07060 -0.00600
H 	H 	0.54920 0.15490 0.05640 0.02300
C 	C 	0.58930 0.06420 0.03610 0.05300
O 	O 	0.56760 0.11750 0.14450 -0.20800
C 	C 	0.53540 0.78920 0.70270 0.10600
H 	H 	0.53190 0.80360 0.65690 -0.00400
C 	C 	0.54710 0.83810 0.75360 -0.25000
H 	H 	0.54940 0.88470 0.74160 0.11700
C 	C 	0.58900 0.86880 0.92420 0.18500
H 	H 	0.62980 0.84000 0.92940 -0.02700
H 	H 	0.54920 0.84510 0.94360 0.00800
C 	C 	0.58930 0.93580 0.96390 -0.00500
O 	O 	0.56760 0.88250 0.85550 -0.22700
C 	C 	0.46460 0.78920 0.29730 0.10400
H 	H 	0.46810 0.80360 0.34310 -0.00400
C 	C 	0.45290 0.83810 0.24640 -0.24600
H 	H 	0.45060 0.88470 0.25840 0.11400
C 	C 	0.41100 0.86880 0.07580 0.17400
H 	H 	0.37020 0.84000 0.07060 -0.01800
H 	H 	0.45080 0.84510 0.05640 0.01800
C 	C 	0.41070 0.93580 0.03610 0.05200
O 	O 	0.43240 0.88250 0.14450 -0.19400
C 	C 	0.21080 0.29730 0.53540 0.10100
H 	H 	0.19640 0.34310 0.53190 -0.00100
C 	C 	0.16190 0.24640 0.54710 -0.24000
H 	H 	0.11530 0.25840 0.54940 0.11500
C 	C 	0.13120 0.07580 0.58900 0.13300
H 	H 	0.16000 0.07060 0.62980 -0.00600
H 	H 	0.15490 0.05640 0.54920 0.02300
C 	C 	0.06420 0.03610 0.58930 0.05300
O 	O 	0.11750 0.14450 0.56760 -0.20800
C 	C 	0.21080 0.70270 0.46460 0.10300
H 	H 	0.19640 0.65690 0.46810 -0.00200
C 	C 	0.16190 0.75360 0.45290 -0.24400
H 	H 	0.11530 0.74160 0.45060 0.11800
C 	C 	0.13120 0.92420 0.41100 0.14300
H 	H 	0.16000 0.92940 0.37020 -0.01500
H 	H 	0.15490 0.94360 0.45080 0.01400
C 	C 	0.06420 0.96390 0.41070 -0.00400
O 	O 	0.11750 0.85550 0.43240 -0.24100
C 	C 	0.78920 0.29730 0.46460 0.10400
H 	H 	0.80360 0.34310 0.46810 -0.00400
C 	C 	0.83810 0.24640 0.45290 -0.24600
H 	H 	0.88470 0.25840 0.45060 0.11400
C 	C 	0.86880 0.07580 0.41100 0.17400
H 	H 	0.84000 0.07060 0.37020 -0.01800
H 	H 	0.84510 0.05640 0.45080 0.01800
C 	C 	0.93580 0.03610 0.41070 0.05200
O 	O 	0.88250 0.14450 0.43240 -0.19400
C 	C 	0.78920 0.70270 0.53540 0.10600
H 	H 	0.80360 0.65690 0.53190 -0.00400
C 	C 	0.83810 0.75360 0.54710 -0.25000
H 	H 	0.88470 0.74160 0.54940 0.11700
C 	C 	0.86880 0.92420 0.58900 0.18500
H 	H 	0.84000 0.92940 0.62980 -0.02700
H 	H 	0.84510 0.94360 0.54920 0.00800
C 	C 	0.93580 0.96390 0.58930 -0.00500
O 	O 	0.88250 0.85550 0.56760 -0.22700
C 	C 	0.53540 0.70270 0.78920 0.10600
H 	H 	0.53190 0.65690 0.80360 -0.00400
C 	C 	0.54710 0.75360 0.83810 -0.25000
H 	H 	0.54940 0.74160 0.88470 0.11700
C 	C 	0.58900 0.92420 0.86880 0.18500
H 	H 	0.62980 0.92940 0.84000 -0.02700
H 	H 	0.54920 0.94360 0.84510 0.00800
C 	C 	0.58930 0.96390 0.93580 -0.00500
O 	O 	0.56760 0.85550 0.88250 -0.22700
C 	C 	0.46460 0.29730 0.78920 0.10400
H 	H 	0.46810 0.34310 0.80360 -0.00400
C 	C 	0.45290 0.24640 0.83810 -0.24600
H 	H 	0.45060 0.25840 0.88470 0.11400
C 	C 	0.41100 0.07580 0.86880 0.17400
H 	H 	0.37020 0.07060 0.84000 -0.01800
H 	H 	0.45080 0.05640 0.84510 0.01800
C 	C 	0.41070 0.03610 0.93580 0.05200
O 	O 	0.43240 0.14450 0.88250 -0.19400
C 	C 	0.46460 0.70270 0.21080 0.10300
H 	H 	0.46810 0.65690 0.19640 -0.00200
C 	C 	0.45290 0.75360 0.16190 -0.24400
H 	H 	0.45060 0.74160 0.11530 0.11800
C 	C 	0.41100 0.92420 0.13120 0.14300
H 	H 	0.37020 0.92940 0.16000 -0.01500
H 	H 	0.45080 0.94360 0.15490 0.01400
C 	C 	0.41070 0.96390 0.06420 -0.00400
O 	O 	0.43240 0.85550 0.11750 -0.24100
C 	C 	0.53540 0.29730 0.21080 0.10100
H 	H 	0.53190 0.34310 0.19640 -0.00100
C 	C 	0.54710 0.24640 0.16190 -0.24000
H 	H 	0.54940 0.25840 0.11530 0.11500
C 	C 	0.58900 0.07580 0.13120 0.13300
H 	H 	0.62980 0.07060 0.16000 -0.00600
H 	H 	0.54920 0.05640 0.15490 0.02300
C 	C 	0.58930 0.03610 0.06420 0.05300
O 	O 	0.56760 0.14450 0.11750 -0.20800
C 	C 	0.78920 0.53540 0.70270 0.10600
H 	H 	0.80360 0.53190 0.65690 -0.00400
C 	C 	0.83810 0.54710 0.75360 -0.25000
H 	H 	0.88470 0.54940 0.74160 0.11700
C 	C 	0.86880 0.58900 0.92420 0.18500
H 	H 	0.84000 0.62980 0.92940 -0.02700
H 	H 	0.84510 0.54920 0.94360 0.00800
C 	C 	0.93580 0.58930 0.96390 -0.00500
O 	O 	0.88250 0.56760 0.85550 -0.22700
C 	C 	0.78920 0.46460 0.29730 0.10400
H 	H 	0.80360 0.46810 0.34310 -0.00400
C 	C 	0.83810 0.45290 0.24640 -0.24600
H 	H 	0.88470 0.45060 0.25840 0.11400
C 	C 	0.86880 0.41100 0.07580 0.17400
H 	H 	0.84000 0.37020 0.07060 -0.01800
H 	H 	0.84510 0.45080 0.05640 0.01800
C 	C 	0.93580 0.41070 0.03610 0.05200
O 	O 	0.88250 0.43240 0.14450 -0.19400
C 	C 	0.21080 0.46460 0.70270 0.10300
H 	H 	0.19640 0.46810 0.65690 -0.00200
C 	C 	0.16190 0.45290 0.75360 -0.24400
H 	H 	0.11530 0.45060 0.74160 0.11800
C 	C 	0.13120 0.41100 0.92420 0.14300
H 	H 	0.16000 0.37020 0.92940 -0.01500
H 	H 	0.15490 0.45080 0.94360 0.01400
C 	C 	0.06420 0.41070 0.96390 -0.00400
O 	O 	0.11750 0.43240 0.85550 -0.24100
C 	C 	0.21080 0.53540 0.29730 0.10100
H 	H 	0.19640 0.53190 0.34310 -0.00100
C 	C 	0.16190 0.54710 0.24640 -0.24000
H 	H 	0.11530 0.54940 0.25840 0.11500
C 	C 	0.13120 0.58900 0.07580 0.13300
H 	H 	0.16000 0.62980 0.07060 -0.00600
H 	H 	0.15490 0.54920 0.05640 0.02300
C 	C 	0.06420 0.58930 0.03610 0.05300
O 	O 	0.11750 0.56760 0.14450 -0.20800
C 	C 	0.70270 0.78920 0.53540 0.10600
H 	H 	0.65690 0.80360 0.53190 -0.00400
C 	C 	0.75360 0.83810 0.54710 -0.25000
H 	H 	0.74160 0.88470 0.54940 0.11700
C 	C 	0.92420 0.86880 0.58900 0.18500
H 	H 	0.92940 0.84000 0.62980 -0.02700
H 	H 	0.94360 0.84510 0.54920 0.00800
C 	C 	0.96390 0.93580 0.58930 -0.00500
O 	O 	0.85550 0.88250 0.56760 -0.22700
C 	C 	0.29730 0.78920 0.46460 0.10400
H 	H 	0.34310 0.80360 0.46810 -0.00400
C 	C 	0.24640 0.83810 0.45290 -0.24600
H 	H 	0.25840 0.88470 0.45060 0.11400
C 	C 	0.07580 0.86880 0.41100 0.17400
H 	H 	0.07060 0.84000 0.37020 -0.01800
H 	H 	0.05640 0.84510 0.45080 0.01800
C 	C 	0.03610 0.93580 0.41070 0.05200
O 	O 	0.14450 0.88250 0.43240 -0.19400
C 	C 	0.70270 0.21080 0.46460 0.10300
H 	H 	0.65690 0.19640 0.46810 -0.00200
C 	C 	0.75360 0.16190 0.45290 -0.24400
H 	H 	0.74160 0.11530 0.45060 0.11800
C 	C 	0.92420 0.13120 0.41100 0.14300
H 	H 	0.92940 0.16000 0.37020 -0.01500
H 	H 	0.94360 0.15490 0.45080 0.01400
C 	C 	0.96390 0.06420 0.41070 -0.00400
O 	O 	0.85550 0.11750 0.43240 -0.24100
C 	C 	0.29730 0.21080 0.53540 0.10100
H 	H 	0.34310 0.19640 0.53190 -0.00100
C 	C 	0.24640 0.16190 0.54710 -0.24000
H 	H 	0.25840 0.11530 0.54940 0.11500
C 	C 	0.07580 0.13120 0.58900 0.13300
H 	H 	0.07060 0.16000 0.62980 -0.00600
H 	H 	0.05640 0.15490 0.54920 0.02300
C 	C 	0.03610 0.06420 0.58930 0.05300
O 	O 	0.14450 0.11750 0.56760 -0.20800
C 	C 	0.70270 0.53540 0.21080 0.10300
H 	H 	0.65690 0.53190 0.19640 -0.00200
C 	C 	0.75360 0.54710 0.16190 -0.24400
H 	H 	0.74160 0.54940 0.11530 0.11800
C 	C 	0.92420 0.58900 0.13120 0.14300
H 	H 	0.92940 0.62980 0.16000 -0.01600
H 	H 	0.94360 0.54920 0.15490 0.01400
C 	C 	0.96390 0.58930 0.06420 -0.00400
O 	O 	0.85550 0.56760 0.11750 -0.24100
C 	C 	0.29730 0.46460 0.21080 0.10100
H 	H 	0.34310 0.46810 0.19640 -0.00100
C 	C 	0.24640 0.45290 0.16190 -0.24000
H 	H 	0.25840 0.45060 0.11530 0.11500
C 	C 	0.07580 0.41100 0.13120 0.13200
H 	H 	0.07060 0.37020 0.16000 -0.00600
H 	H 	0.05640 0.45080 0.15490 0.02300
C 	C 	0.03610 0.41070 0.06420 0.05400
O 	O 	0.14450 0.43240 0.11750 -0.20800
C 	C 	0.70270 0.46460 0.78920 0.10600
H 	H 	0.65690 0.46810 0.80360 -0.00400
C 	C 	0.75360 0.45290 0.83810 -0.25000
H 	H 	0.74160 0.45060 0.88470 0.11700
C 	C 	0.92420 0.41100 0.86880 0.18500
H 	H 	0.92940 0.37020 0.84000 -0.02700
H 	H 	0.94360 0.45080 0.84510 0.00800
C 	C 	0.96390 0.41070 0.93580 -0.00500
O 	O 	0.85550 0.43240 0.88250 -0.22700
C 	C 	0.29730 0.53540 0.78920 0.10400
H 	H 	0.34310 0.53190 0.80360 -0.00300
C 	C 	0.24640 0.54710 0.83810 -0.24600
H 	H 	0.25840 0.54940 0.88470 0.11400
C 	C 	0.07580 0.58900 0.86880 0.17400
H 	H 	0.07060 0.62980 0.84000 -0.01800
H 	H 	0.05640 0.54920 0.84510 0.01800
C 	C 	0.03610 0.58930 0.93580 0.05200
O 	O 	0.14450 0.56760 0.88250 -0.19400
C 	C 	0.53540 0.78920 0.29730 0.10400
H 	H 	0.53190 0.80360 0.34310 -0.00300
C 	C 	0.54710 0.83810 0.24640 -0.24600
H 	H 	0.54940 0.88470 0.25840 0.11400
C 	C 	0.58900 0.86880 0.07580 0.17400
H 	H 	0.62980 0.84000 0.07060 -0.01800
H 	H 	0.54920 0.84510 0.05640 0.01800
C 	C 	0.58930 0.93580 0.03610 0.05200
O 	O 	0.56760 0.88250 0.14450 -0.19400
C 	C 	0.46460 0.78920 0.70270 0.10600
H 	H 	0.46810 0.80360 0.65690 -0.00400
C 	C 	0.45290 0.83810 0.75360 -0.25000
H 	H 	0.45060 0.88470 0.74160 0.11700
C 	C 	0.41100 0.86880 0.92420 0.18500
H 	H 	0.37020 0.84000 0.92940 -0.02700
H 	H 	0.45080 0.84510 0.94360 0.00800
C 	C 	0.41070 0.93580 0.96390 -0.00500
O 	O 	0.43240 0.88250 0.85550 -0.22700
C 	C 	0.46460 0.21080 0.29730 0.10100
H 	H 	0.46810 0.19640 0.34310 -0.00100
C 	C 	0.45290 0.16190 0.24640 -0.24000
H 	H 	0.45060 0.11530 0.25840 0.11500
C 	C 	0.41100 0.13120 0.07580 0.13200
H 	H 	0.37020 0.16000 0.07060 -0.00600
H 	H 	0.45080 0.15490 0.05640 0.02300
C 	C 	0.41070 0.06420 0.03610 0.05400
O 	O 	0.43240 0.11750 0.14450 -0.20800
C 	C 	0.53540 0.21080 0.70270 0.10300
H 	H 	0.53190 0.19640 0.65690 -0.00200
C 	C 	0.54710 0.16190 0.75360 -0.24400
H 	H 	0.54940 0.11530 0.74160 0.11800
C 	C 	0.58900 0.13120 0.92420 0.14300
H 	H 	0.62980 0.16000 0.92940 -0.01600
H 	H 	0.54920 0.15490 0.94360 0.01400
C 	C 	0.58930 0.06420 0.96390 -0.00400
O 	O 	0.56760 0.11750 0.85550 -0.24100
C 	C 	0.78920 0.70270 0.46460 0.10600
H 	H 	0.80360 0.65690 0.46810 -0.00400
C 	C 	0.83810 0.75360 0.45290 -0.25000
H 	H 	0.88470 0.74160 0.45060 0.11700
C 	C 	0.86880 0.92420 0.41100 0.18500
H 	H 	0.84000 0.92940 0.37020 -0.02700
H 	H 	0.84510 0.94360 0.45080 0.00800
C 	C 	0.93580 0.96390 0.41070 -0.00500
O 	O 	0.88250 0.85550 0.43240 -0.22700
C 	C 	0.78920 0.29730 0.53540 0.10400
H 	H 	0.80360 0.34310 0.53190 -0.00300
C 	C 	0.83810 0.24640 0.54710 -0.24600
H 	H 	0.88470 0.25840 0.54940 0.11400
C 	C 	0.86880 0.07580 0.58900 0.17400
H 	H 	0.84000 0.07060 0.62980 -0.01800
H 	H 	0.84510 0.05640 0.54920 0.01800
C 	C 	0.93580 0.03610 0.58930 0.05200
O 	O 	0.88250 0.14450 0.56760 -0.19400
C 	C 	0.21080 0.70270 0.53540 0.10300
H 	H 	0.19640 0.65690 0.53190 -0.00200
C 	C 	0.16190 0.75360 0.54710 -0.24400
H 	H 	0.11530 0.74160 0.54940 0.11800
C 	C 	0.13120 0.92420 0.58900 0.14300
H 	H 	0.16000 0.92940 0.62980 -0.01600
H 	H 	0.15490 0.94360 0.54920 0.01400
C 	C 	0.06420 0.96390 0.58930 -0.00400
O 	O 	0.11750 0.85550 0.56760 -0.24100
C 	C 	0.21080 0.29730 0.46460 0.10100
H 	H 	0.19640 0.34310 0.46810 -0.00100
C 	C 	0.16190 0.24640 0.45290 -0.24000
H 	H 	0.11530 0.25840 0.45060 0.11500
C 	C 	0.13120 0.07580 0.41100 0.13200
H 	H 	0.16000 0.07060 0.37020 -0.00600
H 	H 	0.15490 0.05640 0.45080 0.02300
C 	C 	0.06420 0.03610 0.41070 0.05400
O 	O 	0.11750 0.14450 0.43240 -0.20800
Y 	Y 	0.50000 0.35835 0.50000 2.40900
Y 	Y 	0.50000 0.64165 0.50000 2.40900
Y 	Y 	0.50000 0.50000 0.35835 2.40900
Y 	Y 	0.50000 0.50000 0.64165 2.40900
Y 	Y 	0.35835 0.50000 0.50000 2.40900
Y 	Y 	0.64165 0.50000 0.50000 2.40900
O 	O 	0.56430 0.43570 0.56430 -0.92800
H 	H 	0.59360 0.40640 0.59360 0.18700
O 	O 	0.43570 0.56430 0.56430 -0.92800
H 	H 	0.40640 0.59360 0.59360 0.18700
O 	O 	0.43570 0.43570 0.43570 -0.92800
H 	H 	0.40640 0.40640 0.40640 0.18700
O 	O 	0.56430 0.56430 0.43570 -0.92800
H 	H 	0.59360 0.59360 0.40640 0.18700
O 	O 	0.43570 0.56430 0.43570 -0.92800
H 	H 	0.40640 0.59360 0.40640 0.18700
O 	O 	0.56430 0.43570 0.43570 -0.92800
H 	H 	0.59360 0.40640 0.40640 0.18700
O 	O 	0.43570 0.43570 0.56430 -0.92800
H 	H 	0.40640 0.40640 0.59360 0.18700
O 	O 	0.56430 0.56430 0.56430 -0.92800
H 	H 	0.59360 0.59360 0.59360 0.18700
C 	C 	0.50000 0.33080 0.33080 0.48300
C 	C 	0.50000 0.66920 0.33080 0.48400
C 	C 	0.50000 0.33080 0.66920 0.48400
C 	C 	0.50000 0.66920 0.66920 0.48500
C 	C 	0.33080 0.50000 0.33080 0.48300
C 	C 	0.33080 0.50000 0.66920 0.48400
C 	C 	0.66920 0.50000 0.33080 0.48400
C 	C 	0.66920 0.50000 0.66920 0.48500
C 	C 	0.33080 0.33080 0.50000 0.48300
C 	C 	0.66920 0.33080 0.50000 0.48400
C 	C 	0.33080 0.66920 0.50000 0.48400
C 	C 	0.66920 0.66920 0.50000 0.48500
O 	O 	0.50000 0.30850 0.39220 -0.57300
O 	O 	0.50000 0.69150 0.39220 -0.57400
O 	O 	0.50000 0.30850 0.60780 -0.57300
O 	O 	0.50000 0.69150 0.60780 -0.57400
O 	O 	0.39220 0.50000 0.30850 -0.57300
O 	O 	0.39220 0.50000 0.69150 -0.57400
O 	O 	0.60780 0.50000 0.30850 -0.57300
O 	O 	0.60780 0.50000 0.69150 -0.57400
O 	O 	0.30850 0.39220 0.50000 -0.57300
O 	O 	0.69150 0.39220 0.50000 -0.57400
O 	O 	0.30850 0.60780 0.50000 -0.57300
O 	O 	0.69150 0.60780 0.50000 -0.57400
O 	O 	0.30850 0.50000 0.60780 -0.57300
O 	O 	0.69150 0.50000 0.60780 -0.57400
O 	O 	0.30850 0.50000 0.39220 -0.57300
O 	O 	0.69150 0.50000 0.39220 -0.57400
O 	O 	0.50000 0.39220 0.69150 -0.57400
O 	O 	0.50000 0.39220 0.30850 -0.57300
O 	O 	0.50000 0.60780 0.69150 -0.57400
O 	O 	0.50000 0.60780 0.30850 -0.57300
O 	O 	0.39220 0.30850 0.50000 -0.57300
O 	O 	0.39220 0.69150 0.50000 -0.57400
O 	O 	0.60780 0.30850 0.50000 -0.57300
O 	O 	0.60780 0.69150 0.50000 -0.57400
C 	C 	0.47250 0.27810 0.27810 -0.12200
C 	C 	0.44700 0.17990 0.17990 0.30700
C 	C 	0.52750 0.72190 0.27810 -0.12400
C 	C 	0.55300 0.82010 0.17990 0.31600
C 	C 	0.52750 0.27810 0.72190 -0.12400
C 	C 	0.55300 0.17990 0.82010 0.31600
C 	C 	0.47250 0.72190 0.72190 -0.12600
C 	C 	0.44700 0.82010 0.82010 0.32600
C 	C 	0.27810 0.47250 0.27810 -0.12200
C 	C 	0.17990 0.44700 0.17990 0.30700
C 	C 	0.27810 0.52750 0.72190 -0.12400
C 	C 	0.17990 0.55300 0.82010 0.31600
C 	C 	0.72190 0.52750 0.27810 -0.12400
C 	C 	0.82010 0.55300 0.17990 0.31600
C 	C 	0.72190 0.47250 0.72190 -0.12600
C 	C 	0.82010 0.44700 0.82010 0.32600
C 	C 	0.27810 0.27810 0.47250 -0.12200
C 	C 	0.17990 0.17990 0.44700 0.30700
C 	C 	0.72190 0.27810 0.52750 -0.12400
C 	C 	0.82010 0.17990 0.55300 0.31600
C 	C 	0.27810 0.72190 0.52750 -0.12400
C 	C 	0.17990 0.82010 0.55300 0.31600
C 	C 	0.72190 0.72190 0.47250 -0.12600
C 	C 	0.82010 0.82010 0.44700 0.32600
C 	C 	0.27810 0.47250 0.72190 -0.12400
C 	C 	0.17990 0.44700 0.82010 0.31700
C 	C 	0.72190 0.52750 0.72190 -0.12600
C 	C 	0.82010 0.55300 0.82010 0.32500
C 	C 	0.27810 0.52750 0.27810 -0.12200
C 	C 	0.17990 0.55300 0.17990 0.30700
C 	C 	0.72190 0.47250 0.27810 -0.12400
C 	C 	0.82010 0.44700 0.17990 0.31700
C 	C 	0.47250 0.27810 0.72190 -0.12400
C 	C 	0.44700 0.17990 0.82010 0.31700
C 	C 	0.52750 0.27810 0.27810 -0.12200
C 	C 	0.55300 0.17990 0.17990 0.30700
C 	C 	0.52750 0.72190 0.72190 -0.12600
C 	C 	0.55300 0.82010 0.82010 0.32500
C 	C 	0.47250 0.72190 0.27810 -0.12400
C 	C 	0.44700 0.82010 0.17990 0.31700
C 	C 	0.27810 0.27810 0.52750 -0.12200
C 	C 	0.17990 0.17990 0.55300 0.30700
C 	C 	0.27810 0.72190 0.47250 -0.12400
C 	C 	0.17990 0.82010 0.44700 0.31700
C 	C 	0.72190 0.27810 0.47250 -0.12400
C 	C 	0.82010 0.17990 0.44700 0.31700
C 	C 	0.72190 0.72190 0.52750 -0.12600
C 	C 	0.82010 0.82010 0.55300 0.32500
C 	C 	0.41080 0.06800 -0.00000 -0.13900
H 	H 	0.41075 0.11594 -0.00000 0.04100
C 	C 	0.58920 0.93200 -0.00000 -0.09600
H 	H 	0.58925 0.88405 -0.00000 0.01900
C 	C 	0.58920 0.06800 -0.00000 -0.13900
H 	H 	0.58925 0.11594 -0.00000 0.04100
C 	C 	0.41080 0.93200 -0.00000 -0.09500
H 	H 	0.41075 0.88405 -0.00000 0.01900
C 	C 	-0.00000 0.41080 0.06800 -0.13900
H 	H 	-0.00000 0.41075 0.11594 0.04100
C 	C 	-0.00000 0.58920 0.93200 -0.09600
H 	H 	-0.00000 0.58925 0.88405 0.01900
C 	C 	-0.00000 0.58920 0.06800 -0.13900
H 	H 	-0.00000 0.58925 0.11594 0.04100
C 	C 	-0.00000 0.41080 0.93200 -0.09500
H 	H 	-0.00000 0.41075 0.88405 0.01900
C 	C 	0.06800 -0.00000 0.41080 -0.13900
H 	H 	0.11594 -0.00000 0.41075 0.04100
C 	C 	0.93200 0.00000 0.58920 -0.09600
H 	H 	0.88405 -0.00000 0.58925 0.01900
C 	C 	0.06800 0.00000 0.58920 -0.13900
H 	H 	0.11594 -0.00000 0.58925 0.04100
C 	C 	0.93200 -0.00000 0.41080 -0.09500
H 	H 	0.88405 -0.00000 0.41075 0.01900
C 	C 	0.06800 0.41080 -0.00000 -0.13900
H 	H 	0.11594 0.41075 -0.00000 0.04100
C 	C 	0.93200 0.58920 -0.00000 -0.09600
H 	H 	0.88405 0.58925 -0.00000 0.01900
C 	C 	0.06800 0.58920 -0.00000 -0.13900
H 	H 	0.11594 0.58925 -0.00000 0.04100
C 	C 	0.93200 0.41080 -0.00000 -0.09500
H 	H 	0.88405 0.41075 -0.00000 0.01900
C 	C 	0.41080 -0.00000 0.93200 -0.09500
H 	H 	0.41075 -0.00000 0.88405 0.01900
C 	C 	0.58920 -0.00000 0.06800 -0.13900
H 	H 	0.58925 -0.00000 0.11594 0.04100
C 	C 	0.58920 -0.00000 0.93200 -0.09600
H 	H 	0.58925 -0.00000 0.88405 0.01900
C 	C 	0.41080 -0.00000 0.06800 -0.13900
H 	H 	0.41075 -0.00000 0.11594 0.04100
C 	C 	-0.00000 0.06800 0.58920 -0.13900
H 	H 	-0.00000 0.11594 0.58925 0.04100
C 	C 	-0.00000 0.93200 0.41080 -0.09500
H 	H 	-0.00000 0.88405 0.41075 0.01900
C 	C 	-0.00000 0.06800 0.41080 -0.13900
H 	H 	-0.00000 0.11594 0.41075 0.04100
C 	C 	-0.00000 0.93200 0.58920 -0.09600
H 	H 	-0.00000 0.88405 0.58925 0.01900
