data_crystal

_cell_length_a 31.53500
_cell_length_b 31.53500
_cell_length_c 31.53500
_cell_angle_alpha 90.00000
_cell_angle_beta  90.00000
_cell_angle_gamma 90.00000

_symmetry_space_group_name_	'P 1'
_symmetry_space_group_name_H-M	'P 1'

loop_
_symmetry_equiv_pos_as_xyz
  x,y,z

loop_
_atom_site_label
_atom_site_type_symbol
_atom_site_fract_x
_atom_site_fract_y
_atom_site_fract_z
_atom_site_charge
N 	N 	0.97160 0.70545 0.15900 -0.28400
C 	C 	0.98435 0.66507 0.16780 0.09800
H 	H 	0.00960 0.65260 0.15900 -0.03800
N 	N 	0.95360 0.64624 0.19160 -0.13600
C 	C 	0.92190 0.67500 0.19760 0.00400
H 	H 	0.89700 0.67040 0.21280 0.02300
C 	C 	0.93300 0.71157 0.17750 -0.00900
H 	H 	0.91700 0.73630 0.17650 0.00100
C 	C 	0.95320 0.60010 0.20320 0.06100
C 	C 	0.91540 0.58020 0.21350 -0.07300
H 	H 	0.88970 0.59410 0.20920 0.05400
C 	C 	0.91580 0.53950 0.23020 -0.03100
H 	H 	0.89040 0.52610 0.23720 0.02800
C 	C 	0.95400 0.51880 0.23660 0.01300
C 	C 	0.99190 0.53870 0.22630 -0.01800
H 	H 	0.01750 0.52470 0.23060 0.01100
C 	C 	0.99140 0.57930 0.20960 -0.09500
H 	H 	0.01680 0.59270 0.20270 0.04400
C 	C 	0.95770 0.60770 0.21240 0.02300
C 	C 	0.93380 0.59780 0.24790 -0.04600
H 	H 	0.91680 0.61840 0.26050 0.04500
C 	C 	0.93540 0.55730 0.26480 -0.02400
H 	H 	0.91940 0.55060 0.28870 0.03400
C 	C 	0.96070 0.52660 0.24610 -0.01400
C 	C 	0.98460 0.53660 0.21050 0.00700
H 	H 	0.00160 0.51600 0.19800 0.01000
C 	C 	0.98300 0.57710 0.19370 -0.00100
H 	H 	0.99900 0.58380 0.16980 0.02900
N 	N 	0.47160 0.20545 0.65900 -0.28300
C 	C 	0.48435 0.16507 0.66780 0.07700
H 	H 	0.50960 0.15260 0.65900 -0.02200
N 	N 	0.45360 0.14624 0.69160 -0.13400
C 	C 	0.42190 0.17500 0.69760 0.00400
H 	H 	0.39700 0.17040 0.71280 0.02300
C 	C 	0.43300 0.21157 0.67750 -0.01000
H 	H 	0.41700 0.23630 0.67650 0.00100
C 	C 	0.45320 0.10010 0.70320 0.05600
C 	C 	0.41540 0.08020 0.71350 -0.06800
H 	H 	0.38970 0.09410 0.70920 0.05200
C 	C 	0.41580 0.03950 0.73020 -0.03200
H 	H 	0.39040 0.02610 0.73720 0.02400
C 	C 	0.45400 0.01880 0.73660 0.00800
C 	C 	0.49190 0.03870 0.72630 -0.01800
H 	H 	0.51750 0.02470 0.73060 0.01200
C 	C 	0.49140 0.07930 0.70960 -0.08000
H 	H 	0.51680 0.09270 0.70270 0.04800
C 	C 	0.45770 0.10770 0.71240 0.02800
C 	C 	0.43380 0.09780 0.74790 -0.05500
H 	H 	0.41680 0.11840 0.76050 0.04700
C 	C 	0.43540 0.05730 0.76480 -0.02000
H 	H 	0.41940 0.05060 0.78870 0.02900
C 	C 	0.46070 0.02660 0.74610 -0.02000
C 	C 	0.48460 0.03660 0.71050 -0.01000
H 	H 	0.50160 0.01600 0.69800 0.01900
C 	C 	0.48300 0.07710 0.69370 -0.02000
H 	H 	0.49900 0.08380 0.66980 0.02800
N 	N 	0.52840 0.29455 0.65900 -0.28300
C 	C 	0.51565 0.33493 0.66780 0.07700
H 	H 	0.49040 0.34740 0.65900 -0.02200
N 	N 	0.54640 0.35376 0.69160 -0.13300
C 	C 	0.57810 0.32500 0.69760 0.00400
H 	H 	0.60300 0.32960 0.71280 0.02300
C 	C 	0.56700 0.28843 0.67750 -0.00900
H 	H 	0.58300 0.26370 0.67650 0.00100
C 	C 	0.54680 0.39990 0.70320 0.05500
C 	C 	0.58460 0.41980 0.71350 -0.06700
H 	H 	0.61030 0.40590 0.70920 0.05200
C 	C 	0.58420 0.46050 0.73020 -0.03300
H 	H 	0.60960 0.47390 0.73720 0.02800
C 	C 	0.54600 0.48120 0.73660 0.01200
C 	C 	0.50810 0.46130 0.72630 -0.01900
H 	H 	0.48250 0.47530 0.73060 0.01600
C 	C 	0.50860 0.42070 0.70960 -0.07800
H 	H 	0.48320 0.40730 0.70270 0.04700
C 	C 	0.54230 0.39230 0.71240 0.02700
C 	C 	0.56620 0.40220 0.74790 -0.05200
H 	H 	0.58320 0.38160 0.76050 0.04600
C 	C 	0.56460 0.44270 0.76480 -0.02500
H 	H 	0.58060 0.44940 0.78870 0.03300
C 	C 	0.53930 0.47340 0.74610 -0.01100
C 	C 	0.51540 0.46340 0.71050 -0.01600
H 	H 	0.49840 0.48400 0.69800 0.02400
C 	C 	0.51700 0.42290 0.69370 -0.01900
H 	H 	0.50100 0.41620 0.66980 0.02800
N 	N 	0.02840 0.79455 0.15900 -0.28100
C 	C 	0.01565 0.83493 0.16780 0.05600
H 	H 	0.99040 0.84740 0.15900 -0.00700
N 	N 	0.04640 0.85376 0.19160 -0.13000
C 	C 	0.07810 0.82500 0.19760 0.00300
H 	H 	0.10300 0.82960 0.21280 0.02400
C 	C 	0.06700 0.78843 0.17750 -0.01000
H 	H 	0.08300 0.76370 0.17650 0.00100
C 	C 	0.04680 0.89990 0.20320 0.04800
C 	C 	0.08460 0.91980 0.21350 -0.05900
H 	H 	0.11030 0.90590 0.20920 0.04900
C 	C 	0.08420 0.96050 0.23020 -0.03600
H 	H 	0.10960 0.97390 0.23720 0.03300
C 	C 	0.04600 0.98120 0.23660 0.01400
C 	C 	0.00810 0.96130 0.22630 -0.02200
H 	H 	0.98250 0.97530 0.23060 0.02400
C 	C 	0.00860 0.92070 0.20960 -0.05800
H 	H 	0.98320 0.90730 0.20270 0.04900
C 	C 	0.04230 0.89230 0.21240 0.03100
C 	C 	0.06620 0.90220 0.24790 -0.05500
H 	H 	0.08320 0.88160 0.26050 0.04700
C 	C 	0.06460 0.94270 0.26480 -0.03200
H 	H 	0.08060 0.94940 0.28870 0.03700
C 	C 	0.03930 0.97340 0.24610 0.00200
C 	C 	0.01540 0.96340 0.21050 -0.04400
H 	H 	0.99840 0.98400 0.19800 0.04400
C 	C 	0.01700 0.92290 0.19370 -0.03500
H 	H 	0.00100 0.91620 0.16980 0.02700
N 	N 	0.02840 0.20545 0.34100 -0.28100
C 	C 	0.01565 0.16507 0.33220 0.05600
H 	H 	0.99040 0.15260 0.34100 -0.00700
N 	N 	0.04640 0.14624 0.30840 -0.13100
C 	C 	0.07810 0.17500 0.30240 0.00300
H 	H 	0.10300 0.17040 0.28720 0.02300
C 	C 	0.06700 0.21157 0.32250 -0.01000
H 	H 	0.08300 0.23630 0.32350 0.00100
C 	C 	0.04680 0.10010 0.29680 0.05000
C 	C 	0.08460 0.08020 0.28650 -0.06100
H 	H 	0.11030 0.09410 0.29080 0.05000
C 	C 	0.08420 0.03950 0.26980 -0.03300
H 	H 	0.10960 0.02610 0.26280 0.02500
C 	C 	0.04600 0.01880 0.26340 0.00700
C 	C 	0.00810 0.03870 0.27370 -0.02000
H 	H 	0.98250 0.02470 0.26940 0.01700
C 	C 	0.00860 0.07930 0.29040 -0.06300
H 	H 	0.98320 0.09270 0.29730 0.05100
C 	C 	0.04230 0.10770 0.28760 0.03200
C 	C 	0.06620 0.09780 0.25210 -0.06100
H 	H 	0.08320 0.11840 0.23950 0.04800
C 	C 	0.06460 0.05730 0.23520 -0.02100
H 	H 	0.08060 0.05060 0.21130 0.02800
C 	C 	0.03930 0.02660 0.25390 -0.01700
C 	C 	0.01540 0.03660 0.28950 -0.03200
H 	H 	0.99840 0.01600 0.30200 0.03300
C 	C 	0.01700 0.07710 0.30630 -0.03900
H 	H 	0.00100 0.08380 0.33020 0.02700
N 	N 	0.52840 0.70545 0.84100 -0.28200
C 	C 	0.51565 0.66507 0.83220 0.07800
H 	H 	0.49040 0.65260 0.84100 -0.02200
N 	N 	0.54640 0.64624 0.80840 -0.13300
C 	C 	0.57810 0.67500 0.80240 0.00400
H 	H 	0.60300 0.67040 0.78720 0.02300
C 	C 	0.56700 0.71157 0.82250 -0.00900
H 	H 	0.58300 0.73630 0.82350 0.00100
C 	C 	0.54680 0.60010 0.79680 0.05500
C 	C 	0.58460 0.58020 0.78650 -0.06600
H 	H 	0.61030 0.59410 0.79080 0.05200
C 	C 	0.58420 0.53950 0.76980 -0.03300
H 	H 	0.60960 0.52610 0.76280 0.02800
C 	C 	0.54600 0.51880 0.76340 0.01100
C 	C 	0.50810 0.53870 0.77370 -0.01900
H 	H 	0.48250 0.52470 0.76940 0.01500
C 	C 	0.50860 0.57930 0.79040 -0.07700
H 	H 	0.48320 0.59270 0.79730 0.04700
C 	C 	0.54230 0.60770 0.78760 0.02700
C 	C 	0.56620 0.59780 0.75210 -0.05200
H 	H 	0.58320 0.61840 0.73950 0.04600
C 	C 	0.56460 0.55730 0.73520 -0.02600
H 	H 	0.58060 0.55060 0.71130 0.03300
C 	C 	0.53930 0.52660 0.75390 -0.01000
C 	C 	0.51540 0.53660 0.78950 -0.01600
H 	H 	0.49840 0.51600 0.80200 0.02500
C 	C 	0.51700 0.57710 0.80630 -0.01900
H 	H 	0.50100 0.58380 0.83020 0.02900
N 	N 	0.47160 0.79455 0.84100 -0.28200
C 	C 	0.48435 0.83493 0.83220 0.07800
H 	H 	0.50960 0.84740 0.84100 -0.02100
N 	N 	0.45360 0.85376 0.80840 -0.13300
C 	C 	0.42190 0.82500 0.80240 0.00400
H 	H 	0.39700 0.82960 0.78720 0.02300
C 	C 	0.43300 0.78843 0.82250 -0.00900
H 	H 	0.41700 0.76370 0.82350 0.00100
C 	C 	0.45320 0.89990 0.79680 0.05300
C 	C 	0.41540 0.91980 0.78650 -0.06500
H 	H 	0.38970 0.90590 0.79080 0.05100
C 	C 	0.41580 0.96050 0.76980 -0.03400
H 	H 	0.39040 0.97390 0.76280 0.03300
C 	C 	0.45400 0.98120 0.76340 0.01500
C 	C 	0.49190 0.96130 0.77370 -0.02000
H 	H 	0.51750 0.97530 0.76940 0.01900
C 	C 	0.49140 0.92070 0.79040 -0.07500
H 	H 	0.51680 0.90730 0.79730 0.04600
C 	C 	0.45770 0.89230 0.78760 0.02700
C 	C 	0.43380 0.90220 0.75210 -0.04900
H 	H 	0.41680 0.88160 0.73950 0.04500
C 	C 	0.43540 0.94270 0.73520 -0.03100
H 	H 	0.41940 0.94940 0.71130 0.03700
C 	C 	0.46070 0.97340 0.75390 -0.00100
C 	C 	0.48460 0.96340 0.78950 -0.02200
H 	H 	0.50160 0.98400 0.80200 0.03000
C 	C 	0.48300 0.92290 0.80630 -0.01800
H 	H 	0.49900 0.91620 0.83020 0.02900
N 	N 	0.97160 0.29455 0.34100 -0.28300
C 	C 	0.98435 0.33493 0.33220 0.09900
H 	H 	0.00960 0.34740 0.34100 -0.03600
N 	N 	0.95360 0.35376 0.30840 -0.13600
C 	C 	0.92190 0.32500 0.30240 0.00400
H 	H 	0.89700 0.32960 0.28720 0.02300
C 	C 	0.93300 0.28843 0.32250 -0.00900
H 	H 	0.91700 0.26370 0.32350 0.00100
C 	C 	0.95320 0.39990 0.29680 0.06100
C 	C 	0.91540 0.41980 0.28650 -0.07300
H 	H 	0.88970 0.40590 0.29080 0.05400
C 	C 	0.91580 0.46050 0.26980 -0.03100
H 	H 	0.89040 0.47390 0.26280 0.02700
C 	C 	0.95400 0.48120 0.26340 0.01200
C 	C 	0.99190 0.46130 0.27370 -0.01700
H 	H 	0.01750 0.47530 0.26940 0.01000
C 	C 	0.99140 0.42070 0.29040 -0.09500
H 	H 	0.01680 0.40730 0.29730 0.04400
C 	C 	0.95770 0.39230 0.28760 0.02300
C 	C 	0.93380 0.40220 0.25210 -0.04600
H 	H 	0.91680 0.38160 0.23950 0.04500
C 	C 	0.93540 0.44270 0.23520 -0.02500
H 	H 	0.91940 0.44940 0.21130 0.03300
C 	C 	0.96070 0.47340 0.25390 -0.01400
C 	C 	0.98460 0.46340 0.28950 0.00600
H 	H 	0.00160 0.48400 0.30200 0.01000
C 	C 	0.98300 0.42290 0.30630 -0.00100
H 	H 	0.99900 0.41620 0.33020 0.02900
N 	N 	0.54455 0.77840 0.90900 -0.28300
C 	C 	0.58493 0.76565 0.91780 0.07800
H 	H 	0.59740 0.74040 0.90900 -0.02100
N 	N 	0.60376 0.79640 0.94160 -0.13200
C 	C 	0.57500 0.82810 0.94760 0.00400
H 	H 	0.57960 0.85300 0.96280 0.02700
C 	C 	0.53843 0.81700 0.92750 -0.00900
H 	H 	0.51370 0.83300 0.92650 0.00200
C 	C 	0.64990 0.79680 0.95320 0.03400
C 	C 	0.66980 0.83460 0.96350 -0.09400
H 	H 	0.65590 0.86030 0.95920 0.06300
C 	C 	0.71050 0.83420 0.98020 -0.00800
H 	H 	0.72390 0.85960 0.98720 0.02300
C 	C 	0.73120 0.79600 0.98660 0.05700
C 	C 	0.71130 0.75810 0.97630 -0.03700
H 	H 	0.72530 0.73250 0.98060 0.02600
C 	C 	0.67070 0.75860 0.95960 -0.07200
H 	H 	0.65730 0.73320 0.95270 0.04600
C 	C 	0.64230 0.79230 0.96240 0.03600
C 	C 	0.65220 0.81620 0.99790 0.01700
H 	H 	0.63160 0.83320 0.01050 0.01400
C 	C 	0.69270 0.81460 0.01480 -0.08600
H 	H 	0.69940 0.83060 0.03870 0.05300
C 	C 	0.72340 0.78930 0.99610 -0.02600
C 	C 	0.71340 0.76540 0.96050 -0.01100
H 	H 	0.73400 0.74840 0.94800 0.02300
C 	C 	0.67290 0.76700 0.94370 -0.01400
H 	H 	0.66620 0.75100 0.91980 0.02600
N 	N 	0.04455 0.27840 0.40900 -0.28400
C 	C 	0.08493 0.26565 0.41780 0.07700
H 	H 	0.09740 0.24040 0.40900 -0.02200
N 	N 	0.10376 0.29640 0.44160 -0.13300
C 	C 	0.07500 0.32810 0.44760 0.00300
H 	H 	0.07960 0.35300 0.46280 0.02200
C 	C 	0.03843 0.31700 0.42750 -0.01000
H 	H 	0.01370 0.33300 0.42650 -0.00300
C 	C 	0.14990 0.29680 0.45320 0.05500
C 	C 	0.16980 0.33460 0.46350 -0.06600
H 	H 	0.15590 0.36030 0.45920 0.05100
C 	C 	0.21050 0.33420 0.48020 -0.03300
H 	H 	0.22390 0.35960 0.48720 0.02800
C 	C 	0.23120 0.29600 0.48660 0.01200
C 	C 	0.21130 0.25810 0.47630 -0.01900
H 	H 	0.22530 0.23250 0.48060 0.01600
C 	C 	0.17070 0.25860 0.45960 -0.07800
H 	H 	0.15730 0.23320 0.45270 0.04700
C 	C 	0.14230 0.29230 0.46240 0.02700
C 	C 	0.15220 0.31620 0.49790 -0.05200
H 	H 	0.13160 0.33320 0.51050 0.04600
C 	C 	0.19270 0.31460 0.51480 -0.02600
H 	H 	0.19940 0.33060 0.53870 0.03300
C 	C 	0.22340 0.28930 0.49610 -0.01100
C 	C 	0.21340 0.26540 0.46050 -0.01600
H 	H 	0.23400 0.24840 0.44800 0.02400
C 	C 	0.17290 0.26700 0.44370 -0.01900
H 	H 	0.16620 0.25100 0.41980 0.02800
N 	N 	0.95545 0.22160 0.40900 -0.28000
C 	C 	0.91507 0.23435 0.41780 0.07800
H 	H 	0.90260 0.25960 0.40900 -0.02100
N 	N 	0.89624 0.20360 0.44160 -0.13300
C 	C 	0.92500 0.17190 0.44760 0.00500
H 	H 	0.92040 0.14700 0.46280 0.02400
C 	C 	0.96157 0.18300 0.42750 -0.00900
H 	H 	0.98630 0.16700 0.42650 0.00500
C 	C 	0.85010 0.20320 0.45320 0.05500
C 	C 	0.83020 0.16540 0.46350 -0.06700
H 	H 	0.84410 0.13970 0.45920 0.05200
C 	C 	0.78950 0.16580 0.48020 -0.03300
H 	H 	0.77610 0.14040 0.48720 0.02800
C 	C 	0.76880 0.20400 0.48660 0.01200
C 	C 	0.78870 0.24190 0.47630 -0.01900
H 	H 	0.77470 0.26750 0.48060 0.01600
C 	C 	0.82930 0.24140 0.45960 -0.07800
H 	H 	0.84270 0.26680 0.45270 0.04700
C 	C 	0.85770 0.20770 0.46240 0.02700
C 	C 	0.84780 0.18380 0.49790 -0.05200
H 	H 	0.86840 0.16680 0.51050 0.04600
C 	C 	0.80730 0.18540 0.51480 -0.02600
H 	H 	0.80060 0.16940 0.53870 0.03300
C 	C 	0.77660 0.21070 0.49610 -0.01100
C 	C 	0.78660 0.23460 0.46050 -0.01600
H 	H 	0.76600 0.25160 0.44800 0.02400
C 	C 	0.82710 0.23300 0.44370 -0.01900
H 	H 	0.83380 0.24900 0.41980 0.02800
N 	N 	0.45545 0.72160 0.90900 -0.28300
C 	C 	0.41507 0.73435 0.91780 0.07800
H 	H 	0.40260 0.75960 0.90900 -0.02100
N 	N 	0.39624 0.70360 0.94160 -0.13200
C 	C 	0.42500 0.67190 0.94760 0.00400
H 	H 	0.42040 0.64700 0.96280 0.02600
C 	C 	0.46157 0.68300 0.92750 -0.00900
H 	H 	0.48630 0.66700 0.92650 0.00200
C 	C 	0.35010 0.70320 0.95320 0.03400
C 	C 	0.33020 0.66540 0.96350 -0.09400
H 	H 	0.34410 0.63970 0.95920 0.06300
C 	C 	0.28950 0.66580 0.98020 -0.00800
H 	H 	0.27610 0.64040 0.98720 0.02200
C 	C 	0.26880 0.70400 0.98660 0.05700
C 	C 	0.28870 0.74190 0.97630 -0.03700
H 	H 	0.27470 0.76750 0.98060 0.02600
C 	C 	0.32930 0.74140 0.95960 -0.07200
H 	H 	0.34270 0.76680 0.95270 0.04600
C 	C 	0.35770 0.70770 0.96240 0.03600
C 	C 	0.34780 0.68380 0.99790 0.01700
H 	H 	0.36840 0.66680 0.01050 0.01400
C 	C 	0.30730 0.68540 0.01480 -0.08600
H 	H 	0.30060 0.66940 0.03870 0.05300
C 	C 	0.27660 0.71070 0.99610 -0.02600
C 	C 	0.28660 0.73460 0.96050 -0.01100
H 	H 	0.26600 0.75160 0.94800 0.02300
C 	C 	0.32710 0.73300 0.94370 -0.01400
H 	H 	0.33380 0.74900 0.91980 0.02600
N 	N 	0.04455 0.72160 0.09100 -0.28400
C 	C 	0.08493 0.73435 0.08220 0.07700
H 	H 	0.09740 0.75960 0.09100 -0.02200
N 	N 	0.10376 0.70360 0.05840 -0.13500
C 	C 	0.07500 0.67190 0.05240 0.00200
H 	H 	0.07960 0.64700 0.03720 0.02000
C 	C 	0.03843 0.68300 0.07250 -0.01100
H 	H 	0.01370 0.66700 0.07350 -0.00300
C 	C 	0.14990 0.70320 0.04680 0.07500
C 	C 	0.16980 0.66540 0.03650 -0.03900
H 	H 	0.15590 0.63970 0.04080 0.04000
C 	C 	0.21050 0.66580 0.01980 -0.05800
H 	H 	0.22390 0.64040 0.01280 0.03400
C 	C 	0.23120 0.70400 0.01340 -0.03300
C 	C 	0.21130 0.74190 0.02370 -0.00200
H 	H 	0.22530 0.76750 0.01940 0.00600
C 	C 	0.17070 0.74140 0.04040 -0.08400
H 	H 	0.15730 0.76680 0.04730 0.04800
C 	C 	0.14230 0.70770 0.03760 0.01900
C 	C 	0.15220 0.68380 0.00210 -0.12000
H 	H 	0.13160 0.66680 0.98950 0.07800
C 	C 	0.19270 0.68540 0.98520 0.03500
H 	H 	0.19940 0.66940 0.96130 0.01300
C 	C 	0.22340 0.71070 0.00390 0.00400
C 	C 	0.21340 0.73460 0.03950 -0.02100
H 	H 	0.23400 0.75160 0.05200 0.02600
C 	C 	0.17290 0.73300 0.05630 -0.02400
H 	H 	0.16620 0.74900 0.08020 0.03000
N 	N 	0.54455 0.22160 0.59100 -0.28300
C 	C 	0.58493 0.23435 0.58220 0.07700
H 	H 	0.59740 0.25960 0.59100 -0.02200
N 	N 	0.60376 0.20360 0.55840 -0.13300
C 	C 	0.57500 0.17190 0.55240 0.00400
H 	H 	0.57960 0.14700 0.53720 0.02300
C 	C 	0.53843 0.18300 0.57250 -0.01000
H 	H 	0.51370 0.16700 0.57350 0.00100
C 	C 	0.64990 0.20320 0.54680 0.05500
C 	C 	0.66980 0.16540 0.53650 -0.06700
H 	H 	0.65590 0.13970 0.54080 0.05100
C 	C 	0.71050 0.16580 0.51980 -0.03300
H 	H 	0.72390 0.14040 0.51280 0.02800
C 	C 	0.73120 0.20400 0.51340 0.01200
C 	C 	0.71130 0.24190 0.52370 -0.01900
H 	H 	0.72530 0.26750 0.51940 0.01600
C 	C 	0.67070 0.24140 0.54040 -0.07800
H 	H 	0.65730 0.26680 0.54730 0.04700
C 	C 	0.64230 0.20770 0.53760 0.02700
C 	C 	0.65220 0.18380 0.50210 -0.05200
H 	H 	0.63160 0.16680 0.48950 0.04600
C 	C 	0.69270 0.18540 0.48520 -0.02600
H 	H 	0.69940 0.16940 0.46130 0.03300
C 	C 	0.72340 0.21070 0.50390 -0.01100
C 	C 	0.71340 0.23460 0.53950 -0.01600
H 	H 	0.73400 0.25160 0.55200 0.02400
C 	C 	0.67290 0.23300 0.55630 -0.01900
H 	H 	0.66620 0.24900 0.58020 0.02800
N 	N 	0.45545 0.27840 0.59100 -0.28300
C 	C 	0.41507 0.26565 0.58220 0.07700
H 	H 	0.40260 0.24040 0.59100 -0.02200
N 	N 	0.39624 0.29640 0.55840 -0.13300
C 	C 	0.42500 0.32810 0.55240 0.00400
H 	H 	0.42040 0.35300 0.53720 0.02300
C 	C 	0.46157 0.31700 0.57250 -0.00900
H 	H 	0.48630 0.33300 0.57350 0.00100
C 	C 	0.35010 0.29680 0.54680 0.05500
C 	C 	0.33020 0.33460 0.53650 -0.06700
H 	H 	0.34410 0.36030 0.54080 0.05200
C 	C 	0.28950 0.33420 0.51980 -0.03300
H 	H 	0.27610 0.35960 0.51280 0.02800
C 	C 	0.26880 0.29600 0.51340 0.01200
C 	C 	0.28870 0.25810 0.52370 -0.01900
H 	H 	0.27470 0.23250 0.51940 0.01600
C 	C 	0.32930 0.25860 0.54040 -0.07800
H 	H 	0.34270 0.23320 0.54730 0.04700
C 	C 	0.35770 0.29230 0.53760 0.02700
C 	C 	0.34780 0.31620 0.50210 -0.05200
H 	H 	0.36840 0.33320 0.48950 0.04600
C 	C 	0.30730 0.31460 0.48520 -0.02500
H 	H 	0.30060 0.33060 0.46130 0.03300
C 	C 	0.27660 0.28930 0.50390 -0.01100
C 	C 	0.28660 0.26540 0.53950 -0.01600
H 	H 	0.26600 0.24840 0.55200 0.02400
C 	C 	0.32710 0.26700 0.55630 -0.01900
H 	H 	0.33380 0.25100 0.58020 0.02800
N 	N 	0.95545 0.77840 0.09100 -0.28000
C 	C 	0.91507 0.76565 0.08220 0.07800
H 	H 	0.90260 0.74040 0.09100 -0.02200
N 	N 	0.89624 0.79640 0.05840 -0.13500
C 	C 	0.92500 0.82810 0.05240 0.00400
H 	H 	0.92040 0.85300 0.03720 0.02200
C 	C 	0.96157 0.81700 0.07250 -0.00900
H 	H 	0.98630 0.83300 0.07350 0.00500
C 	C 	0.85010 0.79680 0.04680 0.07500
C 	C 	0.83020 0.83460 0.03650 -0.03900
H 	H 	0.84410 0.86030 0.04080 0.04100
C 	C 	0.78950 0.83420 0.01980 -0.05800
H 	H 	0.77610 0.85960 0.01280 0.03500
C 	C 	0.76880 0.79600 0.01340 -0.03300
C 	C 	0.78870 0.75810 0.02370 -0.00200
H 	H 	0.77470 0.73250 0.01940 0.00600
C 	C 	0.82930 0.75860 0.04040 -0.08400
H 	H 	0.84270 0.73320 0.04730 0.04900
C 	C 	0.85770 0.79230 0.03760 0.01900
C 	C 	0.84780 0.81620 0.00210 -0.12100
H 	H 	0.86840 0.83320 0.98950 0.07900
C 	C 	0.80730 0.81460 0.98520 0.03500
H 	H 	0.80060 0.83060 0.96130 0.01300
C 	C 	0.77660 0.78930 0.00390 0.00400
C 	C 	0.78660 0.76540 0.03950 -0.02100
H 	H 	0.76600 0.74840 0.05200 0.02600
C 	C 	0.82710 0.76700 0.05630 -0.02400
H 	H 	0.83380 0.75100 0.08020 0.03000
Zn	Zn	-0.00000 0.75000 0.12500 1.17000
Zn	Zn	0.50000 0.25000 0.62500 1.17300
Zn	Zn	0.00000 0.25000 0.37500 1.17000
Zn	Zn	0.50000 0.75000 0.87500 1.17300
N 	N 	0.15900 0.97160 0.70545 -0.28300
C 	C 	0.16780 0.98435 0.66507 0.09900
H 	H 	0.15900 0.00960 0.65260 -0.03700
N 	N 	0.19160 0.95360 0.64624 -0.13600
C 	C 	0.19760 0.92190 0.67500 0.00400
H 	H 	0.21280 0.89700 0.67040 0.02300
C 	C 	0.17750 0.93300 0.71157 -0.00900
H 	H 	0.17650 0.91700 0.73630 0.00100
C 	C 	0.20320 0.95320 0.60010 0.06100
C 	C 	0.21350 0.91540 0.58020 -0.07300
H 	H 	0.20920 0.88970 0.59410 0.05400
C 	C 	0.23020 0.91580 0.53950 -0.03100
H 	H 	0.23720 0.89040 0.52610 0.02800
C 	C 	0.23660 0.95400 0.51880 0.01300
C 	C 	0.22630 0.99190 0.53870 -0.01800
H 	H 	0.23060 0.01750 0.52470 0.01100
C 	C 	0.20960 0.99140 0.57930 -0.09500
H 	H 	0.20270 0.01680 0.59270 0.04400
C 	C 	0.21240 0.95770 0.60770 0.02300
C 	C 	0.24790 0.93380 0.59780 -0.04600
H 	H 	0.26050 0.91680 0.61840 0.04500
C 	C 	0.26480 0.93540 0.55730 -0.02400
H 	H 	0.28870 0.91940 0.55060 0.03400
C 	C 	0.24610 0.96070 0.52660 -0.01400
C 	C 	0.21050 0.98460 0.53660 0.00700
H 	H 	0.19800 0.00160 0.51600 0.01000
C 	C 	0.19370 0.98300 0.57710 -0.00100
H 	H 	0.16980 0.99900 0.58380 0.02900
N 	N 	0.65900 0.47160 0.20545 -0.28300
C 	C 	0.66780 0.48435 0.16507 0.07700
H 	H 	0.65900 0.50960 0.15260 -0.02200
N 	N 	0.69160 0.45360 0.14624 -0.13400
C 	C 	0.69760 0.42190 0.17500 0.00400
H 	H 	0.71280 0.39700 0.17040 0.02300
C 	C 	0.67750 0.43300 0.21157 -0.01000
H 	H 	0.67650 0.41700 0.23630 0.00100
C 	C 	0.70320 0.45320 0.10010 0.05600
C 	C 	0.71350 0.41540 0.08020 -0.06800
H 	H 	0.70920 0.38970 0.09410 0.05200
C 	C 	0.73020 0.41580 0.03950 -0.03200
H 	H 	0.73720 0.39040 0.02610 0.02400
C 	C 	0.73660 0.45400 0.01880 0.00800
C 	C 	0.72630 0.49190 0.03870 -0.01800
H 	H 	0.73060 0.51750 0.02470 0.01200
C 	C 	0.70960 0.49140 0.07930 -0.08000
H 	H 	0.70270 0.51680 0.09270 0.04800
C 	C 	0.71240 0.45770 0.10770 0.02800
C 	C 	0.74790 0.43380 0.09780 -0.05500
H 	H 	0.76050 0.41680 0.11840 0.04700
C 	C 	0.76480 0.43540 0.05730 -0.02000
H 	H 	0.78870 0.41940 0.05060 0.02900
C 	C 	0.74610 0.46070 0.02660 -0.02000
C 	C 	0.71050 0.48460 0.03660 -0.01000
H 	H 	0.69800 0.50160 0.01600 0.01900
C 	C 	0.69370 0.48300 0.07710 -0.02000
H 	H 	0.66980 0.49900 0.08380 0.02800
N 	N 	0.65900 0.52840 0.29455 -0.28300
C 	C 	0.66780 0.51565 0.33493 0.07700
H 	H 	0.65900 0.49040 0.34740 -0.02200
N 	N 	0.69160 0.54640 0.35376 -0.13300
C 	C 	0.69760 0.57810 0.32500 0.00400
H 	H 	0.71280 0.60300 0.32960 0.02300
C 	C 	0.67750 0.56700 0.28843 -0.00900
H 	H 	0.67650 0.58300 0.26370 0.00100
C 	C 	0.70320 0.54680 0.39990 0.05500
C 	C 	0.71350 0.58460 0.41980 -0.06700
H 	H 	0.70920 0.61030 0.40590 0.05200
C 	C 	0.73020 0.58420 0.46050 -0.03300
H 	H 	0.73720 0.60960 0.47390 0.02800
C 	C 	0.73660 0.54600 0.48120 0.01200
C 	C 	0.72630 0.50810 0.46130 -0.01900
H 	H 	0.73060 0.48250 0.47530 0.01600
C 	C 	0.70960 0.50860 0.42070 -0.07800
H 	H 	0.70270 0.48320 0.40730 0.04700
C 	C 	0.71240 0.54230 0.39230 0.02700
C 	C 	0.74790 0.56620 0.40220 -0.05200
H 	H 	0.76050 0.58320 0.38160 0.04600
C 	C 	0.76480 0.56460 0.44270 -0.02500
H 	H 	0.78870 0.58060 0.44940 0.03300
C 	C 	0.74610 0.53930 0.47340 -0.01100
C 	C 	0.71050 0.51540 0.46340 -0.01600
H 	H 	0.69800 0.49840 0.48400 0.02400
C 	C 	0.69370 0.51700 0.42290 -0.01900
H 	H 	0.66980 0.50100 0.41620 0.02800
N 	N 	0.15900 0.02840 0.79455 -0.28100
C 	C 	0.16780 0.01565 0.83493 0.05600
H 	H 	0.15900 0.99040 0.84740 -0.00700
N 	N 	0.19160 0.04640 0.85376 -0.13000
C 	C 	0.19760 0.07810 0.82500 0.00300
H 	H 	0.21280 0.10300 0.82960 0.02400
C 	C 	0.17750 0.06700 0.78843 -0.01000
H 	H 	0.17650 0.08300 0.76370 0.00100
C 	C 	0.20320 0.04680 0.89990 0.04800
C 	C 	0.21350 0.08460 0.91980 -0.05900
H 	H 	0.20920 0.11030 0.90590 0.04900
C 	C 	0.23020 0.08420 0.96050 -0.03600
H 	H 	0.23720 0.10960 0.97390 0.03300
C 	C 	0.23660 0.04600 0.98120 0.01400
C 	C 	0.22630 0.00810 0.96130 -0.02200
H 	H 	0.23060 0.98250 0.97530 0.02400
C 	C 	0.20960 0.00860 0.92070 -0.05800
H 	H 	0.20270 0.98320 0.90730 0.04900
C 	C 	0.21240 0.04230 0.89230 0.03100
C 	C 	0.24790 0.06620 0.90220 -0.05500
H 	H 	0.26050 0.08320 0.88160 0.04700
C 	C 	0.26480 0.06460 0.94270 -0.03200
H 	H 	0.28870 0.08060 0.94940 0.03700
C 	C 	0.24610 0.03930 0.97340 0.00200
C 	C 	0.21050 0.01540 0.96340 -0.04400
H 	H 	0.19800 0.99840 0.98400 0.04400
C 	C 	0.19370 0.01700 0.92290 -0.03500
H 	H 	0.16980 0.00100 0.91620 0.02700
N 	N 	0.34100 0.02840 0.20545 -0.28100
C 	C 	0.33220 0.01565 0.16507 0.05600
H 	H 	0.34100 0.99040 0.15260 -0.00700
N 	N 	0.30840 0.04640 0.14624 -0.13100
C 	C 	0.30240 0.07810 0.17500 0.00300
H 	H 	0.28720 0.10300 0.17040 0.02300
C 	C 	0.32250 0.06700 0.21157 -0.01000
H 	H 	0.32350 0.08300 0.23630 0.00100
C 	C 	0.29680 0.04680 0.10010 0.05000
C 	C 	0.28650 0.08460 0.08020 -0.06100
H 	H 	0.29080 0.11030 0.09410 0.05000
C 	C 	0.26980 0.08420 0.03950 -0.03300
H 	H 	0.26280 0.10960 0.02610 0.02500
C 	C 	0.26340 0.04600 0.01880 0.00700
C 	C 	0.27370 0.00810 0.03870 -0.02000
H 	H 	0.26940 0.98250 0.02470 0.01700
C 	C 	0.29040 0.00860 0.07930 -0.06300
H 	H 	0.29730 0.98320 0.09270 0.05100
C 	C 	0.28760 0.04230 0.10770 0.03200
C 	C 	0.25210 0.06620 0.09780 -0.06100
H 	H 	0.23950 0.08320 0.11840 0.04800
C 	C 	0.23520 0.06460 0.05730 -0.02100
H 	H 	0.21130 0.08060 0.05060 0.02800
C 	C 	0.25390 0.03930 0.02660 -0.01700
C 	C 	0.28950 0.01540 0.03660 -0.03200
H 	H 	0.30200 0.99840 0.01600 0.03300
C 	C 	0.30630 0.01700 0.07710 -0.03900
H 	H 	0.33020 0.00100 0.08380 0.02700
N 	N 	0.84100 0.52840 0.70545 -0.28200
C 	C 	0.83220 0.51565 0.66507 0.07800
H 	H 	0.84100 0.49040 0.65260 -0.02200
N 	N 	0.80840 0.54640 0.64624 -0.13300
C 	C 	0.80240 0.57810 0.67500 0.00400
H 	H 	0.78720 0.60300 0.67040 0.02300
C 	C 	0.82250 0.56700 0.71157 -0.00900
H 	H 	0.82350 0.58300 0.73630 0.00100
C 	C 	0.79680 0.54680 0.60010 0.05500
C 	C 	0.78650 0.58460 0.58020 -0.06600
H 	H 	0.79080 0.61030 0.59410 0.05200
C 	C 	0.76980 0.58420 0.53950 -0.03300
H 	H 	0.76280 0.60960 0.52610 0.02800
C 	C 	0.76340 0.54600 0.51880 0.01100
C 	C 	0.77370 0.50810 0.53870 -0.01900
H 	H 	0.76940 0.48250 0.52470 0.01500
C 	C 	0.79040 0.50860 0.57930 -0.07700
H 	H 	0.79730 0.48320 0.59270 0.04700
C 	C 	0.78760 0.54230 0.60770 0.02700
C 	C 	0.75210 0.56620 0.59780 -0.05200
H 	H 	0.73950 0.58320 0.61840 0.04600
C 	C 	0.73520 0.56460 0.55730 -0.02600
H 	H 	0.71130 0.58060 0.55060 0.03300
C 	C 	0.75390 0.53930 0.52660 -0.01000
C 	C 	0.78950 0.51540 0.53660 -0.01600
H 	H 	0.80200 0.49840 0.51600 0.02500
C 	C 	0.80630 0.51700 0.57710 -0.01900
H 	H 	0.83020 0.50100 0.58380 0.02900
N 	N 	0.84100 0.47160 0.79455 -0.28200
C 	C 	0.83220 0.48435 0.83493 0.07800
H 	H 	0.84100 0.50960 0.84740 -0.02100
N 	N 	0.80840 0.45360 0.85376 -0.13300
C 	C 	0.80240 0.42190 0.82500 0.00400
H 	H 	0.78720 0.39700 0.82960 0.02300
C 	C 	0.82250 0.43300 0.78843 -0.00900
H 	H 	0.82350 0.41700 0.76370 0.00100
C 	C 	0.79680 0.45320 0.89990 0.05300
C 	C 	0.78650 0.41540 0.91980 -0.06500
H 	H 	0.79080 0.38970 0.90590 0.05100
C 	C 	0.76980 0.41580 0.96050 -0.03400
H 	H 	0.76280 0.39040 0.97390 0.03300
C 	C 	0.76340 0.45400 0.98120 0.01500
C 	C 	0.77370 0.49190 0.96130 -0.02000
H 	H 	0.76940 0.51750 0.97530 0.01900
C 	C 	0.79040 0.49140 0.92070 -0.07500
H 	H 	0.79730 0.51680 0.90730 0.04600
C 	C 	0.78760 0.45770 0.89230 0.02700
C 	C 	0.75210 0.43380 0.90220 -0.04900
H 	H 	0.73950 0.41680 0.88160 0.04500
C 	C 	0.73520 0.43540 0.94270 -0.03100
H 	H 	0.71130 0.41940 0.94940 0.03700
C 	C 	0.75390 0.46070 0.97340 -0.00100
C 	C 	0.78950 0.48460 0.96340 -0.02200
H 	H 	0.80200 0.50160 0.98400 0.03000
C 	C 	0.80630 0.48300 0.92290 -0.01800
H 	H 	0.83020 0.49900 0.91620 0.02900
N 	N 	0.34100 0.97160 0.29455 -0.28300
C 	C 	0.33220 0.98435 0.33493 0.09900
H 	H 	0.34100 0.00960 0.34740 -0.03600
N 	N 	0.30840 0.95360 0.35376 -0.13600
C 	C 	0.30240 0.92190 0.32500 0.00400
H 	H 	0.28720 0.89700 0.32960 0.02300
C 	C 	0.32250 0.93300 0.28843 -0.00900
H 	H 	0.32350 0.91700 0.26370 0.00100
C 	C 	0.29680 0.95320 0.39990 0.06100
C 	C 	0.28650 0.91540 0.41980 -0.07300
H 	H 	0.29080 0.88970 0.40590 0.05400
C 	C 	0.26980 0.91580 0.46050 -0.03100
H 	H 	0.26280 0.89040 0.47390 0.02700
C 	C 	0.26340 0.95400 0.48120 0.01200
C 	C 	0.27370 0.99190 0.46130 -0.01700
H 	H 	0.26940 0.01750 0.47530 0.01000
C 	C 	0.29040 0.99140 0.42070 -0.09500
H 	H 	0.29730 0.01680 0.40730 0.04400
C 	C 	0.28760 0.95770 0.39230 0.02300
C 	C 	0.25210 0.93380 0.40220 -0.04600
H 	H 	0.23950 0.91680 0.38160 0.04500
C 	C 	0.23520 0.93540 0.44270 -0.02500
H 	H 	0.21130 0.91940 0.44940 0.03300
C 	C 	0.25390 0.96070 0.47340 -0.01400
C 	C 	0.28950 0.98460 0.46340 0.00600
H 	H 	0.30200 0.00160 0.48400 0.01000
C 	C 	0.30630 0.98300 0.42290 -0.00100
H 	H 	0.33020 0.99900 0.41620 0.02900
N 	N 	0.09100 0.04455 0.72160 -0.28400
C 	C 	0.08220 0.08493 0.73435 0.07700
H 	H 	0.09100 0.09740 0.75960 -0.02200
N 	N 	0.05840 0.10376 0.70360 -0.13500
C 	C 	0.05240 0.07500 0.67190 0.00200
H 	H 	0.03720 0.07960 0.64700 0.02000
C 	C 	0.07250 0.03843 0.68300 -0.01100
H 	H 	0.07350 0.01370 0.66700 -0.00300
C 	C 	0.04680 0.14990 0.70320 0.07500
C 	C 	0.03650 0.16980 0.66540 -0.03900
H 	H 	0.04080 0.15590 0.63970 0.04000
C 	C 	0.01980 0.21050 0.66580 -0.05800
H 	H 	0.01280 0.22390 0.64040 0.03400
C 	C 	0.01340 0.23120 0.70400 -0.03300
C 	C 	0.02370 0.21130 0.74190 -0.00200
H 	H 	0.01940 0.22530 0.76750 0.00600
C 	C 	0.04040 0.17070 0.74140 -0.08400
H 	H 	0.04730 0.15730 0.76680 0.04800
C 	C 	0.03760 0.14230 0.70770 0.01900
C 	C 	0.00210 0.15220 0.68380 -0.12000
H 	H 	0.98950 0.13160 0.66680 0.07800
C 	C 	0.98520 0.19270 0.68540 0.03500
H 	H 	0.96130 0.19940 0.66940 0.01300
C 	C 	0.00390 0.22340 0.71070 0.00400
C 	C 	0.03950 0.21340 0.73460 -0.02100
H 	H 	0.05200 0.23400 0.75160 0.02600
C 	C 	0.05630 0.17290 0.73300 -0.02400
H 	H 	0.08020 0.16620 0.74900 0.03000
N 	N 	0.59100 0.54455 0.22160 -0.28300
C 	C 	0.58220 0.58493 0.23435 0.07700
H 	H 	0.59100 0.59740 0.25960 -0.02200
N 	N 	0.55840 0.60376 0.20360 -0.13300
C 	C 	0.55240 0.57500 0.17190 0.00400
H 	H 	0.53720 0.57960 0.14700 0.02300
C 	C 	0.57250 0.53843 0.18300 -0.01000
H 	H 	0.57350 0.51370 0.16700 0.00100
C 	C 	0.54680 0.64990 0.20320 0.05500
C 	C 	0.53650 0.66980 0.16540 -0.06700
H 	H 	0.54080 0.65590 0.13970 0.05100
C 	C 	0.51980 0.71050 0.16580 -0.03300
H 	H 	0.51280 0.72390 0.14040 0.02800
C 	C 	0.51340 0.73120 0.20400 0.01200
C 	C 	0.52370 0.71130 0.24190 -0.01900
H 	H 	0.51940 0.72530 0.26750 0.01600
C 	C 	0.54040 0.67070 0.24140 -0.07800
H 	H 	0.54730 0.65730 0.26680 0.04700
C 	C 	0.53760 0.64230 0.20770 0.02700
C 	C 	0.50210 0.65220 0.18380 -0.05200
H 	H 	0.48950 0.63160 0.16680 0.04600
C 	C 	0.48520 0.69270 0.18540 -0.02600
H 	H 	0.46130 0.69940 0.16940 0.03300
C 	C 	0.50390 0.72340 0.21070 -0.01100
C 	C 	0.53950 0.71340 0.23460 -0.01600
H 	H 	0.55200 0.73400 0.25160 0.02400
C 	C 	0.55630 0.67290 0.23300 -0.01900
H 	H 	0.58020 0.66620 0.24900 0.02800
N 	N 	0.59100 0.45545 0.27840 -0.28300
C 	C 	0.58220 0.41507 0.26565 0.07700
H 	H 	0.59100 0.40260 0.24040 -0.02200
N 	N 	0.55840 0.39624 0.29640 -0.13300
C 	C 	0.55240 0.42500 0.32810 0.00400
H 	H 	0.53720 0.42040 0.35300 0.02300
C 	C 	0.57250 0.46157 0.31700 -0.00900
H 	H 	0.57350 0.48630 0.33300 0.00100
C 	C 	0.54680 0.35010 0.29680 0.05500
C 	C 	0.53650 0.33020 0.33460 -0.06700
H 	H 	0.54080 0.34410 0.36030 0.05200
C 	C 	0.51980 0.28950 0.33420 -0.03300
H 	H 	0.51280 0.27610 0.35960 0.02800
C 	C 	0.51340 0.26880 0.29600 0.01200
C 	C 	0.52370 0.28870 0.25810 -0.01900
H 	H 	0.51940 0.27470 0.23250 0.01600
C 	C 	0.54040 0.32930 0.25860 -0.07800
H 	H 	0.54730 0.34270 0.23320 0.04700
C 	C 	0.53760 0.35770 0.29230 0.02700
C 	C 	0.50210 0.34780 0.31620 -0.05200
H 	H 	0.48950 0.36840 0.33320 0.04600
C 	C 	0.48520 0.30730 0.31460 -0.02500
H 	H 	0.46130 0.30060 0.33060 0.03300
C 	C 	0.50390 0.27660 0.28930 -0.01100
C 	C 	0.53950 0.28660 0.26540 -0.01600
H 	H 	0.55200 0.26600 0.24840 0.02400
C 	C 	0.55630 0.32710 0.26700 -0.01900
H 	H 	0.58020 0.33380 0.25100 0.02800
N 	N 	0.09100 0.95545 0.77840 -0.28000
C 	C 	0.08220 0.91507 0.76565 0.07800
H 	H 	0.09100 0.90260 0.74040 -0.02200
N 	N 	0.05840 0.89624 0.79640 -0.13500
C 	C 	0.05240 0.92500 0.82810 0.00400
H 	H 	0.03720 0.92040 0.85300 0.02200
C 	C 	0.07250 0.96157 0.81700 -0.00900
H 	H 	0.07350 0.98630 0.83300 0.00500
C 	C 	0.04680 0.85010 0.79680 0.07500
C 	C 	0.03650 0.83020 0.83460 -0.03900
H 	H 	0.04080 0.84410 0.86030 0.04100
C 	C 	0.01980 0.78950 0.83420 -0.05800
H 	H 	0.01280 0.77610 0.85960 0.03500
C 	C 	0.01340 0.76880 0.79600 -0.03300
C 	C 	0.02370 0.78870 0.75810 -0.00200
H 	H 	0.01940 0.77470 0.73250 0.00600
C 	C 	0.04040 0.82930 0.75860 -0.08400
H 	H 	0.04730 0.84270 0.73320 0.04900
C 	C 	0.03760 0.85770 0.79230 0.01900
C 	C 	0.00210 0.84780 0.81620 -0.12100
H 	H 	0.98950 0.86840 0.83320 0.07900
C 	C 	0.98520 0.80730 0.81460 0.03500
H 	H 	0.96130 0.80060 0.83060 0.01300
C 	C 	0.00390 0.77660 0.78930 0.00400
C 	C 	0.03950 0.78660 0.76540 -0.02100
H 	H 	0.05200 0.76600 0.74840 0.02600
C 	C 	0.05630 0.82710 0.76700 -0.02400
H 	H 	0.08020 0.83380 0.75100 0.03000
N 	N 	0.90900 0.54455 0.77840 -0.28300
C 	C 	0.91780 0.58493 0.76565 0.07800
H 	H 	0.90900 0.59740 0.74040 -0.02100
N 	N 	0.94160 0.60376 0.79640 -0.13200
C 	C 	0.94760 0.57500 0.82810 0.00400
H 	H 	0.96280 0.57960 0.85300 0.02700
C 	C 	0.92750 0.53843 0.81700 -0.00900
H 	H 	0.92650 0.51370 0.83300 0.00200
C 	C 	0.95320 0.64990 0.79680 0.03400
C 	C 	0.96350 0.66980 0.83460 -0.09400
H 	H 	0.95920 0.65590 0.86030 0.06300
C 	C 	0.98020 0.71050 0.83420 -0.00800
H 	H 	0.98720 0.72390 0.85960 0.02300
C 	C 	0.98660 0.73120 0.79600 0.05700
C 	C 	0.97630 0.71130 0.75810 -0.03700
H 	H 	0.98060 0.72530 0.73250 0.02600
C 	C 	0.95960 0.67070 0.75860 -0.07200
H 	H 	0.95270 0.65730 0.73320 0.04600
C 	C 	0.96240 0.64230 0.79230 0.03600
C 	C 	0.99790 0.65220 0.81620 0.01700
H 	H 	0.01050 0.63160 0.83320 0.01400
C 	C 	0.01480 0.69270 0.81460 -0.08600
H 	H 	0.03870 0.69940 0.83060 0.05300
C 	C 	0.99610 0.72340 0.78930 -0.02600
C 	C 	0.96050 0.71340 0.76540 -0.01100
H 	H 	0.94800 0.73400 0.74840 0.02300
C 	C 	0.94370 0.67290 0.76700 -0.01400
H 	H 	0.91980 0.66620 0.75100 0.02600
N 	N 	0.40900 0.04455 0.27840 -0.28400
C 	C 	0.41780 0.08493 0.26565 0.07700
H 	H 	0.40900 0.09740 0.24040 -0.02200
N 	N 	0.44160 0.10376 0.29640 -0.13300
C 	C 	0.44760 0.07500 0.32810 0.00300
H 	H 	0.46280 0.07960 0.35300 0.02200
C 	C 	0.42750 0.03843 0.31700 -0.01000
H 	H 	0.42650 0.01370 0.33300 -0.00300
C 	C 	0.45320 0.14990 0.29680 0.05500
C 	C 	0.46350 0.16980 0.33460 -0.06600
H 	H 	0.45920 0.15590 0.36030 0.05100
C 	C 	0.48020 0.21050 0.33420 -0.03300
H 	H 	0.48720 0.22390 0.35960 0.02800
C 	C 	0.48660 0.23120 0.29600 0.01200
C 	C 	0.47630 0.21130 0.25810 -0.01900
H 	H 	0.48060 0.22530 0.23250 0.01600
C 	C 	0.45960 0.17070 0.25860 -0.07800
H 	H 	0.45270 0.15730 0.23320 0.04700
C 	C 	0.46240 0.14230 0.29230 0.02700
C 	C 	0.49790 0.15220 0.31620 -0.05200
H 	H 	0.51050 0.13160 0.33320 0.04600
C 	C 	0.51480 0.19270 0.31460 -0.02600
H 	H 	0.53870 0.19940 0.33060 0.03300
C 	C 	0.49610 0.22340 0.28930 -0.01100
C 	C 	0.46050 0.21340 0.26540 -0.01600
H 	H 	0.44800 0.23400 0.24840 0.02400
C 	C 	0.44370 0.17290 0.26700 -0.01900
H 	H 	0.41980 0.16620 0.25100 0.02800
N 	N 	0.40900 0.95545 0.22160 -0.28000
C 	C 	0.41780 0.91507 0.23435 0.07800
H 	H 	0.40900 0.90260 0.25960 -0.02100
N 	N 	0.44160 0.89624 0.20360 -0.13300
C 	C 	0.44760 0.92500 0.17190 0.00500
H 	H 	0.46280 0.92040 0.14700 0.02400
C 	C 	0.42750 0.96157 0.18300 -0.00900
H 	H 	0.42650 0.98630 0.16700 0.00500
C 	C 	0.45320 0.85010 0.20320 0.05500
C 	C 	0.46350 0.83020 0.16540 -0.06700
H 	H 	0.45920 0.84410 0.13970 0.05200
C 	C 	0.48020 0.78950 0.16580 -0.03300
H 	H 	0.48720 0.77610 0.14040 0.02800
C 	C 	0.48660 0.76880 0.20400 0.01200
C 	C 	0.47630 0.78870 0.24190 -0.01900
H 	H 	0.48060 0.77470 0.26750 0.01600
C 	C 	0.45960 0.82930 0.24140 -0.07800
H 	H 	0.45270 0.84270 0.26680 0.04700
C 	C 	0.46240 0.85770 0.20770 0.02700
C 	C 	0.49790 0.84780 0.18380 -0.05200
H 	H 	0.51050 0.86840 0.16680 0.04600
C 	C 	0.51480 0.80730 0.18540 -0.02600
H 	H 	0.53870 0.80060 0.16940 0.03300
C 	C 	0.49610 0.77660 0.21070 -0.01100
C 	C 	0.46050 0.78660 0.23460 -0.01600
H 	H 	0.44800 0.76600 0.25160 0.02400
C 	C 	0.44370 0.82710 0.23300 -0.01900
H 	H 	0.41980 0.83380 0.24900 0.02800
N 	N 	0.90900 0.45545 0.72160 -0.28300
C 	C 	0.91780 0.41507 0.73435 0.07800
H 	H 	0.90900 0.40260 0.75960 -0.02100
N 	N 	0.94160 0.39624 0.70360 -0.13200
C 	C 	0.94760 0.42500 0.67190 0.00400
H 	H 	0.96280 0.42040 0.64700 0.02600
C 	C 	0.92750 0.46157 0.68300 -0.00900
H 	H 	0.92650 0.48630 0.66700 0.00200
C 	C 	0.95320 0.35010 0.70320 0.03400
C 	C 	0.96350 0.33020 0.66540 -0.09400
H 	H 	0.95920 0.34410 0.63970 0.06300
C 	C 	0.98020 0.28950 0.66580 -0.00800
H 	H 	0.98720 0.27610 0.64040 0.02200
C 	C 	0.98660 0.26880 0.70400 0.05700
C 	C 	0.97630 0.28870 0.74190 -0.03700
H 	H 	0.98060 0.27470 0.76750 0.02600
C 	C 	0.95960 0.32930 0.74140 -0.07200
H 	H 	0.95270 0.34270 0.76680 0.04600
C 	C 	0.96240 0.35770 0.70770 0.03600
C 	C 	0.99790 0.34780 0.68380 0.01700
H 	H 	0.01050 0.36840 0.66680 0.01400
C 	C 	0.01480 0.30730 0.68540 -0.08600
H 	H 	0.03870 0.30060 0.66940 0.05300
C 	C 	0.99610 0.27660 0.71070 -0.02600
C 	C 	0.96050 0.28660 0.73460 -0.01100
H 	H 	0.94800 0.26600 0.75160 0.02300
C 	C 	0.94370 0.32710 0.73300 -0.01400
H 	H 	0.91980 0.33380 0.74900 0.02600
Zn	Zn	0.12500 0.00000 0.75000 1.17000
Zn	Zn	0.62500 0.50000 0.25000 1.17300
Zn	Zn	0.37500 0.00000 0.25000 1.17000
Zn	Zn	0.87500 0.50000 0.75000 1.17300
N 	N 	0.70545 0.15900 0.97160 -0.28300
C 	C 	0.66507 0.16780 0.98435 0.09900
H 	H 	0.65260 0.15900 0.00960 -0.03700
N 	N 	0.64624 0.19160 0.95360 -0.13600
C 	C 	0.67500 0.19760 0.92190 0.00400
H 	H 	0.67040 0.21280 0.89700 0.02300
C 	C 	0.71157 0.17750 0.93300 -0.00900
H 	H 	0.73630 0.17650 0.91700 0.00100
C 	C 	0.60010 0.20320 0.95320 0.06100
C 	C 	0.58020 0.21350 0.91540 -0.07300
H 	H 	0.59410 0.20920 0.88970 0.05400
C 	C 	0.53950 0.23020 0.91580 -0.03100
H 	H 	0.52610 0.23720 0.89040 0.02800
C 	C 	0.51880 0.23660 0.95400 0.01300
C 	C 	0.53870 0.22630 0.99190 -0.01800
H 	H 	0.52470 0.23060 0.01750 0.01100
C 	C 	0.57930 0.20960 0.99140 -0.09500
H 	H 	0.59270 0.20270 0.01680 0.04400
C 	C 	0.60770 0.21240 0.95770 0.02300
C 	C 	0.59780 0.24790 0.93380 -0.04600
H 	H 	0.61840 0.26050 0.91680 0.04500
C 	C 	0.55730 0.26480 0.93540 -0.02400
H 	H 	0.55060 0.28870 0.91940 0.03400
C 	C 	0.52660 0.24610 0.96070 -0.01400
C 	C 	0.53660 0.21050 0.98460 0.00700
H 	H 	0.51600 0.19800 0.00160 0.01000
C 	C 	0.57710 0.19370 0.98300 -0.00100
H 	H 	0.58380 0.16980 0.99900 0.02900
N 	N 	0.20545 0.65900 0.47160 -0.28300
C 	C 	0.16507 0.66780 0.48435 0.07700
H 	H 	0.15260 0.65900 0.50960 -0.02200
N 	N 	0.14624 0.69160 0.45360 -0.13400
C 	C 	0.17500 0.69760 0.42190 0.00400
H 	H 	0.17040 0.71280 0.39700 0.02300
C 	C 	0.21157 0.67750 0.43300 -0.01000
H 	H 	0.23630 0.67650 0.41700 0.00100
C 	C 	0.10010 0.70320 0.45320 0.05600
C 	C 	0.08020 0.71350 0.41540 -0.06800
H 	H 	0.09410 0.70920 0.38970 0.05200
C 	C 	0.03950 0.73020 0.41580 -0.03200
H 	H 	0.02610 0.73720 0.39040 0.02400
C 	C 	0.01880 0.73660 0.45400 0.00800
C 	C 	0.03870 0.72630 0.49190 -0.01800
H 	H 	0.02470 0.73060 0.51750 0.01200
C 	C 	0.07930 0.70960 0.49140 -0.08000
H 	H 	0.09270 0.70270 0.51680 0.04800
C 	C 	0.10770 0.71240 0.45770 0.02800
C 	C 	0.09780 0.74790 0.43380 -0.05500
H 	H 	0.11840 0.76050 0.41680 0.04700
C 	C 	0.05730 0.76480 0.43540 -0.02000
H 	H 	0.05060 0.78870 0.41940 0.02900
C 	C 	0.02660 0.74610 0.46070 -0.02000
C 	C 	0.03660 0.71050 0.48460 -0.01000
H 	H 	0.01600 0.69800 0.50160 0.01900
C 	C 	0.07710 0.69370 0.48300 -0.02000
H 	H 	0.08380 0.66980 0.49900 0.02800
N 	N 	0.29455 0.65900 0.52840 -0.28300
C 	C 	0.33493 0.66780 0.51565 0.07700
H 	H 	0.34740 0.65900 0.49040 -0.02200
N 	N 	0.35376 0.69160 0.54640 -0.13300
C 	C 	0.32500 0.69760 0.57810 0.00400
H 	H 	0.32960 0.71280 0.60300 0.02300
C 	C 	0.28843 0.67750 0.56700 -0.00900
H 	H 	0.26370 0.67650 0.58300 0.00100
C 	C 	0.39990 0.70320 0.54680 0.05500
C 	C 	0.41980 0.71350 0.58460 -0.06700
H 	H 	0.40590 0.70920 0.61030 0.05200
C 	C 	0.46050 0.73020 0.58420 -0.03300
H 	H 	0.47390 0.73720 0.60960 0.02800
C 	C 	0.48120 0.73660 0.54600 0.01200
C 	C 	0.46130 0.72630 0.50810 -0.01900
H 	H 	0.47530 0.73060 0.48250 0.01600
C 	C 	0.42070 0.70960 0.50860 -0.07800
H 	H 	0.40730 0.70270 0.48320 0.04700
C 	C 	0.39230 0.71240 0.54230 0.02700
C 	C 	0.40220 0.74790 0.56620 -0.05200
H 	H 	0.38160 0.76050 0.58320 0.04600
C 	C 	0.44270 0.76480 0.56460 -0.02500
H 	H 	0.44940 0.78870 0.58060 0.03300
C 	C 	0.47340 0.74610 0.53930 -0.01100
C 	C 	0.46340 0.71050 0.51540 -0.01600
H 	H 	0.48400 0.69800 0.49840 0.02400
C 	C 	0.42290 0.69370 0.51700 -0.01900
H 	H 	0.41620 0.66980 0.50100 0.02800
N 	N 	0.79455 0.15900 0.02840 -0.28100
C 	C 	0.83493 0.16780 0.01565 0.05600
H 	H 	0.84740 0.15900 0.99040 -0.00700
N 	N 	0.85376 0.19160 0.04640 -0.13000
C 	C 	0.82500 0.19760 0.07810 0.00300
H 	H 	0.82960 0.21280 0.10300 0.02400
C 	C 	0.78843 0.17750 0.06700 -0.01000
H 	H 	0.76370 0.17650 0.08300 0.00100
C 	C 	0.89990 0.20320 0.04680 0.04800
C 	C 	0.91980 0.21350 0.08460 -0.05900
H 	H 	0.90590 0.20920 0.11030 0.04900
C 	C 	0.96050 0.23020 0.08420 -0.03600
H 	H 	0.97390 0.23720 0.10960 0.03300
C 	C 	0.98120 0.23660 0.04600 0.01400
C 	C 	0.96130 0.22630 0.00810 -0.02200
H 	H 	0.97530 0.23060 0.98250 0.02400
C 	C 	0.92070 0.20960 0.00860 -0.05800
H 	H 	0.90730 0.20270 0.98320 0.04900
C 	C 	0.89230 0.21240 0.04230 0.03100
C 	C 	0.90220 0.24790 0.06620 -0.05500
H 	H 	0.88160 0.26050 0.08320 0.04700
C 	C 	0.94270 0.26480 0.06460 -0.03200
H 	H 	0.94940 0.28870 0.08060 0.03700
C 	C 	0.97340 0.24610 0.03930 0.00200
C 	C 	0.96340 0.21050 0.01540 -0.04400
H 	H 	0.98400 0.19800 0.99840 0.04400
C 	C 	0.92290 0.19370 0.01700 -0.03500
H 	H 	0.91620 0.16980 0.00100 0.02700
N 	N 	0.20545 0.34100 0.02840 -0.28100
C 	C 	0.16507 0.33220 0.01565 0.05600
H 	H 	0.15260 0.34100 0.99040 -0.00700
N 	N 	0.14624 0.30840 0.04640 -0.13100
C 	C 	0.17500 0.30240 0.07810 0.00300
H 	H 	0.17040 0.28720 0.10300 0.02300
C 	C 	0.21157 0.32250 0.06700 -0.01000
H 	H 	0.23630 0.32350 0.08300 0.00100
C 	C 	0.10010 0.29680 0.04680 0.05000
C 	C 	0.08020 0.28650 0.08460 -0.06100
H 	H 	0.09410 0.29080 0.11030 0.05000
C 	C 	0.03950 0.26980 0.08420 -0.03300
H 	H 	0.02610 0.26280 0.10960 0.02500
C 	C 	0.01880 0.26340 0.04600 0.00700
C 	C 	0.03870 0.27370 0.00810 -0.02000
H 	H 	0.02470 0.26940 0.98250 0.01700
C 	C 	0.07930 0.29040 0.00860 -0.06300
H 	H 	0.09270 0.29730 0.98320 0.05100
C 	C 	0.10770 0.28760 0.04230 0.03200
C 	C 	0.09780 0.25210 0.06620 -0.06100
H 	H 	0.11840 0.23950 0.08320 0.04800
C 	C 	0.05730 0.23520 0.06460 -0.02100
H 	H 	0.05060 0.21130 0.08060 0.02800
C 	C 	0.02660 0.25390 0.03930 -0.01700
C 	C 	0.03660 0.28950 0.01540 -0.03200
H 	H 	0.01600 0.30200 0.99840 0.03300
C 	C 	0.07710 0.30630 0.01700 -0.03900
H 	H 	0.08380 0.33020 0.00100 0.02700
N 	N 	0.70545 0.84100 0.52840 -0.28200
C 	C 	0.66507 0.83220 0.51565 0.07800
H 	H 	0.65260 0.84100 0.49040 -0.02200
N 	N 	0.64624 0.80840 0.54640 -0.13300
C 	C 	0.67500 0.80240 0.57810 0.00400
H 	H 	0.67040 0.78720 0.60300 0.02300
C 	C 	0.71157 0.82250 0.56700 -0.00900
H 	H 	0.73630 0.82350 0.58300 0.00100
C 	C 	0.60010 0.79680 0.54680 0.05500
C 	C 	0.58020 0.78650 0.58460 -0.06600
H 	H 	0.59410 0.79080 0.61030 0.05200
C 	C 	0.53950 0.76980 0.58420 -0.03300
H 	H 	0.52610 0.76280 0.60960 0.02800
C 	C 	0.51880 0.76340 0.54600 0.01100
C 	C 	0.53870 0.77370 0.50810 -0.01900
H 	H 	0.52470 0.76940 0.48250 0.01500
C 	C 	0.57930 0.79040 0.50860 -0.07700
H 	H 	0.59270 0.79730 0.48320 0.04700
C 	C 	0.60770 0.78760 0.54230 0.02700
C 	C 	0.59780 0.75210 0.56620 -0.05200
H 	H 	0.61840 0.73950 0.58320 0.04600
C 	C 	0.55730 0.73520 0.56460 -0.02600
H 	H 	0.55060 0.71130 0.58060 0.03300
C 	C 	0.52660 0.75390 0.53930 -0.01000
C 	C 	0.53660 0.78950 0.51540 -0.01600
H 	H 	0.51600 0.80200 0.49840 0.02500
C 	C 	0.57710 0.80630 0.51700 -0.01900
H 	H 	0.58380 0.83020 0.50100 0.02900
N 	N 	0.79455 0.84100 0.47160 -0.28200
C 	C 	0.83493 0.83220 0.48435 0.07800
H 	H 	0.84740 0.84100 0.50960 -0.02100
N 	N 	0.85376 0.80840 0.45360 -0.13300
C 	C 	0.82500 0.80240 0.42190 0.00400
H 	H 	0.82960 0.78720 0.39700 0.02300
C 	C 	0.78843 0.82250 0.43300 -0.00900
H 	H 	0.76370 0.82350 0.41700 0.00100
C 	C 	0.89990 0.79680 0.45320 0.05300
C 	C 	0.91980 0.78650 0.41540 -0.06500
H 	H 	0.90590 0.79080 0.38970 0.05100
C 	C 	0.96050 0.76980 0.41580 -0.03400
H 	H 	0.97390 0.76280 0.39040 0.03300
C 	C 	0.98120 0.76340 0.45400 0.01500
C 	C 	0.96130 0.77370 0.49190 -0.02000
H 	H 	0.97530 0.76940 0.51750 0.01900
C 	C 	0.92070 0.79040 0.49140 -0.07500
H 	H 	0.90730 0.79730 0.51680 0.04600
C 	C 	0.89230 0.78760 0.45770 0.02700
C 	C 	0.90220 0.75210 0.43380 -0.04900
H 	H 	0.88160 0.73950 0.41680 0.04500
C 	C 	0.94270 0.73520 0.43540 -0.03100
H 	H 	0.94940 0.71130 0.41940 0.03700
C 	C 	0.97340 0.75390 0.46070 -0.00100
C 	C 	0.96340 0.78950 0.48460 -0.02200
H 	H 	0.98400 0.80200 0.50160 0.03000
C 	C 	0.92290 0.80630 0.48300 -0.01800
H 	H 	0.91620 0.83020 0.49900 0.02900
N 	N 	0.29455 0.34100 0.97160 -0.28300
C 	C 	0.33493 0.33220 0.98435 0.09900
H 	H 	0.34740 0.34100 0.00960 -0.03600
N 	N 	0.35376 0.30840 0.95360 -0.13600
C 	C 	0.32500 0.30240 0.92190 0.00400
H 	H 	0.32960 0.28720 0.89700 0.02300
C 	C 	0.28843 0.32250 0.93300 -0.00900
H 	H 	0.26370 0.32350 0.91700 0.00100
C 	C 	0.39990 0.29680 0.95320 0.06100
C 	C 	0.41980 0.28650 0.91540 -0.07300
H 	H 	0.40590 0.29080 0.88970 0.05400
C 	C 	0.46050 0.26980 0.91580 -0.03100
H 	H 	0.47390 0.26280 0.89040 0.02700
C 	C 	0.48120 0.26340 0.95400 0.01200
C 	C 	0.46130 0.27370 0.99190 -0.01700
H 	H 	0.47530 0.26940 0.01750 0.01000
C 	C 	0.42070 0.29040 0.99140 -0.09500
H 	H 	0.40730 0.29730 0.01680 0.04400
C 	C 	0.39230 0.28760 0.95770 0.02300
C 	C 	0.40220 0.25210 0.93380 -0.04600
H 	H 	0.38160 0.23950 0.91680 0.04500
C 	C 	0.44270 0.23520 0.93540 -0.02500
H 	H 	0.44940 0.21130 0.91940 0.03300
C 	C 	0.47340 0.25390 0.96070 -0.01400
C 	C 	0.46340 0.28950 0.98460 0.00600
H 	H 	0.48400 0.30200 0.00160 0.01000
C 	C 	0.42290 0.30630 0.98300 -0.00100
H 	H 	0.41620 0.33020 0.99900 0.02900
N 	N 	0.27840 0.59100 0.45545 -0.28300
C 	C 	0.26565 0.58220 0.41507 0.07700
H 	H 	0.24040 0.59100 0.40260 -0.02200
N 	N 	0.29640 0.55840 0.39624 -0.13300
C 	C 	0.32810 0.55240 0.42500 0.00400
H 	H 	0.35300 0.53720 0.42040 0.02300
C 	C 	0.31700 0.57250 0.46157 -0.00900
H 	H 	0.33300 0.57350 0.48630 0.00100
C 	C 	0.29680 0.54680 0.35010 0.05500
C 	C 	0.33460 0.53650 0.33020 -0.06700
H 	H 	0.36030 0.54080 0.34410 0.05200
C 	C 	0.33420 0.51980 0.28950 -0.03300
H 	H 	0.35960 0.51280 0.27610 0.02800
C 	C 	0.29600 0.51340 0.26880 0.01200
C 	C 	0.25810 0.52370 0.28870 -0.01900
H 	H 	0.23250 0.51940 0.27470 0.01600
C 	C 	0.25860 0.54040 0.32930 -0.07800
H 	H 	0.23320 0.54730 0.34270 0.04700
C 	C 	0.29230 0.53760 0.35770 0.02700
C 	C 	0.31620 0.50210 0.34780 -0.05200
H 	H 	0.33320 0.48950 0.36840 0.04600
C 	C 	0.31460 0.48520 0.30730 -0.02500
H 	H 	0.33060 0.46130 0.30060 0.03300
C 	C 	0.28930 0.50390 0.27660 -0.01100
C 	C 	0.26540 0.53950 0.28660 -0.01600
H 	H 	0.24840 0.55200 0.26600 0.02400
C 	C 	0.26700 0.55630 0.32710 -0.01900
H 	H 	0.25100 0.58020 0.33380 0.02800
N 	N 	0.77840 0.09100 0.95545 -0.28000
C 	C 	0.76565 0.08220 0.91507 0.07800
H 	H 	0.74040 0.09100 0.90260 -0.02200
N 	N 	0.79640 0.05840 0.89624 -0.13500
C 	C 	0.82810 0.05240 0.92500 0.00400
H 	H 	0.85300 0.03720 0.92040 0.02200
C 	C 	0.81700 0.07250 0.96157 -0.00900
H 	H 	0.83300 0.07350 0.98630 0.00500
C 	C 	0.79680 0.04680 0.85010 0.07500
C 	C 	0.83460 0.03650 0.83020 -0.03900
H 	H 	0.86030 0.04080 0.84410 0.04100
C 	C 	0.83420 0.01980 0.78950 -0.05800
H 	H 	0.85960 0.01280 0.77610 0.03500
C 	C 	0.79600 0.01340 0.76880 -0.03300
C 	C 	0.75810 0.02370 0.78870 -0.00200
H 	H 	0.73250 0.01940 0.77470 0.00600
C 	C 	0.75860 0.04040 0.82930 -0.08400
H 	H 	0.73320 0.04730 0.84270 0.04900
C 	C 	0.79230 0.03760 0.85770 0.01900
C 	C 	0.81620 0.00210 0.84780 -0.12100
H 	H 	0.83320 0.98950 0.86840 0.07900
C 	C 	0.81460 0.98520 0.80730 0.03500
H 	H 	0.83060 0.96130 0.80060 0.01300
C 	C 	0.78930 0.00390 0.77660 0.00400
C 	C 	0.76540 0.03950 0.78660 -0.02100
H 	H 	0.74840 0.05200 0.76600 0.02600
C 	C 	0.76700 0.05630 0.82710 -0.02400
H 	H 	0.75100 0.08020 0.83380 0.03000
N 	N 	0.72160 0.09100 0.04455 -0.28400
C 	C 	0.73435 0.08220 0.08493 0.07700
H 	H 	0.75960 0.09100 0.09740 -0.02200
N 	N 	0.70360 0.05840 0.10376 -0.13500
C 	C 	0.67190 0.05240 0.07500 0.00200
H 	H 	0.64700 0.03720 0.07960 0.02000
C 	C 	0.68300 0.07250 0.03843 -0.01100
H 	H 	0.66700 0.07350 0.01370 -0.00300
C 	C 	0.70320 0.04680 0.14990 0.07500
C 	C 	0.66540 0.03650 0.16980 -0.03900
H 	H 	0.63970 0.04080 0.15590 0.04000
C 	C 	0.66580 0.01980 0.21050 -0.05800
H 	H 	0.64040 0.01280 0.22390 0.03400
C 	C 	0.70400 0.01340 0.23120 -0.03300
C 	C 	0.74190 0.02370 0.21130 -0.00200
H 	H 	0.76750 0.01940 0.22530 0.00600
C 	C 	0.74140 0.04040 0.17070 -0.08400
H 	H 	0.76680 0.04730 0.15730 0.04800
C 	C 	0.70770 0.03760 0.14230 0.01900
C 	C 	0.68380 0.00210 0.15220 -0.12000
H 	H 	0.66680 0.98950 0.13160 0.07800
C 	C 	0.68540 0.98520 0.19270 0.03500
H 	H 	0.66940 0.96130 0.19940 0.01300
C 	C 	0.71070 0.00390 0.22340 0.00400
C 	C 	0.73460 0.03950 0.21340 -0.02100
H 	H 	0.75160 0.05200 0.23400 0.02600
C 	C 	0.73300 0.05630 0.17290 -0.02400
H 	H 	0.74900 0.08020 0.16620 0.03000
N 	N 	0.22160 0.59100 0.54455 -0.28300
C 	C 	0.23435 0.58220 0.58493 0.07700
H 	H 	0.25960 0.59100 0.59740 -0.02200
N 	N 	0.20360 0.55840 0.60376 -0.13300
C 	C 	0.17190 0.55240 0.57500 0.00400
H 	H 	0.14700 0.53720 0.57960 0.02300
C 	C 	0.18300 0.57250 0.53843 -0.01000
H 	H 	0.16700 0.57350 0.51370 0.00100
C 	C 	0.20320 0.54680 0.64990 0.05500
C 	C 	0.16540 0.53650 0.66980 -0.06700
H 	H 	0.13970 0.54080 0.65590 0.05100
C 	C 	0.16580 0.51980 0.71050 -0.03300
H 	H 	0.14040 0.51280 0.72390 0.02800
C 	C 	0.20400 0.51340 0.73120 0.01200
C 	C 	0.24190 0.52370 0.71130 -0.01900
H 	H 	0.26750 0.51940 0.72530 0.01600
C 	C 	0.24140 0.54040 0.67070 -0.07800
H 	H 	0.26680 0.54730 0.65730 0.04700
C 	C 	0.20770 0.53760 0.64230 0.02700
C 	C 	0.18380 0.50210 0.65220 -0.05200
H 	H 	0.16680 0.48950 0.63160 0.04600
C 	C 	0.18540 0.48520 0.69270 -0.02600
H 	H 	0.16940 0.46130 0.69940 0.03300
C 	C 	0.21070 0.50390 0.72340 -0.01100
C 	C 	0.23460 0.53950 0.71340 -0.01600
H 	H 	0.25160 0.55200 0.73400 0.02400
C 	C 	0.23300 0.55630 0.67290 -0.01900
H 	H 	0.24900 0.58020 0.66620 0.02800
N 	N 	0.22160 0.40900 0.95545 -0.28000
C 	C 	0.23435 0.41780 0.91507 0.07800
H 	H 	0.25960 0.40900 0.90260 -0.02100
N 	N 	0.20360 0.44160 0.89624 -0.13300
C 	C 	0.17190 0.44760 0.92500 0.00500
H 	H 	0.14700 0.46280 0.92040 0.02400
C 	C 	0.18300 0.42750 0.96157 -0.00900
H 	H 	0.16700 0.42650 0.98630 0.00500
C 	C 	0.20320 0.45320 0.85010 0.05500
C 	C 	0.16540 0.46350 0.83020 -0.06700
H 	H 	0.13970 0.45920 0.84410 0.05200
C 	C 	0.16580 0.48020 0.78950 -0.03300
H 	H 	0.14040 0.48720 0.77610 0.02800
C 	C 	0.20400 0.48660 0.76880 0.01200
C 	C 	0.24190 0.47630 0.78870 -0.01900
H 	H 	0.26750 0.48060 0.77470 0.01600
C 	C 	0.24140 0.45960 0.82930 -0.07800
H 	H 	0.26680 0.45270 0.84270 0.04700
C 	C 	0.20770 0.46240 0.85770 0.02700
C 	C 	0.18380 0.49790 0.84780 -0.05200
H 	H 	0.16680 0.51050 0.86840 0.04600
C 	C 	0.18540 0.51480 0.80730 -0.02600
H 	H 	0.16940 0.53870 0.80060 0.03300
C 	C 	0.21070 0.49610 0.77660 -0.01100
C 	C 	0.23460 0.46050 0.78660 -0.01600
H 	H 	0.25160 0.44800 0.76600 0.02400
C 	C 	0.23300 0.44370 0.82710 -0.01900
H 	H 	0.24900 0.41980 0.83380 0.02800
N 	N 	0.72160 0.90900 0.45545 -0.28300
C 	C 	0.73435 0.91780 0.41507 0.07800
H 	H 	0.75960 0.90900 0.40260 -0.02100
N 	N 	0.70360 0.94160 0.39624 -0.13200
C 	C 	0.67190 0.94760 0.42500 0.00400
H 	H 	0.64700 0.96280 0.42040 0.02600
C 	C 	0.68300 0.92750 0.46157 -0.00900
H 	H 	0.66700 0.92650 0.48630 0.00200
C 	C 	0.70320 0.95320 0.35010 0.03400
C 	C 	0.66540 0.96350 0.33020 -0.09400
H 	H 	0.63970 0.95920 0.34410 0.06300
C 	C 	0.66580 0.98020 0.28950 -0.00800
H 	H 	0.64040 0.98720 0.27610 0.02200
C 	C 	0.70400 0.98660 0.26880 0.05700
C 	C 	0.74190 0.97630 0.28870 -0.03700
H 	H 	0.76750 0.98060 0.27470 0.02600
C 	C 	0.74140 0.95960 0.32930 -0.07200
H 	H 	0.76680 0.95270 0.34270 0.04600
C 	C 	0.70770 0.96240 0.35770 0.03600
C 	C 	0.68380 0.99790 0.34780 0.01700
H 	H 	0.66680 0.01050 0.36840 0.01400
C 	C 	0.68540 0.01480 0.30730 -0.08600
H 	H 	0.66940 0.03870 0.30060 0.05300
C 	C 	0.71070 0.99610 0.27660 -0.02600
C 	C 	0.73460 0.96050 0.28660 -0.01100
H 	H 	0.75160 0.94800 0.26600 0.02300
C 	C 	0.73300 0.94370 0.32710 -0.01400
H 	H 	0.74900 0.91980 0.33380 0.02600
N 	N 	0.77840 0.90900 0.54455 -0.28300
C 	C 	0.76565 0.91780 0.58493 0.07800
H 	H 	0.74040 0.90900 0.59740 -0.02100
N 	N 	0.79640 0.94160 0.60376 -0.13200
C 	C 	0.82810 0.94760 0.57500 0.00400
H 	H 	0.85300 0.96280 0.57960 0.02700
C 	C 	0.81700 0.92750 0.53843 -0.00900
H 	H 	0.83300 0.92650 0.51370 0.00200
C 	C 	0.79680 0.95320 0.64990 0.03400
C 	C 	0.83460 0.96350 0.66980 -0.09400
H 	H 	0.86030 0.95920 0.65590 0.06300
C 	C 	0.83420 0.98020 0.71050 -0.00800
H 	H 	0.85960 0.98720 0.72390 0.02300
C 	C 	0.79600 0.98660 0.73120 0.05700
C 	C 	0.75810 0.97630 0.71130 -0.03700
H 	H 	0.73250 0.98060 0.72530 0.02600
C 	C 	0.75860 0.95960 0.67070 -0.07200
H 	H 	0.73320 0.95270 0.65730 0.04600
C 	C 	0.79230 0.96240 0.64230 0.03600
C 	C 	0.81620 0.99790 0.65220 0.01700
H 	H 	0.83320 0.01050 0.63160 0.01400
C 	C 	0.81460 0.01480 0.69270 -0.08600
H 	H 	0.83060 0.03870 0.69940 0.05300
C 	C 	0.78930 0.99610 0.72340 -0.02600
C 	C 	0.76540 0.96050 0.71340 -0.01100
H 	H 	0.74840 0.94800 0.73400 0.02300
C 	C 	0.76700 0.94370 0.67290 -0.01400
H 	H 	0.75100 0.91980 0.66620 0.02600
N 	N 	0.27840 0.40900 0.04455 -0.28400
C 	C 	0.26565 0.41780 0.08493 0.07700
H 	H 	0.24040 0.40900 0.09740 -0.02200
N 	N 	0.29640 0.44160 0.10376 -0.13300
C 	C 	0.32810 0.44760 0.07500 0.00300
H 	H 	0.35300 0.46280 0.07960 0.02200
C 	C 	0.31700 0.42750 0.03843 -0.01000
H 	H 	0.33300 0.42650 0.01370 -0.00300
C 	C 	0.29680 0.45320 0.14990 0.05500
C 	C 	0.33460 0.46350 0.16980 -0.06600
H 	H 	0.36030 0.45920 0.15590 0.05100
C 	C 	0.33420 0.48020 0.21050 -0.03300
H 	H 	0.35960 0.48720 0.22390 0.02800
C 	C 	0.29600 0.48660 0.23120 0.01200
C 	C 	0.25810 0.47630 0.21130 -0.01900
H 	H 	0.23250 0.48060 0.22530 0.01600
C 	C 	0.25860 0.45960 0.17070 -0.07800
H 	H 	0.23320 0.45270 0.15730 0.04700
C 	C 	0.29230 0.46240 0.14230 0.02700
C 	C 	0.31620 0.49790 0.15220 -0.05200
H 	H 	0.33320 0.51050 0.13160 0.04600
C 	C 	0.31460 0.51480 0.19270 -0.02600
H 	H 	0.33060 0.53870 0.19940 0.03300
C 	C 	0.28930 0.49610 0.22340 -0.01100
C 	C 	0.26540 0.46050 0.21340 -0.01600
H 	H 	0.24840 0.44800 0.23400 0.02400
C 	C 	0.26700 0.44370 0.17290 -0.01900
H 	H 	0.25100 0.41980 0.16620 0.02800
Zn	Zn	0.75000 0.12500 -0.00000 1.17000
Zn	Zn	0.25000 0.62500 0.50000 1.17300
Zn	Zn	0.25000 0.37500 -0.00000 1.17000
Zn	Zn	0.75000 0.87500 0.50000 1.17300
N 	N 	0.45545 0.22160 0.09100 -0.28200
C 	C 	0.41507 0.23435 0.08220 0.07700
H 	H 	0.40260 0.25960 0.09100 -0.02200
N 	N 	0.39624 0.20360 0.05840 -0.13500
C 	C 	0.42500 0.17190 0.05240 0.00300
H 	H 	0.42040 0.14700 0.03720 0.02000
C 	C 	0.46157 0.18300 0.07250 -0.01000
H 	H 	0.48630 0.16700 0.07350 -0.00000
C 	C 	0.35010 0.20320 0.04680 0.07500
C 	C 	0.33020 0.16540 0.03650 -0.03900
H 	H 	0.34410 0.13970 0.04080 0.04000
C 	C 	0.28950 0.16580 0.01980 -0.05800
H 	H 	0.27610 0.14040 0.01280 0.03400
C 	C 	0.26880 0.20400 0.01340 -0.03300
C 	C 	0.28870 0.24190 0.02370 -0.00200
H 	H 	0.27470 0.26750 0.01940 0.00600
C 	C 	0.32930 0.24140 0.04040 -0.08400
H 	H 	0.34270 0.26680 0.04730 0.04900
C 	C 	0.35770 0.20770 0.03760 0.01900
C 	C 	0.34780 0.18380 0.00210 -0.12000
H 	H 	0.36840 0.16680 0.98950 0.07800
C 	C 	0.30730 0.18540 0.98520 0.03500
H 	H 	0.30060 0.16940 0.96130 0.01300
C 	C 	0.27660 0.21070 0.00390 0.00400
C 	C 	0.28660 0.23460 0.03950 -0.02100
H 	H 	0.26600 0.25160 0.05200 0.02600
C 	C 	0.32710 0.23300 0.05630 -0.02400
H 	H 	0.33380 0.24900 0.08020 0.03000
N 	N 	0.95545 0.72160 0.59100 -0.28000
C 	C 	0.91507 0.73435 0.58220 0.07800
H 	H 	0.90260 0.75960 0.59100 -0.02100
N 	N 	0.89624 0.70360 0.55840 -0.13300
C 	C 	0.92500 0.67190 0.55240 0.00500
H 	H 	0.92040 0.64700 0.53720 0.02400
C 	C 	0.96157 0.68300 0.57250 -0.00900
H 	H 	0.98630 0.66700 0.57350 0.00500
C 	C 	0.85010 0.70320 0.54680 0.05500
C 	C 	0.83020 0.66540 0.53650 -0.06700
H 	H 	0.84410 0.63970 0.54080 0.05200
C 	C 	0.78950 0.66580 0.51980 -0.03300
H 	H 	0.77610 0.64040 0.51280 0.02800
C 	C 	0.76880 0.70400 0.51340 0.01200
C 	C 	0.78870 0.74190 0.52370 -0.01900
H 	H 	0.77470 0.76750 0.51940 0.01600
C 	C 	0.82930 0.74140 0.54040 -0.07800
H 	H 	0.84270 0.76680 0.54730 0.04700
C 	C 	0.85770 0.70770 0.53760 0.02700
C 	C 	0.84780 0.68380 0.50210 -0.05200
H 	H 	0.86840 0.66680 0.48950 0.04700
C 	C 	0.80730 0.68540 0.48520 -0.02500
H 	H 	0.80060 0.66940 0.46130 0.03300
C 	C 	0.77660 0.71070 0.50390 -0.01100
C 	C 	0.78660 0.73460 0.53950 -0.01600
H 	H 	0.76600 0.75160 0.55200 0.02400
C 	C 	0.82710 0.73300 0.55630 -0.01900
H 	H 	0.83380 0.74900 0.58020 0.02800
N 	N 	0.04455 0.77840 0.59100 -0.28400
C 	C 	0.08493 0.76565 0.58220 0.07700
H 	H 	0.09740 0.74040 0.59100 -0.02200
N 	N 	0.10376 0.79640 0.55840 -0.13300
C 	C 	0.07500 0.82810 0.55240 0.00300
H 	H 	0.07960 0.85300 0.53720 0.02300
C 	C 	0.03843 0.81700 0.57250 -0.01000
H 	H 	0.01370 0.83300 0.57350 -0.00200
C 	C 	0.14990 0.79680 0.54680 0.05500
C 	C 	0.16980 0.83460 0.53650 -0.06600
H 	H 	0.15590 0.86030 0.54080 0.05200
C 	C 	0.21050 0.83420 0.51980 -0.03300
H 	H 	0.22390 0.85960 0.51280 0.02900
C 	C 	0.23120 0.79600 0.51340 0.01200
C 	C 	0.21130 0.75810 0.52370 -0.01900
H 	H 	0.22530 0.73250 0.51940 0.01600
C 	C 	0.17070 0.75860 0.54040 -0.07800
H 	H 	0.15730 0.73320 0.54730 0.04700
C 	C 	0.14230 0.79230 0.53760 0.02700
C 	C 	0.15220 0.81620 0.50210 -0.05200
H 	H 	0.13160 0.83320 0.48950 0.04600
C 	C 	0.19270 0.81460 0.48520 -0.02500
H 	H 	0.19940 0.83060 0.46130 0.03300
C 	C 	0.22340 0.78930 0.50390 -0.01000
C 	C 	0.21340 0.76540 0.53950 -0.01600
H 	H 	0.23400 0.74840 0.55200 0.02400
C 	C 	0.17290 0.76700 0.55630 -0.01900
H 	H 	0.16620 0.75100 0.58020 0.02800
N 	N 	0.54455 0.27840 0.09100 -0.28300
C 	C 	0.58493 0.26565 0.08220 0.07700
H 	H 	0.59740 0.24040 0.09100 -0.02200
N 	N 	0.60376 0.29640 0.05840 -0.13500
C 	C 	0.57500 0.32810 0.05240 0.00300
H 	H 	0.57960 0.35300 0.03720 0.02100
C 	C 	0.53843 0.31700 0.07250 -0.01000
H 	H 	0.51370 0.33300 0.07350 0.00000
C 	C 	0.64990 0.29680 0.04680 0.07500
C 	C 	0.66980 0.33460 0.03650 -0.03900
H 	H 	0.65590 0.36030 0.04080 0.04000
C 	C 	0.71050 0.33420 0.01980 -0.05800
H 	H 	0.72390 0.35960 0.01280 0.03400
C 	C 	0.73120 0.29600 0.01340 -0.03300
C 	C 	0.71130 0.25810 0.02370 -0.00200
H 	H 	0.72530 0.23250 0.01940 0.00600
C 	C 	0.67070 0.25860 0.04040 -0.08400
H 	H 	0.65730 0.23320 0.04730 0.04900
C 	C 	0.64230 0.29230 0.03760 0.01900
C 	C 	0.65220 0.31620 0.00210 -0.12100
H 	H 	0.63160 0.33320 0.98950 0.07800
C 	C 	0.69270 0.31460 0.98520 0.03500
H 	H 	0.69940 0.33060 0.96130 0.01300
C 	C 	0.72340 0.28930 0.00390 0.00400
C 	C 	0.71340 0.26540 0.03950 -0.02100
H 	H 	0.73400 0.24840 0.05200 0.02600
C 	C 	0.67290 0.26700 0.05630 -0.02400
H 	H 	0.66620 0.25100 0.08020 0.03000
N 	N 	0.95545 0.27840 0.90900 -0.28000
C 	C 	0.91507 0.26565 0.91780 0.07800
H 	H 	0.90260 0.24040 0.90900 -0.02100
N 	N 	0.89624 0.29640 0.94160 -0.13200
C 	C 	0.92500 0.32810 0.94760 0.00500
H 	H 	0.92040 0.35300 0.96280 0.02700
C 	C 	0.96157 0.31700 0.92750 -0.00800
H 	H 	0.98630 0.33300 0.92650 0.00600
C 	C 	0.85010 0.29680 0.95320 0.03400
C 	C 	0.83020 0.33460 0.96350 -0.09400
H 	H 	0.84410 0.36030 0.95920 0.06300
C 	C 	0.78950 0.33420 0.98020 -0.00800
H 	H 	0.77610 0.35960 0.98720 0.02200
C 	C 	0.76880 0.29600 0.98660 0.05700
C 	C 	0.78870 0.25810 0.97630 -0.03700
H 	H 	0.77470 0.23250 0.98060 0.02600
C 	C 	0.82930 0.25860 0.95960 -0.07200
H 	H 	0.84270 0.23320 0.95270 0.04600
C 	C 	0.85770 0.29230 0.96240 0.03600
C 	C 	0.84780 0.31620 0.99790 0.01700
H 	H 	0.86840 0.33320 0.01050 0.01500
C 	C 	0.80730 0.31460 0.01480 -0.08600
H 	H 	0.80060 0.33060 0.03870 0.05300
C 	C 	0.77660 0.28930 0.99610 -0.02600
C 	C 	0.78660 0.26540 0.96050 -0.01100
H 	H 	0.76600 0.24840 0.94800 0.02300
C 	C 	0.82710 0.26700 0.94370 -0.01400
H 	H 	0.83380 0.25100 0.91980 0.02600
N 	N 	0.45545 0.77840 0.40900 -0.28300
C 	C 	0.41507 0.76565 0.41780 0.07700
H 	H 	0.40260 0.74040 0.40900 -0.02200
N 	N 	0.39624 0.79640 0.44160 -0.13300
C 	C 	0.42500 0.82810 0.44760 0.00400
H 	H 	0.42040 0.85300 0.46280 0.02400
C 	C 	0.46157 0.81700 0.42750 -0.00900
H 	H 	0.48630 0.83300 0.42650 0.00100
C 	C 	0.35010 0.79680 0.45320 0.05500
C 	C 	0.33020 0.83460 0.46350 -0.06700
H 	H 	0.34410 0.86030 0.45920 0.05200
C 	C 	0.28950 0.83420 0.48020 -0.03300
H 	H 	0.27610 0.85960 0.48720 0.02900
C 	C 	0.26880 0.79600 0.48660 0.01200
C 	C 	0.28870 0.75810 0.47630 -0.01900
H 	H 	0.27470 0.73250 0.48060 0.01600
C 	C 	0.32930 0.75860 0.45960 -0.07800
H 	H 	0.34270 0.73320 0.45270 0.04700
C 	C 	0.35770 0.79230 0.46240 0.02700
C 	C 	0.34780 0.81620 0.49790 -0.05200
H 	H 	0.36840 0.83320 0.51050 0.04700
C 	C 	0.30730 0.81460 0.51480 -0.02500
H 	H 	0.30060 0.83060 0.53870 0.03300
C 	C 	0.27660 0.78930 0.49610 -0.01100
C 	C 	0.28660 0.76540 0.46050 -0.01600
H 	H 	0.26600 0.74840 0.44800 0.02400
C 	C 	0.32710 0.76700 0.44370 -0.01900
H 	H 	0.33380 0.75100 0.41980 0.02800
N 	N 	0.54455 0.72160 0.40900 -0.28300
C 	C 	0.58493 0.73435 0.41780 0.07700
H 	H 	0.59740 0.75960 0.40900 -0.02200
N 	N 	0.60376 0.70360 0.44160 -0.13300
C 	C 	0.57500 0.67190 0.44760 0.00400
H 	H 	0.57960 0.64700 0.46280 0.02300
C 	C 	0.53843 0.68300 0.42750 -0.00900
H 	H 	0.51370 0.66700 0.42650 0.00100
C 	C 	0.64990 0.70320 0.45320 0.05500
C 	C 	0.66980 0.66540 0.46350 -0.06700
H 	H 	0.65590 0.63970 0.45920 0.05200
C 	C 	0.71050 0.66580 0.48020 -0.03300
H 	H 	0.72390 0.64040 0.48720 0.02800
C 	C 	0.73120 0.70400 0.48660 0.01200
C 	C 	0.71130 0.74190 0.47630 -0.01900
H 	H 	0.72530 0.76750 0.48060 0.01600
C 	C 	0.67070 0.74140 0.45960 -0.07800
H 	H 	0.65730 0.76680 0.45270 0.04700
C 	C 	0.64230 0.70770 0.46240 0.02700
C 	C 	0.65220 0.68380 0.49790 -0.05200
H 	H 	0.63160 0.66680 0.51050 0.04600
C 	C 	0.69270 0.68540 0.51480 -0.02600
H 	H 	0.69940 0.66940 0.53870 0.03300
C 	C 	0.72340 0.71070 0.49610 -0.01100
C 	C 	0.71340 0.73460 0.46050 -0.01600
H 	H 	0.73400 0.75160 0.44800 0.02400
C 	C 	0.67290 0.73300 0.44370 -0.01900
H 	H 	0.66620 0.74900 0.41980 0.02800
N 	N 	0.04455 0.22160 0.90900 -0.28400
C 	C 	0.08493 0.23435 0.91780 0.07700
H 	H 	0.09740 0.25960 0.90900 -0.02200
N 	N 	0.10376 0.20360 0.94160 -0.13200
C 	C 	0.07500 0.17190 0.94760 0.00300
H 	H 	0.07960 0.14700 0.96280 0.02500
C 	C 	0.03843 0.18300 0.92750 -0.01000
H 	H 	0.01370 0.16700 0.92650 -0.00200
C 	C 	0.14990 0.20320 0.95320 0.03400
C 	C 	0.16980 0.16540 0.96350 -0.09400
H 	H 	0.15590 0.13970 0.95920 0.06300
C 	C 	0.21050 0.16580 0.98020 -0.00800
H 	H 	0.22390 0.14040 0.98720 0.02200
C 	C 	0.23120 0.20400 0.98660 0.05700
C 	C 	0.21130 0.24190 0.97630 -0.03700
H 	H 	0.22530 0.26750 0.98060 0.02600
C 	C 	0.17070 0.24140 0.95960 -0.07100
H 	H 	0.15730 0.26680 0.95270 0.04600
C 	C 	0.14230 0.20770 0.96240 0.03600
C 	C 	0.15220 0.18380 0.99790 0.01700
H 	H 	0.13160 0.16680 0.01050 0.01300
C 	C 	0.19270 0.18540 0.01480 -0.08600
H 	H 	0.19940 0.16940 0.03870 0.05300
C 	C 	0.22340 0.21070 0.99610 -0.02600
C 	C 	0.21340 0.23460 0.96050 -0.01100
H 	H 	0.23400 0.25160 0.94800 0.02300
C 	C 	0.17290 0.23300 0.94370 -0.01400
H 	H 	0.16620 0.24900 0.91980 0.02600
N 	N 	0.02840 0.29455 0.84100 -0.28100
C 	C 	0.01565 0.33493 0.83220 0.05600
H 	H 	0.99040 0.34740 0.84100 -0.00700
N 	N 	0.04640 0.35376 0.80840 -0.13100
C 	C 	0.07810 0.32500 0.80240 0.00300
H 	H 	0.10300 0.32960 0.78720 0.02300
C 	C 	0.06700 0.28843 0.82250 -0.01000
H 	H 	0.08300 0.26370 0.82350 0.00100
C 	C 	0.04680 0.39990 0.79680 0.04900
C 	C 	0.08460 0.41980 0.78650 -0.06000
H 	H 	0.11030 0.40590 0.79080 0.04900
C 	C 	0.08420 0.46050 0.76980 -0.03500
H 	H 	0.10960 0.47390 0.76280 0.02900
C 	C 	0.04600 0.48120 0.76340 0.01000
C 	C 	0.00810 0.46130 0.77370 -0.02100
H 	H 	0.98250 0.47530 0.76940 0.02100
C 	C 	0.00860 0.42070 0.79040 -0.06100
H 	H 	0.98320 0.40730 0.79730 0.05000
C 	C 	0.04230 0.39230 0.78760 0.03200
C 	C 	0.06620 0.40220 0.75210 -0.05800
H 	H 	0.08320 0.38160 0.73950 0.04800
C 	C 	0.06460 0.44270 0.73520 -0.02700
H 	H 	0.08060 0.44940 0.71130 0.03300
C 	C 	0.03930 0.47340 0.75390 -0.00700
C 	C 	0.01540 0.46340 0.78950 -0.03800
H 	H 	0.99840 0.48400 0.80200 0.03900
C 	C 	0.01700 0.42290 0.80630 -0.03700
H 	H 	0.00100 0.41620 0.83020 0.02800
N 	N 	0.52840 0.79455 0.34100 -0.28300
C 	C 	0.51565 0.83493 0.33220 0.07700
H 	H 	0.49040 0.84740 0.34100 -0.02200
N 	N 	0.54640 0.85376 0.30840 -0.13300
C 	C 	0.57810 0.82500 0.30240 0.00400
H 	H 	0.60300 0.82960 0.28720 0.02300
C 	C 	0.56700 0.78843 0.32250 -0.00900
H 	H 	0.58300 0.76370 0.32350 0.00100
C 	C 	0.54680 0.89990 0.29680 0.05300
C 	C 	0.58460 0.91980 0.28650 -0.06500
H 	H 	0.61030 0.90590 0.29080 0.05100
C 	C 	0.58420 0.96050 0.26980 -0.03400
H 	H 	0.60960 0.97390 0.26280 0.03300
C 	C 	0.54600 0.98120 0.26340 0.01500
C 	C 	0.50810 0.96130 0.27370 -0.02000
H 	H 	0.48250 0.97530 0.26940 0.01900
C 	C 	0.50860 0.92070 0.29040 -0.07500
H 	H 	0.48320 0.90730 0.29730 0.04600
C 	C 	0.54230 0.89230 0.28760 0.02700
C 	C 	0.56620 0.90220 0.25210 -0.04900
H 	H 	0.58320 0.88160 0.23950 0.04500
C 	C 	0.56460 0.94270 0.23520 -0.03100
H 	H 	0.58060 0.94940 0.21130 0.03700
C 	C 	0.53930 0.97340 0.25390 -0.00100
C 	C 	0.51540 0.96340 0.28950 -0.02200
H 	H 	0.49840 0.98400 0.30200 0.03000
C 	C 	0.51700 0.92290 0.30630 -0.01800
H 	H 	0.50100 0.91620 0.33020 0.02800
N 	N 	0.47160 0.70545 0.34100 -0.28300
C 	C 	0.48435 0.66507 0.33220 0.07700
H 	H 	0.50960 0.65260 0.34100 -0.02200
N 	N 	0.45360 0.64624 0.30840 -0.13300
C 	C 	0.42190 0.67500 0.30240 0.00400
H 	H 	0.39700 0.67040 0.28720 0.02300
C 	C 	0.43300 0.71157 0.32250 -0.00900
H 	H 	0.41700 0.73630 0.32350 0.00100
C 	C 	0.45320 0.60010 0.29680 0.05500
C 	C 	0.41540 0.58020 0.28650 -0.06700
H 	H 	0.38970 0.59410 0.29080 0.05200
C 	C 	0.41580 0.53950 0.26980 -0.03300
H 	H 	0.39040 0.52610 0.26280 0.02800
C 	C 	0.45400 0.51880 0.26340 0.01200
C 	C 	0.49190 0.53870 0.27370 -0.01900
H 	H 	0.51750 0.52470 0.26940 0.01600
C 	C 	0.49140 0.57930 0.29040 -0.07800
H 	H 	0.51680 0.59270 0.29730 0.04700
C 	C 	0.45770 0.60770 0.28760 0.02700
C 	C 	0.43380 0.59780 0.25210 -0.05200
H 	H 	0.41680 0.61840 0.23950 0.04600
C 	C 	0.43540 0.55730 0.23520 -0.02600
H 	H 	0.41940 0.55060 0.21130 0.03300
C 	C 	0.46070 0.52660 0.25390 -0.01100
C 	C 	0.48460 0.53660 0.28950 -0.01600
H 	H 	0.50160 0.51600 0.30200 0.02400
C 	C 	0.48300 0.57710 0.30630 -0.01900
H 	H 	0.49900 0.58380 0.33020 0.02800
N 	N 	0.97160 0.20545 0.84100 -0.28300
C 	C 	0.98435 0.16507 0.83220 0.09900
H 	H 	0.00960 0.15260 0.84100 -0.03600
N 	N 	0.95360 0.14624 0.80840 -0.13600
C 	C 	0.92190 0.17500 0.80240 0.00400
H 	H 	0.89700 0.17040 0.78720 0.02300
C 	C 	0.93300 0.21157 0.82250 -0.00900
H 	H 	0.91700 0.23630 0.82350 0.00200
C 	C 	0.95320 0.10010 0.79680 0.06200
C 	C 	0.91540 0.08020 0.78650 -0.07400
H 	H 	0.88970 0.09410 0.79080 0.05400
C 	C 	0.91580 0.03950 0.76980 -0.02900
H 	H 	0.89040 0.02610 0.76280 0.02300
C 	C 	0.95400 0.01880 0.76340 0.00900
C 	C 	0.99190 0.03870 0.77370 -0.01600
H 	H 	0.01750 0.02470 0.76940 0.00700
C 	C 	0.99140 0.07930 0.79040 -0.09700
H 	H 	0.01680 0.09270 0.79730 0.04500
C 	C 	0.95770 0.10770 0.78760 0.02400
C 	C 	0.93380 0.09780 0.75210 -0.04900
H 	H 	0.91680 0.11840 0.73950 0.04600
C 	C 	0.93540 0.05730 0.73520 -0.01900
H 	H 	0.91940 0.05060 0.71130 0.02900
C 	C 	0.96070 0.02660 0.75390 -0.02400
C 	C 	0.98460 0.03660 0.78950 0.01200
H 	H 	0.00160 0.01600 0.80200 0.00500
C 	C 	0.98300 0.07710 0.80630 -0.00200
H 	H 	0.99900 0.08380 0.83020 0.02900
N 	N 	0.97160 0.79455 0.65900 -0.28300
C 	C 	0.98435 0.83493 0.66780 0.09900
H 	H 	0.00960 0.84740 0.65900 -0.03600
N 	N 	0.95360 0.85376 0.69160 -0.13500
C 	C 	0.92190 0.82500 0.69760 0.00400
H 	H 	0.89700 0.82960 0.71280 0.02300
C 	C 	0.93300 0.78843 0.67750 -0.00900
H 	H 	0.91700 0.76370 0.67650 0.00100
C 	C 	0.95320 0.89990 0.70320 0.05900
C 	C 	0.91540 0.91980 0.71350 -0.07200
H 	H 	0.88970 0.90590 0.70920 0.05300
C 	C 	0.91580 0.96050 0.73020 -0.03200
H 	H 	0.89040 0.97390 0.73720 0.03200
C 	C 	0.95400 0.98120 0.73660 0.01600
C 	C 	0.99190 0.96130 0.72630 -0.01900
H 	H 	0.01750 0.97530 0.73060 0.01400
C 	C 	0.99140 0.92070 0.70960 -0.09200
H 	H 	0.01680 0.90730 0.70270 0.04300
C 	C 	0.95770 0.89230 0.71240 0.02200
C 	C 	0.93380 0.90220 0.74790 -0.04300
H 	H 	0.91680 0.88160 0.76050 0.04400
C 	C 	0.93540 0.94270 0.76480 -0.03000
H 	H 	0.91940 0.94940 0.78870 0.03800
C 	C 	0.96070 0.97340 0.74610 -0.00500
C 	C 	0.98460 0.96340 0.71050 0.00000
H 	H 	0.00160 0.98400 0.69800 0.01600
C 	C 	0.98300 0.92290 0.69370 0.00100
H 	H 	0.99900 0.91620 0.66980 0.02900
N 	N 	0.47160 0.29455 0.15900 -0.28300
C 	C 	0.48435 0.33493 0.16780 0.07700
H 	H 	0.50960 0.34740 0.15900 -0.02200
N 	N 	0.45360 0.35376 0.19160 -0.13300
C 	C 	0.42190 0.32500 0.19760 0.00400
H 	H 	0.39700 0.32960 0.21280 0.02300
C 	C 	0.43300 0.28843 0.17750 -0.00900
H 	H 	0.41700 0.26370 0.17650 0.00100
C 	C 	0.45320 0.39990 0.20320 0.05500
C 	C 	0.41540 0.41980 0.21350 -0.06700
H 	H 	0.38970 0.40590 0.20920 0.05200
C 	C 	0.41580 0.46050 0.23020 -0.03300
H 	H 	0.39040 0.47390 0.23720 0.02800
C 	C 	0.45400 0.48120 0.23660 0.01200
C 	C 	0.49190 0.46130 0.22630 -0.01900
H 	H 	0.51750 0.47530 0.23060 0.01600
C 	C 	0.49140 0.42070 0.20960 -0.07800
H 	H 	0.51680 0.40730 0.20270 0.04700
C 	C 	0.45770 0.39230 0.21240 0.02700
C 	C 	0.43380 0.40220 0.24790 -0.05200
H 	H 	0.41680 0.38160 0.26050 0.04600
C 	C 	0.43540 0.44270 0.26480 -0.02500
H 	H 	0.41940 0.44940 0.28870 0.03300
C 	C 	0.46070 0.47340 0.24610 -0.01100
C 	C 	0.48460 0.46340 0.21050 -0.01600
H 	H 	0.50160 0.48400 0.19800 0.02400
C 	C 	0.48300 0.42290 0.19370 -0.01900
H 	H 	0.49900 0.41620 0.16980 0.02800
N 	N 	0.52840 0.20545 0.15900 -0.28300
C 	C 	0.51565 0.16507 0.16780 0.07700
H 	H 	0.49040 0.15260 0.15900 -0.02200
N 	N 	0.54640 0.14624 0.19160 -0.13400
C 	C 	0.57810 0.17500 0.19760 0.00400
H 	H 	0.60300 0.17040 0.21280 0.02300
C 	C 	0.56700 0.21157 0.17750 -0.01000
H 	H 	0.58300 0.23630 0.17650 0.00100
C 	C 	0.54680 0.10010 0.20320 0.05600
C 	C 	0.58460 0.08020 0.21350 -0.06800
H 	H 	0.61030 0.09410 0.20920 0.05200
C 	C 	0.58420 0.03950 0.23020 -0.03200
H 	H 	0.60960 0.02610 0.23720 0.02400
C 	C 	0.54600 0.01880 0.23660 0.00800
C 	C 	0.50810 0.03870 0.22630 -0.01800
H 	H 	0.48250 0.02470 0.23060 0.01200
C 	C 	0.50860 0.07930 0.20960 -0.08100
H 	H 	0.48320 0.09270 0.20270 0.04800
C 	C 	0.54230 0.10770 0.21240 0.02800
C 	C 	0.56620 0.09780 0.24790 -0.05500
H 	H 	0.58320 0.11840 0.26050 0.04700
C 	C 	0.56460 0.05730 0.26480 -0.02000
H 	H 	0.58060 0.05060 0.28870 0.02900
C 	C 	0.53930 0.02660 0.24610 -0.02000
C 	C 	0.51540 0.03660 0.21050 -0.01000
H 	H 	0.49840 0.01600 0.19800 0.01800
C 	C 	0.51700 0.07710 0.19370 -0.02000
H 	H 	0.50100 0.08380 0.16980 0.02700
N 	N 	0.02840 0.70545 0.65900 -0.28100
C 	C 	0.01565 0.66507 0.66780 0.05600
H 	H 	0.99040 0.65260 0.65900 -0.00700
N 	N 	0.04640 0.64624 0.69160 -0.13100
C 	C 	0.07810 0.67500 0.69760 0.00300
H 	H 	0.10300 0.67040 0.71280 0.02300
C 	C 	0.06700 0.71157 0.67750 -0.01000
H 	H 	0.08300 0.73630 0.67650 0.00100
C 	C 	0.04680 0.60010 0.70320 0.04900
C 	C 	0.08460 0.58020 0.71350 -0.06000
H 	H 	0.11030 0.59410 0.70920 0.04900
C 	C 	0.08420 0.53950 0.73020 -0.03500
H 	H 	0.10960 0.52610 0.73720 0.02900
C 	C 	0.04600 0.51880 0.73660 0.01100
C 	C 	0.00810 0.53870 0.72630 -0.02100
H 	H 	0.98250 0.52470 0.73060 0.02100
C 	C 	0.00860 0.57930 0.70960 -0.06100
H 	H 	0.98320 0.59270 0.70270 0.05000
C 	C 	0.04230 0.60770 0.71240 0.03200
C 	C 	0.06620 0.59780 0.74790 -0.05800
H 	H 	0.08320 0.61840 0.76050 0.04800
C 	C 	0.06460 0.55730 0.76480 -0.02600
H 	H 	0.08060 0.55060 0.78870 0.03300
C 	C 	0.03930 0.52660 0.74610 -0.00700
C 	C 	0.01540 0.53660 0.71050 -0.03800
H 	H 	0.99840 0.51600 0.69800 0.03800
C 	C 	0.01700 0.57710 0.69370 -0.03700
H 	H 	0.00100 0.58380 0.66980 0.02700
Zn	Zn	0.50000 0.25000 0.12500 1.17300
Zn	Zn	-0.00000 0.75000 0.62500 1.17000
Zn	Zn	-0.00000 0.25000 0.87500 1.17000
Zn	Zn	0.50000 0.75000 0.37500 1.17300
N 	N 	0.72160 0.40900 0.54455 -0.28300
C 	C 	0.73435 0.41780 0.58493 0.07700
H 	H 	0.75960 0.40900 0.59740 -0.02200
N 	N 	0.70360 0.44160 0.60376 -0.13300
C 	C 	0.67190 0.44760 0.57500 0.00400
H 	H 	0.64700 0.46280 0.57960 0.02300
C 	C 	0.68300 0.42750 0.53843 -0.00900
H 	H 	0.66700 0.42650 0.51370 0.00100
C 	C 	0.70320 0.45320 0.64990 0.05500
C 	C 	0.66540 0.46350 0.66980 -0.06700
H 	H 	0.63970 0.45920 0.65590 0.05200
C 	C 	0.66580 0.48020 0.71050 -0.03300
H 	H 	0.64040 0.48720 0.72390 0.02800
C 	C 	0.70400 0.48660 0.73120 0.01200
C 	C 	0.74190 0.47630 0.71130 -0.01900
H 	H 	0.76750 0.48060 0.72530 0.01600
C 	C 	0.74140 0.45960 0.67070 -0.07800
H 	H 	0.76680 0.45270 0.65730 0.04700
C 	C 	0.70770 0.46240 0.64230 0.02700
C 	C 	0.68380 0.49790 0.65220 -0.05200
H 	H 	0.66680 0.51050 0.63160 0.04600
C 	C 	0.68540 0.51480 0.69270 -0.02600
H 	H 	0.66940 0.53870 0.69940 0.03300
C 	C 	0.71070 0.49610 0.72340 -0.01100
C 	C 	0.73460 0.46050 0.71340 -0.01600
H 	H 	0.75160 0.44800 0.73400 0.02400
C 	C 	0.73300 0.44370 0.67290 -0.01900
H 	H 	0.74900 0.41980 0.66620 0.02800
N 	N 	0.22160 0.90900 0.04455 -0.28400
C 	C 	0.23435 0.91780 0.08493 0.07700
H 	H 	0.25960 0.90900 0.09740 -0.02200
N 	N 	0.20360 0.94160 0.10376 -0.13200
C 	C 	0.17190 0.94760 0.07500 0.00300
H 	H 	0.14700 0.96280 0.07960 0.02500
C 	C 	0.18300 0.92750 0.03843 -0.01000
H 	H 	0.16700 0.92650 0.01370 -0.00200
C 	C 	0.20320 0.95320 0.14990 0.03400
C 	C 	0.16540 0.96350 0.16980 -0.09400
H 	H 	0.13970 0.95920 0.15590 0.06300
C 	C 	0.16580 0.98020 0.21050 -0.00800
H 	H 	0.14040 0.98720 0.22390 0.02200
C 	C 	0.20400 0.98660 0.23120 0.05700
C 	C 	0.24190 0.97630 0.21130 -0.03700
H 	H 	0.26750 0.98060 0.22530 0.02600
C 	C 	0.24140 0.95960 0.17070 -0.07100
H 	H 	0.26680 0.95270 0.15730 0.04600
C 	C 	0.20770 0.96240 0.14230 0.03600
C 	C 	0.18380 0.99790 0.15220 0.01700
H 	H 	0.16680 0.01050 0.13160 0.01300
C 	C 	0.18540 0.01480 0.19270 -0.08600
H 	H 	0.16940 0.03870 0.19940 0.05300
C 	C 	0.21070 0.99610 0.22340 -0.02600
C 	C 	0.23460 0.96050 0.21340 -0.01100
H 	H 	0.25160 0.94800 0.23400 0.02300
C 	C 	0.23300 0.94370 0.17290 -0.01400
H 	H 	0.24900 0.91980 0.16620 0.02600
N 	N 	0.27840 0.90900 0.95545 -0.28000
C 	C 	0.26565 0.91780 0.91507 0.07800
H 	H 	0.24040 0.90900 0.90260 -0.02100
N 	N 	0.29640 0.94160 0.89624 -0.13200
C 	C 	0.32810 0.94760 0.92500 0.00500
H 	H 	0.35300 0.96280 0.92040 0.02700
C 	C 	0.31700 0.92750 0.96157 -0.00800
H 	H 	0.33300 0.92650 0.98630 0.00600
C 	C 	0.29680 0.95320 0.85010 0.03400
C 	C 	0.33460 0.96350 0.83020 -0.09400
H 	H 	0.36030 0.95920 0.84410 0.06300
C 	C 	0.33420 0.98020 0.78950 -0.00800
H 	H 	0.35960 0.98720 0.77610 0.02200
C 	C 	0.29600 0.98660 0.76880 0.05700
C 	C 	0.25810 0.97630 0.78870 -0.03700
H 	H 	0.23250 0.98060 0.77470 0.02600
C 	C 	0.25860 0.95960 0.82930 -0.07200
H 	H 	0.23320 0.95270 0.84270 0.04600
C 	C 	0.29230 0.96240 0.85770 0.03600
C 	C 	0.31620 0.99790 0.84780 0.01700
H 	H 	0.33320 0.01050 0.86840 0.01500
C 	C 	0.31460 0.01480 0.80730 -0.08600
H 	H 	0.33060 0.03870 0.80060 0.05300
C 	C 	0.28930 0.99610 0.77660 -0.02600
C 	C 	0.26540 0.96050 0.78660 -0.01100
H 	H 	0.24840 0.94800 0.76600 0.02300
C 	C 	0.26700 0.94370 0.82710 -0.01400
H 	H 	0.25100 0.91980 0.83380 0.02600
N 	N 	0.77840 0.40900 0.45545 -0.28300
C 	C 	0.76565 0.41780 0.41507 0.07700
H 	H 	0.74040 0.40900 0.40260 -0.02200
N 	N 	0.79640 0.44160 0.39624 -0.13300
C 	C 	0.82810 0.44760 0.42500 0.00400
H 	H 	0.85300 0.46280 0.42040 0.02400
C 	C 	0.81700 0.42750 0.46157 -0.00900
H 	H 	0.83300 0.42650 0.48630 0.00100
C 	C 	0.79680 0.45320 0.35010 0.05500
C 	C 	0.83460 0.46350 0.33020 -0.06700
H 	H 	0.86030 0.45920 0.34410 0.05200
C 	C 	0.83420 0.48020 0.28950 -0.03300
H 	H 	0.85960 0.48720 0.27610 0.02900
C 	C 	0.79600 0.48660 0.26880 0.01200
C 	C 	0.75810 0.47630 0.28870 -0.01900
H 	H 	0.73250 0.48060 0.27470 0.01600
C 	C 	0.75860 0.45960 0.32930 -0.07800
H 	H 	0.73320 0.45270 0.34270 0.04700
C 	C 	0.79230 0.46240 0.35770 0.02700
C 	C 	0.81620 0.49790 0.34780 -0.05200
H 	H 	0.83320 0.51050 0.36840 0.04700
C 	C 	0.81460 0.51480 0.30730 -0.02500
H 	H 	0.83060 0.53870 0.30060 0.03300
C 	C 	0.78930 0.49610 0.27660 -0.01100
C 	C 	0.76540 0.46050 0.28660 -0.01600
H 	H 	0.74840 0.44800 0.26600 0.02400
C 	C 	0.76700 0.44370 0.32710 -0.01900
H 	H 	0.75100 0.41980 0.33380 0.02800
N 	N 	0.77840 0.59100 0.04455 -0.28400
C 	C 	0.76565 0.58220 0.08493 0.07700
H 	H 	0.74040 0.59100 0.09740 -0.02200
N 	N 	0.79640 0.55840 0.10376 -0.13300
C 	C 	0.82810 0.55240 0.07500 0.00300
H 	H 	0.85300 0.53720 0.07960 0.02300
C 	C 	0.81700 0.57250 0.03843 -0.01000
H 	H 	0.83300 0.57350 0.01370 -0.00200
C 	C 	0.79680 0.54680 0.14990 0.05500
C 	C 	0.83460 0.53650 0.16980 -0.06600
H 	H 	0.86030 0.54080 0.15590 0.05200
C 	C 	0.83420 0.51980 0.21050 -0.03300
H 	H 	0.85960 0.51280 0.22390 0.02900
C 	C 	0.79600 0.51340 0.23120 0.01200
C 	C 	0.75810 0.52370 0.21130 -0.01900
H 	H 	0.73250 0.51940 0.22530 0.01600
C 	C 	0.75860 0.54040 0.17070 -0.07800
H 	H 	0.73320 0.54730 0.15730 0.04700
C 	C 	0.79230 0.53760 0.14230 0.02700
C 	C 	0.81620 0.50210 0.15220 -0.05200
H 	H 	0.83320 0.48950 0.13160 0.04600
C 	C 	0.81460 0.48520 0.19270 -0.02500
H 	H 	0.83060 0.46130 0.19940 0.03300
C 	C 	0.78930 0.50390 0.22340 -0.01000
C 	C 	0.76540 0.53950 0.21340 -0.01600
H 	H 	0.74840 0.55200 0.23400 0.02400
C 	C 	0.76700 0.55630 0.17290 -0.01900
H 	H 	0.75100 0.58020 0.16620 0.02800
N 	N 	0.27840 0.09100 0.54455 -0.28300
C 	C 	0.26565 0.08220 0.58493 0.07700
H 	H 	0.24040 0.09100 0.59740 -0.02200
N 	N 	0.29640 0.05840 0.60376 -0.13500
C 	C 	0.32810 0.05240 0.57500 0.00300
H 	H 	0.35300 0.03720 0.57960 0.02100
C 	C 	0.31700 0.07250 0.53843 -0.01000
H 	H 	0.33300 0.07350 0.51370 0.00000
C 	C 	0.29680 0.04680 0.64990 0.07500
C 	C 	0.33460 0.03650 0.66980 -0.03900
H 	H 	0.36030 0.04080 0.65590 0.04000
C 	C 	0.33420 0.01980 0.71050 -0.05800
H 	H 	0.35960 0.01280 0.72390 0.03400
C 	C 	0.29600 0.01340 0.73120 -0.03300
C 	C 	0.25810 0.02370 0.71130 -0.00200
H 	H 	0.23250 0.01940 0.72530 0.00600
C 	C 	0.25860 0.04040 0.67070 -0.08400
H 	H 	0.23320 0.04730 0.65730 0.04900
C 	C 	0.29230 0.03760 0.64230 0.01900
C 	C 	0.31620 0.00210 0.65220 -0.12100
H 	H 	0.33320 0.98950 0.63160 0.07800
C 	C 	0.31460 0.98520 0.69270 0.03500
H 	H 	0.33060 0.96130 0.69940 0.01300
C 	C 	0.28930 0.00390 0.72340 0.00400
C 	C 	0.26540 0.03950 0.71340 -0.02100
H 	H 	0.24840 0.05200 0.73400 0.02600
C 	C 	0.26700 0.05630 0.67290 -0.02400
H 	H 	0.25100 0.08020 0.66620 0.03000
N 	N 	0.22160 0.09100 0.45545 -0.28200
C 	C 	0.23435 0.08220 0.41507 0.07700
H 	H 	0.25960 0.09100 0.40260 -0.02200
N 	N 	0.20360 0.05840 0.39624 -0.13500
C 	C 	0.17190 0.05240 0.42500 0.00300
H 	H 	0.14700 0.03720 0.42040 0.02000
C 	C 	0.18300 0.07250 0.46157 -0.01000
H 	H 	0.16700 0.07350 0.48630 -0.00000
C 	C 	0.20320 0.04680 0.35010 0.07500
C 	C 	0.16540 0.03650 0.33020 -0.03900
H 	H 	0.13970 0.04080 0.34410 0.04000
C 	C 	0.16580 0.01980 0.28950 -0.05800
H 	H 	0.14040 0.01280 0.27610 0.03400
C 	C 	0.20400 0.01340 0.26880 -0.03300
C 	C 	0.24190 0.02370 0.28870 -0.00200
H 	H 	0.26750 0.01940 0.27470 0.00600
C 	C 	0.24140 0.04040 0.32930 -0.08400
H 	H 	0.26680 0.04730 0.34270 0.04900
C 	C 	0.20770 0.03760 0.35770 0.01900
C 	C 	0.18380 0.00210 0.34780 -0.12000
H 	H 	0.16680 0.98950 0.36840 0.07800
C 	C 	0.18540 0.98520 0.30730 0.03500
H 	H 	0.16940 0.96130 0.30060 0.01300
C 	C 	0.21070 0.00390 0.27660 0.00400
C 	C 	0.23460 0.03950 0.28660 -0.02100
H 	H 	0.25160 0.05200 0.26600 0.02600
C 	C 	0.23300 0.05630 0.32710 -0.02400
H 	H 	0.24900 0.08020 0.33380 0.03000
N 	N 	0.72160 0.59100 0.95545 -0.28000
C 	C 	0.73435 0.58220 0.91507 0.07800
H 	H 	0.75960 0.59100 0.90260 -0.02100
N 	N 	0.70360 0.55840 0.89624 -0.13300
C 	C 	0.67190 0.55240 0.92500 0.00500
H 	H 	0.64700 0.53720 0.92040 0.02400
C 	C 	0.68300 0.57250 0.96157 -0.00900
H 	H 	0.66700 0.57350 0.98630 0.00500
C 	C 	0.70320 0.54680 0.85010 0.05500
C 	C 	0.66540 0.53650 0.83020 -0.06700
H 	H 	0.63970 0.54080 0.84410 0.05200
C 	C 	0.66580 0.51980 0.78950 -0.03300
H 	H 	0.64040 0.51280 0.77610 0.02800
C 	C 	0.70400 0.51340 0.76880 0.01200
C 	C 	0.74190 0.52370 0.78870 -0.01900
H 	H 	0.76750 0.51940 0.77470 0.01600
C 	C 	0.74140 0.54040 0.82930 -0.07800
H 	H 	0.76680 0.54730 0.84270 0.04700
C 	C 	0.70770 0.53760 0.85770 0.02700
C 	C 	0.68380 0.50210 0.84780 -0.05200
H 	H 	0.66680 0.48950 0.86840 0.04700
C 	C 	0.68540 0.48520 0.80730 -0.02500
H 	H 	0.66940 0.46130 0.80060 0.03300
C 	C 	0.71070 0.50390 0.77660 -0.01100
C 	C 	0.73460 0.53950 0.78660 -0.01600
H 	H 	0.75160 0.55200 0.76600 0.02400
C 	C 	0.73300 0.55630 0.82710 -0.01900
H 	H 	0.74900 0.58020 0.83380 0.02800
N 	N 	0.29455 0.84100 0.02840 -0.28100
C 	C 	0.33493 0.83220 0.01565 0.05600
H 	H 	0.34740 0.84100 0.99040 -0.00700
N 	N 	0.35376 0.80840 0.04640 -0.13100
C 	C 	0.32500 0.80240 0.07810 0.00300
H 	H 	0.32960 0.78720 0.10300 0.02300
C 	C 	0.28843 0.82250 0.06700 -0.01000
H 	H 	0.26370 0.82350 0.08300 0.00100
C 	C 	0.39990 0.79680 0.04680 0.04900
C 	C 	0.41980 0.78650 0.08460 -0.06000
H 	H 	0.40590 0.79080 0.11030 0.04900
C 	C 	0.46050 0.76980 0.08420 -0.03500
H 	H 	0.47390 0.76280 0.10960 0.02900
C 	C 	0.48120 0.76340 0.04600 0.01000
C 	C 	0.46130 0.77370 0.00810 -0.02100
H 	H 	0.47530 0.76940 0.98250 0.02100
C 	C 	0.42070 0.79040 0.00860 -0.06100
H 	H 	0.40730 0.79730 0.98320 0.05000
C 	C 	0.39230 0.78760 0.04230 0.03200
C 	C 	0.40220 0.75210 0.06620 -0.05800
H 	H 	0.38160 0.73950 0.08320 0.04800
C 	C 	0.44270 0.73520 0.06460 -0.02700
H 	H 	0.44940 0.71130 0.08060 0.03300
C 	C 	0.47340 0.75390 0.03930 -0.00700
C 	C 	0.46340 0.78950 0.01540 -0.03800
H 	H 	0.48400 0.80200 0.99840 0.03900
C 	C 	0.42290 0.80630 0.01700 -0.03700
H 	H 	0.41620 0.83020 0.00100 0.02800
N 	N 	0.79455 0.34100 0.52840 -0.28300
C 	C 	0.83493 0.33220 0.51565 0.07700
H 	H 	0.84740 0.34100 0.49040 -0.02200
N 	N 	0.85376 0.30840 0.54640 -0.13300
C 	C 	0.82500 0.30240 0.57810 0.00400
H 	H 	0.82960 0.28720 0.60300 0.02300
C 	C 	0.78843 0.32250 0.56700 -0.00900
H 	H 	0.76370 0.32350 0.58300 0.00100
C 	C 	0.89990 0.29680 0.54680 0.05300
C 	C 	0.91980 0.28650 0.58460 -0.06500
H 	H 	0.90590 0.29080 0.61030 0.05100
C 	C 	0.96050 0.26980 0.58420 -0.03400
H 	H 	0.97390 0.26280 0.60960 0.03300
C 	C 	0.98120 0.26340 0.54600 0.01500
C 	C 	0.96130 0.27370 0.50810 -0.02000
H 	H 	0.97530 0.26940 0.48250 0.01900
C 	C 	0.92070 0.29040 0.50860 -0.07500
H 	H 	0.90730 0.29730 0.48320 0.04600
C 	C 	0.89230 0.28760 0.54230 0.02700
C 	C 	0.90220 0.25210 0.56620 -0.04900
H 	H 	0.88160 0.23950 0.58320 0.04500
C 	C 	0.94270 0.23520 0.56460 -0.03100
H 	H 	0.94940 0.21130 0.58060 0.03700
C 	C 	0.97340 0.25390 0.53930 -0.00100
C 	C 	0.96340 0.28950 0.51540 -0.02200
H 	H 	0.98400 0.30200 0.49840 0.03000
C 	C 	0.92290 0.30630 0.51700 -0.01800
H 	H 	0.91620 0.33020 0.50100 0.02800
N 	N 	0.70545 0.34100 0.47160 -0.28300
C 	C 	0.66507 0.33220 0.48435 0.07700
H 	H 	0.65260 0.34100 0.50960 -0.02200
N 	N 	0.64624 0.30840 0.45360 -0.13300
C 	C 	0.67500 0.30240 0.42190 0.00400
H 	H 	0.67040 0.28720 0.39700 0.02300
C 	C 	0.71157 0.32250 0.43300 -0.00900
H 	H 	0.73630 0.32350 0.41700 0.00100
C 	C 	0.60010 0.29680 0.45320 0.05500
C 	C 	0.58020 0.28650 0.41540 -0.06700
H 	H 	0.59410 0.29080 0.38970 0.05200
C 	C 	0.53950 0.26980 0.41580 -0.03300
H 	H 	0.52610 0.26280 0.39040 0.02800
C 	C 	0.51880 0.26340 0.45400 0.01200
C 	C 	0.53870 0.27370 0.49190 -0.01900
H 	H 	0.52470 0.26940 0.51750 0.01600
C 	C 	0.57930 0.29040 0.49140 -0.07800
H 	H 	0.59270 0.29730 0.51680 0.04700
C 	C 	0.60770 0.28760 0.45770 0.02700
C 	C 	0.59780 0.25210 0.43380 -0.05200
H 	H 	0.61840 0.23950 0.41680 0.04600
C 	C 	0.55730 0.23520 0.43540 -0.02600
H 	H 	0.55060 0.21130 0.41940 0.03300
C 	C 	0.52660 0.25390 0.46070 -0.01100
C 	C 	0.53660 0.28950 0.48460 -0.01600
H 	H 	0.51600 0.30200 0.50160 0.02400
C 	C 	0.57710 0.30630 0.48300 -0.01900
H 	H 	0.58380 0.33020 0.49900 0.02800
N 	N 	0.20545 0.84100 0.97160 -0.28300
C 	C 	0.16507 0.83220 0.98435 0.09900
H 	H 	0.15260 0.84100 0.00960 -0.03600
N 	N 	0.14624 0.80840 0.95360 -0.13600
C 	C 	0.17500 0.80240 0.92190 0.00400
H 	H 	0.17040 0.78720 0.89700 0.02300
C 	C 	0.21157 0.82250 0.93300 -0.00900
H 	H 	0.23630 0.82350 0.91700 0.00200
C 	C 	0.10010 0.79680 0.95320 0.06200
C 	C 	0.08020 0.78650 0.91540 -0.07400
H 	H 	0.09410 0.79080 0.88970 0.05400
C 	C 	0.03950 0.76980 0.91580 -0.02900
H 	H 	0.02610 0.76280 0.89040 0.02300
C 	C 	0.01880 0.76340 0.95400 0.00900
C 	C 	0.03870 0.77370 0.99190 -0.01600
H 	H 	0.02470 0.76940 0.01750 0.00700
C 	C 	0.07930 0.79040 0.99140 -0.09700
H 	H 	0.09270 0.79730 0.01680 0.04500
C 	C 	0.10770 0.78760 0.95770 0.02400
C 	C 	0.09780 0.75210 0.93380 -0.04900
H 	H 	0.11840 0.73950 0.91680 0.04600
C 	C 	0.05730 0.73520 0.93540 -0.01900
H 	H 	0.05060 0.71130 0.91940 0.02900
C 	C 	0.02660 0.75390 0.96070 -0.02400
C 	C 	0.03660 0.78950 0.98460 0.01200
H 	H 	0.01600 0.80200 0.00160 0.00500
C 	C 	0.07710 0.80630 0.98300 -0.00200
H 	H 	0.08380 0.83020 0.99900 0.02900
N 	N 	0.79455 0.65900 0.97160 -0.28300
C 	C 	0.83493 0.66780 0.98435 0.09900
H 	H 	0.84740 0.65900 0.00960 -0.03600
N 	N 	0.85376 0.69160 0.95360 -0.13500
C 	C 	0.82500 0.69760 0.92190 0.00400
H 	H 	0.82960 0.71280 0.89700 0.02300
C 	C 	0.78843 0.67750 0.93300 -0.00900
H 	H 	0.76370 0.67650 0.91700 0.00100
C 	C 	0.89990 0.70320 0.95320 0.05900
C 	C 	0.91980 0.71350 0.91540 -0.07200
H 	H 	0.90590 0.70920 0.88970 0.05300
C 	C 	0.96050 0.73020 0.91580 -0.03200
H 	H 	0.97390 0.73720 0.89040 0.03200
C 	C 	0.98120 0.73660 0.95400 0.01600
C 	C 	0.96130 0.72630 0.99190 -0.01900
H 	H 	0.97530 0.73060 0.01750 0.01400
C 	C 	0.92070 0.70960 0.99140 -0.09200
H 	H 	0.90730 0.70270 0.01680 0.04300
C 	C 	0.89230 0.71240 0.95770 0.02200
C 	C 	0.90220 0.74790 0.93380 -0.04300
H 	H 	0.88160 0.76050 0.91680 0.04400
C 	C 	0.94270 0.76480 0.93540 -0.03000
H 	H 	0.94940 0.78870 0.91940 0.03800
C 	C 	0.97340 0.74610 0.96070 -0.00500
C 	C 	0.96340 0.71050 0.98460 0.00000
H 	H 	0.98400 0.69800 0.00160 0.01600
C 	C 	0.92290 0.69370 0.98300 0.00100
H 	H 	0.91620 0.66980 0.99900 0.02900
N 	N 	0.29455 0.15900 0.47160 -0.28300
C 	C 	0.33493 0.16780 0.48435 0.07700
H 	H 	0.34740 0.15900 0.50960 -0.02200
N 	N 	0.35376 0.19160 0.45360 -0.13300
C 	C 	0.32500 0.19760 0.42190 0.00400
H 	H 	0.32960 0.21280 0.39700 0.02300
C 	C 	0.28843 0.17750 0.43300 -0.00900
H 	H 	0.26370 0.17650 0.41700 0.00100
C 	C 	0.39990 0.20320 0.45320 0.05500
C 	C 	0.41980 0.21350 0.41540 -0.06700
H 	H 	0.40590 0.20920 0.38970 0.05200
C 	C 	0.46050 0.23020 0.41580 -0.03300
H 	H 	0.47390 0.23720 0.39040 0.02800
C 	C 	0.48120 0.23660 0.45400 0.01200
C 	C 	0.46130 0.22630 0.49190 -0.01900
H 	H 	0.47530 0.23060 0.51750 0.01600
C 	C 	0.42070 0.20960 0.49140 -0.07800
H 	H 	0.40730 0.20270 0.51680 0.04700
C 	C 	0.39230 0.21240 0.45770 0.02700
C 	C 	0.40220 0.24790 0.43380 -0.05200
H 	H 	0.38160 0.26050 0.41680 0.04600
C 	C 	0.44270 0.26480 0.43540 -0.02500
H 	H 	0.44940 0.28870 0.41940 0.03300
C 	C 	0.47340 0.24610 0.46070 -0.01100
C 	C 	0.46340 0.21050 0.48460 -0.01600
H 	H 	0.48400 0.19800 0.50160 0.02400
C 	C 	0.42290 0.19370 0.48300 -0.01900
H 	H 	0.41620 0.16980 0.49900 0.02800
N 	N 	0.20545 0.15900 0.52840 -0.28300
C 	C 	0.16507 0.16780 0.51565 0.07700
H 	H 	0.15260 0.15900 0.49040 -0.02200
N 	N 	0.14624 0.19160 0.54640 -0.13400
C 	C 	0.17500 0.19760 0.57810 0.00400
H 	H 	0.17040 0.21280 0.60300 0.02300
C 	C 	0.21157 0.17750 0.56700 -0.01000
H 	H 	0.23630 0.17650 0.58300 0.00100
C 	C 	0.10010 0.20320 0.54680 0.05600
C 	C 	0.08020 0.21350 0.58460 -0.06800
H 	H 	0.09410 0.20920 0.61030 0.05200
C 	C 	0.03950 0.23020 0.58420 -0.03200
H 	H 	0.02610 0.23720 0.60960 0.02400
C 	C 	0.01880 0.23660 0.54600 0.00800
C 	C 	0.03870 0.22630 0.50810 -0.01800
H 	H 	0.02470 0.23060 0.48250 0.01200
C 	C 	0.07930 0.20960 0.50860 -0.08100
H 	H 	0.09270 0.20270 0.48320 0.04800
C 	C 	0.10770 0.21240 0.54230 0.02800
C 	C 	0.09780 0.24790 0.56620 -0.05500
H 	H 	0.11840 0.26050 0.58320 0.04700
C 	C 	0.05730 0.26480 0.56460 -0.02000
H 	H 	0.05060 0.28870 0.58060 0.02900
C 	C 	0.02660 0.24610 0.53930 -0.02000
C 	C 	0.03660 0.21050 0.51540 -0.01000
H 	H 	0.01600 0.19800 0.49840 0.01800
C 	C 	0.07710 0.19370 0.51700 -0.02000
H 	H 	0.08380 0.16980 0.50100 0.02700
N 	N 	0.70545 0.65900 0.02840 -0.28100
C 	C 	0.66507 0.66780 0.01565 0.05600
H 	H 	0.65260 0.65900 0.99040 -0.00700
N 	N 	0.64624 0.69160 0.04640 -0.13100
C 	C 	0.67500 0.69760 0.07810 0.00300
H 	H 	0.67040 0.71280 0.10300 0.02300
C 	C 	0.71157 0.67750 0.06700 -0.01000
H 	H 	0.73630 0.67650 0.08300 0.00100
C 	C 	0.60010 0.70320 0.04680 0.04900
C 	C 	0.58020 0.71350 0.08460 -0.06000
H 	H 	0.59410 0.70920 0.11030 0.04900
C 	C 	0.53950 0.73020 0.08420 -0.03500
H 	H 	0.52610 0.73720 0.10960 0.02900
C 	C 	0.51880 0.73660 0.04600 0.01100
C 	C 	0.53870 0.72630 0.00810 -0.02100
H 	H 	0.52470 0.73060 0.98250 0.02100
C 	C 	0.57930 0.70960 0.00860 -0.06100
H 	H 	0.59270 0.70270 0.98320 0.05000
C 	C 	0.60770 0.71240 0.04230 0.03200
C 	C 	0.59780 0.74790 0.06620 -0.05800
H 	H 	0.61840 0.76050 0.08320 0.04800
C 	C 	0.55730 0.76480 0.06460 -0.02600
H 	H 	0.55060 0.78870 0.08060 0.03300
C 	C 	0.52660 0.74610 0.03930 -0.00700
C 	C 	0.53660 0.71050 0.01540 -0.03800
H 	H 	0.51600 0.69800 0.99840 0.03800
C 	C 	0.57710 0.69370 0.01700 -0.03700
H 	H 	0.58380 0.66980 0.00100 0.02700
Zn	Zn	0.75000 0.37500 0.50000 1.17300
Zn	Zn	0.25000 0.87500 -0.00000 1.17000
Zn	Zn	0.75000 0.62500 -0.00000 1.17000
Zn	Zn	0.25000 0.12500 0.50000 1.17300
N 	N 	0.90900 0.95545 0.27840 -0.28000
C 	C 	0.91780 0.91507 0.26565 0.07800
H 	H 	0.90900 0.90260 0.24040 -0.02100
N 	N 	0.94160 0.89624 0.29640 -0.13200
C 	C 	0.94760 0.92500 0.32810 0.00500
H 	H 	0.96280 0.92040 0.35300 0.02700
C 	C 	0.92750 0.96157 0.31700 -0.00800
H 	H 	0.92650 0.98630 0.33300 0.00600
C 	C 	0.95320 0.85010 0.29680 0.03400
C 	C 	0.96350 0.83020 0.33460 -0.09400
H 	H 	0.95920 0.84410 0.36030 0.06300
C 	C 	0.98020 0.78950 0.33420 -0.00800
H 	H 	0.98720 0.77610 0.35960 0.02200
C 	C 	0.98660 0.76880 0.29600 0.05700
C 	C 	0.97630 0.78870 0.25810 -0.03700
H 	H 	0.98060 0.77470 0.23250 0.02600
C 	C 	0.95960 0.82930 0.25860 -0.07200
H 	H 	0.95270 0.84270 0.23320 0.04600
C 	C 	0.96240 0.85770 0.29230 0.03600
C 	C 	0.99790 0.84780 0.31620 0.01700
H 	H 	0.01050 0.86840 0.33320 0.01500
C 	C 	0.01480 0.80730 0.31460 -0.08600
H 	H 	0.03870 0.80060 0.33060 0.05300
C 	C 	0.99610 0.77660 0.28930 -0.02600
C 	C 	0.96050 0.78660 0.26540 -0.01100
H 	H 	0.94800 0.76600 0.24840 0.02300
C 	C 	0.94370 0.82710 0.26700 -0.01400
H 	H 	0.91980 0.83380 0.25100 0.02600
N 	N 	0.40900 0.45545 0.77840 -0.28300
C 	C 	0.41780 0.41507 0.76565 0.07700
H 	H 	0.40900 0.40260 0.74040 -0.02200
N 	N 	0.44160 0.39624 0.79640 -0.13300
C 	C 	0.44760 0.42500 0.82810 0.00400
H 	H 	0.46280 0.42040 0.85300 0.02400
C 	C 	0.42750 0.46157 0.81700 -0.00900
H 	H 	0.42650 0.48630 0.83300 0.00100
C 	C 	0.45320 0.35010 0.79680 0.05500
C 	C 	0.46350 0.33020 0.83460 -0.06700
H 	H 	0.45920 0.34410 0.86030 0.05200
C 	C 	0.48020 0.28950 0.83420 -0.03300
H 	H 	0.48720 0.27610 0.85960 0.02900
C 	C 	0.48660 0.26880 0.79600 0.01200
C 	C 	0.47630 0.28870 0.75810 -0.01900
H 	H 	0.48060 0.27470 0.73250 0.01600
C 	C 	0.45960 0.32930 0.75860 -0.07800
H 	H 	0.45270 0.34270 0.73320 0.04700
C 	C 	0.46240 0.35770 0.79230 0.02700
C 	C 	0.49790 0.34780 0.81620 -0.05200
H 	H 	0.51050 0.36840 0.83320 0.04700
C 	C 	0.51480 0.30730 0.81460 -0.02500
H 	H 	0.53870 0.30060 0.83060 0.03300
C 	C 	0.49610 0.27660 0.78930 -0.01100
C 	C 	0.46050 0.28660 0.76540 -0.01600
H 	H 	0.44800 0.26600 0.74840 0.02400
C 	C 	0.44370 0.32710 0.76700 -0.01900
H 	H 	0.41980 0.33380 0.75100 0.02800
N 	N 	0.40900 0.54455 0.72160 -0.28300
C 	C 	0.41780 0.58493 0.73435 0.07700
H 	H 	0.40900 0.59740 0.75960 -0.02200
N 	N 	0.44160 0.60376 0.70360 -0.13300
C 	C 	0.44760 0.57500 0.67190 0.00400
H 	H 	0.46280 0.57960 0.64700 0.02300
C 	C 	0.42750 0.53843 0.68300 -0.00900
H 	H 	0.42650 0.51370 0.66700 0.00100
C 	C 	0.45320 0.64990 0.70320 0.05500
C 	C 	0.46350 0.66980 0.66540 -0.06700
H 	H 	0.45920 0.65590 0.63970 0.05200
C 	C 	0.48020 0.71050 0.66580 -0.03300
H 	H 	0.48720 0.72390 0.64040 0.02800
C 	C 	0.48660 0.73120 0.70400 0.01200
C 	C 	0.47630 0.71130 0.74190 -0.01900
H 	H 	0.48060 0.72530 0.76750 0.01600
C 	C 	0.45960 0.67070 0.74140 -0.07800
H 	H 	0.45270 0.65730 0.76680 0.04700
C 	C 	0.46240 0.64230 0.70770 0.02700
C 	C 	0.49790 0.65220 0.68380 -0.05200
H 	H 	0.51050 0.63160 0.66680 0.04600
C 	C 	0.51480 0.69270 0.68540 -0.02600
H 	H 	0.53870 0.69940 0.66940 0.03300
C 	C 	0.49610 0.72340 0.71070 -0.01100
C 	C 	0.46050 0.71340 0.73460 -0.01600
H 	H 	0.44800 0.73400 0.75160 0.02400
C 	C 	0.44370 0.67290 0.73300 -0.01900
H 	H 	0.41980 0.66620 0.74900 0.02800
N 	N 	0.90900 0.04455 0.22160 -0.28400
C 	C 	0.91780 0.08493 0.23435 0.07700
H 	H 	0.90900 0.09740 0.25960 -0.02200
N 	N 	0.94160 0.10376 0.20360 -0.13200
C 	C 	0.94760 0.07500 0.17190 0.00300
H 	H 	0.96280 0.07960 0.14700 0.02500
C 	C 	0.92750 0.03843 0.18300 -0.01000
H 	H 	0.92650 0.01370 0.16700 -0.00200
C 	C 	0.95320 0.14990 0.20320 0.03400
C 	C 	0.96350 0.16980 0.16540 -0.09400
H 	H 	0.95920 0.15590 0.13970 0.06300
C 	C 	0.98020 0.21050 0.16580 -0.00800
H 	H 	0.98720 0.22390 0.14040 0.02200
C 	C 	0.98660 0.23120 0.20400 0.05700
C 	C 	0.97630 0.21130 0.24190 -0.03700
H 	H 	0.98060 0.22530 0.26750 0.02600
C 	C 	0.95960 0.17070 0.24140 -0.07100
H 	H 	0.95270 0.15730 0.26680 0.04600
C 	C 	0.96240 0.14230 0.20770 0.03600
C 	C 	0.99790 0.15220 0.18380 0.01700
H 	H 	0.01050 0.13160 0.16680 0.01300
C 	C 	0.01480 0.19270 0.18540 -0.08600
H 	H 	0.03870 0.19940 0.16940 0.05300
C 	C 	0.99610 0.22340 0.21070 -0.02600
C 	C 	0.96050 0.21340 0.23460 -0.01100
H 	H 	0.94800 0.23400 0.25160 0.02300
C 	C 	0.94370 0.17290 0.23300 -0.01400
H 	H 	0.91980 0.16620 0.24900 0.02600
N 	N 	0.09100 0.45545 0.22160 -0.28200
C 	C 	0.08220 0.41507 0.23435 0.07700
H 	H 	0.09100 0.40260 0.25960 -0.02200
N 	N 	0.05840 0.39624 0.20360 -0.13500
C 	C 	0.05240 0.42500 0.17190 0.00300
H 	H 	0.03720 0.42040 0.14700 0.02000
C 	C 	0.07250 0.46157 0.18300 -0.01000
H 	H 	0.07350 0.48630 0.16700 -0.00000
C 	C 	0.04680 0.35010 0.20320 0.07500
C 	C 	0.03650 0.33020 0.16540 -0.03900
H 	H 	0.04080 0.34410 0.13970 0.04000
C 	C 	0.01980 0.28950 0.16580 -0.05800
H 	H 	0.01280 0.27610 0.14040 0.03400
C 	C 	0.01340 0.26880 0.20400 -0.03300
C 	C 	0.02370 0.28870 0.24190 -0.00200
H 	H 	0.01940 0.27470 0.26750 0.00600
C 	C 	0.04040 0.32930 0.24140 -0.08400
H 	H 	0.04730 0.34270 0.26680 0.04900
C 	C 	0.03760 0.35770 0.20770 0.01900
C 	C 	0.00210 0.34780 0.18380 -0.12000
H 	H 	0.98950 0.36840 0.16680 0.07800
C 	C 	0.98520 0.30730 0.18540 0.03500
H 	H 	0.96130 0.30060 0.16940 0.01300
C 	C 	0.00390 0.27660 0.21070 0.00400
C 	C 	0.03950 0.28660 0.23460 -0.02100
H 	H 	0.05200 0.26600 0.25160 0.02600
C 	C 	0.05630 0.32710 0.23300 -0.02400
H 	H 	0.08020 0.33380 0.24900 0.03000
N 	N 	0.59100 0.95545 0.72160 -0.28000
C 	C 	0.58220 0.91507 0.73435 0.07800
H 	H 	0.59100 0.90260 0.75960 -0.02100
N 	N 	0.55840 0.89624 0.70360 -0.13300
C 	C 	0.55240 0.92500 0.67190 0.00500
H 	H 	0.53720 0.92040 0.64700 0.02400
C 	C 	0.57250 0.96157 0.68300 -0.00900
H 	H 	0.57350 0.98630 0.66700 0.00500
C 	C 	0.54680 0.85010 0.70320 0.05500
C 	C 	0.53650 0.83020 0.66540 -0.06700
H 	H 	0.54080 0.84410 0.63970 0.05200
C 	C 	0.51980 0.78950 0.66580 -0.03300
H 	H 	0.51280 0.77610 0.64040 0.02800
C 	C 	0.51340 0.76880 0.70400 0.01200
C 	C 	0.52370 0.78870 0.74190 -0.01900
H 	H 	0.51940 0.77470 0.76750 0.01600
C 	C 	0.54040 0.82930 0.74140 -0.07800
H 	H 	0.54730 0.84270 0.76680 0.04700
C 	C 	0.53760 0.85770 0.70770 0.02700
C 	C 	0.50210 0.84780 0.68380 -0.05200
H 	H 	0.48950 0.86840 0.66680 0.04700
C 	C 	0.48520 0.80730 0.68540 -0.02500
H 	H 	0.46130 0.80060 0.66940 0.03300
C 	C 	0.50390 0.77660 0.71070 -0.01100
C 	C 	0.53950 0.78660 0.73460 -0.01600
H 	H 	0.55200 0.76600 0.75160 0.02400
C 	C 	0.55630 0.82710 0.73300 -0.01900
H 	H 	0.58020 0.83380 0.74900 0.02800
N 	N 	0.59100 0.04455 0.77840 -0.28400
C 	C 	0.58220 0.08493 0.76565 0.07700
H 	H 	0.59100 0.09740 0.74040 -0.02200
N 	N 	0.55840 0.10376 0.79640 -0.13300
C 	C 	0.55240 0.07500 0.82810 0.00300
H 	H 	0.53720 0.07960 0.85300 0.02300
C 	C 	0.57250 0.03843 0.81700 -0.01000
H 	H 	0.57350 0.01370 0.83300 -0.00200
C 	C 	0.54680 0.14990 0.79680 0.05500
C 	C 	0.53650 0.16980 0.83460 -0.06600
H 	H 	0.54080 0.15590 0.86030 0.05200
C 	C 	0.51980 0.21050 0.83420 -0.03300
H 	H 	0.51280 0.22390 0.85960 0.02900
C 	C 	0.51340 0.23120 0.79600 0.01200
C 	C 	0.52370 0.21130 0.75810 -0.01900
H 	H 	0.51940 0.22530 0.73250 0.01600
C 	C 	0.54040 0.17070 0.75860 -0.07800
H 	H 	0.54730 0.15730 0.73320 0.04700
C 	C 	0.53760 0.14230 0.79230 0.02700
C 	C 	0.50210 0.15220 0.81620 -0.05200
H 	H 	0.48950 0.13160 0.83320 0.04600
C 	C 	0.48520 0.19270 0.81460 -0.02500
H 	H 	0.46130 0.19940 0.83060 0.03300
C 	C 	0.50390 0.22340 0.78930 -0.01000
C 	C 	0.53950 0.21340 0.76540 -0.01600
H 	H 	0.55200 0.23400 0.74840 0.02400
C 	C 	0.55630 0.17290 0.76700 -0.01900
H 	H 	0.58020 0.16620 0.75100 0.02800
N 	N 	0.09100 0.54455 0.27840 -0.28300
C 	C 	0.08220 0.58493 0.26565 0.07700
H 	H 	0.09100 0.59740 0.24040 -0.02200
N 	N 	0.05840 0.60376 0.29640 -0.13500
C 	C 	0.05240 0.57500 0.32810 0.00300
H 	H 	0.03720 0.57960 0.35300 0.02100
C 	C 	0.07250 0.53843 0.31700 -0.01000
H 	H 	0.07350 0.51370 0.33300 0.00000
C 	C 	0.04680 0.64990 0.29680 0.07500
C 	C 	0.03650 0.66980 0.33460 -0.03900
H 	H 	0.04080 0.65590 0.36030 0.04000
C 	C 	0.01980 0.71050 0.33420 -0.05800
H 	H 	0.01280 0.72390 0.35960 0.03400
C 	C 	0.01340 0.73120 0.29600 -0.03300
C 	C 	0.02370 0.71130 0.25810 -0.00200
H 	H 	0.01940 0.72530 0.23250 0.00600
C 	C 	0.04040 0.67070 0.25860 -0.08400
H 	H 	0.04730 0.65730 0.23320 0.04900
C 	C 	0.03760 0.64230 0.29230 0.01900
C 	C 	0.00210 0.65220 0.31620 -0.12100
H 	H 	0.98950 0.63160 0.33320 0.07800
C 	C 	0.98520 0.69270 0.31460 0.03500
H 	H 	0.96130 0.69940 0.33060 0.01300
C 	C 	0.00390 0.72340 0.28930 0.00400
C 	C 	0.03950 0.71340 0.26540 -0.02100
H 	H 	0.05200 0.73400 0.24840 0.02600
C 	C 	0.05630 0.67290 0.26700 -0.02400
H 	H 	0.08020 0.66620 0.25100 0.03000
N 	N 	0.84100 0.02840 0.29455 -0.28100
C 	C 	0.83220 0.01565 0.33493 0.05600
H 	H 	0.84100 0.99040 0.34740 -0.00700
N 	N 	0.80840 0.04640 0.35376 -0.13100
C 	C 	0.80240 0.07810 0.32500 0.00300
H 	H 	0.78720 0.10300 0.32960 0.02300
C 	C 	0.82250 0.06700 0.28843 -0.01000
H 	H 	0.82350 0.08300 0.26370 0.00100
C 	C 	0.79680 0.04680 0.39990 0.04900
C 	C 	0.78650 0.08460 0.41980 -0.06000
H 	H 	0.79080 0.11030 0.40590 0.04900
C 	C 	0.76980 0.08420 0.46050 -0.03500
H 	H 	0.76280 0.10960 0.47390 0.02900
C 	C 	0.76340 0.04600 0.48120 0.01000
C 	C 	0.77370 0.00810 0.46130 -0.02100
H 	H 	0.76940 0.98250 0.47530 0.02100
C 	C 	0.79040 0.00860 0.42070 -0.06100
H 	H 	0.79730 0.98320 0.40730 0.05000
C 	C 	0.78760 0.04230 0.39230 0.03200
C 	C 	0.75210 0.06620 0.40220 -0.05800
H 	H 	0.73950 0.08320 0.38160 0.04800
C 	C 	0.73520 0.06460 0.44270 -0.02700
H 	H 	0.71130 0.08060 0.44940 0.03300
C 	C 	0.75390 0.03930 0.47340 -0.00700
C 	C 	0.78950 0.01540 0.46340 -0.03800
H 	H 	0.80200 0.99840 0.48400 0.03900
C 	C 	0.80630 0.01700 0.42290 -0.03700
H 	H 	0.83020 0.00100 0.41620 0.02800
N 	N 	0.34100 0.52840 0.79455 -0.28300
C 	C 	0.33220 0.51565 0.83493 0.07700
H 	H 	0.34100 0.49040 0.84740 -0.02200
N 	N 	0.30840 0.54640 0.85376 -0.13300
C 	C 	0.30240 0.57810 0.82500 0.00400
H 	H 	0.28720 0.60300 0.82960 0.02300
C 	C 	0.32250 0.56700 0.78843 -0.00900
H 	H 	0.32350 0.58300 0.76370 0.00100
C 	C 	0.29680 0.54680 0.89990 0.05300
C 	C 	0.28650 0.58460 0.91980 -0.06500
H 	H 	0.29080 0.61030 0.90590 0.05100
C 	C 	0.26980 0.58420 0.96050 -0.03400
H 	H 	0.26280 0.60960 0.97390 0.03300
C 	C 	0.26340 0.54600 0.98120 0.01500
C 	C 	0.27370 0.50810 0.96130 -0.02000
H 	H 	0.26940 0.48250 0.97530 0.01900
C 	C 	0.29040 0.50860 0.92070 -0.07500
H 	H 	0.29730 0.48320 0.90730 0.04600
C 	C 	0.28760 0.54230 0.89230 0.02700
C 	C 	0.25210 0.56620 0.90220 -0.04900
H 	H 	0.23950 0.58320 0.88160 0.04500
C 	C 	0.23520 0.56460 0.94270 -0.03100
H 	H 	0.21130 0.58060 0.94940 0.03700
C 	C 	0.25390 0.53930 0.97340 -0.00100
C 	C 	0.28950 0.51540 0.96340 -0.02200
H 	H 	0.30200 0.49840 0.98400 0.03000
C 	C 	0.30630 0.51700 0.92290 -0.01800
H 	H 	0.33020 0.50100 0.91620 0.02800
N 	N 	0.34100 0.47160 0.70545 -0.28300
C 	C 	0.33220 0.48435 0.66507 0.07700
H 	H 	0.34100 0.50960 0.65260 -0.02200
N 	N 	0.30840 0.45360 0.64624 -0.13300
C 	C 	0.30240 0.42190 0.67500 0.00400
H 	H 	0.28720 0.39700 0.67040 0.02300
C 	C 	0.32250 0.43300 0.71157 -0.00900
H 	H 	0.32350 0.41700 0.73630 0.00100
C 	C 	0.29680 0.45320 0.60010 0.05500
C 	C 	0.28650 0.41540 0.58020 -0.06700
H 	H 	0.29080 0.38970 0.59410 0.05200
C 	C 	0.26980 0.41580 0.53950 -0.03300
H 	H 	0.26280 0.39040 0.52610 0.02800
C 	C 	0.26340 0.45400 0.51880 0.01200
C 	C 	0.27370 0.49190 0.53870 -0.01900
H 	H 	0.26940 0.51750 0.52470 0.01600
C 	C 	0.29040 0.49140 0.57930 -0.07800
H 	H 	0.29730 0.51680 0.59270 0.04700
C 	C 	0.28760 0.45770 0.60770 0.02700
C 	C 	0.25210 0.43380 0.59780 -0.05200
H 	H 	0.23950 0.41680 0.61840 0.04600
C 	C 	0.23520 0.43540 0.55730 -0.02600
H 	H 	0.21130 0.41940 0.55060 0.03300
C 	C 	0.25390 0.46070 0.52660 -0.01100
C 	C 	0.28950 0.48460 0.53660 -0.01600
H 	H 	0.30200 0.50160 0.51600 0.02400
C 	C 	0.30630 0.48300 0.57710 -0.01900
H 	H 	0.33020 0.49900 0.58380 0.02800
N 	N 	0.84100 0.97160 0.20545 -0.28300
C 	C 	0.83220 0.98435 0.16507 0.09900
H 	H 	0.84100 0.00960 0.15260 -0.03600
N 	N 	0.80840 0.95360 0.14624 -0.13600
C 	C 	0.80240 0.92190 0.17500 0.00400
H 	H 	0.78720 0.89700 0.17040 0.02300
C 	C 	0.82250 0.93300 0.21157 -0.00900
H 	H 	0.82350 0.91700 0.23630 0.00200
C 	C 	0.79680 0.95320 0.10010 0.06200
C 	C 	0.78650 0.91540 0.08020 -0.07400
H 	H 	0.79080 0.88970 0.09410 0.05400
C 	C 	0.76980 0.91580 0.03950 -0.02900
H 	H 	0.76280 0.89040 0.02610 0.02300
C 	C 	0.76340 0.95400 0.01880 0.00900
C 	C 	0.77370 0.99190 0.03870 -0.01600
H 	H 	0.76940 0.01750 0.02470 0.00700
C 	C 	0.79040 0.99140 0.07930 -0.09700
H 	H 	0.79730 0.01680 0.09270 0.04500
C 	C 	0.78760 0.95770 0.10770 0.02400
C 	C 	0.75210 0.93380 0.09780 -0.04900
H 	H 	0.73950 0.91680 0.11840 0.04600
C 	C 	0.73520 0.93540 0.05730 -0.01900
H 	H 	0.71130 0.91940 0.05060 0.02900
C 	C 	0.75390 0.96070 0.02660 -0.02400
C 	C 	0.78950 0.98460 0.03660 0.01200
H 	H 	0.80200 0.00160 0.01600 0.00500
C 	C 	0.80630 0.98300 0.07710 -0.00200
H 	H 	0.83020 0.99900 0.08380 0.02900
N 	N 	0.65900 0.97160 0.79455 -0.28300
C 	C 	0.66780 0.98435 0.83493 0.09900
H 	H 	0.65900 0.00960 0.84740 -0.03600
N 	N 	0.69160 0.95360 0.85376 -0.13500
C 	C 	0.69760 0.92190 0.82500 0.00400
H 	H 	0.71280 0.89700 0.82960 0.02300
C 	C 	0.67750 0.93300 0.78843 -0.00900
H 	H 	0.67650 0.91700 0.76370 0.00100
C 	C 	0.70320 0.95320 0.89990 0.05900
C 	C 	0.71350 0.91540 0.91980 -0.07200
H 	H 	0.70920 0.88970 0.90590 0.05300
C 	C 	0.73020 0.91580 0.96050 -0.03200
H 	H 	0.73720 0.89040 0.97390 0.03200
C 	C 	0.73660 0.95400 0.98120 0.01600
C 	C 	0.72630 0.99190 0.96130 -0.01900
H 	H 	0.73060 0.01750 0.97530 0.01400
C 	C 	0.70960 0.99140 0.92070 -0.09200
H 	H 	0.70270 0.01680 0.90730 0.04300
C 	C 	0.71240 0.95770 0.89230 0.02200
C 	C 	0.74790 0.93380 0.90220 -0.04300
H 	H 	0.76050 0.91680 0.88160 0.04400
C 	C 	0.76480 0.93540 0.94270 -0.03000
H 	H 	0.78870 0.91940 0.94940 0.03800
C 	C 	0.74610 0.96070 0.97340 -0.00500
C 	C 	0.71050 0.98460 0.96340 0.00000
H 	H 	0.69800 0.00160 0.98400 0.01600
C 	C 	0.69370 0.98300 0.92290 0.00100
H 	H 	0.66980 0.99900 0.91620 0.02900
N 	N 	0.15900 0.47160 0.29455 -0.28300
C 	C 	0.16780 0.48435 0.33493 0.07700
H 	H 	0.15900 0.50960 0.34740 -0.02200
N 	N 	0.19160 0.45360 0.35376 -0.13300
C 	C 	0.19760 0.42190 0.32500 0.00400
H 	H 	0.21280 0.39700 0.32960 0.02300
C 	C 	0.17750 0.43300 0.28843 -0.00900
H 	H 	0.17650 0.41700 0.26370 0.00100
C 	C 	0.20320 0.45320 0.39990 0.05500
C 	C 	0.21350 0.41540 0.41980 -0.06700
H 	H 	0.20920 0.38970 0.40590 0.05200
C 	C 	0.23020 0.41580 0.46050 -0.03300
H 	H 	0.23720 0.39040 0.47390 0.02800
C 	C 	0.23660 0.45400 0.48120 0.01200
C 	C 	0.22630 0.49190 0.46130 -0.01900
H 	H 	0.23060 0.51750 0.47530 0.01600
C 	C 	0.20960 0.49140 0.42070 -0.07800
H 	H 	0.20270 0.51680 0.40730 0.04700
C 	C 	0.21240 0.45770 0.39230 0.02700
C 	C 	0.24790 0.43380 0.40220 -0.05200
H 	H 	0.26050 0.41680 0.38160 0.04600
C 	C 	0.26480 0.43540 0.44270 -0.02500
H 	H 	0.28870 0.41940 0.44940 0.03300
C 	C 	0.24610 0.46070 0.47340 -0.01100
C 	C 	0.21050 0.48460 0.46340 -0.01600
H 	H 	0.19800 0.50160 0.48400 0.02400
C 	C 	0.19370 0.48300 0.42290 -0.01900
H 	H 	0.16980 0.49900 0.41620 0.02800
N 	N 	0.15900 0.52840 0.20545 -0.28300
C 	C 	0.16780 0.51565 0.16507 0.07700
H 	H 	0.15900 0.49040 0.15260 -0.02200
N 	N 	0.19160 0.54640 0.14624 -0.13400
C 	C 	0.19760 0.57810 0.17500 0.00400
H 	H 	0.21280 0.60300 0.17040 0.02300
C 	C 	0.17750 0.56700 0.21157 -0.01000
H 	H 	0.17650 0.58300 0.23630 0.00100
C 	C 	0.20320 0.54680 0.10010 0.05600
C 	C 	0.21350 0.58460 0.08020 -0.06800
H 	H 	0.20920 0.61030 0.09410 0.05200
C 	C 	0.23020 0.58420 0.03950 -0.03200
H 	H 	0.23720 0.60960 0.02610 0.02400
C 	C 	0.23660 0.54600 0.01880 0.00800
C 	C 	0.22630 0.50810 0.03870 -0.01800
H 	H 	0.23060 0.48250 0.02470 0.01200
C 	C 	0.20960 0.50860 0.07930 -0.08100
H 	H 	0.20270 0.48320 0.09270 0.04800
C 	C 	0.21240 0.54230 0.10770 0.02800
C 	C 	0.24790 0.56620 0.09780 -0.05500
H 	H 	0.26050 0.58320 0.11840 0.04700
C 	C 	0.26480 0.56460 0.05730 -0.02000
H 	H 	0.28870 0.58060 0.05060 0.02900
C 	C 	0.24610 0.53930 0.02660 -0.02000
C 	C 	0.21050 0.51540 0.03660 -0.01000
H 	H 	0.19800 0.49840 0.01600 0.01800
C 	C 	0.19370 0.51700 0.07710 -0.02000
H 	H 	0.16980 0.50100 0.08380 0.02700
N 	N 	0.65900 0.02840 0.70545 -0.28100
C 	C 	0.66780 0.01565 0.66507 0.05600
H 	H 	0.65900 0.99040 0.65260 -0.00700
N 	N 	0.69160 0.04640 0.64624 -0.13100
C 	C 	0.69760 0.07810 0.67500 0.00300
H 	H 	0.71280 0.10300 0.67040 0.02300
C 	C 	0.67750 0.06700 0.71157 -0.01000
H 	H 	0.67650 0.08300 0.73630 0.00100
C 	C 	0.70320 0.04680 0.60010 0.04900
C 	C 	0.71350 0.08460 0.58020 -0.06000
H 	H 	0.70920 0.11030 0.59410 0.04900
C 	C 	0.73020 0.08420 0.53950 -0.03500
H 	H 	0.73720 0.10960 0.52610 0.02900
C 	C 	0.73660 0.04600 0.51880 0.01100
C 	C 	0.72630 0.00810 0.53870 -0.02100
H 	H 	0.73060 0.98250 0.52470 0.02100
C 	C 	0.70960 0.00860 0.57930 -0.06100
H 	H 	0.70270 0.98320 0.59270 0.05000
C 	C 	0.71240 0.04230 0.60770 0.03200
C 	C 	0.74790 0.06620 0.59780 -0.05800
H 	H 	0.76050 0.08320 0.61840 0.04800
C 	C 	0.76480 0.06460 0.55730 -0.02600
H 	H 	0.78870 0.08060 0.55060 0.03300
C 	C 	0.74610 0.03930 0.52660 -0.00700
C 	C 	0.71050 0.01540 0.53660 -0.03800
H 	H 	0.69800 0.99840 0.51600 0.03800
C 	C 	0.69370 0.01700 0.57710 -0.03700
H 	H 	0.66980 0.00100 0.58380 0.02700
Zn	Zn	0.87500 0.00000 0.25000 1.17000
Zn	Zn	0.37500 0.50000 0.75000 1.17300
Zn	Zn	0.12500 0.50000 0.25000 1.17300
Zn	Zn	0.62500 0.00000 0.75000 1.17000
