data_crystal

_cell_length_a 18.59430
_cell_length_b 18.59430
_cell_length_c 38.71130
_cell_angle_alpha 90.00000
_cell_angle_beta  90.00000
_cell_angle_gamma 120.00000

_symmetry_space_group_name_	'P 1'
_symmetry_space_group_name_H-M	'P 1'

loop_
_symmetry_equiv_pos_as_xyz
  x,y,z

loop_
_atom_site_label
_atom_site_type_symbol
_atom_site_fract_x
_atom_site_fract_y
_atom_site_fract_z
_atom_site_charge
N 	N 	0.49800 0.61530 0.55430 -0.13200
O 	O 	0.74436 0.63663 0.62256 -0.41400
O 	O 	0.70504 0.55682 0.66957 -0.41200
C 	C 	0.69430 0.57490 0.63958 0.38200
C 	C 	0.61330 0.51560 0.62243 -0.12800
C 	C 	0.59850 0.52930 0.58831 0.06700
H 	H 	0.63720 0.57710 0.57690 0.02900
C 	C 	0.49990 0.44300 0.51180 -0.25200
H 	H 	0.50430 0.39650 0.51950 -0.03100
C 	C 	0.48910 0.45800 0.47760 -0.25000
H 	H 	0.49070 0.42230 0.46070 -0.03900
C 	C 	0.48980 0.58240 0.49360 0.28000
C 	C 	0.48090 0.65040 0.48580 -0.14300
H 	H 	0.47870 0.66400 0.46290 0.08700
C 	C 	0.47400 0.69660 0.51230 -0.08200
H 	H 	0.46130 0.73600 0.50720 0.05800
C 	C 	0.48800 0.68400 0.54620 0.04800
H 	H 	0.49170 0.72180 0.56400 0.02100
C 	C 	0.49840 0.56630 0.52790 0.26600
N 	N 	0.16467 0.94863 0.88763 -0.13200
O 	O 	0.41103 0.96996 0.95589 -0.41300
O 	O 	0.37171 0.89015 0.00290 -0.41200
C 	C 	0.36097 0.90823 0.97291 0.38300
C 	C 	0.27997 0.84893 0.95576 -0.12700
C 	C 	0.26517 0.86263 0.92164 0.06800
H 	H 	0.30387 0.91043 0.91023 0.03000
C 	C 	0.16657 0.77633 0.84513 -0.25100
H 	H 	0.17097 0.72983 0.85283 -0.03300
C 	C 	0.15577 0.79133 0.81093 -0.25000
H 	H 	0.15737 0.75563 0.79403 -0.03900
C 	C 	0.15647 0.91573 0.82693 0.28100
C 	C 	0.14757 0.98373 0.81913 -0.13800
H 	H 	0.14537 0.99733 0.79623 0.08500
C 	C 	0.14067 0.02993 0.84563 -0.09000
H 	H 	0.12797 0.06933 0.84053 0.06100
C 	C 	0.15467 0.01733 0.87953 0.05100
H 	H 	0.15837 0.05513 0.89733 0.02000
C 	C 	0.16507 0.89963 0.86123 0.26600
N 	N 	0.83133 0.28197 0.22097 -0.13200
O 	O 	0.07769 0.30330 0.28923 -0.41300
O 	O 	0.03837 0.22349 0.33624 -0.41100
C 	C 	0.02763 0.24157 0.30625 0.38200
C 	C 	0.94663 0.18227 0.28910 -0.12600
C 	C 	0.93183 0.19597 0.25498 0.06800
H 	H 	0.97053 0.24377 0.24357 0.03000
C 	C 	0.83323 0.10967 0.17847 -0.25200
H 	H 	0.83763 0.06317 0.18617 -0.03300
C 	C 	0.82243 0.12467 0.14427 -0.25100
H 	H 	0.82403 0.08897 0.12737 -0.03900
C 	C 	0.82313 0.24907 0.16027 0.28100
C 	C 	0.81423 0.31707 0.15247 -0.13900
H 	H 	0.81203 0.33067 0.12957 0.08600
C 	C 	0.80733 0.36327 0.17897 -0.08900
H 	H 	0.79463 0.40267 0.17387 0.06100
C 	C 	0.82133 0.35067 0.21287 0.05100
H 	H 	0.82503 0.38847 0.23067 0.02000
C 	C 	0.83173 0.23297 0.19457 0.26600
N 	N 	0.38470 0.88270 0.55430 -0.13100
O 	O 	0.36337 0.10773 0.62256 -0.41300
O 	O 	0.44318 0.14822 0.66957 -0.41100
C 	C 	0.42510 0.11940 0.63958 0.38300
C 	C 	0.48440 0.09770 0.62243 -0.12700
C 	C 	0.47070 0.06920 0.58831 0.06800
H 	H 	0.42290 0.06010 0.57690 0.03000
C 	C 	0.55700 0.05690 0.51180 -0.25100
H 	H 	0.60350 0.10780 0.51950 -0.03100
C 	C 	0.54200 0.03110 0.47760 -0.25000
H 	H 	0.57770 0.06840 0.46070 -0.03900
C 	C 	0.41760 0.90740 0.49360 0.28000
C 	C 	0.34960 0.83050 0.48580 -0.14300
H 	H 	0.33600 0.81470 0.46290 0.08700
C 	C 	0.30340 0.77740 0.51230 -0.08200
H 	H 	0.26400 0.72530 0.50720 0.05800
C 	C 	0.31600 0.80400 0.54620 0.04800
H 	H 	0.27820 0.76990 0.56400 0.02100
C 	C 	0.43370 0.93210 0.52790 0.26600
N 	N 	0.05137 0.21603 0.88763 -0.12900
O 	O 	0.03004 0.44106 0.95589 -0.41300
O 	O 	0.10985 0.48155 0.00290 -0.41100
C 	C 	0.09177 0.45273 0.97291 0.38300
C 	C 	0.15107 0.43103 0.95576 -0.12700
C 	C 	0.13737 0.40253 0.92164 0.06800
H 	H 	0.08957 0.39343 0.91023 0.03000
C 	C 	0.22367 0.39023 0.84513 -0.25800
H 	H 	0.27017 0.44113 0.85283 -0.02400
C 	C 	0.20867 0.36443 0.81093 -0.23900
H 	H 	0.24437 0.40173 0.79403 -0.04300
C 	C 	0.08427 0.24073 0.82693 0.27800
C 	C 	0.01627 0.16383 0.81913 -0.15100
H 	H 	0.00267 0.14803 0.79623 0.08900
C 	C 	0.97007 0.11073 0.84563 -0.07200
H 	H 	0.93067 0.05863 0.84053 0.05300
C 	C 	0.98267 0.13733 0.87953 0.04200
H 	H 	0.94487 0.10323 0.89733 0.02300
C 	C 	0.10037 0.26543 0.86123 0.26700
N 	N 	0.71803 0.54937 0.22097 -0.12900
O 	O 	0.69670 0.77440 0.28923 -0.41300
O 	O 	0.77651 0.81489 0.33624 -0.41100
C 	C 	0.75843 0.78607 0.30625 0.38300
C 	C 	0.81773 0.76437 0.28910 -0.12600
C 	C 	0.80403 0.73587 0.25498 0.06800
H 	H 	0.75623 0.72677 0.24357 0.03000
C 	C 	0.89033 0.72357 0.17847 -0.25900
H 	H 	0.93683 0.77447 0.18617 -0.02500
C 	C 	0.87533 0.69777 0.14427 -0.23800
H 	H 	0.91103 0.73507 0.12737 -0.04400
C 	C 	0.75093 0.57407 0.16027 0.27700
C 	C 	0.68293 0.49717 0.15247 -0.15300
H 	H 	0.66933 0.48137 0.12957 0.09000
C 	C 	0.63673 0.44407 0.17897 -0.06700
H 	H 	0.59733 0.39197 0.17387 0.05200
C 	C 	0.64933 0.47067 0.21287 0.04100
H 	H 	0.61153 0.43657 0.23067 0.02300
C 	C 	0.76703 0.59877 0.19457 0.26600
N 	N 	0.11730 0.50200 0.55430 -0.13100
O 	O 	0.89227 0.25564 0.62256 -0.41300
O 	O 	0.85178 0.29496 0.66957 -0.41100
C 	C 	0.88060 0.30570 0.63958 0.38300
C 	C 	0.90230 0.38670 0.62243 -0.12700
C 	C 	0.93080 0.40150 0.58831 0.06800
H 	H 	0.93990 0.36280 0.57690 0.03000
C 	C 	0.94310 0.50010 0.51180 -0.25200
H 	H 	0.89220 0.49570 0.51950 -0.03100
C 	C 	0.96890 0.51090 0.47760 -0.25000
H 	H 	0.93160 0.50930 0.46070 -0.03900
C 	C 	0.09260 0.51020 0.49360 0.28000
C 	C 	0.16950 0.51910 0.48580 -0.14300
H 	H 	0.18530 0.52130 0.46290 0.08700
C 	C 	0.22260 0.52600 0.51230 -0.08200
H 	H 	0.27470 0.53870 0.50720 0.05800
C 	C 	0.19600 0.51200 0.54620 0.04800
H 	H 	0.23010 0.50830 0.56400 0.02100
C 	C 	0.06790 0.50160 0.52790 0.26600
N 	N 	0.78397 0.83533 0.88763 -0.13300
O 	O 	0.55894 0.58897 0.95589 -0.41300
O 	O 	0.51845 0.62829 0.00290 -0.41100
C 	C 	0.54727 0.63903 0.97291 0.38300
C 	C 	0.56897 0.72003 0.95576 -0.12700
C 	C 	0.59747 0.73483 0.92164 0.06800
H 	H 	0.60657 0.69613 0.91023 0.03000
C 	C 	0.60977 0.83343 0.84513 -0.24400
H 	H 	0.55887 0.82903 0.85283 -0.03600
C 	C 	0.63557 0.84423 0.81093 -0.26000
H 	H 	0.59827 0.84263 0.79403 -0.03400
C 	C 	0.75927 0.84353 0.82693 0.28200
C 	C 	0.83617 0.85243 0.81913 -0.13500
H 	H 	0.85197 0.85463 0.79623 0.08500
C 	C 	0.88927 0.85933 0.84563 -0.09200
H 	H 	0.94137 0.87203 0.84053 0.06200
C 	C 	0.86267 0.84533 0.87953 0.05300
H 	H 	0.89677 0.84163 0.89733 0.02000
C 	C 	0.73457 0.83493 0.86123 0.26500
N 	N 	0.45063 0.16867 0.22097 -0.13300
O 	O 	0.22560 0.92231 0.28923 -0.41300
O 	O 	0.18511 0.96163 0.33624 -0.41100
C 	C 	0.21393 0.97237 0.30625 0.38200
C 	C 	0.23563 0.05337 0.28910 -0.12600
C 	C 	0.26413 0.06817 0.25498 0.06700
H 	H 	0.27323 0.02947 0.24357 0.03000
C 	C 	0.27643 0.16677 0.17847 -0.24400
H 	H 	0.22553 0.16237 0.18617 -0.03700
C 	C 	0.30223 0.17757 0.14427 -0.26100
H 	H 	0.26493 0.17597 0.12737 -0.03400
C 	C 	0.42593 0.17687 0.16027 0.28000
C 	C 	0.50283 0.18577 0.15247 -0.13500
H 	H 	0.51863 0.18797 0.12957 0.08500
C 	C 	0.55593 0.19267 0.17897 -0.09100
H 	H 	0.60803 0.20537 0.17387 0.06200
C 	C 	0.52933 0.17867 0.21287 0.05200
H 	H 	0.56343 0.17497 0.23067 0.02000
C 	C 	0.40123 0.16827 0.19457 0.26400
N 	N 	0.61530 0.49800 0.44570 -0.13100
O 	O 	0.63663 0.74436 0.37744 -0.41300
O 	O 	0.55682 0.70504 0.33043 -0.41100
C 	C 	0.57490 0.69430 0.36042 0.38300
C 	C 	0.51560 0.61330 0.37757 -0.12700
C 	C 	0.52930 0.59850 0.41169 0.06800
H 	H 	0.57710 0.63720 0.42310 0.03000
C 	C 	0.44300 0.49990 0.48820 -0.25100
H 	H 	0.39650 0.50430 0.48050 -0.03100
C 	C 	0.45800 0.48910 0.52240 -0.25000
H 	H 	0.42230 0.49070 0.53930 -0.03900
C 	C 	0.58240 0.48980 0.50640 0.28000
C 	C 	0.65040 0.48090 0.51420 -0.14300
H 	H 	0.66400 0.47870 0.53710 0.08700
C 	C 	0.69660 0.47400 0.48770 -0.08200
H 	H 	0.73600 0.46130 0.49280 0.05800
C 	C 	0.68400 0.48800 0.45380 0.04800
H 	H 	0.72180 0.49170 0.43600 0.02100
C 	C 	0.56630 0.49840 0.47210 0.26600
N 	N 	0.28197 0.83133 0.77903 -0.13200
O 	O 	0.30330 0.07769 0.71077 -0.41300
O 	O 	0.22349 0.03837 0.66376 -0.41100
C 	C 	0.24157 0.02763 0.69375 0.38200
C 	C 	0.18227 0.94663 0.71090 -0.12600
C 	C 	0.19597 0.93183 0.74502 0.06800
H 	H 	0.24377 0.97053 0.75643 0.03000
C 	C 	0.10967 0.83323 0.82153 -0.25200
H 	H 	0.06317 0.83763 0.81383 -0.03300
C 	C 	0.12467 0.82243 0.85573 -0.25100
H 	H 	0.08897 0.82403 0.87263 -0.03900
C 	C 	0.24907 0.82313 0.83973 0.28100
C 	C 	0.31707 0.81423 0.84753 -0.13900
H 	H 	0.33067 0.81203 0.87043 0.08600
C 	C 	0.36327 0.80733 0.82103 -0.08900
H 	H 	0.40267 0.79463 0.82613 0.06100
C 	C 	0.35067 0.82133 0.78713 0.05100
H 	H 	0.38847 0.82503 0.76933 0.02000
C 	C 	0.23297 0.83173 0.80543 0.26600
N 	N 	0.94863 0.16467 0.11237 -0.13200
O 	O 	0.96996 0.41103 0.04411 -0.41300
O 	O 	0.89015 0.37171 0.99710 -0.41200
C 	C 	0.90823 0.36097 0.02709 0.38300
C 	C 	0.84893 0.27997 0.04424 -0.12700
C 	C 	0.86263 0.26517 0.07836 0.06800
H 	H 	0.91043 0.30387 0.08977 0.03000
C 	C 	0.77633 0.16657 0.15487 -0.25100
H 	H 	0.72983 0.17097 0.14717 -0.03300
C 	C 	0.79133 0.15577 0.18907 -0.25000
H 	H 	0.75563 0.15737 0.20597 -0.03900
C 	C 	0.91573 0.15647 0.17307 0.28100
C 	C 	0.98373 0.14757 0.18087 -0.13800
H 	H 	0.99733 0.14537 0.20377 0.08500
C 	C 	0.02993 0.14067 0.15437 -0.09000
H 	H 	0.06933 0.12797 0.15947 0.06100
C 	C 	0.01733 0.15467 0.12047 0.05100
H 	H 	0.05513 0.15837 0.10267 0.02000
C 	C 	0.89963 0.16507 0.13877 0.26600
N 	N 	0.88270 0.38470 0.44570 -0.13100
O 	O 	0.10773 0.36337 0.37744 -0.41300
O 	O 	0.14822 0.44318 0.33043 -0.41100
C 	C 	0.11940 0.42510 0.36042 0.38300
C 	C 	0.09770 0.48440 0.37757 -0.12700
C 	C 	0.06920 0.47070 0.41169 0.06800
H 	H 	0.06010 0.42290 0.42310 0.03000
C 	C 	0.05690 0.55700 0.48820 -0.25100
H 	H 	0.10780 0.60350 0.48050 -0.03100
C 	C 	0.03110 0.54200 0.52240 -0.25000
H 	H 	0.06840 0.57770 0.53930 -0.03900
C 	C 	0.90740 0.41760 0.50640 0.28000
C 	C 	0.83050 0.34960 0.51420 -0.14300
H 	H 	0.81470 0.33600 0.53710 0.08700
C 	C 	0.77740 0.30340 0.48770 -0.08200
H 	H 	0.72530 0.26400 0.49280 0.05800
C 	C 	0.80400 0.31600 0.45380 0.04800
H 	H 	0.76990 0.27820 0.43600 0.02100
C 	C 	0.93210 0.43370 0.47210 0.26600
N 	N 	0.54937 0.71803 0.77903 -0.12900
O 	O 	0.77440 0.69670 0.71077 -0.41300
O 	O 	0.81489 0.77651 0.66376 -0.41100
C 	C 	0.78607 0.75843 0.69375 0.38300
C 	C 	0.76437 0.81773 0.71090 -0.12600
C 	C 	0.73587 0.80403 0.74502 0.06800
H 	H 	0.72677 0.75623 0.75643 0.03000
C 	C 	0.72357 0.89033 0.82153 -0.25900
H 	H 	0.77447 0.93683 0.81383 -0.02500
C 	C 	0.69777 0.87533 0.85573 -0.23800
H 	H 	0.73507 0.91103 0.87263 -0.04400
C 	C 	0.57407 0.75093 0.83973 0.27700
C 	C 	0.49717 0.68293 0.84753 -0.15300
H 	H 	0.48137 0.66933 0.87043 0.09000
C 	C 	0.44407 0.63673 0.82103 -0.06700
H 	H 	0.39197 0.59733 0.82613 0.05200
C 	C 	0.47067 0.64933 0.78713 0.04100
H 	H 	0.43657 0.61153 0.76933 0.02300
C 	C 	0.59877 0.76703 0.80543 0.26600
N 	N 	0.21603 0.05137 0.11237 -0.12900
O 	O 	0.44106 0.03004 0.04411 -0.41300
O 	O 	0.48155 0.10985 0.99710 -0.41100
C 	C 	0.45273 0.09177 0.02709 0.38300
C 	C 	0.43103 0.15107 0.04424 -0.12700
C 	C 	0.40253 0.13737 0.07836 0.06800
H 	H 	0.39343 0.08957 0.08977 0.03000
C 	C 	0.39023 0.22367 0.15487 -0.25800
H 	H 	0.44113 0.27017 0.14717 -0.02400
C 	C 	0.36443 0.20867 0.18907 -0.23900
H 	H 	0.40173 0.24437 0.20597 -0.04300
C 	C 	0.24073 0.08427 0.17307 0.27800
C 	C 	0.16383 0.01627 0.18087 -0.15100
H 	H 	0.14803 0.00267 0.20377 0.08900
C 	C 	0.11073 0.97007 0.15437 -0.07200
H 	H 	0.05863 0.93067 0.15947 0.05300
C 	C 	0.13733 0.98267 0.12047 0.04200
H 	H 	0.10323 0.94487 0.10267 0.02300
C 	C 	0.26543 0.10037 0.13877 0.26700
N 	N 	0.50200 0.11730 0.44570 -0.13100
O 	O 	0.25564 0.89227 0.37744 -0.41300
O 	O 	0.29496 0.85178 0.33043 -0.41100
C 	C 	0.30570 0.88060 0.36042 0.38300
C 	C 	0.38670 0.90230 0.37757 -0.12700
C 	C 	0.40150 0.93080 0.41169 0.06800
H 	H 	0.36280 0.93990 0.42310 0.03000
C 	C 	0.50010 0.94310 0.48820 -0.25200
H 	H 	0.49570 0.89220 0.48050 -0.03100
C 	C 	0.51090 0.96890 0.52240 -0.25000
H 	H 	0.50930 0.93160 0.53930 -0.03900
C 	C 	0.51020 0.09260 0.50640 0.28000
C 	C 	0.51910 0.16950 0.51420 -0.14300
H 	H 	0.52130 0.18530 0.53710 0.08700
C 	C 	0.52600 0.22260 0.48770 -0.08200
H 	H 	0.53870 0.27470 0.49280 0.05800
C 	C 	0.51200 0.19600 0.45380 0.04800
H 	H 	0.50830 0.23010 0.43600 0.02100
C 	C 	0.50160 0.06790 0.47210 0.26600
N 	N 	0.16867 0.45063 0.77903 -0.13300
O 	O 	0.92231 0.22560 0.71077 -0.41300
O 	O 	0.96163 0.18511 0.66376 -0.41100
C 	C 	0.97237 0.21393 0.69375 0.38200
C 	C 	0.05337 0.23563 0.71090 -0.12600
C 	C 	0.06817 0.26413 0.74502 0.06700
H 	H 	0.02947 0.27323 0.75643 0.03000
C 	C 	0.16677 0.27643 0.82153 -0.24400
H 	H 	0.16237 0.22553 0.81383 -0.03700
C 	C 	0.17757 0.30223 0.85573 -0.26100
H 	H 	0.17597 0.26493 0.87263 -0.03400
C 	C 	0.17687 0.42593 0.83973 0.28000
C 	C 	0.18577 0.50283 0.84753 -0.13500
H 	H 	0.18797 0.51863 0.87043 0.08500
C 	C 	0.19267 0.55593 0.82103 -0.09100
H 	H 	0.20537 0.60803 0.82613 0.06200
C 	C 	0.17867 0.52933 0.78713 0.05200
H 	H 	0.17497 0.56343 0.76933 0.02000
C 	C 	0.16827 0.40123 0.80543 0.26400
N 	N 	0.83533 0.78397 0.11237 -0.13300
O 	O 	0.58897 0.55894 0.04411 -0.41300
O 	O 	0.62829 0.51845 0.99710 -0.41100
C 	C 	0.63903 0.54727 0.02709 0.38300
C 	C 	0.72003 0.56897 0.04424 -0.12700
C 	C 	0.73483 0.59747 0.07836 0.06800
H 	H 	0.69613 0.60657 0.08977 0.03000
C 	C 	0.83343 0.60977 0.15487 -0.24400
H 	H 	0.82903 0.55887 0.14717 -0.03600
C 	C 	0.84423 0.63557 0.18907 -0.26000
H 	H 	0.84263 0.59827 0.20597 -0.03400
C 	C 	0.84353 0.75927 0.17307 0.28200
C 	C 	0.85243 0.83617 0.18087 -0.13500
H 	H 	0.85463 0.85197 0.20377 0.08500
C 	C 	0.85933 0.88927 0.15437 -0.09200
H 	H 	0.87203 0.94137 0.15947 0.06200
C 	C 	0.84533 0.86267 0.12047 0.05300
H 	H 	0.84163 0.89677 0.10267 0.02000
C 	C 	0.83493 0.73457 0.13877 0.26500
N 	N 	0.50200 0.38470 0.44570 -0.13100
O 	O 	0.25564 0.36337 0.37744 -0.41300
O 	O 	0.29496 0.44318 0.33043 -0.41100
C 	C 	0.30570 0.42510 0.36042 0.38300
C 	C 	0.38670 0.48440 0.37757 -0.12700
C 	C 	0.40150 0.47070 0.41169 0.06800
H 	H 	0.36280 0.42290 0.42310 0.03000
C 	C 	0.50010 0.55700 0.48820 -0.25100
H 	H 	0.49570 0.60350 0.48050 -0.03100
C 	C 	0.51090 0.54200 0.52240 -0.25000
H 	H 	0.50930 0.57770 0.53930 -0.03900
C 	C 	0.51020 0.41760 0.50640 0.28000
C 	C 	0.51910 0.34960 0.51420 -0.14300
H 	H 	0.52130 0.33600 0.53710 0.08700
C 	C 	0.52600 0.30340 0.48770 -0.08200
H 	H 	0.53870 0.26400 0.49280 0.05800
C 	C 	0.51200 0.31600 0.45380 0.04800
H 	H 	0.50830 0.27820 0.43600 0.02100
C 	C 	0.50160 0.43370 0.47210 0.26600
N 	N 	0.16867 0.71803 0.77903 -0.13200
O 	O 	0.92231 0.69670 0.71077 -0.41300
O 	O 	0.96163 0.77651 0.66376 -0.41100
C 	C 	0.97237 0.75843 0.69375 0.38200
C 	C 	0.05337 0.81773 0.71090 -0.12600
C 	C 	0.06817 0.80403 0.74502 0.06800
H 	H 	0.02947 0.75623 0.75643 0.03000
C 	C 	0.16677 0.89033 0.82153 -0.25200
H 	H 	0.16237 0.93683 0.81383 -0.03300
C 	C 	0.17757 0.87533 0.85573 -0.25100
H 	H 	0.17597 0.91103 0.87263 -0.03900
C 	C 	0.17687 0.75093 0.83973 0.28100
C 	C 	0.18577 0.68293 0.84753 -0.13900
H 	H 	0.18797 0.66933 0.87043 0.08600
C 	C 	0.19267 0.63673 0.82103 -0.08900
H 	H 	0.20537 0.59733 0.82613 0.06100
C 	C 	0.17867 0.64933 0.78713 0.05100
H 	H 	0.17497 0.61153 0.76933 0.02000
C 	C 	0.16827 0.76703 0.80543 0.26600
N 	N 	0.83533 0.05137 0.11237 -0.13200
O 	O 	0.58897 0.03004 0.04411 -0.41300
O 	O 	0.62829 0.10985 0.99710 -0.41200
C 	C 	0.63903 0.09177 0.02709 0.38300
C 	C 	0.72003 0.15107 0.04424 -0.12700
C 	C 	0.73483 0.13737 0.07836 0.06800
H 	H 	0.69613 0.08957 0.08977 0.03000
C 	C 	0.83343 0.22367 0.15487 -0.25100
H 	H 	0.82903 0.27017 0.14717 -0.03300
C 	C 	0.84423 0.20867 0.18907 -0.25000
H 	H 	0.84263 0.24437 0.20597 -0.03900
C 	C 	0.84353 0.08427 0.17307 0.28100
C 	C 	0.85243 0.01627 0.18087 -0.13800
H 	H 	0.85463 0.00267 0.20377 0.08500
C 	C 	0.85933 0.97007 0.15437 -0.09000
H 	H 	0.87203 0.93067 0.15947 0.06100
C 	C 	0.84533 0.98267 0.12047 0.05100
H 	H 	0.84163 0.94487 0.10267 0.02000
C 	C 	0.83493 0.10037 0.13877 0.26600
N 	N 	0.61530 0.11730 0.44570 -0.13100
O 	O 	0.63663 0.89227 0.37744 -0.41300
O 	O 	0.55682 0.85178 0.33043 -0.41100
C 	C 	0.57490 0.88060 0.36042 0.38300
C 	C 	0.51560 0.90230 0.37757 -0.12700
C 	C 	0.52930 0.93080 0.41169 0.06800
H 	H 	0.57710 0.93990 0.42310 0.03000
C 	C 	0.44300 0.94310 0.48820 -0.25100
H 	H 	0.39650 0.89220 0.48050 -0.03100
C 	C 	0.45800 0.96890 0.52240 -0.25000
H 	H 	0.42230 0.93160 0.53930 -0.03900
C 	C 	0.58240 0.09260 0.50640 0.28000
C 	C 	0.65040 0.16950 0.51420 -0.14300
H 	H 	0.66400 0.18530 0.53710 0.08700
C 	C 	0.69660 0.22260 0.48770 -0.08200
H 	H 	0.73600 0.27470 0.49280 0.05800
C 	C 	0.68400 0.19600 0.45380 0.04800
H 	H 	0.72180 0.23010 0.43600 0.02100
C 	C 	0.56630 0.06790 0.47210 0.26600
N 	N 	0.28197 0.45063 0.77903 -0.12900
O 	O 	0.30330 0.22560 0.71077 -0.41300
O 	O 	0.22349 0.18511 0.66376 -0.41100
C 	C 	0.24157 0.21393 0.69375 0.38300
C 	C 	0.18227 0.23563 0.71090 -0.12600
C 	C 	0.19597 0.26413 0.74502 0.06800
H 	H 	0.24377 0.27323 0.75643 0.03000
C 	C 	0.10967 0.27643 0.82153 -0.25900
H 	H 	0.06317 0.22553 0.81383 -0.02500
C 	C 	0.12467 0.30223 0.85573 -0.23800
H 	H 	0.08897 0.26493 0.87263 -0.04400
C 	C 	0.24907 0.42593 0.83973 0.27700
C 	C 	0.31707 0.50283 0.84753 -0.15300
H 	H 	0.33067 0.51863 0.87043 0.09000
C 	C 	0.36327 0.55593 0.82103 -0.06700
H 	H 	0.40267 0.60803 0.82613 0.05200
C 	C 	0.35067 0.52933 0.78713 0.04100
H 	H 	0.38847 0.56343 0.76933 0.02300
C 	C 	0.23297 0.40123 0.80543 0.26600
N 	N 	0.94863 0.78397 0.11237 -0.12900
O 	O 	0.96996 0.55894 0.04411 -0.41300
O 	O 	0.89015 0.51845 0.99710 -0.41100
C 	C 	0.90823 0.54727 0.02709 0.38300
C 	C 	0.84893 0.56897 0.04424 -0.12700
C 	C 	0.86263 0.59747 0.07836 0.06800
H 	H 	0.91043 0.60657 0.08977 0.03000
C 	C 	0.77633 0.60977 0.15487 -0.25800
H 	H 	0.72983 0.55887 0.14717 -0.02400
C 	C 	0.79133 0.63557 0.18907 -0.23900
H 	H 	0.75563 0.59827 0.20597 -0.04300
C 	C 	0.91573 0.75927 0.17307 0.27800
C 	C 	0.98373 0.83617 0.18087 -0.15100
H 	H 	0.99733 0.85197 0.20377 0.08900
C 	C 	0.02993 0.88927 0.15437 -0.07200
H 	H 	0.06933 0.94137 0.15947 0.05300
C 	C 	0.01733 0.86267 0.12047 0.04200
H 	H 	0.05513 0.89677 0.10267 0.02300
C 	C 	0.89963 0.73457 0.13877 0.26700
N 	N 	0.88270 0.49800 0.44570 -0.13100
O 	O 	0.10773 0.74436 0.37744 -0.41300
O 	O 	0.14822 0.70504 0.33043 -0.41100
C 	C 	0.11940 0.69430 0.36042 0.38300
C 	C 	0.09770 0.61330 0.37757 -0.12700
C 	C 	0.06920 0.59850 0.41169 0.06800
H 	H 	0.06010 0.63720 0.42310 0.03000
C 	C 	0.05690 0.49990 0.48820 -0.25200
H 	H 	0.10780 0.50430 0.48050 -0.03100
C 	C 	0.03110 0.48910 0.52240 -0.25000
H 	H 	0.06840 0.49070 0.53930 -0.03900
C 	C 	0.90740 0.48980 0.50640 0.28000
C 	C 	0.83050 0.48090 0.51420 -0.14300
H 	H 	0.81470 0.47870 0.53710 0.08700
C 	C 	0.77740 0.47400 0.48770 -0.08200
H 	H 	0.72530 0.46130 0.49280 0.05800
C 	C 	0.80400 0.48800 0.45380 0.04800
H 	H 	0.76990 0.49170 0.43600 0.02100
C 	C 	0.93210 0.49840 0.47210 0.26600
N 	N 	0.54937 0.83133 0.77903 -0.13300
O 	O 	0.77440 0.07769 0.71077 -0.41300
O 	O 	0.81489 0.03837 0.66376 -0.41100
C 	C 	0.78607 0.02763 0.69375 0.38200
C 	C 	0.76437 0.94663 0.71090 -0.12600
C 	C 	0.73587 0.93183 0.74502 0.06700
H 	H 	0.72677 0.97053 0.75643 0.03000
C 	C 	0.72357 0.83323 0.82153 -0.24400
H 	H 	0.77447 0.83763 0.81383 -0.03700
C 	C 	0.69777 0.82243 0.85573 -0.26100
H 	H 	0.73507 0.82403 0.87263 -0.03400
C 	C 	0.57407 0.82313 0.83973 0.28000
C 	C 	0.49717 0.81423 0.84753 -0.13500
H 	H 	0.48137 0.81203 0.87043 0.08500
C 	C 	0.44407 0.80733 0.82103 -0.09100
H 	H 	0.39197 0.79463 0.82613 0.06200
C 	C 	0.47067 0.82133 0.78713 0.05200
H 	H 	0.43657 0.82503 0.76933 0.02000
C 	C 	0.59877 0.83173 0.80543 0.26400
N 	N 	0.21603 0.16467 0.11237 -0.13300
O 	O 	0.44106 0.41103 0.04411 -0.41300
O 	O 	0.48155 0.37171 0.99710 -0.41100
C 	C 	0.45273 0.36097 0.02709 0.38300
C 	C 	0.43103 0.27997 0.04424 -0.12700
C 	C 	0.40253 0.26517 0.07836 0.06800
H 	H 	0.39343 0.30387 0.08977 0.03000
C 	C 	0.39023 0.16657 0.15487 -0.24400
H 	H 	0.44113 0.17097 0.14717 -0.03600
C 	C 	0.36443 0.15577 0.18907 -0.26000
H 	H 	0.40173 0.15737 0.20597 -0.03400
C 	C 	0.24073 0.15647 0.17307 0.28200
C 	C 	0.16383 0.14757 0.18087 -0.13500
H 	H 	0.14803 0.14537 0.20377 0.08500
C 	C 	0.11073 0.14067 0.15437 -0.09200
H 	H 	0.05863 0.12797 0.15947 0.06200
C 	C 	0.13733 0.15467 0.12047 0.05300
H 	H 	0.10323 0.15837 0.10267 0.02000
C 	C 	0.26543 0.16507 0.13877 0.26500
N 	N 	0.38470 0.50200 0.55430 -0.13100
O 	O 	0.36337 0.25564 0.62256 -0.41300
O 	O 	0.44318 0.29496 0.66957 -0.41100
C 	C 	0.42510 0.30570 0.63958 0.38300
C 	C 	0.48440 0.38670 0.62243 -0.12700
C 	C 	0.47070 0.40150 0.58831 0.06800
H 	H 	0.42290 0.36280 0.57690 0.03000
C 	C 	0.55700 0.50010 0.51180 -0.25100
H 	H 	0.60350 0.49570 0.51950 -0.03100
C 	C 	0.54200 0.51090 0.47760 -0.25000
H 	H 	0.57770 0.50930 0.46070 -0.03900
C 	C 	0.41760 0.51020 0.49360 0.28000
C 	C 	0.34960 0.51910 0.48580 -0.14300
H 	H 	0.33600 0.52130 0.46290 0.08700
C 	C 	0.30340 0.52600 0.51230 -0.08200
H 	H 	0.26400 0.53870 0.50720 0.05800
C 	C 	0.31600 0.51200 0.54620 0.04800
H 	H 	0.27820 0.50830 0.56400 0.02100
C 	C 	0.43370 0.50160 0.52790 0.26600
N 	N 	0.05137 0.83533 0.88763 -0.13200
O 	O 	0.03004 0.58897 0.95589 -0.41300
O 	O 	0.10985 0.62829 0.00290 -0.41200
C 	C 	0.09177 0.63903 0.97291 0.38300
C 	C 	0.15107 0.72003 0.95576 -0.12700
C 	C 	0.13737 0.73483 0.92164 0.06800
H 	H 	0.08957 0.69613 0.91023 0.03000
C 	C 	0.22367 0.83343 0.84513 -0.25100
H 	H 	0.27017 0.82903 0.85283 -0.03300
C 	C 	0.20867 0.84423 0.81093 -0.25000
H 	H 	0.24437 0.84263 0.79403 -0.03900
C 	C 	0.08427 0.84353 0.82693 0.28100
C 	C 	0.01627 0.85243 0.81913 -0.13800
H 	H 	0.00267 0.85463 0.79623 0.08500
C 	C 	0.97007 0.85933 0.84563 -0.09000
H 	H 	0.93067 0.87203 0.84053 0.06100
C 	C 	0.98267 0.84533 0.87953 0.05100
H 	H 	0.94487 0.84163 0.89733 0.02000
C 	C 	0.10037 0.83493 0.86123 0.26600
N 	N 	0.71803 0.16867 0.22097 -0.13200
O 	O 	0.69670 0.92231 0.28923 -0.41300
O 	O 	0.77651 0.96163 0.33624 -0.41100
C 	C 	0.75843 0.97237 0.30625 0.38200
C 	C 	0.81773 0.05337 0.28910 -0.12600
C 	C 	0.80403 0.06817 0.25498 0.06800
H 	H 	0.75623 0.02947 0.24357 0.03000
C 	C 	0.89033 0.16677 0.17847 -0.25200
H 	H 	0.93683 0.16237 0.18617 -0.03300
C 	C 	0.87533 0.17757 0.14427 -0.25100
H 	H 	0.91103 0.17597 0.12737 -0.03900
C 	C 	0.75093 0.17687 0.16027 0.28100
C 	C 	0.68293 0.18577 0.15247 -0.13900
H 	H 	0.66933 0.18797 0.12957 0.08600
C 	C 	0.63673 0.19267 0.17897 -0.08900
H 	H 	0.59733 0.20537 0.17387 0.06100
C 	C 	0.64933 0.17867 0.21287 0.05100
H 	H 	0.61153 0.17497 0.23067 0.02000
C 	C 	0.76703 0.16827 0.19457 0.26600
N 	N 	0.11730 0.61530 0.55430 -0.13100
O 	O 	0.89227 0.63663 0.62256 -0.41300
O 	O 	0.85178 0.55682 0.66957 -0.41100
C 	C 	0.88060 0.57490 0.63958 0.38300
C 	C 	0.90230 0.51560 0.62243 -0.12700
C 	C 	0.93080 0.52930 0.58831 0.06800
H 	H 	0.93990 0.57710 0.57690 0.03000
C 	C 	0.94310 0.44300 0.51180 -0.25100
H 	H 	0.89220 0.39650 0.51950 -0.03100
C 	C 	0.96890 0.45800 0.47760 -0.25000
H 	H 	0.93160 0.42230 0.46070 -0.03900
C 	C 	0.09260 0.58240 0.49360 0.28000
C 	C 	0.16950 0.65040 0.48580 -0.14300
H 	H 	0.18530 0.66400 0.46290 0.08700
C 	C 	0.22260 0.69660 0.51230 -0.08200
H 	H 	0.27470 0.73600 0.50720 0.05800
C 	C 	0.19600 0.68400 0.54620 0.04800
H 	H 	0.23010 0.72180 0.56400 0.02100
C 	C 	0.06790 0.56630 0.52790 0.26600
N 	N 	0.78397 0.94863 0.88763 -0.12900
O 	O 	0.55894 0.96996 0.95589 -0.41300
O 	O 	0.51845 0.89015 0.00290 -0.41100
C 	C 	0.54727 0.90823 0.97291 0.38300
C 	C 	0.56897 0.84893 0.95576 -0.12700
C 	C 	0.59747 0.86263 0.92164 0.06800
H 	H 	0.60657 0.91043 0.91023 0.03000
C 	C 	0.60977 0.77633 0.84513 -0.25800
H 	H 	0.55887 0.72983 0.85283 -0.02400
C 	C 	0.63557 0.79133 0.81093 -0.23900
H 	H 	0.59827 0.75563 0.79403 -0.04300
C 	C 	0.75927 0.91573 0.82693 0.27800
C 	C 	0.83617 0.98373 0.81913 -0.15100
H 	H 	0.85197 0.99733 0.79623 0.08900
C 	C 	0.88927 0.02993 0.84563 -0.07200
H 	H 	0.94137 0.06933 0.84053 0.05300
C 	C 	0.86267 0.01733 0.87953 0.04200
H 	H 	0.89677 0.05513 0.89733 0.02300
C 	C 	0.73457 0.89963 0.86123 0.26700
N 	N 	0.45063 0.28197 0.22097 -0.12900
O 	O 	0.22560 0.30330 0.28923 -0.41300
O 	O 	0.18511 0.22349 0.33624 -0.41100
C 	C 	0.21393 0.24157 0.30625 0.38300
C 	C 	0.23563 0.18227 0.28910 -0.12600
C 	C 	0.26413 0.19597 0.25498 0.06800
H 	H 	0.27323 0.24377 0.24357 0.03000
C 	C 	0.27643 0.10967 0.17847 -0.25900
H 	H 	0.22553 0.06317 0.18617 -0.02500
C 	C 	0.30223 0.12467 0.14427 -0.23800
H 	H 	0.26493 0.08897 0.12737 -0.04400
C 	C 	0.42593 0.24907 0.16027 0.27700
C 	C 	0.50283 0.31707 0.15247 -0.15300
H 	H 	0.51863 0.33067 0.12957 0.09000
C 	C 	0.55593 0.36327 0.17897 -0.06700
H 	H 	0.60803 0.40267 0.17387 0.05200
C 	C 	0.52933 0.35067 0.21287 0.04100
H 	H 	0.56343 0.38847 0.23067 0.02300
C 	C 	0.40123 0.23297 0.19457 0.26600
N 	N 	0.49800 0.88270 0.55430 -0.13100
O 	O 	0.74436 0.10773 0.62256 -0.41300
O 	O 	0.70504 0.14822 0.66957 -0.41100
C 	C 	0.69430 0.11940 0.63958 0.38300
C 	C 	0.61330 0.09770 0.62243 -0.12700
C 	C 	0.59850 0.06920 0.58831 0.06800
H 	H 	0.63720 0.06010 0.57690 0.03000
C 	C 	0.49990 0.05690 0.51180 -0.25200
H 	H 	0.50430 0.10780 0.51950 -0.03100
C 	C 	0.48910 0.03110 0.47760 -0.25000
H 	H 	0.49070 0.06840 0.46070 -0.03900
C 	C 	0.48980 0.90740 0.49360 0.28000
C 	C 	0.48090 0.83050 0.48580 -0.14300
H 	H 	0.47870 0.81470 0.46290 0.08700
C 	C 	0.47400 0.77740 0.51230 -0.08200
H 	H 	0.46130 0.72530 0.50720 0.05800
C 	C 	0.48800 0.80400 0.54620 0.04800
H 	H 	0.49170 0.76990 0.56400 0.02100
C 	C 	0.49840 0.93210 0.52790 0.26600
N 	N 	0.16467 0.21603 0.88763 -0.13300
O 	O 	0.41103 0.44106 0.95589 -0.41300
O 	O 	0.37171 0.48155 0.00290 -0.41100
C 	C 	0.36097 0.45273 0.97291 0.38300
C 	C 	0.27997 0.43103 0.95576 -0.12700
C 	C 	0.26517 0.40253 0.92164 0.06800
H 	H 	0.30387 0.39343 0.91023 0.03000
C 	C 	0.16657 0.39023 0.84513 -0.24400
H 	H 	0.17097 0.44113 0.85283 -0.03600
C 	C 	0.15577 0.36443 0.81093 -0.26000
H 	H 	0.15737 0.40173 0.79403 -0.03400
C 	C 	0.15647 0.24073 0.82693 0.28200
C 	C 	0.14757 0.16383 0.81913 -0.13500
H 	H 	0.14537 0.14803 0.79623 0.08500
C 	C 	0.14067 0.11073 0.84563 -0.09200
H 	H 	0.12797 0.05863 0.84053 0.06200
C 	C 	0.15467 0.13733 0.87953 0.05300
H 	H 	0.15837 0.10323 0.89733 0.02000
C 	C 	0.16507 0.26543 0.86123 0.26500
N 	N 	0.83133 0.54937 0.22097 -0.13300
O 	O 	0.07769 0.77440 0.28923 -0.41300
O 	O 	0.03837 0.81489 0.33624 -0.41100
C 	C 	0.02763 0.78607 0.30625 0.38200
C 	C 	0.94663 0.76437 0.28910 -0.12600
C 	C 	0.93183 0.73587 0.25498 0.06700
H 	H 	0.97053 0.72677 0.24357 0.03000
C 	C 	0.83323 0.72357 0.17847 -0.24400
H 	H 	0.83763 0.77447 0.18617 -0.03700
C 	C 	0.82243 0.69777 0.14427 -0.26100
H 	H 	0.82403 0.73507 0.12737 -0.03400
C 	C 	0.82313 0.57407 0.16027 0.28000
C 	C 	0.81423 0.49717 0.15247 -0.13500
H 	H 	0.81203 0.48137 0.12957 0.08500
C 	C 	0.80733 0.44407 0.17897 -0.09100
H 	H 	0.79463 0.39197 0.17387 0.06200
C 	C 	0.82133 0.47067 0.21287 0.05200
H 	H 	0.82503 0.43657 0.23067 0.02000
C 	C 	0.83173 0.59877 0.19457 0.26400
Cu	Cu	0.85703 0.71406 0.63876 0.90800
Cu	Cu	0.52370 0.04739 0.97209 0.90800
Cu	Cu	0.19036 0.38073 0.30542 0.90800
Cu	Cu	0.28594 0.14297 0.63876 0.90800
Cu	Cu	0.95261 0.47630 0.97209 0.90800
Cu	Cu	0.61927 0.80964 0.30542 0.90800
Cu	Cu	0.85703 0.14297 0.63876 0.90800
Cu	Cu	0.52370 0.47630 0.97209 0.90800
Cu	Cu	0.19036 0.80964 0.30542 0.90800
Cu	Cu	0.71406 0.85703 0.36124 0.90800
Cu	Cu	0.38073 0.19036 0.69458 0.90800
Cu	Cu	0.04739 0.52370 0.02791 0.90800
Cu	Cu	0.14297 0.28594 0.36124 0.90800
Cu	Cu	0.80964 0.61927 0.69458 0.90800
Cu	Cu	0.47630 0.95261 0.02791 0.90800
Cu	Cu	0.14297 0.85703 0.36124 0.90800
Cu	Cu	0.80964 0.19036 0.69458 0.90800
Cu	Cu	0.47630 0.52370 0.02791 0.90800
C 	C 	0.55584 0.44416 0.63924 0.07000
H 	H 	0.56530 0.43470 0.66200 0.04100
C 	C 	0.52720 0.47280 0.57140 -0.14100
C 	C 	0.50290 0.49710 0.53730 0.23700
C 	C 	0.47770 0.52230 0.46840 0.16100
C 	C 	0.22251 0.77749 0.97257 0.07000
H 	H 	0.23197 0.76803 0.99533 0.04100
C 	C 	0.19387 0.80613 0.90473 -0.14100
C 	C 	0.16957 0.83043 0.87063 0.23700
C 	C 	0.14437 0.85563 0.80173 0.16100
C 	C 	0.88917 0.11083 0.30591 0.07000
H 	H 	0.89863 0.10137 0.32867 0.04100
C 	C 	0.86053 0.13947 0.23807 -0.14100
C 	C 	0.83623 0.16377 0.20397 0.23800
C 	C 	0.81103 0.18897 0.13507 0.16200
C 	C 	0.55584 0.11168 0.63924 0.07000
H 	H 	0.56530 0.13060 0.66200 0.04100
C 	C 	0.52720 0.05440 0.57140 -0.14100
C 	C 	0.50290 0.00580 0.53730 0.23700
C 	C 	0.47770 0.95540 0.46840 0.16100
C 	C 	0.22251 0.44501 0.97257 0.07000
H 	H 	0.23197 0.46393 0.99533 0.04100
C 	C 	0.19387 0.38773 0.90473 -0.14100
C 	C 	0.16957 0.33913 0.87063 0.23600
C 	C 	0.14437 0.28873 0.80173 0.16000
C 	C 	0.88917 0.77835 0.30591 0.07000
H 	H 	0.89863 0.79727 0.32867 0.04100
C 	C 	0.86053 0.72107 0.23807 -0.14100
C 	C 	0.83623 0.67247 0.20397 0.23800
C 	C 	0.81103 0.62207 0.13507 0.16200
C 	C 	0.88832 0.44416 0.63924 0.07000
H 	H 	0.86940 0.43470 0.66200 0.04100
C 	C 	0.94560 0.47280 0.57140 -0.14100
C 	C 	0.99420 0.49710 0.53730 0.23700
C 	C 	0.04460 0.52230 0.46840 0.16100
C 	C 	0.55499 0.77749 0.97257 0.07000
H 	H 	0.53607 0.76803 0.99533 0.04100
C 	C 	0.61227 0.80613 0.90473 -0.14100
C 	C 	0.66087 0.83043 0.87063 0.23600
C 	C 	0.71127 0.85563 0.80173 0.16000
C 	C 	0.22165 0.11083 0.30591 0.07000
H 	H 	0.20273 0.10137 0.32867 0.04100
C 	C 	0.27893 0.13947 0.23807 -0.14100
C 	C 	0.32753 0.16377 0.20397 0.23800
C 	C 	0.37793 0.18897 0.13507 0.16200
C 	C 	0.44416 0.55584 0.36076 0.07000
H 	H 	0.43470 0.56530 0.33800 0.04100
C 	C 	0.47280 0.52720 0.42860 -0.14100
C 	C 	0.49710 0.50290 0.46270 0.23700
C 	C 	0.52230 0.47770 0.53160 0.16100
C 	C 	0.11083 0.88917 0.69409 0.07000
H 	H 	0.10137 0.89863 0.67133 0.04100
C 	C 	0.13947 0.86053 0.76193 -0.14100
C 	C 	0.16377 0.83623 0.79603 0.23800
C 	C 	0.18897 0.81103 0.86493 0.16200
C 	C 	0.77749 0.22251 0.02743 0.07000
H 	H 	0.76803 0.23197 0.00467 0.04100
C 	C 	0.80613 0.19387 0.09527 -0.14100
C 	C 	0.83043 0.16957 0.12937 0.23700
C 	C 	0.85563 0.14437 0.19827 0.16100
C 	C 	0.11168 0.55584 0.36076 0.07000
H 	H 	0.13060 0.56530 0.33800 0.04100
C 	C 	0.05440 0.52720 0.42860 -0.14100
C 	C 	0.00580 0.50290 0.46270 0.23700
C 	C 	0.95540 0.47770 0.53160 0.16100
C 	C 	0.77835 0.88917 0.69409 0.07000
H 	H 	0.79727 0.89863 0.67133 0.04100
C 	C 	0.72107 0.86053 0.76193 -0.14100
C 	C 	0.67247 0.83623 0.79603 0.23800
C 	C 	0.62207 0.81103 0.86493 0.16200
C 	C 	0.44501 0.22251 0.02743 0.07000
H 	H 	0.46393 0.23197 0.00467 0.04100
C 	C 	0.38773 0.19387 0.09527 -0.14100
C 	C 	0.33913 0.16957 0.12937 0.23600
C 	C 	0.28873 0.14437 0.19827 0.16000
C 	C 	0.44416 0.88832 0.36076 0.07000
H 	H 	0.43470 0.86940 0.33800 0.04100
C 	C 	0.47280 0.94560 0.42860 -0.14100
C 	C 	0.49710 0.99420 0.46270 0.23700
C 	C 	0.52230 0.04460 0.53160 0.16100
C 	C 	0.11083 0.22165 0.69409 0.07000
H 	H 	0.10137 0.20273 0.67133 0.04100
C 	C 	0.13947 0.27893 0.76193 -0.14100
C 	C 	0.16377 0.32753 0.79603 0.23800
C 	C 	0.18897 0.37793 0.86493 0.16200
C 	C 	0.77749 0.55499 0.02743 0.07000
H 	H 	0.76803 0.53607 0.00467 0.04100
C 	C 	0.80613 0.61227 0.09527 -0.14100
C 	C 	0.83043 0.66087 0.12937 0.23600
C 	C 	0.85563 0.71127 0.19827 0.16000
