data_crystal

_cell_length_a 23.10800
_cell_length_b 23.10800
_cell_length_c 56.32700
_cell_angle_alpha 90.00000
_cell_angle_beta  90.00000
_cell_angle_gamma 120.00000

_symmetry_space_group_name_	'P 1'
_symmetry_space_group_name_H-M	'P 1'

loop_
_symmetry_equiv_pos_as_xyz
  x,y,z

loop_
_atom_site_label
_atom_site_type_symbol
_atom_site_fract_x
_atom_site_fract_y
_atom_site_fract_z
_atom_site_charge
Cu	Cu	0.32335 0.09049 0.00771 0.85900
Cu	Cu	0.25920 0.00056 0.05512 0.86200
Cu	Cu	0.29854 0.15637 0.05511 0.85900
Cu	Cu	0.40998 0.11895 0.05347 0.83900
Cu	Cu	0.02702 0.93606 0.11702 0.85700
O 	O 	0.33370 0.03520 0.03184 -0.76200
H 	H 	0.35540 0.01670 0.02940 0.28800
O 	O 	0.36700 0.15920 0.03316 -0.79700
H 	H 	0.39370 0.19620 0.02800 0.28200
O 	O 	0.31780 0.08970 0.06980 -0.77800
H 	H 	0.32380 0.09070 0.08410 0.29600
O 	O 	0.07180 0.02160 0.13509 -0.77400
H 	H 	0.11110 0.03770 0.13980 0.27100
N 	N 	0.29710 0.01970 0.98382 -0.25700
N 	N 	0.23560 0.93350 0.95929 -0.24600
N 	N 	0.33210 0.15850 0.98469 -0.25900
N 	N 	0.30550 0.21650 0.95983 -0.25300
N 	N 	0.20110 0.97220 0.08317 -0.25000
N 	N 	0.11290 0.94760 0.10693 -0.25200
N 	N 	0.24290 0.15290 0.08195 -0.25200
N 	N 	0.15620 0.13040 0.10493 -0.25500
C 	C 	0.23680 0.97960 0.97388 0.08900
H 	H 	0.19860 0.98370 0.97700 -0.06500
C 	C 	0.33750 0.99710 0.97559 0.07600
C 	C 	0.40320 0.01530 0.98091 -0.14600
H 	H 	0.42980 0.05430 0.98980 0.03500
C 	C 	0.43120 0.97930 0.97147 0.01600
H 	H 	0.48010 0.99510 0.97690 0.00700
C 	C 	0.39340 0.92500 0.95670 -0.07300
H 	H 	0.40830 0.89980 0.94930 0.03100
C 	C 	0.32770 0.90670 0.95138 -0.06600
H 	H 	0.30010 0.86740 0.94210 0.00100
C 	C 	0.29980 0.94280 0.96082 0.01600
C 	C 	0.28750 0.17370 0.97747 0.10500
H 	H 	0.24460 0.15490 0.98460 -0.07700
C 	C 	0.38490 0.19330 0.97030 0.04200
C 	C 	0.44630 0.19720 0.96980 -0.09900
H 	H 	0.45890 0.17420 0.98070 0.02000
C 	C 	0.48950 0.23890 0.95140 -0.03900
H 	H 	0.53320 0.24470 0.95040 0.02900
C 	C 	0.47170 0.27050 0.93530 -0.01300
H 	H 	0.50180 0.29460 0.92280 0.02600
C 	C 	0.41280 0.26910 0.93640 -0.10900
H 	H 	0.40220 0.29390 0.92560 0.04800
C 	C 	0.36740 0.22910 0.95435 0.05100
C 	C 	0.13950 0.95940 0.08491 0.09400
H 	H 	0.11450 0.95850 0.07140 -0.06700
C 	C 	0.21860 0.96940 0.10649 0.04300
C 	C 	0.27990 0.97890 0.11522 -0.10000
H 	H 	0.31690 0.98920 0.10520 0.04300
C 	C 	0.28240 0.97200 0.13990 -0.02800
H 	H 	0.32220 0.97810 0.14710 0.03800
C 	C 	0.22430 0.95550 0.15420 -0.02800
H 	H 	0.22640 0.94860 0.17070 0.03000
C 	C 	0.16680 0.94940 0.14529 -0.09700
H 	H 	0.13050 0.94260 0.15520 0.01700
C 	C 	0.16480 0.95390 0.12070 0.04400
C 	C 	0.17650 0.12240 0.08451 0.10200
H 	H 	0.14650 0.09670 0.07220 -0.07800
C 	C 	0.26760 0.20100 0.09980 0.02400
C 	C 	0.32850 0.25910 0.10330 -0.05200
H 	H 	0.36530 0.26890 0.09320 0.01700
C 	C 	0.33560 0.30280 0.12150 -0.04100
H 	H 	0.37720 0.34250 0.12390 0.03500
C 	C 	0.28170 0.28850 0.13620 -0.01600
H 	H 	0.28650 0.31830 0.14860 0.03000
C 	C 	0.22080 0.23040 0.13270 -0.08100
H 	H 	0.18400 0.22060 0.14270 0.03700
C 	C 	0.21370 0.18670 0.11450 0.07400
C 	C 	0.26400 0.16390 0.10603 0.01400
C 	C 	0.32730 0.19800 0.11610 -0.06000
H 	H 	0.36560 0.20880 0.10680 0.01000
C 	C 	0.33450 0.21630 0.13990 -0.03500
H 	H 	0.37630 0.23860 0.14590 0.03100
C 	C 	0.27850 0.20040 0.15362 -0.03900
H 	H 	0.28280 0.20850 0.17000 0.03500
C 	C 	0.21520 0.16620 0.14350 -0.05000
H 	H 	0.17680 0.15540 0.15290 -0.00500
C 	C 	0.20790 0.14800 0.11970 -0.02300
C 	C 	0.46090 0.11220 0.11400 -0.11900
H 	H 	0.45590 0.15010 0.11140 0.02200
C 	C 	0.47890 0.09610 0.13540 -0.01300
H 	H 	0.48930 0.12660 0.14820 0.00800
C 	C 	0.48290 0.04050 0.13970 -0.05900
H 	H 	0.48930 0.03190 0.15570 0.04100
C 	C 	0.47860 0.99570 0.12291 -0.06800
H 	H 	0.48710 0.96010 0.12570 0.05000
N 	N 	0.44810 0.97320 0.08008 -0.18300
H 	H 	0.45030 0.93650 0.07820 0.10800
C 	C 	0.43200 0.00610 0.06215 0.02900
H 	H 	0.42180 0.99240 0.04610 -0.01800
N 	N 	0.43400 0.06310 0.07250 -0.25200
C 	C 	0.45120 0.06540 0.09682 0.03200
C 	C 	0.45990 0.00980 0.10150 0.04600
Cu	Cu	0.90951 0.23286 0.00771 0.86100
Cu	Cu	0.99944 0.25864 0.05512 0.86800
Cu	Cu	0.84363 0.14217 0.05511 0.86000
Cu	Cu	0.88105 0.29103 0.05347 0.83900
Cu	Cu	0.06394 0.09096 0.11702 0.85500
O 	O 	0.96480 0.29850 0.03184 -0.76100
H 	H 	0.98330 0.33870 0.02940 0.29100
O 	O 	0.84080 0.20780 0.03316 -0.79700
H 	H 	0.80380 0.19750 0.02800 0.28100
O 	O 	0.91030 0.22810 0.06980 -0.77700
H 	H 	0.90930 0.23310 0.08410 0.29800
O 	O 	0.97840 0.05020 0.13509 -0.76800
H 	H 	0.96230 0.07340 0.13980 0.27200
N 	N 	0.98030 0.27740 0.98382 -0.23900
N 	N 	0.06650 0.30210 0.95929 -0.24800
N 	N 	0.84150 0.17360 0.98469 -0.25800
N 	N 	0.78350 0.08900 0.95983 -0.25400
N 	N 	0.02780 0.22890 0.08317 -0.25300
N 	N 	0.05240 0.16530 0.10693 -0.25300
N 	N 	0.84710 0.09000 0.08195 -0.25100
N 	N 	0.86960 0.02580 0.10493 -0.25500
C 	C 	0.02040 0.25720 0.97388 0.07600
H 	H 	0.01630 0.21490 0.97700 -0.06400
C 	C 	0.00290 0.34040 0.97559 0.03300
C 	C 	0.98470 0.38790 0.98091 -0.08800
H 	H 	0.94570 0.37550 0.98980 0.01800
C 	C 	0.02070 0.45190 0.97147 -0.02700
H 	H 	0.00490 0.48500 0.97690 0.01400
C 	C 	0.07500 0.46840 0.95670 -0.04300
H 	H 	0.10020 0.50850 0.94930 0.02000
C 	C 	0.09330 0.42100 0.95138 -0.09000
H 	H 	0.13260 0.43270 0.94210 0.00900
C 	C 	0.05720 0.35700 0.96082 0.03600
C 	C 	0.82630 0.11380 0.97747 0.10500
H 	H 	0.84510 0.08970 0.98460 -0.07600
C 	C 	0.80670 0.19160 0.97030 0.04300
C 	C 	0.80280 0.24910 0.96980 -0.09900
H 	H 	0.82580 0.28470 0.98070 0.02100
C 	C 	0.76110 0.25060 0.95140 -0.03800
H 	H 	0.75530 0.28850 0.95040 0.02900
C 	C 	0.72950 0.20120 0.93530 -0.01300
H 	H 	0.70540 0.20720 0.92280 0.02700
C 	C 	0.73090 0.14370 0.93640 -0.10900
H 	H 	0.70610 0.10830 0.92560 0.04700
C 	C 	0.77090 0.13830 0.95435 0.05100
C 	C 	0.04060 0.18010 0.08491 0.09200
H 	H 	0.04150 0.15600 0.07140 -0.06900
C 	C 	0.03060 0.24920 0.10649 0.04100
C 	C 	0.02110 0.30100 0.11522 -0.10100
H 	H 	0.01080 0.32770 0.10520 0.03900
C 	C 	0.02800 0.31040 0.13990 -0.02900
H 	H 	0.02190 0.34410 0.14710 0.03400
C 	C 	0.04450 0.26880 0.15420 -0.03000
H 	H 	0.05140 0.27780 0.17070 0.02900
C 	C 	0.05060 0.21740 0.14529 -0.09800
H 	H 	0.05740 0.18790 0.15520 0.01600
C 	C 	0.04610 0.21090 0.12070 0.04200
C 	C 	0.87760 0.05410 0.08451 0.10300
H 	H 	0.90330 0.04980 0.07220 -0.07600
C 	C 	0.79900 0.06660 0.09980 0.01400
C 	C 	0.74090 0.06940 0.10330 -0.04100
H 	H 	0.73110 0.09640 0.09320 0.01300
C 	C 	0.69720 0.03280 0.12150 -0.05600
H 	H 	0.65750 0.03470 0.12390 0.03900
C 	C 	0.71150 0.99320 0.13620 -0.00500
H 	H 	0.68170 0.96820 0.14860 0.02800
C 	C 	0.76960 0.99040 0.13270 -0.07400
H 	H 	0.77940 0.96340 0.14270 0.03700
C 	C 	0.81330 0.02700 0.11450 0.06600
C 	C 	0.83610 0.10010 0.10603 0.02400
C 	C 	0.80200 0.12930 0.11610 -0.06800
H 	H 	0.79120 0.15680 0.10680 0.01200
C 	C 	0.78370 0.11820 0.13990 -0.02900
H 	H 	0.76140 0.13770 0.14590 0.02900
C 	C 	0.79960 0.07810 0.15362 -0.04300
H 	H 	0.79150 0.07430 0.17000 0.03500
C 	C 	0.83380 0.04900 0.14350 -0.05200
H 	H 	0.84460 0.02140 0.15290 -0.00600
C 	C 	0.85200 0.05990 0.11970 -0.01800
C 	C 	0.88780 0.34870 0.11400 -0.08800
H 	H 	0.84990 0.30580 0.11140 0.01300
C 	C 	0.90390 0.38280 0.13540 -0.05200
H 	H 	0.87340 0.36270 0.14820 0.02100
C 	C 	0.95950 0.44240 0.13970 -0.00100
H 	H 	0.96810 0.45740 0.15570 0.02400
C 	C 	0.00430 0.48290 0.12291 -0.13500
H 	H 	0.03990 0.52700 0.12570 0.06900
N 	N 	0.02680 0.47490 0.08008 -0.20400
H 	H 	0.06350 0.51380 0.07820 0.11100
C 	C 	0.99390 0.42590 0.06215 0.05900
H 	H 	0.00760 0.42940 0.04610 -0.03800
N 	N 	0.93690 0.37090 0.07250 -0.25200
C 	C 	0.93460 0.38580 0.09682 0.01100
C 	C 	0.99020 0.45010 0.10150 0.08900
Cu	Cu	0.76714 0.67665 0.00771 0.86100
Cu	Cu	0.74136 0.74080 0.05512 0.86500
Cu	Cu	0.85783 0.70146 0.05511 0.86000
Cu	Cu	0.70897 0.59002 0.05347 0.83900
Cu	Cu	0.90904 0.97298 0.11702 0.86000
O 	O 	0.70150 0.66630 0.03184 -0.76200
H 	H 	0.66130 0.64460 0.02940 0.28900
O 	O 	0.79220 0.63300 0.03316 -0.79700
H 	H 	0.80250 0.60630 0.02800 0.28200
O 	O 	0.77190 0.68220 0.06980 -0.77800
H 	H 	0.76690 0.67620 0.08410 0.29700
O 	O 	0.94980 0.92820 0.13509 -0.76400
H 	H 	0.92660 0.88890 0.13980 0.27100
N 	N 	0.72260 0.70290 0.98382 -0.24800
N 	N 	0.69790 0.76440 0.95929 -0.24700
N 	N 	0.82640 0.66790 0.98469 -0.25800
N 	N 	0.91100 0.69450 0.95983 -0.25100
N 	N 	0.77110 0.79890 0.08317 -0.25100
N 	N 	0.83470 0.88710 0.10693 -0.25200
N 	N 	0.91000 0.75710 0.08195 -0.25100
N 	N 	0.97420 0.84380 0.10493 -0.25300
C 	C 	0.74280 0.76320 0.97388 0.08300
H 	H 	0.78510 0.80140 0.97700 -0.06300
C 	C 	0.65960 0.66250 0.97559 0.05500
C 	C 	0.61210 0.59680 0.98091 -0.11800
H 	H 	0.62450 0.57020 0.98980 0.02700
C 	C 	0.54810 0.56880 0.97147 -0.00500
H 	H 	0.51500 0.51990 0.97690 0.01100
C 	C 	0.53160 0.60660 0.95670 -0.05900
H 	H 	0.49150 0.59170 0.94930 0.02500
C 	C 	0.57900 0.67230 0.95138 -0.07800
H 	H 	0.56730 0.69990 0.94210 0.00500
C 	C 	0.64300 0.70020 0.96082 0.02600
C 	C 	0.88620 0.71250 0.97747 0.10500
H 	H 	0.91030 0.75540 0.98460 -0.07500
C 	C 	0.80840 0.61510 0.97030 0.04200
C 	C 	0.75090 0.55370 0.96980 -0.09900
H 	H 	0.71530 0.54110 0.98070 0.02000
C 	C 	0.74940 0.51050 0.95140 -0.03900
H 	H 	0.71150 0.46680 0.95040 0.02900
C 	C 	0.79880 0.52830 0.93530 -0.01200
H 	H 	0.79280 0.49820 0.92280 0.02700
C 	C 	0.85630 0.58720 0.93640 -0.10900
H 	H 	0.89170 0.59780 0.92560 0.04900
C 	C 	0.86170 0.63260 0.95435 0.05200
C 	C 	0.81990 0.86050 0.08491 0.09400
H 	H 	0.84400 0.88550 0.07140 -0.06600
C 	C 	0.75080 0.78140 0.10649 0.04200
C 	C 	0.69900 0.72010 0.11522 -0.10000
H 	H 	0.67230 0.68310 0.10520 0.04100
C 	C 	0.68960 0.71760 0.13990 -0.02900
H 	H 	0.65590 0.67780 0.14710 0.03600
C 	C 	0.73120 0.77570 0.15420 -0.02900
H 	H 	0.72220 0.77360 0.17070 0.02900
C 	C 	0.78260 0.83320 0.14529 -0.09800
H 	H 	0.81210 0.86950 0.15520 0.01700
C 	C 	0.78910 0.83520 0.12070 0.04400
C 	C 	0.94590 0.82350 0.08451 0.10300
H 	H 	0.95020 0.85350 0.07220 -0.07500
C 	C 	0.93340 0.73240 0.09980 0.02800
C 	C 	0.93060 0.67150 0.10330 -0.05900
H 	H 	0.90360 0.63470 0.09320 0.02000
C 	C 	0.96720 0.66440 0.12150 -0.03100
H 	H 	0.96530 0.62280 0.12390 0.03300
C 	C 	0.00680 0.71830 0.13620 -0.02500
H 	H 	0.03180 0.71350 0.14860 0.03200
C 	C 	0.00960 0.77920 0.13270 -0.08500
H 	H 	0.03660 0.81600 0.14270 0.03700
C 	C 	0.97300 0.78630 0.11450 0.07800
C 	C 	0.89990 0.73600 0.10603 0.01000
C 	C 	0.87070 0.67270 0.11610 -0.05500
H 	H 	0.84320 0.63440 0.10680 0.00800
C 	C 	0.88180 0.66550 0.13990 -0.03800
H 	H 	0.86230 0.62370 0.14590 0.03300
C 	C 	0.92190 0.72150 0.15362 -0.03600
H 	H 	0.92570 0.71720 0.17000 0.03500
C 	C 	0.95100 0.78480 0.14350 -0.04800
H 	H 	0.97860 0.82320 0.15290 -0.00300
C 	C 	0.94010 0.79210 0.11970 -0.02300
C 	C 	0.65130 0.53910 0.11400 -0.10200
H 	H 	0.69420 0.54410 0.11140 0.01700
C 	C 	0.61720 0.52110 0.13540 -0.03500
H 	H 	0.63730 0.51070 0.14820 0.01500
C 	C 	0.55760 0.51710 0.13970 -0.02700
H 	H 	0.54260 0.51070 0.15570 0.03100
C 	C 	0.51710 0.52140 0.12291 -0.10500
H 	H 	0.47300 0.51290 0.12570 0.06000
N 	N 	0.52510 0.55190 0.08008 -0.19400
H 	H 	0.48620 0.54970 0.07820 0.11000
C 	C 	0.57410 0.56800 0.06215 0.04500
H 	H 	0.57060 0.57820 0.04610 -0.02900
N 	N 	0.62910 0.56600 0.07250 -0.25200
C 	C 	0.61420 0.54880 0.09682 0.02000
C 	C 	0.54990 0.54010 0.10150 0.07000
Cu	Cu	0.67665 0.90951 0.99229 0.86100
Cu	Cu	0.74080 0.99944 0.94488 0.86700
Cu	Cu	0.70146 0.84363 0.94489 0.86000
Cu	Cu	0.59002 0.88105 0.94653 0.83900
Cu	Cu	0.97298 0.06394 0.88298 0.85900
O 	O 	0.66630 0.96480 0.96816 -0.76100
H 	H 	0.64460 0.98330 0.97060 0.29100
O 	O 	0.63300 0.84080 0.96684 -0.79600
H 	H 	0.60630 0.80380 0.97200 0.28200
O 	O 	0.68220 0.91030 0.93020 -0.77700
H 	H 	0.67620 0.90930 0.91590 0.29800
O 	O 	0.92820 0.97840 0.86491 -0.76400
H 	H 	0.88890 0.96230 0.86020 0.27100
N 	N 	0.70290 0.98030 0.01618 -0.24000
N 	N 	0.76440 0.06650 0.04071 -0.24800
N 	N 	0.66790 0.84150 0.01531 -0.25800
N 	N 	0.69450 0.78350 0.04017 -0.25300
N 	N 	0.79890 0.02780 0.91683 -0.25200
N 	N 	0.88710 0.05240 0.89307 -0.25200
N 	N 	0.75710 0.84710 0.91805 -0.25100
N 	N 	0.84380 0.86960 0.89507 -0.25400
C 	C 	0.76320 0.02040 0.02612 0.07700
H 	H 	0.80140 0.01630 0.02300 -0.06300
C 	C 	0.66250 0.00290 0.02441 0.03500
C 	C 	0.59680 0.98470 0.01909 -0.09000
H 	H 	0.57020 0.94570 0.01020 0.01900
C 	C 	0.56880 0.02070 0.02853 -0.02600
H 	H 	0.51990 0.00490 0.02310 0.01400
C 	C 	0.60660 0.07500 0.04330 -0.04400
H 	H 	0.59170 0.10020 0.05070 0.02000
C 	C 	0.67230 0.09330 0.04862 -0.09000
H 	H 	0.69990 0.13260 0.05790 0.00900
C 	C 	0.70020 0.05720 0.03918 0.03500
C 	C 	0.71250 0.82630 0.02253 0.10500
H 	H 	0.75540 0.84510 0.01540 -0.07500
C 	C 	0.61510 0.80670 0.02970 0.04300
C 	C 	0.55370 0.80280 0.03020 -0.09900
H 	H 	0.54110 0.82580 0.01930 0.02100
C 	C 	0.51050 0.76110 0.04860 -0.03900
H 	H 	0.46680 0.75530 0.04960 0.03000
C 	C 	0.52830 0.72950 0.06470 -0.01300
H 	H 	0.49820 0.70540 0.07720 0.02700
C 	C 	0.58720 0.73090 0.06360 -0.10900
H 	H 	0.59780 0.70610 0.07440 0.04800
C 	C 	0.63260 0.77090 0.04565 0.05100
C 	C 	0.86050 0.04060 0.91509 0.09300
H 	H 	0.88550 0.04150 0.92860 -0.06700
C 	C 	0.78140 0.03060 0.89351 0.04100
C 	C 	0.72010 0.02110 0.88478 -0.10100
H 	H 	0.68310 0.01080 0.89480 0.03900
C 	C 	0.71760 0.02800 0.86010 -0.02900
H 	H 	0.67780 0.02190 0.85290 0.03500
C 	C 	0.77570 0.04450 0.84580 -0.02900
H 	H 	0.77360 0.05140 0.82930 0.02900
C 	C 	0.83320 0.05060 0.85471 -0.09800
H 	H 	0.86950 0.05740 0.84480 0.01700
C 	C 	0.83520 0.04610 0.87930 0.04300
C 	C 	0.82350 0.87760 0.91549 0.10300
H 	H 	0.85350 0.90330 0.92780 -0.07500
C 	C 	0.73240 0.79900 0.90020 0.02200
C 	C 	0.67150 0.74090 0.89670 -0.05100
H 	H 	0.63470 0.73110 0.90680 0.01700
C 	C 	0.66440 0.69720 0.87850 -0.04200
H 	H 	0.62280 0.65750 0.87610 0.03500
C 	C 	0.71830 0.71150 0.86380 -0.01600
H 	H 	0.71350 0.68170 0.85140 0.03000
C 	C 	0.77920 0.76960 0.86730 -0.08000
H 	H 	0.81600 0.77940 0.85730 0.03700
C 	C 	0.78630 0.81330 0.88550 0.07300
C 	C 	0.73600 0.83610 0.89397 0.01700
C 	C 	0.67270 0.80200 0.88390 -0.06100
H 	H 	0.63440 0.79120 0.89320 0.01000
C 	C 	0.66550 0.78370 0.86010 -0.03400
H 	H 	0.62370 0.76140 0.85410 0.03100
C 	C 	0.72150 0.79960 0.84638 -0.03900
H 	H 	0.71720 0.79150 0.83000 0.03500
C 	C 	0.78480 0.83380 0.85650 -0.05000
H 	H 	0.82320 0.84460 0.84710 -0.00400
C 	C 	0.79210 0.85200 0.88030 -0.02100
C 	C 	0.53910 0.88780 0.88600 -0.08900
H 	H 	0.54410 0.84990 0.88860 0.01300
C 	C 	0.52110 0.90390 0.86460 -0.05200
H 	H 	0.51070 0.87340 0.85180 0.02100
C 	C 	0.51710 0.95950 0.86030 -0.00200
H 	H 	0.51070 0.96810 0.84430 0.02400
C 	C 	0.52140 0.00430 0.87709 -0.13400
H 	H 	0.51290 0.03990 0.87430 0.06800
N 	N 	0.55190 0.02680 0.91992 -0.20300
H 	H 	0.54970 0.06350 0.92180 0.11100
C 	C 	0.56800 0.99390 0.93785 0.05900
H 	H 	0.57820 0.00760 0.95390 -0.03800
N 	N 	0.56600 0.93690 0.92750 -0.25200
C 	C 	0.54880 0.93460 0.90318 0.01100
C 	C 	0.54010 0.99020 0.89850 0.08900
Cu	Cu	0.09049 0.76714 0.99229 0.86000
Cu	Cu	0.00056 0.74136 0.94488 0.86200
Cu	Cu	0.15637 0.85783 0.94489 0.86000
Cu	Cu	0.11895 0.70897 0.94653 0.83900
Cu	Cu	0.93606 0.90904 0.88298 0.85900
O 	O 	0.03520 0.70150 0.96816 -0.76200
H 	H 	0.01670 0.66130 0.97060 0.28800
O 	O 	0.15920 0.79220 0.96684 -0.79700
H 	H 	0.19620 0.80250 0.97200 0.28200
O 	O 	0.08970 0.77190 0.93020 -0.77800
H 	H 	0.09070 0.76690 0.91590 0.29600
O 	O 	0.02160 0.94980 0.86491 -0.76900
H 	H 	0.03770 0.92660 0.86020 0.27100
N 	N 	0.01970 0.72260 0.01618 -0.25600
N 	N 	0.93350 0.69790 0.04071 -0.24600
N 	N 	0.15850 0.82640 0.01531 -0.25900
N 	N 	0.21650 0.91100 0.04017 -0.25100
N 	N 	0.97220 0.77110 0.91683 -0.25000
N 	N 	0.94760 0.83470 0.89307 -0.25200
N 	N 	0.15290 0.91000 0.91805 -0.25100
N 	N 	0.13040 0.97420 0.89507 -0.25300
C 	C 	0.97960 0.74280 0.02612 0.08800
H 	H 	0.98370 0.78510 0.02300 -0.06400
C 	C 	0.99710 0.65960 0.02441 0.07500
C 	C 	0.01530 0.61210 0.01909 -0.14500
H 	H 	0.05430 0.62450 0.01020 0.03500
C 	C 	0.97930 0.54810 0.02853 0.01500
H 	H 	0.99510 0.51500 0.02310 0.00700
C 	C 	0.92500 0.53160 0.04330 -0.07200
H 	H 	0.89980 0.49150 0.05070 0.03000
C 	C 	0.90670 0.57900 0.04862 -0.06700
H 	H 	0.86740 0.56730 0.05790 0.00100
C 	C 	0.94280 0.64300 0.03918 0.01700
C 	C 	0.17370 0.88620 0.02253 0.10500
H 	H 	0.15490 0.91030 0.01540 -0.07500
C 	C 	0.19330 0.80840 0.02970 0.04200
C 	C 	0.19720 0.75090 0.03020 -0.09900
H 	H 	0.17420 0.71530 0.01930 0.02000
C 	C 	0.23890 0.74940 0.04860 -0.03900
H 	H 	0.24470 0.71150 0.04960 0.02900
C 	C 	0.27050 0.79880 0.06470 -0.01200
H 	H 	0.29460 0.79280 0.07720 0.02700
C 	C 	0.26910 0.85630 0.06360 -0.11000
H 	H 	0.29390 0.89170 0.07440 0.04900
C 	C 	0.22910 0.86170 0.04565 0.05200
C 	C 	0.95940 0.81990 0.91509 0.09400
H 	H 	0.95850 0.84400 0.92860 -0.06600
C 	C 	0.96940 0.75080 0.89351 0.04300
C 	C 	0.97890 0.69900 0.88478 -0.10000
H 	H 	0.98920 0.67230 0.89480 0.04300
C 	C 	0.97200 0.68960 0.86010 -0.02800
H 	H 	0.97810 0.65590 0.85290 0.03800
C 	C 	0.95550 0.73120 0.84580 -0.02800
H 	H 	0.94860 0.72220 0.82930 0.03000
C 	C 	0.94940 0.78260 0.85471 -0.09700
H 	H 	0.94260 0.81210 0.84480 0.01800
C 	C 	0.95390 0.78910 0.87930 0.04400
C 	C 	0.12240 0.94590 0.91549 0.10300
H 	H 	0.09670 0.95020 0.92780 -0.07600
C 	C 	0.20100 0.93340 0.90020 0.03100
C 	C 	0.25910 0.93060 0.89670 -0.06100
H 	H 	0.26890 0.90360 0.90680 0.02000
C 	C 	0.30280 0.96720 0.87850 -0.02900
H 	H 	0.34250 0.96530 0.87610 0.03200
C 	C 	0.28850 0.00680 0.86380 -0.02600
H 	H 	0.31830 0.03180 0.85140 0.03200
C 	C 	0.23040 0.00960 0.86730 -0.08600
H 	H 	0.22060 0.03660 0.85730 0.03700
C 	C 	0.18670 0.97300 0.88550 0.07900
C 	C 	0.16390 0.89990 0.89397 0.00700
C 	C 	0.19800 0.87070 0.88390 -0.05400
H 	H 	0.20880 0.84320 0.89320 0.00700
C 	C 	0.21630 0.88180 0.86010 -0.04000
H 	H 	0.23860 0.86230 0.85410 0.03300
C 	C 	0.20040 0.92190 0.84638 -0.03500
H 	H 	0.20850 0.92570 0.83000 0.03500
C 	C 	0.16620 0.95100 0.85650 -0.04800
H 	H 	0.15540 0.97860 0.84710 -0.00300
C 	C 	0.14800 0.94010 0.88030 -0.02400
C 	C 	0.11220 0.65130 0.88600 -0.11800
H 	H 	0.15010 0.69420 0.88860 0.02200
C 	C 	0.09610 0.61720 0.86460 -0.01300
H 	H 	0.12660 0.63730 0.85180 0.00800
C 	C 	0.04050 0.55760 0.86030 -0.05800
H 	H 	0.03190 0.54260 0.84430 0.04000
C 	C 	0.99570 0.51710 0.87709 -0.06900
H 	H 	0.96010 0.47300 0.87430 0.05000
N 	N 	0.97320 0.52510 0.91992 -0.18300
H 	H 	0.93650 0.48620 0.92180 0.10800
C 	C 	0.00610 0.57410 0.93785 0.03000
H 	H 	0.99240 0.57060 0.95390 -0.01900
N 	N 	0.06310 0.62910 0.92750 -0.25200
C 	C 	0.06540 0.61420 0.90318 0.03200
C 	C 	0.00980 0.54990 0.89850 0.04600
Cu	Cu	0.23286 0.32335 0.99229 0.86000
Cu	Cu	0.25864 0.25920 0.94488 0.86500
Cu	Cu	0.14217 0.29854 0.94489 0.86000
Cu	Cu	0.29103 0.40998 0.94653 0.83900
Cu	Cu	0.09096 0.02702 0.88298 0.85400
O 	O 	0.29850 0.33370 0.96816 -0.76200
H 	H 	0.33870 0.35540 0.97060 0.28900
O 	O 	0.20780 0.36700 0.96684 -0.79700
H 	H 	0.19750 0.39370 0.97200 0.28100
O 	O 	0.22810 0.31780 0.93020 -0.77800
H 	H 	0.23310 0.32380 0.91590 0.29700
O 	O 	0.05020 0.07180 0.86491 -0.77400
H 	H 	0.07340 0.11110 0.86020 0.27200
N 	N 	0.27740 0.29710 0.01618 -0.24800
N 	N 	0.30210 0.23560 0.04071 -0.24700
N 	N 	0.17360 0.33210 0.01531 -0.25900
N 	N 	0.08900 0.30550 0.04017 -0.25400
N 	N 	0.22890 0.20110 0.91683 -0.25100
N 	N 	0.16530 0.11290 0.89307 -0.25300
N 	N 	0.09000 0.24290 0.91805 -0.25100
N 	N 	0.02580 0.15620 0.89507 -0.25600
C 	C 	0.25720 0.23680 0.02612 0.08300
H 	H 	0.21490 0.19860 0.02300 -0.06500
C 	C 	0.34040 0.33750 0.02441 0.05500
C 	C 	0.38790 0.40320 0.01909 -0.11800
H 	H 	0.37550 0.42980 0.01020 0.02700
C 	C 	0.45190 0.43120 0.02853 -0.00500
H 	H 	0.48500 0.48010 0.02310 0.01100
C 	C 	0.46840 0.39340 0.04330 -0.05900
H 	H 	0.50850 0.40830 0.05070 0.02500
C 	C 	0.42100 0.32770 0.04862 -0.07800
H 	H 	0.43270 0.30010 0.05790 0.00500
C 	C 	0.35700 0.29980 0.03918 0.02600
C 	C 	0.11380 0.28750 0.02253 0.10500
H 	H 	0.08970 0.24460 0.01540 -0.07700
C 	C 	0.19160 0.38490 0.02970 0.04200
C 	C 	0.24910 0.44630 0.03020 -0.10000
H 	H 	0.28470 0.45890 0.01930 0.02100
C 	C 	0.25060 0.48950 0.04860 -0.03900
H 	H 	0.28850 0.53320 0.04960 0.02900
C 	C 	0.20120 0.47170 0.06470 -0.01300
H 	H 	0.20720 0.50180 0.07720 0.02600
C 	C 	0.14370 0.41280 0.06360 -0.10900
H 	H 	0.10830 0.40220 0.07440 0.04700
C 	C 	0.13830 0.36740 0.04565 0.05000
C 	C 	0.18010 0.13950 0.91509 0.09300
H 	H 	0.15600 0.11450 0.92860 -0.06900
C 	C 	0.24920 0.21860 0.89351 0.04200
C 	C 	0.30100 0.27990 0.88478 -0.10000
H 	H 	0.32770 0.31690 0.89480 0.04100
C 	C 	0.31040 0.28240 0.86010 -0.02800
H 	H 	0.34410 0.32220 0.85290 0.03600
C 	C 	0.26880 0.22430 0.84580 -0.03000
H 	H 	0.27780 0.22640 0.82930 0.02900
C 	C 	0.21740 0.16680 0.85471 -0.09700
H 	H 	0.18790 0.13050 0.84480 0.01600
C 	C 	0.21090 0.16480 0.87930 0.04300
C 	C 	0.05410 0.17650 0.91549 0.10300
H 	H 	0.04980 0.14650 0.92780 -0.07800
C 	C 	0.06660 0.26760 0.90020 0.01400
C 	C 	0.06940 0.32850 0.89670 -0.04000
H 	H 	0.09640 0.36530 0.90680 0.01300
C 	C 	0.03280 0.33560 0.87850 -0.05700
H 	H 	0.03470 0.37720 0.87610 0.03900
C 	C 	0.99320 0.28170 0.86380 -0.00400
H 	H 	0.96820 0.28650 0.85140 0.02800
C 	C 	0.99040 0.22080 0.86730 -0.07400
H 	H 	0.96340 0.18400 0.85730 0.03700
C 	C 	0.02700 0.21370 0.88550 0.06700
C 	C 	0.10010 0.26400 0.89397 0.02400
C 	C 	0.12930 0.32730 0.88390 -0.06900
H 	H 	0.15680 0.36560 0.89320 0.01300
C 	C 	0.11820 0.33450 0.86010 -0.02900
H 	H 	0.13770 0.37630 0.85410 0.02900
C 	C 	0.07810 0.27850 0.84638 -0.04400
H 	H 	0.07430 0.28280 0.83000 0.03500
C 	C 	0.04900 0.21520 0.85650 -0.05200
H 	H 	0.02140 0.17680 0.84710 -0.00700
C 	C 	0.05990 0.20790 0.88030 -0.02000
C 	C 	0.34870 0.46090 0.88600 -0.10200
H 	H 	0.30580 0.45590 0.88860 0.01700
C 	C 	0.38280 0.47890 0.86460 -0.03500
H 	H 	0.36270 0.48930 0.85180 0.01500
C 	C 	0.44240 0.48290 0.86030 -0.02700
H 	H 	0.45740 0.48930 0.84430 0.03100
C 	C 	0.48290 0.47860 0.87709 -0.10500
H 	H 	0.52700 0.48710 0.87430 0.06000
N 	N 	0.47490 0.44810 0.91992 -0.19400
H 	H 	0.51380 0.45030 0.92180 0.11000
C 	C 	0.42590 0.43200 0.93785 0.04500
H 	H 	0.42940 0.42180 0.95390 -0.02900
N 	N 	0.37090 0.43400 0.92750 -0.25200
C 	C 	0.38580 0.45120 0.90318 0.02000
C 	C 	0.45010 0.45990 0.89850 0.07000
Cu	Cu	0.00000 -0.00000 0.16141 0.80300
Cu	Cu	0.00000 0.00000 0.83859 0.80300
Cu	Cu	0.99002 0.42382 0.34104 0.86200
Cu	Cu	0.92587 0.33389 0.38845 0.86600
Cu	Cu	0.96521 0.48970 0.38844 0.86100
Cu	Cu	0.07665 0.45228 0.38680 0.83900
Cu	Cu	0.69369 0.26939 0.45035 0.85700
O 	O 	0.00037 0.36853 0.36517 -0.76500
H 	H 	0.02207 0.35003 0.36273 0.29000
O 	O 	0.03367 0.49253 0.36649 -0.80000
H 	H 	0.06037 0.52953 0.36133 0.28200
O 	O 	0.98447 0.42303 0.40313 -0.77600
H 	H 	0.99047 0.42403 0.41743 0.29800
O 	O 	0.73847 0.35493 0.46842 -0.77000
H 	H 	0.77777 0.37103 0.47313 0.27200
N 	N 	0.96377 0.35303 0.31715 -0.24500
N 	N 	0.90227 0.26683 0.29262 -0.24700
N 	N 	0.99877 0.49183 0.31802 -0.25600
N 	N 	0.97217 0.54983 0.29316 -0.25000
N 	N 	0.86777 0.30553 0.41650 -0.25100
N 	N 	0.77957 0.28093 0.44026 -0.25300
N 	N 	0.90957 0.48623 0.41528 -0.24900
N 	N 	0.82287 0.46373 0.43826 -0.25500
C 	C 	0.90347 0.31293 0.30721 0.08300
H 	H 	0.86527 0.31703 0.31033 -0.06400
C 	C 	0.00417 0.33043 0.30892 0.04700
C 	C 	0.06987 0.34863 0.31424 -0.11600
H 	H 	0.09647 0.38763 0.32313 0.02600
C 	C 	0.09787 0.31263 0.30480 -0.00400
H 	H 	0.14677 0.32843 0.31023 0.01000
C 	C 	0.06007 0.25833 0.29003 -0.06600
H 	H 	0.07497 0.23313 0.28263 0.02600
C 	C 	0.99437 0.24003 0.28471 -0.07200
H 	H 	0.96677 0.20073 0.27543 0.00400
C 	C 	0.96647 0.27613 0.29415 0.03000
C 	C 	0.95417 0.50703 0.31080 0.10600
H 	H 	0.91127 0.48823 0.31793 -0.07600
C 	C 	0.05157 0.52663 0.30363 0.03900
C 	C 	0.11297 0.53053 0.30313 -0.09900
H 	H 	0.12557 0.50753 0.31403 0.02000
C 	C 	0.15617 0.57223 0.28473 -0.03900
H 	H 	0.19987 0.57803 0.28373 0.02900
C 	C 	0.13837 0.60383 0.26863 -0.01400
H 	H 	0.16847 0.62793 0.25613 0.02700
C 	C 	0.07947 0.60243 0.26973 -0.10800
H 	H 	0.06887 0.62723 0.25893 0.04600
C 	C 	0.03407 0.56243 0.28768 0.04800
C 	C 	0.80617 0.29273 0.41824 0.09300
H 	H 	0.78117 0.29183 0.40473 -0.06700
C 	C 	0.88527 0.30273 0.43982 0.04200
C 	C 	0.94657 0.31223 0.44855 -0.10000
H 	H 	0.98357 0.32253 0.43853 0.04200
C 	C 	0.94907 0.30533 0.47323 -0.02800
H 	H 	0.98887 0.31143 0.48043 0.03700
C 	C 	0.89097 0.28883 0.48753 -0.02900
H 	H 	0.89307 0.28193 0.50403 0.03000
C 	C 	0.83347 0.28273 0.47862 -0.09700
H 	H 	0.79717 0.27593 0.48853 0.01700
C 	C 	0.83147 0.28723 0.45403 0.04300
C 	C 	0.84317 0.45573 0.41784 0.10300
H 	H 	0.81317 0.43003 0.40553 -0.07600
C 	C 	0.93427 0.53433 0.43313 0.01800
C 	C 	0.99517 0.59243 0.43663 -0.03500
H 	H 	0.03197 0.60223 0.42653 0.00900
C 	C 	0.00227 0.63613 0.45483 -0.06100
H 	H 	0.04387 0.67583 0.45723 0.04100
C 	C 	0.94837 0.62183 0.46953 -0.00200
H 	H 	0.95317 0.65163 0.48193 0.02700
C 	C 	0.88747 0.56373 0.46603 -0.08700
H 	H 	0.85067 0.55393 0.47603 0.03900
C 	C 	0.88037 0.52003 0.44783 0.07700
C 	C 	0.93067 0.49723 0.43936 0.00900
C 	C 	0.99397 0.53133 0.44943 -0.03800
H 	H 	0.03227 0.54213 0.44013 -0.00000
C 	C 	0.00117 0.54963 0.47323 -0.06400
H 	H 	0.04297 0.57193 0.47923 0.04100
C 	C 	0.94517 0.53373 0.48695 -0.01800
H 	H 	0.94947 0.54183 0.50333 0.02900
C 	C 	0.88187 0.49953 0.47683 -0.05900
H 	H 	0.84347 0.48873 0.48623 -0.00100
C 	C 	0.87457 0.48133 0.45303 -0.01700
C 	C 	0.12757 0.44553 0.44733 -0.10200
H 	H 	0.12257 0.48343 0.44473 0.01700
C 	C 	0.14557 0.42943 0.46873 -0.03500
H 	H 	0.15597 0.45993 0.48153 0.01500
C 	C 	0.14957 0.37383 0.47303 -0.02700
H 	H 	0.15597 0.36523 0.48903 0.03100
C 	C 	0.14527 0.32903 0.45624 -0.10600
H 	H 	0.15377 0.29343 0.45903 0.06000
N 	N 	0.11477 0.30653 0.41341 -0.19400
H 	H 	0.11697 0.26983 0.41153 0.10900
C 	C 	0.09867 0.33943 0.39548 0.04400
H 	H 	0.08847 0.32573 0.37943 -0.02900
N 	N 	0.10067 0.39643 0.40583 -0.25200
C 	C 	0.11787 0.39873 0.43015 0.02000
C 	C 	0.12657 0.34313 0.43483 0.06900
Cu	Cu	0.57618 0.56619 0.34104 0.86100
Cu	Cu	0.66611 0.59197 0.38845 0.86500
Cu	Cu	0.51030 0.47550 0.38844 0.86000
Cu	Cu	0.54772 0.62436 0.38680 0.83900
Cu	Cu	0.73061 0.42429 0.45035 0.85700
O 	O 	0.63147 0.63183 0.36517 -0.76200
H 	H 	0.64997 0.67203 0.36273 0.28900
O 	O 	0.50747 0.54113 0.36649 -0.79700
H 	H 	0.47047 0.53083 0.36133 0.28200
O 	O 	0.57697 0.56143 0.40313 -0.77800
H 	H 	0.57597 0.56643 0.41743 0.29700
O 	O 	0.64507 0.38353 0.46842 -0.77000
H 	H 	0.62897 0.40673 0.47313 0.27200
N 	N 	0.64697 0.61073 0.31715 -0.24800
N 	N 	0.73317 0.63543 0.29262 -0.24700
N 	N 	0.50817 0.50693 0.31802 -0.25900
N 	N 	0.45017 0.42233 0.29316 -0.25300
N 	N 	0.69447 0.56223 0.41650 -0.25100
N 	N 	0.71907 0.49863 0.44026 -0.25300
N 	N 	0.51377 0.42333 0.41528 -0.25100
N 	N 	0.53627 0.35913 0.43826 -0.25400
C 	C 	0.68707 0.59053 0.30721 0.08300
H 	H 	0.68297 0.54823 0.31033 -0.06400
C 	C 	0.66957 0.67373 0.30892 0.05500
C 	C 	0.65137 0.72123 0.31424 -0.11800
H 	H 	0.61237 0.70883 0.32313 0.02700
C 	C 	0.68737 0.78523 0.30480 -0.00500
H 	H 	0.67157 0.81833 0.31023 0.01100
C 	C 	0.74167 0.80173 0.29003 -0.05900
H 	H 	0.76687 0.84183 0.28263 0.02600
C 	C 	0.75997 0.75433 0.28471 -0.07800
H 	H 	0.79927 0.76603 0.27543 0.00500
C 	C 	0.72387 0.69033 0.29415 0.02600
C 	C 	0.49297 0.44713 0.31080 0.10500
H 	H 	0.51177 0.42303 0.31793 -0.07600
C 	C 	0.47337 0.52493 0.30363 0.04200
C 	C 	0.46947 0.58243 0.30313 -0.09900
H 	H 	0.49247 0.61803 0.31403 0.02100
C 	C 	0.42777 0.58393 0.28473 -0.03900
H 	H 	0.42197 0.62183 0.28373 0.02900
C 	C 	0.39617 0.53453 0.26863 -0.01300
H 	H 	0.37207 0.54053 0.25613 0.02700
C 	C 	0.39757 0.47703 0.26973 -0.10900
H 	H 	0.37277 0.44163 0.25893 0.04800
C 	C 	0.43757 0.47163 0.28768 0.05100
C 	C 	0.70727 0.51343 0.41824 0.09300
H 	H 	0.70817 0.48933 0.40473 -0.06700
C 	C 	0.69727 0.58253 0.43982 0.04200
C 	C 	0.68777 0.63433 0.44855 -0.10000
H 	H 	0.67747 0.66103 0.43853 0.04100
C 	C 	0.69467 0.64373 0.47323 -0.02800
H 	H 	0.68857 0.67743 0.48043 0.03600
C 	C 	0.71117 0.60213 0.48753 -0.02900
H 	H 	0.71807 0.61113 0.50403 0.02900
C 	C 	0.71727 0.55073 0.47862 -0.09700
H 	H 	0.72407 0.52123 0.48853 0.01600
C 	C 	0.71277 0.54423 0.45403 0.04300
C 	C 	0.54427 0.38743 0.41784 0.10300
H 	H 	0.56997 0.38313 0.40553 -0.07600
C 	C 	0.46567 0.39993 0.43313 0.02300
C 	C 	0.40757 0.40273 0.43663 -0.05100
H 	H 	0.39777 0.42973 0.42653 0.01700
C 	C 	0.36387 0.36613 0.45483 -0.04200
H 	H 	0.32417 0.36803 0.45723 0.03500
C 	C 	0.37817 0.32653 0.46953 -0.01600
H 	H 	0.34837 0.30153 0.48193 0.03000
C 	C 	0.43627 0.32373 0.46603 -0.08100
H 	H 	0.44607 0.29673 0.47603 0.03700
C 	C 	0.47997 0.36033 0.44783 0.07300
C 	C 	0.50277 0.43343 0.43936 0.01500
C 	C 	0.46867 0.46263 0.44943 -0.06100
H 	H 	0.45787 0.49013 0.44013 0.01000
C 	C 	0.45037 0.45153 0.47323 -0.03500
H 	H 	0.42807 0.47103 0.47923 0.03100
C 	C 	0.46627 0.41143 0.48695 -0.03900
H 	H 	0.45817 0.40763 0.50333 0.03500
C 	C 	0.50047 0.38233 0.47683 -0.05000
H 	H 	0.51127 0.35473 0.48623 -0.00400
C 	C 	0.51867 0.39323 0.45303 -0.02100
C 	C 	0.55447 0.68203 0.44733 -0.10200
H 	H 	0.51657 0.63913 0.44473 0.01700
C 	C 	0.57057 0.71613 0.46873 -0.03500
H 	H 	0.54007 0.69603 0.48153 0.01500
C 	C 	0.62617 0.77573 0.47303 -0.02600
H 	H 	0.63477 0.79073 0.48903 0.03100
C 	C 	0.67097 0.81623 0.45624 -0.10500
H 	H 	0.70657 0.86033 0.45903 0.06100
N 	N 	0.69347 0.80823 0.41341 -0.19400
H 	H 	0.73017 0.84713 0.41153 0.11000
C 	C 	0.66057 0.75923 0.39548 0.04500
H 	H 	0.67427 0.76273 0.37943 -0.02900
N 	N 	0.60357 0.70423 0.40583 -0.25200
C 	C 	0.60127 0.71913 0.43015 0.02000
C 	C 	0.65687 0.78343 0.43483 0.07000
Cu	Cu	0.43381 0.00998 0.34104 0.85800
Cu	Cu	0.40803 0.07413 0.38845 0.86400
Cu	Cu	0.52450 0.03479 0.38844 0.85800
Cu	Cu	0.37564 0.92335 0.38680 0.84000
Cu	Cu	0.57571 0.30631 0.45035 0.85700
O 	O 	0.36817 0.99963 0.36517 -0.75700
H 	H 	0.32797 0.97793 0.36273 0.28900
O 	O 	0.45887 0.96633 0.36649 -0.79300
H 	H 	0.46917 0.93963 0.36133 0.28100
O 	O 	0.43857 0.01553 0.40313 -0.78100
H 	H 	0.43357 0.00953 0.41743 0.29700
O 	O 	0.61647 0.26153 0.46842 -0.77000
H 	H 	0.59327 0.22223 0.47313 0.27200
N 	N 	0.38927 0.03623 0.31715 -0.25300
N 	N 	0.36457 0.09773 0.29262 -0.24600
N 	N 	0.49307 0.00123 0.31802 -0.26200
N 	N 	0.57767 0.02783 0.29316 -0.25600
N 	N 	0.43777 0.13223 0.41650 -0.25100
N 	N 	0.50137 0.22043 0.44026 -0.25300
N 	N 	0.57667 0.09043 0.41528 -0.25400
N 	N 	0.64087 0.17713 0.43826 -0.25300
C 	C 	0.40947 0.09653 0.30721 0.08200
H 	H 	0.45177 0.13473 0.31033 -0.06400
C 	C 	0.32627 0.99583 0.30892 0.06700
C 	C 	0.27877 0.93013 0.31424 -0.12000
H 	H 	0.29117 0.90353 0.32313 0.02800
C 	C 	0.21477 0.90213 0.30480 -0.00700
H 	H 	0.18167 0.85323 0.31023 0.01100
C 	C 	0.19827 0.93993 0.29003 -0.04900
H 	H 	0.15817 0.92503 0.28263 0.02300
C 	C 	0.24567 0.00563 0.28471 -0.08700
H 	H 	0.23397 0.03323 0.27543 0.00600
C 	C 	0.30967 0.03353 0.29415 0.02000
C 	C 	0.55287 0.04583 0.31080 0.10400
H 	H 	0.57697 0.08873 0.31793 -0.07600
C 	C 	0.47507 0.94843 0.30363 0.04600
C 	C 	0.41757 0.88703 0.30313 -0.10000
H 	H 	0.38197 0.87443 0.31403 0.02100
C 	C 	0.41607 0.84383 0.28473 -0.03900
H 	H 	0.37817 0.80013 0.28373 0.02900
C 	C 	0.46547 0.86163 0.26863 -0.01100
H 	H 	0.45947 0.83153 0.25613 0.02700
C 	C 	0.52297 0.92053 0.26973 -0.11100
H 	H 	0.55837 0.93113 0.25893 0.05000
C 	C 	0.52837 0.96593 0.28768 0.05600
C 	C 	0.48657 0.19383 0.41824 0.09300
H 	H 	0.51067 0.21883 0.40473 -0.06700
C 	C 	0.41747 0.11473 0.43982 0.04100
C 	C 	0.36567 0.05343 0.44855 -0.10100
H 	H 	0.33897 0.01643 0.43853 0.03900
C 	C 	0.35627 0.05093 0.47323 -0.02900
H 	H 	0.32257 0.01113 0.48043 0.03400
C 	C 	0.39787 0.10903 0.48753 -0.03000
H 	H 	0.38887 0.10693 0.50403 0.02900
C 	C 	0.44927 0.16653 0.47862 -0.09800
H 	H 	0.47877 0.20283 0.48853 0.01600
C 	C 	0.45577 0.16853 0.45403 0.04300
C 	C 	0.61257 0.15683 0.41784 0.10300
H 	H 	0.61687 0.18683 0.40553 -0.07600
C 	C 	0.60007 0.06573 0.43313 0.02700
C 	C 	0.59727 0.00483 0.43663 -0.07000
H 	H 	0.57027 0.96803 0.42653 0.02500
C 	C 	0.63387 0.99773 0.45483 -0.02000
H 	H 	0.63197 0.95613 0.45723 0.02900
C 	C 	0.67347 0.05163 0.46953 -0.03200
H 	H 	0.69847 0.04683 0.48193 0.03400
C 	C 	0.67627 0.11253 0.46603 -0.07400
H 	H 	0.70327 0.14933 0.47603 0.03500
C 	C 	0.63967 0.11963 0.44783 0.07100
C 	C 	0.56657 0.06933 0.43936 0.02300
C 	C 	0.53737 0.00603 0.44943 -0.08700
H 	H 	0.50987 0.96773 0.44013 0.02200
C 	C 	0.54847 0.99883 0.47323 -0.00300
H 	H 	0.52897 0.95703 0.47923 0.02000
C 	C 	0.58857 0.05483 0.48695 -0.06200
H 	H 	0.59237 0.05053 0.50333 0.04200
C 	C 	0.61767 0.11813 0.47683 -0.03800
H 	H 	0.64527 0.15653 0.48623 -0.00800
C 	C 	0.60677 0.12543 0.45303 -0.02800
C 	C 	0.31797 0.87243 0.44733 -0.10200
H 	H 	0.36087 0.87743 0.44473 0.01800
C 	C 	0.28387 0.85443 0.46873 -0.03400
H 	H 	0.30397 0.84403 0.48153 0.01500
C 	C 	0.22427 0.85043 0.47303 -0.02700
H 	H 	0.20927 0.84403 0.48903 0.03200
C 	C 	0.18377 0.85473 0.45624 -0.10500
H 	H 	0.13967 0.84623 0.45903 0.06000
N 	N 	0.19177 0.88523 0.41341 -0.19400
H 	H 	0.15287 0.88303 0.41153 0.11000
C 	C 	0.24077 0.90133 0.39548 0.04600
H 	H 	0.23727 0.91153 0.37943 -0.02800
N 	N 	0.29577 0.89933 0.40583 -0.25100
C 	C 	0.28087 0.88213 0.43015 0.02100
C 	C 	0.21657 0.87343 0.43483 0.07000
Cu	Cu	0.34332 0.24284 0.32562 0.86000
Cu	Cu	0.40747 0.33277 0.27821 0.86500
Cu	Cu	0.36813 0.17696 0.27822 0.86000
Cu	Cu	0.25669 0.21438 0.27986 0.83900
Cu	Cu	0.63965 0.39727 0.21631 0.85700
O 	O 	0.33297 0.29813 0.30149 -0.76200
H 	H 	0.31127 0.31663 0.30393 0.28900
O 	O 	0.29967 0.17413 0.30017 -0.79700
H 	H 	0.27297 0.13713 0.30533 0.28100
O 	O 	0.34887 0.24363 0.26353 -0.77800
H 	H 	0.34287 0.24263 0.24923 0.29700
O 	O 	0.59487 0.31173 0.19824 -0.77000
H 	H 	0.55557 0.29563 0.19353 0.27100
N 	N 	0.36957 0.31363 0.34951 -0.24800
N 	N 	0.43107 0.39983 0.37404 -0.24700
N 	N 	0.33457 0.17483 0.34864 -0.25900
N 	N 	0.36117 0.11683 0.37350 -0.25300
N 	N 	0.46557 0.36113 0.25016 -0.25100
N 	N 	0.55377 0.38573 0.22640 -0.25300
N 	N 	0.42377 0.18043 0.25138 -0.25100
N 	N 	0.51047 0.20293 0.22840 -0.25500
C 	C 	0.42987 0.35373 0.35945 0.08300
H 	H 	0.46807 0.34963 0.35633 -0.06400
C 	C 	0.32917 0.33623 0.35774 0.05500
C 	C 	0.26347 0.31803 0.35242 -0.11800
H 	H 	0.23687 0.27903 0.34353 0.02700
C 	C 	0.23547 0.35403 0.36186 -0.00500
H 	H 	0.18657 0.33823 0.35643 0.01000
C 	C 	0.27327 0.40833 0.37663 -0.05900
H 	H 	0.25837 0.43353 0.38403 0.02500
C 	C 	0.33897 0.42663 0.38195 -0.07800
H 	H 	0.36657 0.46593 0.39123 0.00500
C 	C 	0.36687 0.39053 0.37251 0.02600
C 	C 	0.37917 0.15963 0.35586 0.10500
H 	H 	0.42207 0.17843 0.34873 -0.07600
C 	C 	0.28177 0.14003 0.36303 0.04200
C 	C 	0.22037 0.13613 0.36353 -0.10000
H 	H 	0.20777 0.15913 0.35263 0.02000
C 	C 	0.17717 0.09443 0.38193 -0.03900
H 	H 	0.13347 0.08863 0.38293 0.02800
C 	C 	0.19497 0.06283 0.39803 -0.01400
H 	H 	0.16487 0.03873 0.41053 0.02500
C 	C 	0.25387 0.06423 0.39693 -0.11000
H 	H 	0.26447 0.03943 0.40773 0.04600
C 	C 	0.29927 0.10423 0.37898 0.05000
C 	C 	0.52717 0.37393 0.24842 0.09300
H 	H 	0.55217 0.37483 0.26193 -0.06700
C 	C 	0.44807 0.36393 0.22684 0.04200
C 	C 	0.38677 0.35443 0.21811 -0.10000
H 	H 	0.34977 0.34413 0.22813 0.04100
C 	C 	0.38427 0.36133 0.19343 -0.02800
H 	H 	0.34447 0.35523 0.18623 0.03600
C 	C 	0.44237 0.37783 0.17913 -0.02900
H 	H 	0.44027 0.38473 0.16263 0.02900
C 	C 	0.49987 0.38393 0.18804 -0.09700
H 	H 	0.53617 0.39073 0.17813 0.01600
C 	C 	0.50187 0.37943 0.21263 0.04300
C 	C 	0.49017 0.21093 0.24882 0.10300
H 	H 	0.52017 0.23663 0.26113 -0.07600
C 	C 	0.39907 0.13233 0.23353 0.02900
C 	C 	0.33817 0.07423 0.23003 -0.04900
H 	H 	0.30137 0.06443 0.24013 0.01500
C 	C 	0.33107 0.03053 0.21183 -0.05600
H 	H 	0.28947 0.99083 0.20943 0.04500
C 	C 	0.38497 0.04483 0.19713 -0.01200
H 	H 	0.38017 0.01503 0.18473 0.02700
C 	C 	0.44587 0.10293 0.20063 -0.07800
H 	H 	0.48267 0.11273 0.19063 0.03600
C 	C 	0.45297 0.14663 0.21883 0.06400
C 	C 	0.40267 0.16943 0.22730 0.00800
C 	C 	0.33937 0.13533 0.21723 -0.05700
H 	H 	0.30107 0.12453 0.22653 0.00800
C 	C 	0.33217 0.11703 0.19343 -0.03700
H 	H 	0.29037 0.09473 0.18743 0.03100
C 	C 	0.38817 0.13293 0.17971 -0.03600
H 	H 	0.38387 0.12483 0.16333 0.03300
C 	C 	0.45147 0.16713 0.18983 -0.05500
H 	H 	0.48987 0.17793 0.18043 -0.00200
C 	C 	0.45877 0.18533 0.21363 -0.01100
C 	C 	0.20577 0.22113 0.21933 -0.10200
H 	H 	0.21077 0.18323 0.22193 0.01600
C 	C 	0.18777 0.23723 0.19793 -0.03500
H 	H 	0.17737 0.20673 0.18513 0.01500
C 	C 	0.18377 0.29283 0.19363 -0.02700
H 	H 	0.17737 0.30143 0.17763 0.03100
C 	C 	0.18807 0.33763 0.21042 -0.10500
H 	H 	0.17957 0.37323 0.20763 0.06000
N 	N 	0.21857 0.36013 0.25325 -0.19400
H 	H 	0.21637 0.39683 0.25513 0.10900
C 	C 	0.23467 0.32723 0.27118 0.04500
H 	H 	0.24487 0.34093 0.28723 -0.02900
N 	N 	0.23267 0.27023 0.26083 -0.25200
C 	C 	0.21547 0.26793 0.23651 0.02000
C 	C 	0.20677 0.32353 0.23183 0.07000
Cu	Cu	0.75716 0.10047 0.32562 0.86000
Cu	Cu	0.66723 0.07469 0.27821 0.86500
Cu	Cu	0.82304 0.19116 0.27822 0.86000
Cu	Cu	0.78562 0.04230 0.27986 0.83800
Cu	Cu	0.60273 0.24237 0.21631 0.85700
O 	O 	0.70187 0.03483 0.30149 -0.77000
H 	H 	0.68337 0.99463 0.30393 0.29700
O 	O 	0.82587 0.12553 0.30017 -0.79700
H 	H 	0.86287 0.13583 0.30533 0.28200
O 	O 	0.75637 0.10523 0.26353 -0.77800
H 	H 	0.75737 0.10023 0.24923 0.29700
O 	O 	0.68827 0.28313 0.19824 -0.77000
H 	H 	0.70437 0.25993 0.19353 0.27200
N 	N 	0.68637 0.05593 0.34951 -0.25100
N 	N 	0.60017 0.03123 0.37404 -0.25000
N 	N 	0.82517 0.15973 0.34864 -0.25900
N 	N 	0.88317 0.24433 0.37350 -0.25200
N 	N 	0.63887 0.10443 0.25016 -0.25100
N 	N 	0.61427 0.16803 0.22640 -0.25300
N 	N 	0.81957 0.24333 0.25138 -0.25100
N 	N 	0.79707 0.30753 0.22840 -0.25400
C 	C 	0.64627 0.07613 0.35945 0.08200
H 	H 	0.65037 0.11843 0.35633 -0.06400
C 	C 	0.66377 0.99293 0.35774 0.06000
C 	C 	0.68197 0.94543 0.35242 -0.12000
H 	H 	0.72097 0.95783 0.34353 0.02900
C 	C 	0.64597 0.88143 0.36186 -0.00400
H 	H 	0.66177 0.84833 0.35643 0.01100
C 	C 	0.59167 0.86493 0.37663 -0.05800
H 	H 	0.56647 0.82483 0.38403 0.02500
C 	C 	0.57337 0.91233 0.38195 -0.07900
H 	H 	0.53407 0.90063 0.39123 0.00600
C 	C 	0.60947 0.97633 0.37251 0.02900
C 	C 	0.84037 0.21953 0.35586 0.10500
H 	H 	0.82157 0.24363 0.34873 -0.07600
C 	C 	0.85997 0.14173 0.36303 0.04200
C 	C 	0.86387 0.08423 0.36353 -0.09900
H 	H 	0.84087 0.04863 0.35263 0.01900
C 	C 	0.90557 0.08273 0.38193 -0.03900
H 	H 	0.91137 0.04483 0.38293 0.02900
C 	C 	0.93717 0.13213 0.39803 -0.01200
H 	H 	0.96127 0.12613 0.41053 0.02700
C 	C 	0.93577 0.18963 0.39693 -0.10900
H 	H 	0.96057 0.22503 0.40773 0.04900
C 	C 	0.89577 0.19503 0.37898 0.05200
C 	C 	0.62607 0.15323 0.24842 0.09300
H 	H 	0.62517 0.17733 0.26193 -0.06700
C 	C 	0.63607 0.08413 0.22684 0.03600
C 	C 	0.64557 0.03233 0.21811 -0.09100
H 	H 	0.65587 0.00563 0.22813 0.03500
C 	C 	0.63867 0.02293 0.19343 -0.04700
H 	H 	0.64477 0.98923 0.18623 0.04700
C 	C 	0.62217 0.06453 0.17913 -0.01900
H 	H 	0.61527 0.05553 0.16263 0.02400
C 	C 	0.61607 0.11593 0.18804 -0.10500
H 	H 	0.60927 0.14543 0.17813 0.01900
C 	C 	0.62057 0.12243 0.21263 0.04700
C 	C 	0.78907 0.27923 0.24882 0.10300
H 	H 	0.76337 0.28353 0.26113 -0.07600
C 	C 	0.86767 0.26673 0.23353 0.01800
C 	C 	0.92577 0.26393 0.23003 -0.05300
H 	H 	0.93557 0.23693 0.24013 0.01800
C 	C 	0.96947 0.30053 0.21183 -0.03200
H 	H 	0.00917 0.29863 0.20943 0.02800
C 	C 	0.95517 0.34013 0.19713 -0.01900
H 	H 	0.98497 0.36513 0.18473 0.03300
C 	C 	0.89707 0.34293 0.20063 -0.08200
H 	H 	0.88727 0.36993 0.19063 0.03800
C 	C 	0.85337 0.30633 0.21883 0.08000
C 	C 	0.83057 0.23323 0.22730 0.02100
C 	C 	0.86467 0.20403 0.21723 -0.06300
H 	H 	0.87547 0.17653 0.22653 0.01100
C 	C 	0.88297 0.21513 0.19343 -0.03300
H 	H 	0.90527 0.19563 0.18743 0.03100
C 	C 	0.86707 0.25523 0.17971 -0.04100
H 	H 	0.87517 0.25903 0.16333 0.03700
C 	C 	0.83287 0.28433 0.18983 -0.04600
H 	H 	0.82207 0.31193 0.18043 -0.00600
C 	C 	0.81467 0.27343 0.21363 -0.02900
C 	C 	0.77887 0.98463 0.21933 -0.08200
H 	H 	0.81677 0.02753 0.22193 0.00700
C 	C 	0.76277 0.95053 0.19793 -0.04700
H 	H 	0.79327 0.97063 0.18513 0.02100
C 	C 	0.70717 0.89093 0.19363 -0.01700
H 	H 	0.69857 0.87593 0.17763 0.02800
C 	C 	0.66237 0.85043 0.21042 -0.11200
H 	H 	0.62677 0.80633 0.20763 0.06300
N 	N 	0.63987 0.85843 0.25325 -0.19500
H 	H 	0.60317 0.81953 0.25513 0.11000
C 	C 	0.67277 0.90743 0.27118 0.04600
H 	H 	0.65907 0.90393 0.28723 -0.02900
N 	N 	0.72977 0.96243 0.26083 -0.24900
C 	C 	0.73207 0.94753 0.23651 0.01500
C 	C 	0.67647 0.88323 0.23183 0.07500
Cu	Cu	0.89953 0.65668 0.32562 0.86100
Cu	Cu	0.92531 0.59253 0.27821 0.86500
Cu	Cu	0.80884 0.63187 0.27822 0.86000
Cu	Cu	0.95770 0.74331 0.27986 0.84100
Cu	Cu	0.75763 0.36035 0.21631 0.85700
O 	O 	0.96517 0.66703 0.30149 -0.75600
H 	H 	0.00537 0.68873 0.30393 0.28400
O 	O 	0.87447 0.70033 0.30017 -0.79700
H 	H 	0.86417 0.72703 0.30533 0.28200
O 	O 	0.89477 0.65113 0.26353 -0.77800
H 	H 	0.89977 0.65713 0.24923 0.29800
O 	O 	0.71687 0.40513 0.19824 -0.77000
H 	H 	0.74007 0.44443 0.19353 0.27200
N 	N 	0.94407 0.63043 0.34951 -0.24600
N 	N 	0.96877 0.56893 0.37404 -0.24500
N 	N 	0.84027 0.66543 0.34864 -0.25800
N 	N 	0.75567 0.63883 0.37350 -0.25300
N 	N 	0.89557 0.53443 0.25016 -0.25200
N 	N 	0.83197 0.44623 0.22640 -0.25200
N 	N 	0.75667 0.57623 0.25138 -0.25100
N 	N 	0.69247 0.48953 0.22840 -0.25400
C 	C 	0.92387 0.57013 0.35945 0.08300
H 	H 	0.88157 0.53193 0.35633 -0.06400
C 	C 	0.00707 0.67083 0.35774 0.05200
C 	C 	0.05457 0.73653 0.35242 -0.11700
H 	H 	0.04217 0.76313 0.34353 0.02600
C 	C 	0.11857 0.76453 0.36186 -0.00600
H 	H 	0.15167 0.81343 0.35643 0.01100
C 	C 	0.13507 0.72673 0.37663 -0.05900
H 	H 	0.17517 0.74163 0.38403 0.02500
C 	C 	0.08767 0.66103 0.38195 -0.07700
H 	H 	0.09937 0.63343 0.39123 0.00500
C 	C 	0.02367 0.63313 0.37251 0.02300
C 	C 	0.78047 0.62083 0.35586 0.10500
H 	H 	0.75637 0.57793 0.34873 -0.07600
C 	C 	0.85827 0.71823 0.36303 0.04300
C 	C 	0.91577 0.77963 0.36353 -0.09900
H 	H 	0.95137 0.79223 0.35263 0.02200
C 	C 	0.91727 0.82283 0.38193 -0.03800
H 	H 	0.95517 0.86653 0.38293 0.03100
C 	C 	0.86787 0.80503 0.39803 -0.01300
H 	H 	0.87387 0.83513 0.41053 0.02800
C 	C 	0.81037 0.74613 0.39693 -0.10900
H 	H 	0.77497 0.73553 0.40773 0.04800
C 	C 	0.80497 0.70073 0.37898 0.05100
C 	C 	0.84677 0.47283 0.24842 0.09300
H 	H 	0.82267 0.44783 0.26193 -0.06700
C 	C 	0.91587 0.55193 0.22684 0.04500
C 	C 	0.96767 0.61323 0.21811 -0.10700
H 	H 	0.99437 0.65023 0.22813 0.04500
C 	C 	0.97707 0.61573 0.19343 -0.01500
H 	H 	0.01077 0.65553 0.18623 0.02800
C 	C 	0.93547 0.55763 0.17913 -0.03700
H 	H 	0.94447 0.55973 0.16263 0.03300
C 	C 	0.88407 0.50013 0.18804 -0.09200
H 	H 	0.85457 0.46383 0.17813 0.01500
C 	C 	0.87757 0.49813 0.21263 0.04000
C 	C 	0.72077 0.50983 0.24882 0.10300
H 	H 	0.71647 0.47983 0.26113 -0.07600
C 	C 	0.73327 0.60093 0.23353 0.02300
C 	C 	0.73607 0.66183 0.23003 -0.05100
H 	H 	0.76307 0.69863 0.24013 0.01700
C 	C 	0.69947 0.66893 0.21183 -0.04200
H 	H 	0.70137 0.71053 0.20943 0.03500
C 	C 	0.65987 0.61503 0.19713 -0.01600
H 	H 	0.63487 0.61983 0.18473 0.03000
C 	C 	0.65707 0.55413 0.20063 -0.08000
H 	H 	0.63007 0.51733 0.19063 0.03700
C 	C 	0.69367 0.54703 0.21883 0.07300
C 	C 	0.76677 0.59733 0.22730 0.01600
C 	C 	0.79597 0.66063 0.21723 -0.06100
H 	H 	0.82347 0.69893 0.22653 0.01000
C 	C 	0.78487 0.66783 0.19343 -0.03500
H 	H 	0.80437 0.70963 0.18743 0.03100
C 	C 	0.74477 0.61183 0.17971 -0.03900
H 	H 	0.74097 0.61613 0.16333 0.03500
C 	C 	0.71567 0.54853 0.18983 -0.05000
H 	H 	0.68807 0.51013 0.18043 -0.00400
C 	C 	0.72657 0.54123 0.21363 -0.02200
C 	C 	0.01537 0.79423 0.21933 -0.11400
H 	H 	0.97247 0.78923 0.22193 0.02400
C 	C 	0.04947 0.81223 0.19793 -0.02600
H 	H 	0.02937 0.82263 0.18513 0.01100
C 	C 	0.10907 0.81623 0.19363 -0.03300
H 	H 	0.12407 0.82263 0.17763 0.03300
C 	C 	0.14957 0.81193 0.21042 -0.10100
H 	H 	0.19367 0.82043 0.20763 0.05900
N 	N 	0.14157 0.78143 0.25325 -0.19400
H 	H 	0.18047 0.78363 0.25513 0.11000
C 	C 	0.09257 0.76533 0.27118 0.04500
H 	H 	0.09607 0.75513 0.28723 -0.02900
N 	N 	0.03757 0.76733 0.26083 -0.25400
C 	C 	0.05247 0.78453 0.23651 0.02400
C 	C 	0.11677 0.79323 0.23183 0.06700
Cu	Cu	0.66667 0.33333 0.49474 0.80700
Cu	Cu	0.66667 0.33333 0.17192 0.80700
Cu	Cu	0.65668 0.75716 0.67438 0.86100
Cu	Cu	0.59253 0.66723 0.72179 0.86500
Cu	Cu	0.63187 0.82304 0.72178 0.86000
Cu	Cu	0.74331 0.78562 0.72014 0.84000
Cu	Cu	0.36035 0.60273 0.78369 0.85700
O 	O 	0.66703 0.70187 0.69851 -0.76200
H 	H 	0.68873 0.68337 0.69607 0.28900
O 	O 	0.70033 0.82587 0.69983 -0.79700
H 	H 	0.72703 0.86287 0.69467 0.28200
O 	O 	0.65113 0.75637 0.73647 -0.77800
H 	H 	0.65713 0.75737 0.75077 0.29700
O 	O 	0.40513 0.68827 0.80176 -0.77000
H 	H 	0.44443 0.70437 0.80647 0.27200
N 	N 	0.63043 0.68637 0.65049 -0.24800
N 	N 	0.56893 0.60017 0.62596 -0.24700
N 	N 	0.66543 0.82517 0.65136 -0.25800
N 	N 	0.63883 0.88317 0.62650 -0.25200
N 	N 	0.53443 0.63887 0.74984 -0.25100
N 	N 	0.44623 0.61427 0.77360 -0.25300
N 	N 	0.57623 0.81957 0.74862 -0.25100
N 	N 	0.48953 0.79707 0.77160 -0.25400
C 	C 	0.57013 0.64627 0.64055 0.08300
H 	H 	0.53193 0.65037 0.64367 -0.06400
C 	C 	0.67083 0.66377 0.64226 0.05500
C 	C 	0.73653 0.68197 0.64758 -0.11800
H 	H 	0.76313 0.72097 0.65647 0.02700
C 	C 	0.76453 0.64597 0.63814 -0.00500
H 	H 	0.81343 0.66177 0.64357 0.01100
C 	C 	0.72673 0.59167 0.62337 -0.05900
H 	H 	0.74163 0.56647 0.61597 0.02500
C 	C 	0.66103 0.57337 0.61805 -0.07800
H 	H 	0.63343 0.53407 0.60877 0.00500
C 	C 	0.63313 0.60947 0.62749 0.02600
C 	C 	0.62083 0.84037 0.64414 0.10500
H 	H 	0.57793 0.82157 0.65127 -0.07600
C 	C 	0.71823 0.85997 0.63697 0.04200
C 	C 	0.77963 0.86387 0.63647 -0.09900
H 	H 	0.79223 0.84087 0.64737 0.02100
C 	C 	0.82283 0.90557 0.61807 -0.03900
H 	H 	0.86653 0.91137 0.61707 0.03100
C 	C 	0.80503 0.93717 0.60197 -0.01200
H 	H 	0.83513 0.96127 0.58947 0.02800
C 	C 	0.74613 0.93577 0.60307 -0.10900
H 	H 	0.73553 0.96057 0.59227 0.04900
C 	C 	0.70073 0.89577 0.62102 0.05200
C 	C 	0.47283 0.62607 0.75158 0.09300
H 	H 	0.44783 0.62517 0.73807 -0.06700
C 	C 	0.55193 0.63607 0.77316 0.04200
C 	C 	0.61323 0.64557 0.78189 -0.10000
H 	H 	0.65023 0.65587 0.77187 0.04100
C 	C 	0.61573 0.63867 0.80657 -0.02800
H 	H 	0.65553 0.64477 0.81377 0.03600
C 	C 	0.55763 0.62217 0.82087 -0.02900
H 	H 	0.55973 0.61527 0.83737 0.02900
C 	C 	0.50013 0.61607 0.81196 -0.09700
H 	H 	0.46383 0.60927 0.82187 0.01600
C 	C 	0.49813 0.62057 0.78737 0.04300
C 	C 	0.50983 0.78907 0.75118 0.10300
H 	H 	0.47983 0.76337 0.73887 -0.07600
C 	C 	0.60093 0.86767 0.76647 0.01900
C 	C 	0.66183 0.92577 0.76997 -0.05300
H 	H 	0.69863 0.93557 0.75987 0.01800
C 	C 	0.66893 0.96947 0.78817 -0.03300
H 	H 	0.71053 0.00917 0.79057 0.02900
C 	C 	0.61503 0.95517 0.80287 -0.01900
H 	H 	0.61983 0.98497 0.81527 0.03300
C 	C 	0.55413 0.89707 0.79937 -0.08200
H 	H 	0.51733 0.88727 0.80937 0.03800
C 	C 	0.54703 0.85337 0.78117 0.07900
C 	C 	0.59733 0.83057 0.77270 0.02100
C 	C 	0.66063 0.86467 0.78277 -0.06300
H 	H 	0.69893 0.87547 0.77347 0.01100
C 	C 	0.66783 0.88297 0.80657 -0.03300
H 	H 	0.70963 0.90527 0.81257 0.03200
C 	C 	0.61183 0.86707 0.82029 -0.04100
H 	H 	0.61613 0.87517 0.83667 0.03600
C 	C 	0.54853 0.83287 0.81017 -0.04600
H 	H 	0.51013 0.82207 0.81957 -0.00600
C 	C 	0.54123 0.81467 0.78637 -0.02800
C 	C 	0.79423 0.77887 0.78067 -0.10100
H 	H 	0.78923 0.81677 0.77807 0.01800
C 	C 	0.81223 0.76277 0.80207 -0.03500
H 	H 	0.82263 0.79327 0.81487 0.01600
C 	C 	0.81623 0.70717 0.80637 -0.02600
H 	H 	0.82263 0.69857 0.82237 0.03100
C 	C 	0.81193 0.66237 0.78958 -0.10500
H 	H 	0.82043 0.62677 0.79237 0.06100
N 	N 	0.78143 0.63987 0.74675 -0.19400
H 	H 	0.78363 0.60317 0.74487 0.11000
C 	C 	0.76533 0.67277 0.72882 0.04500
H 	H 	0.75513 0.65907 0.71277 -0.02900
N 	N 	0.76733 0.72977 0.73917 -0.25200
C 	C 	0.78453 0.73207 0.76349 0.02100
C 	C 	0.79323 0.67647 0.76817 0.07000
Cu	Cu	0.24284 0.89953 0.67438 0.86100
Cu	Cu	0.33277 0.92531 0.72179 0.86500
Cu	Cu	0.17696 0.80884 0.72178 0.86000
Cu	Cu	0.21438 0.95770 0.72014 0.84000
Cu	Cu	0.39727 0.75763 0.78369 0.85700
O 	O 	0.29813 0.96517 0.69851 -0.75500
H 	H 	0.31663 0.00537 0.69607 0.28400
O 	O 	0.17413 0.87447 0.69983 -0.79700
H 	H 	0.13713 0.86417 0.69467 0.28100
O 	O 	0.24363 0.89477 0.73647 -0.77800
H 	H 	0.24263 0.89977 0.75077 0.29800
O 	O 	0.31173 0.71687 0.80176 -0.77000
H 	H 	0.29563 0.74007 0.80647 0.27100
N 	N 	0.31363 0.94407 0.65049 -0.24600
N 	N 	0.39983 0.96877 0.62596 -0.24500
N 	N 	0.17483 0.84027 0.65136 -0.25900
N 	N 	0.11683 0.75567 0.62650 -0.25300
N 	N 	0.36113 0.89557 0.74984 -0.25200
N 	N 	0.38573 0.83197 0.77360 -0.25200
N 	N 	0.18043 0.75667 0.74862 -0.25100
N 	N 	0.20293 0.69247 0.77160 -0.25500
C 	C 	0.35373 0.92387 0.64055 0.08300
H 	H 	0.34963 0.88157 0.64367 -0.06400
C 	C 	0.33623 0.00707 0.64226 0.05100
C 	C 	0.31803 0.05457 0.64758 -0.11600
H 	H 	0.27903 0.04217 0.65647 0.02500
C 	C 	0.35403 0.11857 0.63814 -0.00600
H 	H 	0.33823 0.15167 0.64357 0.01100
C 	C 	0.40833 0.13507 0.62337 -0.05900
H 	H 	0.43353 0.17517 0.61597 0.02500
C 	C 	0.42663 0.08767 0.61805 -0.07800
H 	H 	0.46593 0.09937 0.60877 0.00500
C 	C 	0.39053 0.02367 0.62749 0.02300
C 	C 	0.15963 0.78047 0.64414 0.10500
H 	H 	0.17843 0.75637 0.65127 -0.07600
C 	C 	0.14003 0.85827 0.63697 0.04200
C 	C 	0.13613 0.91577 0.63647 -0.10000
H 	H 	0.15913 0.95137 0.64737 0.02200
C 	C 	0.09443 0.91727 0.61807 -0.03900
H 	H 	0.08863 0.95517 0.61707 0.03000
C 	C 	0.06283 0.86787 0.60197 -0.01300
H 	H 	0.03873 0.87387 0.58947 0.02600
C 	C 	0.06423 0.81037 0.60307 -0.10900
H 	H 	0.03943 0.77497 0.59227 0.04700
C 	C 	0.10423 0.80497 0.62102 0.05000
C 	C 	0.37393 0.84677 0.75158 0.09300
H 	H 	0.37483 0.82267 0.73807 -0.06700
C 	C 	0.36393 0.91587 0.77316 0.04600
C 	C 	0.35443 0.96767 0.78189 -0.10800
H 	H 	0.34413 0.99437 0.77187 0.04500
C 	C 	0.36133 0.97707 0.80657 -0.01400
H 	H 	0.35523 0.01077 0.81377 0.02800
C 	C 	0.37783 0.93547 0.82087 -0.03700
H 	H 	0.38473 0.94447 0.83737 0.03300
C 	C 	0.38393 0.88407 0.81196 -0.09200
H 	H 	0.39073 0.85457 0.82187 0.01500
C 	C 	0.37943 0.87757 0.78737 0.04000
C 	C 	0.21093 0.72077 0.75118 0.10300
H 	H 	0.23663 0.71647 0.73887 -0.07600
C 	C 	0.13233 0.73327 0.76647 0.02800
C 	C 	0.07423 0.73607 0.76997 -0.04900
H 	H 	0.06443 0.76307 0.75987 0.01500
C 	C 	0.03053 0.69947 0.78817 -0.05500
H 	H 	0.99083 0.70137 0.79057 0.04400
C 	C 	0.04483 0.65987 0.80287 -0.01200
H 	H 	0.01503 0.63487 0.81527 0.02700
C 	C 	0.10293 0.65707 0.79937 -0.07900
H 	H 	0.11273 0.63007 0.80937 0.03600
C 	C 	0.14663 0.69367 0.78117 0.06500
C 	C 	0.16943 0.76677 0.77270 0.00800
C 	C 	0.13533 0.79597 0.78277 -0.05800
H 	H 	0.12453 0.82347 0.77347 0.00900
C 	C 	0.11703 0.78487 0.80657 -0.03700
H 	H 	0.09473 0.80437 0.81257 0.03100
C 	C 	0.13293 0.74477 0.82029 -0.03600
H 	H 	0.12483 0.74097 0.83667 0.03300
C 	C 	0.16713 0.71567 0.81017 -0.05500
H 	H 	0.17793 0.68807 0.81957 -0.00300
C 	C 	0.18533 0.72657 0.78637 -0.01200
C 	C 	0.22113 0.01537 0.78067 -0.11700
H 	H 	0.18323 0.97247 0.77807 0.02500
C 	C 	0.23723 0.04947 0.80207 -0.02500
H 	H 	0.20673 0.02937 0.81487 0.01000
C 	C 	0.29283 0.10907 0.80637 -0.03400
H 	H 	0.30143 0.12407 0.82237 0.03400
C 	C 	0.33763 0.14957 0.78958 -0.10000
H 	H 	0.37323 0.19367 0.79237 0.05800
N 	N 	0.36013 0.14157 0.74675 -0.19400
H 	H 	0.39683 0.18047 0.74487 0.10900
C 	C 	0.32723 0.09257 0.72882 0.04400
H 	H 	0.34093 0.09607 0.71277 -0.02900
N 	N 	0.27023 0.03757 0.73917 -0.25400
C 	C 	0.26793 0.05247 0.76349 0.02500
C 	C 	0.32353 0.11677 0.76817 0.06600
Cu	Cu	0.10047 0.34332 0.67438 0.86000
Cu	Cu	0.07469 0.40747 0.72179 0.86500
Cu	Cu	0.19116 0.36813 0.72178 0.86000
Cu	Cu	0.04230 0.25669 0.72014 0.83700
Cu	Cu	0.24237 0.63965 0.78369 0.85700
O 	O 	0.03483 0.33297 0.69851 -0.77100
H 	H 	0.99463 0.31127 0.69607 0.29700
O 	O 	0.12553 0.29967 0.69983 -0.79700
H 	H 	0.13583 0.27297 0.69467 0.28100
O 	O 	0.10523 0.34887 0.73647 -0.77800
H 	H 	0.10023 0.34287 0.75077 0.29700
O 	O 	0.28313 0.59487 0.80176 -0.77000
H 	H 	0.25993 0.55557 0.80647 0.27200
N 	N 	0.05593 0.36957 0.65049 -0.25100
N 	N 	0.03123 0.43107 0.62596 -0.25000
N 	N 	0.15973 0.33457 0.65136 -0.25900
N 	N 	0.24433 0.36117 0.62650 -0.25300
N 	N 	0.10443 0.46557 0.74984 -0.25100
N 	N 	0.16803 0.55377 0.77360 -0.25300
N 	N 	0.24333 0.42377 0.74862 -0.25100
N 	N 	0.30753 0.51047 0.77160 -0.25400
C 	C 	0.07613 0.42987 0.64055 0.08200
H 	H 	0.11843 0.46807 0.64367 -0.06400
C 	C 	0.99293 0.32917 0.64226 0.06100
C 	C 	0.94543 0.26347 0.64758 -0.12000
H 	H 	0.95783 0.23687 0.65647 0.02900
C 	C 	0.88143 0.23547 0.63814 -0.00400
H 	H 	0.84833 0.18657 0.64357 0.01000
C 	C 	0.86493 0.27327 0.62337 -0.05900
H 	H 	0.82483 0.25837 0.61597 0.02500
C 	C 	0.91233 0.33897 0.61805 -0.07900
H 	H 	0.90063 0.36657 0.60877 0.00600
C 	C 	0.97633 0.36687 0.62749 0.02900
C 	C 	0.21953 0.37917 0.64414 0.10500
H 	H 	0.24363 0.42207 0.65127 -0.07600
C 	C 	0.14173 0.28177 0.63697 0.04100
C 	C 	0.08423 0.22037 0.63647 -0.10000
H 	H 	0.04863 0.20777 0.64737 0.01900
C 	C 	0.08273 0.17717 0.61807 -0.04000
H 	H 	0.04483 0.13347 0.61707 0.02700
C 	C 	0.13213 0.19497 0.60197 -0.01300
H 	H 	0.12613 0.16487 0.58947 0.02500
C 	C 	0.18963 0.25387 0.60307 -0.11000
H 	H 	0.22503 0.26447 0.59227 0.04800
C 	C 	0.19503 0.29927 0.62102 0.05100
C 	C 	0.15323 0.52717 0.75158 0.09300
H 	H 	0.17733 0.55217 0.73807 -0.06700
C 	C 	0.08413 0.44807 0.77316 0.03600
C 	C 	0.03233 0.38677 0.78189 -0.09000
H 	H 	0.00563 0.34977 0.77187 0.03500
C 	C 	0.02293 0.38427 0.80657 -0.04900
H 	H 	0.98923 0.34447 0.81377 0.04700
C 	C 	0.06453 0.44237 0.82087 -0.01800
H 	H 	0.05553 0.44027 0.83737 0.02400
C 	C 	0.11593 0.49987 0.81196 -0.10500
H 	H 	0.14543 0.53617 0.82187 0.01900
C 	C 	0.12243 0.50187 0.78737 0.04700
C 	C 	0.27923 0.49017 0.75118 0.10300
H 	H 	0.28353 0.52017 0.73887 -0.07600
C 	C 	0.26673 0.39907 0.76647 0.02300
C 	C 	0.26393 0.33817 0.76997 -0.05100
H 	H 	0.23693 0.30137 0.75987 0.01700
C 	C 	0.30053 0.33107 0.78817 -0.04200
H 	H 	0.29863 0.28947 0.79057 0.03500
C 	C 	0.34013 0.38497 0.80287 -0.01600
H 	H 	0.36513 0.38017 0.81527 0.03000
C 	C 	0.34293 0.44587 0.79937 -0.08000
H 	H 	0.36993 0.48267 0.80937 0.03700
C 	C 	0.30633 0.45297 0.78117 0.07300
C 	C 	0.23323 0.40267 0.77270 0.01500
C 	C 	0.20403 0.33937 0.78277 -0.06100
H 	H 	0.17653 0.30107 0.77347 0.01000
C 	C 	0.21513 0.33217 0.80657 -0.03500
H 	H 	0.19563 0.29037 0.81257 0.03100
C 	C 	0.25523 0.38817 0.82029 -0.03900
H 	H 	0.25903 0.38387 0.83667 0.03500
C 	C 	0.28433 0.45147 0.81017 -0.05000
H 	H 	0.31193 0.48987 0.81957 -0.00400
C 	C 	0.27343 0.45877 0.78637 -0.02100
C 	C 	0.98463 0.20577 0.78067 -0.08000
H 	H 	0.02753 0.21077 0.77807 0.00500
C 	C 	0.95053 0.18777 0.80207 -0.04900
H 	H 	0.97063 0.17737 0.81487 0.02200
C 	C 	0.89093 0.18377 0.80637 -0.01600
H 	H 	0.87593 0.17737 0.82237 0.02800
C 	C 	0.85043 0.18807 0.78958 -0.11300
H 	H 	0.80633 0.17957 0.79237 0.06300
N 	N 	0.85843 0.21857 0.74675 -0.19500
H 	H 	0.81953 0.21637 0.74487 0.11000
C 	C 	0.90743 0.23467 0.72882 0.04600
H 	H 	0.90393 0.24487 0.71277 -0.02900
N 	N 	0.96243 0.23267 0.73917 -0.24900
C 	C 	0.94753 0.21547 0.76349 0.01300
C 	C 	0.88323 0.20677 0.76817 0.07500
Cu	Cu	0.00998 0.57618 0.65896 0.85800
Cu	Cu	0.07413 0.66611 0.61155 0.86400
Cu	Cu	0.03479 0.51030 0.61156 0.85800
Cu	Cu	0.92335 0.54772 0.61320 0.84000
Cu	Cu	0.30631 0.73061 0.54965 0.85700
O 	O 	0.99963 0.63147 0.63483 -0.75700
H 	H 	0.97793 0.64997 0.63727 0.28900
O 	O 	0.96633 0.50747 0.63351 -0.79300
H 	H 	0.93963 0.47047 0.63867 0.28100
O 	O 	0.01553 0.57697 0.59687 -0.78000
H 	H 	0.00953 0.57597 0.58257 0.29700
O 	O 	0.26153 0.64507 0.53158 -0.77000
H 	H 	0.22223 0.62897 0.52687 0.27200
N 	N 	0.03623 0.64697 0.68285 -0.25200
N 	N 	0.09773 0.73317 0.70738 -0.24600
N 	N 	0.00123 0.50817 0.68198 -0.26200
N 	N 	0.02783 0.45017 0.70684 -0.25600
N 	N 	0.13223 0.69447 0.58350 -0.25100
N 	N 	0.22043 0.71907 0.55974 -0.25300
N 	N 	0.09043 0.51377 0.58472 -0.25400
N 	N 	0.17713 0.53627 0.56174 -0.25300
C 	C 	0.09653 0.68707 0.69279 0.08200
H 	H 	0.13473 0.68297 0.68967 -0.06400
C 	C 	0.99583 0.66957 0.69108 0.06600
C 	C 	0.93013 0.65137 0.68576 -0.12000
H 	H 	0.90353 0.61237 0.67687 0.02800
C 	C 	0.90213 0.68737 0.69520 -0.00600
H 	H 	0.85323 0.67157 0.68977 0.01100
C 	C 	0.93993 0.74167 0.70997 -0.05000
H 	H 	0.92503 0.76687 0.71737 0.02400
C 	C 	0.00563 0.75997 0.71529 -0.08600
H 	H 	0.03323 0.79927 0.72457 0.00600
C 	C 	0.03353 0.72387 0.70585 0.02100
C 	C 	0.04583 0.49297 0.68920 0.10400
H 	H 	0.08873 0.51177 0.68207 -0.07600
C 	C 	0.94843 0.47337 0.69637 0.04600
C 	C 	0.88703 0.46947 0.69687 -0.10000
H 	H 	0.87443 0.49247 0.68597 0.02100
C 	C 	0.84383 0.42777 0.71527 -0.03900
H 	H 	0.80013 0.42197 0.71627 0.03000
C 	C 	0.86163 0.39617 0.73137 -0.01100
H 	H 	0.83153 0.37207 0.74387 0.02700
C 	C 	0.92053 0.39757 0.73027 -0.11100
H 	H 	0.93113 0.37277 0.74107 0.05000
C 	C 	0.96593 0.43757 0.71232 0.05600
C 	C 	0.19383 0.70727 0.58176 0.09300
H 	H 	0.21883 0.70817 0.59527 -0.06700
C 	C 	0.11473 0.69727 0.56018 0.04100
C 	C 	0.05343 0.68777 0.55145 -0.10000
H 	H 	0.01643 0.67747 0.56147 0.03900
C 	C 	0.05093 0.69467 0.52677 -0.02900
H 	H 	0.01113 0.68857 0.51957 0.03500
C 	C 	0.10903 0.71117 0.51247 -0.02900
H 	H 	0.10693 0.71807 0.49597 0.02900
C 	C 	0.16653 0.71727 0.52138 -0.09800
H 	H 	0.20283 0.72407 0.51147 0.01600
C 	C 	0.16853 0.71277 0.54597 0.04300
C 	C 	0.15683 0.54427 0.58216 0.10300
H 	H 	0.18683 0.56997 0.59447 -0.07600
C 	C 	0.06573 0.46567 0.56687 0.02700
C 	C 	0.00483 0.40757 0.56337 -0.07100
H 	H 	0.96803 0.39777 0.57347 0.02600
C 	C 	0.99773 0.36387 0.54517 -0.01900
H 	H 	0.95613 0.32417 0.54277 0.02900
C 	C 	0.05163 0.37817 0.53047 -0.03200
H 	H 	0.04683 0.34837 0.51807 0.03400
C 	C 	0.11253 0.43627 0.53397 -0.07400
H 	H 	0.14933 0.44607 0.52397 0.03500
C 	C 	0.11963 0.47997 0.55217 0.07100
C 	C 	0.06933 0.50277 0.56064 0.02400
C 	C 	0.00603 0.46867 0.55057 -0.08700
H 	H 	0.96773 0.45787 0.55987 0.02200
C 	C 	0.99883 0.45037 0.52677 -0.00200
H 	H 	0.95703 0.42807 0.52077 0.02000
C 	C 	0.05483 0.46627 0.51305 -0.06300
H 	H 	0.05053 0.45817 0.49667 0.04200
C 	C 	0.11813 0.50047 0.52317 -0.03800
H 	H 	0.15653 0.51127 0.51377 -0.00800
C 	C 	0.12543 0.51867 0.54697 -0.02800
C 	C 	0.87243 0.55447 0.55267 -0.10100
H 	H 	0.87743 0.51657 0.55527 0.01700
C 	C 	0.85443 0.57057 0.53127 -0.03400
H 	H 	0.84403 0.54007 0.51847 0.01500
C 	C 	0.85043 0.62617 0.52697 -0.02600
H 	H 	0.84403 0.63477 0.51097 0.03200
C 	C 	0.85473 0.67097 0.54376 -0.10500
H 	H 	0.84623 0.70657 0.54097 0.06100
N 	N 	0.88523 0.69347 0.58659 -0.19400
H 	H 	0.88303 0.73017 0.58847 0.11100
C 	C 	0.90133 0.66057 0.60452 0.04600
H 	H 	0.91153 0.67427 0.62057 -0.02800
N 	N 	0.89933 0.60357 0.59417 -0.25100
C 	C 	0.88213 0.60127 0.56985 0.02100
C 	C 	0.87343 0.65687 0.56517 0.07100
Cu	Cu	0.42382 0.43381 0.65896 0.86100
Cu	Cu	0.33389 0.40803 0.61155 0.86500
Cu	Cu	0.48970 0.52450 0.61156 0.86000
Cu	Cu	0.45228 0.37564 0.61320 0.83900
Cu	Cu	0.26939 0.57571 0.54965 0.85700
O 	O 	0.36853 0.36817 0.63483 -0.76200
H 	H 	0.35003 0.32797 0.63727 0.28900
O 	O 	0.49253 0.45887 0.63351 -0.79700
H 	H 	0.52953 0.46917 0.63867 0.28200
O 	O 	0.42303 0.43857 0.59687 -0.77800
H 	H 	0.42403 0.43357 0.58257 0.29700
O 	O 	0.35493 0.61647 0.53158 -0.77000
H 	H 	0.37103 0.59327 0.52687 0.27200
N 	N 	0.35303 0.38927 0.68285 -0.24800
N 	N 	0.26683 0.36457 0.70738 -0.24700
N 	N 	0.49183 0.49307 0.68198 -0.25900
N 	N 	0.54983 0.57767 0.70684 -0.25300
N 	N 	0.30553 0.43777 0.58350 -0.25100
N 	N 	0.28093 0.50137 0.55974 -0.25300
N 	N 	0.48623 0.57667 0.58472 -0.25100
N 	N 	0.46373 0.64087 0.56174 -0.25400
C 	C 	0.31293 0.40947 0.69279 0.08300
H 	H 	0.31703 0.45177 0.68967 -0.06400
C 	C 	0.33043 0.32627 0.69108 0.05500
C 	C 	0.34863 0.27877 0.68576 -0.11800
H 	H 	0.38763 0.29117 0.67687 0.02700
C 	C 	0.31263 0.21477 0.69520 -0.00500
H 	H 	0.32843 0.18167 0.68977 0.01000
C 	C 	0.25833 0.19827 0.70997 -0.05900
H 	H 	0.23313 0.15817 0.71737 0.02500
C 	C 	0.24003 0.24567 0.71529 -0.07800
H 	H 	0.20073 0.23397 0.72457 0.00400
C 	C 	0.27613 0.30967 0.70585 0.02600
C 	C 	0.50703 0.55287 0.68920 0.10500
H 	H 	0.48823 0.57697 0.68207 -0.07600
C 	C 	0.52663 0.47507 0.69637 0.04200
C 	C 	0.53053 0.41757 0.69687 -0.09900
H 	H 	0.50753 0.38197 0.68597 0.02100
C 	C 	0.57223 0.41607 0.71527 -0.03900
H 	H 	0.57803 0.37817 0.71627 0.02900
C 	C 	0.60383 0.46547 0.73137 -0.01300
H 	H 	0.62793 0.45947 0.74387 0.02700
C 	C 	0.60243 0.52297 0.73027 -0.10900
H 	H 	0.62723 0.55837 0.74107 0.04800
C 	C 	0.56243 0.52837 0.71232 0.05100
C 	C 	0.29273 0.48657 0.58176 0.09300
H 	H 	0.29183 0.51067 0.59527 -0.06700
C 	C 	0.30273 0.41747 0.56018 0.04200
C 	C 	0.31223 0.36567 0.55145 -0.10000
H 	H 	0.32253 0.33897 0.56147 0.04100
C 	C 	0.30533 0.35627 0.52677 -0.02900
H 	H 	0.31143 0.32257 0.51957 0.03600
C 	C 	0.28883 0.39787 0.51247 -0.02900
H 	H 	0.28193 0.38887 0.49597 0.02900
C 	C 	0.28273 0.44927 0.52138 -0.09800
H 	H 	0.27593 0.47877 0.51147 0.01700
C 	C 	0.28723 0.45577 0.54597 0.04300
C 	C 	0.45573 0.61257 0.58216 0.10300
H 	H 	0.43003 0.61687 0.59447 -0.07600
C 	C 	0.53433 0.60007 0.56687 0.02300
C 	C 	0.59243 0.59727 0.56337 -0.05100
H 	H 	0.60223 0.57027 0.57347 0.01700
C 	C 	0.63613 0.63387 0.54517 -0.04200
H 	H 	0.67583 0.63197 0.54277 0.03500
C 	C 	0.62183 0.67347 0.53047 -0.01600
H 	H 	0.65163 0.69847 0.51807 0.03100
C 	C 	0.56373 0.67627 0.53397 -0.08000
H 	H 	0.55393 0.70327 0.52397 0.03700
C 	C 	0.52003 0.63967 0.55217 0.07300
C 	C 	0.49723 0.56657 0.56064 0.01600
C 	C 	0.53133 0.53737 0.55057 -0.06100
H 	H 	0.54213 0.50987 0.55987 0.01000
C 	C 	0.54963 0.54847 0.52677 -0.03500
H 	H 	0.57193 0.52897 0.52077 0.03100
C 	C 	0.53373 0.58857 0.51305 -0.03900
H 	H 	0.54183 0.59237 0.49667 0.03500
C 	C 	0.49953 0.61767 0.52317 -0.05000
H 	H 	0.48873 0.64527 0.51377 -0.00400
C 	C 	0.48133 0.60677 0.54697 -0.02200
C 	C 	0.44553 0.31797 0.55267 -0.10200
H 	H 	0.48343 0.36087 0.55527 0.01700
C 	C 	0.42943 0.28387 0.53127 -0.03500
H 	H 	0.45993 0.30397 0.51847 0.01500
C 	C 	0.37383 0.22427 0.52697 -0.02700
H 	H 	0.36523 0.20927 0.51097 0.03100
C 	C 	0.32903 0.18377 0.54376 -0.10500
H 	H 	0.29343 0.13967 0.54097 0.05900
N 	N 	0.30653 0.19177 0.58659 -0.19400
H 	H 	0.26983 0.15287 0.58847 0.10900
C 	C 	0.33943 0.24077 0.60452 0.04500
H 	H 	0.32573 0.23727 0.62057 -0.02900
N 	N 	0.39643 0.29577 0.59417 -0.25200
C 	C 	0.39873 0.28087 0.56985 0.02000
C 	C 	0.34313 0.21657 0.56517 0.06900
Cu	Cu	0.56619 0.99002 0.65896 0.86200
Cu	Cu	0.59197 0.92587 0.61155 0.86600
Cu	Cu	0.47550 0.96521 0.61156 0.86100
Cu	Cu	0.62436 0.07665 0.61320 0.83900
Cu	Cu	0.42429 0.69369 0.54965 0.85700
O 	O 	0.63183 0.00037 0.63483 -0.76500
H 	H 	0.67203 0.02207 0.63727 0.29000
O 	O 	0.54113 0.03367 0.63351 -0.79900
H 	H 	0.53083 0.06037 0.63867 0.28200
O 	O 	0.56143 0.98447 0.59687 -0.77600
H 	H 	0.56643 0.99047 0.58257 0.29800
O 	O 	0.38353 0.73847 0.53158 -0.77000
H 	H 	0.40673 0.77777 0.52687 0.27200
N 	N 	0.61073 0.96377 0.68285 -0.24500
N 	N 	0.63543 0.90227 0.70738 -0.24700
N 	N 	0.50693 0.99877 0.68198 -0.25600
N 	N 	0.42233 0.97217 0.70684 -0.25000
N 	N 	0.56223 0.86777 0.58350 -0.25100
N 	N 	0.49863 0.77957 0.55974 -0.25300
N 	N 	0.42333 0.90957 0.58472 -0.24900
N 	N 	0.35913 0.82287 0.56174 -0.25500
C 	C 	0.59053 0.90347 0.69279 0.08300
H 	H 	0.54823 0.86527 0.68967 -0.06400
C 	C 	0.67373 0.00417 0.69108 0.04800
C 	C 	0.72123 0.06987 0.68576 -0.11600
H 	H 	0.70883 0.09647 0.67687 0.02600
C 	C 	0.78523 0.09787 0.69520 -0.00400
H 	H 	0.81833 0.14677 0.68977 0.01000
C 	C 	0.80173 0.06007 0.70997 -0.06400
H 	H 	0.84183 0.07497 0.71737 0.02700
C 	C 	0.75433 0.99437 0.71529 -0.07300
H 	H 	0.76603 0.96677 0.72457 0.00400
C 	C 	0.69033 0.96647 0.70585 0.03000
C 	C 	0.44713 0.95417 0.68920 0.10600
H 	H 	0.42303 0.91127 0.68207 -0.07600
C 	C 	0.52493 0.05157 0.69637 0.03900
C 	C 	0.58243 0.11297 0.69687 -0.09900
H 	H 	0.61803 0.12557 0.68597 0.02000
C 	C 	0.58393 0.15617 0.71527 -0.03900
H 	H 	0.62183 0.19987 0.71627 0.02900
C 	C 	0.53453 0.13837 0.73137 -0.01400
H 	H 	0.54053 0.16847 0.74387 0.02700
C 	C 	0.47703 0.07947 0.73027 -0.10800
H 	H 	0.44163 0.06887 0.74107 0.04600
C 	C 	0.47163 0.03407 0.71232 0.04800
C 	C 	0.51343 0.80617 0.58176 0.09300
H 	H 	0.48933 0.78117 0.59527 -0.06700
C 	C 	0.58253 0.88527 0.56018 0.04200
C 	C 	0.63433 0.94657 0.55145 -0.10000
H 	H 	0.66103 0.98357 0.56147 0.04200
C 	C 	0.64373 0.94907 0.52677 -0.02800
H 	H 	0.67743 0.98887 0.51957 0.03700
C 	C 	0.60213 0.89097 0.51247 -0.02900
H 	H 	0.61113 0.89307 0.49597 0.03000
C 	C 	0.55073 0.83347 0.52138 -0.09700
H 	H 	0.52123 0.79717 0.51147 0.01700
C 	C 	0.54423 0.83147 0.54597 0.04300
C 	C 	0.38743 0.84317 0.58216 0.10300
H 	H 	0.38313 0.81317 0.59447 -0.07600
C 	C 	0.39993 0.93427 0.56687 0.01800
C 	C 	0.40273 0.99517 0.56337 -0.03500
H 	H 	0.42973 0.03197 0.57347 0.00900
C 	C 	0.36613 0.00227 0.54517 -0.06200
H 	H 	0.36803 0.04387 0.54277 0.04100
C 	C 	0.32653 0.94837 0.53047 -0.00200
H 	H 	0.30153 0.95317 0.51807 0.02700
C 	C 	0.32373 0.88747 0.53397 -0.08600
H 	H 	0.29673 0.85067 0.52397 0.03900
C 	C 	0.36033 0.88037 0.55217 0.07600
C 	C 	0.43343 0.93067 0.56064 0.00800
C 	C 	0.46263 0.99397 0.55057 -0.03700
H 	H 	0.49013 0.03227 0.55987 -0.00100
C 	C 	0.45153 0.00117 0.52677 -0.06400
H 	H 	0.47103 0.04297 0.52077 0.04100
C 	C 	0.41143 0.94517 0.51305 -0.01800
H 	H 	0.40763 0.94947 0.49667 0.02900
C 	C 	0.38233 0.88187 0.52317 -0.06000
H 	H 	0.35473 0.84347 0.51377 -0.00100
C 	C 	0.39323 0.87457 0.54697 -0.01600
C 	C 	0.68203 0.12757 0.55267 -0.10200
H 	H 	0.63913 0.12257 0.55527 0.01700
C 	C 	0.71613 0.14557 0.53127 -0.03600
H 	H 	0.69603 0.15597 0.51847 0.01500
C 	C 	0.77573 0.14957 0.52697 -0.02600
H 	H 	0.79073 0.15597 0.51097 0.03100
C 	C 	0.81623 0.14527 0.54376 -0.10600
H 	H 	0.86033 0.15377 0.54097 0.06100
N 	N 	0.80823 0.11477 0.58659 -0.19400
H 	H 	0.84713 0.11697 0.58847 0.11000
C 	C 	0.75923 0.09867 0.60452 0.04400
H 	H 	0.76273 0.08847 0.62057 -0.02900
N 	N 	0.70423 0.10067 0.59417 -0.25200
C 	C 	0.71913 0.11787 0.56985 0.01900
C 	C 	0.78343 0.12657 0.56517 0.07000
Cu	Cu	0.33333 0.66667 0.82808 0.80700
Cu	Cu	0.33333 0.66667 0.50526 0.80700
