data_crystal

_cell_length_a 32.88260
_cell_length_b 30.17860
_cell_length_c 40.07320
_cell_angle_alpha 90.00000
_cell_angle_beta  96.49800
_cell_angle_gamma 90.00000

_symmetry_space_group_name_	'P 1'
_symmetry_space_group_name_H-M	'P 1'

loop_
_symmetry_equiv_pos_as_xyz
  x,y,z

loop_
_atom_site_label
_atom_site_type_symbol
_atom_site_fract_x
_atom_site_fract_y
_atom_site_fract_z
_atom_site_charge
Co	Co	0.76598 0.04139 0.61576 1.12000
Co	Co	0.64439 0.71391 0.72376 1.11900
Co	Co	0.59873 0.98348 0.36114 1.12000
Co	Co	0.01310 0.84175 0.53503 1.11900
N 	N 	0.79961 0.04302 0.57331 -0.23000
C 	C 	0.79251 0.00708 0.55174 0.05000
C 	C 	0.81038 0.00570 0.52195 -0.09700
H 	H 	0.80550 0.98110 0.50720 0.06000
C 	C 	0.83537 0.04025 0.51372 0.02400
H 	H 	0.84760 0.03930 0.49340 0.01600
C 	C 	0.84247 0.07618 0.53529 -0.10500
H 	H 	0.85950 0.09980 0.52970 0.06500
C 	C 	0.82459 0.07757 0.56509 0.04400
H 	H 	0.82940 0.10210 0.57980 0.00200
N 	N 	0.74492 0.98207 0.58863 -0.19400
N 	N 	0.71649 0.94678 0.58942 -0.07700
C 	C 	0.71989 0.91927 0.56112 0.01700
H 	H 	0.70450 0.89320 0.55540 0.02200
C 	C 	0.75043 0.93757 0.54284 -0.07400
H 	H 	0.75900 0.92590 0.52280 0.05200
C 	C 	0.76590 0.97638 0.55984 0.01800
C 	C 	0.69260 0.93900 0.61500 -0.10400
H 	H 	0.66630 0.92600 0.60520 0.05700
H 	H 	0.68650 0.96770 0.62530 0.05700
N 	N 	0.59863 0.70033 0.75819 -0.22000
C 	C 	0.59856 0.73065 0.78429 0.04300
C 	C 	0.57203 0.72491 0.80860 -0.10200
H 	H 	0.57200 0.74560 0.82640 0.05800
C 	C 	0.54556 0.68890 0.80679 0.01600
H 	H 	0.52740 0.68490 0.82340 0.01400
C 	C 	0.54563 0.65855 0.78069 -0.09900
H 	H 	0.52750 0.63390 0.77950 0.05600
C 	C 	0.57216 0.66428 0.75638 0.03600
H 	H 	0.57220 0.64360 0.73850 0.01100
N 	N 	0.65325 0.76531 0.75968 -0.20100
N 	N 	0.67979 0.80202 0.76693 -0.07800
C 	C 	0.66890 0.82288 0.79641 0.01700
H 	H 	0.68160 0.84830 0.80690 0.02300
C 	C 	0.63561 0.79907 0.80738 -0.08200
H 	H 	0.62220 0.80580 0.82650 0.05200
C 	C 	0.62594 0.76348 0.78468 0.01900
C 	C 	0.70580 0.81650 0.74447 -0.10300
H 	H 	0.71650 0.79030 0.73340 0.05300
H 	H 	0.72940 0.83160 0.75720 0.05700
C 	C 	0.71212 0.90807 0.64263 0.03800
C 	C 	0.75271 0.89555 0.64201 -0.09100
H 	H 	0.76780 0.90640 0.62490 0.06600
C 	C 	0.77125 0.86718 0.66649 -0.00300
H 	H 	0.79900 0.85860 0.66610 0.02400
C 	C 	0.74920 0.85131 0.69160 -0.07200
H 	H 	0.76190 0.83190 0.70830 0.04800
C 	C 	0.70861 0.86383 0.69222 0.00000
C 	C 	0.69007 0.89220 0.66773 -0.00200
C 	C 	0.64948 0.90472 0.66835 -0.07100
H 	H 	0.63680 0.92410 0.65160 0.04700
C 	C 	0.62743 0.88885 0.69346 -0.00300
H 	H 	0.59970 0.89740 0.69390 0.02500
C 	C 	0.64596 0.86047 0.71794 -0.09000
H 	H 	0.63090 0.84960 0.73510 0.06700
C 	C 	0.68655 0.84796 0.71732 0.03600
N 	N 	0.79087 0.10319 0.63630 -0.22300
C 	C 	0.76798 0.14040 0.62584 0.04400
C 	C 	0.78264 0.18246 0.63477 -0.09900
H 	H 	0.76700 0.20790 0.62760 0.05700
C 	C 	0.82018 0.18730 0.65416 0.01800
H 	H 	0.83020 0.21600 0.66030 0.02200
C 	C 	0.84306 0.15009 0.66463 -0.10000
H 	H 	0.86870 0.15340 0.67790 0.06500
C 	C 	0.82841 0.10803 0.65570 0.04200
H 	H 	0.84410 0.08260 0.66280 0.01000
N 	N 	0.72474 0.08982 0.59357 -0.19800
N 	N 	0.68533 0.08955 0.57497 -0.07900
C 	C 	0.66862 0.13282 0.57631 0.01800
H 	H 	0.64260 0.14210 0.56600 0.02100
C 	C 	0.69770 0.15982 0.59574 -0.08100
H 	H 	0.69450 0.19030 0.60070 0.05200
C 	C 	0.73238 0.13325 0.60641 0.02100
C 	C 	0.67220 0.05420 0.55525 -0.10000
H 	H 	0.64210 0.05610 0.55010 0.05700
H 	H 	0.67840 0.02670 0.56830 0.05300
N 	N 	0.58021 0.92540 0.33425 -0.23100
C 	C 	0.60383 0.88801 0.34272 0.04900
C 	C 	0.59206 0.84714 0.32883 -0.09500
H 	H 	0.60820 0.82160 0.33460 0.06100
C 	C 	0.55666 0.84366 0.30648 0.01800
H 	H 	0.54860 0.81570 0.29700 0.02000
C 	C 	0.53304 0.88105 0.29802 -0.09800
H 	H 	0.50880 0.87870 0.28270 0.05700
C 	C 	0.54481 0.92192 0.31190 0.03700
H 	H 	0.52870 0.94750 0.30610 0.00400
N 	N 	0.64797 0.93837 0.37576 -0.19500
N 	N 	0.68693 0.93728 0.39506 -0.07700
C 	C 	0.70176 0.89309 0.39493 0.02100
H 	H 	0.72720 0.88290 0.40590 0.02400
C 	C 	0.67196 0.86688 0.37555 -0.07300
H 	H 	0.67390 0.83600 0.37130 0.05400
C 	C 	0.63872 0.89487 0.36371 0.02300
C 	C 	0.70320 0.97180 0.41465 -0.10100
H 	H 	0.69650 0.99980 0.40250 0.05300
H 	H 	0.73340 0.96870 0.41750 0.05800
C 	C 	0.69102 0.05016 0.52190 0.03600
C 	C 	0.71717 0.08306 0.51273 -0.08800
H 	H 	0.72370 0.10760 0.52720 0.06900
C 	C 	0.73378 0.08001 0.48242 -0.00000
H 	H 	0.75170 0.10250 0.47610 0.02700
C 	C 	0.72424 0.04407 0.46129 -0.07000
H 	H 	0.73560 0.04200 0.44060 0.04800
C 	C 	0.69809 0.01117 0.47046 0.00000
C 	C 	0.68148 0.01422 0.50077 0.00200
C 	C 	0.65533 0.98132 0.50995 -0.07100
H 	H 	0.64400 0.98340 0.53070 0.05000
C 	C 	0.64578 0.94537 0.48882 -0.00100
H 	H 	0.62790 0.92290 0.49510 0.02500
C 	C 	0.66239 0.94233 0.45851 -0.09200
H 	H 	0.65590 0.91780 0.44410 0.06800
C 	C 	0.68854 0.97522 0.44933 0.03700
N 	N 	0.72867 0.03204 0.65540 -0.22600
C 	C 	0.74637 0.00629 0.68193 0.04300
C 	C 	0.72363 0.99428 0.70770 -0.09300
H 	H 	0.73570 0.97670 0.72580 0.05900
C 	C 	0.68319 0.00802 0.70695 0.01400
H 	H 	0.66760 0.99980 0.72460 0.02600
C 	C 	0.66549 0.03377 0.68043 -0.09500
H 	H 	0.63780 0.04320 0.67990 0.05600
C 	C 	0.68823 0.04578 0.65466 0.03300
H 	H 	0.67610 0.06340 0.63650 0.01100
N 	N 	0.80550 0.00751 0.65273 -0.19800
N 	N 	0.84762 0.99630 0.65884 -0.07800
C 	C 	0.85486 0.97830 0.69171 0.01900
H 	H 	0.88040 0.96800 0.70230 0.02200
C 	C 	0.81721 0.97840 0.70592 -0.07900
H 	H 	0.81310 0.96820 0.72770 0.05200
C 	C 	0.78670 0.99644 0.68182 0.02500
C 	C 	0.87350 0.00050 0.63480 -0.09700
H 	H 	0.90190 0.00260 0.64610 0.05700
H 	H 	0.86730 0.02860 0.62260 0.04800
N 	N 	0.05252 0.83696 0.49509 -0.22100
C 	C 	0.03733 0.85781 0.46533 0.04500
C 	C 	0.05892 0.85557 0.43749 -0.09600
H 	H 	0.04850 0.86980 0.41720 0.05800
C 	C 	0.09569 0.83249 0.43941 0.01400
H 	H 	0.11040 0.83100 0.42040 0.02100
C 	C 	0.11087 0.81164 0.46916 -0.09900
H 	H 	0.13600 0.79590 0.47050 0.05900
C 	C 	0.08929 0.81388 0.49700 0.04000
H 	H 	0.09970 0.79960 0.51730 0.00700
N 	N 	0.97764 0.86964 0.49245 -0.19700
N 	N 	0.93841 0.88920 0.48483 -0.07700
C 	C 	0.93634 0.90768 0.45210 0.02300
H 	H 	0.91360 0.92280 0.44060 0.02300
C 	C 	0.97430 0.89954 0.43948 -0.07600
H 	H 	0.98140 0.90830 0.41810 0.05200
C 	C 	0.99982 0.87603 0.46442 0.02500
C 	C 	0.90975 0.88990 0.50708 -0.09700
H 	H 	0.91210 0.86210 0.52030 0.04700
H 	H 	0.88220 0.89020 0.49420 0.05700
C 	C 	0.87181 0.96303 0.60924 0.03300
C 	C 	0.84643 0.92738 0.61422 -0.08900
H 	H 	0.83130 0.92700 0.63310 0.06600
C 	C 	0.84317 0.89226 0.59163 -0.00400
H 	H 	0.82580 0.86790 0.59500 0.02600
C 	C 	0.86530 0.89280 0.56406 -0.06800
H 	H 	0.86310 0.86880 0.54860 0.04600
C 	C 	0.89068 0.92846 0.55908 0.00300
C 	C 	0.89394 0.96358 0.58167 0.00200
C 	C 	0.91932 0.99924 0.57670 -0.07000
H 	H 	0.92150 0.02320 0.59210 0.04800
C 	C 	0.94145 0.99978 0.54913 -0.00100
H 	H 	0.95880 0.02420 0.54570 0.03000
C 	C 	0.93820 0.96467 0.52654 -0.08800
H 	H 	0.95330 0.96500 0.50770 0.06800
C 	C 	0.91281 0.92901 0.53152 0.03300
N 	N 	0.68853 0.67145 0.75035 -0.22700
C 	C 	0.68635 0.62723 0.74062 0.04700
C 	C 	0.71567 0.59731 0.75450 -0.08900
H 	H 	0.71420 0.56710 0.74780 0.06100
C 	C 	0.74716 0.61162 0.77810 0.01400
H 	H 	0.76720 0.59120 0.78760 0.03100
C 	C 	0.74934 0.65584 0.78783 -0.09000
H 	H 	0.77090 0.66560 0.80400 0.05800
C 	C 	0.72003 0.68576 0.77396 0.03700
H 	H 	0.72150 0.71600 0.78060 0.00500
N 	N 	0.63037 0.65022 0.70190 -0.19600
N 	N 	0.59849 0.63049 0.67999 -0.07800
C 	C 	0.60363 0.58380 0.68180 0.01800
H 	H 	0.58660 0.56240 0.66970 0.02100
C 	C 	0.63869 0.57468 0.70484 -0.07900
H 	H 	0.64920 0.54610 0.71090 0.05200
C 	C 	0.65522 0.61573 0.71726 0.02400
C 	C 	0.57010 0.65470 0.65927 -0.10200
H 	H 	0.56310 0.68170 0.67140 0.05200
H 	H 	0.54480 0.63690 0.65480 0.05800
N 	N 	0.44189 0.68920 0.42934 -0.22400
C 	C 	0.44221 0.73524 0.43042 0.04600
C 	C 	0.41358 0.75924 0.40955 -0.09700
H 	H 	0.41380 0.79070 0.41030 0.05900
C 	C 	0.38464 0.73721 0.38760 0.01600
H 	H 	0.36510 0.75360 0.37330 0.01700
C 	C 	0.38432 0.69117 0.38652 -0.09800
H 	H 	0.36450 0.67610 0.37150 0.05700
C 	C 	0.41294 0.66717 0.40740 0.04000
H 	H 	0.41270 0.63570 0.40670 0.00600
N 	N 	0.50100 0.72660 0.47090 -0.19700
N 	N 	0.52891 0.75426 0.49092 -0.07700
C 	C 	0.51706 0.79897 0.48446 0.02100
H 	H 	0.53040 0.82440 0.49440 0.02500
C 	C 	0.48183 0.79894 0.46044 -0.07400
H 	H 	0.46740 0.82440 0.45150 0.05200
C 	C 	0.47190 0.75421 0.45206 0.02300
C 	C 	0.55910 0.73890 0.51384 -0.09500
H 	H 	0.58140 0.76120 0.51640 0.05700
H 	H 	0.57050 0.71160 0.50480 0.04800
C 	C 	0.58420 0.66841 0.62570 0.03700
C 	C 	0.62246 0.65461 0.61819 -0.09000
H 	H 	0.63970 0.63780 0.63410 0.06600
C 	C 	0.63553 0.66543 0.58741 -0.00300
H 	H 	0.66170 0.65600 0.58230 0.02500
C 	C 	0.61034 0.69005 0.56415 -0.07000
H 	H 	0.61930 0.69740 0.54310 0.04700
C 	C 	0.57209 0.70385 0.57167 0.00400
C 	C 	0.55902 0.69303 0.60244 0.00000
C 	C 	0.52076 0.70683 0.60995 -0.06900
H 	H 	0.51180 0.69940 0.63100 0.04800
C 	C 	0.49558 0.73145 0.58669 -0.00200
H 	H 	0.46940 0.74090 0.59180 0.02900
C 	C 	0.50865 0.74227 0.55592 -0.08500
H 	H 	0.49140 0.75910 0.54000 0.06700
C 	C 	0.54690 0.72847 0.54840 0.03300
N 	N 	0.60488 0.75433 0.69108 -0.23000
C 	C 	0.62189 0.76998 0.66313 0.04900
C 	C 	0.59866 0.79602 0.63953 -0.09300
H 	H 	0.61030 0.80670 0.62040 0.06100
C 	C 	0.55841 0.80641 0.64388 0.01900
H 	H 	0.54250 0.82420 0.62780 0.02200
C 	C 	0.54140 0.79077 0.67183 -0.09800
H 	H 	0.51390 0.79790 0.67480 0.05900
C 	C 	0.56464 0.76473 0.69543 0.03900
H 	H 	0.55300 0.75400 0.71450 0.00500
N 	N 	0.68432 0.73572 0.68703 -0.19100
N 	N 	0.72541 0.73274 0.67949 -0.07700
C 	C 	0.72811 0.75528 0.64871 0.02000
H 	H 	0.75210 0.75850 0.63770 0.02300
C 	C 	0.68870 0.77218 0.63723 -0.07300
H 	H 	0.68170 0.78870 0.61720 0.05300
C 	C 	0.66164 0.76009 0.66091 0.02000
C 	C 	0.75510 0.70650 0.69674 -0.10000
H 	H 	0.75220 0.70840 0.72100 0.05500
H 	H 	0.78230 0.71870 0.69340 0.05700
N 	N 	0.95350 0.47656 0.65890 -0.22100
C 	C 	0.94634 0.45030 0.68615 0.04600
C 	C 	0.97592 0.42040 0.69953 -0.09800
H 	H 	0.97100 0.40250 0.71810 0.05900
C 	C 	0.01265 0.41670 0.68566 0.01700
H 	H 	0.03290 0.39620 0.69480 0.01900
C 	C 	0.01981 0.44290 0.65841 -0.09700
H 	H 	0.04490 0.44030 0.64890 0.05700
C 	C 	0.99023 0.47280 0.64503 0.03900
H 	H 	0.99510 0.49080 0.62640 0.01100
N 	N 	0.88111 0.48531 0.68194 -0.19600
N 	N 	0.84403 0.48027 0.69659 -0.07700
C 	C 	0.84989 0.44634 0.72121 0.01600
H 	H 	0.83010 0.43610 0.73490 0.02600
C 	C 	0.89060 0.43041 0.72179 -0.07600
H 	H 	0.90280 0.40760 0.73590 0.05200
C 	C 	0.90989 0.45450 0.69752 0.02000
C 	C 	0.81030 0.50640 0.68693 -0.10200
H 	H 	0.78590 0.49170 0.69420 0.05800
H 	H 	0.80640 0.50780 0.66210 0.05300
C 	C 	0.75379 0.65726 0.68630 0.03700
C 	C 	0.72097 0.64299 0.66397 -0.08900
H 	H 	0.70020 0.66330 0.65570 0.06600
C 	C 	0.71852 0.59894 0.65382 -0.00200
H 	H 	0.69610 0.58920 0.63860 0.02600
C 	C 	0.74888 0.56916 0.66599 -0.06900
H 	H 	0.74720 0.53910 0.65900 0.04800
C 	C 	0.78170 0.58343 0.68831 0.00200
C 	C 	0.78416 0.62749 0.69847 0.00200
C 	C 	0.81698 0.64176 0.72079 -0.07200
H 	H 	0.81870 0.67190 0.72770 0.04900
C 	C 	0.84734 0.61199 0.73296 0.00100
H 	H 	0.86980 0.62170 0.74820 0.02700
C 	C 	0.84489 0.56793 0.72280 -0.09100
H 	H 	0.86560 0.54760 0.73110 0.06800
C 	C 	0.81207 0.55366 0.70048 0.03700
N 	N 	0.61944 0.03783 0.39241 -0.22700
C 	C 	0.60336 0.03908 0.42302 0.04800
C 	C 	0.61374 0.07351 0.44542 -0.09400
H 	H 	0.60270 0.07440 0.46630 0.06000
C 	C 	0.64020 0.10668 0.43721 0.01900
H 	H 	0.64730 0.13020 0.45250 0.02100
C 	C 	0.65628 0.10542 0.40660 -0.09700
H 	H 	0.67440 0.12810 0.40100 0.05700
C 	C 	0.64590 0.07100 0.38420 0.03900
H 	H 	0.65690 0.07010 0.36330 0.00700
N 	N 	0.56870 0.97236 0.40501 -0.19500
N 	N 	0.53809 0.94455 0.41610 -0.07700
C 	C 	0.52765 0.96160 0.44704 0.01800
H 	H 	0.50800 0.94950 0.46010 0.02200
C 	C 	0.55181 0.99995 0.45507 -0.07800
H 	H 	0.55110 0.01800 0.47440 0.05200
C 	C 	0.57718 0.00660 0.42909 0.02200
C 	C 	0.52490 0.90610 0.40053 -0.09800
H 	H 	0.52510 0.90990 0.37600 0.05300
H 	H 	0.49610 0.90100 0.40470 0.05700
N 	N 	0.46627 0.59305 0.44928 -0.22500
C 	C 	0.48131 0.57800 0.42027 0.04700
C 	C 	0.46715 0.53831 0.40566 -0.09700
H 	H 	0.47740 0.52800 0.38580 0.05800
C 	C 	0.43796 0.51368 0.42006 0.01800
H 	H 	0.42830 0.48660 0.41010 0.01800
C 	C 	0.42293 0.52874 0.44907 -0.10000
H 	H 	0.40300 0.51190 0.45890 0.06000
C 	C 	0.43708 0.56842 0.46368 0.04100
H 	H 	0.42680 0.57870 0.48350 0.00400
N 	N 	0.52262 0.64301 0.42433 -0.19200
N 	N 	0.55246 0.66316 0.40628 -0.07600
C 	C 	0.55777 0.63588 0.37823 0.02100
H 	H 	0.57590 0.64140 0.36190 0.02400
C 	C 	0.53122 0.59887 0.37895 -0.07500
H 	H 	0.52850 0.57530 0.36310 0.05200
C 	C 	0.50950 0.60327 0.40744 0.02300
C 	C 	0.57140 0.70260 0.41535 -0.09700
H 	H 	0.59930 0.70220 0.40840 0.05800
H 	H 	0.57410 0.70520 0.44010 0.05000
C 	C 	0.54967 0.86481 0.41140 0.03700
C 	C 	0.58309 0.86980 0.43564 -0.09100
H 	H 	0.59090 0.89850 0.44370 0.06800
C 	C 	0.60506 0.83282 0.44800 -0.00300
H 	H 	0.62790 0.83620 0.46460 0.02500
C 	C 	0.59361 0.79084 0.43614 -0.07100
H 	H 	0.60860 0.76560 0.44460 0.04700
C 	C 	0.56019 0.78585 0.41190 0.00400
C 	C 	0.53822 0.82283 0.39953 -0.00000
C 	C 	0.50480 0.81784 0.37530 -0.07100
H 	H 	0.48980 0.84310 0.36680 0.04900
C 	C 	0.49335 0.77586 0.36343 -0.00300
H 	H 	0.47050 0.77250 0.34690 0.02800
C 	C 	0.51531 0.73888 0.37579 -0.08700
H 	H 	0.50750 0.71020 0.36770 0.06700
C 	C 	0.54874 0.74387 0.40003 0.03400
Co	Co	0.73402 0.45861 0.38424 1.12100
Co	Co	0.85561 0.78609 0.27624 1.12000
Co	Co	0.90127 0.51652 0.63886 1.12100
Co	Co	0.48690 0.65825 0.46497 1.12000
N 	N 	0.70039 0.45698 0.42669 -0.22900
C 	C 	0.70749 0.49292 0.44826 0.05100
C 	C 	0.68962 0.49430 0.47805 -0.09600
H 	H 	0.69450 0.51890 0.49280 0.06100
C 	C 	0.66463 0.45975 0.48628 0.02500
H 	H 	0.65240 0.46070 0.50660 0.01700
C 	C 	0.65753 0.42382 0.46471 -0.10400
H 	H 	0.64050 0.40020 0.47030 0.06600
C 	C 	0.67541 0.42243 0.43491 0.04500
H 	H 	0.67060 0.39790 0.42020 0.00300
N 	N 	0.75508 0.51793 0.41137 -0.19300
N 	N 	0.78351 0.55322 0.41058 -0.07600
C 	C 	0.78011 0.58073 0.43888 0.01800
H 	H 	0.79550 0.60680 0.44460 0.02300
C 	C 	0.74957 0.56243 0.45716 -0.07300
H 	H 	0.74100 0.57410 0.47720 0.05300
C 	C 	0.73410 0.52362 0.44016 0.01900
C 	C 	0.80740 0.56100 0.38500 -0.10300
H 	H 	0.83370 0.57400 0.39480 0.05800
H 	H 	0.81350 0.53230 0.37470 0.05800
N 	N 	0.90137 0.79967 0.24181 -0.21900
C 	C 	0.90144 0.76935 0.21571 0.04400
C 	C 	0.92797 0.77509 0.19140 -0.10100
H 	H 	0.92800 0.75440 0.17360 0.05900
C 	C 	0.95444 0.81110 0.19321 0.01700
H 	H 	0.97260 0.81510 0.17660 0.01500
C 	C 	0.95437 0.84145 0.21931 -0.09800
H 	H 	0.97250 0.86610 0.22050 0.05700
C 	C 	0.92784 0.83572 0.24362 0.03700
H 	H 	0.92780 0.85640 0.26150 0.01200
N 	N 	0.84675 0.73469 0.24032 -0.20000
N 	N 	0.82021 0.69798 0.23307 -0.07700
C 	C 	0.83110 0.67712 0.20359 0.01800
H 	H 	0.81840 0.65170 0.19310 0.02400
C 	C 	0.86439 0.70093 0.19262 -0.08100
H 	H 	0.87780 0.69420 0.17350 0.05300
C 	C 	0.87406 0.73652 0.21532 0.02000
C 	C 	0.79420 0.68350 0.25553 -0.10200
H 	H 	0.78350 0.70970 0.26660 0.05400
H 	H 	0.77060 0.66840 0.24280 0.05800
C 	C 	0.78788 0.59193 0.35737 0.03900
C 	C 	0.74729 0.60445 0.35799 -0.09000
H 	H 	0.73220 0.59360 0.37510 0.06700
C 	C 	0.72875 0.63282 0.33351 -0.00200
H 	H 	0.70100 0.64140 0.33390 0.02500
C 	C 	0.75080 0.64869 0.30840 -0.07100
H 	H 	0.73810 0.66810 0.29170 0.04900
C 	C 	0.79139 0.63617 0.30778 0.00100
C 	C 	0.80993 0.60780 0.33227 -0.00100
C 	C 	0.85052 0.59528 0.33165 -0.07000
H 	H 	0.86320 0.57590 0.34840 0.04800
C 	C 	0.87257 0.61115 0.30654 -0.00200
H 	H 	0.90030 0.60260 0.30610 0.02600
C 	C 	0.85404 0.63953 0.28206 -0.08900
H 	H 	0.86910 0.65040 0.26490 0.06800
C 	C 	0.81345 0.65204 0.28268 0.03700
N 	N 	0.70913 0.39681 0.36370 -0.22200
C 	C 	0.73202 0.35960 0.37416 0.04500
C 	C 	0.71736 0.31754 0.36523 -0.09800
H 	H 	0.73300 0.29210 0.37240 0.05800
C 	C 	0.67982 0.31270 0.34584 0.01900
H 	H 	0.66980 0.28400 0.33970 0.02300
C 	C 	0.65694 0.34991 0.33537 -0.09900
H 	H 	0.63130 0.34660 0.32210 0.06600
C 	C 	0.67159 0.39197 0.34430 0.04200
H 	H 	0.65590 0.41740 0.33720 0.01000
N 	N 	0.77526 0.41018 0.40643 -0.19800
N 	N 	0.81467 0.41045 0.42503 -0.07900
C 	C 	0.83138 0.36718 0.42369 0.01800
H 	H 	0.85740 0.35790 0.43400 0.02100
C 	C 	0.80230 0.34018 0.40426 -0.08100
H 	H 	0.80550 0.30970 0.39930 0.05200
C 	C 	0.76762 0.36675 0.39359 0.02100
C 	C 	0.82780 0.44580 0.44475 -0.10000
H 	H 	0.85790 0.44390 0.44990 0.05700
H 	H 	0.82160 0.47330 0.43170 0.05300
N 	N 	0.91979 0.57460 0.66575 -0.23100
C 	C 	0.89617 0.61199 0.65728 0.04900
C 	C 	0.90794 0.65286 0.67117 -0.09500
H 	H 	0.89180 0.67840 0.66540 0.06100
C 	C 	0.94334 0.65634 0.69352 0.01800
H 	H 	0.95140 0.68430 0.70300 0.02000
C 	C 	0.96696 0.61895 0.70198 -0.09800
H 	H 	0.99120 0.62130 0.71730 0.05700
C 	C 	0.95519 0.57808 0.68810 0.03700
H 	H 	0.97130 0.55250 0.69390 0.00400
N 	N 	0.85203 0.56163 0.62424 -0.19500
N 	N 	0.81307 0.56272 0.60494 -0.07700
C 	C 	0.79824 0.60691 0.60507 0.02100
H 	H 	0.77280 0.61710 0.59410 0.02400
C 	C 	0.82804 0.63312 0.62445 -0.07300
H 	H 	0.82610 0.66400 0.62870 0.05400
C 	C 	0.86128 0.60513 0.63629 0.02300
C 	C 	0.79680 0.52820 0.58535 -0.10100
H 	H 	0.80350 0.50020 0.59750 0.05300
H 	H 	0.76660 0.53130 0.58250 0.05800
C 	C 	0.80898 0.44984 0.47810 0.03600
C 	C 	0.78283 0.41694 0.48727 -0.08800
H 	H 	0.77630 0.39240 0.47280 0.06900
C 	C 	0.76622 0.41999 0.51758 -0.00000
H 	H 	0.74830 0.39750 0.52390 0.02700
C 	C 	0.77576 0.45593 0.53871 -0.07000
H 	H 	0.76440 0.45800 0.55940 0.04800
C 	C 	0.80191 0.48883 0.52954 0.00000
C 	C 	0.81852 0.48578 0.49923 0.00200
C 	C 	0.84467 0.51868 0.49005 -0.07100
H 	H 	0.85600 0.51660 0.46930 0.05000
C 	C 	0.85422 0.55463 0.51118 -0.00100
H 	H 	0.87210 0.57710 0.50490 0.02500
C 	C 	0.83761 0.55767 0.54149 -0.09200
H 	H 	0.84410 0.58220 0.55590 0.06800
C 	C 	0.81146 0.52478 0.55067 0.03700
N 	N 	0.77133 0.46796 0.34460 -0.22600
C 	C 	0.75363 0.49371 0.31807 0.04400
C 	C 	0.77637 0.50572 0.29230 -0.09300
H 	H 	0.76430 0.52330 0.27420 0.05900
C 	C 	0.81681 0.49198 0.29305 0.01400
H 	H 	0.83240 0.50020 0.27540 0.02600
C 	C 	0.83451 0.46623 0.31957 -0.09500
H 	H 	0.86220 0.45680 0.32010 0.05700
C 	C 	0.81177 0.45422 0.34534 0.03300
H 	H 	0.82390 0.43660 0.36350 0.01100
N 	N 	0.69450 0.49249 0.34727 -0.19800
N 	N 	0.65238 0.50370 0.34116 -0.07800
C 	C 	0.64514 0.52170 0.30829 0.01900
H 	H 	0.61960 0.53200 0.29770 0.02200
C 	C 	0.68279 0.52160 0.29408 -0.07900
H 	H 	0.68690 0.53180 0.27230 0.05200
C 	C 	0.71330 0.50356 0.31818 0.02500
C 	C 	0.62650 0.49950 0.36520 -0.09700
H 	H 	0.59810 0.49740 0.35390 0.05700
H 	H 	0.63270 0.47140 0.37740 0.04800
N 	N 	0.44748 0.66304 0.50491 -0.22100
C 	C 	0.46267 0.64219 0.53467 0.04500
C 	C 	0.44108 0.64443 0.56251 -0.09600
H 	H 	0.45150 0.63020 0.58280 0.05800
C 	C 	0.40431 0.66751 0.56059 0.01400
H 	H 	0.38960 0.66900 0.57960 0.02100
C 	C 	0.38913 0.68836 0.53084 -0.09900
H 	H 	0.36400 0.70410 0.52950 0.05900
C 	C 	0.41071 0.68612 0.50300 0.04000
H 	H 	0.40030 0.70040 0.48270 0.00700
N 	N 	0.52236 0.63036 0.50755 -0.19700
N 	N 	0.56159 0.61080 0.51517 -0.07700
C 	C 	0.56366 0.59232 0.54790 0.02300
H 	H 	0.58640 0.57720 0.55940 0.02300
C 	C 	0.52570 0.60046 0.56052 -0.07600
H 	H 	0.51860 0.59170 0.58190 0.05200
C 	C 	0.50018 0.62397 0.53558 0.02500
C 	C 	0.59025 0.61010 0.49292 -0.09700
H 	H 	0.58790 0.63790 0.47970 0.04700
H 	H 	0.61780 0.60980 0.50580 0.05700
C 	C 	0.62819 0.53697 0.39076 0.03300
C 	C 	0.65357 0.57262 0.38578 -0.08900
H 	H 	0.66870 0.57300 0.36690 0.06600
C 	C 	0.65683 0.60774 0.40837 -0.00400
H 	H 	0.67420 0.63210 0.40500 0.02600
C 	C 	0.63470 0.60720 0.43594 -0.06800
H 	H 	0.63690 0.63120 0.45140 0.04600
C 	C 	0.60932 0.57154 0.44092 0.00300
C 	C 	0.60606 0.53642 0.41833 0.00200
C 	C 	0.58068 0.50076 0.42330 -0.07000
H 	H 	0.57850 0.47680 0.40790 0.04800
C 	C 	0.55855 0.50022 0.45087 -0.00100
H 	H 	0.54120 0.47580 0.45430 0.03000
C 	C 	0.56180 0.53533 0.47346 -0.08800
H 	H 	0.54670 0.53500 0.49230 0.06800
C 	C 	0.58719 0.57099 0.46848 0.03300
N 	N 	0.81147 0.82855 0.24965 -0.22700
C 	C 	0.81365 0.87277 0.25938 0.04700
C 	C 	0.78433 0.90269 0.24550 -0.08900
H 	H 	0.78580 0.93290 0.25220 0.06100
C 	C 	0.75284 0.88838 0.22190 0.01400
H 	H 	0.73280 0.90880 0.21240 0.03100
C 	C 	0.75066 0.84416 0.21217 -0.09000
H 	H 	0.72910 0.83440 0.19600 0.05800
C 	C 	0.77997 0.81424 0.22604 0.03700
H 	H 	0.77850 0.78400 0.21940 0.00500
N 	N 	0.86963 0.84978 0.29810 -0.19600
N 	N 	0.90151 0.86951 0.32001 -0.07800
C 	C 	0.89637 0.91620 0.31820 0.01800
H 	H 	0.91340 0.93760 0.33030 0.02100
C 	C 	0.86131 0.92532 0.29516 -0.07900
H 	H 	0.85080 0.95390 0.28910 0.05200
C 	C 	0.84478 0.88427 0.28274 0.02400
C 	C 	0.92990 0.84530 0.34073 -0.10200
H 	H 	0.93690 0.81830 0.32860 0.05200
H 	H 	0.95520 0.86310 0.34520 0.05800
N 	N 	0.05811 0.81080 0.57066 -0.22400
C 	C 	0.05779 0.76476 0.56958 0.04600
C 	C 	0.08642 0.74076 0.59045 -0.09700
H 	H 	0.08620 0.70930 0.58970 0.05900
C 	C 	0.11536 0.76279 0.61240 0.01600
H 	H 	0.13490 0.74640 0.62670 0.01700
C 	C 	0.11568 0.80883 0.61348 -0.09800
H 	H 	0.13550 0.82390 0.62850 0.05700
C 	C 	0.08706 0.83283 0.59260 0.04000
H 	H 	0.08730 0.86430 0.59330 0.00600
N 	N 	0.99900 0.77340 0.52910 -0.19700
N 	N 	0.97109 0.74574 0.50908 -0.07700
C 	C 	0.98294 0.70103 0.51554 0.02100
H 	H 	0.96960 0.67560 0.50560 0.02500
C 	C 	0.01817 0.70106 0.53956 -0.07400
H 	H 	0.03260 0.67560 0.54850 0.05200
C 	C 	0.02810 0.74579 0.54794 0.02300
C 	C 	0.94090 0.76110 0.48616 -0.09500
H 	H 	0.91860 0.73880 0.48360 0.05700
H 	H 	0.92950 0.78840 0.49520 0.04800
C 	C 	0.91580 0.83159 0.37430 0.03700
C 	C 	0.87754 0.84539 0.38181 -0.09000
H 	H 	0.86030 0.86220 0.36590 0.06600
C 	C 	0.86447 0.83457 0.41259 -0.00300
H 	H 	0.83830 0.84400 0.41770 0.02500
C 	C 	0.88966 0.80995 0.43585 -0.07000
H 	H 	0.88070 0.80260 0.45690 0.04700
C 	C 	0.92791 0.79615 0.42833 0.00400
C 	C 	0.94098 0.80697 0.39756 0.00000
C 	C 	0.97924 0.79317 0.39005 -0.06900
H 	H 	0.98820 0.80060 0.36900 0.04800
C 	C 	0.00442 0.76855 0.41331 -0.00200
H 	H 	0.03060 0.75910 0.40820 0.02900
C 	C 	0.99135 0.75773 0.44408 -0.08500
H 	H 	0.00860 0.74090 0.46000 0.06700
C 	C 	0.95310 0.77153 0.45160 0.03300
N 	N 	0.89512 0.74567 0.30892 -0.23000
C 	C 	0.87811 0.73002 0.33687 0.04900
C 	C 	0.90134 0.70398 0.36047 -0.09300
H 	H 	0.88970 0.69330 0.37960 0.06100
C 	C 	0.94159 0.69359 0.35612 0.01900
H 	H 	0.95750 0.67580 0.37220 0.02200
C 	C 	0.95860 0.70923 0.32817 -0.09800
H 	H 	0.98610 0.70210 0.32520 0.05900
C 	C 	0.93536 0.73527 0.30457 0.03900
H 	H 	0.94700 0.74600 0.28550 0.00500
N 	N 	0.81568 0.76428 0.31297 -0.19100
N 	N 	0.77459 0.76726 0.32051 -0.07700
C 	C 	0.77189 0.74472 0.35129 0.02000
H 	H 	0.74790 0.74150 0.36230 0.02300
C 	C 	0.81130 0.72782 0.36277 -0.07300
H 	H 	0.81830 0.71130 0.38280 0.05300
C 	C 	0.83836 0.73991 0.33909 0.02000
C 	C 	0.74490 0.79350 0.30326 -0.10000
H 	H 	0.74780 0.79160 0.27900 0.05500
H 	H 	0.71770 0.78130 0.30660 0.05700
N 	N 	0.54650 0.02344 0.34110 -0.22000
C 	C 	0.55366 0.04970 0.31385 0.04600
C 	C 	0.52408 0.07960 0.30047 -0.09800
H 	H 	0.52900 0.09750 0.28190 0.05900
C 	C 	0.48735 0.08330 0.31434 0.01700
H 	H 	0.46710 0.10380 0.30520 0.01900
C 	C 	0.48019 0.05710 0.34159 -0.09700
H 	H 	0.45510 0.05970 0.35110 0.05700
C 	C 	0.50977 0.02720 0.35497 0.03900
H 	H 	0.50490 0.00920 0.37360 0.01100
N 	N 	0.61889 0.01469 0.31806 -0.19600
N 	N 	0.65597 0.01973 0.30341 -0.07700
C 	C 	0.65011 0.05366 0.27879 0.01600
H 	H 	0.66990 0.06390 0.26510 0.02600
C 	C 	0.60940 0.06959 0.27821 -0.07600
H 	H 	0.59720 0.09240 0.26410 0.05200
C 	C 	0.59011 0.04550 0.30248 0.02000
C 	C 	0.68970 0.99360 0.31307 -0.10300
H 	H 	0.71410 0.00830 0.30580 0.05800
H 	H 	0.69360 0.99220 0.33790 0.05300
C 	C 	0.74621 0.84274 0.31370 0.03700
C 	C 	0.77903 0.85701 0.33603 -0.08900
H 	H 	0.79980 0.83670 0.34430 0.06600
C 	C 	0.78148 0.90106 0.34618 -0.00200
H 	H 	0.80390 0.91080 0.36140 0.02600
C 	C 	0.75112 0.93084 0.33401 -0.06900
H 	H 	0.75280 0.96090 0.34100 0.04800
C 	C 	0.71830 0.91657 0.31169 0.00200
C 	C 	0.71584 0.87251 0.30153 0.00200
C 	C 	0.68302 0.85824 0.27921 -0.07200
H 	H 	0.68130 0.82810 0.27230 0.04900
C 	C 	0.65266 0.88801 0.26704 0.00100
H 	H 	0.63020 0.87830 0.25180 0.02700
C 	C 	0.65511 0.93207 0.27720 -0.09100
H 	H 	0.63440 0.95240 0.26890 0.06800
C 	C 	0.68793 0.94634 0.29952 0.03700
N 	N 	0.88056 0.46217 0.60759 -0.22700
C 	C 	0.89664 0.46092 0.57698 0.04800
C 	C 	0.88626 0.42649 0.55458 -0.09400
H 	H 	0.89730 0.42560 0.53370 0.06000
C 	C 	0.85980 0.39332 0.56279 0.01900
H 	H 	0.85270 0.36980 0.54750 0.02100
C 	C 	0.84372 0.39458 0.59340 -0.09700
H 	H 	0.82560 0.37190 0.59900 0.05700
C 	C 	0.85410 0.42900 0.61580 0.03900
H 	H 	0.84310 0.42990 0.63670 0.00700
N 	N 	0.93130 0.52764 0.59499 -0.19500
N 	N 	0.96191 0.55545 0.58390 -0.07700
C 	C 	0.97235 0.53840 0.55296 0.01800
H 	H 	0.99200 0.55050 0.53990 0.02200
C 	C 	0.94819 0.50005 0.54493 -0.07800
H 	H 	0.94890 0.48200 0.52560 0.05200
C 	C 	0.92282 0.49340 0.57091 0.02200
C 	C 	0.97510 0.59390 0.59947 -0.09800
H 	H 	0.97490 0.59010 0.62400 0.05300
H 	H 	0.00390 0.59900 0.59530 0.05700
N 	N 	0.03373 0.90695 0.55072 -0.22500
C 	C 	0.01869 0.92200 0.57973 0.04700
C 	C 	0.03285 0.96169 0.59434 -0.09700
H 	H 	0.02260 0.97200 0.61420 0.05800
C 	C 	0.06204 0.98632 0.57994 0.01800
H 	H 	0.07170 0.01340 0.58990 0.01800
C 	C 	0.07707 0.97126 0.55093 -0.10000
H 	H 	0.09700 0.98810 0.54110 0.06000
C 	C 	0.06292 0.93158 0.53632 0.04100
H 	H 	0.07320 0.92130 0.51650 0.00400
N 	N 	0.97738 0.85699 0.57567 -0.19200
N 	N 	0.94754 0.83684 0.59372 -0.07600
C 	C 	0.94223 0.86412 0.62177 0.02100
H 	H 	0.92410 0.85860 0.63810 0.02400
C 	C 	0.96878 0.90113 0.62105 -0.07500
H 	H 	0.97150 0.92470 0.63690 0.05200
C 	C 	0.99050 0.89673 0.59256 0.02300
C 	C 	0.92860 0.79740 0.58465 -0.09700
H 	H 	0.90070 0.79780 0.59160 0.05800
H 	H 	0.92590 0.79480 0.55990 0.05000
C 	C 	0.95033 0.63519 0.58860 0.03700
C 	C 	0.91691 0.63020 0.56436 -0.09100
H 	H 	0.90910 0.60150 0.55630 0.06800
C 	C 	0.89494 0.66718 0.55200 -0.00300
H 	H 	0.87210 0.66380 0.53540 0.02500
C 	C 	0.90639 0.70916 0.56386 -0.07100
H 	H 	0.89140 0.73440 0.55540 0.04700
C 	C 	0.93981 0.71415 0.58810 0.00400
C 	C 	0.96178 0.67717 0.60047 -0.00000
C 	C 	0.99520 0.68216 0.62470 -0.07100
H 	H 	0.01020 0.65690 0.63320 0.04900
C 	C 	0.00665 0.72414 0.63657 -0.00300
H 	H 	0.02950 0.72750 0.65310 0.02800
C 	C 	0.98469 0.76112 0.62421 -0.08700
H 	H 	0.99250 0.78980 0.63230 0.06700
C 	C 	0.95126 0.75613 0.59997 0.03400
Co	Co	0.26598 0.54139 0.61576 1.12100
Co	Co	0.14439 0.21391 0.72376 1.12000
Co	Co	0.09873 0.48348 0.36114 1.12100
Co	Co	0.51310 0.34175 0.53503 1.12000
N 	N 	0.29961 0.54302 0.57331 -0.22900
C 	C 	0.29251 0.50708 0.55174 0.05100
C 	C 	0.31038 0.50570 0.52195 -0.09600
H 	H 	0.30550 0.48110 0.50720 0.06100
C 	C 	0.33537 0.54025 0.51372 0.02500
H 	H 	0.34760 0.53930 0.49340 0.01700
C 	C 	0.34247 0.57618 0.53529 -0.10400
H 	H 	0.35950 0.59980 0.52970 0.06600
C 	C 	0.32459 0.57757 0.56509 0.04500
H 	H 	0.32940 0.60210 0.57980 0.00300
N 	N 	0.24492 0.48207 0.58863 -0.19300
N 	N 	0.21649 0.44678 0.58942 -0.07600
C 	C 	0.21989 0.41927 0.56112 0.01800
H 	H 	0.20450 0.39320 0.55540 0.02300
C 	C 	0.25043 0.43757 0.54284 -0.07300
H 	H 	0.25900 0.42590 0.52280 0.05300
C 	C 	0.26590 0.47638 0.55984 0.01900
C 	C 	0.19260 0.43900 0.61500 -0.10300
H 	H 	0.16630 0.42600 0.60520 0.05800
H 	H 	0.18650 0.46770 0.62530 0.05800
N 	N 	0.09863 0.20033 0.75819 -0.21900
C 	C 	0.09856 0.23065 0.78429 0.04400
C 	C 	0.07203 0.22491 0.80860 -0.10100
H 	H 	0.07200 0.24560 0.82640 0.05900
C 	C 	0.04556 0.18890 0.80679 0.01700
H 	H 	0.02740 0.18490 0.82340 0.01500
C 	C 	0.04563 0.15855 0.78069 -0.09800
H 	H 	0.02750 0.13390 0.77950 0.05700
C 	C 	0.07216 0.16428 0.75638 0.03700
H 	H 	0.07220 0.14360 0.73850 0.01200
N 	N 	0.15325 0.26531 0.75968 -0.20000
N 	N 	0.17979 0.30202 0.76693 -0.07700
C 	C 	0.16890 0.32288 0.79641 0.01800
H 	H 	0.18160 0.34830 0.80690 0.02400
C 	C 	0.13561 0.29907 0.80738 -0.08100
H 	H 	0.12220 0.30580 0.82650 0.05300
C 	C 	0.12594 0.26348 0.78468 0.02000
C 	C 	0.20580 0.31650 0.74447 -0.10200
H 	H 	0.21650 0.29030 0.73340 0.05400
H 	H 	0.22940 0.33160 0.75720 0.05800
C 	C 	0.21212 0.40807 0.64263 0.03900
C 	C 	0.25271 0.39555 0.64201 -0.09000
H 	H 	0.26780 0.40640 0.62490 0.06700
C 	C 	0.27125 0.36718 0.66649 -0.00200
H 	H 	0.29900 0.35860 0.66610 0.02500
C 	C 	0.24920 0.35131 0.69160 -0.07100
H 	H 	0.26190 0.33190 0.70830 0.04900
C 	C 	0.20861 0.36383 0.69222 0.00100
C 	C 	0.19007 0.39220 0.66773 -0.00100
C 	C 	0.14948 0.40472 0.66835 -0.07000
H 	H 	0.13680 0.42410 0.65160 0.04800
C 	C 	0.12743 0.38885 0.69346 -0.00200
H 	H 	0.09970 0.39740 0.69390 0.02600
C 	C 	0.14596 0.36047 0.71794 -0.08900
H 	H 	0.13090 0.34960 0.73510 0.06800
C 	C 	0.18655 0.34796 0.71732 0.03700
N 	N 	0.29087 0.60319 0.63630 -0.22200
C 	C 	0.26798 0.64040 0.62584 0.04500
C 	C 	0.28264 0.68246 0.63477 -0.09800
H 	H 	0.26700 0.70790 0.62760 0.05800
C 	C 	0.32018 0.68730 0.65416 0.01900
H 	H 	0.33020 0.71600 0.66030 0.02300
C 	C 	0.34306 0.65009 0.66463 -0.09900
H 	H 	0.36870 0.65340 0.67790 0.06600
C 	C 	0.32841 0.60803 0.65570 0.04200
H 	H 	0.34410 0.58260 0.66280 0.01000
N 	N 	0.22474 0.58982 0.59357 -0.19800
N 	N 	0.18533 0.58955 0.57497 -0.07900
C 	C 	0.16862 0.63282 0.57631 0.01800
H 	H 	0.14260 0.64210 0.56600 0.02100
C 	C 	0.19770 0.65982 0.59574 -0.08100
H 	H 	0.19450 0.69030 0.60070 0.05200
C 	C 	0.23238 0.63325 0.60641 0.02100
C 	C 	0.17220 0.55420 0.55525 -0.10000
H 	H 	0.14210 0.55610 0.55010 0.05700
H 	H 	0.17840 0.52670 0.56830 0.05300
N 	N 	0.08021 0.42540 0.33425 -0.23100
C 	C 	0.10383 0.38801 0.34272 0.04900
C 	C 	0.09206 0.34714 0.32883 -0.09500
H 	H 	0.10820 0.32160 0.33460 0.06100
C 	C 	0.05666 0.34366 0.30648 0.01800
H 	H 	0.04860 0.31570 0.29700 0.02000
C 	C 	0.03304 0.38105 0.29802 -0.09800
H 	H 	0.00880 0.37870 0.28270 0.05700
C 	C 	0.04481 0.42192 0.31190 0.03700
H 	H 	0.02870 0.44750 0.30610 0.00400
N 	N 	0.14797 0.43837 0.37576 -0.19500
N 	N 	0.18693 0.43728 0.39506 -0.07700
C 	C 	0.20176 0.39309 0.39493 0.02100
H 	H 	0.22720 0.38290 0.40590 0.02400
C 	C 	0.17196 0.36688 0.37555 -0.07300
H 	H 	0.17390 0.33600 0.37130 0.05400
C 	C 	0.13872 0.39487 0.36371 0.02300
C 	C 	0.20320 0.47180 0.41465 -0.10100
H 	H 	0.19650 0.49980 0.40250 0.05300
H 	H 	0.23340 0.46870 0.41750 0.05800
C 	C 	0.19102 0.55016 0.52190 0.03600
C 	C 	0.21717 0.58306 0.51273 -0.08800
H 	H 	0.22370 0.60760 0.52720 0.06900
C 	C 	0.23378 0.58001 0.48242 -0.00000
H 	H 	0.25170 0.60250 0.47610 0.02700
C 	C 	0.22424 0.54407 0.46129 -0.07000
H 	H 	0.23560 0.54200 0.44060 0.04800
C 	C 	0.19809 0.51117 0.47046 0.00000
C 	C 	0.18148 0.51422 0.50077 0.00200
C 	C 	0.15533 0.48132 0.50995 -0.07100
H 	H 	0.14400 0.48340 0.53070 0.05000
C 	C 	0.14578 0.44537 0.48882 -0.00100
H 	H 	0.12790 0.42290 0.49510 0.02500
C 	C 	0.16239 0.44233 0.45851 -0.09200
H 	H 	0.15590 0.41780 0.44410 0.06800
C 	C 	0.18854 0.47522 0.44933 0.03700
N 	N 	0.22867 0.53204 0.65540 -0.22600
C 	C 	0.24637 0.50629 0.68193 0.04400
C 	C 	0.22363 0.49428 0.70770 -0.09300
H 	H 	0.23570 0.47670 0.72580 0.05900
C 	C 	0.18319 0.50802 0.70695 0.01400
H 	H 	0.16760 0.49980 0.72460 0.02600
C 	C 	0.16549 0.53377 0.68043 -0.09500
H 	H 	0.13780 0.54320 0.67990 0.05700
C 	C 	0.18823 0.54578 0.65466 0.03300
H 	H 	0.17610 0.56340 0.63650 0.01100
N 	N 	0.30550 0.50751 0.65273 -0.19800
N 	N 	0.34762 0.49630 0.65884 -0.07800
C 	C 	0.35486 0.47830 0.69171 0.01900
H 	H 	0.38040 0.46800 0.70230 0.02200
C 	C 	0.31721 0.47840 0.70592 -0.07900
H 	H 	0.31310 0.46820 0.72770 0.05200
C 	C 	0.28670 0.49644 0.68182 0.02500
C 	C 	0.37350 0.50050 0.63480 -0.09700
H 	H 	0.40190 0.50260 0.64610 0.05700
H 	H 	0.36730 0.52860 0.62260 0.04800
N 	N 	0.55252 0.33696 0.49509 -0.22100
C 	C 	0.53733 0.35781 0.46533 0.04500
C 	C 	0.55892 0.35557 0.43749 -0.09600
H 	H 	0.54850 0.36980 0.41720 0.05800
C 	C 	0.59569 0.33249 0.43941 0.01400
H 	H 	0.61040 0.33100 0.42040 0.02100
C 	C 	0.61087 0.31164 0.46916 -0.09900
H 	H 	0.63600 0.29590 0.47050 0.05900
C 	C 	0.58929 0.31388 0.49700 0.04000
H 	H 	0.59970 0.29960 0.51730 0.00700
N 	N 	0.47764 0.36964 0.49245 -0.19700
N 	N 	0.43841 0.38920 0.48483 -0.07700
C 	C 	0.43634 0.40768 0.45210 0.02300
H 	H 	0.41360 0.42280 0.44060 0.02300
C 	C 	0.47430 0.39954 0.43948 -0.07600
H 	H 	0.48140 0.40830 0.41810 0.05200
C 	C 	0.49982 0.37603 0.46442 0.02500
C 	C 	0.40975 0.38990 0.50708 -0.09700
H 	H 	0.41210 0.36210 0.52030 0.04700
H 	H 	0.38220 0.39020 0.49420 0.05700
C 	C 	0.37181 0.46303 0.60924 0.03300
C 	C 	0.34643 0.42738 0.61422 -0.08900
H 	H 	0.33130 0.42700 0.63310 0.06600
C 	C 	0.34317 0.39226 0.59163 -0.00400
H 	H 	0.32580 0.36790 0.59500 0.02600
C 	C 	0.36530 0.39280 0.56406 -0.06800
H 	H 	0.36310 0.36880 0.54860 0.04600
C 	C 	0.39068 0.42846 0.55908 0.00300
C 	C 	0.39394 0.46358 0.58167 0.00200
C 	C 	0.41932 0.49924 0.57670 -0.07000
H 	H 	0.42150 0.52320 0.59210 0.04800
C 	C 	0.44145 0.49978 0.54913 -0.00100
H 	H 	0.45880 0.52420 0.54570 0.03000
C 	C 	0.43820 0.46467 0.52654 -0.08800
H 	H 	0.45330 0.46500 0.50770 0.06800
C 	C 	0.41281 0.42901 0.53152 0.03300
N 	N 	0.18853 0.17145 0.75035 -0.22700
C 	C 	0.18635 0.12723 0.74062 0.04700
C 	C 	0.21567 0.09731 0.75450 -0.08900
H 	H 	0.21420 0.06710 0.74780 0.06100
C 	C 	0.24716 0.11162 0.77810 0.01400
H 	H 	0.26720 0.09120 0.78760 0.03100
C 	C 	0.24934 0.15584 0.78783 -0.09000
H 	H 	0.27090 0.16560 0.80400 0.05800
C 	C 	0.22003 0.18576 0.77396 0.03700
H 	H 	0.22150 0.21600 0.78060 0.00500
N 	N 	0.13037 0.15022 0.70190 -0.19600
N 	N 	0.09849 0.13049 0.67999 -0.07800
C 	C 	0.10363 0.08380 0.68180 0.01800
H 	H 	0.08660 0.06240 0.66970 0.02100
C 	C 	0.13869 0.07468 0.70484 -0.07900
H 	H 	0.14920 0.04610 0.71090 0.05200
C 	C 	0.15522 0.11573 0.71726 0.02400
C 	C 	0.07010 0.15470 0.65927 -0.10200
H 	H 	0.06310 0.18170 0.67140 0.05200
H 	H 	0.04480 0.13690 0.65480 0.05800
N 	N 	0.94189 0.18920 0.42934 -0.22400
C 	C 	0.94221 0.23524 0.43042 0.04600
C 	C 	0.91358 0.25924 0.40955 -0.09700
H 	H 	0.91380 0.29070 0.41030 0.05900
C 	C 	0.88464 0.23721 0.38760 0.01600
H 	H 	0.86510 0.25360 0.37330 0.01700
C 	C 	0.88432 0.19117 0.38652 -0.09800
H 	H 	0.86450 0.17610 0.37150 0.05700
C 	C 	0.91294 0.16717 0.40740 0.04000
H 	H 	0.91270 0.13570 0.40670 0.00600
N 	N 	0.00100 0.22660 0.47090 -0.19700
N 	N 	0.02891 0.25426 0.49092 -0.07700
C 	C 	0.01706 0.29897 0.48446 0.02100
H 	H 	0.03040 0.32440 0.49440 0.02500
C 	C 	0.98183 0.29894 0.46044 -0.07400
H 	H 	0.96740 0.32440 0.45150 0.05200
C 	C 	0.97190 0.25421 0.45206 0.02300
C 	C 	0.05910 0.23890 0.51384 -0.09500
H 	H 	0.08140 0.26120 0.51640 0.05700
H 	H 	0.07050 0.21160 0.50480 0.04800
C 	C 	0.08420 0.16841 0.62570 0.03700
C 	C 	0.12246 0.15461 0.61819 -0.09000
H 	H 	0.13970 0.13780 0.63410 0.06600
C 	C 	0.13553 0.16543 0.58741 -0.00300
H 	H 	0.16170 0.15600 0.58230 0.02500
C 	C 	0.11034 0.19005 0.56415 -0.07000
H 	H 	0.11930 0.19740 0.54310 0.04700
C 	C 	0.07209 0.20385 0.57167 0.00400
C 	C 	0.05902 0.19303 0.60244 0.00000
C 	C 	0.02076 0.20683 0.60995 -0.06900
H 	H 	0.01180 0.19940 0.63100 0.04800
C 	C 	0.99558 0.23145 0.58669 -0.00200
H 	H 	0.96940 0.24090 0.59180 0.02900
C 	C 	0.00865 0.24227 0.55592 -0.08500
H 	H 	0.99140 0.25910 0.54000 0.06700
C 	C 	0.04690 0.22847 0.54840 0.03300
N 	N 	0.10488 0.25433 0.69108 -0.23000
C 	C 	0.12189 0.26998 0.66313 0.04900
C 	C 	0.09866 0.29602 0.63953 -0.09300
H 	H 	0.11030 0.30670 0.62040 0.06100
C 	C 	0.05841 0.30641 0.64388 0.01900
H 	H 	0.04250 0.32420 0.62780 0.02200
C 	C 	0.04140 0.29077 0.67183 -0.09800
H 	H 	0.01390 0.29790 0.67480 0.05900
C 	C 	0.06464 0.26473 0.69543 0.03900
H 	H 	0.05300 0.25400 0.71450 0.00500
N 	N 	0.18432 0.23572 0.68703 -0.19100
N 	N 	0.22541 0.23274 0.67949 -0.07700
C 	C 	0.22811 0.25528 0.64871 0.02000
H 	H 	0.25210 0.25850 0.63770 0.02300
C 	C 	0.18870 0.27218 0.63723 -0.07300
H 	H 	0.18170 0.28870 0.61720 0.05300
C 	C 	0.16164 0.26009 0.66091 0.02000
C 	C 	0.25510 0.20650 0.69674 -0.10000
H 	H 	0.25220 0.20840 0.72100 0.05500
H 	H 	0.28230 0.21870 0.69340 0.05700
N 	N 	0.45350 0.97656 0.65890 -0.22000
C 	C 	0.44634 0.95030 0.68615 0.04600
C 	C 	0.47592 0.92040 0.69953 -0.09800
H 	H 	0.47100 0.90250 0.71810 0.05900
C 	C 	0.51265 0.91670 0.68566 0.01700
H 	H 	0.53290 0.89620 0.69480 0.01900
C 	C 	0.51981 0.94290 0.65841 -0.09700
H 	H 	0.54490 0.94030 0.64890 0.05700
C 	C 	0.49023 0.97280 0.64503 0.03900
H 	H 	0.49510 0.99080 0.62640 0.01100
N 	N 	0.38111 0.98531 0.68194 -0.19600
N 	N 	0.34403 0.98027 0.69659 -0.07700
C 	C 	0.34989 0.94634 0.72121 0.01600
H 	H 	0.33010 0.93610 0.73490 0.02600
C 	C 	0.39060 0.93041 0.72179 -0.07600
H 	H 	0.40280 0.90760 0.73590 0.05200
C 	C 	0.40989 0.95450 0.69752 0.02000
C 	C 	0.31030 0.00640 0.68693 -0.10300
H 	H 	0.28590 0.99170 0.69420 0.05800
H 	H 	0.30640 0.00780 0.66210 0.05300
C 	C 	0.25379 0.15726 0.68630 0.03700
C 	C 	0.22097 0.14299 0.66397 -0.08900
H 	H 	0.20020 0.16330 0.65570 0.06600
C 	C 	0.21852 0.09894 0.65382 -0.00200
H 	H 	0.19610 0.08920 0.63860 0.02600
C 	C 	0.24888 0.06916 0.66599 -0.06900
H 	H 	0.24720 0.03910 0.65900 0.04800
C 	C 	0.28170 0.08343 0.68831 0.00200
C 	C 	0.28416 0.12749 0.69847 0.00200
C 	C 	0.31698 0.14176 0.72079 -0.07200
H 	H 	0.31870 0.17190 0.72770 0.04900
C 	C 	0.34734 0.11199 0.73296 0.00100
H 	H 	0.36980 0.12170 0.74820 0.02700
C 	C 	0.34489 0.06793 0.72280 -0.09100
H 	H 	0.36560 0.04760 0.73110 0.06800
C 	C 	0.31207 0.05366 0.70048 0.03700
N 	N 	0.11944 0.53783 0.39241 -0.22700
C 	C 	0.10336 0.53908 0.42302 0.04800
C 	C 	0.11374 0.57351 0.44542 -0.09400
H 	H 	0.10270 0.57440 0.46630 0.06000
C 	C 	0.14020 0.60668 0.43721 0.01900
H 	H 	0.14730 0.63020 0.45250 0.02100
C 	C 	0.15628 0.60542 0.40660 -0.09700
H 	H 	0.17440 0.62810 0.40100 0.05700
C 	C 	0.14590 0.57100 0.38420 0.03900
H 	H 	0.15690 0.57010 0.36330 0.00700
N 	N 	0.06870 0.47236 0.40501 -0.19500
N 	N 	0.03809 0.44455 0.41610 -0.07700
C 	C 	0.02765 0.46160 0.44704 0.01800
H 	H 	0.00800 0.44950 0.46010 0.02200
C 	C 	0.05181 0.49995 0.45507 -0.07800
H 	H 	0.05110 0.51800 0.47440 0.05200
C 	C 	0.07718 0.50660 0.42909 0.02200
C 	C 	0.02490 0.40610 0.40053 -0.09800
H 	H 	0.02510 0.40990 0.37600 0.05300
H 	H 	0.99610 0.40100 0.40470 0.05700
N 	N 	0.96627 0.09305 0.44928 -0.22500
C 	C 	0.98131 0.07800 0.42027 0.04700
C 	C 	0.96715 0.03831 0.40566 -0.09700
H 	H 	0.97740 0.02800 0.38580 0.05800
C 	C 	0.93796 0.01368 0.42006 0.01800
H 	H 	0.92830 0.98660 0.41010 0.01800
C 	C 	0.92293 0.02874 0.44907 -0.10000
H 	H 	0.90300 0.01190 0.45890 0.06000
C 	C 	0.93708 0.06842 0.46368 0.04100
H 	H 	0.92680 0.07870 0.48350 0.00400
N 	N 	0.02262 0.14301 0.42433 -0.19200
N 	N 	0.05246 0.16316 0.40628 -0.07600
C 	C 	0.05777 0.13588 0.37823 0.02100
H 	H 	0.07590 0.14140 0.36190 0.02400
C 	C 	0.03122 0.09887 0.37895 -0.07500
H 	H 	0.02850 0.07530 0.36310 0.05200
C 	C 	0.00950 0.10327 0.40744 0.02300
C 	C 	0.07140 0.20260 0.41535 -0.09700
H 	H 	0.09930 0.20220 0.40840 0.05800
H 	H 	0.07410 0.20520 0.44010 0.05000
C 	C 	0.04967 0.36481 0.41140 0.03700
C 	C 	0.08309 0.36980 0.43564 -0.09100
H 	H 	0.09090 0.39850 0.44370 0.06800
C 	C 	0.10506 0.33282 0.44800 -0.00300
H 	H 	0.12790 0.33620 0.46460 0.02500
C 	C 	0.09361 0.29084 0.43614 -0.07100
H 	H 	0.10860 0.26560 0.44460 0.04700
C 	C 	0.06019 0.28585 0.41190 0.00400
C 	C 	0.03822 0.32283 0.39953 -0.00000
C 	C 	0.00480 0.31784 0.37530 -0.07100
H 	H 	0.98980 0.34310 0.36680 0.04900
C 	C 	0.99335 0.27586 0.36343 -0.00300
H 	H 	0.97050 0.27250 0.34690 0.02800
C 	C 	0.01531 0.23888 0.37579 -0.08700
H 	H 	0.00750 0.21020 0.36770 0.06700
C 	C 	0.04874 0.24387 0.40003 0.03400
Co	Co	0.23402 0.95861 0.38424 1.12100
Co	Co	0.35561 0.28609 0.27624 1.12000
Co	Co	0.40127 0.01652 0.63886 1.12100
Co	Co	0.98690 0.15825 0.46497 1.12000
N 	N 	0.20039 0.95698 0.42669 -0.22900
C 	C 	0.20749 0.99292 0.44826 0.05100
C 	C 	0.18962 0.99430 0.47805 -0.09600
H 	H 	0.19450 0.01890 0.49280 0.06100
C 	C 	0.16463 0.95975 0.48628 0.02500
H 	H 	0.15240 0.96070 0.50660 0.01700
C 	C 	0.15753 0.92382 0.46471 -0.10400
H 	H 	0.14050 0.90020 0.47030 0.06600
C 	C 	0.17541 0.92243 0.43491 0.04500
H 	H 	0.17060 0.89790 0.42020 0.00300
N 	N 	0.25508 0.01793 0.41137 -0.19300
N 	N 	0.28351 0.05322 0.41058 -0.07600
C 	C 	0.28011 0.08073 0.43888 0.01800
H 	H 	0.29550 0.10680 0.44460 0.02300
C 	C 	0.24957 0.06243 0.45716 -0.07300
H 	H 	0.24100 0.07410 0.47720 0.05300
C 	C 	0.23410 0.02362 0.44016 0.01900
C 	C 	0.30740 0.06100 0.38500 -0.10300
H 	H 	0.33370 0.07400 0.39480 0.05800
H 	H 	0.31350 0.03230 0.37470 0.05800
N 	N 	0.40137 0.29967 0.24181 -0.21900
C 	C 	0.40144 0.26935 0.21571 0.04400
C 	C 	0.42797 0.27509 0.19140 -0.10100
H 	H 	0.42800 0.25440 0.17360 0.05900
C 	C 	0.45444 0.31110 0.19321 0.01700
H 	H 	0.47260 0.31510 0.17660 0.01500
C 	C 	0.45437 0.34145 0.21931 -0.09800
H 	H 	0.47250 0.36610 0.22050 0.05700
C 	C 	0.42784 0.33572 0.24362 0.03700
H 	H 	0.42780 0.35640 0.26150 0.01200
N 	N 	0.34675 0.23469 0.24032 -0.20000
N 	N 	0.32021 0.19798 0.23307 -0.07700
C 	C 	0.33110 0.17712 0.20359 0.01800
H 	H 	0.31840 0.15170 0.19310 0.02400
C 	C 	0.36439 0.20093 0.19262 -0.08100
H 	H 	0.37780 0.19420 0.17350 0.05300
C 	C 	0.37406 0.23652 0.21532 0.02000
C 	C 	0.29420 0.18350 0.25553 -0.10200
H 	H 	0.28350 0.20970 0.26660 0.05400
H 	H 	0.27060 0.16840 0.24280 0.05800
C 	C 	0.28788 0.09193 0.35737 0.03900
C 	C 	0.24729 0.10445 0.35799 -0.09000
H 	H 	0.23220 0.09360 0.37510 0.06700
C 	C 	0.22875 0.13282 0.33351 -0.00200
H 	H 	0.20100 0.14140 0.33390 0.02500
C 	C 	0.25080 0.14869 0.30840 -0.07100
H 	H 	0.23810 0.16810 0.29170 0.04900
C 	C 	0.29139 0.13617 0.30778 0.00100
C 	C 	0.30993 0.10780 0.33227 -0.00100
C 	C 	0.35052 0.09528 0.33165 -0.07000
H 	H 	0.36320 0.07590 0.34840 0.04800
C 	C 	0.37257 0.11115 0.30654 -0.00200
H 	H 	0.40030 0.10260 0.30610 0.02600
C 	C 	0.35404 0.13953 0.28206 -0.08900
H 	H 	0.36910 0.15040 0.26490 0.06800
C 	C 	0.31345 0.15204 0.28268 0.03700
N 	N 	0.20913 0.89681 0.36370 -0.22200
C 	C 	0.23202 0.85960 0.37416 0.04500
C 	C 	0.21736 0.81754 0.36523 -0.09800
H 	H 	0.23300 0.79210 0.37240 0.05800
C 	C 	0.17982 0.81270 0.34584 0.01900
H 	H 	0.16980 0.78400 0.33970 0.02300
C 	C 	0.15694 0.84991 0.33537 -0.09900
H 	H 	0.13130 0.84660 0.32210 0.06600
C 	C 	0.17159 0.89197 0.34430 0.04200
H 	H 	0.15590 0.91740 0.33720 0.01000
N 	N 	0.27526 0.91018 0.40643 -0.19800
N 	N 	0.31467 0.91045 0.42503 -0.07900
C 	C 	0.33138 0.86718 0.42369 0.01800
H 	H 	0.35740 0.85790 0.43400 0.02100
C 	C 	0.30230 0.84018 0.40426 -0.08100
H 	H 	0.30550 0.80970 0.39930 0.05200
C 	C 	0.26762 0.86675 0.39359 0.02100
C 	C 	0.32780 0.94580 0.44475 -0.10000
H 	H 	0.35790 0.94390 0.44990 0.05700
H 	H 	0.32160 0.97330 0.43170 0.05300
N 	N 	0.41979 0.07460 0.66575 -0.23100
C 	C 	0.39617 0.11199 0.65728 0.04900
C 	C 	0.40794 0.15286 0.67117 -0.09500
H 	H 	0.39180 0.17840 0.66540 0.06100
C 	C 	0.44334 0.15634 0.69352 0.01800
H 	H 	0.45140 0.18430 0.70300 0.02000
C 	C 	0.46696 0.11895 0.70198 -0.09800
H 	H 	0.49120 0.12130 0.71730 0.05700
C 	C 	0.45519 0.07808 0.68810 0.03700
H 	H 	0.47130 0.05250 0.69390 0.00400
N 	N 	0.35203 0.06163 0.62424 -0.19500
N 	N 	0.31307 0.06272 0.60494 -0.07700
C 	C 	0.29824 0.10691 0.60507 0.02100
H 	H 	0.27280 0.11710 0.59410 0.02400
C 	C 	0.32804 0.13312 0.62445 -0.07300
H 	H 	0.32610 0.16400 0.62870 0.05400
C 	C 	0.36128 0.10513 0.63629 0.02300
C 	C 	0.29680 0.02820 0.58535 -0.10100
H 	H 	0.30350 0.00020 0.59750 0.05300
H 	H 	0.26660 0.03130 0.58250 0.05800
C 	C 	0.30898 0.94984 0.47810 0.03600
C 	C 	0.28283 0.91694 0.48727 -0.08800
H 	H 	0.27630 0.89240 0.47280 0.06900
C 	C 	0.26622 0.91999 0.51758 -0.00000
H 	H 	0.24830 0.89750 0.52390 0.02700
C 	C 	0.27576 0.95593 0.53871 -0.07000
H 	H 	0.26440 0.95800 0.55940 0.04800
C 	C 	0.30191 0.98883 0.52954 0.00000
C 	C 	0.31852 0.98578 0.49923 0.00200
C 	C 	0.34467 0.01868 0.49005 -0.07100
H 	H 	0.35600 0.01660 0.46930 0.05000
C 	C 	0.35422 0.05463 0.51118 -0.00100
H 	H 	0.37210 0.07710 0.50490 0.02500
C 	C 	0.33761 0.05767 0.54149 -0.09200
H 	H 	0.34410 0.08220 0.55590 0.06800
C 	C 	0.31146 0.02478 0.55067 0.03700
N 	N 	0.27133 0.96796 0.34460 -0.22600
C 	C 	0.25363 0.99371 0.31807 0.04300
C 	C 	0.27637 0.00572 0.29230 -0.09300
H 	H 	0.26430 0.02330 0.27420 0.05900
C 	C 	0.31681 0.99198 0.29305 0.01400
H 	H 	0.33240 0.00020 0.27540 0.02600
C 	C 	0.33451 0.96623 0.31957 -0.09500
H 	H 	0.36220 0.95680 0.32010 0.05600
C 	C 	0.31177 0.95422 0.34534 0.03300
H 	H 	0.32390 0.93660 0.36350 0.01100
N 	N 	0.19450 0.99249 0.34727 -0.19800
N 	N 	0.15238 0.00370 0.34116 -0.07800
C 	C 	0.14514 0.02170 0.30829 0.01900
H 	H 	0.11960 0.03200 0.29770 0.02200
C 	C 	0.18279 0.02160 0.29408 -0.07900
H 	H 	0.18690 0.03180 0.27230 0.05200
C 	C 	0.21330 0.00356 0.31818 0.02500
C 	C 	0.12650 0.99950 0.36520 -0.09700
H 	H 	0.09810 0.99740 0.35390 0.05700
H 	H 	0.13270 0.97140 0.37740 0.04800
N 	N 	0.94748 0.16304 0.50491 -0.22100
C 	C 	0.96267 0.14219 0.53467 0.04500
C 	C 	0.94108 0.14443 0.56251 -0.09600
H 	H 	0.95150 0.13020 0.58280 0.05800
C 	C 	0.90431 0.16751 0.56059 0.01400
H 	H 	0.88960 0.16900 0.57960 0.02100
C 	C 	0.88913 0.18836 0.53084 -0.09900
H 	H 	0.86400 0.20410 0.52950 0.05900
C 	C 	0.91071 0.18612 0.50300 0.04000
H 	H 	0.90030 0.20040 0.48270 0.00700
N 	N 	0.02236 0.13036 0.50755 -0.19700
N 	N 	0.06159 0.11080 0.51517 -0.07700
C 	C 	0.06366 0.09232 0.54790 0.02300
H 	H 	0.08640 0.07720 0.55940 0.02300
C 	C 	0.02570 0.10046 0.56052 -0.07600
H 	H 	0.01860 0.09170 0.58190 0.05200
C 	C 	0.00018 0.12397 0.53558 0.02500
C 	C 	0.09025 0.11010 0.49292 -0.09700
H 	H 	0.08790 0.13790 0.47970 0.04700
H 	H 	0.11780 0.10980 0.50580 0.05700
C 	C 	0.12819 0.03697 0.39076 0.03300
C 	C 	0.15357 0.07262 0.38578 -0.08900
H 	H 	0.16870 0.07300 0.36690 0.06600
C 	C 	0.15683 0.10774 0.40837 -0.00400
H 	H 	0.17420 0.13210 0.40500 0.02600
C 	C 	0.13470 0.10720 0.43594 -0.06800
H 	H 	0.13690 0.13120 0.45140 0.04600
C 	C 	0.10932 0.07154 0.44092 0.00300
C 	C 	0.10606 0.03642 0.41833 0.00200
C 	C 	0.08068 0.00076 0.42330 -0.07000
H 	H 	0.07850 0.97680 0.40790 0.04800
C 	C 	0.05855 0.00022 0.45087 -0.00100
H 	H 	0.04120 0.97580 0.45430 0.03000
C 	C 	0.06180 0.03533 0.47346 -0.08800
H 	H 	0.04670 0.03500 0.49230 0.06800
C 	C 	0.08719 0.07099 0.46848 0.03300
N 	N 	0.31147 0.32855 0.24965 -0.22700
C 	C 	0.31365 0.37277 0.25938 0.04700
C 	C 	0.28433 0.40269 0.24550 -0.08900
H 	H 	0.28580 0.43290 0.25220 0.06100
C 	C 	0.25284 0.38838 0.22190 0.01400
H 	H 	0.23280 0.40880 0.21240 0.03100
C 	C 	0.25066 0.34416 0.21217 -0.09000
H 	H 	0.22910 0.33440 0.19600 0.05800
C 	C 	0.27997 0.31424 0.22604 0.03700
H 	H 	0.27850 0.28400 0.21940 0.00500
N 	N 	0.36963 0.34978 0.29810 -0.19600
N 	N 	0.40151 0.36951 0.32001 -0.07800
C 	C 	0.39637 0.41620 0.31820 0.01800
H 	H 	0.41340 0.43760 0.33030 0.02100
C 	C 	0.36131 0.42532 0.29516 -0.07900
H 	H 	0.35080 0.45390 0.28910 0.05200
C 	C 	0.34478 0.38427 0.28274 0.02400
C 	C 	0.42990 0.34530 0.34073 -0.10200
H 	H 	0.43690 0.31830 0.32860 0.05200
H 	H 	0.45520 0.36310 0.34520 0.05800
N 	N 	0.55811 0.31080 0.57066 -0.22400
C 	C 	0.55779 0.26476 0.56958 0.04600
C 	C 	0.58642 0.24076 0.59045 -0.09700
H 	H 	0.58620 0.20930 0.58970 0.05900
C 	C 	0.61536 0.26279 0.61240 0.01600
H 	H 	0.63490 0.24640 0.62670 0.01700
C 	C 	0.61568 0.30883 0.61348 -0.09800
H 	H 	0.63550 0.32390 0.62850 0.05700
C 	C 	0.58706 0.33283 0.59260 0.04000
H 	H 	0.58730 0.36430 0.59330 0.00600
N 	N 	0.49900 0.27340 0.52910 -0.19700
N 	N 	0.47109 0.24574 0.50908 -0.07700
C 	C 	0.48294 0.20103 0.51554 0.02100
H 	H 	0.46960 0.17560 0.50560 0.02500
C 	C 	0.51817 0.20106 0.53956 -0.07400
H 	H 	0.53260 0.17560 0.54850 0.05200
C 	C 	0.52810 0.24579 0.54794 0.02300
C 	C 	0.44090 0.26110 0.48616 -0.09500
H 	H 	0.41860 0.23880 0.48360 0.05700
H 	H 	0.42950 0.28840 0.49520 0.04800
C 	C 	0.41580 0.33159 0.37430 0.03700
C 	C 	0.37754 0.34539 0.38181 -0.09000
H 	H 	0.36030 0.36220 0.36590 0.06600
C 	C 	0.36447 0.33457 0.41259 -0.00300
H 	H 	0.33830 0.34400 0.41770 0.02500
C 	C 	0.38966 0.30995 0.43585 -0.07000
H 	H 	0.38070 0.30260 0.45690 0.04700
C 	C 	0.42791 0.29615 0.42833 0.00400
C 	C 	0.44098 0.30697 0.39756 0.00000
C 	C 	0.47924 0.29317 0.39005 -0.06900
H 	H 	0.48820 0.30060 0.36900 0.04800
C 	C 	0.50442 0.26855 0.41331 -0.00200
H 	H 	0.53060 0.25910 0.40820 0.02900
C 	C 	0.49135 0.25773 0.44408 -0.08500
H 	H 	0.50860 0.24090 0.46000 0.06700
C 	C 	0.45310 0.27153 0.45160 0.03300
N 	N 	0.39512 0.24567 0.30892 -0.23000
C 	C 	0.37811 0.23002 0.33687 0.04900
C 	C 	0.40134 0.20398 0.36047 -0.09300
H 	H 	0.38970 0.19330 0.37960 0.06100
C 	C 	0.44159 0.19359 0.35612 0.01900
H 	H 	0.45750 0.17580 0.37220 0.02200
C 	C 	0.45860 0.20923 0.32817 -0.09800
H 	H 	0.48610 0.20210 0.32520 0.05900
C 	C 	0.43536 0.23527 0.30457 0.03900
H 	H 	0.44700 0.24600 0.28550 0.00500
N 	N 	0.31568 0.26428 0.31297 -0.19100
N 	N 	0.27459 0.26726 0.32051 -0.07700
C 	C 	0.27189 0.24472 0.35129 0.02000
H 	H 	0.24790 0.24150 0.36230 0.02300
C 	C 	0.31130 0.22782 0.36277 -0.07300
H 	H 	0.31830 0.21130 0.38280 0.05300
C 	C 	0.33836 0.23991 0.33909 0.02000
C 	C 	0.24490 0.29350 0.30326 -0.10000
H 	H 	0.24780 0.29160 0.27900 0.05500
H 	H 	0.21770 0.28130 0.30660 0.05700
N 	N 	0.04650 0.52344 0.34110 -0.22100
C 	C 	0.05366 0.54970 0.31385 0.04600
C 	C 	0.02408 0.57960 0.30047 -0.09800
H 	H 	0.02900 0.59750 0.28190 0.05900
C 	C 	0.98735 0.58330 0.31434 0.01700
H 	H 	0.96710 0.60380 0.30520 0.01900
C 	C 	0.98019 0.55710 0.34159 -0.09700
H 	H 	0.95510 0.55970 0.35110 0.05700
C 	C 	0.00977 0.52720 0.35497 0.03900
H 	H 	0.00490 0.50920 0.37360 0.01100
N 	N 	0.11889 0.51469 0.31806 -0.19600
N 	N 	0.15597 0.51973 0.30341 -0.07700
C 	C 	0.15011 0.55366 0.27879 0.01600
H 	H 	0.16990 0.56390 0.26510 0.02600
C 	C 	0.10940 0.56959 0.27821 -0.07600
H 	H 	0.09720 0.59240 0.26410 0.05200
C 	C 	0.09011 0.54550 0.30248 0.02000
C 	C 	0.18970 0.49360 0.31307 -0.10200
H 	H 	0.21410 0.50830 0.30580 0.05800
H 	H 	0.19360 0.49220 0.33790 0.05300
C 	C 	0.24621 0.34274 0.31370 0.03700
C 	C 	0.27903 0.35701 0.33603 -0.08900
H 	H 	0.29980 0.33670 0.34430 0.06600
C 	C 	0.28148 0.40106 0.34618 -0.00200
H 	H 	0.30390 0.41080 0.36140 0.02600
C 	C 	0.25112 0.43084 0.33401 -0.06900
H 	H 	0.25280 0.46090 0.34100 0.04800
C 	C 	0.21830 0.41657 0.31169 0.00200
C 	C 	0.21584 0.37251 0.30153 0.00200
C 	C 	0.18302 0.35824 0.27921 -0.07200
H 	H 	0.18130 0.32810 0.27230 0.04900
C 	C 	0.15266 0.38801 0.26704 0.00100
H 	H 	0.13020 0.37830 0.25180 0.02700
C 	C 	0.15511 0.43207 0.27720 -0.09100
H 	H 	0.13440 0.45240 0.26890 0.06800
C 	C 	0.18793 0.44634 0.29952 0.03700
N 	N 	0.38056 0.96217 0.60759 -0.22700
C 	C 	0.39664 0.96092 0.57698 0.04800
C 	C 	0.38626 0.92649 0.55458 -0.09400
H 	H 	0.39730 0.92560 0.53370 0.06000
C 	C 	0.35980 0.89332 0.56279 0.01900
H 	H 	0.35270 0.86980 0.54750 0.02100
C 	C 	0.34372 0.89458 0.59340 -0.09700
H 	H 	0.32560 0.87190 0.59900 0.05700
C 	C 	0.35410 0.92900 0.61580 0.03900
H 	H 	0.34310 0.92990 0.63670 0.00700
N 	N 	0.43130 0.02764 0.59499 -0.19500
N 	N 	0.46191 0.05545 0.58390 -0.07700
C 	C 	0.47235 0.03840 0.55296 0.01800
H 	H 	0.49200 0.05050 0.53990 0.02200
C 	C 	0.44819 0.00005 0.54493 -0.07800
H 	H 	0.44890 0.98200 0.52560 0.05200
C 	C 	0.42282 0.99340 0.57091 0.02200
C 	C 	0.47510 0.09390 0.59947 -0.09800
H 	H 	0.47490 0.09010 0.62400 0.05300
H 	H 	0.50390 0.09900 0.59530 0.05700
N 	N 	0.53373 0.40695 0.55072 -0.22500
C 	C 	0.51869 0.42200 0.57973 0.04700
C 	C 	0.53285 0.46169 0.59434 -0.09700
H 	H 	0.52260 0.47200 0.61420 0.05800
C 	C 	0.56204 0.48632 0.57994 0.01800
H 	H 	0.57170 0.51340 0.58990 0.01800
C 	C 	0.57707 0.47126 0.55093 -0.10000
H 	H 	0.59700 0.48810 0.54110 0.06000
C 	C 	0.56292 0.43158 0.53632 0.04100
H 	H 	0.57320 0.42130 0.51650 0.00400
N 	N 	0.47738 0.35699 0.57567 -0.19200
N 	N 	0.44754 0.33684 0.59372 -0.07600
C 	C 	0.44223 0.36412 0.62177 0.02100
H 	H 	0.42410 0.35860 0.63810 0.02400
C 	C 	0.46878 0.40113 0.62105 -0.07500
H 	H 	0.47150 0.42470 0.63690 0.05200
C 	C 	0.49050 0.39673 0.59256 0.02300
C 	C 	0.42860 0.29740 0.58465 -0.09700
H 	H 	0.40070 0.29780 0.59160 0.05800
H 	H 	0.42590 0.29480 0.55990 0.05000
C 	C 	0.45033 0.13519 0.58860 0.03700
C 	C 	0.41691 0.13020 0.56436 -0.09100
H 	H 	0.40910 0.10150 0.55630 0.06800
C 	C 	0.39494 0.16718 0.55200 -0.00300
H 	H 	0.37210 0.16380 0.53540 0.02500
C 	C 	0.40639 0.20916 0.56386 -0.07100
H 	H 	0.39140 0.23440 0.55540 0.04700
C 	C 	0.43981 0.21415 0.58810 0.00400
C 	C 	0.46178 0.17717 0.60047 -0.00000
C 	C 	0.49520 0.18216 0.62470 -0.07100
H 	H 	0.51020 0.15690 0.63320 0.04900
C 	C 	0.50665 0.22414 0.63657 -0.00300
H 	H 	0.52950 0.22750 0.65310 0.02800
C 	C 	0.48469 0.26112 0.62421 -0.08700
H 	H 	0.49250 0.28980 0.63230 0.06700
C 	C 	0.45126 0.25613 0.59997 0.03400
Co	Co	0.23402 0.04139 0.88424 1.12100
Co	Co	0.35561 0.71391 0.77624 1.12000
Co	Co	0.40127 0.98348 0.13886 1.12100
Co	Co	0.98690 0.84175 0.96497 1.12000
N 	N 	0.20039 0.04302 0.92669 -0.22900
C 	C 	0.20749 0.00708 0.94826 0.05100
C 	C 	0.18962 0.00570 0.97805 -0.09600
H 	H 	0.19450 0.98110 0.99280 0.06100
C 	C 	0.16463 0.04025 0.98628 0.02500
H 	H 	0.15240 0.03930 0.00660 0.01700
C 	C 	0.15753 0.07618 0.96471 -0.10400
H 	H 	0.14050 0.09980 0.97030 0.06600
C 	C 	0.17541 0.07757 0.93491 0.04500
H 	H 	0.17060 0.10210 0.92020 0.00300
N 	N 	0.25508 0.98207 0.91137 -0.19300
N 	N 	0.28351 0.94678 0.91058 -0.07600
C 	C 	0.28011 0.91927 0.93888 0.01800
H 	H 	0.29550 0.89320 0.94460 0.02300
C 	C 	0.24957 0.93757 0.95716 -0.07300
H 	H 	0.24100 0.92590 0.97720 0.05300
C 	C 	0.23410 0.97638 0.94016 0.01900
C 	C 	0.30740 0.93900 0.88500 -0.10300
H 	H 	0.33370 0.92600 0.89480 0.05800
H 	H 	0.31350 0.96770 0.87470 0.05800
N 	N 	0.40137 0.70033 0.74181 -0.21900
C 	C 	0.40144 0.73065 0.71571 0.04400
C 	C 	0.42797 0.72491 0.69140 -0.10100
H 	H 	0.42800 0.74560 0.67360 0.05900
C 	C 	0.45444 0.68890 0.69321 0.01700
H 	H 	0.47260 0.68490 0.67660 0.01500
C 	C 	0.45437 0.65855 0.71931 -0.09800
H 	H 	0.47250 0.63390 0.72050 0.05700
C 	C 	0.42784 0.66428 0.74362 0.03700
H 	H 	0.42780 0.64360 0.76150 0.01200
N 	N 	0.34675 0.76531 0.74032 -0.20000
N 	N 	0.32021 0.80202 0.73307 -0.07700
C 	C 	0.33110 0.82288 0.70359 0.01800
H 	H 	0.31840 0.84830 0.69310 0.02400
C 	C 	0.36439 0.79907 0.69262 -0.08100
H 	H 	0.37780 0.80580 0.67350 0.05300
C 	C 	0.37406 0.76348 0.71532 0.02000
C 	C 	0.29420 0.81650 0.75553 -0.10200
H 	H 	0.28350 0.79030 0.76660 0.05400
H 	H 	0.27060 0.83160 0.74280 0.05800
C 	C 	0.28788 0.90807 0.85737 0.03900
C 	C 	0.24729 0.89555 0.85799 -0.09000
H 	H 	0.23220 0.90640 0.87510 0.06700
C 	C 	0.22875 0.86718 0.83351 -0.00200
H 	H 	0.20100 0.85860 0.83390 0.02500
C 	C 	0.25080 0.85131 0.80840 -0.07100
H 	H 	0.23810 0.83190 0.79170 0.04900
C 	C 	0.29139 0.86383 0.80778 0.00100
C 	C 	0.30993 0.89220 0.83227 -0.00100
C 	C 	0.35052 0.90472 0.83165 -0.07000
H 	H 	0.36320 0.92410 0.84840 0.04800
C 	C 	0.37257 0.88885 0.80654 -0.00200
H 	H 	0.40030 0.89740 0.80610 0.02600
C 	C 	0.35404 0.86047 0.78206 -0.08900
H 	H 	0.36910 0.84960 0.76490 0.06800
C 	C 	0.31345 0.84796 0.78268 0.03700
N 	N 	0.20913 0.10319 0.86370 -0.22200
C 	C 	0.23202 0.14040 0.87416 0.04500
C 	C 	0.21736 0.18246 0.86523 -0.09800
H 	H 	0.23300 0.20790 0.87240 0.05800
C 	C 	0.17982 0.18730 0.84584 0.01900
H 	H 	0.16980 0.21600 0.83970 0.02300
C 	C 	0.15694 0.15009 0.83537 -0.09900
H 	H 	0.13130 0.15340 0.82210 0.06600
C 	C 	0.17159 0.10803 0.84430 0.04200
H 	H 	0.15590 0.08260 0.83720 0.01000
N 	N 	0.27526 0.08982 0.90643 -0.19800
N 	N 	0.31467 0.08955 0.92503 -0.07900
C 	C 	0.33138 0.13282 0.92369 0.01800
H 	H 	0.35740 0.14210 0.93400 0.02100
C 	C 	0.30230 0.15982 0.90426 -0.08100
H 	H 	0.30550 0.19030 0.89930 0.05200
C 	C 	0.26762 0.13325 0.89359 0.02100
C 	C 	0.32780 0.05420 0.94475 -0.10000
H 	H 	0.35790 0.05610 0.94990 0.05700
H 	H 	0.32160 0.02670 0.93170 0.05300
N 	N 	0.41979 0.92540 0.16575 -0.23100
C 	C 	0.39617 0.88801 0.15728 0.04900
C 	C 	0.40794 0.84714 0.17117 -0.09500
H 	H 	0.39180 0.82160 0.16540 0.06100
C 	C 	0.44334 0.84366 0.19352 0.01800
H 	H 	0.45140 0.81570 0.20300 0.02000
C 	C 	0.46696 0.88105 0.20198 -0.09800
H 	H 	0.49120 0.87870 0.21730 0.05700
C 	C 	0.45519 0.92192 0.18810 0.03700
H 	H 	0.47130 0.94750 0.19390 0.00400
N 	N 	0.35203 0.93837 0.12424 -0.19500
N 	N 	0.31307 0.93728 0.10494 -0.07700
C 	C 	0.29824 0.89309 0.10507 0.02100
H 	H 	0.27280 0.88290 0.09410 0.02400
C 	C 	0.32804 0.86688 0.12445 -0.07300
H 	H 	0.32610 0.83600 0.12870 0.05400
C 	C 	0.36128 0.89487 0.13629 0.02300
C 	C 	0.29680 0.97180 0.08535 -0.10100
H 	H 	0.30350 0.99980 0.09750 0.05300
H 	H 	0.26660 0.96870 0.08250 0.05800
C 	C 	0.30898 0.05016 0.97810 0.03600
C 	C 	0.28283 0.08306 0.98727 -0.08900
H 	H 	0.27630 0.10760 0.97280 0.06900
C 	C 	0.26622 0.08001 0.01758 -0.00000
H 	H 	0.24830 0.10250 0.02390 0.02700
C 	C 	0.27576 0.04407 0.03871 -0.07000
H 	H 	0.26440 0.04200 0.05940 0.04800
C 	C 	0.30191 0.01117 0.02954 0.00100
C 	C 	0.31852 0.01422 0.99923 0.00100
C 	C 	0.34467 0.98132 0.99005 -0.07000
H 	H 	0.35600 0.98340 0.96930 0.05000
C 	C 	0.35422 0.94537 0.01118 -0.00100
H 	H 	0.37210 0.92290 0.00490 0.02500
C 	C 	0.33761 0.94233 0.04149 -0.09200
H 	H 	0.34410 0.91780 0.05590 0.06800
C 	C 	0.31146 0.97522 0.05067 0.03700
N 	N 	0.27133 0.03204 0.84460 -0.22600
C 	C 	0.25363 0.00629 0.81807 0.04300
C 	C 	0.27637 0.99428 0.79230 -0.09300
H 	H 	0.26430 0.97670 0.77420 0.05900
C 	C 	0.31681 0.00802 0.79305 0.01400
H 	H 	0.33240 0.99980 0.77540 0.02600
C 	C 	0.33451 0.03377 0.81957 -0.09500
H 	H 	0.36220 0.04320 0.82010 0.05600
C 	C 	0.31177 0.04578 0.84534 0.03300
H 	H 	0.32390 0.06340 0.86350 0.01100
N 	N 	0.19450 0.00751 0.84727 -0.19800
N 	N 	0.15238 0.99630 0.84116 -0.07800
C 	C 	0.14514 0.97830 0.80829 0.01900
H 	H 	0.11960 0.96800 0.79770 0.02200
C 	C 	0.18279 0.97840 0.79408 -0.07900
H 	H 	0.18690 0.96820 0.77230 0.05200
C 	C 	0.21330 0.99644 0.81818 0.02500
C 	C 	0.12650 0.00050 0.86520 -0.09700
H 	H 	0.09810 0.00260 0.85390 0.05700
H 	H 	0.13270 0.02860 0.87740 0.04800
N 	N 	0.94748 0.83696 0.00491 -0.22100
C 	C 	0.96267 0.85781 0.03467 0.04500
C 	C 	0.94108 0.85557 0.06251 -0.09600
H 	H 	0.95150 0.86980 0.08280 0.05800
C 	C 	0.90431 0.83249 0.06059 0.01400
H 	H 	0.88960 0.83100 0.07960 0.02100
C 	C 	0.88913 0.81164 0.03084 -0.09900
H 	H 	0.86400 0.79590 0.02950 0.05900
C 	C 	0.91071 0.81388 0.00300 0.04000
H 	H 	0.90030 0.79960 0.98270 0.00700
N 	N 	0.02236 0.86964 0.00755 -0.19700
N 	N 	0.06159 0.88920 0.01517 -0.07800
C 	C 	0.06366 0.90768 0.04790 0.02300
H 	H 	0.08640 0.92280 0.05940 0.02300
C 	C 	0.02570 0.89954 0.06052 -0.07600
H 	H 	0.01860 0.90830 0.08190 0.05200
C 	C 	0.00018 0.87603 0.03558 0.02500
C 	C 	0.09025 0.88990 0.99292 -0.09700
H 	H 	0.08790 0.86210 0.97970 0.04700
H 	H 	0.11780 0.89020 0.00580 0.05700
C 	C 	0.12819 0.96303 0.89076 0.03300
C 	C 	0.15357 0.92738 0.88578 -0.08900
H 	H 	0.16870 0.92700 0.86690 0.06600
C 	C 	0.15683 0.89226 0.90837 -0.00400
H 	H 	0.17420 0.86790 0.90500 0.02600
C 	C 	0.13470 0.89280 0.93594 -0.06800
H 	H 	0.13690 0.86880 0.95140 0.04600
C 	C 	0.10932 0.92846 0.94092 0.00300
C 	C 	0.10606 0.96358 0.91833 0.00200
C 	C 	0.08068 0.99924 0.92330 -0.07000
H 	H 	0.07850 0.02320 0.90790 0.04800
C 	C 	0.05855 0.99978 0.95087 -0.00100
H 	H 	0.04120 0.02420 0.95430 0.03000
C 	C 	0.06180 0.96467 0.97346 -0.08800
H 	H 	0.04670 0.96500 0.99230 0.06800
C 	C 	0.08719 0.92901 0.96848 0.03300
N 	N 	0.31147 0.67145 0.74965 -0.22700
C 	C 	0.31365 0.62723 0.75938 0.04700
C 	C 	0.28433 0.59731 0.74550 -0.08900
H 	H 	0.28580 0.56710 0.75220 0.06100
C 	C 	0.25284 0.61162 0.72190 0.01400
H 	H 	0.23280 0.59120 0.71240 0.03100
C 	C 	0.25066 0.65584 0.71217 -0.09000
H 	H 	0.22910 0.66560 0.69600 0.05800
C 	C 	0.27997 0.68576 0.72604 0.03700
H 	H 	0.27850 0.71600 0.71940 0.00500
N 	N 	0.36963 0.65022 0.79810 -0.19600
N 	N 	0.40151 0.63049 0.82001 -0.07800
C 	C 	0.39637 0.58380 0.81820 0.01800
H 	H 	0.41340 0.56240 0.83030 0.02100
C 	C 	0.36131 0.57468 0.79516 -0.07900
H 	H 	0.35080 0.54610 0.78910 0.05200
C 	C 	0.34478 0.61573 0.78274 0.02400
C 	C 	0.42990 0.65470 0.84073 -0.10200
H 	H 	0.43690 0.68170 0.82860 0.05200
H 	H 	0.45520 0.63690 0.84520 0.05800
N 	N 	0.55811 0.68920 0.07066 -0.22400
C 	C 	0.55779 0.73524 0.06958 0.04600
C 	C 	0.58642 0.75924 0.09045 -0.09700
H 	H 	0.58620 0.79070 0.08970 0.05900
C 	C 	0.61536 0.73721 0.11240 0.01600
H 	H 	0.63490 0.75360 0.12670 0.01700
C 	C 	0.61568 0.69117 0.11348 -0.09800
H 	H 	0.63550 0.67610 0.12850 0.05700
C 	C 	0.58706 0.66717 0.09260 0.04000
H 	H 	0.58730 0.63570 0.09330 0.00600
N 	N 	0.49900 0.72660 0.02910 -0.19700
N 	N 	0.47109 0.75426 0.00908 -0.07700
C 	C 	0.48294 0.79897 0.01554 0.02100
H 	H 	0.46960 0.82440 0.00560 0.02500
C 	C 	0.51817 0.79894 0.03956 -0.07400
H 	H 	0.53260 0.82440 0.04850 0.05200
C 	C 	0.52810 0.75421 0.04794 0.02300
C 	C 	0.44090 0.73890 0.98616 -0.09500
H 	H 	0.41860 0.76120 0.98360 0.05700
H 	H 	0.42950 0.71160 0.99520 0.04800
C 	C 	0.41580 0.66841 0.87430 0.03700
C 	C 	0.37754 0.65461 0.88181 -0.09000
H 	H 	0.36030 0.63780 0.86590 0.06600
C 	C 	0.36447 0.66543 0.91259 -0.00300
H 	H 	0.33830 0.65600 0.91770 0.02500
C 	C 	0.38966 0.69005 0.93585 -0.07000
H 	H 	0.38070 0.69740 0.95690 0.04700
C 	C 	0.42791 0.70385 0.92833 0.00400
C 	C 	0.44098 0.69303 0.89756 0.00000
C 	C 	0.47924 0.70683 0.89005 -0.06900
H 	H 	0.48820 0.69940 0.86900 0.04800
C 	C 	0.50442 0.73145 0.91331 -0.00200
H 	H 	0.53060 0.74090 0.90820 0.02900
C 	C 	0.49135 0.74227 0.94408 -0.08500
H 	H 	0.50860 0.75910 0.96000 0.06700
C 	C 	0.45310 0.72847 0.95160 0.03300
N 	N 	0.39512 0.75433 0.80892 -0.23000
C 	C 	0.37811 0.76998 0.83687 0.04900
C 	C 	0.40134 0.79602 0.86047 -0.09300
H 	H 	0.38970 0.80670 0.87960 0.06100
C 	C 	0.44159 0.80641 0.85612 0.01900
H 	H 	0.45750 0.82420 0.87220 0.02200
C 	C 	0.45860 0.79077 0.82817 -0.09800
H 	H 	0.48610 0.79790 0.82520 0.05900
C 	C 	0.43536 0.76473 0.80457 0.03900
H 	H 	0.44700 0.75400 0.78550 0.00500
N 	N 	0.31568 0.73572 0.81297 -0.19100
N 	N 	0.27459 0.73274 0.82051 -0.07700
C 	C 	0.27189 0.75528 0.85129 0.02000
H 	H 	0.24790 0.75850 0.86230 0.02300
C 	C 	0.31130 0.77218 0.86277 -0.07300
H 	H 	0.31830 0.78870 0.88280 0.05300
C 	C 	0.33836 0.76009 0.83909 0.02000
C 	C 	0.24490 0.70650 0.80326 -0.10000
H 	H 	0.24780 0.70840 0.77900 0.05500
H 	H 	0.21770 0.71870 0.80660 0.05700
N 	N 	0.04650 0.47656 0.84110 -0.22100
C 	C 	0.05366 0.45030 0.81385 0.04600
C 	C 	0.02408 0.42040 0.80047 -0.09800
H 	H 	0.02900 0.40250 0.78190 0.05900
C 	C 	0.98735 0.41670 0.81434 0.01700
H 	H 	0.96710 0.39620 0.80520 0.01900
C 	C 	0.98019 0.44290 0.84159 -0.09700
H 	H 	0.95510 0.44030 0.85110 0.05700
C 	C 	0.00977 0.47280 0.85497 0.03900
H 	H 	0.00490 0.49080 0.87360 0.01100
N 	N 	0.11889 0.48531 0.81806 -0.19600
N 	N 	0.15597 0.48027 0.80341 -0.07700
C 	C 	0.15011 0.44634 0.77879 0.01600
H 	H 	0.16990 0.43610 0.76510 0.02600
C 	C 	0.10940 0.43041 0.77821 -0.07600
H 	H 	0.09720 0.40760 0.76410 0.05200
C 	C 	0.09011 0.45450 0.80248 0.02000
C 	C 	0.18970 0.50640 0.81307 -0.10200
H 	H 	0.21410 0.49170 0.80580 0.05800
H 	H 	0.19360 0.50780 0.83790 0.05300
C 	C 	0.24621 0.65726 0.81370 0.03700
C 	C 	0.27903 0.64299 0.83603 -0.08900
H 	H 	0.29980 0.66330 0.84430 0.06600
C 	C 	0.28148 0.59894 0.84618 -0.00200
H 	H 	0.30390 0.58920 0.86140 0.02600
C 	C 	0.25112 0.56916 0.83401 -0.06900
H 	H 	0.25280 0.53910 0.84100 0.04800
C 	C 	0.21830 0.58343 0.81169 0.00200
C 	C 	0.21584 0.62749 0.80153 0.00200
C 	C 	0.18302 0.64176 0.77921 -0.07200
H 	H 	0.18130 0.67190 0.77230 0.04900
C 	C 	0.15266 0.61199 0.76704 0.00100
H 	H 	0.13020 0.62170 0.75180 0.02700
C 	C 	0.15511 0.56793 0.77720 -0.09100
H 	H 	0.13440 0.54760 0.76890 0.06800
C 	C 	0.18793 0.55366 0.79952 0.03700
N 	N 	0.38056 0.03783 0.10759 -0.22700
C 	C 	0.39664 0.03908 0.07698 0.04800
C 	C 	0.38626 0.07351 0.05458 -0.09400
H 	H 	0.39730 0.07440 0.03370 0.06000
C 	C 	0.35980 0.10668 0.06279 0.01900
H 	H 	0.35270 0.13020 0.04750 0.02100
C 	C 	0.34372 0.10542 0.09340 -0.09700
H 	H 	0.32560 0.12810 0.09900 0.05700
C 	C 	0.35410 0.07100 0.11580 0.03900
H 	H 	0.34310 0.07010 0.13670 0.00700
N 	N 	0.43130 0.97236 0.09499 -0.19500
N 	N 	0.46191 0.94455 0.08390 -0.07700
C 	C 	0.47235 0.96160 0.05296 0.01800
H 	H 	0.49200 0.94950 0.03990 0.02200
C 	C 	0.44819 0.99995 0.04493 -0.07800
H 	H 	0.44890 0.01800 0.02560 0.05200
C 	C 	0.42282 0.00660 0.07091 0.02200
C 	C 	0.47510 0.90610 0.09947 -0.09800
H 	H 	0.47490 0.90990 0.12400 0.05300
H 	H 	0.50390 0.90100 0.09530 0.05700
N 	N 	0.53373 0.59305 0.05072 -0.22500
C 	C 	0.51869 0.57800 0.07973 0.04700
C 	C 	0.53285 0.53831 0.09434 -0.09700
H 	H 	0.52260 0.52800 0.11420 0.05800
C 	C 	0.56204 0.51368 0.07994 0.01800
H 	H 	0.57170 0.48660 0.08990 0.01800
C 	C 	0.57707 0.52874 0.05093 -0.10000
H 	H 	0.59700 0.51190 0.04110 0.06000
C 	C 	0.56292 0.56842 0.03632 0.04100
H 	H 	0.57320 0.57870 0.01650 0.00400
N 	N 	0.47738 0.64301 0.07567 -0.19200
N 	N 	0.44754 0.66316 0.09372 -0.07600
C 	C 	0.44223 0.63588 0.12177 0.02100
H 	H 	0.42410 0.64140 0.13810 0.02400
C 	C 	0.46878 0.59887 0.12105 -0.07500
H 	H 	0.47150 0.57530 0.13690 0.05200
C 	C 	0.49050 0.60327 0.09256 0.02300
C 	C 	0.42860 0.70260 0.08465 -0.09700
H 	H 	0.40070 0.70220 0.09160 0.05800
H 	H 	0.42590 0.70520 0.05990 0.05000
C 	C 	0.45033 0.86481 0.08860 0.03700
C 	C 	0.41691 0.86980 0.06436 -0.09100
H 	H 	0.40910 0.89850 0.05630 0.06800
C 	C 	0.39494 0.83282 0.05200 -0.00300
H 	H 	0.37210 0.83620 0.03540 0.02500
C 	C 	0.40639 0.79084 0.06386 -0.07100
H 	H 	0.39140 0.76560 0.05540 0.04700
C 	C 	0.43981 0.78585 0.08810 0.00400
C 	C 	0.46178 0.82283 0.10047 -0.00000
C 	C 	0.49520 0.81784 0.12470 -0.07100
H 	H 	0.51020 0.84310 0.13320 0.04900
C 	C 	0.50665 0.77586 0.13657 -0.00300
H 	H 	0.52950 0.77250 0.15310 0.02800
C 	C 	0.48469 0.73888 0.12421 -0.08700
H 	H 	0.49250 0.71020 0.13230 0.06700
C 	C 	0.45126 0.74387 0.09997 0.03400
Co	Co	0.26598 0.45861 0.11576 1.12100
Co	Co	0.14439 0.78609 0.22376 1.12000
Co	Co	0.09873 0.51652 0.86114 1.12100
Co	Co	0.51310 0.65825 0.03503 1.12000
N 	N 	0.29961 0.45698 0.07331 -0.22900
C 	C 	0.29251 0.49292 0.05174 0.05100
C 	C 	0.31038 0.49430 0.02195 -0.09600
H 	H 	0.30550 0.51890 0.00720 0.06100
C 	C 	0.33537 0.45975 0.01372 0.02500
H 	H 	0.34760 0.46070 0.99340 0.01700
C 	C 	0.34247 0.42382 0.03529 -0.10400
H 	H 	0.35950 0.40020 0.02970 0.06600
C 	C 	0.32459 0.42243 0.06509 0.04500
H 	H 	0.32940 0.39790 0.07980 0.00300
N 	N 	0.24492 0.51793 0.08863 -0.19300
N 	N 	0.21649 0.55322 0.08942 -0.07600
C 	C 	0.21989 0.58073 0.06112 0.01800
H 	H 	0.20450 0.60680 0.05540 0.02300
C 	C 	0.25043 0.56243 0.04284 -0.07300
H 	H 	0.25900 0.57410 0.02280 0.05300
C 	C 	0.26590 0.52362 0.05984 0.01900
C 	C 	0.19260 0.56100 0.11500 -0.10300
H 	H 	0.16630 0.57400 0.10520 0.05800
H 	H 	0.18650 0.53230 0.12530 0.05800
N 	N 	0.09863 0.79967 0.25819 -0.21900
C 	C 	0.09856 0.76935 0.28429 0.04400
C 	C 	0.07203 0.77509 0.30860 -0.10100
H 	H 	0.07200 0.75440 0.32640 0.05900
C 	C 	0.04556 0.81110 0.30679 0.01700
H 	H 	0.02740 0.81510 0.32340 0.01500
C 	C 	0.04563 0.84145 0.28069 -0.09800
H 	H 	0.02750 0.86610 0.27950 0.05700
C 	C 	0.07216 0.83572 0.25638 0.03700
H 	H 	0.07220 0.85640 0.23850 0.01200
N 	N 	0.15325 0.73469 0.25968 -0.20000
N 	N 	0.17979 0.69798 0.26693 -0.07700
C 	C 	0.16890 0.67712 0.29641 0.01800
H 	H 	0.18160 0.65170 0.30690 0.02400
C 	C 	0.13561 0.70093 0.30738 -0.08100
H 	H 	0.12220 0.69420 0.32650 0.05300
C 	C 	0.12594 0.73652 0.28468 0.02000
C 	C 	0.20580 0.68350 0.24447 -0.10200
H 	H 	0.21650 0.70970 0.23340 0.05400
H 	H 	0.22940 0.66840 0.25720 0.05800
C 	C 	0.21212 0.59193 0.14263 0.03900
C 	C 	0.25271 0.60445 0.14201 -0.09000
H 	H 	0.26780 0.59360 0.12490 0.06700
C 	C 	0.27125 0.63282 0.16649 -0.00200
H 	H 	0.29900 0.64140 0.16610 0.02500
C 	C 	0.24920 0.64869 0.19160 -0.07100
H 	H 	0.26190 0.66810 0.20830 0.04900
C 	C 	0.20861 0.63617 0.19222 0.00100
C 	C 	0.19007 0.60780 0.16773 -0.00100
C 	C 	0.14948 0.59528 0.16835 -0.07000
H 	H 	0.13680 0.57590 0.15160 0.04800
C 	C 	0.12743 0.61115 0.19346 -0.00200
H 	H 	0.09970 0.60260 0.19390 0.02600
C 	C 	0.14596 0.63953 0.21794 -0.08900
H 	H 	0.13090 0.65040 0.23510 0.06800
C 	C 	0.18655 0.65204 0.21732 0.03700
N 	N 	0.29087 0.39681 0.13630 -0.22200
C 	C 	0.26798 0.35960 0.12584 0.04500
C 	C 	0.28264 0.31754 0.13477 -0.09800
H 	H 	0.26700 0.29210 0.12760 0.05800
C 	C 	0.32018 0.31270 0.15416 0.01900
H 	H 	0.33020 0.28400 0.16030 0.02300
C 	C 	0.34306 0.34991 0.16463 -0.09900
H 	H 	0.36870 0.34660 0.17790 0.06600
C 	C 	0.32841 0.39197 0.15570 0.04200
H 	H 	0.34410 0.41740 0.16280 0.01000
N 	N 	0.22474 0.41018 0.09357 -0.19800
N 	N 	0.18533 0.41045 0.07497 -0.07900
C 	C 	0.16862 0.36718 0.07631 0.01800
H 	H 	0.14260 0.35790 0.06600 0.02100
C 	C 	0.19770 0.34018 0.09574 -0.08100
H 	H 	0.19450 0.30970 0.10070 0.05200
C 	C 	0.23238 0.36675 0.10641 0.02100
C 	C 	0.17220 0.44580 0.05525 -0.10000
H 	H 	0.14210 0.44390 0.05010 0.05700
H 	H 	0.17840 0.47330 0.06830 0.05300
N 	N 	0.08021 0.57460 0.83425 -0.23100
C 	C 	0.10383 0.61199 0.84272 0.04900
C 	C 	0.09206 0.65286 0.82883 -0.09500
H 	H 	0.10820 0.67840 0.83460 0.06100
C 	C 	0.05666 0.65634 0.80648 0.01800
H 	H 	0.04860 0.68430 0.79700 0.02000
C 	C 	0.03304 0.61895 0.79802 -0.09800
H 	H 	0.00880 0.62130 0.78270 0.05700
C 	C 	0.04481 0.57808 0.81190 0.03700
H 	H 	0.02870 0.55250 0.80610 0.00400
N 	N 	0.14797 0.56163 0.87576 -0.19500
N 	N 	0.18693 0.56272 0.89506 -0.07700
C 	C 	0.20176 0.60691 0.89493 0.02100
H 	H 	0.22720 0.61710 0.90590 0.02400
C 	C 	0.17196 0.63312 0.87555 -0.07300
H 	H 	0.17390 0.66400 0.87130 0.05400
C 	C 	0.13872 0.60513 0.86371 0.02300
C 	C 	0.20320 0.52820 0.91465 -0.10100
H 	H 	0.19650 0.50020 0.90250 0.05300
H 	H 	0.23340 0.53130 0.91750 0.05800
C 	C 	0.19102 0.44984 0.02190 0.03600
C 	C 	0.21717 0.41694 0.01273 -0.08800
H 	H 	0.22370 0.39240 0.02720 0.06900
C 	C 	0.23378 0.41999 0.98242 -0.00000
H 	H 	0.25170 0.39750 0.97610 0.02700
C 	C 	0.22424 0.45593 0.96129 -0.07000
H 	H 	0.23560 0.45800 0.94060 0.04800
C 	C 	0.19809 0.48883 0.97046 0.00000
C 	C 	0.18148 0.48578 0.00077 0.00200
C 	C 	0.15533 0.51868 0.00995 -0.07100
H 	H 	0.14400 0.51660 0.03070 0.05000
C 	C 	0.14578 0.55463 0.98882 -0.00100
H 	H 	0.12790 0.57710 0.99510 0.02500
C 	C 	0.16239 0.55767 0.95851 -0.09200
H 	H 	0.15590 0.58220 0.94410 0.06800
C 	C 	0.18854 0.52478 0.94933 0.03700
N 	N 	0.22867 0.46796 0.15540 -0.22600
C 	C 	0.24637 0.49371 0.18193 0.04400
C 	C 	0.22363 0.50572 0.20770 -0.09300
H 	H 	0.23570 0.52330 0.22580 0.05900
C 	C 	0.18319 0.49198 0.20695 0.01400
H 	H 	0.16760 0.50020 0.22460 0.02600
C 	C 	0.16549 0.46623 0.18043 -0.09500
H 	H 	0.13780 0.45680 0.17990 0.05700
C 	C 	0.18823 0.45422 0.15466 0.03300
H 	H 	0.17610 0.43660 0.13650 0.01100
N 	N 	0.30550 0.49249 0.15273 -0.19800
N 	N 	0.34762 0.50370 0.15884 -0.07800
C 	C 	0.35486 0.52170 0.19171 0.01900
H 	H 	0.38040 0.53200 0.20230 0.02200
C 	C 	0.31721 0.52160 0.20592 -0.07900
H 	H 	0.31310 0.53180 0.22770 0.05200
C 	C 	0.28670 0.50356 0.18182 0.02500
C 	C 	0.37350 0.49950 0.13480 -0.09700
H 	H 	0.40190 0.49740 0.14610 0.05700
H 	H 	0.36730 0.47140 0.12260 0.04800
N 	N 	0.55252 0.66304 0.99509 -0.22100
C 	C 	0.53733 0.64219 0.96533 0.04500
C 	C 	0.55892 0.64443 0.93749 -0.09600
H 	H 	0.54850 0.63020 0.91720 0.05800
C 	C 	0.59569 0.66751 0.93941 0.01400
H 	H 	0.61040 0.66900 0.92040 0.02100
C 	C 	0.61087 0.68836 0.96916 -0.09900
H 	H 	0.63600 0.70410 0.97050 0.05900
C 	C 	0.58929 0.68612 0.99700 0.04000
H 	H 	0.59970 0.70040 0.01730 0.00700
N 	N 	0.47764 0.63036 0.99245 -0.19700
N 	N 	0.43841 0.61080 0.98483 -0.07700
C 	C 	0.43634 0.59232 0.95210 0.02300
H 	H 	0.41360 0.57720 0.94060 0.02300
C 	C 	0.47430 0.60046 0.93948 -0.07600
H 	H 	0.48140 0.59170 0.91810 0.05200
C 	C 	0.49982 0.62397 0.96442 0.02500
C 	C 	0.40975 0.61010 0.00708 -0.09700
H 	H 	0.41210 0.63790 0.02030 0.04700
H 	H 	0.38220 0.60980 0.99420 0.05700
C 	C 	0.37181 0.53697 0.10924 0.03300
C 	C 	0.34643 0.57262 0.11422 -0.08900
H 	H 	0.33130 0.57300 0.13310 0.06600
C 	C 	0.34317 0.60774 0.09163 -0.00400
H 	H 	0.32580 0.63210 0.09500 0.02600
C 	C 	0.36530 0.60720 0.06406 -0.06800
H 	H 	0.36310 0.63120 0.04860 0.04600
C 	C 	0.39068 0.57154 0.05908 0.00300
C 	C 	0.39394 0.53642 0.08167 0.00200
C 	C 	0.41932 0.50076 0.07670 -0.07000
H 	H 	0.42150 0.47680 0.09210 0.04800
C 	C 	0.44145 0.50022 0.04913 -0.00100
H 	H 	0.45880 0.47580 0.04570 0.03000
C 	C 	0.43820 0.53533 0.02654 -0.08800
H 	H 	0.45330 0.53500 0.00770 0.06800
C 	C 	0.41281 0.57099 0.03152 0.03300
N 	N 	0.18853 0.82855 0.25035 -0.22700
C 	C 	0.18635 0.87277 0.24062 0.04700
C 	C 	0.21567 0.90269 0.25450 -0.08900
H 	H 	0.21420 0.93290 0.24780 0.06100
C 	C 	0.24716 0.88838 0.27810 0.01400
H 	H 	0.26720 0.90880 0.28760 0.03100
C 	C 	0.24934 0.84416 0.28783 -0.09000
H 	H 	0.27090 0.83440 0.30400 0.05800
C 	C 	0.22003 0.81424 0.27396 0.03700
H 	H 	0.22150 0.78400 0.28060 0.00500
N 	N 	0.13037 0.84978 0.20190 -0.19600
N 	N 	0.09849 0.86951 0.17999 -0.07800
C 	C 	0.10363 0.91620 0.18180 0.01800
H 	H 	0.08660 0.93760 0.16970 0.02100
C 	C 	0.13869 0.92532 0.20484 -0.07900
H 	H 	0.14920 0.95390 0.21090 0.05200
C 	C 	0.15522 0.88427 0.21726 0.02400
C 	C 	0.07010 0.84530 0.15927 -0.10200
H 	H 	0.06310 0.81830 0.17140 0.05200
H 	H 	0.04480 0.86310 0.15480 0.05700
N 	N 	0.94189 0.81080 0.92934 -0.22400
C 	C 	0.94221 0.76476 0.93042 0.04600
C 	C 	0.91358 0.74076 0.90955 -0.09700
H 	H 	0.91380 0.70930 0.91030 0.05900
C 	C 	0.88464 0.76279 0.88760 0.01600
H 	H 	0.86510 0.74640 0.87330 0.01700
C 	C 	0.88432 0.80883 0.88652 -0.09800
H 	H 	0.86450 0.82390 0.87150 0.05700
C 	C 	0.91294 0.83283 0.90740 0.04000
H 	H 	0.91270 0.86430 0.90670 0.00600
N 	N 	0.00100 0.77340 0.97090 -0.19700
N 	N 	0.02891 0.74574 0.99092 -0.07700
C 	C 	0.01706 0.70103 0.98446 0.02100
H 	H 	0.03040 0.67560 0.99440 0.02500
C 	C 	0.98183 0.70106 0.96044 -0.07400
H 	H 	0.96740 0.67560 0.95150 0.05200
C 	C 	0.97190 0.74579 0.95206 0.02300
C 	C 	0.05910 0.76110 0.01384 -0.09500
H 	H 	0.08140 0.73880 0.01640 0.05700
H 	H 	0.07050 0.78840 0.00480 0.04800
C 	C 	0.08420 0.83159 0.12570 0.03700
C 	C 	0.12246 0.84539 0.11819 -0.09000
H 	H 	0.13970 0.86220 0.13410 0.06600
C 	C 	0.13553 0.83457 0.08741 -0.00300
H 	H 	0.16170 0.84400 0.08230 0.02500
C 	C 	0.11034 0.80995 0.06415 -0.07000
H 	H 	0.11930 0.80260 0.04310 0.04700
C 	C 	0.07209 0.79615 0.07167 0.00400
C 	C 	0.05902 0.80697 0.10244 0.00000
C 	C 	0.02076 0.79317 0.10995 -0.06900
H 	H 	0.01180 0.80060 0.13100 0.04800
C 	C 	0.99558 0.76855 0.08669 -0.00200
H 	H 	0.96940 0.75910 0.09180 0.02800
C 	C 	0.00865 0.75773 0.05592 -0.08600
H 	H 	0.99140 0.74090 0.04000 0.06700
C 	C 	0.04690 0.77153 0.04840 0.03400
N 	N 	0.10488 0.74567 0.19108 -0.23000
C 	C 	0.12189 0.73002 0.16313 0.04900
C 	C 	0.09866 0.70398 0.13953 -0.09300
H 	H 	0.11030 0.69330 0.12040 0.06100
C 	C 	0.05841 0.69359 0.14388 0.01900
H 	H 	0.04250 0.67580 0.12780 0.02200
C 	C 	0.04140 0.70923 0.17183 -0.09800
H 	H 	0.01390 0.70210 0.17480 0.05900
C 	C 	0.06464 0.73527 0.19543 0.03900
H 	H 	0.05300 0.74600 0.21450 0.00500
N 	N 	0.18432 0.76428 0.18703 -0.19100
N 	N 	0.22541 0.76726 0.17949 -0.07700
C 	C 	0.22811 0.74472 0.14871 0.02000
H 	H 	0.25210 0.74150 0.13770 0.02300
C 	C 	0.18870 0.72782 0.13723 -0.07300
H 	H 	0.18170 0.71130 0.11720 0.05300
C 	C 	0.16164 0.73991 0.16091 0.02000
C 	C 	0.25510 0.79350 0.19674 -0.10000
H 	H 	0.25220 0.79160 0.22100 0.05500
H 	H 	0.28230 0.78130 0.19340 0.05700
N 	N 	0.45350 0.02344 0.15890 -0.22000
C 	C 	0.44634 0.04970 0.18615 0.04600
C 	C 	0.47592 0.07960 0.19953 -0.09800
H 	H 	0.47100 0.09750 0.21810 0.05900
C 	C 	0.51265 0.08330 0.18566 0.01700
H 	H 	0.53290 0.10380 0.19480 0.01900
C 	C 	0.51981 0.05710 0.15841 -0.09700
H 	H 	0.54490 0.05970 0.14890 0.05700
C 	C 	0.49023 0.02720 0.14503 0.03900
H 	H 	0.49510 0.00920 0.12640 0.01100
N 	N 	0.38111 0.01469 0.18194 -0.19600
N 	N 	0.34403 0.01973 0.19659 -0.07700
C 	C 	0.34989 0.05366 0.22121 0.01600
H 	H 	0.33010 0.06390 0.23490 0.02600
C 	C 	0.39060 0.06959 0.22179 -0.07600
H 	H 	0.40280 0.09240 0.23590 0.05200
C 	C 	0.40989 0.04550 0.19752 0.02000
C 	C 	0.31030 0.99360 0.18693 -0.10300
H 	H 	0.28590 0.00830 0.19420 0.05800
H 	H 	0.30640 0.99220 0.16210 0.05300
C 	C 	0.25379 0.84274 0.18630 0.03700
C 	C 	0.22097 0.85701 0.16397 -0.08900
H 	H 	0.20020 0.83670 0.15570 0.06600
C 	C 	0.21852 0.90106 0.15382 -0.00200
H 	H 	0.19610 0.91080 0.13860 0.02600
C 	C 	0.24888 0.93084 0.16599 -0.06900
H 	H 	0.24720 0.96090 0.15900 0.04800
C 	C 	0.28170 0.91657 0.18831 0.00200
C 	C 	0.28416 0.87251 0.19847 0.00200
C 	C 	0.31698 0.85824 0.22079 -0.07200
H 	H 	0.31870 0.82810 0.22770 0.04900
C 	C 	0.34734 0.88801 0.23296 0.00100
H 	H 	0.36980 0.87830 0.24820 0.02700
C 	C 	0.34489 0.93207 0.22280 -0.09100
H 	H 	0.36560 0.95240 0.23110 0.06800
C 	C 	0.31207 0.94634 0.20048 0.03700
N 	N 	0.11944 0.46217 0.89241 -0.22700
C 	C 	0.10336 0.46092 0.92302 0.04800
C 	C 	0.11374 0.42649 0.94542 -0.09400
H 	H 	0.10270 0.42560 0.96630 0.06000
C 	C 	0.14020 0.39332 0.93721 0.01900
H 	H 	0.14730 0.36980 0.95250 0.02100
C 	C 	0.15628 0.39458 0.90660 -0.09700
H 	H 	0.17440 0.37190 0.90100 0.05700
C 	C 	0.14590 0.42900 0.88420 0.03900
H 	H 	0.15690 0.42990 0.86330 0.00700
N 	N 	0.06870 0.52764 0.90501 -0.19500
N 	N 	0.03809 0.55545 0.91610 -0.07700
C 	C 	0.02765 0.53840 0.94704 0.01800
H 	H 	0.00800 0.55050 0.96010 0.02200
C 	C 	0.05181 0.50005 0.95507 -0.07800
H 	H 	0.05110 0.48200 0.97440 0.05200
C 	C 	0.07718 0.49340 0.92909 0.02200
C 	C 	0.02490 0.59390 0.90053 -0.09800
H 	H 	0.02510 0.59010 0.87600 0.05300
H 	H 	0.99610 0.59900 0.90470 0.05700
N 	N 	0.96627 0.90695 0.94928 -0.22500
C 	C 	0.98131 0.92200 0.92027 0.04600
C 	C 	0.96715 0.96169 0.90566 -0.09700
H 	H 	0.97740 0.97200 0.88580 0.05800
C 	C 	0.93796 0.98632 0.92006 0.01800
H 	H 	0.92830 0.01340 0.91010 0.01800
C 	C 	0.92293 0.97126 0.94907 -0.10000
H 	H 	0.90300 0.98810 0.95890 0.06000
C 	C 	0.93708 0.93158 0.96368 0.04100
H 	H 	0.92680 0.92130 0.98350 0.00400
N 	N 	0.02262 0.85699 0.92433 -0.19200
N 	N 	0.05246 0.83684 0.90628 -0.07600
C 	C 	0.05777 0.86412 0.87823 0.02100
H 	H 	0.07590 0.85860 0.86190 0.02400
C 	C 	0.03122 0.90113 0.87895 -0.07500
H 	H 	0.02850 0.92470 0.86310 0.05200
C 	C 	0.00950 0.89673 0.90744 0.02300
C 	C 	0.07140 0.79740 0.91535 -0.09700
H 	H 	0.09930 0.79780 0.90840 0.05800
H 	H 	0.07410 0.79480 0.94010 0.05000
C 	C 	0.04967 0.63519 0.91140 0.03700
C 	C 	0.08309 0.63020 0.93564 -0.09100
H 	H 	0.09090 0.60150 0.94370 0.06800
C 	C 	0.10506 0.66718 0.94800 -0.00300
H 	H 	0.12790 0.66380 0.96460 0.02500
C 	C 	0.09361 0.70916 0.93614 -0.07100
H 	H 	0.10860 0.73440 0.94460 0.04700
C 	C 	0.06019 0.71415 0.91190 0.00400
C 	C 	0.03822 0.67717 0.89953 -0.00000
C 	C 	0.00480 0.68216 0.87530 -0.07000
H 	H 	0.98980 0.65690 0.86680 0.04900
C 	C 	0.99335 0.72414 0.86343 -0.00300
H 	H 	0.97050 0.72750 0.84690 0.02800
C 	C 	0.01531 0.76112 0.87579 -0.08600
H 	H 	0.00750 0.78980 0.86770 0.06700
C 	C 	0.04874 0.75613 0.90003 0.03400
Co	Co	0.73402 0.54139 0.88424 1.12100
Co	Co	0.85561 0.21391 0.77624 1.12000
Co	Co	0.90127 0.48348 0.13886 1.12100
Co	Co	0.48690 0.34175 0.96497 1.12000
N 	N 	0.70039 0.54302 0.92669 -0.22900
C 	C 	0.70749 0.50708 0.94826 0.05100
C 	C 	0.68962 0.50570 0.97805 -0.09600
H 	H 	0.69450 0.48110 0.99280 0.06100
C 	C 	0.66463 0.54025 0.98628 0.02500
H 	H 	0.65240 0.53930 0.00660 0.01700
C 	C 	0.65753 0.57618 0.96471 -0.10400
H 	H 	0.64050 0.59980 0.97030 0.06600
C 	C 	0.67541 0.57757 0.93491 0.04500
H 	H 	0.67060 0.60210 0.92020 0.00300
N 	N 	0.75508 0.48207 0.91137 -0.19300
N 	N 	0.78351 0.44678 0.91058 -0.07600
C 	C 	0.78011 0.41927 0.93888 0.01800
H 	H 	0.79550 0.39320 0.94460 0.02300
C 	C 	0.74957 0.43757 0.95716 -0.07300
H 	H 	0.74100 0.42590 0.97720 0.05300
C 	C 	0.73410 0.47638 0.94016 0.01900
C 	C 	0.80740 0.43900 0.88500 -0.10300
H 	H 	0.83370 0.42600 0.89480 0.05800
H 	H 	0.81350 0.46770 0.87470 0.05800
N 	N 	0.90137 0.20033 0.74181 -0.21900
C 	C 	0.90144 0.23065 0.71571 0.04400
C 	C 	0.92797 0.22491 0.69140 -0.10100
H 	H 	0.92800 0.24560 0.67360 0.05900
C 	C 	0.95444 0.18890 0.69321 0.01700
H 	H 	0.97260 0.18490 0.67660 0.01500
C 	C 	0.95437 0.15855 0.71931 -0.09800
H 	H 	0.97250 0.13390 0.72050 0.05700
C 	C 	0.92784 0.16428 0.74362 0.03700
H 	H 	0.92780 0.14360 0.76150 0.01200
N 	N 	0.84675 0.26531 0.74032 -0.20000
N 	N 	0.82021 0.30202 0.73307 -0.07700
C 	C 	0.83110 0.32288 0.70359 0.01800
H 	H 	0.81840 0.34830 0.69310 0.02400
C 	C 	0.86439 0.29907 0.69262 -0.08100
H 	H 	0.87780 0.30580 0.67350 0.05300
C 	C 	0.87406 0.26348 0.71532 0.02000
C 	C 	0.79420 0.31650 0.75553 -0.10200
H 	H 	0.78350 0.29030 0.76660 0.05400
H 	H 	0.77060 0.33160 0.74280 0.05800
C 	C 	0.78788 0.40807 0.85737 0.03900
C 	C 	0.74729 0.39555 0.85799 -0.09000
H 	H 	0.73220 0.40640 0.87510 0.06700
C 	C 	0.72875 0.36718 0.83351 -0.00200
H 	H 	0.70100 0.35860 0.83390 0.02500
C 	C 	0.75080 0.35131 0.80840 -0.07100
H 	H 	0.73810 0.33190 0.79170 0.04900
C 	C 	0.79139 0.36383 0.80778 0.00100
C 	C 	0.80993 0.39220 0.83227 -0.00100
C 	C 	0.85052 0.40472 0.83165 -0.07000
H 	H 	0.86320 0.42410 0.84840 0.04800
C 	C 	0.87257 0.38885 0.80654 -0.00200
H 	H 	0.90030 0.39740 0.80610 0.02600
C 	C 	0.85404 0.36047 0.78206 -0.08900
H 	H 	0.86910 0.34960 0.76490 0.06800
C 	C 	0.81345 0.34796 0.78268 0.03700
N 	N 	0.70913 0.60319 0.86370 -0.22200
C 	C 	0.73202 0.64040 0.87416 0.04500
C 	C 	0.71736 0.68246 0.86523 -0.09800
H 	H 	0.73300 0.70790 0.87240 0.05800
C 	C 	0.67982 0.68730 0.84584 0.01900
H 	H 	0.66980 0.71600 0.83970 0.02300
C 	C 	0.65694 0.65009 0.83537 -0.09900
H 	H 	0.63130 0.65340 0.82210 0.06600
C 	C 	0.67159 0.60803 0.84430 0.04200
H 	H 	0.65590 0.58260 0.83720 0.01000
N 	N 	0.77526 0.58982 0.90643 -0.19800
N 	N 	0.81467 0.58955 0.92503 -0.07900
C 	C 	0.83138 0.63282 0.92369 0.01800
H 	H 	0.85740 0.64210 0.93400 0.02100
C 	C 	0.80230 0.65982 0.90426 -0.08100
H 	H 	0.80550 0.69030 0.89930 0.05200
C 	C 	0.76762 0.63325 0.89359 0.02100
C 	C 	0.82780 0.55420 0.94475 -0.10000
H 	H 	0.85790 0.55610 0.94990 0.05700
H 	H 	0.82160 0.52670 0.93170 0.05300
N 	N 	0.91979 0.42540 0.16575 -0.23100
C 	C 	0.89617 0.38801 0.15728 0.04900
C 	C 	0.90794 0.34714 0.17117 -0.09500
H 	H 	0.89180 0.32160 0.16540 0.06100
C 	C 	0.94334 0.34366 0.19352 0.01800
H 	H 	0.95140 0.31570 0.20300 0.02000
C 	C 	0.96696 0.38105 0.20198 -0.09800
H 	H 	0.99120 0.37870 0.21730 0.05700
C 	C 	0.95519 0.42192 0.18810 0.03700
H 	H 	0.97130 0.44750 0.19390 0.00400
N 	N 	0.85203 0.43837 0.12424 -0.19500
N 	N 	0.81307 0.43728 0.10494 -0.07700
C 	C 	0.79824 0.39309 0.10507 0.02100
H 	H 	0.77280 0.38290 0.09410 0.02400
C 	C 	0.82804 0.36688 0.12445 -0.07300
H 	H 	0.82610 0.33600 0.12870 0.05400
C 	C 	0.86128 0.39487 0.13629 0.02300
C 	C 	0.79680 0.47180 0.08535 -0.10100
H 	H 	0.80350 0.49980 0.09750 0.05300
H 	H 	0.76660 0.46870 0.08250 0.05800
C 	C 	0.80898 0.55016 0.97810 0.03600
C 	C 	0.78283 0.58306 0.98727 -0.08800
H 	H 	0.77630 0.60760 0.97280 0.06900
C 	C 	0.76622 0.58001 0.01758 -0.00000
H 	H 	0.74830 0.60250 0.02390 0.02700
C 	C 	0.77576 0.54407 0.03871 -0.07000
H 	H 	0.76440 0.54200 0.05940 0.04800
C 	C 	0.80191 0.51117 0.02954 0.00000
C 	C 	0.81852 0.51422 0.99923 0.00200
C 	C 	0.84467 0.48132 0.99005 -0.07100
H 	H 	0.85600 0.48340 0.96930 0.05000
C 	C 	0.85422 0.44537 0.01118 -0.00100
H 	H 	0.87210 0.42290 0.00490 0.02500
C 	C 	0.83761 0.44233 0.04149 -0.09200
H 	H 	0.84410 0.41780 0.05590 0.06800
C 	C 	0.81146 0.47522 0.05067 0.03700
N 	N 	0.77133 0.53204 0.84460 -0.22600
C 	C 	0.75363 0.50629 0.81807 0.04400
C 	C 	0.77637 0.49428 0.79230 -0.09300
H 	H 	0.76430 0.47670 0.77420 0.05900
C 	C 	0.81681 0.50802 0.79305 0.01400
H 	H 	0.83240 0.49980 0.77540 0.02600
C 	C 	0.83451 0.53377 0.81957 -0.09500
H 	H 	0.86220 0.54320 0.82010 0.05700
C 	C 	0.81177 0.54578 0.84534 0.03300
H 	H 	0.82390 0.56340 0.86350 0.01100
N 	N 	0.69450 0.50751 0.84727 -0.19800
N 	N 	0.65238 0.49630 0.84116 -0.07800
C 	C 	0.64514 0.47830 0.80829 0.01900
H 	H 	0.61960 0.46800 0.79770 0.02200
C 	C 	0.68279 0.47840 0.79408 -0.07900
H 	H 	0.68690 0.46820 0.77230 0.05200
C 	C 	0.71330 0.49644 0.81818 0.02500
C 	C 	0.62650 0.50050 0.86520 -0.09700
H 	H 	0.59810 0.50260 0.85390 0.05700
H 	H 	0.63270 0.52860 0.87740 0.04800
N 	N 	0.44748 0.33696 0.00491 -0.22100
C 	C 	0.46267 0.35781 0.03467 0.04500
C 	C 	0.44108 0.35557 0.06251 -0.09600
H 	H 	0.45150 0.36980 0.08280 0.05800
C 	C 	0.40431 0.33249 0.06059 0.01400
H 	H 	0.38960 0.33100 0.07960 0.02100
C 	C 	0.38913 0.31164 0.03084 -0.09900
H 	H 	0.36400 0.29590 0.02950 0.05900
C 	C 	0.41071 0.31388 0.00300 0.04000
H 	H 	0.40030 0.29960 0.98270 0.00700
N 	N 	0.52236 0.36964 0.00755 -0.19700
N 	N 	0.56159 0.38920 0.01517 -0.07700
C 	C 	0.56366 0.40768 0.04790 0.02300
H 	H 	0.58640 0.42280 0.05940 0.02300
C 	C 	0.52570 0.39954 0.06052 -0.07600
H 	H 	0.51860 0.40830 0.08190 0.05200
C 	C 	0.50018 0.37603 0.03558 0.02500
C 	C 	0.59025 0.38990 0.99292 -0.09700
H 	H 	0.58790 0.36210 0.97970 0.04700
H 	H 	0.61780 0.39020 0.00580 0.05700
C 	C 	0.62819 0.46303 0.89076 0.03300
C 	C 	0.65357 0.42738 0.88578 -0.08900
H 	H 	0.66870 0.42700 0.86690 0.06600
C 	C 	0.65683 0.39226 0.90837 -0.00400
H 	H 	0.67420 0.36790 0.90500 0.02600
C 	C 	0.63470 0.39280 0.93594 -0.06800
H 	H 	0.63690 0.36880 0.95140 0.04600
C 	C 	0.60932 0.42846 0.94092 0.00300
C 	C 	0.60606 0.46358 0.91833 0.00200
C 	C 	0.58068 0.49924 0.92330 -0.07000
H 	H 	0.57850 0.52320 0.90790 0.04800
C 	C 	0.55855 0.49978 0.95087 -0.00100
H 	H 	0.54120 0.52420 0.95430 0.03000
C 	C 	0.56180 0.46467 0.97346 -0.08800
H 	H 	0.54670 0.46500 0.99230 0.06800
C 	C 	0.58719 0.42901 0.96848 0.03300
N 	N 	0.81147 0.17145 0.74965 -0.22700
C 	C 	0.81365 0.12723 0.75938 0.04700
C 	C 	0.78433 0.09731 0.74550 -0.08900
H 	H 	0.78580 0.06710 0.75220 0.06100
C 	C 	0.75284 0.11162 0.72190 0.01400
H 	H 	0.73280 0.09120 0.71240 0.03100
C 	C 	0.75066 0.15584 0.71217 -0.09000
H 	H 	0.72910 0.16560 0.69600 0.05800
C 	C 	0.77997 0.18576 0.72604 0.03700
H 	H 	0.77850 0.21600 0.71940 0.00500
N 	N 	0.86963 0.15022 0.79810 -0.19600
N 	N 	0.90151 0.13049 0.82001 -0.07800
C 	C 	0.89637 0.08380 0.81820 0.01800
H 	H 	0.91340 0.06240 0.83030 0.02100
C 	C 	0.86131 0.07468 0.79516 -0.07900
H 	H 	0.85080 0.04610 0.78910 0.05200
C 	C 	0.84478 0.11573 0.78274 0.02400
C 	C 	0.92990 0.15470 0.84073 -0.10200
H 	H 	0.93690 0.18170 0.82860 0.05200
H 	H 	0.95520 0.13690 0.84520 0.05700
N 	N 	0.05811 0.18920 0.07066 -0.22400
C 	C 	0.05779 0.23524 0.06958 0.04600
C 	C 	0.08642 0.25924 0.09045 -0.09700
H 	H 	0.08620 0.29070 0.08970 0.05900
C 	C 	0.11536 0.23721 0.11240 0.01600
H 	H 	0.13490 0.25360 0.12670 0.01700
C 	C 	0.11568 0.19117 0.11348 -0.09800
H 	H 	0.13550 0.17610 0.12850 0.05700
C 	C 	0.08706 0.16717 0.09260 0.04000
H 	H 	0.08730 0.13570 0.09330 0.00600
N 	N 	0.99900 0.22660 0.02910 -0.19700
N 	N 	0.97109 0.25426 0.00908 -0.07700
C 	C 	0.98294 0.29897 0.01554 0.02100
H 	H 	0.96960 0.32440 0.00560 0.02500
C 	C 	0.01817 0.29894 0.03956 -0.07400
H 	H 	0.03260 0.32440 0.04850 0.05200
C 	C 	0.02810 0.25421 0.04794 0.02300
C 	C 	0.94090 0.23890 0.98616 -0.09500
H 	H 	0.91860 0.26120 0.98360 0.05700
H 	H 	0.92950 0.21160 0.99520 0.04800
C 	C 	0.91580 0.16841 0.87430 0.03700
C 	C 	0.87754 0.15461 0.88181 -0.09000
H 	H 	0.86030 0.13780 0.86590 0.06600
C 	C 	0.86447 0.16543 0.91259 -0.00300
H 	H 	0.83830 0.15600 0.91770 0.02500
C 	C 	0.88966 0.19005 0.93585 -0.07000
H 	H 	0.88070 0.19740 0.95690 0.04700
C 	C 	0.92791 0.20385 0.92833 0.00400
C 	C 	0.94098 0.19303 0.89756 0.00000
C 	C 	0.97924 0.20683 0.89005 -0.06900
H 	H 	0.98820 0.19940 0.86900 0.04800
C 	C 	0.00442 0.23145 0.91331 -0.00200
H 	H 	0.03060 0.24090 0.90820 0.02800
C 	C 	0.99135 0.24227 0.94408 -0.08600
H 	H 	0.00860 0.25910 0.96000 0.06700
C 	C 	0.95310 0.22847 0.95160 0.03400
N 	N 	0.89512 0.25433 0.80892 -0.23000
C 	C 	0.87811 0.26998 0.83687 0.04900
C 	C 	0.90134 0.29602 0.86047 -0.09300
H 	H 	0.88970 0.30670 0.87960 0.06100
C 	C 	0.94159 0.30641 0.85612 0.01900
H 	H 	0.95750 0.32420 0.87220 0.02200
C 	C 	0.95860 0.29077 0.82817 -0.09800
H 	H 	0.98610 0.29790 0.82520 0.05900
C 	C 	0.93536 0.26473 0.80457 0.03900
H 	H 	0.94700 0.25400 0.78550 0.00500
N 	N 	0.81568 0.23572 0.81297 -0.19100
N 	N 	0.77459 0.23274 0.82051 -0.07700
C 	C 	0.77189 0.25528 0.85129 0.02000
H 	H 	0.74790 0.25850 0.86230 0.02300
C 	C 	0.81130 0.27218 0.86277 -0.07300
H 	H 	0.81830 0.28870 0.88280 0.05300
C 	C 	0.83836 0.26009 0.83909 0.02000
C 	C 	0.74490 0.20650 0.80326 -0.10000
H 	H 	0.74780 0.20840 0.77900 0.05500
H 	H 	0.71770 0.21870 0.80660 0.05700
N 	N 	0.54650 0.97656 0.84110 -0.22000
C 	C 	0.55366 0.95030 0.81385 0.04600
C 	C 	0.52408 0.92040 0.80047 -0.09800
H 	H 	0.52900 0.90250 0.78190 0.05900
C 	C 	0.48735 0.91670 0.81434 0.01700
H 	H 	0.46710 0.89620 0.80520 0.01900
C 	C 	0.48019 0.94290 0.84159 -0.09700
H 	H 	0.45510 0.94030 0.85110 0.05700
C 	C 	0.50977 0.97280 0.85497 0.03900
H 	H 	0.50490 0.99080 0.87360 0.01100
N 	N 	0.61889 0.98531 0.81806 -0.19600
N 	N 	0.65597 0.98027 0.80341 -0.07700
C 	C 	0.65011 0.94634 0.77879 0.01600
H 	H 	0.66990 0.93610 0.76510 0.02600
C 	C 	0.60940 0.93041 0.77821 -0.07600
H 	H 	0.59720 0.90760 0.76410 0.05200
C 	C 	0.59011 0.95450 0.80248 0.02000
C 	C 	0.68970 0.00640 0.81307 -0.10300
H 	H 	0.71410 0.99170 0.80580 0.05800
H 	H 	0.69360 0.00780 0.83790 0.05300
C 	C 	0.74621 0.15726 0.81370 0.03700
C 	C 	0.77903 0.14299 0.83603 -0.08900
H 	H 	0.79980 0.16330 0.84430 0.06600
C 	C 	0.78148 0.09894 0.84618 -0.00200
H 	H 	0.80390 0.08920 0.86140 0.02600
C 	C 	0.75112 0.06916 0.83401 -0.06900
H 	H 	0.75280 0.03910 0.84100 0.04800
C 	C 	0.71830 0.08343 0.81169 0.00200
C 	C 	0.71584 0.12749 0.80153 0.00200
C 	C 	0.68302 0.14176 0.77921 -0.07200
H 	H 	0.68130 0.17190 0.77230 0.04900
C 	C 	0.65266 0.11199 0.76704 0.00100
H 	H 	0.63020 0.12170 0.75180 0.02700
C 	C 	0.65511 0.06793 0.77720 -0.09100
H 	H 	0.63440 0.04760 0.76890 0.06800
C 	C 	0.68793 0.05366 0.79952 0.03700
N 	N 	0.88056 0.53783 0.10759 -0.22700
C 	C 	0.89664 0.53908 0.07698 0.04800
C 	C 	0.88626 0.57351 0.05458 -0.09400
H 	H 	0.89730 0.57440 0.03370 0.06000
C 	C 	0.85980 0.60668 0.06279 0.01900
H 	H 	0.85270 0.63020 0.04750 0.02100
C 	C 	0.84372 0.60542 0.09340 -0.09700
H 	H 	0.82560 0.62810 0.09900 0.05700
C 	C 	0.85410 0.57100 0.11580 0.03900
H 	H 	0.84310 0.57010 0.13670 0.00700
N 	N 	0.93130 0.47236 0.09499 -0.19500
N 	N 	0.96191 0.44455 0.08390 -0.07700
C 	C 	0.97235 0.46160 0.05296 0.01800
H 	H 	0.99200 0.44950 0.03990 0.02200
C 	C 	0.94819 0.49995 0.04493 -0.07800
H 	H 	0.94890 0.51800 0.02560 0.05200
C 	C 	0.92282 0.50660 0.07091 0.02200
C 	C 	0.97510 0.40610 0.09947 -0.09800
H 	H 	0.97490 0.40990 0.12400 0.05300
H 	H 	0.00390 0.40100 0.09530 0.05700
N 	N 	0.03373 0.09305 0.05072 -0.22500
C 	C 	0.01869 0.07800 0.07973 0.04600
C 	C 	0.03285 0.03831 0.09434 -0.09700
H 	H 	0.02260 0.02800 0.11420 0.05800
C 	C 	0.06204 0.01368 0.07994 0.01800
H 	H 	0.07170 0.98660 0.08990 0.01800
C 	C 	0.07707 0.02874 0.05093 -0.10000
H 	H 	0.09700 0.01190 0.04110 0.06000
C 	C 	0.06292 0.06842 0.03632 0.04100
H 	H 	0.07320 0.07870 0.01650 0.00400
N 	N 	0.97738 0.14301 0.07567 -0.19200
N 	N 	0.94754 0.16316 0.09372 -0.07600
C 	C 	0.94223 0.13588 0.12177 0.02100
H 	H 	0.92410 0.14140 0.13810 0.02400
C 	C 	0.96878 0.09887 0.12105 -0.07500
H 	H 	0.97150 0.07530 0.13690 0.05200
C 	C 	0.99050 0.10327 0.09256 0.02300
C 	C 	0.92860 0.20260 0.08465 -0.09700
H 	H 	0.90070 0.20220 0.09160 0.05800
H 	H 	0.92590 0.20520 0.05990 0.05000
C 	C 	0.95033 0.36481 0.08860 0.03700
C 	C 	0.91691 0.36980 0.06436 -0.09100
H 	H 	0.90910 0.39850 0.05630 0.06800
C 	C 	0.89494 0.33282 0.05200 -0.00300
H 	H 	0.87210 0.33620 0.03540 0.02500
C 	C 	0.90639 0.29084 0.06386 -0.07100
H 	H 	0.89140 0.26560 0.05540 0.04700
C 	C 	0.93981 0.28585 0.08810 0.00400
C 	C 	0.96178 0.32283 0.10047 -0.00000
C 	C 	0.99520 0.31784 0.12470 -0.07000
H 	H 	0.01020 0.34310 0.13320 0.04900
C 	C 	0.00665 0.27586 0.13657 -0.00300
H 	H 	0.02950 0.27250 0.15310 0.02800
C 	C 	0.98469 0.23888 0.12421 -0.08600
H 	H 	0.99250 0.21020 0.13230 0.06700
C 	C 	0.95126 0.24387 0.09997 0.03400
Co	Co	0.76598 0.95861 0.11576 1.12100
Co	Co	0.64439 0.28609 0.22376 1.12000
Co	Co	0.59873 0.01652 0.86114 1.12100
Co	Co	0.01310 0.15825 0.03503 1.12000
N 	N 	0.79961 0.95698 0.07331 -0.22900
C 	C 	0.79251 0.99292 0.05174 0.05100
C 	C 	0.81038 0.99430 0.02195 -0.09600
H 	H 	0.80550 0.01890 0.00720 0.06100
C 	C 	0.83537 0.95975 0.01372 0.02500
H 	H 	0.84760 0.96070 0.99340 0.01700
C 	C 	0.84247 0.92382 0.03529 -0.10400
H 	H 	0.85950 0.90020 0.02970 0.06600
C 	C 	0.82459 0.92243 0.06509 0.04500
H 	H 	0.82940 0.89790 0.07980 0.00300
N 	N 	0.74492 0.01793 0.08863 -0.19300
N 	N 	0.71649 0.05322 0.08942 -0.07600
C 	C 	0.71989 0.08073 0.06112 0.01800
H 	H 	0.70450 0.10680 0.05540 0.02300
C 	C 	0.75043 0.06243 0.04284 -0.07300
H 	H 	0.75900 0.07410 0.02280 0.05300
C 	C 	0.76590 0.02362 0.05984 0.01900
C 	C 	0.69260 0.06100 0.11500 -0.10300
H 	H 	0.66630 0.07400 0.10520 0.05800
H 	H 	0.68650 0.03230 0.12530 0.05800
N 	N 	0.59863 0.29967 0.25819 -0.21900
C 	C 	0.59856 0.26935 0.28429 0.04400
C 	C 	0.57203 0.27509 0.30860 -0.10100
H 	H 	0.57200 0.25440 0.32640 0.05900
C 	C 	0.54556 0.31110 0.30679 0.01700
H 	H 	0.52740 0.31510 0.32340 0.01500
C 	C 	0.54563 0.34145 0.28069 -0.09800
H 	H 	0.52750 0.36610 0.27950 0.05700
C 	C 	0.57216 0.33572 0.25638 0.03700
H 	H 	0.57220 0.35640 0.23850 0.01200
N 	N 	0.65325 0.23469 0.25968 -0.20000
N 	N 	0.67979 0.19798 0.26693 -0.07700
C 	C 	0.66890 0.17712 0.29641 0.01800
H 	H 	0.68160 0.15170 0.30690 0.02400
C 	C 	0.63561 0.20093 0.30738 -0.08100
H 	H 	0.62220 0.19420 0.32650 0.05300
C 	C 	0.62594 0.23652 0.28468 0.02000
C 	C 	0.70580 0.18350 0.24447 -0.10200
H 	H 	0.71650 0.20970 0.23340 0.05400
H 	H 	0.72940 0.16840 0.25720 0.05800
C 	C 	0.71212 0.09193 0.14263 0.03900
C 	C 	0.75271 0.10445 0.14201 -0.09000
H 	H 	0.76780 0.09360 0.12490 0.06700
C 	C 	0.77125 0.13282 0.16649 -0.00200
H 	H 	0.79900 0.14140 0.16610 0.02500
C 	C 	0.74920 0.14869 0.19160 -0.07100
H 	H 	0.76190 0.16810 0.20830 0.04900
C 	C 	0.70861 0.13617 0.19222 0.00100
C 	C 	0.69007 0.10780 0.16773 -0.00100
C 	C 	0.64948 0.09528 0.16835 -0.07000
H 	H 	0.63680 0.07590 0.15160 0.04800
C 	C 	0.62743 0.11115 0.19346 -0.00200
H 	H 	0.59970 0.10260 0.19390 0.02600
C 	C 	0.64596 0.13953 0.21794 -0.08900
H 	H 	0.63090 0.15040 0.23510 0.06800
C 	C 	0.68655 0.15204 0.21732 0.03700
N 	N 	0.79087 0.89681 0.13630 -0.22200
C 	C 	0.76798 0.85960 0.12584 0.04500
C 	C 	0.78264 0.81754 0.13477 -0.09800
H 	H 	0.76700 0.79210 0.12760 0.05800
C 	C 	0.82018 0.81270 0.15416 0.01900
H 	H 	0.83020 0.78400 0.16030 0.02300
C 	C 	0.84306 0.84991 0.16463 -0.09900
H 	H 	0.86870 0.84660 0.17790 0.06600
C 	C 	0.82841 0.89197 0.15570 0.04200
H 	H 	0.84410 0.91740 0.16280 0.01000
N 	N 	0.72474 0.91018 0.09357 -0.19800
N 	N 	0.68533 0.91045 0.07497 -0.07900
C 	C 	0.66862 0.86718 0.07631 0.01800
H 	H 	0.64260 0.85790 0.06600 0.02100
C 	C 	0.69770 0.84018 0.09574 -0.08100
H 	H 	0.69450 0.80970 0.10070 0.05200
C 	C 	0.73238 0.86675 0.10641 0.02100
C 	C 	0.67220 0.94580 0.05525 -0.10000
H 	H 	0.64210 0.94390 0.05010 0.05700
H 	H 	0.67840 0.97330 0.06830 0.05300
N 	N 	0.58021 0.07460 0.83425 -0.23100
C 	C 	0.60383 0.11199 0.84272 0.04900
C 	C 	0.59206 0.15286 0.82883 -0.09500
H 	H 	0.60820 0.17840 0.83460 0.06100
C 	C 	0.55666 0.15634 0.80648 0.01800
H 	H 	0.54860 0.18430 0.79700 0.02000
C 	C 	0.53304 0.11895 0.79802 -0.09800
H 	H 	0.50880 0.12130 0.78270 0.05700
C 	C 	0.54481 0.07808 0.81190 0.03700
H 	H 	0.52870 0.05250 0.80610 0.00400
N 	N 	0.64797 0.06163 0.87576 -0.19500
N 	N 	0.68693 0.06272 0.89506 -0.07700
C 	C 	0.70176 0.10691 0.89493 0.02100
H 	H 	0.72720 0.11710 0.90590 0.02400
C 	C 	0.67196 0.13312 0.87555 -0.07300
H 	H 	0.67390 0.16400 0.87130 0.05400
C 	C 	0.63872 0.10513 0.86371 0.02300
C 	C 	0.70320 0.02820 0.91465 -0.10100
H 	H 	0.69650 0.00020 0.90250 0.05300
H 	H 	0.73340 0.03130 0.91750 0.05800
C 	C 	0.69102 0.94984 0.02190 0.03600
C 	C 	0.71717 0.91694 0.01273 -0.08900
H 	H 	0.72370 0.89240 0.02720 0.06900
C 	C 	0.73378 0.91999 0.98242 -0.00000
H 	H 	0.75170 0.89750 0.97610 0.02700
C 	C 	0.72424 0.95593 0.96129 -0.07000
H 	H 	0.73560 0.95800 0.94060 0.04800
C 	C 	0.69809 0.98883 0.97046 0.00100
C 	C 	0.68148 0.98578 0.00077 0.00100
C 	C 	0.65533 0.01868 0.00995 -0.07000
H 	H 	0.64400 0.01660 0.03070 0.05000
C 	C 	0.64578 0.05463 0.98882 -0.00100
H 	H 	0.62790 0.07710 0.99510 0.02500
C 	C 	0.66239 0.05767 0.95851 -0.09200
H 	H 	0.65590 0.08220 0.94410 0.06800
C 	C 	0.68854 0.02478 0.94933 0.03700
N 	N 	0.72867 0.96796 0.15540 -0.22600
C 	C 	0.74637 0.99371 0.18193 0.04300
C 	C 	0.72363 0.00572 0.20770 -0.09300
H 	H 	0.73570 0.02330 0.22580 0.05900
C 	C 	0.68319 0.99198 0.20695 0.01400
H 	H 	0.66760 0.00020 0.22460 0.02600
C 	C 	0.66549 0.96623 0.18043 -0.09500
H 	H 	0.63780 0.95680 0.17990 0.05600
C 	C 	0.68823 0.95422 0.15466 0.03300
H 	H 	0.67610 0.93660 0.13650 0.01100
N 	N 	0.80550 0.99249 0.15273 -0.19800
N 	N 	0.84762 0.00370 0.15884 -0.07800
C 	C 	0.85486 0.02170 0.19171 0.01900
H 	H 	0.88040 0.03200 0.20230 0.02200
C 	C 	0.81721 0.02160 0.20592 -0.07900
H 	H 	0.81310 0.03180 0.22770 0.05200
C 	C 	0.78670 0.00356 0.18182 0.02500
C 	C 	0.87350 0.99950 0.13480 -0.09700
H 	H 	0.90190 0.99740 0.14610 0.05700
H 	H 	0.86730 0.97140 0.12260 0.04800
N 	N 	0.05252 0.16304 0.99509 -0.22100
C 	C 	0.03733 0.14219 0.96533 0.04500
C 	C 	0.05892 0.14443 0.93749 -0.09600
H 	H 	0.04850 0.13020 0.91720 0.05800
C 	C 	0.09569 0.16751 0.93941 0.01400
H 	H 	0.11040 0.16900 0.92040 0.02100
C 	C 	0.11087 0.18836 0.96916 -0.09900
H 	H 	0.13600 0.20410 0.97050 0.05900
C 	C 	0.08929 0.18612 0.99700 0.04000
H 	H 	0.09970 0.20040 0.01730 0.00700
N 	N 	0.97764 0.13036 0.99245 -0.19700
N 	N 	0.93841 0.11080 0.98483 -0.07800
C 	C 	0.93634 0.09232 0.95210 0.02300
H 	H 	0.91360 0.07720 0.94060 0.02300
C 	C 	0.97430 0.10046 0.93948 -0.07600
H 	H 	0.98140 0.09170 0.91810 0.05200
C 	C 	0.99982 0.12397 0.96442 0.02500
C 	C 	0.90975 0.11010 0.00708 -0.09700
H 	H 	0.91210 0.13790 0.02030 0.04700
H 	H 	0.88220 0.10980 0.99420 0.05700
C 	C 	0.87181 0.03697 0.10924 0.03300
C 	C 	0.84643 0.07262 0.11422 -0.08900
H 	H 	0.83130 0.07300 0.13310 0.06600
C 	C 	0.84317 0.10774 0.09163 -0.00400
H 	H 	0.82580 0.13210 0.09500 0.02600
C 	C 	0.86530 0.10720 0.06406 -0.06800
H 	H 	0.86310 0.13120 0.04860 0.04600
C 	C 	0.89068 0.07154 0.05908 0.00300
C 	C 	0.89394 0.03642 0.08167 0.00200
C 	C 	0.91932 0.00076 0.07670 -0.07000
H 	H 	0.92150 0.97680 0.09210 0.04800
C 	C 	0.94145 0.00022 0.04913 -0.00100
H 	H 	0.95880 0.97580 0.04570 0.03000
C 	C 	0.93820 0.03533 0.02654 -0.08800
H 	H 	0.95330 0.03500 0.00770 0.06800
C 	C 	0.91281 0.07099 0.03152 0.03300
N 	N 	0.68853 0.32855 0.25035 -0.22700
C 	C 	0.68635 0.37277 0.24062 0.04700
C 	C 	0.71567 0.40269 0.25450 -0.08900
H 	H 	0.71420 0.43290 0.24780 0.06100
C 	C 	0.74716 0.38838 0.27810 0.01400
H 	H 	0.76720 0.40880 0.28760 0.03100
C 	C 	0.74934 0.34416 0.28783 -0.09000
H 	H 	0.77090 0.33440 0.30400 0.05800
C 	C 	0.72003 0.31424 0.27396 0.03700
H 	H 	0.72150 0.28400 0.28060 0.00500
N 	N 	0.63037 0.34978 0.20190 -0.19600
N 	N 	0.59849 0.36951 0.17999 -0.07800
C 	C 	0.60363 0.41620 0.18180 0.01800
H 	H 	0.58660 0.43760 0.16970 0.02100
C 	C 	0.63869 0.42532 0.20484 -0.07900
H 	H 	0.64920 0.45390 0.21090 0.05200
C 	C 	0.65522 0.38427 0.21726 0.02400
C 	C 	0.57010 0.34530 0.15927 -0.10200
H 	H 	0.56310 0.31830 0.17140 0.05200
H 	H 	0.54480 0.36310 0.15480 0.05800
N 	N 	0.44189 0.31080 0.92934 -0.22400
C 	C 	0.44221 0.26476 0.93042 0.04600
C 	C 	0.41358 0.24076 0.90955 -0.09700
H 	H 	0.41380 0.20930 0.91030 0.05900
C 	C 	0.38464 0.26279 0.88760 0.01600
H 	H 	0.36510 0.24640 0.87330 0.01700
C 	C 	0.38432 0.30883 0.88652 -0.09800
H 	H 	0.36450 0.32390 0.87150 0.05700
C 	C 	0.41294 0.33283 0.90740 0.04000
H 	H 	0.41270 0.36430 0.90670 0.00600
N 	N 	0.50100 0.27340 0.97090 -0.19700
N 	N 	0.52891 0.24574 0.99092 -0.07700
C 	C 	0.51706 0.20103 0.98446 0.02100
H 	H 	0.53040 0.17560 0.99440 0.02500
C 	C 	0.48183 0.20106 0.96044 -0.07400
H 	H 	0.46740 0.17560 0.95150 0.05200
C 	C 	0.47190 0.24579 0.95206 0.02300
C 	C 	0.55910 0.26110 0.01384 -0.09500
H 	H 	0.58140 0.23880 0.01640 0.05700
H 	H 	0.57050 0.28840 0.00480 0.04800
C 	C 	0.58420 0.33159 0.12570 0.03700
C 	C 	0.62246 0.34539 0.11819 -0.09000
H 	H 	0.63970 0.36220 0.13410 0.06600
C 	C 	0.63553 0.33457 0.08741 -0.00300
H 	H 	0.66170 0.34400 0.08230 0.02500
C 	C 	0.61034 0.30995 0.06415 -0.07000
H 	H 	0.61930 0.30260 0.04310 0.04700
C 	C 	0.57209 0.29615 0.07167 0.00400
C 	C 	0.55902 0.30697 0.10244 0.00000
C 	C 	0.52076 0.29317 0.10995 -0.06900
H 	H 	0.51180 0.30060 0.13100 0.04800
C 	C 	0.49558 0.26855 0.08669 -0.00200
H 	H 	0.46940 0.25910 0.09180 0.02900
C 	C 	0.50865 0.25773 0.05592 -0.08500
H 	H 	0.49140 0.24090 0.04000 0.06700
C 	C 	0.54690 0.27153 0.04840 0.03300
N 	N 	0.60488 0.24567 0.19108 -0.23000
C 	C 	0.62189 0.23002 0.16313 0.04900
C 	C 	0.59866 0.20398 0.13953 -0.09300
H 	H 	0.61030 0.19330 0.12040 0.06100
C 	C 	0.55841 0.19359 0.14388 0.01900
H 	H 	0.54250 0.17580 0.12780 0.02200
C 	C 	0.54140 0.20923 0.17183 -0.09800
H 	H 	0.51390 0.20210 0.17480 0.05900
C 	C 	0.56464 0.23527 0.19543 0.03900
H 	H 	0.55300 0.24600 0.21450 0.00500
N 	N 	0.68432 0.26428 0.18703 -0.19100
N 	N 	0.72541 0.26726 0.17949 -0.07700
C 	C 	0.72811 0.24472 0.14871 0.02000
H 	H 	0.75210 0.24150 0.13770 0.02300
C 	C 	0.68870 0.22782 0.13723 -0.07300
H 	H 	0.68170 0.21130 0.11720 0.05300
C 	C 	0.66164 0.23991 0.16091 0.02000
C 	C 	0.75510 0.29350 0.19674 -0.10000
H 	H 	0.75220 0.29160 0.22100 0.05500
H 	H 	0.78230 0.28130 0.19340 0.05700
N 	N 	0.95350 0.52344 0.15890 -0.22100
C 	C 	0.94634 0.54970 0.18615 0.04600
C 	C 	0.97592 0.57960 0.19953 -0.09800
H 	H 	0.97100 0.59750 0.21810 0.05900
C 	C 	0.01265 0.58330 0.18566 0.01700
H 	H 	0.03290 0.60380 0.19480 0.01900
C 	C 	0.01981 0.55710 0.15841 -0.09700
H 	H 	0.04490 0.55970 0.14890 0.05700
C 	C 	0.99023 0.52720 0.14503 0.03900
H 	H 	0.99510 0.50920 0.12640 0.01100
N 	N 	0.88111 0.51469 0.18194 -0.19600
N 	N 	0.84403 0.51973 0.19659 -0.07700
C 	C 	0.84989 0.55366 0.22121 0.01600
H 	H 	0.83010 0.56390 0.23490 0.02600
C 	C 	0.89060 0.56959 0.22179 -0.07600
H 	H 	0.90280 0.59240 0.23590 0.05200
C 	C 	0.90989 0.54550 0.19752 0.02000
C 	C 	0.81030 0.49360 0.18693 -0.10200
H 	H 	0.78590 0.50830 0.19420 0.05800
H 	H 	0.80640 0.49220 0.16210 0.05300
C 	C 	0.75379 0.34274 0.18630 0.03700
C 	C 	0.72097 0.35701 0.16397 -0.08900
H 	H 	0.70020 0.33670 0.15570 0.06600
C 	C 	0.71852 0.40106 0.15382 -0.00200
H 	H 	0.69610 0.41080 0.13860 0.02600
C 	C 	0.74888 0.43084 0.16599 -0.06900
H 	H 	0.74720 0.46090 0.15900 0.04800
C 	C 	0.78170 0.41657 0.18831 0.00200
C 	C 	0.78416 0.37251 0.19847 0.00200
C 	C 	0.81698 0.35824 0.22079 -0.07200
H 	H 	0.81870 0.32810 0.22770 0.04900
C 	C 	0.84734 0.38801 0.23296 0.00100
H 	H 	0.86980 0.37830 0.24820 0.02700
C 	C 	0.84489 0.43207 0.22280 -0.09100
H 	H 	0.86560 0.45240 0.23110 0.06800
C 	C 	0.81207 0.44634 0.20048 0.03700
N 	N 	0.61944 0.96217 0.89241 -0.22700
C 	C 	0.60336 0.96092 0.92302 0.04800
C 	C 	0.61374 0.92649 0.94542 -0.09400
H 	H 	0.60270 0.92560 0.96630 0.06000
C 	C 	0.64020 0.89332 0.93721 0.01900
H 	H 	0.64730 0.86980 0.95250 0.02100
C 	C 	0.65628 0.89458 0.90660 -0.09700
H 	H 	0.67440 0.87190 0.90100 0.05700
C 	C 	0.64590 0.92900 0.88420 0.03900
H 	H 	0.65690 0.92990 0.86330 0.00700
N 	N 	0.56870 0.02764 0.90501 -0.19500
N 	N 	0.53809 0.05545 0.91610 -0.07700
C 	C 	0.52765 0.03840 0.94704 0.01800
H 	H 	0.50800 0.05050 0.96010 0.02200
C 	C 	0.55181 0.00005 0.95507 -0.07800
H 	H 	0.55110 0.98200 0.97440 0.05200
C 	C 	0.57718 0.99340 0.92909 0.02200
C 	C 	0.52490 0.09390 0.90053 -0.09800
H 	H 	0.52510 0.09010 0.87600 0.05300
H 	H 	0.49610 0.09900 0.90470 0.05700
N 	N 	0.46627 0.40695 0.94928 -0.22500
C 	C 	0.48131 0.42200 0.92027 0.04700
C 	C 	0.46715 0.46169 0.90566 -0.09700
H 	H 	0.47740 0.47200 0.88580 0.05800
C 	C 	0.43796 0.48632 0.92006 0.01800
H 	H 	0.42830 0.51340 0.91010 0.01800
C 	C 	0.42293 0.47126 0.94907 -0.10000
H 	H 	0.40300 0.48810 0.95890 0.06000
C 	C 	0.43708 0.43158 0.96368 0.04100
H 	H 	0.42680 0.42130 0.98350 0.00400
N 	N 	0.52262 0.35699 0.92433 -0.19200
N 	N 	0.55246 0.33684 0.90628 -0.07600
C 	C 	0.55777 0.36412 0.87823 0.02100
H 	H 	0.57590 0.35860 0.86190 0.02400
C 	C 	0.53122 0.40113 0.87895 -0.07500
H 	H 	0.52850 0.42470 0.86310 0.05200
C 	C 	0.50950 0.39673 0.90744 0.02300
C 	C 	0.57140 0.29740 0.91535 -0.09700
H 	H 	0.59930 0.29780 0.90840 0.05800
H 	H 	0.57410 0.29480 0.94010 0.05000
C 	C 	0.54967 0.13519 0.91140 0.03700
C 	C 	0.58309 0.13020 0.93564 -0.09100
H 	H 	0.59090 0.10150 0.94370 0.06800
C 	C 	0.60506 0.16718 0.94800 -0.00300
H 	H 	0.62790 0.16380 0.96460 0.02500
C 	C 	0.59361 0.20916 0.93614 -0.07100
H 	H 	0.60860 0.23440 0.94460 0.04700
C 	C 	0.56019 0.21415 0.91190 0.00400
C 	C 	0.53822 0.17717 0.89953 -0.00000
C 	C 	0.50480 0.18216 0.87530 -0.07100
H 	H 	0.48980 0.15690 0.86680 0.04900
C 	C 	0.49335 0.22414 0.86343 -0.00300
H 	H 	0.47050 0.22750 0.84690 0.02800
C 	C 	0.51531 0.26112 0.87579 -0.08700
H 	H 	0.50750 0.28980 0.86770 0.06700
C 	C 	0.54874 0.25613 0.90003 0.03400
