data_crystal

_cell_length_a 31.09300
_cell_length_b 34.50700
_cell_length_c 24.27100
_cell_angle_alpha 90.00000
_cell_angle_beta  128.64600
_cell_angle_gamma 90.00000

_symmetry_space_group_name_	'P 1'
_symmetry_space_group_name_H-M	'P 1'

loop_
_symmetry_equiv_pos_as_xyz
  x,y,z

loop_
_atom_site_label
_atom_site_type_symbol
_atom_site_fract_x
_atom_site_fract_y
_atom_site_fract_z
_atom_site_charge
Cd	Cd	0.77121 0.43804 0.42380 1.17000
Cd	Cd	0.57574 0.73953 0.04880 1.17300
C 	C 	0.53690 0.44480 0.37700 -0.06000
H 	H 	0.53910 0.44310 0.41950 0.05200
H 	H 	0.51880 0.46940 0.35170 0.04700
C 	C 	0.59340 0.43910 0.39420 0.10600
C 	C 	0.63690 0.41610 0.44690 -0.14000
H 	H 	0.63280 0.40040 0.47550 0.07700
C 	C 	0.68650 0.41620 0.45790 0.05900
H 	H 	0.71620 0.40050 0.49390 -0.00800
N 	N 	0.69250 0.43920 0.41610 -0.22900
C 	C 	0.64900 0.46210 0.36330 0.05300
C 	C 	0.59950 0.46210 0.35240 -0.12900
H 	H 	0.56970 0.47770 0.31630 0.07400
C 	C 	0.65450 0.48410 0.31700 0.04000
N 	N 	0.70680 0.47970 0.33070 -0.23200
C 	C 	0.71350 0.49860 0.28300 0.05600
H 	H 	0.74620 0.49440 0.28880 -0.02300
C 	C 	0.67380 0.52240 0.23100 -0.14400
H 	H 	0.68060 0.53540 0.20250 0.09600
C 	C 	0.62800 0.52780 0.21800 0.09900
C 	C 	0.61740 0.50990 0.26600 -0.11600
H 	H 	0.58530 0.51650 0.26060 0.06100
C 	C 	0.58460 0.55550 0.16700 -0.03300
H 	H 	0.55000 0.54190 0.12980 0.03800
H 	H 	0.57710 0.57440 0.19100 0.04100
O 	O 	0.60860 0.57350 0.13990 -0.22600
C 	C 	0.57280 0.59710 0.08550 0.20400
C 	C 	0.59950 0.61560 0.06360 -0.16200
H 	H 	0.63700 0.60980 0.08580 0.08800
C 	C 	0.57150 0.64250 0.00920 -0.00100
H 	H 	0.58970 0.65520 0.99420 -0.01000
C 	C 	0.51670 0.65100 0.97670 -0.04500
C 	C 	0.49000 0.63250 0.99860 0.01000
H 	H 	0.45250 0.63830 0.97640 0.02200
C 	C 	0.51800 0.60560 0.05300 -0.16700
H 	H 	0.49980 0.59290 0.06800 0.08300
C 	C 	0.47700 0.67650 0.90400 -0.09900
H 	H 	0.48220 0.66890 0.86920 0.06200
H 	H 	0.43790 0.67410 0.88290 0.06100
N 	N 	0.49930 0.71790 0.93300 -0.19700
C 	C 	0.47800 0.73950 0.87800 -0.04300
H 	H 	0.45230 0.73000 0.83070 0.03900
C 	C 	0.49880 0.78300 0.89500 0.05600
N 	N 	0.54050 0.79120 0.96600 -0.23200
C 	C 	0.56150 0.82850 0.98680 0.06500
C 	C 	0.54090 0.85770 0.93700 -0.11500
H 	H 	0.55520 0.88330 0.95080 0.04900
C 	C 	0.49920 0.84960 0.86600 0.02800
H 	H 	0.48510 0.86950 0.83150 0.01000
C 	C 	0.47820 0.81220 0.84510 -0.11500
H 	H 	0.44980 0.80660 0.79660 0.06000
C 	C 	0.60050 0.83420 0.06100 -0.05500
H 	H 	0.61320 0.85980 0.07830 0.03400
N 	N 	0.61950 0.80590 0.10600 -0.17900
C 	C 	0.66000 0.80860 0.18300 -0.09000
H 	H 	0.67460 0.83540 0.19560 0.05100
H 	H 	0.69120 0.79110 0.19910 0.03000
C 	C 	0.63680 0.79780 0.22340 -0.02600
C 	C 	0.58830 0.81460 0.20370 0.00500
H 	H 	0.57010 0.83370 0.16760 0.02500
C 	C 	0.56660 0.80350 0.23700 -0.15900
H 	H 	0.53350 0.81500 0.22340 0.10000
C 	C 	0.59330 0.77560 0.28980 0.20700
C 	C 	0.64170 0.75880 0.30950 -0.16600
H 	H 	0.65990 0.73970 0.34560 0.08700
C 	C 	0.66340 0.76990 0.27630 0.00600
H 	H 	0.69650 0.75840 0.28980 0.02100
O 	O 	0.57050 0.76900 0.32100 -0.22200
C 	C 	0.41000 0.73840 0.12800 -0.02600
H 	H 	0.37210 0.74470 0.08430 0.03800
H 	H 	0.40790 0.71370 0.14700 0.03600
C 	C 	0.44870 0.73450 0.11040 0.08200
C 	C 	0.43170 0.75780 0.05330 -0.13100
H 	H 	0.39830 0.77200 0.02930 0.07600
C 	C 	0.46350 0.76030 0.03120 0.06800
H 	H 	0.45180 0.77620 0.99220 -0.01000
N 	N 	0.51230 0.73940 0.06630 -0.23400
C 	C 	0.52930 0.71610 0.12340 0.02800
C 	C 	0.49750 0.71360 0.14540 -0.10800
H 	H 	0.50920 0.69770 0.18450 0.06600
C 	C 	0.57460 0.69150 0.16250 0.07000
N 	N 	0.60620 0.69860 0.14120 -0.24500
C 	C 	0.65800 0.68190 0.17740 0.05700
H 	H 	0.67960 0.68680 0.16280 -0.03400
C 	C 	0.67820 0.65800 0.23510 -0.13700
H 	H 	0.71370 0.64660 0.25990 0.09100
C 	C 	0.64660 0.65090 0.25640 0.11000
C 	C 	0.59480 0.66760 0.22020 -0.14600
H 	H 	0.57320 0.66270 0.23480 0.07100
C 	C 	0.66320 0.62300 0.31800 -0.08000
H 	H 	0.63580 0.60190 0.30010 0.05400
H 	H 	0.66670 0.63720 0.35560 0.05200
O 	O 	0.72080 0.60630 0.34420 -0.22100
C 	C 	0.73960 0.58070 0.39480 0.20800
C 	C 	0.79000 0.56650 0.41710 -0.15900
H 	H 	0.80430 0.57440 0.39380 0.08600
C 	C 	0.81960 0.54070 0.47300 -0.02000
H 	H 	0.85400 0.53100 0.48850 0.00800
C 	C 	0.79870 0.52910 0.50720 -0.03400
C 	C 	0.74820 0.54320 0.48500 0.00200
H 	H 	0.73400 0.53530 0.50820 0.02300
C 	C 	0.71870 0.56900 0.42900 -0.16800
H 	H 	0.68420 0.57870 0.41360 0.08400
C 	C 	0.83900 0.50400 0.58200 -0.11500
H 	H 	0.87800 0.51050 0.60940 0.05700
H 	H 	0.82710 0.50600 0.61130 0.06000
N 	N 	0.82550 0.46060 0.54600 -0.19500
C 	C 	0.85000 0.43440 0.59300 -0.05400
H 	H 	0.87330 0.44120 0.64110 0.04300
C 	C 	0.84300 0.39210 0.57100 0.05400
N 	N 	0.81250 0.38370 0.50000 -0.22900
C 	C 	0.80560 0.34550 0.47740 0.05600
C 	C 	0.82910 0.31560 0.52700 -0.11300
H 	H 	0.82440 0.28950 0.51160 0.04400
C 	C 	0.85960 0.32400 0.59800 0.02600
H 	H 	0.87570 0.30360 0.63170 0.00900
C 	C 	0.86660 0.36230 0.62020 -0.11300
H 	H 	0.88740 0.36800 0.66900 0.05900
C 	C 	0.76930 0.34890 0.39800 -0.03600
H 	H 	0.76070 0.32530 0.37250 0.03100
N 	N 	0.74980 0.37830 0.36200 -0.20600
C 	C 	0.71300 0.36720 0.28700 -0.07800
H 	H 	0.71390 0.33880 0.28170 0.04500
H 	H 	0.72500 0.38000 0.26170 0.03300
C 	C 	0.65150 0.38100 0.25350 -0.01900
C 	C 	0.62810 0.36420 0.28120 -0.00600
H 	H 	0.64840 0.34590 0.31840 0.02600
C 	C 	0.57490 0.37420 0.25440 -0.14400
H 	H 	0.55890 0.36280 0.27330 0.08800
C 	C 	0.54520 0.40100 0.19990 0.16900
C 	C 	0.56860 0.41780 0.17220 -0.13900
H 	H 	0.54830 0.43620 0.13490 0.08100
C 	C 	0.62180 0.40790 0.19900 -0.00900
H 	H 	0.63780 0.41930 0.18010 0.02700
O 	O 	0.48950 0.41020 0.16920 -0.20000
Cd	Cd	0.22879 0.43804 0.07620 1.16900
Cd	Cd	0.42426 0.73953 0.45120 1.17000
C 	C 	0.46310 0.44480 0.12300 -0.06200
H 	H 	0.46090 0.44310 0.08050 0.05200
H 	H 	0.48120 0.46940 0.14830 0.04700
C 	C 	0.40660 0.43910 0.10580 0.10600
C 	C 	0.36310 0.41610 0.05310 -0.14100
H 	H 	0.36720 0.40040 0.02450 0.07700
C 	C 	0.31350 0.41620 0.04210 0.05900
H 	H 	0.28380 0.40050 0.00610 -0.00800
N 	N 	0.30750 0.43920 0.08390 -0.23000
C 	C 	0.35100 0.46210 0.13670 0.05300
C 	C 	0.40050 0.46210 0.14760 -0.13000
H 	H 	0.43030 0.47770 0.18370 0.07400
C 	C 	0.34550 0.48410 0.18300 0.03900
N 	N 	0.29320 0.47970 0.16930 -0.23300
C 	C 	0.28650 0.49860 0.21700 0.05500
H 	H 	0.25380 0.49440 0.21120 -0.02400
C 	C 	0.32620 0.52240 0.26900 -0.14400
H 	H 	0.31940 0.53540 0.29750 0.09500
C 	C 	0.37200 0.52780 0.28200 0.09700
C 	C 	0.38260 0.50990 0.23400 -0.11600
H 	H 	0.41470 0.51650 0.23940 0.06000
C 	C 	0.41540 0.55550 0.33300 -0.03400
H 	H 	0.45000 0.54190 0.37020 0.03600
H 	H 	0.42290 0.57440 0.30900 0.04000
O 	O 	0.39140 0.57350 0.36010 -0.22700
C 	C 	0.42720 0.59710 0.41450 0.20100
C 	C 	0.40050 0.61560 0.43640 -0.15400
H 	H 	0.36300 0.60980 0.41420 0.08500
C 	C 	0.42850 0.64250 0.49080 -0.02000
H 	H 	0.41030 0.65520 0.50580 -0.00200
C 	C 	0.48330 0.65100 0.52330 -0.03500
C 	C 	0.51000 0.63250 0.50140 0.01100
H 	H 	0.54750 0.63830 0.52360 0.02300
C 	C 	0.48200 0.60560 0.44700 -0.17000
H 	H 	0.50020 0.59290 0.43200 0.08300
C 	C 	0.52300 0.67650 0.59600 -0.10300
H 	H 	0.51780 0.66890 0.63080 0.06300
H 	H 	0.56210 0.67410 0.61710 0.06200
N 	N 	0.50070 0.71790 0.56700 -0.19600
C 	C 	0.52200 0.73950 0.62200 -0.04300
H 	H 	0.54770 0.73000 0.66930 0.03900
C 	C 	0.50120 0.78300 0.60500 0.05700
N 	N 	0.45950 0.79120 0.53400 -0.23200
C 	C 	0.43850 0.82850 0.51320 0.07100
C 	C 	0.45910 0.85770 0.56300 -0.11800
H 	H 	0.44480 0.88330 0.54920 0.05200
C 	C 	0.50080 0.84960 0.63400 0.03100
H 	H 	0.51490 0.86950 0.66850 0.01000
C 	C 	0.52180 0.81220 0.65490 -0.11600
H 	H 	0.55020 0.80660 0.70340 0.06000
C 	C 	0.39950 0.83420 0.43900 -0.06200
H 	H 	0.38680 0.85980 0.42170 0.03500
N 	N 	0.38050 0.80590 0.39400 -0.17800
C 	C 	0.34000 0.80860 0.31700 -0.09100
H 	H 	0.32540 0.83540 0.30440 0.05100
H 	H 	0.30880 0.79110 0.30090 0.03000
C 	C 	0.36320 0.79780 0.27660 -0.02600
C 	C 	0.41170 0.81460 0.29630 0.00500
H 	H 	0.42990 0.83370 0.33240 0.02500
C 	C 	0.43340 0.80350 0.26300 -0.15900
H 	H 	0.46650 0.81500 0.27660 0.10000
C 	C 	0.40670 0.77560 0.21020 0.20700
C 	C 	0.35830 0.75880 0.19050 -0.16500
H 	H 	0.34010 0.73970 0.15440 0.08700
C 	C 	0.33660 0.76990 0.22370 0.00600
H 	H 	0.30350 0.75840 0.21020 0.02100
O 	O 	0.42950 0.76900 0.17900 -0.22100
C 	C 	0.59000 0.73840 0.37200 -0.02500
H 	H 	0.62790 0.74470 0.41570 0.03700
H 	H 	0.59210 0.71370 0.35300 0.03500
C 	C 	0.55130 0.73450 0.38960 0.07900
C 	C 	0.56830 0.75780 0.44670 -0.12600
H 	H 	0.60170 0.77200 0.47070 0.07300
C 	C 	0.53650 0.76030 0.46880 0.05800
H 	H 	0.54820 0.77620 0.50780 -0.00400
N 	N 	0.48770 0.73940 0.43370 -0.23300
C 	C 	0.47070 0.71610 0.37660 0.02700
C 	C 	0.50250 0.71360 0.35460 -0.10700
H 	H 	0.49080 0.69770 0.31550 0.06500
C 	C 	0.42540 0.69150 0.33750 0.07000
N 	N 	0.39380 0.69860 0.35880 -0.24500
C 	C 	0.34200 0.68190 0.32260 0.05700
H 	H 	0.32040 0.68680 0.33720 -0.03400
C 	C 	0.32180 0.65800 0.26490 -0.13700
H 	H 	0.28630 0.64660 0.24010 0.09100
C 	C 	0.35340 0.65090 0.24360 0.11000
C 	C 	0.40520 0.66760 0.27980 -0.14600
H 	H 	0.42680 0.66270 0.26520 0.07100
C 	C 	0.33680 0.62300 0.18200 -0.07900
H 	H 	0.36420 0.60190 0.19990 0.05400
H 	H 	0.33330 0.63720 0.14440 0.05200
O 	O 	0.27920 0.60630 0.15580 -0.22300
C 	C 	0.26040 0.58070 0.10520 0.21800
C 	C 	0.21000 0.56650 0.08290 -0.17100
H 	H 	0.19570 0.57440 0.10620 0.09000
C 	C 	0.18040 0.54070 0.02700 -0.00300
H 	H 	0.14600 0.53100 0.01150 0.00400
C 	C 	0.20130 0.52910 0.99280 -0.05400
C 	C 	0.25180 0.54320 0.01500 0.02800
H 	H 	0.26600 0.53530 0.99180 0.01200
C 	C 	0.28130 0.56900 0.07100 -0.18300
H 	H 	0.31580 0.57870 0.08640 0.09000
C 	C 	0.16100 0.50400 0.91800 -0.10800
H 	H 	0.12200 0.51050 0.89060 0.05500
H 	H 	0.17290 0.50600 0.88870 0.05800
N 	N 	0.17450 0.46060 0.95400 -0.19600
C 	C 	0.15000 0.43440 0.90700 -0.05400
H 	H 	0.12670 0.44120 0.85890 0.04300
C 	C 	0.15700 0.39210 0.92900 0.05200
N 	N 	0.18750 0.38370 -0.00000 -0.22800
C 	C 	0.19440 0.34550 0.02260 0.06200
C 	C 	0.17090 0.31560 0.97300 -0.12100
H 	H 	0.17560 0.28950 0.98840 0.04500
C 	C 	0.14040 0.32400 0.90200 0.02900
H 	H 	0.12430 0.30360 0.86830 0.00800
C 	C 	0.13340 0.36230 0.87980 -0.11400
H 	H 	0.11260 0.36800 0.83100 0.06000
C 	C 	0.23070 0.34890 0.10200 -0.03800
H 	H 	0.23930 0.32530 0.12750 0.03200
N 	N 	0.25020 0.37830 0.13800 -0.20600
C 	C 	0.28700 0.36720 0.21300 -0.07800
H 	H 	0.28610 0.33880 0.21830 0.04500
H 	H 	0.27500 0.38000 0.23830 0.03200
C 	C 	0.34850 0.38100 0.24650 -0.01900
C 	C 	0.37190 0.36420 0.21880 -0.00600
H 	H 	0.35160 0.34590 0.18160 0.02700
C 	C 	0.42510 0.37420 0.24560 -0.14400
H 	H 	0.44110 0.36280 0.22670 0.08900
C 	C 	0.45480 0.40100 0.30010 0.16900
C 	C 	0.43140 0.41780 0.32780 -0.13900
H 	H 	0.45170 0.43620 0.36510 0.08000
C 	C 	0.37820 0.40790 0.30100 -0.00900
H 	H 	0.36220 0.41930 0.31990 0.02600
O 	O 	0.51050 0.41020 0.33080 -0.20100
Cd	Cd	0.27121 0.93804 0.42380 1.16900
Cd	Cd	0.07574 0.23953 0.04880 1.17200
C 	C 	0.03690 0.94480 0.37700 -0.06100
H 	H 	0.03910 0.94310 0.41950 0.05000
H 	H 	0.01880 0.96940 0.35170 0.04600
C 	C 	0.09340 0.93910 0.39420 0.10500
C 	C 	0.13690 0.91610 0.44690 -0.14100
H 	H 	0.13280 0.90040 0.47550 0.07600
C 	C 	0.18650 0.91620 0.45790 0.05800
H 	H 	0.21620 0.90050 0.49390 -0.00900
N 	N 	0.19250 0.93920 0.41610 -0.23000
C 	C 	0.14900 0.96210 0.36330 0.05200
C 	C 	0.09950 0.96210 0.35240 -0.13000
H 	H 	0.06970 0.97770 0.31630 0.07300
C 	C 	0.15450 0.98410 0.31700 0.03900
N 	N 	0.20680 0.97970 0.33070 -0.23300
C 	C 	0.21350 0.99860 0.28300 0.05400
H 	H 	0.24620 0.99440 0.28880 -0.02400
C 	C 	0.17380 0.02240 0.23100 -0.14400
H 	H 	0.18060 0.03540 0.20250 0.09500
C 	C 	0.12800 0.02780 0.21800 0.09700
C 	C 	0.11740 0.00990 0.26600 -0.11600
H 	H 	0.08530 0.01650 0.26060 0.06000
C 	C 	0.08460 0.05550 0.16700 -0.03400
H 	H 	0.05000 0.04190 0.12980 0.03700
H 	H 	0.07710 0.07440 0.19100 0.04000
O 	O 	0.10860 0.07350 0.13990 -0.22700
C 	C 	0.07280 0.09710 0.08550 0.20400
C 	C 	0.09950 0.11560 0.06360 -0.16200
H 	H 	0.13700 0.10980 0.08580 0.08800
C 	C 	0.07150 0.14250 0.00920 -0.00200
H 	H 	0.08970 0.15520 0.99420 -0.01000
C 	C 	0.01670 0.15100 0.97670 -0.04400
C 	C 	0.99000 0.13250 0.99860 0.01000
H 	H 	0.95250 0.13830 0.97640 0.02200
C 	C 	0.01800 0.10560 0.05300 -0.16800
H 	H 	0.99980 0.09290 0.06800 0.08400
C 	C 	0.97700 0.17650 0.90400 -0.10000
H 	H 	0.98220 0.16890 0.86920 0.06200
H 	H 	0.93790 0.17410 0.88290 0.06100
N 	N 	0.99930 0.21790 0.93300 -0.19700
C 	C 	0.97800 0.23950 0.87800 -0.04300
H 	H 	0.95230 0.23000 0.83070 0.03900
C 	C 	0.99880 0.28300 0.89500 0.05600
N 	N 	0.04050 0.29120 0.96600 -0.23100
C 	C 	0.06150 0.32850 0.98680 0.06500
C 	C 	0.04090 0.35770 0.93700 -0.11400
H 	H 	0.05520 0.38330 0.95080 0.04900
C 	C 	0.99920 0.34960 0.86600 0.02800
H 	H 	0.98510 0.36950 0.83150 0.01000
C 	C 	0.97820 0.31220 0.84510 -0.11500
H 	H 	0.94980 0.30660 0.79660 0.06000
C 	C 	0.10050 0.33420 0.06100 -0.05600
H 	H 	0.11320 0.35980 0.07830 0.03400
N 	N 	0.11950 0.30590 0.10600 -0.17900
C 	C 	0.16000 0.30860 0.18300 -0.09000
H 	H 	0.17460 0.33540 0.19560 0.05100
H 	H 	0.19120 0.29110 0.19910 0.03000
C 	C 	0.13680 0.29780 0.22340 -0.02600
C 	C 	0.08830 0.31460 0.20370 0.00500
H 	H 	0.07010 0.33370 0.16760 0.02500
C 	C 	0.06660 0.30350 0.23700 -0.15900
H 	H 	0.03350 0.31500 0.22340 0.10000
C 	C 	0.09330 0.27560 0.28980 0.20700
C 	C 	0.14170 0.25880 0.30950 -0.16600
H 	H 	0.15990 0.23970 0.34560 0.08700
C 	C 	0.16340 0.26990 0.27630 0.00600
H 	H 	0.19650 0.25840 0.28980 0.02100
O 	O 	0.07050 0.26900 0.32100 -0.22200
C 	C 	0.91000 0.23840 0.12800 -0.02600
H 	H 	0.87210 0.24470 0.08430 0.03800
H 	H 	0.90790 0.21370 0.14700 0.03600
C 	C 	0.94870 0.23450 0.11040 0.08200
C 	C 	0.93170 0.25780 0.05330 -0.13200
H 	H 	0.89830 0.27200 0.02930 0.07700
C 	C 	0.96350 0.26030 0.03120 0.06900
H 	H 	0.95180 0.27620 0.99220 -0.01100
N 	N 	0.01230 0.23940 0.06630 -0.23400
C 	C 	0.02930 0.21610 0.12340 0.02700
C 	C 	0.99750 0.21360 0.14540 -0.10700
H 	H 	0.00920 0.19770 0.18450 0.06500
C 	C 	0.07460 0.19150 0.16250 0.07000
N 	N 	0.10620 0.19860 0.14120 -0.24500
C 	C 	0.15800 0.18190 0.17740 0.05700
H 	H 	0.17960 0.18680 0.16280 -0.03400
C 	C 	0.17820 0.15800 0.23510 -0.13700
H 	H 	0.21370 0.14660 0.25990 0.09100
C 	C 	0.14660 0.15090 0.25640 0.11000
C 	C 	0.09480 0.16760 0.22020 -0.14600
H 	H 	0.07320 0.16270 0.23480 0.07100
C 	C 	0.16320 0.12300 0.31800 -0.08000
H 	H 	0.13580 0.10190 0.30010 0.05400
H 	H 	0.16670 0.13720 0.35560 0.05200
O 	O 	0.22080 0.10630 0.34420 -0.22100
C 	C 	0.23960 0.08070 0.39480 0.20700
C 	C 	0.29000 0.06650 0.41710 -0.15900
H 	H 	0.30430 0.07440 0.39380 0.08600
C 	C 	0.31960 0.04070 0.47300 -0.02000
H 	H 	0.35400 0.03100 0.48850 0.00900
C 	C 	0.29870 0.02910 0.50720 -0.03400
C 	C 	0.24820 0.04320 0.48500 0.00200
H 	H 	0.23400 0.03530 0.50820 0.02300
C 	C 	0.21870 0.06900 0.42900 -0.16800
H 	H 	0.18420 0.07870 0.41360 0.08400
C 	C 	0.33900 0.00400 0.58200 -0.11500
H 	H 	0.37800 0.01050 0.60940 0.05700
H 	H 	0.32710 0.00600 0.61130 0.06000
N 	N 	0.32550 0.96060 0.54600 -0.19500
C 	C 	0.35000 0.93440 0.59300 -0.05400
H 	H 	0.37330 0.94120 0.64110 0.04300
C 	C 	0.34300 0.89210 0.57100 0.05400
N 	N 	0.31250 0.88370 0.50000 -0.22900
C 	C 	0.30560 0.84550 0.47740 0.05600
C 	C 	0.32910 0.81560 0.52700 -0.11300
H 	H 	0.32440 0.78950 0.51160 0.04400
C 	C 	0.35960 0.82400 0.59800 0.02600
H 	H 	0.37570 0.80360 0.63170 0.01000
C 	C 	0.36660 0.86230 0.62020 -0.11300
H 	H 	0.38740 0.86800 0.66900 0.05900
C 	C 	0.26930 0.84890 0.39800 -0.03600
H 	H 	0.26070 0.82530 0.37250 0.03100
N 	N 	0.24980 0.87830 0.36200 -0.20600
C 	C 	0.21300 0.86720 0.28700 -0.07800
H 	H 	0.21390 0.83880 0.28170 0.04500
H 	H 	0.22500 0.88000 0.26170 0.03200
C 	C 	0.15150 0.88100 0.25350 -0.01900
C 	C 	0.12810 0.86420 0.28120 -0.00600
H 	H 	0.14840 0.84590 0.31840 0.02600
C 	C 	0.07490 0.87420 0.25440 -0.14400
H 	H 	0.05890 0.86280 0.27330 0.08800
C 	C 	0.04520 0.90100 0.19990 0.16800
C 	C 	0.06860 0.91780 0.17220 -0.13800
H 	H 	0.04830 0.93620 0.13490 0.08000
C 	C 	0.12180 0.90790 0.19900 -0.00900
H 	H 	0.13780 0.91930 0.18010 0.02700
O 	O 	0.98950 0.91020 0.16920 -0.20000
Cd	Cd	0.72879 0.93804 0.07620 1.16900
Cd	Cd	0.92426 0.23953 0.45120 1.17000
C 	C 	0.96310 0.94480 0.12300 -0.06200
H 	H 	0.96090 0.94310 0.08050 0.05200
H 	H 	0.98120 0.96940 0.14830 0.04700
C 	C 	0.90660 0.93910 0.10580 0.10600
C 	C 	0.86310 0.91610 0.05310 -0.14100
H 	H 	0.86720 0.90040 0.02450 0.07700
C 	C 	0.81350 0.91620 0.04210 0.05900
H 	H 	0.78380 0.90050 0.00610 -0.00800
N 	N 	0.80750 0.93920 0.08390 -0.23000
C 	C 	0.85100 0.96210 0.13670 0.05300
C 	C 	0.90050 0.96210 0.14760 -0.13000
H 	H 	0.93030 0.97770 0.18370 0.07400
C 	C 	0.84550 0.98410 0.18300 0.03900
N 	N 	0.79320 0.97970 0.16930 -0.23300
C 	C 	0.78650 0.99860 0.21700 0.05400
H 	H 	0.75380 0.99440 0.21120 -0.02400
C 	C 	0.82620 0.02240 0.26900 -0.14400
H 	H 	0.81940 0.03540 0.29750 0.09500
C 	C 	0.87200 0.02780 0.28200 0.09700
C 	C 	0.88260 0.00990 0.23400 -0.11600
H 	H 	0.91470 0.01650 0.23940 0.06000
C 	C 	0.91540 0.05550 0.33300 -0.03400
H 	H 	0.95000 0.04190 0.37020 0.03600
H 	H 	0.92290 0.07440 0.30900 0.04000
O 	O 	0.89140 0.07350 0.36010 -0.22600
C 	C 	0.92720 0.09710 0.41450 0.20000
C 	C 	0.90050 0.11560 0.43640 -0.15300
H 	H 	0.86300 0.10980 0.41420 0.08400
C 	C 	0.92850 0.14250 0.49080 -0.02100
H 	H 	0.91030 0.15520 0.50580 -0.00100
C 	C 	0.98330 0.15100 0.52330 -0.03400
C 	C 	0.01000 0.13250 0.50140 0.00900
H 	H 	0.04750 0.13830 0.52360 0.02300
C 	C 	0.98200 0.10560 0.44700 -0.16800
H 	H 	0.00020 0.09290 0.43200 0.08200
C 	C 	0.02300 0.17650 0.59600 -0.10300
H 	H 	0.01780 0.16890 0.63080 0.06300
H 	H 	0.06210 0.17410 0.61710 0.06300
N 	N 	0.00070 0.21790 0.56700 -0.19600
C 	C 	0.02200 0.23950 0.62200 -0.04300
H 	H 	0.04770 0.23000 0.66930 0.03900
C 	C 	0.00120 0.28300 0.60500 0.05600
N 	N 	0.95950 0.29120 0.53400 -0.23100
C 	C 	0.93850 0.32850 0.51320 0.07100
C 	C 	0.95910 0.35770 0.56300 -0.11800
H 	H 	0.94480 0.38330 0.54920 0.05100
C 	C 	0.00080 0.34960 0.63400 0.03000
H 	H 	0.01490 0.36950 0.66850 0.01000
C 	C 	0.02180 0.31220 0.65490 -0.11600
H 	H 	0.05020 0.30660 0.70340 0.06000
C 	C 	0.89950 0.33420 0.43900 -0.06200
H 	H 	0.88680 0.35980 0.42170 0.03500
N 	N 	0.88050 0.30590 0.39400 -0.17800
C 	C 	0.84000 0.30860 0.31700 -0.09100
H 	H 	0.82540 0.33540 0.30440 0.05100
H 	H 	0.80880 0.29110 0.30090 0.03000
C 	C 	0.86320 0.29780 0.27660 -0.02600
C 	C 	0.91170 0.31460 0.29630 0.00500
H 	H 	0.92990 0.33370 0.33240 0.02500
C 	C 	0.93340 0.30350 0.26300 -0.15900
H 	H 	0.96650 0.31500 0.27660 0.10000
C 	C 	0.90670 0.27560 0.21020 0.20700
C 	C 	0.85830 0.25880 0.19050 -0.16500
H 	H 	0.84010 0.23970 0.15440 0.08700
C 	C 	0.83660 0.26990 0.22370 0.00600
H 	H 	0.80350 0.25840 0.21020 0.02100
O 	O 	0.92950 0.26900 0.17900 -0.22100
C 	C 	0.09000 0.23840 0.37200 -0.02500
H 	H 	0.12790 0.24470 0.41570 0.03700
H 	H 	0.09210 0.21370 0.35300 0.03500
C 	C 	0.05130 0.23450 0.38960 0.07900
C 	C 	0.06830 0.25780 0.44670 -0.12600
H 	H 	0.10170 0.27200 0.47070 0.07300
C 	C 	0.03650 0.26030 0.46880 0.05800
H 	H 	0.04820 0.27620 0.50780 -0.00400
N 	N 	0.98770 0.23940 0.43370 -0.23300
C 	C 	0.97070 0.21610 0.37660 0.02800
C 	C 	0.00250 0.21360 0.35460 -0.10900
H 	H 	0.99080 0.19770 0.31550 0.06600
C 	C 	0.92540 0.19150 0.33750 0.07000
N 	N 	0.89380 0.19860 0.35880 -0.24500
C 	C 	0.84200 0.18190 0.32260 0.05700
H 	H 	0.82040 0.18680 0.33720 -0.03400
C 	C 	0.82180 0.15800 0.26490 -0.13700
H 	H 	0.78630 0.14660 0.24010 0.09100
C 	C 	0.85340 0.15090 0.24360 0.11000
C 	C 	0.90520 0.16760 0.27980 -0.14600
H 	H 	0.92680 0.16270 0.26520 0.07100
C 	C 	0.83680 0.12300 0.18200 -0.07900
H 	H 	0.86420 0.10190 0.19990 0.05300
H 	H 	0.83330 0.13720 0.14440 0.05200
O 	O 	0.77920 0.10630 0.15580 -0.22400
C 	C 	0.76040 0.08070 0.10520 0.21900
C 	C 	0.71000 0.06650 0.08290 -0.17300
H 	H 	0.69570 0.07440 0.10620 0.09100
C 	C 	0.68040 0.04070 0.02700 -0.00000
H 	H 	0.64600 0.03100 0.01150 0.00400
C 	C 	0.70130 0.02910 0.99280 -0.05700
C 	C 	0.75180 0.04320 0.01500 0.03200
H 	H 	0.76600 0.03530 0.99180 0.01000
C 	C 	0.78130 0.06900 0.07100 -0.18600
H 	H 	0.81580 0.07870 0.08640 0.09000
C 	C 	0.66100 0.00400 0.91800 -0.10700
H 	H 	0.62200 0.01050 0.89060 0.05400
H 	H 	0.67290 0.00600 0.88870 0.05700
N 	N 	0.67450 0.96060 0.95400 -0.19600
C 	C 	0.65000 0.93440 0.90700 -0.05400
H 	H 	0.62670 0.94120 0.85890 0.04300
C 	C 	0.65700 0.89210 0.92900 0.05200
N 	N 	0.68750 0.88370 -0.00000 -0.22800
C 	C 	0.69440 0.84550 0.02260 0.06200
C 	C 	0.67090 0.81560 0.97300 -0.12100
H 	H 	0.67560 0.78950 0.98840 0.04500
C 	C 	0.64040 0.82400 0.90200 0.02900
H 	H 	0.62430 0.80360 0.86830 0.00800
C 	C 	0.63340 0.86230 0.87980 -0.11400
H 	H 	0.61260 0.86800 0.83100 0.06000
C 	C 	0.73070 0.84890 0.10200 -0.03800
H 	H 	0.73930 0.82530 0.12750 0.03200
N 	N 	0.75020 0.87830 0.13800 -0.20500
C 	C 	0.78700 0.86720 0.21300 -0.07800
H 	H 	0.78610 0.83880 0.21830 0.04500
H 	H 	0.77500 0.88000 0.23830 0.03200
C 	C 	0.84850 0.88100 0.24650 -0.02000
C 	C 	0.87190 0.86420 0.21880 -0.00600
H 	H 	0.85160 0.84590 0.18160 0.02600
C 	C 	0.92510 0.87420 0.24560 -0.14400
H 	H 	0.94110 0.86280 0.22670 0.08900
C 	C 	0.95480 0.90100 0.30010 0.16900
C 	C 	0.93140 0.91780 0.32780 -0.13900
H 	H 	0.95170 0.93620 0.36510 0.08000
C 	C 	0.87820 0.90790 0.30100 -0.00900
H 	H 	0.86220 0.91930 0.31990 0.02600
O 	O 	0.01050 0.91020 0.33080 -0.20100
Cd	Cd	0.22879 0.56196 0.57620 1.16900
Cd	Cd	0.42426 0.26047 0.95120 1.16900
C 	C 	0.46310 0.55520 0.62300 -0.06100
H 	H 	0.46090 0.55690 0.58050 0.05100
H 	H 	0.48120 0.53060 0.64830 0.04600
C 	C 	0.40660 0.56090 0.60580 0.10500
C 	C 	0.36310 0.58390 0.55310 -0.14100
H 	H 	0.36720 0.59960 0.52450 0.07600
C 	C 	0.31350 0.58380 0.54210 0.05800
H 	H 	0.28380 0.59950 0.50610 -0.00900
N 	N 	0.30750 0.56080 0.58390 -0.23000
C 	C 	0.35100 0.53790 0.63670 0.05300
C 	C 	0.40050 0.53790 0.64760 -0.13000
H 	H 	0.43030 0.52230 0.68370 0.07300
C 	C 	0.34550 0.51590 0.68300 0.03900
N 	N 	0.29320 0.52030 0.66930 -0.23300
C 	C 	0.28650 0.50140 0.71700 0.05400
H 	H 	0.25380 0.50560 0.71120 -0.02400
C 	C 	0.32620 0.47760 0.76900 -0.14400
H 	H 	0.31940 0.46460 0.79750 0.09400
C 	C 	0.37200 0.47220 0.78200 0.09700
C 	C 	0.38260 0.49010 0.73400 -0.11600
H 	H 	0.41470 0.48350 0.73940 0.06000
C 	C 	0.41540 0.44450 0.83300 -0.03400
H 	H 	0.45000 0.45810 0.87020 0.03600
H 	H 	0.42290 0.42560 0.80900 0.04000
O 	O 	0.39140 0.42650 0.86010 -0.22600
C 	C 	0.42720 0.40290 0.91450 0.19800
C 	C 	0.40050 0.38440 0.93640 -0.14600
H 	H 	0.36300 0.39020 0.91420 0.08100
C 	C 	0.42850 0.35750 0.99080 -0.03800
H 	H 	0.41030 0.34480 0.00580 0.00700
C 	C 	0.48330 0.34900 0.02330 -0.02600
C 	C 	0.51000 0.36750 0.00140 0.01300
H 	H 	0.54750 0.36170 0.02360 0.02300
C 	C 	0.48200 0.39440 0.94700 -0.17300
H 	H 	0.50020 0.40710 0.93200 0.08300
C 	C 	0.52300 0.32350 0.09600 -0.10600
H 	H 	0.51780 0.33110 0.13080 0.06400
H 	H 	0.56210 0.32590 0.11710 0.06400
N 	N 	0.50070 0.28210 0.06700 -0.19400
C 	C 	0.52200 0.26050 0.12200 -0.04300
H 	H 	0.54770 0.27000 0.16930 0.03900
C 	C 	0.50120 0.21700 0.10500 0.05800
N 	N 	0.45950 0.20880 0.03400 -0.23200
C 	C 	0.43850 0.17150 0.01320 0.07800
C 	C 	0.45910 0.14230 0.06300 -0.12200
H 	H 	0.44480 0.11670 0.04920 0.05400
C 	C 	0.50080 0.15040 0.13400 0.03300
H 	H 	0.51490 0.13050 0.16850 0.00900
C 	C 	0.52180 0.18780 0.15490 -0.11800
H 	H 	0.55020 0.19340 0.20340 0.06100
C 	C 	0.39950 0.16580 0.93900 -0.06900
H 	H 	0.38680 0.14020 0.92170 0.03600
N 	N 	0.38050 0.19410 0.89400 -0.17800
C 	C 	0.34000 0.19140 0.81700 -0.09100
H 	H 	0.32540 0.16460 0.80440 0.05100
H 	H 	0.30880 0.20890 0.80090 0.03000
C 	C 	0.36320 0.20220 0.77660 -0.02600
C 	C 	0.41170 0.18540 0.79630 0.00500
H 	H 	0.42990 0.16630 0.83240 0.02400
C 	C 	0.43340 0.19650 0.76300 -0.15900
H 	H 	0.46650 0.18500 0.77660 0.10000
C 	C 	0.40670 0.22440 0.71020 0.20700
C 	C 	0.35830 0.24120 0.69050 -0.16600
H 	H 	0.34010 0.26030 0.65440 0.08700
C 	C 	0.33660 0.23010 0.72370 0.00600
H 	H 	0.30350 0.24160 0.71020 0.02100
O 	O 	0.42950 0.23100 0.67900 -0.22200
C 	C 	0.59000 0.26160 0.87200 -0.02300
H 	H 	0.62790 0.25530 0.91570 0.03600
H 	H 	0.59210 0.28630 0.85300 0.03500
C 	C 	0.55130 0.26550 0.88960 0.07600
C 	C 	0.56830 0.24220 0.94670 -0.12100
H 	H 	0.60170 0.22800 0.97070 0.07000
C 	C 	0.53650 0.23970 0.96880 0.04700
H 	H 	0.54820 0.22380 0.00780 0.00300
N 	N 	0.48770 0.26060 0.93370 -0.23200
C 	C 	0.47070 0.28390 0.87660 0.02600
C 	C 	0.50250 0.28640 0.85460 -0.10500
H 	H 	0.49080 0.30230 0.81550 0.06400
C 	C 	0.42540 0.30850 0.83750 0.07000
N 	N 	0.39380 0.30140 0.85880 -0.24500
C 	C 	0.34200 0.31810 0.82260 0.05700
H 	H 	0.32040 0.31320 0.83720 -0.03500
C 	C 	0.32180 0.34200 0.76490 -0.13700
H 	H 	0.28630 0.35340 0.74010 0.09100
C 	C 	0.35340 0.34910 0.74360 0.11000
C 	C 	0.40520 0.33240 0.77980 -0.14600
H 	H 	0.42680 0.33730 0.76520 0.07100
C 	C 	0.33680 0.37700 0.68200 -0.08000
H 	H 	0.36420 0.39810 0.69990 0.05400
H 	H 	0.33330 0.36280 0.64440 0.05200
O 	O 	0.27920 0.39370 0.65580 -0.22100
C 	C 	0.26040 0.41930 0.60520 0.20700
C 	C 	0.21000 0.43350 0.58290 -0.15900
H 	H 	0.19570 0.42560 0.60620 0.08600
C 	C 	0.18040 0.45930 0.52700 -0.02000
H 	H 	0.14600 0.46900 0.51150 0.00800
C 	C 	0.20130 0.47090 0.49280 -0.03400
C 	C 	0.25180 0.45680 0.51500 0.00200
H 	H 	0.26600 0.46470 0.49180 0.02300
C 	C 	0.28130 0.43100 0.57100 -0.16800
H 	H 	0.31580 0.42130 0.58640 0.08400
C 	C 	0.16100 0.49600 0.41800 -0.11500
H 	H 	0.12200 0.48950 0.39060 0.05700
H 	H 	0.17290 0.49400 0.38870 0.06000
N 	N 	0.17450 0.53940 0.45400 -0.19500
C 	C 	0.15000 0.56560 0.40700 -0.05400
H 	H 	0.12670 0.55880 0.35890 0.04300
C 	C 	0.15700 0.60790 0.42900 0.05500
N 	N 	0.18750 0.61630 0.50000 -0.23000
C 	C 	0.19440 0.65450 0.52260 0.05600
C 	C 	0.17090 0.68440 0.47300 -0.11300
H 	H 	0.17560 0.71050 0.48840 0.04400
C 	C 	0.14040 0.67600 0.40200 0.02600
H 	H 	0.12430 0.69640 0.36830 0.00900
C 	C 	0.13340 0.63770 0.37980 -0.11300
H 	H 	0.11260 0.63200 0.33100 0.05900
C 	C 	0.23070 0.65110 0.60200 -0.03600
H 	H 	0.23930 0.67470 0.62750 0.03100
N 	N 	0.25020 0.62170 0.63800 -0.20600
C 	C 	0.28700 0.63280 0.71300 -0.07800
H 	H 	0.28610 0.66120 0.71830 0.04500
H 	H 	0.27500 0.62000 0.73830 0.03200
C 	C 	0.34850 0.61900 0.74650 -0.02000
C 	C 	0.37190 0.63580 0.71880 -0.00600
H 	H 	0.35160 0.65410 0.68160 0.02600
C 	C 	0.42510 0.62580 0.74560 -0.14400
H 	H 	0.44110 0.63720 0.72670 0.08800
C 	C 	0.45480 0.59900 0.80010 0.16900
C 	C 	0.43140 0.58220 0.82780 -0.13900
H 	H 	0.45170 0.56380 0.86510 0.08000
C 	C 	0.37820 0.59210 0.80100 -0.00900
H 	H 	0.36220 0.58070 0.81990 0.02600
O 	O 	0.51050 0.58980 0.83080 -0.20100
Cd	Cd	0.77121 0.56196 0.92380 1.16800
Cd	Cd	0.57574 0.26047 0.54880 1.17000
C 	C 	0.53690 0.55520 0.87700 -0.06000
H 	H 	0.53910 0.55690 0.91950 0.05000
H 	H 	0.51880 0.53060 0.85170 0.04600
C 	C 	0.59340 0.56090 0.89420 0.10400
C 	C 	0.63690 0.58390 0.94690 -0.14100
H 	H 	0.63280 0.59960 0.97550 0.07500
C 	C 	0.68650 0.58380 0.95790 0.05800
H 	H 	0.71620 0.59950 0.99390 -0.01100
N 	N 	0.69250 0.56080 0.91610 -0.23100
C 	C 	0.64900 0.53790 0.86330 0.05200
C 	C 	0.59950 0.53790 0.85240 -0.12900
H 	H 	0.56970 0.52230 0.81630 0.07300
C 	C 	0.65450 0.51590 0.81700 0.03900
N 	N 	0.70680 0.52030 0.83070 -0.23300
C 	C 	0.71350 0.50140 0.78300 0.05500
H 	H 	0.74620 0.50560 0.78880 -0.02400
C 	C 	0.67380 0.47760 0.73100 -0.14400
H 	H 	0.68060 0.46460 0.70250 0.09500
C 	C 	0.62800 0.47220 0.71800 0.09700
C 	C 	0.61740 0.49010 0.76600 -0.11700
H 	H 	0.58530 0.48350 0.76060 0.06000
C 	C 	0.58460 0.44450 0.66700 -0.03400
H 	H 	0.55000 0.45810 0.62980 0.03600
H 	H 	0.57710 0.42560 0.69100 0.04000
O 	O 	0.60860 0.42650 0.63990 -0.22700
C 	C 	0.57280 0.40290 0.58550 0.20100
C 	C 	0.59950 0.38440 0.56360 -0.15400
H 	H 	0.63700 0.39020 0.58580 0.08500
C 	C 	0.57150 0.35750 0.50920 -0.02000
H 	H 	0.58970 0.34480 0.49420 -0.00200
C 	C 	0.51670 0.34900 0.47670 -0.03500
C 	C 	0.49000 0.36750 0.49860 0.01100
H 	H 	0.45250 0.36170 0.47640 0.02300
C 	C 	0.51800 0.39440 0.55300 -0.17000
H 	H 	0.49980 0.40710 0.56800 0.08300
C 	C 	0.47700 0.32350 0.40400 -0.10300
H 	H 	0.48220 0.33110 0.36920 0.06300
H 	H 	0.43790 0.32590 0.38290 0.06300
N 	N 	0.49930 0.28210 0.43300 -0.19600
C 	C 	0.47800 0.26050 0.37800 -0.04300
H 	H 	0.45230 0.27000 0.33070 0.03900
C 	C 	0.49880 0.21700 0.39500 0.05700
N 	N 	0.54050 0.20880 0.46600 -0.23200
C 	C 	0.56150 0.17150 0.48680 0.07100
C 	C 	0.54090 0.14230 0.43700 -0.11800
H 	H 	0.55520 0.11670 0.45080 0.05200
C 	C 	0.49920 0.15040 0.36600 0.03100
H 	H 	0.48510 0.13050 0.33150 0.01000
C 	C 	0.47820 0.18780 0.34510 -0.11600
H 	H 	0.44980 0.19340 0.29660 0.06100
C 	C 	0.60050 0.16580 0.56100 -0.06200
H 	H 	0.61320 0.14020 0.57830 0.03500
N 	N 	0.61950 0.19410 0.60600 -0.17800
C 	C 	0.66000 0.19140 0.68300 -0.09000
H 	H 	0.67460 0.16460 0.69560 0.05100
H 	H 	0.69120 0.20890 0.69910 0.03000
C 	C 	0.63680 0.20220 0.72340 -0.02600
C 	C 	0.58830 0.18540 0.70370 0.00500
H 	H 	0.57010 0.16630 0.66760 0.02500
C 	C 	0.56660 0.19650 0.73700 -0.15900
H 	H 	0.53350 0.18500 0.72340 0.10000
C 	C 	0.59330 0.22440 0.78980 0.20700
C 	C 	0.64170 0.24120 0.80950 -0.16600
H 	H 	0.65990 0.26030 0.84560 0.08600
C 	C 	0.66340 0.23010 0.77630 0.00600
H 	H 	0.69650 0.24160 0.78980 0.02100
O 	O 	0.57050 0.23100 0.82100 -0.22200
C 	C 	0.41000 0.26160 0.62800 -0.02500
H 	H 	0.37210 0.25530 0.58430 0.03700
H 	H 	0.40790 0.28630 0.64700 0.03500
C 	C 	0.44870 0.26550 0.61040 0.07900
C 	C 	0.43170 0.24220 0.55330 -0.12600
H 	H 	0.39830 0.22800 0.52930 0.07300
C 	C 	0.46350 0.23970 0.53120 0.05800
H 	H 	0.45180 0.22380 0.49220 -0.00400
N 	N 	0.51230 0.26060 0.56630 -0.23300
C 	C 	0.52930 0.28390 0.62340 0.02700
C 	C 	0.49750 0.28640 0.64540 -0.10700
H 	H 	0.50920 0.30230 0.68450 0.06500
C 	C 	0.57460 0.30850 0.66250 0.07000
N 	N 	0.60620 0.30140 0.64120 -0.24500
C 	C 	0.65800 0.31810 0.67740 0.05700
H 	H 	0.67960 0.31320 0.66280 -0.03400
C 	C 	0.67820 0.34200 0.73510 -0.13700
H 	H 	0.71370 0.35340 0.75990 0.09100
C 	C 	0.64660 0.34910 0.75640 0.11000
C 	C 	0.59480 0.33240 0.72020 -0.14600
H 	H 	0.57320 0.33730 0.73480 0.07100
C 	C 	0.66320 0.37700 0.81800 -0.08000
H 	H 	0.63580 0.39810 0.80010 0.05400
H 	H 	0.66670 0.36280 0.85560 0.05200
O 	O 	0.72080 0.39370 0.84420 -0.21800
C 	C 	0.73960 0.41930 0.89480 0.19600
C 	C 	0.79000 0.43350 0.91710 -0.14600
H 	H 	0.80430 0.42560 0.89380 0.08100
C 	C 	0.81960 0.45930 0.97300 -0.04000
H 	H 	0.85400 0.46900 0.98850 0.01300
C 	C 	0.79870 0.47090 0.00720 -0.01200
C 	C 	0.74820 0.45680 0.98500 -0.02600
H 	H 	0.73400 0.46470 0.00820 0.03600
C 	C 	0.71870 0.43100 0.92900 -0.15100
H 	H 	0.68420 0.42130 0.91360 0.07700
C 	C 	0.83900 0.49600 0.08200 -0.12200
H 	H 	0.87800 0.48950 0.10940 0.06000
H 	H 	0.82710 0.49400 0.11130 0.06300
N 	N 	0.82550 0.53940 0.04600 -0.19300
C 	C 	0.85000 0.56560 0.09300 -0.05300
H 	H 	0.87330 0.55880 0.14110 0.04300
C 	C 	0.84300 0.60790 0.07100 0.05400
N 	N 	0.81250 0.61630 -0.00000 -0.22500
C 	C 	0.80560 0.65450 0.97740 0.04500
C 	C 	0.82910 0.68440 0.02700 -0.10300
H 	H 	0.82440 0.71050 0.01160 0.04200
C 	C 	0.85960 0.67600 0.09800 0.02100
H 	H 	0.87570 0.69640 0.13170 0.01200
C 	C 	0.86660 0.63770 0.12020 -0.10900
H 	H 	0.88740 0.63200 0.16900 0.05800
C 	C 	0.76930 0.65110 0.89800 -0.03300
H 	H 	0.76070 0.67470 0.87250 0.02900
N 	N 	0.74980 0.62170 0.86200 -0.20700
C 	C 	0.71300 0.63280 0.78700 -0.07800
H 	H 	0.71390 0.66120 0.78170 0.04500
H 	H 	0.72500 0.62000 0.76170 0.03200
C 	C 	0.65150 0.61900 0.75350 -0.02000
C 	C 	0.62810 0.63580 0.78120 -0.00600
H 	H 	0.64840 0.65410 0.81840 0.02600
C 	C 	0.57490 0.62580 0.75440 -0.14400
H 	H 	0.55890 0.63720 0.77330 0.08800
C 	C 	0.54520 0.59900 0.69990 0.16900
C 	C 	0.56860 0.58220 0.67220 -0.13900
H 	H 	0.54830 0.56380 0.63490 0.08000
C 	C 	0.62180 0.59210 0.69900 -0.00900
H 	H 	0.63780 0.58070 0.68010 0.02600
O 	O 	0.48950 0.58980 0.66920 -0.20100
Cd	Cd	0.72879 0.06196 0.57620 1.16900
Cd	Cd	0.92426 0.76047 0.95120 1.16900
C 	C 	0.96310 0.05520 0.62300 -0.06100
H 	H 	0.96090 0.05690 0.58050 0.05100
H 	H 	0.98120 0.03060 0.64830 0.04600
C 	C 	0.90660 0.06090 0.60580 0.10500
C 	C 	0.86310 0.08390 0.55310 -0.14100
H 	H 	0.86720 0.09960 0.52450 0.07600
C 	C 	0.81350 0.08380 0.54210 0.05800
H 	H 	0.78380 0.09950 0.50610 -0.00900
N 	N 	0.80750 0.06080 0.58390 -0.23000
C 	C 	0.85100 0.03790 0.63670 0.05300
C 	C 	0.90050 0.03790 0.64760 -0.13000
H 	H 	0.93030 0.02230 0.68370 0.07300
C 	C 	0.84550 0.01590 0.68300 0.03900
N 	N 	0.79320 0.02030 0.66930 -0.23300
C 	C 	0.78650 0.00140 0.71700 0.05400
H 	H 	0.75380 0.00560 0.71120 -0.02400
C 	C 	0.82620 0.97760 0.76900 -0.14400
H 	H 	0.81940 0.96460 0.79750 0.09400
C 	C 	0.87200 0.97220 0.78200 0.09700
C 	C 	0.88260 0.99010 0.73400 -0.11600
H 	H 	0.91470 0.98350 0.73940 0.06000
C 	C 	0.91540 0.94450 0.83300 -0.03400
H 	H 	0.95000 0.95810 0.87020 0.03600
H 	H 	0.92290 0.92560 0.80900 0.04000
O 	O 	0.89140 0.92650 0.86010 -0.22600
C 	C 	0.92720 0.90290 0.91450 0.19700
C 	C 	0.90050 0.88440 0.93640 -0.14500
H 	H 	0.86300 0.89020 0.91420 0.08000
C 	C 	0.92850 0.85750 0.99080 -0.04000
H 	H 	0.91030 0.84480 0.00580 0.00800
C 	C 	0.98330 0.84900 0.02330 -0.02300
C 	C 	0.01000 0.86750 0.00140 0.01000
H 	H 	0.04750 0.86170 0.02360 0.02400
C 	C 	0.98200 0.89440 0.94700 -0.17100
H 	H 	0.00020 0.90710 0.93200 0.08300
C 	C 	0.02300 0.82350 0.09600 -0.10700
H 	H 	0.01780 0.83110 0.13080 0.06500
H 	H 	0.06210 0.82590 0.11710 0.06400
N 	N 	0.00070 0.78210 0.06700 -0.19500
C 	C 	0.02200 0.76050 0.12200 -0.04300
H 	H 	0.04770 0.77000 0.16930 0.03900
C 	C 	0.00120 0.71700 0.10500 0.05700
N 	N 	0.95950 0.70880 0.03400 -0.23100
C 	C 	0.93850 0.67150 0.01320 0.07700
C 	C 	0.95910 0.64230 0.06300 -0.12000
H 	H 	0.94480 0.61670 0.04920 0.05300
C 	C 	0.00080 0.65040 0.13400 0.03100
H 	H 	0.01490 0.63050 0.16850 0.00900
C 	C 	0.02180 0.68780 0.15490 -0.11700
H 	H 	0.05020 0.69340 0.20340 0.06100
C 	C 	0.89950 0.66580 0.93900 -0.06900
H 	H 	0.88680 0.64020 0.92170 0.03600
N 	N 	0.88050 0.69410 0.89400 -0.17800
C 	C 	0.84000 0.69140 0.81700 -0.09100
H 	H 	0.82540 0.66460 0.80440 0.05100
H 	H 	0.80880 0.70890 0.80090 0.03000
C 	C 	0.86320 0.70220 0.77660 -0.02600
C 	C 	0.91170 0.68540 0.79630 0.00500
H 	H 	0.92990 0.66630 0.83240 0.02400
C 	C 	0.93340 0.69650 0.76300 -0.15900
H 	H 	0.96650 0.68500 0.77660 0.10000
C 	C 	0.90670 0.72440 0.71020 0.20700
C 	C 	0.85830 0.74120 0.69050 -0.16600
H 	H 	0.84010 0.76030 0.65440 0.08700
C 	C 	0.83660 0.73010 0.72370 0.00600
H 	H 	0.80350 0.74160 0.71020 0.02100
O 	O 	0.92950 0.73100 0.67900 -0.22200
C 	C 	0.09000 0.76160 0.87200 -0.02300
H 	H 	0.12790 0.75530 0.91570 0.03600
H 	H 	0.09210 0.78630 0.85300 0.03500
C 	C 	0.05130 0.76550 0.88960 0.07600
C 	C 	0.06830 0.74220 0.94670 -0.12200
H 	H 	0.10170 0.72800 0.97070 0.07100
C 	C 	0.03650 0.73970 0.96880 0.04900
H 	H 	0.04820 0.72380 0.00780 0.00100
N 	N 	0.98770 0.76060 0.93370 -0.23200
C 	C 	0.97070 0.78390 0.87660 0.02600
C 	C 	0.00250 0.78640 0.85460 -0.10500
H 	H 	0.99080 0.80230 0.81550 0.06400
C 	C 	0.92540 0.80850 0.83750 0.07000
N 	N 	0.89380 0.80140 0.85880 -0.24500
C 	C 	0.84200 0.81810 0.82260 0.05700
H 	H 	0.82040 0.81320 0.83720 -0.03500
C 	C 	0.82180 0.84200 0.76490 -0.13700
H 	H 	0.78630 0.85340 0.74010 0.09100
C 	C 	0.85340 0.84910 0.74360 0.11000
C 	C 	0.90520 0.83240 0.77980 -0.14600
H 	H 	0.92680 0.83730 0.76520 0.07100
C 	C 	0.83680 0.87700 0.68200 -0.08000
H 	H 	0.86420 0.89810 0.69990 0.05400
H 	H 	0.83330 0.86280 0.64440 0.05200
O 	O 	0.77920 0.89370 0.65580 -0.22100
C 	C 	0.76040 0.91930 0.60520 0.20700
C 	C 	0.71000 0.93350 0.58290 -0.15900
H 	H 	0.69570 0.92560 0.60620 0.08600
C 	C 	0.68040 0.95930 0.52700 -0.02000
H 	H 	0.64600 0.96900 0.51150 0.00900
C 	C 	0.70130 0.97090 0.49280 -0.03400
C 	C 	0.75180 0.95680 0.51500 0.00200
H 	H 	0.76600 0.96470 0.49180 0.02300
C 	C 	0.78130 0.93100 0.57100 -0.16800
H 	H 	0.81580 0.92130 0.58640 0.08400
C 	C 	0.66100 0.99600 0.41800 -0.11500
H 	H 	0.62200 0.98950 0.39060 0.05700
H 	H 	0.67290 0.99400 0.38870 0.06000
N 	N 	0.67450 0.03940 0.45400 -0.19500
C 	C 	0.65000 0.06560 0.40700 -0.05400
H 	H 	0.62670 0.05880 0.35890 0.04300
C 	C 	0.65700 0.10790 0.42900 0.05500
N 	N 	0.68750 0.11630 0.50000 -0.22900
C 	C 	0.69440 0.15450 0.52260 0.05600
C 	C 	0.67090 0.18440 0.47300 -0.11300
H 	H 	0.67560 0.21050 0.48840 0.04400
C 	C 	0.64040 0.17600 0.40200 0.02600
H 	H 	0.62430 0.19640 0.36830 0.01000
C 	C 	0.63340 0.13770 0.37980 -0.11300
H 	H 	0.61260 0.13200 0.33100 0.06000
C 	C 	0.73070 0.15110 0.60200 -0.03600
H 	H 	0.73930 0.17470 0.62750 0.03100
N 	N 	0.75020 0.12170 0.63800 -0.20600
C 	C 	0.78700 0.13280 0.71300 -0.07800
H 	H 	0.78610 0.16120 0.71830 0.04500
H 	H 	0.77500 0.12000 0.73830 0.03200
C 	C 	0.84850 0.11900 0.74650 -0.02000
C 	C 	0.87190 0.13580 0.71880 -0.00600
H 	H 	0.85160 0.15410 0.68160 0.02600
C 	C 	0.92510 0.12580 0.74560 -0.14400
H 	H 	0.94110 0.13720 0.72670 0.08800
C 	C 	0.95480 0.09900 0.80010 0.16900
C 	C 	0.93140 0.08220 0.82780 -0.13900
H 	H 	0.95170 0.06380 0.86510 0.08000
C 	C 	0.87820 0.09210 0.80100 -0.00900
H 	H 	0.86220 0.08070 0.81990 0.02600
O 	O 	0.01050 0.08980 0.83080 -0.20100
Cd	Cd	0.27121 0.06196 0.92380 1.16800
Cd	Cd	0.07574 0.76047 0.54880 1.17000
C 	C 	0.03690 0.05520 0.87700 -0.06000
H 	H 	0.03910 0.05690 0.91950 0.05000
H 	H 	0.01880 0.03060 0.85170 0.04600
C 	C 	0.09340 0.06090 0.89420 0.10400
C 	C 	0.13690 0.08390 0.94690 -0.14100
H 	H 	0.13280 0.09960 0.97550 0.07500
C 	C 	0.18650 0.08380 0.95790 0.05800
H 	H 	0.21620 0.09950 0.99390 -0.01100
N 	N 	0.19250 0.06080 0.91610 -0.23100
C 	C 	0.14900 0.03790 0.86330 0.05200
C 	C 	0.09950 0.03790 0.85240 -0.13000
H 	H 	0.06970 0.02230 0.81630 0.07300
C 	C 	0.15450 0.01590 0.81700 0.03800
N 	N 	0.20680 0.02030 0.83070 -0.23300
C 	C 	0.21350 0.00140 0.78300 0.05400
H 	H 	0.24620 0.00560 0.78880 -0.02400
C 	C 	0.17380 0.97760 0.73100 -0.14400
H 	H 	0.18060 0.96460 0.70250 0.09500
C 	C 	0.12800 0.97220 0.71800 0.09700
C 	C 	0.11740 0.99010 0.76600 -0.11600
H 	H 	0.08530 0.98350 0.76060 0.06000
C 	C 	0.08460 0.94450 0.66700 -0.03400
H 	H 	0.05000 0.95810 0.62980 0.03600
H 	H 	0.07710 0.92560 0.69100 0.04000
O 	O 	0.10860 0.92650 0.63990 -0.22700
C 	C 	0.07280 0.90290 0.58550 0.20100
C 	C 	0.09950 0.88440 0.56360 -0.15500
H 	H 	0.13700 0.89020 0.58580 0.08500
C 	C 	0.07150 0.85750 0.50920 -0.01900
H 	H 	0.08970 0.84480 0.49420 -0.00200
C 	C 	0.01670 0.84900 0.47670 -0.03600
C 	C 	0.99000 0.86750 0.49860 0.01200
H 	H 	0.95250 0.86170 0.47640 0.02200
C 	C 	0.01800 0.89440 0.55300 -0.17100
H 	H 	0.99980 0.90710 0.56800 0.08400
C 	C 	0.97700 0.82350 0.40400 -0.10200
H 	H 	0.98220 0.83110 0.36920 0.06300
H 	H 	0.93790 0.82590 0.38290 0.06200
N 	N 	0.99930 0.78210 0.43300 -0.19600
C 	C 	0.97800 0.76050 0.37800 -0.04300
H 	H 	0.95230 0.77000 0.33070 0.03900
C 	C 	0.99880 0.71700 0.39500 0.05700
N 	N 	0.04050 0.70880 0.46600 -0.23200
C 	C 	0.06150 0.67150 0.48680 0.07100
C 	C 	0.04090 0.64230 0.43700 -0.11900
H 	H 	0.05520 0.61670 0.45080 0.05200
C 	C 	0.99920 0.65040 0.36600 0.03100
H 	H 	0.98510 0.63050 0.33150 0.01000
C 	C 	0.97820 0.68780 0.34510 -0.11600
H 	H 	0.94980 0.69340 0.29660 0.06100
C 	C 	0.10050 0.66580 0.56100 -0.06200
H 	H 	0.11320 0.64020 0.57830 0.03500
N 	N 	0.11950 0.69410 0.60600 -0.17800
C 	C 	0.16000 0.69140 0.68300 -0.09000
H 	H 	0.17460 0.66460 0.69560 0.05100
H 	H 	0.19120 0.70890 0.69910 0.03000
C 	C 	0.13680 0.70220 0.72340 -0.02600
C 	C 	0.08830 0.68540 0.70370 0.00500
H 	H 	0.07010 0.66630 0.66760 0.02500
C 	C 	0.06660 0.69650 0.73700 -0.15900
H 	H 	0.03350 0.68500 0.72340 0.10000
C 	C 	0.09330 0.72440 0.78980 0.20700
C 	C 	0.14170 0.74120 0.80950 -0.16600
H 	H 	0.15990 0.76030 0.84560 0.08600
C 	C 	0.16340 0.73010 0.77630 0.00600
H 	H 	0.19650 0.74160 0.78980 0.02100
O 	O 	0.07050 0.73100 0.82100 -0.22200
C 	C 	0.91000 0.76160 0.62800 -0.02500
H 	H 	0.87210 0.75530 0.58430 0.03700
H 	H 	0.90790 0.78630 0.64700 0.03500
C 	C 	0.94870 0.76550 0.61040 0.07900
C 	C 	0.93170 0.74220 0.55330 -0.12600
H 	H 	0.89830 0.72800 0.52930 0.07300
C 	C 	0.96350 0.73970 0.53120 0.05800
H 	H 	0.95180 0.72380 0.49220 -0.00400
N 	N 	0.01230 0.76060 0.56630 -0.23300
C 	C 	0.02930 0.78390 0.62340 0.02700
C 	C 	0.99750 0.78640 0.64540 -0.10700
H 	H 	0.00920 0.80230 0.68450 0.06500
C 	C 	0.07460 0.80850 0.66250 0.07000
N 	N 	0.10620 0.80140 0.64120 -0.24500
C 	C 	0.15800 0.81810 0.67740 0.05700
H 	H 	0.17960 0.81320 0.66280 -0.03400
C 	C 	0.17820 0.84200 0.73510 -0.13700
H 	H 	0.21370 0.85340 0.75990 0.09100
C 	C 	0.14660 0.84910 0.75640 0.11000
C 	C 	0.09480 0.83240 0.72020 -0.14600
H 	H 	0.07320 0.83730 0.73480 0.07100
C 	C 	0.16320 0.87700 0.81800 -0.08000
H 	H 	0.13580 0.89810 0.80010 0.05400
H 	H 	0.16670 0.86280 0.85560 0.05200
O 	O 	0.22080 0.89370 0.84420 -0.21900
C 	C 	0.23960 0.91930 0.89480 0.19800
C 	C 	0.29000 0.93350 0.91710 -0.14800
H 	H 	0.30430 0.92560 0.89380 0.08200
C 	C 	0.31960 0.95930 0.97300 -0.03700
H 	H 	0.35400 0.96900 0.98850 0.01300
C 	C 	0.29870 0.97090 0.00720 -0.01500
C 	C 	0.24820 0.95680 0.98500 -0.02200
H 	H 	0.23400 0.96470 0.00820 0.03400
C 	C 	0.21870 0.93100 0.92900 -0.15400
H 	H 	0.18420 0.92130 0.91360 0.07800
C 	C 	0.33900 0.99600 0.08200 -0.12200
H 	H 	0.37800 0.98950 0.10940 0.06000
H 	H 	0.32710 0.99400 0.11130 0.06200
N 	N 	0.32550 0.03940 0.04600 -0.19300
C 	C 	0.35000 0.06560 0.09300 -0.05300
H 	H 	0.37330 0.05880 0.14110 0.04300
C 	C 	0.34300 0.10790 0.07100 0.05400
N 	N 	0.31250 0.11630 -0.00000 -0.22500
C 	C 	0.30560 0.15450 0.97740 0.04600
C 	C 	0.32910 0.18440 0.02700 -0.10300
H 	H 	0.32440 0.21050 0.01160 0.04200
C 	C 	0.35960 0.17600 0.09800 0.02100
H 	H 	0.37570 0.19640 0.13170 0.01200
C 	C 	0.36660 0.13770 0.12020 -0.10900
H 	H 	0.38740 0.13200 0.16900 0.05800
C 	C 	0.26930 0.15110 0.89800 -0.03300
H 	H 	0.26070 0.17470 0.87250 0.02900
N 	N 	0.24980 0.12170 0.86200 -0.20700
C 	C 	0.21300 0.13280 0.78700 -0.07800
H 	H 	0.21390 0.16120 0.78170 0.04500
H 	H 	0.22500 0.12000 0.76170 0.03200
C 	C 	0.15150 0.11900 0.75350 -0.02000
C 	C 	0.12810 0.13580 0.78120 -0.00600
H 	H 	0.14840 0.15410 0.81840 0.02600
C 	C 	0.07490 0.12580 0.75440 -0.14400
H 	H 	0.05890 0.13720 0.77330 0.08800
C 	C 	0.04520 0.09900 0.69990 0.16900
C 	C 	0.06860 0.08220 0.67220 -0.13900
H 	H 	0.04830 0.06380 0.63490 0.08000
C 	C 	0.12180 0.09210 0.69900 -0.00900
H 	H 	0.13780 0.08070 0.68010 0.02600
O 	O 	0.98950 0.08980 0.66920 -0.20100
