data_crystal

_cell_length_a 29.98300
_cell_length_b 29.98300
_cell_length_c 29.98300
_cell_angle_alpha 90.00000
_cell_angle_beta  90.00000
_cell_angle_gamma 90.00000

_symmetry_space_group_name_	'P 1'
_symmetry_space_group_name_H-M	'P 1'

loop_
_symmetry_equiv_pos_as_xyz
  x,y,z

loop_
_atom_site_label
_atom_site_type_symbol
_atom_site_fract_x
_atom_site_fract_y
_atom_site_fract_z
_atom_site_charge
H 	H 	0.13590 0.22310 0.97690 0.20700
H 	H 	0.13590 0.72310 0.47690 0.13500
H 	H 	0.63590 0.22310 0.47690 0.13700
H 	H 	0.63590 0.72310 0.97690 0.21500
H 	H 	0.86410 0.77690 0.97690 0.22600
H 	H 	0.86410 0.27690 0.47690 0.14900
H 	H 	0.36410 0.77690 0.47690 0.14300
H 	H 	0.36410 0.27690 0.97690 0.21500
H 	H 	0.86410 0.22310 0.02310 0.15200
H 	H 	0.86410 0.72310 0.52310 0.15000
H 	H 	0.36410 0.22310 0.52310 0.13600
H 	H 	0.36410 0.72310 0.02310 0.14600
H 	H 	0.13590 0.77690 0.02310 0.14400
H 	H 	0.13590 0.27690 0.52310 0.13400
H 	H 	0.63590 0.77690 0.52310 0.14400
H 	H 	0.63590 0.27690 0.02310 0.14500
H 	H 	0.97690 0.13590 0.22310 0.20700
H 	H 	0.97690 0.63590 0.72310 0.21500
H 	H 	0.47690 0.13590 0.72310 0.13500
H 	H 	0.47690 0.63590 0.22310 0.13700
H 	H 	0.97690 0.86410 0.77690 0.22600
H 	H 	0.97690 0.36410 0.27690 0.21500
H 	H 	0.47690 0.86410 0.27690 0.14900
H 	H 	0.47690 0.36410 0.77690 0.14300
H 	H 	0.02310 0.86410 0.22310 0.15200
H 	H 	0.02310 0.36410 0.72310 0.14600
H 	H 	0.52310 0.86410 0.72310 0.15000
H 	H 	0.52310 0.36410 0.22310 0.13600
H 	H 	0.02310 0.13590 0.77690 0.14400
H 	H 	0.02310 0.63590 0.27690 0.14500
H 	H 	0.52310 0.13590 0.27690 0.13400
H 	H 	0.52310 0.63590 0.77690 0.14400
H 	H 	0.22310 0.97690 0.13590 0.20800
H 	H 	0.22310 0.47690 0.63590 0.13800
H 	H 	0.72310 0.97690 0.63590 0.21600
H 	H 	0.72310 0.47690 0.13590 0.13600
H 	H 	0.77690 0.97690 0.86410 0.22700
H 	H 	0.77690 0.47690 0.36410 0.14400
H 	H 	0.27690 0.97690 0.36410 0.21600
H 	H 	0.27690 0.47690 0.86410 0.15000
H 	H 	0.22310 0.02310 0.86410 0.15300
H 	H 	0.22310 0.52310 0.36410 0.13700
H 	H 	0.72310 0.02310 0.36410 0.14700
H 	H 	0.72310 0.52310 0.86410 0.15100
H 	H 	0.77690 0.02310 0.13590 0.14500
H 	H 	0.77690 0.52310 0.63590 0.14500
H 	H 	0.27690 0.02310 0.63590 0.14600
H 	H 	0.27690 0.52310 0.13590 0.13500
H 	H 	0.22310 0.13590 0.02310 0.13800
H 	H 	0.22310 0.63590 0.52310 0.13800
H 	H 	0.72310 0.13590 0.52310 0.13600
H 	H 	0.72310 0.63590 0.02310 0.14700
H 	H 	0.77690 0.86410 0.02310 0.16000
H 	H 	0.77690 0.36410 0.52310 0.14400
H 	H 	0.27690 0.86410 0.52310 0.15000
H 	H 	0.27690 0.36410 0.02310 0.14600
H 	H 	0.22310 0.86410 0.97690 0.22200
H 	H 	0.22310 0.36410 0.47690 0.13700
H 	H 	0.72310 0.86410 0.47690 0.15100
H 	H 	0.72310 0.36410 0.97690 0.21600
H 	H 	0.77690 0.13590 0.97690 0.21400
H 	H 	0.77690 0.63590 0.47690 0.14500
H 	H 	0.27690 0.13590 0.47690 0.13500
H 	H 	0.27690 0.63590 0.97690 0.21600
H 	H 	0.13590 0.97690 0.77690 0.21400
H 	H 	0.13590 0.47690 0.27690 0.13500
H 	H 	0.63590 0.97690 0.27690 0.21600
H 	H 	0.63590 0.47690 0.77690 0.14500
H 	H 	0.86410 0.97690 0.22310 0.22200
H 	H 	0.86410 0.47690 0.72310 0.15100
H 	H 	0.36410 0.97690 0.72310 0.21600
H 	H 	0.36410 0.47690 0.22310 0.13700
H 	H 	0.86410 0.02310 0.77690 0.16000
H 	H 	0.86410 0.52310 0.27690 0.15000
H 	H 	0.36410 0.02310 0.27690 0.14600
H 	H 	0.36410 0.52310 0.77690 0.14400
H 	H 	0.13590 0.02310 0.22310 0.13800
H 	H 	0.13590 0.52310 0.72310 0.13600
H 	H 	0.63590 0.02310 0.72310 0.14700
H 	H 	0.63590 0.52310 0.22310 0.13800
H 	H 	0.97690 0.22310 0.86410 0.22200
H 	H 	0.97690 0.72310 0.36410 0.21600
H 	H 	0.47690 0.22310 0.36410 0.13700
H 	H 	0.47690 0.72310 0.86410 0.15100
H 	H 	0.97690 0.77690 0.13590 0.21400
H 	H 	0.97690 0.27690 0.63590 0.21600
H 	H 	0.47690 0.77690 0.63590 0.14500
H 	H 	0.47690 0.27690 0.13590 0.13500
H 	H 	0.02310 0.22310 0.13590 0.13800
H 	H 	0.02310 0.72310 0.63590 0.14700
H 	H 	0.52310 0.22310 0.63590 0.13800
H 	H 	0.52310 0.72310 0.13590 0.13600
H 	H 	0.02310 0.77690 0.86410 0.16000
H 	H 	0.02310 0.27690 0.36410 0.14600
H 	H 	0.52310 0.77690 0.36410 0.14400
H 	H 	0.52310 0.27690 0.86410 0.15000
H 	H 	0.86410 0.77690 0.02310 0.16000
H 	H 	0.86410 0.27690 0.52310 0.15000
H 	H 	0.36410 0.77690 0.52310 0.14400
H 	H 	0.36410 0.27690 0.02310 0.14600
H 	H 	0.13590 0.22310 0.02310 0.13800
H 	H 	0.13590 0.72310 0.52310 0.13600
H 	H 	0.63590 0.22310 0.52310 0.13800
H 	H 	0.63590 0.72310 0.02310 0.14700
H 	H 	0.13590 0.77690 0.97690 0.21400
H 	H 	0.13590 0.27690 0.47690 0.13500
H 	H 	0.63590 0.77690 0.47690 0.14500
H 	H 	0.63590 0.27690 0.97690 0.21600
H 	H 	0.86410 0.22310 0.97690 0.22200
H 	H 	0.86410 0.72310 0.47690 0.15100
H 	H 	0.36410 0.22310 0.47690 0.13700
H 	H 	0.36410 0.72310 0.97690 0.21600
H 	H 	0.02310 0.86410 0.77690 0.16000
H 	H 	0.02310 0.36410 0.27690 0.14600
H 	H 	0.52310 0.86410 0.27690 0.15000
H 	H 	0.52310 0.36410 0.77690 0.14400
H 	H 	0.02310 0.13590 0.22310 0.13800
H 	H 	0.02310 0.63590 0.72310 0.14700
H 	H 	0.52310 0.13590 0.72310 0.13600
H 	H 	0.52310 0.63590 0.22310 0.13800
H 	H 	0.97690 0.13590 0.77690 0.21400
H 	H 	0.97690 0.63590 0.27690 0.21600
H 	H 	0.47690 0.13590 0.27690 0.13500
H 	H 	0.47690 0.63590 0.77690 0.14500
H 	H 	0.97690 0.86410 0.22310 0.22200
H 	H 	0.97690 0.36410 0.72310 0.21600
H 	H 	0.47690 0.86410 0.72310 0.15100
H 	H 	0.47690 0.36410 0.22310 0.13700
H 	H 	0.77690 0.02310 0.86410 0.16000
H 	H 	0.77690 0.52310 0.36410 0.14400
H 	H 	0.27690 0.02310 0.36410 0.14600
H 	H 	0.27690 0.52310 0.86410 0.15000
H 	H 	0.22310 0.02310 0.13590 0.13800
H 	H 	0.22310 0.52310 0.63590 0.13800
H 	H 	0.72310 0.02310 0.63590 0.14700
H 	H 	0.72310 0.52310 0.13590 0.13600
H 	H 	0.77690 0.97690 0.13590 0.21400
H 	H 	0.77690 0.47690 0.63590 0.14500
H 	H 	0.27690 0.97690 0.63590 0.21600
H 	H 	0.27690 0.47690 0.13590 0.13500
H 	H 	0.22310 0.97690 0.86410 0.22200
H 	H 	0.22310 0.47690 0.36410 0.13700
H 	H 	0.72310 0.97690 0.36410 0.21600
H 	H 	0.72310 0.47690 0.86410 0.15100
H 	H 	0.77690 0.86410 0.97690 0.22700
H 	H 	0.77690 0.36410 0.47690 0.14400
H 	H 	0.27690 0.86410 0.47690 0.15000
H 	H 	0.27690 0.36410 0.97690 0.21600
H 	H 	0.22310 0.13590 0.97690 0.20800
H 	H 	0.22310 0.63590 0.47690 0.13800
H 	H 	0.72310 0.13590 0.47690 0.13600
H 	H 	0.72310 0.63590 0.97690 0.21600
H 	H 	0.77690 0.13590 0.02310 0.14500
H 	H 	0.77690 0.63590 0.52310 0.14500
H 	H 	0.27690 0.13590 0.52310 0.13500
H 	H 	0.27690 0.63590 0.02310 0.14600
H 	H 	0.22310 0.86410 0.02310 0.15300
H 	H 	0.22310 0.36410 0.52310 0.13700
H 	H 	0.72310 0.86410 0.52310 0.15100
H 	H 	0.72310 0.36410 0.02310 0.14700
H 	H 	0.86410 0.02310 0.22310 0.15300
H 	H 	0.86410 0.52310 0.72310 0.15100
H 	H 	0.36410 0.02310 0.72310 0.14700
H 	H 	0.36410 0.52310 0.22310 0.13700
H 	H 	0.13590 0.02310 0.77690 0.14500
H 	H 	0.13590 0.52310 0.27690 0.13500
H 	H 	0.63590 0.02310 0.27690 0.14600
H 	H 	0.63590 0.52310 0.77690 0.14500
H 	H 	0.13590 0.97690 0.22310 0.20800
H 	H 	0.13590 0.47690 0.72310 0.13600
H 	H 	0.63590 0.97690 0.72310 0.21600
H 	H 	0.63590 0.47690 0.22310 0.13800
H 	H 	0.86410 0.97690 0.77690 0.22700
H 	H 	0.86410 0.47690 0.27690 0.15000
H 	H 	0.36410 0.97690 0.27690 0.21600
H 	H 	0.36410 0.47690 0.77690 0.14400
H 	H 	0.02310 0.77690 0.13590 0.14500
H 	H 	0.02310 0.27690 0.63590 0.14600
H 	H 	0.52310 0.77690 0.63590 0.14500
H 	H 	0.52310 0.27690 0.13590 0.13500
H 	H 	0.02310 0.22310 0.86410 0.15300
H 	H 	0.02310 0.72310 0.36410 0.14700
H 	H 	0.52310 0.22310 0.36410 0.13700
H 	H 	0.52310 0.72310 0.86410 0.15100
H 	H 	0.97690 0.77690 0.86410 0.22700
H 	H 	0.97690 0.27690 0.36410 0.21600
H 	H 	0.47690 0.77690 0.36410 0.14400
H 	H 	0.47690 0.27690 0.86410 0.15000
H 	H 	0.97690 0.22310 0.13590 0.20800
H 	H 	0.97690 0.72310 0.63590 0.21600
H 	H 	0.47690 0.22310 0.63590 0.13800
H 	H 	0.47690 0.72310 0.13590 0.13600
Zr	Zr	0.08251 0.50000 -0.00000 3.20700
Zr	Zr	0.58251 0.50000 0.50000 3.21400
Zr	Zr	0.91749 0.50000 -0.00000 3.20700
Zr	Zr	0.91749 0.00000 0.50000 3.20700
Zr	Zr	0.41749 0.50000 0.50000 3.21400
Zr	Zr	0.58251 0.00000 -0.00000 3.20100
Zr	Zr	0.00000 0.08251 0.50000 3.20700
Zr	Zr	0.00000 0.58251 -0.00000 3.20100
Zr	Zr	0.50000 0.58251 0.50000 3.21400
Zr	Zr	0.00000 0.91749 0.50000 3.20700
Zr	Zr	0.00000 0.41749 -0.00000 3.20100
Zr	Zr	0.50000 0.08251 -0.00000 3.20700
Zr	Zr	0.50000 0.00000 0.08251 3.20700
Zr	Zr	0.50000 0.50000 0.58251 3.21400
Zr	Zr	0.50000 0.00000 0.91749 3.20700
Zr	Zr	0.50000 0.50000 0.41749 3.21400
Zr	Zr	0.00000 0.50000 0.91749 3.20700
Zr	Zr	0.00000 0.00000 0.58251 3.20100
Zr	Zr	0.50000 0.91749 -0.00000 3.20700
Zr	Zr	0.50000 0.41749 0.50000 3.21400
Zr	Zr	0.08251 0.00000 0.50000 3.20700
Zr	Zr	0.41749 0.00000 -0.00000 3.20100
Zr	Zr	0.00000 0.00000 0.41749 3.20100
Zr	Zr	0.00000 0.50000 0.08251 3.20700
O 	O 	0.11965 0.43630 -0.00000 -0.62600
C 	C 	0.12860 0.31620 -0.00000 -0.11600
H 	H 	0.09840 0.30810 -0.00000 0.07000
C 	C 	0.16040 0.28330 -0.00000 0.11400
C 	C 	0.22910 0.24830 -0.00000 -0.01300
H 	H 	0.21190 0.22130 -0.00000 0.01600
N 	N 	0.14410 0.23670 -0.00000 -0.37600
O 	O 	0.11965 0.93630 0.50000 -0.57200
C 	C 	0.12860 0.81620 0.50000 -0.11100
H 	H 	0.09840 0.80810 0.50000 0.08200
C 	C 	0.16040 0.78330 0.50000 0.11800
C 	C 	0.22910 0.74830 0.50000 -0.01000
H 	H 	0.21190 0.72130 0.50000 0.02200
N 	N 	0.14410 0.73670 0.50000 -0.30900
O 	O 	0.61965 0.43630 0.50000 -0.60400
C 	C 	0.62860 0.31620 0.50000 -0.10900
H 	H 	0.59840 0.30810 0.50000 0.08400
C 	C 	0.66040 0.28330 0.50000 0.11600
C 	C 	0.72910 0.24830 0.50000 -0.01100
H 	H 	0.71190 0.22130 0.50000 0.02100
N 	N 	0.64410 0.23670 0.50000 -0.31000
O 	O 	0.61965 0.93630 -0.00000 -0.59400
C 	C 	0.62860 0.81620 -0.00000 -0.12500
H 	H 	0.59840 0.80810 -0.00000 0.07900
C 	C 	0.66040 0.78330 -0.00000 0.12500
C 	C 	0.72910 0.74830 -0.00000 -0.01200
H 	H 	0.71190 0.72130 -0.00000 0.01700
N 	N 	0.64410 0.73670 -0.00000 -0.38000
O 	O 	0.88035 0.56370 -0.00000 -0.62200
C 	C 	0.87140 0.68380 -0.00000 -0.12700
H 	H 	0.90160 0.69190 -0.00000 0.09200
C 	C 	0.83960 0.71670 -0.00000 0.13300
C 	C 	0.77090 0.75170 -0.00000 -0.01200
H 	H 	0.78810 0.77870 -0.00000 0.01800
N 	N 	0.85590 0.76330 -0.00000 -0.38500
O 	O 	0.88035 0.06370 0.50000 -0.60600
C 	C 	0.87140 0.18380 0.50000 -0.11400
H 	H 	0.90160 0.19190 0.50000 0.09900
C 	C 	0.83960 0.21670 0.50000 0.12700
C 	C 	0.77090 0.25170 0.50000 -0.01000
H 	H 	0.78810 0.27870 0.50000 0.02300
N 	N 	0.85590 0.26330 0.50000 -0.31600
O 	O 	0.38035 0.56370 0.50000 -0.60400
C 	C 	0.37140 0.68380 0.50000 -0.11000
H 	H 	0.40160 0.69190 0.50000 0.08500
C 	C 	0.33960 0.71670 0.50000 0.11900
C 	C 	0.27090 0.75170 0.50000 -0.01100
H 	H 	0.28810 0.77870 0.50000 0.02200
N 	N 	0.35590 0.76330 0.50000 -0.31300
O 	O 	0.38035 0.06370 -0.00000 -0.63100
C 	C 	0.37140 0.18380 -0.00000 -0.11700
H 	H 	0.40160 0.19190 -0.00000 0.07500
C 	C 	0.33960 0.21670 -0.00000 0.11800
C 	C 	0.27090 0.25170 -0.00000 -0.01400
H 	H 	0.28810 0.27870 -0.00000 0.01700
N 	N 	0.35590 0.26330 -0.00000 -0.38000
O 	O 	0.88035 0.43630 -0.00000 -0.62200
C 	C 	0.87140 0.31620 -0.00000 -0.12600
H 	H 	0.90160 0.30810 -0.00000 0.09100
C 	C 	0.83960 0.28330 -0.00000 0.12900
C 	C 	0.77090 0.24830 -0.00000 -0.01200
H 	H 	0.78810 0.22130 -0.00000 0.01800
N 	N 	0.85590 0.23670 -0.00000 -0.38200
O 	O 	0.88035 0.93630 0.50000 -0.57000
C 	C 	0.87140 0.81620 0.50000 -0.12100
H 	H 	0.90160 0.80810 0.50000 0.10200
C 	C 	0.83960 0.78330 0.50000 0.13300
C 	C 	0.77090 0.74830 0.50000 -0.00800
H 	H 	0.78810 0.72130 0.50000 0.02400
N 	N 	0.85590 0.73670 0.50000 -0.31700
O 	O 	0.38035 0.43630 0.50000 -0.60400
C 	C 	0.37140 0.31620 0.50000 -0.10800
H 	H 	0.40160 0.30810 0.50000 0.08300
C 	C 	0.33960 0.28330 0.50000 0.11500
C 	C 	0.27090 0.24830 0.50000 -0.01100
H 	H 	0.28810 0.22130 0.50000 0.02200
N 	N 	0.35590 0.23670 0.50000 -0.31000
O 	O 	0.38035 0.93630 -0.00000 -0.59400
C 	C 	0.37140 0.81620 -0.00000 -0.12400
H 	H 	0.40160 0.80810 -0.00000 0.07800
C 	C 	0.33960 0.78330 -0.00000 0.12400
C 	C 	0.27090 0.74830 -0.00000 -0.01200
H 	H 	0.28810 0.72130 -0.00000 0.01800
N 	N 	0.35590 0.73670 -0.00000 -0.38000
O 	O 	0.11965 0.56370 -0.00000 -0.62600
C 	C 	0.12860 0.68380 -0.00000 -0.11700
H 	H 	0.09840 0.69190 -0.00000 0.07200
C 	C 	0.16040 0.71670 -0.00000 0.11800
C 	C 	0.22910 0.75170 -0.00000 -0.01300
H 	H 	0.21190 0.77870 -0.00000 0.01600
N 	N 	0.14410 0.76330 -0.00000 -0.37800
O 	O 	0.11965 0.06370 0.50000 -0.60900
C 	C 	0.12860 0.18380 0.50000 -0.10400
H 	H 	0.09840 0.19190 0.50000 0.07900
C 	C 	0.16040 0.21670 0.50000 0.11100
C 	C 	0.22910 0.25170 0.50000 -0.01200
H 	H 	0.21190 0.27870 0.50000 0.02100
N 	N 	0.14410 0.26330 0.50000 -0.30800
O 	O 	0.61965 0.56370 0.50000 -0.60400
C 	C 	0.62860 0.68380 0.50000 -0.11000
H 	H 	0.59840 0.69190 0.50000 0.08600
C 	C 	0.66040 0.71670 0.50000 0.12000
C 	C 	0.72910 0.75170 0.50000 -0.01100
H 	H 	0.71190 0.77870 0.50000 0.02000
N 	N 	0.64410 0.76330 0.50000 -0.31300
O 	O 	0.61965 0.06370 -0.00000 -0.63100
C 	C 	0.62860 0.18380 -0.00000 -0.11800
H 	H 	0.59840 0.19190 -0.00000 0.07500
C 	C 	0.66040 0.21670 -0.00000 0.11900
C 	C 	0.72910 0.25170 -0.00000 -0.01300
H 	H 	0.71190 0.27870 -0.00000 0.01600
N 	N 	0.64410 0.26330 -0.00000 -0.37900
O 	O 	-0.00000 0.11965 0.43630 -0.62600
C 	C 	0.00000 0.12860 0.31620 -0.11600
H 	H 	0.00000 0.09840 0.30810 0.07000
C 	C 	0.00000 0.16040 0.28330 0.11400
C 	C 	-0.00000 0.22910 0.24830 -0.01300
H 	H 	0.00000 0.21190 0.22130 0.01600
N 	N 	0.00000 0.14410 0.23670 -0.37600
O 	O 	0.00000 0.61965 0.93630 -0.59400
C 	C 	0.00000 0.62860 0.81620 -0.12500
H 	H 	-0.00000 0.59840 0.80810 0.07900
C 	C 	0.00000 0.66040 0.78330 0.12500
C 	C 	0.00000 0.72910 0.74830 -0.01200
H 	H 	0.00000 0.71190 0.72130 0.01700
N 	N 	0.00000 0.64410 0.73670 -0.38000
O 	O 	0.50000 0.11965 0.93630 -0.57200
C 	C 	0.50000 0.12860 0.81620 -0.11100
H 	H 	0.50000 0.09840 0.80810 0.08200
C 	C 	0.50000 0.16040 0.78330 0.11800
C 	C 	0.50000 0.22910 0.74830 -0.01000
H 	H 	0.50000 0.21190 0.72130 0.02200
N 	N 	0.50000 0.14410 0.73670 -0.30900
O 	O 	0.50000 0.61965 0.43630 -0.60400
C 	C 	0.50000 0.62860 0.31620 -0.10900
H 	H 	0.50000 0.59840 0.30810 0.08400
C 	C 	0.50000 0.66040 0.28330 0.11600
C 	C 	0.50000 0.72910 0.24830 -0.01100
H 	H 	0.50000 0.71190 0.22130 0.02100
N 	N 	0.50000 0.64410 0.23670 -0.31000
O 	O 	0.00000 0.88035 0.56370 -0.62200
C 	C 	0.00000 0.87140 0.68380 -0.12700
H 	H 	-0.00000 0.90160 0.69190 0.09200
C 	C 	0.00000 0.83960 0.71670 0.13300
C 	C 	0.00000 0.77090 0.75170 -0.01200
H 	H 	0.00000 0.78810 0.77870 0.01800
N 	N 	0.00000 0.85590 0.76330 -0.38500
O 	O 	-0.00000 0.38035 0.06370 -0.63100
C 	C 	0.00000 0.37140 0.18380 -0.11700
H 	H 	0.00000 0.40160 0.19190 0.07500
C 	C 	0.00000 0.33960 0.21670 0.11800
C 	C 	0.00000 0.27090 0.25170 -0.01400
H 	H 	-0.00000 0.28810 0.27870 0.01700
N 	N 	0.00000 0.35590 0.26330 -0.38000
O 	O 	0.50000 0.88035 0.06370 -0.60600
C 	C 	0.50000 0.87140 0.18380 -0.11400
H 	H 	0.50000 0.90160 0.19190 0.09900
C 	C 	0.50000 0.83960 0.21670 0.12700
C 	C 	0.50000 0.77090 0.25170 -0.01000
H 	H 	0.50000 0.78810 0.27870 0.02300
N 	N 	0.50000 0.85590 0.26330 -0.31600
O 	O 	0.50000 0.38035 0.56370 -0.60400
C 	C 	0.50000 0.37140 0.68380 -0.11000
H 	H 	0.50000 0.40160 0.69190 0.08500
C 	C 	0.50000 0.33960 0.71670 0.11900
C 	C 	0.50000 0.27090 0.75170 -0.01100
H 	H 	0.50000 0.28810 0.77870 0.02200
N 	N 	0.50000 0.35590 0.76330 -0.31300
O 	O 	0.00000 0.88035 0.43630 -0.62200
C 	C 	0.00000 0.87140 0.31620 -0.12600
H 	H 	0.00000 0.90160 0.30810 0.09100
C 	C 	0.00000 0.83960 0.28330 0.12900
C 	C 	-0.00000 0.77090 0.24830 -0.01200
H 	H 	0.00000 0.78810 0.22130 0.01800
N 	N 	0.00000 0.85590 0.23670 -0.38200
O 	O 	-0.00000 0.38035 0.93630 -0.59400
C 	C 	0.00000 0.37140 0.81620 -0.12400
H 	H 	-0.00000 0.40160 0.80810 0.07800
C 	C 	-0.00000 0.33960 0.78330 0.12400
C 	C 	0.00000 0.27090 0.74830 -0.01200
H 	H 	0.00000 0.28810 0.72130 0.01800
N 	N 	0.00000 0.35590 0.73670 -0.38000
O 	O 	0.50000 0.88035 0.93630 -0.57000
C 	C 	0.50000 0.87140 0.81620 -0.12100
H 	H 	0.50000 0.90160 0.80810 0.10200
C 	C 	0.50000 0.83960 0.78330 0.13300
C 	C 	0.50000 0.77090 0.74830 -0.00800
H 	H 	0.50000 0.78810 0.72130 0.02400
N 	N 	0.50000 0.85590 0.73670 -0.31700
O 	O 	0.50000 0.38035 0.43630 -0.60400
C 	C 	0.50000 0.37140 0.31620 -0.10800
H 	H 	0.50000 0.40160 0.30810 0.08300
C 	C 	0.50000 0.33960 0.28330 0.11500
C 	C 	0.50000 0.27090 0.24830 -0.01100
H 	H 	0.50000 0.28810 0.22130 0.02200
N 	N 	0.50000 0.35590 0.23670 -0.31000
O 	O 	0.00000 0.11965 0.56370 -0.62600
C 	C 	0.00000 0.12860 0.68380 -0.11700
H 	H 	0.00000 0.09840 0.69190 0.07200
C 	C 	-0.00000 0.16040 0.71670 0.11800
C 	C 	0.00000 0.22910 0.75170 -0.01300
H 	H 	-0.00000 0.21190 0.77870 0.01600
N 	N 	-0.00000 0.14410 0.76330 -0.37800
O 	O 	0.00000 0.61965 0.06370 -0.63100
C 	C 	0.00000 0.62860 0.18380 -0.11800
H 	H 	-0.00000 0.59840 0.19190 0.07500
C 	C 	0.00000 0.66040 0.21670 0.11900
C 	C 	0.00000 0.72910 0.25170 -0.01300
H 	H 	-0.00000 0.71190 0.27870 0.01600
N 	N 	0.00000 0.64410 0.26330 -0.37900
O 	O 	0.50000 0.11965 0.06370 -0.60900
C 	C 	0.50000 0.12860 0.18380 -0.10400
H 	H 	0.50000 0.09840 0.19190 0.07900
C 	C 	0.50000 0.16040 0.21670 0.11100
C 	C 	0.50000 0.22910 0.25170 -0.01200
H 	H 	0.50000 0.21190 0.27870 0.02100
N 	N 	0.50000 0.14410 0.26330 -0.30800
O 	O 	0.50000 0.61965 0.56370 -0.60400
C 	C 	0.50000 0.62860 0.68380 -0.11000
H 	H 	0.50000 0.59840 0.69190 0.08600
C 	C 	0.50000 0.66040 0.71670 0.12000
C 	C 	0.50000 0.72910 0.75170 -0.01100
H 	H 	0.50000 0.71190 0.77870 0.02000
N 	N 	0.50000 0.64410 0.76330 -0.31300
O 	O 	0.43630 0.00000 0.11965 -0.62600
C 	C 	0.31620 0.00000 0.12860 -0.11600
H 	H 	0.30810 -0.00000 0.09840 0.07000
C 	C 	0.28330 0.00000 0.16040 0.11400
C 	C 	0.24830 0.00000 0.22910 -0.01300
H 	H 	0.22130 0.00000 0.21190 0.01600
N 	N 	0.23670 0.00000 0.14410 -0.37600
O 	O 	0.43630 0.50000 0.61965 -0.60400
C 	C 	0.31620 0.50000 0.62860 -0.10900
H 	H 	0.30810 0.50000 0.59840 0.08400
C 	C 	0.28330 0.50000 0.66040 0.11600
C 	C 	0.24830 0.50000 0.72910 -0.01100
H 	H 	0.22130 0.50000 0.71190 0.02100
N 	N 	0.23670 0.50000 0.64410 -0.31000
O 	O 	0.93630 0.00000 0.61965 -0.59400
C 	C 	0.81620 0.00000 0.62860 -0.12500
H 	H 	0.80810 0.00000 0.59840 0.07900
C 	C 	0.78330 0.00000 0.66040 0.12500
C 	C 	0.74830 0.00000 0.72910 -0.01200
H 	H 	0.72130 0.00000 0.71190 0.01700
N 	N 	0.73670 0.00000 0.64410 -0.38000
O 	O 	0.93630 0.50000 0.11965 -0.57200
C 	C 	0.81620 0.50000 0.12860 -0.11100
H 	H 	0.80810 0.50000 0.09840 0.08200
C 	C 	0.78330 0.50000 0.16040 0.11800
C 	C 	0.74830 0.50000 0.22910 -0.01000
H 	H 	0.72130 0.50000 0.21190 0.02200
N 	N 	0.73670 0.50000 0.14410 -0.30900
O 	O 	0.56370 0.00000 0.88035 -0.62200
C 	C 	0.68380 0.00000 0.87140 -0.12700
H 	H 	0.69190 0.00000 0.90160 0.09200
C 	C 	0.71670 0.00000 0.83960 0.13300
C 	C 	0.75170 0.00000 0.77090 -0.01200
H 	H 	0.77870 0.00000 0.78810 0.01800
N 	N 	0.76330 0.00000 0.85590 -0.38500
O 	O 	0.56370 0.50000 0.38035 -0.60400
C 	C 	0.68380 0.50000 0.37140 -0.11000
H 	H 	0.69190 0.50000 0.40160 0.08500
C 	C 	0.71670 0.50000 0.33960 0.11900
C 	C 	0.75170 0.50000 0.27090 -0.01100
H 	H 	0.77870 0.50000 0.28810 0.02200
N 	N 	0.76330 0.50000 0.35590 -0.31300
O 	O 	0.06370 -0.00000 0.38035 -0.63100
C 	C 	0.18380 0.00000 0.37140 -0.11700
H 	H 	0.19190 0.00000 0.40160 0.07500
C 	C 	0.21670 0.00000 0.33960 0.11800
C 	C 	0.25170 0.00000 0.27090 -0.01400
H 	H 	0.27870 0.00000 0.28810 0.01700
N 	N 	0.26330 0.00000 0.35590 -0.38000
O 	O 	0.06370 0.50000 0.88035 -0.60600
C 	C 	0.18380 0.50000 0.87140 -0.11400
H 	H 	0.19190 0.50000 0.90160 0.09900
C 	C 	0.21670 0.50000 0.83960 0.12700
C 	C 	0.25170 0.50000 0.77090 -0.01000
H 	H 	0.27870 0.50000 0.78810 0.02300
N 	N 	0.26330 0.50000 0.85590 -0.31600
O 	O 	0.43630 0.00000 0.88035 -0.62200
C 	C 	0.31620 0.00000 0.87140 -0.12600
H 	H 	0.30810 0.00000 0.90160 0.09100
C 	C 	0.28330 0.00000 0.83960 0.12900
C 	C 	0.24830 0.00000 0.77090 -0.01200
H 	H 	0.22130 0.00000 0.78810 0.01800
N 	N 	0.23670 0.00000 0.85590 -0.38200
O 	O 	0.43630 0.50000 0.38035 -0.60400
C 	C 	0.31620 0.50000 0.37140 -0.10800
H 	H 	0.30810 0.50000 0.40160 0.08300
C 	C 	0.28330 0.50000 0.33960 0.11500
C 	C 	0.24830 0.50000 0.27090 -0.01100
H 	H 	0.22130 0.50000 0.28810 0.02200
N 	N 	0.23670 0.50000 0.35590 -0.31000
O 	O 	0.93630 -0.00000 0.38035 -0.59400
C 	C 	0.81620 0.00000 0.37140 -0.12400
H 	H 	0.80810 0.00000 0.40160 0.07800
C 	C 	0.78330 0.00000 0.33960 0.12400
C 	C 	0.74830 0.00000 0.27090 -0.01200
H 	H 	0.72130 0.00000 0.28810 0.01800
N 	N 	0.73670 0.00000 0.35590 -0.38000
O 	O 	0.93630 0.50000 0.88035 -0.57000
C 	C 	0.81620 0.50000 0.87140 -0.12100
H 	H 	0.80810 0.50000 0.90160 0.10200
C 	C 	0.78330 0.50000 0.83960 0.13300
C 	C 	0.74830 0.50000 0.77090 -0.00800
H 	H 	0.72130 0.50000 0.78810 0.02400
N 	N 	0.73670 0.50000 0.85590 -0.31700
O 	O 	0.56370 0.00000 0.11965 -0.62600
C 	C 	0.68380 0.00000 0.12860 -0.11700
H 	H 	0.69190 -0.00000 0.09840 0.07200
C 	C 	0.71670 0.00000 0.16040 0.11800
C 	C 	0.75170 0.00000 0.22910 -0.01300
H 	H 	0.77870 0.00000 0.21190 0.01600
N 	N 	0.76330 0.00000 0.14410 -0.37800
O 	O 	0.56370 0.50000 0.61965 -0.60400
C 	C 	0.68380 0.50000 0.62860 -0.11000
H 	H 	0.69190 0.50000 0.59840 0.08600
C 	C 	0.71670 0.50000 0.66040 0.12000
C 	C 	0.75170 0.50000 0.72910 -0.01100
H 	H 	0.77870 0.50000 0.71190 0.02000
N 	N 	0.76330 0.50000 0.64410 -0.31300
O 	O 	0.06370 0.00000 0.61965 -0.63100
C 	C 	0.18380 0.00000 0.62860 -0.11800
H 	H 	0.19190 0.00000 0.59840 0.07500
C 	C 	0.21670 0.00000 0.66040 0.11900
C 	C 	0.25170 0.00000 0.72910 -0.01300
H 	H 	0.27870 0.00000 0.71190 0.01600
N 	N 	0.26330 0.00000 0.64410 -0.37900
O 	O 	0.06370 0.50000 0.11965 -0.60900
C 	C 	0.18380 0.50000 0.12860 -0.10400
H 	H 	0.19190 0.50000 0.09840 0.07900
C 	C 	0.21670 0.50000 0.16040 0.11100
C 	C 	0.25170 0.50000 0.22910 -0.01200
H 	H 	0.27870 0.50000 0.21190 0.02100
N 	N 	0.26330 0.50000 0.14410 -0.30800
O 	O 	0.43630 0.11965 -0.00000 -0.62600
C 	C 	0.31620 0.12860 -0.00000 -0.11600
H 	H 	0.30810 0.09840 -0.00000 0.07000
C 	C 	0.28330 0.16040 -0.00000 0.11400
C 	C 	0.24830 0.22910 -0.00000 -0.01300
H 	H 	0.22130 0.21190 -0.00000 0.01600
N 	N 	0.23670 0.14410 -0.00000 -0.37600
O 	O 	0.43630 0.61965 0.50000 -0.60400
C 	C 	0.31620 0.62860 0.50000 -0.10900
H 	H 	0.30810 0.59840 0.50000 0.08400
C 	C 	0.28330 0.66040 0.50000 0.11600
C 	C 	0.24830 0.72910 0.50000 -0.01100
H 	H 	0.22130 0.71190 0.50000 0.02100
N 	N 	0.23670 0.64410 0.50000 -0.31000
O 	O 	0.93630 0.11965 0.50000 -0.57200
C 	C 	0.81620 0.12860 0.50000 -0.11100
H 	H 	0.80810 0.09840 0.50000 0.08200
C 	C 	0.78330 0.16040 0.50000 0.11800
C 	C 	0.74830 0.22910 0.50000 -0.01000
H 	H 	0.72130 0.21190 0.50000 0.02200
N 	N 	0.73670 0.14410 0.50000 -0.30900
O 	O 	0.93630 0.61965 -0.00000 -0.59400
C 	C 	0.81620 0.62860 -0.00000 -0.12500
H 	H 	0.80810 0.59840 -0.00000 0.07900
C 	C 	0.78330 0.66040 -0.00000 0.12500
C 	C 	0.74830 0.72910 -0.00000 -0.01200
H 	H 	0.72130 0.71190 -0.00000 0.01700
N 	N 	0.73670 0.64410 -0.00000 -0.38000
O 	O 	0.56370 0.88035 -0.00000 -0.62200
C 	C 	0.68380 0.87140 -0.00000 -0.12700
H 	H 	0.69190 0.90160 -0.00000 0.09200
C 	C 	0.71670 0.83960 -0.00000 0.13300
C 	C 	0.75170 0.77090 -0.00000 -0.01200
H 	H 	0.77870 0.78810 -0.00000 0.01800
N 	N 	0.76330 0.85590 -0.00000 -0.38500
O 	O 	0.56370 0.38035 0.50000 -0.60400
C 	C 	0.68380 0.37140 0.50000 -0.11000
H 	H 	0.69190 0.40160 0.50000 0.08500
C 	C 	0.71670 0.33960 0.50000 0.11900
C 	C 	0.75170 0.27090 0.50000 -0.01100
H 	H 	0.77870 0.28810 0.50000 0.02200
N 	N 	0.76330 0.35590 0.50000 -0.31300
O 	O 	0.06370 0.88035 0.50000 -0.60600
C 	C 	0.18380 0.87140 0.50000 -0.11400
H 	H 	0.19190 0.90160 0.50000 0.09900
C 	C 	0.21670 0.83960 0.50000 0.12700
C 	C 	0.25170 0.77090 0.50000 -0.01000
H 	H 	0.27870 0.78810 0.50000 0.02300
N 	N 	0.26330 0.85590 0.50000 -0.31600
O 	O 	0.06370 0.38035 -0.00000 -0.63100
C 	C 	0.18380 0.37140 -0.00000 -0.11700
H 	H 	0.19190 0.40160 -0.00000 0.07500
C 	C 	0.21670 0.33960 -0.00000 0.11800
C 	C 	0.25170 0.27090 -0.00000 -0.01400
H 	H 	0.27870 0.28810 -0.00000 0.01700
N 	N 	0.26330 0.35590 -0.00000 -0.38000
O 	O 	0.43630 0.88035 -0.00000 -0.62200
C 	C 	0.31620 0.87140 -0.00000 -0.12600
H 	H 	0.30810 0.90160 -0.00000 0.09100
C 	C 	0.28330 0.83960 -0.00000 0.12900
C 	C 	0.24830 0.77090 -0.00000 -0.01200
H 	H 	0.22130 0.78810 -0.00000 0.01800
N 	N 	0.23670 0.85590 -0.00000 -0.38200
O 	O 	0.43630 0.38035 0.50000 -0.60400
C 	C 	0.31620 0.37140 0.50000 -0.10800
H 	H 	0.30810 0.40160 0.50000 0.08300
C 	C 	0.28330 0.33960 0.50000 0.11500
C 	C 	0.24830 0.27090 0.50000 -0.01100
H 	H 	0.22130 0.28810 0.50000 0.02200
N 	N 	0.23670 0.35590 0.50000 -0.31000
O 	O 	0.93630 0.88035 0.50000 -0.57000
C 	C 	0.81620 0.87140 0.50000 -0.12100
H 	H 	0.80810 0.90160 0.50000 0.10200
C 	C 	0.78330 0.83960 0.50000 0.13300
C 	C 	0.74830 0.77090 0.50000 -0.00800
H 	H 	0.72130 0.78810 0.50000 0.02400
N 	N 	0.73670 0.85590 0.50000 -0.31700
O 	O 	0.93630 0.38035 -0.00000 -0.59400
C 	C 	0.81620 0.37140 -0.00000 -0.12400
H 	H 	0.80810 0.40160 -0.00000 0.07800
C 	C 	0.78330 0.33960 -0.00000 0.12400
C 	C 	0.74830 0.27090 -0.00000 -0.01200
H 	H 	0.72130 0.28810 -0.00000 0.01800
N 	N 	0.73670 0.35590 -0.00000 -0.38000
O 	O 	0.56370 0.11965 -0.00000 -0.62600
C 	C 	0.68380 0.12860 -0.00000 -0.11700
H 	H 	0.69190 0.09840 -0.00000 0.07200
C 	C 	0.71670 0.16040 -0.00000 0.11800
C 	C 	0.75170 0.22910 -0.00000 -0.01300
H 	H 	0.77870 0.21190 -0.00000 0.01600
N 	N 	0.76330 0.14410 -0.00000 -0.37800
O 	O 	0.56370 0.61965 0.50000 -0.60400
C 	C 	0.68380 0.62860 0.50000 -0.11000
H 	H 	0.69190 0.59840 0.50000 0.08600
C 	C 	0.71670 0.66040 0.50000 0.12000
C 	C 	0.75170 0.72910 0.50000 -0.01100
H 	H 	0.77870 0.71190 0.50000 0.02000
N 	N 	0.76330 0.64410 0.50000 -0.31300
O 	O 	0.06370 0.11965 0.50000 -0.60900
C 	C 	0.18380 0.12860 0.50000 -0.10400
H 	H 	0.19190 0.09840 0.50000 0.07900
C 	C 	0.21670 0.16040 0.50000 0.11100
C 	C 	0.25170 0.22910 0.50000 -0.01200
H 	H 	0.27870 0.21190 0.50000 0.02100
N 	N 	0.26330 0.14410 0.50000 -0.30800
O 	O 	0.06370 0.61965 -0.00000 -0.63100
C 	C 	0.18380 0.62860 -0.00000 -0.11800
H 	H 	0.19190 0.59840 -0.00000 0.07500
C 	C 	0.21670 0.66040 -0.00000 0.11900
C 	C 	0.25170 0.72910 -0.00000 -0.01300
H 	H 	0.27870 0.71190 -0.00000 0.01600
N 	N 	0.26330 0.64410 -0.00000 -0.37900
O 	O 	0.11965 0.00000 0.56370 -0.62600
C 	C 	0.12860 0.00000 0.68380 -0.11700
H 	H 	0.09840 -0.00000 0.69190 0.07200
C 	C 	0.16040 0.00000 0.71670 0.11800
C 	C 	0.22910 0.00000 0.75170 -0.01300
H 	H 	0.21190 0.00000 0.77870 0.01600
N 	N 	0.14410 0.00000 0.76330 -0.37800
O 	O 	0.11965 0.50000 0.06370 -0.60900
C 	C 	0.12860 0.50000 0.18380 -0.10400
H 	H 	0.09840 0.50000 0.19190 0.07900
C 	C 	0.16040 0.50000 0.21670 0.11100
C 	C 	0.22910 0.50000 0.25170 -0.01200
H 	H 	0.21190 0.50000 0.27870 0.02100
N 	N 	0.14410 0.50000 0.26330 -0.30800
O 	O 	0.61965 0.00000 0.06370 -0.63100
C 	C 	0.62860 0.00000 0.18380 -0.11800
H 	H 	0.59840 0.00000 0.19190 0.07500
C 	C 	0.66040 0.00000 0.21670 0.11900
C 	C 	0.72910 0.00000 0.25170 -0.01300
H 	H 	0.71190 0.00000 0.27870 0.01600
N 	N 	0.64410 0.00000 0.26330 -0.37900
O 	O 	0.61965 0.50000 0.56370 -0.60400
C 	C 	0.62860 0.50000 0.68380 -0.11000
H 	H 	0.59840 0.50000 0.69190 0.08600
C 	C 	0.66040 0.50000 0.71670 0.12000
C 	C 	0.72910 0.50000 0.75170 -0.01100
H 	H 	0.71190 0.50000 0.77870 0.02000
N 	N 	0.64410 0.50000 0.76330 -0.31300
O 	O 	0.88035 0.00000 0.43630 -0.62200
C 	C 	0.87140 0.00000 0.31620 -0.12600
H 	H 	0.90160 0.00000 0.30810 0.09100
C 	C 	0.83960 0.00000 0.28330 0.12900
C 	C 	0.77090 0.00000 0.24830 -0.01200
H 	H 	0.78810 0.00000 0.22130 0.01800
N 	N 	0.85590 0.00000 0.23670 -0.38200
O 	O 	0.88035 0.50000 0.93630 -0.57000
C 	C 	0.87140 0.50000 0.81620 -0.12100
H 	H 	0.90160 0.50000 0.80810 0.10200
C 	C 	0.83960 0.50000 0.78330 0.13300
C 	C 	0.77090 0.50000 0.74830 -0.00800
H 	H 	0.78810 0.50000 0.72130 0.02400
N 	N 	0.85590 0.50000 0.73670 -0.31700
O 	O 	0.38035 0.00000 0.93630 -0.59400
C 	C 	0.37140 0.00000 0.81620 -0.12400
H 	H 	0.40160 0.00000 0.80810 0.07800
C 	C 	0.33960 0.00000 0.78330 0.12400
C 	C 	0.27090 0.00000 0.74830 -0.01200
H 	H 	0.28810 0.00000 0.72130 0.01800
N 	N 	0.35590 0.00000 0.73670 -0.38000
O 	O 	0.38035 0.50000 0.43630 -0.60400
C 	C 	0.37140 0.50000 0.31620 -0.10800
H 	H 	0.40160 0.50000 0.30810 0.08300
C 	C 	0.33960 0.50000 0.28330 0.11500
C 	C 	0.27090 0.50000 0.24830 -0.01100
H 	H 	0.28810 0.50000 0.22130 0.02200
N 	N 	0.35590 0.50000 0.23670 -0.31000
O 	O 	0.88035 0.00000 0.56370 -0.62200
C 	C 	0.87140 0.00000 0.68380 -0.12700
H 	H 	0.90160 -0.00000 0.69190 0.09200
C 	C 	0.83960 0.00000 0.71670 0.13300
C 	C 	0.77090 0.00000 0.75170 -0.01200
H 	H 	0.78810 0.00000 0.77870 0.01800
N 	N 	0.85590 0.00000 0.76330 -0.38500
O 	O 	0.88035 0.50000 0.06370 -0.60600
C 	C 	0.87140 0.50000 0.18380 -0.11400
H 	H 	0.90160 0.50000 0.19190 0.09900
C 	C 	0.83960 0.50000 0.21670 0.12700
C 	C 	0.77090 0.50000 0.25170 -0.01000
H 	H 	0.78810 0.50000 0.27870 0.02300
N 	N 	0.85590 0.50000 0.26330 -0.31600
O 	O 	0.38035 0.00000 0.06370 -0.63100
C 	C 	0.37140 0.00000 0.18380 -0.11700
H 	H 	0.40160 0.00000 0.19190 0.07500
C 	C 	0.33960 0.00000 0.21670 0.11800
C 	C 	0.27090 0.00000 0.25170 -0.01400
H 	H 	0.28810 0.00000 0.27870 0.01700
N 	N 	0.35590 0.00000 0.26330 -0.38000
O 	O 	0.38035 0.50000 0.56370 -0.60400
C 	C 	0.37140 0.50000 0.68380 -0.11000
H 	H 	0.40160 0.50000 0.69190 0.08500
C 	C 	0.33960 0.50000 0.71670 0.11900
C 	C 	0.27090 0.50000 0.75170 -0.01100
H 	H 	0.28810 0.50000 0.77870 0.02200
N 	N 	0.35590 0.50000 0.76330 -0.31300
O 	O 	0.11965 0.00000 0.43630 -0.62600
C 	C 	0.12860 0.00000 0.31620 -0.11600
H 	H 	0.09840 0.00000 0.30810 0.07000
C 	C 	0.16040 0.00000 0.28330 0.11400
C 	C 	0.22910 0.00000 0.24830 -0.01300
H 	H 	0.21190 0.00000 0.22130 0.01600
N 	N 	0.14410 0.00000 0.23670 -0.37600
O 	O 	0.11965 0.50000 0.93630 -0.57200
C 	C 	0.12860 0.50000 0.81620 -0.11100
H 	H 	0.09840 0.50000 0.80810 0.08200
C 	C 	0.16040 0.50000 0.78330 0.11800
C 	C 	0.22910 0.50000 0.74830 -0.01000
H 	H 	0.21190 0.50000 0.72130 0.02200
N 	N 	0.14410 0.50000 0.73670 -0.30900
O 	O 	0.61965 0.00000 0.93630 -0.59400
C 	C 	0.62860 0.00000 0.81620 -0.12500
H 	H 	0.59840 0.00000 0.80810 0.07900
C 	C 	0.66040 0.00000 0.78330 0.12500
C 	C 	0.72910 0.00000 0.74830 -0.01200
H 	H 	0.71190 0.00000 0.72130 0.01700
N 	N 	0.64410 0.00000 0.73670 -0.38000
O 	O 	0.61965 0.50000 0.43630 -0.60400
C 	C 	0.62860 0.50000 0.31620 -0.10900
H 	H 	0.59840 0.50000 0.30810 0.08400
C 	C 	0.66040 0.50000 0.28330 0.11600
C 	C 	0.72910 0.50000 0.24830 -0.01100
H 	H 	0.71190 0.50000 0.22130 0.02100
N 	N 	0.64410 0.50000 0.23670 -0.31000
O 	O 	0.00000 0.43630 0.88035 -0.62200
C 	C 	0.00000 0.31620 0.87140 -0.12600
H 	H 	0.00000 0.30810 0.90160 0.09100
C 	C 	0.00000 0.28330 0.83960 0.12900
C 	C 	-0.00000 0.24830 0.77090 -0.01200
H 	H 	0.00000 0.22130 0.78810 0.01800
N 	N 	0.00000 0.23670 0.85590 -0.38200
O 	O 	0.00000 0.93630 0.38035 -0.59400
C 	C 	0.00000 0.81620 0.37140 -0.12400
H 	H 	0.00000 0.80810 0.40160 0.07800
C 	C 	0.00000 0.78330 0.33960 0.12400
C 	C 	0.00000 0.74830 0.27090 -0.01200
H 	H 	0.00000 0.72130 0.28810 0.01800
N 	N 	0.00000 0.73670 0.35590 -0.38000
O 	O 	0.50000 0.43630 0.38035 -0.60400
C 	C 	0.50000 0.31620 0.37140 -0.10800
H 	H 	0.50000 0.30810 0.40160 0.08300
C 	C 	0.50000 0.28330 0.33960 0.11500
C 	C 	0.50000 0.24830 0.27090 -0.01100
H 	H 	0.50000 0.22130 0.28810 0.02200
N 	N 	0.50000 0.23670 0.35590 -0.31000
O 	O 	0.50000 0.93630 0.88035 -0.57000
C 	C 	0.50000 0.81620 0.87140 -0.12100
H 	H 	0.50000 0.80810 0.90160 0.10200
C 	C 	0.50000 0.78330 0.83960 0.13300
C 	C 	0.50000 0.74830 0.77090 -0.00800
H 	H 	0.50000 0.72130 0.78810 0.02400
N 	N 	0.50000 0.73670 0.85590 -0.31700
O 	O 	0.00000 0.56370 0.11965 -0.62600
C 	C 	0.00000 0.68380 0.12860 -0.11700
H 	H 	-0.00000 0.69190 0.09840 0.07200
C 	C 	-0.00000 0.71670 0.16040 0.11800
C 	C 	0.00000 0.75170 0.22910 -0.01300
H 	H 	-0.00000 0.77870 0.21190 0.01600
N 	N 	-0.00000 0.76330 0.14410 -0.37800
O 	O 	0.00000 0.06370 0.61965 -0.63100
C 	C 	0.00000 0.18380 0.62860 -0.11800
H 	H 	-0.00000 0.19190 0.59840 0.07500
C 	C 	0.00000 0.21670 0.66040 0.11900
C 	C 	0.00000 0.25170 0.72910 -0.01300
H 	H 	-0.00000 0.27870 0.71190 0.01600
N 	N 	0.00000 0.26330 0.64410 -0.37900
O 	O 	0.50000 0.56370 0.61965 -0.60400
C 	C 	0.50000 0.68380 0.62860 -0.11000
H 	H 	0.50000 0.69190 0.59840 0.08600
C 	C 	0.50000 0.71670 0.66040 0.12000
C 	C 	0.50000 0.75170 0.72910 -0.01100
H 	H 	0.50000 0.77870 0.71190 0.02000
N 	N 	0.50000 0.76330 0.64410 -0.31300
O 	O 	0.50000 0.06370 0.11965 -0.60900
C 	C 	0.50000 0.18380 0.12860 -0.10400
H 	H 	0.50000 0.19190 0.09840 0.07900
C 	C 	0.50000 0.21670 0.16040 0.11100
C 	C 	0.50000 0.25170 0.22910 -0.01200
H 	H 	0.50000 0.27870 0.21190 0.02100
N 	N 	0.50000 0.26330 0.14410 -0.30800
O 	O 	-0.00000 0.43630 0.11965 -0.62600
C 	C 	0.00000 0.31620 0.12860 -0.11600
H 	H 	-0.00000 0.30810 0.09840 0.07000
C 	C 	0.00000 0.28330 0.16040 0.11400
C 	C 	0.00000 0.24830 0.22910 -0.01300
H 	H 	0.00000 0.22130 0.21190 0.01600
N 	N 	0.00000 0.23670 0.14410 -0.37600
O 	O 	0.00000 0.93630 0.61965 -0.59400
C 	C 	0.00000 0.81620 0.62860 -0.12500
H 	H 	-0.00000 0.80810 0.59840 0.07900
C 	C 	0.00000 0.78330 0.66040 0.12500
C 	C 	0.00000 0.74830 0.72910 -0.01200
H 	H 	0.00000 0.72130 0.71190 0.01700
N 	N 	0.00000 0.73670 0.64410 -0.38000
O 	O 	0.50000 0.43630 0.61965 -0.60400
C 	C 	0.50000 0.31620 0.62860 -0.10900
H 	H 	0.50000 0.30810 0.59840 0.08400
C 	C 	0.50000 0.28330 0.66040 0.11600
C 	C 	0.50000 0.24830 0.72910 -0.01100
H 	H 	0.50000 0.22130 0.71190 0.02100
N 	N 	0.50000 0.23670 0.64410 -0.31000
O 	O 	0.50000 0.93630 0.11965 -0.57200
C 	C 	0.50000 0.81620 0.12860 -0.11100
H 	H 	0.50000 0.80810 0.09840 0.08200
C 	C 	0.50000 0.78330 0.16040 0.11800
C 	C 	0.50000 0.74830 0.22910 -0.01000
H 	H 	0.50000 0.72130 0.21190 0.02200
N 	N 	0.50000 0.73670 0.14410 -0.30900
O 	O 	0.00000 0.56370 0.88035 -0.62200
C 	C 	0.00000 0.68380 0.87140 -0.12700
H 	H 	-0.00000 0.69190 0.90160 0.09200
C 	C 	0.00000 0.71670 0.83960 0.13300
C 	C 	0.00000 0.75170 0.77090 -0.01200
H 	H 	0.00000 0.77870 0.78810 0.01800
N 	N 	0.00000 0.76330 0.85590 -0.38500
O 	O 	-0.00000 0.06370 0.38035 -0.63100
C 	C 	0.00000 0.18380 0.37140 -0.11700
H 	H 	0.00000 0.19190 0.40160 0.07500
C 	C 	0.00000 0.21670 0.33960 0.11800
C 	C 	0.00000 0.25170 0.27090 -0.01400
H 	H 	-0.00000 0.27870 0.28810 0.01700
N 	N 	0.00000 0.26330 0.35590 -0.38000
O 	O 	0.50000 0.56370 0.38035 -0.60400
C 	C 	0.50000 0.68380 0.37140 -0.11000
H 	H 	0.50000 0.69190 0.40160 0.08500
C 	C 	0.50000 0.71670 0.33960 0.11900
C 	C 	0.50000 0.75170 0.27090 -0.01100
H 	H 	0.50000 0.77870 0.28810 0.02200
N 	N 	0.50000 0.76330 0.35590 -0.31300
O 	O 	0.50000 0.06370 0.88035 -0.60600
C 	C 	0.50000 0.18380 0.87140 -0.11400
H 	H 	0.50000 0.19190 0.90160 0.09900
C 	C 	0.50000 0.21670 0.83960 0.12700
C 	C 	0.50000 0.25170 0.77090 -0.01000
H 	H 	0.50000 0.27870 0.78810 0.02300
N 	N 	0.50000 0.26330 0.85590 -0.31600
O 	O 	0.04082 0.45918 0.04082 -1.27700
O 	O 	0.95918 0.54082 0.04082 -1.23000
O 	O 	0.45918 0.04082 0.04082 -1.27700
O 	O 	0.95918 0.45918 0.95918 -1.18500
O 	O 	0.45918 0.45918 0.45918 -1.25000
O 	O 	0.04082 0.54082 0.95918 -1.23000
O 	O 	0.04082 0.04082 0.45918 -1.27700
O 	O 	0.04082 0.95918 0.54082 -1.23000
O 	O 	0.95918 0.95918 0.45918 -1.18500
O 	O 	0.95918 0.04082 0.54082 -1.23000
O 	O 	0.45918 0.54082 0.54082 -1.25000
O 	O 	0.54082 0.04082 0.95918 -1.23000
O 	O 	0.54082 0.54082 0.45918 -1.25000
O 	O 	0.45918 0.95918 0.95918 -1.18500
O 	O 	0.54082 0.95918 0.04082 -1.23000
O 	O 	0.54082 0.45918 0.54082 -1.25000
O 	O 	0.45918 0.04082 0.95918 -1.23000
O 	O 	0.45918 0.54082 0.45918 -1.25000
O 	O 	0.54082 0.95918 0.95918 -1.18500
O 	O 	0.54082 0.45918 0.45918 -1.25000
O 	O 	0.04082 0.95918 0.45918 -1.23000
O 	O 	0.04082 0.45918 0.95918 -1.23000
O 	O 	0.45918 0.95918 0.04082 -1.23000
O 	O 	0.45918 0.45918 0.54082 -1.25000
O 	O 	0.54082 0.04082 0.04082 -1.27700
O 	O 	0.54082 0.54082 0.54082 -1.25000
O 	O 	0.04082 0.04082 0.54082 -1.27700
O 	O 	0.95918 0.04082 0.45918 -1.23000
O 	O 	0.95918 0.95918 0.54082 -1.18500
O 	O 	0.95918 0.45918 0.04082 -1.23000
O 	O 	0.04082 0.54082 0.04082 -1.27700
O 	O 	0.95918 0.54082 0.95918 -1.18500
C 	C 	0.10515 0.39485 -0.00000 0.39800
C 	C 	0.13970 0.36030 -0.00000 -0.03100
C 	C 	0.20490 0.29510 -0.00000 -0.09600
C 	C 	0.10515 0.89485 0.50000 0.39900
C 	C 	0.13970 0.86030 0.50000 -0.01200
C 	C 	0.20490 0.79510 0.50000 -0.08500
C 	C 	0.89485 0.60515 -0.00000 0.39200
C 	C 	0.86030 0.63970 -0.00000 -0.01300
C 	C 	0.79510 0.70490 -0.00000 -0.10000
C 	C 	0.89485 0.10515 0.50000 0.39900
C 	C 	0.86030 0.13970 0.50000 -0.01200
C 	C 	0.79510 0.20490 0.50000 -0.08500
C 	C 	0.39485 0.10515 -0.00000 0.39800
C 	C 	0.36030 0.13970 -0.00000 -0.03100
C 	C 	0.29510 0.20490 -0.00000 -0.09600
C 	C 	0.89485 0.39485 -0.00000 0.39200
C 	C 	0.86030 0.36030 -0.00000 -0.01500
C 	C 	0.79510 0.29510 -0.00000 -0.10100
C 	C 	0.89485 0.89485 0.50000 0.39300
C 	C 	0.86030 0.86030 0.50000 0.00300
C 	C 	0.79510 0.79510 0.50000 -0.09000
C 	C 	0.39485 0.39485 0.50000 0.40000
C 	C 	0.36030 0.36030 0.50000 -0.02400
C 	C 	0.29510 0.29510 0.50000 -0.08300
C 	C 	0.10515 0.60515 -0.00000 0.39800
C 	C 	0.13970 0.63970 -0.00000 -0.02900
C 	C 	0.20490 0.70490 -0.00000 -0.09600
C 	C 	0.10515 0.10515 0.50000 0.40500
C 	C 	0.13970 0.13970 0.50000 -0.02900
C 	C 	0.20490 0.20490 0.50000 -0.08100
C 	C 	0.00000 0.10515 0.39485 0.39800
C 	C 	0.00000 0.13970 0.36030 -0.03100
C 	C 	0.00000 0.20490 0.29510 -0.09600
C 	C 	0.50000 0.10515 0.89485 0.39900
C 	C 	0.50000 0.13970 0.86030 -0.01200
C 	C 	0.50000 0.20490 0.79510 -0.08500
C 	C 	0.00000 0.89485 0.60515 0.39200
C 	C 	0.00000 0.86030 0.63970 -0.01300
C 	C 	0.00000 0.79510 0.70490 -0.10000
C 	C 	0.00000 0.39485 0.10515 0.39800
C 	C 	0.00000 0.36030 0.13970 -0.03100
C 	C 	0.00000 0.29510 0.20490 -0.09600
C 	C 	0.50000 0.89485 0.10515 0.39900
C 	C 	0.50000 0.86030 0.13970 -0.01200
C 	C 	0.50000 0.79510 0.20490 -0.08500
C 	C 	0.00000 0.89485 0.39485 0.39200
C 	C 	0.00000 0.86030 0.36030 -0.01500
C 	C 	0.00000 0.79510 0.29510 -0.10100
C 	C 	0.50000 0.89485 0.89485 0.39300
C 	C 	0.50000 0.86030 0.86030 0.00300
C 	C 	0.50000 0.79510 0.79510 -0.09000
C 	C 	0.50000 0.39485 0.39485 0.40000
C 	C 	0.50000 0.36030 0.36030 -0.02400
C 	C 	0.50000 0.29510 0.29510 -0.08300
C 	C 	0.00000 0.10515 0.60515 0.39800
C 	C 	0.00000 0.13970 0.63970 -0.02900
C 	C 	0.00000 0.20490 0.70490 -0.09600
C 	C 	0.50000 0.10515 0.10515 0.40500
C 	C 	0.50000 0.13970 0.13970 -0.02900
C 	C 	0.50000 0.20490 0.20490 -0.08100
C 	C 	0.39485 0.00000 0.10515 0.39800
C 	C 	0.36030 0.00000 0.13970 -0.03100
C 	C 	0.29510 0.00000 0.20490 -0.09600
C 	C 	0.39485 0.50000 0.60515 0.40000
C 	C 	0.36030 0.50000 0.63970 -0.02200
C 	C 	0.29510 0.50000 0.70490 -0.08300
C 	C 	0.60515 0.00000 0.89485 0.39200
C 	C 	0.63970 0.00000 0.86030 -0.01300
C 	C 	0.70490 0.00000 0.79510 -0.10000
C 	C 	0.60515 0.50000 0.39485 0.40000
C 	C 	0.63970 0.50000 0.36030 -0.02200
C 	C 	0.70490 0.50000 0.29510 -0.08300
C 	C 	0.10515 0.00000 0.39485 0.39800
C 	C 	0.13970 0.00000 0.36030 -0.03100
C 	C 	0.20490 0.00000 0.29510 -0.09600
C 	C 	0.39485 0.00000 0.89485 0.39200
C 	C 	0.36030 0.00000 0.86030 -0.01500
C 	C 	0.29510 0.00000 0.79510 -0.10100
C 	C 	0.39485 0.50000 0.39485 0.40000
C 	C 	0.36030 0.50000 0.36030 -0.02400
C 	C 	0.29510 0.50000 0.29510 -0.08300
C 	C 	0.60515 0.00000 0.10515 0.39800
C 	C 	0.63970 0.00000 0.13970 -0.02900
C 	C 	0.70490 0.00000 0.20490 -0.09600
C 	C 	0.60515 0.50000 0.60515 0.40000
C 	C 	0.63970 0.50000 0.63970 -0.02100
C 	C 	0.70490 0.50000 0.70490 -0.08300
C 	C 	0.10515 0.50000 0.10515 0.40500
C 	C 	0.13970 0.50000 0.13970 -0.02900
C 	C 	0.20490 0.50000 0.20490 -0.08100
C 	C 	0.39485 0.60515 0.50000 0.40000
C 	C 	0.36030 0.63970 0.50000 -0.02200
C 	C 	0.29510 0.70490 0.50000 -0.08300
C 	C 	0.60515 0.89485 -0.00000 0.39200
C 	C 	0.63970 0.86030 -0.00000 -0.01300
C 	C 	0.70490 0.79510 -0.00000 -0.10000
C 	C 	0.60515 0.39485 0.50000 0.40000
C 	C 	0.63970 0.36030 0.50000 -0.02200
C 	C 	0.70490 0.29510 0.50000 -0.08300
C 	C 	0.39485 0.89485 -0.00000 0.39200
C 	C 	0.36030 0.86030 -0.00000 -0.01500
C 	C 	0.29510 0.79510 -0.00000 -0.10100
C 	C 	0.60515 0.10515 -0.00000 0.39800
C 	C 	0.63970 0.13970 -0.00000 -0.02900
C 	C 	0.70490 0.20490 -0.00000 -0.09600
C 	C 	0.60515 0.60515 0.50000 0.40000
C 	C 	0.63970 0.63970 0.50000 -0.02100
C 	C 	0.70490 0.70490 0.50000 -0.08300
C 	C 	0.10515 0.00000 0.60515 0.39800
C 	C 	0.13970 0.00000 0.63970 -0.02900
C 	C 	0.20490 0.00000 0.70490 -0.09600
C 	C 	0.89485 0.00000 0.39485 0.39200
C 	C 	0.86030 0.00000 0.36030 -0.01500
C 	C 	0.79510 0.00000 0.29510 -0.10100
C 	C 	0.89485 0.50000 0.89485 0.39300
C 	C 	0.86030 0.50000 0.86030 0.00300
C 	C 	0.79510 0.50000 0.79510 -0.09000
C 	C 	0.89485 0.00000 0.60515 0.39200
C 	C 	0.86030 0.00000 0.63970 -0.01300
C 	C 	0.79510 0.00000 0.70490 -0.10000
C 	C 	0.89485 0.50000 0.10515 0.39900
C 	C 	0.86030 0.50000 0.13970 -0.01200
C 	C 	0.79510 0.50000 0.20490 -0.08500
C 	C 	0.10515 0.50000 0.89485 0.39900
C 	C 	0.13970 0.50000 0.86030 -0.01200
C 	C 	0.20490 0.50000 0.79510 -0.08500
C 	C 	0.00000 0.39485 0.89485 0.39200
C 	C 	0.00000 0.36030 0.86030 -0.01500
C 	C 	-0.00000 0.29510 0.79510 -0.10100
C 	C 	0.00000 0.60515 0.10515 0.39800
C 	C 	0.00000 0.63970 0.13970 -0.02900
C 	C 	0.00000 0.70490 0.20490 -0.09600
C 	C 	0.50000 0.60515 0.60515 0.40000
C 	C 	0.50000 0.63970 0.63970 -0.02100
C 	C 	0.50000 0.70490 0.70490 -0.08300
C 	C 	0.50000 0.39485 0.60515 0.40000
C 	C 	0.50000 0.36030 0.63970 -0.02200
C 	C 	0.50000 0.29510 0.70490 -0.08300
C 	C 	0.00000 0.60515 0.89485 0.39200
C 	C 	0.00000 0.63970 0.86030 -0.01300
C 	C 	0.00000 0.70490 0.79510 -0.10000
C 	C 	0.50000 0.60515 0.39485 0.40000
C 	C 	0.50000 0.63970 0.36030 -0.02200
C 	C 	0.50000 0.70490 0.29510 -0.08300
