data_crystal

_cell_length_a 15.40000
_cell_length_b 17.15000
_cell_length_c 35.34300
_cell_angle_alpha 90.00000
_cell_angle_beta  93.27900
_cell_angle_gamma 90.00000

_symmetry_space_group_name_	'P 1'
_symmetry_space_group_name_H-M	'P 1'

loop_
_symmetry_equiv_pos_as_xyz
  x,y,z

loop_
_atom_site_label
_atom_site_type_symbol
_atom_site_fract_x
_atom_site_fract_y
_atom_site_fract_z
_atom_site_charge
C 	C 	0.44050 0.75200 0.78120 0.28900
C 	C 	0.53830 0.84220 0.75060 0.03600
H 	H 	0.52990 0.86910 0.72650 0.04500
H 	H 	0.52060 0.87730 0.77020 0.04200
C 	C 	0.67310 0.82630 0.79180 0.29500
C 	C 	0.82540 0.83840 0.81660 0.02400
H 	H 	0.86380 0.87560 0.80540 0.05200
H 	H 	0.79740 0.86460 0.83700 0.05000
C 	C 	0.87820 0.75660 0.86960 0.25900
C 	C 	0.97180 0.67790 0.91500 0.05400
H 	H 	0.03480 0.67790 0.91790 0.01500
H 	H 	0.95060 0.71490 0.93300 0.03400
C 	C 	0.87420 0.59410 0.94690 0.26400
C 	C 	0.78600 0.48970 0.97120 0.05800
H 	H 	0.76790 0.52930 0.98880 0.03500
H 	H 	0.80070 0.44330 0.98590 0.01000
C 	C 	0.64570 0.52160 0.93730 0.26100
C 	C 	0.49550 0.51670 0.91010 0.03700
H 	H 	0.45510 0.48160 0.92150 0.03000
H 	H 	0.49360 0.56620 0.92330 0.03800
C 	C 	0.43990 0.59880 0.85690 0.30400
C 	C 	0.34750 0.65190 0.80370 0.05600
H 	H 	0.29360 0.63020 0.79280 0.01400
H 	H 	0.33260 0.69110 0.82210 0.01900
C 	C 	0.46010 0.72350 0.71740 0.20600
C 	C 	0.41520 0.77150 0.68620 -0.68300
H 	H 	0.45420 0.81090 0.67810 0.24400
H 	H 	0.36450 0.79580 0.69550 0.22400
H 	H 	0.39820 0.73820 0.66520 0.22300
C 	C 	0.68570 0.80980 0.72740 0.06100
H 	H 	0.68060 0.84980 0.70760 0.06000
C 	C 	0.77860 0.80800 0.74770 0.05900
H 	H 	0.81500 0.85130 0.73980 0.05700
C 	C 	0.94940 0.73990 0.81270 0.05400
H 	H 	0.99010 0.77950 0.80440 0.02500
C 	C 	0.99060 0.68650 0.84410 0.06300
H 	H 	0.05320 0.69600 0.84800 0.01400
C 	C 	0.98250 0.52940 0.91580 0.19200
C 	C 	0.07850 0.53040 0.93000 -0.63800
H 	H 	0.11050 0.56410 0.91420 0.22200
H 	H 	0.10170 0.47850 0.92910 0.21200
H 	H 	0.08320 0.54920 0.95570 0.20900
C 	C 	0.92440 0.46740 0.93600 0.18500
C 	C 	0.97060 0.41230 0.96470 -0.64600
H 	H 	0.00310 0.44220 0.98350 0.21100
H 	H 	0.00940 0.37890 0.95180 0.21600
H 	H 	0.92820 0.38110 0.97660 0.22100
C 	C 	0.69180 0.39280 0.93300 0.05900
H 	H 	0.69310 0.35680 0.95460 0.03500
C 	C 	0.59780 0.40100 0.91400 0.06100
H 	H 	0.55500 0.37200 0.92790 0.03500
C 	C 	0.43240 0.46490 0.84660 0.05700
H 	H 	0.38880 0.43430 0.85930 0.01400
C 	C 	0.39160 0.50880 0.81180 0.06100
H 	H 	0.33140 0.49240 0.80580 0.01000
C 	C 	0.40090 0.65930 0.73570 0.19100
C 	C 	0.31290 0.64570 0.71580 -0.65200
H 	H 	0.28050 0.60930 0.73010 0.22500
H 	H 	0.32040 0.62490 0.69100 0.21600
H 	H 	0.28180 0.69420 0.71360 0.21400
C 	C 	0.52970 0.60210 0.71580 0.27000
C 	C 	0.60620 0.71020 0.68610 0.04800
H 	H 	0.62620 0.67170 0.66840 0.04500
H 	H 	0.58710 0.75570 0.67160 0.03300
C 	C 	0.75550 0.69320 0.71400 0.27300
C 	C 	0.90290 0.71160 0.74440 0.03500
H 	H 	0.91640 0.67000 0.72710 0.04800
H 	H 	0.93960 0.75580 0.73910 0.04500
C 	C 	0.93920 0.61050 0.79240 0.26300
C 	C 	0.01620 0.53970 0.84540 0.05900
H 	H 	0.02030 0.50110 0.82550 0.03400
H 	H 	0.07490 0.55380 0.85410 0.01000
C 	C 	0.91950 0.44190 0.87010 0.26900
C 	C 	0.83430 0.35190 0.90630 0.05600
H 	H 	0.85020 0.31590 0.88660 0.03400
H 	H 	0.84910 0.32750 0.93050 0.01600
C 	C 	0.69090 0.34650 0.87040 0.27400
C 	C 	0.53540 0.34970 0.85060 0.04400
H 	H 	0.49120 0.32390 0.86450 0.02400
H 	H 	0.55530 0.31290 0.83210 0.04200
C 	C 	0.50350 0.42780 0.79300 0.26500
C 	C 	0.42910 0.51000 0.74340 0.04400
H 	H 	0.36700 0.50590 0.73730 0.01700
H 	H 	0.45800 0.47370 0.72720 0.04300
C 	C 	0.70580 0.91240 0.91820 0.32200
C 	C 	0.76880 0.84480 0.97380 0.04500
H 	H 	0.74070 0.80070 0.96100 0.05700
H 	H 	0.83000 0.83240 0.97790 0.02800
C 	C 	0.66430 0.81090 0.02060 0.26900
C 	C 	0.59660 0.77590 0.07980 0.04600
H 	H 	0.62890 0.75630 0.10220 0.01800
H 	H 	0.57780 0.73130 0.06460 0.04400
C 	C 	0.43920 0.80220 0.07600 0.26800
C 	C 	0.28870 0.83750 0.08960 0.04200
H 	H 	0.26150 0.83320 0.11360 0.04300
H 	H 	0.27380 0.79100 0.07500 0.04500
C 	C 	0.91410 0.94910 0.94750 -0.75100
H 	H 	0.92950 0.91860 0.96960 0.25500
H 	H 	0.95290 0.99280 0.94640 0.24900
H 	H 	0.91870 0.91750 0.92530 0.26400
C 	C 	0.82180 0.97810 0.94930 0.26500
C 	C 	0.77700 0.89350 0.04250 0.05900
H 	H 	0.83630 0.87340 0.04680 0.01000
C 	C 	0.71970 0.87210 0.07570 0.06400
H 	H 	0.75330 0.84530 0.09620 0.00600
C 	C 	0.51960 0.86610 0.12490 0.06200
H 	H 	0.54590 0.83980 0.14730 0.01400
C 	C 	0.42180 0.88060 0.12860 0.06000
H 	H 	0.40250 0.86070 0.15270 0.03500
C 	C 	0.21400 0.97300 0.08600 0.03300
C 	C 	0.14580 0.95190 0.11600 -0.01400
C 	C 	0.76540 0.09740 0.96930 0.26600
C 	C 	0.83620 0.02110 0.02010 0.05800
H 	H 	0.89190 0.99460 0.02180 0.00400
H 	H 	0.84430 0.07180 0.03200 0.03500
C 	C 	0.72690 0.00680 0.06820 0.26500
C 	C 	0.64670 0.96070 0.12280 0.05200
H 	H 	0.67470 0.92820 0.14230 0.01300
H 	H 	0.65480 0.01460 0.13040 0.03400
C 	C 	0.49350 0.00050 0.12450 0.31600
C 	C 	0.33650 0.00510 0.13660 0.02600
H 	H 	0.30480 0.97240 0.15350 0.06300
H 	H 	0.35310 0.05230 0.15030 0.04300
N 	N 	0.48260 0.77380 0.74998 -0.18300
N 	N 	0.63000 0.82470 0.75728 -0.15800
N 	N 	0.75900 0.81380 0.78796 -0.15100
N 	N 	0.87630 0.77420 0.83214 -0.14700
N 	N 	0.94630 0.70470 0.87714 -0.15100
N 	N 	0.94100 0.60170 0.92421 -0.17700
N 	N 	0.86230 0.51650 0.95441 -0.17800
N 	N 	0.71270 0.47160 0.94497 -0.15000
N 	N 	0.58270 0.48470 0.91530 -0.14900
N 	N 	0.46780 0.52840 0.87088 -0.16100
N 	N 	0.39660 0.59020 0.82340 -0.17500
N 	N 	0.39200 0.68920 0.77429 -0.19100
N 	N 	0.53270 0.67830 0.70520 -0.17700
N 	N 	0.67700 0.73170 0.71186 -0.14100
N 	N 	0.81230 0.73400 0.73731 -0.14100
N 	N 	0.92290 0.68590 0.78276 -0.14700
N 	N 	0.97310 0.60840 0.82936 -0.14900
N 	N 	0.97370 0.50550 0.87597 -0.17300
N 	N 	0.88540 0.42230 0.90340 -0.17100
N 	N 	0.74260 0.36370 0.90283 -0.15000
N 	N 	0.60750 0.36890 0.87669 -0.14900
N 	N 	0.49610 0.41570 0.83063 -0.15300
N 	N 	0.44690 0.48790 0.78236 -0.15000
N 	N 	0.45780 0.59000 0.73502 -0.17300
N 	N 	0.75980 0.91280 0.94928 -0.18600
N 	N 	0.73150 0.85570 0.01010 -0.15000
N 	N 	0.65390 0.82270 0.05840 -0.15000
N 	N 	0.52040 0.81680 0.09150 -0.15100
N 	N 	0.38060 0.83960 0.09680 -0.14800
N 	N 	0.25240 0.90490 0.06930 -0.14400
N 	N 	0.80970 0.03240 0.98040 -0.18400
N 	N 	0.77590 0.97710 0.04110 -0.15300
N 	N 	0.69000 0.94830 0.08754 -0.15300
N 	N 	0.55520 0.94370 0.12048 -0.16000
N 	N 	0.41540 0.96400 0.12670 -0.15800
N 	N 	0.27940 0.02580 0.10445 -0.15700
O 	O 	0.44550 0.79000 0.81162 -0.39500
O 	O 	0.63900 0.83760 0.82255 -0.37900
O 	O 	0.82910 0.78240 0.89264 -0.24700
O 	O 	0.83150 0.64770 0.95912 -0.23200
O 	O 	0.64230 0.59060 0.94760 -0.23400
O 	O 	0.45320 0.66030 0.87423 -0.41800
O 	O 	0.58390 0.55330 0.70883 -0.22300
O 	O 	0.77170 0.63170 0.69731 -0.22000
O 	O 	0.92620 0.55350 0.77186 -0.22300
O 	O 	0.90720 0.40800 0.84006 -0.24500
O 	O 	0.71510 0.31360 0.84265 -0.23700
O 	O 	0.54980 0.39260 0.77188 -0.23800
O 	O 	0.49260 0.92990 0.87296 -0.38800
O 	O 	0.64880 0.86200 0.91061 -0.38600
O 	O 	0.61920 0.76720 0.00022 -0.23200
O 	O 	0.42150 0.75990 0.04822 -0.22300
O 	O 	0.74580 0.15170 0.98980 -0.22100
O 	O 	0.71900 0.07720 0.07530 -0.23500
La	La	0.53685 0.78651 0.87140 1.57500
C 	C 	0.55950 0.24800 0.21880 0.28800
C 	C 	0.46170 0.15780 0.24940 0.03500
H 	H 	0.47010 0.13090 0.27350 0.04400
H 	H 	0.47940 0.12270 0.22980 0.04100
C 	C 	0.32690 0.17370 0.20820 0.29500
C 	C 	0.17460 0.16160 0.18340 0.02400
H 	H 	0.13620 0.12440 0.19460 0.05200
H 	H 	0.20260 0.13540 0.16300 0.05000
C 	C 	0.12180 0.24340 0.13040 0.25900
C 	C 	0.02820 0.32210 0.08500 0.05400
H 	H 	0.96520 0.32210 0.08210 0.01500
H 	H 	0.04940 0.28510 0.06700 0.03400
C 	C 	0.12580 0.40590 0.05310 0.26400
C 	C 	0.21400 0.51030 0.02880 0.05800
H 	H 	0.23210 0.47070 0.01120 0.03500
H 	H 	0.19930 0.55670 0.01410 0.01000
C 	C 	0.35430 0.47840 0.06270 0.26100
C 	C 	0.50450 0.48330 0.08990 0.03700
H 	H 	0.54490 0.51840 0.07850 0.03000
H 	H 	0.50640 0.43380 0.07670 0.03800
C 	C 	0.56010 0.40120 0.14310 0.30400
C 	C 	0.65250 0.34810 0.19630 0.05600
H 	H 	0.70640 0.36980 0.20720 0.01400
H 	H 	0.66740 0.30890 0.17790 0.01900
C 	C 	0.53990 0.27650 0.28260 0.20600
C 	C 	0.58480 0.22850 0.31380 -0.68300
H 	H 	0.54580 0.18910 0.32190 0.24400
H 	H 	0.63550 0.20420 0.30450 0.22400
H 	H 	0.60180 0.26180 0.33480 0.22300
C 	C 	0.31430 0.19020 0.27260 0.06100
H 	H 	0.31940 0.15020 0.29240 0.06000
C 	C 	0.22140 0.19200 0.25230 0.05900
H 	H 	0.18500 0.14870 0.26020 0.05700
C 	C 	0.05060 0.26010 0.18730 0.05400
H 	H 	0.00990 0.22050 0.19560 0.02500
C 	C 	0.00940 0.31350 0.15590 0.06300
H 	H 	0.94680 0.30400 0.15200 0.01400
C 	C 	0.01750 0.47060 0.08420 0.19200
C 	C 	0.92150 0.46960 0.07000 -0.63800
H 	H 	0.88950 0.43590 0.08580 0.22200
H 	H 	0.89830 0.52150 0.07090 0.21200
H 	H 	0.91680 0.45080 0.04430 0.20900
C 	C 	0.07560 0.53260 0.06400 0.18500
C 	C 	0.02940 0.58770 0.03530 -0.64600
H 	H 	0.99690 0.55780 0.01650 0.21100
H 	H 	0.99060 0.62110 0.04820 0.21600
H 	H 	0.07180 0.61890 0.02340 0.22100
C 	C 	0.30820 0.60720 0.06700 0.05900
H 	H 	0.30690 0.64320 0.04540 0.03500
C 	C 	0.40220 0.59900 0.08600 0.06100
H 	H 	0.44500 0.62800 0.07210 0.03500
C 	C 	0.56760 0.53510 0.15340 0.05700
H 	H 	0.61120 0.56570 0.14070 0.01400
C 	C 	0.60840 0.49120 0.18820 0.06100
H 	H 	0.66860 0.50760 0.19420 0.01000
C 	C 	0.59910 0.34070 0.26430 0.19100
C 	C 	0.68710 0.35430 0.28420 -0.65200
H 	H 	0.71950 0.39070 0.26990 0.22500
H 	H 	0.67960 0.37510 0.30900 0.21600
H 	H 	0.71820 0.30580 0.28640 0.21400
C 	C 	0.47030 0.39790 0.28420 0.27000
C 	C 	0.39380 0.28980 0.31390 0.04800
H 	H 	0.37380 0.32830 0.33160 0.04500
H 	H 	0.41290 0.24430 0.32840 0.03300
C 	C 	0.24450 0.30680 0.28600 0.27300
C 	C 	0.09710 0.28840 0.25560 0.03500
H 	H 	0.08360 0.33000 0.27290 0.04800
H 	H 	0.06040 0.24420 0.26090 0.04500
C 	C 	0.06080 0.38950 0.20760 0.26300
C 	C 	0.98380 0.46030 0.15460 0.05900
H 	H 	0.97970 0.49890 0.17450 0.03400
H 	H 	0.92510 0.44620 0.14590 0.01000
C 	C 	0.08050 0.55810 0.12990 0.26900
C 	C 	0.16570 0.64810 0.09370 0.05600
H 	H 	0.14980 0.68410 0.11340 0.03400
H 	H 	0.15090 0.67250 0.06950 0.01600
C 	C 	0.30910 0.65350 0.12960 0.27400
C 	C 	0.46460 0.65030 0.14940 0.04400
H 	H 	0.50880 0.67610 0.13550 0.02400
H 	H 	0.44470 0.68710 0.16790 0.04200
C 	C 	0.49650 0.57220 0.20700 0.26500
C 	C 	0.57090 0.49000 0.25660 0.04400
H 	H 	0.63300 0.49410 0.26270 0.01700
H 	H 	0.54200 0.52630 0.27280 0.04300
C 	C 	0.29420 0.08760 0.08180 0.32200
C 	C 	0.23120 0.15520 0.02620 0.04500
H 	H 	0.25930 0.19930 0.03900 0.05700
H 	H 	0.17000 0.16760 0.02210 0.02800
C 	C 	0.33570 0.18910 0.97940 0.26900
C 	C 	0.40340 0.22410 0.92020 0.04600
H 	H 	0.37110 0.24370 0.89780 0.01800
H 	H 	0.42220 0.26870 0.93540 0.04400
C 	C 	0.56080 0.19780 0.92400 0.26800
C 	C 	0.71130 0.16250 0.91040 0.04200
H 	H 	0.73850 0.16680 0.88640 0.04300
H 	H 	0.72620 0.20900 0.92500 0.04500
C 	C 	0.08590 0.05090 0.05250 -0.75100
H 	H 	0.07050 0.08140 0.03040 0.25500
H 	H 	0.04710 0.00720 0.05360 0.24900
H 	H 	0.08130 0.08250 0.07470 0.26400
C 	C 	0.17820 0.02190 0.05070 0.26500
C 	C 	0.22300 0.10650 0.95750 0.05900
H 	H 	0.16370 0.12660 0.95320 0.01000
C 	C 	0.28030 0.12790 0.92430 0.06400
H 	H 	0.24670 0.15470 0.90380 0.00600
C 	C 	0.48040 0.13390 0.87510 0.06200
H 	H 	0.45410 0.16020 0.85270 0.01400
C 	C 	0.57820 0.11940 0.87140 0.06000
H 	H 	0.59750 0.13930 0.84730 0.03500
C 	C 	0.78600 0.02700 0.91400 0.03300
C 	C 	0.85420 0.04810 0.88400 -0.01400
C 	C 	0.23460 0.90260 0.03070 0.26600
C 	C 	0.16380 0.97890 0.97990 0.05800
H 	H 	0.10810 0.00540 0.97820 0.00400
H 	H 	0.15570 0.92820 0.96800 0.03500
C 	C 	0.27310 0.99320 0.93180 0.26500
C 	C 	0.35330 0.03930 0.87720 0.05200
H 	H 	0.32530 0.07180 0.85770 0.01300
H 	H 	0.34520 0.98540 0.86960 0.03400
C 	C 	0.50650 0.99950 0.87550 0.31600
C 	C 	0.66350 0.99490 0.86340 0.02600
H 	H 	0.69520 0.02760 0.84650 0.06300
H 	H 	0.64690 0.94770 0.84970 0.04300
N 	N 	0.51740 0.22620 0.25002 -0.18300
N 	N 	0.37000 0.17530 0.24272 -0.15800
N 	N 	0.24100 0.18620 0.21204 -0.15100
N 	N 	0.12370 0.22580 0.16786 -0.14700
N 	N 	0.05370 0.29530 0.12286 -0.15100
N 	N 	0.05900 0.39830 0.07579 -0.17700
N 	N 	0.13770 0.48350 0.04559 -0.17800
N 	N 	0.28730 0.52840 0.05503 -0.15000
N 	N 	0.41730 0.51530 0.08470 -0.14900
N 	N 	0.53220 0.47160 0.12912 -0.16100
N 	N 	0.60340 0.40980 0.17660 -0.17500
N 	N 	0.60800 0.31080 0.22571 -0.19100
N 	N 	0.46730 0.32170 0.29480 -0.17700
N 	N 	0.32300 0.26830 0.28814 -0.14100
N 	N 	0.18770 0.26600 0.26269 -0.14100
N 	N 	0.07710 0.31410 0.21724 -0.14700
N 	N 	0.02690 0.39160 0.17064 -0.14900
N 	N 	0.02630 0.49450 0.12403 -0.17300
N 	N 	0.11460 0.57770 0.09660 -0.17100
N 	N 	0.25740 0.63630 0.09717 -0.15000
N 	N 	0.39250 0.63110 0.12331 -0.14900
N 	N 	0.50390 0.58430 0.16937 -0.15300
N 	N 	0.55310 0.51210 0.21764 -0.15000
N 	N 	0.54220 0.41000 0.26498 -0.17300
N 	N 	0.24020 0.08720 0.05072 -0.18600
N 	N 	0.26850 0.14430 0.98990 -0.15000
N 	N 	0.34610 0.17730 0.94160 -0.15000
N 	N 	0.47960 0.18320 0.90850 -0.15100
N 	N 	0.61940 0.16040 0.90320 -0.14800
N 	N 	0.74760 0.09510 0.93070 -0.14400
N 	N 	0.19030 0.96760 0.01960 -0.18400
N 	N 	0.22410 0.02290 0.95890 -0.15300
N 	N 	0.31000 0.05170 0.91246 -0.15300
N 	N 	0.44480 0.05630 0.87952 -0.16000
N 	N 	0.58460 0.03600 0.87330 -0.15800
N 	N 	0.72060 0.97420 0.89555 -0.15700
O 	O 	0.55450 0.21000 0.18838 -0.39500
O 	O 	0.36100 0.16240 0.17745 -0.37900
O 	O 	0.17090 0.21760 0.10736 -0.24700
O 	O 	0.16850 0.35230 0.04088 -0.23200
O 	O 	0.35770 0.40940 0.05240 -0.23400
O 	O 	0.54680 0.33970 0.12577 -0.41800
O 	O 	0.41610 0.44670 0.29117 -0.22300
O 	O 	0.22830 0.36830 0.30269 -0.22000
O 	O 	0.07380 0.44650 0.22814 -0.22300
O 	O 	0.09280 0.59200 0.15994 -0.24500
O 	O 	0.28490 0.68640 0.15735 -0.23700
O 	O 	0.45020 0.60740 0.22812 -0.23800
O 	O 	0.50740 0.07010 0.12704 -0.38800
O 	O 	0.35120 0.13800 0.08939 -0.38600
O 	O 	0.38080 0.23280 0.99978 -0.23200
O 	O 	0.57850 0.24010 0.95178 -0.22300
O 	O 	0.25420 0.84830 0.01020 -0.22100
O 	O 	0.28100 0.92280 0.92470 -0.23500
La	La	0.46315 0.21349 0.12860 1.57500
C 	C 	0.05950 0.25200 0.71880 0.28800
C 	C 	0.96170 0.34220 0.74940 0.03400
H 	H 	0.97010 0.36910 0.77350 0.04400
H 	H 	0.97940 0.37730 0.72980 0.04100
C 	C 	0.82690 0.32630 0.70820 0.29500
C 	C 	0.67460 0.33840 0.68340 0.02400
H 	H 	0.63620 0.37560 0.69460 0.05200
H 	H 	0.70260 0.36460 0.66300 0.05000
C 	C 	0.62180 0.25660 0.63040 0.25900
C 	C 	0.52820 0.17790 0.58500 0.05400
H 	H 	0.46520 0.17790 0.58210 0.01500
H 	H 	0.54940 0.21490 0.56700 0.03400
C 	C 	0.62580 0.09410 0.55310 0.26400
C 	C 	0.71400 0.98970 0.52880 0.05900
H 	H 	0.73210 0.02930 0.51120 0.03400
H 	H 	0.69930 0.94330 0.51410 0.01000
C 	C 	0.85430 0.02160 0.56270 0.26000
C 	C 	0.00450 0.01670 0.58990 0.04000
H 	H 	0.04490 0.98160 0.57850 0.02800
H 	H 	0.00640 0.06620 0.57670 0.03800
C 	C 	0.06010 0.09880 0.64310 0.30400
C 	C 	0.15250 0.15190 0.69630 0.05700
H 	H 	0.20640 0.13020 0.70720 0.01400
H 	H 	0.16740 0.19110 0.67790 0.01900
C 	C 	0.03990 0.22350 0.78260 0.20800
C 	C 	0.08480 0.27150 0.81380 -0.68500
H 	H 	0.04580 0.31090 0.82190 0.24500
H 	H 	0.13550 0.29580 0.80450 0.22500
H 	H 	0.10180 0.23820 0.83480 0.22400
C 	C 	0.81430 0.30980 0.77260 0.06100
H 	H 	0.81940 0.34980 0.79240 0.06000
C 	C 	0.72140 0.30800 0.75230 0.05900
H 	H 	0.68500 0.35130 0.76020 0.05700
C 	C 	0.55060 0.23990 0.68730 0.05400
H 	H 	0.50990 0.27950 0.69560 0.02500
C 	C 	0.50940 0.18650 0.65590 0.06300
H 	H 	0.44680 0.19600 0.65200 0.01300
C 	C 	0.51750 0.02940 0.58420 0.19200
C 	C 	0.42150 0.03040 0.57000 -0.63800
H 	H 	0.38950 0.06410 0.58580 0.22100
H 	H 	0.39830 0.97850 0.57090 0.21100
H 	H 	0.41680 0.04920 0.54430 0.20800
C 	C 	0.57560 0.96740 0.56400 0.18400
C 	C 	0.52940 0.91230 0.53530 -0.64400
H 	H 	0.49690 0.94220 0.51650 0.21000
H 	H 	0.49060 0.87890 0.54820 0.21500
H 	H 	0.57180 0.88110 0.52340 0.22000
C 	C 	0.80820 0.89280 0.56700 0.05900
H 	H 	0.80690 0.85680 0.54540 0.03500
C 	C 	0.90220 0.90100 0.58600 0.06100
H 	H 	0.94500 0.87200 0.57210 0.03500
C 	C 	0.06760 0.96490 0.65340 0.05400
H 	H 	0.11120 0.93430 0.64070 0.01400
C 	C 	0.10840 0.00880 0.68820 0.06500
H 	H 	0.16860 0.99240 0.69420 0.00800
C 	C 	0.09910 0.15930 0.76430 0.19100
C 	C 	0.18710 0.14570 0.78420 -0.65200
H 	H 	0.21950 0.10930 0.76990 0.22500
H 	H 	0.17960 0.12490 0.80900 0.21700
H 	H 	0.21820 0.19420 0.78640 0.21400
C 	C 	0.97030 0.10210 0.78420 0.26900
C 	C 	0.89380 0.21020 0.81390 0.04800
H 	H 	0.87380 0.17170 0.83160 0.04500
H 	H 	0.91290 0.25570 0.82840 0.03300
C 	C 	0.74450 0.19320 0.78600 0.27300
C 	C 	0.59710 0.21160 0.75560 0.03500
H 	H 	0.58360 0.17000 0.77290 0.04800
H 	H 	0.56040 0.25580 0.76090 0.04500
C 	C 	0.56080 0.11050 0.70760 0.26300
C 	C 	0.48380 0.03970 0.65460 0.05800
H 	H 	0.47970 0.00110 0.67450 0.03400
H 	H 	0.42510 0.05380 0.64590 0.01100
C 	C 	0.58050 0.94190 0.62990 0.26900
C 	C 	0.66570 0.85190 0.59370 0.05600
H 	H 	0.64980 0.81590 0.61340 0.03400
H 	H 	0.65090 0.82750 0.56950 0.01600
C 	C 	0.80910 0.84650 0.62960 0.27400
C 	C 	0.96460 0.84970 0.64940 0.04400
H 	H 	0.00880 0.82390 0.63550 0.02400
H 	H 	0.94470 0.81290 0.66790 0.04200
C 	C 	0.99650 0.92780 0.70700 0.26500
C 	C 	0.07090 0.01000 0.75660 0.04800
H 	H 	0.13300 0.00590 0.76270 0.01600
H 	H 	0.04200 0.97370 0.77280 0.04100
C 	C 	0.79420 0.41240 0.58180 0.32200
C 	C 	0.73120 0.34480 0.52620 0.04500
H 	H 	0.75930 0.30070 0.53900 0.05700
H 	H 	0.67000 0.33240 0.52210 0.02800
C 	C 	0.83570 0.31090 0.47940 0.26900
C 	C 	0.90340 0.27590 0.42020 0.04700
H 	H 	0.87110 0.25630 0.39780 0.01800
H 	H 	0.92220 0.23130 0.43540 0.04400
C 	C 	0.06080 0.30220 0.42400 0.26800
C 	C 	0.21130 0.33750 0.41040 0.04200
H 	H 	0.23850 0.33320 0.38640 0.04300
H 	H 	0.22620 0.29100 0.42500 0.04500
C 	C 	0.58590 0.44910 0.55250 -0.75100
H 	H 	0.57050 0.41860 0.53040 0.25500
H 	H 	0.54710 0.49280 0.55360 0.24900
H 	H 	0.58130 0.41750 0.57470 0.26400
C 	C 	0.67820 0.47810 0.55070 0.26600
C 	C 	0.72300 0.39350 0.45750 0.05900
H 	H 	0.66370 0.37340 0.45320 0.00900
C 	C 	0.78030 0.37210 0.42430 0.06400
H 	H 	0.74670 0.34530 0.40380 0.00600
C 	C 	0.98040 0.36610 0.37510 0.06200
H 	H 	0.95410 0.33980 0.35270 0.01400
C 	C 	0.07820 0.38060 0.37140 0.06000
H 	H 	0.09750 0.36070 0.34730 0.03500
C 	C 	0.28600 0.47300 0.41400 0.03300
C 	C 	0.35420 0.45190 0.38400 -0.01300
C 	C 	0.73460 0.59740 0.53070 0.26600
C 	C 	0.66380 0.52110 0.47990 0.06300
H 	H 	0.60810 0.49460 0.47820 0.00200
H 	H 	0.65570 0.57180 0.46800 0.03400
C 	C 	0.77310 0.50680 0.43180 0.26700
C 	C 	0.85330 0.46070 0.37720 0.05000
H 	H 	0.82530 0.42820 0.35770 0.01400
H 	H 	0.84520 0.51460 0.36960 0.03500
C 	C 	0.00650 0.50050 0.37550 0.31600
C 	C 	0.16350 0.50510 0.36340 0.02600
H 	H 	0.19520 0.47240 0.34650 0.06200
H 	H 	0.14690 0.55230 0.34970 0.04200
N 	N 	0.01740 0.27380 0.75002 -0.18200
N 	N 	0.87000 0.32470 0.74272 -0.15800
N 	N 	0.74100 0.31380 0.71204 -0.15100
N 	N 	0.62370 0.27420 0.66786 -0.14700
N 	N 	0.55370 0.20470 0.62286 -0.15100
N 	N 	0.55900 0.10170 0.57579 -0.17700
N 	N 	0.63770 0.01650 0.54559 -0.17800
N 	N 	0.78730 0.97160 0.55503 -0.15000
N 	N 	0.91730 0.98470 0.58470 -0.14900
N 	N 	0.03220 0.02840 0.62912 -0.16100
N 	N 	0.10340 0.09020 0.67660 -0.17600
N 	N 	0.10800 0.18920 0.72571 -0.19100
N 	N 	0.96730 0.17830 0.79480 -0.17800
N 	N 	0.82300 0.23170 0.78814 -0.14100
N 	N 	0.68770 0.23400 0.76269 -0.14100
N 	N 	0.57710 0.18590 0.71724 -0.14700
N 	N 	0.52690 0.10840 0.67064 -0.14900
N 	N 	0.52630 0.00550 0.62403 -0.17200
N 	N 	0.61460 0.92230 0.59660 -0.17000
N 	N 	0.75740 0.86370 0.59717 -0.15000
N 	N 	0.89250 0.86890 0.62331 -0.14900
N 	N 	0.00390 0.91570 0.66937 -0.15300
N 	N 	0.05310 0.98790 0.71764 -0.15200
N 	N 	0.04220 0.09000 0.76498 -0.17200
N 	N 	0.74020 0.41280 0.55072 -0.18600
N 	N 	0.76850 0.35570 0.48990 -0.15000
N 	N 	0.84610 0.32270 0.44160 -0.15000
N 	N 	0.97960 0.31680 0.40850 -0.15100
N 	N 	0.11940 0.33960 0.40320 -0.14800
N 	N 	0.24760 0.40490 0.43070 -0.14400
N 	N 	0.69030 0.53240 0.51960 -0.18400
N 	N 	0.72410 0.47710 0.45890 -0.15500
N 	N 	0.81000 0.44830 0.41246 -0.15300
N 	N 	0.94480 0.44370 0.37952 -0.15900
N 	N 	0.08460 0.46400 0.37330 -0.15800
N 	N 	0.22060 0.52580 0.39555 -0.15700
O 	O 	0.05450 0.29000 0.68838 -0.39400
O 	O 	0.86100 0.33760 0.67745 -0.37900
O 	O 	0.67090 0.28240 0.60736 -0.24700
O 	O 	0.66850 0.14770 0.54088 -0.23200
O 	O 	0.85770 0.09060 0.55240 -0.23400
O 	O 	0.04680 0.16030 0.62577 -0.41700
O 	O 	0.91610 0.05330 0.79117 -0.22300
O 	O 	0.72830 0.13170 0.80269 -0.22000
O 	O 	0.57380 0.05350 0.72814 -0.22300
O 	O 	0.59280 0.90800 0.65994 -0.24500
O 	O 	0.78490 0.81360 0.65735 -0.23700
O 	O 	0.95020 0.89260 0.72812 -0.23800
O 	O 	0.00740 0.42990 0.62704 -0.38700
O 	O 	0.85120 0.36200 0.58939 -0.38600
O 	O 	0.88080 0.26720 0.49978 -0.23200
O 	O 	0.07850 0.25990 0.45178 -0.22300
O 	O 	0.75420 0.65170 0.51020 -0.22100
O 	O 	0.78100 0.57720 0.42470 -0.23500
La	La	0.96315 0.28651 0.62860 1.57400
C 	C 	0.94050 0.74800 0.28120 0.28800
C 	C 	0.03830 0.65780 0.25060 0.03400
H 	H 	0.02990 0.63090 0.22650 0.04400
H 	H 	0.02060 0.62270 0.27020 0.04100
C 	C 	0.17310 0.67370 0.29180 0.29500
C 	C 	0.32540 0.66160 0.31660 0.02400
H 	H 	0.36380 0.62440 0.30540 0.05200
H 	H 	0.29740 0.63540 0.33700 0.05000
C 	C 	0.37820 0.74340 0.36960 0.25900
C 	C 	0.47180 0.82210 0.41500 0.05400
H 	H 	0.53480 0.82210 0.41790 0.01500
H 	H 	0.45060 0.78510 0.43300 0.03400
C 	C 	0.37420 0.90590 0.44690 0.26400
C 	C 	0.28600 0.01030 0.47120 0.05900
H 	H 	0.26790 0.97070 0.48880 0.03400
H 	H 	0.30070 0.05670 0.48590 0.01000
C 	C 	0.14570 0.97840 0.43730 0.26000
C 	C 	0.99550 0.98330 0.41010 0.04000
H 	H 	0.95510 0.01840 0.42150 0.02800
H 	H 	0.99360 0.93380 0.42330 0.03800
C 	C 	0.93990 0.90120 0.35690 0.30400
C 	C 	0.84750 0.84810 0.30370 0.05700
H 	H 	0.79360 0.86980 0.29280 0.01400
H 	H 	0.83260 0.80890 0.32210 0.01900
C 	C 	0.96010 0.77650 0.21740 0.20800
C 	C 	0.91520 0.72850 0.18620 -0.68500
H 	H 	0.95420 0.68910 0.17810 0.24500
H 	H 	0.86450 0.70420 0.19550 0.22500
H 	H 	0.89820 0.76180 0.16520 0.22400
C 	C 	0.18570 0.69020 0.22740 0.06100
H 	H 	0.18060 0.65020 0.20760 0.06000
C 	C 	0.27860 0.69200 0.24770 0.05900
H 	H 	0.31500 0.64870 0.23980 0.05700
C 	C 	0.44940 0.76010 0.31270 0.05400
H 	H 	0.49010 0.72050 0.30440 0.02500
C 	C 	0.49060 0.81350 0.34410 0.06300
H 	H 	0.55320 0.80400 0.34800 0.01300
C 	C 	0.48250 0.97060 0.41580 0.19200
C 	C 	0.57850 0.96960 0.43000 -0.63800
H 	H 	0.61050 0.93590 0.41420 0.22100
H 	H 	0.60170 0.02150 0.42910 0.21100
H 	H 	0.58320 0.95080 0.45570 0.20800
C 	C 	0.42440 0.03260 0.43600 0.18400
C 	C 	0.47060 0.08770 0.46470 -0.64400
H 	H 	0.50310 0.05780 0.48350 0.21000
H 	H 	0.50940 0.12110 0.45180 0.21500
H 	H 	0.42820 0.11890 0.47660 0.22000
C 	C 	0.19180 0.10720 0.43300 0.05900
H 	H 	0.19310 0.14320 0.45460 0.03500
C 	C 	0.09780 0.09900 0.41400 0.06100
H 	H 	0.05500 0.12800 0.42790 0.03500
C 	C 	0.93240 0.03510 0.34660 0.05400
H 	H 	0.88880 0.06570 0.35930 0.01400
C 	C 	0.89160 0.99120 0.31180 0.06500
H 	H 	0.83140 0.00760 0.30580 0.00800
C 	C 	0.90090 0.84070 0.23570 0.19100
C 	C 	0.81290 0.85430 0.21580 -0.65200
H 	H 	0.78050 0.89070 0.23010 0.22500
H 	H 	0.82040 0.87510 0.19100 0.21700
H 	H 	0.78180 0.80580 0.21360 0.21400
C 	C 	0.02970 0.89790 0.21580 0.26900
C 	C 	0.10620 0.78980 0.18610 0.04800
H 	H 	0.12620 0.82830 0.16840 0.04500
H 	H 	0.08710 0.74430 0.17160 0.03300
C 	C 	0.25550 0.80680 0.21400 0.27300
C 	C 	0.40290 0.78840 0.24440 0.03500
H 	H 	0.41640 0.83000 0.22710 0.04800
H 	H 	0.43960 0.74420 0.23910 0.04500
C 	C 	0.43920 0.88950 0.29240 0.26300
C 	C 	0.51620 0.96030 0.34540 0.05800
H 	H 	0.52030 0.99890 0.32550 0.03400
H 	H 	0.57490 0.94620 0.35410 0.01100
C 	C 	0.41950 0.05810 0.37010 0.26900
C 	C 	0.33430 0.14810 0.40630 0.05600
H 	H 	0.35020 0.18410 0.38660 0.03400
H 	H 	0.34910 0.17250 0.43050 0.01600
C 	C 	0.19090 0.15350 0.37040 0.27400
C 	C 	0.03540 0.15030 0.35060 0.04400
H 	H 	0.99120 0.17610 0.36450 0.02400
H 	H 	0.05530 0.18710 0.33210 0.04200
C 	C 	0.00350 0.07220 0.29300 0.26500
C 	C 	0.92910 0.99000 0.24340 0.04800
H 	H 	0.86700 0.99410 0.23730 0.01600
H 	H 	0.95800 0.02630 0.22720 0.04100
C 	C 	0.20580 0.58760 0.41820 0.32200
C 	C 	0.26880 0.65520 0.47380 0.04500
H 	H 	0.24070 0.69930 0.46100 0.05700
H 	H 	0.33000 0.66760 0.47790 0.02800
C 	C 	0.16430 0.68910 0.52060 0.26900
C 	C 	0.09660 0.72410 0.57980 0.04700
H 	H 	0.12890 0.74370 0.60220 0.01800
H 	H 	0.07780 0.76870 0.56460 0.04400
C 	C 	0.93920 0.69780 0.57600 0.26800
C 	C 	0.78870 0.66250 0.58960 0.04200
H 	H 	0.76150 0.66680 0.61360 0.04300
H 	H 	0.77380 0.70900 0.57500 0.04500
C 	C 	0.41410 0.55090 0.44750 -0.75100
H 	H 	0.42950 0.58140 0.46960 0.25500
H 	H 	0.45290 0.50720 0.44640 0.24900
H 	H 	0.41870 0.58250 0.42530 0.26400
C 	C 	0.32180 0.52190 0.44930 0.26600
C 	C 	0.27700 0.60650 0.54250 0.05900
H 	H 	0.33630 0.62660 0.54680 0.00900
C 	C 	0.21970 0.62790 0.57570 0.06400
H 	H 	0.25330 0.65470 0.59620 0.00600
C 	C 	0.01960 0.63390 0.62490 0.06200
H 	H 	0.04590 0.66020 0.64730 0.01400
C 	C 	0.92180 0.61940 0.62860 0.06000
H 	H 	0.90250 0.63930 0.65270 0.03500
C 	C 	0.71400 0.52700 0.58600 0.03300
C 	C 	0.64580 0.54810 0.61600 -0.01300
C 	C 	0.26540 0.40260 0.46930 0.26600
C 	C 	0.33620 0.47890 0.52010 0.06300
H 	H 	0.39190 0.50540 0.52180 0.00200
H 	H 	0.34430 0.42820 0.53200 0.03400
C 	C 	0.22690 0.49320 0.56820 0.26700
C 	C 	0.14670 0.53930 0.62280 0.05000
H 	H 	0.17470 0.57180 0.64230 0.01400
H 	H 	0.15480 0.48540 0.63040 0.03500
C 	C 	0.99350 0.49950 0.62450 0.31600
C 	C 	0.83650 0.49490 0.63660 0.02600
H 	H 	0.80480 0.52760 0.65350 0.06200
H 	H 	0.85310 0.44770 0.65030 0.04200
N 	N 	0.98260 0.72620 0.24998 -0.18200
N 	N 	0.13000 0.67530 0.25728 -0.15800
N 	N 	0.25900 0.68620 0.28796 -0.15100
N 	N 	0.37630 0.72580 0.33214 -0.14700
N 	N 	0.44630 0.79530 0.37714 -0.15100
N 	N 	0.44100 0.89830 0.42421 -0.17700
N 	N 	0.36230 0.98350 0.45441 -0.17800
N 	N 	0.21270 0.02840 0.44497 -0.15000
N 	N 	0.08270 0.01530 0.41530 -0.14900
N 	N 	0.96780 0.97160 0.37088 -0.16100
N 	N 	0.89660 0.90980 0.32340 -0.17600
N 	N 	0.89200 0.81080 0.27429 -0.19100
N 	N 	0.03270 0.82170 0.20520 -0.17800
N 	N 	0.17700 0.76830 0.21186 -0.14100
N 	N 	0.31230 0.76600 0.23731 -0.14100
N 	N 	0.42290 0.81410 0.28276 -0.14700
N 	N 	0.47310 0.89160 0.32936 -0.14900
N 	N 	0.47370 0.99450 0.37597 -0.17200
N 	N 	0.38540 0.07770 0.40340 -0.17000
N 	N 	0.24260 0.13630 0.40283 -0.15000
N 	N 	0.10750 0.13110 0.37669 -0.14900
N 	N 	0.99610 0.08430 0.33063 -0.15300
N 	N 	0.94690 0.01210 0.28236 -0.15200
N 	N 	0.95780 0.91000 0.23502 -0.17200
N 	N 	0.25980 0.58720 0.44928 -0.18600
N 	N 	0.23150 0.64430 0.51010 -0.15000
N 	N 	0.15390 0.67730 0.55840 -0.15000
N 	N 	0.02040 0.68320 0.59150 -0.15100
N 	N 	0.88060 0.66040 0.59680 -0.14800
N 	N 	0.75240 0.59510 0.56930 -0.14400
N 	N 	0.30970 0.46760 0.48040 -0.18400
N 	N 	0.27590 0.52290 0.54110 -0.15500
N 	N 	0.19000 0.55170 0.58754 -0.15300
N 	N 	0.05520 0.55630 0.62048 -0.15900
N 	N 	0.91540 0.53600 0.62670 -0.15800
N 	N 	0.77940 0.47420 0.60445 -0.15700
O 	O 	0.94550 0.71000 0.31162 -0.39400
O 	O 	0.13900 0.66240 0.32255 -0.37900
O 	O 	0.32910 0.71760 0.39264 -0.24700
O 	O 	0.33150 0.85230 0.45912 -0.23200
O 	O 	0.14230 0.90940 0.44760 -0.23400
O 	O 	0.95320 0.83970 0.37423 -0.41700
O 	O 	0.08390 0.94670 0.20883 -0.22300
O 	O 	0.27170 0.86830 0.19731 -0.22000
O 	O 	0.42620 0.94650 0.27186 -0.22300
O 	O 	0.40720 0.09200 0.34006 -0.24500
O 	O 	0.21510 0.18640 0.34265 -0.23700
O 	O 	0.04980 0.10740 0.27188 -0.23800
O 	O 	0.99260 0.57010 0.37296 -0.38700
O 	O 	0.14880 0.63800 0.41061 -0.38600
O 	O 	0.11920 0.73280 0.50022 -0.23200
O 	O 	0.92150 0.74010 0.54822 -0.22300
O 	O 	0.24580 0.34830 0.48980 -0.22100
O 	O 	0.21900 0.42280 0.57530 -0.23500
La	La	0.03685 0.71349 0.37140 1.57400
