data_crystal

_cell_length_a 18.11830
_cell_length_b 19.59860
_cell_length_c 24.71350
_cell_angle_alpha 75.38500
_cell_angle_beta  83.62500
_cell_angle_gamma 74.06400

_symmetry_space_group_name_	'P 1'
_symmetry_space_group_name_H-M	'P 1'

loop_
_symmetry_equiv_pos_as_xyz
  x,y,z

loop_
_atom_site_label
_atom_site_type_symbol
_atom_site_fract_x
_atom_site_fract_y
_atom_site_fract_z
_atom_site_charge
Ag	Ag	0.01180 0.37186 0.94341 0.48500
S 	S 	0.11796 0.27359 0.99891 -0.05200
S 	S 	0.94253 0.38557 0.04070 -0.11900
S 	S 	0.96020 0.53484 0.14413 -0.09100
S 	S 	0.71133 0.98648 0.17731 -0.03700
S 	S 	0.81499 0.81085 0.24312 -0.12300
S 	S 	0.95426 0.63872 0.26250 -0.13800
F 	F 	0.63830 0.93380 0.99400 -0.43800
F 	F 	0.56840 0.87160 0.05250 -0.45200
F 	F 	0.66970 0.81590 0.01260 -0.46700
O 	O 	0.12860 0.13030 0.10410 -0.21900
O 	O 	0.01400 0.92710 0.15760 -0.20600
O 	O 	0.02420 0.38280 0.23790 -0.23700
O 	O 	0.25350 0.22240 0.17260 -0.17700
O 	O 	0.77600 0.08010 0.28020 -0.25300
O 	O 	0.87320 0.29150 0.19820 -0.19600
O 	O 	0.99320 0.77750 0.30040 -0.23700
O 	O 	0.79770 0.92310 0.40480 -0.20800
O 	O 	0.67280 0.83280 0.12880 -0.32700
O 	O 	0.74170 0.90130 0.07000 -0.19600
O 	O 	0.57640 0.12510 0.59710 -0.25900
O 	O 	0.62660 0.15900 0.51090 -0.17500
C 	C 	0.08220 0.95300 0.22280 -0.02900
C 	C 	0.12420 0.99880 0.23410 -0.06000
H 	H 	0.14160 0.98860 0.27090 0.06900
C 	C 	0.14150 0.05700 0.19540 -0.02600
C 	C 	0.11410 0.07150 0.14370 0.17300
C 	C 	0.07000 0.03200 0.12910 -0.21000
H 	H 	0.04990 0.04530 0.09290 0.10500
C 	C 	0.05570 0.97150 0.16940 0.15500
C 	C 	0.19280 0.10230 0.20680 -0.08500
H 	H 	0.22700 0.11050 0.17250 0.09100
C 	C 	0.14800 0.17830 0.21440 -0.01700
C 	C 	0.07550 0.19080 0.24150 -0.05400
H 	H 	0.05280 0.15100 0.25410 0.06100
C 	C 	0.03490 0.25750 0.25100 -0.02200
C 	C 	0.06790 0.31590 0.23020 0.15900
C 	C 	0.14140 0.30520 0.20270 -0.20500
H 	H 	0.16370 0.34520 0.18890 0.09900
C 	C 	0.18090 0.23600 0.19600 0.15000
C 	C 	0.96280 0.26780 0.28800 -0.06500
H 	H 	0.93080 0.31820 0.27280 0.07000
C 	C 	0.91530 0.21560 0.28500 -0.03400
C 	C 	0.91340 0.15320 0.32670 -0.05400
H 	H 	0.94510 0.14140 0.35760 0.04900
C 	C 	0.86780 0.10760 0.32560 -0.03600
C 	C 	0.82390 0.12500 0.28090 0.17600
C 	C 	0.82400 0.18540 0.23580 -0.21100
H 	H 	0.79380 0.19550 0.20440 0.10500
C 	C 	0.87050 0.22970 0.23960 0.15900
C 	C 	0.86300 0.04030 0.37230 -0.08000
H 	H 	0.80700 0.04330 0.38050 0.07500
C 	C 	0.89710 0.97040 0.35260 -0.01500
C 	C 	0.96290 0.96020 0.31800 -0.04600
H 	H 	0.98580 0.00000 0.30510 0.06000
C 	C 	0.99820 0.89570 0.30070 -0.02800
C 	C 	0.96220 0.83980 0.32040 0.16500
C 	C 	0.89480 0.84730 0.35620 -0.21400
H 	H 	0.87160 0.80770 0.36920 0.09800
C 	C 	0.86400 0.91090 0.37140 0.16400
C 	C 	0.07080 0.88430 0.26430 -0.05600
H 	H 	0.06660 0.85010 0.24150 0.06900
C 	C 	0.00550 0.92990 0.10170 -0.08700
H 	H 	0.05590 0.92420 0.08170 0.05300
H 	H 	0.97140 0.97700 0.08460 0.05100
H 	H 	0.98320 0.89050 0.09940 0.04900
C 	C 	0.29240 0.27970 0.16240 -0.15600
H 	H 	0.26640 0.32090 0.13350 0.08000
H 	H 	0.34580 0.26140 0.14970 0.09700
H 	H 	0.29150 0.29570 0.19700 0.08000
C 	C 	0.82080 0.31200 0.15430 -0.12900
H 	H 	0.82460 0.35900 0.13000 0.06800
H 	H 	0.76830 0.31630 0.17050 0.06700
H 	H 	0.83350 0.27480 0.13240 0.06200
C 	C 	0.75780 0.86780 0.41840 -0.08500
H 	H 	0.75620 0.84990 0.38500 0.03900
H 	H 	0.70530 0.88770 0.43190 0.04300
H 	H 	0.78430 0.82740 0.44770 0.05100
C 	C 	0.15090 0.12380 0.04770 0.04000
H 	H 	0.14660 0.07620 0.04330 0.03300
H 	H 	0.20520 0.12570 0.03950 0.08700
C 	C 	0.10030 0.18480 0.00700 -0.13100
H 	H 	0.04600 0.18780 0.01960 0.05700
H 	H 	0.10790 0.17250 0.96990 0.06100
C 	C 	0.08950 0.29370 0.06730 -0.12600
H 	H 	0.11860 0.25300 0.09590 0.09800
H 	H 	0.10490 0.33810 0.06820 0.06200
C 	C 	0.00480 0.30530 0.08370 -0.09600
H 	H 	0.99710 0.30950 0.12320 0.07000
H 	H 	0.98880 0.26160 0.08170 0.05600
C 	C 	0.96580 0.45750 0.06320 -0.06700
H 	H 	0.02230 0.44710 0.06440 0.02900
H 	H 	0.94800 0.50400 0.03540 0.01500
C 	C 	0.92960 0.46660 0.12090 -0.13500
H 	H 	0.94430 0.41930 0.14840 0.08800
H 	H 	0.87300 0.48090 0.11920 0.07100
C 	C 	0.05640 0.48550 0.16740 -0.15900
H 	H 	0.08020 0.45160 0.14290 0.06600
H 	H 	0.08780 0.52100 0.16260 0.04500
C 	C 	0.05960 0.44250 0.22730 0.08000
H 	H 	0.11410 0.42310 0.23740 0.00400
H 	H 	0.03380 0.47570 0.25190 0.00700
C 	C 	0.75800 0.07520 0.23090 0.15300
H 	H 	0.80540 0.05930 0.20840 -0.00700
H 	H 	0.72880 0.12370 0.21030 -0.01600
C 	C 	0.70860 0.01950 0.23980 -0.21700
H 	H 	0.65480 0.04300 0.24970 0.10000
H 	H 	0.72820 0.97790 0.27130 0.09400
C 	C 	0.81260 0.94570 0.16640 -0.13200
H 	H 	0.81910 0.92140 0.13500 0.07400
H 	H 	0.83950 0.98510 0.15500 0.07400
C 	C 	0.85100 0.89140 0.21570 -0.09200
H 	H 	0.84710 0.91670 0.24630 0.06500
H 	H 	0.90630 0.87500 0.20530 0.07400
C 	C 	0.85900 0.75750 0.19160 -0.10500
H 	H 	0.82940 0.72180 0.19210 0.01900
H 	H 	0.85610 0.79060 0.15390 0.05200
C 	C 	0.94180 0.71740 0.20230 -0.09700
H 	H 	0.96920 0.75180 0.20860 0.06900
H 	H 	0.96580 0.70040 0.16850 0.02800
C 	C 	0.02260 0.65090 0.30420 -0.15500
H 	H 	0.04370 0.60350 0.33020 0.05700
H 	H 	0.06570 0.66370 0.27900 0.07900
C 	C 	0.99370 0.70730 0.33790 0.07900
H 	H 	0.94120 0.70650 0.35370 -0.01800
H 	H 	0.02780 0.69780 0.36910 0.01100
C 	C 	0.24600 0.06340 0.25540 0.10500
H 	H 	0.27230 0.09840 0.26220 0.00400
H 	H 	0.21410 0.04960 0.28950 0.01800
C 	C 	0.30630 0.99590 0.24720 -0.51500
H 	H 	0.33350 0.00680 0.21070 0.18700
H 	H 	0.28160 0.95680 0.24840 0.20800
H 	H 	0.34300 0.98030 0.27700 0.20700
C 	C 	0.98200 0.26550 0.34680 0.06400
H 	H 	0.01710 0.29700 0.34450 0.01300
H 	H 	0.00920 0.21490 0.36480 0.00900
C 	C 	0.91100 0.29070 0.38280 -0.45300
H 	H 	0.89180 0.34380 0.37120 0.16100
H 	H 	0.92440 0.27690 0.42220 0.16100
H 	H 	0.87120 0.26750 0.37830 0.15900
C 	C 	0.89590 0.03840 0.42770 0.11900
H 	H 	0.89770 0.99030 0.45350 0.00300
H 	H 	0.94940 0.04290 0.42010 -0.00200
C 	C 	0.85150 0.09670 0.45640 -0.55000
H 	H 	0.86050 0.14370 0.43590 0.19600
H 	H 	0.86820 0.08530 0.49470 0.22200
H 	H 	0.79660 0.09940 0.45730 0.21200
C 	C 	0.14040 0.84430 0.30180 0.05500
H 	H 	0.15150 0.87860 0.32110 0.06900
H 	H 	0.12720 0.80370 0.33070 0.04300
C 	C 	0.21100 0.81440 0.26770 -0.47400
H 	H 	0.22480 0.85470 0.23960 0.17300
H 	H 	0.20020 0.78000 0.24890 0.16400
H 	H 	0.25370 0.78930 0.29250 0.22900
C 	C 	0.68850 0.86870 0.08520 0.15100
C 	C 	0.64150 0.87310 0.03650 0.75800
C 	C 	0.62170 0.14650 0.56620 0.07800
C 	C 	0.67960 0.17050 0.59270 1.00000
S 	S 	0.38840 0.23243 0.51396 -0.09000
S 	S 	0.56086 0.98169 0.35468 -0.06700
S 	S 	0.79943 0.51386 0.33932 -0.09100
S 	S 	0.69393 0.69263 0.28327 -0.15700
S 	S 	0.55090 0.86150 0.27254 -0.05100
O 	O 	0.41400 0.37130 0.41220 -0.22900
O 	O 	0.48650 0.59930 0.34680 -0.17400
O 	O 	0.49200 0.13330 0.25930 -0.23500
O 	O 	0.26490 0.28200 0.33890 -0.20400
O 	O 	0.71120 0.45380 0.25310 -0.23600
O 	O 	0.63510 0.22700 0.31700 -0.18800
O 	O 	0.49740 0.74340 0.21930 -0.23400
O 	O 	0.71060 0.60310 0.12570 -0.19200
C 	C 	0.41800 0.56140 0.28870 -0.02000
C 	C 	0.38080 0.51160 0.28200 -0.05200
H 	H 	0.35760 0.52020 0.24750 0.04500
C 	C 	0.37540 0.44890 0.32340 -0.03500
C 	C 	0.41420 0.43570 0.37230 0.17000
C 	C 	0.45250 0.48490 0.38060 -0.20800
H 	H 	0.47810 0.47560 0.41430 0.10900
C 	C 	0.45270 0.54710 0.33950 0.16200
C 	C 	0.32440 0.40000 0.31680 -0.05600
H 	H 	0.29870 0.38590 0.35440 0.06600
C 	C 	0.36900 0.32950 0.30140 -0.03200
C 	C 	0.44060 0.32040 0.27280 -0.04200
H 	H 	0.46360 0.36020 0.26340 0.05700
C 	C 	0.47990 0.25610 0.25740 -0.03400
C 	C 	0.44710 0.19800 0.27250 0.16800
C 	C 	0.37420 0.20480 0.29910 -0.22400
H 	H 	0.35160 0.16480 0.30800 0.11000
C 	C 	0.33530 0.27020 0.31240 0.16300
C 	C 	0.55620 0.25000 0.22250 -0.05200
H 	H 	0.58950 0.20010 0.23750 0.07000
C 	C 	0.59880 0.30350 0.22920 -0.03700
C 	C 	0.60070 0.36720 0.18910 -0.04500
H 	H 	0.57320 0.37770 0.15620 0.04200
C 	C 	0.64030 0.41640 0.19440 -0.04800
C 	C 	0.67610 0.40270 0.24460 0.18100
C 	C 	0.67470 0.34110 0.28610 -0.21900
H 	H 	0.69890 0.33290 0.32020 0.11300
C 	C 	0.63770 0.29060 0.27830 0.16400
C 	C 	0.64850 0.48320 0.14880 -0.04000
H 	H 	0.70430 0.48210 0.14490 0.06100
C 	C 	0.60610 0.55360 0.16640 -0.03100
C 	C 	0.53590 0.56200 0.19520 -0.03800
H 	H 	0.51260 0.52230 0.20390 0.05300
C 	C 	0.49720 0.62570 0.21210 -0.02800
C 	C 	0.53180 0.68430 0.19690 0.18200
C 	C 	0.60120 0.67820 0.16700 -0.23100
H 	H 	0.62340 0.71860 0.15670 0.13600
C 	C 	0.63820 0.61460 0.15210 0.17700
C 	C 	0.42100 0.63070 0.24500 -0.07800
H 	H 	0.41480 0.66980 0.26570 0.09200
C 	C 	0.50150 0.59780 0.40210 -0.15700
H 	H 	0.51960 0.64050 0.40200 0.09300
H 	H 	0.54100 0.55320 0.41680 0.07400
H 	H 	0.45430 0.59850 0.42570 0.10700
C 	C 	0.22380 0.22710 0.34850 -0.13400
H 	H 	0.21180 0.22120 0.31250 0.07600
H 	H 	0.17600 0.24170 0.37020 0.07400
H 	H 	0.25540 0.18080 0.36930 0.06900
C 	C 	0.67850 0.21020 0.36530 -0.15000
H 	H 	0.73030 0.21630 0.35400 0.07800
H 	H 	0.68180 0.15970 0.38570 0.08500
H 	H 	0.65330 0.24320 0.38970 0.09100
C 	C 	0.75080 0.65720 0.12040 -0.14900
H 	H 	0.72590 0.70140 0.09340 0.11900
H 	H 	0.80400 0.63910 0.10740 0.06600
H 	H 	0.75040 0.66870 0.15690 0.06500
C 	C 	0.41750 0.37110 0.47100 0.08000
H 	H 	0.36550 0.39150 0.48630 0.01100
H 	H 	0.45110 0.40180 0.47450 0.00700
C 	C 	0.44930 0.29280 0.50380 -0.16900
H 	H 	0.46290 0.29450 0.54100 0.07400
H 	H 	0.49750 0.27150 0.48410 0.09300
C 	C 	0.39090 0.21750 0.44390 -0.06200
H 	H 	0.35710 0.18530 0.44410 0.04300
H 	H 	0.36970 0.26490 0.41790 0.06900
C 	C 	0.46940 0.18410 0.42220 -0.20600
H 	H 	0.50820 0.20500 0.43260 0.07800
H 	H 	0.47110 0.19190 0.38090 0.03500
H 	H 	0.48940 0.22550 0.40020 0.06100
H 	H 	0.46140 0.15780 0.39490 0.08000
C 	C 	0.58040 0.05310 0.43640 -0.20800
H 	H 	0.61010 0.08440 0.44490 0.10000
H 	H 	0.60020 0.00330 0.45950 0.01800
H 	H 	0.62860 0.02330 0.45460 0.05200
H 	H 	0.54220 0.02420 0.44990 0.08100
C 	C 	0.59650 0.05060 0.37490 -0.08500
H 	H 	0.65270 0.04060 0.36670 0.06300
H 	H 	0.57260 0.09920 0.35140 0.07400
C 	C 	0.46380 0.02900 0.33080 -0.19100
H 	H 	0.43370 0.99250 0.33570 0.08700
H 	H 	0.43880 0.06280 0.35510 0.08400
C 	C 	0.46030 0.07130 0.27120 0.09400
H 	H 	0.48810 0.03810 0.24720 0.01100
H 	H 	0.40590 0.08830 0.26090 0.00700
C 	C 	0.78890 0.42650 0.26690 0.09400
H 	H 	0.81930 0.40320 0.23750 0.01600
H 	H 	0.79360 0.38950 0.30280 0.00600
C 	C 	0.81840 0.48950 0.27180 -0.17500
H 	H 	0.79510 0.53280 0.24260 0.07500
H 	H 	0.87460 0.47740 0.26370 0.07400
C 	C 	0.69600 0.54880 0.34400 -0.10600
H 	H 	0.67230 0.50800 0.34750 0.07600
H 	H 	0.68190 0.56690 0.37870 0.04900
C 	C 	0.66200 0.60940 0.29530 -0.11000
H 	H 	0.60540 0.62210 0.30120 0.08400
H 	H 	0.67420 0.59050 0.26090 0.07500
C 	C 	0.64070 0.73580 0.33740 -0.05900
H 	H 	0.64130 0.69790 0.37260 0.03000
H 	H 	0.66740 0.77070 0.34360 0.01200
C 	C 	0.55820 0.77580 0.32480 -0.14800
H 	H 	0.52980 0.78590 0.35970 0.07900
H 	H 	0.53380 0.74430 0.31090 0.11200
C 	C 	0.47760 0.86610 0.22660 -0.19200
H 	H 	0.43220 0.85560 0.24990 0.12300
H 	H 	0.46170 0.91660 0.20380 0.08800
C 	C 	0.50080 0.81450 0.18730 0.07700
H 	H 	0.46540 0.83090 0.15620 0.04100
H 	H 	0.55360 0.81360 0.17130 0.02600
C 	C 	0.26090 0.43970 0.27670 0.04900
H 	H 	0.23400 0.40410 0.27190 0.02000
H 	H 	0.28430 0.45860 0.23980 0.00800
C 	C 	0.20140 0.50310 0.29450 -0.42800
H 	H 	0.16550 0.52830 0.26460 0.14000
H 	H 	0.22740 0.53740 0.30180 0.15200
H 	H 	0.17300 0.48440 0.32860 0.14800
C 	C 	0.54100 0.25380 0.16210 0.04200
H 	H 	0.51500 0.30470 0.14410 0.01500
H 	H 	0.50570 0.22310 0.16230 0.03200
C 	C 	0.61410 0.22830 0.12740 -0.42700
H 	H 	0.60060 0.23050 0.08960 0.15700
H 	H 	0.64030 0.17800 0.14510 0.15600
H 	H 	0.64820 0.26010 0.12530 0.14100
C 	C 	0.62450 0.48480 0.09060 0.01200
H 	H 	0.62360 0.53330 0.06590 0.03300
H 	H 	0.57150 0.47890 0.09420 0.02300
C 	C 	0.67680 0.42590 0.06240 -0.38200
H 	H 	0.66090 0.43420 0.02410 0.12800
H 	H 	0.67250 0.37760 0.08370 0.12700
H 	H 	0.73020 0.42860 0.06130 0.13000
C 	C 	0.35470 0.65710 0.20360 0.08800
H 	H 	0.36270 0.62260 0.17900 -0.00200
H 	H 	0.30540 0.65630 0.22530 -0.00500
C 	C 	0.34880 0.73350 0.16730 -0.48200
H 	H 	0.39700 0.73460 0.14520 0.18300
H 	H 	0.33910 0.76830 0.19120 0.17400
H 	H 	0.30640 0.74670 0.14200 0.16200
Ag	Ag	0.66970 0.86260 0.18690 0.38300
Ag	Ag	0.48220 0.12220 0.56340 0.54800
Ag	Ag	0.83240 0.63960 0.28930 0.31500
S 	S 	0.55290 0.11910 0.46600 -0.04300
F 	F 	0.66600 0.16800 0.65000 -0.33800
F 	F 	0.69100 0.23950 0.56700 -0.29000
F 	F 	0.75040 0.12100 0.60300 -0.26700
Ag	Ag	0.83071 0.64146 0.32229 0.28600
S 	S 	0.48682 0.08432 0.45685 -0.07000
Ag	Ag	0.67355 0.86235 0.21648 0.24700
Ag	Ag	0.47461 0.10261 0.55758 -0.00700
F 	F 	0.71850 0.11200 0.63080 -0.28700
F 	F 	0.64570 0.22820 0.61500 -0.35500
F 	F 	0.73610 0.18840 0.55450 -0.36100
Ag	Ag	0.98820 0.62814 0.05659 0.48600
S 	S 	0.88204 0.72641 0.00109 -0.05100
S 	S 	0.05747 0.61443 0.95930 -0.11800
S 	S 	0.03980 0.46516 0.85587 -0.09100
S 	S 	0.28867 0.01352 0.82269 -0.04100
S 	S 	0.18501 0.18915 0.75688 -0.12300
S 	S 	0.04574 0.36128 0.73750 -0.13800
F 	F 	0.36170 0.06620 0.00600 -0.43800
F 	F 	0.43160 0.12840 0.94750 -0.45200
F 	F 	0.33030 0.18410 0.98740 -0.46700
O 	O 	0.87140 0.86970 0.89590 -0.21800
O 	O 	0.98600 0.07290 0.84240 -0.20600
O 	O 	0.97580 0.61720 0.76210 -0.23700
O 	O 	0.74650 0.77760 0.82740 -0.17600
O 	O 	0.22400 0.91990 0.71980 -0.25100
O 	O 	0.12680 0.70850 0.80180 -0.19600
O 	O 	0.00680 0.22250 0.69960 -0.23700
O 	O 	0.20230 0.07690 0.59520 -0.20900
O 	O 	0.32720 0.16720 0.87120 -0.32700
O 	O 	0.25830 0.09870 0.93000 -0.19600
O 	O 	0.42360 0.87490 0.40290 -0.25900
O 	O 	0.37340 0.84100 0.48910 -0.17500
C 	C 	0.91780 0.04700 0.77720 -0.02500
C 	C 	0.87580 0.00120 0.76590 -0.06700
H 	H 	0.85840 0.01140 0.72910 0.07000
C 	C 	0.85850 0.94300 0.80460 -0.02000
C 	C 	0.88590 0.92850 0.85630 0.16900
C 	C 	0.93000 0.96800 0.87090 -0.20400
H 	H 	0.95010 0.95470 0.90710 0.10400
C 	C 	0.94430 0.02850 0.83060 0.15100
C 	C 	0.80720 0.89770 0.79320 -0.09100
H 	H 	0.77300 0.88950 0.82750 0.09300
C 	C 	0.85200 0.82170 0.78560 -0.01400
C 	C 	0.92450 0.80920 0.75850 -0.05600
H 	H 	0.94720 0.84900 0.74590 0.06200
C 	C 	0.96510 0.74250 0.74900 -0.02100
C 	C 	0.93210 0.68410 0.76980 0.15900
C 	C 	0.85860 0.69480 0.79730 -0.20400
H 	H 	0.83630 0.65480 0.81110 0.09900
C 	C 	0.81910 0.76400 0.80400 0.14900
C 	C 	0.03720 0.73220 0.71200 -0.06500
H 	H 	0.06920 0.68180 0.72720 0.07100
C 	C 	0.08470 0.78440 0.71500 -0.03300
C 	C 	0.08660 0.84680 0.67330 -0.05500
H 	H 	0.05490 0.85860 0.64240 0.04900
C 	C 	0.13220 0.89240 0.67440 -0.03600
C 	C 	0.17610 0.87500 0.71910 0.17500
C 	C 	0.17600 0.81460 0.76420 -0.21000
H 	H 	0.20620 0.80450 0.79560 0.10500
C 	C 	0.12950 0.77030 0.76040 0.15900
C 	C 	0.13700 0.95970 0.62770 -0.08000
H 	H 	0.19300 0.95670 0.61950 0.07600
C 	C 	0.10290 0.02960 0.64740 -0.01700
C 	C 	0.03710 0.03980 0.68200 -0.04600
H 	H 	0.01420 0.00000 0.69490 0.05900
C 	C 	0.00180 0.10430 0.69930 -0.02800
C 	C 	0.03780 0.16020 0.67960 0.16500
C 	C 	0.10520 0.15270 0.64380 -0.21500
H 	H 	0.12840 0.19230 0.63080 0.09800
C 	C 	0.13600 0.08910 0.62860 0.16500
C 	C 	0.92920 0.11570 0.73570 -0.05800
H 	H 	0.93340 0.14990 0.75850 0.07000
C 	C 	0.99450 0.07010 0.89830 -0.08600
H 	H 	0.94410 0.07580 0.91830 0.05200
H 	H 	0.02860 0.02300 0.91540 0.05000
H 	H 	0.01680 0.10950 0.90060 0.04900
C 	C 	0.70760 0.72030 0.83760 -0.15600
H 	H 	0.73360 0.67910 0.86650 0.08000
H 	H 	0.65420 0.73860 0.85030 0.09700
H 	H 	0.70850 0.70430 0.80300 0.08000
C 	C 	0.17920 0.68800 0.84570 -0.12900
H 	H 	0.17540 0.64100 0.87000 0.06800
H 	H 	0.23170 0.68370 0.82950 0.06700
H 	H 	0.16650 0.72520 0.86760 0.06200
C 	C 	0.24220 0.13220 0.58160 -0.08400
H 	H 	0.24380 0.15010 0.61500 0.03900
H 	H 	0.29470 0.11230 0.56810 0.04200
H 	H 	0.21570 0.17260 0.55230 0.05100
C 	C 	0.84910 0.87620 0.95230 0.03900
H 	H 	0.85340 0.92380 0.95670 0.03300
H 	H 	0.79480 0.87430 0.96050 0.08700
C 	C 	0.89970 0.81520 0.99300 -0.13000
H 	H 	0.95400 0.81220 0.98040 0.05700
H 	H 	0.89210 0.82750 0.03010 0.06100
C 	C 	0.91050 0.70630 0.93270 -0.12600
H 	H 	0.88140 0.74700 0.90410 0.09800
H 	H 	0.89510 0.66190 0.93180 0.06200
C 	C 	0.99520 0.69470 0.91630 -0.09600
H 	H 	0.00290 0.69050 0.87680 0.07000
H 	H 	0.01120 0.73840 0.91830 0.05600
C 	C 	0.03420 0.54250 0.93680 -0.06700
H 	H 	0.97770 0.55290 0.93560 0.02900
H 	H 	0.05200 0.49600 0.96460 0.01500
C 	C 	0.07040 0.53340 0.87910 -0.13500
H 	H 	0.05570 0.58070 0.85160 0.08800
H 	H 	0.12700 0.51910 0.88080 0.07100
C 	C 	0.94360 0.51450 0.83260 -0.15900
H 	H 	0.91980 0.54840 0.85710 0.06600
H 	H 	0.91220 0.47900 0.83740 0.04500
C 	C 	0.94040 0.55750 0.77270 0.08000
H 	H 	0.88590 0.57690 0.76260 0.00400
H 	H 	0.96620 0.52430 0.74810 0.00700
C 	C 	0.24200 0.92480 0.76910 0.14900
H 	H 	0.19460 0.94070 0.79160 -0.00500
H 	H 	0.27120 0.87630 0.78970 -0.01400
C 	C 	0.29140 0.98050 0.76020 -0.20900
H 	H 	0.34520 0.95700 0.75030 0.09900
H 	H 	0.27180 0.02210 0.72870 0.09100
C 	C 	0.18740 0.05430 0.83360 -0.13000
H 	H 	0.18090 0.07860 0.86500 0.07300
H 	H 	0.16050 0.01490 0.84500 0.07300
C 	C 	0.14900 0.10860 0.78430 -0.09300
H 	H 	0.15290 0.08330 0.75370 0.06500
H 	H 	0.09370 0.12500 0.79470 0.07400
C 	C 	0.14100 0.24250 0.80840 -0.10500
H 	H 	0.17060 0.27820 0.80790 0.01900
H 	H 	0.14390 0.20940 0.84610 0.05200
C 	C 	0.05820 0.28260 0.79770 -0.09700
H 	H 	0.03080 0.24820 0.79140 0.06900
H 	H 	0.03420 0.29960 0.83150 0.02800
C 	C 	0.97740 0.34910 0.69580 -0.15500
H 	H 	0.95630 0.39650 0.66980 0.05700
H 	H 	0.93430 0.33630 0.72100 0.07900
C 	C 	0.00630 0.29270 0.66210 0.07900
H 	H 	0.05880 0.29350 0.64630 -0.01800
H 	H 	0.97220 0.30220 0.63090 0.01100
C 	C 	0.75400 0.93660 0.74460 0.11800
H 	H 	0.72770 0.90160 0.73780 0.00000
H 	H 	0.78590 0.95040 0.71050 0.01500
C 	C 	0.69370 0.00410 0.75280 -0.53400
H 	H 	0.66650 0.99320 0.78930 0.19400
H 	H 	0.71840 0.04320 0.75160 0.21300
H 	H 	0.65700 0.01970 0.72300 0.21300
C 	C 	0.01800 0.73450 0.65320 0.06400
H 	H 	0.98290 0.70300 0.65550 0.01300
H 	H 	0.99080 0.78510 0.63520 0.00900
C 	C 	0.08900 0.70930 0.61720 -0.45300
H 	H 	0.10820 0.65620 0.62880 0.16100
H 	H 	0.07560 0.72310 0.57780 0.16100
H 	H 	0.12880 0.73250 0.62170 0.15900
C 	C 	0.10410 0.96160 0.57230 0.12500
H 	H 	0.10230 0.00970 0.54650 0.00000
H 	H 	0.05060 0.95710 0.57990 -0.00300
C 	C 	0.14850 0.90330 0.54360 -0.55500
H 	H 	0.13950 0.85630 0.56410 0.19700
H 	H 	0.13180 0.91470 0.50530 0.22400
H 	H 	0.20340 0.90060 0.54270 0.21300
C 	C 	0.85960 0.15570 0.69820 0.05500
H 	H 	0.84850 0.12140 0.67890 0.06900
H 	H 	0.87280 0.19630 0.66930 0.04300
C 	C 	0.78900 0.18560 0.73230 -0.47400
H 	H 	0.77520 0.14530 0.76040 0.17300
H 	H 	0.79980 0.22000 0.75110 0.16400
H 	H 	0.74630 0.21070 0.70750 0.22900
C 	C 	0.31150 0.13130 0.91480 0.15100
C 	C 	0.35850 0.12690 0.96350 0.75800
C 	C 	0.37830 0.85350 0.43380 0.07800
C 	C 	0.32040 0.82950 0.40730 0.99900
S 	S 	0.61160 0.76757 0.48604 -0.09000
S 	S 	0.43914 0.01831 0.64532 -0.07200
S 	S 	0.20057 0.48614 0.66068 -0.09100
S 	S 	0.30607 0.30737 0.71673 -0.15700
S 	S 	0.44910 0.13850 0.72746 -0.05200
O 	O 	0.58600 0.62870 0.58780 -0.22900
O 	O 	0.51350 0.40070 0.65320 -0.17400
O 	O 	0.50800 0.86670 0.74070 -0.23400
O 	O 	0.73510 0.71800 0.66110 -0.20400
O 	O 	0.28880 0.54620 0.74690 -0.23600
O 	O 	0.36490 0.77300 0.68300 -0.18800
O 	O 	0.50260 0.25660 0.78070 -0.23400
O 	O 	0.28940 0.39690 0.87430 -0.19200
C 	C 	0.58200 0.43860 0.71130 -0.02000
C 	C 	0.61920 0.48840 0.71800 -0.05200
H 	H 	0.64240 0.47980 0.75250 0.04500
C 	C 	0.62460 0.55110 0.67660 -0.03500
C 	C 	0.58580 0.56430 0.62770 0.17000
C 	C 	0.54750 0.51510 0.61940 -0.20800
H 	H 	0.52190 0.52440 0.58570 0.10900
C 	C 	0.54730 0.45290 0.66050 0.16200
C 	C 	0.67560 0.60000 0.68320 -0.05600
H 	H 	0.70130 0.61410 0.64560 0.06600
C 	C 	0.63100 0.67050 0.69860 -0.03200
C 	C 	0.55940 0.67960 0.72720 -0.04200
H 	H 	0.53640 0.63980 0.73660 0.05700
C 	C 	0.52010 0.74390 0.74260 -0.03400
C 	C 	0.55290 0.80200 0.72750 0.16800
C 	C 	0.62580 0.79520 0.70090 -0.22400
H 	H 	0.64840 0.83520 0.69200 0.11000
C 	C 	0.66470 0.72980 0.68760 0.16200
C 	C 	0.44380 0.75000 0.77750 -0.05300
H 	H 	0.41050 0.79990 0.76250 0.07000
C 	C 	0.40120 0.69650 0.77080 -0.03700
C 	C 	0.39930 0.63280 0.81090 -0.04500
H 	H 	0.42680 0.62230 0.84380 0.04200
C 	C 	0.35970 0.58360 0.80560 -0.04800
C 	C 	0.32390 0.59730 0.75540 0.18000
C 	C 	0.32530 0.65890 0.71390 -0.21900
H 	H 	0.30110 0.66710 0.67980 0.11300
C 	C 	0.36230 0.70940 0.72170 0.16400
C 	C 	0.35150 0.51680 0.85120 -0.04000
H 	H 	0.29570 0.51790 0.85510 0.06100
C 	C 	0.39390 0.44640 0.83360 -0.03100
C 	C 	0.46410 0.43800 0.80480 -0.03800
H 	H 	0.48740 0.47770 0.79610 0.05300
C 	C 	0.50280 0.37430 0.78790 -0.02800
C 	C 	0.46820 0.31570 0.80310 0.18200
C 	C 	0.39880 0.32180 0.83300 -0.23200
H 	H 	0.37660 0.28140 0.84330 0.13600
C 	C 	0.36180 0.38540 0.84790 0.17700
C 	C 	0.57900 0.36930 0.75500 -0.07800
H 	H 	0.58520 0.33020 0.73430 0.09200
C 	C 	0.49850 0.40220 0.59790 -0.15700
H 	H 	0.48040 0.35950 0.59800 0.09300
H 	H 	0.45900 0.44680 0.58320 0.07400
H 	H 	0.54570 0.40150 0.57430 0.10700
C 	C 	0.77620 0.77290 0.65150 -0.13400
H 	H 	0.78820 0.77880 0.68750 0.07700
H 	H 	0.82400 0.75830 0.62980 0.07500
H 	H 	0.74460 0.81920 0.63070 0.06900
C 	C 	0.32150 0.78980 0.63470 -0.15000
H 	H 	0.26970 0.78370 0.64600 0.07800
H 	H 	0.31820 0.84030 0.61430 0.08500
H 	H 	0.34670 0.75680 0.61030 0.09100
C 	C 	0.24920 0.34280 0.87960 -0.14900
H 	H 	0.27410 0.29860 0.90660 0.11900
H 	H 	0.19600 0.36090 0.89260 0.06600
H 	H 	0.24960 0.33130 0.84310 0.06500
C 	C 	0.58250 0.62890 0.52900 0.08000
H 	H 	0.63450 0.60850 0.51370 0.01100
H 	H 	0.54890 0.59820 0.52550 0.00700
C 	C 	0.55070 0.70720 0.49620 -0.16900
H 	H 	0.53710 0.70550 0.45900 0.07400
H 	H 	0.50250 0.72850 0.51590 0.09300
C 	C 	0.60910 0.78250 0.55610 -0.06200
H 	H 	0.64290 0.81470 0.55590 0.04300
H 	H 	0.63030 0.73510 0.58210 0.06900
C 	C 	0.53060 0.81590 0.57780 -0.20700
H 	H 	0.49180 0.79500 0.56740 0.07800
H 	H 	0.52890 0.80810 0.61910 0.03500
H 	H 	0.51060 0.77450 0.59980 0.06100
H 	H 	0.53860 0.84220 0.60510 0.08100
C 	C 	0.41960 0.94690 0.56360 -0.21200
H 	H 	0.38990 0.91560 0.55510 0.10100
H 	H 	0.39980 0.99670 0.54050 0.02000
H 	H 	0.37140 0.97670 0.54540 0.05200
H 	H 	0.45780 0.97580 0.55010 0.08200
C 	C 	0.40350 0.94940 0.62510 -0.08000
H 	H 	0.34730 0.95940 0.63330 0.06200
H 	H 	0.42740 0.90080 0.64860 0.07300
C 	C 	0.53620 0.97100 0.66920 -0.18200
H 	H 	0.56630 0.00750 0.66430 0.08300
H 	H 	0.56120 0.93720 0.64490 0.08200
C 	C 	0.53970 0.92870 0.72880 0.08900
H 	H 	0.51190 0.96190 0.75280 0.01300
H 	H 	0.59410 0.91170 0.73910 0.00900
C 	C 	0.21110 0.57350 0.73310 0.09400
H 	H 	0.18070 0.59680 0.76250 0.01600
H 	H 	0.20640 0.61050 0.69720 0.00600
C 	C 	0.18160 0.51050 0.72820 -0.17500
H 	H 	0.20490 0.46720 0.75740 0.07500
H 	H 	0.12540 0.52260 0.73630 0.07400
C 	C 	0.30400 0.45120 0.65600 -0.10600
H 	H 	0.32770 0.49200 0.65250 0.07600
H 	H 	0.31810 0.43310 0.62130 0.04900
C 	C 	0.33800 0.39060 0.70470 -0.11000
H 	H 	0.39460 0.37790 0.69880 0.08400
H 	H 	0.32580 0.40950 0.73910 0.07500
C 	C 	0.35930 0.26420 0.66260 -0.06000
H 	H 	0.35870 0.30210 0.62740 0.03000
H 	H 	0.33260 0.22930 0.65640 0.01200
C 	C 	0.44180 0.22420 0.67520 -0.14800
H 	H 	0.47020 0.21410 0.64030 0.07900
H 	H 	0.46620 0.25570 0.68910 0.11200
C 	C 	0.52240 0.13390 0.77340 -0.19200
H 	H 	0.56780 0.14440 0.75010 0.12300
H 	H 	0.53830 0.08340 0.79620 0.08700
C 	C 	0.49920 0.18550 0.81270 0.07700
H 	H 	0.53460 0.16910 0.84380 0.04100
H 	H 	0.44640 0.18640 0.82870 0.02600
C 	C 	0.73910 0.56030 0.72330 0.04900
H 	H 	0.76600 0.59590 0.72810 0.02000
H 	H 	0.71570 0.54140 0.76020 0.00800
C 	C 	0.79860 0.49690 0.70550 -0.42800
H 	H 	0.83450 0.47170 0.73540 0.14000
H 	H 	0.77260 0.46260 0.69820 0.15200
H 	H 	0.82700 0.51560 0.67140 0.14800
C 	C 	0.45900 0.74620 0.83790 0.04200
H 	H 	0.48500 0.69530 0.85590 0.01500
H 	H 	0.49430 0.77690 0.83770 0.03200
C 	C 	0.38590 0.77170 0.87260 -0.42700
H 	H 	0.39940 0.76950 0.91040 0.15700
H 	H 	0.35970 0.82200 0.85490 0.15600
H 	H 	0.35180 0.73990 0.87470 0.14200
C 	C 	0.37550 0.51520 0.90940 0.01200
H 	H 	0.37640 0.46670 0.93410 0.03300
H 	H 	0.42850 0.52110 0.90580 0.02300
C 	C 	0.32320 0.57410 0.93760 -0.38200
H 	H 	0.33910 0.56580 0.97590 0.12800
H 	H 	0.32750 0.62240 0.91630 0.12700
H 	H 	0.26980 0.57140 0.93870 0.13000
C 	C 	0.64530 0.34290 0.79640 0.08800
H 	H 	0.63730 0.37740 0.82100 -0.00200
H 	H 	0.69460 0.34370 0.77470 -0.00500
C 	C 	0.65120 0.26650 0.83270 -0.48200
H 	H 	0.60300 0.26540 0.85480 0.18300
H 	H 	0.66090 0.23170 0.80880 0.17400
H 	H 	0.69360 0.25330 0.85800 0.16100
Ag	Ag	0.33030 0.13740 0.81310 0.38300
Ag	Ag	0.51780 0.87780 0.43660 0.54600
Ag	Ag	0.16760 0.36040 0.71070 0.31500
S 	S 	0.44710 0.88090 0.53400 -0.04300
F 	F 	0.33400 0.83200 0.35000 -0.33800
F 	F 	0.30900 0.76050 0.43300 -0.29000
F 	F 	0.24960 0.87900 0.39700 -0.26700
Ag	Ag	0.16929 0.35854 0.67771 0.28600
S 	S 	0.51318 0.91568 0.54315 -0.06900
Ag	Ag	0.32645 0.13765 0.78352 0.24800
Ag	Ag	0.52539 0.89739 0.44242 -0.00500
F 	F 	0.28150 0.88800 0.36920 -0.28600
F 	F 	0.35430 0.77180 0.38500 -0.35500
F 	F 	0.26390 0.81160 0.44550 -0.36100
