data_crystal

_cell_length_a 51.42250
_cell_length_b 51.44100
_cell_length_c 191.66200
_cell_angle_alpha 90.05430
_cell_angle_beta  89.92830
_cell_angle_gamma 120.05100

_symmetry_space_group_name_	'P 1'
_symmetry_space_group_name_H-M	'P 1'

loop_
_symmetry_equiv_pos_as_xyz
  x,y,z

loop_
_atom_site_label
_atom_site_type_symbol
_atom_site_fract_x
_atom_site_fract_y
_atom_site_fract_z
_atom_site_charge
Zn	Zn	0.27576 0.41557 0.17185 1.27000
Zn	Zn	0.94243 0.74890 0.50518 1.27000
Zn	Zn	0.60909 0.08223 0.83851 1.27000
Zn	Zn	0.31036 0.46818 0.16360 1.26700
Zn	Zn	0.97703 0.80152 0.49693 1.26700
Zn	Zn	0.64369 0.13485 0.83027 1.26700
Zn	Zn	0.27327 0.41050 0.15675 1.26200
Zn	Zn	0.93994 0.74384 0.49009 1.26200
Zn	Zn	0.60661 0.07717 0.82342 1.26200
Zn	Zn	0.24551 0.43998 0.16395 1.26700
Zn	Zn	0.91217 0.77332 0.49729 1.26800
Zn	Zn	0.57884 0.10665 0.83062 1.26800
O 	O 	0.27621 0.43353 0.16400 -1.07500
O 	O 	0.94287 0.76686 0.49733 -1.07500
O 	O 	0.60954 0.10020 0.83067 -1.07500
O 	O 	0.30638 0.43637 0.17726 -0.54600
O 	O 	0.97305 0.76970 0.51059 -0.54500
O 	O 	0.63972 0.10304 0.84393 -0.54500
O 	O 	0.33225 0.47137 0.15635 -0.54200
O 	O 	0.99892 0.80470 0.48968 -0.54200
O 	O 	0.66558 0.13804 0.82302 -0.54100
O 	O 	0.27264 0.37706 0.15918 -0.53500
O 	O 	0.93930 0.71039 0.49252 -0.53500
O 	O 	0.60597 0.04373 0.82585 -0.53500
O 	O 	0.33380 0.47660 0.17094 -0.53700
O 	O 	0.00046 0.80993 0.50427 -0.53700
O 	O 	0.66713 0.14326 0.83760 -0.53700
O 	O 	0.27523 0.38205 0.17061 -0.54800
O 	O 	0.94190 0.71538 0.50395 -0.54800
O 	O 	0.60856 0.04872 0.83728 -0.54800
O 	O 	0.30365 0.42844 0.15095 -0.53900
O 	O 	0.97032 0.76177 0.48428 -0.53900
O 	O 	0.63698 0.09510 0.81761 -0.53800
O 	O 	0.24085 0.39932 0.15155 -0.53100
O 	O 	0.90751 0.73266 0.48488 -0.53100
O 	O 	0.57418 0.06599 0.81822 -0.53100
O 	O 	0.22221 0.42593 0.17125 -0.54200
O 	O 	0.88888 0.75927 0.50459 -0.54300
O 	O 	0.55555 0.09260 0.83792 -0.54300
O 	O 	0.22084 0.42263 0.15706 -0.54400
O 	O 	0.88751 0.75596 0.49040 -0.54300
O 	O 	0.55417 0.08930 0.82373 -0.54300
O 	O 	0.24491 0.40637 0.17714 -0.54500
O 	O 	0.91158 0.73971 0.51047 -0.54500
O 	O 	0.57825 0.07304 0.84380 -0.54500
O 	O 	0.30510 0.49893 0.16295 -0.54500
O 	O 	0.97177 0.83226 0.49628 -0.54500
O 	O 	0.63843 0.16559 0.82962 -0.54500
O 	O 	0.25588 0.47794 0.16341 -0.53900
O 	O 	0.92255 0.81127 0.49674 -0.53900
O 	O 	0.58922 0.14460 0.83008 -0.54000
C 	C 	0.22024 0.40584 0.15219 0.42000
C 	C 	0.88691 0.73917 0.48552 0.42000
C 	C 	0.55357 0.07250 0.81885 0.41900
C 	C 	0.28166 0.50101 0.16296 0.42600
C 	C 	0.94833 0.83434 0.49629 0.42600
C 	C 	0.61499 0.16768 0.82963 0.42700
C 	C 	0.22362 0.41166 0.17646 0.42700
C 	C 	0.89028 0.74500 0.50979 0.42800
C 	C 	0.55695 0.07833 0.84312 0.42800
C 	C 	0.32956 0.46177 0.17649 0.42500
C 	C 	0.99623 0.79511 0.50983 0.42500
C 	C 	0.66289 0.12844 0.84316 0.42400
C 	C 	0.27389 0.36751 0.16519 0.42400
C 	C 	0.94056 0.70084 0.49853 0.42400
C 	C 	0.60723 0.03418 0.83186 0.42400
C 	C 	0.32731 0.45389 0.15125 0.42300
C 	C 	0.99398 0.78722 0.48459 0.42400
C 	C 	0.66065 0.12055 0.81792 0.42200
C 	C 	0.14390 0.33416 0.05224 0.04900
C 	C 	0.81057 0.66749 0.38557 0.04900
C 	C 	0.47724 0.00082 0.71891 0.04900
C 	C 	0.10268 0.33074 0.04536 0.04800
C 	C 	0.76934 0.66407 0.37870 0.04800
C 	C 	0.43601 0.99741 0.71203 0.04800
C 	C 	0.10144 0.33317 0.05800 0.04900
C 	C 	0.76811 0.66650 0.39133 0.04900
C 	C 	0.43478 0.99984 0.72466 0.04900
C 	C 	0.13064 0.33221 0.04572 -0.08600
C 	C 	0.79730 0.66554 0.37906 -0.08500
C 	C 	0.46397 0.99888 0.71239 -0.08600
H 	H 	0.14178 0.33146 0.04099 0.05500
H 	H 	0.80845 0.66479 0.37432 0.05500
H 	H 	0.47511 0.99812 0.70766 0.05500
C 	C 	0.08811 0.33122 0.05151 -0.08500
C 	C 	0.75478 0.66455 0.38485 -0.08600
C 	C 	0.42144 0.99788 0.71818 -0.08500
H 	H 	0.06628 0.32958 0.05126 0.05500
H 	H 	0.73295 0.66291 0.38459 0.05500
H 	H 	0.39961 0.99625 0.71792 0.05500
C 	C 	0.12931 0.33471 0.05835 -0.08600
C 	C 	0.79598 0.66804 0.39168 -0.08600
C 	C 	0.46264 0.00138 0.72501 -0.08500
H 	H 	0.13942 0.33582 0.06338 0.05500
H 	H 	0.80608 0.66915 0.39672 0.05500
H 	H 	0.47275 0.00249 0.73005 0.05500
C 	C 	0.23988 0.33563 0.04866 -0.08200
C 	C 	0.90654 0.66896 0.38199 -0.08200
C 	C 	0.57321 0.00229 0.71533 -0.08200
C 	C 	0.26668 0.33535 0.04954 0.04000
C 	C 	0.93335 0.66869 0.38287 0.04000
C 	C 	0.60001 0.00202 0.71621 0.04000
C 	C 	0.27694 0.33385 0.05627 -0.13600
C 	C 	0.94361 0.66718 0.38960 -0.13600
C 	C 	0.61027 0.00051 0.72294 -0.13500
C 	C 	0.25966 0.33262 0.06209 0.04000
C 	C 	0.92632 0.66596 0.39543 0.04000
C 	C 	0.59299 0.99929 0.72876 0.03900
C 	C 	0.23277 0.33290 0.06119 -0.08200
C 	C 	0.89944 0.66624 0.39452 -0.08200
C 	C 	0.56610 0.99957 0.72785 -0.08200
C 	C 	0.22290 0.33442 0.05447 0.04800
C 	C 	0.88956 0.66776 0.38780 0.04800
C 	C 	0.55623 0.00109 0.72114 0.04800
H 	H 	0.27952 0.33635 0.04495 0.03500
H 	H 	0.94619 0.66968 0.37829 0.03500
H 	H 	0.61285 0.00302 0.71162 0.03500
H 	H 	0.26704 0.33149 0.06733 0.03300
H 	H 	0.93371 0.66482 0.40066 0.03300
H 	H 	0.60038 0.99815 0.73399 0.03300
H 	H 	0.23234 0.33678 0.04345 0.05200
H 	H 	0.89901 0.67011 0.37678 0.05200
H 	H 	0.56568 0.00344 0.71012 0.05200
H 	H 	0.21964 0.33194 0.06571 0.05200
H 	H 	0.88631 0.66527 0.39904 0.05200
H 	H 	0.55297 0.99860 0.73237 0.05200
C 	C 	0.06915 0.31691 0.08222 -0.08200
C 	C 	0.73581 0.65024 0.41555 -0.08200
C 	C 	0.40248 0.98357 0.74888 -0.08200
C 	C 	0.05459 0.31206 0.08864 0.04000
C 	C 	0.72126 0.64539 0.42198 0.04000
C 	C 	0.38792 0.97872 0.75531 0.04100
C 	C 	0.03025 0.31713 0.08943 -0.13600
C 	C 	0.69692 0.65046 0.42276 -0.13600
C 	C 	0.36359 0.98379 0.75610 -0.13600
C 	C 	0.02130 0.32781 0.08367 0.04000
C 	C 	0.68797 0.66114 0.41700 0.04000
C 	C 	0.35464 0.99448 0.75034 0.04100
C 	C 	0.03594 0.33261 0.07724 -0.08100
C 	C 	0.70260 0.66594 0.41057 -0.08100
C 	C 	0.36927 0.99928 0.74391 -0.08200
C 	C 	0.05968 0.32690 0.07650 0.04900
C 	C 	0.72635 0.66024 0.40983 0.04900
C 	C 	0.39302 0.99357 0.74317 0.05000
H 	H 	0.06196 0.30383 0.09298 0.03500
H 	H 	0.72862 0.63717 0.42632 0.03500
H 	H 	0.39529 0.97050 0.75965 0.03500
H 	H 	0.00262 0.33189 0.08413 0.03400
H 	H 	0.66929 0.66522 0.41747 0.03400
H 	H 	0.33596 0.99856 0.75080 0.03400
H 	H 	0.08751 0.31241 0.08166 0.05300
H 	H 	0.75418 0.64575 0.41500 0.05300
H 	H 	0.42085 0.97908 0.74833 0.05300
H 	H 	0.02850 0.34033 0.07282 0.05300
H 	H 	0.69517 0.67366 0.40616 0.05300
H 	H 	0.36184 0.00699 0.73949 0.05300
C 	C 	0.06168 0.30807 0.02113 -0.08000
C 	C 	0.72835 0.64140 0.35447 -0.08000
C 	C 	0.39502 0.97473 0.68780 -0.08000
C 	C 	0.04262 0.30165 0.01537 0.04000
C 	C 	0.70928 0.63499 0.34871 0.04000
C 	C 	0.37595 0.96832 0.68204 0.04000
C 	C 	0.01831 0.30703 0.01568 -0.13300
C 	C 	0.68498 0.64036 0.34901 -0.13300
C 	C 	0.35164 0.97369 0.68234 -0.13300
C 	C 	0.01417 0.31982 0.02178 0.04000
C 	C 	0.68084 0.65315 0.35512 0.04000
C 	C 	0.34751 0.98648 0.68845 0.04100
C 	C 	0.03327 0.32624 0.02750 -0.08000
C 	C 	0.69994 0.65958 0.36083 -0.08000
C 	C 	0.36661 0.99291 0.69417 -0.08100
C 	C 	0.05681 0.32005 0.02723 0.04800
C 	C 	0.72348 0.65339 0.36056 0.04800
C 	C 	0.39014 0.98672 0.69390 0.04800
H 	H 	0.04629 0.29177 0.01074 0.03400
H 	H 	0.71295 0.62510 0.34408 0.03400
H 	H 	0.37962 0.95844 0.67741 0.03400
H 	H 	0.99566 0.32419 0.02218 0.03600
H 	H 	0.66233 0.65752 0.35551 0.03600
H 	H 	0.32899 0.99085 0.68884 0.03600
H 	H 	0.07981 0.30310 0.02090 0.05300
H 	H 	0.74647 0.63643 0.35423 0.05300
H 	H 	0.41314 0.96977 0.68756 0.05300
H 	H 	0.02930 0.33543 0.03221 0.05300
H 	H 	0.69596 0.66876 0.36554 0.05300
H 	H 	0.36263 0.00209 0.69888 0.05300
C 	C 	0.19525 0.33458 0.05351 -0.02200
C 	C 	0.86192 0.66791 0.38685 -0.02200
C 	C 	0.52858 0.00124 0.72018 -0.02200
C 	C 	0.17196 0.33453 0.05279 -0.02200
C 	C 	0.83863 0.66787 0.38613 -0.02200
C 	C 	0.50529 0.00120 0.71946 -0.02200
C 	C 	0.07381 0.33012 0.06984 -0.02200
C 	C 	0.74048 0.66346 0.40317 -0.02200
C 	C 	0.40714 0.99679 0.73651 -0.02200
C 	C 	0.08609 0.33194 0.06436 -0.02200
C 	C 	0.75276 0.66528 0.39769 -0.02200
C 	C 	0.41942 0.99861 0.73103 -0.02200
C 	C 	0.08809 0.32757 0.03875 -0.02200
C 	C 	0.75475 0.66090 0.37209 -0.02200
C 	C 	0.42142 0.99423 0.70542 -0.02200
C 	C 	0.07456 0.32442 0.03339 -0.02100
C 	C 	0.74123 0.65775 0.36672 -0.02100
C 	C 	0.40790 0.99108 0.70006 -0.02100
Zn	Zn	0.34860 0.33302 0.06548 1.26400
Zn	Zn	0.01526 0.66636 0.39882 1.26400
Zn	Zn	0.68193 0.99969 0.73215 1.26400
Zn	Zn	0.35341 0.33505 0.05047 1.27100
Zn	Zn	0.02008 0.66838 0.38380 1.27100
Zn	Zn	0.68675 0.00172 0.71713 1.27100
Zn	Zn	0.40615 0.37059 0.05861 1.26800
Zn	Zn	0.07281 0.70392 0.39194 1.26800
Zn	Zn	0.73948 0.03725 0.72527 1.26800
Zn	Zn	0.37910 0.30596 0.05836 1.26800
Zn	Zn	0.04577 0.63929 0.39169 1.26800
Zn	Zn	0.71244 0.97263 0.72502 1.26800
O 	O 	0.37181 0.33614 0.05827 -1.07600
O 	O 	0.03848 0.66947 0.39160 -1.07500
O 	O 	0.70515 0.00280 0.72494 -1.07500
O 	O 	0.31509 0.33231 0.06309 -0.53500
O 	O 	0.98176 0.66564 0.39642 -0.53600
O 	O 	0.64842 0.99898 0.72976 -0.53500
O 	O 	0.37415 0.36509 0.04486 -0.54200
O 	O 	0.04082 0.69842 0.37819 -0.54200
O 	O 	0.70748 0.03175 0.71153 -0.54300
O 	O 	0.40898 0.39248 0.06582 -0.54200
O 	O 	0.07565 0.72581 0.39915 -0.54100
O 	O 	0.74231 0.05914 0.73248 -0.54100
O 	O 	0.32012 0.33502 0.05168 -0.54800
O 	O 	0.98679 0.66835 0.38501 -0.54700
O 	O 	0.65345 0.00169 0.71834 -0.54700
O 	O 	0.36636 0.36338 0.07130 -0.53700
O 	O 	0.03303 0.69672 0.40464 -0.53700
O 	O 	0.69970 0.03005 0.73797 -0.53600
O 	O 	0.41389 0.39361 0.05124 -0.53600
O 	O 	0.08056 0.72695 0.38457 -0.53700
O 	O 	0.74723 0.06028 0.71790 -0.53700
O 	O 	0.43750 0.36619 0.05924 -0.54300
O 	O 	0.10416 0.69952 0.39257 -0.54300
O 	O 	0.77083 0.03285 0.72590 -0.54300
O 	O 	0.36292 0.28197 0.06545 -0.54000
O 	O 	0.02959 0.61531 0.39878 -0.54000
O 	O 	0.69626 0.94864 0.73211 -0.53900
O 	O 	0.41720 0.31708 0.05879 -0.54100
O 	O 	0.08387 0.65042 0.39212 -0.54100
O 	O 	0.75054 0.98375 0.72545 -0.54100
O 	O 	0.33755 0.30059 0.07063 -0.53100
O 	O 	0.00422 0.63392 0.40396 -0.53200
O 	O 	0.67088 0.96726 0.73729 -0.53100
O 	O 	0.34333 0.30337 0.04546 -0.54500
O 	O 	0.01000 0.63670 0.37879 -0.54600
O 	O 	0.67667 0.97004 0.71212 -0.54600
O 	O 	0.36501 0.28211 0.05110 -0.53800
O 	O 	0.03168 0.61544 0.38443 -0.53800
O 	O 	0.69834 0.94878 0.71777 -0.53800
C 	C 	0.44003 0.34301 0.05921 0.42800
C 	C 	0.10669 0.67634 0.39254 0.42800
C 	C 	0.77336 0.00968 0.72588 0.42900
C 	C 	0.34940 0.28257 0.04607 0.42700
C 	C 	0.01606 0.61590 0.37940 0.42700
C 	C 	0.68273 0.94924 0.71274 0.42700
C 	C 	0.34546 0.28093 0.07022 0.42000
C 	C 	0.01212 0.61427 0.40355 0.42000
C 	C 	0.67879 0.94760 0.73689 0.41900
C 	C 	0.30560 0.33373 0.05709 0.42700
C 	C 	0.97226 0.66706 0.39043 0.42700
C 	C 	0.63893 0.00040 0.72376 0.42600
C 	C 	0.39158 0.38733 0.07094 0.42400
C 	C 	0.05825 0.72066 0.40428 0.42300
C 	C 	0.72491 0.05400 0.73761 0.42300
C 	C 	0.39922 0.38871 0.04563 0.42400
C 	C 	0.06589 0.72205 0.37897 0.42400
C 	C 	0.73256 0.05538 0.71230 0.42500
C 	C 	0.44402 0.51428 0.11695 0.05000
C 	C 	0.11069 0.84761 0.45029 0.04900
C 	C 	0.77735 0.18095 0.78362 0.05000
C 	C 	0.45172 0.50609 0.10485 0.05000
C 	C 	0.11839 0.83942 0.43818 0.04900
C 	C 	0.78505 0.17275 0.77151 0.05000
C 	C 	0.48885 0.55109 0.11084 0.04900
C 	C 	0.15552 0.88442 0.44417 0.04900
C 	C 	0.82218 0.21776 0.77751 0.04900
C 	C 	0.43429 0.49664 0.11092 -0.08500
C 	C 	0.10096 0.82998 0.44425 -0.08400
C 	C 	0.76762 0.16331 0.77758 -0.08400
H 	H 	0.41318 0.47555 0.11095 0.05600
H 	H 	0.07985 0.80888 0.44428 0.05600
H 	H 	0.74652 0.14221 0.77762 0.05600
C 	C 	0.47902 0.53333 0.10480 -0.08400
C 	C 	0.14569 0.86666 0.43813 -0.08400
C 	C 	0.81236 0.19999 0.77147 -0.08400
H 	H 	0.49258 0.54061 0.10010 0.05600
H 	H 	0.15924 0.87394 0.43343 0.05600
H 	H 	0.82591 0.20728 0.76677 0.05600
C 	C 	0.47130 0.54153 0.11692 -0.08400
C 	C 	0.13797 0.87486 0.45025 -0.08400
C 	C 	0.80464 0.20819 0.78358 -0.08400
H 	H 	0.47884 0.55521 0.12159 0.05600
H 	H 	0.14551 0.88854 0.45493 0.05600
H 	H 	0.81217 0.22187 0.78826 0.05600
C 	C 	0.36431 0.45568 0.13395 -0.08100
C 	C 	0.03098 0.78902 0.46728 -0.08000
C 	C 	0.69764 0.12235 0.80061 -0.08000
C 	C 	0.34423 0.44546 0.13957 0.04000
C 	C 	0.01089 0.77879 0.47290 0.04000
C 	C 	0.67756 0.11212 0.80623 0.04000
C 	C 	0.34946 0.46385 0.14545 -0.13300
C 	C 	0.01612 0.79718 0.47879 -0.13300
C 	C 	0.68279 0.13052 0.81212 -0.13300
C 	C 	0.37554 0.49245 0.14562 0.04000
C 	C 	0.04221 0.82578 0.47896 0.04000
C 	C 	0.70887 0.15912 0.81229 0.04000
C 	C 	0.39555 0.50258 0.13999 -0.08100
C 	C 	0.06222 0.83592 0.47333 -0.08100
C 	C 	0.72888 0.16925 0.80666 -0.08000
C 	C 	0.38985 0.48432 0.13413 0.04900
C 	C 	0.05652 0.81766 0.46746 0.04800
C 	C 	0.72319 0.15099 0.80080 0.04800
H 	H 	0.32433 0.42337 0.13929 0.03400
H 	H 	0.99100 0.75670 0.47262 0.03500
H 	H 	0.65766 0.09004 0.80595 0.03500
H 	H 	0.38013 0.50711 0.15008 0.03500
H 	H 	0.04680 0.84045 0.48342 0.03500
H 	H 	0.71347 0.17378 0.81675 0.03500
H 	H 	0.35976 0.44145 0.12941 0.05300
H 	H 	0.02643 0.77478 0.46274 0.05200
H 	H 	0.69309 0.10812 0.79607 0.05300
H 	H 	0.41526 0.52480 0.14016 0.05300
H 	H 	0.08193 0.85813 0.47350 0.05300
H 	H 	0.74860 0.19147 0.80683 0.05300
C 	C 	0.57884 0.64736 0.11701 -0.08000
C 	C 	0.24551 0.98069 0.45034 -0.08100
C 	C 	0.91217 0.31402 0.78367 -0.08000
C 	C 	0.60613 0.67454 0.11706 0.03900
C 	C 	0.27280 0.00788 0.45039 0.04000
C 	C 	0.93946 0.34121 0.78373 0.03900
C 	C 	0.62357 0.68531 0.11094 -0.13200
C 	C 	0.29024 0.01865 0.44428 -0.13200
C 	C 	0.95691 0.35198 0.77761 -0.13200
C 	C 	0.61298 0.66818 0.10478 0.03900
C 	C 	0.27965 0.00151 0.43811 0.04000
C 	C 	0.94631 0.33485 0.77145 0.04000
C 	C 	0.58567 0.64100 0.10475 -0.08000
C 	C 	0.25234 0.97433 0.43808 -0.08000
C 	C 	0.91900 0.30767 0.77142 -0.08000
C 	C 	0.56856 0.63053 0.11086 0.04800
C 	C 	0.23523 0.96387 0.44419 0.04800
C 	C 	0.90189 0.29720 0.77752 0.04800
H 	H 	0.61370 0.68724 0.12188 0.03500
H 	H 	0.28037 0.02057 0.45521 0.03500
H 	H 	0.94703 0.35391 0.78855 0.03500
H 	H 	0.62592 0.67590 0.09999 0.03500
H 	H 	0.29259 0.00923 0.43333 0.03500
H 	H 	0.95925 0.34257 0.76666 0.03500
H 	H 	0.56571 0.63940 0.12176 0.05300
H 	H 	0.23238 0.97273 0.45509 0.05300
H 	H 	0.89905 0.30606 0.78842 0.05300
H 	H 	0.57786 0.62810 0.09997 0.05300
H 	H 	0.24452 0.96143 0.43330 0.05300
H 	H 	0.91119 0.29476 0.76664 0.05300
C 	C 	0.43959 0.45655 0.08196 -0.08000
C 	C 	0.10626 0.78988 0.41529 -0.08000
C 	C 	0.77293 0.12321 0.74862 -0.08100
C 	C 	0.42960 0.43619 0.07640 0.04000
C 	C 	0.09627 0.76953 0.40973 0.04000
C 	C 	0.76293 0.10286 0.74307 0.04000
C 	C 	0.40136 0.40967 0.07669 -0.13300
C 	C 	0.06803 0.74301 0.41003 -0.13200
C 	C 	0.73470 0.07634 0.74336 -0.13300
C 	C 	0.38319 0.40433 0.08263 0.04000
C 	C 	0.04985 0.73766 0.41596 0.04000
C 	C 	0.71652 0.07100 0.74930 0.04000
C 	C 	0.39328 0.42477 0.08818 -0.08000
C 	C 	0.05995 0.75810 0.42151 -0.08000
C 	C 	0.72662 0.09144 0.75485 -0.08000
C 	C 	0.42157 0.45077 0.08787 0.04900
C 	C 	0.08824 0.78411 0.42121 0.04800
C 	C 	0.75490 0.11744 0.75454 0.04900
H 	H 	0.44410 0.44089 0.07190 0.03500
H 	H 	0.11076 0.77422 0.40523 0.03500
H 	H 	0.77743 0.10755 0.73857 0.03500
H 	H 	0.36139 0.38409 0.08300 0.03500
H 	H 	0.02805 0.71743 0.41633 0.03500
H 	H 	0.69472 0.05076 0.74967 0.03500
H 	H 	0.46154 0.47661 0.08169 0.05300
H 	H 	0.12820 0.80994 0.41503 0.05300
H 	H 	0.79487 0.14327 0.74836 0.05300
H 	H 	0.37924 0.42015 0.09276 0.05300
H 	H 	0.04591 0.75348 0.42609 0.05300
H 	H 	0.71257 0.08682 0.75942 0.05300
C 	C 	0.40964 0.49530 0.12820 -0.02100
C 	C 	0.07631 0.82863 0.46153 -0.02100
C 	C 	0.74298 0.16196 0.79486 -0.02100
C 	C 	0.42568 0.50425 0.12313 -0.02200
C 	C 	0.09235 0.83758 0.45647 -0.02200
C 	C 	0.75901 0.17091 0.78980 -0.02200
C 	C 	0.54047 0.60253 0.11082 -0.02100
C 	C 	0.20714 0.93586 0.44416 -0.02100
C 	C 	0.87381 0.26919 0.77749 -0.02100
C 	C 	0.51695 0.57908 0.11082 -0.02200
C 	C 	0.18362 0.91241 0.44415 -0.02200
C 	C 	0.85028 0.24575 0.77748 -0.02200
C 	C 	0.44153 0.48736 0.09873 -0.02200
C 	C 	0.10820 0.82069 0.43206 -0.02200
C 	C 	0.77486 0.15403 0.76540 -0.02200
C 	C 	0.43251 0.47097 0.09373 -0.02100
C 	C 	0.09918 0.80430 0.42706 -0.02100
C 	C 	0.76584 0.13763 0.76040 -0.02100
Zn	Zn	0.54211 0.93995 0.16371 1.26800
Zn	Zn	0.20878 0.27328 0.49704 1.26800
Zn	Zn	0.87545 0.60661 0.83037 1.26800
Zn	Zn	0.59515 0.95779 0.17178 1.27100
Zn	Zn	0.26182 0.29112 0.50512 1.27100
Zn	Zn	0.92848 0.62445 0.83845 1.27100
Zn	Zn	0.56937 0.90266 0.16399 1.26800
Zn	Zn	0.23603 0.23599 0.49732 1.26800
Zn	Zn	0.90270 0.56932 0.83066 1.26800
Zn	Zn	0.59956 0.95994 0.15676 1.26400
Zn	Zn	0.26623 0.29328 0.49009 1.26400
Zn	Zn	0.93290 0.62661 0.82342 1.26400
O 	O 	0.57655 0.94007 0.16402 -1.07600
O 	O 	0.24322 0.27341 0.49735 -1.07500
O 	O 	0.90989 0.60674 0.83068 -1.07500
O 	O 	0.53446 0.95539 0.17107 -0.53700
O 	O 	0.20113 0.28872 0.50440 -0.53700
O 	O 	0.86780 0.62206 0.83773 -0.53600
O 	O 	0.60563 0.93657 0.17681 -0.54500
O 	O 	0.27230 0.26990 0.51014 -0.54500
O 	O 	0.93897 0.60324 0.84348 -0.54500
O 	O 	0.53128 0.87546 0.16367 -0.54000
O 	O 	0.19794 0.20880 0.49700 -0.54100
O 	O 	0.86461 0.54213 0.83034 -0.54000
O 	O 	0.57441 0.96704 0.17740 -0.54200
O 	O 	0.24107 0.30037 0.51073 -0.54300
O 	O 	0.90774 0.63371 0.84407 -0.54200
O 	O 	0.51080 0.90406 0.16315 -0.54200
O 	O 	0.17747 0.23739 0.49648 -0.54200
O 	O 	0.84413 0.57073 0.82982 -0.54200
O 	O 	0.58392 0.89342 0.17122 -0.53800
O 	O 	0.25059 0.22676 0.50456 -0.53900
O 	O 	0.91725 0.56009 0.83789 -0.53900
O 	O 	0.58528 0.89459 0.15688 -0.54000
O 	O 	0.25194 0.22792 0.49022 -0.54000
O 	O 	0.91861 0.56125 0.82355 -0.54000
O 	O 	0.58154 0.97218 0.15094 -0.53700
O 	O 	0.24820 0.30552 0.48427 -0.53700
O 	O 	0.91487 0.63885 0.81760 -0.53700
O 	O 	0.61052 0.93840 0.15163 -0.53100
O 	O 	0.27719 0.27174 0.48496 -0.53100
O 	O 	0.94386 0.60507 0.81829 -0.53100
O 	O 	0.53902 0.95868 0.15647 -0.54100
O 	O 	0.20569 0.29201 0.48980 -0.54100
O 	O 	0.87235 0.62534 0.82314 -0.54100
O 	O 	0.62827 0.99118 0.17049 -0.54700
O 	O 	0.29493 0.32452 0.50383 -0.54700
O 	O 	0.96160 0.65785 0.83716 -0.54700
O 	O 	0.63310 0.99297 0.15907 -0.53400
O 	O 	0.29977 0.32630 0.49241 -0.53500
O 	O 	0.96644 0.65963 0.82574 -0.53400
C 	C 	0.60261 0.91084 0.15207 0.42000
C 	C 	0.26927 0.24417 0.48541 0.41900
C 	C 	0.93594 0.57751 0.81874 0.41900
C 	C 	0.64267 0.00422 0.16505 0.42600
C 	C 	0.30934 0.33755 0.49838 0.42600
C 	C 	0.97600 0.67088 0.83172 0.42600
C 	C 	0.55628 0.97079 0.15132 0.42400
C 	C 	0.22295 0.30413 0.48465 0.42400
C 	C 	0.88962 0.63746 0.81798 0.42300
C 	C 	0.54923 0.96537 0.17665 0.42500
C 	C 	0.21590 0.29870 0.50998 0.42500
C 	C 	0.88257 0.63203 0.84332 0.42400
C 	C 	0.50837 0.87839 0.16325 0.42700
C 	C 	0.17503 0.21173 0.49658 0.42800
C 	C 	0.84170 0.54506 0.82991 0.42700
C 	C 	0.59968 0.90972 0.17622 0.42600
C 	C 	0.26635 0.24306 0.50955 0.42800
C 	C 	0.93302 0.57639 0.84288 0.42700
C 	C 	0.33615 0.72700 0.16153 0.05000
C 	C 	0.00282 0.06033 0.49486 0.04900
C 	C 	0.66948 0.39366 0.82820 0.05000
C 	C 	0.28221 0.70646 0.16150 0.05000
C 	C 	0.94888 0.03980 0.49484 0.05000
C 	C 	0.61555 0.37313 0.82817 0.05000
C 	C 	0.30268 0.67307 0.16139 0.05000
C 	C 	0.96935 0.00640 0.49473 0.05000
C 	C 	0.63601 0.33973 0.82806 0.05000
C 	C 	0.31133 0.73129 0.16156 -0.08500
C 	C 	0.97800 0.06462 0.49489 -0.08400
C 	C 	0.64466 0.39795 0.82822 -0.08500
H 	H 	0.31466 0.75383 0.16166 0.05600
H 	H 	0.98133 0.08716 0.49499 0.05600
H 	H 	0.64800 0.42050 0.82833 0.05600
C 	C 	0.27788 0.67736 0.16142 -0.08500
C 	C 	0.94455 0.01069 0.49475 -0.08400
C 	C 	0.61122 0.34403 0.82808 -0.08500
H 	H 	0.25532 0.65813 0.16142 0.05600
H 	H 	0.92198 0.99146 0.49475 0.05600
H 	H 	0.58865 0.32480 0.82809 0.05600
C 	C 	0.33183 0.69788 0.16144 -0.08500
C 	C 	0.99850 0.03122 0.49478 -0.08400
C 	C 	0.66516 0.36455 0.82811 -0.08500
H 	H 	0.35104 0.69455 0.16146 0.05600
H 	H 	0.01771 0.02789 0.49480 0.05600
H 	H 	0.68438 0.36122 0.82813 0.05600
C 	C 	0.42370 0.82879 0.16205 -0.08100
C 	C 	0.09036 0.16212 0.49538 -0.08100
C 	C 	0.75703 0.49545 0.82871 -0.08100
C 	C 	0.45229 0.85424 0.16238 0.04100
C 	C 	0.11895 0.18757 0.49571 0.04200
C 	C 	0.78562 0.52090 0.82905 0.04100
C 	C 	0.47805 0.85131 0.16286 -0.13500
C 	C 	0.14471 0.18465 0.49620 -0.13500
C 	C 	0.81138 0.51798 0.82953 -0.13500
C 	C 	0.47447 0.82231 0.16299 0.04100
C 	C 	0.14114 0.15564 0.49632 0.04100
C 	C 	0.80781 0.48898 0.82965 0.04100
C 	C 	0.44580 0.79689 0.16265 -0.08100
C 	C 	0.11246 0.13022 0.49598 -0.08100
C 	C 	0.77913 0.46356 0.82932 -0.08100
C 	C 	0.42041 0.80012 0.16218 0.04900
C 	C 	0.08708 0.13345 0.49552 0.04900
C 	C 	0.75375 0.46679 0.82885 0.04900
H 	H 	0.45437 0.87629 0.16228 0.03500
H 	H 	0.12104 0.20962 0.49561 0.03500
H 	H 	0.78770 0.54295 0.82894 0.03500
H 	H 	0.49392 0.81942 0.16336 0.03400
H 	H 	0.16059 0.15275 0.49669 0.03400
H 	H 	0.82725 0.48609 0.83002 0.03400
H 	H 	0.40409 0.83140 0.16169 0.05300
H 	H 	0.07076 0.16473 0.49503 0.05300
H 	H 	0.73743 0.49807 0.82836 0.05300
H 	H 	0.44336 0.77471 0.16277 0.05300
H 	H 	0.11002 0.10805 0.49610 0.05300
H 	H 	0.77669 0.44138 0.82943 0.05300
C 	C 	0.31655 0.58550 0.16159 -0.08100
C 	C 	0.98321 0.91884 0.49493 -0.08100
C 	C 	0.64988 0.25217 0.82826 -0.08100
C 	C 	0.31342 0.55696 0.16194 0.04200
C 	C 	0.98008 0.89030 0.49527 0.04200
C 	C 	0.64675 0.22363 0.82860 0.04200
C 	C 	0.28473 0.53119 0.16248 -0.13500
C 	C 	0.95139 0.86453 0.49581 -0.13500
C 	C 	0.61806 0.19786 0.82914 -0.13500
C 	C 	0.25925 0.53469 0.16261 0.04100
C 	C 	0.92592 0.86802 0.49595 0.04100
C 	C 	0.59258 0.20135 0.82928 0.04100
C 	C 	0.26250 0.56334 0.16227 -0.08100
C 	C 	0.92917 0.89668 0.49560 -0.08100
C 	C 	0.59583 0.23001 0.82894 -0.08100
C 	C 	0.29115 0.58874 0.16178 0.04900
C 	C 	0.95782 0.92207 0.49511 0.04900
C 	C 	0.62448 0.25541 0.82844 0.04900
H 	H 	0.33343 0.55495 0.16182 0.03500
H 	H 	0.00009 0.88828 0.49515 0.03500
H 	H 	0.66676 0.22161 0.82848 0.03500
H 	H 	0.23691 0.51521 0.16302 0.03500
H 	H 	0.90358 0.84855 0.49636 0.03500
H 	H 	0.57024 0.18188 0.82969 0.03500
H 	H 	0.33878 0.60511 0.16122 0.05300
H 	H 	0.00545 0.93845 0.49455 0.05300
H 	H 	0.67211 0.27178 0.82788 0.05300
H 	H 	0.24275 0.56576 0.16242 0.05300
H 	H 	0.90942 0.89910 0.49575 0.05300
H 	H 	0.57608 0.23243 0.82909 0.05300
C 	C 	0.18034 0.69163 0.16195 -0.08200
C 	C 	0.84701 0.02496 0.49529 -0.08200
C 	C 	0.51367 0.35830 0.82862 -0.08200
C 	C 	0.15478 0.69454 0.16231 0.04200
C 	C 	0.82145 0.02787 0.49564 0.04200
C 	C 	0.48812 0.36120 0.82897 0.04200
C 	C 	0.15754 0.72313 0.16285 -0.13600
C 	C 	0.82421 0.05646 0.49618 -0.13600
C 	C 	0.49087 0.38979 0.82951 -0.13600
C 	C 	0.18647 0.74871 0.16300 0.04200
C 	C 	0.85314 0.08205 0.49634 0.04200
C 	C 	0.51981 0.41538 0.82967 0.04200
C 	C 	0.21200 0.74569 0.16265 -0.08200
C 	C 	0.87867 0.07903 0.49598 -0.08200
C 	C 	0.54534 0.41236 0.82932 -0.08200
C 	C 	0.20893 0.71716 0.16213 0.04900
C 	C 	0.87560 0.05050 0.49546 0.05000
C 	C 	0.54227 0.38383 0.82880 0.04900
H 	H 	0.13278 0.67446 0.16217 0.03500
H 	H 	0.79945 0.00780 0.49551 0.03500
H 	H 	0.46612 0.34113 0.82884 0.03500
H 	H 	0.18923 0.77099 0.16342 0.03400
H 	H 	0.85589 0.10432 0.49675 0.03400
H 	H 	0.52256 0.43765 0.83008 0.03400
H 	H 	0.17787 0.66948 0.16156 0.05300
H 	H 	0.84453 0.00282 0.49489 0.05300
H 	H 	0.51120 0.33615 0.82822 0.05300
H 	H 	0.23413 0.76554 0.16280 0.05300
H 	H 	0.90080 0.09887 0.49613 0.05300
H 	H 	0.56747 0.43220 0.82946 0.05300
C 	C 	0.39091 0.77409 0.16191 -0.02200
C 	C 	0.05757 0.10742 0.49524 -0.02200
C 	C 	0.72424 0.44075 0.82857 -0.02200
C 	C 	0.36601 0.75251 0.16171 -0.02200
C 	C 	0.03268 0.08584 0.49505 -0.02200
C 	C 	0.69934 0.41917 0.82838 -0.02200
C 	C 	0.29472 0.61825 0.16157 -0.02200
C 	C 	0.96139 0.95159 0.49490 -0.02200
C 	C 	0.62806 0.28492 0.82823 -0.02200
C 	C 	0.29822 0.64320 0.16145 -0.02200
C 	C 	0.96488 0.97653 0.49479 -0.02200
C 	C 	0.63155 0.30986 0.82812 -0.02200
C 	C 	0.25670 0.71074 0.16167 -0.02200
C 	C 	0.92337 0.04408 0.49500 -0.02200
C 	C 	0.59003 0.37741 0.82833 -0.02200
C 	C 	0.23506 0.71392 0.16186 -0.02200
C 	C 	0.90173 0.04726 0.49519 -0.02200
C 	C 	0.56840 0.38059 0.82852 -0.02200
C 	C 	0.47522 0.57237 0.21921 0.05000
C 	C 	0.14188 0.90570 0.55254 0.05000
C 	C 	0.80855 0.23903 0.88588 0.05000
C 	C 	0.43256 0.53092 0.22493 0.05000
C 	C 	0.09923 0.86426 0.55827 0.05000
C 	C 	0.76590 0.19759 0.89160 0.05000
C 	C 	0.43405 0.53459 0.21230 0.04900
C 	C 	0.10072 0.86792 0.54563 0.04900
C 	C 	0.76739 0.20125 0.87897 0.05000
C 	C 	0.46048 0.55724 0.22531 -0.08500
C 	C 	0.12715 0.89058 0.55864 -0.08500
C 	C 	0.79382 0.22391 0.89197 -0.08500
H 	H 	0.47054 0.56622 0.23035 0.05600
H 	H 	0.13721 0.89955 0.56368 0.05600
H 	H 	0.80387 0.23289 0.89702 0.05600
C 	C 	0.41933 0.51956 0.21843 -0.08400
C 	C 	0.08600 0.85289 0.55177 -0.08400
C 	C 	0.75267 0.18622 0.88510 -0.08500
H 	H 	0.39749 0.49935 0.21816 0.05600
H 	H 	0.06416 0.83269 0.55149 0.05600
H 	H 	0.73083 0.16602 0.88482 0.05600
C 	C 	0.46205 0.56104 0.21269 -0.08400
C 	C 	0.12872 0.89438 0.54602 -0.08400
C 	C 	0.79538 0.22771 0.87935 -0.08500
H 	H 	0.47333 0.57290 0.20796 0.05600
H 	H 	0.13999 0.90623 0.54129 0.05600
H 	H 	0.80666 0.23956 0.87463 0.05600
C 	C 	0.56508 0.66239 0.22800 -0.08000
C 	C 	0.23174 0.99572 0.56133 -0.08100
C 	C 	0.89841 0.32906 0.89467 -0.08100
C 	C 	0.59224 0.68940 0.22883 0.04000
C 	C 	0.25890 0.02273 0.56216 0.04100
C 	C 	0.92557 0.35606 0.89549 0.04100
C 	C 	0.60933 0.70511 0.22295 -0.13300
C 	C 	0.27600 0.03845 0.55628 -0.13400
C 	C 	0.94266 0.37178 0.88962 -0.13400
C 	C 	0.59857 0.69320 0.21625 0.04100
C 	C 	0.26524 0.02654 0.54959 0.04100
C 	C 	0.93190 0.35987 0.88292 0.04100
C 	C 	0.57149 0.66628 0.21545 -0.08100
C 	C 	0.23815 0.99961 0.54879 -0.08100
C 	C 	0.90482 0.33295 0.88212 -0.08100
C 	C 	0.55472 0.65082 0.22131 0.04900
C 	C 	0.22139 0.98415 0.55465 0.04900
C 	C 	0.88806 0.31749 0.88798 0.04900
H 	H 	0.59999 0.69805 0.23403 0.03400
H 	H 	0.26666 0.03139 0.56737 0.03400
H 	H 	0.93333 0.36472 0.90070 0.03400
H 	H 	0.61124 0.70480 0.21163 0.03600
H 	H 	0.27790 0.03814 0.54496 0.03600
H 	H 	0.94457 0.37147 0.87829 0.03600
H 	H 	0.55212 0.65048 0.23256 0.05300
H 	H 	0.21879 0.98382 0.56590 0.05300
H 	H 	0.88545 0.31715 0.89923 0.05300
H 	H 	0.56358 0.65746 0.21027 0.05300
H 	H 	0.23025 0.99080 0.54360 0.05300
H 	H 	0.89691 0.32413 0.87693 0.05300
C 	C 	0.39415 0.51690 0.18798 -0.08000
C 	C 	0.06082 0.85024 0.52131 -0.08000
C 	C 	0.72749 0.18357 0.85465 -0.08000
C 	C 	0.37546 0.50437 0.18215 0.04000
C 	C 	0.04213 0.83770 0.51549 0.04000
C 	C 	0.70879 0.17104 0.84882 0.04000
C 	C 	0.35143 0.47451 0.18234 -0.13300
C 	C 	0.01809 0.80784 0.51567 -0.13400
C 	C 	0.68476 0.14117 0.84900 -0.13300
C 	C 	0.34723 0.45726 0.18838 0.04000
C 	C 	0.01390 0.79060 0.52172 0.04000
C 	C 	0.68057 0.12393 0.85505 0.04000
C 	C 	0.36596 0.46981 0.19417 -0.08100
C 	C 	0.03263 0.80314 0.52750 -0.08100
C 	C 	0.69929 0.13647 0.86083 -0.08000
C 	C 	0.38918 0.49972 0.19402 0.04800
C 	C 	0.05585 0.83305 0.52736 0.04800
C 	C 	0.72251 0.16639 0.86069 0.04800
H 	H 	0.37916 0.51817 0.17757 0.03400
H 	H 	0.04583 0.85150 0.51091 0.03400
H 	H 	0.71250 0.18483 0.84424 0.03400
H 	H 	0.32894 0.43422 0.18868 0.03500
H 	H 	0.99560 0.76755 0.52202 0.03500
H 	H 	0.66227 0.10089 0.85535 0.03500
H 	H 	0.41204 0.54014 0.18784 0.05300
H 	H 	0.07871 0.87347 0.52118 0.05300
H 	H 	0.74537 0.20680 0.85451 0.05300
H 	H 	0.36191 0.45639 0.19883 0.05300
H 	H 	0.02858 0.78973 0.53216 0.05300
H 	H 	0.69524 0.12306 0.86550 0.05300
C 	C 	0.36668 0.46578 0.24413 -0.08100
C 	C 	0.03335 0.79912 0.57747 -0.08100
C 	C 	0.70002 0.13245 0.91080 -0.08100
C 	C 	0.35221 0.45585 0.25058 0.04100
C 	C 	0.01888 0.78918 0.58391 0.04000
C 	C 	0.68555 0.12251 0.91725 0.04100
C 	C 	0.36164 0.47527 0.25639 -0.13400
C 	C 	0.02830 0.80861 0.58972 -0.13300
C 	C 	0.69497 0.14194 0.92306 -0.13400
C 	C 	0.38623 0.50458 0.25563 0.04100
C 	C 	0.05289 0.83792 0.58896 0.04100
C 	C 	0.71956 0.17125 0.92230 0.04100
C 	C 	0.40061 0.51439 0.24919 -0.08100
C 	C 	0.06728 0.84772 0.58252 -0.08100
C 	C 	0.73395 0.18105 0.91585 -0.08100
C 	C 	0.39073 0.49513 0.24342 0.04900
C 	C 	0.05739 0.82847 0.57676 0.04900
C 	C 	0.72406 0.16180 0.91009 0.04900
H 	H 	0.33331 0.43318 0.25102 0.03500
H 	H 	0.99998 0.76651 0.58435 0.03500
H 	H 	0.66664 0.09985 0.91769 0.03500
H 	H 	0.39396 0.52003 0.26001 0.03500
H 	H 	0.06062 0.85336 0.59334 0.03500
H 	H 	0.72729 0.18669 0.92667 0.03500
H 	H 	0.35891 0.45079 0.23968 0.05300
H 	H 	0.02558 0.78412 0.57301 0.05300
H 	H 	0.69224 0.11745 0.90635 0.05300
H 	H 	0.41921 0.53716 0.24866 0.05300
H 	H 	0.08587 0.87050 0.58200 0.05300
H 	H 	0.75254 0.20383 0.91533 0.05300
C 	C 	0.52685 0.62313 0.22044 -0.02100
C 	C 	0.19351 0.95646 0.55377 -0.02200
C 	C 	0.86018 0.28980 0.88711 -0.02100
C 	C 	0.50340 0.59996 0.21977 -0.02200
C 	C 	0.17007 0.93330 0.55310 -0.02200
C 	C 	0.83674 0.26663 0.88643 -0.02200
C 	C 	0.40648 0.51294 0.20025 -0.02100
C 	C 	0.07315 0.84627 0.53359 -0.02100
C 	C 	0.73982 0.17960 0.86692 -0.02100
C 	C 	0.41969 0.52319 0.20566 -0.02200
C 	C 	0.08635 0.85653 0.53899 -0.02200
C 	C 	0.75302 0.18986 0.87233 -0.02200
C 	C 	0.41712 0.51671 0.23129 -0.02200
C 	C 	0.08379 0.85004 0.56462 -0.02200
C 	C 	0.75045 0.18338 0.89795 -0.02200
C 	C 	0.40481 0.50615 0.23676 -0.02200
C 	C 	0.07148 0.83949 0.57009 -0.02100
C 	C 	0.73815 0.17282 0.90343 -0.02200
Zn	Zn	0.68189 0.77742 0.23202 1.26400
Zn	Zn	0.34856 0.11075 0.56535 1.26300
Zn	Zn	0.01523 0.44408 0.89868 1.26400
Zn	Zn	0.73938 0.79777 0.22510 1.26700
Zn	Zn	0.40605 0.13111 0.55843 1.26800
Zn	Zn	0.07272 0.46444 0.89176 1.26800
Zn	Zn	0.68647 0.77932 0.21692 1.27100
Zn	Zn	0.35314 0.11265 0.55025 1.27100
Zn	Zn	0.01980 0.44598 0.88358 1.27100
Zn	Zn	0.71122 0.83441 0.22471 1.26800
Zn	Zn	0.37788 0.16774 0.55805 1.26800
Zn	Zn	0.04455 0.50108 0.89138 1.26800
O 	O 	0.70472 0.79723 0.22472 -1.07400
O 	O 	0.37138 0.13056 0.55805 -1.07400
O 	O 	0.03805 0.46389 0.89139 -1.07400
O 	O 	0.69982 0.76499 0.23780 -0.53800
O 	O 	0.36649 0.09832 0.57113 -0.53800
O 	O 	0.03316 0.43165 0.90446 -0.53800
O 	O 	0.74746 0.78226 0.21779 -0.53600
O 	O 	0.41412 0.11560 0.55113 -0.53600
O 	O 	0.08079 0.44893 0.88446 -0.53600
O 	O 	0.65274 0.74653 0.21823 -0.54600
O 	O 	0.31940 0.07986 0.55156 -0.54600
O 	O 	0.98607 0.41319 0.88490 -0.54600
O 	O 	0.74273 0.77935 0.23238 -0.54100
O 	O 	0.40940 0.11268 0.56571 -0.54100
O 	O 	0.07607 0.44602 0.89904 -0.54000
O 	O 	0.64820 0.74468 0.22967 -0.53400
O 	O 	0.31487 0.07801 0.56300 -0.53400
O 	O 	0.98153 0.41134 0.89634 -0.53400
O 	O 	0.70697 0.76894 0.21153 -0.54300
O 	O 	0.37364 0.10227 0.54487 -0.54400
O 	O 	0.04030 0.43560 0.87820 -0.54400
O 	O 	0.67745 0.80088 0.21156 -0.54300
O 	O 	0.34412 0.13422 0.54489 -0.54300
O 	O 	0.01079 0.46755 0.87823 -0.54300
O 	O 	0.69408 0.84202 0.23162 -0.54200
O 	O 	0.36075 0.17535 0.56496 -0.54200
O 	O 	0.02741 0.50868 0.89829 -0.54200
O 	O 	0.69702 0.84333 0.21740 -0.54100
O 	O 	0.36368 0.17667 0.55073 -0.54100
O 	O 	0.03035 0.51000 0.88407 -0.54100
O 	O 	0.67109 0.79891 0.23722 -0.53100
O 	O 	0.33775 0.13224 0.57056 -0.53100
O 	O 	0.00442 0.46558 0.90389 -0.53100
O 	O 	0.77022 0.83386 0.22565 -0.54400
O 	O 	0.43688 0.16719 0.55898 -0.54400
O 	O 	0.10355 0.50052 0.89232 -0.54300
O 	O 	0.74924 0.86205 0.22518 -0.53800
O 	O 	0.41591 0.19539 0.55852 -0.53800
O 	O 	0.08257 0.52872 0.89185 -0.53800
C 	C 	0.68277 0.82750 0.21220 0.42800
C 	C 	0.34944 0.16084 0.54554 0.42800
C 	C 	0.01610 0.49417 0.87887 0.42800
C 	C 	0.77233 0.85939 0.22560 0.42700
C 	C 	0.43900 0.19272 0.55894 0.42700
C 	C 	0.10566 0.52606 0.89227 0.42600
C 	C 	0.67753 0.82599 0.23655 0.42000
C 	C 	0.34420 0.15932 0.56989 0.42100
C 	C 	0.01087 0.49265 0.90322 0.42100
C 	C 	0.72527 0.76681 0.23748 0.42400
C 	C 	0.39193 0.10014 0.57081 0.42400
C 	C 	0.05860 0.43347 0.90415 0.42400
C 	C 	0.63831 0.73366 0.22369 0.42500
C 	C 	0.30498 0.06699 0.55702 0.42500
C 	C 	0.97165 0.40033 0.89036 0.42500
C 	C 	0.73239 0.77120 0.21229 0.42500
C 	C 	0.39905 0.10453 0.54562 0.42500
C 	C 	0.06572 0.43786 0.87896 0.42500
Zn	Zn	0.87457 0.36452 0.33025 1.26700
Zn	Zn	0.54124 0.69785 0.66358 1.26700
Zn	Zn	0.20790 0.03119 0.99691 1.26800
Zn	Zn	0.90309 0.43094 0.33077 1.26900
Zn	Zn	0.56975 0.76427 0.66411 1.26800
Zn	Zn	0.23642 0.09761 0.99744 1.26900
Zn	Zn	0.25864 0.06662 0.00390 1.23800
Zn	Zn	0.92531 0.39995 0.33723 1.23800
Zn	Zn	0.59198 0.73329 0.67057 1.23800
Zn	Zn	0.93347 0.40301 0.32321 1.26400
Zn	Zn	0.60014 0.73634 0.65655 1.26400
Zn	Zn	0.26681 0.06967 0.98988 1.26400
O 	O 	0.90721 0.39959 0.32952 -1.10000
O 	O 	0.57387 0.73293 0.66285 -1.10000
O 	O 	0.24054 0.06626 0.99619 -1.10000
O 	O 	0.84379 0.37025 0.32952 -0.52900
O 	O 	0.51046 0.70358 0.66286 -0.52900
O 	O 	0.17712 0.03692 0.99619 -0.52900
O 	O 	0.25071 0.12198 0.00450 -0.54200
O 	O 	0.91738 0.45532 0.33783 -0.54100
O 	O 	0.58405 0.78865 0.67117 -0.54200
O 	O 	0.23858 0.03708 0.01006 -0.53500
O 	O 	0.90525 0.37041 0.34339 -0.53500
O 	O 	0.57192 0.70375 0.67673 -0.53500
O 	O 	0.86456 0.41956 0.33046 -0.52700
O 	O 	0.53122 0.75290 0.66379 -0.52600
O 	O 	0.19789 0.08623 0.99713 -0.52700
O 	O 	0.19802 0.00714 0.00411 -0.53600
O 	O 	0.86468 0.34047 0.33744 -0.53700
O 	O 	0.53135 0.67380 0.67078 -0.53600
O 	O 	0.27098 0.09818 0.00959 -0.53400
O 	O 	0.93764 0.43151 0.34292 -0.53400
O 	O 	0.60431 0.76485 0.67626 -0.53400
O 	O 	0.29241 0.06529 0.00316 -0.53800
O 	O 	0.95908 0.39863 0.33650 -0.53700
O 	O 	0.62575 0.73196 0.66983 -0.53800
O 	O 	0.91480 0.37235 0.31739 -0.52400
O 	O 	0.58147 0.70568 0.65072 -0.52300
O 	O 	0.24814 0.03901 0.98405 -0.52300
O 	O 	0.96703 0.40330 0.32517 -0.53400
O 	O 	0.63369 0.73663 0.65850 -0.53400
O 	O 	0.30036 0.06996 0.99184 -0.53500
O 	O 	0.87245 0.34263 0.32301 -0.53000
O 	O 	0.53911 0.67597 0.65634 -0.53000
O 	O 	0.20578 0.00930 0.98968 -0.53000
O 	O 	0.92015 0.45537 0.32372 -0.52800
O 	O 	0.58682 0.78871 0.65705 -0.52800
O 	O 	0.25349 0.12204 0.99039 -0.52800
O 	O 	0.94440 0.43610 0.31819 -0.51900
O 	O 	0.61107 0.76944 0.65152 -0.51900
O 	O 	0.27774 0.10277 0.98485 -0.51900
C 	C 	0.97496 0.40065 0.33125 0.40800
C 	C 	0.64162 0.73399 0.66459 0.40800
C 	C 	0.30829 0.06732 0.99792 0.40900
C 	C 	0.93719 0.45626 0.31883 0.41400
C 	C 	0.60385 0.78959 0.65217 0.41500
C 	C 	0.27052 0.12293 0.98550 0.41400
C 	C 	0.88970 0.34816 0.31782 0.41900
C 	C 	0.55636 0.68149 0.65115 0.41800
C 	C 	0.22303 0.01483 0.98448 0.41800
C 	C 	0.84162 0.39370 0.32978 0.42000
C 	C 	0.50828 0.72703 0.66311 0.42000
C 	C 	0.17495 0.06036 0.99645 0.42000
C 	C 	0.21343 0.01316 0.00961 0.41000
C 	C 	0.88010 0.34649 0.34294 0.40900
C 	C 	0.54677 0.67983 0.67628 0.40900
C 	C 	0.26607 0.11992 0.00936 0.41200
C 	C 	0.93273 0.45325 0.34270 0.41100
C 	C 	0.59940 0.78659 0.67603 0.41200
C 	C 	0.27143 0.16492 0.17697 0.04900
C 	C 	0.93809 0.49826 0.51030 0.04900
C 	C 	0.60476 0.83159 0.84363 0.04900
C 	C 	0.27355 0.16354 0.16433 0.05000
C 	C 	0.94021 0.49688 0.49767 0.05000
C 	C 	0.60688 0.83021 0.83100 0.05000
C 	C 	0.27455 0.20600 0.17009 0.05000
C 	C 	0.94122 0.53933 0.50342 0.05000
C 	C 	0.60788 0.87266 0.83675 0.05000
C 	C 	0.27181 0.15032 0.17082 -0.08400
C 	C 	0.93847 0.48365 0.50415 -0.08500
C 	C 	0.60514 0.81699 0.83749 -0.08500
H 	H 	0.27022 0.12852 0.17108 0.05600
H 	H 	0.93688 0.46185 0.50441 0.05600
H 	H 	0.60355 0.79518 0.83775 0.05600
C 	C 	0.27500 0.19136 0.16398 -0.08500
C 	C 	0.94167 0.52469 0.49731 -0.08500
C 	C 	0.60833 0.85803 0.83065 -0.08500
H 	H 	0.27593 0.20137 0.15894 0.05600
H 	H 	0.94260 0.53471 0.49227 0.05600
H 	H 	0.60926 0.86804 0.82561 0.05600
C 	C 	0.27280 0.19283 0.17660 -0.08400
C 	C 	0.93947 0.52616 0.50994 -0.08500
C 	C 	0.60614 0.85950 0.84327 -0.08400
H 	H 	0.27211 0.20399 0.18134 0.05600
H 	H 	0.93878 0.53733 0.51467 0.05600
H 	H 	0.60544 0.87066 0.84801 0.05600
C 	C 	0.26712 0.09559 0.19482 -0.08100
C 	C 	0.93379 0.42892 0.52816 -0.08100
C 	C 	0.60045 0.76225 0.86149 -0.08100
C 	C 	0.26050 0.07634 0.20052 0.04100
C 	C 	0.92717 0.40968 0.53385 0.04100
C 	C 	0.59384 0.74301 0.86719 0.04000
C 	C 	0.24733 0.08020 0.20659 -0.13300
C 	C 	0.91400 0.41354 0.53993 -0.13300
C 	C 	0.58066 0.74687 0.87326 -0.13300
C 	C 	0.24181 0.10440 0.20689 0.04000
C 	C 	0.90847 0.43773 0.54023 0.04000
C 	C 	0.57514 0.77107 0.87356 0.04000
C 	C 	0.24840 0.12361 0.20116 -0.08100
C 	C 	0.91507 0.45694 0.53449 -0.08000
C 	C 	0.58174 0.79028 0.86782 -0.08000
C 	C 	0.26074 0.11899 0.19509 0.04900
C 	C 	0.92741 0.45232 0.52842 0.04800
C 	C 	0.59407 0.78566 0.86175 0.04800
H 	H 	0.26502 0.05793 0.20013 0.03500
H 	H 	0.93169 0.39127 0.53347 0.03500
H 	H 	0.59835 0.72460 0.86680 0.03500
H 	H 	0.23163 0.10786 0.21150 0.03400
H 	H 	0.89830 0.44119 0.54483 0.03400
H 	H 	0.56497 0.77453 0.87817 0.03400
H 	H 	0.27657 0.09181 0.19013 0.05300
H 	H 	0.94324 0.42514 0.52347 0.05300
H 	H 	0.60990 0.75847 0.85680 0.05300
H 	H 	0.24328 0.14162 0.20138 0.05300
H 	H 	0.90995 0.47496 0.53471 0.05300
H 	H 	0.57662 0.80829 0.86805 0.05300
C 	C 	0.27557 0.30173 0.17365 -0.08100
C 	C 	0.94224 0.63506 0.50698 -0.08100
C 	C 	0.60891 0.96840 0.84031 -0.08000
C 	C 	0.27528 0.32851 0.17276 0.04100
C 	C 	0.94195 0.66185 0.50609 0.04100
C 	C 	0.60861 0.99518 0.83943 0.03900
C 	C 	0.27389 0.33881 0.16603 -0.13400
C 	C 	0.94056 0.67214 0.49936 -0.13400
C 	C 	0.60723 0.00548 0.83269 -0.13200
C 	C 	0.27276 0.32156 0.16020 0.04000
C 	C 	0.93942 0.65489 0.49354 0.04100
C 	C 	0.60609 0.98823 0.82687 0.03900
C 	C 	0.27306 0.29469 0.16112 -0.08000
C 	C 	0.93972 0.62803 0.49445 -0.08100
C 	C 	0.60639 0.96136 0.82779 -0.08000
C 	C 	0.27450 0.28480 0.16784 0.04900
C 	C 	0.94117 0.61814 0.50117 0.04900
C 	C 	0.60783 0.95147 0.83451 0.04800
H 	H 	0.27618 0.34131 0.17735 0.03600
H 	H 	0.94285 0.67465 0.51068 0.03600
H 	H 	0.60952 0.00798 0.84401 0.03700
H 	H 	0.27169 0.32897 0.15497 0.03400
H 	H 	0.93836 0.66231 0.48830 0.03400
H 	H 	0.60503 0.99564 0.82164 0.03400
H 	H 	0.27665 0.29418 0.17886 0.05300
H 	H 	0.94332 0.62751 0.51219 0.05300
H 	H 	0.60999 0.96084 0.84553 0.05300
H 	H 	0.27218 0.28161 0.15660 0.05300
H 	H 	0.93884 0.61494 0.48993 0.05300
H 	H 	0.60551 0.94827 0.82327 0.05200
C 	C 	0.27179 0.09729 0.14515 -0.08100
C 	C 	0.93846 0.43062 0.47849 -0.08100
C 	C 	0.60512 0.76395 0.81182 -0.08100
C 	C 	0.26668 0.08247 0.13874 0.04100
C 	C 	0.93335 0.41580 0.47207 0.04100
C 	C 	0.60002 0.74914 0.80541 0.04100
C 	C 	0.25608 0.09150 0.13298 -0.13600
C 	C 	0.92274 0.42484 0.46632 -0.13500
C 	C 	0.58941 0.75817 0.79965 -0.13500
C 	C 	0.25135 0.11606 0.13375 0.04200
C 	C 	0.91802 0.44939 0.46708 0.04100
C 	C 	0.58469 0.78272 0.80042 0.04200
C 	C 	0.25651 0.13079 0.14016 -0.08100
C 	C 	0.92318 0.46413 0.47349 -0.08100
C 	C 	0.58984 0.79746 0.80682 -0.08200
C 	C 	0.26647 0.12129 0.14587 0.04900
C 	C 	0.93314 0.45462 0.47921 0.04900
C 	C 	0.59980 0.78795 0.81254 0.04900
H 	H 	0.27047 0.06361 0.13829 0.03400
H 	H 	0.93714 0.39694 0.47162 0.03400
H 	H 	0.60381 0.73027 0.80496 0.03400
H 	H 	0.24317 0.12347 0.12941 0.03500
H 	H 	0.90984 0.45680 0.46274 0.03500
H 	H 	0.57650 0.79014 0.79608 0.03500
H 	H 	0.27945 0.08980 0.14957 0.05300
H 	H 	0.94611 0.42314 0.48291 0.05300
H 	H 	0.61278 0.75647 0.81624 0.05300
H 	H 	0.25229 0.14934 0.14070 0.05300
H 	H 	0.91895 0.48267 0.47403 0.05300
H 	H 	0.58562 0.81600 0.80736 0.05300
C 	C 	0.26517 0.13681 0.18894 -0.02100
C 	C 	0.93184 0.47014 0.52227 -0.02100
C 	C 	0.59851 0.80347 0.85560 -0.02100
C 	C 	0.26833 0.15036 0.18358 -0.02200
C 	C 	0.93499 0.48369 0.51691 -0.02200
C 	C 	0.60166 0.81702 0.85024 -0.02200
C 	C 	0.27474 0.25722 0.16880 -0.02200
C 	C 	0.94141 0.59055 0.50214 -0.02200
C 	C 	0.60808 0.92388 0.83547 -0.02100
C 	C 	0.27480 0.23398 0.16953 -0.02200
C 	C 	0.94147 0.56732 0.50286 -0.02200
C 	C 	0.60813 0.90065 0.83619 -0.02200
C 	C 	0.27208 0.14806 0.15798 -0.02200
C 	C 	0.93875 0.48139 0.49131 -0.02200
C 	C 	0.60541 0.81473 0.82465 -0.02200
C 	C 	0.27001 0.13562 0.15251 -0.02200
C 	C 	0.93668 0.46896 0.48585 -0.02200
C 	C 	0.60335 0.80229 0.81918 -0.02200
C 	C 	0.66638 0.39832 0.06090 0.05000
C 	C 	0.33305 0.73166 0.39423 0.05000
C 	C 	0.99971 0.06499 0.72757 0.05100
C 	C 	0.61246 0.36481 0.06097 0.05000
C 	C 	0.27912 0.69814 0.39431 0.05000
C 	C 	0.94579 0.03148 0.72764 0.05000
C 	C 	0.64594 0.34442 0.06090 0.05000
C 	C 	0.31261 0.67775 0.39424 0.05000
C 	C 	0.97927 0.01108 0.72757 0.05100
C 	C 	0.63724 0.39395 0.06095 -0.08500
C 	C 	0.30391 0.72729 0.39428 -0.08500
C 	C 	0.97058 0.06062 0.72762 -0.08500
H 	H 	0.63388 0.41314 0.06092 0.05600
H 	H 	0.30054 0.74647 0.39425 0.05600
H 	H 	0.96721 0.07981 0.72758 0.05600
C 	C 	0.61680 0.34004 0.06096 -0.08500
C 	C 	0.28346 0.67338 0.39429 -0.08500
C 	C 	0.95013 0.00671 0.72762 -0.08500
H 	H 	0.59759 0.31747 0.06093 0.05600
H 	H 	0.26425 0.65080 0.39426 0.05600
H 	H 	0.93092 0.98414 0.72759 0.05600
C 	C 	0.67074 0.37356 0.06088 -0.08500
C 	C 	0.33741 0.70689 0.39422 -0.08500
C 	C 	0.00407 0.04022 0.72755 -0.08600
H 	H 	0.69331 0.37694 0.06080 0.05600
H 	H 	0.35998 0.71027 0.39414 0.05600
H 	H 	0.02664 0.04360 0.72747 0.05600
C 	C 	0.73601 0.50800 0.05971 -0.08100
C 	C 	0.40268 0.84133 0.39304 -0.08100
C 	C 	0.06935 0.17466 0.72637 -0.08100
C 	C 	0.76142 0.53668 0.05935 0.04100
C 	C 	0.42809 0.87001 0.39268 0.04100
C 	C 	0.09476 0.20334 0.72601 0.04100
C 	C 	0.79044 0.54028 0.05954 -0.13500
C 	C 	0.45711 0.87362 0.39287 -0.13500
C 	C 	0.12378 0.20695 0.72620 -0.13500
C 	C 	0.79340 0.51459 0.06013 0.04200
C 	C 	0.46007 0.84792 0.39346 0.04200
C 	C 	0.12674 0.18125 0.72679 0.04200
C 	C 	0.76798 0.48601 0.06049 -0.08100
C 	C 	0.43464 0.81934 0.39382 -0.08100
C 	C 	0.10131 0.15267 0.72715 -0.08100
C 	C 	0.73930 0.48267 0.06027 0.04900
C 	C 	0.40596 0.81601 0.39360 0.04900
C 	C 	0.07263 0.14934 0.72694 0.04900
H 	H 	0.75852 0.55609 0.05889 0.03400
H 	H 	0.42518 0.88942 0.39223 0.03400
H 	H 	0.09185 0.22275 0.72556 0.03400
H 	H 	0.81547 0.51670 0.06029 0.03500
H 	H 	0.48213 0.85003 0.39362 0.03500
H 	H 	0.14880 0.18336 0.72695 0.03500
H 	H 	0.71381 0.50550 0.05953 0.05300
H 	H 	0.38048 0.83884 0.39286 0.05300
H 	H 	0.04715 0.17217 0.72619 0.05300
H 	H 	0.77063 0.46645 0.06091 0.05300
H 	H 	0.43729 0.79979 0.39425 0.05300
H 	H 	0.10396 0.13312 0.72758 0.05300
C 	C 	0.63123 0.24264 0.06041 -0.08100
C 	C 	0.29789 0.57597 0.39374 -0.08100
C 	C 	0.96456 0.90931 0.72708 -0.08100
C 	C 	0.63412 0.21708 0.06006 0.04200
C 	C 	0.30079 0.55042 0.39340 0.04200
C 	C 	0.96745 0.88375 0.72673 0.04100
C 	C 	0.66273 0.21981 0.05957 -0.13500
C 	C 	0.32939 0.55314 0.39290 -0.13500
C 	C 	0.99606 0.88648 0.72624 -0.13500
C 	C 	0.68833 0.24873 0.05944 0.04100
C 	C 	0.35500 0.58206 0.39277 0.04100
C 	C 	0.02167 0.91539 0.72611 0.04100
C 	C 	0.68533 0.27426 0.05978 -0.08100
C 	C 	0.35199 0.60760 0.39312 -0.08100
C 	C 	0.01866 0.94093 0.72645 -0.08100
C 	C 	0.65678 0.27122 0.06027 0.04900
C 	C 	0.32345 0.60455 0.39360 0.04900
C 	C 	0.99011 0.93789 0.72693 0.04900
H 	H 	0.61402 0.19510 0.06017 0.03500
H 	H 	0.28069 0.52844 0.39351 0.03500
H 	H 	0.94735 0.86177 0.72684 0.03500
H 	H 	0.71062 0.25146 0.05905 0.03400
H 	H 	0.37728 0.58479 0.39239 0.03500
H 	H 	0.04395 0.91813 0.72572 0.03500
H 	H 	0.60907 0.24018 0.06077 0.05300
H 	H 	0.27573 0.57351 0.39411 0.05300
H 	H 	0.94240 0.90684 0.72744 0.05300
H 	H 	0.70519 0.29638 0.05966 0.05300
H 	H 	0.37186 0.62971 0.39299 0.05300
H 	H 	0.03852 0.96305 0.72633 0.05300
C 	C 	0.50281 0.32453 0.05996 -0.08100
C 	C 	0.16947 0.65786 0.39330 -0.08100
C 	C 	0.83614 0.99119 0.72663 -0.08200
C 	C 	0.47408 0.32109 0.05959 0.04100
C 	C 	0.14075 0.65442 0.39292 0.04100
C 	C 	0.80742 0.98775 0.72625 0.04100
C 	C 	0.47038 0.34643 0.05967 -0.13500
C 	C 	0.13704 0.67976 0.39301 -0.13600
C 	C 	0.80371 0.01310 0.72634 -0.13500
C 	C 	0.49603 0.37521 0.06018 0.04200
C 	C 	0.16269 0.70854 0.39351 0.04200
C 	C 	0.82936 0.04187 0.72684 0.04200
C 	C 	0.52466 0.37853 0.06056 -0.08100
C 	C 	0.19133 0.71187 0.39389 -0.08100
C 	C 	0.85800 0.04520 0.72722 -0.08200
C 	C 	0.52809 0.35324 0.06044 0.04900
C 	C 	0.19476 0.68657 0.39377 0.04900
C 	C 	0.86142 0.01991 0.72710 0.05000
H 	H 	0.45471 0.29867 0.05920 0.03400
H 	H 	0.12138 0.63201 0.39253 0.03400
H 	H 	0.78805 0.96534 0.72587 0.03400
H 	H 	0.49383 0.39511 0.06026 0.03500
H 	H 	0.16049 0.72844 0.39359 0.03500
H 	H 	0.82716 0.06177 0.72693 0.03500
H 	H 	0.50537 0.30486 0.05986 0.05300
H 	H 	0.17204 0.63820 0.39319 0.05300
H 	H 	0.83870 0.97153 0.72653 0.05300
H 	H 	0.54419 0.40082 0.06092 0.05300
H 	H 	0.21086 0.73416 0.39425 0.05300
H 	H 	0.87752 0.06749 0.72758 0.05300
C 	C 	0.71332 0.45315 0.06055 -0.02200
C 	C 	0.37999 0.78648 0.39388 -0.02200
C 	C 	0.04665 0.11981 0.72721 -0.02100
C 	C 	0.69182 0.42821 0.06074 -0.02200
C 	C 	0.35849 0.76154 0.39407 -0.02200
C 	C 	0.02515 0.09487 0.72740 -0.02300
C 	C 	0.65353 0.29734 0.06054 -0.02200
C 	C 	0.32019 0.63068 0.39388 -0.02200
C 	C 	0.98686 0.96401 0.72721 -0.02100
C 	C 	0.65029 0.31895 0.06074 -0.02200
C 	C 	0.31696 0.65228 0.39407 -0.02200
C 	C 	0.98363 0.98561 0.72740 -0.02300
C 	C 	0.58258 0.36036 0.06086 -0.02200
C 	C 	0.24925 0.69370 0.39419 -0.02200
C 	C 	0.91592 0.02703 0.72753 -0.02200
C 	C 	0.55765 0.35691 0.06070 -0.02200
C 	C 	0.22431 0.69024 0.39403 -0.02200
C 	C 	0.89098 0.02358 0.72737 -0.02200
Zn	Zn	0.00542 0.32238 0.21711 1.27100
Zn	Zn	0.67208 0.65571 0.55045 1.27100
Zn	Zn	0.33875 0.98905 0.88378 1.27100
Zn	Zn	0.00807 0.32656 0.23217 1.26300
Zn	Zn	0.67474 0.65989 0.56550 1.26300
Zn	Zn	0.34140 0.99322 0.89883 1.26300
Zn	Zn	0.97109 0.26915 0.22519 1.26800
Zn	Zn	0.63775 0.60249 0.55852 1.26800
Zn	Zn	0.30442 0.93582 0.89186 1.26800
Zn	Zn	0.03586 0.29743 0.22472 1.26800
Zn	Zn	0.70252 0.63076 0.55806 1.26800
Zn	Zn	0.36919 0.96409 0.89139 1.26800
O 	O 	0.00514 0.30389 0.22484 -1.07400
O 	O 	0.67180 0.63723 0.55818 -1.07500
O 	O 	0.33847 0.97056 0.89151 -1.07500
O 	O 	0.00507 0.35533 0.21849 -0.54800
O 	O 	0.67173 0.68866 0.55182 -0.54800
O 	O 	0.33840 0.02199 0.88515 -0.54800
O 	O 	0.97781 0.30820 0.23798 -0.53900
O 	O 	0.64448 0.64154 0.57132 -0.53800
O 	O 	0.31114 0.97487 0.90465 -0.53800
O 	O 	0.94777 0.26102 0.21785 -0.53600
O 	O 	0.61444 0.59436 0.55118 -0.53700
O 	O 	0.28111 0.92769 0.88452 -0.53600
O 	O 	0.00843 0.36012 0.22991 -0.53300
O 	O 	0.67509 0.69345 0.56324 -0.53300
O 	O 	0.34176 0.02679 0.89658 -0.53200
O 	O 	0.97514 0.30151 0.21160 -0.54300
O 	O 	0.64181 0.63485 0.54493 -0.54300
O 	O 	0.30847 0.96818 0.87826 -0.54300
O 	O 	0.94911 0.26566 0.23245 -0.54100
O 	O 	0.61578 0.59899 0.56578 -0.54100
O 	O 	0.28245 0.93232 0.89911 -0.54100
O 	O 	0.97638 0.23837 0.22577 -0.54300
O 	O 	0.64305 0.57170 0.55911 -0.54300
O 	O 	0.30972 0.90504 0.89244 -0.54300
O 	O 	0.05862 0.31136 0.21731 -0.54000
O 	O 	0.72529 0.64469 0.55065 -0.54000
O 	O 	0.39195 0.97803 0.88398 -0.54000
O 	O 	0.02558 0.25947 0.22525 -0.53900
O 	O 	0.69225 0.59281 0.55858 -0.53800
O 	O 	0.35892 0.92614 0.89191 -0.53800
O 	O 	0.03677 0.33301 0.21192 -0.54500
O 	O 	0.70343 0.66634 0.54525 -0.54400
O 	O 	0.37010 0.99967 0.87858 -0.54500
O 	O 	0.04062 0.33752 0.23728 -0.53100
O 	O 	0.70729 0.67085 0.57061 -0.53100
O 	O 	0.37395 0.00419 0.90395 -0.53000
O 	O 	0.06091 0.31487 0.23158 -0.54000
O 	O 	0.72758 0.64820 0.56491 -0.54000
O 	O 	0.39424 0.98153 0.89825 -0.54000
C 	C 	0.99986 0.23635 0.22572 0.42700
C 	C 	0.66652 0.56968 0.55905 0.42700
C 	C 	0.33319 0.90301 0.89238 0.42700
C 	C 	0.06141 0.33131 0.23654 0.41900
C 	C 	0.72807 0.66465 0.56987 0.41900
C 	C 	0.39474 0.99798 0.90320 0.41800
C 	C 	0.05765 0.32699 0.21235 0.42900
C 	C 	0.72432 0.66032 0.54569 0.42700
C 	C 	0.39098 0.99365 0.87902 0.42800
C 	C 	0.00659 0.36970 0.22395 0.42600
C 	C 	0.67325 0.70303 0.55728 0.42600
C 	C 	0.33992 0.03636 0.89061 0.42400
C 	C 	0.95204 0.27600 0.21232 0.42500
C 	C 	0.61871 0.60933 0.54565 0.42500
C 	C 	0.28537 0.94267 0.87899 0.42400
C 	C 	0.95409 0.28282 0.23761 0.42500
C 	C 	0.62075 0.61616 0.57094 0.42400
C 	C 	0.28742 0.94949 0.90428 0.42400
C 	C 	0.47123 0.49602 0.01015 0.04900
C 	C 	0.13789 0.82935 0.34349 0.04900
C 	C 	0.80456 0.16269 0.67682 0.04900
C 	C 	0.13402 0.82852 0.33086 0.05000
C 	C 	0.80069 0.16186 0.66419 0.05000
C 	C 	0.46736 0.49519 0.99753 0.05000
C 	C 	0.50883 0.53761 0.00330 0.05000
C 	C 	0.17549 0.87094 0.33663 0.05000
C 	C 	0.84216 0.20427 0.66996 0.05000
C 	C 	0.45612 0.48162 0.00400 -0.08400
C 	C 	0.12279 0.81495 0.33734 -0.08400
C 	C 	0.78945 0.14829 0.67067 -0.08400
H 	H 	0.43600 0.45970 0.00425 0.05600
H 	H 	0.10267 0.79303 0.33758 0.05600
H 	H 	0.76934 0.12637 0.67091 0.05600
C 	C 	0.16027 0.85650 0.33052 -0.08500
C 	C 	0.82693 0.18983 0.66385 -0.08500
C 	C 	0.49360 0.52317 0.99719 -0.08500
H 	H 	0.16917 0.86678 0.32549 0.05600
H 	H 	0.83584 0.20011 0.65882 0.05600
H 	H 	0.50251 0.53344 0.99216 0.05600
C 	C 	0.49765 0.52408 0.00980 -0.08400
C 	C 	0.16432 0.85741 0.34314 -0.08400
C 	C 	0.83099 0.19075 0.67647 -0.08400
H 	H 	0.50963 0.53508 0.01454 0.05600
H 	H 	0.17629 0.86842 0.34787 0.05600
H 	H 	0.84296 0.20175 0.68120 0.05600
C 	C 	0.45323 0.45495 0.03438 -0.08000
C 	C 	0.11990 0.78829 0.36771 -0.08000
C 	C 	0.78657 0.12162 0.70105 -0.08000
C 	C 	0.44087 0.43580 0.04014 0.04000
C 	C 	0.10754 0.76914 0.37347 0.04000
C 	C 	0.77420 0.10247 0.70681 0.04000
C 	C 	0.41174 0.41054 0.03978 -0.13300
C 	C 	0.07841 0.74388 0.37311 -0.13300
C 	C 	0.74507 0.07721 0.70644 -0.13300
C 	C 	0.39505 0.40544 0.03360 0.04000
C 	C 	0.06172 0.73877 0.36693 0.04000
C 	C 	0.72838 0.07211 0.70026 0.04000
C 	C 	0.40743 0.42462 0.02787 -0.08100
C 	C 	0.07409 0.75795 0.36121 -0.08000
C 	C 	0.74076 0.09129 0.69454 -0.08000
C 	C 	0.43662 0.44920 0.02822 0.04800
C 	C 	0.10329 0.78253 0.36155 0.04800
C 	C 	0.76995 0.11586 0.69489 0.04800
H 	H 	0.45423 0.44024 0.04483 0.03500
H 	H 	0.12090 0.77358 0.37816 0.03500
H 	H 	0.78757 0.10691 0.71150 0.03500
H 	H 	0.37258 0.38619 0.03316 0.03600
H 	H 	0.03925 0.71952 0.36649 0.03600
H 	H 	0.70592 0.05285 0.69982 0.03600
H 	H 	0.47591 0.47389 0.03467 0.05300
H 	H 	0.14257 0.80722 0.36801 0.05300
H 	H 	0.80924 0.14056 0.70134 0.05300
H 	H 	0.39446 0.41996 0.02312 0.05300
H 	H 	0.06113 0.75330 0.35645 0.05300
H 	H 	0.72780 0.08663 0.68978 0.05300
C 	C 	0.26592 0.95991 0.32771 -0.08100
C 	C 	0.93259 0.29324 0.66105 -0.08000
C 	C 	0.59925 0.62658 0.99438 -0.08100
C 	C 	0.29314 0.98681 0.32682 0.04000
C 	C 	0.95981 0.32015 0.66015 0.04000
C 	C 	0.62648 0.65348 0.99349 0.04100
C 	C 	0.30890 0.00425 0.33265 -0.13400
C 	C 	0.97557 0.33759 0.66598 -0.13300
C 	C 	0.64223 0.67092 0.99932 -0.13400
C 	C 	0.63006 0.66085 0.00603 0.04100
C 	C 	0.29673 0.99418 0.33936 0.04000
C 	C 	0.96340 0.32752 0.67270 0.04100
C 	C 	0.60293 0.63404 0.00690 -0.08100
C 	C 	0.26960 0.96737 0.34023 -0.08100
C 	C 	0.93626 0.30070 0.67356 -0.08100
C 	C 	0.58750 0.61685 0.00109 0.04900
C 	C 	0.25416 0.95018 0.33442 0.04900
C 	C 	0.92083 0.28352 0.66775 0.04900
H 	H 	0.30198 0.99406 0.32160 0.03400
H 	H 	0.96865 0.32739 0.65493 0.03400
H 	H 	0.63531 0.66072 0.98827 0.03400
H 	H 	0.64165 0.67382 0.01062 0.03600
H 	H 	0.30832 0.00715 0.34396 0.03600
H 	H 	0.97499 0.34048 0.67729 0.03600
H 	H 	0.25402 0.94664 0.32319 0.05300
H 	H 	0.92069 0.27997 0.65652 0.05300
H 	H 	0.58736 0.61330 0.98986 0.05300
H 	H 	0.59396 0.62664 0.01210 0.05300
H 	H 	0.26063 0.95997 0.34543 0.05300
H 	H 	0.92730 0.29330 0.67876 0.05300
C 	C 	0.11844 0.79684 0.30663 -0.08100
C 	C 	0.78511 0.13018 0.63996 -0.08100
C 	C 	0.45178 0.46351 0.97329 -0.08100
C 	C 	0.10907 0.78231 0.30020 0.04100
C 	C 	0.77574 0.11564 0.63353 0.04100
C 	C 	0.44241 0.44897 0.96686 0.04100
C 	C 	0.07995 0.75745 0.29940 -0.13500
C 	C 	0.74662 0.09078 0.63274 -0.13400
C 	C 	0.41328 0.42411 0.96607 -0.13400
C 	C 	0.06025 0.74790 0.30517 0.04100
C 	C 	0.72691 0.08124 0.63850 0.04100
C 	C 	0.39358 0.41457 0.97183 0.04100
C 	C 	0.06975 0.76252 0.31161 -0.08100
C 	C 	0.73642 0.09585 0.64494 -0.08100
C 	C 	0.40308 0.42918 0.97827 -0.08100
C 	C 	0.09893 0.78682 0.31235 0.04900
C 	C 	0.76560 0.12016 0.64568 0.04900
C 	C 	0.43226 0.45349 0.97901 0.04900
H 	H 	0.12471 0.79013 0.29585 0.03500
H 	H 	0.79138 0.12347 0.62919 0.03500
H 	H 	0.45804 0.45680 0.96252 0.03500
H 	H 	0.03771 0.72879 0.30470 0.03500
H 	H 	0.70438 0.06213 0.63803 0.03500
H 	H 	0.37105 0.39546 0.97136 0.03500
H 	H 	0.14110 0.81563 0.30718 0.05300
H 	H 	0.80776 0.14897 0.64052 0.05300
H 	H 	0.47443 0.48230 0.97385 0.05300
H 	H 	0.05457 0.75464 0.31603 0.05300
H 	H 	0.72124 0.08797 0.64936 0.05300
H 	H 	0.38791 0.42130 0.98270 0.05300
C 	C 	0.44977 0.46727 0.02208 -0.02100
C 	C 	0.11644 0.80061 0.35542 -0.02100
C 	C 	0.78311 0.13394 0.68875 -0.02100
C 	C 	0.45999 0.48110 0.01674 -0.02200
C 	C 	0.12666 0.81443 0.35008 -0.02200
C 	C 	0.79333 0.14777 0.68341 -0.02200
C 	C 	0.55970 0.58912 0.00203 -0.02200
C 	C 	0.22637 0.92245 0.33536 -0.02200
C 	C 	0.89304 0.25578 0.66870 -0.02100
C 	C 	0.53648 0.56575 0.00274 -0.02200
C 	C 	0.20315 0.89909 0.33608 -0.02200
C 	C 	0.86981 0.23242 0.66941 -0.02200
C 	C 	0.11996 0.81321 0.32449 -0.02200
C 	C 	0.78662 0.14655 0.65783 -0.02200
C 	C 	0.45329 0.47988 0.99116 -0.02200
C 	C 	0.10960 0.80093 0.31901 -0.02200
C 	C 	0.77627 0.13427 0.65235 -0.02200
C 	C 	0.44294 0.46760 0.98568 -0.02100
Zn	Zn	0.71765 0.74705 0.00521 1.27100
Zn	Zn	0.38431 0.08039 0.33855 1.27100
Zn	Zn	0.05098 0.41372 0.67188 1.27100
Zn	Zn	0.38223 0.07562 0.32352 1.26300
Zn	Zn	0.04890 0.40895 0.65685 1.26300
Zn	Zn	0.71556 0.74229 0.99018 1.26300
Zn	Zn	0.40245 0.13323 0.33038 1.26800
Zn	Zn	0.06911 0.46656 0.66372 1.26800
Zn	Zn	0.73578 0.79990 0.99705 1.26800
Zn	Zn	0.43948 0.10566 0.33077 1.26800
Zn	Zn	0.10614 0.43899 0.66411 1.26800
Zn	Zn	0.77281 0.77233 0.99744 1.26800
O 	O 	0.40213 0.09871 0.33076 -1.07500
O 	O 	0.06879 0.43205 0.66410 -1.07500
O 	O 	0.73546 0.76538 0.99743 -1.07500
O 	O 	0.68423 0.71398 0.00395 -0.54800
O 	O 	0.35090 0.04731 0.33728 -0.54800
O 	O 	0.01756 0.38064 0.67062 -0.54700
O 	O 	0.37018 0.09366 0.31764 -0.53600
O 	O 	0.03685 0.42699 0.65097 -0.53600
O 	O 	0.70352 0.76033 0.98431 -0.53700
O 	O 	0.72035 0.80785 0.00437 -0.53600
O 	O 	0.38702 0.14119 0.33771 -0.53700
O 	O 	0.05369 0.47452 0.67104 -0.53700
O 	O 	0.34910 0.04223 0.32587 -0.53500
O 	O 	0.01576 0.37556 0.65920 -0.53400
O 	O 	0.68243 0.70890 0.99254 -0.53500
O 	O 	0.70840 0.76799 0.01076 -0.54200
O 	O 	0.37506 0.10133 0.34410 -0.54300
O 	O 	0.04173 0.43466 0.67743 -0.54300
O 	O 	0.38391 0.13633 0.32311 -0.54100
O 	O 	0.05057 0.46967 0.65644 -0.54100
O 	O 	0.71724 0.80300 0.98978 -0.54100
O 	O 	0.43842 0.16435 0.32982 -0.54300
O 	O 	0.10509 0.49768 0.66315 -0.54300
O 	O 	0.77176 0.83102 0.99649 -0.54300
O 	O 	0.78189 0.75796 0.00473 -0.53800
O 	O 	0.44856 0.09129 0.33807 -0.53900
O 	O 	0.11523 0.42463 0.67140 -0.53900
O 	O 	0.46683 0.14367 0.33040 -0.54100
O 	O 	0.13350 0.47700 0.66373 -0.54000
O 	O 	0.80016 0.81034 0.99707 -0.54100
O 	O 	0.73873 0.73665 0.01032 -0.54400
O 	O 	0.40540 0.06999 0.34366 -0.54400
O 	O 	0.07207 0.40332 0.67699 -0.54400
O 	O 	0.40370 0.06438 0.31844 -0.53100
O 	O 	0.07037 0.39772 0.65177 -0.53100
O 	O 	0.73704 0.73105 0.98510 -0.53100
O 	O 	0.44748 0.08943 0.32372 -0.54000
O 	O 	0.11414 0.42277 0.65706 -0.54000
O 	O 	0.78081 0.75610 0.99039 -0.54000
C 	C 	0.46403 0.16664 0.32994 0.42800
C 	C 	0.13070 0.49997 0.66327 0.42800
C 	C 	0.79737 0.83330 0.99660 0.42800
C 	C 	0.43122 0.07210 0.31892 0.42000
C 	C 	0.09788 0.40543 0.65225 0.41900
C 	C 	0.76455 0.73876 0.98558 0.41900
C 	C 	0.76556 0.74248 0.00976 0.42600
C 	C 	0.43223 0.07582 0.34309 0.42700
C 	C 	0.09889 0.40915 0.67642 0.42700
C 	C 	0.33784 0.03282 0.33185 0.42700
C 	C 	0.00451 0.36615 0.66519 0.42500
C 	C 	0.67117 0.69948 0.99852 0.42700
C 	C 	0.71023 0.79321 0.00997 0.42400
C 	C 	0.37690 0.12654 0.34330 0.42500
C 	C 	0.04356 0.45987 0.67664 0.42500
C 	C 	0.37176 0.11900 0.31797 0.42300
C 	C 	0.03843 0.45234 0.65130 0.42300
C 	C 	0.70509 0.78567 0.98464 0.42300
C 	C 	0.67710 0.86685 0.04546 0.04900
C 	C 	0.34377 0.20019 0.37879 0.04900
C 	C 	0.01043 0.53352 0.71213 0.04900
C 	C 	0.67379 0.90495 0.05226 0.05000
C 	C 	0.34045 0.23828 0.38559 0.05000
C 	C 	0.00712 0.57161 0.71892 0.05000
C 	C 	0.67506 0.86384 0.05810 0.05000
C 	C 	0.34173 0.19717 0.39144 0.05000
C 	C 	0.00839 0.53051 0.72477 0.05000
C 	C 	0.67557 0.89331 0.04577 -0.08400
C 	C 	0.34223 0.22664 0.37910 -0.08400
C 	C 	0.00890 0.55997 0.71243 -0.08400
H 	H 	0.67616 0.90494 0.04101 0.05600
H 	H 	0.34283 0.23828 0.37434 0.05600
H 	H 	0.00950 0.57161 0.70767 0.05600
C 	C 	0.67346 0.89014 0.05840 -0.08500
C 	C 	0.34012 0.22347 0.39173 -0.08500
C 	C 	0.00679 0.55681 0.72506 -0.08500
H 	H 	0.67249 0.89939 0.06342 0.05600
H 	H 	0.33916 0.23272 0.39675 0.05600
H 	H 	0.00582 0.56605 0.73008 0.05600
C 	C 	0.67684 0.85215 0.05164 -0.08400
C 	C 	0.34351 0.18549 0.38497 -0.08400
C 	C 	0.01017 0.51882 0.71831 -0.08400
H 	H 	0.67853 0.83199 0.05142 0.05600
H 	H 	0.34519 0.16532 0.38476 0.05600
H 	H 	0.01186 0.49865 0.71809 0.05600
C 	C 	0.68259 0.80189 0.02771 -0.08000
C 	C 	0.34926 0.13522 0.36104 -0.08000
C 	C 	0.01593 0.46856 0.69437 -0.08000
C 	C 	0.68909 0.78927 0.02198 0.04000
C 	C 	0.35576 0.12261 0.35532 0.04000
C 	C 	0.02243 0.45594 0.68865 0.04000
C 	C 	0.70104 0.80594 0.01581 -0.13300
C 	C 	0.36771 0.13927 0.34914 -0.13300
C 	C 	0.03437 0.47261 0.68247 -0.13300
C 	C 	0.70552 0.83528 0.01545 0.04000
C 	C 	0.37219 0.16862 0.34878 0.04000
C 	C 	0.03886 0.50195 0.68212 0.04000
C 	C 	0.69904 0.84788 0.02121 -0.08000
C 	C 	0.36570 0.18121 0.35455 -0.08000
C 	C 	0.03237 0.51455 0.68788 -0.08000
C 	C 	0.68787 0.83129 0.02737 0.04800
C 	C 	0.35453 0.16463 0.36071 0.04800
C 	C 	0.02120 0.49796 0.69404 0.04800
H 	H 	0.68542 0.76665 0.02242 0.03600
H 	H 	0.35209 0.09999 0.35575 0.03600
H 	H 	0.01875 0.43332 0.68908 0.03600
H 	H 	0.71474 0.84864 0.01077 0.03500
H 	H 	0.38141 0.18197 0.34410 0.03500
H 	H 	0.04808 0.51530 0.67743 0.03400
H 	H 	0.67406 0.78895 0.03247 0.05300
H 	H 	0.34072 0.12228 0.36580 0.05300
H 	H 	0.00739 0.45562 0.69913 0.05300
H 	H 	0.70329 0.87072 0.02093 0.05300
H 	H 	0.36996 0.20406 0.35426 0.05300
H 	H 	0.03662 0.53739 0.68760 0.05300
C 	C 	0.67647 0.79958 0.07735 -0.08100
C 	C 	0.34314 0.13292 0.41068 -0.08100
C 	C 	0.00981 0.46625 0.74401 -0.08100
C 	C 	0.68140 0.78982 0.08376 0.04100
C 	C 	0.34806 0.12315 0.41710 0.04100
C 	C 	0.01473 0.45648 0.75043 0.04100
C 	C 	0.69207 0.80948 0.08953 -0.13500
C 	C 	0.35874 0.14281 0.42286 -0.13500
C 	C 	0.02540 0.47614 0.75619 -0.13500
C 	C 	0.69707 0.83886 0.08875 0.04100
C 	C 	0.36374 0.17219 0.42208 0.04200
C 	C 	0.03041 0.50553 0.75542 0.04100
C 	C 	0.69210 0.84850 0.08234 -0.08100
C 	C 	0.35877 0.18183 0.41567 -0.08100
C 	C 	0.02544 0.51517 0.74900 -0.08100
C 	C 	0.68205 0.82899 0.07662 0.04900
C 	C 	0.34872 0.16233 0.40995 0.04900
C 	C 	0.01538 0.49566 0.74329 0.04900
H 	H 	0.67738 0.76708 0.08422 0.03400
H 	H 	0.34405 0.10042 0.41755 0.03400
H 	H 	0.01072 0.43375 0.75088 0.03400
H 	H 	0.70531 0.85448 0.09309 0.03500
H 	H 	0.37198 0.18781 0.42643 0.03500
H 	H 	0.03865 0.52115 0.75976 0.03500
H 	H 	0.66873 0.78440 0.07292 0.05300
H 	H 	0.33540 0.11774 0.40626 0.05300
H 	H 	0.00207 0.45107 0.73959 0.05300
H 	H 	0.69652 0.87133 0.08180 0.05300
H 	H 	0.36318 0.20467 0.41513 0.05300
H 	H 	0.02985 0.53800 0.74846 0.05300
C 	C 	0.67459 0.99494 0.06109 -0.08100
C 	C 	0.34126 0.32828 0.39443 -0.08000
C 	C 	0.00792 0.66161 0.72776 -0.08100
C 	C 	0.67482 0.02208 0.06200 0.04100
C 	C 	0.34149 0.35541 0.39534 0.04000
C 	C 	0.00816 0.68874 0.72867 0.04100
C 	C 	0.67395 0.03828 0.05618 -0.13400
C 	C 	0.34062 0.37161 0.38951 -0.13300
C 	C 	0.00728 0.70495 0.72285 -0.13400
C 	C 	0.67289 0.02671 0.04944 0.04100
C 	C 	0.33956 0.36004 0.38278 0.04100
C 	C 	0.00623 0.69337 0.71611 0.04100
C 	C 	0.67267 0.99964 0.04856 -0.08100
C 	C 	0.33933 0.33297 0.38189 -0.08100
C 	C 	0.00600 0.66631 0.71523 -0.08100
C 	C 	0.67348 0.98371 0.05437 0.04900
C 	C 	0.34015 0.31704 0.38770 0.04900
C 	C 	0.00681 0.65037 0.72104 0.04900
H 	H 	0.67562 0.03045 0.06724 0.03400
H 	H 	0.34228 0.36378 0.40057 0.03400
H 	H 	0.00895 0.69711 0.73391 0.03400
H 	H 	0.67220 0.03868 0.04486 0.03600
H 	H 	0.33887 0.37202 0.37819 0.03600
H 	H 	0.00554 0.70535 0.71152 0.03600
H 	H 	0.67526 0.98268 0.06562 0.05300
H 	H 	0.34193 0.31601 0.39895 0.05300
H 	H 	0.00860 0.64934 0.73228 0.05300
H 	H 	0.67185 0.99109 0.04335 0.05300
H 	H 	0.33852 0.32442 0.37668 0.05300
H 	H 	0.00519 0.65776 0.71001 0.05300
C 	C 	0.68340 0.84471 0.03352 -0.02100
C 	C 	0.35007 0.17804 0.36686 -0.02100
C 	C 	0.01674 0.51138 0.70019 -0.02100
C 	C 	0.68023 0.85520 0.03887 -0.02200
C 	C 	0.34690 0.18853 0.37221 -0.02200
C 	C 	0.01356 0.52187 0.70554 -0.02200
C 	C 	0.67860 0.83978 0.06997 -0.02200
C 	C 	0.34527 0.17312 0.40330 -0.02200
C 	C 	0.01193 0.50645 0.73664 -0.02200
C 	C 	0.67656 0.85005 0.06449 -0.02200
C 	C 	0.34323 0.18339 0.39782 -0.02200
C 	C 	0.00989 0.51672 0.73116 -0.02200
C 	C 	0.67338 0.93263 0.05275 -0.02200
C 	C 	0.34005 0.26597 0.38608 -0.02200
C 	C 	0.00672 0.59930 0.71942 -0.02200
C 	C 	0.67333 0.95590 0.05343 -0.02200
C 	C 	0.34000 0.28923 0.38676 -0.02200
C 	C 	0.00666 0.62256 0.72010 -0.02200
C 	C 	0.84156 0.73231 0.16983 0.05000
C 	C 	0.50822 0.06564 0.50316 0.05000
C 	C 	0.17489 0.39898 0.83650 0.05000
C 	C 	0.80038 0.73371 0.16405 0.05000
C 	C 	0.46705 0.06705 0.49739 0.05000
C 	C 	0.13371 0.40038 0.83072 0.05000
C 	C 	0.80386 0.73608 0.17669 0.04900
C 	C 	0.47053 0.06942 0.51003 0.04900
C 	C 	0.13719 0.40275 0.84336 0.04900
C 	C 	0.82657 0.73190 0.16372 -0.08400
C 	C 	0.49323 0.06523 0.49705 -0.08500
C 	C 	0.15990 0.39856 0.83038 -0.08500
H 	H 	0.83562 0.73076 0.15868 0.05600
H 	H 	0.50228 0.06409 0.49202 0.05600
H 	H 	0.16895 0.39742 0.82535 0.05600
C 	C 	0.78897 0.73576 0.17054 -0.08400
C 	C 	0.45564 0.06909 0.50387 -0.08400
C 	C 	0.12231 0.40243 0.83720 -0.08400
H 	H 	0.76891 0.73763 0.17079 0.05600
H 	H 	0.43558 0.07097 0.50412 0.05600
H 	H 	0.10225 0.40430 0.83745 0.05600
C 	C 	0.83021 0.73435 0.17634 -0.08400
C 	C 	0.49687 0.06769 0.50967 -0.08400
C 	C 	0.16354 0.40102 0.84300 -0.08400
H 	H 	0.84201 0.73504 0.18108 0.05600
H 	H 	0.50868 0.06837 0.51441 0.05600
H 	H 	0.17534 0.40170 0.84774 0.05600
C 	C 	0.93577 0.73051 0.17354 -0.08100
C 	C 	0.60244 0.06385 0.50687 -0.08100
C 	C 	0.26911 0.39718 0.84020 -0.08100
C 	C 	0.96301 0.73104 0.17270 0.04100
C 	C 	0.62968 0.06438 0.50604 0.04100
C 	C 	0.29634 0.39771 0.83937 0.04100
C 	C 	0.97527 0.73312 0.16600 -0.13500
C 	C 	0.64194 0.06645 0.49934 -0.13400
C 	C 	0.30861 0.39979 0.83267 -0.13400
C 	C 	0.95953 0.73459 0.16015 0.04100
C 	C 	0.62619 0.06792 0.49349 0.04100
C 	C 	0.29286 0.40125 0.82682 0.04100
C 	C 	0.93221 0.73406 0.16101 -0.08100
C 	C 	0.59887 0.06739 0.49434 -0.08100
C 	C 	0.26554 0.40072 0.82768 -0.08100
C 	C 	0.92034 0.73203 0.16770 0.04900
C 	C 	0.58701 0.06536 0.50104 0.04900
C 	C 	0.25367 0.39870 0.83437 0.04900
H 	H 	0.97460 0.72984 0.17731 0.03600
H 	H 	0.64127 0.06317 0.51064 0.03600
H 	H 	0.30794 0.39651 0.84398 0.03600
H 	H 	0.96844 0.73616 0.15494 0.03400
H 	H 	0.63511 0.06950 0.48827 0.03400
H 	H 	0.30177 0.40283 0.82161 0.03400
H 	H 	0.92672 0.72897 0.17873 0.05300
H 	H 	0.59339 0.06230 0.51206 0.05300
H 	H 	0.26006 0.39564 0.84539 0.05300
H 	H 	0.92032 0.73527 0.15647 0.05300
H 	H 	0.58699 0.06860 0.48980 0.05300
H 	H 	0.25366 0.40194 0.82314 0.05300
C 	C 	0.78687 0.76034 0.20088 -0.08000
C 	C 	0.45354 0.09367 0.53421 -0.08000
C 	C 	0.12021 0.42700 0.86755 -0.08000
C 	C 	0.77463 0.76715 0.20666 0.04000
C 	C 	0.44129 0.10048 0.54000 0.04000
C 	C 	0.10796 0.43382 0.87333 0.04000
C 	C 	0.74482 0.76148 0.20649 -0.13300
C 	C 	0.41149 0.09481 0.53982 -0.13300
C 	C 	0.07816 0.42814 0.87316 -0.13300
C 	C 	0.72735 0.74793 0.20050 0.04000
C 	C 	0.39402 0.08127 0.53383 0.04000
C 	C 	0.06068 0.41460 0.86716 0.04000
C 	C 	0.73961 0.74110 0.19475 -0.08100
C 	C 	0.40628 0.07443 0.52809 -0.08000
C 	C 	0.07295 0.40777 0.86142 -0.08100
C 	C 	0.76947 0.74763 0.19489 0.04800
C 	C 	0.43614 0.08097 0.52822 0.04800
C 	C 	0.10281 0.41430 0.86156 0.04800
H 	H 	0.78860 0.77761 0.21120 0.03400
H 	H 	0.45526 0.11094 0.54454 0.03400
H 	H 	0.12193 0.44428 0.87787 0.03400
H 	H 	0.70435 0.74329 0.20021 0.03500
H 	H 	0.37101 0.07662 0.53354 0.03500
H 	H 	0.03768 0.40995 0.86687 0.03500
H 	H 	0.81007 0.76557 0.20101 0.05300
H 	H 	0.47673 0.09890 0.53434 0.05300
H 	H 	0.14340 0.43223 0.86767 0.05300
H 	H 	0.72603 0.73135 0.19013 0.05300
H 	H 	0.39270 0.06469 0.52346 0.05300
H 	H 	0.05936 0.39802 0.85680 0.05300
C 	C 	0.78559 0.75156 0.13987 -0.08100
C 	C 	0.45226 0.08490 0.47320 -0.08100
C 	C 	0.11892 0.41823 0.80654 -0.08100
C 	C 	0.77626 0.75694 0.13346 0.04100
C 	C 	0.44292 0.09028 0.46679 0.04100
C 	C 	0.10959 0.42361 0.80013 0.04100
C 	C 	0.74693 0.75208 0.13265 -0.13500
C 	C 	0.41360 0.08541 0.46598 -0.13500
C 	C 	0.08027 0.41875 0.79931 -0.13500
C 	C 	0.72700 0.74109 0.13836 0.04100
C 	C 	0.39367 0.07442 0.47169 0.04100
C 	C 	0.06034 0.40775 0.80503 0.04100
C 	C 	0.73646 0.73576 0.14478 -0.08100
C 	C 	0.40313 0.06909 0.47811 -0.08100
C 	C 	0.06980 0.40242 0.81144 -0.08100
C 	C 	0.76584 0.74124 0.14555 0.04900
C 	C 	0.43250 0.07458 0.47888 0.04900
C 	C 	0.09917 0.40791 0.81221 0.04900
H 	H 	0.79207 0.76540 0.12916 0.03500
H 	H 	0.45874 0.09873 0.46249 0.03500
H 	H 	0.12541 0.43207 0.79582 0.03500
H 	H 	0.70430 0.73715 0.13788 0.03400
H 	H 	0.37097 0.07049 0.47121 0.03400
H 	H 	0.03763 0.40382 0.80454 0.03400
H 	H 	0.80839 0.75590 0.14044 0.05300
H 	H 	0.47506 0.08923 0.47378 0.05300
H 	H 	0.14172 0.42257 0.80711 0.05300
H 	H 	0.72109 0.72780 0.14916 0.05300
H 	H 	0.38775 0.06113 0.48249 0.05300
H 	H 	0.05442 0.39446 0.81583 0.05300
C 	C 	0.89247 0.73180 0.16861 -0.02200
C 	C 	0.55914 0.06513 0.50194 -0.02200
C 	C 	0.22580 0.39846 0.83528 -0.02200
C 	C 	0.86920 0.73184 0.16929 -0.02200
C 	C 	0.53587 0.06518 0.50263 -0.02200
C 	C 	0.20254 0.39851 0.83596 -0.02200
C 	C 	0.78245 0.74292 0.18869 -0.02100
C 	C 	0.44912 0.07625 0.52202 -0.02100
C 	C 	0.11578 0.40959 0.85536 -0.02100
C 	C 	0.79257 0.73951 0.18331 -0.02200
C 	C 	0.45924 0.07284 0.51664 -0.02200
C 	C 	0.12590 0.40618 0.84997 -0.02200
C 	C 	0.78655 0.73531 0.15768 -0.02200
C 	C 	0.45322 0.06865 0.49102 -0.02200
C 	C 	0.11989 0.40198 0.82435 -0.02200
C 	C 	0.77638 0.73751 0.15220 -0.02200
C 	C 	0.44305 0.07085 0.48554 -0.02200
C 	C 	0.10971 0.40418 0.81887 -0.02200
Zn	Zn	0.06880 0.69794 0.16376 1.26800
Zn	Zn	0.73547 0.03127 0.49709 1.26800
Zn	Zn	0.40213 0.36460 0.83043 1.26800
Zn	Zn	0.05087 0.73289 0.17193 1.27100
Zn	Zn	0.71754 0.06622 0.50526 1.27100
Zn	Zn	0.38420 0.39956 0.83859 1.27100
Zn	Zn	0.10591 0.76258 0.16410 1.26800
Zn	Zn	0.77257 0.09592 0.49743 1.26800
Zn	Zn	0.43924 0.42925 0.83077 1.26800
Zn	Zn	0.04865 0.73528 0.15689 1.26400
Zn	Zn	0.71531 0.06861 0.49022 1.26400
Zn	Zn	0.38198 0.40194 0.82356 1.26400
O 	O 	0.06856 0.73218 0.16413 -1.07500
O 	O 	0.73522 0.06551 0.49746 -1.07500
O 	O 	0.40189 0.39885 0.83079 -1.07600
O 	O 	0.05344 0.67471 0.17111 -0.53700
O 	O 	0.72011 0.00805 0.50444 -0.53600
O 	O 	0.38677 0.34138 0.83777 -0.53700
O 	O 	0.07205 0.76462 0.17699 -0.54400
O 	O 	0.73872 0.09795 0.51032 -0.54400
O 	O 	0.40539 0.43129 0.84365 -0.54400
O 	O 	0.13318 0.75190 0.16372 -0.54200
O 	O 	0.79984 0.08524 0.49705 -0.54100
O 	O 	0.46651 0.41857 0.83038 -0.54100
O 	O 	0.04172 0.70281 0.17751 -0.54200
O 	O 	0.70839 0.03614 0.51084 -0.54200
O 	O 	0.37505 0.36947 0.84417 -0.54200
O 	O 	0.10475 0.70277 0.16317 -0.54300
O 	O 	0.77142 0.03610 0.49651 -0.54300
O 	O 	0.43809 0.36943 0.82984 -0.54300
O 	O 	0.11514 0.78622 0.17137 -0.53900
O 	O 	0.78181 0.11956 0.50470 -0.53900
O 	O 	0.44848 0.45289 0.83803 -0.53900
O 	O 	0.11386 0.78671 0.15704 -0.54000
O 	O 	0.78053 0.12004 0.49038 -0.54000
O 	O 	0.44719 0.45337 0.82371 -0.54000
O 	O 	0.03657 0.70512 0.15102 -0.53700
O 	O 	0.70324 0.03846 0.48436 -0.53700
O 	O 	0.36990 0.37179 0.81769 -0.53600
O 	O 	0.07002 0.76797 0.15180 -0.53100
O 	O 	0.73668 0.10131 0.48513 -0.53000
O 	O 	0.40335 0.43464 0.81847 -0.53100
O 	O 	0.05013 0.67613 0.15650 -0.54100
O 	O 	0.71680 0.00946 0.48984 -0.54100
O 	O 	0.38347 0.34280 0.82317 -0.54100
O 	O 	0.01737 0.73240 0.17066 -0.54800
O 	O 	0.68404 0.06573 0.50400 -0.54700
O 	O 	0.35071 0.39906 0.83733 -0.54700
O 	O 	0.01553 0.73545 0.15925 -0.53600
O 	O 	0.68220 0.06878 0.49258 -0.53500
O 	O 	0.34887 0.40211 0.82591 -0.53500
C 	C 	0.09755 0.78778 0.15226 0.42000
C 	C 	0.76422 0.12111 0.48559 0.41900
C 	C 	0.43088 0.45444 0.81893 0.42000
C 	C 	0.00428 0.73366 0.16523 0.42800
C 	C 	0.67094 0.06699 0.49856 0.42600
C 	C 	0.33761 0.40033 0.83189 0.42600
C 	C 	0.03803 0.68130 0.15136 0.42400
C 	C 	0.70470 0.01464 0.48469 0.42300
C 	C 	0.37136 0.34797 0.81803 0.42300
C 	C 	0.04346 0.67936 0.17671 0.42400
C 	C 	0.71013 0.01270 0.51005 0.42400
C 	C 	0.37679 0.34603 0.84338 0.42400
C 	C 	0.13037 0.72613 0.16327 0.42900
C 	C 	0.79703 0.05946 0.49660 0.42800
C 	C 	0.46370 0.39279 0.82993 0.42800
C 	C 	0.09890 0.78559 0.17638 0.42700
C 	C 	0.76556 0.11893 0.50972 0.42700
C 	C 	0.43223 0.45226 0.84305 0.42700
C 	C 	0.96676 0.55735 0.10494 0.05000
C 	C 	0.63343 0.89068 0.43827 0.04900
C 	C 	0.30010 0.22402 0.77161 0.05000
C 	C 	0.97404 0.51987 0.11092 0.04900
C 	C 	0.64071 0.85321 0.44426 0.04900
C 	C 	0.30738 0.18654 0.77759 0.04900
C 	C 	0.98198 0.56455 0.11709 0.05000
C 	C 	0.64865 0.89788 0.45042 0.04900
C 	C 	0.31531 0.23121 0.78375 0.05000
C 	C 	0.96653 0.52999 0.10487 -0.08400
C 	C 	0.63320 0.86332 0.43821 -0.08400
C 	C 	0.29987 0.19666 0.77154 -0.08400
H 	H 	0.96050 0.51663 0.10015 0.05600
H 	H 	0.62717 0.84996 0.43348 0.05600
H 	H 	0.29383 0.18329 0.76681 0.05600
C 	C 	0.98178 0.53720 0.11703 -0.08400
C 	C 	0.64844 0.87053 0.45037 -0.08400
C 	C 	0.31511 0.20387 0.78370 -0.08400
H 	H 	0.98764 0.52948 0.12171 0.05600
H 	H 	0.65431 0.86281 0.45505 0.05600
H 	H 	0.32097 0.19614 0.78838 0.05600
C 	C 	0.97448 0.57454 0.11104 -0.08400
C 	C 	0.64114 0.90788 0.44438 -0.08400
C 	C 	0.30781 0.24121 0.77771 -0.08400
H 	H 	0.97464 0.59570 0.11109 0.05600
H 	H 	0.64130 0.92904 0.44442 0.05600
H 	H 	0.30797 0.26237 0.77776 0.05600
C 	C 	0.93078 0.57032 0.08198 -0.08000
C 	C 	0.59745 0.90365 0.41532 -0.08000
C 	C 	0.26411 0.23699 0.74865 -0.08000
C 	C 	0.92077 0.58047 0.07640 0.04000
C 	C 	0.58744 0.91380 0.40973 0.04000
C 	C 	0.25410 0.24714 0.74306 0.04000
C 	C 	0.92282 0.60884 0.07666 -0.13300
C 	C 	0.58949 0.94217 0.40999 -0.13300
C 	C 	0.25615 0.27550 0.74332 -0.13300
C 	C 	0.93569 0.62701 0.08259 0.04000
C 	C 	0.60236 0.96034 0.41592 0.04000
C 	C 	0.26903 0.29367 0.74926 0.04000
C 	C 	0.94568 0.61675 0.08817 -0.08000
C 	C 	0.61235 0.95008 0.42150 -0.08000
C 	C 	0.27901 0.28341 0.75484 -0.08000
C 	C 	0.94301 0.58831 0.08790 0.04800
C 	C 	0.60968 0.92164 0.42123 0.04800
C 	C 	0.27635 0.25498 0.75456 0.04900
H 	H 	0.91095 0.56598 0.07190 0.03500
H 	H 	0.57762 0.89931 0.40523 0.03500
H 	H 	0.24429 0.23264 0.73857 0.03500
H 	H 	0.93751 0.64891 0.08293 0.03500
H 	H 	0.60418 0.98224 0.41627 0.03400
H 	H 	0.27085 0.31557 0.74960 0.03500
H 	H 	0.92861 0.54827 0.08174 0.05300
H 	H 	0.59528 0.88160 0.41507 0.05300
H 	H 	0.26194 0.21493 0.74841 0.05300
H 	H 	0.95510 0.63077 0.09275 0.05300
H 	H 	0.62177 0.96411 0.42608 0.05300
H 	H 	0.28844 0.29744 0.75941 0.05300
C 	C 	0.01799 0.61274 0.14019 -0.08000
C 	C 	0.68466 0.94607 0.47352 -0.08000
C 	C 	0.35132 0.27941 0.80686 -0.08000
C 	C 	0.02788 0.63282 0.14581 0.04000
C 	C 	0.69455 0.96615 0.47914 0.04000
C 	C 	0.36122 0.29948 0.81247 0.04000
C 	C 	0.02591 0.65917 0.14556 -0.13300
C 	C 	0.69257 0.99251 0.47889 -0.13300
C 	C 	0.35924 0.32584 0.81223 -0.13200
C 	C 	0.01326 0.66461 0.13961 0.04000
C 	C 	0.67993 0.99794 0.47295 0.04000
C 	C 	0.34660 0.33128 0.80628 0.04000
C 	C 	0.00339 0.64446 0.13401 -0.08100
C 	C 	0.67006 0.97779 0.46734 -0.08000
C 	C 	0.33672 0.31112 0.80068 -0.08000
C 	C 	0.00595 0.61864 0.13427 0.04800
C 	C 	0.67262 0.95197 0.46760 0.04900
C 	C 	0.33928 0.28530 0.80093 0.04800
H 	H 	0.03754 0.62805 0.15031 0.03500
H 	H 	0.70420 0.96138 0.48365 0.03500
H 	H 	0.37087 0.29471 0.81698 0.03500
H 	H 	0.01149 0.68472 0.13928 0.03500
H 	H 	0.67816 0.01805 0.47261 0.03500
H 	H 	0.34483 0.35138 0.80595 0.03500
H 	H 	0.02008 0.59282 0.14042 0.05300
H 	H 	0.68675 0.92615 0.47375 0.05300
H 	H 	0.35341 0.25948 0.80708 0.05300
H 	H 	0.99412 0.64917 0.12943 0.05300
H 	H 	0.66079 0.98250 0.46276 0.05300
H 	H 	0.32745 0.31584 0.79609 0.05200
C 	C 	0.96722 0.42322 0.10471 -0.08000
C 	C 	0.63389 0.75655 0.43804 -0.08000
C 	C 	0.30056 0.08989 0.77138 -0.08000
C 	C 	0.96729 0.39603 0.10471 0.03900
C 	C 	0.63396 0.72936 0.43804 0.03900
C 	C 	0.30063 0.06269 0.77137 0.03900
C 	C 	0.97381 0.38538 0.11086 -0.13100
C 	C 	0.64047 0.71871 0.44419 -0.13200
C 	C 	0.30714 0.05205 0.77752 -0.13200
C 	C 	0.98017 0.40261 0.11700 0.03900
C 	C 	0.64683 0.73594 0.45033 0.04000
C 	C 	0.31350 0.06927 0.78367 0.03900
C 	C 	0.98007 0.42977 0.11698 -0.08000
C 	C 	0.64674 0.76310 0.45031 -0.08000
C 	C 	0.31340 0.09644 0.78365 -0.08000
C 	C 	0.97363 0.44015 0.11084 0.04800
C 	C 	0.64030 0.77348 0.44418 0.04800
C 	C 	0.30697 0.10682 0.77751 0.04800
H 	H 	0.96230 0.38325 0.09990 0.03500
H 	H 	0.62897 0.71658 0.43324 0.03500
H 	H 	0.29563 0.04992 0.76657 0.03500
H 	H 	0.98524 0.39498 0.12181 0.03500
H 	H 	0.65190 0.72831 0.45514 0.03500
H 	H 	0.31857 0.06164 0.78848 0.03500
H 	H 	0.96221 0.43111 0.09994 0.05300
H 	H 	0.62888 0.76444 0.43327 0.05300
H 	H 	0.29555 0.09777 0.76660 0.05300
H 	H 	0.98504 0.44274 0.12175 0.05300
H 	H 	0.65171 0.77607 0.45508 0.05300
H 	H 	0.31838 0.10941 0.78842 0.05300
C 	C 	0.95180 0.57715 0.09379 -0.02100
C 	C 	0.61847 0.91048 0.42712 -0.02100
C 	C 	0.28513 0.24381 0.76045 -0.02100
C 	C 	0.95875 0.56787 0.09881 -0.02200
C 	C 	0.62541 0.90121 0.43214 -0.02200
C 	C 	0.29208 0.23454 0.76547 -0.02200
C 	C 	0.99717 0.59879 0.12835 -0.02100
C 	C 	0.66384 0.93212 0.46168 -0.02100
C 	C 	0.33051 0.26545 0.79501 -0.02100
C 	C 	0.99015 0.58276 0.12328 -0.02200
C 	C 	0.65682 0.91610 0.45662 -0.02200
C 	C 	0.32349 0.24943 0.78995 -0.02200
C 	C 	0.97383 0.49174 0.11087 -0.02200
C 	C 	0.64050 0.82508 0.44420 -0.02200
C 	C 	0.30717 0.15841 0.77753 -0.02200
C 	C 	0.97370 0.46821 0.11084 -0.02100
C 	C 	0.64037 0.80154 0.44417 -0.02100
C 	C 	0.30704 0.13488 0.77751 -0.02100
Zn	Zn	0.67209 0.11331 0.05045 1.27100
Zn	Zn	0.33875 0.44664 0.38379 1.27000
Zn	Zn	0.00542 0.77997 0.71712 1.27100
Zn	Zn	0.63723 0.13103 0.05871 1.26800
Zn	Zn	0.30390 0.46436 0.39204 1.26800
Zn	Zn	0.97056 0.79769 0.72538 1.26800
Zn	Zn	0.67437 0.11039 0.06552 1.26300
Zn	Zn	0.34104 0.44372 0.39885 1.26300
Zn	Zn	0.00770 0.77705 0.73219 1.26300
Zn	Zn	0.70198 0.16788 0.05846 1.26800
Zn	Zn	0.36865 0.50121 0.39179 1.26800
Zn	Zn	0.03532 0.83454 0.72513 1.26800
O 	O 	0.67142 0.13063 0.05832 -1.07400
O 	O 	0.33809 0.46396 0.39166 -1.07500
O 	O 	0.00475 0.79730 0.72499 -1.07400
O 	O 	0.64151 0.10346 0.04501 -0.54400
O 	O 	0.30818 0.43679 0.37834 -0.54300
O 	O 	0.97484 0.77012 0.71167 -0.54300
O 	O 	0.61550 0.11243 0.06598 -0.54200
O 	O 	0.28217 0.44576 0.39931 -0.54100
O 	O 	0.94883 0.77910 0.73264 -0.54100
O 	O 	0.67505 0.07767 0.06304 -0.53600
O 	O 	0.34171 0.41100 0.39638 -0.53500
O 	O 	0.00838 0.74434 0.72971 -0.53500
O 	O 	0.61371 0.11554 0.05141 -0.53600
O 	O 	0.28038 0.44887 0.38474 -0.53600
O 	O 	0.94704 0.78221 0.71807 -0.53600
O 	O 	0.67264 0.08025 0.05162 -0.54600
O 	O 	0.33930 0.41358 0.38495 -0.54500
O 	O 	0.00597 0.74692 0.71829 -0.54600
O 	O 	0.64391 0.09779 0.07133 -0.53600
O 	O 	0.31058 0.43113 0.40466 -0.53600
O 	O 	0.97725 0.76446 0.73800 -0.53600
O 	O 	0.70677 0.13157 0.07074 -0.53000
O 	O 	0.37344 0.46490 0.40407 -0.53000
O 	O 	0.04011 0.79824 0.73740 -0.53000
O 	O 	0.72614 0.17710 0.05130 -0.54000
O 	O 	0.39280 0.51043 0.38463 -0.54000
O 	O 	0.05947 0.84377 0.71796 -0.53900
O 	O 	0.72558 0.17560 0.06560 -0.54200
O 	O 	0.39225 0.50893 0.39893 -0.54200
O 	O 	0.05891 0.84226 0.73226 -0.54300
O 	O 	0.70316 0.13520 0.04525 -0.54400
O 	O 	0.36982 0.46853 0.37858 -0.54400
O 	O 	0.03649 0.80186 0.71192 -0.54400
O 	O 	0.64225 0.16703 0.05927 -0.54300
O 	O 	0.30891 0.50037 0.39261 -0.54300
O 	O 	0.97558 0.83370 0.72594 -0.54300
O 	O 	0.69144 0.19530 0.05877 -0.54000
O 	O 	0.35810 0.52864 0.39210 -0.54000
O 	O 	0.02477 0.86197 0.72544 -0.54000
C 	C 	0.72647 0.15916 0.07037 0.42000
C 	C 	0.39314 0.49249 0.40370 0.42000
C 	C 	0.05980 0.82583 0.73703 0.42000
C 	C 	0.66567 0.19260 0.05918 0.42700
C 	C 	0.33234 0.52593 0.39251 0.42800
C 	C 	0.99901 0.85926 0.72585 0.42800
C 	C 	0.72475 0.16160 0.04605 0.42700
C 	C 	0.39142 0.49493 0.37938 0.42700
C 	C 	0.05808 0.82826 0.71271 0.42800
C 	C 	0.61808 0.10519 0.04583 0.42500
C 	C 	0.28475 0.43852 0.37916 0.42500
C 	C 	0.95141 0.77185 0.71249 0.42500
C 	C 	0.67389 0.06696 0.05703 0.42600
C 	C 	0.34056 0.40029 0.39036 0.42400
C 	C 	0.00722 0.73362 0.72369 0.42600
C 	C 	0.62032 0.09972 0.07104 0.42400
C 	C 	0.28699 0.43305 0.40438 0.42400
C 	C 	0.95366 0.76638 0.73771 0.42300
C 	C 	0.60619 0.87300 0.33088 0.05000
C 	C 	0.27286 0.20634 0.66421 0.05000
C 	C 	0.93952 0.53967 0.99754 0.05000
C 	C 	0.94091 0.49846 0.00329 0.05000
C 	C 	0.60758 0.83180 0.33663 0.05000
C 	C 	0.27424 0.16513 0.66996 0.05000
C 	C 	0.93756 0.53634 0.01018 0.04900
C 	C 	0.60422 0.86967 0.34352 0.04900
C 	C 	0.27089 0.20301 0.67685 0.04900
C 	C 	0.60784 0.84676 0.33052 -0.08500
C 	C 	0.27451 0.18009 0.66386 -0.08500
C 	C 	0.94118 0.51342 0.99719 -0.08500
H 	H 	0.60882 0.83766 0.32548 0.05600
H 	H 	0.27548 0.17100 0.65882 0.05600
H 	H 	0.94215 0.50433 0.99215 0.05600
C 	C 	0.93913 0.50991 0.00982 -0.08400
C 	C 	0.60580 0.84324 0.34315 -0.08400
C 	C 	0.27247 0.17657 0.67648 -0.08400
H 	H 	0.93860 0.49815 0.01455 0.05600
H 	H 	0.60526 0.83149 0.34788 0.05600
H 	H 	0.27193 0.16482 0.68122 0.05600
C 	C 	0.93776 0.55119 0.00403 -0.08400
C 	C 	0.60443 0.88452 0.33736 -0.08400
C 	C 	0.27109 0.21785 0.67070 -0.08400
H 	H 	0.93605 0.57133 0.00429 0.05600
H 	H 	0.60271 0.90466 0.33762 0.05600
H 	H 	0.26938 0.23800 0.67096 0.05600
C 	C 	0.60472 0.93711 0.31159 -0.08100
C 	C 	0.27139 0.27045 0.64492 -0.08100
C 	C 	0.93805 0.60378 0.97826 -0.08100
C 	C 	0.59970 0.94670 0.30516 0.04100
C 	C 	0.26636 0.28003 0.63849 0.04100
C 	C 	0.93303 0.61336 0.97183 0.04100
C 	C 	0.58876 0.92682 0.29944 -0.13500
C 	C 	0.25543 0.26016 0.63277 -0.13500
C 	C 	0.92209 0.59349 0.96610 -0.13500
C 	C 	0.58361 0.89741 0.30026 0.04100
C 	C 	0.25028 0.23075 0.63359 0.04100
C 	C 	0.91694 0.56408 0.96693 0.04200
C 	C 	0.58868 0.88795 0.30669 -0.08100
C 	C 	0.25535 0.22129 0.64002 -0.08100
C 	C 	0.92201 0.55462 0.97335 -0.08100
C 	C 	0.59897 0.90767 0.31237 0.04900
C 	C 	0.26564 0.24100 0.64570 0.04900
C 	C 	0.93231 0.57434 0.97903 0.04900
H 	H 	0.60382 0.96946 0.30467 0.03400
H 	H 	0.27049 0.30279 0.63800 0.03500
H 	H 	0.93716 0.63613 0.97134 0.03500
H 	H 	0.57517 0.88165 0.29595 0.03500
H 	H 	0.24184 0.21498 0.62928 0.03500
H 	H 	0.90851 0.54831 0.96261 0.03500
H 	H 	0.61266 0.95246 0.31598 0.05300
H 	H 	0.27932 0.28579 0.64931 0.05300
H 	H 	0.94599 0.61912 0.98265 0.05300
H 	H 	0.58415 0.86510 0.30727 0.05300
H 	H 	0.25082 0.19843 0.64060 0.05300
H 	H 	0.91748 0.53177 0.97394 0.05300
C 	C 	0.93308 0.60151 0.02802 -0.08000
C 	C 	0.59974 0.93485 0.36135 -0.08100
C 	C 	0.26641 0.26818 0.69469 -0.08000
C 	C 	0.92663 0.61423 0.03374 0.04000
C 	C 	0.59330 0.94757 0.36707 0.04000
C 	C 	0.25996 0.28090 0.70040 0.04000
C 	C 	0.91407 0.59744 0.03987 -0.13300
C 	C 	0.58073 0.93077 0.37320 -0.13300
C 	C 	0.24740 0.26411 0.70653 -0.13300
C 	C 	0.90897 0.56786 0.04020 0.04000
C 	C 	0.57563 0.90120 0.37353 0.04000
C 	C 	0.24230 0.23453 0.70687 0.04000
C 	C 	0.91539 0.55516 0.03444 -0.08000
C 	C 	0.58205 0.88849 0.36778 -0.08000
C 	C 	0.24872 0.22182 0.70111 -0.08000
C 	C 	0.92713 0.57187 0.02832 0.04800
C 	C 	0.59379 0.90520 0.36165 0.04800
C 	C 	0.26046 0.23853 0.69499 0.04800
H 	H 	0.93081 0.63704 0.03332 0.03500
H 	H 	0.59748 0.97037 0.36666 0.03500
H 	H 	0.26415 0.30371 0.69999 0.03500
H 	H 	0.89926 0.55441 0.04485 0.03500
H 	H 	0.56593 0.88774 0.37818 0.03400
H 	H 	0.23259 0.22107 0.71152 0.03400
H 	H 	0.94207 0.61456 0.02329 0.05300
H 	H 	0.60874 0.94790 0.35663 0.05300
H 	H 	0.27541 0.28123 0.68996 0.05300
H 	H 	0.91061 0.53213 0.03470 0.05300
H 	H 	0.57727 0.86547 0.36804 0.05300
H 	H 	0.24394 0.19880 0.70137 0.05300
C 	C 	0.60577 0.74131 0.32765 -0.08100
C 	C 	0.27243 0.07464 0.66099 -0.08100
C 	C 	0.93910 0.40797 0.99432 -0.08100
C 	C 	0.60558 0.71417 0.32676 0.04100
C 	C 	0.27225 0.04751 0.66009 0.04000
C 	C 	0.93892 0.38084 0.99342 0.04000
C 	C 	0.60793 0.69878 0.33257 -0.13400
C 	C 	0.27460 0.03211 0.66591 -0.13400
C 	C 	0.94127 0.36545 0.99924 -0.13400
C 	C 	0.94387 0.37788 0.00594 0.04100
C 	C 	0.61054 0.71122 0.33928 0.04100
C 	C 	0.27721 0.04455 0.67261 0.04100
C 	C 	0.94405 0.40491 0.00681 -0.08100
C 	C 	0.61072 0.73824 0.34014 -0.08100
C 	C 	0.27739 0.07158 0.67348 -0.08100
C 	C 	0.94165 0.41999 0.00102 0.04900
C 	C 	0.60831 0.75332 0.33435 0.04900
C 	C 	0.27498 0.08665 0.66768 0.04900
H 	H 	0.60357 0.70512 0.32154 0.03400
H 	H 	0.27024 0.03845 0.65488 0.03400
H 	H 	0.93691 0.37178 0.98821 0.03400
H 	H 	0.94576 0.36658 0.01053 0.03600
H 	H 	0.61243 0.69991 0.34386 0.03600
H 	H 	0.27909 0.03325 0.67719 0.03600
H 	H 	0.60388 0.75293 0.32314 0.05300
H 	H 	0.27055 0.08626 0.65647 0.05300
H 	H 	0.93721 0.41960 0.98981 0.05300
H 	H 	0.94603 0.41408 0.01200 0.05300
H 	H 	0.61269 0.74741 0.34534 0.05300
H 	H 	0.27936 0.08075 0.67867 0.05300
C 	C 	0.60251 0.89707 0.31903 -0.02200
C 	C 	0.26918 0.23040 0.65236 -0.02200
C 	C 	0.93584 0.56373 0.98570 -0.02200
C 	C 	0.60462 0.88687 0.32451 -0.02200
C 	C 	0.27128 0.22020 0.65784 -0.02200
C 	C 	0.93795 0.55353 0.99118 -0.02200
C 	C 	0.93144 0.55837 0.02216 -0.02100
C 	C 	0.59811 0.89170 0.35549 -0.02100
C 	C 	0.26478 0.22504 0.68883 -0.02100
C 	C 	0.93452 0.54788 0.01680 -0.02200
C 	C 	0.60118 0.88122 0.35013 -0.02200
C 	C 	0.26785 0.21455 0.68346 -0.02200
C 	C 	0.94143 0.47086 0.00272 -0.02200
C 	C 	0.60809 0.80420 0.33605 -0.02200
C 	C 	0.27476 0.13753 0.66939 -0.02200
C 	C 	0.94161 0.44769 0.00198 -0.02200
C 	C 	0.60828 0.78103 0.33531 -0.02200
C 	C 	0.27494 0.11436 0.66865 -0.02200
Zn	Zn	0.64343 0.60525 0.33035 1.26800
Zn	Zn	0.31010 0.93858 0.66368 1.26800
Zn	Zn	0.97676 0.27191 0.99701 1.26800
Zn	Zn	0.60605 0.62534 0.32351 1.26300
Zn	Zn	0.27271 0.95868 0.65684 1.26300
Zn	Zn	0.93938 0.29201 0.99018 1.26300
Zn	Zn	0.57864 0.56851 0.33097 1.26800
Zn	Zn	0.24531 0.90184 0.66430 1.26800
Zn	Zn	0.91197 0.23518 0.99764 1.26800
Zn	Zn	0.94263 0.29063 0.00523 1.27100
Zn	Zn	0.60930 0.62397 0.33856 1.27100
Zn	Zn	0.27597 0.95730 0.67190 1.27100
O 	O 	0.60932 0.60575 0.33080 -1.07500
O 	O 	0.27599 0.93908 0.66414 -1.07400
O 	O 	0.94265 0.27242 0.99747 -1.07500
O 	O 	0.66514 0.62380 0.32306 -0.54100
O 	O 	0.33181 0.95713 0.65639 -0.54100
O 	O 	0.99848 0.29046 0.98973 -0.54100
O 	O 	0.57334 0.60360 0.31845 -0.53000
O 	O 	0.24000 0.93693 0.65179 -0.53100
O 	O 	0.90667 0.27026 0.98512 -0.53100
O 	O 	0.58901 0.54095 0.33039 -0.53900
O 	O 	0.25568 0.87428 0.66372 -0.53900
O 	O 	0.92234 0.20761 0.99705 -0.53900
O 	O 	0.63612 0.63742 0.31762 -0.53700
O 	O 	0.30278 0.97075 0.65096 -0.53800
O 	O 	0.96945 0.30409 0.98429 -0.53700
O 	O 	0.63818 0.56921 0.32972 -0.54400
O 	O 	0.30484 0.90255 0.66305 -0.54400
O 	O 	0.97151 0.23588 0.99639 -0.54400
O 	O 	0.55332 0.56072 0.32417 -0.54000
O 	O 	0.21999 0.89405 0.65750 -0.54000
O 	O 	0.88666 0.22738 0.99083 -0.54000
O 	O 	0.88947 0.22633 0.00510 -0.54100
O 	O 	0.55613 0.55966 0.33843 -0.54000
O 	O 	0.22280 0.89300 0.67176 -0.54000
O 	O 	0.97317 0.30019 0.01067 -0.54300
O 	O 	0.63983 0.63352 0.34401 -0.54300
O 	O 	0.30650 0.96685 0.67734 -0.54300
O 	O 	0.91151 0.26987 0.01050 -0.54400
O 	O 	0.57818 0.60320 0.34383 -0.54400
O 	O 	0.24484 0.93654 0.67717 -0.54400
O 	O 	0.00033 0.28714 0.00431 -0.53600
O 	O 	0.66700 0.62047 0.33765 -0.53600
O 	O 	0.33366 0.95381 0.67098 -0.53700
O 	O 	0.60562 0.65845 0.32582 -0.53300
O 	O 	0.27229 0.99178 0.65915 -0.53300
O 	O 	0.93895 0.32512 0.99249 -0.53400
O 	O 	0.94284 0.32386 0.00390 -0.54800
O 	O 	0.60951 0.65720 0.33723 -0.54900
O 	O 	0.27618 0.99053 0.67056 -0.54900
C 	C 	0.89062 0.24293 0.01008 0.42800
C 	C 	0.55729 0.57627 0.34342 0.42800
C 	C 	0.22396 0.90960 0.67675 0.42700
C 	C 	0.60770 0.66993 0.33179 0.42600
C 	C 	0.27436 0.00327 0.66512 0.42600
C 	C 	0.94103 0.33660 0.99845 0.42600
C 	C 	0.99625 0.29782 0.00988 0.42500
C 	C 	0.66292 0.63116 0.34321 0.42500
C 	C 	0.32959 0.96449 0.67654 0.42600
C 	C 	0.65994 0.63594 0.31793 0.42300
C 	C 	0.32661 0.96928 0.65127 0.42400
C 	C 	0.99327 0.30261 0.98460 0.42300
C 	C 	0.61475 0.54366 0.32983 0.42700
C 	C 	0.28141 0.87700 0.66316 0.42800
C 	C 	0.94808 0.21033 0.99650 0.42700
C 	C 	0.55262 0.57658 0.31922 0.41900
C 	C 	0.21929 0.90991 0.65256 0.42000
C 	C 	0.88595 0.24325 0.98589 0.42000
C 	C 	0.50271 0.04298 0.10518 0.05000
C 	C 	0.16938 0.37631 0.43851 0.05000
C 	C 	0.83604 0.70964 0.77185 0.05000
C 	C 	0.49505 0.02732 0.11730 0.05000
C 	C 	0.16172 0.36066 0.45063 0.05000
C 	C 	0.82838 0.69399 0.78397 0.05000
C 	C 	0.45793 0.03510 0.11130 0.04900
C 	C 	0.12460 0.36843 0.44463 0.04900
C 	C 	0.79127 0.70177 0.77796 0.04900
C 	C 	0.51243 0.03516 0.11122 -0.08400
C 	C 	0.17910 0.36850 0.44456 -0.08400
C 	C 	0.84577 0.70183 0.77789 -0.08400
H 	H 	0.53354 0.03519 0.11119 0.05600
H 	H 	0.20020 0.36852 0.44453 0.05600
H 	H 	0.86687 0.70186 0.77786 0.05600
C 	C 	0.46777 0.02727 0.11734 -0.08400
C 	C 	0.13444 0.36061 0.45068 -0.08400
C 	C 	0.80111 0.69394 0.78401 -0.08400
H 	H 	0.45427 0.02114 0.12205 0.05600
H 	H 	0.12094 0.35447 0.45538 0.05600
H 	H 	0.78760 0.68780 0.78872 0.05600
C 	C 	0.47545 0.04297 0.10521 -0.08400
C 	C 	0.14211 0.37630 0.43855 -0.08400
C 	C 	0.80878 0.70963 0.77188 -0.08400
H 	H 	0.46793 0.04908 0.10054 0.05600
H 	H 	0.13460 0.38241 0.43387 0.05600
H 	H 	0.80126 0.71575 0.76720 0.05600
C 	C 	0.55174 0.07986 0.08220 -0.08000
C 	C 	0.21841 0.41319 0.41553 -0.08100
C 	C 	0.88507 0.74653 0.74887 -0.08000
C 	C 	0.57194 0.08986 0.07660 0.04000
C 	C 	0.23860 0.42319 0.40994 0.04000
C 	C 	0.90527 0.75653 0.74327 0.04000
C 	C 	0.59806 0.08745 0.07682 -0.13300
C 	C 	0.26473 0.42078 0.41015 -0.13300
C 	C 	0.93140 0.75411 0.74349 -0.13200
C 	C 	0.60314 0.07426 0.08271 0.04000
C 	C 	0.26981 0.40760 0.41605 0.04000
C 	C 	0.93647 0.74093 0.74938 0.04000
C 	C 	0.58287 0.06428 0.08830 -0.08000
C 	C 	0.24953 0.39762 0.42163 -0.08000
C 	C 	0.91620 0.73095 0.75497 -0.08000
C 	C 	0.55728 0.06728 0.08807 0.04900
C 	C 	0.22395 0.40061 0.42140 0.04900
C 	C 	0.89061 0.73395 0.75474 0.04900
H 	H 	0.56744 0.09993 0.07214 0.03500
H 	H 	0.23411 0.43327 0.40547 0.03500
H 	H 	0.90078 0.76660 0.73880 0.03600
H 	H 	0.62307 0.07216 0.08302 0.03500
H 	H 	0.28973 0.40549 0.41636 0.03500
H 	H 	0.95640 0.73882 0.74969 0.03500
H 	H 	0.53201 0.08230 0.08199 0.05300
H 	H 	0.19867 0.41563 0.41533 0.05300
H 	H 	0.86534 0.74896 0.74866 0.05300
H 	H 	0.58731 0.05460 0.09284 0.05300
H 	H 	0.25397 0.38793 0.42618 0.05300
H 	H 	0.92064 0.72127 0.75951 0.05300
C 	C 	0.36783 0.04138 0.10529 -0.08000
C 	C 	0.03450 0.37471 0.43862 -0.08000
C 	C 	0.70117 0.70805 0.77195 -0.08000
C 	C 	0.34060 0.04135 0.10530 0.04000
C 	C 	0.00726 0.37468 0.43863 0.03900
C 	C 	0.67393 0.70802 0.77196 0.03900
C 	C 	0.32343 0.03491 0.11145 -0.13200
C 	C 	0.99009 0.36824 0.44479 -0.13100
C 	C 	0.65676 0.70157 0.77812 -0.13100
C 	C 	0.33424 0.02851 0.11759 0.04000
C 	C 	0.00091 0.36184 0.45092 0.03900
C 	C 	0.66757 0.69518 0.78426 0.03900
C 	C 	0.36150 0.02856 0.11756 -0.08000
C 	C 	0.02817 0.36190 0.45089 -0.07900
C 	C 	0.69483 0.69523 0.78422 -0.08000
C 	C 	0.37834 0.03499 0.11141 0.04800
C 	C 	0.04501 0.36832 0.44474 0.04800
C 	C 	0.71167 0.70166 0.77808 0.04800
H 	H 	0.33286 0.04637 0.10049 0.03500
H 	H 	0.99952 0.37971 0.43383 0.03600
H 	H 	0.66619 0.71304 0.76716 0.03500
H 	H 	0.32152 0.02348 0.12241 0.03500
H 	H 	0.98819 0.35681 0.45574 0.03500
H 	H 	0.65486 0.69015 0.78907 0.03500
H 	H 	0.38075 0.04639 0.10051 0.05300
H 	H 	0.04742 0.37972 0.43384 0.05200
H 	H 	0.71408 0.71305 0.76717 0.05300
H 	H 	0.36949 0.02360 0.12232 0.05300
H 	H 	0.03616 0.35693 0.45566 0.05200
H 	H 	0.70282 0.69027 0.78899 0.05300
C 	C 	0.50777 0.99112 0.14028 -0.08000
C 	C 	0.17444 0.32446 0.47361 -0.08100
C 	C 	0.84110 0.65779 0.80694 -0.08100
C 	C 	0.51799 0.98115 0.14586 0.04000
C 	C 	0.18466 0.31449 0.47919 0.04000
C 	C 	0.85133 0.64782 0.81252 0.04000
C 	C 	0.54627 0.98301 0.14555 -0.13300
C 	C 	0.21294 0.31634 0.47888 -0.13300
C 	C 	0.87961 0.64968 0.81222 -0.13300
C 	C 	0.56428 0.99561 0.13958 0.04000
C 	C 	0.23095 0.32895 0.47291 0.04000
C 	C 	0.89761 0.66228 0.80625 0.04000
C 	C 	0.55396 0.00556 0.13401 -0.08000
C 	C 	0.22062 0.33890 0.46734 -0.08000
C 	C 	0.88729 0.67223 0.80068 -0.08000
C 	C 	0.52562 0.00312 0.13433 0.04800
C 	C 	0.19229 0.33645 0.46766 0.04900
C 	C 	0.85895 0.66979 0.80099 0.04900
H 	H 	0.50364 0.97154 0.15039 0.03500
H 	H 	0.17031 0.30487 0.48372 0.03500
H 	H 	0.83697 0.63821 0.81705 0.03500
H 	H 	0.58612 0.99729 0.13920 0.03500
H 	H 	0.25278 0.33063 0.47254 0.03500
H 	H 	0.91945 0.66396 0.80587 0.03500
H 	H 	0.48579 0.98913 0.14055 0.05300
H 	H 	0.15246 0.32246 0.47388 0.05300
H 	H 	0.81913 0.65580 0.80722 0.05300
H 	H 	0.56787 0.01480 0.12941 0.05300
H 	H 	0.23454 0.34814 0.46274 0.05300
H 	H 	0.90120 0.68147 0.79607 0.05300
C 	C 	0.53730 0.05839 0.09397 -0.02100
C 	C 	0.20396 0.39172 0.42730 -0.02100
C 	C 	0.87063 0.72505 0.76064 -0.02100
C 	C 	0.52112 0.05128 0.09901 -0.02200
C 	C 	0.18779 0.38461 0.43235 -0.02200
C 	C 	0.85446 0.71794 0.76568 -0.02200
C 	C 	0.40639 0.03503 0.11138 -0.02100
C 	C 	0.07306 0.36836 0.44471 -0.02100
C 	C 	0.73972 0.70169 0.77804 -0.02100
C 	C 	0.42988 0.03506 0.11134 -0.02200
C 	C 	0.09655 0.36840 0.44467 -0.02200
C 	C 	0.76322 0.70173 0.77801 -0.02200
C 	C 	0.50533 0.01907 0.12343 -0.02200
C 	C 	0.17200 0.35241 0.45677 -0.02200
C 	C 	0.83867 0.68574 0.79010 -0.02200
C 	C 	0.51448 0.01199 0.12845 -0.02100
C 	C 	0.18114 0.34532 0.46179 -0.02100
C 	C 	0.84781 0.67865 0.79512 -0.02100
C 	C 	0.84593 0.20405 0.17670 0.04900
C 	C 	0.51260 0.53738 0.51003 0.04900
C 	C 	0.17927 0.87072 0.84336 0.04900
C 	C 	0.80464 0.16657 0.16975 0.05000
C 	C 	0.47131 0.49990 0.50309 0.05000
C 	C 	0.13798 0.83324 0.83642 0.05000
C 	C 	0.84730 0.20818 0.16407 0.05000
C 	C 	0.51396 0.54152 0.49741 0.05000
C 	C 	0.18063 0.87485 0.83074 0.05000
C 	C 	0.81790 0.17763 0.17629 -0.08400
C 	C 	0.48456 0.51097 0.50962 -0.08400
C 	C 	0.15123 0.84430 0.84295 -0.08400
H 	H 	0.80669 0.16558 0.18100 0.05600
H 	H 	0.47336 0.49891 0.51433 0.05600
H 	H 	0.14003 0.83225 0.84767 0.05600
C 	C 	0.81934 0.18192 0.16367 -0.08500
C 	C 	0.48601 0.51525 0.49701 -0.08500
C 	C 	0.15267 0.84859 0.83034 -0.08500
H 	H 	0.80927 0.17312 0.15862 0.05600
H 	H 	0.47593 0.50645 0.49196 0.05600
H 	H 	0.14260 0.83978 0.82529 0.05600
C 	C 	0.86059 0.21929 0.17058 -0.08400
C 	C 	0.52726 0.55262 0.50391 -0.08500
C 	C 	0.19392 0.88595 0.83724 -0.08400
H 	H 	0.88249 0.23942 0.17087 0.05600
H 	H 	0.54916 0.57275 0.50420 0.05600
H 	H 	0.21582 0.90608 0.83754 0.05600
C 	C 	0.91552 0.26808 0.19466 -0.08000
C 	C 	0.58218 0.60141 0.52800 -0.08100
C 	C 	0.24885 0.93474 0.86133 -0.08000
C 	C 	0.93454 0.28050 0.20040 0.04000
C 	C 	0.60120 0.61383 0.53374 0.04100
C 	C 	0.26787 0.94717 0.86707 0.04000
C 	C 	0.93017 0.26335 0.20648 -0.13300
C 	C 	0.59683 0.59669 0.53981 -0.13300
C 	C 	0.26350 0.93002 0.87314 -0.13300
C 	C 	0.90575 0.23370 0.20672 0.04000
C 	C 	0.57242 0.56703 0.54005 0.04000
C 	C 	0.23909 0.90036 0.87338 0.04000
C 	C 	0.88676 0.22129 0.20093 -0.08000
C 	C 	0.55343 0.55462 0.53427 -0.08000
C 	C 	0.22010 0.88796 0.86760 -0.08000
C 	C 	0.89183 0.23839 0.19487 0.04800
C 	C 	0.55850 0.57172 0.52821 0.04800
C 	C 	0.22517 0.90505 0.86154 0.04800
H 	H 	0.95314 0.30338 0.20006 0.03600
H 	H 	0.61980 0.63671 0.53339 0.03600
H 	H 	0.28647 0.97004 0.86673 0.03600
H 	H 	0.90190 0.21997 0.21132 0.03400
H 	H 	0.56857 0.55331 0.54465 0.03400
H 	H 	0.23524 0.88664 0.87798 0.03400
H 	H 	0.91965 0.28142 0.18998 0.05300
H 	H 	0.58632 0.61475 0.52332 0.05300
H 	H 	0.25299 0.94808 0.85665 0.05300
H 	H 	0.86853 0.19822 0.20112 0.05300
H 	H 	0.53519 0.53156 0.53445 0.05300
H 	H 	0.20186 0.86489 0.86779 0.05300
C 	C 	0.91414 0.27287 0.14493 -0.08100
C 	C 	0.58081 0.60621 0.47826 -0.08100
C 	C 	0.24748 0.93954 0.81160 -0.08100
C 	C 	0.92884 0.28247 0.13850 0.04100
C 	C 	0.59551 0.61580 0.47183 0.04100
C 	C 	0.26218 0.94913 0.80516 0.04100
C 	C 	0.91918 0.26294 0.13271 -0.13400
C 	C 	0.58585 0.59627 0.46604 -0.13500
C 	C 	0.25251 0.92960 0.79937 -0.13500
C 	C 	0.89413 0.23391 0.13347 0.04100
C 	C 	0.56080 0.56724 0.46680 0.04100
C 	C 	0.22746 0.90057 0.80013 0.04100
C 	C 	0.87951 0.22445 0.13989 -0.08100
C 	C 	0.54618 0.55779 0.47322 -0.08100
C 	C 	0.21285 0.89112 0.80655 -0.08100
C 	C 	0.88963 0.24378 0.14564 0.04900
C 	C 	0.55630 0.57711 0.47897 0.04900
C 	C 	0.22296 0.91045 0.81230 0.04900
H 	H 	0.94810 0.30492 0.13805 0.03500
H 	H 	0.61477 0.63826 0.47139 0.03400
H 	H 	0.28143 0.97159 0.80472 0.03500
H 	H 	0.88620 0.21839 0.12910 0.03500
H 	H 	0.55287 0.55173 0.46244 0.03500
H 	H 	0.21953 0.88506 0.79577 0.03500
H 	H 	0.92210 0.28791 0.14938 0.05300
H 	H 	0.58877 0.62124 0.48271 0.05300
H 	H 	0.25544 0.95457 0.81604 0.05300
H 	H 	0.86057 0.20187 0.14041 0.05300
H 	H 	0.52724 0.53521 0.47375 0.05300
H 	H 	0.19391 0.86854 0.80708 0.05300
C 	C 	0.70835 0.07246 0.17335 -0.08100
C 	C 	0.37502 0.40579 0.50669 -0.08100
C 	C 	0.04168 0.73913 0.84002 -0.08100
C 	C 	0.68152 0.04532 0.17252 0.04100
C 	C 	0.34818 0.37866 0.50585 0.04100
C 	C 	0.01485 0.71199 0.83919 0.04100
C 	C 	0.67129 0.03313 0.16582 -0.13400
C 	C 	0.33796 0.36646 0.49915 -0.13400
C 	C 	0.00463 0.69979 0.83248 -0.13400
C 	C 	0.68863 0.04885 0.15997 0.04000
C 	C 	0.35530 0.38218 0.49330 0.04000
C 	C 	0.02197 0.71551 0.82664 0.04100
C 	C 	0.71555 0.07608 0.16083 -0.08100
C 	C 	0.38222 0.40941 0.49416 -0.08100
C 	C 	0.04889 0.74274 0.82750 -0.08100
C 	C 	0.72541 0.08788 0.16753 0.04900
C 	C 	0.39208 0.42121 0.50086 0.04900
C 	C 	0.05875 0.75454 0.83419 0.04900
H 	H 	0.66864 0.03376 0.17713 0.03600
H 	H 	0.33531 0.36709 0.51046 0.03600
H 	H 	0.00197 0.70042 0.84379 0.03600
H 	H 	0.68128 0.03999 0.15476 0.03400
H 	H 	0.34795 0.37333 0.48809 0.03400
H 	H 	0.01462 0.70666 0.82142 0.03400
H 	H 	0.71585 0.08146 0.17855 0.05300
H 	H 	0.38252 0.41479 0.51188 0.05300
H 	H 	0.04919 0.74812 0.84521 0.05300
H 	H 	0.72873 0.08795 0.15629 0.05300
H 	H 	0.39540 0.42128 0.48963 0.05300
H 	H 	0.06207 0.75462 0.82296 0.05300
C 	C 	0.87407 0.22529 0.18870 -0.02100
C 	C 	0.54074 0.55862 0.52203 -0.02100
C 	C 	0.20741 0.89195 0.85536 -0.02100
C 	C 	0.86053 0.21516 0.18332 -0.02200
C 	C 	0.52720 0.54849 0.51665 -0.02200
C 	C 	0.19387 0.88183 0.84999 -0.02200
C 	C 	0.87535 0.23297 0.15229 -0.02200
C 	C 	0.54201 0.56631 0.48562 -0.02200
C 	C 	0.20868 0.89964 0.81895 -0.02200
C 	C 	0.86286 0.22245 0.15774 -0.02200
C 	C 	0.52953 0.55578 0.49107 -0.02200
C 	C 	0.19619 0.88912 0.82441 -0.02200
C 	C 	0.77651 0.13892 0.16916 -0.02200
C 	C 	0.44318 0.47226 0.50249 -0.02200
C 	C 	0.10984 0.80559 0.83583 -0.02200
C 	C 	0.75315 0.11569 0.16844 -0.02200
C 	C 	0.41982 0.44902 0.50178 -0.02200
C 	C 	0.08648 0.78236 0.83511 -0.02200
C 	C 	0.47651 0.99899 0.21225 0.04900
C 	C 	0.14317 0.33232 0.54558 0.04900
C 	C 	0.80984 0.66566 0.87891 0.04900
C 	C 	0.47973 0.00114 0.22489 0.05000
C 	C 	0.14639 0.33447 0.55822 0.05000
C 	C 	0.81306 0.66780 0.89155 0.05000
C 	C 	0.43845 0.00226 0.21908 0.05000
C 	C 	0.10511 0.33560 0.55241 0.04900
C 	C 	0.77178 0.66893 0.88575 0.05000
C 	C 	0.49133 0.99934 0.21841 -0.08500
C 	C 	0.15800 0.33268 0.55175 -0.08400
C 	C 	0.82466 0.66601 0.88508 -0.08400
H 	H 	0.51152 0.99768 0.21818 0.05600
H 	H 	0.17818 0.33102 0.55151 0.05600
H 	H 	0.84485 0.66435 0.88484 0.05600
C 	C 	0.45338 0.00268 0.22521 -0.08500
C 	C 	0.12005 0.33601 0.55854 -0.08400
C 	C 	0.78671 0.66934 0.89187 -0.08500
H 	H 	0.44419 0.00364 0.23023 0.05600
H 	H 	0.11086 0.33698 0.56357 0.05600
H 	H 	0.77752 0.67031 0.89690 0.05600
C 	C 	0.45001 0.00046 0.21258 -0.08400
C 	C 	0.11668 0.33379 0.54591 -0.08400
C 	C 	0.78334 0.66712 0.87925 -0.08400
H 	H 	0.43827 0.99977 0.20783 0.05600
H 	H 	0.10494 0.33311 0.54116 0.05600
H 	H 	0.77161 0.66644 0.87450 0.05600
C 	C 	0.49497 0.97683 0.18799 -0.08000
C 	C 	0.16164 0.31016 0.52132 -0.08000
C 	C 	0.82830 0.64350 0.85466 -0.08000
C 	C 	0.50739 0.97026 0.18221 0.04000
C 	C 	0.17405 0.30359 0.51554 0.04000
C 	C 	0.84072 0.63692 0.84887 0.04000
C 	C 	0.53669 0.97460 0.18252 -0.13300
C 	C 	0.20336 0.30793 0.51585 -0.13300
C 	C 	0.87003 0.64127 0.84919 -0.13200
C 	C 	0.55351 0.98648 0.18868 0.04000
C 	C 	0.22017 0.31981 0.52201 0.04000
C 	C 	0.88684 0.65315 0.85535 0.04000
C 	C 	0.54107 0.99307 0.19443 -0.08100
C 	C 	0.20773 0.32641 0.52776 -0.08100
C 	C 	0.87440 0.65974 0.86109 -0.08000
C 	C 	0.51170 0.98795 0.19413 0.04800
C 	C 	0.17836 0.32128 0.52746 0.04800
C 	C 	0.84503 0.65462 0.86080 0.04800
H 	H 	0.49392 0.96108 0.17754 0.03500
H 	H 	0.16059 0.29442 0.51087 0.03400
H 	H 	0.82725 0.62775 0.84420 0.03500
H 	H 	0.57610 0.99005 0.18908 0.03600
H 	H 	0.24277 0.32338 0.52241 0.03600
H 	H 	0.90944 0.65671 0.85575 0.03600
H 	H 	0.47215 0.97269 0.18774 0.05300
H 	H 	0.13882 0.30602 0.52107 0.05300
H 	H 	0.80549 0.63935 0.85440 0.05300
H 	H 	0.55412 0.00157 0.19917 0.05300
H 	H 	0.22078 0.33491 0.53250 0.05300
H 	H 	0.88745 0.66824 0.86584 0.05300
C 	C 	0.34395 0.00358 0.21530 -0.08100
C 	C 	0.01061 0.33691 0.54863 -0.08100
C 	C 	0.67728 0.67025 0.88197 -0.08100
C 	C 	0.31684 0.00334 0.21612 0.04100
C 	C 	0.98350 0.33667 0.54946 0.04100
C 	C 	0.65017 0.67000 0.88279 0.04100
C 	C 	0.30484 0.00189 0.22283 -0.13300
C 	C 	0.97151 0.33522 0.55616 -0.13300
C 	C 	0.63817 0.66856 0.88950 -0.13300
C 	C 	0.32068 0.00064 0.22869 0.04000
C 	C 	0.98734 0.33398 0.56202 0.04000
C 	C 	0.65401 0.66731 0.89536 0.04000
C 	C 	0.34787 0.00090 0.22784 -0.08000
C 	C 	0.01453 0.33423 0.56117 -0.08100
C 	C 	0.68120 0.66756 0.89450 -0.08000
C 	C 	0.35952 0.00240 0.22114 0.04900
C 	C 	0.02619 0.33573 0.55448 0.04900
C 	C 	0.69285 0.66906 0.88781 0.04900
H 	H 	0.30516 0.00433 0.21151 0.03600
H 	H 	0.97183 0.33766 0.54485 0.03600
H 	H 	0.63849 0.67099 0.87818 0.03600
H 	H 	0.31197 0.99954 0.23390 0.03400
H 	H 	0.97864 0.33287 0.56724 0.03400
H 	H 	0.64531 0.66621 0.90057 0.03400
H 	H 	0.35282 0.00471 0.21011 0.05300
H 	H 	0.01949 0.33804 0.54344 0.05300
H 	H 	0.68615 0.67138 0.87677 0.05300
H 	H 	0.35985 0.99994 0.23239 0.05300
H 	H 	0.02652 0.33327 0.56572 0.05300
H 	H 	0.69318 0.66660 0.89905 0.05300
C 	C 	0.49519 0.98425 0.24910 -0.08100
C 	C 	0.16186 0.31758 0.58243 -0.08100
C 	C 	0.82853 0.65091 0.91576 -0.08100
C 	C 	0.50464 0.97900 0.25550 0.04100
C 	C 	0.17130 0.31233 0.58884 0.04100
C 	C 	0.83797 0.64566 0.92217 0.04100
C 	C 	0.53375 0.98324 0.25626 -0.13500
C 	C 	0.20042 0.31657 0.58959 -0.13400
C 	C 	0.86709 0.64991 0.92293 -0.13500
C 	C 	0.55337 0.99345 0.25048 0.04100
C 	C 	0.22004 0.32678 0.58381 0.04100
C 	C 	0.88670 0.66011 0.91715 0.04100
C 	C 	0.54379 0.99865 0.24407 -0.08100
C 	C 	0.21046 0.33198 0.57740 -0.08100
C 	C 	0.87713 0.66532 0.91073 -0.08100
C 	C 	0.51462 0.99382 0.24336 0.04900
C 	C 	0.18129 0.32716 0.57669 0.04900
C 	C 	0.84796 0.66049 0.91003 0.04900
H 	H 	0.48905 0.97115 0.25986 0.03500
H 	H 	0.15572 0.30448 0.59319 0.03500
H 	H 	0.82239 0.63782 0.92652 0.03500
H 	H 	0.57590 0.99687 0.25092 0.03500
H 	H 	0.24257 0.33020 0.58425 0.03500
H 	H 	0.90924 0.66354 0.91759 0.03500
H 	H 	0.47255 0.98041 0.24857 0.05300
H 	H 	0.13922 0.31375 0.58191 0.05300
H 	H 	0.80588 0.64708 0.91524 0.05300
H 	H 	0.55891 0.00601 0.23963 0.05300
H 	H 	0.22558 0.33934 0.57297 0.05300
H 	H 	0.89225 0.67267 0.90630 0.05300
C 	C 	0.49845 0.99253 0.20030 -0.02100
C 	C 	0.16511 0.32586 0.53363 -0.02100
C 	C 	0.83178 0.65920 0.86696 -0.02100
C 	C 	0.48806 0.99579 0.20565 -0.02200
C 	C 	0.15472 0.32912 0.53899 -0.02200
C 	C 	0.82139 0.66245 0.87232 -0.02200
C 	C 	0.38740 0.00259 0.22025 -0.02100
C 	C 	0.05406 0.33592 0.55359 -0.02200
C 	C 	0.72073 0.66925 0.88692 -0.02100
C 	C 	0.41070 0.00259 0.21959 -0.02200
C 	C 	0.07737 0.33592 0.55292 -0.02200
C 	C 	0.74404 0.66925 0.88626 -0.02200
C 	C 	0.49361 0.99960 0.23125 -0.02200
C 	C 	0.16027 0.33294 0.56459 -0.02200
C 	C 	0.82694 0.66627 0.89792 -0.02200
C 	C 	0.50391 0.99747 0.23672 -0.02200
C 	C 	0.17058 0.33080 0.57005 -0.02200
C 	C 	0.83725 0.66413 0.90339 -0.02200
Zn	Zn	0.17514 0.97344 0.22476 1.26800
Zn	Zn	0.84181 0.30677 0.55809 1.26800
Zn	Zn	0.50848 0.64011 0.89142 1.26800
Zn	Zn	0.21160 0.03823 0.22519 1.26800
Zn	Zn	0.87827 0.37156 0.55853 1.26800
Zn	Zn	0.54493 0.70489 0.89186 1.26800
Zn	Zn	0.23226 0.00128 0.23202 1.26300
Zn	Zn	0.89893 0.33461 0.56535 1.26300
Zn	Zn	0.56560 0.66794 0.89868 1.26300
Zn	Zn	0.23011 0.00400 0.21691 1.27000
Zn	Zn	0.89678 0.33733 0.55024 1.27000
Zn	Zn	0.56344 0.67066 0.88358 1.27000
O 	O 	0.21230 0.00421 0.22475 -1.07400
O 	O 	0.87897 0.33755 0.55809 -1.07400
O 	O 	0.54563 0.67088 0.89142 -1.07400
O 	O 	0.14739 0.98363 0.22527 -0.53800
O 	O 	0.81406 0.31696 0.55861 -0.53800
O 	O 	0.48073 0.65030 0.89194 -0.53800
O 	O 	0.23014 0.06004 0.23246 -0.54100
O 	O 	0.89681 0.39338 0.56579 -0.54100
O 	O 	0.56348 0.72671 0.89913 -0.54100
O 	O 	0.21088 0.96886 0.23721 -0.53000
O 	O 	0.87754 0.30219 0.57054 -0.53000
O 	O 	0.54421 0.63552 0.90388 -0.53000
O 	O 	0.17548 0.03283 0.22580 -0.54400
O 	O 	0.84215 0.36616 0.55914 -0.54300
O 	O 	0.50881 0.69950 0.89247 -0.54300
O 	O 	0.16769 0.94872 0.23164 -0.54300
O 	O 	0.83436 0.28205 0.56497 -0.54200
O 	O 	0.50102 0.61538 0.89831 -0.54200
O 	O 	0.24472 0.03164 0.23783 -0.53800
O 	O 	0.91138 0.36497 0.57116 -0.53700
O 	O 	0.57805 0.69831 0.90449 -0.53800
O 	O 	0.26509 0.00060 0.22960 -0.53400
O 	O 	0.93176 0.33393 0.56294 -0.53400
O 	O 	0.59842 0.66727 0.89627 -0.53500
O 	O 	0.20855 0.97326 0.21156 -0.54300
O 	O 	0.87522 0.30660 0.54489 -0.54300
O 	O 	0.54189 0.63993 0.87822 -0.54200
O 	O 	0.26312 0.00342 0.21817 -0.54500
O 	O 	0.92979 0.33675 0.55150 -0.54500
O 	O 	0.59645 0.67008 0.88484 -0.54600
O 	O 	0.16620 0.95031 0.21744 -0.54100
O 	O 	0.83287 0.28364 0.55077 -0.54200
O 	O 	0.49953 0.61697 0.88411 -0.54200
O 	O 	0.22691 0.06185 0.21790 -0.53700
O 	O 	0.89357 0.39518 0.55124 -0.53600
O 	O 	0.56024 0.72851 0.88457 -0.53700
O 	O 	0.24019 0.03487 0.21155 -0.54400
O 	O 	0.90685 0.36821 0.54488 -0.54300
O 	O 	0.57352 0.70154 0.87821 -0.54300
C 	C 	0.27611 0.00194 0.22361 0.42500
C 	C 	0.94278 0.33528 0.55694 0.42400
C 	C 	0.60945 0.66861 0.89028 0.42500
C 	C 	0.23785 0.05795 0.21236 0.42600
C 	C 	0.90452 0.39129 0.54569 0.42500
C 	C 	0.57118 0.72462 0.87903 0.42500
C 	C 	0.18196 0.95186 0.21223 0.42800
C 	C 	0.84862 0.28520 0.54556 0.42800
C 	C 	0.51529 0.61853 0.87890 0.42700
C 	C 	0.14997 0.00933 0.22574 0.42600
C 	C 	0.81664 0.34266 0.55908 0.42600
C 	C 	0.48330 0.67600 0.89241 0.42600
C 	C 	0.18378 0.94818 0.23654 0.42100
C 	C 	0.85045 0.28152 0.56988 0.42000
C 	C 	0.51711 0.61485 0.90321 0.42100
C 	C 	0.24283 0.05522 0.23753 0.42400
C 	C 	0.90950 0.38856 0.57087 0.42300
C 	C 	0.57616 0.72189 0.90420 0.42500
C 	C 	0.17853 0.40093 0.33110 0.05000
C 	C 	0.84520 0.73426 0.66443 0.05000
C 	C 	0.51187 0.06760 0.99776 0.05000
C 	C 	0.51075 0.06996 0.01040 0.04900
C 	C 	0.17742 0.40329 0.34373 0.04900
C 	C 	0.84408 0.73663 0.67707 0.04900
C 	C 	0.46914 0.06591 0.00357 0.05000
C 	C 	0.13580 0.39925 0.33691 0.05000
C 	C 	0.80247 0.73258 0.67024 0.05000
C 	C 	0.52534 0.06972 0.00424 -0.08400
C 	C 	0.19201 0.40305 0.33757 -0.08400
C 	C 	0.85868 0.73639 0.67090 -0.08400
H 	H 	0.54735 0.07173 0.00447 0.05600
H 	H 	0.21401 0.40506 0.33780 0.05600
H 	H 	0.88068 0.73840 0.67114 0.05600
C 	C 	0.48258 0.06805 0.01007 -0.08400
C 	C 	0.14925 0.40139 0.34340 -0.08400
C 	C 	0.81592 0.73472 0.67674 -0.08400
H 	H 	0.47144 0.06866 0.01482 0.05600
H 	H 	0.13810 0.40200 0.34815 0.05600
H 	H 	0.80477 0.73533 0.68149 0.05600
C 	C 	0.15044 0.39894 0.33078 -0.08500
C 	C 	0.81711 0.73227 0.66411 -0.08500
C 	C 	0.48378 0.06561 0.99745 -0.08500
H 	H 	0.14022 0.39773 0.32575 0.05600
H 	H 	0.80689 0.73106 0.65909 0.05600
H 	H 	0.47356 0.06439 0.99242 0.05600
C 	C 	0.24520 0.40348 0.31189 -0.08100
C 	C 	0.91187 0.73681 0.64522 -0.08100
C 	C 	0.57853 0.07015 0.97855 -0.08100
C 	C 	0.25999 0.40860 0.30546 0.04100
C 	C 	0.92665 0.74193 0.63880 0.04100
C 	C 	0.59332 0.07526 0.97213 0.04100
C 	C 	0.25066 0.41881 0.29969 -0.13400
C 	C 	0.91733 0.75214 0.63302 -0.13400
C 	C 	0.58399 0.08547 0.96635 -0.13400
C 	C 	0.22587 0.42318 0.30045 0.04100
C 	C 	0.89254 0.75652 0.63379 0.04100
C 	C 	0.55920 0.08985 0.96712 0.04100
C 	C 	0.21116 0.41802 0.30687 -0.08100
C 	C 	0.87783 0.75135 0.64020 -0.08100
C 	C 	0.54450 0.08468 0.97353 -0.08100
C 	C 	0.22093 0.40840 0.31260 0.04900
C 	C 	0.88759 0.74174 0.64593 0.04900
C 	C 	0.55426 0.07507 0.97927 0.04900
H 	H 	0.27904 0.40509 0.30502 0.03500
H 	H 	0.94571 0.73843 0.63835 0.03500
H 	H 	0.61238 0.07176 0.97169 0.03500
H 	H 	0.21820 0.43105 0.29610 0.03500
H 	H 	0.88487 0.76438 0.62943 0.03500
H 	H 	0.55154 0.09771 0.96276 0.03500
H 	H 	0.25290 0.39609 0.31632 0.05300
H 	H 	0.91956 0.72943 0.64965 0.05300
H 	H 	0.58623 0.06276 0.98298 0.05300
H 	H 	0.19241 0.42193 0.30739 0.05300
H 	H 	0.85907 0.75526 0.64073 0.05300
H 	H 	0.52574 0.08859 0.97406 0.05300
C 	C 	0.04810 0.40137 0.32776 -0.07900
C 	C 	0.71477 0.73471 0.66110 -0.07900
C 	C 	0.38143 0.06804 0.99443 -0.07900
C 	C 	0.02150 0.40198 0.32666 0.03700
C 	C 	0.68817 0.73531 0.66000 0.03700
C 	C 	0.35484 0.06864 0.99333 0.03700
C 	C 	0.00317 0.39990 0.33234 -0.12700
C 	C 	0.66984 0.73324 0.66568 -0.12600
C 	C 	0.33650 0.06657 0.99901 -0.12700
C 	C 	0.34539 0.06379 0.00580 0.03700
C 	C 	0.01206 0.39712 0.33913 0.03700
C 	C 	0.67872 0.73046 0.67247 0.03700
C 	C 	0.37197 0.06320 0.00687 -0.07900
C 	C 	0.03864 0.39653 0.34021 -0.07900
C 	C 	0.70531 0.72986 0.67354 -0.07900
C 	C 	0.39003 0.06535 0.00120 0.04700
C 	C 	0.05670 0.39868 0.33453 0.04700
C 	C 	0.72337 0.73202 0.66786 0.04700
H 	H 	0.01520 0.40412 0.32139 0.03600
H 	H 	0.68187 0.73745 0.65472 0.03600
H 	H 	0.34853 0.07078 0.98805 0.03600
H 	H 	0.33171 0.06215 0.01027 0.03700
H 	H 	0.99838 0.39548 0.34361 0.03800
H 	H 	0.66505 0.72881 0.67694 0.03800
H 	H 	0.06205 0.40309 0.32334 0.05200
H 	H 	0.72872 0.73642 0.65668 0.05200
H 	H 	0.39539 0.06976 0.99001 0.05200
H 	H 	0.37853 0.06115 0.01212 0.05300
H 	H 	0.04520 0.39448 0.34546 0.05300
H 	H 	0.71187 0.72782 0.67879 0.05300
C 	C 	0.55215 0.09369 0.03458 -0.08000
C 	C 	0.21882 0.42702 0.36792 -0.08000
C 	C 	0.88549 0.76036 0.70125 -0.08000
C 	C 	0.57134 0.10050 0.04033 0.04000
C 	C 	0.23801 0.43383 0.37366 0.04000
C 	C 	0.90468 0.76716 0.70700 0.04000
C 	C 	0.59596 0.09562 0.04003 -0.13300
C 	C 	0.26263 0.42895 0.37336 -0.13300
C 	C 	0.92930 0.76229 0.70670 -0.13300
C 	C 	0.60031 0.08292 0.03393 0.04000
C 	C 	0.26698 0.41626 0.36727 0.04100
C 	C 	0.93364 0.74959 0.70060 0.04000
C 	C 	0.58109 0.07609 0.02822 -0.08100
C 	C 	0.24776 0.40943 0.36156 -0.08100
C 	C 	0.91442 0.74276 0.69489 -0.08100
C 	C 	0.55722 0.08178 0.02850 0.04800
C 	C 	0.22388 0.41511 0.36183 0.04800
C 	C 	0.89055 0.74845 0.69516 0.04800
H 	H 	0.56750 0.11029 0.04495 0.03400
H 	H 	0.23417 0.44363 0.37829 0.03400
H 	H 	0.90083 0.77696 0.71162 0.03400
H 	H 	0.61905 0.07890 0.03354 0.03500
H 	H 	0.28572 0.41223 0.36688 0.03500
H 	H 	0.95238 0.74557 0.70021 0.03500
H 	H 	0.53377 0.09827 0.03482 0.05300
H 	H 	0.20044 0.43160 0.36815 0.05300
H 	H 	0.86710 0.76494 0.70148 0.05300
H 	H 	0.58521 0.06697 0.02352 0.05300
H 	H 	0.25188 0.40031 0.35686 0.05300
H 	H 	0.91855 0.73364 0.69019 0.05300
C 	C 	0.20652 0.40476 0.31925 -0.02100
C 	C 	0.87319 0.73809 0.65258 -0.02100
C 	C 	0.53985 0.07142 0.98591 -0.02200
C 	C 	0.19403 0.40257 0.32472 -0.02200
C 	C 	0.86070 0.73591 0.65805 -0.02200
C 	C 	0.52737 0.06924 0.99139 -0.02200
C 	C 	0.41760 0.06516 0.00230 -0.02100
C 	C 	0.08426 0.39849 0.33564 -0.02100
C 	C 	0.75093 0.73182 0.66897 -0.02100
C 	C 	0.44093 0.06529 0.00305 -0.02200
C 	C 	0.10760 0.39863 0.33638 -0.02200
C 	C 	0.77427 0.73196 0.66971 -0.02200
C 	C 	0.52556 0.07347 0.01700 -0.02200
C 	C 	0.19223 0.40681 0.35033 -0.02200
C 	C 	0.85889 0.74014 0.68366 -0.02200
C 	C 	0.53927 0.07696 0.02235 -0.02100
C 	C 	0.20593 0.41030 0.35568 -0.02100
C 	C 	0.87260 0.74363 0.68901 -0.02100
Zn	Zn	0.08709 0.73388 0.27948 1.26700
Zn	Zn	0.75375 0.06721 0.61281 1.26700
Zn	Zn	0.42042 0.40054 0.94614 1.26700
Zn	Zn	0.03545 0.71035 0.27041 1.26600
Zn	Zn	0.70212 0.04368 0.60375 1.26600
Zn	Zn	0.36879 0.37701 0.93708 1.26600
Zn	Zn	0.05539 0.67074 0.27603 1.26800
Zn	Zn	0.72205 0.00407 0.60937 1.26800
Zn	Zn	0.38872 0.33740 0.94270 1.26800
Zn	Zn	0.02720 0.69432 0.28503 1.26600
Zn	Zn	0.69387 0.02766 0.61836 1.26600
Zn	Zn	0.36053 0.36099 0.95170 1.26700
O 	O 	0.05128 0.70234 0.27774 -1.07200
O 	O 	0.71795 0.03567 0.61107 -1.07300
O 	O 	0.38462 0.36900 0.94441 -1.07200
O 	O 	0.09806 0.76392 0.27366 -0.53600
O 	O 	0.76473 0.09726 0.60699 -0.53600
O 	O 	0.43140 0.43059 0.94033 -0.53600
O 	O 	0.02834 0.68581 0.26342 -0.54000
O 	O 	0.69500 0.01915 0.59675 -0.53900
O 	O 	0.36167 0.35248 0.93008 -0.53900
O 	O 	0.09245 0.67826 0.27640 -0.54000
O 	O 	0.75911 0.01160 0.60974 -0.54100
O 	O 	0.42578 0.34493 0.94307 -0.54100
O 	O 	0.05831 0.74628 0.26688 -0.53700
O 	O 	0.72497 0.07961 0.60021 -0.53700
O 	O 	0.39164 0.41295 0.93355 -0.53700
O 	O 	0.11656 0.72618 0.27916 -0.54000
O 	O 	0.78323 0.05951 0.61249 -0.54000
O 	O 	0.44990 0.39284 0.94583 -0.54000
O 	O 	0.04308 0.65566 0.26775 -0.54300
O 	O 	0.70975 0.98900 0.60109 -0.54300
O 	O 	0.37642 0.32233 0.93442 -0.54300
O 	O 	0.03607 0.64073 0.28184 -0.53700
O 	O 	0.70274 0.97406 0.61517 -0.53700
O 	O 	0.36941 0.30740 0.94850 -0.53700
O 	O 	0.04446 0.71880 0.29203 -0.54000
O 	O 	0.71113 0.05213 0.62536 -0.54000
O 	O 	0.37780 0.38547 0.95870 -0.54000
O 	O 	0.01385 0.65838 0.28858 -0.53700
O 	O 	0.68051 0.99172 0.62191 -0.53700
O 	O 	0.34718 0.32505 0.95524 -0.53700
O 	O 	0.08963 0.74892 0.28777 -0.54200
O 	O 	0.75630 0.08225 0.62110 -0.54200
O 	O 	0.42296 0.41559 0.95444 -0.54200
O 	O 	0.00103 0.70834 0.27213 -0.53900
O 	O 	0.66769 0.04167 0.60546 -0.53900
O 	O 	0.33436 0.37501 0.93880 -0.53900
O 	O 	0.99489 0.69638 0.28327 -0.53900
O 	O 	0.66156 0.02971 0.61660 -0.53900
O 	O 	0.32823 0.36305 0.94993 -0.54000
C 	C 	0.01919 0.63771 0.28694 0.42200
C 	C 	0.68586 0.97104 0.62027 0.42100
C 	C 	0.35253 0.30437 0.95360 0.42100
C 	C 	0.98584 0.70235 0.27769 0.42300
C 	C 	0.65251 0.03569 0.61102 0.42300
C 	C 	0.31918 0.36902 0.94436 0.42500
C 	C 	0.07075 0.74092 0.29269 0.42600
C 	C 	0.73742 0.07426 0.62602 0.42500
C 	C 	0.40409 0.40759 0.95935 0.42700
C 	C 	0.08434 0.76695 0.26854 0.42100
C 	C 	0.75101 0.10028 0.60187 0.42000
C 	C 	0.41768 0.43362 0.93521 0.42000
C 	C 	0.11658 0.70216 0.27779 0.42600
C 	C 	0.78324 0.03549 0.61112 0.42700
C 	C 	0.44991 0.36883 0.94446 0.42700
C 	C 	0.03240 0.66363 0.26280 0.42700
C 	C 	0.69906 0.99696 0.59614 0.42600
C 	C 	0.36573 0.33030 0.92947 0.42600
Zn	Zn	0.31418 0.42924 0.28537 1.26600
Zn	Zn	0.98085 0.76258 0.61871 1.26600
Zn	Zn	0.64752 0.09591 0.95204 1.26600
Zn	Zn	0.29867 0.42155 0.27072 1.26600
Zn	Zn	0.96534 0.75488 0.60406 1.26600
Zn	Zn	0.63200 0.08821 0.93739 1.26600
Zn	Zn	0.27468 0.44937 0.27975 1.26700
Zn	Zn	0.94134 0.78270 0.61309 1.26700
Zn	Zn	0.60801 0.11604 0.94642 1.26700
Zn	Zn	0.33801 0.48118 0.27640 1.26700
Zn	Zn	0.00468 0.81451 0.60974 1.26700
Zn	Zn	0.67135 0.14785 0.94307 1.26700
O 	O 	0.30638 0.44533 0.27806 -1.07200
O 	O 	0.97305 0.77866 0.61140 -1.07200
O 	O 	0.63972 0.11200 0.94473 -1.07200
O 	O 	0.31234 0.39494 0.28360 -0.53900
O 	O 	0.97901 0.72828 0.61693 -0.53900
O 	O 	0.64568 0.06161 0.95026 -0.54000
O 	O 	0.26273 0.40815 0.26716 -0.53700
O 	O 	0.92940 0.74149 0.60049 -0.53600
O 	O 	0.59607 0.07482 0.93383 -0.53700
O 	O 	0.25944 0.43688 0.28804 -0.54100
O 	O 	0.92610 0.77021 0.62137 -0.54100
O 	O 	0.59277 0.10354 0.95471 -0.54100
O 	O 	0.30100 0.38931 0.27243 -0.53900
O 	O 	0.96767 0.72264 0.60576 -0.53900
O 	O 	0.63434 0.05598 0.93909 -0.53900
O 	O 	0.28948 0.42194 0.29235 -0.53900
O 	O 	0.95615 0.75527 0.62568 -0.53900
O 	O 	0.62281 0.08860 0.95902 -0.53900
O 	O 	0.24478 0.43013 0.27389 -0.53600
O 	O 	0.91145 0.76347 0.60723 -0.53600
O 	O 	0.57811 0.09680 0.94056 -0.53600
O 	O 	0.28225 0.48650 0.27943 -0.54000
O 	O 	0.94892 0.81983 0.61276 -0.54000
O 	O 	0.61559 0.15317 0.94609 -0.54000
O 	O 	0.36799 0.49185 0.28223 -0.53600
O 	O 	0.03466 0.82519 0.61557 -0.53600
O 	O 	0.70133 0.15852 0.94890 -0.53600
O 	O 	0.33034 0.51063 0.27681 -0.54000
O 	O 	0.99700 0.84396 0.61015 -0.54000
O 	O 	0.66367 0.17729 0.94348 -0.54000
O 	O 	0.35004 0.45194 0.28896 -0.53700
O 	O 	0.01671 0.78527 0.62230 -0.53700
O 	O 	0.68338 0.11861 0.95563 -0.53700
O 	O 	0.32318 0.43923 0.26373 -0.53900
O 	O 	0.98984 0.77257 0.59707 -0.53900
O 	O 	0.65651 0.10590 0.93040 -0.53900
O 	O 	0.35314 0.48420 0.26810 -0.54200
O 	O 	0.01981 0.81753 0.60143 -0.54200
O 	O 	0.68648 0.15086 0.93476 -0.54200
C 	C 	0.30629 0.51066 0.27813 0.42600
C 	C 	0.97295 0.84399 0.61146 0.42600
C 	C 	0.63962 0.17733 0.94480 0.42700
C 	C 	0.34520 0.46561 0.26312 0.42500
C 	C 	0.01187 0.79894 0.59646 0.42500
C 	C 	0.67854 0.13228 0.92979 0.42600
C 	C 	0.37084 0.47797 0.28734 0.42000
C 	C 	0.03751 0.81130 0.62067 0.42100
C 	C 	0.70417 0.14463 0.95401 0.42100
C 	C 	0.30680 0.38008 0.27800 0.42300
C 	C 	0.97347 0.71341 0.61133 0.42300
C 	C 	0.64014 0.04675 0.94467 0.42300
C 	C 	0.26733 0.42607 0.29298 0.42500
C 	C 	0.93400 0.75940 0.62631 0.42500
C 	C 	0.60067 0.09274 0.95965 0.42500
C 	C 	0.24195 0.41340 0.26878 0.42100
C 	C 	0.90862 0.74673 0.60211 0.42000
C 	C 	0.57528 0.08006 0.93544 0.42000
C 	C 	0.33364 0.72831 0.27799 0.05000
C 	C 	0.00031 0.06164 0.61132 0.04900
C 	C 	0.66697 0.39498 0.94466 0.04900
C 	C 	0.27912 0.70107 0.27797 0.05000
C 	C 	0.94579 0.03440 0.61130 0.04900
C 	C 	0.61246 0.36773 0.94464 0.05000
C 	C 	0.30633 0.67379 0.27805 0.04900
C 	C 	0.97299 0.00712 0.61139 0.05000
C 	C 	0.63966 0.34046 0.94472 0.04900
C 	C 	0.30640 0.72829 0.27796 -0.08400
C 	C 	0.97306 0.06162 0.61129 -0.08400
C 	C 	0.63973 0.39495 0.94463 -0.08400
H 	H 	0.30643 0.74937 0.27792 0.05600
H 	H 	0.97309 0.08271 0.61126 0.05600
H 	H 	0.63976 0.41604 0.94459 0.05600
C 	C 	0.27910 0.67383 0.27802 -0.08400
C 	C 	0.94577 0.00716 0.61135 -0.08400
C 	C 	0.61243 0.34049 0.94468 -0.08400
H 	H 	0.25799 0.65275 0.27802 0.05600
H 	H 	0.92466 0.98608 0.61136 0.05600
H 	H 	0.59133 0.31941 0.94469 0.05600
C 	C 	0.33359 0.70105 0.27804 -0.08400
C 	C 	0.00026 0.03438 0.61137 -0.08500
C 	C 	0.66692 0.36772 0.94471 -0.08400
H 	H 	0.35467 0.70105 0.27807 0.05600
H 	H 	0.02134 0.03439 0.61140 0.05600
H 	H 	0.68801 0.36772 0.94473 0.05600
C 	C 	0.43989 0.80830 0.27939 -0.08100
C 	C 	0.10656 0.14164 0.61273 -0.08100
C 	C 	0.77322 0.47497 0.94606 -0.08100
C 	C 	0.46714 0.83549 0.27938 0.04000
C 	C 	0.13380 0.16882 0.61271 0.04000
C 	C 	0.80047 0.50216 0.94604 0.04100
C 	C 	0.46787 0.86269 0.27790 -0.13400
C 	C 	0.13453 0.19602 0.61123 -0.13300
C 	C 	0.80120 0.52935 0.94456 -0.13400
C 	C 	0.44066 0.86196 0.27644 0.04100
C 	C 	0.10732 0.19530 0.60977 0.04000
C 	C 	0.77399 0.52863 0.94311 0.04100
C 	C 	0.41345 0.83470 0.27646 -0.08100
C 	C 	0.08011 0.16804 0.60980 -0.08100
C 	C 	0.74678 0.50137 0.94313 -0.08100
C 	C 	0.41303 0.80786 0.27794 0.04900
C 	C 	0.07969 0.14119 0.61127 0.04900
C 	C 	0.74636 0.47452 0.94460 0.04900
H 	H 	0.48773 0.83536 0.28052 0.03500
H 	H 	0.15439 0.16869 0.61385 0.03500
H 	H 	0.82106 0.50203 0.94719 0.03500
H 	H 	0.44055 0.88255 0.27529 0.03500
H 	H 	0.10721 0.21588 0.60862 0.03500
H 	H 	0.77388 0.54921 0.94195 0.03500
H 	H 	0.43971 0.78759 0.28054 0.05300
H 	H 	0.10638 0.12093 0.61388 0.05300
H 	H 	0.77305 0.45426 0.94721 0.05300
H 	H 	0.39270 0.83450 0.27533 0.05300
H 	H 	0.05937 0.16784 0.60866 0.05300
H 	H 	0.72604 0.50117 0.94200 0.05300
C 	C 	0.27987 0.56750 0.27967 -0.08100
C 	C 	0.94653 0.90083 0.61300 -0.08100
C 	C 	0.61320 0.23416 0.94633 -0.08100
C 	C 	0.27982 0.54027 0.27967 0.04000
C 	C 	0.94649 0.87360 0.61301 0.04000
C 	C 	0.61315 0.20693 0.94634 0.04000
C 	C 	0.30628 0.53955 0.27815 -0.13400
C 	C 	0.97294 0.87289 0.61148 -0.13400
C 	C 	0.63961 0.20622 0.94481 -0.13400
C 	C 	0.33272 0.56675 0.27662 0.04000
C 	C 	0.99939 0.90008 0.60995 0.04100
C 	C 	0.66606 0.23342 0.94329 0.04100
C 	C 	0.33266 0.59392 0.27662 -0.08100
C 	C 	0.99933 0.92725 0.60995 -0.08000
C 	C 	0.66600 0.26059 0.94328 -0.08100
C 	C 	0.30626 0.59434 0.27814 0.04900
C 	C 	0.97293 0.92768 0.61147 0.04800
C 	C 	0.63959 0.26101 0.94480 0.04900
H 	H 	0.25914 0.51969 0.28087 0.03500
H 	H 	0.92580 0.85302 0.61420 0.03500
H 	H 	0.59247 0.18635 0.94754 0.03500
H 	H 	0.35341 0.56689 0.27542 0.03500
H 	H 	0.02008 0.90022 0.60876 0.03500
H 	H 	0.68675 0.23355 0.94209 0.03500
H 	H 	0.25934 0.56767 0.28085 0.05300
H 	H 	0.92601 0.90100 0.61418 0.05300
H 	H 	0.59267 0.23434 0.94752 0.05300
H 	H 	0.35318 0.61463 0.27543 0.05300
H 	H 	0.01984 0.94797 0.60876 0.05200
H 	H 	0.68651 0.28130 0.94209 0.05300
C 	C 	0.17309 0.67537 0.27624 -0.08100
C 	C 	0.83975 0.00870 0.60957 -0.08100
C 	C 	0.50642 0.34203 0.94290 -0.08100
C 	C 	0.14597 0.67553 0.27621 0.04100
C 	C 	0.81263 0.00887 0.60954 0.04100
C 	C 	0.47930 0.34220 0.94287 0.04100
C 	C 	0.14538 0.70197 0.27782 -0.13400
C 	C 	0.81205 0.03531 0.61115 -0.13400
C 	C 	0.47871 0.36864 0.94448 -0.13400
C 	C 	0.17259 0.72820 0.27946 0.04000
C 	C 	0.83925 0.06153 0.61279 0.04100
C 	C 	0.50592 0.39486 0.94612 0.04100
C 	C 	0.19966 0.72792 0.27948 -0.08100
C 	C 	0.86633 0.06126 0.61282 -0.08100
C 	C 	0.53299 0.39459 0.94615 -0.08100
C 	C 	0.19995 0.70153 0.27788 0.04900
C 	C 	0.86662 0.03487 0.61121 0.04900
C 	C 	0.53328 0.36820 0.94454 0.04900
H 	H 	0.12537 0.65502 0.27492 0.03500
H 	H 	0.79203 0.98835 0.60826 0.03500
H 	H 	0.45870 0.32169 0.94159 0.03500
H 	H 	0.17280 0.74886 0.28072 0.03500
H 	H 	0.83947 0.08219 0.61405 0.03500
H 	H 	0.50613 0.41553 0.94739 0.03500
H 	H 	0.17317 0.65486 0.27498 0.05300
H 	H 	0.83983 0.98819 0.60832 0.05300
H 	H 	0.50650 0.32153 0.94165 0.05300
H 	H 	0.22040 0.74826 0.28076 0.05300
H 	H 	0.88706 0.08160 0.61409 0.05300
H 	H 	0.55373 0.41493 0.94743 0.05300
C 	C 	0.38504 0.77983 0.27795 -0.02200
C 	C 	0.05171 0.11316 0.61129 -0.02200
C 	C 	0.71838 0.44649 0.94462 -0.02200
C 	C 	0.36162 0.75633 0.27797 -0.02200
C 	C 	0.02829 0.08966 0.61130 -0.02200
C 	C 	0.69496 0.42299 0.94464 -0.02200
C 	C 	0.30626 0.62233 0.27812 -0.02200
C 	C 	0.97292 0.95566 0.61145 -0.02100
C 	C 	0.63959 0.28900 0.94478 -0.02200
C 	C 	0.30628 0.64579 0.27809 -0.02200
C 	C 	0.97295 0.97912 0.61142 -0.02200
C 	C 	0.63961 0.31245 0.94476 -0.02200
C 	C 	0.25118 0.70114 0.27794 -0.02200
C 	C 	0.91784 0.03447 0.61127 -0.02200
C 	C 	0.58451 0.36780 0.94460 -0.02200
C 	C 	0.22781 0.70130 0.27791 -0.02200
C 	C 	0.89448 0.03463 0.61124 -0.02200
C 	C 	0.56115 0.36796 0.94458 -0.02200
Zn	Zn	0.55809 0.92069 0.27954 1.26700
Zn	Zn	0.22476 0.25402 0.61287 1.26700
Zn	Zn	0.89143 0.58735 0.94620 1.26700
Zn	Zn	0.52688 0.95286 0.27620 1.26700
Zn	Zn	0.19355 0.28620 0.60953 1.26700
Zn	Zn	0.86021 0.61953 0.94286 1.26700
Zn	Zn	0.57852 0.98010 0.28527 1.26700
Zn	Zn	0.24519 0.31344 0.61860 1.26700
Zn	Zn	0.91185 0.64677 0.95193 1.26700
Zn	Zn	0.58650 0.97267 0.27060 1.26600
Zn	Zn	0.25317 0.30601 0.60393 1.26600
Zn	Zn	0.91983 0.63934 0.93727 1.26600
O 	O 	0.56248 0.95658 0.27790 -1.07200
O 	O 	0.22915 0.28991 0.61123 -1.07200
O 	O 	0.89582 0.62324 0.94457 -1.07300
O 	O 	0.52088 0.89148 0.27917 -0.54100
O 	O 	0.18755 0.22481 0.61250 -0.54100
O 	O 	0.85421 0.55814 0.94583 -0.54100
O 	O 	0.51649 0.97253 0.28201 -0.53500
O 	O 	0.18316 0.30587 0.61534 -0.53500
O 	O 	0.84983 0.63920 0.94868 -0.53500
O 	O 	0.58594 0.96259 0.29214 -0.54200
O 	O 	0.25260 0.29593 0.62548 -0.54100
O 	O 	0.91927 0.62926 0.95881 -0.54200
O 	O 	0.49708 0.91575 0.27658 -0.53800
O 	O 	0.16375 0.24909 0.60991 -0.53800
O 	O 	0.83041 0.58242 0.94325 -0.53800
O 	O 	0.57039 0.91752 0.28781 -0.54100
O 	O 	0.23706 0.25085 0.62114 -0.54100
O 	O 	0.90372 0.58419 0.95448 -0.54100
O 	O 	0.55559 0.99258 0.28901 -0.53800
O 	O 	0.22226 0.32592 0.62234 -0.53800
O 	O 	0.88893 0.65925 0.95568 -0.53800
O 	O 	0.61284 0.01273 0.28355 -0.53800
O 	O 	0.27951 0.34606 0.61688 -0.53900
O 	O 	0.94617 0.67940 0.95022 -0.53800
O 	O 	0.59980 0.95008 0.26703 -0.53700
O 	O 	0.26647 0.28341 0.60036 -0.53700
O 	O 	0.93314 0.61675 0.93370 -0.53700
O 	O 	0.61881 0.00701 0.27239 -0.54000
O 	O 	0.28548 0.34034 0.60573 -0.54100
O 	O 	0.95215 0.67368 0.93906 -0.54000
O 	O 	0.57720 0.90991 0.27367 -0.53600
O 	O 	0.24387 0.24324 0.60700 -0.53600
O 	O 	0.91054 0.57658 0.94034 -0.53700
O 	O 	0.52427 0.96522 0.26790 -0.54200
O 	O 	0.19094 0.29856 0.60124 -0.54300
O 	O 	0.85761 0.63189 0.93457 -0.54300
O 	O 	0.56928 0.97996 0.26360 -0.53900
O 	O 	0.23594 0.31329 0.59693 -0.53900
O 	O 	0.90261 0.64663 0.93026 -0.53900
C 	C 	0.62794 0.02199 0.27798 0.42300
C 	C 	0.29460 0.35533 0.61131 0.42500
C 	C 	0.96127 0.68866 0.94464 0.42300
C 	C 	0.54304 0.97592 0.26296 0.42600
C 	C 	0.20970 0.30925 0.59630 0.42600
C 	C 	0.87637 0.64259 0.92963 0.42600
C 	C 	0.59428 0.92394 0.26861 0.42000
C 	C 	0.26094 0.25727 0.60194 0.42100
C 	C 	0.92761 0.59061 0.93528 0.42100
C 	C 	0.49684 0.89155 0.27788 0.42600
C 	C 	0.16350 0.22489 0.61121 0.42500
C 	C 	0.83017 0.55822 0.94455 0.42600
C 	C 	0.58151 0.93623 0.29275 0.42700
C 	C 	0.24818 0.26956 0.62608 0.42600
C 	C 	0.91485 0.60290 0.95941 0.42800
C 	C 	0.52997 0.98820 0.28730 0.42000
C 	C 	0.19663 0.32153 0.62063 0.42000
C 	C 	0.86330 0.65487 0.95397 0.42000
C 	C 	0.00994 0.57274 0.21222 0.04900
C 	C 	0.67660 0.90608 0.54555 0.04900
C 	C 	0.34327 0.23941 0.87889 0.04900
C 	C 	0.00650 0.53165 0.21916 0.05000
C 	C 	0.67317 0.86498 0.55250 0.05000
C 	C 	0.33983 0.19831 0.88583 0.04900
C 	C 	0.00764 0.57431 0.22485 0.05000
C 	C 	0.67431 0.90764 0.55818 0.05000
C 	C 	0.34098 0.24097 0.89151 0.05000
C 	C 	0.00841 0.54476 0.21262 -0.08500
C 	C 	0.67508 0.87810 0.54596 -0.08400
C 	C 	0.34174 0.21143 0.87929 -0.08400
H 	H 	0.00910 0.53350 0.20791 0.05600
H 	H 	0.67577 0.86683 0.54124 0.05600
H 	H 	0.34244 0.20017 0.87457 0.05600
C 	C 	0.00605 0.54643 0.22525 -0.08500
C 	C 	0.67272 0.87976 0.55858 -0.08500
C 	C 	0.33938 0.21310 0.89191 -0.08400
H 	H 	0.00500 0.53647 0.23030 0.05600
H 	H 	0.67167 0.86981 0.56363 0.05600
H 	H 	0.33833 0.20314 0.89697 0.05600
C 	C 	0.00954 0.58746 0.21834 -0.08500
C 	C 	0.67620 0.92079 0.55168 -0.08500
C 	C 	0.34287 0.25412 0.88501 -0.08400
H 	H 	0.01123 0.60930 0.21805 0.05600
H 	H 	0.67790 0.94263 0.55139 0.05600
H 	H 	0.34456 0.27597 0.88472 0.05600
C 	C 	0.01588 0.64310 0.19446 -0.08000
C 	C 	0.68254 0.97643 0.52779 -0.08000
C 	C 	0.34921 0.30977 0.86113 -0.08000
C 	C 	0.02243 0.66225 0.18874 0.04000
C 	C 	0.68910 0.99559 0.52208 0.04000
C 	C 	0.35577 0.32892 0.85541 0.04000
C 	C 	0.03430 0.65748 0.18256 -0.13200
C 	C 	0.70096 0.99081 0.51589 -0.13300
C 	C 	0.36763 0.32415 0.84922 -0.13300
C 	C 	0.03867 0.63255 0.18218 0.03900
C 	C 	0.70533 0.96589 0.51552 0.04000
C 	C 	0.37200 0.29922 0.84885 0.04000
C 	C 	0.03213 0.61344 0.18794 -0.08000
C 	C 	0.69880 0.94677 0.52127 -0.08000
C 	C 	0.36546 0.28011 0.85460 -0.08000
C 	C 	0.02102 0.61889 0.19411 0.04800
C 	C 	0.68768 0.95222 0.52744 0.04800
C 	C 	0.35435 0.28555 0.86077 0.04800
H 	H 	0.01885 0.68125 0.18919 0.03600
H 	H 	0.68551 0.01458 0.52252 0.03600
H 	H 	0.35218 0.34792 0.85586 0.03600
H 	H 	0.04783 0.62838 0.17749 0.03500
H 	H 	0.71449 0.96171 0.51083 0.03500
H 	H 	0.38116 0.29504 0.84416 0.03500
H 	H 	0.00738 0.64753 0.19922 0.05300
H 	H 	0.67405 0.98086 0.53256 0.05300
H 	H 	0.34071 0.31420 0.86589 0.05300
H 	H 	0.03629 0.59480 0.18764 0.05300
H 	H 	0.70295 0.92813 0.52097 0.05300
H 	H 	0.36962 0.26146 0.85431 0.05300
C 	C 	0.02405 0.60715 0.24900 -0.08100
C 	C 	0.69072 0.94048 0.58234 -0.08100
C 	C 	0.35738 0.27381 0.91567 -0.08100
C 	C 	0.02923 0.62195 0.25540 0.04100
C 	C 	0.69590 0.95528 0.58873 0.04100
C 	C 	0.36256 0.28862 0.92207 0.04100
C 	C 	0.02514 0.64692 0.25611 -0.13500
C 	C 	0.69181 0.98026 0.58945 -0.13400
C 	C 	0.35847 0.31359 0.92278 -0.13400
C 	C 	0.01517 0.65633 0.25031 0.04100
C 	C 	0.68183 0.98967 0.58364 0.04100
C 	C 	0.34850 0.32300 0.91697 0.04100
C 	C 	0.01004 0.64145 0.24390 -0.08100
C 	C 	0.67671 0.97478 0.57724 -0.08100
C 	C 	0.34337 0.30811 0.91057 -0.08100
C 	C 	0.01471 0.61700 0.24324 0.04900
C 	C 	0.68138 0.95034 0.57658 0.04900
C 	C 	0.34804 0.28367 0.90991 0.04900
H 	H 	0.03689 0.61421 0.25978 0.03500
H 	H 	0.70356 0.94755 0.59311 0.03500
H 	H 	0.37023 0.28088 0.92645 0.03500
H 	H 	0.01188 0.67553 0.25072 0.03500
H 	H 	0.67855 0.00886 0.58405 0.03500
H 	H 	0.34521 0.34219 0.91738 0.03500
H 	H 	0.02776 0.58826 0.24851 0.05300
H 	H 	0.69443 0.92159 0.58185 0.05300
H 	H 	0.36109 0.25492 0.91518 0.05300
H 	H 	0.00286 0.64920 0.23944 0.05300
H 	H 	0.66953 0.98253 0.57278 0.05300
H 	H 	0.33620 0.31587 0.90611 0.05300
C 	C 	0.00814 0.44283 0.22815 -0.08000
C 	C 	0.67481 0.77616 0.56149 -0.08100
C 	C 	0.34148 0.10950 0.89482 -0.08000
C 	C 	0.00835 0.41588 0.22903 0.04000
C 	C 	0.67502 0.74921 0.56236 0.04000
C 	C 	0.34168 0.08254 0.89569 0.04000
C 	C 	0.00629 0.39830 0.22319 -0.13300
C 	C 	0.67295 0.73163 0.55652 -0.13400
C 	C 	0.33962 0.06496 0.88986 -0.13300
C 	C 	0.00394 0.40829 0.21649 0.04100
C 	C 	0.67060 0.74162 0.54983 0.04100
C 	C 	0.33727 0.07495 0.88316 0.04100
C 	C 	0.00373 0.43513 0.21565 -0.08100
C 	C 	0.67040 0.76846 0.54898 -0.08100
C 	C 	0.33706 0.10180 0.88231 -0.08100
C 	C 	0.00585 0.45246 0.22146 0.04900
C 	C 	0.67252 0.78579 0.55479 0.04900
C 	C 	0.33918 0.11912 0.88813 0.04900
H 	H 	0.01017 0.40871 0.23423 0.03400
H 	H 	0.67683 0.74205 0.56757 0.03400
H 	H 	0.34350 0.07538 0.90090 0.03400
H 	H 	0.00228 0.39523 0.21189 0.03600
H 	H 	0.66894 0.72857 0.54523 0.03600
H 	H 	0.33561 0.06190 0.87856 0.03600
H 	H 	0.00982 0.45622 0.23268 0.05300
H 	H 	0.67648 0.78955 0.56601 0.05300
H 	H 	0.34315 0.12289 0.89935 0.05300
H 	H 	0.00196 0.44244 0.21046 0.05300
H 	H 	0.66863 0.77578 0.54379 0.05300
H 	H 	0.33530 0.10911 0.87712 0.05300
C 	C 	0.01646 0.60095 0.20025 -0.02100
C 	C 	0.68313 0.93428 0.53358 -0.02100
C 	C 	0.34979 0.26761 0.86691 -0.02100
C 	C 	0.01319 0.58731 0.20560 -0.02200
C 	C 	0.67986 0.92064 0.53893 -0.02200
C 	C 	0.34653 0.25397 0.87226 -0.02200
C 	C 	0.01116 0.60253 0.23662 -0.02200
C 	C 	0.67782 0.93587 0.56995 -0.02100
C 	C 	0.34449 0.26920 0.90329 -0.02200
C 	C 	0.00909 0.58994 0.23118 -0.02200
C 	C 	0.67576 0.92328 0.56451 -0.02200
C 	C 	0.34243 0.25661 0.89784 -0.02200
C 	C 	0.00603 0.50355 0.21977 -0.02200
C 	C 	0.67269 0.83688 0.55310 -0.02200
C 	C 	0.33936 0.17021 0.88644 -0.02200
C 	C 	0.00587 0.48021 0.22051 -0.02200
C 	C 	0.67253 0.81354 0.55385 -0.02200
C 	C 	0.33920 0.14687 0.88718 -0.02100
C 	C 	0.79207 0.18459 0.27792 0.04900
C 	C 	0.45874 0.51793 0.61126 0.04900
C 	C 	0.12540 0.85126 0.94459 0.04900
C 	C 	0.83684 0.22139 0.27179 0.05000
C 	C 	0.50350 0.55472 0.60513 0.05000
C 	C 	0.17017 0.88805 0.93846 0.05000
C 	C 	0.82928 0.22956 0.28391 0.05000
C 	C 	0.49595 0.56290 0.61724 0.05000
C 	C 	0.16262 0.89623 0.95057 0.05000
C 	C 	0.80954 0.19415 0.27183 -0.08400
C 	C 	0.47621 0.52748 0.60517 -0.08400
C 	C 	0.14287 0.86081 0.93850 -0.08400
H 	H 	0.80194 0.18048 0.26716 0.05600
H 	H 	0.46861 0.51381 0.60049 0.05600
H 	H 	0.13527 0.84714 0.93382 0.05600
C 	C 	0.84663 0.23902 0.27783 -0.08400
C 	C 	0.51330 0.57235 0.61116 -0.08500
C 	C 	0.17997 0.90568 0.94449 -0.08500
H 	H 	0.86774 0.26012 0.27778 0.05600
H 	H 	0.53440 0.59345 0.61112 0.05600
H 	H 	0.20107 0.92678 0.94445 0.05600
C 	C 	0.80198 0.20234 0.28396 -0.08400
C 	C 	0.46865 0.53567 0.61730 -0.08400
C 	C 	0.13532 0.86900 0.95063 -0.08400
H 	H 	0.78849 0.19505 0.28867 0.05600
H 	H 	0.45515 0.52839 0.62201 0.05600
H 	H 	0.12182 0.86172 0.95534 0.05600
C 	C 	0.69525 0.09505 0.28414 -0.08000
C 	C 	0.36191 0.42839 0.61747 -0.08000
C 	C 	0.02858 0.76172 0.95081 -0.08000
C 	C 	0.66784 0.06797 0.28415 0.04000
C 	C 	0.33451 0.40130 0.61748 0.04000
C 	C 	0.00118 0.73464 0.95081 0.03900
C 	C 	0.65694 0.05087 0.27799 -0.13200
C 	C 	0.32361 0.38421 0.61132 -0.13300
C 	C 	0.99028 0.71754 0.94465 -0.13100
C 	C 	0.67415 0.06160 0.27184 0.04000
C 	C 	0.34082 0.39493 0.60517 0.04000
C 	C 	0.00749 0.72826 0.93850 0.03900
C 	C 	0.70153 0.08868 0.27185 -0.08000
C 	C 	0.36820 0.42201 0.60519 -0.08000
C 	C 	0.03486 0.75534 0.93852 -0.08000
C 	C 	0.71213 0.10545 0.27800 0.04800
C 	C 	0.37880 0.43878 0.61133 0.04800
C 	C 	0.04547 0.77211 0.94467 0.04800
H 	H 	0.65509 0.06027 0.28896 0.03500
H 	H 	0.32175 0.39360 0.62229 0.03500
H 	H 	0.98842 0.72694 0.95562 0.03500
H 	H 	0.66634 0.04893 0.26702 0.03500
H 	H 	0.33301 0.38226 0.60035 0.03500
H 	H 	0.99967 0.71559 0.93368 0.03500
H 	H 	0.70332 0.10792 0.28892 0.05300
H 	H 	0.36999 0.44126 0.62225 0.05300
H 	H 	0.03665 0.77459 0.95559 0.05200
H 	H 	0.71448 0.09659 0.26708 0.05300
H 	H 	0.38114 0.42992 0.60041 0.05300
H 	H 	0.04781 0.76325 0.93374 0.05200
C 	C 	0.84173 0.27884 0.30683 -0.08000
C 	C 	0.50840 0.61218 0.64016 -0.08000
C 	C 	0.17506 0.94551 0.97350 -0.08000
C 	C 	0.85177 0.29918 0.31239 0.03900
C 	C 	0.51844 0.63252 0.64572 0.03900
C 	C 	0.18510 0.96585 0.97906 0.03900
C 	C 	0.87988 0.32584 0.31206 -0.13000
C 	C 	0.54654 0.65918 0.64539 -0.13000
C 	C 	0.21321 0.99251 0.97873 -0.13000
C 	C 	0.89789 0.33133 0.30609 0.03900
C 	C 	0.56456 0.66466 0.63942 0.03900
C 	C 	0.23123 0.99800 0.97276 0.03900
C 	C 	0.88775 0.31091 0.30054 -0.08000
C 	C 	0.55442 0.64424 0.63387 -0.08000
C 	C 	0.22109 0.97757 0.96721 -0.08000
C 	C 	0.85958 0.28478 0.30088 0.04800
C 	C 	0.52625 0.61811 0.63421 0.04800
C 	C 	0.19292 0.95145 0.96755 0.04800
H 	H 	0.83740 0.29436 0.31692 0.03600
H 	H 	0.50407 0.62769 0.65025 0.03600
H 	H 	0.17073 0.96103 0.98359 0.03600
H 	H 	0.91960 0.35165 0.30570 0.03500
H 	H 	0.58627 0.68499 0.63903 0.03500
H 	H 	0.25294 0.01832 0.97236 0.03500
H 	H 	0.81988 0.25867 0.30712 0.05300
H 	H 	0.48655 0.59200 0.64045 0.05300
H 	H 	0.15321 0.92534 0.97379 0.05300
H 	H 	0.90167 0.31563 0.29594 0.05300
H 	H 	0.56834 0.64896 0.62927 0.05300
H 	H 	0.23501 0.98230 0.96260 0.05200
C 	C 	0.91679 0.28028 0.25492 -0.08100
C 	C 	0.58346 0.61361 0.58825 -0.08100
C 	C 	0.25013 0.94694 0.92159 -0.08100
C 	C 	0.93702 0.29071 0.24933 0.04000
C 	C 	0.60369 0.62405 0.58266 0.04000
C 	C 	0.27035 0.95738 0.91599 0.04000
C 	C 	0.93187 0.27259 0.24339 -0.13400
C 	C 	0.59854 0.60592 0.57673 -0.13300
C 	C 	0.26521 0.93926 0.91006 -0.13300
C 	C 	0.90575 0.24403 0.24315 0.04100
C 	C 	0.57242 0.57737 0.57648 0.04000
C 	C 	0.23908 0.91070 0.90982 0.04100
C 	C 	0.88560 0.23369 0.24875 -0.08100
C 	C 	0.55227 0.56702 0.58209 -0.08100
C 	C 	0.21893 0.90036 0.91542 -0.08100
C 	C 	0.89120 0.25169 0.25466 0.04900
C 	C 	0.55786 0.58502 0.58799 0.04900
C 	C 	0.22453 0.91836 0.92133 0.04900
H 	H 	0.95694 0.31277 0.24966 0.03400
H 	H 	0.62361 0.64610 0.58299 0.03400
H 	H 	0.29028 0.97943 0.91633 0.03400
H 	H 	0.90122 0.22958 0.23865 0.03500
H 	H 	0.56788 0.56291 0.57198 0.03500
H 	H 	0.23455 0.89624 0.90532 0.03500
H 	H 	0.92127 0.29431 0.25949 0.05300
H 	H 	0.58793 0.62764 0.59282 0.05300
H 	H 	0.25460 0.96098 0.92616 0.05300
H 	H 	0.86584 0.21152 0.24853 0.05300
H 	H 	0.53251 0.54485 0.58186 0.05300
H 	H 	0.19918 0.87818 0.91519 0.05300
C 	C 	0.74032 0.13332 0.27799 -0.02100
C 	C 	0.40699 0.46666 0.61133 -0.02100
C 	C 	0.07366 0.79999 0.94466 -0.02100
C 	C 	0.76392 0.15668 0.27797 -0.02200
C 	C 	0.43059 0.49001 0.61130 -0.02200
C 	C 	0.09726 0.82335 0.94463 -0.02200
C 	C 	0.84859 0.26462 0.29502 -0.02100
C 	C 	0.51526 0.59795 0.62836 -0.02100
C 	C 	0.18193 0.93129 0.96169 -0.02100
C 	C 	0.83953 0.24826 0.29002 -0.02200
C 	C 	0.50620 0.58159 0.62335 -0.02200
C 	C 	0.17287 0.91492 0.95669 -0.02200
C 	C 	0.85515 0.23145 0.26561 -0.02200
C 	C 	0.52182 0.56478 0.59895 -0.02200
C 	C 	0.18849 0.89812 0.93228 -0.02200
C 	C 	0.87126 0.24051 0.26056 -0.02100
C 	C 	0.53793 0.57384 0.59389 -0.02100
C 	C 	0.20459 0.90718 0.92723 -0.02100
C 	C 	0.66935 0.37245 0.32824 0.05000
C 	C 	0.33602 0.70578 0.66158 0.05000
C 	C 	0.00269 0.03912 0.99491 0.04900
C 	C 	0.61547 0.33869 0.32827 0.05000
C 	C 	0.28214 0.67202 0.66161 0.05000
C 	C 	0.94880 0.00536 0.99494 0.05000
C 	C 	0.63561 0.39254 0.32821 0.05000
C 	C 	0.30228 0.72587 0.66155 0.05000
C 	C 	0.96895 0.05921 0.99488 0.05000
C 	C 	0.64467 0.34323 0.32827 -0.08500
C 	C 	0.31134 0.67656 0.66160 -0.08500
C 	C 	0.97800 0.00990 0.99494 -0.08400
H 	H 	0.64817 0.32413 0.32833 0.05600
H 	H 	0.31484 0.65746 0.66167 0.05600
H 	H 	0.98150 0.99080 0.99500 0.05600
C 	C 	0.61094 0.36334 0.32824 -0.08500
C 	C 	0.27760 0.69668 0.66157 -0.08500
C 	C 	0.94427 0.03001 0.99491 -0.08500
H 	H 	0.58831 0.35982 0.32828 0.05600
H 	H 	0.25498 0.69316 0.66161 0.05600
H 	H 	0.92165 0.02649 0.99495 0.05600
C 	C 	0.66483 0.39710 0.32821 -0.08500
C 	C 	0.33150 0.73044 0.66154 -0.08500
C 	C 	0.99817 0.06377 0.99488 -0.08400
H 	H 	0.68396 0.41973 0.32823 0.05600
H 	H 	0.35062 0.75307 0.66156 0.05600
H 	H 	0.01729 0.08640 0.99490 0.05600
C 	C 	0.75709 0.35883 0.32827 -0.08000
C 	C 	0.42376 0.69216 0.66161 -0.08000
C 	C 	0.09043 0.02549 0.99494 -0.08000
C 	C 	0.78566 0.36196 0.32859 0.04000
C 	C 	0.45232 0.69530 0.66192 0.04000
C 	C 	0.11899 0.02863 0.99525 0.04000
C 	C 	0.81137 0.39057 0.32934 -0.13100
C 	C 	0.47804 0.72390 0.66268 -0.13100
C 	C 	0.14470 0.05723 0.99601 -0.13100
C 	C 	0.80778 0.41595 0.32974 0.04000
C 	C 	0.47445 0.74928 0.66307 0.04000
C 	C 	0.14111 0.08261 0.99640 0.04000
C 	C 	0.77911 0.41270 0.32942 -0.08000
C 	C 	0.44578 0.74603 0.66276 -0.08000
C 	C 	0.11245 0.07936 0.99609 -0.08000
C 	C 	0.75378 0.38414 0.32871 0.04900
C 	C 	0.42044 0.71747 0.66204 0.04900
C 	C 	0.08711 0.05080 0.99537 0.04900
H 	H 	0.78774 0.34203 0.32827 0.03600
H 	H 	0.45441 0.67537 0.66160 0.03500
H 	H 	0.12108 0.00870 0.99493 0.03500
H 	H 	0.82720 0.43822 0.33032 0.03500
H 	H 	0.49386 0.77155 0.66365 0.03500
H 	H 	0.16053 0.10489 0.99698 0.03500
H 	H 	0.73753 0.33666 0.32772 0.05300
H 	H 	0.40420 0.66999 0.66106 0.05300
H 	H 	0.07086 0.00333 0.99439 0.05300
H 	H 	0.77664 0.43238 0.32977 0.05300
H 	H 	0.44330 0.76571 0.66310 0.05300
H 	H 	0.10997 0.09904 0.99643 0.05300
C 	C 	0.64947 0.49394 0.32842 -0.08100
C 	C 	0.31614 0.82727 0.66175 -0.08100
C 	C 	0.98280 0.16061 0.99508 -0.08100
C 	C 	0.64641 0.51939 0.32876 0.04200
C 	C 	0.31307 0.85272 0.66209 0.04200
C 	C 	0.97974 0.18606 0.99542 0.04100
C 	C 	0.61776 0.51651 0.32935 -0.13500
C 	C 	0.28442 0.84984 0.66268 -0.13500
C 	C 	0.95109 0.18317 0.99602 -0.13500
C 	C 	0.59226 0.48753 0.32955 0.04100
C 	C 	0.25893 0.82086 0.66288 0.04100
C 	C 	0.92559 0.15419 0.99621 0.04100
C 	C 	0.59544 0.46208 0.32921 -0.08100
C 	C 	0.26211 0.79542 0.66254 -0.08100
C 	C 	0.92877 0.12875 0.99587 -0.08100
C 	C 	0.62405 0.46530 0.32866 0.04900
C 	C 	0.29071 0.79863 0.66199 0.04900
C 	C 	0.95738 0.13197 0.99532 0.04900
H 	H 	0.66643 0.54142 0.32859 0.03500
H 	H 	0.33310 0.87475 0.66193 0.03500
H 	H 	0.99976 0.20809 0.99526 0.03500
H 	H 	0.56995 0.48468 0.33000 0.03400
H 	H 	0.23662 0.81801 0.66334 0.03400
H 	H 	0.90328 0.15134 0.99667 0.03400
H 	H 	0.67167 0.49654 0.32800 0.05300
H 	H 	0.33834 0.82987 0.66133 0.05300
H 	H 	0.00500 0.16321 0.99466 0.05300
H 	H 	0.57568 0.43991 0.32940 0.05300
H 	H 	0.24234 0.77324 0.66274 0.05300
H 	H 	0.90901 0.10658 0.99607 0.05300
C 	C 	0.51388 0.25119 0.32867 -0.08200
C 	C 	0.18054 0.58452 0.66201 -0.08100
C 	C 	0.84721 0.91786 0.99534 -0.08200
C 	C 	0.48837 0.22266 0.32901 0.04200
C 	C 	0.15503 0.55599 0.66234 0.04200
C 	C 	0.82170 0.88933 0.99567 0.04200
C 	C 	0.49120 0.19687 0.32953 -0.13600
C 	C 	0.15786 0.53021 0.66287 -0.13500
C 	C 	0.82453 0.86354 0.99620 -0.13600
C 	C 	0.52016 0.20034 0.32970 0.04100
C 	C 	0.18683 0.53368 0.66304 0.04100
C 	C 	0.85350 0.86701 0.99637 0.04100
C 	C 	0.54565 0.22897 0.32937 -0.08100
C 	C 	0.21232 0.56230 0.66270 -0.08100
C 	C 	0.87899 0.89564 0.99603 -0.08100
C 	C 	0.54250 0.25438 0.32886 0.04900
C 	C 	0.20917 0.58772 0.66219 0.04900
C 	C 	0.87584 0.92105 0.99553 0.04900
H 	H 	0.46634 0.22065 0.32887 0.03500
H 	H 	0.13301 0.55399 0.66220 0.03500
H 	H 	0.79968 0.88732 0.99554 0.03500
H 	H 	0.52297 0.18086 0.33011 0.03400
H 	H 	0.18964 0.51419 0.66344 0.03400
H 	H 	0.85631 0.84753 0.99678 0.03400
H 	H 	0.51133 0.27082 0.32829 0.05300
H 	H 	0.17800 0.60416 0.66162 0.05300
H 	H 	0.84467 0.93749 0.99495 0.05300
H 	H 	0.56781 0.23135 0.32952 0.05300
H 	H 	0.23448 0.56468 0.66286 0.05300
H 	H 	0.90114 0.89802 0.99619 0.05300
C 	C 	0.72425 0.38058 0.32850 -0.02100
C 	C 	0.39092 0.71391 0.66183 -0.02100
C 	C 	0.05759 0.04724 0.99516 -0.02100
C 	C 	0.69929 0.37707 0.32836 -0.02200
C 	C 	0.36596 0.71040 0.66169 -0.02200
C 	C 	0.03263 0.04374 0.99502 -0.02200
C 	C 	0.62754 0.43932 0.32844 -0.02200
C 	C 	0.29421 0.77265 0.66177 -0.02200
C 	C 	0.96088 0.10598 0.99511 -0.02200
C 	C 	0.63102 0.41786 0.32831 -0.02200
C 	C 	0.29769 0.75119 0.66164 -0.02200
C 	C 	0.96435 0.08453 0.99498 -0.02200
C 	C 	0.59009 0.30877 0.32843 -0.02200
C 	C 	0.25676 0.64210 0.66176 -0.02200
C 	C 	0.92343 0.97544 0.99510 -0.02200
C 	C 	0.56856 0.28385 0.32861 -0.02200
C 	C 	0.23523 0.61718 0.66194 -0.02200
C 	C 	0.90190 0.95052 0.99527 -0.02200
Zn	Zn	0.94237 0.25574 0.11276 1.26700
Zn	Zn	0.60903 0.58907 0.44610 1.26700
Zn	Zn	0.27570 0.92240 0.77943 1.26700
Zn	Zn	0.96664 0.30710 0.10362 1.26600
Zn	Zn	0.63331 0.64044 0.43695 1.26600
Zn	Zn	0.29998 0.97377 0.77029 1.26600
Zn	Zn	0.98234 0.31548 0.11827 1.26600
Zn	Zn	0.64901 0.64882 0.45161 1.26600
Zn	Zn	0.31568 0.98215 0.78494 1.26600
Zn	Zn	0.00570 0.28680 0.10935 1.26700
Zn	Zn	0.67237 0.62014 0.44269 1.26700
Zn	Zn	0.33904 0.95347 0.77602 1.26700
O 	O 	0.97426 0.29129 0.11100 -1.07300
O 	O 	0.64093 0.62462 0.44434 -1.07200
O 	O 	0.30759 0.95795 0.77767 -1.07300
O 	O 	0.91218 0.24518 0.10700 -0.53600
O 	O 	0.57885 0.57852 0.44033 -0.53600
O 	O 	0.24552 0.91185 0.77366 -0.53600
O 	O 	0.96821 0.34138 0.10531 -0.53700
O 	O 	0.63488 0.67471 0.43865 -0.53800
O 	O 	0.30154 0.00805 0.77198 -0.53700
O 	O 	0.95795 0.29838 0.12532 -0.53900
O 	O 	0.62461 0.63171 0.45865 -0.54000
O 	O 	0.29128 0.96505 0.79199 -0.53900
O 	O 	0.93111 0.28402 0.09992 -0.53700
O 	O 	0.59778 0.61735 0.43325 -0.53700
O 	O 	0.26444 0.95068 0.76659 -0.53700
O 	O 	0.92754 0.25334 0.12106 -0.54300
O 	O 	0.59420 0.58668 0.45440 -0.54400
O 	O 	0.26087 0.92001 0.78773 -0.54400
O 	O 	0.98014 0.34766 0.11646 -0.53900
O 	O 	0.64681 0.68100 0.44979 -0.54000
O 	O 	0.31347 0.01433 0.78312 -0.53900
O 	O 	0.01836 0.32888 0.12180 -0.53600
O 	O 	0.68503 0.66222 0.45513 -0.53700
O 	O 	0.35170 0.99555 0.78847 -0.53600
O 	O 	0.99766 0.24961 0.10977 -0.54100
O 	O 	0.66433 0.58294 0.44310 -0.54100
O 	O 	0.33100 0.91627 0.77643 -0.54100
O 	O 	0.03567 0.30597 0.11518 -0.53600
O 	O 	0.70234 0.63931 0.44851 -0.53700
O 	O 	0.36901 0.97264 0.78185 -0.53600
O 	O 	0.94960 0.22593 0.11243 -0.53800
O 	O 	0.61627 0.55926 0.44576 -0.53900
O 	O 	0.28294 0.89260 0.77909 -0.53900
O 	O 	0.99160 0.31445 0.09672 -0.54100
O 	O 	0.65826 0.64779 0.43005 -0.54100
O 	O 	0.32493 0.98112 0.76339 -0.54100
O 	O 	0.02111 0.29896 0.10107 -0.54200
O 	O 	0.68777 0.63229 0.43440 -0.54100
O 	O 	0.35444 0.96562 0.76773 -0.54200
C 	C 	0.03888 0.32318 0.12022 0.42000
C 	C 	0.70554 0.65652 0.45355 0.42000
C 	C 	0.37221 0.98985 0.78689 0.42000
C 	C 	0.01354 0.31001 0.09612 0.42600
C 	C 	0.68021 0.64335 0.42945 0.42600
C 	C 	0.34688 0.97668 0.76279 0.42700
C 	C 	0.97353 0.22562 0.11111 0.42600
C 	C 	0.64020 0.55896 0.44445 0.42600
C 	C 	0.30687 0.89229 0.77778 0.42600
C 	C 	0.90986 0.25846 0.10170 0.42000
C 	C 	0.57653 0.59179 0.43503 0.42000
C 	C 	0.24319 0.92513 0.76836 0.42100
C 	C 	0.93571 0.27216 0.12599 0.42600
C 	C 	0.60238 0.60550 0.45932 0.42700
C 	C 	0.26904 0.93883 0.79265 0.42700
C 	C 	0.97404 0.35656 0.11087 0.42100
C 	C 	0.64071 0.68990 0.44421 0.42300
C 	C 	0.30737 0.02323 0.77754 0.42300
C 	C 	0.82211 0.70145 0.27764 0.04900
C 	C 	0.48878 0.03479 0.61097 0.04900
C 	C 	0.15545 0.36812 0.94431 0.04900
C 	C 	0.78517 0.70938 0.27160 0.04900
C 	C 	0.45183 0.04271 0.60493 0.05000
C 	C 	0.11850 0.37604 0.93827 0.05000
C 	C 	0.77710 0.69325 0.28369 0.04900
C 	C 	0.44376 0.02658 0.61702 0.05000
C 	C 	0.11043 0.35992 0.95036 0.05000
C 	C 	0.81246 0.70947 0.27159 -0.08400
C 	C 	0.47913 0.04281 0.60492 -0.08400
C 	C 	0.14580 0.37614 0.93826 -0.08400
H 	H 	0.82615 0.71580 0.26691 0.05600
H 	H 	0.49282 0.04914 0.60025 0.05600
H 	H 	0.15948 0.38247 0.93358 0.05600
C 	C 	0.76756 0.70128 0.27765 -0.08400
C 	C 	0.43422 0.03461 0.61098 -0.08400
C 	C 	0.10089 0.36794 0.94431 -0.08400
H 	H 	0.74644 0.70122 0.27765 0.05600
H 	H 	0.41311 0.03456 0.61098 0.05600
H 	H 	0.07978 0.36789 0.94432 0.05600
C 	C 	0.80439 0.69333 0.28369 -0.08400
C 	C 	0.47105 0.02667 0.61702 -0.08400
C 	C 	0.13772 0.36000 0.95036 -0.08400
H 	H 	0.81178 0.68709 0.28837 0.05600
H 	H 	0.47844 0.02042 0.62170 0.05600
H 	H 	0.14511 0.35375 0.95503 0.05600
C 	C 	0.91884 0.70849 0.27152 -0.08000
C 	C 	0.58550 0.04182 0.60486 -0.08000
C 	C 	0.25217 0.37516 0.93819 -0.08000
C 	C 	0.94615 0.70866 0.27152 0.04000
C 	C 	0.61281 0.04199 0.60486 0.04000
C 	C 	0.27948 0.37533 0.93819 0.04000
C 	C 	0.95688 0.70229 0.27768 -0.13200
C 	C 	0.62355 0.03562 0.61101 -0.13300
C 	C 	0.29021 0.36895 0.94434 -0.13300
C 	C 	0.93960 0.69578 0.28382 0.04000
C 	C 	0.60627 0.02911 0.61715 0.04000
C 	C 	0.27294 0.36245 0.95048 0.04000
C 	C 	0.91231 0.69564 0.28379 -0.08000
C 	C 	0.57898 0.02897 0.61713 -0.08000
C 	C 	0.24565 0.36230 0.95046 -0.08000
C 	C 	0.90187 0.70197 0.27765 0.04800
C 	C 	0.56854 0.03531 0.61098 0.04800
C 	C 	0.23521 0.36864 0.94432 0.04800
H 	H 	0.95895 0.71374 0.26672 0.03500
H 	H 	0.62562 0.04707 0.60005 0.03500
H 	H 	0.29229 0.38041 0.93339 0.03500
H 	H 	0.94730 0.69080 0.28863 0.03500
H 	H 	0.61396 0.02414 0.62197 0.03500
H 	H 	0.28063 0.35747 0.95530 0.03500
H 	H 	0.91089 0.71342 0.26675 0.05300
H 	H 	0.57756 0.04676 0.60008 0.05300
H 	H 	0.24423 0.38009 0.93341 0.05300
H 	H 	0.89930 0.69058 0.28856 0.05300
H 	H 	0.56597 0.02392 0.62189 0.05300
H 	H 	0.23264 0.35725 0.95523 0.05300
C 	C 	0.72831 0.65600 0.30667 -0.08000
C 	C 	0.39498 0.98933 0.64001 -0.08100
C 	C 	0.06164 0.32266 0.97334 -0.08000
C 	C 	0.70826 0.64595 0.31230 0.04000
C 	C 	0.37493 0.97929 0.64563 0.04000
C 	C 	0.04160 0.31262 0.97896 0.04000
C 	C 	0.68199 0.64810 0.31211 -0.13300
C 	C 	0.34866 0.98144 0.64545 -0.13300
C 	C 	0.01532 0.31477 0.97878 -0.13300
C 	C 	0.67660 0.66104 0.30622 0.04000
C 	C 	0.34326 0.99437 0.63955 0.04000
C 	C 	0.00993 0.32771 0.97288 0.04000
C 	C 	0.69672 0.67106 0.30060 -0.08000
C 	C 	0.36338 0.00440 0.63393 -0.08000
C 	C 	0.03005 0.33773 0.96727 -0.08000
C 	C 	0.72247 0.66836 0.30080 0.04900
C 	C 	0.38914 0.00169 0.63413 0.04900
C 	C 	0.05580 0.33503 0.96747 0.04800
H 	H 	0.71300 0.63608 0.31677 0.03500
H 	H 	0.37967 0.96941 0.65010 0.03500
H 	H 	0.04633 0.30275 0.98343 0.03500
H 	H 	0.65656 0.66297 0.30593 0.03400
H 	H 	0.32323 0.99630 0.63926 0.03400
H 	H 	0.98990 0.32963 0.97260 0.03500
H 	H 	0.74819 0.65380 0.30686 0.05300
H 	H 	0.41486 0.98714 0.64019 0.05300
H 	H 	0.08153 0.32047 0.97352 0.05300
H 	H 	0.69206 0.68060 0.29606 0.05300
H 	H 	0.35872 0.01394 0.62939 0.05300
H 	H 	0.02539 0.34727 0.96273 0.05200
C 	C 	0.77383 0.74707 0.24869 -0.08100
C 	C 	0.44050 0.08041 0.58202 -0.08100
C 	C 	0.10716 0.41374 0.91535 -0.08100
C 	C 	0.76380 0.75715 0.24308 0.04000
C 	C 	0.43047 0.09048 0.57642 0.04000
C 	C 	0.09714 0.42381 0.90975 0.04000
C 	C 	0.73521 0.75460 0.24326 -0.13300
C 	C 	0.40187 0.08793 0.57660 -0.13300
C 	C 	0.06854 0.42126 0.90993 -0.13300
C 	C 	0.71672 0.74125 0.24913 0.04000
C 	C 	0.38339 0.07459 0.58246 0.04000
C 	C 	0.05006 0.40792 0.91580 0.04000
C 	C 	0.72684 0.73120 0.25472 -0.08000
C 	C 	0.39351 0.06454 0.58805 -0.08000
C 	C 	0.06017 0.39787 0.92139 -0.08100
C 	C 	0.75546 0.73429 0.25453 0.04900
C 	C 	0.42213 0.06762 0.58786 0.04900
C 	C 	0.08880 0.40095 0.92119 0.04900
H 	H 	0.77853 0.76735 0.23864 0.03500
H 	H 	0.44520 0.10069 0.57197 0.03500
H 	H 	0.11186 0.43402 0.90530 0.03500
H 	H 	0.69463 0.73903 0.24941 0.03400
H 	H 	0.36130 0.07236 0.58275 0.03400
H 	H 	0.02796 0.40569 0.91608 0.03400
H 	H 	0.79603 0.74957 0.24851 0.05300
H 	H 	0.46270 0.08291 0.58184 0.05300
H 	H 	0.12937 0.41624 0.91518 0.05300
H 	H 	0.71252 0.72135 0.25924 0.05300
H 	H 	0.37919 0.05468 0.59257 0.05300
H 	H 	0.04586 0.38802 0.92591 0.05300
C 	C 	0.87376 0.70178 0.27764 -0.02100
C 	C 	0.54042 0.03511 0.61097 -0.02100
C 	C 	0.20709 0.36844 0.94431 -0.02100
C 	C 	0.85021 0.70162 0.27764 -0.02200
C 	C 	0.51688 0.03495 0.61097 -0.02200
C 	C 	0.18354 0.36829 0.94430 -0.02200
C 	C 	0.74237 0.67743 0.29488 -0.02100
C 	C 	0.40904 0.01076 0.62822 -0.02100
C 	C 	0.07571 0.34410 0.96155 -0.02100
C 	C 	0.75854 0.68472 0.28984 -0.02200
C 	C 	0.42521 0.01806 0.62317 -0.02200
C 	C 	0.09188 0.35139 0.95651 -0.02200
C 	C 	0.77516 0.71789 0.26546 -0.02200
C 	C 	0.44182 0.05123 0.59879 -0.02200
C 	C 	0.10849 0.38456 0.93213 -0.02200
C 	C 	0.76630 0.72520 0.26043 -0.02100
C 	C 	0.43296 0.05853 0.59376 -0.02100
C 	C 	0.09963 0.39187 0.92709 -0.02100
C 	C 	0.31588 0.18029 0.28381 0.04900
C 	C 	0.98255 0.51362 0.61715 0.05000
C 	C 	0.64921 0.84696 0.95048 0.04900
C 	C 	0.30024 0.17268 0.27169 0.04900
C 	C 	0.96691 0.50602 0.60502 0.04900
C 	C 	0.63357 0.83935 0.93836 0.04900
C 	C 	0.30821 0.21748 0.27781 0.04900
C 	C 	0.97488 0.55081 0.61114 0.04900
C 	C 	0.64154 0.88414 0.94447 0.04900
C 	C 	0.30800 0.16291 0.27773 -0.08400
C 	C 	0.97467 0.49625 0.61107 -0.08400
C 	C 	0.64133 0.82958 0.94440 -0.08400
H 	H 	0.30789 0.14178 0.27771 0.05600
H 	H 	0.97456 0.47511 0.61104 0.05600
H 	H 	0.64122 0.80844 0.94438 0.05600
C 	C 	0.30034 0.19998 0.27172 -0.08400
C 	C 	0.96701 0.53331 0.60506 -0.08400
C 	C 	0.63367 0.86665 0.93839 -0.08400
H 	H 	0.29426 0.20753 0.26704 0.05600
H 	H 	0.96093 0.54086 0.60038 0.05600
H 	H 	0.62759 0.87419 0.93371 0.05600
C 	C 	0.31600 0.20760 0.28385 -0.08400
C 	C 	0.98266 0.54093 0.61719 -0.08400
C 	C 	0.64933 0.87426 0.95052 -0.08400
H 	H 	0.32212 0.22108 0.28856 0.05600
H 	H 	0.98879 0.55441 0.62189 0.05600
H 	H 	0.65545 0.88775 0.95523 0.05600
C 	C 	0.35192 0.16761 0.30681 -0.08000
C 	C 	0.01859 0.50094 0.64015 -0.08000
C 	C 	0.68526 0.83427 0.97348 -0.08000
C 	C 	0.36176 0.15739 0.31242 0.04000
C 	C 	0.02843 0.49073 0.64576 0.04000
C 	C 	0.69510 0.82406 0.97909 0.04000
C 	C 	0.35973 0.12904 0.31216 -0.13200
C 	C 	0.02640 0.46237 0.64550 -0.13200
C 	C 	0.69307 0.79570 0.97883 -0.13200
C 	C 	0.34712 0.11097 0.30621 0.04000
C 	C 	0.01379 0.44430 0.63954 0.04000
C 	C 	0.68045 0.77764 0.97287 0.04000
C 	C 	0.33730 0.12128 0.30060 -0.08000
C 	C 	0.00396 0.45462 0.63394 -0.08000
C 	C 	0.67063 0.78795 0.96727 -0.08000
C 	C 	0.33989 0.14969 0.30088 0.04900
C 	C 	0.00656 0.48302 0.63421 0.04800
C 	C 	0.67322 0.81635 0.96755 0.04800
H 	H 	0.37140 0.17181 0.31694 0.03500
H 	H 	0.03806 0.50514 0.65027 0.03500
H 	H 	0.70473 0.83847 0.98360 0.03500
H 	H 	0.34532 0.08908 0.30586 0.03500
H 	H 	0.01199 0.42241 0.63919 0.03500
H 	H 	0.67865 0.75575 0.97253 0.03500
H 	H 	0.35403 0.18963 0.30706 0.05300
H 	H 	0.02070 0.52296 0.64039 0.05300
H 	H 	0.68736 0.85630 0.97372 0.05300
H 	H 	0.32803 0.10731 0.29602 0.05300
H 	H 	0.99469 0.44064 0.62935 0.05300
H 	H 	0.66136 0.77397 0.96268 0.05300
C 	C 	0.30165 0.30740 0.27176 -0.08000
C 	C 	0.96832 0.64073 0.60509 -0.08000
C 	C 	0.63499 0.97407 0.93843 -0.08100
C 	C 	0.30130 0.33444 0.27178 0.03900
C 	C 	0.96796 0.66777 0.60511 0.03900
C 	C 	0.63463 0.00110 0.93845 0.04000
C 	C 	0.30715 0.35132 0.27797 -0.13200
C 	C 	0.97382 0.68465 0.61130 -0.13200
C 	C 	0.64049 0.01799 0.94463 -0.13300
C 	C 	0.31340 0.34045 0.28411 0.04000
C 	C 	0.98007 0.67378 0.61745 0.03900
C 	C 	0.64673 0.00712 0.95078 0.04000
C 	C 	0.31373 0.31340 0.28407 -0.08000
C 	C 	0.98040 0.64673 0.61740 -0.08000
C 	C 	0.64706 0.98006 0.95074 -0.08100
C 	C 	0.30785 0.29682 0.27790 0.04800
C 	C 	0.97452 0.63015 0.61123 0.04800
C 	C 	0.64118 0.96348 0.94457 0.04900
H 	H 	0.29646 0.34225 0.26697 0.03500
H 	H 	0.96312 0.67559 0.60030 0.03500
H 	H 	0.62979 0.00892 0.93363 0.03500
H 	H 	0.31800 0.35296 0.28895 0.03500
H 	H 	0.98467 0.68629 0.62229 0.03500
H 	H 	0.65134 0.01962 0.95562 0.03500
H 	H 	0.29709 0.29469 0.26696 0.05300
H 	H 	0.96375 0.62803 0.60029 0.05300
H 	H 	0.63042 0.96136 0.93363 0.05300
H 	H 	0.31854 0.30535 0.28885 0.05300
H 	H 	0.98521 0.63869 0.62218 0.05300
H 	H 	0.65188 0.97202 0.95551 0.05300
C 	C 	0.27869 0.09269 0.25475 -0.08000
C 	C 	0.94535 0.42602 0.58809 -0.08000
C 	C 	0.61202 0.75935 0.92142 -0.08100
C 	C 	0.26858 0.07244 0.24917 0.04000
C 	C 	0.93524 0.40577 0.58250 0.04000
C 	C 	0.60191 0.73910 0.91583 0.04000
C 	C 	0.25513 0.07746 0.24331 -0.13300
C 	C 	0.92180 0.41079 0.57665 -0.13300
C 	C 	0.58847 0.74412 0.90998 -0.13300
C 	C 	0.25259 0.10350 0.24314 0.04000
C 	C 	0.91926 0.43683 0.57647 0.04000
C 	C 	0.58593 0.77017 0.90981 0.04000
C 	C 	0.26272 0.12367 0.24874 -0.08000
C 	C 	0.92939 0.45701 0.58207 -0.08100
C 	C 	0.59606 0.79034 0.91540 -0.08100
C 	C 	0.27557 0.11819 0.25457 0.04900
C 	C 	0.94223 0.45153 0.58790 0.04900
C 	C 	0.60890 0.78486 0.92124 0.04900
H 	H 	0.27082 0.05259 0.24944 0.03400
H 	H 	0.93748 0.38592 0.58278 0.03400
H 	H 	0.60415 0.71926 0.91611 0.03400
H 	H 	0.24233 0.10795 0.23870 0.03500
H 	H 	0.90900 0.44129 0.57203 0.03500
H 	H 	0.57567 0.77462 0.90537 0.03500
H 	H 	0.28859 0.08830 0.25926 0.05300
H 	H 	0.95525 0.42163 0.59260 0.05300
H 	H 	0.62192 0.75496 0.92593 0.05300
H 	H 	0.26020 0.14336 0.24856 0.05300
H 	H 	0.92687 0.47669 0.58190 0.05300
H 	H 	0.59353 0.81002 0.91523 0.05300
C 	C 	0.33110 0.16081 0.29498 -0.02100
C 	C 	0.99777 0.49414 0.62831 -0.02100
C 	C 	0.66444 0.82747 0.96165 -0.02100
C 	C 	0.32407 0.16996 0.28995 -0.02200
C 	C 	0.99074 0.50329 0.62329 -0.02200
C 	C 	0.65741 0.83663 0.95662 -0.02200
C 	C 	0.30807 0.26890 0.27787 -0.02100
C 	C 	0.97474 0.60223 0.61121 -0.02100
C 	C 	0.64140 0.93557 0.94454 -0.02200
C 	C 	0.30818 0.24548 0.27785 -0.02200
C 	C 	0.97484 0.57882 0.61118 -0.02200
C 	C 	0.64151 0.91215 0.94451 -0.02200
C 	C 	0.29184 0.15428 0.26552 -0.02200
C 	C 	0.95851 0.48761 0.59886 -0.02200
C 	C 	0.62517 0.82095 0.93219 -0.02200
C 	C 	0.28461 0.13814 0.26047 -0.02100
C 	C 	0.95128 0.47147 0.59381 -0.02100
C 	C 	0.61794 0.80481 0.92714 -0.02100
C 	C 	0.97894 0.06421 0.22729 0.05100
C 	C 	0.64560 0.39755 0.56062 0.05000
C 	C 	0.31227 0.73088 0.89395 0.05000
C 	C 	0.94482 0.01039 0.22724 0.05000
C 	C 	0.61149 0.34373 0.56057 0.05000
C 	C 	0.27815 0.67706 0.89390 0.05000
C 	C 	0.99865 0.03014 0.22730 0.05100
C 	C 	0.66532 0.36347 0.56063 0.05000
C 	C 	0.33199 0.69681 0.89397 0.05000
C 	C 	0.94962 0.03968 0.22725 -0.08500
C 	C 	0.61629 0.37301 0.56059 -0.08500
C 	C 	0.28295 0.70635 0.89392 -0.08500
H 	H 	0.93063 0.04336 0.22720 0.05600
H 	H 	0.59729 0.37670 0.56053 0.05600
H 	H 	0.26396 0.71003 0.89386 0.05600
C 	C 	0.96934 0.00562 0.22726 -0.08500
C 	C 	0.63601 0.33895 0.56060 -0.08500
C 	C 	0.30268 0.67229 0.89393 -0.08500
H 	H 	0.96563 0.98294 0.22722 0.05600
H 	H 	0.63230 0.31627 0.56055 0.05600
H 	H 	0.29896 0.64960 0.89389 0.05600
C 	C 	0.00345 0.05944 0.22732 -0.08600
C 	C 	0.67012 0.39278 0.56065 -0.08500
C 	C 	0.33678 0.72611 0.89398 -0.08500
H 	H 	0.02615 0.07844 0.22731 0.05600
H 	H 	0.69282 0.41178 0.56064 0.05600
H 	H 	0.35948 0.74511 0.89397 0.05600
C 	C 	0.01936 0.17420 0.22637 -0.08100
C 	C 	0.68603 0.50754 0.55970 -0.08100
C 	C 	0.35269 0.84087 0.89303 -0.08100
C 	C 	0.02247 0.20282 0.22604 0.04100
C 	C 	0.68914 0.53615 0.55937 0.04100
C 	C 	0.35580 0.86948 0.89271 0.04100
C 	C 	0.99691 0.20618 0.22616 -0.13400
C 	C 	0.66358 0.53952 0.55950 -0.13500
C 	C 	0.33025 0.87285 0.89283 -0.13500
C 	C 	0.96828 0.18031 0.22666 0.04100
C 	C 	0.63494 0.51365 0.56000 0.04100
C 	C 	0.30161 0.84698 0.89333 0.04100
C 	C 	0.96528 0.15182 0.22699 -0.08100
C 	C 	0.63195 0.48515 0.56032 -0.08100
C 	C 	0.29862 0.81848 0.89366 -0.08100
C 	C 	0.99076 0.14871 0.22683 0.04900
C 	C 	0.65743 0.48204 0.56016 0.04900
C 	C 	0.32410 0.81537 0.89350 0.04900
H 	H 	0.04478 0.22236 0.22566 0.03500
H 	H 	0.71144 0.55569 0.55900 0.03500
H 	H 	0.37811 0.88902 0.89233 0.03400
H 	H 	0.94821 0.18222 0.22677 0.03500
H 	H 	0.61487 0.51556 0.56010 0.03500
H 	H 	0.28154 0.84889 0.89344 0.03500
H 	H 	0.03918 0.17190 0.22624 0.05300
H 	H 	0.70584 0.50523 0.55957 0.05300
H 	H 	0.37251 0.83857 0.89290 0.05300
H 	H 	0.94309 0.13214 0.22734 0.05300
H 	H 	0.60975 0.46548 0.56067 0.05300
H 	H 	0.27642 0.79881 0.89401 0.05300
C 	C 	0.09996 0.04379 0.22708 -0.08100
C 	C 	0.76663 0.37712 0.56042 -0.08100
C 	C 	0.43329 0.71046 0.89375 -0.08100
C 	C 	0.12548 0.04082 0.22676 0.04100
C 	C 	0.79215 0.37416 0.56009 0.04100
C 	C 	0.45882 0.70749 0.89342 0.04100
C 	C 	0.12271 0.01223 0.22620 -0.13400
C 	C 	0.78938 0.34556 0.55953 -0.13400
C 	C 	0.45605 0.67889 0.89286 -0.13400
C 	C 	0.09376 0.98667 0.22601 0.04100
C 	C 	0.76043 0.32001 0.55935 0.04100
C 	C 	0.42709 0.65334 0.89268 0.04100
C 	C 	0.06823 0.98976 0.22634 -0.08100
C 	C 	0.73490 0.32309 0.55968 -0.08100
C 	C 	0.40157 0.65642 0.89301 -0.08100
C 	C 	0.07134 0.01832 0.22686 0.04900
C 	C 	0.73801 0.35165 0.56020 0.04900
C 	C 	0.40467 0.68499 0.89353 0.04900
H 	H 	0.14748 0.06089 0.22691 0.03500
H 	H 	0.81415 0.39422 0.56024 0.03500
H 	H 	0.48082 0.72756 0.89358 0.03500
H 	H 	0.09100 0.96440 0.22559 0.03500
H 	H 	0.75766 0.29773 0.55892 0.03500
H 	H 	0.42433 0.63107 0.89225 0.03500
H 	H 	0.10249 0.06596 0.22748 0.05300
H 	H 	0.76916 0.39929 0.56081 0.05300
H 	H 	0.43582 0.73263 0.89415 0.05300
H 	H 	0.04609 0.96995 0.22616 0.05300
H 	H 	0.71275 0.30328 0.55950 0.05300
H 	H 	0.37942 0.63661 0.89283 0.05300
C 	C 	0.83476 0.94101 0.22624 -0.08100
C 	C 	0.50143 0.27435 0.55957 -0.08100
C 	C 	0.16810 0.60768 0.89291 -0.08100
C 	C 	0.80608 0.91555 0.22592 0.04100
C 	C 	0.47274 0.24889 0.55925 0.04100
C 	C 	0.13941 0.58222 0.89258 0.04100
C 	C 	0.80257 0.88658 0.22602 -0.13500
C 	C 	0.46923 0.21991 0.55936 -0.13500
C 	C 	0.13590 0.55324 0.89269 -0.13400
C 	C 	0.82836 0.88371 0.22650 0.04100
C 	C 	0.49503 0.21705 0.55983 0.04100
C 	C 	0.16170 0.55038 0.89317 0.04100
C 	C 	0.85693 0.90917 0.22683 -0.08100
C 	C 	0.52359 0.24250 0.56016 -0.08100
C 	C 	0.19026 0.57583 0.89349 -0.08100
C 	C 	0.86018 0.93781 0.22669 0.04900
C 	C 	0.52685 0.27114 0.56002 0.04900
C 	C 	0.19351 0.60448 0.89335 0.04900
H 	H 	0.78659 0.91839 0.22555 0.03500
H 	H 	0.45326 0.25172 0.55889 0.03500
H 	H 	0.11992 0.58506 0.89222 0.03500
H 	H 	0.82634 0.86169 0.22660 0.03500
H 	H 	0.49301 0.19502 0.55993 0.03500
H 	H 	0.15967 0.52836 0.89326 0.03500
H 	H 	0.83718 0.96318 0.22613 0.05300
H 	H 	0.50385 0.29651 0.55946 0.05300
H 	H 	0.17052 0.62985 0.89279 0.05300
H 	H 	0.87654 0.90657 0.22716 0.05300
H 	H 	0.54321 0.23990 0.56050 0.05300
H 	H 	0.20987 0.57323 0.89383 0.05300
C 	C 	0.98731 0.11922 0.22705 -0.02100
C 	C 	0.65398 0.45255 0.56038 -0.02200
C 	C 	0.32065 0.78589 0.89371 -0.02200
C 	C 	0.98376 0.09424 0.22718 -0.02200
C 	C 	0.65043 0.42757 0.56052 -0.02200
C 	C 	0.31710 0.76091 0.89385 -0.02200
C 	C 	0.04529 0.02177 0.22707 -0.02100
C 	C 	0.71196 0.35510 0.56041 -0.02200
C 	C 	0.37863 0.68843 0.89374 -0.02200
C 	C 	0.02387 0.02532 0.22720 -0.02300
C 	C 	0.69053 0.35866 0.56054 -0.02200
C 	C 	0.35720 0.69199 0.89387 -0.02200
C 	C 	0.91476 0.98519 0.22709 -0.02200
C 	C 	0.58143 0.31852 0.56042 -0.02200
C 	C 	0.24810 0.65186 0.89376 -0.02200
C 	C 	0.88974 0.96379 0.22693 -0.02100
C 	C 	0.55640 0.29713 0.56026 -0.02200
C 	C 	0.22307 0.63046 0.89359 -0.02200
Zn	Zn	0.87910 0.60393 0.05857 1.26800
Zn	Zn	0.54577 0.93726 0.39190 1.26800
Zn	Zn	0.21244 0.27059 0.72523 1.26800
Zn	Zn	0.89677 0.65630 0.05026 1.27000
Zn	Zn	0.56344 0.98963 0.38360 1.27000
Zn	Zn	0.23011 0.32296 0.71693 1.27000
Zn	Zn	0.84208 0.63155 0.05827 1.26800
Zn	Zn	0.50874 0.96488 0.39160 1.26800
Zn	Zn	0.17541 0.29822 0.72493 1.26800
Zn	Zn	0.89955 0.66179 0.06534 1.26300
Zn	Zn	0.56622 0.99513 0.39867 1.26300
Zn	Zn	0.23288 0.32846 0.73201 1.26300
O 	O 	0.87939 0.63842 0.05815 -1.07400
O 	O 	0.54606 0.97176 0.39148 -1.07400
O 	O 	0.21273 0.30509 0.72481 -1.07400
O 	O 	0.89442 0.59568 0.05126 -0.53600
O 	O 	0.56109 0.92902 0.38460 -0.53600
O 	O 	0.22775 0.26235 0.71793 -0.53600
O 	O 	0.87482 0.66521 0.04503 -0.54400
O 	O 	0.54149 0.99855 0.37837 -0.54400
O 	O 	0.20815 0.33188 0.71170 -0.54400
O 	O 	0.81470 0.59350 0.05864 -0.54000
O 	O 	0.48137 0.92684 0.39197 -0.54000
O 	O 	0.14804 0.26017 0.72531 -0.54000
O 	O 	0.90662 0.63547 0.04483 -0.54300
O 	O 	0.57329 0.96880 0.37817 -0.54300
O 	O 	0.23995 0.30213 0.71150 -0.54300
O 	O 	0.84317 0.57287 0.05919 -0.54300
O 	O 	0.50983 0.90620 0.39253 -0.54300
O 	O 	0.17650 0.23953 0.72586 -0.54300
O 	O 	0.83280 0.64609 0.05105 -0.54000
O 	O 	0.49947 0.97942 0.38439 -0.53900
O 	O 	0.16613 0.31276 0.71772 -0.54000
O 	O 	0.83429 0.64766 0.06536 -0.54200
O 	O 	0.50095 0.98099 0.39869 -0.54100
O 	O 	0.16762 0.31433 0.73203 -0.54100
O 	O 	0.91223 0.64413 0.07118 -0.53600
O 	O 	0.57889 0.97747 0.40451 -0.53600
O 	O 	0.24556 0.31080 0.73784 -0.53600
O 	O 	0.87826 0.67303 0.07053 -0.52900
O 	O 	0.54492 0.00637 0.40386 -0.52900
O 	O 	0.21159 0.33970 0.73719 -0.53000
O 	O 	0.89787 0.60110 0.06582 -0.54200
O 	O 	0.56453 0.93444 0.39915 -0.54200
O 	O 	0.23120 0.26777 0.73248 -0.54200
O 	O 	0.92983 0.69003 0.05142 -0.54500
O 	O 	0.59649 0.02336 0.38476 -0.54600
O 	O 	0.26316 0.35670 0.71809 -0.54500
O 	O 	0.93224 0.69521 0.06285 -0.53500
O 	O 	0.59891 0.02854 0.39618 -0.53500
O 	O 	0.26558 0.36188 0.72951 -0.53600
C 	C 	0.85067 0.66511 0.07013 0.41900
C 	C 	0.51733 0.99844 0.40347 0.41800
C 	C 	0.18400 0.33177 0.73680 0.42000
C 	C 	0.94303 0.70470 0.05683 0.42400
C 	C 	0.60970 0.03803 0.39016 0.42600
C 	C 	0.27637 0.37137 0.72350 0.42600
C 	C 	0.91048 0.61871 0.07089 0.42400
C 	C 	0.57715 0.95204 0.40422 0.42300
C 	C 	0.24381 0.28537 0.73755 0.42400
C 	C 	0.90476 0.61027 0.04567 0.42500
C 	C 	0.57143 0.94360 0.37900 0.42500
C 	C 	0.23809 0.27693 0.71233 0.42500
C 	C 	0.81754 0.57055 0.05910 0.42800
C 	C 	0.48421 0.90389 0.39244 0.42800
C 	C 	0.15088 0.23722 0.72577 0.42800
C 	C 	0.84832 0.66015 0.04580 0.42800
C 	C 	0.51499 0.99349 0.37913 0.42700
C 	C 	0.18165 0.32682 0.71247 0.42800
C 	C 	0.14614 0.90902 0.05828 0.05000
C 	C 	0.81280 0.24235 0.39161 0.05000
C 	C 	0.47947 0.57568 0.72494 0.05000
C 	C 	0.10516 0.86695 0.05229 0.05000
C 	C 	0.77183 0.20029 0.38563 0.05000
C 	C 	0.43849 0.53362 0.71896 0.05000
C 	C 	0.14343 0.90886 0.04564 0.04900
C 	C 	0.81010 0.24220 0.37897 0.04900
C 	C 	0.47676 0.57553 0.71231 0.05000
C 	C 	0.11983 0.88106 0.05848 -0.08500
C 	C 	0.78649 0.21439 0.39181 -0.08500
C 	C 	0.45316 0.54773 0.72515 -0.08500
H 	H 	0.11045 0.87052 0.06346 0.05600
H 	H 	0.77712 0.20385 0.39680 0.05600
H 	H 	0.44379 0.53719 0.73013 0.05600
C 	C 	0.11696 0.88081 0.04585 -0.08400
C 	C 	0.78363 0.21414 0.37918 -0.08400
C 	C 	0.45029 0.54747 0.71252 -0.08400
H 	H 	0.10542 0.87005 0.04105 0.05600
H 	H 	0.77209 0.20339 0.37439 0.05600
H 	H 	0.43875 0.53672 0.70772 0.05600
C 	C 	0.15799 0.92292 0.05186 -0.08400
C 	C 	0.82466 0.25626 0.38520 -0.08500
C 	C 	0.49133 0.58959 0.71853 -0.08500
H 	H 	0.17816 0.94483 0.05172 0.05600
H 	H 	0.84482 0.27816 0.38506 0.05600
H 	H 	0.51149 0.61150 0.71839 0.05600
C 	C 	0.16057 0.94054 0.08258 -0.08100
C 	C 	0.82723 0.27388 0.41592 -0.08200
C 	C 	0.49390 0.60721 0.74925 -0.08100
C 	C 	0.17004 0.95497 0.08903 0.04100
C 	C 	0.83671 0.28830 0.42236 0.04200
C 	C 	0.50338 0.62164 0.75569 0.04200
C 	C 	0.19956 0.97907 0.08988 -0.13500
C 	C 	0.86622 0.31241 0.42322 -0.13600
C 	C 	0.53289 0.64574 0.75655 -0.13500
C 	C 	0.21952 0.98795 0.08417 0.04100
C 	C 	0.88618 0.32128 0.41751 0.04100
C 	C 	0.55285 0.65462 0.75084 0.04100
C 	C 	0.20992 0.97345 0.07773 -0.08100
C 	C 	0.87659 0.30678 0.41106 -0.08100
C 	C 	0.54325 0.64011 0.74440 -0.08100
C 	C 	0.18038 0.94992 0.07692 0.04900
C 	C 	0.84704 0.28325 0.41025 0.04900
C 	C 	0.51371 0.61659 0.74359 0.04900
H 	H 	0.15420 0.94770 0.09333 0.03500
H 	H 	0.82086 0.28103 0.42666 0.03500
H 	H 	0.48753 0.61436 0.75999 0.03500
H 	H 	0.24236 0.00647 0.08469 0.03400
H 	H 	0.90903 0.33980 0.41802 0.03400
H 	H 	0.57569 0.67313 0.75136 0.03400
H 	H 	0.13763 0.92236 0.08197 0.05300
H 	H 	0.80430 0.25569 0.41531 0.05300
H 	H 	0.47096 0.58903 0.74864 0.05300
H 	H 	0.22533 0.98082 0.07335 0.05300
H 	H 	0.89200 0.31415 0.40668 0.05300
H 	H 	0.55867 0.64749 0.74002 0.05300
C 	C 	0.20694 0.98060 0.02773 -0.07900
C 	C 	0.87360 0.31393 0.36106 -0.07900
C 	C 	0.54027 0.64726 0.69440 -0.07900
C 	C 	0.21871 0.99899 0.02186 0.03700
C 	C 	0.88538 0.33232 0.35519 0.03700
C 	C 	0.55205 0.66565 0.68852 0.03700
C 	C 	0.20171 0.99243 0.01568 -0.12700
C 	C 	0.86838 0.32577 0.34902 -0.12600
C 	C 	0.53504 0.65910 0.68235 -0.12700
C 	C 	0.17291 0.96663 0.01549 0.03700
C 	C 	0.83957 0.29997 0.34882 0.03700
C 	C 	0.50624 0.63330 0.68216 0.03700
C 	C 	0.16119 0.94829 0.02139 -0.07900
C 	C 	0.82785 0.28163 0.35472 -0.07800
C 	C 	0.49452 0.61496 0.68805 -0.07900
C 	C 	0.17808 0.95540 0.02753 0.04700
C 	C 	0.84474 0.28873 0.36087 0.04700
C 	C 	0.51141 0.62207 0.69420 0.04700
H 	H 	0.24093 0.01870 0.02216 0.03700
H 	H 	0.90760 0.35203 0.35549 0.03700
H 	H 	0.57426 0.68536 0.68883 0.03700
H 	H 	0.15929 0.96107 0.01081 0.03600
H 	H 	0.82596 0.29440 0.34415 0.03600
H 	H 	0.49262 0.62773 0.67748 0.03600
H 	H 	0.22010 0.98629 0.03248 0.05200
H 	H 	0.88677 0.31962 0.36581 0.05200
H 	H 	0.55344 0.65295 0.69914 0.05200
H 	H 	0.13877 0.92887 0.02121 0.05200
H 	H 	0.80544 0.26220 0.35454 0.05200
H 	H 	0.47211 0.59554 0.68787 0.05200
C 	C 	0.01488 0.77764 0.06095 -0.08100
C 	C 	0.68154 0.11097 0.39428 -0.08100
C 	C 	0.34821 0.44431 0.72761 -0.08100
C 	C 	0.98773 0.75068 0.06183 0.04100
C 	C 	0.65440 0.08401 0.39517 0.04000
C 	C 	0.32107 0.41735 0.72850 0.04000
C 	C 	0.97171 0.73350 0.05600 -0.13400
C 	C 	0.63838 0.06683 0.38933 -0.13400
C 	C 	0.30504 0.40017 0.72267 -0.13400
C 	C 	0.98348 0.74396 0.04927 0.04100
C 	C 	0.65014 0.07730 0.38261 0.04100
C 	C 	0.31681 0.41063 0.71594 0.04100
C 	C 	0.01056 0.77087 0.04841 -0.08100
C 	C 	0.67723 0.10420 0.38175 -0.08100
C 	C 	0.34389 0.43753 0.71508 -0.08100
C 	C 	0.02631 0.78773 0.05424 0.04900
C 	C 	0.69297 0.12106 0.38757 0.04900
C 	C 	0.35964 0.45439 0.72090 0.04900
H 	H 	0.97922 0.74314 0.06706 0.03400
H 	H 	0.64588 0.07648 0.40040 0.03400
H 	H 	0.31255 0.40981 0.73373 0.03400
H 	H 	0.97165 0.73121 0.04468 0.03600
H 	H 	0.63831 0.06454 0.37801 0.03600
H 	H 	0.30498 0.39788 0.71135 0.03600
H 	H 	0.02700 0.79065 0.06548 0.05300
H 	H 	0.69367 0.12399 0.39881 0.05300
H 	H 	0.36033 0.45732 0.73215 0.05300
H 	H 	0.01927 0.77856 0.04321 0.05300
H 	H 	0.68593 0.11190 0.37654 0.05300
H 	H 	0.35260 0.44523 0.70987 0.05300
C 	C 	0.16979 0.93596 0.07023 -0.02200
C 	C 	0.83646 0.26930 0.40357 -0.02200
C 	C 	0.50312 0.60263 0.73690 -0.02200
C 	C 	0.15971 0.92394 0.06471 -0.02200
C 	C 	0.82638 0.25727 0.39805 -0.02200
C 	C 	0.49305 0.59061 0.73138 -0.02200
C 	C 	0.16541 0.93783 0.03375 -0.02100
C 	C 	0.83208 0.27117 0.36709 -0.02100
C 	C 	0.49874 0.60450 0.70042 -0.02100
C 	C 	0.15515 0.92407 0.03910 -0.02200
C 	C 	0.82182 0.25741 0.37243 -0.02200
C 	C 	0.48849 0.59074 0.70577 -0.02200
C 	C 	0.07743 0.83881 0.05270 -0.02200
C 	C 	0.74410 0.17215 0.38603 -0.02200
C 	C 	0.41077 0.50548 0.71937 -0.02200
C 	C 	0.05414 0.81545 0.05333 -0.02200
C 	C 	0.72080 0.14878 0.38666 -0.02200
C 	C 	0.38747 0.48211 0.71999 -0.02100
Zn	Zn	0.22542 0.06699 0.11310 1.26700
Zn	Zn	0.89209 0.40032 0.44643 1.26700
Zn	Zn	0.55876 0.73365 0.77976 1.26700
Zn	Zn	0.19337 0.00339 0.10981 1.26700
Zn	Zn	0.86004 0.33672 0.44314 1.26700
Zn	Zn	0.52671 0.67005 0.77648 1.26700
Zn	Zn	0.25281 0.04245 0.10412 1.26700
Zn	Zn	0.91948 0.37579 0.43745 1.26700
Zn	Zn	0.58615 0.70912 0.77079 1.26700
Zn	Zn	0.24524 0.02756 0.11881 1.26600
Zn	Zn	0.91190 0.36090 0.45215 1.26600
Zn	Zn	0.57857 0.69423 0.78548 1.26600
O 	O 	0.22919 0.03509 0.11146 -1.07200
O 	O 	0.89586 0.36843 0.44480 -1.07200
O 	O 	0.56253 0.70176 0.77813 -1.07300
O 	O 	0.18829 0.05944 0.11272 -0.53900
O 	O 	0.85496 0.39277 0.44606 -0.53900
O 	O 	0.52163 0.72611 0.77939 -0.53900
O 	O 	0.19021 0.98805 0.10152 -0.54200
O 	O 	0.85688 0.32138 0.43485 -0.54200
O 	O 	0.52355 0.65472 0.76819 -0.54200
O 	O 	0.26553 0.07786 0.10037 -0.53800
O 	O 	0.93220 0.41119 0.43370 -0.53800
O 	O 	0.59887 0.74452 0.76704 -0.53800
O 	O 	0.16399 0.01120 0.11024 -0.53900
O 	O 	0.83065 0.34453 0.44357 -0.53900
O 	O 	0.49732 0.67786 0.77690 -0.53900
O 	O 	0.24505 0.09687 0.10725 -0.53600
O 	O 	0.91171 0.43021 0.44058 -0.53600
O 	O 	0.57838 0.76354 0.77392 -0.53600
O 	O 	0.23539 0.01753 0.09722 -0.54100
O 	O 	0.90206 0.35087 0.43056 -0.54200
O 	O 	0.56872 0.68420 0.76389 -0.54200
O 	O 	0.28529 0.04070 0.10589 -0.53900
O 	O 	0.95196 0.37403 0.43922 -0.53900
O 	O 	0.61863 0.70736 0.77255 -0.53900
O 	O 	0.25286 0.05257 0.12571 -0.54100
O 	O 	0.91953 0.38590 0.45905 -0.54100
O 	O 	0.58619 0.71924 0.79238 -0.54100
O 	O 	0.27947 0.02914 0.11705 -0.53900
O 	O 	0.94614 0.36247 0.45039 -0.53800
O 	O 	0.61280 0.69581 0.78372 -0.53800
O 	O 	0.23781 0.08241 0.12136 -0.54300
O 	O 	0.90447 0.41574 0.45469 -0.54200
O 	O 	0.57114 0.74908 0.78803 -0.54200
O 	O 	0.18285 0.97340 0.11563 -0.53600
O 	O 	0.84952 0.30673 0.44896 -0.53500
O 	O 	0.51619 0.64006 0.78230 -0.53600
O 	O 	0.22220 0.99214 0.12255 -0.53800
O 	O 	0.88886 0.32547 0.45589 -0.53700
O 	O 	0.55553 0.65880 0.78922 -0.53800
C 	C 	0.29449 0.03491 0.11147 0.42300
C 	C 	0.96115 0.36824 0.44480 0.42200
C 	C 	0.62782 0.70157 0.77813 0.42200
C 	C 	0.19641 0.97104 0.12087 0.42100
C 	C 	0.86308 0.30437 0.45421 0.42000
C 	C 	0.52975 0.63771 0.78754 0.42100
C 	C 	0.24872 0.07470 0.12631 0.42700
C 	C 	0.91539 0.40803 0.45964 0.42700
C 	C 	0.58206 0.74136 0.79297 0.42800
C 	C 	0.16406 0.03536 0.11149 0.42500
C 	C 	0.83073 0.36869 0.44483 0.42500
C 	C 	0.49740 0.70202 0.77816 0.42500
C 	C 	0.26100 0.09906 0.10202 0.42200
C 	C 	0.92767 0.43239 0.43535 0.42100
C 	C 	0.59433 0.76573 0.76868 0.42100
C 	C 	0.20898 0.99565 0.09659 0.42700
C 	C 	0.87564 0.32899 0.42992 0.42800
C 	C 	0.54231 0.66232 0.76326 0.42700
C 	C 	0.00099 0.03552 0.11154 0.04900
C 	C 	0.66766 0.36885 0.44488 0.05000
C 	C 	0.33432 0.70219 0.77821 0.04900
C 	C 	0.94646 0.00808 0.11148 0.05000
C 	C 	0.61313 0.34141 0.44482 0.05000
C 	C 	0.27979 0.67475 0.77815 0.05000
C 	C 	0.97358 0.06258 0.11147 0.05000
C 	C 	0.64024 0.39592 0.44481 0.04900
C 	C 	0.30691 0.72925 0.77814 0.05000
C 	C 	0.97377 0.00823 0.11153 -0.08400
C 	C 	0.64044 0.34156 0.44486 -0.08400
C 	C 	0.30710 0.67489 0.77819 -0.08400
H 	H 	0.97384 0.98719 0.11154 0.05600
H 	H 	0.64051 0.32052 0.44487 0.05600
H 	H 	0.30717 0.65385 0.77821 0.05600
C 	C 	0.94639 0.03527 0.11146 -0.08400
C 	C 	0.61305 0.36860 0.44479 -0.08400
C 	C 	0.27972 0.70194 0.77812 -0.08400
H 	H 	0.92526 0.03517 0.11142 0.05600
H 	H 	0.59193 0.36850 0.44475 0.05600
H 	H 	0.25859 0.70184 0.77808 0.05600
C 	C 	0.00087 0.06269 0.11152 -0.08500
C 	C 	0.66754 0.39602 0.44485 -0.08400
C 	C 	0.33420 0.72936 0.77818 -0.08400
H 	H 	0.02192 0.08382 0.11152 0.05600
H 	H 	0.68859 0.41716 0.44486 0.05600
H 	H 	0.35526 0.75049 0.77819 0.05600
C 	C 	0.08073 0.00902 0.11018 -0.08100
C 	C 	0.74740 0.34236 0.44351 -0.08100
C 	C 	0.41407 0.67569 0.77684 -0.08000
C 	C 	0.10788 0.00890 0.11015 0.04000
C 	C 	0.77455 0.34223 0.44349 0.04000
C 	C 	0.44121 0.67556 0.77682 0.04000
C 	C 	0.13520 0.03544 0.11152 -0.13300
C 	C 	0.80187 0.36878 0.44486 -0.13300
C 	C 	0.46853 0.70211 0.77819 -0.13300
C 	C 	0.13464 0.06206 0.11293 0.04000
C 	C 	0.80130 0.39539 0.44626 0.04000
C 	C 	0.46797 0.72873 0.77959 0.04000
C 	C 	0.10743 0.06208 0.11295 -0.08100
C 	C 	0.77410 0.39541 0.44628 -0.08100
C 	C 	0.44077 0.72875 0.77961 -0.08000
C 	C 	0.08046 0.03559 0.11157 0.04900
C 	C 	0.74713 0.36892 0.44490 0.04900
C 	C 	0.41379 0.70225 0.77824 0.04800
H 	H 	0.10763 0.98808 0.10906 0.03500
H 	H 	0.77429 0.32141 0.44239 0.03500
H 	H 	0.44096 0.65474 0.77573 0.03500
H 	H 	0.15532 0.08283 0.11400 0.03500
H 	H 	0.82198 0.41616 0.44733 0.03500
H 	H 	0.48865 0.74949 0.78067 0.03500
H 	H 	0.05992 0.98843 0.10911 0.05300
H 	H 	0.72658 0.32176 0.44244 0.05300
H 	H 	0.39325 0.65510 0.77577 0.05300
H 	H 	0.10737 0.08273 0.11403 0.05300
H 	H 	0.77404 0.41606 0.44736 0.05300
H 	H 	0.44071 0.74940 0.78070 0.05300
C 	C 	0.99976 0.16862 0.10976 -0.08100
C 	C 	0.66642 0.50196 0.44310 -0.08100
C 	C 	0.33309 0.83529 0.77643 -0.08100
C 	C 	0.99984 0.19586 0.10969 0.04100
C 	C 	0.66651 0.52919 0.44302 0.04000
C 	C 	0.33317 0.86252 0.77636 0.04100
C 	C 	0.97339 0.19666 0.11117 -0.13400
C 	C 	0.64006 0.53000 0.44450 -0.13400
C 	C 	0.30673 0.86333 0.77783 -0.13400
C 	C 	0.94690 0.16954 0.11271 0.04100
C 	C 	0.61357 0.50288 0.44605 0.04000
C 	C 	0.28024 0.83621 0.77938 0.04100
C 	C 	0.94692 0.14235 0.11278 -0.08100
C 	C 	0.61359 0.47568 0.44611 -0.08100
C 	C 	0.28026 0.80901 0.77945 -0.08100
C 	C 	0.97333 0.14185 0.11131 0.04900
C 	C 	0.64000 0.47518 0.44464 0.04900
C 	C 	0.30666 0.80852 0.77798 0.04900
H 	H 	0.02056 0.21637 0.10848 0.03500
H 	H 	0.68723 0.54971 0.44182 0.03500
H 	H 	0.35390 0.88304 0.77515 0.03500
H 	H 	0.92623 0.16950 0.11387 0.03500
H 	H 	0.59289 0.50283 0.44720 0.03500
H 	H 	0.25956 0.83616 0.78054 0.03500
H 	H 	0.02028 0.16839 0.10862 0.05300
H 	H 	0.68695 0.50172 0.44195 0.05300
H 	H 	0.35361 0.83505 0.77528 0.05300
H 	H 	0.92638 0.12168 0.11398 0.05300
H 	H 	0.59305 0.45501 0.44732 0.05300
H 	H 	0.25971 0.78834 0.78065 0.05300
C 	C 	0.86665 0.90165 0.11277 -0.08100
C 	C 	0.53331 0.23499 0.44611 -0.08100
C 	C 	0.19998 0.56832 0.77944 -0.08100
C 	C 	0.83946 0.87439 0.11273 0.04000
C 	C 	0.50612 0.20773 0.44606 0.04100
C 	C 	0.17279 0.54106 0.77940 0.04000
C 	C 	0.81225 0.87370 0.11128 -0.13300
C 	C 	0.47892 0.20704 0.44462 -0.13400
C 	C 	0.14558 0.54037 0.77795 -0.13300
C 	C 	0.81296 0.90095 0.10989 0.04000
C 	C 	0.47963 0.23428 0.44323 0.04100
C 	C 	0.14629 0.56762 0.77656 0.04000
C 	C 	0.84020 0.92816 0.10994 -0.08100
C 	C 	0.50687 0.26149 0.44327 -0.08100
C 	C 	0.17354 0.59482 0.77661 -0.08000
C 	C 	0.86706 0.92855 0.11138 0.04900
C 	C 	0.53373 0.26188 0.44471 0.04900
C 	C 	0.20040 0.59522 0.77805 0.04900
H 	H 	0.83958 0.85377 0.11382 0.03500
H 	H 	0.50625 0.18710 0.44715 0.03500
H 	H 	0.17292 0.52044 0.78049 0.03500
H 	H 	0.79237 0.90110 0.10877 0.03500
H 	H 	0.45903 0.23443 0.44210 0.03500
H 	H 	0.12570 0.56776 0.77543 0.03500
H 	H 	0.88738 0.90181 0.11389 0.05300
H 	H 	0.55404 0.23514 0.44723 0.05300
H 	H 	0.22071 0.56848 0.78056 0.05300
H 	H 	0.84038 0.94891 0.10886 0.05300
H 	H 	0.50705 0.28225 0.44219 0.05300
H 	H 	0.17371 0.61558 0.77552 0.05300
C 	C 	0.05250 0.03565 0.11157 -0.02200
C 	C 	0.71916 0.36898 0.44491 -0.02100
C 	C 	0.38583 0.70231 0.77824 -0.02100
C 	C 	0.02904 0.03563 0.11157 -0.02200
C 	C 	0.69570 0.36896 0.44490 -0.02200
C 	C 	0.36237 0.70229 0.77823 -0.02200
C 	C 	0.97335 0.11388 0.11138 -0.02100
C 	C 	0.64002 0.44722 0.44471 -0.02100
C 	C 	0.30669 0.78055 0.77804 -0.02200
C 	C 	0.97345 0.09049 0.11143 -0.02200
C 	C 	0.64012 0.42383 0.44476 -0.02200
C 	C 	0.30678 0.75716 0.77809 -0.02200
C 	C 	0.91850 0.98004 0.11145 -0.02200
C 	C 	0.58517 0.31337 0.44478 -0.02200
C 	C 	0.25184 0.64670 0.77812 -0.02200
C 	C 	0.89506 0.95656 0.11142 -0.02100
C 	C 	0.56173 0.28989 0.44475 -0.02100
C 	C 	0.22840 0.62323 0.77809 -0.02100
Zn	Zn	0.69428 0.76325 0.11842 1.26600
Zn	Zn	0.36095 0.09658 0.45176 1.26600
Zn	Zn	0.02761 0.42991 0.78509 1.26600
Zn	Zn	0.72208 0.81524 0.10947 1.26700
Zn	Zn	0.38875 0.14858 0.44280 1.26700
Zn	Zn	0.05542 0.48191 0.77614 1.26700
Zn	Zn	0.75378 0.78342 0.11279 1.26700
Zn	Zn	0.42045 0.11676 0.44613 1.26700
Zn	Zn	0.08711 0.45009 0.77946 1.26700
Zn	Zn	0.70217 0.75603 0.10371 1.26600
Zn	Zn	0.36884 0.08936 0.43705 1.26600
Zn	Zn	0.03550 0.42269 0.77038 1.26600
O 	O 	0.71809 0.77949 0.11110 -1.07200
O 	O 	0.38475 0.11282 0.44443 -1.07200
O 	O 	0.05142 0.44616 0.77777 -1.07200
O 	O 	0.68170 0.78610 0.12218 -0.53700
O 	O 	0.34837 0.11944 0.45551 -0.53800
O 	O 	0.01504 0.45277 0.78885 -0.53700
O 	O 	0.75923 0.84473 0.10993 -0.53900
O 	O 	0.42590 0.17806 0.44327 -0.54000
O 	O 	0.09257 0.51139 0.77660 -0.53900
O 	O 	0.75658 0.77087 0.12106 -0.54200
O 	O 	0.42325 0.10420 0.45439 -0.54200
O 	O 	0.08991 0.43753 0.78772 -0.54200
O 	O 	0.70239 0.82554 0.11529 -0.53600
O 	O 	0.36906 0.15887 0.44862 -0.53600
O 	O 	0.03573 0.49221 0.78195 -0.53600
O 	O 	0.71142 0.75541 0.12533 -0.54100
O 	O 	0.37808 0.08874 0.45867 -0.54100
O 	O 	0.04475 0.42207 0.79200 -0.54100
O 	O 	0.78327 0.82062 0.11247 -0.53900
O 	O 	0.44994 0.15395 0.44580 -0.53900
O 	O 	0.11661 0.48728 0.77914 -0.53900
O 	O 	0.76440 0.76409 0.10695 -0.53600
O 	O 	0.43107 0.09742 0.44028 -0.53600
O 	O 	0.09774 0.43076 0.77361 -0.53600
O 	O 	0.66782 0.72345 0.10543 -0.53800
O 	O 	0.33448 0.05678 0.43876 -0.53800
O 	O 	0.00115 0.39012 0.77210 -0.53900
O 	O 	0.72517 0.74354 0.09999 -0.53700
O 	O 	0.39184 0.07687 0.43332 -0.53700
O 	O 	0.05851 0.41020 0.76666 -0.53800
O 	O 	0.66168 0.72911 0.11659 -0.53900
O 	O 	0.32835 0.06245 0.44992 -0.53900
O 	O 	0.99501 0.39578 0.78326 -0.53900
O 	O 	0.71005 0.81850 0.10118 -0.54200
O 	O 	0.37672 0.15183 0.43451 -0.54200
O 	O 	0.04339 0.48516 0.76785 -0.54200
O 	O 	0.69483 0.77356 0.09681 -0.54100
O 	O 	0.36149 0.10690 0.43014 -0.54100
O 	O 	0.02816 0.44023 0.76347 -0.54000
C 	C 	0.75093 0.74821 0.10169 0.42000
C 	C 	0.41759 0.08155 0.43502 0.42000
C 	C 	0.08426 0.41488 0.76835 0.42100
C 	C 	0.69917 0.79991 0.09622 0.42700
C 	C 	0.36583 0.13324 0.42955 0.42700
C 	C 	0.03250 0.46657 0.76288 0.42600
C 	C 	0.65260 0.71420 0.11099 0.42200
C 	C 	0.31927 0.04753 0.44432 0.42200
C 	C 	0.98594 0.38086 0.77766 0.42200
C 	C 	0.68636 0.81187 0.12052 0.42100
C 	C 	0.35303 0.14520 0.45385 0.42100
C 	C 	0.01970 0.47854 0.78718 0.42000
C 	C 	0.73772 0.75966 0.12597 0.42700
C 	C 	0.40439 0.09299 0.45930 0.42600
C 	C 	0.07106 0.42633 0.79263 0.42700
C 	C 	0.78335 0.84477 0.11123 0.42500
C 	C 	0.45001 0.17811 0.44456 0.42600
C 	C 	0.11668 0.51144 0.77789 0.42500
C 	C 	0.12413 0.33942 0.20131 -0.07200
C 	C 	0.79079 0.67275 0.53464 -0.07200
C 	C 	0.45746 0.00609 0.86798 -0.07000
H 	H 	0.13845 0.32969 0.20078 0.04800
H 	H 	0.80511 0.66302 0.53411 0.04800
H 	H 	0.47178 0.99635 0.86744 0.04800
C 	C 	0.10122 0.32754 0.20630 0.03800
C 	C 	0.76788 0.66087 0.53963 0.03700
C 	C 	0.43455 0.99421 0.87297 0.03600
H 	H 	0.09860 0.30926 0.20960 0.03400
H 	H 	0.76526 0.64259 0.54293 0.03400
H 	H 	0.43193 0.97592 0.87627 0.03400
C 	C 	0.08161 0.33899 0.20700 -0.13400
C 	C 	0.74828 0.67232 0.54033 -0.13300
C 	C 	0.41495 0.00565 0.87367 -0.13200
C 	C 	0.08546 0.36259 0.20262 0.03800
C 	C 	0.75213 0.69592 0.53596 0.03700
C 	C 	0.41879 0.02926 0.86929 0.03700
H 	H 	0.07076 0.37196 0.20310 0.03500
H 	H 	0.73743 0.70529 0.53644 0.03500
H 	H 	0.40409 0.03863 0.86977 0.03500
C 	C 	0.10866 0.37478 0.19773 -0.07200
C 	C 	0.77533 0.70811 0.53106 -0.07200
C 	C 	0.44200 0.04145 0.86439 -0.07100
H 	H 	0.11161 0.39357 0.19459 0.04800
H 	H 	0.77828 0.72690 0.52792 0.04800
H 	H 	0.44494 0.06023 0.86126 0.04800
C 	C 	0.12825 0.36333 0.19700 0.02600
C 	C 	0.79492 0.69666 0.53034 0.02600
C 	C 	0.46159 0.03000 0.86367 0.02500
C 	C 	0.18096 0.37912 0.19329 -0.07200
C 	C 	0.84763 0.71246 0.52663 -0.07200
C 	C 	0.51430 0.04579 0.85996 -0.07200
H 	H 	0.18518 0.37247 0.19833 0.04800
H 	H 	0.85185 0.70581 0.53166 0.04900
H 	H 	0.51852 0.03914 0.86500 0.04800
C 	C 	0.20397 0.39078 0.18834 0.03800
C 	C 	0.87064 0.72411 0.52167 0.03800
C 	C 	0.53730 0.05745 0.85500 0.03800
H 	H 	0.22528 0.39237 0.18960 0.03500
H 	H 	0.89195 0.72570 0.52293 0.03500
H 	H 	0.55861 0.05903 0.85626 0.03500
C 	C 	0.19963 0.40042 0.18180 -0.13400
C 	C 	0.86630 0.73375 0.51514 -0.13400
C 	C 	0.53297 0.06709 0.84847 -0.13400
C 	C 	0.17184 0.39826 0.18034 0.03700
C 	C 	0.83851 0.73159 0.51367 0.03700
C 	C 	0.50518 0.06492 0.84701 0.03800
H 	H 	0.16791 0.40536 0.17532 0.03400
H 	H 	0.83458 0.73870 0.50865 0.03400
H 	H 	0.50125 0.07203 0.84198 0.03400
C 	C 	0.14867 0.38611 0.18525 -0.07200
C 	C 	0.81533 0.71945 0.51859 -0.07200
C 	C 	0.48200 0.05278 0.85192 -0.07200
H 	H 	0.12718 0.38380 0.18389 0.04800
H 	H 	0.79385 0.71713 0.51722 0.04800
H 	H 	0.46052 0.05046 0.85055 0.04800
C 	C 	0.15294 0.37636 0.19179 0.02600
C 	C 	0.81960 0.70969 0.52512 0.02600
C 	C 	0.48627 0.04303 0.85845 0.02700
C 	C 	0.17141 0.37113 0.13606 -0.07000
C 	C 	0.83808 0.70447 0.46939 -0.07000
C 	C 	0.50474 0.03780 0.80273 -0.07000
H 	H 	0.17344 0.36306 0.13098 0.04800
H 	H 	0.84011 0.69640 0.46432 0.04800
H 	H 	0.50677 0.02973 0.79765 0.04800
C 	C 	0.19577 0.38182 0.14070 0.03400
C 	C 	0.86244 0.71516 0.47403 0.03400
C 	C 	0.52911 0.04849 0.80736 0.03400
H 	H 	0.21587 0.38143 0.13915 0.03400
H 	H 	0.88253 0.71476 0.47248 0.03400
H 	H 	0.54920 0.04810 0.80582 0.03400
C 	C 	0.19448 0.39357 0.14724 -0.12800
C 	C 	0.86115 0.72690 0.48057 -0.12800
C 	C 	0.52782 0.06023 0.81390 -0.12800
C 	C 	0.16810 0.39380 0.14907 0.03500
C 	C 	0.83477 0.72714 0.48240 0.03500
C 	C 	0.50143 0.06047 0.81574 0.03500
H 	H 	0.16631 0.40244 0.15411 0.03500
H 	H 	0.83298 0.73577 0.48744 0.03500
H 	H 	0.49965 0.06910 0.82077 0.03500
C 	C 	0.14367 0.38264 0.14451 -0.07000
C 	C 	0.81034 0.71598 0.47785 -0.07000
C 	C 	0.47700 0.04931 0.81118 -0.07000
H 	H 	0.12350 0.38244 0.14622 0.04800
H 	H 	0.79017 0.71577 0.47956 0.04800
H 	H 	0.45684 0.04910 0.81289 0.04800
C 	C 	0.14501 0.37145 0.13790 0.02500
C 	C 	0.81168 0.70479 0.47124 0.02500
C 	C 	0.47835 0.03812 0.80457 0.02500
C 	C 	0.10041 0.37314 0.13297 -0.07000
C 	C 	0.76707 0.70648 0.46630 -0.07000
C 	C 	0.43374 0.03981 0.79963 -0.07000
H 	H 	0.10591 0.39264 0.13614 0.04800
H 	H 	0.77258 0.72597 0.46948 0.04800
H 	H 	0.43925 0.05930 0.80281 0.04800
C 	C 	0.07468 0.36134 0.12878 0.03500
C 	C 	0.74135 0.69467 0.46212 0.03500
C 	C 	0.40801 0.02801 0.79545 0.03400
H 	H 	0.06070 0.37161 0.12893 0.03400
H 	H 	0.72737 0.70494 0.46227 0.03500
H 	H 	0.39403 0.03827 0.79560 0.03500
C 	C 	0.06694 0.33650 0.12444 -0.12800
C 	C 	0.73361 0.66983 0.45777 -0.12800
C 	C 	0.40028 0.00317 0.79110 -0.12700
C 	C 	0.08582 0.32399 0.12431 0.03400
C 	C 	0.75248 0.65732 0.45764 0.03400
C 	C 	0.41915 0.99066 0.79098 0.03300
H 	H 	0.08033 0.30477 0.12102 0.03500
H 	H 	0.74699 0.63810 0.45435 0.03500
H 	H 	0.41366 0.97143 0.78768 0.03500
C 	C 	0.11125 0.33544 0.12861 -0.07000
C 	C 	0.77792 0.66877 0.46194 -0.07000
C 	C 	0.44459 0.00210 0.79527 -0.06900
H 	H 	0.12454 0.32446 0.12859 0.04800
H 	H 	0.79120 0.65780 0.46193 0.04800
H 	H 	0.45787 0.99113 0.79526 0.04700
C 	C 	0.11878 0.36003 0.13305 0.02500
C 	C 	0.78544 0.69336 0.46638 0.02500
C 	C 	0.45211 0.02669 0.79971 0.02400
C 	C 	0.33855 0.21671 0.03497 -0.07200
C 	C 	0.00521 0.55005 0.36830 -0.07200
C 	C 	0.67188 0.88338 0.70163 -0.07200
H 	H 	0.34890 0.20299 0.03436 0.04800
H 	H 	0.01557 0.53632 0.36769 0.04800
H 	H 	0.68224 0.86965 0.70103 0.04800
C 	C 	0.34973 0.23928 0.04005 0.03700
C 	C 	0.01640 0.57261 0.37339 0.03800
C 	C 	0.68306 0.90595 0.70672 0.03700
H 	H 	0.36817 0.24228 0.04335 0.03400
H 	H 	0.03484 0.57561 0.37668 0.03400
H 	H 	0.70150 0.90895 0.71001 0.03400
C 	C 	0.33760 0.25829 0.04079 -0.13300
C 	C 	0.00426 0.59162 0.37413 -0.13300
C 	C 	0.67093 0.92495 0.70746 -0.13200
C 	C 	0.31374 0.25391 0.03645 0.03800
C 	C 	0.98040 0.58724 0.36978 0.03800
C 	C 	0.64707 0.92058 0.70311 0.03700
H 	H 	0.30376 0.26806 0.03697 0.03500
H 	H 	0.97043 0.60140 0.37030 0.03500
H 	H 	0.63710 0.93473 0.70364 0.03500
C 	C 	0.30224 0.23107 0.03147 -0.07200
C 	C 	0.96890 0.56440 0.36481 -0.07200
C 	C 	0.63557 0.89774 0.69814 -0.07200
H 	H 	0.28333 0.22783 0.02834 0.04800
H 	H 	0.94999 0.56117 0.36168 0.04900
H 	H 	0.61666 0.89450 0.69501 0.04800
C 	C 	0.31468 0.21239 0.03061 0.02600
C 	C 	0.98135 0.54573 0.36394 0.02700
C 	C 	0.64801 0.87906 0.69728 0.02600
C 	C 	0.29299 0.19384 0.01871 -0.07000
C 	C 	0.95965 0.52717 0.35205 -0.07000
C 	C 	0.62632 0.86051 0.68538 -0.07000
H 	H 	0.29501 0.21539 0.01757 0.04800
H 	H 	0.96168 0.54872 0.35090 0.04800
H 	H 	0.62834 0.88205 0.68423 0.04800
C 	C 	0.28082 0.17140 0.01364 0.03400
C 	C 	0.94749 0.50474 0.34697 0.03400
C 	C 	0.61415 0.83807 0.68031 0.03500
H 	H 	0.27335 0.17596 0.00874 0.03500
H 	H 	0.94001 0.50929 0.34207 0.03600
H 	H 	0.60668 0.84263 0.67540 0.03500
C 	C 	0.27871 0.14345 0.01481 -0.12700
C 	C 	0.94537 0.47678 0.34815 -0.12600
C 	C 	0.61204 0.81012 0.68148 -0.12700
C 	C 	0.28901 0.13841 0.02118 0.03400
C 	C 	0.95568 0.47175 0.35451 0.03400
C 	C 	0.62234 0.80508 0.68785 0.03400
H 	H 	0.28759 0.11700 0.02220 0.03600
H 	H 	0.95426 0.45033 0.35553 0.03600
H 	H 	0.62093 0.78367 0.68887 0.03600
C 	C 	0.30069 0.16073 0.02632 -0.07000
C 	C 	0.96735 0.49406 0.35965 -0.07000
C 	C 	0.63402 0.82740 0.69298 -0.07000
H 	H 	0.30760 0.15592 0.03125 0.04800
H 	H 	0.97426 0.48925 0.36459 0.04800
H 	H 	0.64093 0.82258 0.69792 0.04800
C 	C 	0.30277 0.18870 0.02514 0.02500
C 	C 	0.96943 0.52203 0.35848 0.02500
C 	C 	0.63610 0.85537 0.69181 0.02500
C 	C 	0.65073 0.83741 0.19527 -0.07200
C 	C 	0.31740 0.17074 0.52861 -0.07200
C 	C 	0.98406 0.50407 0.86194 -0.07200
H 	H 	0.64419 0.82646 0.19024 0.04800
H 	H 	0.31086 0.15979 0.52357 0.04800
H 	H 	0.97752 0.49312 0.85690 0.04800
C 	C 	0.66208 0.82601 0.20029 0.03800
C 	C 	0.32874 0.15935 0.53362 0.03800
C 	C 	0.99541 0.49268 0.86695 0.03800
H 	H 	0.66354 0.80619 0.19907 0.03500
H 	H 	0.33021 0.13952 0.53240 0.03500
H 	H 	0.99688 0.47286 0.86573 0.03500
C 	C 	0.67163 0.84013 0.20682 -0.13300
C 	C 	0.33830 0.17346 0.54015 -0.13300
C 	C 	0.00497 0.50679 0.87348 -0.13300
C 	C 	0.66959 0.86585 0.20823 0.03700
C 	C 	0.33626 0.19919 0.54156 0.03700
C 	C 	0.00292 0.53252 0.87489 0.03700
H 	H 	0.67660 0.87698 0.21325 0.03400
H 	H 	0.34327 0.21032 0.54658 0.03400
H 	H 	0.00993 0.54365 0.87991 0.03400
C 	C 	0.65775 0.87692 0.20326 -0.07200
C 	C 	0.32442 0.21025 0.53659 -0.07200
C 	C 	0.99108 0.54359 0.86993 -0.07200
H 	H 	0.65555 0.89618 0.20459 0.04800
H 	H 	0.32221 0.22952 0.53792 0.04800
H 	H 	0.98888 0.56285 0.87126 0.04800
C 	C 	0.64821 0.86286 0.19672 0.02600
C 	C 	0.31487 0.19619 0.53005 0.02600
C 	C 	0.98154 0.52952 0.86339 0.02600
C 	C 	0.61191 0.85511 0.18706 -0.07100
C 	C 	0.27858 0.18844 0.52039 -0.07200
C 	C 	0.94525 0.52177 0.85373 -0.07200
H 	H 	0.60205 0.83102 0.18755 0.04800
H 	H 	0.26871 0.16435 0.52088 0.04800
H 	H 	0.93538 0.49769 0.85421 0.04800
C 	C 	0.60027 0.86637 0.18208 0.03700
C 	C 	0.26693 0.19971 0.51541 0.03700
C 	C 	0.93360 0.53304 0.84875 0.03700
H 	H 	0.58202 0.85085 0.17875 0.03400
H 	H 	0.24868 0.18418 0.51208 0.03400
H 	H 	0.91535 0.51751 0.84541 0.03400
C 	C 	0.61179 0.89747 0.18146 -0.13300
C 	C 	0.27846 0.23080 0.51480 -0.13300
C 	C 	0.94512 0.56414 0.84813 -0.13200
C 	C 	0.63539 0.91704 0.18587 0.03700
C 	C 	0.30206 0.25038 0.51920 0.03700
C 	C 	0.96873 0.58371 0.85254 0.03700
H 	H 	0.64486 0.94115 0.18545 0.03500
H 	H 	0.31153 0.27449 0.51878 0.03500
H 	H 	0.97819 0.60782 0.85212 0.03500
C 	C 	0.64736 0.90581 0.19075 -0.07200
C 	C 	0.31402 0.23914 0.52409 -0.07200
C 	C 	0.98069 0.57248 0.85742 -0.07200
H 	H 	0.66609 0.92153 0.19393 0.04800
H 	H 	0.33275 0.25486 0.52726 0.04800
H 	H 	0.99942 0.58820 0.86059 0.04800
C 	C 	0.63567 0.87471 0.19144 0.02600
C 	C 	0.30233 0.20804 0.52477 0.02600
C 	C 	0.96900 0.54138 0.85811 0.02600
C 	C 	0.64453 0.91289 0.25584 -0.07000
C 	C 	0.31120 0.24622 0.58918 -0.07000
C 	C 	0.97787 0.57955 0.92251 -0.07000
H 	H 	0.66403 0.92700 0.25267 0.04800
H 	H 	0.33070 0.26034 0.58601 0.04800
H 	H 	0.99736 0.59367 0.91934 0.04800
C 	C 	0.63256 0.92663 0.26003 0.03500
C 	C 	0.29922 0.25997 0.59337 0.03500
C 	C 	0.96589 0.59330 0.92670 0.03500
H 	H 	0.64270 0.95088 0.25990 0.03500
H 	H 	0.30937 0.28421 0.59323 0.03400
H 	H 	0.97603 0.61754 0.92656 0.03500
C 	C 	0.60771 0.90936 0.26437 -0.12800
C 	C 	0.27438 0.24269 0.59771 -0.12800
C 	C 	0.94104 0.57602 0.93104 -0.12800
C 	C 	0.59536 0.87798 0.26448 0.03400
C 	C 	0.26202 0.21132 0.59781 0.03400
C 	C 	0.92869 0.54465 0.93114 0.03400
H 	H 	0.57613 0.86413 0.26777 0.03500
H 	H 	0.24279 0.19746 0.60110 0.03500
H 	H 	0.90946 0.53079 0.93443 0.03500
C 	C 	0.60698 0.86417 0.26017 -0.07000
C 	C 	0.27365 0.19751 0.59351 -0.07000
C 	C 	0.94031 0.53084 0.92684 -0.07000
H 	H 	0.59613 0.83991 0.26017 0.04800
H 	H 	0.26279 0.17324 0.59350 0.04800
H 	H 	0.92946 0.50658 0.92684 0.04800
C 	C 	0.63159 0.88142 0.25575 0.02500
C 	C 	0.29826 0.21475 0.58908 0.02500
C 	C 	0.96493 0.54808 0.92241 0.02500
C 	C 	0.64305 0.84017 0.25273 -0.07000
C 	C 	0.30972 0.17350 0.58606 -0.07000
C 	C 	0.97639 0.50683 0.91939 -0.07000
H 	H 	0.63504 0.83008 0.25780 0.04800
H 	H 	0.30170 0.16341 0.59114 0.04800
H 	H 	0.96837 0.49674 0.92447 0.04800
C 	C 	0.65379 0.82656 0.24808 0.03400
C 	C 	0.32046 0.15990 0.58141 0.03400
C 	C 	0.98713 0.49323 0.91475 0.03400
H 	H 	0.65347 0.80612 0.24962 0.03400
H 	H 	0.32014 0.13946 0.58295 0.03400
H 	H 	0.98680 0.47279 0.91629 0.03400
C 	C 	0.66543 0.83957 0.24153 -0.12800
C 	C 	0.33210 0.17290 0.57486 -0.12800
C 	C 	0.99877 0.50623 0.90820 -0.12700
C 	C 	0.66561 0.86614 0.23971 0.03500
C 	C 	0.33227 0.19947 0.57304 0.03500
C 	C 	0.99894 0.53280 0.90637 0.03500
H 	H 	0.67418 0.87653 0.23467 0.03500
H 	H 	0.34084 0.20987 0.56800 0.03500
H 	H 	0.00751 0.54320 0.90134 0.03500
C 	C 	0.65439 0.87934 0.24428 -0.07000
C 	C 	0.32106 0.21268 0.57761 -0.07000
C 	C 	0.98773 0.54601 0.91094 -0.07000
H 	H 	0.65410 0.89925 0.24258 0.04800
H 	H 	0.32077 0.23258 0.57591 0.04800
H 	H 	0.98744 0.56592 0.90924 0.04800
C 	C 	0.64321 0.86678 0.25088 0.02500
C 	C 	0.30988 0.20011 0.58422 0.02500
C 	C 	0.97655 0.53345 0.91755 0.02500
C 	C 	0.97143 0.50523 0.30272 -0.06900
C 	C 	0.63810 0.83856 0.63605 -0.06900
C 	C 	0.30476 0.17190 0.96938 -0.06900
H 	H 	0.97953 0.50329 0.29764 0.04800
H 	H 	0.64620 0.83663 0.63097 0.04800
H 	H 	0.31287 0.16996 0.96431 0.04800
C 	C 	0.96092 0.48087 0.30734 0.03300
C 	C 	0.62758 0.81420 0.64068 0.03300
C 	C 	0.29425 0.14754 0.97401 0.03300
H 	H 	0.96150 0.46089 0.30579 0.03400
H 	H 	0.62817 0.79423 0.63912 0.03400
H 	H 	0.29484 0.12756 0.97246 0.03400
C 	C 	0.94913 0.48201 0.31389 -0.12500
C 	C 	0.61580 0.81534 0.64722 -0.12500
C 	C 	0.28246 0.14868 0.98056 -0.12500
C 	C 	0.94863 0.50823 0.31574 0.03300
C 	C 	0.61529 0.84156 0.64907 0.03300
C 	C 	0.28196 0.17490 0.98241 0.03300
H 	H 	0.93994 0.50987 0.32078 0.03600
H 	H 	0.60660 0.84321 0.65411 0.03500
H 	H 	0.27327 0.17654 0.98745 0.03600
C 	C 	0.95965 0.53269 0.31119 -0.06900
C 	C 	0.62632 0.86602 0.64453 -0.07000
C 	C 	0.29298 0.19935 0.97786 -0.06900
H 	H 	0.95970 0.55275 0.31292 0.04800
H 	H 	0.62637 0.88608 0.64625 0.04800
H 	H 	0.29304 0.21942 0.97959 0.04800
C 	C 	0.97093 0.53151 0.30458 0.02400
C 	C 	0.63760 0.86484 0.63791 0.02400
C 	C 	0.30427 0.19818 0.97125 0.02500
C 	C 	0.00687 0.56530 0.29528 -0.07100
C 	C 	0.67354 0.89863 0.62861 -0.07000
C 	C 	0.34021 0.23196 0.96194 -0.07000
H 	H 	0.01783 0.55200 0.29524 0.04800
H 	H 	0.68450 0.88534 0.62857 0.04800
H 	H 	0.35116 0.21867 0.96191 0.04800
C 	C 	0.01830 0.59073 0.29099 0.03500
C 	C 	0.68497 0.92407 0.62432 0.03500
C 	C 	0.35164 0.25740 0.95765 0.03500
H 	H 	0.03748 0.59620 0.28767 0.03500
H 	H 	0.70415 0.92954 0.62100 0.03500
H 	H 	0.37082 0.26287 0.95434 0.03500
C 	C 	0.00586 0.60965 0.29115 -0.12900
C 	C 	0.67253 0.94298 0.62448 -0.12800
C 	C 	0.33919 0.27632 0.95781 -0.12900
C 	C 	0.98109 0.60197 0.29552 0.03600
C 	C 	0.64776 0.93530 0.62886 0.03500
C 	C 	0.31443 0.26863 0.96219 0.03500
H 	H 	0.97090 0.61601 0.29570 0.03400
H 	H 	0.63757 0.94934 0.62903 0.03400
H 	H 	0.30423 0.28268 0.96237 0.03400
C 	C 	0.96928 0.57621 0.29969 -0.07100
C 	C 	0.63595 0.90955 0.63303 -0.07000
C 	C 	0.30261 0.24288 0.96636 -0.07000
H 	H 	0.94983 0.57073 0.30289 0.04800
H 	H 	0.61650 0.90406 0.63622 0.04800
H 	H 	0.28316 0.23740 0.96956 0.04800
C 	C 	0.98234 0.55779 0.29974 0.02600
C 	C 	0.64901 0.89113 0.63307 0.02600
C 	C 	0.31567 0.22446 0.96641 0.02500
C 	C 	0.16962 0.40095 0.26032 -0.07000
C 	C 	0.83629 0.73429 0.59365 -0.07000
C 	C 	0.50295 0.06762 0.92699 -0.07000
H 	H 	0.15608 0.41165 0.26039 0.04800
H 	H 	0.82275 0.74499 0.59372 0.04800
H 	H 	0.48942 0.07832 0.92706 0.04800
C 	C 	0.19485 0.41227 0.26468 0.03400
C 	C 	0.86152 0.74560 0.59802 0.03400
C 	C 	0.52818 0.07894 0.93135 0.03400
H 	H 	0.19994 0.43112 0.26808 0.03500
H 	H 	0.86660 0.76445 0.60141 0.03500
H 	H 	0.53327 0.09779 0.93474 0.03500
C 	C 	0.21404 0.40014 0.26450 -0.12800
C 	C 	0.88071 0.73347 0.59784 -0.12800
C 	C 	0.54738 0.06680 0.93117 -0.12800
C 	C 	0.20685 0.37581 0.26002 0.03500
C 	C 	0.87351 0.70914 0.59335 0.03400
C 	C 	0.54018 0.04247 0.92669 0.03500
H 	H 	0.22110 0.36585 0.25982 0.03500
H 	H 	0.88777 0.69919 0.59315 0.03500
H 	H 	0.55443 0.03252 0.92648 0.03500
C 	C 	0.18133 0.36413 0.25577 -0.07000
C 	C 	0.84799 0.69746 0.58910 -0.07000
C 	C 	0.51466 0.03079 0.92244 -0.07000
H 	H 	0.17624 0.34502 0.25249 0.04800
H 	H 	0.84290 0.67835 0.58582 0.04800
H 	H 	0.50957 0.01169 0.91916 0.04800
C 	C 	0.16262 0.37686 0.25576 0.02500
C 	C 	0.82928 0.71019 0.58909 0.02500
C 	C 	0.49595 0.04352 0.92242 0.02500
C 	C 	0.10985 0.36527 0.25274 -0.07000
C 	C 	0.77652 0.69861 0.58608 -0.07000
C 	C 	0.44319 0.03194 0.91941 -0.07000
H 	H 	0.10757 0.37285 0.25786 0.04800
H 	H 	0.77424 0.70619 0.59119 0.04800
H 	H 	0.44090 0.03952 0.92452 0.04800
C 	C 	0.08557 0.35464 0.24809 0.03400
C 	C 	0.75224 0.68798 0.58142 0.03400
C 	C 	0.41890 0.02131 0.91475 0.03400
H 	H 	0.06530 0.35462 0.24967 0.03400
H 	H 	0.73196 0.68796 0.58300 0.03400
H 	H 	0.39863 0.02129 0.91633 0.03400
C 	C 	0.08716 0.34349 0.24149 -0.12700
C 	C 	0.75382 0.67683 0.57482 -0.12700
C 	C 	0.42049 0.01016 0.90816 -0.12600
C 	C 	0.11376 0.34378 0.23962 0.03400
C 	C 	0.78043 0.67712 0.57295 0.03400
C 	C 	0.44710 0.01045 0.90629 0.03400
H 	H 	0.11576 0.33562 0.23454 0.03600
H 	H 	0.78243 0.66895 0.56787 0.03600
H 	H 	0.44910 0.00228 0.90121 0.03600
C 	C 	0.13813 0.35490 0.24420 -0.07000
C 	C 	0.80480 0.68823 0.57753 -0.07000
C 	C 	0.47147 0.02156 0.91087 -0.07000
H 	H 	0.15849 0.35553 0.24247 0.04800
H 	H 	0.82515 0.68887 0.57580 0.04800
H 	H 	0.49182 0.02220 0.90914 0.04800
C 	C 	0.13649 0.36550 0.25086 0.02500
C 	C 	0.80316 0.69883 0.58420 0.02500
C 	C 	0.46982 0.03217 0.91753 0.02500
C 	C 	0.44089 0.02450 0.30501 -0.07000
C 	C 	0.10755 0.35784 0.63834 -0.07000
C 	C 	0.77422 0.69117 0.97168 -0.07000
H 	H 	0.42665 0.00477 0.30193 0.04800
H 	H 	0.09332 0.33810 0.63526 0.04800
H 	H 	0.75998 0.67144 0.96859 0.04800
C 	C 	0.42738 0.03593 0.30949 0.03400
C 	C 	0.09404 0.36926 0.64282 0.03300
C 	C 	0.76071 0.70259 0.97616 0.03400
H 	H 	0.40307 0.02503 0.30971 0.03400
H 	H 	0.06974 0.35836 0.64304 0.03400
H 	H 	0.73640 0.69169 0.97637 0.03400
C 	C 	0.44507 0.06069 0.31383 -0.12700
C 	C 	0.11174 0.39402 0.64716 -0.12700
C 	C 	0.77840 0.72735 0.98049 -0.12700
C 	C 	0.47654 0.07422 0.31343 0.03400
C 	C 	0.14321 0.40755 0.64676 0.03400
C 	C 	0.80987 0.74089 0.98009 0.03400
H 	H 	0.49079 0.09351 0.31666 0.03600
H 	H 	0.15746 0.42684 0.64999 0.03600
H 	H 	0.82412 0.76018 0.98332 0.03600
C 	C 	0.48998 0.06310 0.30889 -0.07000
C 	C 	0.15664 0.39643 0.64223 -0.07000
C 	C 	0.82331 0.72977 0.97556 -0.07000
H 	H 	0.51426 0.07441 0.30866 0.04800
H 	H 	0.18093 0.40775 0.64199 0.04800
H 	H 	0.84760 0.74108 0.97533 0.04800
C 	C 	0.47239 0.03780 0.30470 0.02500
C 	C 	0.13906 0.37113 0.63804 0.02500
C 	C 	0.80572 0.70447 0.97137 0.02500
C 	C 	0.47522 0.01281 0.29358 -0.07000
C 	C 	0.14188 0.34615 0.62692 -0.07000
C 	C 	0.80855 0.67948 0.96025 -0.07000
H 	H 	0.45545 0.01275 0.29163 0.04800
H 	H 	0.12211 0.34609 0.62496 0.04800
H 	H 	0.78878 0.67942 0.95829 0.04800
C 	C 	0.48910 0.00089 0.28939 0.03400
C 	C 	0.15576 0.33422 0.62272 0.03400
C 	C 	0.82243 0.66756 0.95606 0.03400
H 	H 	0.47947 0.99147 0.28434 0.03500
H 	H 	0.14614 0.32480 0.61767 0.03500
H 	H 	0.81280 0.65813 0.95101 0.03500
C 	C 	0.51533 0.00127 0.29166 -0.12800
C 	C 	0.18199 0.33460 0.62499 -0.12700
C 	C 	0.84866 0.66794 0.95832 -0.12800
C 	C 	0.52717 0.01369 0.29823 0.03400
C 	C 	0.19384 0.34703 0.63157 0.03400
C 	C 	0.86051 0.68036 0.96490 0.03400
H 	H 	0.54718 0.01403 0.30015 0.03600
H 	H 	0.21385 0.34737 0.63349 0.03600
H 	H 	0.88051 0.68070 0.96682 0.03600
C 	C 	0.51311 0.02523 0.30245 -0.07000
C 	C 	0.17977 0.35856 0.63578 -0.07000
C 	C 	0.84644 0.69190 0.96911 -0.07000
H 	H 	0.52242 0.03382 0.30756 0.04800
H 	H 	0.18909 0.36715 0.64089 0.04800
H 	H 	0.85576 0.70049 0.97422 0.04800
C 	C 	0.48703 0.02512 0.30018 0.02500
C 	C 	0.15369 0.35845 0.63351 0.02500
C 	C 	0.82036 0.69178 0.96684 0.02500
C 	C 	0.10313 0.83734 0.19094 -0.07200
C 	C 	0.76980 0.17068 0.52428 -0.07200
C 	C 	0.43647 0.50401 0.85761 -0.07200
H 	H 	0.08748 0.84039 0.19414 0.04800
H 	H 	0.75415 0.17372 0.52747 0.04800
H 	H 	0.42082 0.50705 0.86081 0.04800
C 	C 	0.09177 0.81403 0.18608 0.03700
C 	C 	0.75844 0.14736 0.51941 0.03700
C 	C 	0.42511 0.48069 0.85275 0.03700
H 	H 	0.06765 0.79934 0.18569 0.03500
H 	H 	0.73431 0.13267 0.51903 0.03500
H 	H 	0.40098 0.46601 0.85236 0.03500
C 	C 	0.11125 0.80997 0.18164 -0.13200
C 	C 	0.77791 0.14330 0.51497 -0.13300
C 	C 	0.44458 0.47663 0.84831 -0.13200
C 	C 	0.14237 0.82960 0.18222 0.03700
C 	C 	0.80904 0.16293 0.51555 0.03700
C 	C 	0.47571 0.49626 0.84888 0.03700
H 	H 	0.15783 0.82685 0.17886 0.03400
H 	H 	0.82450 0.16018 0.51219 0.03400
H 	H 	0.49116 0.49351 0.84553 0.03400
C 	C 	0.15377 0.85263 0.18718 -0.07200
C 	C 	0.82043 0.18596 0.52051 -0.07200
C 	C 	0.48710 0.51929 0.85385 -0.07100
H 	H 	0.17787 0.86690 0.18763 0.04800
H 	H 	0.84454 0.20023 0.52097 0.04800
H 	H 	0.51121 0.53356 0.85430 0.04800
C 	C 	0.13426 0.85685 0.19158 0.02600
C 	C 	0.80093 0.19018 0.52492 0.02600
C 	C 	0.46760 0.52351 0.85825 0.02600
C 	C 	0.17168 0.90940 0.19534 -0.07200
C 	C 	0.83835 0.24274 0.52867 -0.07200
C 	C 	0.50501 0.57607 0.86200 -0.07200
H 	H 	0.18251 0.91368 0.19029 0.04800
H 	H 	0.84917 0.24701 0.52362 0.04800
H 	H 	0.51584 0.58034 0.85695 0.04800
C 	C 	0.18320 0.93232 0.20032 0.03800
C 	C 	0.84987 0.26565 0.53365 0.03800
C 	C 	0.51653 0.59899 0.86699 0.03800
H 	H 	0.20300 0.95361 0.19906 0.03500
H 	H 	0.86966 0.28694 0.53240 0.03500
H 	H 	0.53633 0.62027 0.86573 0.03500
C 	C 	0.16925 0.92794 0.20687 -0.13300
C 	C 	0.83591 0.26127 0.54020 -0.13300
C 	C 	0.50258 0.59461 0.87353 -0.13300
C 	C 	0.14355 0.90016 0.20833 0.03700
C 	C 	0.81022 0.23349 0.54166 0.03700
C 	C 	0.47689 0.56683 0.87499 0.03700
H 	H 	0.13254 0.89617 0.21336 0.03400
H 	H 	0.79921 0.22950 0.54670 0.03400
H 	H 	0.46588 0.56283 0.88003 0.03400
C 	C 	0.13236 0.87709 0.20339 -0.07200
C 	C 	0.79903 0.21042 0.53672 -0.07200
C 	C 	0.46570 0.54375 0.87006 -0.07200
H 	H 	0.11314 0.85562 0.20476 0.04800
H 	H 	0.77980 0.18896 0.53809 0.04800
H 	H 	0.44647 0.52229 0.87143 0.04800
C 	C 	0.14626 0.88143 0.19683 0.02600
C 	C 	0.81293 0.21476 0.53017 0.02600
C 	C 	0.47959 0.54810 0.86350 0.02600
C 	C 	0.80020 0.21063 0.03738 -0.07100
C 	C 	0.46686 0.54396 0.37071 -0.07200
C 	C 	0.13353 0.87729 0.70405 -0.07200
H 	H 	0.82180 0.22957 0.03879 0.04800
H 	H 	0.48846 0.56290 0.37212 0.04800
H 	H 	0.15513 0.89623 0.70545 0.04800
C 	C 	0.77694 0.19962 0.04228 0.03700
C 	C 	0.44361 0.53296 0.37561 0.03700
C 	C 	0.11027 0.86629 0.70895 0.03700
H 	H 	0.78092 0.21045 0.04734 0.03400
H 	H 	0.44758 0.54378 0.38067 0.03400
H 	H 	0.11425 0.87711 0.71400 0.03400
C 	C 	0.74897 0.17430 0.04075 -0.13300
C 	C 	0.41563 0.50764 0.37408 -0.13300
C 	C 	0.08230 0.84097 0.70742 -0.13300
C 	C 	0.74458 0.16058 0.03418 0.03800
C 	C 	0.41125 0.49391 0.36751 0.03800
C 	C 	0.07791 0.82725 0.70084 0.03800
H 	H 	0.72314 0.14109 0.03286 0.03500
H 	H 	0.38981 0.47443 0.36620 0.03500
H 	H 	0.05648 0.80776 0.69953 0.03500
C 	C 	0.76766 0.17189 0.02924 -0.07200
C 	C 	0.43433 0.50522 0.36257 -0.07200
C 	C 	0.10100 0.83856 0.69591 -0.07200
H 	H 	0.76337 0.16123 0.02417 0.04800
H 	H 	0.43003 0.49457 0.35750 0.04800
H 	H 	0.09670 0.82790 0.69084 0.04800
C 	C 	0.79584 0.19687 0.03080 0.02600
C 	C 	0.46251 0.53021 0.36414 0.02600
C 	C 	0.12917 0.86354 0.69747 0.02600
C 	C 	0.82430 0.18880 0.02117 -0.07200
C 	C 	0.49097 0.52213 0.35450 -0.07200
C 	C 	0.15764 0.85547 0.68784 -0.07200
H 	H 	0.80979 0.16474 0.02165 0.04800
H 	H 	0.47646 0.49807 0.35498 0.04800
H 	H 	0.14312 0.83141 0.68831 0.04800
C 	C 	0.84706 0.19987 0.01614 0.03700
C 	C 	0.51373 0.53320 0.34948 0.03700
C 	C 	0.18040 0.86653 0.68281 0.03700
H 	H 	0.84937 0.18422 0.01276 0.03400
H 	H 	0.51604 0.51755 0.34609 0.03400
H 	H 	0.18270 0.85088 0.67943 0.03400
C 	C 	0.86687 0.23092 0.01550 -0.13300
C 	C 	0.53354 0.56425 0.34883 -0.13300
C 	C 	0.20020 0.89759 0.68217 -0.13200
C 	C 	0.86342 0.25064 0.01998 0.03700
C 	C 	0.53009 0.58397 0.35332 0.03700
C 	C 	0.19675 0.91731 0.68665 0.03700
H 	H 	0.87829 0.27472 0.01956 0.03500
H 	H 	0.54495 0.60805 0.35289 0.03500
H 	H 	0.21162 0.94138 0.68622 0.03500
C 	C 	0.84037 0.23960 0.02493 -0.07200
C 	C 	0.50704 0.57293 0.35826 -0.07200
C 	C 	0.17370 0.90626 0.69159 -0.07200
H 	H 	0.83770 0.25542 0.02814 0.04800
H 	H 	0.50437 0.58876 0.36148 0.04800
H 	H 	0.17104 0.92209 0.69481 0.04800
C 	C 	0.82053 0.20856 0.02558 0.02600
C 	C 	0.48720 0.54189 0.35891 0.02600
C 	C 	0.15386 0.87522 0.69225 0.02600
C 	C 	0.47559 0.52323 0.31171 -0.07000
C 	C 	0.14226 0.85657 0.64504 -0.07000
C 	C 	0.80893 0.18990 0.97837 -0.07000
H 	H 	0.45532 0.50351 0.31347 0.04800
H 	H 	0.12198 0.83685 0.64681 0.04800
H 	H 	0.78865 0.17018 0.98014 0.04800
C 	C 	0.50017 0.53654 0.31623 0.03400
C 	C 	0.16683 0.86988 0.64957 0.03400
C 	C 	0.83350 0.20321 0.98290 0.03400
H 	H 	0.49839 0.52641 0.32130 0.03600
H 	H 	0.16505 0.85974 0.65463 0.03600
H 	H 	0.83172 0.19308 0.98797 0.03600
C 	C 	0.52669 0.56289 0.31432 -0.12700
C 	C 	0.19336 0.89622 0.64765 -0.12700
C 	C 	0.86002 0.22955 0.98099 -0.12700
C 	C 	0.52801 0.57555 0.30774 0.03400
C 	C 	0.19468 0.90889 0.64107 0.03400
C 	C 	0.86134 0.24222 0.97440 0.03400
H 	H 	0.54822 0.59580 0.30612 0.03400
H 	H 	0.21489 0.92914 0.63946 0.03400
H 	H 	0.88156 0.26247 0.97279 0.03400
C 	C 	0.50353 0.56185 0.30314 -0.07000
C 	C 	0.17019 0.89518 0.63647 -0.07000
C 	C 	0.83686 0.22851 0.96980 -0.07000
H 	H 	0.50560 0.57167 0.29803 0.04800
H 	H 	0.17227 0.90500 0.63136 0.04800
H 	H 	0.83894 0.23834 0.96470 0.04800
C 	C 	0.47695 0.53546 0.30506 0.02500
C 	C 	0.14361 0.86879 0.63840 0.02500
C 	C 	0.81028 0.20212 0.97173 0.02500
C 	C 	0.44348 0.53782 0.29572 -0.07000
C 	C 	0.11015 0.87116 0.62905 -0.07000
C 	C 	0.77681 0.20449 0.96238 -0.07000
H 	H 	0.45710 0.56207 0.29564 0.04800
H 	H 	0.12376 0.89540 0.62898 0.04800
H 	H 	0.79043 0.22874 0.96231 0.04800
C 	C 	0.41809 0.52393 0.29140 0.03400
C 	C 	0.08475 0.85727 0.62474 0.03400
C 	C 	0.75142 0.19060 0.95807 0.03400
H 	H 	0.41296 0.53772 0.28804 0.03500
H 	H 	0.07963 0.87106 0.62137 0.03500
H 	H 	0.74630 0.20439 0.95471 0.03500
C 	C 	0.39882 0.49260 0.29159 -0.12800
C 	C 	0.06548 0.82593 0.62492 -0.12800
C 	C 	0.73215 0.15927 0.95826 -0.12800
C 	C 	0.40608 0.47544 0.29603 0.03500
C 	C 	0.07274 0.80877 0.62937 0.03500
C 	C 	0.73941 0.14211 0.96270 0.03500
H 	H 	0.39177 0.45122 0.29624 0.03500
H 	H 	0.05844 0.78456 0.62957 0.03500
H 	H 	0.72510 0.11789 0.96290 0.03500
C 	C 	0.43176 0.48925 0.30023 -0.07000
C 	C 	0.09843 0.82259 0.63357 -0.07000
C 	C 	0.76509 0.15592 0.96690 -0.07000
H 	H 	0.43690 0.47520 0.30348 0.04800
H 	H 	0.10357 0.80854 0.63681 0.04800
H 	H 	0.77023 0.14187 0.97014 0.04800
C 	C 	0.45058 0.52070 0.30023 0.02500
C 	C 	0.11725 0.85403 0.63357 0.02500
C 	C 	0.78392 0.18737 0.96690 0.02500
C 	C 	0.09621 0.82824 0.25571 -0.07000
C 	C 	0.76288 0.16157 0.58905 -0.07000
C 	C 	0.42955 0.49491 0.92238 -0.07000
H 	H 	0.08229 0.83361 0.25248 0.04800
H 	H 	0.74896 0.16694 0.58582 0.04800
H 	H 	0.41563 0.50028 0.91915 0.04800
C 	C 	0.08219 0.80255 0.25990 0.03500
C 	C 	0.74886 0.13588 0.59324 0.03500
C 	C 	0.41553 0.46921 0.92657 0.03500
H 	H 	0.05794 0.78845 0.25971 0.03400
H 	H 	0.72461 0.12178 0.59304 0.03400
H 	H 	0.39128 0.45512 0.92637 0.03400
C 	C 	0.09920 0.79499 0.26432 -0.12800
C 	C 	0.76587 0.12833 0.59765 -0.12800
C 	C 	0.43254 0.46166 0.93099 -0.12800
C 	C 	0.13059 0.81401 0.26450 0.03400
C 	C 	0.79726 0.14734 0.59783 0.03400
C 	C 	0.46392 0.48068 0.93117 0.03400
H 	H 	0.14425 0.80865 0.26785 0.03500
H 	H 	0.81091 0.14198 0.60118 0.03500
H 	H 	0.47758 0.47532 0.93452 0.03500
C 	C 	0.14468 0.83941 0.26019 -0.07000
C 	C 	0.81135 0.17275 0.59353 -0.07000
C 	C 	0.47802 0.50608 0.92686 -0.07000
H 	H 	0.16895 0.85282 0.26025 0.04800
H 	H 	0.83562 0.18615 0.59359 0.04800
H 	H 	0.50229 0.51948 0.92692 0.04800
C 	C 	0.12771 0.84676 0.25569 0.02500
C 	C 	0.79438 0.18009 0.58902 0.02500
C 	C 	0.46105 0.51342 0.92236 0.02500
C 	C 	0.13038 0.87151 0.24418 -0.07000
C 	C 	0.79704 0.20484 0.57752 -0.07000
C 	C 	0.46371 0.53818 0.91085 -0.07000
H 	H 	0.11055 0.85126 0.24245 0.04800
H 	H 	0.77722 0.18459 0.57578 0.04800
H 	H 	0.44389 0.51793 0.90912 0.04800
C 	C 	0.14374 0.89593 0.23962 0.03500
C 	C 	0.81041 0.22927 0.57296 0.03500
C 	C 	0.47707 0.56260 0.90629 0.03500
H 	H 	0.13353 0.89407 0.23456 0.03500
H 	H 	0.80020 0.22740 0.56789 0.03500
H 	H 	0.46686 0.56073 0.90123 0.03500
C 	C 	0.17020 0.92242 0.24149 -0.12800
C 	C 	0.83686 0.25576 0.57483 -0.12800
C 	C 	0.50353 0.58909 0.90816 -0.12800
C 	C 	0.18298 0.92383 0.24807 0.03400
C 	C 	0.84964 0.25716 0.58140 0.03400
C 	C 	0.51631 0.59050 0.91473 0.03400
H 	H 	0.20334 0.94401 0.24964 0.03400
H 	H 	0.87000 0.27734 0.58297 0.03400
H 	H 	0.53667 0.61068 0.91631 0.03400
C 	C 	0.16920 0.89947 0.25270 -0.07000
C 	C 	0.83587 0.23281 0.58604 -0.07000
C 	C 	0.50254 0.56614 0.91937 -0.07000
H 	H 	0.17909 0.90159 0.25780 0.04800
H 	H 	0.84576 0.23492 0.59114 0.04800
H 	H 	0.51242 0.56826 0.92447 0.04800
C 	C 	0.14264 0.87297 0.25083 0.02500
C 	C 	0.80931 0.20630 0.58416 0.02500
C 	C 	0.47598 0.53963 0.91749 0.02500
C 	C 	0.85514 0.24132 0.08673 -0.07000
C 	C 	0.52180 0.57465 0.42006 -0.07000
C 	C 	0.18847 0.90798 0.75340 -0.07000
H 	H 	0.85554 0.25065 0.08164 0.04800
H 	H 	0.52221 0.58398 0.41498 0.04800
H 	H 	0.18888 0.91731 0.74831 0.04800
C 	C 	0.88097 0.25550 0.09087 0.03400
C 	C 	0.54764 0.58883 0.42420 0.03400
C 	C 	0.21431 0.92217 0.75753 0.03400
H 	H 	0.90049 0.27559 0.08891 0.03600
H 	H 	0.56715 0.60892 0.42224 0.03600
H 	H 	0.23382 0.94226 0.75558 0.03600
C 	C 	0.88195 0.24367 0.09741 -0.12700
C 	C 	0.54861 0.57701 0.43074 -0.12700
C 	C 	0.21528 0.91034 0.76408 -0.12800
C 	C 	0.85626 0.21733 0.09972 0.03400
C 	C 	0.52293 0.55066 0.43306 0.03300
C 	C 	0.18959 0.88400 0.76639 0.03400
H 	H 	0.85637 0.20772 0.10475 0.03500
H 	H 	0.52304 0.54105 0.43808 0.03600
H 	H 	0.18970 0.87439 0.77142 0.03500
C 	C 	0.83024 0.20332 0.09561 -0.07000
C 	C 	0.49690 0.53665 0.42894 -0.07000
C 	C 	0.16357 0.86998 0.76227 -0.07000
H 	H 	0.81066 0.18346 0.09759 0.04800
H 	H 	0.47732 0.51679 0.43093 0.04800
H 	H 	0.14399 0.85013 0.76426 0.04800
C 	C 	0.82934 0.21512 0.08905 0.02500
C 	C 	0.49601 0.54845 0.42238 0.02500
C 	C 	0.16268 0.88179 0.75571 0.02500
C 	C 	0.78380 0.16886 0.08424 -0.07000
C 	C 	0.45047 0.50219 0.41758 -0.07000
C 	C 	0.11714 0.83552 0.75091 -0.07000
H 	H 	0.78957 0.15468 0.08726 0.04800
H 	H 	0.45624 0.48802 0.42059 0.04800
H 	H 	0.12290 0.82135 0.75393 0.04800
C 	C 	0.75881 0.15528 0.07978 0.03300
C 	C 	0.42548 0.48862 0.41312 0.03400
C 	C 	0.09214 0.82195 0.74645 0.03400
H 	H 	0.74563 0.13098 0.07951 0.03400
H 	H 	0.41230 0.46432 0.41284 0.03400
H 	H 	0.07897 0.79765 0.74617 0.03400
C 	C 	0.75148 0.17295 0.07552 -0.12700
C 	C 	0.41815 0.50628 0.40885 -0.12700
C 	C 	0.08482 0.83961 0.74218 -0.12800
C 	C 	0.76911 0.20442 0.07600 0.03400
C 	C 	0.43578 0.53775 0.40934 0.03500
C 	C 	0.10244 0.87108 0.74267 0.03400
H 	H 	0.76384 0.21864 0.07284 0.03600
H 	H 	0.43051 0.55198 0.40617 0.03600
H 	H 	0.09718 0.88531 0.73950 0.03600
C 	C 	0.79372 0.21790 0.08051 -0.07000
C 	C 	0.46039 0.55123 0.41384 -0.07000
C 	C 	0.12705 0.88457 0.74718 -0.07000
H 	H 	0.80650 0.24218 0.08079 0.04800
H 	H 	0.47316 0.57551 0.41413 0.04800
H 	H 	0.13983 0.90884 0.74746 0.04800
C 	C 	0.80180 0.20037 0.08460 0.02500
C 	C 	0.46847 0.53371 0.41793 0.02500
C 	C 	0.13513 0.86704 0.75127 0.02500
C 	C 	0.79882 0.68549 0.03700 -0.07200
C 	C 	0.46549 0.01882 0.37033 -0.07100
C 	C 	0.13216 0.35215 0.70366 -0.07100
H 	H 	0.77980 0.68803 0.03838 0.04800
H 	H 	0.44646 0.02136 0.37171 0.04800
H 	H 	0.11313 0.35469 0.70505 0.04800
C 	C 	0.81005 0.67373 0.04195 0.03700
C 	C 	0.47671 0.00706 0.37529 0.03700
C 	C 	0.14338 0.34039 0.70862 0.03700
H 	H 	0.79929 0.66712 0.04702 0.03400
H 	H 	0.46595 0.00045 0.38036 0.03500
H 	H 	0.13262 0.33378 0.71369 0.03400
C 	C 	0.83548 0.67125 0.04046 -0.13300
C 	C 	0.50214 0.00458 0.37379 -0.13200
C 	C 	0.16881 0.33792 0.70712 -0.13300
C 	C 	0.84910 0.68026 0.03386 0.03800
C 	C 	0.51577 0.01359 0.36720 0.03700
C 	C 	0.18244 0.34693 0.70053 0.03700
H 	H 	0.86867 0.67841 0.03257 0.03500
H 	H 	0.53533 0.01175 0.36591 0.03500
H 	H 	0.20200 0.34508 0.69924 0.03500
C 	C 	0.83757 0.69153 0.02887 -0.07200
C 	C 	0.50424 0.02486 0.36221 -0.07200
C 	C 	0.17090 0.35819 0.69554 -0.07200
H 	H 	0.84815 0.69763 0.02379 0.04800
H 	H 	0.51481 0.03096 0.35712 0.04800
H 	H 	0.18148 0.36430 0.69045 0.04800
C 	C 	0.81246 0.69454 0.03040 0.02600
C 	C 	0.47913 0.02787 0.36373 0.02600
C 	C 	0.14579 0.36120 0.69706 0.02600
C 	C 	0.82014 0.73046 0.02066 -0.07100
C 	C 	0.48681 0.06379 0.35400 -0.07200
C 	C 	0.15347 0.39713 0.68733 -0.07100
H 	H 	0.84423 0.74015 0.02110 0.04800
H 	H 	0.51090 0.07348 0.35444 0.04800
H 	H 	0.17757 0.40681 0.68777 0.04800
C 	C 	0.80887 0.74194 0.01564 0.03700
C 	C 	0.47554 0.07527 0.34898 0.03700
C 	C 	0.14220 0.40860 0.68231 0.03700
H 	H 	0.82439 0.75988 0.01224 0.03400
H 	H 	0.49106 0.09321 0.34557 0.03400
H 	H 	0.15772 0.42655 0.67891 0.03400
C 	C 	0.77778 0.73061 0.01507 -0.13200
C 	C 	0.44445 0.06394 0.34840 -0.13300
C 	C 	0.11112 0.39727 0.68174 -0.13200
C 	C 	0.75822 0.70744 0.01958 0.03700
C 	C 	0.42489 0.04077 0.35291 0.03700
C 	C 	0.09156 0.37410 0.68625 0.03700
H 	H 	0.73412 0.69815 0.01920 0.03500
H 	H 	0.40079 0.03148 0.35253 0.03500
H 	H 	0.06745 0.36481 0.68587 0.03500
C 	C 	0.76947 0.69564 0.02451 -0.07200
C 	C 	0.43613 0.02898 0.35784 -0.07200
C 	C 	0.10280 0.36231 0.69117 -0.07200
H 	H 	0.75376 0.67722 0.02776 0.04800
H 	H 	0.42043 0.01055 0.36109 0.04800
H 	H 	0.08709 0.34388 0.69442 0.04800
C 	C 	0.80056 0.70706 0.02513 0.02600
C 	C 	0.46722 0.04040 0.35846 0.02600
C 	C 	0.13389 0.37373 0.69179 0.02600
C 	C 	0.80628 0.72432 0.09543 -0.07000
C 	C 	0.47295 0.05765 0.42877 -0.07000
C 	C 	0.13962 0.39099 0.76210 -0.07000
H 	H 	0.82626 0.72477 0.09738 0.04800
H 	H 	0.49292 0.05810 0.43072 0.04800
H 	H 	0.15959 0.39144 0.76405 0.04800
C 	C 	0.79221 0.73611 0.09961 0.03400
C 	C 	0.45888 0.06945 0.43294 0.03400
C 	C 	0.12555 0.40278 0.76627 0.03400
H 	H 	0.80190 0.74583 0.10463 0.03500
H 	H 	0.46857 0.07917 0.43796 0.03500
H 	H 	0.13524 0.41250 0.77130 0.03500
C 	C 	0.76573 0.73524 0.09735 -0.12700
C 	C 	0.43240 0.06858 0.43068 -0.12700
C 	C 	0.09906 0.40191 0.76402 -0.12800
C 	C 	0.75380 0.72243 0.09081 0.03400
C 	C 	0.42047 0.05576 0.42414 0.03400
C 	C 	0.08714 0.38909 0.75747 0.03400
H 	H 	0.73359 0.72168 0.08890 0.03600
H 	H 	0.40026 0.05502 0.42223 0.03600
H 	H 	0.06693 0.38835 0.75556 0.03600
C 	C 	0.76805 0.71100 0.08661 -0.07000
C 	C 	0.43472 0.04433 0.41995 -0.07000
C 	C 	0.10138 0.37767 0.75328 -0.07000
H 	H 	0.75865 0.70209 0.08153 0.04800
H 	H 	0.42531 0.03542 0.41486 0.04800
H 	H 	0.09198 0.36875 0.74820 0.04800
C 	C 	0.79441 0.71163 0.08887 0.02500
C 	C 	0.46107 0.04496 0.42221 0.02500
C 	C 	0.12774 0.37830 0.75554 0.02500
C 	C 	0.79176 0.67347 0.08026 -0.07000
C 	C 	0.45842 0.00680 0.41359 -0.06900
C 	C 	0.12509 0.34013 0.74692 -0.07000
H 	H 	0.76747 0.66186 0.08054 0.04800
H 	H 	0.43414 0.99520 0.41387 0.04800
H 	H 	0.10081 0.32853 0.74721 0.04800
C 	C 	0.80531 0.66245 0.07573 0.03400
C 	C 	0.47198 0.99578 0.40907 0.03300
C 	C 	0.13864 0.32911 0.74240 0.03400
H 	H 	0.79113 0.64294 0.07255 0.03600
H 	H 	0.45779 0.97627 0.40589 0.03600
H 	H 	0.12446 0.30960 0.73922 0.03600
C 	C 	0.83680 0.67637 0.07526 -0.12700
C 	C 	0.50346 0.00970 0.40859 -0.12600
C 	C 	0.17013 0.34304 0.74192 -0.12700
C 	C 	0.85441 0.70140 0.07953 0.03300
C 	C 	0.52107 0.03473 0.41286 0.03300
C 	C 	0.18774 0.36807 0.74620 0.03300
H 	H 	0.87872 0.71260 0.07926 0.03400
H 	H 	0.54538 0.04593 0.41259 0.03400
H 	H 	0.21205 0.37926 0.74592 0.03400
C 	C 	0.84076 0.71272 0.08401 -0.07000
C 	C 	0.50743 0.04605 0.41734 -0.06900
C 	C 	0.17410 0.37939 0.75067 -0.07000
H 	H 	0.85491 0.73267 0.08704 0.04800
H 	H 	0.52157 0.06600 0.42037 0.04800
H 	H 	0.18824 0.39933 0.75370 0.04800
C 	C 	0.80923 0.69906 0.08437 0.02500
C 	C 	0.47590 0.03239 0.41770 0.02500
C 	C 	0.14256 0.36572 0.75104 0.02500
C 	C 	0.28580 0.17831 0.09565 -0.07000
C 	C 	0.95246 0.51164 0.42899 -0.07000
C 	C 	0.61913 0.84497 0.76232 -0.07000
H 	H 	0.28558 0.19801 0.09756 0.04800
H 	H 	0.95224 0.53134 0.43089 0.04800
H 	H 	0.61891 0.86467 0.76423 0.04800
C 	C 	0.27369 0.15255 0.09986 0.03400
C 	C 	0.94036 0.48588 0.43319 0.03400
C 	C 	0.60703 0.81922 0.76652 0.03400
H 	H 	0.26396 0.15277 0.10487 0.03500
H 	H 	0.93063 0.48610 0.43820 0.03500
H 	H 	0.59730 0.81944 0.77153 0.03500
C 	C 	0.27426 0.12672 0.09765 -0.12800
C 	C 	0.94093 0.46005 0.43098 -0.12800
C 	C 	0.60759 0.79339 0.76432 -0.12800
C 	C 	0.28708 0.12727 0.09113 0.03400
C 	C 	0.95375 0.46060 0.42446 0.03400
C 	C 	0.62041 0.79393 0.75779 0.03400
H 	H 	0.28758 0.10762 0.08925 0.03600
H 	H 	0.95425 0.44095 0.42259 0.03600
H 	H 	0.62092 0.77428 0.75592 0.03600
C 	C 	0.29879 0.15282 0.08690 -0.07000
C 	C 	0.96546 0.48615 0.42023 -0.07000
C 	C 	0.63212 0.81949 0.75356 -0.07000
H 	H 	0.30766 0.15206 0.08182 0.04800
H 	H 	0.97432 0.48539 0.41516 0.04800
H 	H 	0.64099 0.81872 0.74849 0.04800
C 	C 	0.29846 0.17876 0.08911 0.02500
C 	C 	0.96513 0.51210 0.42244 0.02500
C 	C 	0.63179 0.84543 0.75577 0.02500
C 	C 	0.33664 0.21371 0.08040 -0.07000
C 	C 	0.00331 0.54705 0.41374 -0.07100
C 	C 	0.66997 0.88038 0.74707 -0.07000
H 	H 	0.34804 0.20086 0.08070 0.04800
H 	H 	0.01471 0.53420 0.41403 0.04800
H 	H 	0.68138 0.86753 0.74736 0.04800
C 	C 	0.34776 0.23812 0.07583 0.03500
C 	C 	0.01443 0.57145 0.40917 0.03500
C 	C 	0.68109 0.90478 0.74250 0.03500
H 	H 	0.36714 0.24317 0.07263 0.03600
H 	H 	0.03380 0.57650 0.40596 0.03600
H 	H 	0.70047 0.90983 0.73930 0.03600
C 	C 	0.33410 0.25588 0.07535 -0.12700
C 	C 	0.00076 0.58921 0.40869 -0.12800
C 	C 	0.66743 0.92255 0.74202 -0.12700
C 	C 	0.30922 0.24883 0.07966 0.03400
C 	C 	0.97589 0.58216 0.41299 0.03400
C 	C 	0.64256 0.91549 0.74632 0.03400
H 	H 	0.29823 0.26211 0.07938 0.03400
H 	H 	0.96490 0.59544 0.41271 0.03400
H 	H 	0.63156 0.92878 0.74605 0.03400
C 	C 	0.29779 0.22404 0.08417 -0.07000
C 	C 	0.96446 0.55737 0.41750 -0.07000
C 	C 	0.63113 0.89070 0.75084 -0.07000
H 	H 	0.27795 0.21851 0.08722 0.04800
H 	H 	0.94462 0.55184 0.42055 0.04800
H 	H 	0.61129 0.88518 0.75388 0.04800
C 	C 	0.31121 0.20598 0.08455 0.02500
C 	C 	0.97787 0.53931 0.41789 0.02500
C 	C 	0.64454 0.87265 0.75122 0.02500
C 	C 	0.14141 0.89163 0.12709 -0.07000
C 	C 	0.80808 0.22497 0.46042 -0.07000
C 	C 	0.47474 0.55830 0.79376 -0.07000
H 	H 	0.12155 0.87199 0.12513 0.04800
H 	H 	0.78822 0.20533 0.45846 0.04800
H 	H 	0.45488 0.53866 0.79179 0.04800
C 	C 	0.15533 0.91753 0.12293 0.03400
C 	C 	0.82200 0.25086 0.45627 0.03400
C 	C 	0.48866 0.58420 0.78960 0.03400
H 	H 	0.14565 0.91747 0.11790 0.03500
H 	H 	0.81231 0.25080 0.45124 0.03500
H 	H 	0.47898 0.58414 0.78457 0.03500
C 	C 	0.18169 0.94328 0.12520 -0.12800
C 	C 	0.84836 0.27661 0.45854 -0.12800
C 	C 	0.51502 0.60994 0.79187 -0.12800
C 	C 	0.19361 0.94252 0.13175 0.03400
C 	C 	0.86028 0.27585 0.46509 0.03400
C 	C 	0.52695 0.60919 0.79842 0.03400
H 	H 	0.21372 0.96210 0.13368 0.03600
H 	H 	0.88038 0.29544 0.46701 0.03600
H 	H 	0.54705 0.62877 0.80034 0.03600
C 	C 	0.17950 0.91682 0.13593 -0.07000
C 	C 	0.84617 0.25015 0.46927 -0.07000
C 	C 	0.51283 0.58348 0.80260 -0.07000
H 	H 	0.18889 0.91739 0.14102 0.04800
H 	H 	0.85555 0.25073 0.47436 0.04800
H 	H 	0.52222 0.58406 0.80769 0.04800
C 	C 	0.15331 0.89094 0.13365 0.02500
C 	C 	0.81997 0.22427 0.46698 0.02500
C 	C 	0.48664 0.55760 0.80032 0.02500
C 	C 	0.15626 0.85560 0.14225 -0.07000
C 	C 	0.82293 0.18893 0.47558 -0.07000
C 	C 	0.48959 0.52226 0.80892 -0.07000
H 	H 	0.18054 0.86852 0.14199 0.04800
H 	H 	0.84721 0.20185 0.47533 0.04800
H 	H 	0.51388 0.53519 0.80866 0.04800
C 	C 	0.14284 0.83093 0.14675 0.03400
C 	C 	0.80950 0.16426 0.48008 0.03400
C 	C 	0.47617 0.49760 0.81341 0.03500
H 	H 	0.15709 0.82577 0.14993 0.03600
H 	H 	0.82376 0.15911 0.48327 0.03600
H 	H 	0.49043 0.49244 0.81660 0.03600
C 	C 	0.11136 0.81306 0.14718 -0.12700
C 	C 	0.77803 0.14639 0.48051 -0.12700
C 	C 	0.44470 0.47973 0.81385 -0.12700
C 	C 	0.09365 0.82028 0.14291 0.03400
C 	C 	0.76032 0.15361 0.47624 0.03400
C 	C 	0.42698 0.48694 0.80957 0.03400
H 	H 	0.06934 0.80693 0.14315 0.03400
H 	H 	0.73601 0.14026 0.47648 0.03400
H 	H 	0.40268 0.47360 0.80982 0.03400
C 	C 	0.10715 0.84532 0.13846 -0.07000
C 	C 	0.77382 0.17866 0.47180 -0.07000
C 	C 	0.44049 0.51199 0.80513 -0.07000
H 	H 	0.09291 0.85096 0.13543 0.04800
H 	H 	0.75958 0.18429 0.46877 0.04800
H 	H 	0.42625 0.51762 0.80210 0.04800
C 	C 	0.13866 0.86349 0.13813 0.02500
C 	C 	0.80533 0.19682 0.47146 0.02500
C 	C 	0.47200 0.53015 0.80480 0.02500
C 	C 	0.64874 0.82852 0.13558 -0.07000
C 	C 	0.31541 0.16185 0.46891 -0.07000
C 	C 	0.98208 0.49518 0.80224 -0.07000
H 	H 	0.63988 0.81909 0.14066 0.04800
H 	H 	0.30654 0.15243 0.47400 0.04800
H 	H 	0.97321 0.48576 0.80733 0.04800
C 	C 	0.66037 0.81445 0.13139 0.03400
C 	C 	0.32704 0.14779 0.46472 0.03400
C 	C 	0.99371 0.48112 0.79806 0.03400
H 	H 	0.65982 0.79434 0.13330 0.03600
H 	H 	0.32648 0.12768 0.46664 0.03500
H 	H 	0.99315 0.46101 0.79997 0.03600
C 	C 	0.67317 0.82646 0.12485 -0.12800
C 	C 	0.33984 0.15979 0.45818 -0.12800
C 	C 	0.00651 0.49312 0.79151 -0.12800
C 	C 	0.67381 0.85281 0.12259 0.03400
C 	C 	0.34047 0.18614 0.45592 0.03400
C 	C 	0.00714 0.51948 0.78925 0.03400
H 	H 	0.68351 0.86255 0.11756 0.03500
H 	H 	0.35018 0.19589 0.45090 0.03500
H 	H 	0.01685 0.52922 0.78423 0.03500
C 	C 	0.66180 0.86668 0.12675 -0.07000
C 	C 	0.32846 0.20001 0.46008 -0.07000
C 	C 	0.99513 0.53335 0.79342 -0.07000
H 	H 	0.66207 0.88656 0.12480 0.04800
H 	H 	0.32874 0.21989 0.45813 0.04800
H 	H 	0.99540 0.55322 0.79146 0.04800
C 	C 	0.64915 0.85475 0.13331 0.02500
C 	C 	0.31582 0.18808 0.46665 0.02500
C 	C 	0.98248 0.52141 0.79998 0.02500
C 	C 	0.65002 0.90097 0.13816 -0.07000
C 	C 	0.31669 0.23430 0.47149 -0.07000
C 	C 	0.98335 0.56764 0.80482 -0.06900
H 	H 	0.66988 0.91515 0.13510 0.04800
H 	H 	0.33654 0.24848 0.46843 0.04800
H 	H 	0.00321 0.58182 0.80176 0.04700
C 	C 	0.63869 0.91455 0.14264 0.03400
C 	C 	0.30536 0.24789 0.47597 0.03400
C 	C 	0.97202 0.58122 0.80930 0.03300
H 	H 	0.64979 0.93886 0.14288 0.03400
H 	H 	0.31646 0.27219 0.47622 0.03400
H 	H 	0.98312 0.60552 0.80955 0.03400
C 	C 	0.61381 0.89692 0.14695 -0.12700
C 	C 	0.28047 0.23026 0.48029 -0.12700
C 	C 	0.94714 0.56359 0.81362 -0.12700
C 	C 	0.60000 0.86545 0.14651 0.03500
C 	C 	0.26667 0.19879 0.47984 0.03500
C 	C 	0.93333 0.53212 0.81318 0.03400
H 	H 	0.58060 0.85126 0.14972 0.03600
H 	H 	0.24727 0.18460 0.48306 0.03600
H 	H 	0.91393 0.51793 0.81639 0.03600
C 	C 	0.61102 0.85195 0.14197 -0.07000
C 	C 	0.27769 0.18528 0.47531 -0.07000
C 	C 	0.94436 0.51861 0.80864 -0.07000
H 	H 	0.59953 0.82767 0.14171 0.04800
H 	H 	0.26619 0.16100 0.47505 0.04800
H 	H 	0.93286 0.49433 0.80838 0.04800
C 	C 	0.63649 0.86946 0.13782 0.02500
C 	C 	0.30316 0.20279 0.47115 0.02500
C 	C 	0.96983 0.53613 0.80449 0.02500
