data_crystal

_cell_length_a 40.26690
_cell_length_b 13.90320
_cell_length_c 25.99480
_cell_angle_alpha 90.00000
_cell_angle_beta  104.20100
_cell_angle_gamma 90.00000

_symmetry_space_group_name_	'P 1'
_symmetry_space_group_name_H-M	'P 1'

loop_
_symmetry_equiv_pos_as_xyz
  x,y,z

loop_
_atom_site_label
_atom_site_type_symbol
_atom_site_fract_x
_atom_site_fract_y
_atom_site_fract_z
_atom_site_charge
Co	Co	0.79425 0.52614 0.53803 1.16900
O 	O 	0.30269 0.17860 0.51551 -0.46600
O 	O 	0.72977 0.37814 0.96317 -0.43700
O 	O 	0.33858 0.11303 0.58444 -0.35700
O 	O 	0.74125 0.69880 0.57148 -0.42300
O 	O 	0.31042 0.88653 0.57172 -0.36500
O 	O 	0.75969 0.51221 0.96760 -0.42400
O 	O 	0.76347 0.54981 0.59016 -0.42400
O 	O 	0.33936 0.93775 0.51564 -0.33200
N 	N 	0.40933 0.52539 0.58247 -0.17900
N 	N 	0.65931 0.55971 0.73845 -0.18200
C 	C 	0.71438 0.48711 0.89140 -0.15900
C 	C 	0.36340 0.42854 0.52971 -0.18000
H 	H 	0.35810 0.47940 0.50460 0.09900
C 	C 	0.39078 0.61373 0.57358 0.15400
C 	C 	0.39051 0.43767 0.57378 0.16200
C 	C 	0.44487 0.52641 0.60598 0.12300
C 	C 	0.73661 0.45703 0.94541 0.41200
C 	C 	0.67599 0.53526 0.79084 0.16600
C 	C 	0.36176 0.62470 0.59143 -0.17800
H 	H 	0.35420 0.57380 0.61010 0.09900
C 	C 	0.72132 0.60227 0.63188 -0.16600
C 	C 	0.35411 0.78376 0.55620 -0.12200
C 	C 	0.72876 0.53046 0.67006 0.11100
H 	H 	0.74830 0.49100 0.67240 0.01300
C 	C 	0.34390 0.34533 0.52208 0.08800
H 	H 	0.32520 0.33930 0.49180 0.01400
C 	C 	0.68005 0.57313 0.70184 0.17300
C 	C 	0.37967 0.27984 0.60197 0.08700
H 	H 	0.38590 0.22810 0.62630 0.01900
C 	C 	0.62362 0.54343 0.71841 0.12000
C 	C 	0.68746 0.42931 0.86566 0.09400
H 	H 	0.68220 0.37250 0.88240 0.01500
C 	C 	0.38373 0.77277 0.53724 0.07400
H 	H 	0.39100 0.82350 0.51810 0.02300
C 	C 	0.45910 0.59660 0.64181 -0.12500
H 	H 	0.44500 0.64520 0.65100 0.07600
C 	C 	0.72150 0.57039 0.86795 0.09700
H 	H 	0.73970 0.61050 0.88600 0.02100
C 	C 	0.70853 0.51549 0.70426 -0.19800
H 	H 	0.71390 0.46550 0.72980 0.10600
C 	C 	0.35160 0.27015 0.55888 -0.14700
C 	C 	0.74355 0.61882 0.59426 0.39400
C 	C 	0.70234 0.59628 0.81822 -0.18400
H 	H 	0.70690 0.65500 0.80260 0.10300
C 	C 	0.49429 0.59656 0.66469 -0.01000
H 	H 	0.50370 0.64620 0.68900 0.03400
C 	C 	0.39875 0.36371 0.61003 -0.18500
H 	H 	0.41740 0.37030 0.64030 0.09700
C 	C 	0.33013 0.18362 0.55290 0.33300
C 	C 	0.34346 0.70994 0.58232 0.07900
H 	H 	0.32320 0.71680 0.59450 0.02500
C 	C 	0.46592 0.45594 0.59331 -0.12300
H 	H 	0.45640 0.40690 0.56860 0.07700
C 	C 	0.67245 0.64481 0.66382 -0.19800
H 	H 	0.65280 0.68400 0.66130 0.10400
C 	C 	0.61098 0.50600 0.66855 -0.12000
H 	H 	0.62630 0.48530 0.64830 0.07700
C 	C 	0.40211 0.68945 0.54629 -0.17100
H 	H 	0.42240 0.68260 0.53430 0.09300
C 	C 	0.60142 0.57097 0.74917 -0.11700
H 	H 	0.61000 0.59440 0.78430 0.07500
C 	C 	0.69301 0.65957 0.63005 0.10900
H 	H 	0.68780 0.71020 0.60480 0.01000
C 	C 	0.66802 0.45426 0.81512 -0.19200
H 	H 	0.64930 0.41500 0.79770 0.10000
C 	C 	0.51553 0.52785 0.65343 -0.01000
C 	C 	0.57546 0.49820 0.64738 -0.01500
H 	H 	0.56680 0.47250 0.61280 0.03600
C 	C 	0.33340 0.87492 0.54693 0.31600
C 	C 	0.50056 0.45687 0.61650 -0.00900
H 	H 	0.51470 0.40830 0.60730 0.03400
C 	C 	0.55290 0.52834 0.67750 -0.00400
C 	C 	0.56636 0.56337 0.72723 -0.01500
H 	H 	0.55110 0.58350 0.74780 0.03700
Co	Co	0.29425 0.02614 0.53803 1.17000
O 	O 	0.80269 0.67860 0.51551 -0.46500
O 	O 	0.22977 0.87814 0.96317 -0.43600
O 	O 	0.83858 0.61303 0.58444 -0.35600
O 	O 	0.24125 0.19880 0.57148 -0.42200
O 	O 	0.81042 0.38653 0.57172 -0.36400
O 	O 	0.25969 0.01221 0.96760 -0.42300
O 	O 	0.26347 0.04981 0.59016 -0.42300
O 	O 	0.83936 0.43775 0.51564 -0.33100
N 	N 	0.90933 0.02539 0.58247 -0.17900
N 	N 	0.15931 0.05971 0.73845 -0.18200
C 	C 	0.21438 0.98711 0.89140 -0.15900
C 	C 	0.86340 0.92854 0.52971 -0.18000
H 	H 	0.85810 0.97940 0.50460 0.09800
C 	C 	0.89078 0.11373 0.57358 0.15400
C 	C 	0.89051 0.93767 0.57378 0.16200
C 	C 	0.94487 0.02641 0.60598 0.12300
C 	C 	0.23661 0.95703 0.94541 0.41200
C 	C 	0.17599 0.03526 0.79084 0.16600
C 	C 	0.86176 0.12470 0.59143 -0.17800
H 	H 	0.85420 0.07380 0.61010 0.09900
C 	C 	0.22132 0.10227 0.63188 -0.16600
C 	C 	0.85411 0.28376 0.55620 -0.12200
C 	C 	0.22876 0.03046 0.67006 0.11100
H 	H 	0.24830 0.99100 0.67240 0.01300
C 	C 	0.84390 0.84533 0.52208 0.08800
H 	H 	0.82520 0.83930 0.49180 0.01400
C 	C 	0.18005 0.07313 0.70184 0.17300
C 	C 	0.87967 0.77984 0.60197 0.08700
H 	H 	0.88590 0.72810 0.62630 0.01900
C 	C 	0.12362 0.04343 0.71841 0.12000
C 	C 	0.18746 0.92931 0.86566 0.09400
H 	H 	0.18220 0.87250 0.88240 0.01500
C 	C 	0.88373 0.27277 0.53724 0.07400
H 	H 	0.89100 0.32350 0.51810 0.02300
C 	C 	0.95910 0.09660 0.64181 -0.12500
H 	H 	0.94500 0.14520 0.65100 0.07600
C 	C 	0.22150 0.07039 0.86795 0.09700
H 	H 	0.23970 0.11050 0.88600 0.02100
C 	C 	0.20853 0.01549 0.70426 -0.19800
H 	H 	0.21390 0.96550 0.72980 0.10600
C 	C 	0.85160 0.77015 0.55888 -0.14700
C 	C 	0.24355 0.11882 0.59426 0.39400
C 	C 	0.20234 0.09628 0.81822 -0.18400
H 	H 	0.20690 0.15500 0.80260 0.10300
C 	C 	0.99429 0.09656 0.66469 -0.01100
H 	H 	0.00370 0.14620 0.68900 0.03500
C 	C 	0.89875 0.86371 0.61003 -0.18500
H 	H 	0.91740 0.87030 0.64030 0.09700
C 	C 	0.83013 0.68362 0.55290 0.33300
C 	C 	0.84346 0.20994 0.58232 0.07900
H 	H 	0.82320 0.21680 0.59450 0.02500
C 	C 	0.96592 0.95594 0.59331 -0.12400
H 	H 	0.95640 0.90690 0.56860 0.07700
C 	C 	0.17245 0.14481 0.66382 -0.19800
H 	H 	0.15280 0.18400 0.66130 0.10400
C 	C 	0.11098 0.00600 0.66855 -0.12000
H 	H 	0.12630 0.98530 0.64830 0.07700
C 	C 	0.90211 0.18945 0.54629 -0.17100
H 	H 	0.92240 0.18260 0.53430 0.09300
C 	C 	0.10142 0.07097 0.74917 -0.11700
H 	H 	0.11000 0.09440 0.78430 0.07500
C 	C 	0.19301 0.15957 0.63005 0.10900
H 	H 	0.18780 0.21020 0.60480 0.01000
C 	C 	0.16802 0.95426 0.81512 -0.19200
H 	H 	0.14930 0.91500 0.79770 0.10000
C 	C 	0.01553 0.02785 0.65343 -0.01000
C 	C 	0.07546 0.99820 0.64738 -0.01500
H 	H 	0.06680 0.97250 0.61280 0.03600
C 	C 	0.83340 0.37492 0.54693 0.31700
C 	C 	0.00056 0.95687 0.61650 -0.00900
H 	H 	0.01470 0.90830 0.60730 0.03400
C 	C 	0.05290 0.02834 0.67750 -0.00400
C 	C 	0.06636 0.06337 0.72723 -0.01500
H 	H 	0.05110 0.08350 0.74780 0.03700
Co	Co	0.20575 0.52614 0.96197 1.17500
O 	O 	0.69731 0.17860 0.98449 -0.45600
O 	O 	0.27023 0.37814 0.53683 -0.44700
O 	O 	0.66142 0.11303 0.91556 -0.35800
O 	O 	0.25875 0.69880 0.92852 -0.41500
O 	O 	0.68958 0.88653 0.92828 -0.36100
O 	O 	0.24031 0.51221 0.53240 -0.43600
O 	O 	0.23653 0.54981 0.90984 -0.41900
O 	O 	0.66064 0.93775 0.98436 -0.32400
N 	N 	0.59067 0.52539 0.91753 -0.18200
N 	N 	0.34069 0.55971 0.76155 -0.18200
C 	C 	0.28562 0.48711 0.60860 -0.16300
C 	C 	0.63660 0.42854 0.97029 -0.21500
H 	H 	0.64190 0.47940 0.99540 0.11600
C 	C 	0.60922 0.61373 0.92642 0.15600
C 	C 	0.60949 0.43767 0.92622 0.18200
C 	C 	0.55513 0.52641 0.89402 0.12500
C 	C 	0.26339 0.45703 0.55459 0.41600
C 	C 	0.32401 0.53526 0.70916 0.16800
C 	C 	0.63824 0.62470 0.90857 -0.17700
H 	H 	0.64580 0.57380 0.88990 0.09900
C 	C 	0.27868 0.60227 0.86812 -0.16400
C 	C 	0.64589 0.78376 0.94380 -0.12000
C 	C 	0.27124 0.53046 0.82994 0.11000
H 	H 	0.25170 0.49100 0.82760 0.01300
C 	C 	0.65610 0.34533 0.97792 0.15100
H 	H 	0.67480 0.33930 0.00820 -0.02400
C 	C 	0.31995 0.57313 0.79816 0.17300
C 	C 	0.62033 0.27984 0.89803 0.10800
H 	H 	0.61410 0.22810 0.87370 0.01300
C 	C 	0.37638 0.54343 0.78159 0.12000
C 	C 	0.31254 0.42931 0.63434 0.09600
H 	H 	0.31780 0.37250 0.61760 0.01400
C 	C 	0.61627 0.77277 0.96276 0.07500
H 	H 	0.60900 0.82350 0.98190 0.02700
C 	C 	0.54090 0.59660 0.85819 -0.12500
H 	H 	0.55500 0.64520 0.84900 0.07700
C 	C 	0.27850 0.57039 0.63205 0.09900
H 	H 	0.26030 0.61050 0.61400 0.01800
C 	C 	0.29147 0.51549 0.79574 -0.19700
H 	H 	0.28610 0.46550 0.77020 0.10600
C 	C 	0.64840 0.27015 0.94112 -0.17300
C 	C 	0.25645 0.61882 0.90574 0.39300
C 	C 	0.29766 0.59628 0.68178 -0.18600
H 	H 	0.29310 0.65500 0.69740 0.10300
C 	C 	0.50571 0.59656 0.83531 -0.00900
H 	H 	0.49630 0.64620 0.81100 0.03500
C 	C 	0.60125 0.36371 0.88997 -0.20300
H 	H 	0.58260 0.37030 0.85970 0.10400
C 	C 	0.66987 0.18362 0.94710 0.34400
C 	C 	0.65654 0.70994 0.91768 0.07900
H 	H 	0.67680 0.71680 0.90550 0.02700
C 	C 	0.53408 0.45594 0.90669 -0.12300
H 	H 	0.54360 0.40690 0.93140 0.08000
C 	C 	0.32755 0.64481 0.83618 -0.19700
H 	H 	0.34720 0.68400 0.83870 0.10600
C 	C 	0.38902 0.50600 0.83145 -0.11900
H 	H 	0.37370 0.48530 0.85170 0.07900
C 	C 	0.59789 0.68945 0.95371 -0.17000
H 	H 	0.57760 0.68260 0.96570 0.09700
C 	C 	0.39858 0.57097 0.75083 -0.11600
H 	H 	0.39000 0.59440 0.71570 0.07500
C 	C 	0.30699 0.65957 0.86995 0.10900
H 	H 	0.31220 0.71020 0.89520 0.01300
C 	C 	0.33198 0.45426 0.68488 -0.19300
H 	H 	0.35070 0.41500 0.70230 0.10100
C 	C 	0.48447 0.52785 0.84657 -0.01000
C 	C 	0.42454 0.49820 0.85262 -0.01400
H 	H 	0.43320 0.47250 0.88720 0.04000
C 	C 	0.66660 0.87492 0.95307 0.31600
C 	C 	0.49944 0.45687 0.88350 -0.00700
H 	H 	0.48530 0.40830 0.89270 0.03700
C 	C 	0.44710 0.52834 0.82250 -0.00300
C 	C 	0.43364 0.56337 0.77277 -0.01500
H 	H 	0.44890 0.58350 0.75220 0.03700
Co	Co	0.70575 0.02614 0.96197 1.17500
O 	O 	0.19731 0.67860 0.98449 -0.45600
O 	O 	0.77023 0.87814 0.53683 -0.44700
O 	O 	0.16142 0.61303 0.91556 -0.35800
O 	O 	0.75875 0.19880 0.92852 -0.41500
O 	O 	0.18958 0.38653 0.92828 -0.36100
O 	O 	0.74031 0.01221 0.53240 -0.43600
O 	O 	0.73653 0.04981 0.90984 -0.41900
O 	O 	0.16064 0.43775 0.98436 -0.32400
N 	N 	0.09067 0.02539 0.91753 -0.18200
N 	N 	0.84069 0.05971 0.76155 -0.18200
C 	C 	0.78562 0.98711 0.60860 -0.16300
C 	C 	0.13660 0.92854 0.97029 -0.21500
H 	H 	0.14190 0.97940 0.99540 0.11600
C 	C 	0.10922 0.11373 0.92642 0.15600
C 	C 	0.10949 0.93767 0.92622 0.18200
C 	C 	0.05513 0.02641 0.89402 0.12500
C 	C 	0.76339 0.95703 0.55459 0.41500
C 	C 	0.82401 0.03526 0.70916 0.16800
C 	C 	0.13824 0.12470 0.90857 -0.17700
H 	H 	0.14580 0.07380 0.88990 0.09900
C 	C 	0.77868 0.10227 0.86812 -0.16300
C 	C 	0.14589 0.28376 0.94380 -0.12000
C 	C 	0.77124 0.03046 0.82994 0.11000
H 	H 	0.75170 0.99100 0.82760 0.01400
C 	C 	0.15610 0.84533 0.97792 0.15100
H 	H 	0.17480 0.83930 0.00820 -0.02400
C 	C 	0.81995 0.07313 0.79816 0.17300
C 	C 	0.12033 0.77984 0.89803 0.10800
H 	H 	0.11410 0.72810 0.87370 0.01300
C 	C 	0.87638 0.04343 0.78159 0.12000
C 	C 	0.81254 0.92931 0.63434 0.09600
H 	H 	0.81780 0.87250 0.61760 0.01400
C 	C 	0.11627 0.27277 0.96276 0.07500
H 	H 	0.10900 0.32350 0.98190 0.02700
C 	C 	0.04090 0.09660 0.85819 -0.12500
H 	H 	0.05500 0.14520 0.84900 0.07700
C 	C 	0.77850 0.07039 0.63205 0.09900
H 	H 	0.76030 0.11050 0.61400 0.01700
C 	C 	0.79147 0.01549 0.79574 -0.19700
H 	H 	0.78610 0.96550 0.77020 0.10600
C 	C 	0.14840 0.77015 0.94112 -0.17300
C 	C 	0.75645 0.11882 0.90574 0.39300
C 	C 	0.79766 0.09628 0.68178 -0.18600
H 	H 	0.79310 0.15500 0.69740 0.10300
C 	C 	0.00571 0.09656 0.83531 -0.00900
H 	H 	0.99630 0.14620 0.81100 0.03400
C 	C 	0.10125 0.86371 0.88997 -0.20300
H 	H 	0.08260 0.87030 0.85970 0.10400
C 	C 	0.16987 0.68362 0.94710 0.34300
C 	C 	0.15654 0.20994 0.91768 0.07900
H 	H 	0.17680 0.21680 0.90550 0.02700
C 	C 	0.03408 0.95594 0.90669 -0.12300
H 	H 	0.04360 0.90690 0.93140 0.08000
C 	C 	0.82755 0.14481 0.83618 -0.19700
H 	H 	0.84720 0.18400 0.83870 0.10600
C 	C 	0.88902 0.00600 0.83145 -0.11900
H 	H 	0.87370 0.98530 0.85170 0.07900
C 	C 	0.09789 0.18945 0.95371 -0.17000
H 	H 	0.07760 0.18260 0.96570 0.09700
C 	C 	0.89858 0.07097 0.75083 -0.11600
H 	H 	0.89000 0.09440 0.71570 0.07500
C 	C 	0.80699 0.15957 0.86995 0.10800
H 	H 	0.81220 0.21020 0.89520 0.01300
C 	C 	0.83198 0.95426 0.68488 -0.19400
H 	H 	0.85070 0.91500 0.70230 0.10100
C 	C 	0.98447 0.02785 0.84657 -0.01000
C 	C 	0.92454 0.99820 0.85262 -0.01400
H 	H 	0.93320 0.97250 0.88720 0.04000
C 	C 	0.16660 0.37492 0.95307 0.31600
C 	C 	0.99944 0.95687 0.88350 -0.00700
H 	H 	0.98530 0.90830 0.89270 0.03700
C 	C 	0.94710 0.02834 0.82250 -0.00300
C 	C 	0.93364 0.06337 0.77277 -0.01500
H 	H 	0.94890 0.08350 0.75220 0.03700
Co	Co	0.20575 0.47386 0.46197 1.17000
O 	O 	0.69731 0.82140 0.48449 -0.46500
O 	O 	0.27023 0.62186 0.03683 -0.45500
O 	O 	0.66142 0.88697 0.41556 -0.35700
O 	O 	0.25875 0.30120 0.42852 -0.42200
O 	O 	0.68958 0.11347 0.42828 -0.36400
O 	O 	0.24031 0.48779 0.03240 -0.44800
O 	O 	0.23653 0.45019 0.40984 -0.42300
O 	O 	0.66064 0.06225 0.48436 -0.33100
N 	N 	0.59067 0.47461 0.41753 -0.17900
N 	N 	0.34069 0.44029 0.26155 -0.18200
C 	C 	0.28562 0.51289 0.10860 -0.16600
C 	C 	0.63660 0.57146 0.47029 -0.18000
H 	H 	0.64190 0.52060 0.49540 0.09900
C 	C 	0.60922 0.38627 0.42642 0.15400
C 	C 	0.60949 0.56233 0.42622 0.16200
C 	C 	0.55513 0.47359 0.39402 0.12300
C 	C 	0.26339 0.54297 0.05459 0.41800
C 	C 	0.32401 0.46474 0.20916 0.16800
C 	C 	0.63824 0.37530 0.40857 -0.17800
H 	H 	0.64580 0.42620 0.38990 0.09900
C 	C 	0.27868 0.39773 0.36812 -0.16600
C 	C 	0.64589 0.21624 0.44380 -0.12300
C 	C 	0.27124 0.46954 0.32994 0.11100
H 	H 	0.25170 0.50900 0.32760 0.01200
C 	C 	0.65610 0.65467 0.47792 0.08800
H 	H 	0.67480 0.66070 0.50820 0.01400
C 	C 	0.31995 0.42687 0.29816 0.17300
C 	C 	0.62033 0.72016 0.39803 0.08700
H 	H 	0.61410 0.77190 0.37370 0.01800
C 	C 	0.37638 0.45657 0.28159 0.12000
C 	C 	0.31254 0.57069 0.13434 0.09700
H 	H 	0.31780 0.62750 0.11760 0.01400
C 	C 	0.61627 0.22723 0.46276 0.07400
H 	H 	0.60900 0.17650 0.48190 0.02300
C 	C 	0.54090 0.40340 0.35819 -0.12500
H 	H 	0.55500 0.35480 0.34900 0.07600
C 	C 	0.27850 0.42961 0.13205 0.10100
H 	H 	0.26030 0.38950 0.11400 0.01400
C 	C 	0.29147 0.48451 0.29574 -0.19900
H 	H 	0.28610 0.53450 0.27020 0.10500
C 	C 	0.64840 0.72985 0.44112 -0.14800
C 	C 	0.25645 0.38118 0.40574 0.39400
C 	C 	0.29766 0.40372 0.18178 -0.18800
H 	H 	0.29310 0.34500 0.19740 0.10300
C 	C 	0.50571 0.40344 0.33531 -0.01000
H 	H 	0.49630 0.35380 0.31100 0.03400
C 	C 	0.60125 0.63629 0.38997 -0.18500
H 	H 	0.58260 0.62970 0.35970 0.09700
C 	C 	0.66987 0.81638 0.44710 0.33300
C 	C 	0.65654 0.29006 0.41768 0.07900
H 	H 	0.67680 0.28320 0.40550 0.02500
C 	C 	0.53408 0.54406 0.40669 -0.12300
H 	H 	0.54360 0.59310 0.43140 0.07700
C 	C 	0.32755 0.35519 0.33618 -0.19900
H 	H 	0.34720 0.31600 0.33870 0.10400
C 	C 	0.38902 0.49400 0.33145 -0.12000
H 	H 	0.37370 0.51470 0.35170 0.07700
C 	C 	0.59789 0.31055 0.45371 -0.17100
H 	H 	0.57760 0.31740 0.46570 0.09300
C 	C 	0.39858 0.42903 0.25083 -0.11700
H 	H 	0.39000 0.40560 0.21570 0.07500
C 	C 	0.30699 0.34043 0.36995 0.10900
H 	H 	0.31220 0.28980 0.39520 0.00900
C 	C 	0.33198 0.54574 0.18488 -0.19400
H 	H 	0.35070 0.58500 0.20230 0.10100
C 	C 	0.48447 0.47215 0.34657 -0.01000
C 	C 	0.42454 0.50180 0.35262 -0.01500
H 	H 	0.43320 0.52750 0.38720 0.03600
C 	C 	0.66660 0.12508 0.45307 0.31600
C 	C 	0.49944 0.54313 0.38350 -0.00900
H 	H 	0.48530 0.59170 0.39270 0.03400
C 	C 	0.44710 0.47166 0.32250 -0.00400
C 	C 	0.43364 0.43663 0.27277 -0.01500
H 	H 	0.44890 0.41650 0.25220 0.03700
Co	Co	0.70575 0.97386 0.46197 1.17000
O 	O 	0.19731 0.32140 0.48449 -0.46500
O 	O 	0.77023 0.12186 0.03683 -0.45500
O 	O 	0.16142 0.38697 0.41556 -0.35700
O 	O 	0.75875 0.80120 0.42852 -0.42200
O 	O 	0.18958 0.61347 0.42828 -0.36400
O 	O 	0.74031 0.98779 0.03240 -0.44800
O 	O 	0.73653 0.95019 0.40984 -0.42300
O 	O 	0.16064 0.56225 0.48436 -0.33100
N 	N 	0.09067 0.97461 0.41753 -0.17900
N 	N 	0.84069 0.94029 0.26155 -0.18200
C 	C 	0.78562 0.01289 0.10860 -0.16600
C 	C 	0.13660 0.07146 0.47029 -0.18000
H 	H 	0.14190 0.02060 0.49540 0.09900
C 	C 	0.10922 0.88627 0.42642 0.15400
C 	C 	0.10949 0.06233 0.42622 0.16200
C 	C 	0.05513 0.97359 0.39402 0.12300
C 	C 	0.76339 0.04297 0.05459 0.41800
C 	C 	0.82401 0.96474 0.20916 0.16800
C 	C 	0.13824 0.87530 0.40857 -0.17800
H 	H 	0.14580 0.92620 0.38990 0.09900
C 	C 	0.77868 0.89773 0.36812 -0.16600
C 	C 	0.14589 0.71624 0.44380 -0.12300
C 	C 	0.77124 0.96954 0.32994 0.11000
H 	H 	0.75170 0.00900 0.32760 0.01200
C 	C 	0.15610 0.15467 0.47792 0.08800
H 	H 	0.17480 0.16070 0.50820 0.01400
C 	C 	0.81995 0.92687 0.29816 0.17300
C 	C 	0.12033 0.22016 0.39803 0.08700
H 	H 	0.11410 0.27190 0.37370 0.01800
C 	C 	0.87638 0.95657 0.28159 0.12000
C 	C 	0.81254 0.07069 0.13434 0.09700
H 	H 	0.81780 0.12750 0.11760 0.01400
C 	C 	0.11627 0.72723 0.46276 0.07400
H 	H 	0.10900 0.67650 0.48190 0.02300
C 	C 	0.04090 0.90340 0.35819 -0.12500
H 	H 	0.05500 0.85480 0.34900 0.07600
C 	C 	0.77850 0.92961 0.13205 0.10100
H 	H 	0.76030 0.88950 0.11400 0.01400
C 	C 	0.79147 0.98451 0.29574 -0.19900
H 	H 	0.78610 0.03450 0.27020 0.10500
C 	C 	0.14840 0.22985 0.44112 -0.14800
C 	C 	0.75645 0.88118 0.40574 0.39400
C 	C 	0.79766 0.90372 0.18178 -0.18800
H 	H 	0.79310 0.84500 0.19740 0.10300
C 	C 	0.00571 0.90344 0.33531 -0.01000
H 	H 	0.99630 0.85380 0.31100 0.03400
C 	C 	0.10125 0.13629 0.38997 -0.18500
H 	H 	0.08260 0.12970 0.35970 0.09700
C 	C 	0.16987 0.31638 0.44710 0.33300
C 	C 	0.15654 0.79006 0.41768 0.07900
H 	H 	0.17680 0.78320 0.40550 0.02500
C 	C 	0.03408 0.04406 0.40669 -0.12300
H 	H 	0.04360 0.09310 0.43140 0.07700
C 	C 	0.82755 0.85519 0.33618 -0.19900
H 	H 	0.84720 0.81600 0.33870 0.10400
C 	C 	0.88902 0.99400 0.33145 -0.12000
H 	H 	0.87370 0.01470 0.35170 0.07700
C 	C 	0.09789 0.81055 0.45371 -0.17100
H 	H 	0.07760 0.81740 0.46570 0.09300
C 	C 	0.89858 0.92903 0.25083 -0.11700
H 	H 	0.89000 0.90560 0.21570 0.07500
C 	C 	0.80699 0.84043 0.36995 0.10900
H 	H 	0.81220 0.78980 0.39520 0.00900
C 	C 	0.83198 0.04574 0.18488 -0.19400
H 	H 	0.85070 0.08500 0.20230 0.10100
C 	C 	0.98447 0.97215 0.34657 -0.01000
C 	C 	0.92454 0.00180 0.35262 -0.01500
H 	H 	0.93320 0.02750 0.38720 0.03600
C 	C 	0.16660 0.62508 0.45307 0.31600
C 	C 	0.99944 0.04313 0.38350 -0.00900
H 	H 	0.98530 0.09170 0.39270 0.03400
C 	C 	0.94710 0.97166 0.32250 -0.00400
C 	C 	0.93364 0.93663 0.27277 -0.01500
H 	H 	0.94890 0.91650 0.25220 0.03700
Co	Co	0.79425 0.47386 0.03803 1.16600
O 	O 	0.30269 0.82140 0.01551 -0.47100
O 	O 	0.72977 0.62186 0.46317 -0.44700
O 	O 	0.33858 0.88697 0.08444 -0.35500
O 	O 	0.74125 0.30120 0.07148 -0.42600
O 	O 	0.31042 0.11347 0.07172 -0.36700
O 	O 	0.75969 0.48779 0.46760 -0.43600
O 	O 	0.76347 0.45019 0.09016 -0.42700
O 	O 	0.33936 0.06225 0.01564 -0.33800
N 	N 	0.40933 0.47461 0.08247 -0.17600
N 	N 	0.65931 0.44029 0.23845 -0.18200
C 	C 	0.71438 0.51289 0.39140 -0.16300
C 	C 	0.36340 0.57146 0.02971 -0.14500
H 	H 	0.35810 0.52060 0.00460 0.08100
C 	C 	0.39078 0.38627 0.07358 0.15300
C 	C 	0.39051 0.56233 0.07378 0.14300
C 	C 	0.44487 0.47359 0.10598 0.12100
C 	C 	0.73661 0.54297 0.44541 0.41500
C 	C 	0.67599 0.46474 0.29084 0.16700
C 	C 	0.36176 0.37530 0.09143 -0.17800
H 	H 	0.35420 0.42620 0.11010 0.09900
C 	C 	0.72132 0.39773 0.13188 -0.16800
C 	C 	0.35411 0.21624 0.05620 -0.12500
C 	C 	0.72876 0.46954 0.17006 0.11100
H 	H 	0.74830 0.50900 0.17240 0.01100
C 	C 	0.34390 0.65467 0.02208 0.02400
H 	H 	0.32520 0.66070 0.99180 0.05300
C 	C 	0.68005 0.42687 0.20184 0.17200
C 	C 	0.37967 0.72016 0.10197 0.06600
H 	H 	0.38590 0.77190 0.12630 0.02500
C 	C 	0.62362 0.45657 0.21841 0.11900
C 	C 	0.68746 0.57069 0.36566 0.09500
H 	H 	0.68220 0.62750 0.38240 0.01400
C 	C 	0.38373 0.22723 0.03724 0.07300
H 	H 	0.39100 0.17650 0.01810 0.01900
C 	C 	0.45910 0.40340 0.14181 -0.12400
H 	H 	0.44500 0.35480 0.15100 0.07600
C 	C 	0.72150 0.42961 0.36795 0.09900
H 	H 	0.73970 0.38950 0.38600 0.01800
C 	C 	0.70853 0.48451 0.20426 -0.20000
H 	H 	0.71390 0.53450 0.22980 0.10500
C 	C 	0.35160 0.72985 0.05888 -0.12100
C 	C 	0.74355 0.38118 0.09426 0.39300
C 	C 	0.70234 0.40372 0.31822 -0.18600
H 	H 	0.70690 0.34500 0.30260 0.10200
C 	C 	0.49429 0.40344 0.16469 -0.01200
H 	H 	0.50370 0.35380 0.18900 0.03400
C 	C 	0.39875 0.63629 0.11003 -0.16600
H 	H 	0.41740 0.62970 0.14030 0.09100
C 	C 	0.33013 0.81638 0.05290 0.32200
C 	C 	0.34346 0.29006 0.08232 0.07900
H 	H 	0.32320 0.28320 0.09450 0.02400
C 	C 	0.46592 0.54406 0.09331 -0.12300
H 	H 	0.45640 0.59310 0.06860 0.07400
C 	C 	0.67245 0.35519 0.16382 -0.20000
H 	H 	0.65280 0.31600 0.16130 0.10300
C 	C 	0.61098 0.49400 0.16855 -0.12100
H 	H 	0.62630 0.51470 0.14830 0.07400
C 	C 	0.40211 0.31055 0.04629 -0.17300
H 	H 	0.42240 0.31740 0.03430 0.09000
C 	C 	0.60142 0.42903 0.24917 -0.11700
H 	H 	0.61000 0.40560 0.28430 0.07500
C 	C 	0.69301 0.34043 0.13005 0.10900
H 	H 	0.68780 0.28980 0.10480 0.00700
C 	C 	0.66802 0.54574 0.31512 -0.19300
H 	H 	0.64930 0.58500 0.29770 0.10000
C 	C 	0.51553 0.47215 0.15343 -0.01000
C 	C 	0.57546 0.50180 0.14738 -0.01500
H 	H 	0.56680 0.52750 0.11280 0.03200
C 	C 	0.33340 0.12508 0.04693 0.31600
C 	C 	0.50056 0.54313 0.11650 -0.01100
H 	H 	0.51470 0.59170 0.10730 0.03200
C 	C 	0.55290 0.47166 0.17750 -0.00600
C 	C 	0.56636 0.43663 0.22723 -0.01500
H 	H 	0.55110 0.41650 0.24780 0.03600
Co	Co	0.29425 0.97386 0.03803 1.16600
O 	O 	0.80269 0.32140 0.01551 -0.47100
O 	O 	0.22977 0.12186 0.46317 -0.44700
O 	O 	0.83858 0.38697 0.08444 -0.35500
O 	O 	0.24125 0.80120 0.07148 -0.42600
O 	O 	0.81042 0.61347 0.07172 -0.36800
O 	O 	0.25969 0.98779 0.46760 -0.43600
O 	O 	0.26347 0.95019 0.09016 -0.42700
O 	O 	0.83936 0.56225 0.01564 -0.33800
N 	N 	0.90933 0.97461 0.08247 -0.17600
N 	N 	0.15931 0.94029 0.23845 -0.18200
C 	C 	0.21438 0.01289 0.39140 -0.16300
C 	C 	0.86340 0.07146 0.02971 -0.14500
H 	H 	0.85810 0.02060 0.00460 0.08100
C 	C 	0.89078 0.88627 0.07358 0.15300
C 	C 	0.89051 0.06233 0.07378 0.14300
C 	C 	0.94487 0.97359 0.10598 0.12100
C 	C 	0.23661 0.04297 0.44541 0.41500
C 	C 	0.17599 0.96474 0.29084 0.16700
C 	C 	0.86176 0.87530 0.09143 -0.17800
H 	H 	0.85420 0.92620 0.11010 0.09900
C 	C 	0.22132 0.89773 0.13188 -0.16800
C 	C 	0.85411 0.71624 0.05620 -0.12600
C 	C 	0.22876 0.96954 0.17006 0.11000
H 	H 	0.24830 0.00900 0.17240 0.01200
C 	C 	0.84390 0.15467 0.02208 0.02500
H 	H 	0.82520 0.16070 0.99180 0.05200
C 	C 	0.18005 0.92687 0.20184 0.17200
C 	C 	0.87967 0.22016 0.10197 0.06600
H 	H 	0.88590 0.27190 0.12630 0.02500
C 	C 	0.12362 0.95657 0.21841 0.11900
C 	C 	0.18746 0.07069 0.36566 0.09500
H 	H 	0.18220 0.12750 0.38240 0.01400
C 	C 	0.88373 0.72723 0.03724 0.07300
H 	H 	0.89100 0.67650 0.01810 0.01900
C 	C 	0.95910 0.90340 0.14181 -0.12400
H 	H 	0.94500 0.85480 0.15100 0.07500
C 	C 	0.22150 0.92961 0.36795 0.09900
H 	H 	0.23970 0.88950 0.38600 0.01800
C 	C 	0.20853 0.98451 0.20426 -0.20000
H 	H 	0.21390 0.03450 0.22980 0.10500
C 	C 	0.85160 0.22985 0.05888 -0.12100
C 	C 	0.24355 0.88118 0.09426 0.39300
C 	C 	0.20234 0.90372 0.31822 -0.18600
H 	H 	0.20690 0.84500 0.30260 0.10200
C 	C 	0.99429 0.90344 0.16469 -0.01200
H 	H 	0.00370 0.85380 0.18900 0.03400
C 	C 	0.89875 0.13629 0.11003 -0.16700
H 	H 	0.91740 0.12970 0.14030 0.09100
C 	C 	0.83013 0.31638 0.05290 0.32200
C 	C 	0.84346 0.79006 0.08232 0.07900
H 	H 	0.82320 0.78320 0.09450 0.02400
C 	C 	0.96592 0.04406 0.09331 -0.12300
H 	H 	0.95640 0.09310 0.06860 0.07400
C 	C 	0.17245 0.85519 0.16382 -0.20000
H 	H 	0.15280 0.81600 0.16130 0.10300
C 	C 	0.11098 0.99400 0.16855 -0.12200
H 	H 	0.12630 0.01470 0.14830 0.07400
C 	C 	0.90211 0.81055 0.04629 -0.17300
H 	H 	0.92240 0.81740 0.03430 0.09000
C 	C 	0.10142 0.92903 0.24917 -0.11800
H 	H 	0.11000 0.90560 0.28430 0.07500
C 	C 	0.19301 0.84043 0.13005 0.10900
H 	H 	0.18780 0.78980 0.10480 0.00700
C 	C 	0.16802 0.04574 0.31512 -0.19300
H 	H 	0.14930 0.08500 0.29770 0.10000
C 	C 	0.01553 0.97215 0.15343 -0.01000
C 	C 	0.07546 0.00180 0.14738 -0.01500
H 	H 	0.06680 0.02750 0.11280 0.03200
C 	C 	0.83340 0.62508 0.04693 0.31700
C 	C 	0.00056 0.04313 0.11650 -0.01100
H 	H 	0.01470 0.09170 0.10730 0.03200
C 	C 	0.05290 0.97166 0.17750 -0.00600
C 	C 	0.06636 0.93663 0.22723 -0.01500
H 	H 	0.05110 0.91650 0.24780 0.03600
Co	Co	0.75000 0.75000 0.50000 1.18400
Co	Co	0.25000 0.75000 -0.00000 1.17400
Co	Co	0.25000 0.25000 0.50000 1.18400
Co	Co	0.75000 0.25000 -0.00000 1.17400
