data_crystal

_cell_length_a 27.76530
_cell_length_b 27.76530
_cell_length_c 44.80440
_cell_angle_alpha 90.00000
_cell_angle_beta  90.00000
_cell_angle_gamma 120.00000

_symmetry_space_group_name_	'P 1'
_symmetry_space_group_name_H-M	'P 1'

loop_
_symmetry_equiv_pos_as_xyz
  x,y,z

loop_
_atom_site_label
_atom_site_type_symbol
_atom_site_fract_x
_atom_site_fract_y
_atom_site_fract_z
_atom_site_charge
Fe	Fe	0.12636 0.04212 0.67236 1.25100
O 	O 	0.15170 0.99880 0.69843 -0.41300
O 	O 	0.20040 0.10640 0.67543 -0.37400
O 	O 	0.10180 0.08260 0.64332 -0.39600
O 	O 	0.03040 0.08330 0.66485 -0.40600
O 	O 	0.15410 0.02940 0.74501 -0.39700
N 	N 	0.25040 0.16950 0.72305 -0.22000
H 	H 	0.21690 0.14210 0.71860 0.15800
C 	C 	0.24940 0.11760 0.66444 0.15800
N 	N 	0.34110 0.22970 0.71851 -0.13000
C 	C 	0.05820 0.12360 0.61684 -0.15600
C 	C 	0.20690 0.04720 0.62383 0.13400
C 	C 	0.25560 0.09200 0.63901 -0.06800
C 	C 	0.01840 0.14060 0.61544 0.07900
C 	C 	0.17570 0.01850 0.72287 0.37900
C 	C 	0.26450 0.20170 0.74795 0.12600
C 	C 	0.06230 0.09410 0.64371 0.39900
C 	C 	0.01780 0.17280 0.59121 0.05700
C 	C 	0.23520 0.03420 0.72672 -0.14700
C 	C 	0.30840 0.10600 0.62882 -0.14400
H 	H 	0.31170 0.08770 0.61170 0.07800
C 	C 	0.29890 0.15970 0.67884 -0.03700
C 	C 	0.32130 0.23950 0.74495 0.03100
C 	C 	0.09510 0.13850 0.59354 0.02700
H 	H 	0.12180 0.12670 0.59390 0.03100
C 	C 	0.35040 0.17160 0.66741 -0.16200
H 	H 	0.38300 0.19910 0.67720 0.09600
C 	C 	0.29700 0.18690 0.70622 0.14300
C 	C 	0.26230 0.02200 0.70480 0.03300
H 	H 	0.24260 0.00100 0.68780 0.02100
C 	C 	0.35660 0.14590 0.64297 0.21900
C 	C 	0.05510 0.18690 0.56850 -0.08100
H 	H 	0.05420 0.20810 0.55210 0.06300
C 	C 	0.31980 0.04110 0.70790 -0.06300
H 	H 	0.33840 0.03320 0.69260 0.04900
C 	C 	0.41330 0.15870 0.63200 -0.59900
H 	H 	0.41000 0.14380 0.61180 0.20800
H 	H 	0.42830 0.14150 0.64540 0.20000
H 	H 	0.43840 0.19900 0.63180 0.21000
C 	C 	0.09500 0.16980 0.56970 -0.05400
H 	H 	0.12160 0.17980 0.55420 0.04500
C 	C 	0.35010 0.07140 0.73300 -0.05000
H 	H 	0.38880 0.08430 0.73480 0.05200
O 	O 	0.09494 0.05890 0.70620 -0.43300
N 	N 	0.15520 0.02170 0.63557 -0.23900
N 	N 	0.20780 0.02460 0.59750 -0.21300
H 	H 	0.23730 0.03510 0.58620 0.12100
Fe	Fe	0.95788 0.08424 0.67236 1.25000
O 	O 	0.00120 0.15290 0.69843 -0.41400
O 	O 	0.89360 0.09400 0.67543 -0.37500
O 	O 	0.91740 0.01920 0.64332 -0.39700
O 	O 	0.91670 0.94710 0.66485 -0.40700
O 	O 	0.97060 0.12470 0.74501 -0.39800
N 	N 	0.83050 0.08090 0.72305 -0.22100
H 	H 	0.85790 0.07480 0.71860 0.15700
C 	C 	0.88240 0.13180 0.66444 0.15700
N 	N 	0.77030 0.11140 0.71851 -0.13100
C 	C 	0.87640 0.93460 0.61684 -0.15700
C 	C 	0.95280 0.15970 0.62383 0.13300
C 	C 	0.90800 0.16360 0.63901 -0.06900
C 	C 	0.85940 0.87780 0.61544 0.07800
C 	C 	0.98150 0.15720 0.72287 0.37800
C 	C 	0.79830 0.06280 0.74795 0.12500
C 	C 	0.90590 0.96820 0.64371 0.39800
C 	C 	0.82720 0.84500 0.59121 0.05600
C 	C 	0.96580 0.20100 0.72672 -0.14800
C 	C 	0.89400 0.20240 0.62882 -0.14500
H 	H 	0.91230 0.22400 0.61170 0.07700
C 	C 	0.84030 0.13920 0.67884 -0.03800
C 	C 	0.76050 0.08180 0.74495 0.03000
C 	C 	0.86150 0.95660 0.59354 0.02600
H 	H 	0.87330 0.99510 0.59390 0.03000
C 	C 	0.82840 0.17880 0.66741 -0.16300
H 	H 	0.80090 0.18390 0.67720 0.09500
C 	C 	0.81310 0.11010 0.70622 0.14200
C 	C 	0.97800 0.24030 0.70480 0.03200
H 	H 	0.99900 0.24160 0.68780 0.02000
C 	C 	0.85410 0.21070 0.64297 0.21800
C 	C 	0.81310 0.86820 0.56850 -0.08200
H 	H 	0.79190 0.84610 0.55210 0.06200
C 	C 	0.95890 0.27870 0.70790 -0.06400
H 	H 	0.96680 0.30520 0.69260 0.04800
C 	C 	0.84130 0.25460 0.63200 -0.60000
H 	H 	0.85620 0.26620 0.61180 0.20700
H 	H 	0.85850 0.28680 0.64540 0.19900
H 	H 	0.80100 0.23940 0.63180 0.20900
C 	C 	0.83020 0.92520 0.56970 -0.05500
H 	H 	0.82020 0.94180 0.55420 0.04400
C 	C 	0.92860 0.27870 0.73300 -0.05100
H 	H 	0.91570 0.30450 0.73480 0.05100
O 	O 	0.94110 0.03604 0.70620 -0.43400
N 	N 	0.97830 0.13350 0.63557 -0.23900
N 	N 	0.97540 0.18320 0.59750 -0.21300
H 	H 	0.96490 0.20220 0.58620 0.12100
Fe	Fe	0.91576 0.87364 0.67236 1.25000
O 	O 	0.84710 0.84830 0.69843 -0.41500
O 	O 	0.90600 0.79960 0.67543 -0.37500
O 	O 	0.98080 0.89820 0.64332 -0.39700
O 	O 	0.05290 0.96960 0.66485 -0.40700
O 	O 	0.87530 0.84590 0.74501 -0.39800
N 	N 	0.91910 0.74960 0.72305 -0.22100
H 	H 	0.92520 0.78310 0.71860 0.15700
C 	C 	0.86820 0.75060 0.66444 0.15700
N 	N 	0.88860 0.65890 0.71851 -0.13100
C 	C 	0.06540 0.94180 0.61684 -0.15700
C 	C 	0.84030 0.79310 0.62383 0.13300
C 	C 	0.83640 0.74440 0.63901 -0.06900
C 	C 	0.12220 0.98160 0.61544 0.07800
C 	C 	0.84280 0.82430 0.72287 0.37900
C 	C 	0.93720 0.73550 0.74795 0.12500
C 	C 	0.03180 0.93770 0.64371 0.39800
C 	C 	0.15500 0.98220 0.59121 0.05600
C 	C 	0.79900 0.76480 0.72672 -0.14800
C 	C 	0.79760 0.69160 0.62882 -0.14500
H 	H 	0.77600 0.68830 0.61170 0.07700
C 	C 	0.86080 0.70110 0.67884 -0.03800
C 	C 	0.91820 0.67870 0.74495 0.03000
C 	C 	0.04340 0.90490 0.59354 0.02600
H 	H 	0.00490 0.87820 0.59390 0.03000
C 	C 	0.82120 0.64960 0.66741 -0.16300
H 	H 	0.81610 0.61700 0.67720 0.09500
C 	C 	0.88990 0.70300 0.70622 0.14200
C 	C 	0.75970 0.73770 0.70480 0.03300
H 	H 	0.75840 0.75740 0.68780 0.02000
C 	C 	0.78930 0.64340 0.64297 0.21800
C 	C 	0.13180 0.94490 0.56850 -0.08200
H 	H 	0.15390 0.94580 0.55210 0.06200
C 	C 	0.72130 0.68020 0.70790 -0.06400
H 	H 	0.69480 0.66160 0.69260 0.04800
C 	C 	0.74540 0.58670 0.63200 -0.60000
H 	H 	0.73380 0.59000 0.61180 0.20700
H 	H 	0.71320 0.57170 0.64540 0.19900
H 	H 	0.76060 0.56160 0.63180 0.20900
C 	C 	0.07480 0.90500 0.56970 -0.05500
H 	H 	0.05820 0.87840 0.55420 0.04400
C 	C 	0.72130 0.64990 0.73300 -0.05100
H 	H 	0.69550 0.61120 0.73480 0.05100
O 	O 	0.96396 0.90506 0.70620 -0.43400
N 	N 	0.86650 0.84480 0.63557 -0.23800
N 	N 	0.81680 0.79220 0.59750 -0.21300
H 	H 	0.79780 0.76270 0.58620 0.12100
Fe	Fe	0.95788 0.87364 0.82764 1.25000
O 	O 	0.00120 0.84830 0.80157 -0.41400
O 	O 	0.89360 0.79960 0.82457 -0.37500
O 	O 	0.91740 0.89820 0.85668 -0.39700
O 	O 	0.91670 0.96960 0.83515 -0.40700
O 	O 	0.97060 0.84590 0.75499 -0.39800
N 	N 	0.83050 0.74960 0.77695 -0.22100
H 	H 	0.85790 0.78310 0.78140 0.15700
C 	C 	0.88240 0.75060 0.83556 0.15700
N 	N 	0.77030 0.65890 0.78149 -0.13100
C 	C 	0.87640 0.94180 0.88316 -0.15700
C 	C 	0.95280 0.79310 0.87617 0.13300
C 	C 	0.90800 0.74440 0.86099 -0.06900
C 	C 	0.85940 0.98160 0.88456 0.07800
C 	C 	0.98150 0.82430 0.77713 0.37800
C 	C 	0.79830 0.73550 0.75205 0.12500
C 	C 	0.90590 0.93770 0.85629 0.39800
C 	C 	0.82720 0.98220 0.90879 0.05600
C 	C 	0.96580 0.76480 0.77328 -0.14800
C 	C 	0.89400 0.69160 0.87118 -0.14500
H 	H 	0.91230 0.68830 0.88830 0.07700
C 	C 	0.84030 0.70110 0.82116 -0.03800
C 	C 	0.76050 0.67870 0.75505 0.03000
C 	C 	0.86150 0.90490 0.90646 0.02600
H 	H 	0.87330 0.87820 0.90610 0.03000
C 	C 	0.82840 0.64960 0.83259 -0.16300
H 	H 	0.80090 0.61700 0.82280 0.09500
C 	C 	0.81310 0.70300 0.79378 0.14200
C 	C 	0.97800 0.73770 0.79520 0.03200
H 	H 	0.99900 0.75740 0.81220 0.02000
C 	C 	0.85410 0.64340 0.85703 0.21800
C 	C 	0.81310 0.94490 0.93150 -0.08200
H 	H 	0.79190 0.94580 0.94790 0.06200
C 	C 	0.95890 0.68020 0.79210 -0.06400
H 	H 	0.96680 0.66160 0.80740 0.04800
C 	C 	0.84130 0.58670 0.86800 -0.60000
H 	H 	0.85620 0.59000 0.88820 0.20700
H 	H 	0.85850 0.57170 0.85460 0.19900
H 	H 	0.80100 0.56160 0.86820 0.20900
C 	C 	0.83020 0.90500 0.93030 -0.05500
H 	H 	0.82020 0.87840 0.94580 0.04400
C 	C 	0.92860 0.64990 0.76700 -0.05100
H 	H 	0.91570 0.61120 0.76520 0.05100
O 	O 	0.94110 0.90506 0.79380 -0.43400
N 	N 	0.97830 0.84480 0.86443 -0.23900
N 	N 	0.97540 0.79220 0.90250 -0.21300
H 	H 	0.96490 0.76270 0.91380 0.12100
Fe	Fe	0.91576 0.04212 0.82764 1.25000
O 	O 	0.84710 0.99880 0.80157 -0.41400
O 	O 	0.90600 0.10640 0.82457 -0.37500
O 	O 	0.98080 0.08260 0.85668 -0.39700
O 	O 	0.05290 0.08330 0.83515 -0.40700
O 	O 	0.87530 0.02940 0.75499 -0.39800
N 	N 	0.91910 0.16950 0.77695 -0.22100
H 	H 	0.92520 0.14210 0.78140 0.15700
C 	C 	0.86820 0.11760 0.83556 0.15700
N 	N 	0.88860 0.22970 0.78149 -0.13100
C 	C 	0.06540 0.12360 0.88316 -0.15700
C 	C 	0.84030 0.04720 0.87617 0.13300
C 	C 	0.83640 0.09200 0.86099 -0.06900
C 	C 	0.12220 0.14060 0.88456 0.07800
C 	C 	0.84280 0.01850 0.77713 0.37800
C 	C 	0.93720 0.20170 0.75205 0.12500
C 	C 	0.03180 0.09410 0.85629 0.39800
C 	C 	0.15500 0.17280 0.90879 0.05600
C 	C 	0.79900 0.03420 0.77328 -0.14800
C 	C 	0.79760 0.10600 0.87118 -0.14500
H 	H 	0.77600 0.08770 0.88830 0.07700
C 	C 	0.86080 0.15970 0.82116 -0.03800
C 	C 	0.91820 0.23950 0.75505 0.03000
C 	C 	0.04340 0.13850 0.90646 0.02600
H 	H 	0.00490 0.12670 0.90610 0.03000
C 	C 	0.82120 0.17160 0.83259 -0.16300
H 	H 	0.81610 0.19910 0.82280 0.09500
C 	C 	0.88990 0.18690 0.79378 0.14200
C 	C 	0.75970 0.02200 0.79520 0.03200
H 	H 	0.75840 0.00100 0.81220 0.02000
C 	C 	0.78930 0.14590 0.85703 0.21800
C 	C 	0.13180 0.18690 0.93150 -0.08200
H 	H 	0.15390 0.20810 0.94790 0.06200
C 	C 	0.72130 0.04110 0.79210 -0.06400
H 	H 	0.69480 0.03320 0.80740 0.04800
C 	C 	0.74540 0.15870 0.86800 -0.60000
H 	H 	0.73380 0.14380 0.88820 0.20700
H 	H 	0.71320 0.14150 0.85460 0.19900
H 	H 	0.76060 0.19900 0.86820 0.20900
C 	C 	0.07480 0.16980 0.93030 -0.05500
H 	H 	0.05820 0.17980 0.94580 0.04400
C 	C 	0.72130 0.07140 0.76700 -0.05100
H 	H 	0.69550 0.08430 0.76520 0.05100
O 	O 	0.96396 0.05890 0.79380 -0.43400
N 	N 	0.86650 0.02170 0.86443 -0.23900
N 	N 	0.81680 0.02460 0.90250 -0.21300
H 	H 	0.79780 0.03510 0.91380 0.12100
Fe	Fe	0.12636 0.08424 0.82764 1.25000
O 	O 	0.15170 0.15290 0.80157 -0.41500
O 	O 	0.20040 0.09400 0.82457 -0.37500
O 	O 	0.10180 0.01920 0.85668 -0.39700
O 	O 	0.03040 0.94710 0.83515 -0.40700
O 	O 	0.15410 0.12470 0.75499 -0.39800
N 	N 	0.25040 0.08090 0.77695 -0.22100
H 	H 	0.21690 0.07480 0.78140 0.15700
C 	C 	0.24940 0.13180 0.83556 0.15700
N 	N 	0.34110 0.11140 0.78149 -0.13100
C 	C 	0.05820 0.93460 0.88316 -0.15700
C 	C 	0.20690 0.15970 0.87617 0.13300
C 	C 	0.25560 0.16360 0.86099 -0.06900
C 	C 	0.01840 0.87780 0.88456 0.07800
C 	C 	0.17570 0.15720 0.77713 0.37900
C 	C 	0.26450 0.06280 0.75205 0.12500
C 	C 	0.06230 0.96820 0.85629 0.39800
C 	C 	0.01780 0.84500 0.90879 0.05600
C 	C 	0.23520 0.20100 0.77328 -0.14800
C 	C 	0.30840 0.20240 0.87118 -0.14500
H 	H 	0.31170 0.22400 0.88830 0.07700
C 	C 	0.29890 0.13920 0.82116 -0.03800
C 	C 	0.32130 0.08180 0.75505 0.03000
C 	C 	0.09510 0.95660 0.90646 0.02600
H 	H 	0.12180 0.99510 0.90610 0.03000
C 	C 	0.35040 0.17880 0.83259 -0.16300
H 	H 	0.38300 0.18390 0.82280 0.09500
C 	C 	0.29700 0.11010 0.79378 0.14200
C 	C 	0.26230 0.24030 0.79520 0.03300
H 	H 	0.24260 0.24160 0.81220 0.02000
C 	C 	0.35660 0.21070 0.85703 0.21800
C 	C 	0.05510 0.86820 0.93150 -0.08200
H 	H 	0.05420 0.84610 0.94790 0.06200
C 	C 	0.31980 0.27870 0.79210 -0.06400
H 	H 	0.33840 0.30520 0.80740 0.04800
C 	C 	0.41330 0.25460 0.86800 -0.60000
H 	H 	0.41000 0.26620 0.88820 0.20700
H 	H 	0.42830 0.28680 0.85460 0.19900
H 	H 	0.43840 0.23940 0.86820 0.20900
C 	C 	0.09500 0.92520 0.93030 -0.05500
H 	H 	0.12160 0.94180 0.94580 0.04400
C 	C 	0.35010 0.27870 0.76700 -0.05100
H 	H 	0.38880 0.30450 0.76520 0.05100
O 	O 	0.09494 0.03604 0.79380 -0.43400
N 	N 	0.15520 0.13350 0.86443 -0.23800
N 	N 	0.20780 0.18320 0.90250 -0.21300
H 	H 	0.23730 0.20220 0.91380 0.12100
Fe	Fe	0.08926 0.04463 0.75000 1.26000
Fe	Fe	0.95537 0.04463 0.75000 1.26000
Fe	Fe	0.95537 0.91074 0.75000 1.26000
O 	O 	0.03520 0.07040 0.75000 -0.44200
O 	O 	0.92960 0.96480 0.75000 -0.44200
O 	O 	0.03520 0.96480 0.75000 -0.44200
Fe	Fe	0.54725 0.31429 0.57075 1.24700
Fe	Fe	0.57857 0.29987 0.49388 1.26300
Fe	Fe	0.53909 0.26214 0.41581 1.25200
O 	O 	0.63990 0.37690 0.49409 -0.44000
O 	O 	0.50810 0.22510 0.48903 -0.40100
O 	O 	0.62150 0.24710 0.57830 -0.38900
O 	O 	0.57280 0.28800 0.53741 -0.43200
O 	O 	0.52980 0.36130 0.54345 -0.40700
O 	O 	0.56310 0.26770 0.60125 -0.39200
O 	O 	0.52180 0.32650 0.49733 -0.40200
O 	O 	0.46960 0.25730 0.56821 -0.37600
O 	O 	0.57690 0.30940 0.44968 -0.42500
O 	O 	0.50430 0.19420 0.44231 -0.40400
O 	O 	0.67240 0.24160 0.38628 -0.38400
N 	N 	0.52610 0.34140 0.60829 -0.23300
O 	O 	0.47150 0.26430 0.41947 -0.38100
O 	O 	0.60560 0.25260 0.40780 -0.39700
N 	N 	0.42910 0.29310 0.46420 -0.21900
H 	H 	0.45970 0.29230 0.46040 0.16300
N 	N 	0.32050 0.15470 0.52395 -0.13300
N 	N 	0.41370 0.19660 0.52189 -0.21700
H 	H 	0.44860 0.21730 0.52740 0.15800
C 	C 	0.42370 0.25350 0.57970 0.15600
N 	N 	0.47900 0.33890 0.64897 -0.13000
C 	C 	0.47550 0.32100 0.62045 0.12100
C 	C 	0.37250 0.21790 0.56585 -0.04000
C 	C 	0.50450 0.34300 0.51856 0.38300
C 	C 	0.42400 0.24100 0.40502 0.17900
C 	C 	0.48200 0.19450 0.46726 0.37800
C 	C 	0.42370 0.28240 0.60596 -0.06200
C 	C 	0.59350 0.24570 0.60131 0.37100
N 	N 	0.34330 0.28040 0.45807 -0.13300
C 	C 	0.42550 0.35610 0.53630 0.02500
H 	H 	0.44460 0.37280 0.55430 0.03700
C 	C 	0.41870 0.31410 0.48909 0.12200
C 	C 	0.42050 0.16020 0.47002 -0.14100
N 	N 	0.50570 0.21680 0.37734 -0.23700
C 	C 	0.32280 0.23940 0.60300 0.19500
C 	C 	0.41530 0.21070 0.37800 -0.08400
C 	C 	0.32970 0.22390 0.40060 -0.15700
H 	H 	0.30000 0.22770 0.40840 0.09100
C 	C 	0.36870 0.18850 0.53760 0.14200
C 	C 	0.37360 0.27490 0.61660 -0.13600
H 	H 	0.37390 0.29470 0.63400 0.08600
C 	C 	0.59640 0.21790 0.62869 -0.12900
C 	C 	0.44980 0.33930 0.51490 -0.13900
C 	C 	0.32400 0.21180 0.57780 -0.14700
H 	H 	0.28980 0.18730 0.56820 0.08700
C 	C 	0.38690 0.12710 0.44760 0.02900
H 	H 	0.40350 0.12230 0.43010 0.03000
C 	C 	0.39460 0.16630 0.49530 0.11400
C 	C 	0.30370 0.10710 0.47380 -0.05400
H 	H 	0.26430 0.08960 0.47460 0.05100
C 	C 	0.37840 0.24520 0.41684 -0.03700
C 	C 	0.38280 0.27320 0.44580 0.14200
C 	C 	0.26810 0.23200 0.61570 -0.56700
H 	H 	0.26130 0.21440 0.63540 0.19900
H 	H 	0.23740 0.20840 0.60230 0.19100
H 	H 	0.27080 0.26840 0.61760 0.18800
C 	C 	0.56410 0.37350 0.62977 0.08100
C 	C 	0.36440 0.30630 0.48490 0.04200
C 	C 	0.33650 0.14050 0.49790 0.03400
C 	C 	0.56800 0.21680 0.65440 -0.05500
H 	H 	0.58250 0.25600 0.66050 0.05300
H 	H 	0.52860 0.20190 0.64870 0.04600
C 	C 	0.37140 0.34790 0.53100 -0.04700
H 	H 	0.35530 0.36000 0.54580 0.05000
C 	C 	0.36450 0.19050 0.36310 -0.13200
H 	H 	0.35900 0.17100 0.34480 0.06800
C 	C 	0.32930 0.10030 0.44940 -0.06100
H 	H 	0.30740 0.07690 0.43360 0.04400
N 	N 	0.45620 0.18380 0.33730 -0.21700
H 	H 	0.42790 0.17240 0.32500 0.12000
C 	C 	0.34190 0.32430 0.50640 -0.05900
H 	H 	0.30590 0.32000 0.50380 0.06100
C 	C 	0.62420 0.23720 0.38640 0.37400
C 	C 	0.32240 0.19780 0.37400 0.20200
C 	C 	0.53590 0.37290 0.65560 0.04900
C 	C 	0.56340 0.40220 0.68100 -0.08500
H 	H 	0.54410 0.40190 0.69860 0.06200
C 	C 	0.53610 0.20520 0.35692 0.07800
C 	C 	0.50460 0.18360 0.33120 0.06500
C 	C 	0.52630 0.16940 0.30700 -0.08200
H 	H 	0.50480 0.15460 0.28940 0.05800
C 	C 	0.57970 0.17690 0.30857 -0.03900
H 	H 	0.59450 0.16720 0.29200 0.04200
C 	C 	0.61120 0.19850 0.33430 0.01400
H 	H 	0.64760 0.20360 0.33540 0.04200
C 	C 	0.58940 0.21270 0.35848 -0.13000
C 	C 	0.56830 0.18860 0.67910 -0.01800
H 	H 	0.54700 0.18780 0.69590 0.03000
C 	C 	0.45850 0.20360 0.36460 0.16000
C 	C 	0.26750 0.17340 0.35670 -0.58000
H 	H 	0.23810 0.14260 0.36810 0.20100
H 	H 	0.27180 0.15980 0.33730 0.19900
H 	H 	0.25750 0.20230 0.35380 0.20000
Fe	Fe	0.68571 0.23296 0.57075 1.24700
Fe	Fe	0.70013 0.27870 0.49388 1.26300
Fe	Fe	0.73786 0.27695 0.41581 1.25200
O 	O 	0.62310 0.26300 0.49409 -0.44000
O 	O 	0.77490 0.28300 0.48903 -0.40100
O 	O 	0.75290 0.37440 0.57830 -0.38900
O 	O 	0.71200 0.28480 0.53741 -0.43200
O 	O 	0.63870 0.16850 0.54345 -0.40700
O 	O 	0.73230 0.29540 0.60125 -0.39200
O 	O 	0.67350 0.19530 0.49733 -0.40200
O 	O 	0.74270 0.21230 0.56821 -0.37600
O 	O 	0.69060 0.26750 0.44968 -0.42500
O 	O 	0.80580 0.31010 0.44231 -0.40400
O 	O 	0.75840 0.43080 0.38628 -0.38400
N 	N 	0.65860 0.18470 0.60829 -0.23300
O 	O 	0.73570 0.20720 0.41947 -0.38100
O 	O 	0.74740 0.35300 0.40780 -0.39700
N 	N 	0.70690 0.13600 0.46420 -0.21900
H 	H 	0.70770 0.16740 0.46040 0.16300
N 	N 	0.84530 0.16580 0.52395 -0.13300
N 	N 	0.80340 0.21710 0.52189 -0.21700
H 	H 	0.78270 0.23130 0.52740 0.15800
C 	C 	0.74650 0.17020 0.57970 0.15600
N 	N 	0.66110 0.14010 0.64897 -0.13000
C 	C 	0.67900 0.15450 0.62045 0.12100
C 	C 	0.78210 0.15460 0.56585 -0.04000
C 	C 	0.65700 0.16150 0.51856 0.38300
C 	C 	0.75900 0.18300 0.40502 0.17900
C 	C 	0.80550 0.28750 0.46726 0.37800
C 	C 	0.71760 0.14130 0.60596 -0.06200
C 	C 	0.75430 0.34780 0.60131 0.37100
N 	N 	0.71960 0.06290 0.45807 -0.13300
C 	C 	0.64390 0.06940 0.53630 0.02500
H 	H 	0.62720 0.07180 0.55430 0.03700
C 	C 	0.68590 0.10460 0.48909 0.12200
C 	C 	0.83980 0.26030 0.47002 -0.14100
N 	N 	0.78320 0.28890 0.37734 -0.23700
C 	C 	0.76060 0.08340 0.60300 0.19500
C 	C 	0.78930 0.20460 0.37800 -0.08400
C 	C 	0.77610 0.10580 0.40060 -0.15700
H 	H 	0.77230 0.07230 0.40840 0.09100
C 	C 	0.81150 0.18020 0.53760 0.14200
C 	C 	0.72510 0.09870 0.61660 -0.13600
H 	H 	0.70530 0.07920 0.63400 0.08500
C 	C 	0.78210 0.37850 0.62869 -0.12900
C 	C 	0.66070 0.11050 0.51490 -0.13900
C 	C 	0.78820 0.11220 0.57780 -0.14700
H 	H 	0.81270 0.10250 0.56820 0.08700
C 	C 	0.87290 0.25980 0.44760 0.02900
H 	H 	0.87770 0.28120 0.43010 0.03000
C 	C 	0.83370 0.22830 0.49530 0.11400
C 	C 	0.89290 0.19660 0.47380 -0.05400
H 	H 	0.91040 0.17470 0.47460 0.05100
C 	C 	0.75480 0.13320 0.41684 -0.03700
C 	C 	0.72680 0.10960 0.44580 0.14200
C 	C 	0.76800 0.03610 0.61570 -0.56600
H 	H 	0.78560 0.04690 0.63540 0.19900
H 	H 	0.79160 0.02900 0.60230 0.19100
H 	H 	0.73160 0.00240 0.61760 0.18800
C 	C 	0.62650 0.19060 0.62977 0.08100
C 	C 	0.69370 0.05810 0.48490 0.04200
C 	C 	0.85950 0.19600 0.49790 0.03400
C 	C 	0.78320 0.35120 0.65440 -0.05500
H 	H 	0.74400 0.32650 0.66050 0.05300
H 	H 	0.79810 0.32670 0.64870 0.04600
C 	C 	0.65210 0.02350 0.53100 -0.04700
H 	H 	0.64000 0.99530 0.54580 0.05000
C 	C 	0.80950 0.17400 0.36310 -0.13200
H 	H 	0.82900 0.18800 0.34480 0.06800
C 	C 	0.89970 0.22900 0.44940 -0.06100
H 	H 	0.92310 0.23050 0.43360 0.04400
N 	N 	0.81620 0.27240 0.33730 -0.21700
H 	H 	0.82760 0.25550 0.32500 0.12000
C 	C 	0.67570 0.01760 0.50640 -0.05800
H 	H 	0.68000 0.98590 0.50380 0.06000
C 	C 	0.76280 0.38700 0.38640 0.37400
C 	C 	0.80220 0.12460 0.37400 0.20200
C 	C 	0.62710 0.16300 0.65560 0.04900
C 	C 	0.59780 0.16120 0.68100 -0.08500
H 	H 	0.59810 0.14220 0.69860 0.06200
C 	C 	0.79480 0.33090 0.35692 0.07800
C 	C 	0.81640 0.32100 0.33120 0.06500
C 	C 	0.83060 0.35690 0.30700 -0.08200
H 	H 	0.84540 0.35020 0.28940 0.05800
C 	C 	0.82310 0.40280 0.30857 -0.03900
H 	H 	0.83280 0.42730 0.29200 0.04200
C 	C 	0.80150 0.41270 0.33430 0.01400
H 	H 	0.79640 0.44400 0.33540 0.04200
C 	C 	0.78730 0.37670 0.35848 -0.13000
C 	C 	0.81140 0.37970 0.67910 -0.01800
H 	H 	0.81220 0.35920 0.69590 0.03000
C 	C 	0.79640 0.25490 0.36460 0.16000
C 	C 	0.82660 0.09410 0.35670 -0.58000
H 	H 	0.85740 0.09550 0.36810 0.20100
H 	H 	0.84020 0.11200 0.33730 0.19900
H 	H 	0.79770 0.05520 0.35380 0.20000
Fe	Fe	0.76704 0.45275 0.57075 1.24700
Fe	Fe	0.72130 0.42143 0.49388 1.26300
Fe	Fe	0.72305 0.46091 0.41581 1.25200
O 	O 	0.73700 0.36010 0.49409 -0.44000
O 	O 	0.71700 0.49190 0.48903 -0.40100
O 	O 	0.62560 0.37850 0.57830 -0.38900
O 	O 	0.71520 0.42720 0.53741 -0.43200
O 	O 	0.83150 0.47020 0.54345 -0.40700
O 	O 	0.70460 0.43690 0.60125 -0.39200
O 	O 	0.80470 0.47820 0.49733 -0.40200
O 	O 	0.78770 0.53040 0.56821 -0.37600
O 	O 	0.73250 0.42310 0.44968 -0.42500
O 	O 	0.68990 0.49570 0.44231 -0.40400
O 	O 	0.56920 0.32760 0.38628 -0.38400
N 	N 	0.81530 0.47390 0.60829 -0.23300
O 	O 	0.79280 0.52850 0.41947 -0.38100
O 	O 	0.64700 0.39440 0.40780 -0.39700
N 	N 	0.86400 0.57090 0.46420 -0.21900
H 	H 	0.83260 0.54030 0.46040 0.16300
N 	N 	0.83420 0.67950 0.52395 -0.13300
N 	N 	0.78290 0.58630 0.52189 -0.21700
H 	H 	0.76870 0.55140 0.52740 0.15800
C 	C 	0.82980 0.57630 0.57970 0.15600
N 	N 	0.85990 0.52100 0.64897 -0.13000
C 	C 	0.84550 0.52450 0.62045 0.12100
C 	C 	0.84540 0.62750 0.56585 -0.04000
C 	C 	0.83850 0.49550 0.51856 0.38300
C 	C 	0.81700 0.57600 0.40502 0.17900
C 	C 	0.71250 0.51800 0.46726 0.37800
C 	C 	0.85870 0.57630 0.60596 -0.06200
C 	C 	0.65220 0.40650 0.60131 0.37100
N 	N 	0.93710 0.65670 0.45807 -0.13300
C 	C 	0.93060 0.57450 0.53630 0.02500
H 	H 	0.92820 0.55540 0.55430 0.03700
C 	C 	0.89540 0.58130 0.48909 0.12200
C 	C 	0.73970 0.57950 0.47002 -0.14100
N 	N 	0.71110 0.49430 0.37734 -0.23700
C 	C 	0.91660 0.67720 0.60300 0.19500
C 	C 	0.79540 0.58470 0.37800 -0.08400
C 	C 	0.89420 0.67030 0.40060 -0.15700
H 	H 	0.92770 0.70000 0.40840 0.09100
C 	C 	0.81980 0.63130 0.53760 0.14200
C 	C 	0.90130 0.62640 0.61660 -0.13600
H 	H 	0.92080 0.62610 0.63400 0.08500
C 	C 	0.62150 0.40360 0.62869 -0.12900
C 	C 	0.88950 0.55020 0.51490 -0.13900
C 	C 	0.88780 0.67600 0.57780 -0.14700
H 	H 	0.89750 0.71020 0.56820 0.08700
C 	C 	0.74020 0.61310 0.44760 0.02900
H 	H 	0.71880 0.59650 0.43010 0.03000
C 	C 	0.77170 0.60540 0.49530 0.11400
C 	C 	0.80340 0.69630 0.47380 -0.05400
H 	H 	0.82530 0.73570 0.47460 0.05100
C 	C 	0.86680 0.62160 0.41684 -0.03700
C 	C 	0.89040 0.61720 0.44580 0.14200
C 	C 	0.96390 0.73190 0.61570 -0.56600
H 	H 	0.95310 0.73870 0.63540 0.19900
H 	H 	0.97100 0.76260 0.60230 0.19100
H 	H 	0.99760 0.72920 0.61760 0.18800
C 	C 	0.80940 0.43590 0.62977 0.08100
C 	C 	0.94190 0.63560 0.48490 0.04200
C 	C 	0.80400 0.66350 0.49790 0.03400
C 	C 	0.64880 0.43200 0.65440 -0.05500
H 	H 	0.67350 0.41750 0.66050 0.05300
H 	H 	0.67330 0.47140 0.64870 0.04600
C 	C 	0.97650 0.62860 0.53100 -0.04700
H 	H 	0.00470 0.64470 0.54580 0.05000
C 	C 	0.82600 0.63550 0.36310 -0.13200
H 	H 	0.81200 0.64100 0.34480 0.06800
C 	C 	0.77100 0.67070 0.44940 -0.06100
H 	H 	0.76950 0.69260 0.43360 0.04400
N 	N 	0.72760 0.54380 0.33730 -0.21700
H 	H 	0.74450 0.57210 0.32500 0.12000
C 	C 	0.98240 0.65810 0.50640 -0.05800
H 	H 	0.01410 0.69410 0.50380 0.06000
C 	C 	0.61300 0.37580 0.38640 0.37400
C 	C 	0.87540 0.67760 0.37400 0.20200
C 	C 	0.83700 0.46410 0.65560 0.04900
C 	C 	0.83880 0.43660 0.68100 -0.08500
H 	H 	0.85780 0.45590 0.69860 0.06200
C 	C 	0.66910 0.46390 0.35692 0.07800
C 	C 	0.67900 0.49540 0.33120 0.06500
C 	C 	0.64310 0.47370 0.30700 -0.08200
H 	H 	0.64980 0.49520 0.28940 0.05800
C 	C 	0.59720 0.42030 0.30857 -0.03900
H 	H 	0.57270 0.40550 0.29200 0.04200
C 	C 	0.58730 0.38880 0.33430 0.01400
H 	H 	0.55600 0.35240 0.33540 0.04200
C 	C 	0.62330 0.41060 0.35848 -0.13000
C 	C 	0.62030 0.43170 0.67910 -0.01800
H 	H 	0.64080 0.45300 0.69590 0.03000
C 	C 	0.74510 0.54150 0.36460 0.16000
C 	C 	0.90590 0.73250 0.35670 -0.58000
H 	H 	0.90450 0.76190 0.36810 0.20100
H 	H 	0.88800 0.72820 0.33730 0.19900
H 	H 	0.94480 0.74250 0.35380 0.20000
Fe	Fe	0.68571 0.45275 0.92925 1.24700
Fe	Fe	0.70013 0.42143 0.00612 1.26300
Fe	Fe	0.73786 0.46091 0.08419 1.25200
O 	O 	0.62310 0.36010 0.00591 -0.44000
O 	O 	0.77490 0.49190 0.01097 -0.40100
O 	O 	0.75290 0.37850 0.92170 -0.38900
O 	O 	0.71200 0.42720 0.96259 -0.43200
O 	O 	0.63870 0.47020 0.95655 -0.40700
O 	O 	0.73230 0.43690 0.89875 -0.39200
O 	O 	0.67350 0.47820 0.00267 -0.40200
O 	O 	0.74270 0.53040 0.93179 -0.37600
O 	O 	0.69060 0.42310 0.05032 -0.42500
O 	O 	0.80580 0.49570 0.05769 -0.40400
O 	O 	0.75840 0.32760 0.11372 -0.38400
N 	N 	0.65860 0.47390 0.89171 -0.23300
O 	O 	0.73570 0.52850 0.08053 -0.38100
O 	O 	0.74740 0.39440 0.09220 -0.39700
N 	N 	0.70690 0.57090 0.03580 -0.21900
H 	H 	0.70770 0.54030 0.03960 0.16300
N 	N 	0.84530 0.67950 0.97605 -0.13300
N 	N 	0.80340 0.58630 0.97811 -0.21700
H 	H 	0.78270 0.55140 0.97260 0.15800
C 	C 	0.74650 0.57630 0.92030 0.15600
N 	N 	0.66110 0.52100 0.85103 -0.13000
C 	C 	0.67900 0.52450 0.87955 0.12100
C 	C 	0.78210 0.62750 0.93415 -0.04000
C 	C 	0.65700 0.49550 0.98144 0.38300
C 	C 	0.75900 0.57600 0.09498 0.17900
C 	C 	0.80550 0.51800 0.03274 0.37800
C 	C 	0.71760 0.57630 0.89404 -0.06200
C 	C 	0.75430 0.40650 0.89869 0.37100
N 	N 	0.71960 0.65670 0.04193 -0.13300
C 	C 	0.64390 0.57450 0.96370 0.02500
H 	H 	0.62720 0.55540 0.94570 0.03700
C 	C 	0.68590 0.58130 0.01091 0.12200
C 	C 	0.83980 0.57950 0.02998 -0.14100
N 	N 	0.78320 0.49430 0.12266 -0.23700
C 	C 	0.76060 0.67720 0.89700 0.19500
C 	C 	0.78930 0.58470 0.12200 -0.08400
C 	C 	0.77610 0.67030 0.09940 -0.15700
H 	H 	0.77230 0.70000 0.09160 0.09100
C 	C 	0.81150 0.63130 0.96240 0.14200
C 	C 	0.72510 0.62640 0.88340 -0.13600
H 	H 	0.70530 0.62610 0.86600 0.08600
C 	C 	0.78210 0.40360 0.87131 -0.12900
C 	C 	0.66070 0.55020 0.98510 -0.13900
C 	C 	0.78820 0.67600 0.92220 -0.14700
H 	H 	0.81270 0.71020 0.93180 0.08700
C 	C 	0.87290 0.61310 0.05240 0.02900
H 	H 	0.87770 0.59650 0.06990 0.03000
C 	C 	0.83370 0.60540 0.00470 0.11400
C 	C 	0.89290 0.69630 0.02620 -0.05400
H 	H 	0.91040 0.73570 0.02540 0.05100
C 	C 	0.75480 0.62160 0.08316 -0.03700
C 	C 	0.72680 0.61720 0.05420 0.14200
C 	C 	0.76800 0.73190 0.88430 -0.56700
H 	H 	0.78560 0.73870 0.86460 0.19900
H 	H 	0.79160 0.76260 0.89770 0.19100
H 	H 	0.73160 0.72920 0.88240 0.18800
C 	C 	0.62650 0.43590 0.87023 0.08100
C 	C 	0.69370 0.63560 0.01510 0.04200
C 	C 	0.85950 0.66350 0.00210 0.03400
C 	C 	0.78320 0.43200 0.84560 -0.05500
H 	H 	0.74400 0.41750 0.83950 0.05300
H 	H 	0.79810 0.47140 0.85130 0.04600
C 	C 	0.65210 0.62860 0.96900 -0.04700
H 	H 	0.64000 0.64470 0.95420 0.05000
C 	C 	0.80950 0.63550 0.13690 -0.13200
H 	H 	0.82900 0.64100 0.15520 0.06800
C 	C 	0.89970 0.67070 0.05060 -0.06100
H 	H 	0.92310 0.69260 0.06640 0.04400
N 	N 	0.81620 0.54380 0.16270 -0.21700
H 	H 	0.82760 0.57210 0.17500 0.12000
C 	C 	0.67570 0.65810 0.99360 -0.05900
H 	H 	0.68000 0.69410 0.99620 0.06100
C 	C 	0.76280 0.37580 0.11360 0.37400
C 	C 	0.80220 0.67760 0.12600 0.20200
C 	C 	0.62710 0.46410 0.84440 0.04900
C 	C 	0.59780 0.43660 0.81900 -0.08500
H 	H 	0.59810 0.45590 0.80140 0.06200
C 	C 	0.79480 0.46390 0.14308 0.07800
C 	C 	0.81640 0.49540 0.16880 0.06500
C 	C 	0.83060 0.47370 0.19300 -0.08200
H 	H 	0.84540 0.49520 0.21060 0.05800
C 	C 	0.82310 0.42030 0.19143 -0.03900
H 	H 	0.83280 0.40550 0.20800 0.04200
C 	C 	0.80150 0.38880 0.16570 0.01400
H 	H 	0.79640 0.35240 0.16460 0.04200
C 	C 	0.78730 0.41060 0.14152 -0.13000
C 	C 	0.81140 0.43170 0.82090 -0.01800
H 	H 	0.81220 0.45300 0.80410 0.03000
C 	C 	0.79640 0.54150 0.13540 0.16000
C 	C 	0.82660 0.73250 0.14330 -0.58000
H 	H 	0.85740 0.76190 0.13190 0.20100
H 	H 	0.84020 0.72820 0.16270 0.19900
H 	H 	0.79770 0.74250 0.14620 0.20000
Fe	Fe	0.76704 0.31429 0.92925 1.24700
Fe	Fe	0.72130 0.29987 0.00612 1.26300
Fe	Fe	0.72305 0.26214 0.08419 1.25200
O 	O 	0.73700 0.37690 0.00591 -0.44000
O 	O 	0.71700 0.22510 0.01097 -0.40100
O 	O 	0.62560 0.24710 0.92170 -0.38900
O 	O 	0.71520 0.28800 0.96259 -0.43200
O 	O 	0.83150 0.36130 0.95655 -0.40700
O 	O 	0.70460 0.26770 0.89875 -0.39200
O 	O 	0.80470 0.32650 0.00267 -0.40200
O 	O 	0.78770 0.25730 0.93179 -0.37600
O 	O 	0.73250 0.30940 0.05032 -0.42500
O 	O 	0.68990 0.19420 0.05769 -0.40400
O 	O 	0.56920 0.24160 0.11372 -0.38400
N 	N 	0.81530 0.34140 0.89171 -0.23300
O 	O 	0.79280 0.26430 0.08053 -0.38100
O 	O 	0.64700 0.25260 0.09220 -0.39700
N 	N 	0.86400 0.29310 0.03580 -0.21900
H 	H 	0.83260 0.29230 0.03960 0.16300
N 	N 	0.83420 0.15470 0.97605 -0.13300
N 	N 	0.78290 0.19660 0.97811 -0.21700
H 	H 	0.76870 0.21730 0.97260 0.15800
C 	C 	0.82980 0.25350 0.92030 0.15600
N 	N 	0.85990 0.33890 0.85103 -0.13000
C 	C 	0.84550 0.32100 0.87955 0.12100
C 	C 	0.84540 0.21790 0.93415 -0.04000
C 	C 	0.83850 0.34300 0.98144 0.38300
C 	C 	0.81700 0.24100 0.09498 0.17900
C 	C 	0.71250 0.19450 0.03274 0.37800
C 	C 	0.85870 0.28240 0.89404 -0.06200
C 	C 	0.65220 0.24570 0.89869 0.37100
N 	N 	0.93710 0.28040 0.04193 -0.13300
C 	C 	0.93060 0.35610 0.96370 0.02500
H 	H 	0.92820 0.37280 0.94570 0.03700
C 	C 	0.89540 0.31410 0.01091 0.12200
C 	C 	0.73970 0.16020 0.02998 -0.14100
N 	N 	0.71110 0.21680 0.12266 -0.23700
C 	C 	0.91660 0.23940 0.89700 0.19500
C 	C 	0.79540 0.21070 0.12200 -0.08400
C 	C 	0.89420 0.22390 0.09940 -0.15700
H 	H 	0.92770 0.22770 0.09160 0.09100
C 	C 	0.81980 0.18850 0.96240 0.14200
C 	C 	0.90130 0.27490 0.88340 -0.13600
H 	H 	0.92080 0.29470 0.86600 0.08500
C 	C 	0.62150 0.21790 0.87131 -0.12900
C 	C 	0.88950 0.33930 0.98510 -0.13900
C 	C 	0.88780 0.21180 0.92220 -0.14700
H 	H 	0.89750 0.18730 0.93180 0.08700
C 	C 	0.74020 0.12710 0.05240 0.02900
H 	H 	0.71880 0.12230 0.06990 0.03000
C 	C 	0.77170 0.16630 0.00470 0.11400
C 	C 	0.80340 0.10710 0.02620 -0.05400
H 	H 	0.82530 0.08960 0.02540 0.05100
C 	C 	0.86680 0.24520 0.08316 -0.03700
C 	C 	0.89040 0.27320 0.05420 0.14200
C 	C 	0.96390 0.23200 0.88430 -0.56600
H 	H 	0.95310 0.21440 0.86460 0.19900
H 	H 	0.97100 0.20840 0.89770 0.19100
H 	H 	0.99760 0.26840 0.88240 0.18800
C 	C 	0.80940 0.37350 0.87023 0.08100
C 	C 	0.94190 0.30630 0.01510 0.04200
C 	C 	0.80400 0.14050 0.00210 0.03400
C 	C 	0.64880 0.21680 0.84560 -0.05500
H 	H 	0.67350 0.25600 0.83950 0.05300
H 	H 	0.67330 0.20190 0.85130 0.04600
C 	C 	0.97650 0.34790 0.96900 -0.04700
H 	H 	0.00470 0.36000 0.95420 0.05000
C 	C 	0.82600 0.19050 0.13690 -0.13200
H 	H 	0.81200 0.17100 0.15520 0.06800
C 	C 	0.77100 0.10030 0.05060 -0.06100
H 	H 	0.76950 0.07690 0.06640 0.04400
N 	N 	0.72760 0.18380 0.16270 -0.21700
H 	H 	0.74450 0.17240 0.17500 0.12000
C 	C 	0.98240 0.32430 0.99360 -0.05900
H 	H 	0.01410 0.32000 0.99620 0.06000
C 	C 	0.61300 0.23720 0.11360 0.37400
C 	C 	0.87540 0.19780 0.12600 0.20200
C 	C 	0.83700 0.37290 0.84440 0.04900
C 	C 	0.83880 0.40220 0.81900 -0.08500
H 	H 	0.85780 0.40190 0.80140 0.06200
C 	C 	0.66910 0.20520 0.14308 0.07800
C 	C 	0.67900 0.18360 0.16880 0.06500
C 	C 	0.64310 0.16940 0.19300 -0.08200
H 	H 	0.64980 0.15460 0.21060 0.05800
C 	C 	0.59720 0.17690 0.19143 -0.03900
H 	H 	0.57270 0.16720 0.20800 0.04200
C 	C 	0.58730 0.19850 0.16570 0.01400
H 	H 	0.55600 0.20360 0.16460 0.04200
C 	C 	0.62330 0.21270 0.14152 -0.13000
C 	C 	0.62030 0.18860 0.82090 -0.01800
H 	H 	0.64080 0.18780 0.80410 0.03000
C 	C 	0.74510 0.20360 0.13540 0.16000
C 	C 	0.90590 0.17340 0.14330 -0.58000
H 	H 	0.90450 0.14260 0.13190 0.20100
H 	H 	0.88800 0.15980 0.16270 0.19900
H 	H 	0.94480 0.20230 0.14620 0.20000
Fe	Fe	0.54725 0.23296 0.92925 1.24700
Fe	Fe	0.57857 0.27870 0.00612 1.26300
Fe	Fe	0.53909 0.27695 0.08419 1.25200
O 	O 	0.63990 0.26300 0.00591 -0.44000
O 	O 	0.50810 0.28300 0.01097 -0.40100
O 	O 	0.62150 0.37440 0.92170 -0.38900
O 	O 	0.57280 0.28480 0.96259 -0.43200
O 	O 	0.52980 0.16850 0.95655 -0.40700
O 	O 	0.56310 0.29540 0.89875 -0.39200
O 	O 	0.52180 0.19530 0.00267 -0.40200
O 	O 	0.46960 0.21230 0.93179 -0.37600
O 	O 	0.57690 0.26750 0.05032 -0.42500
O 	O 	0.50430 0.31010 0.05769 -0.40400
O 	O 	0.67240 0.43080 0.11372 -0.38400
N 	N 	0.52610 0.18470 0.89171 -0.23300
O 	O 	0.47150 0.20720 0.08053 -0.38100
O 	O 	0.60560 0.35300 0.09220 -0.39700
N 	N 	0.42910 0.13600 0.03580 -0.21900
H 	H 	0.45970 0.16740 0.03960 0.16300
N 	N 	0.32050 0.16580 0.97605 -0.13300
N 	N 	0.41370 0.21710 0.97811 -0.21700
H 	H 	0.44860 0.23130 0.97260 0.15800
C 	C 	0.42370 0.17020 0.92030 0.15600
N 	N 	0.47900 0.14010 0.85103 -0.13000
C 	C 	0.47550 0.15450 0.87955 0.12100
C 	C 	0.37250 0.15460 0.93415 -0.04000
C 	C 	0.50450 0.16150 0.98144 0.38300
C 	C 	0.42400 0.18300 0.09498 0.17900
C 	C 	0.48200 0.28750 0.03274 0.37800
C 	C 	0.42370 0.14130 0.89404 -0.06200
C 	C 	0.59350 0.34780 0.89869 0.37100
N 	N 	0.34330 0.06290 0.04193 -0.13300
C 	C 	0.42550 0.06940 0.96370 0.02500
H 	H 	0.44460 0.07180 0.94570 0.03700
C 	C 	0.41870 0.10460 0.01091 0.12200
C 	C 	0.42050 0.26030 0.02998 -0.14100
N 	N 	0.50570 0.28890 0.12266 -0.23700
C 	C 	0.32280 0.08340 0.89700 0.19500
C 	C 	0.41530 0.20460 0.12200 -0.08400
C 	C 	0.32970 0.10580 0.09940 -0.15700
H 	H 	0.30000 0.07230 0.09160 0.09100
C 	C 	0.36870 0.18020 0.96240 0.14200
C 	C 	0.37360 0.09870 0.88340 -0.13600
H 	H 	0.37390 0.07920 0.86600 0.08500
C 	C 	0.59640 0.37850 0.87131 -0.12900
C 	C 	0.44980 0.11050 0.98510 -0.13900
C 	C 	0.32400 0.11220 0.92220 -0.14700
H 	H 	0.28980 0.10250 0.93180 0.08700
C 	C 	0.38690 0.25980 0.05240 0.02900
H 	H 	0.40350 0.28120 0.06990 0.03000
C 	C 	0.39460 0.22830 0.00470 0.11400
C 	C 	0.30370 0.19660 0.02620 -0.05400
H 	H 	0.26430 0.17470 0.02540 0.05100
C 	C 	0.37840 0.13320 0.08316 -0.03700
C 	C 	0.38280 0.10960 0.05420 0.14200
C 	C 	0.26810 0.03610 0.88430 -0.56600
H 	H 	0.26130 0.04690 0.86460 0.19900
H 	H 	0.23740 0.02900 0.89770 0.19100
H 	H 	0.27080 0.00240 0.88240 0.18800
C 	C 	0.56410 0.19060 0.87023 0.08100
C 	C 	0.36440 0.05810 0.01510 0.04200
C 	C 	0.33650 0.19600 0.00210 0.03400
C 	C 	0.56800 0.35120 0.84560 -0.05500
H 	H 	0.58250 0.32650 0.83950 0.05300
H 	H 	0.52860 0.32670 0.85130 0.04600
C 	C 	0.37140 0.02350 0.96900 -0.04700
H 	H 	0.35530 0.99530 0.95420 0.05000
C 	C 	0.36450 0.17400 0.13690 -0.13200
H 	H 	0.35900 0.18800 0.15520 0.06800
C 	C 	0.32930 0.22900 0.05060 -0.06100
H 	H 	0.30740 0.23050 0.06640 0.04400
N 	N 	0.45620 0.27240 0.16270 -0.21700
H 	H 	0.42790 0.25550 0.17500 0.12000
C 	C 	0.34190 0.01760 0.99360 -0.05900
H 	H 	0.30590 0.98590 0.99620 0.06000
C 	C 	0.62420 0.38700 0.11360 0.37400
C 	C 	0.32240 0.12460 0.12600 0.20200
C 	C 	0.53590 0.16300 0.84440 0.04900
C 	C 	0.56340 0.16120 0.81900 -0.08500
H 	H 	0.54410 0.14220 0.80140 0.06200
C 	C 	0.53610 0.33090 0.14308 0.07800
C 	C 	0.50460 0.32100 0.16880 0.06500
C 	C 	0.52630 0.35690 0.19300 -0.08200
H 	H 	0.50480 0.35020 0.21060 0.05800
C 	C 	0.57970 0.40280 0.19143 -0.03900
H 	H 	0.59450 0.42730 0.20800 0.04200
C 	C 	0.61120 0.41270 0.16570 0.01400
H 	H 	0.64760 0.44400 0.16460 0.04200
C 	C 	0.58940 0.37670 0.14152 -0.13000
C 	C 	0.56830 0.37970 0.82090 -0.01800
H 	H 	0.54700 0.35920 0.80410 0.03000
C 	C 	0.45850 0.25490 0.13540 0.16000
C 	C 	0.26750 0.09410 0.14330 -0.58000
H 	H 	0.23810 0.09550 0.13190 0.20100
H 	H 	0.27180 0.11200 0.16270 0.19900
H 	H 	0.25750 0.05520 0.14620 0.20000
Fe	Fe	0.87364 0.95788 0.32764 1.25000
O 	O 	0.84830 0.00120 0.30157 -0.41400
O 	O 	0.79960 0.89360 0.32457 -0.37500
O 	O 	0.89820 0.91740 0.35668 -0.39700
O 	O 	0.96960 0.91670 0.33515 -0.40700
O 	O 	0.84590 0.97060 0.25499 -0.39800
N 	N 	0.74960 0.83050 0.27695 -0.22100
H 	H 	0.78310 0.85790 0.28140 0.15700
C 	C 	0.75060 0.88240 0.33556 0.15700
N 	N 	0.65890 0.77030 0.28149 -0.13100
C 	C 	0.94180 0.87640 0.38316 -0.15700
C 	C 	0.79310 0.95280 0.37617 0.13300
C 	C 	0.74440 0.90800 0.36099 -0.06900
C 	C 	0.98160 0.85940 0.38456 0.07800
C 	C 	0.82430 0.98150 0.27713 0.37800
C 	C 	0.73550 0.79830 0.25205 0.12500
C 	C 	0.93770 0.90590 0.35629 0.39800
C 	C 	0.98220 0.82720 0.40879 0.05600
C 	C 	0.76480 0.96580 0.27328 -0.14800
C 	C 	0.69160 0.89400 0.37118 -0.14500
H 	H 	0.68830 0.91230 0.38830 0.07700
C 	C 	0.70110 0.84030 0.32116 -0.03800
C 	C 	0.67870 0.76050 0.25505 0.03000
C 	C 	0.90490 0.86150 0.40646 0.02600
H 	H 	0.87820 0.87330 0.40610 0.03000
C 	C 	0.64960 0.82840 0.33259 -0.16300
H 	H 	0.61700 0.80090 0.32280 0.09500
C 	C 	0.70300 0.81310 0.29378 0.14200
C 	C 	0.73770 0.97800 0.29520 0.03200
H 	H 	0.75740 0.99900 0.31220 0.02000
C 	C 	0.64340 0.85410 0.35703 0.21800
C 	C 	0.94490 0.81310 0.43150 -0.08200
H 	H 	0.94580 0.79190 0.44790 0.06200
C 	C 	0.68020 0.95890 0.29210 -0.06400
H 	H 	0.66160 0.96680 0.30740 0.04800
C 	C 	0.58670 0.84130 0.36800 -0.60000
H 	H 	0.59000 0.85620 0.38820 0.20700
H 	H 	0.57170 0.85850 0.35460 0.19900
H 	H 	0.56160 0.80100 0.36820 0.20900
C 	C 	0.90500 0.83020 0.43030 -0.05500
H 	H 	0.87840 0.82020 0.44580 0.04400
C 	C 	0.64990 0.92860 0.26700 -0.05100
H 	H 	0.61120 0.91570 0.26520 0.05100
O 	O 	0.90506 0.94110 0.29380 -0.43400
N 	N 	0.84480 0.97830 0.36443 -0.23900
N 	N 	0.79220 0.97540 0.40250 -0.21300
H 	H 	0.76270 0.96490 0.41380 0.12100
Fe	Fe	0.04212 0.91576 0.32764 1.25000
O 	O 	0.99880 0.84710 0.30157 -0.41400
O 	O 	0.10640 0.90600 0.32457 -0.37500
O 	O 	0.08260 0.98080 0.35668 -0.39700
O 	O 	0.08330 0.05290 0.33515 -0.40700
O 	O 	0.02940 0.87530 0.25499 -0.39800
N 	N 	0.16950 0.91910 0.27695 -0.22100
H 	H 	0.14210 0.92520 0.28140 0.15700
C 	C 	0.11760 0.86820 0.33556 0.15700
N 	N 	0.22970 0.88860 0.28149 -0.13100
C 	C 	0.12360 0.06540 0.38316 -0.15700
C 	C 	0.04720 0.84030 0.37617 0.13300
C 	C 	0.09200 0.83640 0.36099 -0.06900
C 	C 	0.14060 0.12220 0.38456 0.07800
C 	C 	0.01850 0.84280 0.27713 0.37800
C 	C 	0.20170 0.93720 0.25205 0.12500
C 	C 	0.09410 0.03180 0.35629 0.39800
C 	C 	0.17280 0.15500 0.40879 0.05600
C 	C 	0.03420 0.79900 0.27328 -0.14800
C 	C 	0.10600 0.79760 0.37118 -0.14500
H 	H 	0.08770 0.77600 0.38830 0.07700
C 	C 	0.15970 0.86080 0.32116 -0.03800
C 	C 	0.23950 0.91820 0.25505 0.03000
C 	C 	0.13850 0.04340 0.40646 0.02600
H 	H 	0.12670 0.00490 0.40610 0.03000
C 	C 	0.17160 0.82120 0.33259 -0.16300
H 	H 	0.19910 0.81610 0.32280 0.09500
C 	C 	0.18690 0.88990 0.29378 0.14200
C 	C 	0.02200 0.75970 0.29520 0.03200
H 	H 	0.00100 0.75840 0.31220 0.02000
C 	C 	0.14590 0.78930 0.35703 0.21800
C 	C 	0.18690 0.13180 0.43150 -0.08200
H 	H 	0.20810 0.15390 0.44790 0.06200
C 	C 	0.04110 0.72130 0.29210 -0.06400
H 	H 	0.03320 0.69480 0.30740 0.04800
C 	C 	0.15870 0.74540 0.36800 -0.60000
H 	H 	0.14380 0.73380 0.38820 0.20700
H 	H 	0.14150 0.71320 0.35460 0.19900
H 	H 	0.19900 0.76060 0.36820 0.20900
C 	C 	0.16980 0.07480 0.43030 -0.05500
H 	H 	0.17980 0.05820 0.44580 0.04400
C 	C 	0.07140 0.72130 0.26700 -0.05100
H 	H 	0.08430 0.69550 0.26520 0.05100
O 	O 	0.05890 0.96396 0.29380 -0.43400
N 	N 	0.02170 0.86650 0.36443 -0.23900
N 	N 	0.02460 0.81680 0.40250 -0.21300
H 	H 	0.03510 0.79780 0.41380 0.12100
Fe	Fe	0.08424 0.12636 0.32764 1.25000
O 	O 	0.15290 0.15170 0.30157 -0.41500
O 	O 	0.09400 0.20040 0.32457 -0.37500
O 	O 	0.01920 0.10180 0.35668 -0.39700
O 	O 	0.94710 0.03040 0.33515 -0.40700
O 	O 	0.12470 0.15410 0.25499 -0.39800
N 	N 	0.08090 0.25040 0.27695 -0.22100
H 	H 	0.07480 0.21690 0.28140 0.15700
C 	C 	0.13180 0.24940 0.33556 0.15700
N 	N 	0.11140 0.34110 0.28149 -0.13100
C 	C 	0.93460 0.05820 0.38316 -0.15700
C 	C 	0.15970 0.20690 0.37617 0.13300
C 	C 	0.16360 0.25560 0.36099 -0.06900
C 	C 	0.87780 0.01840 0.38456 0.07800
C 	C 	0.15720 0.17570 0.27713 0.37900
C 	C 	0.06280 0.26450 0.25205 0.12500
C 	C 	0.96820 0.06230 0.35629 0.39800
C 	C 	0.84500 0.01780 0.40879 0.05600
C 	C 	0.20100 0.23520 0.27328 -0.14800
C 	C 	0.20240 0.30840 0.37118 -0.14500
H 	H 	0.22400 0.31170 0.38830 0.07700
C 	C 	0.13920 0.29890 0.32116 -0.03800
C 	C 	0.08180 0.32130 0.25505 0.03000
C 	C 	0.95660 0.09510 0.40646 0.02600
H 	H 	0.99510 0.12180 0.40610 0.03000
C 	C 	0.17880 0.35040 0.33259 -0.16300
H 	H 	0.18390 0.38300 0.32280 0.09500
C 	C 	0.11010 0.29700 0.29378 0.14200
C 	C 	0.24030 0.26230 0.29520 0.03300
H 	H 	0.24160 0.24260 0.31220 0.02000
C 	C 	0.21070 0.35660 0.35703 0.21800
C 	C 	0.86820 0.05510 0.43150 -0.08200
H 	H 	0.84610 0.05420 0.44790 0.06200
C 	C 	0.27870 0.31980 0.29210 -0.06400
H 	H 	0.30520 0.33840 0.30740 0.04800
C 	C 	0.25460 0.41330 0.36800 -0.60000
H 	H 	0.26620 0.41000 0.38820 0.20700
H 	H 	0.28680 0.42830 0.35460 0.19900
H 	H 	0.23940 0.43840 0.36820 0.20900
C 	C 	0.92520 0.09500 0.43030 -0.05500
H 	H 	0.94180 0.12160 0.44580 0.04400
C 	C 	0.27870 0.35010 0.26700 -0.05100
H 	H 	0.30450 0.38880 0.26520 0.05100
O 	O 	0.03604 0.09494 0.29380 -0.43400
N 	N 	0.13350 0.15520 0.36443 -0.23800
N 	N 	0.18320 0.20780 0.40250 -0.21300
H 	H 	0.20220 0.23730 0.41380 0.12100
Fe	Fe	0.04212 0.12636 0.17236 1.25000
O 	O 	0.99880 0.15170 0.19843 -0.41400
O 	O 	0.10640 0.20040 0.17543 -0.37500
O 	O 	0.08260 0.10180 0.14332 -0.39700
O 	O 	0.08330 0.03040 0.16485 -0.40700
O 	O 	0.02940 0.15410 0.24501 -0.39800
N 	N 	0.16950 0.25040 0.22305 -0.22100
H 	H 	0.14210 0.21690 0.21860 0.15700
C 	C 	0.11760 0.24940 0.16444 0.15700
N 	N 	0.22970 0.34110 0.21851 -0.13100
C 	C 	0.12360 0.05820 0.11684 -0.15700
C 	C 	0.04720 0.20690 0.12383 0.13300
C 	C 	0.09200 0.25560 0.13901 -0.06900
C 	C 	0.14060 0.01840 0.11544 0.07800
C 	C 	0.01850 0.17570 0.22287 0.37800
C 	C 	0.20170 0.26450 0.24795 0.12500
C 	C 	0.09410 0.06230 0.14371 0.39800
C 	C 	0.17280 0.01780 0.09121 0.05600
C 	C 	0.03420 0.23520 0.22672 -0.14800
C 	C 	0.10600 0.30840 0.12882 -0.14500
H 	H 	0.08770 0.31170 0.11170 0.07700
C 	C 	0.15970 0.29890 0.17884 -0.03800
C 	C 	0.23950 0.32130 0.24495 0.03000
C 	C 	0.13850 0.09510 0.09354 0.02600
H 	H 	0.12670 0.12180 0.09390 0.03000
C 	C 	0.17160 0.35040 0.16741 -0.16300
H 	H 	0.19910 0.38300 0.17720 0.09500
C 	C 	0.18690 0.29700 0.20622 0.14200
C 	C 	0.02200 0.26230 0.20480 0.03200
H 	H 	0.00100 0.24260 0.18780 0.02000
C 	C 	0.14590 0.35660 0.14297 0.21800
C 	C 	0.18690 0.05510 0.06850 -0.08200
H 	H 	0.20810 0.05420 0.05210 0.06200
C 	C 	0.04110 0.31980 0.20790 -0.06400
H 	H 	0.03320 0.33840 0.19260 0.04800
C 	C 	0.15870 0.41330 0.13200 -0.60000
H 	H 	0.14380 0.41000 0.11180 0.20700
H 	H 	0.14150 0.42830 0.14540 0.19900
H 	H 	0.19900 0.43840 0.13180 0.20900
C 	C 	0.16980 0.09500 0.06970 -0.05500
H 	H 	0.17980 0.12160 0.05420 0.04400
C 	C 	0.07140 0.35010 0.23300 -0.05100
H 	H 	0.08430 0.38880 0.23480 0.05100
O 	O 	0.05890 0.09494 0.20620 -0.43400
N 	N 	0.02170 0.15520 0.13557 -0.23900
N 	N 	0.02460 0.20780 0.09750 -0.21300
H 	H 	0.03510 0.23730 0.08620 0.12100
Fe	Fe	0.08424 0.95788 0.17236 1.25000
O 	O 	0.15290 0.00120 0.19843 -0.41400
O 	O 	0.09400 0.89360 0.17543 -0.37500
O 	O 	0.01920 0.91740 0.14332 -0.39700
O 	O 	0.94710 0.91670 0.16485 -0.40700
O 	O 	0.12470 0.97060 0.24501 -0.39800
N 	N 	0.08090 0.83050 0.22305 -0.22100
H 	H 	0.07480 0.85790 0.21860 0.15700
C 	C 	0.13180 0.88240 0.16444 0.15700
N 	N 	0.11140 0.77030 0.21851 -0.13100
C 	C 	0.93460 0.87640 0.11684 -0.15700
C 	C 	0.15970 0.95280 0.12383 0.13300
C 	C 	0.16360 0.90800 0.13901 -0.06900
C 	C 	0.87780 0.85940 0.11544 0.07800
C 	C 	0.15720 0.98150 0.22287 0.37800
C 	C 	0.06280 0.79830 0.24795 0.12500
C 	C 	0.96820 0.90590 0.14371 0.39800
C 	C 	0.84500 0.82720 0.09121 0.05600
C 	C 	0.20100 0.96580 0.22672 -0.14800
C 	C 	0.20240 0.89400 0.12882 -0.14500
H 	H 	0.22400 0.91230 0.11170 0.07700
C 	C 	0.13920 0.84030 0.17884 -0.03800
C 	C 	0.08180 0.76050 0.24495 0.03000
C 	C 	0.95660 0.86150 0.09354 0.02600
H 	H 	0.99510 0.87330 0.09390 0.03000
C 	C 	0.17880 0.82840 0.16741 -0.16300
H 	H 	0.18390 0.80090 0.17720 0.09500
C 	C 	0.11010 0.81310 0.20622 0.14200
C 	C 	0.24030 0.97800 0.20480 0.03200
H 	H 	0.24160 0.99900 0.18780 0.02000
C 	C 	0.21070 0.85410 0.14297 0.21800
C 	C 	0.86820 0.81310 0.06850 -0.08200
H 	H 	0.84610 0.79190 0.05210 0.06200
C 	C 	0.27870 0.95890 0.20790 -0.06400
H 	H 	0.30520 0.96680 0.19260 0.04800
C 	C 	0.25460 0.84130 0.13200 -0.60000
H 	H 	0.26620 0.85620 0.11180 0.20700
H 	H 	0.28680 0.85850 0.14540 0.19900
H 	H 	0.23940 0.80100 0.13180 0.20900
C 	C 	0.92520 0.83020 0.06970 -0.05500
H 	H 	0.94180 0.82020 0.05420 0.04400
C 	C 	0.27870 0.92860 0.23300 -0.05100
H 	H 	0.30450 0.91570 0.23480 0.05100
O 	O 	0.03604 0.94110 0.20620 -0.43400
N 	N 	0.13350 0.97830 0.13557 -0.23900
N 	N 	0.18320 0.97540 0.09750 -0.21300
H 	H 	0.20220 0.96490 0.08620 0.12100
Fe	Fe	0.87364 0.91576 0.17236 1.25000
O 	O 	0.84830 0.84710 0.19843 -0.41500
O 	O 	0.79960 0.90600 0.17543 -0.37500
O 	O 	0.89820 0.98080 0.14332 -0.39700
O 	O 	0.96960 0.05290 0.16485 -0.40700
O 	O 	0.84590 0.87530 0.24501 -0.39800
N 	N 	0.74960 0.91910 0.22305 -0.22100
H 	H 	0.78310 0.92520 0.21860 0.15700
C 	C 	0.75060 0.86820 0.16444 0.15700
N 	N 	0.65890 0.88860 0.21851 -0.13100
C 	C 	0.94180 0.06540 0.11684 -0.15700
C 	C 	0.79310 0.84030 0.12383 0.13300
C 	C 	0.74440 0.83640 0.13901 -0.06900
C 	C 	0.98160 0.12220 0.11544 0.07800
C 	C 	0.82430 0.84280 0.22287 0.37900
C 	C 	0.73550 0.93720 0.24795 0.12500
C 	C 	0.93770 0.03180 0.14371 0.39800
C 	C 	0.98220 0.15500 0.09121 0.05600
C 	C 	0.76480 0.79900 0.22672 -0.14800
C 	C 	0.69160 0.79760 0.12882 -0.14500
H 	H 	0.68830 0.77600 0.11170 0.07700
C 	C 	0.70110 0.86080 0.17884 -0.03800
C 	C 	0.67870 0.91820 0.24495 0.03000
C 	C 	0.90490 0.04340 0.09354 0.02600
H 	H 	0.87820 0.00490 0.09390 0.03000
C 	C 	0.64960 0.82120 0.16741 -0.16300
H 	H 	0.61700 0.81610 0.17720 0.09500
C 	C 	0.70300 0.88990 0.20622 0.14200
C 	C 	0.73770 0.75970 0.20480 0.03300
H 	H 	0.75740 0.75840 0.18780 0.02000
C 	C 	0.64340 0.78930 0.14297 0.21800
C 	C 	0.94490 0.13180 0.06850 -0.08200
H 	H 	0.94580 0.15390 0.05210 0.06200
C 	C 	0.68020 0.72130 0.20790 -0.06400
H 	H 	0.66160 0.69480 0.19260 0.04800
C 	C 	0.58670 0.74540 0.13200 -0.60000
H 	H 	0.59000 0.73380 0.11180 0.20700
H 	H 	0.57170 0.71320 0.14540 0.19900
H 	H 	0.56160 0.76060 0.13180 0.20900
C 	C 	0.90500 0.07480 0.06970 -0.05500
H 	H 	0.87840 0.05820 0.05420 0.04400
C 	C 	0.64990 0.72130 0.23300 -0.05100
H 	H 	0.61120 0.69550 0.23480 0.05100
O 	O 	0.90506 0.96396 0.20620 -0.43400
N 	N 	0.84480 0.86650 0.13557 -0.23800
N 	N 	0.79220 0.81680 0.09750 -0.21300
H 	H 	0.76270 0.79780 0.08620 0.12100
Fe	Fe	0.91074 0.95537 0.25000 1.26000
Fe	Fe	0.04463 0.95537 0.25000 1.26000
Fe	Fe	0.04463 0.08926 0.25000 1.26000
O 	O 	0.96480 0.92960 0.25000 -0.44200
O 	O 	0.07040 0.03520 0.25000 -0.44200
O 	O 	0.96480 0.03520 0.25000 -0.44200
Fe	Fe	0.45275 0.68571 0.42925 1.24700
Fe	Fe	0.42143 0.70013 0.50612 1.26300
Fe	Fe	0.46091 0.73786 0.58419 1.25200
O 	O 	0.36010 0.62310 0.50591 -0.44000
O 	O 	0.49190 0.77490 0.51097 -0.40100
O 	O 	0.37850 0.75290 0.42170 -0.38900
O 	O 	0.42720 0.71200 0.46259 -0.43200
O 	O 	0.47020 0.63870 0.45655 -0.40700
O 	O 	0.43690 0.73230 0.39875 -0.39200
O 	O 	0.47820 0.67350 0.50267 -0.40200
O 	O 	0.53040 0.74270 0.43179 -0.37600
O 	O 	0.42310 0.69060 0.55032 -0.42500
O 	O 	0.49570 0.80580 0.55769 -0.40400
O 	O 	0.32760 0.75840 0.61372 -0.38400
N 	N 	0.47390 0.65860 0.39171 -0.23300
O 	O 	0.52850 0.73570 0.58053 -0.38100
O 	O 	0.39440 0.74740 0.59220 -0.39700
N 	N 	0.57090 0.70690 0.53580 -0.21900
H 	H 	0.54030 0.70770 0.53960 0.16300
N 	N 	0.67950 0.84530 0.47605 -0.13300
N 	N 	0.58630 0.80340 0.47811 -0.21700
H 	H 	0.55140 0.78270 0.47260 0.15800
C 	C 	0.57630 0.74650 0.42030 0.15600
N 	N 	0.52100 0.66110 0.35103 -0.13000
C 	C 	0.52450 0.67900 0.37955 0.12100
C 	C 	0.62750 0.78210 0.43415 -0.04000
C 	C 	0.49550 0.65700 0.48144 0.38300
C 	C 	0.57600 0.75900 0.59498 0.17900
C 	C 	0.51800 0.80550 0.53274 0.37800
C 	C 	0.57630 0.71760 0.39404 -0.06200
C 	C 	0.40650 0.75430 0.39869 0.37100
N 	N 	0.65670 0.71960 0.54193 -0.13300
C 	C 	0.57450 0.64390 0.46370 0.02500
H 	H 	0.55540 0.62720 0.44570 0.03700
C 	C 	0.58130 0.68590 0.51091 0.12200
C 	C 	0.57950 0.83980 0.52998 -0.14100
N 	N 	0.49430 0.78320 0.62266 -0.23700
C 	C 	0.67720 0.76060 0.39700 0.19500
C 	C 	0.58470 0.78930 0.62200 -0.08400
C 	C 	0.67030 0.77610 0.59940 -0.15700
H 	H 	0.70000 0.77230 0.59160 0.09100
C 	C 	0.63130 0.81150 0.46240 0.14200
C 	C 	0.62640 0.72510 0.38340 -0.13600
H 	H 	0.62610 0.70530 0.36600 0.08600
C 	C 	0.40360 0.78210 0.37131 -0.12900
C 	C 	0.55020 0.66070 0.48510 -0.13900
C 	C 	0.67600 0.78820 0.42220 -0.14700
H 	H 	0.71020 0.81270 0.43180 0.08700
C 	C 	0.61310 0.87290 0.55240 0.02900
H 	H 	0.59650 0.87770 0.56990 0.03000
C 	C 	0.60540 0.83370 0.50470 0.11400
C 	C 	0.69630 0.89290 0.52620 -0.05400
H 	H 	0.73570 0.91040 0.52540 0.05100
C 	C 	0.62160 0.75480 0.58316 -0.03700
C 	C 	0.61720 0.72680 0.55420 0.14200
C 	C 	0.73190 0.76800 0.38430 -0.56700
H 	H 	0.73870 0.78560 0.36460 0.19900
H 	H 	0.76260 0.79160 0.39770 0.19100
H 	H 	0.72920 0.73160 0.38240 0.18800
C 	C 	0.43590 0.62650 0.37023 0.08100
C 	C 	0.63560 0.69370 0.51510 0.04200
C 	C 	0.66350 0.85950 0.50210 0.03400
C 	C 	0.43200 0.78320 0.34560 -0.05500
H 	H 	0.41750 0.74400 0.33950 0.05300
H 	H 	0.47140 0.79810 0.35130 0.04600
C 	C 	0.62860 0.65210 0.46900 -0.04700
H 	H 	0.64470 0.64000 0.45420 0.05000
C 	C 	0.63550 0.80950 0.63690 -0.13200
H 	H 	0.64100 0.82900 0.65520 0.06800
C 	C 	0.67070 0.89970 0.55060 -0.06100
H 	H 	0.69260 0.92310 0.56640 0.04400
N 	N 	0.54380 0.81620 0.66270 -0.21700
H 	H 	0.57210 0.82760 0.67500 0.12000
C 	C 	0.65810 0.67570 0.49360 -0.05900
H 	H 	0.69410 0.68000 0.49620 0.06100
C 	C 	0.37580 0.76280 0.61360 0.37400
C 	C 	0.67760 0.80220 0.62600 0.20200
C 	C 	0.46410 0.62710 0.34440 0.04900
C 	C 	0.43660 0.59780 0.31900 -0.08500
H 	H 	0.45590 0.59810 0.30140 0.06200
C 	C 	0.46390 0.79480 0.64308 0.07800
C 	C 	0.49540 0.81640 0.66880 0.06500
C 	C 	0.47370 0.83060 0.69300 -0.08200
H 	H 	0.49520 0.84540 0.71060 0.05800
C 	C 	0.42030 0.82310 0.69143 -0.03900
H 	H 	0.40550 0.83280 0.70800 0.04200
C 	C 	0.38880 0.80150 0.66570 0.01400
H 	H 	0.35240 0.79640 0.66460 0.04200
C 	C 	0.41060 0.78730 0.64152 -0.13000
C 	C 	0.43170 0.81140 0.32090 -0.01800
H 	H 	0.45300 0.81220 0.30410 0.03000
C 	C 	0.54150 0.79640 0.63540 0.16000
C 	C 	0.73250 0.82660 0.64330 -0.58000
H 	H 	0.76190 0.85740 0.63190 0.20100
H 	H 	0.72820 0.84020 0.66270 0.19900
H 	H 	0.74250 0.79770 0.64620 0.20000
Fe	Fe	0.31429 0.76704 0.42925 1.24700
Fe	Fe	0.29987 0.72130 0.50612 1.26300
Fe	Fe	0.26214 0.72305 0.58419 1.25200
O 	O 	0.37690 0.73700 0.50591 -0.44000
O 	O 	0.22510 0.71700 0.51097 -0.40100
O 	O 	0.24710 0.62560 0.42170 -0.38900
O 	O 	0.28800 0.71520 0.46259 -0.43200
O 	O 	0.36130 0.83150 0.45655 -0.40700
O 	O 	0.26770 0.70460 0.39875 -0.39200
O 	O 	0.32650 0.80470 0.50267 -0.40200
O 	O 	0.25730 0.78770 0.43179 -0.37600
O 	O 	0.30940 0.73250 0.55032 -0.42500
O 	O 	0.19420 0.68990 0.55769 -0.40400
O 	O 	0.24160 0.56920 0.61372 -0.38400
N 	N 	0.34140 0.81530 0.39171 -0.23300
O 	O 	0.26430 0.79280 0.58053 -0.38100
O 	O 	0.25260 0.64700 0.59220 -0.39700
N 	N 	0.29310 0.86400 0.53580 -0.21900
H 	H 	0.29230 0.83260 0.53960 0.16300
N 	N 	0.15470 0.83420 0.47605 -0.13300
N 	N 	0.19660 0.78290 0.47811 -0.21700
H 	H 	0.21730 0.76870 0.47260 0.15800
C 	C 	0.25350 0.82980 0.42030 0.15600
N 	N 	0.33890 0.85990 0.35103 -0.13000
C 	C 	0.32100 0.84550 0.37955 0.12100
C 	C 	0.21790 0.84540 0.43415 -0.04000
C 	C 	0.34300 0.83850 0.48144 0.38300
C 	C 	0.24100 0.81700 0.59498 0.17900
C 	C 	0.19450 0.71250 0.53274 0.37800
C 	C 	0.28240 0.85870 0.39404 -0.06200
C 	C 	0.24570 0.65220 0.39869 0.37100
N 	N 	0.28040 0.93710 0.54193 -0.13300
C 	C 	0.35610 0.93060 0.46370 0.02500
H 	H 	0.37280 0.92820 0.44570 0.03700
C 	C 	0.31410 0.89540 0.51091 0.12200
C 	C 	0.16020 0.73970 0.52998 -0.14100
N 	N 	0.21680 0.71110 0.62266 -0.23700
C 	C 	0.23940 0.91660 0.39700 0.19500
C 	C 	0.21070 0.79540 0.62200 -0.08400
C 	C 	0.22390 0.89420 0.59940 -0.15700
H 	H 	0.22770 0.92770 0.59160 0.09100
C 	C 	0.18850 0.81980 0.46240 0.14200
C 	C 	0.27490 0.90130 0.38340 -0.13600
H 	H 	0.29470 0.92080 0.36600 0.08500
C 	C 	0.21790 0.62150 0.37131 -0.12900
C 	C 	0.33930 0.88950 0.48510 -0.13900
C 	C 	0.21180 0.88780 0.42220 -0.14700
H 	H 	0.18730 0.89750 0.43180 0.08700
C 	C 	0.12710 0.74020 0.55240 0.02900
H 	H 	0.12230 0.71880 0.56990 0.03000
C 	C 	0.16630 0.77170 0.50470 0.11400
C 	C 	0.10710 0.80340 0.52620 -0.05400
H 	H 	0.08960 0.82530 0.52540 0.05100
C 	C 	0.24520 0.86680 0.58316 -0.03700
C 	C 	0.27320 0.89040 0.55420 0.14200
C 	C 	0.23200 0.96390 0.38430 -0.56600
H 	H 	0.21440 0.95310 0.36460 0.19900
H 	H 	0.20840 0.97100 0.39770 0.19100
H 	H 	0.26840 0.99760 0.38240 0.18800
C 	C 	0.37350 0.80940 0.37023 0.08100
C 	C 	0.30630 0.94190 0.51510 0.04200
C 	C 	0.14050 0.80400 0.50210 0.03400
C 	C 	0.21680 0.64880 0.34560 -0.05500
H 	H 	0.25600 0.67350 0.33950 0.05300
H 	H 	0.20190 0.67330 0.35130 0.04600
C 	C 	0.34790 0.97650 0.46900 -0.04700
H 	H 	0.36000 0.00470 0.45420 0.05000
C 	C 	0.19050 0.82600 0.63690 -0.13200
H 	H 	0.17100 0.81200 0.65520 0.06800
C 	C 	0.10030 0.77100 0.55060 -0.06100
H 	H 	0.07690 0.76950 0.56640 0.04400
N 	N 	0.18380 0.72760 0.66270 -0.21700
H 	H 	0.17240 0.74450 0.67500 0.12000
C 	C 	0.32430 0.98240 0.49360 -0.05800
H 	H 	0.32000 0.01410 0.49620 0.06000
C 	C 	0.23720 0.61300 0.61360 0.37400
C 	C 	0.19780 0.87540 0.62600 0.20200
C 	C 	0.37290 0.83700 0.34440 0.04900
C 	C 	0.40220 0.83880 0.31900 -0.08500
H 	H 	0.40190 0.85780 0.30140 0.06200
C 	C 	0.20520 0.66910 0.64308 0.07800
C 	C 	0.18360 0.67900 0.66880 0.06500
C 	C 	0.16940 0.64310 0.69300 -0.08200
H 	H 	0.15460 0.64980 0.71060 0.05800
C 	C 	0.17690 0.59720 0.69143 -0.03900
H 	H 	0.16720 0.57270 0.70800 0.04200
C 	C 	0.19850 0.58730 0.66570 0.01400
H 	H 	0.20360 0.55600 0.66460 0.04200
C 	C 	0.21270 0.62330 0.64152 -0.13000
C 	C 	0.18860 0.62030 0.32090 -0.01800
H 	H 	0.18780 0.64080 0.30410 0.03000
C 	C 	0.20360 0.74510 0.63540 0.16000
C 	C 	0.17340 0.90590 0.64330 -0.58000
H 	H 	0.14260 0.90450 0.63190 0.20100
H 	H 	0.15980 0.88800 0.66270 0.19900
H 	H 	0.20230 0.94480 0.64620 0.20000
Fe	Fe	0.23296 0.54725 0.42925 1.24700
Fe	Fe	0.27870 0.57857 0.50612 1.26300
Fe	Fe	0.27695 0.53909 0.58419 1.25200
O 	O 	0.26300 0.63990 0.50591 -0.44000
O 	O 	0.28300 0.50810 0.51097 -0.40100
O 	O 	0.37440 0.62150 0.42170 -0.38900
O 	O 	0.28480 0.57280 0.46259 -0.43200
O 	O 	0.16850 0.52980 0.45655 -0.40700
O 	O 	0.29540 0.56310 0.39875 -0.39200
O 	O 	0.19530 0.52180 0.50267 -0.40200
O 	O 	0.21230 0.46960 0.43179 -0.37600
O 	O 	0.26750 0.57690 0.55032 -0.42500
O 	O 	0.31010 0.50430 0.55769 -0.40400
O 	O 	0.43080 0.67240 0.61372 -0.38400
N 	N 	0.18470 0.52610 0.39171 -0.23300
O 	O 	0.20720 0.47150 0.58053 -0.38100
O 	O 	0.35300 0.60560 0.59220 -0.39700
N 	N 	0.13600 0.42910 0.53580 -0.21900
H 	H 	0.16740 0.45970 0.53960 0.16300
N 	N 	0.16580 0.32050 0.47605 -0.13300
N 	N 	0.21710 0.41370 0.47811 -0.21700
H 	H 	0.23130 0.44860 0.47260 0.15800
C 	C 	0.17020 0.42370 0.42030 0.15600
N 	N 	0.14010 0.47900 0.35103 -0.13000
C 	C 	0.15450 0.47550 0.37955 0.12100
C 	C 	0.15460 0.37250 0.43415 -0.04000
C 	C 	0.16150 0.50450 0.48144 0.38300
C 	C 	0.18300 0.42400 0.59498 0.17900
C 	C 	0.28750 0.48200 0.53274 0.37800
C 	C 	0.14130 0.42370 0.39404 -0.06200
C 	C 	0.34780 0.59350 0.39869 0.37100
N 	N 	0.06290 0.34330 0.54193 -0.13300
C 	C 	0.06940 0.42550 0.46370 0.02500
H 	H 	0.07180 0.44460 0.44570 0.03700
C 	C 	0.10460 0.41870 0.51091 0.12200
C 	C 	0.26030 0.42050 0.52998 -0.14100
N 	N 	0.28890 0.50570 0.62266 -0.23700
C 	C 	0.08340 0.32280 0.39700 0.19500
C 	C 	0.20460 0.41530 0.62200 -0.08400
C 	C 	0.10580 0.32970 0.59940 -0.15700
H 	H 	0.07230 0.30000 0.59160 0.09100
C 	C 	0.18020 0.36870 0.46240 0.14200
C 	C 	0.09870 0.37360 0.38340 -0.13600
H 	H 	0.07920 0.37390 0.36600 0.08500
C 	C 	0.37850 0.59640 0.37131 -0.12900
C 	C 	0.11050 0.44980 0.48510 -0.13900
C 	C 	0.11220 0.32400 0.42220 -0.14700
H 	H 	0.10250 0.28980 0.43180 0.08700
C 	C 	0.25980 0.38690 0.55240 0.02900
H 	H 	0.28120 0.40350 0.56990 0.03000
C 	C 	0.22830 0.39460 0.50470 0.11400
C 	C 	0.19660 0.30370 0.52620 -0.05400
H 	H 	0.17470 0.26430 0.52540 0.05100
C 	C 	0.13320 0.37840 0.58316 -0.03700
C 	C 	0.10960 0.38280 0.55420 0.14200
C 	C 	0.03610 0.26810 0.38430 -0.56600
H 	H 	0.04690 0.26130 0.36460 0.19900
H 	H 	0.02900 0.23740 0.39770 0.19100
H 	H 	0.00240 0.27080 0.38240 0.18800
C 	C 	0.19060 0.56410 0.37023 0.08100
C 	C 	0.05810 0.36440 0.51510 0.04200
C 	C 	0.19600 0.33650 0.50210 0.03400
C 	C 	0.35120 0.56800 0.34560 -0.05500
H 	H 	0.32650 0.58250 0.33950 0.05300
H 	H 	0.32670 0.52860 0.35130 0.04600
C 	C 	0.02350 0.37140 0.46900 -0.04700
H 	H 	0.99530 0.35530 0.45420 0.05000
C 	C 	0.17400 0.36450 0.63690 -0.13200
H 	H 	0.18800 0.35900 0.65520 0.06800
C 	C 	0.22900 0.32930 0.55060 -0.06100
H 	H 	0.23050 0.30740 0.56640 0.04400
N 	N 	0.27240 0.45620 0.66270 -0.21700
H 	H 	0.25550 0.42790 0.67500 0.12000
C 	C 	0.01760 0.34190 0.49360 -0.05800
H 	H 	0.98590 0.30590 0.49620 0.06000
C 	C 	0.38700 0.62420 0.61360 0.37400
C 	C 	0.12460 0.32240 0.62600 0.20200
C 	C 	0.16300 0.53590 0.34440 0.04900
C 	C 	0.16120 0.56340 0.31900 -0.08500
H 	H 	0.14220 0.54410 0.30140 0.06200
C 	C 	0.33090 0.53610 0.64308 0.07800
C 	C 	0.32100 0.50460 0.66880 0.06500
C 	C 	0.35690 0.52630 0.69300 -0.08200
H 	H 	0.35020 0.50480 0.71060 0.05800
C 	C 	0.40280 0.57970 0.69143 -0.03900
H 	H 	0.42730 0.59450 0.70800 0.04200
C 	C 	0.41270 0.61120 0.66570 0.01400
H 	H 	0.44400 0.64760 0.66460 0.04200
C 	C 	0.37670 0.58940 0.64152 -0.13000
C 	C 	0.37970 0.56830 0.32090 -0.01800
H 	H 	0.35920 0.54700 0.30410 0.03000
C 	C 	0.25490 0.45850 0.63540 0.16000
C 	C 	0.09410 0.26750 0.64330 -0.58000
H 	H 	0.09550 0.23810 0.63190 0.20100
H 	H 	0.11200 0.27180 0.66270 0.19900
H 	H 	0.05520 0.25750 0.64620 0.20000
Fe	Fe	0.31429 0.54725 0.07075 1.24700
Fe	Fe	0.29987 0.57857 0.99388 1.26300
Fe	Fe	0.26214 0.53909 0.91581 1.25200
O 	O 	0.37690 0.63990 0.99409 -0.44000
O 	O 	0.22510 0.50810 0.98903 -0.40100
O 	O 	0.24710 0.62150 0.07830 -0.38900
O 	O 	0.28800 0.57280 0.03741 -0.43200
O 	O 	0.36130 0.52980 0.04345 -0.40700
O 	O 	0.26770 0.56310 0.10125 -0.39200
O 	O 	0.32650 0.52180 0.99733 -0.40200
O 	O 	0.25730 0.46960 0.06821 -0.37600
O 	O 	0.30940 0.57690 0.94968 -0.42500
O 	O 	0.19420 0.50430 0.94231 -0.40400
O 	O 	0.24160 0.67240 0.88628 -0.38400
N 	N 	0.34140 0.52610 0.10829 -0.23300
O 	O 	0.26430 0.47150 0.91947 -0.38100
O 	O 	0.25260 0.60560 0.90780 -0.39700
N 	N 	0.29310 0.42910 0.96420 -0.21900
H 	H 	0.29230 0.45970 0.96040 0.16300
N 	N 	0.15470 0.32050 0.02395 -0.13300
N 	N 	0.19660 0.41370 0.02189 -0.21700
H 	H 	0.21730 0.44860 0.02740 0.15800
C 	C 	0.25350 0.42370 0.07970 0.15600
N 	N 	0.33890 0.47900 0.14897 -0.13000
C 	C 	0.32100 0.47550 0.12045 0.12100
C 	C 	0.21790 0.37250 0.06585 -0.04000
C 	C 	0.34300 0.50450 0.01856 0.38300
C 	C 	0.24100 0.42400 0.90502 0.17900
C 	C 	0.19450 0.48200 0.96726 0.37800
C 	C 	0.28240 0.42370 0.10596 -0.06200
C 	C 	0.24570 0.59350 0.10131 0.37100
N 	N 	0.28040 0.34330 0.95807 -0.13300
C 	C 	0.35610 0.42550 0.03630 0.02500
H 	H 	0.37280 0.44460 0.05430 0.03700
C 	C 	0.31410 0.41870 0.98909 0.12200
C 	C 	0.16020 0.42050 0.97002 -0.14100
N 	N 	0.21680 0.50570 0.87734 -0.23700
C 	C 	0.23940 0.32280 0.10300 0.19500
C 	C 	0.21070 0.41530 0.87800 -0.08400
C 	C 	0.22390 0.32970 0.90060 -0.15700
H 	H 	0.22770 0.30000 0.90840 0.09100
C 	C 	0.18850 0.36870 0.03760 0.14200
C 	C 	0.27490 0.37360 0.11660 -0.13600
H 	H 	0.29470 0.37390 0.13400 0.08600
C 	C 	0.21790 0.59640 0.12869 -0.12900
C 	C 	0.33930 0.44980 0.01490 -0.13900
C 	C 	0.21180 0.32400 0.07780 -0.14700
H 	H 	0.18730 0.28980 0.06820 0.08700
C 	C 	0.12710 0.38690 0.94760 0.02900
H 	H 	0.12230 0.40350 0.93010 0.03000
C 	C 	0.16630 0.39460 0.99530 0.11400
C 	C 	0.10710 0.30370 0.97380 -0.05400
H 	H 	0.08960 0.26430 0.97460 0.05100
C 	C 	0.24520 0.37840 0.91684 -0.03700
C 	C 	0.27320 0.38280 0.94580 0.14200
C 	C 	0.23200 0.26810 0.11570 -0.56700
H 	H 	0.21440 0.26130 0.13540 0.19900
H 	H 	0.20840 0.23740 0.10230 0.19100
H 	H 	0.26840 0.27080 0.11760 0.18800
C 	C 	0.37350 0.56410 0.12977 0.08100
C 	C 	0.30630 0.36440 0.98490 0.04200
C 	C 	0.14050 0.33650 0.99790 0.03400
C 	C 	0.21680 0.56800 0.15440 -0.05500
H 	H 	0.25600 0.58250 0.16050 0.05300
H 	H 	0.20190 0.52860 0.14870 0.04600
C 	C 	0.34790 0.37140 0.03100 -0.04700
H 	H 	0.36000 0.35530 0.04580 0.05000
C 	C 	0.19050 0.36450 0.86310 -0.13200
H 	H 	0.17100 0.35900 0.84480 0.06800
C 	C 	0.10030 0.32930 0.94940 -0.06100
H 	H 	0.07690 0.30740 0.93360 0.04400
N 	N 	0.18380 0.45620 0.83730 -0.21700
H 	H 	0.17240 0.42790 0.82500 0.12000
C 	C 	0.32430 0.34190 0.00640 -0.05900
H 	H 	0.32000 0.30590 0.00380 0.06100
C 	C 	0.23720 0.62420 0.88640 0.37400
C 	C 	0.19780 0.32240 0.87400 0.20200
C 	C 	0.37290 0.53590 0.15560 0.04900
C 	C 	0.40220 0.56340 0.18100 -0.08500
H 	H 	0.40190 0.54410 0.19860 0.06200
C 	C 	0.20520 0.53610 0.85692 0.07800
C 	C 	0.18360 0.50460 0.83120 0.06500
C 	C 	0.16940 0.52630 0.80700 -0.08200
H 	H 	0.15460 0.50480 0.78940 0.05800
C 	C 	0.17690 0.57970 0.80857 -0.03900
H 	H 	0.16720 0.59450 0.79200 0.04200
C 	C 	0.19850 0.61120 0.83430 0.01400
H 	H 	0.20360 0.64760 0.83540 0.04200
C 	C 	0.21270 0.58940 0.85848 -0.13000
C 	C 	0.18860 0.56830 0.17910 -0.01800
H 	H 	0.18780 0.54700 0.19590 0.03000
C 	C 	0.20360 0.45850 0.86460 0.16000
C 	C 	0.17340 0.26750 0.85670 -0.58000
H 	H 	0.14260 0.23810 0.86810 0.20100
H 	H 	0.15980 0.27180 0.83730 0.19900
H 	H 	0.20230 0.25750 0.85380 0.20000
Fe	Fe	0.23296 0.68571 0.07075 1.24700
Fe	Fe	0.27870 0.70013 0.99388 1.26300
Fe	Fe	0.27695 0.73786 0.91581 1.25200
O 	O 	0.26300 0.62310 0.99409 -0.44000
O 	O 	0.28300 0.77490 0.98903 -0.40100
O 	O 	0.37440 0.75290 0.07830 -0.38900
O 	O 	0.28480 0.71200 0.03741 -0.43200
O 	O 	0.16850 0.63870 0.04345 -0.40700
O 	O 	0.29540 0.73230 0.10125 -0.39200
O 	O 	0.19530 0.67350 0.99733 -0.40200
O 	O 	0.21230 0.74270 0.06821 -0.37600
O 	O 	0.26750 0.69060 0.94968 -0.42500
O 	O 	0.31010 0.80580 0.94231 -0.40400
O 	O 	0.43080 0.75840 0.88628 -0.38400
N 	N 	0.18470 0.65860 0.10829 -0.23300
O 	O 	0.20720 0.73570 0.91947 -0.38100
O 	O 	0.35300 0.74740 0.90780 -0.39700
N 	N 	0.13600 0.70690 0.96420 -0.21900
H 	H 	0.16740 0.70770 0.96040 0.16300
N 	N 	0.16580 0.84530 0.02395 -0.13300
N 	N 	0.21710 0.80340 0.02189 -0.21700
H 	H 	0.23130 0.78270 0.02740 0.15800
C 	C 	0.17020 0.74650 0.07970 0.15600
N 	N 	0.14010 0.66110 0.14897 -0.13000
C 	C 	0.15450 0.67900 0.12045 0.12100
C 	C 	0.15460 0.78210 0.06585 -0.04000
C 	C 	0.16150 0.65700 0.01856 0.38300
C 	C 	0.18300 0.75900 0.90502 0.17900
C 	C 	0.28750 0.80550 0.96726 0.37800
C 	C 	0.14130 0.71760 0.10596 -0.06200
C 	C 	0.34780 0.75430 0.10131 0.37100
N 	N 	0.06290 0.71960 0.95807 -0.13300
C 	C 	0.06940 0.64390 0.03630 0.02500
H 	H 	0.07180 0.62720 0.05430 0.03700
C 	C 	0.10460 0.68590 0.98909 0.12200
C 	C 	0.26030 0.83980 0.97002 -0.14100
N 	N 	0.28890 0.78320 0.87734 -0.23700
C 	C 	0.08340 0.76060 0.10300 0.19500
C 	C 	0.20460 0.78930 0.87800 -0.08400
C 	C 	0.10580 0.77610 0.90060 -0.15700
H 	H 	0.07230 0.77230 0.90840 0.09100
C 	C 	0.18020 0.81150 0.03760 0.14200
C 	C 	0.09870 0.72510 0.11660 -0.13600
H 	H 	0.07920 0.70530 0.13400 0.08500
C 	C 	0.37850 0.78210 0.12869 -0.12900
C 	C 	0.11050 0.66070 0.01490 -0.13900
C 	C 	0.11220 0.78820 0.07780 -0.14700
H 	H 	0.10250 0.81270 0.06820 0.08700
C 	C 	0.25980 0.87290 0.94760 0.02900
H 	H 	0.28120 0.87770 0.93010 0.03000
C 	C 	0.22830 0.83370 0.99530 0.11400
C 	C 	0.19660 0.89290 0.97380 -0.05400
H 	H 	0.17470 0.91040 0.97460 0.05100
C 	C 	0.13320 0.75480 0.91684 -0.03700
C 	C 	0.10960 0.72680 0.94580 0.14200
C 	C 	0.03610 0.76800 0.11570 -0.56600
H 	H 	0.04690 0.78560 0.13540 0.19900
H 	H 	0.02900 0.79160 0.10230 0.19100
H 	H 	0.00240 0.73160 0.11760 0.18800
C 	C 	0.19060 0.62650 0.12977 0.08100
C 	C 	0.05810 0.69370 0.98490 0.04200
C 	C 	0.19600 0.85950 0.99790 0.03400
C 	C 	0.35120 0.78320 0.15440 -0.05500
H 	H 	0.32650 0.74400 0.16050 0.05300
H 	H 	0.32670 0.79810 0.14870 0.04600
C 	C 	0.02350 0.65210 0.03100 -0.04700
H 	H 	0.99530 0.64000 0.04580 0.05000
C 	C 	0.17400 0.80950 0.86310 -0.13200
H 	H 	0.18800 0.82900 0.84480 0.06800
C 	C 	0.22900 0.89970 0.94940 -0.06100
H 	H 	0.23050 0.92310 0.93360 0.04400
N 	N 	0.27240 0.81620 0.83730 -0.21700
H 	H 	0.25550 0.82760 0.82500 0.12000
C 	C 	0.01760 0.67570 0.00640 -0.05900
H 	H 	0.98590 0.68000 0.00380 0.06000
C 	C 	0.38700 0.76280 0.88640 0.37400
C 	C 	0.12460 0.80220 0.87400 0.20200
C 	C 	0.16300 0.62710 0.15560 0.04900
C 	C 	0.16120 0.59780 0.18100 -0.08500
H 	H 	0.14220 0.59810 0.19860 0.06200
C 	C 	0.33090 0.79480 0.85692 0.07800
C 	C 	0.32100 0.81640 0.83120 0.06500
C 	C 	0.35690 0.83060 0.80700 -0.08200
H 	H 	0.35020 0.84540 0.78940 0.05800
C 	C 	0.40280 0.82310 0.80857 -0.03900
H 	H 	0.42730 0.83280 0.79200 0.04200
C 	C 	0.41270 0.80150 0.83430 0.01400
H 	H 	0.44400 0.79640 0.83540 0.04200
C 	C 	0.37670 0.78730 0.85848 -0.13000
C 	C 	0.37970 0.81140 0.17910 -0.01800
H 	H 	0.35920 0.81220 0.19590 0.03000
C 	C 	0.25490 0.79640 0.86460 0.16000
C 	C 	0.09410 0.82660 0.85670 -0.58000
H 	H 	0.09550 0.85740 0.86810 0.20100
H 	H 	0.11200 0.84020 0.83730 0.19900
H 	H 	0.05520 0.79770 0.85380 0.20000
Fe	Fe	0.45275 0.76704 0.07075 1.24700
Fe	Fe	0.42143 0.72130 0.99388 1.26300
Fe	Fe	0.46091 0.72305 0.91581 1.25200
O 	O 	0.36010 0.73700 0.99409 -0.44000
O 	O 	0.49190 0.71700 0.98903 -0.40100
O 	O 	0.37850 0.62560 0.07830 -0.38900
O 	O 	0.42720 0.71520 0.03741 -0.43200
O 	O 	0.47020 0.83150 0.04345 -0.40700
O 	O 	0.43690 0.70460 0.10125 -0.39200
O 	O 	0.47820 0.80470 0.99733 -0.40200
O 	O 	0.53040 0.78770 0.06821 -0.37600
O 	O 	0.42310 0.73250 0.94968 -0.42500
O 	O 	0.49570 0.68990 0.94231 -0.40400
O 	O 	0.32760 0.56920 0.88628 -0.38400
N 	N 	0.47390 0.81530 0.10829 -0.23300
O 	O 	0.52850 0.79280 0.91947 -0.38100
O 	O 	0.39440 0.64700 0.90780 -0.39700
N 	N 	0.57090 0.86400 0.96420 -0.21900
H 	H 	0.54030 0.83260 0.96040 0.16300
N 	N 	0.67950 0.83420 0.02395 -0.13300
N 	N 	0.58630 0.78290 0.02189 -0.21700
H 	H 	0.55140 0.76870 0.02740 0.15800
C 	C 	0.57630 0.82980 0.07970 0.15600
N 	N 	0.52100 0.85990 0.14897 -0.13000
C 	C 	0.52450 0.84550 0.12045 0.12100
C 	C 	0.62750 0.84540 0.06585 -0.04000
C 	C 	0.49550 0.83850 0.01856 0.38300
C 	C 	0.57600 0.81700 0.90502 0.17900
C 	C 	0.51800 0.71250 0.96726 0.37800
C 	C 	0.57630 0.85870 0.10596 -0.06200
C 	C 	0.40650 0.65220 0.10131 0.37100
N 	N 	0.65670 0.93710 0.95807 -0.13300
C 	C 	0.57450 0.93060 0.03630 0.02500
H 	H 	0.55540 0.92820 0.05430 0.03700
C 	C 	0.58130 0.89540 0.98909 0.12200
C 	C 	0.57950 0.73970 0.97002 -0.14100
N 	N 	0.49430 0.71110 0.87734 -0.23700
C 	C 	0.67720 0.91660 0.10300 0.19500
C 	C 	0.58470 0.79540 0.87800 -0.08400
C 	C 	0.67030 0.89420 0.90060 -0.15700
H 	H 	0.70000 0.92770 0.90840 0.09100
C 	C 	0.63130 0.81980 0.03760 0.14200
C 	C 	0.62640 0.90130 0.11660 -0.13600
H 	H 	0.62610 0.92080 0.13400 0.08500
C 	C 	0.40360 0.62150 0.12869 -0.12900
C 	C 	0.55020 0.88950 0.01490 -0.13900
C 	C 	0.67600 0.88780 0.07780 -0.14700
H 	H 	0.71020 0.89750 0.06820 0.08700
C 	C 	0.61310 0.74020 0.94760 0.02900
H 	H 	0.59650 0.71880 0.93010 0.03000
C 	C 	0.60540 0.77170 0.99530 0.11400
C 	C 	0.69630 0.80340 0.97380 -0.05400
H 	H 	0.73570 0.82530 0.97460 0.05100
C 	C 	0.62160 0.86680 0.91684 -0.03700
C 	C 	0.61720 0.89040 0.94580 0.14200
C 	C 	0.73190 0.96390 0.11570 -0.56600
H 	H 	0.73870 0.95310 0.13540 0.19900
H 	H 	0.76260 0.97100 0.10230 0.19100
H 	H 	0.72920 0.99760 0.11760 0.18800
C 	C 	0.43590 0.80940 0.12977 0.08100
C 	C 	0.63560 0.94190 0.98490 0.04200
C 	C 	0.66350 0.80400 0.99790 0.03400
C 	C 	0.43200 0.64880 0.15440 -0.05500
H 	H 	0.41750 0.67350 0.16050 0.05300
H 	H 	0.47140 0.67330 0.14870 0.04600
C 	C 	0.62860 0.97650 0.03100 -0.04700
H 	H 	0.64470 0.00470 0.04580 0.05000
C 	C 	0.63550 0.82600 0.86310 -0.13200
H 	H 	0.64100 0.81200 0.84480 0.06800
C 	C 	0.67070 0.77100 0.94940 -0.06100
H 	H 	0.69260 0.76950 0.93360 0.04400
N 	N 	0.54380 0.72760 0.83730 -0.21700
H 	H 	0.57210 0.74450 0.82500 0.12000
C 	C 	0.65810 0.98240 0.00640 -0.05900
H 	H 	0.69410 0.01410 0.00380 0.06000
C 	C 	0.37580 0.61300 0.88640 0.37400
C 	C 	0.67760 0.87540 0.87400 0.20200
C 	C 	0.46410 0.83700 0.15560 0.04900
C 	C 	0.43660 0.83880 0.18100 -0.08500
H 	H 	0.45590 0.85780 0.19860 0.06200
C 	C 	0.46390 0.66910 0.85692 0.07800
C 	C 	0.49540 0.67900 0.83120 0.06500
C 	C 	0.47370 0.64310 0.80700 -0.08200
H 	H 	0.49520 0.64980 0.78940 0.05800
C 	C 	0.42030 0.59720 0.80857 -0.03900
H 	H 	0.40550 0.57270 0.79200 0.04200
C 	C 	0.38880 0.58730 0.83430 0.01400
H 	H 	0.35240 0.55600 0.83540 0.04200
C 	C 	0.41060 0.62330 0.85848 -0.13000
C 	C 	0.43170 0.62030 0.17910 -0.01800
H 	H 	0.45300 0.64080 0.19590 0.03000
C 	C 	0.54150 0.74510 0.86460 0.16000
C 	C 	0.73250 0.90590 0.85670 -0.58000
H 	H 	0.76190 0.90450 0.86810 0.20100
H 	H 	0.72820 0.88800 0.83730 0.19900
H 	H 	0.74250 0.94480 0.85380 0.20000
