data_crystal

_cell_length_a 31.96000
_cell_length_b 17.64000
_cell_length_c 36.60600
_cell_angle_alpha 90.00000
_cell_angle_beta  92.08700
_cell_angle_gamma 90.00000

_symmetry_space_group_name_	'P 1'
_symmetry_space_group_name_H-M	'P 1'

loop_
_symmetry_equiv_pos_as_xyz
  x,y,z

loop_
_atom_site_label
_atom_site_type_symbol
_atom_site_fract_x
_atom_site_fract_y
_atom_site_fract_z
_atom_site_charge
Pd	Pd	0.46924 0.15289 0.02913 0.76500
Pd	Pd	0.01890 0.14716 0.00064 0.77400
Pd	Pd	0.27551 0.81012 0.92865 0.76800
Pd	Pd	0.51131 0.74681 0.20909 0.76500
Pd	Pd	0.20939 0.18734 0.35311 0.76700
Pd	Pd	0.05767 0.79534 0.27315 0.76800
Br	Br	0.49825 0.27765 0.01689 -0.32800
Br	Br	0.44298 0.02804 0.04140 -0.37200
Br	Br	0.04889 0.04481 0.03697 -0.36000
Br	Br	0.99006 0.24973 0.96496 -0.34600
Br	Br	0.20596 0.85981 0.93130 -0.35300
Br	Br	0.34523 0.75999 0.92485 -0.33800
Br	Br	0.48536 0.77792 0.26809 -0.36800
Br	Br	0.53627 0.71827 0.14900 -0.36100
Br	Br	0.22224 0.30714 0.38363 -0.35900
Br	Br	0.19668 0.06786 0.32412 -0.36100
Br	Br	0.11140 0.77373 0.31986 -0.35800
Br	Br	0.00489 0.82164 0.22648 -0.38000
O 	O 	0.30290 0.19000 0.99780 -0.22200
O 	O 	0.13250 0.35680 0.96490 -0.22300
O 	O 	0.30040 0.53000 0.94550 -0.20800
O 	O 	0.39380 0.17670 0.16240 -0.20600
O 	O 	0.42510 0.52620 0.25430 -0.22900
O 	O 	0.31640 0.35280 0.29090 -0.23500
O 	O 	0.06670 0.23810 0.10800 -0.22400
O 	O 	0.12380 0.21400 0.22990 -0.21600
O 	O 	0.01520 0.54720 0.18420 -0.22000
O 	O 	0.21140 0.86530 0.06510 -0.22400
O 	O 	0.36240 0.85270 0.21360 -0.20400
O 	O 	0.21620 0.83710 0.24050 -0.22300
N 	N 	0.43850 0.15260 0.97950 -0.21600
N 	N 	0.35170 0.28340 0.99210 -0.18700
H 	H 	0.35550 0.33080 0.98540 0.12100
N 	N 	0.05870 0.12560 0.95970 -0.21200
N 	N 	0.15050 0.24700 0.98960 -0.21200
H 	H 	0.17120 0.21800 0.99780 0.13000
N 	N 	0.25350 0.73390 0.89110 -0.20600
N 	N 	0.23520 0.57240 0.95220 -0.20000
H 	H 	0.20910 0.56180 0.95710 0.12400
N 	N 	0.50150 0.15590 0.08000 -0.23000
N 	N 	0.43140 0.26070 0.13230 -0.17500
H 	H 	0.44160 0.30700 0.13170 0.11900
N 	N 	0.53350 0.64280 0.22730 -0.20100
N 	N 	0.44960 0.51500 0.19810 -0.19900
H 	H 	0.45240 0.48620 0.17870 0.12300
N 	N 	0.27220 0.16640 0.35380 -0.23700
N 	N 	0.30390 0.24130 0.26690 -0.24200
H 	H 	0.30830 0.20680 0.25010 0.13300
N 	N 	0.97690 0.16650 0.03760 -0.23600
N 	N 	0.01990 0.32760 0.09280 -0.20300
H 	H 	0.00750 0.37180 0.09540 0.12600
N 	N 	0.14800 0.21210 0.35000 -0.22200
N 	N 	0.13070 0.31000 0.26420 -0.19200
H 	H 	0.12590 0.35840 0.26810 0.11900
N 	N 	0.03050 0.69620 0.28660 -0.23900
N 	N 	0.07090 0.56140 0.22130 -0.19200
H 	H 	0.09530 0.54280 0.22880 0.11900
N 	N 	0.29880 0.89160 0.96300 -0.22100
N 	N 	0.27720 0.82490 0.05640 -0.19300
H 	H 	0.30090 0.80940 0.06690 0.12000
N 	N 	0.49290 0.85040 0.19150 -0.20100
N 	N 	0.38590 0.80500 0.15940 -0.20300
H 	H 	0.38170 0.80160 0.13560 0.12300
N 	N 	0.08450 0.89570 0.26030 -0.20200
N 	N 	0.16500 0.83890 0.19840 -0.21800
H 	H 	0.15820 0.84870 0.17540 0.12800
C 	C 	0.45450 0.11240 0.94750 0.11200
H 	H 	0.47950 0.08390 0.95150 0.00700
C 	C 	0.43860 0.11180 0.91540 -0.19600
H 	H 	0.45090 0.08240 0.89690 0.11000
C 	C 	0.40540 0.15180 0.90800 0.14100
H 	H 	0.39280 0.15160 0.88410 0.00000
C 	C 	0.38860 0.19400 0.93490 -0.18500
H 	H 	0.36510 0.22510 0.92890 0.11200
C 	C 	0.40430 0.19390 0.97100 0.15500
C 	C 	0.38780 0.23750 0.00230 -0.13100
H 	H 	0.38000 0.20150 0.02170 0.07100
H 	H 	0.41020 0.27080 0.01260 0.06900
C 	C 	0.31120 0.25490 0.99240 0.21400
C 	C 	0.04920 0.07680 0.93270 0.10000
H 	H 	0.02330 0.05060 0.93310 0.00900
C 	C 	0.07400 0.06340 0.90570 -0.14100
H 	H 	0.06770 0.02390 0.88880 0.09100
C 	C 	0.11040 0.10860 0.90200 0.07400
H 	H 	0.12580 0.10610 0.88030 0.02500
C 	C 	0.12330 0.15570 0.92980 -0.13900
H 	H 	0.14960 0.18050 0.93020 0.10600
C 	C 	0.09440 0.16510 0.95830 0.12100
C 	C 	0.10890 0.21690 0.99030 -0.10100
H 	H 	0.08910 0.26000 0.99130 0.07100
H 	H 	0.10650 0.18790 0.01330 0.06000
C 	C 	0.15950 0.31120 0.97820 0.23400
C 	C 	0.25230 0.75570 0.85510 0.09800
H 	H 	0.26380 0.80290 0.84810 -0.00100
C 	C 	0.23470 0.70980 0.83010 -0.13200
H 	H 	0.23040 0.72700 0.80570 0.10500
C 	C 	0.22320 0.63970 0.83910 0.07700
H 	H 	0.21270 0.60710 0.82020 0.04600
C 	C 	0.22610 0.61140 0.87560 -0.12200
H 	H 	0.21740 0.56150 0.88160 0.09800
C 	C 	0.24260 0.66240 0.90220 0.12300
C 	C 	0.24570 0.64670 0.94270 -0.09900
H 	H 	0.27480 0.65710 0.95180 0.06800
H 	H 	0.22700 0.68210 0.95530 0.05500
C 	C 	0.26290 0.51920 0.95380 0.20700
C 	C 	0.27720 0.31370 0.98420 -0.04300
C 	C 	0.23600 0.28910 0.98390 -0.00800
H 	H 	0.23050 0.23700 0.98820 0.05300
C 	C 	0.20150 0.33970 0.97730 -0.06600
C 	C 	0.20980 0.41220 0.96820 -0.00800
H 	H 	0.18720 0.44580 0.96270 0.04800
C 	C 	0.25070 0.43900 0.96660 -0.04600
C 	C 	0.28530 0.39080 0.97540 -0.01900
H 	H 	0.31320 0.40960 0.97540 0.05000
C 	C 	0.94160 0.11990 0.03850 0.10800
H 	H 	0.94010 0.07980 0.02110 0.00700
C 	C 	0.91060 0.12510 0.06020 -0.16700
H 	H 	0.88730 0.09170 0.05810 0.11800
C 	C 	0.91270 0.18020 0.08600 0.10300
H 	H 	0.89080 0.18640 0.10260 0.03100
C 	C 	0.94810 0.22840 0.08770 -0.18400
H 	H 	0.95120 0.26680 0.10580 0.11200
C 	C 	0.97750 0.21700 0.06210 0.18500
C 	C 	0.01320 0.27190 0.06030 -0.16600
H 	H 	0.00920 0.30230 0.03770 0.09200
H 	H 	0.03930 0.24240 0.05790 0.08500
C 	C 	0.04660 0.29760 0.11480 0.22000
C 	C 	0.12630 0.18230 0.37720 0.09000
H 	H 	0.14160 0.15360 0.39520 0.00200
C 	C 	0.08290 0.18960 0.38150 -0.13600
H 	H 	0.06900 0.17310 0.40260 0.10500
C 	C 	0.06280 0.22300 0.35200 0.08600
H 	H 	0.03340 0.23010 0.35200 0.02900
C 	C 	0.08490 0.24690 0.32200 -0.16400
H 	H 	0.06950 0.26570 0.30120 0.12000
C 	C 	0.12890 0.24440 0.32070 0.15700
C 	C 	0.15510 0.27210 0.29370 -0.14900
H 	H 	0.17100 0.22940 0.28340 0.08000
H 	H 	0.17540 0.30830 0.30490 0.07100
C 	C 	0.11520 0.28430 0.23360 0.22600
C 	C 	0.01140 0.69660 0.31520 0.14500
H 	H 	0.01050 0.74370 0.32780 -0.03000
C 	C 	0.99070 0.63550 0.33160 -0.18300
H 	H 	0.97630 0.64030 0.35380 0.11500
C 	C 	0.99300 0.56770 0.31250 0.11800
H 	H 	0.97780 0.52480 0.32050 0.00800
C 	C 	0.01610 0.56180 0.28340 -0.18600
H 	H 	0.02030 0.51430 0.27180 0.11300
C 	C 	0.03430 0.62900 0.27010 0.15300
C 	C 	0.05910 0.63770 0.23540 -0.12900
H 	H 	0.04180 0.66480 0.21650 0.08800
H 	H 	0.08460 0.66800 0.24070 0.05100
C 	C 	0.04730 0.51870 0.19810 0.21800
C 	C 	0.06160 0.33760 0.15130 -0.05500
C 	C 	0.08510 0.29660 0.17530 0.01300
H 	H 	0.09380 0.24640 0.16990 0.05900
C 	C 	0.09570 0.33000 0.20710 -0.08700
C 	C 	0.08320 0.40010 0.21570 0.02500
H 	H 	0.08990 0.42000 0.23930 0.02000
C 	C 	0.06150 0.44210 0.19140 -0.07700
C 	C 	0.04910 0.40930 0.15750 -0.00000
H 	H 	0.03260 0.43660 0.13980 0.04300
C 	C 	0.53940 0.12310 0.07950 0.12500
H 	H 	0.54900 0.10040 0.05780 -0.01000
C 	C 	0.56290 0.12320 0.10990 -0.17200
H 	H 	0.59020 0.10160 0.11040 0.10400
C 	C 	0.54720 0.15510 0.14080 0.12200
H 	H 	0.56400 0.15640 0.16280 0.01300
C 	C 	0.50660 0.18580 0.14040 -0.21600
H 	H 	0.49510 0.20790 0.16140 0.13700
C 	C 	0.48590 0.18180 0.10910 0.19600
C 	C 	0.44210 0.21300 0.10240 -0.14500
H 	H 	0.44090 0.24250 0.07940 0.05700
H 	H 	0.42190 0.17070 0.09990 0.08400
C 	C 	0.40700 0.24420 0.16230 0.18300
C 	C 	0.57360 0.63900 0.24490 0.05300
H 	H 	0.58810 0.68450 0.25120 0.00800
C 	C 	0.59200 0.56960 0.25310 -0.09400
H 	H 	0.62000 0.56890 0.26260 0.07700
C 	C 	0.57110 0.50060 0.24800 0.04100
H 	H 	0.58170 0.45390 0.25740 0.04600
C 	C 	0.53370 0.50630 0.22830 -0.11500
H 	H 	0.52110 0.46140 0.21870 0.09500
C 	C 	0.51270 0.57830 0.22160 0.12400
C 	C 	0.46990 0.59020 0.20050 -0.11300
H 	H 	0.45220 0.62620 0.21380 0.06600
H 	H 	0.47430 0.61070 0.17580 0.06500
C 	C 	0.42710 0.49150 0.22590 0.22800
C 	C 	0.28740 0.12470 0.38140 0.11900
H 	H 	0.26880 0.10310 0.39820 -0.01100
C 	C 	0.33010 0.11230 0.38590 -0.18300
H 	H 	0.34160 0.08450 0.40610 0.11400
C 	C 	0.35510 0.14250 0.35940 0.14800
H 	H 	0.38460 0.13740 0.36250 0.00900
C 	C 	0.34060 0.17680 0.33120 -0.23200
H 	H 	0.35770 0.19240 0.31180 0.12300
C 	C 	0.29870 0.18930 0.33090 0.19500
C 	C 	0.27670 0.23110 0.29920 -0.14700
H 	H 	0.25130 0.20240 0.29130 0.06200
H 	H 	0.26770 0.28150 0.30780 0.09000
C 	C 	0.31770 0.30100 0.26740 0.27300
C 	C 	0.39190 0.29710 0.19090 -0.04100
C 	C 	0.41640 0.37020 0.19440 -0.01900
H 	H 	0.43930 0.38110 0.17950 0.03800
C 	C 	0.40310 0.42000 0.22060 -0.06000
C 	C 	0.37420 0.39470 0.24340 0.00400
H 	H 	0.36890 0.42690 0.26350 0.06200
C 	C 	0.35100 0.32780 0.24170 -0.06800
C 	C 	0.36050 0.27910 0.21560 -0.00900
H 	H 	0.34600 0.23210 0.21340 0.04000
C 	C 	0.32080 0.94070 0.94400 0.11900
H 	H 	0.32610 0.93260 0.91900 -0.01900
C 	C 	0.33450 -0.00000 0.96130 -0.16100
H 	H 	0.34680 0.03980 0.94780 0.10100
C 	C 	0.33210 0.00770 0.99890 0.11200
H 	H 	0.34530 0.04980 0.01080 0.01900
C 	C 	0.31090 0.95510 0.01930 -0.17800
H 	H 	0.30780 0.95990 0.04490 0.11000
C 	C 	0.29510 0.89720 0.99990 0.15700
C 	C 	0.27210 0.83000 0.01690 -0.12700
H 	H 	0.24190 0.83410 0.01030 0.09300
H 	H 	0.28250 0.78240 0.00600 0.05800
C 	C 	0.24400 0.84510 0.07670 0.22800
C 	C 	0.52160 0.90790 0.19100 0.06900
H 	H 	0.54950 0.89780 0.19940 0.00800
C 	C 	0.51160 0.98190 0.17850 -0.11000
H 	H 	0.53020 0.02360 0.18140 0.08900
C 	C 	0.47240 0.98790 0.16190 0.03500
H 	H 	0.46450 0.03450 0.15050 0.03700
C 	C 	0.44280 0.92540 0.16100 -0.10500
H 	H 	0.41560 0.93350 0.15030 0.08400
C 	C 	0.45270 0.85330 0.17540 0.10200
C 	C 	0.42390 0.78420 0.17680 -0.09600
H 	H 	0.43650 0.74070 0.16400 0.04900
H 	H 	0.41950 0.76950 0.20250 0.07100
C 	C 	0.35760 0.82920 0.18030 0.20000
C 	C 	0.06720 0.95750 0.27600 0.05900
H 	H 	0.04440 0.95390 0.29180 0.01400
C 	C 	0.08620 0.02950 0.26680 -0.09100
H 	H 	0.07470 0.07370 0.27730 0.08500
C 	C 	0.11780 0.03910 0.24520 0.05200
H 	H 	0.12960 0.08760 0.24090 0.04700
C 	C 	0.13310 0.97370 0.22900 -0.11700
H 	H 	0.15460 0.97750 0.21190 0.09000
C 	C 	0.11700 0.90210 0.23770 0.12000
C 	C 	0.13350 0.82770 0.22300 -0.09000
H 	H 	0.14460 0.79650 0.24370 0.07000
H 	H 	0.11020 0.79950 0.21080 0.04700
C 	C 	0.20220 0.83520 0.20820 0.23600
C 	C 	0.26030 0.84160 0.11710 -0.04400
C 	C 	0.30120 0.83750 0.12980 -0.02200
H 	H 	0.32310 0.83610 0.11300 0.03300
C 	C 	0.31070 0.83520 0.16820 -0.03100
C 	C 	0.27730 0.83670 0.19210 -0.01400
H 	H 	0.28350 0.83620 0.21770 0.07200
C 	C 	0.23580 0.83880 0.18000 -0.04800
C 	C 	0.22720 0.84160 0.14240 -0.01500
H 	H 	0.19890 0.84350 0.13340 0.05000
Pd	Pd	0.53076 0.65289 0.47087 0.76600
Pd	Pd	0.98110 0.64716 0.49936 0.77500
Pd	Pd	0.72449 0.31012 0.57135 0.76900
Pd	Pd	0.48869 0.24681 0.29091 0.76600
Pd	Pd	0.79061 0.68734 0.14689 0.76800
Pd	Pd	0.94233 0.29534 0.22685 0.76900
Br	Br	0.50175 0.77765 0.48311 -0.32700
Br	Br	0.55702 0.52804 0.45860 -0.37200
Br	Br	0.95111 0.54481 0.46303 -0.36000
Br	Br	0.00994 0.74973 0.53504 -0.34600
Br	Br	0.79404 0.35981 0.56870 -0.35200
Br	Br	0.65477 0.25999 0.57515 -0.33800
Br	Br	0.51464 0.27792 0.23191 -0.36700
Br	Br	0.46373 0.21827 0.35100 -0.36000
Br	Br	0.77776 0.80714 0.11637 -0.36000
Br	Br	0.80332 0.56786 0.17588 -0.36200
Br	Br	0.88860 0.27373 0.18014 -0.35800
Br	Br	0.99511 0.32164 0.27352 -0.37900
O 	O 	0.69710 0.69000 0.50220 -0.22200
O 	O 	0.86750 0.85680 0.53510 -0.22400
O 	O 	0.69960 0.03000 0.55450 -0.20700
O 	O 	0.60620 0.67670 0.33760 -0.20600
O 	O 	0.57490 0.02620 0.24570 -0.22600
O 	O 	0.68360 0.85280 0.20910 -0.23500
O 	O 	0.93330 0.73810 0.39200 -0.22400
O 	O 	0.87620 0.71400 0.27010 -0.21600
O 	O 	0.98480 0.04720 0.31580 -0.22000
O 	O 	0.78860 0.36530 0.43490 -0.22400
O 	O 	0.63760 0.35270 0.28640 -0.20400
O 	O 	0.78380 0.33710 0.25950 -0.22300
N 	N 	0.56150 0.65260 0.52050 -0.21600
N 	N 	0.64830 0.78340 0.50790 -0.18700
H 	H 	0.64450 0.83080 0.51460 0.12100
N 	N 	0.94130 0.62560 0.54030 -0.21300
N 	N 	0.84950 0.74700 0.51040 -0.21300
H 	H 	0.82880 0.71800 0.50220 0.13000
N 	N 	0.74650 0.23390 0.60890 -0.20600
N 	N 	0.76480 0.07240 0.54780 -0.20100
H 	H 	0.79090 0.06180 0.54290 0.12400
N 	N 	0.49850 0.65590 0.42000 -0.23000
N 	N 	0.56860 0.76070 0.36770 -0.17500
H 	H 	0.55840 0.80700 0.36830 0.11900
N 	N 	0.46650 0.14280 0.27270 -0.20200
N 	N 	0.55040 0.01500 0.30190 -0.19500
H 	H 	0.54760 0.98620 0.32130 0.12100
N 	N 	0.72780 0.66640 0.14620 -0.23700
N 	N 	0.69610 0.74130 0.23310 -0.24200
H 	H 	0.69170 0.70680 0.24990 0.13300
N 	N 	0.02310 0.66650 0.46240 -0.23600
N 	N 	0.98010 0.82760 0.40720 -0.20400
H 	H 	0.99250 0.87180 0.40460 0.12600
N 	N 	0.85200 0.71210 0.15000 -0.22200
N 	N 	0.86930 0.81000 0.23580 -0.19300
H 	H 	0.87410 0.85840 0.23190 0.11900
N 	N 	0.96950 0.19620 0.21340 -0.23900
N 	N 	0.92910 0.06140 0.27870 -0.19300
H 	H 	0.90470 0.04280 0.27120 0.12000
N 	N 	0.70120 0.39160 0.53700 -0.22100
N 	N 	0.72280 0.32490 0.44360 -0.19300
H 	H 	0.69910 0.30940 0.43310 0.12000
N 	N 	0.50710 0.35040 0.30850 -0.20100
N 	N 	0.61410 0.30500 0.34060 -0.20300
H 	H 	0.61830 0.30160 0.36440 0.12300
N 	N 	0.91550 0.39570 0.23970 -0.20200
N 	N 	0.83500 0.33890 0.30160 -0.21800
H 	H 	0.84180 0.34870 0.32460 0.12900
C 	C 	0.54550 0.61240 0.55250 0.11200
H 	H 	0.52050 0.58390 0.54850 0.00600
C 	C 	0.56140 0.61180 0.58460 -0.19700
H 	H 	0.54910 0.58240 0.60310 0.10900
C 	C 	0.59460 0.65180 0.59200 0.14100
H 	H 	0.60720 0.65160 0.61590 -0.00000
C 	C 	0.61140 0.69400 0.56510 -0.18500
H 	H 	0.63490 0.72510 0.57110 0.11200
C 	C 	0.59570 0.69390 0.52900 0.15500
C 	C 	0.61220 0.73750 0.49770 -0.13100
H 	H 	0.62000 0.70150 0.47830 0.07000
H 	H 	0.58980 0.77080 0.48740 0.06900
C 	C 	0.68880 0.75490 0.50760 0.21400
C 	C 	0.95080 0.57680 0.56730 0.10000
H 	H 	0.97670 0.55060 0.56690 0.00800
C 	C 	0.92600 0.56340 0.59430 -0.14100
H 	H 	0.93230 0.52390 0.61120 0.09000
C 	C 	0.88960 0.60860 0.59800 0.07400
H 	H 	0.87420 0.60610 0.61970 0.02500
C 	C 	0.87670 0.65570 0.57020 -0.13900
H 	H 	0.85040 0.68050 0.56980 0.10600
C 	C 	0.90560 0.66510 0.54170 0.12100
C 	C 	0.89110 0.71690 0.50970 -0.10100
H 	H 	0.91090 0.76000 0.50870 0.07100
H 	H 	0.89350 0.68790 0.48670 0.06000
C 	C 	0.84050 0.81120 0.52180 0.23400
C 	C 	0.74770 0.25570 0.64490 0.09800
H 	H 	0.73620 0.30290 0.65190 -0.00100
C 	C 	0.76530 0.20980 0.66990 -0.13200
H 	H 	0.76960 0.22700 0.69430 0.10500
C 	C 	0.77680 0.13970 0.66090 0.07700
H 	H 	0.78730 0.10710 0.67980 0.04600
C 	C 	0.77390 0.11140 0.62440 -0.12200
H 	H 	0.78260 0.06150 0.61840 0.09800
C 	C 	0.75740 0.16240 0.59780 0.12300
C 	C 	0.75430 0.14670 0.55730 -0.09900
H 	H 	0.72520 0.15710 0.54820 0.06900
H 	H 	0.77300 0.18210 0.54470 0.05500
C 	C 	0.73710 0.01920 0.54620 0.20900
C 	C 	0.72280 0.81370 0.51580 -0.04400
C 	C 	0.76400 0.78910 0.51610 -0.00800
H 	H 	0.76950 0.73700 0.51180 0.05200
C 	C 	0.79850 0.83970 0.52270 -0.06700
C 	C 	0.79020 0.91220 0.53180 -0.00700
H 	H 	0.81280 0.94580 0.53730 0.04700
C 	C 	0.74930 0.93900 0.53340 -0.05000
C 	C 	0.71470 0.89080 0.52460 -0.01800
H 	H 	0.68680 0.90960 0.52460 0.04900
C 	C 	0.05840 0.61990 0.46150 0.10700
H 	H 	0.05990 0.57980 0.47890 0.00600
C 	C 	0.08940 0.62510 0.43980 -0.16800
H 	H 	0.11270 0.59170 0.44190 0.11800
C 	C 	0.08730 0.68020 0.41400 0.10300
H 	H 	0.10920 0.68640 0.39740 0.03100
C 	C 	0.05190 0.72840 0.41230 -0.18400
H 	H 	0.04880 0.76680 0.39420 0.11200
C 	C 	0.02250 0.71700 0.43790 0.18500
C 	C 	0.98680 0.77190 0.43970 -0.16600
H 	H 	0.99080 0.80230 0.46230 0.09200
H 	H 	0.96070 0.74240 0.44210 0.08500
C 	C 	0.95340 0.79760 0.38520 0.22000
C 	C 	0.87370 0.68230 0.12280 0.09000
H 	H 	0.85840 0.65360 0.10480 0.00200
C 	C 	0.91710 0.68960 0.11850 -0.13600
H 	H 	0.93100 0.67310 0.09740 0.10500
C 	C 	0.93720 0.72300 0.14800 0.08600
H 	H 	0.96660 0.73010 0.14800 0.02900
C 	C 	0.91510 0.74690 0.17800 -0.16400
H 	H 	0.93050 0.76570 0.19880 0.12000
C 	C 	0.87110 0.74440 0.17930 0.15700
C 	C 	0.84490 0.77210 0.20630 -0.14900
H 	H 	0.82900 0.72940 0.21660 0.07900
H 	H 	0.82460 0.80830 0.19510 0.07000
C 	C 	0.88480 0.78430 0.26640 0.22600
C 	C 	0.98860 0.19660 0.18480 0.14500
H 	H 	0.98950 0.24370 0.17220 -0.03000
C 	C 	0.00930 0.13550 0.16840 -0.18200
H 	H 	0.02370 0.14030 0.14620 0.11500
C 	C 	0.00700 0.06770 0.18750 0.11700
H 	H 	0.02220 0.02480 0.17950 0.00900
C 	C 	0.98390 0.06180 0.21660 -0.18600
H 	H 	0.97970 0.01430 0.22820 0.11300
C 	C 	0.96570 0.12900 0.22990 0.15300
C 	C 	0.94090 0.13770 0.26460 -0.12900
H 	H 	0.95820 0.16480 0.28350 0.08800
H 	H 	0.91540 0.16800 0.25930 0.05100
C 	C 	0.95270 0.01870 0.30190 0.22200
C 	C 	0.93840 0.83760 0.34870 -0.05700
C 	C 	0.91490 0.79660 0.32470 0.01500
H 	H 	0.90620 0.74640 0.33010 0.05800
C 	C 	0.90430 0.83000 0.29290 -0.08900
C 	C 	0.91680 0.90010 0.28430 0.02800
H 	H 	0.91010 0.92000 0.26070 0.01800
C 	C 	0.93850 0.94210 0.30860 -0.08200
C 	C 	0.95090 0.90930 0.34250 0.00200
H 	H 	0.96740 0.93660 0.36020 0.04100
C 	C 	0.46060 0.62310 0.42050 0.12500
H 	H 	0.45100 0.60040 0.44220 -0.01100
C 	C 	0.43710 0.62320 0.39010 -0.17300
H 	H 	0.40980 0.60160 0.38960 0.10400
C 	C 	0.45280 0.65510 0.35920 0.12200
H 	H 	0.43600 0.65640 0.33720 0.01300
C 	C 	0.49340 0.68580 0.35960 -0.21600
H 	H 	0.50490 0.70790 0.33860 0.13700
C 	C 	0.51410 0.68180 0.39090 0.19600
C 	C 	0.55790 0.71300 0.39760 -0.14500
H 	H 	0.55910 0.74250 0.42060 0.05600
H 	H 	0.57810 0.67070 0.40010 0.08400
C 	C 	0.59300 0.74420 0.33770 0.18300
C 	C 	0.42640 0.13900 0.25510 0.05400
H 	H 	0.41190 0.18450 0.24880 0.00800
C 	C 	0.40800 0.06960 0.24690 -0.09600
H 	H 	0.38000 0.06890 0.23740 0.07800
C 	C 	0.42890 0.00060 0.25200 0.04500
H 	H 	0.41830 0.95390 0.24260 0.04300
C 	C 	0.46630 0.00630 0.27170 -0.11300
H 	H 	0.47890 0.96140 0.28130 0.09300
C 	C 	0.48730 0.07830 0.27840 0.12400
C 	C 	0.53010 0.09020 0.29950 -0.11300
H 	H 	0.54780 0.12620 0.28620 0.06600
H 	H 	0.52570 0.11070 0.32420 0.06500
C 	C 	0.57290 0.99150 0.27410 0.22300
C 	C 	0.71260 0.62470 0.11860 0.11900
H 	H 	0.73120 0.60310 0.10180 -0.01200
C 	C 	0.66990 0.61230 0.11410 -0.18300
H 	H 	0.65840 0.58450 0.09390 0.11300
C 	C 	0.64490 0.64250 0.14060 0.14800
H 	H 	0.61540 0.63740 0.13750 0.00900
C 	C 	0.65940 0.67680 0.16880 -0.23200
H 	H 	0.64230 0.69240 0.18820 0.12300
C 	C 	0.70130 0.68930 0.16910 0.19500
C 	C 	0.72330 0.73110 0.20080 -0.14600
H 	H 	0.74870 0.70240 0.20870 0.06200
H 	H 	0.73230 0.78150 0.19220 0.09000
C 	C 	0.68230 0.80100 0.23260 0.27300
C 	C 	0.60810 0.79710 0.30910 -0.04000
C 	C 	0.58360 0.87020 0.30560 -0.02000
H 	H 	0.56070 0.88110 0.32050 0.03900
C 	C 	0.59690 0.92000 0.27940 -0.05800
C 	C 	0.62580 0.89470 0.25660 0.00200
H 	H 	0.63110 0.92690 0.23650 0.06200
C 	C 	0.64900 0.82780 0.25830 -0.06700
C 	C 	0.63950 0.77910 0.28440 -0.00900
H 	H 	0.65400 0.73210 0.28660 0.04000
C 	C 	0.67920 0.44070 0.55600 0.12300
H 	H 	0.67390 0.43260 0.58100 -0.02000
C 	C 	0.66550 0.50000 0.53870 -0.16500
H 	H 	0.65320 0.53980 0.55220 0.10200
C 	C 	0.66790 0.50770 0.50110 0.11100
H 	H 	0.65470 0.54980 0.48920 0.01900
C 	C 	0.68910 0.45510 0.48070 -0.17600
H 	H 	0.69220 0.45990 0.45510 0.11000
C 	C 	0.70490 0.39720 0.50010 0.15700
C 	C 	0.72790 0.33000 0.48310 -0.12700
H 	H 	0.75810 0.33410 0.48970 0.09300
H 	H 	0.71750 0.28240 0.49400 0.05800
C 	C 	0.75600 0.34510 0.42330 0.22900
C 	C 	0.47840 0.40790 0.30900 0.06800
H 	H 	0.45050 0.39780 0.30060 0.00800
C 	C 	0.48840 0.48190 0.32150 -0.10700
H 	H 	0.46980 0.52360 0.31860 0.08600
C 	C 	0.52760 0.48790 0.33810 0.03800
H 	H 	0.53550 0.53450 0.34950 0.03500
C 	C 	0.55720 0.42540 0.33900 -0.10500
H 	H 	0.58440 0.43350 0.34970 0.08500
C 	C 	0.54730 0.35330 0.32460 0.10200
C 	C 	0.57610 0.28420 0.32320 -0.09600
H 	H 	0.56350 0.24070 0.33600 0.05000
H 	H 	0.58050 0.26950 0.29750 0.07100
C 	C 	0.64240 0.32920 0.31970 0.20000
C 	C 	0.93280 0.45750 0.22400 0.06100
H 	H 	0.95560 0.45390 0.20820 0.01400
C 	C 	0.91380 0.52950 0.23320 -0.09300
H 	H 	0.92530 0.57370 0.22270 0.08500
C 	C 	0.88220 0.53910 0.25480 0.05000
H 	H 	0.87040 0.58760 0.25910 0.04800
C 	C 	0.86690 0.47370 0.27100 -0.11400
H 	H 	0.84540 0.47750 0.28810 0.09000
C 	C 	0.88300 0.40210 0.26230 0.12000
C 	C 	0.86650 0.32770 0.27700 -0.09000
H 	H 	0.85540 0.29650 0.25630 0.07000
H 	H 	0.88980 0.29950 0.28920 0.04700
C 	C 	0.79780 0.33520 0.29180 0.23600
C 	C 	0.73970 0.34160 0.38290 -0.04400
C 	C 	0.69880 0.33750 0.37020 -0.02200
H 	H 	0.67690 0.33610 0.38700 0.03300
C 	C 	0.68930 0.33520 0.33180 -0.03000
C 	C 	0.72270 0.33670 0.30790 -0.01400
H 	H 	0.71650 0.33620 0.28230 0.07200
C 	C 	0.76420 0.33880 0.32000 -0.04700
C 	C 	0.77280 0.34160 0.35760 -0.01500
H 	H 	0.80110 0.34350 0.36660 0.05000
Pd	Pd	0.53076 0.84711 0.97087 0.76600
Pd	Pd	0.98110 0.85284 0.99936 0.77500
Pd	Pd	0.72449 0.18988 0.07135 0.76900
Pd	Pd	0.48869 0.25319 0.79091 0.76600
Pd	Pd	0.79061 0.81266 0.64689 0.76800
Pd	Pd	0.94233 0.20466 0.72685 0.76900
Br	Br	0.50175 0.72235 0.98311 -0.32700
Br	Br	0.55702 0.97196 0.95860 -0.37400
Br	Br	0.95111 0.95519 0.96303 -0.36200
Br	Br	0.00994 0.75027 0.03504 -0.34500
Br	Br	0.79404 0.14019 0.06870 -0.35200
Br	Br	0.65477 0.24001 0.07515 -0.33800
Br	Br	0.51464 0.22208 0.73191 -0.36700
Br	Br	0.46373 0.28173 0.85100 -0.36000
Br	Br	0.77776 0.69286 0.61637 -0.35900
Br	Br	0.80332 0.93214 0.67588 -0.36400
Br	Br	0.88860 0.22627 0.68014 -0.35800
Br	Br	0.99511 0.17836 0.77352 -0.37900
O 	O 	0.69710 0.81000 0.00220 -0.22200
O 	O 	0.86750 0.64320 0.03510 -0.22300
O 	O 	0.69960 0.47000 0.05450 -0.20800
O 	O 	0.60620 0.82330 0.83760 -0.20600
O 	O 	0.57490 0.47380 0.74570 -0.22900
O 	O 	0.68360 0.64720 0.70910 -0.23500
O 	O 	0.93330 0.76190 0.89200 -0.22400
O 	O 	0.87620 0.78600 0.77010 -0.21600
O 	O 	0.98480 0.45280 0.81580 -0.22000
O 	O 	0.78860 0.13470 0.93490 -0.22300
O 	O 	0.63760 0.14730 0.78640 -0.20300
O 	O 	0.78380 0.16290 0.75950 -0.22300
N 	N 	0.56150 0.84740 0.02050 -0.21600
N 	N 	0.64830 0.71660 0.00790 -0.18700
H 	H 	0.64450 0.66920 0.01460 0.12100
N 	N 	0.94130 0.87440 0.04030 -0.21300
N 	N 	0.84950 0.75300 0.01040 -0.21300
H 	H 	0.82880 0.78200 0.00220 0.13000
N 	N 	0.74650 0.26610 0.10890 -0.20600
N 	N 	0.76480 0.42760 0.04780 -0.20000
H 	H 	0.79090 0.43820 0.04290 0.12400
N 	N 	0.49850 0.84410 0.92000 -0.23000
N 	N 	0.56860 0.73930 0.86770 -0.17500
H 	H 	0.55840 0.69300 0.86830 0.11900
N 	N 	0.46650 0.35720 0.77270 -0.20100
N 	N 	0.55040 0.48500 0.80190 -0.19900
H 	H 	0.54760 0.51380 0.82130 0.12300
N 	N 	0.72780 0.83360 0.64620 -0.23700
N 	N 	0.69610 0.75870 0.73310 -0.24200
H 	H 	0.69170 0.79320 0.74990 0.13300
N 	N 	0.02310 0.83350 0.96240 -0.23600
N 	N 	0.98010 0.67240 0.90720 -0.20300
H 	H 	0.99250 0.62820 0.90460 0.12600
N 	N 	0.85200 0.78790 0.65000 -0.22200
N 	N 	0.86930 0.69000 0.73580 -0.19300
H 	H 	0.87410 0.64160 0.73190 0.11900
N 	N 	0.96950 0.30380 0.71340 -0.23900
N 	N 	0.92910 0.43860 0.77870 -0.19200
H 	H 	0.90470 0.45720 0.77120 0.11900
N 	N 	0.70120 0.10840 0.03700 -0.21900
N 	N 	0.72280 0.17510 0.94360 -0.19300
H 	H 	0.69910 0.19060 0.93310 0.12000
N 	N 	0.50710 0.14960 0.80850 -0.20100
N 	N 	0.61410 0.19500 0.84060 -0.20300
H 	H 	0.61830 0.19840 0.86440 0.12300
N 	N 	0.91550 0.10430 0.73970 -0.20200
N 	N 	0.83500 0.16110 0.80160 -0.21800
H 	H 	0.84180 0.15130 0.82460 0.12900
C 	C 	0.54550 0.88760 0.05250 0.11200
H 	H 	0.52050 0.91610 0.04850 0.00600
C 	C 	0.56140 0.88820 0.08460 -0.19700
H 	H 	0.54910 0.91760 0.10310 0.10900
C 	C 	0.59460 0.84820 0.09200 0.14100
H 	H 	0.60720 0.84840 0.11590 -0.00000
C 	C 	0.61140 0.80600 0.06510 -0.18500
H 	H 	0.63490 0.77490 0.07110 0.11200
C 	C 	0.59570 0.80610 0.02900 0.15500
C 	C 	0.61220 0.76250 0.99770 -0.13200
H 	H 	0.62000 0.79850 0.97830 0.07000
H 	H 	0.58980 0.72920 0.98740 0.06900
C 	C 	0.68880 0.74510 0.00760 0.21400
C 	C 	0.95080 0.92320 0.06730 0.10000
H 	H 	0.97670 0.94940 0.06690 0.00800
C 	C 	0.92600 0.93660 0.09430 -0.14100
H 	H 	0.93230 0.97610 0.11120 0.09000
C 	C 	0.88960 0.89140 0.09800 0.07400
H 	H 	0.87420 0.89390 0.11970 0.02500
C 	C 	0.87670 0.84430 0.07020 -0.13900
H 	H 	0.85040 0.81950 0.06980 0.10600
C 	C 	0.90560 0.83490 0.04170 0.12100
C 	C 	0.89110 0.78310 0.00970 -0.10100
H 	H 	0.91090 0.74000 0.00870 0.07100
H 	H 	0.89350 0.81210 0.98670 0.05900
C 	C 	0.84050 0.68880 0.02180 0.23400
C 	C 	0.74770 0.24430 0.14490 0.09800
H 	H 	0.73620 0.19710 0.15190 -0.00100
C 	C 	0.76530 0.29020 0.16990 -0.13200
H 	H 	0.76960 0.27300 0.19430 0.10500
C 	C 	0.77680 0.36030 0.16090 0.07700
H 	H 	0.78730 0.39290 0.17980 0.04600
C 	C 	0.77390 0.38860 0.12440 -0.12200
H 	H 	0.78260 0.43850 0.11840 0.09800
C 	C 	0.75740 0.33760 0.09780 0.12300
C 	C 	0.75430 0.35330 0.05730 -0.09900
H 	H 	0.72520 0.34290 0.04820 0.06900
H 	H 	0.77300 0.31790 0.04470 0.05500
C 	C 	0.73710 0.48080 0.04620 0.20700
C 	C 	0.72280 0.68630 0.01580 -0.04400
C 	C 	0.76400 0.71090 0.01610 -0.00800
H 	H 	0.76950 0.76300 0.01180 0.05200
C 	C 	0.79850 0.66030 0.02270 -0.06600
C 	C 	0.79020 0.58780 0.03180 -0.00800
H 	H 	0.81280 0.55420 0.03730 0.04800
C 	C 	0.74930 0.56100 0.03340 -0.04700
C 	C 	0.71470 0.60920 0.02460 -0.01900
H 	H 	0.68680 0.59040 0.02460 0.05000
C 	C 	0.05840 0.88010 0.96150 0.10700
H 	H 	0.05990 0.92020 0.97890 0.00600
C 	C 	0.08940 0.87490 0.93980 -0.16800
H 	H 	0.11270 0.90830 0.94190 0.11700
C 	C 	0.08730 0.81980 0.91400 0.10300
H 	H 	0.10920 0.81360 0.89740 0.03100
C 	C 	0.05190 0.77160 0.91230 -0.18500
H 	H 	0.04880 0.73320 0.89420 0.11200
C 	C 	0.02250 0.78300 0.93790 0.18500
C 	C 	0.98680 0.72810 0.93970 -0.16600
H 	H 	0.99080 0.69770 0.96230 0.09200
H 	H 	0.96070 0.75760 0.94210 0.08500
C 	C 	0.95340 0.70240 0.88520 0.22000
C 	C 	0.87370 0.81770 0.62280 0.09000
H 	H 	0.85840 0.84640 0.60480 0.00200
C 	C 	0.91710 0.81040 0.61850 -0.13600
H 	H 	0.93100 0.82690 0.59740 0.10500
C 	C 	0.93720 0.77700 0.64800 0.08600
H 	H 	0.96660 0.76990 0.64800 0.02900
C 	C 	0.91510 0.75310 0.67800 -0.16400
H 	H 	0.93050 0.73430 0.69880 0.12000
C 	C 	0.87110 0.75560 0.67930 0.15700
C 	C 	0.84490 0.72790 0.70630 -0.14900
H 	H 	0.82900 0.77060 0.71660 0.07900
H 	H 	0.82460 0.69170 0.69510 0.07100
C 	C 	0.88480 0.71570 0.76640 0.22600
C 	C 	0.98860 0.30340 0.68480 0.14500
H 	H 	0.98950 0.25630 0.67220 -0.03000
C 	C 	0.00930 0.36450 0.66840 -0.18300
H 	H 	0.02370 0.35970 0.64620 0.11500
C 	C 	0.00700 0.43230 0.68750 0.11800
H 	H 	0.02220 0.47520 0.67950 0.00800
C 	C 	0.98390 0.43820 0.71660 -0.18600
H 	H 	0.97970 0.48570 0.72820 0.11300
C 	C 	0.96570 0.37100 0.72990 0.15300
C 	C 	0.94090 0.36230 0.76460 -0.12900
H 	H 	0.95820 0.33520 0.78350 0.08800
H 	H 	0.91540 0.33200 0.75930 0.05100
C 	C 	0.95270 0.48130 0.80190 0.21800
C 	C 	0.93840 0.66240 0.84870 -0.05600
C 	C 	0.91490 0.70340 0.82470 0.01300
H 	H 	0.90620 0.75360 0.83010 0.05900
C 	C 	0.90430 0.67000 0.79290 -0.08700
C 	C 	0.91680 0.59990 0.78430 0.02500
H 	H 	0.91010 0.58000 0.76070 0.02000
C 	C 	0.93850 0.55790 0.80860 -0.07700
C 	C 	0.95090 0.59070 0.84250 -0.00000
H 	H 	0.96740 0.56340 0.86020 0.04200
C 	C 	0.46060 0.87690 0.92050 0.12500
H 	H 	0.45100 0.89960 0.94220 -0.01100
C 	C 	0.43710 0.87680 0.89010 -0.17300
H 	H 	0.40980 0.89840 0.88960 0.10300
C 	C 	0.45280 0.84490 0.85920 0.12100
H 	H 	0.43600 0.84360 0.83720 0.01300
C 	C 	0.49340 0.81420 0.85960 -0.21600
H 	H 	0.50490 0.79210 0.83860 0.13700
C 	C 	0.51410 0.81820 0.89090 0.19600
C 	C 	0.55790 0.78700 0.89760 -0.14500
H 	H 	0.55910 0.75750 0.92060 0.05600
H 	H 	0.57810 0.82930 0.90010 0.08400
C 	C 	0.59300 0.75580 0.83770 0.18300
C 	C 	0.42640 0.36100 0.75510 0.05300
H 	H 	0.41190 0.31550 0.74880 0.00800
C 	C 	0.40800 0.43040 0.74690 -0.09400
H 	H 	0.38000 0.43110 0.73740 0.07700
C 	C 	0.42890 0.49940 0.75200 0.04100
H 	H 	0.41830 0.54610 0.74260 0.04600
C 	C 	0.46630 0.49370 0.77170 -0.11500
H 	H 	0.47890 0.53860 0.78130 0.09500
C 	C 	0.48730 0.42170 0.77840 0.12400
C 	C 	0.53010 0.40980 0.79950 -0.11300
H 	H 	0.54780 0.37380 0.78620 0.06600
H 	H 	0.52570 0.38930 0.82420 0.06500
C 	C 	0.57290 0.50850 0.77410 0.22800
C 	C 	0.71260 0.87530 0.61860 0.11900
H 	H 	0.73120 0.89690 0.60180 -0.01200
C 	C 	0.66990 0.88770 0.61410 -0.18300
H 	H 	0.65840 0.91550 0.59390 0.11300
C 	C 	0.64490 0.85750 0.64060 0.14800
H 	H 	0.61540 0.86260 0.63750 0.00900
C 	C 	0.65940 0.82320 0.66880 -0.23200
H 	H 	0.64230 0.80760 0.68820 0.12300
C 	C 	0.70130 0.81070 0.66910 0.19500
C 	C 	0.72330 0.76890 0.70080 -0.14700
H 	H 	0.74870 0.79760 0.70870 0.06200
H 	H 	0.73230 0.71850 0.69220 0.09000
C 	C 	0.68230 0.69900 0.73260 0.27300
C 	C 	0.60810 0.70290 0.80910 -0.04100
C 	C 	0.58360 0.62980 0.80560 -0.01900
H 	H 	0.56070 0.61890 0.82050 0.03800
C 	C 	0.59690 0.58000 0.77940 -0.06000
C 	C 	0.62580 0.60530 0.75660 0.00400
H 	H 	0.63110 0.57310 0.73650 0.06200
C 	C 	0.64900 0.67220 0.75830 -0.06800
C 	C 	0.63950 0.72090 0.78440 -0.00900
H 	H 	0.65400 0.76790 0.78660 0.03900
C 	C 	0.67920 0.05930 0.05600 0.11300
H 	H 	0.67390 0.06740 0.08100 -0.01600
C 	C 	0.66550 -0.00000 0.03870 -0.14600
H 	H 	0.65320 0.96020 0.05220 0.09400
C 	C 	0.66790 0.99230 0.00110 0.09500
H 	H 	0.65470 0.95020 0.98920 0.02400
C 	C 	0.68910 0.04490 0.98070 -0.16500
H 	H 	0.69220 0.04010 0.95510 0.10700
C 	C 	0.70490 0.10280 0.00010 0.15200
C 	C 	0.72790 0.17000 0.98310 -0.12500
H 	H 	0.75810 0.16590 0.98970 0.09200
H 	H 	0.71750 0.21760 0.99400 0.05700
C 	C 	0.75600 0.15490 0.92330 0.22900
C 	C 	0.47840 0.09210 0.80900 0.06700
H 	H 	0.45050 0.10220 0.80060 0.00900
C 	C 	0.48840 0.01810 0.82150 -0.10400
H 	H 	0.46980 0.97640 0.81860 0.08400
C 	C 	0.52760 0.01210 0.83810 0.04100
H 	H 	0.53550 0.96550 0.84950 0.03300
C 	C 	0.55720 0.07460 0.83900 -0.10600
H 	H 	0.58440 0.06650 0.84970 0.08600
C 	C 	0.54730 0.14670 0.82460 0.10300
C 	C 	0.57610 0.21580 0.82320 -0.09600
H 	H 	0.56350 0.25930 0.83600 0.04900
H 	H 	0.58050 0.23050 0.79750 0.07100
C 	C 	0.64240 0.17080 0.81970 0.20000
C 	C 	0.93280 0.04250 0.72400 0.06400
H 	H 	0.95560 0.04610 0.70820 0.01400
C 	C 	0.91380 0.97050 0.73320 -0.09500
H 	H 	0.92530 0.92630 0.72270 0.08600
C 	C 	0.88220 0.96090 0.75480 0.04700
H 	H 	0.87040 0.91240 0.75910 0.04800
C 	C 	0.86690 0.02630 0.77100 -0.11100
H 	H 	0.84540 0.02250 0.78810 0.08900
C 	C 	0.88300 0.09790 0.76230 0.11900
C 	C 	0.86650 0.17230 0.77700 -0.08900
H 	H 	0.85540 0.20350 0.75630 0.07000
H 	H 	0.88980 0.20050 0.78920 0.04700
C 	C 	0.79780 0.16480 0.79180 0.23600
C 	C 	0.73970 0.15840 0.88290 -0.04300
C 	C 	0.69880 0.16250 0.87020 -0.02200
H 	H 	0.67690 0.16390 0.88700 0.03300
C 	C 	0.68930 0.16480 0.83180 -0.03000
C 	C 	0.72270 0.16330 0.80790 -0.01400
H 	H 	0.71650 0.16380 0.78230 0.07200
C 	C 	0.76420 0.16120 0.82000 -0.04700
C 	C 	0.77280 0.15840 0.85760 -0.01500
H 	H 	0.80110 0.15650 0.86660 0.05000
Pd	Pd	0.46924 0.34711 0.52913 0.76600
Pd	Pd	0.01890 0.35284 0.50064 0.77500
Pd	Pd	0.27551 0.68988 0.42865 0.76900
Pd	Pd	0.51131 0.75319 0.70909 0.76600
Pd	Pd	0.20939 0.31266 0.85311 0.76800
Pd	Pd	0.05767 0.70466 0.77315 0.76900
Br	Br	0.49825 0.22235 0.51689 -0.32600
Br	Br	0.44298 0.47196 0.54140 -0.37200
Br	Br	0.04889 0.45519 0.53697 -0.36000
Br	Br	0.99006 0.25027 0.46496 -0.34500
Br	Br	0.20596 0.64019 0.43130 -0.35200
Br	Br	0.34523 0.74001 0.42485 -0.33800
Br	Br	0.48536 0.72208 0.76809 -0.36800
Br	Br	0.53627 0.78173 0.64900 -0.36100
Br	Br	0.22224 0.19286 0.88363 -0.35900
Br	Br	0.19668 0.43214 0.82412 -0.36200
Br	Br	0.11140 0.72627 0.81986 -0.35800
Br	Br	0.00489 0.67836 0.72648 -0.37900
O 	O 	0.30290 0.31000 0.49780 -0.22200
O 	O 	0.13250 0.14320 0.46490 -0.22300
O 	O 	0.30040 0.97000 0.44550 -0.20800
O 	O 	0.39380 0.32330 0.66240 -0.20600
O 	O 	0.42510 0.97380 0.75430 -0.23200
O 	O 	0.31640 0.14720 0.79090 -0.23500
O 	O 	0.06670 0.26190 0.60800 -0.22400
O 	O 	0.12380 0.28600 0.72990 -0.21600
O 	O 	0.01520 0.95280 0.68420 -0.22000
O 	O 	0.21140 0.63470 0.56510 -0.22400
O 	O 	0.36240 0.64730 0.71360 -0.20400
O 	O 	0.21620 0.66290 0.74050 -0.22300
N 	N 	0.43850 0.34740 0.47950 -0.21600
N 	N 	0.35170 0.21660 0.49210 -0.18700
H 	H 	0.35550 0.16920 0.48540 0.12100
N 	N 	0.05870 0.37440 0.45970 -0.21300
N 	N 	0.15050 0.25300 0.48960 -0.21200
H 	H 	0.17120 0.28200 0.49780 0.13000
N 	N 	0.25350 0.76610 0.39110 -0.20600
N 	N 	0.23520 0.92760 0.45220 -0.20000
H 	H 	0.20910 0.93820 0.45710 0.12300
N 	N 	0.50150 0.34410 0.58000 -0.23000
N 	N 	0.43140 0.23930 0.63230 -0.17500
H 	H 	0.44160 0.19300 0.63170 0.11900
N 	N 	0.53350 0.85720 0.72730 -0.20100
N 	N 	0.44960 0.98500 0.69810 -0.20200
H 	H 	0.45240 0.01380 0.67870 0.12500
N 	N 	0.27220 0.33360 0.85380 -0.23700
N 	N 	0.30390 0.25870 0.76690 -0.24200
H 	H 	0.30830 0.29320 0.75010 0.13300
N 	N 	0.97690 0.33350 0.53760 -0.23600
N 	N 	0.01990 0.17240 0.59280 -0.20300
H 	H 	0.00750 0.12820 0.59540 0.12600
N 	N 	0.14800 0.28790 0.85000 -0.22200
N 	N 	0.13070 0.19000 0.76420 -0.19200
H 	H 	0.12590 0.14160 0.76810 0.12000
N 	N 	0.03050 0.80380 0.78660 -0.23900
N 	N 	0.07090 0.93860 0.72130 -0.19100
H 	H 	0.09530 0.95720 0.72880 0.11900
N 	N 	0.29880 0.60840 0.46300 -0.22100
N 	N 	0.27720 0.67510 0.55640 -0.19300
H 	H 	0.30090 0.69060 0.56690 0.12000
N 	N 	0.49290 0.64960 0.69150 -0.20100
N 	N 	0.38590 0.69500 0.65940 -0.20300
H 	H 	0.38170 0.69840 0.63560 0.12300
N 	N 	0.08450 0.60430 0.76030 -0.20200
N 	N 	0.16500 0.66110 0.69840 -0.21800
H 	H 	0.15820 0.65130 0.67540 0.12900
C 	C 	0.45450 0.38760 0.44750 0.11200
H 	H 	0.47950 0.41610 0.45150 0.00600
C 	C 	0.43860 0.38820 0.41540 -0.19700
H 	H 	0.45090 0.41760 0.39690 0.10900
C 	C 	0.40540 0.34820 0.40800 0.14100
H 	H 	0.39280 0.34840 0.38410 -0.00000
C 	C 	0.38860 0.30600 0.43490 -0.18500
H 	H 	0.36510 0.27490 0.42890 0.11200
C 	C 	0.40430 0.30610 0.47100 0.15500
C 	C 	0.38780 0.26250 0.50230 -0.13100
H 	H 	0.38000 0.29850 0.52170 0.07100
H 	H 	0.41020 0.22920 0.51260 0.06900
C 	C 	0.31120 0.24510 0.49240 0.21400
C 	C 	0.04920 0.42320 0.43270 0.10000
H 	H 	0.02330 0.44940 0.43310 0.00800
C 	C 	0.07400 0.43660 0.40570 -0.14100
H 	H 	0.06770 0.47610 0.38880 0.09000
C 	C 	0.11040 0.39140 0.40200 0.07400
H 	H 	0.12580 0.39390 0.38030 0.02500
C 	C 	0.12330 0.34430 0.42980 -0.13900
H 	H 	0.14960 0.31950 0.43020 0.10600
C 	C 	0.09440 0.33490 0.45830 0.12100
C 	C 	0.10890 0.28310 0.49030 -0.10100
H 	H 	0.08910 0.24000 0.49130 0.07100
H 	H 	0.10650 0.31210 0.51330 0.06000
C 	C 	0.15950 0.18880 0.47820 0.23300
C 	C 	0.25230 0.74430 0.35510 0.09800
H 	H 	0.26380 0.69710 0.34810 -0.00100
C 	C 	0.23470 0.79020 0.33010 -0.13200
H 	H 	0.23040 0.77300 0.30570 0.10500
C 	C 	0.22320 0.86030 0.33910 0.07700
H 	H 	0.21270 0.89290 0.32020 0.04600
C 	C 	0.22610 0.88860 0.37560 -0.12300
H 	H 	0.21740 0.93850 0.38160 0.09700
C 	C 	0.24260 0.83760 0.40220 0.12200
C 	C 	0.24570 0.85330 0.44270 -0.09900
H 	H 	0.27480 0.84290 0.45180 0.06800
H 	H 	0.22700 0.81790 0.45530 0.05500
C 	C 	0.26290 0.98080 0.45380 0.20400
C 	C 	0.27720 0.18630 0.48420 -0.04300
C 	C 	0.23600 0.21090 0.48390 -0.00900
H 	H 	0.23050 0.26300 0.48820 0.05300
C 	C 	0.20150 0.16030 0.47730 -0.06500
C 	C 	0.20980 0.08780 0.46820 -0.01000
H 	H 	0.18720 0.05420 0.46270 0.04900
C 	C 	0.25070 0.06100 0.46660 -0.04400
C 	C 	0.28530 0.10920 0.47540 -0.02000
H 	H 	0.31320 0.09040 0.47540 0.05100
C 	C 	0.94160 0.38010 0.53850 0.10800
H 	H 	0.94010 0.42020 0.52110 0.00600
C 	C 	0.91060 0.37490 0.56020 -0.16800
H 	H 	0.88730 0.40830 0.55810 0.11800
C 	C 	0.91270 0.31980 0.58600 0.10300
H 	H 	0.89080 0.31360 0.60260 0.03100
C 	C 	0.94810 0.27160 0.58770 -0.18400
H 	H 	0.95120 0.23320 0.60580 0.11200
C 	C 	0.97750 0.28300 0.56210 0.18500
C 	C 	0.01320 0.22810 0.56030 -0.16600
H 	H 	0.00920 0.19770 0.53770 0.09200
H 	H 	0.03930 0.25760 0.55790 0.08500
C 	C 	0.04660 0.20240 0.61480 0.21900
C 	C 	0.12630 0.31770 0.87720 0.09000
H 	H 	0.14160 0.34640 0.89520 0.00200
C 	C 	0.08290 0.31040 0.88150 -0.13600
H 	H 	0.06900 0.32690 0.90260 0.10500
C 	C 	0.06280 0.27700 0.85200 0.08600
H 	H 	0.03340 0.26990 0.85200 0.02900
C 	C 	0.08490 0.25310 0.82200 -0.16400
H 	H 	0.06950 0.23430 0.80120 0.12000
C 	C 	0.12890 0.25560 0.82070 0.15700
C 	C 	0.15510 0.22790 0.79370 -0.14900
H 	H 	0.17100 0.27060 0.78340 0.08000
H 	H 	0.17540 0.19170 0.80490 0.07100
C 	C 	0.11520 0.21570 0.73360 0.22500
C 	C 	0.01140 0.80340 0.81520 0.14500
H 	H 	0.01050 0.75630 0.82780 -0.03000
C 	C 	0.99070 0.86450 0.83160 -0.18300
H 	H 	0.97630 0.85970 0.85380 0.11500
C 	C 	0.99300 0.93230 0.81250 0.11700
H 	H 	0.97780 0.97520 0.82050 0.00800
C 	C 	0.01610 0.93820 0.78340 -0.18600
H 	H 	0.02030 0.98570 0.77180 0.11200
C 	C 	0.03430 0.87100 0.77010 0.15300
C 	C 	0.05910 0.86230 0.73540 -0.12900
H 	H 	0.04180 0.83520 0.71650 0.08800
H 	H 	0.08460 0.83200 0.74070 0.05000
C 	C 	0.04730 0.98130 0.69810 0.21600
C 	C 	0.06160 0.16240 0.65130 -0.05400
C 	C 	0.08510 0.20340 0.67530 0.01200
H 	H 	0.09380 0.25360 0.66990 0.06000
C 	C 	0.09570 0.17000 0.70710 -0.08500
C 	C 	0.08320 0.09990 0.71570 0.02300
H 	H 	0.08990 0.08000 0.73930 0.02100
C 	C 	0.06150 0.05790 0.69140 -0.07400
C 	C 	0.04910 0.09070 0.65750 -0.00200
H 	H 	0.03260 0.06340 0.63980 0.04300
C 	C 	0.53940 0.37690 0.57950 0.12500
H 	H 	0.54900 0.39960 0.55780 -0.01100
C 	C 	0.56290 0.37680 0.60990 -0.17200
H 	H 	0.59020 0.39840 0.61040 0.10400
C 	C 	0.54720 0.34490 0.64080 0.12200
H 	H 	0.56400 0.34360 0.66280 0.01300
C 	C 	0.50660 0.31420 0.64040 -0.21600
H 	H 	0.49510 0.29210 0.66140 0.13700
C 	C 	0.48590 0.31820 0.60910 0.19600
C 	C 	0.44210 0.28700 0.60240 -0.14500
H 	H 	0.44090 0.25750 0.57940 0.05700
H 	H 	0.42190 0.32930 0.59990 0.08400
C 	C 	0.40700 0.25580 0.66230 0.18300
C 	C 	0.57360 0.86100 0.74490 0.05200
H 	H 	0.58810 0.81550 0.75120 0.00900
C 	C 	0.59200 0.93040 0.75310 -0.09200
H 	H 	0.62000 0.93110 0.76260 0.07500
C 	C 	0.57110 0.99940 0.74800 0.03700
H 	H 	0.58170 0.04610 0.75740 0.04800
C 	C 	0.53370 0.99370 0.72830 -0.11700
H 	H 	0.52110 0.03860 0.71870 0.09700
C 	C 	0.51270 0.92170 0.72160 0.12300
C 	C 	0.46990 0.90980 0.70050 -0.11200
H 	H 	0.45220 0.87380 0.71380 0.06600
H 	H 	0.47430 0.88930 0.67580 0.06400
C 	C 	0.42710 0.00850 0.72590 0.23300
C 	C 	0.28740 0.37530 0.88140 0.11900
H 	H 	0.26880 0.39690 0.89820 -0.01200
C 	C 	0.33010 0.38770 0.88590 -0.18300
H 	H 	0.34160 0.41550 0.90610 0.11300
C 	C 	0.35510 0.35750 0.85940 0.14800
H 	H 	0.38460 0.36260 0.86250 0.00900
C 	C 	0.34060 0.32320 0.83120 -0.23200
H 	H 	0.35770 0.30760 0.81180 0.12300
C 	C 	0.29870 0.31070 0.83090 0.19500
C 	C 	0.27670 0.26890 0.79920 -0.14700
H 	H 	0.25130 0.29760 0.79130 0.06200
H 	H 	0.26770 0.21850 0.80780 0.09000
C 	C 	0.31770 0.19900 0.76740 0.27300
C 	C 	0.39190 0.20290 0.69090 -0.04100
C 	C 	0.41640 0.12980 0.69440 -0.01800
H 	H 	0.43930 0.11890 0.67950 0.03800
C 	C 	0.40310 0.08000 0.72060 -0.06200
C 	C 	0.37420 0.10530 0.74340 0.00500
H 	H 	0.36890 0.07310 0.76350 0.06200
C 	C 	0.35100 0.17220 0.74170 -0.06800
C 	C 	0.36050 0.22090 0.71560 -0.00800
H 	H 	0.34600 0.26790 0.71340 0.03900
C 	C 	0.32080 0.55930 0.44400 0.12300
H 	H 	0.32610 0.56740 0.41900 -0.02000
C 	C 	0.33450 0.50000 0.46130 -0.16400
H 	H 	0.34680 0.46020 0.44780 0.10200
C 	C 	0.33210 0.49230 0.49890 0.11100
H 	H 	0.34530 0.45020 0.51080 0.01900
C 	C 	0.31090 0.54490 0.51930 -0.17600
H 	H 	0.30780 0.54010 0.54490 0.11000
C 	C 	0.29510 0.60280 0.49990 0.15700
C 	C 	0.27210 0.67000 0.51690 -0.12700
H 	H 	0.24190 0.66590 0.51030 0.09300
H 	H 	0.28250 0.71760 0.50600 0.05800
C 	C 	0.24400 0.65490 0.57670 0.22800
C 	C 	0.52160 0.59210 0.69100 0.06800
H 	H 	0.54950 0.60220 0.69940 0.00800
C 	C 	0.51160 0.51810 0.67850 -0.10700
H 	H 	0.53020 0.47640 0.68140 0.08600
C 	C 	0.47240 0.51210 0.66190 0.03800
H 	H 	0.46450 0.46550 0.65050 0.03500
C 	C 	0.44280 0.57460 0.66100 -0.10500
H 	H 	0.41560 0.56650 0.65030 0.08500
C 	C 	0.45270 0.64670 0.67540 0.10200
C 	C 	0.42390 0.71580 0.67680 -0.09600
H 	H 	0.43650 0.75930 0.66400 0.04900
H 	H 	0.41950 0.73050 0.70250 0.07100
C 	C 	0.35760 0.67080 0.68030 0.20000
C 	C 	0.06720 0.54250 0.77600 0.06100
H 	H 	0.04440 0.54610 0.79180 0.01400
C 	C 	0.08620 0.47050 0.76680 -0.09300
H 	H 	0.07470 0.42630 0.77730 0.08500
C 	C 	0.11780 0.46090 0.74520 0.05000
H 	H 	0.12960 0.41240 0.74090 0.04800
C 	C 	0.13310 0.52630 0.72900 -0.11400
H 	H 	0.15460 0.52250 0.71190 0.09000
C 	C 	0.11700 0.59790 0.73770 0.12000
C 	C 	0.13350 0.67230 0.72300 -0.08900
H 	H 	0.14460 0.70350 0.74370 0.07000
H 	H 	0.11020 0.70050 0.71080 0.04700
C 	C 	0.20220 0.66480 0.70820 0.23600
C 	C 	0.26030 0.65840 0.61710 -0.04400
C 	C 	0.30120 0.66250 0.62980 -0.02200
H 	H 	0.32310 0.66390 0.61300 0.03300
C 	C 	0.31070 0.66480 0.66820 -0.03000
C 	C 	0.27730 0.66330 0.69210 -0.01400
H 	H 	0.28350 0.66380 0.71770 0.07200
C 	C 	0.23580 0.66120 0.68000 -0.04800
C 	C 	0.22720 0.65840 0.64240 -0.01500
H 	H 	0.19890 0.65650 0.63340 0.05000
