data_crystal

_cell_length_a 18.90520
_cell_length_b 18.90520
_cell_length_c 16.53150
_cell_angle_alpha 90.00000
_cell_angle_beta  90.00000
_cell_angle_gamma 90.00000

_symmetry_space_group_name_	'P 1'
_symmetry_space_group_name_H-M	'P 1'

loop_
_symmetry_equiv_pos_as_xyz
  x,y,z

loop_
_atom_site_label
_atom_site_type_symbol
_atom_site_fract_x
_atom_site_fract_y
_atom_site_fract_z
_atom_site_charge
Ir	Ir	0.01046 0.83387 0.04941 0.28700
N 	N 	0.01800 0.89520 0.15260 -0.15000
N 	N 	0.90190 0.85700 0.04910 -0.15800
N 	N 	0.74520 0.98210 0.36760 -0.13900
C 	C 	0.07740 0.91300 0.19010 0.04700
H 	H 	0.12290 0.90430 0.16790 -0.02000
C 	C 	0.06700 0.94690 0.26790 -0.04500
H 	H 	0.10160 0.96410 0.30470 0.02800
C 	C 	0.99420 0.94800 0.27520 -0.06400
H 	H 	0.96840 0.96610 0.32000 0.05700
C 	C 	0.96340 0.91660 0.20270 0.14600
C 	C 	0.89320 0.91050 0.18580 -0.12700
C 	C 	0.86350 0.88550 0.11380 0.12400
C 	C 	0.79030 0.87740 0.09480 -0.08200
H 	H 	0.75100 0.88890 0.12800 0.05300
C 	C 	0.78900 0.84990 0.01880 -0.09000
H 	H 	0.74780 0.83940 0.98830 0.05100
C 	C 	0.85550 0.84010 0.99440 0.08100
H 	H 	0.86770 0.82260 0.94240 -0.01700
C 	C 	0.75810 0.02180 0.30230 0.06500
H 	H 	0.73470 0.06590 0.29610 0.02000
C 	C 	0.80670 0.99840 0.24180 -0.14500
H 	H 	0.81350 0.02640 0.19480 0.07300
C 	C 	0.84440 0.93570 0.25030 0.12800
C 	C 	0.83300 0.89920 0.31960 -0.17700
H 	H 	0.85880 0.85710 0.33020 0.08700
C 	C 	0.78310 0.92380 0.37560 0.10600
H 	H 	0.77590 0.89640 0.42310 0.00900
C 	C 	0.02480 0.85800 0.92330 0.08800
C 	C 	0.08360 0.88410 0.96780 -0.53300
C 	C 	0.11960 0.82520 0.00200 0.83700
C 	C 	0.08310 0.76270 0.97870 -0.21800
C 	C 	0.02440 0.78300 0.93010 0.11200
C 	C 	0.97190 0.90210 0.87700 1.02300
H 	H 	0.99700 0.93260 0.83850 -0.91200
H 	H 	0.94490 0.93150 0.91490 -0.25100
H 	H 	0.93950 0.87100 0.84750 0.09800
C 	C 	0.10420 0.96090 0.97710 0.57300
H 	H 	0.13560 0.97450 0.93260 -0.09300
H 	H 	0.12880 0.96750 0.02870 -0.52500
H 	H 	0.06170 0.99040 0.97590 -0.05400
C 	C 	0.18530 0.82850 0.05410 -3.23000
H 	H 	0.17550 0.80680 0.10670 1.51100
H 	H 	0.19910 0.87800 0.06190 0.89200
H 	H 	0.22380 0.80290 0.02730 0.36600
C 	C 	0.10300 0.68800 0.00160 -0.20100
H 	H 	0.13590 0.66880 0.96140 0.20700
H 	H 	0.06030 0.65850 0.00350 1.03600
H 	H 	0.12570 0.68800 0.05490 0.09400
C 	C 	0.97110 0.73350 0.89220 -0.08800
H 	H 	0.94180 0.75970 0.85350 0.30800
H 	H 	0.94090 0.71330 0.93450 -0.10100
H 	H 	0.99600 0.69530 0.86390 -0.01700
C 	C 	0.04780 0.87260 0.92470 -0.73200
C 	C 	0.10020 0.88930 0.98400 0.32200
C 	C 	0.12030 0.82510 0.02340 0.07100
C 	C 	0.08030 0.76870 0.98830 -0.03900
C 	C 	0.03550 0.79810 0.92740 0.23800
C 	C 	0.01160 0.92490 0.86860 1.96300
H 	H 	0.00510 0.97000 0.89680 -0.48800
H 	H 	0.96540 0.90610 0.85240 -0.94400
H 	H 	0.04090 0.93230 0.82050 -0.21900
C 	C 	0.12940 0.96250 0.00210 0.02500
H 	H 	0.11980 0.97460 0.05870 0.37400
H 	H 	0.10670 0.99720 0.96660 -0.17100
H 	H 	0.18060 0.96280 0.99260 0.01200
C 	C 	0.17460 0.81800 0.09060 -0.21200
H 	H 	0.22200 0.81420 0.06700 0.95400
H 	H 	0.16440 0.77540 0.12250 -0.72900
H 	H 	0.17240 0.85970 0.12570 -0.07700
C 	C 	0.08470 0.69110 0.01180 -0.23900
H 	H 	0.12040 0.66750 0.97840 -0.16200
H 	H 	0.03860 0.66870 0.00320 -0.83500
H 	H 	0.09780 0.68720 0.06900 0.04800
C 	C 	0.98390 0.75720 0.87460 -0.86300
H 	H 	0.00650 0.74580 0.82290 0.24000
H 	H 	0.94180 0.78620 0.86490 0.00200
H 	H 	0.97020 0.71340 0.90210 0.40500
Ir	Ir	0.48954 0.66613 0.04941 0.28400
N 	N 	0.48200 0.60480 0.15260 -0.14900
N 	N 	0.59810 0.64300 0.04910 -0.15700
N 	N 	0.75480 0.51790 0.36760 -0.14400
C 	C 	0.42260 0.58700 0.19010 0.04100
H 	H 	0.37710 0.59570 0.16790 -0.01900
C 	C 	0.43300 0.55310 0.26790 -0.03500
H 	H 	0.39840 0.53590 0.30470 0.02400
C 	C 	0.50580 0.55200 0.27520 -0.08000
H 	H 	0.53160 0.53390 0.32000 0.05700
C 	C 	0.53660 0.58340 0.20270 0.14200
C 	C 	0.60680 0.58950 0.18580 -0.13300
C 	C 	0.63650 0.61450 0.11380 0.12500
C 	C 	0.70970 0.62260 0.09480 -0.08900
H 	H 	0.74900 0.61110 0.12800 0.05500
C 	C 	0.71100 0.65010 0.01880 -0.07900
H 	H 	0.75220 0.66060 0.98830 0.04600
C 	C 	0.64450 0.65990 0.99440 0.06900
H 	H 	0.63230 0.67740 0.94240 -0.01400
C 	C 	0.74190 0.47820 0.30230 0.08100
H 	H 	0.76530 0.43410 0.29610 0.01500
C 	C 	0.69330 0.50160 0.24180 -0.16500
H 	H 	0.68650 0.47360 0.19480 0.08200
C 	C 	0.65560 0.56430 0.25030 0.13600
C 	C 	0.66700 0.60080 0.31960 -0.18300
H 	H 	0.64120 0.64290 0.33020 0.08900
C 	C 	0.71690 0.57620 0.37560 0.11000
H 	H 	0.72410 0.60360 0.42310 0.00700
C 	C 	0.47520 0.64200 0.92330 0.10600
C 	C 	0.41640 0.61590 0.96780 -0.51200
C 	C 	0.38040 0.67480 0.00200 0.83800
C 	C 	0.41690 0.73730 0.97870 -0.21500
C 	C 	0.47560 0.71700 0.93010 0.08800
C 	C 	0.52810 0.59790 0.87700 0.95100
H 	H 	0.50300 0.56740 0.83850 -0.82700
H 	H 	0.55510 0.56850 0.91490 -0.23700
H 	H 	0.56050 0.62900 0.84750 0.08500
C 	C 	0.39580 0.53910 0.97710 0.54500
H 	H 	0.36440 0.52550 0.93260 -0.08600
H 	H 	0.37120 0.53250 0.02870 -0.50100
H 	H 	0.43830 0.50960 0.97590 -0.05000
C 	C 	0.31470 0.67150 0.05410 -3.21900
H 	H 	0.32450 0.69320 0.10670 1.50600
H 	H 	0.30090 0.62200 0.06190 0.89000
H 	H 	0.27620 0.69710 0.02730 0.36400
C 	C 	0.39700 0.81200 0.00160 -0.20500
H 	H 	0.36410 0.83120 0.96140 0.21800
H 	H 	0.43970 0.84150 0.00350 1.05900
H 	H 	0.37430 0.81200 0.05490 0.09500
C 	C 	0.52890 0.76650 0.89220 -0.09300
H 	H 	0.55820 0.74030 0.85350 0.30800
H 	H 	0.55910 0.78670 0.93450 -0.10400
H 	H 	0.50400 0.80470 0.86390 -0.02100
C 	C 	0.45220 0.62740 0.92470 -0.69500
C 	C 	0.39980 0.61070 0.98400 0.29200
C 	C 	0.37970 0.67490 0.02340 0.06700
C 	C 	0.41970 0.73130 0.98830 -0.03600
C 	C 	0.46450 0.70190 0.92740 0.25600
C 	C 	0.48840 0.57510 0.86860 1.76200
H 	H 	0.49490 0.53000 0.89680 -0.43100
H 	H 	0.53460 0.59390 0.85240 -0.87000
H 	H 	0.45910 0.56770 0.82050 -0.18800
C 	C 	0.37060 0.53750 0.00210 0.02700
H 	H 	0.38020 0.52540 0.05870 0.35700
H 	H 	0.39330 0.50280 0.96660 -0.16300
H 	H 	0.31940 0.53720 0.99260 0.01000
C 	C 	0.32540 0.68200 0.09060 -0.21100
H 	H 	0.27800 0.68580 0.06700 0.95000
H 	H 	0.33560 0.72460 0.12250 -0.72700
H 	H 	0.32760 0.64030 0.12570 -0.07700
C 	C 	0.41530 0.80890 0.01180 -0.24400
H 	H 	0.37960 0.83250 0.97840 -0.17100
H 	H 	0.46140 0.83130 0.00320 -0.85400
H 	H 	0.40220 0.81280 0.06900 0.04800
C 	C 	0.51610 0.74280 0.87460 -0.87300
H 	H 	0.49350 0.75420 0.82290 0.24900
H 	H 	0.55820 0.71380 0.86490 0.00500
H 	H 	0.52980 0.78660 0.90210 0.41500
Ir	Ir	0.83387 0.48954 0.45059 0.28500
N 	N 	0.89520 0.48200 0.34740 -0.14900
N 	N 	0.85700 0.59810 0.45090 -0.15500
N 	N 	0.98210 0.75480 0.13240 -0.14200
C 	C 	0.91300 0.42260 0.30990 0.04100
H 	H 	0.90430 0.37710 0.33210 -0.01900
C 	C 	0.94690 0.43300 0.23210 -0.03500
H 	H 	0.96410 0.39840 0.19530 0.02300
C 	C 	0.94800 0.50580 0.22480 -0.08000
H 	H 	0.96610 0.53160 0.18000 0.05700
C 	C 	0.91660 0.53660 0.29730 0.14100
C 	C 	0.91050 0.60680 0.31420 -0.13200
C 	C 	0.88550 0.63650 0.38620 0.12600
C 	C 	0.87740 0.70970 0.40520 -0.09400
H 	H 	0.88890 0.74900 0.37200 0.05800
C 	C 	0.84990 0.71100 0.48120 -0.06500
H 	H 	0.83940 0.75220 0.51170 0.04100
C 	C 	0.84010 0.64450 0.50560 0.05900
H 	H 	0.82260 0.63230 0.55760 -0.01000
C 	C 	0.02180 0.74190 0.19770 0.07300
H 	H 	0.06590 0.76530 0.20390 0.01700
C 	C 	0.99840 0.69330 0.25820 -0.15500
H 	H 	0.02640 0.68650 0.30520 0.07800
C 	C 	0.93570 0.65560 0.24970 0.13200
C 	C 	0.89920 0.66700 0.18040 -0.18000
H 	H 	0.85710 0.64120 0.16980 0.08800
C 	C 	0.92380 0.71690 0.12440 0.10800
H 	H 	0.89640 0.72410 0.07690 0.00700
C 	C 	0.85800 0.47520 0.57670 0.10500
C 	C 	0.88410 0.41640 0.53220 -0.51100
C 	C 	0.82520 0.38040 0.49800 0.83500
C 	C 	0.76270 0.41690 0.52130 -0.21400
C 	C 	0.78300 0.47560 0.56990 0.08800
C 	C 	0.90210 0.52810 0.62300 0.95300
H 	H 	0.93260 0.50300 0.66150 -0.82900
H 	H 	0.93150 0.55510 0.58510 -0.23700
H 	H 	0.87100 0.56050 0.65250 0.08600
C 	C 	0.96090 0.39580 0.52290 0.54300
H 	H 	0.97450 0.36440 0.56740 -0.08600
H 	H 	0.96750 0.37120 0.47130 -0.50100
H 	H 	0.99040 0.43830 0.52410 -0.04900
C 	C 	0.82850 0.31470 0.44590 -3.20800
H 	H 	0.80680 0.32450 0.39330 1.50100
H 	H 	0.87800 0.30090 0.43810 0.88700
H 	H 	0.80290 0.27620 0.47270 0.36300
C 	C 	0.68800 0.39700 0.49840 -0.20900
H 	H 	0.66880 0.36410 0.53860 0.21900
H 	H 	0.65850 0.43970 0.49650 1.07600
H 	H 	0.68800 0.37430 0.44510 0.09700
C 	C 	0.73350 0.52890 0.60780 -0.09300
H 	H 	0.75970 0.55820 0.64650 0.30800
H 	H 	0.71330 0.55910 0.56550 -0.10500
H 	H 	0.69530 0.50400 0.63610 -0.02100
C 	C 	0.87260 0.45220 0.57530 -0.69500
C 	C 	0.88930 0.39980 0.51600 0.29300
C 	C 	0.82510 0.37970 0.47660 0.06600
C 	C 	0.76870 0.41970 0.51170 -0.03400
C 	C 	0.79810 0.46450 0.57260 0.25500
C 	C 	0.92490 0.48840 0.63140 1.76600
H 	H 	0.97000 0.49490 0.60320 -0.43200
H 	H 	0.90610 0.53460 0.64760 -0.87100
H 	H 	0.93230 0.45910 0.67950 -0.18900
C 	C 	0.96250 0.37060 0.49790 0.02800
H 	H 	0.97460 0.38020 0.44130 0.35600
H 	H 	0.99720 0.39330 0.53340 -0.16200
H 	H 	0.96280 0.31940 0.50740 0.01000
C 	C 	0.81800 0.32540 0.40940 -0.21000
H 	H 	0.81420 0.27800 0.43300 0.94700
H 	H 	0.77540 0.33560 0.37750 -0.72500
H 	H 	0.85970 0.32760 0.37430 -0.07700
C 	C 	0.69110 0.41530 0.48820 -0.24800
H 	H 	0.66750 0.37960 0.52160 -0.17100
H 	H 	0.66870 0.46140 0.49680 -0.86700
H 	H 	0.68720 0.40220 0.43100 0.04800
C 	C 	0.75720 0.51610 0.62540 -0.87300
H 	H 	0.74580 0.49350 0.67710 0.24900
H 	H 	0.78620 0.55820 0.63510 0.00500
H 	H 	0.71340 0.52980 0.59790 0.41500
Ir	Ir	0.66613 0.01046 0.45059 0.28100
N 	N 	0.60480 0.01800 0.34740 -0.14900
N 	N 	0.64300 0.90190 0.45090 -0.15500
N 	N 	0.51790 0.74520 0.13240 -0.14500
C 	C 	0.58700 0.07740 0.30990 0.04100
H 	H 	0.59570 0.12290 0.33210 -0.01900
C 	C 	0.55310 0.06700 0.23210 -0.03300
H 	H 	0.53590 0.10160 0.19530 0.02400
C 	C 	0.55200 0.99420 0.22480 -0.08100
H 	H 	0.53390 0.96840 0.18000 0.05800
C 	C 	0.58340 0.96340 0.29730 0.14400
C 	C 	0.58950 0.89320 0.31420 -0.13400
C 	C 	0.61450 0.86350 0.38620 0.12700
C 	C 	0.62260 0.79030 0.40520 -0.09600
H 	H 	0.61110 0.75100 0.37200 0.05800
C 	C 	0.65010 0.78900 0.48120 -0.06500
H 	H 	0.66060 0.74780 0.51170 0.04000
C 	C 	0.65990 0.85550 0.50560 0.05800
H 	H 	0.67740 0.86770 0.55760 -0.01000
C 	C 	0.47820 0.75810 0.19770 0.08100
H 	H 	0.43410 0.73470 0.20390 0.01500
C 	C 	0.50160 0.80670 0.25820 -0.16500
H 	H 	0.47360 0.81350 0.30520 0.08200
C 	C 	0.56430 0.84440 0.24970 0.13700
C 	C 	0.60080 0.83300 0.18040 -0.18400
H 	H 	0.64290 0.85880 0.16980 0.08900
C 	C 	0.57620 0.78310 0.12440 0.11000
H 	H 	0.60360 0.77590 0.07690 0.00700
C 	C 	0.64200 0.02480 0.57670 0.10200
C 	C 	0.61590 0.08360 0.53220 -0.51700
C 	C 	0.67480 0.11960 0.49800 0.84300
C 	C 	0.73730 0.08310 0.52130 -0.21900
C 	C 	0.71700 0.02440 0.56990 0.09600
C 	C 	0.59790 0.97190 0.62300 0.97100
H 	H 	0.56740 0.99700 0.66150 -0.85100
H 	H 	0.56850 0.94490 0.58510 -0.24200
H 	H 	0.62900 0.93950 0.65250 0.08900
C 	C 	0.53910 0.10420 0.52290 0.54700
H 	H 	0.52550 0.13560 0.56740 -0.08700
H 	H 	0.53250 0.12880 0.47130 -0.50500
H 	H 	0.50960 0.06170 0.52410 -0.04900
C 	C 	0.67150 0.18530 0.44590 -3.23700
H 	H 	0.69320 0.17550 0.39330 1.51500
H 	H 	0.62200 0.19910 0.43810 0.89400
H 	H 	0.69710 0.22380 0.47270 0.36600
C 	C 	0.81200 0.10300 0.49840 -0.19400
H 	H 	0.83120 0.13590 0.53860 0.20500
H 	H 	0.84150 0.06030 0.49650 1.00500
H 	H 	0.81200 0.12570 0.44510 0.09000
C 	C 	0.76650 0.97110 0.60780 -0.08700
H 	H 	0.74030 0.94180 0.64650 0.30400
H 	H 	0.78670 0.94090 0.56550 -0.10100
H 	H 	0.80470 0.99600 0.63610 -0.01600
C 	C 	0.62740 0.04780 0.57530 -0.70200
C 	C 	0.61070 0.10020 0.51600 0.29900
C 	C 	0.67490 0.12030 0.47660 0.07000
C 	C 	0.73130 0.08030 0.51170 -0.04000
C 	C 	0.70190 0.03550 0.57260 0.24300
C 	C 	0.57510 0.01160 0.63140 1.81500
H 	H 	0.53000 0.00510 0.60320 -0.44500
H 	H 	0.59390 0.96540 0.64760 -0.88900
H 	H 	0.56770 0.04090 0.67950 -0.19600
C 	C 	0.53750 0.12940 0.49790 0.02700
H 	H 	0.52540 0.11980 0.44130 0.36000
H 	H 	0.50280 0.10670 0.53340 -0.16300
H 	H 	0.53720 0.18060 0.50740 0.01100
C 	C 	0.68200 0.17460 0.40940 -0.21200
H 	H 	0.68580 0.22200 0.43300 0.95600
H 	H 	0.72460 0.16440 0.37750 -0.73100
H 	H 	0.64030 0.17240 0.37430 -0.07700
C 	C 	0.80890 0.08470 0.48820 -0.23200
H 	H 	0.83250 0.12040 0.52160 -0.16100
H 	H 	0.83130 0.03860 0.49680 -0.81100
H 	H 	0.81280 0.09780 0.43100 0.04700
C 	C 	0.74280 0.98390 0.62540 -0.85500
H 	H 	0.75420 0.00650 0.67710 0.23900
H 	H 	0.71380 0.94180 0.63510 0.00300
H 	H 	0.78660 0.97020 0.59790 0.40100
Ir	Ir	0.16613 0.51046 0.54941 0.28500
N 	N 	0.10480 0.51800 0.65260 -0.14900
N 	N 	0.14300 0.40190 0.54910 -0.15500
N 	N 	0.01790 0.24520 0.86760 -0.14200
C 	C 	0.08700 0.57740 0.69010 0.04100
H 	H 	0.09570 0.62290 0.66790 -0.01900
C 	C 	0.05310 0.56700 0.76790 -0.03500
H 	H 	0.03590 0.60160 0.80470 0.02300
C 	C 	0.05200 0.49420 0.77520 -0.08000
H 	H 	0.03390 0.46840 0.82000 0.05700
C 	C 	0.08340 0.46340 0.70270 0.14100
C 	C 	0.08950 0.39320 0.68580 -0.13200
C 	C 	0.11450 0.36350 0.61380 0.12600
C 	C 	0.12260 0.29030 0.59480 -0.09400
H 	H 	0.11110 0.25100 0.62800 0.05800
C 	C 	0.15010 0.28900 0.51880 -0.06500
H 	H 	0.16060 0.24780 0.48830 0.04100
C 	C 	0.15990 0.35550 0.49440 0.05900
H 	H 	0.17740 0.36770 0.44240 -0.01000
C 	C 	0.97820 0.25810 0.80230 0.07300
H 	H 	0.93410 0.23470 0.79610 0.01700
C 	C 	0.00160 0.30670 0.74180 -0.15500
H 	H 	0.97360 0.31350 0.69480 0.07800
C 	C 	0.06430 0.34440 0.75030 0.13200
C 	C 	0.10080 0.33300 0.81960 -0.18000
H 	H 	0.14290 0.35880 0.83020 0.08800
C 	C 	0.07620 0.28310 0.87560 0.10800
H 	H 	0.10360 0.27590 0.92310 0.00700
C 	C 	0.14200 0.52480 0.42330 0.10500
C 	C 	0.11590 0.58360 0.46780 -0.51100
C 	C 	0.17480 0.61960 0.50200 0.83500
C 	C 	0.23730 0.58310 0.47870 -0.21400
C 	C 	0.21700 0.52440 0.43010 0.08800
C 	C 	0.09790 0.47190 0.37700 0.95300
H 	H 	0.06740 0.49700 0.33850 -0.82900
H 	H 	0.06850 0.44490 0.41490 -0.23700
H 	H 	0.12900 0.43950 0.34750 0.08600
C 	C 	0.03910 0.60420 0.47710 0.54300
H 	H 	0.02550 0.63560 0.43260 -0.08600
H 	H 	0.03250 0.62880 0.52870 -0.50100
H 	H 	0.00960 0.56170 0.47590 -0.04900
C 	C 	0.17150 0.68530 0.55410 -3.20800
H 	H 	0.19320 0.67550 0.60670 1.50100
H 	H 	0.12200 0.69910 0.56190 0.88700
H 	H 	0.19710 0.72380 0.52730 0.36300
C 	C 	0.31200 0.60300 0.50160 -0.20900
H 	H 	0.33120 0.63590 0.46140 0.21900
H 	H 	0.34150 0.56030 0.50350 1.07600
H 	H 	0.31200 0.62570 0.55490 0.09700
C 	C 	0.26650 0.47110 0.39220 -0.09300
H 	H 	0.24030 0.44180 0.35350 0.30800
H 	H 	0.28670 0.44090 0.43450 -0.10500
H 	H 	0.30470 0.49600 0.36390 -0.02100
C 	C 	0.12740 0.54780 0.42470 -0.69500
C 	C 	0.11070 0.60020 0.48400 0.29300
C 	C 	0.17490 0.62030 0.52340 0.06600
C 	C 	0.23130 0.58030 0.48830 -0.03400
C 	C 	0.20190 0.53550 0.42740 0.25500
C 	C 	0.07510 0.51160 0.36860 1.76600
H 	H 	0.03000 0.50510 0.39680 -0.43200
H 	H 	0.09390 0.46540 0.35240 -0.87100
H 	H 	0.06770 0.54090 0.32050 -0.18900
C 	C 	0.03750 0.62940 0.50210 0.02800
H 	H 	0.02540 0.61980 0.55870 0.35600
H 	H 	0.00280 0.60670 0.46660 -0.16200
H 	H 	0.03720 0.68060 0.49260 0.01000
C 	C 	0.18200 0.67460 0.59060 -0.21000
H 	H 	0.18580 0.72200 0.56700 0.94700
H 	H 	0.22460 0.66440 0.62250 -0.72500
H 	H 	0.14030 0.67240 0.62570 -0.07700
C 	C 	0.30890 0.58470 0.51180 -0.24800
H 	H 	0.33250 0.62040 0.47840 -0.17100
H 	H 	0.33130 0.53860 0.50320 -0.86700
H 	H 	0.31280 0.59780 0.56900 0.04800
C 	C 	0.24280 0.48390 0.37460 -0.87300
H 	H 	0.25420 0.50650 0.32290 0.24900
H 	H 	0.21380 0.44180 0.36490 0.00500
H 	H 	0.28660 0.47020 0.40210 0.41500
Ir	Ir	0.33387 0.98954 0.54941 0.28100
N 	N 	0.39520 0.98200 0.65260 -0.14900
N 	N 	0.35700 0.09810 0.54910 -0.15500
N 	N 	0.48210 0.25480 0.86760 -0.14500
C 	C 	0.41300 0.92260 0.69010 0.04100
H 	H 	0.40430 0.87710 0.66790 -0.01900
C 	C 	0.44690 0.93300 0.76790 -0.03300
H 	H 	0.46410 0.89840 0.80470 0.02400
C 	C 	0.44800 0.00580 0.77520 -0.08100
H 	H 	0.46610 0.03160 0.82000 0.05800
C 	C 	0.41660 0.03660 0.70270 0.14400
C 	C 	0.41050 0.10680 0.68580 -0.13400
C 	C 	0.38550 0.13650 0.61380 0.12700
C 	C 	0.37740 0.20970 0.59480 -0.09600
H 	H 	0.38890 0.24900 0.62800 0.05800
C 	C 	0.34990 0.21100 0.51880 -0.06500
H 	H 	0.33940 0.25220 0.48830 0.04000
C 	C 	0.34010 0.14450 0.49440 0.05800
H 	H 	0.32260 0.13230 0.44240 -0.01000
C 	C 	0.52180 0.24190 0.80230 0.08100
H 	H 	0.56590 0.26530 0.79610 0.01500
C 	C 	0.49840 0.19330 0.74180 -0.16500
H 	H 	0.52640 0.18650 0.69480 0.08200
C 	C 	0.43570 0.15560 0.75030 0.13700
C 	C 	0.39920 0.16700 0.81960 -0.18400
H 	H 	0.35710 0.14120 0.83020 0.08900
C 	C 	0.42380 0.21690 0.87560 0.11000
H 	H 	0.39640 0.22410 0.92310 0.00700
C 	C 	0.35800 0.97520 0.42330 0.10200
C 	C 	0.38410 0.91640 0.46780 -0.51700
C 	C 	0.32520 0.88040 0.50200 0.84300
C 	C 	0.26270 0.91690 0.47870 -0.21900
C 	C 	0.28300 0.97560 0.43010 0.09600
C 	C 	0.40210 0.02810 0.37700 0.97100
H 	H 	0.43260 0.00300 0.33850 -0.85100
H 	H 	0.43150 0.05510 0.41490 -0.24200
H 	H 	0.37100 0.06050 0.34750 0.08900
C 	C 	0.46090 0.89580 0.47710 0.54700
H 	H 	0.47450 0.86440 0.43260 -0.08700
H 	H 	0.46750 0.87120 0.52870 -0.50500
H 	H 	0.49040 0.93830 0.47590 -0.04900
C 	C 	0.32850 0.81470 0.55410 -3.23700
H 	H 	0.30680 0.82450 0.60670 1.51500
H 	H 	0.37800 0.80090 0.56190 0.89400
H 	H 	0.30290 0.77620 0.52730 0.36600
C 	C 	0.18800 0.89700 0.50160 -0.19400
H 	H 	0.16880 0.86410 0.46140 0.20500
H 	H 	0.15850 0.93970 0.50350 1.00500
H 	H 	0.18800 0.87430 0.55490 0.09000
C 	C 	0.23350 0.02890 0.39220 -0.08700
H 	H 	0.25970 0.05820 0.35350 0.30400
H 	H 	0.21330 0.05910 0.43450 -0.10100
H 	H 	0.19530 0.00400 0.36390 -0.01600
C 	C 	0.37260 0.95220 0.42470 -0.70200
C 	C 	0.38930 0.89980 0.48400 0.29900
C 	C 	0.32510 0.87970 0.52340 0.07000
C 	C 	0.26870 0.91970 0.48830 -0.04000
C 	C 	0.29810 0.96450 0.42740 0.24300
C 	C 	0.42490 0.98840 0.36860 1.81500
H 	H 	0.47000 0.99490 0.39680 -0.44500
H 	H 	0.40610 0.03460 0.35240 -0.88900
H 	H 	0.43230 0.95910 0.32050 -0.19600
C 	C 	0.46250 0.87060 0.50210 0.02700
H 	H 	0.47460 0.88020 0.55870 0.36000
H 	H 	0.49720 0.89330 0.46660 -0.16300
H 	H 	0.46280 0.81940 0.49260 0.01100
C 	C 	0.31800 0.82540 0.59060 -0.21200
H 	H 	0.31420 0.77800 0.56700 0.95600
H 	H 	0.27540 0.83560 0.62250 -0.73100
H 	H 	0.35970 0.82760 0.62570 -0.07700
C 	C 	0.19110 0.91530 0.51180 -0.23200
H 	H 	0.16750 0.87960 0.47840 -0.16100
H 	H 	0.16870 0.96140 0.50320 -0.81100
H 	H 	0.18720 0.90220 0.56900 0.04700
C 	C 	0.25720 0.01610 0.37460 -0.85500
H 	H 	0.24580 0.99350 0.32290 0.23900
H 	H 	0.28620 0.05820 0.36490 0.00300
H 	H 	0.21340 0.02980 0.40210 0.40100
Ir	Ir	0.98954 0.16613 0.95059 0.28600
N 	N 	0.98200 0.10480 0.84740 -0.15100
N 	N 	0.09810 0.14300 0.95090 -0.15900
N 	N 	0.25480 0.01790 0.63240 -0.14000
C 	C 	0.92260 0.08700 0.80990 0.04600
H 	H 	0.87710 0.09570 0.83210 -0.02100
C 	C 	0.93300 0.05310 0.73210 -0.04600
H 	H 	0.89840 0.03590 0.69530 0.02700
C 	C 	0.00580 0.05200 0.72480 -0.06500
H 	H 	0.03160 0.03390 0.68000 0.05600
C 	C 	0.03660 0.08340 0.79730 0.14500
C 	C 	0.10680 0.08950 0.81420 -0.12800
C 	C 	0.13650 0.11450 0.88620 0.12400
C 	C 	0.20970 0.12260 0.90520 -0.08200
H 	H 	0.24900 0.11110 0.87200 0.05300
C 	C 	0.21100 0.15010 0.98120 -0.09000
H 	H 	0.25220 0.16060 0.01170 0.05100
C 	C 	0.14450 0.15990 0.00560 0.08100
H 	H 	0.13230 0.17740 0.05760 -0.01700
C 	C 	0.24190 0.97820 0.69770 0.06500
H 	H 	0.26530 0.93410 0.70390 0.02000
C 	C 	0.19330 0.00160 0.75820 -0.14500
H 	H 	0.18650 0.97360 0.80520 0.07300
C 	C 	0.15560 0.06430 0.74970 0.12800
C 	C 	0.16700 0.10080 0.68040 -0.17700
H 	H 	0.14120 0.14290 0.66980 0.08700
C 	C 	0.21690 0.07620 0.62440 0.10600
H 	H 	0.22410 0.10360 0.57690 0.00900
C 	C 	0.97520 0.14200 0.07670 0.08800
C 	C 	0.91640 0.11590 0.03220 -0.53300
C 	C 	0.88040 0.17480 0.99800 0.83700
C 	C 	0.91690 0.23730 0.02130 -0.21800
C 	C 	0.97560 0.21700 0.06990 0.11200
C 	C 	0.02810 0.09790 0.12300 1.02300
H 	H 	0.00300 0.06740 0.16150 -0.91200
H 	H 	0.05510 0.06850 0.08510 -0.25100
H 	H 	0.06050 0.12900 0.15250 0.09800
C 	C 	0.89580 0.03910 0.02290 0.57300
H 	H 	0.86440 0.02550 0.06740 -0.09300
H 	H 	0.87120 0.03250 0.97130 -0.52500
H 	H 	0.93830 0.00960 0.02410 -0.05400
C 	C 	0.81470 0.17150 0.94590 -3.23000
H 	H 	0.82450 0.19320 0.89330 1.51100
H 	H 	0.80090 0.12200 0.93810 0.89200
H 	H 	0.77620 0.19710 0.97270 0.36600
C 	C 	0.89700 0.31200 0.99840 -0.20100
H 	H 	0.86410 0.33120 0.03860 0.20700
H 	H 	0.93970 0.34150 0.99650 1.03600
H 	H 	0.87430 0.31200 0.94510 0.09400
C 	C 	0.02890 0.26650 0.10780 -0.08800
H 	H 	0.05820 0.24030 0.14650 0.30800
H 	H 	0.05910 0.28670 0.06550 -0.10100
H 	H 	0.00400 0.30470 0.13610 -0.01700
C 	C 	0.95220 0.12740 0.07530 -0.73200
C 	C 	0.89980 0.11070 0.01600 0.32200
C 	C 	0.87970 0.17490 0.97660 0.07100
C 	C 	0.91970 0.23130 0.01170 -0.03900
C 	C 	0.96450 0.20190 0.07260 0.23800
C 	C 	0.98840 0.07510 0.13140 1.96300
H 	H 	0.99490 0.03000 0.10320 -0.48800
H 	H 	0.03460 0.09390 0.14760 -0.94400
H 	H 	0.95910 0.06770 0.17950 -0.21900
C 	C 	0.87060 0.03750 0.99790 0.02500
H 	H 	0.88020 0.02540 0.94130 0.37400
H 	H 	0.89330 0.00280 0.03340 -0.17100
H 	H 	0.81940 0.03720 0.00740 0.01200
C 	C 	0.82540 0.18200 0.90940 -0.21200
H 	H 	0.77800 0.18580 0.93300 0.95400
H 	H 	0.83560 0.22460 0.87750 -0.72900
H 	H 	0.82760 0.14030 0.87430 -0.07700
C 	C 	0.91530 0.30890 0.98820 -0.23900
H 	H 	0.87960 0.33250 0.02160 -0.16200
H 	H 	0.96140 0.33130 0.99680 -0.83500
H 	H 	0.90220 0.31280 0.93100 0.04800
C 	C 	0.01610 0.24280 0.12540 -0.86300
H 	H 	0.99350 0.25420 0.17710 0.24000
H 	H 	0.05820 0.21380 0.13510 0.00200
H 	H 	0.02980 0.28660 0.09790 0.40500
Ir	Ir	0.51046 0.33387 0.95059 0.28400
N 	N 	0.51800 0.39520 0.84740 -0.14900
N 	N 	0.40190 0.35700 0.95090 -0.15700
N 	N 	0.24520 0.48210 0.63240 -0.14400
C 	C 	0.57740 0.41300 0.80990 0.04100
H 	H 	0.62290 0.40430 0.83210 -0.01900
C 	C 	0.56700 0.44690 0.73210 -0.03500
H 	H 	0.60160 0.46410 0.69530 0.02400
C 	C 	0.49420 0.44800 0.72480 -0.08000
H 	H 	0.46840 0.46610 0.68000 0.05700
C 	C 	0.46340 0.41660 0.79730 0.14200
C 	C 	0.39320 0.41050 0.81420 -0.13300
C 	C 	0.36350 0.38550 0.88620 0.12500
C 	C 	0.29030 0.37740 0.90520 -0.08900
H 	H 	0.25100 0.38890 0.87200 0.05500
C 	C 	0.28900 0.34990 0.98120 -0.07900
H 	H 	0.24780 0.33940 0.01170 0.04600
C 	C 	0.35550 0.34010 0.00560 0.06900
H 	H 	0.36770 0.32260 0.05760 -0.01400
C 	C 	0.25810 0.52180 0.69770 0.08100
H 	H 	0.23470 0.56590 0.70390 0.01500
C 	C 	0.30670 0.49840 0.75820 -0.16500
H 	H 	0.31350 0.52640 0.80520 0.08200
C 	C 	0.34440 0.43570 0.74970 0.13600
C 	C 	0.33300 0.39920 0.68040 -0.18300
H 	H 	0.35880 0.35710 0.66980 0.08900
C 	C 	0.28310 0.42380 0.62440 0.11000
H 	H 	0.27590 0.39640 0.57690 0.00700
C 	C 	0.52480 0.35800 0.07670 0.10600
C 	C 	0.58360 0.38410 0.03220 -0.51200
C 	C 	0.61960 0.32520 0.99800 0.83800
C 	C 	0.58310 0.26270 0.02130 -0.21500
C 	C 	0.52440 0.28300 0.06990 0.08800
C 	C 	0.47190 0.40210 0.12300 0.95100
H 	H 	0.49700 0.43260 0.16150 -0.82700
H 	H 	0.44490 0.43150 0.08510 -0.23700
H 	H 	0.43950 0.37100 0.15250 0.08500
C 	C 	0.60420 0.46090 0.02290 0.54500
H 	H 	0.63560 0.47450 0.06740 -0.08600
H 	H 	0.62880 0.46750 0.97130 -0.50100
H 	H 	0.56170 0.49040 0.02410 -0.05000
C 	C 	0.68530 0.32850 0.94590 -3.21900
H 	H 	0.67550 0.30680 0.89330 1.50600
H 	H 	0.69910 0.37800 0.93810 0.89000
H 	H 	0.72380 0.30290 0.97270 0.36400
C 	C 	0.60300 0.18800 0.99840 -0.20500
H 	H 	0.63590 0.16880 0.03860 0.21800
H 	H 	0.56030 0.15850 0.99650 1.05900
H 	H 	0.62570 0.18800 0.94510 0.09500
C 	C 	0.47110 0.23350 0.10780 -0.09300
H 	H 	0.44180 0.25970 0.14650 0.30800
H 	H 	0.44090 0.21330 0.06550 -0.10400
H 	H 	0.49600 0.19530 0.13610 -0.02100
C 	C 	0.54780 0.37260 0.07530 -0.69500
C 	C 	0.60020 0.38930 0.01600 0.29200
C 	C 	0.62030 0.32510 0.97660 0.06700
C 	C 	0.58030 0.26870 0.01170 -0.03600
C 	C 	0.53550 0.29810 0.07260 0.25600
C 	C 	0.51160 0.42490 0.13140 1.76200
H 	H 	0.50510 0.47000 0.10320 -0.43100
H 	H 	0.46540 0.40610 0.14760 -0.87000
H 	H 	0.54090 0.43230 0.17950 -0.18800
C 	C 	0.62940 0.46250 0.99790 0.02700
H 	H 	0.61980 0.47460 0.94130 0.35700
H 	H 	0.60670 0.49720 0.03340 -0.16300
H 	H 	0.68060 0.46280 0.00740 0.01000
C 	C 	0.67460 0.31800 0.90940 -0.21100
H 	H 	0.72200 0.31420 0.93300 0.95000
H 	H 	0.66440 0.27540 0.87750 -0.72700
H 	H 	0.67240 0.35970 0.87430 -0.07700
C 	C 	0.58470 0.19110 0.98820 -0.24400
H 	H 	0.62040 0.16750 0.02160 -0.17100
H 	H 	0.53860 0.16870 0.99680 -0.85400
H 	H 	0.59780 0.18720 0.93100 0.04800
C 	C 	0.48390 0.25720 0.12540 -0.87300
H 	H 	0.50650 0.24580 0.17710 0.24900
H 	H 	0.44180 0.28620 0.13510 0.00500
H 	H 	0.47020 0.21340 0.09790 0.41500
