data_crystal

_cell_length_a 23.95370
_cell_length_b 41.51490
_cell_length_c 23.86340
_cell_angle_alpha 90.00000
_cell_angle_beta  108.31600
_cell_angle_gamma 90.00000

_symmetry_space_group_name_	'P 1'
_symmetry_space_group_name_H-M	'P 1'

loop_
_symmetry_equiv_pos_as_xyz
  x,y,z

loop_
_atom_site_label
_atom_site_type_symbol
_atom_site_fract_x
_atom_site_fract_y
_atom_site_fract_z
_atom_site_charge
Ru	Ru	0.17593 0.03120 0.78473 0.95300
Ru	Ru	0.67876 0.85172 0.80361 0.95300
Ru	Ru	0.69497 0.18785 0.80773 0.95200
Tb	Tb	0.46643 0.02209 0.61627 1.50500
C 	C 	0.23850 0.07640 0.88540 0.08900
H 	H 	0.26700 0.05990 0.89880 -0.00300
C 	C 	0.24410 0.10380 0.91720 -0.14300
H 	H 	0.27580 0.10640 0.95280 0.08100
C 	C 	0.20370 0.12760 0.89760 0.06200
H 	H 	0.20760 0.14680 0.92000 0.00700
C 	C 	0.15820 0.12470 0.84700 -0.12600
H 	H 	0.13000 0.14140 0.83350 0.06800
C 	C 	0.15480 0.09630 0.81590 0.05900
C 	C 	0.10810 0.09050 0.75870 0.05500
C 	C 	0.06560 0.11290 0.73310 -0.11200
H 	H 	0.06170 0.13270 0.75130 0.06000
C 	C 	0.02750 0.10330 0.67570 0.03700
H 	H 	0.99640 0.11750 0.65600 0.01400
C 	C 	0.03270 0.07550 0.64780 -0.12500
H 	H 	0.00810 0.07060 0.60900 0.07100
C 	C 	0.07530 0.05530 0.67920 0.07300
H 	H 	0.07880 0.03500 0.66210 -0.00100
C 	C 	0.10180 0.02570 0.86780 0.07200
H 	H 	0.11750 0.04600 0.88310 0.00700
C 	C 	0.06460 0.00920 0.89230 -0.12500
H 	H 	0.05360 0.01910 0.92320 0.07700
C 	C 	0.04440 0.98070 0.87420 0.06400
H 	H 	0.02110 0.96930 0.89330 0.01000
C 	C 	0.05730 0.96740 0.82690 -0.13100
H 	H 	0.04090 0.94720 0.81130 0.06900
C 	C 	0.09330 0.98330 0.80300 0.07600
C 	C 	0.11120 0.97130 0.75230 0.04300
C 	C 	0.09200 0.94130 0.72140 -0.10400
H 	H 	0.06640 0.92770 0.73400 0.05800
C 	C 	0.10950 0.93220 0.67500 0.04600
H 	H 	0.09660 0.91250 0.65470 0.01100
C 	C 	0.14620 0.95250 0.65900 -0.13200
H 	H 	0.15990 0.94680 0.62700 0.08100
C 	C 	0.16360 0.98060 0.68780 0.08300
H 	H 	0.18840 0.99430 0.67420 0.00000
C 	C 	0.24230 0.98610 0.88500 0.04100
H 	H 	0.21060 0.98890 0.90040 0.02300
C 	C 	0.28580 0.96490 0.91200 -0.06700
H 	H 	0.28330 0.95260 0.94470 0.06700
C 	C 	0.33380 0.96110 0.89180 -0.05100
C 	C 	0.33730 0.98030 0.84470 -0.06100
H 	H 	0.37050 0.97920 0.83110 0.06300
C 	C 	0.29060 0.00120 0.81830 0.03900
C 	C 	0.28870 0.02200 0.76760 0.05200
C 	C 	0.33170 0.02090 0.74030 -0.07800
H 	H 	0.36510 0.00740 0.75550 0.08300
C 	C 	0.32630 0.03960 0.69070 -0.00700
C 	C 	0.27750 0.05960 0.67020 -0.08000
H 	H 	0.27290 0.07330 0.63720 0.07300
C 	C 	0.23620 0.05890 0.69940 0.06100
H 	H 	0.20270 0.07240 0.68520 0.00400
C 	C 	0.38020 0.93630 0.91860 0.30800
C 	C 	0.37190 0.03570 0.66010 0.29400
C 	C 	0.72330 0.88790 0.71450 0.09600
H 	H 	0.68590 0.89800 0.70280 -0.00100
C 	C 	0.75980 0.89540 0.68500 -0.14600
H 	H 	0.74870 0.91030 0.65330 0.09100
C 	C 	0.81410 0.88110 0.70170 0.05700
H 	H 	0.84150 0.88580 0.68150 0.00700
C 	C 	0.82850 0.85960 0.74890 -0.12500
H 	H 	0.86620 0.84970 0.76150 0.06400
C 	C 	0.78850 0.85280 0.77660 0.06200
C 	C 	0.79910 0.82930 0.82580 0.04800
C 	C 	0.85190 0.81380 0.85040 -0.11100
H 	H 	0.88450 0.81840 0.83710 0.06200
C 	C 	0.85720 0.79130 0.89440 0.04200
H 	H 	0.89280 0.77980 0.91130 0.01400
C 	C 	0.81010 0.78620 0.91250 -0.12800
H 	H 	0.81290 0.77100 0.94300 0.06800
C 	C 	0.75760 0.80270 0.88780 0.07300
H 	H 	0.72540 0.79860 0.90190 -0.00600
C 	C 	0.65360 0.81010 0.69340 0.08400
H 	H 	0.67810 0.82470 0.68110 0.00000
C 	C 	0.62780 0.78480 0.65600 -0.13000
H 	H 	0.63520 0.78200 0.61950 0.07800
C 	C 	0.59360 0.76510 0.67190 0.04400
H 	H 	0.57450 0.74860 0.64520 0.01200
C 	C 	0.58310 0.76710 0.72870 -0.10200
H 	H 	0.56050 0.75170 0.74170 0.05600
C 	C 	0.61030 0.79440 0.76310 0.04100
C 	C 	0.59890 0.80150 0.81860 0.06900
C 	C 	0.56560 0.78420 0.84360 -0.14100
H 	H 	0.54800 0.76480 0.82550 0.07100
C 	C 	0.55700 0.79400 0.89330 0.07200
H 	H 	0.53470 0.78110 0.91140 0.00800
C 	C 	0.58040 0.82300 0.91880 -0.15000
H 	H 	0.57330 0.83080 0.95340 0.09600
C 	C 	0.61390 0.83980 0.89260 0.08900
H 	H 	0.63000 0.85980 0.90940 -0.00700
C 	C 	0.56640 0.87870 0.71690 0.04700
H 	H 	0.55750 0.85720 0.70300 0.01400
C 	C 	0.53040 0.90420 0.68740 -0.06400
H 	H 	0.49830 0.90000 0.65270 0.07400
C 	C 	0.54150 0.93520 0.70870 -0.00900
C 	C 	0.58820 0.94010 0.76060 -0.07500
H 	H 	0.59590 0.96120 0.77690 0.08400
C 	C 	0.62260 0.91520 0.78800 0.04800
C 	C 	0.67300 0.91810 0.84320 0.04800
C 	C 	0.68680 0.94620 0.87530 -0.07200
H 	H 	0.66300 0.96490 0.86290 0.07200
C 	C 	0.73560 0.94740 0.92600 -0.02400
C 	C 	0.76750 0.91920 0.94290 -0.07400
H 	H 	0.80070 0.91910 0.97750 0.06500
C 	C 	0.75140 0.89100 0.90980 0.04100
H 	H 	0.77370 0.87190 0.92240 0.00600
C 	C 	0.51020 0.96360 0.67480 0.28600
C 	C 	0.75230 0.97880 0.96010 0.29100
C 	C 	0.58430 0.20630 0.70820 0.07200
H 	H 	0.58580 0.18490 0.69470 0.00300
C 	C 	0.53980 0.22600 0.67710 -0.12200
H 	H 	0.50990 0.21810 0.64350 0.07600
C 	C 	0.53860 0.25770 0.69510 0.04000
H 	H 	0.50870 0.27210 0.67360 0.01200
C 	C 	0.58170 0.26760 0.74490 -0.11400
H 	H 	0.58140 0.28910 0.75840 0.06000
C 	C 	0.62570 0.24670 0.77580 0.05800
C 	C 	0.67600 0.25530 0.82750 0.04700
C 	C 	0.68010 0.28570 0.85440 -0.10400
H 	H 	0.65050 0.30150 0.83980 0.06000
C 	C 	0.72760 0.29160 0.90160 0.02600
H 	H 	0.73220 0.31220 0.91990 0.02200
C 	C 	0.77030 0.26760 0.92420 -0.10500
H 	H 	0.80300 0.27190 0.95830 0.06200
C 	C 	0.76470 0.23760 0.89660 0.04800
H 	H 	0.79410 0.22160 0.91070 0.00400
C 	C 	0.73680 0.21140 0.70730 0.08100
H 	H 	0.69730 0.21830 0.68980 -0.00400
C 	C 	0.77650 0.21770 0.67800 -0.13700
H 	H 	0.76600 0.22950 0.64200 0.07500
C 	C 	0.83220 0.20610 0.70350 0.05900
H 	H 	0.86030 0.20880 0.68330 0.00300
C 	C 	0.84880 0.19080 0.75610 -0.13200
H 	H 	0.88810 0.18370 0.77370 0.06600
C 	C 	0.80730 0.18590 0.78300 0.06400
C 	C 	0.81760 0.16730 0.83830 0.05000
C 	C 	0.87210 0.15350 0.86920 -0.11500
H 	H 	0.90580 0.15650 0.85700 0.06500
C 	C 	0.87420 0.13540 0.91790 0.04800
H 	H 	0.91030 0.12550 0.93950 0.01100
C 	C 	0.82690 0.13120 0.93600 -0.13100
H 	H 	0.82910 0.11790 0.96910 0.07500
C 	C 	0.77470 0.14660 0.90530 0.07300
H 	H 	0.74150 0.14460 0.91880 -0.00100
C 	C 	0.67120 0.13160 0.72250 0.05900
H 	H 	0.70180 0.14040 0.70970 0.00400
C 	C 	0.64080 0.10450 0.69160 -0.07200
H 	H 	0.65120 0.09480 0.66020 0.07100
C 	C 	0.59500 0.09300 0.70970 -0.00900
C 	C 	0.58490 0.10630 0.75850 -0.07600
H 	H 	0.55530 0.09750 0.77260 0.08300
C 	C 	0.61790 0.13250 0.78710 0.05100
C 	C 	0.60720 0.14800 0.83740 0.04300
C 	C 	0.56670 0.13830 0.86330 -0.06700
H 	H 	0.54380 0.11950 0.84970 0.07100
C 	C 	0.55930 0.15630 0.91040 -0.02200
C 	C 	0.59410 0.18260 0.92960 -0.07500
H 	H 	0.59040 0.19490 0.96190 0.06700
C 	C 	0.63430 0.19140 0.90230 0.05100
H 	H 	0.65810 0.20980 0.91650 0.00400
C 	C 	0.55420 0.06680 0.67640 0.31100
C 	C 	0.51430 0.14640 0.93860 0.30000
N 	N 	0.19380 0.07190 0.83530 -0.22400
N 	N 	0.11380 0.06190 0.73380 -0.22000
N 	N 	0.11560 0.01220 0.82100 -0.21900
N 	N 	0.14800 0.99030 0.73410 -0.21600
N 	N 	0.24270 0.00360 0.83700 -0.21000
N 	N 	0.24030 0.04070 0.74620 -0.21500
N 	N 	0.73480 0.86690 0.75970 -0.22500
N 	N 	0.75170 0.82390 0.84470 -0.21800
N 	N 	0.64570 0.81490 0.74510 -0.21800
N 	N 	0.62540 0.82940 0.84400 -0.22600
N 	N 	0.61380 0.88440 0.76480 -0.21000
N 	N 	0.70450 0.89060 0.86000 -0.21000
N 	N 	0.62640 0.21620 0.75740 -0.21600
N 	N 	0.71590 0.23160 0.84850 -0.21300
N 	N 	0.75060 0.19610 0.75960 -0.22400
N 	N 	0.77020 0.16410 0.85740 -0.21800
N 	N 	0.66040 0.14540 0.76760 -0.21600
N 	N 	0.64140 0.17520 0.85630 -0.21100
O 	O 	0.36810 0.91490 0.94730 -0.25900
O 	O 	0.42920 0.94010 0.91470 -0.27900
O 	O 	0.40480 0.01112 0.67450 -0.38300
O 	O 	0.37780 0.05570 0.62310 -0.35200
O 	O 	0.46300 0.96019 0.63300 -0.35200
O 	O 	0.53440 0.99106 0.68980 -0.38200
O 	O 	0.71730 0.00143 0.94830 -0.26000
O 	O 	0.80180 0.97880 0.99770 -0.24800
O 	O 	0.56960 0.04926 0.64050 -0.36200
O 	O 	0.50590 0.06472 0.68410 -0.39300
O 	O 	0.48240 0.12340 0.91920 -0.25300
O 	O 	0.51540 0.16270 0.98270 -0.24100
Ru	Ru	0.67593 0.53120 0.78473 0.95200
Ru	Ru	0.17876 0.35172 0.80361 0.95200
Ru	Ru	0.19497 0.68785 0.80773 0.95100
Tb	Tb	0.96643 0.52209 0.61627 1.50500
C 	C 	0.73850 0.57640 0.88540 0.08800
H 	H 	0.76700 0.55990 0.89880 -0.00400
C 	C 	0.74410 0.60380 0.91720 -0.14400
H 	H 	0.77580 0.60640 0.95280 0.08000
C 	C 	0.70370 0.62760 0.89760 0.06100
H 	H 	0.70760 0.64680 0.92000 0.00700
C 	C 	0.65820 0.62470 0.84700 -0.12600
H 	H 	0.63000 0.64140 0.83350 0.06700
C 	C 	0.65480 0.59630 0.81590 0.05800
C 	C 	0.60810 0.59050 0.75870 0.05500
C 	C 	0.56560 0.61290 0.73310 -0.11300
H 	H 	0.56170 0.63270 0.75130 0.06000
C 	C 	0.52750 0.60330 0.67570 0.03700
H 	H 	0.49640 0.61750 0.65600 0.01200
C 	C 	0.53270 0.57550 0.64780 -0.12700
H 	H 	0.50810 0.57060 0.60900 0.07000
C 	C 	0.57530 0.55530 0.67920 0.07200
H 	H 	0.57880 0.53500 0.66210 -0.00200
C 	C 	0.60180 0.52570 0.86780 0.07100
H 	H 	0.61750 0.54600 0.88310 0.00600
C 	C 	0.56460 0.50920 0.89230 -0.12600
H 	H 	0.55360 0.51910 0.92320 0.07600
C 	C 	0.54440 0.48070 0.87420 0.06200
H 	H 	0.52110 0.46930 0.89330 0.00900
C 	C 	0.55730 0.46740 0.82690 -0.13200
H 	H 	0.54090 0.44720 0.81130 0.06800
C 	C 	0.59330 0.48330 0.80300 0.07400
C 	C 	0.61120 0.47130 0.75230 0.04200
C 	C 	0.59200 0.44130 0.72140 -0.10500
H 	H 	0.56640 0.42770 0.73400 0.05700
C 	C 	0.60950 0.43220 0.67500 0.04600
H 	H 	0.59660 0.41250 0.65470 0.01100
C 	C 	0.64620 0.45250 0.65900 -0.13200
H 	H 	0.65990 0.44680 0.62700 0.08100
C 	C 	0.66360 0.48060 0.68780 0.08300
H 	H 	0.68840 0.49430 0.67420 -0.00000
C 	C 	0.74230 0.48610 0.88500 0.04100
H 	H 	0.71060 0.48890 0.90040 0.02300
C 	C 	0.78580 0.46490 0.91200 -0.06700
H 	H 	0.78330 0.45260 0.94470 0.06700
C 	C 	0.83380 0.46110 0.89180 -0.05100
C 	C 	0.83730 0.48030 0.84470 -0.06100
H 	H 	0.87050 0.47920 0.83110 0.06300
C 	C 	0.79060 0.50120 0.81830 0.03900
C 	C 	0.78870 0.52200 0.76760 0.05200
C 	C 	0.83170 0.52090 0.74030 -0.07800
H 	H 	0.86510 0.50740 0.75550 0.08300
C 	C 	0.82630 0.53960 0.69070 -0.00700
C 	C 	0.77750 0.55960 0.67020 -0.08000
H 	H 	0.77290 0.57330 0.63720 0.07300
C 	C 	0.73620 0.55890 0.69940 0.06100
H 	H 	0.70270 0.57240 0.68520 0.00400
C 	C 	0.88020 0.43630 0.91860 0.30800
C 	C 	0.87190 0.53570 0.66010 0.29400
C 	C 	0.22330 0.38790 0.71450 0.09600
H 	H 	0.18590 0.39800 0.70280 -0.00100
C 	C 	0.25980 0.39540 0.68500 -0.14600
H 	H 	0.24870 0.41030 0.65330 0.09100
C 	C 	0.31410 0.38110 0.70170 0.05700
H 	H 	0.34150 0.38580 0.68150 0.00700
C 	C 	0.32850 0.35960 0.74890 -0.12500
H 	H 	0.36620 0.34970 0.76150 0.06400
C 	C 	0.28850 0.35280 0.77660 0.06200
C 	C 	0.29910 0.32930 0.82580 0.04800
C 	C 	0.35190 0.31380 0.85040 -0.11100
H 	H 	0.38450 0.31840 0.83710 0.06200
C 	C 	0.35720 0.29130 0.89440 0.04100
H 	H 	0.39280 0.27980 0.91130 0.01400
C 	C 	0.31010 0.28620 0.91250 -0.12800
H 	H 	0.31290 0.27100 0.94300 0.06800
C 	C 	0.25760 0.30270 0.88780 0.07300
H 	H 	0.22540 0.29860 0.90190 -0.00600
C 	C 	0.15360 0.31010 0.69340 0.08400
H 	H 	0.17810 0.32470 0.68110 0.00000
C 	C 	0.12780 0.28480 0.65600 -0.13000
H 	H 	0.13520 0.28200 0.61950 0.07800
C 	C 	0.09360 0.26510 0.67190 0.04400
H 	H 	0.07450 0.24860 0.64520 0.01200
C 	C 	0.08310 0.26710 0.72870 -0.10200
H 	H 	0.06050 0.25170 0.74170 0.05600
C 	C 	0.11030 0.29440 0.76310 0.04100
C 	C 	0.09890 0.30150 0.81860 0.06900
C 	C 	0.06560 0.28420 0.84360 -0.14100
H 	H 	0.04800 0.26480 0.82550 0.07100
C 	C 	0.05700 0.29400 0.89330 0.07200
H 	H 	0.03470 0.28110 0.91140 0.00800
C 	C 	0.08040 0.32300 0.91880 -0.15000
H 	H 	0.07330 0.33080 0.95340 0.09600
C 	C 	0.11390 0.33980 0.89260 0.08900
H 	H 	0.13000 0.35980 0.90940 -0.00700
C 	C 	0.06640 0.37870 0.71690 0.04700
H 	H 	0.05750 0.35720 0.70300 0.01300
C 	C 	0.03040 0.40420 0.68740 -0.06500
H 	H 	0.99830 0.40000 0.65270 0.07400
C 	C 	0.04150 0.43520 0.70870 -0.00800
C 	C 	0.08820 0.44010 0.76060 -0.07500
H 	H 	0.09590 0.46120 0.77690 0.08400
C 	C 	0.12260 0.41520 0.78800 0.04800
C 	C 	0.17300 0.41810 0.84320 0.04800
C 	C 	0.18680 0.44620 0.87530 -0.07200
H 	H 	0.16300 0.46490 0.86290 0.07200
C 	C 	0.23560 0.44740 0.92600 -0.02400
C 	C 	0.26750 0.41920 0.94290 -0.07400
H 	H 	0.30070 0.41910 0.97750 0.06400
C 	C 	0.25140 0.39100 0.90980 0.04100
H 	H 	0.27370 0.37190 0.92240 0.00600
C 	C 	0.01020 0.46360 0.67480 0.28600
C 	C 	0.25230 0.47880 0.96010 0.29100
C 	C 	0.08430 0.70630 0.70820 0.07200
H 	H 	0.08580 0.68490 0.69470 0.00300
C 	C 	0.03980 0.72600 0.67710 -0.12200
H 	H 	0.00990 0.71810 0.64350 0.07600
C 	C 	0.03860 0.75770 0.69510 0.04000
H 	H 	0.00870 0.77210 0.67360 0.01200
C 	C 	0.08170 0.76760 0.74490 -0.11400
H 	H 	0.08140 0.78910 0.75840 0.06000
C 	C 	0.12570 0.74670 0.77580 0.05800
C 	C 	0.17600 0.75530 0.82750 0.04700
C 	C 	0.18010 0.78570 0.85440 -0.10400
H 	H 	0.15050 0.80150 0.83980 0.06000
C 	C 	0.22760 0.79160 0.90160 0.02600
H 	H 	0.23220 0.81220 0.91990 0.02200
C 	C 	0.27030 0.76760 0.92420 -0.10500
H 	H 	0.30300 0.77190 0.95830 0.06200
C 	C 	0.26470 0.73760 0.89660 0.04800
H 	H 	0.29410 0.72160 0.91070 0.00400
C 	C 	0.23680 0.71140 0.70730 0.08100
H 	H 	0.19730 0.71830 0.68980 -0.00400
C 	C 	0.27650 0.71770 0.67800 -0.13700
H 	H 	0.26600 0.72950 0.64200 0.07500
C 	C 	0.33220 0.70610 0.70350 0.05900
H 	H 	0.36030 0.70880 0.68330 0.00300
C 	C 	0.34880 0.69080 0.75610 -0.13200
H 	H 	0.38810 0.68370 0.77370 0.06600
C 	C 	0.30730 0.68590 0.78300 0.06400
C 	C 	0.31760 0.66730 0.83830 0.05000
C 	C 	0.37210 0.65350 0.86920 -0.11600
H 	H 	0.40580 0.65650 0.85700 0.06500
C 	C 	0.37420 0.63540 0.91790 0.04800
H 	H 	0.41030 0.62550 0.93950 0.01100
C 	C 	0.32690 0.63120 0.93600 -0.13100
H 	H 	0.32910 0.61790 0.96910 0.07500
C 	C 	0.27470 0.64660 0.90530 0.07300
H 	H 	0.24150 0.64460 0.91880 -0.00100
C 	C 	0.17120 0.63160 0.72250 0.05900
H 	H 	0.20180 0.64040 0.70970 0.00400
C 	C 	0.14080 0.60450 0.69160 -0.07200
H 	H 	0.15120 0.59480 0.66020 0.07100
C 	C 	0.09500 0.59300 0.70970 -0.00900
C 	C 	0.08490 0.60630 0.75850 -0.07600
H 	H 	0.05530 0.59750 0.77260 0.08300
C 	C 	0.11790 0.63250 0.78710 0.05100
C 	C 	0.10720 0.64800 0.83740 0.04300
C 	C 	0.06670 0.63830 0.86330 -0.06700
H 	H 	0.04380 0.61950 0.84970 0.07100
C 	C 	0.05930 0.65630 0.91040 -0.02200
C 	C 	0.09410 0.68260 0.92960 -0.07500
H 	H 	0.09040 0.69490 0.96190 0.06700
C 	C 	0.13430 0.69140 0.90230 0.05100
H 	H 	0.15810 0.70980 0.91650 0.00400
C 	C 	0.05420 0.56680 0.67640 0.31100
C 	C 	0.01430 0.64640 0.93860 0.29900
N 	N 	0.69380 0.57190 0.83530 -0.22400
N 	N 	0.61380 0.56190 0.73380 -0.22000
N 	N 	0.61560 0.51220 0.82100 -0.21900
N 	N 	0.64800 0.49030 0.73410 -0.21600
N 	N 	0.74270 0.50360 0.83700 -0.21000
N 	N 	0.74030 0.54070 0.74620 -0.21500
N 	N 	0.23480 0.36690 0.75970 -0.22500
N 	N 	0.25170 0.32390 0.84470 -0.21800
N 	N 	0.14570 0.31490 0.74510 -0.21800
N 	N 	0.12540 0.32940 0.84400 -0.22600
N 	N 	0.11380 0.38440 0.76480 -0.21000
N 	N 	0.20450 0.39060 0.86000 -0.21000
N 	N 	0.12640 0.71620 0.75740 -0.21600
N 	N 	0.21590 0.73160 0.84850 -0.21300
N 	N 	0.25060 0.69610 0.75960 -0.22400
N 	N 	0.27020 0.66410 0.85740 -0.21800
N 	N 	0.16040 0.64540 0.76760 -0.21600
N 	N 	0.14140 0.67520 0.85630 -0.21100
O 	O 	0.86810 0.41490 0.94730 -0.25900
O 	O 	0.92920 0.44010 0.91470 -0.27900
O 	O 	0.90480 0.51112 0.67450 -0.38300
O 	O 	0.87780 0.55570 0.62310 -0.35200
O 	O 	0.96300 0.46019 0.63300 -0.35200
O 	O 	0.03440 0.49106 0.68980 -0.38200
O 	O 	0.21730 0.50143 0.94830 -0.26000
O 	O 	0.30180 0.47880 0.99770 -0.24800
O 	O 	0.06960 0.54926 0.64050 -0.36200
O 	O 	0.00590 0.56472 0.68410 -0.39300
O 	O 	0.98240 0.62340 0.91920 -0.25200
O 	O 	0.01540 0.66270 0.98270 -0.24100
Ru	Ru	0.82407 0.03120 0.71527 0.95200
Ru	Ru	0.32124 0.85172 0.69639 0.95200
Ru	Ru	0.30503 0.18785 0.69227 0.95100
Tb	Tb	0.53357 0.02209 0.88373 1.50400
C 	C 	0.76150 0.07640 0.61460 0.08800
H 	H 	0.73300 0.05990 0.60120 -0.00400
C 	C 	0.75590 0.10380 0.58280 -0.14400
H 	H 	0.72420 0.10640 0.54720 0.08000
C 	C 	0.79630 0.12760 0.60240 0.06100
H 	H 	0.79240 0.14680 0.58000 0.00700
C 	C 	0.84180 0.12470 0.65300 -0.12600
H 	H 	0.87000 0.14140 0.66650 0.06700
C 	C 	0.84520 0.09630 0.68410 0.05700
C 	C 	0.89190 0.09050 0.74130 0.05500
C 	C 	0.93440 0.11290 0.76690 -0.11400
H 	H 	0.93830 0.13270 0.74870 0.06000
C 	C 	0.97250 0.10330 0.82430 0.03900
H 	H 	0.00360 0.11750 0.84400 0.01100
C 	C 	0.96730 0.07550 0.85220 -0.12800
H 	H 	0.99190 0.07060 0.89100 0.07100
C 	C 	0.92470 0.05530 0.82080 0.07300
H 	H 	0.92120 0.03500 0.83790 -0.00300
C 	C 	0.89820 0.02570 0.63220 0.07100
H 	H 	0.88250 0.04600 0.61690 0.00600
C 	C 	0.93540 0.00920 0.60770 -0.12600
H 	H 	0.94640 0.01910 0.57680 0.07600
C 	C 	0.95560 0.98070 0.62580 0.06300
H 	H 	0.97890 0.96930 0.60670 0.00900
C 	C 	0.94270 0.96740 0.67310 -0.13200
H 	H 	0.95910 0.94720 0.68870 0.06800
C 	C 	0.90670 0.98330 0.69700 0.07500
C 	C 	0.88880 0.97130 0.74770 0.04200
C 	C 	0.90800 0.94130 0.77860 -0.10500
H 	H 	0.93360 0.92770 0.76600 0.05700
C 	C 	0.89050 0.93220 0.82500 0.04600
H 	H 	0.90340 0.91250 0.84530 0.01100
C 	C 	0.85380 0.95250 0.84100 -0.13200
H 	H 	0.84010 0.94680 0.87300 0.08100
C 	C 	0.83640 0.98060 0.81220 0.08300
H 	H 	0.81160 0.99430 0.82580 0.00000
C 	C 	0.75770 0.98610 0.61500 0.04100
H 	H 	0.78940 0.98890 0.59960 0.02300
C 	C 	0.71420 0.96490 0.58800 -0.06700
H 	H 	0.71670 0.95260 0.55530 0.06700
C 	C 	0.66620 0.96110 0.60820 -0.05100
C 	C 	0.66270 0.98030 0.65530 -0.06100
H 	H 	0.62950 0.97920 0.66890 0.06300
C 	C 	0.70940 0.00120 0.68170 0.03900
C 	C 	0.71130 0.02200 0.73240 0.05200
C 	C 	0.66830 0.02090 0.75970 -0.07800
H 	H 	0.63490 0.00740 0.74450 0.08300
C 	C 	0.67370 0.03960 0.80930 -0.00700
C 	C 	0.72250 0.05960 0.82980 -0.08000
H 	H 	0.72710 0.07330 0.86280 0.07300
C 	C 	0.76380 0.05890 0.80060 0.06100
H 	H 	0.79730 0.07240 0.81480 0.00400
C 	C 	0.61980 0.93630 0.58140 0.30800
C 	C 	0.62810 0.03570 0.83990 0.29400
C 	C 	0.27670 0.88790 0.78550 0.09600
H 	H 	0.31410 0.89800 0.79720 -0.00100
C 	C 	0.24020 0.89540 0.81500 -0.14600
H 	H 	0.25130 0.91030 0.84670 0.09100
C 	C 	0.18590 0.88110 0.79830 0.05700
H 	H 	0.15850 0.88580 0.81850 0.00700
C 	C 	0.17150 0.85960 0.75110 -0.12500
H 	H 	0.13380 0.84970 0.73850 0.06400
C 	C 	0.21150 0.85280 0.72340 0.06200
C 	C 	0.20090 0.82930 0.67420 0.04800
C 	C 	0.14810 0.81380 0.64960 -0.11100
H 	H 	0.11550 0.81840 0.66290 0.06200
C 	C 	0.14280 0.79130 0.60560 0.04200
H 	H 	0.10720 0.77980 0.58870 0.01400
C 	C 	0.18990 0.78620 0.58750 -0.12800
H 	H 	0.18710 0.77100 0.55700 0.06800
C 	C 	0.24240 0.80270 0.61220 0.07300
H 	H 	0.27460 0.79860 0.59810 -0.00600
C 	C 	0.34640 0.81010 0.80660 0.08400
H 	H 	0.32190 0.82470 0.81890 0.00000
C 	C 	0.37220 0.78480 0.84400 -0.13000
H 	H 	0.36480 0.78200 0.88050 0.07800
C 	C 	0.40640 0.76510 0.82810 0.04400
H 	H 	0.42550 0.74860 0.85480 0.01200
C 	C 	0.41690 0.76710 0.77130 -0.10200
H 	H 	0.43950 0.75170 0.75830 0.05600
C 	C 	0.38970 0.79440 0.73690 0.04100
C 	C 	0.40110 0.80150 0.68140 0.06900
C 	C 	0.43440 0.78420 0.65640 -0.14100
H 	H 	0.45200 0.76480 0.67450 0.07100
C 	C 	0.44300 0.79400 0.60670 0.07200
H 	H 	0.46530 0.78110 0.58860 0.00800
C 	C 	0.41960 0.82300 0.58120 -0.15000
H 	H 	0.42670 0.83080 0.54660 0.09600
C 	C 	0.38610 0.83980 0.60740 0.08900
H 	H 	0.37000 0.85980 0.59060 -0.00700
C 	C 	0.43360 0.87870 0.78310 0.04700
H 	H 	0.44250 0.85720 0.79700 0.01400
C 	C 	0.46960 0.90420 0.81260 -0.06400
H 	H 	0.50170 0.90000 0.84730 0.07400
C 	C 	0.45850 0.93520 0.79130 -0.00900
C 	C 	0.41180 0.94010 0.73940 -0.07500
H 	H 	0.40410 0.96120 0.72310 0.08400
C 	C 	0.37740 0.91520 0.71200 0.04800
C 	C 	0.32700 0.91810 0.65680 0.04800
C 	C 	0.31320 0.94620 0.62470 -0.07200
H 	H 	0.33700 0.96490 0.63710 0.07200
C 	C 	0.26440 0.94740 0.57400 -0.02400
C 	C 	0.23250 0.91920 0.55710 -0.07400
H 	H 	0.19930 0.91910 0.52250 0.06500
C 	C 	0.24860 0.89100 0.59020 0.04100
H 	H 	0.22630 0.87190 0.57760 0.00600
C 	C 	0.48980 0.96360 0.82520 0.28600
C 	C 	0.24770 0.97880 0.53990 0.29100
C 	C 	0.41570 0.20630 0.79180 0.07200
H 	H 	0.41420 0.18490 0.80530 0.00300
C 	C 	0.46020 0.22600 0.82290 -0.12200
H 	H 	0.49010 0.21810 0.85650 0.07600
C 	C 	0.46140 0.25770 0.80490 0.04000
H 	H 	0.49130 0.27210 0.82640 0.01200
C 	C 	0.41830 0.26760 0.75510 -0.11400
H 	H 	0.41860 0.28910 0.74160 0.06000
C 	C 	0.37430 0.24670 0.72420 0.05800
C 	C 	0.32400 0.25530 0.67250 0.04700
C 	C 	0.31990 0.28570 0.64560 -0.10400
H 	H 	0.34950 0.30150 0.66020 0.06000
C 	C 	0.27240 0.29160 0.59840 0.02600
H 	H 	0.26780 0.31220 0.58010 0.02200
C 	C 	0.22970 0.26760 0.57580 -0.10500
H 	H 	0.19700 0.27190 0.54170 0.06200
C 	C 	0.23530 0.23760 0.60340 0.04800
H 	H 	0.20590 0.22160 0.58930 0.00400
C 	C 	0.26320 0.21140 0.79270 0.08100
H 	H 	0.30270 0.21830 0.81020 -0.00400
C 	C 	0.22350 0.21770 0.82200 -0.13700
H 	H 	0.23400 0.22950 0.85800 0.07500
C 	C 	0.16780 0.20610 0.79650 0.05900
H 	H 	0.13970 0.20880 0.81670 0.00300
C 	C 	0.15120 0.19080 0.74390 -0.13200
H 	H 	0.11190 0.18370 0.72630 0.06600
C 	C 	0.19270 0.18590 0.71700 0.06400
C 	C 	0.18240 0.16730 0.66170 0.05000
C 	C 	0.12790 0.15350 0.63080 -0.11500
H 	H 	0.09420 0.15650 0.64300 0.06500
C 	C 	0.12580 0.13540 0.58210 0.04800
H 	H 	0.08970 0.12550 0.56050 0.01100
C 	C 	0.17310 0.13120 0.56400 -0.13100
H 	H 	0.17090 0.11790 0.53090 0.07500
C 	C 	0.22530 0.14660 0.59470 0.07300
H 	H 	0.25850 0.14460 0.58120 -0.00100
C 	C 	0.32880 0.13160 0.77750 0.05900
H 	H 	0.29820 0.14040 0.79030 0.00400
C 	C 	0.35920 0.10450 0.80840 -0.07200
H 	H 	0.34880 0.09480 0.83980 0.07100
C 	C 	0.40500 0.09300 0.79030 -0.00900
C 	C 	0.41510 0.10630 0.74150 -0.07600
H 	H 	0.44470 0.09750 0.72740 0.08300
C 	C 	0.38210 0.13250 0.71290 0.05100
C 	C 	0.39280 0.14800 0.66260 0.04300
C 	C 	0.43330 0.13830 0.63670 -0.06700
H 	H 	0.45620 0.11950 0.65030 0.07100
C 	C 	0.44070 0.15630 0.58960 -0.02200
C 	C 	0.40590 0.18260 0.57040 -0.07500
H 	H 	0.40960 0.19490 0.53810 0.06700
C 	C 	0.36570 0.19140 0.59770 0.05100
H 	H 	0.34190 0.20980 0.58350 0.00400
C 	C 	0.44580 0.06680 0.82360 0.31100
C 	C 	0.48570 0.14640 0.56140 0.30000
N 	N 	0.80620 0.07190 0.66470 -0.22400
N 	N 	0.88620 0.06190 0.76620 -0.22000
N 	N 	0.88440 0.01220 0.67900 -0.21900
N 	N 	0.85200 0.99030 0.76590 -0.21600
N 	N 	0.75730 0.00360 0.66300 -0.21000
N 	N 	0.75970 0.04070 0.75380 -0.21500
N 	N 	0.26520 0.86690 0.74030 -0.22500
N 	N 	0.24830 0.82390 0.65530 -0.21800
N 	N 	0.35430 0.81490 0.75490 -0.21800
N 	N 	0.37460 0.82940 0.65600 -0.22600
N 	N 	0.38620 0.88440 0.73520 -0.21000
N 	N 	0.29550 0.89060 0.64000 -0.21000
N 	N 	0.37360 0.21620 0.74260 -0.21600
N 	N 	0.28410 0.23160 0.65150 -0.21300
N 	N 	0.24940 0.19610 0.74040 -0.22400
N 	N 	0.22980 0.16410 0.64260 -0.21800
N 	N 	0.33960 0.14540 0.73240 -0.21600
N 	N 	0.35860 0.17520 0.64370 -0.21100
O 	O 	0.63190 0.91490 0.55270 -0.25900
O 	O 	0.57080 0.94010 0.58530 -0.27900
O 	O 	0.59520 0.01112 0.82550 -0.38300
O 	O 	0.62220 0.05570 0.87690 -0.35200
O 	O 	0.53700 0.96019 0.86700 -0.35200
O 	O 	0.46560 0.99106 0.81020 -0.38200
O 	O 	0.28270 0.00143 0.55170 -0.26000
O 	O 	0.19820 0.97880 0.50230 -0.24800
O 	O 	0.43040 0.04926 0.85950 -0.36200
O 	O 	0.49410 0.06472 0.81590 -0.39300
O 	O 	0.51760 0.12340 0.58080 -0.25300
O 	O 	0.48460 0.16270 0.51730 -0.24100
Ru	Ru	0.32407 0.53120 0.71527 0.95200
Ru	Ru	0.82124 0.35172 0.69639 0.95200
Ru	Ru	0.80503 0.68785 0.69227 0.95100
Tb	Tb	0.03357 0.52209 0.88373 1.50300
C 	C 	0.26150 0.57640 0.61460 0.08800
H 	H 	0.23300 0.55990 0.60120 -0.00400
C 	C 	0.25590 0.60380 0.58280 -0.14400
H 	H 	0.22420 0.60640 0.54720 0.08000
C 	C 	0.29630 0.62760 0.60240 0.06100
H 	H 	0.29240 0.64680 0.58000 0.00700
C 	C 	0.34180 0.62470 0.65300 -0.12600
H 	H 	0.37000 0.64140 0.66650 0.06700
C 	C 	0.34520 0.59630 0.68410 0.05800
C 	C 	0.39190 0.59050 0.74130 0.05500
C 	C 	0.43440 0.61290 0.76690 -0.11300
H 	H 	0.43830 0.63270 0.74870 0.06000
C 	C 	0.47250 0.60330 0.82430 0.03700
H 	H 	0.50360 0.61750 0.84400 0.01200
C 	C 	0.46730 0.57550 0.85220 -0.12700
H 	H 	0.49190 0.57060 0.89100 0.07000
C 	C 	0.42470 0.55530 0.82080 0.07200
H 	H 	0.42120 0.53500 0.83790 -0.00200
C 	C 	0.39820 0.52570 0.63220 0.07100
H 	H 	0.38250 0.54600 0.61690 0.00600
C 	C 	0.43540 0.50920 0.60770 -0.12600
H 	H 	0.44640 0.51910 0.57680 0.07600
C 	C 	0.45560 0.48070 0.62580 0.06200
H 	H 	0.47890 0.46930 0.60670 0.00900
C 	C 	0.44270 0.46740 0.67310 -0.13200
H 	H 	0.45910 0.44720 0.68870 0.06800
C 	C 	0.40670 0.48330 0.69700 0.07400
C 	C 	0.38880 0.47130 0.74770 0.04200
C 	C 	0.40800 0.44130 0.77860 -0.10500
H 	H 	0.43360 0.42770 0.76600 0.05700
C 	C 	0.39050 0.43220 0.82500 0.04600
H 	H 	0.40340 0.41250 0.84530 0.01100
C 	C 	0.35380 0.45250 0.84100 -0.13200
H 	H 	0.34010 0.44680 0.87300 0.08100
C 	C 	0.33640 0.48060 0.81220 0.08300
H 	H 	0.31160 0.49430 0.82580 -0.00000
C 	C 	0.25770 0.48610 0.61500 0.04100
H 	H 	0.28940 0.48890 0.59960 0.02300
C 	C 	0.21420 0.46490 0.58800 -0.06700
H 	H 	0.21670 0.45260 0.55530 0.06700
C 	C 	0.16620 0.46110 0.60820 -0.05100
C 	C 	0.16270 0.48030 0.65530 -0.06100
H 	H 	0.12950 0.47920 0.66890 0.06300
C 	C 	0.20940 0.50120 0.68170 0.03900
C 	C 	0.21130 0.52200 0.73240 0.05200
C 	C 	0.16830 0.52090 0.75970 -0.07800
H 	H 	0.13490 0.50740 0.74450 0.08300
C 	C 	0.17370 0.53960 0.80930 -0.00700
C 	C 	0.22250 0.55960 0.82980 -0.08000
H 	H 	0.22710 0.57330 0.86280 0.07300
C 	C 	0.26380 0.55890 0.80060 0.06100
H 	H 	0.29730 0.57240 0.81480 0.00400
C 	C 	0.11980 0.43630 0.58140 0.30800
C 	C 	0.12810 0.53570 0.83990 0.29400
C 	C 	0.77670 0.38790 0.78550 0.09600
H 	H 	0.81410 0.39800 0.79720 -0.00100
C 	C 	0.74020 0.39540 0.81500 -0.14600
H 	H 	0.75130 0.41030 0.84670 0.09100
C 	C 	0.68590 0.38110 0.79830 0.05700
H 	H 	0.65850 0.38580 0.81850 0.00700
C 	C 	0.67150 0.35960 0.75110 -0.12500
H 	H 	0.63380 0.34970 0.73850 0.06400
C 	C 	0.71150 0.35280 0.72340 0.06200
C 	C 	0.70090 0.32930 0.67420 0.04800
C 	C 	0.64810 0.31380 0.64960 -0.11100
H 	H 	0.61550 0.31840 0.66290 0.06200
C 	C 	0.64280 0.29130 0.60560 0.04200
H 	H 	0.60720 0.27980 0.58870 0.01400
C 	C 	0.68990 0.28620 0.58750 -0.12800
H 	H 	0.68710 0.27100 0.55700 0.06800
C 	C 	0.74240 0.30270 0.61220 0.07300
H 	H 	0.77460 0.29860 0.59810 -0.00600
C 	C 	0.84640 0.31010 0.80660 0.08400
H 	H 	0.82190 0.32470 0.81890 0.00000
C 	C 	0.87220 0.28480 0.84400 -0.13000
H 	H 	0.86480 0.28200 0.88050 0.07800
C 	C 	0.90640 0.26510 0.82810 0.04400
H 	H 	0.92550 0.24860 0.85480 0.01300
C 	C 	0.91690 0.26710 0.77130 -0.10200
H 	H 	0.93950 0.25170 0.75830 0.05600
C 	C 	0.88970 0.29440 0.73690 0.04100
C 	C 	0.90110 0.30150 0.68140 0.06900
C 	C 	0.93440 0.28420 0.65640 -0.14100
H 	H 	0.95200 0.26480 0.67450 0.07100
C 	C 	0.94300 0.29400 0.60670 0.07200
H 	H 	0.96530 0.28110 0.58860 0.00800
C 	C 	0.91960 0.32300 0.58120 -0.15000
H 	H 	0.92670 0.33080 0.54660 0.09600
C 	C 	0.88610 0.33980 0.60740 0.08900
H 	H 	0.87000 0.35980 0.59060 -0.00700
C 	C 	0.93360 0.37870 0.78310 0.04600
H 	H 	0.94250 0.35720 0.79700 0.01400
C 	C 	0.96960 0.40420 0.81260 -0.06200
H 	H 	0.00170 0.40000 0.84730 0.07300
C 	C 	0.95850 0.43520 0.79130 -0.00900
C 	C 	0.91180 0.44010 0.73940 -0.07400
H 	H 	0.90410 0.46120 0.72310 0.08400
C 	C 	0.87740 0.41520 0.71200 0.04800
C 	C 	0.82700 0.41810 0.65680 0.04800
C 	C 	0.81320 0.44620 0.62470 -0.07300
H 	H 	0.83700 0.46490 0.63710 0.07200
C 	C 	0.76440 0.44740 0.57400 -0.02400
C 	C 	0.73250 0.41920 0.55710 -0.07400
H 	H 	0.69930 0.41910 0.52250 0.06400
C 	C 	0.74860 0.39100 0.59020 0.04100
H 	H 	0.72630 0.37190 0.57760 0.00600
C 	C 	0.98980 0.46360 0.82520 0.28800
C 	C 	0.74770 0.47880 0.53990 0.29100
C 	C 	0.91570 0.70630 0.79180 0.07200
H 	H 	0.91420 0.68490 0.80530 0.00300
C 	C 	0.96020 0.72600 0.82290 -0.12200
H 	H 	0.99010 0.71810 0.85650 0.07700
C 	C 	0.96140 0.75770 0.80490 0.04000
H 	H 	0.99130 0.77210 0.82640 0.01200
C 	C 	0.91830 0.76760 0.75510 -0.11400
H 	H 	0.91860 0.78910 0.74160 0.06000
C 	C 	0.87430 0.74670 0.72420 0.05800
C 	C 	0.82400 0.75530 0.67250 0.04700
C 	C 	0.81990 0.78570 0.64560 -0.10400
H 	H 	0.84950 0.80150 0.66020 0.06000
C 	C 	0.77240 0.79160 0.59840 0.02600
H 	H 	0.76780 0.81220 0.58010 0.02200
C 	C 	0.72970 0.76760 0.57580 -0.10500
H 	H 	0.69700 0.77190 0.54170 0.06200
C 	C 	0.73530 0.73760 0.60340 0.04800
H 	H 	0.70590 0.72160 0.58930 0.00400
C 	C 	0.76320 0.71140 0.79270 0.08100
H 	H 	0.80270 0.71830 0.81020 -0.00400
C 	C 	0.72350 0.71770 0.82200 -0.13700
H 	H 	0.73400 0.72950 0.85800 0.07500
C 	C 	0.66780 0.70610 0.79650 0.05900
H 	H 	0.63970 0.70880 0.81670 0.00300
C 	C 	0.65120 0.69080 0.74390 -0.13100
H 	H 	0.61190 0.68370 0.72630 0.06600
C 	C 	0.69270 0.68590 0.71700 0.06400
C 	C 	0.68240 0.66730 0.66170 0.05000
C 	C 	0.62790 0.65350 0.63080 -0.11600
H 	H 	0.59420 0.65650 0.64300 0.06500
C 	C 	0.62580 0.63540 0.58210 0.04800
H 	H 	0.58970 0.62550 0.56050 0.01100
C 	C 	0.67310 0.63120 0.56400 -0.13100
H 	H 	0.67090 0.61790 0.53090 0.07500
C 	C 	0.72530 0.64660 0.59470 0.07300
H 	H 	0.75850 0.64460 0.58120 -0.00100
C 	C 	0.82880 0.63160 0.77750 0.05900
H 	H 	0.79820 0.64040 0.79030 0.00400
C 	C 	0.85920 0.60450 0.80840 -0.07200
H 	H 	0.84880 0.59480 0.83980 0.07100
C 	C 	0.90500 0.59300 0.79030 -0.00900
C 	C 	0.91510 0.60630 0.74150 -0.07600
H 	H 	0.94470 0.59750 0.72740 0.08300
C 	C 	0.88210 0.63250 0.71290 0.05100
C 	C 	0.89280 0.64800 0.66260 0.04300
C 	C 	0.93330 0.63830 0.63670 -0.06700
H 	H 	0.95620 0.61950 0.65030 0.07200
C 	C 	0.94070 0.65630 0.58960 -0.02200
C 	C 	0.90590 0.68260 0.57040 -0.07500
H 	H 	0.90960 0.69490 0.53810 0.06700
C 	C 	0.86570 0.69140 0.59770 0.05100
H 	H 	0.84190 0.70980 0.58350 0.00400
C 	C 	0.94580 0.56680 0.82360 0.31100
C 	C 	0.98570 0.64640 0.56140 0.30000
N 	N 	0.30620 0.57190 0.66470 -0.22400
N 	N 	0.38620 0.56190 0.76620 -0.22000
N 	N 	0.38440 0.51220 0.67900 -0.21900
N 	N 	0.35200 0.49030 0.76590 -0.21600
N 	N 	0.25730 0.50360 0.66300 -0.21000
N 	N 	0.25970 0.54070 0.75380 -0.21500
N 	N 	0.76520 0.36690 0.74030 -0.22500
N 	N 	0.74830 0.32390 0.65530 -0.21800
N 	N 	0.85430 0.31490 0.75490 -0.21800
N 	N 	0.87460 0.32940 0.65600 -0.22600
N 	N 	0.88620 0.38440 0.73520 -0.21000
N 	N 	0.79550 0.39060 0.64000 -0.21000
N 	N 	0.87360 0.71620 0.74260 -0.21600
N 	N 	0.78410 0.73160 0.65150 -0.21300
N 	N 	0.74940 0.69610 0.74040 -0.22400
N 	N 	0.72980 0.66410 0.64260 -0.21800
N 	N 	0.83960 0.64540 0.73240 -0.21600
N 	N 	0.85860 0.67520 0.64370 -0.21100
O 	O 	0.13190 0.41490 0.55270 -0.25900
O 	O 	0.07080 0.44010 0.58530 -0.27900
O 	O 	0.09520 0.51112 0.82550 -0.38300
O 	O 	0.12220 0.55570 0.87690 -0.35200
O 	O 	0.03700 0.46019 0.86700 -0.35300
O 	O 	0.96560 0.49106 0.81020 -0.38200
O 	O 	0.78270 0.50143 0.55170 -0.26000
O 	O 	0.69820 0.47880 0.50230 -0.24800
O 	O 	0.93040 0.54926 0.85950 -0.36200
O 	O 	0.99410 0.56472 0.81590 -0.39300
O 	O 	0.01760 0.62340 0.58080 -0.25300
O 	O 	0.98460 0.66270 0.51730 -0.24100
Ru	Ru	0.82407 0.96880 0.21527 0.95200
Ru	Ru	0.32124 0.14828 0.19639 0.95200
Ru	Ru	0.30503 0.81215 0.19227 0.95100
Tb	Tb	0.53357 0.97791 0.38373 1.50400
C 	C 	0.76150 0.92360 0.11460 0.08800
H 	H 	0.73300 0.94010 0.10120 -0.00400
C 	C 	0.75590 0.89620 0.08280 -0.14400
H 	H 	0.72420 0.89360 0.04720 0.08000
C 	C 	0.79630 0.87240 0.10240 0.06100
H 	H 	0.79240 0.85320 0.08000 0.00600
C 	C 	0.84180 0.87530 0.15300 -0.12700
H 	H 	0.87000 0.85860 0.16650 0.06700
C 	C 	0.84520 0.90370 0.18410 0.05800
C 	C 	0.89190 0.90950 0.24130 0.05400
C 	C 	0.93440 0.88710 0.26690 -0.11300
H 	H 	0.93830 0.86730 0.24870 0.05900
C 	C 	0.97250 0.89670 0.32430 0.03600
H 	H 	0.00360 0.88250 0.34400 0.01300
C 	C 	0.96730 0.92450 0.35220 -0.12600
H 	H 	0.99190 0.92940 0.39100 0.07000
C 	C 	0.92470 0.94470 0.32080 0.07200
H 	H 	0.92120 0.96500 0.33790 -0.00200
C 	C 	0.89820 0.97430 0.13220 0.07100
H 	H 	0.88250 0.95400 0.11690 0.00600
C 	C 	0.93540 0.99080 0.10770 -0.12600
H 	H 	0.94640 0.98090 0.07680 0.07600
C 	C 	0.95560 0.01930 0.12580 0.06300
H 	H 	0.97890 0.03070 0.10670 0.00900
C 	C 	0.94270 0.03260 0.17310 -0.13200
H 	H 	0.95910 0.05280 0.18870 0.06800
C 	C 	0.90670 0.01670 0.19700 0.07500
C 	C 	0.88880 0.02870 0.24770 0.04200
C 	C 	0.90800 0.05870 0.27860 -0.10500
H 	H 	0.93360 0.07230 0.26600 0.05700
C 	C 	0.89050 0.06780 0.32500 0.04600
H 	H 	0.90340 0.08750 0.34530 0.01100
C 	C 	0.85380 0.04750 0.34100 -0.13200
H 	H 	0.84010 0.05320 0.37300 0.08100
C 	C 	0.83640 0.01940 0.31220 0.08300
H 	H 	0.81160 0.00570 0.32580 0.00000
C 	C 	0.75770 0.01390 0.11500 0.04100
H 	H 	0.78940 0.01110 0.09960 0.02300
C 	C 	0.71420 0.03510 0.08800 -0.06700
H 	H 	0.71670 0.04740 0.05530 0.06700
C 	C 	0.66620 0.03890 0.10820 -0.05100
C 	C 	0.66270 0.01970 0.15530 -0.06100
H 	H 	0.62950 0.02080 0.16890 0.06300
C 	C 	0.70940 0.99880 0.18170 0.03900
C 	C 	0.71130 0.97800 0.23240 0.05200
C 	C 	0.66830 0.97910 0.25970 -0.07800
H 	H 	0.63490 0.99260 0.24450 0.08300
C 	C 	0.67370 0.96040 0.30930 -0.00700
C 	C 	0.72250 0.94040 0.32980 -0.08000
H 	H 	0.72710 0.92670 0.36280 0.07300
C 	C 	0.76380 0.94110 0.30060 0.06100
H 	H 	0.79730 0.92760 0.31480 0.00400
C 	C 	0.61980 0.06370 0.08140 0.30800
C 	C 	0.62810 0.96430 0.33990 0.29400
C 	C 	0.27670 0.11210 0.28550 0.09600
H 	H 	0.31410 0.10200 0.29720 -0.00100
C 	C 	0.24020 0.10460 0.31500 -0.14600
H 	H 	0.25130 0.08970 0.34670 0.09100
C 	C 	0.18590 0.11890 0.29830 0.05700
H 	H 	0.15850 0.11420 0.31850 0.00700
C 	C 	0.17150 0.14040 0.25110 -0.12500
H 	H 	0.13380 0.15030 0.23850 0.06400
C 	C 	0.21150 0.14720 0.22340 0.06200
C 	C 	0.20090 0.17070 0.17420 0.04800
C 	C 	0.14810 0.18620 0.14960 -0.11100
H 	H 	0.11550 0.18160 0.16290 0.06200
C 	C 	0.14280 0.20870 0.10560 0.04200
H 	H 	0.10720 0.22020 0.08870 0.01400
C 	C 	0.18990 0.21380 0.08750 -0.12800
H 	H 	0.18710 0.22900 0.05700 0.06800
C 	C 	0.24240 0.19730 0.11220 0.07300
H 	H 	0.27460 0.20140 0.09810 -0.00600
C 	C 	0.34640 0.18990 0.30660 0.08400
H 	H 	0.32190 0.17530 0.31890 0.00000
C 	C 	0.37220 0.21520 0.34400 -0.13000
H 	H 	0.36480 0.21800 0.38050 0.07800
C 	C 	0.40640 0.23490 0.32810 0.04400
H 	H 	0.42550 0.25140 0.35480 0.01200
C 	C 	0.41690 0.23290 0.27130 -0.10200
H 	H 	0.43950 0.24830 0.25830 0.05600
C 	C 	0.38970 0.20560 0.23690 0.04100
C 	C 	0.40110 0.19850 0.18140 0.06900
C 	C 	0.43440 0.21580 0.15640 -0.14100
H 	H 	0.45200 0.23520 0.17450 0.07100
C 	C 	0.44300 0.20600 0.10670 0.07200
H 	H 	0.46530 0.21890 0.08860 0.00800
C 	C 	0.41960 0.17700 0.08120 -0.15000
H 	H 	0.42670 0.16920 0.04660 0.09600
C 	C 	0.38610 0.16020 0.10740 0.08900
H 	H 	0.37000 0.14020 0.09060 -0.00700
C 	C 	0.43360 0.12130 0.28310 0.04700
H 	H 	0.44250 0.14280 0.29700 0.01400
C 	C 	0.46960 0.09580 0.31260 -0.06400
H 	H 	0.50170 0.10000 0.34730 0.07400
C 	C 	0.45850 0.06480 0.29130 -0.00900
C 	C 	0.41180 0.05990 0.23940 -0.07500
H 	H 	0.40410 0.03880 0.22310 0.08400
C 	C 	0.37740 0.08480 0.21200 0.04800
C 	C 	0.32700 0.08190 0.15680 0.04800
C 	C 	0.31320 0.05380 0.12470 -0.07200
H 	H 	0.33700 0.03510 0.13710 0.07200
C 	C 	0.26440 0.05260 0.07400 -0.02400
C 	C 	0.23250 0.08080 0.05710 -0.07400
H 	H 	0.19930 0.08090 0.02250 0.06500
C 	C 	0.24860 0.10900 0.09020 0.04100
H 	H 	0.22630 0.12810 0.07760 0.00600
C 	C 	0.48980 0.03640 0.32520 0.28600
C 	C 	0.24770 0.02120 0.03990 0.29100
C 	C 	0.41570 0.79370 0.29180 0.07200
H 	H 	0.41420 0.81510 0.30530 0.00300
C 	C 	0.46020 0.77400 0.32290 -0.12200
H 	H 	0.49010 0.78190 0.35650 0.07600
C 	C 	0.46140 0.74230 0.30490 0.04000
H 	H 	0.49130 0.72790 0.32640 0.01200
C 	C 	0.41830 0.73240 0.25510 -0.11400
H 	H 	0.41860 0.71090 0.24160 0.06000
C 	C 	0.37430 0.75330 0.22420 0.05800
C 	C 	0.32400 0.74470 0.17250 0.04700
C 	C 	0.31990 0.71430 0.14560 -0.10400
H 	H 	0.34950 0.69850 0.16020 0.06000
C 	C 	0.27240 0.70840 0.09840 0.02600
H 	H 	0.26780 0.68780 0.08010 0.02200
C 	C 	0.22970 0.73240 0.07580 -0.10500
H 	H 	0.19700 0.72810 0.04170 0.06200
C 	C 	0.23530 0.76240 0.10340 0.04800
H 	H 	0.20590 0.77840 0.08930 0.00400
C 	C 	0.26320 0.78860 0.29270 0.08100
H 	H 	0.30270 0.78170 0.31020 -0.00400
C 	C 	0.22350 0.78230 0.32200 -0.13700
H 	H 	0.23400 0.77050 0.35800 0.07500
C 	C 	0.16780 0.79390 0.29650 0.05900
H 	H 	0.13970 0.79120 0.31670 0.00300
C 	C 	0.15120 0.80920 0.24390 -0.13200
H 	H 	0.11190 0.81630 0.22630 0.06600
C 	C 	0.19270 0.81410 0.21700 0.06400
C 	C 	0.18240 0.83270 0.16170 0.05000
C 	C 	0.12790 0.84650 0.13080 -0.11500
H 	H 	0.09420 0.84350 0.14300 0.06500
C 	C 	0.12580 0.86460 0.08210 0.04800
H 	H 	0.08970 0.87450 0.06050 0.01100
C 	C 	0.17310 0.86880 0.06400 -0.13100
H 	H 	0.17090 0.88210 0.03090 0.07500
C 	C 	0.22530 0.85340 0.09470 0.07300
H 	H 	0.25850 0.85540 0.08120 -0.00100
C 	C 	0.32880 0.86840 0.27750 0.05900
H 	H 	0.29820 0.85960 0.29030 0.00400
C 	C 	0.35920 0.89550 0.30840 -0.07200
H 	H 	0.34880 0.90520 0.33980 0.07100
C 	C 	0.40500 0.90700 0.29030 -0.00900
C 	C 	0.41510 0.89370 0.24150 -0.07600
H 	H 	0.44470 0.90250 0.22740 0.08300
C 	C 	0.38210 0.86750 0.21290 0.05100
C 	C 	0.39280 0.85200 0.16260 0.04300
C 	C 	0.43330 0.86170 0.13670 -0.06700
H 	H 	0.45620 0.88050 0.15030 0.07100
C 	C 	0.44070 0.84370 0.08960 -0.02200
C 	C 	0.40590 0.81740 0.07040 -0.07500
H 	H 	0.40960 0.80510 0.03810 0.06700
C 	C 	0.36570 0.80860 0.09770 0.05100
H 	H 	0.34190 0.79020 0.08350 0.00400
C 	C 	0.44580 0.93320 0.32360 0.31100
C 	C 	0.48570 0.85360 0.06140 0.30000
N 	N 	0.80620 0.92810 0.16470 -0.22400
N 	N 	0.88620 0.93810 0.26620 -0.22000
N 	N 	0.88440 0.98780 0.17900 -0.21900
N 	N 	0.85200 0.00970 0.26590 -0.21600
N 	N 	0.75730 0.99640 0.16300 -0.21000
N 	N 	0.75970 0.95930 0.25380 -0.21500
N 	N 	0.26520 0.13310 0.24030 -0.22500
N 	N 	0.24830 0.17610 0.15530 -0.21800
N 	N 	0.35430 0.18510 0.25490 -0.21800
N 	N 	0.37460 0.17060 0.15600 -0.22600
N 	N 	0.38620 0.11560 0.23520 -0.21000
N 	N 	0.29550 0.10940 0.14000 -0.21000
N 	N 	0.37360 0.78380 0.24260 -0.21600
N 	N 	0.28410 0.76840 0.15150 -0.21300
N 	N 	0.24940 0.80390 0.24040 -0.22400
N 	N 	0.22980 0.83590 0.14260 -0.21800
N 	N 	0.33960 0.85460 0.23240 -0.21600
N 	N 	0.35860 0.82480 0.14370 -0.21100
O 	O 	0.63190 0.08510 0.05270 -0.25900
O 	O 	0.57080 0.05990 0.08530 -0.27900
O 	O 	0.59520 0.98888 0.32550 -0.38300
O 	O 	0.62220 0.94430 0.37690 -0.35200
O 	O 	0.53700 0.03981 0.36700 -0.35200
O 	O 	0.46560 0.00894 0.31020 -0.38200
O 	O 	0.28270 0.99857 0.05170 -0.26000
O 	O 	0.19820 0.02120 0.00230 -0.24800
O 	O 	0.43040 0.95074 0.35950 -0.36200
O 	O 	0.49410 0.93528 0.31590 -0.39300
O 	O 	0.51760 0.87660 0.08080 -0.25300
O 	O 	0.48460 0.83730 0.01730 -0.24100
Ru	Ru	0.32407 0.46880 0.21527 0.95200
Ru	Ru	0.82124 0.64828 0.19639 0.95200
Ru	Ru	0.80503 0.31215 0.19227 0.95100
Tb	Tb	0.03357 0.47791 0.38373 1.50500
C 	C 	0.26150 0.42360 0.11460 0.08800
H 	H 	0.23300 0.44010 0.10120 -0.00400
C 	C 	0.25590 0.39620 0.08280 -0.14400
H 	H 	0.22420 0.39360 0.04720 0.08000
C 	C 	0.29630 0.37240 0.10240 0.06100
H 	H 	0.29240 0.35320 0.08000 0.00700
C 	C 	0.34180 0.37530 0.15300 -0.12600
H 	H 	0.37000 0.35860 0.16650 0.06700
C 	C 	0.34520 0.40370 0.18410 0.05800
C 	C 	0.39190 0.40950 0.24130 0.05500
C 	C 	0.43440 0.38710 0.26690 -0.11300
H 	H 	0.43830 0.36730 0.24870 0.06000
C 	C 	0.47250 0.39670 0.32430 0.03700
H 	H 	0.50360 0.38250 0.34400 0.01200
C 	C 	0.46730 0.42450 0.35220 -0.12700
H 	H 	0.49190 0.42940 0.39100 0.07000
C 	C 	0.42470 0.44470 0.32080 0.07200
H 	H 	0.42120 0.46500 0.33790 -0.00200
C 	C 	0.39820 0.47430 0.13220 0.07100
H 	H 	0.38250 0.45400 0.11690 0.00600
C 	C 	0.43540 0.49080 0.10770 -0.12600
H 	H 	0.44640 0.48090 0.07680 0.07600
C 	C 	0.45560 0.51930 0.12580 0.06200
H 	H 	0.47890 0.53070 0.10670 0.00900
C 	C 	0.44270 0.53260 0.17310 -0.13200
H 	H 	0.45910 0.55280 0.18870 0.06800
C 	C 	0.40670 0.51670 0.19700 0.07400
C 	C 	0.38880 0.52870 0.24770 0.04200
C 	C 	0.40800 0.55870 0.27860 -0.10500
H 	H 	0.43360 0.57230 0.26600 0.05700
C 	C 	0.39050 0.56780 0.32500 0.04600
H 	H 	0.40340 0.58750 0.34530 0.01100
C 	C 	0.35380 0.54750 0.34100 -0.13200
H 	H 	0.34010 0.55320 0.37300 0.08100
C 	C 	0.33640 0.51940 0.31220 0.08300
H 	H 	0.31160 0.50570 0.32580 -0.00000
C 	C 	0.25770 0.51390 0.11500 0.04100
H 	H 	0.28940 0.51110 0.09960 0.02300
C 	C 	0.21420 0.53510 0.08800 -0.06700
H 	H 	0.21670 0.54740 0.05530 0.06700
C 	C 	0.16620 0.53890 0.10820 -0.05100
C 	C 	0.16270 0.51970 0.15530 -0.06100
H 	H 	0.12950 0.52080 0.16890 0.06300
C 	C 	0.20940 0.49880 0.18170 0.03900
C 	C 	0.21130 0.47800 0.23240 0.05200
C 	C 	0.16830 0.47910 0.25970 -0.07800
H 	H 	0.13490 0.49260 0.24450 0.08300
C 	C 	0.17370 0.46040 0.30930 -0.00700
C 	C 	0.22250 0.44040 0.32980 -0.08000
H 	H 	0.22710 0.42670 0.36280 0.07300
C 	C 	0.26380 0.44110 0.30060 0.06100
H 	H 	0.29730 0.42760 0.31480 0.00400
C 	C 	0.11980 0.56370 0.08140 0.30800
C 	C 	0.12810 0.46430 0.33990 0.29400
C 	C 	0.77670 0.61210 0.28550 0.09600
H 	H 	0.81410 0.60200 0.29720 -0.00100
C 	C 	0.74020 0.60460 0.31500 -0.14600
H 	H 	0.75130 0.58970 0.34670 0.09100
C 	C 	0.68590 0.61890 0.29830 0.05700
H 	H 	0.65850 0.61420 0.31850 0.00700
C 	C 	0.67150 0.64040 0.25110 -0.12500
H 	H 	0.63380 0.65030 0.23850 0.06400
C 	C 	0.71150 0.64720 0.22340 0.06200
C 	C 	0.70090 0.67070 0.17420 0.04800
C 	C 	0.64810 0.68620 0.14960 -0.11100
H 	H 	0.61550 0.68160 0.16290 0.06200
C 	C 	0.64280 0.70870 0.10560 0.04100
H 	H 	0.60720 0.72020 0.08870 0.01400
C 	C 	0.68990 0.71380 0.08750 -0.12800
H 	H 	0.68710 0.72900 0.05700 0.06800
C 	C 	0.74240 0.69730 0.11220 0.07300
H 	H 	0.77460 0.70140 0.09810 -0.00600
C 	C 	0.84640 0.68990 0.30660 0.08400
H 	H 	0.82190 0.67530 0.31890 0.00000
C 	C 	0.87220 0.71520 0.34400 -0.13000
H 	H 	0.86480 0.71800 0.38050 0.07800
C 	C 	0.90640 0.73490 0.32810 0.04400
H 	H 	0.92550 0.75140 0.35480 0.01200
C 	C 	0.91690 0.73290 0.27130 -0.10200
H 	H 	0.93950 0.74830 0.25830 0.05600
C 	C 	0.88970 0.70560 0.23690 0.04100
C 	C 	0.90110 0.69850 0.18140 0.06900
C 	C 	0.93440 0.71580 0.15640 -0.14100
H 	H 	0.95200 0.73520 0.17450 0.07100
C 	C 	0.94300 0.70600 0.10670 0.07200
H 	H 	0.96530 0.71890 0.08860 0.00800
C 	C 	0.91960 0.67700 0.08120 -0.15000
H 	H 	0.92670 0.66920 0.04660 0.09600
C 	C 	0.88610 0.66020 0.10740 0.08900
H 	H 	0.87000 0.64020 0.09060 -0.00700
C 	C 	0.93360 0.62130 0.28310 0.04700
H 	H 	0.94250 0.64280 0.29700 0.01300
C 	C 	0.96960 0.59580 0.31260 -0.06500
H 	H 	0.00170 0.60000 0.34730 0.07400
C 	C 	0.95850 0.56480 0.29130 -0.00800
C 	C 	0.91180 0.55990 0.23940 -0.07500
H 	H 	0.90410 0.53880 0.22310 0.08400
C 	C 	0.87740 0.58480 0.21200 0.04800
C 	C 	0.82700 0.58190 0.15680 0.04800
C 	C 	0.81320 0.55380 0.12470 -0.07200
H 	H 	0.83700 0.53510 0.13710 0.07200
C 	C 	0.76440 0.55260 0.07400 -0.02400
C 	C 	0.73250 0.58080 0.05710 -0.07400
H 	H 	0.69930 0.58090 0.02250 0.06400
C 	C 	0.74860 0.60900 0.09020 0.04100
H 	H 	0.72630 0.62810 0.07760 0.00600
C 	C 	0.98980 0.53640 0.32520 0.28600
C 	C 	0.74770 0.52120 0.03990 0.29100
C 	C 	0.91570 0.29370 0.29180 0.07200
H 	H 	0.91420 0.31510 0.30530 0.00300
C 	C 	0.96020 0.27400 0.32290 -0.12200
H 	H 	0.99010 0.28190 0.35650 0.07600
C 	C 	0.96140 0.24230 0.30490 0.04000
H 	H 	0.99130 0.22790 0.32640 0.01200
C 	C 	0.91830 0.23240 0.25510 -0.11400
H 	H 	0.91860 0.21090 0.24160 0.06000
C 	C 	0.87430 0.25330 0.22420 0.05800
C 	C 	0.82400 0.24470 0.17250 0.04700
C 	C 	0.81990 0.21430 0.14560 -0.10400
H 	H 	0.84950 0.19850 0.16020 0.06000
C 	C 	0.77240 0.20840 0.09840 0.02600
H 	H 	0.76780 0.18780 0.08010 0.02200
C 	C 	0.72970 0.23240 0.07580 -0.10500
H 	H 	0.69700 0.22810 0.04170 0.06200
C 	C 	0.73530 0.26240 0.10340 0.04800
H 	H 	0.70590 0.27840 0.08930 0.00400
C 	C 	0.76320 0.28860 0.29270 0.08100
H 	H 	0.80270 0.28170 0.31020 -0.00400
C 	C 	0.72350 0.28230 0.32200 -0.13700
H 	H 	0.73400 0.27050 0.35800 0.07500
C 	C 	0.66780 0.29390 0.29650 0.05900
H 	H 	0.63970 0.29120 0.31670 0.00300
C 	C 	0.65120 0.30920 0.24390 -0.13200
H 	H 	0.61190 0.31630 0.22630 0.06600
C 	C 	0.69270 0.31410 0.21700 0.06400
C 	C 	0.68240 0.33270 0.16170 0.05000
C 	C 	0.62790 0.34650 0.13080 -0.11600
H 	H 	0.59420 0.34350 0.14300 0.06500
C 	C 	0.62580 0.36460 0.08210 0.04800
H 	H 	0.58970 0.37450 0.06050 0.01100
C 	C 	0.67310 0.36880 0.06400 -0.13100
H 	H 	0.67090 0.38210 0.03090 0.07500
C 	C 	0.72530 0.35340 0.09470 0.07300
H 	H 	0.75850 0.35540 0.08120 -0.00100
C 	C 	0.82880 0.36840 0.27750 0.05900
H 	H 	0.79820 0.35960 0.29030 0.00400
C 	C 	0.85920 0.39550 0.30840 -0.07200
H 	H 	0.84880 0.40520 0.33980 0.07100
C 	C 	0.90500 0.40700 0.29030 -0.00900
C 	C 	0.91510 0.39370 0.24150 -0.07600
H 	H 	0.94470 0.40250 0.22740 0.08300
C 	C 	0.88210 0.36750 0.21290 0.05100
C 	C 	0.89280 0.35200 0.16260 0.04300
C 	C 	0.93330 0.36170 0.13670 -0.06700
H 	H 	0.95620 0.38050 0.15030 0.07100
C 	C 	0.94070 0.34370 0.08960 -0.02200
C 	C 	0.90590 0.31740 0.07040 -0.07500
H 	H 	0.90960 0.30510 0.03810 0.06700
C 	C 	0.86570 0.30860 0.09770 0.05100
H 	H 	0.84190 0.29020 0.08350 0.00400
C 	C 	0.94580 0.43320 0.32360 0.31100
C 	C 	0.98570 0.35360 0.06140 0.29900
N 	N 	0.30620 0.42810 0.16470 -0.22400
N 	N 	0.38620 0.43810 0.26620 -0.22000
N 	N 	0.38440 0.48780 0.17900 -0.21900
N 	N 	0.35200 0.50970 0.26590 -0.21600
N 	N 	0.25730 0.49640 0.16300 -0.21000
N 	N 	0.25970 0.45930 0.25380 -0.21500
N 	N 	0.76520 0.63310 0.24030 -0.22500
N 	N 	0.74830 0.67610 0.15530 -0.21800
N 	N 	0.85430 0.68510 0.25490 -0.21800
N 	N 	0.87460 0.67060 0.15600 -0.22600
N 	N 	0.88620 0.61560 0.23520 -0.21000
N 	N 	0.79550 0.60940 0.14000 -0.21000
N 	N 	0.87360 0.28380 0.24260 -0.21600
N 	N 	0.78410 0.26840 0.15150 -0.21300
N 	N 	0.74940 0.30390 0.24040 -0.22400
N 	N 	0.72980 0.33590 0.14260 -0.21800
N 	N 	0.83960 0.35460 0.23240 -0.21600
N 	N 	0.85860 0.32480 0.14370 -0.21100
O 	O 	0.13190 0.58510 0.05270 -0.25900
O 	O 	0.07080 0.55990 0.08530 -0.27900
O 	O 	0.09520 0.48888 0.32550 -0.38300
O 	O 	0.12220 0.44430 0.37690 -0.35200
O 	O 	0.03700 0.53981 0.36700 -0.35200
O 	O 	0.96560 0.50894 0.31020 -0.38200
O 	O 	0.78270 0.49857 0.05170 -0.26000
O 	O 	0.69820 0.52120 0.00230 -0.24800
O 	O 	0.93040 0.45074 0.35950 -0.36200
O 	O 	0.99410 0.43528 0.31590 -0.39300
O 	O 	0.01760 0.37660 0.08080 -0.25200
O 	O 	0.98460 0.33730 0.01730 -0.24100
Ru	Ru	0.17593 0.96880 0.28473 0.95200
Ru	Ru	0.67876 0.14828 0.30361 0.95200
Ru	Ru	0.69497 0.81215 0.30773 0.95100
Tb	Tb	0.46643 0.97791 0.11627 1.50400
C 	C 	0.23850 0.92360 0.38540 0.08800
H 	H 	0.26700 0.94010 0.39880 -0.00400
C 	C 	0.24410 0.89620 0.41720 -0.14400
H 	H 	0.27580 0.89360 0.45280 0.08000
C 	C 	0.20370 0.87240 0.39760 0.06100
H 	H 	0.20760 0.85320 0.42000 0.00700
C 	C 	0.15820 0.87530 0.34700 -0.12600
H 	H 	0.13000 0.85860 0.33350 0.06700
C 	C 	0.15480 0.90370 0.31590 0.05700
C 	C 	0.10810 0.90950 0.25870 0.05500
C 	C 	0.06560 0.88710 0.23310 -0.11400
H 	H 	0.06170 0.86730 0.25130 0.06000
C 	C 	0.02750 0.89670 0.17570 0.03900
H 	H 	0.99640 0.88250 0.15600 0.01100
C 	C 	0.03270 0.92450 0.14780 -0.12800
H 	H 	0.00810 0.92940 0.10900 0.07100
C 	C 	0.07530 0.94470 0.17920 0.07300
H 	H 	0.07880 0.96500 0.16210 -0.00300
C 	C 	0.10180 0.97430 0.36780 0.07100
H 	H 	0.11750 0.95400 0.38310 0.00600
C 	C 	0.06460 0.99080 0.39230 -0.12600
H 	H 	0.05360 0.98090 0.42320 0.07600
C 	C 	0.04440 0.01930 0.37420 0.06300
H 	H 	0.02110 0.03070 0.39330 0.00900
C 	C 	0.05730 0.03260 0.32690 -0.13200
H 	H 	0.04090 0.05280 0.31130 0.06800
C 	C 	0.09330 0.01670 0.30300 0.07500
C 	C 	0.11120 0.02870 0.25230 0.04200
C 	C 	0.09200 0.05870 0.22140 -0.10500
H 	H 	0.06640 0.07230 0.23400 0.05700
C 	C 	0.10950 0.06780 0.17500 0.04600
H 	H 	0.09660 0.08750 0.15470 0.01100
C 	C 	0.14620 0.04750 0.15900 -0.13200
H 	H 	0.15990 0.05320 0.12700 0.08100
C 	C 	0.16360 0.01940 0.18780 0.08300
H 	H 	0.18840 0.00570 0.17420 0.00000
C 	C 	0.24230 0.01390 0.38500 0.04100
H 	H 	0.21060 0.01110 0.40040 0.02300
C 	C 	0.28580 0.03510 0.41200 -0.06700
H 	H 	0.28330 0.04740 0.44470 0.06700
C 	C 	0.33380 0.03890 0.39180 -0.05100
C 	C 	0.33730 0.01970 0.34470 -0.06100
H 	H 	0.37050 0.02080 0.33110 0.06300
C 	C 	0.29060 0.99880 0.31830 0.03900
C 	C 	0.28870 0.97800 0.26760 0.05200
C 	C 	0.33170 0.97910 0.24030 -0.07800
H 	H 	0.36510 0.99260 0.25550 0.08300
C 	C 	0.32630 0.96040 0.19070 -0.00700
C 	C 	0.27750 0.94040 0.17020 -0.08000
H 	H 	0.27290 0.92670 0.13720 0.07300
C 	C 	0.23620 0.94110 0.19940 0.06100
H 	H 	0.20270 0.92760 0.18520 0.00400
C 	C 	0.38020 0.06370 0.41860 0.30800
C 	C 	0.37190 0.96430 0.16010 0.29400
C 	C 	0.72330 0.11210 0.21450 0.09600
H 	H 	0.68590 0.10200 0.20280 -0.00100
C 	C 	0.75980 0.10460 0.18500 -0.14600
H 	H 	0.74870 0.08970 0.15330 0.09100
C 	C 	0.81410 0.11890 0.20170 0.05700
H 	H 	0.84150 0.11420 0.18150 0.00700
C 	C 	0.82850 0.14040 0.24890 -0.12500
H 	H 	0.86620 0.15030 0.26150 0.06400
C 	C 	0.78850 0.14720 0.27660 0.06200
C 	C 	0.79910 0.17070 0.32580 0.04800
C 	C 	0.85190 0.18620 0.35040 -0.11100
H 	H 	0.88450 0.18160 0.33710 0.06200
C 	C 	0.85720 0.20870 0.39440 0.04200
H 	H 	0.89280 0.22020 0.41130 0.01400
C 	C 	0.81010 0.21380 0.41250 -0.12800
H 	H 	0.81290 0.22900 0.44300 0.06800
C 	C 	0.75760 0.19730 0.38780 0.07300
H 	H 	0.72540 0.20140 0.40190 -0.00600
C 	C 	0.65360 0.18990 0.19340 0.08400
H 	H 	0.67810 0.17530 0.18110 0.00000
C 	C 	0.62780 0.21520 0.15600 -0.13000
H 	H 	0.63520 0.21800 0.11950 0.07800
C 	C 	0.59360 0.23490 0.17190 0.04400
H 	H 	0.57450 0.25140 0.14520 0.01200
C 	C 	0.58310 0.23290 0.22870 -0.10200
H 	H 	0.56050 0.24830 0.24170 0.05600
C 	C 	0.61030 0.20560 0.26310 0.04100
C 	C 	0.59890 0.19850 0.31860 0.06900
C 	C 	0.56560 0.21580 0.34360 -0.14100
H 	H 	0.54800 0.23520 0.32550 0.07100
C 	C 	0.55700 0.20600 0.39330 0.07200
H 	H 	0.53470 0.21890 0.41140 0.00800
C 	C 	0.58040 0.17700 0.41880 -0.15000
H 	H 	0.57330 0.16920 0.45340 0.09600
C 	C 	0.61390 0.16020 0.39260 0.08900
H 	H 	0.63000 0.14020 0.40940 -0.00700
C 	C 	0.56640 0.12130 0.21690 0.04700
H 	H 	0.55750 0.14280 0.20300 0.01400
C 	C 	0.53040 0.09580 0.18740 -0.06400
H 	H 	0.49830 0.10000 0.15270 0.07400
C 	C 	0.54150 0.06480 0.20870 -0.00900
C 	C 	0.58820 0.05990 0.26060 -0.07500
H 	H 	0.59590 0.03880 0.27690 0.08400
C 	C 	0.62260 0.08480 0.28800 0.04800
C 	C 	0.67300 0.08190 0.34320 0.04800
C 	C 	0.68680 0.05380 0.37530 -0.07200
H 	H 	0.66300 0.03510 0.36290 0.07200
C 	C 	0.73560 0.05260 0.42600 -0.02400
C 	C 	0.76750 0.08080 0.44290 -0.07400
H 	H 	0.80070 0.08090 0.47750 0.06500
C 	C 	0.75140 0.10900 0.40980 0.04100
H 	H 	0.77370 0.12810 0.42240 0.00600
C 	C 	0.51020 0.03640 0.17480 0.28600
C 	C 	0.75230 0.02120 0.46010 0.29100
C 	C 	0.58430 0.79370 0.20820 0.07200
H 	H 	0.58580 0.81510 0.19470 0.00300
C 	C 	0.53980 0.77400 0.17710 -0.12200
H 	H 	0.50990 0.78190 0.14350 0.07600
C 	C 	0.53860 0.74230 0.19510 0.04000
H 	H 	0.50870 0.72790 0.17360 0.01200
C 	C 	0.58170 0.73240 0.24490 -0.11400
H 	H 	0.58140 0.71090 0.25840 0.06000
C 	C 	0.62570 0.75330 0.27580 0.05800
C 	C 	0.67600 0.74470 0.32750 0.04700
C 	C 	0.68010 0.71430 0.35440 -0.10400
H 	H 	0.65050 0.69850 0.33980 0.06000
C 	C 	0.72760 0.70840 0.40160 0.02600
H 	H 	0.73220 0.68780 0.41990 0.02200
C 	C 	0.77030 0.73240 0.42420 -0.10500
H 	H 	0.80300 0.72810 0.45830 0.06200
C 	C 	0.76470 0.76240 0.39660 0.04800
H 	H 	0.79410 0.77840 0.41070 0.00400
C 	C 	0.73680 0.78860 0.20730 0.08100
H 	H 	0.69730 0.78170 0.18980 -0.00400
C 	C 	0.77650 0.78230 0.17800 -0.13700
H 	H 	0.76600 0.77050 0.14200 0.07500
C 	C 	0.83220 0.79390 0.20350 0.05900
H 	H 	0.86030 0.79120 0.18330 0.00300
C 	C 	0.84880 0.80920 0.25610 -0.13200
H 	H 	0.88810 0.81630 0.27370 0.06600
C 	C 	0.80730 0.81410 0.28300 0.06400
C 	C 	0.81760 0.83270 0.33830 0.05000
C 	C 	0.87210 0.84650 0.36920 -0.11500
H 	H 	0.90580 0.84350 0.35700 0.06500
C 	C 	0.87420 0.86460 0.41790 0.04800
H 	H 	0.91030 0.87450 0.43950 0.01100
C 	C 	0.82690 0.86880 0.43600 -0.13100
H 	H 	0.82910 0.88210 0.46910 0.07500
C 	C 	0.77470 0.85340 0.40530 0.07300
H 	H 	0.74150 0.85540 0.41880 -0.00100
C 	C 	0.67120 0.86840 0.22250 0.05900
H 	H 	0.70180 0.85960 0.20970 0.00400
C 	C 	0.64080 0.89550 0.19160 -0.07200
H 	H 	0.65120 0.90520 0.16020 0.07100
C 	C 	0.59500 0.90700 0.20970 -0.00900
C 	C 	0.58490 0.89370 0.25850 -0.07600
H 	H 	0.55530 0.90250 0.27260 0.08300
C 	C 	0.61790 0.86750 0.28710 0.05100
C 	C 	0.60720 0.85200 0.33740 0.04300
C 	C 	0.56670 0.86170 0.36330 -0.06700
H 	H 	0.54380 0.88050 0.34970 0.07100
C 	C 	0.55930 0.84370 0.41040 -0.02200
C 	C 	0.59410 0.81740 0.42960 -0.07500
H 	H 	0.59040 0.80510 0.46190 0.06700
C 	C 	0.63430 0.80860 0.40230 0.05100
H 	H 	0.65810 0.79020 0.41650 0.00400
C 	C 	0.55420 0.93320 0.17640 0.31100
C 	C 	0.51430 0.85360 0.43860 0.30000
N 	N 	0.19380 0.92810 0.33530 -0.22400
N 	N 	0.11380 0.93810 0.23380 -0.22000
N 	N 	0.11560 0.98780 0.32100 -0.21900
N 	N 	0.14800 0.00970 0.23410 -0.21600
N 	N 	0.24270 0.99640 0.33700 -0.21000
N 	N 	0.24030 0.95930 0.24620 -0.21500
N 	N 	0.73480 0.13310 0.25970 -0.22500
N 	N 	0.75170 0.17610 0.34470 -0.21800
N 	N 	0.64570 0.18510 0.24510 -0.21800
N 	N 	0.62540 0.17060 0.34400 -0.22600
N 	N 	0.61380 0.11560 0.26480 -0.21000
N 	N 	0.70450 0.10940 0.36000 -0.21000
N 	N 	0.62640 0.78380 0.25740 -0.21600
N 	N 	0.71590 0.76840 0.34850 -0.21300
N 	N 	0.75060 0.80390 0.25960 -0.22400
N 	N 	0.77020 0.83590 0.35740 -0.21800
N 	N 	0.66040 0.85460 0.26760 -0.21600
N 	N 	0.64140 0.82480 0.35630 -0.21100
O 	O 	0.36810 0.08510 0.44730 -0.25900
O 	O 	0.42920 0.05990 0.41470 -0.27900
O 	O 	0.40480 0.98888 0.17450 -0.38300
O 	O 	0.37780 0.94430 0.12310 -0.35200
O 	O 	0.46300 0.03981 0.13300 -0.35200
O 	O 	0.53440 0.00894 0.18980 -0.38200
O 	O 	0.71730 0.99857 0.44830 -0.26000
O 	O 	0.80180 0.02120 0.49770 -0.24800
O 	O 	0.56960 0.95074 0.14050 -0.36200
O 	O 	0.50590 0.93528 0.18410 -0.39300
O 	O 	0.48240 0.87660 0.41920 -0.25300
O 	O 	0.51540 0.83730 0.48270 -0.24100
Ru	Ru	0.67593 0.46880 0.28473 0.95200
Ru	Ru	0.17876 0.64828 0.30361 0.95200
Ru	Ru	0.19497 0.31215 0.30773 0.95100
Tb	Tb	0.96643 0.47791 0.11627 1.50300
C 	C 	0.73850 0.42360 0.38540 0.08800
H 	H 	0.76700 0.44010 0.39880 -0.00400
C 	C 	0.74410 0.39620 0.41720 -0.14400
H 	H 	0.77580 0.39360 0.45280 0.08000
C 	C 	0.70370 0.37240 0.39760 0.06100
H 	H 	0.70760 0.35320 0.42000 0.00700
C 	C 	0.65820 0.37530 0.34700 -0.12600
H 	H 	0.63000 0.35860 0.33350 0.06700
C 	C 	0.65480 0.40370 0.31590 0.05800
C 	C 	0.60810 0.40950 0.25870 0.05500
C 	C 	0.56560 0.38710 0.23310 -0.11300
H 	H 	0.56170 0.36730 0.25130 0.06000
C 	C 	0.52750 0.39670 0.17570 0.03700
H 	H 	0.49640 0.38250 0.15600 0.01200
C 	C 	0.53270 0.42450 0.14780 -0.12700
H 	H 	0.50810 0.42940 0.10900 0.07000
C 	C 	0.57530 0.44470 0.17920 0.07200
H 	H 	0.57880 0.46500 0.16210 -0.00200
C 	C 	0.60180 0.47430 0.36780 0.07100
H 	H 	0.61750 0.45400 0.38310 0.00600
C 	C 	0.56460 0.49080 0.39230 -0.12600
H 	H 	0.55360 0.48090 0.42320 0.07600
C 	C 	0.54440 0.51930 0.37420 0.06200
H 	H 	0.52110 0.53070 0.39330 0.00900
C 	C 	0.55730 0.53260 0.32690 -0.13200
H 	H 	0.54090 0.55280 0.31130 0.06800
C 	C 	0.59330 0.51670 0.30300 0.07400
C 	C 	0.61120 0.52870 0.25230 0.04200
C 	C 	0.59200 0.55870 0.22140 -0.10500
H 	H 	0.56640 0.57230 0.23400 0.05700
C 	C 	0.60950 0.56780 0.17500 0.04600
H 	H 	0.59660 0.58750 0.15470 0.01100
C 	C 	0.64620 0.54750 0.15900 -0.13200
H 	H 	0.65990 0.55320 0.12700 0.08100
C 	C 	0.66360 0.51940 0.18780 0.08300
H 	H 	0.68840 0.50570 0.17420 -0.00000
C 	C 	0.74230 0.51390 0.38500 0.04100
H 	H 	0.71060 0.51110 0.40040 0.02300
C 	C 	0.78580 0.53510 0.41200 -0.06700
H 	H 	0.78330 0.54740 0.44470 0.06700
C 	C 	0.83380 0.53890 0.39180 -0.05100
C 	C 	0.83730 0.51970 0.34470 -0.06100
H 	H 	0.87050 0.52080 0.33110 0.06300
C 	C 	0.79060 0.49880 0.31830 0.03900
C 	C 	0.78870 0.47800 0.26760 0.05200
C 	C 	0.83170 0.47910 0.24030 -0.07800
H 	H 	0.86510 0.49260 0.25550 0.08300
C 	C 	0.82630 0.46040 0.19070 -0.00700
C 	C 	0.77750 0.44040 0.17020 -0.08000
H 	H 	0.77290 0.42670 0.13720 0.07300
C 	C 	0.73620 0.44110 0.19940 0.06100
H 	H 	0.70270 0.42760 0.18520 0.00400
C 	C 	0.88020 0.56370 0.41860 0.30800
C 	C 	0.87190 0.46430 0.16010 0.29400
C 	C 	0.22330 0.61210 0.21450 0.09600
H 	H 	0.18590 0.60200 0.20280 -0.00100
C 	C 	0.25980 0.60460 0.18500 -0.14600
H 	H 	0.24870 0.58970 0.15330 0.09100
C 	C 	0.31410 0.61890 0.20170 0.05700
H 	H 	0.34150 0.61420 0.18150 0.00700
C 	C 	0.32850 0.64040 0.24890 -0.12500
H 	H 	0.36620 0.65030 0.26150 0.06400
C 	C 	0.28850 0.64720 0.27660 0.06200
C 	C 	0.29910 0.67070 0.32580 0.04800
C 	C 	0.35190 0.68620 0.35040 -0.11100
H 	H 	0.38450 0.68160 0.33710 0.06200
C 	C 	0.35720 0.70870 0.39440 0.04200
H 	H 	0.39280 0.72020 0.41130 0.01400
C 	C 	0.31010 0.71380 0.41250 -0.12800
H 	H 	0.31290 0.72900 0.44300 0.06800
C 	C 	0.25760 0.69730 0.38780 0.07300
H 	H 	0.22540 0.70140 0.40190 -0.00600
C 	C 	0.15360 0.68990 0.19340 0.08400
H 	H 	0.17810 0.67530 0.18110 0.00000
C 	C 	0.12780 0.71520 0.15600 -0.13000
H 	H 	0.13520 0.71800 0.11950 0.07800
C 	C 	0.09360 0.73490 0.17190 0.04400
H 	H 	0.07450 0.75140 0.14520 0.01300
C 	C 	0.08310 0.73290 0.22870 -0.10200
H 	H 	0.06050 0.74830 0.24170 0.05600
C 	C 	0.11030 0.70560 0.26310 0.04100
C 	C 	0.09890 0.69850 0.31860 0.06900
C 	C 	0.06560 0.71580 0.34360 -0.14100
H 	H 	0.04800 0.73520 0.32550 0.07100
C 	C 	0.05700 0.70600 0.39330 0.07200
H 	H 	0.03470 0.71890 0.41140 0.00800
C 	C 	0.08040 0.67700 0.41880 -0.15000
H 	H 	0.07330 0.66920 0.45340 0.09600
C 	C 	0.11390 0.66020 0.39260 0.08900
H 	H 	0.13000 0.64020 0.40940 -0.00700
C 	C 	0.06640 0.62130 0.21690 0.04600
H 	H 	0.05750 0.64280 0.20300 0.01400
C 	C 	0.03040 0.59580 0.18740 -0.06200
H 	H 	0.99830 0.60000 0.15270 0.07300
C 	C 	0.04150 0.56480 0.20870 -0.00900
C 	C 	0.08820 0.55990 0.26060 -0.07400
H 	H 	0.09590 0.53880 0.27690 0.08400
C 	C 	0.12260 0.58480 0.28800 0.04800
C 	C 	0.17300 0.58190 0.34320 0.04800
C 	C 	0.18680 0.55380 0.37530 -0.07300
H 	H 	0.16300 0.53510 0.36290 0.07200
C 	C 	0.23560 0.55260 0.42600 -0.02400
C 	C 	0.26750 0.58080 0.44290 -0.07400
H 	H 	0.30070 0.58090 0.47750 0.06400
C 	C 	0.25140 0.60900 0.40980 0.04100
H 	H 	0.27370 0.62810 0.42240 0.00600
C 	C 	0.01020 0.53640 0.17480 0.28800
C 	C 	0.25230 0.52120 0.46010 0.29100
C 	C 	0.08430 0.29370 0.20820 0.07200
H 	H 	0.08580 0.31510 0.19470 0.00300
C 	C 	0.03980 0.27400 0.17710 -0.12200
H 	H 	0.00990 0.28190 0.14350 0.07700
C 	C 	0.03860 0.24230 0.19510 0.04000
H 	H 	0.00870 0.22790 0.17360 0.01200
C 	C 	0.08170 0.23240 0.24490 -0.11400
H 	H 	0.08140 0.21090 0.25840 0.06000
C 	C 	0.12570 0.25330 0.27580 0.05800
C 	C 	0.17600 0.24470 0.32750 0.04700
C 	C 	0.18010 0.21430 0.35440 -0.10400
H 	H 	0.15050 0.19850 0.33980 0.06000
C 	C 	0.22760 0.20840 0.40160 0.02600
H 	H 	0.23220 0.18780 0.41990 0.02200
C 	C 	0.27030 0.23240 0.42420 -0.10500
H 	H 	0.30300 0.22810 0.45830 0.06200
C 	C 	0.26470 0.26240 0.39660 0.04800
H 	H 	0.29410 0.27840 0.41070 0.00400
C 	C 	0.23680 0.28860 0.20730 0.08100
H 	H 	0.19730 0.28170 0.18980 -0.00400
C 	C 	0.27650 0.28230 0.17800 -0.13700
H 	H 	0.26600 0.27050 0.14200 0.07500
C 	C 	0.33220 0.29390 0.20350 0.05900
H 	H 	0.36030 0.29120 0.18330 0.00300
C 	C 	0.34880 0.30920 0.25610 -0.13100
H 	H 	0.38810 0.31630 0.27370 0.06600
C 	C 	0.30730 0.31410 0.28300 0.06400
C 	C 	0.31760 0.33270 0.33830 0.05000
C 	C 	0.37210 0.34650 0.36920 -0.11600
H 	H 	0.40580 0.34350 0.35700 0.06500
C 	C 	0.37420 0.36460 0.41790 0.04800
H 	H 	0.41030 0.37450 0.43950 0.01100
C 	C 	0.32690 0.36880 0.43600 -0.13100
H 	H 	0.32910 0.38210 0.46910 0.07500
C 	C 	0.27470 0.35340 0.40530 0.07300
H 	H 	0.24150 0.35540 0.41880 -0.00100
C 	C 	0.17120 0.36840 0.22250 0.05900
H 	H 	0.20180 0.35960 0.20970 0.00400
C 	C 	0.14080 0.39550 0.19160 -0.07200
H 	H 	0.15120 0.40520 0.16020 0.07100
C 	C 	0.09500 0.40700 0.20970 -0.00900
C 	C 	0.08490 0.39370 0.25850 -0.07600
H 	H 	0.05530 0.40250 0.27260 0.08300
C 	C 	0.11790 0.36750 0.28710 0.05100
C 	C 	0.10720 0.35200 0.33740 0.04300
C 	C 	0.06670 0.36170 0.36330 -0.06700
H 	H 	0.04380 0.38050 0.34970 0.07200
C 	C 	0.05930 0.34370 0.41040 -0.02200
C 	C 	0.09410 0.31740 0.42960 -0.07500
H 	H 	0.09040 0.30510 0.46190 0.06700
C 	C 	0.13430 0.30860 0.40230 0.05100
H 	H 	0.15810 0.29020 0.41650 0.00400
C 	C 	0.05420 0.43320 0.17640 0.31100
C 	C 	0.01430 0.35360 0.43860 0.30000
N 	N 	0.69380 0.42810 0.33530 -0.22400
N 	N 	0.61380 0.43810 0.23380 -0.22000
N 	N 	0.61560 0.48780 0.32100 -0.21900
N 	N 	0.64800 0.50970 0.23410 -0.21600
N 	N 	0.74270 0.49640 0.33700 -0.21000
N 	N 	0.74030 0.45930 0.24620 -0.21500
N 	N 	0.23480 0.63310 0.25970 -0.22500
N 	N 	0.25170 0.67610 0.34470 -0.21800
N 	N 	0.14570 0.68510 0.24510 -0.21800
N 	N 	0.12540 0.67060 0.34400 -0.22600
N 	N 	0.11380 0.61560 0.26480 -0.21000
N 	N 	0.20450 0.60940 0.36000 -0.21000
N 	N 	0.12640 0.28380 0.25740 -0.21600
N 	N 	0.21590 0.26840 0.34850 -0.21300
N 	N 	0.25060 0.30390 0.25960 -0.22400
N 	N 	0.27020 0.33590 0.35740 -0.21800
N 	N 	0.16040 0.35460 0.26760 -0.21600
N 	N 	0.14140 0.32480 0.35630 -0.21100
O 	O 	0.86810 0.58510 0.44730 -0.25900
O 	O 	0.92920 0.55990 0.41470 -0.27900
O 	O 	0.90480 0.48888 0.17450 -0.38300
O 	O 	0.87780 0.44430 0.12310 -0.35200
O 	O 	0.96300 0.53981 0.13300 -0.35300
O 	O 	0.03440 0.50894 0.18980 -0.38200
O 	O 	0.21730 0.49857 0.44830 -0.26000
O 	O 	0.30180 0.52120 0.49770 -0.24800
O 	O 	0.06960 0.45074 0.14050 -0.36200
O 	O 	0.00590 0.43528 0.18410 -0.39300
O 	O 	0.98240 0.37660 0.41920 -0.25300
O 	O 	0.01540 0.33730 0.48270 -0.24100
