data_crystal

_cell_length_a 23.02990
_cell_length_b 23.02990
_cell_length_c 24.39730
_cell_angle_alpha 90.00000
_cell_angle_beta  90.00000
_cell_angle_gamma 90.00000

_symmetry_space_group_name_	'P 1'
_symmetry_space_group_name_H-M	'P 1'

loop_
_symmetry_equiv_pos_as_xyz
  x,y,z

loop_
_atom_site_label
_atom_site_type_symbol
_atom_site_fract_x
_atom_site_fract_y
_atom_site_fract_z
_atom_site_charge
O 	O 	0.72890 0.51550 0.53950 -0.86900
O 	O 	0.70840 0.43720 0.63440 -0.47700
O 	O 	0.74830 0.38380 0.56770 -0.47600
O 	O 	0.63610 0.54640 0.61990 -0.65600
N 	N 	0.67710 0.09180 0.75720 -0.21500
N 	N 	0.67900 0.18300 0.73460 -0.16600
C 	C 	0.72460 0.39110 0.61330 0.44100
C 	C 	0.64410 0.17960 0.77650 0.02200
H 	H 	0.62410 0.20960 0.79370 -0.02800
C 	C 	0.68940 0.23660 0.70490 0.22100
C 	C 	0.71240 0.33550 0.64580 -0.24600
C 	C 	0.68250 0.33890 0.69380 0.18100
H 	H 	0.66970 0.37460 0.70700 -0.08000
H 	H 	0.73230 0.62370 0.53310 0.69900
H 	H 	0.72840 0.62370 0.46900 0.69300
H 	H 	0.78920 0.62370 0.49790 0.67900
C 	C 	0.70000 0.12950 0.72340 0.09500
H 	H 	0.72660 0.12080 0.69590 0.00700
C 	C 	0.67140 0.28800 0.72260 -0.27500
H 	H 	0.65080 0.29010 0.75540 0.08000
C 	C 	0.64360 0.12480 0.78880 -0.00800
H 	H 	0.62160 0.10980 0.81740 0.02000
C 	C 	0.72200 0.23330 0.65760 -0.29200
H 	H 	0.73680 0.19780 0.64590 0.12000
C 	C 	0.73240 0.28270 0.62800 0.17600
H 	H 	0.75330 0.28040 0.59540 -0.05800
H 	H 	0.62230 0.68290 0.62910 0.46100
H 	H 	0.57820 0.63880 0.65490 0.42600
H 	H 	0.58360 0.64420 0.59100 0.44700
O 	O 	0.22890 0.01550 0.03950 -0.80900
O 	O 	0.20840 0.93720 0.13440 -0.48500
O 	O 	0.24830 0.88380 0.06770 -0.47200
O 	O 	0.13610 0.04640 0.11990 -0.63800
N 	N 	0.17710 0.59180 0.25720 -0.21600
N 	N 	0.17900 0.68300 0.23460 -0.16400
C 	C 	0.22460 0.89110 0.11330 0.44100
C 	C 	0.14410 0.67960 0.27650 0.02300
H 	H 	0.12410 0.70960 0.29370 -0.02700
C 	C 	0.18940 0.73660 0.20490 0.22000
C 	C 	0.21240 0.83550 0.14580 -0.23900
C 	C 	0.18250 0.83890 0.19380 0.17600
H 	H 	0.16970 0.87460 0.20700 -0.07300
H 	H 	0.23230 0.12370 0.03310 0.58900
H 	H 	0.22840 0.12370 0.96900 0.57100
H 	H 	0.28920 0.12370 0.99790 0.55300
C 	C 	0.20000 0.62950 0.22340 0.09500
H 	H 	0.22660 0.62080 0.19590 0.00800
C 	C 	0.17140 0.78800 0.22260 -0.26900
H 	H 	0.15080 0.79010 0.25540 0.07900
C 	C 	0.14360 0.62480 0.28880 -0.00900
H 	H 	0.12160 0.60980 0.31740 0.01600
C 	C 	0.22200 0.73330 0.15760 -0.28600
H 	H 	0.23680 0.69780 0.14590 0.12300
C 	C 	0.23240 0.78270 0.12800 0.17300
H 	H 	0.25330 0.78040 0.09540 -0.05100
H 	H 	0.12230 0.18290 0.12910 0.47100
H 	H 	0.07820 0.13880 0.15490 0.43800
H 	H 	0.08360 0.14420 0.09100 0.45800
O 	O 	0.77110 0.48450 0.03950 -0.82300
O 	O 	0.79160 0.56280 0.13440 -0.47600
O 	O 	0.75170 0.61620 0.06770 -0.46900
O 	O 	0.86390 0.45360 0.11990 -0.65600
N 	N 	0.82290 0.90820 0.25720 -0.22200
N 	N 	0.82100 0.81700 0.23460 -0.16500
C 	C 	0.77540 0.60890 0.11330 0.44100
C 	C 	0.85590 0.82040 0.27650 0.02200
H 	H 	0.87590 0.79040 0.29370 -0.02700
C 	C 	0.81060 0.76340 0.20490 0.22100
C 	C 	0.78760 0.66450 0.14580 -0.24100
C 	C 	0.81750 0.66110 0.19380 0.17900
H 	H 	0.83030 0.62540 0.20700 -0.07900
H 	H 	0.76770 0.37630 0.03310 0.59100
H 	H 	0.77160 0.37630 0.96900 0.57200
H 	H 	0.71080 0.37630 0.99790 0.55400
C 	C 	0.80000 0.87050 0.22340 0.09500
H 	H 	0.77340 0.87920 0.19590 0.00700
C 	C 	0.82860 0.71200 0.22260 -0.27300
H 	H 	0.84920 0.70990 0.25540 0.08000
C 	C 	0.85640 0.87520 0.28880 -0.00900
H 	H 	0.87840 0.89020 0.31740 0.01200
C 	C 	0.77800 0.76670 0.15760 -0.28900
H 	H 	0.76320 0.80220 0.14590 0.12400
C 	C 	0.76760 0.71730 0.12800 0.17500
H 	H 	0.74670 0.71960 0.09540 -0.05200
H 	H 	0.87770 0.31710 0.12910 0.46800
H 	H 	0.92180 0.36120 0.15490 0.43200
H 	H 	0.91640 0.35580 0.09100 0.45500
O 	O 	0.27110 0.98450 0.53950 -0.88300
O 	O 	0.29160 0.06280 0.63440 -0.46100
O 	O 	0.25170 0.11620 0.56770 -0.47000
O 	O 	0.36390 0.95360 0.61990 -0.66200
N 	N 	0.32290 0.40820 0.75720 -0.21600
N 	N 	0.32100 0.31700 0.73460 -0.16400
C 	C 	0.27540 0.10890 0.61330 0.43800
C 	C 	0.35590 0.32040 0.77650 0.02200
H 	H 	0.37590 0.29040 0.79370 -0.02700
C 	C 	0.31060 0.26340 0.70490 0.21800
C 	C 	0.28760 0.16450 0.64580 -0.23800
C 	C 	0.31750 0.16110 0.69380 0.17300
H 	H 	0.33030 0.12540 0.70700 -0.07000
H 	H 	0.26770 0.87630 0.53310 0.70000
H 	H 	0.27160 0.87630 0.46900 0.69400
H 	H 	0.21080 0.87630 0.49790 0.67900
C 	C 	0.30000 0.37050 0.72340 0.09400
H 	H 	0.27340 0.37920 0.69590 0.00800
C 	C 	0.32860 0.21200 0.72260 -0.26800
H 	H 	0.34920 0.20990 0.75540 0.07900
C 	C 	0.35640 0.37520 0.78880 -0.00900
H 	H 	0.37840 0.39020 0.81740 0.01600
C 	C 	0.27800 0.26670 0.65760 -0.28700
H 	H 	0.26320 0.30220 0.64590 0.11800
C 	C 	0.26760 0.21730 0.62800 0.17100
H 	H 	0.24670 0.21960 0.59540 -0.05700
H 	H 	0.37770 0.81710 0.62910 0.46500
H 	H 	0.42180 0.86120 0.65490 0.43200
H 	H 	0.41640 0.85580 0.59100 0.45000
O 	O 	0.73450 0.47890 0.78950 -0.86800
O 	O 	0.81280 0.45840 0.88440 -0.47800
O 	O 	0.86620 0.49830 0.81770 -0.47700
O 	O 	0.70360 0.38610 0.86990 -0.64800
N 	N 	0.15820 0.42710 0.00720 -0.19400
N 	N 	0.06700 0.42900 0.98460 -0.18800
C 	C 	0.85890 0.47460 0.86330 0.45200
C 	C 	0.07040 0.39410 0.02650 0.06600
H 	H 	0.04040 0.37410 0.04370 -0.04000
C 	C 	0.01340 0.43940 0.95490 0.26200
C 	C 	0.91450 0.46240 0.89580 -0.27800
C 	C 	0.91110 0.43250 0.94380 0.23600
H 	H 	0.87540 0.41970 0.95700 -0.10200
H 	H 	0.62630 0.48230 0.78310 0.69900
H 	H 	0.62630 0.47840 0.71900 0.69300
H 	H 	0.62630 0.53920 0.74790 0.67800
C 	C 	0.12050 0.45000 0.97340 0.06400
H 	H 	0.12920 0.47660 0.94590 0.01300
C 	C 	0.96200 0.42140 0.97260 -0.37100
H 	H 	0.95990 0.40080 0.00540 0.13100
C 	C 	0.12520 0.39360 0.03880 -0.02600
H 	H 	0.14020 0.37160 0.06740 0.02400
C 	C 	0.01670 0.47200 0.90760 -0.32900
H 	H 	0.05220 0.48680 0.89590 0.13200
C 	C 	0.96730 0.48240 0.87800 0.21000
H 	H 	0.96960 0.50330 0.84540 -0.07000
H 	H 	0.56710 0.37230 0.87910 0.46100
H 	H 	0.61120 0.32820 0.90490 0.42700
H 	H 	0.60580 0.33360 0.84100 0.44700
O 	O 	0.23450 0.97890 0.28950 -0.84800
O 	O 	0.31280 0.95840 0.38440 -0.47700
O 	O 	0.36620 0.99830 0.31770 -0.48700
O 	O 	0.20360 0.88610 0.36990 -0.65800
N 	N 	0.65820 0.92710 0.50720 -0.22000
N 	N 	0.56700 0.92900 0.48460 -0.16000
C 	C 	0.35890 0.97460 0.36330 0.42200
C 	C 	0.57040 0.89410 0.52650 0.01700
H 	H 	0.54040 0.87410 0.54370 -0.02600
C 	C 	0.51340 0.93940 0.45490 0.18000
C 	C 	0.41450 0.96240 0.39580 -0.19700
C 	C 	0.41110 0.93250 0.44380 0.13400
H 	H 	0.37540 0.91970 0.45700 -0.06600
H 	H 	0.12630 0.98230 0.28310 0.57500
H 	H 	0.12630 0.97840 0.21900 0.57100
H 	H 	0.12630 0.03920 0.24790 0.57100
C 	C 	0.62050 0.95000 0.47340 0.08900
H 	H 	0.62920 0.97660 0.44590 0.00100
C 	C 	0.46200 0.92140 0.47260 -0.23500
H 	H 	0.45990 0.90080 0.50540 0.06400
C 	C 	0.62520 0.89360 0.53880 -0.01000
H 	H 	0.64020 0.87160 0.56740 0.01400
C 	C 	0.51670 0.97200 0.40760 -0.22600
H 	H 	0.55220 0.98680 0.39590 0.09100
C 	C 	0.46730 0.98240 0.37800 0.07000
H 	H 	0.46960 0.00330 0.34540 0.00300
H 	H 	0.06710 0.87230 0.37910 0.46400
H 	H 	0.11120 0.82820 0.40490 0.42900
H 	H 	0.10580 0.83360 0.34100 0.45200
O 	O 	0.76550 0.52110 0.28950 -0.86800
O 	O 	0.68720 0.54160 0.38440 -0.47600
O 	O 	0.63380 0.50170 0.31770 -0.47500
O 	O 	0.79640 0.61390 0.36990 -0.65500
N 	N 	0.34180 0.57290 0.50720 -0.21600
N 	N 	0.43300 0.57100 0.48460 -0.16500
C 	C 	0.64110 0.52540 0.36330 0.44200
C 	C 	0.42960 0.60590 0.52650 0.02200
H 	H 	0.45960 0.62590 0.54370 -0.02800
C 	C 	0.48660 0.56060 0.45490 0.22100
C 	C 	0.58550 0.53760 0.39580 -0.24500
C 	C 	0.58890 0.56750 0.44380 0.18100
H 	H 	0.62460 0.58030 0.45700 -0.08000
H 	H 	0.87370 0.51770 0.28310 0.69900
H 	H 	0.87370 0.52160 0.21900 0.69300
H 	H 	0.87370 0.46080 0.24790 0.67800
C 	C 	0.37950 0.55000 0.47340 0.09400
H 	H 	0.37080 0.52340 0.44590 0.00700
C 	C 	0.53800 0.57860 0.47260 -0.27400
H 	H 	0.54010 0.59920 0.50540 0.08000
C 	C 	0.37480 0.60640 0.53880 -0.01000
H 	H 	0.35980 0.62840 0.56740 0.01600
C 	C 	0.48330 0.52800 0.40760 -0.29200
H 	H 	0.44780 0.51320 0.39590 0.12000
C 	C 	0.53270 0.51760 0.37800 0.17600
H 	H 	0.53040 0.49670 0.34540 -0.05800
H 	H 	0.93290 0.62770 0.37910 0.46100
H 	H 	0.88880 0.67180 0.40490 0.42600
H 	H 	0.89420 0.66640 0.34100 0.44800
O 	O 	0.26550 0.02110 0.78950 -0.82100
O 	O 	0.18720 0.04160 0.88440 -0.48000
O 	O 	0.13380 0.00170 0.81770 -0.46900
O 	O 	0.29640 0.11390 0.86990 -0.64900
N 	N 	0.84180 0.07290 0.00720 -0.19100
N 	N 	0.93300 0.07100 0.98460 -0.19300
C 	C 	0.14110 0.02540 0.86330 0.47200
C 	C 	0.92960 0.10590 0.02650 0.07100
H 	H 	0.95960 0.12590 0.04370 -0.04100
C 	C 	0.98660 0.06060 0.95490 0.30400
C 	C 	0.08550 0.03760 0.89580 -0.32500
C 	C 	0.08890 0.06750 0.94380 0.28300
H 	H 	0.12460 0.08030 0.95700 -0.11500
H 	H 	0.37370 0.01770 0.78310 0.62300
H 	H 	0.37370 0.02160 0.71900 0.61900
H 	H 	0.37370 0.96080 0.74790 0.58900
C 	C 	0.87950 0.05000 0.97340 0.07000
H 	H 	0.87080 0.02340 0.94590 0.02100
C 	C 	0.03800 0.07860 0.97260 -0.41000
H 	H 	0.04010 0.09920 0.00540 0.14600
C 	C 	0.87480 0.10640 0.03880 -0.02500
H 	H 	0.85980 0.12840 0.06740 0.02500
C 	C 	0.98330 0.02800 0.90760 -0.39300
H 	H 	0.94780 0.01320 0.89590 0.16700
C 	C 	0.03270 0.01760 0.87800 0.31500
H 	H 	0.03040 0.99670 0.84540 -0.12400
H 	H 	0.43290 0.12770 0.87910 0.46600
H 	H 	0.38880 0.17180 0.90490 0.43000
H 	H 	0.39420 0.16640 0.84100 0.45100
O 	O 	0.77110 0.51550 0.46050 -0.86800
O 	O 	0.79160 0.43720 0.36560 -0.47600
O 	O 	0.75170 0.38380 0.43230 -0.47500
O 	O 	0.86390 0.54640 0.38010 -0.65500
N 	N 	0.82290 0.09180 0.24280 -0.21400
N 	N 	0.82100 0.18300 0.26540 -0.16500
C 	C 	0.77540 0.39110 0.38670 0.44200
C 	C 	0.85590 0.17960 0.22350 0.02300
H 	H 	0.87590 0.20960 0.20630 -0.02700
C 	C 	0.81060 0.23660 0.29510 0.22100
C 	C 	0.78760 0.33550 0.35420 -0.24500
C 	C 	0.81750 0.33890 0.30620 0.18000
H 	H 	0.83030 0.37460 0.29300 -0.08000
H 	H 	0.76770 0.62370 0.46690 0.69900
H 	H 	0.77160 0.62370 0.53100 0.69300
H 	H 	0.71080 0.62370 0.50210 0.67900
C 	C 	0.80000 0.12950 0.27660 0.09400
H 	H 	0.77340 0.12080 0.30410 0.00700
C 	C 	0.82860 0.28800 0.27740 -0.27400
H 	H 	0.84920 0.29010 0.24460 0.08000
C 	C 	0.85640 0.12480 0.21120 -0.00900
H 	H 	0.87840 0.10980 0.18260 0.02000
C 	C 	0.77800 0.23330 0.34240 -0.29200
H 	H 	0.76320 0.19780 0.35410 0.12000
C 	C 	0.76760 0.28270 0.37200 0.17600
H 	H 	0.74670 0.28040 0.40460 -0.05800
H 	H 	0.87770 0.68290 0.37090 0.46100
H 	H 	0.92180 0.63880 0.34510 0.42600
H 	H 	0.91640 0.64420 0.40900 0.44700
O 	O 	0.27110 0.01550 0.96050 -0.83200
O 	O 	0.29160 0.93720 0.86560 -0.48800
O 	O 	0.25170 0.88380 0.93230 -0.48700
O 	O 	0.36390 0.04640 0.88010 -0.63900
N 	N 	0.32290 0.59180 0.74280 -0.21600
N 	N 	0.32100 0.68300 0.76540 -0.16500
C 	C 	0.27540 0.89110 0.88670 0.44400
C 	C 	0.35590 0.67960 0.72350 0.02200
H 	H 	0.37590 0.70960 0.70630 -0.02800
C 	C 	0.31060 0.73660 0.79510 0.22100
C 	C 	0.28760 0.83550 0.85420 -0.24600
C 	C 	0.31750 0.83890 0.80620 0.17900
H 	H 	0.33030 0.87460 0.79300 -0.07500
H 	H 	0.26770 0.12370 0.96690 0.60800
H 	H 	0.27160 0.12370 0.03100 0.61800
H 	H 	0.21080 0.12370 0.00210 0.60700
C 	C 	0.30000 0.62950 0.77660 0.09400
H 	H 	0.27340 0.62080 0.80410 0.00800
C 	C 	0.32860 0.78800 0.77740 -0.27300
H 	H 	0.34920 0.79010 0.74460 0.08000
C 	C 	0.35640 0.62480 0.71120 -0.00900
H 	H 	0.37840 0.60980 0.68260 0.01600
C 	C 	0.27800 0.73330 0.84240 -0.29300
H 	H 	0.26320 0.69780 0.85410 0.12300
C 	C 	0.26760 0.78270 0.87200 0.17700
H 	H 	0.24670 0.78040 0.90460 -0.05900
H 	H 	0.37770 0.18290 0.87090 0.46400
H 	H 	0.42180 0.13880 0.84510 0.43200
H 	H 	0.41640 0.14420 0.90900 0.45000
O 	O 	0.72890 0.48450 0.96050 -0.84700
O 	O 	0.70840 0.56280 0.86560 -0.47900
O 	O 	0.74830 0.61620 0.93230 -0.48400
O 	O 	0.63610 0.45360 0.88010 -0.65700
N 	N 	0.67710 0.90820 0.74280 -0.22200
N 	N 	0.67900 0.81700 0.76540 -0.16500
C 	C 	0.72460 0.60890 0.88670 0.44400
C 	C 	0.64410 0.82040 0.72350 0.02200
H 	H 	0.62410 0.79040 0.70630 -0.02800
C 	C 	0.68940 0.76340 0.79510 0.22300
C 	C 	0.71240 0.66450 0.85420 -0.24900
C 	C 	0.68250 0.66110 0.80620 0.18300
H 	H 	0.66970 0.62540 0.79300 -0.08100
H 	H 	0.73230 0.37630 0.96690 0.61000
H 	H 	0.72840 0.37630 0.03100 0.61900
H 	H 	0.78920 0.37630 0.00210 0.60800
C 	C 	0.70000 0.87050 0.77660 0.09500
H 	H 	0.72660 0.87920 0.80410 0.00700
C 	C 	0.67140 0.71200 0.77740 -0.27700
H 	H 	0.65080 0.70990 0.74460 0.08100
C 	C 	0.64360 0.87520 0.71120 -0.00900
H 	H 	0.62160 0.89020 0.68260 0.01200
C 	C 	0.72200 0.76670 0.84240 -0.29500
H 	H 	0.73680 0.80220 0.85410 0.12400
C 	C 	0.73240 0.71730 0.87200 0.17900
H 	H 	0.75330 0.71960 0.90460 -0.06000
H 	H 	0.62230 0.31710 0.87090 0.46200
H 	H 	0.57820 0.36120 0.84510 0.42600
H 	H 	0.58360 0.35580 0.90900 0.44800
O 	O 	0.22890 0.98450 0.46050 -0.88300
O 	O 	0.20840 0.06280 0.36560 -0.46100
O 	O 	0.24830 0.11620 0.43230 -0.47000
O 	O 	0.13610 0.95360 0.38010 -0.66200
N 	N 	0.17710 0.40820 0.24280 -0.21600
N 	N 	0.17900 0.31700 0.26540 -0.16400
C 	C 	0.22460 0.10890 0.38670 0.43800
C 	C 	0.14410 0.32040 0.22350 0.02200
H 	H 	0.12410 0.29040 0.20630 -0.02700
C 	C 	0.18940 0.26340 0.29510 0.21700
C 	C 	0.21240 0.16450 0.35420 -0.23800
C 	C 	0.18250 0.16110 0.30620 0.17300
H 	H 	0.16970 0.12540 0.29300 -0.07100
H 	H 	0.23230 0.87630 0.46690 0.70000
H 	H 	0.22840 0.87630 0.53100 0.69400
H 	H 	0.28920 0.87630 0.50210 0.67900
C 	C 	0.20000 0.37050 0.27660 0.09400
H 	H 	0.22660 0.37920 0.30410 0.00800
C 	C 	0.17140 0.21200 0.27740 -0.26800
H 	H 	0.15080 0.20990 0.24460 0.07900
C 	C 	0.14360 0.37520 0.21120 -0.00900
H 	H 	0.12160 0.39020 0.18260 0.01500
C 	C 	0.22200 0.26670 0.34240 -0.28700
H 	H 	0.23680 0.30220 0.35410 0.11800
C 	C 	0.23240 0.21730 0.37200 0.17000
H 	H 	0.25330 0.21960 0.40460 -0.05700
H 	H 	0.12230 0.81710 0.37090 0.46500
H 	H 	0.07820 0.86120 0.34510 0.43200
H 	H 	0.08360 0.85580 0.40900 0.45100
O 	O 	0.76550 0.47890 0.21050 -0.86900
O 	O 	0.68720 0.45840 0.11560 -0.46800
O 	O 	0.63380 0.49830 0.18230 -0.47100
O 	O 	0.79640 0.38610 0.13010 -0.65000
N 	N 	0.34180 0.42710 0.99280 -0.24100
N 	N 	0.43300 0.42900 0.01540 -0.14100
C 	C 	0.64110 0.47460 0.13670 0.42700
C 	C 	0.42960 0.39410 0.97350 -0.02200
H 	H 	0.45960 0.37410 0.95630 -0.01400
C 	C 	0.48660 0.43940 0.04510 0.17600
C 	C 	0.58550 0.46240 0.10420 -0.20200
C 	C 	0.58890 0.43250 0.05620 0.11400
H 	H 	0.62460 0.41970 0.04300 -0.04200
H 	H 	0.87370 0.48230 0.21690 0.69900
H 	H 	0.87370 0.47840 0.28100 0.69300
H 	H 	0.87370 0.53920 0.25210 0.67900
C 	C 	0.37950 0.45000 0.02660 0.12500
H 	H 	0.37080 0.47660 0.05410 0.00000
C 	C 	0.53800 0.42140 0.02740 -0.16600
H 	H 	0.54010 0.40080 0.99460 0.02700
C 	C 	0.37480 0.39360 0.96120 0.00800
H 	H 	0.35980 0.37160 0.93260 0.00800
C 	C 	0.48330 0.47200 0.09240 -0.24700
H 	H 	0.44780 0.48680 0.10410 0.10500
C 	C 	0.53270 0.48240 0.12200 0.13400
H 	H 	0.53040 0.50330 0.15460 -0.04400
H 	H 	0.93290 0.37230 0.12090 0.46800
H 	H 	0.88880 0.32820 0.09510 0.43700
H 	H 	0.89420 0.33360 0.15900 0.45300
O 	O 	0.26550 0.97890 0.71050 -0.84800
O 	O 	0.18720 0.95840 0.61560 -0.47700
O 	O 	0.13380 0.99830 0.68230 -0.48600
O 	O 	0.29640 0.88610 0.63010 -0.65800
N 	N 	0.84180 0.92710 0.49280 -0.22000
N 	N 	0.93300 0.92900 0.51540 -0.16000
C 	C 	0.14110 0.97460 0.63670 0.42200
C 	C 	0.92960 0.89410 0.47350 0.01700
H 	H 	0.95960 0.87410 0.45630 -0.02600
C 	C 	0.98660 0.93940 0.54510 0.18100
C 	C 	0.08550 0.96240 0.60420 -0.19800
C 	C 	0.08890 0.93250 0.55620 0.13400
H 	H 	0.12460 0.91970 0.54300 -0.06600
H 	H 	0.37370 0.98230 0.71690 0.57400
H 	H 	0.37370 0.97840 0.78100 0.56900
H 	H 	0.37370 0.03920 0.75210 0.57000
C 	C 	0.87950 0.95000 0.52660 0.08900
H 	H 	0.87080 0.97660 0.55410 0.00100
C 	C 	0.03800 0.92140 0.52740 -0.23500
H 	H 	0.04010 0.90080 0.49460 0.06400
C 	C 	0.87480 0.89360 0.46120 -0.01000
H 	H 	0.85980 0.87160 0.43260 0.01400
C 	C 	0.98330 0.97200 0.59240 -0.22600
H 	H 	0.94780 0.98680 0.60410 0.09200
C 	C 	0.03270 0.98240 0.62200 0.07200
H 	H 	0.03040 0.00330 0.65460 0.00200
H 	H 	0.43290 0.87230 0.62090 0.46300
H 	H 	0.38880 0.82820 0.59510 0.42900
H 	H 	0.39420 0.83360 0.65900 0.45100
O 	O 	0.73450 0.52110 0.71050 -0.86800
O 	O 	0.81280 0.54160 0.61560 -0.47600
O 	O 	0.86620 0.50170 0.68230 -0.47400
O 	O 	0.70360 0.61390 0.63010 -0.65500
N 	N 	0.15820 0.57290 0.49280 -0.21600
N 	N 	0.06700 0.57100 0.51540 -0.16500
C 	C 	0.85890 0.52540 0.63670 0.44200
C 	C 	0.07040 0.60590 0.47350 0.02200
H 	H 	0.04040 0.62590 0.45630 -0.02800
C 	C 	0.01340 0.56060 0.54510 0.22100
C 	C 	0.91450 0.53760 0.60420 -0.24500
C 	C 	0.91110 0.56750 0.55620 0.18000
H 	H 	0.87540 0.58030 0.54300 -0.08000
H 	H 	0.62630 0.51770 0.71690 0.69900
H 	H 	0.62630 0.52160 0.78100 0.69300
H 	H 	0.62630 0.46080 0.75210 0.67800
C 	C 	0.12050 0.55000 0.52660 0.09400
H 	H 	0.12920 0.52340 0.55410 0.00700
C 	C 	0.96200 0.57860 0.52740 -0.27400
H 	H 	0.95990 0.59920 0.49460 0.08000
C 	C 	0.12520 0.60640 0.46120 -0.01000
H 	H 	0.14020 0.62840 0.43260 0.01600
C 	C 	0.01670 0.52800 0.59240 -0.29100
H 	H 	0.05220 0.51320 0.60410 0.12000
C 	C 	0.96730 0.51760 0.62200 0.17600
H 	H 	0.96960 0.49670 0.65460 -0.05800
H 	H 	0.56710 0.62770 0.62090 0.46100
H 	H 	0.61120 0.67180 0.59510 0.42600
H 	H 	0.60580 0.66640 0.65900 0.44700
O 	O 	0.23450 0.02110 0.21050 -0.82200
O 	O 	0.31280 0.04160 0.11560 -0.47000
O 	O 	0.36620 0.00170 0.18230 -0.46300
O 	O 	0.20360 0.11390 0.13010 -0.65000
N 	N 	0.65820 0.07290 0.99280 -0.23700
N 	N 	0.56700 0.07100 0.01540 -0.14600
C 	C 	0.35890 0.02540 0.13670 0.44800
C 	C 	0.57040 0.10590 0.97350 -0.01500
H 	H 	0.54040 0.12590 0.95630 -0.01500
C 	C 	0.51340 0.06060 0.04510 0.21900
C 	C 	0.41450 0.03760 0.10420 -0.25100
C 	C 	0.41110 0.06750 0.05620 0.16200
H 	H 	0.37540 0.08030 0.04300 -0.05700
H 	H 	0.12630 0.01770 0.21690 0.62400
H 	H 	0.12630 0.02160 0.28100 0.62000
H 	H 	0.12630 0.96080 0.25210 0.59000
C 	C 	0.62050 0.05000 0.02660 0.13000
H 	H 	0.62920 0.02340 0.05410 0.00800
C 	C 	0.46200 0.07860 0.02740 -0.20700
H 	H 	0.45990 0.09920 0.99460 0.04300
C 	C 	0.62520 0.10640 0.96120 0.00900
H 	H 	0.64020 0.12840 0.93260 0.01000
C 	C 	0.51670 0.02800 0.09240 -0.31300
H 	H 	0.55220 0.01320 0.10410 0.14100
C 	C 	0.46730 0.01760 0.12200 0.24200
H 	H 	0.46960 0.99670 0.15460 -0.10000
H 	H 	0.06710 0.12770 0.12090 0.47200
H 	H 	0.11120 0.17180 0.09510 0.43900
H 	H 	0.10580 0.16640 0.15900 0.45700
O 	O 	0.27110 0.48450 0.46050 -0.86800
O 	O 	0.29160 0.56280 0.36560 -0.47600
O 	O 	0.25170 0.61620 0.43230 -0.47500
O 	O 	0.36390 0.45360 0.38010 -0.65500
N 	N 	0.32290 0.90820 0.24280 -0.22200
N 	N 	0.32100 0.81700 0.26540 -0.16500
C 	C 	0.27540 0.60890 0.38670 0.44200
C 	C 	0.35590 0.82040 0.22350 0.02200
H 	H 	0.37590 0.79040 0.20630 -0.02700
C 	C 	0.31060 0.76340 0.29510 0.22100
C 	C 	0.28760 0.66450 0.35420 -0.24500
C 	C 	0.31750 0.66110 0.30620 0.18000
H 	H 	0.33030 0.62540 0.29300 -0.08000
H 	H 	0.26770 0.37630 0.46690 0.69900
H 	H 	0.27160 0.37630 0.53100 0.69300
H 	H 	0.21080 0.37630 0.50210 0.67800
C 	C 	0.30000 0.87050 0.27660 0.09400
H 	H 	0.27340 0.87920 0.30410 0.00600
C 	C 	0.32860 0.71200 0.27740 -0.27400
H 	H 	0.34920 0.70990 0.24460 0.08000
C 	C 	0.35640 0.87520 0.21120 -0.01000
H 	H 	0.37840 0.89020 0.18260 0.01100
C 	C 	0.27800 0.76670 0.34240 -0.29200
H 	H 	0.26320 0.80220 0.35410 0.12000
C 	C 	0.26760 0.71730 0.37200 0.17600
H 	H 	0.24670 0.71960 0.40460 -0.05900
H 	H 	0.37770 0.31710 0.37090 0.46200
H 	H 	0.42180 0.36120 0.34510 0.42600
H 	H 	0.41640 0.35580 0.40900 0.44800
O 	O 	0.77110 0.98450 0.96050 -0.86100
O 	O 	0.79160 0.06280 0.86560 -0.46300
O 	O 	0.75170 0.11620 0.93230 -0.48000
O 	O 	0.86390 0.95360 0.88010 -0.66400
N 	N 	0.82290 0.40820 0.74280 -0.21600
N 	N 	0.82100 0.31700 0.76540 -0.16500
C 	C 	0.77540 0.10890 0.88670 0.44000
C 	C 	0.85590 0.32040 0.72350 0.02200
H 	H 	0.87590 0.29040 0.70630 -0.02700
C 	C 	0.81060 0.26340 0.79510 0.22000
C 	C 	0.78760 0.16450 0.85420 -0.24200
C 	C 	0.81750 0.16110 0.80620 0.17600
H 	H 	0.83030 0.12540 0.79300 -0.07100
H 	H 	0.76770 0.87630 0.96690 0.61200
H 	H 	0.77160 0.87630 0.03100 0.62100
H 	H 	0.71080 0.87630 0.00210 0.60900
C 	C 	0.80000 0.37050 0.77660 0.09400
H 	H 	0.77340 0.37920 0.80410 0.00800
C 	C 	0.82860 0.21200 0.77740 -0.27000
H 	H 	0.84920 0.20990 0.74460 0.08000
C 	C 	0.85640 0.37520 0.71120 -0.00900
H 	H 	0.87840 0.39020 0.68260 0.01600
C 	C 	0.77800 0.26670 0.84240 -0.29000
H 	H 	0.76320 0.30220 0.85410 0.12200
C 	C 	0.76760 0.21730 0.87200 0.17400
H 	H 	0.74670 0.21960 0.90460 -0.05800
H 	H 	0.87770 0.81710 0.87090 0.46500
H 	H 	0.92180 0.86120 0.84510 0.43200
H 	H 	0.91640 0.85580 0.90900 0.45100
O 	O 	0.22890 0.51550 0.96050 -0.84700
O 	O 	0.20840 0.43720 0.86560 -0.47900
O 	O 	0.24830 0.38380 0.93230 -0.48400
O 	O 	0.13610 0.54640 0.88010 -0.65700
N 	N 	0.17710 0.09180 0.74280 -0.21400
N 	N 	0.17900 0.18300 0.76540 -0.16500
C 	C 	0.22460 0.39110 0.88670 0.44400
C 	C 	0.14410 0.17960 0.72350 0.02300
H 	H 	0.12410 0.20960 0.70630 -0.02700
C 	C 	0.18940 0.23660 0.79510 0.22400
C 	C 	0.21240 0.33550 0.85420 -0.24900
C 	C 	0.18250 0.33890 0.80620 0.18300
H 	H 	0.16970 0.37460 0.79300 -0.08100
H 	H 	0.23230 0.62370 0.96690 0.61000
H 	H 	0.22840 0.62370 0.03100 0.62000
H 	H 	0.28920 0.62370 0.00210 0.60800
C 	C 	0.20000 0.12950 0.77660 0.09500
H 	H 	0.22660 0.12080 0.80410 0.00700
C 	C 	0.17140 0.28800 0.77740 -0.27700
H 	H 	0.15080 0.29010 0.74460 0.08100
C 	C 	0.14360 0.12480 0.71120 -0.00800
H 	H 	0.12160 0.10980 0.68260 0.02000
C 	C 	0.22200 0.23330 0.84240 -0.29500
H 	H 	0.23680 0.19780 0.85410 0.12400
C 	C 	0.23240 0.28270 0.87200 0.17900
H 	H 	0.25330 0.28040 0.90460 -0.06000
H 	H 	0.12230 0.68290 0.87090 0.46200
H 	H 	0.07820 0.63880 0.84510 0.42600
H 	H 	0.08360 0.64420 0.90900 0.44800
O 	O 	0.72890 0.01550 0.46050 -0.85400
O 	O 	0.70840 0.93720 0.36560 -0.48600
O 	O 	0.74830 0.88380 0.43230 -0.47800
O 	O 	0.63610 0.04640 0.38010 -0.63600
N 	N 	0.67710 0.59180 0.24280 -0.21600
N 	N 	0.67900 0.68300 0.26540 -0.16500
C 	C 	0.72460 0.89110 0.38670 0.44200
C 	C 	0.64410 0.67960 0.22350 0.02200
H 	H 	0.62410 0.70960 0.20630 -0.02700
C 	C 	0.68940 0.73660 0.29510 0.21900
C 	C 	0.71240 0.83550 0.35420 -0.24300
C 	C 	0.68250 0.83890 0.30620 0.17600
H 	H 	0.66970 0.87460 0.29300 -0.07400
H 	H 	0.73230 0.12370 0.46690 0.69600
H 	H 	0.72840 0.12370 0.53100 0.69100
H 	H 	0.78920 0.12370 0.50210 0.67700
C 	C 	0.70000 0.62950 0.27660 0.09400
H 	H 	0.72660 0.62080 0.30410 0.00700
C 	C 	0.67140 0.78800 0.27740 -0.27000
H 	H 	0.65080 0.79010 0.24460 0.07900
C 	C 	0.64360 0.62480 0.21120 -0.01000
H 	H 	0.62160 0.60980 0.18260 0.01500
C 	C 	0.72200 0.73330 0.34240 -0.28900
H 	H 	0.73680 0.69780 0.35410 0.11900
C 	C 	0.73240 0.78270 0.37200 0.17400
H 	H 	0.75330 0.78040 0.40460 -0.05800
H 	H 	0.62230 0.18290 0.37090 0.46400
H 	H 	0.57820 0.13880 0.34510 0.43300
H 	H 	0.58360 0.14420 0.40900 0.45000
O 	O 	0.26550 0.52110 0.21050 -0.86900
O 	O 	0.18720 0.54160 0.11560 -0.46800
O 	O 	0.13380 0.50170 0.18230 -0.47100
O 	O 	0.29640 0.61390 0.13010 -0.65000
N 	N 	0.84180 0.57290 0.99280 -0.24100
N 	N 	0.93300 0.57100 0.01540 -0.14100
C 	C 	0.14110 0.52540 0.13670 0.42800
C 	C 	0.92960 0.60590 0.97350 -0.02100
H 	H 	0.95960 0.62590 0.95630 -0.01400
C 	C 	0.98660 0.56060 0.04510 0.17600
C 	C 	0.08550 0.53760 0.10420 -0.20300
C 	C 	0.08890 0.56750 0.05620 0.11500
H 	H 	0.12460 0.58030 0.04300 -0.04300
H 	H 	0.37370 0.51770 0.21690 0.69900
H 	H 	0.37370 0.52160 0.28100 0.69300
H 	H 	0.37370 0.46080 0.25210 0.67900
C 	C 	0.87950 0.55000 0.02660 0.12500
H 	H 	0.87080 0.52340 0.05410 0.00000
C 	C 	0.03800 0.57860 0.02740 -0.16800
H 	H 	0.04010 0.59920 0.99460 0.02800
C 	C 	0.87480 0.60640 0.96120 0.00800
H 	H 	0.85980 0.62840 0.93260 0.00800
C 	C 	0.98330 0.52800 0.09240 -0.24700
H 	H 	0.94780 0.51320 0.10410 0.10500
C 	C 	0.03270 0.51760 0.12200 0.13500
H 	H 	0.03040 0.49670 0.15460 -0.04400
H 	H 	0.43290 0.62770 0.12090 0.46700
H 	H 	0.38880 0.67180 0.09510 0.43700
H 	H 	0.39420 0.66640 0.15900 0.45300
O 	O 	0.76550 0.02110 0.71050 -0.82100
O 	O 	0.68720 0.04160 0.61560 -0.47800
O 	O 	0.63380 0.00170 0.68230 -0.46600
O 	O 	0.79640 0.11390 0.63010 -0.65500
N 	N 	0.34180 0.07290 0.49280 -0.21200
N 	N 	0.43300 0.07100 0.51540 -0.17000
C 	C 	0.64110 0.02540 0.63670 0.46200
C 	C 	0.42960 0.10590 0.47350 0.02800
H 	H 	0.45960 0.12590 0.45630 -0.02900
C 	C 	0.48660 0.06060 0.54510 0.26400
C 	C 	0.58550 0.03760 0.60420 -0.29300
C 	C 	0.58890 0.06750 0.55620 0.22800
H 	H 	0.62460 0.08030 0.54300 -0.09400
H 	H 	0.87370 0.01770 0.71690 0.62400
H 	H 	0.87370 0.02160 0.78100 0.62000
H 	H 	0.87370 0.96080 0.75210 0.59000
C 	C 	0.37950 0.05000 0.52660 0.10000
H 	H 	0.37080 0.02340 0.55410 0.01500
C 	C 	0.53800 0.07860 0.52740 -0.31500
H 	H 	0.54010 0.09920 0.49460 0.09600
C 	C 	0.37480 0.10640 0.46120 -0.00900
H 	H 	0.35980 0.12840 0.43260 0.01700
C 	C 	0.48330 0.02800 0.59240 -0.35700
H 	H 	0.44780 0.01320 0.60410 0.15600
C 	C 	0.53270 0.01760 0.62200 0.28300
H 	H 	0.53040 0.99670 0.65460 -0.11400
H 	H 	0.93290 0.12770 0.62090 0.46600
H 	H 	0.88880 0.17180 0.59510 0.42800
H 	H 	0.89420 0.16640 0.65900 0.45100
O 	O 	0.23450 0.47890 0.71050 -0.86800
O 	O 	0.31280 0.45840 0.61560 -0.47600
O 	O 	0.36620 0.49830 0.68230 -0.47400
O 	O 	0.20360 0.38610 0.63010 -0.65500
N 	N 	0.65820 0.42710 0.49280 -0.21600
N 	N 	0.56700 0.42900 0.51540 -0.16500
C 	C 	0.35890 0.47460 0.63670 0.44200
C 	C 	0.57040 0.39410 0.47350 0.02200
H 	H 	0.54040 0.37410 0.45630 -0.02800
C 	C 	0.51340 0.43940 0.54510 0.22100
C 	C 	0.41450 0.46240 0.60420 -0.24500
C 	C 	0.41110 0.43250 0.55620 0.18000
H 	H 	0.37540 0.41970 0.54300 -0.08000
H 	H 	0.12630 0.48230 0.71690 0.69900
H 	H 	0.12630 0.47840 0.78100 0.69300
H 	H 	0.12630 0.53920 0.75210 0.67800
C 	C 	0.62050 0.45000 0.52660 0.09400
H 	H 	0.62920 0.47660 0.55410 0.00700
C 	C 	0.46200 0.42140 0.52740 -0.27400
H 	H 	0.45990 0.40080 0.49460 0.08000
C 	C 	0.62520 0.39360 0.46120 -0.01000
H 	H 	0.64020 0.37160 0.43260 0.01600
C 	C 	0.51670 0.47200 0.59240 -0.29100
H 	H 	0.55220 0.48680 0.60410 0.12000
C 	C 	0.46730 0.48240 0.62200 0.17600
H 	H 	0.46960 0.50330 0.65460 -0.05800
H 	H 	0.06710 0.37230 0.62090 0.46100
H 	H 	0.11120 0.32820 0.59510 0.42600
H 	H 	0.10580 0.33360 0.65900 0.44700
O 	O 	0.73450 0.97890 0.21050 -0.84800
O 	O 	0.81280 0.95840 0.11560 -0.46900
O 	O 	0.86620 0.99830 0.18230 -0.48300
O 	O 	0.70360 0.88610 0.13010 -0.65300
N 	N 	0.15820 0.92710 0.99280 -0.24400
N 	N 	0.06700 0.92900 0.01540 -0.13600
C 	C 	0.85890 0.97460 0.13670 0.40900
C 	C 	0.07040 0.89410 0.97350 -0.02600
H 	H 	0.04040 0.87410 0.95630 -0.01300
C 	C 	0.01340 0.93940 0.04510 0.13600
C 	C 	0.91450 0.96240 0.10420 -0.15600
C 	C 	0.91110 0.93250 0.05620 0.06900
H 	H 	0.87540 0.91970 0.04300 -0.02900
H 	H 	0.62630 0.98230 0.21690 0.57400
H 	H 	0.62630 0.97840 0.28100 0.56900
H 	H 	0.62630 0.03920 0.25210 0.57000
C 	C 	0.12050 0.95000 0.02660 0.11900
H 	H 	0.12920 0.97660 0.05410 -0.00600
C 	C 	0.96200 0.92140 0.02740 -0.13000
H 	H 	0.95990 0.90080 0.99460 0.01300
C 	C 	0.12520 0.89360 0.96120 0.00800
H 	H 	0.14020 0.87160 0.93260 0.00600
C 	C 	0.01670 0.97200 0.09240 -0.18300
H 	H 	0.05220 0.98680 0.10410 0.07800
C 	C 	0.96730 0.98240 0.12200 0.03200
H 	H 	0.96960 0.00330 0.15460 0.01500
H 	H 	0.56710 0.87230 0.12090 0.47000
H 	H 	0.61120 0.82820 0.09510 0.44000
H 	H 	0.60580 0.83360 0.15900 0.45700
O 	O 	0.22890 0.48450 0.53950 -0.86800
O 	O 	0.20840 0.56280 0.63440 -0.47600
O 	O 	0.24830 0.61620 0.56770 -0.47500
O 	O 	0.13610 0.45360 0.61990 -0.65500
N 	N 	0.17710 0.90820 0.75720 -0.22200
N 	N 	0.17900 0.81700 0.73460 -0.16500
C 	C 	0.22460 0.60890 0.61330 0.44200
C 	C 	0.14410 0.82040 0.77650 0.02200
H 	H 	0.12410 0.79040 0.79370 -0.02700
C 	C 	0.18940 0.76340 0.70490 0.22100
C 	C 	0.21240 0.66450 0.64580 -0.24500
C 	C 	0.18250 0.66110 0.69380 0.18100
H 	H 	0.16970 0.62540 0.70700 -0.08000
H 	H 	0.23230 0.37630 0.53310 0.69900
H 	H 	0.22840 0.37630 0.46900 0.69300
H 	H 	0.28920 0.37630 0.49790 0.67800
C 	C 	0.20000 0.87050 0.72340 0.09500
H 	H 	0.22660 0.87920 0.69590 0.00600
C 	C 	0.17140 0.71200 0.72260 -0.27400
H 	H 	0.15080 0.70990 0.75540 0.08000
C 	C 	0.14360 0.87520 0.78880 -0.00900
H 	H 	0.12160 0.89020 0.81740 0.01200
C 	C 	0.22200 0.76670 0.65760 -0.29200
H 	H 	0.23680 0.80220 0.64590 0.12000
C 	C 	0.23240 0.71730 0.62800 0.17600
H 	H 	0.25330 0.71960 0.59540 -0.05900
H 	H 	0.12230 0.31710 0.62910 0.46100
H 	H 	0.07820 0.36120 0.65490 0.42600
H 	H 	0.08360 0.35580 0.59100 0.44700
O 	O 	0.72890 0.98450 0.03950 -0.83800
O 	O 	0.70840 0.06280 0.13440 -0.46000
O 	O 	0.74830 0.11620 0.06770 -0.46500
O 	O 	0.63610 0.95360 0.11990 -0.66300
N 	N 	0.67710 0.40820 0.25720 -0.21600
N 	N 	0.67900 0.31700 0.23460 -0.16400
C 	C 	0.72460 0.10890 0.11330 0.43700
C 	C 	0.64410 0.32040 0.27650 0.02300
H 	H 	0.62410 0.29040 0.29370 -0.02700
C 	C 	0.68940 0.26340 0.20490 0.21800
C 	C 	0.71240 0.16450 0.14580 -0.23500
C 	C 	0.68250 0.16110 0.19380 0.17200
H 	H 	0.66970 0.12540 0.20700 -0.07000
H 	H 	0.73230 0.87630 0.03310 0.59300
H 	H 	0.72840 0.87630 0.96900 0.57400
H 	H 	0.78920 0.87630 0.99790 0.55500
C 	C 	0.70000 0.37050 0.22340 0.09500
H 	H 	0.72660 0.37920 0.19590 0.00800
C 	C 	0.67140 0.21200 0.22260 -0.26600
H 	H 	0.65080 0.20990 0.25540 0.07900
C 	C 	0.64360 0.37520 0.28880 -0.00900
H 	H 	0.62160 0.39020 0.31740 0.01600
C 	C 	0.72200 0.26670 0.15760 -0.28400
H 	H 	0.73680 0.30220 0.14590 0.12200
C 	C 	0.73240 0.21730 0.12800 0.17000
H 	H 	0.75330 0.21960 0.09540 -0.05000
H 	H 	0.62230 0.81710 0.12910 0.47200
H 	H 	0.57820 0.86120 0.15490 0.43800
H 	H 	0.58360 0.85580 0.09100 0.45800
O 	O 	0.27110 0.51550 0.03950 -0.82300
O 	O 	0.29160 0.43720 0.13440 -0.47600
O 	O 	0.25170 0.38380 0.06770 -0.46900
O 	O 	0.36390 0.54640 0.11990 -0.65600
N 	N 	0.32290 0.09180 0.25720 -0.21400
N 	N 	0.32100 0.18300 0.23460 -0.16500
C 	C 	0.27540 0.39110 0.11330 0.44100
C 	C 	0.35590 0.17960 0.27650 0.02400
H 	H 	0.37590 0.20960 0.29370 -0.02700
C 	C 	0.31060 0.23660 0.20490 0.22200
C 	C 	0.28760 0.33550 0.14580 -0.24200
C 	C 	0.31750 0.33890 0.19380 0.18000
H 	H 	0.33030 0.37460 0.20700 -0.07900
H 	H 	0.26770 0.62370 0.03310 0.59100
H 	H 	0.27160 0.62370 0.96900 0.57200
H 	H 	0.21080 0.62370 0.99790 0.55400
C 	C 	0.30000 0.12950 0.22340 0.09500
H 	H 	0.27340 0.12080 0.19590 0.00800
C 	C 	0.32860 0.28800 0.22260 -0.27300
H 	H 	0.34920 0.29010 0.25540 0.08000
C 	C 	0.35640 0.12480 0.28880 -0.00800
H 	H 	0.37840 0.10980 0.31740 0.02000
C 	C 	0.27800 0.23330 0.15760 -0.28900
H 	H 	0.26320 0.19780 0.14590 0.12400
C 	C 	0.26760 0.28270 0.12800 0.17500
H 	H 	0.24670 0.28040 0.09540 -0.05200
H 	H 	0.37770 0.68290 0.12910 0.46800
H 	H 	0.42180 0.63880 0.15490 0.43200
H 	H 	0.41640 0.64420 0.09100 0.45500
O 	O 	0.77110 0.01550 0.53950 -0.85400
O 	O 	0.79160 0.93720 0.63440 -0.48600
O 	O 	0.75170 0.88380 0.56770 -0.47800
O 	O 	0.86390 0.04640 0.61990 -0.63600
N 	N 	0.82290 0.59180 0.75720 -0.21600
N 	N 	0.82100 0.68300 0.73460 -0.16500
C 	C 	0.77540 0.89110 0.61330 0.44200
C 	C 	0.85590 0.67960 0.77650 0.02300
H 	H 	0.87590 0.70960 0.79370 -0.02800
C 	C 	0.81060 0.73660 0.70490 0.22000
C 	C 	0.78760 0.83550 0.64580 -0.24300
C 	C 	0.81750 0.83890 0.69380 0.17700
H 	H 	0.83030 0.87460 0.70700 -0.07400
H 	H 	0.76770 0.12370 0.53310 0.69600
H 	H 	0.77160 0.12370 0.46900 0.69100
H 	H 	0.71080 0.12370 0.49790 0.67700
C 	C 	0.80000 0.62950 0.72340 0.09400
H 	H 	0.77340 0.62080 0.69590 0.00700
C 	C 	0.82860 0.78800 0.72260 -0.27100
H 	H 	0.84920 0.79010 0.75540 0.08000
C 	C 	0.85640 0.62480 0.78880 -0.00900
H 	H 	0.87840 0.60980 0.81740 0.01600
C 	C 	0.77800 0.73330 0.65760 -0.29000
H 	H 	0.76320 0.69780 0.64590 0.11900
C 	C 	0.76760 0.78270 0.62800 0.17400
H 	H 	0.74670 0.78040 0.59540 -0.05800
H 	H 	0.87770 0.18290 0.62910 0.46400
H 	H 	0.92180 0.13880 0.65490 0.43200
H 	H 	0.91640 0.14420 0.59100 0.45000
O 	O 	0.23450 0.52110 0.78950 -0.86800
O 	O 	0.31280 0.54160 0.88440 -0.47800
O 	O 	0.36620 0.50170 0.81770 -0.47700
O 	O 	0.20360 0.61390 0.86990 -0.64800
N 	N 	0.65820 0.57290 0.00720 -0.19400
N 	N 	0.56700 0.57100 0.98460 -0.18800
C 	C 	0.35890 0.52540 0.86330 0.45200
C 	C 	0.57040 0.60590 0.02650 0.06700
H 	H 	0.54040 0.62590 0.04370 -0.04000
C 	C 	0.51340 0.56060 0.95490 0.26200
C 	C 	0.41450 0.53760 0.89580 -0.27900
C 	C 	0.41110 0.56750 0.94380 0.23700
H 	H 	0.37540 0.58030 0.95700 -0.10200
H 	H 	0.12630 0.51770 0.78310 0.69900
H 	H 	0.12630 0.52160 0.71900 0.69300
H 	H 	0.12630 0.46080 0.74790 0.67800
C 	C 	0.62050 0.55000 0.97340 0.06400
H 	H 	0.62920 0.52340 0.94590 0.01300
C 	C 	0.46200 0.57860 0.97260 -0.37200
H 	H 	0.45990 0.59920 0.00540 0.13200
C 	C 	0.62520 0.60640 0.03880 -0.02600
H 	H 	0.64020 0.62840 0.06740 0.02400
C 	C 	0.51670 0.52800 0.90760 -0.33000
H 	H 	0.55220 0.51320 0.89590 0.13200
C 	C 	0.46730 0.51760 0.87800 0.21100
H 	H 	0.46960 0.49670 0.84540 -0.07000
H 	H 	0.06710 0.62770 0.87910 0.46100
H 	H 	0.11120 0.67180 0.90490 0.42700
H 	H 	0.10580 0.66640 0.84100 0.44700
O 	O 	0.73450 0.02110 0.28950 -0.82100
O 	O 	0.81280 0.04160 0.38440 -0.47800
O 	O 	0.86620 0.00170 0.31770 -0.46700
O 	O 	0.70360 0.11390 0.36990 -0.65500
N 	N 	0.15820 0.07290 0.50720 -0.21200
N 	N 	0.06700 0.07100 0.48460 -0.17000
C 	C 	0.85890 0.02540 0.36330 0.46200
C 	C 	0.07040 0.10590 0.52650 0.02800
H 	H 	0.04040 0.12590 0.54370 -0.02900
C 	C 	0.01340 0.06060 0.45490 0.26400
C 	C 	0.91450 0.03760 0.39580 -0.29200
C 	C 	0.91110 0.06750 0.44380 0.22800
H 	H 	0.87540 0.08030 0.45700 -0.09400
H 	H 	0.62630 0.01770 0.28310 0.62300
H 	H 	0.62630 0.02160 0.21900 0.62000
H 	H 	0.62630 0.96080 0.24790 0.58900
C 	C 	0.12050 0.05000 0.47340 0.10000
H 	H 	0.12920 0.02340 0.44590 0.01500
C 	C 	0.96200 0.07860 0.47260 -0.31400
H 	H 	0.95990 0.09920 0.50540 0.09600
C 	C 	0.12520 0.10640 0.53880 -0.00900
H 	H 	0.14020 0.12840 0.56740 0.01700
C 	C 	0.01670 0.02800 0.40760 -0.35600
H 	H 	0.05220 0.01320 0.39590 0.15500
C 	C 	0.96730 0.01760 0.37800 0.28200
H 	H 	0.96960 0.99670 0.34540 -0.11300
H 	H 	0.56710 0.12770 0.37910 0.46600
H 	H 	0.61120 0.17180 0.40490 0.42900
H 	H 	0.60580 0.16640 0.34100 0.45100
O 	O 	0.26550 0.47890 0.28950 -0.86800
O 	O 	0.18720 0.45840 0.38440 -0.47600
O 	O 	0.13380 0.49830 0.31770 -0.47500
O 	O 	0.29640 0.38610 0.36990 -0.65500
N 	N 	0.84180 0.42710 0.50720 -0.21600
N 	N 	0.93300 0.42900 0.48460 -0.16500
C 	C 	0.14110 0.47460 0.36330 0.44200
C 	C 	0.92960 0.39410 0.52650 0.02200
H 	H 	0.95960 0.37410 0.54370 -0.02800
C 	C 	0.98660 0.43940 0.45490 0.22100
C 	C 	0.08550 0.46240 0.39580 -0.24500
C 	C 	0.08890 0.43250 0.44380 0.18000
H 	H 	0.12460 0.41970 0.45700 -0.08000
H 	H 	0.37370 0.48230 0.28310 0.69900
H 	H 	0.37370 0.47840 0.21900 0.69300
H 	H 	0.37370 0.53920 0.24790 0.67800
C 	C 	0.87950 0.45000 0.47340 0.09400
H 	H 	0.87080 0.47660 0.44590 0.00700
C 	C 	0.03800 0.42140 0.47260 -0.27400
H 	H 	0.04010 0.40080 0.50540 0.08000
C 	C 	0.87480 0.39360 0.53880 -0.01000
H 	H 	0.85980 0.37160 0.56740 0.01600
C 	C 	0.98330 0.47200 0.40760 -0.29200
H 	H 	0.94780 0.48680 0.39590 0.12000
C 	C 	0.03270 0.48240 0.37800 0.17600
H 	H 	0.03040 0.50330 0.34540 -0.05800
H 	H 	0.43290 0.37230 0.37910 0.46200
H 	H 	0.38880 0.32820 0.40490 0.42600
H 	H 	0.39420 0.33360 0.34100 0.44800
O 	O 	0.76550 0.97890 0.78950 -0.84800
O 	O 	0.68720 0.95840 0.88440 -0.47900
O 	O 	0.63380 0.99830 0.81770 -0.48900
O 	O 	0.79640 0.88610 0.86990 -0.65200
N 	N 	0.34180 0.92710 0.00720 -0.19800
N 	N 	0.43300 0.92900 0.98460 -0.18300
C 	C 	0.64110 0.97460 0.86330 0.43300
C 	C 	0.42960 0.89410 0.02650 0.06100
H 	H 	0.45960 0.87410 0.04370 -0.03900
C 	C 	0.48660 0.93940 0.95490 0.22100
C 	C 	0.58550 0.96240 0.89580 -0.23100
C 	C 	0.58890 0.93250 0.94380 0.19000
H 	H 	0.62460 0.91970 0.95700 -0.08800
H 	H 	0.87370 0.98230 0.78310 0.57500
H 	H 	0.87370 0.97840 0.71900 0.57000
H 	H 	0.87370 0.03920 0.74790 0.57100
C 	C 	0.37950 0.95000 0.97340 0.05900
H 	H 	0.37080 0.97660 0.94590 0.00700
C 	C 	0.53800 0.92140 0.97260 -0.33200
H 	H 	0.54010 0.90080 0.00540 0.11600
C 	C 	0.37480 0.89360 0.03880 -0.02600
H 	H 	0.35980 0.87160 0.06740 0.02200
C 	C 	0.48330 0.97200 0.90760 -0.26400
H 	H 	0.44780 0.98680 0.89590 0.10400
C 	C 	0.53270 0.98240 0.87800 0.10600
H 	H 	0.53040 0.00330 0.84540 -0.00900
H 	H 	0.93290 0.87230 0.87910 0.46400
H 	H 	0.88880 0.82820 0.90490 0.43100
H 	H 	0.89420 0.83360 0.84100 0.45200
Co	Co	0.72621 0.52379 0.62500 1.21900
C 	C 	0.65170 0.59830 0.62500 0.98200
C 	C 	0.60450 0.64550 0.62500 -2.68000
Co	Co	0.22621 0.02379 0.12500 1.22200
C 	C 	0.15170 0.09830 0.12500 0.99900
C 	C 	0.10450 0.14550 0.12500 -2.73100
Co	Co	0.77379 0.47621 0.12500 1.21800
C 	C 	0.84830 0.40170 0.12500 0.99500
C 	C 	0.89550 0.35450 0.12500 -2.71700
Co	Co	0.27379 0.97621 0.62500 1.21200
C 	C 	0.34830 0.90170 0.62500 0.99200
C 	C 	0.39550 0.85450 0.62500 -2.70100
Co	Co	0.72621 0.47621 0.87500 1.21800
C 	C 	0.65170 0.40170 0.87500 0.98400
C 	C 	0.60450 0.35450 0.87500 -2.68400
Co	Co	0.22621 0.97621 0.37500 1.21200
C 	C 	0.15170 0.90170 0.37500 0.99300
C 	C 	0.10450 0.85450 0.37500 -2.70400
Co	Co	0.77379 0.52379 0.37500 1.21900
C 	C 	0.84830 0.59830 0.37500 0.98300
C 	C 	0.89550 0.64550 0.37500 -2.68300
Co	Co	0.27379 0.02379 0.87500 1.22300
C 	C 	0.34830 0.09830 0.87500 0.98800
C 	C 	0.39550 0.14550 0.87500 -2.69700
Co	Co	0.27379 0.47621 0.37500 1.21900
C 	C 	0.34830 0.40170 0.37500 0.98300
C 	C 	0.39550 0.35450 0.37500 -2.68400
Co	Co	0.77379 0.97621 0.87500 1.21100
C 	C 	0.84830 0.90170 0.87500 0.99500
C 	C 	0.89550 0.85450 0.87500 -2.70500
Co	Co	0.22621 0.52379 0.87500 1.21800
C 	C 	0.15170 0.59830 0.87500 0.98400
C 	C 	0.10450 0.64550 0.87500 -2.68400
Co	Co	0.72621 0.02379 0.37500 1.22400
C 	C 	0.65170 0.09830 0.37500 0.98700
C 	C 	0.60450 0.14550 0.37500 -2.69800
Co	Co	0.27379 0.52379 0.12500 1.21800
C 	C 	0.34830 0.59830 0.12500 0.99500
C 	C 	0.39550 0.64550 0.12500 -2.71600
Co	Co	0.77379 0.02379 0.62500 1.22400
C 	C 	0.84830 0.09830 0.62500 0.98600
C 	C 	0.89550 0.14550 0.62500 -2.69500
Co	Co	0.22621 0.47621 0.62500 1.21900
C 	C 	0.15170 0.40170 0.62500 0.98200
C 	C 	0.10450 0.35450 0.62500 -2.68200
Co	Co	0.72621 0.97621 0.12500 1.21100
C 	C 	0.65170 0.90170 0.12500 1.00600
C 	C 	0.60450 0.85450 0.12500 -2.73800
Co	Co	0.75000 0.43353 0.50000 1.18200
C 	C 	0.75000 0.54390 0.50000 1.52400
C 	C 	0.75000 0.60980 0.50000 -4.06800
Co	Co	0.25000 0.93353 -0.00000 1.18600
C 	C 	0.25000 0.04390 -0.00000 1.38900
C 	C 	0.25000 0.10980 -0.00000 -3.48700
Co	Co	0.75000 0.56647 -0.00000 1.19300
C 	C 	0.75000 0.45610 -0.00000 1.39400
C 	C 	0.75000 0.39020 -0.00000 -3.49700
Co	Co	0.25000 0.06647 0.50000 1.18900
C 	C 	0.25000 0.95610 0.50000 1.52800
C 	C 	0.25000 0.89020 0.50000 -4.07700
Co	Co	0.81647 0.50000 0.75000 1.18200
C 	C 	0.70610 0.50000 0.75000 1.52300
C 	C 	0.64020 0.50000 0.75000 -4.06600
Co	Co	0.31647 0.00000 0.25000 1.19300
C 	C 	0.20610 0.00000 0.25000 1.39400
C 	C 	0.14020 0.00000 0.25000 -3.49500
Co	Co	0.68353 0.50000 0.25000 1.18200
C 	C 	0.79390 0.50000 0.25000 1.52400
C 	C 	0.85980 0.50000 0.25000 -4.06800
Co	Co	0.18353 0.00000 0.75000 1.19300
C 	C 	0.29390 0.00000 0.75000 1.39200
C 	C 	0.35980 0.00000 0.75000 -3.48800
Co	Co	0.25000 0.56647 0.50000 1.18200
C 	C 	0.25000 0.45610 0.50000 1.52400
C 	C 	0.25000 0.39020 0.50000 -4.06700
Co	Co	0.75000 0.06647 -0.00000 1.20000
C 	C 	0.75000 0.95610 -0.00000 1.40000
C 	C 	0.75000 0.89020 -0.00000 -3.51100
Co	Co	0.25000 0.43353 -0.00000 1.19300
C 	C 	0.25000 0.54390 -0.00000 1.39500
C 	C 	0.25000 0.60980 -0.00000 -3.49800
Co	Co	0.75000 0.93353 0.50000 1.17400
C 	C 	0.75000 0.04390 0.50000 1.51800
C 	C 	0.75000 0.10980 0.50000 -4.05300
Co	Co	0.18353 0.50000 0.25000 1.18200
C 	C 	0.29390 0.50000 0.25000 1.52400
C 	C 	0.35980 0.50000 0.25000 -4.06800
Co	Co	0.68353 0.00000 0.75000 1.19300
C 	C 	0.79390 0.00000 0.75000 1.39300
C 	C 	0.85980 0.00000 0.75000 -3.49200
Co	Co	0.31647 0.50000 0.75000 1.18200
C 	C 	0.20610 0.50000 0.75000 1.52400
C 	C 	0.14020 0.50000 0.75000 -4.06600
Co	Co	0.81647 0.00000 0.25000 1.19300
C 	C 	0.70610 0.00000 0.25000 1.39200
C 	C 	0.64020 0.00000 0.25000 -3.49000
