data_crystal

_cell_length_a 28.13330
_cell_length_b 28.13330
_cell_length_c 69.41100
_cell_angle_alpha 90.00000
_cell_angle_beta  90.00000
_cell_angle_gamma 120.00000

_symmetry_space_group_name_	'P 1'
_symmetry_space_group_name_H-M	'P 1'

loop_
_symmetry_equiv_pos_as_xyz
  x,y,z

loop_
_atom_site_label
_atom_site_type_symbol
_atom_site_fract_x
_atom_site_fract_y
_atom_site_fract_z
_atom_site_charge
O 	O 	0.54339 0.17956 0.10313 -0.64300
O 	O 	0.51633 0.20740 0.12965 -0.64500
O 	O 	0.66021 0.23855 0.16071 -0.63800
O 	O 	0.66966 0.24588 0.06934 -0.61000
C 	C 	0.51204 0.17167 0.11728 0.52100
C 	C 	0.46434 0.11451 0.11985 -0.20400
C 	C 	0.42653 0.10350 0.13385 0.13200
H 	H 	0.43030 0.13190 0.14180 0.00300
C 	C 	0.38180 0.05050 0.13672 -0.20600
H 	H 	0.35640 0.04380 0.14640 0.10400
C 	C 	0.37620 0.00870 0.12510 0.15600
C 	C 	0.41720 0.01910 0.11172 -0.17000
H 	H 	0.41580 0.99020 0.10480 0.08300
C 	C 	0.46020 0.07240 0.10864 0.11800
H 	H 	0.48600 0.07930 0.09910 0.00900
C 	C 	0.33200 0.95340 0.12684 -0.10300
C 	C 	0.29240 0.90890 0.12883 0.04000
C 	C 	0.24340 0.85630 0.13009 -0.04400
C 	C 	0.20470 0.84720 0.14373 0.02800
C 	C 	0.21180 0.88610 0.15805 -0.08900
H 	H 	0.24410 0.91990 0.15780 0.06500
C 	C 	0.17540 0.87730 0.17172 0.01500
C 	C 	0.23620 0.81540 0.11644 0.02500
C 	C 	0.27690 0.82230 0.10186 -0.08500
H 	H 	0.31010 0.85520 0.10160 0.06600
C 	C 	0.26870 0.78370 0.08884 0.01200
C 	C 	0.69360 0.21950 0.03407 0.08400
H 	H 	0.65940 0.19630 0.03950 0.02100
C 	C 	0.70990 0.20740 0.01622 -0.16800
H 	H 	0.68590 0.17490 0.00990 0.09200
C 	C 	0.85180 0.23550 0.94983 0.02200
C 	C 	0.88650 0.28990 0.95690 -0.06900
H 	H 	0.87540 0.30160 0.96770 0.05600
C 	C 	0.93240 0.32280 0.94890 -0.02500
H 	H 	0.95340 0.35830 0.95360 0.03500
C 	C 	0.95140 0.30540 0.93300 -0.03200
H 	H 	0.98620 0.32910 0.92810 0.04000
C 	C 	0.92150 0.25670 0.92460 -0.06600
H 	H 	0.93510 0.24850 0.91360 0.05700
C 	C 	0.86950 0.21680 0.93190 0.02200
C 	C 	0.93870 0.14680 0.87234 -0.17100
H 	H 	0.96110 0.18170 0.87740 0.09300
C 	C 	0.95790 0.12670 0.85691 0.10500
H 	H 	0.99300 0.14880 0.85200 0.01100
O 	O 	0.21006 0.51289 0.43646 -0.64400
O 	O 	0.18300 0.54073 0.46298 -0.64500
O 	O 	0.32688 0.57188 0.49404 -0.63800
O 	O 	0.33633 0.57921 0.40267 -0.60900
C 	C 	0.17871 0.50500 0.45061 0.52800
C 	C 	0.13101 0.44784 0.45318 -0.22000
C 	C 	0.09320 0.43683 0.46718 0.15200
H 	H 	0.09697 0.46523 0.47513 -0.00200
C 	C 	0.04847 0.38383 0.47005 -0.22400
H 	H 	0.02307 0.37713 0.47973 0.11300
C 	C 	0.04287 0.34203 0.45843 0.18000
C 	C 	0.08387 0.35243 0.44505 -0.21800
H 	H 	0.08247 0.32353 0.43813 0.11300
C 	C 	0.12687 0.40573 0.44197 0.14800
H 	H 	0.15267 0.41263 0.43243 -0.00300
C 	C 	0.99867 0.28673 0.46017 -0.11300
C 	C 	0.95907 0.24223 0.46216 0.04500
C 	C 	0.91007 0.18963 0.46342 -0.04800
C 	C 	0.87137 0.18053 0.47706 0.03100
C 	C 	0.87847 0.21943 0.49138 -0.09200
H 	H 	0.91077 0.25323 0.49113 0.06700
C 	C 	0.84207 0.21063 0.50505 0.01800
C 	C 	0.90287 0.14873 0.44977 0.02600
C 	C 	0.94357 0.15563 0.43519 -0.08500
H 	H 	0.97677 0.18853 0.43493 0.06500
C 	C 	0.93537 0.11703 0.42217 0.01100
C 	C 	0.36027 0.55283 0.36740 0.08400
H 	H 	0.32607 0.52963 0.37283 0.02000
C 	C 	0.37657 0.54073 0.34955 -0.16800
H 	H 	0.35257 0.50823 0.34323 0.09100
C 	C 	0.51847 0.56883 0.28316 0.02200
C 	C 	0.55317 0.62323 0.29023 -0.06900
H 	H 	0.54207 0.63493 0.30103 0.05700
C 	C 	0.59907 0.65613 0.28223 -0.02400
H 	H 	0.62007 0.69163 0.28693 0.03700
C 	C 	0.61807 0.63873 0.26633 -0.03200
H 	H 	0.65287 0.66243 0.26143 0.04400
C 	C 	0.58817 0.59003 0.25793 -0.06500
H 	H 	0.60177 0.58183 0.24693 0.05800
C 	C 	0.53617 0.55013 0.26523 0.02200
C 	C 	0.60537 0.48013 0.20567 -0.17100
H 	H 	0.62777 0.51503 0.21073 0.09500
C 	C 	0.62457 0.46003 0.19024 0.10500
H 	H 	0.65967 0.48213 0.18533 0.01400
O 	O 	0.87672 0.84623 0.76980 -0.64500
O 	O 	0.84966 0.87407 0.79632 -0.64600
O 	O 	0.99354 0.90522 0.82738 -0.64800
O 	O 	0.00299 0.91255 0.73601 -0.60300
C 	C 	0.84537 0.83834 0.78395 0.52500
C 	C 	0.79767 0.78118 0.78652 -0.21100
C 	C 	0.75986 0.77017 0.80052 0.13700
H 	H 	0.76363 0.79857 0.80847 0.00100
C 	C 	0.71513 0.71717 0.80339 -0.20600
H 	H 	0.68973 0.71047 0.81307 0.10100
C 	C 	0.70953 0.67537 0.79177 0.15000
C 	C 	0.75053 0.68577 0.77839 -0.20100
H 	H 	0.74913 0.65687 0.77147 0.10300
C 	C 	0.79353 0.73907 0.77531 0.13400
H 	H 	0.81933 0.74597 0.76577 0.00000
C 	C 	0.66533 0.62007 0.79351 -0.08800
C 	C 	0.62573 0.57557 0.79550 0.03500
C 	C 	0.57673 0.52297 0.79676 -0.04100
C 	C 	0.53803 0.51387 0.81040 0.02800
C 	C 	0.54513 0.55277 0.82472 -0.09000
H 	H 	0.57743 0.58657 0.82447 0.06800
C 	C 	0.50873 0.54397 0.83839 0.01800
C 	C 	0.56953 0.48207 0.78311 0.02400
C 	C 	0.61023 0.48897 0.76853 -0.08400
H 	H 	0.64343 0.52187 0.76827 0.06700
C 	C 	0.60203 0.45037 0.75551 0.01200
C 	C 	0.02693 0.88617 0.70074 0.11000
H 	H 	0.99273 0.86297 0.70617 0.00100
C 	C 	0.04323 0.87407 0.68289 -0.17900
H 	H 	0.01923 0.84157 0.67657 0.09800
C 	C 	0.18513 0.90217 0.61650 0.00700
C 	C 	0.21983 0.95657 0.62357 -0.02900
H 	H 	0.20873 0.96827 0.63437 0.04100
C 	C 	0.26573 0.98947 0.61557 -0.08600
H 	H 	0.28673 0.02497 0.62027 0.06800
C 	C 	0.28473 0.97207 0.59967 0.00700
H 	H 	0.31953 0.99577 0.59477 0.02600
C 	C 	0.25483 0.92337 0.59127 -0.09200
H 	H 	0.26843 0.91517 0.58027 0.06700
C 	C 	0.20283 0.88347 0.59857 0.03300
C 	C 	0.27203 0.81347 0.53901 -0.17100
H 	H 	0.29443 0.84837 0.54407 0.09300
C 	C 	0.29123 0.79337 0.52358 0.10400
H 	H 	0.32633 0.81547 0.51867 0.01300
O 	O 	0.82044 0.36383 0.10313 -0.64500
O 	O 	0.79260 0.30893 0.12965 -0.64600
O 	O 	0.76145 0.42166 0.16071 -0.63700
O 	O 	0.75412 0.42378 0.06934 -0.60900
C 	C 	0.82833 0.34037 0.11728 0.52700
C 	C 	0.88549 0.34983 0.11985 -0.21700
C 	C 	0.89650 0.32303 0.13385 0.14000
H 	H 	0.86810 0.29840 0.14180 0.00000
C 	C 	0.94950 0.33130 0.13672 -0.20600
H 	H 	0.95620 0.31260 0.14640 0.09900
C 	C 	0.99130 0.36750 0.12510 0.14400
C 	C 	0.98090 0.39810 0.11172 -0.22800
H 	H 	0.00980 0.42560 0.10480 0.12100
C 	C 	0.92760 0.38780 0.10864 0.14800
H 	H 	0.92070 0.40670 0.09910 -0.00600
C 	C 	0.04660 0.37860 0.12684 -0.07400
C 	C 	0.09110 0.38350 0.12883 0.03000
C 	C 	0.14370 0.38710 0.13009 -0.03800
C 	C 	0.15280 0.35750 0.14373 0.02800
C 	C 	0.11390 0.32570 0.15805 -0.09100
H 	H 	0.08010 0.32420 0.15780 0.07100
C 	C 	0.12270 0.29810 0.17172 0.02000
C 	C 	0.18460 0.42080 0.11644 0.02300
C 	C 	0.17770 0.45460 0.10186 -0.08400
H 	H 	0.14480 0.45490 0.10160 0.06700
C 	C 	0.21630 0.48500 0.08884 0.01300
C 	C 	0.78050 0.47410 0.03407 0.08300
H 	H 	0.80370 0.46310 0.03950 0.01900
C 	C 	0.79260 0.50250 0.01622 -0.16800
H 	H 	0.82510 0.51100 0.00990 0.09000
C 	C 	0.76450 0.61630 0.94983 0.02200
C 	C 	0.71010 0.59660 0.95690 -0.06900
H 	H 	0.69840 0.57380 0.96770 0.05700
C 	C 	0.67720 0.60960 0.94890 -0.02500
H 	H 	0.64170 0.59510 0.95360 0.03700
C 	C 	0.69460 0.64600 0.93300 -0.03200
H 	H 	0.67090 0.65710 0.92810 0.04300
C 	C 	0.74330 0.66480 0.92460 -0.06600
H 	H 	0.75150 0.68660 0.91360 0.05800
C 	C 	0.78320 0.65270 0.93190 0.02200
C 	C 	0.85320 0.79190 0.87234 -0.17300
H 	H 	0.81830 0.77940 0.87740 0.09400
C 	C 	0.87330 0.83120 0.85691 0.10600
H 	H 	0.85120 0.84420 0.85200 0.01200
O 	O 	0.48711 0.69716 0.43646 -0.64400
O 	O 	0.45927 0.64226 0.46298 -0.64500
O 	O 	0.42812 0.75499 0.49404 -0.63800
O 	O 	0.42079 0.75711 0.40267 -0.60900
C 	C 	0.49500 0.67370 0.45061 0.52500
C 	C 	0.55216 0.68316 0.45318 -0.21000
C 	C 	0.56317 0.65636 0.46718 0.13600
H 	H 	0.53477 0.63173 0.47513 0.00200
C 	C 	0.61617 0.66463 0.47005 -0.20500
H 	H 	0.62287 0.64593 0.47973 0.10100
C 	C 	0.65797 0.70083 0.45843 0.14900
C 	C 	0.64757 0.73143 0.44505 -0.20000
H 	H 	0.67647 0.75893 0.43813 0.10200
C 	C 	0.59427 0.72113 0.44197 0.13300
H 	H 	0.58737 0.74003 0.43243 0.00100
C 	C 	0.71327 0.71193 0.46017 -0.08800
C 	C 	0.75777 0.71683 0.46216 0.03400
C 	C 	0.81037 0.72043 0.46342 -0.04100
C 	C 	0.81947 0.69083 0.47706 0.02600
C 	C 	0.78057 0.65903 0.49138 -0.09000
H 	H 	0.74677 0.65753 0.49113 0.06800
C 	C 	0.78937 0.63143 0.50505 0.01800
C 	C 	0.85127 0.75413 0.44977 0.02200
C 	C 	0.84437 0.78793 0.43519 -0.08400
H 	H 	0.81147 0.78823 0.43493 0.06600
C 	C 	0.88297 0.81833 0.42217 0.01000
C 	C 	0.44717 0.80743 0.36740 0.08300
H 	H 	0.47037 0.79643 0.37283 0.01900
C 	C 	0.45927 0.83583 0.34955 -0.16800
H 	H 	0.49177 0.84433 0.34323 0.09000
C 	C 	0.43117 0.94963 0.28316 0.01900
C 	C 	0.37677 0.92993 0.29023 -0.05800
H 	H 	0.36507 0.90713 0.30103 0.05300
C 	C 	0.34387 0.94293 0.28223 -0.04200
H 	H 	0.30837 0.92843 0.28693 0.04200
C 	C 	0.36127 0.97933 0.26633 -0.00900
H 	H 	0.33757 0.99043 0.26143 0.03200
C 	C 	0.40997 0.99813 0.25793 -0.09800
H 	H 	0.41817 0.01993 0.24693 0.08000
C 	C 	0.44987 0.98603 0.26523 0.01500
C 	C 	0.51987 0.12523 0.20567 -0.16900
H 	H 	0.48497 0.11273 0.21073 0.09600
C 	C 	0.53997 0.16453 0.19024 0.10400
H 	H 	0.51787 0.17753 0.18533 0.01500
O 	O 	0.15377 0.03050 0.76980 -0.64300
O 	O 	0.12593 0.97560 0.79632 -0.65700
O 	O 	0.09478 0.08833 0.82738 -0.63400
O 	O 	0.08745 0.09045 0.73601 -0.60700
C 	C 	0.16166 0.00704 0.78395 0.53700
C 	C 	0.21882 0.01650 0.78652 -0.20100
C 	C 	0.22983 0.98970 0.80052 0.12700
H 	H 	0.20143 0.96507 0.80847 0.00300
C 	C 	0.28283 0.99797 0.80339 -0.22400
H 	H 	0.28953 0.97927 0.81307 0.10500
C 	C 	0.32463 0.03417 0.79177 0.16900
C 	C 	0.31423 0.06477 0.77839 -0.20700
H 	H 	0.34313 0.09227 0.77147 0.10500
C 	C 	0.26093 0.05447 0.77531 0.13600
H 	H 	0.25403 0.07337 0.76577 0.00100
C 	C 	0.37993 0.04527 0.79351 -0.09300
C 	C 	0.42443 0.05017 0.79550 0.04400
C 	C 	0.47703 0.05377 0.79676 -0.04600
C 	C 	0.48613 0.02417 0.81040 0.04100
C 	C 	0.44723 0.99237 0.82472 -0.10700
H 	H 	0.41343 0.99087 0.82447 0.07000
C 	C 	0.45603 0.96477 0.83839 0.02000
C 	C 	0.51793 0.08747 0.78311 0.02600
C 	C 	0.51103 0.12127 0.76853 -0.08500
H 	H 	0.47813 0.12157 0.76827 0.06700
C 	C 	0.54963 0.15167 0.75551 0.01300
C 	C 	0.11383 0.14077 0.70074 0.10300
H 	H 	0.13703 0.12977 0.70617 0.01500
C 	C 	0.12593 0.16917 0.68289 -0.18600
H 	H 	0.15843 0.17767 0.67657 0.09800
C 	C 	0.09783 0.28297 0.61650 0.05300
C 	C 	0.04343 0.26327 0.62357 -0.12600
H 	H 	0.03173 0.24047 0.63437 0.08000
C 	C 	0.01053 0.27627 0.61557 0.05800
H 	H 	0.97503 0.26177 0.62027 -0.00100
C 	C 	0.02793 0.31267 0.59967 -0.08800
H 	H 	0.00423 0.32377 0.59477 0.06800
C 	C 	0.07663 0.33147 0.59127 -0.02400
H 	H 	0.08483 0.35327 0.58027 0.04500
C 	C 	0.11653 0.31937 0.59857 -0.00300
C 	C 	0.18653 0.45857 0.53901 -0.16900
H 	H 	0.15163 0.44607 0.54407 0.09500
C 	C 	0.20663 0.49787 0.52358 0.10400
H 	H 	0.18453 0.51087 0.51867 0.01500
O 	O 	0.63617 0.45661 0.10313 -0.64400
O 	O 	0.69107 0.48367 0.12965 -0.64500
O 	O 	0.57834 0.33979 0.16071 -0.63700
O 	O 	0.57622 0.33034 0.06934 -0.60900
C 	C 	0.65963 0.48796 0.11728 0.52400
C 	C 	0.65017 0.53566 0.11985 -0.21100
C 	C 	0.67697 0.57347 0.13385 0.13600
H 	H 	0.70160 0.56970 0.14180 0.00200
C 	C 	0.66870 0.61820 0.13672 -0.20600
H 	H 	0.68740 0.64360 0.14640 0.10100
C 	C 	0.63250 0.62380 0.12510 0.15000
C 	C 	0.60190 0.58280 0.11172 -0.20100
H 	H 	0.57440 0.58420 0.10480 0.10300
C 	C 	0.61220 0.53980 0.10864 0.13300
H 	H 	0.59330 0.51400 0.09910 0.00100
C 	C 	0.62140 0.66800 0.12684 -0.08800
C 	C 	0.61650 0.70760 0.12883 0.03500
C 	C 	0.61290 0.75660 0.13009 -0.04100
C 	C 	0.64250 0.79530 0.14373 0.02800
C 	C 	0.67430 0.78820 0.15805 -0.09000
H 	H 	0.67580 0.75590 0.15780 0.06800
C 	C 	0.70190 0.82460 0.17172 0.01900
C 	C 	0.57920 0.76380 0.11644 0.02400
C 	C 	0.54540 0.72310 0.10186 -0.08400
H 	H 	0.54510 0.68990 0.10160 0.06700
C 	C 	0.51500 0.73130 0.08884 0.01200
C 	C 	0.52590 0.30640 0.03407 0.08400
H 	H 	0.53690 0.34060 0.03950 0.02000
C 	C 	0.49750 0.29010 0.01622 -0.16800
H 	H 	0.48900 0.31410 0.00990 0.09100
C 	C 	0.38370 0.14820 0.94983 0.02300
C 	C 	0.40340 0.11350 0.95690 -0.06900
H 	H 	0.42620 0.12460 0.96770 0.05800
C 	C 	0.39040 0.06760 0.94890 -0.02200
H 	H 	0.40490 0.04660 0.95360 0.03900
C 	C 	0.35400 0.04860 0.93300 -0.03200
H 	H 	0.34290 0.01380 0.92810 0.04800
C 	C 	0.33520 0.07850 0.92460 -0.06400
H 	H 	0.31340 0.06490 0.91360 0.06000
C 	C 	0.34730 0.13050 0.93190 0.02200
C 	C 	0.20810 0.06130 0.87234 -0.16800
H 	H 	0.22060 0.03890 0.87740 0.09700
C 	C 	0.16880 0.04210 0.85691 0.10400
H 	H 	0.15580 0.00700 0.85200 0.01900
O 	O 	0.30284 0.78994 0.43646 -0.64300
O 	O 	0.35774 0.81700 0.46298 -0.64500
O 	O 	0.24501 0.67312 0.49404 -0.63700
O 	O 	0.24289 0.66367 0.40267 -0.60900
C 	C 	0.32630 0.82129 0.45061 0.52100
C 	C 	0.31684 0.86899 0.45318 -0.20000
C 	C 	0.34364 0.90680 0.46718 0.12100
H 	H 	0.36827 0.90303 0.47513 0.00600
C 	C 	0.33537 0.95153 0.47005 -0.18600
H 	H 	0.35407 0.97693 0.47973 0.09000
C 	C 	0.29917 0.95713 0.45843 0.12000
C 	C 	0.26857 0.91613 0.44505 -0.18200
H 	H 	0.24107 0.91753 0.43813 0.09300
C 	C 	0.27887 0.87313 0.44197 0.11900
H 	H 	0.25997 0.84733 0.43243 0.00600
C 	C 	0.28807 0.00133 0.46017 -0.06100
C 	C 	0.28317 0.04093 0.46216 0.02500
C 	C 	0.27957 0.08993 0.46342 -0.03400
C 	C 	0.30917 0.12863 0.47706 0.02600
C 	C 	0.34097 0.12153 0.49138 -0.08900
H 	H 	0.34247 0.08923 0.49113 0.06900
C 	C 	0.36857 0.15793 0.50505 0.01900
C 	C 	0.24587 0.09713 0.44977 0.02300
C 	C 	0.21207 0.05643 0.43519 -0.08400
H 	H 	0.21177 0.02323 0.43493 0.07000
C 	C 	0.18167 0.06463 0.42217 0.01700
C 	C 	0.19257 0.63973 0.36740 0.08400
H 	H 	0.20357 0.67393 0.37283 0.02000
C 	C 	0.16417 0.62343 0.34955 -0.16800
H 	H 	0.15567 0.64743 0.34323 0.09200
C 	C 	0.05037 0.48153 0.28316 0.02500
C 	C 	0.07007 0.44683 0.29023 -0.07800
H 	H 	0.09287 0.45793 0.30103 0.06100
C 	C 	0.05707 0.40093 0.28223 -0.00900
H 	H 	0.07157 0.37993 0.28693 0.03300
C 	C 	0.02067 0.38193 0.26633 -0.05200
H 	H 	0.00957 0.34713 0.26143 0.05400
C 	C 	0.00187 0.41183 0.25793 -0.03600
H 	H 	0.98007 0.39823 0.24693 0.04000
C 	C 	0.01397 0.46383 0.26523 0.02800
C 	C 	0.87477 0.39463 0.20567 -0.17200
H 	H 	0.88727 0.37223 0.21073 0.09400
C 	C 	0.83547 0.37543 0.19024 0.10500
H 	H 	0.82247 0.34033 0.18533 0.01400
O 	O 	0.96950 0.12328 0.76980 -0.64400
O 	O 	0.02440 0.15034 0.79632 -0.63000
O 	O 	0.91167 0.00646 0.82738 -0.63400
O 	O 	0.90955 0.99701 0.73601 -0.61800
C 	C 	0.99296 0.15463 0.78395 0.51000
C 	C 	0.98350 0.20233 0.78652 -0.22000
C 	C 	0.01030 0.24014 0.80052 0.14700
H 	H 	0.03493 0.23637 0.80847 0.00200
C 	C 	0.00203 0.28487 0.80339 -0.18400
H 	H 	0.02073 0.31027 0.81307 0.09800
C 	C 	0.96583 0.29047 0.79177 0.12800
C 	C 	0.93523 0.24947 0.77839 -0.19300
H 	H 	0.90773 0.25087 0.77147 0.10000
C 	C 	0.94553 0.20647 0.77531 0.13000
H 	H 	0.92663 0.18067 0.76577 0.00100
C 	C 	0.95473 0.33467 0.79351 -0.08200
C 	C 	0.94983 0.37427 0.79550 0.02400
C 	C 	0.94623 0.42327 0.79676 -0.03600
C 	C 	0.97583 0.46197 0.81040 0.01300
C 	C 	0.00763 0.45487 0.82472 -0.07100
H 	H 	0.00913 0.42257 0.82447 0.06600
C 	C 	0.03523 0.49127 0.83839 0.01600
C 	C 	0.91253 0.43047 0.78311 0.02100
C 	C 	0.87873 0.38977 0.76853 -0.08400
H 	H 	0.87843 0.35657 0.76827 0.06700
C 	C 	0.84833 0.39797 0.75551 0.01200
C 	C 	0.85923 0.97307 0.70074 0.04600
H 	H 	0.87023 0.00727 0.70617 0.04000
C 	C 	0.83083 0.95677 0.68289 -0.14600
H 	H 	0.82233 0.98077 0.67657 0.07900
C 	C 	0.71703 0.81487 0.61650 0.01100
C 	C 	0.73673 0.78017 0.62357 -0.05800
H 	H 	0.75953 0.79127 0.63437 0.05200
C 	C 	0.72373 0.73427 0.61557 -0.03500
H 	H 	0.73823 0.71327 0.62027 0.04000
C 	C 	0.68733 0.71527 0.59967 -0.02300
H 	H 	0.67623 0.68047 0.59477 0.04000
C 	C 	0.66853 0.74517 0.59127 -0.07500
H 	H 	0.64673 0.73157 0.58027 0.06200
C 	C 	0.68063 0.79717 0.59857 0.03200
C 	C 	0.54143 0.72797 0.53901 -0.17200
H 	H 	0.55393 0.70557 0.54407 0.09500
C 	C 	0.50213 0.70877 0.52358 0.10600
H 	H 	0.48913 0.67367 0.51867 0.01400
O 	O 	0.82044 0.45661 0.10313 -0.64500
O 	O 	0.79260 0.48367 0.12965 -0.64600
O 	O 	0.76145 0.33979 0.16071 -0.63700
O 	O 	0.75412 0.33034 0.06934 -0.60900
C 	C 	0.82833 0.48796 0.11728 0.52700
C 	C 	0.88549 0.53566 0.11985 -0.21800
C 	C 	0.89650 0.57347 0.13385 0.14000
H 	H 	0.86810 0.56970 0.14180 0.00000
C 	C 	0.94950 0.61820 0.13672 -0.20700
H 	H 	0.95620 0.64360 0.14640 0.09900
C 	C 	0.99130 0.62380 0.12510 0.14500
C 	C 	0.98090 0.58280 0.11172 -0.22800
H 	H 	0.00980 0.58420 0.10480 0.12000
C 	C 	0.92760 0.53980 0.10864 0.14800
H 	H 	0.92070 0.51400 0.09910 -0.00600
C 	C 	0.04660 0.66800 0.12684 -0.07500
C 	C 	0.09110 0.70760 0.12883 0.03000
C 	C 	0.14370 0.75660 0.13009 -0.03800
C 	C 	0.15280 0.79530 0.14373 0.02800
C 	C 	0.11390 0.78820 0.15805 -0.09100
H 	H 	0.08010 0.75590 0.15780 0.07000
C 	C 	0.12270 0.82460 0.17172 0.02100
C 	C 	0.18460 0.76380 0.11644 0.02300
C 	C 	0.17770 0.72310 0.10186 -0.08400
H 	H 	0.14480 0.68990 0.10160 0.06700
C 	C 	0.21630 0.73130 0.08884 0.01300
C 	C 	0.78050 0.30640 0.03407 0.08300
H 	H 	0.80370 0.34060 0.03950 0.01900
C 	C 	0.79260 0.29010 0.01622 -0.16800
H 	H 	0.82510 0.31410 0.00990 0.09000
C 	C 	0.76450 0.14820 0.94983 0.02300
C 	C 	0.71010 0.11350 0.95690 -0.06900
H 	H 	0.69840 0.12460 0.96770 0.05800
C 	C 	0.67720 0.06760 0.94890 -0.02300
H 	H 	0.64170 0.04660 0.95360 0.03900
C 	C 	0.69460 0.04860 0.93300 -0.03200
H 	H 	0.67090 0.01380 0.92810 0.04700
C 	C 	0.74330 0.07850 0.92460 -0.06400
H 	H 	0.75150 0.06490 0.91360 0.06000
C 	C 	0.78320 0.13050 0.93190 0.02200
C 	C 	0.85320 0.06130 0.87234 -0.17000
H 	H 	0.81830 0.03890 0.87740 0.09600
C 	C 	0.87330 0.04210 0.85691 0.10500
H 	H 	0.85120 0.00700 0.85200 0.01700
O 	O 	0.48711 0.78994 0.43646 -0.64300
O 	O 	0.45927 0.81700 0.46298 -0.64500
O 	O 	0.42812 0.67312 0.49404 -0.63800
O 	O 	0.42079 0.66367 0.40267 -0.60900
C 	C 	0.49500 0.82129 0.45061 0.52100
C 	C 	0.55216 0.86899 0.45318 -0.20100
C 	C 	0.56317 0.90680 0.46718 0.12200
H 	H 	0.53477 0.90303 0.47513 0.00500
C 	C 	0.61617 0.95153 0.47005 -0.18700
H 	H 	0.62287 0.97693 0.47973 0.09100
C 	C 	0.65797 0.95713 0.45843 0.12100
C 	C 	0.64757 0.91613 0.44505 -0.18300
H 	H 	0.67647 0.91753 0.43813 0.09300
C 	C 	0.59427 0.87313 0.44197 0.11900
H 	H 	0.58737 0.84733 0.43243 0.00500
C 	C 	0.71327 0.00133 0.46017 -0.06300
C 	C 	0.75777 0.04093 0.46216 0.02400
C 	C 	0.81037 0.08993 0.46342 -0.03400
C 	C 	0.81947 0.12863 0.47706 0.02500
C 	C 	0.78057 0.12153 0.49138 -0.08800
H 	H 	0.74677 0.08923 0.49113 0.06900
C 	C 	0.78937 0.15793 0.50505 0.01800
C 	C 	0.85127 0.09713 0.44977 0.02200
C 	C 	0.84437 0.05643 0.43519 -0.08400
H 	H 	0.81147 0.02323 0.43493 0.06900
C 	C 	0.88297 0.06463 0.42217 0.01400
C 	C 	0.44717 0.63973 0.36740 0.08400
H 	H 	0.47037 0.67393 0.37283 0.02000
C 	C 	0.45927 0.62343 0.34955 -0.16800
H 	H 	0.49177 0.64743 0.34323 0.09100
C 	C 	0.43117 0.48153 0.28316 0.02200
C 	C 	0.37677 0.44683 0.29023 -0.06900
H 	H 	0.36507 0.45793 0.30103 0.05700
C 	C 	0.34387 0.40093 0.28223 -0.02400
H 	H 	0.30837 0.37993 0.28693 0.03800
C 	C 	0.36127 0.38193 0.26633 -0.03200
H 	H 	0.33757 0.34713 0.26143 0.04400
C 	C 	0.40997 0.41183 0.25793 -0.06500
H 	H 	0.41817 0.39823 0.24693 0.05900
C 	C 	0.44987 0.46383 0.26523 0.02200
C 	C 	0.51987 0.39463 0.20567 -0.17100
H 	H 	0.48497 0.37223 0.21073 0.09500
C 	C 	0.53997 0.37543 0.19024 0.10500
H 	H 	0.51787 0.34033 0.18533 0.01400
O 	O 	0.15377 0.12328 0.76980 -0.64300
O 	O 	0.12593 0.15034 0.79632 -0.64400
O 	O 	0.09478 0.00646 0.82738 -0.62900
O 	O 	0.08745 0.99701 0.73601 -0.61600
C 	C 	0.16166 0.15463 0.78395 0.52400
C 	C 	0.21882 0.20233 0.78652 -0.21000
C 	C 	0.22983 0.24014 0.80052 0.13600
H 	H 	0.20143 0.23637 0.80847 0.00300
C 	C 	0.28283 0.28487 0.80339 -0.20500
H 	H 	0.28953 0.31027 0.81307 0.10100
C 	C 	0.32463 0.29047 0.79177 0.15000
C 	C 	0.31423 0.24947 0.77839 -0.20000
H 	H 	0.34313 0.25087 0.77147 0.10300
C 	C 	0.26093 0.20647 0.77531 0.13300
H 	H 	0.25403 0.18067 0.76577 0.00200
C 	C 	0.37993 0.33467 0.79351 -0.08800
C 	C 	0.42443 0.37427 0.79550 0.03500
C 	C 	0.47703 0.42327 0.79676 -0.04100
C 	C 	0.48613 0.46197 0.81040 0.02800
C 	C 	0.44723 0.45487 0.82472 -0.09000
H 	H 	0.41343 0.42257 0.82447 0.06800
C 	C 	0.45603 0.49127 0.83839 0.01800
C 	C 	0.51793 0.43047 0.78311 0.02400
C 	C 	0.51103 0.38977 0.76853 -0.08400
H 	H 	0.47813 0.35657 0.76827 0.06700
C 	C 	0.54963 0.39797 0.75551 0.01300
C 	C 	0.11383 0.97307 0.70074 0.06000
H 	H 	0.13703 0.00727 0.70617 0.03800
C 	C 	0.12593 0.95677 0.68289 -0.15900
H 	H 	0.15843 0.98077 0.67657 0.08500
C 	C 	0.09783 0.81487 0.61650 0.03900
C 	C 	0.04343 0.78017 0.62357 -0.11200
H 	H 	0.03173 0.79127 0.63437 0.07400
C 	C 	0.01053 0.73427 0.61557 0.04200
H 	H 	0.97503 0.71327 0.62027 0.00400
C 	C 	0.02793 0.71527 0.59967 -0.07500
H 	H 	0.00423 0.68047 0.59477 0.06300
C 	C 	0.07663 0.74517 0.59127 -0.03600
H 	H 	0.08483 0.73157 0.58027 0.05000
C 	C 	0.11653 0.79717 0.59857 0.00900
C 	C 	0.18653 0.72797 0.53901 -0.17000
H 	H 	0.15163 0.70557 0.54407 0.09600
C 	C 	0.20663 0.70877 0.52358 0.10500
H 	H 	0.18453 0.67367 0.51867 0.01500
O 	O 	0.63617 0.17956 0.10313 -0.64200
O 	O 	0.69107 0.20740 0.12965 -0.64400
O 	O 	0.57834 0.23855 0.16071 -0.63700
O 	O 	0.57622 0.24588 0.06934 -0.60900
C 	C 	0.65963 0.17167 0.11728 0.52200
C 	C 	0.65017 0.11451 0.11985 -0.20300
C 	C 	0.67697 0.10350 0.13385 0.13300
H 	H 	0.70160 0.13190 0.14180 0.00300
C 	C 	0.66870 0.05050 0.13672 -0.20500
H 	H 	0.68740 0.04380 0.14640 0.10400
C 	C 	0.63250 0.00870 0.12510 0.15600
C 	C 	0.60190 0.01910 0.11172 -0.17100
H 	H 	0.57440 0.99020 0.10480 0.08400
C 	C 	0.61220 0.07240 0.10864 0.11800
H 	H 	0.59330 0.07930 0.09910 0.00900
C 	C 	0.62140 0.95340 0.12684 -0.10200
C 	C 	0.61650 0.90890 0.12883 0.04000
C 	C 	0.61290 0.85630 0.13009 -0.04400
C 	C 	0.64250 0.84720 0.14373 0.02800
C 	C 	0.67430 0.88610 0.15805 -0.08900
H 	H 	0.67580 0.91990 0.15780 0.06500
C 	C 	0.70190 0.87730 0.17172 0.01600
C 	C 	0.57920 0.81540 0.11644 0.02500
C 	C 	0.54540 0.82230 0.10186 -0.08500
H 	H 	0.54510 0.85520 0.10160 0.06600
C 	C 	0.51500 0.78370 0.08884 0.01200
C 	C 	0.52590 0.21950 0.03407 0.08400
H 	H 	0.53690 0.19630 0.03950 0.02100
C 	C 	0.49750 0.20740 0.01622 -0.16800
H 	H 	0.48900 0.17490 0.00990 0.09200
C 	C 	0.38370 0.23550 0.94983 0.02300
C 	C 	0.40340 0.28990 0.95690 -0.06900
H 	H 	0.42620 0.30160 0.96770 0.05700
C 	C 	0.39040 0.32280 0.94890 -0.02400
H 	H 	0.40490 0.35830 0.95360 0.03700
C 	C 	0.35400 0.30540 0.93300 -0.03200
H 	H 	0.34290 0.32910 0.92810 0.04400
C 	C 	0.33520 0.25670 0.92460 -0.06400
H 	H 	0.31340 0.24850 0.91360 0.05900
C 	C 	0.34730 0.21680 0.93190 0.02200
C 	C 	0.20810 0.14680 0.87234 -0.16800
H 	H 	0.22060 0.18170 0.87740 0.09500
C 	C 	0.16880 0.12670 0.85691 0.10400
H 	H 	0.15580 0.14880 0.85200 0.01600
O 	O 	0.30284 0.51289 0.43646 -0.64300
O 	O 	0.35774 0.54073 0.46298 -0.64500
O 	O 	0.24501 0.57188 0.49404 -0.63700
O 	O 	0.24289 0.57921 0.40267 -0.60900
C 	C 	0.32630 0.50500 0.45061 0.52500
C 	C 	0.31684 0.44784 0.45318 -0.21100
C 	C 	0.34364 0.43683 0.46718 0.13700
H 	H 	0.36827 0.46523 0.47513 0.00200
C 	C 	0.33537 0.38383 0.47005 -0.20600
H 	H 	0.35407 0.37713 0.47973 0.10200
C 	C 	0.29917 0.34203 0.45843 0.15000
C 	C 	0.26857 0.35243 0.44505 -0.20100
H 	H 	0.24107 0.32353 0.43813 0.10400
C 	C 	0.27887 0.40573 0.44197 0.13400
H 	H 	0.25997 0.41263 0.43243 0.00100
C 	C 	0.28807 0.28673 0.46017 -0.08800
C 	C 	0.28317 0.24223 0.46216 0.03600
C 	C 	0.27957 0.18963 0.46342 -0.04200
C 	C 	0.30917 0.18053 0.47706 0.02900
C 	C 	0.34097 0.21943 0.49138 -0.09000
H 	H 	0.34247 0.25323 0.49113 0.06800
C 	C 	0.36857 0.21063 0.50505 0.01900
C 	C 	0.24587 0.14873 0.44977 0.02500
C 	C 	0.21207 0.15563 0.43519 -0.08500
H 	H 	0.21177 0.18853 0.43493 0.06800
C 	C 	0.18167 0.11703 0.42217 0.01500
C 	C 	0.19257 0.55283 0.36740 0.08400
H 	H 	0.20357 0.52963 0.37283 0.02000
C 	C 	0.16417 0.54073 0.34955 -0.16800
H 	H 	0.15567 0.50823 0.34323 0.09200
C 	C 	0.05037 0.56883 0.28316 0.02500
C 	C 	0.07007 0.62323 0.29023 -0.07800
H 	H 	0.09287 0.63493 0.30103 0.06100
C 	C 	0.05707 0.65613 0.28223 -0.01000
H 	H 	0.07157 0.69163 0.28693 0.03300
C 	C 	0.02067 0.63873 0.26633 -0.05100
H 	H 	0.00957 0.66243 0.26143 0.05300
C 	C 	0.00187 0.59003 0.25793 -0.03800
H 	H 	0.98007 0.58183 0.24693 0.04100
C 	C 	0.01397 0.55013 0.26523 0.02900
C 	C 	0.87477 0.48013 0.20567 -0.17200
H 	H 	0.88727 0.51503 0.21073 0.09400
C 	C 	0.83547 0.46003 0.19024 0.10500
H 	H 	0.82247 0.48213 0.18533 0.01400
O 	O 	0.96950 0.84623 0.76980 -0.64500
O 	O 	0.02440 0.87407 0.79632 -0.63200
O 	O 	0.91167 0.90522 0.82738 -0.64300
O 	O 	0.90955 0.91255 0.73601 -0.61300
C 	C 	0.99296 0.83834 0.78395 0.51200
C 	C 	0.98350 0.78118 0.78652 -0.22000
C 	C 	0.01030 0.77017 0.80052 0.14700
H 	H 	0.03493 0.79857 0.80847 0.00100
C 	C 	0.00203 0.71717 0.80339 -0.18500
H 	H 	0.02073 0.71047 0.81307 0.09800
C 	C 	0.96583 0.67537 0.79177 0.12900
C 	C 	0.93523 0.68577 0.77839 -0.19400
H 	H 	0.90773 0.65687 0.77147 0.10000
C 	C 	0.94553 0.73907 0.77531 0.13100
H 	H 	0.92663 0.74597 0.76577 0.00100
C 	C 	0.95473 0.62007 0.79351 -0.08200
C 	C 	0.94983 0.57557 0.79550 0.02500
C 	C 	0.94623 0.52297 0.79676 -0.03600
C 	C 	0.97583 0.51387 0.81040 0.01300
C 	C 	0.00763 0.55277 0.82472 -0.07100
H 	H 	0.00913 0.58657 0.82447 0.06600
C 	C 	0.03523 0.54397 0.83839 0.01600
C 	C 	0.91253 0.48207 0.78311 0.02100
C 	C 	0.87873 0.48897 0.76853 -0.08400
H 	H 	0.87843 0.52187 0.76827 0.06700
C 	C 	0.84833 0.45037 0.75551 0.01200
C 	C 	0.85923 0.88617 0.70074 0.06800
H 	H 	0.87023 0.86297 0.70617 0.02400
C 	C 	0.83083 0.87407 0.68289 -0.15400
H 	H 	0.82233 0.84157 0.67657 0.08500
C 	C 	0.71703 0.90217 0.61650 -0.00400
C 	C 	0.73673 0.95657 0.62357 -0.02100
H 	H 	0.75953 0.96827 0.63437 0.03700
C 	C 	0.72373 0.98947 0.61557 -0.09400
H 	H 	0.73823 0.02497 0.62027 0.06900
C 	C 	0.68733 0.97207 0.59967 0.01500
H 	H 	0.67623 0.99577 0.59477 0.02400
C 	C 	0.66853 0.92337 0.59127 -0.10000
H 	H 	0.64673 0.91517 0.58027 0.07000
C 	C 	0.68063 0.88347 0.59857 0.04300
C 	C 	0.54143 0.81347 0.53901 -0.17200
H 	H 	0.55393 0.84837 0.54407 0.09400
C 	C 	0.50213 0.79337 0.52358 0.10500
H 	H 	0.48913 0.81547 0.51867 0.01300
O 	O 	0.54339 0.36383 0.10313 -0.64300
O 	O 	0.51633 0.30893 0.12965 -0.64500
O 	O 	0.66021 0.42166 0.16071 -0.63700
O 	O 	0.66966 0.42378 0.06934 -0.60900
C 	C 	0.51204 0.34037 0.11728 0.52500
C 	C 	0.46434 0.34983 0.11985 -0.21000
C 	C 	0.42653 0.32303 0.13385 0.13700
H 	H 	0.43030 0.29840 0.14180 0.00200
C 	C 	0.38180 0.33130 0.13672 -0.20500
H 	H 	0.35640 0.31260 0.14640 0.10200
C 	C 	0.37620 0.36750 0.12510 0.15000
C 	C 	0.41720 0.39810 0.11172 -0.20000
H 	H 	0.41580 0.42560 0.10480 0.10300
C 	C 	0.46020 0.38780 0.10864 0.13400
H 	H 	0.48600 0.40670 0.09910 0.00100
C 	C 	0.33200 0.37860 0.12684 -0.08800
C 	C 	0.29240 0.38350 0.12883 0.03500
C 	C 	0.24340 0.38710 0.13009 -0.04100
C 	C 	0.20470 0.35750 0.14373 0.02800
C 	C 	0.21180 0.32570 0.15805 -0.09000
H 	H 	0.24410 0.32420 0.15780 0.06800
C 	C 	0.17540 0.29810 0.17172 0.01800
C 	C 	0.23620 0.42080 0.11644 0.02400
C 	C 	0.27690 0.45460 0.10186 -0.08400
H 	H 	0.31010 0.45490 0.10160 0.06700
C 	C 	0.26870 0.48500 0.08884 0.01200
C 	C 	0.69360 0.47410 0.03407 0.08300
H 	H 	0.65940 0.46310 0.03950 0.02000
C 	C 	0.70990 0.50250 0.01622 -0.16800
H 	H 	0.68590 0.51100 0.00990 0.09100
C 	C 	0.85180 0.61630 0.94983 0.02100
C 	C 	0.88650 0.59660 0.95690 -0.06900
H 	H 	0.87540 0.57380 0.96770 0.05600
C 	C 	0.93240 0.60960 0.94890 -0.02600
H 	H 	0.95340 0.59510 0.95360 0.03500
C 	C 	0.95140 0.64600 0.93300 -0.03200
H 	H 	0.98620 0.65710 0.92810 0.04000
C 	C 	0.92150 0.66480 0.92460 -0.06700
H 	H 	0.93510 0.68660 0.91360 0.05700
C 	C 	0.86950 0.65270 0.93190 0.02200
C 	C 	0.93870 0.79190 0.87234 -0.17300
H 	H 	0.96110 0.77940 0.87740 0.09300
C 	C 	0.95790 0.83120 0.85691 0.10500
H 	H 	0.99300 0.84420 0.85200 0.00900
O 	O 	0.21006 0.69716 0.43646 -0.64400
O 	O 	0.18300 0.64226 0.46298 -0.64500
O 	O 	0.32688 0.75499 0.49404 -0.63800
O 	O 	0.33633 0.75711 0.40267 -0.60900
C 	C 	0.17871 0.67370 0.45061 0.52800
C 	C 	0.13101 0.68316 0.45318 -0.22000
C 	C 	0.09320 0.65636 0.46718 0.15100
H 	H 	0.09697 0.63173 0.47513 -0.00200
C 	C 	0.04847 0.66463 0.47005 -0.22300
H 	H 	0.02307 0.64593 0.47973 0.11200
C 	C 	0.04287 0.70083 0.45843 0.17700
C 	C 	0.08387 0.73143 0.44505 -0.21700
H 	H 	0.08247 0.75893 0.43813 0.11100
C 	C 	0.12687 0.72113 0.44197 0.14700
H 	H 	0.15267 0.74003 0.43243 -0.00300
C 	C 	0.99867 0.71193 0.46017 -0.11200
C 	C 	0.95907 0.71683 0.46216 0.04400
C 	C 	0.91007 0.72043 0.46342 -0.04700
C 	C 	0.87137 0.69083 0.47706 0.02900
C 	C 	0.87847 0.65903 0.49138 -0.09100
H 	H 	0.91077 0.65753 0.49113 0.06600
C 	C 	0.84207 0.63143 0.50505 0.01800
C 	C 	0.90287 0.75413 0.44977 0.02400
C 	C 	0.94357 0.78793 0.43519 -0.08400
H 	H 	0.97677 0.78823 0.43493 0.06400
C 	C 	0.93537 0.81833 0.42217 0.00800
C 	C 	0.36027 0.80743 0.36740 0.08300
H 	H 	0.32607 0.79643 0.37283 0.02000
C 	C 	0.37657 0.83583 0.34955 -0.16800
H 	H 	0.35257 0.84433 0.34323 0.09000
C 	C 	0.51847 0.94963 0.28316 0.01900
C 	C 	0.55317 0.92993 0.29023 -0.05900
H 	H 	0.54207 0.90713 0.30103 0.05300
C 	C 	0.59907 0.94293 0.28223 -0.04100
H 	H 	0.62007 0.92843 0.28693 0.04200
C 	C 	0.61807 0.97933 0.26633 -0.01000
H 	H 	0.65287 0.99043 0.26143 0.03300
C 	C 	0.58817 0.99813 0.25793 -0.09700
H 	H 	0.60177 0.01993 0.24693 0.07900
C 	C 	0.53617 0.98603 0.26523 0.01400
C 	C 	0.60537 0.12523 0.20567 -0.16900
H 	H 	0.62777 0.11273 0.21073 0.09500
C 	C 	0.62457 0.16453 0.19024 0.10400
H 	H 	0.65967 0.17753 0.18533 0.01400
O 	O 	0.87672 0.03050 0.76980 -0.64400
O 	O 	0.84966 0.97560 0.79632 -0.65700
O 	O 	0.99354 0.08833 0.82738 -0.64500
O 	O 	0.00299 0.09045 0.73601 -0.60100
C 	C 	0.84537 0.00704 0.78395 0.53600
C 	C 	0.79767 0.01650 0.78652 -0.20300
C 	C 	0.75986 0.98970 0.80052 0.12800
H 	H 	0.76363 0.96507 0.80847 0.00200
C 	C 	0.71513 0.99797 0.80339 -0.22400
H 	H 	0.68973 0.97927 0.81307 0.10500
C 	C 	0.70953 0.03417 0.79177 0.16800
C 	C 	0.75053 0.06477 0.77839 -0.20700
H 	H 	0.74913 0.09227 0.77147 0.10500
C 	C 	0.79353 0.05447 0.77531 0.13600
H 	H 	0.81933 0.07337 0.76577 0.00000
C 	C 	0.66533 0.04527 0.79351 -0.09300
C 	C 	0.62573 0.05017 0.79550 0.04300
C 	C 	0.57673 0.05377 0.79676 -0.04500
C 	C 	0.53803 0.02417 0.81040 0.04100
C 	C 	0.54513 0.99237 0.82472 -0.10700
H 	H 	0.57743 0.99087 0.82447 0.07000
C 	C 	0.50873 0.96477 0.83839 0.02000
C 	C 	0.56953 0.08747 0.78311 0.02600
C 	C 	0.61023 0.12127 0.76853 -0.08500
H 	H 	0.64343 0.12157 0.76827 0.06700
C 	C 	0.60203 0.15167 0.75551 0.01300
C 	C 	0.02693 0.14077 0.70074 0.13100
H 	H 	0.99273 0.12977 0.70617 -0.00600
C 	C 	0.04323 0.16917 0.68289 -0.19700
H 	H 	0.01923 0.17767 0.67657 0.10500
C 	C 	0.18513 0.28297 0.61650 0.03600
C 	C 	0.21983 0.26327 0.62357 -0.08200
H 	H 	0.20873 0.24047 0.63437 0.06200
C 	C 	0.26573 0.27627 0.61557 -0.01100
H 	H 	0.28673 0.26177 0.62027 0.03400
C 	C 	0.28473 0.31267 0.59967 -0.04400
H 	H 	0.31953 0.32377 0.59477 0.04800
C 	C 	0.25483 0.33147 0.59127 -0.05400
H 	H 	0.26843 0.35327 0.58027 0.05500
C 	C 	0.20283 0.31937 0.59857 0.01000
C 	C 	0.27203 0.45857 0.53901 -0.16900
H 	H 	0.29443 0.44607 0.54407 0.09400
C 	C 	0.29123 0.49787 0.52358 0.10400
H 	H 	0.32633 0.51087 0.51867 0.01400
Zr	Zr	0.70816 0.29184 0.13615 3.21400
O 	O 	0.71358 0.28642 0.10366 -1.01900
C 	C 	0.71742 0.28258 0.06190 0.43000
C 	C 	0.73175 0.26825 0.04296 -0.14600
C 	C 	0.75880 0.24120 0.00820 0.13100
C 	C 	0.77320 0.22680 0.98910 -0.07800
C 	C 	0.78500 0.21500 0.97520 0.03300
C 	C 	0.80120 0.19880 0.95716 -0.03700
C 	C 	0.83380 0.16620 0.92486 -0.03700
C 	C 	0.85250 0.14750 0.90771 0.03900
C 	C 	0.86640 0.13360 0.89520 -0.07900
C 	C 	0.88640 0.11360 0.87965 0.13000
Zr	Zr	0.37483 0.62517 0.46949 3.21400
O 	O 	0.38025 0.61975 0.43699 -1.01900
C 	C 	0.38409 0.61591 0.39523 0.43000
C 	C 	0.39842 0.60158 0.37629 -0.14600
C 	C 	0.42547 0.57453 0.34153 0.13100
C 	C 	0.43987 0.56013 0.32243 -0.07800
C 	C 	0.45167 0.54833 0.30853 0.03300
C 	C 	0.46787 0.53213 0.29049 -0.03700
C 	C 	0.50047 0.49953 0.25819 -0.03600
C 	C 	0.51917 0.48083 0.24104 0.03900
C 	C 	0.53307 0.46693 0.22853 -0.07800
C 	C 	0.55307 0.44693 0.21298 0.13000
Zr	Zr	0.04149 0.95851 0.80282 3.21400
O 	O 	0.04691 0.95309 0.77033 -1.02100
C 	C 	0.05075 0.94925 0.72857 0.43000
C 	C 	0.06508 0.93492 0.70963 -0.14700
C 	C 	0.09213 0.90787 0.67487 0.13200
C 	C 	0.10653 0.89347 0.65577 -0.07800
C 	C 	0.11833 0.88167 0.64187 0.03300
C 	C 	0.13453 0.86547 0.62383 -0.03800
C 	C 	0.16713 0.83287 0.59153 -0.03600
C 	C 	0.18583 0.81417 0.57438 0.03900
C 	C 	0.19973 0.80027 0.56187 -0.07800
C 	C 	0.21973 0.78027 0.54632 0.13000
Zr	Zr	0.70816 0.41632 0.13615 3.21400
O 	O 	0.71358 0.42716 0.10366 -1.01900
C 	C 	0.71742 0.43484 0.06190 0.43000
C 	C 	0.73175 0.46350 0.04296 -0.14600
C 	C 	0.75880 0.51760 0.00820 0.13000
C 	C 	0.77320 0.54640 0.98910 -0.07800
C 	C 	0.78500 0.57000 0.97520 0.03200
C 	C 	0.80120 0.60240 0.95716 -0.03700
C 	C 	0.83380 0.66760 0.92486 -0.03700
C 	C 	0.85250 0.70500 0.90771 0.03800
C 	C 	0.86640 0.73280 0.89520 -0.08000
C 	C 	0.88640 0.77280 0.87965 0.13000
Zr	Zr	0.37483 0.74965 0.46949 3.21400
O 	O 	0.38025 0.76049 0.43699 -1.01900
C 	C 	0.38409 0.76817 0.39523 0.43000
C 	C 	0.39842 0.79683 0.37629 -0.14600
C 	C 	0.42547 0.85093 0.34153 0.13000
C 	C 	0.43987 0.87973 0.32243 -0.07800
C 	C 	0.45167 0.90333 0.30853 0.03100
C 	C 	0.46787 0.93573 0.29049 -0.03700
C 	C 	0.50047 0.00093 0.25819 -0.01100
C 	C 	0.51917 0.03833 0.24104 0.03600
C 	C 	0.53307 0.06613 0.22853 -0.07100
C 	C 	0.55307 0.10613 0.21298 0.12900
Zr	Zr	0.04149 0.08299 0.80282 3.21500
O 	O 	0.04691 0.09383 0.77033 -1.01500
C 	C 	0.05075 0.10151 0.72857 0.43800
C 	C 	0.06508 0.13017 0.70963 -0.16500
C 	C 	0.09213 0.18427 0.67487 0.15300
C 	C 	0.10653 0.21307 0.65577 -0.08800
C 	C 	0.11833 0.23667 0.64187 0.04500
C 	C 	0.13453 0.26907 0.62383 -0.05500
C 	C 	0.16713 0.33427 0.59153 -0.02100
C 	C 	0.18583 0.37167 0.57438 0.03300
C 	C 	0.19973 0.39947 0.56187 -0.07400
C 	C 	0.21973 0.43947 0.54632 0.12800
Zr	Zr	0.58368 0.29184 0.13615 3.21400
O 	O 	0.57284 0.28642 0.10366 -1.01900
C 	C 	0.56516 0.28258 0.06190 0.43100
C 	C 	0.53650 0.26825 0.04296 -0.14600
C 	C 	0.48240 0.24120 0.00820 0.13200
C 	C 	0.45360 0.22680 0.98910 -0.07700
C 	C 	0.43000 0.21500 0.97520 0.03300
C 	C 	0.39760 0.19880 0.95716 -0.03700
C 	C 	0.33240 0.16620 0.92486 -0.03600
C 	C 	0.29500 0.14750 0.90771 0.03900
C 	C 	0.26720 0.13360 0.89520 -0.07700
C 	C 	0.22720 0.11360 0.87965 0.13000
Zr	Zr	0.25035 0.62517 0.46949 3.21400
O 	O 	0.23951 0.61975 0.43699 -1.01900
C 	C 	0.23183 0.61591 0.39523 0.43100
C 	C 	0.20317 0.60158 0.37629 -0.14600
C 	C 	0.14907 0.57453 0.34153 0.13200
C 	C 	0.12027 0.56013 0.32243 -0.07700
C 	C 	0.09667 0.54833 0.30853 0.03400
C 	C 	0.06427 0.53213 0.29049 -0.03700
C 	C 	0.99907 0.49953 0.25819 -0.05800
C 	C 	0.96167 0.48083 0.24104 0.04200
C 	C 	0.93387 0.46693 0.22853 -0.08500
C 	C 	0.89387 0.44693 0.21298 0.13100
Zr	Zr	0.91701 0.95851 0.80282 3.21300
O 	O 	0.90617 0.95309 0.77033 -1.02600
C 	C 	0.89849 0.94925 0.72857 0.42300
C 	C 	0.86983 0.93492 0.70963 -0.13100
C 	C 	0.81573 0.90787 0.67487 0.11300
C 	C 	0.78693 0.89347 0.65577 -0.06900
C 	C 	0.76333 0.88167 0.64187 0.02200
C 	C 	0.73093 0.86547 0.62383 -0.02200
C 	C 	0.66573 0.83287 0.59153 -0.04900
C 	C 	0.62833 0.81417 0.57438 0.04400
C 	C 	0.60053 0.80027 0.56187 -0.08200
C 	C 	0.56053 0.78027 0.54632 0.13200
Zr	Zr	0.62514 0.25028 0.09505 3.21400
O 	O 	0.63164 0.26328 0.12423 -1.43800
C 	C 	0.61135 0.22270 0.16661 0.50500
C 	C 	0.59165 0.18330 0.18274 -0.18500
Zr	Zr	0.29181 0.58361 0.42838 3.21400
O 	O 	0.29831 0.59661 0.45756 -1.43700
C 	C 	0.27802 0.55603 0.49994 0.50500
C 	C 	0.25832 0.51663 0.51607 -0.18500
Zr	Zr	0.95847 0.91695 0.76172 3.21200
O 	O 	0.96497 0.92995 0.79090 -1.44800
C 	C 	0.94468 0.88937 0.83328 0.50600
C 	C 	0.92498 0.84997 0.84941 -0.19000
Zr	Zr	0.74972 0.37486 0.09505 3.21400
O 	O 	0.73672 0.36836 0.12423 -1.43800
C 	C 	0.77730 0.38865 0.16661 0.50500
C 	C 	0.81670 0.40835 0.18274 -0.18600
Zr	Zr	0.41639 0.70819 0.42838 3.21400
O 	O 	0.40339 0.70169 0.45756 -1.43700
C 	C 	0.44397 0.72198 0.49994 0.50500
C 	C 	0.48337 0.74168 0.51607 -0.18700
Zr	Zr	0.08305 0.04153 0.76172 3.21500
O 	O 	0.07005 0.03503 0.79090 -1.43200
C 	C 	0.11063 0.05532 0.83328 0.50300
C 	C 	0.15003 0.07502 0.84941 -0.18200
Zr	Zr	0.62514 0.37486 0.09505 3.21400
O 	O 	0.63164 0.36836 0.12423 -1.43800
C 	C 	0.61135 0.38865 0.16661 0.50500
C 	C 	0.59165 0.40835 0.18274 -0.18600
Zr	Zr	0.29181 0.70819 0.42838 3.21400
O 	O 	0.29831 0.70169 0.45756 -1.43700
C 	C 	0.27802 0.72198 0.49994 0.50500
C 	C 	0.25832 0.74168 0.51607 -0.18600
Zr	Zr	0.95847 0.04153 0.76172 3.21300
O 	O 	0.96497 0.03503 0.79090 -1.44100
C 	C 	0.94468 0.05532 0.83328 0.50500
C 	C 	0.92498 0.07502 0.84941 -0.18700
O 	O 	0.66667 0.33333 0.08924 -1.42400
O 	O 	0.66667 0.33333 0.15047 -1.02100
O 	O 	0.33333 0.66667 0.42257 -1.42400
O 	O 	0.33333 0.66667 0.48380 -1.02200
O 	O 	-0.00000 -0.00000 0.75591 -1.40800
O 	O 	0.00000 0.00000 0.81714 -1.00500
O 	O 	0.17956 0.54339 0.89687 -0.64200
O 	O 	0.20740 0.51633 0.87035 -0.64400
O 	O 	0.23855 0.66021 0.83929 -0.63700
O 	O 	0.24588 0.66966 0.93066 -0.60900
C 	C 	0.17167 0.51204 0.88272 0.52200
C 	C 	0.11451 0.46434 0.88015 -0.20300
C 	C 	0.10350 0.42653 0.86615 0.13300
H 	H 	0.13190 0.43030 0.85820 0.00400
C 	C 	0.05050 0.38180 0.86328 -0.20500
H 	H 	0.04380 0.35640 0.85360 0.10500
C 	C 	0.00870 0.37620 0.87490 0.15600
C 	C 	0.01910 0.41720 0.88828 -0.17000
H 	H 	0.99020 0.41580 0.89520 0.08300
C 	C 	0.07240 0.46020 0.89136 0.11800
H 	H 	0.07930 0.48600 0.90090 0.00900
C 	C 	0.95340 0.33200 0.87316 -0.10300
C 	C 	0.90890 0.29240 0.87117 0.04000
C 	C 	0.85630 0.24340 0.86991 -0.04400
C 	C 	0.84720 0.20470 0.85627 0.02800
C 	C 	0.88610 0.21180 0.84195 -0.08900
H 	H 	0.91990 0.24410 0.84220 0.06500
C 	C 	0.87730 0.17540 0.82828 0.01500
C 	C 	0.81540 0.23620 0.88356 0.02500
C 	C 	0.82230 0.27690 0.89814 -0.08500
H 	H 	0.85520 0.31010 0.89840 0.06600
C 	C 	0.78370 0.26870 0.91116 0.01200
C 	C 	0.21950 0.69360 0.96593 0.08400
H 	H 	0.19630 0.65940 0.96050 0.02100
C 	C 	0.20740 0.70990 0.98378 -0.16800
H 	H 	0.17490 0.68590 0.99010 0.09200
C 	C 	0.23550 0.85180 0.05017 0.02200
C 	C 	0.28990 0.88650 0.04310 -0.06900
H 	H 	0.30160 0.87540 0.03230 0.05600
C 	C 	0.32280 0.93240 0.05110 -0.02500
H 	H 	0.35830 0.95340 0.04640 0.03500
C 	C 	0.30540 0.95140 0.06700 -0.03200
H 	H 	0.32910 0.98620 0.07190 0.04000
C 	C 	0.25670 0.92150 0.07540 -0.06600
H 	H 	0.24850 0.93510 0.08640 0.05700
C 	C 	0.21680 0.86950 0.06810 0.02200
C 	C 	0.14680 0.93870 0.12766 -0.17100
H 	H 	0.18170 0.96110 0.12260 0.09300
C 	C 	0.12670 0.95790 0.14309 0.10500
H 	H 	0.14880 0.99300 0.14800 0.01100
O 	O 	0.84623 0.87672 0.23020 -0.64500
O 	O 	0.87407 0.84966 0.20368 -0.64600
O 	O 	0.90522 0.99354 0.17262 -0.64800
O 	O 	0.91255 0.00299 0.26399 -0.60300
C 	C 	0.83834 0.84537 0.21605 0.52500
C 	C 	0.78118 0.79767 0.21348 -0.21100
C 	C 	0.77017 0.75986 0.19948 0.13700
H 	H 	0.79857 0.76363 0.19153 0.00100
C 	C 	0.71717 0.71513 0.19661 -0.20600
H 	H 	0.71047 0.68973 0.18693 0.10100
C 	C 	0.67537 0.70953 0.20823 0.15000
C 	C 	0.68577 0.75053 0.22161 -0.20100
H 	H 	0.65687 0.74913 0.22853 0.10300
C 	C 	0.73907 0.79353 0.22469 0.13400
H 	H 	0.74597 0.81933 0.23423 0.00000
C 	C 	0.62007 0.66533 0.20649 -0.08800
C 	C 	0.57557 0.62573 0.20450 0.03500
C 	C 	0.52297 0.57673 0.20324 -0.04100
C 	C 	0.51387 0.53803 0.18960 0.02800
C 	C 	0.55277 0.54513 0.17528 -0.09000
H 	H 	0.58657 0.57743 0.17553 0.06800
C 	C 	0.54397 0.50873 0.16161 0.01800
C 	C 	0.48207 0.56953 0.21689 0.02400
C 	C 	0.48897 0.61023 0.23147 -0.08400
H 	H 	0.52187 0.64343 0.23173 0.06700
C 	C 	0.45037 0.60203 0.24449 0.01200
C 	C 	0.88617 0.02693 0.29926 0.11000
H 	H 	0.86297 0.99273 0.29383 0.00100
C 	C 	0.87407 0.04323 0.31711 -0.17900
H 	H 	0.84157 0.01923 0.32343 0.09800
C 	C 	0.90217 0.18513 0.38350 0.00700
C 	C 	0.95657 0.21983 0.37643 -0.02900
H 	H 	0.96827 0.20873 0.36563 0.04100
C 	C 	0.98947 0.26573 0.38443 -0.08600
H 	H 	0.02497 0.28673 0.37973 0.06800
C 	C 	0.97207 0.28473 0.40033 0.00700
H 	H 	0.99577 0.31953 0.40523 0.02600
C 	C 	0.92337 0.25483 0.40873 -0.09200
H 	H 	0.91517 0.26843 0.41973 0.06700
C 	C 	0.88347 0.20283 0.40143 0.03300
C 	C 	0.81347 0.27203 0.46099 -0.17100
H 	H 	0.84837 0.29443 0.45593 0.09300
C 	C 	0.79337 0.29123 0.47642 0.10400
H 	H 	0.81547 0.32633 0.48133 0.01300
O 	O 	0.51289 0.21006 0.56354 -0.64400
O 	O 	0.54073 0.18300 0.53702 -0.64500
O 	O 	0.57188 0.32688 0.50596 -0.63800
O 	O 	0.57921 0.33633 0.59733 -0.60900
C 	C 	0.50500 0.17871 0.54939 0.52800
C 	C 	0.44784 0.13101 0.54682 -0.22000
C 	C 	0.43683 0.09320 0.53282 0.15200
H 	H 	0.46523 0.09697 0.52487 -0.00200
C 	C 	0.38383 0.04847 0.52995 -0.22400
H 	H 	0.37713 0.02307 0.52027 0.11300
C 	C 	0.34203 0.04287 0.54157 0.18000
C 	C 	0.35243 0.08387 0.55495 -0.21800
H 	H 	0.32353 0.08247 0.56187 0.11300
C 	C 	0.40573 0.12687 0.55803 0.14800
H 	H 	0.41263 0.15267 0.56757 -0.00300
C 	C 	0.28673 0.99867 0.53983 -0.11300
C 	C 	0.24223 0.95907 0.53784 0.04500
C 	C 	0.18963 0.91007 0.53658 -0.04800
C 	C 	0.18053 0.87137 0.52294 0.03100
C 	C 	0.21943 0.87847 0.50862 -0.09200
H 	H 	0.25323 0.91077 0.50887 0.06700
C 	C 	0.21063 0.84207 0.49495 0.01800
C 	C 	0.14873 0.90287 0.55023 0.02600
C 	C 	0.15563 0.94357 0.56481 -0.08500
H 	H 	0.18853 0.97677 0.56507 0.06500
C 	C 	0.11703 0.93537 0.57783 0.01100
C 	C 	0.55283 0.36027 0.63260 0.08400
H 	H 	0.52963 0.32607 0.62717 0.02000
C 	C 	0.54073 0.37657 0.65045 -0.16800
H 	H 	0.50823 0.35257 0.65677 0.09100
C 	C 	0.56883 0.51847 0.71684 0.02200
C 	C 	0.62323 0.55317 0.70977 -0.06900
H 	H 	0.63493 0.54207 0.69897 0.05700
C 	C 	0.65613 0.59907 0.71777 -0.02400
H 	H 	0.69163 0.62007 0.71307 0.03700
C 	C 	0.63873 0.61807 0.73367 -0.03200
H 	H 	0.66243 0.65287 0.73857 0.04400
C 	C 	0.59003 0.58817 0.74207 -0.06500
H 	H 	0.58183 0.60177 0.75307 0.05800
C 	C 	0.55013 0.53617 0.73477 0.02200
C 	C 	0.48013 0.60537 0.79433 -0.17100
H 	H 	0.51503 0.62777 0.78927 0.09500
C 	C 	0.46003 0.62457 0.80976 0.10500
H 	H 	0.48213 0.65967 0.81467 0.01400
O 	O 	0.36383 0.82044 0.89687 -0.64500
O 	O 	0.30893 0.79260 0.87035 -0.64600
O 	O 	0.42166 0.76145 0.83929 -0.63700
O 	O 	0.42378 0.75412 0.93066 -0.60900
C 	C 	0.34037 0.82833 0.88272 0.52700
C 	C 	0.34983 0.88549 0.88015 -0.21700
C 	C 	0.32303 0.89650 0.86615 0.14000
H 	H 	0.29840 0.86810 0.85820 0.00000
C 	C 	0.33130 0.94950 0.86328 -0.20600
H 	H 	0.31260 0.95620 0.85360 0.09900
C 	C 	0.36750 0.99130 0.87490 0.14400
C 	C 	0.39810 0.98090 0.88828 -0.22800
H 	H 	0.42560 0.00980 0.89520 0.12100
C 	C 	0.38780 0.92760 0.89136 0.14800
H 	H 	0.40670 0.92070 0.90090 -0.00600
C 	C 	0.37860 0.04660 0.87316 -0.07400
C 	C 	0.38350 0.09110 0.87117 0.03000
C 	C 	0.38710 0.14370 0.86991 -0.03800
C 	C 	0.35750 0.15280 0.85627 0.02800
C 	C 	0.32570 0.11390 0.84195 -0.09100
H 	H 	0.32420 0.08010 0.84220 0.07100
C 	C 	0.29810 0.12270 0.82828 0.02000
C 	C 	0.42080 0.18460 0.88356 0.02300
C 	C 	0.45460 0.17770 0.89814 -0.08400
H 	H 	0.45490 0.14480 0.89840 0.06700
C 	C 	0.48500 0.21630 0.91116 0.01300
C 	C 	0.47410 0.78050 0.96593 0.08300
H 	H 	0.46310 0.80370 0.96050 0.01900
C 	C 	0.50250 0.79260 0.98378 -0.16800
H 	H 	0.51100 0.82510 0.99010 0.09000
C 	C 	0.61630 0.76450 0.05017 0.02200
C 	C 	0.59660 0.71010 0.04310 -0.06900
H 	H 	0.57380 0.69840 0.03230 0.05700
C 	C 	0.60960 0.67720 0.05110 -0.02500
H 	H 	0.59510 0.64170 0.04640 0.03700
C 	C 	0.64600 0.69460 0.06700 -0.03200
H 	H 	0.65710 0.67090 0.07190 0.04300
C 	C 	0.66480 0.74330 0.07540 -0.06600
H 	H 	0.68660 0.75150 0.08640 0.05800
C 	C 	0.65270 0.78320 0.06810 0.02200
C 	C 	0.79190 0.85320 0.12766 -0.17300
H 	H 	0.77940 0.81830 0.12260 0.09400
C 	C 	0.83120 0.87330 0.14309 0.10600
H 	H 	0.84420 0.85120 0.14800 0.01200
O 	O 	0.03050 0.15377 0.23020 -0.64300
O 	O 	0.97560 0.12593 0.20368 -0.65700
O 	O 	0.08833 0.09478 0.17262 -0.63400
O 	O 	0.09045 0.08745 0.26399 -0.60700
C 	C 	0.00704 0.16166 0.21605 0.53700
C 	C 	0.01650 0.21882 0.21348 -0.20100
C 	C 	0.98970 0.22983 0.19948 0.12700
H 	H 	0.96507 0.20143 0.19153 0.00300
C 	C 	0.99797 0.28283 0.19661 -0.22400
H 	H 	0.97927 0.28953 0.18693 0.10500
C 	C 	0.03417 0.32463 0.20823 0.16900
C 	C 	0.06477 0.31423 0.22161 -0.20700
H 	H 	0.09227 0.34313 0.22853 0.10500
C 	C 	0.05447 0.26093 0.22469 0.13600
H 	H 	0.07337 0.25403 0.23423 0.00100
C 	C 	0.04527 0.37993 0.20649 -0.09300
C 	C 	0.05017 0.42443 0.20450 0.04400
C 	C 	0.05377 0.47703 0.20324 -0.04600
C 	C 	0.02417 0.48613 0.18960 0.04100
C 	C 	0.99237 0.44723 0.17528 -0.10700
H 	H 	0.99087 0.41343 0.17553 0.07000
C 	C 	0.96477 0.45603 0.16161 0.02000
C 	C 	0.08747 0.51793 0.21689 0.02600
C 	C 	0.12127 0.51103 0.23147 -0.08500
H 	H 	0.12157 0.47813 0.23173 0.06700
C 	C 	0.15167 0.54963 0.24449 0.01300
C 	C 	0.14077 0.11383 0.29926 0.10300
H 	H 	0.12977 0.13703 0.29383 0.01500
C 	C 	0.16917 0.12593 0.31711 -0.18600
H 	H 	0.17767 0.15843 0.32343 0.09800
C 	C 	0.28297 0.09783 0.38350 0.05300
C 	C 	0.26327 0.04343 0.37643 -0.12600
H 	H 	0.24047 0.03173 0.36563 0.08000
C 	C 	0.27627 0.01053 0.38443 0.05800
H 	H 	0.26177 0.97503 0.37973 -0.00100
C 	C 	0.31267 0.02793 0.40033 -0.08800
H 	H 	0.32377 0.00423 0.40523 0.06800
C 	C 	0.33147 0.07663 0.40873 -0.02400
H 	H 	0.35327 0.08483 0.41973 0.04500
C 	C 	0.31937 0.11653 0.40143 -0.00300
C 	C 	0.45857 0.18653 0.46099 -0.16900
H 	H 	0.44607 0.15163 0.45593 0.09500
C 	C 	0.49787 0.20663 0.47642 0.10400
H 	H 	0.51087 0.18453 0.48133 0.01500
O 	O 	0.69716 0.48711 0.56354 -0.64400
O 	O 	0.64226 0.45927 0.53702 -0.64500
O 	O 	0.75499 0.42812 0.50596 -0.63800
O 	O 	0.75711 0.42079 0.59733 -0.60900
C 	C 	0.67370 0.49500 0.54939 0.52500
C 	C 	0.68316 0.55216 0.54682 -0.21000
C 	C 	0.65636 0.56317 0.53282 0.13600
H 	H 	0.63173 0.53477 0.52487 0.00200
C 	C 	0.66463 0.61617 0.52995 -0.20500
H 	H 	0.64593 0.62287 0.52027 0.10100
C 	C 	0.70083 0.65797 0.54157 0.14900
C 	C 	0.73143 0.64757 0.55495 -0.20000
H 	H 	0.75893 0.67647 0.56187 0.10200
C 	C 	0.72113 0.59427 0.55803 0.13300
H 	H 	0.74003 0.58737 0.56757 0.00100
C 	C 	0.71193 0.71327 0.53983 -0.08800
C 	C 	0.71683 0.75777 0.53784 0.03400
C 	C 	0.72043 0.81037 0.53658 -0.04100
C 	C 	0.69083 0.81947 0.52294 0.02600
C 	C 	0.65903 0.78057 0.50862 -0.09000
H 	H 	0.65753 0.74677 0.50887 0.06800
C 	C 	0.63143 0.78937 0.49495 0.01800
C 	C 	0.75413 0.85127 0.55023 0.02200
C 	C 	0.78793 0.84437 0.56481 -0.08400
H 	H 	0.78823 0.81147 0.56507 0.06600
C 	C 	0.81833 0.88297 0.57783 0.01000
C 	C 	0.80743 0.44717 0.63260 0.08300
H 	H 	0.79643 0.47037 0.62717 0.01900
C 	C 	0.83583 0.45927 0.65045 -0.16800
H 	H 	0.84433 0.49177 0.65677 0.09000
C 	C 	0.94963 0.43117 0.71684 0.01900
C 	C 	0.92993 0.37677 0.70977 -0.05800
H 	H 	0.90713 0.36507 0.69897 0.05300
C 	C 	0.94293 0.34387 0.71777 -0.04200
H 	H 	0.92843 0.30837 0.71307 0.04200
C 	C 	0.97933 0.36127 0.73367 -0.00900
H 	H 	0.99043 0.33757 0.73857 0.03200
C 	C 	0.99813 0.40997 0.74207 -0.09800
H 	H 	0.01993 0.41817 0.75307 0.08000
C 	C 	0.98603 0.44987 0.73477 0.01500
C 	C 	0.12523 0.51987 0.79433 -0.16900
H 	H 	0.11273 0.48497 0.78927 0.09600
C 	C 	0.16453 0.53997 0.80976 0.10400
H 	H 	0.17753 0.51787 0.81467 0.01500
O 	O 	0.45661 0.63617 0.89687 -0.64400
O 	O 	0.48367 0.69107 0.87035 -0.64500
O 	O 	0.33979 0.57834 0.83929 -0.63700
O 	O 	0.33034 0.57622 0.93066 -0.60900
C 	C 	0.48796 0.65963 0.88272 0.52400
C 	C 	0.53566 0.65017 0.88015 -0.21100
C 	C 	0.57347 0.67697 0.86615 0.13600
H 	H 	0.56970 0.70160 0.85820 0.00200
C 	C 	0.61820 0.66870 0.86328 -0.20600
H 	H 	0.64360 0.68740 0.85360 0.10100
C 	C 	0.62380 0.63250 0.87490 0.15000
C 	C 	0.58280 0.60190 0.88828 -0.20100
H 	H 	0.58420 0.57440 0.89520 0.10300
C 	C 	0.53980 0.61220 0.89136 0.13300
H 	H 	0.51400 0.59330 0.90090 0.00100
C 	C 	0.66800 0.62140 0.87316 -0.08800
C 	C 	0.70760 0.61650 0.87117 0.03500
C 	C 	0.75660 0.61290 0.86991 -0.04100
C 	C 	0.79530 0.64250 0.85627 0.02800
C 	C 	0.78820 0.67430 0.84195 -0.09000
H 	H 	0.75590 0.67580 0.84220 0.06800
C 	C 	0.82460 0.70190 0.82828 0.01900
C 	C 	0.76380 0.57920 0.88356 0.02400
C 	C 	0.72310 0.54540 0.89814 -0.08400
H 	H 	0.68990 0.54510 0.89840 0.06700
C 	C 	0.73130 0.51500 0.91116 0.01200
C 	C 	0.30640 0.52590 0.96593 0.08400
H 	H 	0.34060 0.53690 0.96050 0.02000
C 	C 	0.29010 0.49750 0.98378 -0.16800
H 	H 	0.31410 0.48900 0.99010 0.09100
C 	C 	0.14820 0.38370 0.05017 0.02300
C 	C 	0.11350 0.40340 0.04310 -0.06900
H 	H 	0.12460 0.42620 0.03230 0.05800
C 	C 	0.06760 0.39040 0.05110 -0.02200
H 	H 	0.04660 0.40490 0.04640 0.03900
C 	C 	0.04860 0.35400 0.06700 -0.03200
H 	H 	0.01380 0.34290 0.07190 0.04800
C 	C 	0.07850 0.33520 0.07540 -0.06400
H 	H 	0.06490 0.31340 0.08640 0.06000
C 	C 	0.13050 0.34730 0.06810 0.02200
C 	C 	0.06130 0.20810 0.12766 -0.16800
H 	H 	0.03890 0.22060 0.12260 0.09700
C 	C 	0.04210 0.16880 0.14309 0.10400
H 	H 	0.00700 0.15580 0.14800 0.01900
O 	O 	0.12328 0.96950 0.23020 -0.64400
O 	O 	0.15034 0.02440 0.20368 -0.63000
O 	O 	0.00646 0.91167 0.17262 -0.63400
O 	O 	0.99701 0.90955 0.26399 -0.61800
C 	C 	0.15463 0.99296 0.21605 0.51000
C 	C 	0.20233 0.98350 0.21348 -0.22000
C 	C 	0.24014 0.01030 0.19948 0.14700
H 	H 	0.23637 0.03493 0.19153 0.00200
C 	C 	0.28487 0.00203 0.19661 -0.18400
H 	H 	0.31027 0.02073 0.18693 0.09800
C 	C 	0.29047 0.96583 0.20823 0.12800
C 	C 	0.24947 0.93523 0.22161 -0.19300
H 	H 	0.25087 0.90773 0.22853 0.10000
C 	C 	0.20647 0.94553 0.22469 0.13000
H 	H 	0.18067 0.92663 0.23423 0.00100
C 	C 	0.33467 0.95473 0.20649 -0.08200
C 	C 	0.37427 0.94983 0.20450 0.02400
C 	C 	0.42327 0.94623 0.20324 -0.03600
C 	C 	0.46197 0.97583 0.18960 0.01300
C 	C 	0.45487 0.00763 0.17528 -0.07100
H 	H 	0.42257 0.00913 0.17553 0.06600
C 	C 	0.49127 0.03523 0.16161 0.01600
C 	C 	0.43047 0.91253 0.21689 0.02100
C 	C 	0.38977 0.87873 0.23147 -0.08400
H 	H 	0.35657 0.87843 0.23173 0.06700
C 	C 	0.39797 0.84833 0.24449 0.01200
C 	C 	0.97307 0.85923 0.29926 0.04600
H 	H 	0.00727 0.87023 0.29383 0.04000
C 	C 	0.95677 0.83083 0.31711 -0.14600
H 	H 	0.98077 0.82233 0.32343 0.07900
C 	C 	0.81487 0.71703 0.38350 0.01100
C 	C 	0.78017 0.73673 0.37643 -0.05800
H 	H 	0.79127 0.75953 0.36563 0.05200
C 	C 	0.73427 0.72373 0.38443 -0.03500
H 	H 	0.71327 0.73823 0.37973 0.04000
C 	C 	0.71527 0.68733 0.40033 -0.02300
H 	H 	0.68047 0.67623 0.40523 0.04000
C 	C 	0.74517 0.66853 0.40873 -0.07500
H 	H 	0.73157 0.64673 0.41973 0.06200
C 	C 	0.79717 0.68063 0.40143 0.03200
C 	C 	0.72797 0.54143 0.46099 -0.17200
H 	H 	0.70557 0.55393 0.45593 0.09500
C 	C 	0.70877 0.50213 0.47642 0.10600
H 	H 	0.67367 0.48913 0.48133 0.01400
O 	O 	0.78994 0.30284 0.56354 -0.64300
O 	O 	0.81700 0.35774 0.53702 -0.64500
O 	O 	0.67312 0.24501 0.50596 -0.63700
O 	O 	0.66367 0.24289 0.59733 -0.60900
C 	C 	0.82129 0.32630 0.54939 0.52100
C 	C 	0.86899 0.31684 0.54682 -0.20000
C 	C 	0.90680 0.34364 0.53282 0.12100
H 	H 	0.90303 0.36827 0.52487 0.00600
C 	C 	0.95153 0.33537 0.52995 -0.18600
H 	H 	0.97693 0.35407 0.52027 0.09000
C 	C 	0.95713 0.29917 0.54157 0.12000
C 	C 	0.91613 0.26857 0.55495 -0.18200
H 	H 	0.91753 0.24107 0.56187 0.09300
C 	C 	0.87313 0.27887 0.55803 0.11900
H 	H 	0.84733 0.25997 0.56757 0.00600
C 	C 	0.00133 0.28807 0.53983 -0.06100
C 	C 	0.04093 0.28317 0.53784 0.02500
C 	C 	0.08993 0.27957 0.53658 -0.03400
C 	C 	0.12863 0.30917 0.52294 0.02600
C 	C 	0.12153 0.34097 0.50862 -0.08900
H 	H 	0.08923 0.34247 0.50887 0.06900
C 	C 	0.15793 0.36857 0.49495 0.01900
C 	C 	0.09713 0.24587 0.55023 0.02300
C 	C 	0.05643 0.21207 0.56481 -0.08400
H 	H 	0.02323 0.21177 0.56507 0.07000
C 	C 	0.06463 0.18167 0.57783 0.01700
C 	C 	0.63973 0.19257 0.63260 0.08400
H 	H 	0.67393 0.20357 0.62717 0.02000
C 	C 	0.62343 0.16417 0.65045 -0.16800
H 	H 	0.64743 0.15567 0.65677 0.09200
C 	C 	0.48153 0.05037 0.71684 0.02500
C 	C 	0.44683 0.07007 0.70977 -0.07800
H 	H 	0.45793 0.09287 0.69897 0.06100
C 	C 	0.40093 0.05707 0.71777 -0.00900
H 	H 	0.37993 0.07157 0.71307 0.03300
C 	C 	0.38193 0.02067 0.73367 -0.05200
H 	H 	0.34713 0.00957 0.73857 0.05400
C 	C 	0.41183 0.00187 0.74207 -0.03600
H 	H 	0.39823 0.98007 0.75307 0.04000
C 	C 	0.46383 0.01397 0.73477 0.02800
C 	C 	0.39463 0.87477 0.79433 -0.17200
H 	H 	0.37223 0.88727 0.78927 0.09400
C 	C 	0.37543 0.83547 0.80976 0.10500
H 	H 	0.34033 0.82247 0.81467 0.01400
O 	O 	0.45661 0.82044 0.89687 -0.64500
O 	O 	0.48367 0.79260 0.87035 -0.64600
O 	O 	0.33979 0.76145 0.83929 -0.63700
O 	O 	0.33034 0.75412 0.93066 -0.60900
C 	C 	0.48796 0.82833 0.88272 0.52700
C 	C 	0.53566 0.88549 0.88015 -0.21800
C 	C 	0.57347 0.89650 0.86615 0.14000
H 	H 	0.56970 0.86810 0.85820 0.00000
C 	C 	0.61820 0.94950 0.86328 -0.20700
H 	H 	0.64360 0.95620 0.85360 0.09900
C 	C 	0.62380 0.99130 0.87490 0.14500
C 	C 	0.58280 0.98090 0.88828 -0.22800
H 	H 	0.58420 0.00980 0.89520 0.12000
C 	C 	0.53980 0.92760 0.89136 0.14800
H 	H 	0.51400 0.92070 0.90090 -0.00600
C 	C 	0.66800 0.04660 0.87316 -0.07500
C 	C 	0.70760 0.09110 0.87117 0.03000
C 	C 	0.75660 0.14370 0.86991 -0.03800
C 	C 	0.79530 0.15280 0.85627 0.02800
C 	C 	0.78820 0.11390 0.84195 -0.09100
H 	H 	0.75590 0.08010 0.84220 0.07000
C 	C 	0.82460 0.12270 0.82828 0.02100
C 	C 	0.76380 0.18460 0.88356 0.02300
C 	C 	0.72310 0.17770 0.89814 -0.08400
H 	H 	0.68990 0.14480 0.89840 0.06700
C 	C 	0.73130 0.21630 0.91116 0.01300
C 	C 	0.30640 0.78050 0.96593 0.08300
H 	H 	0.34060 0.80370 0.96050 0.01900
C 	C 	0.29010 0.79260 0.98378 -0.16800
H 	H 	0.31410 0.82510 0.99010 0.09000
C 	C 	0.14820 0.76450 0.05017 0.02300
C 	C 	0.11350 0.71010 0.04310 -0.06900
H 	H 	0.12460 0.69840 0.03230 0.05800
C 	C 	0.06760 0.67720 0.05110 -0.02300
H 	H 	0.04660 0.64170 0.04640 0.03900
C 	C 	0.04860 0.69460 0.06700 -0.03200
H 	H 	0.01380 0.67090 0.07190 0.04700
C 	C 	0.07850 0.74330 0.07540 -0.06400
H 	H 	0.06490 0.75150 0.08640 0.06000
C 	C 	0.13050 0.78320 0.06810 0.02200
C 	C 	0.06130 0.85320 0.12766 -0.17000
H 	H 	0.03890 0.81830 0.12260 0.09600
C 	C 	0.04210 0.87330 0.14309 0.10500
H 	H 	0.00700 0.85120 0.14800 0.01700
O 	O 	0.12328 0.15377 0.23020 -0.64300
O 	O 	0.15034 0.12593 0.20368 -0.64400
O 	O 	0.00646 0.09478 0.17262 -0.62900
O 	O 	0.99701 0.08745 0.26399 -0.61600
C 	C 	0.15463 0.16166 0.21605 0.52400
C 	C 	0.20233 0.21882 0.21348 -0.21000
C 	C 	0.24014 0.22983 0.19948 0.13600
H 	H 	0.23637 0.20143 0.19153 0.00300
C 	C 	0.28487 0.28283 0.19661 -0.20500
H 	H 	0.31027 0.28953 0.18693 0.10100
C 	C 	0.29047 0.32463 0.20823 0.15000
C 	C 	0.24947 0.31423 0.22161 -0.20000
H 	H 	0.25087 0.34313 0.22853 0.10300
C 	C 	0.20647 0.26093 0.22469 0.13300
H 	H 	0.18067 0.25403 0.23423 0.00200
C 	C 	0.33467 0.37993 0.20649 -0.08800
C 	C 	0.37427 0.42443 0.20450 0.03500
C 	C 	0.42327 0.47703 0.20324 -0.04100
C 	C 	0.46197 0.48613 0.18960 0.02800
C 	C 	0.45487 0.44723 0.17528 -0.09000
H 	H 	0.42257 0.41343 0.17553 0.06800
C 	C 	0.49127 0.45603 0.16161 0.01800
C 	C 	0.43047 0.51793 0.21689 0.02400
C 	C 	0.38977 0.51103 0.23147 -0.08400
H 	H 	0.35657 0.47813 0.23173 0.06700
C 	C 	0.39797 0.54963 0.24449 0.01300
C 	C 	0.97307 0.11383 0.29926 0.06000
H 	H 	0.00727 0.13703 0.29383 0.03800
C 	C 	0.95677 0.12593 0.31711 -0.15900
H 	H 	0.98077 0.15843 0.32343 0.08500
C 	C 	0.81487 0.09783 0.38350 0.03900
C 	C 	0.78017 0.04343 0.37643 -0.11200
H 	H 	0.79127 0.03173 0.36563 0.07400
C 	C 	0.73427 0.01053 0.38443 0.04200
H 	H 	0.71327 0.97503 0.37973 0.00400
C 	C 	0.71527 0.02793 0.40033 -0.07500
H 	H 	0.68047 0.00423 0.40523 0.06300
C 	C 	0.74517 0.07663 0.40873 -0.03600
H 	H 	0.73157 0.08483 0.41973 0.05000
C 	C 	0.79717 0.11653 0.40143 0.00900
C 	C 	0.72797 0.18653 0.46099 -0.17000
H 	H 	0.70557 0.15163 0.45593 0.09600
C 	C 	0.70877 0.20663 0.47642 0.10500
H 	H 	0.67367 0.18453 0.48133 0.01500
O 	O 	0.78994 0.48711 0.56354 -0.64300
O 	O 	0.81700 0.45927 0.53702 -0.64500
O 	O 	0.67312 0.42812 0.50596 -0.63800
O 	O 	0.66367 0.42079 0.59733 -0.60900
C 	C 	0.82129 0.49500 0.54939 0.52100
C 	C 	0.86899 0.55216 0.54682 -0.20100
C 	C 	0.90680 0.56317 0.53282 0.12200
H 	H 	0.90303 0.53477 0.52487 0.00500
C 	C 	0.95153 0.61617 0.52995 -0.18700
H 	H 	0.97693 0.62287 0.52027 0.09100
C 	C 	0.95713 0.65797 0.54157 0.12100
C 	C 	0.91613 0.64757 0.55495 -0.18300
H 	H 	0.91753 0.67647 0.56187 0.09300
C 	C 	0.87313 0.59427 0.55803 0.11900
H 	H 	0.84733 0.58737 0.56757 0.00500
C 	C 	0.00133 0.71327 0.53983 -0.06300
C 	C 	0.04093 0.75777 0.53784 0.02400
C 	C 	0.08993 0.81037 0.53658 -0.03400
C 	C 	0.12863 0.81947 0.52294 0.02500
C 	C 	0.12153 0.78057 0.50862 -0.08800
H 	H 	0.08923 0.74677 0.50887 0.06900
C 	C 	0.15793 0.78937 0.49495 0.01800
C 	C 	0.09713 0.85127 0.55023 0.02200
C 	C 	0.05643 0.84437 0.56481 -0.08400
H 	H 	0.02323 0.81147 0.56507 0.06900
C 	C 	0.06463 0.88297 0.57783 0.01400
C 	C 	0.63973 0.44717 0.63260 0.08400
H 	H 	0.67393 0.47037 0.62717 0.02000
C 	C 	0.62343 0.45927 0.65045 -0.16800
H 	H 	0.64743 0.49177 0.65677 0.09100
C 	C 	0.48153 0.43117 0.71684 0.02200
C 	C 	0.44683 0.37677 0.70977 -0.06900
H 	H 	0.45793 0.36507 0.69897 0.05700
C 	C 	0.40093 0.34387 0.71777 -0.02400
H 	H 	0.37993 0.30837 0.71307 0.03800
C 	C 	0.38193 0.36127 0.73367 -0.03200
H 	H 	0.34713 0.33757 0.73857 0.04400
C 	C 	0.41183 0.40997 0.74207 -0.06500
H 	H 	0.39823 0.41817 0.75307 0.05900
C 	C 	0.46383 0.44987 0.73477 0.02200
C 	C 	0.39463 0.51987 0.79433 -0.17100
H 	H 	0.37223 0.48497 0.78927 0.09500
C 	C 	0.37543 0.53997 0.80976 0.10500
H 	H 	0.34033 0.51787 0.81467 0.01400
O 	O 	0.17956 0.63617 0.89687 -0.64200
O 	O 	0.20740 0.69107 0.87035 -0.64400
O 	O 	0.23855 0.57834 0.83929 -0.63700
O 	O 	0.24588 0.57622 0.93066 -0.60900
C 	C 	0.17167 0.65963 0.88272 0.52200
C 	C 	0.11451 0.65017 0.88015 -0.20300
C 	C 	0.10350 0.67697 0.86615 0.13300
H 	H 	0.13190 0.70160 0.85820 0.00300
C 	C 	0.05050 0.66870 0.86328 -0.20500
H 	H 	0.04380 0.68740 0.85360 0.10400
C 	C 	0.00870 0.63250 0.87490 0.15600
C 	C 	0.01910 0.60190 0.88828 -0.17100
H 	H 	0.99020 0.57440 0.89520 0.08400
C 	C 	0.07240 0.61220 0.89136 0.11800
H 	H 	0.07930 0.59330 0.90090 0.00900
C 	C 	0.95340 0.62140 0.87316 -0.10200
C 	C 	0.90890 0.61650 0.87117 0.04000
C 	C 	0.85630 0.61290 0.86991 -0.04400
C 	C 	0.84720 0.64250 0.85627 0.02800
C 	C 	0.88610 0.67430 0.84195 -0.08900
H 	H 	0.91990 0.67580 0.84220 0.06500
C 	C 	0.87730 0.70190 0.82828 0.01600
C 	C 	0.81540 0.57920 0.88356 0.02500
C 	C 	0.82230 0.54540 0.89814 -0.08500
H 	H 	0.85520 0.54510 0.89840 0.06600
C 	C 	0.78370 0.51500 0.91116 0.01200
C 	C 	0.21950 0.52590 0.96593 0.08400
H 	H 	0.19630 0.53690 0.96050 0.02100
C 	C 	0.20740 0.49750 0.98378 -0.16800
H 	H 	0.17490 0.48900 0.99010 0.09200
C 	C 	0.23550 0.38370 0.05017 0.02300
C 	C 	0.28990 0.40340 0.04310 -0.06900
H 	H 	0.30160 0.42620 0.03230 0.05700
C 	C 	0.32280 0.39040 0.05110 -0.02400
H 	H 	0.35830 0.40490 0.04640 0.03700
C 	C 	0.30540 0.35400 0.06700 -0.03200
H 	H 	0.32910 0.34290 0.07190 0.04400
C 	C 	0.25670 0.33520 0.07540 -0.06400
H 	H 	0.24850 0.31340 0.08640 0.05900
C 	C 	0.21680 0.34730 0.06810 0.02200
C 	C 	0.14680 0.20810 0.12766 -0.16800
H 	H 	0.18170 0.22060 0.12260 0.09500
C 	C 	0.12670 0.16880 0.14309 0.10400
H 	H 	0.14880 0.15580 0.14800 0.01600
O 	O 	0.84623 0.96950 0.23020 -0.64500
O 	O 	0.87407 0.02440 0.20368 -0.63200
O 	O 	0.90522 0.91167 0.17262 -0.64300
O 	O 	0.91255 0.90955 0.26399 -0.61300
C 	C 	0.83834 0.99296 0.21605 0.51200
C 	C 	0.78118 0.98350 0.21348 -0.22000
C 	C 	0.77017 0.01030 0.19948 0.14700
H 	H 	0.79857 0.03493 0.19153 0.00100
C 	C 	0.71717 0.00203 0.19661 -0.18500
H 	H 	0.71047 0.02073 0.18693 0.09800
C 	C 	0.67537 0.96583 0.20823 0.12900
C 	C 	0.68577 0.93523 0.22161 -0.19400
H 	H 	0.65687 0.90773 0.22853 0.10000
C 	C 	0.73907 0.94553 0.22469 0.13100
H 	H 	0.74597 0.92663 0.23423 0.00100
C 	C 	0.62007 0.95473 0.20649 -0.08200
C 	C 	0.57557 0.94983 0.20450 0.02500
C 	C 	0.52297 0.94623 0.20324 -0.03600
C 	C 	0.51387 0.97583 0.18960 0.01300
C 	C 	0.55277 0.00763 0.17528 -0.07100
H 	H 	0.58657 0.00913 0.17553 0.06600
C 	C 	0.54397 0.03523 0.16161 0.01600
C 	C 	0.48207 0.91253 0.21689 0.02100
C 	C 	0.48897 0.87873 0.23147 -0.08400
H 	H 	0.52187 0.87843 0.23173 0.06700
C 	C 	0.45037 0.84833 0.24449 0.01200
C 	C 	0.88617 0.85923 0.29926 0.06800
H 	H 	0.86297 0.87023 0.29383 0.02400
C 	C 	0.87407 0.83083 0.31711 -0.15400
H 	H 	0.84157 0.82233 0.32343 0.08500
C 	C 	0.90217 0.71703 0.38350 -0.00400
C 	C 	0.95657 0.73673 0.37643 -0.02100
H 	H 	0.96827 0.75953 0.36563 0.03700
C 	C 	0.98947 0.72373 0.38443 -0.09400
H 	H 	0.02497 0.73823 0.37973 0.06900
C 	C 	0.97207 0.68733 0.40033 0.01500
H 	H 	0.99577 0.67623 0.40523 0.02400
C 	C 	0.92337 0.66853 0.40873 -0.10000
H 	H 	0.91517 0.64673 0.41973 0.07000
C 	C 	0.88347 0.68063 0.40143 0.04300
C 	C 	0.81347 0.54143 0.46099 -0.17200
H 	H 	0.84837 0.55393 0.45593 0.09400
C 	C 	0.79337 0.50213 0.47642 0.10500
H 	H 	0.81547 0.48913 0.48133 0.01300
O 	O 	0.51289 0.30284 0.56354 -0.64300
O 	O 	0.54073 0.35774 0.53702 -0.64500
O 	O 	0.57188 0.24501 0.50596 -0.63700
O 	O 	0.57921 0.24289 0.59733 -0.60900
C 	C 	0.50500 0.32630 0.54939 0.52500
C 	C 	0.44784 0.31684 0.54682 -0.21100
C 	C 	0.43683 0.34364 0.53282 0.13700
H 	H 	0.46523 0.36827 0.52487 0.00200
C 	C 	0.38383 0.33537 0.52995 -0.20600
H 	H 	0.37713 0.35407 0.52027 0.10200
C 	C 	0.34203 0.29917 0.54157 0.15000
C 	C 	0.35243 0.26857 0.55495 -0.20100
H 	H 	0.32353 0.24107 0.56187 0.10400
C 	C 	0.40573 0.27887 0.55803 0.13400
H 	H 	0.41263 0.25997 0.56757 0.00100
C 	C 	0.28673 0.28807 0.53983 -0.08800
C 	C 	0.24223 0.28317 0.53784 0.03600
C 	C 	0.18963 0.27957 0.53658 -0.04200
C 	C 	0.18053 0.30917 0.52294 0.02900
C 	C 	0.21943 0.34097 0.50862 -0.09000
H 	H 	0.25323 0.34247 0.50887 0.06800
C 	C 	0.21063 0.36857 0.49495 0.01900
C 	C 	0.14873 0.24587 0.55023 0.02500
C 	C 	0.15563 0.21207 0.56481 -0.08500
H 	H 	0.18853 0.21177 0.56507 0.06800
C 	C 	0.11703 0.18167 0.57783 0.01500
C 	C 	0.55283 0.19257 0.63260 0.08400
H 	H 	0.52963 0.20357 0.62717 0.02000
C 	C 	0.54073 0.16417 0.65045 -0.16800
H 	H 	0.50823 0.15567 0.65677 0.09200
C 	C 	0.56883 0.05037 0.71684 0.02500
C 	C 	0.62323 0.07007 0.70977 -0.07800
H 	H 	0.63493 0.09287 0.69897 0.06100
C 	C 	0.65613 0.05707 0.71777 -0.01000
H 	H 	0.69163 0.07157 0.71307 0.03300
C 	C 	0.63873 0.02067 0.73367 -0.05100
H 	H 	0.66243 0.00957 0.73857 0.05300
C 	C 	0.59003 0.00187 0.74207 -0.03800
H 	H 	0.58183 0.98007 0.75307 0.04100
C 	C 	0.55013 0.01397 0.73477 0.02900
C 	C 	0.48013 0.87477 0.79433 -0.17200
H 	H 	0.51503 0.88727 0.78927 0.09400
C 	C 	0.46003 0.83547 0.80976 0.10500
H 	H 	0.48213 0.82247 0.81467 0.01400
O 	O 	0.36383 0.54339 0.89687 -0.64300
O 	O 	0.30893 0.51633 0.87035 -0.64500
O 	O 	0.42166 0.66021 0.83929 -0.63700
O 	O 	0.42378 0.66966 0.93066 -0.60900
C 	C 	0.34037 0.51204 0.88272 0.52500
C 	C 	0.34983 0.46434 0.88015 -0.21000
C 	C 	0.32303 0.42653 0.86615 0.13700
H 	H 	0.29840 0.43030 0.85820 0.00200
C 	C 	0.33130 0.38180 0.86328 -0.20500
H 	H 	0.31260 0.35640 0.85360 0.10200
C 	C 	0.36750 0.37620 0.87490 0.15000
C 	C 	0.39810 0.41720 0.88828 -0.20000
H 	H 	0.42560 0.41580 0.89520 0.10300
C 	C 	0.38780 0.46020 0.89136 0.13400
H 	H 	0.40670 0.48600 0.90090 0.00100
C 	C 	0.37860 0.33200 0.87316 -0.08800
C 	C 	0.38350 0.29240 0.87117 0.03500
C 	C 	0.38710 0.24340 0.86991 -0.04100
C 	C 	0.35750 0.20470 0.85627 0.02800
C 	C 	0.32570 0.21180 0.84195 -0.09000
H 	H 	0.32420 0.24410 0.84220 0.06800
C 	C 	0.29810 0.17540 0.82828 0.01800
C 	C 	0.42080 0.23620 0.88356 0.02400
C 	C 	0.45460 0.27690 0.89814 -0.08400
H 	H 	0.45490 0.31010 0.89840 0.06700
C 	C 	0.48500 0.26870 0.91116 0.01200
C 	C 	0.47410 0.69360 0.96593 0.08300
H 	H 	0.46310 0.65940 0.96050 0.02000
C 	C 	0.50250 0.70990 0.98378 -0.16800
H 	H 	0.51100 0.68590 0.99010 0.09100
C 	C 	0.61630 0.85180 0.05017 0.02100
C 	C 	0.59660 0.88650 0.04310 -0.06900
H 	H 	0.57380 0.87540 0.03230 0.05600
C 	C 	0.60960 0.93240 0.05110 -0.02600
H 	H 	0.59510 0.95340 0.04640 0.03500
C 	C 	0.64600 0.95140 0.06700 -0.03200
H 	H 	0.65710 0.98620 0.07190 0.04000
C 	C 	0.66480 0.92150 0.07540 -0.06700
H 	H 	0.68660 0.93510 0.08640 0.05700
C 	C 	0.65270 0.86950 0.06810 0.02200
C 	C 	0.79190 0.93870 0.12766 -0.17300
H 	H 	0.77940 0.96110 0.12260 0.09300
C 	C 	0.83120 0.95790 0.14309 0.10500
H 	H 	0.84420 0.99300 0.14800 0.00900
O 	O 	0.03050 0.87672 0.23020 -0.64400
O 	O 	0.97560 0.84966 0.20368 -0.65700
O 	O 	0.08833 0.99354 0.17262 -0.64500
O 	O 	0.09045 0.00299 0.26399 -0.60100
C 	C 	0.00704 0.84537 0.21605 0.53600
C 	C 	0.01650 0.79767 0.21348 -0.20300
C 	C 	0.98970 0.75986 0.19948 0.12800
H 	H 	0.96507 0.76363 0.19153 0.00200
C 	C 	0.99797 0.71513 0.19661 -0.22400
H 	H 	0.97927 0.68973 0.18693 0.10500
C 	C 	0.03417 0.70953 0.20823 0.16800
C 	C 	0.06477 0.75053 0.22161 -0.20700
H 	H 	0.09227 0.74913 0.22853 0.10500
C 	C 	0.05447 0.79353 0.22469 0.13600
H 	H 	0.07337 0.81933 0.23423 0.00000
C 	C 	0.04527 0.66533 0.20649 -0.09300
C 	C 	0.05017 0.62573 0.20450 0.04300
C 	C 	0.05377 0.57673 0.20324 -0.04500
C 	C 	0.02417 0.53803 0.18960 0.04100
C 	C 	0.99237 0.54513 0.17528 -0.10700
H 	H 	0.99087 0.57743 0.17553 0.07000
C 	C 	0.96477 0.50873 0.16161 0.02000
C 	C 	0.08747 0.56953 0.21689 0.02600
C 	C 	0.12127 0.61023 0.23147 -0.08500
H 	H 	0.12157 0.64343 0.23173 0.06700
C 	C 	0.15167 0.60203 0.24449 0.01300
C 	C 	0.14077 0.02693 0.29926 0.13100
H 	H 	0.12977 0.99273 0.29383 -0.00600
C 	C 	0.16917 0.04323 0.31711 -0.19700
H 	H 	0.17767 0.01923 0.32343 0.10500
C 	C 	0.28297 0.18513 0.38350 0.03600
C 	C 	0.26327 0.21983 0.37643 -0.08200
H 	H 	0.24047 0.20873 0.36563 0.06200
C 	C 	0.27627 0.26573 0.38443 -0.01100
H 	H 	0.26177 0.28673 0.37973 0.03400
C 	C 	0.31267 0.28473 0.40033 -0.04400
H 	H 	0.32377 0.31953 0.40523 0.04800
C 	C 	0.33147 0.25483 0.40873 -0.05400
H 	H 	0.35327 0.26843 0.41973 0.05500
C 	C 	0.31937 0.20283 0.40143 0.01000
C 	C 	0.45857 0.27203 0.46099 -0.16900
H 	H 	0.44607 0.29443 0.45593 0.09400
C 	C 	0.49787 0.29123 0.47642 0.10400
H 	H 	0.51087 0.32633 0.48133 0.01400
O 	O 	0.69716 0.21006 0.56354 -0.64400
O 	O 	0.64226 0.18300 0.53702 -0.64500
O 	O 	0.75499 0.32688 0.50596 -0.63800
O 	O 	0.75711 0.33633 0.59733 -0.60900
C 	C 	0.67370 0.17871 0.54939 0.52800
C 	C 	0.68316 0.13101 0.54682 -0.22000
C 	C 	0.65636 0.09320 0.53282 0.15100
H 	H 	0.63173 0.09697 0.52487 -0.00200
C 	C 	0.66463 0.04847 0.52995 -0.22300
H 	H 	0.64593 0.02307 0.52027 0.11200
C 	C 	0.70083 0.04287 0.54157 0.17700
C 	C 	0.73143 0.08387 0.55495 -0.21700
H 	H 	0.75893 0.08247 0.56187 0.11100
C 	C 	0.72113 0.12687 0.55803 0.14700
H 	H 	0.74003 0.15267 0.56757 -0.00300
C 	C 	0.71193 0.99867 0.53983 -0.11200
C 	C 	0.71683 0.95907 0.53784 0.04400
C 	C 	0.72043 0.91007 0.53658 -0.04700
C 	C 	0.69083 0.87137 0.52294 0.02900
C 	C 	0.65903 0.87847 0.50862 -0.09100
H 	H 	0.65753 0.91077 0.50887 0.06600
C 	C 	0.63143 0.84207 0.49495 0.01800
C 	C 	0.75413 0.90287 0.55023 0.02400
C 	C 	0.78793 0.94357 0.56481 -0.08400
H 	H 	0.78823 0.97677 0.56507 0.06400
C 	C 	0.81833 0.93537 0.57783 0.00800
C 	C 	0.80743 0.36027 0.63260 0.08300
H 	H 	0.79643 0.32607 0.62717 0.02000
C 	C 	0.83583 0.37657 0.65045 -0.16800
H 	H 	0.84433 0.35257 0.65677 0.09000
C 	C 	0.94963 0.51847 0.71684 0.01900
C 	C 	0.92993 0.55317 0.70977 -0.05900
H 	H 	0.90713 0.54207 0.69897 0.05300
C 	C 	0.94293 0.59907 0.71777 -0.04100
H 	H 	0.92843 0.62007 0.71307 0.04200
C 	C 	0.97933 0.61807 0.73367 -0.01000
H 	H 	0.99043 0.65287 0.73857 0.03300
C 	C 	0.99813 0.58817 0.74207 -0.09700
H 	H 	0.01993 0.60177 0.75307 0.07900
C 	C 	0.98603 0.53617 0.73477 0.01400
C 	C 	0.12523 0.60537 0.79433 -0.16900
H 	H 	0.11273 0.62777 0.78927 0.09500
C 	C 	0.16453 0.62457 0.80976 0.10400
H 	H 	0.17753 0.65967 0.81467 0.01400
Zr	Zr	0.29184 0.70816 0.86385 3.21400
O 	O 	0.28642 0.71358 0.89634 -1.01900
C 	C 	0.28258 0.71742 0.93810 0.43000
C 	C 	0.26825 0.73175 0.95704 -0.14600
C 	C 	0.24120 0.75880 0.99180 0.13100
C 	C 	0.22680 0.77320 0.01090 -0.07800
C 	C 	0.21500 0.78500 0.02480 0.03300
C 	C 	0.19880 0.80120 0.04284 -0.03700
C 	C 	0.16620 0.83380 0.07514 -0.03700
C 	C 	0.14750 0.85250 0.09229 0.03900
C 	C 	0.13360 0.86640 0.10480 -0.07900
C 	C 	0.11360 0.88640 0.12035 0.13000
Zr	Zr	0.95851 0.04149 0.19718 3.21400
O 	O 	0.95309 0.04691 0.22967 -1.02100
C 	C 	0.94925 0.05075 0.27143 0.43000
C 	C 	0.93492 0.06508 0.29037 -0.14700
C 	C 	0.90787 0.09213 0.32513 0.13200
C 	C 	0.89347 0.10653 0.34423 -0.07800
C 	C 	0.88167 0.11833 0.35813 0.03300
C 	C 	0.86547 0.13453 0.37617 -0.03800
C 	C 	0.83287 0.16713 0.40847 -0.03600
C 	C 	0.81417 0.18583 0.42562 0.03900
C 	C 	0.80027 0.19973 0.43813 -0.07800
C 	C 	0.78027 0.21973 0.45368 0.13000
Zr	Zr	0.62517 0.37483 0.53051 3.21400
O 	O 	0.61975 0.38025 0.56301 -1.01900
C 	C 	0.61591 0.38409 0.60477 0.43000
C 	C 	0.60158 0.39842 0.62371 -0.14600
C 	C 	0.57453 0.42547 0.65847 0.13100
C 	C 	0.56013 0.43987 0.67757 -0.07800
C 	C 	0.54833 0.45167 0.69147 0.03300
C 	C 	0.53213 0.46787 0.70951 -0.03700
C 	C 	0.49953 0.50047 0.74181 -0.03600
C 	C 	0.48083 0.51917 0.75896 0.03900
C 	C 	0.46693 0.53307 0.77147 -0.07800
C 	C 	0.44693 0.55307 0.78702 0.13000
Zr	Zr	0.41632 0.70816 0.86385 3.21400
O 	O 	0.42716 0.71358 0.89634 -1.01900
C 	C 	0.43484 0.71742 0.93810 0.43000
C 	C 	0.46350 0.73175 0.95704 -0.14600
C 	C 	0.51760 0.75880 0.99180 0.13000
C 	C 	0.54640 0.77320 0.01090 -0.07800
C 	C 	0.57000 0.78500 0.02480 0.03200
C 	C 	0.60240 0.80120 0.04284 -0.03700
C 	C 	0.66760 0.83380 0.07514 -0.03700
C 	C 	0.70500 0.85250 0.09229 0.03800
C 	C 	0.73280 0.86640 0.10480 -0.08000
C 	C 	0.77280 0.88640 0.12035 0.13000
Zr	Zr	0.08299 0.04149 0.19718 3.21500
O 	O 	0.09383 0.04691 0.22967 -1.01500
C 	C 	0.10151 0.05075 0.27143 0.43800
C 	C 	0.13017 0.06508 0.29037 -0.16500
C 	C 	0.18427 0.09213 0.32513 0.15300
C 	C 	0.21307 0.10653 0.34423 -0.08800
C 	C 	0.23667 0.11833 0.35813 0.04500
C 	C 	0.26907 0.13453 0.37617 -0.05500
C 	C 	0.33427 0.16713 0.40847 -0.02100
C 	C 	0.37167 0.18583 0.42562 0.03300
C 	C 	0.39947 0.19973 0.43813 -0.07400
C 	C 	0.43947 0.21973 0.45368 0.12800
Zr	Zr	0.74965 0.37483 0.53051 3.21400
O 	O 	0.76049 0.38025 0.56301 -1.01900
C 	C 	0.76817 0.38409 0.60477 0.43000
C 	C 	0.79683 0.39842 0.62371 -0.14600
C 	C 	0.85093 0.42547 0.65847 0.13000
C 	C 	0.87973 0.43987 0.67757 -0.07800
C 	C 	0.90333 0.45167 0.69147 0.03100
C 	C 	0.93573 0.46787 0.70951 -0.03700
C 	C 	0.00093 0.50047 0.74181 -0.01100
C 	C 	0.03833 0.51917 0.75896 0.03600
C 	C 	0.06613 0.53307 0.77147 -0.07100
C 	C 	0.10613 0.55307 0.78702 0.12900
Zr	Zr	0.29184 0.58368 0.86385 3.21400
O 	O 	0.28642 0.57284 0.89634 -1.01900
C 	C 	0.28258 0.56516 0.93810 0.43100
C 	C 	0.26825 0.53650 0.95704 -0.14600
C 	C 	0.24120 0.48240 0.99180 0.13200
C 	C 	0.22680 0.45360 0.01090 -0.07700
C 	C 	0.21500 0.43000 0.02480 0.03300
C 	C 	0.19880 0.39760 0.04284 -0.03700
C 	C 	0.16620 0.33240 0.07514 -0.03600
C 	C 	0.14750 0.29500 0.09229 0.03900
C 	C 	0.13360 0.26720 0.10480 -0.07700
C 	C 	0.11360 0.22720 0.12035 0.13000
Zr	Zr	0.95851 0.91701 0.19718 3.21300
O 	O 	0.95309 0.90617 0.22967 -1.02600
C 	C 	0.94925 0.89849 0.27143 0.42300
C 	C 	0.93492 0.86983 0.29037 -0.13100
C 	C 	0.90787 0.81573 0.32513 0.11300
C 	C 	0.89347 0.78693 0.34423 -0.06900
C 	C 	0.88167 0.76333 0.35813 0.02200
C 	C 	0.86547 0.73093 0.37617 -0.02200
C 	C 	0.83287 0.66573 0.40847 -0.04900
C 	C 	0.81417 0.62833 0.42562 0.04400
C 	C 	0.80027 0.60053 0.43813 -0.08200
C 	C 	0.78027 0.56053 0.45368 0.13200
Zr	Zr	0.62517 0.25035 0.53051 3.21400
O 	O 	0.61975 0.23951 0.56301 -1.01900
C 	C 	0.61591 0.23183 0.60477 0.43100
C 	C 	0.60158 0.20317 0.62371 -0.14600
C 	C 	0.57453 0.14907 0.65847 0.13200
C 	C 	0.56013 0.12027 0.67757 -0.07700
C 	C 	0.54833 0.09667 0.69147 0.03400
C 	C 	0.53213 0.06427 0.70951 -0.03700
C 	C 	0.49953 0.99907 0.74181 -0.05800
C 	C 	0.48083 0.96167 0.75896 0.04200
C 	C 	0.46693 0.93387 0.77147 -0.08500
C 	C 	0.44693 0.89387 0.78702 0.13100
Zr	Zr	0.25028 0.62514 0.90495 3.21400
O 	O 	0.26328 0.63164 0.87577 -1.43800
C 	C 	0.22270 0.61135 0.83339 0.50500
C 	C 	0.18330 0.59165 0.81726 -0.18500
Zr	Zr	0.91695 0.95847 0.23828 3.21200
O 	O 	0.92995 0.96497 0.20910 -1.44800
C 	C 	0.88937 0.94468 0.16672 0.50600
C 	C 	0.84997 0.92498 0.15059 -0.19000
Zr	Zr	0.58361 0.29181 0.57162 3.21400
O 	O 	0.59661 0.29831 0.54244 -1.43700
C 	C 	0.55603 0.27802 0.50006 0.50500
C 	C 	0.51663 0.25832 0.48393 -0.18500
Zr	Zr	0.37486 0.74972 0.90495 3.21400
O 	O 	0.36836 0.73672 0.87577 -1.43800
C 	C 	0.38865 0.77730 0.83339 0.50500
C 	C 	0.40835 0.81670 0.81726 -0.18600
Zr	Zr	0.04153 0.08305 0.23828 3.21500
O 	O 	0.03503 0.07005 0.20910 -1.43200
C 	C 	0.05532 0.11063 0.16672 0.50300
C 	C 	0.07502 0.15003 0.15059 -0.18200
Zr	Zr	0.70819 0.41639 0.57162 3.21400
O 	O 	0.70169 0.40339 0.54244 -1.43700
C 	C 	0.72198 0.44397 0.50006 0.50500
C 	C 	0.74168 0.48337 0.48393 -0.18700
Zr	Zr	0.37486 0.62514 0.90495 3.21400
O 	O 	0.36836 0.63164 0.87577 -1.43800
C 	C 	0.38865 0.61135 0.83339 0.50500
C 	C 	0.40835 0.59165 0.81726 -0.18600
Zr	Zr	0.04153 0.95847 0.23828 3.21300
O 	O 	0.03503 0.96497 0.20910 -1.44100
C 	C 	0.05532 0.94468 0.16672 0.50500
C 	C 	0.07502 0.92498 0.15059 -0.18700
Zr	Zr	0.70819 0.29181 0.57162 3.21400
O 	O 	0.70169 0.29831 0.54244 -1.43700
C 	C 	0.72198 0.27802 0.50006 0.50500
C 	C 	0.74168 0.25832 0.48393 -0.18600
O 	O 	0.33333 0.66667 0.91076 -1.42400
O 	O 	0.33333 0.66667 0.84953 -1.02100
O 	O 	-0.00000 -0.00000 0.24409 -1.40800
O 	O 	0.00000 0.00000 0.18286 -1.00500
O 	O 	0.66667 0.33333 0.57743 -1.42400
O 	O 	0.66667 0.33333 0.51620 -1.02200
