data_crystal

_cell_length_a 38.39300
_cell_length_b 14.69400
_cell_length_c 18.87200
_cell_angle_alpha 90.00000
_cell_angle_beta  95.90700
_cell_angle_gamma 90.00000

_symmetry_space_group_name_	'P 1'
_symmetry_space_group_name_H-M	'P 1'

loop_
_symmetry_equiv_pos_as_xyz
  x,y,z

loop_
_atom_site_label
_atom_site_type_symbol
_atom_site_fract_x
_atom_site_fract_y
_atom_site_fract_z
_atom_site_charge
Zn	Zn	0.43920 0.38771 0.75048 1.16000
Zn	Zn	0.42777 0.22488 0.47921 1.18000
Zn	Zn	0.38597 0.09330 0.23351 1.20900
C 	C 	0.16000 0.56490 0.39810 0.42500
C 	C 	0.14140 0.47300 0.40060 -0.34600
H 	H 	0.15700 0.42980 0.42640 0.15100
H 	H 	0.12100 0.48010 0.42650 0.10600
C 	C 	0.07270 0.42700 0.25240 0.35600
C 	C 	0.09550 0.39280 0.31730 -0.30400
H 	H 	0.08320 0.40230 0.35900 0.08500
H 	H 	0.09880 0.32770 0.31230 0.11600
C 	C 	0.10800 0.18300 0.17870 0.35000
C 	C 	0.13130 0.22980 0.13030 -0.27800
H 	H 	0.13100 0.19440 0.08680 0.14700
H 	H 	0.12120 0.28880 0.11740 0.14100
C 	C 	0.22190 0.22090 0.09350 0.46800
C 	C 	0.19490 0.18200 0.13830 -0.32700
H 	H 	0.18380 0.13080 0.11270 0.14600
H 	H 	0.20730 0.15830 0.18190 0.14600
C 	C 	0.15690 0.39680 0.29440 0.14200
C 	C 	0.17520 0.30310 0.21340 0.16500
C 	C 	0.21500 0.37750 0.28840 0.16400
C 	C 	0.25540 0.47370 0.36420 -0.07200
H 	H 	0.23490 0.48570 0.38890 0.06500
H 	H 	0.26030 0.52800 0.33780 0.06700
C 	C 	0.27910 0.37400 0.27610 -0.06700
H 	H 	0.28420 0.42420 0.24550 0.06200
H 	H 	0.27400 0.32070 0.24660 0.05900
C 	C 	0.28580 0.45280 0.41740 -0.03700
H 	H 	0.29120 0.50590 0.44710 0.04700
H 	H 	0.27960 0.40350 0.44790 0.04500
C 	C 	0.31030 0.35570 0.32970 -0.04400
H 	H 	0.30680 0.29830 0.35340 0.05000
H 	H 	0.33100 0.34950 0.30460 0.05200
C 	C 	0.34870 0.44070 0.41720 0.16400
C 	C 	0.38430 0.50930 0.50610 0.16000
C 	C 	0.40740 0.41500 0.43000 0.11400
C 	C 	0.41370 0.23840 0.32840 0.43000
C 	C 	0.43310 0.32970 0.33760 -0.36800
H 	H 	0.45650 0.32290 0.32310 0.13900
H 	H 	0.42090 0.37490 0.30680 0.14600
C 	C 	0.47880 0.35690 0.52270 0.40000
C 	C 	0.47070 0.39070 0.44640 -0.37700
H 	H 	0.47200 0.45660 0.44620 0.17100
H 	H 	0.48840 0.36770 0.41790 0.14000
C 	C 	0.44120 0.54040 0.65420 0.38600
C 	C 	0.42410 0.59760 0.59100 -0.26700
H 	H 	0.42250 0.66040 0.60630 0.12200
H 	H 	0.43910 0.59600 0.55280 0.13000
C 	C 	0.33890 0.67460 0.57040 0.37300
C 	C 	0.35930 0.59290 0.60160 -0.27400
H 	H 	0.36770 0.60620 0.65080 0.12900
H 	H 	0.34350 0.54140 0.60170 0.13300
C 	C 	0.34580 0.02400 0.35350 0.14100
H 	H 	0.36730 0.99790 0.36880 -0.02600
C 	C 	0.31260 0.11760 0.27720 0.14100
H 	H 	0.31090 0.15730 0.23870 -0.02700
C 	C 	0.31720 0.00420 0.39130 -0.26500
H 	H 	0.31960 0.96490 0.43010 0.13900
C 	C 	0.28270 0.10260 0.31110 -0.25500
H 	H 	0.26160 0.13050 0.29520 0.12000
C 	C 	0.28540 0.04390 0.37000 0.24300
C 	C 	0.25420 0.02180 0.41040 -0.38300
H 	H 	0.26110 0.03290 0.46050 0.14100
H 	H 	0.24970 0.95700 0.40520 0.15300
C 	C 	0.21950 0.07100 0.39090 0.15500
H 	H 	0.20170 0.04200 0.41610 -0.01800
H 	H 	0.21280 0.06270 0.34030 -0.01800
C 	C 	0.21920 0.17440 0.40730 -0.36600
H 	H 	0.23750 0.18800 0.44530 0.12900
H 	H 	0.22430 0.20800 0.36540 0.14200
C 	C 	0.18450 0.20490 0.42940 0.22600
C 	C 	0.18210 0.25790 0.49070 -0.24000
H 	H 	0.20250 0.27900 0.51630 0.10400
C 	C 	0.15270 0.17780 0.39250 -0.25000
H 	H 	0.15250 0.14530 0.35010 0.13400
C 	C 	0.15070 0.27890 0.51380 0.11900
H 	H 	0.15020 0.31500 0.55420 -0.02700
C 	C 	0.12150 0.19950 0.41940 0.14200
H 	H 	0.10080 0.17910 0.39480 -0.04800
O 	O 	0.14919 0.62250 0.35160 -0.49700
O 	O 	0.18489 0.57960 0.44630 -0.47300
O 	O 	0.04410 0.38320 0.23680 -0.28300
O 	O 	0.08147 0.49620 0.21840 -0.44600
O 	O 	0.07430 0.19510 0.16580 -0.43600
O 	O 	0.12030 0.13280 0.22840 -0.37900
O 	O 	0.21604 0.29330 0.05950 -0.49700
O 	O 	0.24830 0.17250 0.09180 -0.51200
O 	O 	0.50510 0.39130 0.55660 -0.31700
O 	O 	0.45957 0.29620 0.54750 -0.50500
O 	O 	0.40400 0.21850 0.26370 -0.47500
O 	O 	0.40994 0.18750 0.38020 -0.53100
O 	O 	0.46940 0.57160 0.68450 -0.34200
O 	O 	0.42540 0.46920 0.66930 -0.49000
O 	O 	0.30889 0.68610 0.59200 -0.46000
O 	O 	0.35150 0.72440 0.52680 -0.33800
N 	N 	0.13020 0.43640 0.32960 -0.10000
N 	N 	0.16710 0.24330 0.15820 -0.04000
N 	N 	0.14730 0.34260 0.23970 -0.15500
N 	N 	0.20900 0.31480 0.23580 -0.15800
N 	N 	0.18950 0.41890 0.32060 -0.15900
N 	N 	0.24810 0.39700 0.31450 -0.11600
N 	N 	0.31660 0.42720 0.38370 -0.12100
N 	N 	0.37640 0.39800 0.39250 -0.16200
N 	N 	0.35130 0.49600 0.47630 -0.15700
N 	N 	0.41374 0.47060 0.48630 -0.15100
N 	N 	0.38940 0.56680 0.56360 -0.04800
N 	N 	0.43570 0.36250 0.41310 -0.11100
N 	N 	0.11960 0.24880 0.47930 -0.28500
N 	N 	0.34370 0.07900 0.29620 -0.26600
Zn	Zn	0.20815 0.30125 0.95336 1.23400
Zn	Zn	0.06080 0.88771 0.74952 1.15900
Zn	Zn	0.07223 0.72488 0.02079 1.17900
Zn	Zn	0.11403 0.59330 0.26649 1.20900
C 	C 	0.34000 0.06490 0.10190 0.42200
C 	C 	0.35860 0.97300 0.09940 -0.34600
H 	H 	0.34300 0.92980 0.07360 0.15000
H 	H 	0.37900 0.98010 0.07350 0.10500
C 	C 	0.42730 0.92700 0.24760 0.35500
C 	C 	0.40450 0.89280 0.18270 -0.30500
H 	H 	0.41680 0.90230 0.14100 0.08400
H 	H 	0.40120 0.82770 0.18770 0.11500
C 	C 	0.39200 0.68300 0.32130 0.34900
C 	C 	0.36870 0.72980 0.36970 -0.27900
H 	H 	0.36900 0.69440 0.41320 0.14600
H 	H 	0.37880 0.78880 0.38260 0.14000
C 	C 	0.27810 0.72090 0.40650 0.46700
C 	C 	0.30510 0.68200 0.36170 -0.32700
H 	H 	0.31620 0.63080 0.38730 0.14700
H 	H 	0.29270 0.65830 0.31810 0.14600
C 	C 	0.34310 0.89680 0.20560 0.14200
C 	C 	0.32480 0.80310 0.28660 0.16500
C 	C 	0.28500 0.87750 0.21160 0.16400
C 	C 	0.24460 0.97370 0.13580 -0.07100
H 	H 	0.26510 0.98570 0.11110 0.06500
H 	H 	0.23970 0.02800 0.16220 0.06500
C 	C 	0.22090 0.87400 0.22390 -0.06700
H 	H 	0.21580 0.92420 0.25450 0.06200
H 	H 	0.22600 0.82070 0.25340 0.05900
C 	C 	0.21420 0.95280 0.08260 -0.03400
H 	H 	0.20880 0.00590 0.05290 0.04500
H 	H 	0.22040 0.90350 0.05210 0.04400
C 	C 	0.18970 0.85570 0.17030 -0.04400
H 	H 	0.19320 0.79830 0.14660 0.05000
H 	H 	0.16900 0.84950 0.19540 0.05200
C 	C 	0.15130 0.94070 0.08280 0.16400
C 	C 	0.11570 0.00930 0.99390 0.16100
C 	C 	0.09260 0.91500 0.07000 0.11400
C 	C 	0.08630 0.73840 0.17160 0.43000
C 	C 	0.06690 0.82970 0.16240 -0.36800
H 	H 	0.04350 0.82290 0.17690 0.13900
H 	H 	0.07910 0.87490 0.19320 0.14600
C 	C 	0.02120 0.85690 0.97730 0.39900
C 	C 	0.02930 0.89070 0.05360 -0.37500
H 	H 	0.02800 0.95660 0.05380 0.17100
H 	H 	0.01160 0.86770 0.08210 0.14000
C 	C 	0.05880 0.04040 0.84580 0.38800
C 	C 	0.07590 0.09760 0.90900 -0.26800
H 	H 	0.07750 0.16040 0.89370 0.12300
H 	H 	0.06090 0.09600 0.94720 0.13100
C 	C 	0.16110 0.17460 0.92960 0.37300
C 	C 	0.14070 0.09290 0.89840 -0.27400
H 	H 	0.13230 0.10620 0.84920 0.12900
H 	H 	0.15650 0.04140 0.89830 0.13400
C 	C 	0.15420 0.52400 0.14650 0.14200
H 	H 	0.13270 0.49790 0.13120 -0.02700
C 	C 	0.18740 0.61760 0.22280 0.14100
H 	H 	0.18910 0.65730 0.26130 -0.02700
C 	C 	0.18280 0.50420 0.10870 -0.26400
H 	H 	0.18040 0.46490 0.06990 0.13800
C 	C 	0.21730 0.60260 0.18890 -0.25500
H 	H 	0.23840 0.63050 0.20480 0.11900
C 	C 	0.21460 0.54390 0.13000 0.24200
C 	C 	0.24580 0.52180 0.08960 -0.38000
H 	H 	0.23890 0.53290 0.03950 0.14000
H 	H 	0.25030 0.45700 0.09480 0.15200
C 	C 	0.28050 0.57100 0.10910 0.15200
H 	H 	0.29830 0.54200 0.08390 -0.01700
H 	H 	0.28720 0.56270 0.15970 -0.01800
C 	C 	0.28080 0.67440 0.09270 -0.36300
H 	H 	0.26250 0.68800 0.05470 0.12900
H 	H 	0.27570 0.70800 0.13460 0.14100
C 	C 	0.31550 0.70490 0.07060 0.22300
C 	C 	0.31790 0.75790 0.00930 -0.23300
H 	H 	0.29750 0.77900 0.98370 0.10200
C 	C 	0.34730 0.67780 0.10750 -0.24700
H 	H 	0.34750 0.64530 0.14990 0.13300
C 	C 	0.34930 0.77890 0.98620 0.11500
H 	H 	0.34980 0.81500 0.94580 -0.02500
C 	C 	0.37850 0.69950 0.08060 0.14100
H 	H 	0.39920 0.67910 0.10520 -0.04700
O 	O 	0.35081 0.12250 0.14840 -0.49700
O 	O 	0.31511 0.07960 0.05370 -0.47400
O 	O 	0.45590 0.88320 0.26320 -0.28300
O 	O 	0.41853 0.99620 0.28160 -0.44600
O 	O 	0.42570 0.69510 0.33420 -0.43600
O 	O 	0.37970 0.63280 0.27160 -0.37800
O 	O 	0.28396 0.79330 0.44050 -0.49600
O 	O 	0.25170 0.67250 0.40820 -0.51200
O 	O 	0.99490 0.89130 0.94340 -0.31800
O 	O 	0.04043 0.79620 0.95250 -0.50500
O 	O 	0.09600 0.71850 0.23630 -0.47500
O 	O 	0.09006 0.68750 0.11980 -0.53100
O 	O 	0.03060 0.07160 0.81550 -0.34200
O 	O 	0.07460 0.96920 0.83070 -0.49100
O 	O 	0.19111 0.18610 0.90800 -0.46000
O 	O 	0.14850 0.22440 0.97320 -0.33700
N 	N 	0.36980 0.93640 0.17040 -0.10000
N 	N 	0.33290 0.74330 0.34180 -0.04000
N 	N 	0.35270 0.84260 0.26030 -0.15500
N 	N 	0.29100 0.81480 0.26420 -0.15800
N 	N 	0.31050 0.91890 0.17940 -0.15900
N 	N 	0.25190 0.89700 0.18550 -0.11600
N 	N 	0.18340 0.92720 0.11630 -0.12100
N 	N 	0.12360 0.89800 0.10750 -0.16200
N 	N 	0.14870 0.99600 0.02370 -0.15600
N 	N 	0.08626 0.97060 0.01370 -0.15100
N 	N 	0.11060 0.06680 0.93640 -0.04800
N 	N 	0.06430 0.86250 0.08690 -0.11100
N 	N 	0.38040 0.74880 0.02070 -0.28300
N 	N 	0.15630 0.57900 0.20380 -0.26500
Zn	Zn	0.29185 0.80125 0.54664 1.23300
Zn	Zn	0.06080 0.11229 0.24952 1.15900
Zn	Zn	0.07223 0.27512 0.52079 1.17900
Zn	Zn	0.11403 0.40670 0.76649 1.20900
C 	C 	0.34000 0.93510 0.60190 0.42300
C 	C 	0.35860 0.02700 0.59940 -0.34700
H 	H 	0.34300 0.07020 0.57360 0.15000
H 	H 	0.37900 0.01990 0.57350 0.10500
C 	C 	0.42730 0.07300 0.74760 0.35500
C 	C 	0.40450 0.10720 0.68270 -0.30400
H 	H 	0.41680 0.09770 0.64100 0.08400
H 	H 	0.40120 0.17230 0.68770 0.11500
C 	C 	0.39200 0.31700 0.82130 0.34900
C 	C 	0.36870 0.27020 0.86970 -0.28000
H 	H 	0.36900 0.30560 0.91320 0.14600
H 	H 	0.37880 0.21120 0.88260 0.14000
C 	C 	0.27810 0.27910 0.90650 0.46700
C 	C 	0.30510 0.31800 0.86170 -0.32700
H 	H 	0.31620 0.36920 0.88730 0.14700
H 	H 	0.29270 0.34170 0.81810 0.14600
C 	C 	0.34310 0.10320 0.70560 0.14200
C 	C 	0.32480 0.19690 0.78660 0.16500
C 	C 	0.28500 0.12250 0.71160 0.16400
C 	C 	0.24460 0.02630 0.63580 -0.07000
H 	H 	0.26510 0.01430 0.61110 0.06400
H 	H 	0.23970 0.97200 0.66220 0.06600
C 	C 	0.22090 0.12600 0.72390 -0.06700
H 	H 	0.21580 0.07580 0.75450 0.06200
H 	H 	0.22600 0.17930 0.75340 0.05900
C 	C 	0.21420 0.04720 0.58260 -0.03700
H 	H 	0.20880 0.99410 0.55290 0.04700
H 	H 	0.22040 0.09650 0.55210 0.04500
C 	C 	0.18970 0.14430 0.67030 -0.04400
H 	H 	0.19320 0.20170 0.64660 0.05000
H 	H 	0.16900 0.15050 0.69540 0.05200
C 	C 	0.15130 0.05930 0.58280 0.16400
C 	C 	0.11570 0.99070 0.49390 0.16000
C 	C 	0.09260 0.08500 0.57000 0.11400
C 	C 	0.08630 0.26160 0.67160 0.43000
C 	C 	0.06690 0.17030 0.66240 -0.36800
H 	H 	0.04350 0.17710 0.67690 0.13900
H 	H 	0.07910 0.12510 0.69320 0.14600
C 	C 	0.02120 0.14310 0.47730 0.40000
C 	C 	0.02930 0.10930 0.55360 -0.37700
H 	H 	0.02800 0.04340 0.55380 0.17100
H 	H 	0.01160 0.13230 0.58210 0.14000
C 	C 	0.05880 0.95960 0.34580 0.38700
C 	C 	0.07590 0.90240 0.40900 -0.26800
H 	H 	0.07750 0.83960 0.39370 0.12200
H 	H 	0.06090 0.90400 0.44720 0.13000
C 	C 	0.16110 0.82540 0.42960 0.37300
C 	C 	0.14070 0.90710 0.39840 -0.27400
H 	H 	0.13230 0.89380 0.34920 0.12900
H 	H 	0.15650 0.95860 0.39830 0.13300
C 	C 	0.15420 0.47600 0.64650 0.14200
H 	H 	0.13270 0.50210 0.63120 -0.02700
C 	C 	0.18740 0.38240 0.72280 0.14100
H 	H 	0.18910 0.34270 0.76130 -0.02700
C 	C 	0.18280 0.49580 0.60870 -0.26500
H 	H 	0.18040 0.53510 0.56990 0.13900
C 	C 	0.21730 0.39740 0.68890 -0.25500
H 	H 	0.23840 0.36950 0.70480 0.11900
C 	C 	0.21460 0.45610 0.63000 0.24300
C 	C 	0.24580 0.47820 0.58960 -0.38100
H 	H 	0.23890 0.46710 0.53950 0.14000
H 	H 	0.25030 0.54300 0.59480 0.15200
C 	C 	0.28050 0.42900 0.60910 0.15300
H 	H 	0.29830 0.45800 0.58390 -0.01800
H 	H 	0.28720 0.43730 0.65970 -0.01800
C 	C 	0.28080 0.32560 0.59270 -0.36500
H 	H 	0.26250 0.31200 0.55470 0.12900
H 	H 	0.27570 0.29200 0.63460 0.14200
C 	C 	0.31550 0.29510 0.57060 0.22600
C 	C 	0.31790 0.24210 0.50930 -0.24000
H 	H 	0.29750 0.22100 0.48370 0.10400
C 	C 	0.34730 0.32220 0.60750 -0.24900
H 	H 	0.34750 0.35470 0.64990 0.13400
C 	C 	0.34930 0.22110 0.48620 0.11900
H 	H 	0.34980 0.18500 0.44580 -0.02700
C 	C 	0.37850 0.30050 0.58060 0.14200
H 	H 	0.39920 0.32090 0.60520 -0.04800
O 	O 	0.35081 0.87750 0.64840 -0.49700
O 	O 	0.31511 0.92040 0.55370 -0.47300
O 	O 	0.45590 0.11680 0.76320 -0.28300
O 	O 	0.41853 0.00380 0.78160 -0.44600
O 	O 	0.42570 0.30490 0.83420 -0.43600
O 	O 	0.37970 0.36720 0.77160 -0.37800
O 	O 	0.28396 0.20670 0.94050 -0.49600
O 	O 	0.25170 0.32750 0.90820 -0.51100
O 	O 	0.99490 0.10870 0.44340 -0.31700
O 	O 	0.04043 0.20380 0.45250 -0.50500
O 	O 	0.09600 0.28150 0.73630 -0.47500
O 	O 	0.09006 0.31250 0.61980 -0.53100
O 	O 	0.03060 0.92840 0.31550 -0.34200
O 	O 	0.07460 0.03080 0.33070 -0.49000
O 	O 	0.19111 0.81390 0.40800 -0.46000
O 	O 	0.14850 0.77560 0.47320 -0.33800
N 	N 	0.36980 0.06360 0.67040 -0.10000
N 	N 	0.33290 0.25670 0.84180 -0.04000
N 	N 	0.35270 0.15740 0.76030 -0.15500
N 	N 	0.29100 0.18520 0.76420 -0.15800
N 	N 	0.31050 0.08110 0.67940 -0.15900
N 	N 	0.25190 0.10300 0.68550 -0.11600
N 	N 	0.18340 0.07280 0.61630 -0.12100
N 	N 	0.12360 0.10200 0.60750 -0.16200
N 	N 	0.14870 0.00400 0.52370 -0.15700
N 	N 	0.08626 0.02940 0.51370 -0.15100
N 	N 	0.11060 0.93320 0.43640 -0.04800
N 	N 	0.06430 0.13750 0.58690 -0.11100
N 	N 	0.38040 0.25120 0.52070 -0.28500
N 	N 	0.15630 0.42100 0.70380 -0.26500
Zn	Zn	0.29185 0.19875 0.04664 1.23300
Zn	Zn	0.43920 0.61229 0.25048 1.15900
Zn	Zn	0.42777 0.77512 0.97921 1.17900
Zn	Zn	0.38597 0.90670 0.73351 1.20800
C 	C 	0.16000 0.43510 0.89810 0.42400
C 	C 	0.14140 0.52700 0.90060 -0.34700
H 	H 	0.15700 0.57020 0.92640 0.15000
H 	H 	0.12100 0.51990 0.92650 0.10500
C 	C 	0.07270 0.57300 0.75240 0.35500
C 	C 	0.09550 0.60720 0.81730 -0.30500
H 	H 	0.08320 0.59770 0.85900 0.08400
H 	H 	0.09880 0.67230 0.81230 0.11500
C 	C 	0.10800 0.81700 0.67870 0.34900
C 	C 	0.13130 0.77020 0.63030 -0.27900
H 	H 	0.13100 0.80560 0.58680 0.14600
H 	H 	0.12120 0.71120 0.61740 0.14000
C 	C 	0.22190 0.77910 0.59350 0.46700
C 	C 	0.19490 0.81800 0.63830 -0.32700
H 	H 	0.18380 0.86920 0.61270 0.14700
H 	H 	0.20730 0.84170 0.68190 0.14600
C 	C 	0.15690 0.60320 0.79440 0.14200
C 	C 	0.17520 0.69690 0.71340 0.16500
C 	C 	0.21500 0.62250 0.78840 0.16400
C 	C 	0.25540 0.52630 0.86420 -0.07200
H 	H 	0.23490 0.51430 0.88890 0.06500
H 	H 	0.26030 0.47200 0.83780 0.06700
C 	C 	0.27910 0.62600 0.77610 -0.06700
H 	H 	0.28420 0.57580 0.74550 0.06200
H 	H 	0.27400 0.67930 0.74660 0.05900
C 	C 	0.28580 0.54720 0.91740 -0.03700
H 	H 	0.29120 0.49410 0.94710 0.04700
H 	H 	0.27960 0.59650 0.94790 0.04500
C 	C 	0.31030 0.64430 0.82970 -0.04400
H 	H 	0.30680 0.70170 0.85340 0.05000
H 	H 	0.33100 0.65050 0.80460 0.05200
C 	C 	0.34870 0.55930 0.91720 0.16400
C 	C 	0.38430 0.49070 0.00610 0.16000
C 	C 	0.40740 0.58500 0.93000 0.11400
C 	C 	0.41370 0.76160 0.82840 0.43000
C 	C 	0.43310 0.67030 0.83760 -0.36800
H 	H 	0.45650 0.67710 0.82310 0.13900
H 	H 	0.42090 0.62510 0.80680 0.14600
C 	C 	0.47880 0.64310 0.02270 0.40100
C 	C 	0.47070 0.60930 0.94640 -0.37700
H 	H 	0.47200 0.54340 0.94620 0.17100
H 	H 	0.48840 0.63230 0.91790 0.14000
C 	C 	0.44120 0.45960 0.15420 0.38600
C 	C 	0.42410 0.40240 0.09100 -0.26700
H 	H 	0.42250 0.33960 0.10630 0.12200
H 	H 	0.43910 0.40400 0.05280 0.13000
C 	C 	0.33890 0.32540 0.07040 0.37300
C 	C 	0.35930 0.40710 0.10160 -0.27400
H 	H 	0.36770 0.39380 0.15080 0.12900
H 	H 	0.34350 0.45860 0.10170 0.13300
C 	C 	0.34580 0.97600 0.85350 0.14100
H 	H 	0.36730 0.00210 0.86880 -0.02600
C 	C 	0.31260 0.88240 0.77720 0.14200
H 	H 	0.31090 0.84270 0.73870 -0.02700
C 	C 	0.31720 0.99580 0.89130 -0.26900
H 	H 	0.31960 0.03510 0.93010 0.14100
C 	C 	0.28270 0.89740 0.81110 -0.25700
H 	H 	0.26160 0.86950 0.79520 0.12000
C 	C 	0.28540 0.95610 0.87000 0.24600
C 	C 	0.25420 0.97820 0.91040 -0.38800
H 	H 	0.26110 0.96710 0.96050 0.14200
H 	H 	0.24970 0.04300 0.90520 0.15500
C 	C 	0.21950 0.92900 0.89090 0.15900
H 	H 	0.20170 0.95800 0.91610 -0.02000
H 	H 	0.21280 0.93730 0.84030 -0.02000
C 	C 	0.21920 0.82560 0.90730 -0.36900
H 	H 	0.23750 0.81200 0.94530 0.13000
H 	H 	0.22430 0.79200 0.86540 0.14300
C 	C 	0.18450 0.79510 0.92940 0.22900
C 	C 	0.18210 0.74210 0.99070 -0.24500
H 	H 	0.20250 0.72100 0.01630 0.10700
C 	C 	0.15270 0.82220 0.89250 -0.25200
H 	H 	0.15250 0.85470 0.85010 0.13400
C 	C 	0.15070 0.72110 0.01380 0.12400
H 	H 	0.15020 0.68500 0.05420 -0.02800
C 	C 	0.12150 0.80050 0.91940 0.14300
H 	H 	0.10080 0.82090 0.89480 -0.04800
O 	O 	0.14919 0.37750 0.85160 -0.49700
O 	O 	0.18489 0.42040 0.94630 -0.47300
O 	O 	0.04410 0.61680 0.73680 -0.28300
O 	O 	0.08147 0.50380 0.71840 -0.44600
O 	O 	0.07430 0.80490 0.66580 -0.43600
O 	O 	0.12030 0.86720 0.72840 -0.37900
O 	O 	0.21604 0.70670 0.55950 -0.49600
O 	O 	0.24830 0.82750 0.59180 -0.51200
O 	O 	0.50510 0.60870 0.05660 -0.31700
O 	O 	0.45957 0.70380 0.04750 -0.50500
O 	O 	0.40400 0.78150 0.76370 -0.47500
O 	O 	0.40994 0.81250 0.88020 -0.53100
O 	O 	0.46940 0.42840 0.18450 -0.34200
O 	O 	0.42540 0.53080 0.16930 -0.49000
O 	O 	0.30889 0.31390 0.09200 -0.46000
O 	O 	0.35150 0.27560 0.02680 -0.33800
N 	N 	0.13020 0.56360 0.82960 -0.10000
N 	N 	0.16710 0.75670 0.65820 -0.04000
N 	N 	0.14730 0.65740 0.73970 -0.15500
N 	N 	0.20900 0.68520 0.73580 -0.15800
N 	N 	0.18950 0.58110 0.82060 -0.15900
N 	N 	0.24810 0.60300 0.81450 -0.11600
N 	N 	0.31660 0.57280 0.88370 -0.12100
N 	N 	0.37640 0.60200 0.89250 -0.16200
N 	N 	0.35130 0.50400 0.97630 -0.15600
N 	N 	0.41374 0.52940 0.98630 -0.15100
N 	N 	0.38940 0.43320 0.06360 -0.04800
N 	N 	0.43570 0.63750 0.91310 -0.11100
N 	N 	0.11960 0.75120 0.97930 -0.28600
N 	N 	0.34370 0.92100 0.79620 -0.26600
Zn	Zn	0.20815 0.69875 0.45336 1.23300
Zn	Zn	0.93920 0.88771 0.75048 1.15900
Zn	Zn	0.92777 0.72488 0.47921 1.17900
Zn	Zn	0.88597 0.59330 0.23351 1.20900
C 	C 	0.66000 0.06490 0.39810 0.42300
C 	C 	0.64140 0.97300 0.40060 -0.34700
H 	H 	0.65700 0.92980 0.42640 0.15000
H 	H 	0.62100 0.98010 0.42650 0.10500
C 	C 	0.57270 0.92700 0.25240 0.35500
C 	C 	0.59550 0.89280 0.31730 -0.30400
H 	H 	0.58320 0.90230 0.35900 0.08400
H 	H 	0.59880 0.82770 0.31230 0.11500
C 	C 	0.60800 0.68300 0.17870 0.34900
C 	C 	0.63130 0.72980 0.13030 -0.28000
H 	H 	0.63100 0.69440 0.08680 0.14600
H 	H 	0.62120 0.78880 0.11740 0.14000
C 	C 	0.72190 0.72090 0.09350 0.46700
C 	C 	0.69490 0.68200 0.13830 -0.32700
H 	H 	0.68380 0.63080 0.11270 0.14700
H 	H 	0.70730 0.65830 0.18190 0.14600
C 	C 	0.65690 0.89680 0.29440 0.14200
C 	C 	0.67520 0.80310 0.21340 0.16500
C 	C 	0.71500 0.87750 0.28840 0.16400
C 	C 	0.75540 0.97370 0.36420 -0.07000
H 	H 	0.73490 0.98570 0.38890 0.06400
H 	H 	0.76030 0.02800 0.33780 0.06600
C 	C 	0.77910 0.87400 0.27610 -0.06700
H 	H 	0.78420 0.92420 0.24550 0.06200
H 	H 	0.77400 0.82070 0.24660 0.05900
C 	C 	0.78580 0.95280 0.41740 -0.03700
H 	H 	0.79120 0.00590 0.44710 0.04700
H 	H 	0.77960 0.90350 0.44790 0.04500
C 	C 	0.81030 0.85570 0.32970 -0.04400
H 	H 	0.80680 0.79830 0.35340 0.05000
H 	H 	0.83100 0.84950 0.30460 0.05200
C 	C 	0.84870 0.94070 0.41720 0.16400
C 	C 	0.88430 0.00930 0.50610 0.16000
C 	C 	0.90740 0.91500 0.43000 0.11400
C 	C 	0.91370 0.73840 0.32840 0.43000
C 	C 	0.93310 0.82970 0.33760 -0.36800
H 	H 	0.95650 0.82290 0.32310 0.13900
H 	H 	0.92090 0.87490 0.30680 0.14600
C 	C 	0.97880 0.85690 0.52270 0.40000
C 	C 	0.97070 0.89070 0.44640 -0.37700
H 	H 	0.97200 0.95660 0.44620 0.17100
H 	H 	0.98840 0.86770 0.41790 0.14000
C 	C 	0.94120 0.04040 0.65420 0.38700
C 	C 	0.92410 0.09760 0.59100 -0.26800
H 	H 	0.92250 0.16040 0.60630 0.12200
H 	H 	0.93910 0.09600 0.55280 0.13000
C 	C 	0.83890 0.17460 0.57040 0.37300
C 	C 	0.85930 0.09290 0.60160 -0.27400
H 	H 	0.86770 0.10620 0.65080 0.12900
H 	H 	0.84350 0.04140 0.60170 0.13300
C 	C 	0.84580 0.52400 0.35350 0.14200
H 	H 	0.86730 0.49790 0.36880 -0.02700
C 	C 	0.81260 0.61760 0.27720 0.14100
H 	H 	0.81090 0.65730 0.23870 -0.02700
C 	C 	0.81720 0.50420 0.39130 -0.26500
H 	H 	0.81960 0.46490 0.43010 0.13900
C 	C 	0.78270 0.60260 0.31110 -0.25500
H 	H 	0.76160 0.63050 0.29520 0.11900
C 	C 	0.78540 0.54390 0.37000 0.24300
C 	C 	0.75420 0.52180 0.41040 -0.38100
H 	H 	0.76110 0.53290 0.46050 0.14000
H 	H 	0.74970 0.45700 0.40520 0.15200
C 	C 	0.71950 0.57100 0.39090 0.15300
H 	H 	0.70170 0.54200 0.41610 -0.01800
H 	H 	0.71280 0.56270 0.34030 -0.01800
C 	C 	0.71920 0.67440 0.40730 -0.36500
H 	H 	0.73750 0.68800 0.44530 0.12900
H 	H 	0.72430 0.70800 0.36540 0.14200
C 	C 	0.68450 0.70490 0.42940 0.22600
C 	C 	0.68210 0.75790 0.49070 -0.24000
H 	H 	0.70250 0.77900 0.51630 0.10400
C 	C 	0.65270 0.67780 0.39250 -0.24900
H 	H 	0.65250 0.64530 0.35010 0.13400
C 	C 	0.65070 0.77890 0.51380 0.11900
H 	H 	0.65020 0.81500 0.55420 -0.02700
C 	C 	0.62150 0.69950 0.41940 0.14200
H 	H 	0.60080 0.67910 0.39480 -0.04800
O 	O 	0.64919 0.12250 0.35160 -0.49700
O 	O 	0.68489 0.07960 0.44630 -0.47300
O 	O 	0.54410 0.88320 0.23680 -0.28300
O 	O 	0.58147 0.99620 0.21840 -0.44600
O 	O 	0.57430 0.69510 0.16580 -0.43600
O 	O 	0.62030 0.63280 0.22840 -0.37800
O 	O 	0.71604 0.79330 0.05950 -0.49600
O 	O 	0.74830 0.67250 0.09180 -0.51100
O 	O 	0.00510 0.89130 0.55660 -0.31700
O 	O 	0.95957 0.79620 0.54750 -0.50500
O 	O 	0.90400 0.71850 0.26370 -0.47500
O 	O 	0.90994 0.68750 0.38020 -0.53100
O 	O 	0.96940 0.07160 0.68450 -0.34200
O 	O 	0.92540 0.96920 0.66930 -0.49000
O 	O 	0.80889 0.18610 0.59200 -0.46000
O 	O 	0.85150 0.22440 0.52680 -0.33800
N 	N 	0.63020 0.93640 0.32960 -0.10000
N 	N 	0.66710 0.74330 0.15820 -0.04000
N 	N 	0.64730 0.84260 0.23970 -0.15500
N 	N 	0.70900 0.81480 0.23580 -0.15800
N 	N 	0.68950 0.91890 0.32060 -0.15900
N 	N 	0.74810 0.89700 0.31450 -0.11600
N 	N 	0.81660 0.92720 0.38370 -0.12100
N 	N 	0.87640 0.89800 0.39250 -0.16200
N 	N 	0.85130 0.99600 0.47630 -0.15700
N 	N 	0.91374 0.97060 0.48630 -0.15100
N 	N 	0.88940 0.06680 0.56360 -0.04800
N 	N 	0.93570 0.86250 0.41310 -0.11100
N 	N 	0.61960 0.74880 0.47930 -0.28500
N 	N 	0.84370 0.57900 0.29620 -0.26500
Zn	Zn	0.70815 0.80125 0.95336 1.23300
Zn	Zn	0.56080 0.38771 0.74952 1.15900
Zn	Zn	0.57223 0.22488 0.02079 1.17900
Zn	Zn	0.61403 0.09330 0.26649 1.20800
C 	C 	0.84000 0.56490 0.10190 0.42400
C 	C 	0.85860 0.47300 0.09940 -0.34700
H 	H 	0.84300 0.42980 0.07360 0.15000
H 	H 	0.87900 0.48010 0.07350 0.10500
C 	C 	0.92730 0.42700 0.24760 0.35500
C 	C 	0.90450 0.39280 0.18270 -0.30500
H 	H 	0.91680 0.40230 0.14100 0.08400
H 	H 	0.90120 0.32770 0.18770 0.11500
C 	C 	0.89200 0.18300 0.32130 0.34900
C 	C 	0.86870 0.22980 0.36970 -0.27900
H 	H 	0.86900 0.19440 0.41320 0.14600
H 	H 	0.87880 0.28880 0.38260 0.14000
C 	C 	0.77810 0.22090 0.40650 0.46700
C 	C 	0.80510 0.18200 0.36170 -0.32700
H 	H 	0.81620 0.13080 0.38730 0.14700
H 	H 	0.79270 0.15830 0.31810 0.14600
C 	C 	0.84310 0.39680 0.20560 0.14200
C 	C 	0.82480 0.30310 0.28660 0.16500
C 	C 	0.78500 0.37750 0.21160 0.16400
C 	C 	0.74460 0.47370 0.13580 -0.07200
H 	H 	0.76510 0.48570 0.11110 0.06500
H 	H 	0.73970 0.52800 0.16220 0.06700
C 	C 	0.72090 0.37400 0.22390 -0.06700
H 	H 	0.71580 0.42420 0.25450 0.06200
H 	H 	0.72600 0.32070 0.25340 0.05900
C 	C 	0.71420 0.45280 0.08260 -0.03700
H 	H 	0.70880 0.50590 0.05290 0.04700
H 	H 	0.72040 0.40350 0.05210 0.04500
C 	C 	0.68970 0.35570 0.17030 -0.04400
H 	H 	0.69320 0.29830 0.14660 0.05000
H 	H 	0.66900 0.34950 0.19540 0.05200
C 	C 	0.65130 0.44070 0.08280 0.16400
C 	C 	0.61570 0.50930 0.99390 0.16000
C 	C 	0.59260 0.41500 0.07000 0.11400
C 	C 	0.58630 0.23840 0.17160 0.43000
C 	C 	0.56690 0.32970 0.16240 -0.36800
H 	H 	0.54350 0.32290 0.17690 0.13900
H 	H 	0.57910 0.37490 0.19320 0.14600
C 	C 	0.52120 0.35690 0.97730 0.40100
C 	C 	0.52930 0.39070 0.05360 -0.37700
H 	H 	0.52800 0.45660 0.05380 0.17100
H 	H 	0.51160 0.36770 0.08210 0.14000
C 	C 	0.55880 0.54040 0.84580 0.38600
C 	C 	0.57590 0.59760 0.90900 -0.26700
H 	H 	0.57750 0.66040 0.89370 0.12200
H 	H 	0.56090 0.59600 0.94720 0.13000
C 	C 	0.66110 0.67460 0.92960 0.37300
C 	C 	0.64070 0.59290 0.89840 -0.27400
H 	H 	0.63230 0.60620 0.84920 0.12900
H 	H 	0.65650 0.54140 0.89830 0.13300
C 	C 	0.65420 0.02400 0.14650 0.14100
H 	H 	0.63270 0.99790 0.13120 -0.02600
C 	C 	0.68740 0.11760 0.22280 0.14200
H 	H 	0.68910 0.15730 0.26130 -0.02700
C 	C 	0.68280 0.00420 0.10870 -0.26900
H 	H 	0.68040 0.96490 0.06990 0.14100
C 	C 	0.71730 0.10260 0.18890 -0.25700
H 	H 	0.73840 0.13050 0.20480 0.12000
C 	C 	0.71460 0.04390 0.13000 0.24600
C 	C 	0.74580 0.02180 0.08960 -0.38800
H 	H 	0.73890 0.03290 0.03950 0.14200
H 	H 	0.75030 0.95700 0.09480 0.15500
C 	C 	0.78050 0.07100 0.10910 0.15900
H 	H 	0.79830 0.04200 0.08390 -0.02000
H 	H 	0.78720 0.06270 0.15970 -0.02000
C 	C 	0.78080 0.17440 0.09270 -0.36900
H 	H 	0.76250 0.18800 0.05470 0.13000
H 	H 	0.77570 0.20800 0.13460 0.14300
C 	C 	0.81550 0.20490 0.07060 0.22900
C 	C 	0.81790 0.25790 0.00930 -0.24500
H 	H 	0.79750 0.27900 0.98370 0.10700
C 	C 	0.84730 0.17780 0.10750 -0.25200
H 	H 	0.84750 0.14530 0.14990 0.13400
C 	C 	0.84930 0.27890 0.98620 0.12400
H 	H 	0.84980 0.31500 0.94580 -0.02800
C 	C 	0.87850 0.19950 0.08060 0.14300
H 	H 	0.89920 0.17910 0.10520 -0.04800
O 	O 	0.85081 0.62250 0.14840 -0.49700
O 	O 	0.81511 0.57960 0.05370 -0.47300
O 	O 	0.95590 0.38320 0.26320 -0.28300
O 	O 	0.91853 0.49620 0.28160 -0.44600
O 	O 	0.92570 0.19510 0.33420 -0.43600
O 	O 	0.87970 0.13280 0.27160 -0.37900
O 	O 	0.78396 0.29330 0.44050 -0.49600
O 	O 	0.75170 0.17250 0.40820 -0.51200
O 	O 	0.49490 0.39130 0.94340 -0.31700
O 	O 	0.54043 0.29620 0.95250 -0.50500
O 	O 	0.59600 0.21850 0.23630 -0.47500
O 	O 	0.59006 0.18750 0.11980 -0.53100
O 	O 	0.53060 0.57160 0.81550 -0.34200
O 	O 	0.57460 0.46920 0.83070 -0.49000
O 	O 	0.69111 0.68610 0.90800 -0.46000
O 	O 	0.64850 0.72440 0.97320 -0.33800
N 	N 	0.86980 0.43640 0.17040 -0.10000
N 	N 	0.83290 0.24330 0.34180 -0.04000
N 	N 	0.85270 0.34260 0.26030 -0.15500
N 	N 	0.79100 0.31480 0.26420 -0.15800
N 	N 	0.81050 0.41890 0.17940 -0.15900
N 	N 	0.75190 0.39700 0.18550 -0.11600
N 	N 	0.68340 0.42720 0.11630 -0.12100
N 	N 	0.62360 0.39800 0.10750 -0.16200
N 	N 	0.64870 0.49600 0.02370 -0.15600
N 	N 	0.58626 0.47060 0.01370 -0.15100
N 	N 	0.61060 0.56680 0.93640 -0.04800
N 	N 	0.56430 0.36250 0.08690 -0.11100
N 	N 	0.88040 0.24880 0.02070 -0.28600
N 	N 	0.65630 0.07900 0.20380 -0.26600
Zn	Zn	0.79185 0.30125 0.54664 1.23300
Zn	Zn	0.56080 0.61229 0.24952 1.15900
Zn	Zn	0.57223 0.77512 0.52079 1.17900
Zn	Zn	0.61403 0.90670 0.76649 1.20800
C 	C 	0.84000 0.43510 0.60190 0.42400
C 	C 	0.85860 0.52700 0.59940 -0.34700
H 	H 	0.84300 0.57020 0.57360 0.15000
H 	H 	0.87900 0.51990 0.57350 0.10500
C 	C 	0.92730 0.57300 0.74760 0.35500
C 	C 	0.90450 0.60720 0.68270 -0.30500
H 	H 	0.91680 0.59770 0.64100 0.08400
H 	H 	0.90120 0.67230 0.68770 0.11500
C 	C 	0.89200 0.81700 0.82130 0.34900
C 	C 	0.86870 0.77020 0.86970 -0.27900
H 	H 	0.86900 0.80560 0.91320 0.14600
H 	H 	0.87880 0.71120 0.88260 0.14000
C 	C 	0.77810 0.77910 0.90650 0.46700
C 	C 	0.80510 0.81800 0.86170 -0.32700
H 	H 	0.81620 0.86920 0.88730 0.14600
H 	H 	0.79270 0.84170 0.81810 0.14600
C 	C 	0.84310 0.60320 0.70560 0.14200
C 	C 	0.82480 0.69690 0.78660 0.16500
C 	C 	0.78500 0.62250 0.71160 0.16400
C 	C 	0.74460 0.52630 0.63580 -0.07200
H 	H 	0.76510 0.51430 0.61110 0.06500
H 	H 	0.73970 0.47200 0.66220 0.06700
C 	C 	0.72090 0.62600 0.72390 -0.06700
H 	H 	0.71580 0.57580 0.75450 0.06200
H 	H 	0.72600 0.67930 0.75340 0.05900
C 	C 	0.71420 0.54720 0.58260 -0.03700
H 	H 	0.70880 0.49410 0.55290 0.04700
H 	H 	0.72040 0.59650 0.55210 0.04500
C 	C 	0.68970 0.64430 0.67030 -0.04400
H 	H 	0.69320 0.70170 0.64660 0.05000
H 	H 	0.66900 0.65050 0.69540 0.05200
C 	C 	0.65130 0.55930 0.58280 0.16400
C 	C 	0.61570 0.49070 0.49390 0.16000
C 	C 	0.59260 0.58500 0.57000 0.11400
C 	C 	0.58630 0.76160 0.67160 0.43000
C 	C 	0.56690 0.67030 0.66240 -0.36800
H 	H 	0.54350 0.67710 0.67690 0.13900
H 	H 	0.57910 0.62510 0.69320 0.14600
C 	C 	0.52120 0.64310 0.47730 0.40000
C 	C 	0.52930 0.60930 0.55360 -0.37700
H 	H 	0.52800 0.54340 0.55380 0.17100
H 	H 	0.51160 0.63230 0.58210 0.14000
C 	C 	0.55880 0.45960 0.34580 0.38600
C 	C 	0.57590 0.40240 0.40900 -0.26700
H 	H 	0.57750 0.33960 0.39370 0.12200
H 	H 	0.56090 0.40400 0.44720 0.13000
C 	C 	0.66110 0.32540 0.42960 0.37300
C 	C 	0.64070 0.40710 0.39840 -0.27400
H 	H 	0.63230 0.39380 0.34920 0.12900
H 	H 	0.65650 0.45860 0.39830 0.13300
C 	C 	0.65420 0.97600 0.64650 0.14100
H 	H 	0.63270 0.00210 0.63120 -0.02600
C 	C 	0.68740 0.88240 0.72280 0.14100
H 	H 	0.68910 0.84270 0.76130 -0.02700
C 	C 	0.68280 0.99580 0.60870 -0.26500
H 	H 	0.68040 0.03510 0.56990 0.13900
C 	C 	0.71730 0.89740 0.68890 -0.25500
H 	H 	0.73840 0.86950 0.70480 0.12000
C 	C 	0.71460 0.95610 0.63000 0.24300
C 	C 	0.74580 0.97820 0.58960 -0.38300
H 	H 	0.73890 0.96710 0.53950 0.14100
H 	H 	0.75030 0.04300 0.59480 0.15300
C 	C 	0.78050 0.92900 0.60910 0.15500
H 	H 	0.79830 0.95800 0.58390 -0.01800
H 	H 	0.78720 0.93730 0.65970 -0.01800
C 	C 	0.78080 0.82560 0.59270 -0.36600
H 	H 	0.76250 0.81200 0.55470 0.12900
H 	H 	0.77570 0.79200 0.63460 0.14200
C 	C 	0.81550 0.79510 0.57060 0.22600
C 	C 	0.81790 0.74210 0.50930 -0.24000
H 	H 	0.79750 0.72100 0.48370 0.10400
C 	C 	0.84730 0.82220 0.60750 -0.25000
H 	H 	0.84750 0.85470 0.64990 0.13400
C 	C 	0.84930 0.72110 0.48620 0.11900
H 	H 	0.84980 0.68500 0.44580 -0.02700
C 	C 	0.87850 0.80050 0.58060 0.14200
H 	H 	0.89920 0.82090 0.60520 -0.04800
O 	O 	0.85081 0.37750 0.64840 -0.49700
O 	O 	0.81511 0.42040 0.55370 -0.47300
O 	O 	0.95590 0.61680 0.76320 -0.28300
O 	O 	0.91853 0.50380 0.78160 -0.44600
O 	O 	0.92570 0.80490 0.83420 -0.43600
O 	O 	0.87970 0.86720 0.77160 -0.37900
O 	O 	0.78396 0.70670 0.94050 -0.49700
O 	O 	0.75170 0.82750 0.90820 -0.51200
O 	O 	0.49490 0.60870 0.44340 -0.31700
O 	O 	0.54043 0.70380 0.45250 -0.50500
O 	O 	0.59600 0.78150 0.73630 -0.47500
O 	O 	0.59006 0.81250 0.61980 -0.53100
O 	O 	0.53060 0.42840 0.31550 -0.34200
O 	O 	0.57460 0.53080 0.33070 -0.49000
O 	O 	0.69111 0.31390 0.40800 -0.46000
O 	O 	0.64850 0.27560 0.47320 -0.33800
N 	N 	0.86980 0.56360 0.67040 -0.10000
N 	N 	0.83290 0.75670 0.84180 -0.04000
N 	N 	0.85270 0.65740 0.76030 -0.15500
N 	N 	0.79100 0.68520 0.76420 -0.15800
N 	N 	0.81050 0.58110 0.67940 -0.15900
N 	N 	0.75190 0.60300 0.68550 -0.11600
N 	N 	0.68340 0.57280 0.61630 -0.12100
N 	N 	0.62360 0.60200 0.60750 -0.16200
N 	N 	0.64870 0.50400 0.52370 -0.15700
N 	N 	0.58626 0.52940 0.51370 -0.15100
N 	N 	0.61060 0.43320 0.43640 -0.04800
N 	N 	0.56430 0.63750 0.58690 -0.11100
N 	N 	0.88040 0.75120 0.52070 -0.28500
N 	N 	0.65630 0.92100 0.70380 -0.26600
Zn	Zn	0.79185 0.69875 0.04664 1.23400
Zn	Zn	0.93920 0.11229 0.25048 1.15900
Zn	Zn	0.92777 0.27512 0.97921 1.17900
Zn	Zn	0.88597 0.40670 0.73351 1.20900
C 	C 	0.66000 0.93510 0.89810 0.42200
C 	C 	0.64140 0.02700 0.90060 -0.34600
H 	H 	0.65700 0.07020 0.92640 0.15000
H 	H 	0.62100 0.01990 0.92650 0.10500
C 	C 	0.57270 0.07300 0.75240 0.35500
C 	C 	0.59550 0.10720 0.81730 -0.30500
H 	H 	0.58320 0.09770 0.85900 0.08400
H 	H 	0.59880 0.17230 0.81230 0.11500
C 	C 	0.60800 0.31700 0.67870 0.34900
C 	C 	0.63130 0.27020 0.63030 -0.27900
H 	H 	0.63100 0.30560 0.58680 0.14600
H 	H 	0.62120 0.21120 0.61740 0.14000
C 	C 	0.72190 0.27910 0.59350 0.46700
C 	C 	0.69490 0.31800 0.63830 -0.32700
H 	H 	0.68380 0.36920 0.61270 0.14700
H 	H 	0.70730 0.34170 0.68190 0.14600
C 	C 	0.65690 0.10320 0.79440 0.14200
C 	C 	0.67520 0.19690 0.71340 0.16500
C 	C 	0.71500 0.12250 0.78840 0.16400
C 	C 	0.75540 0.02630 0.86420 -0.07100
H 	H 	0.73490 0.01430 0.88890 0.06500
H 	H 	0.76030 0.97200 0.83780 0.06500
C 	C 	0.77910 0.12600 0.77610 -0.06700
H 	H 	0.78420 0.07580 0.74550 0.06200
H 	H 	0.77400 0.17930 0.74660 0.05900
C 	C 	0.78580 0.04720 0.91740 -0.03400
H 	H 	0.79120 0.99410 0.94710 0.04500
H 	H 	0.77960 0.09650 0.94790 0.04400
C 	C 	0.81030 0.14430 0.82970 -0.04400
H 	H 	0.80680 0.20170 0.85340 0.05000
H 	H 	0.83100 0.15050 0.80460 0.05200
C 	C 	0.84870 0.05930 0.91720 0.16400
C 	C 	0.88430 0.99070 0.00610 0.16100
C 	C 	0.90740 0.08500 0.93000 0.11400
C 	C 	0.91370 0.26160 0.82840 0.43000
C 	C 	0.93310 0.17030 0.83760 -0.36800
H 	H 	0.95650 0.17710 0.82310 0.13900
H 	H 	0.92090 0.12510 0.80680 0.14600
C 	C 	0.97880 0.14310 0.02270 0.39900
C 	C 	0.97070 0.10930 0.94640 -0.37500
H 	H 	0.97200 0.04340 0.94620 0.17100
H 	H 	0.98840 0.13230 0.91790 0.14000
C 	C 	0.94120 0.95960 0.15420 0.38800
C 	C 	0.92410 0.90240 0.09100 -0.26800
H 	H 	0.92250 0.83960 0.10630 0.12300
H 	H 	0.93910 0.90400 0.05280 0.13100
C 	C 	0.83890 0.82540 0.07040 0.37300
C 	C 	0.85930 0.90710 0.10160 -0.27400
H 	H 	0.86770 0.89380 0.15080 0.12900
H 	H 	0.84350 0.95860 0.10170 0.13400
C 	C 	0.84580 0.47600 0.85350 0.14200
H 	H 	0.86730 0.50210 0.86880 -0.02700
C 	C 	0.81260 0.38240 0.77720 0.14100
H 	H 	0.81090 0.34270 0.73870 -0.02700
C 	C 	0.81720 0.49580 0.89130 -0.26400
H 	H 	0.81960 0.53510 0.93010 0.13800
C 	C 	0.78270 0.39740 0.81110 -0.25500
H 	H 	0.76160 0.36950 0.79520 0.11900
C 	C 	0.78540 0.45610 0.87000 0.24200
C 	C 	0.75420 0.47820 0.91040 -0.38000
H 	H 	0.76110 0.46710 0.96050 0.14000
H 	H 	0.74970 0.54300 0.90520 0.15200
C 	C 	0.71950 0.42900 0.89090 0.15200
H 	H 	0.70170 0.45800 0.91610 -0.01700
H 	H 	0.71280 0.43730 0.84030 -0.01800
C 	C 	0.71920 0.32560 0.90730 -0.36300
H 	H 	0.73750 0.31200 0.94530 0.12900
H 	H 	0.72430 0.29200 0.86540 0.14100
C 	C 	0.68450 0.29510 0.92940 0.22300
C 	C 	0.68210 0.24210 0.99070 -0.23300
H 	H 	0.70250 0.22100 0.01630 0.10200
C 	C 	0.65270 0.32220 0.89250 -0.24700
H 	H 	0.65250 0.35470 0.85010 0.13300
C 	C 	0.65070 0.22110 0.01380 0.11500
H 	H 	0.65020 0.18500 0.05420 -0.02500
C 	C 	0.62150 0.30050 0.91940 0.14100
H 	H 	0.60080 0.32090 0.89480 -0.04700
O 	O 	0.64919 0.87750 0.85160 -0.49700
O 	O 	0.68489 0.92040 0.94630 -0.47400
O 	O 	0.54410 0.11680 0.73680 -0.28300
O 	O 	0.58147 0.00380 0.71840 -0.44600
O 	O 	0.57430 0.30490 0.66580 -0.43600
O 	O 	0.62030 0.36720 0.72840 -0.37800
O 	O 	0.71604 0.20670 0.55950 -0.49600
O 	O 	0.74830 0.32750 0.59180 -0.51200
O 	O 	0.00510 0.10870 0.05660 -0.31800
O 	O 	0.95957 0.20380 0.04750 -0.50500
O 	O 	0.90400 0.28150 0.76370 -0.47500
O 	O 	0.90994 0.31250 0.88020 -0.53100
O 	O 	0.96940 0.92840 0.18450 -0.34200
O 	O 	0.92540 0.03080 0.16930 -0.49100
O 	O 	0.80889 0.81390 0.09200 -0.46000
O 	O 	0.85150 0.77560 0.02680 -0.33700
N 	N 	0.63020 0.06360 0.82960 -0.10000
N 	N 	0.66710 0.25670 0.65820 -0.04000
N 	N 	0.64730 0.15740 0.73970 -0.15500
N 	N 	0.70900 0.18520 0.73580 -0.15800
N 	N 	0.68950 0.08110 0.82060 -0.15900
N 	N 	0.74810 0.10300 0.81450 -0.11600
N 	N 	0.81660 0.07280 0.88370 -0.12100
N 	N 	0.87640 0.10200 0.89250 -0.16200
N 	N 	0.85130 0.00400 0.97630 -0.15600
N 	N 	0.91374 0.02940 0.98630 -0.15100
N 	N 	0.88940 0.93320 0.06360 -0.04800
N 	N 	0.93570 0.13750 0.91310 -0.11100
N 	N 	0.61960 0.25120 0.97930 -0.28300
N 	N 	0.84370 0.42100 0.79620 -0.26500
Zn	Zn	0.70815 0.19875 0.45336 1.23300
