data_crystal

_cell_length_a 16.18300
_cell_length_b 28.45500
_cell_length_c 17.23000
_cell_angle_alpha 90.00000
_cell_angle_beta  90.00000
_cell_angle_gamma 90.00000

_symmetry_space_group_name_	'P 1'
_symmetry_space_group_name_H-M	'P 1'

loop_
_symmetry_equiv_pos_as_xyz
  x,y,z

loop_
_atom_site_label
_atom_site_type_symbol
_atom_site_fract_x
_atom_site_fract_y
_atom_site_fract_z
_atom_site_charge
Cd	Cd	0.84582 0.36880 0.02673 1.22700
O 	O 	0.87840 0.36045 0.16370 -0.40500
O 	O 	0.74930 0.36778 0.12880 -0.43500
O 	O 	0.76550 0.39282 0.44670 -0.34700
O 	O 	0.00580 0.63892 0.98490 -0.35500
O 	O 	0.65300 0.37333 0.38760 -0.34200
N 	N 	0.88750 0.44589 0.04900 -0.23800
N 	N 	0.91880 0.62406 0.08420 -0.21400
H 	H 	0.87090 0.63110 0.10550 0.14000
N 	N 	0.85080 0.78713 0.98680 -0.21800
C 	C 	0.87560 0.52960 0.03470 -0.18800
H 	H 	0.84920 0.55520 0.00940 0.10500
C 	C 	0.94590 0.45390 0.10170 0.08900
H 	H 	0.97170 0.42750 0.12530 -0.00600
C 	C 	0.93540 0.53720 0.08970 0.12600
C 	C 	0.80310 0.36190 0.18030 0.42900
C 	C 	0.77580 0.35570 0.26400 -0.51500
H 	H 	0.81720 0.33620 0.29150 0.18300
H 	H 	0.72270 0.33840 0.26470 0.18600
C 	C 	0.76500 0.40190 0.30810 0.37400
C 	C 	0.84930 0.42540 0.31930 -0.70500
H 	H 	0.88830 0.40270 0.34120 0.24600
H 	H 	0.84360 0.45210 0.35480 0.22700
H 	H 	0.86990 0.43650 0.26910 0.23100
C 	C 	0.85460 0.48340 0.01680 0.10000
H 	H 	0.81340 0.47860 0.97840 -0.02400
C 	C 	0.97090 0.49800 0.12380 -0.18000
H 	H 	0.01250 0.50160 0.16230 0.07100
C 	C 	0.90450 0.69620 0.01140 -0.01900
C 	C 	0.96540 0.58490 0.11430 -0.10200
H 	H 	0.96440 0.58640 0.17170 0.04800
H 	H 	0.02360 0.58840 0.09760 0.06400
C 	C 	0.94610 0.64990 0.02530 0.24000
C 	C 	0.86870 0.72180 0.06990 -0.08600
H 	H 	0.86200 0.70840 0.12000 0.05600
C 	C 	0.90950 0.71640 0.93860 -0.08000
H 	H 	0.93130 0.69930 0.89590 0.06100
C 	C 	0.88250 0.76150 0.92950 0.04600
H 	H 	0.88650 0.77530 0.87950 0.00700
C 	C 	0.84250 0.76680 0.05560 0.05300
H 	H 	0.81740 0.78400 0.09650 0.00200
C 	C 	0.70550 0.43500 0.26440 -0.68400
H 	H 	0.73000 0.44380 0.21450 0.22600
H 	H 	0.69590 0.46330 0.29550 0.20900
H 	H 	0.65290 0.41880 0.25550 0.23200
C 	C 	0.72550 0.38840 0.38580 0.15400
Cd	Cd	0.65418 0.86880 0.47327 1.22800
O 	O 	0.62160 0.86045 0.33630 -0.40400
O 	O 	0.75070 0.86778 0.37120 -0.43400
O 	O 	0.73450 0.89282 0.05330 -0.34600
O 	O 	0.49420 0.13892 0.51510 -0.35400
O 	O 	0.84700 0.87333 0.11240 -0.34100
N 	N 	0.61250 0.94589 0.45100 -0.23700
N 	N 	0.58120 0.12406 0.41580 -0.21300
H 	H 	0.62910 0.13110 0.39450 0.14100
N 	N 	0.64920 0.28713 0.51320 -0.21700
C 	C 	0.62440 0.02960 0.46530 -0.18700
H 	H 	0.65080 0.05520 0.49060 0.10600
C 	C 	0.55410 0.95390 0.39830 0.08800
H 	H 	0.52830 0.92750 0.37470 -0.00600
C 	C 	0.56460 0.03720 0.41030 0.12500
C 	C 	0.69690 0.86190 0.31970 0.42900
C 	C 	0.72420 0.85570 0.23600 -0.51500
H 	H 	0.68280 0.83620 0.20850 0.18300
H 	H 	0.77730 0.83840 0.23530 0.18600
C 	C 	0.73500 0.90190 0.19190 0.37400
C 	C 	0.65070 0.92540 0.18070 -0.70500
H 	H 	0.61170 0.90270 0.15880 0.24700
H 	H 	0.65640 0.95210 0.14520 0.22700
H 	H 	0.63010 0.93650 0.23090 0.23100
C 	C 	0.64540 0.98340 0.48320 0.10000
H 	H 	0.68660 0.97860 0.52160 -0.02400
C 	C 	0.52910 0.99800 0.37620 -0.18000
H 	H 	0.48750 0.00160 0.33770 0.07100
C 	C 	0.59550 0.19620 0.48860 -0.01900
C 	C 	0.53460 0.08490 0.38570 -0.10200
H 	H 	0.53560 0.08640 0.32830 0.04800
H 	H 	0.47640 0.08840 0.40240 0.06400
C 	C 	0.55390 0.14990 0.47470 0.24000
C 	C 	0.63130 0.22180 0.43010 -0.08600
H 	H 	0.63800 0.20840 0.38000 0.05600
C 	C 	0.59050 0.21640 0.56140 -0.07900
H 	H 	0.56870 0.19930 0.60410 0.06100
C 	C 	0.61750 0.26150 0.57050 0.04600
H 	H 	0.61350 0.27530 0.62050 0.00700
C 	C 	0.65750 0.26680 0.44440 0.05300
H 	H 	0.68260 0.28400 0.40350 0.00200
C 	C 	0.79450 0.93500 0.23560 -0.68400
H 	H 	0.77000 0.94380 0.28550 0.22600
H 	H 	0.80410 0.96330 0.20450 0.20900
H 	H 	0.84710 0.91880 0.24450 0.23200
C 	C 	0.77450 0.88840 0.11420 0.15400
Cd	Cd	0.84582 0.86880 0.97327 1.22800
O 	O 	0.87840 0.86045 0.83630 -0.40400
O 	O 	0.74930 0.86778 0.87120 -0.43400
O 	O 	0.76550 0.89282 0.55330 -0.34600
O 	O 	0.00580 0.13892 0.01510 -0.35400
O 	O 	0.65300 0.87333 0.61240 -0.34100
N 	N 	0.88750 0.94589 0.95100 -0.23700
N 	N 	0.91880 0.12406 0.91580 -0.21300
H 	H 	0.87090 0.13110 0.89450 0.14100
N 	N 	0.85080 0.28713 0.01320 -0.21700
C 	C 	0.87560 0.02960 0.96530 -0.18700
H 	H 	0.84920 0.05520 0.99060 0.10600
C 	C 	0.94590 0.95390 0.89830 0.08900
H 	H 	0.97170 0.92750 0.87470 -0.00600
C 	C 	0.93540 0.03720 0.91030 0.12600
C 	C 	0.80310 0.86190 0.81970 0.42900
C 	C 	0.77580 0.85570 0.73600 -0.51500
H 	H 	0.81720 0.83620 0.70850 0.18300
H 	H 	0.72270 0.83840 0.73530 0.18600
C 	C 	0.76500 0.90190 0.69190 0.37400
C 	C 	0.84930 0.92540 0.68070 -0.70500
H 	H 	0.88830 0.90270 0.65880 0.24600
H 	H 	0.84360 0.95210 0.64520 0.22700
H 	H 	0.86990 0.93650 0.73090 0.23100
C 	C 	0.85460 0.98340 0.98320 0.10000
H 	H 	0.81340 0.97860 0.02160 -0.02400
C 	C 	0.97090 0.99800 0.87620 -0.18000
H 	H 	0.01250 0.00160 0.83770 0.07100
C 	C 	0.90450 0.19620 0.98860 -0.01900
C 	C 	0.96540 0.08490 0.88570 -0.10200
H 	H 	0.96440 0.08640 0.82830 0.04800
H 	H 	0.02360 0.08840 0.90240 0.06400
C 	C 	0.94610 0.14990 0.97470 0.24000
C 	C 	0.86870 0.22180 0.93010 -0.08600
H 	H 	0.86200 0.20840 0.88000 0.05600
C 	C 	0.90950 0.21640 0.06140 -0.08000
H 	H 	0.93130 0.19930 0.10410 0.06100
C 	C 	0.88250 0.26150 0.07050 0.04600
H 	H 	0.88650 0.27530 0.12050 0.00700
C 	C 	0.84250 0.26680 0.94440 0.05300
H 	H 	0.81740 0.28400 0.90350 0.00200
C 	C 	0.70550 0.93500 0.73560 -0.68400
H 	H 	0.73000 0.94380 0.78550 0.22600
H 	H 	0.69590 0.96330 0.70450 0.20900
H 	H 	0.65290 0.91880 0.74450 0.23200
C 	C 	0.72550 0.88840 0.61420 0.15400
Cd	Cd	0.65418 0.36880 0.52673 1.22800
O 	O 	0.62160 0.36045 0.66370 -0.40400
O 	O 	0.75070 0.36778 0.62880 -0.43400
O 	O 	0.73450 0.39282 0.94670 -0.34600
O 	O 	0.49420 0.63892 0.48490 -0.35400
O 	O 	0.84700 0.37333 0.88760 -0.34100
N 	N 	0.61250 0.44589 0.54900 -0.23700
N 	N 	0.58120 0.62406 0.58420 -0.21300
H 	H 	0.62910 0.63110 0.60550 0.14100
N 	N 	0.64920 0.78713 0.48680 -0.21700
C 	C 	0.62440 0.52960 0.53470 -0.18700
H 	H 	0.65080 0.55520 0.50940 0.10600
C 	C 	0.55410 0.45390 0.60170 0.08800
H 	H 	0.52830 0.42750 0.62530 -0.00600
C 	C 	0.56460 0.53720 0.58970 0.12500
C 	C 	0.69690 0.36190 0.68030 0.42900
C 	C 	0.72420 0.35570 0.76400 -0.51500
H 	H 	0.68280 0.33620 0.79150 0.18300
H 	H 	0.77730 0.33840 0.76470 0.18600
C 	C 	0.73500 0.40190 0.80810 0.37400
C 	C 	0.65070 0.42540 0.81930 -0.70500
H 	H 	0.61170 0.40270 0.84120 0.24700
H 	H 	0.65640 0.45210 0.85480 0.22700
H 	H 	0.63010 0.43650 0.76910 0.23100
C 	C 	0.64540 0.48340 0.51680 0.10000
H 	H 	0.68660 0.47860 0.47840 -0.02400
C 	C 	0.52910 0.49800 0.62380 -0.18000
H 	H 	0.48750 0.50160 0.66230 0.07100
C 	C 	0.59550 0.69620 0.51140 -0.01900
C 	C 	0.53460 0.58490 0.61430 -0.10200
H 	H 	0.53560 0.58640 0.67170 0.04800
H 	H 	0.47640 0.58840 0.59760 0.06400
C 	C 	0.55390 0.64990 0.52530 0.24000
C 	C 	0.63130 0.72180 0.56990 -0.08600
H 	H 	0.63800 0.70840 0.62000 0.05600
C 	C 	0.59050 0.71640 0.43860 -0.07900
H 	H 	0.56870 0.69930 0.39590 0.06100
C 	C 	0.61750 0.76150 0.42950 0.04600
H 	H 	0.61350 0.77530 0.37950 0.00700
C 	C 	0.65750 0.76680 0.55560 0.05300
H 	H 	0.68260 0.78400 0.59650 0.00200
C 	C 	0.79450 0.43500 0.76440 -0.68400
H 	H 	0.77000 0.44380 0.71450 0.22600
H 	H 	0.80410 0.46330 0.79550 0.20900
H 	H 	0.84710 0.41880 0.75550 0.23200
C 	C 	0.77450 0.38840 0.88580 0.15400
Cd	Cd	0.34582 0.86880 0.02673 1.22800
O 	O 	0.37840 0.86045 0.16370 -0.40400
O 	O 	0.24930 0.86778 0.12880 -0.43400
O 	O 	0.26550 0.89282 0.44670 -0.34600
O 	O 	0.50580 0.13892 0.98490 -0.35400
O 	O 	0.15300 0.87333 0.38760 -0.34100
N 	N 	0.38750 0.94589 0.04900 -0.23700
N 	N 	0.41880 0.12406 0.08420 -0.21300
H 	H 	0.37090 0.13110 0.10550 0.14100
N 	N 	0.35080 0.28713 0.98680 -0.21700
C 	C 	0.37560 0.02960 0.03470 -0.18700
H 	H 	0.34920 0.05520 0.00940 0.10600
C 	C 	0.44590 0.95390 0.10170 0.08900
H 	H 	0.47170 0.92750 0.12530 -0.00600
C 	C 	0.43540 0.03720 0.08970 0.12600
C 	C 	0.30310 0.86190 0.18030 0.42900
C 	C 	0.27580 0.85570 0.26400 -0.51500
H 	H 	0.31720 0.83620 0.29150 0.18300
H 	H 	0.22270 0.83840 0.26470 0.18600
C 	C 	0.26500 0.90190 0.30810 0.37400
C 	C 	0.34930 0.92540 0.31930 -0.70500
H 	H 	0.38830 0.90270 0.34120 0.24700
H 	H 	0.34360 0.95210 0.35480 0.22700
H 	H 	0.36990 0.93650 0.26910 0.23100
C 	C 	0.35460 0.98340 0.01680 0.10000
H 	H 	0.31340 0.97860 0.97840 -0.02400
C 	C 	0.47090 0.99800 0.12380 -0.18000
H 	H 	0.51250 0.00160 0.16230 0.07100
C 	C 	0.40450 0.19620 0.01140 -0.01900
C 	C 	0.46540 0.08490 0.11430 -0.10200
H 	H 	0.46440 0.08640 0.17170 0.04800
H 	H 	0.52360 0.08840 0.09760 0.06400
C 	C 	0.44610 0.14990 0.02530 0.24000
C 	C 	0.36870 0.22180 0.06990 -0.08600
H 	H 	0.36200 0.20840 0.12000 0.05600
C 	C 	0.40950 0.21640 0.93860 -0.08000
H 	H 	0.43130 0.19930 0.89590 0.06100
C 	C 	0.38250 0.26150 0.92950 0.04700
H 	H 	0.38650 0.27530 0.87950 0.00700
C 	C 	0.34250 0.26680 0.05560 0.05300
H 	H 	0.31740 0.28400 0.09650 0.00200
C 	C 	0.20550 0.93500 0.26440 -0.68400
H 	H 	0.23000 0.94380 0.21450 0.22600
H 	H 	0.19590 0.96330 0.29550 0.20900
H 	H 	0.15290 0.91880 0.25550 0.23200
C 	C 	0.22550 0.88840 0.38580 0.15400
Cd	Cd	0.15418 0.36880 0.47327 1.22800
O 	O 	0.12160 0.36045 0.33630 -0.40400
O 	O 	0.25070 0.36778 0.37120 -0.43400
O 	O 	0.23450 0.39282 0.05330 -0.34600
O 	O 	0.99420 0.63892 0.51510 -0.35500
O 	O 	0.34700 0.37333 0.11240 -0.34100
N 	N 	0.11250 0.44589 0.45100 -0.23700
N 	N 	0.08120 0.62406 0.41580 -0.21300
H 	H 	0.12910 0.63110 0.39450 0.14100
N 	N 	0.14920 0.78713 0.51320 -0.21700
C 	C 	0.12440 0.52960 0.46530 -0.18700
H 	H 	0.15080 0.55520 0.49060 0.10600
C 	C 	0.05410 0.45390 0.39830 0.08800
H 	H 	0.02830 0.42750 0.37470 -0.00600
C 	C 	0.06460 0.53720 0.41030 0.12500
C 	C 	0.19690 0.36190 0.31970 0.42900
C 	C 	0.22420 0.35570 0.23600 -0.51500
H 	H 	0.18280 0.33620 0.20850 0.18300
H 	H 	0.27730 0.33840 0.23530 0.18600
C 	C 	0.23500 0.40190 0.19190 0.37400
C 	C 	0.15070 0.42540 0.18070 -0.70500
H 	H 	0.11170 0.40270 0.15880 0.24600
H 	H 	0.15640 0.45210 0.14520 0.22700
H 	H 	0.13010 0.43650 0.23090 0.23100
C 	C 	0.14540 0.48340 0.48320 0.10000
H 	H 	0.18660 0.47860 0.52160 -0.02400
C 	C 	0.02910 0.49800 0.37620 -0.18000
H 	H 	0.98750 0.50160 0.33770 0.07100
C 	C 	0.09550 0.69620 0.48860 -0.01900
C 	C 	0.03460 0.58490 0.38570 -0.10200
H 	H 	0.03560 0.58640 0.32830 0.04800
H 	H 	0.97640 0.58840 0.40240 0.06400
C 	C 	0.05390 0.64990 0.47470 0.24000
C 	C 	0.13130 0.72180 0.43010 -0.08600
H 	H 	0.13800 0.70840 0.38000 0.05600
C 	C 	0.09050 0.71640 0.56140 -0.08000
H 	H 	0.06870 0.69930 0.60410 0.06100
C 	C 	0.11750 0.76150 0.57050 0.04600
H 	H 	0.11350 0.77530 0.62050 0.00700
C 	C 	0.15750 0.76680 0.44440 0.05300
H 	H 	0.18260 0.78400 0.40350 0.00200
C 	C 	0.29450 0.43500 0.23560 -0.68400
H 	H 	0.27000 0.44380 0.28550 0.22600
H 	H 	0.30410 0.46330 0.20450 0.20900
H 	H 	0.34710 0.41880 0.24450 0.23200
C 	C 	0.27450 0.38840 0.11420 0.15400
Cd	Cd	0.34582 0.36880 0.97327 1.22800
O 	O 	0.37840 0.36045 0.83630 -0.40400
O 	O 	0.24930 0.36778 0.87120 -0.43400
O 	O 	0.26550 0.39282 0.55330 -0.34600
O 	O 	0.50580 0.63892 0.01510 -0.35400
O 	O 	0.15300 0.37333 0.61240 -0.34100
N 	N 	0.38750 0.44589 0.95100 -0.23700
N 	N 	0.41880 0.62406 0.91580 -0.21300
H 	H 	0.37090 0.63110 0.89450 0.14100
N 	N 	0.35080 0.78713 0.01320 -0.21700
C 	C 	0.37560 0.52960 0.96530 -0.18700
H 	H 	0.34920 0.55520 0.99060 0.10600
C 	C 	0.44590 0.45390 0.89830 0.08900
H 	H 	0.47170 0.42750 0.87470 -0.00600
C 	C 	0.43540 0.53720 0.91030 0.12600
C 	C 	0.30310 0.36190 0.81970 0.42900
C 	C 	0.27580 0.35570 0.73600 -0.51500
H 	H 	0.31720 0.33620 0.70850 0.18300
H 	H 	0.22270 0.33840 0.73530 0.18600
C 	C 	0.26500 0.40190 0.69190 0.37400
C 	C 	0.34930 0.42540 0.68070 -0.70500
H 	H 	0.38830 0.40270 0.65880 0.24700
H 	H 	0.34360 0.45210 0.64520 0.22700
H 	H 	0.36990 0.43650 0.73090 0.23100
C 	C 	0.35460 0.48340 0.98320 0.10000
H 	H 	0.31340 0.47860 0.02160 -0.02400
C 	C 	0.47090 0.49800 0.87620 -0.18000
H 	H 	0.51250 0.50160 0.83770 0.07100
C 	C 	0.40450 0.69620 0.98860 -0.01900
C 	C 	0.46540 0.58490 0.88570 -0.10200
H 	H 	0.46440 0.58640 0.82830 0.04800
H 	H 	0.52360 0.58840 0.90240 0.06400
C 	C 	0.44610 0.64990 0.97470 0.24000
C 	C 	0.36870 0.72180 0.93010 -0.08600
H 	H 	0.36200 0.70840 0.88000 0.05600
C 	C 	0.40950 0.71640 0.06140 -0.08000
H 	H 	0.43130 0.69930 0.10410 0.06100
C 	C 	0.38250 0.76150 0.07050 0.04700
H 	H 	0.38650 0.77530 0.12050 0.00700
C 	C 	0.34250 0.76680 0.94440 0.05300
H 	H 	0.31740 0.78400 0.90350 0.00200
C 	C 	0.20550 0.43500 0.73560 -0.68400
H 	H 	0.23000 0.44380 0.78550 0.22600
H 	H 	0.19590 0.46330 0.70450 0.20900
H 	H 	0.15290 0.41880 0.74450 0.23200
C 	C 	0.22550 0.38840 0.61420 0.15400
Cd	Cd	0.15418 0.86880 0.52673 1.22800
O 	O 	0.12160 0.86045 0.66370 -0.40400
O 	O 	0.25070 0.86778 0.62880 -0.43400
O 	O 	0.23450 0.89282 0.94670 -0.34600
O 	O 	0.99420 0.13892 0.48490 -0.35500
O 	O 	0.34700 0.87333 0.88760 -0.34100
N 	N 	0.11250 0.94589 0.54900 -0.23700
N 	N 	0.08120 0.12406 0.58420 -0.21300
H 	H 	0.12910 0.13110 0.60550 0.14100
N 	N 	0.14920 0.28713 0.48680 -0.21700
C 	C 	0.12440 0.02960 0.53470 -0.18700
H 	H 	0.15080 0.05520 0.50940 0.10600
C 	C 	0.05410 0.95390 0.60170 0.08800
H 	H 	0.02830 0.92750 0.62530 -0.00600
C 	C 	0.06460 0.03720 0.58970 0.12500
C 	C 	0.19690 0.86190 0.68030 0.42900
C 	C 	0.22420 0.85570 0.76400 -0.51500
H 	H 	0.18280 0.83620 0.79150 0.18300
H 	H 	0.27730 0.83840 0.76470 0.18600
C 	C 	0.23500 0.90190 0.80810 0.37400
C 	C 	0.15070 0.92540 0.81930 -0.70500
H 	H 	0.11170 0.90270 0.84120 0.24600
H 	H 	0.15640 0.95210 0.85480 0.22700
H 	H 	0.13010 0.93650 0.76910 0.23100
C 	C 	0.14540 0.98340 0.51680 0.10000
H 	H 	0.18660 0.97860 0.47840 -0.02400
C 	C 	0.02910 0.99800 0.62380 -0.18000
H 	H 	0.98750 0.00160 0.66230 0.07100
C 	C 	0.09550 0.19620 0.51140 -0.01900
C 	C 	0.03460 0.08490 0.61430 -0.10200
H 	H 	0.03560 0.08640 0.67170 0.04800
H 	H 	0.97640 0.08840 0.59760 0.06400
C 	C 	0.05390 0.14990 0.52530 0.24000
C 	C 	0.13130 0.22180 0.56990 -0.08600
H 	H 	0.13800 0.20840 0.62000 0.05600
C 	C 	0.09050 0.21640 0.43860 -0.08000
H 	H 	0.06870 0.19930 0.39590 0.06100
C 	C 	0.11750 0.26150 0.42950 0.04600
H 	H 	0.11350 0.27530 0.37950 0.00700
C 	C 	0.15750 0.26680 0.55560 0.05300
H 	H 	0.18260 0.28400 0.59650 0.00200
C 	C 	0.29450 0.93500 0.76440 -0.68400
H 	H 	0.27000 0.94380 0.71450 0.22600
H 	H 	0.30410 0.96330 0.79550 0.20900
H 	H 	0.34710 0.91880 0.75550 0.23200
C 	C 	0.27450 0.88840 0.88580 0.15400
Cd	Cd	0.65418 0.63120 0.02673 1.22800
O 	O 	0.62160 0.63955 0.16370 -0.40400
O 	O 	0.75070 0.63222 0.12880 -0.43400
O 	O 	0.73450 0.60718 0.44670 -0.34600
O 	O 	0.49420 0.36108 0.98490 -0.35400
O 	O 	0.84700 0.62667 0.38760 -0.34100
N 	N 	0.61250 0.55411 0.04900 -0.23700
N 	N 	0.58120 0.37594 0.08420 -0.21300
H 	H 	0.62910 0.36890 0.10550 0.14100
N 	N 	0.64920 0.21287 0.98680 -0.21700
C 	C 	0.62440 0.47040 0.03470 -0.18700
H 	H 	0.65080 0.44480 0.00940 0.10600
C 	C 	0.55410 0.54610 0.10170 0.08900
H 	H 	0.52830 0.57250 0.12530 -0.00600
C 	C 	0.56460 0.46280 0.08970 0.12600
C 	C 	0.69690 0.63810 0.18030 0.42900
C 	C 	0.72420 0.64430 0.26400 -0.51500
H 	H 	0.68280 0.66380 0.29150 0.18300
H 	H 	0.77730 0.66160 0.26470 0.18600
C 	C 	0.73500 0.59810 0.30810 0.37400
C 	C 	0.65070 0.57460 0.31930 -0.70500
H 	H 	0.61170 0.59730 0.34120 0.24700
H 	H 	0.65640 0.54790 0.35480 0.22700
H 	H 	0.63010 0.56350 0.26910 0.23100
C 	C 	0.64540 0.51660 0.01680 0.10000
H 	H 	0.68660 0.52140 0.97840 -0.02400
C 	C 	0.52910 0.50200 0.12380 -0.18000
H 	H 	0.48750 0.49840 0.16230 0.07100
C 	C 	0.59550 0.30380 0.01140 -0.01900
C 	C 	0.53460 0.41510 0.11430 -0.10200
H 	H 	0.53560 0.41360 0.17170 0.04800
H 	H 	0.47640 0.41160 0.09760 0.06400
C 	C 	0.55390 0.35010 0.02530 0.24000
C 	C 	0.63130 0.27820 0.06990 -0.08600
H 	H 	0.63800 0.29160 0.12000 0.05600
C 	C 	0.59050 0.28360 0.93860 -0.08000
H 	H 	0.56870 0.30070 0.89590 0.06100
C 	C 	0.61750 0.23850 0.92950 0.04700
H 	H 	0.61350 0.22470 0.87950 0.00700
C 	C 	0.65750 0.23320 0.05560 0.05300
H 	H 	0.68260 0.21600 0.09650 0.00200
C 	C 	0.79450 0.56500 0.26440 -0.68400
H 	H 	0.77000 0.55620 0.21450 0.22600
H 	H 	0.80410 0.53670 0.29550 0.20900
H 	H 	0.84710 0.58120 0.25550 0.23200
C 	C 	0.77450 0.61160 0.38580 0.15400
Cd	Cd	0.84582 0.13120 0.47327 1.22800
O 	O 	0.87840 0.13955 0.33630 -0.40400
O 	O 	0.74930 0.13222 0.37120 -0.43400
O 	O 	0.76550 0.10718 0.05330 -0.34600
O 	O 	0.00580 0.86108 0.51510 -0.35500
O 	O 	0.65300 0.12667 0.11240 -0.34100
N 	N 	0.88750 0.05411 0.45100 -0.23700
N 	N 	0.91880 0.87594 0.41580 -0.21300
H 	H 	0.87090 0.86890 0.39450 0.14100
N 	N 	0.85080 0.71287 0.51320 -0.21700
C 	C 	0.87560 0.97040 0.46530 -0.18700
H 	H 	0.84920 0.94480 0.49060 0.10600
C 	C 	0.94590 0.04610 0.39830 0.08800
H 	H 	0.97170 0.07250 0.37470 -0.00600
C 	C 	0.93540 0.96280 0.41030 0.12500
C 	C 	0.80310 0.13810 0.31970 0.42900
C 	C 	0.77580 0.14430 0.23600 -0.51500
H 	H 	0.81720 0.16380 0.20850 0.18300
H 	H 	0.72270 0.16160 0.23530 0.18600
C 	C 	0.76500 0.09810 0.19190 0.37400
C 	C 	0.84930 0.07460 0.18070 -0.70500
H 	H 	0.88830 0.09730 0.15880 0.24600
H 	H 	0.84360 0.04790 0.14520 0.22700
H 	H 	0.86990 0.06350 0.23090 0.23100
C 	C 	0.85460 0.01660 0.48320 0.10000
H 	H 	0.81340 0.02140 0.52160 -0.02400
C 	C 	0.97090 0.00200 0.37620 -0.18000
H 	H 	0.01250 0.99840 0.33770 0.07100
C 	C 	0.90450 0.80380 0.48860 -0.01900
C 	C 	0.96540 0.91510 0.38570 -0.10200
H 	H 	0.96440 0.91360 0.32830 0.04800
H 	H 	0.02360 0.91160 0.40240 0.06400
C 	C 	0.94610 0.85010 0.47470 0.24000
C 	C 	0.86870 0.77820 0.43010 -0.08600
H 	H 	0.86200 0.79160 0.38000 0.05600
C 	C 	0.90950 0.78360 0.56140 -0.08000
H 	H 	0.93130 0.80070 0.60410 0.06100
C 	C 	0.88250 0.73850 0.57050 0.04600
H 	H 	0.88650 0.72470 0.62050 0.00700
C 	C 	0.84250 0.73320 0.44440 0.05300
H 	H 	0.81740 0.71600 0.40350 0.00200
C 	C 	0.70550 0.06500 0.23560 -0.68400
H 	H 	0.73000 0.05620 0.28550 0.22600
H 	H 	0.69590 0.03670 0.20450 0.20900
H 	H 	0.65290 0.08120 0.24450 0.23200
C 	C 	0.72550 0.11160 0.11420 0.15400
Cd	Cd	0.65418 0.13120 0.97327 1.22800
O 	O 	0.62160 0.13955 0.83630 -0.40400
O 	O 	0.75070 0.13222 0.87120 -0.43400
O 	O 	0.73450 0.10718 0.55330 -0.34600
O 	O 	0.49420 0.86108 0.01510 -0.35400
O 	O 	0.84700 0.12667 0.61240 -0.34100
N 	N 	0.61250 0.05411 0.95100 -0.23700
N 	N 	0.58120 0.87594 0.91580 -0.21300
H 	H 	0.62910 0.86890 0.89450 0.14100
N 	N 	0.64920 0.71287 0.01320 -0.21700
C 	C 	0.62440 0.97040 0.96530 -0.18700
H 	H 	0.65080 0.94480 0.99060 0.10600
C 	C 	0.55410 0.04610 0.89830 0.08900
H 	H 	0.52830 0.07250 0.87470 -0.00600
C 	C 	0.56460 0.96280 0.91030 0.12600
C 	C 	0.69690 0.13810 0.81970 0.42900
C 	C 	0.72420 0.14430 0.73600 -0.51500
H 	H 	0.68280 0.16380 0.70850 0.18300
H 	H 	0.77730 0.16160 0.73530 0.18600
C 	C 	0.73500 0.09810 0.69190 0.37400
C 	C 	0.65070 0.07460 0.68070 -0.70500
H 	H 	0.61170 0.09730 0.65880 0.24700
H 	H 	0.65640 0.04790 0.64520 0.22700
H 	H 	0.63010 0.06350 0.73090 0.23100
C 	C 	0.64540 0.01660 0.98320 0.10000
H 	H 	0.68660 0.02140 0.02160 -0.02400
C 	C 	0.52910 0.00200 0.87620 -0.18000
H 	H 	0.48750 0.99840 0.83770 0.07100
C 	C 	0.59550 0.80380 0.98860 -0.01900
C 	C 	0.53460 0.91510 0.88570 -0.10200
H 	H 	0.53560 0.91360 0.82830 0.04800
H 	H 	0.47640 0.91160 0.90240 0.06400
C 	C 	0.55390 0.85010 0.97470 0.24000
C 	C 	0.63130 0.77820 0.93010 -0.08600
H 	H 	0.63800 0.79160 0.88000 0.05600
C 	C 	0.59050 0.78360 0.06140 -0.08000
H 	H 	0.56870 0.80070 0.10410 0.06100
C 	C 	0.61750 0.73850 0.07050 0.04700
H 	H 	0.61350 0.72470 0.12050 0.00700
C 	C 	0.65750 0.73320 0.94440 0.05300
H 	H 	0.68260 0.71600 0.90350 0.00200
C 	C 	0.79450 0.06500 0.73560 -0.68400
H 	H 	0.77000 0.05620 0.78550 0.22600
H 	H 	0.80410 0.03670 0.70450 0.20900
H 	H 	0.84710 0.08120 0.74450 0.23200
C 	C 	0.77450 0.11160 0.61420 0.15400
Cd	Cd	0.84582 0.63120 0.52673 1.22800
O 	O 	0.87840 0.63955 0.66370 -0.40400
O 	O 	0.74930 0.63222 0.62880 -0.43400
O 	O 	0.76550 0.60718 0.94670 -0.34600
O 	O 	0.00580 0.36108 0.48490 -0.35500
O 	O 	0.65300 0.62667 0.88760 -0.34100
N 	N 	0.88750 0.55411 0.54900 -0.23700
N 	N 	0.91880 0.37594 0.58420 -0.21300
H 	H 	0.87090 0.36890 0.60550 0.14100
N 	N 	0.85080 0.21287 0.48680 -0.21700
C 	C 	0.87560 0.47040 0.53470 -0.18700
H 	H 	0.84920 0.44480 0.50940 0.10600
C 	C 	0.94590 0.54610 0.60170 0.08800
H 	H 	0.97170 0.57250 0.62530 -0.00600
C 	C 	0.93540 0.46280 0.58970 0.12500
C 	C 	0.80310 0.63810 0.68030 0.42900
C 	C 	0.77580 0.64430 0.76400 -0.51500
H 	H 	0.81720 0.66380 0.79150 0.18300
H 	H 	0.72270 0.66160 0.76470 0.18600
C 	C 	0.76500 0.59810 0.80810 0.37400
C 	C 	0.84930 0.57460 0.81930 -0.70500
H 	H 	0.88830 0.59730 0.84120 0.24600
H 	H 	0.84360 0.54790 0.85480 0.22700
H 	H 	0.86990 0.56350 0.76910 0.23100
C 	C 	0.85460 0.51660 0.51680 0.10000
H 	H 	0.81340 0.52140 0.47840 -0.02400
C 	C 	0.97090 0.50200 0.62380 -0.18000
H 	H 	0.01250 0.49840 0.66230 0.07100
C 	C 	0.90450 0.30380 0.51140 -0.01900
C 	C 	0.96540 0.41510 0.61430 -0.10200
H 	H 	0.96440 0.41360 0.67170 0.04800
H 	H 	0.02360 0.41160 0.59760 0.06400
C 	C 	0.94610 0.35010 0.52530 0.24000
C 	C 	0.86870 0.27820 0.56990 -0.08600
H 	H 	0.86200 0.29160 0.62000 0.05600
C 	C 	0.90950 0.28360 0.43860 -0.08000
H 	H 	0.93130 0.30070 0.39590 0.06100
C 	C 	0.88250 0.23850 0.42950 0.04600
H 	H 	0.88650 0.22470 0.37950 0.00700
C 	C 	0.84250 0.23320 0.55560 0.05300
H 	H 	0.81740 0.21600 0.59650 0.00200
C 	C 	0.70550 0.56500 0.76440 -0.68400
H 	H 	0.73000 0.55620 0.71450 0.22600
H 	H 	0.69590 0.53670 0.79550 0.20900
H 	H 	0.65290 0.58120 0.75550 0.23200
C 	C 	0.72550 0.61160 0.88580 0.15400
Cd	Cd	0.15418 0.13120 0.02673 1.22800
O 	O 	0.12160 0.13955 0.16370 -0.40400
O 	O 	0.25070 0.13222 0.12880 -0.43400
O 	O 	0.23450 0.10718 0.44670 -0.34600
O 	O 	0.99420 0.86108 0.98490 -0.35400
O 	O 	0.34700 0.12667 0.38760 -0.34100
N 	N 	0.11250 0.05411 0.04900 -0.23700
N 	N 	0.08120 0.87594 0.08420 -0.21300
H 	H 	0.12910 0.86890 0.10550 0.14100
N 	N 	0.14920 0.71287 0.98680 -0.21700
C 	C 	0.12440 0.97040 0.03470 -0.18700
H 	H 	0.15080 0.94480 0.00940 0.10600
C 	C 	0.05410 0.04610 0.10170 0.08900
H 	H 	0.02830 0.07250 0.12530 -0.00600
C 	C 	0.06460 0.96280 0.08970 0.12600
C 	C 	0.19690 0.13810 0.18030 0.42900
C 	C 	0.22420 0.14430 0.26400 -0.51500
H 	H 	0.18280 0.16380 0.29150 0.18300
H 	H 	0.27730 0.16160 0.26470 0.18600
C 	C 	0.23500 0.09810 0.30810 0.37400
C 	C 	0.15070 0.07460 0.31930 -0.70500
H 	H 	0.11170 0.09730 0.34120 0.24600
H 	H 	0.15640 0.04790 0.35480 0.22700
H 	H 	0.13010 0.06350 0.26910 0.23100
C 	C 	0.14540 0.01660 0.01680 0.10000
H 	H 	0.18660 0.02140 0.97840 -0.02400
C 	C 	0.02910 0.00200 0.12380 -0.18000
H 	H 	0.98750 0.99840 0.16230 0.07100
C 	C 	0.09550 0.80380 0.01140 -0.01900
C 	C 	0.03460 0.91510 0.11430 -0.10200
H 	H 	0.03560 0.91360 0.17170 0.04800
H 	H 	0.97640 0.91160 0.09760 0.06400
C 	C 	0.05390 0.85010 0.02530 0.24000
C 	C 	0.13130 0.77820 0.06990 -0.08600
H 	H 	0.13800 0.79160 0.12000 0.05600
C 	C 	0.09050 0.78360 0.93860 -0.08000
H 	H 	0.06870 0.80070 0.89590 0.06100
C 	C 	0.11750 0.73850 0.92950 0.04600
H 	H 	0.11350 0.72470 0.87950 0.00700
C 	C 	0.15750 0.73320 0.05560 0.05300
H 	H 	0.18260 0.71600 0.09650 0.00200
C 	C 	0.29450 0.06500 0.26440 -0.68400
H 	H 	0.27000 0.05620 0.21450 0.22600
H 	H 	0.30410 0.03670 0.29550 0.20900
H 	H 	0.34710 0.08120 0.25550 0.23200
C 	C 	0.27450 0.11160 0.38580 0.15400
Cd	Cd	0.34582 0.63120 0.47327 1.22800
O 	O 	0.37840 0.63955 0.33630 -0.40400
O 	O 	0.24930 0.63222 0.37120 -0.43400
O 	O 	0.26550 0.60718 0.05330 -0.34600
O 	O 	0.50580 0.36108 0.51510 -0.35400
O 	O 	0.15300 0.62667 0.11240 -0.34100
N 	N 	0.38750 0.55411 0.45100 -0.23700
N 	N 	0.41880 0.37594 0.41580 -0.21300
H 	H 	0.37090 0.36890 0.39450 0.14100
N 	N 	0.35080 0.21287 0.51320 -0.21700
C 	C 	0.37560 0.47040 0.46530 -0.18700
H 	H 	0.34920 0.44480 0.49060 0.10600
C 	C 	0.44590 0.54610 0.39830 0.08800
H 	H 	0.47170 0.57250 0.37470 -0.00600
C 	C 	0.43540 0.46280 0.41030 0.12500
C 	C 	0.30310 0.63810 0.31970 0.42900
C 	C 	0.27580 0.64430 0.23600 -0.51500
H 	H 	0.31720 0.66380 0.20850 0.18300
H 	H 	0.22270 0.66160 0.23530 0.18600
C 	C 	0.26500 0.59810 0.19190 0.37400
C 	C 	0.34930 0.57460 0.18070 -0.70500
H 	H 	0.38830 0.59730 0.15880 0.24700
H 	H 	0.34360 0.54790 0.14520 0.22700
H 	H 	0.36990 0.56350 0.23090 0.23100
C 	C 	0.35460 0.51660 0.48320 0.10000
H 	H 	0.31340 0.52140 0.52160 -0.02400
C 	C 	0.47090 0.50200 0.37620 -0.18000
H 	H 	0.51250 0.49840 0.33770 0.07100
C 	C 	0.40450 0.30380 0.48860 -0.01900
C 	C 	0.46540 0.41510 0.38570 -0.10200
H 	H 	0.46440 0.41360 0.32830 0.04800
H 	H 	0.52360 0.41160 0.40240 0.06400
C 	C 	0.44610 0.35010 0.47470 0.24000
C 	C 	0.36870 0.27820 0.43010 -0.08600
H 	H 	0.36200 0.29160 0.38000 0.05600
C 	C 	0.40950 0.28360 0.56140 -0.07900
H 	H 	0.43130 0.30070 0.60410 0.06100
C 	C 	0.38250 0.23850 0.57050 0.04600
H 	H 	0.38650 0.22470 0.62050 0.00700
C 	C 	0.34250 0.23320 0.44440 0.05300
H 	H 	0.31740 0.21600 0.40350 0.00200
C 	C 	0.20550 0.56500 0.23560 -0.68400
H 	H 	0.23000 0.55620 0.28550 0.22600
H 	H 	0.19590 0.53670 0.20450 0.20900
H 	H 	0.15290 0.58120 0.24450 0.23200
C 	C 	0.22550 0.61160 0.11420 0.15400
Cd	Cd	0.15418 0.63120 0.97327 1.22800
O 	O 	0.12160 0.63955 0.83630 -0.40400
O 	O 	0.25070 0.63222 0.87120 -0.43400
O 	O 	0.23450 0.60718 0.55330 -0.34600
O 	O 	0.99420 0.36108 0.01510 -0.35400
O 	O 	0.34700 0.62667 0.61240 -0.34100
N 	N 	0.11250 0.55411 0.95100 -0.23700
N 	N 	0.08120 0.37594 0.91580 -0.21300
H 	H 	0.12910 0.36890 0.89450 0.14100
N 	N 	0.14920 0.21287 0.01320 -0.21700
C 	C 	0.12440 0.47040 0.96530 -0.18700
H 	H 	0.15080 0.44480 0.99060 0.10600
C 	C 	0.05410 0.54610 0.89830 0.08900
H 	H 	0.02830 0.57250 0.87470 -0.00600
C 	C 	0.06460 0.46280 0.91030 0.12600
C 	C 	0.19690 0.63810 0.81970 0.42900
C 	C 	0.22420 0.64430 0.73600 -0.51500
H 	H 	0.18280 0.66380 0.70850 0.18300
H 	H 	0.27730 0.66160 0.73530 0.18600
C 	C 	0.23500 0.59810 0.69190 0.37400
C 	C 	0.15070 0.57460 0.68070 -0.70500
H 	H 	0.11170 0.59730 0.65880 0.24600
H 	H 	0.15640 0.54790 0.64520 0.22700
H 	H 	0.13010 0.56350 0.73090 0.23100
C 	C 	0.14540 0.51660 0.98320 0.10000
H 	H 	0.18660 0.52140 0.02160 -0.02400
C 	C 	0.02910 0.50200 0.87620 -0.18000
H 	H 	0.98750 0.49840 0.83770 0.07100
C 	C 	0.09550 0.30380 0.98860 -0.01900
C 	C 	0.03460 0.41510 0.88570 -0.10200
H 	H 	0.03560 0.41360 0.82830 0.04800
H 	H 	0.97640 0.41160 0.90240 0.06400
C 	C 	0.05390 0.35010 0.97470 0.24000
C 	C 	0.13130 0.27820 0.93010 -0.08600
H 	H 	0.13800 0.29160 0.88000 0.05600
C 	C 	0.09050 0.28360 0.06140 -0.08000
H 	H 	0.06870 0.30070 0.10410 0.06100
C 	C 	0.11750 0.23850 0.07050 0.04600
H 	H 	0.11350 0.22470 0.12050 0.00700
C 	C 	0.15750 0.23320 0.94440 0.05300
H 	H 	0.18260 0.21600 0.90350 0.00200
C 	C 	0.29450 0.56500 0.73560 -0.68400
H 	H 	0.27000 0.55620 0.78550 0.22600
H 	H 	0.30410 0.53670 0.70450 0.20900
H 	H 	0.34710 0.58120 0.74450 0.23200
C 	C 	0.27450 0.61160 0.61420 0.15400
Cd	Cd	0.34582 0.13120 0.52673 1.22800
O 	O 	0.37840 0.13955 0.66370 -0.40400
O 	O 	0.24930 0.13222 0.62880 -0.43400
O 	O 	0.26550 0.10718 0.94670 -0.34600
O 	O 	0.50580 0.86108 0.48490 -0.35400
O 	O 	0.15300 0.12667 0.88760 -0.34100
N 	N 	0.38750 0.05411 0.54900 -0.23700
N 	N 	0.41880 0.87594 0.58420 -0.21300
H 	H 	0.37090 0.86890 0.60550 0.14100
N 	N 	0.35080 0.71287 0.48680 -0.21700
C 	C 	0.37560 0.97040 0.53470 -0.18700
H 	H 	0.34920 0.94480 0.50940 0.10600
C 	C 	0.44590 0.04610 0.60170 0.08800
H 	H 	0.47170 0.07250 0.62530 -0.00600
C 	C 	0.43540 0.96280 0.58970 0.12500
C 	C 	0.30310 0.13810 0.68030 0.42900
C 	C 	0.27580 0.14430 0.76400 -0.51500
H 	H 	0.31720 0.16380 0.79150 0.18300
H 	H 	0.22270 0.16160 0.76470 0.18600
C 	C 	0.26500 0.09810 0.80810 0.37400
C 	C 	0.34930 0.07460 0.81930 -0.70500
H 	H 	0.38830 0.09730 0.84120 0.24700
H 	H 	0.34360 0.04790 0.85480 0.22700
H 	H 	0.36990 0.06350 0.76910 0.23100
C 	C 	0.35460 0.01660 0.51680 0.10000
H 	H 	0.31340 0.02140 0.47840 -0.02400
C 	C 	0.47090 0.00200 0.62380 -0.18000
H 	H 	0.51250 0.99840 0.66230 0.07100
C 	C 	0.40450 0.80380 0.51140 -0.01900
C 	C 	0.46540 0.91510 0.61430 -0.10200
H 	H 	0.46440 0.91360 0.67170 0.04800
H 	H 	0.52360 0.91160 0.59760 0.06400
C 	C 	0.44610 0.85010 0.52530 0.24000
C 	C 	0.36870 0.77820 0.56990 -0.08600
H 	H 	0.36200 0.79160 0.62000 0.05600
C 	C 	0.40950 0.78360 0.43860 -0.07900
H 	H 	0.43130 0.80070 0.39590 0.06100
C 	C 	0.38250 0.73850 0.42950 0.04600
H 	H 	0.38650 0.72470 0.37950 0.00700
C 	C 	0.34250 0.73320 0.55560 0.05300
H 	H 	0.31740 0.71600 0.59650 0.00200
C 	C 	0.20550 0.06500 0.76440 -0.68400
H 	H 	0.23000 0.05620 0.71450 0.22600
H 	H 	0.19590 0.03670 0.79550 0.20900
H 	H 	0.15290 0.08120 0.75550 0.23200
C 	C 	0.22550 0.11160 0.88580 0.15400
