data_crystal

_cell_length_a 11.56500
_cell_length_b 17.72330
_cell_length_c 17.72330
_cell_angle_alpha 83.88940
_cell_angle_beta  70.95780
_cell_angle_gamma 70.95770

_symmetry_space_group_name_	'P 1'
_symmetry_space_group_name_H-M	'P 1'

loop_
_symmetry_equiv_pos_as_xyz
  x,y,z

loop_
_atom_site_label
_atom_site_type_symbol
_atom_site_fract_x
_atom_site_fract_y
_atom_site_fract_z
_atom_site_charge
Co	Co	0.57740 0.22520 0.67080 1.19500
Co	Co	0.45770 0.41220 0.66760 1.18700
Co	Co	0.97340 0.27480 0.82920 1.22300
Co	Co	0.03750 0.08780 0.83240 1.14900
Co	Co	0.24820 0.32920 0.72520 1.19400
Co	Co	0.12530 0.33240 0.91220 1.18700
Co	Co	0.80260 0.17080 0.77480 1.19300
Co	Co	0.86990 0.16760 0.58780 1.19700
Co	Co	0.42260 0.77480 0.32920 1.19600
Co	Co	0.54230 0.58780 0.33240 1.18800
Co	Co	0.02660 0.72520 0.17080 1.17400
Co	Co	0.96250 0.91220 0.16760 1.21400
Co	Co	0.75180 0.67080 0.27480 1.19700
Co	Co	0.87470 0.66760 0.08780 1.18700
Co	Co	0.19740 0.82920 0.22520 1.19800
Co	Co	0.13010 0.83240 0.41220 1.18200
Co	Co	0.50000 0.50000 0.50000 1.19300
Co	Co	-0.00000 0.00000 -0.00000 1.13600
Co	Co	-0.00000 0.50000 -0.00000 1.15300
Co	Co	-0.00000 0.00000 0.50000 1.14600
H 	H 	0.42880 0.30700 0.60040 0.27800
H 	H 	0.48900 0.39020 0.90480 0.38800
H 	H 	0.61050 0.41260 0.84980 0.39900
H 	H 	0.48450 0.44000 0.82640 0.38600
H 	H 	0.11360 0.55360 0.55340 0.30300
H 	H 	0.23750 0.51150 0.48570 0.32900
H 	H 	0.13110 0.46950 0.52270 0.31400
H 	H 	0.85020 0.29650 0.43150 0.39400
H 	H 	0.73610 0.27610 0.41990 0.37900
H 	H 	0.73830 0.36470 0.41070 0.39100
H 	H 	0.60200 0.59960 0.71580 0.33700
H 	H 	0.47620 0.66260 0.70820 0.32600
H 	H 	0.60540 0.65160 0.63800 0.34100
H 	H 	0.83620 0.19300 0.89960 0.28700
H 	H 	0.28400 0.10980 0.59520 0.36000
H 	H 	0.37290 0.08740 0.65020 0.37600
H 	H 	0.25090 0.06000 0.67360 0.35500
H 	H 	0.72060 0.94640 0.94660 0.18300
H 	H 	0.73470 0.98850 0.01430 0.16000
H 	H 	0.62330 0.03050 0.97730 0.15100
H 	H 	0.07820 0.20350 0.06850 0.45500
H 	H 	0.93210 0.22390 0.08010 0.50000
H 	H 	0.01370 0.13530 0.08930 0.45600
H 	H 	0.41740 0.90040 0.78420 0.34300
H 	H 	0.34700 0.83740 0.79180 0.32800
H 	H 	0.39500 0.84840 0.86200 0.34600
H 	H 	0.02920 0.39960 0.80700 0.26200
H 	H 	0.39380 0.09520 0.89020 0.37100
H 	H 	0.46030 0.15020 0.91260 0.39800
H 	H 	0.31090 0.17360 0.94000 0.38400
H 	H 	0.66700 0.44660 0.05360 0.40900
H 	H 	0.72320 0.51430 0.01150 0.42100
H 	H 	0.65380 0.47730 0.96950 0.45200
H 	H 	0.28170 0.56850 0.79650 0.36900
H 	H 	0.15600 0.58010 0.77610 0.35700
H 	H 	0.14900 0.58930 0.86470 0.37400
H 	H 	0.31780 0.28420 0.09960 0.31100
H 	H 	0.18440 0.29180 0.16260 0.29500
H 	H 	0.24340 0.36200 0.15160 0.31700
H 	H 	0.73580 0.10040 0.69300 0.27800
H 	H 	0.87920 0.40480 0.60980 0.29400
H 	H 	0.02310 0.34980 0.58740 0.26200
H 	H 	0.92450 0.32640 0.56000 0.30300
H 	H 	0.66720 0.05340 0.44640 0.36400
H 	H 	0.74900 0.98570 0.48850 0.41700
H 	H 	0.60060 0.02270 0.53050 0.37000
H 	H 	0.14670 0.93150 0.70350 0.26200
H 	H 	0.01220 0.91990 0.72390 0.24900
H 	H 	0.10300 0.91070 0.63530 0.26200
H 	H 	0.20160 0.21580 0.40040 0.31600
H 	H 	0.13880 0.20820 0.33740 0.29600
H 	H 	0.25700 0.13800 0.34840 0.31800
H 	H 	0.57120 0.69300 0.39960 0.27900
H 	H 	0.51100 0.60980 0.09520 0.35900
H 	H 	0.38950 0.58740 0.15020 0.38200
H 	H 	0.51550 0.56000 0.17360 0.36800
H 	H 	0.88640 0.44640 0.44660 0.34900
H 	H 	0.76250 0.48850 0.51430 0.35800
H 	H 	0.86890 0.53050 0.47730 0.35400
H 	H 	0.14980 0.70350 0.56850 0.35100
H 	H 	0.26390 0.72390 0.58010 0.36100
H 	H 	0.26170 0.63530 0.58930 0.37000
H 	H 	0.39800 0.40040 0.28420 0.32000
H 	H 	0.52380 0.33740 0.29180 0.31200
H 	H 	0.39460 0.34840 0.36200 0.32600
H 	H 	0.16380 0.80700 0.10040 0.27100
H 	H 	0.71600 0.89020 0.40480 0.38700
H 	H 	0.62710 0.91260 0.34980 0.40500
H 	H 	0.74910 0.94000 0.32640 0.39400
H 	H 	0.27940 0.05360 0.05340 0.43200
H 	H 	0.26530 0.01150 0.98570 0.47200
H 	H 	0.37670 0.96950 0.02270 0.47300
H 	H 	0.92180 0.79650 0.93150 0.28100
H 	H 	0.06790 0.77610 0.91990 0.23400
H 	H 	0.98630 0.86470 0.91070 0.29600
H 	H 	0.58260 0.09960 0.21580 0.31500
H 	H 	0.65300 0.16260 0.20820 0.30900
H 	H 	0.60500 0.15160 0.13800 0.32100
H 	H 	0.97080 0.60040 0.19300 0.29400
H 	H 	0.60620 0.90480 0.10980 0.37600
H 	H 	0.53970 0.84980 0.08740 0.38100
H 	H 	0.68910 0.82640 0.06000 0.36700
H 	H 	0.33300 0.55340 0.94640 0.24700
H 	H 	0.27680 0.48570 0.98850 0.26800
H 	H 	0.34620 0.52270 0.03050 0.22000
H 	H 	0.71830 0.43150 0.20350 0.37100
H 	H 	0.84400 0.41990 0.22390 0.38000
H 	H 	0.85100 0.41070 0.13530 0.38500
H 	H 	0.68220 0.71580 0.90040 0.34500
H 	H 	0.81560 0.70820 0.83740 0.34100
H 	H 	0.75660 0.63800 0.84840 0.34800
H 	H 	0.26420 0.89960 0.30700 0.28200
H 	H 	0.12080 0.59520 0.39020 0.44400
H 	H 	0.97690 0.65020 0.41260 0.50400
H 	H 	0.07550 0.67360 0.44000 0.44300
H 	H 	0.33280 0.94660 0.55360 0.27500
H 	H 	0.25100 0.01430 0.51150 0.24800
H 	H 	0.39940 0.97730 0.46950 0.28200
H 	H 	0.85330 0.06850 0.29650 0.44200
H 	H 	0.98780 0.08010 0.27610 0.45400
H 	H 	0.89700 0.08930 0.36470 0.46200
H 	H 	0.79840 0.78420 0.59960 0.34000
H 	H 	0.86120 0.79180 0.66260 0.34000
H 	H 	0.74300 0.86200 0.65160 0.34900
C 	C 	0.58260 0.32190 0.80330 0.73300
C 	C 	0.53780 0.39780 0.85060 -1.25500
C 	C 	0.23950 0.46200 0.59500 0.63900
C 	C 	0.17470 0.50270 0.53390 -1.09400
C 	C 	0.68720 0.32820 0.52740 0.73600
C 	C 	0.75940 0.31580 0.43940 -1.28300
C 	C 	0.52350 0.56320 0.64580 0.67500
C 	C 	0.55510 0.62470 0.67910 -1.14700
C 	C 	0.20780 0.17810 0.69670 0.71300
C 	C 	0.28620 0.10220 0.64940 -1.20900
C 	C 	0.79650 0.03800 0.90500 0.46300
C 	C 	0.71130 0.99730 0.96610 -0.56400
C 	C 	0.04280 0.17180 0.97260 0.83900
C 	C 	0.01460 0.18420 0.06060 -1.60500
C 	C 	0.23250 0.93680 0.85420 0.67100
C 	C 	0.35890 0.87530 0.82090 -1.14600
C 	C 	0.38590 0.19670 0.82190 0.72800
C 	C 	0.38840 0.14940 0.89780 -1.24500
C 	C 	0.83450 0.40500 0.96200 0.76500
C 	C 	0.70860 0.46610 0.00270 -1.43700
C 	C 	0.21460 0.47260 0.82820 0.71600
C 	C 	0.19880 0.56060 0.81580 -1.23900
C 	C 	0.16930 0.35420 0.06320 0.65300
C 	C 	0.23420 0.32090 0.12470 -1.10200
C 	C 	0.90450 0.30330 0.67810 0.64700
C 	C 	0.93560 0.35060 0.60220 -0.93600
C 	C 	0.70150 0.09500 0.53800 0.69000
C 	C 	0.67740 0.03390 0.49730 -1.28500
C 	C 	0.01540 0.02740 0.67180 0.41600
C 	C 	0.07520 0.93940 0.68420 -0.86300
C 	C 	0.08670 0.14580 0.43680 0.65900
C 	C 	0.17980 0.17910 0.37530 -1.10900
C 	C 	0.41740 0.67810 0.19670 0.71800
C 	C 	0.46220 0.60220 0.14940 -1.21700
C 	C 	0.76050 0.53800 0.40500 0.66400
C 	C 	0.82530 0.49730 0.46610 -1.16400
C 	C 	0.31280 0.67180 0.47260 0.71300
C 	C 	0.24060 0.68420 0.56060 -1.22800
C 	C 	0.47650 0.43680 0.35420 0.66300
C 	C 	0.44490 0.37530 0.32090 -1.11800
C 	C 	0.79220 0.82190 0.30330 0.73600
C 	C 	0.71380 0.89780 0.35060 -1.26100
C 	C 	0.20350 0.96200 0.09500 0.79300
C 	C 	0.28870 0.00270 0.03390 -1.55000
C 	C 	0.95720 0.82820 0.02740 0.58400
C 	C 	0.98540 0.81580 0.93940 -0.87100
C 	C 	0.76750 0.06320 0.14580 0.66100
C 	C 	0.64110 0.12470 0.17910 -1.11100
C 	C 	0.61410 0.80330 0.17810 0.72100
C 	C 	0.61160 0.85060 0.10220 -1.22300
C 	C 	0.16550 0.59500 0.03800 0.54100
C 	C 	0.29140 0.53390 0.99730 -0.83300
C 	C 	0.78540 0.52740 0.17180 0.72800
C 	C 	0.80120 0.43940 0.18420 -1.26200
C 	C 	0.83070 0.64580 0.93680 0.67800
C 	C 	0.76580 0.67910 0.87530 -1.15600
C 	C 	0.09550 0.69670 0.32190 0.79600
C 	C 	0.06440 0.64940 0.39780 -1.50100
C 	C 	0.29850 0.90500 0.46200 0.59500
C 	C 	0.32260 0.96610 0.50270 -0.91400
C 	C 	0.98460 0.97260 0.32820 0.92500
C 	C 	0.92480 0.06060 0.31580 -1.50400
C 	C 	0.91330 0.85420 0.56320 0.67600
C 	C 	0.82020 0.82090 0.62470 -1.15300
O 	O 	0.42760 0.30960 0.64820 -0.79200
O 	O 	0.56370 0.32610 0.73570 -0.62500
O 	O 	0.18390 0.41850 0.64370 -0.52800
O 	O 	0.34330 0.47480 0.59460 -0.61900
O 	O 	0.71460 0.27100 0.57400 -0.62900
O 	O 	0.60320 0.39420 0.55180 -0.64300
O 	O 	0.50170 0.50640 0.69120 -0.57400
O 	O 	0.52540 0.56900 0.57400 -0.56100
O 	O 	0.63470 0.25790 0.83170 -0.55700
O 	O 	0.88540 0.19040 0.85180 -0.77400
O 	O 	0.12550 0.17390 0.76430 -0.64700
O 	O 	0.74610 0.08150 0.85630 -0.47000
O 	O 	0.91270 0.02520 0.90540 -0.53900
O 	O 	0.05960 0.22900 0.92600 -0.68200
O 	O 	0.04920 0.10580 0.94820 -0.69300
O 	O 	0.19930 0.99360 0.80880 -0.54500
O 	O 	0.16840 0.93100 0.92600 -0.53600
O 	O 	0.22430 0.24210 0.66830 -0.56100
O 	O 	0.07580 0.35180 0.80960 -0.80700
O 	O 	0.29940 0.26430 0.82610 -0.62200
O 	O 	0.82760 0.35630 0.91850 -0.53900
O 	O 	0.93790 0.40540 0.97480 -0.59700
O 	O 	0.28860 0.42600 0.77100 -0.62800
O 	O 	0.15500 0.44820 0.89420 -0.63400
O 	O 	0.19290 0.30880 0.00640 -0.60000
O 	O 	0.09940 0.42600 0.06900 -0.57900
O 	O 	0.46640 0.16830 0.75790 -0.56100
O 	O 	0.73720 0.14820 0.69040 -0.79300
O 	O 	0.88980 0.23570 0.67390 -0.58900
O 	O 	0.60240 0.14370 0.58150 -0.53800
O 	O 	0.81810 0.09460 0.52520 -0.62500
O 	O 	0.98560 0.07400 0.72900 -0.50000
O 	O 	0.99740 0.05180 0.60580 -0.50400
O 	O 	0.00810 0.19120 0.49360 -0.61100
O 	O 	0.09440 0.07400 0.43100 -0.58900
O 	O 	0.89260 0.33170 0.74210 -0.51600
O 	O 	0.57240 0.69040 0.35180 -0.79200
O 	O 	0.43630 0.67390 0.26430 -0.62200
O 	O 	0.81610 0.58150 0.35630 -0.52200
O 	O 	0.65670 0.52520 0.40540 -0.62400
O 	O 	0.28540 0.72900 0.42600 -0.63000
O 	O 	0.39680 0.60580 0.44820 -0.63700
O 	O 	0.49830 0.49360 0.30880 -0.57400
O 	O 	0.47460 0.43100 0.42600 -0.55800
O 	O 	0.36530 0.74210 0.16830 -0.55800
O 	O 	0.11460 0.80960 0.14820 -0.80500
O 	O 	0.87450 0.82610 0.23570 -0.60700
O 	O 	0.25390 0.91850 0.14370 -0.56500
O 	O 	0.08730 0.97480 0.09460 -0.66800
O 	O 	0.94040 0.77100 0.07400 -0.57900
O 	O 	0.95080 0.89420 0.05180 -0.57800
O 	O 	0.80070 0.00640 0.19120 -0.58400
O 	O 	0.83160 0.06900 0.07400 -0.55000
O 	O 	0.77570 0.75790 0.33170 -0.55500
O 	O 	0.92420 0.64820 0.19040 -0.78100
O 	O 	0.70060 0.73570 0.17390 -0.62600
O 	O 	0.17240 0.64370 0.08150 -0.50900
O 	O 	0.06210 0.59460 0.02520 -0.63100
O 	O 	0.71140 0.57400 0.22900 -0.63100
O 	O 	0.84500 0.55180 0.10580 -0.63700
O 	O 	0.80710 0.69120 0.99360 -0.54000
O 	O 	0.90060 0.57400 0.93100 -0.52300
O 	O 	0.53360 0.83170 0.24210 -0.55300
O 	O 	0.26280 0.85180 0.30960 -0.79200
O 	O 	0.11020 0.76430 0.32610 -0.65300
O 	O 	0.39760 0.85630 0.41850 -0.50600
O 	O 	0.18190 0.90540 0.47480 -0.59400
O 	O 	0.01440 0.92600 0.27100 -0.71600
O 	O 	0.00260 0.94820 0.39420 -0.71700
O 	O 	0.99190 0.80880 0.50640 -0.54300
O 	O 	0.90560 0.92600 0.56900 -0.52100
O 	O 	0.10740 0.66830 0.25790 -0.59400
