data_crystal

_cell_length_a 16.05170
_cell_length_b 16.05170
_cell_length_c 42.80820
_cell_angle_alpha 90.00000
_cell_angle_beta  90.00000
_cell_angle_gamma 120.00000

_symmetry_space_group_name_	'P 1'
_symmetry_space_group_name_H-M	'P 1'

loop_
_symmetry_equiv_pos_as_xyz
  x,y,z

loop_
_atom_site_label
_atom_site_type_symbol
_atom_site_fract_x
_atom_site_fract_y
_atom_site_fract_z
_atom_site_charge
Mo	Mo	0.55098 0.68363 0.03602 1.03000
O 	O 	0.40160 0.54680 0.05006 -0.49200
O 	O 	0.58020 0.61720 0.07721 -0.44700
O 	O 	0.49150 0.72270 0.06753 -0.60600
O 	O 	0.58820 0.59310 0.02009 -0.60500
P 	P 	0.38020 0.44340 0.05502 0.52900
Mo	Mo	0.60774 0.50958 0.04626 1.15400
O 	O 	0.44620 0.42210 0.03731 -0.42600
O 	O 	0.27440 0.37130 0.04480 -0.30000
O 	O 	0.61850 0.43470 0.01937 -0.54500
C 	C 	0.22490 0.39790 0.02330 0.09400
C 	C 	0.11600 0.31750 0.02460 -0.00100
H 	H 	0.25080 0.40280 0.00190 -0.06100
H 	H 	0.23240 0.46100 0.02910 -0.05200
O 	O 	0.10190 0.22590 0.01515 -0.20800
C 	C 	0.07820 0.30640 0.05700 0.05500
H 	H 	0.07810 0.33580 0.01040 -0.00300
C 	C 	0.05930 0.15630 0.03940 0.12500
O 	O 	0.97770 0.28340 0.05610 -0.38500
C 	C 	0.08030 0.22130 0.06880 0.04100
H 	H 	0.11880 0.36480 0.06990 -0.02600
N 	N 	0.10300 0.09680 0.03857 -0.15900
H 	H 	0.98830 0.11620 0.03600 -0.00300
H 	H 	0.96230 0.32360 0.04410 0.00500
O 	O 	0.01030 0.16930 0.09272 -0.36000
H 	H 	0.14610 0.24130 0.07690 0.02000
C 	C 	0.19800 0.12730 0.03720 0.13400
C 	C 	0.05410 0.00030 0.04190 0.14400
H 	H 	0.02470 0.14420 0.11070 0.15800
N 	N 	0.21310 0.05750 0.03700 -0.19200
H 	H 	0.24710 0.19290 0.03660 -0.01700
N 	N 	0.95690 0.94160 0.04522 -0.17000
C 	C 	0.12460 0.97370 0.04060 -0.04900
H 	H 	0.26930 0.06100 0.03490 0.09200
C 	C 	0.93390 0.85120 0.04880 0.18600
C 	C 	0.10570 0.87680 0.04280 0.20600
N 	N 	0.00360 0.81480 0.04880 -0.22300
N 	N 	0.83980 0.78370 0.05320 -0.28000
O 	O 	0.15960 0.84370 0.04200 -0.33800
H 	H 	0.98170 0.75340 0.05260 0.06000
H 	H 	0.79570 0.80100 0.05360 0.10300
H 	H 	0.82310 0.72290 0.05560 0.09000
O 	O 	0.18510 0.74980 0.99540 -0.40400
Na	Na	0.32590 0.72180 0.99840 0.52900
Na	Na	0.06400 0.68500 0.01480 0.56400
Na	Na	0.97600 0.45570 0.04090 0.52300
Mo	Mo	0.31637 0.86735 0.70269 1.02900
O 	O 	0.45320 0.85480 0.71673 -0.49300
O 	O 	0.38280 0.96300 0.74388 -0.44800
O 	O 	0.27730 0.76880 0.73420 -0.60700
O 	O 	0.40690 0.99510 0.68676 -0.60700
P 	P 	0.55660 0.93680 0.72169 0.52700
Mo	Mo	0.49042 0.09816 0.71293 1.15400
O 	O 	0.57790 0.02410 0.70398 -0.42600
O 	O 	0.62870 0.90310 0.71147 -0.30000
O 	O 	0.56530 0.18380 0.68604 -0.54500
C 	C 	0.60210 0.82700 0.68997 0.09300
C 	C 	0.68250 0.79850 0.69127 -0.00100
H 	H 	0.59720 0.84800 0.66857 -0.06200
H 	H 	0.53900 0.77140 0.69577 -0.05200
O 	O 	0.77410 0.87600 0.68182 -0.20800
C 	C 	0.69360 0.77180 0.72367 0.05300
H 	H 	0.66420 0.74230 0.67707 -0.00400
C 	C 	0.84370 0.90300 0.70607 0.12300
O 	O 	0.71660 0.69430 0.72277 -0.38400
C 	C 	0.77870 0.85900 0.73547 0.04200
H 	H 	0.63520 0.75400 0.73657 -0.02600
N 	N 	0.90320 0.00620 0.70524 -0.15800
H 	H 	0.88380 0.87210 0.70267 -0.00100
H 	H 	0.67640 0.63870 0.71077 0.00500
O 	O 	0.83070 0.84100 0.75939 -0.36000
H 	H 	0.75870 0.90480 0.74357 0.01900
C 	C 	0.87270 0.07070 0.70387 0.13400
C 	C 	0.99970 0.05380 0.70857 0.14100
H 	H 	0.85580 0.88050 0.77737 0.15800
N 	N 	0.94250 0.15560 0.70367 -0.19300
H 	H 	0.80710 0.05420 0.70327 -0.01600
N 	N 	0.05840 0.01530 0.71189 -0.16900
C 	C 	0.02630 0.15090 0.70727 -0.04700
H 	H 	0.93900 0.20830 0.70157 0.09200
C 	C 	0.14880 0.08270 0.71547 0.18600
C 	C 	0.12320 0.22890 0.70947 0.20500
N 	N 	0.18520 0.18880 0.71547 -0.22300
N 	N 	0.21630 0.05610 0.71987 -0.27900
O 	O 	0.15630 0.31590 0.70867 -0.33700
H 	H 	0.24660 0.22830 0.71927 0.06100
H 	H 	0.19900 0.99470 0.72027 0.10200
H 	H 	0.27710 0.10020 0.72227 0.09000
O 	O 	0.25020 0.43530 0.66207 -0.40400
Na	Na	0.27820 0.60410 0.66507 0.52900
Na	Na	0.31500 0.37900 0.68147 0.56400
Na	Na	0.54430 0.52030 0.70757 0.52300
Mo	Mo	0.13265 0.44902 0.36935 1.02900
O 	O 	0.14520 0.59840 0.38339 -0.49300
O 	O 	0.03700 0.41980 0.41054 -0.44800
O 	O 	0.23120 0.50850 0.40086 -0.60700
O 	O 	0.00490 0.41180 0.35342 -0.60600
P 	P 	0.06320 0.61980 0.38835 0.52700
Mo	Mo	0.90184 0.39226 0.37959 1.15400
O 	O 	0.97590 0.55380 0.37064 -0.42600
O 	O 	0.09690 0.72560 0.37813 -0.30000
O 	O 	0.81620 0.38150 0.35270 -0.54500
C 	C 	0.17300 0.77510 0.35663 0.09400
C 	C 	0.20150 0.88400 0.35793 -0.00100
H 	H 	0.15200 0.74920 0.33523 -0.06200
H 	H 	0.22860 0.76760 0.36243 -0.05200
O 	O 	0.12400 0.89810 0.34848 -0.20800
C 	C 	0.22820 0.92180 0.39033 0.05300
H 	H 	0.25770 0.92190 0.34373 -0.00400
C 	C 	0.09700 0.94070 0.37273 0.12200
O 	O 	0.30570 0.02230 0.38943 -0.38400
C 	C 	0.14100 0.91970 0.40213 0.04200
H 	H 	0.24600 0.88120 0.40323 -0.02600
N 	N 	0.99380 0.89700 0.37190 -0.15800
H 	H 	0.12790 0.01170 0.36933 -0.00100
H 	H 	0.36130 0.03770 0.37743 0.00500
O 	O 	0.15900 0.98970 0.42605 -0.36000
H 	H 	0.09520 0.85390 0.41023 0.01900
C 	C 	0.92930 0.80200 0.37053 0.13400
C 	C 	0.94620 0.94590 0.37523 0.14400
H 	H 	0.11950 0.97530 0.44403 0.15800
N 	N 	0.84440 0.78690 0.37033 -0.19300
H 	H 	0.94580 0.75290 0.36993 -0.01600
N 	N 	0.98470 0.04310 0.37855 -0.17000
C 	C 	0.84910 0.87540 0.37393 -0.04800
H 	H 	0.79170 0.73070 0.36823 0.09200
C 	C 	0.91730 0.06610 0.38213 0.18500
C 	C 	0.77110 0.89430 0.37613 0.20500
N 	N 	0.81120 0.99640 0.38213 -0.22200
N 	N 	0.94390 0.16020 0.38653 -0.28000
O 	O 	0.68410 0.84040 0.37533 -0.33700
H 	H 	0.77170 0.01830 0.38593 0.05900
H 	H 	0.00530 0.20430 0.38693 0.10300
H 	H 	0.89980 0.17690 0.38893 0.09000
O 	O 	0.56470 0.81490 0.32873 -0.40400
Na	Na	0.39590 0.67410 0.33173 0.52900
Na	Na	0.62100 0.93600 0.34813 0.56400
Na	Na	0.47970 0.02400 0.37423 0.52300
Mo	Mo	0.44902 0.31637 0.53602 1.02900
O 	O 	0.59840 0.45320 0.55006 -0.49300
O 	O 	0.41980 0.38280 0.57721 -0.44800
O 	O 	0.50850 0.27730 0.56753 -0.60700
O 	O 	0.41180 0.40690 0.52009 -0.60600
P 	P 	0.61980 0.55660 0.55502 0.52800
Mo	Mo	0.39226 0.49042 0.54626 1.15400
O 	O 	0.55380 0.57790 0.53731 -0.42600
O 	O 	0.72560 0.62870 0.54480 -0.30000
O 	O 	0.38150 0.56530 0.51937 -0.54500
C 	C 	0.77510 0.60210 0.52330 0.09400
C 	C 	0.88400 0.68250 0.52460 -0.00100
H 	H 	0.74920 0.59720 0.50190 -0.06100
H 	H 	0.76760 0.53900 0.52910 -0.05200
O 	O 	0.89810 0.77410 0.51515 -0.20800
C 	C 	0.92180 0.69360 0.55700 0.05400
H 	H 	0.92190 0.66420 0.51040 -0.00300
C 	C 	0.94070 0.84370 0.53940 0.12500
O 	O 	0.02230 0.71660 0.55610 -0.38500
C 	C 	0.91970 0.77870 0.56880 0.04100
H 	H 	0.88120 0.63520 0.56990 -0.02600
N 	N 	0.89700 0.90320 0.53857 -0.15900
H 	H 	0.01170 0.88380 0.53600 -0.00300
H 	H 	0.03770 0.67640 0.54410 0.00500
O 	O 	0.98970 0.83070 0.59272 -0.36000
H 	H 	0.85390 0.75870 0.57690 0.02000
C 	C 	0.80200 0.87270 0.53720 0.13400
C 	C 	0.94590 0.99970 0.54190 0.14400
H 	H 	0.97530 0.85580 0.61070 0.15800
N 	N 	0.78690 0.94250 0.53700 -0.19200
H 	H 	0.75290 0.80710 0.53660 -0.01700
N 	N 	0.04310 0.05840 0.54522 -0.17000
C 	C 	0.87540 0.02630 0.54060 -0.04900
H 	H 	0.73070 0.93900 0.53490 0.09200
C 	C 	0.06610 0.14880 0.54880 0.18600
C 	C 	0.89430 0.12320 0.54280 0.20600
N 	N 	0.99640 0.18520 0.54880 -0.22300
N 	N 	0.16020 0.21630 0.55320 -0.28000
O 	O 	0.84040 0.15630 0.54200 -0.33800
H 	H 	0.01830 0.24660 0.55260 0.06000
H 	H 	0.20430 0.19900 0.55360 0.10300
H 	H 	0.17690 0.27710 0.55560 0.09000
O 	O 	0.81490 0.25020 0.49540 -0.40400
Na	Na	0.67410 0.27820 0.49840 0.52900
Na	Na	0.93600 0.31500 0.51480 0.56400
Na	Na	0.02400 0.54430 0.54090 0.52300
Mo	Mo	0.68363 0.13265 0.20269 1.02900
O 	O 	0.54680 0.14520 0.21673 -0.49300
O 	O 	0.61720 0.03700 0.24388 -0.44800
O 	O 	0.72270 0.23120 0.23420 -0.60700
O 	O 	0.59310 0.00490 0.18676 -0.60700
P 	P 	0.44340 0.06320 0.22169 0.52700
Mo	Mo	0.50958 0.90184 0.21293 1.15400
O 	O 	0.42210 0.97590 0.20398 -0.42600
O 	O 	0.37130 0.09690 0.21147 -0.30000
O 	O 	0.43470 0.81620 0.18604 -0.54500
C 	C 	0.39790 0.17300 0.18997 0.09300
C 	C 	0.31750 0.20150 0.19127 -0.00100
H 	H 	0.40280 0.15200 0.16857 -0.06200
H 	H 	0.46100 0.22860 0.19577 -0.05200
O 	O 	0.22590 0.12400 0.18182 -0.20800
C 	C 	0.30640 0.22820 0.22367 0.05300
H 	H 	0.33580 0.25770 0.17707 -0.00400
C 	C 	0.15630 0.09700 0.20607 0.12300
O 	O 	0.28340 0.30570 0.22277 -0.38400
C 	C 	0.22130 0.14100 0.23547 0.04200
H 	H 	0.36480 0.24600 0.23657 -0.02600
N 	N 	0.09680 0.99380 0.20524 -0.15800
H 	H 	0.11620 0.12790 0.20267 -0.00100
H 	H 	0.32360 0.36130 0.21077 0.00500
O 	O 	0.16930 0.15900 0.25939 -0.36000
H 	H 	0.24130 0.09520 0.24357 0.01900
C 	C 	0.12730 0.92930 0.20387 0.13400
C 	C 	0.00030 0.94620 0.20857 0.14100
H 	H 	0.14420 0.11950 0.27737 0.15800
N 	N 	0.05750 0.84440 0.20367 -0.19300
H 	H 	0.19290 0.94580 0.20327 -0.01600
N 	N 	0.94160 0.98470 0.21189 -0.16900
C 	C 	0.97370 0.84910 0.20727 -0.04700
H 	H 	0.06100 0.79170 0.20157 0.09200
C 	C 	0.85120 0.91730 0.21547 0.18600
C 	C 	0.87680 0.77110 0.20947 0.20500
N 	N 	0.81480 0.81120 0.21547 -0.22300
N 	N 	0.78370 0.94390 0.21987 -0.27900
O 	O 	0.84370 0.68410 0.20867 -0.33700
H 	H 	0.75340 0.77170 0.21927 0.06100
H 	H 	0.80100 0.00530 0.22027 0.10200
H 	H 	0.72290 0.89980 0.22227 0.09000
O 	O 	0.74980 0.56470 0.16207 -0.40400
Na	Na	0.72180 0.39590 0.16507 0.52900
Na	Na	0.68500 0.62100 0.18147 0.56400
Na	Na	0.45570 0.47970 0.20757 0.52300
Mo	Mo	0.86735 0.55098 0.86935 1.02900
O 	O 	0.85480 0.40160 0.88339 -0.49300
O 	O 	0.96300 0.58020 0.91054 -0.44800
O 	O 	0.76880 0.49150 0.90086 -0.60700
O 	O 	0.99510 0.58820 0.85342 -0.60600
P 	P 	0.93680 0.38020 0.88835 0.52700
Mo	Mo	0.09816 0.60774 0.87959 1.15400
O 	O 	0.02410 0.44620 0.87064 -0.42600
O 	O 	0.90310 0.27440 0.87813 -0.30000
O 	O 	0.18380 0.61850 0.85270 -0.54500
C 	C 	0.82700 0.22490 0.85663 0.09400
C 	C 	0.79850 0.11600 0.85793 -0.00100
H 	H 	0.84800 0.25080 0.83523 -0.06200
H 	H 	0.77140 0.23240 0.86243 -0.05200
O 	O 	0.87600 0.10190 0.84848 -0.20800
C 	C 	0.77180 0.07820 0.89033 0.05300
H 	H 	0.74230 0.07810 0.84373 -0.00400
C 	C 	0.90300 0.05930 0.87273 0.12200
O 	O 	0.69430 0.97770 0.88943 -0.38400
C 	C 	0.85900 0.08030 0.90213 0.04200
H 	H 	0.75400 0.11880 0.90323 -0.02600
N 	N 	0.00620 0.10300 0.87190 -0.15800
H 	H 	0.87210 0.98830 0.86933 -0.00100
H 	H 	0.63870 0.96230 0.87743 0.00500
O 	O 	0.84100 0.01030 0.92605 -0.36000
H 	H 	0.90480 0.14610 0.91023 0.01900
C 	C 	0.07070 0.19800 0.87053 0.13400
C 	C 	0.05380 0.05410 0.87523 0.14400
H 	H 	0.88050 0.02470 0.94403 0.15800
N 	N 	0.15560 0.21310 0.87033 -0.19300
H 	H 	0.05420 0.24710 0.86993 -0.01600
N 	N 	0.01530 0.95690 0.87855 -0.17000
C 	C 	0.15090 0.12460 0.87393 -0.04800
H 	H 	0.20830 0.26930 0.86823 0.09200
C 	C 	0.08270 0.93390 0.88213 0.18500
C 	C 	0.22890 0.10570 0.87613 0.20500
N 	N 	0.18880 0.00360 0.88213 -0.22200
N 	N 	0.05610 0.83980 0.88653 -0.28000
O 	O 	0.31590 0.15960 0.87533 -0.33700
H 	H 	0.22830 0.98170 0.88593 0.05900
H 	H 	0.99470 0.79570 0.88693 0.10300
H 	H 	0.10020 0.82310 0.88893 0.09000
O 	O 	0.43530 0.18510 0.82873 -0.40400
Na	Na	0.60410 0.32590 0.83173 0.52900
Na	Na	0.37900 0.06400 0.84813 0.56400
Na	Na	0.52030 0.97600 0.87423 0.52300
Mo	Mo	0.68363 0.55098 0.63065 1.02900
O 	O 	0.54680 0.40160 0.61661 -0.49300
O 	O 	0.61720 0.58020 0.58946 -0.44800
O 	O 	0.72270 0.49150 0.59914 -0.60700
O 	O 	0.59310 0.58820 0.64658 -0.60600
P 	P 	0.44340 0.38020 0.61165 0.52800
Mo	Mo	0.50958 0.60774 0.62041 1.15400
O 	O 	0.42210 0.44620 0.62936 -0.42600
O 	O 	0.37130 0.27440 0.62187 -0.30000
O 	O 	0.43470 0.61850 0.64730 -0.54500
C 	C 	0.39790 0.22490 0.64337 0.09400
C 	C 	0.31750 0.11600 0.64207 -0.00100
H 	H 	0.40280 0.25080 0.66477 -0.06100
H 	H 	0.46100 0.23240 0.63757 -0.05200
O 	O 	0.22590 0.10190 0.65152 -0.20800
C 	C 	0.30640 0.07820 0.60967 0.05400
H 	H 	0.33580 0.07810 0.65627 -0.00300
C 	C 	0.15630 0.05930 0.62727 0.12500
O 	O 	0.28340 0.97770 0.61057 -0.38500
C 	C 	0.22130 0.08030 0.59787 0.04100
H 	H 	0.36480 0.11880 0.59677 -0.02600
N 	N 	0.09680 0.10300 0.62810 -0.15900
H 	H 	0.11620 0.98830 0.63067 -0.00300
H 	H 	0.32360 0.96230 0.62257 0.00500
O 	O 	0.16930 0.01030 0.57395 -0.36000
H 	H 	0.24130 0.14610 0.58977 0.02000
C 	C 	0.12730 0.19800 0.62947 0.13400
C 	C 	0.00030 0.05410 0.62477 0.14400
H 	H 	0.14420 0.02470 0.55597 0.15800
N 	N 	0.05750 0.21310 0.62967 -0.19200
H 	H 	0.19290 0.24710 0.63007 -0.01700
N 	N 	0.94160 0.95690 0.62145 -0.17000
C 	C 	0.97370 0.12460 0.62607 -0.04900
H 	H 	0.06100 0.26930 0.63177 0.09200
C 	C 	0.85120 0.93390 0.61787 0.18600
C 	C 	0.87680 0.10570 0.62387 0.20600
N 	N 	0.81480 0.00360 0.61787 -0.22300
N 	N 	0.78370 0.83980 0.61347 -0.28000
O 	O 	0.84370 0.15960 0.62467 -0.33800
H 	H 	0.75340 0.98170 0.61407 0.06000
H 	H 	0.80100 0.79570 0.61307 0.10300
H 	H 	0.72290 0.82310 0.61107 0.09000
O 	O 	0.74980 0.18510 0.67127 -0.40400
Na	Na	0.72180 0.32590 0.66827 0.52900
Na	Na	0.68500 0.06400 0.65187 0.56400
Na	Na	0.45570 0.97600 0.62577 0.52300
Mo	Mo	0.86735 0.31637 0.96398 1.02900
O 	O 	0.85480 0.45320 0.94994 -0.49300
O 	O 	0.96300 0.38280 0.92279 -0.44800
O 	O 	0.76880 0.27730 0.93247 -0.60700
O 	O 	0.99510 0.40690 0.97991 -0.60700
P 	P 	0.93680 0.55660 0.94498 0.52700
Mo	Mo	0.09816 0.49042 0.95374 1.15400
O 	O 	0.02410 0.57790 0.96269 -0.42600
O 	O 	0.90310 0.62870 0.95520 -0.30000
O 	O 	0.18380 0.56530 0.98063 -0.54500
C 	C 	0.82700 0.60210 0.97670 0.09300
C 	C 	0.79850 0.68250 0.97540 -0.00100
H 	H 	0.84800 0.59720 0.99810 -0.06200
H 	H 	0.77140 0.53900 0.97090 -0.05200
O 	O 	0.87600 0.77410 0.98485 -0.20800
C 	C 	0.77180 0.69360 0.94300 0.05300
H 	H 	0.74230 0.66420 0.98960 -0.00400
C 	C 	0.90300 0.84370 0.96060 0.12300
O 	O 	0.69430 0.71660 0.94390 -0.38400
C 	C 	0.85900 0.77870 0.93120 0.04200
H 	H 	0.75400 0.63520 0.93010 -0.02600
N 	N 	0.00620 0.90320 0.96143 -0.15800
H 	H 	0.87210 0.88380 0.96400 -0.00100
H 	H 	0.63870 0.67640 0.95590 0.00500
O 	O 	0.84100 0.83070 0.90728 -0.36000
H 	H 	0.90480 0.75870 0.92310 0.01900
C 	C 	0.07070 0.87270 0.96280 0.13400
C 	C 	0.05380 0.99970 0.95810 0.14100
H 	H 	0.88050 0.85580 0.88930 0.15800
N 	N 	0.15560 0.94250 0.96300 -0.19300
H 	H 	0.05420 0.80710 0.96340 -0.01600
N 	N 	0.01530 0.05840 0.95478 -0.16900
C 	C 	0.15090 0.02630 0.95940 -0.04700
H 	H 	0.20830 0.93900 0.96510 0.09200
C 	C 	0.08270 0.14880 0.95120 0.18600
C 	C 	0.22890 0.12320 0.95720 0.20500
N 	N 	0.18880 0.18520 0.95120 -0.22300
N 	N 	0.05610 0.21630 0.94680 -0.27900
O 	O 	0.31590 0.15630 0.95800 -0.33700
H 	H 	0.22830 0.24660 0.94740 0.06100
H 	H 	0.99470 0.19900 0.94640 0.10200
H 	H 	0.10020 0.27710 0.94440 0.09000
O 	O 	0.43530 0.25020 0.00460 -0.40400
Na	Na	0.60410 0.27820 0.00160 0.52900
Na	Na	0.37900 0.31500 0.98520 0.56400
Na	Na	0.52030 0.54430 0.95910 0.52300
Mo	Mo	0.44902 0.13265 0.29731 1.02900
O 	O 	0.59840 0.14520 0.28327 -0.49300
O 	O 	0.41980 0.03700 0.25612 -0.44800
O 	O 	0.50850 0.23120 0.26580 -0.60700
O 	O 	0.41180 0.00490 0.31324 -0.60600
P 	P 	0.61980 0.06320 0.27831 0.52700
Mo	Mo	0.39226 0.90184 0.28707 1.15400
O 	O 	0.55380 0.97590 0.29602 -0.42600
O 	O 	0.72560 0.09690 0.28853 -0.30000
O 	O 	0.38150 0.81620 0.31396 -0.54500
C 	C 	0.77510 0.17300 0.31003 0.09400
C 	C 	0.88400 0.20150 0.30873 -0.00100
H 	H 	0.74920 0.15200 0.33143 -0.06200
H 	H 	0.76760 0.22860 0.30423 -0.05200
O 	O 	0.89810 0.12400 0.31818 -0.20800
C 	C 	0.92180 0.22820 0.27633 0.05300
H 	H 	0.92190 0.25770 0.32293 -0.00400
C 	C 	0.94070 0.09700 0.29393 0.12200
O 	O 	0.02230 0.30570 0.27723 -0.38400
C 	C 	0.91970 0.14100 0.26453 0.04200
H 	H 	0.88120 0.24600 0.26343 -0.02600
N 	N 	0.89700 0.99380 0.29476 -0.15800
H 	H 	0.01170 0.12790 0.29733 -0.00100
H 	H 	0.03770 0.36130 0.28923 0.00500
O 	O 	0.98970 0.15900 0.24061 -0.36000
H 	H 	0.85390 0.09520 0.25643 0.01900
C 	C 	0.80200 0.92930 0.29613 0.13400
C 	C 	0.94590 0.94620 0.29143 0.14400
H 	H 	0.97530 0.11950 0.22263 0.15800
N 	N 	0.78690 0.84440 0.29633 -0.19300
H 	H 	0.75290 0.94580 0.29673 -0.01600
N 	N 	0.04310 0.98470 0.28811 -0.17000
C 	C 	0.87540 0.84910 0.29273 -0.04800
H 	H 	0.73070 0.79170 0.29843 0.09200
C 	C 	0.06610 0.91730 0.28453 0.18500
C 	C 	0.89430 0.77110 0.29053 0.20500
N 	N 	0.99640 0.81120 0.28453 -0.22200
N 	N 	0.16020 0.94390 0.28013 -0.28000
O 	O 	0.84040 0.68410 0.29133 -0.33700
H 	H 	0.01830 0.77170 0.28073 0.05900
H 	H 	0.20430 0.00530 0.27973 0.10300
H 	H 	0.17690 0.89980 0.27773 0.09000
O 	O 	0.81490 0.56470 0.33793 -0.40400
Na	Na	0.67410 0.39590 0.33493 0.52900
Na	Na	0.93600 0.62100 0.31853 0.56400
Na	Na	0.02400 0.47970 0.29243 0.52300
Mo	Mo	0.31637 0.44902 0.13065 1.02900
O 	O 	0.45320 0.59840 0.11661 -0.49300
O 	O 	0.38280 0.41980 0.08946 -0.44800
O 	O 	0.27730 0.50850 0.09914 -0.60700
O 	O 	0.40690 0.41180 0.14658 -0.60600
P 	P 	0.55660 0.61980 0.11165 0.52800
Mo	Mo	0.49042 0.39226 0.12041 1.15400
O 	O 	0.57790 0.55380 0.12936 -0.42600
O 	O 	0.62870 0.72560 0.12187 -0.30000
O 	O 	0.56530 0.38150 0.14730 -0.54500
C 	C 	0.60210 0.77510 0.14337 0.09400
C 	C 	0.68250 0.88400 0.14207 -0.00100
H 	H 	0.59720 0.74920 0.16477 -0.06100
H 	H 	0.53900 0.76760 0.13757 -0.05200
O 	O 	0.77410 0.89810 0.15152 -0.20800
C 	C 	0.69360 0.92180 0.10967 0.05400
H 	H 	0.66420 0.92190 0.15627 -0.00300
C 	C 	0.84370 0.94070 0.12727 0.12500
O 	O 	0.71660 0.02230 0.11057 -0.38500
C 	C 	0.77870 0.91970 0.09787 0.04100
H 	H 	0.63520 0.88120 0.09677 -0.02600
N 	N 	0.90320 0.89700 0.12810 -0.15900
H 	H 	0.88380 0.01170 0.13067 -0.00300
H 	H 	0.67640 0.03770 0.12257 0.00500
O 	O 	0.83070 0.98970 0.07395 -0.36000
H 	H 	0.75870 0.85390 0.08977 0.02000
C 	C 	0.87270 0.80200 0.12947 0.13400
C 	C 	0.99970 0.94590 0.12477 0.14400
H 	H 	0.85580 0.97530 0.05597 0.15800
N 	N 	0.94250 0.78690 0.12967 -0.19200
H 	H 	0.80710 0.75290 0.13007 -0.01700
N 	N 	0.05840 0.04310 0.12145 -0.17000
C 	C 	0.02630 0.87540 0.12607 -0.04900
H 	H 	0.93900 0.73070 0.13177 0.09200
C 	C 	0.14880 0.06610 0.11787 0.18600
C 	C 	0.12320 0.89430 0.12387 0.20500
N 	N 	0.18520 0.99640 0.11787 -0.22300
N 	N 	0.21630 0.16020 0.11347 -0.28000
O 	O 	0.15630 0.84040 0.12467 -0.33800
H 	H 	0.24660 0.01830 0.11407 0.06000
H 	H 	0.19900 0.20430 0.11307 0.10300
H 	H 	0.27710 0.17690 0.11107 0.09000
O 	O 	0.25020 0.81490 0.17127 -0.40400
Na	Na	0.27820 0.67410 0.16827 0.52900
Na	Na	0.31500 0.93600 0.15187 0.56400
Na	Na	0.54430 0.02400 0.12577 0.52300
Mo	Mo	0.13265 0.68363 0.46398 1.02900
O 	O 	0.14520 0.54680 0.44994 -0.49300
O 	O 	0.03700 0.61720 0.42279 -0.44800
O 	O 	0.23120 0.72270 0.43247 -0.60700
O 	O 	0.00490 0.59310 0.47991 -0.60700
P 	P 	0.06320 0.44340 0.44498 0.52700
Mo	Mo	0.90184 0.50958 0.45374 1.15400
O 	O 	0.97590 0.42210 0.46269 -0.42600
O 	O 	0.09690 0.37130 0.45520 -0.30000
O 	O 	0.81620 0.43470 0.48063 -0.54500
C 	C 	0.17300 0.39790 0.47670 0.09300
C 	C 	0.20150 0.31750 0.47540 -0.00100
H 	H 	0.15200 0.40280 0.49810 -0.06200
H 	H 	0.22860 0.46100 0.47090 -0.05200
O 	O 	0.12400 0.22590 0.48485 -0.20800
C 	C 	0.22820 0.30640 0.44300 0.05300
H 	H 	0.25770 0.33580 0.48960 -0.00400
C 	C 	0.09700 0.15630 0.46060 0.12300
O 	O 	0.30570 0.28340 0.44390 -0.38400
C 	C 	0.14100 0.22130 0.43120 0.04200
H 	H 	0.24600 0.36480 0.43010 -0.02600
N 	N 	0.99380 0.09680 0.46143 -0.15800
H 	H 	0.12790 0.11620 0.46400 -0.00100
H 	H 	0.36130 0.32360 0.45590 0.00500
O 	O 	0.15900 0.16930 0.40728 -0.36000
H 	H 	0.09520 0.24130 0.42310 0.01900
C 	C 	0.92930 0.12730 0.46280 0.13400
C 	C 	0.94620 0.00030 0.45810 0.14100
H 	H 	0.11950 0.14420 0.38930 0.15800
N 	N 	0.84440 0.05750 0.46300 -0.19300
H 	H 	0.94580 0.19290 0.46340 -0.01600
N 	N 	0.98470 0.94160 0.45478 -0.16900
C 	C 	0.84910 0.97370 0.45940 -0.04700
H 	H 	0.79170 0.06100 0.46510 0.09200
C 	C 	0.91730 0.85120 0.45120 0.18600
C 	C 	0.77110 0.87680 0.45720 0.20500
N 	N 	0.81120 0.81480 0.45120 -0.22300
N 	N 	0.94390 0.78370 0.44680 -0.27900
O 	O 	0.68410 0.84370 0.45800 -0.33700
H 	H 	0.77170 0.75340 0.44740 0.06100
H 	H 	0.00530 0.80100 0.44640 0.10200
H 	H 	0.89980 0.72290 0.44440 0.09000
O 	O 	0.56470 0.74980 0.50460 -0.40400
Na	Na	0.39590 0.72180 0.50160 0.52900
Na	Na	0.62100 0.68500 0.48520 0.56400
Na	Na	0.47970 0.45570 0.45910 0.52300
Mo	Mo	0.55098 0.86735 0.79731 1.02900
O 	O 	0.40160 0.85480 0.78327 -0.49300
O 	O 	0.58020 0.96300 0.75612 -0.44800
O 	O 	0.49150 0.76880 0.76580 -0.60700
O 	O 	0.58820 0.99510 0.81324 -0.60600
P 	P 	0.38020 0.93680 0.77831 0.52700
Mo	Mo	0.60774 0.09816 0.78707 1.15400
O 	O 	0.44620 0.02410 0.79602 -0.42600
O 	O 	0.27440 0.90310 0.78853 -0.30000
O 	O 	0.61850 0.18380 0.81396 -0.54500
C 	C 	0.22490 0.82700 0.81003 0.09400
C 	C 	0.11600 0.79850 0.80873 -0.00100
H 	H 	0.25080 0.84800 0.83143 -0.06200
H 	H 	0.23240 0.77140 0.80423 -0.05200
O 	O 	0.10190 0.87600 0.81818 -0.20800
C 	C 	0.07820 0.77180 0.77633 0.05300
H 	H 	0.07810 0.74230 0.82293 -0.00400
C 	C 	0.05930 0.90300 0.79393 0.12200
O 	O 	0.97770 0.69430 0.77723 -0.38400
C 	C 	0.08030 0.85900 0.76453 0.04200
H 	H 	0.11880 0.75400 0.76343 -0.02600
N 	N 	0.10300 0.00620 0.79476 -0.15800
H 	H 	0.98830 0.87210 0.79733 -0.00100
H 	H 	0.96230 0.63870 0.78923 0.00500
O 	O 	0.01030 0.84100 0.74061 -0.36000
H 	H 	0.14610 0.90480 0.75643 0.01900
C 	C 	0.19800 0.07070 0.79613 0.13400
C 	C 	0.05410 0.05380 0.79143 0.14400
H 	H 	0.02470 0.88050 0.72263 0.15800
N 	N 	0.21310 0.15560 0.79633 -0.19300
H 	H 	0.24710 0.05420 0.79673 -0.01600
N 	N 	0.95690 0.01530 0.78811 -0.17000
C 	C 	0.12460 0.15090 0.79273 -0.04800
H 	H 	0.26930 0.20830 0.79843 0.09200
C 	C 	0.93390 0.08270 0.78453 0.18500
C 	C 	0.10570 0.22890 0.79053 0.20500
N 	N 	0.00360 0.18880 0.78453 -0.22200
N 	N 	0.83980 0.05610 0.78013 -0.28000
O 	O 	0.15960 0.31590 0.79133 -0.33700
H 	H 	0.98170 0.22830 0.78073 0.05900
H 	H 	0.79570 0.99470 0.77973 0.10300
H 	H 	0.82310 0.10020 0.77773 0.09000
O 	O 	0.18510 0.43530 0.83793 -0.40400
Na	Na	0.32590 0.60410 0.83493 0.52900
Na	Na	0.06400 0.37900 0.81853 0.56400
Na	Na	0.97600 0.52030 0.79243 0.52300
Mo	Mo	0.36552 0.63448 0.08333 1.02200
O 	O 	0.56800 0.43200 0.08333 -0.54300
Mo	Mo	0.36552 0.73104 0.75000 1.02200
O 	O 	0.56800 0.13600 0.75000 -0.54300
Mo	Mo	0.26896 0.63448 0.41667 1.02200
O 	O 	0.86400 0.43200 0.41667 -0.54300
Mo	Mo	0.63448 0.36552 0.58333 1.02200
O 	O 	0.43200 0.56800 0.58333 -0.54300
Mo	Mo	0.63448 0.26896 0.25000 1.02200
O 	O 	0.43200 0.86400 0.25000 -0.54300
Mo	Mo	0.73104 0.36552 0.91667 1.02200
O 	O 	0.13600 0.56800 0.91667 -0.54300
Na	Na	0.84990 0.15010 0.08333 0.55800
Na	Na	0.84990 0.69980 0.75000 0.55800
Na	Na	0.30020 0.15010 0.41667 0.55800
Na	Na	0.15010 0.84990 0.58333 0.55800
Na	Na	0.15010 0.30020 0.25000 0.55800
Na	Na	0.69980 0.84990 0.91667 0.55800
