data_crystal

_cell_length_a 7.32360
_cell_length_b 7.32360
_cell_length_c 8.31800
_cell_angle_alpha 90.00000
_cell_angle_beta  90.00000
_cell_angle_gamma 120.00000

_symmetry_space_group_name_	'P 1'
_symmetry_space_group_name_H-M	'P 1'

loop_
_symmetry_equiv_pos_as_xyz
  x,y,z

loop_
_atom_site_label
_atom_site_type_symbol
_atom_site_fract_x
_atom_site_fract_y
_atom_site_fract_z
_atom_site_charge
O 	O 	0.10827 0.69447 0.10444 -0.32900
O 	O 	0.30553 0.41380 0.10444 -0.35800
O 	O 	0.58620 0.89173 0.10444 -0.27600
O 	O 	0.89173 0.30553 0.60444 -0.32100
O 	O 	0.69447 0.58620 0.60444 -0.33900
O 	O 	0.41380 0.10827 0.60444 -0.35300
O 	O 	0.69447 0.10827 0.89556 -0.25900
O 	O 	0.41380 0.30553 0.89556 -0.28700
O 	O 	0.89173 0.58620 0.89556 -0.22600
O 	O 	0.30553 0.89173 0.39556 -0.30600
O 	O 	0.58620 0.69447 0.39556 -0.34400
O 	O 	0.10827 0.41380 0.39556 -0.36400
Fe	Fe	0.33333 0.66667 0.25000 1.21000
Fe	Fe	0.66667 0.33333 0.75000 1.21500
C 	C 	-0.00000 0.56450 -0.00000 0.19300
H 	H 	0.00000 0.41100 -0.00000 -0.03700
C 	C 	0.43550 0.43550 -0.00000 0.24900
H 	H 	0.58900 0.58900 -0.00000 -0.02600
C 	C 	0.56450 0.00000 -0.00000 0.16300
H 	H 	0.41100 0.00000 -0.00000 -0.03500
C 	C 	0.00000 0.43550 0.50000 0.29900
H 	H 	0.00000 0.58900 0.50000 -0.02900
C 	C 	0.56450 0.56450 0.50000 0.35300
H 	H 	0.41100 0.41100 0.50000 -0.03700
C 	C 	0.43550 0.00000 0.50000 0.27400
H 	H 	0.58900 0.00000 0.50000 -0.03000
