data_crystal

_cell_length_a 7.98100
_cell_length_b 9.72300
_cell_length_c 15.90900
_cell_angle_alpha 90.00000
_cell_angle_beta  90.00000
_cell_angle_gamma 96.29000

_symmetry_space_group_name_	'P 1'
_symmetry_space_group_name_H-M	'P 1'

loop_
_symmetry_equiv_pos_as_xyz
  x,y,z

loop_
_atom_site_label
_atom_site_type_symbol
_atom_site_fract_x
_atom_site_fract_y
_atom_site_fract_z
_atom_site_charge
Eu	Eu	0.92130 0.13446 0.32677 1.71900
Eu	Eu	0.57870 0.36554 0.82677 1.74300
Eu	Eu	0.07870 0.86554 0.67323 1.71900
Eu	Eu	0.42130 0.63446 0.17323 1.74300
H 	H 	0.96860 0.68496 0.38791 0.05900
H 	H 	0.61737 0.34707 0.25147 -0.03700
H 	H 	0.53140 0.81504 0.88791 0.05600
H 	H 	0.88263 0.15293 0.75147 -0.03700
H 	H 	0.03140 0.31504 0.61209 0.05900
H 	H 	0.38263 0.65293 0.74853 -0.03700
H 	H 	0.46860 0.18496 0.11209 0.05600
H 	H 	0.11737 0.84707 0.24853 -0.03700
C 	C 	0.91410 0.47490 0.36830 -0.01100
C 	C 	0.74380 0.79600 0.28440 0.39700
C 	C 	0.89610 0.61490 0.35920 -0.02700
C 	C 	0.76920 0.64820 0.30630 -0.05200
C 	C 	0.05680 0.42430 0.41850 0.32100
C 	C 	0.68970 0.41950 0.28090 0.12000
C 	C 	0.91010 0.00970 0.51590 0.26500
C 	C 	0.58590 0.02510 0.86830 -0.01500
C 	C 	0.75620 0.70400 0.78440 0.39900
C 	C 	0.60390 0.88510 0.85920 -0.02100
C 	C 	0.73080 0.85180 0.80630 -0.05300
C 	C 	0.44320 0.07570 0.91850 0.32700
C 	C 	0.81030 0.08050 0.78090 0.11200
C 	C 	0.58990 0.49030 0.01590 0.27600
C 	C 	0.08590 0.52510 0.63170 -0.01100
C 	C 	0.25620 0.20400 0.71560 0.39700
C 	C 	0.10390 0.38510 0.64080 -0.02700
C 	C 	0.23080 0.35180 0.69370 -0.05200
C 	C 	0.94320 0.57570 0.58150 0.32100
C 	C 	0.31030 0.58050 0.71910 0.12000
C 	C 	0.08990 0.99030 0.48410 0.26500
C 	C 	0.41410 0.97490 0.13170 -0.01500
C 	C 	0.24380 0.29600 0.21560 0.39900
C 	C 	0.39610 0.11490 0.14080 -0.02100
C 	C 	0.26920 0.14820 0.19370 -0.05300
C 	C 	0.55680 0.92430 0.08150 0.32700
C 	C 	0.18970 0.91950 0.21910 0.11200
C 	C 	0.41010 0.50970 0.98410 0.27600
N 	N 	0.81180 0.37790 0.32919 -0.22000
N 	N 	0.66420 0.55080 0.26774 -0.20100
N 	N 	0.68820 0.12210 0.82919 -0.21900
N 	N 	0.83580 0.94920 0.76774 -0.19300
N 	N 	0.18820 0.62210 0.67081 -0.22000
N 	N 	0.33580 0.44920 0.73226 -0.20100
N 	N 	0.31180 0.87790 0.17081 -0.21900
N 	N 	0.16420 0.05080 0.23226 -0.19300
O 	O 	0.04960 0.29500 0.42882 -0.39100
O 	O 	0.85160 0.88920 0.31056 -0.46200
O 	O 	0.81230 0.05680 0.46425 -0.39000
O 	O 	0.61920 0.81330 0.23966 -0.46600
O 	O 	0.87500 0.97640 0.58981 -0.36700
O 	O 	0.17180 0.51280 0.44291 -0.26300
O 	O 	0.45040 0.20500 0.92882 -0.39700
O 	O 	0.64840 0.61080 0.81056 -0.46900
O 	O 	0.68770 0.44320 0.96425 -0.39200
O 	O 	0.88080 0.68670 0.73966 -0.46300
O 	O 	0.62500 0.52360 0.08981 -0.38100
O 	O 	0.32820 0.98720 0.94291 -0.26700
O 	O 	0.95040 0.70500 0.57118 -0.39100
O 	O 	0.14840 0.11080 0.68944 -0.46200
O 	O 	0.18770 0.94320 0.53575 -0.39000
O 	O 	0.38080 0.18670 0.76034 -0.46600
O 	O 	0.12500 0.02360 0.41019 -0.36700
O 	O 	0.82820 0.48720 0.55709 -0.26300
O 	O 	0.54960 0.79500 0.07118 -0.39700
O 	O 	0.35160 0.38920 0.18944 -0.46900
O 	O 	0.31230 0.55680 0.03575 -0.39200
O 	O 	0.11920 0.31330 0.26034 -0.46300
O 	O 	0.37500 0.47640 0.91019 -0.38100
O 	O 	0.67180 0.01280 0.05709 -0.26700
