data_crystal

_cell_length_a 7.95900
_cell_length_b 9.66400
_cell_length_c 15.84400
_cell_angle_alpha 90.00000
_cell_angle_beta  90.00000
_cell_angle_gamma 96.48900

_symmetry_space_group_name_	'P 1'
_symmetry_space_group_name_H-M	'P 1'

loop_
_symmetry_equiv_pos_as_xyz
  x,y,z

loop_
_atom_site_label
_atom_site_type_symbol
_atom_site_fract_x
_atom_site_fract_y
_atom_site_fract_z
_atom_site_charge
Tb	Tb	0.92294 0.13332 0.32707 1.64400
Tb	Tb	0.57706 0.36668 0.82707 1.66600
Tb	Tb	0.07706 0.86668 0.67293 1.64300
Tb	Tb	0.42294 0.63332 0.17293 1.66500
H 	H 	0.96860 0.68496 0.38791 0.06200
H 	H 	0.61737 0.34707 0.25147 -0.03500
H 	H 	0.53140 0.81504 0.88791 0.05900
H 	H 	0.88263 0.15293 0.75147 -0.03400
H 	H 	0.03140 0.31504 0.61209 0.06200
H 	H 	0.38263 0.65293 0.74853 -0.03500
H 	H 	0.46860 0.18496 0.11209 0.05900
H 	H 	0.11737 0.84707 0.24853 -0.03400
C 	C 	0.91500 0.47360 0.36778 -0.00700
C 	C 	0.74500 0.79590 0.28378 0.39700
C 	C 	0.89670 0.61440 0.35863 -0.02800
C 	C 	0.77040 0.64730 0.30561 -0.04800
C 	C 	0.05840 0.42290 0.41857 0.32500
C 	C 	0.69160 0.41770 0.27944 0.12700
C 	C 	0.90970 0.00960 0.51526 0.26300
C 	C 	0.58500 0.02640 0.86778 -0.01100
C 	C 	0.75500 0.70410 0.78378 0.39900
C 	C 	0.60330 0.88560 0.85863 -0.02200
C 	C 	0.72960 0.85270 0.80561 -0.04900
C 	C 	0.44160 0.07710 0.91857 0.33000
C 	C 	0.80840 0.08230 0.77944 0.11800
C 	C 	0.59030 0.49040 0.01526 0.27400
C 	C 	0.08500 0.52640 0.63222 -0.00700
C 	C 	0.25500 0.20410 0.71622 0.39700
C 	C 	0.10330 0.38560 0.64137 -0.02800
C 	C 	0.22960 0.35270 0.69439 -0.04800
C 	C 	0.94160 0.57710 0.58143 0.32500
C 	C 	0.30840 0.58230 0.72056 0.12700
C 	C 	0.09030 0.99040 0.48474 0.26300
C 	C 	0.41500 0.97360 0.13222 -0.01100
C 	C 	0.24500 0.29590 0.21622 0.39900
C 	C 	0.39670 0.11440 0.14137 -0.02200
C 	C 	0.27040 0.14730 0.19439 -0.04900
C 	C 	0.55840 0.92290 0.08143 0.33000
C 	C 	0.19160 0.91770 0.22056 0.11800
C 	C 	0.40970 0.50960 0.98474 0.27400
N 	N 	0.81310 0.37570 0.32819 -0.21600
N 	N 	0.66530 0.54910 0.26661 -0.19600
N 	N 	0.68690 0.12430 0.82819 -0.21500
N 	N 	0.83470 0.95090 0.76661 -0.18900
N 	N 	0.18690 0.62430 0.67181 -0.21600
N 	N 	0.33470 0.45090 0.73339 -0.19600
N 	N 	0.31310 0.87570 0.17181 -0.21500
N 	N 	0.16530 0.04910 0.23339 -0.18900
O 	O 	0.04990 0.29287 0.42919 -0.38300
O 	O 	0.85180 0.88991 0.31071 -0.45600
O 	O 	0.81250 0.05690 0.46368 -0.38000
O 	O 	0.61980 0.81260 0.23879 -0.45500
O 	O 	0.87450 0.97692 0.59035 -0.35600
O 	O 	0.17270 0.51140 0.44318 -0.26200
O 	O 	0.45010 0.20713 0.92919 -0.39000
O 	O 	0.64820 0.61009 0.81071 -0.46200
O 	O 	0.68750 0.44310 0.96368 -0.38200
O 	O 	0.88020 0.68740 0.73879 -0.45200
O 	O 	0.62550 0.52308 0.09035 -0.36900
O 	O 	0.32730 0.98860 0.94318 -0.26600
O 	O 	0.95010 0.70713 0.57081 -0.38300
O 	O 	0.14820 0.11009 0.68929 -0.45600
O 	O 	0.18750 0.94310 0.53632 -0.38000
O 	O 	0.38020 0.18740 0.76121 -0.45500
O 	O 	0.12550 0.02308 0.40965 -0.35600
O 	O 	0.82730 0.48860 0.55682 -0.26200
O 	O 	0.54990 0.79287 0.07081 -0.39000
O 	O 	0.35180 0.38991 0.18929 -0.46200
O 	O 	0.31250 0.55690 0.03632 -0.38200
O 	O 	0.11980 0.31260 0.26121 -0.45200
O 	O 	0.37450 0.47692 0.90965 -0.36900
O 	O 	0.67270 0.01140 0.05682 -0.26600
