data_crystal

_cell_length_a 7.20300
_cell_length_b 13.43000
_cell_length_c 17.54000
_cell_angle_alpha 90.00000
_cell_angle_beta  100.76000
_cell_angle_gamma 90.00000

_symmetry_space_group_name_	'P 1'
_symmetry_space_group_name_H-M	'P 1'

loop_
_symmetry_equiv_pos_as_xyz
  x,y,z

loop_
_atom_site_label
_atom_site_type_symbol
_atom_site_fract_x
_atom_site_fract_y
_atom_site_fract_z
_atom_site_charge
In	In	0.46828 0.39817 0.94818 2.01100
O 	O 	0.57710 0.33850 0.06310 -0.57600
O 	O 	0.68070 0.48140 0.12430 -0.55000
O 	O 	0.98690 0.37860 0.07370 -0.47600
O 	O 	0.25660 0.38970 0.16220 -0.23100
O 	O 	0.23280 0.19870 0.41560 -0.51300
O 	O 	0.97750 0.09820 0.40140 -0.50300
O 	O 	0.66600 0.22390 0.42410 -0.43000
O 	O 	0.53410 0.12800 0.32790 -0.46300
O 	O 	0.69060 0.51280 0.97100 -0.70500
C 	C 	0.78130 0.33080 0.18480 -0.15400
C 	C 	0.97730 0.32520 0.19980 0.16600
C 	C 	0.07070 0.27810 0.26740 -0.25600
H 	H 	0.20480 0.27560 0.27870 0.13400
C 	C 	0.96720 0.23520 0.31800 0.14000
C 	C 	0.76930 0.24040 0.30250 -0.12000
C 	C 	0.67770 0.28850 0.23640 0.10100
H 	H 	0.54370 0.29280 0.22600 0.02900
C 	C 	0.67320 0.38880 0.11760 0.45800
C 	C 	0.08600 0.36850 0.14200 0.19400
C 	C 	0.06480 0.17290 0.38420 0.25900
C 	C 	0.65190 0.19580 0.35460 0.32300
In	In	0.53172 0.89817 0.55182 2.01400
O 	O 	0.42290 0.83850 0.43690 -0.48100
O 	O 	0.31930 0.98140 0.37570 -0.45400
O 	O 	0.01310 0.87860 0.42630 -0.54600
O 	O 	0.74340 0.88970 0.33780 -0.26600
O 	O 	0.76720 0.69870 0.08440 -0.58400
O 	O 	0.02250 0.59820 0.09860 -0.63400
O 	O 	0.33400 0.72390 0.07590 -0.43200
O 	O 	0.46590 0.62800 0.17210 -0.38900
O 	O 	0.30940 0.01280 0.52900 -0.85700
C 	C 	0.21870 0.83080 0.31520 0.06400
C 	C 	0.02270 0.82520 0.30020 -0.22000
C 	C 	0.92930 0.77810 0.23260 0.26500
H 	H 	0.79520 0.77560 0.22130 -0.01600
C 	C 	0.03280 0.73520 0.18200 -0.27000
C 	C 	0.23070 0.74040 0.19750 0.09500
C 	C 	0.32230 0.78850 0.26360 -0.09300
H 	H 	0.45630 0.79280 0.27400 0.11200
C 	C 	0.32680 0.88880 0.38240 0.37100
C 	C 	0.91400 0.86850 0.35800 0.48200
C 	C 	0.93520 0.67290 0.11580 0.58000
C 	C 	0.34810 0.69580 0.14540 0.25000
In	In	0.53172 0.60183 0.05182 1.97900
O 	O 	0.42290 0.66150 0.93690 -0.43200
O 	O 	0.31930 0.51860 0.87570 -0.51000
O 	O 	0.01310 0.62140 0.92630 -0.52500
O 	O 	0.74340 0.61030 0.83780 -0.27800
O 	O 	0.76720 0.80130 0.58440 -0.54500
O 	O 	0.02250 0.90180 0.59860 -0.54800
O 	O 	0.33400 0.77610 0.57590 -0.39600
O 	O 	0.46590 0.87200 0.67210 -0.33200
O 	O 	0.30940 0.48720 0.02900 -0.84000
C 	C 	0.21870 0.66920 0.81520 0.06700
C 	C 	0.02270 0.67480 0.80020 -0.21600
C 	C 	0.92930 0.72190 0.73260 0.26200
H 	H 	0.79520 0.72440 0.72130 -0.01100
C 	C 	0.03280 0.76480 0.68200 -0.25300
C 	C 	0.23070 0.75960 0.69750 0.10600
C 	C 	0.32230 0.71150 0.76360 -0.09300
H 	H 	0.45630 0.70720 0.77400 0.11700
C 	C 	0.32680 0.61120 0.88240 0.37200
C 	C 	0.91400 0.63150 0.85800 0.48000
C 	C 	0.93520 0.82710 0.61580 0.56400
C 	C 	0.34810 0.80420 0.64540 0.23700
In	In	0.46828 0.10183 0.44818 1.97500
O 	O 	0.57710 0.16150 0.56310 -0.52900
O 	O 	0.68070 0.01860 0.62430 -0.60400
O 	O 	0.98690 0.12140 0.57370 -0.45100
O 	O 	0.25660 0.11030 0.66220 -0.24500
O 	O 	0.23280 0.30130 0.91560 -0.48000
O 	O 	0.97750 0.40180 0.90140 -0.43900
O 	O 	0.66600 0.27610 0.92410 -0.39300
O 	O 	0.53410 0.37200 0.82790 -0.40600
O 	O 	0.69060 0.98720 0.47100 -0.69200
C 	C 	0.78130 0.16920 0.68480 -0.14800
C 	C 	0.97730 0.17480 0.69980 0.16700
C 	C 	0.07070 0.22190 0.76740 -0.24400
H 	H 	0.20480 0.22440 0.77870 0.13400
C 	C 	0.96720 0.26480 0.81800 0.13600
C 	C 	0.76930 0.25960 0.80250 -0.10000
C 	C 	0.67770 0.21150 0.73640 0.09500
H 	H 	0.54370 0.20720 0.72600 0.03600
C 	C 	0.67320 0.11120 0.61760 0.45900
C 	C 	0.08600 0.13150 0.64200 0.18500
C 	C 	0.06480 0.32710 0.88420 0.27400
C 	C 	0.65190 0.30420 0.85460 0.30700
In	In	-0.00000 0.50000 -0.00000 1.96700
In	In	0.00000 -0.00000 0.50000 1.96200
