data_crystal

_cell_length_a 14.05780
_cell_length_b 23.00130
_cell_length_c 31.23800
_cell_angle_alpha 90.88100
_cell_angle_beta  90.00000
_cell_angle_gamma 90.00000

_symmetry_space_group_name_	'P 1'
_symmetry_space_group_name_H-M	'P 1'

loop_
_symmetry_equiv_pos_as_xyz
  x,y,z

loop_
_atom_site_label
_atom_site_type_symbol
_atom_site_fract_x
_atom_site_fract_y
_atom_site_fract_z
_atom_site_charge
Zn	Zn	0.29873 0.26792 0.34257 1.22800
Zn	Zn	0.50560 0.21418 0.34962 1.21600
Zn	Zn	0.33398 0.03042 0.60843 1.17900
Zn	Zn	0.21250 0.96913 0.12686 1.17700
Zn	Zn	0.20127 0.76792 0.84257 1.22800
Zn	Zn	0.99440 0.71418 0.84962 1.21600
Zn	Zn	0.16602 0.53042 0.10843 1.17900
Zn	Zn	0.28750 0.46913 0.62686 1.17700
H 	H 	0.22010 0.16820 0.44860 -0.07800
H 	H 	0.48750 0.11290 0.46810 -0.02200
H 	H 	0.14950 0.12330 0.57840 0.42200
H 	H 	0.04790 0.14550 0.56600 0.40800
H 	H 	0.13700 0.18500 0.55860 0.41800
H 	H 	0.00160 0.15970 0.49240 0.39300
H 	H 	0.07200 0.14490 0.45490 0.40500
H 	H 	0.09180 0.19840 0.48520 0.40500
H 	H 	0.11890 0.03360 0.52950 0.43700
H 	H 	0.08680 0.04500 0.48230 0.41000
H 	H 	0.01840 0.06030 0.52050 0.40600
H 	H 	0.52830 0.05260 0.52230 -0.00900
H 	H 	0.64630 0.02760 0.55560 0.04200
H 	H 	0.76490 0.98310 0.59510 -0.03400
H 	H 	0.72630 0.93330 0.65670 0.00600
H 	H 	0.56900 0.92780 0.67880 0.05100
H 	H 	0.42940 0.91530 0.68500 -0.02000
H 	H 	0.03860 0.89940 0.71880 -0.15900
H 	H 	0.32070 0.87650 0.73080 -0.05500
H 	H 	0.97360 0.05110 0.64270 0.72700
H 	H 	0.08510 0.04990 0.64370 0.75500
H 	H 	0.02730 0.04680 0.68650 0.73800
H 	H 	0.97000 0.96800 0.59290 0.71400
H 	H 	0.02130 0.91000 0.60490 0.73800
H 	H 	0.08140 0.96470 0.59270 0.74900
H 	H 	0.88200 0.96800 0.65800 0.75500
H 	H 	0.93270 0.96280 0.70240 0.77000
H 	H 	0.93050 0.90940 0.67070 0.78200
H 	H 	0.22500 0.12830 0.25020 -0.03000
H 	H 	0.50700 0.11480 0.23160 -0.07700
H 	H 	0.57440 0.96370 0.14850 0.43100
H 	H 	0.46360 0.96160 0.15390 0.44700
H 	H 	0.52920 0.96670 0.19440 0.43600
H 	H 	0.56040 0.05190 0.10010 0.48700
H 	H 	0.50240 0.10630 0.11590 0.50500
H 	H 	0.44950 0.04810 0.10450 0.50100
H 	H 	0.66370 0.05610 0.16380 0.50400
H 	H 	0.61980 0.05550 0.20990 0.50800
H 	H 	0.60970 0.11090 0.18170 0.52700
H 	H 	0.11560 0.08920 0.20380 -0.00100
H 	H 	0.97210 0.06840 0.19990 0.05900
H 	H 	0.81610 0.06040 0.17640 0.01300
H 	H 	0.78250 0.01230 0.11230 -0.00300
H 	H 	0.90500 0.97220 0.07180 0.04000
H 	H 	0.02560 0.95670 0.03730 -0.01100
H 	H 	0.33420 0.84760 0.95640 -0.08900
H 	H 	0.06940 0.90750 0.97740 -0.02000
H 	H 	0.48660 0.83090 0.07830 0.42400
H 	H 	0.39090 0.80160 0.06400 0.42700
H 	H 	0.38920 0.85860 0.09210 0.44300
H 	H 	0.53620 0.92590 0.04790 0.40900
H 	H 	0.43820 0.95420 0.06020 0.43200
H 	H 	0.47380 0.95500 0.01260 0.41200
H 	H 	0.54340 0.83400 0.00700 0.43000
H 	H 	0.48470 0.86310 0.97040 0.44400
H 	H 	0.45070 0.80410 0.98960 0.44000
H 	H 	0.65820 0.27020 0.29720 0.00200
H 	H 	0.82270 0.27800 0.29620 0.07800
H 	H 	0.83860 0.18060 0.40160 0.02800
H 	H 	0.67410 0.17270 0.40260 -0.00900
H 	H 	0.96650 0.23950 0.28350 0.08600
H 	H 	0.13040 0.25070 0.28120 0.01900
H 	H 	0.14050 0.24700 0.40970 -0.00200
H 	H 	0.97650 0.23580 0.41200 0.03400
H 	H 	0.27990 0.66820 0.94860 -0.07900
H 	H 	0.01250 0.61290 0.96810 -0.02300
H 	H 	0.35050 0.62330 0.07840 0.41900
H 	H 	0.45210 0.64550 0.06600 0.40500
H 	H 	0.36300 0.68500 0.05860 0.41600
H 	H 	0.49840 0.65970 0.99240 0.39000
H 	H 	0.42800 0.64490 0.95490 0.40300
H 	H 	0.40820 0.69840 0.98520 0.40300
H 	H 	0.38110 0.53360 0.02950 0.43500
H 	H 	0.41320 0.54500 0.98230 0.40800
H 	H 	0.48160 0.56030 0.02050 0.40400
H 	H 	0.97170 0.55260 0.02230 -0.00800
H 	H 	0.85370 0.52760 0.05560 0.04200
H 	H 	0.73510 0.48310 0.09510 -0.03400
H 	H 	0.77370 0.43330 0.15670 0.00600
H 	H 	0.93100 0.42780 0.17880 0.05100
H 	H 	0.07060 0.41530 0.18500 -0.02000
H 	H 	0.46140 0.39940 0.21880 -0.16100
H 	H 	0.17930 0.37650 0.23080 -0.05600
H 	H 	0.52640 0.55110 0.14270 0.74000
H 	H 	0.41490 0.54990 0.14370 0.76500
H 	H 	0.47270 0.54680 0.18650 0.74800
H 	H 	0.53000 0.46800 0.09290 0.71900
H 	H 	0.47870 0.41000 0.10490 0.74400
H 	H 	0.41860 0.46470 0.09270 0.75500
H 	H 	0.61800 0.46800 0.15800 0.76200
H 	H 	0.56730 0.46280 0.20240 0.77700
H 	H 	0.56950 0.40940 0.17070 0.78900
H 	H 	0.27500 0.62830 0.75020 -0.03000
H 	H 	0.99300 0.61480 0.73160 -0.07900
H 	H 	0.92560 0.46370 0.64850 0.43200
H 	H 	0.03640 0.46160 0.65390 0.44900
H 	H 	0.97080 0.46670 0.69440 0.43700
H 	H 	0.93960 0.55190 0.60010 0.48700
H 	H 	0.99760 0.60630 0.61590 0.50600
H 	H 	0.05050 0.54810 0.60450 0.50200
H 	H 	0.83630 0.55610 0.66380 0.50400
H 	H 	0.88020 0.55550 0.70990 0.50800
H 	H 	0.89030 0.61090 0.68170 0.52700
H 	H 	0.38440 0.58920 0.70380 -0.00100
H 	H 	0.52790 0.56840 0.69990 0.05600
H 	H 	0.68390 0.56040 0.67640 0.01600
H 	H 	0.71750 0.51230 0.61230 -0.00600
H 	H 	0.59500 0.47220 0.57180 0.04300
H 	H 	0.47440 0.45670 0.53730 -0.01000
H 	H 	0.16580 0.34760 0.45640 -0.08800
H 	H 	0.43060 0.40750 0.47740 -0.01900
H 	H 	0.01340 0.33090 0.57830 0.42400
H 	H 	0.10910 0.30160 0.56400 0.42700
H 	H 	0.11080 0.35860 0.59210 0.44300
H 	H 	0.96380 0.42590 0.54790 0.40800
H 	H 	0.06180 0.45420 0.56020 0.43200
H 	H 	0.02620 0.45500 0.51260 0.41100
H 	H 	0.95660 0.33400 0.50700 0.43000
H 	H 	0.01530 0.36310 0.47040 0.44300
H 	H 	0.04930 0.30410 0.48960 0.44000
H 	H 	0.84180 0.77020 0.79720 0.00200
H 	H 	0.67730 0.77800 0.79620 0.07800
H 	H 	0.66140 0.68060 0.90160 0.02800
H 	H 	0.82590 0.67270 0.90260 -0.00900
H 	H 	0.53350 0.73950 0.78350 0.08700
H 	H 	0.36960 0.75070 0.78120 0.01900
H 	H 	0.35950 0.74700 0.90970 -0.00300
H 	H 	0.52350 0.73580 0.91200 0.03500
C 	C 	0.38940 0.17680 0.41320 0.40100
C 	C 	0.35870 0.14550 0.45238 -0.25200
C 	C 	0.26370 0.14730 0.46460 0.26200
C 	C 	0.23390 0.11780 0.50070 -0.48900
C 	C 	0.29910 0.08640 0.52460 0.36400
C 	C 	0.39410 0.08460 0.51230 -0.25600
C 	C 	0.42400 0.11420 0.47620 0.16300
C 	C 	0.12580 0.11980 0.51420 1.03500
C 	C 	0.11400 0.14570 0.55830 -1.48000
C 	C 	0.06710 0.15950 0.48370 -1.38200
C 	C 	0.08360 0.05910 0.51140 -1.46800
C 	C 	0.46880 0.05450 0.53530 0.09200
C 	C 	0.53660 0.00430 0.59360 0.02200
C 	C 	0.63080 0.00760 0.58030 -0.09800
C 	C 	0.70190 0.98100 0.60400 -0.02700
C 	C 	0.67870 0.95110 0.64090 -0.06100
C 	C 	0.58450 0.94780 0.65410 -0.08100
C 	C 	0.51350 0.97440 0.63050 0.00800
C 	C 	0.38480 0.93790 0.67090 0.11600
C 	C 	0.28470 0.93120 0.68340 -0.35000
C 	C 	0.20800 0.95690 0.66294 0.53400
C 	C 	0.11570 0.94490 0.67620 -0.83200
C 	C 	0.10030 0.90740 0.71000 0.45900
C 	C 	0.17710 0.88170 0.73041 -0.34100
C 	C 	0.26930 0.89370 0.71712 0.23900
C 	C 	0.02650 0.97100 0.65310 1.94300
C 	C 	0.02830 0.03540 0.65680 -2.55000
C 	C 	0.02470 0.95170 0.60670 -2.48800
C 	C 	0.93460 0.95100 0.67290 -2.54900
C 	C 	0.15520 0.84230 0.76720 0.40500
C 	C 	0.38510 0.17000 0.28310 0.41300
C 	C 	0.36860 0.12790 0.24649 -0.26600
C 	C 	0.27620 0.11260 0.23512 0.16400
C 	C 	0.26050 0.07400 0.20120 -0.27000
C 	C 	0.33710 0.05060 0.17872 0.39400
C 	C 	0.42940 0.06590 0.19010 -0.51900
C 	C 	0.44520 0.10460 0.22400 0.28200
C 	C 	0.51730 0.04520 0.16270 1.12900
C 	C 	0.52160 0.97790 0.16510 -1.50400
C 	C 	0.50640 0.06470 0.11650 -1.64800
C 	C 	0.61150 0.06920 0.18130 -1.63900
C 	C 	0.16010 0.06590 0.18980 0.08200
C 	C 	0.03210 0.02510 0.14990 0.02200
C 	C 	0.95870 0.04910 0.17422 -0.08400
C 	C 	0.86520 0.04430 0.16010 -0.03300
C 	C 	0.84510 0.01550 0.12180 -0.04300
C 	C 	0.91850 0.99150 0.09750 -0.07200
C 	C 	0.01200 0.99630 0.11150 0.00600
C 	C 	0.08390 0.95180 0.05090 0.10100
C 	C 	0.15930 0.92300 0.02680 -0.27800
C 	C 	0.25240 0.91530 0.04063 0.40200
C 	C 	0.31790 0.88710 0.01430 -0.51700
C 	C 	0.29030 0.86650 0.97408 0.26400
C 	C 	0.19720 0.87410 0.96026 -0.25600
C 	C 	0.13170 0.90240 0.98660 0.16500
C 	C 	0.42180 0.87390 0.02950 1.06000
C 	C 	0.42220 0.83800 0.06970 -1.50500
C 	C 	0.47230 0.93290 0.03840 -1.43500
C 	C 	0.48060 0.84070 0.99600 -1.49300
C 	C 	0.16720 0.84870 0.91760 0.38300
C 	C 	0.69440 0.25220 0.31809 0.05200
C 	C 	0.79290 0.25690 0.31750 -0.11400
C 	C 	0.84700 0.23010 0.34880 0.03500
C 	C 	0.80250 0.19850 0.38066 -0.11100
C 	C 	0.70390 0.19380 0.38125 0.03900
C 	C 	0.95530 0.23650 0.34801 0.03100
C 	C 	0.00140 0.24100 0.30884 -0.12800
C 	C 	0.09960 0.24770 0.30746 0.02900
C 	C 	0.10560 0.24550 0.38444 0.02300
C 	C 	0.00740 0.23880 0.38582 -0.14700
C 	C 	0.11060 0.67680 0.91320 0.40100
C 	C 	0.14130 0.64550 0.95238 -0.25200
C 	C 	0.23630 0.64730 0.96460 0.26200
C 	C 	0.26610 0.61780 0.00070 -0.48900
C 	C 	0.20090 0.58640 0.02460 0.36400
C 	C 	0.10590 0.58460 0.01230 -0.25700
C 	C 	0.07600 0.61420 0.97620 0.16400
C 	C 	0.37420 0.61980 0.01420 1.03100
C 	C 	0.38600 0.64570 0.05830 -1.47500
C 	C 	0.43290 0.65950 0.98370 -1.37800
C 	C 	0.41640 0.55910 0.01140 -1.46400
C 	C 	0.03120 0.55450 0.03530 0.09000
C 	C 	0.96340 0.50430 0.09360 0.02200
C 	C 	0.86920 0.50760 0.08030 -0.09600
C 	C 	0.79810 0.48100 0.10400 -0.02900
C 	C 	0.82130 0.45110 0.14090 -0.06000
C 	C 	0.91550 0.44780 0.15410 -0.08200
C 	C 	0.98650 0.47440 0.13050 0.00900
C 	C 	0.11520 0.43790 0.17090 0.11700
C 	C 	0.21530 0.43120 0.18340 -0.35200
C 	C 	0.29200 0.45690 0.16294 0.53700
C 	C 	0.38430 0.44490 0.17620 -0.84000
C 	C 	0.39970 0.40740 0.21000 0.46400
C 	C 	0.32290 0.38170 0.23041 -0.34400
C 	C 	0.23070 0.39370 0.21712 0.24100
C 	C 	0.47350 0.47100 0.15310 1.96500
C 	C 	0.47170 0.53540 0.15680 -2.58600
C 	C 	0.47530 0.45170 0.10670 -2.50700
C 	C 	0.56540 0.45100 0.17290 -2.57400
C 	C 	0.34480 0.34230 0.26720 0.40500
C 	C 	0.11490 0.67000 0.78310 0.41300
C 	C 	0.13140 0.62790 0.74649 -0.26600
C 	C 	0.22380 0.61260 0.73512 0.16500
C 	C 	0.23950 0.57400 0.70120 -0.27000
C 	C 	0.16290 0.55060 0.67872 0.39400
C 	C 	0.07060 0.56590 0.69010 -0.52000
C 	C 	0.05480 0.60460 0.72400 0.28300
C 	C 	0.98270 0.54520 0.66270 1.13000
C 	C 	0.97840 0.47790 0.66510 -1.50800
C 	C 	0.99360 0.56470 0.61650 -1.65100
C 	C 	0.88850 0.56920 0.68130 -1.64000
C 	C 	0.33990 0.56590 0.68980 0.08200
C 	C 	0.46790 0.52510 0.64990 0.01300
C 	C 	0.54130 0.54910 0.67422 -0.07500
C 	C 	0.63480 0.54430 0.66010 -0.04200
C 	C 	0.65490 0.51550 0.62180 -0.03300
C 	C 	0.58150 0.49150 0.59750 -0.08500
C 	C 	0.48800 0.49630 0.61150 0.01700
C 	C 	0.41610 0.45180 0.55090 0.10100
C 	C 	0.34070 0.42300 0.52680 -0.27500
C 	C 	0.24760 0.41530 0.54063 0.40000
C 	C 	0.18210 0.38710 0.51430 -0.51400
C 	C 	0.20970 0.36650 0.47408 0.26100
C 	C 	0.30280 0.37410 0.46026 -0.25400
C 	C 	0.36830 0.40240 0.48660 0.16200
C 	C 	0.07820 0.37390 0.52950 1.05900
C 	C 	0.07780 0.33800 0.56970 -1.50500
C 	C 	0.02770 0.43290 0.53840 -1.43200
C 	C 	0.01940 0.34070 0.49600 -1.49200
C 	C 	0.33280 0.34870 0.41760 0.38300
C 	C 	0.80560 0.75220 0.81809 0.05200
C 	C 	0.70710 0.75690 0.81750 -0.11300
C 	C 	0.65300 0.73010 0.84880 0.03400
C 	C 	0.69750 0.69850 0.88066 -0.11000
C 	C 	0.79610 0.69380 0.88125 0.03900
C 	C 	0.54470 0.73650 0.84801 0.03100
C 	C 	0.49860 0.74100 0.80884 -0.12800
C 	C 	0.40040 0.74770 0.80746 0.02900
C 	C 	0.39440 0.74550 0.88444 0.02400
C 	C 	0.49260 0.73880 0.88582 -0.14900
N 	N 	0.64980 0.22060 0.34997 -0.25100
N 	N 	0.46010 0.02990 0.57210 -0.27100
N 	N 	0.15170 0.24990 0.34526 -0.22500
N 	N 	0.41620 0.97250 0.64200 -0.28400
N 	N 	0.12870 0.02830 0.16150 -0.27300
N 	N 	0.09180 0.97120 0.08990 -0.28000
N 	N 	0.85020 0.72060 0.84997 -0.25100
N 	N 	0.03990 0.52990 0.07210 -0.27100
N 	N 	0.34830 0.74990 0.84526 -0.22500
N 	N 	0.08380 0.47250 0.14200 -0.28500
N 	N 	0.37130 0.52830 0.66150 -0.27300
N 	N 	0.40820 0.47120 0.58990 -0.28100
O 	O 	0.47650 0.17510 0.40180 -0.49500
O 	O 	0.32450 0.20460 0.39280 -0.45500
O 	O 	0.26730 0.05540 0.55760 -0.53900
O 	O 	0.22000 0.99420 0.63160 -0.60600
O 	O 	0.06830 0.83100 0.77320 -0.29800
O 	O 	0.22220 0.82270 0.79020 -0.43400
O 	O 	0.47300 0.17400 0.29590 -0.48500
O 	O 	0.31750 0.19880 0.29810 -0.46900
O 	O 	0.32490 0.01180 0.14740 -0.54100
O 	O 	0.28110 0.93320 0.07840 -0.55000
O 	O 	0.22680 0.82790 0.89280 -0.43900
O 	O 	0.07690 0.84850 0.91030 -0.27100
O 	O 	0.44590 0.28960 0.34620 -0.45800
O 	O 	0.02350 0.67510 0.90180 -0.49500
O 	O 	0.17550 0.70460 0.89280 -0.45500
O 	O 	0.23270 0.55540 0.05760 -0.53900
O 	O 	0.28000 0.49420 0.13160 -0.60700
O 	O 	0.43170 0.33100 0.27320 -0.29800
O 	O 	0.27780 0.32270 0.29020 -0.43400
O 	O 	0.02700 0.67400 0.79590 -0.48500
O 	O 	0.18250 0.69880 0.79810 -0.46900
O 	O 	0.17510 0.51180 0.64740 -0.54200
O 	O 	0.21890 0.43320 0.57840 -0.54900
O 	O 	0.27320 0.32790 0.39280 -0.43900
O 	O 	0.42310 0.34850 0.41030 -0.27000
O 	O 	0.05410 0.78960 0.84620 -0.45800
Zn	Zn	0.79873 0.23208 0.15743 1.22700
Zn	Zn	0.00560 0.28582 0.15038 1.21500
Zn	Zn	0.83398 0.46958 0.89157 1.17800
Zn	Zn	0.71250 0.53087 0.37314 1.17600
Zn	Zn	0.70127 0.73208 0.65743 1.22700
Zn	Zn	0.49440 0.78582 0.65038 1.21500
Zn	Zn	0.66602 0.96958 0.39157 1.17800
Zn	Zn	0.78750 0.03087 0.87314 1.17600
H 	H 	0.72010 0.33180 0.05140 -0.07900
H 	H 	0.98750 0.38710 0.03190 -0.02300
H 	H 	0.64950 0.37670 0.92160 0.41900
H 	H 	0.54790 0.35450 0.93400 0.40500
H 	H 	0.63700 0.31500 0.94140 0.41600
H 	H 	0.50160 0.34030 0.00760 0.39000
H 	H 	0.57200 0.35510 0.04510 0.40300
H 	H 	0.59180 0.30160 0.01480 0.40300
H 	H 	0.61890 0.46640 0.97050 0.43500
H 	H 	0.58680 0.45500 0.01770 0.40800
H 	H 	0.51840 0.43970 0.97950 0.40400
H 	H 	0.02830 0.44740 0.97770 -0.00800
H 	H 	0.14630 0.47240 0.94440 0.04200
H 	H 	0.26490 0.51690 0.90490 -0.03400
H 	H 	0.22630 0.56670 0.84330 0.00600
H 	H 	0.06900 0.57220 0.82120 0.05100
H 	H 	0.92940 0.58470 0.81500 -0.02000
H 	H 	0.53860 0.60060 0.78120 -0.16100
H 	H 	0.82070 0.62350 0.76920 -0.05600
H 	H 	0.47360 0.44890 0.85730 0.74000
H 	H 	0.58510 0.45010 0.85630 0.76500
H 	H 	0.52730 0.45320 0.81350 0.74800
H 	H 	0.47000 0.53200 0.90710 0.71900
H 	H 	0.52130 0.59000 0.89510 0.74400
H 	H 	0.58140 0.53530 0.90730 0.75500
H 	H 	0.38200 0.53200 0.84200 0.76200
H 	H 	0.43270 0.53720 0.79760 0.77700
H 	H 	0.43050 0.59060 0.82930 0.78900
H 	H 	0.72500 0.37170 0.24980 -0.03000
H 	H 	0.00700 0.38520 0.26840 -0.07900
H 	H 	0.07440 0.53630 0.35150 0.43200
H 	H 	0.96360 0.53840 0.34610 0.44900
H 	H 	0.02920 0.53330 0.30560 0.43700
H 	H 	0.06040 0.44810 0.39990 0.48700
H 	H 	0.00240 0.39370 0.38410 0.50600
H 	H 	0.94950 0.45190 0.39550 0.50200
H 	H 	0.16370 0.44390 0.33620 0.50400
H 	H 	0.11980 0.44450 0.29010 0.50800
H 	H 	0.10970 0.38910 0.31830 0.52700
H 	H 	0.61560 0.41080 0.29620 -0.00100
H 	H 	0.47210 0.43160 0.30010 0.05600
H 	H 	0.31610 0.43960 0.32360 0.01600
H 	H 	0.28250 0.48770 0.38770 -0.00600
H 	H 	0.40500 0.52780 0.42820 0.04300
H 	H 	0.52560 0.54330 0.46270 -0.01000
H 	H 	0.83420 0.65240 0.54360 -0.08800
H 	H 	0.56940 0.59250 0.52260 -0.01900
H 	H 	0.98660 0.66910 0.42170 0.42400
H 	H 	0.89090 0.69840 0.43600 0.42700
H 	H 	0.88920 0.64140 0.40790 0.44300
H 	H 	0.03620 0.57410 0.45210 0.40800
H 	H 	0.93820 0.54580 0.43980 0.43200
H 	H 	0.97380 0.54500 0.48740 0.41100
H 	H 	0.04340 0.66600 0.49300 0.43000
H 	H 	0.98470 0.63690 0.52960 0.44300
H 	H 	0.95070 0.69590 0.51040 0.44000
H 	H 	0.15820 0.22980 0.20280 0.00200
H 	H 	0.32270 0.22200 0.20380 0.07800
H 	H 	0.33860 0.31940 0.09840 0.02800
H 	H 	0.17410 0.32730 0.09740 -0.00900
H 	H 	0.46650 0.26050 0.21650 0.08700
H 	H 	0.63040 0.24930 0.21880 0.01900
H 	H 	0.64050 0.25300 0.09030 -0.00300
H 	H 	0.47650 0.26420 0.08800 0.03500
H 	H 	0.77990 0.83180 0.55140 -0.07900
H 	H 	0.51250 0.88710 0.53190 -0.02300
H 	H 	0.85050 0.87670 0.42160 0.42100
H 	H 	0.95210 0.85450 0.43400 0.40700
H 	H 	0.86300 0.81500 0.44140 0.41700
H 	H 	0.99840 0.84030 0.50760 0.39200
H 	H 	0.92800 0.85510 0.54510 0.40500
H 	H 	0.90820 0.80160 0.51480 0.40500
H 	H 	0.88110 0.96640 0.47050 0.43700
H 	H 	0.91320 0.95500 0.51770 0.41000
H 	H 	0.98160 0.93970 0.47950 0.40600
H 	H 	0.47170 0.94740 0.47770 -0.00900
H 	H 	0.35370 0.97240 0.44440 0.04200
H 	H 	0.23510 0.01690 0.40490 -0.03400
H 	H 	0.27370 0.06670 0.34330 0.00600
H 	H 	0.43100 0.07220 0.32120 0.05100
H 	H 	0.57060 0.08470 0.31500 -0.02000
H 	H 	0.96140 0.10060 0.28120 -0.15900
H 	H 	0.67930 0.12350 0.26920 -0.05500
H 	H 	0.02640 0.94890 0.35730 0.72700
H 	H 	0.91490 0.95010 0.35630 0.75500
H 	H 	0.97270 0.95320 0.31350 0.73800
H 	H 	0.03000 0.03200 0.40710 0.71400
H 	H 	0.97870 0.09000 0.39510 0.73800
H 	H 	0.91860 0.03530 0.40730 0.74900
H 	H 	0.11800 0.03200 0.34200 0.75500
H 	H 	0.06730 0.03720 0.29760 0.77000
H 	H 	0.06950 0.09060 0.32930 0.78200
H 	H 	0.77500 0.87170 0.74980 -0.03000
H 	H 	0.49300 0.88520 0.76840 -0.07700
H 	H 	0.42560 0.03630 0.85150 0.43100
H 	H 	0.53640 0.03840 0.84610 0.44700
H 	H 	0.47080 0.03330 0.80560 0.43600
H 	H 	0.43960 0.94810 0.89990 0.48700
H 	H 	0.49760 0.89370 0.88410 0.50500
H 	H 	0.55050 0.95190 0.89550 0.50100
H 	H 	0.33630 0.94390 0.83620 0.50400
H 	H 	0.38020 0.94450 0.79010 0.50800
H 	H 	0.39030 0.88910 0.81830 0.52700
H 	H 	0.88440 0.91080 0.79620 -0.00100
H 	H 	0.02790 0.93160 0.80010 0.05900
H 	H 	0.18390 0.93960 0.82360 0.01300
H 	H 	0.21750 0.98770 0.88770 -0.00300
H 	H 	0.09500 0.02780 0.92820 0.04000
H 	H 	0.97440 0.04330 0.96270 -0.01100
H 	H 	0.66580 0.15240 0.04360 -0.08900
H 	H 	0.93060 0.09250 0.02260 -0.02000
H 	H 	0.51340 0.16910 0.92170 0.42400
H 	H 	0.60910 0.19840 0.93600 0.42700
H 	H 	0.61080 0.14140 0.90790 0.44300
H 	H 	0.46380 0.07410 0.95210 0.40900
H 	H 	0.56180 0.04580 0.93980 0.43200
H 	H 	0.52620 0.04500 0.98740 0.41200
H 	H 	0.45660 0.16600 0.99300 0.43000
H 	H 	0.51530 0.13690 0.02960 0.44400
H 	H 	0.54930 0.19590 0.01040 0.44000
H 	H 	0.34180 0.72980 0.70280 0.00200
H 	H 	0.17730 0.72200 0.70380 0.07800
H 	H 	0.16140 0.81940 0.59840 0.02800
H 	H 	0.32590 0.82730 0.59740 -0.00900
H 	H 	0.03350 0.76050 0.71650 0.08600
H 	H 	0.86960 0.74930 0.71880 0.01900
H 	H 	0.85950 0.75300 0.59030 -0.00200
H 	H 	0.02350 0.76420 0.58800 0.03400
C 	C 	0.88940 0.32320 0.08680 0.40100
C 	C 	0.85870 0.35450 0.04762 -0.25200
C 	C 	0.76370 0.35270 0.03540 0.26200
C 	C 	0.73390 0.38220 0.99930 -0.48900
C 	C 	0.79910 0.41360 0.97540 0.36400
C 	C 	0.89410 0.41540 0.98770 -0.25700
C 	C 	0.92400 0.38580 0.02380 0.16400
C 	C 	0.62580 0.38020 0.98580 1.03100
C 	C 	0.61400 0.35430 0.94170 -1.47500
C 	C 	0.56710 0.34050 0.01630 -1.37800
C 	C 	0.58360 0.44090 0.98860 -1.46400
C 	C 	0.96880 0.44550 0.96470 0.09000
C 	C 	0.03660 0.49570 0.90640 0.02200
C 	C 	0.13080 0.49240 0.91970 -0.09600
C 	C 	0.20190 0.51900 0.89600 -0.02900
C 	C 	0.17870 0.54890 0.85910 -0.06000
C 	C 	0.08450 0.55220 0.84590 -0.08200
C 	C 	0.01350 0.52560 0.86950 0.00900
C 	C 	0.88480 0.56210 0.82910 0.11700
C 	C 	0.78470 0.56880 0.81660 -0.35200
C 	C 	0.70800 0.54310 0.83706 0.53700
C 	C 	0.61570 0.55510 0.82380 -0.84000
C 	C 	0.60030 0.59260 0.79000 0.46400
C 	C 	0.67710 0.61830 0.76959 -0.34400
C 	C 	0.76930 0.60630 0.78288 0.24100
C 	C 	0.52650 0.52900 0.84690 1.96500
C 	C 	0.52830 0.46460 0.84320 -2.58600
C 	C 	0.52470 0.54830 0.89330 -2.50700
C 	C 	0.43460 0.54900 0.82710 -2.57400
C 	C 	0.65520 0.65770 0.73280 0.40500
C 	C 	0.88510 0.33000 0.21690 0.41300
C 	C 	0.86860 0.37210 0.25351 -0.26600
C 	C 	0.77620 0.38740 0.26488 0.16500
C 	C 	0.76050 0.42600 0.29880 -0.27000
C 	C 	0.83710 0.44940 0.32128 0.39400
C 	C 	0.92940 0.43410 0.30990 -0.52000
C 	C 	0.94520 0.39540 0.27600 0.28300
C 	C 	0.01730 0.45480 0.33730 1.13000
C 	C 	0.02160 0.52210 0.33490 -1.50800
C 	C 	0.00640 0.43530 0.38350 -1.65100
C 	C 	0.11150 0.43080 0.31870 -1.64000
C 	C 	0.66010 0.43410 0.31020 0.08200
C 	C 	0.53210 0.47490 0.35010 0.01300
C 	C 	0.45870 0.45090 0.32578 -0.07500
C 	C 	0.36520 0.45570 0.33990 -0.04200
C 	C 	0.34510 0.48450 0.37820 -0.03300
C 	C 	0.41850 0.50850 0.40250 -0.08500
C 	C 	0.51200 0.50370 0.38850 0.01700
C 	C 	0.58390 0.54820 0.44910 0.10100
C 	C 	0.65930 0.57700 0.47320 -0.27500
C 	C 	0.75240 0.58470 0.45937 0.40000
C 	C 	0.81790 0.61290 0.48570 -0.51400
C 	C 	0.79030 0.63350 0.52592 0.26100
C 	C 	0.69720 0.62590 0.53974 -0.25400
C 	C 	0.63170 0.59760 0.51340 0.16200
C 	C 	0.92180 0.62610 0.47050 1.05900
C 	C 	0.92220 0.66200 0.43030 -1.50500
C 	C 	0.97230 0.56710 0.46160 -1.43200
C 	C 	0.98060 0.65930 0.50400 -1.49200
C 	C 	0.66720 0.65130 0.58240 0.38300
C 	C 	0.19440 0.24780 0.18191 0.05200
C 	C 	0.29290 0.24310 0.18250 -0.11300
C 	C 	0.34700 0.26990 0.15120 0.03400
C 	C 	0.30250 0.30150 0.11934 -0.11000
C 	C 	0.20390 0.30620 0.11875 0.03900
C 	C 	0.45530 0.26350 0.15199 0.03100
C 	C 	0.50140 0.25900 0.19116 -0.12800
C 	C 	0.59960 0.25230 0.19254 0.02900
C 	C 	0.60560 0.25450 0.11556 0.02400
C 	C 	0.50740 0.26120 0.11418 -0.14900
C 	C 	0.61060 0.82320 0.58680 0.40100
C 	C 	0.64130 0.85450 0.54762 -0.25200
C 	C 	0.73630 0.85270 0.53540 0.26200
C 	C 	0.76610 0.88220 0.49930 -0.48900
C 	C 	0.70090 0.91360 0.47540 0.36400
C 	C 	0.60590 0.91540 0.48770 -0.25600
C 	C 	0.57600 0.88580 0.52380 0.16300
C 	C 	0.87420 0.88020 0.48580 1.03500
C 	C 	0.88600 0.85430 0.44170 -1.48000
C 	C 	0.93290 0.84050 0.51630 -1.38200
C 	C 	0.91640 0.94090 0.48860 -1.46800
C 	C 	0.53120 0.94550 0.46470 0.09200
C 	C 	0.46340 0.99570 0.40640 0.02200
C 	C 	0.36920 0.99240 0.41970 -0.09800
C 	C 	0.29810 0.01900 0.39600 -0.02700
C 	C 	0.32130 0.04890 0.35910 -0.06100
C 	C 	0.41550 0.05220 0.34590 -0.08100
C 	C 	0.48650 0.02560 0.36950 0.00800
C 	C 	0.61520 0.06210 0.32910 0.11600
C 	C 	0.71530 0.06880 0.31660 -0.35000
C 	C 	0.79200 0.04310 0.33706 0.53400
C 	C 	0.88430 0.05510 0.32380 -0.83200
C 	C 	0.89970 0.09260 0.29000 0.45900
C 	C 	0.82290 0.11830 0.26959 -0.34100
C 	C 	0.73070 0.10630 0.28288 0.23900
C 	C 	0.97350 0.02900 0.34690 1.94300
C 	C 	0.97170 0.96460 0.34320 -2.55000
C 	C 	0.97530 0.04830 0.39330 -2.48800
C 	C 	0.06540 0.04900 0.32710 -2.54900
C 	C 	0.84480 0.15770 0.23280 0.40500
C 	C 	0.61490 0.83000 0.71690 0.41300
C 	C 	0.63140 0.87210 0.75351 -0.26600
C 	C 	0.72380 0.88740 0.76488 0.16400
C 	C 	0.73950 0.92600 0.79880 -0.27000
C 	C 	0.66290 0.94940 0.82128 0.39400
C 	C 	0.57060 0.93410 0.80990 -0.51900
C 	C 	0.55480 0.89540 0.77600 0.28200
C 	C 	0.48270 0.95480 0.83730 1.12900
C 	C 	0.47840 0.02210 0.83490 -1.50400
C 	C 	0.49360 0.93530 0.88350 -1.64800
C 	C 	0.38850 0.93080 0.81870 -1.63900
C 	C 	0.83990 0.93410 0.81020 0.08200
C 	C 	0.96790 0.97490 0.85010 0.02200
C 	C 	0.04130 0.95090 0.82578 -0.08400
C 	C 	0.13480 0.95570 0.83990 -0.03300
C 	C 	0.15490 0.98450 0.87820 -0.04300
C 	C 	0.08150 0.00850 0.90250 -0.07200
C 	C 	0.98800 0.00370 0.88850 0.00600
C 	C 	0.91610 0.04820 0.94910 0.10100
C 	C 	0.84070 0.07700 0.97320 -0.27800
C 	C 	0.74760 0.08470 0.95937 0.40200
C 	C 	0.68210 0.11290 0.98570 -0.51700
C 	C 	0.70970 0.13350 0.02592 0.26400
C 	C 	0.80280 0.12590 0.03974 -0.25600
C 	C 	0.86830 0.09760 0.01340 0.16500
C 	C 	0.57820 0.12610 0.97050 1.06000
C 	C 	0.57780 0.16200 0.93030 -1.50500
C 	C 	0.52770 0.06710 0.96160 -1.43500
C 	C 	0.51940 0.15930 0.00400 -1.49300
C 	C 	0.83280 0.15130 0.08240 0.38300
C 	C 	0.30560 0.74780 0.68191 0.05200
C 	C 	0.20710 0.74310 0.68250 -0.11400
C 	C 	0.15300 0.76990 0.65120 0.03500
C 	C 	0.19750 0.80150 0.61934 -0.11100
C 	C 	0.29610 0.80620 0.61875 0.03900
C 	C 	0.04470 0.76350 0.65199 0.03100
C 	C 	0.99860 0.75900 0.69116 -0.12800
C 	C 	0.90040 0.75230 0.69254 0.02900
C 	C 	0.89440 0.75450 0.61556 0.02300
C 	C 	0.99260 0.76120 0.61418 -0.14700
N 	N 	0.14980 0.27940 0.15003 -0.25100
N 	N 	0.96010 0.47010 0.92790 -0.27100
N 	N 	0.65170 0.25010 0.15474 -0.22500
N 	N 	0.91620 0.52750 0.85800 -0.28500
N 	N 	0.62870 0.47170 0.33850 -0.27300
N 	N 	0.59180 0.52880 0.41010 -0.28100
N 	N 	0.35020 0.77940 0.65003 -0.25100
N 	N 	0.53990 0.97010 0.42790 -0.27100
N 	N 	0.84830 0.75010 0.65474 -0.22500
N 	N 	0.58380 0.02750 0.35800 -0.28400
N 	N 	0.87130 0.97170 0.83850 -0.27300
N 	N 	0.90820 0.02880 0.91010 -0.28000
O 	O 	0.97650 0.32490 0.09820 -0.49500
O 	O 	0.82450 0.29540 0.10720 -0.45500
O 	O 	0.76730 0.44460 0.94240 -0.53900
O 	O 	0.72000 0.50580 0.86840 -0.60700
O 	O 	0.56830 0.66900 0.72680 -0.29800
O 	O 	0.72220 0.67730 0.70980 -0.43400
O 	O 	0.97300 0.32600 0.20410 -0.48500
O 	O 	0.81750 0.30120 0.20190 -0.46900
O 	O 	0.82490 0.48820 0.35260 -0.54200
O 	O 	0.78110 0.56680 0.42160 -0.54900
O 	O 	0.72680 0.67210 0.60720 -0.43900
O 	O 	0.57690 0.65150 0.58970 -0.27000
O 	O 	0.94590 0.21040 0.15380 -0.45800
O 	O 	0.52350 0.82490 0.59820 -0.49500
O 	O 	0.67550 0.79540 0.60720 -0.45500
O 	O 	0.73270 0.94460 0.44240 -0.53900
O 	O 	0.78000 0.00580 0.36840 -0.60600
O 	O 	0.93170 0.16900 0.22680 -0.29800
O 	O 	0.77780 0.17730 0.20980 -0.43400
O 	O 	0.52700 0.82600 0.70410 -0.48500
O 	O 	0.68250 0.80120 0.70190 -0.46900
O 	O 	0.67510 0.98820 0.85260 -0.54100
O 	O 	0.71890 0.06680 0.92160 -0.55000
O 	O 	0.77320 0.17210 0.10720 -0.43900
O 	O 	0.92310 0.15150 0.08970 -0.27100
O 	O 	0.55410 0.71040 0.65380 -0.45800
