data_crystal

_cell_length_a 22.28600
_cell_length_b 19.84500
_cell_length_c 34.29000
_cell_angle_alpha 90.00000
_cell_angle_beta  90.96800
_cell_angle_gamma 90.00000

_symmetry_space_group_name_	'P 1'
_symmetry_space_group_name_H-M	'P 1'

loop_
_symmetry_equiv_pos_as_xyz
  x,y,z

loop_
_atom_site_label
_atom_site_type_symbol
_atom_site_fract_x
_atom_site_fract_y
_atom_site_fract_z
_atom_site_charge
Zn	Zn	0.54603 0.65287 0.11973 1.18000
Zn	Zn	0.26925 0.32043 0.46641 1.22000
Zn	Zn	0.57607 0.20300 0.22368 1.21300
Zn	Zn	0.43731 0.22678 0.22173 1.20500
Zn	Zn	0.49134 0.08559 0.25755 1.16700
Zn	Zn	0.48841 0.11767 0.16764 1.20400
Zn	Zn	0.18526 0.22597 0.98160 1.21600
C 	C 	0.52380 0.33480 0.20880 0.43400
C 	C 	0.54248 0.39862 0.18843 -0.26100
C 	C 	0.50077 0.43670 0.16740 0.15800
H 	H 	0.46090 0.42280 0.16570 -0.02200
C 	C 	0.51857 0.49546 0.14883 -0.25400
C 	C 	0.57809 0.51619 0.15130 0.36300
C 	C 	0.61981 0.47813 0.17234 -0.44600
C 	C 	0.60200 0.41935 0.19090 0.24500
H 	H 	0.62990 0.39390 0.20500 -0.07500
C 	C 	0.68740 0.49750 0.17420 0.86700
C 	C 	0.71460 0.49680 0.13200 -1.21200
H 	H 	0.70950 0.45290 0.12070 0.35100
H 	H 	0.75660 0.50750 0.13360 0.34600
H 	H 	0.69420 0.52960 0.11600 0.37000
C 	C 	0.69500 0.56820 0.19310 -1.28000
H 	H 	0.67820 0.56790 0.21870 0.37800
H 	H 	0.67450 0.60120 0.17730 0.38900
H 	H 	0.73690 0.57930 0.19500 0.38300
C 	C 	0.72670 0.44820 0.19810 -1.28400
H 	H 	0.71280 0.44640 0.22440 0.38600
H 	H 	0.76760 0.46330 0.19810 0.37400
H 	H 	0.72420 0.40410 0.18660 0.37300
C 	C 	0.47210 0.52610 0.12490 0.09300
H 	H 	0.43610 0.50310 0.12160 -0.01000
C 	C 	0.43087 0.61364 0.08423 0.01100
C 	C 	0.39120 0.57621 0.06121 -0.07900
H 	H 	0.39340 0.52940 0.06130 0.04200
C 	C 	0.34831 0.60870 0.03812 -0.04800
H 	H 	0.32180 0.58370 0.02270 0.01100
C 	C 	0.34507 0.67870 0.03805 -0.03100
H 	H 	0.31640 0.70040 0.02260 0.00600
C 	C 	0.38470 0.71611 0.06106 -0.09200
H 	H 	0.38250 0.76290 0.06100 0.05400
C 	C 	0.42762 0.68359 0.08415 0.02200
C 	C 	0.46680 0.77720 0.12054 0.10000
H 	H 	0.43350 0.80170 0.11210 -0.00300
C 	C 	0.50972 0.81107 0.14680 -0.26800
C 	C 	0.49694 0.87849 0.15385 0.17400
H 	H 	0.46550 0.89950 0.14040 -0.02000
C 	C 	0.53113 0.91454 0.18095 -0.28000
C 	C 	0.57810 0.88316 0.20101 0.28900
H 	H 	0.60100 0.90730 0.21910 -0.09900
C 	C 	0.59088 0.81574 0.19397 -0.52500
C 	C 	0.55669 0.77969 0.16686 0.39700
C 	C 	0.64660 0.78260 0.21580 1.14100
C 	C 	0.62510 0.72250 0.23940 -1.61500
H 	H 	0.65870 0.70210 0.25280 0.46800
H 	H 	0.60660 0.69010 0.22230 0.50300
H 	H 	0.59640 0.73740 0.25820 0.47600
C 	C 	0.69310 0.76060 0.18630 -1.62400
H 	H 	0.72670 0.74040 0.19980 0.48900
H 	H 	0.70650 0.79910 0.17190 0.49800
H 	H 	0.67550 0.72830 0.16860 0.49300
C 	C 	0.67860 0.83220 0.24430 -1.55300
H 	H 	0.71190 0.80980 0.25680 0.45500
H 	H 	0.65080 0.84690 0.26360 0.45800
H 	H 	0.69280 0.87040 0.23000 0.46700
C 	C 	0.51820 0.98720 0.18850 0.40900
C 	C 	0.37830 0.19380 0.14709 0.39400
C 	C 	0.33405 0.21230 0.11617 -0.18000
C 	C 	0.32373 0.16949 0.08467 0.09000
H 	H 	0.34360 0.12840 0.08340 0.00800
C 	C 	0.28370 0.18815 0.05509 -0.18100
C 	C 	0.25390 0.24960 0.05702 0.24900
C 	C 	0.26420 0.29238 0.08852 -0.20800
C 	C 	0.30430 0.27370 0.11810 0.10200
H 	H 	0.31120 0.30230 0.13920 -0.00900
C 	C 	0.23540 0.36720 0.08910 0.31500
C 	C 	0.16810 0.36190 0.08620 -0.76900
H 	H 	0.15350 0.33740 0.10830 0.23300
H 	H 	0.15700 0.33870 0.06260 0.24000
H 	H 	0.15100 0.40630 0.08590 0.21200
C 	C 	0.25660 0.40330 0.12790 -0.75900
H 	H 	0.23880 0.38140 0.14980 0.23900
H 	H 	0.24430 0.44970 0.12720 0.22400
H 	H 	0.29950 0.40090 0.13030 0.24500
C 	C 	0.27400 0.13850 0.02550 0.07400
H 	H 	0.29740 0.09980 0.02740 0.00600
C 	C 	0.22980 0.08810 0.96925 0.02500
C 	C 	0.24080 0.02070 0.97757 -0.08400
H 	H 	0.25630 0.00830 0.00190 0.06100
C 	C 	0.22880 0.97170 0.94953 -0.04000
H 	H 	0.23620 0.92660 0.95510 0.02900
C 	C 	0.20570 0.99020 0.91317 -0.04400
H 	H 	0.19770 0.95740 0.89440 0.01400
C 	C 	0.19470 0.05770 0.90485 -0.08500
H 	H 	0.17930 0.07000 0.88050 0.04100
C 	C 	0.20670 0.10663 0.93289 0.01700
C 	C 	0.18500 0.20360 0.89400 0.11600
H 	H 	0.19160 0.17690 0.87230 -0.03100
C 	C 	0.16720 0.27294 0.88738 -0.28500
C 	C 	0.15086 0.28602 0.84882 0.17900
H 	H 	0.15680 0.25350 0.82980 -0.04400
C 	C 	0.12557 0.34776 0.83873 -0.29900
C 	C 	0.11662 0.39643 0.86720 0.29800
H 	H 	0.09970 0.43770 0.86040 -0.10800
C 	C 	0.13295 0.38335 0.90576 -0.53600
C 	C 	0.15820 0.32160 0.91585 0.40700
C 	C 	0.12600 0.43920 0.93733 1.08200
C 	C 	0.08610 0.41690 0.97020 -1.54400
H 	H 	0.10240 0.37690 0.98210 0.47800
H 	H 	0.04650 0.40770 0.96010 0.45200
H 	H 	0.08400 0.45210 0.98940 0.43600
C 	C 	0.18700 0.45960 0.95400 -1.54000
H 	H 	0.20650 0.42080 0.96520 0.47900
H 	H 	0.18190 0.49320 0.97380 0.44400
H 	H 	0.21120 0.47750 0.93350 0.44800
C 	C 	0.09740 0.50440 0.91950 -1.40100
H 	H 	0.09370 0.53790 0.93950 0.39000
H 	H 	0.05830 0.49400 0.90880 0.40700
H 	H 	0.12240 0.52130 0.89920 0.40300
C 	C 	0.10270 0.35810 0.79710 0.43900
C 	C 	0.40990 0.19440 0.29896 0.41300
C 	C 	0.37801 0.20521 0.33714 -0.22500
C 	C 	0.33879 0.25881 0.34231 0.12800
H 	H 	0.32940 0.28720 0.32150 -0.00800
C 	C 	0.31361 0.26995 0.37856 -0.21600
C 	C 	0.32764 0.22749 0.40963 0.32500
C 	C 	0.36686 0.17388 0.40446 -0.35200
C 	C 	0.39205 0.16274 0.36822 0.18800
H 	H 	0.41830 0.12690 0.36480 -0.05500
C 	C 	0.37863 0.12017 0.43772 0.67900
C 	C 	0.41537 0.05905 0.42429 -1.07400
H 	H 	0.45390 0.07390 0.41570 0.31100
H 	H 	0.39450 0.03690 0.40320 0.31600
H 	H 	0.42060 0.02820 0.44560 0.29200
C 	C 	0.31585 0.09023 0.45135 -1.04000
H 	H 	0.29520 0.07030 0.42940 0.31900
H 	H 	0.29180 0.12580 0.46180 0.33200
H 	H 	0.32280 0.05660 0.47100 0.28800
C 	C 	0.41608 0.15430 0.47225 -1.03200
H 	H 	0.45320 0.17130 0.46240 0.30600
H 	H 	0.42430 0.12150 0.49220 0.28000
H 	H 	0.39330 0.19070 0.48300 0.31700
C 	C 	0.26915 0.32439 0.37824 0.09000
H 	H 	0.25930 0.34480 0.35460 -0.00500
C 	C 	0.19757 0.39643 0.40806 0.03400
C 	C 	0.18258 0.43360 0.37495 -0.09000
H 	H 	0.20230 0.42560 0.35170 0.05200
C 	C 	0.13820 0.48270 0.37659 -0.01200
H 	H 	0.12820 0.50750 0.35440 0.01800
C 	C 	0.10881 0.49459 0.41135 -0.04000
H 	H 	0.07910 0.52740 0.41240 0.04900
C 	C 	0.12379 0.45740 0.44446 -0.07200
H 	H 	0.10410 0.46540 0.46770 0.05500
C 	C 	0.16817 0.40835 0.44282 0.02600
C 	C 	0.15610 0.36290 0.50628 0.10900
H 	H 	0.11810 0.38250 0.50560 -0.00600
C 	C 	0.17315 0.32833 0.54193 -0.25200
C 	C 	0.13312 0.33691 0.57218 0.16700
H 	H 	0.09720 0.35980 0.56780 -0.01700
C 	C 	0.14677 0.31130 0.60901 -0.26300
C 	C 	0.20044 0.27720 0.61560 0.26300
H 	H 	0.20960 0.26010 0.64020 -0.08700
C 	C 	0.24048 0.26861 0.58535 -0.47200
C 	C 	0.22683 0.29417 0.54852 0.38500
C 	C 	0.30170 0.23200 0.59420 0.97000
C 	C 	0.30390 0.16790 0.56800 -1.34200
H 	H 	0.34110 0.14460 0.57260 0.37800
H 	H 	0.30090 0.18080 0.54100 0.41700
H 	H 	0.27100 0.13870 0.57420 0.39200
C 	C 	0.35420 0.27800 0.58340 -1.43700
H 	H 	0.35370 0.31770 0.59940 0.43200
H 	H 	0.35040 0.29080 0.55650 0.45000
H 	H 	0.39130 0.25440 0.58760 0.41800
C 	C 	0.30860 0.21050 0.63720 -1.38500
H 	H 	0.30750 0.24970 0.65360 0.40500
H 	H 	0.34620 0.18770 0.64090 0.39200
H 	H 	0.27640 0.18070 0.64380 0.40200
C 	C 	0.10410 0.32230 0.64253 0.44400
C 	C 	0.03690 0.25310 0.05260 -0.56000
H 	H 	0.06470 0.28660 0.06200 0.14900
H 	H 	0.01380 0.23650 0.07400 0.14800
H 	H 	0.01050 0.27280 0.03340 0.15800
C 	C 	0.00170 0.16630 0.02210 -0.31800
H 	H 	0.99970 0.12160 0.01150 0.00400
H 	H 	0.98490 0.19770 0.00360 0.10000
H 	H 	0.97920 0.16810 0.04570 0.08500
C 	C 	0.46700 0.39890 0.46970 -0.76100
H 	H 	0.47190 0.36140 0.45230 0.24300
H 	H 	0.49570 0.39570 0.49070 0.26400
H 	H 	0.47310 0.44020 0.45570 0.23600
C 	C 	0.41800 0.46710 0.51690 -0.71900
H 	H 	0.38460 0.48560 0.53070 0.23500
H 	H 	0.43440 0.50090 0.50010 0.22400
H 	H 	0.44820 0.45250 0.53530 0.21400
O 	O 	0.56450 0.30180 0.22610 -0.51800
O 	O 	0.47040 0.31720 0.20706 -0.50500
O 	O 	0.59543 0.57360 0.13514 -0.51600
O 	O 	0.57120 0.71570 0.16079 -0.54000
O 	O 	0.49133 0.02044 0.16182 -0.51000
O 	O 	0.53451 0.01250 0.22065 -0.52600
O 	O 	0.37743 0.22450 0.17923 -0.51200
O 	O 	0.41741 0.14830 0.13888 -0.50700
O 	O 	0.21580 0.27010 0.02888 -0.46000
O 	O 	0.17280 0.31020 0.95267 -0.51700
O 	O 	0.11821 0.31430 0.77174 -0.53500
O 	O 	0.06976 0.40680 0.79021 -0.52300
O 	O 	0.39632 0.23390 0.27099 -0.51200
O 	O 	0.44840 0.14910 0.29796 -0.53100
O 	O 	0.30910 0.24030 0.44534 -0.47600
O 	O 	0.26502 0.28540 0.52005 -0.50500
O 	O 	0.05391 0.34740 0.63457 -0.51300
O 	O 	0.12241 0.30610 0.67618 -0.53700
O 	O 	0.10170 0.19860 0.99420 -0.44100
O 	O 	0.33340 0.38980 0.47080 -0.46400
O 	O 	0.49924 0.15955 0.21795 -0.96300
N 	N 	0.47170 0.71610 0.10814 -0.26600
N 	N 	0.47800 0.58500 0.10750 -0.26700
N 	N 	0.24260 0.34570 0.40969 -0.24700
N 	N 	0.18780 0.36950 0.47540 -0.25600
N 	N 	0.19230 0.17620 0.92781 -0.25900
N 	N 	0.23690 0.14100 0.99661 -0.25300
S 	S 	0.07600 0.18740 0.03210 0.26500
S 	S 	0.39340 0.39770 0.48860 0.39500
Zn	Zn	0.04603 0.84713 0.61973 1.18100
Zn	Zn	0.76925 0.17957 0.96641 1.22100
Zn	Zn	0.07607 0.29700 0.72368 1.21400
Zn	Zn	0.93731 0.27322 0.72173 1.20600
Zn	Zn	0.99134 0.41441 0.75755 1.16800
Zn	Zn	0.98841 0.38233 0.66764 1.20500
Zn	Zn	0.68526 0.27403 0.48160 1.21700
C 	C 	0.02380 0.16520 0.70880 0.43700
C 	C 	0.04248 0.10138 0.68843 -0.26000
C 	C 	0.00077 0.06330 0.66740 0.16200
H 	H 	0.96090 0.07720 0.66570 -0.02300
C 	C 	0.01857 0.00454 0.64883 -0.25000
C 	C 	0.07809 0.98381 0.65130 0.35900
C 	C 	0.11981 0.02187 0.67234 -0.44100
C 	C 	0.10200 0.08065 0.69090 0.24400
H 	H 	0.12990 0.10610 0.70500 -0.07300
C 	C 	0.18740 0.00250 0.67420 0.86400
C 	C 	0.21460 0.00320 0.63200 -1.19900
H 	H 	0.20950 0.04710 0.62070 0.34800
H 	H 	0.25660 0.99250 0.63360 0.34200
H 	H 	0.19420 0.97040 0.61600 0.36500
C 	C 	0.19500 0.93180 0.69310 -1.27700
H 	H 	0.17820 0.93210 0.71870 0.37700
H 	H 	0.17450 0.89880 0.67730 0.38800
H 	H 	0.23690 0.92070 0.69500 0.38200
C 	C 	0.22670 0.05180 0.69810 -1.28000
H 	H 	0.21280 0.05360 0.72440 0.38500
H 	H 	0.26760 0.03670 0.69810 0.37300
H 	H 	0.22420 0.09590 0.68660 0.37200
C 	C 	0.97210 0.97390 0.62490 0.09300
H 	H 	0.93610 0.99690 0.62160 -0.00900
C 	C 	0.93087 0.88636 0.58423 0.01100
C 	C 	0.89120 0.92379 0.56121 -0.07900
H 	H 	0.89340 0.97060 0.56130 0.04200
C 	C 	0.84831 0.89130 0.53812 -0.04800
H 	H 	0.82180 0.91630 0.52270 0.01200
C 	C 	0.84507 0.82130 0.53805 -0.03100
H 	H 	0.81640 0.79960 0.52260 0.00600
C 	C 	0.88470 0.78389 0.56106 -0.09200
H 	H 	0.88250 0.73710 0.56100 0.05400
C 	C 	0.92762 0.81641 0.58415 0.02200
C 	C 	0.96680 0.72280 0.62054 0.10200
H 	H 	0.93350 0.69830 0.61210 -0.00400
C 	C 	0.00972 0.68893 0.64680 -0.27000
C 	C 	0.99694 0.62151 0.65385 0.17700
H 	H 	0.96550 0.60050 0.64040 -0.02100
C 	C 	0.03113 0.58546 0.68095 -0.28200
C 	C 	0.07810 0.61684 0.70101 0.29000
H 	H 	0.10100 0.59270 0.71910 -0.09900
C 	C 	0.09088 0.68426 0.69397 -0.52600
C 	C 	0.05669 0.72031 0.66686 0.39800
C 	C 	0.14660 0.71740 0.71580 1.14100
C 	C 	0.12510 0.77750 0.73940 -1.61500
H 	H 	0.15870 0.79790 0.75280 0.46800
H 	H 	0.10660 0.80990 0.72230 0.50300
H 	H 	0.09640 0.76260 0.75820 0.47600
C 	C 	0.19310 0.73940 0.68630 -1.62400
H 	H 	0.22670 0.75960 0.69980 0.48900
H 	H 	0.20650 0.70090 0.67190 0.49800
H 	H 	0.17550 0.77170 0.66860 0.49300
C 	C 	0.17860 0.66780 0.74430 -1.55300
H 	H 	0.21190 0.69020 0.75680 0.45500
H 	H 	0.15080 0.65310 0.76360 0.45800
H 	H 	0.19280 0.62960 0.73000 0.46700
C 	C 	0.01820 0.51280 0.68850 0.41000
C 	C 	0.87830 0.30620 0.64709 0.39400
C 	C 	0.83405 0.28770 0.61617 -0.18000
C 	C 	0.82373 0.33051 0.58467 0.09000
H 	H 	0.84360 0.37160 0.58340 0.00800
C 	C 	0.78370 0.31185 0.55509 -0.18100
C 	C 	0.75390 0.25040 0.55702 0.24900
C 	C 	0.76420 0.20762 0.58852 -0.20800
C 	C 	0.80430 0.22630 0.61810 0.10200
H 	H 	0.81120 0.19770 0.63920 -0.00900
C 	C 	0.73540 0.13280 0.58910 0.31400
C 	C 	0.66810 0.13810 0.58620 -0.76800
H 	H 	0.65350 0.16260 0.60830 0.23200
H 	H 	0.65700 0.16130 0.56260 0.24000
H 	H 	0.65100 0.09370 0.58590 0.21100
C 	C 	0.75660 0.09670 0.62790 -0.75800
H 	H 	0.73880 0.11860 0.64980 0.23900
H 	H 	0.74430 0.05030 0.62720 0.22300
H 	H 	0.79950 0.09910 0.63030 0.24500
C 	C 	0.77400 0.36150 0.52550 0.07300
H 	H 	0.79740 0.40020 0.52740 0.00600
C 	C 	0.72980 0.41190 0.46925 0.02400
C 	C 	0.74080 0.47930 0.47757 -0.08400
H 	H 	0.75630 0.49170 0.50190 0.06000
C 	C 	0.72880 0.52830 0.44953 -0.04000
H 	H 	0.73620 0.57340 0.45510 0.02900
C 	C 	0.70570 0.50980 0.41317 -0.04200
H 	H 	0.69770 0.54260 0.39440 0.01300
C 	C 	0.69470 0.44230 0.40485 -0.08700
H 	H 	0.67930 0.43000 0.38050 0.04200
C 	C 	0.70670 0.39337 0.43289 0.01700
C 	C 	0.68500 0.29640 0.39400 0.11500
H 	H 	0.69160 0.32310 0.37230 -0.03100
C 	C 	0.66720 0.22706 0.38738 -0.28500
C 	C 	0.65086 0.21398 0.34882 0.17900
H 	H 	0.65680 0.24650 0.32980 -0.04400
C 	C 	0.62557 0.15224 0.33873 -0.29900
C 	C 	0.61662 0.10357 0.36720 0.29700
H 	H 	0.59970 0.06230 0.36040 -0.10800
C 	C 	0.63295 0.11665 0.40576 -0.53500
C 	C 	0.65820 0.17840 0.41585 0.40600
C 	C 	0.62600 0.06080 0.43733 1.07900
C 	C 	0.58610 0.08310 0.47020 -1.54000
H 	H 	0.60240 0.12310 0.48210 0.47700
H 	H 	0.54650 0.09230 0.46010 0.45100
H 	H 	0.58400 0.04790 0.48940 0.43500
C 	C 	0.68700 0.04040 0.45400 -1.53700
H 	H 	0.70650 0.07920 0.46520 0.47800
H 	H 	0.68190 0.00680 0.47380 0.44300
H 	H 	0.71120 0.02250 0.43350 0.44700
C 	C 	0.59740 0.99560 0.41950 -1.39700
H 	H 	0.59370 0.96210 0.43950 0.38900
H 	H 	0.55830 0.00600 0.40880 0.40500
H 	H 	0.62240 0.97870 0.39920 0.40200
C 	C 	0.60270 0.14190 0.29710 0.43800
C 	C 	0.90990 0.30560 0.79896 0.41300
C 	C 	0.87801 0.29479 0.83714 -0.22500
C 	C 	0.83879 0.24119 0.84231 0.12800
H 	H 	0.82940 0.21280 0.82150 -0.00900
C 	C 	0.81361 0.23005 0.87856 -0.21600
C 	C 	0.82764 0.27251 0.90963 0.32500
C 	C 	0.86686 0.32612 0.90446 -0.35100
C 	C 	0.89205 0.33726 0.86822 0.18800
H 	H 	0.91830 0.37310 0.86480 -0.05500
C 	C 	0.87863 0.37983 0.93772 0.67900
C 	C 	0.91537 0.44095 0.92429 -1.07300
H 	H 	0.95390 0.42610 0.91570 0.31100
H 	H 	0.89450 0.46310 0.90320 0.31500
H 	H 	0.92060 0.47180 0.94560 0.29100
C 	C 	0.81585 0.40977 0.95135 -1.03900
H 	H 	0.79520 0.42970 0.92940 0.31900
H 	H 	0.79180 0.37420 0.96180 0.33200
H 	H 	0.82280 0.44340 0.97100 0.28700
C 	C 	0.91608 0.34570 0.97225 -1.03200
H 	H 	0.95320 0.32870 0.96240 0.30600
H 	H 	0.92430 0.37850 0.99220 0.27900
H 	H 	0.89330 0.30930 0.98300 0.31600
C 	C 	0.76915 0.17561 0.87824 0.09000
H 	H 	0.75930 0.15520 0.85460 -0.00500
C 	C 	0.69757 0.10357 0.90806 0.03400
C 	C 	0.68258 0.06640 0.87495 -0.09000
H 	H 	0.70230 0.07440 0.85170 0.05200
C 	C 	0.63820 0.01730 0.87659 -0.01400
H 	H 	0.62820 0.99250 0.85440 0.01900
C 	C 	0.60881 0.00541 0.91135 -0.04100
H 	H 	0.57910 0.97260 0.91240 0.04900
C 	C 	0.62379 0.04260 0.94446 -0.07200
H 	H 	0.60410 0.03460 0.96770 0.05500
C 	C 	0.66817 0.09165 0.94282 0.02600
C 	C 	0.65610 0.13710 0.00628 0.10900
H 	H 	0.61810 0.11750 0.00560 -0.00600
C 	C 	0.67315 0.17167 0.04193 -0.25200
C 	C 	0.63312 0.16309 0.07218 0.16700
H 	H 	0.59720 0.14020 0.06780 -0.01700
C 	C 	0.64677 0.18870 0.10901 -0.26300
C 	C 	0.70044 0.22280 0.11560 0.26300
H 	H 	0.70960 0.23990 0.14020 -0.08700
C 	C 	0.74048 0.23139 0.08535 -0.47200
C 	C 	0.72683 0.20583 0.04852 0.38500
C 	C 	0.80170 0.26800 0.09420 0.96900
C 	C 	0.80390 0.33210 0.06800 -1.34100
H 	H 	0.84110 0.35540 0.07260 0.37700
H 	H 	0.80090 0.31920 0.04100 0.41700
H 	H 	0.77100 0.36130 0.07420 0.39100
C 	C 	0.85420 0.22200 0.08340 -1.43700
H 	H 	0.85370 0.18230 0.09940 0.43200
H 	H 	0.85040 0.20920 0.05650 0.45000
H 	H 	0.89130 0.24560 0.08760 0.41700
C 	C 	0.80860 0.28950 0.13720 -1.38500
H 	H 	0.80750 0.25030 0.15360 0.40500
H 	H 	0.84620 0.31230 0.14090 0.39100
H 	H 	0.77640 0.31930 0.14380 0.40100
C 	C 	0.60410 0.17770 0.14253 0.44400
C 	C 	0.53690 0.24690 0.55260 -0.56000
H 	H 	0.56470 0.21340 0.56200 0.14900
H 	H 	0.51380 0.26350 0.57400 0.14700
H 	H 	0.51050 0.22720 0.53340 0.15700
C 	C 	0.50170 0.33370 0.52210 -0.35000
H 	H 	0.49970 0.37840 0.51150 0.02000
H 	H 	0.48490 0.30230 0.50360 0.11000
H 	H 	0.47920 0.33190 0.54570 0.09500
C 	C 	0.96700 0.10110 0.96970 -0.77800
H 	H 	0.97190 0.13860 0.95230 0.24800
H 	H 	0.99570 0.10430 0.99070 0.27600
H 	H 	0.97310 0.05980 0.95570 0.24000
C 	C 	0.91800 0.03290 0.01690 -0.72700
H 	H 	0.88460 0.01440 0.03070 0.23700
H 	H 	0.93440 0.99910 0.00010 0.22700
H 	H 	0.94820 0.04750 0.03530 0.21700
O 	O 	0.06450 0.19820 0.72610 -0.51800
O 	O 	0.97040 0.18280 0.70706 -0.50700
O 	O 	0.09543 0.92640 0.63514 -0.51600
O 	O 	0.07120 0.78430 0.66079 -0.54000
O 	O 	0.99133 0.47956 0.66182 -0.51000
O 	O 	0.03451 0.48750 0.72065 -0.52600
O 	O 	0.87743 0.27550 0.67923 -0.51200
O 	O 	0.91741 0.35170 0.63888 -0.50700
O 	O 	0.71580 0.22990 0.52888 -0.46000
O 	O 	0.67280 0.18980 0.45267 -0.51700
O 	O 	0.61821 0.18570 0.27174 -0.53500
O 	O 	0.56976 0.09320 0.29021 -0.52400
O 	O 	0.89632 0.26610 0.77099 -0.51200
O 	O 	0.94840 0.35090 0.79796 -0.53100
O 	O 	0.80910 0.25970 0.94534 -0.47600
O 	O 	0.76502 0.21460 0.02005 -0.50500
O 	O 	0.55391 0.15260 0.13457 -0.51400
O 	O 	0.62241 0.19390 0.17618 -0.53700
O 	O 	0.60170 0.30140 0.49420 -0.44200
O 	O 	0.83340 0.11020 0.97080 -0.46600
O 	O 	0.99924 0.34045 0.71795 -0.96300
N 	N 	0.97170 0.78390 0.60814 -0.26600
N 	N 	0.97800 0.91500 0.60750 -0.26700
N 	N 	0.74260 0.15430 0.90969 -0.24700
N 	N 	0.68780 0.13050 0.97540 -0.25600
N 	N 	0.69230 0.32380 0.42781 -0.25900
N 	N 	0.73690 0.35900 0.49661 -0.25300
S 	S 	0.57600 0.31260 0.53210 0.27100
S 	S 	0.89340 0.10230 0.98860 0.40100
Zn	Zn	0.95397 0.15287 0.38027 1.18100
Zn	Zn	0.23075 0.82043 0.03359 1.22100
Zn	Zn	0.92393 0.70300 0.27632 1.21400
Zn	Zn	0.06269 0.72678 0.27827 1.20600
Zn	Zn	0.00866 0.58559 0.24245 1.16800
Zn	Zn	0.01159 0.61767 0.33236 1.20500
Zn	Zn	0.31474 0.72597 0.51840 1.21700
C 	C 	0.97620 0.83480 0.29120 0.43700
C 	C 	0.95752 0.89862 0.31157 -0.26000
C 	C 	0.99923 0.93670 0.33260 0.16200
H 	H 	0.03910 0.92280 0.33430 -0.02300
C 	C 	0.98143 0.99546 0.35117 -0.25000
C 	C 	0.92191 0.01619 0.34870 0.35900
C 	C 	0.88019 0.97813 0.32766 -0.44100
C 	C 	0.89800 0.91935 0.30910 0.24400
H 	H 	0.87010 0.89390 0.29500 -0.07300
C 	C 	0.81260 0.99750 0.32580 0.86400
C 	C 	0.78540 0.99680 0.36800 -1.19900
H 	H 	0.79050 0.95290 0.37930 0.34800
H 	H 	0.74340 0.00750 0.36640 0.34200
H 	H 	0.80580 0.02960 0.38400 0.36500
C 	C 	0.80500 0.06820 0.30690 -1.27700
H 	H 	0.82180 0.06790 0.28130 0.37700
H 	H 	0.82550 0.10120 0.32270 0.38800
H 	H 	0.76310 0.07930 0.30500 0.38200
C 	C 	0.77330 0.94820 0.30190 -1.28000
H 	H 	0.78720 0.94640 0.27560 0.38500
H 	H 	0.73240 0.96330 0.30190 0.37300
H 	H 	0.77580 0.90410 0.31340 0.37200
C 	C 	0.02790 0.02610 0.37510 0.09300
H 	H 	0.06390 0.00310 0.37840 -0.00900
C 	C 	0.06913 0.11364 0.41577 0.01100
C 	C 	0.10880 0.07621 0.43879 -0.07900
H 	H 	0.10660 0.02940 0.43870 0.04200
C 	C 	0.15169 0.10870 0.46188 -0.04800
H 	H 	0.17820 0.08370 0.47730 0.01200
C 	C 	0.15493 0.17870 0.46195 -0.03100
H 	H 	0.18360 0.20040 0.47740 0.00600
C 	C 	0.11530 0.21611 0.43894 -0.09200
H 	H 	0.11750 0.26290 0.43900 0.05400
C 	C 	0.07238 0.18359 0.41585 0.02200
C 	C 	0.03320 0.27720 0.37946 0.10200
H 	H 	0.06650 0.30170 0.38790 -0.00400
C 	C 	0.99028 0.31107 0.35320 -0.27000
C 	C 	0.00306 0.37849 0.34615 0.17700
H 	H 	0.03450 0.39950 0.35960 -0.02100
C 	C 	0.96887 0.41454 0.31905 -0.28200
C 	C 	0.92190 0.38316 0.29899 0.29000
H 	H 	0.89900 0.40730 0.28090 -0.09900
C 	C 	0.90912 0.31574 0.30603 -0.52600
C 	C 	0.94331 0.27969 0.33314 0.39800
C 	C 	0.85340 0.28260 0.28420 1.14100
C 	C 	0.87490 0.22250 0.26060 -1.61500
H 	H 	0.84130 0.20210 0.24720 0.46800
H 	H 	0.89340 0.19010 0.27770 0.50300
H 	H 	0.90360 0.23740 0.24180 0.47600
C 	C 	0.80690 0.26060 0.31370 -1.62400
H 	H 	0.77330 0.24040 0.30020 0.48900
H 	H 	0.79350 0.29910 0.32810 0.49800
H 	H 	0.82450 0.22830 0.33140 0.49300
C 	C 	0.82140 0.33220 0.25570 -1.55300
H 	H 	0.78810 0.30980 0.24320 0.45500
H 	H 	0.84920 0.34690 0.23640 0.45800
H 	H 	0.80720 0.37040 0.27000 0.46700
C 	C 	0.98180 0.48720 0.31150 0.41000
C 	C 	0.12170 0.69380 0.35291 0.39400
C 	C 	0.16595 0.71230 0.38383 -0.18000
C 	C 	0.17627 0.66949 0.41533 0.09000
H 	H 	0.15640 0.62840 0.41660 0.00800
C 	C 	0.21630 0.68815 0.44491 -0.18100
C 	C 	0.24610 0.74960 0.44298 0.24900
C 	C 	0.23580 0.79238 0.41148 -0.20800
C 	C 	0.19570 0.77370 0.38190 0.10200
H 	H 	0.18880 0.80230 0.36080 -0.00900
C 	C 	0.26460 0.86720 0.41090 0.31400
C 	C 	0.33190 0.86190 0.41380 -0.76800
H 	H 	0.34650 0.83740 0.39170 0.23200
H 	H 	0.34300 0.83870 0.43740 0.24000
H 	H 	0.34900 0.90630 0.41410 0.21100
C 	C 	0.24340 0.90330 0.37210 -0.75800
H 	H 	0.26120 0.88140 0.35020 0.23900
H 	H 	0.25570 0.94970 0.37280 0.22300
H 	H 	0.20050 0.90090 0.36970 0.24500
C 	C 	0.22600 0.63850 0.47450 0.07300
H 	H 	0.20260 0.59980 0.47260 0.00600
C 	C 	0.27020 0.58810 0.53075 0.02400
C 	C 	0.25920 0.52070 0.52243 -0.08400
H 	H 	0.24370 0.50830 0.49810 0.06000
C 	C 	0.27120 0.47170 0.55047 -0.04000
H 	H 	0.26380 0.42660 0.54490 0.02900
C 	C 	0.29430 0.49020 0.58683 -0.04200
H 	H 	0.30230 0.45740 0.60560 0.01300
C 	C 	0.30530 0.55770 0.59515 -0.08700
H 	H 	0.32070 0.57000 0.61950 0.04200
C 	C 	0.29330 0.60663 0.56711 0.01700
C 	C 	0.31500 0.70360 0.60600 0.11500
H 	H 	0.30840 0.67690 0.62770 -0.03100
C 	C 	0.33280 0.77294 0.61262 -0.28500
C 	C 	0.34914 0.78602 0.65118 0.17900
H 	H 	0.34320 0.75350 0.67020 -0.04400
C 	C 	0.37443 0.84776 0.66127 -0.29900
C 	C 	0.38338 0.89643 0.63280 0.29700
H 	H 	0.40030 0.93770 0.63960 -0.10800
C 	C 	0.36705 0.88335 0.59424 -0.53500
C 	C 	0.34180 0.82160 0.58415 0.40600
C 	C 	0.37400 0.93920 0.56267 1.07900
C 	C 	0.41390 0.91690 0.52980 -1.54000
H 	H 	0.39760 0.87690 0.51790 0.47700
H 	H 	0.45350 0.90770 0.53990 0.45100
H 	H 	0.41600 0.95210 0.51060 0.43500
C 	C 	0.31300 0.95960 0.54600 -1.53700
H 	H 	0.29350 0.92080 0.53480 0.47800
H 	H 	0.31810 0.99320 0.52620 0.44300
H 	H 	0.28880 0.97750 0.56650 0.44700
C 	C 	0.40260 0.00440 0.58050 -1.39700
H 	H 	0.40630 0.03790 0.56050 0.38900
H 	H 	0.44170 0.99400 0.59120 0.40500
H 	H 	0.37760 0.02130 0.60080 0.40200
C 	C 	0.39730 0.85810 0.70290 0.43800
C 	C 	0.09010 0.69440 0.20104 0.41300
C 	C 	0.12199 0.70521 0.16286 -0.22500
C 	C 	0.16121 0.75881 0.15769 0.12800
H 	H 	0.17060 0.78720 0.17850 -0.00900
C 	C 	0.18639 0.76995 0.12144 -0.21600
C 	C 	0.17236 0.72749 0.09037 0.32500
C 	C 	0.13314 0.67388 0.09554 -0.35100
C 	C 	0.10795 0.66274 0.13178 0.18800
H 	H 	0.08170 0.62690 0.13520 -0.05500
C 	C 	0.12137 0.62017 0.06228 0.67900
C 	C 	0.08463 0.55905 0.07571 -1.07300
H 	H 	0.04610 0.57390 0.08430 0.31100
H 	H 	0.10550 0.53690 0.09680 0.31500
H 	H 	0.07940 0.52820 0.05440 0.29100
C 	C 	0.18415 0.59023 0.04865 -1.03900
H 	H 	0.20480 0.57030 0.07060 0.31900
H 	H 	0.20820 0.62580 0.03820 0.33200
H 	H 	0.17720 0.55660 0.02900 0.28700
C 	C 	0.08392 0.65430 0.02775 -1.03200
H 	H 	0.04680 0.67130 0.03760 0.30600
H 	H 	0.07570 0.62150 0.00780 0.27900
H 	H 	0.10670 0.69070 0.01700 0.31600
C 	C 	0.23085 0.82439 0.12176 0.09000
H 	H 	0.24070 0.84480 0.14540 -0.00500
C 	C 	0.30243 0.89643 0.09194 0.03400
C 	C 	0.31742 0.93360 0.12505 -0.09000
H 	H 	0.29770 0.92560 0.14830 0.05200
C 	C 	0.36180 0.98270 0.12341 -0.01400
H 	H 	0.37180 0.00750 0.14560 0.01900
C 	C 	0.39119 0.99459 0.08865 -0.04100
H 	H 	0.42090 0.02740 0.08760 0.04900
C 	C 	0.37621 0.95740 0.05554 -0.07200
H 	H 	0.39590 0.96540 0.03230 0.05500
C 	C 	0.33183 0.90835 0.05718 0.02600
C 	C 	0.34390 0.86290 0.99372 0.10900
H 	H 	0.38190 0.88250 0.99440 -0.00600
C 	C 	0.32685 0.82833 0.95807 -0.25200
C 	C 	0.36688 0.83691 0.92782 0.16700
H 	H 	0.40280 0.85980 0.93220 -0.01700
C 	C 	0.35323 0.81130 0.89099 -0.26300
C 	C 	0.29956 0.77720 0.88440 0.26300
H 	H 	0.29040 0.76010 0.85980 -0.08700
C 	C 	0.25952 0.76861 0.91465 -0.47200
C 	C 	0.27317 0.79417 0.95148 0.38500
C 	C 	0.19830 0.73200 0.90580 0.96900
C 	C 	0.19610 0.66790 0.93200 -1.34100
H 	H 	0.15890 0.64460 0.92740 0.37700
H 	H 	0.19910 0.68080 0.95900 0.41700
H 	H 	0.22900 0.63870 0.92580 0.39100
C 	C 	0.14580 0.77800 0.91660 -1.43700
H 	H 	0.14630 0.81770 0.90060 0.43200
H 	H 	0.14960 0.79080 0.94350 0.45000
H 	H 	0.10870 0.75440 0.91240 0.41700
C 	C 	0.19140 0.71050 0.86280 -1.38500
H 	H 	0.19250 0.74970 0.84640 0.40500
H 	H 	0.15380 0.68770 0.85910 0.39100
H 	H 	0.22360 0.68070 0.85620 0.40100
C 	C 	0.39590 0.82230 0.85747 0.44400
C 	C 	0.46310 0.75310 0.44740 -0.56000
H 	H 	0.43530 0.78660 0.43800 0.14900
H 	H 	0.48620 0.73650 0.42600 0.14700
H 	H 	0.48950 0.77280 0.46660 0.15700
C 	C 	0.49830 0.66630 0.47790 -0.35000
H 	H 	0.50030 0.62160 0.48850 0.02000
H 	H 	0.51510 0.69770 0.49640 0.11000
H 	H 	0.52080 0.66810 0.45430 0.09500
C 	C 	0.03300 0.89890 0.03030 -0.77800
H 	H 	0.02810 0.86140 0.04770 0.24800
H 	H 	0.00430 0.89570 0.00930 0.27600
H 	H 	0.02690 0.94020 0.04430 0.24000
C 	C 	0.08200 0.96710 0.98310 -0.72700
H 	H 	0.11540 0.98560 0.96930 0.23700
H 	H 	0.06560 0.00090 0.99990 0.22700
H 	H 	0.05180 0.95250 0.96470 0.21700
O 	O 	0.93550 0.80180 0.27390 -0.51800
O 	O 	0.02960 0.81720 0.29294 -0.50700
O 	O 	0.90457 0.07360 0.36486 -0.51600
O 	O 	0.92880 0.21570 0.33921 -0.54000
O 	O 	0.00867 0.52044 0.33818 -0.51000
O 	O 	0.96549 0.51250 0.27935 -0.52600
O 	O 	0.12257 0.72450 0.32077 -0.51200
O 	O 	0.08259 0.64830 0.36112 -0.50700
O 	O 	0.28420 0.77010 0.47112 -0.46000
O 	O 	0.32720 0.81020 0.54733 -0.51700
O 	O 	0.38179 0.81430 0.72826 -0.53500
O 	O 	0.43024 0.90680 0.70979 -0.52400
O 	O 	0.10368 0.73390 0.22901 -0.51200
O 	O 	0.05160 0.64910 0.20204 -0.53100
O 	O 	0.19090 0.74030 0.05466 -0.47600
O 	O 	0.23498 0.78540 0.97995 -0.50500
O 	O 	0.44609 0.84740 0.86543 -0.51400
O 	O 	0.37759 0.80610 0.82382 -0.53700
O 	O 	0.39830 0.69860 0.50580 -0.44200
O 	O 	0.16660 0.88980 0.02920 -0.46600
O 	O 	0.00076 0.65955 0.28205 -0.96300
N 	N 	0.02830 0.21610 0.39186 -0.26600
N 	N 	0.02200 0.08500 0.39250 -0.26700
N 	N 	0.25740 0.84570 0.09031 -0.24700
N 	N 	0.31220 0.86950 0.02460 -0.25600
N 	N 	0.30770 0.67620 0.57219 -0.25900
N 	N 	0.26310 0.64100 0.50339 -0.25300
S 	S 	0.42400 0.68740 0.46790 0.27100
S 	S 	0.10660 0.89770 0.01140 0.40100
Zn	Zn	0.45397 0.34713 0.88027 1.18100
Zn	Zn	0.73075 0.67957 0.53359 1.22100
Zn	Zn	0.42393 0.79700 0.77632 1.21400
Zn	Zn	0.56269 0.77322 0.77827 1.20600
Zn	Zn	0.50866 0.91441 0.74245 1.16800
Zn	Zn	0.51159 0.88233 0.83236 1.20500
Zn	Zn	0.81474 0.77403 0.01840 1.21700
C 	C 	0.47620 0.66520 0.79120 0.43500
C 	C 	0.45752 0.60138 0.81157 -0.26000
C 	C 	0.49923 0.56330 0.83260 0.15900
H 	H 	0.53910 0.57720 0.83430 -0.02100
C 	C 	0.48143 0.50454 0.85117 -0.25300
C 	C 	0.42191 0.48381 0.84870 0.36400
C 	C 	0.38019 0.52187 0.82766 -0.44500
C 	C 	0.39800 0.58065 0.80910 0.24600
H 	H 	0.37010 0.60610 0.79500 -0.07400
C 	C 	0.31260 0.50250 0.82580 0.86800
C 	C 	0.28540 0.50320 0.86800 -1.21100
H 	H 	0.29050 0.54710 0.87930 0.35100
H 	H 	0.24340 0.49250 0.86640 0.34600
H 	H 	0.30580 0.47040 0.88400 0.37000
C 	C 	0.30500 0.43180 0.80690 -1.28000
H 	H 	0.32180 0.43210 0.78130 0.37800
H 	H 	0.32550 0.39880 0.82270 0.38900
H 	H 	0.26310 0.42070 0.80500 0.38300
C 	C 	0.27330 0.55180 0.80190 -1.28400
H 	H 	0.28720 0.55360 0.77560 0.38600
H 	H 	0.23240 0.53670 0.80190 0.37400
H 	H 	0.27580 0.59590 0.81340 0.37300
C 	C 	0.52790 0.47390 0.87510 0.09300
H 	H 	0.56390 0.49690 0.87840 -0.01000
C 	C 	0.56913 0.38636 0.91577 0.01100
C 	C 	0.60880 0.42379 0.93879 -0.07900
H 	H 	0.60660 0.47060 0.93870 0.04200
C 	C 	0.65169 0.39130 0.96188 -0.04800
H 	H 	0.67820 0.41630 0.97730 0.01100
C 	C 	0.65493 0.32130 0.96195 -0.03100
H 	H 	0.68360 0.29960 0.97740 0.00600
C 	C 	0.61530 0.28389 0.93894 -0.09200
H 	H 	0.61750 0.23710 0.93900 0.05400
C 	C 	0.57238 0.31641 0.91585 0.02200
C 	C 	0.53320 0.22280 0.87946 0.10000
H 	H 	0.56650 0.19830 0.88790 -0.00300
C 	C 	0.49028 0.18893 0.85320 -0.26800
C 	C 	0.50306 0.12151 0.84615 0.17400
H 	H 	0.53450 0.10050 0.85960 -0.02000
C 	C 	0.46887 0.08546 0.81905 -0.28000
C 	C 	0.42190 0.11684 0.79899 0.28900
H 	H 	0.39900 0.09270 0.78090 -0.09900
C 	C 	0.40912 0.18426 0.80603 -0.52500
C 	C 	0.44331 0.22031 0.83314 0.39700
C 	C 	0.35340 0.21740 0.78420 1.14100
C 	C 	0.37490 0.27750 0.76060 -1.61500
H 	H 	0.34130 0.29790 0.74720 0.46800
H 	H 	0.39340 0.30990 0.77770 0.50300
H 	H 	0.40360 0.26260 0.74180 0.47600
C 	C 	0.30690 0.23940 0.81370 -1.62400
H 	H 	0.27330 0.25960 0.80020 0.48900
H 	H 	0.29350 0.20090 0.82810 0.49800
H 	H 	0.32450 0.27170 0.83140 0.49300
C 	C 	0.32140 0.16780 0.75570 -1.55300
H 	H 	0.28810 0.19020 0.74320 0.45500
H 	H 	0.34920 0.15310 0.73640 0.45800
H 	H 	0.30720 0.12960 0.77000 0.46700
C 	C 	0.48180 0.01280 0.81150 0.40900
C 	C 	0.62170 0.80620 0.85291 0.39400
C 	C 	0.66595 0.78770 0.88383 -0.18000
C 	C 	0.67627 0.83051 0.91533 0.09000
H 	H 	0.65640 0.87160 0.91660 0.00800
C 	C 	0.71630 0.81185 0.94491 -0.18100
C 	C 	0.74610 0.75040 0.94298 0.24900
C 	C 	0.73580 0.70762 0.91148 -0.20800
C 	C 	0.69570 0.72630 0.88190 0.10200
H 	H 	0.68880 0.69770 0.86080 -0.00900
C 	C 	0.76460 0.63280 0.91090 0.31500
C 	C 	0.83190 0.63810 0.91380 -0.76900
H 	H 	0.84650 0.66260 0.89170 0.23300
H 	H 	0.84300 0.66130 0.93740 0.24000
H 	H 	0.84900 0.59370 0.91410 0.21200
C 	C 	0.74340 0.59670 0.87210 -0.75900
H 	H 	0.76120 0.61860 0.85020 0.23900
H 	H 	0.75570 0.55030 0.87280 0.22400
H 	H 	0.70050 0.59910 0.86970 0.24500
C 	C 	0.72600 0.86150 0.97450 0.07400
H 	H 	0.70260 0.90020 0.97260 0.00600
C 	C 	0.77020 0.91190 0.03075 0.02500
C 	C 	0.75920 0.97930 0.02243 -0.08400
H 	H 	0.74370 0.99170 0.99810 0.06100
C 	C 	0.77120 0.02830 0.05047 -0.04000
H 	H 	0.76380 0.07340 0.04490 0.02900
C 	C 	0.79430 0.00980 0.08683 -0.04400
H 	H 	0.80230 0.04260 0.10560 0.01400
C 	C 	0.80530 0.94230 0.09515 -0.08500
H 	H 	0.82070 0.93000 0.11950 0.04100
C 	C 	0.79330 0.89337 0.06711 0.01700
C 	C 	0.81500 0.79640 0.10600 0.11600
H 	H 	0.80840 0.82310 0.12770 -0.03100
C 	C 	0.83280 0.72706 0.11262 -0.28500
C 	C 	0.84914 0.71398 0.15118 0.17900
H 	H 	0.84320 0.74650 0.17020 -0.04400
C 	C 	0.87443 0.65224 0.16127 -0.29900
C 	C 	0.88338 0.60357 0.13280 0.29800
H 	H 	0.90030 0.56230 0.13960 -0.10800
C 	C 	0.86705 0.61665 0.09424 -0.53600
C 	C 	0.84180 0.67840 0.08415 0.40700
C 	C 	0.87400 0.56080 0.06267 1.08200
C 	C 	0.91390 0.58310 0.02980 -1.54400
H 	H 	0.89760 0.62310 0.01790 0.47800
H 	H 	0.95350 0.59230 0.03990 0.45200
H 	H 	0.91600 0.54790 0.01060 0.43600
C 	C 	0.81300 0.54040 0.04600 -1.54000
H 	H 	0.79350 0.57920 0.03480 0.47900
H 	H 	0.81810 0.50680 0.02620 0.44400
H 	H 	0.78880 0.52250 0.06650 0.44800
C 	C 	0.90260 0.49560 0.08050 -1.40100
H 	H 	0.90630 0.46210 0.06050 0.39000
H 	H 	0.94170 0.50600 0.09120 0.40700
H 	H 	0.87760 0.47870 0.10080 0.40300
C 	C 	0.89730 0.64190 0.20290 0.43900
C 	C 	0.59010 0.80560 0.70104 0.41300
C 	C 	0.62199 0.79479 0.66286 -0.22500
C 	C 	0.66121 0.74119 0.65769 0.12800
H 	H 	0.67060 0.71280 0.67850 -0.00800
C 	C 	0.68639 0.73005 0.62144 -0.21600
C 	C 	0.67236 0.77251 0.59037 0.32500
C 	C 	0.63314 0.82612 0.59554 -0.35200
C 	C 	0.60795 0.83726 0.63178 0.18800
H 	H 	0.58170 0.87310 0.63520 -0.05500
C 	C 	0.62137 0.87983 0.56228 0.67900
C 	C 	0.58463 0.94095 0.57571 -1.07400
H 	H 	0.54610 0.92610 0.58430 0.31100
H 	H 	0.60550 0.96310 0.59680 0.31600
H 	H 	0.57940 0.97180 0.55440 0.29200
C 	C 	0.68415 0.90977 0.54865 -1.04000
H 	H 	0.70480 0.92970 0.57060 0.31900
H 	H 	0.70820 0.87420 0.53820 0.33200
H 	H 	0.67720 0.94340 0.52900 0.28800
C 	C 	0.58392 0.84570 0.52775 -1.03200
H 	H 	0.54680 0.82870 0.53760 0.30600
H 	H 	0.57570 0.87850 0.50780 0.28000
H 	H 	0.60670 0.80930 0.51700 0.31700
C 	C 	0.73085 0.67561 0.62176 0.09000
H 	H 	0.74070 0.65520 0.64540 -0.00500
C 	C 	0.80243 0.60357 0.59194 0.03400
C 	C 	0.81742 0.56640 0.62505 -0.09000
H 	H 	0.79770 0.57440 0.64830 0.05200
C 	C 	0.86180 0.51730 0.62341 -0.01200
H 	H 	0.87180 0.49250 0.64560 0.01800
C 	C 	0.89119 0.50541 0.58865 -0.04000
H 	H 	0.92090 0.47260 0.58760 0.04900
C 	C 	0.87621 0.54260 0.55554 -0.07200
H 	H 	0.89590 0.53460 0.53230 0.05500
C 	C 	0.83183 0.59165 0.55718 0.02600
C 	C 	0.84390 0.63710 0.49372 0.10900
H 	H 	0.88190 0.61750 0.49440 -0.00600
C 	C 	0.82685 0.67167 0.45807 -0.25200
C 	C 	0.86688 0.66309 0.42782 0.16700
H 	H 	0.90280 0.64020 0.43220 -0.01700
C 	C 	0.85323 0.68870 0.39099 -0.26300
C 	C 	0.79956 0.72280 0.38440 0.26300
H 	H 	0.79040 0.73990 0.35980 -0.08700
C 	C 	0.75952 0.73139 0.41465 -0.47200
C 	C 	0.77317 0.70583 0.45148 0.38500
C 	C 	0.69830 0.76800 0.40580 0.97000
C 	C 	0.69610 0.83210 0.43200 -1.34200
H 	H 	0.65890 0.85540 0.42740 0.37800
H 	H 	0.69910 0.81920 0.45900 0.41700
H 	H 	0.72900 0.86130 0.42580 0.39200
C 	C 	0.64580 0.72200 0.41660 -1.43700
H 	H 	0.64630 0.68230 0.40060 0.43200
H 	H 	0.64960 0.70920 0.44350 0.45000
H 	H 	0.60870 0.74560 0.41240 0.41800
C 	C 	0.69140 0.78950 0.36280 -1.38500
H 	H 	0.69250 0.75030 0.34640 0.40500
H 	H 	0.65380 0.81230 0.35910 0.39200
H 	H 	0.72360 0.81930 0.35620 0.40200
C 	C 	0.89590 0.67770 0.35747 0.44400
C 	C 	0.96310 0.74690 0.94740 -0.56000
H 	H 	0.93530 0.71340 0.93800 0.14900
H 	H 	0.98620 0.76350 0.92600 0.14800
H 	H 	0.98950 0.72720 0.96660 0.15800
C 	C 	0.99830 0.83370 0.97790 -0.31800
H 	H 	0.00030 0.87840 0.98850 0.00400
H 	H 	0.01510 0.80230 0.99640 0.10000
H 	H 	0.02080 0.83190 0.95430 0.08500
C 	C 	0.53300 0.60110 0.53030 -0.76100
H 	H 	0.52810 0.63860 0.54770 0.24300
H 	H 	0.50430 0.60430 0.50930 0.26400
H 	H 	0.52690 0.55980 0.54430 0.23600
C 	C 	0.58200 0.53290 0.48310 -0.71900
H 	H 	0.61540 0.51440 0.46930 0.23500
H 	H 	0.56560 0.49910 0.49990 0.22400
H 	H 	0.55180 0.54750 0.46470 0.21400
O 	O 	0.43550 0.69820 0.77390 -0.51800
O 	O 	0.52960 0.68280 0.79294 -0.50500
O 	O 	0.40457 0.42640 0.86486 -0.51600
O 	O 	0.42880 0.28430 0.83921 -0.54000
O 	O 	0.50867 0.97956 0.83818 -0.51000
O 	O 	0.46549 0.98750 0.77935 -0.52600
O 	O 	0.62257 0.77550 0.82077 -0.51200
O 	O 	0.58259 0.85170 0.86112 -0.50700
O 	O 	0.78420 0.72990 0.97112 -0.46000
O 	O 	0.82720 0.68980 0.04733 -0.51700
O 	O 	0.88179 0.68570 0.22826 -0.53500
O 	O 	0.93024 0.59320 0.20979 -0.52300
O 	O 	0.60368 0.76610 0.72901 -0.51200
O 	O 	0.55160 0.85090 0.70204 -0.53100
O 	O 	0.69090 0.75970 0.55466 -0.47600
O 	O 	0.73498 0.71460 0.47995 -0.50500
O 	O 	0.94609 0.65260 0.36543 -0.51300
O 	O 	0.87759 0.69390 0.32382 -0.53700
O 	O 	0.89830 0.80140 0.00580 -0.44100
O 	O 	0.66660 0.61020 0.52920 -0.46400
O 	O 	0.50076 0.84045 0.78205 -0.96300
N 	N 	0.52830 0.28390 0.89186 -0.26600
N 	N 	0.52200 0.41500 0.89250 -0.26700
N 	N 	0.75740 0.65430 0.59031 -0.24700
N 	N 	0.81220 0.63050 0.52460 -0.25600
N 	N 	0.80770 0.82380 0.07219 -0.25900
N 	N 	0.76310 0.85900 0.00339 -0.25300
S 	S 	0.92400 0.81260 0.96790 0.26500
S 	S 	0.60660 0.60230 0.51140 0.39500
