data_crystal

_cell_length_a 18.27900
_cell_length_b 7.33000
_cell_length_c 11.60100
_cell_angle_alpha 90.00000
_cell_angle_beta  90.00000
_cell_angle_gamma 90.00000

_symmetry_space_group_name_	'P 1'
_symmetry_space_group_name_H-M	'P 1'

loop_
_symmetry_equiv_pos_as_xyz
  x,y,z

loop_
_atom_site_label
_atom_site_type_symbol
_atom_site_fract_x
_atom_site_fract_y
_atom_site_fract_z
_atom_site_charge
O 	O 	0.58196 0.40160 0.61080 -0.59100
C 	C 	0.71600 0.09100 0.72360 0.02200
N 	N 	0.69040 0.92200 0.69100 0.05400
O 	O 	0.70960 0.84700 0.59000 -0.00500
O 	O 	0.65030 0.85900 0.77900 0.04300
O 	O 	0.08196 0.90160 0.11080 -0.62100
C 	C 	0.21600 0.59100 0.22360 0.11100
N 	N 	0.19040 0.42200 0.19100 -0.01700
O 	O 	0.20960 0.34700 0.09000 -0.14000
O 	O 	0.15030 0.35900 0.27900 -0.07100
O 	O 	0.41804 0.09840 0.61080 -0.66900
C 	C 	0.28400 0.40900 0.72360 0.13100
N 	N 	0.30960 0.57800 0.69100 -0.02400
O 	O 	0.29040 0.65300 0.59000 -0.05800
O 	O 	0.34970 0.64100 0.77900 -0.00600
O 	O 	0.91804 0.59840 0.11080 -0.58300
C 	C 	0.78400 0.90900 0.22360 0.22800
N 	N 	0.80960 0.07800 0.19100 -0.09800
O 	O 	0.79040 0.15300 0.09000 -0.17800
O 	O 	0.84970 0.14100 0.27900 -0.07300
O 	O 	0.41804 0.90160 0.38920 -0.52100
C 	C 	0.28400 0.59100 0.27640 0.11300
N 	N 	0.30960 0.42200 0.30900 -0.01500
O 	O 	0.29040 0.34700 0.41000 -0.05900
O 	O 	0.34970 0.35900 0.22100 -0.09000
O 	O 	0.91804 0.40160 0.88920 -0.43400
C 	C 	0.78400 0.09100 0.77640 0.01900
N 	N 	0.80960 0.92200 0.80900 0.05700
O 	O 	0.79040 0.84700 0.91000 0.07500
O 	O 	0.84970 0.85900 0.72100 0.03500
O 	O 	0.58196 0.59840 0.38920 -0.60500
C 	C 	0.71600 0.90900 0.27640 0.23200
N 	N 	0.69040 0.07800 0.30900 -0.09500
O 	O 	0.70960 0.15300 0.41000 -0.09800
O 	O 	0.65030 0.14100 0.22100 -0.14300
O 	O 	0.08196 0.09840 0.88920 -0.61900
C 	C 	0.21600 0.40900 0.77640 0.12700
N 	N 	0.19040 0.57800 0.80900 -0.01900
O 	O 	0.20960 0.65300 0.91000 0.03200
O 	O 	0.15030 0.64100 0.72100 -0.06500
O 	O 	0.41804 0.59840 0.38920 -0.60500
C 	C 	0.28400 0.90900 0.27640 0.23000
N 	N 	0.30960 0.07800 0.30900 -0.09500
O 	O 	0.29040 0.15300 0.41000 -0.10500
O 	O 	0.34970 0.14100 0.22100 -0.14300
O 	O 	0.91804 0.09840 0.88920 -0.50900
C 	C 	0.78400 0.40900 0.77640 0.13000
N 	N 	0.80960 0.57800 0.80900 -0.02000
O 	O 	0.79040 0.65300 0.91000 0.03200
O 	O 	0.84970 0.64100 0.72100 -0.01600
O 	O 	0.58196 0.90160 0.38920 -0.52100
C 	C 	0.71600 0.59100 0.27640 0.11700
N 	N 	0.69040 0.42200 0.30900 -0.01500
O 	O 	0.70960 0.34700 0.41000 -0.05100
O 	O 	0.65030 0.35900 0.22100 -0.09000
O 	O 	0.08196 0.40160 0.88920 -0.54300
C 	C 	0.21600 0.09100 0.77640 0.01400
N 	N 	0.19040 0.92200 0.80900 0.06000
O 	O 	0.20960 0.84700 0.91000 0.07600
O 	O 	0.15030 0.85900 0.72100 -0.01200
O 	O 	0.58196 0.09840 0.61080 -0.66900
C 	C 	0.71600 0.40900 0.72360 0.13300
N 	N 	0.69040 0.57800 0.69100 -0.02500
O 	O 	0.70960 0.65300 0.59000 -0.05100
O 	O 	0.65030 0.64100 0.77900 -0.00800
O 	O 	0.08196 0.59840 0.11080 -0.70800
C 	C 	0.21600 0.90900 0.22360 0.22800
N 	N 	0.19040 0.07800 0.19100 -0.09800
O 	O 	0.20960 0.15300 0.09000 -0.18600
O 	O 	0.15030 0.14100 0.27900 -0.12500
O 	O 	0.41804 0.40160 0.61080 -0.59200
C 	C 	0.28400 0.09100 0.72360 0.01700
N 	N 	0.30960 0.92200 0.69100 0.05500
O 	O 	0.29040 0.84700 0.59000 -0.01100
O 	O 	0.34970 0.85900 0.77900 0.04500
O 	O 	0.91804 0.90160 0.11080 -0.50100
C 	C 	0.78400 0.59100 0.22360 0.11400
N 	N 	0.80960 0.42200 0.19100 -0.01800
O 	O 	0.79040 0.34700 0.09000 -0.13200
O 	O 	0.84970 0.35900 0.27900 -0.02000
Sc	Sc	0.50000 0.50000 0.50000 2.34500
Sc	Sc	-0.00000 0.00000 -0.00000 2.27000
Sc	Sc	0.50000 0.00000 0.50000 2.32300
Sc	Sc	-0.00000 0.50000 -0.00000 2.29200
O 	O 	0.50000 0.25000 0.41800 -0.77600
O 	O 	-0.00000 0.75000 0.91800 -0.65100
O 	O 	0.50000 0.75000 0.58200 -0.67000
O 	O 	-0.00000 0.25000 0.08200 -0.97800
C 	C 	0.60990 0.25000 0.63380 0.54800
C 	C 	0.68270 0.25000 0.69460 -0.13600
C 	C 	0.10990 0.75000 0.13380 0.53800
C 	C 	0.18270 0.75000 0.19460 -0.21000
C 	C 	0.39010 0.25000 0.63380 0.54700
C 	C 	0.31730 0.25000 0.69460 -0.13700
C 	C 	0.89010 0.75000 0.13380 0.52200
C 	C 	0.81730 0.75000 0.19460 -0.18300
C 	C 	0.39010 0.75000 0.36620 0.54500
C 	C 	0.31730 0.75000 0.30540 -0.18200
C 	C 	0.89010 0.25000 0.86620 0.53200
C 	C 	0.81730 0.25000 0.80540 -0.09600
C 	C 	0.60990 0.75000 0.36620 0.54500
C 	C 	0.68270 0.75000 0.30540 -0.18000
C 	C 	0.10990 0.25000 0.86620 0.54600
C 	C 	0.18270 0.25000 0.80540 -0.11800
