data_crystal

_cell_length_a 15.50800
_cell_length_b 19.22000
_cell_length_c 25.21100
_cell_angle_alpha 90.00000
_cell_angle_beta  90.00000
_cell_angle_gamma 90.00000

_symmetry_space_group_name_	'P 1'
_symmetry_space_group_name_H-M	'P 1'

loop_
_symmetry_equiv_pos_as_xyz
  x,y,z

loop_
_atom_site_label
_atom_site_type_symbol
_atom_site_fract_x
_atom_site_fract_y
_atom_site_fract_z
_atom_site_charge
Zn	Zn	0.05372 0.83782 0.22766 1.19000
Zn	Zn	0.02579 0.96432 0.45013 1.21500
Zn	Zn	0.44628 0.16218 0.72766 1.19100
Zn	Zn	0.47421 0.03568 0.95013 1.21600
Zn	Zn	0.94628 0.33782 0.77234 1.18900
Zn	Zn	0.97421 0.46432 0.54987 1.21500
Zn	Zn	0.55372 0.66218 0.27234 1.19000
Zn	Zn	0.52579 0.53568 0.04987 1.21500
Zn	Zn	0.94628 0.16218 0.77234 1.18900
Zn	Zn	0.97421 0.03568 0.54987 1.21400
Zn	Zn	0.55372 0.83782 0.27234 1.19000
Zn	Zn	0.52579 0.96432 0.04987 1.21500
Zn	Zn	0.05372 0.66218 0.22766 1.18900
Zn	Zn	0.02579 0.53568 0.45013 1.21500
Zn	Zn	0.44628 0.33782 0.72766 1.19000
Zn	Zn	0.47421 0.46432 0.95013 1.21500
Zn	Zn	0.18290 0.75000 0.30419 1.17200
Zn	Zn	0.31710 0.25000 0.80419 1.17200
Zn	Zn	0.81710 0.25000 0.69581 1.17200
Zn	Zn	0.68290 0.75000 0.19581 1.17200
H 	H 	0.91130 0.94750 0.32070 0.28100
H 	H 	0.97080 0.00900 0.33900 0.28800
H 	H 	0.97700 0.98070 0.28080 0.26500
H 	H 	0.22360 0.80880 0.41270 0.23700
H 	H 	0.21230 0.88210 0.43910 0.28900
H 	H 	0.14880 0.82150 0.45340 0.28400
H 	H 	0.96490 0.85460 0.64730 -0.00700
H 	H 	0.02230 0.00300 0.09570 0.01200
H 	H 	0.06440 0.04930 0.01430 0.07700
H 	H 	0.20690 0.05230 0.99080 -0.01200
H 	H 	0.26610 0.93030 0.11290 0.00700
H 	H 	0.28550 0.88650 0.27040 0.25600
H 	H 	0.37980 0.90840 0.28530 0.25500
H 	H 	0.31390 0.88900 0.33000 0.25900
H 	H 	0.58870 0.05250 0.82070 0.29000
H 	H 	0.52920 0.99100 0.83900 0.30100
H 	H 	0.52300 0.01930 0.78080 0.27300
H 	H 	0.27640 0.19120 0.91270 0.23700
H 	H 	0.28770 0.11790 0.93910 0.29000
H 	H 	0.35120 0.17850 0.95340 0.28500
H 	H 	0.53510 0.14540 0.14730 -0.00600
H 	H 	0.47770 0.99700 0.59570 0.00200
H 	H 	0.43560 0.95070 0.51430 0.08300
H 	H 	0.29310 0.94770 0.49080 -0.01700
H 	H 	0.23390 0.06970 0.61290 0.00500
H 	H 	0.21450 0.11350 0.77040 0.25700
H 	H 	0.12020 0.09160 0.78530 0.25700
H 	H 	0.18610 0.11100 0.83000 0.26100
H 	H 	0.08870 0.44750 0.67930 0.28900
H 	H 	0.02920 0.50900 0.66100 0.30000
H 	H 	0.02300 0.48070 0.71920 0.27300
H 	H 	0.77640 0.30880 0.58730 0.23700
H 	H 	0.78770 0.38210 0.56090 0.28900
H 	H 	0.85120 0.32150 0.54660 0.28500
H 	H 	0.03510 0.35460 0.35270 -0.00700
H 	H 	0.97770 0.50300 0.90430 0.00300
H 	H 	0.93560 0.54930 0.98570 0.08100
H 	H 	0.79310 0.55230 0.00920 -0.01500
H 	H 	0.73390 0.43030 0.88710 0.00500
H 	H 	0.71450 0.38650 0.72960 0.25600
H 	H 	0.62020 0.40840 0.71470 0.25500
H 	H 	0.68610 0.38900 0.67000 0.25900
H 	H 	0.41130 0.55250 0.17930 0.29000
H 	H 	0.47080 0.49100 0.16100 0.30100
H 	H 	0.47700 0.51930 0.21920 0.27300
H 	H 	0.72360 0.69120 0.08730 0.23700
H 	H 	0.71230 0.61790 0.06090 0.29000
H 	H 	0.64880 0.67850 0.04660 0.28500
H 	H 	0.46490 0.64540 0.85270 -0.00600
H 	H 	0.52230 0.49700 0.40430 0.00300
H 	H 	0.56440 0.45070 0.48570 0.08300
H 	H 	0.70690 0.44770 0.50920 -0.01700
H 	H 	0.76610 0.56970 0.38710 0.00500
H 	H 	0.78550 0.61350 0.22960 0.25700
H 	H 	0.87980 0.59160 0.21470 0.25600
H 	H 	0.81390 0.61100 0.17000 0.26000
H 	H 	0.08870 0.05250 0.67930 0.28100
H 	H 	0.02920 0.99100 0.66100 0.28800
H 	H 	0.02300 0.01930 0.71920 0.26500
H 	H 	0.77640 0.19120 0.58730 0.23700
H 	H 	0.78770 0.11790 0.56090 0.28900
H 	H 	0.85120 0.17850 0.54660 0.28400
H 	H 	0.03510 0.14540 0.35270 -0.00700
H 	H 	0.97770 0.99700 0.90430 0.01200
H 	H 	0.93560 0.95070 0.98570 0.07700
H 	H 	0.79310 0.94770 0.00920 -0.01200
H 	H 	0.73390 0.06970 0.88710 0.00700
H 	H 	0.71450 0.11350 0.72960 0.25600
H 	H 	0.62020 0.09160 0.71470 0.25500
H 	H 	0.68610 0.11100 0.67000 0.25900
H 	H 	0.41130 0.94750 0.17930 0.29000
H 	H 	0.47080 0.00900 0.16100 0.30100
H 	H 	0.47700 0.98070 0.21920 0.27300
H 	H 	0.72360 0.80880 0.08730 0.23700
H 	H 	0.71230 0.88210 0.06090 0.29000
H 	H 	0.64880 0.82150 0.04660 0.28500
H 	H 	0.46490 0.85460 0.85270 -0.00600
H 	H 	0.52230 0.00300 0.40430 0.00200
H 	H 	0.56440 0.04930 0.48570 0.08300
H 	H 	0.70690 0.05230 0.50920 -0.01700
H 	H 	0.76610 0.93030 0.38710 0.00500
H 	H 	0.78550 0.88650 0.22960 0.25700
H 	H 	0.87980 0.90840 0.21470 0.25700
H 	H 	0.81390 0.88900 0.17000 0.26100
H 	H 	0.91130 0.55250 0.32070 0.28900
H 	H 	0.97080 0.49100 0.33900 0.30000
H 	H 	0.97700 0.51930 0.28080 0.27300
H 	H 	0.22360 0.69120 0.41270 0.23700
H 	H 	0.21230 0.61790 0.43910 0.28900
H 	H 	0.14880 0.67850 0.45340 0.28500
H 	H 	0.96490 0.64540 0.64730 -0.00700
H 	H 	0.02230 0.49700 0.09570 0.00300
H 	H 	0.06440 0.45070 0.01430 0.08100
H 	H 	0.20690 0.44770 0.99080 -0.01500
H 	H 	0.26610 0.56970 0.11290 0.00500
H 	H 	0.28550 0.61350 0.27040 0.25600
H 	H 	0.37980 0.59160 0.28530 0.25500
H 	H 	0.31390 0.61100 0.33000 0.25900
H 	H 	0.58870 0.44750 0.82070 0.29000
H 	H 	0.52920 0.50900 0.83900 0.30100
H 	H 	0.52300 0.48070 0.78080 0.27300
H 	H 	0.27640 0.30880 0.91270 0.23700
H 	H 	0.28770 0.38210 0.93910 0.29000
H 	H 	0.35120 0.32150 0.95340 0.28500
H 	H 	0.53510 0.35460 0.14730 -0.00600
H 	H 	0.47770 0.50300 0.59570 0.00300
H 	H 	0.43560 0.54930 0.51430 0.08300
H 	H 	0.29310 0.55230 0.49080 -0.01700
H 	H 	0.23390 0.43030 0.61290 0.00500
H 	H 	0.21450 0.38650 0.77040 0.25700
H 	H 	0.12020 0.40840 0.78530 0.25600
H 	H 	0.18610 0.38900 0.83000 0.26000
H 	H 	0.16850 0.75000 0.21020 0.23200
H 	H 	0.95780 0.75000 0.69370 0.08600
H 	H 	0.00540 0.75000 0.51290 -0.00500
H 	H 	0.33150 0.25000 0.71020 0.23200
H 	H 	0.54220 0.25000 0.19370 0.08400
H 	H 	0.49460 0.25000 0.01290 -0.00200
H 	H 	0.83150 0.25000 0.78980 0.23200
H 	H 	0.04220 0.25000 0.30630 0.08600
H 	H 	0.99460 0.25000 0.48710 -0.00500
H 	H 	0.66850 0.75000 0.28980 0.23200
H 	H 	0.45780 0.75000 0.80630 0.08400
H 	H 	0.50540 0.75000 0.98710 -0.00200
C 	C 	0.96740 0.96810 0.31720 -0.89000
C 	C 	0.03410 0.91740 0.33420 0.32400
C 	C 	0.12490 0.86360 0.38170 0.31000
C 	C 	0.18250 0.84210 0.42560 -0.89300
C 	C 	0.99390 0.88020 0.54710 0.45000
C 	C 	0.98820 0.81320 0.57580 -0.20400
C 	C 	0.97190 0.81270 0.62930 0.11400
C 	C 	0.11450 0.91530 0.16040 0.43800
C 	C 	0.14050 0.95670 0.11060 -0.16900
C 	C 	0.07810 0.99730 0.08290 0.06600
C 	C 	0.10500 0.02780 0.03590 -0.15600
C 	C 	0.19010 0.02700 0.02050 0.09600
C 	C 	0.25030 0.98980 0.04800 -0.18000
C 	C 	0.22530 0.95510 0.09350 0.10100
C 	C 	0.34200 0.98820 0.03060 0.41600
C 	C 	0.33230 0.87870 0.29450 -0.86600
C 	C 	0.36000 0.80470 0.29130 0.29200
C 	C 	0.53260 0.03190 0.81720 -0.92300
C 	C 	0.46590 0.08260 0.83420 0.33600
C 	C 	0.37510 0.13640 0.88170 0.31000
C 	C 	0.31750 0.15790 0.92560 -0.89400
C 	C 	0.50610 0.11980 0.04710 0.44400
C 	C 	0.51180 0.18680 0.07580 -0.20000
C 	C 	0.52810 0.18730 0.12930 0.11000
C 	C 	0.38550 0.08470 0.66040 0.44200
C 	C 	0.35950 0.04330 0.61060 -0.17700
C 	C 	0.42190 0.00270 0.58290 0.08700
C 	C 	0.39500 0.97220 0.53590 -0.17500
C 	C 	0.30990 0.97300 0.52050 0.10600
C 	C 	0.24970 0.01020 0.54800 -0.18500
C 	C 	0.27470 0.04490 0.59350 0.10800
C 	C 	0.15800 0.01180 0.53060 0.42400
C 	C 	0.16770 0.12130 0.79450 -0.87000
C 	C 	0.14000 0.19530 0.79130 0.29400
C 	C 	0.03260 0.46810 0.68280 -0.92100
C 	C 	0.96590 0.41740 0.66580 0.33400
C 	C 	0.87510 0.36360 0.61830 0.31000
C 	C 	0.81750 0.34210 0.57440 -0.89300
C 	C 	0.00610 0.38020 0.45290 0.44700
C 	C 	0.01180 0.31320 0.42420 -0.20300
C 	C 	0.02810 0.31270 0.37070 0.11400
C 	C 	0.88550 0.41530 0.83960 0.44100
C 	C 	0.85950 0.45670 0.88940 -0.17600
C 	C 	0.92190 0.49730 0.91710 0.08400
C 	C 	0.89500 0.52780 0.96410 -0.17200
C 	C 	0.80990 0.52700 0.97950 0.10500
C 	C 	0.74970 0.48980 0.95200 -0.18500
C 	C 	0.77470 0.45510 0.90650 0.10700
C 	C 	0.65800 0.48820 0.96940 0.42000
C 	C 	0.66770 0.37870 0.70550 -0.86700
C 	C 	0.64000 0.30470 0.70870 0.29200
C 	C 	0.46740 0.53190 0.18280 -0.92400
C 	C 	0.53410 0.58260 0.16580 0.33600
C 	C 	0.62490 0.63640 0.11830 0.31000
C 	C 	0.68250 0.65790 0.07440 -0.89400
C 	C 	0.49390 0.61980 0.95290 0.44400
C 	C 	0.48820 0.68680 0.92420 -0.20000
C 	C 	0.47190 0.68730 0.87070 0.11000
C 	C 	0.61450 0.58470 0.33960 0.44200
C 	C 	0.64050 0.54330 0.38940 -0.17700
C 	C 	0.57810 0.50270 0.41710 0.08500
C 	C 	0.60500 0.47220 0.46410 -0.17400
C 	C 	0.69010 0.47300 0.47950 0.10900
C 	C 	0.75030 0.51020 0.45200 -0.18600
C 	C 	0.72530 0.54490 0.40650 0.10800
C 	C 	0.84200 0.51180 0.46940 0.42100
C 	C 	0.83230 0.62130 0.20550 -0.86700
C 	C 	0.86000 0.69530 0.20870 0.29300
C 	C 	0.03260 0.03190 0.68280 -0.89000
C 	C 	0.96590 0.08260 0.66580 0.32400
C 	C 	0.87510 0.13640 0.61830 0.31000
C 	C 	0.81750 0.15790 0.57440 -0.89300
C 	C 	0.00610 0.11980 0.45290 0.45000
C 	C 	0.01180 0.18680 0.42420 -0.20400
C 	C 	0.02810 0.18730 0.37070 0.11400
C 	C 	0.88550 0.08470 0.83960 0.43800
C 	C 	0.85950 0.04330 0.88940 -0.16900
C 	C 	0.92190 0.00270 0.91710 0.06600
C 	C 	0.89500 0.97220 0.96410 -0.15600
C 	C 	0.80990 0.97300 0.97950 0.09600
C 	C 	0.74970 0.01020 0.95200 -0.18000
C 	C 	0.77470 0.04490 0.90650 0.10100
C 	C 	0.65800 0.01180 0.96940 0.41600
C 	C 	0.66770 0.12130 0.70550 -0.86600
C 	C 	0.64000 0.19530 0.70870 0.29200
C 	C 	0.46740 0.96810 0.18280 -0.92300
C 	C 	0.53410 0.91740 0.16580 0.33600
C 	C 	0.62490 0.86360 0.11830 0.31000
C 	C 	0.68250 0.84210 0.07440 -0.89400
C 	C 	0.49390 0.88020 0.95290 0.44400
C 	C 	0.48820 0.81320 0.92420 -0.20000
C 	C 	0.47190 0.81270 0.87070 0.11000
C 	C 	0.61450 0.91530 0.33960 0.44200
C 	C 	0.64050 0.95670 0.38940 -0.17700
C 	C 	0.57810 0.99730 0.41710 0.08700
C 	C 	0.60500 0.02780 0.46410 -0.17500
C 	C 	0.69010 0.02700 0.47950 0.10600
C 	C 	0.75030 0.98980 0.45200 -0.18500
C 	C 	0.72530 0.95510 0.40650 0.10800
C 	C 	0.84200 0.98820 0.46940 0.42400
C 	C 	0.83230 0.87870 0.20550 -0.87000
C 	C 	0.86000 0.80470 0.20870 0.29400
C 	C 	0.96740 0.53190 0.31720 -0.92100
C 	C 	0.03410 0.58260 0.33420 0.33400
C 	C 	0.12490 0.63640 0.38170 0.31000
C 	C 	0.18250 0.65790 0.42560 -0.89300
C 	C 	0.99390 0.61980 0.54710 0.44700
C 	C 	0.98820 0.68680 0.57580 -0.20300
C 	C 	0.97190 0.68730 0.62930 0.11400
C 	C 	0.11450 0.58470 0.16040 0.44100
C 	C 	0.14050 0.54330 0.11060 -0.17600
C 	C 	0.07810 0.50270 0.08290 0.08400
C 	C 	0.10500 0.47220 0.03590 -0.17200
C 	C 	0.19010 0.47300 0.02050 0.10500
C 	C 	0.25030 0.51020 0.04800 -0.18500
C 	C 	0.22530 0.54490 0.09350 0.10700
C 	C 	0.34200 0.51180 0.03060 0.42000
C 	C 	0.33230 0.62130 0.29450 -0.86700
C 	C 	0.36000 0.69530 0.29130 0.29200
C 	C 	0.53260 0.46810 0.81720 -0.92400
C 	C 	0.46590 0.41740 0.83420 0.33600
C 	C 	0.37510 0.36360 0.88170 0.31000
C 	C 	0.31750 0.34210 0.92560 -0.89400
C 	C 	0.50610 0.38020 0.04710 0.44400
C 	C 	0.51180 0.31320 0.07580 -0.20000
C 	C 	0.52810 0.31270 0.12930 0.11000
C 	C 	0.38550 0.41530 0.66040 0.44200
C 	C 	0.35950 0.45670 0.61060 -0.17700
C 	C 	0.42190 0.49730 0.58290 0.08500
C 	C 	0.39500 0.52780 0.53590 -0.17400
C 	C 	0.30990 0.52700 0.52050 0.10900
C 	C 	0.24970 0.48980 0.54800 -0.18600
C 	C 	0.27470 0.45510 0.59350 0.10800
C 	C 	0.15800 0.48820 0.53060 0.42100
C 	C 	0.16770 0.37870 0.79450 -0.86700
C 	C 	0.14000 0.30470 0.79130 0.29300
C 	C 	0.96580 0.75000 0.65710 -0.18300
C 	C 	0.99540 0.75000 0.54930 0.13400
C 	C 	0.53420 0.25000 0.15710 -0.18000
C 	C 	0.50460 0.25000 0.04930 0.12600
C 	C 	0.03420 0.25000 0.34290 -0.18300
C 	C 	0.00460 0.25000 0.45070 0.13400
C 	C 	0.46580 0.75000 0.84290 -0.18000
C 	C 	0.49540 0.75000 0.95070 0.12600
N 	N 	0.06750 0.86930 0.30332 -0.31300
N 	N 	0.12680 0.83440 0.33405 -0.32000
N 	N 	0.06640 0.91540 0.38340 -0.34700
N 	N 	0.44050 0.78530 0.28110 -0.29800
N 	N 	0.43250 0.13070 0.80332 -0.31500
N 	N 	0.37320 0.16560 0.83405 -0.32000
N 	N 	0.43360 0.08460 0.88340 -0.34900
N 	N 	0.05950 0.21470 0.78110 -0.29700
N 	N 	0.93250 0.36930 0.69668 -0.31500
N 	N 	0.87320 0.33440 0.66595 -0.32000
N 	N 	0.93360 0.41540 0.61660 -0.34800
N 	N 	0.55950 0.28530 0.71890 -0.29800
N 	N 	0.56750 0.63070 0.19668 -0.31500
N 	N 	0.62680 0.66560 0.16595 -0.32000
N 	N 	0.56640 0.58460 0.11660 -0.34900
N 	N 	0.94050 0.71470 0.21890 -0.29700
N 	N 	0.93250 0.13070 0.69668 -0.31300
N 	N 	0.87320 0.16560 0.66595 -0.32000
N 	N 	0.93360 0.08460 0.61660 -0.34700
N 	N 	0.55950 0.21470 0.71890 -0.29800
N 	N 	0.56750 0.86930 0.19668 -0.31500
N 	N 	0.62680 0.83440 0.16595 -0.32000
N 	N 	0.56640 0.91540 0.11660 -0.34900
N 	N 	0.94050 0.78530 0.21890 -0.29700
N 	N 	0.06750 0.63070 0.30332 -0.31500
N 	N 	0.12680 0.66560 0.33405 -0.32000
N 	N 	0.06640 0.58460 0.38340 -0.34800
N 	N 	0.44050 0.71470 0.28110 -0.29800
N 	N 	0.43250 0.36930 0.80332 -0.31500
N 	N 	0.37320 0.33440 0.83405 -0.32000
N 	N 	0.43360 0.41540 0.88340 -0.34900
N 	N 	0.05950 0.28530 0.78110 -0.29700
N 	N 	0.30820 0.75000 0.29800 -0.39900
N 	N 	0.19180 0.25000 0.79800 -0.39900
N 	N 	0.69180 0.25000 0.70200 -0.39900
N 	N 	0.80820 0.75000 0.20200 -0.39900
O 	O 	0.01240 0.87930 0.49940 -0.49200
O 	O 	0.97950 0.93360 0.57390 -0.49200
O 	O 	0.39530 0.96020 0.06140 -0.47400
O 	O 	0.35910 0.01630 0.98704 -0.48800
O 	O 	0.16710 0.88900 0.18680 -0.48300
O 	O 	0.03920 0.91330 0.17180 -0.51500
O 	O 	0.48760 0.12070 0.99940 -0.48800
O 	O 	0.52050 0.06640 0.07390 -0.49400
O 	O 	0.10470 0.03980 0.56140 -0.47300
O 	O 	0.14090 0.98370 0.48704 -0.49300
O 	O 	0.33290 0.11100 0.68680 -0.48300
O 	O 	0.46080 0.08670 0.67180 -0.51400
O 	O 	0.98760 0.37930 0.50060 -0.49000
O 	O 	0.02050 0.43360 0.42610 -0.49400
O 	O 	0.60470 0.46020 0.93860 -0.47500
O 	O 	0.64090 0.51630 0.01296 -0.49000
O 	O 	0.83290 0.38900 0.81320 -0.48300
O 	O 	0.96080 0.41330 0.82820 -0.51500
O 	O 	0.51240 0.62070 0.00060 -0.48900
O 	O 	0.47950 0.56640 0.92610 -0.49300
O 	O 	0.89530 0.53980 0.43860 -0.47400
O 	O 	0.85910 0.48370 0.51296 -0.49000
O 	O 	0.66710 0.61100 0.31320 -0.48300
O 	O 	0.53920 0.58670 0.32820 -0.51400
O 	O 	0.98760 0.12070 0.50060 -0.49200
O 	O 	0.02050 0.06640 0.42610 -0.49200
O 	O 	0.60470 0.03980 0.93860 -0.47400
O 	O 	0.64090 0.98370 0.01296 -0.48800
O 	O 	0.83290 0.11100 0.81320 -0.48300
O 	O 	0.96080 0.08670 0.82820 -0.51500
O 	O 	0.51240 0.87930 0.00060 -0.48800
O 	O 	0.47950 0.93360 0.92610 -0.49400
O 	O 	0.89530 0.96020 0.43860 -0.47300
O 	O 	0.85910 0.01630 0.51296 -0.49300
O 	O 	0.66710 0.88900 0.31320 -0.48300
O 	O 	0.53920 0.91330 0.32820 -0.51400
O 	O 	0.01240 0.62070 0.49940 -0.49000
O 	O 	0.97950 0.56640 0.57390 -0.49400
O 	O 	0.39530 0.53980 0.06140 -0.47500
O 	O 	0.35910 0.48370 0.98704 -0.49000
O 	O 	0.16710 0.61100 0.18680 -0.48300
O 	O 	0.03920 0.58670 0.17180 -0.51500
O 	O 	0.48760 0.37930 0.99940 -0.48900
O 	O 	0.52050 0.43360 0.07390 -0.49300
O 	O 	0.10470 0.46020 0.56140 -0.47400
O 	O 	0.14090 0.51630 0.48704 -0.49000
O 	O 	0.33290 0.38900 0.68680 -0.48300
O 	O 	0.46080 0.41330 0.67180 -0.51400
O 	O 	0.12510 0.75000 0.23370 -0.89200
O 	O 	0.37490 0.25000 0.73370 -0.89200
O 	O 	0.87490 0.25000 0.76630 -0.89200
O 	O 	0.62510 0.75000 0.26630 -0.89200
