data_crystal

_cell_length_a 15.58500
_cell_length_b 19.23700
_cell_length_c 25.30500
_cell_angle_alpha 90.00000
_cell_angle_beta  90.00000
_cell_angle_gamma 90.00000

_symmetry_space_group_name_	'P 1'
_symmetry_space_group_name_H-M	'P 1'

loop_
_symmetry_equiv_pos_as_xyz
  x,y,z

loop_
_atom_site_label
_atom_site_type_symbol
_atom_site_fract_x
_atom_site_fract_y
_atom_site_fract_z
_atom_site_charge
Zn	Zn	0.55378 0.33754 0.22887 1.18700
Zn	Zn	0.52841 0.46438 0.45049 1.21600
Zn	Zn	0.94622 0.66246 0.72887 1.18700
Zn	Zn	0.97159 0.53562 0.95049 1.21600
Zn	Zn	0.44622 0.83754 0.77113 1.18800
Zn	Zn	0.47159 0.96438 0.54951 1.21700
Zn	Zn	0.05378 0.16246 0.27113 1.18700
Zn	Zn	0.02841 0.03562 0.04951 1.21500
Zn	Zn	0.44622 0.66246 0.77113 1.18800
Zn	Zn	0.47159 0.53562 0.54951 1.21700
Zn	Zn	0.05378 0.33754 0.27113 1.18700
Zn	Zn	0.02841 0.46438 0.04951 1.21600
Zn	Zn	0.55378 0.16246 0.22887 1.18800
Zn	Zn	0.52841 0.03562 0.45049 1.21700
Zn	Zn	0.94622 0.83754 0.72887 1.18700
Zn	Zn	0.97159 0.96438 0.95049 1.21500
Zn	Zn	0.68421 0.25000 0.30386 1.17200
Zn	Zn	0.81579 0.75000 0.80386 1.17200
Zn	Zn	0.31579 0.75000 0.69614 1.17200
Zn	Zn	0.18421 0.25000 0.19614 1.17200
H 	H 	0.51700 0.54910 0.00560 0.23100
H 	H 	0.65300 0.31550 0.45070 0.28100
H 	H 	0.73160 0.31640 0.41200 0.24400
H 	H 	0.70650 0.38380 0.44320 0.29000
H 	H 	0.41360 0.44690 0.32040 0.28800
H 	H 	0.47180 0.50880 0.33870 0.30100
H 	H 	0.47940 0.48000 0.28090 0.27400
H 	H 	0.46630 0.35570 0.64710 0.09400
H 	H 	0.71310 0.55870 0.99870 0.08900
H 	H 	0.53150 0.50640 0.10410 0.10000
H 	H 	0.77020 0.43220 0.11700 0.04900
H 	H 	0.80330 0.38670 0.32450 0.26000
H 	H 	0.88310 0.40830 0.29050 0.26100
H 	H 	0.79630 0.38950 0.26270 0.26700
H 	H 	0.98300 0.45090 0.50560 0.23100
H 	H 	0.84700 0.68450 0.95070 0.28000
H 	H 	0.76840 0.68360 0.91200 0.24400
H 	H 	0.79350 0.61620 0.94320 0.29000
H 	H 	0.08640 0.55310 0.82040 0.28700
H 	H 	0.02820 0.49120 0.83870 0.30000
H 	H 	0.02060 0.52000 0.78090 0.27300
H 	H 	0.03370 0.64430 0.14710 0.09400
H 	H 	0.78690 0.44130 0.49870 0.09100
H 	H 	0.96850 0.49360 0.60410 0.10000
H 	H 	0.72980 0.56780 0.61700 0.04900
H 	H 	0.69670 0.61330 0.82450 0.26000
H 	H 	0.61690 0.59170 0.79050 0.26100
H 	H 	0.70370 0.61050 0.76270 0.26700
H 	H 	0.48300 0.04910 0.99440 0.23100
H 	H 	0.34700 0.81550 0.54930 0.28100
H 	H 	0.26840 0.81640 0.58800 0.24500
H 	H 	0.29350 0.88380 0.55680 0.29000
H 	H 	0.58640 0.94690 0.67960 0.28800
H 	H 	0.52820 0.00880 0.66130 0.30200
H 	H 	0.52060 0.98000 0.71910 0.27400
H 	H 	0.53370 0.85570 0.35290 0.09400
H 	H 	0.28690 0.05870 0.00130 0.09000
H 	H 	0.46850 0.00640 0.89590 0.10200
H 	H 	0.22980 0.93220 0.88300 0.05000
H 	H 	0.19670 0.88670 0.67550 0.26100
H 	H 	0.11690 0.90830 0.70950 0.26300
H 	H 	0.20370 0.88950 0.73730 0.26800
H 	H 	0.01700 0.95090 0.49440 0.23100
H 	H 	0.15300 0.18450 0.04930 0.28000
H 	H 	0.23160 0.18360 0.08800 0.24400
H 	H 	0.20650 0.11620 0.05680 0.28900
H 	H 	0.91360 0.05310 0.17960 0.27800
H 	H 	0.97180 0.99120 0.16130 0.28800
H 	H 	0.97940 0.02000 0.21910 0.26500
H 	H 	0.96630 0.14430 0.85290 0.09500
H 	H 	0.21310 0.94130 0.50130 0.08800
H 	H 	0.03150 0.99360 0.39590 0.09800
H 	H 	0.27020 0.06780 0.38300 0.04600
H 	H 	0.30330 0.11330 0.17550 0.26000
H 	H 	0.38310 0.09170 0.20950 0.26000
H 	H 	0.29630 0.11050 0.23730 0.26700
H 	H 	0.48300 0.45090 0.99440 0.23100
H 	H 	0.34700 0.68450 0.54930 0.28100
H 	H 	0.26840 0.68360 0.58800 0.24400
H 	H 	0.29350 0.61620 0.55680 0.29000
H 	H 	0.58640 0.55310 0.67960 0.28800
H 	H 	0.52820 0.49120 0.66130 0.30100
H 	H 	0.52060 0.52000 0.71910 0.27400
H 	H 	0.53370 0.64430 0.35290 0.09400
H 	H 	0.28690 0.44130 0.00130 0.08900
H 	H 	0.46850 0.49360 0.89590 0.10000
H 	H 	0.22980 0.56780 0.88300 0.04900
H 	H 	0.19670 0.61330 0.67550 0.26000
H 	H 	0.11690 0.59170 0.70950 0.26100
H 	H 	0.20370 0.61050 0.73730 0.26700
H 	H 	0.01700 0.54910 0.49440 0.23100
H 	H 	0.15300 0.31550 0.04930 0.28000
H 	H 	0.23160 0.31640 0.08800 0.24400
H 	H 	0.20650 0.38380 0.05680 0.29000
H 	H 	0.91360 0.44690 0.17960 0.28700
H 	H 	0.97180 0.50880 0.16130 0.30000
H 	H 	0.97940 0.48000 0.21910 0.27300
H 	H 	0.96630 0.35570 0.85290 0.09400
H 	H 	0.21310 0.55870 0.50130 0.09100
H 	H 	0.03150 0.50640 0.39590 0.10000
H 	H 	0.27020 0.43220 0.38300 0.04900
H 	H 	0.30330 0.38670 0.17550 0.26000
H 	H 	0.38310 0.40830 0.20950 0.26100
H 	H 	0.29630 0.38950 0.23730 0.26700
H 	H 	0.51700 0.95090 0.00560 0.23100
H 	H 	0.65300 0.18450 0.45070 0.28100
H 	H 	0.73160 0.18360 0.41200 0.24500
H 	H 	0.70650 0.11620 0.44320 0.29000
H 	H 	0.41360 0.05310 0.32040 0.28800
H 	H 	0.47180 0.99120 0.33870 0.30200
H 	H 	0.47940 0.02000 0.28090 0.27400
H 	H 	0.46630 0.14430 0.64710 0.09400
H 	H 	0.71310 0.94130 0.99870 0.09000
H 	H 	0.53150 0.99360 0.10410 0.10200
H 	H 	0.77020 0.06780 0.11700 0.05000
H 	H 	0.80330 0.11330 0.32450 0.26100
H 	H 	0.88310 0.09170 0.29050 0.26300
H 	H 	0.79630 0.11050 0.26270 0.26800
H 	H 	0.98300 0.04910 0.50560 0.23100
H 	H 	0.84700 0.81550 0.95070 0.28000
H 	H 	0.76840 0.81640 0.91200 0.24400
H 	H 	0.79350 0.88380 0.94320 0.28900
H 	H 	0.08640 0.94690 0.82040 0.27800
H 	H 	0.02820 0.00880 0.83870 0.28800
H 	H 	0.02060 0.98000 0.78090 0.26500
H 	H 	0.03370 0.85570 0.14710 0.09500
H 	H 	0.78690 0.05870 0.49870 0.08800
H 	H 	0.96850 0.00640 0.60410 0.09800
H 	H 	0.72980 0.93220 0.61700 0.04600
H 	H 	0.69670 0.88670 0.82450 0.26000
H 	H 	0.61690 0.90830 0.79050 0.26000
H 	H 	0.70370 0.88950 0.76270 0.26700
H 	H 	0.66590 0.25000 0.20990 0.22500
H 	H 	0.48520 0.25000 0.73850 0.20500
H 	H 	0.50830 0.25000 0.51240 0.04400
H 	H 	0.83410 0.75000 0.70990 0.22500
H 	H 	0.01480 0.75000 0.23850 0.20500
H 	H 	0.99170 0.75000 0.01240 0.04300
H 	H 	0.33410 0.75000 0.79010 0.22500
H 	H 	0.51480 0.75000 0.26150 0.20500
H 	H 	0.49170 0.75000 0.48760 0.04400
H 	H 	0.16590 0.25000 0.29010 0.22500
H 	H 	0.98520 0.25000 0.76150 0.20500
H 	H 	0.00830 0.25000 0.98760 0.04300
C 	C 	0.68460 0.34310 0.42580 -0.89100
C 	C 	0.62730 0.36430 0.38190 0.30900
C 	C 	0.53560 0.41780 0.33490 0.32900
C 	C 	0.46930 0.46780 0.31720 -0.92200
C 	C 	0.49290 0.38020 0.54660 0.37300
C 	C 	0.48880 0.31320 0.57450 -0.05300
C 	C 	0.47450 0.31390 0.62940 -0.14300
C 	C 	0.84470 0.48920 0.03350 0.38100
C 	C 	0.75490 0.49540 0.05380 -0.03500
C 	C 	0.69700 0.53340 0.02850 -0.15500
C 	C 	0.61470 0.53600 0.04540 0.23000
C 	C 	0.58710 0.50170 0.09130 -0.16100
C 	C 	0.64720 0.46090 0.11620 -0.03000
C 	C 	0.72990 0.45860 0.09870 -0.03200
C 	C 	0.62060 0.41850 0.16360 0.33600
C 	C 	0.83340 0.37890 0.29190 -0.88000
C 	C 	0.86040 0.30500 0.28880 0.29400
C 	C 	0.81540 0.65690 0.92580 -0.89000
C 	C 	0.87270 0.63570 0.88190 0.30900
C 	C 	0.96440 0.58220 0.83490 0.32700
C 	C 	0.03070 0.53220 0.81720 -0.91600
C 	C 	0.00710 0.61980 0.04660 0.37500
C 	C 	0.01120 0.68680 0.07450 -0.05400
C 	C 	0.02550 0.68610 0.12940 -0.14200
C 	C 	0.65530 0.51080 0.53350 0.37900
C 	C 	0.74510 0.50460 0.55380 -0.03400
C 	C 	0.80300 0.46660 0.52850 -0.15900
C 	C 	0.88530 0.46400 0.54540 0.23200
C 	C 	0.91290 0.49830 0.59130 -0.16200
C 	C 	0.85280 0.53910 0.61620 -0.02900
C 	C 	0.77010 0.54140 0.59870 -0.03400
C 	C 	0.87940 0.58150 0.66360 0.33500
C 	C 	0.66660 0.62110 0.79190 -0.87900
C 	C 	0.63960 0.69500 0.78880 0.29300
C 	C 	0.31540 0.84310 0.57420 -0.89200
C 	C 	0.37270 0.86430 0.61810 0.30900
C 	C 	0.46440 0.91780 0.66510 0.33000
C 	C 	0.53070 0.96780 0.68280 -0.92300
C 	C 	0.50710 0.88020 0.45340 0.37300
C 	C 	0.51120 0.81320 0.42550 -0.05300
C 	C 	0.52550 0.81390 0.37060 -0.14300
C 	C 	0.15530 0.98920 0.96650 0.38300
C 	C 	0.24510 0.99540 0.94620 -0.03100
C 	C 	0.30300 0.03340 0.97150 -0.16100
C 	C 	0.38530 0.03600 0.95460 0.23300
C 	C 	0.41290 0.00170 0.90870 -0.16500
C 	C 	0.35280 0.96090 0.88380 -0.02700
C 	C 	0.27010 0.95860 0.90130 -0.03500
C 	C 	0.37940 0.91850 0.83640 0.33500
C 	C 	0.16660 0.87890 0.70810 -0.88200
C 	C 	0.13960 0.80500 0.71120 0.29500
C 	C 	0.18460 0.15690 0.07420 -0.89000
C 	C 	0.12730 0.13570 0.11810 0.30900
C 	C 	0.03560 0.08220 0.16510 0.31600
C 	C 	0.96930 0.03220 0.18280 -0.88500
C 	C 	0.99290 0.11980 0.95340 0.37700
C 	C 	0.98880 0.18680 0.92550 -0.05400
C 	C 	0.97450 0.18610 0.87060 -0.14200
C 	C 	0.34470 0.01080 0.46650 0.38000
C 	C 	0.25490 0.00460 0.44620 -0.04200
C 	C 	0.19700 0.96660 0.47150 -0.14900
C 	C 	0.11470 0.96400 0.45460 0.22600
C 	C 	0.08710 0.99830 0.40870 -0.15200
C 	C 	0.14720 0.03910 0.38380 -0.03900
C 	C 	0.22990 0.04140 0.40130 -0.02700
C 	C 	0.12060 0.08150 0.33640 0.33800
C 	C 	0.33340 0.12110 0.20810 -0.87900
C 	C 	0.36040 0.19500 0.21120 0.29300
C 	C 	0.31540 0.65690 0.57420 -0.89100
C 	C 	0.37270 0.63570 0.61810 0.30900
C 	C 	0.46440 0.58220 0.66510 0.32900
C 	C 	0.53070 0.53220 0.68280 -0.92200
C 	C 	0.50710 0.61980 0.45340 0.37300
C 	C 	0.51120 0.68680 0.42550 -0.05300
C 	C 	0.52550 0.68610 0.37060 -0.14300
C 	C 	0.15530 0.51080 0.96650 0.38100
C 	C 	0.24510 0.50460 0.94620 -0.03500
C 	C 	0.30300 0.46660 0.97150 -0.15500
C 	C 	0.38530 0.46400 0.95460 0.23000
C 	C 	0.41290 0.49830 0.90870 -0.16100
C 	C 	0.35280 0.53910 0.88380 -0.03000
C 	C 	0.27010 0.54140 0.90130 -0.03200
C 	C 	0.37940 0.58150 0.83640 0.33600
C 	C 	0.16660 0.62110 0.70810 -0.88000
C 	C 	0.13960 0.69500 0.71120 0.29400
C 	C 	0.18460 0.34310 0.07420 -0.89000
C 	C 	0.12730 0.36430 0.11810 0.30900
C 	C 	0.03560 0.41780 0.16510 0.32700
C 	C 	0.96930 0.46780 0.18280 -0.91600
C 	C 	0.99290 0.38020 0.95340 0.37500
C 	C 	0.98880 0.31320 0.92550 -0.05400
C 	C 	0.97450 0.31390 0.87060 -0.14200
C 	C 	0.34470 0.48920 0.46650 0.37900
C 	C 	0.25490 0.49540 0.44620 -0.03400
C 	C 	0.19700 0.53340 0.47150 -0.15900
C 	C 	0.11470 0.53600 0.45460 0.23200
C 	C 	0.08710 0.50170 0.40870 -0.16200
C 	C 	0.14720 0.46090 0.38380 -0.02900
C 	C 	0.22990 0.45860 0.40130 -0.03400
C 	C 	0.12060 0.41850 0.33640 0.33500
C 	C 	0.33340 0.37890 0.20810 -0.87900
C 	C 	0.36040 0.30500 0.21120 0.29300
C 	C 	0.68460 0.15690 0.42580 -0.89200
C 	C 	0.62730 0.13570 0.38190 0.30900
C 	C 	0.53560 0.08220 0.33490 0.33000
C 	C 	0.46930 0.03220 0.31720 -0.92300
C 	C 	0.49290 0.11980 0.54660 0.37300
C 	C 	0.48880 0.18680 0.57450 -0.05300
C 	C 	0.47450 0.18610 0.62940 -0.14300
C 	C 	0.84470 0.01080 0.03350 0.38300
C 	C 	0.75490 0.00460 0.05380 -0.03100
C 	C 	0.69700 0.96660 0.02850 -0.16100
C 	C 	0.61470 0.96400 0.04540 0.23300
C 	C 	0.58710 0.99830 0.09130 -0.16500
C 	C 	0.64720 0.03910 0.11620 -0.02700
C 	C 	0.72990 0.04140 0.09870 -0.03500
C 	C 	0.62060 0.08150 0.16360 0.33500
C 	C 	0.83340 0.12110 0.29190 -0.88200
C 	C 	0.86040 0.19500 0.28880 0.29500
C 	C 	0.81540 0.84310 0.92580 -0.89000
C 	C 	0.87270 0.86430 0.88190 0.30900
C 	C 	0.96440 0.91780 0.83490 0.31600
C 	C 	0.03070 0.96780 0.81720 -0.88500
C 	C 	0.00710 0.88020 0.04660 0.37700
C 	C 	0.01120 0.81320 0.07450 -0.05400
C 	C 	0.02550 0.81390 0.12940 -0.14200
C 	C 	0.65530 0.98920 0.53350 0.38000
C 	C 	0.74510 0.99540 0.55380 -0.04200
C 	C 	0.80300 0.03340 0.52850 -0.14900
C 	C 	0.88530 0.03600 0.54540 0.22600
C 	C 	0.91290 0.00170 0.59130 -0.15200
C 	C 	0.85280 0.96090 0.61620 -0.03900
C 	C 	0.77010 0.95860 0.59870 -0.02700
C 	C 	0.87940 0.91850 0.66360 0.33800
C 	C 	0.66660 0.87890 0.79190 -0.87900
C 	C 	0.63960 0.80500 0.78880 0.29300
C 	C 	0.49700 0.25000 0.54850 -0.00800
C 	C 	0.47300 0.25000 0.65740 0.24300
C 	C 	0.00300 0.75000 0.04850 -0.00700
C 	C 	0.02700 0.75000 0.15740 0.24300
C 	C 	0.50300 0.75000 0.45150 -0.00800
C 	C 	0.52700 0.75000 0.34260 0.24300
C 	C 	0.99700 0.25000 0.95150 -0.00700
C 	C 	0.97300 0.25000 0.84260 0.24300
N 	N 	0.62870 0.33460 0.33430 -0.31600
N 	N 	0.57010 0.36950 0.30430 -0.30900
N 	N 	0.56910 0.41540 0.38390 -0.34800
N 	N 	0.94090 0.28520 0.27880 -0.29700
N 	N 	0.87130 0.66540 0.83430 -0.31600
N 	N 	0.92990 0.63050 0.80430 -0.30900
N 	N 	0.93090 0.58460 0.88390 -0.34700
N 	N 	0.55910 0.71480 0.77880 -0.29800
N 	N 	0.37130 0.83460 0.66570 -0.31600
N 	N 	0.42990 0.86950 0.69570 -0.30900
N 	N 	0.43090 0.91540 0.61610 -0.34800
N 	N 	0.05910 0.78520 0.72120 -0.29700
N 	N 	0.12870 0.16540 0.16570 -0.31600
N 	N 	0.07010 0.13050 0.19570 -0.30700
N 	N 	0.06910 0.08460 0.11610 -0.34600
N 	N 	0.44090 0.21480 0.22120 -0.29800
N 	N 	0.37130 0.66540 0.66570 -0.31600
N 	N 	0.42990 0.63050 0.69570 -0.30900
N 	N 	0.43090 0.58460 0.61610 -0.34800
N 	N 	0.05910 0.71480 0.72120 -0.29700
N 	N 	0.12870 0.33460 0.16570 -0.31600
N 	N 	0.07010 0.36950 0.19570 -0.30900
N 	N 	0.06910 0.41540 0.11610 -0.34700
N 	N 	0.44090 0.28520 0.22120 -0.29800
N 	N 	0.62870 0.16540 0.33430 -0.31600
N 	N 	0.57010 0.13050 0.30430 -0.30900
N 	N 	0.56910 0.08460 0.38390 -0.34800
N 	N 	0.94090 0.21480 0.27880 -0.29700
N 	N 	0.87130 0.83460 0.83430 -0.31600
N 	N 	0.92990 0.86950 0.80430 -0.30700
N 	N 	0.93090 0.91540 0.88390 -0.34600
N 	N 	0.55910 0.78520 0.77880 -0.29800
N 	N 	0.80900 0.25000 0.29610 -0.39700
N 	N 	0.69100 0.75000 0.79610 -0.39600
N 	N 	0.19100 0.75000 0.70390 -0.39700
N 	N 	0.30900 0.25000 0.20390 -0.39600
O 	O 	0.51550 0.37890 0.49830 -0.45900
O 	O 	0.47580 0.43400 0.57190 -0.47600
O 	O 	0.89940 0.46170 0.06210 -0.47100
O 	O 	0.85950 0.51740 0.98960 -0.47900
O 	O 	0.67490 0.39470 0.19290 -0.42600
O 	O 	0.54350 0.41060 0.17290 -0.48500
O 	O 	0.55290 0.57520 0.01850 -0.41500
O 	O 	0.98450 0.62110 0.99830 -0.46100
O 	O 	0.02420 0.56600 0.07190 -0.47700
O 	O 	0.60060 0.53830 0.56210 -0.47200
O 	O 	0.64050 0.48260 0.48960 -0.47800
O 	O 	0.82510 0.60530 0.69290 -0.42600
O 	O 	0.95650 0.58940 0.67290 -0.48500
O 	O 	0.94710 0.42480 0.51850 -0.41500
O 	O 	0.48450 0.87890 0.50170 -0.45900
O 	O 	0.52420 0.93400 0.42810 -0.47600
O 	O 	0.10060 0.96170 0.93790 -0.47000
O 	O 	0.14050 0.01740 0.01040 -0.48200
O 	O 	0.32510 0.89470 0.80710 -0.42500
O 	O 	0.45650 0.91060 0.82710 -0.48400
O 	O 	0.44710 0.07520 0.98150 -0.41600
O 	O 	0.01550 0.12110 0.00170 -0.46300
O 	O 	0.97580 0.06600 0.92810 -0.47500
O 	O 	0.39940 0.03830 0.43790 -0.47200
O 	O 	0.35950 0.98260 0.51040 -0.47700
O 	O 	0.17490 0.10530 0.30710 -0.42700
O 	O 	0.04350 0.08940 0.32710 -0.48700
O 	O 	0.05290 0.92480 0.48150 -0.41300
O 	O 	0.48450 0.62110 0.50170 -0.45900
O 	O 	0.52420 0.56600 0.42810 -0.47600
O 	O 	0.10060 0.53830 0.93790 -0.47100
O 	O 	0.14050 0.48260 0.01040 -0.47900
O 	O 	0.32510 0.60530 0.80710 -0.42600
O 	O 	0.45650 0.58940 0.82710 -0.48500
O 	O 	0.44710 0.42480 0.98150 -0.41500
O 	O 	0.01550 0.37890 0.00170 -0.46100
O 	O 	0.97580 0.43400 0.92810 -0.47700
O 	O 	0.39940 0.46170 0.43790 -0.47200
O 	O 	0.35950 0.51740 0.51040 -0.47800
O 	O 	0.17490 0.39470 0.30710 -0.42600
O 	O 	0.04350 0.41060 0.32710 -0.48500
O 	O 	0.05290 0.57520 0.48150 -0.41500
O 	O 	0.51550 0.12110 0.49830 -0.45900
O 	O 	0.47580 0.06600 0.57190 -0.47600
O 	O 	0.89940 0.03830 0.06210 -0.47000
O 	O 	0.85950 0.98260 0.98960 -0.48200
O 	O 	0.67490 0.10530 0.19290 -0.42500
O 	O 	0.54350 0.08940 0.17290 -0.48400
O 	O 	0.55290 0.92480 0.01850 -0.41600
O 	O 	0.98450 0.87890 0.99830 -0.46300
O 	O 	0.02420 0.93400 0.07190 -0.47500
O 	O 	0.60060 0.96170 0.56210 -0.47200
O 	O 	0.64050 0.01740 0.48960 -0.47700
O 	O 	0.82510 0.89470 0.69290 -0.42700
O 	O 	0.95650 0.91060 0.67290 -0.48700
O 	O 	0.94710 0.07520 0.51850 -0.41300
O 	O 	0.62480 0.25000 0.23480 -0.89500
O 	O 	0.45460 0.25000 0.70880 -0.38800
O 	O 	0.87520 0.75000 0.73480 -0.89600
O 	O 	0.04540 0.75000 0.20880 -0.38700
O 	O 	0.37520 0.75000 0.76520 -0.89500
O 	O 	0.54540 0.75000 0.29120 -0.38800
O 	O 	0.12480 0.25000 0.26520 -0.89600
O 	O 	0.95460 0.25000 0.79120 -0.38700
