data_crystal

_cell_length_a 10.76660
_cell_length_b 16.46200
_cell_length_c 17.91200
_cell_angle_alpha 90.00000
_cell_angle_beta  91.09800
_cell_angle_gamma 90.00000

_symmetry_space_group_name_	'P 1'
_symmetry_space_group_name_H-M	'P 1'

loop_
_symmetry_equiv_pos_as_xyz
  x,y,z

loop_
_atom_site_label
_atom_site_type_symbol
_atom_site_fract_x
_atom_site_fract_y
_atom_site_fract_z
_atom_site_charge
Zn	Zn	0.07851 0.55672 0.91113 1.23600
Zn	Zn	0.61572 0.54334 0.91616 1.23500
P 	P 	0.85449 0.43135 0.91450 0.45300
P 	P 	0.15533 0.95375 0.59053 0.45100
O 	O 	0.71430 0.44564 0.91528 -0.44400
O 	O 	0.92250 0.50580 0.88810 -0.47100
O 	O 	0.90310 0.39830 0.98881 -0.44900
O 	O 	0.85950 0.13910 0.64621 -0.42500
O 	O 	0.91430 0.06860 0.74530 -0.29800
O 	O 	0.95390 0.71020 0.86920 -0.28700
O 	O 	0.11890 0.64100 0.83677 -0.42200
O 	O 	0.06350 0.02364 0.59699 -0.43800
O 	O 	0.28800 0.97970 0.60300 -0.44100
O 	O 	0.13560 0.90749 0.51658 -0.42700
C 	C 	0.87390 0.34830 0.84980 -0.04500
C 	C 	0.96530 0.28940 0.86310 -0.02200
H 	H 	0.02320 0.29690 0.90160 0.05100
C 	C 	0.97040 0.22040 0.81960 -0.01900
H 	H 	0.02910 0.18050 0.83040 0.05400
C 	C 	0.88770 0.21060 0.75960 -0.05300
C 	C 	0.80050 0.27040 0.74390 -0.02400
H 	H 	0.74720 0.26550 0.70270 0.07000
C 	C 	0.79340 0.33810 0.79050 -0.01800
H 	H 	0.73250 0.37710 0.78120 0.05000
C 	C 	0.88890 0.13300 0.71560 0.33400
C 	C 	0.12440 0.88000 0.66280 -0.04600
C 	C 	0.04310 0.89670 0.71980 -0.03000
H 	H 	0.00390 0.94700 0.72150 0.05400
C 	C 	0.01950 0.83970 0.77390 -0.02800
H 	H 	0.96410 0.85180 0.81150 0.06400
C 	C 	0.07740 0.76440 0.77310 -0.05300
C 	C 	0.16150 0.74880 0.71810 -0.02000
H 	H 	0.20460 0.69980 0.71850 0.05900
C 	C 	0.18290 0.80490 0.66200 -0.02300
H 	H 	0.23670 0.79210 0.62370 0.05300
C 	C 	0.04610 0.70180 0.83130 0.32300
Zn	Zn	0.42149 0.05672 0.58887 1.23600
Zn	Zn	0.88428 0.04334 0.58384 1.23300
P 	P 	0.64551 0.93135 0.58550 0.45100
P 	P 	0.34467 0.45375 0.90947 0.45100
O 	O 	0.78570 0.94564 0.58472 -0.44400
O 	O 	0.57750 0.00580 0.61190 -0.47400
O 	O 	0.59690 0.89830 0.51119 -0.45000
O 	O 	0.64050 0.63910 0.85379 -0.42500
O 	O 	0.58570 0.56860 0.75470 -0.29900
O 	O 	0.54610 0.21020 0.63080 -0.29300
O 	O 	0.38110 0.14100 0.66323 -0.42300
O 	O 	0.43650 0.52364 0.90301 -0.44100
O 	O 	0.21200 0.47970 0.89700 -0.44100
O 	O 	0.36440 0.40749 0.98342 -0.42700
C 	C 	0.62610 0.84830 0.65020 -0.04300
C 	C 	0.53470 0.78940 0.63690 -0.02800
H 	H 	0.47680 0.79690 0.59840 0.05400
C 	C 	0.52960 0.72040 0.68040 -0.01700
H 	H 	0.47090 0.68050 0.66960 0.05400
C 	C 	0.61230 0.71060 0.74040 -0.05400
C 	C 	0.69950 0.77040 0.75610 -0.02200
H 	H 	0.75280 0.76550 0.79730 0.07000
C 	C 	0.70660 0.83810 0.70950 -0.02000
H 	H 	0.76750 0.87710 0.71880 0.05100
C 	C 	0.61110 0.63300 0.78440 0.33500
C 	C 	0.37560 0.38000 0.83720 -0.04000
C 	C 	0.45690 0.39670 0.78020 -0.04100
H 	H 	0.49610 0.44700 0.77850 0.05900
C 	C 	0.48050 0.33970 0.72610 -0.00800
H 	H 	0.53590 0.35180 0.68850 0.05400
C 	C 	0.42260 0.26440 0.72690 -0.06300
C 	C 	0.33850 0.24880 0.78190 -0.01200
H 	H 	0.29540 0.19980 0.78150 0.05700
C 	C 	0.31710 0.30490 0.83800 -0.02900
H 	H 	0.26330 0.29210 0.87630 0.05500
C 	C 	0.45390 0.20180 0.66870 0.33300
Zn	Zn	0.92149 0.44328 0.08887 1.23500
Zn	Zn	0.38428 0.45666 0.08384 1.23400
P 	P 	0.14551 0.56865 0.08550 0.45200
P 	P 	0.84467 0.04625 0.40947 0.45000
O 	O 	0.28570 0.55436 0.08472 -0.44500
O 	O 	0.07750 0.49420 0.11190 -0.47200
O 	O 	0.09690 0.60170 0.01119 -0.44900
O 	O 	0.14050 0.86090 0.35379 -0.42500
O 	O 	0.08570 0.93140 0.25470 -0.29800
O 	O 	0.04610 0.28980 0.13080 -0.28700
O 	O 	0.88110 0.35900 0.16323 -0.42200
O 	O 	0.93650 0.97636 0.40301 -0.43800
O 	O 	0.71200 0.02030 0.39700 -0.44100
O 	O 	0.86440 0.09251 0.48342 -0.42700
C 	C 	0.12610 0.65170 0.15020 -0.04500
C 	C 	0.03470 0.71060 0.13690 -0.02200
H 	H 	0.97680 0.70310 0.09840 0.05100
C 	C 	0.02960 0.77960 0.18040 -0.01900
H 	H 	0.97090 0.81950 0.16960 0.05400
C 	C 	0.11230 0.78940 0.24040 -0.05300
C 	C 	0.19950 0.72960 0.25610 -0.02400
H 	H 	0.25280 0.73450 0.29730 0.07000
C 	C 	0.20660 0.66190 0.20950 -0.01800
H 	H 	0.26750 0.62290 0.21880 0.05000
C 	C 	0.11110 0.86700 0.28440 0.33400
C 	C 	0.87560 0.12000 0.33720 -0.04600
C 	C 	0.95690 0.10330 0.28020 -0.03000
H 	H 	0.99610 0.05300 0.27850 0.05400
C 	C 	0.98050 0.16030 0.22610 -0.02800
H 	H 	0.03590 0.14820 0.18850 0.06400
C 	C 	0.92260 0.23560 0.22690 -0.05300
C 	C 	0.83850 0.25120 0.28190 -0.02000
H 	H 	0.79540 0.30020 0.28150 0.05900
C 	C 	0.81710 0.19510 0.33800 -0.02300
H 	H 	0.76330 0.20790 0.37630 0.05300
C 	C 	0.95390 0.29820 0.16870 0.32300
Zn	Zn	0.57851 0.94328 0.41113 1.23600
Zn	Zn	0.11572 0.95666 0.41616 1.23300
P 	P 	0.35449 0.06865 0.41450 0.45100
P 	P 	0.65533 0.54625 0.09053 0.45100
O 	O 	0.21430 0.05436 0.41528 -0.44400
O 	O 	0.42250 0.99420 0.38810 -0.47400
O 	O 	0.40310 0.10170 0.48881 -0.45000
O 	O 	0.35950 0.36090 0.14621 -0.42500
O 	O 	0.41430 0.43140 0.24530 -0.29900
O 	O 	0.45390 0.78980 0.36920 -0.29300
O 	O 	0.61890 0.85900 0.33677 -0.42300
O 	O 	0.56350 0.47636 0.09699 -0.44100
O 	O 	0.78800 0.52030 0.10300 -0.44100
O 	O 	0.63560 0.59251 0.01658 -0.42700
C 	C 	0.37390 0.15170 0.34980 -0.04300
C 	C 	0.46530 0.21060 0.36310 -0.02800
H 	H 	0.52320 0.20310 0.40160 0.05400
C 	C 	0.47040 0.27960 0.31960 -0.01700
H 	H 	0.52910 0.31950 0.33040 0.05400
C 	C 	0.38770 0.28940 0.25960 -0.05400
C 	C 	0.30050 0.22960 0.24390 -0.02200
H 	H 	0.24720 0.23450 0.20270 0.07000
C 	C 	0.29340 0.16190 0.29050 -0.02000
H 	H 	0.23250 0.12290 0.28120 0.05100
C 	C 	0.38890 0.36700 0.21560 0.33500
C 	C 	0.62440 0.62000 0.16280 -0.04000
C 	C 	0.54310 0.60330 0.21980 -0.04100
H 	H 	0.50390 0.55300 0.22150 0.05900
C 	C 	0.51950 0.66030 0.27390 -0.00800
H 	H 	0.46410 0.64820 0.31150 0.05400
C 	C 	0.57740 0.73560 0.27310 -0.06300
C 	C 	0.66150 0.75120 0.21810 -0.01200
H 	H 	0.70460 0.80020 0.21850 0.05700
C 	C 	0.68290 0.69510 0.16200 -0.02900
H 	H 	0.73670 0.70790 0.12370 0.05500
C 	C 	0.54610 0.79820 0.33130 0.33300
