data_crystal

_cell_length_a 20.93570
_cell_length_b 20.93570
_cell_length_c 34.81260
_cell_angle_alpha 90.00000
_cell_angle_beta  90.00000
_cell_angle_gamma 120.00000

_symmetry_space_group_name_	'P 1'
_symmetry_space_group_name_H-M	'P 1'

loop_
_symmetry_equiv_pos_as_xyz
  x,y,z

loop_
_atom_site_label
_atom_site_type_symbol
_atom_site_fract_x
_atom_site_fract_y
_atom_site_fract_z
_atom_site_charge
Al	Al	0.27673 0.07328 0.51482 2.40200
O 	O 	0.30910 0.10410 0.56894 -0.61100
C 	C 	0.32460 0.10150 0.64753 0.07900
O 	O 	0.35413 0.05828 0.51150 -0.59300
C 	C 	0.44070 0.94280 0.48560 0.08600
O 	O 	0.24980 0.02720 0.47231 -0.98600
C 	C 	0.27990 0.06070 0.43830 0.18400
N 	N 	0.32927 0.04213 0.62283 -0.07500
N 	N 	0.37140 0.87540 0.47120 -0.06600
Al	Al	0.94340 0.40661 0.84815 2.40200
O 	O 	0.97577 0.43743 0.90227 -0.60900
C 	C 	0.99127 0.43483 0.98086 0.08800
O 	O 	0.02080 0.39161 0.84483 -0.59400
C 	C 	0.10737 0.27613 0.81893 0.08000
O 	O 	0.91647 0.36053 0.80564 -0.98200
C 	C 	0.94657 0.39403 0.77163 0.18900
N 	N 	0.99594 0.37546 0.95616 -0.07200
N 	N 	0.03807 0.20873 0.80453 -0.06800
Al	Al	0.61006 0.73995 0.18149 2.40300
O 	O 	0.64243 0.77077 0.23561 -0.60800
C 	C 	0.65793 0.76817 0.31420 0.08100
O 	O 	0.68746 0.72495 0.17817 -0.59100
C 	C 	0.77403 0.60947 0.15227 0.08200
O 	O 	0.58313 0.69387 0.13898 -0.98200
C 	C 	0.61323 0.72737 0.10497 0.18800
N 	N 	0.66260 0.70880 0.28950 -0.07200
N 	N 	0.70473 0.54207 0.13787 -0.06500
Al	Al	0.92672 0.20345 0.51482 2.40300
O 	O 	0.89590 0.20500 0.56894 -0.60800
C 	C 	0.89850 0.22310 0.64753 0.08100
O 	O 	0.94172 0.29585 0.51150 -0.58700
C 	C 	0.05720 0.49790 0.48560 0.08300
O 	O 	0.97280 0.22260 0.47231 -0.98000
C 	C 	0.93930 0.21920 0.43830 0.18900
N 	N 	0.95787 0.28714 0.62283 -0.07100
N 	N 	0.12460 0.49600 0.47120 -0.06500
Al	Al	0.59339 0.53678 0.84815 2.40300
O 	O 	0.56257 0.53833 0.90227 -0.60900
C 	C 	0.56517 0.55643 0.98086 0.08100
O 	O 	0.60839 0.62918 0.84483 -0.59100
C 	C 	0.72387 0.83123 0.81893 0.08200
O 	O 	0.63947 0.55593 0.80564 -0.98200
C 	C 	0.60597 0.55253 0.77163 0.18700
N 	N 	0.62454 0.62047 0.95616 -0.07200
N 	N 	0.79127 0.82933 0.80453 -0.06400
Al	Al	0.26005 0.87012 0.18149 2.40300
O 	O 	0.22923 0.87167 0.23561 -0.60800
C 	C 	0.23183 0.88977 0.31420 0.08100
O 	O 	0.27505 0.96252 0.17817 -0.58700
C 	C 	0.39053 0.16457 0.15227 0.08100
O 	O 	0.30613 0.88927 0.13898 -0.98200
C 	C 	0.27263 0.88587 0.10497 0.18800
N 	N 	0.29120 0.95381 0.28950 -0.07200
N 	N 	0.45793 0.16267 0.13787 -0.06600
Al	Al	0.79655 0.72327 0.51482 2.40300
O 	O 	0.79500 0.69090 0.56894 -0.60800
C 	C 	0.77690 0.67540 0.64753 0.08200
O 	O 	0.70415 0.64587 0.51150 -0.59100
C 	C 	0.50210 0.55930 0.48560 0.08200
O 	O 	0.77740 0.75020 0.47231 -0.98200
C 	C 	0.78080 0.72010 0.43830 0.18800
N 	N 	0.71286 0.67073 0.62283 -0.07200
N 	N 	0.50400 0.62860 0.47120 -0.06500
Al	Al	0.46322 0.05660 0.84815 2.40300
O 	O 	0.46167 0.02423 0.90227 -0.61000
C 	C 	0.44357 0.00873 0.98086 0.07200
O 	O 	0.37082 0.97920 0.84483 -0.58800
C 	C 	0.16877 0.89263 0.81893 0.08400
O 	O 	0.44407 0.08353 0.80564 -0.98300
C 	C 	0.44747 0.05343 0.77163 0.18500
N 	N 	0.37953 0.00406 0.95616 -0.07400
N 	N 	0.17067 0.96193 0.80453 -0.06400
Al	Al	0.12988 0.38994 0.18149 2.40300
O 	O 	0.12833 0.35757 0.23561 -0.60900
C 	C 	0.11023 0.34207 0.31420 0.08100
O 	O 	0.03748 0.31254 0.17817 -0.59600
C 	C 	0.83543 0.22597 0.15227 0.08300
O 	O 	0.11073 0.41687 0.13898 -0.98300
C 	C 	0.11413 0.38677 0.10497 0.18600
N 	N 	0.04619 0.33740 0.28950 -0.07400
N 	N 	0.83733 0.29527 0.13787 -0.06500
Al	Al	0.07328 0.27673 0.48518 2.40300
O 	O 	0.10410 0.30910 0.43106 -0.61000
C 	C 	0.10150 0.32460 0.35247 0.08000
O 	O 	0.05828 0.35413 0.48850 -0.59200
C 	C 	0.94280 0.44070 0.51440 0.08700
O 	O 	0.02720 0.24980 0.52769 -0.98500
C 	C 	0.06070 0.27990 0.56170 0.18500
N 	N 	0.04213 0.32927 0.37717 -0.07400
N 	N 	0.87540 0.37140 0.52880 -0.06500
Al	Al	0.73995 0.61006 0.81851 2.40300
O 	O 	0.77077 0.64243 0.76439 -0.60800
C 	C 	0.76817 0.65793 0.68580 0.08100
O 	O 	0.72495 0.68746 0.82183 -0.59100
C 	C 	0.60947 0.77403 0.84773 0.08200
O 	O 	0.69387 0.58313 0.86102 -0.98200
C 	C 	0.72737 0.61323 0.89503 0.18800
N 	N 	0.70880 0.66260 0.71050 -0.07200
N 	N 	0.54207 0.70473 0.86213 -0.06500
Al	Al	0.40661 0.94340 0.15185 2.40300
O 	O 	0.43743 0.97577 0.09773 -0.60800
C 	C 	0.43483 0.99127 0.01914 0.08900
O 	O 	0.39161 0.02080 0.15517 -0.59400
C 	C 	0.27613 0.10737 0.18107 0.08000
O 	O 	0.36053 0.91647 0.19436 -0.98200
C 	C 	0.39403 0.94657 0.22837 0.18900
N 	N 	0.37546 0.99594 0.04384 -0.07200
N 	N 	0.20873 0.03807 0.19547 -0.06800
Al	Al	0.20345 0.92672 0.48518 2.40300
O 	O 	0.20500 0.89590 0.43106 -0.60800
C 	C 	0.22310 0.89850 0.35247 0.08100
O 	O 	0.29585 0.94172 0.48850 -0.58700
C 	C 	0.49790 0.05720 0.51440 0.08300
O 	O 	0.22260 0.97280 0.52769 -0.98000
C 	C 	0.21920 0.93930 0.56170 0.18900
N 	N 	0.28714 0.95787 0.37717 -0.07100
N 	N 	0.49600 0.12460 0.52880 -0.06500
Al	Al	0.87012 0.26005 0.81851 2.40300
O 	O 	0.87167 0.22923 0.76439 -0.60800
C 	C 	0.88977 0.23183 0.68580 0.08100
O 	O 	0.96252 0.27505 0.82183 -0.58700
C 	C 	0.16457 0.39053 0.84773 0.08100
O 	O 	0.88927 0.30613 0.86102 -0.98200
C 	C 	0.88587 0.27263 0.89503 0.18800
N 	N 	0.95381 0.29120 0.71050 -0.07200
N 	N 	0.16267 0.45793 0.86213 -0.06600
Al	Al	0.53678 0.59339 0.15185 2.40300
O 	O 	0.53833 0.56257 0.09773 -0.60900
C 	C 	0.55643 0.56517 0.01914 0.08100
O 	O 	0.62918 0.60839 0.15517 -0.59100
C 	C 	0.83123 0.72387 0.18107 0.08200
O 	O 	0.55593 0.63947 0.19436 -0.98200
C 	C 	0.55253 0.60597 0.22837 0.18700
N 	N 	0.62047 0.62454 0.04384 -0.07200
N 	N 	0.82933 0.79127 0.19547 -0.06400
Al	Al	0.72327 0.79655 0.48518 2.40300
O 	O 	0.69090 0.79500 0.43106 -0.60800
C 	C 	0.67540 0.77690 0.35247 0.08200
O 	O 	0.64587 0.70415 0.48850 -0.59100
C 	C 	0.55930 0.50210 0.51440 0.08200
O 	O 	0.75020 0.77740 0.52769 -0.98200
C 	C 	0.72010 0.78080 0.56170 0.18800
N 	N 	0.67073 0.71286 0.37717 -0.07200
N 	N 	0.62860 0.50400 0.52880 -0.06500
Al	Al	0.38994 0.12988 0.81851 2.40300
O 	O 	0.35757 0.12833 0.76439 -0.60900
C 	C 	0.34207 0.11023 0.68580 0.08100
O 	O 	0.31254 0.03748 0.82183 -0.59600
C 	C 	0.22597 0.83543 0.84773 0.08300
O 	O 	0.41687 0.11073 0.86102 -0.98300
C 	C 	0.38677 0.11413 0.89503 0.18600
N 	N 	0.33740 0.04619 0.71050 -0.07400
N 	N 	0.29527 0.83733 0.86213 -0.06500
Al	Al	0.05660 0.46322 0.15185 2.40300
O 	O 	0.02423 0.46167 0.09773 -0.61000
C 	C 	0.00873 0.44357 0.01914 0.07200
O 	O 	0.97920 0.37082 0.15517 -0.58800
C 	C 	0.89263 0.16877 0.18107 0.08400
O 	O 	0.08353 0.44407 0.19436 -0.98300
C 	C 	0.05343 0.44747 0.22837 0.18500
N 	N 	0.00406 0.37953 0.04384 -0.07400
N 	N 	0.96193 0.17067 0.19547 -0.06400
Al	Al	0.72327 0.92672 0.48518 2.40300
O 	O 	0.69090 0.89590 0.43106 -0.60700
C 	C 	0.67540 0.89850 0.35247 0.08200
O 	O 	0.64587 0.94172 0.48850 -0.58700
C 	C 	0.55930 0.05720 0.51440 0.08300
O 	O 	0.75020 0.97280 0.52769 -0.97900
C 	C 	0.72010 0.93930 0.56170 0.19000
N 	N 	0.67073 0.95787 0.37717 -0.07100
N 	N 	0.62860 0.12460 0.52880 -0.06500
Al	Al	0.38994 0.26005 0.81851 2.40300
O 	O 	0.35757 0.22923 0.76439 -0.60900
C 	C 	0.34207 0.23183 0.68580 0.08100
O 	O 	0.31254 0.27505 0.82183 -0.59100
C 	C 	0.22597 0.39053 0.84773 0.08200
O 	O 	0.41687 0.30613 0.86102 -0.98200
C 	C 	0.38677 0.27263 0.89503 0.18700
N 	N 	0.33740 0.29120 0.71050 -0.07300
N 	N 	0.29527 0.45793 0.86213 -0.06500
Al	Al	0.05660 0.59339 0.15185 2.40300
O 	O 	0.02423 0.56257 0.09773 -0.61000
C 	C 	0.00873 0.56517 0.01914 0.07200
O 	O 	0.97920 0.60839 0.15517 -0.58800
C 	C 	0.89263 0.72387 0.18107 0.08400
O 	O 	0.08353 0.63947 0.19436 -0.98300
C 	C 	0.05343 0.60597 0.22837 0.18500
N 	N 	0.00406 0.62454 0.04384 -0.07400
N 	N 	0.96193 0.79127 0.19547 -0.06200
Al	Al	0.07328 0.79655 0.48518 2.40300
O 	O 	0.10410 0.79500 0.43106 -0.61000
C 	C 	0.10150 0.77690 0.35247 0.08000
O 	O 	0.05828 0.70415 0.48850 -0.59200
C 	C 	0.94280 0.50210 0.51440 0.08700
O 	O 	0.02720 0.77740 0.52769 -0.98500
C 	C 	0.06070 0.78080 0.56170 0.18500
N 	N 	0.04213 0.71286 0.37717 -0.07400
N 	N 	0.87540 0.50400 0.52880 -0.06500
Al	Al	0.73995 0.12988 0.81851 2.40300
O 	O 	0.77077 0.12833 0.76439 -0.60900
C 	C 	0.76817 0.11023 0.68580 0.08100
O 	O 	0.72495 0.03748 0.82183 -0.59600
C 	C 	0.60947 0.83543 0.84773 0.08300
O 	O 	0.69387 0.11073 0.86102 -0.98300
C 	C 	0.72737 0.11413 0.89503 0.18600
N 	N 	0.70880 0.04619 0.71050 -0.07400
N 	N 	0.54207 0.83733 0.86213 -0.06500
Al	Al	0.40661 0.46322 0.15185 2.40300
O 	O 	0.43743 0.46167 0.09773 -0.60900
C 	C 	0.43483 0.44357 0.01914 0.08100
O 	O 	0.39161 0.37082 0.15517 -0.59100
C 	C 	0.27613 0.16877 0.18107 0.08200
O 	O 	0.36053 0.44407 0.19436 -0.98200
C 	C 	0.39403 0.44747 0.22837 0.18700
N 	N 	0.37546 0.37953 0.04384 -0.07300
N 	N 	0.20873 0.17067 0.19547 -0.06700
Al	Al	0.20345 0.27673 0.48518 2.40300
O 	O 	0.20500 0.30910 0.43106 -0.60900
C 	C 	0.22310 0.32460 0.35247 0.08000
O 	O 	0.29585 0.35413 0.48850 -0.59100
C 	C 	0.49790 0.44070 0.51440 0.08200
O 	O 	0.22260 0.24980 0.52769 -0.98300
C 	C 	0.21920 0.27990 0.56170 0.18600
N 	N 	0.28714 0.32927 0.37717 -0.07300
N 	N 	0.49600 0.37140 0.52880 -0.06500
Al	Al	0.87012 0.61006 0.81851 2.40300
O 	O 	0.87167 0.64243 0.76439 -0.60800
C 	C 	0.88977 0.65793 0.68580 0.08100
O 	O 	0.96252 0.68746 0.82183 -0.58600
C 	C 	0.16457 0.77403 0.84773 0.08100
O 	O 	0.88927 0.58313 0.86102 -0.98200
C 	C 	0.88587 0.61323 0.89503 0.18900
N 	N 	0.95381 0.66260 0.71050 -0.07100
N 	N 	0.16267 0.70473 0.86213 -0.06500
Al	Al	0.53678 0.94340 0.15185 2.40300
O 	O 	0.53833 0.97577 0.09773 -0.60800
C 	C 	0.55643 0.99127 0.01914 0.08900
O 	O 	0.62918 0.02080 0.15517 -0.59400
C 	C 	0.83123 0.10737 0.18107 0.08000
O 	O 	0.55593 0.91647 0.19436 -0.98200
C 	C 	0.55253 0.94657 0.22837 0.19000
N 	N 	0.62047 0.99594 0.04384 -0.07100
N 	N 	0.82933 0.03807 0.19547 -0.06700
Al	Al	0.92672 0.72327 0.51482 2.40300
O 	O 	0.89590 0.69090 0.56894 -0.60700
C 	C 	0.89850 0.67540 0.64753 0.08200
O 	O 	0.94172 0.64587 0.51150 -0.58700
C 	C 	0.05720 0.55930 0.48560 0.08300
O 	O 	0.97280 0.75020 0.47231 -0.97900
C 	C 	0.93930 0.72010 0.43830 0.19000
N 	N 	0.95787 0.67073 0.62283 -0.07100
N 	N 	0.12460 0.62860 0.47120 -0.06500
Al	Al	0.59339 0.05660 0.84815 2.40300
O 	O 	0.56257 0.02423 0.90227 -0.61000
C 	C 	0.56517 0.00873 0.98086 0.07200
O 	O 	0.60839 0.97920 0.84483 -0.58800
C 	C 	0.72387 0.89263 0.81893 0.08400
O 	O 	0.63947 0.08353 0.80564 -0.98300
C 	C 	0.60597 0.05343 0.77163 0.18500
N 	N 	0.62454 0.00406 0.95616 -0.07400
N 	N 	0.79127 0.96193 0.80453 -0.06200
Al	Al	0.26005 0.38994 0.18149 2.40300
O 	O 	0.22923 0.35757 0.23561 -0.60900
C 	C 	0.23183 0.34207 0.31420 0.08100
O 	O 	0.27505 0.31254 0.17817 -0.59100
C 	C 	0.39053 0.22597 0.15227 0.08200
O 	O 	0.30613 0.41687 0.13898 -0.98200
C 	C 	0.27263 0.38677 0.10497 0.18700
N 	N 	0.29120 0.33740 0.28950 -0.07300
N 	N 	0.45793 0.29527 0.13787 -0.06500
Al	Al	0.79655 0.07328 0.51482 2.40300
O 	O 	0.79500 0.10410 0.56894 -0.61000
C 	C 	0.77690 0.10150 0.64753 0.08000
O 	O 	0.70415 0.05828 0.51150 -0.59200
C 	C 	0.50210 0.94280 0.48560 0.08700
O 	O 	0.77740 0.02720 0.47231 -0.98500
C 	C 	0.78080 0.06070 0.43830 0.18500
N 	N 	0.71286 0.04213 0.62283 -0.07400
N 	N 	0.50400 0.87540 0.47120 -0.06500
Al	Al	0.46322 0.40661 0.84815 2.40300
O 	O 	0.46167 0.43743 0.90227 -0.60900
C 	C 	0.44357 0.43483 0.98086 0.08100
O 	O 	0.37082 0.39161 0.84483 -0.59100
C 	C 	0.16877 0.27613 0.81893 0.08200
O 	O 	0.44407 0.36053 0.80564 -0.98200
C 	C 	0.44747 0.39403 0.77163 0.18700
N 	N 	0.37953 0.37546 0.95616 -0.07300
N 	N 	0.17067 0.20873 0.80453 -0.06700
Al	Al	0.12988 0.73995 0.18149 2.40300
O 	O 	0.12833 0.77077 0.23561 -0.60900
C 	C 	0.11023 0.76817 0.31420 0.08100
O 	O 	0.03748 0.72495 0.17817 -0.59600
C 	C 	0.83543 0.60947 0.15227 0.08300
O 	O 	0.11073 0.69387 0.13898 -0.98300
C 	C 	0.11413 0.72737 0.10497 0.18600
N 	N 	0.04619 0.70880 0.28950 -0.07400
N 	N 	0.83733 0.54207 0.13787 -0.06500
Al	Al	0.27673 0.20345 0.51482 2.40300
O 	O 	0.30910 0.20500 0.56894 -0.60900
C 	C 	0.32460 0.22310 0.64753 0.08000
O 	O 	0.35413 0.29585 0.51150 -0.59100
C 	C 	0.44070 0.49790 0.48560 0.08200
O 	O 	0.24980 0.22260 0.47231 -0.98300
C 	C 	0.27990 0.21920 0.43830 0.18600
N 	N 	0.32927 0.28714 0.62283 -0.07300
N 	N 	0.37140 0.49600 0.47120 -0.06500
Al	Al	0.94340 0.53678 0.84815 2.40300
O 	O 	0.97577 0.53833 0.90227 -0.60800
C 	C 	0.99127 0.55643 0.98086 0.08900
O 	O 	0.02080 0.62918 0.84483 -0.59400
C 	C 	0.10737 0.83123 0.81893 0.08000
O 	O 	0.91647 0.55593 0.80564 -0.98200
C 	C 	0.94657 0.55253 0.77163 0.19000
N 	N 	0.99594 0.62047 0.95616 -0.07100
N 	N 	0.03807 0.82933 0.80453 -0.06700
Al	Al	0.61006 0.87012 0.18149 2.40300
O 	O 	0.64243 0.87167 0.23561 -0.60800
C 	C 	0.65793 0.88977 0.31420 0.08100
O 	O 	0.68746 0.96252 0.17817 -0.58600
C 	C 	0.77403 0.16457 0.15227 0.08100
O 	O 	0.58313 0.88927 0.13898 -0.98200
C 	C 	0.61323 0.88587 0.10497 0.18900
N 	N 	0.66260 0.95381 0.28950 -0.07100
N 	N 	0.70473 0.16267 0.13787 -0.06500
C 	C 	0.31580 0.15790 0.58680 0.53700
C 	C 	0.33190 0.16595 0.63200 -0.13200
O 	O 	0.33150 0.16575 0.50190 -1.08600
C 	C 	0.38640 0.19320 0.47730 0.26400
O 	O 	0.19670 0.09835 0.52002 -0.73200
C 	C 	0.98247 0.49123 0.92013 0.53800
C 	C 	0.99857 0.49928 0.96533 -0.13500
O 	O 	0.99817 0.49908 0.83523 -1.08100
C 	C 	0.05307 0.52653 0.81063 0.25700
O 	O 	0.86337 0.43168 0.85335 -0.73000
C 	C 	0.64913 0.82457 0.25347 0.53700
C 	C 	0.66523 0.83262 0.29867 -0.13200
O 	O 	0.66483 0.83242 0.16857 -1.08700
C 	C 	0.71973 0.85987 0.14397 0.26700
O 	O 	0.53003 0.76502 0.18669 -0.73000
C 	C 	0.84210 0.15790 0.58680 0.53700
C 	C 	0.83405 0.16595 0.63200 -0.13200
O 	O 	0.83425 0.16575 0.50190 -1.08700
C 	C 	0.80680 0.19320 0.47730 0.26500
O 	O 	0.90165 0.09835 0.52002 -0.73000
C 	C 	0.50877 0.49123 0.92013 0.53700
C 	C 	0.50072 0.49928 0.96533 -0.13200
O 	O 	0.50092 0.49908 0.83523 -1.08600
C 	C 	0.47347 0.52653 0.81063 0.26400
O 	O 	0.56832 0.43168 0.85335 -0.73000
C 	C 	0.17543 0.82457 0.25347 0.53700
C 	C 	0.16738 0.83262 0.29867 -0.13300
O 	O 	0.16758 0.83242 0.16857 -1.08600
C 	C 	0.14013 0.85987 0.14397 0.26400
O 	O 	0.23498 0.76502 0.18669 -0.73000
C 	C 	0.84210 0.68420 0.58680 0.53700
C 	C 	0.83405 0.66810 0.63200 -0.13200
O 	O 	0.83425 0.66850 0.50190 -1.08600
C 	C 	0.80680 0.61360 0.47730 0.26500
O 	O 	0.90165 0.80330 0.52002 -0.72800
C 	C 	0.50877 0.01753 0.92013 0.53600
C 	C 	0.50072 0.00143 0.96533 -0.13000
O 	O 	0.50092 0.00183 0.83523 -1.09300
C 	C 	0.47347 0.94693 0.81063 0.27200
O 	O 	0.56832 0.13663 0.85335 -0.73000
C 	C 	0.17543 0.35087 0.25347 0.53700
C 	C 	0.16738 0.33477 0.29867 -0.13300
O 	O 	0.16758 0.33517 0.16857 -1.08600
C 	C 	0.14013 0.28027 0.14397 0.26200
O 	O 	0.23498 0.46997 0.18669 -0.73000
C 	C 	0.15790 0.31580 0.41320 0.53700
C 	C 	0.16595 0.33190 0.36800 -0.13200
O 	O 	0.16575 0.33150 0.49810 -1.08600
C 	C 	0.19320 0.38640 0.52270 0.26400
O 	O 	0.09835 0.19670 0.47998 -0.73200
C 	C 	0.82457 0.64913 0.74653 0.53700
C 	C 	0.83262 0.66523 0.70133 -0.13200
O 	O 	0.83242 0.66483 0.83143 -1.08700
C 	C 	0.85987 0.71973 0.85603 0.26700
O 	O 	0.76502 0.53003 0.81331 -0.73000
C 	C 	0.49123 0.98247 0.07987 0.53800
C 	C 	0.49928 0.99857 0.03467 -0.13500
O 	O 	0.49908 0.99817 0.16477 -1.08100
C 	C 	0.52653 0.05307 0.18937 0.25700
O 	O 	0.43168 0.86337 0.14665 -0.73000
C 	C 	0.15790 0.84210 0.41320 0.53700
C 	C 	0.16595 0.83405 0.36800 -0.13200
O 	O 	0.16575 0.83425 0.49810 -1.08700
C 	C 	0.19320 0.80680 0.52270 0.26500
O 	O 	0.09835 0.90165 0.47998 -0.73000
C 	C 	0.82457 0.17543 0.74653 0.53700
C 	C 	0.83262 0.16738 0.70133 -0.13300
O 	O 	0.83242 0.16758 0.83143 -1.08600
C 	C 	0.85987 0.14013 0.85603 0.26400
O 	O 	0.76502 0.23498 0.81331 -0.73000
C 	C 	0.49123 0.50877 0.07987 0.53700
C 	C 	0.49928 0.50072 0.03467 -0.13200
O 	O 	0.49908 0.50092 0.16477 -1.08600
C 	C 	0.52653 0.47347 0.18937 0.26400
O 	O 	0.43168 0.56832 0.14665 -0.73000
C 	C 	0.68420 0.84210 0.41320 0.53700
C 	C 	0.66810 0.83405 0.36800 -0.13200
O 	O 	0.66850 0.83425 0.49810 -1.08600
C 	C 	0.61360 0.80680 0.52270 0.26500
O 	O 	0.80330 0.90165 0.47998 -0.72800
C 	C 	0.35087 0.17543 0.74653 0.53700
C 	C 	0.33477 0.16738 0.70133 -0.13300
O 	O 	0.33517 0.16758 0.83143 -1.08600
C 	C 	0.28027 0.14013 0.85603 0.26200
O 	O 	0.46997 0.23498 0.81331 -0.73000
C 	C 	0.01753 0.50877 0.07987 0.53600
C 	C 	0.00143 0.50072 0.03467 -0.13000
O 	O 	0.00183 0.50092 0.16477 -1.09300
C 	C 	0.94693 0.47347 0.18937 0.27200
O 	O 	0.13663 0.56832 0.14665 -0.73000
C 	C 	0.36440 -0.00000 0.50000 0.40700
C 	C 	0.43750 -0.00000 0.50000 -0.13600
C 	C 	0.03107 0.33333 0.83333 0.40600
C 	C 	0.10417 0.33333 0.83333 -0.12900
C 	C 	0.69773 0.66667 0.16667 0.41200
C 	C 	0.77083 0.66667 0.16667 -0.12900
C 	C 	-0.00000 0.36440 0.50000 0.40700
C 	C 	-0.00000 0.43750 0.50000 -0.13600
C 	C 	0.66667 0.69773 0.83333 0.41200
C 	C 	0.66667 0.77083 0.83333 -0.12900
C 	C 	0.33333 0.03107 0.16667 0.40600
C 	C 	0.33333 0.10417 0.16667 -0.12900
C 	C 	0.63560 0.63560 0.50000 0.41200
C 	C 	0.56250 0.56250 0.50000 -0.13000
C 	C 	0.30227 0.96893 0.83333 0.41700
C 	C 	0.22917 0.89583 0.83333 -0.13100
C 	C 	0.96893 0.30227 0.16667 0.41700
C 	C 	0.89583 0.22917 0.16667 -0.13100
C 	C 	0.63560 -0.00000 0.50000 0.40700
C 	C 	0.56250 -0.00000 0.50000 -0.13600
C 	C 	0.30227 0.33333 0.83333 0.41200
C 	C 	0.22917 0.33333 0.83333 -0.13000
C 	C 	0.96893 0.66667 0.16667 0.41800
C 	C 	0.89583 0.66667 0.16667 -0.13100
C 	C 	-0.00000 0.63560 0.50000 0.40700
C 	C 	-0.00000 0.56250 0.50000 -0.13600
C 	C 	0.66667 0.96893 0.83333 0.41800
C 	C 	0.66667 0.89583 0.83333 -0.13100
C 	C 	0.33333 0.30227 0.16667 0.41200
C 	C 	0.33333 0.22917 0.16667 -0.13000
C 	C 	0.36440 0.36440 0.50000 0.41200
C 	C 	0.43750 0.43750 0.50000 -0.13000
C 	C 	0.03107 0.69773 0.83333 0.40600
C 	C 	0.10417 0.77083 0.83333 -0.12800
C 	C 	0.69773 0.03107 0.16667 0.40600
C 	C 	0.77083 0.10417 0.16667 -0.12800
