data_crystal

_cell_length_a 13.09890
_cell_length_b 18.44440
_cell_length_c 22.05040
_cell_angle_alpha 90.00000
_cell_angle_beta  103.20200
_cell_angle_gamma 90.00000

_symmetry_space_group_name_	'P 1'
_symmetry_space_group_name_H-M	'P 1'

loop_
_symmetry_equiv_pos_as_xyz
  x,y,z

loop_
_atom_site_label
_atom_site_type_symbol
_atom_site_fract_x
_atom_site_fract_y
_atom_site_fract_z
_atom_site_charge
Ni	Ni	0.71587 0.78274 0.87511 1.13200
Ni	Ni	0.61261 0.14078 0.12878 1.13400
Ni	Ni	0.51467 0.73154 0.78426 1.13800
Ni	Ni	0.98916 0.38942 0.73287 1.13300
Ni	Ni	0.78413 0.28274 0.62489 1.13100
Ni	Ni	0.88739 0.64078 0.37122 1.13300
Ni	Ni	0.98533 0.23154 0.71574 1.13600
Ni	Ni	0.51084 0.88942 0.76713 1.13300
Ni	Ni	0.28413 0.21726 0.12489 1.13100
Ni	Ni	0.38739 0.85922 0.87122 1.13300
Ni	Ni	0.48533 0.26846 0.21574 1.13700
Ni	Ni	0.01084 0.61058 0.26713 1.13200
Ni	Ni	0.21587 0.71726 0.37511 1.13100
Ni	Ni	0.11261 0.35922 0.62878 1.13300
Ni	Ni	0.01467 0.76846 0.28426 1.13600
Ni	Ni	0.48916 0.11058 0.23287 1.13300
H 	H 	0.99700 0.50120 0.82800 0.02900
H 	H 	0.90660 0.59840 0.85480 0.06300
H 	H 	0.66310 0.54210 0.71470 0.06300
H 	H 	0.76430 0.44940 0.68940 0.01000
H 	H 	0.81140 0.81870 0.33040 0.02000
H 	H 	0.68700 0.90970 0.30730 0.06500
H 	H 	0.85280 0.99640 0.19180 0.06200
H 	H 	0.97430 0.90470 0.21880 0.03400
H 	H 	0.50470 0.12640 0.98720 0.02500
H 	H 	0.49870 0.04430 0.90630 0.05800
H 	H 	0.76040 0.95060 0.00930 0.05600
H 	H 	0.75780 0.03480 0.08660 0.02700
H 	H 	0.88620 0.67670 0.94560 0.02500
H 	H 	0.96060 0.64090 0.04690 0.05900
H 	H 	0.79720 0.79690 0.10960 0.06000
H 	H 	0.70860 0.81890 0.00760 0.02100
H 	H 	0.82570 0.78440 0.76810 -0.02100
H 	H 	0.99000 0.78800 0.74600 0.06900
H 	H 	0.10380 0.85050 0.92260 0.06600
H 	H 	0.93490 0.85780 0.93650 0.01900
H 	H 	0.63600 0.19100 0.23400 0.36500
H 	H 	0.65100 0.81000 0.77100 0.93300
H 	H 	0.50300 0.00120 0.67200 0.02900
H 	H 	0.59340 0.09840 0.64520 0.06300
H 	H 	0.83690 0.04210 0.78530 0.06200
H 	H 	0.73570 0.94940 0.81060 0.00900
H 	H 	0.68860 0.31870 0.16960 0.02000
H 	H 	0.81300 0.40970 0.19270 0.06500
H 	H 	0.64720 0.49640 0.30820 0.06100
H 	H 	0.52570 0.40470 0.28120 0.03300
H 	H 	0.99530 0.62640 0.51280 0.02500
H 	H 	0.00130 0.54430 0.59370 0.05800
H 	H 	0.73960 0.45060 0.49070 0.05600
H 	H 	0.74220 0.53480 0.41340 0.02700
H 	H 	0.61380 0.17670 0.55440 0.02400
H 	H 	0.53940 0.14090 0.45310 0.05900
H 	H 	0.70280 0.29690 0.39040 0.06000
H 	H 	0.79140 0.31890 0.49240 0.02100
H 	H 	0.67430 0.28440 0.73190 -0.02100
H 	H 	0.51000 0.28800 0.75400 0.06900
H 	H 	0.39620 0.35050 0.57740 0.06600
H 	H 	0.56510 0.35780 0.56350 0.02000
H 	H 	0.86400 0.69100 0.26600 0.36500
H 	H 	0.84900 0.31000 0.72900 0.93300
H 	H 	0.00300 0.49880 0.17200 0.02900
H 	H 	0.09340 0.40160 0.14520 0.06300
H 	H 	0.33690 0.45790 0.28530 0.06300
H 	H 	0.23570 0.55060 0.31060 0.01000
H 	H 	0.18860 0.18130 0.66960 0.02000
H 	H 	0.31300 0.09030 0.69270 0.06500
H 	H 	0.14720 0.00360 0.80820 0.06200
H 	H 	0.02570 0.09530 0.78120 0.03400
H 	H 	0.49530 0.87360 0.01280 0.02500
H 	H 	0.50130 0.95570 0.09370 0.05800
H 	H 	0.23960 0.04940 0.99070 0.05600
H 	H 	0.24220 0.96520 0.91340 0.02700
H 	H 	0.11380 0.32330 0.05440 0.02500
H 	H 	0.03940 0.35910 0.95310 0.05900
H 	H 	0.20280 0.20310 0.89040 0.06000
H 	H 	0.29140 0.18110 0.99240 0.02100
H 	H 	0.17430 0.21560 0.23190 -0.02100
H 	H 	0.01000 0.21200 0.25400 0.06900
H 	H 	0.89620 0.14950 0.07740 0.06600
H 	H 	0.06510 0.14220 0.06350 0.01900
H 	H 	0.36400 0.80900 0.76600 0.36500
H 	H 	0.34900 0.19000 0.22900 0.93300
H 	H 	0.49700 0.99880 0.32800 0.02900
H 	H 	0.40660 0.90160 0.35480 0.06300
H 	H 	0.16310 0.95790 0.21470 0.06200
H 	H 	0.26430 0.05060 0.18940 0.00900
H 	H 	0.31140 0.68130 0.83040 0.02000
H 	H 	0.18700 0.59030 0.80730 0.06500
H 	H 	0.35280 0.50360 0.69180 0.06100
H 	H 	0.47430 0.59530 0.71880 0.03300
H 	H 	0.00470 0.37360 0.48720 0.02500
H 	H 	0.99870 0.45570 0.40630 0.05800
H 	H 	0.26040 0.54940 0.50930 0.05600
H 	H 	0.25780 0.46520 0.58660 0.02700
H 	H 	0.38620 0.82330 0.44560 0.02400
H 	H 	0.46060 0.85910 0.54690 0.05900
H 	H 	0.29720 0.70310 0.60960 0.06000
H 	H 	0.20860 0.68110 0.50760 0.02100
H 	H 	0.32570 0.71560 0.26810 -0.02100
H 	H 	0.49000 0.71200 0.24600 0.06900
H 	H 	0.60380 0.64950 0.42260 0.06600
H 	H 	0.43490 0.64220 0.43650 0.02000
H 	H 	0.13600 0.30900 0.73400 0.36500
H 	H 	0.15100 0.69000 0.27100 0.93300
C 	C 	0.92860 0.51090 0.80380 0.03900
C 	C 	0.87500 0.56860 0.82053 -0.05300
C 	C 	0.77430 0.58280 0.78676 -0.04600
C 	C 	0.73310 0.53580 0.73805 -0.05500
C 	C 	0.79340 0.48010 0.72360 0.03800
C 	C 	0.71300 0.64610 0.80290 0.34900
C 	C 	0.81990 0.85540 0.30166 0.04300
C 	C 	0.74460 0.90910 0.28783 -0.05000
C 	C 	0.75460 0.96230 0.24488 -0.04400
C 	C 	0.84230 0.95990 0.22030 -0.04500
C 	C 	0.91460 0.90520 0.23650 0.03100
C 	C 	0.67420 0.02180 0.22380 0.36200
C 	C 	0.55550 0.08870 0.99256 0.03800
C 	C 	0.55090 0.03990 0.94384 -0.04700
C 	C 	0.62490 0.98430 0.95153 -0.06600
C 	C 	0.70470 0.98470 0.00437 -0.04200
C 	C 	0.70260 0.03550 0.05020 0.03200
C 	C 	0.61610 0.92400 0.90514 0.36300
C 	C 	0.86600 0.70060 0.97920 0.03800
C 	C 	0.91420 0.68120 0.03990 -0.04800
C 	C 	0.81620 0.77110 0.07660 -0.05000
C 	C 	0.76470 0.78510 0.01560 0.03400
C 	C 	0.89620 0.71890 0.08971 -0.04100
C 	C 	0.94940 0.70540 0.15691 0.33700
C 	C 	0.51760 0.72980 0.92249 0.38000
C 	C 	0.53150 0.66640 0.96790 -0.08900
C 	C 	0.57340 0.59940 0.94490 0.02300
C 	C 	0.88200 0.79950 0.80090 0.05100
C 	C 	0.98200 0.79990 0.78660 -0.07000
C 	C 	0.06620 0.81780 0.83280 -0.02800
C 	C 	0.04700 0.83790 0.88920 -0.06200
C 	C 	0.94440 0.83970 0.89780 0.03400
C 	C 	0.17700 0.81220 0.82280 0.32500
C 	C 	0.57140 0.01090 0.69620 0.03800
C 	C 	0.62500 0.06860 0.67947 -0.05300
C 	C 	0.72570 0.08280 0.71324 -0.04500
C 	C 	0.76690 0.03580 0.76195 -0.05800
C 	C 	0.70660 0.98010 0.77640 0.04000
C 	C 	0.78700 0.14610 0.69710 0.34900
C 	C 	0.68010 0.35540 0.19834 0.04300
C 	C 	0.75540 0.40910 0.21217 -0.05000
C 	C 	0.74540 0.46230 0.25512 -0.04500
C 	C 	0.65770 0.45990 0.27970 -0.04500
C 	C 	0.58540 0.40520 0.26350 0.03000
C 	C 	0.82580 0.52180 0.27620 0.36400
C 	C 	0.94450 0.58870 0.50744 0.04000
C 	C 	0.94910 0.53990 0.55616 -0.04700
C 	C 	0.87510 0.48430 0.54847 -0.06600
C 	C 	0.79530 0.48470 0.49563 -0.04300
C 	C 	0.79740 0.53550 0.44980 0.03300
C 	C 	0.88390 0.42400 0.59486 0.36300
C 	C 	0.63400 0.20060 0.52080 0.04100
C 	C 	0.58580 0.18120 0.46010 -0.05100
C 	C 	0.68380 0.27110 0.42340 -0.05100
C 	C 	0.73530 0.28510 0.48440 0.03300
C 	C 	0.60380 0.21890 0.41029 -0.04000
C 	C 	0.55060 0.20540 0.34309 0.33600
C 	C 	0.98240 0.22980 0.57751 0.37800
C 	C 	0.96850 0.16640 0.53210 -0.08800
C 	C 	0.92660 0.09940 0.55510 0.02200
C 	C 	0.61800 0.29950 0.69910 0.05100
C 	C 	0.51800 0.29990 0.71340 -0.07000
C 	C 	0.43380 0.31780 0.66720 -0.02800
C 	C 	0.45300 0.33790 0.61080 -0.06200
C 	C 	0.55560 0.33970 0.60220 0.03400
C 	C 	0.32300 0.31220 0.67720 0.32500
C 	C 	0.07140 0.48910 0.19620 0.03900
C 	C 	0.12500 0.43140 0.17947 -0.05300
C 	C 	0.22570 0.41720 0.21324 -0.04600
C 	C 	0.26690 0.46420 0.26195 -0.05500
C 	C 	0.20660 0.51990 0.27640 0.03800
C 	C 	0.28700 0.35390 0.19710 0.34900
C 	C 	0.18010 0.14460 0.69834 0.04300
C 	C 	0.25540 0.09090 0.71217 -0.05000
C 	C 	0.24540 0.03770 0.75512 -0.04400
C 	C 	0.15770 0.04010 0.77970 -0.04500
C 	C 	0.08540 0.09480 0.76350 0.03100
C 	C 	0.32580 0.97820 0.77620 0.36200
C 	C 	0.44450 0.91130 0.00744 0.03800
C 	C 	0.44910 0.96010 0.05616 -0.04700
C 	C 	0.37510 0.01570 0.04847 -0.06600
C 	C 	0.29530 0.01530 0.99563 -0.04200
C 	C 	0.29740 0.96450 0.94980 0.03200
C 	C 	0.38390 0.07600 0.09486 0.36300
C 	C 	0.13400 0.29940 0.02080 0.03800
C 	C 	0.08580 0.31880 0.96010 -0.04800
C 	C 	0.18380 0.22890 0.92340 -0.05000
C 	C 	0.23530 0.21490 0.98440 0.03400
C 	C 	0.10380 0.28110 0.91029 -0.04100
C 	C 	0.05060 0.29460 0.84309 0.33700
C 	C 	0.48240 0.27020 0.07751 0.38000
C 	C 	0.46850 0.33360 0.03210 -0.08900
C 	C 	0.42660 0.40060 0.05510 0.02300
C 	C 	0.11800 0.20050 0.19910 0.05100
C 	C 	0.01800 0.20010 0.21340 -0.07000
C 	C 	0.93380 0.18220 0.16720 -0.02800
C 	C 	0.95300 0.16210 0.11080 -0.06200
C 	C 	0.05560 0.16030 0.10220 0.03400
C 	C 	0.82300 0.18780 0.17720 0.32500
C 	C 	0.42860 0.98910 0.30380 0.03800
C 	C 	0.37500 0.93140 0.32053 -0.05300
C 	C 	0.27430 0.91720 0.28676 -0.04500
C 	C 	0.23310 0.96420 0.23805 -0.05800
C 	C 	0.29340 0.01990 0.22360 0.04000
C 	C 	0.21300 0.85390 0.30290 0.34900
C 	C 	0.31990 0.64460 0.80166 0.04300
C 	C 	0.24460 0.59090 0.78783 -0.05000
C 	C 	0.25460 0.53770 0.74488 -0.04500
C 	C 	0.34230 0.54010 0.72030 -0.04500
C 	C 	0.41460 0.59480 0.73650 0.03000
C 	C 	0.17420 0.47820 0.72380 0.36400
C 	C 	0.05550 0.41130 0.49256 0.04000
C 	C 	0.05090 0.46010 0.44384 -0.04700
C 	C 	0.12490 0.51570 0.45153 -0.06600
C 	C 	0.20470 0.51530 0.50437 -0.04300
C 	C 	0.20260 0.46450 0.55020 0.03300
C 	C 	0.11610 0.57600 0.40514 0.36300
C 	C 	0.36600 0.79940 0.47920 0.04100
C 	C 	0.41420 0.81880 0.53990 -0.05100
C 	C 	0.31620 0.72890 0.57660 -0.05100
C 	C 	0.26470 0.71490 0.51560 0.03300
C 	C 	0.39620 0.78110 0.58971 -0.04000
C 	C 	0.44940 0.79460 0.65691 0.33600
C 	C 	0.01760 0.77020 0.42249 0.37800
C 	C 	0.03150 0.83360 0.46790 -0.08800
C 	C 	0.07340 0.90060 0.44490 0.02200
C 	C 	0.38200 0.70050 0.30090 0.05100
C 	C 	0.48200 0.70010 0.28660 -0.07000
C 	C 	0.56620 0.68220 0.33280 -0.02800
C 	C 	0.54700 0.66210 0.38920 -0.06200
C 	C 	0.44440 0.66030 0.39780 0.03400
C 	C 	0.67700 0.68780 0.32280 0.32500
N 	N 	0.89040 0.46778 0.75551 -0.21300
N 	N 	0.90390 0.85211 0.27691 -0.20400
N 	N 	0.62700 0.08567 0.04635 -0.19200
N 	N 	0.79250 0.75160 0.96677 -0.20200
N 	N 	0.85500 0.81760 0.85480 -0.21700
N 	N 	0.60960 0.96778 0.74449 -0.21200
N 	N 	0.59610 0.35211 0.22309 -0.20400
N 	N 	0.87300 0.58567 0.45365 -0.19300
N 	N 	0.70750 0.25160 0.53323 -0.20200
N 	N 	0.64500 0.31760 0.64520 -0.21700
N 	N 	0.10960 0.53222 0.24449 -0.21300
N 	N 	0.09610 0.14789 0.72309 -0.20400
N 	N 	0.37300 0.91433 0.95365 -0.19200
N 	N 	0.20750 0.24840 0.03323 -0.20200
N 	N 	0.14500 0.18240 0.14520 -0.21700
N 	N 	0.39040 0.03222 0.25551 -0.21200
N 	N 	0.40390 0.64789 0.77691 -0.20400
N 	N 	0.12700 0.41433 0.54635 -0.19300
N 	N 	0.29250 0.74840 0.46677 -0.20200
N 	N 	0.35500 0.68240 0.35480 -0.21700
O 	O 	0.58540 0.18647 0.20696 -0.82600
O 	O 	0.62460 0.81177 0.79095 -1.51500
O 	O 	0.62110 0.65420 0.77180 -0.41200
O 	O 	0.76060 0.68525 0.84677 -0.41900
O 	O 	0.68490 0.05442 0.17579 -0.41900
O 	O 	0.60780 0.03304 0.25475 -0.40200
O 	O 	0.96840 0.76145 0.18950 -0.41700
O 	O 	0.96820 0.64119 0.17391 -0.40900
O 	O 	0.53150 0.92014 0.86299 -0.47300
O 	O 	0.69200 0.88155 0.91284 -0.41400
O 	O 	0.45520 0.77838 0.92862 -0.41600
O 	O 	0.57250 0.72944 0.88191 -0.49300
O 	O 	0.18870 0.80780 0.76930 -0.29100
O 	O 	0.24830 0.81370 0.87120 -0.38700
O 	O 	0.91460 0.68647 0.29304 -0.82400
O 	O 	0.87540 0.31177 0.70905 -1.51500
O 	O 	0.87890 0.15420 0.72820 -0.41300
O 	O 	0.73940 0.18525 0.65323 -0.41900
O 	O 	0.81510 0.55442 0.32421 -0.41900
O 	O 	0.89220 0.53304 0.24525 -0.40100
O 	O 	0.53160 0.26145 0.31050 -0.41800
O 	O 	0.53180 0.14119 0.32609 -0.41000
O 	O 	0.96850 0.42014 0.63701 -0.47300
O 	O 	0.80800 0.38155 0.58716 -0.41300
O 	O 	0.04480 0.27838 0.57138 -0.41400
O 	O 	0.92750 0.22944 0.61809 -0.49300
O 	O 	0.31130 0.30780 0.73070 -0.29100
O 	O 	0.25170 0.31370 0.62880 -0.38700
O 	O 	0.41460 0.81353 0.79304 -0.82600
O 	O 	0.37540 0.18823 0.20905 -1.51500
O 	O 	0.37890 0.34580 0.22820 -0.41200
O 	O 	0.23940 0.31475 0.15323 -0.41900
O 	O 	0.31510 0.94558 0.82421 -0.41900
O 	O 	0.39220 0.96696 0.74525 -0.40200
O 	O 	0.03160 0.23855 0.81050 -0.41700
O 	O 	0.03180 0.35881 0.82609 -0.40900
O 	O 	0.46850 0.07986 0.13701 -0.47300
O 	O 	0.30800 0.11845 0.08716 -0.41400
O 	O 	0.54480 0.22162 0.07138 -0.41600
O 	O 	0.42750 0.27056 0.11809 -0.49300
O 	O 	0.81130 0.19220 0.23070 -0.29100
O 	O 	0.75170 0.18630 0.12880 -0.38700
O 	O 	0.08540 0.31353 0.70696 -0.82400
O 	O 	0.12460 0.68823 0.29095 -1.51500
O 	O 	0.12110 0.84580 0.27180 -0.41300
O 	O 	0.26060 0.81475 0.34677 -0.41900
O 	O 	0.18490 0.44558 0.67579 -0.41900
O 	O 	0.10780 0.46696 0.75475 -0.40100
O 	O 	0.46840 0.73855 0.68950 -0.41800
O 	O 	0.46820 0.85881 0.67391 -0.41000
O 	O 	0.03150 0.57986 0.36299 -0.47300
O 	O 	0.19200 0.61845 0.41284 -0.41300
O 	O 	0.95520 0.72162 0.42862 -0.41400
O 	O 	0.07250 0.77056 0.38191 -0.49300
O 	O 	0.68870 0.69220 0.26930 -0.29100
O 	O 	0.74830 0.68630 0.37120 -0.38700
