data_crystal

_cell_length_a 31.81990
_cell_length_b 31.81990
_cell_length_c 25.11490
_cell_angle_alpha 90.00000
_cell_angle_beta  90.00000
_cell_angle_gamma 90.00000

_symmetry_space_group_name_	'P 1'
_symmetry_space_group_name_H-M	'P 1'

loop_
_symmetry_equiv_pos_as_xyz
  x,y,z

loop_
_atom_site_label
_atom_site_type_symbol
_atom_site_fract_x
_atom_site_fract_y
_atom_site_fract_z
_atom_site_charge
Ni	Ni	0.51330 0.25755 0.64040 1.09700
Ni	Ni	0.25671 0.01475 0.39297 1.09800
Ni	Ni	0.01507 0.75582 0.64029 1.10200
Ni	Ni	0.74338 0.98623 0.89118 1.09900
N 	N 	0.52950 0.77480 0.09860 -0.23700
C 	C 	0.57040 0.77700 0.11550 0.05700
H 	H 	0.57700 0.76470 0.14890 0.00700
C 	C 	0.60330 0.79630 0.08710 -0.11700
H 	H 	0.63140 0.79630 0.09970 0.06900
C 	C 	0.59150 0.81620 0.03720 0.06000
C 	C 	0.55100 0.81460 0.02020 -0.12600
H 	H 	0.54280 0.82760 0.98780 0.08400
C 	C 	0.52170 0.79330 0.05160 0.06700
H 	H 	0.49370 0.79170 0.03850 0.01100
C 	C 	0.62340 0.84070 0.00690 0.02500
C 	C 	0.65910 0.85750 0.03260 -0.07600
H 	H 	0.66450 0.85000 0.06850 0.05500
C 	C 	0.68660 0.88470 0.00670 0.00500
H 	H 	0.70880 0.89820 0.02550 0.05100
C 	C 	0.68060 0.89170 0.95240 -0.07600
C 	C 	0.64850 0.87430 0.92560 0.01100
H 	H 	0.64510 0.87970 0.88860 0.04500
C 	C 	0.61900 0.84720 0.95300 -0.08500
H 	H 	0.59680 0.83410 0.93400 0.06800
C 	C 	0.70780 0.92460 0.92620 0.29400
O 	O 	0.73300 0.94560 0.95310 -0.38900
O 	O 	0.70340 0.93110 0.87630 -0.35200
N 	N 	0.54120 0.20480 0.67250 -0.23000
C 	C 	0.53500 0.19910 0.72590 0.04900
H 	H 	0.51490 0.21520 0.74490 0.02500
C 	C 	0.55970 0.16830 0.75160 -0.11700
H 	H 	0.55660 0.16480 0.78900 0.08400
C 	C 	0.58770 0.14350 0.72570 0.07600
C 	C 	0.59100 0.14900 0.67200 -0.13600
H 	H 	0.60960 0.13170 0.65210 0.07600
C 	C 	0.56750 0.17960 0.64610 0.08100
H 	H 	0.57020 0.18270 0.60870 -0.00200
C 	C 	0.61080 0.11230 0.75590 0.00900
C 	C 	0.60020 0.09590 0.80380 -0.07000
H 	H 	0.57330 0.10240 0.81790 0.05900
C 	C 	0.62580 0.07070 0.83260 0.00100
H 	H 	0.61640 0.06070 0.86630 0.04300
C 	C 	0.66530 0.05910 0.81430 -0.06800
C 	C 	0.67820 0.07420 0.76500 -0.00600
H 	H 	0.70430 0.06560 0.75020 0.05300
C 	C 	0.65230 0.10240 0.73730 -0.06400
H 	H 	0.66240 0.11510 0.70550 0.05200
C 	C 	0.69380 0.03170 0.84690 0.27500
O 	O 	0.68540 0.02170 0.89480 -0.35700
O 	O 	0.72930 0.02190 0.82690 -0.38300
N 	N 	0.72530 0.46890 0.43300 -0.23800
C 	C 	0.70740 0.47750 0.47980 0.06900
H 	H 	0.70850 0.50560 0.49220 0.00900
C 	C 	0.68680 0.44740 0.51220 -0.13400
H 	H 	0.67540 0.45500 0.54580 0.08800
C 	C 	0.68400 0.40720 0.49390 0.07000
C 	C 	0.70270 0.39580 0.44510 -0.12700
H 	H 	0.70210 0.36780 0.43220 0.07200
C 	C 	0.72280 0.42930 0.41630 0.06800
H 	H 	0.73520 0.42270 0.38290 0.00300
C 	C 	0.65970 0.37570 0.52510 0.01800
C 	C 	0.65420 0.38030 0.57910 -0.07700
H 	H 	0.66840 0.40180 0.59830 0.06600
C 	C 	0.62640 0.35190 0.60560 0.00600
H 	H 	0.62020 0.35580 0.64220 0.04600
C 	C 	0.60900 0.31920 0.57890 -0.07000
C 	C 	0.61640 0.31280 0.52600 -0.00300
H 	H 	0.60350 0.29010 0.50770 0.05400
C 	C 	0.64380 0.34090 0.49880 -0.07100
H 	H 	0.65110 0.33580 0.46270 0.05200
C 	C 	0.57560 0.29280 0.60530 0.28900
O 	O 	0.56860 0.29640 0.65550 -0.35000
O 	O 	0.55420 0.26760 0.57860 -0.38600
N 	N 	0.79590 0.95820 0.85800 -0.24100
C 	C 	0.81840 0.93000 0.88300 0.10500
H 	H 	0.81310 0.92500 0.91970 -0.01300
C 	C 	0.84860 0.90800 0.85860 -0.15700
H 	H 	0.86510 0.88900 0.87900 0.08300
C 	C 	0.85670 0.91190 0.80470 0.08800
C 	C 	0.83280 0.93940 0.77840 -0.13500
H 	H 	0.83630 0.94310 0.74110 0.09000
C 	C 	0.80150 0.96370 0.80670 0.07000
H 	H 	0.78500 0.98380 0.78810 0.01600
C 	C 	0.88830 0.88770 0.77460 0.00900
C 	C 	0.90600 0.90090 0.72920 -0.07300
H 	H 	0.89920 0.92790 0.71540 0.05900
C 	C 	0.93480 0.87450 0.70180 0.00700
H 	H 	0.94980 0.88560 0.67230 0.04200
C 	C 	0.94140 0.83440 0.71640 -0.07900
C 	C 	0.92300 0.82020 0.76490 0.00200
H 	H 	0.93020 0.79330 0.77860 0.04900
C 	C 	0.89520 0.84470 0.79170 -0.07000
H 	H 	0.88050 0.83380 0.82150 0.05400
C 	C 	0.96910 0.80520 0.68410 0.30700
O 	O 	0.98060 0.81530 0.63890 -0.36900
O 	O 	0.97920 0.77040 0.70400 -0.39600
N 	N 	0.22720 0.96880 0.43490 -0.24100
C 	C 	0.22390 0.92900 0.41600 0.06500
H 	H 	0.23610 0.92310 0.38230 0.00400
C 	C 	0.20400 0.89610 0.44290 -0.12400
H 	H 	0.20190 0.86900 0.42720 0.07100
C 	C 	0.18710 0.90400 0.49360 0.06300
C 	C 	0.19240 0.94620 0.51280 -0.13800
H 	H 	0.18260 0.95340 0.54730 0.09000
C 	C 	0.21110 0.97550 0.48280 0.08500
H 	H 	0.21300 0.00320 0.49690 0.00400
C 	C 	0.16370 0.87190 0.52360 0.02100
C 	C 	0.15870 0.87490 0.57780 -0.07900
H 	H 	0.17370 0.89570 0.59720 0.06500
C 	C 	0.13100 0.84690 0.60530 0.01200
H 	H 	0.12650 0.85020 0.64250 0.04400
C 	C 	0.11090 0.81560 0.57850 -0.08200
C 	C 	0.11760 0.81150 0.52430 0.00700
H 	H 	0.10320 0.79020 0.50510 0.05100
C 	C 	0.14530 0.83820 0.49700 -0.07700
H 	H 	0.15150 0.83320 0.46050 0.05500
C 	C 	0.07820 0.79020 0.60700 0.31100
O 	O 	0.05570 0.76550 0.57930 -0.39000
O 	O 	0.07140 0.79430 0.65490 -0.36500
N 	N 	0.45900 0.79690 0.17340 -0.24100
C 	C 	0.43610 0.82540 0.14670 0.08400
H 	H 	0.43460 0.82290 0.10900 -0.00400
C 	C 	0.41440 0.85800 0.17030 -0.14100
H 	H 	0.39950 0.87800 0.14940 0.07900
C 	C 	0.41520 0.86100 0.22690 0.08600
C 	C 	0.44030 0.83450 0.25150 -0.15000
H 	H 	0.44370 0.83710 0.28900 0.09500
C 	C 	0.46190 0.80330 0.22520 0.08700
H 	H 	0.47970 0.78540 0.24540 0.01000
C 	C 	0.39000 0.89310 0.25490 0.00700
C 	C 	0.34990 0.90180 0.23690 -0.06400
H 	H 	0.34060 0.89060 0.20380 0.05200
C 	C 	0.32260 0.92740 0.26740 -0.00700
H 	H 	0.29470 0.93280 0.25580 0.05300
C 	C 	0.33710 0.94410 0.31380 -0.06600
C 	C 	0.37870 0.93820 0.33010 -0.00400
H 	H 	0.38920 0.95200 0.36090 0.04400
C 	C 	0.40430 0.91180 0.30060 -0.06800
H 	H 	0.43220 0.90670 0.31210 0.05800
C 	C 	0.30760 0.97020 0.34710 0.27700
O 	O 	0.27220 0.97970 0.32810 -0.38700
O 	O 	0.31790 0.98250 0.39400 -0.35100
N 	N 	0.46860 0.22660 0.59960 -0.24000
C 	C 	0.47550 0.21090 0.55110 0.06900
H 	H 	0.50320 0.21300 0.53730 0.01000
C 	C 	0.44530 0.19150 0.51880 -0.12600
H 	H 	0.45200 0.18140 0.48420 0.08700
C 	C 	0.40360 0.18760 0.54060 0.06200
C 	C 	0.39530 0.20350 0.58990 -0.12100
H 	H 	0.36800 0.20120 0.60500 0.07000
C 	C 	0.42830 0.22360 0.61830 0.05700
H 	H 	0.42200 0.23550 0.65210 0.00600
C 	C 	0.37120 0.16420 0.50970 0.02100
C 	C 	0.37470 0.16040 0.45470 -0.07900
H 	H 	0.39560 0.17540 0.43550 0.06600
C 	C 	0.34620 0.13370 0.42840 0.00700
H 	H 	0.34780 0.13140 0.39080 0.04600
C 	C 	0.31600 0.11080 0.45510 -0.06900
C 	C 	0.31160 0.11700 0.50860 -0.00100
H 	H 	0.29040 0.10220 0.52750 0.05500
C 	C 	0.33850 0.14540 0.53650 -0.07400
H 	H 	0.33390 0.15110 0.57320 0.05400
C 	C 	0.28990 0.07750 0.42730 0.29600
O 	O 	0.29430 0.07220 0.37790 -0.35200
O 	O 	0.26620 0.05580 0.45540 -0.38700
N 	N 	0.29600 0.45950 0.86140 -0.23800
C 	C 	0.30050 0.46300 0.80770 0.05700
H 	H 	0.28200 0.48040 0.78790 0.02000
C 	C 	0.33300 0.44040 0.78140 -0.12700
H 	H 	0.33580 0.44270 0.74390 0.08900
C 	C 	0.35940 0.41620 0.80800 0.07500
C 	C 	0.35830 0.41470 0.86380 -0.13300
H 	H 	0.37830 0.39940 0.88410 0.07600
C 	C 	0.32410 0.43810 0.88800 0.08000
H 	H 	0.32210 0.43790 0.92570 -0.00400
C 	C 	0.39290 0.39120 0.78040 0.01500
C 	C 	0.41030 0.40320 0.73200 -0.07900
H 	H 	0.40510 0.43080 0.71940 0.06200
C 	C 	0.43390 0.37790 0.70240 0.01100
H 	H 	0.44400 0.38770 0.66900 0.04000
C 	C 	0.42930 0.32420 0.77010 0.00100
H 	H 	0.43780 0.29790 0.78460 0.04900
C 	C 	0.40200 0.35040 0.79920 -0.07200
H 	H 	0.38980 0.34060 0.83140 0.05400
C 	C 	0.46860 0.30780 0.68630 0.28300
O 	O 	0.47830 0.27200 0.70700 -0.37800
O 	O 	0.47910 0.31810 0.64020 -0.35800
C 	C 	0.44430 0.33680 0.71920 -0.07800
Ni	Ni	0.98670 0.24245 0.14040 1.09600
Ni	Ni	0.24329 0.48525 0.89297 1.09600
Ni	Ni	0.48493 0.74418 0.14029 1.10100
Ni	Ni	0.75662 0.51377 0.39118 1.09800
N 	N 	0.97050 0.72520 0.59860 -0.23800
C 	C 	0.92960 0.72300 0.61550 0.05900
H 	H 	0.92300 0.73530 0.64890 0.00700
C 	C 	0.89670 0.70370 0.58710 -0.12100
H 	H 	0.86860 0.70370 0.59970 0.07000
C 	C 	0.90850 0.68380 0.53720 0.06600
C 	C 	0.94900 0.68540 0.52020 -0.13500
H 	H 	0.95720 0.67240 0.48780 0.08900
C 	C 	0.97830 0.70670 0.55160 0.07100
H 	H 	0.00630 0.70830 0.53850 0.00900
C 	C 	0.87660 0.65930 0.50690 0.01600
C 	C 	0.84090 0.64250 0.53260 -0.06900
H 	H 	0.83550 0.65000 0.56850 0.05200
C 	C 	0.81340 0.61530 0.50670 -0.00400
H 	H 	0.79120 0.60180 0.52550 0.05300
C 	C 	0.81940 0.60830 0.45240 -0.06900
C 	C 	0.85150 0.62570 0.42560 0.00500
H 	H 	0.85490 0.62030 0.38860 0.04700
C 	C 	0.88100 0.65280 0.45300 -0.07500
H 	H 	0.90320 0.66590 0.43400 0.06500
C 	C 	0.79220 0.57540 0.42620 0.29200
O 	O 	0.76700 0.55440 0.45310 -0.38700
O 	O 	0.79660 0.56890 0.37630 -0.35200
N 	N 	0.95880 0.29520 0.17250 -0.23000
C 	C 	0.96500 0.30090 0.22590 0.04900
H 	H 	0.98510 0.28480 0.24490 0.02500
C 	C 	0.94030 0.33170 0.25160 -0.11700
H 	H 	0.94340 0.33520 0.28900 0.08400
C 	C 	0.91230 0.35650 0.22570 0.07600
C 	C 	0.90900 0.35100 0.17200 -0.13500
H 	H 	0.89040 0.36830 0.15210 0.07600
C 	C 	0.93250 0.32040 0.14610 0.08100
H 	H 	0.92980 0.31730 0.10870 -0.00200
C 	C 	0.88920 0.38770 0.25590 0.00900
C 	C 	0.89980 0.40410 0.30380 -0.07000
H 	H 	0.92670 0.39760 0.31790 0.05900
C 	C 	0.87420 0.42930 0.33260 0.00100
H 	H 	0.88360 0.43930 0.36630 0.04300
C 	C 	0.83470 0.44090 0.31430 -0.06800
C 	C 	0.82180 0.42580 0.26500 -0.00600
H 	H 	0.79570 0.43440 0.25020 0.05300
C 	C 	0.84770 0.39760 0.23730 -0.06400
H 	H 	0.83760 0.38490 0.20550 0.05200
C 	C 	0.80620 0.46830 0.34690 0.27500
O 	O 	0.81460 0.47830 0.39480 -0.35700
O 	O 	0.77070 0.47810 0.32690 -0.38300
N 	N 	0.77470 0.03110 0.93300 -0.23600
C 	C 	0.79260 0.02250 0.97980 0.06000
H 	H 	0.79150 0.99440 0.99220 0.01100
C 	C 	0.81320 0.05260 0.01220 -0.11900
H 	H 	0.82460 0.04500 0.04580 0.08300
C 	C 	0.81600 0.09280 0.99390 0.05500
C 	C 	0.79730 0.10420 0.94510 -0.12000
H 	H 	0.79790 0.13220 0.93220 0.06900
C 	C 	0.77720 0.07070 0.91630 0.06400
H 	H 	0.76480 0.07730 0.88290 0.00500
C 	C 	0.84030 0.12430 0.02510 0.03300
C 	C 	0.84580 0.11970 0.07910 -0.08700
H 	H 	0.83160 0.09820 0.09830 0.07000
C 	C 	0.87360 0.14810 0.10560 0.01400
H 	H 	0.87980 0.14420 0.14220 0.04300
C 	C 	0.89100 0.18080 0.07890 -0.07700
C 	C 	0.88360 0.18720 0.02600 0.01000
H 	H 	0.89650 0.20990 0.00770 0.05000
C 	C 	0.85620 0.15910 0.99880 -0.08700
H 	H 	0.84890 0.16420 0.96270 0.05700
C 	C 	0.92440 0.20720 0.10530 0.29200
O 	O 	0.93140 0.20360 0.15550 -0.35100
O 	O 	0.94580 0.23240 0.07860 -0.38600
N 	N 	0.70410 0.54180 0.35800 -0.24100
C 	C 	0.68160 0.57000 0.38300 0.10500
H 	H 	0.68690 0.57500 0.41970 -0.01200
C 	C 	0.65140 0.59200 0.35860 -0.15700
H 	H 	0.63490 0.61100 0.37900 0.08300
C 	C 	0.64330 0.58810 0.30470 0.08800
C 	C 	0.66720 0.56060 0.27840 -0.13500
H 	H 	0.66370 0.55690 0.24110 0.09100
C 	C 	0.69850 0.53630 0.30670 0.07000
H 	H 	0.71500 0.51620 0.28810 0.01600
C 	C 	0.61170 0.61230 0.27460 0.00900
C 	C 	0.59400 0.59910 0.22920 -0.07300
H 	H 	0.60080 0.57210 0.21540 0.05900
C 	C 	0.56520 0.62550 0.20180 0.00700
H 	H 	0.55020 0.61440 0.17230 0.04200
C 	C 	0.55860 0.66560 0.21640 -0.07900
C 	C 	0.57700 0.67980 0.26490 0.00200
H 	H 	0.56980 0.70670 0.27860 0.04900
C 	C 	0.60480 0.65530 0.29170 -0.07000
H 	H 	0.61950 0.66620 0.32150 0.05400
C 	C 	0.53090 0.69480 0.18410 0.30700
O 	O 	0.51940 0.68470 0.13890 -0.36900
O 	O 	0.52080 0.72960 0.20400 -0.39600
N 	N 	0.27280 0.53120 0.93490 -0.23900
C 	C 	0.27610 0.57100 0.91600 0.06000
H 	H 	0.26390 0.57690 0.88230 0.00500
C 	C 	0.29600 0.60390 0.94290 -0.11600
H 	H 	0.29810 0.63100 0.92720 0.06800
C 	C 	0.31290 0.59600 0.99360 0.04800
C 	C 	0.30760 0.55380 0.01280 -0.12200
H 	H 	0.31740 0.54660 0.04730 0.08500
C 	C 	0.28890 0.52450 0.98280 0.07400
H 	H 	0.28700 0.49680 0.99690 0.00600
C 	C 	0.33630 0.62810 0.02360 0.03700
C 	C 	0.34130 0.62510 0.07780 -0.09000
H 	H 	0.32630 0.60430 0.09720 0.06900
C 	C 	0.36900 0.65310 0.10530 0.02000
H 	H 	0.37350 0.64980 0.14250 0.04200
C 	C 	0.38910 0.68440 0.07850 -0.08900
C 	C 	0.38240 0.68850 0.02430 0.02000
H 	H 	0.39680 0.70980 0.00510 0.04800
C 	C 	0.35470 0.66180 0.99700 -0.09400
H 	H 	0.34850 0.66680 0.96050 0.06100
C 	C 	0.42180 0.70980 0.10700 0.31400
O 	O 	0.44430 0.73450 0.07930 -0.39000
O 	O 	0.42860 0.70570 0.15490 -0.36500
N 	N 	0.04100 0.70310 0.67340 -0.24100
C 	C 	0.06390 0.67460 0.64670 0.08400
H 	H 	0.06540 0.67710 0.60900 -0.00400
C 	C 	0.08560 0.64200 0.67030 -0.14100
H 	H 	0.10050 0.62200 0.64940 0.07900
C 	C 	0.08480 0.63900 0.72690 0.08600
C 	C 	0.05970 0.66550 0.75150 -0.15000
H 	H 	0.05630 0.66290 0.78900 0.09500
C 	C 	0.03810 0.69670 0.72520 0.08700
H 	H 	0.02030 0.71460 0.74540 0.01000
C 	C 	0.11000 0.60690 0.75490 0.00700
C 	C 	0.15010 0.59820 0.73690 -0.06400
H 	H 	0.15940 0.60940 0.70380 0.05200
C 	C 	0.17740 0.57260 0.76740 -0.00700
H 	H 	0.20530 0.56720 0.75580 0.05300
C 	C 	0.16290 0.55590 0.81380 -0.06600
C 	C 	0.12130 0.56180 0.83010 -0.00300
H 	H 	0.11080 0.54800 0.86090 0.04400
C 	C 	0.09570 0.58820 0.80060 -0.06800
H 	H 	0.06780 0.59330 0.81210 0.05800
C 	C 	0.19240 0.52980 0.84710 0.27700
O 	O 	0.22780 0.52030 0.82810 -0.38700
O 	O 	0.18210 0.51750 0.89400 -0.35100
N 	N 	0.03140 0.27340 0.09960 -0.23900
C 	C 	0.02450 0.28910 0.05110 0.06500
H 	H 	0.99680 0.28700 0.03730 0.01200
C 	C 	0.05470 0.30850 0.01880 -0.11700
H 	H 	0.04800 0.31860 0.98420 0.08300
C 	C 	0.09640 0.31240 0.04060 0.05700
C 	C 	0.10470 0.29650 0.08990 -0.11800
H 	H 	0.13200 0.29880 0.10500 0.06900
C 	C 	0.07170 0.27640 0.11830 0.05500
H 	H 	0.07800 0.26450 0.15210 0.00700
C 	C 	0.12880 0.33580 0.00970 0.03000
C 	C 	0.12530 0.33960 0.95470 -0.08900
H 	H 	0.10440 0.32460 0.93550 0.06900
C 	C 	0.15380 0.36630 0.92840 0.01300
H 	H 	0.15220 0.36860 0.89080 0.04300
C 	C 	0.18400 0.38920 0.95510 -0.07700
C 	C 	0.18840 0.38300 0.00860 0.00800
H 	H 	0.20960 0.39780 0.02750 0.05200
C 	C 	0.16150 0.35460 0.03650 -0.08100
H 	H 	0.16610 0.34890 0.07320 0.05700
C 	C 	0.21010 0.42250 0.92730 0.29800
O 	O 	0.20570 0.42780 0.87790 -0.35300
O 	O 	0.23380 0.44420 0.95540 -0.38800
N 	N 	0.20400 0.04050 0.36140 -0.23800
C 	C 	0.19950 0.03700 0.30770 0.05700
H 	H 	0.21800 0.01960 0.28790 0.02000
C 	C 	0.16700 0.05960 0.28140 -0.12700
H 	H 	0.16420 0.05730 0.24390 0.08900
C 	C 	0.14060 0.08380 0.30800 0.07500
C 	C 	0.14170 0.08530 0.36380 -0.13300
H 	H 	0.12170 0.10060 0.38410 0.07700
C 	C 	0.17590 0.06190 0.38800 0.08000
H 	H 	0.17790 0.06210 0.42570 -0.00400
C 	C 	0.10710 0.10880 0.28040 0.01500
C 	C 	0.08970 0.09680 0.23200 -0.07900
H 	H 	0.09490 0.06920 0.21940 0.06200
C 	C 	0.06610 0.12210 0.20240 0.01100
H 	H 	0.05600 0.11230 0.16900 0.04000
C 	C 	0.07070 0.17580 0.27010 0.00100
H 	H 	0.06220 0.20210 0.28460 0.04900
C 	C 	0.09800 0.14960 0.29920 -0.07200
H 	H 	0.11020 0.15940 0.33140 0.05400
C 	C 	0.03140 0.19220 0.18630 0.28300
O 	O 	0.02170 0.22800 0.20700 -0.37800
O 	O 	0.02090 0.18190 0.14020 -0.35700
C 	C 	0.05570 0.16320 0.21920 -0.07800
Ni	Ni	0.01330 0.75755 0.14040 1.09600
Ni	Ni	0.75671 0.51475 0.89297 1.09600
Ni	Ni	0.51507 0.25582 0.14029 1.10100
Ni	Ni	0.24338 0.48623 0.39118 1.09800
N 	N 	0.02950 0.27480 0.59860 -0.23800
C 	C 	0.07040 0.27700 0.61550 0.05900
H 	H 	0.07700 0.26470 0.64890 0.00700
C 	C 	0.10330 0.29630 0.58710 -0.12100
H 	H 	0.13140 0.29630 0.59970 0.07000
C 	C 	0.09150 0.31620 0.53720 0.06600
C 	C 	0.05100 0.31460 0.52020 -0.13500
H 	H 	0.04280 0.32760 0.48780 0.08900
C 	C 	0.02170 0.29330 0.55160 0.07100
H 	H 	0.99370 0.29170 0.53850 0.00900
C 	C 	0.12340 0.34070 0.50690 0.01600
C 	C 	0.15910 0.35750 0.53260 -0.06900
H 	H 	0.16450 0.35000 0.56850 0.05200
C 	C 	0.18660 0.38470 0.50670 -0.00400
H 	H 	0.20880 0.39820 0.52550 0.05300
C 	C 	0.18060 0.39170 0.45240 -0.06900
C 	C 	0.14850 0.37430 0.42560 0.00500
H 	H 	0.14510 0.37970 0.38860 0.04700
C 	C 	0.11900 0.34720 0.45300 -0.07500
H 	H 	0.09680 0.33410 0.43400 0.06500
C 	C 	0.20780 0.42460 0.42620 0.29200
O 	O 	0.23300 0.44560 0.45310 -0.38700
O 	O 	0.20340 0.43110 0.37630 -0.35200
N 	N 	0.04120 0.70480 0.17250 -0.23000
C 	C 	0.03500 0.69910 0.22590 0.04900
H 	H 	0.01490 0.71520 0.24490 0.02500
C 	C 	0.05970 0.66830 0.25160 -0.11700
H 	H 	0.05660 0.66480 0.28900 0.08400
C 	C 	0.08770 0.64350 0.22570 0.07600
C 	C 	0.09100 0.64900 0.17200 -0.13500
H 	H 	0.10960 0.63170 0.15210 0.07600
C 	C 	0.06750 0.67960 0.14610 0.08100
H 	H 	0.07020 0.68270 0.10870 -0.00200
C 	C 	0.11080 0.61230 0.25590 0.00900
C 	C 	0.10020 0.59590 0.30380 -0.07000
H 	H 	0.07330 0.60240 0.31790 0.05900
C 	C 	0.12580 0.57070 0.33260 0.00100
H 	H 	0.11640 0.56070 0.36630 0.04300
C 	C 	0.16530 0.55910 0.31430 -0.06800
C 	C 	0.17820 0.57420 0.26500 -0.00600
H 	H 	0.20430 0.56560 0.25020 0.05300
C 	C 	0.15230 0.60240 0.23730 -0.06400
H 	H 	0.16240 0.61510 0.20550 0.05200
C 	C 	0.19380 0.53170 0.34690 0.27500
O 	O 	0.18540 0.52170 0.39480 -0.35700
O 	O 	0.22930 0.52190 0.32690 -0.38300
N 	N 	0.22530 0.96890 0.93300 -0.23600
C 	C 	0.20740 0.97750 0.97980 0.06000
H 	H 	0.20850 0.00560 0.99220 0.01100
C 	C 	0.18680 0.94740 0.01220 -0.11900
H 	H 	0.17540 0.95500 0.04580 0.08300
C 	C 	0.18400 0.90720 0.99390 0.05500
C 	C 	0.20270 0.89580 0.94510 -0.12000
H 	H 	0.20210 0.86780 0.93220 0.06900
C 	C 	0.22280 0.92930 0.91630 0.06400
H 	H 	0.23520 0.92270 0.88290 0.00500
C 	C 	0.15970 0.87570 0.02510 0.03300
C 	C 	0.15420 0.88030 0.07910 -0.08700
H 	H 	0.16840 0.90180 0.09830 0.07000
C 	C 	0.12640 0.85190 0.10560 0.01400
H 	H 	0.12020 0.85580 0.14220 0.04300
C 	C 	0.10900 0.81920 0.07890 -0.07700
C 	C 	0.11640 0.81280 0.02600 0.01000
H 	H 	0.10350 0.79010 0.00770 0.05000
C 	C 	0.14380 0.84090 0.99880 -0.08700
H 	H 	0.15110 0.83580 0.96270 0.05700
C 	C 	0.07560 0.79280 0.10530 0.29200
O 	O 	0.06860 0.79640 0.15550 -0.35100
O 	O 	0.05420 0.76760 0.07860 -0.38600
N 	N 	0.29590 0.45820 0.35800 -0.24100
C 	C 	0.31840 0.43000 0.38300 0.10500
H 	H 	0.31310 0.42500 0.41970 -0.01200
C 	C 	0.34860 0.40800 0.35860 -0.15700
H 	H 	0.36510 0.38900 0.37900 0.08300
C 	C 	0.35670 0.41190 0.30470 0.08800
C 	C 	0.33280 0.43940 0.27840 -0.13500
H 	H 	0.33630 0.44310 0.24110 0.09100
C 	C 	0.30150 0.46370 0.30670 0.07000
H 	H 	0.28500 0.48380 0.28810 0.01600
C 	C 	0.38830 0.38770 0.27460 0.00900
C 	C 	0.40600 0.40090 0.22920 -0.07300
H 	H 	0.39920 0.42790 0.21540 0.05900
C 	C 	0.43480 0.37450 0.20180 0.00700
H 	H 	0.44980 0.38560 0.17230 0.04200
C 	C 	0.44140 0.33440 0.21640 -0.07900
C 	C 	0.42300 0.32020 0.26490 0.00200
H 	H 	0.43020 0.29330 0.27860 0.04900
C 	C 	0.39520 0.34470 0.29170 -0.07000
H 	H 	0.38050 0.33380 0.32150 0.05400
C 	C 	0.46910 0.30520 0.18410 0.30700
O 	O 	0.48060 0.31530 0.13890 -0.36900
O 	O 	0.47920 0.27040 0.20400 -0.39600
N 	N 	0.72720 0.46880 0.93490 -0.23900
C 	C 	0.72390 0.42900 0.91600 0.06000
H 	H 	0.73610 0.42310 0.88230 0.00500
C 	C 	0.70400 0.39610 0.94290 -0.11600
H 	H 	0.70190 0.36900 0.92720 0.06800
C 	C 	0.68710 0.40400 0.99360 0.04800
C 	C 	0.69240 0.44620 0.01280 -0.12200
H 	H 	0.68260 0.45340 0.04730 0.08500
C 	C 	0.71110 0.47550 0.98280 0.07400
H 	H 	0.71300 0.50320 0.99690 0.00600
C 	C 	0.66370 0.37190 0.02360 0.03700
C 	C 	0.65870 0.37490 0.07780 -0.09000
H 	H 	0.67370 0.39570 0.09720 0.06900
C 	C 	0.63100 0.34690 0.10530 0.02000
H 	H 	0.62650 0.35020 0.14250 0.04200
C 	C 	0.61090 0.31560 0.07850 -0.08900
C 	C 	0.61760 0.31150 0.02430 0.02000
H 	H 	0.60320 0.29020 0.00510 0.04800
C 	C 	0.64530 0.33820 0.99700 -0.09400
H 	H 	0.65150 0.33320 0.96050 0.06100
C 	C 	0.57820 0.29020 0.10700 0.31400
O 	O 	0.55570 0.26550 0.07930 -0.39000
O 	O 	0.57140 0.29430 0.15490 -0.36500
N 	N 	0.95900 0.29690 0.67340 -0.24100
C 	C 	0.93610 0.32540 0.64670 0.08400
H 	H 	0.93460 0.32290 0.60900 -0.00400
C 	C 	0.91440 0.35800 0.67030 -0.14100
H 	H 	0.89950 0.37800 0.64940 0.07900
C 	C 	0.91520 0.36100 0.72690 0.08600
C 	C 	0.94030 0.33450 0.75150 -0.15000
H 	H 	0.94370 0.33710 0.78900 0.09500
C 	C 	0.96190 0.30330 0.72520 0.08700
H 	H 	0.97970 0.28540 0.74540 0.01000
C 	C 	0.89000 0.39310 0.75490 0.00700
C 	C 	0.84990 0.40180 0.73690 -0.06400
H 	H 	0.84060 0.39060 0.70380 0.05200
C 	C 	0.82260 0.42740 0.76740 -0.00700
H 	H 	0.79470 0.43280 0.75580 0.05300
C 	C 	0.83710 0.44410 0.81380 -0.06600
C 	C 	0.87870 0.43820 0.83010 -0.00300
H 	H 	0.88920 0.45200 0.86090 0.04400
C 	C 	0.90430 0.41180 0.80060 -0.06800
H 	H 	0.93220 0.40670 0.81210 0.05800
C 	C 	0.80760 0.47020 0.84710 0.27700
O 	O 	0.77220 0.47970 0.82810 -0.38700
O 	O 	0.81790 0.48250 0.89400 -0.35100
N 	N 	0.96860 0.72660 0.09960 -0.23900
C 	C 	0.97550 0.71090 0.05110 0.06500
H 	H 	0.00320 0.71300 0.03730 0.01200
C 	C 	0.94530 0.69150 0.01880 -0.11700
H 	H 	0.95200 0.68140 0.98420 0.08300
C 	C 	0.90360 0.68760 0.04060 0.05700
C 	C 	0.89530 0.70350 0.08990 -0.11800
H 	H 	0.86800 0.70120 0.10500 0.06900
C 	C 	0.92830 0.72360 0.11830 0.05500
H 	H 	0.92200 0.73550 0.15210 0.00700
C 	C 	0.87120 0.66420 0.00970 0.03000
C 	C 	0.87470 0.66040 0.95470 -0.08900
H 	H 	0.89560 0.67540 0.93550 0.06900
C 	C 	0.84620 0.63370 0.92840 0.01300
H 	H 	0.84780 0.63140 0.89080 0.04300
C 	C 	0.81600 0.61080 0.95510 -0.07700
C 	C 	0.81160 0.61700 0.00860 0.00800
H 	H 	0.79040 0.60220 0.02750 0.05200
C 	C 	0.83850 0.64540 0.03650 -0.08100
H 	H 	0.83390 0.65110 0.07320 0.05700
C 	C 	0.78990 0.57750 0.92730 0.29800
O 	O 	0.79430 0.57220 0.87790 -0.35300
O 	O 	0.76620 0.55580 0.95540 -0.38800
N 	N 	0.79600 0.95950 0.36140 -0.23800
C 	C 	0.80050 0.96300 0.30770 0.05700
H 	H 	0.78200 0.98040 0.28790 0.02000
C 	C 	0.83300 0.94040 0.28140 -0.12700
H 	H 	0.83580 0.94270 0.24390 0.08900
C 	C 	0.85940 0.91620 0.30800 0.07500
C 	C 	0.85830 0.91470 0.36380 -0.13300
H 	H 	0.87830 0.89940 0.38410 0.07700
C 	C 	0.82410 0.93810 0.38800 0.08000
H 	H 	0.82210 0.93790 0.42570 -0.00400
C 	C 	0.89290 0.89120 0.28040 0.01500
C 	C 	0.91030 0.90320 0.23200 -0.07900
H 	H 	0.90510 0.93080 0.21940 0.06200
C 	C 	0.93390 0.87790 0.20240 0.01100
H 	H 	0.94400 0.88770 0.16900 0.04000
C 	C 	0.92930 0.82420 0.27010 0.00100
H 	H 	0.93780 0.79790 0.28460 0.04900
C 	C 	0.90200 0.85040 0.29920 -0.07200
H 	H 	0.88980 0.84060 0.33140 0.05400
C 	C 	0.96860 0.80780 0.18630 0.28300
O 	O 	0.97830 0.77200 0.20700 -0.37800
O 	O 	0.97910 0.81810 0.14020 -0.35700
C 	C 	0.94430 0.83680 0.21920 -0.07800
Ni	Ni	0.48670 0.74245 0.64040 1.09600
Ni	Ni	0.74329 0.98525 0.39297 1.09700
Ni	Ni	0.98493 0.24418 0.64029 1.10100
Ni	Ni	0.25662 0.01377 0.89118 1.09800
N 	N 	0.47050 0.22520 0.09860 -0.23700
C 	C 	0.42960 0.22300 0.11550 0.05700
H 	H 	0.42300 0.23530 0.14890 0.00700
C 	C 	0.39670 0.20370 0.08710 -0.11700
H 	H 	0.36860 0.20370 0.09970 0.06900
C 	C 	0.40850 0.18380 0.03720 0.06000
C 	C 	0.44900 0.18540 0.02020 -0.12600
H 	H 	0.45720 0.17240 0.98780 0.08400
C 	C 	0.47830 0.20670 0.05160 0.06700
H 	H 	0.50630 0.20830 0.03850 0.01100
C 	C 	0.37660 0.15930 0.00690 0.02500
C 	C 	0.34090 0.14250 0.03260 -0.07600
H 	H 	0.33550 0.15000 0.06850 0.05500
C 	C 	0.31340 0.11530 0.00670 0.00500
H 	H 	0.29120 0.10180 0.02550 0.05100
C 	C 	0.31940 0.10830 0.95240 -0.07600
C 	C 	0.35150 0.12570 0.92560 0.01100
H 	H 	0.35490 0.12030 0.88860 0.04500
C 	C 	0.38100 0.15280 0.95300 -0.08500
H 	H 	0.40320 0.16590 0.93400 0.06800
C 	C 	0.29220 0.07540 0.92620 0.29400
O 	O 	0.26700 0.05440 0.95310 -0.38900
O 	O 	0.29660 0.06890 0.87630 -0.35200
N 	N 	0.45880 0.79520 0.67250 -0.23000
C 	C 	0.46500 0.80090 0.72590 0.04900
H 	H 	0.48510 0.78480 0.74490 0.02500
C 	C 	0.44030 0.83170 0.75160 -0.11700
H 	H 	0.44340 0.83520 0.78900 0.08400
C 	C 	0.41230 0.85650 0.72570 0.07600
C 	C 	0.40900 0.85100 0.67200 -0.13600
H 	H 	0.39040 0.86830 0.65210 0.07600
C 	C 	0.43250 0.82040 0.64610 0.08100
H 	H 	0.42980 0.81730 0.60870 -0.00200
C 	C 	0.38920 0.88770 0.75590 0.00900
C 	C 	0.39980 0.90410 0.80380 -0.07000
H 	H 	0.42670 0.89760 0.81790 0.05900
C 	C 	0.37420 0.92930 0.83260 0.00100
H 	H 	0.38360 0.93930 0.86630 0.04300
C 	C 	0.33470 0.94090 0.81430 -0.06800
C 	C 	0.32180 0.92580 0.76500 -0.00600
H 	H 	0.29570 0.93440 0.75020 0.05300
C 	C 	0.34770 0.89760 0.73730 -0.06400
H 	H 	0.33760 0.88490 0.70550 0.05200
C 	C 	0.30620 0.96830 0.84690 0.27500
O 	O 	0.31460 0.97830 0.89480 -0.35700
O 	O 	0.27070 0.97810 0.82690 -0.38300
N 	N 	0.27470 0.53110 0.43300 -0.23800
C 	C 	0.29260 0.52250 0.47980 0.06900
H 	H 	0.29150 0.49440 0.49220 0.00900
C 	C 	0.31320 0.55260 0.51220 -0.13400
H 	H 	0.32460 0.54500 0.54580 0.08800
C 	C 	0.31600 0.59280 0.49390 0.07000
C 	C 	0.29730 0.60420 0.44510 -0.12700
H 	H 	0.29790 0.63220 0.43220 0.07200
C 	C 	0.27720 0.57070 0.41630 0.06800
H 	H 	0.26480 0.57730 0.38290 0.00300
C 	C 	0.34030 0.62430 0.52510 0.01800
C 	C 	0.34580 0.61970 0.57910 -0.07700
H 	H 	0.33160 0.59820 0.59830 0.06600
C 	C 	0.37360 0.64810 0.60560 0.00600
H 	H 	0.37980 0.64420 0.64220 0.04600
C 	C 	0.39100 0.68080 0.57890 -0.07000
C 	C 	0.38360 0.68720 0.52600 -0.00300
H 	H 	0.39650 0.70990 0.50770 0.05400
C 	C 	0.35620 0.65910 0.49880 -0.07100
H 	H 	0.34890 0.66420 0.46270 0.05200
C 	C 	0.42440 0.70720 0.60530 0.28900
O 	O 	0.43140 0.70360 0.65550 -0.35000
O 	O 	0.44580 0.73240 0.57860 -0.38600
N 	N 	0.20410 0.04180 0.85800 -0.24100
C 	C 	0.18160 0.07000 0.88300 0.10500
H 	H 	0.18690 0.07500 0.91970 -0.01300
C 	C 	0.15140 0.09200 0.85860 -0.15700
H 	H 	0.13490 0.11100 0.87900 0.08300
C 	C 	0.14330 0.08810 0.80470 0.08800
C 	C 	0.16720 0.06060 0.77840 -0.13500
H 	H 	0.16370 0.05690 0.74110 0.09000
C 	C 	0.19850 0.03630 0.80670 0.07000
H 	H 	0.21500 0.01620 0.78810 0.01600
C 	C 	0.11170 0.11230 0.77460 0.00900
C 	C 	0.09400 0.09910 0.72920 -0.07300
H 	H 	0.10080 0.07210 0.71540 0.05900
C 	C 	0.06520 0.12550 0.70180 0.00700
H 	H 	0.05020 0.11440 0.67230 0.04200
C 	C 	0.05860 0.16560 0.71640 -0.07900
C 	C 	0.07700 0.17980 0.76490 0.00200
H 	H 	0.06980 0.20670 0.77860 0.04900
C 	C 	0.10480 0.15530 0.79170 -0.07000
H 	H 	0.11950 0.16620 0.82150 0.05400
C 	C 	0.03090 0.19480 0.68410 0.30700
O 	O 	0.01940 0.18470 0.63890 -0.36900
O 	O 	0.02080 0.22960 0.70400 -0.39600
N 	N 	0.77280 0.03120 0.43490 -0.24100
C 	C 	0.77610 0.07100 0.41600 0.06500
H 	H 	0.76390 0.07690 0.38230 0.00400
C 	C 	0.79600 0.10390 0.44290 -0.12400
H 	H 	0.79810 0.13100 0.42720 0.07100
C 	C 	0.81290 0.09600 0.49360 0.06300
C 	C 	0.80760 0.05380 0.51280 -0.13800
H 	H 	0.81740 0.04660 0.54730 0.09000
C 	C 	0.78890 0.02450 0.48280 0.08500
H 	H 	0.78700 0.99680 0.49690 0.00400
C 	C 	0.83630 0.12810 0.52360 0.02100
C 	C 	0.84130 0.12510 0.57780 -0.07900
H 	H 	0.82630 0.10430 0.59720 0.06500
C 	C 	0.86900 0.15310 0.60530 0.01200
H 	H 	0.87350 0.14980 0.64250 0.04400
C 	C 	0.88910 0.18440 0.57850 -0.08200
C 	C 	0.88240 0.18850 0.52430 0.00700
H 	H 	0.89680 0.20980 0.50510 0.05100
C 	C 	0.85470 0.16180 0.49700 -0.07700
H 	H 	0.84850 0.16680 0.46050 0.05500
C 	C 	0.92180 0.20980 0.60700 0.31100
O 	O 	0.94430 0.23450 0.57930 -0.39000
O 	O 	0.92860 0.20570 0.65490 -0.36500
N 	N 	0.54100 0.20310 0.17340 -0.24100
C 	C 	0.56390 0.17460 0.14670 0.08400
H 	H 	0.56540 0.17710 0.10900 -0.00400
C 	C 	0.58560 0.14200 0.17030 -0.14100
H 	H 	0.60050 0.12200 0.14940 0.07900
C 	C 	0.58480 0.13900 0.22690 0.08600
C 	C 	0.55970 0.16550 0.25150 -0.15000
H 	H 	0.55630 0.16290 0.28900 0.09500
C 	C 	0.53810 0.19670 0.22520 0.08700
H 	H 	0.52030 0.21460 0.24540 0.01000
C 	C 	0.61000 0.10690 0.25490 0.00700
C 	C 	0.65010 0.09820 0.23690 -0.06400
H 	H 	0.65940 0.10940 0.20380 0.05200
C 	C 	0.67740 0.07260 0.26740 -0.00700
H 	H 	0.70530 0.06720 0.25580 0.05300
C 	C 	0.66290 0.05590 0.31380 -0.06600
C 	C 	0.62130 0.06180 0.33010 -0.00400
H 	H 	0.61080 0.04800 0.36090 0.04400
C 	C 	0.59570 0.08820 0.30060 -0.06800
H 	H 	0.56780 0.09330 0.31210 0.05800
C 	C 	0.69240 0.02980 0.34710 0.27700
O 	O 	0.72780 0.02030 0.32810 -0.38700
O 	O 	0.68210 0.01750 0.39400 -0.35100
N 	N 	0.53140 0.77340 0.59960 -0.24000
C 	C 	0.52450 0.78910 0.55110 0.06900
H 	H 	0.49680 0.78700 0.53730 0.01000
C 	C 	0.55470 0.80850 0.51880 -0.12600
H 	H 	0.54800 0.81860 0.48420 0.08700
C 	C 	0.59640 0.81240 0.54060 0.06200
C 	C 	0.60470 0.79650 0.58990 -0.12100
H 	H 	0.63200 0.79880 0.60500 0.07000
C 	C 	0.57170 0.77640 0.61830 0.05700
H 	H 	0.57800 0.76450 0.65210 0.00600
C 	C 	0.62880 0.83580 0.50970 0.02100
C 	C 	0.62530 0.83960 0.45470 -0.07900
H 	H 	0.60440 0.82460 0.43550 0.06600
C 	C 	0.65380 0.86630 0.42840 0.00700
H 	H 	0.65220 0.86860 0.39080 0.04600
C 	C 	0.68400 0.88920 0.45510 -0.06900
C 	C 	0.68840 0.88300 0.50860 -0.00100
H 	H 	0.70960 0.89780 0.52750 0.05500
C 	C 	0.66150 0.85460 0.53650 -0.07400
H 	H 	0.66610 0.84890 0.57320 0.05400
C 	C 	0.71010 0.92250 0.42730 0.29600
O 	O 	0.70570 0.92780 0.37790 -0.35200
O 	O 	0.73380 0.94420 0.45540 -0.38700
N 	N 	0.70400 0.54050 0.86140 -0.23800
C 	C 	0.69950 0.53700 0.80770 0.05700
H 	H 	0.71800 0.51960 0.78790 0.02000
C 	C 	0.66700 0.55960 0.78140 -0.12700
H 	H 	0.66420 0.55730 0.74390 0.08900
C 	C 	0.64060 0.58380 0.80800 0.07500
C 	C 	0.64170 0.58530 0.86380 -0.13300
H 	H 	0.62170 0.60060 0.88410 0.07600
C 	C 	0.67590 0.56190 0.88800 0.08000
H 	H 	0.67790 0.56210 0.92570 -0.00400
C 	C 	0.60710 0.60880 0.78040 0.01500
C 	C 	0.58970 0.59680 0.73200 -0.07900
H 	H 	0.59490 0.56920 0.71940 0.06200
C 	C 	0.56610 0.62210 0.70240 0.01100
H 	H 	0.55600 0.61230 0.66900 0.04000
C 	C 	0.57070 0.67580 0.77010 0.00100
H 	H 	0.56220 0.70210 0.78460 0.04900
C 	C 	0.59800 0.64960 0.79920 -0.07200
H 	H 	0.61020 0.65940 0.83140 0.05400
C 	C 	0.53140 0.69220 0.68630 0.28300
O 	O 	0.52170 0.72800 0.70700 -0.37800
O 	O 	0.52090 0.68190 0.64020 -0.35800
C 	C 	0.55570 0.66320 0.71920 -0.07800
Ni	Ni	0.74245 0.51330 0.64040 1.09600
Ni	Ni	0.98525 0.25671 0.39297 1.09700
Ni	Ni	0.24418 0.01507 0.64029 1.10100
Ni	Ni	0.01377 0.74338 0.89118 1.09800
N 	N 	0.22520 0.52950 0.09860 -0.23700
C 	C 	0.22300 0.57040 0.11550 0.05700
H 	H 	0.23530 0.57700 0.14890 0.00700
C 	C 	0.20370 0.60330 0.08710 -0.11700
H 	H 	0.20370 0.63140 0.09970 0.06900
C 	C 	0.18380 0.59150 0.03720 0.06000
C 	C 	0.18540 0.55100 0.02020 -0.12600
H 	H 	0.17240 0.54280 0.98780 0.08400
C 	C 	0.20670 0.52170 0.05160 0.06700
H 	H 	0.20830 0.49370 0.03850 0.01100
C 	C 	0.15930 0.62340 0.00690 0.02500
C 	C 	0.14250 0.65910 0.03260 -0.07600
H 	H 	0.15000 0.66450 0.06850 0.05500
C 	C 	0.11530 0.68660 0.00670 0.00500
H 	H 	0.10180 0.70880 0.02550 0.05100
C 	C 	0.10830 0.68060 0.95240 -0.07600
C 	C 	0.12570 0.64850 0.92560 0.01100
H 	H 	0.12030 0.64510 0.88860 0.04500
C 	C 	0.15280 0.61900 0.95300 -0.08500
H 	H 	0.16590 0.59680 0.93400 0.06800
C 	C 	0.07540 0.70780 0.92620 0.29400
O 	O 	0.05440 0.73300 0.95310 -0.38900
O 	O 	0.06890 0.70340 0.87630 -0.35200
N 	N 	0.79520 0.54120 0.67250 -0.23000
C 	C 	0.80090 0.53500 0.72590 0.04900
H 	H 	0.78480 0.51490 0.74490 0.02500
C 	C 	0.83170 0.55970 0.75160 -0.11700
H 	H 	0.83520 0.55660 0.78900 0.08400
C 	C 	0.85650 0.58770 0.72570 0.07600
C 	C 	0.85100 0.59100 0.67200 -0.13600
H 	H 	0.86830 0.60960 0.65210 0.07600
C 	C 	0.82040 0.56750 0.64610 0.08100
H 	H 	0.81730 0.57020 0.60870 -0.00200
C 	C 	0.88770 0.61080 0.75590 0.00900
C 	C 	0.90410 0.60020 0.80380 -0.07000
H 	H 	0.89760 0.57330 0.81790 0.05900
C 	C 	0.92930 0.62580 0.83260 0.00100
H 	H 	0.93930 0.61640 0.86630 0.04300
C 	C 	0.94090 0.66530 0.81430 -0.06800
C 	C 	0.92580 0.67820 0.76500 -0.00600
H 	H 	0.93440 0.70430 0.75020 0.05300
C 	C 	0.89760 0.65230 0.73730 -0.06400
H 	H 	0.88490 0.66240 0.70550 0.05200
C 	C 	0.96830 0.69380 0.84690 0.27500
O 	O 	0.97830 0.68540 0.89480 -0.35700
O 	O 	0.97810 0.72930 0.82690 -0.38300
N 	N 	0.53110 0.72530 0.43300 -0.23800
C 	C 	0.52250 0.70740 0.47980 0.06900
H 	H 	0.49440 0.70850 0.49220 0.00900
C 	C 	0.55260 0.68680 0.51220 -0.13400
H 	H 	0.54500 0.67540 0.54580 0.08800
C 	C 	0.59280 0.68400 0.49390 0.07000
C 	C 	0.60420 0.70270 0.44510 -0.12700
H 	H 	0.63220 0.70210 0.43220 0.07200
C 	C 	0.57070 0.72280 0.41630 0.06800
H 	H 	0.57730 0.73520 0.38290 0.00300
C 	C 	0.62430 0.65970 0.52510 0.01800
C 	C 	0.61970 0.65420 0.57910 -0.07700
H 	H 	0.59820 0.66840 0.59830 0.06600
C 	C 	0.64810 0.62640 0.60560 0.00600
H 	H 	0.64420 0.62020 0.64220 0.04600
C 	C 	0.68080 0.60900 0.57890 -0.07000
C 	C 	0.68720 0.61640 0.52600 -0.00300
H 	H 	0.70990 0.60350 0.50770 0.05400
C 	C 	0.65910 0.64380 0.49880 -0.07100
H 	H 	0.66420 0.65110 0.46270 0.05200
C 	C 	0.70720 0.57560 0.60530 0.28900
O 	O 	0.70360 0.56860 0.65550 -0.35000
O 	O 	0.73240 0.55420 0.57860 -0.38600
N 	N 	0.04180 0.79590 0.85800 -0.24100
C 	C 	0.07000 0.81840 0.88300 0.10500
H 	H 	0.07500 0.81310 0.91970 -0.01300
C 	C 	0.09200 0.84860 0.85860 -0.15700
H 	H 	0.11100 0.86510 0.87900 0.08300
C 	C 	0.08810 0.85670 0.80470 0.08800
C 	C 	0.06060 0.83280 0.77840 -0.13500
H 	H 	0.05690 0.83630 0.74110 0.09000
C 	C 	0.03630 0.80150 0.80670 0.07000
H 	H 	0.01620 0.78500 0.78810 0.01600
C 	C 	0.11230 0.88830 0.77460 0.00900
C 	C 	0.09910 0.90600 0.72920 -0.07300
H 	H 	0.07210 0.89920 0.71540 0.05900
C 	C 	0.12550 0.93480 0.70180 0.00700
H 	H 	0.11440 0.94980 0.67230 0.04200
C 	C 	0.16560 0.94140 0.71640 -0.07900
C 	C 	0.17980 0.92300 0.76490 0.00200
H 	H 	0.20670 0.93020 0.77860 0.04900
C 	C 	0.15530 0.89520 0.79170 -0.07000
H 	H 	0.16620 0.88050 0.82150 0.05400
C 	C 	0.19480 0.96910 0.68410 0.30700
O 	O 	0.18470 0.98060 0.63890 -0.36900
O 	O 	0.22960 0.97920 0.70400 -0.39600
N 	N 	0.03120 0.22720 0.43490 -0.24100
C 	C 	0.07100 0.22390 0.41600 0.06500
H 	H 	0.07690 0.23610 0.38230 0.00400
C 	C 	0.10390 0.20400 0.44290 -0.12400
H 	H 	0.13100 0.20190 0.42720 0.07100
C 	C 	0.09600 0.18710 0.49360 0.06300
C 	C 	0.05380 0.19240 0.51280 -0.13800
H 	H 	0.04660 0.18260 0.54730 0.09000
C 	C 	0.02450 0.21110 0.48280 0.08500
H 	H 	0.99680 0.21300 0.49690 0.00400
C 	C 	0.12810 0.16370 0.52360 0.02100
C 	C 	0.12510 0.15870 0.57780 -0.07900
H 	H 	0.10430 0.17370 0.59720 0.06500
C 	C 	0.15310 0.13100 0.60530 0.01200
H 	H 	0.14980 0.12650 0.64250 0.04400
C 	C 	0.18440 0.11090 0.57850 -0.08200
C 	C 	0.18850 0.11760 0.52430 0.00700
H 	H 	0.20980 0.10320 0.50510 0.05100
C 	C 	0.16180 0.14530 0.49700 -0.07700
H 	H 	0.16680 0.15150 0.46050 0.05500
C 	C 	0.20980 0.07820 0.60700 0.31100
O 	O 	0.23450 0.05570 0.57930 -0.39000
O 	O 	0.20570 0.07140 0.65490 -0.36500
N 	N 	0.20310 0.45900 0.17340 -0.24100
C 	C 	0.17460 0.43610 0.14670 0.08400
H 	H 	0.17710 0.43460 0.10900 -0.00400
C 	C 	0.14200 0.41440 0.17030 -0.14100
H 	H 	0.12200 0.39950 0.14940 0.07900
C 	C 	0.13900 0.41520 0.22690 0.08600
C 	C 	0.16550 0.44030 0.25150 -0.15000
H 	H 	0.16290 0.44370 0.28900 0.09500
C 	C 	0.19670 0.46190 0.22520 0.08700
H 	H 	0.21460 0.47970 0.24540 0.01000
C 	C 	0.10690 0.39000 0.25490 0.00700
C 	C 	0.09820 0.34990 0.23690 -0.06400
H 	H 	0.10940 0.34060 0.20380 0.05200
C 	C 	0.07260 0.32260 0.26740 -0.00700
H 	H 	0.06720 0.29470 0.25580 0.05300
C 	C 	0.05590 0.33710 0.31380 -0.06600
C 	C 	0.06180 0.37870 0.33010 -0.00400
H 	H 	0.04800 0.38920 0.36090 0.04400
C 	C 	0.08820 0.40430 0.30060 -0.06800
H 	H 	0.09330 0.43220 0.31210 0.05800
C 	C 	0.02980 0.30760 0.34710 0.27700
O 	O 	0.02030 0.27220 0.32810 -0.38700
O 	O 	0.01750 0.31790 0.39400 -0.35100
N 	N 	0.77340 0.46860 0.59960 -0.24000
C 	C 	0.78910 0.47550 0.55110 0.06900
H 	H 	0.78700 0.50320 0.53730 0.01000
C 	C 	0.80850 0.44530 0.51880 -0.12600
H 	H 	0.81860 0.45200 0.48420 0.08700
C 	C 	0.81240 0.40360 0.54060 0.06200
C 	C 	0.79650 0.39530 0.58990 -0.12100
H 	H 	0.79880 0.36800 0.60500 0.07000
C 	C 	0.77640 0.42830 0.61830 0.05700
H 	H 	0.76450 0.42200 0.65210 0.00600
C 	C 	0.83580 0.37120 0.50970 0.02100
C 	C 	0.83960 0.37470 0.45470 -0.07900
H 	H 	0.82460 0.39560 0.43550 0.06600
C 	C 	0.86630 0.34620 0.42840 0.00700
H 	H 	0.86860 0.34780 0.39080 0.04600
C 	C 	0.88920 0.31600 0.45510 -0.06900
C 	C 	0.88300 0.31160 0.50860 -0.00100
H 	H 	0.89780 0.29040 0.52750 0.05500
C 	C 	0.85460 0.33850 0.53650 -0.07400
H 	H 	0.84890 0.33390 0.57320 0.05400
C 	C 	0.92250 0.28990 0.42730 0.29600
O 	O 	0.92780 0.29430 0.37790 -0.35200
O 	O 	0.94420 0.26620 0.45540 -0.38700
N 	N 	0.54050 0.29600 0.86140 -0.23800
C 	C 	0.53700 0.30050 0.80770 0.05700
H 	H 	0.51960 0.28200 0.78790 0.02000
C 	C 	0.55960 0.33300 0.78140 -0.12700
H 	H 	0.55730 0.33580 0.74390 0.08900
C 	C 	0.58380 0.35940 0.80800 0.07500
C 	C 	0.58530 0.35830 0.86380 -0.13300
H 	H 	0.60060 0.37830 0.88410 0.07600
C 	C 	0.56190 0.32410 0.88800 0.08000
H 	H 	0.56210 0.32210 0.92570 -0.00400
C 	C 	0.60880 0.39290 0.78040 0.01500
C 	C 	0.59680 0.41030 0.73200 -0.07900
H 	H 	0.56920 0.40510 0.71940 0.06200
C 	C 	0.62210 0.43390 0.70240 0.01100
H 	H 	0.61230 0.44400 0.66900 0.04000
C 	C 	0.67580 0.42930 0.77010 0.00100
H 	H 	0.70210 0.43780 0.78460 0.04900
C 	C 	0.64960 0.40200 0.79920 -0.07200
H 	H 	0.65940 0.38980 0.83140 0.05400
C 	C 	0.69220 0.46860 0.68630 0.28300
O 	O 	0.72800 0.47830 0.70700 -0.37800
O 	O 	0.68190 0.47910 0.64020 -0.35800
C 	C 	0.66320 0.44430 0.71920 -0.07800
Ni	Ni	0.75755 0.98670 0.14040 1.09600
Ni	Ni	0.51475 0.24329 0.89297 1.09600
Ni	Ni	0.25582 0.48493 0.14029 1.10100
Ni	Ni	0.48623 0.75662 0.39118 1.09800
N 	N 	0.27480 0.97050 0.59860 -0.23800
C 	C 	0.27700 0.92960 0.61550 0.05900
H 	H 	0.26470 0.92300 0.64890 0.00700
C 	C 	0.29630 0.89670 0.58710 -0.12100
H 	H 	0.29630 0.86860 0.59970 0.07000
C 	C 	0.31620 0.90850 0.53720 0.06600
C 	C 	0.31460 0.94900 0.52020 -0.13500
H 	H 	0.32760 0.95720 0.48780 0.08900
C 	C 	0.29330 0.97830 0.55160 0.07100
H 	H 	0.29170 0.00630 0.53850 0.00900
C 	C 	0.34070 0.87660 0.50690 0.01600
C 	C 	0.35750 0.84090 0.53260 -0.06900
H 	H 	0.35000 0.83550 0.56850 0.05200
C 	C 	0.38470 0.81340 0.50670 -0.00400
H 	H 	0.39820 0.79120 0.52550 0.05300
C 	C 	0.39170 0.81940 0.45240 -0.06900
C 	C 	0.37430 0.85150 0.42560 0.00500
H 	H 	0.37970 0.85490 0.38860 0.04700
C 	C 	0.34720 0.88100 0.45300 -0.07500
H 	H 	0.33410 0.90320 0.43400 0.06500
C 	C 	0.42460 0.79220 0.42620 0.29200
O 	O 	0.44560 0.76700 0.45310 -0.38700
O 	O 	0.43110 0.79660 0.37630 -0.35200
N 	N 	0.70480 0.95880 0.17250 -0.23000
C 	C 	0.69910 0.96500 0.22590 0.04900
H 	H 	0.71520 0.98510 0.24490 0.02500
C 	C 	0.66830 0.94030 0.25160 -0.11700
H 	H 	0.66480 0.94340 0.28900 0.08400
C 	C 	0.64350 0.91230 0.22570 0.07600
C 	C 	0.64900 0.90900 0.17200 -0.13500
H 	H 	0.63170 0.89040 0.15210 0.07600
C 	C 	0.67960 0.93250 0.14610 0.08100
H 	H 	0.68270 0.92980 0.10870 -0.00200
C 	C 	0.61230 0.88920 0.25590 0.00900
C 	C 	0.59590 0.89980 0.30380 -0.07000
H 	H 	0.60240 0.92670 0.31790 0.05900
C 	C 	0.57070 0.87420 0.33260 0.00100
H 	H 	0.56070 0.88360 0.36630 0.04300
C 	C 	0.55910 0.83470 0.31430 -0.06800
C 	C 	0.57420 0.82180 0.26500 -0.00600
H 	H 	0.56560 0.79570 0.25020 0.05300
C 	C 	0.60240 0.84770 0.23730 -0.06400
H 	H 	0.61510 0.83760 0.20550 0.05200
C 	C 	0.53170 0.80620 0.34690 0.27500
O 	O 	0.52170 0.81460 0.39480 -0.35700
O 	O 	0.52190 0.77070 0.32690 -0.38300
N 	N 	0.96890 0.77470 0.93300 -0.23600
C 	C 	0.97750 0.79260 0.97980 0.06000
H 	H 	0.00560 0.79150 0.99220 0.01100
C 	C 	0.94740 0.81320 0.01220 -0.11900
H 	H 	0.95500 0.82460 0.04580 0.08300
C 	C 	0.90720 0.81600 0.99390 0.05500
C 	C 	0.89580 0.79730 0.94510 -0.12000
H 	H 	0.86780 0.79790 0.93220 0.06900
C 	C 	0.92930 0.77720 0.91630 0.06400
H 	H 	0.92270 0.76480 0.88290 0.00500
C 	C 	0.87570 0.84030 0.02510 0.03300
C 	C 	0.88030 0.84580 0.07910 -0.08700
H 	H 	0.90180 0.83160 0.09830 0.07000
C 	C 	0.85190 0.87360 0.10560 0.01400
H 	H 	0.85580 0.87980 0.14220 0.04300
C 	C 	0.81920 0.89100 0.07890 -0.07700
C 	C 	0.81280 0.88360 0.02600 0.01000
H 	H 	0.79010 0.89650 0.00770 0.05000
C 	C 	0.84090 0.85620 0.99880 -0.08700
H 	H 	0.83580 0.84890 0.96270 0.05700
C 	C 	0.79280 0.92440 0.10530 0.29200
O 	O 	0.79640 0.93140 0.15550 -0.35100
O 	O 	0.76760 0.94580 0.07860 -0.38600
N 	N 	0.45820 0.70410 0.35800 -0.24100
C 	C 	0.43000 0.68160 0.38300 0.10500
H 	H 	0.42500 0.68690 0.41970 -0.01200
C 	C 	0.40800 0.65140 0.35860 -0.15700
H 	H 	0.38900 0.63490 0.37900 0.08300
C 	C 	0.41190 0.64330 0.30470 0.08800
C 	C 	0.43940 0.66720 0.27840 -0.13500
H 	H 	0.44310 0.66370 0.24110 0.09100
C 	C 	0.46370 0.69850 0.30670 0.07000
H 	H 	0.48380 0.71500 0.28810 0.01600
C 	C 	0.38770 0.61170 0.27460 0.00900
C 	C 	0.40090 0.59400 0.22920 -0.07300
H 	H 	0.42790 0.60080 0.21540 0.05900
C 	C 	0.37450 0.56520 0.20180 0.00700
H 	H 	0.38560 0.55020 0.17230 0.04200
C 	C 	0.33440 0.55860 0.21640 -0.07900
C 	C 	0.32020 0.57700 0.26490 0.00200
H 	H 	0.29330 0.56980 0.27860 0.04900
C 	C 	0.34470 0.60480 0.29170 -0.07000
H 	H 	0.33380 0.61950 0.32150 0.05400
C 	C 	0.30520 0.53090 0.18410 0.30700
O 	O 	0.31530 0.51940 0.13890 -0.36900
O 	O 	0.27040 0.52080 0.20400 -0.39600
N 	N 	0.46880 0.27280 0.93490 -0.23900
C 	C 	0.42900 0.27610 0.91600 0.06000
H 	H 	0.42310 0.26390 0.88230 0.00500
C 	C 	0.39610 0.29600 0.94290 -0.11600
H 	H 	0.36900 0.29810 0.92720 0.06800
C 	C 	0.40400 0.31290 0.99360 0.04800
C 	C 	0.44620 0.30760 0.01280 -0.12200
H 	H 	0.45340 0.31740 0.04730 0.08500
C 	C 	0.47550 0.28890 0.98280 0.07400
H 	H 	0.50320 0.28700 0.99690 0.00600
C 	C 	0.37190 0.33630 0.02360 0.03700
C 	C 	0.37490 0.34130 0.07780 -0.09000
H 	H 	0.39570 0.32630 0.09720 0.06900
C 	C 	0.34690 0.36900 0.10530 0.02000
H 	H 	0.35020 0.37350 0.14250 0.04200
C 	C 	0.31560 0.38910 0.07850 -0.08900
C 	C 	0.31150 0.38240 0.02430 0.02000
H 	H 	0.29020 0.39680 0.00510 0.04800
C 	C 	0.33820 0.35470 0.99700 -0.09400
H 	H 	0.33320 0.34850 0.96050 0.06100
C 	C 	0.29020 0.42180 0.10700 0.31400
O 	O 	0.26550 0.44430 0.07930 -0.39000
O 	O 	0.29430 0.42860 0.15490 -0.36500
N 	N 	0.29690 0.04100 0.67340 -0.24100
C 	C 	0.32540 0.06390 0.64670 0.08400
H 	H 	0.32290 0.06540 0.60900 -0.00400
C 	C 	0.35800 0.08560 0.67030 -0.14100
H 	H 	0.37800 0.10050 0.64940 0.07900
C 	C 	0.36100 0.08480 0.72690 0.08600
C 	C 	0.33450 0.05970 0.75150 -0.15000
H 	H 	0.33710 0.05630 0.78900 0.09500
C 	C 	0.30330 0.03810 0.72520 0.08700
H 	H 	0.28540 0.02030 0.74540 0.01000
C 	C 	0.39310 0.11000 0.75490 0.00700
C 	C 	0.40180 0.15010 0.73690 -0.06400
H 	H 	0.39060 0.15940 0.70380 0.05200
C 	C 	0.42740 0.17740 0.76740 -0.00700
H 	H 	0.43280 0.20530 0.75580 0.05300
C 	C 	0.44410 0.16290 0.81380 -0.06600
C 	C 	0.43820 0.12130 0.83010 -0.00300
H 	H 	0.45200 0.11080 0.86090 0.04400
C 	C 	0.41180 0.09570 0.80060 -0.06800
H 	H 	0.40670 0.06780 0.81210 0.05800
C 	C 	0.47020 0.19240 0.84710 0.27700
O 	O 	0.47970 0.22780 0.82810 -0.38700
O 	O 	0.48250 0.18210 0.89400 -0.35100
N 	N 	0.72660 0.03140 0.09960 -0.23900
C 	C 	0.71090 0.02450 0.05110 0.06500
H 	H 	0.71300 0.99680 0.03730 0.01200
C 	C 	0.69150 0.05470 0.01880 -0.11700
H 	H 	0.68140 0.04800 0.98420 0.08300
C 	C 	0.68760 0.09640 0.04060 0.05700
C 	C 	0.70350 0.10470 0.08990 -0.11800
H 	H 	0.70120 0.13200 0.10500 0.06900
C 	C 	0.72360 0.07170 0.11830 0.05500
H 	H 	0.73550 0.07800 0.15210 0.00700
C 	C 	0.66420 0.12880 0.00970 0.03000
C 	C 	0.66040 0.12530 0.95470 -0.08900
H 	H 	0.67540 0.10440 0.93550 0.06900
C 	C 	0.63370 0.15380 0.92840 0.01300
H 	H 	0.63140 0.15220 0.89080 0.04300
C 	C 	0.61080 0.18400 0.95510 -0.07700
C 	C 	0.61700 0.18840 0.00860 0.00800
H 	H 	0.60220 0.20960 0.02750 0.05200
C 	C 	0.64540 0.16150 0.03650 -0.08100
H 	H 	0.65110 0.16610 0.07320 0.05700
C 	C 	0.57750 0.21010 0.92730 0.29800
O 	O 	0.57220 0.20570 0.87790 -0.35300
O 	O 	0.55580 0.23380 0.95540 -0.38800
N 	N 	0.95950 0.20400 0.36140 -0.23800
C 	C 	0.96300 0.19950 0.30770 0.05700
H 	H 	0.98040 0.21800 0.28790 0.02000
C 	C 	0.94040 0.16700 0.28140 -0.12700
H 	H 	0.94270 0.16420 0.24390 0.08900
C 	C 	0.91620 0.14060 0.30800 0.07500
C 	C 	0.91470 0.14170 0.36380 -0.13300
H 	H 	0.89940 0.12170 0.38410 0.07700
C 	C 	0.93810 0.17590 0.38800 0.08000
H 	H 	0.93790 0.17790 0.42570 -0.00400
C 	C 	0.89120 0.10710 0.28040 0.01500
C 	C 	0.90320 0.08970 0.23200 -0.07900
H 	H 	0.93080 0.09490 0.21940 0.06200
C 	C 	0.87790 0.06610 0.20240 0.01100
H 	H 	0.88770 0.05600 0.16900 0.04000
C 	C 	0.82420 0.07070 0.27010 0.00100
H 	H 	0.79790 0.06220 0.28460 0.04900
C 	C 	0.85040 0.09800 0.29920 -0.07200
H 	H 	0.84060 0.11020 0.33140 0.05400
C 	C 	0.80780 0.03140 0.18630 0.28300
O 	O 	0.77200 0.02170 0.20700 -0.37800
O 	O 	0.81810 0.02090 0.14020 -0.35700
C 	C 	0.83680 0.05570 0.21920 -0.07800
Ni	Ni	0.24245 0.01330 0.14040 1.09600
Ni	Ni	0.48525 0.75671 0.89297 1.09600
Ni	Ni	0.74418 0.51507 0.14029 1.10100
Ni	Ni	0.51377 0.24338 0.39118 1.09800
N 	N 	0.72520 0.02950 0.59860 -0.23800
C 	C 	0.72300 0.07040 0.61550 0.05900
H 	H 	0.73530 0.07700 0.64890 0.00700
C 	C 	0.70370 0.10330 0.58710 -0.12100
H 	H 	0.70370 0.13140 0.59970 0.07000
C 	C 	0.68380 0.09150 0.53720 0.06600
C 	C 	0.68540 0.05100 0.52020 -0.13500
H 	H 	0.67240 0.04280 0.48780 0.08900
C 	C 	0.70670 0.02170 0.55160 0.07100
H 	H 	0.70830 0.99370 0.53850 0.00900
C 	C 	0.65930 0.12340 0.50690 0.01600
C 	C 	0.64250 0.15910 0.53260 -0.06900
H 	H 	0.65000 0.16450 0.56850 0.05200
C 	C 	0.61530 0.18660 0.50670 -0.00400
H 	H 	0.60180 0.20880 0.52550 0.05300
C 	C 	0.60830 0.18060 0.45240 -0.06900
C 	C 	0.62570 0.14850 0.42560 0.00500
H 	H 	0.62030 0.14510 0.38860 0.04700
C 	C 	0.65280 0.11900 0.45300 -0.07500
H 	H 	0.66590 0.09680 0.43400 0.06500
C 	C 	0.57540 0.20780 0.42620 0.29200
O 	O 	0.55440 0.23300 0.45310 -0.38700
O 	O 	0.56890 0.20340 0.37630 -0.35200
N 	N 	0.29520 0.04120 0.17250 -0.23000
C 	C 	0.30090 0.03500 0.22590 0.04900
H 	H 	0.28480 0.01490 0.24490 0.02500
C 	C 	0.33170 0.05970 0.25160 -0.11700
H 	H 	0.33520 0.05660 0.28900 0.08400
C 	C 	0.35650 0.08770 0.22570 0.07600
C 	C 	0.35100 0.09100 0.17200 -0.13500
H 	H 	0.36830 0.10960 0.15210 0.07600
C 	C 	0.32040 0.06750 0.14610 0.08100
H 	H 	0.31730 0.07020 0.10870 -0.00200
C 	C 	0.38770 0.11080 0.25590 0.00900
C 	C 	0.40410 0.10020 0.30380 -0.07000
H 	H 	0.39760 0.07330 0.31790 0.05900
C 	C 	0.42930 0.12580 0.33260 0.00100
H 	H 	0.43930 0.11640 0.36630 0.04300
C 	C 	0.44090 0.16530 0.31430 -0.06800
C 	C 	0.42580 0.17820 0.26500 -0.00600
H 	H 	0.43440 0.20430 0.25020 0.05300
C 	C 	0.39760 0.15230 0.23730 -0.06400
H 	H 	0.38490 0.16240 0.20550 0.05200
C 	C 	0.46830 0.19380 0.34690 0.27500
O 	O 	0.47830 0.18540 0.39480 -0.35700
O 	O 	0.47810 0.22930 0.32690 -0.38300
N 	N 	0.03110 0.22530 0.93300 -0.23600
C 	C 	0.02250 0.20740 0.97980 0.06000
H 	H 	0.99440 0.20850 0.99220 0.01100
C 	C 	0.05260 0.18680 0.01220 -0.11900
H 	H 	0.04500 0.17540 0.04580 0.08300
C 	C 	0.09280 0.18400 0.99390 0.05500
C 	C 	0.10420 0.20270 0.94510 -0.12000
H 	H 	0.13220 0.20210 0.93220 0.06900
C 	C 	0.07070 0.22280 0.91630 0.06400
H 	H 	0.07730 0.23520 0.88290 0.00500
C 	C 	0.12430 0.15970 0.02510 0.03300
C 	C 	0.11970 0.15420 0.07910 -0.08700
H 	H 	0.09820 0.16840 0.09830 0.07000
C 	C 	0.14810 0.12640 0.10560 0.01400
H 	H 	0.14420 0.12020 0.14220 0.04300
C 	C 	0.18080 0.10900 0.07890 -0.07700
C 	C 	0.18720 0.11640 0.02600 0.01000
H 	H 	0.20990 0.10350 0.00770 0.05000
C 	C 	0.15910 0.14380 0.99880 -0.08700
H 	H 	0.16420 0.15110 0.96270 0.05700
C 	C 	0.20720 0.07560 0.10530 0.29200
O 	O 	0.20360 0.06860 0.15550 -0.35100
O 	O 	0.23240 0.05420 0.07860 -0.38600
N 	N 	0.54180 0.29590 0.35800 -0.24100
C 	C 	0.57000 0.31840 0.38300 0.10500
H 	H 	0.57500 0.31310 0.41970 -0.01200
C 	C 	0.59200 0.34860 0.35860 -0.15700
H 	H 	0.61100 0.36510 0.37900 0.08300
C 	C 	0.58810 0.35670 0.30470 0.08800
C 	C 	0.56060 0.33280 0.27840 -0.13500
H 	H 	0.55690 0.33630 0.24110 0.09100
C 	C 	0.53630 0.30150 0.30670 0.07000
H 	H 	0.51620 0.28500 0.28810 0.01600
C 	C 	0.61230 0.38830 0.27460 0.00900
C 	C 	0.59910 0.40600 0.22920 -0.07300
H 	H 	0.57210 0.39920 0.21540 0.05900
C 	C 	0.62550 0.43480 0.20180 0.00700
H 	H 	0.61440 0.44980 0.17230 0.04200
C 	C 	0.66560 0.44140 0.21640 -0.07900
C 	C 	0.67980 0.42300 0.26490 0.00200
H 	H 	0.70670 0.43020 0.27860 0.04900
C 	C 	0.65530 0.39520 0.29170 -0.07000
H 	H 	0.66620 0.38050 0.32150 0.05400
C 	C 	0.69480 0.46910 0.18410 0.30700
O 	O 	0.68470 0.48060 0.13890 -0.36900
O 	O 	0.72960 0.47920 0.20400 -0.39600
N 	N 	0.53120 0.72720 0.93490 -0.23900
C 	C 	0.57100 0.72390 0.91600 0.06000
H 	H 	0.57690 0.73610 0.88230 0.00500
C 	C 	0.60390 0.70400 0.94290 -0.11600
H 	H 	0.63100 0.70190 0.92720 0.06800
C 	C 	0.59600 0.68710 0.99360 0.04800
C 	C 	0.55380 0.69240 0.01280 -0.12200
H 	H 	0.54660 0.68260 0.04730 0.08500
C 	C 	0.52450 0.71110 0.98280 0.07400
H 	H 	0.49680 0.71300 0.99690 0.00600
C 	C 	0.62810 0.66370 0.02360 0.03700
C 	C 	0.62510 0.65870 0.07780 -0.09000
H 	H 	0.60430 0.67370 0.09720 0.06900
C 	C 	0.65310 0.63100 0.10530 0.02000
H 	H 	0.64980 0.62650 0.14250 0.04200
C 	C 	0.68440 0.61090 0.07850 -0.08900
C 	C 	0.68850 0.61760 0.02430 0.02000
H 	H 	0.70980 0.60320 0.00510 0.04800
C 	C 	0.66180 0.64530 0.99700 -0.09400
H 	H 	0.66680 0.65150 0.96050 0.06100
C 	C 	0.70980 0.57820 0.10700 0.31400
O 	O 	0.73450 0.55570 0.07930 -0.39000
O 	O 	0.70570 0.57140 0.15490 -0.36500
N 	N 	0.70310 0.95900 0.67340 -0.24100
C 	C 	0.67460 0.93610 0.64670 0.08400
H 	H 	0.67710 0.93460 0.60900 -0.00400
C 	C 	0.64200 0.91440 0.67030 -0.14100
H 	H 	0.62200 0.89950 0.64940 0.07900
C 	C 	0.63900 0.91520 0.72690 0.08600
C 	C 	0.66550 0.94030 0.75150 -0.15000
H 	H 	0.66290 0.94370 0.78900 0.09500
C 	C 	0.69670 0.96190 0.72520 0.08700
H 	H 	0.71460 0.97970 0.74540 0.01000
C 	C 	0.60690 0.89000 0.75490 0.00700
C 	C 	0.59820 0.84990 0.73690 -0.06400
H 	H 	0.60940 0.84060 0.70380 0.05200
C 	C 	0.57260 0.82260 0.76740 -0.00700
H 	H 	0.56720 0.79470 0.75580 0.05300
C 	C 	0.55590 0.83710 0.81380 -0.06600
C 	C 	0.56180 0.87870 0.83010 -0.00300
H 	H 	0.54800 0.88920 0.86090 0.04400
C 	C 	0.58820 0.90430 0.80060 -0.06800
H 	H 	0.59330 0.93220 0.81210 0.05800
C 	C 	0.52980 0.80760 0.84710 0.27700
O 	O 	0.52030 0.77220 0.82810 -0.38700
O 	O 	0.51750 0.81790 0.89400 -0.35100
N 	N 	0.27340 0.96860 0.09960 -0.23900
C 	C 	0.28910 0.97550 0.05110 0.06500
H 	H 	0.28700 0.00320 0.03730 0.01200
C 	C 	0.30850 0.94530 0.01880 -0.11700
H 	H 	0.31860 0.95200 0.98420 0.08300
C 	C 	0.31240 0.90360 0.04060 0.05700
C 	C 	0.29650 0.89530 0.08990 -0.11800
H 	H 	0.29880 0.86800 0.10500 0.06900
C 	C 	0.27640 0.92830 0.11830 0.05500
H 	H 	0.26450 0.92200 0.15210 0.00700
C 	C 	0.33580 0.87120 0.00970 0.03000
C 	C 	0.33960 0.87470 0.95470 -0.08900
H 	H 	0.32460 0.89560 0.93550 0.06900
C 	C 	0.36630 0.84620 0.92840 0.01300
H 	H 	0.36860 0.84780 0.89080 0.04300
C 	C 	0.38920 0.81600 0.95510 -0.07700
C 	C 	0.38300 0.81160 0.00860 0.00800
H 	H 	0.39780 0.79040 0.02750 0.05200
C 	C 	0.35460 0.83850 0.03650 -0.08100
H 	H 	0.34890 0.83390 0.07320 0.05700
C 	C 	0.42250 0.78990 0.92730 0.29800
O 	O 	0.42780 0.79430 0.87790 -0.35300
O 	O 	0.44420 0.76620 0.95540 -0.38800
N 	N 	0.04050 0.79600 0.36140 -0.23800
C 	C 	0.03700 0.80050 0.30770 0.05700
H 	H 	0.01960 0.78200 0.28790 0.02000
C 	C 	0.05960 0.83300 0.28140 -0.12700
H 	H 	0.05730 0.83580 0.24390 0.08900
C 	C 	0.08380 0.85940 0.30800 0.07500
C 	C 	0.08530 0.85830 0.36380 -0.13300
H 	H 	0.10060 0.87830 0.38410 0.07700
C 	C 	0.06190 0.82410 0.38800 0.08000
H 	H 	0.06210 0.82210 0.42570 -0.00400
C 	C 	0.10880 0.89290 0.28040 0.01500
C 	C 	0.09680 0.91030 0.23200 -0.07900
H 	H 	0.06920 0.90510 0.21940 0.06200
C 	C 	0.12210 0.93390 0.20240 0.01100
H 	H 	0.11230 0.94400 0.16900 0.04000
C 	C 	0.17580 0.92930 0.27010 0.00100
H 	H 	0.20210 0.93780 0.28460 0.04900
C 	C 	0.14960 0.90200 0.29920 -0.07200
H 	H 	0.15940 0.88980 0.33140 0.05400
C 	C 	0.19220 0.96860 0.18630 0.28300
O 	O 	0.22800 0.97830 0.20700 -0.37800
O 	O 	0.18190 0.97910 0.14020 -0.35700
C 	C 	0.16320 0.94430 0.21920 -0.07800
Ni	Ni	0.25755 0.48670 0.64040 1.09600
Ni	Ni	0.01475 0.74329 0.39297 1.09700
Ni	Ni	0.75582 0.98493 0.64029 1.10100
Ni	Ni	0.98623 0.25662 0.89118 1.09800
N 	N 	0.77480 0.47050 0.09860 -0.23700
C 	C 	0.77700 0.42960 0.11550 0.05700
H 	H 	0.76470 0.42300 0.14890 0.00700
C 	C 	0.79630 0.39670 0.08710 -0.11700
H 	H 	0.79630 0.36860 0.09970 0.06900
C 	C 	0.81620 0.40850 0.03720 0.06000
C 	C 	0.81460 0.44900 0.02020 -0.12600
H 	H 	0.82760 0.45720 0.98780 0.08400
C 	C 	0.79330 0.47830 0.05160 0.06700
H 	H 	0.79170 0.50630 0.03850 0.01100
C 	C 	0.84070 0.37660 0.00690 0.02500
C 	C 	0.85750 0.34090 0.03260 -0.07600
H 	H 	0.85000 0.33550 0.06850 0.05500
C 	C 	0.88470 0.31340 0.00670 0.00500
H 	H 	0.89820 0.29120 0.02550 0.05100
C 	C 	0.89170 0.31940 0.95240 -0.07600
C 	C 	0.87430 0.35150 0.92560 0.01100
H 	H 	0.87970 0.35490 0.88860 0.04500
C 	C 	0.84720 0.38100 0.95300 -0.08500
H 	H 	0.83410 0.40320 0.93400 0.06800
C 	C 	0.92460 0.29220 0.92620 0.29400
O 	O 	0.94560 0.26700 0.95310 -0.38900
O 	O 	0.93110 0.29660 0.87630 -0.35200
N 	N 	0.20480 0.45880 0.67250 -0.23000
C 	C 	0.19910 0.46500 0.72590 0.04900
H 	H 	0.21520 0.48510 0.74490 0.02500
C 	C 	0.16830 0.44030 0.75160 -0.11700
H 	H 	0.16480 0.44340 0.78900 0.08400
C 	C 	0.14350 0.41230 0.72570 0.07600
C 	C 	0.14900 0.40900 0.67200 -0.13600
H 	H 	0.13170 0.39040 0.65210 0.07600
C 	C 	0.17960 0.43250 0.64610 0.08100
H 	H 	0.18270 0.42980 0.60870 -0.00200
C 	C 	0.11230 0.38920 0.75590 0.00900
C 	C 	0.09590 0.39980 0.80380 -0.07000
H 	H 	0.10240 0.42670 0.81790 0.05900
C 	C 	0.07070 0.37420 0.83260 0.00100
H 	H 	0.06070 0.38360 0.86630 0.04300
C 	C 	0.05910 0.33470 0.81430 -0.06800
C 	C 	0.07420 0.32180 0.76500 -0.00600
H 	H 	0.06560 0.29570 0.75020 0.05300
C 	C 	0.10240 0.34770 0.73730 -0.06400
H 	H 	0.11510 0.33760 0.70550 0.05200
C 	C 	0.03170 0.30620 0.84690 0.27500
O 	O 	0.02170 0.31460 0.89480 -0.35700
O 	O 	0.02190 0.27070 0.82690 -0.38300
N 	N 	0.46890 0.27470 0.43300 -0.23800
C 	C 	0.47750 0.29260 0.47980 0.06900
H 	H 	0.50560 0.29150 0.49220 0.00900
C 	C 	0.44740 0.31320 0.51220 -0.13400
H 	H 	0.45500 0.32460 0.54580 0.08800
C 	C 	0.40720 0.31600 0.49390 0.07000
C 	C 	0.39580 0.29730 0.44510 -0.12700
H 	H 	0.36780 0.29790 0.43220 0.07200
C 	C 	0.42930 0.27720 0.41630 0.06800
H 	H 	0.42270 0.26480 0.38290 0.00300
C 	C 	0.37570 0.34030 0.52510 0.01800
C 	C 	0.38030 0.34580 0.57910 -0.07700
H 	H 	0.40180 0.33160 0.59830 0.06600
C 	C 	0.35190 0.37360 0.60560 0.00600
H 	H 	0.35580 0.37980 0.64220 0.04600
C 	C 	0.31920 0.39100 0.57890 -0.07000
C 	C 	0.31280 0.38360 0.52600 -0.00300
H 	H 	0.29010 0.39650 0.50770 0.05400
C 	C 	0.34090 0.35620 0.49880 -0.07100
H 	H 	0.33580 0.34890 0.46270 0.05200
C 	C 	0.29280 0.42440 0.60530 0.28900
O 	O 	0.29640 0.43140 0.65550 -0.35000
O 	O 	0.26760 0.44580 0.57860 -0.38600
N 	N 	0.95820 0.20410 0.85800 -0.24100
C 	C 	0.93000 0.18160 0.88300 0.10500
H 	H 	0.92500 0.18690 0.91970 -0.01300
C 	C 	0.90800 0.15140 0.85860 -0.15700
H 	H 	0.88900 0.13490 0.87900 0.08300
C 	C 	0.91190 0.14330 0.80470 0.08800
C 	C 	0.93940 0.16720 0.77840 -0.13500
H 	H 	0.94310 0.16370 0.74110 0.09000
C 	C 	0.96370 0.19850 0.80670 0.07000
H 	H 	0.98380 0.21500 0.78810 0.01600
C 	C 	0.88770 0.11170 0.77460 0.00900
C 	C 	0.90090 0.09400 0.72920 -0.07300
H 	H 	0.92790 0.10080 0.71540 0.05900
C 	C 	0.87450 0.06520 0.70180 0.00700
H 	H 	0.88560 0.05020 0.67230 0.04200
C 	C 	0.83440 0.05860 0.71640 -0.07900
C 	C 	0.82020 0.07700 0.76490 0.00200
H 	H 	0.79330 0.06980 0.77860 0.04900
C 	C 	0.84470 0.10480 0.79170 -0.07000
H 	H 	0.83380 0.11950 0.82150 0.05400
C 	C 	0.80520 0.03090 0.68410 0.30700
O 	O 	0.81530 0.01940 0.63890 -0.36900
O 	O 	0.77040 0.02080 0.70400 -0.39600
N 	N 	0.96880 0.77280 0.43490 -0.24100
C 	C 	0.92900 0.77610 0.41600 0.06500
H 	H 	0.92310 0.76390 0.38230 0.00400
C 	C 	0.89610 0.79600 0.44290 -0.12400
H 	H 	0.86900 0.79810 0.42720 0.07100
C 	C 	0.90400 0.81290 0.49360 0.06300
C 	C 	0.94620 0.80760 0.51280 -0.13800
H 	H 	0.95340 0.81740 0.54730 0.09000
C 	C 	0.97550 0.78890 0.48280 0.08500
H 	H 	0.00320 0.78700 0.49690 0.00400
C 	C 	0.87190 0.83630 0.52360 0.02100
C 	C 	0.87490 0.84130 0.57780 -0.07900
H 	H 	0.89570 0.82630 0.59720 0.06500
C 	C 	0.84690 0.86900 0.60530 0.01200
H 	H 	0.85020 0.87350 0.64250 0.04400
C 	C 	0.81560 0.88910 0.57850 -0.08200
C 	C 	0.81150 0.88240 0.52430 0.00700
H 	H 	0.79020 0.89680 0.50510 0.05100
C 	C 	0.83820 0.85470 0.49700 -0.07700
H 	H 	0.83320 0.84850 0.46050 0.05500
C 	C 	0.79020 0.92180 0.60700 0.31100
O 	O 	0.76550 0.94430 0.57930 -0.39000
O 	O 	0.79430 0.92860 0.65490 -0.36500
N 	N 	0.79690 0.54100 0.17340 -0.24100
C 	C 	0.82540 0.56390 0.14670 0.08400
H 	H 	0.82290 0.56540 0.10900 -0.00400
C 	C 	0.85800 0.58560 0.17030 -0.14100
H 	H 	0.87800 0.60050 0.14940 0.07900
C 	C 	0.86100 0.58480 0.22690 0.08600
C 	C 	0.83450 0.55970 0.25150 -0.15000
H 	H 	0.83710 0.55630 0.28900 0.09500
C 	C 	0.80330 0.53810 0.22520 0.08700
H 	H 	0.78540 0.52030 0.24540 0.01000
C 	C 	0.89310 0.61000 0.25490 0.00700
C 	C 	0.90180 0.65010 0.23690 -0.06400
H 	H 	0.89060 0.65940 0.20380 0.05200
C 	C 	0.92740 0.67740 0.26740 -0.00700
H 	H 	0.93280 0.70530 0.25580 0.05300
C 	C 	0.94410 0.66290 0.31380 -0.06600
C 	C 	0.93820 0.62130 0.33010 -0.00400
H 	H 	0.95200 0.61080 0.36090 0.04400
C 	C 	0.91180 0.59570 0.30060 -0.06800
H 	H 	0.90670 0.56780 0.31210 0.05800
C 	C 	0.97020 0.69240 0.34710 0.27700
O 	O 	0.97970 0.72780 0.32810 -0.38700
O 	O 	0.98250 0.68210 0.39400 -0.35100
N 	N 	0.22660 0.53140 0.59960 -0.24000
C 	C 	0.21090 0.52450 0.55110 0.06900
H 	H 	0.21300 0.49680 0.53730 0.01000
C 	C 	0.19150 0.55470 0.51880 -0.12600
H 	H 	0.18140 0.54800 0.48420 0.08700
C 	C 	0.18760 0.59640 0.54060 0.06200
C 	C 	0.20350 0.60470 0.58990 -0.12100
H 	H 	0.20120 0.63200 0.60500 0.07000
C 	C 	0.22360 0.57170 0.61830 0.05700
H 	H 	0.23550 0.57800 0.65210 0.00600
C 	C 	0.16420 0.62880 0.50970 0.02100
C 	C 	0.16040 0.62530 0.45470 -0.07900
H 	H 	0.17540 0.60440 0.43550 0.06600
C 	C 	0.13370 0.65380 0.42840 0.00700
H 	H 	0.13140 0.65220 0.39080 0.04600
C 	C 	0.11080 0.68400 0.45510 -0.06900
C 	C 	0.11700 0.68840 0.50860 -0.00100
H 	H 	0.10220 0.70960 0.52750 0.05500
C 	C 	0.14540 0.66150 0.53650 -0.07400
H 	H 	0.15110 0.66610 0.57320 0.05400
C 	C 	0.07750 0.71010 0.42730 0.29600
O 	O 	0.07220 0.70570 0.37790 -0.35200
O 	O 	0.05580 0.73380 0.45540 -0.38700
N 	N 	0.45950 0.70400 0.86140 -0.23800
C 	C 	0.46300 0.69950 0.80770 0.05700
H 	H 	0.48040 0.71800 0.78790 0.02000
C 	C 	0.44040 0.66700 0.78140 -0.12700
H 	H 	0.44270 0.66420 0.74390 0.08900
C 	C 	0.41620 0.64060 0.80800 0.07500
C 	C 	0.41470 0.64170 0.86380 -0.13300
H 	H 	0.39940 0.62170 0.88410 0.07600
C 	C 	0.43810 0.67590 0.88800 0.08000
H 	H 	0.43790 0.67790 0.92570 -0.00400
C 	C 	0.39120 0.60710 0.78040 0.01500
C 	C 	0.40320 0.58970 0.73200 -0.07900
H 	H 	0.43080 0.59490 0.71940 0.06200
C 	C 	0.37790 0.56610 0.70240 0.01100
H 	H 	0.38770 0.55600 0.66900 0.04000
C 	C 	0.32420 0.57070 0.77010 0.00100
H 	H 	0.29790 0.56220 0.78460 0.04900
C 	C 	0.35040 0.59800 0.79920 -0.07200
H 	H 	0.34060 0.61020 0.83140 0.05400
C 	C 	0.30780 0.53140 0.68630 0.28300
O 	O 	0.27200 0.52170 0.70700 -0.37800
O 	O 	0.31810 0.52090 0.64020 -0.35800
C 	C 	0.33680 0.55570 0.71920 -0.07800
