data_crystal

_cell_length_a 7.90730
_cell_length_b 12.29960
_cell_length_c 12.29960
_cell_angle_alpha 90.00000
_cell_angle_beta  90.00000
_cell_angle_gamma 90.00000

_symmetry_space_group_name_	'P 1'
_symmetry_space_group_name_H-M	'P 1'

loop_
_symmetry_equiv_pos_as_xyz
  x,y,z

loop_
_atom_site_label
_atom_site_type_symbol
_atom_site_fract_x
_atom_site_fract_y
_atom_site_fract_z
_atom_site_charge
Cu	Cu	0.34757 0.32355 0.01540 0.89300
Cu	Cu	0.84757 0.67645 0.98460 0.89800
Cu	Cu	0.09757 0.98460 0.32355 0.88400
Cu	Cu	0.59757 0.01540 0.67645 0.89400
H 	H 	0.46020 0.05410 0.22380 0.15100
H 	H 	0.49330 0.09650 0.10560 0.14700
H 	H 	0.67300 0.18540 0.22940 -0.02800
H 	H 	0.51520 0.22930 0.29340 -0.02100
H 	H 	0.66470 0.39030 0.26270 -0.02400
H 	H 	0.77890 0.36410 0.16160 -0.01200
H 	H 	0.69500 0.54670 0.15830 0.14000
H 	H 	0.50480 0.51140 0.15880 0.15000
H 	H 	0.96020 0.94590 0.77620 0.15000
H 	H 	0.99330 0.90350 0.89440 0.14700
H 	H 	0.17300 0.81460 0.77060 -0.02400
H 	H 	0.01520 0.77070 0.70660 -0.02000
H 	H 	0.16470 0.60970 0.73730 -0.02800
H 	H 	0.27890 0.63590 0.83840 -0.01600
H 	H 	0.19500 0.45330 0.84170 0.13500
H 	H 	0.00480 0.48860 0.84120 0.14400
H 	H 	0.21020 0.77620 0.05410 0.14100
H 	H 	0.24330 0.89440 0.09650 0.13700
H 	H 	0.42300 0.77060 0.18540 -0.02400
H 	H 	0.26520 0.70660 0.22930 -0.01800
H 	H 	0.41470 0.73730 0.39030 -0.02500
H 	H 	0.52890 0.83840 0.36410 -0.01500
H 	H 	0.44500 0.84170 0.54670 0.13500
H 	H 	0.25480 0.84120 0.51140 0.14400
H 	H 	0.71020 0.22380 0.94590 0.15200
H 	H 	0.74330 0.10560 0.90350 0.14700
H 	H 	0.92300 0.22940 0.81460 -0.02500
H 	H 	0.76520 0.29340 0.77070 -0.01900
H 	H 	0.91470 0.26270 0.60970 -0.03200
H 	H 	0.02890 0.16160 0.63590 -0.03600
H 	H 	0.94500 0.15830 0.45330 0.14500
H 	H 	0.75480 0.15880 0.48860 0.15400
C 	C 	0.26670 0.14550 0.16560 0.21700
C 	C 	0.44970 0.11680 0.17640 -0.40300
C 	C 	0.55660 0.20920 0.22200 0.21400
C 	C 	0.66540 0.38380 0.18410 0.21100
C 	C 	0.61670 0.49140 0.13340 -0.39900
C 	C 	0.61620 0.49050 0.01140 0.20800
C 	C 	0.76670 0.85450 0.83440 0.21500
C 	C 	0.94970 0.88320 0.82360 -0.37900
C 	C 	0.05660 0.79080 0.77800 0.19000
C 	C 	0.16540 0.61620 0.81590 0.21100
C 	C 	0.11670 0.50860 0.86660 -0.39700
C 	C 	0.11620 0.50950 0.98860 0.20400
C 	C 	0.01670 0.83440 0.14550 0.17600
C 	C 	0.19970 0.82360 0.11680 -0.37800
C 	C 	0.30660 0.77800 0.20920 0.20100
C 	C 	0.41540 0.81590 0.38380 0.20800
C 	C 	0.36670 0.86660 0.49140 -0.39400
C 	C 	0.36620 0.98860 0.49050 0.20000
C 	C 	0.51670 0.16560 0.85450 0.21700
C 	C 	0.69970 0.17640 0.88320 -0.40300
C 	C 	0.80660 0.22200 0.79080 0.21600
C 	C 	0.91540 0.18410 0.61620 0.24500
C 	C 	0.86670 0.13340 0.50860 -0.41400
C 	C 	0.86620 0.01140 0.50950 0.20500
N 	N 	0.21060 0.22540 0.10110 -0.21300
N 	N 	0.03870 0.22590 0.10870 -0.06300
N 	N 	0.99390 0.14700 0.17290 -0.05400
N 	N 	0.13640 0.09530 0.21140 -0.22600
N 	N 	0.51600 0.42180 0.95320 -0.21300
N 	N 	0.54570 0.44350 0.84770 -0.05600
N 	N 	0.65710 0.52160 0.84270 -0.05100
N 	N 	0.70130 0.55100 0.94530 -0.21600
N 	N 	0.71060 0.77460 0.89890 -0.21000
N 	N 	0.53870 0.77410 0.89130 -0.05400
N 	N 	0.49390 0.85300 0.82710 -0.06600
N 	N 	0.63640 0.90470 0.78860 -0.22000
N 	N 	0.01600 0.57820 0.04680 -0.21900
N 	N 	0.04570 0.55650 0.15230 -0.06100
N 	N 	0.15710 0.47840 0.15730 -0.05500
N 	N 	0.20130 0.44900 0.05470 -0.21800
N 	N 	0.96060 0.89890 0.22540 -0.19200
N 	N 	0.78870 0.89130 0.22590 -0.05200
N 	N 	0.74390 0.82710 0.14700 -0.06400
N 	N 	0.88640 0.78860 0.09530 -0.20300
N 	N 	0.26600 0.04680 0.42180 -0.21200
N 	N 	0.29570 0.15230 0.44350 -0.05800
N 	N 	0.40710 0.15730 0.52160 -0.05300
N 	N 	0.45130 0.05470 0.55100 -0.21600
N 	N 	0.46060 0.10110 0.77460 -0.21200
N 	N 	0.28870 0.10870 0.77410 -0.05500
N 	N 	0.24390 0.17290 0.85300 -0.06700
N 	N 	0.38640 0.21140 0.90470 -0.22100
N 	N 	0.76600 0.95320 0.57820 -0.21000
N 	N 	0.79570 0.84770 0.55650 -0.05400
N 	N 	0.90710 0.84270 0.47840 -0.04800
N 	N 	0.95130 0.94530 0.44900 -0.20900
O 	O 	0.54910 0.30090 0.15130 -0.34100
O 	O 	0.04910 0.69910 0.84870 -0.34300
O 	O 	0.29910 0.84870 0.30090 -0.34000
O 	O 	0.79910 0.15130 0.69910 -0.34700
