data_crystal

_cell_length_a 11.52880
_cell_length_b 12.35650
_cell_length_c 21.86100
_cell_angle_alpha 90.00000
_cell_angle_beta  90.00000
_cell_angle_gamma 117.80800

_symmetry_space_group_name_	'P 1'
_symmetry_space_group_name_H-M	'P 1'

loop_
_symmetry_equiv_pos_as_xyz
  x,y,z

loop_
_atom_site_label
_atom_site_type_symbol
_atom_site_fract_x
_atom_site_fract_y
_atom_site_fract_z
_atom_site_charge
Pr	Pr	0.95752 -0.00000 0.34657 1.93600
Pr	Pr	0.04248 0.00000 0.84657 1.95900
Pr	Pr	0.95752 0.00000 0.15343 1.93600
Pr	Pr	0.04248 0.00000 0.65343 1.96000
Pr	Pr	0.27634 0.18688 0.25000 1.97900
Pr	Pr	0.72366 0.81312 0.75000 2.04500
Pr	Pr	0.08946 0.81312 0.25000 2.04700
Pr	Pr	0.91054 0.18688 0.75000 1.96900
H 	H 	0.42450 0.43880 0.38630 0.04000
H 	H 	0.76690 0.77880 0.47330 0.03800
H 	H 	0.57550 0.56120 0.88630 0.05400
H 	H 	0.23310 0.22120 0.97330 -0.00900
H 	H 	0.98570 0.56120 0.11370 0.05900
H 	H 	0.98810 0.22120 0.02670 -0.02100
H 	H 	0.01430 0.43880 0.61370 0.03400
H 	H 	0.01190 0.77880 0.52670 0.03900
H 	H 	0.57550 0.56120 0.61370 0.05500
H 	H 	0.23310 0.22120 0.52670 -0.01000
H 	H 	0.42450 0.43880 0.11370 0.04100
H 	H 	0.76690 0.77880 0.02670 0.03600
H 	H 	0.01430 0.43880 0.88630 0.03400
H 	H 	0.01190 0.77880 0.97330 0.04200
H 	H 	0.98570 0.56120 0.38630 0.05700
H 	H 	0.98810 0.22120 0.47330 -0.02200
H 	H 	0.19330 0.00000 0.34570 0.21700
H 	H 	0.80670 0.00000 0.84570 0.21600
H 	H 	0.19330 0.00000 0.15430 0.21700
H 	H 	0.80670 0.00000 0.65430 0.21500
H 	H 	0.03530 0.18840 0.25000 0.29300
H 	H 	0.96470 0.81160 0.75000 0.25500
H 	H 	0.84690 0.81160 0.25000 0.25900
H 	H 	0.15310 0.18840 0.75000 0.28700
C 	C 	0.22640 0.22440 0.40480 0.42100
C 	C 	0.31700 0.31660 0.44900 -0.15900
C 	C 	0.41650 0.42400 0.42820 -0.00000
C 	C 	0.50680 0.51260 0.46750 0.02300
C 	C 	0.61350 0.62460 0.44760 -0.11000
C 	C 	0.69800 0.70640 0.48770 0.04900
C 	C 	0.77360 0.77560 0.90480 0.39300
C 	C 	0.68300 0.68340 0.94900 -0.10700
C 	C 	0.58350 0.57600 0.92820 -0.03000
C 	C 	0.49320 0.48740 0.96750 0.04800
C 	C 	0.38650 0.37540 0.94760 -0.14600
C 	C 	0.30200 0.29360 0.98770 0.07400
C 	C 	0.00200 0.77560 0.09520 0.40000
C 	C 	0.00040 0.68340 0.05100 -0.07700
C 	C 	0.99250 0.57600 0.07180 -0.05800
C 	C 	0.99420 0.48740 0.03250 0.04700
C 	C 	0.98890 0.37540 0.05240 -0.15300
C 	C 	0.99160 0.29360 0.01230 0.08100
C 	C 	0.99800 0.22440 0.59520 0.40100
C 	C 	0.99960 0.31660 0.55100 -0.18600
C 	C 	0.00750 0.42400 0.57180 0.03000
C 	C 	0.00580 0.51260 0.53250 0.03000
C 	C 	0.01110 0.62460 0.55240 -0.10800
C 	C 	0.00840 0.70640 0.51230 0.04600
C 	C 	0.77360 0.77560 0.59520 0.39200
C 	C 	0.68300 0.68340 0.55100 -0.10500
C 	C 	0.58350 0.57600 0.57180 -0.03300
C 	C 	0.49320 0.48740 0.53250 0.05300
C 	C 	0.38650 0.37540 0.55240 -0.14800
C 	C 	0.30200 0.29360 0.51230 0.08100
C 	C 	0.22640 0.22440 0.09520 0.41900
C 	C 	0.31700 0.31660 0.05100 -0.15400
C 	C 	0.41650 0.42400 0.07180 -0.00400
C 	C 	0.50680 0.51260 0.03250 0.02600
C 	C 	0.61350 0.62460 0.05240 -0.11200
C 	C 	0.69800 0.70640 0.01230 0.05100
C 	C 	0.99800 0.22440 0.90480 0.40100
C 	C 	0.99960 0.31660 0.94900 -0.18100
C 	C 	0.00750 0.42400 0.92820 0.02600
C 	C 	0.00580 0.51260 0.96750 0.02500
C 	C 	0.01110 0.62460 0.94760 -0.10400
C 	C 	0.00840 0.70640 0.98770 0.03400
C 	C 	0.00200 0.77560 0.40480 0.40200
C 	C 	0.00040 0.68340 0.44900 -0.08800
C 	C 	0.99250 0.57600 0.42820 -0.05000
C 	C 	0.99420 0.48740 0.46750 0.04300
C 	C 	0.98890 0.37540 0.44760 -0.15300
C 	C 	0.99160 0.29360 0.48770 0.08600
S 	S 	0.63976 0.65964 0.36795 0.54300
S 	S 	0.36024 0.34036 0.86795 0.56100
S 	S 	0.98012 0.34036 0.13205 0.53600
S 	S 	0.01988 0.65964 0.63205 0.55800
S 	S 	0.36024 0.34036 0.63205 0.56300
S 	S 	0.63976 0.65964 0.13205 0.54400
S 	S 	0.01988 0.65964 0.86795 0.55500
S 	S 	0.98012 0.34036 0.36795 0.53700
O 	O 	0.25090 0.25120 0.34850 -0.59600
O 	O 	0.13320 0.12680 0.42350 -0.53000
O 	O 	0.74890 0.78080 0.36300 -0.42600
O 	O 	0.51910 0.65100 0.34380 -0.27900
O 	O 	0.66830 0.56580 0.34230 -0.30300
O 	O 	0.74910 0.74880 0.84850 -0.54600
O 	O 	0.86680 0.87320 0.92350 -0.38200
O 	O 	0.25110 0.21920 0.86300 -0.50500
O 	O 	0.48090 0.34900 0.84380 -0.33400
O 	O 	0.33170 0.43420 0.84230 -0.29100
O 	O 	0.99970 0.74880 0.15150 -0.55900
O 	O 	0.00640 0.87320 0.07650 -0.38000
O 	O 	0.96810 0.21920 0.13700 -0.51500
O 	O 	0.86810 0.34900 0.15620 -0.33100
O 	O 	0.10250 0.43420 0.15770 -0.27100
O 	O 	0.00030 0.25120 0.65150 -0.57500
O 	O 	0.99360 0.12680 0.57650 -0.55100
O 	O 	0.03190 0.78080 0.63700 -0.42900
O 	O 	0.13190 0.65100 0.65620 -0.28200
O 	O 	0.89750 0.56580 0.65770 -0.31500
O 	O 	0.74910 0.74880 0.65150 -0.54500
O 	O 	0.86680 0.87320 0.57650 -0.38100
O 	O 	0.25110 0.21920 0.63700 -0.50500
O 	O 	0.48090 0.34900 0.65620 -0.33400
O 	O 	0.33170 0.43420 0.65770 -0.29100
O 	O 	0.25090 0.25120 0.15150 -0.59600
O 	O 	0.13320 0.12680 0.07650 -0.52800
O 	O 	0.74890 0.78080 0.13700 -0.42600
O 	O 	0.51910 0.65100 0.15620 -0.28000
O 	O 	0.66830 0.56580 0.15770 -0.30300
O 	O 	0.00030 0.25120 0.84850 -0.57700
O 	O 	0.99360 0.12680 0.92350 -0.54900
O 	O 	0.03190 0.78080 0.86300 -0.42900
O 	O 	0.13190 0.65100 0.84380 -0.28200
O 	O 	0.89750 0.56580 0.84230 -0.31300
O 	O 	0.99970 0.74880 0.34850 -0.55800
O 	O 	0.00640 0.87320 0.42350 -0.38100
O 	O 	0.96810 0.21920 0.36300 -0.51500
O 	O 	0.86810 0.34900 0.34380 -0.33200
O 	O 	0.10250 0.43420 0.34230 -0.27300
O 	O 	0.15970 0.00000 0.31110 -1.03400
O 	O 	0.84030 0.00000 0.81110 -1.05300
O 	O 	0.15970 0.00000 0.18890 -1.03400
O 	O 	0.84030 0.00000 0.68890 -1.05400
O 	O 	0.03650 0.12020 0.25000 -0.95900
O 	O 	0.96350 0.87980 0.75000 -0.78800
O 	O 	0.91630 0.87980 0.25000 -0.78800
O 	O 	0.08370 0.12020 0.75000 -0.96200
