data_crystal

_cell_length_a 10.93810
_cell_length_b 13.51960
_cell_length_c 34.32600
_cell_angle_alpha 99.06190
_cell_angle_beta  90.00000
_cell_angle_gamma 113.86200

_symmetry_space_group_name_	'P 1'
_symmetry_space_group_name_H-M	'P 1'

loop_
_symmetry_equiv_pos_as_xyz
  x,y,z

loop_
_atom_site_label
_atom_site_type_symbol
_atom_site_fract_x
_atom_site_fract_y
_atom_site_fract_z
_atom_site_charge
Co	Co	0.77580 0.63358 0.49718 1.14500
Co	Co	0.14222 0.36642 0.00282 1.13300
Co	Co	0.22420 0.36642 0.50282 1.14100
Co	Co	0.85778 0.63358 0.99718 1.15300
Co	Co	-0.00000 0.50000 0.50000 1.19500
Co	Co	0.50000 0.50000 -0.00000 1.20600
H 	H 	0.43030 0.02840 0.20800 0.05400
H 	H 	0.45730 0.11180 0.24790 0.05300
H 	H 	0.80840 0.26520 0.24120 0.04400
H 	H 	0.73950 0.17460 0.26740 0.03900
H 	H 	0.54810 0.25960 0.20490 0.03900
H 	H 	0.53580 0.17360 0.16670 0.03400
H 	H 	0.72160 0.04200 0.20650 0.04200
H 	H 	0.77090 0.13200 0.17910 0.04100
H 	H 	0.87710 0.31080 0.31340 0.16100
H 	H 	0.94020 0.39920 0.37840 -0.02500
H 	H 	0.63000 0.48040 0.37960 -0.04300
H 	H 	0.56690 0.39200 0.31600 0.16100
H 	H 	0.52760 0.31420 0.13900 0.14400
H 	H 	0.55010 0.39600 0.08350 -0.02300
H 	H 	0.94020 0.46220 0.08820 -0.02300
H 	H 	0.91920 0.38580 0.14460 0.15900
H 	H 	0.43820 0.86420 0.10980 0.15000
H 	H 	0.47600 0.75000 0.05840 -0.03500
H 	H 	0.86610 0.89760 0.08820 -0.03600
H 	H 	0.82900 0.00700 0.14180 0.16300
H 	H 	0.40190 0.97160 0.29200 0.04900
H 	H 	0.34550 0.88820 0.25210 0.04800
H 	H 	0.54320 0.73480 0.25880 0.03800
H 	H 	0.56490 0.82540 0.23260 0.03300
H 	H 	0.28850 0.74040 0.29510 0.03300
H 	H 	0.36220 0.82640 0.33330 0.03000
H 	H 	0.67960 0.95800 0.29350 0.03300
H 	H 	0.63890 0.86800 0.32090 0.03500
H 	H 	0.56630 0.68920 0.18660 0.16000
H 	H 	0.54100 0.60080 0.12160 -0.03500
H 	H 	0.14960 0.51960 0.12040 -0.05500
H 	H 	0.17490 0.60800 0.18400 0.15700
H 	H 	0.21340 0.68580 0.36100 0.14100
H 	H 	0.15410 0.60400 0.41650 -0.03300
H 	H 	0.47800 0.53780 0.41180 -0.03400
H 	H 	0.53340 0.61420 0.35540 0.15400
H 	H 	0.57400 0.13580 0.39020 0.15700
H 	H 	0.72600 0.25000 0.44160 -0.03300
H 	H 	0.96850 0.10240 0.41180 -0.02200
H 	H 	0.82200 0.99300 0.35820 0.13800
H 	H 	0.56970 0.97160 0.79200 0.05800
H 	H 	0.54270 0.88820 0.75210 0.05700
H 	H 	0.19160 0.73480 0.75880 0.03200
H 	H 	0.26050 0.82540 0.73260 0.02900
H 	H 	0.45190 0.74040 0.79510 0.04000
H 	H 	0.46420 0.82640 0.83330 0.03600
H 	H 	0.27840 0.95800 0.79350 0.02800
H 	H 	0.22910 0.86800 0.82090 0.03000
H 	H 	0.12290 0.68920 0.68660 0.15300
H 	H 	0.05980 0.60080 0.62160 -0.04300
H 	H 	0.37000 0.51960 0.62040 -0.04600
H 	H 	0.43310 0.60800 0.68400 0.16600
H 	H 	0.47240 0.68580 0.86100 0.14800
H 	H 	0.44990 0.60400 0.91650 -0.02100
H 	H 	0.05980 0.53780 0.91180 -0.04100
H 	H 	0.08080 0.61420 0.85540 0.14400
H 	H 	0.56180 0.13580 0.89020 0.15900
H 	H 	0.52400 0.25000 0.94160 -0.02500
H 	H 	0.13390 0.10240 0.91180 -0.03200
H 	H 	0.17100 0.99300 0.85820 0.12600
H 	H 	0.59810 0.02840 0.70800 0.06200
H 	H 	0.65450 0.11180 0.74790 0.06100
H 	H 	0.45680 0.26520 0.74120 0.03900
H 	H 	0.43510 0.17460 0.76740 0.03600
H 	H 	0.71150 0.25960 0.70490 0.04700
H 	H 	0.63780 0.17360 0.66670 0.04000
H 	H 	0.32040 0.04200 0.70650 0.03700
H 	H 	0.36110 0.13200 0.67910 0.03600
H 	H 	0.43370 0.31080 0.81340 0.15500
H 	H 	0.45900 0.39920 0.87840 -0.03400
H 	H 	0.85040 0.48040 0.87960 -0.03300
H 	H 	0.82510 0.39200 0.81600 0.17000
H 	H 	0.78660 0.31420 0.63900 0.15100
H 	H 	0.84590 0.39600 0.58350 -0.01100
H 	H 	0.52200 0.46220 0.58820 -0.03000
H 	H 	0.46660 0.38580 0.64460 0.14900
H 	H 	0.42600 0.86420 0.60980 0.15300
H 	H 	0.27400 0.75000 0.55840 -0.02700
H 	H 	0.03150 0.89760 0.58820 -0.04700
H 	H 	0.17800 0.00700 0.64180 0.15300
C 	C 	0.62521 0.14762 0.21547 0.02200
C 	C 	0.49524 0.07048 0.23009 -0.02500
C 	C 	0.72351 0.21962 0.25043 0.01800
C 	C 	0.59319 0.21898 0.18989 0.02300
C 	C 	0.69311 0.08282 0.19049 0.01200
C 	C 	0.71389 0.33898 0.30871 0.35000
C 	C 	0.82564 0.34368 0.32684 -0.34500
C 	C 	0.86422 0.39804 0.36586 0.22800
C 	C 	0.79201 0.44962 0.38601 -0.27000
C 	C 	0.68050 0.44580 0.36665 0.23600
C 	C 	0.64230 0.39240 0.32867 -0.34600
C 	C 	0.83101 0.50402 0.42820 0.45500
C 	C 	0.72028 0.33996 0.14601 0.32200
C 	C 	0.61080 0.34420 0.12872 -0.32000
C 	C 	0.62476 0.39392 0.09564 0.19900
C 	C 	0.74928 0.44056 0.08054 -0.25000
C 	C 	0.85701 0.43402 0.09861 0.20300
C 	C 	0.84450 0.38640 0.13188 -0.31700
C 	C 	0.76631 0.49642 0.04558 0.43600
C 	C 	0.62954 0.94648 0.13076 0.32700
C 	C 	0.52500 0.87060 0.10588 -0.32600
C 	C 	0.54797 0.80294 0.07479 0.21500
C 	C 	0.67501 0.81322 0.06788 -0.26100
C 	C 	0.77911 0.88982 0.09276 0.22300
C 	C 	0.75750 0.95640 0.12472 -0.35100
C 	C 	0.69547 0.73714 0.03420 0.43500
C 	C 	0.47759 0.85238 0.28453 0.01400
C 	C 	0.42476 0.92952 0.26991 -0.02600
C 	C 	0.50389 0.78038 0.24957 0.02700
C 	C 	0.37421 0.78102 0.31011 0.03100
C 	C 	0.61029 0.91718 0.30951 0.02300
C 	C 	0.37491 0.66102 0.19129 0.35400
C 	C 	0.48196 0.65632 0.17316 -0.35600
C 	C 	0.46618 0.60196 0.13414 0.23500
C 	C 	0.34239 0.55038 0.11399 -0.28400
C 	C 	0.23470 0.55420 0.13335 0.24300
C 	C 	0.24990 0.60760 0.17133 -0.35700
C 	C 	0.32699 0.49598 0.07180 0.46000
C 	C 	0.38032 0.66004 0.35399 0.32300
C 	C 	0.26660 0.65580 0.37128 -0.32800
C 	C 	0.23084 0.60608 0.40436 0.20200
C 	C 	0.30872 0.55944 0.41946 -0.26000
C 	C 	0.42299 0.56598 0.40139 0.20700
C 	C 	0.45810 0.61360 0.36812 -0.32600
C 	C 	0.26989 0.50358 0.45442 0.43700
C 	C 	0.68306 0.05352 0.36924 0.33600
C 	C 	0.65440 0.12940 0.39412 -0.32800
C 	C 	0.74503 0.19706 0.42521 0.22000
C 	C 	0.86179 0.18678 0.43212 -0.26200
C 	C 	0.88929 0.11018 0.40724 0.21300
C 	C 	0.80110 0.04360 0.37528 -0.31500
C 	C 	0.95833 0.26286 0.46580 0.47800
C 	C 	0.37479 0.85238 0.78453 0.01600
C 	C 	0.50476 0.92952 0.76991 -0.03500
C 	C 	0.27649 0.78038 0.74957 0.02900
C 	C 	0.40681 0.78102 0.81011 0.02500
C 	C 	0.30689 0.91718 0.80951 0.02500
C 	C 	0.28611 0.66102 0.69129 0.35400
C 	C 	0.17436 0.65632 0.67316 -0.35800
C 	C 	0.13578 0.60196 0.63414 0.23400
C 	C 	0.20799 0.55038 0.61399 -0.28500
C 	C 	0.31950 0.55420 0.63335 0.24500
C 	C 	0.35770 0.60760 0.67133 -0.35600
C 	C 	0.16899 0.49598 0.57180 0.46000
C 	C 	0.27972 0.66004 0.85399 0.32100
C 	C 	0.38920 0.65580 0.87128 -0.32400
C 	C 	0.37524 0.60608 0.90436 0.20200
C 	C 	0.25072 0.55944 0.91946 -0.25600
C 	C 	0.14299 0.56598 0.90139 0.20300
C 	C 	0.15550 0.61360 0.86812 -0.32500
C 	C 	0.23369 0.50358 0.95442 0.43600
C 	C 	0.37046 0.05352 0.86924 0.32800
C 	C 	0.47500 0.12940 0.89412 -0.31900
C 	C 	0.45203 0.19706 0.92521 0.20700
C 	C 	0.32499 0.18678 0.93212 -0.24700
C 	C 	0.22089 0.11018 0.90724 0.19600
C 	C 	0.24250 0.04360 0.87528 -0.30700
C 	C 	0.30453 0.26286 0.96580 0.42900
C 	C 	0.52241 0.14762 0.71547 0.02500
C 	C 	0.57524 0.07048 0.73009 -0.03300
C 	C 	0.49611 0.21962 0.75043 0.02000
C 	C 	0.62579 0.21898 0.68989 0.01700
C 	C 	0.38971 0.08282 0.69049 0.01400
C 	C 	0.62509 0.33898 0.80871 0.35200
C 	C 	0.51804 0.34368 0.82684 -0.34800
C 	C 	0.53382 0.39804 0.86586 0.22900
C 	C 	0.65761 0.44962 0.88601 -0.27200
C 	C 	0.76530 0.44580 0.86665 0.23800
C 	C 	0.75010 0.39240 0.82867 -0.34500
C 	C 	0.67301 0.50402 0.92820 0.45700
C 	C 	0.61968 0.33996 0.64601 0.32000
C 	C 	0.73340 0.34420 0.62872 -0.31500
C 	C 	0.76916 0.39392 0.59564 0.19800
C 	C 	0.69128 0.44056 0.58054 -0.24500
C 	C 	0.57701 0.43402 0.59861 0.19900
C 	C 	0.54190 0.38640 0.63188 -0.31600
C 	C 	0.73011 0.49642 0.54558 0.43400
C 	C 	0.31694 0.94648 0.63076 0.32000
C 	C 	0.34560 0.87060 0.60588 -0.31800
C 	C 	0.25497 0.80294 0.57479 0.20300
C 	C 	0.13821 0.81322 0.56788 -0.24700
C 	C 	0.11071 0.88982 0.59276 0.20800
C 	C 	0.19890 0.95640 0.62472 -0.34700
C 	C 	0.04167 0.73714 0.53420 0.38400
O 	O 	0.66313 0.28626 0.27137 -0.26000
O 	O 	0.71775 0.29190 0.17868 -0.25100
O 	O 	0.59375 0.00910 0.15974 -0.25000
O 	O 	0.92592 0.49504 0.44471 -0.43600
O 	O 	0.76378 0.55576 0.44387 -0.49800
O 	O 	0.88476 0.55052 0.03685 -0.46600
O 	O 	0.66902 0.49104 0.02594 -0.49300
O 	O 	0.59435 0.66990 0.01250 -0.44600
O 	O 	0.81358 0.74656 0.02945 -0.48700
O 	O 	0.37687 0.71374 0.22863 -0.26700
O 	O 	0.42585 0.70810 0.32132 -0.25700
O 	O 	0.58465 0.99090 0.34026 -0.26600
O 	O 	0.43088 0.50496 0.05529 -0.45600
O 	O 	0.20802 0.44424 0.05613 -0.51400
O 	O 	0.33424 0.44948 0.46315 -0.47300
O 	O 	0.17798 0.50896 0.47406 -0.49900
O 	O 	0.92445 0.33010 0.48750 -0.43700
O 	O 	0.06702 0.25344 0.47055 -0.52500
O 	O 	0.33687 0.71374 0.72863 -0.26500
O 	O 	0.28225 0.70810 0.82132 -0.25700
O 	O 	0.40625 0.99090 0.84026 -0.26300
O 	O 	0.07408 0.50496 0.55529 -0.46500
O 	O 	0.23622 0.44424 0.55613 -0.50700
O 	O 	0.11524 0.44948 0.96315 -0.47500
O 	O 	0.33098 0.50896 0.97406 -0.48500
O 	O 	0.40565 0.33010 0.98750 -0.43400
O 	O 	0.18642 0.25344 0.97055 -0.48500
O 	O 	0.62313 0.28626 0.77137 -0.25900
O 	O 	0.57415 0.29190 0.67868 -0.25100
O 	O 	0.41535 0.00910 0.65974 -0.24800
O 	O 	0.56912 0.49504 0.94471 -0.44900
O 	O 	0.79198 0.55576 0.94387 -0.49300
O 	O 	0.66576 0.55052 0.53685 -0.46800
O 	O 	0.82202 0.49104 0.52594 -0.47600
O 	O 	0.07555 0.66990 0.51250 -0.44000
O 	O 	0.93298 0.74656 0.52945 -0.44600
O 	O 	0.52880 0.00000 0.25000 -0.15600
O 	O 	0.47120 0.00000 0.75000 -0.15200
