data_crystal

_cell_length_a 7.28600
_cell_length_b 10.79000
_cell_length_c 11.61000
_cell_angle_alpha 90.00000
_cell_angle_beta  90.00000
_cell_angle_gamma 90.00000

_symmetry_space_group_name_	'P 1'
_symmetry_space_group_name_H-M	'P 1'

loop_
_symmetry_equiv_pos_as_xyz
  x,y,z

loop_
_atom_site_label
_atom_site_type_symbol
_atom_site_fract_x
_atom_site_fract_y
_atom_site_fract_z
_atom_site_charge
Cd	Cd	0.63910 0.81640 0.70910 1.21000
Cd	Cd	0.13910 0.18360 0.79090 1.21000
Cd	Cd	0.86090 0.31640 0.29090 1.20900
Cd	Cd	0.36090 0.68360 0.20910 1.20900
H 	H 	0.06550 0.20140 0.55870 0.07800
H 	H 	0.93640 0.09930 0.60660 0.10000
H 	H 	0.08980 0.97140 0.51540 0.06500
H 	H 	0.38330 0.01170 0.43010 0.01300
H 	H 	0.23640 0.13320 0.40620 0.01300
H 	H 	0.38430 0.24930 0.55680 0.07800
H 	H 	0.53070 0.12770 0.58130 0.09000
H 	H 	0.56550 0.79860 0.94130 0.07800
H 	H 	0.43640 0.90070 0.89340 0.09900
H 	H 	0.58980 0.02860 0.98460 0.06400
H 	H 	0.88330 0.98830 0.06990 0.01300
H 	H 	0.73640 0.86680 0.09380 0.01300
H 	H 	0.88430 0.75070 0.94320 0.07700
H 	H 	0.03070 0.87230 0.91870 0.08800
H 	H 	0.43450 0.70140 0.44130 0.07800
H 	H 	0.56360 0.59930 0.39340 0.09900
H 	H 	0.41020 0.47140 0.48460 0.06400
H 	H 	0.11670 0.51170 0.56990 0.01300
H 	H 	0.26360 0.63320 0.59380 0.01200
H 	H 	0.11570 0.74930 0.44320 0.07800
H 	H 	0.96930 0.62770 0.41870 0.08900
H 	H 	0.93450 0.29860 0.05870 0.07800
H 	H 	0.06360 0.40070 0.10660 0.10200
H 	H 	0.91020 0.52860 0.01540 0.06300
H 	H 	0.61670 0.48830 0.93010 0.01300
H 	H 	0.76360 0.36680 0.90620 0.01300
H 	H 	0.61570 0.25070 0.05680 0.07800
H 	H 	0.46930 0.37230 0.08130 0.09000
C 	C 	0.18050 0.03260 0.55670 -0.14300
C 	C 	0.28530 0.96310 0.64980 0.33900
C 	C 	0.31300 0.08570 0.46890 0.02700
C 	C 	0.45460 0.17510 0.51840 -0.25600
C 	C 	0.58740 0.22750 0.43080 0.34500
C 	C 	0.68050 0.96740 0.94330 -0.14100
C 	C 	0.78530 0.03690 0.85020 0.33800
C 	C 	0.81300 0.91430 0.03110 0.02200
C 	C 	0.95460 0.82490 0.98160 -0.25100
C 	C 	0.08740 0.77250 0.06920 0.34500
C 	C 	0.31950 0.53260 0.44330 -0.14300
C 	C 	0.21470 0.46310 0.35020 0.33900
C 	C 	0.18700 0.58570 0.53110 0.02700
C 	C 	0.04540 0.67510 0.48160 -0.25300
C 	C 	0.91260 0.72750 0.56920 0.34400
C 	C 	0.81950 0.46740 0.05670 -0.14300
C 	C 	0.71470 0.53690 0.14980 0.33800
C 	C 	0.68700 0.41430 0.96890 0.02600
C 	C 	0.54540 0.32490 0.01840 -0.25400
C 	C 	0.41260 0.27250 0.93080 0.34400
N 	N 	0.05880 0.12960 0.60600 -0.28900
N 	N 	0.55880 0.87040 0.89400 -0.28900
N 	N 	0.44120 0.62960 0.39400 -0.28900
N 	N 	0.94120 0.37040 0.10600 -0.29100
O 	O 	0.27870 0.99810 0.75310 -0.43600
O 	O 	0.38260 0.87290 0.61450 -0.42500
O 	O 	0.72430 0.28800 0.46920 -0.41100
O 	O 	0.56510 0.21300 0.32480 -0.39600
O 	O 	0.77870 0.00190 0.74690 -0.43500
O 	O 	0.88260 0.12710 0.88550 -0.42400
O 	O 	0.22430 0.71200 0.03080 -0.41000
O 	O 	0.06510 0.78700 0.17520 -0.39500
O 	O 	0.22130 0.49810 0.24690 -0.43500
O 	O 	0.11740 0.37290 0.38550 -0.42500
O 	O 	0.77570 0.78800 0.53080 -0.41100
O 	O 	0.93490 0.71300 0.67520 -0.39600
O 	O 	0.72130 0.50190 0.25310 -0.43600
O 	O 	0.61740 0.62710 0.11450 -0.42600
O 	O 	0.27570 0.21200 0.96920 -0.41200
O 	O 	0.43490 0.28700 0.82480 -0.39600
