data_crystal

_cell_length_a 13.69290
_cell_length_b 13.69290
_cell_length_c 50.66400
_cell_angle_alpha 90.00000
_cell_angle_beta  90.00000
_cell_angle_gamma 90.00000

_symmetry_space_group_name_	'P 1'
_symmetry_space_group_name_H-M	'P 1'

loop_
_symmetry_equiv_pos_as_xyz
  x,y,z

loop_
_atom_site_label
_atom_site_type_symbol
_atom_site_fract_x
_atom_site_fract_y
_atom_site_fract_z
_atom_site_charge
Zn	Zn	0.99525 0.58451 0.88233 1.22600
Zn	Zn	0.36198 0.48799 0.75532 1.19600
Zn	Zn	0.94603 0.73103 0.83189 1.15000
Zn	Zn	0.00475 0.41549 0.38233 1.22600
Zn	Zn	0.63802 0.51201 0.25532 1.19600
Zn	Zn	0.05397 0.26897 0.33189 1.15000
Zn	Zn	0.91549 0.49525 0.63233 1.23300
Zn	Zn	0.01201 0.86198 0.50532 1.19200
Zn	Zn	0.76897 0.44603 0.58189 1.15400
Zn	Zn	0.08451 0.50475 0.13233 1.23300
Zn	Zn	0.98799 0.13802 0.00532 1.19200
Zn	Zn	0.23103 0.55397 0.08189 1.15400
Zn	Zn	0.50475 0.08451 0.86767 1.23300
Zn	Zn	0.13802 0.98799 0.99468 1.19200
Zn	Zn	0.55397 0.23103 0.91811 1.15400
Zn	Zn	0.49525 0.91549 0.36767 1.23300
Zn	Zn	0.86198 0.01201 0.49468 1.19200
Zn	Zn	0.44603 0.76897 0.41811 1.15400
Zn	Zn	0.58451 0.99525 0.11767 1.22600
Zn	Zn	0.48799 0.36198 0.24468 1.19600
Zn	Zn	0.73103 0.94603 0.16811 1.15000
Zn	Zn	0.41549 0.00475 0.61767 1.22600
Zn	Zn	0.51201 0.63802 0.74468 1.19600
Zn	Zn	0.26897 0.05397 0.66811 1.15000
H 	H 	0.25680 0.83620 0.87440 0.03100
H 	H 	0.42710 0.83690 0.81010 0.02900
H 	H 	0.21270 0.63920 0.81670 0.01200
H 	H 	0.96210 0.83960 0.93470 0.00600
H 	H 	0.77930 0.06140 0.94630 -0.00200
H 	H 	0.73350 0.87450 0.88630 0.00600
H 	H 	0.74320 0.16380 0.37440 0.03100
H 	H 	0.57290 0.16310 0.31010 0.02900
H 	H 	0.78730 0.36080 0.31670 0.01200
H 	H 	0.03790 0.16040 0.43470 0.00600
H 	H 	0.22070 0.93860 0.44630 -0.00200
H 	H 	0.26650 0.12550 0.38630 0.00600
H 	H 	0.66380 0.75680 0.62440 0.03100
H 	H 	0.66310 0.92710 0.56010 0.03200
H 	H 	0.86080 0.71270 0.56670 0.01100
H 	H 	0.66040 0.46210 0.68470 0.01500
H 	H 	0.43860 0.27930 0.69630 0.00700
H 	H 	0.62550 0.23350 0.63630 0.01000
H 	H 	0.33620 0.24320 0.12440 0.03100
H 	H 	0.33690 0.07290 0.06010 0.03200
H 	H 	0.13920 0.28730 0.06670 0.01100
H 	H 	0.33960 0.53790 0.18470 0.01500
H 	H 	0.56140 0.72070 0.19630 0.00700
H 	H 	0.37450 0.76650 0.13630 0.01000
H 	H 	0.24320 0.33620 0.87560 0.03100
H 	H 	0.07290 0.33690 0.93990 0.03200
H 	H 	0.28730 0.13920 0.93330 0.01100
H 	H 	0.53790 0.33960 0.81530 0.01500
H 	H 	0.72070 0.56140 0.80370 0.00700
H 	H 	0.76650 0.37450 0.86370 0.01000
H 	H 	0.75680 0.66380 0.37560 0.03100
H 	H 	0.92710 0.66310 0.43990 0.03200
H 	H 	0.71270 0.86080 0.43330 0.01100
H 	H 	0.46210 0.66040 0.31530 0.01500
H 	H 	0.27930 0.43860 0.30370 0.00700
H 	H 	0.23350 0.62550 0.36370 0.01000
H 	H 	0.83620 0.25680 0.12560 0.03100
H 	H 	0.83690 0.42710 0.18990 0.02900
H 	H 	0.63920 0.21270 0.18330 0.01200
H 	H 	0.83960 0.96210 0.06530 0.00600
H 	H 	0.06140 0.77930 0.05370 -0.00200
H 	H 	0.87450 0.73350 0.11370 0.00600
H 	H 	0.16380 0.74320 0.62560 0.03100
H 	H 	0.16310 0.57290 0.68990 0.02900
H 	H 	0.36080 0.78730 0.68330 0.01200
H 	H 	0.16040 0.03790 0.56530 0.00600
H 	H 	0.93860 0.22070 0.55370 -0.00200
H 	H 	0.12550 0.26650 0.61370 0.00600
C 	C 	0.13870 0.69200 0.86433 0.34700
C 	C 	0.22030 0.73390 0.84762 -0.15600
C 	C 	0.27290 0.81140 0.85791 0.06200
C 	C 	0.34970 0.85240 0.84370 -0.12500
C 	C 	0.37630 0.80990 0.81983 0.07000
C 	C 	0.32860 0.72820 0.81034 -0.15500
C 	C 	0.24790 0.69130 0.82365 0.07000
C 	C 	0.40370 0.93720 0.85474 0.32800
C 	C 	0.36540 0.67530 0.78644 0.41000
C 	C 	0.88640 0.75570 0.89189 0.42000
C 	C 	0.85200 0.84170 0.90806 -0.19000
C 	C 	0.90710 0.87450 0.92955 0.11900
C 	C 	0.88170 0.95610 0.94290 -0.19000
C 	C 	0.79770 0.00680 0.93652 0.13400
C 	C 	0.74020 0.97510 0.91514 -0.20100
C 	C 	0.76960 0.89410 0.90089 0.12100
C 	C 	0.94600 0.99570 0.96540 0.40600
C 	C 	0.65140 0.03570 0.90761 0.44500
C 	C 	0.86130 0.30800 0.36433 0.34700
C 	C 	0.77970 0.26610 0.34762 -0.15600
C 	C 	0.72710 0.18860 0.35791 0.06200
C 	C 	0.65030 0.14760 0.34370 -0.12500
C 	C 	0.62370 0.19010 0.31983 0.07000
C 	C 	0.67140 0.27180 0.31034 -0.15500
C 	C 	0.75210 0.30870 0.32365 0.07000
C 	C 	0.59630 0.06280 0.35474 0.32800
C 	C 	0.63460 0.32470 0.28644 0.41000
C 	C 	0.11360 0.24430 0.39189 0.42000
C 	C 	0.14800 0.15830 0.40806 -0.19000
C 	C 	0.09290 0.12550 0.42955 0.11900
C 	C 	0.11830 0.04390 0.44290 -0.19000
C 	C 	0.20230 0.99320 0.43652 0.13400
C 	C 	0.25980 0.02490 0.41514 -0.20100
C 	C 	0.23040 0.10590 0.40089 0.12100
C 	C 	0.05400 0.00430 0.46540 0.40600
C 	C 	0.34860 0.96430 0.40761 0.44500
C 	C 	0.80800 0.63870 0.61433 0.34900
C 	C 	0.76610 0.72030 0.59762 -0.15800
C 	C 	0.68860 0.77290 0.60791 0.06100
C 	C 	0.64760 0.84970 0.59370 -0.12300
C 	C 	0.69010 0.87630 0.56983 0.06900
C 	C 	0.77180 0.82860 0.56034 -0.15300
C 	C 	0.80870 0.74790 0.57365 0.07000
C 	C 	0.56280 0.90370 0.60474 0.32600
C 	C 	0.82470 0.86540 0.53644 0.40900
C 	C 	0.74430 0.38640 0.64189 0.41600
C 	C 	0.65830 0.35200 0.65806 -0.17800
C 	C 	0.62550 0.40710 0.67955 0.10900
C 	C 	0.54390 0.38170 0.69290 -0.17300
C 	C 	0.49320 0.29770 0.68652 0.10300
C 	C 	0.52490 0.24020 0.66514 -0.17500
C 	C 	0.60590 0.26960 0.65089 0.10600
C 	C 	0.50430 0.44600 0.71540 0.44100
C 	C 	0.46430 0.15140 0.65761 0.43200
C 	C 	0.19200 0.36130 0.11433 0.34900
C 	C 	0.23390 0.27970 0.09762 -0.15800
C 	C 	0.31140 0.22710 0.10791 0.06100
C 	C 	0.35240 0.15030 0.09370 -0.12300
C 	C 	0.30990 0.12370 0.06983 0.06900
C 	C 	0.22820 0.17140 0.06034 -0.15300
C 	C 	0.19130 0.25210 0.07365 0.07000
C 	C 	0.43720 0.09630 0.10474 0.32600
C 	C 	0.17530 0.13460 0.03644 0.40900
C 	C 	0.25570 0.61360 0.14189 0.41600
C 	C 	0.34170 0.64800 0.15806 -0.17800
C 	C 	0.37450 0.59290 0.17955 0.10900
C 	C 	0.45610 0.61830 0.19290 -0.17300
C 	C 	0.50680 0.70230 0.18652 0.10300
C 	C 	0.47510 0.75980 0.16514 -0.17500
C 	C 	0.39410 0.73040 0.15089 0.10600
C 	C 	0.49570 0.55400 0.21540 0.44100
C 	C 	0.53570 0.84860 0.15761 0.43200
C 	C 	0.36130 0.19200 0.88567 0.34900
C 	C 	0.27970 0.23390 0.90238 -0.15800
C 	C 	0.22710 0.31140 0.89209 0.06100
C 	C 	0.15030 0.35240 0.90630 -0.12300
C 	C 	0.12370 0.30990 0.93017 0.06900
C 	C 	0.17140 0.22820 0.93966 -0.15300
C 	C 	0.25210 0.19130 0.92635 0.07000
C 	C 	0.09630 0.43720 0.89526 0.32600
C 	C 	0.13460 0.17530 0.96356 0.40900
C 	C 	0.61360 0.25570 0.85811 0.41600
C 	C 	0.64800 0.34170 0.84194 -0.17800
C 	C 	0.59290 0.37450 0.82045 0.10900
C 	C 	0.61830 0.45610 0.80710 -0.17300
C 	C 	0.70230 0.50680 0.81348 0.10300
C 	C 	0.75980 0.47510 0.83486 -0.17500
C 	C 	0.73040 0.39410 0.84911 0.10600
C 	C 	0.55400 0.49570 0.78460 0.44100
C 	C 	0.84860 0.53570 0.84239 0.43200
C 	C 	0.63870 0.80800 0.38567 0.34900
C 	C 	0.72030 0.76610 0.40238 -0.15800
C 	C 	0.77290 0.68860 0.39209 0.06100
C 	C 	0.84970 0.64760 0.40630 -0.12300
C 	C 	0.87630 0.69010 0.43017 0.06900
C 	C 	0.82860 0.77180 0.43966 -0.15300
C 	C 	0.74790 0.80870 0.42635 0.07000
C 	C 	0.90370 0.56280 0.39526 0.32600
C 	C 	0.86540 0.82470 0.46356 0.40900
C 	C 	0.38640 0.74430 0.35811 0.41600
C 	C 	0.35200 0.65830 0.34194 -0.17800
C 	C 	0.40710 0.62550 0.32045 0.10900
C 	C 	0.38170 0.54390 0.30710 -0.17300
C 	C 	0.29770 0.49320 0.31348 0.10300
C 	C 	0.24020 0.52490 0.33486 -0.17500
C 	C 	0.26960 0.60590 0.34911 0.10600
C 	C 	0.44600 0.50430 0.28460 0.44100
C 	C 	0.15140 0.46430 0.34239 0.43200
C 	C 	0.69200 0.13870 0.13567 0.34700
C 	C 	0.73390 0.22030 0.15238 -0.15600
C 	C 	0.81140 0.27290 0.14209 0.06200
C 	C 	0.85240 0.34970 0.15630 -0.12500
C 	C 	0.80990 0.37630 0.18017 0.07000
C 	C 	0.72820 0.32860 0.18966 -0.15500
C 	C 	0.69130 0.24790 0.17635 0.07000
C 	C 	0.93720 0.40370 0.14526 0.32800
C 	C 	0.67530 0.36540 0.21356 0.41000
C 	C 	0.75570 0.88640 0.10811 0.42000
C 	C 	0.84170 0.85200 0.09194 -0.19000
C 	C 	0.87450 0.90710 0.07045 0.11900
C 	C 	0.95610 0.88170 0.05710 -0.19000
C 	C 	0.00680 0.79770 0.06348 0.13400
C 	C 	0.97510 0.74020 0.08486 -0.20100
C 	C 	0.89410 0.76960 0.09911 0.12100
C 	C 	0.99570 0.94600 0.03460 0.40600
C 	C 	0.03570 0.65140 0.09239 0.44500
C 	C 	0.30800 0.86130 0.63567 0.34700
C 	C 	0.26610 0.77970 0.65238 -0.15600
C 	C 	0.18860 0.72710 0.64209 0.06200
C 	C 	0.14760 0.65030 0.65630 -0.12500
C 	C 	0.19010 0.62370 0.68017 0.07000
C 	C 	0.27180 0.67140 0.68966 -0.15500
C 	C 	0.30870 0.75210 0.67635 0.07000
C 	C 	0.06280 0.59630 0.64526 0.32800
C 	C 	0.32470 0.63460 0.71356 0.41000
C 	C 	0.24430 0.11360 0.60811 0.42000
C 	C 	0.15830 0.14800 0.59194 -0.19000
C 	C 	0.12550 0.09290 0.57045 0.11900
C 	C 	0.04390 0.11830 0.55710 -0.19000
C 	C 	0.99320 0.20230 0.56348 0.13400
C 	C 	0.02490 0.25980 0.58486 -0.20100
C 	C 	0.10590 0.23040 0.59911 0.12100
C 	C 	0.00430 0.05400 0.53460 0.40600
C 	C 	0.96430 0.34860 0.59239 0.44500
O 	O 	0.06140 0.65900 0.85249 -0.58000
O 	O 	0.14710 0.68660 0.88826 -0.34000
O 	O 	0.32110 0.60010 0.77976 -0.49100
O 	O 	0.44160 0.70820 0.77532 -0.47000
O 	O 	0.38530 0.96160 0.87803 -0.34100
O 	O 	0.46320 0.98230 0.84059 -0.41300
O 	O 	0.92940 0.68910 0.90347 -0.47800
O 	O 	0.86850 0.75980 0.86750 -0.50500
O 	O 	0.02720 0.95720 0.96825 -0.47300
O 	O 	0.91310 0.06580 0.97799 -0.49300
O 	O 	0.61480 0.01480 0.88502 -0.47300
O 	O 	0.62470 0.10030 0.92259 -0.52500
O 	O 	0.93860 0.34100 0.35249 -0.58000
O 	O 	0.85290 0.31340 0.38826 -0.34000
O 	O 	0.67890 0.39990 0.27976 -0.49100
O 	O 	0.55840 0.29180 0.27532 -0.47000
O 	O 	0.61470 0.03840 0.37803 -0.34100
O 	O 	0.53680 0.01770 0.34059 -0.41300
O 	O 	0.07060 0.31090 0.40347 -0.47800
O 	O 	0.13150 0.24020 0.36750 -0.50500
O 	O 	0.97280 0.04280 0.46825 -0.47300
O 	O 	0.08690 0.93420 0.47799 -0.49300
O 	O 	0.38520 0.98520 0.38502 -0.47300
O 	O 	0.37530 0.89970 0.42259 -0.52500
O 	O 	0.84100 0.56140 0.60249 -0.59100
O 	O 	0.81340 0.64710 0.63826 -0.34400
O 	O 	0.89990 0.82110 0.52976 -0.48700
O 	O 	0.79180 0.94160 0.52532 -0.46400
O 	O 	0.53840 0.88530 0.62803 -0.33500
O 	O 	0.51770 0.96320 0.59059 -0.40600
O 	O 	0.81090 0.42940 0.65347 -0.47200
O 	O 	0.74020 0.36850 0.61750 -0.50200
O 	O 	0.54280 0.52720 0.71825 -0.49300
O 	O 	0.43420 0.41310 0.72799 -0.50600
O 	O 	0.48520 0.11480 0.63502 -0.47600
O 	O 	0.39970 0.12470 0.67259 -0.52700
O 	O 	0.15900 0.43860 0.10249 -0.59100
O 	O 	0.18660 0.35290 0.13826 -0.34400
O 	O 	0.10010 0.17890 0.02976 -0.48700
O 	O 	0.20820 0.05840 0.02532 -0.46400
O 	O 	0.46160 0.11470 0.12803 -0.33500
O 	O 	0.48230 0.03680 0.09059 -0.40600
O 	O 	0.18910 0.57060 0.15347 -0.47200
O 	O 	0.25980 0.63150 0.11750 -0.50200
O 	O 	0.45720 0.47280 0.21825 -0.49300
O 	O 	0.56580 0.58690 0.22799 -0.50600
O 	O 	0.51480 0.88520 0.13502 -0.47600
O 	O 	0.60030 0.87530 0.17259 -0.52700
O 	O 	0.43860 0.15900 0.89751 -0.59100
O 	O 	0.35290 0.18660 0.86174 -0.34400
O 	O 	0.17890 0.10010 0.97024 -0.48700
O 	O 	0.05840 0.20820 0.97468 -0.46400
O 	O 	0.11470 0.46160 0.87197 -0.33500
O 	O 	0.03680 0.48230 0.90941 -0.40600
O 	O 	0.57060 0.18910 0.84653 -0.47200
O 	O 	0.63150 0.25980 0.88250 -0.50200
O 	O 	0.47280 0.45720 0.78175 -0.49300
O 	O 	0.58690 0.56580 0.77201 -0.50600
O 	O 	0.88520 0.51480 0.86498 -0.47600
O 	O 	0.87530 0.60030 0.82741 -0.52700
O 	O 	0.56140 0.84100 0.39751 -0.59100
O 	O 	0.64710 0.81340 0.36174 -0.34400
O 	O 	0.82110 0.89990 0.47024 -0.48700
O 	O 	0.94160 0.79180 0.47468 -0.46400
O 	O 	0.88530 0.53840 0.37197 -0.33500
O 	O 	0.96320 0.51770 0.40941 -0.40600
O 	O 	0.42940 0.81090 0.34653 -0.47200
O 	O 	0.36850 0.74020 0.38250 -0.50200
O 	O 	0.52720 0.54280 0.28175 -0.49300
O 	O 	0.41310 0.43420 0.27201 -0.50600
O 	O 	0.11480 0.48520 0.36498 -0.47600
O 	O 	0.12470 0.39970 0.32741 -0.52700
O 	O 	0.65900 0.06140 0.14751 -0.58000
O 	O 	0.68660 0.14710 0.11174 -0.34000
O 	O 	0.60010 0.32110 0.22024 -0.49100
O 	O 	0.70820 0.44160 0.22468 -0.47000
O 	O 	0.96160 0.38530 0.12197 -0.34100
O 	O 	0.98230 0.46320 0.15941 -0.41300
O 	O 	0.68910 0.92940 0.09653 -0.47800
O 	O 	0.75980 0.86850 0.13250 -0.50500
O 	O 	0.95720 0.02720 0.03175 -0.47300
O 	O 	0.06580 0.91310 0.02201 -0.49300
O 	O 	0.01480 0.61480 0.11498 -0.47300
O 	O 	0.10030 0.62470 0.07741 -0.52500
O 	O 	0.34100 0.93860 0.64751 -0.58000
O 	O 	0.31340 0.85290 0.61174 -0.34000
O 	O 	0.39990 0.67890 0.72024 -0.49100
O 	O 	0.29180 0.55840 0.72468 -0.47000
O 	O 	0.03840 0.61470 0.62197 -0.34100
O 	O 	0.01770 0.53680 0.65941 -0.41300
O 	O 	0.31090 0.07060 0.59653 -0.47800
O 	O 	0.24020 0.13150 0.63250 -0.50500
O 	O 	0.04280 0.97280 0.53175 -0.47300
O 	O 	0.93420 0.08690 0.52201 -0.49300
O 	O 	0.98520 0.38520 0.61498 -0.47300
O 	O 	0.89970 0.37530 0.57741 -0.52500
