data_crystal

_cell_length_a 16.16520
_cell_length_b 16.16520
_cell_length_c 29.49640
_cell_angle_alpha 74.31600
_cell_angle_beta  74.31600
_cell_angle_gamma 63.78510

_symmetry_space_group_name_	'P 1'
_symmetry_space_group_name_H-M	'P 1'

loop_
_symmetry_equiv_pos_as_xyz
  x,y,z

loop_
_atom_site_label
_atom_site_type_symbol
_atom_site_fract_x
_atom_site_fract_y
_atom_site_fract_z
_atom_site_charge
Co	Co	0.78939 0.12525 0.51700 1.15900
Co	Co	0.03762 0.81996 0.58090 1.14800
Co	Co	0.87475 0.21061 0.98300 1.17600
Co	Co	0.18004 0.96238 0.91910 1.18100
Co	Co	0.21061 0.87475 0.48300 1.17300
Co	Co	0.96238 0.18004 0.41910 1.18100
Co	Co	0.12525 0.78939 0.01700 1.15600
Co	Co	0.81996 0.03762 0.08090 1.14600
Co	Co	0.00000 0.00000 0.50000 1.12600
Co	Co	-0.00000 0.00000 -0.00000 1.11800
H 	H 	0.71740 0.01980 0.61340 -0.01000
H 	H 	0.63470 0.05030 0.68760 0.06200
H 	H 	0.54650 0.32370 0.63260 0.06900
H 	H 	0.63010 0.28530 0.55990 0.00400
H 	H 	0.48100 0.11440 0.73800 0.09400
H 	H 	0.37840 0.29640 0.82880 0.14400
H 	H 	0.56430 0.32550 0.71110 0.14600
H 	H 	0.47030 0.02030 0.83110 0.04300
H 	H 	0.38070 0.94170 0.87710 0.06500
H 	H 	0.15350 0.16230 0.86090 -0.00200
H 	H 	0.23670 0.24930 0.81790 0.06300
H 	H 	0.38970 0.46870 0.85910 0.13400
H 	H 	0.17320 0.68120 0.80450 0.08900
H 	H 	0.37150 0.49970 0.72250 0.12600
H 	H 	0.36470 0.57450 0.90450 0.06900
H 	H 	0.30850 0.64290 0.97080 0.00400
H 	H 	0.05240 0.72420 0.95430 -0.00000
H 	H 	0.10090 0.66270 0.88650 0.06400
H 	H 	0.13750 0.77650 0.73820 0.06600
H 	H 	0.06390 0.85430 0.67450 -0.00500
H 	H 	0.20950 0.64410 0.60890 0.00200
H 	H 	0.28340 0.55880 0.67200 0.06500
H 	H 	0.95460 0.72820 0.52580 -0.02200
H 	H 	0.90260 0.60880 0.54420 0.16500
H 	H 	0.63800 0.79400 0.56440 0.16700
H 	H 	0.68890 0.91390 0.54630 -0.02300
H 	H 	0.83530 0.58350 0.48710 0.16400
H 	H 	0.87570 0.45170 0.45650 -0.03400
H 	H 	0.73240 0.35420 0.57510 -0.03800
H 	H 	0.69730 0.48270 0.60720 0.16700
H 	H 	0.11780 0.03260 0.30270 -0.12700
H 	H 	0.17950 0.94570 0.24280 0.20100
H 	H 	0.21660 0.71160 0.33960 0.18500
H 	H 	0.15970 0.79810 0.40010 -0.06100
H 	H 	0.98020 0.28260 0.88660 0.01700
H 	H 	0.94970 0.36530 0.81240 0.07600
H 	H 	0.67630 0.45350 0.86740 0.07100
H 	H 	0.71470 0.36990 0.94010 0.00600
H 	H 	0.88560 0.51900 0.76200 0.09900
H 	H 	0.70360 0.62160 0.67120 0.13900
H 	H 	0.67450 0.43570 0.78890 0.14300
H 	H 	0.97970 0.52970 0.66890 0.10700
H 	H 	0.05830 0.61930 0.62290 -0.06200
H 	H 	0.83770 0.84650 0.63910 0.00300
H 	H 	0.75070 0.76330 0.68210 0.09000
H 	H 	0.53130 0.61030 0.64090 0.13400
H 	H 	0.31880 0.82680 0.69550 0.09400
H 	H 	0.50030 0.62850 0.77750 0.12800
H 	H 	0.42550 0.63530 0.59550 0.06800
H 	H 	0.35710 0.69150 0.52920 0.00100
H 	H 	0.27580 0.94760 0.54570 0.02000
H 	H 	0.33730 0.89910 0.61350 0.07300
H 	H 	0.22350 0.86250 0.76180 0.06800
H 	H 	0.14570 0.93610 0.82550 0.01000
H 	H 	0.35590 0.79050 0.89110 0.00300
H 	H 	0.44120 0.71660 0.82800 0.06900
H 	H 	0.27180 0.04540 0.97420 -0.04900
H 	H 	0.39120 0.09740 0.95580 0.15600
H 	H 	0.20600 0.36200 0.93560 0.16400
H 	H 	0.08610 0.31110 0.95370 -0.04500
H 	H 	0.41650 0.16470 0.01290 0.10000
H 	H 	0.54830 0.12430 0.04350 -0.01000
H 	H 	0.64580 0.26760 0.92490 -0.01300
H 	H 	0.51730 0.30270 0.89280 0.14300
H 	H 	0.96740 0.88220 0.19730 0.06200
H 	H 	0.05430 0.82050 0.25720 0.11200
H 	H 	0.28840 0.78340 0.16040 0.14100
H 	H 	0.20190 0.84030 0.09990 -0.00300
H 	H 	0.28260 0.98020 0.38660 0.01800
H 	H 	0.36530 0.94970 0.31240 0.07600
H 	H 	0.45350 0.67630 0.36740 0.07100
H 	H 	0.36990 0.71470 0.44010 0.00400
H 	H 	0.51900 0.88560 0.26200 0.09900
H 	H 	0.62160 0.70360 0.17120 0.13900
H 	H 	0.43570 0.67450 0.28890 0.14200
H 	H 	0.52970 0.97970 0.16890 0.10800
H 	H 	0.61930 0.05830 0.12290 -0.06600
H 	H 	0.84650 0.83770 0.13910 0.00300
H 	H 	0.76330 0.75070 0.18210 0.09100
H 	H 	0.61030 0.53130 0.14090 0.13300
H 	H 	0.82680 0.31880 0.19550 0.09400
H 	H 	0.62850 0.50030 0.27750 0.12700
H 	H 	0.63530 0.42550 0.09550 0.06800
H 	H 	0.69150 0.35710 0.02920 -0.00300
H 	H 	0.94760 0.27580 0.04570 0.01700
H 	H 	0.89910 0.33730 0.11350 0.07300
H 	H 	0.86250 0.22350 0.26180 0.06800
H 	H 	0.93610 0.14570 0.32550 0.01000
H 	H 	0.79050 0.35590 0.39110 0.00200
H 	H 	0.71660 0.44120 0.32800 0.06800
H 	H 	0.04540 0.27180 0.47420 -0.05500
H 	H 	0.09740 0.39120 0.45580 0.15700
H 	H 	0.36200 0.20600 0.43560 0.16600
H 	H 	0.31110 0.08610 0.45370 -0.05000
H 	H 	0.16470 0.41650 0.51290 0.15300
H 	H 	0.12430 0.54830 0.54350 -0.05100
H 	H 	0.26760 0.64580 0.42490 -0.03900
H 	H 	0.30270 0.51730 0.39280 0.16700
H 	H 	0.88220 0.96740 0.69730 0.05700
H 	H 	0.82050 0.05430 0.75720 0.11400
H 	H 	0.78340 0.28840 0.66040 0.14200
H 	H 	0.84030 0.20190 0.59990 -0.00400
H 	H 	0.01980 0.71740 0.11340 -0.01200
H 	H 	0.05030 0.63470 0.18760 0.06100
H 	H 	0.32370 0.54650 0.13260 0.06800
H 	H 	0.28530 0.63010 0.05990 0.00200
H 	H 	0.11440 0.48100 0.23800 0.09300
H 	H 	0.29640 0.37840 0.32880 0.14500
H 	H 	0.32550 0.56430 0.21110 0.14600
H 	H 	0.02030 0.47030 0.33110 0.04100
H 	H 	0.94170 0.38070 0.37710 0.06700
H 	H 	0.16230 0.15350 0.36090 -0.00200
H 	H 	0.24930 0.23670 0.31790 0.06200
H 	H 	0.46870 0.38970 0.35910 0.13300
H 	H 	0.68120 0.17320 0.30450 0.08900
H 	H 	0.49970 0.37150 0.22250 0.12600
H 	H 	0.57450 0.36470 0.40450 0.06900
H 	H 	0.64290 0.30850 0.47080 -0.00000
H 	H 	0.72420 0.05240 0.45430 -0.00400
H 	H 	0.66270 0.10090 0.38650 0.06400
H 	H 	0.77650 0.13750 0.23820 0.06600
H 	H 	0.85430 0.06390 0.17450 -0.00600
H 	H 	0.64410 0.20950 0.10890 0.00100
H 	H 	0.55880 0.28340 0.17200 0.06500
H 	H 	0.72820 0.95460 0.02580 -0.02500
H 	H 	0.60880 0.90260 0.04420 0.16500
H 	H 	0.79400 0.63800 0.06440 0.16800
H 	H 	0.91390 0.68890 0.04630 -0.02500
H 	H 	0.58350 0.83530 0.98710 0.20400
H 	H 	0.45170 0.87570 0.95650 -0.06700
H 	H 	0.35420 0.73240 0.07510 -0.05800
H 	H 	0.48270 0.69730 0.10720 0.18600
H 	H 	0.03260 0.11780 0.80270 -0.12300
H 	H 	0.94570 0.17950 0.74280 0.19900
H 	H 	0.71160 0.21660 0.83960 0.18500
H 	H 	0.79810 0.15970 0.90010 -0.06000
C 	C 	0.68357 0.08179 0.61755 0.06900
C 	C 	0.63395 0.09955 0.66231 -0.11600
C 	C 	0.58310 0.19100 0.66941 0.02300
C 	C 	0.58165 0.26117 0.62976 -0.11400
C 	C 	0.63263 0.23745 0.58619 0.06900
C 	C 	0.53046 0.21612 0.71652 0.12900
C 	C 	0.47803 0.16743 0.74624 -0.20000
C 	C 	0.42096 0.19730 0.78835 0.13600
C 	C 	0.41743 0.27513 0.80113 -0.27900
C 	C 	0.47296 0.32096 0.77201 0.29700
C 	C 	0.52825 0.29313 0.73028 -0.27200
C 	C 	0.36370 0.14474 0.81864 0.00300
C 	C 	0.40540 0.05154 0.83714 -0.06600
C 	C 	0.35089 0.00473 0.86461 -0.02500
C 	C 	0.21861 0.13327 0.85567 0.06900
C 	C 	0.26807 0.18583 0.82897 -0.10600
C 	C 	0.39165 0.47243 0.79024 0.29000
C 	C 	0.35766 0.50162 0.83368 -0.26300
C 	C 	0.27511 0.58071 0.83935 0.12100
C 	C 	0.22906 0.62888 0.80071 -0.18400
C 	C 	0.26473 0.60053 0.75652 0.11700
C 	C 	0.34695 0.52049 0.75170 -0.25800
C 	C 	0.23934 0.61474 0.88566 0.02600
C 	C 	0.30050 0.60704 0.91319 -0.11300
C 	C 	0.26598 0.64760 0.95336 0.06300
C 	C 	0.11640 0.69562 0.94347 0.06600
C 	C 	0.14495 0.65853 0.90276 -0.11800
C 	C 	0.21692 0.65530 0.71447 0.02900
C 	C 	0.15208 0.74628 0.71258 -0.12300
C 	C 	0.10835 0.79341 0.67375 0.07100
C 	C 	0.19254 0.67100 0.63601 0.06400
C 	C 	0.23805 0.61901 0.67391 -0.11800
C 	C 	0.85807 0.91207 0.52720 0.43600
C 	C 	0.82721 0.83353 0.53477 -0.25200
C 	C 	0.89077 0.74185 0.53378 0.21700
C 	C 	0.85981 0.67039 0.54456 -0.35100
C 	C 	0.76613 0.69105 0.55576 0.36000
C 	C 	0.70172 0.78112 0.55668 -0.34200
C 	C 	0.73229 0.85241 0.54599 0.21800
C 	C 	0.76219 0.54629 0.55010 0.36200
C 	C 	0.81537 0.53669 0.50505 -0.36100
C 	C 	0.83884 0.45808 0.48661 0.23500
C 	C 	0.80849 0.38851 0.51219 -0.26300
C 	C 	0.75417 0.39991 0.55746 0.22400
C 	C 	0.73217 0.47713 0.57659 -0.34800
C 	C 	0.83107 0.30383 0.49228 0.45500
C 	C 	0.08897 0.98209 0.39689 0.52000
C 	C 	0.13089 0.92509 0.35802 -0.36000
C 	C 	0.13770 0.96778 0.31035 0.38900
C 	C 	0.17302 0.91646 0.27459 -0.45700
C 	C 	0.19913 0.82085 0.28581 0.40500
C 	C 	0.19592 0.77652 0.33232 -0.41000
C 	C 	0.16191 0.82835 0.36837 0.29400
C 	C 	0.91821 0.31643 0.88245 0.07300
C 	C 	0.90045 0.36605 0.83769 -0.11200
C 	C 	0.80900 0.41690 0.83059 0.03000
C 	C 	0.73883 0.41835 0.87024 -0.11400
C 	C 	0.76255 0.36737 0.91381 0.07200
C 	C 	0.78388 0.46954 0.78348 0.12400
C 	C 	0.83257 0.52197 0.75376 -0.18200
C 	C 	0.80270 0.57904 0.71165 0.11100
C 	C 	0.72487 0.58257 0.69887 -0.26000
C 	C 	0.67904 0.52704 0.72799 0.28900
C 	C 	0.70687 0.47175 0.76972 -0.26300
C 	C 	0.85526 0.63630 0.68136 0.07300
C 	C 	0.94846 0.59460 0.66286 -0.18900
C 	C 	0.99527 0.64911 0.63539 0.18800
C 	C 	0.86673 0.78139 0.64433 0.10200
C 	C 	0.81417 0.73193 0.67103 -0.15200
C 	C 	0.52757 0.60835 0.70976 0.29100
C 	C 	0.49838 0.64234 0.66632 -0.26300
C 	C 	0.41929 0.72489 0.66065 0.12400
C 	C 	0.37112 0.77094 0.69929 -0.18300
C 	C 	0.39947 0.73527 0.74348 0.12200
C 	C 	0.47951 0.65305 0.74830 -0.25800
C 	C 	0.38526 0.76066 0.61434 0.02700
C 	C 	0.39296 0.69950 0.58681 -0.11200
C 	C 	0.35240 0.73402 0.54664 0.06400
C 	C 	0.30438 0.88360 0.55653 0.06600
C 	C 	0.34147 0.85505 0.59724 -0.11400
C 	C 	0.34470 0.78308 0.78553 0.03300
C 	C 	0.25372 0.84792 0.78742 -0.11800
C 	C 	0.20659 0.89165 0.82625 0.07700
C 	C 	0.32900 0.80746 0.86399 0.06900
C 	C 	0.38099 0.76195 0.82609 -0.11400
C 	C 	0.08793 0.14193 0.97280 0.45000
C 	C 	0.16647 0.17279 0.96523 -0.28100
C 	C 	0.25815 0.10923 0.96622 0.23100
C 	C 	0.32961 0.14019 0.95544 -0.36200
C 	C 	0.30895 0.23387 0.94424 0.36100
C 	C 	0.21888 0.29828 0.94332 -0.35700
C 	C 	0.14759 0.26771 0.95401 0.23100
C 	C 	0.45371 0.23781 0.94990 0.29500
C 	C 	0.46331 0.18463 0.99495 -0.24400
C 	C 	0.54192 0.16116 0.01339 0.10900
C 	C 	0.61149 0.19151 0.98781 -0.17900
C 	C 	0.60009 0.24583 0.94254 0.15200
C 	C 	0.52287 0.26783 0.92341 -0.28300
C 	C 	0.69617 0.16893 0.00772 0.40100
C 	C 	0.01791 0.91103 0.10311 0.34800
C 	C 	0.07491 0.86911 0.14198 -0.16600
C 	C 	0.03222 0.86230 0.18965 0.04900
C 	C 	0.08354 0.82698 0.22541 -0.23600
C 	C 	0.17915 0.80087 0.21419 0.28500
C 	C 	0.22348 0.80408 0.16768 -0.27100
C 	C 	0.17165 0.83809 0.13163 0.14000
C 	C 	0.31643 0.91821 0.38245 0.07200
C 	C 	0.36605 0.90045 0.33769 -0.11200
C 	C 	0.41690 0.80900 0.33059 0.03000
C 	C 	0.41835 0.73883 0.37024 -0.11500
C 	C 	0.36737 0.76255 0.41381 0.07200
C 	C 	0.46954 0.78388 0.28348 0.12400
C 	C 	0.52197 0.83257 0.25376 -0.18100
C 	C 	0.57904 0.80270 0.21165 0.11000
C 	C 	0.58257 0.72487 0.19887 -0.25900
C 	C 	0.52704 0.67904 0.22799 0.28900
C 	C 	0.47175 0.70687 0.26972 -0.26300
C 	C 	0.63630 0.85526 0.18136 0.07500
C 	C 	0.59460 0.94846 0.16286 -0.19300
C 	C 	0.64911 0.99527 0.13539 0.19300
C 	C 	0.78139 0.86673 0.14433 0.10300
C 	C 	0.73193 0.81417 0.17103 -0.15300
C 	C 	0.60835 0.52757 0.20976 0.29100
C 	C 	0.64234 0.49838 0.16632 -0.26200
C 	C 	0.72489 0.41929 0.16065 0.12300
C 	C 	0.77094 0.37112 0.19929 -0.18300
C 	C 	0.73527 0.39947 0.24348 0.12100
C 	C 	0.65305 0.47951 0.24830 -0.25700
C 	C 	0.76066 0.38526 0.11434 0.02700
C 	C 	0.69950 0.39296 0.08681 -0.11300
C 	C 	0.73402 0.35240 0.04664 0.06400
C 	C 	0.88360 0.30438 0.05653 0.06600
C 	C 	0.85505 0.34147 0.09724 -0.11500
C 	C 	0.78308 0.34470 0.28553 0.03300
C 	C 	0.84792 0.25372 0.28742 -0.11800
C 	C 	0.89165 0.20659 0.32625 0.07700
C 	C 	0.80746 0.32900 0.36399 0.06900
C 	C 	0.76195 0.38099 0.32609 -0.11500
C 	C 	0.14193 0.08793 0.47280 0.45200
C 	C 	0.17279 0.16647 0.46523 -0.28900
C 	C 	0.10923 0.25815 0.46622 0.23700
C 	C 	0.14019 0.32961 0.45544 -0.37300
C 	C 	0.23387 0.30895 0.44424 0.37000
C 	C 	0.29828 0.21888 0.44332 -0.36600
C 	C 	0.26771 0.14759 0.45401 0.23600
C 	C 	0.23781 0.45371 0.44990 0.36100
C 	C 	0.18463 0.46331 0.49495 -0.36900
C 	C 	0.16116 0.54192 0.51339 0.23300
C 	C 	0.19151 0.61149 0.48781 -0.27300
C 	C 	0.24583 0.60009 0.44254 0.22600
C 	C 	0.26783 0.52287 0.42341 -0.35300
C 	C 	0.16893 0.69617 0.50772 0.45600
C 	C 	0.91103 0.01791 0.60311 0.35200
C 	C 	0.86911 0.07491 0.64198 -0.17000
C 	C 	0.86230 0.03222 0.68965 0.05800
C 	C 	0.82698 0.08354 0.72541 -0.24200
C 	C 	0.80087 0.17915 0.71419 0.28900
C 	C 	0.80408 0.22348 0.66768 -0.27400
C 	C 	0.83809 0.17165 0.63163 0.14400
C 	C 	0.08179 0.68357 0.11755 0.06800
C 	C 	0.09955 0.63395 0.16231 -0.11600
C 	C 	0.19100 0.58310 0.16941 0.02300
C 	C 	0.26117 0.58165 0.12976 -0.11500
C 	C 	0.23745 0.63263 0.08619 0.06900
C 	C 	0.21612 0.53046 0.21652 0.12900
C 	C 	0.16743 0.47803 0.24624 -0.20100
C 	C 	0.19730 0.42096 0.28835 0.13700
C 	C 	0.27513 0.41743 0.30113 -0.28000
C 	C 	0.32096 0.47296 0.27201 0.29700
C 	C 	0.29313 0.52825 0.23028 -0.27300
C 	C 	0.14474 0.36370 0.31864 0.00100
C 	C 	0.05154 0.40540 0.33714 -0.06300
C 	C 	0.00473 0.35089 0.36461 -0.03100
C 	C 	0.13327 0.21861 0.35567 0.06800
C 	C 	0.18583 0.26807 0.32897 -0.10500
C 	C 	0.47243 0.39165 0.29024 0.29000
C 	C 	0.50162 0.35766 0.33368 -0.26300
C 	C 	0.58071 0.27511 0.33935 0.12000
C 	C 	0.62888 0.22906 0.30071 -0.18300
C 	C 	0.60053 0.26473 0.25652 0.11700
C 	C 	0.52049 0.34695 0.25170 -0.25800
C 	C 	0.61474 0.23934 0.38566 0.02600
C 	C 	0.60704 0.30050 0.41319 -0.11400
C 	C 	0.64760 0.26598 0.45336 0.06300
C 	C 	0.69562 0.11640 0.44347 0.06600
C 	C 	0.65853 0.14495 0.40276 -0.11900
C 	C 	0.65530 0.21692 0.21447 0.02900
C 	C 	0.74628 0.15208 0.21258 -0.12400
C 	C 	0.79341 0.10835 0.17375 0.07100
C 	C 	0.67100 0.19254 0.13601 0.06400
C 	C 	0.61901 0.23805 0.17391 -0.11800
C 	C 	0.91207 0.85807 0.02720 0.43600
C 	C 	0.83353 0.82721 0.03477 -0.25600
C 	C 	0.74185 0.89077 0.03378 0.22100
C 	C 	0.67039 0.85981 0.04456 -0.35900
C 	C 	0.69105 0.76613 0.05576 0.36600
C 	C 	0.78112 0.70172 0.05668 -0.34800
C 	C 	0.85241 0.73229 0.04599 0.22200
C 	C 	0.54629 0.76219 0.05010 0.41300
C 	C 	0.53669 0.81537 0.00505 -0.45500
C 	C 	0.45808 0.83884 0.98661 0.33300
C 	C 	0.38851 0.80849 0.01219 -0.33800
C 	C 	0.39991 0.75417 0.05746 0.28300
C 	C 	0.47713 0.73217 0.07659 -0.40300
C 	C 	0.30383 0.83107 0.99228 0.50200
C 	C 	0.98209 0.08897 0.89689 0.51500
C 	C 	0.92509 0.13089 0.85802 -0.35500
C 	C 	0.96778 0.13770 0.81035 0.38100
C 	C 	0.91646 0.17302 0.77459 -0.45300
C 	C 	0.82085 0.19913 0.78581 0.40300
C 	C 	0.77652 0.19592 0.83232 -0.40700
C 	C 	0.82835 0.16191 0.86837 0.29100
N 	N 	0.68539 0.14943 0.57975 -0.23000
N 	N 	0.25760 0.04412 0.87445 -0.21500
N 	N 	0.17484 0.69348 0.96879 -0.22700
N 	N 	0.12560 0.75738 0.63527 -0.23100
N 	N 	0.85057 0.31461 0.92025 -0.22200
N 	N 	0.95588 0.74240 0.62555 -0.23600
N 	N 	0.30652 0.82516 0.53121 -0.22400
N 	N 	0.24262 0.87440 0.86473 -0.22200
N 	N 	0.31461 0.85057 0.42025 -0.22200
N 	N 	0.74240 0.95588 0.12555 -0.23700
N 	N 	0.82516 0.30652 0.03121 -0.22800
N 	N 	0.87440 0.24262 0.36473 -0.22200
N 	N 	0.14943 0.68539 0.07975 -0.23100
N 	N 	0.04412 0.25760 0.37445 -0.21400
N 	N 	0.69348 0.17484 0.46879 -0.23100
N 	N 	0.75738 0.12560 0.13527 -0.23200
O 	O 	0.47574 0.39540 0.78594 -0.30400
O 	O 	0.72880 0.62346 0.57153 -0.34500
O 	O 	0.79457 0.99225 0.52758 -0.43200
O 	O 	0.94470 0.89256 0.52143 -0.48300
O 	O 	0.89012 0.29076 0.45428 -0.45300
O 	O 	0.78923 0.25183 0.51500 -0.47000
O 	O 	0.05429 0.06979 0.38403 -0.51600
O 	O 	0.08964 0.93956 0.43981 -0.54200
O 	O 	0.90012 0.09326 0.46134 -0.58700
O 	O 	0.60460 0.52426 0.71406 -0.30200
O 	O 	0.37654 0.27120 0.92847 -0.33200
O 	O 	0.00775 0.20543 0.97242 -0.48900
O 	O 	0.10744 0.05530 0.97857 -0.53800
O 	O 	0.70924 0.10988 0.04572 -0.46300
O 	O 	0.74817 0.21077 0.98500 -0.44800
O 	O 	0.93021 0.94571 0.11597 -0.38600
O 	O 	0.06044 0.91036 0.06019 -0.50500
O 	O 	0.90674 0.09988 0.03866 -0.58900
O 	O 	0.52426 0.60460 0.21406 -0.30200
O 	O 	0.27120 0.37654 0.42847 -0.35100
O 	O 	0.20543 0.00775 0.47242 -0.49500
O 	O 	0.05530 0.10744 0.47857 -0.54400
O 	O 	0.10988 0.70924 0.54572 -0.47500
O 	O 	0.21077 0.74817 0.48500 -0.47100
O 	O 	0.94571 0.93021 0.61597 -0.38900
O 	O 	0.91036 0.06044 0.56019 -0.50400
O 	O 	0.09988 0.90674 0.53866 -0.58500
O 	O 	0.39540 0.47574 0.28594 -0.30400
O 	O 	0.62346 0.72880 0.07153 -0.36000
O 	O 	0.99225 0.79457 0.02758 -0.43400
O 	O 	0.89256 0.94470 0.02143 -0.48400
O 	O 	0.29076 0.89012 0.95428 -0.46400
O 	O 	0.25183 0.78923 0.01500 -0.49000
O 	O 	0.06979 0.05429 0.88403 -0.51300
O 	O 	0.93956 0.08964 0.93981 -0.53700
O 	O 	0.09326 0.90012 0.96134 -0.58100
O 	O 	0.23340 0.76660 0.25000 -0.32500
O 	O 	0.76660 0.23340 0.75000 -0.32500
