data_crystal

_cell_length_a 10.15200
_cell_length_b 17.95300
_cell_length_c 18.06200
_cell_angle_alpha 90.00000
_cell_angle_beta  94.62000
_cell_angle_gamma 90.00000

_symmetry_space_group_name_	'P 1'
_symmetry_space_group_name_H-M	'P 1'

loop_
_symmetry_equiv_pos_as_xyz
  x,y,z

loop_
_atom_site_label
_atom_site_type_symbol
_atom_site_fract_x
_atom_site_fract_y
_atom_site_fract_z
_atom_site_charge
Co	Co	0.50930 0.69537 0.62858 1.18800
Co	Co	0.27432 0.75069 0.48809 1.09600
Co	Co	0.49070 0.19537 0.37142 1.18900
Co	Co	0.72568 0.25069 0.51191 1.09600
H 	H 	0.62050 0.05280 0.77510 0.11600
H 	H 	0.86460 0.10990 0.10100 0.11600
H 	H 	0.02290 0.12140 0.80280 0.05200
H 	H 	0.11410 0.14290 0.92280 0.06000
H 	H 	0.76630 0.09260 0.00210 0.04300
H 	H 	0.67510 0.07120 0.88210 0.03700
H 	H 	0.58950 0.91850 0.69740 0.08400
H 	H 	0.45840 0.96550 0.48730 0.04500
H 	H 	0.62650 0.12760 0.62230 0.03800
H 	H 	0.16540 0.16010 0.18330 0.11600
H 	H 	0.03500 0.20460 0.38190 0.05900
H 	H 	0.77440 0.16360 0.20630 0.08300
H 	H 	0.37950 0.55280 0.22490 0.11500
H 	H 	0.13540 0.60990 0.89900 0.11500
H 	H 	0.97710 0.62140 0.19720 0.05100
H 	H 	0.88590 0.64290 0.07720 0.06000
H 	H 	0.23370 0.59260 0.99790 0.04200
H 	H 	0.32490 0.57120 0.11790 0.03700
H 	H 	0.41050 0.41850 0.30260 0.08000
H 	H 	0.54160 0.46550 0.51270 0.04200
H 	H 	0.37350 0.62760 0.37770 0.03500
H 	H 	0.83460 0.66010 0.81670 0.11600
H 	H 	0.96500 0.70460 0.61810 0.05800
H 	H 	0.22560 0.66360 0.79370 0.08300
C 	C 	0.83999 0.09417 0.83054 -0.04700
C 	C 	0.97149 0.11565 0.84275 -0.02400
C 	C 	0.02611 0.12850 0.91467 -0.03900
C 	C 	0.94923 0.11986 0.97439 -0.03200
C 	C 	0.81773 0.09838 0.96218 -0.03800
C 	C 	0.76311 0.08553 0.89026 -0.02500
C 	C 	0.78660 0.08465 0.75237 0.21800
C 	C 	0.00899 0.14279 0.04803 0.19800
C 	C 	0.61600 0.02569 0.66965 0.11400
C 	C 	0.57570 0.95293 0.65909 -0.08600
C 	C 	0.51250 0.93065 0.58912 -0.07900
C 	C 	0.49910 0.98040 0.53288 0.01200
C 	C 	0.54570 0.05503 0.54157 -0.08400
C 	C 	0.60120 0.07840 0.61359 -0.07200
C 	C 	0.46490 0.85160 0.58063 0.40000
C 	C 	0.53110 0.10798 0.48021 0.33700
C 	C 	0.96780 0.16142 0.18176 0.14000
C 	C 	0.09470 0.16782 0.21215 -0.12600
C 	C 	0.11680 0.18617 0.28708 -0.00500
C 	C 	0.01680 0.19448 0.33164 -0.03000
C 	C 	0.88430 0.18773 0.30116 -0.05200
C 	C 	0.86070 0.16994 0.22678 -0.09700
C 	C 	0.25940 0.19060 0.32087 0.27400
C 	C 	0.77200 0.19870 0.34966 0.38500
C 	C 	0.16001 0.59417 0.16946 -0.04800
C 	C 	0.02851 0.61565 0.15725 -0.02300
C 	C 	0.97389 0.62850 0.08533 -0.04000
C 	C 	0.05077 0.61986 0.02561 -0.03200
C 	C 	0.18227 0.59838 0.03782 -0.03800
C 	C 	0.23689 0.58553 0.10974 -0.02600
C 	C 	0.21340 0.58465 0.24763 0.21700
C 	C 	0.99101 0.64279 0.95197 0.19700
C 	C 	0.38400 0.52569 0.33035 0.10200
C 	C 	0.42430 0.45293 0.34091 -0.07100
C 	C 	0.48750 0.43065 0.41088 -0.08700
C 	C 	0.50090 0.48040 0.46712 0.02700
C 	C 	0.45430 0.55503 0.45843 -0.09600
C 	C 	0.39880 0.57840 0.38641 -0.06300
C 	C 	0.53510 0.35160 0.41937 0.40300
C 	C 	0.46890 0.60798 0.51979 0.34100
C 	C 	0.03220 0.66142 0.81824 0.14000
C 	C 	0.90530 0.66782 0.78785 -0.12600
C 	C 	0.88320 0.68617 0.71292 -0.00600
C 	C 	0.98320 0.69448 0.66836 -0.03000
C 	C 	0.11570 0.68773 0.69884 -0.05300
C 	C 	0.13930 0.66994 0.77322 -0.09700
C 	C 	0.74060 0.69060 0.67913 0.27400
C 	C 	0.22800 0.69870 0.65034 0.38500
N 	N 	0.67910 0.04410 0.74120 -0.22700
N 	N 	0.93120 0.14310 0.10630 -0.22000
N 	N 	0.32090 0.54410 0.25880 -0.22600
N 	N 	0.06880 0.64310 0.89370 -0.22000
O 	O 	0.85190 0.11010 0.70230 -0.25300
O 	O 	0.12290 0.17040 0.05900 -0.21300
O 	O 	0.50130 0.80780 0.63110 -0.44500
O 	O 	0.40040 0.83580 0.52140 -0.48100
O 	O 	0.48450 0.08610 0.41800 -0.38300
O 	O 	0.56380 0.17580 0.49040 -0.52100
O 	O 	0.35300 0.17960 0.28030 -0.35900
O 	O 	0.27760 0.20470 0.38850 -0.34900
O 	O 	0.79940 0.22610 0.41170 -0.48300
O 	O 	0.65910 0.17870 0.32300 -0.43500
O 	O 	0.14810 0.61010 0.29770 -0.25400
O 	O 	0.87710 0.67040 0.94100 -0.21400
O 	O 	0.49870 0.30780 0.36890 -0.44500
O 	O 	0.59960 0.33580 0.47860 -0.48100
O 	O 	0.51550 0.58610 0.58200 -0.38500
O 	O 	0.43620 0.67580 0.50960 -0.52200
O 	O 	0.64700 0.67960 0.71970 -0.36000
O 	O 	0.72240 0.70470 0.61150 -0.34900
O 	O 	0.20060 0.72610 0.58830 -0.48400
O 	O 	0.34090 0.67870 0.67700 -0.43500
