data_crystal

_cell_length_a 34.69570
_cell_length_b 34.69570
_cell_length_c 41.03280
_cell_angle_alpha 90.00000
_cell_angle_beta  90.00000
_cell_angle_gamma 90.00000

_symmetry_space_group_name_	'P 1'
_symmetry_space_group_name_H-M	'P 1'

loop_
_symmetry_equiv_pos_as_xyz
  x,y,z

loop_
_atom_site_label
_atom_site_type_symbol
_atom_site_fract_x
_atom_site_fract_y
_atom_site_fract_z
_atom_site_charge
Zn	Zn	0.30236 0.26245 0.74717 1.22100
Zn	Zn	0.76254 0.19783 0.61923 1.22300
O 	O 	0.29064 0.31706 0.74227 -0.50900
O 	O 	0.25057 0.30903 0.70085 -0.60500
O 	O 	0.20215 0.63874 0.71755 -0.53900
O 	O 	0.25786 0.64146 0.74277 -0.54300
O 	O 	0.80725 0.25384 0.66550 -0.61100
O 	O 	0.81628 0.20916 0.62507 -0.46600
O 	O 	0.14127 0.24043 0.62312 -0.49800
O 	O 	0.14013 0.29732 0.64694 -0.55400
O 	O 	0.29209 0.25448 0.79443 -0.55800
O 	O 	0.29210 0.25169 0.07312 -0.56600
C 	C 	0.26900 0.32983 0.72114 0.48100
C 	C 	0.25890 0.37170 0.72218 -0.31000
H 	H 	0.24050 0.38040 0.70750 0.12600
C 	C 	0.27360 0.39665 0.74173 0.08800
H 	H 	0.29100 0.38700 0.75700 0.02100
C 	C 	0.26682 0.43786 0.74317 0.00000
C 	C 	0.29182 0.46045 0.76150 -0.06700
H 	H 	0.31140 0.44890 0.77350 0.05700
C 	C 	0.28755 0.50028 0.76187 -0.01000
H 	H 	0.30430 0.51540 0.77410 0.03700
C 	C 	0.25827 0.51752 0.74392 -0.06300
C 	C 	0.23326 0.49493 0.72560 -0.01000
H 	H 	0.21370 0.50650 0.71360 0.02800
C 	C 	0.23754 0.45510 0.72523 -0.06400
H 	H 	0.22080 0.44000 0.71300 0.04600
C 	C 	0.25690 0.55995 0.74100 0.18300
H 	H 	0.27900 0.57230 0.74840 -0.01000
C 	C 	0.23170 0.58238 0.73050 -0.41000
H 	H 	0.21040 0.57080 0.72090 0.17900
C 	C 	0.23130 0.62381 0.73140 0.55500
C 	C 	0.82830 0.23780 0.64587 0.40800
C 	C 	0.87080 0.24620 0.64600 -0.25000
H 	H 	0.88010 0.26780 0.65690 0.10600
C 	C 	0.89540 0.22250 0.63040 0.03400
H 	H 	0.88500 0.20210 0.61860 0.03800
C 	C 	0.93981 0.22672 0.63086 0.02200
C 	C 	0.95626 0.26237 0.63762 -0.06900
H 	H 	0.94070 0.28310 0.64330 0.04900
C 	C 	0.99600 0.26700 0.63585 -0.02500
H 	H 	0.00700 0.29090 0.64040 0.03300
C 	C 	0.01930 0.23600 0.62731 -0.02900
C 	C 	0.00280 0.20040 0.62056 -0.02500
H 	H 	0.01840 0.17960 0.61480 0.04100
C 	C 	0.96309 0.19572 0.62233 -0.07100
H 	H 	0.95210 0.17190 0.61780 0.05700
C 	C 	0.06050 0.24200 0.62410 0.09700
H 	H 	0.07360 0.22360 0.61190 0.01600
C 	C 	0.08130 0.26940 0.63589 -0.30200
H 	H 	0.06860 0.29030 0.64520 0.14000
C 	C 	0.12490 0.27000 0.63556 0.49400
H 	H 	0.25700 0.20940 0.85080 0.24100
C 	C 	0.27540 0.25310 0.86810 0.46300
H 	H 	0.28750 0.27560 0.86120 -0.11200
C 	C 	0.27220 0.25370 0.90322 -0.81300
C 	C 	0.30060 0.27540 0.91847 0.28000
H 	H 	0.31440 0.29370 0.90670 -0.04300
C 	C 	0.30830 0.26990 0.95140 -0.83800
H 	H 	0.32730 0.28450 0.96160 0.31300
C 	C 	0.28770 0.24260 0.96903 -0.00700
C 	C 	0.27910 0.24070 0.95378 -0.28200
H 	H 	0.29740 0.25450 0.96560 0.54800
C 	C 	0.25160 0.22640 0.92088 0.69200
H 	H 	0.28820 0.26740 0.91070 0.03600
C 	C 	0.28950 0.24560 0.00260 -0.52200
H 	H 	0.30400 0.26610 0.01060 0.11900
H 	H 	0.29730 0.23600 0.01480 0.53300
Zn	Zn	0.80236 0.76245 0.24717 1.22200
Zn	Zn	0.26254 0.69783 0.11923 1.22400
O 	O 	0.79064 0.81706 0.24227 -0.50800
O 	O 	0.75057 0.80903 0.20085 -0.60400
O 	O 	0.70215 0.13874 0.21755 -0.53800
O 	O 	0.75786 0.14146 0.24277 -0.54200
O 	O 	0.30725 0.75384 0.16550 -0.61000
O 	O 	0.31628 0.70916 0.12507 -0.46500
O 	O 	0.64127 0.74043 0.12312 -0.49800
O 	O 	0.64013 0.79732 0.14694 -0.55400
O 	O 	0.79209 0.75448 0.29443 -0.55800
O 	O 	0.79210 0.75169 0.57312 -0.56600
C 	C 	0.76900 0.82983 0.22114 0.48100
C 	C 	0.75890 0.87170 0.22218 -0.31000
H 	H 	0.74050 0.88040 0.20750 0.12600
C 	C 	0.77360 0.89665 0.24173 0.08800
H 	H 	0.79100 0.88700 0.25700 0.02100
C 	C 	0.76682 0.93786 0.24317 0.00000
C 	C 	0.79182 0.96045 0.26150 -0.06700
H 	H 	0.81140 0.94890 0.27350 0.05700
C 	C 	0.78755 0.00028 0.26187 -0.01000
H 	H 	0.80430 0.01540 0.27410 0.03700
C 	C 	0.75827 0.01752 0.24392 -0.06300
C 	C 	0.73326 0.99493 0.22560 -0.01000
H 	H 	0.71370 0.00650 0.21360 0.02800
C 	C 	0.73754 0.95510 0.22523 -0.06400
H 	H 	0.72080 0.94000 0.21300 0.04600
C 	C 	0.75690 0.05995 0.24100 0.18300
H 	H 	0.77900 0.07230 0.24840 -0.01000
C 	C 	0.73170 0.08238 0.23050 -0.41000
H 	H 	0.71040 0.07080 0.22090 0.17900
C 	C 	0.73130 0.12381 0.23140 0.55500
C 	C 	0.32830 0.73780 0.14587 0.40800
C 	C 	0.37080 0.74620 0.14600 -0.25000
H 	H 	0.38010 0.76780 0.15690 0.10600
C 	C 	0.39540 0.72250 0.13040 0.03400
H 	H 	0.38500 0.70210 0.11860 0.03800
C 	C 	0.43981 0.72672 0.13086 0.02200
C 	C 	0.45626 0.76237 0.13762 -0.06900
H 	H 	0.44070 0.78310 0.14330 0.04900
C 	C 	0.49600 0.76700 0.13585 -0.02500
H 	H 	0.50700 0.79090 0.14040 0.03300
C 	C 	0.51930 0.73600 0.12731 -0.02900
C 	C 	0.50280 0.70040 0.12056 -0.02500
H 	H 	0.51840 0.67960 0.11480 0.04100
C 	C 	0.46309 0.69572 0.12233 -0.07100
H 	H 	0.45210 0.67190 0.11780 0.05700
C 	C 	0.56050 0.74200 0.12410 0.09700
H 	H 	0.57360 0.72360 0.11190 0.01600
C 	C 	0.58130 0.76940 0.13589 -0.30200
H 	H 	0.56860 0.79030 0.14520 0.14000
C 	C 	0.62490 0.77000 0.13556 0.49400
H 	H 	0.75700 0.70940 0.35080 0.24100
C 	C 	0.77540 0.75310 0.36810 0.46300
H 	H 	0.78750 0.77560 0.36120 -0.11200
C 	C 	0.77220 0.75370 0.40322 -0.81300
C 	C 	0.80060 0.77540 0.41847 0.27900
H 	H 	0.81440 0.79370 0.40670 -0.04300
C 	C 	0.80830 0.76990 0.45140 -0.83900
H 	H 	0.82730 0.78450 0.46160 0.31400
C 	C 	0.78770 0.74260 0.46903 -0.00900
C 	C 	0.77910 0.74070 0.45378 -0.28000
H 	H 	0.79740 0.75450 0.46560 0.55000
C 	C 	0.75160 0.72640 0.42088 0.69100
H 	H 	0.78820 0.76740 0.41070 0.03700
C 	C 	0.78950 0.74560 0.50260 -0.52300
H 	H 	0.80400 0.76610 0.51060 0.11900
H 	H 	0.79730 0.73600 0.51480 0.53300
Zn	Zn	0.69764 0.73755 0.74717 1.22200
Zn	Zn	0.23746 0.80217 0.61923 1.22400
O 	O 	0.70936 0.68294 0.74227 -0.50800
O 	O 	0.74943 0.69097 0.70085 -0.60400
O 	O 	0.79785 0.36126 0.71755 -0.53800
O 	O 	0.74214 0.35854 0.74277 -0.54200
O 	O 	0.19275 0.74616 0.66550 -0.61000
O 	O 	0.18372 0.79084 0.62507 -0.46500
O 	O 	0.85873 0.75957 0.62312 -0.49800
O 	O 	0.85987 0.70268 0.64694 -0.55400
O 	O 	0.70791 0.74552 0.79443 -0.55800
O 	O 	0.70790 0.74831 0.07312 -0.56600
C 	C 	0.73100 0.67017 0.72114 0.48100
C 	C 	0.74110 0.62830 0.72218 -0.31000
H 	H 	0.75950 0.61960 0.70750 0.12600
C 	C 	0.72640 0.60335 0.74173 0.08800
H 	H 	0.70900 0.61300 0.75700 0.02100
C 	C 	0.73318 0.56214 0.74317 0.00000
C 	C 	0.70818 0.53955 0.76150 -0.06700
H 	H 	0.68860 0.55110 0.77350 0.05700
C 	C 	0.71245 0.49972 0.76187 -0.01000
H 	H 	0.69570 0.48460 0.77410 0.03700
C 	C 	0.74173 0.48248 0.74392 -0.06300
C 	C 	0.76674 0.50507 0.72560 -0.01000
H 	H 	0.78630 0.49350 0.71360 0.02800
C 	C 	0.76246 0.54490 0.72523 -0.06400
H 	H 	0.77920 0.56000 0.71300 0.04600
C 	C 	0.74310 0.44005 0.74100 0.18300
H 	H 	0.72100 0.42770 0.74840 -0.01000
C 	C 	0.76830 0.41762 0.73050 -0.41000
H 	H 	0.78960 0.42920 0.72090 0.17900
C 	C 	0.76870 0.37619 0.73140 0.55500
C 	C 	0.17170 0.76220 0.64587 0.40800
C 	C 	0.12920 0.75380 0.64600 -0.25000
H 	H 	0.11990 0.73220 0.65690 0.10600
C 	C 	0.10460 0.77750 0.63040 0.03400
H 	H 	0.11500 0.79790 0.61860 0.03800
C 	C 	0.06019 0.77328 0.63086 0.02200
C 	C 	0.04374 0.73763 0.63762 -0.06900
H 	H 	0.05930 0.71690 0.64330 0.04900
C 	C 	0.00400 0.73300 0.63585 -0.02500
H 	H 	0.99300 0.70910 0.64040 0.03300
C 	C 	0.98070 0.76400 0.62731 -0.02900
C 	C 	0.99720 0.79960 0.62056 -0.02500
H 	H 	0.98160 0.82040 0.61480 0.04100
C 	C 	0.03691 0.80428 0.62233 -0.07100
H 	H 	0.04790 0.82810 0.61780 0.05700
C 	C 	0.93950 0.75800 0.62410 0.09700
H 	H 	0.92640 0.77640 0.61190 0.01600
C 	C 	0.91870 0.73060 0.63589 -0.30200
H 	H 	0.93140 0.70970 0.64520 0.14000
C 	C 	0.87510 0.73000 0.63556 0.49400
H 	H 	0.74300 0.79060 0.85080 0.24100
C 	C 	0.72460 0.74690 0.86810 0.46300
H 	H 	0.71250 0.72440 0.86120 -0.11200
C 	C 	0.72780 0.74630 0.90322 -0.81300
C 	C 	0.69940 0.72460 0.91847 0.28000
H 	H 	0.68560 0.70630 0.90670 -0.04300
C 	C 	0.69170 0.73010 0.95140 -0.83800
H 	H 	0.67270 0.71550 0.96160 0.31300
C 	C 	0.71230 0.75740 0.96903 -0.00700
C 	C 	0.72090 0.75930 0.95378 -0.28200
H 	H 	0.70260 0.74550 0.96560 0.54800
C 	C 	0.74840 0.77360 0.92088 0.69200
H 	H 	0.71180 0.73260 0.91070 0.03600
C 	C 	0.71050 0.75440 0.00260 -0.52200
H 	H 	0.69600 0.73390 0.01060 0.11900
H 	H 	0.70270 0.76400 0.01480 0.53300
Zn	Zn	0.19764 0.23755 0.24717 1.22200
Zn	Zn	0.73746 0.30217 0.11923 1.22400
O 	O 	0.20936 0.18294 0.24227 -0.50800
O 	O 	0.24943 0.19097 0.20085 -0.60400
O 	O 	0.29785 0.86126 0.21755 -0.53800
O 	O 	0.24214 0.85854 0.24277 -0.54200
O 	O 	0.69275 0.24616 0.16550 -0.61000
O 	O 	0.68372 0.29084 0.12507 -0.46500
O 	O 	0.35873 0.25957 0.12312 -0.49800
O 	O 	0.35987 0.20268 0.14694 -0.55400
O 	O 	0.20791 0.24552 0.29443 -0.55800
O 	O 	0.20790 0.24831 0.57312 -0.56600
C 	C 	0.23100 0.17017 0.22114 0.48100
C 	C 	0.24110 0.12830 0.22218 -0.31000
H 	H 	0.25950 0.11960 0.20750 0.12600
C 	C 	0.22640 0.10335 0.24173 0.08800
H 	H 	0.20900 0.11300 0.25700 0.02100
C 	C 	0.23318 0.06214 0.24317 0.00000
C 	C 	0.20818 0.03955 0.26150 -0.06700
H 	H 	0.18860 0.05110 0.27350 0.05700
C 	C 	0.21245 0.99972 0.26187 -0.01000
H 	H 	0.19570 0.98460 0.27410 0.03700
C 	C 	0.24173 0.98248 0.24392 -0.06300
C 	C 	0.26674 0.00507 0.22560 -0.01000
H 	H 	0.28630 0.99350 0.21360 0.02800
C 	C 	0.26246 0.04490 0.22523 -0.06400
H 	H 	0.27920 0.06000 0.21300 0.04600
C 	C 	0.24310 0.94005 0.24100 0.18300
H 	H 	0.22100 0.92770 0.24840 -0.01000
C 	C 	0.26830 0.91762 0.23050 -0.41000
H 	H 	0.28960 0.92920 0.22090 0.17900
C 	C 	0.26870 0.87619 0.23140 0.55500
C 	C 	0.67170 0.26220 0.14587 0.40800
C 	C 	0.62920 0.25380 0.14600 -0.25000
H 	H 	0.61990 0.23220 0.15690 0.10600
C 	C 	0.60460 0.27750 0.13040 0.03400
H 	H 	0.61500 0.29790 0.11860 0.03800
C 	C 	0.56019 0.27328 0.13086 0.02200
C 	C 	0.54374 0.23763 0.13762 -0.06900
H 	H 	0.55930 0.21690 0.14330 0.04900
C 	C 	0.50400 0.23300 0.13585 -0.02500
H 	H 	0.49300 0.20910 0.14040 0.03300
C 	C 	0.48070 0.26400 0.12731 -0.02900
C 	C 	0.49720 0.29960 0.12056 -0.02500
H 	H 	0.48160 0.32040 0.11480 0.04100
C 	C 	0.53691 0.30428 0.12233 -0.07100
H 	H 	0.54790 0.32810 0.11780 0.05700
C 	C 	0.43950 0.25800 0.12410 0.09700
H 	H 	0.42640 0.27640 0.11190 0.01600
C 	C 	0.41870 0.23060 0.13589 -0.30200
H 	H 	0.43140 0.20970 0.14520 0.14000
C 	C 	0.37510 0.23000 0.13556 0.49400
H 	H 	0.24300 0.29060 0.35080 0.24100
C 	C 	0.22460 0.24690 0.36810 0.46300
H 	H 	0.21250 0.22440 0.36120 -0.11200
C 	C 	0.22780 0.24630 0.40322 -0.81300
C 	C 	0.19940 0.22460 0.41847 0.27900
H 	H 	0.18560 0.20630 0.40670 -0.04300
C 	C 	0.19170 0.23010 0.45140 -0.83900
H 	H 	0.17270 0.21550 0.46160 0.31400
C 	C 	0.21230 0.25740 0.46903 -0.00900
C 	C 	0.22090 0.25930 0.45378 -0.28000
H 	H 	0.20260 0.24550 0.46560 0.55000
C 	C 	0.24840 0.27360 0.42088 0.69100
H 	H 	0.21180 0.23260 0.41070 0.03700
C 	C 	0.21050 0.25440 0.50260 -0.52300
H 	H 	0.19600 0.23390 0.51060 0.11900
H 	H 	0.20270 0.26400 0.51480 0.53300
Zn	Zn	0.73755 0.30236 0.74717 1.22200
Zn	Zn	0.80217 0.76254 0.61923 1.22400
O 	O 	0.68294 0.29064 0.74227 -0.50800
O 	O 	0.69097 0.25057 0.70085 -0.60400
O 	O 	0.36126 0.20215 0.71755 -0.53800
O 	O 	0.35854 0.25786 0.74277 -0.54200
O 	O 	0.74616 0.80725 0.66550 -0.61000
O 	O 	0.79084 0.81628 0.62507 -0.46500
O 	O 	0.75957 0.14127 0.62312 -0.49800
O 	O 	0.70268 0.14013 0.64694 -0.55400
O 	O 	0.74552 0.29209 0.79443 -0.55800
O 	O 	0.74831 0.29210 0.07312 -0.56600
C 	C 	0.67017 0.26900 0.72114 0.48100
C 	C 	0.62830 0.25890 0.72218 -0.31000
H 	H 	0.61960 0.24050 0.70750 0.12600
C 	C 	0.60335 0.27360 0.74173 0.08800
H 	H 	0.61300 0.29100 0.75700 0.02100
C 	C 	0.56214 0.26682 0.74317 0.00000
C 	C 	0.53955 0.29182 0.76150 -0.06700
H 	H 	0.55110 0.31140 0.77350 0.05700
C 	C 	0.49972 0.28755 0.76187 -0.01000
H 	H 	0.48460 0.30430 0.77410 0.03700
C 	C 	0.48248 0.25827 0.74392 -0.06300
C 	C 	0.50507 0.23326 0.72560 -0.01000
H 	H 	0.49350 0.21370 0.71360 0.02800
C 	C 	0.54490 0.23754 0.72523 -0.06400
H 	H 	0.56000 0.22080 0.71300 0.04600
C 	C 	0.44005 0.25690 0.74100 0.18300
H 	H 	0.42770 0.27900 0.74840 -0.01000
C 	C 	0.41762 0.23170 0.73050 -0.41000
H 	H 	0.42920 0.21040 0.72090 0.17900
C 	C 	0.37619 0.23130 0.73140 0.55500
C 	C 	0.76220 0.82830 0.64587 0.40800
C 	C 	0.75380 0.87080 0.64600 -0.25000
H 	H 	0.73220 0.88010 0.65690 0.10600
C 	C 	0.77750 0.89540 0.63040 0.03400
H 	H 	0.79790 0.88500 0.61860 0.03800
C 	C 	0.77328 0.93981 0.63086 0.02200
C 	C 	0.73763 0.95626 0.63762 -0.06900
H 	H 	0.71690 0.94070 0.64330 0.04900
C 	C 	0.73300 0.99600 0.63585 -0.02500
H 	H 	0.70910 0.00700 0.64040 0.03300
C 	C 	0.76400 0.01930 0.62731 -0.02900
C 	C 	0.79960 0.00280 0.62056 -0.02500
H 	H 	0.82040 0.01840 0.61480 0.04100
C 	C 	0.80428 0.96309 0.62233 -0.07100
H 	H 	0.82810 0.95210 0.61780 0.05700
C 	C 	0.75800 0.06050 0.62410 0.09700
H 	H 	0.77640 0.07360 0.61190 0.01600
C 	C 	0.73060 0.08130 0.63589 -0.30200
H 	H 	0.70970 0.06860 0.64520 0.14000
C 	C 	0.73000 0.12490 0.63556 0.49400
H 	H 	0.79060 0.25700 0.85080 0.24100
C 	C 	0.74690 0.27540 0.86810 0.46300
H 	H 	0.72440 0.28750 0.86120 -0.11200
C 	C 	0.74630 0.27220 0.90322 -0.81300
C 	C 	0.72460 0.30060 0.91847 0.28000
H 	H 	0.70630 0.31440 0.90670 -0.04300
C 	C 	0.73010 0.30830 0.95140 -0.83800
H 	H 	0.71550 0.32730 0.96160 0.31300
C 	C 	0.75740 0.28770 0.96903 -0.00700
C 	C 	0.75930 0.27910 0.95378 -0.28200
H 	H 	0.74550 0.29740 0.96560 0.54800
C 	C 	0.77360 0.25160 0.92088 0.69200
H 	H 	0.73260 0.28820 0.91070 0.03600
C 	C 	0.75440 0.28950 0.00260 -0.52200
H 	H 	0.73390 0.30400 0.01060 0.11900
H 	H 	0.76400 0.29730 0.01480 0.53300
Zn	Zn	0.23755 0.80236 0.24717 1.22200
Zn	Zn	0.30217 0.26254 0.11923 1.22400
O 	O 	0.18294 0.79064 0.24227 -0.50800
O 	O 	0.19097 0.75057 0.20085 -0.60400
O 	O 	0.86126 0.70215 0.21755 -0.53800
O 	O 	0.85854 0.75786 0.24277 -0.54200
O 	O 	0.24616 0.30725 0.16550 -0.61000
O 	O 	0.29084 0.31628 0.12507 -0.46500
O 	O 	0.25957 0.64127 0.12312 -0.49800
O 	O 	0.20268 0.64013 0.14694 -0.55400
O 	O 	0.24552 0.79209 0.29443 -0.55800
O 	O 	0.24831 0.79210 0.57312 -0.56600
C 	C 	0.17017 0.76900 0.22114 0.48100
C 	C 	0.12830 0.75890 0.22218 -0.31000
H 	H 	0.11960 0.74050 0.20750 0.12600
C 	C 	0.10335 0.77360 0.24173 0.08800
H 	H 	0.11300 0.79100 0.25700 0.02100
C 	C 	0.06214 0.76682 0.24317 0.00000
C 	C 	0.03955 0.79182 0.26150 -0.06700
H 	H 	0.05110 0.81140 0.27350 0.05700
C 	C 	0.99972 0.78755 0.26187 -0.01000
H 	H 	0.98460 0.80430 0.27410 0.03700
C 	C 	0.98248 0.75827 0.24392 -0.06300
C 	C 	0.00507 0.73326 0.22560 -0.01000
H 	H 	0.99350 0.71370 0.21360 0.02800
C 	C 	0.04490 0.73754 0.22523 -0.06400
H 	H 	0.06000 0.72080 0.21300 0.04600
C 	C 	0.94005 0.75690 0.24100 0.18300
H 	H 	0.92770 0.77900 0.24840 -0.01000
C 	C 	0.91762 0.73170 0.23050 -0.41000
H 	H 	0.92920 0.71040 0.22090 0.17900
C 	C 	0.87619 0.73130 0.23140 0.55500
C 	C 	0.26220 0.32830 0.14587 0.40800
C 	C 	0.25380 0.37080 0.14600 -0.25000
H 	H 	0.23220 0.38010 0.15690 0.10600
C 	C 	0.27750 0.39540 0.13040 0.03400
H 	H 	0.29790 0.38500 0.11860 0.03800
C 	C 	0.27328 0.43981 0.13086 0.02200
C 	C 	0.23763 0.45626 0.13762 -0.06900
H 	H 	0.21690 0.44070 0.14330 0.04900
C 	C 	0.23300 0.49600 0.13585 -0.02500
H 	H 	0.20910 0.50700 0.14040 0.03300
C 	C 	0.26400 0.51930 0.12731 -0.02900
C 	C 	0.29960 0.50280 0.12056 -0.02500
H 	H 	0.32040 0.51840 0.11480 0.04100
C 	C 	0.30428 0.46309 0.12233 -0.07100
H 	H 	0.32810 0.45210 0.11780 0.05700
C 	C 	0.25800 0.56050 0.12410 0.09700
H 	H 	0.27640 0.57360 0.11190 0.01600
C 	C 	0.23060 0.58130 0.13589 -0.30200
H 	H 	0.20970 0.56860 0.14520 0.14000
C 	C 	0.23000 0.62490 0.13556 0.49400
H 	H 	0.29060 0.75700 0.35080 0.24100
C 	C 	0.24690 0.77540 0.36810 0.46300
H 	H 	0.22440 0.78750 0.36120 -0.11200
C 	C 	0.24630 0.77220 0.40322 -0.81300
C 	C 	0.22460 0.80060 0.41847 0.27900
H 	H 	0.20630 0.81440 0.40670 -0.04300
C 	C 	0.23010 0.80830 0.45140 -0.83900
H 	H 	0.21550 0.82730 0.46160 0.31400
C 	C 	0.25740 0.78770 0.46903 -0.00900
C 	C 	0.25930 0.77910 0.45378 -0.28000
H 	H 	0.24550 0.79740 0.46560 0.55000
C 	C 	0.27360 0.75160 0.42088 0.69100
H 	H 	0.23260 0.78820 0.41070 0.03700
C 	C 	0.25440 0.78950 0.50260 -0.52300
H 	H 	0.23390 0.80400 0.51060 0.11900
H 	H 	0.26400 0.79730 0.51480 0.53300
Zn	Zn	0.26245 0.69764 0.74717 1.22200
Zn	Zn	0.19783 0.23746 0.61923 1.22400
O 	O 	0.31706 0.70936 0.74227 -0.50800
O 	O 	0.30903 0.74943 0.70085 -0.60400
O 	O 	0.63874 0.79785 0.71755 -0.53800
O 	O 	0.64146 0.74214 0.74277 -0.54200
O 	O 	0.25384 0.19275 0.66550 -0.61000
O 	O 	0.20916 0.18372 0.62507 -0.46500
O 	O 	0.24043 0.85873 0.62312 -0.49800
O 	O 	0.29732 0.85987 0.64694 -0.55400
O 	O 	0.25448 0.70791 0.79443 -0.55800
O 	O 	0.25169 0.70790 0.07312 -0.56600
C 	C 	0.32983 0.73100 0.72114 0.48100
C 	C 	0.37170 0.74110 0.72218 -0.31000
H 	H 	0.38040 0.75950 0.70750 0.12600
C 	C 	0.39665 0.72640 0.74173 0.08800
H 	H 	0.38700 0.70900 0.75700 0.02100
C 	C 	0.43786 0.73318 0.74317 0.00000
C 	C 	0.46045 0.70818 0.76150 -0.06700
H 	H 	0.44890 0.68860 0.77350 0.05700
C 	C 	0.50028 0.71245 0.76187 -0.01000
H 	H 	0.51540 0.69570 0.77410 0.03700
C 	C 	0.51752 0.74173 0.74392 -0.06300
C 	C 	0.49493 0.76674 0.72560 -0.01000
H 	H 	0.50650 0.78630 0.71360 0.02800
C 	C 	0.45510 0.76246 0.72523 -0.06400
H 	H 	0.44000 0.77920 0.71300 0.04600
C 	C 	0.55995 0.74310 0.74100 0.18300
H 	H 	0.57230 0.72100 0.74840 -0.01000
C 	C 	0.58238 0.76830 0.73050 -0.41000
H 	H 	0.57080 0.78960 0.72090 0.17900
C 	C 	0.62381 0.76870 0.73140 0.55500
C 	C 	0.23780 0.17170 0.64587 0.40800
C 	C 	0.24620 0.12920 0.64600 -0.25000
H 	H 	0.26780 0.11990 0.65690 0.10600
C 	C 	0.22250 0.10460 0.63040 0.03400
H 	H 	0.20210 0.11500 0.61860 0.03800
C 	C 	0.22672 0.06019 0.63086 0.02200
C 	C 	0.26237 0.04374 0.63762 -0.06900
H 	H 	0.28310 0.05930 0.64330 0.04900
C 	C 	0.26700 0.00400 0.63585 -0.02500
H 	H 	0.29090 0.99300 0.64040 0.03300
C 	C 	0.23600 0.98070 0.62731 -0.02900
C 	C 	0.20040 0.99720 0.62056 -0.02500
H 	H 	0.17960 0.98160 0.61480 0.04100
C 	C 	0.19572 0.03691 0.62233 -0.07100
H 	H 	0.17190 0.04790 0.61780 0.05700
C 	C 	0.24200 0.93950 0.62410 0.09700
H 	H 	0.22360 0.92640 0.61190 0.01600
C 	C 	0.26940 0.91870 0.63589 -0.30200
H 	H 	0.29030 0.93140 0.64520 0.14000
C 	C 	0.27000 0.87510 0.63556 0.49400
H 	H 	0.20940 0.74300 0.85080 0.24100
C 	C 	0.25310 0.72460 0.86810 0.46300
H 	H 	0.27560 0.71250 0.86120 -0.11200
C 	C 	0.25370 0.72780 0.90322 -0.81300
C 	C 	0.27540 0.69940 0.91847 0.28000
H 	H 	0.29370 0.68560 0.90670 -0.04300
C 	C 	0.26990 0.69170 0.95140 -0.83800
H 	H 	0.28450 0.67270 0.96160 0.31300
C 	C 	0.24260 0.71230 0.96903 -0.00700
C 	C 	0.24070 0.72090 0.95378 -0.28200
H 	H 	0.25450 0.70260 0.96560 0.54800
C 	C 	0.22640 0.74840 0.92088 0.69200
H 	H 	0.26740 0.71180 0.91070 0.03600
C 	C 	0.24560 0.71050 0.00260 -0.52200
H 	H 	0.26610 0.69600 0.01060 0.11900
H 	H 	0.23600 0.70270 0.01480 0.53300
Zn	Zn	0.76245 0.19764 0.24717 1.22200
Zn	Zn	0.69783 0.73746 0.11923 1.22400
O 	O 	0.81706 0.20936 0.24227 -0.50800
O 	O 	0.80903 0.24943 0.20085 -0.60400
O 	O 	0.13874 0.29785 0.21755 -0.53800
O 	O 	0.14146 0.24214 0.24277 -0.54200
O 	O 	0.75384 0.69275 0.16550 -0.61000
O 	O 	0.70916 0.68372 0.12507 -0.46500
O 	O 	0.74043 0.35873 0.12312 -0.49800
O 	O 	0.79732 0.35987 0.14694 -0.55400
O 	O 	0.75448 0.20791 0.29443 -0.55800
O 	O 	0.75169 0.20790 0.57312 -0.56600
C 	C 	0.82983 0.23100 0.22114 0.48100
C 	C 	0.87170 0.24110 0.22218 -0.31000
H 	H 	0.88040 0.25950 0.20750 0.12600
C 	C 	0.89665 0.22640 0.24173 0.08800
H 	H 	0.88700 0.20900 0.25700 0.02100
C 	C 	0.93786 0.23318 0.24317 0.00000
C 	C 	0.96045 0.20818 0.26150 -0.06700
H 	H 	0.94890 0.18860 0.27350 0.05700
C 	C 	0.00028 0.21245 0.26187 -0.01000
H 	H 	0.01540 0.19570 0.27410 0.03700
C 	C 	0.01752 0.24173 0.24392 -0.06300
C 	C 	0.99493 0.26674 0.22560 -0.01000
H 	H 	0.00650 0.28630 0.21360 0.02800
C 	C 	0.95510 0.26246 0.22523 -0.06400
H 	H 	0.94000 0.27920 0.21300 0.04600
C 	C 	0.05995 0.24310 0.24100 0.18300
H 	H 	0.07230 0.22100 0.24840 -0.01000
C 	C 	0.08238 0.26830 0.23050 -0.41000
H 	H 	0.07080 0.28960 0.22090 0.17900
C 	C 	0.12381 0.26870 0.23140 0.55500
C 	C 	0.73780 0.67170 0.14587 0.40800
C 	C 	0.74620 0.62920 0.14600 -0.25000
H 	H 	0.76780 0.61990 0.15690 0.10600
C 	C 	0.72250 0.60460 0.13040 0.03400
H 	H 	0.70210 0.61500 0.11860 0.03800
C 	C 	0.72672 0.56019 0.13086 0.02200
C 	C 	0.76237 0.54374 0.13762 -0.06900
H 	H 	0.78310 0.55930 0.14330 0.04900
C 	C 	0.76700 0.50400 0.13585 -0.02500
H 	H 	0.79090 0.49300 0.14040 0.03300
C 	C 	0.73600 0.48070 0.12731 -0.02900
C 	C 	0.70040 0.49720 0.12056 -0.02500
H 	H 	0.67960 0.48160 0.11480 0.04100
C 	C 	0.69572 0.53691 0.12233 -0.07100
H 	H 	0.67190 0.54790 0.11780 0.05700
C 	C 	0.74200 0.43950 0.12410 0.09700
H 	H 	0.72360 0.42640 0.11190 0.01600
C 	C 	0.76940 0.41870 0.13589 -0.30200
H 	H 	0.79030 0.43140 0.14520 0.14000
C 	C 	0.77000 0.37510 0.13556 0.49400
H 	H 	0.70940 0.24300 0.35080 0.24100
C 	C 	0.75310 0.22460 0.36810 0.46300
H 	H 	0.77560 0.21250 0.36120 -0.11200
C 	C 	0.75370 0.22780 0.40322 -0.81300
C 	C 	0.77540 0.19940 0.41847 0.27900
H 	H 	0.79370 0.18560 0.40670 -0.04300
C 	C 	0.76990 0.19170 0.45140 -0.83900
H 	H 	0.78450 0.17270 0.46160 0.31400
C 	C 	0.74260 0.21230 0.46903 -0.00900
C 	C 	0.74070 0.22090 0.45378 -0.28000
H 	H 	0.75450 0.20260 0.46560 0.55000
C 	C 	0.72640 0.24840 0.42088 0.69100
H 	H 	0.76740 0.21180 0.41070 0.03700
C 	C 	0.74560 0.21050 0.50260 -0.52300
H 	H 	0.76610 0.19600 0.51060 0.11900
H 	H 	0.73600 0.20270 0.51480 0.53300
Zn	Zn	0.30236 0.73755 0.24717 1.22200
Zn	Zn	0.76254 0.80217 0.11923 1.22400
O 	O 	0.29064 0.68294 0.24227 -0.50800
O 	O 	0.25057 0.69097 0.20085 -0.60400
O 	O 	0.20215 0.36126 0.21755 -0.53800
O 	O 	0.25786 0.35854 0.24277 -0.54200
O 	O 	0.80725 0.74616 0.16550 -0.61000
O 	O 	0.81628 0.79084 0.12507 -0.46500
O 	O 	0.14127 0.75957 0.12312 -0.49800
O 	O 	0.14013 0.70268 0.14694 -0.55400
O 	O 	0.29209 0.74552 0.29443 -0.55800
O 	O 	0.29210 0.74831 0.57312 -0.56600
C 	C 	0.26900 0.67017 0.22114 0.48100
C 	C 	0.25890 0.62830 0.22218 -0.31000
H 	H 	0.24050 0.61960 0.20750 0.12600
C 	C 	0.27360 0.60335 0.24173 0.08800
H 	H 	0.29100 0.61300 0.25700 0.02100
C 	C 	0.26682 0.56214 0.24317 0.00000
C 	C 	0.29182 0.53955 0.26150 -0.06700
H 	H 	0.31140 0.55110 0.27350 0.05700
C 	C 	0.28755 0.49972 0.26187 -0.01000
H 	H 	0.30430 0.48460 0.27410 0.03700
C 	C 	0.25827 0.48248 0.24392 -0.06300
C 	C 	0.23326 0.50507 0.22560 -0.01000
H 	H 	0.21370 0.49350 0.21360 0.02800
C 	C 	0.23754 0.54490 0.22523 -0.06400
H 	H 	0.22080 0.56000 0.21300 0.04600
C 	C 	0.25690 0.44005 0.24100 0.18300
H 	H 	0.27900 0.42770 0.24840 -0.01000
C 	C 	0.23170 0.41762 0.23050 -0.41000
H 	H 	0.21040 0.42920 0.22090 0.17900
C 	C 	0.23130 0.37619 0.23140 0.55500
C 	C 	0.82830 0.76220 0.14587 0.40800
C 	C 	0.87080 0.75380 0.14600 -0.25000
H 	H 	0.88010 0.73220 0.15690 0.10600
C 	C 	0.89540 0.77750 0.13040 0.03400
H 	H 	0.88500 0.79790 0.11860 0.03800
C 	C 	0.93981 0.77328 0.13086 0.02200
C 	C 	0.95626 0.73763 0.13762 -0.06900
H 	H 	0.94070 0.71690 0.14330 0.04900
C 	C 	0.99600 0.73300 0.13585 -0.02500
H 	H 	0.00700 0.70910 0.14040 0.03300
C 	C 	0.01930 0.76400 0.12731 -0.02900
C 	C 	0.00280 0.79960 0.12056 -0.02500
H 	H 	0.01840 0.82040 0.11480 0.04100
C 	C 	0.96309 0.80428 0.12233 -0.07100
H 	H 	0.95210 0.82810 0.11780 0.05700
C 	C 	0.06050 0.75800 0.12410 0.09700
H 	H 	0.07360 0.77640 0.11190 0.01600
C 	C 	0.08130 0.73060 0.13589 -0.30200
H 	H 	0.06860 0.70970 0.14520 0.14000
C 	C 	0.12490 0.73000 0.13556 0.49400
H 	H 	0.25700 0.79060 0.35080 0.24100
C 	C 	0.27540 0.74690 0.36810 0.46300
H 	H 	0.28750 0.72440 0.36120 -0.11200
C 	C 	0.27220 0.74630 0.40322 -0.81300
C 	C 	0.30060 0.72460 0.41847 0.27900
H 	H 	0.31440 0.70630 0.40670 -0.04300
C 	C 	0.30830 0.73010 0.45140 -0.83900
H 	H 	0.32730 0.71550 0.46160 0.31400
C 	C 	0.28770 0.75740 0.46903 -0.00900
C 	C 	0.27910 0.75930 0.45378 -0.28000
H 	H 	0.29740 0.74550 0.46560 0.55000
C 	C 	0.25160 0.77360 0.42088 0.69100
H 	H 	0.28820 0.73260 0.41070 0.03700
C 	C 	0.28950 0.75440 0.50260 -0.52300
H 	H 	0.30400 0.73390 0.51060 0.11900
H 	H 	0.29730 0.76400 0.51480 0.53300
Zn	Zn	0.80236 0.23755 0.74717 1.22200
Zn	Zn	0.26254 0.30217 0.61923 1.22400
O 	O 	0.79064 0.18294 0.74227 -0.50800
O 	O 	0.75057 0.19097 0.70085 -0.60400
O 	O 	0.70215 0.86126 0.71755 -0.53800
O 	O 	0.75786 0.85854 0.74277 -0.54200
O 	O 	0.30725 0.24616 0.66550 -0.61000
O 	O 	0.31628 0.29084 0.62507 -0.46500
O 	O 	0.64127 0.25957 0.62312 -0.49800
O 	O 	0.64013 0.20268 0.64694 -0.55400
O 	O 	0.79209 0.24552 0.79443 -0.55800
O 	O 	0.79210 0.24831 0.07312 -0.56600
C 	C 	0.76900 0.17017 0.72114 0.48100
C 	C 	0.75890 0.12830 0.72218 -0.31000
H 	H 	0.74050 0.11960 0.70750 0.12600
C 	C 	0.77360 0.10335 0.74173 0.08800
H 	H 	0.79100 0.11300 0.75700 0.02100
C 	C 	0.76682 0.06214 0.74317 0.00000
C 	C 	0.79182 0.03955 0.76150 -0.06700
H 	H 	0.81140 0.05110 0.77350 0.05700
C 	C 	0.78755 0.99972 0.76187 -0.01000
H 	H 	0.80430 0.98460 0.77410 0.03700
C 	C 	0.75827 0.98248 0.74392 -0.06300
C 	C 	0.73326 0.00507 0.72560 -0.01000
H 	H 	0.71370 0.99350 0.71360 0.02800
C 	C 	0.73754 0.04490 0.72523 -0.06400
H 	H 	0.72080 0.06000 0.71300 0.04600
C 	C 	0.75690 0.94005 0.74100 0.18300
H 	H 	0.77900 0.92770 0.74840 -0.01000
C 	C 	0.73170 0.91762 0.73050 -0.41000
H 	H 	0.71040 0.92920 0.72090 0.17900
C 	C 	0.73130 0.87619 0.73140 0.55500
C 	C 	0.32830 0.26220 0.64587 0.40800
C 	C 	0.37080 0.25380 0.64600 -0.25000
H 	H 	0.38010 0.23220 0.65690 0.10600
C 	C 	0.39540 0.27750 0.63040 0.03400
H 	H 	0.38500 0.29790 0.61860 0.03800
C 	C 	0.43981 0.27328 0.63086 0.02200
C 	C 	0.45626 0.23763 0.63762 -0.06900
H 	H 	0.44070 0.21690 0.64330 0.04900
C 	C 	0.49600 0.23300 0.63585 -0.02500
H 	H 	0.50700 0.20910 0.64040 0.03300
C 	C 	0.51930 0.26400 0.62731 -0.02900
C 	C 	0.50280 0.29960 0.62056 -0.02500
H 	H 	0.51840 0.32040 0.61480 0.04100
C 	C 	0.46309 0.30428 0.62233 -0.07100
H 	H 	0.45210 0.32810 0.61780 0.05700
C 	C 	0.56050 0.25800 0.62410 0.09700
H 	H 	0.57360 0.27640 0.61190 0.01600
C 	C 	0.58130 0.23060 0.63589 -0.30200
H 	H 	0.56860 0.20970 0.64520 0.14000
C 	C 	0.62490 0.23000 0.63556 0.49400
H 	H 	0.75700 0.29060 0.85080 0.24100
C 	C 	0.77540 0.24690 0.86810 0.46300
H 	H 	0.78750 0.22440 0.86120 -0.11200
C 	C 	0.77220 0.24630 0.90322 -0.81300
C 	C 	0.80060 0.22460 0.91847 0.28000
H 	H 	0.81440 0.20630 0.90670 -0.04300
C 	C 	0.80830 0.23010 0.95140 -0.83800
H 	H 	0.82730 0.21550 0.96160 0.31300
C 	C 	0.78770 0.25740 0.96903 -0.00700
C 	C 	0.77910 0.25930 0.95378 -0.28200
H 	H 	0.79740 0.24550 0.96560 0.54800
C 	C 	0.75160 0.27360 0.92088 0.69200
H 	H 	0.78820 0.23260 0.91070 0.03600
C 	C 	0.78950 0.25440 0.00260 -0.52200
H 	H 	0.80400 0.23390 0.01060 0.11900
H 	H 	0.79730 0.26400 0.01480 0.53300
Zn	Zn	0.69764 0.26245 0.24717 1.22200
Zn	Zn	0.23746 0.19783 0.11923 1.22400
O 	O 	0.70936 0.31706 0.24227 -0.50800
O 	O 	0.74943 0.30903 0.20085 -0.60400
O 	O 	0.79785 0.63874 0.21755 -0.53800
O 	O 	0.74214 0.64146 0.24277 -0.54200
O 	O 	0.19275 0.25384 0.16550 -0.61000
O 	O 	0.18372 0.20916 0.12507 -0.46500
O 	O 	0.85873 0.24043 0.12312 -0.49800
O 	O 	0.85987 0.29732 0.14694 -0.55400
O 	O 	0.70791 0.25448 0.29443 -0.55800
O 	O 	0.70790 0.25169 0.57312 -0.56600
C 	C 	0.73100 0.32983 0.22114 0.48100
C 	C 	0.74110 0.37170 0.22218 -0.31000
H 	H 	0.75950 0.38040 0.20750 0.12600
C 	C 	0.72640 0.39665 0.24173 0.08800
H 	H 	0.70900 0.38700 0.25700 0.02100
C 	C 	0.73318 0.43786 0.24317 0.00000
C 	C 	0.70818 0.46045 0.26150 -0.06700
H 	H 	0.68860 0.44890 0.27350 0.05700
C 	C 	0.71245 0.50028 0.26187 -0.01000
H 	H 	0.69570 0.51540 0.27410 0.03700
C 	C 	0.74173 0.51752 0.24392 -0.06300
C 	C 	0.76674 0.49493 0.22560 -0.01000
H 	H 	0.78630 0.50650 0.21360 0.02800
C 	C 	0.76246 0.45510 0.22523 -0.06400
H 	H 	0.77920 0.44000 0.21300 0.04600
C 	C 	0.74310 0.55995 0.24100 0.18300
H 	H 	0.72100 0.57230 0.24840 -0.01000
C 	C 	0.76830 0.58238 0.23050 -0.41000
H 	H 	0.78960 0.57080 0.22090 0.17900
C 	C 	0.76870 0.62381 0.23140 0.55500
C 	C 	0.17170 0.23780 0.14587 0.40800
C 	C 	0.12920 0.24620 0.14600 -0.25000
H 	H 	0.11990 0.26780 0.15690 0.10600
C 	C 	0.10460 0.22250 0.13040 0.03400
H 	H 	0.11500 0.20210 0.11860 0.03800
C 	C 	0.06019 0.22672 0.13086 0.02200
C 	C 	0.04374 0.26237 0.13762 -0.06900
H 	H 	0.05930 0.28310 0.14330 0.04900
C 	C 	0.00400 0.26700 0.13585 -0.02500
H 	H 	0.99300 0.29090 0.14040 0.03300
C 	C 	0.98070 0.23600 0.12731 -0.02900
C 	C 	0.99720 0.20040 0.12056 -0.02500
H 	H 	0.98160 0.17960 0.11480 0.04100
C 	C 	0.03691 0.19572 0.12233 -0.07100
H 	H 	0.04790 0.17190 0.11780 0.05700
C 	C 	0.93950 0.24200 0.12410 0.09700
H 	H 	0.92640 0.22360 0.11190 0.01600
C 	C 	0.91870 0.26940 0.13589 -0.30200
H 	H 	0.93140 0.29030 0.14520 0.14000
C 	C 	0.87510 0.27000 0.13556 0.49400
H 	H 	0.74300 0.20940 0.35080 0.24100
C 	C 	0.72460 0.25310 0.36810 0.46300
H 	H 	0.71250 0.27560 0.36120 -0.11200
C 	C 	0.72780 0.25370 0.40322 -0.81300
C 	C 	0.69940 0.27540 0.41847 0.27900
H 	H 	0.68560 0.29370 0.40670 -0.04300
C 	C 	0.69170 0.26990 0.45140 -0.83900
H 	H 	0.67270 0.28450 0.46160 0.31400
C 	C 	0.71230 0.24260 0.46903 -0.00900
C 	C 	0.72090 0.24070 0.45378 -0.28000
H 	H 	0.70260 0.25450 0.46560 0.55000
C 	C 	0.74840 0.22640 0.42088 0.69100
H 	H 	0.71180 0.26740 0.41070 0.03700
C 	C 	0.71050 0.24560 0.50260 -0.52300
H 	H 	0.69600 0.26610 0.51060 0.11900
H 	H 	0.70270 0.23600 0.51480 0.53300
Zn	Zn	0.19764 0.76245 0.74717 1.22200
Zn	Zn	0.73746 0.69783 0.61923 1.22400
O 	O 	0.20936 0.81706 0.74227 -0.50800
O 	O 	0.24943 0.80903 0.70085 -0.60400
O 	O 	0.29785 0.13874 0.71755 -0.53800
O 	O 	0.24214 0.14146 0.74277 -0.54200
O 	O 	0.69275 0.75384 0.66550 -0.61000
O 	O 	0.68372 0.70916 0.62507 -0.46500
O 	O 	0.35873 0.74043 0.62312 -0.49800
O 	O 	0.35987 0.79732 0.64694 -0.55400
O 	O 	0.20791 0.75448 0.79443 -0.55800
O 	O 	0.20790 0.75169 0.07312 -0.56600
C 	C 	0.23100 0.82983 0.72114 0.48100
C 	C 	0.24110 0.87170 0.72218 -0.31000
H 	H 	0.25950 0.88040 0.70750 0.12600
C 	C 	0.22640 0.89665 0.74173 0.08800
H 	H 	0.20900 0.88700 0.75700 0.02100
C 	C 	0.23318 0.93786 0.74317 0.00000
C 	C 	0.20818 0.96045 0.76150 -0.06700
H 	H 	0.18860 0.94890 0.77350 0.05700
C 	C 	0.21245 0.00028 0.76187 -0.01000
H 	H 	0.19570 0.01540 0.77410 0.03700
C 	C 	0.24173 0.01752 0.74392 -0.06300
C 	C 	0.26674 0.99493 0.72560 -0.01000
H 	H 	0.28630 0.00650 0.71360 0.02800
C 	C 	0.26246 0.95510 0.72523 -0.06400
H 	H 	0.27920 0.94000 0.71300 0.04600
C 	C 	0.24310 0.05995 0.74100 0.18300
H 	H 	0.22100 0.07230 0.74840 -0.01000
C 	C 	0.26830 0.08238 0.73050 -0.41000
H 	H 	0.28960 0.07080 0.72090 0.17900
C 	C 	0.26870 0.12381 0.73140 0.55500
C 	C 	0.67170 0.73780 0.64587 0.40800
C 	C 	0.62920 0.74620 0.64600 -0.25000
H 	H 	0.61990 0.76780 0.65690 0.10600
C 	C 	0.60460 0.72250 0.63040 0.03400
H 	H 	0.61500 0.70210 0.61860 0.03800
C 	C 	0.56019 0.72672 0.63086 0.02200
C 	C 	0.54374 0.76237 0.63762 -0.06900
H 	H 	0.55930 0.78310 0.64330 0.04900
C 	C 	0.50400 0.76700 0.63585 -0.02500
H 	H 	0.49300 0.79090 0.64040 0.03300
C 	C 	0.48070 0.73600 0.62731 -0.02900
C 	C 	0.49720 0.70040 0.62056 -0.02500
H 	H 	0.48160 0.67960 0.61480 0.04100
C 	C 	0.53691 0.69572 0.62233 -0.07100
H 	H 	0.54790 0.67190 0.61780 0.05700
C 	C 	0.43950 0.74200 0.62410 0.09700
H 	H 	0.42640 0.72360 0.61190 0.01600
C 	C 	0.41870 0.76940 0.63589 -0.30200
H 	H 	0.43140 0.79030 0.64520 0.14000
C 	C 	0.37510 0.77000 0.63556 0.49400
H 	H 	0.24300 0.70940 0.85080 0.24100
C 	C 	0.22460 0.75310 0.86810 0.46300
H 	H 	0.21250 0.77560 0.86120 -0.11200
C 	C 	0.22780 0.75370 0.90322 -0.81300
C 	C 	0.19940 0.77540 0.91847 0.28000
H 	H 	0.18560 0.79370 0.90670 -0.04300
C 	C 	0.19170 0.76990 0.95140 -0.83800
H 	H 	0.17270 0.78450 0.96160 0.31300
C 	C 	0.21230 0.74260 0.96903 -0.00700
C 	C 	0.22090 0.74070 0.95378 -0.28200
H 	H 	0.20260 0.75450 0.96560 0.54800
C 	C 	0.24840 0.72640 0.92088 0.69200
H 	H 	0.21180 0.76740 0.91070 0.03600
C 	C 	0.21050 0.74560 0.00260 -0.52200
H 	H 	0.19600 0.76610 0.01060 0.11900
H 	H 	0.20270 0.73600 0.01480 0.53300
Zn	Zn	0.73755 0.69764 0.24717 1.22200
Zn	Zn	0.80217 0.23746 0.11923 1.22400
O 	O 	0.68294 0.70936 0.24227 -0.50800
O 	O 	0.69097 0.74943 0.20085 -0.60400
O 	O 	0.36126 0.79785 0.21755 -0.53800
O 	O 	0.35854 0.74214 0.24277 -0.54200
O 	O 	0.74616 0.19275 0.16550 -0.61000
O 	O 	0.79084 0.18372 0.12507 -0.46500
O 	O 	0.75957 0.85873 0.12312 -0.49800
O 	O 	0.70268 0.85987 0.14694 -0.55400
O 	O 	0.74552 0.70791 0.29443 -0.55800
O 	O 	0.74831 0.70790 0.57312 -0.56600
C 	C 	0.67017 0.73100 0.22114 0.48100
C 	C 	0.62830 0.74110 0.22218 -0.31000
H 	H 	0.61960 0.75950 0.20750 0.12600
C 	C 	0.60335 0.72640 0.24173 0.08800
H 	H 	0.61300 0.70900 0.25700 0.02100
C 	C 	0.56214 0.73318 0.24317 0.00000
C 	C 	0.53955 0.70818 0.26150 -0.06700
H 	H 	0.55110 0.68860 0.27350 0.05700
C 	C 	0.49972 0.71245 0.26187 -0.01000
H 	H 	0.48460 0.69570 0.27410 0.03700
C 	C 	0.48248 0.74173 0.24392 -0.06300
C 	C 	0.50507 0.76674 0.22560 -0.01000
H 	H 	0.49350 0.78630 0.21360 0.02800
C 	C 	0.54490 0.76246 0.22523 -0.06400
H 	H 	0.56000 0.77920 0.21300 0.04600
C 	C 	0.44005 0.74310 0.24100 0.18300
H 	H 	0.42770 0.72100 0.24840 -0.01000
C 	C 	0.41762 0.76830 0.23050 -0.41000
H 	H 	0.42920 0.78960 0.22090 0.17900
C 	C 	0.37619 0.76870 0.23140 0.55500
C 	C 	0.76220 0.17170 0.14587 0.40800
C 	C 	0.75380 0.12920 0.14600 -0.25000
H 	H 	0.73220 0.11990 0.15690 0.10600
C 	C 	0.77750 0.10460 0.13040 0.03400
H 	H 	0.79790 0.11500 0.11860 0.03800
C 	C 	0.77328 0.06019 0.13086 0.02200
C 	C 	0.73763 0.04374 0.13762 -0.06900
H 	H 	0.71690 0.05930 0.14330 0.04900
C 	C 	0.73300 0.00400 0.13585 -0.02500
H 	H 	0.70910 0.99300 0.14040 0.03300
C 	C 	0.76400 0.98070 0.12731 -0.02900
C 	C 	0.79960 0.99720 0.12056 -0.02500
H 	H 	0.82040 0.98160 0.11480 0.04100
C 	C 	0.80428 0.03691 0.12233 -0.07100
H 	H 	0.82810 0.04790 0.11780 0.05700
C 	C 	0.75800 0.93950 0.12410 0.09700
H 	H 	0.77640 0.92640 0.11190 0.01600
C 	C 	0.73060 0.91870 0.13589 -0.30200
H 	H 	0.70970 0.93140 0.14520 0.14000
C 	C 	0.73000 0.87510 0.13556 0.49400
H 	H 	0.79060 0.74300 0.35080 0.24100
C 	C 	0.74690 0.72460 0.36810 0.46300
H 	H 	0.72440 0.71250 0.36120 -0.11200
C 	C 	0.74630 0.72780 0.40322 -0.81300
C 	C 	0.72460 0.69940 0.41847 0.27900
H 	H 	0.70630 0.68560 0.40670 -0.04300
C 	C 	0.73010 0.69170 0.45140 -0.83900
H 	H 	0.71550 0.67270 0.46160 0.31400
C 	C 	0.75740 0.71230 0.46903 -0.00900
C 	C 	0.75930 0.72090 0.45378 -0.28000
H 	H 	0.74550 0.70260 0.46560 0.55000
C 	C 	0.77360 0.74840 0.42088 0.69100
H 	H 	0.73260 0.71180 0.41070 0.03700
C 	C 	0.75440 0.71050 0.50260 -0.52300
H 	H 	0.73390 0.69600 0.51060 0.11900
H 	H 	0.76400 0.70270 0.51480 0.53300
Zn	Zn	0.23755 0.19764 0.74717 1.22200
Zn	Zn	0.30217 0.73746 0.61923 1.22400
O 	O 	0.18294 0.20936 0.74227 -0.50800
O 	O 	0.19097 0.24943 0.70085 -0.60400
O 	O 	0.86126 0.29785 0.71755 -0.53800
O 	O 	0.85854 0.24214 0.74277 -0.54200
O 	O 	0.24616 0.69275 0.66550 -0.61000
O 	O 	0.29084 0.68372 0.62507 -0.46500
O 	O 	0.25957 0.35873 0.62312 -0.49800
O 	O 	0.20268 0.35987 0.64694 -0.55400
O 	O 	0.24552 0.20791 0.79443 -0.55800
O 	O 	0.24831 0.20790 0.07312 -0.56600
C 	C 	0.17017 0.23100 0.72114 0.48100
C 	C 	0.12830 0.24110 0.72218 -0.31000
H 	H 	0.11960 0.25950 0.70750 0.12600
C 	C 	0.10335 0.22640 0.74173 0.08800
H 	H 	0.11300 0.20900 0.75700 0.02100
C 	C 	0.06214 0.23318 0.74317 0.00000
C 	C 	0.03955 0.20818 0.76150 -0.06700
H 	H 	0.05110 0.18860 0.77350 0.05700
C 	C 	0.99972 0.21245 0.76187 -0.01000
H 	H 	0.98460 0.19570 0.77410 0.03700
C 	C 	0.98248 0.24173 0.74392 -0.06300
C 	C 	0.00507 0.26674 0.72560 -0.01000
H 	H 	0.99350 0.28630 0.71360 0.02800
C 	C 	0.04490 0.26246 0.72523 -0.06400
H 	H 	0.06000 0.27920 0.71300 0.04600
C 	C 	0.94005 0.24310 0.74100 0.18300
H 	H 	0.92770 0.22100 0.74840 -0.01000
C 	C 	0.91762 0.26830 0.73050 -0.41000
H 	H 	0.92920 0.28960 0.72090 0.17900
C 	C 	0.87619 0.26870 0.73140 0.55500
C 	C 	0.26220 0.67170 0.64587 0.40800
C 	C 	0.25380 0.62920 0.64600 -0.25000
H 	H 	0.23220 0.61990 0.65690 0.10600
C 	C 	0.27750 0.60460 0.63040 0.03400
H 	H 	0.29790 0.61500 0.61860 0.03800
C 	C 	0.27328 0.56019 0.63086 0.02200
C 	C 	0.23763 0.54374 0.63762 -0.06900
H 	H 	0.21690 0.55930 0.64330 0.04900
C 	C 	0.23300 0.50400 0.63585 -0.02500
H 	H 	0.20910 0.49300 0.64040 0.03300
C 	C 	0.26400 0.48070 0.62731 -0.02900
C 	C 	0.29960 0.49720 0.62056 -0.02500
H 	H 	0.32040 0.48160 0.61480 0.04100
C 	C 	0.30428 0.53691 0.62233 -0.07100
H 	H 	0.32810 0.54790 0.61780 0.05700
C 	C 	0.25800 0.43950 0.62410 0.09700
H 	H 	0.27640 0.42640 0.61190 0.01600
C 	C 	0.23060 0.41870 0.63589 -0.30200
H 	H 	0.20970 0.43140 0.64520 0.14000
C 	C 	0.23000 0.37510 0.63556 0.49400
H 	H 	0.29060 0.24300 0.85080 0.24100
C 	C 	0.24690 0.22460 0.86810 0.46300
H 	H 	0.22440 0.21250 0.86120 -0.11200
C 	C 	0.24630 0.22780 0.90322 -0.81300
C 	C 	0.22460 0.19940 0.91847 0.28000
H 	H 	0.20630 0.18560 0.90670 -0.04300
C 	C 	0.23010 0.19170 0.95140 -0.83800
H 	H 	0.21550 0.17270 0.96160 0.31300
C 	C 	0.25740 0.21230 0.96903 -0.00700
C 	C 	0.25930 0.22090 0.95378 -0.28200
H 	H 	0.24550 0.20260 0.96560 0.54800
C 	C 	0.27360 0.24840 0.92088 0.69200
H 	H 	0.23260 0.21180 0.91070 0.03600
C 	C 	0.25440 0.21050 0.00260 -0.52200
H 	H 	0.23390 0.19600 0.01060 0.11900
H 	H 	0.26400 0.20270 0.01480 0.53300
Zn	Zn	0.26245 0.30236 0.24717 1.22200
Zn	Zn	0.19783 0.76254 0.11923 1.22400
O 	O 	0.31706 0.29064 0.24227 -0.50800
O 	O 	0.30903 0.25057 0.20085 -0.60400
O 	O 	0.63874 0.20215 0.21755 -0.53800
O 	O 	0.64146 0.25786 0.24277 -0.54200
O 	O 	0.25384 0.80725 0.16550 -0.61000
O 	O 	0.20916 0.81628 0.12507 -0.46500
O 	O 	0.24043 0.14127 0.12312 -0.49800
O 	O 	0.29732 0.14013 0.14694 -0.55400
O 	O 	0.25448 0.29209 0.29443 -0.55800
O 	O 	0.25169 0.29210 0.57312 -0.56600
C 	C 	0.32983 0.26900 0.22114 0.48100
C 	C 	0.37170 0.25890 0.22218 -0.31000
H 	H 	0.38040 0.24050 0.20750 0.12600
C 	C 	0.39665 0.27360 0.24173 0.08800
H 	H 	0.38700 0.29100 0.25700 0.02100
C 	C 	0.43786 0.26682 0.24317 0.00000
C 	C 	0.46045 0.29182 0.26150 -0.06700
H 	H 	0.44890 0.31140 0.27350 0.05700
C 	C 	0.50028 0.28755 0.26187 -0.01000
H 	H 	0.51540 0.30430 0.27410 0.03700
C 	C 	0.51752 0.25827 0.24392 -0.06300
C 	C 	0.49493 0.23326 0.22560 -0.01000
H 	H 	0.50650 0.21370 0.21360 0.02800
C 	C 	0.45510 0.23754 0.22523 -0.06400
H 	H 	0.44000 0.22080 0.21300 0.04600
C 	C 	0.55995 0.25690 0.24100 0.18300
H 	H 	0.57230 0.27900 0.24840 -0.01000
C 	C 	0.58238 0.23170 0.23050 -0.41000
H 	H 	0.57080 0.21040 0.22090 0.17900
C 	C 	0.62381 0.23130 0.23140 0.55500
C 	C 	0.23780 0.82830 0.14587 0.40800
C 	C 	0.24620 0.87080 0.14600 -0.25000
H 	H 	0.26780 0.88010 0.15690 0.10600
C 	C 	0.22250 0.89540 0.13040 0.03400
H 	H 	0.20210 0.88500 0.11860 0.03800
C 	C 	0.22672 0.93981 0.13086 0.02200
C 	C 	0.26237 0.95626 0.13762 -0.06900
H 	H 	0.28310 0.94070 0.14330 0.04900
C 	C 	0.26700 0.99600 0.13585 -0.02500
H 	H 	0.29090 0.00700 0.14040 0.03300
C 	C 	0.23600 0.01930 0.12731 -0.02900
C 	C 	0.20040 0.00280 0.12056 -0.02500
H 	H 	0.17960 0.01840 0.11480 0.04100
C 	C 	0.19572 0.96309 0.12233 -0.07100
H 	H 	0.17190 0.95210 0.11780 0.05700
C 	C 	0.24200 0.06050 0.12410 0.09700
H 	H 	0.22360 0.07360 0.11190 0.01600
C 	C 	0.26940 0.08130 0.13589 -0.30200
H 	H 	0.29030 0.06860 0.14520 0.14000
C 	C 	0.27000 0.12490 0.13556 0.49400
H 	H 	0.20940 0.25700 0.35080 0.24100
C 	C 	0.25310 0.27540 0.36810 0.46300
H 	H 	0.27560 0.28750 0.36120 -0.11200
C 	C 	0.25370 0.27220 0.40322 -0.81300
C 	C 	0.27540 0.30060 0.41847 0.27900
H 	H 	0.29370 0.31440 0.40670 -0.04300
C 	C 	0.26990 0.30830 0.45140 -0.83900
H 	H 	0.28450 0.32730 0.46160 0.31400
C 	C 	0.24260 0.28770 0.46903 -0.00900
C 	C 	0.24070 0.27910 0.45378 -0.28000
H 	H 	0.25450 0.29740 0.46560 0.55000
C 	C 	0.22640 0.25160 0.42088 0.69100
H 	H 	0.26740 0.28820 0.41070 0.03700
C 	C 	0.24560 0.28950 0.50260 -0.52300
H 	H 	0.26610 0.30400 0.51060 0.11900
H 	H 	0.23600 0.29730 0.51480 0.53300
Zn	Zn	0.76245 0.80236 0.74717 1.22200
Zn	Zn	0.69783 0.26254 0.61923 1.22400
O 	O 	0.81706 0.79064 0.74227 -0.50800
O 	O 	0.80903 0.75057 0.70085 -0.60400
O 	O 	0.13874 0.70215 0.71755 -0.53800
O 	O 	0.14146 0.75786 0.74277 -0.54200
O 	O 	0.75384 0.30725 0.66550 -0.61000
O 	O 	0.70916 0.31628 0.62507 -0.46500
O 	O 	0.74043 0.64127 0.62312 -0.49800
O 	O 	0.79732 0.64013 0.64694 -0.55400
O 	O 	0.75448 0.79209 0.79443 -0.55800
O 	O 	0.75169 0.79210 0.07312 -0.56600
C 	C 	0.82983 0.76900 0.72114 0.48100
C 	C 	0.87170 0.75890 0.72218 -0.31000
H 	H 	0.88040 0.74050 0.70750 0.12600
C 	C 	0.89665 0.77360 0.74173 0.08800
H 	H 	0.88700 0.79100 0.75700 0.02100
C 	C 	0.93786 0.76682 0.74317 0.00000
C 	C 	0.96045 0.79182 0.76150 -0.06700
H 	H 	0.94890 0.81140 0.77350 0.05700
C 	C 	0.00028 0.78755 0.76187 -0.01000
H 	H 	0.01540 0.80430 0.77410 0.03700
C 	C 	0.01752 0.75827 0.74392 -0.06300
C 	C 	0.99493 0.73326 0.72560 -0.01000
H 	H 	0.00650 0.71370 0.71360 0.02800
C 	C 	0.95510 0.73754 0.72523 -0.06400
H 	H 	0.94000 0.72080 0.71300 0.04600
C 	C 	0.05995 0.75690 0.74100 0.18300
H 	H 	0.07230 0.77900 0.74840 -0.01000
C 	C 	0.08238 0.73170 0.73050 -0.41000
H 	H 	0.07080 0.71040 0.72090 0.17900
C 	C 	0.12381 0.73130 0.73140 0.55500
C 	C 	0.73780 0.32830 0.64587 0.40800
C 	C 	0.74620 0.37080 0.64600 -0.25000
H 	H 	0.76780 0.38010 0.65690 0.10600
C 	C 	0.72250 0.39540 0.63040 0.03400
H 	H 	0.70210 0.38500 0.61860 0.03800
C 	C 	0.72672 0.43981 0.63086 0.02200
C 	C 	0.76237 0.45626 0.63762 -0.06900
H 	H 	0.78310 0.44070 0.64330 0.04900
C 	C 	0.76700 0.49600 0.63585 -0.02500
H 	H 	0.79090 0.50700 0.64040 0.03300
C 	C 	0.73600 0.51930 0.62731 -0.02900
C 	C 	0.70040 0.50280 0.62056 -0.02500
H 	H 	0.67960 0.51840 0.61480 0.04100
C 	C 	0.69572 0.46309 0.62233 -0.07100
H 	H 	0.67190 0.45210 0.61780 0.05700
C 	C 	0.74200 0.56050 0.62410 0.09700
H 	H 	0.72360 0.57360 0.61190 0.01600
C 	C 	0.76940 0.58130 0.63589 -0.30200
H 	H 	0.79030 0.56860 0.64520 0.14000
C 	C 	0.77000 0.62490 0.63556 0.49400
H 	H 	0.70940 0.75700 0.85080 0.24100
C 	C 	0.75310 0.77540 0.86810 0.46300
H 	H 	0.77560 0.78750 0.86120 -0.11200
C 	C 	0.75370 0.77220 0.90322 -0.81300
C 	C 	0.77540 0.80060 0.91847 0.28000
H 	H 	0.79370 0.81440 0.90670 -0.04300
C 	C 	0.76990 0.80830 0.95140 -0.83800
H 	H 	0.78450 0.82730 0.96160 0.31300
C 	C 	0.74260 0.78770 0.96903 -0.00700
C 	C 	0.74070 0.77910 0.95378 -0.28200
H 	H 	0.75450 0.79740 0.96560 0.54800
C 	C 	0.72640 0.75160 0.92088 0.69200
H 	H 	0.76740 0.78820 0.91070 0.03600
C 	C 	0.74560 0.78950 0.00260 -0.52200
H 	H 	0.76610 0.80400 0.01060 0.11900
H 	H 	0.73600 0.79730 0.01480 0.53300
Zn	Zn	0.19134 0.30866 0.66985 1.19300
Zn	Zn	0.25001 0.24999 0.68293 1.21400
O 	O 	0.27328 0.22672 0.72100 -0.91400
O 	O 	0.22614 0.27386 0.64516 -0.91300
C 	C 	0.26840 0.23160 0.80783 0.69600
C 	C 	0.26740 0.23260 0.84348 -0.97000
C 	C 	0.27480 0.22520 0.02310 -0.56300
C 	C 	0.27090 0.22910 0.05862 0.59300
Zn	Zn	0.80866 0.69134 0.66985 1.19300
Zn	Zn	0.74999 0.75001 0.68293 1.21400
O 	O 	0.72672 0.77328 0.72100 -0.91400
O 	O 	0.77386 0.72614 0.64516 -0.91300
C 	C 	0.73160 0.76840 0.80783 0.69600
C 	C 	0.73260 0.76740 0.84348 -0.97000
C 	C 	0.72520 0.77480 0.02310 -0.56300
C 	C 	0.72910 0.77090 0.05862 0.59300
Zn	Zn	0.30866 0.19134 0.16985 1.19300
Zn	Zn	0.24999 0.25001 0.18293 1.21400
O 	O 	0.22672 0.27328 0.22100 -0.91400
O 	O 	0.27386 0.22614 0.14516 -0.91300
C 	C 	0.23160 0.26840 0.30783 0.69600
C 	C 	0.23260 0.26740 0.34348 -0.97000
C 	C 	0.22520 0.27480 0.52310 -0.56300
C 	C 	0.22910 0.27090 0.55862 0.59300
Zn	Zn	0.69134 0.19134 0.66985 1.19300
Zn	Zn	0.75001 0.25001 0.68293 1.21400
O 	O 	0.77328 0.27328 0.72100 -0.91400
O 	O 	0.72614 0.22614 0.64516 -0.91300
C 	C 	0.76840 0.26840 0.80783 0.69600
C 	C 	0.76740 0.26740 0.84348 -0.97000
C 	C 	0.77480 0.27480 0.02310 -0.56300
C 	C 	0.77090 0.27090 0.05862 0.59300
Zn	Zn	0.30866 0.80866 0.66985 1.19300
Zn	Zn	0.24999 0.74999 0.68293 1.21400
O 	O 	0.22672 0.72672 0.72100 -0.91400
O 	O 	0.27386 0.77386 0.64516 -0.91300
C 	C 	0.23160 0.73160 0.80783 0.69600
C 	C 	0.23260 0.73260 0.84348 -0.97000
C 	C 	0.22520 0.72520 0.02310 -0.56300
C 	C 	0.22910 0.72910 0.05862 0.59300
Zn	Zn	0.19134 0.69134 0.16985 1.19300
Zn	Zn	0.25001 0.75001 0.18293 1.21400
O 	O 	0.27328 0.77328 0.22100 -0.91400
O 	O 	0.22614 0.72614 0.14516 -0.91300
C 	C 	0.26840 0.76840 0.30783 0.69600
C 	C 	0.26740 0.76740 0.34348 -0.97000
C 	C 	0.27480 0.77480 0.52310 -0.56300
C 	C 	0.27090 0.77090 0.55862 0.59300
Zn	Zn	0.80866 0.30866 0.16985 1.19300
Zn	Zn	0.74999 0.24999 0.18293 1.21400
O 	O 	0.72672 0.22672 0.22100 -0.91400
O 	O 	0.77386 0.27386 0.14516 -0.91300
C 	C 	0.73160 0.23160 0.30783 0.69600
C 	C 	0.73260 0.23260 0.34348 -0.97000
C 	C 	0.72520 0.22520 0.52310 -0.56300
C 	C 	0.72910 0.22910 0.55862 0.59300
Zn	Zn	0.69134 0.80866 0.16985 1.19300
Zn	Zn	0.75001 0.74999 0.18293 1.21400
O 	O 	0.77328 0.72672 0.22100 -0.91400
O 	O 	0.72614 0.77386 0.14516 -0.91300
C 	C 	0.76840 0.73160 0.30783 0.69600
C 	C 	0.76740 0.73260 0.34348 -0.97000
C 	C 	0.77480 0.72520 0.52310 -0.56300
C 	C 	0.77090 0.72910 0.55862 0.59300
Zn	Zn	0.19146 0.69146 0.69705 1.20100
Zn	Zn	0.80854 0.30854 0.69705 1.20100
Zn	Zn	0.30854 0.19146 0.69705 1.20100
Zn	Zn	0.80854 0.69146 0.19705 1.20100
Zn	Zn	0.69146 0.80854 0.69705 1.20100
Zn	Zn	0.19146 0.30854 0.19705 1.20100
Zn	Zn	0.30854 0.80854 0.19705 1.20100
Zn	Zn	0.69146 0.19146 0.19705 1.20100
