data_crystal

_cell_length_a 28.55540
_cell_length_b 28.55540
_cell_length_c 19.21550
_cell_angle_alpha 90.00000
_cell_angle_beta  90.00000
_cell_angle_gamma 120.00000

_symmetry_space_group_name_	'P 1'
_symmetry_space_group_name_H-M	'P 1'

loop_
_symmetry_equiv_pos_as_xyz
  x,y,z

loop_
_atom_site_label
_atom_site_type_symbol
_atom_site_fract_x
_atom_site_fract_y
_atom_site_fract_z
_atom_site_charge
Mn	Mn	0.02029 0.76417 0.08077 1.30100
Mn	Mn	0.73421 0.75516 0.85156 1.30500
Fe	Fe	0.82273 0.64379 0.96550 1.15800
Br	Br	0.09985 0.02679 0.23870 -0.21200
Br	Br	0.21466 0.67239 0.03075 -0.20100
Br	Br	0.92307 0.02320 0.71030 -0.20400
Br	Br	0.44776 0.66195 0.89118 -0.22400
N 	N 	0.97852 0.77141 0.16167 -0.20900
N 	N 	0.00295 0.68976 0.11185 -0.22600
N 	N 	0.78410 0.76467 0.77133 -0.21000
N 	N 	0.67853 0.67983 0.82094 -0.21500
N 	N 	0.93949 0.72441 0.01933 -0.12900
N 	N 	0.77838 0.71787 0.91296 -0.15900
N 	N 	0.70927 0.55477 0.91854 -0.06100
N 	N 	0.85193 0.55808 0.01185 -0.03000
N 	N 	0.76350 0.63219 0.10635 -0.15600
N 	N 	0.87419 0.63874 0.82450 -0.15200
O 	O 	0.04408 0.83616 0.05466 -0.41500
O 	O 	0.06243 0.76014 0.00698 -0.42600
O 	O 	0.78100 0.82583 0.88133 -0.41800
O 	O 	0.68699 0.74974 0.92437 -0.42800
C 	C 	0.89613 0.69719 0.99843 -0.22100
C 	C 	0.79775 0.69350 0.93306 -0.19200
C 	C 	0.75201 0.58743 0.93527 -0.22100
C 	C 	0.84067 0.58978 0.99578 -0.24900
C 	C 	0.78840 0.63885 0.05628 -0.16600
C 	C 	0.85461 0.64274 0.87477 -0.19000
C 	C 	0.05920 0.87654 0.09941 0.18600
C 	C 	0.09973 0.92853 0.07951 -0.09400
H 	H 	0.11840 0.93330 0.03680 0.08500
C 	C 	0.11280 0.97271 0.12103 -0.08600
H 	H 	0.14040 0.00770 0.10730 0.10500
C 	C 	0.08494 0.96546 0.18379 0.13100
C 	C 	0.04699 0.91554 0.20612 -0.07900
H 	H 	0.02920 0.91140 0.24940 0.09600
C 	C 	0.03408 0.86973 0.16478 -0.07800
C 	C 	0.99211 0.81784 0.18885 0.04500
H 	H 	0.97240 0.81770 0.22880 0.04600
C 	C 	0.93051 0.72381 0.19109 -0.30200
H 	H 	0.90080 0.71030 0.15660 0.11300
H 	H 	0.91860 0.73520 0.23290 0.12600
C 	C 	0.94019 0.67723 0.21121 0.42700
C 	C 	0.95120 0.65282 0.14614 -0.29000
H 	H 	0.95120 0.61940 0.15960 0.12100
H 	H 	0.92140 0.64270 0.11240 0.11000
C 	C 	0.03770 0.67388 0.10465 0.00900
H 	H 	0.03090 0.64220 0.12930 0.02700
C 	C 	0.08607 0.69974 0.06262 -0.08200
C 	C 	0.12145 0.67893 0.06630 -0.09300
H 	H 	0.11480 0.65090 0.09840 0.08100
C 	C 	0.16571 0.69940 0.02320 0.14100
C 	C 	0.17524 0.73863 0.97418 -0.10500
H 	H 	0.20560 0.75160 0.94400 0.07700
C 	C 	0.14037 0.75874 0.96948 -0.14800
H 	H 	0.14680 0.78550 0.93550 0.07400
C 	C 	0.09536 0.74041 0.01401 0.19700
C 	C 	0.88699 0.63318 0.24280 -0.76700
H 	H 	0.88950 0.60070 0.25150 0.25200
H 	H 	0.85730 0.62450 0.21030 0.24800
H 	H 	0.88020 0.64620 0.28670 0.24800
C 	C 	0.98676 0.69625 0.26296 -0.72400
H 	H 	0.01910 0.72730 0.24360 0.22400
H 	H 	0.99420 0.66680 0.27190 0.24900
H 	H 	0.97690 0.70680 0.30660 0.24400
C 	C 	0.80839 0.86773 0.83869 0.16800
C 	C 	0.82247 0.91985 0.86422 -0.08100
H 	H 	0.80910 0.92330 0.90800 0.07300
C 	C 	0.85554 0.96543 0.82570 -0.10400
H 	H 	0.86460 0.00020 0.84260 0.10800
C 	C 	0.87552 0.96014 0.76203 0.14200
C 	C 	0.86178 0.91042 0.73632 -0.09400
H 	H 	0.87550 0.90760 0.69250 0.10600
C 	C 	0.82748 0.86321 0.77390 -0.05100
C 	C 	0.81726 0.81161 0.74601 0.01100
H 	H 	0.83680 0.81260 0.70550 0.05000
C 	C 	0.78581 0.71819 0.74100 -0.31100
H 	H 	0.80310 0.70540 0.77480 0.11300
H 	H 	0.80880 0.73040 0.69880 0.12600
C 	C 	0.73035 0.67074 0.72135 0.43300
C 	C 	0.69534 0.64487 0.78560 -0.31300
H 	H 	0.66260 0.61090 0.77160 0.12200
H 	H 	0.71580 0.63540 0.81890 0.10900
C 	C 	0.62773 0.66128 0.82956 0.00700
H 	H 	0.60370 0.62740 0.80870 0.02900
C 	C 	0.60395 0.68745 0.86833 -0.07800
C 	C 	0.54756 0.66668 0.86296 -0.09200
H 	H 	0.52660 0.63760 0.83210 0.07800
C 	C 	0.52321 0.68851 0.90242 0.11400
C 	C 	0.55253 0.73018 0.94864 -0.07800
H 	H 	0.53490 0.74480 0.97550 0.07200
C 	C 	0.60748 0.75056 0.95563 -0.12100
H 	H 	0.62740 0.77880 0.98800 0.06700
C 	C 	0.63407 0.73008 0.91545 0.16600
C 	C 	0.74055 0.62764 0.68770 -0.76600
H 	H 	0.76230 0.64250 0.64550 0.24800
H 	H 	0.70590 0.59580 0.67560 0.25100
H 	H 	0.75990 0.61720 0.72060 0.24700
C 	C 	0.70103 0.68903 0.67047 -0.76400
H 	H 	0.69520 0.71660 0.69280 0.24500
H 	H 	0.66610 0.65790 0.65760 0.25500
H 	H 	0.72310 0.70430 0.62860 0.25200
Mn	Mn	0.68669 0.59049 0.18345 1.30700
Fe	Fe	0.48742 0.51027 0.29513 1.16100
Br	Br	0.76744 0.40766 0.02765 -0.20500
Br	Br	0.88308 0.87547 0.23211 -0.20800
N 	N 	0.64530 0.54149 0.10259 -0.21300
N 	N 	0.66928 0.64747 0.15276 -0.22200
N 	N 	0.60545 0.54874 0.24450 -0.15900
N 	N 	0.37286 0.48461 0.33982 -0.06000
N 	N 	0.51546 0.62426 0.24669 -0.05800
O 	O 	0.71081 0.54286 0.21032 -0.41300
O 	O 	0.72791 0.63627 0.25780 -0.42600
C 	C 	0.56161 0.53199 0.26396 -0.18700
C 	C 	0.41579 0.49490 0.32449 -0.21000
C 	C 	0.50417 0.58191 0.26382 -0.21000
C 	C 	0.72610 0.51733 0.16610 0.17800
C 	C 	0.76685 0.50551 0.18610 -0.10000
H 	H 	0.78540 0.51910 0.22890 0.08700
C 	C 	0.77987 0.47485 0.14450 -0.05700
H 	H 	0.80770 0.46770 0.15800 0.08200
C 	C 	0.75221 0.45420 0.08250 0.14200
C 	C 	0.71392 0.46581 0.05934 -0.09000
H 	H 	0.69620 0.45180 0.01620 0.11600
C 	C 	0.70108 0.49881 0.10028 -0.04700
C 	C 	0.65889 0.50843 0.07531 0.01500
H 	H 	0.63940 0.48880 0.03530 0.05700
C 	C 	0.59734 0.54116 0.07298 -0.26100
H 	H 	0.56750 0.52480 0.10730 0.10100
H 	H 	0.58560 0.51800 0.03090 0.12100
C 	C 	0.60723 0.59713 0.05349 0.32500
C 	C 	0.61730 0.63265 0.11785 -0.25800
H 	H 	0.61740 0.66610 0.10380 0.11000
H 	H 	0.58730 0.61310 0.15130 0.09500
C 	C 	0.70328 0.69799 0.16157 0.00700
H 	H 	0.69550 0.72290 0.13900 0.03400
C 	C 	0.75220 0.72050 0.20257 -0.07800
C 	C 	0.78826 0.77649 0.19778 -0.08900
H 	H 	0.78190 0.79780 0.16530 0.08200
C 	C 	0.83275 0.80006 0.24036 0.11300
C 	C 	0.84262 0.76978 0.28911 -0.07300
H 	H 	0.87360 0.78670 0.31820 0.07500
C 	C 	0.80707 0.71524 0.29466 -0.12200
H 	H 	0.81340 0.69480 0.32850 0.07300
C 	C 	0.76157 0.68921 0.25117 0.16700
C 	C 	0.55335 0.58785 0.02160 -0.58600
H 	H 	0.54560 0.56660 0.97880 0.17700
H 	H 	0.55640 0.62280 0.01080 0.21000
H 	H 	0.52390 0.56830 0.05500 0.19900
C 	C 	0.65364 0.62550 0.00130 -0.51900
H 	H 	0.68650 0.62790 0.02070 0.18500
H 	H 	0.66000 0.66200 0.99190 0.16500
H 	H 	0.64410 0.60480 0.95790 0.16500
Mn	Mn	0.40196 0.31215 0.41267 1.30700
Br	Br	0.59084 0.23394 0.55612 -0.22600
Br	Br	0.11447 0.12077 0.37166 -0.20900
N 	N 	0.45209 0.35305 0.49274 -0.20900
N 	N 	0.34631 0.33138 0.44390 -0.21700
N 	N 	0.43075 0.46027 0.15356 -0.15300
N 	N 	0.44522 0.39288 0.35066 -0.16000
O 	O 	0.44926 0.28850 0.38376 -0.42000
O 	O 	0.35436 0.26925 0.34080 -0.42900
C 	C 	0.45449 0.47934 0.20446 -0.19500
C 	C 	0.46373 0.43650 0.32901 -0.18900
C 	C 	0.47658 0.27413 0.42564 0.18800
C 	C 	0.49043 0.23584 0.40167 -0.10900
H 	H 	0.47660 0.21810 0.35847 0.09000
C 	C 	0.52377 0.22404 0.44027 -0.05500
H 	H 	0.53350 0.19880 0.42327 0.08300
C 	C 	0.54315 0.24912 0.50434 0.13800
C 	C 	0.52939 0.28523 0.52987 -0.08700
H 	H 	0.54290 0.30190 0.57377 0.10500
C 	C 	0.49518 0.29778 0.49135 -0.05900
C 	C 	0.48489 0.33897 0.51874 0.01500
H 	H 	0.50400 0.35730 0.55957 0.04900
C 	C 	0.45397 0.40140 0.52308 -0.31400
H 	H 	0.47090 0.43140 0.48907 0.11400
H 	H 	0.47720 0.41230 0.56497 0.12700
C 	C 	0.39836 0.39303 0.54323 0.44100
C 	C 	0.36268 0.38335 0.47885 -0.31100
H 	H 	0.32980 0.38430 0.49307 0.12100
H 	H 	0.38270 0.41310 0.44527 0.10800
C 	C 	0.29527 0.29853 0.43624 0.00500
H 	H 	0.27130 0.30770 0.45867 0.03000
C 	C 	0.27125 0.24915 0.39669 -0.07900
C 	C 	0.21503 0.21508 0.40195 -0.08900
H 	H 	0.19440 0.22370 0.43267 0.07700
C 	C 	0.19027 0.16902 0.36187 0.11400
C 	C 	0.21932 0.15649 0.31436 -0.07200
H 	H 	0.20130 0.12490 0.28637 0.08100
C 	C 	0.27404 0.19020 0.30840 -0.12000
H 	H 	0.29380 0.18170 0.27587 0.07500
C 	C 	0.30163 0.23716 0.34936 0.16900
C 	C 	0.40835 0.44633 0.57617 -0.76800
H 	H 	0.37360 0.44350 0.58787 0.25200
H 	H 	0.42780 0.47600 0.54307 0.24700
H 	H 	0.43000 0.45350 0.61857 0.24800
C 	C 	0.36941 0.34595 0.59407 -0.78000
H 	H 	0.36420 0.31260 0.57217 0.24900
H 	H 	0.33420 0.34170 0.60627 0.26000
H 	H 	0.39130 0.35330 0.63617 0.25700
N 	N 	0.53647 0.56922 0.43571 -0.15400
C 	C 	0.51762 0.54446 0.38576 -0.19300
Mn	Mn	0.35425 0.92626 0.18016 1.30600
Mn	Mn	0.07104 0.64635 0.40932 1.30600
Fe	Fe	0.15719 0.84669 0.29836 1.16200
Br	Br	0.43259 0.74026 0.02755 -0.20600
Br	Br	0.54574 0.21414 0.22649 -0.20600
Br	Br	0.25686 0.56579 0.55617 -0.22700
Br	Br	0.78634 0.45012 0.36597 -0.21000
N 	N 	0.31235 0.87658 0.09953 -0.20100
N 	N 	0.33619 0.98273 0.14889 -0.22100
N 	N 	0.12034 0.68679 0.48986 -0.21000
N 	N 	0.01479 0.66500 0.43975 -0.22500
N 	N 	0.04375 0.82121 0.34708 -0.06400
N 	N 	0.11479 0.72792 0.34850 -0.16000
N 	N 	0.27372 0.88495 0.24217 -0.16000
N 	N 	0.18497 0.96172 0.25444 -0.06500
N 	N 	0.20886 0.90228 0.43995 -0.15400
N 	N 	0.09712 0.79901 0.15794 -0.15500
O 	O 	0.37761 0.87814 0.20723 -0.41900
O 	O 	0.39718 0.97335 0.25273 -0.44800
O 	O 	0.11796 0.62181 0.38085 -0.41800
O 	O 	0.02478 0.60534 0.33521 -0.44600
C 	C 	0.08694 0.83187 0.33026 -0.21900
C 	C 	0.13313 0.77171 0.32918 -0.18600
C 	C 	0.23013 0.86786 0.26367 -0.19200
C 	C 	0.17424 0.91860 0.26958 -0.21500
C 	C 	0.18917 0.87903 0.38965 -0.19100
C 	C 	0.12181 0.81740 0.20776 -0.19100
C 	C 	0.39275 0.85241 0.16396 0.18500
C 	C 	0.43207 0.83910 0.18509 -0.10700
H 	H 	0.45000 0.85210 0.22840 0.08800
C 	C 	0.44464 0.80779 0.14420 -0.05400
H 	H 	0.47180 0.79990 0.15870 0.08100
C 	C 	0.41796 0.78747 0.08135 0.14200
C 	C 	0.38082 0.80016 0.05798 -0.09000
H 	H 	0.36330 0.78660 0.01460 0.11600
C 	C 	0.36843 0.83364 0.09849 -0.04900
C 	C 	0.32622 0.84382 0.07290 0.01000
H 	H 	0.30700 0.82430 0.03270 0.05800
C 	C 	0.26406 0.87575 0.07025 -0.34500
H 	H 	0.23450 0.85970 0.10500 0.12300
H 	H 	0.25200 0.85220 0.02860 0.14500
C 	C 	0.27380 0.93168 0.05000 0.50400
C 	C 	0.28435 0.96712 0.11396 -0.37500
H 	H 	0.28400 0.00030 0.09990 0.15600
H 	H 	0.25450 0.94750 0.14770 0.12300
C 	C 	0.37015 0.03342 0.15557 0.03200
H 	H 	0.36250 0.05770 0.13100 0.02900
C 	C 	0.41902 0.05700 0.19705 -0.09300
C 	C 	0.45338 0.11321 0.19263 -0.07600
H 	H 	0.44590 0.13400 0.16060 0.07800
C 	C 	0.49815 0.13793 0.23531 0.10700
C 	C 	0.50898 0.10844 0.28296 -0.06200
H 	H 	0.53980 0.12610 0.31230 0.07400
C 	C 	0.47519 0.05350 0.28814 -0.13800
H 	H 	0.48280 0.03360 0.32150 0.08400
C 	C 	0.42958 0.02604 0.24510 0.20100
C 	C 	0.22025 0.92216 0.01770 -0.73700
H 	H 	0.21240 0.90010 0.97560 0.21900
H 	H 	0.22350 0.95700 0.00570 0.24700
H 	H 	0.19080 0.90330 0.05130 0.24000
C 	C 	0.32027 0.95965 0.99800 -0.93400
H 	H 	0.35330 0.96290 0.01820 0.31000
H 	H 	0.32610 0.99570 0.98730 0.28700
H 	H 	0.31120 0.93820 0.95520 0.29100
C 	C 	0.14475 0.60757 0.42361 0.18600
C 	C 	0.15739 0.56789 0.40130 -0.10800
H 	H 	0.14320 0.54970 0.35840 0.08800
C 	C 	0.18954 0.55523 0.44020 -0.05300
H 	H 	0.19780 0.52870 0.42420 0.08000
C 	C 	0.21023 0.58156 0.50350 0.13800
C 	C 	0.19738 0.61870 0.52850 -0.08600
H 	H 	0.21130 0.63580 0.57210 0.10500
C 	C 	0.16343 0.63155 0.48934 -0.05900
C 	C 	0.15367 0.67311 0.51611 0.01500
H 	H 	0.17330 0.69210 0.55640 0.04900
C 	C 	0.12160 0.73482 0.52041 -0.31500
H 	H 	0.13900 0.76510 0.48690 0.11400
H 	H 	0.14430 0.74550 0.56290 0.12600
C 	C 	0.06564 0.72635 0.53956 0.45100
C 	C 	0.03075 0.71680 0.47488 -0.35100
H 	H 	0.99770 0.71760 0.48860 0.14500
H 	H 	0.05100 0.74670 0.44160 0.11700
C 	C 	0.96387 0.63198 0.43075 0.03000
H 	H 	0.93930 0.64090 0.45210 0.02400
C 	C 	0.94100 0.58235 0.39083 -0.09400
C 	C 	0.88491 0.54649 0.39627 -0.07800
H 	H 	0.86360 0.55400 0.42740 0.07500
C 	C 	0.86140 0.50039 0.35586 0.10800
C 	C 	0.89128 0.48963 0.30843 -0.06300
H 	H 	0.87410 0.45780 0.28070 0.07400
C 	C 	0.94567 0.52490 0.30154 -0.13500
H 	H 	0.96580 0.51780 0.26810 0.08500
C 	C 	0.97217 0.57160 0.34351 0.19700
C 	C 	0.07555 0.77934 0.57256 -0.78300
H 	H 	0.04090 0.77570 0.58690 0.25000
H 	H 	0.09310 0.80870 0.53870 0.25100
H 	H 	0.09890 0.78740 0.61340 0.25100
C 	C 	0.03673 0.67912 0.59065 -0.77600
H 	H 	0.00150 0.67480 0.60320 0.25100
H 	H 	0.05880 0.68650 0.63270 0.25200
H 	H 	0.03140 0.64580 0.56880 0.24600
Mn	Mn	0.91019 0.59804 0.74600 1.30700
Br	Br	0.64310 0.40916 0.88945 -0.24100
Br	Br	0.00630 0.88553 0.70499 -0.24800
N 	N 	0.90096 0.54791 0.82607 -0.20800
N 	N 	0.98507 0.65369 0.77723 -0.18700
N 	N 	0.02952 0.56925 0.48689 -0.15600
N 	N 	0.94766 0.55478 0.68399 -0.16000
O 	O 	0.83924 0.55074 0.71709 -0.42000
O 	O 	0.91489 0.64564 0.67413 -0.41600
C 	C 	0.02485 0.54551 0.53779 -0.20500
C 	C 	0.97277 0.53627 0.66234 -0.17500
C 	C 	0.79755 0.52342 0.75897 0.18900
C 	C 	0.74541 0.50957 0.73500 -0.11000
H 	H 	0.74150 0.52340 0.69180 0.09000
C 	C 	0.70027 0.47623 0.77360 -0.05400
H 	H 	0.66530 0.46650 0.75660 0.08200
C 	C 	0.70597 0.45685 0.83767 0.13700
C 	C 	0.75584 0.47061 0.86320 -0.08500
H 	H 	0.75900 0.45710 0.90710 0.09700
C 	C 	0.80260 0.50482 0.82468 -0.06200
C 	C 	0.85408 0.51511 0.85207 0.01600
H 	H 	0.85330 0.49600 0.89290 0.04500
C 	C 	0.94743 0.54603 0.85641 -0.32200
H 	H 	0.96050 0.52910 0.82240 0.12100
H 	H 	0.93510 0.52280 0.89830 0.12900
C 	C 	0.99467 0.60164 0.87656 0.46300
C 	C 	0.02067 0.63732 0.81218 -0.35100
H 	H 	0.05450 0.67020 0.82640 0.12900
H 	H 	0.03040 0.61730 0.77860 0.11400
C 	C 	0.00326 0.70473 0.76957 -0.06500
H 	H 	0.03640 0.72870 0.79200 0.04900
C 	C 	0.97790 0.72875 0.73002 0.00300
C 	C 	0.00005 0.78497 0.73528 -0.18400
H 	H 	0.02930 0.80560 0.76600 0.10300
C 	C 	0.97875 0.80973 0.69520 0.18200
C 	C 	0.93717 0.78068 0.64769 -0.11900
H 	H 	0.92360 0.79870 0.61970 0.09600
C 	C 	0.91616 0.72596 0.64173 -0.07800
H 	H 	0.88790 0.70620 0.60920 0.06000
C 	C 	0.93553 0.69837 0.68269 0.13000
C 	C 	0.03798 0.59165 0.90950 -0.79100
H 	H 	0.06990 0.62640 0.92120 0.25200
H 	H 	0.04820 0.57220 0.87640 0.25000
H 	H 	0.02350 0.57000 0.95190 0.24300
C 	C 	0.97654 0.63059 0.92740 -0.73500
H 	H 	0.94840 0.63580 0.90550 0.23700
H 	H 	0.00750 0.66580 0.93960 0.22900
H 	H 	0.96200 0.60870 0.96950 0.24000
N 	N 	0.03275 0.46353 0.76905 -0.15600
C 	C 	0.02684 0.48238 0.71910 -0.20100
Mn	Mn	0.90380 0.31331 0.51678 1.30700
Fe	Fe	0.02285 0.51258 0.62846 1.15500
Br	Br	0.64023 0.23256 0.36098 -0.22600
Br	Br	0.99240 0.11692 0.56544 -0.19000
N 	N 	0.89619 0.35470 0.43592 -0.20600
N 	N 	0.97819 0.33072 0.48609 -0.21400
N 	N 	0.94329 0.39455 0.57783 -0.15900
N 	N 	0.11175 0.62714 0.67315 -0.06000
N 	N 	0.10880 0.48454 0.58002 -0.05900
O 	O 	0.83205 0.28919 0.54365 -0.41300
O 	O 	0.90836 0.27209 0.59113 -0.42800
C 	C 	0.97038 0.43839 0.59729 -0.17300
C 	C 	0.07911 0.58421 0.65782 -0.21300
C 	C 	0.07774 0.49583 0.59715 -0.21400
C 	C 	0.79123 0.27390 0.49943 0.17800
C 	C 	0.73866 0.23315 0.51943 -0.10100
H 	H 	0.73370 0.21460 0.56223 0.08700
C 	C 	0.69498 0.22013 0.47783 -0.05700
H 	H 	0.66000 0.19230 0.49133 0.08100
C 	C 	0.70199 0.24779 0.41583 0.14100
C 	C 	0.75189 0.28608 0.39267 -0.09200
H 	H 	0.75560 0.30380 0.34953 0.10800
C 	C 	0.79773 0.29892 0.43361 -0.05000
C 	C 	0.84954 0.34111 0.40864 0.01000
H 	H 	0.84940 0.36060 0.36863 0.05200
C 	C 	0.94382 0.40266 0.40631 -0.32700
H 	H 	0.95730 0.43250 0.44063 0.12200
H 	H 	0.93240 0.41440 0.36423 0.13300
C 	C 	0.98990 0.39277 0.38682 0.46600
C 	C 	0.01535 0.38270 0.45118 -0.34900
H 	H 	0.04870 0.38260 0.43713 0.12900
H 	H 	0.02580 0.41270 0.48463 0.11400
C 	C 	0.99471 0.29672 0.49490 0.04900
H 	H 	0.02740 0.30450 0.47233 0.00500
C 	C 	0.96830 0.24780 0.53590 -0.10900
C 	C 	0.98823 0.21174 0.53111 -0.03500
H 	H 	0.01590 0.21810 0.49863 0.04800
C 	C 	0.96731 0.16725 0.57369 0.09100
C 	C 	0.92716 0.15738 0.62244 -0.05400
H 	H 	0.91310 0.12640 0.65153 0.06900
C 	C 	0.90817 0.19293 0.62799 -0.13800
H 	H 	0.88140 0.18660 0.66183 0.07900
C 	C 	0.92764 0.23843 0.58450 0.18500
C 	C 	0.03450 0.44665 0.35493 -0.79300
H 	H 	0.02100 0.45440 0.31213 0.24900
H 	H 	0.06640 0.44360 0.34413 0.25700
H 	H 	0.04440 0.47610 0.38833 0.25000
C 	C 	0.97186 0.34636 0.33463 -0.74400
H 	H 	0.94140 0.31350 0.35403 0.24400
H 	H 	0.00200 0.34000 0.32523 0.23600
H 	H 	0.96070 0.35590 0.29123 0.25100
N 	N 	0.43078 0.96725 0.10238 -0.16000
C 	C 	0.45554 0.97316 0.05243 -0.18000
Mn	Mn	0.40951 0.09620 0.85012 1.30700
Fe	Fe	0.48973 0.97715 0.96180 1.15200
Br	Br	0.59234 0.35977 0.69432 -0.22700
Br	Br	0.12453 0.00760 0.89878 -0.21100
N 	N 	0.45851 0.10381 0.76926 -0.20600
N 	N 	0.35253 0.02181 0.81943 -0.21400
N 	N 	0.45126 0.05671 0.91117 -0.16100
N 	N 	0.51539 0.88825 0.00649 -0.03100
N 	N 	0.37574 0.89120 0.91336 -0.06300
O 	O 	0.45714 0.16795 0.87699 -0.41700
O 	O 	0.36373 0.09164 0.92447 -0.43400
C 	C 	0.46801 0.02962 0.93063 -0.18200
C 	C 	0.50510 0.92089 0.99116 -0.24900
C 	C 	0.41809 0.92226 0.93049 -0.22400
C 	C 	0.48267 0.20877 0.83277 0.17700
C 	C 	0.49449 0.26134 0.85277 -0.10100
H 	H 	0.48090 0.26630 0.89557 0.08200
C 	C 	0.52515 0.30502 0.81117 -0.05900
H 	H 	0.53230 0.34000 0.82467 0.08000
C 	C 	0.54580 0.29801 0.74917 0.14100
C 	C 	0.53419 0.24811 0.72601 -0.09300
H 	H 	0.54820 0.24440 0.68287 0.10800
C 	C 	0.50119 0.20227 0.76695 -0.05000
C 	C 	0.49157 0.15046 0.74198 0.01000
H 	H 	0.51120 0.15060 0.70197 0.05200
C 	C 	0.45884 0.05618 0.73965 -0.32700
H 	H 	0.47520 0.04270 0.77397 0.12200
H 	H 	0.48200 0.06760 0.69757 0.13300
C 	C 	0.40287 0.01010 0.72016 0.46800
C 	C 	0.36735 0.98465 0.78452 -0.35100
H 	H 	0.33390 0.95130 0.77047 0.12900
H 	H 	0.38690 0.97420 0.81797 0.11400
C 	C 	0.30201 0.00529 0.82824 0.05000
H 	H 	0.27710 0.97260 0.80567 0.00300
C 	C 	0.27950 0.03170 0.86924 -0.11200
C 	C 	0.22351 0.01177 0.86445 -0.03400
H 	H 	0.20220 0.98410 0.83197 0.04500
C 	C 	0.19994 0.03269 0.90703 0.08800
C 	C 	0.23022 0.07284 0.95578 -0.05500
H 	H 	0.21330 0.08690 0.98487 0.06100
C 	C 	0.28476 0.09183 0.96133 -0.14100
H 	H 	0.30520 0.11860 0.99517 0.07300
C 	C 	0.31079 0.07236 0.91784 0.18300
C 	C 	0.41215 0.96550 0.68827 -0.79400
H 	H 	0.43340 0.97900 0.64547 0.24800
H 	H 	0.37720 0.93360 0.67747 0.25700
H 	H 	0.43170 0.95560 0.72167 0.25000
C 	C 	0.37450 0.02814 0.66797 -0.74200
H 	H 	0.37210 0.05860 0.68737 0.24300
H 	H 	0.33800 0.99800 0.65857 0.23600
H 	H 	0.39520 0.03930 0.62457 0.25000
Mn	Mn	0.68785 0.08981 0.07933 1.30800
Br	Br	0.76606 0.35690 0.22278 -0.22400
Br	Br	0.87923 0.99370 0.03832 -0.22000
N 	N 	0.64695 0.09904 0.15940 -0.20600
N 	N 	0.66862 0.01493 0.11056 -0.18300
N 	N 	0.53973 0.97048 0.82022 -0.15600
N 	N 	0.60712 0.05234 0.01732 -0.13500
O 	O 	0.71150 0.16076 0.05042 -0.41300
O 	O 	0.73075 0.08511 0.00746 -0.41100
C 	C 	0.52066 0.97515 0.87112 -0.20500
C 	C 	0.56350 0.02723 0.99567 -0.20700
C 	C 	0.72587 0.20245 0.09230 0.19000
C 	C 	0.76416 0.25459 0.06833 -0.10700
H 	H 	0.78190 0.25850 0.02513 0.09800
C 	C 	0.77596 0.29973 0.10693 -0.05400
H 	H 	0.80120 0.33470 0.08993 0.08700
C 	C 	0.75088 0.29403 0.17100 0.13900
C 	C 	0.71477 0.24416 0.19653 -0.08600
H 	H 	0.69810 0.24100 0.24043 0.10500
C 	C 	0.70222 0.19740 0.15801 -0.05800
C 	C 	0.66103 0.14592 0.18540 0.01500
H 	H 	0.64270 0.14670 0.22623 0.04900
C 	C 	0.59860 0.05257 0.18974 -0.33300
H 	H 	0.56860 0.03950 0.15573 0.12600
H 	H 	0.58770 0.06490 0.23163 0.13500
C 	C 	0.60697 0.00533 0.20989 0.48200
C 	C 	0.61665 0.97933 0.14551 -0.36400
H 	H 	0.61570 0.94550 0.15973 0.13600
H 	H 	0.58690 0.96960 0.11193 0.12300
C 	C 	0.70147 0.99674 0.10290 -0.06400
H 	H 	0.69230 0.96360 0.12533 0.05300
C 	C 	0.75085 0.02210 0.06335 0.00800
C 	C 	0.78492 0.99995 0.06861 -0.19000
H 	H 	0.77630 0.97070 0.09933 0.11100
C 	C 	0.83098 0.02125 0.02853 0.21300
C 	C 	0.84351 0.06283 0.98102 -0.14700
H 	H 	0.87510 0.07640 0.95303 0.10000
C 	C 	0.80980 0.08384 0.97506 -0.10300
H 	H 	0.81830 0.11210 0.94253 0.06400
C 	C 	0.76284 0.06447 0.01602 0.15800
C 	C 	0.55367 0.96202 0.24283 -0.81600
H 	H 	0.55650 0.93010 0.25453 0.26400
H 	H 	0.52400 0.95180 0.20973 0.25800
H 	H 	0.54650 0.97650 0.28523 0.25500
C 	C 	0.65405 0.02346 0.26073 -0.75800
H 	H 	0.68740 0.05160 0.23883 0.24600
H 	H 	0.65830 0.99250 0.27293 0.24200
H 	H 	0.64670 0.03800 0.30283 0.25500
Mn	Mn	0.23583 0.25612 0.74744 1.30600
Mn	Mn	0.24484 0.97905 0.51823 1.30200
Fe	Fe	0.35621 0.17894 0.63217 1.16200
Br	Br	0.97321 0.07306 0.90537 -0.21900
Br	Br	0.32761 0.54227 0.69742 -0.21500
Br	Br	0.97680 0.89987 0.37697 -0.21100
Br	Br	0.33805 0.78580 0.55784 -0.21000
N 	N 	0.22859 0.20711 0.82834 -0.20800
N 	N 	0.31024 0.31319 0.77852 -0.21500
N 	N 	0.23533 0.01943 0.43800 -0.21000
N 	N 	0.32017 0.99870 0.48761 -0.22800
N 	N 	0.27559 0.21508 0.68600 -0.16000
N 	N 	0.28213 0.06051 0.57963 -0.15300
N 	N 	0.44523 0.15450 0.58521 -0.05800
N 	N 	0.44192 0.29385 0.67852 -0.06000
N 	N 	0.36781 0.13131 0.77302 -0.15400
N 	N 	0.36126 0.23545 0.49117 -0.15300
O 	O 	0.16384 0.20792 0.72133 -0.41300
O 	O 	0.23986 0.30229 0.67365 -0.42700
O 	O 	0.17417 0.95517 0.54800 -0.42300
O 	O 	0.25026 0.93725 0.59104 -0.43000
C 	C 	0.30281 0.19894 0.66510 -0.18600
C 	C 	0.30650 0.10425 0.59973 -0.18400
C 	C 	0.41257 0.16458 0.60194 -0.21300
C 	C 	0.41022 0.25089 0.66245 -0.21300
C 	C 	0.36115 0.14955 0.72295 -0.19200
C 	C 	0.35726 0.21187 0.54144 -0.19200
C 	C 	0.12346 0.18266 0.76608 0.17500
C 	C 	0.07147 0.17120 0.74618 -0.08800
H 	H 	0.06670 0.18510 0.70347 0.07800
C 	C 	0.02729 0.14009 0.78770 -0.09100
H 	H 	0.99230 0.13270 0.77397 0.10300
C 	C 	0.03454 0.11948 0.85046 0.13900
C 	C 	0.08446 0.13145 0.87279 -0.09200
H 	H 	0.08860 0.11780 0.91607 0.10100
C 	C 	0.13027 0.16435 0.83145 -0.05100
C 	C 	0.18216 0.17427 0.85552 0.01200
H 	H 	0.18230 0.15470 0.89547 0.04800
C 	C 	0.27619 0.20670 0.85776 -0.31100
H 	H 	0.28970 0.19050 0.82327 0.11300
H 	H 	0.26480 0.18340 0.89957 0.12500
C 	C 	0.32277 0.26296 0.87788 0.43900
C 	C 	0.34718 0.29838 0.81281 -0.31000
H 	H 	0.38060 0.33180 0.82627 0.12000
H 	H 	0.35730 0.27870 0.77907 0.10800
C 	C 	0.32612 0.36382 0.77132 0.00300
H 	H 	0.35780 0.38870 0.79597 0.03000
C 	C 	0.30026 0.38633 0.72929 -0.08000
C 	C 	0.32107 0.44252 0.73297 -0.08900
H 	H 	0.34910 0.46390 0.76507 0.07700
C 	C 	0.30060 0.46631 0.68987 0.11300
C 	C 	0.26137 0.43661 0.64085 -0.07600
H 	H 	0.24840 0.45400 0.61067 0.07500
C 	C 	0.24126 0.38163 0.63615 -0.12200
H 	H 	0.21450 0.36130 0.60217 0.07200
C 	C 	0.25959 0.35495 0.68068 0.16900
C 	C 	0.36682 0.25381 0.90947 -0.76900
H 	H 	0.39930 0.28880 0.91817 0.24700
H 	H 	0.37550 0.23280 0.87697 0.24700
H 	H 	0.35380 0.23400 0.95337 0.24300
C 	C 	0.30375 0.29051 0.92963 -0.77400
H 	H 	0.27270 0.29180 0.91027 0.24800
H 	H 	0.33320 0.32740 0.93857 0.25000
H 	H 	0.29320 0.27010 0.97327 0.24600
C 	C 	0.13227 0.94066 0.50536 0.18100
C 	C 	0.08015 0.90262 0.53089 -0.09300
H 	H 	0.07670 0.88580 0.57467 0.08100
C 	C 	0.03457 0.89011 0.49237 -0.09300
H 	H 	0.99980 0.86440 0.50927 0.10500
C 	C 	0.03986 0.91538 0.42870 0.13200
C 	C 	0.08958 0.95136 0.40299 -0.07900
H 	H 	0.09240 0.96790 0.35917 0.09400
C 	C 	0.13679 0.96427 0.44057 -0.08200
C 	C 	0.18839 0.00565 0.41268 0.04500
H 	H 	0.18740 0.02420 0.37217 0.04400
C 	C 	0.28181 0.06762 0.40767 -0.29300
H 	H 	0.29460 0.09770 0.44147 0.10800
H 	H 	0.26960 0.07840 0.36547 0.12200
C 	C 	0.32926 0.05961 0.38802 0.40500
C 	C 	0.35513 0.05047 0.45227 -0.28200
H 	H 	0.38910 0.05170 0.43827 0.11700
H 	H 	0.36460 0.08040 0.48557 0.10200
C 	C 	0.33872 0.96645 0.49623 0.00700
H 	H 	0.37260 0.97630 0.47537 0.02200
C 	C 	0.31255 0.91650 0.53500 -0.08100
C 	C 	0.33332 0.88088 0.52963 -0.09100
H 	H 	0.36240 0.88900 0.49877 0.07700
C 	C 	0.31149 0.83470 0.56909 0.11600
C 	C 	0.26982 0.82235 0.61531 -0.07600
H 	H 	0.25520 0.79010 0.64217 0.07900
C 	C 	0.24944 0.85692 0.62230 -0.12000
H 	H 	0.22120 0.84860 0.65467 0.07200
C 	C 	0.26992 0.90399 0.58212 0.16600
C 	C 	0.37236 0.11291 0.35437 -0.74300
H 	H 	0.35750 0.11980 0.31217 0.24200
H 	H 	0.40420 0.11010 0.34227 0.24500
H 	H 	0.38280 0.14270 0.38727 0.24100
C 	C 	0.31097 0.01200 0.33714 -0.69100
H 	H 	0.28340 0.97860 0.35947 0.21200
H 	H 	0.34210 0.00820 0.32427 0.24000
H 	H 	0.29570 0.01880 0.29527 0.23600
Mn	Mn	0.07374 0.42799 0.84683 1.30600
Mn	Mn	0.35365 0.42469 0.07599 1.30700
Fe	Fe	0.15331 0.31050 0.96503 1.16000
Br	Br	0.25974 0.69233 0.69422 -0.22800
Br	Br	0.78586 0.33160 0.89316 -0.22200
Br	Br	0.43421 0.69107 0.22284 -0.22500
Br	Br	0.54988 0.33622 0.03264 -0.19900
N 	N 	0.12342 0.43577 0.76620 -0.20600
N 	N 	0.01727 0.35346 0.81556 -0.22400
N 	N 	0.31321 0.43355 0.15653 -0.20900
N 	N 	0.33500 0.34979 0.10642 -0.21400
N 	N 	0.17879 0.22254 0.01375 -0.03300
N 	N 	0.27208 0.38687 0.01517 -0.13400
N 	N 	0.11505 0.38877 0.90884 -0.16100
N 	N 	0.03828 0.22325 0.92111 -0.06600
N 	N 	0.09772 0.30658 0.10662 -0.15600
N 	N 	0.20099 0.29811 0.82461 -0.15500
O 	O 	0.12186 0.49947 0.87390 -0.42200
O 	O 	0.02665 0.42383 0.91940 -0.44700
O 	O 	0.37819 0.49615 0.04752 -0.41100
O 	O 	0.39466 0.41944 0.00188 -0.42100
C 	C 	0.16813 0.25507 0.99693 -0.25100
C 	C 	0.22829 0.36142 0.99585 -0.21900
C 	C 	0.13214 0.36227 0.93034 -0.19700
C 	C 	0.08140 0.25564 0.93625 -0.22100
C 	C 	0.12097 0.31014 0.05632 -0.16600
C 	C 	0.18260 0.30441 0.87443 -0.18900
C 	C 	0.14759 0.54034 0.83063 0.18500
C 	C 	0.16090 0.59297 0.85176 -0.10800
H 	H 	0.14790 0.59790 0.89507 0.08400
C 	C 	0.19221 0.63685 0.81087 -0.05600
H 	H 	0.20010 0.67190 0.82537 0.07900
C 	C 	0.21253 0.63049 0.74802 0.14000
C 	C 	0.19984 0.58066 0.72465 -0.09100
H 	H 	0.21340 0.57670 0.68127 0.10800
C 	C 	0.16636 0.53479 0.76516 -0.05400
C 	C 	0.15618 0.48240 0.73957 0.01100
H 	H 	0.17570 0.48270 0.69937 0.05100
C 	C 	0.12425 0.38831 0.73692 -0.31900
H 	H 	0.14030 0.37480 0.77167 0.11500
H 	H 	0.14780 0.39980 0.69527 0.12900
C 	C 	0.06832 0.34212 0.71667 0.45000
C 	C 	0.03288 0.31723 0.78063 -0.34800
H 	H 	0.99970 0.28370 0.76657 0.14500
H 	H 	0.05250 0.30700 0.81437 0.11700
C 	C 	0.96658 0.33673 0.82224 0.03300
H 	H 	0.94230 0.30480 0.79767 0.02500
C 	C 	0.94300 0.36202 0.86372 -0.09400
C 	C 	0.88679 0.34017 0.85930 -0.07600
H 	H 	0.86600 0.31190 0.82727 0.07400
C 	C 	0.86207 0.36022 0.90198 0.10300
C 	C 	0.89156 0.40054 0.94963 -0.06300
H 	H 	0.87390 0.41370 0.97897 0.06600
C 	C 	0.94650 0.42169 0.95481 -0.14000
H 	H 	0.96640 0.44920 0.98817 0.07800
C 	C 	0.97396 0.40354 0.91177 0.20100
C 	C 	0.07784 0.29809 0.68437 -0.76900
H 	H 	0.09990 0.31230 0.64227 0.24600
H 	H 	0.04300 0.26650 0.67237 0.24600
H 	H 	0.09670 0.28750 0.71797 0.24600
C 	C 	0.04035 0.36062 0.66467 -0.78100
H 	H 	0.03710 0.39040 0.68487 0.24800
H 	H 	0.00430 0.33040 0.65397 0.25200
H 	H 	0.06180 0.37300 0.62187 0.25400
C 	C 	0.39243 0.53718 0.09028 0.18900
C 	C 	0.43211 0.58950 0.06797 -0.10600
H 	H 	0.45030 0.59350 0.02507 0.09700
C 	C 	0.44477 0.63431 0.10687 -0.05200
H 	H 	0.47130 0.66910 0.09087 0.08400
C 	C 	0.41844 0.62867 0.17017 0.13900
C 	C 	0.38130 0.57868 0.19517 -0.08500
H 	H 	0.36420 0.57550 0.23877 0.10500
C 	C 	0.36845 0.53188 0.15601 -0.05800
C 	C 	0.32689 0.48056 0.18278 0.01600
H 	H 	0.30790 0.48120 0.22307 0.04900
C 	C 	0.26518 0.38678 0.18708 -0.31500
H 	H 	0.23490 0.37390 0.15357 0.11700
H 	H 	0.25450 0.39880 0.22957 0.12600
C 	C 	0.27365 0.33929 0.20623 0.44900
C 	C 	0.28320 0.31395 0.14155 -0.32200
H 	H 	0.28240 0.28010 0.15527 0.12600
H 	H 	0.25330 0.30430 0.10827 0.11600
C 	C 	0.36802 0.33189 0.09742 0.00600
H 	H 	0.35910 0.29840 0.11877 0.03200
C 	C 	0.41765 0.35865 0.05750 -0.07800
C 	C 	0.45351 0.33842 0.06294 -0.09400
H 	H 	0.44600 0.30960 0.09407 0.08200
C 	C 	0.49961 0.36101 0.02253 0.14500
C 	C 	0.51037 0.40165 0.97510 -0.10500
H 	H 	0.54220 0.41630 0.94737 0.08000
C 	C 	0.47510 0.42077 0.96821 -0.14400
H 	H 	0.48220 0.44800 0.93477 0.07600
C 	C 	0.42840 0.40057 0.01018 0.19400
C 	C 	0.22066 0.29621 0.23923 -0.78500
H 	H 	0.22430 0.26520 0.25357 0.25600
H 	H 	0.19130 0.28440 0.20537 0.25400
H 	H 	0.21260 0.31150 0.28007 0.25200
C 	C 	0.32088 0.35761 0.25732 -0.78100
H 	H 	0.32520 0.32670 0.26987 0.25900
H 	H 	0.31350 0.37230 0.29937 0.25500
H 	H 	0.35420 0.38560 0.23547 0.25100
Mn	Mn	0.74388 0.97971 0.41410 1.30100
Mn	Mn	0.02095 0.26579 0.18489 1.30300
Fe	Fe	0.82106 0.17727 0.29883 1.16200
Br	Br	0.92694 0.90015 0.57204 -0.22300
Br	Br	0.45773 0.78534 0.36409 -0.21400
Br	Br	0.10013 0.07693 0.04363 -0.20500
Br	Br	0.21420 0.55224 0.22451 -0.20700
N 	N 	0.79289 0.02148 0.49500 -0.20900
N 	N 	0.68681 0.99705 0.44518 -0.22700
N 	N 	0.98057 0.21590 0.10466 -0.21600
N 	N 	0.00130 0.32147 0.15427 -0.23400
N 	N 	0.78492 0.06051 0.35266 -0.15400
N 	N 	0.93949 0.22162 0.24629 -0.15300
N 	N 	0.84550 0.29073 0.25187 -0.05700
N 	N 	0.70615 0.14807 0.34518 -0.05900
N 	N 	0.86869 0.23650 0.43968 -0.15500
N 	N 	0.76455 0.12581 0.15783 -0.15100
O 	O 	0.79208 0.95592 0.38799 -0.42100
O 	O 	0.69771 0.93757 0.34031 -0.42900
O 	O 	0.04483 0.21900 0.21466 -0.42400
O 	O 	0.06275 0.31301 0.25770 -0.42900
C 	C 	0.80106 0.10387 0.33176 -0.18300
C 	C 	0.89575 0.20225 0.26639 -0.18200
C 	C 	0.83542 0.24799 0.26860 -0.21300
C 	C 	0.74911 0.15933 0.32911 -0.21300
C 	C 	0.85045 0.21160 0.38961 -0.19100
C 	C 	0.78813 0.14539 0.20810 -0.18900
C 	C 	0.81734 0.94080 0.43274 0.19400
C 	C 	0.82880 0.90027 0.41284 -0.11600
H 	H 	0.81490 0.88160 0.37013 0.09100
C 	C 	0.85991 0.88720 0.45436 -0.04500
H 	H 	0.86730 0.85960 0.44063 0.07700
C 	C 	0.88052 0.91506 0.51712 0.13100
C 	C 	0.86855 0.95301 0.53945 -0.07400
H 	H 	0.88220 0.97080 0.58273 0.09700
C 	C 	0.83565 0.96592 0.49811 -0.08400
C 	C 	0.82573 0.00789 0.52218 0.04700
H 	H 	0.84530 0.02760 0.56213 0.04500
C 	C 	0.79330 0.06949 0.52442 -0.29900
H 	H 	0.80950 0.09920 0.48993 0.11000
H 	H 	0.81660 0.08140 0.56623 0.12500
C 	C 	0.73704 0.05981 0.54454 0.42300
C 	C 	0.70162 0.04880 0.47947 -0.28600
H 	H 	0.66820 0.04880 0.49293 0.11800
H 	H 	0.72130 0.07860 0.44573 0.10300
C 	C 	0.63618 0.96230 0.43798 0.00400
H 	H 	0.61130 0.96910 0.46263 0.02500
C 	C 	0.61367 0.91393 0.39595 -0.08200
C 	C 	0.55748 0.87855 0.39963 -0.08900
H 	H 	0.53610 0.88520 0.43173 0.07700
C 	C 	0.53369 0.83429 0.35653 0.11200
C 	C 	0.56339 0.82476 0.30751 -0.07500
H 	H 	0.54600 0.79440 0.27733 0.07500
C 	C 	0.61837 0.85963 0.30281 -0.12300
H 	H 	0.63870 0.85320 0.26883 0.07300
C 	C 	0.64505 0.90464 0.34734 0.17000
C 	C 	0.74619 0.11301 0.57613 -0.76200
H 	H 	0.71120 0.11050 0.58483 0.25000
H 	H 	0.76720 0.14270 0.54363 0.24600
H 	H 	0.76600 0.11980 0.62003 0.24700
C 	C 	0.70949 0.01324 0.59629 -0.72100
H 	H 	0.70820 0.98090 0.57693 0.22200
H 	H 	0.67260 0.00580 0.60523 0.24800
H 	H 	0.72990 0.02310 0.63993 0.24300
C 	C 	0.05934 0.19161 0.17202 0.19000
C 	C 	0.09738 0.17753 0.19755 -0.11100
H 	H 	0.11420 0.19090 0.24133 0.09000
C 	C 	0.10989 0.14446 0.15903 -0.05200
H 	H 	0.13560 0.13540 0.17593 0.08100
C 	C 	0.08462 0.12448 0.09536 0.13400
C 	C 	0.04864 0.13822 0.06965 -0.07400
H 	H 	0.03210 0.12450 0.02583 0.10400
C 	C 	0.03573 0.17252 0.10723 -0.08300
C 	C 	0.99435 0.18274 0.07934 0.05100
H 	H 	0.97580 0.16320 0.03883 0.05000
C 	C 	0.93238 0.21419 0.07433 -0.24100
H 	H 	0.90230 0.19690 0.10813 0.09600
H 	H 	0.92160 0.19120 0.03213 0.11600
C 	C 	0.94039 0.26965 0.05468 0.29500
C 	C 	0.94953 0.30466 0.11893 -0.22900
H 	H 	0.94830 0.33740 0.10493 0.10700
H 	H 	0.91960 0.28420 0.15223 0.08800
C 	C 	0.03355 0.37227 0.16289 0.01100
H 	H 	0.02370 0.39630 0.14203 0.02500
C 	C 	0.08350 0.39605 0.20166 -0.08000
C 	C 	0.11912 0.45244 0.19629 -0.09000
H 	H 	0.11100 0.47340 0.16543 0.08000
C 	C 	0.16530 0.47679 0.23575 0.11700
C 	C 	0.17765 0.44747 0.28197 -0.07600
H 	H 	0.20990 0.46510 0.30883 0.08000
C 	C 	0.14308 0.39252 0.28896 -0.12000
H 	H 	0.15140 0.37260 0.32133 0.07200
C 	C 	0.09601 0.36593 0.24878 0.16700
C 	C 	0.88709 0.25945 0.02103 -0.57100
H 	H 	0.88020 0.23770 0.97883 0.17400
H 	H 	0.88990 0.29410 0.00893 0.20600
H 	H 	0.85730 0.24010 0.05393 0.19600
C 	C 	0.98800 0.29897 0.00380 -0.43300
H 	H 	0.02140 0.30480 0.02613 0.14500
H 	H 	0.99180 0.33390 0.99093 0.14700
H 	H 	0.98120 0.27690 0.96193 0.14500
Mn	Mn	0.57201 0.64575 0.51349 1.30600
Mn	Mn	0.57531 0.92896 0.74265 1.30600
Fe	Fe	0.68950 0.84281 0.63169 1.16200
Br	Br	0.30767 0.56741 0.36088 -0.22700
Br	Br	0.66840 0.45426 0.55982 -0.21000
Br	Br	0.30893 0.74314 0.88950 -0.24200
Br	Br	0.66378 0.21366 0.69930 -0.21200
N 	N 	0.56423 0.68765 0.43286 -0.20600
N 	N 	0.64654 0.66381 0.48222 -0.21500
N 	N 	0.56645 0.87966 0.82319 -0.21100
N 	N 	0.65021 0.98521 0.77308 -0.22600
N 	N 	0.77746 0.95625 0.68041 -0.06400
N 	N 	0.61313 0.88521 0.68183 -0.16000
N 	N 	0.61123 0.72628 0.57550 -0.16000
N 	N 	0.77675 0.81503 0.58777 -0.06000
N 	N 	0.69342 0.79114 0.77328 -0.15400
N 	N 	0.70189 0.90288 0.49127 -0.15500
O 	O 	0.50053 0.62239 0.54056 -0.41800
O 	O 	0.57617 0.60282 0.58606 -0.42800
O 	O 	0.50385 0.88204 0.71418 -0.41900
O 	O 	0.58056 0.97522 0.66854 -0.44700
C 	C 	0.74493 0.91306 0.66359 -0.21900
C 	C 	0.63858 0.86687 0.66251 -0.18600
C 	C 	0.63773 0.76987 0.59700 -0.19100
C 	C 	0.74436 0.82576 0.60291 -0.21400
C 	C 	0.68986 0.81083 0.72298 -0.19100
C 	C 	0.69559 0.87819 0.54109 -0.19100
C 	C 	0.45966 0.60725 0.49729 0.18700
C 	C 	0.40703 0.56793 0.51842 -0.10800
H 	H 	0.40210 0.55000 0.56173 0.08900
C 	C 	0.36315 0.55536 0.47753 -0.05400
H 	H 	0.32810 0.52820 0.49203 0.08000
C 	C 	0.36951 0.58204 0.41468 0.14000
C 	C 	0.41934 0.61918 0.39131 -0.09000
H 	H 	0.42330 0.63670 0.34793 0.10700
C 	C 	0.46521 0.63157 0.43182 -0.05400
C 	C 	0.51760 0.67378 0.40623 0.01200
H 	H 	0.51730 0.69300 0.36603 0.05200
C 	C 	0.61169 0.73594 0.40358 -0.31800
H 	H 	0.62520 0.76550 0.43833 0.11500
H 	H 	0.60020 0.74800 0.36193 0.12900
C 	C 	0.65788 0.72620 0.38333 0.44700
C 	C 	0.68277 0.71565 0.44729 -0.31900
H 	H 	0.71630 0.71600 0.43323 0.12300
H 	H 	0.69300 0.74550 0.48103 0.11000
C 	C 	0.66327 0.62985 0.48890 0.00500
H 	H 	0.69520 0.63750 0.46433 0.03100
C 	C 	0.63798 0.58098 0.53038 -0.07900
C 	C 	0.65983 0.54662 0.52596 -0.08800
H 	H 	0.68810 0.55410 0.49393 0.07800
C 	C 	0.63978 0.50185 0.56864 0.11300
C 	C 	0.59946 0.49102 0.61629 -0.07500
H 	H 	0.58630 0.46020 0.64563 0.07700
C 	C 	0.57831 0.52481 0.62147 -0.12200
H 	H 	0.55080 0.51720 0.65483 0.07300
C 	C 	0.59646 0.57042 0.57843 0.17000
C 	C 	0.70191 0.77975 0.35103 -0.77100
H 	H 	0.68770 0.78760 0.30893 0.24900
H 	H 	0.73350 0.77650 0.33903 0.25300
H 	H 	0.71250 0.80920 0.38463 0.24800
C 	C 	0.63938 0.67973 0.33133 -0.78600
H 	H 	0.60960 0.64670 0.35153 0.25300
H 	H 	0.66960 0.67390 0.32063 0.26100
H 	H 	0.62700 0.68880 0.28853 0.25800
C 	C 	0.46282 0.85525 0.75694 0.18800
C 	C 	0.41050 0.84261 0.73463 -0.10900
H 	H 	0.40650 0.85680 0.69173 0.08800
C 	C 	0.36569 0.81046 0.77353 -0.05300
H 	H 	0.33090 0.80220 0.75753 0.07900
C 	C 	0.37133 0.78977 0.83683 0.13600
C 	C 	0.42132 0.80262 0.86183 -0.08400
H 	H 	0.42450 0.78870 0.90543 0.09700
C 	C 	0.46812 0.83657 0.82267 -0.06200
C 	C 	0.51944 0.84633 0.84944 0.01600
H 	H 	0.51880 0.82670 0.88973 0.04400
C 	C 	0.61322 0.87840 0.85374 -0.30800
H 	H 	0.62610 0.86100 0.82023 0.11200
H 	H 	0.60120 0.85570 0.89623 0.12200
C 	C 	0.66071 0.93436 0.87289 0.43700
C 	C 	0.68605 0.96925 0.80821 -0.34600
H 	H 	0.71990 0.00230 0.82193 0.14400
H 	H 	0.69570 0.94900 0.77493 0.11500
C 	C 	0.66811 0.03613 0.76408 0.03200
H 	H 	0.70160 0.06070 0.78543 0.02200
C 	C 	0.64135 0.05900 0.72416 -0.09600
C 	C 	0.66158 0.11509 0.72960 -0.07700
H 	H 	0.69040 0.13640 0.76073 0.07300
C 	C 	0.63899 0.13860 0.68919 0.10700
C 	C 	0.59835 0.10872 0.64176 -0.06200
H 	H 	0.58370 0.12590 0.61403 0.07300
C 	C 	0.57923 0.05433 0.63487 -0.13600
H 	H 	0.55200 0.03420 0.60143 0.08400
C 	C 	0.59943 0.02783 0.67684 0.19800
C 	C 	0.70379 0.92445 0.90589 -0.76300
H 	H 	0.73480 0.95910 0.92023 0.24000
H 	H 	0.71560 0.90690 0.87203 0.24500
H 	H 	0.68850 0.90110 0.94673 0.24000
C 	C 	0.64239 0.96327 0.92398 -0.75100
H 	H 	0.67330 0.99850 0.93653 0.23600
H 	H 	0.62770 0.94120 0.96603 0.23800
H 	H 	0.61440 0.96860 0.90213 0.23700
