data_crystal

_cell_length_a 18.43350
_cell_length_b 18.43350
_cell_length_c 52.36400
_cell_angle_alpha 90.00000
_cell_angle_beta  90.00000
_cell_angle_gamma 120.00000

_symmetry_space_group_name_	'P 1'
_symmetry_space_group_name_H-M	'P 1'

loop_
_symmetry_equiv_pos_as_xyz
  x,y,z

loop_
_atom_site_label
_atom_site_type_symbol
_atom_site_fract_x
_atom_site_fract_y
_atom_site_fract_z
_atom_site_charge
O 	O 	0.10685 0.74533 0.86641 -0.41100
O 	O 	0.14780 0.70401 0.83170 -0.41000
C 	C 	0.04080 0.57930 0.97382 -0.01300
H 	H 	0.04940 0.62780 0.98320 0.02500
C 	C 	0.06620 0.59000 0.94927 -0.06600
H 	H 	0.10140 0.64490 0.94280 0.04800
C 	C 	0.99530 0.44700 0.94369 -0.04200
H 	H 	0.97680 0.39800 0.93370 0.04100
C 	C 	0.97300 0.53330 0.97000 -0.03700
H 	H 	0.93190 0.54550 0.97630 0.03700
C 	C 	0.07398 0.60176 0.89246 0.01100
H 	H 	0.06500 0.64190 0.90120 0.03800
C 	C 	0.09820 0.61474 0.86693 -0.10800
C 	C 	0.11849 0.69334 0.85402 0.36700
O 	O 	0.77352 0.07866 0.19974 -0.41000
O 	O 	0.81447 0.03734 0.16503 -0.40900
C 	C 	0.70747 0.91263 0.30715 -0.01200
H 	H 	0.71607 0.96113 0.31653 0.02600
C 	C 	0.73287 0.92333 0.28260 -0.06500
H 	H 	0.76807 0.97823 0.27613 0.04900
C 	C 	0.66197 0.78033 0.27702 -0.04100
H 	H 	0.64347 0.73133 0.26703 0.04200
C 	C 	0.63967 0.86663 0.30333 -0.03700
H 	H 	0.59857 0.87883 0.30963 0.03700
C 	C 	0.74065 0.93509 0.22579 0.01100
H 	H 	0.73167 0.97523 0.23453 0.03800
C 	C 	0.76487 0.94807 0.20026 -0.10800
C 	C 	0.78516 0.02667 0.18735 0.36600
O 	O 	0.44018 0.41200 0.53308 -0.41000
O 	O 	0.48113 0.37068 0.49837 -0.40900
C 	C 	0.37413 0.24597 0.64049 -0.01200
H 	H 	0.38273 0.29447 0.64987 0.02600
C 	C 	0.39953 0.25667 0.61594 -0.06500
H 	H 	0.43473 0.31157 0.60947 0.04900
C 	C 	0.32863 0.11367 0.61036 -0.04200
H 	H 	0.31013 0.06467 0.60037 0.04200
C 	C 	0.30633 0.19997 0.63667 -0.03700
H 	H 	0.26523 0.21217 0.64297 0.03700
C 	C 	0.40731 0.26843 0.55913 0.01100
H 	H 	0.39833 0.30857 0.56787 0.03800
C 	C 	0.43153 0.28141 0.53360 -0.10800
C 	C 	0.45182 0.36001 0.52069 0.36700
O 	O 	0.25467 0.36152 0.86641 -0.41000
O 	O 	0.29599 0.44379 0.83170 -0.40900
C 	C 	0.42070 0.46150 0.97382 -0.01200
H 	H 	0.37220 0.42160 0.98320 0.02600
C 	C 	0.41000 0.47620 0.94927 -0.06500
H 	H 	0.35510 0.45650 0.94280 0.04900
C 	C 	0.55300 0.54830 0.94369 -0.04100
H 	H 	0.60200 0.57880 0.93370 0.04200
C 	C 	0.46670 0.43970 0.97000 -0.03700
H 	H 	0.45450 0.38640 0.97630 0.03700
C 	C 	0.39824 0.47222 0.89246 0.01100
H 	H 	0.35810 0.42310 0.90120 0.03800
C 	C 	0.38526 0.48346 0.86693 -0.10800
C 	C 	0.30666 0.42515 0.85402 0.36700
O 	O 	0.92134 0.69485 0.19974 -0.41000
O 	O 	0.96266 0.77712 0.16503 -0.40900
C 	C 	0.08737 0.79483 0.30715 -0.01200
H 	H 	0.03887 0.75493 0.31653 0.02600
C 	C 	0.07667 0.80953 0.28260 -0.06500
H 	H 	0.02177 0.78983 0.27613 0.04900
C 	C 	0.21967 0.88163 0.27702 -0.04100
H 	H 	0.26867 0.91213 0.26703 0.04200
C 	C 	0.13337 0.77303 0.30333 -0.03700
H 	H 	0.12117 0.71973 0.30963 0.03700
C 	C 	0.06491 0.80555 0.22579 0.01100
H 	H 	0.02477 0.75643 0.23453 0.03800
C 	C 	0.05193 0.81679 0.20026 -0.10800
C 	C 	0.97333 0.75848 0.18735 0.36600
O 	O 	0.58800 0.02819 0.53308 -0.41000
O 	O 	0.62932 0.11046 0.49837 -0.40900
C 	C 	0.75403 0.12817 0.64049 -0.01200
H 	H 	0.70553 0.08827 0.64987 0.02600
C 	C 	0.74333 0.14287 0.61594 -0.06500
H 	H 	0.68843 0.12317 0.60947 0.04900
C 	C 	0.88633 0.21497 0.61036 -0.04100
H 	H 	0.93533 0.24547 0.60037 0.04200
C 	C 	0.80003 0.10637 0.63667 -0.03700
H 	H 	0.78783 0.05307 0.64297 0.03700
C 	C 	0.73157 0.13889 0.55913 0.01100
H 	H 	0.69143 0.08977 0.56787 0.03800
C 	C 	0.71859 0.15013 0.53360 -0.10800
C 	C 	0.63999 0.09182 0.52069 0.36700
O 	O 	0.63848 0.89315 0.86641 -0.41000
O 	O 	0.55621 0.85220 0.83170 -0.40900
C 	C 	0.53850 0.95920 0.97382 -0.01200
H 	H 	0.57840 0.95060 0.98320 0.02600
C 	C 	0.52380 0.93380 0.94927 -0.06500
H 	H 	0.54350 0.89860 0.94280 0.04900
C 	C 	0.45170 0.00470 0.94369 -0.04100
H 	H 	0.42120 0.02320 0.93370 0.04200
C 	C 	0.56030 0.02700 0.97000 -0.03700
H 	H 	0.61360 0.06810 0.97630 0.03700
C 	C 	0.52778 0.92602 0.89246 0.01100
H 	H 	0.57690 0.93500 0.90120 0.03800
C 	C 	0.51654 0.90180 0.86693 -0.10800
C 	C 	0.57485 0.88151 0.85402 0.36700
O 	O 	0.30515 0.22648 0.19974 -0.41000
O 	O 	0.22288 0.18553 0.16503 -0.40900
C 	C 	0.20517 0.29253 0.30715 -0.01200
H 	H 	0.24507 0.28393 0.31653 0.02600
C 	C 	0.19047 0.26713 0.28260 -0.06500
H 	H 	0.21017 0.23193 0.27613 0.04900
C 	C 	0.11837 0.33803 0.27702 -0.04100
H 	H 	0.08787 0.35653 0.26703 0.04200
C 	C 	0.22697 0.36033 0.30333 -0.03700
H 	H 	0.28027 0.40143 0.30963 0.03700
C 	C 	0.19445 0.25935 0.22579 0.01100
H 	H 	0.24357 0.26833 0.23453 0.03800
C 	C 	0.18321 0.23513 0.20026 -0.10800
C 	C 	0.24152 0.21484 0.18735 0.36700
O 	O 	0.97181 0.55982 0.53308 -0.41000
O 	O 	0.88954 0.51887 0.49837 -0.40900
C 	C 	0.87183 0.62587 0.64049 -0.01200
H 	H 	0.91173 0.61727 0.64987 0.02600
C 	C 	0.85713 0.60047 0.61594 -0.06500
H 	H 	0.87683 0.56527 0.60947 0.04900
C 	C 	0.78503 0.67137 0.61036 -0.04100
H 	H 	0.75453 0.68987 0.60037 0.04200
C 	C 	0.89363 0.69367 0.63667 -0.03700
H 	H 	0.94693 0.73477 0.64297 0.03700
C 	C 	0.86111 0.59269 0.55913 0.01100
H 	H 	0.91023 0.60167 0.56787 0.03800
C 	C 	0.84987 0.56847 0.53360 -0.10800
C 	C 	0.90818 0.54818 0.52069 0.36700
O 	O 	0.74533 0.10685 0.13359 -0.41000
O 	O 	0.70401 0.14780 0.16830 -0.40900
C 	C 	0.57930 0.04080 0.02618 -0.01200
H 	H 	0.62780 0.04940 0.01680 0.02600
C 	C 	0.59000 0.06620 0.05073 -0.06500
H 	H 	0.64490 0.10140 0.05720 0.04900
C 	C 	0.44700 0.99530 0.05631 -0.04100
H 	H 	0.39800 0.97680 0.06630 0.04200
C 	C 	0.53330 0.97300 0.03000 -0.03700
H 	H 	0.54550 0.93190 0.02370 0.03700
C 	C 	0.60176 0.07398 0.10754 0.01100
H 	H 	0.64190 0.06500 0.09880 0.03800
C 	C 	0.61474 0.09820 0.13307 -0.10800
C 	C 	0.69334 0.11849 0.14598 0.36700
O 	O 	0.41200 0.44018 0.46692 -0.41000
O 	O 	0.37068 0.48113 0.50163 -0.40900
C 	C 	0.24597 0.37413 0.35951 -0.01200
H 	H 	0.29447 0.38273 0.35013 0.02600
C 	C 	0.25667 0.39953 0.38406 -0.06500
H 	H 	0.31157 0.43473 0.39053 0.04900
C 	C 	0.11367 0.32863 0.38964 -0.04200
H 	H 	0.06467 0.31013 0.39963 0.04200
C 	C 	0.19997 0.30633 0.36333 -0.03700
H 	H 	0.21217 0.26523 0.35703 0.03700
C 	C 	0.26843 0.40731 0.44087 0.01100
H 	H 	0.30857 0.39833 0.43213 0.03800
C 	C 	0.28141 0.43153 0.46640 -0.10800
C 	C 	0.36001 0.45182 0.47931 0.36700
O 	O 	0.07866 0.77352 0.80026 -0.41000
O 	O 	0.03734 0.81447 0.83497 -0.40900
C 	C 	0.91263 0.70747 0.69285 -0.01200
H 	H 	0.96113 0.71607 0.68347 0.02600
C 	C 	0.92333 0.73287 0.71740 -0.06500
H 	H 	0.97823 0.76807 0.72387 0.04900
C 	C 	0.78033 0.66197 0.72298 -0.04100
H 	H 	0.73133 0.64347 0.73297 0.04200
C 	C 	0.86663 0.63967 0.69667 -0.03700
H 	H 	0.87883 0.59857 0.69037 0.03700
C 	C 	0.93509 0.74065 0.77421 0.01100
H 	H 	0.97523 0.73167 0.76547 0.03800
C 	C 	0.94807 0.76487 0.79974 -0.10800
C 	C 	0.02667 0.78516 0.81265 0.36600
O 	O 	0.36152 0.25467 0.13359 -0.41000
O 	O 	0.44379 0.29599 0.16830 -0.40900
C 	C 	0.46150 0.42070 0.02618 -0.01200
H 	H 	0.42160 0.37220 0.01680 0.02600
C 	C 	0.47620 0.41000 0.05073 -0.06500
H 	H 	0.45650 0.35510 0.05720 0.04900
C 	C 	0.54830 0.55300 0.05631 -0.04100
H 	H 	0.57880 0.60200 0.06630 0.04200
C 	C 	0.43970 0.46670 0.03000 -0.03700
H 	H 	0.38640 0.45450 0.02370 0.03700
C 	C 	0.47222 0.39824 0.10754 0.01100
H 	H 	0.42310 0.35810 0.09880 0.03800
C 	C 	0.48346 0.38526 0.13307 -0.10800
C 	C 	0.42515 0.30666 0.14598 0.36700
O 	O 	0.02819 0.58800 0.46692 -0.41000
O 	O 	0.11046 0.62932 0.50163 -0.40900
C 	C 	0.12817 0.75403 0.35951 -0.01200
H 	H 	0.08827 0.70553 0.35013 0.02600
C 	C 	0.14287 0.74333 0.38406 -0.06500
H 	H 	0.12317 0.68843 0.39053 0.04900
C 	C 	0.21497 0.88633 0.38964 -0.04100
H 	H 	0.24547 0.93533 0.39963 0.04200
C 	C 	0.10637 0.80003 0.36333 -0.03700
H 	H 	0.05307 0.78783 0.35703 0.03700
C 	C 	0.13889 0.73157 0.44087 0.01100
H 	H 	0.08977 0.69143 0.43213 0.03800
C 	C 	0.15013 0.71859 0.46640 -0.10800
C 	C 	0.09182 0.63999 0.47931 0.36700
O 	O 	0.69485 0.92134 0.80026 -0.41000
O 	O 	0.77712 0.96266 0.83497 -0.40900
C 	C 	0.79483 0.08737 0.69285 -0.01200
H 	H 	0.75493 0.03887 0.68347 0.02600
C 	C 	0.80953 0.07667 0.71740 -0.06500
H 	H 	0.78983 0.02177 0.72387 0.04900
C 	C 	0.88163 0.21967 0.72298 -0.04100
H 	H 	0.91213 0.26867 0.73297 0.04200
C 	C 	0.77303 0.13337 0.69667 -0.03700
H 	H 	0.71973 0.12117 0.69037 0.03700
C 	C 	0.80555 0.06491 0.77421 0.01100
H 	H 	0.75643 0.02477 0.76547 0.03800
C 	C 	0.81679 0.05193 0.79974 -0.10800
C 	C 	0.75848 0.97333 0.81265 0.36600
O 	O 	0.89315 0.63848 0.13359 -0.41000
O 	O 	0.85220 0.55621 0.16830 -0.40900
C 	C 	0.95920 0.53850 0.02618 -0.01200
H 	H 	0.95060 0.57840 0.01680 0.02600
C 	C 	0.93380 0.52380 0.05073 -0.06500
H 	H 	0.89860 0.54350 0.05720 0.04900
C 	C 	0.00470 0.45170 0.05631 -0.04100
H 	H 	0.02320 0.42120 0.06630 0.04200
C 	C 	0.02700 0.56030 0.03000 -0.03700
H 	H 	0.06810 0.61360 0.02370 0.03700
C 	C 	0.92602 0.52778 0.10754 0.01100
H 	H 	0.93500 0.57690 0.09880 0.03800
C 	C 	0.90180 0.51654 0.13307 -0.10800
C 	C 	0.88151 0.57485 0.14598 0.36700
O 	O 	0.55982 0.97181 0.46692 -0.41000
O 	O 	0.51887 0.88954 0.50163 -0.40900
C 	C 	0.62587 0.87183 0.35951 -0.01200
H 	H 	0.61727 0.91173 0.35013 0.02600
C 	C 	0.60047 0.85713 0.38406 -0.06500
H 	H 	0.56527 0.87683 0.39053 0.04900
C 	C 	0.67137 0.78503 0.38964 -0.04100
H 	H 	0.68987 0.75453 0.39963 0.04200
C 	C 	0.69367 0.89363 0.36333 -0.03700
H 	H 	0.73477 0.94693 0.35703 0.03700
C 	C 	0.59269 0.86111 0.44087 0.01100
H 	H 	0.60167 0.91023 0.43213 0.03800
C 	C 	0.56847 0.84987 0.46640 -0.10800
C 	C 	0.54818 0.90818 0.47931 0.36700
O 	O 	0.22648 0.30515 0.80026 -0.41000
O 	O 	0.18553 0.22288 0.83497 -0.40900
C 	C 	0.29253 0.20517 0.69285 -0.01200
H 	H 	0.28393 0.24507 0.68347 0.02600
C 	C 	0.26713 0.19047 0.71740 -0.06500
H 	H 	0.23193 0.21017 0.72387 0.04900
C 	C 	0.33803 0.11837 0.72298 -0.04100
H 	H 	0.35653 0.08787 0.73297 0.04200
C 	C 	0.36033 0.22697 0.69667 -0.03700
H 	H 	0.40143 0.28027 0.69037 0.03700
C 	C 	0.25935 0.19445 0.77421 0.01100
H 	H 	0.26833 0.24357 0.76547 0.03800
C 	C 	0.23513 0.18321 0.79974 -0.10800
C 	C 	0.21484 0.24152 0.81265 0.36700
O 	O 	0.89315 0.25467 0.13359 -0.41000
O 	O 	0.85220 0.29599 0.16830 -0.40900
C 	C 	0.95920 0.42070 0.02618 -0.01200
H 	H 	0.95060 0.37220 0.01680 0.02600
C 	C 	0.93380 0.41000 0.05073 -0.06500
H 	H 	0.89860 0.35510 0.05720 0.04900
C 	C 	0.00470 0.55300 0.05631 -0.04100
H 	H 	0.02320 0.60200 0.06630 0.04200
C 	C 	0.02700 0.46670 0.03000 -0.03700
H 	H 	0.06810 0.45450 0.02370 0.03700
C 	C 	0.92602 0.39824 0.10754 0.01100
H 	H 	0.93500 0.35810 0.09880 0.03800
C 	C 	0.90180 0.38526 0.13307 -0.10800
C 	C 	0.88151 0.30666 0.14598 0.36700
O 	O 	0.55982 0.58800 0.46692 -0.41000
O 	O 	0.51887 0.62932 0.50163 -0.40900
C 	C 	0.62587 0.75403 0.35951 -0.01200
H 	H 	0.61727 0.70553 0.35013 0.02600
C 	C 	0.60047 0.74333 0.38406 -0.06500
H 	H 	0.56527 0.68843 0.39053 0.04900
C 	C 	0.67137 0.88633 0.38964 -0.04200
H 	H 	0.68987 0.93533 0.39963 0.04200
C 	C 	0.69367 0.80003 0.36333 -0.03700
H 	H 	0.73477 0.78783 0.35703 0.03700
C 	C 	0.59269 0.73157 0.44087 0.01100
H 	H 	0.60167 0.69143 0.43213 0.03800
C 	C 	0.56847 0.71859 0.46640 -0.10800
C 	C 	0.54818 0.63999 0.47931 0.36700
O 	O 	0.22648 0.92134 0.80026 -0.41000
O 	O 	0.18553 0.96266 0.83497 -0.40900
C 	C 	0.29253 0.08737 0.69285 -0.01200
H 	H 	0.28393 0.03887 0.68347 0.02600
C 	C 	0.26713 0.07667 0.71740 -0.06500
H 	H 	0.23193 0.02177 0.72387 0.04900
C 	C 	0.33803 0.21967 0.72298 -0.04100
H 	H 	0.35653 0.26867 0.73297 0.04200
C 	C 	0.36033 0.13337 0.69667 -0.03700
H 	H 	0.40143 0.12117 0.69037 0.03700
C 	C 	0.25935 0.06491 0.77421 0.01100
H 	H 	0.26833 0.02477 0.76547 0.03800
C 	C 	0.23513 0.05193 0.79974 -0.10800
C 	C 	0.21484 0.97333 0.81265 0.36600
O 	O 	0.74533 0.63848 0.13359 -0.41000
O 	O 	0.70401 0.55621 0.16830 -0.40900
C 	C 	0.57930 0.53850 0.02618 -0.01200
H 	H 	0.62780 0.57840 0.01680 0.02600
C 	C 	0.59000 0.52380 0.05073 -0.06500
H 	H 	0.64490 0.54350 0.05720 0.04900
C 	C 	0.44700 0.45170 0.05631 -0.04100
H 	H 	0.39800 0.42120 0.06630 0.04200
C 	C 	0.53330 0.56030 0.03000 -0.03700
H 	H 	0.54550 0.61360 0.02370 0.03700
C 	C 	0.60176 0.52778 0.10754 0.01100
H 	H 	0.64190 0.57690 0.09880 0.03800
C 	C 	0.61474 0.51654 0.13307 -0.10800
C 	C 	0.69334 0.57485 0.14598 0.36700
O 	O 	0.41200 0.97181 0.46692 -0.41000
O 	O 	0.37068 0.88954 0.50163 -0.40900
C 	C 	0.24597 0.87183 0.35951 -0.01200
H 	H 	0.29447 0.91173 0.35013 0.02600
C 	C 	0.25667 0.85713 0.38406 -0.06500
H 	H 	0.31157 0.87683 0.39053 0.04900
C 	C 	0.11367 0.78503 0.38964 -0.04100
H 	H 	0.06467 0.75453 0.39963 0.04200
C 	C 	0.19997 0.89363 0.36333 -0.03700
H 	H 	0.21217 0.94693 0.35703 0.03700
C 	C 	0.26843 0.86111 0.44087 0.01100
H 	H 	0.30857 0.91023 0.43213 0.03800
C 	C 	0.28141 0.84987 0.46640 -0.10800
C 	C 	0.36001 0.90818 0.47931 0.36700
O 	O 	0.07866 0.30515 0.80026 -0.41000
O 	O 	0.03734 0.22288 0.83497 -0.40900
C 	C 	0.91263 0.20517 0.69285 -0.01200
H 	H 	0.96113 0.24507 0.68347 0.02600
C 	C 	0.92333 0.19047 0.71740 -0.06500
H 	H 	0.97823 0.21017 0.72387 0.04900
C 	C 	0.78033 0.11837 0.72298 -0.04100
H 	H 	0.73133 0.08787 0.73297 0.04200
C 	C 	0.86663 0.22697 0.69667 -0.03700
H 	H 	0.87883 0.28027 0.69037 0.03700
C 	C 	0.93509 0.19445 0.77421 0.01100
H 	H 	0.97523 0.24357 0.76547 0.03800
C 	C 	0.94807 0.18321 0.79974 -0.10800
C 	C 	0.02667 0.24152 0.81265 0.36600
O 	O 	0.36152 0.10685 0.13359 -0.41000
O 	O 	0.44379 0.14780 0.16830 -0.40900
C 	C 	0.46150 0.04080 0.02618 -0.01200
H 	H 	0.42160 0.04940 0.01680 0.02600
C 	C 	0.47620 0.06620 0.05073 -0.06500
H 	H 	0.45650 0.10140 0.05720 0.04900
C 	C 	0.54830 0.99530 0.05631 -0.04100
H 	H 	0.57880 0.97680 0.06630 0.04200
C 	C 	0.43970 0.97300 0.03000 -0.03700
H 	H 	0.38640 0.93190 0.02370 0.03700
C 	C 	0.47222 0.07398 0.10754 0.01100
H 	H 	0.42310 0.06500 0.09880 0.03800
C 	C 	0.48346 0.09820 0.13307 -0.10800
C 	C 	0.42515 0.11849 0.14598 0.36700
O 	O 	0.02819 0.44018 0.46692 -0.41000
O 	O 	0.11046 0.48113 0.50163 -0.40900
C 	C 	0.12817 0.37413 0.35951 -0.01200
H 	H 	0.08827 0.38273 0.35013 0.02600
C 	C 	0.14287 0.39953 0.38406 -0.06500
H 	H 	0.12317 0.43473 0.39053 0.04900
C 	C 	0.21497 0.32863 0.38964 -0.04100
H 	H 	0.24547 0.31013 0.39963 0.04200
C 	C 	0.10637 0.30633 0.36333 -0.03700
H 	H 	0.05307 0.26523 0.35703 0.03700
C 	C 	0.13889 0.40731 0.44087 0.01100
H 	H 	0.08977 0.39833 0.43213 0.03800
C 	C 	0.15013 0.43153 0.46640 -0.10800
C 	C 	0.09182 0.45182 0.47931 0.36700
O 	O 	0.69485 0.77352 0.80026 -0.41000
O 	O 	0.77712 0.81447 0.83497 -0.40900
C 	C 	0.79483 0.70747 0.69285 -0.01200
H 	H 	0.75493 0.71607 0.68347 0.02600
C 	C 	0.80953 0.73287 0.71740 -0.06500
H 	H 	0.78983 0.76807 0.72387 0.04900
C 	C 	0.88163 0.66197 0.72298 -0.04100
H 	H 	0.91213 0.64347 0.73297 0.04200
C 	C 	0.77303 0.63967 0.69667 -0.03700
H 	H 	0.71973 0.59857 0.69037 0.03700
C 	C 	0.80555 0.74065 0.77421 0.01100
H 	H 	0.75643 0.73167 0.76547 0.03800
C 	C 	0.81679 0.76487 0.79974 -0.10800
C 	C 	0.75848 0.78516 0.81265 0.36700
O 	O 	0.25467 0.89315 0.86641 -0.41000
O 	O 	0.29599 0.85220 0.83170 -0.40900
C 	C 	0.42070 0.95920 0.97382 -0.01200
H 	H 	0.37220 0.95060 0.98320 0.02600
C 	C 	0.41000 0.93380 0.94927 -0.06500
H 	H 	0.35510 0.89860 0.94280 0.04900
C 	C 	0.55300 0.00470 0.94369 -0.04100
H 	H 	0.60200 0.02320 0.93370 0.04200
C 	C 	0.46670 0.02700 0.97000 -0.03700
H 	H 	0.45450 0.06810 0.97630 0.03700
C 	C 	0.39824 0.92602 0.89246 0.01100
H 	H 	0.35810 0.93500 0.90120 0.03800
C 	C 	0.38526 0.90180 0.86693 -0.10800
C 	C 	0.30666 0.88151 0.85402 0.36700
O 	O 	0.92134 0.22648 0.19974 -0.41000
O 	O 	0.96266 0.18553 0.16503 -0.40900
C 	C 	0.08737 0.29253 0.30715 -0.01200
H 	H 	0.03887 0.28393 0.31653 0.02600
C 	C 	0.07667 0.26713 0.28260 -0.06500
H 	H 	0.02177 0.23193 0.27613 0.04900
C 	C 	0.21967 0.33803 0.27702 -0.04100
H 	H 	0.26867 0.35653 0.26703 0.04200
C 	C 	0.13337 0.36033 0.30333 -0.03700
H 	H 	0.12117 0.40143 0.30963 0.03700
C 	C 	0.06491 0.25935 0.22579 0.01100
H 	H 	0.02477 0.26833 0.23453 0.03800
C 	C 	0.05193 0.23513 0.20026 -0.10800
C 	C 	0.97333 0.21484 0.18735 0.36600
O 	O 	0.58800 0.55982 0.53308 -0.41000
O 	O 	0.62932 0.51887 0.49837 -0.40900
C 	C 	0.75403 0.62587 0.64049 -0.01200
H 	H 	0.70553 0.61727 0.64987 0.02600
C 	C 	0.74333 0.60047 0.61594 -0.06500
H 	H 	0.68843 0.56527 0.60947 0.04900
C 	C 	0.88633 0.67137 0.61036 -0.04200
H 	H 	0.93533 0.68987 0.60037 0.04200
C 	C 	0.80003 0.69367 0.63667 -0.03700
H 	H 	0.78783 0.73477 0.64297 0.03700
C 	C 	0.73157 0.59269 0.55913 0.01100
H 	H 	0.69143 0.60167 0.56787 0.03800
C 	C 	0.71859 0.56847 0.53360 -0.10800
C 	C 	0.63999 0.54818 0.52069 0.36700
O 	O 	0.63848 0.74533 0.86641 -0.41000
O 	O 	0.55621 0.70401 0.83170 -0.40900
C 	C 	0.53850 0.57930 0.97382 -0.01200
H 	H 	0.57840 0.62780 0.98320 0.02600
C 	C 	0.52380 0.59000 0.94927 -0.06500
H 	H 	0.54350 0.64490 0.94280 0.04900
C 	C 	0.45170 0.44700 0.94369 -0.04100
H 	H 	0.42120 0.39800 0.93370 0.04200
C 	C 	0.56030 0.53330 0.97000 -0.03700
H 	H 	0.61360 0.54550 0.97630 0.03700
C 	C 	0.52778 0.60176 0.89246 0.01100
H 	H 	0.57690 0.64190 0.90120 0.03800
C 	C 	0.51654 0.61474 0.86693 -0.10800
C 	C 	0.57485 0.69334 0.85402 0.36700
O 	O 	0.30515 0.07866 0.19974 -0.41000
O 	O 	0.22288 0.03734 0.16503 -0.40900
C 	C 	0.20517 0.91263 0.30715 -0.01200
H 	H 	0.24507 0.96113 0.31653 0.02600
C 	C 	0.19047 0.92333 0.28260 -0.06500
H 	H 	0.21017 0.97823 0.27613 0.04900
C 	C 	0.11837 0.78033 0.27702 -0.04100
H 	H 	0.08787 0.73133 0.26703 0.04200
C 	C 	0.22697 0.86663 0.30333 -0.03700
H 	H 	0.28027 0.87883 0.30963 0.03700
C 	C 	0.19445 0.93509 0.22579 0.01100
H 	H 	0.24357 0.97523 0.23453 0.03800
C 	C 	0.18321 0.94807 0.20026 -0.10800
C 	C 	0.24152 0.02667 0.18735 0.36600
O 	O 	0.97181 0.41200 0.53308 -0.41000
O 	O 	0.88954 0.37068 0.49837 -0.40900
C 	C 	0.87183 0.24597 0.64049 -0.01200
H 	H 	0.91173 0.29447 0.64987 0.02600
C 	C 	0.85713 0.25667 0.61594 -0.06500
H 	H 	0.87683 0.31157 0.60947 0.04900
C 	C 	0.78503 0.11367 0.61036 -0.04100
H 	H 	0.75453 0.06467 0.60037 0.04200
C 	C 	0.89363 0.19997 0.63667 -0.03700
H 	H 	0.94693 0.21217 0.64297 0.03700
C 	C 	0.86111 0.26843 0.55913 0.01100
H 	H 	0.91023 0.30857 0.56787 0.03800
C 	C 	0.84987 0.28141 0.53360 -0.10800
C 	C 	0.90818 0.36001 0.52069 0.36700
O 	O 	0.10685 0.36152 0.86641 -0.41000
O 	O 	0.14780 0.44379 0.83170 -0.40900
C 	C 	0.04080 0.46150 0.97382 -0.01200
H 	H 	0.04940 0.42160 0.98320 0.02600
C 	C 	0.06620 0.47620 0.94927 -0.06500
H 	H 	0.10140 0.45650 0.94280 0.04900
C 	C 	0.99530 0.54830 0.94369 -0.04100
H 	H 	0.97680 0.57880 0.93370 0.04200
C 	C 	0.97300 0.43970 0.97000 -0.03700
H 	H 	0.93190 0.38640 0.97630 0.03700
C 	C 	0.07398 0.47222 0.89246 0.01100
H 	H 	0.06500 0.42310 0.90120 0.03800
C 	C 	0.09820 0.48346 0.86693 -0.10800
C 	C 	0.11849 0.42515 0.85402 0.36700
O 	O 	0.77352 0.69485 0.19974 -0.41000
O 	O 	0.81447 0.77712 0.16503 -0.40900
C 	C 	0.70747 0.79483 0.30715 -0.01200
H 	H 	0.71607 0.75493 0.31653 0.02600
C 	C 	0.73287 0.80953 0.28260 -0.06500
H 	H 	0.76807 0.78983 0.27613 0.04900
C 	C 	0.66197 0.88163 0.27702 -0.04100
H 	H 	0.64347 0.91213 0.26703 0.04200
C 	C 	0.63967 0.77303 0.30333 -0.03700
H 	H 	0.59857 0.71973 0.30963 0.03700
C 	C 	0.74065 0.80555 0.22579 0.01100
H 	H 	0.73167 0.75643 0.23453 0.03800
C 	C 	0.76487 0.81679 0.20026 -0.10800
C 	C 	0.78516 0.75848 0.18735 0.36700
O 	O 	0.44018 0.02819 0.53308 -0.41000
O 	O 	0.48113 0.11046 0.49837 -0.40900
C 	C 	0.37413 0.12817 0.64049 -0.01200
H 	H 	0.38273 0.08827 0.64987 0.02600
C 	C 	0.39953 0.14287 0.61594 -0.06500
H 	H 	0.43473 0.12317 0.60947 0.04900
C 	C 	0.32863 0.21497 0.61036 -0.04100
H 	H 	0.31013 0.24547 0.60037 0.04200
C 	C 	0.30633 0.10637 0.63667 -0.03700
H 	H 	0.26523 0.05307 0.64297 0.03700
C 	C 	0.40731 0.13889 0.55913 0.01100
H 	H 	0.39833 0.08977 0.56787 0.03800
C 	C 	0.43153 0.15013 0.53360 -0.10800
C 	C 	0.45182 0.09182 0.52069 0.36700
Cu	Cu	0.14214 0.85786 0.85387 0.90600
Cu	Cu	0.80881 0.19119 0.18721 0.90600
Cu	Cu	0.47547 0.52453 0.52054 0.90600
Cu	Cu	0.14214 0.28428 0.85387 0.90700
Cu	Cu	0.80881 0.61761 0.18721 0.90600
Cu	Cu	0.47547 0.95094 0.52054 0.90600
Cu	Cu	0.71572 0.85786 0.85387 0.90700
Cu	Cu	0.38239 0.19119 0.18721 0.90600
Cu	Cu	0.04906 0.52453 0.52054 0.90600
Cu	Cu	0.85786 0.14214 0.14613 0.90600
Cu	Cu	0.52453 0.47547 0.47946 0.90600
Cu	Cu	0.19119 0.80881 0.81279 0.90600
Cu	Cu	0.28428 0.14214 0.14613 0.90700
Cu	Cu	0.95094 0.47547 0.47946 0.90600
Cu	Cu	0.61761 0.80881 0.81279 0.90600
Cu	Cu	0.85786 0.71572 0.14613 0.90700
Cu	Cu	0.52453 0.04906 0.47946 0.90600
Cu	Cu	0.19119 0.38239 0.81279 0.90600
C 	C 	0.00650 0.50325 0.98600 0.00400
C 	C 	0.04103 0.52051 0.93333 0.06000
C 	C 	0.06263 0.53132 0.90549 -0.04000
C 	C 	0.11083 0.55542 0.85455 0.05000
H 	H 	0.12860 0.56430 0.83730 0.04500
C 	C 	0.67317 0.83658 0.31933 0.00400
C 	C 	0.70770 0.85385 0.26666 0.06000
C 	C 	0.72930 0.86465 0.23882 -0.04000
C 	C 	0.77750 0.88875 0.18788 0.05000
H 	H 	0.79527 0.89763 0.17063 0.04500
C 	C 	0.33983 0.16992 0.65267 0.00400
C 	C 	0.37436 0.18718 0.60000 0.06000
C 	C 	0.39596 0.19798 0.57216 -0.04000
C 	C 	0.44416 0.22208 0.52122 0.05000
H 	H 	0.46193 0.23097 0.50397 0.04500
C 	C 	0.49675 0.50325 0.98600 0.00400
C 	C 	0.47949 0.52052 0.93333 0.06000
C 	C 	0.46868 0.53132 0.90549 -0.04000
C 	C 	0.44458 0.55542 0.85455 0.05000
H 	H 	0.43570 0.56430 0.83730 0.04500
C 	C 	0.16342 0.83658 0.31933 0.00400
C 	C 	0.14615 0.85385 0.26666 0.06000
C 	C 	0.13535 0.86465 0.23882 -0.04000
C 	C 	0.11125 0.88875 0.18788 0.04900
H 	H 	0.10237 0.89763 0.17063 0.04500
C 	C 	0.83008 0.16992 0.65267 0.00400
C 	C 	0.81282 0.18718 0.60000 0.06000
C 	C 	0.80202 0.19798 0.57216 -0.04000
C 	C 	0.77792 0.22208 0.52122 0.05000
H 	H 	0.76903 0.23097 0.50397 0.04500
C 	C 	0.49675 0.99350 0.98600 0.00400
C 	C 	0.47948 0.95897 0.93333 0.06000
C 	C 	0.46868 0.93737 0.90549 -0.04000
C 	C 	0.44458 0.88917 0.85455 0.05000
H 	H 	0.43570 0.87140 0.83730 0.04500
C 	C 	0.16342 0.32683 0.31933 0.00400
C 	C 	0.14615 0.29230 0.26666 0.06000
C 	C 	0.13535 0.27070 0.23882 -0.04000
C 	C 	0.11125 0.22250 0.18788 0.05000
H 	H 	0.10237 0.20473 0.17063 0.04500
C 	C 	0.83008 0.66017 0.65267 0.00400
C 	C 	0.81282 0.62564 0.60000 0.06000
C 	C 	0.80202 0.60404 0.57216 -0.04000
C 	C 	0.77792 0.55584 0.52122 0.05000
H 	H 	0.76903 0.53807 0.50397 0.04500
C 	C 	0.50325 0.00650 0.01400 0.00400
C 	C 	0.52052 0.04103 0.06667 0.06000
C 	C 	0.53132 0.06263 0.09451 -0.04000
C 	C 	0.55542 0.11083 0.14545 0.05000
H 	H 	0.56430 0.12860 0.16270 0.04500
C 	C 	0.16992 0.33983 0.34733 0.00400
C 	C 	0.18718 0.37436 0.40000 0.06000
C 	C 	0.19798 0.39596 0.42784 -0.04000
C 	C 	0.22208 0.44416 0.47878 0.05000
H 	H 	0.23097 0.46193 0.49603 0.04500
C 	C 	0.83658 0.67317 0.68067 0.00400
C 	C 	0.85385 0.70770 0.73334 0.06000
C 	C 	0.86465 0.72930 0.76118 -0.04000
C 	C 	0.88875 0.77750 0.81212 0.05000
H 	H 	0.89763 0.79527 0.82937 0.04500
C 	C 	0.50325 0.49675 0.01400 0.00400
C 	C 	0.52052 0.47948 0.06667 0.06000
C 	C 	0.53132 0.46868 0.09451 -0.04000
C 	C 	0.55542 0.44458 0.14545 0.05000
H 	H 	0.56430 0.43570 0.16270 0.04500
C 	C 	0.16992 0.83008 0.34733 0.00400
C 	C 	0.18718 0.81282 0.40000 0.06000
C 	C 	0.19798 0.80202 0.42784 -0.04000
C 	C 	0.22208 0.77792 0.47878 0.05000
H 	H 	0.23097 0.76903 0.49603 0.04500
C 	C 	0.83658 0.16342 0.68067 0.00400
C 	C 	0.85385 0.14615 0.73334 0.06000
C 	C 	0.86465 0.13535 0.76118 -0.04000
C 	C 	0.88875 0.11125 0.81212 0.04900
H 	H 	0.89763 0.10237 0.82937 0.04500
C 	C 	0.99350 0.49675 0.01400 0.00400
C 	C 	0.95897 0.47948 0.06667 0.06000
C 	C 	0.93737 0.46868 0.09451 -0.04000
C 	C 	0.88917 0.44458 0.14545 0.05000
H 	H 	0.87140 0.43570 0.16270 0.04500
C 	C 	0.66017 0.83008 0.34733 0.00400
C 	C 	0.62564 0.81282 0.40000 0.06000
C 	C 	0.60404 0.80202 0.42784 -0.04000
C 	C 	0.55584 0.77792 0.47878 0.05000
H 	H 	0.53807 0.76903 0.49603 0.04500
C 	C 	0.32683 0.16342 0.68067 0.00400
C 	C 	0.29230 0.14615 0.73334 0.06000
C 	C 	0.27070 0.13535 0.76118 -0.04000
C 	C 	0.22250 0.11125 0.81212 0.05000
H 	H 	0.20473 0.10237 0.82937 0.04500
