data_crystal

_cell_length_a 10.86080
_cell_length_b 14.83220
_cell_length_c 14.83220
_cell_angle_alpha 65.75520
_cell_angle_beta  75.87240
_cell_angle_gamma 104.12800

_symmetry_space_group_name_	'P 1'
_symmetry_space_group_name_H-M	'P 1'

loop_
_symmetry_equiv_pos_as_xyz
  x,y,z

loop_
_atom_site_label
_atom_site_type_symbol
_atom_site_fract_x
_atom_site_fract_y
_atom_site_fract_z
_atom_site_charge
Cu	Cu	0.03061 0.59340 0.52113 0.83000
Cu	Cu	0.55174 0.52113 0.88547 0.84700
Cu	Cu	0.43721 0.88547 0.59340 0.84600
Cu	Cu	0.55174 0.11453 0.47887 0.85600
Cu	Cu	0.43721 0.40660 0.11453 0.85300
Cu	Cu	0.03061 0.47887 0.40660 0.83200
Cu	Cu	0.32991 0.59450 0.40550 0.80000
Cu	Cu	0.73541 0.40550 -0.00000 0.81300
Cu	Cu	0.73541 1.00000 0.59450 0.80200
H 	H 	0.57490 0.71520 0.42810 0.10900
H 	H 	0.58720 0.74080 0.52120 0.13900
H 	H 	0.61130 0.83520 0.40680 0.11700
H 	H 	0.01940 0.73570 0.61900 0.10200
H 	H 	0.13170 0.85280 0.57350 0.11500
H 	H 	0.10250 0.75700 0.68860 0.10100
H 	H 	0.00300 0.42810 0.85670 0.11800
H 	H 	0.10840 0.52120 0.73800 0.16100
H 	H 	0.01810 0.40680 0.75800 0.13000
H 	H 	0.63840 0.61900 0.64530 0.14100
H 	H 	0.70520 0.57350 0.57370 0.14800
H 	H 	0.79110 0.68860 0.55440 0.14200
H 	H 	0.85970 0.85670 0.71520 0.12200
H 	H 	0.84640 0.73800 0.74080 0.15600
H 	H 	0.77610 0.75800 0.83520 0.12400
H 	H 	0.28370 0.64530 0.73570 0.12900
H 	H 	0.27890 0.57370 0.85280 0.13000
H 	H 	0.34550 0.55440 0.75700 0.12200
H 	H 	0.00300 0.14330 0.57190 0.12600
H 	H 	0.10840 0.26200 0.47880 0.16400
H 	H 	0.01810 0.24200 0.59320 0.13300
H 	H 	0.63840 0.35470 0.38100 0.14200
H 	H 	0.70520 0.42630 0.42650 0.14800
H 	H 	0.79110 0.44560 0.31140 0.14300
H 	H 	0.85970 0.28480 0.14330 0.13600
H 	H 	0.84640 0.25920 0.26200 0.16400
H 	H 	0.77610 0.16480 0.24200 0.13900
H 	H 	0.28370 0.26430 0.35470 0.13400
H 	H 	0.27890 0.14720 0.42630 0.13900
H 	H 	0.34550 0.24300 0.44560 0.12600
H 	H 	0.57490 0.57190 0.28480 0.11100
H 	H 	0.58720 0.47880 0.25920 0.14200
H 	H 	0.61130 0.59320 0.16480 0.12200
H 	H 	0.01940 0.38100 0.26430 0.10800
H 	H 	0.13170 0.42650 0.14720 0.12500
H 	H 	0.10250 0.31140 0.24300 0.10900
H 	H 	0.19040 0.66860 0.33140 0.26300
H 	H 	0.52180 0.33140 -0.00000 0.26900
H 	H 	0.52180 0.00000 0.66860 0.29300
C 	C 	0.41250 0.73890 0.49800 0.18800
C 	C 	0.55840 0.75920 0.46040 -0.53600
C 	C 	0.21890 0.74680 0.56350 0.17200
C 	C 	0.10830 0.77550 0.61590 -0.48700
C 	C 	0.91050 0.49800 0.76310 0.26100
C 	C 	0.01880 0.46040 0.78040 -0.64200
C 	C 	0.78240 0.56350 0.68970 0.20100
C 	C 	0.72420 0.61590 0.60860 -0.54500
C 	C 	0.67360 0.76310 0.73890 0.19600
C 	C 	0.79920 0.78040 0.75920 -0.55600
C 	C 	0.47210 0.68970 0.74680 0.18600
C 	C 	0.33280 0.60860 0.77550 -0.52100
C 	C 	0.91050 0.23690 0.50200 0.26400
C 	C 	0.01880 0.21960 0.53960 -0.64800
C 	C 	0.78240 0.31030 0.43650 0.20100
C 	C 	0.72420 0.39140 0.38410 -0.54600
C 	C 	0.67360 0.26110 0.23690 0.20700
C 	C 	0.79920 0.24080 0.21960 -0.57800
C 	C 	0.47210 0.25320 0.31030 0.19200
C 	C 	0.33280 0.22450 0.39140 -0.53100
C 	C 	0.41250 0.50200 0.26110 0.19100
C 	C 	0.55840 0.53960 0.24080 -0.54100
C 	C 	0.21890 0.43650 0.25320 0.17800
C 	C 	0.10830 0.38410 0.22450 -0.50000
N 	N 	0.31900 0.67390 0.48610 -0.26600
N 	N 	0.19150 0.67770 0.52950 -0.25800
N 	N 	0.35240 0.78680 0.54740 -0.29600
N 	N 	0.80510 0.48610 0.84000 -0.27400
N 	N 	0.72100 0.52950 0.79280 -0.25700
N 	N 	0.89980 0.54740 0.66580 -0.29200
N 	N 	0.64510 0.84000 0.67390 -0.26600
N 	N 	0.51380 0.79280 0.67770 -0.25600
N 	N 	0.56560 0.66580 0.78680 -0.29900
N 	N 	0.80510 0.16000 0.51390 -0.26700
N 	N 	0.72100 0.20720 0.47050 -0.25400
N 	N 	0.89980 0.33420 0.45260 -0.29300
N 	N 	0.64510 0.32610 0.16000 -0.26500
N 	N 	0.51380 0.32230 0.20720 -0.25500
N 	N 	0.56560 0.21320 0.33420 -0.29900
N 	N 	0.31900 0.51390 0.32610 -0.26600
N 	N 	0.19150 0.47050 0.32230 -0.25800
N 	N 	0.35240 0.45260 0.21320 -0.29500
O 	O 	0.16200 0.61250 0.38750 -0.82300
O 	O 	0.89750 0.51440 0.48560 -0.46200
O 	O 	0.54950 0.38750 -0.00000 -0.80900
O 	O 	0.38310 0.48560 -0.00000 -0.48700
O 	O 	0.54950 1.00000 0.61250 -0.84900
O 	O 	0.38310 -0.00000 0.51440 -0.48100
