data_crystal

_cell_length_a 33.41000
_cell_length_b 26.93200
_cell_length_c 12.36500
_cell_angle_alpha 90.00000
_cell_angle_beta  91.53300
_cell_angle_gamma 90.00000

_symmetry_space_group_name_	'P 1'
_symmetry_space_group_name_H-M	'P 1'

loop_
_symmetry_equiv_pos_as_xyz
  x,y,z

loop_
_atom_site_label
_atom_site_type_symbol
_atom_site_fract_x
_atom_site_fract_y
_atom_site_fract_z
_atom_site_charge
Ag	Ag	0.63857 0.28053 0.22189 0.52100
Ag	Ag	0.14268 0.27752 0.74792 0.52300
Co	Co	0.38671 0.43014 0.46820 1.17500
Co	Co	0.88616 0.43224 0.51814 1.17100
C 	C 	0.45542 0.46950 0.59360 0.03200
H 	H 	0.43900 0.49190 0.63180 0.01000
C 	C 	0.49633 0.46540 0.60980 -0.04200
H 	H 	0.51230 0.48390 0.66020 0.04600
C 	C 	0.50974 0.42990 0.53990 -0.09700
H 	H 	0.53650 0.41880 0.53280 0.06500
C 	C 	0.47491 0.41300 0.47970 0.10900
C 	C 	0.47230 0.37380 0.40490 -0.15100
C 	C 	0.43742 0.35390 0.35930 0.11000
C 	C 	0.43300 0.31280 0.28770 -0.10000
H 	H 	0.45400 0.29400 0.25710 0.06200
C 	C 	0.39330 0.30570 0.27150 -0.04800
H 	H 	0.38070 0.28050 0.22910 0.04300
C 	C 	0.37380 0.34420 0.33190 0.04100
H 	H 	0.34560 0.34850 0.33370 0.00600
C 	C 	0.51070 0.35320 0.36500 0.13500
C 	C 	0.52202 0.30380 0.38770 -0.18200
H 	H 	0.50580 0.28320 0.43090 0.08800
C 	C 	0.55729 0.28590 0.34560 0.09400
H 	H 	0.56480 0.25250 0.36060 -0.02400
C 	C 	0.53667 0.38180 0.30430 -0.18300
H 	H 	0.53070 0.41560 0.28840 0.08800
C 	C 	0.57100 0.36020 0.26790 0.09200
H 	H 	0.58880 0.38000 0.22750 -0.01900
C 	C 	0.64330 0.98340 0.84210 0.02600
H 	H 	0.64420 0.95370 0.80090 0.01300
C 	C 	0.65640 0.03010 0.80340 -0.03900
H 	H 	0.66560 0.03750 0.73320 0.03600
C 	C 	0.65270 0.06240 0.88880 -0.10600
H 	H 	0.65980 0.09650 0.89010 0.06800
C 	C 	0.63600 0.03430 0.97610 0.11900
C 	C 	0.62550 0.05150 0.07700 -0.16000
C 	C 	0.60867 0.02480 0.15670 0.11000
C 	C 	0.59770 0.04140 0.26410 -0.09700
H 	H 	0.60070 0.07390 0.29290 0.05900
C 	C 	0.58220 0.00020 0.31590 -0.05200
H 	H 	0.57150 0.99930 0.38630 0.04000
C 	C 	0.58530 0.96110 0.24550 0.03200
H 	H 	0.57710 0.92840 0.26280 0.01000
C 	C 	0.63350 0.10530 0.10160 0.14000
C 	C 	0.66170 0.12080 0.17640 -0.18700
H 	H 	0.67810 0.09680 0.21220 0.08900
C 	C 	0.66700 0.17020 0.20130 0.09000
H 	H 	0.68650 0.17930 0.25470 -0.02100
C 	C 	0.61260 0.14290 0.04440 -0.18100
H 	H 	0.59470 0.13450 0.98630 0.09200
C 	C 	0.61820 0.19180 0.07240 0.08100
H 	H 	0.60300 0.21660 0.03560 -0.02200
C 	C 	0.31650 0.44850 0.32560 0.02000
H 	H 	0.33200 0.46530 0.27380 0.01500
C 	C 	0.27410 0.44230 0.31620 -0.03600
H 	H 	0.25690 0.45390 0.25940 0.03500
C 	C 	0.26320 0.41540 0.40820 -0.10900
H 	H 	0.23700 0.40560 0.42700 0.07100
C 	C 	0.29985 0.40580 0.46770 0.12100
C 	C 	0.30385 0.37740 0.56100 -0.15900
C 	C 	0.34062 0.36580 0.61300 0.11900
C 	C 	0.34680 0.33500 0.70660 -0.10800
H 	H 	0.32680 0.31860 0.74630 0.06500
C 	C 	0.38680 0.33380 0.72730 -0.03900
H 	H 	0.40040 0.31550 0.78270 0.03800
C 	C 	0.40448 0.36510 0.65100 0.02600
H 	H 	0.43240 0.37140 0.64720 0.01300
C 	C 	0.26684 0.35410 0.60530 0.14500
C 	C 	0.25390 0.36790 0.70490 -0.18400
H 	H 	0.26770 0.39240 0.74680 0.08900
C 	C 	0.21960 0.34470 0.74240 0.08500
H 	H 	0.21090 0.35340 0.81240 -0.02100
C 	C 	0.24510 0.31920 0.54380 -0.18500
H 	H 	0.25290 0.31050 0.47290 0.08900
C 	C 	0.21187 0.29760 0.58960 0.09500
H 	H 	0.19830 0.27200 0.55030 -0.02500
C 	C 	0.91898 0.45540 0.73750 0.02100
H 	H 	0.92770 0.42230 0.74940 0.01500
C 	C 	0.92240 0.49330 0.81280 -0.04100
H 	H 	0.93400 0.49080 0.88350 0.03700
C 	C 	0.90590 0.53540 0.76590 -0.10600
H 	H 	0.90330 0.56710 0.79880 0.06300
C 	C 	0.89332 0.52190 0.65810 0.11700
C 	C 	0.87500 0.55230 0.58160 -0.16200
C 	C 	0.86339 0.53800 0.47670 0.11900
C 	C 	0.84553 0.56820 0.39450 -0.10700
H 	H 	0.83920 0.60250 0.39960 0.06400
C 	C 	0.83934 0.53840 0.30730 -0.03900
H 	H 	0.82710 0.54770 0.24010 0.03500
C 	C 	0.85427 0.49170 0.33450 0.02800
H 	H 	0.85420 0.46410 0.28680 0.01100
C 	C 	0.86706 0.60460 0.61460 0.14900
C 	C 	0.84020 0.61650 0.69090 -0.20400
H 	H 	0.82480 0.59170 0.72530 0.09500
C 	C 	0.83602 0.66700 0.71710 0.11300
H 	H 	0.81750 0.67500 0.77130 -0.02900
C 	C 	0.88860 0.64340 0.56400 -0.18700
H 	H 	0.90750 0.63660 0.51000 0.09400
C 	C 	0.88059 0.69170 0.59730 0.08700
H 	H 	0.89420 0.71820 0.56330 -0.02400
C 	C 	0.89815 0.37050 0.32720 0.02600
H 	H 	0.92630 0.37540 0.33030 0.01200
C 	C 	0.87720 0.34100 0.24850 -0.03700
H 	H 	0.88860 0.32310 0.19060 0.03700
C 	C 	0.83770 0.34370 0.27290 -0.11100
H 	H 	0.81640 0.32700 0.23610 0.06600
C 	C 	0.83414 0.37510 0.36070 0.11500
C 	C 	0.79965 0.38730 0.41800 -0.15600
C 	C 	0.79808 0.41150 0.51440 0.11100
C 	C 	0.76380 0.42210 0.57840 -0.10000
H 	H 	0.73670 0.41550 0.55860 0.06700
C 	C 	0.77730 0.44350 0.67310 -0.04400
H 	H 	0.76160 0.45390 0.73180 0.03800
C 	C 	0.81916 0.44690 0.66600 0.03400
H 	H 	0.83620 0.46000 0.72180 0.01100
C 	C 	0.76139 0.36740 0.37080 0.13900
C 	C 	0.74080 0.33080 0.42700 -0.18100
H 	H 	0.75050 0.31960 0.49570 0.08800
C 	C 	0.70591 0.31090 0.38080 0.09400
H 	H 	0.69170 0.28680 0.42060 -0.02600
C 	C 	0.74589 0.38270 0.27050 -0.17900
H 	H 	0.75880 0.40760 0.22990 0.08800
C 	C 	0.71092 0.36020 0.23160 0.08500
H 	H 	0.70000 0.37090 0.16380 -0.01800
C 	C 	0.95265 0.47230 0.39500 0.03000
H 	H 	0.93550 0.49500 0.35740 0.00900
C 	C 	0.99447 0.46860 0.37880 -0.04100
H 	H 	0.00980 0.48720 0.32920 0.04400
C 	C 	0.00794 0.43360 0.44770 -0.09700
H 	H 	0.03500 0.42330 0.45730 0.06500
C 	C 	0.97424 0.41450 0.50470 0.11000
C 	C 	0.97292 0.37410 0.57400 -0.15200
C 	C 	0.93865 0.35280 0.61520 0.11300
C 	C 	0.93470 0.30940 0.68100 -0.10300
H 	H 	0.95590 0.28910 0.70820 0.06400
C 	C 	0.89550 0.30270 0.69740 -0.04000
H 	H 	0.88380 0.27640 0.73660 0.04000
C 	C 	0.87490 0.34250 0.64490 0.02800
H 	H 	0.84670 0.34760 0.64550 0.01000
C 	C 	0.01194 0.35100 0.61410 0.13300
C 	C 	0.03889 0.37940 0.67580 -0.18000
H 	H 	0.03330 0.41310 0.69220 0.08800
C 	C 	0.07433 0.35700 0.71290 0.08800
H 	H 	0.09240 0.37610 0.75660 -0.01800
C 	C 	0.02269 0.30310 0.58410 -0.18000
H 	H 	0.00610 0.28380 0.53660 0.08700
C 	C 	0.05832 0.28460 0.62610 0.08400
H 	H 	0.06520 0.25140 0.60860 -0.01900
N 	N 	0.44178 0.43805 0.51770 -0.25700
N 	N 	0.39932 0.37201 0.38310 -0.25900
N 	N 	0.58077 0.31298 0.28600 -0.20600
N 	N 	0.62976 0.98561 0.94270 -0.25500
N 	N 	0.60098 0.97309 0.15040 -0.25900
N 	N 	0.64514 0.20574 0.15180 -0.20600
N 	N 	0.33188 0.42754 0.41730 -0.25800
N 	N 	0.37661 0.38450 0.58460 -0.26000
N 	N 	0.19802 0.31060 0.68530 -0.20700
N 	N 	0.90142 0.47210 0.64460 -0.25500
N 	N 	0.86862 0.49070 0.43590 -0.25600
N 	N 	0.85470 0.70295 0.67500 -0.21500
N 	N 	0.87263 0.39013 0.39560 -0.25700
N 	N 	0.83204 0.42990 0.57300 -0.25500
N 	N 	0.69155 0.32393 0.28480 -0.20500
N 	N 	0.94018 0.44034 0.46860 -0.25800
N 	N 	0.90054 0.37131 0.59520 -0.25600
N 	N 	0.08414 0.31072 0.69050 -0.20400
Ag	Ag	0.36143 0.78053 0.27811 0.52000
Ag	Ag	0.85732 0.77752 0.75208 0.52200
Co	Co	0.61329 0.93014 0.03180 1.17400
Co	Co	0.11384 0.93224 0.98186 1.16900
C 	C 	0.54458 0.96950 0.90640 0.03100
H 	H 	0.56100 0.99190 0.86820 0.00900
C 	C 	0.50367 0.96540 0.89020 -0.04400
H 	H 	0.48770 0.98390 0.83980 0.04500
C 	C 	0.49026 0.92990 0.96010 -0.09600
H 	H 	0.46350 0.91880 0.96720 0.06400
C 	C 	0.52509 0.91300 0.02030 0.10800
C 	C 	0.52770 0.87380 0.09510 -0.15100
C 	C 	0.56258 0.85390 0.14070 0.11000
C 	C 	0.56700 0.81280 0.21230 -0.09900
H 	H 	0.54600 0.79400 0.24290 0.06200
C 	C 	0.60670 0.80570 0.22850 -0.04900
H 	H 	0.61930 0.78050 0.27090 0.04300
C 	C 	0.62620 0.84420 0.16810 0.04100
H 	H 	0.65440 0.84850 0.16630 0.00600
C 	C 	0.48930 0.85320 0.13500 0.13500
C 	C 	0.47798 0.80380 0.11230 -0.18200
H 	H 	0.49420 0.78320 0.06910 0.08700
C 	C 	0.44271 0.78590 0.15440 0.09400
H 	H 	0.43520 0.75250 0.13940 -0.02400
C 	C 	0.46333 0.88180 0.19570 -0.18300
H 	H 	0.46930 0.91560 0.21160 0.08800
C 	C 	0.42900 0.86020 0.23210 0.09200
H 	H 	0.41120 0.88000 0.27250 -0.01900
C 	C 	0.35670 0.48340 0.65790 0.02600
H 	H 	0.35580 0.45370 0.69910 0.01300
C 	C 	0.34360 0.53010 0.69660 -0.03900
H 	H 	0.33440 0.53750 0.76680 0.03600
C 	C 	0.34730 0.56240 0.61120 -0.10500
H 	H 	0.34020 0.59650 0.60990 0.06700
C 	C 	0.36400 0.53430 0.52390 0.11700
C 	C 	0.37450 0.55150 0.42300 -0.15800
C 	C 	0.39133 0.52480 0.34330 0.10900
C 	C 	0.40230 0.54140 0.23590 -0.09700
H 	H 	0.39930 0.57390 0.20710 0.05900
C 	C 	0.41780 0.50020 0.18410 -0.05300
H 	H 	0.42850 0.49930 0.11370 0.04100
C 	C 	0.41470 0.46110 0.25450 0.03300
H 	H 	0.42290 0.42840 0.23720 0.01000
C 	C 	0.36650 0.60530 0.39840 0.13900
C 	C 	0.33830 0.62080 0.32360 -0.18700
H 	H 	0.32190 0.59680 0.28780 0.08800
C 	C 	0.33300 0.67020 0.29870 0.08900
H 	H 	0.31350 0.67930 0.24530 -0.02100
C 	C 	0.38740 0.64290 0.45560 -0.17900
H 	H 	0.40530 0.63450 0.51370 0.09100
C 	C 	0.38180 0.69180 0.42760 0.08000
H 	H 	0.39700 0.71660 0.46440 -0.02200
C 	C 	0.68350 0.94850 0.17440 0.02000
H 	H 	0.66800 0.96530 0.22620 0.01500
C 	C 	0.72590 0.94230 0.18380 -0.03700
H 	H 	0.74310 0.95390 0.24060 0.03500
C 	C 	0.73680 0.91540 0.09180 -0.10800
H 	H 	0.76300 0.90560 0.07300 0.07000
C 	C 	0.70015 0.90580 0.03230 0.11800
C 	C 	0.69615 0.87740 0.93900 -0.15500
C 	C 	0.65938 0.86580 0.88700 0.11800
C 	C 	0.65320 0.83500 0.79340 -0.10700
H 	H 	0.67320 0.81860 0.75370 0.06500
C 	C 	0.61320 0.83380 0.77270 -0.03900
H 	H 	0.59960 0.81550 0.71730 0.03800
C 	C 	0.59552 0.86510 0.84900 0.02600
H 	H 	0.56760 0.87140 0.85280 0.01300
C 	C 	0.73316 0.85410 0.89470 0.14200
C 	C 	0.74610 0.86790 0.79510 -0.18200
H 	H 	0.73230 0.89240 0.75320 0.08900
C 	C 	0.78040 0.84470 0.75760 0.08400
H 	H 	0.78910 0.85340 0.68760 -0.02000
C 	C 	0.75490 0.81920 0.95620 -0.17900
H 	H 	0.74710 0.81050 0.02710 0.08600
C 	C 	0.78813 0.79760 0.91040 0.09300
H 	H 	0.80170 0.77200 0.94970 -0.02400
C 	C 	0.08102 0.95540 0.76250 0.02100
H 	H 	0.07230 0.92230 0.75060 0.01400
C 	C 	0.07760 0.99330 0.68720 -0.04000
H 	H 	0.06600 0.99080 0.61650 0.03700
C 	C 	0.09410 0.03540 0.73410 -0.10600
H 	H 	0.09670 0.06710 0.70120 0.06300
C 	C 	0.10668 0.02190 0.84190 0.11700
C 	C 	0.12500 0.05230 0.91840 -0.16400
C 	C 	0.13661 0.03800 0.02330 0.12200
C 	C 	0.15447 0.06820 0.10550 -0.10800
H 	H 	0.16080 0.10250 0.10040 0.06500
C 	C 	0.16066 0.03840 0.19270 -0.03800
H 	H 	0.17290 0.04770 0.25990 0.03400
C 	C 	0.14573 0.99170 0.16550 0.02700
H 	H 	0.14580 0.96410 0.21320 0.01100
C 	C 	0.13294 0.10460 0.88540 0.15000
C 	C 	0.15980 0.11650 0.80910 -0.20400
H 	H 	0.17520 0.09170 0.77470 0.09500
C 	C 	0.16398 0.16700 0.78290 0.11300
H 	H 	0.18250 0.17500 0.72870 -0.02900
C 	C 	0.11140 0.14340 0.93600 -0.18800
H 	H 	0.09250 0.13660 0.99000 0.09400
C 	C 	0.11941 0.19170 0.90270 0.08700
H 	H 	0.10580 0.21820 0.93670 -0.02400
C 	C 	0.10185 0.87050 0.17280 0.02600
H 	H 	0.07370 0.87540 0.16970 0.01300
C 	C 	0.12280 0.84100 0.25150 -0.03700
H 	H 	0.11140 0.82310 0.30940 0.03700
C 	C 	0.16230 0.84370 0.22710 -0.11100
H 	H 	0.18360 0.82700 0.26390 0.06600
C 	C 	0.16586 0.87510 0.13930 0.11400
C 	C 	0.20035 0.88730 0.08200 -0.15300
C 	C 	0.20192 0.91150 0.98560 0.10800
C 	C 	0.23620 0.92210 0.92160 -0.09900
H 	H 	0.26330 0.91550 0.94140 0.06700
C 	C 	0.22270 0.94350 0.82690 -0.04500
H 	H 	0.23840 0.95390 0.76820 0.03800
C 	C 	0.18084 0.94690 0.83400 0.03400
H 	H 	0.16380 0.96000 0.77820 0.01000
C 	C 	0.23861 0.86740 0.12920 0.13800
C 	C 	0.25920 0.83080 0.07300 -0.18100
H 	H 	0.24950 0.81960 0.00430 0.08900
C 	C 	0.29409 0.81090 0.11920 0.09400
H 	H 	0.30830 0.78680 0.07940 -0.02500
C 	C 	0.25411 0.88270 0.22950 -0.17900
H 	H 	0.24120 0.90760 0.27010 0.08800
C 	C 	0.28908 0.86020 0.26840 0.08500
H 	H 	0.30000 0.87090 0.33620 -0.01800
C 	C 	0.04735 0.97230 0.10500 0.02900
H 	H 	0.06450 0.99500 0.14260 0.00900
C 	C 	0.00553 0.96860 0.12120 -0.03800
H 	H 	0.99020 0.98720 0.17080 0.04200
C 	C 	0.99206 0.93360 0.05230 -0.09900
H 	H 	0.96500 0.92330 0.04270 0.06500
C 	C 	0.02576 0.91450 0.99530 0.11000
C 	C 	0.02708 0.87410 0.92600 -0.15200
C 	C 	0.06135 0.85280 0.88480 0.11300
C 	C 	0.06530 0.80940 0.81900 -0.10400
H 	H 	0.04410 0.78910 0.79180 0.06400
C 	C 	0.10450 0.80270 0.80260 -0.04000
H 	H 	0.11620 0.77640 0.76340 0.04000
C 	C 	0.12510 0.84250 0.85510 0.02800
H 	H 	0.15330 0.84760 0.85450 0.01000
C 	C 	0.98806 0.85100 0.88590 0.13400
C 	C 	0.96111 0.87940 0.82420 -0.18000
H 	H 	0.96670 0.91310 0.80780 0.08800
C 	C 	0.92567 0.85700 0.78710 0.08800
H 	H 	0.90760 0.87610 0.74340 -0.01800
C 	C 	0.97731 0.80310 0.91590 -0.18000
H 	H 	0.99390 0.78380 0.96340 0.08700
C 	C 	0.94168 0.78460 0.87390 0.08400
H 	H 	0.93480 0.75140 0.89140 -0.01900
N 	N 	0.55822 0.93805 0.98230 -0.25600
N 	N 	0.60068 0.87201 0.11690 -0.25900
N 	N 	0.41923 0.81298 0.21400 -0.20600
N 	N 	0.37024 0.48561 0.55730 -0.25500
N 	N 	0.39902 0.47309 0.34960 -0.25900
N 	N 	0.35486 0.70574 0.34820 -0.20600
N 	N 	0.66812 0.92754 0.08270 -0.25800
N 	N 	0.62339 0.88450 0.91540 -0.26000
N 	N 	0.80198 0.81060 0.81470 -0.20600
N 	N 	0.09858 0.97210 0.85540 -0.25500
N 	N 	0.13138 0.99070 0.06410 -0.25500
N 	N 	0.14530 0.20295 0.82500 -0.21500
N 	N 	0.12737 0.89013 0.10440 -0.25600
N 	N 	0.16796 0.92990 0.92700 -0.25500
N 	N 	0.30845 0.82393 0.21520 -0.20500
N 	N 	0.05982 0.94034 0.03140 -0.25800
N 	N 	0.09946 0.87131 0.90480 -0.25600
N 	N 	0.91586 0.81072 0.80950 -0.20400
Ag	Ag	0.36143 0.71947 0.77811 0.52000
Ag	Ag	0.85732 0.72248 0.25208 0.52200
Co	Co	0.61329 0.56986 0.53180 1.17400
Co	Co	0.11384 0.56776 0.48186 1.17000
C 	C 	0.54458 0.53050 0.40640 0.03100
H 	H 	0.56100 0.50810 0.36820 0.00900
C 	C 	0.50367 0.53460 0.39020 -0.04300
H 	H 	0.48770 0.51610 0.33980 0.04500
C 	C 	0.49026 0.57010 0.46010 -0.09700
H 	H 	0.46350 0.58120 0.46720 0.06500
C 	C 	0.52509 0.58700 0.52030 0.10900
C 	C 	0.52770 0.62620 0.59510 -0.15100
C 	C 	0.56258 0.64610 0.64070 0.11000
C 	C 	0.56700 0.68720 0.71230 -0.10000
H 	H 	0.54600 0.70600 0.74290 0.06200
C 	C 	0.60670 0.69430 0.72850 -0.04800
H 	H 	0.61930 0.71950 0.77090 0.04300
C 	C 	0.62620 0.65580 0.66810 0.04100
H 	H 	0.65440 0.65150 0.66630 0.00600
C 	C 	0.48930 0.64680 0.63500 0.13500
C 	C 	0.47798 0.69620 0.61230 -0.18200
H 	H 	0.49420 0.71680 0.56910 0.08800
C 	C 	0.44271 0.71410 0.65440 0.09400
H 	H 	0.43520 0.74750 0.63940 -0.02400
C 	C 	0.46333 0.61820 0.69570 -0.18300
H 	H 	0.46930 0.58440 0.71160 0.08800
C 	C 	0.42900 0.63980 0.73210 0.09200
H 	H 	0.41120 0.62000 0.77250 -0.01900
C 	C 	0.35670 0.01660 0.15790 0.02600
H 	H 	0.35580 0.04630 0.19910 0.01300
C 	C 	0.34360 0.96990 0.19660 -0.03900
H 	H 	0.33440 0.96250 0.26680 0.03600
C 	C 	0.34730 0.93760 0.11120 -0.10600
H 	H 	0.34020 0.90350 0.10990 0.06800
C 	C 	0.36400 0.96570 0.02390 0.11900
C 	C 	0.37450 0.94850 0.92300 -0.16000
C 	C 	0.39133 0.97520 0.84330 0.11000
C 	C 	0.40230 0.95860 0.73590 -0.09700
H 	H 	0.39930 0.92610 0.70710 0.05900
C 	C 	0.41780 0.99980 0.68410 -0.05200
H 	H 	0.42850 0.00070 0.61370 0.04000
C 	C 	0.41470 0.03890 0.75450 0.03200
H 	H 	0.42290 0.07160 0.73720 0.01000
C 	C 	0.36650 0.89470 0.89840 0.14000
C 	C 	0.33830 0.87920 0.82360 -0.18700
H 	H 	0.32190 0.90320 0.78780 0.08900
C 	C 	0.33300 0.82980 0.79870 0.09000
H 	H 	0.31350 0.82070 0.74530 -0.02100
C 	C 	0.38740 0.85710 0.95560 -0.18100
H 	H 	0.40530 0.86550 0.01370 0.09200
C 	C 	0.38180 0.80820 0.92760 0.08100
H 	H 	0.39700 0.78340 0.96440 -0.02200
C 	C 	0.68350 0.55150 0.67440 0.02000
H 	H 	0.66800 0.53470 0.72620 0.01500
C 	C 	0.72590 0.55770 0.68380 -0.03600
H 	H 	0.74310 0.54610 0.74060 0.03500
C 	C 	0.73680 0.58460 0.59180 -0.10900
H 	H 	0.76300 0.59440 0.57300 0.07100
C 	C 	0.70015 0.59420 0.53230 0.12100
C 	C 	0.69615 0.62260 0.43900 -0.15900
C 	C 	0.65938 0.63420 0.38700 0.11900
C 	C 	0.65320 0.66500 0.29340 -0.10800
H 	H 	0.67320 0.68140 0.25370 0.06500
C 	C 	0.61320 0.66620 0.27270 -0.03900
H 	H 	0.59960 0.68450 0.21730 0.03800
C 	C 	0.59552 0.63490 0.34900 0.02600
H 	H 	0.56760 0.62860 0.35280 0.01300
C 	C 	0.73316 0.64590 0.39470 0.14500
C 	C 	0.74610 0.63210 0.29510 -0.18400
H 	H 	0.73230 0.60760 0.25320 0.08900
C 	C 	0.78040 0.65530 0.25760 0.08500
H 	H 	0.78910 0.64660 0.18760 -0.02100
C 	C 	0.75490 0.68080 0.45620 -0.18500
H 	H 	0.74710 0.68950 0.52710 0.08900
C 	C 	0.78813 0.70240 0.41040 0.09500
H 	H 	0.80170 0.72800 0.44970 -0.02500
C 	C 	0.08102 0.54460 0.26250 0.02100
H 	H 	0.07230 0.57770 0.25060 0.01500
C 	C 	0.07760 0.50670 0.18720 -0.04100
H 	H 	0.06600 0.50920 0.11650 0.03700
C 	C 	0.09410 0.46460 0.23410 -0.10600
H 	H 	0.09670 0.43290 0.20120 0.06300
C 	C 	0.10668 0.47810 0.34190 0.11700
C 	C 	0.12500 0.44770 0.41840 -0.16200
C 	C 	0.13661 0.46200 0.52330 0.11900
C 	C 	0.15447 0.43180 0.60550 -0.10700
H 	H 	0.16080 0.39750 0.60040 0.06400
C 	C 	0.16066 0.46160 0.69270 -0.03900
H 	H 	0.17290 0.45230 0.75990 0.03500
C 	C 	0.14573 0.50830 0.66550 0.02800
H 	H 	0.14580 0.53590 0.71320 0.01100
C 	C 	0.13294 0.39540 0.38540 0.14900
C 	C 	0.15980 0.38350 0.30910 -0.20400
H 	H 	0.17520 0.40830 0.27470 0.09500
C 	C 	0.16398 0.33300 0.28290 0.11300
H 	H 	0.18250 0.32500 0.22870 -0.02900
C 	C 	0.11140 0.35660 0.43600 -0.18700
H 	H 	0.09250 0.36340 0.49000 0.09400
C 	C 	0.11941 0.30830 0.40270 0.08700
H 	H 	0.10580 0.28180 0.43670 -0.02400
C 	C 	0.10185 0.62950 0.67280 0.02600
H 	H 	0.07370 0.62460 0.66970 0.01200
C 	C 	0.12280 0.65900 0.75150 -0.03700
H 	H 	0.11140 0.67690 0.80940 0.03700
C 	C 	0.16230 0.65630 0.72710 -0.11100
H 	H 	0.18360 0.67300 0.76390 0.06600
C 	C 	0.16586 0.62490 0.63930 0.11500
C 	C 	0.20035 0.61270 0.58200 -0.15600
C 	C 	0.20192 0.58850 0.48560 0.11100
C 	C 	0.23620 0.57790 0.42160 -0.10000
H 	H 	0.26330 0.58450 0.44140 0.06700
C 	C 	0.22270 0.55650 0.32690 -0.04400
H 	H 	0.23840 0.54610 0.26820 0.03800
C 	C 	0.18084 0.55310 0.33400 0.03400
H 	H 	0.16380 0.54000 0.27820 0.01100
C 	C 	0.23861 0.63260 0.62920 0.13900
C 	C 	0.25920 0.66920 0.57300 -0.18100
H 	H 	0.24950 0.68040 0.50430 0.08800
C 	C 	0.29409 0.68910 0.61920 0.09400
H 	H 	0.30830 0.71320 0.57940 -0.02600
C 	C 	0.25411 0.61730 0.72950 -0.17900
H 	H 	0.24120 0.59240 0.77010 0.08800
C 	C 	0.28908 0.63980 0.76840 0.08500
H 	H 	0.30000 0.62910 0.83620 -0.01800
C 	C 	0.04735 0.52770 0.60500 0.03000
H 	H 	0.06450 0.50500 0.64260 0.00900
C 	C 	0.00553 0.53140 0.62120 -0.04100
H 	H 	0.99020 0.51280 0.67080 0.04400
C 	C 	0.99206 0.56640 0.55230 -0.09700
H 	H 	0.96500 0.57670 0.54270 0.06500
C 	C 	0.02576 0.58550 0.49530 0.11000
C 	C 	0.02708 0.62590 0.42600 -0.15200
C 	C 	0.06135 0.64720 0.38480 0.11300
C 	C 	0.06530 0.69060 0.31900 -0.10300
H 	H 	0.04410 0.71090 0.29180 0.06400
C 	C 	0.10450 0.69730 0.30260 -0.04000
H 	H 	0.11620 0.72360 0.26340 0.04000
C 	C 	0.12510 0.65750 0.35510 0.02800
H 	H 	0.15330 0.65240 0.35450 0.01000
C 	C 	0.98806 0.64900 0.38590 0.13300
C 	C 	0.96111 0.62060 0.32420 -0.18000
H 	H 	0.96670 0.58690 0.30780 0.08800
C 	C 	0.92567 0.64300 0.28710 0.08800
H 	H 	0.90760 0.62390 0.24340 -0.01800
C 	C 	0.97731 0.69690 0.41590 -0.18000
H 	H 	0.99390 0.71620 0.46340 0.08700
C 	C 	0.94168 0.71540 0.37390 0.08400
H 	H 	0.93480 0.74860 0.39140 -0.01900
N 	N 	0.55822 0.56195 0.48230 -0.25700
N 	N 	0.60068 0.62799 0.61690 -0.25900
N 	N 	0.41923 0.68702 0.71400 -0.20600
N 	N 	0.37024 0.01439 0.05730 -0.25500
N 	N 	0.39902 0.02691 0.84960 -0.25900
N 	N 	0.35486 0.79426 0.84820 -0.20600
N 	N 	0.66812 0.57246 0.58270 -0.25800
N 	N 	0.62339 0.61550 0.41540 -0.26000
N 	N 	0.80198 0.68940 0.31470 -0.20700
N 	N 	0.09858 0.52790 0.35540 -0.25500
N 	N 	0.13138 0.50930 0.56410 -0.25600
N 	N 	0.14530 0.29705 0.32500 -0.21500
N 	N 	0.12737 0.60987 0.60440 -0.25700
N 	N 	0.16796 0.57010 0.42700 -0.25500
N 	N 	0.30845 0.67607 0.71520 -0.20500
N 	N 	0.05982 0.55966 0.53140 -0.25800
N 	N 	0.09946 0.62869 0.40480 -0.25600
N 	N 	0.91586 0.68928 0.30950 -0.20400
Ag	Ag	0.63857 0.21947 0.72189 0.52000
Ag	Ag	0.14268 0.22248 0.24792 0.52200
Co	Co	0.38671 0.06986 0.96820 1.17400
Co	Co	0.88616 0.06776 0.01814 1.16900
C 	C 	0.45542 0.03050 0.09360 0.03100
H 	H 	0.43900 0.00810 0.13180 0.00900
C 	C 	0.49633 0.03460 0.10980 -0.04400
H 	H 	0.51230 0.01610 0.16020 0.04500
C 	C 	0.50974 0.07010 0.03990 -0.09600
H 	H 	0.53650 0.08120 0.03280 0.06400
C 	C 	0.47491 0.08700 0.97970 0.10800
C 	C 	0.47230 0.12620 0.90490 -0.15100
C 	C 	0.43742 0.14610 0.85930 0.11000
C 	C 	0.43300 0.18720 0.78770 -0.09900
H 	H 	0.45400 0.20600 0.75710 0.06200
C 	C 	0.39330 0.19430 0.77150 -0.04900
H 	H 	0.38070 0.21950 0.72910 0.04300
C 	C 	0.37380 0.15580 0.83190 0.04100
H 	H 	0.34560 0.15150 0.83370 0.00600
C 	C 	0.51070 0.14680 0.86500 0.13500
C 	C 	0.52202 0.19620 0.88770 -0.18200
H 	H 	0.50580 0.21680 0.93090 0.08700
C 	C 	0.55729 0.21410 0.84560 0.09400
H 	H 	0.56480 0.24750 0.86060 -0.02400
C 	C 	0.53667 0.11820 0.80430 -0.18300
H 	H 	0.53070 0.08440 0.78840 0.08800
C 	C 	0.57100 0.13980 0.76790 0.09200
H 	H 	0.58880 0.12000 0.72750 -0.01900
C 	C 	0.64330 0.51660 0.34210 0.02600
H 	H 	0.64420 0.54630 0.30090 0.01300
C 	C 	0.65640 0.46990 0.30340 -0.03900
H 	H 	0.66560 0.46250 0.23320 0.03600
C 	C 	0.65270 0.43760 0.38880 -0.10500
H 	H 	0.65980 0.40350 0.39010 0.06700
C 	C 	0.63600 0.46570 0.47610 0.11700
C 	C 	0.62550 0.44850 0.57700 -0.15800
C 	C 	0.60867 0.47520 0.65670 0.10900
C 	C 	0.59770 0.45860 0.76410 -0.09700
H 	H 	0.60070 0.42610 0.79290 0.05900
C 	C 	0.58220 0.49980 0.81590 -0.05300
H 	H 	0.57150 0.50070 0.88630 0.04100
C 	C 	0.58530 0.53890 0.74550 0.03300
H 	H 	0.57710 0.57160 0.76280 0.01000
C 	C 	0.63350 0.39470 0.60160 0.13900
C 	C 	0.66170 0.37920 0.67640 -0.18700
H 	H 	0.67810 0.40320 0.71220 0.08800
C 	C 	0.66700 0.32980 0.70130 0.08900
H 	H 	0.68650 0.32070 0.75470 -0.02100
C 	C 	0.61260 0.35710 0.54440 -0.17900
H 	H 	0.59470 0.36550 0.48630 0.09100
C 	C 	0.61820 0.30820 0.57240 0.08000
H 	H 	0.60300 0.28340 0.53560 -0.02200
C 	C 	0.31650 0.05150 0.82560 0.02000
H 	H 	0.33200 0.03470 0.77380 0.01500
C 	C 	0.27410 0.05770 0.81620 -0.03700
H 	H 	0.25690 0.04610 0.75940 0.03500
C 	C 	0.26320 0.08460 0.90820 -0.10800
H 	H 	0.23700 0.09440 0.92700 0.07000
C 	C 	0.29985 0.09420 0.96770 0.11800
C 	C 	0.30385 0.12260 0.06100 -0.15500
C 	C 	0.34062 0.13420 0.11300 0.11800
C 	C 	0.34680 0.16500 0.20660 -0.10700
H 	H 	0.32680 0.18140 0.24630 0.06500
C 	C 	0.38680 0.16620 0.22730 -0.03900
H 	H 	0.40040 0.18450 0.28270 0.03800
C 	C 	0.40448 0.13490 0.15100 0.02600
H 	H 	0.43240 0.12860 0.14720 0.01300
C 	C 	0.26684 0.14590 0.10530 0.14200
C 	C 	0.25390 0.13210 0.20490 -0.18200
H 	H 	0.26770 0.10760 0.24680 0.08900
C 	C 	0.21960 0.15530 0.24240 0.08400
H 	H 	0.21090 0.14660 0.31240 -0.02000
C 	C 	0.24510 0.18080 0.04380 -0.17900
H 	H 	0.25290 0.18950 0.97290 0.08600
C 	C 	0.21187 0.20240 0.08960 0.09300
H 	H 	0.19830 0.22800 0.05030 -0.02400
C 	C 	0.91898 0.04460 0.23750 0.02100
H 	H 	0.92770 0.07770 0.24940 0.01400
C 	C 	0.92240 0.00670 0.31280 -0.04000
H 	H 	0.93400 0.00920 0.38350 0.03700
C 	C 	0.90590 0.96460 0.26590 -0.10600
H 	H 	0.90330 0.93290 0.29880 0.06300
C 	C 	0.89332 0.97810 0.15810 0.11700
C 	C 	0.87500 0.94770 0.08160 -0.16400
C 	C 	0.86339 0.96200 0.97670 0.12200
C 	C 	0.84553 0.93180 0.89450 -0.10800
H 	H 	0.83920 0.89750 0.89960 0.06500
C 	C 	0.83934 0.96160 0.80730 -0.03800
H 	H 	0.82710 0.95230 0.74010 0.03400
C 	C 	0.85427 0.00830 0.83450 0.02700
H 	H 	0.85420 0.03590 0.78680 0.01100
C 	C 	0.86706 0.89540 0.11460 0.15000
C 	C 	0.84020 0.88350 0.19090 -0.20400
H 	H 	0.82480 0.90830 0.22530 0.09500
C 	C 	0.83602 0.83300 0.21710 0.11300
H 	H 	0.81750 0.82500 0.27130 -0.02900
C 	C 	0.88860 0.85660 0.06400 -0.18800
H 	H 	0.90750 0.86340 0.01000 0.09400
C 	C 	0.88059 0.80830 0.09730 0.08700
H 	H 	0.89420 0.78180 0.06330 -0.02400
C 	C 	0.89815 0.12950 0.82720 0.02600
H 	H 	0.92630 0.12460 0.83030 0.01300
C 	C 	0.87720 0.15900 0.74850 -0.03700
H 	H 	0.88860 0.17690 0.69060 0.03700
C 	C 	0.83770 0.15630 0.77290 -0.11100
H 	H 	0.81640 0.17300 0.73610 0.06600
C 	C 	0.83414 0.12490 0.86070 0.11400
C 	C 	0.79965 0.11270 0.91800 -0.15300
C 	C 	0.79808 0.08850 0.01440 0.10800
C 	C 	0.76380 0.07790 0.07840 -0.09900
H 	H 	0.73670 0.08450 0.05860 0.06700
C 	C 	0.77730 0.05650 0.17310 -0.04500
H 	H 	0.76160 0.04610 0.23180 0.03800
C 	C 	0.81916 0.05310 0.16600 0.03400
H 	H 	0.83620 0.04000 0.22180 0.01000
C 	C 	0.76139 0.13260 0.87080 0.13800
C 	C 	0.74080 0.16920 0.92700 -0.18100
H 	H 	0.75050 0.18040 0.99570 0.08900
C 	C 	0.70591 0.18910 0.88080 0.09400
H 	H 	0.69170 0.21320 0.92060 -0.02500
C 	C 	0.74589 0.11730 0.77050 -0.17900
H 	H 	0.75880 0.09240 0.72990 0.08800
C 	C 	0.71092 0.13980 0.73160 0.08500
H 	H 	0.70000 0.12910 0.66380 -0.01800
C 	C 	0.95265 0.02770 0.89500 0.02900
H 	H 	0.93550 0.00500 0.85740 0.00900
C 	C 	0.99447 0.03140 0.87880 -0.03800
H 	H 	0.00980 0.01280 0.82920 0.04200
C 	C 	0.00794 0.06640 0.94770 -0.09900
H 	H 	0.03500 0.07670 0.95730 0.06500
C 	C 	0.97424 0.08550 0.00470 0.11000
C 	C 	0.97292 0.12590 0.07400 -0.15200
C 	C 	0.93865 0.14720 0.11520 0.11300
C 	C 	0.93470 0.19060 0.18100 -0.10400
H 	H 	0.95590 0.21090 0.20820 0.06400
C 	C 	0.89550 0.19730 0.19740 -0.04000
H 	H 	0.88380 0.22360 0.23660 0.04000
C 	C 	0.87490 0.15750 0.14490 0.02800
H 	H 	0.84670 0.15240 0.14550 0.01000
C 	C 	0.01194 0.14900 0.11410 0.13400
C 	C 	0.03889 0.12060 0.17580 -0.18000
H 	H 	0.03330 0.08690 0.19220 0.08800
C 	C 	0.07433 0.14300 0.21290 0.08800
H 	H 	0.09240 0.12390 0.25660 -0.01800
C 	C 	0.02269 0.19690 0.08410 -0.18000
H 	H 	0.00610 0.21620 0.03660 0.08700
C 	C 	0.05832 0.21540 0.12610 0.08400
H 	H 	0.06520 0.24860 0.10860 -0.01900
N 	N 	0.44178 0.06195 0.01770 -0.25600
N 	N 	0.39932 0.12799 0.88310 -0.25900
N 	N 	0.58077 0.18702 0.78600 -0.20600
N 	N 	0.62976 0.51439 0.44270 -0.25500
N 	N 	0.60098 0.52691 0.65040 -0.25900
N 	N 	0.64514 0.29426 0.65180 -0.20600
N 	N 	0.33188 0.07246 0.91730 -0.25800
N 	N 	0.37661 0.11550 0.08460 -0.26000
N 	N 	0.19802 0.18940 0.18530 -0.20600
N 	N 	0.90142 0.02790 0.14460 -0.25500
N 	N 	0.86862 0.00930 0.93590 -0.25500
N 	N 	0.85470 0.79705 0.17500 -0.21500
N 	N 	0.87263 0.10987 0.89560 -0.25600
N 	N 	0.83204 0.07010 0.07300 -0.25500
N 	N 	0.69155 0.17607 0.78480 -0.20500
N 	N 	0.94018 0.05966 0.96860 -0.25800
N 	N 	0.90054 0.12869 0.09520 -0.25600
N 	N 	0.08414 0.18928 0.19050 -0.20400
