data_crystal

_cell_length_a 14.88200
_cell_length_b 31.20340
_cell_length_c 36.96090
_cell_angle_alpha 113.68900
_cell_angle_beta  99.13030
_cell_angle_gamma 95.79770

_symmetry_space_group_name_	'P 1'
_symmetry_space_group_name_H-M	'P 1'

loop_
_symmetry_equiv_pos_as_xyz
  x,y,z

loop_
_atom_site_label
_atom_site_type_symbol
_atom_site_fract_x
_atom_site_fract_y
_atom_site_fract_z
_atom_site_charge
Fe	Fe	0.93835 0.32725 0.94812 1.18300
Fe	Fe	0.64832 0.55516 0.44250 1.18200
Fe	Fe	0.50977 0.62087 0.94812 1.18300
Fe	Fe	0.29418 0.88734 0.44250 1.18200
Fe	Fe	0.21712 0.96712 0.93424 1.18400
Fe	Fe	0.96044 0.21044 0.42088 1.18200
Ag	Ag	0.05517 0.46918 0.24746 0.52100
Ag	Ag	0.72474 0.70194 0.74166 0.52000
Ag	Ag	0.69229 0.77828 0.24746 0.52000
Ag	Ag	0.51692 0.03972 0.74166 0.51900
Ag	Ag	0.36723 0.11723 0.23446 0.52200
Ag	Ag	0.10938 0.35938 0.71876 0.52200
H 	H 	0.96570 0.21940 0.91560 0.01000
H 	H 	0.01400 0.17510 0.85080 0.03700
H 	H 	0.05540 0.23410 0.82320 0.06200
H 	H 	0.09640 0.42770 0.89060 0.06200
H 	H 	0.08010 0.48570 0.95700 0.04000
H 	H 	0.00810 0.43920 0.99060 0.01200
H 	H 	0.93640 0.30200 0.80340 0.10300
H 	H 	0.97050 0.30670 0.74640 -0.03300
H 	H 	0.22760 0.35900 0.79900 -0.02800
H 	H 	0.20130 0.35680 0.85780 0.10100
H 	H 	0.53210 0.51430 0.89600 0.01000
H 	H 	0.58390 0.48810 0.82920 0.03600
H 	H 	0.62680 0.56030 0.81860 0.06500
H 	H 	0.68980 0.74700 0.92140 0.06400
H 	H 	0.66540 0.78850 0.99280 0.03900
H 	H 	0.58690 0.72730 0.00920 0.00900
H 	H 	0.52130 0.64230 0.81860 0.09200
H 	H 	0.56180 0.66070 0.76840 -0.02500
H 	H 	0.82350 0.69780 0.82400 -0.01700
H 	H 	0.78880 0.68120 0.87700 0.08700
H 	H 	0.77140 0.38060 0.95480 0.00900
H 	H 	0.72960 0.43380 0.01900 0.04700
H 	H 	0.84770 0.43530 0.07600 0.06300
H 	H 	0.16800 0.36660 0.07920 0.06600
H 	H 	0.23770 0.31530 0.02500 0.04600
H 	H 	0.12680 0.29330 0.95880 0.01100
H 	H 	0.00690 0.34300 0.10080 0.09200
H 	H 	0.02590 0.37650 0.17000 -0.02900
H 	H 	0.05770 0.50480 0.17700 -0.02400
H 	H 	0.03150 0.47640 0.10820 0.09300
H 	H 	0.69840 0.45270 0.39640 0.01100
H 	H 	0.60510 0.39030 0.32920 0.03300
H 	H 	0.46430 0.42030 0.31220 0.05600
H 	H 	0.31840 0.57090 0.40080 0.06500
H 	H 	0.38200 0.63950 0.46920 0.03800
H 	H 	0.54260 0.63190 0.49380 0.01300
H 	H 	0.31280 0.42980 0.33980 0.08700
H 	H 	0.17940 0.41110 0.28980 -0.02200
H 	H 	0.25260 0.53090 0.27960 -0.01900
H 	H 	0.38610 0.55270 0.33020 0.08600
H 	H 	0.80090 0.52880 0.49360 0.01000
H 	H 	0.94310 0.50010 0.47240 0.03800
H 	H 	0.94300 0.50180 0.40520 0.06500
H 	H 	0.72330 0.56990 0.31780 0.05600
H 	H 	0.58880 0.61270 0.33280 0.03600
H 	H 	0.55670 0.61240 0.39660 0.00900
H 	H 	0.79560 0.45350 0.32100 0.09500
H 	H 	0.88060 0.43230 0.27220 -0.02800
H 	H 	0.00590 0.56330 0.31040 -0.03200
H 	H 	0.92190 0.59010 0.36060 0.09300
H 	H 	0.73150 0.65620 0.45360 0.00600
H 	H 	0.77350 0.72980 0.51820 0.04500
H 	H 	0.75180 0.70540 0.57320 0.06600
H 	H 	0.63750 0.53360 0.57100 0.06700
H 	H 	0.58470 0.45250 0.51480 0.04500
H 	H 	0.58540 0.46160 0.45000 0.00900
H 	H 	0.83630 0.64120 0.60620 0.09100
H 	H 	0.84840 0.67380 0.67500 -0.01700
H 	H 	0.57700 0.66130 0.65980 -0.02400
H 	H 	0.56080 0.62670 0.59080 0.09400
H 	H 	0.73170 0.81570 0.80460 -0.03200
H 	H 	0.83920 0.87890 0.85400 0.09700
H 	H 	0.04020 0.81060 0.80880 0.09400
H 	H 	0.92620 0.75050 0.76100 -0.02700
H 	H 	0.98730 0.81690 0.89500 0.06700
H 	H 	0.08680 0.83030 0.96040 0.03400
H 	H 	0.20270 0.90550 0.98340 0.01400
H 	H 	0.95960 0.92400 0.81080 0.06200
H 	H 	0.03860 0.00570 0.82620 0.03600
H 	H 	0.16460 0.03150 0.88860 0.01000
H 	H 	0.39520 0.92310 0.94240 0.01400
H 	H 	0.50360 0.93930 0.00900 0.04100
H 	H 	0.43410 0.99100 0.06400 0.06700
H 	H 	0.40280 0.09050 0.09000 0.09000
H 	H 	0.43160 0.12520 0.16020 -0.02000
H 	H 	0.34130 0.21930 0.30000 -0.03300
H 	H 	0.24940 0.24710 0.34720 0.09600
H 	H 	0.07480 0.12140 0.28920 0.09200
H 	H 	0.17230 0.09620 0.24360 -0.02400
H 	H 	0.85140 0.26420 0.37540 0.01400
H 	H 	0.88600 0.27050 0.31260 0.03300
H 	H 	0.02220 0.23220 0.29760 0.06500
H 	H 	0.25600 0.16500 0.38020 0.06500
H 	H 	0.26350 0.15890 0.44540 0.03600
H 	H 	0.11870 0.18330 0.46960 0.01100
H 	H 	0.02460 0.31350 0.42940 0.01100
H 	H 	0.06870 0.38780 0.49520 0.04200
H 	H 	0.06440 0.36250 0.55060 0.06600
H 	H 	0.17470 0.29740 0.57660 0.08900
H 	H 	0.20720 0.33100 0.64620 -0.01900
H 	H 	0.44990 0.69620 0.91560 0.01000
H 	H 	0.33680 0.67570 0.85080 0.03700
H 	H 	0.26780 0.58910 0.82320 0.06200
H 	H 	0.29420 0.46290 0.89060 0.06200
H 	H 	0.37690 0.47130 0.95700 0.04000
H 	H 	0.48250 0.55140 0.99060 0.01200
H 	H 	0.36700 0.50140 0.80340 0.10300
H 	H 	0.27590 0.43970 0.74640 -0.03200
H 	H 	0.07140 0.44000 0.79900 -0.02800
H 	H 	0.15650 0.50100 0.85780 0.10100
H 	H 	0.86390 0.38170 0.89600 0.01000
H 	H 	0.74530 0.34110 0.82920 0.03600
H 	H 	0.69180 0.25830 0.81860 0.06500
H 	H 	0.73160 0.17440 0.92140 0.06400
H 	H 	0.82740 0.20430 0.99280 0.03900
H 	H 	0.92230 0.28190 0.00920 0.01000
H 	H 	0.79730 0.17630 0.81860 0.09200
H 	H 	0.70660 0.10770 0.76840 -0.02500
H 	H 	0.50050 0.12620 0.82400 -0.01700
H 	H 	0.58820 0.19580 0.87700 0.08700
H 	H 	0.68340 0.57420 0.95480 0.00900
H 	H 	0.78940 0.58520 0.01900 0.04700
H 	H 	0.72830 0.64070 0.07600 0.06300
H 	H 	0.41120 0.71260 0.07920 0.06600
H 	H 	0.28730 0.70970 0.02500 0.04600
H 	H 	0.33200 0.66550 0.95880 0.01100
H 	H 	0.59390 0.75780 0.10080 0.09200
H 	H 	0.64410 0.79350 0.17000 -0.02900
H 	H 	0.61930 0.67220 0.17700 -0.02400
H 	H 	0.57670 0.63180 0.10820 0.09300
H 	H 	0.19800 0.94370 0.39640 0.01100
H 	H 	0.22410 0.93890 0.32920 0.03300
H 	H 	0.34790 0.89190 0.31220 0.05600
H 	H 	0.58240 0.82990 0.40080 0.06500
H 	H 	0.58720 0.82970 0.46920 0.03800
H 	H 	0.45120 0.86190 0.49380 0.01300
H 	H 	0.52700 0.91000 0.33980 0.08700
H 	H 	0.61040 0.87870 0.28980 -0.02200
H 	H 	0.52700 0.74870 0.27960 -0.01900
H 	H 	0.44410 0.77750 0.33020 0.08600
H 	H 	0.19270 0.96480 0.49360 0.01000
H 	H 	0.02930 0.97230 0.47240 0.03700
H 	H 	0.96220 0.90340 0.40520 0.06600
H 	H 	0.09450 0.74790 0.31780 0.05600
H 	H 	0.24400 0.72010 0.33280 0.03600
H 	H 	0.33990 0.78420 0.39660 0.00900
H 	H 	0.02540 0.86750 0.32100 0.09400
H 	H 	0.89160 0.83990 0.27220 -0.02700
H 	H 	0.80450 0.74710 0.31040 -0.03200
H 	H 	0.93870 0.77050 0.36060 0.09300
H 	H 	0.22210 0.79740 0.45360 0.00600
H 	H 	0.24470 0.78840 0.51820 0.04500
H 	H 	0.32140 0.86780 0.57320 0.06600
H 	H 	0.43350 0.03740 0.57100 0.06700
H 	H 	0.43010 0.06230 0.51480 0.04500
H 	H 	0.36460 0.98840 0.45000 0.00900
H 	H 	0.26990 0.96500 0.60620 0.09100
H 	H 	0.32660 0.00120 0.67500 -0.01700
H 	H 	0.58280 0.99850 0.65980 -0.02400
H 	H 	0.53000 0.96410 0.59080 0.09400
H 	H 	0.57290 0.98890 0.80460 -0.03200
H 	H 	0.51480 0.97510 0.85400 0.09700
H 	H 	0.26860 0.99820 0.80880 0.09400
H 	H 	0.33480 0.01050 0.76100 -0.02800
H 	H 	0.40770 0.07810 0.89500 0.06700
H 	H 	0.37360 0.13010 0.96040 0.03400
H 	H 	0.28070 0.07790 0.98340 0.01400
H 	H 	0.35120 0.88680 0.81080 0.06300
H 	H 	0.28760 0.82050 0.82620 0.03500
H 	H 	0.22400 0.85710 0.88860 0.01100
H 	H 	0.04720 0.01930 0.94240 0.01400
H 	H 	0.00540 0.06970 0.00900 0.04200
H 	H 	0.12990 0.07300 0.06400 0.06700
H 	H 	0.18720 0.99950 0.09000 0.09000
H 	H 	0.22860 0.03500 0.16020 -0.02000
H 	H 	0.45870 0.08070 0.30000 -0.03300
H 	H 	0.59780 0.10010 0.34720 0.09600
H 	H 	0.71440 0.16780 0.28920 0.09200
H 	H 	0.57130 0.14740 0.24360 -0.02400
H 	H 	0.02400 0.11120 0.37540 0.01500
H 	H 	0.92660 0.04210 0.31260 0.03300
H 	H 	0.77540 0.06540 0.29760 0.06500
H 	H 	0.62420 0.21520 0.38020 0.06500
H 	H 	0.68190 0.28650 0.44540 0.03600
H 	H 	0.85090 0.28630 0.46960 0.01100
H 	H 	0.90480 0.11590 0.42940 0.01100
H 	H 	0.92650 0.10740 0.49520 0.04200
H 	H 	0.98620 0.18810 0.55060 0.06600
H 	H 	0.90190 0.27920 0.57660 0.08900
H 	H 	0.93900 0.31520 0.64620 -0.01900
C 	C 	0.98435 0.23335 0.89870 0.03400
C 	C 	0.01169 0.20819 0.86258 -0.04500
C 	C 	0.03432 0.24032 0.84744 -0.10700
C 	C 	0.01984 0.28474 0.87528 0.11900
C 	C 	0.04195 0.32925 0.87530 -0.16800
C 	C 	0.04298 0.37278 0.90616 0.11200
C 	C 	0.07316 0.42016 0.91032 -0.10300
C 	C 	0.06345 0.45205 0.94630 -0.04100
C 	C 	0.02346 0.42556 0.96492 0.02200
C 	C 	0.06759 0.32929 0.83758 0.17600
C 	C 	0.99773 0.31393 0.80346 -0.22000
C 	C 	0.01947 0.31647 0.76954 0.12400
C 	C 	0.16710 0.34660 0.79960 0.11500
C 	C 	0.15146 0.34566 0.83492 -0.22500
C 	C 	0.55384 0.53494 0.88488 0.03000
C 	C 	0.58238 0.51988 0.84696 -0.04100
C 	C 	0.60662 0.55922 0.84144 -0.10500
C 	C 	0.59644 0.59894 0.87628 0.11500
C 	C 	0.62236 0.64626 0.88552 -0.16000
C 	C 	0.62258 0.68348 0.92216 0.11400
C 	C 	0.66099 0.73269 0.93598 -0.10500
C 	C 	0.64751 0.75551 0.97542 -0.04600
C 	C 	0.60357 0.72117 0.98414 0.02600
C 	C 	0.65024 0.65814 0.85308 0.14500
C 	C 	0.58457 0.65307 0.82034 -0.18900
C 	C 	0.60943 0.66343 0.79006 0.09500
C 	C 	0.76138 0.68518 0.82236 0.08800
C 	C 	0.74099 0.67569 0.85438 -0.18100
C 	C 	0.80618 0.38858 0.98116 0.03100
C 	C 	0.78111 0.41791 0.01682 -0.04500
C 	C 	0.84611 0.41901 0.04782 -0.10200
C 	C 	0.91093 0.39103 0.03026 0.11400
C 	C 	0.99123 0.38433 0.05106 -0.16100
C 	C 	0.05541 0.35861 0.03262 0.11200
C 	C 	0.14168 0.35298 0.05096 -0.10500
C 	C 	0.17969 0.32509 0.02158 -0.04200
C 	C 	0.11694 0.31304 0.98468 0.03200
C 	C 	0.01047 0.40637 0.09554 0.15300
C 	C 	0.01353 0.37653 0.11546 -0.19600
C 	C 	0.02643 0.39733 0.15706 0.11100
C 	C 	0.04372 0.47132 0.16104 0.10200
C 	C 	0.02909 0.45459 0.12018 -0.19900
C 	C 	0.64016 0.45476 0.38292 0.02700
C 	C 	0.58864 0.41964 0.34508 -0.04300
C 	C 	0.51148 0.43588 0.33616 -0.10000
C 	C 	0.51280 0.48080 0.36900 0.11000
C 	C 	0.44544 0.50834 0.37408 -0.15400
C 	C 	0.44848 0.55018 0.40936 0.11200
C 	C 	0.37797 0.57717 0.41754 -0.10800
C 	C 	0.41353 0.61513 0.45526 -0.04100
C 	C 	0.50292 0.61062 0.46864 0.02000
C 	C 	0.36116 0.49346 0.34132 0.13900
C 	C 	0.30053 0.45143 0.32826 -0.18300
C 	C 	0.22091 0.44021 0.29822 0.07800
C 	C 	0.26394 0.51044 0.29248 0.08000
C 	C 	0.34418 0.52388 0.32256 -0.17500
C 	C 	0.81882 0.52652 0.46944 0.02700
C 	C 	0.89823 0.51023 0.45786 -0.04200
C 	C 	0.89856 0.51156 0.42132 -0.10800
C 	C 	0.81958 0.53048 0.41216 0.12000
C 	C 	0.79279 0.53879 0.37818 -0.16300
C 	C 	0.71944 0.56084 0.37208 0.11400
C 	C 	0.69491 0.57541 0.34022 -0.10000
C 	C 	0.62113 0.59893 0.34846 -0.05000
C 	C 	0.60403 0.59833 0.38406 0.03200
C 	C 	0.84845 0.52425 0.34650 0.15400
C 	C 	0.83841 0.47721 0.31962 -0.20100
C 	C 	0.89049 0.46489 0.29078 0.10800
C 	C 	0.96231 0.54061 0.31282 0.09400
C 	C 	0.91246 0.55716 0.34292 -0.19800
C 	C 	0.72908 0.65698 0.47936 0.03600
C 	C 	0.75302 0.69852 0.51524 -0.04400
C 	C 	0.74099 0.68499 0.54518 -0.10300
C 	C 	0.70947 0.63517 0.52714 0.11400
C 	C 	0.68591 0.60731 0.54582 -0.16200
C 	C 	0.64967 0.55827 0.52574 0.11300
C 	C 	0.63085 0.52565 0.54290 -0.10200
C 	C 	0.60189 0.48119 0.51238 -0.04000
C 	C 	0.60285 0.48685 0.47630 0.02700
C 	C 	0.69560 0.62990 0.59060 0.15200
C 	C 	0.78188 0.64458 0.61676 -0.18900
C 	C 	0.78862 0.66382 0.65764 0.08800
C 	C 	0.63092 0.65642 0.64904 0.09800
C 	C 	0.62108 0.63628 0.60776 -0.19800
C 	C 	0.79555 0.81445 0.80570 0.10600
C 	C 	0.85936 0.85256 0.83532 -0.20500
C 	C 	0.95171 0.85191 0.83742 0.15600
C 	C 	0.97692 0.81262 0.80884 -0.19800
C 	C 	0.90804 0.77684 0.78068 0.10700
C 	C 	0.02601 0.88981 0.86922 -0.15800
C 	C 	0.06422 0.88222 0.90324 0.11700
C 	C 	0.03574 0.84314 0.91128 -0.11300
C 	C 	0.09056 0.85026 0.94672 -0.03200
C 	C 	0.15470 0.89290 0.95960 0.01500
C 	C 	0.05270 0.93130 0.86400 0.11300
C 	C 	0.00939 0.94339 0.83298 -0.10200
C 	C 	0.05267 0.98767 0.84114 -0.04500
C 	C 	0.12309 0.00189 0.87638 0.03000
C 	C 	0.38699 0.94279 0.96858 0.01800
C 	C 	0.44817 0.95137 0.00594 -0.03200
C 	C 	0.41049 0.97999 0.03578 -0.10700
C 	C 	0.32948 0.99088 0.01756 0.11600
C 	C 	0.36521 0.07891 0.10382 -0.18600
C 	C 	0.38210 0.09880 0.14560 0.09000
C 	C 	0.28780 0.19870 0.29840 0.10300
C 	C 	0.23275 0.21545 0.32650 -0.20100
C 	C 	0.15501 0.18651 0.32442 0.15400
C 	C 	0.13052 0.14182 0.29264 -0.18800
C 	C 	0.18896 0.12696 0.26552 0.09000
C 	C 	0.90063 0.25273 0.36306 0.02000
C 	C 	0.91945 0.25645 0.32770 -0.03500
C 	C 	0.99440 0.23580 0.31980 -0.11000
C 	C 	0.02435 0.22055 0.35050 0.12000
C 	C 	0.10007 0.20117 0.35674 -0.16700
C 	C 	0.13211 0.19141 0.38902 0.11600
C 	C 	0.21221 0.17311 0.39682 -0.10900
C 	C 	0.21596 0.16916 0.43212 -0.03800
C 	C 	0.13488 0.18348 0.44576 0.02500
C 	C 	0.02819 0.31419 0.45558 0.02400
C 	C 	0.05323 0.35613 0.49226 -0.03600
C 	C 	0.05065 0.34205 0.52250 -0.10200
C 	C 	0.02367 0.29107 0.50474 0.11300
C 	C 	0.12543 0.30043 0.59046 -0.18300
C 	C 	0.14458 0.32068 0.63176 0.08600
C 	C 	0.41435 0.66535 0.89870 0.03500
C 	C 	0.35089 0.65439 0.86258 -0.04600
C 	C 	0.31312 0.60712 0.84744 -0.10600
C 	C 	0.35544 0.59054 0.87528 0.11800
C 	C 	0.33335 0.54605 0.87530 -0.16800
C 	C 	0.36318 0.53338 0.90616 0.11200
C 	C 	0.33716 0.49016 0.91032 -0.10300
C 	C 	0.38285 0.49425 0.94630 -0.04100
C 	C 	0.44146 0.53936 0.96492 0.02200
C 	C 	0.26999 0.50829 0.83758 0.17400
C 	C 	0.30573 0.48953 0.80346 -0.21700
C 	C 	0.25007 0.45307 0.76954 0.12200
C 	C 	0.13250 0.45300 0.79960 0.11500
C 	C 	0.18346 0.48926 0.83492 -0.22400
C 	C 	0.83104 0.34994 0.88488 0.03000
C 	C 	0.76458 0.32708 0.84696 -0.04100
C 	C 	0.73482 0.28222 0.84144 -0.10500
C 	C 	0.77984 0.27734 0.87628 0.11500
C 	C 	0.76316 0.23926 0.88552 -0.16000
C 	C 	0.79958 0.23868 0.92216 0.11400
C 	C 	0.77499 0.20329 0.93598 -0.10500
C 	C 	0.82791 0.21991 0.97542 -0.04500
C 	C 	0.88057 0.26297 0.98414 0.02600
C 	C 	0.70284 0.19494 0.85308 0.14500
C 	C 	0.73577 0.16727 0.82034 -0.18900
C 	C 	0.68063 0.12663 0.79006 0.09500
C 	C 	0.56098 0.13718 0.82236 0.08800
C 	C 	0.61339 0.17869 0.85438 -0.18100
C 	C 	0.67498 0.59258 0.98116 0.03100
C 	C 	0.73571 0.59891 0.01682 -0.04500
C 	C 	0.70171 0.62881 0.04782 -0.10200
C 	C 	0.61933 0.63923 0.03026 0.11400
C 	C 	0.55983 0.66673 0.05106 -0.16200
C 	C 	0.47721 0.67401 0.03262 0.11300
C 	C 	0.40928 0.69798 0.05096 -0.10500
C 	C 	0.34189 0.69649 0.02158 -0.04100
C 	C 	0.36774 0.67164 0.98468 0.03200
C 	C 	0.58507 0.68917 0.09554 0.15400
C 	C 	0.60193 0.73893 0.11546 -0.19600
C 	C 	0.63063 0.75973 0.15706 0.11100
C 	C 	0.61732 0.68972 0.16104 0.10300
C 	C 	0.59109 0.66559 0.12018 -0.20000
C 	C 	0.24276 0.92816 0.38292 0.02700
C 	C 	0.25644 0.92544 0.34508 -0.04300
C 	C 	0.32468 0.90028 0.33616 -0.10000
C 	C 	0.35620 0.88820 0.36900 0.11000
C 	C 	0.42864 0.86574 0.37408 -0.15400
C 	C 	0.46088 0.85918 0.40936 0.11200
C 	C 	0.53957 0.84037 0.41754 -0.10800
C 	C 	0.54173 0.84013 0.45526 -0.04100
C 	C 	0.46572 0.85802 0.46864 0.02000
C 	C 	0.48016 0.84786 0.34132 0.13900
C 	C 	0.52773 0.87683 0.32826 -0.18300
C 	C 	0.57731 0.85801 0.29822 0.07800
C 	C 	0.52854 0.78204 0.29248 0.08000
C 	C 	0.47838 0.79868 0.32256 -0.17500
C 	C 	0.15062 0.94292 0.46944 0.02700
C 	C 	0.05963 0.94763 0.45786 -0.04100
C 	C 	0.02276 0.90976 0.42132 -0.11000
C 	C 	0.09258 0.88168 0.41216 0.12100
C 	C 	0.08539 0.83939 0.37818 -0.16300
C 	C 	0.15264 0.81124 0.37208 0.11400
C 	C 	0.14531 0.76481 0.34022 -0.10000
C 	C 	0.22733 0.74953 0.34846 -0.05000
C 	C 	0.28003 0.78573 0.38406 0.03200
C 	C 	0.99805 0.82225 0.34650 0.15400
C 	C 	0.98121 0.84241 0.31962 -0.20000
C 	C 	0.90029 0.82589 0.29078 0.10800
C 	C 	0.85051 0.77221 0.31282 0.09400
C 	C 	0.93046 0.78576 0.34292 -0.19800
C 	C 	0.25028 0.82238 0.47936 0.03600
C 	C 	0.26222 0.81672 0.51524 -0.04400
C 	C 	0.30419 0.86019 0.54518 -0.10300
C 	C 	0.31767 0.89197 0.52714 0.11400
C 	C 	0.35991 0.93851 0.54582 -0.16200
C 	C 	0.37607 0.96747 0.52574 0.11300
C 	C 	0.41205 0.01725 0.54290 -0.10200
C 	C 	0.41049 0.03119 0.51238 -0.04000
C 	C 	0.37345 0.98945 0.47630 0.02700
C 	C 	0.39500 0.96070 0.59060 0.15100
C 	C 	0.33488 0.97218 0.61676 -0.18900
C 	C 	0.36902 0.99382 0.65764 0.08800
C 	C 	0.51812 0.99262 0.64904 0.09800
C 	C 	0.48668 0.97148 0.60776 -0.19800
C 	C 	0.51015 0.99125 0.80570 0.10600
C 	C 	0.47596 0.98276 0.83532 -0.20500
C 	C 	0.38571 0.98551 0.83742 0.15600
C 	C 	0.33192 0.99622 0.80884 -0.19900
C 	C 	0.37264 0.00384 0.78068 0.10700
C 	C 	0.34321 0.97941 0.86922 -0.15800
C 	C 	0.33902 0.02102 0.90324 0.11700
C 	C 	0.37554 0.06814 0.91128 -0.11400
C 	C 	0.35616 0.09646 0.94672 -0.03200
C 	C 	0.30490 0.06670 0.95960 0.01500
C 	C 	0.31130 0.93270 0.86400 0.11300
C 	C 	0.32359 0.88959 0.83298 -0.10300
C 	C 	0.28847 0.85347 0.84114 -0.04300
C 	C 	0.25329 0.87449 0.87638 0.02800
C 	C 	0.08159 0.02579 0.96858 0.01800
C 	C 	0.05777 0.05457 0.00594 -0.03200
C 	C 	0.12529 0.05579 0.03578 -0.10700
C 	C 	0.18808 0.02668 0.01756 0.11500
C 	C 	0.23861 0.02491 0.10382 -0.18600
C 	C 	0.26350 0.04680 0.14560 0.09000
C 	C 	0.51060 0.09970 0.29840 0.10300
C 	C 	0.59375 0.11105 0.32650 -0.20100
C 	C 	0.66941 0.13791 0.32442 0.15400
C 	C 	0.66212 0.15082 0.29264 -0.18800
C 	C 	0.57656 0.13856 0.26552 0.09000
C 	C 	0.96243 0.11033 0.36306 0.02000
C 	C 	0.90825 0.07125 0.32770 -0.03500
C 	C 	0.82540 0.08400 0.31980 -0.11000
C 	C 	0.82615 0.12995 0.35050 0.12000
C 	C 	0.75667 0.15557 0.35674 -0.16700
C 	C 	0.75691 0.19761 0.38902 0.11600
C 	C 	0.68461 0.22371 0.39682 -0.10900
C 	C 	0.71616 0.26296 0.43212 -0.03800
C 	C 	0.81088 0.26228 0.44576 0.02500
C 	C 	0.92739 0.14139 0.45558 0.02400
C 	C 	0.93903 0.13613 0.49226 -0.03700
C 	C 	0.97185 0.18045 0.52250 -0.10200
C 	C 	0.98107 0.21367 0.50474 0.11200
C 	C 	0.96503 0.29003 0.59046 -0.18300
C 	C 	0.98718 0.31108 0.63176 0.08600
C 	C 	0.26827 0.01827 0.03654 -0.15600
C 	C 	0.29142 0.04142 0.08284 0.13900
C 	C 	0.01177 0.26177 0.52354 -0.16100
C 	C 	0.03428 0.28428 0.56856 0.14100
N 	N 	0.98759 0.27869 0.90658 -0.25400
N 	N 	0.01013 0.37833 0.94126 -0.25400
N 	N 	0.10103 0.33113 0.76646 -0.21600
N 	N 	0.56222 0.58152 0.90184 -0.25000
N 	N 	0.58675 0.67765 0.95290 -0.26000
N 	N 	0.69697 0.67707 0.78954 -0.20400
N 	N 	0.88404 0.37324 0.98848 -0.25900
N 	N 	0.04264 0.33264 0.99048 -0.25600
N 	N 	0.03929 0.44259 0.18018 -0.21200
N 	N 	0.59646 0.49136 0.39732 -0.24900
N 	N 	0.52596 0.57176 0.44100 -0.25800
N 	N 	0.20133 0.47033 0.28046 -0.19500
N 	N 	0.77138 0.53828 0.44236 -0.25900
N 	N 	0.66093 0.57623 0.39906 -0.25000
N 	N 	0.95308 0.49468 0.28696 -0.21000
N 	N 	0.70251 0.61871 0.48484 -0.25800
N 	N 	0.63173 0.53223 0.48388 -0.25500
N 	N 	0.71286 0.66936 0.67462 -0.20700
N 	N 	0.81877 0.77607 0.77854 -0.20500
N 	N 	0.13841 0.91331 0.93362 -0.25700
N 	N 	0.12365 0.96855 0.89010 -0.25100
N 	N 	0.31613 0.96683 0.97586 -0.25500
N 	N 	0.26767 0.15497 0.26954 -0.20800
N 	N 	0.96226 0.23096 0.37660 -0.24900
N 	N 	0.08516 0.19686 0.42052 -0.25700
N 	N 	0.00994 0.27534 0.46250 -0.25400
N 	N 	0.41899 0.62789 0.90658 -0.25300
N 	N 	0.43113 0.56293 0.94126 -0.25400
N 	N 	0.16543 0.43533 0.76646 -0.21600
N 	N 	0.83962 0.32032 0.90184 -0.25000
N 	N 	0.86615 0.27525 0.95290 -0.26000
N 	N 	0.59257 0.11247 0.78954 -0.20400
N 	N 	0.60444 0.61524 0.98848 -0.25900
N 	N 	0.44784 0.65784 0.99048 -0.25600
N 	N 	0.64089 0.73759 0.18018 -0.21200
N 	N 	0.30086 0.90596 0.39732 -0.24900
N 	N 	0.41504 0.86924 0.44100 -0.25800
N 	N 	0.57913 0.81013 0.28046 -0.19500
N 	N 	0.17098 0.90408 0.44236 -0.25900
N 	N 	0.23813 0.82283 0.39906 -0.25000
N 	N 	0.83388 0.79228 0.28696 -0.21000
N 	N 	0.28233 0.86613 0.48484 -0.25800
N 	N 	0.35215 0.95165 0.48388 -0.25500
N 	N 	0.46176 0.00526 0.67462 -0.20700
N 	N 	0.45977 0.00247 0.77854 -0.20500
N 	N 	0.29521 0.02031 0.93362 -0.25700
N 	N 	0.26645 0.92155 0.89010 -0.25000
N 	N 	0.15973 0.00903 0.97586 -0.25500
N 	N 	0.50187 0.11457 0.26954 -0.20800
N 	N 	0.91434 0.14564 0.37660 -0.24900
N 	N 	0.83536 0.22366 0.42052 -0.25800
N 	N 	0.95256 0.18716 0.46250 -0.25400
N 	N 	0.33344 0.08344 0.16688 -0.20600
N 	N 	0.07633 0.32633 0.65266 -0.20700
Fe	Fe	0.06165 0.67275 0.05188 1.18200
Fe	Fe	0.35168 0.44484 0.55750 1.18100
Fe	Fe	0.49023 0.37913 0.05188 1.18200
Fe	Fe	0.70582 0.11266 0.55750 1.18100
Fe	Fe	0.78288 0.03288 0.06576 1.18300
Fe	Fe	0.03956 0.78956 0.57912 1.18100
Ag	Ag	0.94483 0.53082 0.75254 0.52000
Ag	Ag	0.27526 0.29806 0.25834 0.51900
Ag	Ag	0.30771 0.22172 0.75254 0.52000
Ag	Ag	0.48308 0.96028 0.25834 0.51900
Ag	Ag	0.63277 0.88277 0.76554 0.52200
Ag	Ag	0.89062 0.64062 0.28124 0.52200
H 	H 	0.03430 0.78060 0.08440 0.01000
H 	H 	0.98600 0.82490 0.14920 0.03700
H 	H 	0.94460 0.76590 0.17680 0.06200
H 	H 	0.90360 0.57230 0.10940 0.06200
H 	H 	0.91990 0.51430 0.04300 0.04000
H 	H 	0.99190 0.56080 0.00940 0.01200
H 	H 	0.06360 0.69800 0.19660 0.10300
H 	H 	0.02950 0.69330 0.25360 -0.03300
H 	H 	0.77240 0.64100 0.20100 -0.02800
H 	H 	0.79870 0.64320 0.14220 0.10100
H 	H 	0.46790 0.48570 0.10400 0.01000
H 	H 	0.41610 0.51190 0.17080 0.03600
H 	H 	0.37320 0.43970 0.18140 0.06500
H 	H 	0.31020 0.25300 0.07860 0.06400
H 	H 	0.33460 0.21150 0.00720 0.03900
H 	H 	0.41310 0.27270 0.99080 0.00900
H 	H 	0.47870 0.35770 0.18140 0.09200
H 	H 	0.43820 0.33930 0.23160 -0.02500
H 	H 	0.17650 0.30220 0.17600 -0.01700
H 	H 	0.21120 0.31880 0.12300 0.08700
H 	H 	0.22860 0.61940 0.04520 0.00900
H 	H 	0.27040 0.56620 0.98100 0.04700
H 	H 	0.15230 0.56470 0.92400 0.06300
H 	H 	0.83200 0.63340 0.92080 0.06600
H 	H 	0.76230 0.68470 0.97500 0.04600
H 	H 	0.87320 0.70670 0.04120 0.01100
H 	H 	0.99310 0.65700 0.89920 0.09200
H 	H 	0.97410 0.62350 0.83000 -0.02900
H 	H 	0.94230 0.49520 0.82300 -0.02400
H 	H 	0.96850 0.52360 0.89180 0.09300
H 	H 	0.30160 0.54730 0.60360 0.01100
H 	H 	0.39490 0.60970 0.67080 0.03300
H 	H 	0.53570 0.57970 0.68780 0.05600
H 	H 	0.68160 0.42910 0.59920 0.06500
H 	H 	0.61800 0.36050 0.53080 0.03800
H 	H 	0.45740 0.36810 0.50620 0.01300
H 	H 	0.68720 0.57020 0.66020 0.08700
H 	H 	0.82060 0.58890 0.71020 -0.02200
H 	H 	0.74740 0.46910 0.72040 -0.01900
H 	H 	0.61390 0.44730 0.66980 0.08600
H 	H 	0.19910 0.47120 0.50640 0.01000
H 	H 	0.05690 0.49990 0.52760 0.03800
H 	H 	0.05700 0.49820 0.59480 0.06500
H 	H 	0.27670 0.43010 0.68220 0.05600
H 	H 	0.41120 0.38730 0.66720 0.03600
H 	H 	0.44330 0.38760 0.60340 0.00900
H 	H 	0.20440 0.54650 0.67900 0.09500
H 	H 	0.11940 0.56770 0.72780 -0.02800
H 	H 	0.99410 0.43670 0.68960 -0.03200
H 	H 	0.07810 0.40990 0.63940 0.09300
H 	H 	0.26850 0.34380 0.54640 0.00600
H 	H 	0.22650 0.27020 0.48180 0.04500
H 	H 	0.24820 0.29460 0.42680 0.06600
H 	H 	0.36250 0.46640 0.42900 0.06700
H 	H 	0.41530 0.54750 0.48520 0.04500
H 	H 	0.41460 0.53840 0.55000 0.00900
H 	H 	0.16370 0.35880 0.39380 0.09100
H 	H 	0.15160 0.32620 0.32500 -0.01700
H 	H 	0.42300 0.33870 0.34020 -0.02400
H 	H 	0.43920 0.37330 0.40920 0.09400
H 	H 	0.26830 0.18430 0.19540 -0.03200
H 	H 	0.16080 0.12110 0.14600 0.09700
H 	H 	0.95980 0.18940 0.19120 0.09400
H 	H 	0.07380 0.24950 0.23900 -0.02700
H 	H 	0.01270 0.18310 0.10500 0.06700
H 	H 	0.91320 0.16970 0.03960 0.03400
H 	H 	0.79730 0.09450 0.01660 0.01400
H 	H 	0.04040 0.07600 0.18920 0.06200
H 	H 	0.96140 0.99430 0.17380 0.03600
H 	H 	0.83540 0.96850 0.11140 0.01000
H 	H 	0.60480 0.07690 0.05760 0.01400
H 	H 	0.49640 0.06070 0.99100 0.04100
H 	H 	0.56590 0.00900 0.93600 0.06700
H 	H 	0.59720 0.90950 0.91000 0.09000
H 	H 	0.56840 0.87480 0.83980 -0.02000
H 	H 	0.65870 0.78070 0.70000 -0.03300
H 	H 	0.75060 0.75290 0.65280 0.09600
H 	H 	0.92520 0.87860 0.71080 0.09200
H 	H 	0.82770 0.90380 0.75640 -0.02400
H 	H 	0.14860 0.73580 0.62460 0.01400
H 	H 	0.11400 0.72950 0.68740 0.03300
H 	H 	0.97780 0.76780 0.70240 0.06500
H 	H 	0.74400 0.83500 0.61980 0.06500
H 	H 	0.73650 0.84110 0.55460 0.03600
H 	H 	0.88130 0.81670 0.53040 0.01100
H 	H 	0.97540 0.68650 0.57060 0.01100
H 	H 	0.93130 0.61220 0.50480 0.04200
H 	H 	0.93560 0.63750 0.44940 0.06600
H 	H 	0.82530 0.70260 0.42340 0.08900
H 	H 	0.79280 0.66900 0.35380 -0.01900
H 	H 	0.55010 0.30380 0.08440 0.01000
H 	H 	0.66320 0.32430 0.14920 0.03700
H 	H 	0.73220 0.41090 0.17680 0.06200
H 	H 	0.70580 0.53710 0.10940 0.06200
H 	H 	0.62310 0.52870 0.04300 0.04000
H 	H 	0.51750 0.44860 0.00940 0.01200
H 	H 	0.63300 0.49860 0.19660 0.10300
H 	H 	0.72410 0.56030 0.25360 -0.03200
H 	H 	0.92860 0.56000 0.20100 -0.02800
H 	H 	0.84350 0.49900 0.14220 0.10100
H 	H 	0.13610 0.61830 0.10400 0.01000
H 	H 	0.25470 0.65890 0.17080 0.03600
H 	H 	0.30820 0.74170 0.18140 0.06500
H 	H 	0.26840 0.82560 0.07860 0.06400
H 	H 	0.17260 0.79570 0.00720 0.03900
H 	H 	0.07770 0.71810 0.99080 0.01000
H 	H 	0.20270 0.82370 0.18140 0.09200
H 	H 	0.29340 0.89230 0.23160 -0.02500
H 	H 	0.49950 0.87380 0.17600 -0.01700
H 	H 	0.41180 0.80420 0.12300 0.08700
H 	H 	0.31660 0.42580 0.04520 0.00900
H 	H 	0.21060 0.41480 0.98100 0.04700
H 	H 	0.27170 0.35930 0.92400 0.06300
H 	H 	0.58880 0.28740 0.92080 0.06600
H 	H 	0.71270 0.29030 0.97500 0.04600
H 	H 	0.66800 0.33450 0.04120 0.01100
H 	H 	0.40610 0.24220 0.89920 0.09200
H 	H 	0.35590 0.20650 0.83000 -0.02900
H 	H 	0.38070 0.32780 0.82300 -0.02400
H 	H 	0.42330 0.36820 0.89180 0.09300
H 	H 	0.80200 0.05630 0.60360 0.01100
H 	H 	0.77590 0.06110 0.67080 0.03300
H 	H 	0.65210 0.10810 0.68780 0.05600
H 	H 	0.41760 0.17010 0.59920 0.06500
H 	H 	0.41280 0.17030 0.53080 0.03800
H 	H 	0.54880 0.13810 0.50620 0.01300
H 	H 	0.47300 0.09000 0.66020 0.08700
H 	H 	0.38960 0.12130 0.71020 -0.02200
H 	H 	0.47300 0.25130 0.72040 -0.01900
H 	H 	0.55590 0.22250 0.66980 0.08600
H 	H 	0.80730 0.03520 0.50640 0.01000
H 	H 	0.97070 0.02770 0.52760 0.03700
H 	H 	0.03780 0.09660 0.59480 0.06600
H 	H 	0.90550 0.25210 0.68220 0.05600
H 	H 	0.75600 0.27990 0.66720 0.03600
H 	H 	0.66010 0.21580 0.60340 0.00900
H 	H 	0.97460 0.13250 0.67900 0.09400
H 	H 	0.10840 0.16010 0.72780 -0.02700
H 	H 	0.19550 0.25290 0.68960 -0.03200
H 	H 	0.06130 0.22950 0.63940 0.09300
H 	H 	0.77790 0.20260 0.54640 0.00600
H 	H 	0.75530 0.21160 0.48180 0.04500
H 	H 	0.67860 0.13220 0.42680 0.06600
H 	H 	0.56650 0.96260 0.42900 0.06700
H 	H 	0.56990 0.93770 0.48520 0.04500
H 	H 	0.63540 0.01160 0.55000 0.00900
H 	H 	0.73010 0.03500 0.39380 0.09100
H 	H 	0.67340 0.99880 0.32500 -0.01700
H 	H 	0.41720 0.00150 0.34020 -0.02400
H 	H 	0.47000 0.03590 0.40920 0.09400
H 	H 	0.42710 0.01110 0.19540 -0.03200
H 	H 	0.48520 0.02490 0.14600 0.09700
H 	H 	0.73140 0.00180 0.19120 0.09400
H 	H 	0.66520 0.98950 0.23900 -0.02800
H 	H 	0.59230 0.92190 0.10500 0.06700
H 	H 	0.62640 0.86990 0.03960 0.03400
H 	H 	0.71930 0.92210 0.01660 0.01400
H 	H 	0.64880 0.11320 0.18920 0.06300
H 	H 	0.71240 0.17950 0.17380 0.03500
H 	H 	0.77600 0.14290 0.11140 0.01100
H 	H 	0.95280 0.98070 0.05760 0.01400
H 	H 	0.99460 0.93030 0.99100 0.04200
H 	H 	0.87010 0.92700 0.93600 0.06700
H 	H 	0.81280 0.00050 0.91000 0.09000
H 	H 	0.77140 0.96500 0.83980 -0.02000
H 	H 	0.54130 0.91930 0.70000 -0.03300
H 	H 	0.40220 0.89990 0.65280 0.09600
H 	H 	0.28560 0.83220 0.71080 0.09200
H 	H 	0.42870 0.85260 0.75640 -0.02400
H 	H 	0.97600 0.88880 0.62460 0.01500
H 	H 	0.07340 0.95790 0.68740 0.03300
H 	H 	0.22460 0.93460 0.70240 0.06500
H 	H 	0.37580 0.78480 0.61980 0.06500
H 	H 	0.31810 0.71350 0.55460 0.03600
H 	H 	0.14910 0.71370 0.53040 0.01100
H 	H 	0.09520 0.88410 0.57060 0.01100
H 	H 	0.07350 0.89260 0.50480 0.04200
H 	H 	0.01380 0.81190 0.44940 0.06600
H 	H 	0.09810 0.72080 0.42340 0.08900
H 	H 	0.06100 0.68480 0.35380 -0.01900
C 	C 	0.01565 0.76665 0.10130 0.03400
C 	C 	0.98831 0.79181 0.13742 -0.04500
C 	C 	0.96568 0.75968 0.15256 -0.10700
C 	C 	0.98016 0.71526 0.12472 0.11900
C 	C 	0.95805 0.67075 0.12470 -0.16800
C 	C 	0.95702 0.62722 0.09384 0.11200
C 	C 	0.92684 0.57984 0.08968 -0.10300
C 	C 	0.93655 0.54795 0.05370 -0.04100
C 	C 	0.97654 0.57444 0.03508 0.02200
C 	C 	0.93241 0.67071 0.16242 0.17600
C 	C 	0.00227 0.68607 0.19654 -0.22000
C 	C 	0.98053 0.68353 0.23046 0.12400
C 	C 	0.83290 0.65340 0.20040 0.11500
C 	C 	0.84854 0.65434 0.16508 -0.22500
C 	C 	0.44616 0.46506 0.11512 0.03000
C 	C 	0.41762 0.48012 0.15304 -0.04100
C 	C 	0.39338 0.44078 0.15856 -0.10500
C 	C 	0.40356 0.40106 0.12372 0.11500
C 	C 	0.37764 0.35374 0.11448 -0.16000
C 	C 	0.37742 0.31652 0.07784 0.11400
C 	C 	0.33901 0.26731 0.06402 -0.10500
C 	C 	0.35249 0.24449 0.02458 -0.04600
C 	C 	0.39643 0.27883 0.01586 0.02600
C 	C 	0.34976 0.34186 0.14692 0.14500
C 	C 	0.41543 0.34693 0.17966 -0.18900
C 	C 	0.39057 0.33657 0.20994 0.09500
C 	C 	0.23862 0.31482 0.17764 0.08800
C 	C 	0.25901 0.32431 0.14562 -0.18100
C 	C 	0.19382 0.61142 0.01884 0.03100
C 	C 	0.21889 0.58209 0.98318 -0.04500
C 	C 	0.15389 0.58099 0.95218 -0.10200
C 	C 	0.08907 0.60897 0.96974 0.11400
C 	C 	0.00877 0.61567 0.94894 -0.16100
C 	C 	0.94459 0.64139 0.96738 0.11200
C 	C 	0.85832 0.64702 0.94904 -0.10500
C 	C 	0.82031 0.67491 0.97842 -0.04200
C 	C 	0.88306 0.68696 0.01532 0.03200
C 	C 	0.98953 0.59363 0.90446 0.15300
C 	C 	0.98647 0.62347 0.88454 -0.19600
C 	C 	0.97357 0.60267 0.84294 0.11100
C 	C 	0.95628 0.52868 0.83896 0.10200
C 	C 	0.97091 0.54541 0.87982 -0.19900
C 	C 	0.35984 0.54524 0.61708 0.02700
C 	C 	0.41136 0.58036 0.65492 -0.04300
C 	C 	0.48852 0.56412 0.66384 -0.10000
C 	C 	0.48720 0.51920 0.63100 0.11000
C 	C 	0.55456 0.49166 0.62592 -0.15400
C 	C 	0.55152 0.44982 0.59064 0.11200
C 	C 	0.62203 0.42283 0.58246 -0.10800
C 	C 	0.58647 0.38487 0.54474 -0.04100
C 	C 	0.49708 0.38938 0.53136 0.02000
C 	C 	0.63884 0.50654 0.65868 0.13900
C 	C 	0.69947 0.54857 0.67174 -0.18300
C 	C 	0.77909 0.55979 0.70178 0.07800
C 	C 	0.73606 0.48956 0.70752 0.08000
C 	C 	0.65582 0.47612 0.67744 -0.17500
C 	C 	0.18118 0.47348 0.53056 0.02700
C 	C 	0.10177 0.48977 0.54214 -0.04200
C 	C 	0.10144 0.48844 0.57868 -0.10800
C 	C 	0.18042 0.46952 0.58784 0.12000
C 	C 	0.20721 0.46121 0.62182 -0.16300
C 	C 	0.28056 0.43916 0.62792 0.11400
C 	C 	0.30509 0.42459 0.65978 -0.10000
C 	C 	0.37887 0.40107 0.65154 -0.05000
C 	C 	0.39597 0.40167 0.61594 0.03200
C 	C 	0.15155 0.47575 0.65350 0.15400
C 	C 	0.16159 0.52279 0.68038 -0.20100
C 	C 	0.10951 0.53511 0.70922 0.10800
C 	C 	0.03769 0.45939 0.68718 0.09400
C 	C 	0.08754 0.44284 0.65708 -0.19800
C 	C 	0.27092 0.34302 0.52064 0.03600
C 	C 	0.24698 0.30148 0.48476 -0.04400
C 	C 	0.25901 0.31501 0.45482 -0.10300
C 	C 	0.29053 0.36483 0.47286 0.11400
C 	C 	0.31409 0.39269 0.45418 -0.16200
C 	C 	0.35033 0.44173 0.47426 0.11300
C 	C 	0.36915 0.47435 0.45710 -0.10200
C 	C 	0.39811 0.51881 0.48762 -0.04000
C 	C 	0.39715 0.51315 0.52370 0.02700
C 	C 	0.30440 0.37010 0.40940 0.15200
C 	C 	0.21812 0.35542 0.38324 -0.18900
C 	C 	0.21138 0.33618 0.34236 0.08800
C 	C 	0.36908 0.34358 0.35096 0.09800
C 	C 	0.37892 0.36372 0.39224 -0.19800
C 	C 	0.20445 0.18555 0.19430 0.10600
C 	C 	0.14064 0.14744 0.16468 -0.20500
C 	C 	0.04829 0.14809 0.16258 0.15600
C 	C 	0.02308 0.18738 0.19116 -0.19800
C 	C 	0.09196 0.22316 0.21932 0.10700
C 	C 	0.97399 0.11019 0.13078 -0.15800
C 	C 	0.93578 0.11778 0.09676 0.11700
C 	C 	0.96426 0.15686 0.08872 -0.11300
C 	C 	0.90944 0.14974 0.05328 -0.03200
C 	C 	0.84530 0.10710 0.04040 0.01500
C 	C 	0.94730 0.06870 0.13600 0.11300
C 	C 	0.99061 0.05661 0.16702 -0.10200
C 	C 	0.94733 0.01233 0.15886 -0.04500
C 	C 	0.87691 0.99811 0.12362 0.03000
C 	C 	0.61301 0.05721 0.03142 0.01800
C 	C 	0.55183 0.04863 0.99406 -0.03200
C 	C 	0.58951 0.02001 0.96422 -0.10700
C 	C 	0.67052 0.00912 0.98244 0.11600
C 	C 	0.63479 0.92109 0.89618 -0.18600
C 	C 	0.61790 0.90120 0.85440 0.09000
C 	C 	0.71220 0.80130 0.70160 0.10300
C 	C 	0.76725 0.78455 0.67350 -0.20100
C 	C 	0.84499 0.81349 0.67558 0.15400
C 	C 	0.86948 0.85818 0.70736 -0.18800
C 	C 	0.81104 0.87304 0.73448 0.09000
C 	C 	0.09937 0.74727 0.63694 0.02000
C 	C 	0.08055 0.74355 0.67230 -0.03500
C 	C 	0.00560 0.76420 0.68020 -0.11000
C 	C 	0.97565 0.77945 0.64950 0.12000
C 	C 	0.89993 0.79883 0.64326 -0.16700
C 	C 	0.86789 0.80859 0.61098 0.11600
C 	C 	0.78779 0.82689 0.60318 -0.10900
C 	C 	0.78404 0.83084 0.56788 -0.03800
C 	C 	0.86512 0.81652 0.55424 0.02500
C 	C 	0.97181 0.68581 0.54442 0.02400
C 	C 	0.94677 0.64387 0.50774 -0.03600
C 	C 	0.94935 0.65795 0.47750 -0.10200
C 	C 	0.97633 0.70893 0.49526 0.11300
C 	C 	0.87457 0.69957 0.40954 -0.18300
C 	C 	0.85542 0.67932 0.36824 0.08600
C 	C 	0.58565 0.33465 0.10130 0.03500
C 	C 	0.64911 0.34561 0.13742 -0.04600
C 	C 	0.68688 0.39288 0.15256 -0.10600
C 	C 	0.64456 0.40946 0.12472 0.11800
C 	C 	0.66665 0.45395 0.12470 -0.16800
C 	C 	0.63682 0.46662 0.09384 0.11200
C 	C 	0.66284 0.50984 0.08968 -0.10300
C 	C 	0.61715 0.50575 0.05370 -0.04100
C 	C 	0.55854 0.46064 0.03508 0.02200
C 	C 	0.73001 0.49171 0.16242 0.17400
C 	C 	0.69427 0.51047 0.19654 -0.21700
C 	C 	0.74993 0.54693 0.23046 0.12200
C 	C 	0.86750 0.54700 0.20040 0.11500
C 	C 	0.81654 0.51074 0.16508 -0.22400
C 	C 	0.16896 0.65006 0.11512 0.03000
C 	C 	0.23542 0.67292 0.15304 -0.04100
C 	C 	0.26518 0.71778 0.15856 -0.10500
C 	C 	0.22016 0.72266 0.12372 0.11500
C 	C 	0.23684 0.76074 0.11448 -0.16000
C 	C 	0.20042 0.76132 0.07784 0.11400
C 	C 	0.22501 0.79671 0.06402 -0.10500
C 	C 	0.17209 0.78009 0.02458 -0.04500
C 	C 	0.11943 0.73703 0.01586 0.02600
C 	C 	0.29716 0.80506 0.14692 0.14500
C 	C 	0.26423 0.83273 0.17966 -0.18900
C 	C 	0.31937 0.87337 0.20994 0.09500
C 	C 	0.43902 0.86282 0.17764 0.08800
C 	C 	0.38661 0.82131 0.14562 -0.18100
C 	C 	0.32502 0.40742 0.01884 0.03100
C 	C 	0.26429 0.40109 0.98318 -0.04500
C 	C 	0.29829 0.37119 0.95218 -0.10200
C 	C 	0.38067 0.36077 0.96974 0.11400
C 	C 	0.44017 0.33327 0.94894 -0.16200
C 	C 	0.52279 0.32599 0.96738 0.11300
C 	C 	0.59072 0.30202 0.94904 -0.10500
C 	C 	0.65811 0.30351 0.97842 -0.04100
C 	C 	0.63226 0.32836 0.01532 0.03200
C 	C 	0.41493 0.31083 0.90446 0.15400
C 	C 	0.39807 0.26107 0.88454 -0.19600
C 	C 	0.36937 0.24027 0.84294 0.11100
C 	C 	0.38268 0.31028 0.83896 0.10300
C 	C 	0.40891 0.33441 0.87982 -0.20000
C 	C 	0.75724 0.07184 0.61708 0.02700
C 	C 	0.74356 0.07456 0.65492 -0.04300
C 	C 	0.67532 0.09972 0.66384 -0.10000
C 	C 	0.64380 0.11180 0.63100 0.11000
C 	C 	0.57136 0.13426 0.62592 -0.15400
C 	C 	0.53912 0.14082 0.59064 0.11200
C 	C 	0.46043 0.15963 0.58246 -0.10800
C 	C 	0.45827 0.15987 0.54474 -0.04100
C 	C 	0.53428 0.14198 0.53136 0.02000
C 	C 	0.51984 0.15214 0.65868 0.13900
C 	C 	0.47227 0.12317 0.67174 -0.18300
C 	C 	0.42269 0.14199 0.70178 0.07800
C 	C 	0.47146 0.21796 0.70752 0.08000
C 	C 	0.52162 0.20132 0.67744 -0.17500
C 	C 	0.84938 0.05708 0.53056 0.02700
C 	C 	0.94037 0.05237 0.54214 -0.04100
C 	C 	0.97724 0.09024 0.57868 -0.11000
C 	C 	0.90742 0.11832 0.58784 0.12100
C 	C 	0.91461 0.16061 0.62182 -0.16300
C 	C 	0.84736 0.18876 0.62792 0.11400
C 	C 	0.85469 0.23519 0.65978 -0.10000
C 	C 	0.77267 0.25047 0.65154 -0.05000
C 	C 	0.71997 0.21427 0.61594 0.03200
C 	C 	0.00195 0.17775 0.65350 0.15400
C 	C 	0.01879 0.15759 0.68038 -0.20000
C 	C 	0.09971 0.17411 0.70922 0.10800
C 	C 	0.14949 0.22779 0.68718 0.09400
C 	C 	0.06954 0.21424 0.65708 -0.19800
C 	C 	0.74972 0.17762 0.52064 0.03600
C 	C 	0.73778 0.18328 0.48476 -0.04400
C 	C 	0.69581 0.13981 0.45482 -0.10300
C 	C 	0.68233 0.10803 0.47286 0.11400
C 	C 	0.64009 0.06149 0.45418 -0.16200
C 	C 	0.62393 0.03253 0.47426 0.11300
C 	C 	0.58795 0.98275 0.45710 -0.10200
C 	C 	0.58951 0.96881 0.48762 -0.04000
C 	C 	0.62655 0.01055 0.52370 0.02700
C 	C 	0.60500 0.03930 0.40940 0.15100
C 	C 	0.66512 0.02782 0.38324 -0.18900
C 	C 	0.63098 0.00618 0.34236 0.08800
C 	C 	0.48188 0.00738 0.35096 0.09800
C 	C 	0.51332 0.02852 0.39224 -0.19800
C 	C 	0.48985 0.00875 0.19430 0.10600
C 	C 	0.52404 0.01724 0.16468 -0.20500
C 	C 	0.61429 0.01449 0.16258 0.15600
C 	C 	0.66808 0.00378 0.19116 -0.19900
C 	C 	0.62736 0.99616 0.21932 0.10700
C 	C 	0.65679 0.02059 0.13078 -0.15800
C 	C 	0.66098 0.97898 0.09676 0.11700
C 	C 	0.62446 0.93186 0.08872 -0.11400
C 	C 	0.64384 0.90354 0.05328 -0.03200
C 	C 	0.69510 0.93330 0.04040 0.01500
C 	C 	0.68870 0.06730 0.13600 0.11300
C 	C 	0.67641 0.11041 0.16702 -0.10300
C 	C 	0.71153 0.14653 0.15886 -0.04300
C 	C 	0.74671 0.12551 0.12362 0.02800
C 	C 	0.91841 0.97421 0.03142 0.01800
C 	C 	0.94223 0.94543 0.99406 -0.03200
C 	C 	0.87471 0.94421 0.96422 -0.10700
C 	C 	0.81192 0.97332 0.98244 0.11500
C 	C 	0.76139 0.97509 0.89618 -0.18600
C 	C 	0.73650 0.95320 0.85440 0.09000
C 	C 	0.48940 0.90030 0.70160 0.10300
C 	C 	0.40625 0.88895 0.67350 -0.20100
C 	C 	0.33059 0.86209 0.67558 0.15400
C 	C 	0.33788 0.84918 0.70736 -0.18800
C 	C 	0.42344 0.86144 0.73448 0.09000
C 	C 	0.03757 0.88967 0.63694 0.02000
C 	C 	0.09175 0.92875 0.67230 -0.03500
C 	C 	0.17460 0.91600 0.68020 -0.11000
C 	C 	0.17385 0.87005 0.64950 0.12000
C 	C 	0.24333 0.84443 0.64326 -0.16700
C 	C 	0.24309 0.80239 0.61098 0.11600
C 	C 	0.31539 0.77629 0.60318 -0.10900
C 	C 	0.28384 0.73704 0.56788 -0.03800
C 	C 	0.18912 0.73772 0.55424 0.02500
C 	C 	0.07261 0.85861 0.54442 0.02400
C 	C 	0.06097 0.86387 0.50774 -0.03700
C 	C 	0.02815 0.81955 0.47750 -0.10200
C 	C 	0.01893 0.78633 0.49526 0.11200
C 	C 	0.03497 0.70997 0.40954 -0.18300
C 	C 	0.01282 0.68892 0.36824 0.08600
C 	C 	0.73173 0.98173 0.96346 -0.15600
C 	C 	0.70858 0.95858 0.91716 0.13900
C 	C 	0.98823 0.73823 0.47646 -0.16100
C 	C 	0.96572 0.71572 0.43144 0.14100
N 	N 	0.01241 0.72131 0.09342 -0.25400
N 	N 	0.98987 0.62167 0.05874 -0.25400
N 	N 	0.89897 0.66887 0.23354 -0.21600
N 	N 	0.43778 0.41848 0.09816 -0.25000
N 	N 	0.41325 0.32235 0.04710 -0.26000
N 	N 	0.30303 0.32293 0.21046 -0.20400
N 	N 	0.11596 0.62676 0.01152 -0.25900
N 	N 	0.95736 0.66736 0.00952 -0.25600
N 	N 	0.96071 0.55741 0.81982 -0.21200
N 	N 	0.40354 0.50864 0.60268 -0.24900
N 	N 	0.47404 0.42824 0.55900 -0.25800
N 	N 	0.79867 0.52967 0.71954 -0.19500
N 	N 	0.22862 0.46172 0.55764 -0.25900
N 	N 	0.33907 0.42377 0.60094 -0.25000
N 	N 	0.04692 0.50532 0.71304 -0.21000
N 	N 	0.29749 0.38129 0.51516 -0.25800
N 	N 	0.36827 0.46777 0.51612 -0.25500
N 	N 	0.28714 0.33064 0.32538 -0.20700
N 	N 	0.18123 0.22393 0.22146 -0.20500
N 	N 	0.86159 0.08669 0.06638 -0.25700
N 	N 	0.87635 0.03145 0.10990 -0.25100
N 	N 	0.68387 0.03317 0.02414 -0.25500
N 	N 	0.73233 0.84503 0.73046 -0.20800
N 	N 	0.03774 0.76904 0.62340 -0.24900
N 	N 	0.91484 0.80314 0.57948 -0.25700
N 	N 	0.99006 0.72466 0.53750 -0.25400
N 	N 	0.58101 0.37211 0.09342 -0.25300
N 	N 	0.56887 0.43707 0.05874 -0.25400
N 	N 	0.83457 0.56467 0.23354 -0.21600
N 	N 	0.16038 0.67968 0.09816 -0.25000
N 	N 	0.13385 0.72475 0.04710 -0.26000
N 	N 	0.40743 0.88753 0.21046 -0.20400
N 	N 	0.39556 0.38476 0.01152 -0.25900
N 	N 	0.55216 0.34216 0.00952 -0.25600
N 	N 	0.35911 0.26241 0.81982 -0.21200
N 	N 	0.69914 0.09404 0.60268 -0.24900
N 	N 	0.58496 0.13076 0.55900 -0.25800
N 	N 	0.42087 0.18987 0.71954 -0.19500
N 	N 	0.82902 0.09592 0.55764 -0.25900
N 	N 	0.76187 0.17717 0.60094 -0.25000
N 	N 	0.16612 0.20772 0.71304 -0.21000
N 	N 	0.71767 0.13387 0.51516 -0.25800
N 	N 	0.64785 0.04835 0.51612 -0.25500
N 	N 	0.53824 0.99474 0.32538 -0.20700
N 	N 	0.54023 0.99753 0.22146 -0.20500
N 	N 	0.70479 0.97969 0.06638 -0.25700
N 	N 	0.73355 0.07845 0.10990 -0.25000
N 	N 	0.84027 0.99097 0.02414 -0.25500
N 	N 	0.49813 0.88543 0.73046 -0.20800
N 	N 	0.08566 0.85436 0.62340 -0.24900
N 	N 	0.16464 0.77634 0.57948 -0.25800
N 	N 	0.04744 0.81284 0.53750 -0.25400
N 	N 	0.66656 0.91656 0.83312 -0.20600
N 	N 	0.92367 0.67367 0.34734 -0.20700
