data_crystal

_cell_length_a 24.60100
_cell_length_b 16.54600
_cell_length_c 65.77500
_cell_angle_alpha 90.00000
_cell_angle_beta  90.00000
_cell_angle_gamma 90.00000

_symmetry_space_group_name_	'P 1'
_symmetry_space_group_name_H-M	'P 1'

loop_
_symmetry_equiv_pos_as_xyz
  x,y,z

loop_
_atom_site_label
_atom_site_type_symbol
_atom_site_fract_x
_atom_site_fract_y
_atom_site_fract_z
_atom_site_charge
C 	C 	0.51365 0.15210 0.98190 0.02700
H 	H 	0.52080 0.12460 0.96950 0.01000
C 	C 	0.46271 0.18360 0.98743 -0.04600
H 	H 	0.43010 0.18050 0.97980 0.04200
C 	C 	0.46927 0.22040 0.00638 -0.10300
H 	H 	0.44210 0.24760 0.01400 0.06200
C 	C 	0.52397 0.20910 0.01185 0.10500
C 	C 	0.55170 0.23820 0.02907 -0.13600
C 	C 	0.60724 0.23710 0.03215 0.10800
C 	C 	0.63634 0.27520 0.04797 -0.10600
H 	H 	0.62130 0.30260 0.05930 0.06400
C 	C 	0.68980 0.26510 0.04386 -0.03800
H 	H 	0.71940 0.28520 0.05170 0.03900
C 	C 	0.69366 0.21890 0.02562 0.02200
H 	H 	0.72680 0.20340 0.01930 0.01500
C 	C 	0.51564 0.27310 0.04540 0.09600
C 	C 	0.49080 0.34550 0.04334 -0.16500
H 	H 	0.49860 0.37850 0.03190 0.08300
C 	C 	0.45340 0.37200 0.05807 0.08600
H 	H 	0.43610 0.42270 0.05620 -0.01600
C 	C 	0.46510 0.25660 0.07689 0.08500
C 	C 	0.45090 0.20650 0.09466 -0.11000
H 	H 	0.42250 0.22250 0.10360 0.03900
C 	C 	0.48190 0.12990 0.09841 -0.00200
H 	H 	0.47640 0.09930 0.11050 0.02400
C 	C 	0.51590 0.10680 0.08502 -0.06800
H 	H 	0.53310 0.05610 0.08700 0.05100
C 	C 	0.52940 0.15020 0.06789 -0.01800
H 	H 	0.55620 0.12860 0.05900 0.04100
C 	C 	0.50430 0.22900 0.06259 -0.06500
C 	C 	0.40343 0.21770 0.22863 0.03900
H 	H 	0.40710 0.19460 0.24180 0.00800
C 	C 	0.41000 0.17250 0.21031 -0.05200
H 	H 	0.41900 0.11690 0.20890 0.04800
C 	C 	0.40017 0.22820 0.19508 -0.09100
H 	H 	0.40140 0.21770 0.18090 0.06100
C 	C 	0.38813 0.30210 0.20401 0.09300
C 	C 	0.32710 0.36720 0.16120 -0.05300
H 	H 	0.29350 0.36020 0.16810 -0.13600
C 	C 	0.33020 0.36990 0.13950 0.11200
H 	H 	0.29710 0.36780 0.13210 -0.15600
C 	C 	0.27650 0.35940 0.12880 0.21600
H 	H 	0.27580 0.35990 0.11430 -0.06400
C 	C 	0.22810 0.34900 0.13930 -0.12200
H 	H 	0.19550 0.34660 0.13150 0.06200
C 	C 	0.22400 0.34210 0.15980 -0.13500
H 	H 	0.19040 0.33260 0.16660 0.06700
C 	C 	0.27570 0.35040 0.17070 0.26700
H 	H 	0.27520 0.34430 0.18500 -0.05500
N 	N 	0.55080 0.16590 0.99639 -0.25500
N 	N 	0.64382 0.20020 0.01853 -0.25000
N 	N 	0.44164 0.33040 0.07410 -0.19700
N 	N 	0.39188 0.29400 0.22560 -0.25500
C 	C 	0.51365 0.65210 0.48190 0.02800
H 	H 	0.52080 0.62460 0.46950 0.01100
C 	C 	0.46271 0.68360 0.48743 -0.04500
H 	H 	0.43010 0.68050 0.47980 0.04300
C 	C 	0.46927 0.72040 0.50638 -0.10200
H 	H 	0.44210 0.74760 0.51400 0.06300
C 	C 	0.52397 0.70910 0.51185 0.10600
C 	C 	0.55170 0.73820 0.52907 -0.13500
C 	C 	0.60724 0.73710 0.53215 0.10800
C 	C 	0.63634 0.77520 0.54797 -0.10600
H 	H 	0.62130 0.80260 0.55930 0.06400
C 	C 	0.68980 0.76510 0.54386 -0.03800
H 	H 	0.71940 0.78520 0.55170 0.03900
C 	C 	0.69366 0.71890 0.52562 0.02200
H 	H 	0.72680 0.70340 0.51930 0.01500
C 	C 	0.51564 0.77310 0.54540 0.09600
C 	C 	0.49080 0.84550 0.54334 -0.16500
H 	H 	0.49860 0.87850 0.53190 0.08300
C 	C 	0.45340 0.87200 0.55807 0.08600
H 	H 	0.43610 0.92270 0.55620 -0.01600
C 	C 	0.46510 0.75660 0.57689 0.08500
C 	C 	0.45090 0.70650 0.59466 -0.11000
H 	H 	0.42250 0.72250 0.60360 0.03900
C 	C 	0.48190 0.62990 0.59841 -0.00200
H 	H 	0.47640 0.59930 0.61050 0.02400
C 	C 	0.51590 0.60680 0.58502 -0.06800
H 	H 	0.53310 0.55610 0.58700 0.05100
C 	C 	0.52940 0.65020 0.56789 -0.01800
H 	H 	0.55620 0.62860 0.55900 0.04100
C 	C 	0.50430 0.72900 0.56259 -0.06500
C 	C 	0.40343 0.71770 0.72863 0.03900
H 	H 	0.40710 0.69460 0.74180 0.00800
C 	C 	0.41000 0.67250 0.71031 -0.05200
H 	H 	0.41900 0.61690 0.70890 0.04800
C 	C 	0.40017 0.72820 0.69508 -0.09100
H 	H 	0.40140 0.71770 0.68090 0.06100
C 	C 	0.38813 0.80210 0.70401 0.09300
C 	C 	0.32710 0.86720 0.66120 -0.05300
H 	H 	0.29350 0.86020 0.66810 -0.13600
C 	C 	0.33020 0.86990 0.63950 0.11200
H 	H 	0.29710 0.86780 0.63210 -0.15600
C 	C 	0.27650 0.85940 0.62880 0.21600
H 	H 	0.27580 0.85990 0.61430 -0.06400
C 	C 	0.22810 0.84900 0.63930 -0.12200
H 	H 	0.19550 0.84660 0.63150 0.06200
C 	C 	0.22400 0.84210 0.65980 -0.13500
H 	H 	0.19040 0.83260 0.66660 0.06700
C 	C 	0.27570 0.85040 0.67070 0.26700
H 	H 	0.27520 0.84430 0.68500 -0.05500
N 	N 	0.55080 0.66590 0.49639 -0.25500
N 	N 	0.64382 0.70020 0.51853 -0.25000
N 	N 	0.44164 0.83040 0.57410 -0.19700
N 	N 	0.39188 0.79400 0.72560 -0.25500
C 	C 	0.01365 0.15210 0.48190 0.02800
H 	H 	0.02080 0.12460 0.46950 0.01100
C 	C 	0.96271 0.18360 0.48743 -0.04500
H 	H 	0.93010 0.18050 0.47980 0.04300
C 	C 	0.96927 0.22040 0.50638 -0.10200
H 	H 	0.94210 0.24760 0.51400 0.06300
C 	C 	0.02397 0.20910 0.51185 0.10600
C 	C 	0.05170 0.23820 0.52907 -0.13500
C 	C 	0.10724 0.23710 0.53215 0.10800
C 	C 	0.13634 0.27520 0.54797 -0.10500
H 	H 	0.12130 0.30260 0.55930 0.06400
C 	C 	0.18980 0.26510 0.54386 -0.03800
H 	H 	0.21940 0.28520 0.55170 0.03900
C 	C 	0.19366 0.21890 0.52562 0.02200
H 	H 	0.22680 0.20340 0.51930 0.01500
C 	C 	0.01564 0.27310 0.54540 0.09600
C 	C 	0.99080 0.34550 0.54334 -0.16500
H 	H 	0.99860 0.37850 0.53190 0.08300
C 	C 	0.95340 0.37200 0.55807 0.08600
H 	H 	0.93610 0.42270 0.55620 -0.01600
C 	C 	0.96510 0.25660 0.57689 0.08500
C 	C 	0.95090 0.20650 0.59466 -0.11000
H 	H 	0.92250 0.22250 0.60360 0.03900
C 	C 	0.98190 0.12990 0.59841 -0.00100
H 	H 	0.97640 0.09930 0.61050 0.02400
C 	C 	0.01590 0.10680 0.58502 -0.06900
H 	H 	0.03310 0.05610 0.58700 0.05100
C 	C 	0.02940 0.15020 0.56789 -0.01800
H 	H 	0.05620 0.12860 0.55900 0.04100
C 	C 	0.00430 0.22900 0.56259 -0.06500
C 	C 	0.90343 0.21770 0.72863 0.03900
H 	H 	0.90710 0.19460 0.74180 0.00800
C 	C 	0.91000 0.17250 0.71031 -0.05200
H 	H 	0.91900 0.11690 0.70890 0.04800
C 	C 	0.90017 0.22820 0.69508 -0.09100
H 	H 	0.90140 0.21770 0.68090 0.06100
C 	C 	0.88813 0.30210 0.70401 0.09300
C 	C 	0.82710 0.36720 0.66120 -0.05300
H 	H 	0.79350 0.36020 0.66810 -0.13600
C 	C 	0.83020 0.36990 0.63950 0.11200
H 	H 	0.79710 0.36780 0.63210 -0.15600
C 	C 	0.77650 0.35940 0.62880 0.21600
H 	H 	0.77580 0.35990 0.61430 -0.06400
C 	C 	0.72810 0.34900 0.63930 -0.12200
H 	H 	0.69550 0.34660 0.63150 0.06200
C 	C 	0.72400 0.34210 0.65980 -0.13500
H 	H 	0.69040 0.33260 0.66660 0.06700
C 	C 	0.77570 0.35040 0.67070 0.26700
H 	H 	0.77520 0.34430 0.68500 -0.05500
N 	N 	0.05080 0.16590 0.49639 -0.25500
N 	N 	0.14382 0.20020 0.51853 -0.25000
N 	N 	0.94164 0.33040 0.57410 -0.19700
N 	N 	0.89188 0.29400 0.72560 -0.25500
C 	C 	0.01365 0.65210 0.98190 0.02800
H 	H 	0.02080 0.62460 0.96950 0.01100
C 	C 	0.96271 0.68360 0.98743 -0.04500
H 	H 	0.93010 0.68050 0.97980 0.04300
C 	C 	0.96927 0.72040 0.00638 -0.10200
H 	H 	0.94210 0.74760 0.01400 0.06300
C 	C 	0.02397 0.70910 0.01185 0.10600
C 	C 	0.05170 0.73820 0.02907 -0.13500
C 	C 	0.10724 0.73710 0.03215 0.10800
C 	C 	0.13634 0.77520 0.04797 -0.10600
H 	H 	0.12130 0.80260 0.05930 0.06400
C 	C 	0.18980 0.76510 0.04386 -0.03800
H 	H 	0.21940 0.78520 0.05170 0.03900
C 	C 	0.19366 0.71890 0.02562 0.02200
H 	H 	0.22680 0.70340 0.01930 0.01500
C 	C 	0.01564 0.77310 0.04540 0.09600
C 	C 	0.99080 0.84550 0.04334 -0.16500
H 	H 	0.99860 0.87850 0.03190 0.08300
C 	C 	0.95340 0.87200 0.05807 0.08600
H 	H 	0.93610 0.92270 0.05620 -0.01600
C 	C 	0.96510 0.75660 0.07689 0.08500
C 	C 	0.95090 0.70650 0.09466 -0.11000
H 	H 	0.92250 0.72250 0.10360 0.03900
C 	C 	0.98190 0.62990 0.09841 -0.00200
H 	H 	0.97640 0.59930 0.11050 0.02400
C 	C 	0.01590 0.60680 0.08502 -0.06800
H 	H 	0.03310 0.55610 0.08700 0.05100
C 	C 	0.02940 0.65020 0.06789 -0.01800
H 	H 	0.05620 0.62860 0.05900 0.04100
C 	C 	0.00430 0.72900 0.06259 -0.06500
C 	C 	0.90343 0.71770 0.22863 0.03900
H 	H 	0.90710 0.69460 0.24180 0.00800
C 	C 	0.91000 0.67250 0.21031 -0.05200
H 	H 	0.91900 0.61690 0.20890 0.04800
C 	C 	0.90017 0.72820 0.19508 -0.09100
H 	H 	0.90140 0.71770 0.18090 0.06100
C 	C 	0.88813 0.80210 0.20401 0.09300
C 	C 	0.82710 0.86720 0.16120 -0.05300
H 	H 	0.79350 0.86020 0.16810 -0.13600
C 	C 	0.83020 0.86990 0.13950 0.11200
H 	H 	0.79710 0.86780 0.13210 -0.15600
C 	C 	0.77650 0.85940 0.12880 0.21600
H 	H 	0.77580 0.85990 0.11430 -0.06400
C 	C 	0.72810 0.84900 0.13930 -0.12200
H 	H 	0.69550 0.84660 0.13150 0.06200
C 	C 	0.72400 0.84210 0.15980 -0.13500
H 	H 	0.69040 0.83260 0.16660 0.06700
C 	C 	0.77570 0.85040 0.17070 0.26700
H 	H 	0.77520 0.84430 0.18500 -0.05500
N 	N 	0.05080 0.66590 0.99639 -0.25500
N 	N 	0.14382 0.70020 0.01853 -0.25000
N 	N 	0.94164 0.83040 0.07410 -0.19700
N 	N 	0.89188 0.79400 0.22560 -0.25500
C 	C 	0.23635 0.59790 0.98190 0.02800
H 	H 	0.22920 0.62540 0.96950 0.01100
C 	C 	0.28729 0.56640 0.98743 -0.04500
H 	H 	0.31990 0.56950 0.97980 0.04300
C 	C 	0.28073 0.52960 0.00638 -0.10200
H 	H 	0.30790 0.50240 0.01400 0.06300
C 	C 	0.22603 0.54090 0.01185 0.10600
C 	C 	0.19830 0.51180 0.02907 -0.13500
C 	C 	0.14276 0.51290 0.03215 0.10800
C 	C 	0.11366 0.47480 0.04797 -0.10600
H 	H 	0.12870 0.44740 0.05930 0.06400
C 	C 	0.06020 0.48490 0.04386 -0.03800
H 	H 	0.03060 0.46480 0.05170 0.03900
C 	C 	0.05634 0.53110 0.02562 0.02200
H 	H 	0.02320 0.54660 0.01930 0.01500
C 	C 	0.23436 0.47690 0.04540 0.09600
C 	C 	0.25920 0.40450 0.04334 -0.16500
H 	H 	0.25140 0.37150 0.03190 0.08300
C 	C 	0.29660 0.37800 0.05807 0.08600
H 	H 	0.31390 0.32730 0.05620 -0.01600
C 	C 	0.28490 0.49340 0.07689 0.08500
C 	C 	0.29910 0.54350 0.09466 -0.11000
H 	H 	0.32750 0.52750 0.10360 0.03900
C 	C 	0.26810 0.62010 0.09841 -0.00200
H 	H 	0.27360 0.65070 0.11050 0.02400
C 	C 	0.23410 0.64320 0.08502 -0.06800
H 	H 	0.21690 0.69390 0.08700 0.05100
C 	C 	0.22060 0.59980 0.06789 -0.01800
H 	H 	0.19380 0.62140 0.05900 0.04100
C 	C 	0.24570 0.52100 0.06259 -0.06500
C 	C 	0.34657 0.53230 0.22863 0.03900
H 	H 	0.34290 0.55540 0.24180 0.00800
C 	C 	0.34000 0.57750 0.21031 -0.05200
H 	H 	0.33100 0.63310 0.20890 0.04800
C 	C 	0.34983 0.52180 0.19508 -0.09100
H 	H 	0.34860 0.53230 0.18090 0.06100
C 	C 	0.36187 0.44790 0.20401 0.09300
C 	C 	0.42290 0.38280 0.16120 -0.05300
H 	H 	0.45650 0.38980 0.16810 -0.13600
C 	C 	0.41980 0.38010 0.13950 0.11200
H 	H 	0.45290 0.38220 0.13210 -0.15600
C 	C 	0.47350 0.39060 0.12880 0.21600
H 	H 	0.47420 0.39010 0.11430 -0.06400
C 	C 	0.52190 0.40100 0.13930 -0.12200
H 	H 	0.55450 0.40340 0.13150 0.06200
C 	C 	0.52600 0.40790 0.15980 -0.13500
H 	H 	0.55960 0.41740 0.16660 0.06700
C 	C 	0.47430 0.39960 0.17070 0.26700
H 	H 	0.47480 0.40570 0.18500 -0.05500
N 	N 	0.19920 0.58410 0.99639 -0.25500
N 	N 	0.10618 0.54980 0.01853 -0.25000
N 	N 	0.30836 0.41960 0.07410 -0.19700
N 	N 	0.35812 0.45600 0.22560 -0.25500
C 	C 	0.23635 0.09790 0.48190 0.02800
H 	H 	0.22920 0.12540 0.46950 0.01100
C 	C 	0.28729 0.06640 0.48743 -0.04500
H 	H 	0.31990 0.06950 0.47980 0.04300
C 	C 	0.28073 0.02960 0.50638 -0.10200
H 	H 	0.30790 0.00240 0.51400 0.06300
C 	C 	0.22603 0.04090 0.51185 0.10600
C 	C 	0.19830 0.01180 0.52907 -0.13500
C 	C 	0.14276 0.01290 0.53215 0.10800
C 	C 	0.11366 0.97480 0.54797 -0.10500
H 	H 	0.12870 0.94740 0.55930 0.06400
C 	C 	0.06020 0.98490 0.54386 -0.03800
H 	H 	0.03060 0.96480 0.55170 0.03900
C 	C 	0.05634 0.03110 0.52562 0.02200
H 	H 	0.02320 0.04660 0.51930 0.01500
C 	C 	0.23436 0.97690 0.54540 0.09600
C 	C 	0.25920 0.90450 0.54334 -0.16500
H 	H 	0.25140 0.87150 0.53190 0.08300
C 	C 	0.29660 0.87800 0.55807 0.08600
H 	H 	0.31390 0.82730 0.55620 -0.01600
C 	C 	0.28490 0.99340 0.57689 0.08500
C 	C 	0.29910 0.04350 0.59466 -0.11000
H 	H 	0.32750 0.02750 0.60360 0.03900
C 	C 	0.26810 0.12010 0.59841 -0.00200
H 	H 	0.27360 0.15070 0.61050 0.02400
C 	C 	0.23410 0.14320 0.58502 -0.06800
H 	H 	0.21690 0.19390 0.58700 0.05100
C 	C 	0.22060 0.09980 0.56789 -0.01800
H 	H 	0.19380 0.12140 0.55900 0.04100
C 	C 	0.24570 0.02100 0.56259 -0.06500
C 	C 	0.34657 0.03230 0.72863 0.03900
H 	H 	0.34290 0.05540 0.74180 0.00800
C 	C 	0.34000 0.07750 0.71031 -0.05200
H 	H 	0.33100 0.13310 0.70890 0.04800
C 	C 	0.34983 0.02180 0.69508 -0.09100
H 	H 	0.34860 0.03230 0.68090 0.06100
C 	C 	0.36187 0.94790 0.70401 0.09300
C 	C 	0.42290 0.88280 0.66120 -0.05300
H 	H 	0.45650 0.88980 0.66810 -0.13600
C 	C 	0.41980 0.88010 0.63950 0.11200
H 	H 	0.45290 0.88220 0.63210 -0.15600
C 	C 	0.47350 0.89060 0.62880 0.21600
H 	H 	0.47420 0.89010 0.61430 -0.06400
C 	C 	0.52190 0.90100 0.63930 -0.12200
H 	H 	0.55450 0.90340 0.63150 0.06200
C 	C 	0.52600 0.90790 0.65980 -0.13500
H 	H 	0.55960 0.91740 0.66660 0.06700
C 	C 	0.47430 0.89960 0.67070 0.26700
H 	H 	0.47480 0.90570 0.68500 -0.05500
N 	N 	0.19920 0.08410 0.49639 -0.25500
N 	N 	0.10618 0.04980 0.51853 -0.25000
N 	N 	0.30836 0.91960 0.57410 -0.19700
N 	N 	0.35812 0.95600 0.72560 -0.25500
C 	C 	0.73635 0.59790 0.48190 0.02800
H 	H 	0.72920 0.62540 0.46950 0.01100
C 	C 	0.78729 0.56640 0.48743 -0.04500
H 	H 	0.81990 0.56950 0.47980 0.04300
C 	C 	0.78073 0.52960 0.50638 -0.10200
H 	H 	0.80790 0.50240 0.51400 0.06300
C 	C 	0.72603 0.54090 0.51185 0.10600
C 	C 	0.69830 0.51180 0.52907 -0.13500
C 	C 	0.64276 0.51290 0.53215 0.10800
C 	C 	0.61366 0.47480 0.54797 -0.10600
H 	H 	0.62870 0.44740 0.55930 0.06400
C 	C 	0.56020 0.48490 0.54386 -0.03800
H 	H 	0.53060 0.46480 0.55170 0.03900
C 	C 	0.55634 0.53110 0.52562 0.02200
H 	H 	0.52320 0.54660 0.51930 0.01500
C 	C 	0.73436 0.47690 0.54540 0.09600
C 	C 	0.75920 0.40450 0.54334 -0.16500
H 	H 	0.75140 0.37150 0.53190 0.08300
C 	C 	0.79660 0.37800 0.55807 0.08600
H 	H 	0.81390 0.32730 0.55620 -0.01600
C 	C 	0.78490 0.49340 0.57689 0.08500
C 	C 	0.79910 0.54350 0.59466 -0.11000
H 	H 	0.82750 0.52750 0.60360 0.03900
C 	C 	0.76810 0.62010 0.59841 -0.00200
H 	H 	0.77360 0.65070 0.61050 0.02400
C 	C 	0.73410 0.64320 0.58502 -0.06800
H 	H 	0.71690 0.69390 0.58700 0.05100
C 	C 	0.72060 0.59980 0.56789 -0.01800
H 	H 	0.69380 0.62140 0.55900 0.04100
C 	C 	0.74570 0.52100 0.56259 -0.06500
C 	C 	0.84657 0.53230 0.72863 0.03900
H 	H 	0.84290 0.55540 0.74180 0.00800
C 	C 	0.84000 0.57750 0.71031 -0.05200
H 	H 	0.83100 0.63310 0.70890 0.04800
C 	C 	0.84983 0.52180 0.69508 -0.09100
H 	H 	0.84860 0.53230 0.68090 0.06100
C 	C 	0.86187 0.44790 0.70401 0.09300
C 	C 	0.92290 0.38280 0.66120 -0.05300
H 	H 	0.95650 0.38980 0.66810 -0.13600
C 	C 	0.91980 0.38010 0.63950 0.11200
H 	H 	0.95290 0.38220 0.63210 -0.15600
C 	C 	0.97350 0.39060 0.62880 0.21600
H 	H 	0.97420 0.39010 0.61430 -0.06400
C 	C 	0.02190 0.40100 0.63930 -0.12200
H 	H 	0.05450 0.40340 0.63150 0.06200
C 	C 	0.02600 0.40790 0.65980 -0.13500
H 	H 	0.05960 0.41740 0.66660 0.06700
C 	C 	0.97430 0.39960 0.67070 0.26700
H 	H 	0.97480 0.40570 0.68500 -0.05500
N 	N 	0.69920 0.58410 0.49639 -0.25500
N 	N 	0.60618 0.54980 0.51853 -0.25000
N 	N 	0.80836 0.41960 0.57410 -0.19700
N 	N 	0.85812 0.45600 0.72560 -0.25500
C 	C 	0.73635 0.09790 0.98190 0.02800
H 	H 	0.72920 0.12540 0.96950 0.01100
C 	C 	0.78729 0.06640 0.98743 -0.04500
H 	H 	0.81990 0.06950 0.97980 0.04300
C 	C 	0.78073 0.02960 0.00638 -0.10200
H 	H 	0.80790 0.00240 0.01400 0.06300
C 	C 	0.72603 0.04090 0.01185 0.10600
C 	C 	0.69830 0.01180 0.02907 -0.13500
C 	C 	0.64276 0.01290 0.03215 0.10800
C 	C 	0.61366 0.97480 0.04797 -0.10600
H 	H 	0.62870 0.94740 0.05930 0.06400
C 	C 	0.56020 0.98490 0.04386 -0.03800
H 	H 	0.53060 0.96480 0.05170 0.03900
C 	C 	0.55634 0.03110 0.02562 0.02300
H 	H 	0.52320 0.04660 0.01930 0.01500
C 	C 	0.73436 0.97690 0.04540 0.09500
C 	C 	0.75920 0.90450 0.04334 -0.16500
H 	H 	0.75140 0.87150 0.03190 0.08300
C 	C 	0.79660 0.87800 0.05807 0.08600
H 	H 	0.81390 0.82730 0.05620 -0.01600
C 	C 	0.78490 0.99340 0.07689 0.08500
C 	C 	0.79910 0.04350 0.09466 -0.10900
H 	H 	0.82750 0.02750 0.10360 0.03900
C 	C 	0.76810 0.12010 0.09841 -0.00200
H 	H 	0.77360 0.15070 0.11050 0.02400
C 	C 	0.73410 0.14320 0.08502 -0.06800
H 	H 	0.71690 0.19390 0.08700 0.05100
C 	C 	0.72060 0.09980 0.06789 -0.01800
H 	H 	0.69380 0.12140 0.05900 0.04100
C 	C 	0.74570 0.02100 0.06259 -0.06400
C 	C 	0.84657 0.03230 0.22863 0.03900
H 	H 	0.84290 0.05540 0.24180 0.00800
C 	C 	0.84000 0.07750 0.21031 -0.05200
H 	H 	0.83100 0.13310 0.20890 0.04800
C 	C 	0.84983 0.02180 0.19508 -0.09100
H 	H 	0.84860 0.03230 0.18090 0.06100
C 	C 	0.86187 0.94790 0.20401 0.09300
C 	C 	0.92290 0.88280 0.16120 -0.05300
H 	H 	0.95650 0.88980 0.16810 -0.13700
C 	C 	0.91980 0.88010 0.13950 0.11200
H 	H 	0.95290 0.88220 0.13210 -0.15600
C 	C 	0.97350 0.89060 0.12880 0.21600
H 	H 	0.97420 0.89010 0.11430 -0.06400
C 	C 	0.02190 0.90100 0.13930 -0.12200
H 	H 	0.05450 0.90340 0.13150 0.06200
C 	C 	0.02600 0.90790 0.15980 -0.13500
H 	H 	0.05960 0.91740 0.16660 0.06700
C 	C 	0.97430 0.89960 0.17070 0.26700
H 	H 	0.97480 0.90570 0.18500 -0.05500
N 	N 	0.69920 0.08410 0.99639 -0.25500
N 	N 	0.60618 0.04980 0.01853 -0.25000
N 	N 	0.80836 0.91960 0.07410 -0.19700
N 	N 	0.85812 0.95600 0.22560 -0.25500
C 	C 	0.76365 0.84790 0.23190 0.02800
H 	H 	0.77080 0.87540 0.21950 0.01100
C 	C 	0.71271 0.81640 0.23743 -0.04500
H 	H 	0.68010 0.81950 0.22980 0.04300
C 	C 	0.71927 0.77960 0.25638 -0.10200
H 	H 	0.69210 0.75240 0.26400 0.06300
C 	C 	0.77397 0.79090 0.26185 0.10600
C 	C 	0.80170 0.76180 0.27907 -0.13500
C 	C 	0.85724 0.76290 0.28215 0.10800
C 	C 	0.88634 0.72480 0.29797 -0.10600
H 	H 	0.87130 0.69740 0.30930 0.06400
C 	C 	0.93980 0.73490 0.29386 -0.03800
H 	H 	0.96940 0.71480 0.30170 0.03900
C 	C 	0.94366 0.78110 0.27562 0.02200
H 	H 	0.97680 0.79660 0.26930 0.01500
C 	C 	0.76564 0.72690 0.29540 0.09600
C 	C 	0.74080 0.65450 0.29334 -0.16500
H 	H 	0.74860 0.62150 0.28190 0.08300
C 	C 	0.70340 0.62800 0.30807 0.08600
H 	H 	0.68610 0.57730 0.30620 -0.01600
C 	C 	0.71510 0.74340 0.32689 0.08500
C 	C 	0.70090 0.79350 0.34466 -0.11000
H 	H 	0.67250 0.77750 0.35360 0.03900
C 	C 	0.73190 0.87010 0.34841 -0.00200
H 	H 	0.72640 0.90070 0.36050 0.02400
C 	C 	0.76590 0.89320 0.33502 -0.06800
H 	H 	0.78310 0.94390 0.33700 0.05100
C 	C 	0.77940 0.84980 0.31789 -0.01800
H 	H 	0.80620 0.87140 0.30900 0.04100
C 	C 	0.75430 0.77100 0.31259 -0.06500
C 	C 	0.65343 0.78230 0.47863 0.03900
H 	H 	0.65710 0.80540 0.49180 0.00800
C 	C 	0.66000 0.82750 0.46031 -0.05200
H 	H 	0.66900 0.88310 0.45890 0.04800
C 	C 	0.65017 0.77180 0.44508 -0.09100
H 	H 	0.65140 0.78230 0.43090 0.06100
C 	C 	0.63813 0.69790 0.45401 0.09300
C 	C 	0.57710 0.63280 0.41120 -0.05300
H 	H 	0.54350 0.63980 0.41810 -0.13600
C 	C 	0.58020 0.63010 0.38950 0.11200
H 	H 	0.54710 0.63220 0.38210 -0.15600
C 	C 	0.52650 0.64060 0.37880 0.21600
H 	H 	0.52580 0.64010 0.36430 -0.06400
C 	C 	0.47810 0.65100 0.38930 -0.12200
H 	H 	0.44550 0.65340 0.38150 0.06200
C 	C 	0.47400 0.65790 0.40980 -0.13500
H 	H 	0.44040 0.66740 0.41660 0.06700
C 	C 	0.52570 0.64960 0.42070 0.26700
H 	H 	0.52520 0.65570 0.43500 -0.05500
N 	N 	0.80080 0.83410 0.24639 -0.25500
N 	N 	0.89382 0.79980 0.26853 -0.25000
N 	N 	0.69164 0.66960 0.32410 -0.19700
N 	N 	0.64188 0.70600 0.47560 -0.25500
C 	C 	0.76365 0.34790 0.73190 0.02800
H 	H 	0.77080 0.37540 0.71950 0.01100
C 	C 	0.71271 0.31640 0.73743 -0.04500
H 	H 	0.68010 0.31950 0.72980 0.04300
C 	C 	0.71927 0.27960 0.75638 -0.10200
H 	H 	0.69210 0.25240 0.76400 0.06300
C 	C 	0.77397 0.29090 0.76185 0.10600
C 	C 	0.80170 0.26180 0.77907 -0.13500
C 	C 	0.85724 0.26290 0.78215 0.10800
C 	C 	0.88634 0.22480 0.79797 -0.10500
H 	H 	0.87130 0.19740 0.80930 0.06400
C 	C 	0.93980 0.23490 0.79386 -0.03800
H 	H 	0.96940 0.21480 0.80170 0.03900
C 	C 	0.94366 0.28110 0.77562 0.02200
H 	H 	0.97680 0.29660 0.76930 0.01500
C 	C 	0.76564 0.22690 0.79540 0.09600
C 	C 	0.74080 0.15450 0.79334 -0.16500
H 	H 	0.74860 0.12150 0.78190 0.08300
C 	C 	0.70340 0.12800 0.80807 0.08600
H 	H 	0.68610 0.07730 0.80620 -0.01600
C 	C 	0.71510 0.24340 0.82689 0.08500
C 	C 	0.70090 0.29350 0.84466 -0.11000
H 	H 	0.67250 0.27750 0.85360 0.03900
C 	C 	0.73190 0.37010 0.84841 -0.00200
H 	H 	0.72640 0.40070 0.86050 0.02400
C 	C 	0.76590 0.39320 0.83502 -0.06800
H 	H 	0.78310 0.44390 0.83700 0.05100
C 	C 	0.77940 0.34980 0.81789 -0.01800
H 	H 	0.80620 0.37140 0.80900 0.04100
C 	C 	0.75430 0.27100 0.81259 -0.06500
C 	C 	0.65343 0.28230 0.97863 0.03900
H 	H 	0.65710 0.30540 0.99180 0.00800
C 	C 	0.66000 0.32750 0.96031 -0.05200
H 	H 	0.66900 0.38310 0.95890 0.04800
C 	C 	0.65017 0.27180 0.94508 -0.09100
H 	H 	0.65140 0.28230 0.93090 0.06100
C 	C 	0.63813 0.19790 0.95401 0.09300
C 	C 	0.57710 0.13280 0.91120 -0.05300
H 	H 	0.54350 0.13980 0.91810 -0.13600
C 	C 	0.58020 0.13010 0.88950 0.11200
H 	H 	0.54710 0.13220 0.88210 -0.15600
C 	C 	0.52650 0.14060 0.87880 0.21600
H 	H 	0.52580 0.14010 0.86430 -0.06400
C 	C 	0.47810 0.15100 0.88930 -0.12200
H 	H 	0.44550 0.15340 0.88150 0.06200
C 	C 	0.47400 0.15790 0.90980 -0.13500
H 	H 	0.44040 0.16740 0.91660 0.06700
C 	C 	0.52570 0.14960 0.92070 0.26700
H 	H 	0.52520 0.15570 0.93500 -0.05500
N 	N 	0.80080 0.33410 0.74639 -0.25500
N 	N 	0.89382 0.29980 0.76853 -0.25000
N 	N 	0.69164 0.16960 0.82410 -0.19700
N 	N 	0.64188 0.20600 0.97560 -0.25500
C 	C 	0.26365 0.84790 0.73190 0.02800
H 	H 	0.27080 0.87540 0.71950 0.01100
C 	C 	0.21271 0.81640 0.73743 -0.04500
H 	H 	0.18010 0.81950 0.72980 0.04300
C 	C 	0.21927 0.77960 0.75638 -0.10200
H 	H 	0.19210 0.75240 0.76400 0.06300
C 	C 	0.27397 0.79090 0.76185 0.10600
C 	C 	0.30170 0.76180 0.77907 -0.13500
C 	C 	0.35724 0.76290 0.78215 0.10800
C 	C 	0.38634 0.72480 0.79797 -0.10600
H 	H 	0.37130 0.69740 0.80930 0.06400
C 	C 	0.43980 0.73490 0.79386 -0.03800
H 	H 	0.46940 0.71480 0.80170 0.03900
C 	C 	0.44366 0.78110 0.77562 0.02200
H 	H 	0.47680 0.79660 0.76930 0.01500
C 	C 	0.26564 0.72690 0.79540 0.09600
C 	C 	0.24080 0.65450 0.79334 -0.16500
H 	H 	0.24860 0.62150 0.78190 0.08300
C 	C 	0.20340 0.62800 0.80807 0.08600
H 	H 	0.18610 0.57730 0.80620 -0.01600
C 	C 	0.21510 0.74340 0.82689 0.08500
C 	C 	0.20090 0.79350 0.84466 -0.11000
H 	H 	0.17250 0.77750 0.85360 0.03900
C 	C 	0.23190 0.87010 0.84841 -0.00200
H 	H 	0.22640 0.90070 0.86050 0.02400
C 	C 	0.26590 0.89320 0.83502 -0.06800
H 	H 	0.28310 0.94390 0.83700 0.05100
C 	C 	0.27940 0.84980 0.81789 -0.01800
H 	H 	0.30620 0.87140 0.80900 0.04100
C 	C 	0.25430 0.77100 0.81259 -0.06500
C 	C 	0.15343 0.78230 0.97863 0.03900
H 	H 	0.15710 0.80540 0.99180 0.00800
C 	C 	0.16000 0.82750 0.96031 -0.05200
H 	H 	0.16900 0.88310 0.95890 0.04800
C 	C 	0.15017 0.77180 0.94508 -0.09100
H 	H 	0.15140 0.78230 0.93090 0.06100
C 	C 	0.13813 0.69790 0.95401 0.09300
C 	C 	0.07710 0.63280 0.91120 -0.05300
H 	H 	0.04350 0.63980 0.91810 -0.13600
C 	C 	0.08020 0.63010 0.88950 0.11200
H 	H 	0.04710 0.63220 0.88210 -0.15600
C 	C 	0.02650 0.64060 0.87880 0.21600
H 	H 	0.02580 0.64010 0.86430 -0.06400
C 	C 	0.97810 0.65100 0.88930 -0.12200
H 	H 	0.94550 0.65340 0.88150 0.06200
C 	C 	0.97400 0.65790 0.90980 -0.13500
H 	H 	0.94040 0.66740 0.91660 0.06700
C 	C 	0.02570 0.64960 0.92070 0.26700
H 	H 	0.02520 0.65570 0.93500 -0.05500
N 	N 	0.30080 0.83410 0.74639 -0.25500
N 	N 	0.39382 0.79980 0.76853 -0.25000
N 	N 	0.19164 0.66960 0.82410 -0.19700
N 	N 	0.14188 0.70600 0.97560 -0.25500
C 	C 	0.26365 0.34790 0.23190 0.02800
H 	H 	0.27080 0.37540 0.21950 0.01100
C 	C 	0.21271 0.31640 0.23743 -0.04500
H 	H 	0.18010 0.31950 0.22980 0.04300
C 	C 	0.21927 0.27960 0.25638 -0.10200
H 	H 	0.19210 0.25240 0.26400 0.06300
C 	C 	0.27397 0.29090 0.26185 0.10600
C 	C 	0.30170 0.26180 0.27907 -0.13500
C 	C 	0.35724 0.26290 0.28215 0.10800
C 	C 	0.38634 0.22480 0.29797 -0.10600
H 	H 	0.37130 0.19740 0.30930 0.06400
C 	C 	0.43980 0.23490 0.29386 -0.03800
H 	H 	0.46940 0.21480 0.30170 0.03900
C 	C 	0.44366 0.28110 0.27562 0.02200
H 	H 	0.47680 0.29660 0.26930 0.01500
C 	C 	0.26564 0.22690 0.29540 0.09600
C 	C 	0.24080 0.15450 0.29334 -0.16500
H 	H 	0.24860 0.12150 0.28190 0.08300
C 	C 	0.20340 0.12800 0.30807 0.08600
H 	H 	0.18610 0.07730 0.30620 -0.01600
C 	C 	0.21510 0.24340 0.32689 0.08500
C 	C 	0.20090 0.29350 0.34466 -0.11000
H 	H 	0.17250 0.27750 0.35360 0.03900
C 	C 	0.23190 0.37010 0.34841 -0.00200
H 	H 	0.22640 0.40070 0.36050 0.02400
C 	C 	0.26590 0.39320 0.33502 -0.06800
H 	H 	0.28310 0.44390 0.33700 0.05100
C 	C 	0.27940 0.34980 0.31789 -0.01800
H 	H 	0.30620 0.37140 0.30900 0.04100
C 	C 	0.25430 0.27100 0.31259 -0.06500
C 	C 	0.15343 0.28230 0.47863 0.03900
H 	H 	0.15710 0.30540 0.49180 0.00800
C 	C 	0.16000 0.32750 0.46031 -0.05200
H 	H 	0.16900 0.38310 0.45890 0.04800
C 	C 	0.15017 0.27180 0.44508 -0.09100
H 	H 	0.15140 0.28230 0.43090 0.06100
C 	C 	0.13813 0.19790 0.45401 0.09300
C 	C 	0.07710 0.13280 0.41120 -0.05300
H 	H 	0.04350 0.13980 0.41810 -0.13700
C 	C 	0.08020 0.13010 0.38950 0.11200
H 	H 	0.04710 0.13220 0.38210 -0.15600
C 	C 	0.02650 0.14060 0.37880 0.21600
H 	H 	0.02580 0.14010 0.36430 -0.06400
C 	C 	0.97810 0.15100 0.38930 -0.12200
H 	H 	0.94550 0.15340 0.38150 0.06200
C 	C 	0.97400 0.15790 0.40980 -0.13500
H 	H 	0.94040 0.16740 0.41660 0.06700
C 	C 	0.02570 0.14960 0.42070 0.26700
H 	H 	0.02520 0.15570 0.43500 -0.05500
N 	N 	0.30080 0.33410 0.24639 -0.25500
N 	N 	0.39382 0.29980 0.26853 -0.25000
N 	N 	0.19164 0.16960 0.32410 -0.19700
N 	N 	0.14188 0.20600 0.47560 -0.25500
C 	C 	0.48635 0.40210 0.23190 0.02800
H 	H 	0.47920 0.37460 0.21950 0.01100
C 	C 	0.53729 0.43360 0.23743 -0.04500
H 	H 	0.56990 0.43050 0.22980 0.04300
C 	C 	0.53073 0.47040 0.25638 -0.10200
H 	H 	0.55790 0.49760 0.26400 0.06300
C 	C 	0.47603 0.45910 0.26185 0.10600
C 	C 	0.44830 0.48820 0.27907 -0.13500
C 	C 	0.39276 0.48710 0.28215 0.10800
C 	C 	0.36366 0.52520 0.29797 -0.10600
H 	H 	0.37870 0.55260 0.30930 0.06400
C 	C 	0.31020 0.51510 0.29386 -0.03800
H 	H 	0.28060 0.53520 0.30170 0.03900
C 	C 	0.30634 0.46890 0.27562 0.02200
H 	H 	0.27320 0.45340 0.26930 0.01500
C 	C 	0.48436 0.52310 0.29540 0.09600
C 	C 	0.50920 0.59550 0.29334 -0.16500
H 	H 	0.50140 0.62850 0.28190 0.08300
C 	C 	0.54660 0.62200 0.30807 0.08600
H 	H 	0.56390 0.67270 0.30620 -0.01600
C 	C 	0.53490 0.50660 0.32689 0.08500
C 	C 	0.54910 0.45650 0.34466 -0.11000
H 	H 	0.57750 0.47250 0.35360 0.03900
C 	C 	0.51810 0.37990 0.34841 -0.00200
H 	H 	0.52360 0.34930 0.36050 0.02400
C 	C 	0.48410 0.35680 0.33502 -0.06800
H 	H 	0.46690 0.30610 0.33700 0.05100
C 	C 	0.47060 0.40020 0.31789 -0.01800
H 	H 	0.44380 0.37860 0.30900 0.04100
C 	C 	0.49570 0.47900 0.31259 -0.06500
C 	C 	0.59657 0.46770 0.47863 0.03900
H 	H 	0.59290 0.44460 0.49180 0.00800
C 	C 	0.59000 0.42250 0.46031 -0.05200
H 	H 	0.58100 0.36690 0.45890 0.04800
C 	C 	0.59983 0.47820 0.44508 -0.09100
H 	H 	0.59860 0.46770 0.43090 0.06100
C 	C 	0.61187 0.55210 0.45401 0.09300
C 	C 	0.67290 0.61720 0.41120 -0.05300
H 	H 	0.70650 0.61020 0.41810 -0.13600
C 	C 	0.66980 0.61990 0.38950 0.11200
H 	H 	0.70290 0.61780 0.38210 -0.15600
C 	C 	0.72350 0.60940 0.37880 0.21600
H 	H 	0.72420 0.60990 0.36430 -0.06400
C 	C 	0.77190 0.59900 0.38930 -0.12200
H 	H 	0.80450 0.59660 0.38150 0.06200
C 	C 	0.77600 0.59210 0.40980 -0.13500
H 	H 	0.80960 0.58260 0.41660 0.06700
C 	C 	0.72430 0.60040 0.42070 0.26700
H 	H 	0.72480 0.59430 0.43500 -0.05500
N 	N 	0.44920 0.41590 0.24639 -0.25500
N 	N 	0.35618 0.45020 0.26853 -0.25000
N 	N 	0.55836 0.58040 0.32410 -0.19700
N 	N 	0.60812 0.54400 0.47560 -0.25500
C 	C 	0.48635 0.90210 0.73190 0.02800
H 	H 	0.47920 0.87460 0.71950 0.01100
C 	C 	0.53729 0.93360 0.73743 -0.04500
H 	H 	0.56990 0.93050 0.72980 0.04300
C 	C 	0.53073 0.97040 0.75638 -0.10200
H 	H 	0.55790 0.99760 0.76400 0.06300
C 	C 	0.47603 0.95910 0.76185 0.10600
C 	C 	0.44830 0.98820 0.77907 -0.13500
C 	C 	0.39276 0.98710 0.78215 0.10800
C 	C 	0.36366 0.02520 0.79797 -0.10600
H 	H 	0.37870 0.05260 0.80930 0.06400
C 	C 	0.31020 0.01510 0.79386 -0.03800
H 	H 	0.28060 0.03520 0.80170 0.03900
C 	C 	0.30634 0.96890 0.77562 0.02300
H 	H 	0.27320 0.95340 0.76930 0.01500
C 	C 	0.48436 0.02310 0.79540 0.09600
C 	C 	0.50920 0.09550 0.79334 -0.16500
H 	H 	0.50140 0.12850 0.78190 0.08300
C 	C 	0.54660 0.12200 0.80807 0.08600
H 	H 	0.56390 0.17270 0.80620 -0.01600
C 	C 	0.53490 0.00660 0.82689 0.08500
C 	C 	0.54910 0.95650 0.84466 -0.11000
H 	H 	0.57750 0.97250 0.85360 0.03900
C 	C 	0.51810 0.87990 0.84841 -0.00200
H 	H 	0.52360 0.84930 0.86050 0.02400
C 	C 	0.48410 0.85680 0.83502 -0.06800
H 	H 	0.46690 0.80610 0.83700 0.05100
C 	C 	0.47060 0.90020 0.81789 -0.01800
H 	H 	0.44380 0.87860 0.80900 0.04100
C 	C 	0.49570 0.97900 0.81259 -0.06500
C 	C 	0.59657 0.96770 0.97863 0.03900
H 	H 	0.59290 0.94460 0.99180 0.00800
C 	C 	0.59000 0.92250 0.96031 -0.05200
H 	H 	0.58100 0.86690 0.95890 0.04800
C 	C 	0.59983 0.97820 0.94508 -0.09100
H 	H 	0.59860 0.96770 0.93090 0.06100
C 	C 	0.61187 0.05210 0.95401 0.09300
C 	C 	0.67290 0.11720 0.91120 -0.05300
H 	H 	0.70650 0.11020 0.91810 -0.13600
C 	C 	0.66980 0.11990 0.88950 0.11200
H 	H 	0.70290 0.11780 0.88210 -0.15600
C 	C 	0.72350 0.10940 0.87880 0.21600
H 	H 	0.72420 0.10990 0.86430 -0.06400
C 	C 	0.77190 0.09900 0.88930 -0.12200
H 	H 	0.80450 0.09660 0.88150 0.06200
C 	C 	0.77600 0.09210 0.90980 -0.13500
H 	H 	0.80960 0.08260 0.91660 0.06700
C 	C 	0.72430 0.10040 0.92070 0.26700
H 	H 	0.72480 0.09430 0.93500 -0.05500
N 	N 	0.44920 0.91590 0.74639 -0.25500
N 	N 	0.35618 0.95020 0.76853 -0.25000
N 	N 	0.55836 0.08040 0.82410 -0.19700
N 	N 	0.60812 0.04400 0.97560 -0.25500
C 	C 	0.98635 0.40210 0.73190 0.02800
H 	H 	0.97920 0.37460 0.71950 0.01100
C 	C 	0.03729 0.43360 0.73743 -0.04500
H 	H 	0.06990 0.43050 0.72980 0.04300
C 	C 	0.03073 0.47040 0.75638 -0.10200
H 	H 	0.05790 0.49760 0.76400 0.06300
C 	C 	0.97603 0.45910 0.76185 0.10600
C 	C 	0.94830 0.48820 0.77907 -0.13500
C 	C 	0.89276 0.48710 0.78215 0.10800
C 	C 	0.86366 0.52520 0.79797 -0.10600
H 	H 	0.87870 0.55260 0.80930 0.06400
C 	C 	0.81020 0.51510 0.79386 -0.03800
H 	H 	0.78060 0.53520 0.80170 0.03900
C 	C 	0.80634 0.46890 0.77562 0.02200
H 	H 	0.77320 0.45340 0.76930 0.01500
C 	C 	0.98436 0.52310 0.79540 0.09600
C 	C 	0.00920 0.59550 0.79334 -0.16500
H 	H 	0.00140 0.62850 0.78190 0.08300
C 	C 	0.04660 0.62200 0.80807 0.08600
H 	H 	0.06390 0.67270 0.80620 -0.01600
C 	C 	0.03490 0.50660 0.82689 0.08500
C 	C 	0.04910 0.45650 0.84466 -0.11000
H 	H 	0.07750 0.47250 0.85360 0.03900
C 	C 	0.01810 0.37990 0.84841 -0.00200
H 	H 	0.02360 0.34930 0.86050 0.02400
C 	C 	0.98410 0.35680 0.83502 -0.06800
H 	H 	0.96690 0.30610 0.83700 0.05100
C 	C 	0.97060 0.40020 0.81789 -0.01800
H 	H 	0.94380 0.37860 0.80900 0.04100
C 	C 	0.99570 0.47900 0.81259 -0.06500
C 	C 	0.09657 0.46770 0.97863 0.03900
H 	H 	0.09290 0.44460 0.99180 0.00800
C 	C 	0.09000 0.42250 0.96031 -0.05200
H 	H 	0.08100 0.36690 0.95890 0.04800
C 	C 	0.09983 0.47820 0.94508 -0.09100
H 	H 	0.09860 0.46770 0.93090 0.06100
C 	C 	0.11187 0.55210 0.95401 0.09300
C 	C 	0.17290 0.61720 0.91120 -0.05300
H 	H 	0.20650 0.61020 0.91810 -0.13600
C 	C 	0.16980 0.61990 0.88950 0.11200
H 	H 	0.20290 0.61780 0.88210 -0.15600
C 	C 	0.22350 0.60940 0.87880 0.21600
H 	H 	0.22420 0.60990 0.86430 -0.06400
C 	C 	0.27190 0.59900 0.88930 -0.12200
H 	H 	0.30450 0.59660 0.88150 0.06200
C 	C 	0.27600 0.59210 0.90980 -0.13500
H 	H 	0.30960 0.58260 0.91660 0.06700
C 	C 	0.22430 0.60040 0.92070 0.26700
H 	H 	0.22480 0.59430 0.93500 -0.05500
N 	N 	0.94920 0.41590 0.74639 -0.25500
N 	N 	0.85618 0.45020 0.76853 -0.25000
N 	N 	0.05836 0.58040 0.82410 -0.19700
N 	N 	0.10812 0.54400 0.97560 -0.25500
C 	C 	0.98635 0.90210 0.23190 0.02800
H 	H 	0.97920 0.87460 0.21950 0.01100
C 	C 	0.03729 0.93360 0.23743 -0.04500
H 	H 	0.06990 0.93050 0.22980 0.04300
C 	C 	0.03073 0.97040 0.25638 -0.10200
H 	H 	0.05790 0.99760 0.26400 0.06300
C 	C 	0.97603 0.95910 0.26185 0.10600
C 	C 	0.94830 0.98820 0.27907 -0.13500
C 	C 	0.89276 0.98710 0.28215 0.10800
C 	C 	0.86366 0.02520 0.29797 -0.10500
H 	H 	0.87870 0.05260 0.30930 0.06400
C 	C 	0.81020 0.01510 0.29386 -0.03800
H 	H 	0.78060 0.03520 0.30170 0.03900
C 	C 	0.80634 0.96890 0.27562 0.02200
H 	H 	0.77320 0.95340 0.26930 0.01500
C 	C 	0.98436 0.02310 0.29540 0.09600
C 	C 	0.00920 0.09550 0.29334 -0.16500
H 	H 	0.00140 0.12850 0.28190 0.08300
C 	C 	0.04660 0.12200 0.30807 0.08700
H 	H 	0.06390 0.17270 0.30620 -0.01600
C 	C 	0.03490 0.00660 0.32689 0.08500
C 	C 	0.04910 0.95650 0.34466 -0.11000
H 	H 	0.07750 0.97250 0.35360 0.03900
C 	C 	0.01810 0.87990 0.34841 -0.00100
H 	H 	0.02360 0.84930 0.36050 0.02400
C 	C 	0.98410 0.85680 0.33502 -0.06900
H 	H 	0.96690 0.80610 0.33700 0.05100
C 	C 	0.97060 0.90020 0.31789 -0.01800
H 	H 	0.94380 0.87860 0.30900 0.04100
C 	C 	0.99570 0.97900 0.31259 -0.06500
C 	C 	0.09657 0.96770 0.47863 0.03900
H 	H 	0.09290 0.94460 0.49180 0.00800
C 	C 	0.09000 0.92250 0.46031 -0.05200
H 	H 	0.08100 0.86690 0.45890 0.04800
C 	C 	0.09983 0.97820 0.44508 -0.09100
H 	H 	0.09860 0.96770 0.43090 0.06100
C 	C 	0.11187 0.05210 0.45401 0.09300
C 	C 	0.17290 0.11720 0.41120 -0.05300
H 	H 	0.20650 0.11020 0.41810 -0.13600
C 	C 	0.16980 0.11990 0.38950 0.11200
H 	H 	0.20290 0.11780 0.38210 -0.15600
C 	C 	0.22350 0.10940 0.37880 0.21600
H 	H 	0.22420 0.10990 0.36430 -0.06400
C 	C 	0.27190 0.09900 0.38930 -0.12200
H 	H 	0.30450 0.09660 0.38150 0.06200
C 	C 	0.27600 0.09210 0.40980 -0.13500
H 	H 	0.30960 0.08260 0.41660 0.06700
C 	C 	0.22430 0.10040 0.42070 0.26700
H 	H 	0.22480 0.09430 0.43500 -0.05500
N 	N 	0.94920 0.91590 0.24639 -0.25500
N 	N 	0.85618 0.95020 0.26853 -0.25000
N 	N 	0.05836 0.08040 0.32410 -0.19700
N 	N 	0.10812 0.04400 0.47560 -0.25500
Ag	Ag	0.37500 0.37500 0.09567 0.52700
C 	C 	0.37500 0.37500 0.19477 -0.10700
C 	C 	0.37500 0.37500 0.17153 0.04300
N 	N 	0.37500 0.37500 0.12934 -0.21800
Ag	Ag	0.37500 0.87500 0.59567 0.52700
C 	C 	0.37500 0.87500 0.69477 -0.10700
C 	C 	0.37500 0.87500 0.67153 0.04300
N 	N 	0.37500 0.87500 0.62934 -0.21800
Ag	Ag	0.87500 0.37500 0.59567 0.52700
C 	C 	0.87500 0.37500 0.69477 -0.10700
C 	C 	0.87500 0.37500 0.67153 0.04300
N 	N 	0.87500 0.37500 0.62934 -0.21800
Ag	Ag	0.87500 0.87500 0.09567 0.52700
C 	C 	0.87500 0.87500 0.19477 -0.10700
C 	C 	0.87500 0.87500 0.17153 0.04300
N 	N 	0.87500 0.87500 0.12934 -0.21900
Ag	Ag	0.62500 0.62500 0.34567 0.52700
C 	C 	0.62500 0.62500 0.44477 -0.10700
C 	C 	0.62500 0.62500 0.42153 0.04300
N 	N 	0.62500 0.62500 0.37934 -0.21800
Ag	Ag	0.62500 0.12500 0.84567 0.52700
C 	C 	0.62500 0.12500 0.94477 -0.10700
C 	C 	0.62500 0.12500 0.92153 0.04300
N 	N 	0.62500 0.12500 0.87934 -0.21800
Ag	Ag	0.12500 0.62500 0.84567 0.52700
C 	C 	0.12500 0.62500 0.94477 -0.10700
C 	C 	0.12500 0.62500 0.92153 0.04300
N 	N 	0.12500 0.62500 0.87934 -0.21800
Ag	Ag	0.12500 0.12500 0.34567 0.52700
C 	C 	0.12500 0.12500 0.44477 -0.10700
C 	C 	0.12500 0.12500 0.42153 0.04300
N 	N 	0.12500 0.12500 0.37934 -0.21900
Fe	Fe	0.62500 0.12500 0.99639 1.18300
Fe	Fe	0.62500 0.62500 0.49639 1.18300
Fe	Fe	0.12500 0.62500 0.99639 1.18300
Fe	Fe	0.12500 0.12500 0.49639 1.18300
Fe	Fe	0.87500 0.87500 0.24639 1.18300
Fe	Fe	0.87500 0.37500 0.74639 1.18300
Fe	Fe	0.37500 0.37500 0.24639 1.18300
Fe	Fe	0.37500 0.87500 0.74639 1.18300
C 	C 	0.23635 0.15210 0.76810 0.02800
H 	H 	0.22920 0.12460 0.78050 0.01100
C 	C 	0.28729 0.18360 0.76257 -0.04500
H 	H 	0.31990 0.18050 0.77020 0.04300
C 	C 	0.28073 0.22040 0.74362 -0.10200
H 	H 	0.30790 0.24760 0.73600 0.06300
C 	C 	0.22603 0.20910 0.73815 0.10600
C 	C 	0.19830 0.23820 0.72093 -0.13500
C 	C 	0.14276 0.23710 0.71785 0.10800
C 	C 	0.11366 0.27520 0.70203 -0.10600
H 	H 	0.12870 0.30260 0.69070 0.06400
C 	C 	0.06020 0.26510 0.70614 -0.03800
H 	H 	0.03060 0.28520 0.69830 0.03900
C 	C 	0.05634 0.21890 0.72438 0.02200
H 	H 	0.02320 0.20340 0.73070 0.01500
C 	C 	0.23436 0.27310 0.70460 0.09600
C 	C 	0.25920 0.34550 0.70666 -0.16500
H 	H 	0.25140 0.37850 0.71810 0.08300
C 	C 	0.29660 0.37200 0.69193 0.08600
H 	H 	0.31390 0.42270 0.69380 -0.01600
C 	C 	0.28490 0.25660 0.67311 0.08500
C 	C 	0.29910 0.20650 0.65534 -0.11000
H 	H 	0.32750 0.22250 0.64640 0.03900
C 	C 	0.26810 0.12990 0.65159 -0.00200
H 	H 	0.27360 0.09930 0.63950 0.02400
C 	C 	0.23410 0.10680 0.66498 -0.06800
H 	H 	0.21690 0.05610 0.66300 0.05100
C 	C 	0.22060 0.15020 0.68211 -0.01800
H 	H 	0.19380 0.12860 0.69100 0.04100
C 	C 	0.24570 0.22900 0.68741 -0.06500
C 	C 	0.34657 0.21770 0.52137 0.03900
H 	H 	0.34290 0.19460 0.50820 0.00800
C 	C 	0.34000 0.17250 0.53969 -0.05200
H 	H 	0.33100 0.11690 0.54110 0.04800
C 	C 	0.34983 0.22820 0.55492 -0.09100
H 	H 	0.34860 0.21770 0.56910 0.06100
C 	C 	0.36187 0.30210 0.54599 0.09300
C 	C 	0.42290 0.36720 0.58880 -0.05300
H 	H 	0.45650 0.36020 0.58190 -0.13600
C 	C 	0.41980 0.36990 0.61050 0.11200
H 	H 	0.45290 0.36780 0.61790 -0.15600
C 	C 	0.47350 0.35940 0.62120 0.21600
H 	H 	0.47420 0.35990 0.63570 -0.06400
C 	C 	0.52190 0.34900 0.61070 -0.12200
H 	H 	0.55450 0.34660 0.61850 0.06200
C 	C 	0.52600 0.34210 0.59020 -0.13500
H 	H 	0.55960 0.33260 0.58340 0.06700
C 	C 	0.47430 0.35040 0.57930 0.26700
H 	H 	0.47480 0.34430 0.56500 -0.05500
N 	N 	0.19920 0.16590 0.75361 -0.25500
N 	N 	0.10618 0.20020 0.73147 -0.25000
N 	N 	0.30836 0.33040 0.67590 -0.19700
N 	N 	0.35812 0.29400 0.52440 -0.25500
C 	C 	0.23635 0.65210 0.26810 0.02800
H 	H 	0.22920 0.62460 0.28050 0.01100
C 	C 	0.28729 0.68360 0.26257 -0.04500
H 	H 	0.31990 0.68050 0.27020 0.04300
C 	C 	0.28073 0.72040 0.24362 -0.10200
H 	H 	0.30790 0.74760 0.23600 0.06300
C 	C 	0.22603 0.70910 0.23815 0.10600
C 	C 	0.19830 0.73820 0.22093 -0.13500
C 	C 	0.14276 0.73710 0.21785 0.10800
C 	C 	0.11366 0.77520 0.20203 -0.10500
H 	H 	0.12870 0.80260 0.19070 0.06400
C 	C 	0.06020 0.76510 0.20614 -0.03800
H 	H 	0.03060 0.78520 0.19830 0.03900
C 	C 	0.05634 0.71890 0.22438 0.02200
H 	H 	0.02320 0.70340 0.23070 0.01500
C 	C 	0.23436 0.77310 0.20460 0.09600
C 	C 	0.25920 0.84550 0.20666 -0.16500
H 	H 	0.25140 0.87850 0.21810 0.08300
C 	C 	0.29660 0.87200 0.19193 0.08600
H 	H 	0.31390 0.92270 0.19380 -0.01600
C 	C 	0.28490 0.75660 0.17311 0.08500
C 	C 	0.29910 0.70650 0.15534 -0.11000
H 	H 	0.32750 0.72250 0.14640 0.03900
C 	C 	0.26810 0.62990 0.15159 -0.00200
H 	H 	0.27360 0.59930 0.13950 0.02400
C 	C 	0.23410 0.60680 0.16498 -0.06800
H 	H 	0.21690 0.55610 0.16300 0.05100
C 	C 	0.22060 0.65020 0.18211 -0.01800
H 	H 	0.19380 0.62860 0.19100 0.04100
C 	C 	0.24570 0.72900 0.18741 -0.06500
C 	C 	0.34657 0.71770 0.02137 0.03900
H 	H 	0.34290 0.69460 0.00820 0.00800
C 	C 	0.34000 0.67250 0.03969 -0.05200
H 	H 	0.33100 0.61690 0.04110 0.04800
C 	C 	0.34983 0.72820 0.05492 -0.09100
H 	H 	0.34860 0.71770 0.06910 0.06100
C 	C 	0.36187 0.80210 0.04599 0.09300
C 	C 	0.42290 0.86720 0.08880 -0.05300
H 	H 	0.45650 0.86020 0.08190 -0.13600
C 	C 	0.41980 0.86990 0.11050 0.11200
H 	H 	0.45290 0.86780 0.11790 -0.15600
C 	C 	0.47350 0.85940 0.12120 0.21600
H 	H 	0.47420 0.85990 0.13570 -0.06400
C 	C 	0.52190 0.84900 0.11070 -0.12200
H 	H 	0.55450 0.84660 0.11850 0.06200
C 	C 	0.52600 0.84210 0.09020 -0.13500
H 	H 	0.55960 0.83260 0.08340 0.06700
C 	C 	0.47430 0.85040 0.07930 0.26700
H 	H 	0.47480 0.84430 0.06500 -0.05500
N 	N 	0.19920 0.66590 0.25361 -0.25500
N 	N 	0.10618 0.70020 0.23147 -0.25000
N 	N 	0.30836 0.83040 0.17590 -0.19700
N 	N 	0.35812 0.79400 0.02440 -0.25500
C 	C 	0.73635 0.15210 0.26810 0.02800
H 	H 	0.72920 0.12460 0.28050 0.01100
C 	C 	0.78729 0.18360 0.26257 -0.04500
H 	H 	0.81990 0.18050 0.27020 0.04300
C 	C 	0.78073 0.22040 0.24362 -0.10200
H 	H 	0.80790 0.24760 0.23600 0.06300
C 	C 	0.72603 0.20910 0.23815 0.10600
C 	C 	0.69830 0.23820 0.22093 -0.13500
C 	C 	0.64276 0.23710 0.21785 0.10800
C 	C 	0.61366 0.27520 0.20203 -0.10600
H 	H 	0.62870 0.30260 0.19070 0.06400
C 	C 	0.56020 0.26510 0.20614 -0.03800
H 	H 	0.53060 0.28520 0.19830 0.03900
C 	C 	0.55634 0.21890 0.22438 0.02200
H 	H 	0.52320 0.20340 0.23070 0.01500
C 	C 	0.73436 0.27310 0.20460 0.09600
C 	C 	0.75920 0.34550 0.20666 -0.16500
H 	H 	0.75140 0.37850 0.21810 0.08300
C 	C 	0.79660 0.37200 0.19193 0.08600
H 	H 	0.81390 0.42270 0.19380 -0.01600
C 	C 	0.78490 0.25660 0.17311 0.08500
C 	C 	0.79910 0.20650 0.15534 -0.11000
H 	H 	0.82750 0.22250 0.14640 0.03900
C 	C 	0.76810 0.12990 0.15159 -0.00200
H 	H 	0.77360 0.09930 0.13950 0.02400
C 	C 	0.73410 0.10680 0.16498 -0.06800
H 	H 	0.71690 0.05610 0.16300 0.05100
C 	C 	0.72060 0.15020 0.18211 -0.01800
H 	H 	0.69380 0.12860 0.19100 0.04100
C 	C 	0.74570 0.22900 0.18741 -0.06500
C 	C 	0.84657 0.21770 0.02137 0.03900
H 	H 	0.84290 0.19460 0.00820 0.00800
C 	C 	0.84000 0.17250 0.03969 -0.05200
H 	H 	0.83100 0.11690 0.04110 0.04800
C 	C 	0.84983 0.22820 0.05492 -0.09100
H 	H 	0.84860 0.21770 0.06910 0.06100
C 	C 	0.86187 0.30210 0.04599 0.09300
C 	C 	0.92290 0.36720 0.08880 -0.05300
H 	H 	0.95650 0.36020 0.08190 -0.13600
C 	C 	0.91980 0.36990 0.11050 0.11200
H 	H 	0.95290 0.36780 0.11790 -0.15600
C 	C 	0.97350 0.35940 0.12120 0.21600
H 	H 	0.97420 0.35990 0.13570 -0.06400
C 	C 	0.02190 0.34900 0.11070 -0.12200
H 	H 	0.05450 0.34660 0.11850 0.06200
C 	C 	0.02600 0.34210 0.09020 -0.13500
H 	H 	0.05960 0.33260 0.08340 0.06700
C 	C 	0.97430 0.35040 0.07930 0.26700
H 	H 	0.97480 0.34430 0.06500 -0.05500
N 	N 	0.69920 0.16590 0.25361 -0.25500
N 	N 	0.60618 0.20020 0.23147 -0.25000
N 	N 	0.80836 0.33040 0.17590 -0.19700
N 	N 	0.85812 0.29400 0.02440 -0.25500
C 	C 	0.73635 0.65210 0.76810 0.02800
H 	H 	0.72920 0.62460 0.78050 0.01100
C 	C 	0.78729 0.68360 0.76257 -0.04500
H 	H 	0.81990 0.68050 0.77020 0.04300
C 	C 	0.78073 0.72040 0.74362 -0.10200
H 	H 	0.80790 0.74760 0.73600 0.06300
C 	C 	0.72603 0.70910 0.73815 0.10600
C 	C 	0.69830 0.73820 0.72093 -0.13500
C 	C 	0.64276 0.73710 0.71785 0.10800
C 	C 	0.61366 0.77520 0.70203 -0.10600
H 	H 	0.62870 0.80260 0.69070 0.06400
C 	C 	0.56020 0.76510 0.70614 -0.03800
H 	H 	0.53060 0.78520 0.69830 0.03900
C 	C 	0.55634 0.71890 0.72438 0.02200
H 	H 	0.52320 0.70340 0.73070 0.01500
C 	C 	0.73436 0.77310 0.70460 0.09600
C 	C 	0.75920 0.84550 0.70666 -0.16500
H 	H 	0.75140 0.87850 0.71810 0.08300
C 	C 	0.79660 0.87200 0.69193 0.08600
H 	H 	0.81390 0.92270 0.69380 -0.01600
C 	C 	0.78490 0.75660 0.67311 0.08500
C 	C 	0.79910 0.70650 0.65534 -0.11000
H 	H 	0.82750 0.72250 0.64640 0.03900
C 	C 	0.76810 0.62990 0.65159 -0.00200
H 	H 	0.77360 0.59930 0.63950 0.02400
C 	C 	0.73410 0.60680 0.66498 -0.06800
H 	H 	0.71690 0.55610 0.66300 0.05100
C 	C 	0.72060 0.65020 0.68211 -0.01800
H 	H 	0.69380 0.62860 0.69100 0.04100
C 	C 	0.74570 0.72900 0.68741 -0.06500
C 	C 	0.84657 0.71770 0.52137 0.03900
H 	H 	0.84290 0.69460 0.50820 0.00800
C 	C 	0.84000 0.67250 0.53969 -0.05200
H 	H 	0.83100 0.61690 0.54110 0.04800
C 	C 	0.84983 0.72820 0.55492 -0.09100
H 	H 	0.84860 0.71770 0.56910 0.06100
C 	C 	0.86187 0.80210 0.54599 0.09300
C 	C 	0.92290 0.86720 0.58880 -0.05300
H 	H 	0.95650 0.86020 0.58190 -0.13700
C 	C 	0.91980 0.86990 0.61050 0.11200
H 	H 	0.95290 0.86780 0.61790 -0.15600
C 	C 	0.97350 0.85940 0.62120 0.21600
H 	H 	0.97420 0.85990 0.63570 -0.06400
C 	C 	0.02190 0.84900 0.61070 -0.12200
H 	H 	0.05450 0.84660 0.61850 0.06200
C 	C 	0.02600 0.84210 0.59020 -0.13500
H 	H 	0.05960 0.83260 0.58340 0.06700
C 	C 	0.97430 0.85040 0.57930 0.26700
H 	H 	0.97480 0.84430 0.56500 -0.05500
N 	N 	0.69920 0.66590 0.75361 -0.25500
N 	N 	0.60618 0.70020 0.73147 -0.25000
N 	N 	0.80836 0.83040 0.67590 -0.19700
N 	N 	0.85812 0.79400 0.52440 -0.25500
C 	C 	0.51365 0.59790 0.76810 0.02800
H 	H 	0.52080 0.62540 0.78050 0.01100
C 	C 	0.46271 0.56640 0.76257 -0.04500
H 	H 	0.43010 0.56950 0.77020 0.04300
C 	C 	0.46927 0.52960 0.74362 -0.10200
H 	H 	0.44210 0.50240 0.73600 0.06300
C 	C 	0.52397 0.54090 0.73815 0.10600
C 	C 	0.55170 0.51180 0.72093 -0.13500
C 	C 	0.60724 0.51290 0.71785 0.10800
C 	C 	0.63634 0.47480 0.70203 -0.10600
H 	H 	0.62130 0.44740 0.69070 0.06400
C 	C 	0.68980 0.48490 0.70614 -0.03800
H 	H 	0.71940 0.46480 0.69830 0.03900
C 	C 	0.69366 0.53110 0.72438 0.02200
H 	H 	0.72680 0.54660 0.73070 0.01500
C 	C 	0.51564 0.47690 0.70460 0.09600
C 	C 	0.49080 0.40450 0.70666 -0.16500
H 	H 	0.49860 0.37150 0.71810 0.08300
C 	C 	0.45340 0.37800 0.69193 0.08600
H 	H 	0.43610 0.32730 0.69380 -0.01600
C 	C 	0.46510 0.49340 0.67311 0.08500
C 	C 	0.45090 0.54350 0.65534 -0.11000
H 	H 	0.42250 0.52750 0.64640 0.03900
C 	C 	0.48190 0.62010 0.65159 -0.00200
H 	H 	0.47640 0.65070 0.63950 0.02400
C 	C 	0.51590 0.64320 0.66498 -0.06800
H 	H 	0.53310 0.69390 0.66300 0.05100
C 	C 	0.52940 0.59980 0.68211 -0.01800
H 	H 	0.55620 0.62140 0.69100 0.04100
C 	C 	0.50430 0.52100 0.68741 -0.06500
C 	C 	0.40343 0.53230 0.52137 0.03900
H 	H 	0.40710 0.55540 0.50820 0.00800
C 	C 	0.41000 0.57750 0.53969 -0.05200
H 	H 	0.41900 0.63310 0.54110 0.04800
C 	C 	0.40017 0.52180 0.55492 -0.09100
H 	H 	0.40140 0.53230 0.56910 0.06100
C 	C 	0.38813 0.44790 0.54599 0.09300
C 	C 	0.32710 0.38280 0.58880 -0.05300
H 	H 	0.29350 0.38980 0.58190 -0.13600
C 	C 	0.33020 0.38010 0.61050 0.11200
H 	H 	0.29710 0.38220 0.61790 -0.15600
C 	C 	0.27650 0.39060 0.62120 0.21600
H 	H 	0.27580 0.39010 0.63570 -0.06400
C 	C 	0.22810 0.40100 0.61070 -0.12200
H 	H 	0.19550 0.40340 0.61850 0.06200
C 	C 	0.22400 0.40790 0.59020 -0.13500
H 	H 	0.19040 0.41740 0.58340 0.06700
C 	C 	0.27570 0.39960 0.57930 0.26700
H 	H 	0.27520 0.40570 0.56500 -0.05500
N 	N 	0.55080 0.58410 0.75361 -0.25500
N 	N 	0.64382 0.54980 0.73147 -0.25000
N 	N 	0.44164 0.41960 0.67590 -0.19700
N 	N 	0.39188 0.45600 0.52440 -0.25500
C 	C 	0.51365 0.09790 0.26810 0.02800
H 	H 	0.52080 0.12540 0.28050 0.01100
C 	C 	0.46271 0.06640 0.26257 -0.04500
H 	H 	0.43010 0.06950 0.27020 0.04300
C 	C 	0.46927 0.02960 0.24362 -0.10200
H 	H 	0.44210 0.00240 0.23600 0.06300
C 	C 	0.52397 0.04090 0.23815 0.10600
C 	C 	0.55170 0.01180 0.22093 -0.13500
C 	C 	0.60724 0.01290 0.21785 0.10800
C 	C 	0.63634 0.97480 0.20203 -0.10600
H 	H 	0.62130 0.94740 0.19070 0.06400
C 	C 	0.68980 0.98490 0.20614 -0.03800
H 	H 	0.71940 0.96480 0.19830 0.03900
C 	C 	0.69366 0.03110 0.22438 0.02300
H 	H 	0.72680 0.04660 0.23070 0.01500
C 	C 	0.51564 0.97690 0.20460 0.09600
C 	C 	0.49080 0.90450 0.20666 -0.16500
H 	H 	0.49860 0.87150 0.21810 0.08300
C 	C 	0.45340 0.87800 0.19193 0.08600
H 	H 	0.43610 0.82730 0.19380 -0.01600
C 	C 	0.46510 0.99340 0.17311 0.08500
C 	C 	0.45090 0.04350 0.15534 -0.11000
H 	H 	0.42250 0.02750 0.14640 0.03900
C 	C 	0.48190 0.12010 0.15159 -0.00200
H 	H 	0.47640 0.15070 0.13950 0.02400
C 	C 	0.51590 0.14320 0.16498 -0.06800
H 	H 	0.53310 0.19390 0.16300 0.05100
C 	C 	0.52940 0.09980 0.18211 -0.01800
H 	H 	0.55620 0.12140 0.19100 0.04100
C 	C 	0.50430 0.02100 0.18741 -0.06500
C 	C 	0.40343 0.03230 0.02137 0.03900
H 	H 	0.40710 0.05540 0.00820 0.00800
C 	C 	0.41000 0.07750 0.03969 -0.05200
H 	H 	0.41900 0.13310 0.04110 0.04800
C 	C 	0.40017 0.02180 0.05492 -0.09100
H 	H 	0.40140 0.03230 0.06910 0.06100
C 	C 	0.38813 0.94790 0.04599 0.09300
C 	C 	0.32710 0.88280 0.08880 -0.05300
H 	H 	0.29350 0.88980 0.08190 -0.13600
C 	C 	0.33020 0.88010 0.11050 0.11200
H 	H 	0.29710 0.88220 0.11790 -0.15600
C 	C 	0.27650 0.89060 0.12120 0.21600
H 	H 	0.27580 0.89010 0.13570 -0.06400
C 	C 	0.22810 0.90100 0.11070 -0.12200
H 	H 	0.19550 0.90340 0.11850 0.06200
C 	C 	0.22400 0.90790 0.09020 -0.13500
H 	H 	0.19040 0.91740 0.08340 0.06700
C 	C 	0.27570 0.89960 0.07930 0.26700
H 	H 	0.27520 0.90570 0.06500 -0.05500
N 	N 	0.55080 0.08410 0.25361 -0.25500
N 	N 	0.64382 0.04980 0.23147 -0.25000
N 	N 	0.44164 0.91960 0.17590 -0.19700
N 	N 	0.39188 0.95600 0.02440 -0.25500
C 	C 	0.01365 0.59790 0.26810 0.02800
H 	H 	0.02080 0.62540 0.28050 0.01100
C 	C 	0.96271 0.56640 0.26257 -0.04500
H 	H 	0.93010 0.56950 0.27020 0.04300
C 	C 	0.96927 0.52960 0.24362 -0.10200
H 	H 	0.94210 0.50240 0.23600 0.06300
C 	C 	0.02397 0.54090 0.23815 0.10600
C 	C 	0.05170 0.51180 0.22093 -0.13500
C 	C 	0.10724 0.51290 0.21785 0.10800
C 	C 	0.13634 0.47480 0.20203 -0.10600
H 	H 	0.12130 0.44740 0.19070 0.06400
C 	C 	0.18980 0.48490 0.20614 -0.03800
H 	H 	0.21940 0.46480 0.19830 0.03900
C 	C 	0.19366 0.53110 0.22438 0.02200
H 	H 	0.22680 0.54660 0.23070 0.01500
C 	C 	0.01564 0.47690 0.20460 0.09600
C 	C 	0.99080 0.40450 0.20666 -0.16500
H 	H 	0.99860 0.37150 0.21810 0.08300
C 	C 	0.95340 0.37800 0.19193 0.08600
H 	H 	0.93610 0.32730 0.19380 -0.01600
C 	C 	0.96510 0.49340 0.17311 0.08500
C 	C 	0.95090 0.54350 0.15534 -0.11000
H 	H 	0.92250 0.52750 0.14640 0.03900
C 	C 	0.98190 0.62010 0.15159 -0.00200
H 	H 	0.97640 0.65070 0.13950 0.02400
C 	C 	0.01590 0.64320 0.16498 -0.06800
H 	H 	0.03310 0.69390 0.16300 0.05100
C 	C 	0.02940 0.59980 0.18211 -0.01800
H 	H 	0.05620 0.62140 0.19100 0.04100
C 	C 	0.00430 0.52100 0.18741 -0.06500
C 	C 	0.90343 0.53230 0.02137 0.03900
H 	H 	0.90710 0.55540 0.00820 0.00800
C 	C 	0.91000 0.57750 0.03969 -0.05200
H 	H 	0.91900 0.63310 0.04110 0.04800
C 	C 	0.90017 0.52180 0.05492 -0.09100
H 	H 	0.90140 0.53230 0.06910 0.06100
C 	C 	0.88813 0.44790 0.04599 0.09300
C 	C 	0.82710 0.38280 0.08880 -0.05300
H 	H 	0.79350 0.38980 0.08190 -0.13600
C 	C 	0.83020 0.38010 0.11050 0.11200
H 	H 	0.79710 0.38220 0.11790 -0.15600
C 	C 	0.77650 0.39060 0.12120 0.21600
H 	H 	0.77580 0.39010 0.13570 -0.06400
C 	C 	0.72810 0.40100 0.11070 -0.12200
H 	H 	0.69550 0.40340 0.11850 0.06200
C 	C 	0.72400 0.40790 0.09020 -0.13500
H 	H 	0.69040 0.41740 0.08340 0.06700
C 	C 	0.77570 0.39960 0.07930 0.26700
H 	H 	0.77520 0.40570 0.06500 -0.05500
N 	N 	0.05080 0.58410 0.25361 -0.25500
N 	N 	0.14382 0.54980 0.23147 -0.25000
N 	N 	0.94164 0.41960 0.17590 -0.19700
N 	N 	0.89188 0.45600 0.02440 -0.25500
C 	C 	0.01365 0.09790 0.76810 0.02800
H 	H 	0.02080 0.12540 0.78050 0.01100
C 	C 	0.96271 0.06640 0.76257 -0.04500
H 	H 	0.93010 0.06950 0.77020 0.04300
C 	C 	0.96927 0.02960 0.74362 -0.10200
H 	H 	0.94210 0.00240 0.73600 0.06300
C 	C 	0.02397 0.04090 0.73815 0.10600
C 	C 	0.05170 0.01180 0.72093 -0.13500
C 	C 	0.10724 0.01290 0.71785 0.10800
C 	C 	0.13634 0.97480 0.70203 -0.10500
H 	H 	0.12130 0.94740 0.69070 0.06400
C 	C 	0.18980 0.98490 0.70614 -0.03800
H 	H 	0.21940 0.96480 0.69830 0.03900
C 	C 	0.19366 0.03110 0.72438 0.02200
H 	H 	0.22680 0.04660 0.73070 0.01500
C 	C 	0.01564 0.97690 0.70460 0.09600
C 	C 	0.99080 0.90450 0.70666 -0.16500
H 	H 	0.99860 0.87150 0.71810 0.08300
C 	C 	0.95340 0.87800 0.69193 0.08700
H 	H 	0.93610 0.82730 0.69380 -0.01600
C 	C 	0.96510 0.99340 0.67311 0.08500
C 	C 	0.95090 0.04350 0.65534 -0.11000
H 	H 	0.92250 0.02750 0.64640 0.03900
C 	C 	0.98190 0.12010 0.65159 -0.00100
H 	H 	0.97640 0.15070 0.63950 0.02400
C 	C 	0.01590 0.14320 0.66498 -0.06900
H 	H 	0.03310 0.19390 0.66300 0.05100
C 	C 	0.02940 0.09980 0.68211 -0.01800
H 	H 	0.05620 0.12140 0.69100 0.04100
C 	C 	0.00430 0.02100 0.68741 -0.06500
C 	C 	0.90343 0.03230 0.52137 0.03900
H 	H 	0.90710 0.05540 0.50820 0.00800
C 	C 	0.91000 0.07750 0.53969 -0.05200
H 	H 	0.91900 0.13310 0.54110 0.04800
C 	C 	0.90017 0.02180 0.55492 -0.09100
H 	H 	0.90140 0.03230 0.56910 0.06100
C 	C 	0.88813 0.94790 0.54599 0.09300
C 	C 	0.82710 0.88280 0.58880 -0.05300
H 	H 	0.79350 0.88980 0.58190 -0.13600
C 	C 	0.83020 0.88010 0.61050 0.11200
H 	H 	0.79710 0.88220 0.61790 -0.15600
C 	C 	0.77650 0.89060 0.62120 0.21600
H 	H 	0.77580 0.89010 0.63570 -0.06400
C 	C 	0.72810 0.90100 0.61070 -0.12200
H 	H 	0.69550 0.90340 0.61850 0.06200
C 	C 	0.72400 0.90790 0.59020 -0.13500
H 	H 	0.69040 0.91740 0.58340 0.06700
C 	C 	0.77570 0.89960 0.57930 0.26700
H 	H 	0.77520 0.90570 0.56500 -0.05500
N 	N 	0.05080 0.08410 0.75361 -0.25500
N 	N 	0.14382 0.04980 0.73147 -0.25000
N 	N 	0.94164 0.91960 0.67590 -0.19700
N 	N 	0.89188 0.95600 0.52440 -0.25500
C 	C 	0.48635 0.84790 0.01810 0.02800
H 	H 	0.47920 0.87540 0.03050 0.01100
C 	C 	0.53729 0.81640 0.01257 -0.04500
H 	H 	0.56990 0.81950 0.02020 0.04300
C 	C 	0.53073 0.77960 0.99362 -0.10200
H 	H 	0.55790 0.75240 0.98600 0.06300
C 	C 	0.47603 0.79090 0.98815 0.10600
C 	C 	0.44830 0.76180 0.97093 -0.13500
C 	C 	0.39276 0.76290 0.96785 0.10800
C 	C 	0.36366 0.72480 0.95203 -0.10600
H 	H 	0.37870 0.69740 0.94070 0.06400
C 	C 	0.31020 0.73490 0.95614 -0.03800
H 	H 	0.28060 0.71480 0.94830 0.03900
C 	C 	0.30634 0.78110 0.97438 0.02200
H 	H 	0.27320 0.79660 0.98070 0.01500
C 	C 	0.48436 0.72690 0.95460 0.09600
C 	C 	0.50920 0.65450 0.95666 -0.16500
H 	H 	0.50140 0.62150 0.96810 0.08300
C 	C 	0.54660 0.62800 0.94193 0.08600
H 	H 	0.56390 0.57730 0.94380 -0.01600
C 	C 	0.53490 0.74340 0.92311 0.08500
C 	C 	0.54910 0.79350 0.90534 -0.11000
H 	H 	0.57750 0.77750 0.89640 0.03900
C 	C 	0.51810 0.87010 0.90159 -0.00200
H 	H 	0.52360 0.90070 0.88950 0.02400
C 	C 	0.48410 0.89320 0.91498 -0.06800
H 	H 	0.46690 0.94390 0.91300 0.05100
C 	C 	0.47060 0.84980 0.93211 -0.01800
H 	H 	0.44380 0.87140 0.94100 0.04100
C 	C 	0.49570 0.77100 0.93741 -0.06500
C 	C 	0.59657 0.78230 0.77137 0.03900
H 	H 	0.59290 0.80540 0.75820 0.00800
C 	C 	0.59000 0.82750 0.78969 -0.05200
H 	H 	0.58100 0.88310 0.79110 0.04800
C 	C 	0.59983 0.77180 0.80492 -0.09100
H 	H 	0.59860 0.78230 0.81910 0.06100
C 	C 	0.61187 0.69790 0.79599 0.09300
C 	C 	0.67290 0.63280 0.83880 -0.05300
H 	H 	0.70650 0.63980 0.83190 -0.13600
C 	C 	0.66980 0.63010 0.86050 0.11200
H 	H 	0.70290 0.63220 0.86790 -0.15600
C 	C 	0.72350 0.64060 0.87120 0.21600
H 	H 	0.72420 0.64010 0.88570 -0.06400
C 	C 	0.77190 0.65100 0.86070 -0.12200
H 	H 	0.80450 0.65340 0.86850 0.06200
C 	C 	0.77600 0.65790 0.84020 -0.13500
H 	H 	0.80960 0.66740 0.83340 0.06700
C 	C 	0.72430 0.64960 0.82930 0.26700
H 	H 	0.72480 0.65570 0.81500 -0.05500
N 	N 	0.44920 0.83410 0.00361 -0.25500
N 	N 	0.35618 0.79980 0.98147 -0.25000
N 	N 	0.55836 0.66960 0.92590 -0.19700
N 	N 	0.60812 0.70600 0.77440 -0.25500
C 	C 	0.48635 0.34790 0.51810 0.02800
H 	H 	0.47920 0.37540 0.53050 0.01100
C 	C 	0.53729 0.31640 0.51257 -0.04500
H 	H 	0.56990 0.31950 0.52020 0.04300
C 	C 	0.53073 0.27960 0.49362 -0.10200
H 	H 	0.55790 0.25240 0.48600 0.06300
C 	C 	0.47603 0.29090 0.48815 0.10600
C 	C 	0.44830 0.26180 0.47093 -0.13500
C 	C 	0.39276 0.26290 0.46785 0.10800
C 	C 	0.36366 0.22480 0.45203 -0.10600
H 	H 	0.37870 0.19740 0.44070 0.06400
C 	C 	0.31020 0.23490 0.45614 -0.03800
H 	H 	0.28060 0.21480 0.44830 0.03900
C 	C 	0.30634 0.28110 0.47438 0.02200
H 	H 	0.27320 0.29660 0.48070 0.01500
C 	C 	0.48436 0.22690 0.45460 0.09600
C 	C 	0.50920 0.15450 0.45666 -0.16500
H 	H 	0.50140 0.12150 0.46810 0.08300
C 	C 	0.54660 0.12800 0.44193 0.08600
H 	H 	0.56390 0.07730 0.44380 -0.01600
C 	C 	0.53490 0.24340 0.42311 0.08500
C 	C 	0.54910 0.29350 0.40534 -0.11000
H 	H 	0.57750 0.27750 0.39640 0.03900
C 	C 	0.51810 0.37010 0.40159 -0.00200
H 	H 	0.52360 0.40070 0.38950 0.02400
C 	C 	0.48410 0.39320 0.41498 -0.06800
H 	H 	0.46690 0.44390 0.41300 0.05100
C 	C 	0.47060 0.34980 0.43211 -0.01800
H 	H 	0.44380 0.37140 0.44100 0.04100
C 	C 	0.49570 0.27100 0.43741 -0.06500
C 	C 	0.59657 0.28230 0.27137 0.03900
H 	H 	0.59290 0.30540 0.25820 0.00800
C 	C 	0.59000 0.32750 0.28969 -0.05200
H 	H 	0.58100 0.38310 0.29110 0.04800
C 	C 	0.59983 0.27180 0.30492 -0.09100
H 	H 	0.59860 0.28230 0.31910 0.06100
C 	C 	0.61187 0.19790 0.29599 0.09300
C 	C 	0.67290 0.13280 0.33880 -0.05300
H 	H 	0.70650 0.13980 0.33190 -0.13600
C 	C 	0.66980 0.13010 0.36050 0.11200
H 	H 	0.70290 0.13220 0.36790 -0.15600
C 	C 	0.72350 0.14060 0.37120 0.21600
H 	H 	0.72420 0.14010 0.38570 -0.06400
C 	C 	0.77190 0.15100 0.36070 -0.12200
H 	H 	0.80450 0.15340 0.36850 0.06200
C 	C 	0.77600 0.15790 0.34020 -0.13500
H 	H 	0.80960 0.16740 0.33340 0.06700
C 	C 	0.72430 0.14960 0.32930 0.26700
H 	H 	0.72480 0.15570 0.31500 -0.05500
N 	N 	0.44920 0.33410 0.50361 -0.25500
N 	N 	0.35618 0.29980 0.48147 -0.25000
N 	N 	0.55836 0.16960 0.42590 -0.19700
N 	N 	0.60812 0.20600 0.27440 -0.25500
C 	C 	0.98635 0.84790 0.51810 0.02800
H 	H 	0.97920 0.87540 0.53050 0.01100
C 	C 	0.03729 0.81640 0.51257 -0.04500
H 	H 	0.06990 0.81950 0.52020 0.04300
C 	C 	0.03073 0.77960 0.49362 -0.10200
H 	H 	0.05790 0.75240 0.48600 0.06300
C 	C 	0.97603 0.79090 0.48815 0.10600
C 	C 	0.94830 0.76180 0.47093 -0.13500
C 	C 	0.89276 0.76290 0.46785 0.10800
C 	C 	0.86366 0.72480 0.45203 -0.10500
H 	H 	0.87870 0.69740 0.44070 0.06400
C 	C 	0.81020 0.73490 0.45614 -0.03800
H 	H 	0.78060 0.71480 0.44830 0.03900
C 	C 	0.80634 0.78110 0.47438 0.02200
H 	H 	0.77320 0.79660 0.48070 0.01500
C 	C 	0.98436 0.72690 0.45460 0.09600
C 	C 	0.00920 0.65450 0.45666 -0.16500
H 	H 	0.00140 0.62150 0.46810 0.08300
C 	C 	0.04660 0.62800 0.44193 0.08600
H 	H 	0.06390 0.57730 0.44380 -0.01600
C 	C 	0.03490 0.74340 0.42311 0.08500
C 	C 	0.04910 0.79350 0.40534 -0.11000
H 	H 	0.07750 0.77750 0.39640 0.03900
C 	C 	0.01810 0.87010 0.40159 -0.00100
H 	H 	0.02360 0.90070 0.38950 0.02400
C 	C 	0.98410 0.89320 0.41498 -0.06900
H 	H 	0.96690 0.94390 0.41300 0.05100
C 	C 	0.97060 0.84980 0.43211 -0.01800
H 	H 	0.94380 0.87140 0.44100 0.04100
C 	C 	0.99570 0.77100 0.43741 -0.06500
C 	C 	0.09657 0.78230 0.27137 0.03900
H 	H 	0.09290 0.80540 0.25820 0.00800
C 	C 	0.09000 0.82750 0.28969 -0.05200
H 	H 	0.08100 0.88310 0.29110 0.04800
C 	C 	0.09983 0.77180 0.30492 -0.09100
H 	H 	0.09860 0.78230 0.31910 0.06100
C 	C 	0.11187 0.69790 0.29599 0.09300
C 	C 	0.17290 0.63280 0.33880 -0.05300
H 	H 	0.20650 0.63980 0.33190 -0.13600
C 	C 	0.16980 0.63010 0.36050 0.11200
H 	H 	0.20290 0.63220 0.36790 -0.15600
C 	C 	0.22350 0.64060 0.37120 0.21600
H 	H 	0.22420 0.64010 0.38570 -0.06400
C 	C 	0.27190 0.65100 0.36070 -0.12200
H 	H 	0.30450 0.65340 0.36850 0.06200
C 	C 	0.27600 0.65790 0.34020 -0.13500
H 	H 	0.30960 0.66740 0.33340 0.06700
C 	C 	0.22430 0.64960 0.32930 0.26700
H 	H 	0.22480 0.65570 0.31500 -0.05500
N 	N 	0.94920 0.83410 0.50361 -0.25500
N 	N 	0.85618 0.79980 0.48147 -0.25000
N 	N 	0.05836 0.66960 0.42590 -0.19700
N 	N 	0.10812 0.70600 0.27440 -0.25500
C 	C 	0.98635 0.34790 0.01810 0.02800
H 	H 	0.97920 0.37540 0.03050 0.01100
C 	C 	0.03729 0.31640 0.01257 -0.04500
H 	H 	0.06990 0.31950 0.02020 0.04300
C 	C 	0.03073 0.27960 0.99362 -0.10200
H 	H 	0.05790 0.25240 0.98600 0.06300
C 	C 	0.97603 0.29090 0.98815 0.10600
C 	C 	0.94830 0.26180 0.97093 -0.13500
C 	C 	0.89276 0.26290 0.96785 0.10800
C 	C 	0.86366 0.22480 0.95203 -0.10600
H 	H 	0.87870 0.19740 0.94070 0.06400
C 	C 	0.81020 0.23490 0.95614 -0.03800
H 	H 	0.78060 0.21480 0.94830 0.03900
C 	C 	0.80634 0.28110 0.97438 0.02200
H 	H 	0.77320 0.29660 0.98070 0.01500
C 	C 	0.98436 0.22690 0.95460 0.09600
C 	C 	0.00920 0.15450 0.95666 -0.16500
H 	H 	0.00140 0.12150 0.96810 0.08300
C 	C 	0.04660 0.12800 0.94193 0.08600
H 	H 	0.06390 0.07730 0.94380 -0.01600
C 	C 	0.03490 0.24340 0.92311 0.08500
C 	C 	0.04910 0.29350 0.90534 -0.11000
H 	H 	0.07750 0.27750 0.89640 0.03900
C 	C 	0.01810 0.37010 0.90159 -0.00200
H 	H 	0.02360 0.40070 0.88950 0.02400
C 	C 	0.98410 0.39320 0.91498 -0.06800
H 	H 	0.96690 0.44390 0.91300 0.05100
C 	C 	0.97060 0.34980 0.93211 -0.01800
H 	H 	0.94380 0.37140 0.94100 0.04100
C 	C 	0.99570 0.27100 0.93741 -0.06500
C 	C 	0.09657 0.28230 0.77137 0.03900
H 	H 	0.09290 0.30540 0.75820 0.00800
C 	C 	0.09000 0.32750 0.78969 -0.05200
H 	H 	0.08100 0.38310 0.79110 0.04800
C 	C 	0.09983 0.27180 0.80492 -0.09100
H 	H 	0.09860 0.28230 0.81910 0.06100
C 	C 	0.11187 0.19790 0.79599 0.09300
C 	C 	0.17290 0.13280 0.83880 -0.05300
H 	H 	0.20650 0.13980 0.83190 -0.13600
C 	C 	0.16980 0.13010 0.86050 0.11200
H 	H 	0.20290 0.13220 0.86790 -0.15600
C 	C 	0.22350 0.14060 0.87120 0.21600
H 	H 	0.22420 0.14010 0.88570 -0.06400
C 	C 	0.27190 0.15100 0.86070 -0.12200
H 	H 	0.30450 0.15340 0.86850 0.06200
C 	C 	0.27600 0.15790 0.84020 -0.13500
H 	H 	0.30960 0.16740 0.83340 0.06700
C 	C 	0.22430 0.14960 0.82930 0.26700
H 	H 	0.22480 0.15570 0.81500 -0.05500
N 	N 	0.94920 0.33410 0.00361 -0.25500
N 	N 	0.85618 0.29980 0.98147 -0.25000
N 	N 	0.05836 0.16960 0.92590 -0.19700
N 	N 	0.10812 0.20600 0.77440 -0.25500
C 	C 	0.76365 0.40210 0.01810 0.02800
H 	H 	0.77080 0.37460 0.03050 0.01100
C 	C 	0.71271 0.43360 0.01257 -0.04500
H 	H 	0.68010 0.43050 0.02020 0.04300
C 	C 	0.71927 0.47040 0.99362 -0.10200
H 	H 	0.69210 0.49760 0.98600 0.06300
C 	C 	0.77397 0.45910 0.98815 0.10600
C 	C 	0.80170 0.48820 0.97093 -0.13500
C 	C 	0.85724 0.48710 0.96785 0.10800
C 	C 	0.88634 0.52520 0.95203 -0.10600
H 	H 	0.87130 0.55260 0.94070 0.06400
C 	C 	0.93980 0.51510 0.95614 -0.03800
H 	H 	0.96940 0.53520 0.94830 0.03900
C 	C 	0.94366 0.46890 0.97438 0.02200
H 	H 	0.97680 0.45340 0.98070 0.01500
C 	C 	0.76564 0.52310 0.95460 0.09600
C 	C 	0.74080 0.59550 0.95666 -0.16500
H 	H 	0.74860 0.62850 0.96810 0.08300
C 	C 	0.70340 0.62200 0.94193 0.08600
H 	H 	0.68610 0.67270 0.94380 -0.01600
C 	C 	0.71510 0.50660 0.92311 0.08500
C 	C 	0.70090 0.45650 0.90534 -0.11000
H 	H 	0.67250 0.47250 0.89640 0.03900
C 	C 	0.73190 0.37990 0.90159 -0.00200
H 	H 	0.72640 0.34930 0.88950 0.02400
C 	C 	0.76590 0.35680 0.91498 -0.06800
H 	H 	0.78310 0.30610 0.91300 0.05100
C 	C 	0.77940 0.40020 0.93211 -0.01800
H 	H 	0.80620 0.37860 0.94100 0.04100
C 	C 	0.75430 0.47900 0.93741 -0.06500
C 	C 	0.65343 0.46770 0.77137 0.03900
H 	H 	0.65710 0.44460 0.75820 0.00800
C 	C 	0.66000 0.42250 0.78969 -0.05200
H 	H 	0.66900 0.36690 0.79110 0.04800
C 	C 	0.65017 0.47820 0.80492 -0.09100
H 	H 	0.65140 0.46770 0.81910 0.06100
C 	C 	0.63813 0.55210 0.79599 0.09300
C 	C 	0.57710 0.61720 0.83880 -0.05300
H 	H 	0.54350 0.61020 0.83190 -0.13600
C 	C 	0.58020 0.61990 0.86050 0.11200
H 	H 	0.54710 0.61780 0.86790 -0.15600
C 	C 	0.52650 0.60940 0.87120 0.21600
H 	H 	0.52580 0.60990 0.88570 -0.06400
C 	C 	0.47810 0.59900 0.86070 -0.12200
H 	H 	0.44550 0.59660 0.86850 0.06200
C 	C 	0.47400 0.59210 0.84020 -0.13500
H 	H 	0.44040 0.58260 0.83340 0.06700
C 	C 	0.52570 0.60040 0.82930 0.26700
H 	H 	0.52520 0.59430 0.81500 -0.05500
N 	N 	0.80080 0.41590 0.00361 -0.25500
N 	N 	0.89382 0.45020 0.98147 -0.25000
N 	N 	0.69164 0.58040 0.92590 -0.19700
N 	N 	0.64188 0.54400 0.77440 -0.25500
C 	C 	0.76365 0.90210 0.51810 0.02800
H 	H 	0.77080 0.87460 0.53050 0.01100
C 	C 	0.71271 0.93360 0.51257 -0.04500
H 	H 	0.68010 0.93050 0.52020 0.04300
C 	C 	0.71927 0.97040 0.49362 -0.10200
H 	H 	0.69210 0.99760 0.48600 0.06300
C 	C 	0.77397 0.95910 0.48815 0.10600
C 	C 	0.80170 0.98820 0.47093 -0.13500
C 	C 	0.85724 0.98710 0.46785 0.10800
C 	C 	0.88634 0.02520 0.45203 -0.10500
H 	H 	0.87130 0.05260 0.44070 0.06400
C 	C 	0.93980 0.01510 0.45614 -0.03800
H 	H 	0.96940 0.03520 0.44830 0.03900
C 	C 	0.94366 0.96890 0.47438 0.02200
H 	H 	0.97680 0.95340 0.48070 0.01500
C 	C 	0.76564 0.02310 0.45460 0.09600
C 	C 	0.74080 0.09550 0.45666 -0.16500
H 	H 	0.74860 0.12850 0.46810 0.08300
C 	C 	0.70340 0.12200 0.44193 0.08600
H 	H 	0.68610 0.17270 0.44380 -0.01600
C 	C 	0.71510 0.00660 0.42311 0.08500
C 	C 	0.70090 0.95650 0.40534 -0.11000
H 	H 	0.67250 0.97250 0.39640 0.03900
C 	C 	0.73190 0.87990 0.40159 -0.00200
H 	H 	0.72640 0.84930 0.38950 0.02400
C 	C 	0.76590 0.85680 0.41498 -0.06800
H 	H 	0.78310 0.80610 0.41300 0.05100
C 	C 	0.77940 0.90020 0.43211 -0.01800
H 	H 	0.80620 0.87860 0.44100 0.04100
C 	C 	0.75430 0.97900 0.43741 -0.06500
C 	C 	0.65343 0.96770 0.27137 0.03900
H 	H 	0.65710 0.94460 0.25820 0.00800
C 	C 	0.66000 0.92250 0.28969 -0.05200
H 	H 	0.66900 0.86690 0.29110 0.04800
C 	C 	0.65017 0.97820 0.30492 -0.09100
H 	H 	0.65140 0.96770 0.31910 0.06100
C 	C 	0.63813 0.05210 0.29599 0.09300
C 	C 	0.57710 0.11720 0.33880 -0.05300
H 	H 	0.54350 0.11020 0.33190 -0.13600
C 	C 	0.58020 0.11990 0.36050 0.11200
H 	H 	0.54710 0.11780 0.36790 -0.15600
C 	C 	0.52650 0.10940 0.37120 0.21600
H 	H 	0.52580 0.10990 0.38570 -0.06400
C 	C 	0.47810 0.09900 0.36070 -0.12200
H 	H 	0.44550 0.09660 0.36850 0.06200
C 	C 	0.47400 0.09210 0.34020 -0.13500
H 	H 	0.44040 0.08260 0.33340 0.06700
C 	C 	0.52570 0.10040 0.32930 0.26700
H 	H 	0.52520 0.09430 0.31500 -0.05500
N 	N 	0.80080 0.91590 0.50361 -0.25500
N 	N 	0.89382 0.95020 0.48147 -0.25000
N 	N 	0.69164 0.08040 0.42590 -0.19700
N 	N 	0.64188 0.04400 0.27440 -0.25500
C 	C 	0.26365 0.40210 0.51810 0.02800
H 	H 	0.27080 0.37460 0.53050 0.01100
C 	C 	0.21271 0.43360 0.51257 -0.04500
H 	H 	0.18010 0.43050 0.52020 0.04300
C 	C 	0.21927 0.47040 0.49362 -0.10200
H 	H 	0.19210 0.49760 0.48600 0.06300
C 	C 	0.27397 0.45910 0.48815 0.10600
C 	C 	0.30170 0.48820 0.47093 -0.13500
C 	C 	0.35724 0.48710 0.46785 0.10800
C 	C 	0.38634 0.52520 0.45203 -0.10600
H 	H 	0.37130 0.55260 0.44070 0.06400
C 	C 	0.43980 0.51510 0.45614 -0.03800
H 	H 	0.46940 0.53520 0.44830 0.03900
C 	C 	0.44366 0.46890 0.47438 0.02200
H 	H 	0.47680 0.45340 0.48070 0.01500
C 	C 	0.26564 0.52310 0.45460 0.09600
C 	C 	0.24080 0.59550 0.45666 -0.16500
H 	H 	0.24860 0.62850 0.46810 0.08300
C 	C 	0.20340 0.62200 0.44193 0.08600
H 	H 	0.18610 0.67270 0.44380 -0.01600
C 	C 	0.21510 0.50660 0.42311 0.08500
C 	C 	0.20090 0.45650 0.40534 -0.11000
H 	H 	0.17250 0.47250 0.39640 0.03900
C 	C 	0.23190 0.37990 0.40159 -0.00200
H 	H 	0.22640 0.34930 0.38950 0.02400
C 	C 	0.26590 0.35680 0.41498 -0.06800
H 	H 	0.28310 0.30610 0.41300 0.05100
C 	C 	0.27940 0.40020 0.43211 -0.01800
H 	H 	0.30620 0.37860 0.44100 0.04100
C 	C 	0.25430 0.47900 0.43741 -0.06500
C 	C 	0.15343 0.46770 0.27137 0.03900
H 	H 	0.15710 0.44460 0.25820 0.00800
C 	C 	0.16000 0.42250 0.28969 -0.05200
H 	H 	0.16900 0.36690 0.29110 0.04800
C 	C 	0.15017 0.47820 0.30492 -0.09100
H 	H 	0.15140 0.46770 0.31910 0.06100
C 	C 	0.13813 0.55210 0.29599 0.09300
C 	C 	0.07710 0.61720 0.33880 -0.05300
H 	H 	0.04350 0.61020 0.33190 -0.13600
C 	C 	0.08020 0.61990 0.36050 0.11200
H 	H 	0.04710 0.61780 0.36790 -0.15600
C 	C 	0.02650 0.60940 0.37120 0.21600
H 	H 	0.02580 0.60990 0.38570 -0.06400
C 	C 	0.97810 0.59900 0.36070 -0.12200
H 	H 	0.94550 0.59660 0.36850 0.06200
C 	C 	0.97400 0.59210 0.34020 -0.13500
H 	H 	0.94040 0.58260 0.33340 0.06700
C 	C 	0.02570 0.60040 0.32930 0.26700
H 	H 	0.02520 0.59430 0.31500 -0.05500
N 	N 	0.30080 0.41590 0.50361 -0.25500
N 	N 	0.39382 0.45020 0.48147 -0.25000
N 	N 	0.19164 0.58040 0.42590 -0.19700
N 	N 	0.14188 0.54400 0.27440 -0.25500
C 	C 	0.26365 0.90210 0.01810 0.02800
H 	H 	0.27080 0.87460 0.03050 0.01100
C 	C 	0.21271 0.93360 0.01257 -0.04500
H 	H 	0.18010 0.93050 0.02020 0.04300
C 	C 	0.21927 0.97040 0.99362 -0.10200
H 	H 	0.19210 0.99760 0.98600 0.06300
C 	C 	0.27397 0.95910 0.98815 0.10600
C 	C 	0.30170 0.98820 0.97093 -0.13500
C 	C 	0.35724 0.98710 0.96785 0.10800
C 	C 	0.38634 0.02520 0.95203 -0.10600
H 	H 	0.37130 0.05260 0.94070 0.06400
C 	C 	0.43980 0.01510 0.95614 -0.03800
H 	H 	0.46940 0.03520 0.94830 0.03900
C 	C 	0.44366 0.96890 0.97438 0.02300
H 	H 	0.47680 0.95340 0.98070 0.01500
C 	C 	0.26564 0.02310 0.95460 0.09500
C 	C 	0.24080 0.09550 0.95666 -0.16500
H 	H 	0.24860 0.12850 0.96810 0.08300
C 	C 	0.20340 0.12200 0.94193 0.08600
H 	H 	0.18610 0.17270 0.94380 -0.01600
C 	C 	0.21510 0.00660 0.92311 0.08500
C 	C 	0.20090 0.95650 0.90534 -0.10900
H 	H 	0.17250 0.97250 0.89640 0.03900
C 	C 	0.23190 0.87990 0.90159 -0.00200
H 	H 	0.22640 0.84930 0.88950 0.02400
C 	C 	0.26590 0.85680 0.91498 -0.06800
H 	H 	0.28310 0.80610 0.91300 0.05100
C 	C 	0.27940 0.90020 0.93211 -0.01800
H 	H 	0.30620 0.87860 0.94100 0.04100
C 	C 	0.25430 0.97900 0.93741 -0.06400
C 	C 	0.15343 0.96770 0.77137 0.03900
H 	H 	0.15710 0.94460 0.75820 0.00800
C 	C 	0.16000 0.92250 0.78969 -0.05200
H 	H 	0.16900 0.86690 0.79110 0.04800
C 	C 	0.15017 0.97820 0.80492 -0.09100
H 	H 	0.15140 0.96770 0.81910 0.06100
C 	C 	0.13813 0.05210 0.79599 0.09300
C 	C 	0.07710 0.11720 0.83880 -0.05300
H 	H 	0.04350 0.11020 0.83190 -0.13700
C 	C 	0.08020 0.11990 0.86050 0.11200
H 	H 	0.04710 0.11780 0.86790 -0.15600
C 	C 	0.02650 0.10940 0.87120 0.21600
H 	H 	0.02580 0.10990 0.88570 -0.06400
C 	C 	0.97810 0.09900 0.86070 -0.12200
H 	H 	0.94550 0.09660 0.86850 0.06200
C 	C 	0.97400 0.09210 0.84020 -0.13500
H 	H 	0.94040 0.08260 0.83340 0.06700
C 	C 	0.02570 0.10040 0.82930 0.26700
H 	H 	0.02520 0.09430 0.81500 -0.05500
N 	N 	0.30080 0.91590 0.00361 -0.25500
N 	N 	0.39382 0.95020 0.98147 -0.25000
N 	N 	0.19164 0.08040 0.92590 -0.19700
N 	N 	0.14188 0.04400 0.77440 -0.25500
Ag	Ag	0.37500 0.37500 0.65433 0.52700
C 	C 	0.37500 0.37500 0.55523 -0.10700
C 	C 	0.37500 0.37500 0.57847 0.04300
N 	N 	0.37500 0.37500 0.62066 -0.21800
Ag	Ag	0.37500 0.87500 0.15433 0.52700
C 	C 	0.37500 0.87500 0.05523 -0.10700
C 	C 	0.37500 0.87500 0.07847 0.04300
N 	N 	0.37500 0.87500 0.12066 -0.21800
Ag	Ag	0.87500 0.37500 0.15433 0.52700
C 	C 	0.87500 0.37500 0.05523 -0.10700
C 	C 	0.87500 0.37500 0.07847 0.04300
N 	N 	0.87500 0.37500 0.12066 -0.21800
Ag	Ag	0.87500 0.87500 0.65433 0.52700
C 	C 	0.87500 0.87500 0.55523 -0.10700
C 	C 	0.87500 0.87500 0.57847 0.04300
N 	N 	0.87500 0.87500 0.62066 -0.21900
Ag	Ag	0.62500 0.62500 0.90433 0.52700
C 	C 	0.62500 0.62500 0.80523 -0.10700
C 	C 	0.62500 0.62500 0.82847 0.04300
N 	N 	0.62500 0.62500 0.87066 -0.21800
Ag	Ag	0.62500 0.12500 0.40433 0.52700
C 	C 	0.62500 0.12500 0.30523 -0.10700
C 	C 	0.62500 0.12500 0.32847 0.04300
N 	N 	0.62500 0.12500 0.37066 -0.21800
Ag	Ag	0.12500 0.62500 0.40433 0.52700
C 	C 	0.12500 0.62500 0.30523 -0.10700
C 	C 	0.12500 0.62500 0.32847 0.04300
N 	N 	0.12500 0.62500 0.37066 -0.21800
Ag	Ag	0.12500 0.12500 0.90433 0.52700
C 	C 	0.12500 0.12500 0.80523 -0.10700
C 	C 	0.12500 0.12500 0.82847 0.04300
N 	N 	0.12500 0.12500 0.87066 -0.21900
Fe	Fe	0.12500 0.12500 0.75361 1.18300
Fe	Fe	0.12500 0.62500 0.25361 1.18300
Fe	Fe	0.62500 0.62500 0.75361 1.18300
Fe	Fe	0.62500 0.12500 0.25361 1.18300
Fe	Fe	0.37500 0.87500 0.00361 1.18300
Fe	Fe	0.37500 0.37500 0.50361 1.18300
Fe	Fe	0.87500 0.37500 0.00361 1.18300
Fe	Fe	0.87500 0.87500 0.50361 1.18300
